# Generated by pormake.
# Topology zzz, (3,6)-cn, num edge types: 1
# Building blocks:
#     Node 0, Type 0, BuildingBlock: OLANEW_clean_sbu_2, # of connection points: 3
#     Node 1, Type 0, BuildingBlock: OLANEW_clean_sbu_2, # of connection points: 3
#     Node 2, Type 0, BuildingBlock: OLANEW_clean_sbu_2, # of connection points: 3
#     Node 3, Type 0, BuildingBlock: OLANEW_clean_sbu_2, # of connection points: 3
#     Node 4, Type 0, BuildingBlock: OLANEW_clean_sbu_2, # of connection points: 3
#     Node 5, Type 0, BuildingBlock: OLANEW_clean_sbu_2, # of connection points: 3
#     Node 6, Type 0, BuildingBlock: OLANEW_clean_sbu_2, # of connection points: 3
#     Node 7, Type 0, BuildingBlock: OLANEW_clean_sbu_2, # of connection points: 3
#     Node 8, Type 1, BuildingBlock: CUKXOW_clean_sbu_0, # of connection points: 6
#     Node 9, Type 1, BuildingBlock: CUKXOW_clean_sbu_0, # of connection points: 6
#     Node 10, Type 1, BuildingBlock: CUKXOW_clean_sbu_0, # of connection points: 6
#     Node 11, Type 1, BuildingBlock: CUKXOW_clean_sbu_0, # of connection points: 6
#     Edge 12, Type (0, 1), BuildingBlock: EZIPEK_clean_linker_0, # of connection points: 2
#     Edge 13, Type (0, 1), BuildingBlock: EZIPEK_clean_linker_0, # of connection points: 2
#     Edge 14, Type (0, 1), BuildingBlock: EZIPEK_clean_linker_0, # of connection points: 2
#     Edge 15, Type (0, 1), BuildingBlock: EZIPEK_clean_linker_0, # of connection points: 2
#     Edge 16, Type (0, 1), BuildingBlock: EZIPEK_clean_linker_0, # of connection points: 2
#     Edge 17, Type (0, 1), BuildingBlock: EZIPEK_clean_linker_0, # of connection points: 2
#     Edge 18, Type (0, 1), BuildingBlock: EZIPEK_clean_linker_0, # of connection points: 2
#     Edge 19, Type (0, 1), BuildingBlock: EZIPEK_clean_linker_0, # of connection points: 2
#     Edge 20, Type (0, 1), BuildingBlock: EZIPEK_clean_linker_0, # of connection points: 2
#     Edge 21, Type (0, 1), BuildingBlock: EZIPEK_clean_linker_0, # of connection points: 2
#     Edge 22, Type (0, 1), BuildingBlock: EZIPEK_clean_linker_0, # of connection points: 2
#     Edge 23, Type (0, 1), BuildingBlock: EZIPEK_clean_linker_0, # of connection points: 2
#     Edge 24, Type (0, 1), BuildingBlock: EZIPEK_clean_linker_0, # of connection points: 2
#     Edge 25, Type (0, 1), BuildingBlock: EZIPEK_clean_linker_0, # of connection points: 2
#     Edge 26, Type (0, 1), BuildingBlock: EZIPEK_clean_linker_0, # of connection points: 2
#     Edge 27, Type (0, 1), BuildingBlock: EZIPEK_clean_linker_0, # of connection points: 2
#     Edge 28, Type (0, 1), BuildingBlock: EZIPEK_clean_linker_0, # of connection points: 2
#     Edge 29, Type (0, 1), BuildingBlock: EZIPEK_clean_linker_0, # of connection points: 2
#     Edge 30, Type (0, 1), BuildingBlock: EZIPEK_clean_linker_0, # of connection points: 2
#     Edge 31, Type (0, 1), BuildingBlock: EZIPEK_clean_linker_0, # of connection points: 2
#     Edge 32, Type (0, 1), BuildingBlock: EZIPEK_clean_linker_0, # of connection points: 2
#     Edge 33, Type (0, 1), BuildingBlock: EZIPEK_clean_linker_0, # of connection points: 2
#     Edge 34, Type (0, 1), BuildingBlock: EZIPEK_clean_linker_0, # of connection points: 2
#     Edge 35, Type (0, 1), BuildingBlock: EZIPEK_clean_linker_0, # of connection points: 2
# Relax obj value: 0.070
# Max RMSD: 0.135
# Mean RMSD: 0.091
data_MOF--net-zzz--node1-OLANEW_clean_sbu_2--node2-CUKXOW_clean_sbu_0--edge1-EZIPEK_clean_linker_0
_symmetry_space_group_name_H-M    P1
_symmetry_Int_Tables_number       1
_symmetry_cell_setting            triclinic
loop_
_symmetry_equiv_pos_as_xyz
'x, y, z'
_cell_length_a     40.156641
_cell_length_b     41.205222
_cell_length_c     13.374276
_cell_angle_alpha  93.524893
_cell_angle_beta   86.503111
_cell_angle_gamma 94.600092
loop_
_atom_site_label
_atom_site_type_symbol
_atom_site_fract_x
_atom_site_fract_y
_atom_site_fract_z
_atom_type_partial_charge
O0 O 0.81353 0.50792 0.01404 0.0
Cd1 Cd 0.7715 0.5242 0.14368 0.0
O2 O 0.79139 0.46066 0.95334 0.0
Cd3 Cd 0.76169 0.45948 0.09432 0.0
O4 O 0.79079 0.47327 0.22454 0.0
C5 C 0.81709 0.45837 0.2285 0.0
O6 O 0.82232 0.4336 0.16446 0.0
C7 C 0.81438 0.4837 0.95028 0.0
C8 C 0.70878 0.52426 0.06809 0.0
O9 O 0.73126 0.54758 0.05299 0.0
O10 O 0.71567 0.501 0.12065 0.0
O11 O 0.96106 0.81363 0.7393 0.0
Cd12 Cd 0.92541 0.76327 0.71528 0.0
O13 O 0.97473 0.79442 0.87929 0.0
Cd14 Cd 0.99598 0.80298 0.025 0.0
O15 O 0.00593 0.82839 0.16827 0.0
C16 C 0.98078 0.83967 0.21651 0.0
O17 O 0.95084 0.83291 0.18275 0.0
C18 C 0.97578 0.81773 0.82098 0.0
C19 C 0.95507 0.70468 0.72346 0.0
O20 O 0.94863 0.71541 0.63932 0.0
O21 O 0.94889 0.72242 0.80349 0.0
O22 O 0.68768 0.97059 0.82982 0.0
Cd23 Cd 0.73328 0.93605 0.84734 0.0
O24 O 0.69323 0.98731 0.98693 0.0
Cd25 Cd 0.67377 0.01485 0.11729 0.0
O26 O 0.63637 0.02862 0.23153 0.0
C27 C 0.62738 0.00796 0.29632 0.0
O28 O 0.64133 0.9801 0.29199 0.0
C29 C 0.67763 0.98722 0.9072 0.0
C30 C 0.79539 0.96614 0.89442 0.0
O31 O 0.78779 0.96034 0.80305 0.0
O32 O 0.77315 0.95924 0.96434 0.0
O33 O 0.58767 0.71202 0.83543 0.0
Cd34 Cd 0.62656 0.76057 0.83404 0.0
O35 O 0.57265 0.7318 0.98585 0.0
Cd36 Cd 0.54752 0.72471 0.13228 0.0
O37 O 0.5358 0.69928 0.2689 0.0
C38 C 0.56023 0.68723 0.30534 0.0
O39 O 0.59056 0.69317 0.26492 0.0
C40 C 0.57033 0.70908 0.91743 0.0
C41 C 0.59362 0.81763 0.8426 0.0
O42 O 0.60717 0.80632 0.75979 0.0
O43 O 0.59558 0.80184 0.92133 0.0
O44 O 0.2093 0.51634 0.6123 0.0
Cd45 Cd 0.26077 0.4976 0.52949 0.0
O46 O 0.19851 0.47615 0.503 0.0
Cd47 Cd 0.1656 0.44609 0.40721 0.0
O48 O 0.13625 0.45006 0.27975 0.0
C49 C 0.1348 0.47936 0.25717 0.0
O50 O 0.15013 0.50312 0.31098 0.0
C51 C 0.18788 0.49815 0.56485 0.0
C52 C 0.32162 0.5152 0.60902 0.0
O53 O 0.30254 0.49134 0.64239 0.0
O54 O 0.31114 0.53191 0.54118 0.0
O55 O 0.02534 0.19392 0.57167 0.0
Cd56 Cd 0.05107 0.2437 0.49963 0.0
O57 O 0.07384 0.17213 0.55036 0.0
Cd58 Cd 0.09765 0.20933 0.45352 0.0
O59 O 0.09656 0.18908 0.29907 0.0
C60 C 0.06713 0.17916 0.27575 0.0
O61 O 0.04169 0.18915 0.3327 0.0
C62 C 0.04318 0.17027 0.58145 0.0
C63 C 0.02915 0.30375 0.56991 0.0
O64 O 0.01379 0.28608 0.50223 0.0
O65 O 0.05392 0.29236 0.60853 0.0
O66 O 0.31226 0.99798 0.51723 0.0
Cd67 Cd 0.2644 1.00071 0.4146 0.0
O68 O 0.32457 0.05108 0.52905 0.0
Cd69 Cd 0.29166 0.05869 0.41275 0.0
O70 O 0.32957 0.04745 0.29527 0.0
C71 C 0.35875 0.06184 0.29998 0.0
O72 O 0.36451 0.08489 0.37048 0.0
C73 C 0.33043 0.02252 0.5501 0.0
C74 C 0.20265 1.00195 0.5217 0.0
O75 O 0.21675 0.97526 0.5025 0.0
O76 O 0.21815 0.02842 0.49252 0.0
O77 O 0.47578 0.3401 0.52682 0.0
Cd78 Cd 0.43808 0.29435 0.47024 0.0
O79 O 0.43338 0.3639 0.6036 0.0
Cd80 Cd 0.39921 0.33862 0.49905 0.0
O81 O 0.40485 0.36037 0.35333 0.0
C82 C 0.41597 0.39015 0.36109 0.0
O83 O 0.41892 0.40452 0.45078 0.0
C84 C 0.46472 0.36256 0.58598 0.0
C85 C 0.44612 0.24124 0.58145 0.0
O86 O 0.46224 0.2449 0.49675 0.0
O87 O 0.42559 0.26229 0.61338 0.0
Tb88 Tb 0.98991 0.97955 0.69884 0.0
C89 C 0.06831 0.99816 0.71415 0.0
Tb90 Tb 0.01456 0.0155 0.88949 0.0
O91 O 0.96958 0.02353 0.65248 0.0
O92 O 0.0109 0.02652 0.73925 0.0
O93 O 0.04348 0.98514 0.66031 0.0
C94 C 0.02947 0.06673 0.01471 0.0
O95 O 0.063 0.01195 0.80582 0.0
C96 C 0.01631 0.95235 0.88409 0.0
C97 C 0.93567 0.99527 0.86746 0.0
O98 O 0.02731 0.03644 0.03859 0.0
O99 O 0.02271 0.06798 0.92171 0.0
O100 O 0.03587 0.97208 0.93835 0.0
O101 O 0.99463 0.96825 0.84881 0.0
O102 O 0.95918 0.01302 0.91839 0.0
O103 O 0.94264 0.97761 0.78376 0.0
C104 C 0.9839 0.93183 0.55738 0.0
O105 O 0.97369 0.96078 0.55199 0.0
O106 O 0.99706 0.92961 0.64252 0.0
C107 C 0.9902 0.04328 0.70305 0.0
Tb108 Tb 0.50127 0.07051 0.81139 0.0
C109 C 0.53652 0.02962 0.63765 0.0
Tb110 Tb 0.50615 0.99724 0.83437 0.0
O111 O 0.55399 0.08289 0.84459 0.0
O112 O 0.52838 0.04133 0.8958 0.0
O113 O 0.51652 0.05341 0.65906 0.0
C114 C 0.52956 0.93899 0.84965 0.0
O115 O 0.53924 0.00667 0.70132 0.0
C116 C 0.45065 0.01206 0.75857 0.0
C117 C 0.46243 0.03505 -0.00433 0.0
O118 O 0.50264 0.94424 0.80635 0.0
O119 O 0.54281 0.96652 0.88672 0.0
O120 O 0.45346 0.98588 0.80593 0.0
O121 O 0.47939 0.02631 0.74505 0.0
O122 O 0.48022 0.00917 0.97885 0.0
O123 O 0.46488 0.05992 0.93632 0.0
C124 C 0.4832 0.12887 0.76756 0.0
O125 O 0.47547 0.11523 0.85169 0.0
O126 O 0.50136 0.11006 0.71044 0.0
C127 C 0.5572 0.0553 0.88335 0.0
Tb128 Tb 0.53312 0.54803 0.7413 0.0
C129 C 0.45349 0.53447 0.76041 0.0
Tb130 Tb 0.49991 0.51744 0.9281 0.0
O131 O 0.55188 0.5018 0.6853 0.0
O132 O 0.50749 0.50293 0.77424 0.0
O133 O 0.48007 0.54808 0.71057 0.0
C134 C 0.47537 0.4753 0.06269 0.0
O135 O 0.45544 0.51952 0.84462 0.0
C136 C 0.50581 0.58135 0.93317 0.0
C137 C 0.58014 0.52802 0.8993 0.0
O138 O 0.48145 0.50644 0.08112 0.0
O139 O 0.48363 0.4679 0.96953 0.0
O140 O 0.48219 0.56488 0.98362 0.0
O141 O 0.52595 0.56189 0.89409 0.0
O142 O 0.55365 0.5128 0.94679 0.0
O143 O 0.57792 0.54577 0.82091 0.0
C144 C 0.54797 0.59382 0.61128 0.0
O145 O 0.55152 0.56292 0.59256 0.0
O146 O 0.53662 0.59894 0.70317 0.0
C147 C 0.52815 0.48418 0.73224 0.0
Tb148 Tb 0.97874 0.50322 0.58788 0.0
C149 C 0.00137 0.43893 0.66031 0.0
Tb150 Tb 0.01444 0.50635 0.78356 0.0
O151 O 0.02543 0.49616 0.49625 0.0
O152 O 0.02623 0.52044 0.63676 0.0
O153 O 0.97657 0.45195 0.62043 0.0
C154 C 0.05593 0.50215 0.92814 0.0
O155 O 0.02242 0.457 0.71782 0.0
C156 C 0.94878 0.50186 0.80027 0.0
C157 C 0.99263 0.57195 0.70804 0.0
O158 O 0.02432 0.49296 0.93325 0.0
O159 O 0.06442 0.51405 0.84182 0.0
O160 O 0.96744 0.51616 0.86824 0.0
O161 O 0.96716 0.48824 0.73384 0.0
O162 O 0.01183 0.5587 0.76973 0.0
O163 O 0.97681 0.55489 0.63501 0.0
C164 C 0.92824 0.50084 0.46864 0.0
O165 O 0.92862 0.51527 0.55746 0.0
O166 O 0.95702 0.48933 0.44446 0.0
C167 C 0.04444 0.50818 0.56705 0.0
C168 C 0.1601 0.02515 0.64833 0.0
C169 C 0.16835 1.00166 0.57059 0.0
C170 C 0.11271 0.97363 0.59579 0.0
C171 C 0.10291 0.99932 0.66528 0.0
N172 N 0.11559 0.05534 0.72682 0.0
N173 N 0.14788 0.96012 0.44899 0.0
C174 C 0.1261 0.02679 0.68324 0.0
C175 C 0.14334 0.97781 0.53798 0.0
N176 N 0.18455 0.04541 0.69101 0.0
N177 N 0.09372 0.9447 0.58595 0.0
H178 H 0.16895 0.9638 0.40034 0.0
H179 H 0.12887 0.94474 0.41774 0.0
H180 H 0.07154 0.93926 0.62755 0.0
H181 H 0.10202 0.92453 0.54351 0.0
H182 H 0.17974 0.06091 0.75394 0.0
H183 H 0.20992 0.04418 0.67078 0.0
H184 H 0.13144 0.07657 0.73387 0.0
H185 H 0.09046 0.05928 0.74268 0.0
C186 C 0.46899 0.21692 0.72801 0.0
C187 C 0.45085 0.21281 0.63967 0.0
C188 C 0.4495 0.15347 0.64492 0.0
C189 C 0.4684 0.1575 0.73204 0.0
N190 N 0.48999 0.19194 0.86915 0.0
N191 N 0.41687 0.17841 0.52772 0.0
C192 C 0.47589 0.18891 0.77822 0.0
C193 C 0.43898 0.18139 0.60228 0.0
N194 N 0.48118 0.24745 0.76052 0.0
N195 N 0.44203 0.12293 0.60209 0.0
H196 H 0.40854 0.19849 0.49543 0.0
H197 H 0.40451 0.15643 0.50354 0.0
H198 H 0.44654 0.10163 0.63541 0.0
H199 H 0.43247 0.11851 0.53152 0.0
H200 H 0.49787 0.25194 0.8172 0.0
H201 H 0.47621 0.26853 0.72656 0.0
H202 H 0.49301 0.21387 0.91175 0.0
H203 H 0.49646 0.17201 0.90611 0.0
C204 C 0.37711 0.49471 0.63423 0.0
C205 C 0.35626 0.52106 0.64102 0.0
C206 C 0.40291 0.55777 0.6994 0.0
C207 C 0.4213 0.53043 0.71114 0.0
N208 N 0.42583 0.47213 0.691 0.0
N209 N 0.34794 0.57727 0.69127 0.0
C210 C 0.40832 0.49863 0.67928 0.0
C211 C 0.36881 0.5526 0.67597 0.0
N212 N 0.36798 0.46653 0.57981 0.0
N213 N 0.41805 0.58856 0.70851 0.0
H214 H 0.32256 0.57428 0.6776 0.0
H215 H 0.35509 0.59979 0.72649 0.0
H216 H 0.4434 0.59304 0.72042 0.0
H217 H 0.40654 0.60926 0.69238 0.0
H218 H 0.38368 0.44775 0.56413 0.0
H219 H 0.34618 0.46326 0.54063 0.0
H220 H 0.41568 0.44815 0.68114 0.0
H221 H 0.45001 0.47393 0.7157 0.0
C222 C 0.02052 0.35934 0.51616 0.0
C223 C 0.02068 0.33783 0.59472 0.0
C224 C 0.00871 0.38271 0.71807 0.0
C225 C 0.00597 0.40358 0.63834 0.0
N226 N 0.00174 0.40858 0.45903 0.0
N227 N 0.00912 0.32713 0.76891 0.0
C228 C 0.00907 0.39083 0.53689 0.0
C229 C 0.01331 0.349 0.69548 0.0
N230 N 0.03371 0.35074 0.42236 0.0
N231 N 0.00649 0.39484 0.81551 0.0
H232 H 0.01166 0.30225 0.75468 0.0
H233 H 0.00023 0.33299 0.84201 0.0
H234 H -0.00031 0.41825 0.83661 0.0
H235 H 0.01284 0.38211 0.8756 0.0
H236 H 0.03794 0.36704 0.36554 0.0
H237 H 0.04407 0.3286 0.40405 0.0
H238 H -0.00098 0.39826 0.38656 0.0
H239 H 0.99654 0.43291 0.46584 0.0
C240 C 0.85151 0.95206 0.93899 0.0
C241 C 0.83043 0.97632 0.91727 0.0
C242 C 0.87899 0.01645 0.90913 0.0
C243 C 0.90043 0.99073 0.90902 0.0
N244 N 0.90719 0.93359 0.92346 0.0
N245 N 0.82299 0.03196 0.88473 0.0
C246 C 0.88667 0.95851 0.92597 0.0
C247 C 0.84381 0.00879 0.9044 0.0
N248 N 0.83796 0.9226 0.97002 0.0
N249 N 0.89226 0.04799 0.9134 0.0
H250 H 0.79703 0.0273 0.88564 0.0
H251 H 0.83141 0.0552 0.86321 0.0
H252 H 0.91766 0.05392 0.92137 0.0
H253 H 0.87794 0.06806 0.92027 0.0
H254 H 0.85205 0.90525 -0.0028 0.0
H255 H 0.81227 0.91653 0.97732 0.0
H256 H 0.89867 0.90903 0.92072 0.0
H257 H 0.93308 0.93754 0.91728 0.0
C258 C 0.5551 0.85386 0.76894 0.0
C259 C 0.57603 0.84811 0.84682 0.0
C260 C 0.56029 0.89887 0.9354 0.0
C261 C 0.54441 0.90719 0.84969 0.0
N262 N 0.53459 0.89506 0.67365 0.0
N263 N 0.60464 0.87006 -0.00641 0.0
C264 C 0.5439 0.88539 0.76313 0.0
C265 C 0.58033 0.87193 0.92746 0.0
N266 N 0.54478 0.82909 0.70256 0.0
N267 N 0.55534 0.91576 0.02547 0.0
H268 H 0.62164 0.85213 0.98701 0.0
H269 H 0.61039 0.88861 0.04778 0.0
H270 H 0.53942 0.9346 0.03608 0.0
H271 H 0.56416 0.90859 0.09183 0.0
H272 H 0.52721 0.83179 0.64999 0.0
H273 H 0.55045 0.80503 0.70792 0.0
H274 H 0.5368 0.88064 0.60708 0.0
H275 H 0.52869 0.91869 0.66276 0.0
C276 C 0.66217 0.49693 0.9681 0.0
C277 C 0.67559 0.52446 0.02596 0.0
C278 C 0.62953 0.55553 0.98447 0.0
C279 C 0.61358 0.52686 0.93909 0.0
N280 N 0.61407 0.46974 0.88847 0.0
N281 N 0.66777 0.57739 0.1082 0.0
C282 C 0.62956 0.49726 0.93221 0.0
C283 C 0.65813 0.55307 0.03932 0.0
N284 N 0.68133 0.47144 0.94162 0.0
N285 N 0.61815 0.58536 0.97341 0.0
H286 H 0.68763 0.57597 0.15407 0.0
H287 H 0.6537 0.59726 0.1277 0.0
H288 H 0.59725 0.58872 0.93413 0.0
H289 H 0.63165 0.6071 -0.00544 0.0
H290 H 0.67416 0.45223 0.89133 0.0
H291 H 0.70591 0.47086 0.962 0.0
H292 H 0.62219 0.44653 0.89311 0.0
H293 H 0.59227 0.47008 0.85032 0.0
C294 C 0.99306 0.6619 0.65538 0.0
C295 C 0.96805 0.67197 0.72769 0.0
C296 C 0.96776 0.61929 0.80385 0.0
C297 C 0.98776 0.60733 0.72065 0.0
N298 N 0.01569 0.61651 0.55839 0.0
N299 N 0.92618 0.65663 0.85824 0.0
C300 C -0.00065 0.62841 0.64373 0.0
C301 C 0.95414 0.64989 0.79955 0.0
N302 N 0.01161 0.68438 0.60007 0.0
N303 N 0.96095 0.60131 0.88609 0.0
H304 H 0.91336 0.67737 0.85283 0.0
H305 H 0.91325 0.63969 0.90397 0.0
H306 H 0.96978 0.5785 0.89193 0.0
H307 H 0.94922 0.61051 0.95231 0.0
H308 H 0.03212 0.6786 0.55266 0.0
H309 H 0.00903 0.70937 0.6104 0.0
H310 H 0.02145 0.63024 0.49587 0.0
H311 H 0.02094 0.5922 0.54657 0.0
C312 C 0.02985 0.11056 0.54432 0.0
C313 C 0.02731 0.13833 0.61205 0.0
C314 C 0.99386 0.10433 0.73092 0.0
C315 C 0.00089 0.07617 0.66934 0.0
N316 N 0.02989 0.05206 0.52276 0.0
N317 N 0.00962 0.16125 0.77505 0.0
C318 C 0.02012 0.07914 0.57762 0.0
C319 C 0.0098 0.13521 0.7067 0.0
N320 N 0.03979 0.11423 0.44605 0.0
N321 N 0.97148 0.10161 0.81132 0.0
H322 H 0.02125 0.18412 0.76 0.0
H323 H 0.00034 0.15947 0.84913 0.0
H324 H 0.96014 0.07917 0.83161 0.0
H325 H 0.96223 0.12163 0.85208 0.0
H326 H 0.03823 0.09523 0.391 0.0
H327 H 0.04592 0.1369 0.41747 0.0
H328 H 0.04761 0.05322 0.46253 0.0
H329 H 0.0224 0.02829 0.54131 0.0
C330 C 0.36755 0.03876 0.69019 0.0
C331 C 0.36059 0.01812 0.60449 0.0
C332 C 0.41323 0.99277 0.6187 0.0
C333 C 0.42167 0.01605 0.69752 0.0
N334 N 0.41103 0.06755 0.78322 0.0
N335 N 0.38159 0.98138 0.47091 0.0
C336 C 0.40007 0.04098 0.72574 0.0
C337 C 0.38462 0.99652 0.56416 0.0
N338 N 0.34299 0.05575 0.73917 0.0
N339 N 0.43258 0.96732 0.59474 0.0
H340 H 0.36236 0.98491 0.42483 0.0
H341 H 0.40031 0.96823 0.43434 0.0
H342 H 0.45489 0.96475 0.62829 0.0
H343 H 0.42532 0.9477 0.54588 0.0
H344 H 0.34632 0.0689 0.80741 0.0
H345 H 0.31834 0.0537 0.71761 0.0
H346 H 0.39708 0.08761 0.80069 0.0
H347 H 0.43597 0.0713 0.79866 0.0
C348 C 0.49636 0.4154 0.55231 0.0
C349 C 0.48728 0.39057 0.6197 0.0
C350 C 0.51294 0.42464 0.75495 0.0
C351 C 0.51663 0.45126 0.69167 0.0
N352 N 0.50512 0.47332 0.5345 0.0
N353 N 0.48546 0.37128 0.78631 0.0
C354 C 0.50688 0.44701 0.59108 0.0
C355 C 0.49533 0.39502 0.72143 0.0
N356 N 0.49463 0.40898 0.45125 0.0
N357 N 0.52666 0.4275 0.84621 0.0
H358 H 0.47403 0.3487 0.7627 0.0
H359 H 0.48705 0.37461 0.86376 0.0
H360 H 0.53878 0.44917 0.87395 0.0
H361 H 0.528 0.4079 0.89102 0.0
H362 H 0.50398 0.42548 0.39851 0.0
H363 H 0.48697 0.38607 0.4197 0.0
H364 H 0.49443 0.4716 0.4651 0.0
H365 H 0.51079 0.49735 0.56058 0.0
C366 C 0.12907 0.4741 0.58618 0.0
C367 C 0.15137 0.50227 0.57763 0.0
C368 C 0.10309 0.53529 0.57847 0.0
C369 C 0.08139 0.50637 0.56872 0.0
N370 N 0.07646 0.4477 0.53872 0.0
N371 N 0.15929 0.55973 0.5471 0.0
C372 C 0.09516 0.4756 0.56514 0.0
C373 C 0.13839 0.53304 0.56964 0.0
N374 N 0.14005 0.44594 0.61649 0.0
N375 N 0.09027 0.56497 0.59446 0.0
H376 H 0.18513 0.55914 0.536 0.0
H377 H 0.15066 0.58176 0.52961 0.0
H378 H 0.06477 0.5679 0.59727 0.0
H379 H 0.1049 0.5863 0.61279 0.0
H380 H 0.12393 0.42558 0.63252 0.0
H381 H 0.16455 0.4443 0.63652 0.0
H382 H 0.08643 0.42509 0.52695 0.0
H383 H 0.05218 0.44782 0.51694 0.0
C384 C 0.97397 0.86948 0.92968 0.0
C385 C 0.99076 0.85051 0.85273 0.0
C386 C 0.03219 0.8966 0.82482 0.0
C387 C 0.01248 0.91646 0.89005 0.0
N388 N 0.97423 0.91991 0.03422 0.0
N389 N 0.03637 0.84503 0.72855 0.0
C390 C 0.98633 0.90224 0.95207 0.0
C391 C 0.02039 0.86365 0.80172 0.0
N392 N 0.94481 0.85704 0.97589 0.0
N393 N 0.06283 0.909 0.78918 0.0
H394 H 0.02926 0.8204 0.71316 0.0
H395 H 0.05563 0.85425 0.68016 0.0
H396 H 0.07209 0.9328 0.80871 0.0
H397 H 0.08015 0.89515 0.74864 0.0
H398 H 0.92938 0.87088 0.0238 0.0
H399 H 0.93478 0.83319 0.96196 0.0
H400 H 0.95746 0.91015 0.08893 0.0
H401 H 0.9834 0.94387 0.05197 0.0
C402 C 0.61974 1.00015 0.9733 0.0
C403 C 0.64767 0.00603 0.9048 0.0
C404 C 0.61653 0.04381 0.81972 0.0
C405 C 0.5894 0.0401 0.89337 0.0
N406 N 0.57007 0.02138 0.05603 0.0
N407 N 0.67572 0.03981 0.77984 0.0
C408 C 0.59249 0.02026 0.97506 0.0
C409 C 0.647 0.02981 0.83326 0.0
N410 N 0.61856 0.97462 0.03427 0.0
N411 N 0.61304 0.05902 0.73363 0.0
H412 H 0.69871 0.03051 0.7886 0.0
H413 H 0.67746 0.05969 0.73474 0.0
H414 H 0.59143 0.06926 0.71767 0.0
H415 H 0.6306 0.05859 0.67296 0.0
H416 H 0.59754 0.96764 0.07953 0.0
H417 H 0.63746 0.95866 0.0334 0.0
H418 H 0.57285 0.00967 0.12154 0.0
H419 H 0.5508 0.03701 0.0624 0.0
C420 C 0.51994 0.67049 0.88637 0.0
C421 C 0.54998 0.67825 0.93653 0.0
C422 C 0.54358 0.62519 0.01251 0.0
C423 C 0.51597 0.61633 0.95324 0.0
N424 N 0.47071 0.63281 0.86511 0.0
N425 N 0.59049 0.66418 0.04958 0.0
C426 C 0.50187 0.63978 0.89976 0.0
C427 C 0.56146 0.65618 0.00218 0.0
N428 N 0.50937 0.69205 0.82366 0.0
N429 N 0.55214 0.60387 0.07935 0.0
H430 H 0.60449 0.68643 0.04275 0.0
H431 H 0.60169 0.64864 0.09335 0.0
H432 H 0.5388 0.58137 0.08886 0.0
H433 H 0.57061 0.609 0.13044 0.0
H434 H 0.48992 0.68649 0.77599 0.0
H435 H 0.52117 0.71532 0.8157 0.0
H436 H 0.4575 0.6494 0.83098 0.0
H437 H 0.45666 0.61109 0.88057 0.0
C438 C 0.85508 0.51063 0.82994 0.0
C439 C 0.8444 0.48215 0.88029 0.0
C440 C 0.90027 0.46228 0.84733 0.0
C441 C 0.91232 0.4937 0.81664 0.0
N442 N 0.90138 0.54823 0.77905 0.0
N443 N 0.85634 0.42959 0.93472 0.0
C444 C 0.88969 0.51788 0.80674 0.0
C445 C 0.86654 0.45713 0.88573 0.0
N446 N 0.83181 0.53072 0.80498 0.0
N447 N 0.92115 0.43754 0.84207 0.0
H448 H 0.83163 0.42354 0.95858 0.0
H449 H 0.87267 0.41319 0.95583 0.0
H450 H 0.94655 0.44073 0.82168 0.0
H451 H 0.91287 0.41325 0.85117 0.0
H452 H 0.83742 0.55054 0.76057 0.0
H453 H 0.80621 0.52536 0.82045 0.0
H454 H 0.88674 0.56805 0.78227 0.0
H455 H 0.9264 0.55413 0.75872 0.0
C456 C 0.0346 0.15278 0.13514 0.0
C457 C 0.061 0.15162 0.20028 0.0
C458 C 0.0698 0.09603 0.13233 0.0
C459 C 0.04011 0.09559 0.08 0.0
N460 N 0.99048 0.12174 0.04795 0.0
N461 N 0.09931 0.11853 0.27527 0.0
C462 C 0.02152 0.12354 0.08536 0.0
C463 C 0.07767 0.12238 0.20254 0.0
N464 N 0.02236 0.18193 0.11946 0.0
N465 N 0.09118 0.07192 0.11304 0.0
H466 H 0.1049 0.13599 0.33249 0.0
H467 H 0.10885 0.09628 0.28578 0.0
H468 H 0.08695 0.0526 0.06019 0.0
H469 H 0.11483 0.07305 0.14173 0.0
H470 H 0.00524 0.18456 0.06554 0.0
H471 H 0.03206 0.20401 0.1525 0.0
H472 H 0.97462 0.14063 0.05795 0.0
H473 H 0.97907 0.10013 0.01693 0.0
C474 C 0.41795 0.04675 0.25483 0.0
C475 C 0.38576 0.05321 0.22476 0.0
C476 C 0.40242 0.03647 0.05256 0.0
C477 C 0.43602 0.03582 0.07839 0.0
N478 N 0.47669 0.04249 0.20457 0.0
N479 N 0.35059 0.06139 0.08923 0.0
C480 C 0.44411 0.04141 0.17995 0.0
C481 C 0.37886 0.05006 0.122 0.0
N482 N 0.42326 0.04447 0.35403 0.0
N483 N 0.39259 0.02275 0.96292 0.0
H484 H 0.33346 0.07355 0.13647 0.0
H485 H 0.34632 0.06214 0.0133 0.0
H486 H 0.40858 0.0095 0.91564 0.0
H487 H 0.36774 0.02045 0.94322 0.0
H488 H 0.4452 0.0367 0.37911 0.0
H489 H 0.40462 0.04724 0.41092 0.0
H490 H 0.48454 0.05008 0.27567 0.0
H491 H 0.49613 0.03762 0.15189 0.0
C492 C 0.45708 0.40025 0.21522 0.0
C493 C 0.42771 0.40865 0.27243 0.0
C494 C 0.42693 0.45818 0.17994 0.0
C495 C 0.45874 0.45212 0.13364 0.0
N496 N 0.50625 0.41955 0.11524 0.0
N497 N 0.38488 0.44592 0.31287 0.0
C498 C 0.47422 0.42351 0.1523 0.0
C499 C 0.41269 0.43773 0.25569 0.0
N500 N 0.46896 0.37033 0.2219 0.0
N501 N 0.40958 0.4825 0.14817 0.0
H502 H 0.37197 0.43023 0.36274 0.0
H503 H 0.37549 0.46879 0.31428 0.0
H504 H 0.41872 0.49747 0.09101 0.0
H505 H 0.38484 0.48595 0.17156 0.0
H506 H 0.4879 0.3615 0.17356 0.0
H507 H 0.4583 0.35309 0.27047 0.0
H508 H 0.52036 0.40111 0.13537 0.0
H509 H 0.52006 0.43649 0.07141 0.0
C510 C 0.08741 0.50499 0.18879 0.0
C511 C 0.11591 0.48679 0.1716 0.0
C512 C 0.10588 0.4794 -0.00736 0.0
C513 C 0.07841 0.49903 0.00919 0.0
N514 N 0.04739 0.53644 0.11682 0.0
N515 N 0.1566 0.46244 0.05621 0.0
C516 C 0.07046 0.51361 0.10554 0.0
C517 C 0.12646 0.47568 0.07313 0.0
N518 N 0.07567 0.51281 0.28471 0.0
N519 N 0.11135 0.46302 0.90174 0.0
H520 H 0.17244 0.45945 0.1134 0.0
H521 H 0.16727 0.45712 0.98476 0.0
H522 H 0.09689 0.46502 0.8406 0.0
H523 H 0.12859 0.44543 0.88899 0.0
H524 H 0.05291 0.52287 0.302 0.0
H525 H 0.08727 0.50673 0.34789 0.0
H526 H 0.04299 0.55034 0.18329 0.0
H527 H 0.03491 0.54382 0.05691 0.0
C528 C 0.0031 0.89261 0.2997 0.0
C529 C 0.98493 0.86171 0.3069 0.0
C530 C 0.96755 0.87606 0.48223 0.0
C531 C 0.98531 0.90702 0.47352 0.0
N532 N 0.02389 0.9434 0.37934 0.0
N533 N 0.95626 0.82105 0.40979 0.0
C534 C 0.0043 0.91473 0.38423 0.0
C535 C 0.96895 0.85257 0.39976 0.0
N536 N 0.01936 0.9021 0.2126 0.0
N537 N 0.94817 0.86972 0.56756 0.0
H538 H 0.95735 0.80318 0.3512 0.0
H539 H 0.94733 0.81179 0.4778 0.0
H540 H 0.94692 0.88618 0.62989 0.0
H541 H 0.9316 0.84914 0.57471 0.0
H542 H 0.0199 0.88803 0.14534 0.0
H543 H 0.0199 0.88803 0.14534 0.0
H544 H 0.03802 0.9499 0.31445 0.0
H545 H 0.02707 0.96002 0.44062 0.0
C546 C 0.60411 0.04497 0.43458 0.0
C547 C 0.60138 0.01513 0.37592 0.0
C548 C 0.552 0.99669 0.47993 0.0
C549 C 0.55464 0.0268 0.53774 0.0
N550 N 0.57545 0.08381 0.54306 0.0
N551 N 0.56723 0.96684 0.32425 0.0
C552 C 0.57792 0.05242 0.50593 0.0
C553 C 0.57367 0.99216 0.39305 0.0
N554 N 0.6327 0.0653 0.42789 0.0
N555 N 0.52862 0.97248 0.50762 0.0
H556 H 0.58189 0.96337 0.25803 0.0
H557 H 0.54556 0.95118 0.32757 0.0
H558 H 0.50991 0.97611 0.5637 0.0
H559 H 0.52848 0.94858 0.4773 0.0
H560 H 0.6372 0.08552 0.47735 0.0
H561 H 0.65348 0.06019 0.38078 0.0
H562 H 0.58995 0.10348 0.5136 0.0
H563 H 0.55711 0.09087 0.59628 0.0
C564 C 0.5721 0.67147 0.47657 0.0
C565 C 0.55463 0.66469 0.38763 0.0
C566 C 0.52911 0.61377 0.45343 0.0
C567 C 0.55012 0.61842 0.53534 0.0
N568 N 0.59339 0.65021 0.62328 0.0
N569 N 0.51909 0.62766 0.28562 0.0
C570 C 0.57198 0.64699 0.54697 0.0
C571 C 0.53364 0.63547 0.37462 0.0
N572 N 0.58779 0.70174 0.49526 0.0
N573 N 0.50379 0.58946 0.45297 0.0
H574 H 0.52127 0.6428 0.22571 0.0
H575 H 0.50707 0.60487 0.26782 0.0
H576 H 0.49907 0.57338 0.51026 0.0
H577 H 0.48534 0.58723 0.40099 0.0
H578 H 0.59802 0.70934 0.56327 0.0
H579 H 0.58778 0.72046 0.44616 0.0
H580 H 0.61244 0.66879 0.62945 0.0
H581 H 0.59385 0.63285 0.67667 0.0
C582 C 0.87446 0.48612 0.24627 0.0
C583 C 0.84421 0.47212 0.29209 0.0
C584 C 0.86855 0.47816 0.45604 0.0
C585 C 0.89821 0.49354 0.41063 0.0
N586 N 0.92648 0.5191 0.26859 0.0
N587 N 0.80978 0.46098 0.44206 0.0
C588 C 0.90031 0.49955 0.30742 0.0
C589 C 0.84029 0.47045 0.39766 0.0
N590 N 0.87871 0.48632 0.14419 0.0
N591 N 0.86804 0.46861 0.55239 0.0
H592 H 0.78889 0.45349 0.40145 0.0
H593 H 0.80451 0.46301 0.51933 0.0
H594 H 0.88849 0.47207 0.59711 0.0
H595 H 0.84832 0.45427 0.58532 0.0
H596 H 0.90159 0.49225 0.10619 0.0
H597 H 0.85978 0.47856 0.09669 0.0
H598 H 0.9277 0.52719 0.19612 0.0
H599 H 0.9455 0.53 0.31198 0.0
loop_
_geom_bond_atom_site_label_1
_geom_bond_atom_site_label_2
_geom_bond_distance
_geom_bond_site_symmetry_2
_ccdc_geom_bond_type
O0 Cd1 2.300 1_556 S
O0 C7 1.275 . S
Cd1 O0 2.300 1_554 S
Cd1 O9 2.381 1_554 S
Cd1 O10 2.378 . S
O2 Cd3 2.385 . S
O2 C7 1.255 1_554 S
Cd3 O2 2.385 . S
Cd3 O4 2.317 . S
O4 Cd3 2.317 . S
O4 C5 1.232 . S
C5 O4 1.232 . S
C5 O6 1.218 . S
O6 C5 1.218 . S
C7 O0 1.275 . S
C7 O2 1.255 1_556 S
C8 O9 1.258 . S
C8 O10 1.256 1_556 S
O9 Cd1 2.381 1_556 S
O9 C8 1.258 . S
O10 Cd1 2.378 . S
O10 C8 1.256 1_554 S
O11 Cd12 2.300 . S
O11 C18 1.275 . S
Cd12 O11 2.300 . S
Cd12 O20 2.381 . S
Cd12 O21 2.378 . S
O13 Cd14 2.385 1_656 S
O13 C18 1.255 . S
Cd14 O13 2.385 1_454 S
Cd14 O15 2.317 1_455 S
O15 Cd14 2.317 1_655 S
O15 C16 1.232 . S
C16 O15 1.232 . S
C16 O17 1.218 . S
O17 C16 1.218 . S
C18 O11 1.275 . S
C18 O13 1.255 . S
C19 O20 1.258 . S
C19 O21 1.256 . S
O20 Cd12 2.381 . S
O20 C19 1.258 . S
O21 Cd12 2.378 . S
O21 C19 1.256 . S
O22 Cd23 2.300 1_556 S
O22 C29 1.275 . S
Cd23 O22 2.300 1_554 S
Cd23 O31 2.381 1_554 S
Cd23 O32 2.378 . S
O24 Cd25 2.385 1_565 S
O24 C29 1.255 1_554 S
Cd25 O24 2.385 1_545 S
Cd25 O26 2.317 1_545 S
O26 Cd25 2.317 1_565 S
O26 C27 1.232 . S
C27 O26 1.232 . S
C27 O28 1.218 . S
O28 C27 1.218 . S
C29 O22 1.275 . S
C29 O24 1.255 1_556 S
C30 O31 1.258 . S
C30 O32 1.256 1_556 S
O31 Cd23 2.381 1_556 S
O31 C30 1.258 . S
O32 Cd23 2.378 . S
O32 C30 1.256 1_554 S
O33 Cd34 2.300 1_556 S
O33 C40 1.275 . S
Cd34 O33 2.300 1_554 S
Cd34 O42 2.381 1_554 S
Cd34 O43 2.378 . S
O35 Cd36 2.385 . S
O35 C40 1.255 1_554 S
Cd36 O35 2.385 . S
Cd36 O37 2.317 . S
O37 Cd36 2.317 . S
O37 C38 1.232 . S
C38 O37 1.232 . S
C38 O39 1.218 . S
O39 C38 1.218 . S
C40 O33 1.275 . S
C40 O35 1.255 1_556 S
C41 O42 1.258 1_554 S
C41 O43 1.256 . S
O42 Cd34 2.381 1_556 S
O42 C41 1.258 1_556 S
O43 Cd34 2.378 . S
O43 C41 1.256 . S
O44 Cd45 2.300 . S
O44 C51 1.275 . S
Cd45 O44 2.300 . S
Cd45 O53 2.381 . S
Cd45 O54 2.378 . S
O46 Cd47 2.385 . S
O46 C51 1.255 . S
Cd47 O46 2.385 . S
Cd47 O48 2.317 . S
O48 Cd47 2.317 . S
O48 C49 1.232 . S
C49 O48 1.232 . S
C49 O50 1.218 . S
O50 C49 1.218 . S
C51 O44 1.275 . S
C51 O46 1.255 . S
C52 O53 1.258 . S
C52 O54 1.256 . S
O53 Cd45 2.381 . S
O53 C52 1.258 . S
O54 Cd45 2.378 . S
O54 C52 1.256 . S
O55 Cd56 2.300 . S
O55 C62 1.275 . S
Cd56 O55 2.300 . S
Cd56 O64 2.381 . S
Cd56 O65 2.378 . S
O57 Cd58 2.385 . S
O57 C62 1.255 . S
Cd58 O57 2.385 . S
Cd58 O59 2.317 . S
O59 Cd58 2.317 . S
O59 C60 1.232 . S
C60 O59 1.232 . S
C60 O61 1.218 . S
O61 C60 1.218 . S
C62 O55 1.275 . S
C62 O57 1.255 . S
C63 O64 1.258 . S
C63 O65 1.256 . S
O64 Cd56 2.381 . S
O64 C63 1.258 . S
O65 Cd56 2.378 . S
O65 C63 1.256 . S
O66 Cd67 2.300 . S
O66 C73 1.275 . S
Cd67 O66 2.300 . S
Cd67 O75 2.381 . S
Cd67 O76 2.378 . S
O68 Cd69 2.385 . S
O68 C73 1.255 . S
Cd69 O68 2.385 . S
Cd69 O70 2.317 . S
O70 Cd69 2.317 . S
O70 C71 1.232 . S
C71 O70 1.232 . S
C71 O72 1.218 . S
O72 C71 1.218 . S
C73 O66 1.275 . S
C73 O68 1.255 . S
C74 O75 1.258 . S
C74 O76 1.256 . S
O75 Cd67 2.381 . S
O75 C74 1.258 . S
O76 Cd67 2.378 . S
O76 C74 1.256 . S
O77 Cd78 2.300 . S
O77 C84 1.275 . S
Cd78 O77 2.300 . S
Cd78 O86 2.381 . S
Cd78 O87 2.378 . S
O79 Cd80 2.385 . S
O79 C84 1.255 . S
Cd80 O79 2.385 . S
Cd80 O81 2.317 . S
O81 Cd80 2.317 . S
O81 C82 1.232 . S
C82 O81 1.232 . S
C82 O83 1.218 . S
O83 C82 1.218 . S
C84 O77 1.275 . S
C84 O79 1.255 . S
C85 O86 1.258 . S
C85 O87 1.256 . S
O86 Cd78 2.381 . S
O86 C85 1.258 . S
O87 Cd78 2.378 . S
O87 C85 1.256 . S
Tb88 O91 2.446 1_565 S
Tb88 O92 2.591 1_665 S
Tb88 O93 2.374 1_665 S
Tb88 O101 2.347 . S
Tb88 O103 2.352 1_565 S
Tb88 O105 2.432 . S
Tb88 O106 2.519 1_655 S
C89 O93 1.251 . S
C89 O95 1.263 . S
Tb90 O92 2.343 . S
Tb90 O95 2.353 . S
Tb90 O98 2.427 . S
Tb90 O99 2.513 . S
Tb90 O100 2.453 1_545 S
Tb90 O101 2.596 1_445 S
Tb90 O102 2.374 1_455 S
O91 Tb88 2.446 1_545 S
O91 C107 1.245 1_655 S
O92 Tb88 2.591 1_445 S
O92 Tb90 2.343 . S
O92 C107 1.259 . S
O93 Tb88 2.374 1_445 S
O93 C89 1.251 . S
C94 O98 1.275 . S
C94 O99 1.246 . S
O95 C89 1.263 . S
O95 Tb90 2.353 . S
C96 O100 1.247 . S
C96 O101 1.259 1_455 S
C97 O102 1.250 . S
C97 O103 1.263 . S
O98 Tb90 2.427 . S
O98 C94 1.275 . S
O99 Tb90 2.513 . S
O99 C94 1.246 . S
O100 Tb90 2.453 1_565 S
O100 C96 1.247 . S
O101 Tb88 2.347 . S
O101 Tb90 2.596 1_665 S
O101 C96 1.259 1_655 S
O102 Tb90 2.374 1_655 S
O102 C97 1.250 . S
O103 Tb88 2.352 1_545 S
O103 C97 1.263 . S
C104 O105 1.275 . S
C104 O106 1.246 1_655 S
O105 Tb88 2.432 . S
O105 C104 1.275 . S
O106 Tb88 2.519 1_455 S
O106 C104 1.246 1_455 S
C107 O91 1.245 1_455 S
C107 O92 1.259 . S
Tb108 O111 2.453 . S
Tb108 O112 2.596 1_545 S
Tb108 O113 2.374 . S
Tb108 O121 2.343 . S
Tb108 O123 2.353 . S
Tb108 O125 2.427 . S
Tb108 O126 2.513 . S
C109 O113 1.222 1_565 S
C109 O115 1.285 . S
Tb110 O112 2.343 . S
Tb110 O115 2.353 . S
Tb110 O118 2.427 . S
Tb110 O119 2.513 . S
Tb110 O120 2.453 . S
Tb110 O121 2.596 1_565 S
Tb110 O122 2.374 . S
O111 Tb108 2.453 . S
O111 C127 1.245 . S
O112 Tb108 2.596 1_565 S
O112 Tb110 2.343 . S
O112 C127 1.259 1_565 S
O113 Tb108 2.374 . S
O113 C109 1.222 1_545 S
C114 O118 1.275 . S
C114 O119 1.246 . S
O115 C109 1.285 . S
O115 Tb110 2.353 . S
C116 O120 1.245 1_545 S
C116 O121 1.259 . S
C117 O122 1.250 1_545 S
C117 O123 1.263 . S
O118 Tb110 2.427 . S
O118 C114 1.275 . S
O119 Tb110 2.513 . S
O119 C114 1.246 . S
O120 Tb110 2.453 . S
O120 C116 1.245 1_565 S
O121 Tb108 2.343 . S
O121 Tb110 2.596 1_545 S
O121 C116 1.259 . S
O122 Tb110 2.374 . S
O122 C117 1.250 1_565 S
O123 Tb108 2.353 . S
O123 C117 1.263 . S
C124 O125 1.275 . S
C124 O126 1.246 . S
O125 Tb108 2.427 . S
O125 C124 1.275 . S
O126 Tb108 2.513 . S
O126 C124 1.246 . S
C127 O111 1.245 . S
C127 O112 1.259 1_545 S
Tb128 O131 2.453 . S
Tb128 O132 2.596 . S
Tb128 O133 2.374 . S
Tb128 O141 2.343 . S
Tb128 O143 2.353 . S
Tb128 O145 2.427 . S
Tb128 O146 2.513 . S
C129 O133 1.251 . S
C129 O135 1.263 . S
Tb130 O132 2.343 . S
Tb130 O135 2.353 . S
Tb130 O138 2.427 . S
Tb130 O139 2.513 . S
Tb130 O140 2.453 . S
Tb130 O141 2.596 . S
Tb130 O142 2.374 . S
O131 Tb128 2.453 . S
O131 C147 1.245 . S
O132 Tb128 2.596 . S
O132 Tb130 2.343 . S
O132 C147 1.259 . S
O133 Tb128 2.374 . S
O133 C129 1.251 . S
C134 O138 1.275 . S
C134 O139 1.246 . S
O135 C129 1.263 . S
O135 Tb130 2.353 . S
C136 O140 1.245 . S
C136 O141 1.259 . S
C137 O142 1.250 . S
C137 O143 1.263 . S
O138 Tb130 2.427 . S
O138 C134 1.275 . S
O139 Tb130 2.513 . S
O139 C134 1.246 . S
O140 Tb130 2.453 . S
O140 C136 1.245 . S
O141 Tb128 2.343 . S
O141 Tb130 2.596 . S
O141 C136 1.259 . S
O142 Tb130 2.374 . S
O142 C137 1.250 . S
O143 Tb128 2.353 . S
O143 C137 1.263 . S
C144 O145 1.275 . S
C144 O146 1.246 . S
O145 Tb128 2.427 . S
O145 C144 1.275 . S
O146 Tb128 2.513 . S
O146 C144 1.246 . S
C147 O131 1.245 . S
C147 O132 1.259 . S
Tb148 O151 2.453 1_655 S
Tb148 O152 2.596 1_655 S
Tb148 O153 2.374 1_655 S
Tb148 O161 2.343 . S
Tb148 O163 2.353 1_655 S
Tb148 O165 2.427 . S
Tb148 O166 2.513 . S
C149 O153 1.251 . S
C149 O155 1.263 . S
Tb150 O152 2.343 . S
Tb150 O155 2.353 . S
Tb150 O158 2.427 . S
Tb150 O159 2.513 . S
Tb150 O160 2.453 1_455 S
Tb150 O161 2.596 1_455 S
Tb150 O162 2.374 . S
O151 Tb148 2.453 1_455 S
O151 C167 1.245 . S
O152 Tb148 2.596 1_455 S
O152 Tb150 2.343 . S
O152 C167 1.259 . S
O153 Tb148 2.374 1_455 S
O153 C149 1.251 . S
C154 O158 1.275 . S
C154 O159 1.246 . S
O155 C149 1.263 . S
O155 Tb150 2.353 . S
C156 O160 1.245 . S
C156 O161 1.259 . S
C157 O162 1.252 . S
C157 O163 1.263 . S
O158 Tb150 2.427 . S
O158 C154 1.275 . S
O159 Tb150 2.513 . S
O159 C154 1.246 . S
O160 Tb150 2.453 1_655 S
O160 C156 1.245 . S
O161 Tb148 2.343 . S
O161 Tb150 2.596 1_655 S
O161 C156 1.259 . S
O162 Tb150 2.374 . S
O162 C157 1.252 . S
O163 Tb148 2.353 1_455 S
O163 C157 1.263 . S
C164 O165 1.275 . S
C164 O166 1.246 . S
O165 Tb148 2.427 . S
O165 C164 1.275 . S
O166 Tb148 2.513 . S
O166 C164 1.246 . S
C167 O151 1.245 . S
C167 O152 1.259 . S
C168 C169 1.363 . S
C168 C174 1.379 . S
C168 N176 1.356 . S
C169 C168 1.363 . S
C169 C175 1.363 . S
C170 C171 1.363 . S
C170 C175 1.379 . S
C170 N177 1.356 1_545 S
C171 C170 1.363 . S
C171 C174 1.363 . S
N172 C174 1.356 . S
N172 H184 0.984 . S
N172 H185 0.985 . S
N173 C175 1.356 . S
N173 H178 0.984 . S
N173 H179 0.985 1_545 S
C174 C168 1.379 . S
C174 C171 1.363 . S
C174 N172 1.356 . S
C175 C169 1.363 . S
C175 C170 1.379 . S
C175 N173 1.356 . S
N176 C168 1.356 . S
N176 H182 0.984 . S
N176 H183 0.984 . S
N177 C170 1.356 1_565 S
N177 H180 0.984 . S
N177 H181 0.985 . S
H178 N173 0.984 . S
H179 N173 0.985 1_565 S
H180 N177 0.984 . S
H181 N177 0.985 . S
H182 N176 0.984 . S
H183 N176 0.984 . S
H184 N172 0.984 . S
H185 N172 0.985 . S
C186 C187 1.363 . S
C186 C192 1.379 . S
C186 N194 1.356 . S
C187 C186 1.363 . S
C187 C193 1.363 . S
C188 C189 1.363 . S
C188 C193 1.379 . S
C188 N195 1.356 . S
C189 C188 1.363 . S
C189 C192 1.363 . S
N190 C192 1.356 . S
N190 H202 0.984 . S
N190 H203 0.985 . S
N191 C193 1.356 . S
N191 H196 0.984 . S
N191 H197 0.985 . S
C192 C186 1.379 . S
C192 C189 1.363 . S
C192 N190 1.356 . S
C193 C187 1.363 . S
C193 C188 1.379 . S
C193 N191 1.356 . S
N194 C186 1.356 . S
N194 H200 0.984 . S
N194 H201 0.984 . S
N195 C188 1.356 . S
N195 H198 0.984 . S
N195 H199 0.985 . S
H196 N191 0.984 . S
H197 N191 0.985 . S
H198 N195 0.984 . S
H199 N195 0.985 . S
H200 N194 0.984 . S
H201 N194 0.984 . S
H202 N190 0.984 . S
H203 N190 0.985 . S
C204 C205 1.363 . S
C204 C210 1.379 . S
C204 N212 1.356 . S
C205 C204 1.363 . S
C205 C211 1.363 . S
C206 C207 1.363 . S
C206 C211 1.379 . S
C206 N213 1.356 . S
C207 C206 1.363 . S
C207 C210 1.363 . S
N208 C210 1.356 . S
N208 H220 0.984 . S
N208 H221 0.985 . S
N209 C211 1.356 . S
N209 H214 0.984 . S
N209 H215 0.985 . S
C210 C204 1.379 . S
C210 C207 1.363 . S
C210 N208 1.356 . S
C211 C205 1.363 . S
C211 C206 1.379 . S
C211 N209 1.356 . S
N212 C204 1.356 . S
N212 H218 0.984 . S
N212 H219 0.984 . S
N213 C206 1.356 . S
N213 H216 0.984 . S
N213 H217 0.985 . S
H214 N209 0.984 . S
H215 N209 0.985 . S
H216 N213 0.984 . S
H217 N213 0.985 . S
H218 N212 0.984 . S
H219 N212 0.984 . S
H220 N208 0.984 . S
H221 N208 0.985 . S
C222 C223 1.363 . S
C222 C228 1.379 . S
C222 N230 1.356 . S
C223 C222 1.363 . S
C223 C229 1.363 . S
C224 C225 1.363 . S
C224 C229 1.379 . S
C224 N231 1.356 . S
C225 C224 1.363 . S
C225 C228 1.363 . S
N226 C228 1.356 . S
N226 H238 0.984 . S
N226 H239 0.985 . S
N227 C229 1.356 . S
N227 H232 0.984 . S
N227 H233 0.985 . S
C228 C222 1.379 . S
C228 C225 1.363 . S
C228 N226 1.356 . S
C229 C223 1.363 . S
C229 C224 1.379 . S
C229 N227 1.356 . S
N230 C222 1.356 . S
N230 H236 0.984 . S
N230 H237 0.984 . S
N231 C224 1.356 . S
N231 H234 0.984 . S
N231 H235 0.985 . S
H232 N227 0.984 . S
H233 N227 0.985 . S
H234 N231 0.984 . S
H235 N231 0.985 . S
H236 N230 0.984 . S
H237 N230 0.984 . S
H238 N226 0.984 . S
H239 N226 0.985 . S
C240 C241 1.363 . S
C240 C246 1.379 . S
C240 N248 1.356 . S
C241 C240 1.363 . S
C241 C247 1.363 1_565 S
C242 C243 1.363 1_545 S
C242 C247 1.379 . S
C242 N249 1.356 . S
C243 C242 1.363 1_565 S
C243 C246 1.363 . S
N244 C246 1.356 . S
N244 H256 0.984 . S
N244 H257 0.985 . S
N245 C247 1.356 . S
N245 H250 0.984 . S
N245 H251 0.985 . S
C246 C240 1.379 . S
C246 C243 1.363 . S
C246 N244 1.356 . S
C247 C241 1.363 1_545 S
C247 C242 1.379 . S
C247 N245 1.356 . S
N248 C240 1.356 . S
N248 H254 0.984 . S
N248 H255 0.984 . S
N249 C242 1.356 . S
N249 H252 0.984 . S
N249 H253 0.985 . S
H250 N245 0.984 . S
H251 N245 0.985 . S
H252 N249 0.984 . S
H253 N249 0.985 . S
H254 N248 0.984 . S
H255 N248 0.984 . S
H256 N244 0.984 . S
H257 N244 0.985 . S
C258 C259 1.363 . S
C258 C264 1.379 . S
C258 N266 1.356 . S
C259 C258 1.363 . S
C259 C265 1.363 1_556 S
C260 C261 1.363 1_554 S
C260 C265 1.379 . S
C260 N267 1.356 . S
C261 C260 1.363 1_556 S
C261 C264 1.363 . S
N262 C264 1.356 . S
N262 H274 0.984 . S
N262 H275 0.985 . S
N263 C265 1.356 . S
N263 H268 0.984 . S
N263 H269 0.985 . S
C264 C258 1.379 . S
C264 C261 1.363 . S
C264 N262 1.356 . S
C265 C259 1.363 1_554 S
C265 C260 1.379 . S
C265 N263 1.356 . S
N266 C258 1.356 . S
N266 H272 0.984 . S
N266 H273 0.984 . S
N267 C260 1.356 . S
N267 H270 0.984 1_554 S
N267 H271 0.985 . S
H268 N263 0.984 . S
H269 N263 0.985 . S
H270 N267 0.984 1_556 S
H271 N267 0.985 . S
H272 N266 0.984 . S
H273 N266 0.984 . S
H274 N262 0.984 . S
H275 N262 0.985 . S
C276 C277 1.363 . S
C276 C282 1.379 . S
C276 N284 1.356 . S
C277 C276 1.363 . S
C277 C283 1.363 . S
C278 C279 1.363 . S
C278 C283 1.379 . S
C278 N285 1.356 . S
C279 C278 1.363 . S
C279 C282 1.363 . S
N280 C282 1.356 . S
N280 H292 0.984 . S
N280 H293 0.985 . S
N281 C283 1.356 1_554 S
N281 H286 0.984 . S
N281 H287 0.985 . S
C282 C276 1.379 . S
C282 C279 1.363 . S
C282 N280 1.356 . S
C283 C277 1.363 . S
C283 C278 1.379 . S
C283 N281 1.356 1_556 S
N284 C276 1.356 . S
N284 H290 0.984 . S
N284 H291 0.984 . S
N285 C278 1.356 . S
N285 H288 0.984 . S
N285 H289 0.985 . S
H286 N281 0.984 . S
H287 N281 0.985 . S
H288 N285 0.984 . S
H289 N285 0.985 . S
H290 N284 0.984 . S
H291 N284 0.984 . S
H292 N280 0.984 . S
H293 N280 0.985 . S
C294 C295 1.363 . S
C294 C300 1.379 . S
C294 N302 1.356 . S
C295 C294 1.363 . S
C295 C301 1.363 . S
C296 C297 1.363 . S
C296 C301 1.379 . S
C296 N303 1.356 1_655 S
C297 C296 1.363 . S
C297 C300 1.363 . S
N298 C300 1.356 . S
N298 H310 0.984 . S
N298 H311 0.985 . S
N299 C301 1.356 1_554 S
N299 H304 0.984 . S
N299 H305 0.985 . S
C300 C294 1.379 . S
C300 C297 1.363 . S
C300 N298 1.356 . S
C301 C295 1.363 . S
C301 C296 1.379 . S
C301 N299 1.356 1_556 S
N302 C294 1.356 . S
N302 H308 0.984 . S
N302 H309 0.984 . S
N303 C296 1.356 1_455 S
N303 H306 0.984 . S
N303 H307 0.985 1_556 S
H304 N299 0.984 . S
H305 N299 0.985 . S
H306 N303 0.984 . S
H307 N303 0.985 1_554 S
H308 N302 0.984 . S
H309 N302 0.984 . S
H310 N298 0.984 . S
H311 N298 0.985 . S
C312 C313 1.363 . S
C312 C318 1.379 . S
C312 N320 1.356 . S
C313 C312 1.363 . S
C313 C319 1.363 . S
C314 C315 1.363 . S
C314 C319 1.379 . S
C314 N321 1.356 . S
C315 C314 1.363 . S
C315 C318 1.363 . S
N316 C318 1.356 . S
N316 H328 0.984 . S
N316 H329 0.985 . S
N317 C319 1.356 . S
N317 H322 0.984 . S
N317 H323 0.985 . S
C318 C312 1.379 . S
C318 C315 1.363 . S
C318 N316 1.356 . S
C319 C313 1.363 . S
C319 C314 1.379 . S
C319 N317 1.356 . S
N320 C312 1.356 . S
N320 H326 0.984 . S
N320 H327 0.984 . S
N321 C314 1.356 . S
N321 H324 0.984 . S
N321 H325 0.985 . S
H322 N317 0.984 . S
H323 N317 0.985 . S
H324 N321 0.984 . S
H325 N321 0.985 . S
H326 N320 0.984 . S
H327 N320 0.984 . S
H328 N316 0.984 . S
H329 N316 0.985 . S
C330 C331 1.363 . S
C330 C336 1.379 . S
C330 N338 1.356 . S
C331 C330 1.363 . S
C331 C337 1.363 . S
C332 C333 1.363 . S
C332 C337 1.379 . S
C332 N339 1.356 1_545 S
C333 C332 1.363 . S
C333 C336 1.363 . S
N334 C336 1.356 . S
N334 H346 0.984 . S
N334 H347 0.985 . S
N335 C337 1.356 . S
N335 H340 0.984 . S
N335 H341 0.985 1_545 S
C336 C330 1.379 . S
C336 C333 1.363 . S
C336 N334 1.356 . S
C337 C331 1.363 . S
C337 C332 1.379 . S
C337 N335 1.356 . S
N338 C330 1.356 . S
N338 H344 0.984 . S
N338 H345 0.984 . S
N339 C332 1.356 1_565 S
N339 H342 0.984 . S
N339 H343 0.985 . S
H340 N335 0.984 . S
H341 N335 0.985 1_565 S
H342 N339 0.984 . S
H343 N339 0.985 . S
H344 N338 0.984 . S
H345 N338 0.984 . S
H346 N334 0.984 . S
H347 N334 0.985 . S
C348 C349 1.363 . S
C348 C354 1.379 . S
C348 N356 1.356 . S
C349 C348 1.363 . S
C349 C355 1.363 . S
C350 C351 1.363 . S
C350 C355 1.379 . S
C350 N357 1.356 . S
C351 C350 1.363 . S
C351 C354 1.363 . S
N352 C354 1.356 . S
N352 H364 0.984 . S
N352 H365 0.985 . S
N353 C355 1.356 . S
N353 H358 0.984 . S
N353 H359 0.985 . S
C354 C348 1.379 . S
C354 C351 1.363 . S
C354 N352 1.356 . S
C355 C349 1.363 . S
C355 C350 1.379 . S
C355 N353 1.356 . S
N356 C348 1.356 . S
N356 H362 0.984 . S
N356 H363 0.984 . S
N357 C350 1.356 . S
N357 H360 0.984 . S
N357 H361 0.985 . S
H358 N353 0.984 . S
H359 N353 0.985 . S
H360 N357 0.984 . S
H361 N357 0.985 . S
H362 N356 0.984 . S
H363 N356 0.984 . S
H364 N352 0.984 . S
H365 N352 0.985 . S
C366 C367 1.363 . S
C366 C372 1.379 . S
C366 N374 1.356 . S
C367 C366 1.363 . S
C367 C373 1.363 . S
C368 C369 1.363 . S
C368 C373 1.379 . S
C368 N375 1.356 . S
C369 C368 1.363 . S
C369 C372 1.363 . S
N370 C372 1.356 . S
N370 H382 0.984 . S
N370 H383 0.985 . S
N371 C373 1.356 . S
N371 H376 0.984 . S
N371 H377 0.985 . S
C372 C366 1.379 . S
C372 C369 1.363 . S
C372 N370 1.356 . S
C373 C367 1.363 . S
C373 C368 1.379 . S
C373 N371 1.356 . S
N374 C366 1.356 . S
N374 H380 0.984 . S
N374 H381 0.984 . S
N375 C368 1.356 . S
N375 H378 0.984 . S
N375 H379 0.985 . S
H376 N371 0.984 . S
H377 N371 0.985 . S
H378 N375 0.984 . S
H379 N375 0.985 . S
H380 N374 0.984 . S
H381 N374 0.984 . S
H382 N370 0.984 . S
H383 N370 0.985 . S
C384 C385 1.363 . S
C384 C390 1.379 . S
C384 N392 1.356 1_556 S
C385 C384 1.363 . S
C385 C391 1.363 . S
C386 C387 1.363 . S
C386 C391 1.379 . S
C386 N393 1.356 1_655 S
C387 C386 1.363 . S
C387 C390 1.363 . S
N388 C390 1.356 . S
N388 H400 0.984 1_556 S
N388 H401 0.985 . S
N389 C391 1.356 . S
N389 H394 0.984 . S
N389 H395 0.985 . S
C390 C384 1.379 . S
C390 C387 1.363 . S
C390 N388 1.356 . S
C391 C385 1.363 . S
C391 C386 1.379 . S
C391 N389 1.356 . S
N392 C384 1.356 1_554 S
N392 H398 0.984 . S
N392 H399 0.984 . S
N393 C386 1.356 1_455 S
N393 H396 0.984 . S
N393 H397 0.985 . S
H394 N389 0.984 . S
H395 N389 0.985 . S
H396 N393 0.984 . S
H397 N393 0.985 . S
H398 N392 0.984 . S
H399 N392 0.984 . S
H400 N388 0.984 1_554 S
H401 N388 0.985 . S
C402 C403 1.363 1_554 S
C402 C408 1.379 1_554 S
C402 N410 1.356 . S
C403 C402 1.363 1_556 S
C403 C409 1.363 . S
C404 C405 1.363 . S
C404 C409 1.379 . S
C404 N411 1.356 . S
C405 C404 1.363 . S
C405 C408 1.363 . S
N406 C408 1.356 1_554 S
N406 H418 0.984 . S
N406 H419 0.970 1_564 S
N407 C409 1.356 . S
N407 H412 0.984 . S
N407 H413 0.985 . S
C408 C402 1.379 1_556 S
C408 C405 1.363 . S
C408 N406 1.356 1_556 S
C409 C403 1.363 . S
C409 C404 1.379 . S
C409 N407 1.356 . S
N410 C402 1.356 . S
N410 H416 0.984 . S
N410 H417 0.984 . S
N411 C404 1.356 . S
N411 H414 0.984 1_565 S
N411 H415 0.985 . S
H412 N407 0.984 . S
H413 N407 0.985 . S
H414 N411 0.984 1_545 S
H415 N411 0.985 . S
H416 N410 0.984 . S
H417 N410 0.984 . S
H418 N406 0.984 . S
H419 N406 0.970 1_546 S
C420 C421 1.363 . S
C420 C426 1.379 . S
C420 N428 1.356 . S
C421 C420 1.363 . S
C421 C427 1.363 . S
C422 C423 1.363 . S
C422 C427 1.379 . S
C422 N429 1.356 . S
C423 C422 1.363 . S
C423 C426 1.363 . S
N424 C426 1.356 . S
N424 H436 0.984 . S
N424 H437 0.985 . S
N425 C427 1.356 1_554 S
N425 H430 0.984 . S
N425 H431 0.985 . S
C426 C420 1.379 . S
C426 C423 1.363 . S
C426 N424 1.356 . S
C427 C421 1.363 . S
C427 C422 1.379 . S
C427 N425 1.356 1_556 S
N428 C420 1.356 . S
N428 H434 0.984 . S
N428 H435 0.984 . S
N429 C422 1.356 . S
N429 H432 0.984 . S
N429 H433 0.985 1_556 S
H430 N425 0.984 . S
H431 N425 0.985 . S
H432 N429 0.984 . S
H433 N429 0.985 1_554 S
H434 N428 0.984 . S
H435 N428 0.984 . S
H436 N424 0.984 . S
H437 N424 0.985 . S
C438 C439 1.363 . S
C438 C444 1.379 . S
C438 N446 1.356 . S
C439 C438 1.363 . S
C439 C445 1.363 . S
C440 C441 1.363 . S
C440 C445 1.379 . S
C440 N447 1.356 . S
C441 C440 1.363 . S
C441 C444 1.363 . S
N442 C444 1.356 . S
N442 H454 0.984 . S
N442 H455 0.985 . S
N443 C445 1.356 1_554 S
N443 H448 0.984 . S
N443 H449 0.985 . S
C444 C438 1.379 . S
C444 C441 1.363 . S
C444 N442 1.356 . S
C445 C439 1.363 . S
C445 C440 1.379 . S
C445 N443 1.356 1_556 S
N446 C438 1.356 . S
N446 H452 0.984 . S
N446 H453 0.984 . S
N447 C440 1.356 . S
N447 H450 0.984 . S
N447 H451 0.985 1_556 S
H448 N443 0.984 . S
H449 N443 0.985 . S
H450 N447 0.984 . S
H451 N447 0.985 1_554 S
H452 N446 0.984 . S
H453 N446 0.984 . S
H454 N442 0.984 . S
H455 N442 0.985 . S
C456 C457 1.363 . S
C456 C462 1.379 . S
C456 N464 1.356 . S
C457 C456 1.363 . S
C457 C463 1.363 . S
C458 C459 1.363 . S
C458 C463 1.379 . S
C458 N465 1.356 . S
C459 C458 1.363 . S
C459 C462 1.363 . S
N460 C462 1.356 1_556 S
N460 H472 0.984 1_455 S
N460 H473 0.985 . S
N461 C463 1.356 . S
N461 H466 0.984 . S
N461 H467 0.985 . S
C462 C456 1.379 . S
C462 C459 1.363 . S
C462 N460 1.356 1_554 S
C463 C457 1.363 . S
C463 C458 1.379 . S
C463 N461 1.356 . S
N464 C456 1.356 . S
N464 H470 0.984 . S
N464 H471 0.984 . S
N465 C458 1.356 . S
N465 H468 0.984 . S
N465 H469 0.985 . S
H466 N461 0.984 . S
H467 N461 0.985 . S
H468 N465 0.984 . S
H469 N465 0.985 . S
H470 N464 0.984 . S
H471 N464 0.984 . S
H472 N460 0.984 1_655 S
H473 N460 0.985 . S
C474 C475 1.363 . S
C474 C480 1.379 . S
C474 N482 1.356 . S
C475 C474 1.363 . S
C475 C481 1.363 . S
C476 C477 1.363 1_556 S
C476 C481 1.379 1_556 S
C476 N483 1.356 . S
C477 C476 1.363 1_554 S
C477 C480 1.363 . S
N478 C480 1.356 . S
N478 H490 0.987 . S
N478 H491 0.985 . S
N479 C481 1.356 . S
N479 H484 0.984 . S
N479 H485 0.985 1_554 S
C480 C474 1.379 . S
C480 C477 1.363 . S
C480 N478 1.356 . S
C481 C475 1.363 . S
C481 C476 1.379 1_554 S
C481 N479 1.356 . S
N482 C474 1.356 . S
N482 H488 0.984 . S
N482 H489 0.984 . S
N483 C476 1.356 . S
N483 H486 0.984 . S
N483 H487 0.985 . S
H484 N479 0.984 . S
H485 N479 0.985 1_556 S
H486 N483 0.984 . S
H487 N483 0.985 . S
H488 N482 0.984 . S
H489 N482 0.984 . S
H490 N478 0.987 . S
H491 N478 0.985 . S
C492 C493 1.363 . S
C492 C498 1.379 . S
C492 N500 1.356 . S
C493 C492 1.363 . S
C493 C499 1.363 . S
C494 C495 1.363 . S
C494 C499 1.379 . S
C494 N501 1.356 . S
C495 C494 1.363 . S
C495 C498 1.363 . S
N496 C498 1.356 1_556 S
N496 H508 0.984 . S
N496 H509 0.985 . S
N497 C499 1.356 . S
N497 H502 0.984 . S
N497 H503 0.985 . S
C498 C492 1.379 . S
C498 C495 1.363 . S
C498 N496 1.356 1_554 S
C499 C493 1.363 . S
C499 C494 1.379 . S
C499 N497 1.356 . S
N500 C492 1.356 . S
N500 H506 0.984 . S
N500 H507 0.984 . S
N501 C494 1.356 . S
N501 H504 0.984 . S
N501 H505 0.985 . S
H502 N497 0.984 . S
H503 N497 0.985 . S
H504 N501 0.984 . S
H505 N501 0.985 . S
H506 N500 0.984 . S
H507 N500 0.984 . S
H508 N496 0.984 . S
H509 N496 0.985 . S
C510 C511 1.363 . S
C510 C516 1.379 . S
C510 N518 1.356 . S
C511 C510 1.363 . S
C511 C517 1.363 . S
C512 C513 1.363 . S
C512 C517 1.379 . S
C512 N519 1.356 1_554 S
C513 C512 1.363 . S
C513 C516 1.363 . S
N514 C516 1.356 . S
N514 H526 0.984 . S
N514 H527 0.985 . S
N515 C517 1.356 . S
N515 H520 0.984 . S
N515 H521 0.985 . S
C516 C510 1.379 . S
C516 C513 1.363 . S
C516 N514 1.356 . S
C517 C511 1.363 . S
C517 C512 1.379 . S
C517 N515 1.356 . S
N518 C510 1.356 . S
N518 H524 0.984 . S
N518 H525 0.984 . S
N519 C512 1.356 1_556 S
N519 H522 0.984 . S
N519 H523 0.985 . S
H520 N515 0.984 . S
H521 N515 0.985 . S
H522 N519 0.984 . S
H523 N519 0.985 . S
H524 N518 0.984 . S
H525 N518 0.984 . S
H526 N514 0.984 . S
H527 N514 0.985 . S
C528 C529 1.363 . S
C528 C534 1.379 . S
C528 N536 1.356 . S
C529 C528 1.363 . S
C529 C535 1.363 . S
C530 C531 1.363 . S
C530 C535 1.379 . S
C530 N537 1.356 . S
C531 C530 1.363 . S
C531 C534 1.363 . S
N532 C534 1.356 1_455 S
N532 H544 0.984 . S
N532 H545 0.985 . S
N533 C535 1.356 . S
N533 H538 0.984 . S
N533 H539 0.985 . S
C534 C528 1.379 . S
C534 C531 1.363 . S
C534 N532 1.356 1_655 S
C535 C529 1.363 . S
C535 C530 1.379 . S
C535 N533 1.356 . S
N536 C528 1.356 . S
N536 H542 0.984 1_655 S
N536 H543 0.984 . S
N537 C530 1.356 . S
N537 H540 0.984 . S
N537 H541 0.985 . S
H538 N533 0.984 . S
H539 N533 0.985 . S
H540 N537 0.984 . S
H541 N537 0.985 . S
H542 N536 0.984 1_455 S
H543 N536 0.984 . S
H544 N532 0.984 . S
H545 N532 0.985 . S
C546 C547 1.363 1_545 S
C546 C552 1.379 . S
C546 N554 1.356 . S
C547 C546 1.363 1_565 S
C547 C553 1.363 . S
C548 C549 1.363 . S
C548 C553 1.379 . S
C548 N555 1.356 . S
C549 C548 1.363 . S
C549 C552 1.363 1_565 S
N550 C552 1.356 . S
N550 H562 0.984 . S
N550 H563 0.985 . S
N551 C553 1.356 . S
N551 H556 0.984 . S
N551 H557 0.985 . S
C552 C546 1.379 . S
C552 C549 1.363 1_545 S
C552 N550 1.356 . S
C553 C547 1.363 . S
C553 C548 1.379 . S
C553 N551 1.356 . S
N554 C546 1.356 . S
N554 H560 0.984 . S
N554 H561 0.984 . S
N555 C548 1.356 . S
N555 H558 0.984 . S
N555 H559 0.985 . S
H556 N551 0.984 . S
H557 N551 0.985 . S
H558 N555 0.984 . S
H559 N555 0.985 . S
H560 N554 0.984 . S
H561 N554 0.984 . S
H562 N550 0.984 . S
H563 N550 0.985 . S
C564 C565 1.363 . S
C564 C570 1.379 . S
C564 N572 1.356 . S
C565 C564 1.363 . S
C565 C571 1.363 . S
C566 C567 1.363 . S
C566 C571 1.379 . S
C566 N573 1.356 . S
C567 C566 1.363 . S
C567 C570 1.363 . S
N568 C570 1.356 . S
N568 H580 0.984 . S
N568 H581 0.985 . S
N569 C571 1.356 . S
N569 H574 0.984 . S
N569 H575 0.985 . S
C570 C564 1.379 . S
C570 C567 1.363 . S
C570 N568 1.356 . S
C571 C565 1.363 . S
C571 C566 1.379 . S
C571 N569 1.356 . S
N572 C564 1.356 . S
N572 H578 0.984 . S
N572 H579 0.984 . S
N573 C566 1.356 . S
N573 H576 0.984 . S
N573 H577 0.985 . S
H574 N569 0.984 . S
H575 N569 0.985 . S
H576 N573 0.984 . S
H577 N573 0.985 . S
H578 N572 0.984 . S
H579 N572 0.984 . S
H580 N568 0.984 . S
H581 N568 0.985 . S
C582 C583 1.363 . S
C582 C588 1.379 . S
C582 N590 1.356 . S
C583 C582 1.363 . S
C583 C589 1.363 . S
C584 C585 1.363 . S
C584 C589 1.379 . S
C584 N591 1.356 . S
C585 C584 1.363 . S
C585 C588 1.363 . S
N586 C588 1.356 . S
N586 H598 0.984 . S
N586 H599 0.985 . S
N587 C589 1.356 . S
N587 H592 0.984 . S
N587 H593 0.985 . S
C588 C582 1.379 . S
C588 C585 1.363 . S
C588 N586 1.356 . S
C589 C583 1.363 . S
C589 C584 1.379 . S
C589 N587 1.356 . S
N590 C582 1.356 . S
N590 H596 0.984 . S
N590 H597 0.984 . S
N591 C584 1.356 . S
N591 H594 0.984 . S
N591 H595 0.985 . S
H592 N587 0.984 . S
H593 N587 0.985 . S
H594 N591 0.984 . S
H595 N591 0.985 . S
H596 N590 0.984 . S
H597 N590 0.984 . S
H598 N586 0.984 . S
H599 N586 0.985 . S
C169 C74 1.587 . S
C171 C89 1.592 . S
C189 C124 1.671 . S
C187 C85 1.640 . S
C207 C129 1.330 . S
C205 C52 1.328 . S
C225 C149 1.588 . S
C223 C63 1.578 . S
C243 C97 1.592 1_565 S
C241 C30 1.535 . S
C259 C41 1.544 1_556 S
C261 C114 1.670 . S
C277 C8 1.307 . S
C279 C137 1.330 . S
C295 C19 1.505 . S
C297 C157 1.586 1_655 S
C315 C107 1.532 . S
C313 C62 1.564 . S
C333 C116 1.254 . S
C331 C73 1.272 . S
C351 C147 1.592 . S
C349 C84 1.613 . S
C367 C51 1.197 . S
C369 C167 1.168 . S
C385 C18 1.452 . S
C387 C96 1.529 1_655 S
C405 C127 1.254 1_565 S
C403 C29 1.205 . S
C423 C136 1.592 . S
C421 C40 1.442 . S
C439 C7 1.171 . S
C441 C156 1.168 . S
C457 C60 1.396 . S
C459 C94 1.507 1_554 S
C475 C71 1.390 . S
C477 C117 1.571 1_554 S
C495 C134 1.628 1_554 S
C493 C82 1.506 . S
C513 C154 1.568 1_554 S
C511 C49 1.354 . S
C529 C16 1.181 . S
C531 C104 1.507 . S
C549 C109 1.579 . S
C547 C27 1.187 . S
C567 C144 1.628 . S
C565 C38 1.181 . S
C583 C5 1.307 . S
C585 C164 1.568 . S
