# Generated by pormake.
# Topology ibd, (4,6)-cn, num edge types: 1
# Building blocks:
#     Node 0, Type 0, BuildingBlock: GALJAG_clean_sbu_0, # of connection points: 4
#     Node 1, Type 0, BuildingBlock: GALJAG_clean_sbu_0, # of connection points: 4
#     Node 2, Type 0, BuildingBlock: GALJAG_clean_sbu_0, # of connection points: 4
#     Node 3, Type 0, BuildingBlock: GALJAG_clean_sbu_0, # of connection points: 4
#     Node 4, Type 0, BuildingBlock: GALJAG_clean_sbu_0, # of connection points: 4
#     Node 5, Type 0, BuildingBlock: GALJAG_clean_sbu_0, # of connection points: 4
#     Node 6, Type 0, BuildingBlock: GALJAG_clean_sbu_0, # of connection points: 4
#     Node 7, Type 0, BuildingBlock: GALJAG_clean_sbu_0, # of connection points: 4
#     Node 8, Type 0, BuildingBlock: GALJAG_clean_sbu_0, # of connection points: 4
#     Node 9, Type 0, BuildingBlock: GALJAG_clean_sbu_0, # of connection points: 4
#     Node 10, Type 0, BuildingBlock: GALJAG_clean_sbu_0, # of connection points: 4
#     Node 11, Type 0, BuildingBlock: GALJAG_clean_sbu_0, # of connection points: 4
#     Node 12, Type 0, BuildingBlock: GALJAG_clean_sbu_0, # of connection points: 4
#     Node 13, Type 0, BuildingBlock: GALJAG_clean_sbu_0, # of connection points: 4
#     Node 14, Type 0, BuildingBlock: GALJAG_clean_sbu_0, # of connection points: 4
#     Node 15, Type 0, BuildingBlock: GALJAG_clean_sbu_0, # of connection points: 4
#     Node 16, Type 0, BuildingBlock: GALJAG_clean_sbu_0, # of connection points: 4
#     Node 17, Type 0, BuildingBlock: GALJAG_clean_sbu_0, # of connection points: 4
#     Node 18, Type 0, BuildingBlock: GALJAG_clean_sbu_0, # of connection points: 4
#     Node 19, Type 0, BuildingBlock: GALJAG_clean_sbu_0, # of connection points: 4
#     Node 20, Type 0, BuildingBlock: GALJAG_clean_sbu_0, # of connection points: 4
#     Node 21, Type 0, BuildingBlock: GALJAG_clean_sbu_0, # of connection points: 4
#     Node 22, Type 0, BuildingBlock: GALJAG_clean_sbu_0, # of connection points: 4
#     Node 23, Type 0, BuildingBlock: GALJAG_clean_sbu_0, # of connection points: 4
#     Node 24, Type 1, BuildingBlock: CIFDUS_clean_sbu_1, # of connection points: 6
#     Node 25, Type 1, BuildingBlock: CIFDUS_clean_sbu_1, # of connection points: 6
#     Node 26, Type 1, BuildingBlock: CIFDUS_clean_sbu_1, # of connection points: 6
#     Node 27, Type 1, BuildingBlock: CIFDUS_clean_sbu_1, # of connection points: 6
#     Node 28, Type 1, BuildingBlock: CIFDUS_clean_sbu_1, # of connection points: 6
#     Node 29, Type 1, BuildingBlock: CIFDUS_clean_sbu_1, # of connection points: 6
#     Node 30, Type 1, BuildingBlock: CIFDUS_clean_sbu_1, # of connection points: 6
#     Node 31, Type 1, BuildingBlock: CIFDUS_clean_sbu_1, # of connection points: 6
#     Node 32, Type 1, BuildingBlock: CIFDUS_clean_sbu_1, # of connection points: 6
#     Node 33, Type 1, BuildingBlock: CIFDUS_clean_sbu_1, # of connection points: 6
#     Node 34, Type 1, BuildingBlock: CIFDUS_clean_sbu_1, # of connection points: 6
#     Node 35, Type 1, BuildingBlock: CIFDUS_clean_sbu_1, # of connection points: 6
#     Node 36, Type 1, BuildingBlock: CIFDUS_clean_sbu_1, # of connection points: 6
#     Node 37, Type 1, BuildingBlock: CIFDUS_clean_sbu_1, # of connection points: 6
#     Node 38, Type 1, BuildingBlock: CIFDUS_clean_sbu_1, # of connection points: 6
#     Node 39, Type 1, BuildingBlock: CIFDUS_clean_sbu_1, # of connection points: 6
#     Edge 40, Type (0, 1), BuildingBlock: XUDNAN_clean_linker_2, # of connection points: 2
#     Edge 41, Type (0, 1), BuildingBlock: XUDNAN_clean_linker_2, # of connection points: 2
#     Edge 42, Type (0, 1), BuildingBlock: XUDNAN_clean_linker_2, # of connection points: 2
#     Edge 43, Type (0, 1), BuildingBlock: XUDNAN_clean_linker_2, # of connection points: 2
#     Edge 44, Type (0, 1), BuildingBlock: XUDNAN_clean_linker_2, # of connection points: 2
#     Edge 45, Type (0, 1), BuildingBlock: XUDNAN_clean_linker_2, # of connection points: 2
#     Edge 46, Type (0, 1), BuildingBlock: XUDNAN_clean_linker_2, # of connection points: 2
#     Edge 47, Type (0, 1), BuildingBlock: XUDNAN_clean_linker_2, # of connection points: 2
#     Edge 48, Type (0, 1), BuildingBlock: XUDNAN_clean_linker_2, # of connection points: 2
#     Edge 49, Type (0, 1), BuildingBlock: XUDNAN_clean_linker_2, # of connection points: 2
#     Edge 50, Type (0, 1), BuildingBlock: XUDNAN_clean_linker_2, # of connection points: 2
#     Edge 51, Type (0, 1), BuildingBlock: XUDNAN_clean_linker_2, # of connection points: 2
#     Edge 52, Type (0, 1), BuildingBlock: XUDNAN_clean_linker_2, # of connection points: 2
#     Edge 53, Type (0, 1), BuildingBlock: XUDNAN_clean_linker_2, # of connection points: 2
#     Edge 54, Type (0, 1), BuildingBlock: XUDNAN_clean_linker_2, # of connection points: 2
#     Edge 55, Type (0, 1), BuildingBlock: XUDNAN_clean_linker_2, # of connection points: 2
#     Edge 56, Type (0, 1), BuildingBlock: XUDNAN_clean_linker_2, # of connection points: 2
#     Edge 57, Type (0, 1), BuildingBlock: XUDNAN_clean_linker_2, # of connection points: 2
#     Edge 58, Type (0, 1), BuildingBlock: XUDNAN_clean_linker_2, # of connection points: 2
#     Edge 59, Type (0, 1), BuildingBlock: XUDNAN_clean_linker_2, # of connection points: 2
#     Edge 60, Type (0, 1), BuildingBlock: XUDNAN_clean_linker_2, # of connection points: 2
#     Edge 61, Type (0, 1), BuildingBlock: XUDNAN_clean_linker_2, # of connection points: 2
#     Edge 62, Type (0, 1), BuildingBlock: XUDNAN_clean_linker_2, # of connection points: 2
#     Edge 63, Type (0, 1), BuildingBlock: XUDNAN_clean_linker_2, # of connection points: 2
#     Edge 64, Type (0, 1), BuildingBlock: XUDNAN_clean_linker_2, # of connection points: 2
#     Edge 65, Type (0, 1), BuildingBlock: XUDNAN_clean_linker_2, # of connection points: 2
#     Edge 66, Type (0, 1), BuildingBlock: XUDNAN_clean_linker_2, # of connection points: 2
#     Edge 67, Type (0, 1), BuildingBlock: XUDNAN_clean_linker_2, # of connection points: 2
#     Edge 68, Type (0, 1), BuildingBlock: XUDNAN_clean_linker_2, # of connection points: 2
#     Edge 69, Type (0, 1), BuildingBlock: XUDNAN_clean_linker_2, # of connection points: 2
#     Edge 70, Type (0, 1), BuildingBlock: XUDNAN_clean_linker_2, # of connection points: 2
#     Edge 71, Type (0, 1), BuildingBlock: XUDNAN_clean_linker_2, # of connection points: 2
#     Edge 72, Type (0, 1), BuildingBlock: XUDNAN_clean_linker_2, # of connection points: 2
#     Edge 73, Type (0, 1), BuildingBlock: XUDNAN_clean_linker_2, # of connection points: 2
#     Edge 74, Type (0, 1), BuildingBlock: XUDNAN_clean_linker_2, # of connection points: 2
#     Edge 75, Type (0, 1), BuildingBlock: XUDNAN_clean_linker_2, # of connection points: 2
#     Edge 76, Type (0, 1), BuildingBlock: XUDNAN_clean_linker_2, # of connection points: 2
#     Edge 77, Type (0, 1), BuildingBlock: XUDNAN_clean_linker_2, # of connection points: 2
#     Edge 78, Type (0, 1), BuildingBlock: XUDNAN_clean_linker_2, # of connection points: 2
#     Edge 79, Type (0, 1), BuildingBlock: XUDNAN_clean_linker_2, # of connection points: 2
#     Edge 80, Type (0, 1), BuildingBlock: XUDNAN_clean_linker_2, # of connection points: 2
#     Edge 81, Type (0, 1), BuildingBlock: XUDNAN_clean_linker_2, # of connection points: 2
#     Edge 82, Type (0, 1), BuildingBlock: XUDNAN_clean_linker_2, # of connection points: 2
#     Edge 83, Type (0, 1), BuildingBlock: XUDNAN_clean_linker_2, # of connection points: 2
#     Edge 84, Type (0, 1), BuildingBlock: XUDNAN_clean_linker_2, # of connection points: 2
#     Edge 85, Type (0, 1), BuildingBlock: XUDNAN_clean_linker_2, # of connection points: 2
#     Edge 86, Type (0, 1), BuildingBlock: XUDNAN_clean_linker_2, # of connection points: 2
#     Edge 87, Type (0, 1), BuildingBlock: XUDNAN_clean_linker_2, # of connection points: 2
#     Edge 88, Type (0, 1), BuildingBlock: XUDNAN_clean_linker_2, # of connection points: 2
#     Edge 89, Type (0, 1), BuildingBlock: XUDNAN_clean_linker_2, # of connection points: 2
#     Edge 90, Type (0, 1), BuildingBlock: XUDNAN_clean_linker_2, # of connection points: 2
#     Edge 91, Type (0, 1), BuildingBlock: XUDNAN_clean_linker_2, # of connection points: 2
#     Edge 92, Type (0, 1), BuildingBlock: XUDNAN_clean_linker_2, # of connection points: 2
#     Edge 93, Type (0, 1), BuildingBlock: XUDNAN_clean_linker_2, # of connection points: 2
#     Edge 94, Type (0, 1), BuildingBlock: XUDNAN_clean_linker_2, # of connection points: 2
#     Edge 95, Type (0, 1), BuildingBlock: XUDNAN_clean_linker_2, # of connection points: 2
#     Edge 96, Type (0, 1), BuildingBlock: XUDNAN_clean_linker_2, # of connection points: 2
#     Edge 97, Type (0, 1), BuildingBlock: XUDNAN_clean_linker_2, # of connection points: 2
#     Edge 98, Type (0, 1), BuildingBlock: XUDNAN_clean_linker_2, # of connection points: 2
#     Edge 99, Type (0, 1), BuildingBlock: XUDNAN_clean_linker_2, # of connection points: 2
#     Edge 100, Type (0, 1), BuildingBlock: XUDNAN_clean_linker_2, # of connection points: 2
#     Edge 101, Type (0, 1), BuildingBlock: XUDNAN_clean_linker_2, # of connection points: 2
#     Edge 102, Type (0, 1), BuildingBlock: XUDNAN_clean_linker_2, # of connection points: 2
#     Edge 103, Type (0, 1), BuildingBlock: XUDNAN_clean_linker_2, # of connection points: 2
#     Edge 104, Type (0, 1), BuildingBlock: XUDNAN_clean_linker_2, # of connection points: 2
#     Edge 105, Type (0, 1), BuildingBlock: XUDNAN_clean_linker_2, # of connection points: 2
#     Edge 106, Type (0, 1), BuildingBlock: XUDNAN_clean_linker_2, # of connection points: 2
#     Edge 107, Type (0, 1), BuildingBlock: XUDNAN_clean_linker_2, # of connection points: 2
#     Edge 108, Type (0, 1), BuildingBlock: XUDNAN_clean_linker_2, # of connection points: 2
#     Edge 109, Type (0, 1), BuildingBlock: XUDNAN_clean_linker_2, # of connection points: 2
#     Edge 110, Type (0, 1), BuildingBlock: XUDNAN_clean_linker_2, # of connection points: 2
#     Edge 111, Type (0, 1), BuildingBlock: XUDNAN_clean_linker_2, # of connection points: 2
#     Edge 112, Type (0, 1), BuildingBlock: XUDNAN_clean_linker_2, # of connection points: 2
#     Edge 113, Type (0, 1), BuildingBlock: XUDNAN_clean_linker_2, # of connection points: 2
#     Edge 114, Type (0, 1), BuildingBlock: XUDNAN_clean_linker_2, # of connection points: 2
#     Edge 115, Type (0, 1), BuildingBlock: XUDNAN_clean_linker_2, # of connection points: 2
#     Edge 116, Type (0, 1), BuildingBlock: XUDNAN_clean_linker_2, # of connection points: 2
#     Edge 117, Type (0, 1), BuildingBlock: XUDNAN_clean_linker_2, # of connection points: 2
#     Edge 118, Type (0, 1), BuildingBlock: XUDNAN_clean_linker_2, # of connection points: 2
#     Edge 119, Type (0, 1), BuildingBlock: XUDNAN_clean_linker_2, # of connection points: 2
#     Edge 120, Type (0, 1), BuildingBlock: XUDNAN_clean_linker_2, # of connection points: 2
#     Edge 121, Type (0, 1), BuildingBlock: XUDNAN_clean_linker_2, # of connection points: 2
#     Edge 122, Type (0, 1), BuildingBlock: XUDNAN_clean_linker_2, # of connection points: 2
#     Edge 123, Type (0, 1), BuildingBlock: XUDNAN_clean_linker_2, # of connection points: 2
#     Edge 124, Type (0, 1), BuildingBlock: XUDNAN_clean_linker_2, # of connection points: 2
#     Edge 125, Type (0, 1), BuildingBlock: XUDNAN_clean_linker_2, # of connection points: 2
#     Edge 126, Type (0, 1), BuildingBlock: XUDNAN_clean_linker_2, # of connection points: 2
#     Edge 127, Type (0, 1), BuildingBlock: XUDNAN_clean_linker_2, # of connection points: 2
#     Edge 128, Type (0, 1), BuildingBlock: XUDNAN_clean_linker_2, # of connection points: 2
#     Edge 129, Type (0, 1), BuildingBlock: XUDNAN_clean_linker_2, # of connection points: 2
#     Edge 130, Type (0, 1), BuildingBlock: XUDNAN_clean_linker_2, # of connection points: 2
#     Edge 131, Type (0, 1), BuildingBlock: XUDNAN_clean_linker_2, # of connection points: 2
#     Edge 132, Type (0, 1), BuildingBlock: XUDNAN_clean_linker_2, # of connection points: 2
#     Edge 133, Type (0, 1), BuildingBlock: XUDNAN_clean_linker_2, # of connection points: 2
#     Edge 134, Type (0, 1), BuildingBlock: XUDNAN_clean_linker_2, # of connection points: 2
#     Edge 135, Type (0, 1), BuildingBlock: XUDNAN_clean_linker_2, # of connection points: 2
# Relax obj value: 0.250
# Max RMSD: 0.284
# Mean RMSD: 0.231
data_MOF--net-ibd--node1-GALJAG_clean_sbu_0--node2-CIFDUS_clean_sbu_1--edge1-XUDNAN_clean_linker_2
_symmetry_space_group_name_H-M    P1
_symmetry_Int_Tables_number       1
_symmetry_cell_setting            triclinic
loop_
_symmetry_equiv_pos_as_xyz
'x, y, z'
_cell_length_a     47.921539
_cell_length_b     49.128733
_cell_length_c     49.78037
_cell_angle_alpha  90.710314
_cell_angle_beta   89.265887
_cell_angle_gamma 93.110467
loop_
_atom_site_label
_atom_site_type_symbol
_atom_site_fract_x
_atom_site_fract_y
_atom_site_fract_z
_atom_type_partial_charge
In0 In 0.00113 0.30584 0.37105 0.0
O1 O 0.03213 0.30755 0.33647 0.0
O2 O 0.01057 0.26927 0.34408 0.0
C3 C 0.04211 0.32581 0.40274 0.0
C4 C 0.97168 0.33476 0.33713 0.0
C5 C 0.97044 0.27877 0.40966 0.0
O6 O 0.04094 0.30162 0.39389 0.0
O7 O 0.02301 0.34039 0.39488 0.0
O8 O 0.97086 0.3044 0.40779 0.0
O9 O 0.98379 0.26711 0.39122 0.0
C10 C 0.02724 0.28314 0.32911 0.0
O11 O 0.96711 0.30946 0.34029 0.0
O12 O 0.98857 0.34611 0.35355 0.0
In13 In 0.99271 0.77945 0.64292 0.0
O14 O 0.97057 0.81261 0.6653 0.0
O15 O 0.95773 0.77091 0.67244 0.0
C16 C 0.02451 0.80275 0.60422 0.0
C17 C 0.02641 0.76731 0.68257 0.0
C18 C 0.96658 0.74716 0.6068 0.0
O19 O 0.00297 0.81364 0.61336 0.0
O20 O 0.03109 0.78171 0.61631 0.0
O21 O 0.98458 0.73872 0.62262 0.0
O22 O 0.95943 0.77117 0.61139 0.0
C23 C 0.95594 0.79562 0.67924 0.0
O24 O 0.01532 0.74921 0.66718 0.0
O25 O 0.02213 0.79166 0.67663 0.0
In26 In 0.49843 0.80877 0.86925 0.0
O27 O 0.53396 0.7842 0.85339 0.0
O28 O 0.49824 0.78642 0.82874 0.0
C29 C 0.53723 0.82798 0.90304 0.0
C30 C 0.47657 0.84385 0.83561 0.0
C31 C 0.46764 0.77945 0.90603 0.0
O32 O 0.54042 0.80756 0.88798 0.0
O33 O 0.51557 0.84087 0.89881 0.0
O34 O 0.47151 0.80494 0.90789 0.0
O35 O 0.47702 0.76929 0.88461 0.0
C36 C 0.52227 0.77775 0.83152 0.0
O37 O 0.46255 0.82404 0.84595 0.0
O38 O 0.50111 0.84771 0.84435 0.0
In39 In 0.49341 0.27631 0.14477 0.0
O40 O 0.49199 0.24129 0.17389 0.0
O41 O 0.52971 0.26615 0.17126 0.0
C42 C 0.46673 0.25012 0.10451 0.0
C43 C 0.46885 0.30649 0.18257 0.0
C44 C 0.52672 0.30355 0.10924 0.0
O45 O 0.4848 0.23949 0.11866 0.0
O46 O 0.45909 0.27293 0.11307 0.0
O47 O 0.50767 0.31459 0.12254 0.0
O48 O 0.5303 0.27905 0.11502 0.0
C49 C 0.51599 0.24708 0.18316 0.0
O50 O 0.49268 0.31264 0.17262 0.0
O51 O 0.45585 0.28634 0.17142 0.0
In52 In -0.00466 0.77829 0.12263 0.0
O53 O 0.95506 0.78573 0.10088 0.0
O54 O 0.99068 0.81233 0.09241 0.0
C55 C 0.96411 0.75691 0.16299 0.0
C56 C 0.02533 0.75068 0.08648 0.0
C57 C 0.02653 0.80092 0.16225 0.0
O58 O 0.96171 0.78059 0.15412 0.0
O59 O 0.97973 0.74216 0.14894 0.0
O60 O 0.02836 0.7767 0.15404 0.0
O61 O 0.01141 0.81531 0.14801 0.0
C62 C 0.96546 0.80539 0.08734 0.0
O63 O 0.03565 0.77045 0.10012 0.0
O64 O 5e-05 0.74384 0.0918 0.0
In65 In 0.51686 0.78617 0.38932 0.0
O66 O 0.53081 0.74994 0.41342 0.0
O67 O 0.54948 0.78934 0.42214 0.0
C68 C 0.4872 0.76972 0.34567 0.0
C69 C 0.48138 0.80614 0.42526 0.0
C70 C 0.55307 0.81173 0.35609 0.0
O71 O 0.50095 0.75307 0.35878 0.0
O72 O 0.48627 0.79312 0.35633 0.0
O73 O 0.53742 0.82465 0.37179 0.0
O74 O 0.55229 0.78621 0.35917 0.0
C75 C 0.54697 0.76453 0.4284 0.0
O76 O 0.50058 0.82074 0.41403 0.0
O77 O 0.47847 0.78188 0.4165 0.0
In78 In 0.49275 0.2806 0.62229 0.0
O79 O 0.53447 0.26692 0.60577 0.0
O80 O 0.49737 0.25209 0.58622 0.0
C81 C 0.52311 0.30967 0.65908 0.0
C82 C 0.46365 0.30829 0.5869 0.0
C83 C 0.46194 0.25071 0.6579 0.0
O84 O 0.52498 0.28447 0.65507 0.0
O85 O 0.5071 0.32099 0.64316 0.0
O86 O 0.46018 0.27606 0.65544 0.0
O87 O 0.4777 0.23986 0.6408 0.0
C88 C 0.52371 0.25314 0.58664 0.0
O89 O 0.45177 0.29253 0.60387 0.0
O90 O 0.48987 0.3114 0.589 0.0
In91 In 0.02132 0.29212 0.89051 0.0
O92 O 0.03666 0.25806 0.91696 0.0
O93 O 0.04936 0.29925 0.92671 0.0
C94 C 0.99332 0.26566 0.85011 0.0
C95 C 0.9848 0.31516 0.92349 0.0
C96 C 0.05876 0.31219 0.85464 0.0
O97 O 0.00836 0.25339 0.86635 0.0
O98 O 0.99059 0.29051 0.8558 0.0
O99 O 0.03826 0.32566 0.86225 0.0
O100 O 0.06184 0.29071 0.86764 0.0
C101 C 0.04964 0.27445 0.93294 0.0
O102 O 0.00582 0.32846 0.9137 0.0
O103 O 0.98092 0.29104 0.91464 0.0
In104 In 0.36621 0.00539 0.24145 0.0
O105 O 0.33313 0.97105 0.23967 0.0
O106 O 0.34033 0.99113 0.27741 0.0
C107 C 0.40335 0.97623 0.21518 0.0
C108 C 0.32641 0.03723 0.22279 0.0
C109 C 0.40713 0.03044 0.2708 0.0
O110 O 0.38966 0.96706 0.23525 0.0
O111 O 0.39586 -0.00119 0.20657 0.0
O112 O 0.40321 0.03644 0.2466 0.0
O113 O 0.38933 0.01338 0.28071 0.0
C114 C 0.32514 0.97445 0.26372 0.0
O115 O 0.33837 0.04121 0.24504 0.0
O116 O 0.33715 0.01938 0.20802 0.0
In117 In 0.24208 0.1534 0.50667 0.0
O118 O 0.21313 0.18736 0.49738 0.0
O119 O 0.22249 0.1807 0.53842 0.0
C120 C 0.21081 0.11034 0.48762 0.0
C121 C 0.27956 0.18722 0.4819 0.0
C122 C 0.26986 0.1203 0.53821 0.0
O123 O 0.2043 0.12368 0.50843 0.0
O124 O 0.23121 0.12087 0.47437 0.0
O125 O 0.27376 0.12177 0.51317 0.0
O126 O 0.25359 0.13732 0.54804 0.0
C127 C 0.21104 0.19538 0.5215 0.0
O128 O 0.27887 0.18413 0.50703 0.0
O129 O 0.26269 0.17163 0.46881 0.0
In130 In 0.12117 0.04987 0.74344 0.0
O131 O 0.09012 0.01671 0.75923 0.0
O132 O 0.08901 0.05737 0.77512 0.0
C133 C 0.15943 0.03158 0.71024 0.0
C134 C 0.08633 0.0683 0.7083 0.0
C135 C 0.16065 0.06517 0.77803 0.0
O136 O 0.14349 0.01554 0.72414 0.0
O137 O 0.15499 0.05667 0.71241 0.0
O138 O 0.1491 0.08223 0.76339 0.0
O139 O 0.15073 0.04083 0.77638 0.0
C140 C 0.07803 0.0334 0.77453 0.0
O141 O 0.09787 0.08426 0.72565 0.0
O142 O 0.0946 0.04434 0.70765 0.0
In143 In 0.24685 0.90825 0.00865 0.0
O144 O 0.20796 0.93152 0.01291 0.0
O145 O 0.23216 0.92535 0.04799 0.0
C146 C 0.22419 0.86771 0.97866 0.0
C147 C 0.27305 0.95379 0.98908 0.0
C148 C 0.27042 0.87197 0.03898 0.0
O149 O 0.20955 0.88322 0.99265 0.0
O150 O 0.25 0.87432 0.97769 0.0
O151 O 0.2837 0.8835 0.01969 0.0
O152 O 0.2468 0.88094 0.04424 0.0
C153 C 0.21169 0.93629 0.03767 0.0
O154 O 0.2779 0.94455 0.01198 0.0
O155 O 0.25744 0.93835 0.97458 0.0
In156 In 0.25371 0.40975 0.00803 0.0
O157 O 0.27488 0.38676 0.97497 0.0
O158 O 0.28992 0.3818 0.01449 0.0
C159 C 0.21504 0.4344 0.98082 0.0
C160 C 0.2214 0.37413 0.03629 0.0
C161 C 0.28022 0.4575 0.02173 0.0
O162 O 0.23373 0.42111 0.96927 0.0
O163 O 0.21463 0.43331 0.00616 0.0
O164 O 0.27308 0.43972 0.03903 0.0
O165 O 0.27605 0.45027 -0.00228 0.0
C166 C 0.29103 0.37467 0.99009 0.0
O167 O 0.23558 0.39363 0.04722 0.0
O168 O 0.22278 0.37323 0.01098 0.0
In169 In 0.73736 0.15964 0.00588 0.0
O170 O 0.71678 0.1311 0.03681 0.0
O171 O 0.70884 0.12433 0.99478 0.0
C172 C 0.76739 0.20381 0.02189 0.0
C173 C 0.77751 0.12657 0.99263 0.0
C174 C 0.6992 0.19084 0.9868 0.0
O175 O 0.75297 0.18904 0.03835 0.0
O176 O 0.76784 0.19515 -0.00216 0.0
O177 O 0.71617 0.17844 0.97179 0.0
O178 O 0.70027 0.18579 0.01163 0.0
C179 C 0.70566 0.11587 0.01855 0.0
O180 O 0.76315 0.13739 0.97474 0.0
O181 O 0.77286 0.13437 0.01653 0.0
In182 In 0.13231 0.5488 0.27021 0.0
O183 O 0.16031 0.53357 0.30375 0.0
O184 O 0.15954 0.51331 0.26572 0.0
C185 C 0.09459 0.58159 0.29135 0.0
C186 C 0.17279 0.58232 0.24932 0.0
C187 C 0.09205 0.51631 0.24823 0.0
O188 O 0.10933 0.56736 0.30616 0.0
O189 O 0.09962 0.57987 0.26646 0.0
O190 O 0.10791 0.53229 0.23434 0.0
O191 O 0.09769 0.51563 0.27298 0.0
C192 C 0.17075 0.51588 0.28845 0.0
O193 O 0.16048 0.5639 0.23516 0.0
O194 O 0.16286 0.58502 0.27272 0.0
In195 In 0.75991 0.91233 0.5131 0.0
O196 O 0.77844 0.89321 0.47497 0.0
O197 O 0.79151 0.87928 0.51288 0.0
C198 C 0.72057 0.93794 0.48741 0.0
C199 C 0.73407 0.87229 0.54189 0.0
C200 C 0.78991 0.95872 0.52789 0.0
O201 O 0.73696 0.92239 0.47543 0.0
O202 O 0.72274 0.93894 0.51268 0.0
O203 O 0.77261 0.94676 0.54377 0.0
O204 O 0.7936 0.94599 0.50611 0.0
C205 C 0.79258 0.87674 0.48768 0.0
O206 O 0.75596 0.8854 0.54979 0.0
O207 O 0.72352 0.88144 0.52098 0.0
In208 In 0.87195 0.01148 0.27172 0.0
O209 O 0.89801 0.01147 0.30924 0.0
O210 O 0.89921 0.9773 0.28242 0.0
C211 C 0.82793 0.04161 0.28332 0.0
C212 C 0.91288 0.04126 0.24659 0.0
C213 C 0.83641 0.97456 0.25007 0.0
O214 O 0.83897 0.0277 0.30125 0.0
O215 O 0.84063 0.04188 0.26095 0.0
O216 O 0.85107 0.99128 0.23589 0.0
O217 O 0.84236 0.97445 0.27472 0.0
C218 C 0.90944 0.98967 0.30266 0.0
O219 O 0.90523 0.01753 0.23852 0.0
O220 O 0.89867 0.05032 0.26593 0.0
In221 In 0.23233 0.66117 0.50756 0.0
O222 O 0.24161 0.63753 0.46945 0.0
O223 O 0.27004 0.63525 0.50185 0.0
C224 C 0.19476 0.69528 0.49129 0.0
C225 C 0.20197 0.61925 0.52904 0.0
C226 C 0.26583 0.70445 0.52044 0.0
O227 O 0.20855 0.68061 0.47539 0.0
O228 O 0.19863 0.69144 0.51605 0.0
O229 O 0.25509 0.68894 0.53852 0.0
O230 O 0.26145 0.69665 0.49655 0.0
C231 C 0.26284 0.62692 0.47872 0.0
O232 O 0.22256 0.6303 0.54167 0.0
O233 O 0.19556 0.63145 0.50809 0.0
In234 In 0.37343 0.51093 0.76958 0.0
O235 O 0.40209 0.50884 0.80497 0.0
O236 O 0.40218 0.47678 0.77554 0.0
C237 C 0.33272 0.54336 0.78397 0.0
C238 C 0.41243 0.54193 0.74333 0.0
C239 C 0.33311 0.47482 0.75507 0.0
O240 O 0.34534 0.52992 0.80125 0.0
O241 O 0.3423 0.54191 0.76024 0.0
O242 O 0.34838 0.48754 0.73779 0.0
O243 O 0.34074 0.47793 0.77917 0.0
C244 C 0.41349 0.4879 0.79593 0.0
O245 O 0.40389 0.51881 0.73413 0.0
O246 O 0.39963 0.54985 0.76406 0.0
In247 In 0.63054 0.04932 0.76649 0.0
O248 O 0.66079 0.03938 0.80008 0.0
O249 O 0.6572 0.01333 0.7656 0.0
C250 C 0.58829 0.07103 0.79399 0.0
C251 C 0.66918 0.08133 0.74154 0.0
C252 C 0.59358 0.0207 0.73646 0.0
O253 O 0.59862 0.04898 0.80066 0.0
O254 O 0.60152 0.08378 0.77556 0.0
O255 O 0.60158 0.04491 0.7308 0.0
O256 O 0.60542 0.01061 0.75619 0.0
C257 C 0.66981 0.01921 0.78712 0.0
O258 O 0.65911 0.05956 0.73099 0.0
O259 O 0.65848 0.08796 0.76384 0.0
In260 In 0.73974 0.65243 0.0117 0.0
O261 O 0.70627 0.68291 0.00716 0.0
O262 O 0.71535 0.67051 0.04684 0.0
C263 C 0.71247 0.61422 0.98159 0.0
C264 C 0.77475 0.6939 0.99548 0.0
C265 C 0.76739 0.61388 0.0367 0.0
O266 O 0.70499 0.62004 0.00526 0.0
O267 O 0.73206 0.62958 0.97208 0.0
O268 O 0.77275 0.62103 0.01287 0.0
O269 O 0.74976 0.62783 0.04893 0.0
C270 C 0.70183 0.68569 0.03205 0.0
O271 O 0.77297 0.68641 0.01966 0.0
O272 O 0.76066 0.67901 0.97918 0.0
In273 In 0.86602 0.50949 0.74458 0.0
O274 O 0.83752 0.4713 0.74238 0.0
O275 O 0.83794 0.49467 0.77881 0.0
C276 C 0.90678 0.49285 0.71225 0.0
C277 C 0.82511 0.53821 0.72373 0.0
C278 C 0.90623 0.52841 0.77832 0.0
O279 O 0.89337 0.47665 0.72792 0.0
O280 O 0.89712 0.5162 0.71061 0.0
O281 O 0.89549 0.54377 0.7615 0.0
O282 O 0.89445 0.50487 0.77994 0.0
C283 C 0.82656 0.4753 0.76526 0.0
O284 O 0.83371 0.54183 0.74748 0.0
O285 O 0.83905 0.5222 0.70954 0.0
In286 In 0.73748 0.40519 0.5069 0.0
O287 O 0.69956 0.42955 0.51421 0.0
O288 O 0.72372 0.41938 0.54799 0.0
C289 C 0.71007 0.36988 0.4736 0.0
C290 C 0.76394 0.4524 0.49121 0.0
C291 C 0.77027 0.36781 0.52662 0.0
O292 O 0.70267 0.37238 0.4979 0.0
O293 O 0.72929 0.38679 0.46609 0.0
O294 O 0.776 0.37915 0.50445 0.0
O295 O 0.74948 0.37666 0.539 0.0
C296 C 0.7042 0.43273 0.53904 0.0
O297 O 0.76695 0.44263 0.51422 0.0
O298 O 0.74967 0.43726 0.47531 0.0
In299 In 0.62022 0.55215 0.24084 0.0
O300 O 0.58759 0.51921 0.25383 0.0
O301 O 0.58473 0.55939 0.27005 0.0
C302 C 0.65342 0.52243 0.20943 0.0
C303 C 0.5916 0.58558 0.21177 0.0
C304 C 0.66013 0.57049 0.27445 0.0
O305 O 0.64307 0.51364 0.23129 0.0
O306 O 0.64501 0.54508 0.20236 0.0
O307 O 0.65409 0.58307 0.25356 0.0
O308 O 0.64468 0.54954 0.27939 0.0
C309 C 0.57413 0.53539 0.26838 0.0
O310 O 0.61123 0.59433 0.22681 0.0
O311 O 0.58798 0.55993 0.20997 0.0
O312 O 0.15129 0.18527 0.11355 0.0
Mn313 Mn 0.1274 0.15458 0.13395 0.0
O314 O 0.18809 0.19544 0.13968 0.0
Mn315 Mn 0.17189 0.18146 0.17054 0.0
O316 O 0.1015 0.12666 0.156 0.0
O317 O 0.0984 0.15783 0.105 0.0
Mn318 Mn 0.08169 0.12527 0.09932 0.0
O319 O 0.14467 0.12376 0.11242 0.0
O320 O 0.06356 0.11636 0.13101 0.0
O321 O 0.10955 0.18484 0.15686 0.0
O322 O 0.14284 0.19971 0.18596 0.0
O323 O 0.0671 0.14792 0.07473 0.0
O324 O 0.10968 0.10243 0.0891 0.0
C325 C 0.17594 0.1398 0.17788 0.0
C326 C 0.17379 0.19961 0.11899 0.0
C327 C 0.0764 0.11641 0.15318 0.0
C328 C 0.08468 0.16618 0.08467 0.0
C329 C 0.13498 0.10479 0.09682 0.0
C330 C 0.11802 0.19932 0.17705 0.0
O331 O 0.15779 0.14902 0.16148 0.0
O332 O 0.19125 0.15823 0.19045 0.0
O333 O 0.09054 0.87825 0.35497 0.0
Mn334 Mn 0.11481 0.8977 0.38488 0.0
O335 O 0.12179 0.86153 0.32562 0.0
Mn336 Mn 0.15406 0.87052 0.34481 0.0
O337 O 0.13932 0.91861 0.4142 0.0
O338 O 0.08496 0.92327 0.39071 0.0
Mn339 Mn 0.07636 0.92925 0.42438 0.0
O340 O 0.09698 0.87165 0.41393 0.0
O341 O 0.10944 0.94388 0.43822 0.0
O342 O 0.13297 0.92518 0.35672 0.0
O343 O 0.16974 0.90455 0.33909 0.0
O344 O 0.05337 0.94999 0.40397 0.0
O345 O 0.0654 0.89526 0.43733 0.0
C346 C 0.15979 0.84998 0.38171 0.0
C347 C 0.09683 0.86614 0.33285 0.0
C348 C 0.13397 0.93657 0.43243 0.0
C349 C 0.06657 0.93958 0.38385 0.0
C350 C 0.07788 0.87351 0.43211 0.0
C351 C 0.15597 0.92554 0.3432 0.0
O352 O 0.14415 0.87038 0.37896 0.0
O353 O 0.17373 0.844 0.36016 0.0
O354 O 0.40682 0.94045 0.64589 0.0
Mn355 Mn 0.37521 0.91905 0.62533 0.0
O356 O 0.43216 0.96572 0.61577 0.0
Mn357 Mn 0.41246 0.95413 0.58542 0.0
O358 O 0.34513 0.89559 0.60286 0.0
O359 O 0.37335 0.89239 0.65608 0.0
Mn360 Mn 0.33836 0.88101 0.66151 0.0
O361 O 0.34475 0.94151 0.64444 0.0
O362 O 0.32861 0.86267 0.63072 0.0
O363 O 0.40446 0.89561 0.60527 0.0
O364 O 0.42243 0.9213 0.5713 0.0
O365 O 0.35803 0.86398 0.68699 0.0
O366 O 0.31929 0.91156 0.66996 0.0
C367 C 0.37069 0.96754 0.58208 0.0
C368 C 0.42729 0.95717 0.63956 0.0
C369 C 0.33251 0.87219 0.60731 0.0
C370 C 0.3792 0.87767 0.67647 0.0
C371 C 0.32443 0.93544 0.66081 0.0
C372 C 0.41892 0.89866 0.58344 0.0
O373 O 0.37775 0.94735 0.59637 0.0
O374 O 0.39095 0.97808 0.56754 0.0
O375 O 0.40304 0.18528 0.913 0.0
Mn376 Mn 0.37911 0.16273 0.88485 0.0
O377 O 0.42702 0.15476 0.93565 0.0
Mn378 Mn 0.41207 0.12338 0.91926 0.0
O379 O 0.35432 0.13901 0.85812 0.0
O380 O 0.35278 0.1949 0.88522 0.0
Mn381 Mn 0.35097 0.19884 0.84986 0.0
O382 O 0.40485 0.17821 0.85312 0.0
O383 O 0.33557 0.1693 0.83201 0.0
O384 O 0.35347 0.14435 0.915 0.0
O385 O 0.37765 0.11013 0.93127 0.0
O386 O 0.32693 0.2224 0.86143 0.0
O387 O 0.3839 0.21331 0.83663 0.0
C388 C 0.42371 0.11549 0.87838 0.0
C389 C 0.42061 0.17909 0.93093 0.0
C390 C 0.33822 0.14495 0.83897 0.0
C391 C 0.33593 0.21518 0.88464 0.0
C392 C 0.40464 0.19867 0.83738 0.0
C393 C 0.35511 0.12228 0.9285 0.0
O394 O 0.40579 0.1327 0.886 0.0
O395 O 0.4341 0.10219 0.89778 0.0
O396 O 0.58621 0.37706 0.8559 0.0
Mn397 Mn 0.61232 0.3964 0.88516 0.0
O398 O 0.61037 0.3447 0.83595 0.0
Mn399 Mn 0.64335 0.35958 0.8487 0.0
O400 O 0.63769 0.41864 0.91204 0.0
O401 O 0.58534 0.42557 0.88732 0.0
Mn402 Mn 0.57552 0.43407 0.92012 0.0
O403 O 0.59279 0.37564 0.91818 0.0
O404 O 0.60926 0.44589 0.93547 0.0
O405 O 0.63336 0.41895 0.85477 0.0
O406 O 0.65781 0.38938 0.83083 0.0
O407 O 0.55696 0.45668 0.89766 0.0
O408 O 0.55842 0.40181 0.93179 0.0
C409 C 0.65793 0.34717 0.88534 0.0
C410 C 0.58844 0.35773 0.83841 0.0
C411 C 0.63347 0.438 0.92905 0.0
C412 C 0.56952 0.44363 0.87879 0.0
C413 C 0.57241 0.38077 0.93433 0.0
C414 C 0.65052 0.41329 0.83579 0.0
O415 O 0.64027 0.36642 0.88363 0.0
O416 O 0.6672 0.33732 0.8628 0.0
O417 O 0.9076 0.44065 0.14904 0.0
Mn418 Mn 0.87682 0.4177 0.12752 0.0
O419 O 0.93332 0.46523 0.11875 0.0
Mn420 Mn 0.9149 0.45245 0.08828 0.0
O421 O 0.84708 0.39365 0.10519 0.0
O422 O 0.87435 0.39115 0.15816 0.0
Mn423 Mn 0.83939 0.38083 0.16501 0.0
O424 O 0.84527 0.44002 0.14509 0.0
O425 O 0.82741 0.36338 0.13432 0.0
O426 O 0.90676 0.39416 0.10828 0.0
O427 O 0.92607 0.41974 0.07485 0.0
O428 O 0.86006 0.36352 0.18986 0.0
O429 O 0.82143 0.41214 0.17394 0.0
C430 C 0.87299 0.46449 0.08246 0.0
C431 C 0.92793 0.45781 0.14281 0.0
C432 C 0.83132 0.37219 0.11056 0.0
C433 C 0.88094 0.37689 0.17855 0.0
C434 C 0.82562 0.43513 0.16254 0.0
C435 C 0.9219 0.39709 0.08681 0.0
O436 O 0.87985 0.44532 0.09811 0.0
O437 O 0.89376 0.47556 0.06895 0.0
O438 O 0.90105 0.68298 0.41543 0.0
Mn439 Mn 0.87753 0.66372 0.3852 0.0
O440 O 0.92144 0.64804 0.43546 0.0
Mn441 Mn 0.90969 0.619 0.41339 0.0
O442 O 0.85397 0.64195 0.35612 0.0
O443 O 0.85089 0.69456 0.38705 0.0
Mn444 Mn 0.83882 0.6997 0.35419 0.0
O445 O 0.90106 0.68464 0.35578 0.0
O446 O 0.81988 0.66832 0.34339 0.0
O447 O 0.85242 0.64122 0.4137 0.0
O448 O 0.8751 0.60293 0.42039 0.0
O449 O 0.82247 0.72528 0.37525 0.0
O450 O 0.87043 0.70947 0.33385 0.0
C451 C 0.9262 0.62221 0.37323 0.0
C452 C 0.9169 0.67336 0.43325 0.0
C453 C 0.83113 0.64557 0.34384 0.0
C454 C 0.83776 0.71607 0.39399 0.0
C455 C 0.89487 0.7011 0.3372 0.0
C456 C 0.85319 0.61634 0.42173 0.0
O457 O 0.9052 0.63471 0.38263 0.0
O458 O 0.9352 0.60462 0.38967 0.0
O459 O 0.84919 0.88465 0.91136 0.0
Mn460 Mn 0.87159 0.91463 0.88899 0.0
O461 O 0.82587 0.85918 0.8809 0.0
Mn462 Mn 0.83007 0.8831 0.85284 0.0
O463 O 0.89528 0.94445 0.8669 0.0
O464 O 0.90204 0.91136 0.9161 0.0
Mn465 Mn 0.91868 0.94325 0.92282 0.0
O466 O 0.85427 0.94528 0.91254 0.0
O467 O 0.93403 0.95483 0.89082 0.0
O468 O 0.89009 0.88504 0.8645 0.0
O469 O 0.8597 0.87573 0.83085 0.0
O470 O 0.93569 0.91919 0.94446 0.0
O471 O 0.89044 0.9637 0.93676 0.0
C472 C 0.81608 0.92436 0.8569 0.0
C473 C 0.83427 0.8633 0.90463 0.0
C474 C 0.91984 0.95612 0.86955 0.0
C475 C 0.91732 0.90171 0.93456 0.0
C476 C 0.86472 0.96225 0.93016 0.0
C477 C 0.88405 0.8755 0.84088 0.0
O478 O 0.84127 0.91737 0.86113 0.0
O479 O 0.79999 0.90399 0.8489 0.0
O480 O 0.91279 0.1949 0.66035 0.0
Mn481 Mn 0.88537 0.17537 0.63087 0.0
O482 O 0.89601 0.2345 0.6704 0.0
Mn483 Mn 0.8626 0.21574 0.66608 0.0
O484 O 0.86065 0.15266 0.60275 0.0
O485 O 0.9123 0.14466 0.62966 0.0
Mn486 Mn 0.92396 0.14484 0.59579 0.0
O487 O 0.90477 0.19765 0.5985 0.0
O488 O 0.89301 0.13501 0.57528 0.0
O489 O 0.86126 0.15441 0.66031 0.0
O490 O 0.85578 0.18773 0.69002 0.0
O491 O 0.94245 0.11778 0.61007 0.0
O492 O 0.94329 0.17731 0.58908 0.0
C493 C 0.83905 0.22445 0.6334 0.0
C494 C 0.91537 0.21846 0.67223 0.0
C495 C 0.86767 0.1378 0.58239 0.0
C496 C 0.92879 0.12458 0.63156 0.0
C497 C 0.92766 0.19658 0.58498 0.0
C498 C 0.84983 0.16366 0.68175 0.0
O499 O 0.85705 0.20531 0.6319 0.0
O500 O 0.83448 0.23563 0.65672 0.0
O501 O 0.64872 0.17547 0.4019 0.0
Mn502 Mn 0.62163 0.14625 0.38198 0.0
O503 O 0.67929 0.19072 0.37085 0.0
Mn504 Mn 0.65874 0.17577 0.34348 0.0
O505 O 0.5917 0.11903 0.3628 0.0
O506 O 0.59625 0.14975 0.41451 0.0
Mn507 Mn 0.58363 0.11688 0.42413 0.0
O508 O 0.64169 0.11448 0.3999 0.0
O509 O 0.5631 0.10297 0.39594 0.0
O510 O 0.60018 0.17695 0.3633 0.0
O511 O 0.62962 0.19509 0.3326 0.0
O512 O 0.56843 0.14011 0.44853 0.0
O513 O 0.61421 0.09826 0.43364 0.0
C514 C 0.66642 0.13765 0.32918 0.0
C515 C 0.67037 0.19042 0.39484 0.0
C516 C 0.56913 0.10597 0.37116 0.0
C517 C 0.58328 0.15858 0.43563 0.0
C518 C 0.63684 0.09874 0.42003 0.0
C519 C 0.60576 0.1932 0.34373 0.0
O520 O 0.64907 0.14095 0.34964 0.0
O521 O 0.67752 0.15924 0.31765 0.0
O522 O 0.60342 0.87579 0.09849 0.0
Mn523 Mn 0.62391 0.89887 0.12849 0.0
O524 O 0.56486 0.89675 0.08867 0.0
Mn525 Mn 0.58015 0.92963 0.10029 0.0
O526 O 0.64528 0.92182 0.15838 0.0
O527 O 0.65434 0.87279 0.124 0.0
Mn528 Mn 0.67363 0.8714 0.15332 0.0
O529 O 0.60694 0.87479 0.15858 0.0
O530 O 0.68819 0.90667 0.156 0.0
O531 O 0.64324 0.92424 0.09972 0.0
O532 O 0.60871 0.9454 0.07981 0.0
O533 O 0.68683 0.8451 0.13016 0.0
O534 O 0.64607 0.86218 0.1793 0.0
C535 C 0.57321 0.94111 0.14021 0.0
C536 C 0.58034 0.87681 0.08602 0.0
C537 C 0.6714 0.92437 0.1637 0.0
C538 C 0.66688 0.85203 0.11487 0.0
C539 C 0.6195 0.86416 0.1782 0.0
C540 C 0.63435 0.94093 0.0826 0.0
O541 O 0.59256 0.92484 0.13307 0.0
O542 O 0.55907 0.95105 0.12093 0.0
O543 O 0.41289 0.70125 0.15214 0.0
Mn544 Mn 0.38561 0.67672 0.12803 0.0
O545 O 0.38508 0.72335 0.17999 0.0
Mn546 Mn 0.35298 0.71756 0.16035 0.0
O547 O 0.35973 0.64935 0.10463 0.0
O548 O 0.41418 0.64961 0.13015 0.0
Mn549 Mn 0.42058 0.63163 0.10072 0.0
O550 O 0.40459 0.69248 0.09231 0.0
O551 O 0.38659 0.61367 0.09564 0.0
O552 O 0.3644 0.65955 0.1622 0.0
O553 O 0.33122 0.68892 0.17326 0.0
O554 O 0.44652 0.62137 0.12561 0.0
O555 O 0.42987 0.65831 0.07577 0.0
C556 C 0.35235 0.72869 0.11834 0.0
C557 C 0.40893 0.71584 0.1732 0.0
C558 C 0.36308 0.62467 0.09621 0.0
C559 C 0.43502 0.63913 0.1409 0.0
C560 C 0.42051 0.68209 0.07412 0.0
C561 C 0.34144 0.66552 0.17444 0.0
O562 O 0.35633 0.70455 0.1268 0.0
O563 O 0.34695 0.74551 0.13763 0.0
O564 O 0.14237 0.67374 0.90672 0.0
Mn565 Mn 0.12001 0.64529 0.88291 0.0
O566 O 0.16 0.70214 0.87601 0.0
Mn567 Mn 0.16075 0.67698 0.84835 0.0
O568 O 0.09553 0.61639 0.86013 0.0
O569 O 0.08935 0.64826 0.91047 0.0
Mn570 Mn 0.0733 0.61627 0.91811 0.0
O571 O 0.13615 0.61427 0.90438 0.0
O572 O 0.05807 0.60411 0.88619 0.0
O573 O 0.10255 0.67572 0.85943 0.0
O574 O 0.13282 0.68184 0.82481 0.0
O575 O 0.05688 0.64119 0.94049 0.0
O576 O 0.10176 0.59568 0.9308 0.0
C577 C 0.17835 0.6378 0.8531 0.0
C578 C 0.15353 0.69682 0.90007 0.0
C579 C 0.07136 0.60396 0.86389 0.0
C580 C 0.07489 0.65849 0.92976 0.0
C581 C 0.12689 0.59698 0.9219 0.0
C582 C 0.10847 0.68322 0.8351 0.0
O583 O 0.15175 0.64176 0.85516 0.0
O584 O 0.19325 0.65962 0.84715 0.0
O585 O 0.11347 0.37202 0.59876 0.0
Mn586 Mn 0.12578 0.39676 0.63125 0.0
O587 O 0.07015 0.38038 0.58857 0.0
Mn588 Mn 0.07719 0.41577 0.59995 0.0
O589 O 0.14175 0.42226 0.66237 0.0
O590 O 0.16136 0.37677 0.62893 0.0
Mn591 Mn 0.17286 0.36852 0.66088 0.0
O592 O 0.10858 0.36876 0.65892 0.0
O593 O 0.17951 0.40148 0.67733 0.0
O594 O 0.14173 0.42598 0.60425 0.0
O595 O 0.10393 0.43644 0.58061 0.0
O596 O 0.19664 0.35263 0.63684 0.0
O597 O 0.14432 0.34684 0.6759 0.0
C598 C 0.06714 0.42947 0.63878 0.0
C599 C 0.09154 0.36682 0.58497 0.0
C600 C 0.16388 0.42161 0.67674 0.0
C601 C 0.17915 0.36026 0.61918 0.0
C602 C 0.11836 0.35059 0.67396 0.0
C603 C 0.12999 0.43929 0.58579 0.0
O604 O 0.08933 0.41617 0.63344 0.0
O605 O 0.05072 0.43308 0.61881 0.0
O606 O 0.64929 0.68324 0.60896 0.0
Mn607 Mn 0.6275 0.65615 0.63507 0.0
O608 O 0.68325 0.70504 0.63328 0.0
Mn609 Mn 0.67359 0.69046 0.66627 0.0
O610 O 0.60449 0.63023 0.66213 0.0
O611 O 0.59606 0.65458 0.60753 0.0
Mn612 Mn 0.5836 0.61989 0.60608 0.0
O613 O 0.64567 0.62362 0.6165 0.0
O614 O 0.569 0.61021 0.63885 0.0
O615 O 0.60971 0.68796 0.6569 0.0
O616 O 0.64401 0.70467 0.68433 0.0
O617 O 0.56229 0.63698 0.58243 0.0
O618 O 0.61253 0.59952 0.59362 0.0
C619 C 0.68131 0.64821 0.67252 0.0
C620 C 0.67052 0.70023 0.6113 0.0
C621 C 0.58155 0.61531 0.66073 0.0
C622 C 0.57852 0.65817 0.58819 0.0
C623 C 0.63764 0.60372 0.60125 0.0
C624 C 0.61834 0.70137 0.67796 0.0
O625 O 0.66046 0.65699 0.65968 0.0
O626 O 0.69744 0.66749 0.6827 0.0
O627 O 0.35482 0.38256 0.41349 0.0
Mn628 Mn 0.37171 0.41502 0.39021 0.0
O629 O 0.31513 0.36694 0.39509 0.0
Mn630 Mn 0.32713 0.37949 0.36209 0.0
O631 O 0.39171 0.44576 0.3663 0.0
O632 O 0.40341 0.41637 0.41584 0.0
Mn633 Mn 0.41784 0.44948 0.42134 0.0
O634 O 0.35271 0.44415 0.4136 0.0
O635 O 0.43172 0.45805 0.38787 0.0
O636 O 0.39114 0.38691 0.36576 0.0
O637 O 0.35636 0.36214 0.34557 0.0
O638 O 0.43535 0.42681 0.4447 0.0
O639 O 0.38793 0.46971 0.43268 0.0
C640 C 0.31852 0.41849 0.34848 0.0
C641 C 0.33289 0.36641 0.41359 0.0
C642 C 0.41658 0.45725 0.36704 0.0
C643 C 0.41843 0.40797 0.4349 0.0
C644 C 0.36201 0.46478 0.42764 0.0
C645 C 0.38229 0.36833 0.34905 0.0
O646 O 0.33851 0.41429 0.3651 0.0
O647 O 0.30336 0.39708 0.3412 0.0
H648 H 0.04592 0.23278 0.31597 0.0
H649 H 0.02941 0.31153 0.28308 0.0
H650 H 0.04491 0.29609 0.2382 0.0
H651 H 0.10901 0.22635 0.28046 0.0
H652 H 0.10471 0.19 0.27525 0.0
H653 H 0.08844 0.20565 0.30384 0.0
H654 H 0.04025 0.18427 0.28913 0.0
H655 H 0.05646 0.16873 0.26033 0.0
H656 H 0.02786 0.1905 0.25582 0.0
H657 H 0.06533 0.27356 0.19775 0.0
H658 H 0.09338 0.24663 0.16578 0.0
H659 H 0.09874 0.18379 0.22542 0.0
C660 C 0.04528 0.24652 0.29916 0.0
C661 C 0.03662 0.27327 0.30274 0.0
C662 C 0.03635 0.29101 0.28059 0.0
C663 C 0.04479 0.28234 0.25502 0.0
C664 C 0.05367 0.25596 0.25207 0.0
C665 C 0.05425 0.23835 0.27356 0.0
C666 C 0.06771 0.21224 0.2656 0.0
C667 C 0.09402 0.20835 0.28227 0.0
C668 C 0.04681 0.18748 0.26786 0.0
C669 C 0.07505 0.21823 0.23655 0.0
C670 C 0.06626 0.24327 0.22891 0.0
C671 C 0.07201 0.25375 0.20335 0.0
C672 C 0.08778 0.23841 0.18533 0.0
C673 C 0.09764 0.21327 0.19335 0.0
C674 C 0.09086 0.20288 0.21896 0.0
H675 H 0.06475 0.83936 0.58426 0.0
H676 H 0.00413 0.7748 0.56194 0.0
H677 H 0.01746 0.78013 0.51416 0.0
H678 H 0.05218 0.88195 0.53144 0.0
H679 H 0.08798 0.89419 0.52636 0.0
H680 H 0.07642 0.88243 0.55887 0.0
H681 H 0.11567 0.84799 0.55852 0.0
H682 H 0.12709 0.85958 0.52574 0.0
H683 H 0.11806 0.82395 0.53102 0.0
H684 H 0.0325 0.79669 0.46885 0.0
H685 H 0.04706 0.82488 0.42948 0.0
H686 H 0.09924 0.87716 0.48098 0.0
C687 C 0.05474 0.8262 0.56921 0.0
C688 C 0.03356 0.80667 0.57636 0.0
C689 C 0.02051 0.78979 0.55647 0.0
C690 C 0.02808 0.79255 0.52941 0.0
C691 C 0.049 0.8121 0.52271 0.0
C692 C 0.06223 0.82861 0.54202 0.0
C693 C 0.08213 0.84969 0.52923 0.0
C694 C 0.07418 0.87877 0.53692 0.0
C695 C 0.11254 0.845 0.53658 0.0
C696 C 0.07694 0.84331 0.49984 0.0
C697 C 0.05818 0.82123 0.49641 0.0
C698 C 0.04784 0.81352 0.47113 0.0
C699 C 0.05623 0.82943 0.44891 0.0
C700 C 0.07467 0.8525 0.45246 0.0
C701 C 0.08577 0.85896 0.47793 0.0
H702 H 0.45124 0.81608 0.79534 0.0
H703 H 0.48457 0.89675 0.81778 0.0
H704 H 0.471 0.91402 0.77322 0.0
H705 H 0.47411 0.8194 0.72438 0.0
H706 H 0.44337 0.79984 0.71333 0.0
H707 H 0.45743 0.79415 0.74607 0.0
H708 H 0.40952 0.80329 0.76846 0.0
H709 H 0.3953 0.80817 0.73581 0.0
H710 H 0.39309 0.83448 0.7612 0.0
H711 H 0.44465 0.92304 0.73032 0.0
H712 H 0.41071 0.92244 0.69339 0.0
H713 H 0.40348 0.83452 0.69537 0.0
C714 C 0.45564 0.83743 0.7909 0.0
C715 C 0.46814 0.85537 0.81005 0.0
C716 C 0.47445 0.88292 0.80337 0.0
C717 C 0.46709 0.89274 0.7781 0.0
C718 C 0.4546 0.87438 0.75959 0.0
C719 C 0.44944 0.84719 0.76566 0.0
C720 C 0.43491 0.8316 0.74309 0.0
C721 C 0.45358 0.80998 0.731 0.0
C722 C 0.40654 0.81866 0.75271 0.0
C723 C 0.43128 0.85452 0.7237 0.0
C724 C 0.44273 0.87913 0.73347 0.0
C725 C 0.43689 0.90381 0.7217 0.0
C726 C 0.418 0.90334 0.7003 0.0
C727 C 0.40597 0.87836 0.69045 0.0
C728 C 0.41373 0.85374 0.70158 0.0
H729 H 0.42049 0.25198 0.07153 0.0
H730 H 0.50725 0.23085 0.07335 0.0
H731 H 0.50656 0.22147 0.02496 0.0
H732 H 0.39855 0.1982 0.02827 0.0
H733 H 0.37387 0.21712 0.01006 0.0
H734 H 0.38242 0.22672 0.04404 0.0
H735 H 0.39593 0.27555 0.02783 0.0
H736 H 0.38876 0.26585 0.99345 0.0
H737 H 0.42261 0.28075 0.00227 0.0
H738 H 0.49686 0.2107 0.97857 0.0
H739 H 0.47558 0.18895 0.93847 0.0
H740 H 0.39422 0.21388 0.9647 0.0
C741 C 0.43923 0.24545 0.06155 0.0
C742 C 0.46386 0.242 0.07612 0.0
C743 C 0.48801 0.23323 0.06262 0.0
C744 C 0.48803 0.22836 0.03501 0.0
C745 C 0.46363 0.23204 0.02106 0.0
C746 C 0.4394 0.23968 0.03381 0.0
C747 C 0.41513 0.23819 0.01443 0.0
C748 C 0.39109 0.21889 0.02482 0.0
C749 C 0.40501 0.26678 0.00919 0.0
C750 C 0.42924 0.22673 0.98953 0.0
C751 C 0.45755 0.22471 0.99359 0.0
C752 C 0.47485 0.21254 0.97484 0.0
C753 C 0.46265 0.20037 0.95208 0.0
C754 C 0.43348 0.20028 0.94844 0.0
C755 C 0.41671 0.21468 0.96666 0.0
H756 H 0.04467 0.85114 0.18389 0.0
H757 H 0.0236 0.76678 0.20406 0.0
H758 H 0.02996 0.77762 0.25195 0.0
H759 H 0.10074 0.85818 0.23044 0.0
H760 H 0.09521 0.89334 0.23864 0.0
H761 H 0.08515 0.87964 0.20632 0.0
H762 H 0.03524 0.89538 0.21512 0.0
H763 H 0.04458 0.90795 0.24817 0.0
H764 H 0.01572 0.88315 0.2441 0.0
H765 H 0.04076 0.79615 0.29713 0.0
H766 H 0.0649 0.8191 0.33549 0.0
H767 H 0.0825 0.8907 0.28706 0.0
C768 C 0.04136 0.8351 0.19849 0.0
C769 C 0.03352 0.80818 0.19032 0.0
C770 C 0.02981 0.78754 0.20987 0.0
C771 C 0.03296 0.79355 0.2372 0.0
C772 C 0.04045 0.82024 0.24477 0.0
C773 C 0.04543 0.84056 0.22601 0.0
C774 C 0.05706 0.86658 0.2394 0.0
C775 C 0.08627 0.87491 0.22803 0.0
C776 C 0.03694 0.88964 0.23653 0.0
C777 C 0.05844 0.85741 0.26837 0.0
C778 C 0.04785 0.83085 0.27111 0.0
C779 C 0.04876 0.81709 0.29542 0.0
C780 C 0.06225 0.8303 0.31716 0.0
C781 C 0.07482 0.85674 0.31422 0.0
C782 C 0.07213 0.87078 0.28989 0.0
H783 H 0.49889 0.8479 0.45804 0.0
H784 H 0.43393 0.78354 0.44936 0.0
H785 H 0.41484 0.79552 0.49427 0.0
H786 H 0.50978 0.83805 0.52943 0.0
H787 H 0.51628 0.87396 0.5361 0.0
H788 H 0.52519 0.8598 0.50373 0.0
H789 H 0.49467 0.89406 0.4799 0.0
H790 H 0.48667 0.90886 0.51206 0.0
H791 H 0.45874 0.89663 0.49039 0.0
H792 H 0.40156 0.81665 0.53908 0.0
H793 H 0.39203 0.84867 0.57646 0.0
H794 H 0.46774 0.89661 0.55632 0.0
C795 C 0.48047 0.83647 0.46543 0.0
C796 C 0.46763 0.81501 0.45021 0.0
C797 C 0.44389 0.80021 0.46075 0.0
C798 C 0.43315 0.80666 0.4863 0.0
C799 C 0.44684 0.8275 0.50115 0.0
C800 C 0.46992 0.84223 0.49097 0.0
C801 C 0.48036 0.86428 0.51029 0.0
C802 C 0.50964 0.85867 0.52049 0.0
C803 C 0.48005 0.89262 0.4974 0.0
C804 C 0.45864 0.86067 0.5324 0.0
C805 C 0.43981 0.83897 0.52716 0.0
C806 C 0.41644 0.83338 0.54364 0.0
C807 C 0.41133 0.85146 0.56501 0.0
C808 C 0.42933 0.87484 0.56922 0.0
C809 C 0.45398 0.87857 0.55368 0.0
H810 H 0.44286 0.27397 0.70383 0.0
H811 H 0.45912 0.19565 0.66741 0.0
H812 H 0.4503 0.17346 0.7114 0.0
H813 H 0.47755 0.26261 0.76477 0.0
H814 H 0.45365 0.28171 0.78467 0.0
H815 H 0.45963 0.28996 0.7498 0.0
H816 H 0.4057 0.28254 0.74204 0.0
H817 H 0.4007 0.27403 0.77688 0.0
H818 H 0.38839 0.25039 0.75113 0.0
H819 H 0.44111 0.16045 0.76038 0.0
H820 H 0.42615 0.15727 0.80796 0.0
H821 H 0.42148 0.24502 0.81209 0.0
C822 C 0.44388 0.25204 0.70488 0.0
C823 C 0.45151 0.23645 0.68222 0.0
C824 C 0.45316 0.2079 0.68457 0.0
C825 C 0.4484 0.19519 0.70947 0.0
C826 C 0.44232 0.21143 0.73174 0.0
C827 C 0.43967 0.23919 0.72952 0.0
C828 C 0.43385 0.25235 0.75645 0.0
C829 C 0.45757 0.27298 0.76436 0.0
C830 C 0.40547 0.26559 0.75663 0.0
C831 C 0.43352 0.2277 0.77422 0.0
C832 C 0.43849 0.20424 0.75976 0.0
C833 C 0.43764 0.17878 0.77195 0.0
C834 C 0.42991 0.1772 0.79924 0.0
C835 C 0.42355 0.20098 0.81394 0.0
C836 C 0.42689 0.22659 0.8015 0.0
H837 H 0.07344 0.22635 0.94307 0.0
H838 H 0.05266 0.30284 0.98037 0.0
H839 H 0.06815 0.28652 0.02435 0.0
H840 H 0.05032 0.18372 0.99281 0.0
H841 H 0.0782 0.16061 0.9899 0.0
H842 H 0.06905 0.18014 0.96142 0.0
H843 H 0.12036 0.19972 0.95754 0.0
H844 H 0.12954 0.18035 0.98635 0.0
H845 H 0.13651 0.21677 0.9861 0.0
H846 H 0.07836 0.25802 0.06569 0.0
H847 H 0.08217 0.22069 0.09857 0.0
H848 H 0.10058 0.16528 0.03335 0.0
C849 C 0.07277 0.23983 0.96041 0.0
C850 C 0.06192 0.26577 0.95839 0.0
C851 C 0.0612 0.28292 0.98148 0.0
C852 C 0.06999 0.27384 0.00655 0.0
C853 C 0.08025 0.24786 0.00802 0.0
C854 C 0.08219 0.23138 0.98536 0.0
C855 C 0.09239 0.20381 0.99231 0.0
C856 C 0.07122 0.18073 0.98362 0.0
C857 C 0.12143 0.19994 0.97983 0.0
C858 C 0.094 0.20656 0.02257 0.0
C859 C 0.08736 0.23219 0.03145 0.0
C860 C 0.08433 0.23812 0.05892 0.0
C861 C 0.08682 0.21695 0.07754 0.0
C862 C 0.0923 0.1904 0.06843 0.0
C863 C 0.09719 0.18567 0.04081 0.0
H864 H 0.30076 0.04827 0.17448 0.0
H865 H 0.28796 0.04814 0.26089 0.0
H866 H 0.24001 0.06227 0.25518 0.0
H867 H 0.26921 0.10832 0.16326 0.0
H868 H 0.25293 0.09822 0.13195 0.0
H869 H 0.28376 0.08226 0.14235 0.0
H870 H 0.25718 0.03467 0.13853 0.0
H871 H 0.22672 0.05137 0.12785 0.0
H872 H 0.22439 0.0289 0.15624 0.0
H873 H 0.19551 0.07993 0.24149 0.0
H874 H 0.16366 0.11204 0.22264 0.0
H875 H 0.20525 0.10602 0.14536 0.0
C876 C 0.28764 0.05095 0.19207 0.0
C877 C 0.29816 0.04716 0.21814 0.0
C878 C 0.28052 0.05117 0.24074 0.0
C879 C 0.253 0.05871 0.23768 0.0
C880 C 0.24316 0.06238 0.21184 0.0
C881 C 0.26007 0.05924 0.18939 0.0
C882 C 0.24568 0.0688 0.16439 0.0
C883 C 0.26397 0.09072 0.14965 0.0
C884 C 0.23803 0.04448 0.14566 0.0
C885 C 0.21942 0.08022 0.17675 0.0
C886 C 0.2176 0.07446 0.20386 0.0
C887 C 0.19645 0.08422 0.22021 0.0
C888 C 0.17809 0.10219 0.20921 0.0
C889 C 0.18157 0.11107 0.18243 0.0
C890 C 0.20143 0.09871 0.16558 0.0
H891 H 0.21594 0.07725 0.44238 0.0
H892 H 0.18276 0.07837 0.52395 0.0
H893 H 0.17073 0.02925 0.52073 0.0
H894 H 0.1624 0.03344 0.41561 0.0
H895 H 0.18484 0.01539 0.39302 0.0
H896 H 0.19452 0.0498 0.40314 0.0
H897 H 0.24175 0.03322 0.4193 0.0
H898 H 0.23145 -0.00163 0.41065 0.0
H899 H 0.24209 0.0071 0.44438 0.0
H900 H 0.16022 0.98142 0.50916 0.0
H901 H 0.13959 0.94088 0.4859 0.0
H902 H 0.17584 0.96947 0.4106 0.0
C903 C 0.20611 0.06707 0.45949 0.0
C904 C 0.20033 0.0817 0.48345 0.0
C905 C 0.18728 0.06773 0.50534 0.0
C906 C 0.18081 0.03966 0.5039 0.0
C907 C 0.18728 0.0257 0.48034 0.0
C908 C 0.19892 0.03893 0.45821 0.0
C909 C 0.20023 0.01947 0.43426 0.0
C910 C 0.18453 0.03016 0.4101 0.0
C911 C 0.2307 0.01425 0.4267 0.0
C912 C 0.18556 0.99398 0.44597 0.0
C913 C 0.17981 -0.00228 0.47302 0.0
C914 C 0.16484 0.97807 0.48808 0.0
C915 C 0.15345 0.95493 0.47477 0.0
C916 C 0.15654 0.95195 0.44663 0.0
C917 C 0.17409 0.97088 0.43228 0.0
H918 H 0.17464 0.97948 0.70484 0.0
H919 H 0.20039 0.0628 0.68447 0.0
H920 H 0.24623 0.04758 0.66869 0.0
H921 H 0.23762 0.96349 0.73178 0.0
H922 H 0.23634 0.9287 0.71975 0.0
H923 H 0.20441 0.94545 0.72611 0.0
H924 H 0.18826 0.93552 0.6772 0.0
H925 H 0.21972 0.91792 0.67094 0.0
H926 H 0.21109 0.94552 0.64956 0.0
H927 H 0.29183 0.02362 0.66192 0.0
H928 H 0.33004 0.99155 0.65775 0.0
H929 H 0.27197 0.92488 0.68028 0.0
C930 C 0.1896 0.99444 0.69638 0.0
C931 C 0.18411 0.02222 0.69587 0.0
C932 C 0.20428 0.0413 0.68493 0.0
C933 C 0.23038 0.03291 0.67607 0.0
C934 C 0.23567 0.00543 0.67818 0.0
C935 C 0.21558 0.98646 0.68756 0.0
C936 C 0.22664 0.95846 0.68923 0.0
C937 C 0.22622 0.94845 0.71845 0.0
C938 C 0.21048 0.93817 0.67061 0.0
C939 C 0.25609 0.96453 0.67929 0.0
C940 C 0.2612 0.99172 0.6733 0.0
C941 C 0.28774 0.00209 0.66558 0.0
C942 C 0.3092 0.98382 0.66288 0.0
C943 C 0.30366 0.95566 0.66718 0.0
C944 C 0.27692 0.94622 0.67624 0.0
H945 H 0.28777 0.9763 0.94015 0.0
H946 H 0.27179 -0.00359 0.02376 0.0
H947 H 0.2806 0.04528 0.01417 0.0
H948 H 0.34546 0.02214 0.93346 0.0
H949 H 0.33887 0.0308 0.89912 0.0
H950 H 0.32646 -0.00177 0.9118 0.0
H951 H 0.2762 0.00834 0.89755 0.0
H952 H 0.28865 0.04126 0.8854 0.0
H953 H 0.26069 0.03877 0.90993 0.0
H954 H 0.2976 0.09079 -0.00258 0.0
H955 H 0.32632 0.12802 0.97577 0.0
H956 H 0.33097 0.0794 0.90302 0.0
C957 C 0.28585 0.99112 0.95627 0.0
C958 C 0.27939 0.98271 0.9827 0.0
C959 C 0.27726 0.0025 0.00344 0.0
C960 C 0.28178 0.03033 -0.0019 0.0
C961 C 0.28856 0.03809 0.97192 0.0
C962 C 0.29087 0.01905 0.95136 0.0
C963 C 0.30223 0.03239 0.92594 0.0
C964 C 0.32989 0.02018 0.91708 0.0
C965 C 0.28063 0.03004 0.90338 0.0
C966 C 0.30679 0.06166 0.93567 0.0
C967 C 0.29818 0.06469 0.96209 0.0
C968 C 0.30368 0.08897 0.97649 0.0
C969 C 0.31971 0.11016 0.96403 0.0
C970 C 0.32979 0.10682 0.93751 0.0
C971 C 0.32222 0.08281 0.92288 0.0
H972 H 0.3021 0.97857 0.31423 0.0
H973 H 0.28291 0.95386 0.23219 0.0
H974 H 0.23267 0.95181 0.24346 0.0
H975 H 0.25006 0.93342 0.3447 0.0
H976 H 0.243 0.95712 0.37157 0.0
H977 H 0.27686 0.95813 0.35565 0.0
H978 H 0.27118 0.00936 0.34631 0.0
H979 H 0.23624 0.00782 0.36031 0.0
H980 H 0.24235 0.01933 0.32641 0.0
H981 H 0.18504 0.95255 0.26294 0.0
H982 H 0.14525 0.93927 0.29252 0.0
H983 H 0.19453 0.96217 0.36213 0.0
C984 C 0.28731 0.97243 0.29874 0.0
C985 C 0.29635 0.96664 0.27229 0.0
C986 C 0.27644 0.9584 0.25261 0.0
C987 C 0.24783 0.95773 0.25866 0.0
C988 C 0.23951 0.96517 0.2845 0.0
C989 C 0.25864 0.9713 0.30451 0.0
C990 C 0.24423 0.97518 0.33141 0.0
C991 C 0.25409 0.95473 0.35203 0.0
C992 C 0.24879 0.00468 0.34171 0.0
C993 C 0.21406 0.96913 0.32355 0.0
C994 C 0.21175 0.96468 0.29615 0.0
C995 C 0.18647 0.95625 0.28437 0.0
C996 C 0.16372 0.94935 0.30129 0.0
C997 C 0.16705 0.94982 0.32946 0.0
C998 C 0.19142 0.96241 0.34062 0.0
H999 H 0.27176 0.06811 0.52129 0.0
H1000 H 0.29015 0.12116 0.58964 0.0
H1001 H 0.30978 0.08251 0.61345 0.0
H1002 H 0.25423 0.00487 0.563 0.0
H1003 H 0.26874 0.98327 0.53748 0.0
H1004 H 0.2522 0.01381 0.5281 0.0
H1005 H 0.29711 0.03056 0.50236 0.0
H1006 H 0.31358 0.00012 0.51142 0.0
H1007 H 0.32998 0.03301 0.51973 0.0
H1008 H 0.33573 0.04142 0.62494 0.0
H1009 H 0.36498 0.00158 0.62372 0.0
H1010 H 0.32647 0.97379 0.5497 0.0
C1011 C 0.27962 0.07142 0.54145 0.0
C1012 C 0.27999 0.09752 0.55361 0.0
C1013 C 0.2899 0.10123 0.58007 0.0
C1014 C 0.30084 0.07937 0.59373 0.0
C1015 C 0.30067 0.05386 0.58093 0.0
C1016 C 0.28981 0.04972 0.55554 0.0
C1017 C 0.29384 0.02103 0.54531 0.0
C1018 C 0.26557 0.00479 0.54336 0.0
C1019 C 0.30959 0.02122 0.51812 0.0
C1020 C 0.3112 0.01042 0.56771 0.0
C1021 C 0.31417 0.02938 0.58848 0.0
C1022 C 0.33252 0.02591 0.60949 0.0
C1023 C 0.34882 0.00305 0.60885 0.0
C1024 C 0.34652 0.98382 0.5876 0.0
C1025 C 0.32711 0.98728 0.56708 0.0
H1026 H 0.19118 0.11324 0.77651 0.0
H1027 H 0.19005 0.03207 0.80997 0.0
H1028 H 0.23801 0.04159 0.82693 0.0
H1029 H 0.25999 0.11549 0.75246 0.0
H1030 H 0.26715 0.151 0.76069 0.0
H1031 H 0.232 0.1386 0.75345 0.0
H1032 H 0.21453 0.15694 0.79947 0.0
H1033 H 0.24947 0.17016 0.80643 0.0
H1034 H 0.23151 0.14737 0.82977 0.0
H1035 H 0.28683 0.06122 0.84046 0.0
H1036 H 0.32955 0.09005 0.85126 0.0
H1037 H 0.29864 0.15458 0.80267 0.0
C1038 C 0.20075 0.09761 0.78784 0.0
C1039 C 0.18692 0.07205 0.79213 0.0
C1040 C 0.2003 0.05197 0.80673 0.0
C1041 C 0.22757 0.05709 0.81624 0.0
C1042 C 0.24107 0.08226 0.81072 0.0
C1043 C 0.22791 0.10218 0.797 0.0
C1044 C 0.24674 0.12735 0.79311 0.0
C1045 C 0.25176 0.13344 0.76314 0.0
C1046 C 0.23487 0.15189 0.80809 0.0
C1047 C 0.27278 0.11834 0.80625 0.0
C1048 C 0.26922 0.09255 0.81681 0.0
C1049 C 0.28994 0.0814 0.83212 0.0
C1050 C 0.31424 0.09773 0.83789 0.0
C1051 C 0.31758 0.12457 0.82783 0.0
C1052 C 0.29711 0.13413 0.81065 0.0
H1053 H 0.1925 0.98103 0.0152 0.0
H1054 H 0.20273 0.9415 0.09162 0.0
H1055 H 0.1877 0.98291 0.11545 0.0
H1056 H 0.22026 0.04677 0.03866 0.0
H1057 H 0.19754 0.06543 0.01797 0.0
H1058 H 0.20838 0.03247 0.00706 0.0
H1059 H 0.15655 0.01497 0.00236 0.0
H1060 H 0.14562 0.04798 0.01269 0.0
H1061 H 0.1329 0.01802 0.03059 0.0
H1062 H 0.17217 0.02816 0.13039 0.0
H1063 H 0.15234 0.07327 0.13584 0.0
H1064 H 0.15291 0.08304 0.04944 0.0
C1065 C 0.19077 0.98083 0.03692 0.0
C1066 C 0.19799 0.95811 0.05174 0.0
C1067 C 0.19671 0.95877 0.08011 0.0
C1068 C 0.18857 0.98219 0.09372 0.0
C1069 C 0.18245 0.00463 0.07847 0.0
C1070 C 0.18335 0.00412 0.05073 0.0
C1071 C 0.17643 0.0311 0.03906 0.0
C1072 C 0.20218 0.04474 0.02485 0.0
C1073 C 0.15137 0.02781 0.02008 0.0
C1074 C 0.16941 0.04629 0.06456 0.0
C1075 C 0.17399 0.03097 0.08709 0.0
C1076 C 0.16873 0.04046 0.11298 0.0
C1077 C 0.15775 0.06606 0.11587 0.0
C1078 C 0.1517 0.08132 0.09299 0.0
C1079 C 0.15786 0.07163 0.06708 0.0
H1080 H 0.19812 0.32495 0.018 0.0
H1081 H 0.21388 0.37363 0.09023 0.0
H1082 H 0.19798 0.33468 0.11785 0.0
H1083 H 0.13512 0.28248 0.04724 0.0
H1084 H 0.14544 0.25253 0.02919 0.0
H1085 H 0.15237 0.2858 0.01496 0.0
H1086 H 0.20463 0.27505 0.01033 0.0
H1087 H 0.19759 0.2423 0.02547 0.0
H1088 H 0.22346 0.26605 0.03978 0.0
H1089 H 0.1889 0.29114 0.1374 0.0
H1090 H 0.1829 0.24358 0.14996 0.0
H1091 H 0.17117 0.21968 0.06623 0.0
C1092 C 0.19722 0.32759 0.03962 0.0
C1093 C 0.2071 0.35232 0.05208 0.0
C1094 C 0.20628 0.35496 0.08034 0.0
C1095 C 0.1972 0.33296 0.09618 0.0
C1096 C 0.18866 0.3086 0.08343 0.0
C1097 C 0.18801 0.30568 0.05586 0.0
C1098 C 0.18012 0.27625 0.04778 0.0
C1099 C 0.15155 0.27417 0.03399 0.0
C1100 C 0.20282 0.26421 0.02979 0.0
C1101 C 0.17846 0.2629 0.07519 0.0
C1102 C 0.18304 0.28237 0.09522 0.0
C1103 C 0.18479 0.27573 0.12203 0.0
C1104 C 0.18175 0.24846 0.12884 0.0
C1105 C 0.17712 0.22776 0.10901 0.0
C1106 C 0.17482 0.23506 0.08174 0.0
H1107 H 0.70598 0.21252 0.93809 0.0
H1108 H 0.6616 0.22297 0.01361 0.0
H1109 H 0.64688 0.26806 -0.0016 0.0
H1110 H 0.73647 0.27698 0.93767 0.0
H1111 H 0.73562 0.2804 0.90167 0.0
H1112 H 0.73727 0.24721 0.91617 0.0
H1113 H 0.69202 0.2297 0.89166 0.0
H1114 H 0.69114 0.26235 0.87585 0.0
H1115 H 0.66116 0.24897 0.89461 0.0
H1116 H 0.63619 0.31284 0.9709 0.0
H1117 H 0.6331 0.34921 0.9368 0.0
H1118 H 0.6971 0.31137 0.88918 0.0
C1119 C 0.69253 0.22379 0.95129 0.0
C1120 C 0.68461 0.21416 0.97677 0.0
C1121 C 0.66749 0.22993 0.99366 0.0
C1122 C 0.65926 0.25561 0.9853 0.0
C1123 C 0.66906 0.26521 0.96043 0.0
C1124 C 0.68552 0.24957 0.94398 0.0
C1125 C 0.69612 0.26456 0.91962 0.0
C1126 C 0.72827 0.26746 0.91877 0.0
C1127 C 0.68441 0.25058 0.89393 0.0
C1128 C 0.68353 0.29143 0.92481 0.0
C1129 C 0.66691 0.29152 0.94768 0.0
C1130 C 0.64961 0.31304 0.95325 0.0
C1131 C 0.64815 0.3338 0.93396 0.0
C1132 C 0.66461 0.33294 0.91015 0.0
C1133 C 0.68408 0.31273 0.90705 0.0
H1134 H 0.07717 0.51191 0.19549 0.0
H1135 H 0.04864 0.491 0.27608 0.0
H1136 H 0.00259 0.47514 0.25819 0.0
H1137 H 0.01386 0.53714 0.17361 0.0
H1138 H 0.01652 0.52376 0.13985 0.0
H1139 H 0.04771 0.53228 0.15865 0.0
H1140 H 0.06419 0.48324 0.15175 0.0
H1141 H 0.03344 0.4748 0.13232 0.0
H1142 H 0.04112 0.45457 0.16099 0.0
H1143 H 0.95757 0.46782 0.23184 0.0
H1144 H 0.92061 0.45988 0.19784 0.0
H1145 H 0.98077 0.48034 0.1347 0.0
C1146 C 0.06142 0.50354 0.20932 0.0
C1147 C 0.06641 0.50274 0.23715 0.0
C1148 C 0.04525 0.49172 0.25464 0.0
C1149 C 0.01897 0.48287 0.24471 0.0
C1150 C 0.01438 0.48493 0.21725 0.0
C1151 C 0.03525 0.49436 0.19973 0.0
C1152 C 0.02508 0.49444 0.17112 0.0
C1153 C 0.02584 0.52364 0.16017 0.0
C1154 C 0.04196 0.47563 0.15299 0.0
C1155 C -0.00466 0.48324 0.1752 0.0
C1156 C 0.98929 0.47854 0.20198 0.0
C1157 C 0.96244 0.47021 0.21069 0.0
C1158 C 0.94168 0.46523 0.1913 0.0
C1159 C 0.94815 0.46745 0.16361 0.0
C1160 C 0.97516 0.47758 0.15567 0.0
H1161 H 0.78691 0.82251 0.49827 0.0
H1162 H 0.82998 0.8813 0.44609 0.0
H1163 H 0.855 0.8441 0.42392 0.0
H1164 H 0.84294 0.7731 0.50262 0.0
H1165 H 0.81865 0.74388 0.50048 0.0
H1166 H 0.80789 0.77514 0.51582 0.0
H1167 H 0.76643 0.77638 0.48306 0.0
H1168 H 0.77655 0.74482 0.46826 0.0
H1169 H 0.77305 0.77414 0.44737 0.0
H1170 H 0.87535 0.80093 0.40783 0.0
H1171 H 0.87765 0.75516 0.3876 0.0
H1172 H 0.81533 0.72372 0.44453 0.0
C1173 C 0.80215 0.82748 0.48258 0.0
C1174 C 0.80743 0.85473 0.47437 0.0
C1175 C 0.82631 0.86056 0.45296 0.0
C1176 C 0.84074 0.83961 0.44051 0.0
C1177 C 0.83556 0.81292 0.44938 0.0
C1178 C 0.81597 0.80667 0.46928 0.0
C1179 C 0.81085 0.77601 0.4719 0.0
C1180 C 0.82066 0.76648 0.49934 0.0
C1181 C 0.77989 0.76734 0.46734 0.0
C1182 C 0.82963 0.76602 0.44945 0.0
C1183 C 0.84493 0.78766 0.43793 0.0
C1184 C 0.86356 0.78385 0.41672 0.0
C1185 C 0.86509 0.75763 0.40565 0.0
C1186 C 0.84707 0.73583 0.41483 0.0
C1187 C 0.83001 0.7398 0.43776 0.0
H1188 H 0.95771 0.02129 0.21901 0.0
H1189 H 0.9251 0.09564 0.2516 0.0
H1190 H 0.96832 0.12141 0.23756 0.0
H1191 H 0.0317 0.03965 0.2378 0.0
H1192 H 0.04569 0.02394 0.20801 0.0
H1193 H 0.01334 0.01045 0.22276 0.0
H1194 H 0.98813 0.01561 0.17753 0.0
H1195 H 0.02046 0.02849 0.1626 0.0
H1196 H 0.98989 0.04827 0.16124 0.0
H1197 H 0.01369 0.13959 0.21879 0.0
H1198 H 0.05473 0.15031 0.18954 0.0
H1199 H 0.05773 0.06499 0.16742 0.0
C1200 C 0.95971 0.04301 0.22307 0.0
C1201 C 0.93805 0.05657 0.23627 0.0
C1202 C 0.94148 0.0849 0.24155 0.0
C1203 C 0.96605 0.09966 0.23389 0.0
C1204 C 0.98724 0.0857 0.22136 0.0
C1205 C 0.98431 0.05806 0.21577 0.0
C1206 C 0.00974 0.04842 0.2007 0.0
C1207 C 0.02607 0.02949 0.21837 0.0
C1208 C 0.00155 0.0344 0.17392 0.0
C1209 C 0.02613 0.07539 0.19659 0.0
C1210 C 0.01342 0.09638 0.20989 0.0
C1211 C 0.02405 0.12332 0.20856 0.0
C1212 C 0.04751 0.1292 0.19214 0.0
C1213 C 0.05955 0.10836 0.17684 0.0
C1214 C 0.04924 0.08106 0.17961 0.0
H1215 H 0.30192 0.72087 0.56051 0.0
H1216 H 0.25575 0.75027 0.49351 0.0
H1217 H 0.27171 0.79772 0.50482 0.0
H1218 H 0.28918 0.7723 0.6061 0.0
H1219 H 0.32364 0.77449 0.62033 0.0
H1220 H 0.31034 0.74303 0.60536 0.0
H1221 H 0.35377 0.74292 0.5736 0.0
H1222 H 0.36708 0.77458 0.58846 0.0
H1223 H 0.36215 0.772 0.55268 0.0
H1224 H 0.28844 0.84285 0.52754 0.0
H1225 H 0.30565 0.87997 0.55881 0.0
H1226 H 0.34389 0.81985 0.60726 0.0
C1227 C 0.29566 0.73731 0.54802 0.0
C1228 C 0.27781 0.73209 0.52617 0.0
C1229 C 0.26981 0.75399 0.51019 0.0
C1230 C 0.27873 0.78098 0.51645 0.0
C1231 C 0.29629 0.78561 0.53828 0.0
C1232 C 0.30509 0.76427 0.55347 0.0
C1233 C 0.32335 0.77458 0.57626 0.0
C1234 C 0.31086 0.76558 0.60361 0.0
C1235 C 0.35336 0.76547 0.57251 0.0
C1236 C 0.32215 0.80494 0.57245 0.0
C1237 C 0.30674 0.8112 0.55037 0.0
C1238 C 0.30108 0.8382 0.54457 0.0
C1239 C 0.31094 0.85916 0.56226 0.0
C1240 C 0.32597 0.85264 0.58533 0.0
C1241 C 0.33235 0.82537 0.58974 0.0
H1242 H 0.04018 0.57179 0.2793 0.0
H1243 H 0.09593 0.62438 0.32705 0.0
H1244 H 0.05552 0.64973 0.34353 0.0
H1245 H 0.98703 0.62219 0.26458 0.0
H1246 H 0.958 0.59769 0.26907 0.0
H1247 H 0.99106 0.5868 0.25636 0.0
H1248 H 0.99413 0.55177 0.2944 0.0
H1249 H 0.96044 0.56112 0.3063 0.0
H1250 H 0.9897 0.56279 0.32881 0.0
H1251 H 0.00911 0.66699 0.35712 0.0
H1252 H 0.96183 0.66591 0.37727 0.0
H1253 H 0.93613 0.59874 0.32473 0.0
C1254 C 0.04379 0.58907 0.29278 0.0
C1255 C 0.07097 0.59668 0.30162 0.0
C1256 C 0.07515 0.61861 0.31995 0.0
C1257 C 0.05239 0.63327 0.32906 0.0
C1258 C 0.02568 0.62543 0.31983 0.0
C1259 C 0.02124 0.60333 0.30264 0.0
C1260 C 0.99034 0.59589 0.29953 0.0
C1261 C 0.98105 0.60094 0.27066 0.0
C1262 C 0.98325 0.56615 0.30778 0.0
C1263 C 0.97807 0.61614 0.31897 0.0
C1264 C -0.00131 0.63403 0.32924 0.0
C1265 C 0.99277 0.65335 0.34895 0.0
C1266 C 0.96569 0.6529 0.36002 0.0
C1267 C 0.94534 0.63257 0.35211 0.0
C1268 C 0.9511 0.61506 0.33033 0.0
H1269 H 0.43686 0.43909 0.80373 0.0
H1270 H 0.45542 0.5262 0.79968 0.0
H1271 H 0.5056 0.51916 0.80398 0.0
H1272 H 0.47807 0.42825 0.85582 0.0
H1273 H 0.48968 0.39556 0.8448 0.0
H1274 H 0.45722 0.40697 0.83311 0.0
H1275 H 0.47466 0.40108 0.78343 0.0
H1276 H 0.50648 0.38901 0.79652 0.0
H1277 H 0.50782 0.41706 0.77336 0.0
H1278 H 0.55082 0.50498 0.81625 0.0
H1279 H 0.58309 0.48777 0.84913 0.0
H1280 H 0.53679 0.40994 0.84903 0.0
C1281 C 0.45173 0.45649 0.80353 0.0
C1282 C 0.4426 0.48312 0.80174 0.0
C1283 C 0.46221 0.50564 0.80163 0.0
C1284 C 0.49077 0.50176 0.80329 0.0
C1285 C 0.49939 0.47523 0.80523 0.0
C1286 C 0.48037 0.45298 0.80605 0.0
C1287 C 0.49426 0.42754 0.81433 0.0
C1288 C 0.47892 0.41384 0.83847 0.0
C1289 C 0.49595 0.40752 0.79047 0.0
C1290 C 0.52301 0.43977 0.8215 0.0
C1291 C 0.52621 0.46681 0.81382 0.0
C1292 C 0.549 0.48372 0.82178 0.0
C1293 C 0.56739 0.47377 0.84034 0.0
C1294 C 0.56246 0.44746 0.85086 0.0
C1295 C 0.54135 0.42971 0.84012 0.0
H1296 H 0.94416 0.84654 0.69762 0.0
H1297 H 0.94267 0.76153 0.72061 0.0
H1298 H 0.93227 0.77457 0.76747 0.0
H1299 H 0.97485 0.87558 0.75784 0.0
H1300 H 0.95307 0.90436 0.75891 0.0
H1301 H 0.96169 0.88878 0.72713 0.0
H1302 H 0.90905 0.88071 0.71603 0.0
H1303 H 0.90052 0.89731 0.74722 0.0
H1304 H 0.88607 0.8634 0.74001 0.0
H1305 H 0.92211 0.79656 0.81168 0.0
H1306 H 0.9022 0.8249 0.84786 0.0
H1307 H 0.90916 0.89513 0.7961 0.0
C1308 C 0.94131 0.83069 0.71249 0.0
C1309 C 0.94421 0.8031 0.70555 0.0
C1310 C 0.94027 0.78283 0.72547 0.0
C1311 C 0.93484 0.79005 0.75223 0.0
C1312 C 0.93318 0.81756 0.75864 0.0
C1313 C 0.93551 0.8375 0.73924 0.0
C1314 C 0.93036 0.8653 0.75102 0.0
C1315 C 0.95656 0.88464 0.74857 0.0
C1316 C 0.90499 0.87738 0.7378 0.0
C1317 C 0.92431 0.85779 0.77998 0.0
C1318 C 0.9268 0.83026 0.78413 0.0
C1319 C 0.92039 0.8182 0.80883 0.0
C1320 C 0.90945 0.83442 0.82934 0.0
C1321 C 0.90491 0.8621 0.82468 0.0
C1322 C 0.9134 0.87415 0.8002 0.0
H1323 H 0.95394 0.29812 0.45989 0.0
H1324 H 0.95982 0.22421 0.41187 0.0
H1325 H 0.94463 0.19677 0.45081 0.0
H1326 H 0.98074 0.27366 0.51893 0.0
H1327 H 0.95747 0.28966 0.54224 0.0
H1328 H 0.96477 0.30477 0.51002 0.0
H1329 H 0.91219 0.30345 0.4995 0.0
H1330 H 0.90445 0.28865 0.53192 0.0
H1331 H 0.8917 0.27168 0.50184 0.0
H1332 H 0.93373 0.17689 0.49421 0.0
H1333 H 0.92827 0.16452 0.54143 0.0
H1334 H 0.9288 0.25007 0.56457 0.0
C1335 C 0.95119 0.27622 0.45747 0.0
C1336 C 0.95773 0.26332 0.43263 0.0
C1337 C 0.95471 0.23458 0.43048 0.0
C1338 C 0.94601 0.21878 0.45252 0.0
C1339 C 0.94021 0.23193 0.47673 0.0
C1340 C 0.94244 0.25995 0.47952 0.0
C1341 C 0.93651 0.26832 0.50862 0.0
C1342 C 0.96139 0.28509 0.52065 0.0
C1343 C 0.90962 0.28396 0.51058 0.0
C1344 C 0.93245 0.24057 0.52187 0.0
C1345 C 0.93403 0.22008 0.50269 0.0
C1346 C 0.93222 0.19272 0.50938 0.0
C1347 C 0.92926 0.18594 0.53639 0.0
C1348 C 0.92837 0.20629 0.55681 0.0
C1349 C 0.92934 0.2341 0.54943 0.0
H1350 H 0.56366 0.26123 0.21102 0.0
H1351 H 0.48763 0.20909 0.21407 0.0
H1352 H 0.49857 0.196 0.26031 0.0
H1353 H 0.6059 0.21638 0.24657 0.0
H1354 H 0.62553 0.24372 0.26343 0.0
H1355 H 0.61061 0.24936 0.23116 0.0
H1356 H 0.5852 0.29017 0.25164 0.0
H1357 H 0.59932 0.28391 0.28423 0.0
H1358 H 0.56206 0.28484 0.28016 0.0
H1359 H 0.51847 0.18722 0.30545 0.0
H1360 H 0.55008 0.17724 0.34245 0.0
H1361 H 0.61175 0.23681 0.31089 0.0
C1362 C 0.54942 0.24691 0.22134 0.0
C1363 C 0.52479 0.23617 0.20899 0.0
C1364 C 0.50668 0.21749 0.22315 0.0
C1365 C 0.51251 0.21021 0.24953 0.0
C1366 C 0.53646 0.22188 0.2615 0.0
C1367 C 0.55487 0.23947 0.2477 0.0
C1368 C 0.58011 0.24767 0.26445 0.0
C1369 C 0.60712 0.23873 0.25059 0.0
C1370 C 0.58175 0.27848 0.27047 0.0
C1371 C 0.57326 0.23145 0.28959 0.0
C1372 C 0.54778 0.21705 0.28771 0.0
C1373 C 0.53832 0.19863 0.30737 0.0
C1374 C 0.55625 0.19332 0.32854 0.0
C1375 C 0.58332 0.20624 0.32952 0.0
C1376 C 0.59103 0.22681 0.31079 0.0
H1377 H 0.55533 0.87397 0.93066 0.0
H1378 H 0.54738 0.78579 0.93441 0.0
H1379 H 0.56092 0.78764 0.98199 0.0
H1380 H 0.6171 0.88074 0.9774 0.0
H1381 H 0.60523 0.91195 0.99183 0.0
H1382 H 0.59827 0.90355 0.95712 0.0
H1383 H 0.54529 0.90844 0.96596 0.0
H1384 H 0.55209 0.91668 0.0006 0.0
H1385 H 0.52785 0.88865 0.99211 0.0
H1386 H 0.56976 0.79938 0.03064 0.0
H1387 H 0.57584 0.82112 0.07591 0.0
H1388 H 0.57984 0.90064 0.03883 0.0
C1389 C 0.55752 0.85514 0.94133 0.0
C1390 C 0.55102 0.82979 0.92899 0.0
C1391 C 0.55322 0.80539 0.94351 0.0
C1392 C 0.5607 0.8062 0.97053 0.0
C1393 C 0.56663 0.83153 0.98241 0.0
C1394 C 0.56578 0.85554 0.96812 0.0
C1395 C 0.572 0.88011 0.98588 0.0
C1396 C 0.5998 0.89496 0.97756 0.0
C1397 C 0.54785 0.89958 0.98615 0.0
C1398 C 0.57454 0.8662 0.0125 0.0
C1399 C 0.57188 0.83818 0.01024 0.0
C1400 C 0.57232 0.82132 0.03268 0.0
C1401 C 0.57562 0.83366 0.05817 0.0
C1402 C 0.57773 0.86232 0.06047 0.0
C1403 C 0.57772 0.87858 0.0374 0.0
H1404 H 0.95993 0.28807 0.81256 0.0
H1405 H 0.00454 0.21566 0.82879 0.0
H1406 H 0.99285 0.19756 0.78348 0.0
H1407 H 0.90358 0.25355 0.77506 0.0
H1408 H 0.90099 0.28119 0.7519 0.0
H1409 H 0.91288 0.28806 0.78558 0.0
H1410 H 0.95789 0.31255 0.76638 0.0
H1411 H 0.94641 0.30525 0.73261 0.0
H1412 H 0.97985 0.29456 0.74335 0.0
H1413 H 0.97842 0.18862 0.73506 0.0
H1414 H 0.95524 0.1858 0.69081 0.0
H1415 H 0.91891 0.26297 0.70683 0.0
C1416 C 0.96697 0.26825 0.80672 0.0
C1417 C 0.98316 0.25325 0.82433 0.0
C1418 C 0.99201 0.22746 0.81579 0.0
C1419 C 0.98566 0.21712 0.78996 0.0
C1420 C 0.97032 0.23273 0.77285 0.0
C1421 C 0.96064 0.25753 0.78107 0.0
C1422 C 0.94387 0.26992 0.75908 0.0
C1423 C 0.91353 0.27337 0.76847 0.0
C1424 C 0.95784 0.29718 0.74981 0.0
C1425 C 0.94548 0.24814 0.73726 0.0
C1426 C 0.96119 0.22709 0.74544 0.0
C1427 C 0.96566 0.20476 0.72865 0.0
C1428 C 0.95256 0.20325 0.70349 0.0
C1429 C 0.93487 0.22355 0.69528 0.0
C1430 C 0.93223 0.24683 0.71222 0.0
H1431 H 0.51179 0.2523 0.53349 0.0
H1432 H 0.57377 0.22958 0.59046 0.0
H1433 H 0.60284 0.21243 0.553 0.0
H1434 H 0.51288 0.1981 0.49028 0.0
H1435 H 0.51016 0.21737 0.45988 0.0
H1436 H 0.49691 0.23054 0.49098 0.0
H1437 H 0.52816 0.27487 0.4842 0.0
H1438 H 0.5419 0.26121 0.45324 0.0
H1439 H 0.56531 0.27274 0.47955 0.0
H1440 H 0.62274 0.19437 0.51015 0.0
H1441 H 0.62689 0.16844 0.46779 0.0
H1442 H 0.55214 0.20293 0.4386 0.0
C1443 C 0.53158 0.2438 0.53796 0.0
C1444 C 0.54067 0.24206 0.56468 0.0
C1445 C 0.56668 0.23114 0.56999 0.0
C1446 C 0.58339 0.22167 0.54885 0.0
C1447 C 0.57414 0.22418 0.52255 0.0
C1448 C 0.54877 0.2349 0.51708 0.0
C1449 C 0.54267 0.23353 0.48732 0.0
C1450 C 0.51399 0.21897 0.48182 0.0
C1451 C 0.54461 0.26229 0.47537 0.0
C1452 C 0.5668 0.21727 0.47732 0.0
C1453 C 0.58563 0.21361 0.49767 0.0
C1454 C 0.60849 0.19757 0.49394 0.0
C1455 C 0.61096 0.18322 0.4696 0.0
C1456 C 0.59018 0.18427 0.4498 0.0
C1457 C 0.56885 0.20274 0.45303 0.0
H1458 H 0.56034 0.78739 0.30757 0.0
H1459 H 0.57154 0.86486 0.3499 0.0
H1460 H 0.5855 0.88729 0.30712 0.0
H1461 H 0.61664 0.7949 0.26083 0.0
H1462 H 0.59732 0.77939 0.23326 0.0
H1463 H 0.58842 0.76992 0.26721 0.0
H1464 H 0.53738 0.78246 0.25921 0.0
H1465 H 0.54628 0.79261 0.22536 0.0
H1466 H 0.53058 0.81624 0.24819 0.0
H1467 H 0.59752 0.90106 0.26043 0.0
H1468 H 0.61296 0.90475 0.21308 0.0
H1469 H 0.59422 0.81824 0.20093 0.0
C1470 C 0.56637 0.80896 0.30791 0.0
C1471 C 0.56551 0.82444 0.33196 0.0
C1472 C 0.5725 0.85274 0.33161 0.0
C1473 C 0.58011 0.86561 0.30745 0.0
C1474 C 0.57998 0.84989 0.28393 0.0
C1475 C 0.57347 0.82217 0.28395 0.0
C1476 C 0.57481 0.81002 0.25588 0.0
C1477 C 0.59555 0.78723 0.25421 0.0
C1478 C 0.54553 0.79972 0.24662 0.0
C1479 C 0.58509 0.83493 0.24031 0.0
C1480 C 0.5869 0.85787 0.2568 0.0
C1481 C 0.5961 0.88333 0.24731 0.0
C1482 C 0.60471 0.88524 0.22048 0.0
C1483 C 0.60445 0.8618 0.20374 0.0
C1484 C 0.5941 0.83641 0.21347 0.0
H1485 H 0.9847 0.81213 0.03639 0.0
H1486 H 0.91221 0.82267 0.08748 0.0
H1487 H 0.88665 0.83991 0.04865 0.0
H1488 H 0.98233 0.86915 -0.00231 0.0
H1489 H 0.99222 0.85283 0.96662 0.0
H1490 H 0.00266 0.83931 -0.00199 0.0
H1491 H 0.97863 0.79214 0.98483 0.0
H1492 H 0.96837 0.80622 0.95338 0.0
H1493 H 0.94244 0.79023 0.97546 0.0
H1494 H 0.87196 0.86169 0.00576 0.0
H1495 H 0.8717 0.88983 0.96503 0.0
H1496 H 0.9517 0.86093 0.94063 0.0
C1497 C 0.96341 0.81809 0.03928 0.0
C1498 C 0.95042 0.8166 0.06479 0.0
C1499 C 0.92244 0.82392 0.06797 0.0
C1500 C 0.90774 0.83342 0.04601 0.0
C1501 C 0.92105 0.8344 0.02089 0.0
C1502 C 0.94822 0.82673 0.01745 0.0
C1503 C 0.95833 0.83083 0.98882 0.0
C1504 C 0.98546 0.84914 0.98775 0.0
C1505 C 0.96218 0.80323 0.97478 0.0
C1506 C 0.93373 0.84462 0.97729 0.0
C1507 C 0.91193 0.84556 -0.00424 0.0
C1508 C 0.88843 0.86023 0.99081 0.0
C1509 C 0.88809 0.87572 0.9673 0.0
C1510 C 0.91102 0.8764 0.94917 0.0
C1511 C 0.93335 0.85957 0.95358 0.0
H1512 H 0.70036 0.0236 0.83374 0.0
H1513 H 0.69875 0.98605 0.75433 0.0
H1514 H 0.74516 0.96866 0.76167 0.0
H1515 H 0.77449 0.0403 0.83112 0.0
H1516 H 0.785 0.03177 0.86396 0.0
H1517 H 0.75107 0.04529 0.85909 0.0
H1518 H 0.72002 0.00618 0.87619 0.0
H1519 H 0.75046 0.99139 0.8891 0.0
H1520 H 0.72734 0.97155 0.86742 0.0
H1521 H 0.79173 0.95576 0.77708 0.0
H1522 H 0.82483 0.93221 0.8046 0.0
H1523 H 0.79261 0.97083 0.87631 0.0
C1524 C 0.70984 0.01173 0.81795 0.0
C1525 C 0.69608 0.00644 0.79341 0.0
C1526 C 0.70897 0.99055 0.77328 0.0
C1527 C 0.73556 0.98094 0.77705 0.0
C1528 C 0.749 0.98721 0.80112 0.0
C1529 C 0.7362 0.00136 0.82158 0.0
C1530 C 0.75391 0.00248 0.84655 0.0
C1531 C 0.76675 0.03164 0.85055 0.0
C1532 C 0.73695 0.99231 0.87127 0.0
C1533 C 0.77643 0.98341 0.83823 0.0
C1534 C 0.77468 0.97721 0.81112 0.0
C1535 C 0.79322 0.96035 0.79835 0.0
C1536 C 0.81226 0.94737 0.81416 0.0
C1537 C 0.81094 0.94954 0.84258 0.0
C1538 C 0.79418 0.96912 0.85465 0.0
H1539 H 0.79188 0.99033 0.5748 0.0
H1540 H 0.81374 0.99186 0.48991 0.0
H1541 H 0.82902 0.04029 0.49404 0.0
H1542 H 0.76773 0.05905 0.58084 0.0
H1543 H 0.78352 0.06603 0.61306 0.0
H1544 H 0.77264 0.03155 0.60367 0.0
H1545 H 0.8226 0.016 0.61186 0.0
H1546 H 0.83333 0.05029 0.62183 0.0
H1547 H 0.85192 0.03345 0.59526 0.0
H1548 H 0.84246 0.08818 0.50673 0.0
H1549 H 0.86097 0.13043 0.52891 0.0
H1550 H 0.83238 0.09918 0.60605 0.0
C1551 C 0.79995 0.0009 0.55715 0.0
C1552 C 0.80147 0.9872 0.53198 0.0
C1553 C 0.8124 0.00174 0.50942 0.0
C1554 C 0.8209 0.02942 0.51149 0.0
C1555 C 0.81867 0.04248 0.53634 0.0
C1556 C 0.80907 0.02865 0.55895 0.0
C1557 C 0.81105 0.04725 0.58362 0.0
C1558 C 0.782 0.0512 0.59602 0.0
C1559 C 0.83091 0.03609 0.60436 0.0
C1560 C 0.82324 0.07358 0.57127 0.0
C1561 C 0.82699 0.07036 0.54387 0.0
C1562 C 0.83931 0.09108 0.52811 0.0
C1563 C 0.84942 0.11521 0.54082 0.0
C1564 C 0.84726 0.11856 0.56905 0.0
C1565 C 0.83314 0.09777 0.58433 0.0
H1566 H 0.7957 0.04787 0.32957 0.0
H1567 H 0.79728 0.06198 0.24361 0.0
H1568 H 0.74983 0.07838 0.24645 0.0
H1569 H 0.71913 0.02814 0.33398 0.0
H1570 H 0.71562 0.04508 0.36604 0.0
H1571 H 0.74813 0.03059 0.35679 0.0
H1572 H 0.77389 0.07771 0.36547 0.0
H1573 H 0.74118 0.09153 0.37492 0.0
H1574 H 0.76233 0.10728 0.34856 0.0
H1575 H 0.70301 0.09376 0.2579 0.0
H1576 H 0.66556 0.11944 0.27847 0.0
H1577 H 0.69472 0.10042 0.35768 0.0
C1578 C 0.78598 0.0544 0.3114 0.0
C1579 C 0.80023 0.05348 0.28635 0.0
C1580 C 0.78688 0.0624 0.26304 0.0
C1581 C 0.75971 0.07145 0.26436 0.0
C1582 C 0.74599 0.07161 0.28917 0.0
C1583 C 0.75884 0.06402 0.3124 0.0
C1584 C 0.74024 0.06882 0.33675 0.0
C1585 C 0.7302 0.04149 0.3491 0.0
C1586 C 0.75531 0.08748 0.35763 0.0
C1587 C 0.71604 0.0824 0.3238 0.0
C1588 C 0.71916 0.08216 0.29615 0.0
C1589 C 0.7002 0.09392 0.27951 0.0
C1590 C 0.67866 0.10813 0.29141 0.0
C1591 C 0.67685 0.1115 0.31967 0.0
C1592 C 0.69489 0.09727 0.33612 0.0
H1593 H 0.69094 0.09242 0.06692 0.0
H1594 H 0.69613 0.07595 0.98114 0.0
H1595 H 0.68425 0.02735 0.98899 0.0
H1596 H 0.71931 0.03192 0.0901 0.0
H1597 H 0.69495 0.02698 0.11774 0.0
H1598 H 0.70378 0.06084 0.10574 0.0
H1599 H 0.65146 0.06878 0.09781 0.0
H1600 H 0.64245 0.0353 0.11061 0.0
H1601 H 0.63095 0.04452 0.07779 0.0
H1602 H 0.67108 0.98082 0.00572 0.0
H1603 H 0.6516 0.9404 0.03037 0.0
H1604 H 0.65656 0.98649 0.10498 0.0
C1605 C 0.68933 0.07859 0.04984 0.0
C1606 C 0.69451 0.08789 0.0235 0.0
C1607 C 0.69205 0.06927 0.00154 0.0
C1608 C 0.68561 0.04157 0.00577 0.0
C1609 C 0.68144 0.03286 0.03204 0.0
C1610 C 0.68258 0.05085 0.05365 0.0
C1611 C 0.67549 0.03637 0.07967 0.0
C1612 C 0.69985 0.0392 0.09947 0.0
C1613 C 0.64849 0.04686 0.0922 0.0
C1614 C 0.67104 0.00738 0.06934 0.0
C1615 C 0.67447 0.00578 0.04178 0.0
C1616 C 0.66885 0.9816 0.02737 0.0
C1617 C 0.65821 0.9587 0.04146 0.0
C1618 C 0.65394 0.9603 0.06951 0.0
C1619 C 0.66114 0.98459 0.08368 0.0
H1620 H 0.71963 0.06237 0.72657 0.0
H1621 H 0.67256 0.13522 0.73165 0.0
H1622 H 0.71351 0.1625 0.71421 0.0
H1623 H 0.78329 0.09521 0.75049 0.0
H1624 H 0.80615 0.07585 0.72958 0.0
H1625 H 0.7725 0.06111 0.73979 0.0
H1626 H 0.75986 0.05189 0.68998 0.0
H1627 H 0.79347 0.06663 0.67957 0.0
H1628 H 0.76197 0.07965 0.66656 0.0
H1629 H 0.75774 0.18171 0.69812 0.0
H1630 H 0.8059 0.19452 0.68601 0.0
H1631 H 0.82826 0.11025 0.69277 0.0
C1632 C 0.718 0.08399 0.72338 0.0
C1633 C 0.69301 0.0969 0.72972 0.0
C1634 C 0.69153 0.12521 0.72647 0.0
C1635 C 0.7146 0.14073 0.71658 0.0
C1636 C 0.73902 0.12757 0.71066 0.0
C1637 C 0.74119 0.09996 0.71411 0.0
C1638 C 0.7709 0.09173 0.70826 0.0
C1639 C 0.78398 0.0803 0.73353 0.0
C1640 C 0.77158 0.07126 0.68468 0.0
C1641 C 0.78493 0.11913 0.70075 0.0
C1642 C 0.76579 0.13923 0.70227 0.0
C1643 C 0.773 0.16627 0.69701 0.0
C1644 C 0.80062 0.1733 0.69035 0.0
C1645 C 0.82115 0.1535 0.68906 0.0
C1646 C 0.81312 0.12582 0.69384 0.0
H1647 H 0.69317 0.98095 0.50829 0.0
H1648 H 0.71354 0.94011 0.43328 0.0
H1649 H 0.69676 0.97875 0.40803 0.0
H1650 H 0.62981 0.01266 0.48396 0.0
H1651 H 0.63718 0.04321 0.5036 0.0
H1652 H 0.64809 0.01096 0.51528 0.0
H1653 H 0.69872 0.03199 0.51865 0.0
H1654 H 0.68814 0.06392 0.50587 0.0
H1655 H 0.71573 0.04645 0.4892 0.0
H1656 H 0.68081 0.02232 0.39115 0.0
H1657 H 0.66157 0.06708 0.38287 0.0
H1658 H 0.65136 0.07964 0.46874 0.0
C1659 C 0.69333 0.97978 0.48655 0.0
C1660 C 0.70464 0.95758 0.47267 0.0
C1661 C 0.70487 0.95692 0.44425 0.0
C1662 C 0.69558 0.97882 0.42975 0.0
C1663 C 0.68601 0.00106 0.44404 0.0
C1664 C 0.68419 0.0015 0.47176 0.0
C1665 C 0.6736 0.0282 0.48215 0.0
C1666 C 0.6455 0.02347 0.49712 0.0
C1667 C 0.69535 0.04354 0.50001 0.0
C1668 C 0.67009 0.04274 0.45587 0.0
C1669 C 0.67755 0.02676 0.4342 0.0
C1670 C 0.67549 0.03542 0.40784 0.0
C1671 C 0.66478 0.06089 0.40336 0.0
C1672 C 0.65553 0.07684 0.42519 0.0
C1673 C 0.65882 0.06794 0.45177 0.0
H1674 H 0.80614 0.99378 0.20973 0.0
H1675 H 0.80434 0.93218 0.27148 0.0
H1676 H 0.75411 0.92151 0.26273 0.0
H1677 H 0.73529 0.01608 0.22557 0.0
H1678 H 0.72829 0.02299 0.1909 0.0
H1679 H 0.76349 0.02709 0.20332 0.0
H1680 H 0.78117 0.99355 0.16676 0.0
H1681 H 0.7465 0.99095 0.15355 0.0
H1682 H 0.76328 0.9605 0.16286 0.0
H1683 H 0.70518 0.91683 0.24623 0.0
H1684 H 0.66664 0.90833 0.21464 0.0
H1685 H 0.70064 0.97298 0.16385 0.0
C1686 C 0.79533 0.97767 0.22108 0.0
C1687 C 0.80903 0.96353 0.24104 0.0
C1688 C 0.7941 0.94304 0.25592 0.0
C1689 C 0.76553 0.9373 0.25149 0.0
C1690 C 0.75227 0.95275 0.23262 0.0
C1691 C 0.76685 0.97212 0.21732 0.0
C1692 C 0.74836 0.98461 0.19704 0.0
C1693 C 0.74358 0.01446 0.20466 0.0
C1694 C 0.76054 0.9822 0.16837 0.0
C1695 C 0.72186 0.96693 0.20106 0.0
C1696 C 0.72395 0.95 0.22294 0.0
C1697 C 0.70312 0.93023 0.22936 0.0
C1698 C 0.681 0.92583 0.2115 0.0
C1699 C 0.68085 0.94025 0.18708 0.0
C1700 C 0.70012 0.96238 0.18281 0.0
H1701 H 0.78683 0.10081 0.94406 0.0
H1702 H 0.80507 0.09792 0.0292 0.0
H1703 H 0.82559 0.05354 0.02243 0.0
H1704 H 0.76631 0.03366 0.93846 0.0
H1705 H 0.78195 0.02352 0.90743 0.0
H1706 H 0.77159 0.05816 0.91193 0.0
H1707 H 0.81939 0.08223 0.90489 0.0
H1708 H 0.83082 0.04978 0.89322 0.0
H1709 H 0.84978 0.06833 0.91929 0.0
H1710 H 0.84171 0.00887 0.00747 0.0
H1711 H 0.85999 0.9692 0.98356 0.0
H1712 H 0.83201 0.00014 0.90788 0.0
C1713 C 0.79588 0.0912 0.96111 0.0
C1714 C 0.79448 0.10291 0.98714 0.0
C1715 C 0.80606 0.08945 0.00905 0.0
C1716 C 0.8176 0.06412 0.00546 0.0
C1717 C 0.8177 0.05264 0.9798 0.0
C1718 C 0.80783 0.06594 0.95787 0.0
C1719 C 0.80993 0.04858 0.93264 0.0
C1720 C 0.78068 0.04064 0.92193 0.0
C1721 C 0.8286 0.06309 0.91124 0.0
C1722 C 0.8234 0.02388 0.94365 0.0
C1723 C 0.82703 0.0265 0.97107 0.0
C1724 C 0.83911 0.0066 0.98599 0.0
C1725 C 0.84918 0.98407 0.97231 0.0
C1726 C 0.84707 0.98161 0.94406 0.0
C1727 C 0.83326 0.00131 0.92958 0.0
H1728 H 0.7909 0.71052 0.94498 0.0
H1729 H 0.78679 0.7378 0.02807 0.0
H1730 H 0.80243 0.78441 0.01439 0.0
H1731 H 0.85364 0.75318 0.92696 0.0
H1732 H 0.84136 0.75939 0.89364 0.0
H1733 H 0.83106 0.72797 0.91022 0.0
H1734 H 0.77898 0.73746 0.90331 0.0
H1735 H 0.78916 0.76892 0.88686 0.0
H1736 H 0.76586 0.76907 0.91557 0.0
H1737 H 0.81531 0.82908 0.99096 0.0
H1738 H 0.82699 0.86713 0.95972 0.0
H1739 H 0.82508 0.80959 0.89289 0.0
C1740 C 0.79386 0.72619 0.96033 0.0
C1741 C 0.78801 0.72052 0.98762 0.0
C1742 C 0.79172 0.74161 0.00711 0.0
C1743 C 0.80038 0.76819 -0.00048 0.0
C1744 C 0.80567 0.77324 0.97241 0.0
C1745 C 0.80292 0.75272 0.95316 0.0
C1746 C 0.80971 0.76349 0.92536 0.0
C1747 C 0.83548 0.75022 0.91335 0.0
C1748 C 0.78441 0.7595 0.9067 0.0
C1749 C 0.81608 0.79332 0.93195 0.0
C1750 C 0.81369 0.79865 0.95914 0.0
C1751 C 0.81774 0.82506 0.96967 0.0
C1752 C 0.82461 0.84651 0.95188 0.0
C1753 C 0.82749 0.84129 0.92403 0.0
C1754 C 0.8231 0.8143 0.91412 0.0
H1755 H 0.319 0.8462 0.03012 0.0
H1756 H 0.23954 0.8391 0.07299 0.0
H1757 H 0.24905 0.79233 0.08591 0.0
H1758 H 0.31893 0.77345 0.00891 0.0
H1759 H 0.35555 0.77023 0.01425 0.0
H1760 H 0.34304 0.80237 0.00359 0.0
H1761 H 0.36418 0.82874 0.04381 0.0
H1762 H 0.37945 0.79832 0.05469 0.0
H1763 H 0.35737 0.81646 0.0774 0.0
H1764 H 0.26678 0.7468 0.09416 0.0
H1765 H 0.2982 0.71491 0.11391 0.0
H1766 H 0.36858 0.75428 0.07191 0.0
C1767 C 0.30362 0.83475 0.04219 0.0
C1768 C 0.27844 0.84608 0.05026 0.0
C1769 C 0.25895 0.8307 0.06639 0.0
C1770 C 0.26387 0.80391 0.07336 0.0
C1771 C 0.28839 0.79285 0.06409 0.0
C1772 C 0.30838 0.80811 0.04971 0.0
C1773 C 0.33478 0.79298 0.04598 0.0
C1774 C 0.33832 0.78431 0.01642 0.0
C1775 C 0.36044 0.81015 0.0561 0.0
C1776 C 0.32775 0.7683 0.06318 0.0
C1777 C 0.29998 0.76748 0.07128 0.0
C1778 C 0.2885 0.74714 0.08787 0.0
C1779 C 0.30648 0.72878 0.09863 0.0
C1780 C 0.33572 0.7325 0.09447 0.0
C1781 C 0.34625 0.75094 0.07495 0.0
H1782 H 0.93887 0.57643 0.77582 0.0
H1783 H 0.93555 0.49524 0.80957 0.0
H1784 H 0.98314 0.50372 0.82697 0.0
H1785 H 0.0143 0.57936 0.75818 0.0
H1786 H 0.01929 0.61487 0.7674 0.0
H1787 H 0.98599 0.60175 0.7549 0.0
H1788 H 0.961 0.61936 0.79777 0.0
H1789 H 0.9941 0.63312 0.80982 0.0
H1790 H 0.97306 0.60974 0.83031 0.0
H1791 H 0.02984 0.52108 0.84233 0.0
H1792 H 0.06809 0.54939 0.86286 0.0
H1793 H 0.04142 0.62007 0.82117 0.0
C1794 C 0.94816 0.5605 0.78695 0.0
C1795 C 0.93342 0.53518 0.79134 0.0
C1796 C 0.94632 0.51485 0.806 0.0
C1797 C 0.97354 0.51932 0.81566 0.0
C1798 C 0.98773 0.54423 0.8105 0.0
C1799 C 0.97535 0.56469 0.79693 0.0
C1800 C 0.99431 0.59047 0.79636 0.0
C1801 C 0.00404 0.597 0.76749 0.0
C1802 C 0.97975 0.61459 0.80936 0.0
C1803 C 0.01849 0.58178 0.81308 0.0
C1804 C 0.01473 0.55463 0.82001 0.0
C1805 C 0.03325 0.54222 0.83671 0.0
C1806 C 0.05514 0.55836 0.84801 0.0
C1807 C 0.05808 0.58664 0.84294 0.0
C1808 C 0.04025 0.59827 0.82441 0.0
H1809 H 0.18841 0.21074 0.5697 0.0
H1810 H 0.21121 0.24082 0.49053 0.0
H1811 H 0.19917 0.28729 0.50468 0.0
H1812 H 0.1289 0.25428 0.58115 0.0
H1813 H 0.13657 0.25896 0.61632 0.0
H1814 H 0.14512 0.22788 0.59923 0.0
H1815 H 0.19682 0.23531 0.61379 0.0
H1816 H 0.18823 0.26603 0.63124 0.0
H1817 H 0.21566 0.26708 0.60611 0.0
H1818 H 0.19073 0.33201 0.53029 0.0
H1819 H 0.18584 0.36893 0.56452 0.0
H1820 H 0.16325 0.3082 0.62427 0.0
C1821 C 0.19012 0.22698 0.55515 0.0
C1822 C 0.2002 0.22213 0.5289 0.0
C1823 C 0.20282 0.244 0.51057 0.0
C1824 C 0.19615 0.27049 0.51846 0.0
C1825 C 0.18625 0.27466 0.54458 0.0
C1826 C 0.18293 0.25333 0.5625 0.0
C1827 C 0.17324 0.26316 0.58975 0.0
C1828 C 0.14423 0.2503 0.59703 0.0
C1829 C 0.19477 0.25757 0.61148 0.0
C1830 C 0.17202 0.29334 0.58458 0.0
C1831 C 0.17979 0.29985 0.55852 0.0
C1832 C 0.18374 0.32706 0.55049 0.0
C1833 C 0.18064 0.34795 0.56988 0.0
C1834 C 0.17328 0.34129 0.59665 0.0
C1835 C 0.16785 0.31376 0.6036 0.0
H1836 H 0.04144 0.98863 0.76736 0.0
H1837 H 0.05449 0.06361 0.81366 0.0
H1838 H 0.0086 0.05549 0.83554 0.0
H1839 H 0.96371 0.99433 0.76073 0.0
H1840 H 0.95653 0.9581 0.76362 0.0
H1841 H 0.98886 0.97109 0.74839 0.0
H1842 H 0.01723 0.94439 0.78215 0.0
H1843 H 0.98514 0.9308 0.79695 0.0
H1844 H 0.01086 0.94874 0.8177 0.0
H1845 H 0.9638 0.03886 0.85437 0.0
H1846 H 0.92709 0.00985 0.87633 0.0
H1847 H 0.94247 0.9442 0.82013 0.0
C1848 C 0.03452 0.00328 0.78209 0.0
C1849 C 0.05145 0.02678 0.78881 0.0
C1850 C 0.04178 0.04556 0.80811 0.0
C1851 C 0.01559 0.04131 0.82041 0.0
C1852 C -0.00089 0.01832 0.813 0.0
C1853 C 0.00822 -0.00062 0.79458 0.0
C1854 C 0.98724 0.97518 0.79226 0.0
C1855 C 0.97327 0.97464 0.7646 0.0
C1856 C 0.00094 0.9482 0.79762 0.0
C1857 C 0.96646 0.9823 0.8142 0.0
C1858 C 0.97299 0.00805 0.82468 0.0
C1859 C 0.95813 0.01888 0.84608 0.0
C1860 C 0.93714 0.00236 0.85827 0.0
C1861 C 0.9317 0.97513 0.84949 0.0
C1862 C 0.94564 0.96529 0.82649 0.0
H1863 H 0.66874 0.3285 0.48265 0.0
H1864 H 0.73641 0.35473 0.42822 0.0
H1865 H 0.73607 0.30898 0.40841 0.0
H1866 H 0.6877 0.26093 0.493 0.0
H1867 H 0.65325 0.24448 0.49075 0.0
H1868 H 0.65741 0.2795 0.50186 0.0
H1869 H 0.62475 0.29439 0.4645 0.0
H1870 H 0.61967 0.25929 0.454 0.0
H1871 H 0.63172 0.28474 0.4301 0.0
H1872 H 0.73665 0.25999 0.40217 0.0
H1873 H 0.72255 0.21299 0.39001 0.0
H1874 H 0.64685 0.21829 0.43844 0.0
C1875 C 0.6829 0.3247 0.46607 0.0
C1876 C 0.70316 0.34505 0.45747 0.0
C1877 C 0.72106 0.33948 0.4355 0.0
C1878 C 0.7213 0.31342 0.42429 0.0
C1879 C 0.70274 0.29336 0.43449 0.0
C1880 C 0.68256 0.29883 0.45352 0.0
C1881 C 0.66355 0.27338 0.45855 0.0
C1882 C 0.66561 0.26403 0.48778 0.0
C1883 C 0.63312 0.27824 0.45133 0.0
C1884 C 0.67653 0.25312 0.43925 0.0
C1885 C 0.70005 0.26507 0.42704 0.0
C1886 C 0.71759 0.25058 0.41056 0.0
C1887 C 0.70947 0.22374 0.40404 0.0
C1888 C 0.68306 0.21218 0.41241 0.0
C1889 C 0.66703 0.2265 0.43157 0.0
H1890 H 0.93589 0.44665 0.71838 0.0
H1891 H 0.94226 0.52777 0.68453 0.0
H1892 H 0.99234 0.52285 0.67518 0.0
H1893 H 0.00734 0.45116 0.7471 0.0
H1894 H 0.014 0.41619 0.73983 0.0
H1895 H 0.97891 0.4256 0.74752 0.0
H1896 H 0.95969 0.40553 0.70277 0.0
H1897 H 0.99372 0.39337 0.69604 0.0
H1898 H 0.97764 0.41435 0.67175 0.0
H1899 H 0.04076 0.50921 0.66823 0.0
H1900 H 0.07772 0.48255 0.64819 0.0
H1901 H 0.03983 0.40912 0.68296 0.0
C1902 C 0.94781 0.46329 0.70884 0.0
C1903 C 0.93519 0.48765 0.7023 0.0
C1904 C 0.95147 0.50894 0.68979 0.0
C1905 C 0.98008 0.50654 0.68488 0.0
C1906 C 0.99218 0.48277 0.69265 0.0
C1907 C 0.97641 0.46117 0.70356 0.0
C1908 C 0.99392 0.43673 0.70714 0.0
C1909 C -0.0012 0.43213 0.73717 0.0
C1910 C 0.98045 0.411 0.69357 0.0
C1911 C 0.02089 0.44679 0.69329 0.0
C1912 C 0.02013 0.47417 0.68722 0.0
C1913 C 0.04168 0.48785 0.673 0.0
C1914 C 0.06294 0.47257 0.66205 0.0
C1915 C 0.06137 0.44384 0.66398 0.0
C1916 C 0.0417 0.43114 0.68176 0.0
H1917 H 0.53717 0.57552 0.22115 0.0
H1918 H 0.59675 0.63532 0.18715 0.0
H1919 H 0.55808 0.66553 0.17807 0.0
H1920 H 0.48516 0.57899 0.17718 0.0
H1921 H 0.45728 0.57532 0.20181 0.0
H1922 H 0.4905 0.56223 0.20859 0.0
H1923 H 0.4909 0.59042 0.25247 0.0
H1924 H 0.4591 0.60655 0.24477 0.0
H1925 H 0.49069 0.62697 0.25155 0.0
H1926 H 0.51327 0.68446 0.166 0.0
H1927 H 0.4682 0.68488 0.14318 0.0
H1928 H 0.43732 0.61508 0.18846 0.0
C1929 C 0.54197 0.59509 0.21188 0.0
C1930 C 0.56951 0.6032 0.20438 0.0
C1931 C 0.57551 0.62895 0.1928 0.0
C1932 C 0.5538 0.6463 0.18808 0.0
C1933 C 0.52668 0.6379 0.19619 0.0
C1934 C 0.52081 0.61279 0.20781 0.0
C1935 C 0.48986 0.60691 0.2119 0.0
C1936 C 0.48017 0.57928 0.19905 0.0
C1937 C 0.48217 0.60779 0.24195 0.0
C1938 C 0.47888 0.63097 0.19747 0.0
C1939 C 0.50043 0.64952 0.19002 0.0
C1940 C 0.49615 0.67067 0.17238 0.0
C1941 C 0.47029 0.67102 0.15971 0.0
C1942 C 0.44963 0.65 0.16444 0.0
C1943 C 0.45281 0.63167 0.18539 0.0
H1944 H 0.51794 0.78109 0.77689 0.0
H1945 H 0.55778 0.73803 0.84024 0.0
H1946 H 0.58101 0.7098 0.80626 0.0
H1947 H 0.50924 0.72402 0.72857 0.0
H1948 H 0.51841 0.74476 0.69983 0.0
H1949 H 0.50189 0.75963 0.72884 0.0
H1950 H 0.54267 0.79618 0.73258 0.0
H1951 H 0.55916 0.78171 0.70345 0.0
H1952 H 0.57804 0.7856 0.73448 0.0
H1953 H 0.59916 0.68642 0.76694 0.0
H1954 H 0.62074 0.67493 0.72365 0.0
H1955 H 0.57436 0.73622 0.68426 0.0
C1956 C 0.53118 0.76534 0.78344 0.0
C1957 C 0.53569 0.76109 0.81104 0.0
C1958 C 0.55387 0.74116 0.81913 0.0
C1959 C 0.56694 0.72497 0.80003 0.0
C1960 C 0.5619 0.72937 0.77298 0.0
C1961 C 0.54509 0.74947 0.76454 0.0
C1962 C 0.54606 0.75191 0.73413 0.0
C1963 C 0.51718 0.74465 0.72214 0.0
C1964 C 0.55716 0.78055 0.72567 0.0
C1965 C 0.56656 0.73041 0.72692 0.0
C1966 C 0.57448 0.71715 0.74976 0.0
C1967 C 0.59323 0.69664 0.74891 0.0
C1968 C 0.60526 0.69024 0.72423 0.0
C1969 C 0.59917 0.70477 0.7008 0.0
C1970 C 0.57899 0.72463 0.70186 0.0
H1971 H 0.54301 0.28209 0.06055 0.0
H1972 H 0.54125 0.35724 0.10705 0.0
H1973 H 0.55915 0.38307 0.06785 0.0
H1974 H 0.60612 0.3035 0.01655 0.0
H1975 H 0.591 0.28667 0.98739 0.0
H1976 H 0.58358 0.27319 0.0204 0.0
H1977 H 0.53062 0.27528 0.01151 0.0
H1978 H 0.53795 0.28926 0.97878 0.0
H1979 H 0.51676 0.30728 0.00252 0.0
H1980 H 0.5723 0.40124 0.02473 0.0
H1981 H 0.57737 0.41285 0.97743 0.0
H1982 H 0.56831 0.32709 0.95484 0.0
C1983 C 0.5475 0.30385 0.06259 0.0
C1984 C 0.54148 0.31776 0.08694 0.0
C1985 C 0.54625 0.34631 0.08872 0.0
C1986 C 0.55647 0.36108 0.06659 0.0
C1987 C 0.56164 0.34702 0.04273 0.0
C1988 C 0.55735 0.31909 0.04035 0.0
C1989 C 0.56158 0.30982 0.01126 0.0
C1990 C 0.58709 0.29225 0.00876 0.0
C1991 C 0.53514 0.29452 0.00039 0.0
C1992 C 0.56726 0.33716 -0.00245 0.0
C1993 C 0.56801 0.35801 0.01656 0.0
C1994 C 0.57194 0.38516 0.00966 0.0
C1995 C 0.5746 0.39149 0.98261 0.0
C1996 C 0.57276 0.37093 0.96234 0.0
C1997 C 0.56979 0.3432 0.96987 0.0
H1998 H 0.96266 0.31115 0.28837 0.0
H1999 H 0.96379 0.38911 0.33012 0.0
H2000 H 0.95132 0.41145 0.28783 0.0
H2001 H 0.99081 0.33979 0.22248 0.0
H2002 H 0.96967 0.3151 0.20354 0.0
H2003 H 0.98281 0.30634 0.23593 0.0
H2004 H 0.9324 0.29317 0.25254 0.0
H2005 H 0.9194 0.30132 0.22018 0.0
H2006 H 0.9058 0.31756 0.2499 0.0
H2007 H 0.92883 0.42252 0.24495 0.0
H2008 H 0.89782 0.42112 0.20578 0.0
H2009 H 0.91683 0.33803 0.18911 0.0
C2010 C 0.96028 0.33295 0.28856 0.0
C2011 C 0.96334 0.3484 0.31254 0.0
C2012 C 0.96097 0.37693 0.31198 0.0
C2013 C 0.9543 0.38977 0.28801 0.0
C2014 C 0.95113 0.37387 0.26467 0.0
C2015 C 0.95441 0.3461 0.26473 0.0
C2016 C 0.94778 0.33319 0.23764 0.0
C2017 C 0.97435 0.32301 0.2241 0.0
C2018 C 0.92498 0.30998 0.24024 0.0
C2019 C 0.93747 0.35753 0.22306 0.0
C2020 C 0.94045 0.38103 0.23871 0.0
C2021 C 0.92795 0.40486 0.23172 0.0
C2022 C 0.91098 0.4043 0.20899 0.0
C2023 C 0.90713 0.38044 0.19323 0.0
C2024 C 0.92123 0.35707 0.19984 0.0
H2025 H 0.92303 0.75327 0.57183 0.0
H2026 H 0.00044 0.7126 0.58187 0.0
H2027 H -0.00018 0.69883 0.5344 0.0
H2028 H 0.89117 0.70052 0.53042 0.0
H2029 H 0.87316 0.72336 0.50943 0.0
H2030 H 0.88128 0.73306 0.54351 0.0
H2031 H 0.90684 0.77724 0.52599 0.0
H2032 H 0.89955 0.76705 0.49176 0.0
H2033 H 0.93507 0.77496 0.50193 0.0
H2034 H 0.99245 0.68996 0.48723 0.0
H2035 H 0.97092 0.67239 0.4456 0.0
H2036 H 0.89541 0.71371 0.46513 0.0
C2037 C 0.93959 0.74117 0.56398 0.0
C2038 C 0.96185 0.73405 0.58045 0.0
C2039 C 0.98307 0.71807 0.56969 0.0
C2040 C 0.98326 0.71067 0.54259 0.0
C2041 C 0.96173 0.71885 0.52662 0.0
C2042 C 0.93964 0.73275 0.53696 0.0
C2043 C 0.9173 0.73546 0.51588 0.0
C2044 C 0.88907 0.72229 0.52538 0.0
C2045 C 0.91454 0.76547 0.50846 0.0
C2046 C 0.92985 0.71963 0.49268 0.0
C2047 C 0.95619 0.71168 0.4991 0.0
C2048 C 0.97186 0.69595 0.48188 0.0
C2049 C 0.95951 0.68615 0.45828 0.0
C2050 C 0.93159 0.69162 0.45248 0.0
C2051 C 0.91697 0.7097 0.46907 0.0
H2052 H 0.54189 0.28508 0.70332 0.0
H2053 H 0.52923 0.3647 0.67032 0.0
H2054 H 0.54261 0.3862 0.71402 0.0
H2055 H 0.51193 0.29834 0.76681 0.0
H2056 H 0.53544 0.27774 0.78453 0.0
H2057 H 0.52739 0.2699 0.74994 0.0
H2058 H 0.58079 0.27398 0.73841 0.0
H2059 H 0.58818 0.2821 0.77305 0.0
H2060 H 0.60063 0.30504 0.74702 0.0
H2061 H 0.55778 0.39841 0.76193 0.0
H2062 H 0.57354 0.40021 0.8089 0.0
H2063 H 0.56976 0.31217 0.81133 0.0
C2064 C 0.54255 0.30711 0.70502 0.0
C2065 C 0.53479 0.32331 0.68339 0.0
C2066 C 0.53529 0.35199 0.68663 0.0
C2067 C 0.54278 0.36432 0.71137 0.0
C2068 C 0.54933 0.34758 0.73261 0.0
C2069 C 0.54942 0.31961 0.72956 0.0
C2070 C 0.55567 0.30594 0.7557 0.0
C2071 C 0.53114 0.28677 0.76475 0.0
C2072 C 0.58294 0.29089 0.7534 0.0
C2073 C 0.55873 0.3305 0.77416 0.0
C2074 C 0.55539 0.35439 0.76047 0.0
C2075 C 0.55936 0.37976 0.77303 0.0
C2076 C 0.5673 0.38065 0.8001 0.0
C2077 C 0.57063 0.35637 0.8145 0.0
C2078 C 0.5658 0.33101 0.80131 0.0
H2079 H 0.00649 0.3478 0.96325 0.0
H2080 H 0.93103 0.30169 0.93924 0.0
H2081 H 0.9094 0.31129 0.98364 0.0
H2082 H 0.00359 0.32415 0.03271 0.0
H2083 H 0.01775 0.35614 0.04614 0.0
H2084 H 0.02753 0.34526 0.01276 0.0
H2085 H 0.01096 0.39008 0.99276 0.0
H2086 H 0.00234 0.40142 0.02612 0.0
H2087 H 0.97613 0.40032 0.0004 0.0
H2088 H 0.89616 0.32627 0.03058 0.0
H2089 H 0.88894 0.35314 0.07216 0.0
H2090 H 0.97304 0.38919 0.06498 0.0
C2091 C 0.98521 0.34016 0.96718 0.0
C2092 C 0.97015 0.32437 0.94782 0.0
C2093 C 0.94271 0.31403 0.95387 0.0
C2094 C 0.93046 0.31907 0.97909 0.0
C2095 C 0.94628 0.33387 -0.00184 0.0
C2096 C 0.97296 0.3445 0.99238 0.0
C2097 C 0.98534 0.36026 0.01606 0.0
C2098 C 0.01001 0.34559 0.02759 0.0
C2099 C 0.99417 0.38977 0.00837 0.0
C2100 C 0.9606 0.35881 0.03531 0.0
C2101 C 0.93871 0.34245 0.02512 0.0
C2102 C 0.91322 0.33894 0.03883 0.0
C2103 C 0.90936 0.35404 0.06258 0.0
C2104 C 0.93046 0.37306 0.07163 0.0
C2105 C 0.95684 0.37434 0.05866 0.0
H2106 H 0.94853 0.70745 0.18711 0.0
H2107 H 0.96521 0.7938 0.20324 0.0
H2108 H 0.95868 0.78614 0.25151 0.0
H2109 H 0.89226 0.70122 0.23399 0.0
H2110 H 0.89911 0.6672 0.24429 0.0
H2111 H 0.90946 0.67852 0.21124 0.0
H2112 H 0.96035 0.66622 0.22084 0.0
H2113 H 0.9499 0.65537 0.25412 0.0
H2114 H 0.97798 0.68092 0.24979 0.0
H2115 H 0.94702 0.77099 0.29704 0.0
H2116 H 0.92301 0.7501 0.33653 0.0
H2117 H 0.91128 0.67381 0.29264 0.0
C2118 C 0.9509 0.72459 0.20093 0.0
C2119 C 0.95736 0.7512 0.19145 0.0
C2120 C 0.95992 0.77327 0.21001 0.0
C2121 C 0.95671 0.76909 0.23756 0.0
C2122 C 0.9504 0.74275 0.2464 0.0
C2123 C 0.94686 0.72089 0.22873 0.0
C2124 C 0.93613 0.69549 0.24349 0.0
C2125 C 0.90754 0.68501 0.23261 0.0
C2126 C 0.95738 0.67319 0.24195 0.0
C2127 C 0.93362 0.70679 0.27192 0.0
C2128 C 0.94276 0.73393 0.27318 0.0
C2129 C 0.94028 0.74962 0.29654 0.0
C2130 C 0.92684 0.73762 0.3189 0.0
C2131 C 0.9162 0.71031 0.31763 0.0
C2132 C 0.92034 0.69444 0.29422 0.0
H2133 H 0.54985 0.7117 0.44344 0.0
H2134 H 0.56983 0.79451 0.47053 0.0
H2135 H 0.58362 0.77737 0.51481 0.0
H2136 H 0.51926 0.68852 0.50308 0.0
H2137 H 0.53244 0.65491 0.50032 0.0
H2138 H 0.52687 0.67406 0.47051 0.0
H2139 H 0.57857 0.66921 0.45583 0.0
H2140 H 0.58427 0.64983 0.48555 0.0
H2141 H 0.60617 0.67996 0.47852 0.0
H2142 H 0.59117 0.74929 0.55896 0.0
H2143 H 0.593 0.71414 0.59469 0.0
H2144 H 0.56875 0.65178 0.53585 0.0
C2145 C 0.55769 0.72621 0.45845 0.0
C2146 C 0.55894 0.75433 0.45345 0.0
C2147 C 0.56902 0.77273 0.47381 0.0
C2148 C 0.57682 0.76319 0.4991 0.0
C2149 C 0.57476 0.73516 0.5036 0.0
C2150 C 0.56571 0.71707 0.48353 0.0
C2151 C 0.56403 0.68813 0.49318 0.0
C2152 C 0.53387 0.67569 0.49169 0.0
C2153 C 0.58449 0.67077 0.47733 0.0
C2154 C 0.5731 0.69256 0.52187 0.0
C2155 C 0.57933 0.71966 0.52793 0.0
C2156 C 0.58684 0.72797 0.55409 0.0
C2157 C 0.58784 0.70797 0.57431 0.0
C2158 C 0.58092 0.68026 0.56812 0.0
C2159 C 0.574 0.6728 0.54145 0.0
H2160 H 0.8117 0.56362 0.67695 0.0
H2161 H 0.77656 0.53244 0.75174 0.0
H2162 H 0.73008 0.54723 0.73911 0.0
H2163 H 0.77858 0.62332 0.67942 0.0
H2164 H 0.77294 0.62591 0.64382 0.0
H2165 H 0.80118 0.60697 0.6557 0.0
H2166 H 0.78176 0.5646 0.62879 0.0
H2167 H 0.75301 0.5835 0.61738 0.0
H2168 H 0.74626 0.55173 0.63459 0.0
H2169 H 0.68951 0.57124 0.72208 0.0
H2170 H 0.66155 0.60867 0.70644 0.0
H2171 H 0.72266 0.62654 0.64366 0.0
C2172 C 0.794 0.5595 0.69029 0.0
C2173 C 0.79758 0.54708 0.71533 0.0
C2174 C 0.7742 0.5423 0.7326 0.0
C2175 C 0.74764 0.55022 0.72538 0.0
C2176 C 0.74474 0.56306 0.70082 0.0
C2177 C 0.76738 0.56792 0.68362 0.0
C2178 C 0.75977 0.58612 0.66074 0.0
C2179 C 0.77925 0.61212 0.6599 0.0
C2180 C 0.76023 0.57055 0.63378 0.0
C2181 C 0.73008 0.59232 0.66881 0.0
C2182 C 0.72132 0.57776 0.69126 0.0
C2183 C 0.69585 0.58226 0.70414 0.0
C2184 C 0.67989 0.60338 0.69498 0.0
C2185 C 0.68963 0.61986 0.67343 0.0
C2186 C 0.7143 0.61341 0.65947 0.0
H2187 H 0.68827 0.56953 0.00585 0.0
H2188 H 0.71772 0.59979 0.92846 0.0
H2189 H 0.70778 0.55394 0.90834 0.0
H2190 H 0.71713 0.50196 -0.00282 0.0
H2191 H 0.68843 0.48499 0.01513 0.0
H2192 H 0.69931 0.51973 0.02359 0.0
H2193 H 0.64899 0.53488 0.01577 0.0
H2194 H 0.63799 0.50017 0.00799 0.0
H2195 H 0.63224 0.52666 0.98423 0.0
H2196 H 0.69322 0.50566 0.89668 0.0
H2197 H 0.6677 0.46106 0.89238 0.0
H2198 H 0.64772 0.46219 0.97729 0.0
C2199 C 0.6923 0.56661 0.98458 0.0
C2200 C 0.70343 0.5882 0.96856 0.0
C2201 C 0.70901 0.58348 0.94097 0.0
C2202 C 0.70377 0.55749 0.92951 0.0
C2203 C 0.69353 0.53644 0.94609 0.0
C2204 C 0.68763 0.54079 0.97297 0.0
C2205 C 0.67573 0.51506 0.98622 0.0
C2206 C 0.69637 0.50484 0.00675 0.0
C2207 C 0.64703 0.51946 -0.00071 0.0
C2208 C 0.6736 0.49607 0.96207 0.0
C2209 C 0.68521 0.50846 0.9394 0.0
C2210 C 0.68466 0.49554 0.91438 0.0
C2211 C 0.67059 0.46993 0.91218 0.0
C2212 C 0.65673 0.45782 0.93463 0.0
C2213 C 0.659 0.47065 0.96006 0.0
H2214 H 0.68624 0.48434 0.22993 0.0
H2215 H 0.67619 0.53474 0.16012 0.0
H2216 H 0.72139 0.52039 0.14175 0.0
H2217 H 0.75913 0.49945 0.23689 0.0
H2218 H 0.76675 0.46569 0.2474 0.0
H2219 H 0.73289 0.47855 0.2544 0.0
H2220 H 0.70876 0.43692 0.22988 0.0
H2221 H 0.74249 0.4236 0.22348 0.0
H2222 H 0.71933 0.42876 0.19597 0.0
H2223 H 0.76784 0.50059 0.13132 0.0
H2224 H 0.81026 0.47438 0.12826 0.0
H2225 H 0.79075 0.43919 0.20605 0.0
C2226 C 0.69321 0.49187 0.21048 0.0
C2227 C 0.67761 0.51036 0.19624 0.0
C2228 C 0.68774 0.52029 0.17117 0.0
C2229 C 0.71346 0.51245 0.16071 0.0
C2230 C 0.72879 0.4949 0.17573 0.0
C2231 C 0.71894 0.48456 0.19996 0.0
C2232 C 0.7396 0.46638 0.21239 0.0
C2233 C 0.75021 0.47824 0.23937 0.0
C2234 C 0.72678 0.43719 0.2156 0.0
C2235 C 0.76246 0.46774 0.19115 0.0
C2236 C 0.75597 0.48445 0.17026 0.0
C2237 C 0.7734 0.48788 0.14781 0.0
C2238 C 0.79767 0.47319 0.14634 0.0
C2239 C 0.80414 0.4552 0.16706 0.0
C2240 C 0.78658 0.45307 0.19003 0.0
H2241 H 0.78248 0.4719 0.44279 0.0
H2242 H 0.76497 0.49668 0.52482 0.0
H2243 H 0.77728 0.5448 0.51323 0.0
H2244 H 0.84317 0.51526 0.43617 0.0
H2245 H 0.83798 0.52147 0.40102 0.0
H2246 H 0.8242 0.49025 0.41566 0.0
H2247 H 0.77473 0.50068 0.39884 0.0
H2248 H 0.78877 0.53217 0.38468 0.0
H2249 H 0.75999 0.53244 0.40835 0.0
H2250 H 0.79515 0.59011 0.49295 0.0
H2251 H 0.82351 0.62577 0.46827 0.0
H2252 H 0.83072 0.57014 0.40085 0.0
C2253 C 0.78103 0.48755 0.4582 0.0
C2254 C 0.77287 0.48074 0.48462 0.0
C2255 C 0.77156 0.50158 0.50447 0.0
C2256 C 0.77812 0.52897 0.49797 0.0
C2257 C 0.78616 0.53511 0.47161 0.0
C2258 C 0.78808 0.51483 0.45219 0.0
C2259 C 0.80062 0.52599 0.42635 0.0
C2260 C 0.82812 0.51246 0.41942 0.0
C2261 C 0.77976 0.52262 0.4032 0.0
C2262 C 0.80575 0.55566 0.43423 0.0
C2263 C 0.79677 0.56083 0.46019 0.0
C2264 C 0.80176 0.58641 0.47242 0.0
C2265 C 0.81756 0.6067 0.4582 0.0
C2266 C 0.8283 0.60098 0.4323 0.0
C2267 C 0.82147 0.5755 0.42003 0.0
H2268 H 0.80005 0.47556 0.81448 0.0
H2269 H 0.78869 0.45151 0.73096 0.0
H2270 H 0.73819 0.44339 0.7393 0.0
H2271 H 0.75127 0.42386 0.84084 0.0
H2272 H 0.73971 0.44554 0.8678 0.0
H2273 H 0.77446 0.45071 0.85415 0.0
H2274 H 0.76392 0.50112 0.84543 0.0
H2275 H 0.72858 0.49532 0.85773 0.0
H2276 H 0.73494 0.50857 0.82448 0.0
H2277 H 0.68947 0.43817 0.75594 0.0
H2278 H 0.64818 0.42244 0.78269 0.0
H2279 H 0.69103 0.4474 0.85554 0.0
C2280 C 0.78694 0.46824 0.79807 0.0
C2281 C 0.79821 0.46429 0.77204 0.0
C2282 C 0.78051 0.45453 0.75109 0.0
C2283 C 0.75171 0.45038 0.7555 0.0
C2284 C 0.74102 0.45581 0.78101 0.0
C2285 C 0.75815 0.46353 0.80221 0.0
C2286 C 0.74166 0.46498 0.82829 0.0
C2287 C 0.75239 0.44507 0.84897 0.0
C2288 C 0.74232 0.49425 0.83964 0.0
C2289 C 0.71272 0.45612 0.81847 0.0
C2290 C 0.71268 0.45199 0.79094 0.0
C2291 C 0.68906 0.44165 0.77744 0.0
C2292 C 0.66553 0.43318 0.79271 0.0
C2293 C 0.66617 0.4347 0.82106 0.0
C2294 C 0.68938 0.44767 0.83394 0.0
H2295 H 0.8021 0.60248 0.0781 0.0
H2296 H 0.74992 0.56525 0.01593 0.0
H2297 H 0.76362 0.51958 0.02922 0.0
H2298 H 0.85776 0.56297 0.06632 0.0
H2299 H 0.86805 0.56058 0.10089 0.0
H2300 H 0.84931 0.58914 0.09034 0.0
H2301 H 0.81235 0.57815 0.12737 0.0
H2302 H 0.82996 0.54843 0.13737 0.0
H2303 H 0.79379 0.54531 0.12778 0.0
H2304 H 0.78795 0.47903 0.04448 0.0
H2305 H 0.82524 0.4484 0.05628 0.0
H2306 H 0.86304 0.51169 0.10722 0.0
C2307 C 0.7931 0.58455 0.06791 0.0
C2308 C 0.77483 0.58708 0.04628 0.0
C2309 C 0.7639 0.56347 0.03269 0.0
C2310 C 0.77133 0.53749 0.04027 0.0
C2311 C 0.78981 0.53548 0.06146 0.0
C2312 C 0.80074 0.55842 0.07496 0.0
C2313 C 0.82339 0.5511 0.09409 0.0
C2314 C 0.85126 0.56686 0.08749 0.0
C2315 C 0.81433 0.55603 0.12339 0.0
C2316 C 0.82474 0.52089 0.08797 0.0
C2317 C 0.80445 0.512 0.0699 0.0
C2318 C 0.80346 0.48553 0.05917 0.0
C2319 C 0.82454 0.46817 0.06607 0.0
C2320 C 0.84627 0.47757 0.08325 0.0
C2321 C 0.84589 0.50386 0.09487 0.0
H2322 H 0.70301 0.60485 0.25836 0.0
H2323 H 0.67637 0.54968 0.32224 0.0
H2324 H 0.72311 0.55619 0.34279 0.0
H2325 H 0.77433 0.58302 0.25285 0.0
H2326 H 0.78876 0.61694 0.24616 0.0
H2327 H 0.75374 0.60695 0.2358 0.0
H2328 H 0.73385 0.64745 0.26255 0.0
H2329 H 0.76887 0.65817 0.27176 0.0
H2330 H 0.74254 0.6521 0.29751 0.0
H2331 H 0.77132 0.57131 0.35761 0.0
H2332 H 0.81386 0.59948 0.36923 0.0
H2333 H 0.80933 0.64236 0.29438 0.0
C2334 C 0.70693 0.59424 0.27676 0.0
C2335 C 0.68623 0.57682 0.28882 0.0
C2336 C 0.6921 0.56315 0.31278 0.0
C2337 C 0.71862 0.56644 0.32435 0.0
C2338 C 0.73895 0.58304 0.31134 0.0
C2339 C 0.73324 0.59693 0.28825 0.0
C2340 C 0.75795 0.61487 0.279 0.0
C2341 C 0.76937 0.60483 0.25184 0.0
C2342 C 0.75035 0.64491 0.27767 0.0
C2343 C 0.77803 0.61016 0.30137 0.0
C2344 C 0.76705 0.5911 0.31944 0.0
C2345 C 0.78052 0.58567 0.34329 0.0
C2346 C 0.80485 0.60141 0.34963 0.0
C2347 C 0.81491 0.62239 0.33238 0.0
C2348 C 0.8023 0.62578 0.30738 0.0
H2349 H 0.68596 0.4787 0.51787 0.0
H2350 H 0.70274 0.44043 0.59362 0.0
H2351 H 0.69453 0.48386 0.61763 0.0
H2352 H 0.72056 0.54475 0.53672 0.0
H2353 H 0.69633 0.56353 0.51786 0.0
H2354 H 0.70493 0.52985 0.50689 0.0
H2355 H 0.65229 0.514 0.5077 0.0
H2356 H 0.64366 0.54768 0.51807 0.0
H2357 H 0.63195 0.51873 0.53797 0.0
H2358 H 0.6835 0.53102 0.63296 0.0
H2359 H 0.66247 0.57549 0.63929 0.0
H2360 H 0.65307 0.58208 0.55326 0.0
C2361 C 0.68731 0.47925 0.53958 0.0
C2362 C 0.69429 0.4562 0.55406 0.0
C2363 C 0.69689 0.4579 0.58232 0.0
C2364 C 0.69275 0.48251 0.596 0.0
C2365 C 0.68676 0.50515 0.58093 0.0
C2366 C 0.68388 0.50363 0.55336 0.0
C2367 C 0.67656 0.53053 0.5418 0.0
C2368 C 0.70104 0.54289 0.52481 0.0
C2369 C 0.64949 0.52754 0.52545 0.0
C2370 C 0.67292 0.54672 0.56743 0.0
C2371 C 0.68034 0.53222 0.58969 0.0
C2372 C 0.67789 0.54264 0.6157 0.0
C2373 C 0.66618 0.56794 0.61909 0.0
C2374 C 0.6566 0.58193 0.59665 0.0
C2375 C 0.6607 0.57168 0.57054 0.0
H2376 H 0.68237 0.84515 0.54882 0.0
H2377 H 0.77168 0.83525 0.55181 0.0
H2378 H 0.76311 0.78598 0.55846 0.0
H2379 H 0.66496 0.80057 0.60246 0.0
H2380 H 0.63263 0.78705 0.58816 0.0
H2381 H 0.64606 0.82072 0.57956 0.0
H2382 H 0.64367 0.80646 0.52938 0.0
H2383 H 0.63189 0.77214 0.53784 0.0
H2384 H 0.66281 0.77803 0.51742 0.0
H2385 H 0.74609 0.73929 0.56728 0.0
H2386 H 0.72206 0.70014 0.58971 0.0
H2387 H 0.64342 0.73906 0.58486 0.0
C2388 C 0.69999 0.83248 0.55102 0.0
C2389 C 0.72769 0.8439 0.55 0.0
C2390 C 0.75031 0.82691 0.55299 0.0
C2391 C 0.74566 0.79883 0.55622 0.0
C2392 C 0.71821 0.78802 0.55684 0.0
C2393 C 0.69568 0.80432 0.55515 0.0
C2394 C 0.66842 0.78783 0.5602 0.0
C2395 C 0.65208 0.79974 0.58402 0.0
C2396 C 0.65065 0.78603 0.53469 0.0
C2397 C 0.67942 0.76025 0.5667 0.0
C2398 C 0.70812 0.76061 0.56318 0.0
C2399 C 0.7236 0.73854 0.56981 0.0
C2400 C 0.70976 0.71628 0.58232 0.0
C2401 C 0.68091 0.71649 0.58842 0.0
C2402 C 0.66526 0.73804 0.57935 0.0
H2403 H 0.18747 0.70708 0.43949 0.0
H2404 H 0.16971 0.73628 0.52006 0.0
H2405 H 0.15358 0.77929 0.50117 0.0
H2406 H 0.2191 0.76773 0.41953 0.0
H2407 H 0.20817 0.76424 0.3851 0.0
H2408 H 0.21248 0.73437 0.40474 0.0
H2409 H 0.16135 0.71709 0.39523 0.0
H2410 H 0.15698 0.74665 0.37501 0.0
H2411 H 0.13318 0.73902 0.40257 0.0
H2412 H 0.14435 0.82213 0.47147 0.0
H2413 H 0.14449 0.85754 0.43587 0.0
H2414 H 0.17173 0.79784 0.37767 0.0
C2415 C 0.17934 0.72204 0.45325 0.0
C2416 C 0.17951 0.71824 0.48114 0.0
C2417 C 0.16933 0.73869 0.49847 0.0
C2418 C 0.16027 0.7632 0.48792 0.0
C2419 C 0.16175 0.7668 0.46012 0.0
C2420 C 0.17104 0.7465 0.44321 0.0
C2421 C 0.17454 0.75581 0.41471 0.0
C2422 C 0.20538 0.75552 0.4055 0.0
C2423 C 0.15535 0.73863 0.39578 0.0
C2424 C 0.16535 0.78443 0.4178 0.0
C2425 C 0.15787 0.79083 0.44392 0.0
C2426 C 0.14997 0.81708 0.45094 0.0
C2427 C 0.14998 0.83704 0.43067 0.0
C2428 C 0.15807 0.83042 0.40402 0.0
C2429 C 0.16553 0.80374 0.39783 0.0
H2430 H 0.549 0.04306 0.7137 0.0
H2431 H 0.58452 0.9659 0.73091 0.0
H2432 H 0.54305 0.94126 0.71143 0.0
H2433 H 0.47662 0.01908 0.72983 0.0
H2434 H 0.46203 0.0394 0.70417 0.0
H2435 H 0.49406 0.05099 0.72031 0.0
H2436 H 0.51903 0.0549 0.67391 0.0
H2437 H 0.4871 0.04355 0.65765 0.0
H2438 H 0.5185 0.02566 0.65162 0.0
H2439 H 0.50012 0.92538 0.68769 0.0
H2440 H 0.4579 0.91879 0.66005 0.0
H2441 H 0.44863 0.006 0.65992 0.0
C2442 C 0.54809 0.02098 0.71305 0.0
C2443 C 0.56997 0.00622 0.72324 0.0
C2444 C 0.56793 0.97741 0.72288 0.0
C2445 C 0.54445 0.96332 0.71207 0.0
C2446 C 0.52308 0.97844 0.70236 0.0
C2447 C 0.52454 0.00661 0.70286 0.0
C2448 C 0.4987 0.01787 0.69095 0.0
C2449 C 0.48186 0.03271 0.7126 0.0
C2450 C 0.5063 0.03658 0.66711 0.0
C2451 C 0.48336 0.99164 0.68202 0.0
C2452 C 0.49754 0.96915 0.68944 0.0
C2453 C 0.48845 0.94273 0.68232 0.0
C2454 C 0.46438 0.93916 0.66688 0.0
C2455 C 0.44966 0.96183 0.65898 0.0
C2456 C 0.45919 0.9884 0.66656 0.0
H2457 H 0.29476 0.35755 0.93885 0.0
H2458 H 0.31857 0.33694 0.01946 0.0
H2459 H 0.33394 0.29223 0.00244 0.0
H2460 H 0.26327 0.29498 0.92356 0.0
H2461 H 0.2736 0.29554 0.88862 0.0
H2462 H 0.26926 0.32701 0.90657 0.0
H2463 H 0.32007 0.344 0.89433 0.0
H2464 H 0.32428 0.31292 0.87556 0.0
H2465 H 0.34857 0.3229 0.90169 0.0
H2466 H 0.34446 0.24727 0.97424 0.0
H2467 H 0.3494 0.21084 0.93921 0.0
H2468 H 0.31152 0.26271 0.88155 0.0
C2469 C 0.30383 0.34401 0.95294 0.0
C2470 C 0.30569 0.35075 0.98035 0.0
C2471 C 0.31735 0.33224 -0.00182 0.0
C2472 C 0.3259 0.30675 0.98873 0.0
C2473 C 0.32238 0.30021 0.96154 0.0
C2474 C 0.31168 0.31864 0.94408 0.0
C2475 C 0.30758 0.30686 0.9164 0.0
C2476 C 0.2766 0.30604 0.90835 0.0
C2477 C 0.32624 0.3226 0.89579 0.0
C2478 C 0.31733 0.27874 0.92077 0.0
C2479 C 0.32639 0.27493 0.94658 0.0
C2480 C 0.33744 0.25027 0.95398 0.0
C2481 C 0.33999 0.22961 0.93412 0.0
C2482 C 0.33081 0.23375 0.90762 0.0
C2483 C 0.31869 0.25841 0.90152 0.0
H2484 H 0.45677 0.52222 0.71473 0.0
H2485 H 0.42617 0.59569 0.75119 0.0
H2486 H 0.47122 0.62035 0.74107 0.0
H2487 H 0.52883 0.53362 0.73824 0.0
H2488 H 0.54413 0.52018 0.70794 0.0
H2489 H 0.50992 0.50752 0.71902 0.0
H2490 H 0.48887 0.51957 0.67325 0.0
H2491 H 0.52309 0.53131 0.66179 0.0
H2492 H 0.49454 0.55368 0.66058 0.0
H2493 H 0.51895 0.6375 0.72633 0.0
H2494 H 0.5621 0.64809 0.69994 0.0
H2495 H 0.56208 0.56403 0.67285 0.0
C2496 C 0.45949 0.54359 0.72024 0.0
C2497 C 0.43794 0.55714 0.73359 0.0
C2498 C 0.44241 0.58497 0.7409 0.0
C2499 C 0.46803 0.59906 0.73551 0.0
C2500 C 0.4892 0.58497 0.72312 0.0
C2501 C 0.48512 0.55796 0.71521 0.0
C2502 C 0.51089 0.54805 0.701 0.0
C2503 C 0.52422 0.52604 0.71753 0.0
C2504 C 0.50393 0.53757 0.67246 0.0
C2505 C 0.52935 0.57418 0.70068 0.0
C2506 C 0.51686 0.59494 0.71449 0.0
C2507 C 0.52917 0.62134 0.71578 0.0
C2508 C 0.55397 0.62712 0.70111 0.0
C2509 C 0.56572 0.60673 0.68496 0.0
C2510 C 0.55396 0.57971 0.68579 0.0
H2511 H 0.76134 0.23072 0.06941 0.0
H2512 H 0.8007 0.23849 0.99076 0.0
H2513 H 0.81779 0.28566 0.00235 0.0
H2514 H 0.73783 0.29829 0.07421 0.0
H2515 H 0.74458 0.30147 0.10969 0.0
H2516 H 0.73604 0.26844 0.095 0.0
H2517 H 0.78182 0.2501 0.11334 0.0
H2518 H 0.79009 0.28284 0.12865 0.0
H2519 H 0.81473 0.26808 0.10584 0.0
H2520 H 0.83249 0.33217 0.02468 0.0
H2521 H 0.84459 0.37078 0.05592 0.0
H2522 H 0.79103 0.33209 0.11694 0.0
C2523 C 0.77373 0.24222 0.05466 0.0
C2524 C 0.7799 0.23092 0.02934 0.0
C2525 C 0.79593 0.24675 0.01045 0.0
C2526 C 0.80555 0.27361 0.01677 0.0
C2527 C 0.79861 0.28435 0.04189 0.0
C2528 C 0.78307 0.26898 0.06045 0.0
C2529 C 0.77864 0.28462 0.08618 0.0
C2530 C 0.74741 0.28843 0.09156 0.0
C2531 C 0.79213 0.27059 0.10989 0.0
C2532 C 0.79411 0.31125 0.07938 0.0
C2533 C 0.80575 0.31093 0.05388 0.0
C2534 C 0.82316 0.33271 0.04458 0.0
C2535 C 0.8298 0.35465 0.06236 0.0
C2536 C 0.81908 0.35438 0.089 0.0
C2537 C 0.7998 0.33305 0.09678 0.0
H2538 H 0.56522 0.1201 0.80667 0.0
H2539 H 0.54517 0.03381 0.79429 0.0
H2540 H 0.49519 0.04126 0.80097 0.0
H2541 H 0.52231 0.12799 0.86074 0.0
H2542 H 0.51119 0.16143 0.8528 0.0
H2543 H 0.544 0.15063 0.84004 0.0
H2544 H 0.528 0.16091 0.79168 0.0
H2545 H 0.4948 0.17102 0.80479 0.0
H2546 H 0.49595 0.14477 0.77927 0.0
H2547 H 0.4493 0.05564 0.81435 0.0
H2548 H 0.41377 0.07274 0.84536 0.0
H2549 H 0.46217 0.14914 0.85353 0.0
C2550 C 0.55011 0.10297 0.80511 0.0
C2551 C 0.55891 0.07636 0.8002 0.0
C2552 C 0.53881 0.05428 0.79849 0.0
C2553 C 0.51032 0.05842 0.80163 0.0
C2554 C 0.50211 0.08479 0.80668 0.0
C2555 C 0.52141 0.10668 0.80898 0.0
C2556 C 0.50744 0.13179 0.81952 0.0
C2557 C 0.52209 0.14361 0.84479 0.0
C2558 C 0.5065 0.15339 0.7975 0.0
C2559 C 0.47823 0.11963 0.82565 0.0
C2560 C 0.47514 0.09308 0.8161 0.0
C2561 C 0.45118 0.07656 0.82144 0.0
C2562 C 0.43091 0.08651 0.83888 0.0
C2563 C 0.43505 0.11241 0.85116 0.0
C2564 C 0.45815 0.12972 0.84339 0.0
H2565 H 0.9331 0.94048 0.30888 0.0
H2566 H 0.95023 0.02799 0.31303 0.0
H2567 H 0.00026 0.02119 0.31838 0.0
H2568 H 0.97518 0.92518 0.36109 0.0
H2569 H 0.98695 0.89385 0.34669 0.0
H2570 H 0.95412 0.90612 0.33683 0.0
H2571 H 0.97146 0.90361 0.2874 0.0
H2572 H 0.00535 0.89336 0.29746 0.0
H2573 H 0.00255 0.92324 0.2772 0.0
H2574 H 0.04597 0.0065 0.32846 0.0
H2575 H 0.07931 0.98638 0.35839 0.0
H2576 H 0.0347 0.90796 0.35063 0.0
C2577 C 0.94757 0.95808 0.31091 0.0
C2578 C 0.93798 0.98472 0.31077 0.0
C2579 C 0.95719 0.00739 0.31359 0.0
C2580 C 0.98574 0.00373 0.31586 0.0
C2581 C 0.99478 0.97726 0.31549 0.0
C2582 C 0.97621 0.95475 0.31397 0.0
C2583 C 0.99069 0.92877 0.3195 0.0
C2584 C 0.97588 0.91258 0.34241 0.0
C2585 C 0.99262 0.9112 0.29387 0.0
C2586 C 0.01938 0.94063 0.3274 0.0
C2587 C 0.02185 0.96843 0.32277 0.0
C2588 C 0.04462 0.98474 0.33174 0.0
C2589 C 0.06367 0.97312 0.34854 0.0
C2590 C 0.05937 0.94575 0.35637 0.0
C2591 C 0.03861 0.92874 0.34397 0.0
H2592 H 0.42002 0.29519 0.2113 0.0
H2593 H 0.49787 0.34473 0.21245 0.0
H2594 H 0.48669 0.36098 0.25806 0.0
H2595 H 0.37896 0.3442 0.24526 0.0
H2596 H 0.35799 0.31905 0.26371 0.0
H2597 H 0.37287 0.31025 0.23161 0.0
H2598 H 0.39644 0.26997 0.25361 0.0
H2599 H 0.38205 0.27909 0.28591 0.0
H2600 H 0.41923 0.27646 0.28177 0.0
H2601 H 0.46744 0.37236 0.30309 0.0
H2602 H 0.43771 0.38374 0.34191 0.0
H2603 H 0.37191 0.3275 0.3118 0.0
C2604 C 0.43456 0.30963 0.22108 0.0
C2605 C 0.45979 0.31874 0.20827 0.0
C2606 C 0.47833 0.33758 0.22177 0.0
C2607 C 0.47235 0.34671 0.24783 0.0
C2608 C 0.44768 0.3369 0.26015 0.0
C2609 C 0.42882 0.31915 0.24714 0.0
C2610 C 0.40301 0.31318 0.26443 0.0
C2611 C 0.37666 0.32223 0.25042 0.0
C2612 C 0.40003 0.28287 0.27186 0.0
C2613 C 0.41013 0.33088 0.28883 0.0
C2614 C 0.43626 0.3439 0.28617 0.0
C2615 C 0.44696 0.36221 0.30552 0.0
C2616 C 0.42995 0.36843 0.32761 0.0
C2617 C 0.40241 0.3566 0.32994 0.0
C2618 C 0.3929 0.33682 0.31074 0.0
H2619 H 0.46046 0.79384 0.95955 0.0
H2620 H 0.45145 0.72583 0.9032 0.0
H2621 H 0.43763 0.69526 0.94036 0.0
H2622 H 0.48996 0.75538 0.01264 0.0
H2623 H 0.47252 0.77281 0.03957 0.0
H2624 H 0.48077 0.79017 0.00857 0.0
H2625 H 0.42905 0.80085 0.00369 0.0
H2626 H 0.42045 0.78322 0.03449 0.0
H2627 H 0.40265 0.77338 0.00384 0.0
H2628 H 0.42622 0.6719 0.9819 0.0
H2629 H 0.41721 0.65525 0.02732 0.0
H2630 H 0.43299 0.73711 0.05981 0.0
C2631 C 0.45499 0.77261 0.95506 0.0
C2632 C 0.45649 0.76227 0.92835 0.0
C2633 C 0.45003 0.73426 0.92335 0.0
C2634 C 0.44226 0.71672 0.94436 0.0
C2635 C 0.44115 0.72741 0.97036 0.0
C2636 C 0.44736 0.7546 0.97599 0.0
C2637 C 0.4453 0.76017 0.00616 0.0
C2638 C 0.47384 0.77022 0.01739 0.0
C2639 C 0.423 0.78064 0.01243 0.0
C2640 C 0.43645 0.73184 0.01644 0.0
C2641 C 0.43451 0.71348 0.99515 0.0
C2642 C 0.42756 0.68602 -0.00125 0.0
C2643 C 0.42257 0.67679 0.02477 0.0
C2644 C 0.42449 0.69477 0.04728 0.0
C2645 C 0.43117 0.72291 0.04305 0.0
H2646 H 0.05299 0.72137 0.69355 0.0
H2647 H 0.02671 0.79693 0.72918 0.0
H2648 H 0.04039 0.78141 0.77403 0.0
H2649 H 0.0308 0.67693 0.74564 0.0
H2650 H 0.06081 0.6564 0.74348 0.0
H2651 H 0.04938 0.67356 0.71415 0.0
H2652 H 0.09846 0.69795 0.70809 0.0
H2653 H 0.11025 0.68011 0.73682 0.0
H2654 H 0.11393 0.7168 0.73594 0.0
H2655 H 0.0553 0.75628 0.81537 0.0
H2656 H 0.07836 0.72737 0.84817 0.0
H2657 H 0.0953 0.66945 0.78453 0.0
C2658 C 0.05048 0.73475 0.71077 0.0
C2659 C 0.0389 0.76024 0.7081 0.0
C2660 C 0.03592 0.77738 0.73093 0.0
C2661 C 0.04327 0.76862 0.75646 0.0
C2662 C 0.05383 0.74287 0.75859 0.0
C2663 C 0.0581 0.72653 0.73623 0.0
C2664 C 0.07105 0.70038 0.74357 0.0
C2665 C 0.05185 0.67535 0.73628 0.0
C2666 C 0.10014 0.69873 0.73033 0.0
C2667 C 0.07303 0.70432 0.77361 0.0
C2668 C 0.06274 0.72877 0.78206 0.0
C2669 C 0.06334 0.73704 0.80901 0.0
C2670 C 0.07607 0.72043 0.82753 0.0
C2671 C 0.08809 0.69623 0.81869 0.0
C2672 C 0.08575 0.68773 0.79168 0.0
H2673 H 0.03647 0.30132 0.44978 0.0
H2674 H 0.08145 0.3682 0.40961 0.0
H2675 H 0.10552 0.38099 0.45238 0.0
H2676 H 0.02193 0.34041 0.50713 0.0
H2677 H 0.02246 0.31172 0.52933 0.0
H2678 H 0.01376 0.30644 0.4945 0.0
H2679 H 0.05317 0.27221 0.49049 0.0
H2680 H 0.0627 0.27865 0.525 0.0
H2681 H 0.0885 0.2836 0.49858 0.0
H2682 H 0.12385 0.38587 0.49985 0.0
H2683 H 0.12689 0.3903 0.54911 0.0
H2684 H 0.0637 0.32454 0.55851 0.0
C2685 C 0.05211 0.31812 0.4499 0.0
C2686 C 0.05823 0.33319 0.42659 0.0
C2687 C 0.07737 0.35605 0.42738 0.0
C2688 C 0.0911 0.36329 0.45144 0.0
C2689 C 0.08472 0.34771 0.47426 0.0
C2690 C 0.06509 0.32608 0.47374 0.0
C2691 C 0.05826 0.31546 0.5015 0.0
C2692 C 0.02727 0.31873 0.50857 0.0
C2693 C 0.06614 0.28571 0.50403 0.0
C2694 C 0.07715 0.33438 0.51803 0.0
C2695 C 0.09295 0.35225 0.50187 0.0
C2696 C 0.1117 0.37191 0.51261 0.0
C2697 C 0.11346 0.37406 0.54058 0.0
C2698 C 0.09584 0.35734 0.55737 0.0
C2699 C 0.07786 0.33696 0.54601 0.0
H2700 H 0.47152 0.7207 0.31966 0.0
H2701 H 0.48301 0.80797 0.30766 0.0
H2702 H 0.47204 0.80164 0.25984 0.0
H2703 H 0.49804 0.69875 0.25392 0.0
H2704 H 0.47162 0.67166 0.24933 0.0
H2705 H 0.48267 0.68152 0.28274 0.0
H2706 H 0.43182 0.6903 0.29703 0.0
H2707 H 0.42049 0.67914 0.26418 0.0
H2708 H 0.41168 0.71214 0.2769 0.0
H2709 H 0.45911 0.78682 0.21371 0.0
H2710 H 0.43582 0.7654 0.17421 0.0
H2711 H 0.42963 0.68796 0.21497 0.0
C2712 C 0.47175 0.73838 0.30688 0.0
C2713 C 0.4782 0.76483 0.31747 0.0
C2714 C 0.47796 0.78752 0.30016 0.0
C2715 C 0.47208 0.78413 0.27281 0.0
C2716 C 0.46614 0.75789 0.26287 0.0
C2717 C 0.46524 0.73542 0.27939 0.0
C2718 C 0.4554 0.70989 0.26384 0.0
C2719 C 0.47833 0.68924 0.26241 0.0
C2720 C 0.42823 0.69713 0.27622 0.0
C2721 C 0.45048 0.7217 0.23627 0.0
C2722 C 0.45763 0.74932 0.23607 0.0
C2723 C 0.45376 0.76514 0.21347 0.0
C2724 C 0.44089 0.75276 0.19095 0.0
C2725 C 0.43189 0.72491 0.19117 0.0
C2726 C 0.43746 0.70902 0.21385 0.0
H2727 H 0.00977 0.74996 0.0344 0.0
H2728 H 0.07558 0.72724 0.08707 0.0
H2729 H 0.10236 0.71056 0.04772 0.0
H2730 H 0.00842 0.69663 0.99003 0.0
H2731 H 0.00381 0.71644 0.9603 0.0
H2732 H 0.99246 0.72902 0.99235 0.0
H2733 H 0.02364 0.77367 0.98506 0.0
H2734 H 0.03461 0.76048 0.95285 0.0
H2735 H 0.06022 0.77135 0.9775 0.0
H2736 H 0.11923 0.69228 0.00341 0.0
H2737 H 0.1203 0.66672 0.96054 0.0
H2738 H 0.04441 0.7027 0.93637 0.0
C2739 C 0.02986 0.74145 0.03748 0.0
C2740 C 0.04062 0.73938 0.06354 0.0
C2741 C 0.0671 0.72874 0.06711 0.0
C2742 C 0.08253 0.7196 0.04489 0.0
C2743 C 0.07158 0.72227 0.01925 0.0
C2744 C 0.04583 0.73298 0.01548 0.0
C2745 C 0.03794 0.73214 0.98613 0.0
C2746 C 0.00897 0.71766 0.98199 0.0
C2747 C 0.03916 0.76112 0.97469 0.0
C2748 C 0.06145 0.71609 0.97446 0.0
C2749 C 0.08153 0.71204 0.99355 0.0
C2750 C 0.104 0.69584 0.98816 0.0
C2751 C 0.10474 0.68171 0.96351 0.0
C2752 C 0.08279 0.68336 0.945 0.0
C2753 C 0.06192 0.702 0.94984 0.0
H2754 H 0.05451 0.35478 0.81936 0.0
H2755 H 0.09182 0.27687 0.82902 0.0
H2756 H 0.10243 0.27517 0.78072 0.0
H2757 H 0.02398 0.34146 0.75677 0.0
H2758 H 0.03278 0.37349 0.74085 0.0
H2759 H 0.02784 0.37222 0.77685 0.0
H2760 H 0.07702 0.39321 0.78704 0.0
H2761 H 0.0813 0.39863 0.75151 0.0
H2762 H 0.10682 0.38049 0.76943 0.0
H2763 H 0.10608 0.27956 0.73174 0.0
H2764 H 0.11792 0.29731 0.68672 0.0
H2765 H 0.0811 0.37346 0.70788 0.0
C2766 C 0.06551 0.33771 0.81138 0.0
C2767 C 0.07198 0.31578 0.82792 0.0
C2768 C 0.08652 0.29387 0.81678 0.0
C2769 C 0.09226 0.29247 0.78926 0.0
C2770 C 0.08394 0.31343 0.77322 0.0
C2771 C 0.0721 0.33625 0.7839 0.0
C2772 C 0.0674 0.35683 0.76218 0.0
C2773 C 0.03612 0.36128 0.75903 0.0
C2774 C 0.08414 0.38388 0.76787 0.0
C2775 C 0.07886 0.34206 0.73782 0.0
C2776 C 0.08732 0.31663 0.74464 0.0
C2777 C 0.09969 0.29947 0.72609 0.0
C2778 C 0.106 0.30955 0.70049 0.0
C2779 C 0.10032 0.33661 0.694 0.0
C2780 C 0.085 0.35245 0.71222 0.0
H2781 H 0.48457 0.31676 0.53685 0.0
H2782 H 0.40922 0.32285 0.58504 0.0
H2783 H 0.38477 0.34001 0.5455 0.0
H2784 H 0.48207 0.37497 0.50128 0.0
H2785 H 0.49437 0.36095 0.46992 0.0
H2786 H 0.50355 0.34593 0.50099 0.0
H2787 H 0.48256 0.2991 0.48388 0.0
H2788 H 0.47289 0.31444 0.45285 0.0
H2789 H 0.44681 0.2961 0.473 0.0
H2790 H 0.37128 0.36254 0.50279 0.0
H2791 H 0.3719 0.3928 0.46357 0.0
H2792 H 0.4551 0.36946 0.44247 0.0
C2793 C 0.46286 0.32159 0.53899 0.0
C2794 C 0.44876 0.31889 0.5639 0.0
C2795 C 0.4203 0.32493 0.56602 0.0
C2796 C 0.40624 0.33437 0.54363 0.0
C2797 C 0.42076 0.33673 0.51918 0.0
C2798 C 0.44844 0.33034 0.51678 0.0
C2799 C 0.4601 0.3365 0.48905 0.0
C2800 C 0.48655 0.35575 0.49042 0.0
C2801 C 0.46593 0.30996 0.47379 0.0
C2802 C 0.43564 0.35007 0.47703 0.0
C2803 C 0.41266 0.34893 0.49423 0.0
C2804 C 0.38878 0.36284 0.48881 0.0
C2805 C 0.3891 0.3797 0.46623 0.0
C2806 C 0.41317 0.38251 0.44957 0.0
C2807 C 0.43609 0.36661 0.45436 0.0
H2808 H 0.20394 0.51999 0.33401 0.0
H2809 H 0.19791 0.48259 0.25462 0.0
H2810 H 0.24484 0.46594 0.2591 0.0
H2811 H 0.28292 0.53536 0.33008 0.0
H2812 H 0.28754 0.52745 0.36494 0.0
H2813 H 0.25574 0.54192 0.35426 0.0
H2814 H 0.22619 0.50135 0.37479 0.0
H2815 H 0.25786 0.48771 0.38625 0.0
H2816 H 0.23424 0.46699 0.36556 0.0
H2817 H 0.29105 0.45255 0.27112 0.0
H2818 H 0.32416 0.42662 0.2961 0.0
H2819 H 0.29891 0.46575 0.37022 0.0
C2820 C 0.21263 0.50836 0.31761 0.0
C2821 C 0.19734 0.503 0.29378 0.0
C2822 C 0.20923 0.48733 0.27293 0.0
C2823 C 0.23617 0.47817 0.27505 0.0
C2824 C 0.25114 0.48462 0.29823 0.0
C2825 C 0.23956 0.49848 0.3196 0.0
C2826 C 0.25877 0.49873 0.34371 0.0
C2827 C 0.27202 0.52757 0.34854 0.0
C2828 C 0.24333 0.48801 0.36905 0.0
C2829 C 0.28079 0.47976 0.33357 0.0
C2830 C 0.27726 0.47422 0.30647 0.0
C2831 C 0.29411 0.45674 0.29231 0.0
C2832 C 0.31315 0.44232 0.30666 0.0
C2833 C 0.31392 0.4442 0.335 0.0
C2834 C 0.29909 0.4645 0.34849 0.0
H2835 H 0.31168 0.47476 0.06437 0.0
H2836 H 0.26801 0.50376 0.99559 0.0
H2837 H 0.27896 0.55156 0.01019 0.0
H2838 H 0.29378 0.52369 0.11281 0.0
H2839 H 0.32809 0.52729 0.1273 0.0
H2840 H 0.31655 0.49563 0.11139 0.0
H2841 H 0.35983 0.4981 0.07937 0.0
H2842 H 0.37192 0.52931 0.09577 0.0
H2843 H 0.36723 0.52838 0.05992 0.0
H2844 H 0.29663 0.59697 0.03273 0.0
H2845 H 0.32351 0.6338 0.05769 0.0
H2846 H 0.35279 0.5736 0.1119 0.0
C2847 C 0.30444 0.49121 0.05245 0.0
C2848 C 0.28897 0.48576 0.02906 0.0
C2849 C 0.28016 0.50769 0.01357 0.0
C2850 C 0.28604 0.53485 0.02182 0.0
C2851 C 0.30105 0.53962 0.04539 0.0
C2852 C 0.31056 0.5183 0.06009 0.0
C2853 C 0.32807 0.52851 0.08339 0.0
C2854 C 0.31586 0.51816 0.11031 0.0
C2855 C 0.35855 0.52061 0.07938 0.0
C2856 C 0.32563 0.55884 0.0806 0.0
C2857 C 0.31044 0.56516 0.05835 0.0
C2858 C 0.30819 0.59222 0.05045 0.0
C2859 C 0.32308 0.61308 0.06494 0.0
C2860 C 0.33961 0.6065 0.08702 0.0
C2861 C 0.33964 0.57923 0.09552 0.0
H2862 H 0.30159 0.542 0.83083 0.0
H2863 H 0.30406 0.57436 0.75005 0.0
H2864 H 0.25778 0.59283 0.75759 0.0
H2865 H 0.22368 0.52631 0.82999 0.0
H2866 H 0.22104 0.53352 0.8654 0.0
H2867 H 0.25235 0.52004 0.85175 0.0
H2868 H 0.28106 0.56116 0.87288 0.0
H2869 H 0.24945 0.57438 0.88616 0.0
H2870 H 0.27228 0.59537 0.86486 0.0
H2871 H 0.21157 0.60756 0.77347 0.0
H2872 H 0.17596 0.63017 0.80024 0.0
H2873 H 0.2065 0.59449 0.8726 0.0
C2874 C 0.29245 0.55316 0.81483 0.0
C2875 C 0.30642 0.55675 0.78986 0.0
C2876 C 0.29369 0.57125 0.76932 0.0
C2877 C 0.26723 0.58152 0.77328 0.0
C2878 C 0.25365 0.577 0.79785 0.0
C2879 C 0.26607 0.56377 0.81849 0.0
C2880 C 0.24765 0.56327 0.84346 0.0
C2881 C 0.23544 0.53406 0.8479 0.0
C2882 C 0.26358 0.57425 0.86829 0.0
C2883 C 0.22498 0.58172 0.83489 0.0
C2884 C 0.22765 0.58725 0.80776 0.0
C2885 C 0.20923 0.60336 0.7947 0.0
C2886 C 0.18881 0.61586 0.81008 0.0
C2887 C 0.18822 0.61381 0.83846 0.0
C2888 C 0.20583 0.59567 0.85093 0.0
H2889 H 0.20453 0.58775 0.57508 0.0
H2890 H 0.17295 0.58724 0.49362 0.0
H2891 H 0.15702 0.53931 0.49799 0.0
H2892 H 0.22719 0.5185 0.57546 0.0
H2893 H 0.21491 0.51146 0.60918 0.0
H2894 H 0.22554 0.54584 0.59984 0.0
H2895 H 0.17728 0.56238 0.61498 0.0
H2896 H 0.1668 0.52816 0.62484 0.0
H2897 H 0.14594 0.54579 0.60148 0.0
H2898 H 0.14379 0.49223 0.51028 0.0
H2899 H 0.12758 0.4497 0.53274 0.0
H2900 H 0.16589 0.47907 0.60683 0.0
C2901 C 0.19414 0.5775 0.5583 0.0
C2902 C 0.19002 0.59134 0.53404 0.0
C2903 C 0.17619 0.57727 0.51253 0.0
C2904 C 0.1673 0.54986 0.51465 0.0
C2905 C 0.17201 0.53667 0.53853 0.0
C2906 C 0.18452 0.55 0.56024 0.0
C2907 C 0.18485 0.53122 0.58424 0.0
C2908 C 0.21492 0.52648 0.59267 0.0
C2909 C 0.16769 0.54256 0.60777 0.0
C2910 C 0.17069 0.5054 0.57245 0.0
C2911 C 0.16383 0.50906 0.54592 0.0
C2912 C 0.14922 0.48895 0.53098 0.0
C2913 C 0.14024 0.46483 0.54382 0.0
C2914 C 0.14596 0.46101 0.57127 0.0
C2915 C 0.16209 0.48119 0.58557 0.0
H2916 H 0.20542 0.57403 0.2039 0.0
H2917 H 0.20117 0.62198 0.27761 0.0
H2918 H 0.24903 0.64071 0.26953 0.0
H2919 H 0.28018 0.56036 0.20839 0.0
H2920 H 0.28664 0.56376 0.17281 0.0
H2921 H 0.25262 0.55174 0.18499 0.0
H2922 H 0.22946 0.59022 0.15969 0.0
H2923 H 0.26327 0.60167 0.14686 0.0
H2924 H 0.24204 0.62511 0.16498 0.0
H2925 H 0.29633 0.65426 0.25468 0.0
H2926 H 0.33625 0.67215 0.2275 0.0
H2927 H 0.31052 0.61867 0.16147 0.0
C2928 C 0.21455 0.58864 0.21817 0.0
C2929 C 0.19964 0.59639 0.24153 0.0
C2930 C 0.21223 0.61559 0.25969 0.0
C2931 C 0.23956 0.6261 0.25547 0.0
C2932 C 0.25412 0.61729 0.23294 0.0
C2933 C 0.24195 0.59963 0.21413 0.0
C2934 C 0.26169 0.59564 0.19042 0.0
C2935 C 0.27082 0.56612 0.18908 0.0
C2936 C 0.24832 0.60367 0.16393 0.0
C2937 C 0.28603 0.6152 0.19822 0.0
C2938 C 0.28161 0.62629 0.22349 0.0
C2939 C 0.30023 0.64562 0.23497 0.0
C2940 C 0.32303 0.65543 0.21953 0.0
C2941 C 0.32664 0.64638 0.19272 0.0
C2942 C 0.30868 0.62515 0.18227 0.0
H2943 H 0.17766 0.46932 0.00197 0.0
H2944 H 0.21945 0.44643 0.92774 0.0
H2945 H 0.20293 0.48717 0.90597 0.0
H2946 H 0.11641 0.49727 0.97019 0.0
H2947 H 0.11439 0.52429 0.99486 0.0
H2948 H 0.12795 0.49225 0.00402 0.0
H2949 H 0.17317 0.51809 0.0206 0.0
H2950 H 0.16011 0.55014 0.01075 0.0
H2951 H 0.19326 0.53983 -0.00223 0.0
H2952 H 0.18467 0.53042 0.89312 0.0
H2953 H 0.16157 0.57324 0.88724 0.0
H2954 H 0.12984 0.56856 0.96919 0.0
C2955 C 0.18264 0.47249 0.98092 0.0
C2956 C 0.19974 0.45472 0.96646 0.0
C2957 C 0.20617 0.45967 0.93908 0.0
C2958 C 0.1971 0.48286 0.92662 0.0
C2959 C 0.18139 0.50059 0.94177 0.0
C2960 C 0.17362 0.4955 0.96809 0.0
C2961 C 0.15673 0.51819 0.97971 0.0
C2962 C 0.12711 0.50735 0.98765 0.0
C2963 C 0.17172 0.5324 0.00362 0.0
C2964 C 0.15635 0.53681 0.95569 0.0
C2965 C 0.17107 0.52628 0.93427 0.0
C2966 C 0.17374 0.53936 0.90978 0.0
C2967 C 0.16065 0.56372 0.90674 0.0
C2968 C 0.14449 0.57441 0.92793 0.0
C2969 C 0.14244 0.56093 0.95283 0.0
H2970 H 0.31259 0.45886 0.7062 0.0
H2971 H 0.28862 0.47056 0.78969 0.0
H2972 H 0.23885 0.46711 0.77726 0.0
H2973 H 0.26553 0.49632 0.67526 0.0
H2974 H 0.25674 0.4727 0.64825 0.0
H2975 H 0.2904 0.47231 0.66377 0.0
H2976 H 0.28244 0.42118 0.67567 0.0
H2977 H 0.24958 0.42094 0.65853 0.0
H2978 H 0.25066 0.40985 0.69281 0.0
H2979 H 0.19127 0.4602 0.7551 0.0
H2980 H 0.15194 0.44468 0.72586 0.0
H2981 H 0.20739 0.44881 0.65675 0.0
C2982 C 0.29683 0.46005 0.7219 0.0
C2983 C 0.30438 0.46499 0.74879 0.0
C2984 C 0.28324 0.46637 0.76892 0.0
C2985 C 0.25491 0.46483 0.76203 0.0
C2986 C 0.24818 0.46167 0.73502 0.0
C2987 C 0.26854 0.45852 0.71542 0.0
C2988 C 0.25589 0.45431 0.68805 0.0
C2989 C 0.26786 0.4752 0.66765 0.0
C2990 C 0.25987 0.42485 0.67818 0.0
C2991 C 0.22556 0.45845 0.6948 0.0
C2992 C 0.22119 0.46122 0.72217 0.0
C2993 C 0.19437 0.45887 0.73357 0.0
C2994 C 0.17193 0.45082 0.71677 0.0
C2995 C 0.1767 0.44622 0.68906 0.0
C2996 C 0.2031 0.45348 0.67771 0.0
H2997 H 0.3173 0.61379 0.47 0.0
H2998 H 0.23119 0.58295 0.46305 0.0
H2999 H 0.24703 0.53755 0.45009 0.0
H3000 H 0.34167 0.57322 0.41084 0.0
H3001 H 0.3752 0.56861 0.42558 0.0
H3002 H 0.35695 0.59896 0.4331 0.0
H3003 H 0.36013 0.58896 0.48391 0.0
H3004 H 0.37791 0.55837 0.47653 0.0
H3005 H 0.34626 0.55668 0.49656 0.0
H3006 H 0.27198 0.49502 0.4406 0.0
H3007 H 0.30475 0.45893 0.43082 0.0
H3008 H 0.37468 0.51777 0.44249 0.0
C3009 C 0.30194 0.59753 0.46522 0.0
C3010 C 0.27311 0.60169 0.46716 0.0
C3011 C 0.2534 0.58011 0.46104 0.0
C3012 C 0.26217 0.55426 0.45391 0.0
C3013 C 0.29073 0.55058 0.45244 0.0
C3014 C 0.31036 0.57174 0.45727 0.0
C3015 C 0.33976 0.56237 0.45351 0.0
C3016 C 0.35425 0.57664 0.42933 0.0
C3017 C 0.35701 0.56685 0.47917 0.0
C3018 C 0.33352 0.53235 0.44756 0.0
C3019 C 0.30513 0.52604 0.44667 0.0
C3020 C 0.2943 0.4997 0.4411 0.0
C3021 C 0.31305 0.47932 0.43569 0.0
C3022 C 0.34226 0.48541 0.43614 0.0
C3023 C 0.35248 0.51227 0.44244 0.0
H3024 H 0.28092 0.23888 0.50094 0.0
H3025 H 0.30928 0.18927 0.43451 0.0
H3026 H 0.33197 0.23054 0.41353 0.0
H3027 H 0.26126 0.29252 0.46026 0.0
H3028 H 0.27058 0.31912 0.48429 0.0
H3029 H 0.26049 0.28536 0.4957 0.0
H3030 H 0.3072 0.28405 0.52129 0.0
H3031 H 0.31764 0.31773 0.50961 0.0
H3032 H 0.33983 0.28983 0.50328 0.0
H3033 H 0.35158 0.27673 0.40046 0.0
H3034 H 0.35789 0.32554 0.38998 0.0
H3035 H 0.31101 0.34607 0.46174 0.0
C3036 C 0.29264 0.2367 0.48234 0.0
C3037 C 0.29448 0.21096 0.46971 0.0
C3038 C 0.30846 0.20882 0.4447 0.0
C3039 C 0.3214 0.23208 0.43279 0.0
C3040 C 0.31948 0.25721 0.44595 0.0
C3041 C 0.30482 0.25976 0.46982 0.0
C3042 C 0.30266 0.28944 0.47799 0.0
C3043 C 0.27193 0.29705 0.47964 0.0
C3044 C 0.31773 0.29562 0.50463 0.0
C3045 C 0.3181 0.30333 0.45477 0.0
C3046 C 0.32846 0.28423 0.43708 0.0
C3047 C 0.34358 0.29182 0.41413 0.0
C3048 C 0.34724 0.31957 0.40849 0.0
C3049 C 0.33516 0.33937 0.42524 0.0
C3050 C 0.32084 0.33129 0.44897 0.0
H3051 H 0.76526 0.347 0.57625 0.0
H3052 H 0.80574 0.33439 0.49906 0.0
H3053 H 0.8239 0.29126 0.51568 0.0
H3054 H 0.81963 0.32196 0.61591 0.0
H3055 H 0.7952 0.30788 0.64052 0.0
H3056 H 0.78662 0.33713 0.62158 0.0
H3057 H 0.74091 0.3109 0.60629 0.0
H3058 H 0.74993 0.28123 0.62445 0.0
H3059 H 0.74285 0.27857 0.58899 0.0
H3060 H 0.83988 0.25038 0.54347 0.0
H3061 H 0.85349 0.21918 0.57943 0.0
H3062 H 0.79664 0.25776 0.63465 0.0
C3063 C 0.77799 0.33526 0.56276 0.0
C3064 C 0.78421 0.34397 0.53647 0.0
C3065 C 0.80106 0.32813 0.51948 0.0
C3066 C 0.81115 0.30351 0.52864 0.0
C3067 C 0.80394 0.29517 0.55466 0.0
C3068 C 0.78783 0.31084 0.57139 0.0
C3069 C 0.78359 0.29857 0.59873 0.0
C3070 C 0.79706 0.31749 0.62045 0.0
C3071 C 0.75247 0.29191 0.60495 0.0
C3072 C 0.79939 0.27313 0.59487 0.0
C3073 C 0.81147 0.27144 0.56958 0.0
C3074 C 0.83007 0.25128 0.56314 0.0
C3075 C 0.83753 0.23349 0.58356 0.0
C3076 C 0.82612 0.23611 0.60979 0.0
C3077 C 0.80564 0.25508 0.61478 0.0
H3078 H 0.46454 0.02945 0.26422 0.0
H3079 H 0.39908 0.06128 0.31463 0.0
H3080 H 0.43463 0.08643 0.34202 0.0
H3081 H 0.51156 0.01876 0.32011 0.0
H3082 H 0.54311 0.02766 0.30137 0.0
H3083 H 0.51282 0.01317 0.28425 0.0
H3084 H 0.51419 0.05456 0.25256 0.0
H3085 H 0.54445 0.06916 0.2697 0.0
H3086 H 0.51376 0.08849 0.26665 0.0
H3087 H 0.47484 0.11108 0.36072 0.0
H3088 H 0.51982 0.12596 0.37985 0.0
H3089 H 0.5626 0.07392 0.32335 0.0
C3090 C 0.45794 0.04192 0.28098 0.0
C3091 C 0.42914 0.0442 0.28713 0.0
C3092 C 0.421 0.05981 0.30952 0.0
C3093 C 0.44102 0.07419 0.32505 0.0
C3094 C 0.46914 0.07217 0.31827 0.0
C3095 C 0.47789 0.05582 0.29743 0.0
C3096 C 0.50981 0.05594 0.29639 0.0
C3097 C 0.51991 0.02717 0.30081 0.0
C3098 C 0.52123 0.06774 0.26973 0.0
C3099 C 0.51738 0.07504 0.31992 0.0
C3100 C 0.49328 0.08459 0.3314 0.0
C3101 C 0.49386 0.10338 0.35236 0.0
C3102 C 0.51961 0.11178 0.36297 0.0
C3103 C 0.54471 0.10082 0.35346 0.0
C3104 C 0.5438 0.08268 0.33103 0.0
H3105 H 0.70566 0.73805 0.01611 0.0
H3106 H 0.66433 0.68411 0.07403 0.0
H3107 H 0.64037 0.7232 0.09399 0.0
H3108 H 0.7229 0.78828 0.06241 0.0
H3109 H 0.71959 0.81638 0.03991 0.0
H3110 H 0.72758 0.78353 0.02669 0.0
H3111 H 0.68446 0.78445 -0.00427 0.0
H3112 H 0.67598 0.81712 0.0096 0.0
H3113 H 0.65035 0.78889 0.01032 0.0
H3114 H 0.62343 0.76827 0.10921 0.0
H3115 H 0.6259 0.8152 0.12744 0.0
H3116 H 0.68361 0.84019 0.06381 0.0
C3117 C 0.6907 0.73442 0.03236 0.0
C3118 C 0.68579 0.70808 0.04295 0.0
C3119 C 0.66758 0.70411 0.06525 0.0
C3120 C 0.65378 0.72614 0.0765 0.0
C3121 C 0.65892 0.752 0.06549 0.0
C3122 C 0.6776 0.75631 0.04438 0.0
C3123 C 0.68384 0.78646 0.03969 0.0
C3124 C 0.71532 0.79409 0.04237 0.0
C3125 C 0.67301 0.79471 0.0122 0.0
C3126 C 0.6668 0.79852 0.0623 0.0
C3127 C 0.65137 0.77833 0.07595 0.0
C3128 C 0.63514 0.78424 0.09849 0.0
C3129 C 0.63633 0.81107 0.10849 0.0
C3130 C 0.65447 0.83128 0.09662 0.0
C3131 C 0.66882 0.82527 0.07256 0.0
H3132 H 0.55616 0.48573 0.28768 0.0
H3133 H 0.53061 0.568 0.27625 0.0
H3134 H 0.48336 0.55465 0.29397 0.0
H3135 H 0.49181 0.44841 0.27252 0.0
H3136 H 0.49461 0.42456 0.29947 0.0
H3137 H 0.52574 0.44008 0.2842 0.0
H3138 H 0.54285 0.45836 0.33062 0.0
H3139 H 0.51226 0.44214 0.34606 0.0
H3140 H 0.52 0.47812 0.35115 0.0
H3141 H 0.43934 0.53232 0.31476 0.0
H3142 H 0.40532 0.50503 0.3429 0.0
H3143 H 0.46032 0.43803 0.34084 0.0
C3144 C 0.54048 0.50079 0.28871 0.0
C3145 C 0.54668 0.5277 0.28035 0.0
C3146 C 0.52604 0.5472 0.28258 0.0
C3147 C 0.49915 0.53975 0.29237 0.0
C3148 C 0.49348 0.51284 0.30016 0.0
C3149 C 0.5138 0.49386 0.29899 0.0
C3150 C 0.50349 0.46717 0.31125 0.0
C3151 C 0.50394 0.44367 0.29061 0.0
C3152 C 0.52065 0.4611 0.33625 0.0
C3153 C 0.47394 0.47375 0.31883 0.0
C3154 C 0.4684 0.50015 0.31224 0.0
C3155 C 0.44322 0.51145 0.31957 0.0
C3156 C 0.42384 0.49575 0.33516 0.0
C3157 C 0.42994 0.46924 0.34306 0.0
C3158 C 0.45478 0.45787 0.334 0.0
H3159 H 0.19347 0.85057 0.93528 0.0
H3160 H 0.2315 0.82308 0.00782 0.0
H3161 H 0.21226 0.77601 -0.001 0.0
H3162 H 0.13027 0.80632 0.93769 0.0
H3163 H 0.13031 0.80007 0.90193 0.0
H3164 H 0.14524 0.83182 0.91521 0.0
H3165 H 0.19228 0.82358 0.89076 0.0
H3166 H 0.17729 0.79213 0.87706 0.0
H3167 H 0.20902 0.79215 0.89612 0.0
H3168 H 0.18992 0.73142 0.98094 0.0
H3169 H 0.17166 0.69281 0.95226 0.0
H3170 H 0.14931 0.75028 0.89183 0.0
C3171 C 0.19754 0.83456 0.94924 0.0
C3172 C 0.21375 0.84002 0.97212 0.0
C3173 C 0.21906 0.81886 0.99007 0.0
C3174 C 0.20807 0.79224 0.98537 0.0
C3175 C 0.19192 0.78731 0.96258 0.0
C3176 C 0.18701 0.80785 0.94466 0.0
C3177 C 0.17109 0.79692 0.92058 0.0
C3178 C 0.14253 0.80953 0.91877 0.0
C3179 C 0.18846 0.80145 0.89461 0.0
C3180 C 0.16795 0.76708 0.92761 0.0
C3181 C 0.1797 0.76182 0.95206 0.0
C3182 C 0.18049 0.7353 0.96183 0.0
C3183 C 0.16997 0.71354 0.94558 0.0
C3184 C 0.15928 0.71871 0.91993 0.0
C3185 C 0.15745 0.74582 0.91141 0.0
H3186 H 0.4462 0.00344 0.18914 0.0
H3187 H 0.42246 0.92604 0.22621 0.0
H3188 H 0.4713 0.91234 0.22162 0.0
H3189 H 0.49393 0.978 0.14125 0.0
H3190 H 0.51687 0.00823 0.1434 0.0
H3191 H 0.48026 0.01029 0.1506 0.0
H3192 H 0.49347 0.03205 0.19702 0.0
H3193 H 0.5301 0.02826 0.19027 0.0
H3194 H 0.51392 0.01348 0.21998 0.0
H3195 H 0.52115 0.90545 0.208 0.0
H3196 H 0.56359 0.90359 0.17971 0.0
H3197 H 0.55766 0.98843 0.16001 0.0
C3198 C 0.45116 0.98346 0.19603 0.0
C3199 C 0.43059 0.96567 0.20781 0.0
C3200 C 0.43797 0.93985 0.21687 0.0
C3201 C 0.46569 0.93212 0.21477 0.0
C3202 C 0.48578 0.95072 0.20417 0.0
C3203 C 0.47872 0.97575 0.19472 0.0
C3204 C 0.50358 0.99141 0.18256 0.0
C3205 C 0.49836 -0.0027 0.15271 0.0
C3206 C 0.51068 0.01787 0.19842 0.0
C3207 C 0.52576 0.97097 0.18591 0.0
C3208 C 0.51519 0.9476 0.19857 0.0
C3209 C 0.52998 0.92385 0.19877 0.0
C3210 C 0.55453 0.92306 0.18313 0.0
C3211 C 0.56361 0.94589 0.16779 0.0
C3212 C 0.55118 0.97093 0.17208 0.0
H3213 H 0.05516 0.11328 0.71495 0.0
H3214 H 0.05783 0.03559 0.67269 0.0
H3215 H 0.00814 0.03748 0.66183 0.0
H3216 H 0.98363 0.10497 0.74033 0.0
H3217 H 0.97468 0.13931 0.73367 0.0
H3218 H 0.0102 0.13234 0.74171 0.0
H3219 H 0.03041 0.15309 0.69756 0.0
H3220 H -0.00395 0.16343 0.69083 0.0
H3221 H 0.01399 0.14349 0.66618 0.0
H3222 H 0.95876 0.04609 0.65696 0.0
H3223 H 0.92077 0.07058 0.6375 0.0
H3224 H 0.95053 0.1444 0.67768 0.0
C3225 C 0.04531 0.09683 0.70319 0.0
C3226 C 0.06002 0.07391 0.69535 0.0
C3227 C 0.0467 0.05308 0.67942 0.0
C3228 C 0.01835 0.05364 0.67367 0.0
C3229 C 0.00376 0.07534 0.68366 0.0
C3230 C 0.01705 0.09726 0.69677 0.0
C3231 C -0.00232 0.12023 0.70091 0.0
C3232 C 0.99119 0.12448 0.73094 0.0
C3233 C 0.01024 0.14658 0.68807 0.0
C3234 C 0.97205 0.10846 0.68633 0.0
C3235 C 0.97542 0.08172 0.67848 0.0
C3236 C 0.95578 0.06698 0.663 0.0
C3237 C 0.93392 0.08094 0.65242 0.0
C3238 C 0.93336 0.10948 0.65598 0.0
C3239 C 0.95047 0.12267 0.67538 0.0
loop_
_geom_bond_atom_site_label_1
_geom_bond_atom_site_label_2
_geom_bond_distance
_geom_bond_site_symmetry_2
_ccdc_geom_bond_type
In0 O1 2.294 . S
In0 O2 2.326 . S
In0 O6 2.266 . S
In0 O7 2.326 . S
In0 O8 2.266 1_455 S
In0 O9 2.326 . S
In0 O11 2.294 1_455 S
In0 O12 2.326 . S
O1 In0 2.294 . S
O1 C10 1.240 . S
O2 In0 2.326 . S
O2 C10 1.252 . S
C3 O6 1.252 . S
C3 O7 1.260 . S
C4 O11 1.240 . S
C4 O12 1.252 1_655 S
C5 O8 1.252 . S
C5 O9 1.260 1_655 S
O6 In0 2.266 . S
O6 C3 1.252 . S
O7 In0 2.326 . S
O7 C3 1.260 . S
O8 In0 2.266 1_655 S
O8 C5 1.252 . S
O9 In0 2.326 . S
O9 C5 1.260 1_455 S
C10 O1 1.240 . S
C10 O2 1.252 . S
O11 In0 2.294 1_655 S
O11 C4 1.240 . S
O12 In0 2.326 . S
O12 C4 1.252 1_455 S
In13 O14 2.294 1_455 S
In13 O15 2.326 1_455 S
In13 O19 2.266 . S
In13 O20 2.326 . S
In13 O21 2.266 1_455 S
In13 O22 2.326 1_455 S
In13 O24 2.294 . S
In13 O25 2.326 . S
O14 In13 2.294 1_655 S
O14 C23 1.240 . S
O15 In13 2.326 1_655 S
O15 C23 1.252 . S
C16 O19 1.252 . S
C16 O20 1.260 . S
C17 O24 1.240 . S
C17 O25 1.252 . S
C18 O21 1.252 . S
C18 O22 1.260 . S
O19 In13 2.266 . S
O19 C16 1.252 . S
O20 In13 2.326 . S
O20 C16 1.260 . S
O21 In13 2.266 1_655 S
O21 C18 1.252 . S
O22 In13 2.326 1_655 S
O22 C18 1.260 . S
C23 O14 1.240 . S
C23 O15 1.252 . S
O24 In13 2.294 . S
O24 C17 1.240 . S
O25 In13 2.326 . S
O25 C17 1.252 . S
In26 O27 2.294 . S
In26 O28 2.326 . S
In26 O32 2.266 . S
In26 O33 2.326 . S
In26 O34 2.266 . S
In26 O35 2.326 . S
In26 O37 2.294 . S
In26 O38 2.326 . S
O27 In26 2.294 . S
O27 C36 1.240 . S
O28 In26 2.326 . S
O28 C36 1.252 . S
C29 O32 1.252 . S
C29 O33 1.260 . S
C30 O37 1.240 . S
C30 O38 1.252 . S
C31 O34 1.252 . S
C31 O35 1.260 . S
O32 In26 2.266 . S
O32 C29 1.252 . S
O33 In26 2.326 . S
O33 C29 1.260 . S
O34 In26 2.266 . S
O34 C31 1.252 . S
O35 In26 2.326 . S
O35 C31 1.260 . S
C36 O27 1.240 . S
C36 O28 1.252 . S
O37 In26 2.294 . S
O37 C30 1.240 . S
O38 In26 2.326 . S
O38 C30 1.252 . S
In39 O40 2.294 . S
In39 O41 2.326 . S
In39 O45 2.266 . S
In39 O46 2.326 . S
In39 O47 2.266 . S
In39 O48 2.326 . S
In39 O50 2.294 . S
In39 O51 2.326 . S
O40 In39 2.294 . S
O40 C49 1.240 . S
O41 In39 2.326 . S
O41 C49 1.252 . S
C42 O45 1.252 . S
C42 O46 1.260 . S
C43 O50 1.240 . S
C43 O51 1.252 . S
C44 O47 1.252 . S
C44 O48 1.260 . S
O45 In39 2.266 . S
O45 C42 1.252 . S
O46 In39 2.326 . S
O46 C42 1.260 . S
O47 In39 2.266 . S
O47 C44 1.252 . S
O48 In39 2.326 . S
O48 C44 1.260 . S
C49 O40 1.240 . S
C49 O41 1.252 . S
O50 In39 2.294 . S
O50 C43 1.240 . S
O51 In39 2.326 . S
O51 C43 1.252 . S
In52 O53 2.294 1_455 S
In52 O54 2.326 . S
In52 O58 2.266 1_455 S
In52 O59 2.326 . S
In52 O60 2.266 . S
In52 O61 2.326 1_455 S
In52 O63 2.294 . S
In52 O64 2.326 1_455 S
O53 In52 2.294 1_655 S
O53 C62 1.240 . S
O54 In52 2.326 . S
O54 C62 1.252 1_455 S
C55 O58 1.252 . S
C55 O59 1.260 1_655 S
C56 O63 1.240 . S
C56 O64 1.252 1_455 S
C57 O60 1.252 . S
C57 O61 1.260 1_455 S
O58 In52 2.266 1_655 S
O58 C55 1.252 . S
O59 In52 2.326 . S
O59 C55 1.260 1_455 S
O60 In52 2.266 . S
O60 C57 1.252 . S
O61 In52 2.326 1_655 S
O61 C57 1.260 1_655 S
C62 O53 1.240 . S
C62 O54 1.252 1_655 S
O63 In52 2.294 . S
O63 C56 1.240 . S
O64 In52 2.326 1_655 S
O64 C56 1.252 1_655 S
In65 O66 2.294 . S
In65 O67 2.326 . S
In65 O71 2.266 . S
In65 O72 2.326 . S
In65 O73 2.266 . S
In65 O74 2.326 . S
In65 O76 2.294 . S
In65 O77 2.326 . S
O66 In65 2.294 . S
O66 C75 1.240 . S
O67 In65 2.326 . S
O67 C75 1.252 . S
C68 O71 1.252 . S
C68 O72 1.260 . S
C69 O76 1.240 . S
C69 O77 1.252 . S
C70 O73 1.252 . S
C70 O74 1.260 . S
O71 In65 2.266 . S
O71 C68 1.252 . S
O72 In65 2.326 . S
O72 C68 1.260 . S
O73 In65 2.266 . S
O73 C70 1.252 . S
O74 In65 2.326 . S
O74 C70 1.260 . S
C75 O66 1.240 . S
C75 O67 1.252 . S
O76 In65 2.294 . S
O76 C69 1.240 . S
O77 In65 2.326 . S
O77 C69 1.252 . S
In78 O79 2.294 . S
In78 O80 2.326 . S
In78 O84 2.266 . S
In78 O85 2.326 . S
In78 O86 2.266 . S
In78 O87 2.326 . S
In78 O89 2.294 . S
In78 O90 2.326 . S
O79 In78 2.294 . S
O79 C88 1.240 . S
O80 In78 2.326 . S
O80 C88 1.252 . S
C81 O84 1.252 . S
C81 O85 1.260 . S
C82 O89 1.240 . S
C82 O90 1.252 . S
C83 O86 1.252 . S
C83 O87 1.260 . S
O84 In78 2.266 . S
O84 C81 1.252 . S
O85 In78 2.326 . S
O85 C81 1.260 . S
O86 In78 2.266 . S
O86 C83 1.252 . S
O87 In78 2.326 . S
O87 C83 1.260 . S
C88 O79 1.240 . S
C88 O80 1.252 . S
O89 In78 2.294 . S
O89 C82 1.240 . S
O90 In78 2.326 . S
O90 C82 1.252 . S
In91 O92 2.294 . S
In91 O93 2.326 . S
In91 O97 2.266 . S
In91 O98 2.326 1_455 S
In91 O99 2.266 . S
In91 O100 2.326 . S
In91 O102 2.294 . S
In91 O103 2.326 1_455 S
O92 In91 2.294 . S
O92 C101 1.240 . S
O93 In91 2.326 . S
O93 C101 1.252 . S
C94 O97 1.252 1_655 S
C94 O98 1.260 . S
C95 O102 1.240 1_655 S
C95 O103 1.252 . S
C96 O99 1.252 . S
C96 O100 1.260 . S
O97 In91 2.266 . S
O97 C94 1.252 1_455 S
O98 In91 2.326 1_655 S
O98 C94 1.260 . S
O99 In91 2.266 . S
O99 C96 1.252 . S
O100 In91 2.326 . S
O100 C96 1.260 . S
C101 O92 1.240 . S
C101 O93 1.252 . S
O102 In91 2.294 . S
O102 C95 1.240 1_455 S
O103 In91 2.326 1_655 S
O103 C95 1.252 . S
In104 O105 2.276 1_545 S
In104 O106 2.330 . S
In104 O110 2.247 1_545 S
In104 O111 2.328 . S
In104 O112 2.284 . S
In104 O113 2.321 1_545 S
In104 O115 2.313 . S
In104 O116 2.325 1_545 S
O105 In104 2.276 1_565 S
O105 C114 1.240 . S
O106 In104 2.330 . S
O106 C114 1.252 1_545 S
C107 O110 1.252 . S
C107 O111 1.260 1_565 S
C108 O115 1.240 . S
C108 O116 1.252 1_545 S
C109 O112 1.252 . S
C109 O113 1.260 1_545 S
O110 In104 2.247 1_565 S
O110 C107 1.252 . S
O111 In104 2.328 . S
O111 C107 1.260 1_545 S
O112 In104 2.284 . S
O112 C109 1.252 . S
O113 In104 2.321 1_565 S
O113 C109 1.260 1_565 S
C114 O105 1.240 . S
C114 O106 1.252 1_565 S
O115 In104 2.313 . S
O115 C108 1.240 . S
O116 In104 2.325 1_565 S
O116 C108 1.252 1_565 S
In117 O118 2.294 . S
In117 O119 2.326 . S
In117 O123 2.266 . S
In117 O124 2.326 . S
In117 O125 2.266 . S
In117 O126 2.326 . S
In117 O128 2.294 . S
In117 O129 2.326 . S
O118 In117 2.294 . S
O118 C127 1.240 . S
O119 In117 2.326 . S
O119 C127 1.252 . S
C120 O123 1.252 . S
C120 O124 1.260 . S
C121 O128 1.240 . S
C121 O129 1.252 . S
C122 O125 1.252 . S
C122 O126 1.260 . S
O123 In117 2.266 . S
O123 C120 1.252 . S
O124 In117 2.326 . S
O124 C120 1.260 . S
O125 In117 2.266 . S
O125 C122 1.252 . S
O126 In117 2.326 . S
O126 C122 1.260 . S
C127 O118 1.240 . S
C127 O119 1.252 . S
O128 In117 2.294 . S
O128 C121 1.240 . S
O129 In117 2.326 . S
O129 C121 1.252 . S
In130 O131 2.294 . S
In130 O132 2.326 . S
In130 O136 2.266 . S
In130 O137 2.326 . S
In130 O138 2.266 . S
In130 O139 2.326 . S
In130 O141 2.294 . S
In130 O142 2.326 . S
O131 In130 2.294 . S
O131 C140 1.240 . S
O132 In130 2.326 . S
O132 C140 1.252 . S
C133 O136 1.252 . S
C133 O137 1.260 . S
C134 O141 1.240 . S
C134 O142 1.252 . S
C135 O138 1.252 . S
C135 O139 1.260 . S
O136 In130 2.266 . S
O136 C133 1.252 . S
O137 In130 2.326 . S
O137 C133 1.260 . S
O138 In130 2.266 . S
O138 C135 1.252 . S
O139 In130 2.326 . S
O139 C135 1.260 . S
C140 O131 1.240 . S
C140 O132 1.252 . S
O141 In130 2.294 . S
O141 C134 1.240 . S
O142 In130 2.326 . S
O142 C134 1.252 . S
In143 O144 2.294 . S
In143 O145 2.326 . S
In143 O149 2.266 . S
In143 O150 2.326 1_554 S
In143 O151 2.266 . S
In143 O152 2.326 . S
In143 O154 2.294 . S
In143 O155 2.326 1_554 S
O144 In143 2.294 . S
O144 C153 1.240 . S
O145 In143 2.326 . S
O145 C153 1.252 . S
C146 O149 1.252 1_556 S
C146 O150 1.260 . S
C147 O154 1.240 1_556 S
C147 O155 1.252 . S
C148 O151 1.252 . S
C148 O152 1.260 . S
O149 In143 2.266 . S
O149 C146 1.252 1_554 S
O150 In143 2.326 1_556 S
O150 C146 1.260 . S
O151 In143 2.266 . S
O151 C148 1.252 . S
O152 In143 2.326 . S
O152 C148 1.260 . S
C153 O144 1.240 . S
C153 O145 1.252 . S
O154 In143 2.294 . S
O154 C147 1.240 1_554 S
O155 In143 2.326 1_556 S
O155 C147 1.252 . S
In156 O157 2.294 1_554 S
In156 O158 2.326 . S
In156 O162 2.266 1_554 S
In156 O163 2.326 . S
In156 O164 2.266 . S
In156 O165 2.326 1_554 S
In156 O167 2.294 . S
In156 O168 2.327 . S
O157 In156 2.294 1_556 S
O157 C166 1.240 . S
O158 In156 2.326 . S
O158 C166 1.252 1_554 S
C159 O162 1.252 . S
C159 O163 1.260 1_556 S
C160 O167 1.240 . S
C160 O168 1.261 . S
C161 O164 1.252 . S
C161 O165 1.260 1_554 S
O162 In156 2.266 1_556 S
O162 C159 1.252 . S
O163 In156 2.326 . S
O163 C159 1.260 1_554 S
O164 In156 2.266 . S
O164 C161 1.252 . S
O165 In156 2.326 1_556 S
O165 C161 1.260 1_556 S
C166 O157 1.240 . S
C166 O158 1.252 1_556 S
O167 In156 2.294 . S
O167 C160 1.240 . S
O168 In156 2.327 . S
O168 C160 1.261 . S
In169 O170 2.294 . S
In169 O171 2.326 1_554 S
In169 O175 2.266 . S
In169 O176 2.326 1_554 S
In169 O177 2.266 1_554 S
In169 O178 2.326 . S
In169 O180 2.294 1_554 S
In169 O181 2.326 . S
O170 In169 2.294 . S
O170 C179 1.240 . S
O171 In169 2.326 1_556 S
O171 C179 1.252 1_556 S
C172 O175 1.252 . S
C172 O176 1.260 1_554 S
C173 O180 1.240 . S
C173 O181 1.252 1_556 S
C174 O177 1.252 . S
C174 O178 1.260 1_556 S
O175 In169 2.266 . S
O175 C172 1.252 . S
O176 In169 2.326 1_556 S
O176 C172 1.260 1_556 S
O177 In169 2.266 1_556 S
O177 C174 1.252 . S
O178 In169 2.326 . S
O178 C174 1.260 1_554 S
C179 O170 1.240 . S
C179 O171 1.252 1_554 S
O180 In169 2.294 1_556 S
O180 C173 1.240 . S
O181 In169 2.326 . S
O181 C173 1.252 1_554 S
In182 O183 2.294 . S
In182 O184 2.326 . S
In182 O188 2.266 . S
In182 O189 2.326 . S
In182 O190 2.266 . S
In182 O191 2.326 . S
In182 O193 2.294 . S
In182 O194 2.326 . S
O183 In182 2.294 . S
O183 C192 1.240 . S
O184 In182 2.326 . S
O184 C192 1.252 . S
C185 O188 1.252 . S
C185 O189 1.260 . S
C186 O193 1.240 . S
C186 O194 1.252 . S
C187 O190 1.252 . S
C187 O191 1.260 . S
O188 In182 2.266 . S
O188 C185 1.252 . S
O189 In182 2.326 . S
O189 C185 1.260 . S
O190 In182 2.266 . S
O190 C187 1.252 . S
O191 In182 2.326 . S
O191 C187 1.260 . S
C192 O183 1.240 . S
C192 O184 1.252 . S
O193 In182 2.294 . S
O193 C186 1.240 . S
O194 In182 2.326 . S
O194 C186 1.252 . S
In195 O196 2.294 . S
In195 O197 2.326 . S
In195 O201 2.266 . S
In195 O202 2.326 . S
In195 O203 2.266 . S
In195 O204 2.326 . S
In195 O206 2.294 . S
In195 O207 2.326 . S
O196 In195 2.294 . S
O196 C205 1.240 . S
O197 In195 2.326 . S
O197 C205 1.252 . S
C198 O201 1.252 . S
C198 O202 1.260 . S
C199 O206 1.240 . S
C199 O207 1.252 . S
C200 O203 1.252 . S
C200 O204 1.260 . S
O201 In195 2.266 . S
O201 C198 1.252 . S
O202 In195 2.326 . S
O202 C198 1.260 . S
O203 In195 2.266 . S
O203 C200 1.252 . S
O204 In195 2.326 . S
O204 C200 1.260 . S
C205 O196 1.240 . S
C205 O197 1.252 . S
O206 In195 2.294 . S
O206 C199 1.240 . S
O207 In195 2.326 . S
O207 C199 1.252 . S
In208 O209 2.294 1_545 S
In208 O210 2.326 1_545 S
In208 O214 2.266 . S
In208 O215 2.326 . S
In208 O216 2.266 1_545 S
In208 O217 2.326 1_545 S
In208 O219 2.294 . S
In208 O220 2.326 . S
O209 In208 2.294 1_565 S
O209 C218 1.240 . S
O210 In208 2.326 1_565 S
O210 C218 1.252 . S
C211 O214 1.252 . S
C211 O215 1.260 . S
C212 O219 1.240 . S
C212 O220 1.252 . S
C213 O216 1.252 . S
C213 O217 1.260 . S
O214 In208 2.266 . S
O214 C211 1.252 . S
O215 In208 2.326 . S
O215 C211 1.260 . S
O216 In208 2.266 1_565 S
O216 C213 1.252 . S
O217 In208 2.326 1_565 S
O217 C213 1.260 . S
C218 O209 1.240 . S
C218 O210 1.252 . S
O219 In208 2.294 . S
O219 C212 1.240 . S
O220 In208 2.326 . S
O220 C212 1.252 . S
In221 O222 2.294 . S
In221 O223 2.326 . S
In221 O227 2.266 . S
In221 O228 2.326 . S
In221 O229 2.266 . S
In221 O230 2.326 . S
In221 O232 2.294 . S
In221 O233 2.326 . S
O222 In221 2.294 . S
O222 C231 1.240 . S
O223 In221 2.326 . S
O223 C231 1.252 . S
C224 O227 1.252 . S
C224 O228 1.260 . S
C225 O232 1.240 . S
C225 O233 1.252 . S
C226 O229 1.252 . S
C226 O230 1.260 . S
O227 In221 2.266 . S
O227 C224 1.252 . S
O228 In221 2.326 . S
O228 C224 1.260 . S
O229 In221 2.266 . S
O229 C226 1.252 . S
O230 In221 2.326 . S
O230 C226 1.260 . S
C231 O222 1.240 . S
C231 O223 1.252 . S
O232 In221 2.294 . S
O232 C225 1.240 . S
O233 In221 2.326 . S
O233 C225 1.252 . S
In234 O235 2.294 . S
In234 O236 2.326 . S
In234 O240 2.266 . S
In234 O241 2.326 . S
In234 O242 2.266 . S
In234 O243 2.326 . S
In234 O245 2.294 . S
In234 O246 2.326 . S
O235 In234 2.294 . S
O235 C244 1.240 . S
O236 In234 2.326 . S
O236 C244 1.252 . S
C237 O240 1.252 . S
C237 O241 1.260 . S
C238 O245 1.240 . S
C238 O246 1.252 . S
C239 O242 1.252 . S
C239 O243 1.260 . S
O240 In234 2.266 . S
O240 C237 1.252 . S
O241 In234 2.326 . S
O241 C237 1.260 . S
O242 In234 2.266 . S
O242 C239 1.252 . S
O243 In234 2.326 . S
O243 C239 1.260 . S
C244 O235 1.240 . S
C244 O236 1.252 . S
O245 In234 2.294 . S
O245 C238 1.240 . S
O246 In234 2.326 . S
O246 C238 1.252 . S
In247 O248 2.294 . S
In247 O249 2.326 . S
In247 O253 2.266 . S
In247 O254 2.326 . S
In247 O255 2.266 . S
In247 O256 2.326 . S
In247 O258 2.294 . S
In247 O259 2.326 . S
O248 In247 2.294 . S
O248 C257 1.240 . S
O249 In247 2.326 . S
O249 C257 1.252 . S
C250 O253 1.252 . S
C250 O254 1.260 . S
C251 O258 1.240 . S
C251 O259 1.252 . S
C252 O255 1.252 . S
C252 O256 1.260 . S
O253 In247 2.266 . S
O253 C250 1.252 . S
O254 In247 2.326 . S
O254 C250 1.260 . S
O255 In247 2.266 . S
O255 C252 1.252 . S
O256 In247 2.326 . S
O256 C252 1.260 . S
C257 O248 1.240 . S
C257 O249 1.252 . S
O258 In247 2.294 . S
O258 C251 1.240 . S
O259 In247 2.326 . S
O259 C251 1.252 . S
In260 O261 2.294 . S
In260 O262 2.326 . S
In260 O266 2.266 1_554 S
In260 O267 2.326 1_554 S
In260 O268 2.266 . S
In260 O269 2.326 . S
In260 O271 2.294 1_554 S
In260 O272 2.326 1_554 S
O261 In260 2.294 . S
O261 C270 1.240 . S
O262 In260 2.326 . S
O262 C270 1.252 . S
C263 O266 1.252 . S
C263 O267 1.260 . S
C264 O271 1.240 . S
C264 O272 1.252 . S
C265 O268 1.252 . S
C265 O269 1.260 . S
O266 In260 2.266 1_556 S
O266 C263 1.252 . S
O267 In260 2.326 1_556 S
O267 C263 1.260 . S
O268 In260 2.266 . S
O268 C265 1.252 . S
O269 In260 2.326 . S
O269 C265 1.260 . S
C270 O261 1.240 . S
C270 O262 1.252 . S
O271 In260 2.294 1_556 S
O271 C264 1.240 . S
O272 In260 2.326 1_556 S
O272 C264 1.252 . S
In273 O274 2.294 . S
In273 O275 2.326 . S
In273 O279 2.266 . S
In273 O280 2.326 . S
In273 O281 2.266 . S
In273 O282 2.326 . S
In273 O284 2.294 . S
In273 O285 2.326 . S
O274 In273 2.294 . S
O274 C283 1.240 . S
O275 In273 2.326 . S
O275 C283 1.252 . S
C276 O279 1.252 . S
C276 O280 1.260 . S
C277 O284 1.240 . S
C277 O285 1.252 . S
C278 O281 1.252 . S
C278 O282 1.260 . S
O279 In273 2.266 . S
O279 C276 1.252 . S
O280 In273 2.326 . S
O280 C276 1.260 . S
O281 In273 2.266 . S
O281 C278 1.252 . S
O282 In273 2.326 . S
O282 C278 1.260 . S
C283 O274 1.240 . S
C283 O275 1.252 . S
O284 In273 2.294 . S
O284 C277 1.240 . S
O285 In273 2.326 . S
O285 C277 1.252 . S
In286 O287 2.294 . S
In286 O288 2.326 . S
In286 O292 2.266 . S
In286 O293 2.326 . S
In286 O294 2.266 . S
In286 O295 2.326 . S
In286 O297 2.294 . S
In286 O298 2.326 . S
O287 In286 2.294 . S
O287 C296 1.240 . S
O288 In286 2.326 . S
O288 C296 1.252 . S
C289 O292 1.252 . S
C289 O293 1.260 . S
C290 O297 1.240 . S
C290 O298 1.252 . S
C291 O294 1.252 . S
C291 O295 1.260 . S
O292 In286 2.266 . S
O292 C289 1.252 . S
O293 In286 2.326 . S
O293 C289 1.260 . S
O294 In286 2.266 . S
O294 C291 1.252 . S
O295 In286 2.326 . S
O295 C291 1.260 . S
C296 O287 1.240 . S
C296 O288 1.252 . S
O297 In286 2.294 . S
O297 C290 1.240 . S
O298 In286 2.326 . S
O298 C290 1.252 . S
In299 O300 2.294 . S
In299 O301 2.326 . S
In299 O305 2.266 . S
In299 O306 2.326 . S
In299 O307 2.266 . S
In299 O308 2.326 . S
In299 O310 2.294 . S
In299 O311 2.326 . S
O300 In299 2.294 . S
O300 C309 1.240 . S
O301 In299 2.326 . S
O301 C309 1.252 . S
C302 O305 1.252 . S
C302 O306 1.260 . S
C303 O310 1.240 . S
C303 O311 1.252 . S
C304 O307 1.252 . S
C304 O308 1.260 . S
O305 In299 2.266 . S
O305 C302 1.252 . S
O306 In299 2.326 . S
O306 C302 1.260 . S
O307 In299 2.266 . S
O307 C304 1.252 . S
O308 In299 2.326 . S
O308 C304 1.260 . S
C309 O300 1.240 . S
C309 O301 1.252 . S
O310 In299 2.294 . S
O310 C303 1.240 . S
O311 In299 2.326 . S
O311 C303 1.252 . S
O312 Mn313 2.163 . S
O312 C326 1.244 . S
Mn313 O312 2.163 . S
Mn313 O316 2.160 . S
Mn313 O317 2.221 . S
Mn313 O319 2.163 . S
Mn313 O321 2.160 . S
Mn313 O331 2.221 . S
O314 Mn315 2.087 . S
O314 C326 1.256 . S
Mn315 O314 2.087 . S
Mn315 O322 2.089 . S
Mn315 O331 2.290 . S
Mn315 O332 2.251 . S
O316 Mn313 2.160 . S
O316 C327 1.239 . S
O317 Mn313 2.221 . S
O317 Mn318 2.290 . S
O317 C328 1.278 . S
Mn318 O317 2.290 . S
Mn318 O320 2.089 . S
Mn318 O323 2.251 . S
Mn318 O324 2.087 . S
O319 Mn313 2.163 . S
O319 C329 1.244 . S
O320 Mn318 2.089 . S
O320 C327 1.256 . S
O321 Mn313 2.160 . S
O321 C330 1.239 . S
O322 Mn315 2.089 . S
O322 C330 1.256 . S
O323 Mn318 2.251 . S
O323 C328 1.241 . S
O324 Mn318 2.087 . S
O324 C329 1.256 . S
C325 O331 1.278 . S
C325 O332 1.241 . S
C326 O312 1.244 . S
C326 O314 1.256 . S
C327 O316 1.239 . S
C327 O320 1.256 . S
C328 O317 1.278 . S
C328 O323 1.241 . S
C329 O319 1.244 . S
C329 O324 1.256 . S
C330 O321 1.239 . S
C330 O322 1.256 . S
O331 Mn313 2.221 . S
O331 Mn315 2.290 . S
O331 C325 1.278 . S
O332 Mn315 2.251 . S
O332 C325 1.241 . S
O333 Mn334 2.163 . S
O333 C347 1.244 . S
Mn334 O333 2.163 . S
Mn334 O337 2.160 . S
Mn334 O338 2.221 . S
Mn334 O340 2.163 . S
Mn334 O342 2.160 . S
Mn334 O352 2.221 . S
O335 Mn336 2.087 . S
O335 C347 1.256 . S
Mn336 O335 2.087 . S
Mn336 O343 2.089 . S
Mn336 O352 2.290 . S
Mn336 O353 2.251 . S
O337 Mn334 2.160 . S
O337 C348 1.239 . S
O338 Mn334 2.221 . S
O338 Mn339 2.290 . S
O338 C349 1.278 . S
Mn339 O338 2.290 . S
Mn339 O341 2.089 . S
Mn339 O344 2.251 . S
Mn339 O345 2.087 . S
O340 Mn334 2.163 . S
O340 C350 1.244 . S
O341 Mn339 2.089 . S
O341 C348 1.256 . S
O342 Mn334 2.160 . S
O342 C351 1.239 . S
O343 Mn336 2.089 . S
O343 C351 1.256 . S
O344 Mn339 2.251 . S
O344 C349 1.241 . S
O345 Mn339 2.087 . S
O345 C350 1.256 . S
C346 O352 1.278 . S
C346 O353 1.241 . S
C347 O333 1.244 . S
C347 O335 1.256 . S
C348 O337 1.239 . S
C348 O341 1.256 . S
C349 O338 1.278 . S
C349 O344 1.241 . S
C350 O340 1.244 . S
C350 O345 1.256 . S
C351 O342 1.239 . S
C351 O343 1.256 . S
O352 Mn334 2.221 . S
O352 Mn336 2.290 . S
O352 C346 1.278 . S
O353 Mn336 2.251 . S
O353 C346 1.241 . S
O354 Mn355 2.163 . S
O354 C368 1.244 . S
Mn355 O354 2.163 . S
Mn355 O358 2.160 . S
Mn355 O359 2.221 . S
Mn355 O361 2.163 . S
Mn355 O363 2.160 . S
Mn355 O373 2.221 . S
O356 Mn357 2.087 . S
O356 C368 1.256 . S
Mn357 O356 2.087 . S
Mn357 O364 2.089 . S
Mn357 O373 2.290 . S
Mn357 O374 2.251 . S
O358 Mn355 2.160 . S
O358 C369 1.239 . S
O359 Mn355 2.221 . S
O359 Mn360 2.290 . S
O359 C370 1.278 . S
Mn360 O359 2.290 . S
Mn360 O362 2.089 . S
Mn360 O365 2.251 . S
Mn360 O366 2.087 . S
O361 Mn355 2.163 . S
O361 C371 1.244 . S
O362 Mn360 2.089 . S
O362 C369 1.256 . S
O363 Mn355 2.160 . S
O363 C372 1.239 . S
O364 Mn357 2.089 . S
O364 C372 1.256 . S
O365 Mn360 2.251 . S
O365 C370 1.241 . S
O366 Mn360 2.087 . S
O366 C371 1.256 . S
C367 O373 1.278 . S
C367 O374 1.241 . S
C368 O354 1.244 . S
C368 O356 1.256 . S
C369 O358 1.239 . S
C369 O362 1.256 . S
C370 O359 1.278 . S
C370 O365 1.241 . S
C371 O361 1.244 . S
C371 O366 1.256 . S
C372 O363 1.239 . S
C372 O364 1.256 . S
O373 Mn355 2.221 . S
O373 Mn357 2.290 . S
O373 C367 1.278 . S
O374 Mn357 2.251 . S
O374 C367 1.241 . S
O375 Mn376 2.163 . S
O375 C389 1.244 . S
Mn376 O375 2.163 . S
Mn376 O379 2.160 . S
Mn376 O380 2.221 . S
Mn376 O382 2.163 . S
Mn376 O384 2.160 . S
Mn376 O394 2.221 . S
O377 Mn378 2.087 . S
O377 C389 1.256 . S
Mn378 O377 2.087 . S
Mn378 O385 2.089 . S
Mn378 O394 2.290 . S
Mn378 O395 2.251 . S
O379 Mn376 2.160 . S
O379 C390 1.239 . S
O380 Mn376 2.221 . S
O380 Mn381 2.290 . S
O380 C391 1.278 . S
Mn381 O380 2.290 . S
Mn381 O383 2.089 . S
Mn381 O386 2.251 . S
Mn381 O387 2.087 . S
O382 Mn376 2.163 . S
O382 C392 1.244 . S
O383 Mn381 2.089 . S
O383 C390 1.256 . S
O384 Mn376 2.160 . S
O384 C393 1.239 . S
O385 Mn378 2.089 . S
O385 C393 1.256 . S
O386 Mn381 2.251 . S
O386 C391 1.241 . S
O387 Mn381 2.087 . S
O387 C392 1.256 . S
C388 O394 1.278 . S
C388 O395 1.241 . S
C389 O375 1.244 . S
C389 O377 1.256 . S
C390 O379 1.239 . S
C390 O383 1.256 . S
C391 O380 1.278 . S
C391 O386 1.241 . S
C392 O382 1.244 . S
C392 O387 1.256 . S
C393 O384 1.239 . S
C393 O385 1.256 . S
O394 Mn376 2.221 . S
O394 Mn378 2.290 . S
O394 C388 1.278 . S
O395 Mn378 2.251 . S
O395 C388 1.241 . S
O396 Mn397 2.163 . S
O396 C410 1.244 . S
Mn397 O396 2.163 . S
Mn397 O400 2.160 . S
Mn397 O401 2.221 . S
Mn397 O403 2.163 . S
Mn397 O405 2.160 . S
Mn397 O415 2.221 . S
O398 Mn399 2.087 . S
O398 C410 1.256 . S
Mn399 O398 2.087 . S
Mn399 O406 2.089 . S
Mn399 O415 2.290 . S
Mn399 O416 2.251 . S
O400 Mn397 2.160 . S
O400 C411 1.239 . S
O401 Mn397 2.221 . S
O401 Mn402 2.290 . S
O401 C412 1.278 . S
Mn402 O401 2.290 . S
Mn402 O404 2.089 . S
Mn402 O407 2.251 . S
Mn402 O408 2.087 . S
O403 Mn397 2.163 . S
O403 C413 1.244 . S
O404 Mn402 2.089 . S
O404 C411 1.256 . S
O405 Mn397 2.160 . S
O405 C414 1.239 . S
O406 Mn399 2.089 . S
O406 C414 1.256 . S
O407 Mn402 2.251 . S
O407 C412 1.241 . S
O408 Mn402 2.087 . S
O408 C413 1.256 . S
C409 O415 1.278 . S
C409 O416 1.241 . S
C410 O396 1.244 . S
C410 O398 1.256 . S
C411 O400 1.239 . S
C411 O404 1.256 . S
C412 O401 1.278 . S
C412 O407 1.241 . S
C413 O403 1.244 . S
C413 O408 1.256 . S
C414 O405 1.239 . S
C414 O406 1.256 . S
O415 Mn397 2.221 . S
O415 Mn399 2.290 . S
O415 C409 1.278 . S
O416 Mn399 2.251 . S
O416 C409 1.241 . S
O417 Mn418 2.163 . S
O417 C431 1.244 . S
Mn418 O417 2.163 . S
Mn418 O421 2.160 . S
Mn418 O422 2.221 . S
Mn418 O424 2.163 . S
Mn418 O426 2.160 . S
Mn418 O436 2.221 . S
O419 Mn420 2.087 . S
O419 C431 1.256 . S
Mn420 O419 2.087 . S
Mn420 O427 2.089 . S
Mn420 O436 2.290 . S
Mn420 O437 2.251 . S
O421 Mn418 2.160 . S
O421 C432 1.239 . S
O422 Mn418 2.221 . S
O422 Mn423 2.290 . S
O422 C433 1.278 . S
Mn423 O422 2.290 . S
Mn423 O425 2.089 . S
Mn423 O428 2.251 . S
Mn423 O429 2.087 . S
O424 Mn418 2.163 . S
O424 C434 1.244 . S
O425 Mn423 2.089 . S
O425 C432 1.256 . S
O426 Mn418 2.160 . S
O426 C435 1.239 . S
O427 Mn420 2.089 . S
O427 C435 1.256 . S
O428 Mn423 2.251 . S
O428 C433 1.241 . S
O429 Mn423 2.087 . S
O429 C434 1.256 . S
C430 O436 1.278 . S
C430 O437 1.241 . S
C431 O417 1.244 . S
C431 O419 1.256 . S
C432 O421 1.239 . S
C432 O425 1.256 . S
C433 O422 1.278 . S
C433 O428 1.241 . S
C434 O424 1.244 . S
C434 O429 1.256 . S
C435 O426 1.239 . S
C435 O427 1.256 . S
O436 Mn418 2.221 . S
O436 Mn420 2.290 . S
O436 C430 1.278 . S
O437 Mn420 2.251 . S
O437 C430 1.241 . S
O438 Mn439 2.163 . S
O438 C452 1.244 . S
Mn439 O438 2.163 . S
Mn439 O442 2.160 . S
Mn439 O443 2.221 . S
Mn439 O445 2.163 . S
Mn439 O447 2.160 . S
Mn439 O457 2.221 . S
O440 Mn441 2.087 . S
O440 C452 1.256 . S
Mn441 O440 2.087 . S
Mn441 O448 2.089 . S
Mn441 O457 2.290 . S
Mn441 O458 2.251 . S
O442 Mn439 2.160 . S
O442 C453 1.239 . S
O443 Mn439 2.221 . S
O443 Mn444 2.290 . S
O443 C454 1.278 . S
Mn444 O443 2.290 . S
Mn444 O446 2.089 . S
Mn444 O449 2.251 . S
Mn444 O450 2.087 . S
O445 Mn439 2.163 . S
O445 C455 1.244 . S
O446 Mn444 2.089 . S
O446 C453 1.256 . S
O447 Mn439 2.160 . S
O447 C456 1.239 . S
O448 Mn441 2.089 . S
O448 C456 1.256 . S
O449 Mn444 2.251 . S
O449 C454 1.241 . S
O450 Mn444 2.087 . S
O450 C455 1.256 . S
C451 O457 1.278 . S
C451 O458 1.241 . S
C452 O438 1.244 . S
C452 O440 1.256 . S
C453 O442 1.239 . S
C453 O446 1.256 . S
C454 O443 1.278 . S
C454 O449 1.241 . S
C455 O445 1.244 . S
C455 O450 1.256 . S
C456 O447 1.239 . S
C456 O448 1.256 . S
O457 Mn439 2.221 . S
O457 Mn441 2.290 . S
O457 C451 1.278 . S
O458 Mn441 2.251 . S
O458 C451 1.241 . S
O459 Mn460 2.163 . S
O459 C473 1.244 . S
Mn460 O459 2.163 . S
Mn460 O463 2.160 . S
Mn460 O464 2.221 . S
Mn460 O466 2.163 . S
Mn460 O468 2.160 . S
Mn460 O478 2.221 . S
O461 Mn462 2.087 . S
O461 C473 1.256 . S
Mn462 O461 2.087 . S
Mn462 O469 2.089 . S
Mn462 O478 2.290 . S
Mn462 O479 2.251 . S
O463 Mn460 2.160 . S
O463 C474 1.239 . S
O464 Mn460 2.221 . S
O464 Mn465 2.290 . S
O464 C475 1.278 . S
Mn465 O464 2.290 . S
Mn465 O467 2.089 . S
Mn465 O470 2.251 . S
Mn465 O471 2.087 . S
O466 Mn460 2.163 . S
O466 C476 1.244 . S
O467 Mn465 2.089 . S
O467 C474 1.256 . S
O468 Mn460 2.160 . S
O468 C477 1.239 . S
O469 Mn462 2.089 . S
O469 C477 1.256 . S
O470 Mn465 2.251 . S
O470 C475 1.241 . S
O471 Mn465 2.087 . S
O471 C476 1.256 . S
C472 O478 1.278 . S
C472 O479 1.241 . S
C473 O459 1.244 . S
C473 O461 1.256 . S
C474 O463 1.239 . S
C474 O467 1.256 . S
C475 O464 1.278 . S
C475 O470 1.241 . S
C476 O466 1.244 . S
C476 O471 1.256 . S
C477 O468 1.239 . S
C477 O469 1.256 . S
O478 Mn460 2.221 . S
O478 Mn462 2.290 . S
O478 C472 1.278 . S
O479 Mn462 2.251 . S
O479 C472 1.241 . S
O480 Mn481 2.163 . S
O480 C494 1.244 . S
Mn481 O480 2.163 . S
Mn481 O484 2.160 . S
Mn481 O485 2.221 . S
Mn481 O487 2.163 . S
Mn481 O489 2.160 . S
Mn481 O499 2.221 . S
O482 Mn483 2.087 . S
O482 C494 1.256 . S
Mn483 O482 2.087 . S
Mn483 O490 2.089 . S
Mn483 O499 2.290 . S
Mn483 O500 2.251 . S
O484 Mn481 2.160 . S
O484 C495 1.239 . S
O485 Mn481 2.221 . S
O485 Mn486 2.290 . S
O485 C496 1.278 . S
Mn486 O485 2.290 . S
Mn486 O488 2.089 . S
Mn486 O491 2.251 . S
Mn486 O492 2.087 . S
O487 Mn481 2.163 . S
O487 C497 1.244 . S
O488 Mn486 2.089 . S
O488 C495 1.256 . S
O489 Mn481 2.160 . S
O489 C498 1.239 . S
O490 Mn483 2.089 . S
O490 C498 1.256 . S
O491 Mn486 2.251 . S
O491 C496 1.241 . S
O492 Mn486 2.087 . S
O492 C497 1.256 . S
C493 O499 1.278 . S
C493 O500 1.241 . S
C494 O480 1.244 . S
C494 O482 1.256 . S
C495 O484 1.239 . S
C495 O488 1.256 . S
C496 O485 1.278 . S
C496 O491 1.241 . S
C497 O487 1.244 . S
C497 O492 1.256 . S
C498 O489 1.239 . S
C498 O490 1.256 . S
O499 Mn481 2.221 . S
O499 Mn483 2.290 . S
O499 C493 1.278 . S
O500 Mn483 2.251 . S
O500 C493 1.241 . S
O501 Mn502 2.163 . S
O501 C515 1.244 . S
Mn502 O501 2.163 . S
Mn502 O505 2.160 . S
Mn502 O506 2.221 . S
Mn502 O508 2.163 . S
Mn502 O510 2.160 . S
Mn502 O520 2.221 . S
O503 Mn504 2.087 . S
O503 C515 1.256 . S
Mn504 O503 2.087 . S
Mn504 O511 2.089 . S
Mn504 O520 2.290 . S
Mn504 O521 2.251 . S
O505 Mn502 2.160 . S
O505 C516 1.239 . S
O506 Mn502 2.221 . S
O506 Mn507 2.290 . S
O506 C517 1.278 . S
Mn507 O506 2.290 . S
Mn507 O509 2.089 . S
Mn507 O512 2.251 . S
Mn507 O513 2.087 . S
O508 Mn502 2.163 . S
O508 C518 1.244 . S
O509 Mn507 2.089 . S
O509 C516 1.256 . S
O510 Mn502 2.160 . S
O510 C519 1.239 . S
O511 Mn504 2.089 . S
O511 C519 1.256 . S
O512 Mn507 2.251 . S
O512 C517 1.241 . S
O513 Mn507 2.087 . S
O513 C518 1.256 . S
C514 O520 1.278 . S
C514 O521 1.241 . S
C515 O501 1.244 . S
C515 O503 1.256 . S
C516 O505 1.239 . S
C516 O509 1.256 . S
C517 O506 1.278 . S
C517 O512 1.241 . S
C518 O508 1.244 . S
C518 O513 1.256 . S
C519 O510 1.239 . S
C519 O511 1.256 . S
O520 Mn502 2.221 . S
O520 Mn504 2.290 . S
O520 C514 1.278 . S
O521 Mn504 2.251 . S
O521 C514 1.241 . S
O522 Mn523 2.163 . S
O522 C536 1.244 . S
Mn523 O522 2.163 . S
Mn523 O526 2.160 . S
Mn523 O527 2.221 . S
Mn523 O529 2.163 . S
Mn523 O531 2.160 . S
Mn523 O541 2.221 . S
O524 Mn525 2.087 . S
O524 C536 1.256 . S
Mn525 O524 2.087 . S
Mn525 O532 2.089 . S
Mn525 O541 2.290 . S
Mn525 O542 2.251 . S
O526 Mn523 2.160 . S
O526 C537 1.239 . S
O527 Mn523 2.221 . S
O527 Mn528 2.290 . S
O527 C538 1.278 . S
Mn528 O527 2.290 . S
Mn528 O530 2.089 . S
Mn528 O533 2.251 . S
Mn528 O534 2.087 . S
O529 Mn523 2.163 . S
O529 C539 1.244 . S
O530 Mn528 2.089 . S
O530 C537 1.256 . S
O531 Mn523 2.160 . S
O531 C540 1.239 . S
O532 Mn525 2.089 . S
O532 C540 1.256 . S
O533 Mn528 2.251 . S
O533 C538 1.241 . S
O534 Mn528 2.087 . S
O534 C539 1.256 . S
C535 O541 1.278 . S
C535 O542 1.241 . S
C536 O522 1.244 . S
C536 O524 1.256 . S
C537 O526 1.239 . S
C537 O530 1.256 . S
C538 O527 1.278 . S
C538 O533 1.241 . S
C539 O529 1.244 . S
C539 O534 1.256 . S
C540 O531 1.239 . S
C540 O532 1.256 . S
O541 Mn523 2.221 . S
O541 Mn525 2.290 . S
O541 C535 1.278 . S
O542 Mn525 2.251 . S
O542 C535 1.241 . S
O543 Mn544 2.163 . S
O543 C557 1.244 . S
Mn544 O543 2.163 . S
Mn544 O547 2.160 . S
Mn544 O548 2.221 . S
Mn544 O550 2.163 . S
Mn544 O552 2.160 . S
Mn544 O562 2.221 . S
O545 Mn546 2.087 . S
O545 C557 1.256 . S
Mn546 O545 2.087 . S
Mn546 O553 2.089 . S
Mn546 O562 2.290 . S
Mn546 O563 2.251 . S
O547 Mn544 2.160 . S
O547 C558 1.239 . S
O548 Mn544 2.221 . S
O548 Mn549 2.290 . S
O548 C559 1.278 . S
Mn549 O548 2.290 . S
Mn549 O551 2.089 . S
Mn549 O554 2.251 . S
Mn549 O555 2.087 . S
O550 Mn544 2.163 . S
O550 C560 1.244 . S
O551 Mn549 2.089 . S
O551 C558 1.256 . S
O552 Mn544 2.160 . S
O552 C561 1.239 . S
O553 Mn546 2.089 . S
O553 C561 1.256 . S
O554 Mn549 2.251 . S
O554 C559 1.241 . S
O555 Mn549 2.087 . S
O555 C560 1.256 . S
C556 O562 1.278 . S
C556 O563 1.241 . S
C557 O543 1.244 . S
C557 O545 1.256 . S
C558 O547 1.239 . S
C558 O551 1.256 . S
C559 O548 1.278 . S
C559 O554 1.241 . S
C560 O550 1.244 . S
C560 O555 1.256 . S
C561 O552 1.239 . S
C561 O553 1.256 . S
O562 Mn544 2.221 . S
O562 Mn546 2.290 . S
O562 C556 1.278 . S
O563 Mn546 2.251 . S
O563 C556 1.241 . S
O564 Mn565 2.163 . S
O564 C578 1.244 . S
Mn565 O564 2.163 . S
Mn565 O568 2.160 . S
Mn565 O569 2.221 . S
Mn565 O571 2.163 . S
Mn565 O573 2.160 . S
Mn565 O583 2.221 . S
O566 Mn567 2.087 . S
O566 C578 1.256 . S
Mn567 O566 2.087 . S
Mn567 O574 2.089 . S
Mn567 O583 2.290 . S
Mn567 O584 2.251 . S
O568 Mn565 2.160 . S
O568 C579 1.239 . S
O569 Mn565 2.221 . S
O569 Mn570 2.290 . S
O569 C580 1.278 . S
Mn570 O569 2.290 . S
Mn570 O572 2.089 . S
Mn570 O575 2.251 . S
Mn570 O576 2.087 . S
O571 Mn565 2.163 . S
O571 C581 1.244 . S
O572 Mn570 2.089 . S
O572 C579 1.256 . S
O573 Mn565 2.160 . S
O573 C582 1.239 . S
O574 Mn567 2.089 . S
O574 C582 1.256 . S
O575 Mn570 2.251 . S
O575 C580 1.241 . S
O576 Mn570 2.087 . S
O576 C581 1.256 . S
C577 O583 1.278 . S
C577 O584 1.241 . S
C578 O564 1.244 . S
C578 O566 1.256 . S
C579 O568 1.239 . S
C579 O572 1.256 . S
C580 O569 1.278 . S
C580 O575 1.241 . S
C581 O571 1.244 . S
C581 O576 1.256 . S
C582 O573 1.239 . S
C582 O574 1.256 . S
O583 Mn565 2.221 . S
O583 Mn567 2.290 . S
O583 C577 1.278 . S
O584 Mn567 2.251 . S
O584 C577 1.241 . S
O585 Mn586 2.163 . S
O585 C599 1.244 . S
Mn586 O585 2.163 . S
Mn586 O589 2.160 . S
Mn586 O590 2.221 . S
Mn586 O592 2.163 . S
Mn586 O594 2.160 . S
Mn586 O604 2.221 . S
O587 Mn588 2.087 . S
O587 C599 1.256 . S
Mn588 O587 2.087 . S
Mn588 O595 2.089 . S
Mn588 O604 2.290 . S
Mn588 O605 2.251 . S
O589 Mn586 2.160 . S
O589 C600 1.239 . S
O590 Mn586 2.221 . S
O590 Mn591 2.290 . S
O590 C601 1.278 . S
Mn591 O590 2.290 . S
Mn591 O593 2.089 . S
Mn591 O596 2.251 . S
Mn591 O597 2.087 . S
O592 Mn586 2.163 . S
O592 C602 1.244 . S
O593 Mn591 2.089 . S
O593 C600 1.256 . S
O594 Mn586 2.160 . S
O594 C603 1.239 . S
O595 Mn588 2.089 . S
O595 C603 1.256 . S
O596 Mn591 2.251 . S
O596 C601 1.241 . S
O597 Mn591 2.087 . S
O597 C602 1.256 . S
C598 O604 1.278 . S
C598 O605 1.241 . S
C599 O585 1.244 . S
C599 O587 1.256 . S
C600 O589 1.239 . S
C600 O593 1.256 . S
C601 O590 1.278 . S
C601 O596 1.241 . S
C602 O592 1.244 . S
C602 O597 1.256 . S
C603 O594 1.239 . S
C603 O595 1.256 . S
O604 Mn586 2.221 . S
O604 Mn588 2.290 . S
O604 C598 1.278 . S
O605 Mn588 2.251 . S
O605 C598 1.241 . S
O606 Mn607 2.163 . S
O606 C620 1.244 . S
Mn607 O606 2.163 . S
Mn607 O610 2.160 . S
Mn607 O611 2.221 . S
Mn607 O613 2.163 . S
Mn607 O615 2.160 . S
Mn607 O625 2.221 . S
O608 Mn609 2.087 . S
O608 C620 1.256 . S
Mn609 O608 2.087 . S
Mn609 O616 2.089 . S
Mn609 O625 2.290 . S
Mn609 O626 2.251 . S
O610 Mn607 2.160 . S
O610 C621 1.239 . S
O611 Mn607 2.221 . S
O611 Mn612 2.290 . S
O611 C622 1.278 . S
Mn612 O611 2.290 . S
Mn612 O614 2.089 . S
Mn612 O617 2.251 . S
Mn612 O618 2.087 . S
O613 Mn607 2.163 . S
O613 C623 1.244 . S
O614 Mn612 2.089 . S
O614 C621 1.256 . S
O615 Mn607 2.160 . S
O615 C624 1.239 . S
O616 Mn609 2.089 . S
O616 C624 1.256 . S
O617 Mn612 2.251 . S
O617 C622 1.241 . S
O618 Mn612 2.087 . S
O618 C623 1.256 . S
C619 O625 1.278 . S
C619 O626 1.241 . S
C620 O606 1.244 . S
C620 O608 1.256 . S
C621 O610 1.239 . S
C621 O614 1.256 . S
C622 O611 1.278 . S
C622 O617 1.241 . S
C623 O613 1.244 . S
C623 O618 1.256 . S
C624 O615 1.239 . S
C624 O616 1.256 . S
O625 Mn607 2.221 . S
O625 Mn609 2.290 . S
O625 C619 1.278 . S
O626 Mn609 2.251 . S
O626 C619 1.241 . S
O627 Mn628 2.163 . S
O627 C641 1.244 . S
Mn628 O627 2.163 . S
Mn628 O631 2.160 . S
Mn628 O632 2.221 . S
Mn628 O634 2.163 . S
Mn628 O636 2.160 . S
Mn628 O646 2.221 . S
O629 Mn630 2.087 . S
O629 C641 1.256 . S
Mn630 O629 2.087 . S
Mn630 O637 2.089 . S
Mn630 O646 2.290 . S
Mn630 O647 2.251 . S
O631 Mn628 2.160 . S
O631 C642 1.239 . S
O632 Mn628 2.221 . S
O632 Mn633 2.290 . S
O632 C643 1.278 . S
Mn633 O632 2.290 . S
Mn633 O635 2.089 . S
Mn633 O638 2.251 . S
Mn633 O639 2.087 . S
O634 Mn628 2.163 . S
O634 C644 1.244 . S
O635 Mn633 2.089 . S
O635 C642 1.256 . S
O636 Mn628 2.160 . S
O636 C645 1.239 . S
O637 Mn630 2.089 . S
O637 C645 1.256 . S
O638 Mn633 2.251 . S
O638 C643 1.241 . S
O639 Mn633 2.087 . S
O639 C644 1.256 . S
C640 O646 1.278 . S
C640 O647 1.241 . S
C641 O627 1.244 . S
C641 O629 1.256 . S
C642 O631 1.239 . S
C642 O635 1.256 . S
C643 O632 1.278 . S
C643 O638 1.241 . S
C644 O634 1.244 . S
C644 O639 1.256 . S
C645 O636 1.239 . S
C645 O637 1.256 . S
O646 Mn628 2.221 . S
O646 Mn630 2.290 . S
O646 C640 1.278 . S
O647 Mn630 2.251 . S
O647 C640 1.241 . S
H648 C660 0.930 . S
H649 C662 0.930 . S
H650 C663 0.930 . S
H651 C667 0.959 . S
H652 C667 0.959 . S
H653 C667 0.961 . S
H654 C668 0.960 . S
H655 C668 0.961 . S
H656 C668 0.959 . S
H657 C671 0.929 . S
H658 C672 0.931 . S
H659 C674 0.930 . S
C660 H648 0.930 . S
C660 C661 1.399 . S
C660 C665 1.399 . S
C661 C660 1.399 . S
C661 C662 1.376 . S
C662 H649 0.930 . S
C662 C661 1.376 . S
C662 C663 1.388 . S
C663 H650 0.930 . S
C663 C662 1.388 . S
C663 C664 1.390 . S
C664 C663 1.390 . S
C664 C665 1.394 . S
C664 C670 1.465 . S
C665 C660 1.399 . S
C665 C664 1.394 . S
C665 C666 1.516 . S
C666 C665 1.516 . S
C666 C667 1.502 . S
C666 C668 1.561 . S
C666 C669 1.526 . S
C667 H651 0.959 . S
C667 H652 0.959 . S
C667 H653 0.961 . S
C667 C666 1.502 . S
C668 H654 0.960 . S
C668 H655 0.961 . S
C668 H656 0.959 . S
C668 C666 1.561 . S
C669 C666 1.526 . S
C669 C670 1.396 . S
C669 C674 1.390 . S
C670 C664 1.465 . S
C670 C669 1.396 . S
C670 C671 1.399 . S
C671 H657 0.929 . S
C671 C670 1.399 . S
C671 C672 1.385 . S
C672 H658 0.931 . S
C672 C671 1.385 . S
C672 C673 1.389 . S
C673 C672 1.389 . S
C673 C674 1.387 . S
C674 H659 0.930 . S
C674 C669 1.390 . S
C674 C673 1.387 . S
H675 C687 0.930 . S
H676 C689 0.930 . S
H677 C690 0.930 . S
H678 C694 0.959 . S
H679 C694 0.959 . S
H680 C694 0.961 . S
H681 C695 0.960 . S
H682 C695 0.961 . S
H683 C695 0.959 . S
H684 C698 0.929 . S
H685 C699 0.931 . S
H686 C701 0.930 . S
C687 H675 0.930 . S
C687 C688 1.399 . S
C687 C692 1.399 . S
C688 C687 1.399 . S
C688 C689 1.376 . S
C689 H676 0.930 . S
C689 C688 1.376 . S
C689 C690 1.388 . S
C690 H677 0.930 . S
C690 C689 1.388 . S
C690 C691 1.390 . S
C691 C690 1.390 . S
C691 C692 1.394 . S
C691 C697 1.465 . S
C692 C687 1.399 . S
C692 C691 1.394 . S
C692 C693 1.516 . S
C693 C692 1.516 . S
C693 C694 1.502 . S
C693 C695 1.561 . S
C693 C696 1.526 . S
C694 H678 0.959 . S
C694 H679 0.959 . S
C694 H680 0.961 . S
C694 C693 1.502 . S
C695 H681 0.960 . S
C695 H682 0.961 . S
C695 H683 0.959 . S
C695 C693 1.561 . S
C696 C693 1.526 . S
C696 C697 1.396 . S
C696 C701 1.390 . S
C697 C691 1.465 . S
C697 C696 1.396 . S
C697 C698 1.399 . S
C698 H684 0.929 . S
C698 C697 1.399 . S
C698 C699 1.385 . S
C699 H685 0.931 . S
C699 C698 1.385 . S
C699 C700 1.389 . S
C700 C699 1.389 . S
C700 C701 1.387 . S
C701 H686 0.930 . S
C701 C696 1.390 . S
C701 C700 1.387 . S
H702 C714 0.930 . S
H703 C716 0.930 . S
H704 C717 0.930 . S
H705 C721 0.959 . S
H706 C721 0.959 . S
H707 C721 0.961 . S
H708 C722 0.960 . S
H709 C722 0.961 . S
H710 C722 0.959 . S
H711 C725 0.929 . S
H712 C726 0.931 . S
H713 C728 0.930 . S
C714 H702 0.930 . S
C714 C715 1.399 . S
C714 C719 1.399 . S
C715 C714 1.399 . S
C715 C716 1.376 . S
C716 H703 0.930 . S
C716 C715 1.376 . S
C716 C717 1.388 . S
C717 H704 0.930 . S
C717 C716 1.388 . S
C717 C718 1.390 . S
C718 C717 1.390 . S
C718 C719 1.394 . S
C718 C724 1.465 . S
C719 C714 1.399 . S
C719 C718 1.394 . S
C719 C720 1.516 . S
C720 C719 1.516 . S
C720 C721 1.502 . S
C720 C722 1.561 . S
C720 C723 1.526 . S
C721 H705 0.959 . S
C721 H706 0.959 . S
C721 H707 0.961 . S
C721 C720 1.502 . S
C722 H708 0.960 . S
C722 H709 0.961 . S
C722 H710 0.959 . S
C722 C720 1.561 . S
C723 C720 1.526 . S
C723 C724 1.396 . S
C723 C728 1.390 . S
C724 C718 1.465 . S
C724 C723 1.396 . S
C724 C725 1.399 . S
C725 H711 0.929 . S
C725 C724 1.399 . S
C725 C726 1.385 . S
C726 H712 0.931 . S
C726 C725 1.385 . S
C726 C727 1.389 . S
C727 C726 1.389 . S
C727 C728 1.387 . S
C728 H713 0.930 . S
C728 C723 1.390 . S
C728 C727 1.387 . S
H729 C741 0.930 . S
H730 C743 0.930 . S
H731 C744 0.930 . S
H732 C748 0.959 . S
H733 C748 0.959 . S
H734 C748 0.961 . S
H735 C749 0.960 . S
H736 C749 0.963 1_556 S
H737 C749 0.959 . S
H738 C752 0.929 . S
H739 C753 0.931 . S
H740 C755 0.930 . S
C741 H729 0.930 . S
C741 C742 1.399 . S
C741 C746 1.399 . S
C742 C741 1.399 . S
C742 C743 1.376 . S
C743 H730 0.930 . S
C743 C742 1.376 . S
C743 C744 1.388 . S
C744 H731 0.930 . S
C744 C743 1.388 . S
C744 C745 1.390 . S
C745 C744 1.390 . S
C745 C746 1.394 . S
C745 C751 1.465 . S
C746 C741 1.399 . S
C746 C745 1.394 . S
C746 C747 1.516 . S
C747 C746 1.516 . S
C747 C748 1.502 . S
C747 C749 1.561 . S
C747 C750 1.526 . S
C748 H732 0.959 . S
C748 H733 0.959 . S
C748 H734 0.961 . S
C748 C747 1.502 . S
C749 H735 0.960 . S
C749 H736 0.963 1_554 S
C749 H737 0.959 . S
C749 C747 1.561 . S
C750 C747 1.526 . S
C750 C751 1.396 . S
C750 C755 1.390 1_554 S
C751 C745 1.465 . S
C751 C750 1.396 . S
C751 C752 1.399 1_554 S
C752 H738 0.929 . S
C752 C751 1.399 1_556 S
C752 C753 1.385 . S
C753 H739 0.931 . S
C753 C752 1.385 . S
C753 C754 1.389 . S
C754 C753 1.389 . S
C754 C755 1.387 . S
C755 H740 0.930 . S
C755 C750 1.390 1_556 S
C755 C754 1.387 . S
H756 C768 0.930 . S
H757 C770 0.930 . S
H758 C771 0.930 . S
H759 C775 0.959 . S
H760 C775 0.959 . S
H761 C775 0.961 . S
H762 C776 0.960 . S
H763 C776 0.961 . S
H764 C776 0.959 . S
H765 C779 0.929 . S
H766 C780 0.931 . S
H767 C782 0.930 . S
C768 H756 0.930 . S
C768 C769 1.399 . S
C768 C773 1.399 . S
C769 C768 1.399 . S
C769 C770 1.376 . S
C770 H757 0.930 . S
C770 C769 1.376 . S
C770 C771 1.388 . S
C771 H758 0.930 . S
C771 C770 1.388 . S
C771 C772 1.390 . S
C772 C771 1.390 . S
C772 C773 1.394 . S
C772 C778 1.465 . S
C773 C768 1.399 . S
C773 C772 1.394 . S
C773 C774 1.516 . S
C774 C773 1.516 . S
C774 C775 1.502 . S
C774 C776 1.561 . S
C774 C777 1.526 . S
C775 H759 0.959 . S
C775 H760 0.959 . S
C775 H761 0.961 . S
C775 C774 1.502 . S
C776 H762 0.960 . S
C776 H763 0.961 . S
C776 H764 0.959 . S
C776 C774 1.561 . S
C777 C774 1.526 . S
C777 C778 1.396 . S
C777 C782 1.390 . S
C778 C772 1.465 . S
C778 C777 1.396 . S
C778 C779 1.399 . S
C779 H765 0.929 . S
C779 C778 1.399 . S
C779 C780 1.385 . S
C780 H766 0.931 . S
C780 C779 1.385 . S
C780 C781 1.389 . S
C781 C780 1.389 . S
C781 C782 1.387 . S
C782 H767 0.930 . S
C782 C777 1.390 . S
C782 C781 1.387 . S
H783 C795 0.930 . S
H784 C797 0.930 . S
H785 C798 0.930 . S
H786 C802 0.959 . S
H787 C802 0.959 . S
H788 C802 0.961 . S
H789 C803 0.960 . S
H790 C803 0.961 . S
H791 C803 0.959 . S
H792 C806 0.929 . S
H793 C807 0.931 . S
H794 C809 0.930 . S
C795 H783 0.930 . S
C795 C796 1.399 . S
C795 C800 1.399 . S
C796 C795 1.399 . S
C796 C797 1.376 . S
C797 H784 0.930 . S
C797 C796 1.376 . S
C797 C798 1.388 . S
C798 H785 0.930 . S
C798 C797 1.388 . S
C798 C799 1.390 . S
C799 C798 1.390 . S
C799 C800 1.394 . S
C799 C805 1.465 . S
C800 C795 1.399 . S
C800 C799 1.394 . S
C800 C801 1.516 . S
C801 C800 1.516 . S
C801 C802 1.502 . S
C801 C803 1.561 . S
C801 C804 1.526 . S
C802 H786 0.959 . S
C802 H787 0.959 . S
C802 H788 0.961 . S
C802 C801 1.502 . S
C803 H789 0.960 . S
C803 H790 0.961 . S
C803 H791 0.959 . S
C803 C801 1.561 . S
C804 C801 1.526 . S
C804 C805 1.396 . S
C804 C809 1.390 . S
C805 C799 1.465 . S
C805 C804 1.396 . S
C805 C806 1.399 . S
C806 H792 0.929 . S
C806 C805 1.399 . S
C806 C807 1.385 . S
C807 H793 0.931 . S
C807 C806 1.385 . S
C807 C808 1.389 . S
C808 C807 1.389 . S
C808 C809 1.387 . S
C809 H794 0.930 . S
C809 C804 1.390 . S
C809 C808 1.387 . S
H810 C822 0.930 . S
H811 C824 0.930 . S
H812 C825 0.930 . S
H813 C829 0.959 . S
H814 C829 0.959 . S
H815 C829 0.961 . S
H816 C830 0.960 . S
H817 C830 0.961 . S
H818 C830 0.959 . S
H819 C833 0.929 . S
H820 C834 0.931 . S
H821 C836 0.930 . S
C822 H810 0.930 . S
C822 C823 1.399 . S
C822 C827 1.399 . S
C823 C822 1.399 . S
C823 C824 1.376 . S
C824 H811 0.930 . S
C824 C823 1.376 . S
C824 C825 1.388 . S
C825 H812 0.930 . S
C825 C824 1.388 . S
C825 C826 1.390 . S
C826 C825 1.390 . S
C826 C827 1.394 . S
C826 C832 1.465 . S
C827 C822 1.399 . S
C827 C826 1.394 . S
C827 C828 1.516 . S
C828 C827 1.516 . S
C828 C829 1.502 . S
C828 C830 1.561 . S
C828 C831 1.526 . S
C829 H813 0.959 . S
C829 H814 0.959 . S
C829 H815 0.961 . S
C829 C828 1.502 . S
C830 H816 0.960 . S
C830 H817 0.961 . S
C830 H818 0.959 . S
C830 C828 1.561 . S
C831 C828 1.526 . S
C831 C832 1.396 . S
C831 C836 1.390 . S
C832 C826 1.465 . S
C832 C831 1.396 . S
C832 C833 1.399 . S
C833 H819 0.929 . S
C833 C832 1.399 . S
C833 C834 1.385 . S
C834 H820 0.931 . S
C834 C833 1.385 . S
C834 C835 1.389 . S
C835 C834 1.389 . S
C835 C836 1.387 . S
C836 H821 0.930 . S
C836 C831 1.390 . S
C836 C835 1.387 . S
H837 C849 0.930 . S
H838 C851 0.930 . S
H839 C852 0.930 . S
H840 C856 0.959 . S
H841 C856 0.959 . S
H842 C856 0.961 . S
H843 C857 0.960 . S
H844 C857 0.961 . S
H845 C857 0.946 1_554 S
H846 C860 0.929 . S
H847 C861 0.931 . S
H848 C863 0.930 . S
C849 H837 0.930 . S
C849 C850 1.399 . S
C849 C854 1.399 . S
C850 C849 1.399 . S
C850 C851 1.376 . S
C851 H838 0.930 . S
C851 C850 1.376 . S
C851 C852 1.388 1_556 S
C852 H839 0.930 . S
C852 C851 1.388 1_554 S
C852 C853 1.390 . S
C853 C852 1.390 . S
C853 C854 1.394 1_554 S
C853 C859 1.465 . S
C854 C849 1.399 . S
C854 C853 1.394 1_556 S
C854 C855 1.517 . S
C855 C854 1.517 . S
C855 C856 1.503 . S
C855 C857 1.562 . S
C855 C858 1.523 1_556 S
C856 H840 0.959 . S
C856 H841 0.959 . S
C856 H842 0.961 . S
C856 C855 1.503 . S
C857 H843 0.960 . S
C857 H844 0.961 . S
C857 H845 0.946 1_556 S
C857 C855 1.562 . S
C858 C855 1.523 1_554 S
C858 C859 1.396 . S
C858 C863 1.390 . S
C859 C853 1.465 . S
C859 C858 1.396 . S
C859 C860 1.399 . S
C860 H846 0.929 . S
C860 C859 1.399 . S
C860 C861 1.385 . S
C861 H847 0.931 . S
C861 C860 1.385 . S
C861 C862 1.389 . S
C862 C861 1.389 . S
C862 C863 1.387 . S
C863 H848 0.930 . S
C863 C858 1.390 . S
C863 C862 1.387 . S
H864 C876 0.930 . S
H865 C878 0.930 . S
H866 C879 0.930 . S
H867 C883 0.959 . S
H868 C883 0.959 . S
H869 C883 0.961 . S
H870 C884 0.960 . S
H871 C884 0.961 . S
H872 C884 0.959 . S
H873 C887 0.929 . S
H874 C888 0.931 . S
H875 C890 0.930 . S
C876 H864 0.930 . S
C876 C877 1.399 . S
C876 C881 1.399 . S
C877 C876 1.399 . S
C877 C878 1.376 . S
C878 H865 0.930 . S
C878 C877 1.376 . S
C878 C879 1.388 . S
C879 H866 0.930 . S
C879 C878 1.388 . S
C879 C880 1.390 . S
C880 C879 1.390 . S
C880 C881 1.394 . S
C880 C886 1.465 . S
C881 C876 1.399 . S
C881 C880 1.394 . S
C881 C882 1.516 . S
C882 C881 1.516 . S
C882 C883 1.502 . S
C882 C884 1.561 . S
C882 C885 1.526 . S
C883 H867 0.959 . S
C883 H868 0.959 . S
C883 H869 0.961 . S
C883 C882 1.502 . S
C884 H870 0.960 . S
C884 H871 0.961 . S
C884 H872 0.959 . S
C884 C882 1.561 . S
C885 C882 1.526 . S
C885 C886 1.396 . S
C885 C890 1.390 . S
C886 C880 1.465 . S
C886 C885 1.396 . S
C886 C887 1.399 . S
C887 H873 0.929 . S
C887 C886 1.399 . S
C887 C888 1.385 . S
C888 H874 0.931 . S
C888 C887 1.385 . S
C888 C889 1.389 . S
C889 C888 1.389 . S
C889 C890 1.387 . S
C890 H875 0.930 . S
C890 C885 1.390 . S
C890 C889 1.387 . S
H891 C903 0.930 . S
H892 C905 0.930 . S
H893 C906 0.930 . S
H894 C910 0.959 . S
H895 C910 0.959 . S
H896 C910 0.961 . S
H897 C911 0.960 . S
H898 C911 0.961 1_565 S
H899 C911 0.959 . S
H900 C914 0.929 1_545 S
H901 C915 0.931 . S
H902 C917 0.930 . S
C903 H891 0.930 . S
C903 C904 1.399 . S
C903 C908 1.399 . S
C904 C903 1.399 . S
C904 C905 1.376 . S
C905 H892 0.930 . S
C905 C904 1.376 . S
C905 C906 1.388 . S
C906 H893 0.930 . S
C906 C905 1.388 . S
C906 C907 1.390 . S
C907 C906 1.390 . S
C907 C908 1.394 . S
C907 C913 1.465 . S
C908 C903 1.399 . S
C908 C907 1.394 . S
C908 C909 1.516 . S
C909 C908 1.516 . S
C909 C910 1.502 . S
C909 C911 1.561 . S
C909 C912 1.526 . S
C910 H894 0.959 . S
C910 H895 0.959 . S
C910 H896 0.961 . S
C910 C909 1.502 . S
C911 H897 0.960 . S
C911 H898 0.961 1_545 S
C911 H899 0.959 . S
C911 C909 1.561 . S
C912 C909 1.526 . S
C912 C913 1.396 . S
C912 C917 1.390 1_545 S
C913 C907 1.465 . S
C913 C912 1.396 . S
C913 C914 1.399 1_545 S
C914 H900 0.929 1_565 S
C914 C913 1.399 1_565 S
C914 C915 1.385 . S
C915 H901 0.931 . S
C915 C914 1.385 . S
C915 C916 1.389 . S
C916 C915 1.389 . S
C916 C917 1.387 . S
C917 H902 0.930 . S
C917 C912 1.390 1_565 S
C917 C916 1.387 . S
H918 C930 0.930 1_565 S
H919 C932 0.930 . S
H920 C933 0.930 . S
H921 C937 0.959 . S
H922 C937 0.959 . S
H923 C937 0.961 . S
H924 C938 0.960 . S
H925 C938 0.961 . S
H926 C938 0.959 . S
H927 C941 0.963 . S
H928 C942 0.931 . S
H929 C944 0.930 . S
C930 H918 0.930 1_545 S
C930 C931 1.399 . S
C930 C935 1.399 1_545 S
C931 C930 1.399 . S
C931 C932 1.376 . S
C932 H919 0.930 . S
C932 C931 1.376 . S
C932 C933 1.388 . S
C933 H920 0.930 . S
C933 C932 1.388 . S
C933 C934 1.390 . S
C934 C933 1.390 . S
C934 C935 1.394 1_545 S
C934 C940 1.465 1_545 S
C935 C930 1.399 1_565 S
C935 C934 1.394 1_565 S
C935 C936 1.516 . S
C936 C935 1.516 . S
C936 C937 1.502 . S
C936 C938 1.561 . S
C936 C939 1.526 . S
C937 H921 0.959 . S
C937 H922 0.959 . S
C937 H923 0.961 . S
C937 C936 1.502 . S
C938 H924 0.960 . S
C938 H925 0.961 . S
C938 H926 0.959 . S
C938 C936 1.561 . S
C939 C936 1.526 . S
C939 C940 1.396 . S
C939 C944 1.390 . S
C940 C934 1.465 1_565 S
C940 C939 1.396 . S
C940 C941 1.391 1_565 S
C941 H927 0.963 . S
C941 C940 1.391 1_545 S
C941 C942 1.359 1_545 S
C942 H928 0.931 . S
C942 C941 1.359 1_565 S
C942 C943 1.389 . S
C943 C942 1.389 . S
C943 C944 1.387 . S
C944 H929 0.930 . S
C944 C939 1.390 . S
C944 C943 1.387 . S
H945 C957 0.930 . S
H946 C959 0.906 1_554 S
H947 C960 0.930 1_554 S
H948 C964 0.959 . S
H949 C964 0.959 . S
H950 C964 0.961 . S
H951 C965 0.960 . S
H952 C965 0.961 . S
H953 C965 0.959 . S
H954 C968 0.929 1_554 S
H955 C969 0.931 . S
H956 C971 0.930 . S
C957 H945 0.930 . S
C957 C958 1.399 . S
C957 C962 1.399 1_565 S
C958 C957 1.399 . S
C958 C959 1.400 . S
C959 H946 0.906 1_556 S
C959 C958 1.400 . S
C959 C960 1.389 1_565 S
C960 H947 0.930 1_556 S
C960 C959 1.389 1_545 S
C960 C961 1.390 . S
C961 C960 1.390 . S
C961 C962 1.394 . S
C961 C967 1.465 . S
C962 C957 1.399 1_545 S
C962 C961 1.394 . S
C962 C963 1.516 . S
C963 C962 1.516 . S
C963 C964 1.502 . S
C963 C965 1.561 . S
C963 C966 1.526 . S
C964 H948 0.959 . S
C964 H949 0.959 . S
C964 H950 0.961 . S
C964 C963 1.502 . S
C965 H951 0.960 . S
C965 H952 0.961 . S
C965 H953 0.959 . S
C965 C963 1.561 . S
C966 C963 1.526 . S
C966 C967 1.396 . S
C966 C971 1.390 . S
C967 C961 1.465 . S
C967 C966 1.396 . S
C967 C968 1.399 . S
C968 H954 0.929 1_556 S
C968 C967 1.399 . S
C968 C969 1.385 . S
C969 H955 0.931 . S
C969 C968 1.385 . S
C969 C970 1.389 . S
C970 C969 1.389 . S
C970 C971 1.387 . S
C971 H956 0.930 . S
C971 C966 1.390 . S
C971 C970 1.387 . S
H972 C984 0.930 . S
H973 C986 0.930 . S
H974 C987 0.930 . S
H975 C991 0.959 . S
H976 C991 0.959 . S
H977 C991 0.961 . S
H978 C992 0.960 1_545 S
H979 C992 0.961 . S
H980 C992 0.959 1_545 S
H981 C995 0.929 . S
H982 C996 0.931 . S
H983 C998 0.930 . S
C984 H972 0.930 . S
C984 C985 1.399 . S
C984 C989 1.399 . S
C985 C984 1.399 . S
C985 C986 1.376 . S
C986 H973 0.930 . S
C986 C985 1.376 . S
C986 C987 1.388 . S
C987 H974 0.930 . S
C987 C986 1.388 . S
C987 C988 1.390 . S
C988 C987 1.390 . S
C988 C989 1.394 . S
C988 C994 1.465 . S
C989 C984 1.399 . S
C989 C988 1.394 . S
C989 C990 1.516 . S
C990 C989 1.516 . S
C990 C991 1.502 . S
C990 C992 1.561 . S
C990 C993 1.526 . S
C991 H975 0.959 . S
C991 H976 0.959 . S
C991 H977 0.961 . S
C991 C990 1.502 . S
C992 H978 0.960 1_565 S
C992 H979 0.961 . S
C992 H980 0.959 1_565 S
C992 C990 1.561 . S
C993 C990 1.526 . S
C993 C994 1.396 . S
C993 C998 1.390 . S
C994 C988 1.465 . S
C994 C993 1.396 . S
C994 C995 1.399 . S
C995 H981 0.929 . S
C995 C994 1.399 . S
C995 C996 1.385 . S
C996 H982 0.931 . S
C996 C995 1.385 . S
C996 C997 1.389 . S
C997 C996 1.389 . S
C997 C998 1.387 . S
C998 H983 0.930 . S
C998 C993 1.390 . S
C998 C997 1.387 . S
H999 C1011 0.930 . S
H1000 C1013 0.930 . S
H1001 C1014 0.930 . S
H1002 C1018 0.959 . S
H1003 C1018 0.959 1_565 S
H1004 C1018 0.961 . S
H1005 C1019 0.960 . S
H1006 C1019 0.961 . S
H1007 C1019 0.959 . S
H1008 C1022 0.929 . S
H1009 C1023 0.931 . S
H1010 C1025 0.930 . S
C1011 H999 0.930 . S
C1011 C1012 1.399 . S
C1011 C1016 1.399 . S
C1012 C1011 1.399 . S
C1012 C1013 1.376 . S
C1013 H1000 0.930 . S
C1013 C1012 1.376 . S
C1013 C1014 1.388 . S
C1014 H1001 0.930 . S
C1014 C1013 1.388 . S
C1014 C1015 1.390 . S
C1015 C1014 1.390 . S
C1015 C1016 1.394 . S
C1015 C1021 1.465 . S
C1016 C1011 1.399 . S
C1016 C1015 1.394 . S
C1016 C1017 1.516 . S
C1017 C1016 1.516 . S
C1017 C1018 1.502 . S
C1017 C1019 1.561 . S
C1017 C1020 1.526 . S
C1018 H1002 0.959 . S
C1018 H1003 0.959 1_545 S
C1018 H1004 0.961 . S
C1018 C1017 1.502 . S
C1019 H1005 0.960 . S
C1019 H1006 0.961 . S
C1019 H1007 0.959 . S
C1019 C1017 1.561 . S
C1020 C1017 1.526 . S
C1020 C1021 1.396 . S
C1020 C1025 1.390 1_545 S
C1021 C1015 1.465 . S
C1021 C1020 1.396 . S
C1021 C1022 1.399 . S
C1022 H1008 0.929 . S
C1022 C1021 1.399 . S
C1022 C1023 1.385 . S
C1023 H1009 0.931 . S
C1023 C1022 1.385 . S
C1023 C1024 1.389 1_545 S
C1024 C1023 1.389 1_565 S
C1024 C1025 1.387 . S
C1025 H1010 0.930 . S
C1025 C1020 1.390 1_565 S
C1025 C1024 1.387 . S
H1026 C1038 0.930 . S
H1027 C1040 0.930 . S
H1028 C1041 0.930 . S
H1029 C1045 0.959 . S
H1030 C1045 0.959 . S
H1031 C1045 0.961 . S
H1032 C1046 0.960 . S
H1033 C1046 0.961 . S
H1034 C1046 0.959 . S
H1035 C1049 0.929 . S
H1036 C1050 0.931 . S
H1037 C1052 0.930 . S
C1038 H1026 0.930 . S
C1038 C1039 1.399 . S
C1038 C1043 1.399 . S
C1039 C1038 1.399 . S
C1039 C1040 1.376 . S
C1040 H1027 0.930 . S
C1040 C1039 1.376 . S
C1040 C1041 1.388 . S
C1041 H1028 0.930 . S
C1041 C1040 1.388 . S
C1041 C1042 1.390 . S
C1042 C1041 1.390 . S
C1042 C1043 1.394 . S
C1042 C1048 1.465 . S
C1043 C1038 1.399 . S
C1043 C1042 1.394 . S
C1043 C1044 1.516 . S
C1044 C1043 1.516 . S
C1044 C1045 1.502 . S
C1044 C1046 1.561 . S
C1044 C1047 1.526 . S
C1045 H1029 0.959 . S
C1045 H1030 0.959 . S
C1045 H1031 0.961 . S
C1045 C1044 1.502 . S
C1046 H1032 0.960 . S
C1046 H1033 0.961 . S
C1046 H1034 0.959 . S
C1046 C1044 1.561 . S
C1047 C1044 1.526 . S
C1047 C1048 1.396 . S
C1047 C1052 1.390 . S
C1048 C1042 1.465 . S
C1048 C1047 1.396 . S
C1048 C1049 1.399 . S
C1049 H1035 0.929 . S
C1049 C1048 1.399 . S
C1049 C1050 1.385 . S
C1050 H1036 0.931 . S
C1050 C1049 1.385 . S
C1050 C1051 1.389 . S
C1051 C1050 1.389 . S
C1051 C1052 1.387 . S
C1052 H1037 0.930 . S
C1052 C1047 1.390 . S
C1052 C1051 1.387 . S
H1053 C1065 0.930 . S
H1054 C1067 0.930 . S
H1055 C1068 0.930 . S
H1056 C1072 0.959 . S
H1057 C1072 0.959 . S
H1058 C1072 0.961 . S
H1059 C1073 0.960 . S
H1060 C1073 0.961 . S
H1061 C1073 0.959 . S
H1062 C1076 0.929 . S
H1063 C1077 0.931 . S
H1064 C1079 0.930 . S
C1065 H1053 0.930 . S
C1065 C1066 1.399 . S
C1065 C1070 1.399 1_565 S
C1066 C1065 1.399 . S
C1066 C1067 1.376 . S
C1067 H1054 0.930 . S
C1067 C1066 1.376 . S
C1067 C1068 1.388 . S
C1068 H1055 0.930 . S
C1068 C1067 1.388 . S
C1068 C1069 1.390 1_565 S
C1069 C1068 1.390 1_545 S
C1069 C1070 1.394 . S
C1069 C1075 1.465 . S
C1070 C1065 1.399 1_545 S
C1070 C1069 1.394 . S
C1070 C1071 1.516 . S
C1071 C1070 1.516 . S
C1071 C1072 1.502 . S
C1071 C1073 1.561 . S
C1071 C1074 1.526 . S
C1072 H1056 0.959 . S
C1072 H1057 0.959 . S
C1072 H1058 0.961 . S
C1072 C1071 1.502 . S
C1073 H1059 0.960 . S
C1073 H1060 0.961 . S
C1073 H1061 0.959 . S
C1073 C1071 1.561 . S
C1074 C1071 1.526 . S
C1074 C1075 1.396 . S
C1074 C1079 1.390 . S
C1075 C1069 1.465 . S
C1075 C1074 1.396 . S
C1075 C1076 1.399 . S
C1076 H1062 0.929 . S
C1076 C1075 1.399 . S
C1076 C1077 1.385 . S
C1077 H1063 0.931 . S
C1077 C1076 1.385 . S
C1077 C1078 1.389 . S
C1078 C1077 1.389 . S
C1078 C1079 1.387 . S
C1079 H1064 0.930 . S
C1079 C1074 1.390 . S
C1079 C1078 1.387 . S
H1080 C1092 0.930 . S
H1081 C1094 0.930 . S
H1082 C1095 0.930 . S
H1083 C1099 0.959 . S
H1084 C1099 0.959 . S
H1085 C1099 0.961 . S
H1086 C1100 0.960 . S
H1087 C1100 0.961 . S
H1088 C1100 0.959 . S
H1089 C1103 0.929 . S
H1090 C1104 0.931 . S
H1091 C1106 0.930 . S
C1092 H1080 0.930 . S
C1092 C1093 1.399 . S
C1092 C1097 1.399 . S
C1093 C1092 1.399 . S
C1093 C1094 1.376 . S
C1094 H1081 0.930 . S
C1094 C1093 1.376 . S
C1094 C1095 1.388 . S
C1095 H1082 0.930 . S
C1095 C1094 1.388 . S
C1095 C1096 1.390 . S
C1096 C1095 1.390 . S
C1096 C1097 1.394 . S
C1096 C1102 1.465 . S
C1097 C1092 1.399 . S
C1097 C1096 1.394 . S
C1097 C1098 1.516 . S
C1098 C1097 1.516 . S
C1098 C1099 1.502 . S
C1098 C1100 1.561 . S
C1098 C1101 1.526 . S
C1099 H1083 0.959 . S
C1099 H1084 0.959 . S
C1099 H1085 0.961 . S
C1099 C1098 1.502 . S
C1100 H1086 0.960 . S
C1100 H1087 0.961 . S
C1100 H1088 0.959 . S
C1100 C1098 1.561 . S
C1101 C1098 1.526 . S
C1101 C1102 1.396 . S
C1101 C1106 1.390 . S
C1102 C1096 1.465 . S
C1102 C1101 1.396 . S
C1102 C1103 1.399 . S
C1103 H1089 0.929 . S
C1103 C1102 1.399 . S
C1103 C1104 1.385 . S
C1104 H1090 0.931 . S
C1104 C1103 1.385 . S
C1104 C1105 1.389 . S
C1105 C1104 1.389 . S
C1105 C1106 1.387 . S
C1106 H1091 0.930 . S
C1106 C1101 1.390 . S
C1106 C1105 1.387 . S
H1107 C1119 0.930 . S
H1108 C1121 0.930 1_554 S
H1109 C1122 0.930 1_554 S
H1110 C1126 0.959 . S
H1111 C1126 0.959 . S
H1112 C1126 0.961 . S
H1113 C1127 0.960 . S
H1114 C1127 0.961 . S
H1115 C1127 0.959 . S
H1116 C1130 0.929 . S
H1117 C1131 0.931 . S
H1118 C1133 0.930 . S
C1119 H1107 0.930 . S
C1119 C1120 1.399 . S
C1119 C1124 1.399 . S
C1120 C1119 1.399 . S
C1120 C1121 1.376 . S
C1121 H1108 0.930 1_556 S
C1121 C1120 1.376 . S
C1121 C1122 1.388 . S
C1122 H1109 0.930 1_556 S
C1122 C1121 1.388 . S
C1122 C1123 1.390 . S
C1123 C1122 1.390 . S
C1123 C1124 1.394 . S
C1123 C1129 1.465 . S
C1124 C1119 1.399 . S
C1124 C1123 1.394 . S
C1124 C1125 1.516 . S
C1125 C1124 1.516 . S
C1125 C1126 1.502 . S
C1125 C1127 1.561 . S
C1125 C1128 1.526 . S
C1126 H1110 0.959 . S
C1126 H1111 0.959 . S
C1126 H1112 0.961 . S
C1126 C1125 1.502 . S
C1127 H1113 0.960 . S
C1127 H1114 0.961 . S
C1127 H1115 0.959 . S
C1127 C1125 1.561 . S
C1128 C1125 1.526 . S
C1128 C1129 1.396 . S
C1128 C1133 1.390 . S
C1129 C1123 1.465 . S
C1129 C1128 1.396 . S
C1129 C1130 1.399 . S
C1130 H1116 0.929 . S
C1130 C1129 1.399 . S
C1130 C1131 1.385 . S
C1131 H1117 0.931 . S
C1131 C1130 1.385 . S
C1131 C1132 1.389 . S
C1132 C1131 1.389 . S
C1132 C1133 1.387 . S
C1133 H1118 0.930 . S
C1133 C1128 1.390 . S
C1133 C1132 1.387 . S
H1134 C1146 0.930 . S
H1135 C1148 0.930 . S
H1136 C1149 0.930 . S
H1137 C1153 0.959 . S
H1138 C1153 0.959 . S
H1139 C1153 0.961 . S
H1140 C1154 0.960 . S
H1141 C1154 0.961 . S
H1142 C1154 0.959 . S
H1143 C1157 0.929 . S
H1144 C1158 0.931 . S
H1145 C1160 0.930 . S
C1146 H1134 0.930 . S
C1146 C1147 1.399 . S
C1146 C1151 1.399 . S
C1147 C1146 1.399 . S
C1147 C1148 1.376 . S
C1148 H1135 0.930 . S
C1148 C1147 1.376 . S
C1148 C1149 1.388 . S
C1149 H1136 0.930 . S
C1149 C1148 1.388 . S
C1149 C1150 1.390 . S
C1150 C1149 1.390 . S
C1150 C1151 1.394 . S
C1150 C1156 1.465 1_455 S
C1151 C1146 1.399 . S
C1151 C1150 1.394 . S
C1151 C1152 1.516 . S
C1152 C1151 1.516 . S
C1152 C1153 1.502 . S
C1152 C1154 1.561 . S
C1152 C1155 1.508 1_455 S
C1153 H1137 0.959 . S
C1153 H1138 0.959 . S
C1153 H1139 0.961 . S
C1153 C1152 1.502 . S
C1154 H1140 0.960 . S
C1154 H1141 0.961 . S
C1154 H1142 0.959 . S
C1154 C1152 1.561 . S
C1155 C1152 1.508 1_655 S
C1155 C1156 1.397 . S
C1155 C1160 1.405 . S
C1156 C1150 1.465 1_655 S
C1156 C1155 1.397 . S
C1156 C1157 1.399 . S
C1157 H1143 0.929 . S
C1157 C1156 1.399 . S
C1157 C1158 1.385 . S
C1158 H1144 0.931 . S
C1158 C1157 1.385 . S
C1158 C1159 1.389 . S
C1159 C1158 1.389 . S
C1159 C1160 1.387 . S
C1160 H1145 0.930 . S
C1160 C1155 1.405 . S
C1160 C1159 1.387 . S
H1161 C1173 0.930 . S
H1162 C1175 0.930 . S
H1163 C1176 0.930 . S
H1164 C1180 0.959 . S
H1165 C1180 0.959 . S
H1166 C1180 0.961 . S
H1167 C1181 0.960 . S
H1168 C1181 0.961 . S
H1169 C1181 0.959 . S
H1170 C1184 0.929 . S
H1171 C1185 0.931 . S
H1172 C1187 0.930 . S
C1173 H1161 0.930 . S
C1173 C1174 1.399 . S
C1173 C1178 1.399 . S
C1174 C1173 1.399 . S
C1174 C1175 1.376 . S
C1175 H1162 0.930 . S
C1175 C1174 1.376 . S
C1175 C1176 1.388 . S
C1176 H1163 0.930 . S
C1176 C1175 1.388 . S
C1176 C1177 1.390 . S
C1177 C1176 1.390 . S
C1177 C1178 1.394 . S
C1177 C1183 1.465 . S
C1178 C1173 1.399 . S
C1178 C1177 1.394 . S
C1178 C1179 1.516 . S
C1179 C1178 1.516 . S
C1179 C1180 1.502 . S
C1179 C1181 1.561 . S
C1179 C1182 1.526 . S
C1180 H1164 0.959 . S
C1180 H1165 0.959 . S
C1180 H1166 0.961 . S
C1180 C1179 1.502 . S
C1181 H1167 0.960 . S
C1181 H1168 0.961 . S
C1181 H1169 0.959 . S
C1181 C1179 1.561 . S
C1182 C1179 1.526 . S
C1182 C1183 1.396 . S
C1182 C1187 1.390 . S
C1183 C1177 1.465 . S
C1183 C1182 1.396 . S
C1183 C1184 1.399 . S
C1184 H1170 0.929 . S
C1184 C1183 1.399 . S
C1184 C1185 1.385 . S
C1185 H1171 0.931 . S
C1185 C1184 1.385 . S
C1185 C1186 1.389 . S
C1186 C1185 1.389 . S
C1186 C1187 1.387 . S
C1187 H1172 0.930 . S
C1187 C1182 1.390 . S
C1187 C1186 1.387 . S
H1188 C1200 0.930 . S
H1189 C1202 0.930 . S
H1190 C1203 0.930 . S
H1191 C1207 0.959 . S
H1192 C1207 0.959 . S
H1193 C1207 0.961 . S
H1194 C1208 0.952 1_655 S
H1195 C1208 0.961 . S
H1196 C1208 0.959 . S
H1197 C1211 0.929 . S
H1198 C1212 0.931 . S
H1199 C1214 0.930 . S
C1200 H1188 0.930 . S
C1200 C1201 1.399 . S
C1200 C1205 1.399 . S
C1201 C1200 1.399 . S
C1201 C1202 1.376 . S
C1202 H1189 0.930 . S
C1202 C1201 1.376 . S
C1202 C1203 1.388 . S
C1203 H1190 0.930 . S
C1203 C1202 1.388 . S
C1203 C1204 1.390 . S
C1204 C1203 1.390 . S
C1204 C1205 1.394 . S
C1204 C1210 1.465 1_655 S
C1205 C1200 1.399 . S
C1205 C1204 1.394 . S
C1205 C1206 1.516 1_655 S
C1206 C1205 1.516 1_455 S
C1206 C1207 1.502 . S
C1206 C1208 1.561 . S
C1206 C1209 1.526 . S
C1207 H1191 0.959 . S
C1207 H1192 0.959 . S
C1207 H1193 0.961 . S
C1207 C1206 1.502 . S
C1208 H1194 0.952 1_455 S
C1208 H1195 0.961 . S
C1208 H1196 0.959 . S
C1208 C1206 1.561 . S
C1209 C1206 1.526 . S
C1209 C1210 1.396 . S
C1209 C1214 1.390 . S
C1210 C1204 1.465 1_455 S
C1210 C1209 1.396 . S
C1210 C1211 1.399 . S
C1211 H1197 0.929 . S
C1211 C1210 1.399 . S
C1211 C1212 1.385 . S
C1212 H1198 0.931 . S
C1212 C1211 1.385 . S
C1212 C1213 1.389 . S
C1213 C1212 1.389 . S
C1213 C1214 1.387 . S
C1214 H1199 0.930 . S
C1214 C1209 1.390 . S
C1214 C1213 1.387 . S
H1215 C1227 0.930 . S
H1216 C1229 0.930 . S
H1217 C1230 0.930 . S
H1218 C1234 0.959 . S
H1219 C1234 0.959 . S
H1220 C1234 0.961 . S
H1221 C1235 0.960 . S
H1222 C1235 0.961 . S
H1223 C1235 0.959 . S
H1224 C1238 0.929 . S
H1225 C1239 0.931 . S
H1226 C1241 0.930 . S
C1227 H1215 0.930 . S
C1227 C1228 1.399 . S
C1227 C1232 1.399 . S
C1228 C1227 1.399 . S
C1228 C1229 1.376 . S
C1229 H1216 0.930 . S
C1229 C1228 1.376 . S
C1229 C1230 1.388 . S
C1230 H1217 0.930 . S
C1230 C1229 1.388 . S
C1230 C1231 1.390 . S
C1231 C1230 1.390 . S
C1231 C1232 1.394 . S
C1231 C1237 1.465 . S
C1232 C1227 1.399 . S
C1232 C1231 1.394 . S
C1232 C1233 1.516 . S
C1233 C1232 1.516 . S
C1233 C1234 1.502 . S
C1233 C1235 1.561 . S
C1233 C1236 1.526 . S
C1234 H1218 0.959 . S
C1234 H1219 0.959 . S
C1234 H1220 0.961 . S
C1234 C1233 1.502 . S
C1235 H1221 0.960 . S
C1235 H1222 0.961 . S
C1235 H1223 0.959 . S
C1235 C1233 1.561 . S
C1236 C1233 1.526 . S
C1236 C1237 1.396 . S
C1236 C1241 1.390 . S
C1237 C1231 1.465 . S
C1237 C1236 1.396 . S
C1237 C1238 1.399 . S
C1238 H1224 0.929 . S
C1238 C1237 1.399 . S
C1238 C1239 1.385 . S
C1239 H1225 0.931 . S
C1239 C1238 1.385 . S
C1239 C1240 1.389 . S
C1240 C1239 1.389 . S
C1240 C1241 1.387 . S
C1241 H1226 0.930 . S
C1241 C1236 1.390 . S
C1241 C1240 1.387 . S
H1242 C1254 0.930 . S
H1243 C1256 0.930 . S
H1244 C1257 0.930 . S
H1245 C1261 0.959 . S
H1246 C1261 0.959 . S
H1247 C1261 0.983 . S
H1248 C1262 0.960 . S
H1249 C1262 0.961 . S
H1250 C1262 0.959 . S
H1251 C1265 0.929 1_455 S
H1252 C1266 0.931 . S
H1253 C1268 0.930 . S
C1254 H1242 0.930 . S
C1254 C1255 1.399 . S
C1254 C1259 1.399 . S
C1255 C1254 1.399 . S
C1255 C1256 1.376 . S
C1256 H1243 0.930 . S
C1256 C1255 1.376 . S
C1256 C1257 1.388 . S
C1257 H1244 0.930 . S
C1257 C1256 1.388 . S
C1257 C1258 1.390 . S
C1258 C1257 1.390 . S
C1258 C1259 1.394 . S
C1258 C1264 1.465 . S
C1259 C1254 1.399 . S
C1259 C1258 1.394 . S
C1259 C1260 1.516 1_455 S
C1260 C1259 1.516 1_655 S
C1260 C1261 1.502 . S
C1260 C1262 1.561 . S
C1260 C1263 1.526 . S
C1261 H1245 0.959 . S
C1261 H1246 0.959 . S
C1261 H1247 0.983 . S
C1261 C1260 1.502 . S
C1262 H1248 0.960 . S
C1262 H1249 0.961 . S
C1262 H1250 0.959 . S
C1262 C1260 1.561 . S
C1263 C1260 1.526 . S
C1263 C1264 1.396 1_655 S
C1263 C1268 1.390 . S
C1264 C1258 1.465 . S
C1264 C1263 1.396 1_455 S
C1264 C1265 1.399 1_455 S
C1265 H1251 0.929 1_655 S
C1265 C1264 1.399 1_655 S
C1265 C1266 1.385 . S
C1266 H1252 0.931 . S
C1266 C1265 1.385 . S
C1266 C1267 1.389 . S
C1267 C1266 1.389 . S
C1267 C1268 1.387 . S
C1268 H1253 0.930 . S
C1268 C1263 1.390 . S
C1268 C1267 1.387 . S
H1269 C1281 0.930 . S
H1270 C1283 0.930 . S
H1271 C1284 0.930 . S
H1272 C1288 0.959 . S
H1273 C1288 0.959 . S
H1274 C1288 0.961 . S
H1275 C1289 0.960 . S
H1276 C1289 0.961 . S
H1277 C1289 0.959 . S
H1278 C1292 0.929 . S
H1279 C1293 0.931 . S
H1280 C1295 0.930 . S
C1281 H1269 0.930 . S
C1281 C1282 1.399 . S
C1281 C1286 1.399 . S
C1282 C1281 1.399 . S
C1282 C1283 1.376 . S
C1283 H1270 0.930 . S
C1283 C1282 1.376 . S
C1283 C1284 1.388 . S
C1284 H1271 0.930 . S
C1284 C1283 1.388 . S
C1284 C1285 1.390 . S
C1285 C1284 1.390 . S
C1285 C1286 1.394 . S
C1285 C1291 1.465 . S
C1286 C1281 1.399 . S
C1286 C1285 1.394 . S
C1286 C1287 1.516 . S
C1287 C1286 1.516 . S
C1287 C1288 1.502 . S
C1287 C1289 1.561 . S
C1287 C1290 1.526 . S
C1288 H1272 0.959 . S
C1288 H1273 0.959 . S
C1288 H1274 0.961 . S
C1288 C1287 1.502 . S
C1289 H1275 0.960 . S
C1289 H1276 0.961 . S
C1289 H1277 0.959 . S
C1289 C1287 1.561 . S
C1290 C1287 1.526 . S
C1290 C1291 1.396 . S
C1290 C1295 1.390 . S
C1291 C1285 1.465 . S
C1291 C1290 1.396 . S
C1291 C1292 1.399 . S
C1292 H1278 0.929 . S
C1292 C1291 1.399 . S
C1292 C1293 1.385 . S
C1293 H1279 0.931 . S
C1293 C1292 1.385 . S
C1293 C1294 1.389 . S
C1294 C1293 1.389 . S
C1294 C1295 1.387 . S
C1295 H1280 0.930 . S
C1295 C1290 1.390 . S
C1295 C1294 1.387 . S
H1296 C1308 0.930 . S
H1297 C1310 0.930 . S
H1298 C1311 0.930 . S
H1299 C1315 0.959 . S
H1300 C1315 0.959 . S
H1301 C1315 0.961 . S
H1302 C1316 0.960 . S
H1303 C1316 0.961 . S
H1304 C1316 0.959 . S
H1305 C1319 0.929 . S
H1306 C1320 0.931 . S
H1307 C1322 0.930 . S
C1308 H1296 0.930 . S
C1308 C1309 1.399 . S
C1308 C1313 1.399 . S
C1309 C1308 1.399 . S
C1309 C1310 1.376 . S
C1310 H1297 0.930 . S
C1310 C1309 1.376 . S
C1310 C1311 1.388 . S
C1311 H1298 0.930 . S
C1311 C1310 1.388 . S
C1311 C1312 1.390 . S
C1312 C1311 1.390 . S
C1312 C1313 1.394 . S
C1312 C1318 1.465 . S
C1313 C1308 1.399 . S
C1313 C1312 1.394 . S
C1313 C1314 1.516 . S
C1314 C1313 1.516 . S
C1314 C1315 1.502 . S
C1314 C1316 1.561 . S
C1314 C1317 1.526 . S
C1315 H1299 0.959 . S
C1315 H1300 0.959 . S
C1315 H1301 0.961 . S
C1315 C1314 1.502 . S
C1316 H1302 0.960 . S
C1316 H1303 0.961 . S
C1316 H1304 0.959 . S
C1316 C1314 1.561 . S
C1317 C1314 1.526 . S
C1317 C1318 1.396 . S
C1317 C1322 1.390 . S
C1318 C1312 1.465 . S
C1318 C1317 1.396 . S
C1318 C1319 1.399 . S
C1319 H1305 0.929 . S
C1319 C1318 1.399 . S
C1319 C1320 1.385 . S
C1320 H1306 0.931 . S
C1320 C1319 1.385 . S
C1320 C1321 1.389 . S
C1321 C1320 1.389 . S
C1321 C1322 1.387 . S
C1322 H1307 0.930 . S
C1322 C1317 1.390 . S
C1322 C1321 1.387 . S
H1323 C1335 0.930 . S
H1324 C1337 0.930 . S
H1325 C1338 0.930 . S
H1326 C1342 0.959 . S
H1327 C1342 0.959 . S
H1328 C1342 0.961 . S
H1329 C1343 0.960 . S
H1330 C1343 0.961 . S
H1331 C1343 0.959 . S
H1332 C1346 0.929 . S
H1333 C1347 0.931 . S
H1334 C1349 0.930 . S
C1335 H1323 0.930 . S
C1335 C1336 1.399 . S
C1335 C1340 1.399 . S
C1336 C1335 1.399 . S
C1336 C1337 1.376 . S
C1337 H1324 0.930 . S
C1337 C1336 1.376 . S
C1337 C1338 1.388 . S
C1338 H1325 0.930 . S
C1338 C1337 1.388 . S
C1338 C1339 1.390 . S
C1339 C1338 1.390 . S
C1339 C1340 1.394 . S
C1339 C1345 1.465 . S
C1340 C1335 1.399 . S
C1340 C1339 1.394 . S
C1340 C1341 1.516 . S
C1341 C1340 1.516 . S
C1341 C1342 1.502 . S
C1341 C1343 1.561 . S
C1341 C1344 1.526 . S
C1342 H1326 0.959 . S
C1342 H1327 0.959 . S
C1342 H1328 0.961 . S
C1342 C1341 1.502 . S
C1343 H1329 0.960 . S
C1343 H1330 0.961 . S
C1343 H1331 0.959 . S
C1343 C1341 1.561 . S
C1344 C1341 1.526 . S
C1344 C1345 1.396 . S
C1344 C1349 1.390 . S
C1345 C1339 1.465 . S
C1345 C1344 1.396 . S
C1345 C1346 1.399 . S
C1346 H1332 0.929 . S
C1346 C1345 1.399 . S
C1346 C1347 1.385 . S
C1347 H1333 0.931 . S
C1347 C1346 1.385 . S
C1347 C1348 1.389 . S
C1348 C1347 1.389 . S
C1348 C1349 1.387 . S
C1349 H1334 0.930 . S
C1349 C1344 1.390 . S
C1349 C1348 1.387 . S
H1350 C1362 0.930 . S
H1351 C1364 0.930 . S
H1352 C1365 0.930 . S
H1353 C1369 0.959 . S
H1354 C1369 0.959 . S
H1355 C1369 0.961 . S
H1356 C1370 0.960 . S
H1357 C1370 0.961 . S
H1358 C1370 0.959 . S
H1359 C1373 0.929 . S
H1360 C1374 0.931 . S
H1361 C1376 0.930 . S
C1362 H1350 0.930 . S
C1362 C1363 1.399 . S
C1362 C1367 1.399 . S
C1363 C1362 1.399 . S
C1363 C1364 1.376 . S
C1364 H1351 0.930 . S
C1364 C1363 1.376 . S
C1364 C1365 1.388 . S
C1365 H1352 0.930 . S
C1365 C1364 1.388 . S
C1365 C1366 1.390 . S
C1366 C1365 1.390 . S
C1366 C1367 1.394 . S
C1366 C1372 1.465 . S
C1367 C1362 1.399 . S
C1367 C1366 1.394 . S
C1367 C1368 1.516 . S
C1368 C1367 1.516 . S
C1368 C1369 1.502 . S
C1368 C1370 1.561 . S
C1368 C1371 1.526 . S
C1369 H1353 0.959 . S
C1369 H1354 0.959 . S
C1369 H1355 0.961 . S
C1369 C1368 1.502 . S
C1370 H1356 0.960 . S
C1370 H1357 0.961 . S
C1370 H1358 0.959 . S
C1370 C1368 1.561 . S
C1371 C1368 1.526 . S
C1371 C1372 1.396 . S
C1371 C1376 1.390 . S
C1372 C1366 1.465 . S
C1372 C1371 1.396 . S
C1372 C1373 1.399 . S
C1373 H1359 0.929 . S
C1373 C1372 1.399 . S
C1373 C1374 1.385 . S
C1374 H1360 0.931 . S
C1374 C1373 1.385 . S
C1374 C1375 1.389 . S
C1375 C1374 1.389 . S
C1375 C1376 1.387 . S
C1376 H1361 0.930 . S
C1376 C1371 1.390 . S
C1376 C1375 1.387 . S
H1377 C1389 0.930 . S
H1378 C1391 0.930 . S
H1379 C1392 0.930 . S
H1380 C1396 0.959 . S
H1381 C1396 0.959 . S
H1382 C1396 0.961 . S
H1383 C1397 0.960 . S
H1384 C1397 0.961 1_554 S
H1385 C1397 0.959 1_554 S
H1386 C1400 0.929 . S
H1387 C1401 0.931 . S
H1388 C1403 0.930 . S
C1389 H1377 0.930 . S
C1389 C1390 1.399 . S
C1389 C1394 1.399 . S
C1390 C1389 1.399 . S
C1390 C1391 1.376 . S
C1391 H1378 0.930 . S
C1391 C1390 1.376 . S
C1391 C1392 1.388 . S
C1392 H1379 0.930 . S
C1392 C1391 1.388 . S
C1392 C1393 1.390 . S
C1393 C1392 1.390 . S
C1393 C1394 1.394 . S
C1393 C1399 1.465 1_556 S
C1394 C1389 1.399 . S
C1394 C1393 1.394 . S
C1394 C1395 1.516 . S
C1395 C1394 1.516 . S
C1395 C1396 1.502 . S
C1395 C1397 1.561 . S
C1395 C1398 1.526 1_556 S
C1396 H1380 0.959 . S
C1396 H1381 0.959 . S
C1396 H1382 0.961 . S
C1396 C1395 1.502 . S
C1397 H1383 0.960 . S
C1397 H1384 0.961 1_556 S
C1397 H1385 0.959 1_556 S
C1397 C1395 1.561 . S
C1398 C1395 1.526 1_554 S
C1398 C1399 1.396 . S
C1398 C1403 1.390 . S
C1399 C1393 1.465 1_554 S
C1399 C1398 1.396 . S
C1399 C1400 1.399 . S
C1400 H1386 0.929 . S
C1400 C1399 1.399 . S
C1400 C1401 1.385 . S
C1401 H1387 0.931 . S
C1401 C1400 1.385 . S
C1401 C1402 1.389 . S
C1402 C1401 1.389 . S
C1402 C1403 1.387 . S
C1403 H1388 0.930 . S
C1403 C1398 1.390 . S
C1403 C1402 1.387 . S
H1404 C1416 0.930 . S
H1405 C1418 0.930 1_455 S
H1406 C1419 0.930 . S
H1407 C1423 0.959 . S
H1408 C1423 0.959 . S
H1409 C1423 0.961 . S
H1410 C1424 0.960 . S
H1411 C1424 0.961 . S
H1412 C1424 0.959 . S
H1413 C1427 0.929 . S
H1414 C1428 0.931 . S
H1415 C1430 0.930 . S
C1416 H1404 0.930 . S
C1416 C1417 1.399 . S
C1416 C1421 1.399 . S
C1417 C1416 1.399 . S
C1417 C1418 1.376 . S
C1418 H1405 0.930 1_655 S
C1418 C1417 1.376 . S
C1418 C1419 1.388 . S
C1419 H1406 0.930 . S
C1419 C1418 1.388 . S
C1419 C1420 1.390 . S
C1420 C1419 1.390 . S
C1420 C1421 1.394 . S
C1420 C1426 1.465 . S
C1421 C1416 1.399 . S
C1421 C1420 1.394 . S
C1421 C1422 1.516 . S
C1422 C1421 1.516 . S
C1422 C1423 1.502 . S
C1422 C1424 1.561 . S
C1422 C1425 1.526 . S
C1423 H1407 0.959 . S
C1423 H1408 0.959 . S
C1423 H1409 0.961 . S
C1423 C1422 1.502 . S
C1424 H1410 0.960 . S
C1424 H1411 0.961 . S
C1424 H1412 0.959 . S
C1424 C1422 1.561 . S
C1425 C1422 1.526 . S
C1425 C1426 1.396 . S
C1425 C1430 1.390 . S
C1426 C1420 1.465 . S
C1426 C1425 1.396 . S
C1426 C1427 1.399 . S
C1427 H1413 0.929 . S
C1427 C1426 1.399 . S
C1427 C1428 1.385 . S
C1428 H1414 0.931 . S
C1428 C1427 1.385 . S
C1428 C1429 1.389 . S
C1429 C1428 1.389 . S
C1429 C1430 1.387 . S
C1430 H1415 0.930 . S
C1430 C1425 1.390 . S
C1430 C1429 1.387 . S
H1431 C1443 0.930 . S
H1432 C1445 0.930 . S
H1433 C1446 0.930 . S
H1434 C1450 0.959 . S
H1435 C1450 0.959 . S
H1436 C1450 0.961 . S
H1437 C1451 0.960 . S
H1438 C1451 0.961 . S
H1439 C1451 0.959 . S
H1440 C1454 0.929 . S
H1441 C1455 0.931 . S
H1442 C1457 0.930 . S
C1443 H1431 0.930 . S
C1443 C1444 1.399 . S
C1443 C1448 1.399 . S
C1444 C1443 1.399 . S
C1444 C1445 1.376 . S
C1445 H1432 0.930 . S
C1445 C1444 1.376 . S
C1445 C1446 1.388 . S
C1446 H1433 0.930 . S
C1446 C1445 1.388 . S
C1446 C1447 1.390 . S
C1447 C1446 1.390 . S
C1447 C1448 1.394 . S
C1447 C1453 1.465 . S
C1448 C1443 1.399 . S
C1448 C1447 1.394 . S
C1448 C1449 1.516 . S
C1449 C1448 1.516 . S
C1449 C1450 1.502 . S
C1449 C1451 1.561 . S
C1449 C1452 1.526 . S
C1450 H1434 0.959 . S
C1450 H1435 0.959 . S
C1450 H1436 0.961 . S
C1450 C1449 1.502 . S
C1451 H1437 0.960 . S
C1451 H1438 0.961 . S
C1451 H1439 0.959 . S
C1451 C1449 1.561 . S
C1452 C1449 1.526 . S
C1452 C1453 1.396 . S
C1452 C1457 1.390 . S
C1453 C1447 1.465 . S
C1453 C1452 1.396 . S
C1453 C1454 1.399 . S
C1454 H1440 0.929 . S
C1454 C1453 1.399 . S
C1454 C1455 1.385 . S
C1455 H1441 0.931 . S
C1455 C1454 1.385 . S
C1455 C1456 1.389 . S
C1456 C1455 1.389 . S
C1456 C1457 1.387 . S
C1457 H1442 0.930 . S
C1457 C1452 1.390 . S
C1457 C1456 1.387 . S
H1458 C1470 0.930 . S
H1459 C1472 0.930 . S
H1460 C1473 0.930 . S
H1461 C1477 0.959 . S
H1462 C1477 0.959 . S
H1463 C1477 0.961 . S
H1464 C1478 0.960 . S
H1465 C1478 0.961 . S
H1466 C1478 0.959 . S
H1467 C1481 0.929 . S
H1468 C1482 0.931 . S
H1469 C1484 0.930 . S
C1470 H1458 0.930 . S
C1470 C1471 1.399 . S
C1470 C1475 1.399 . S
C1471 C1470 1.399 . S
C1471 C1472 1.376 . S
C1472 H1459 0.930 . S
C1472 C1471 1.376 . S
C1472 C1473 1.388 . S
C1473 H1460 0.930 . S
C1473 C1472 1.388 . S
C1473 C1474 1.390 . S
C1474 C1473 1.390 . S
C1474 C1475 1.394 . S
C1474 C1480 1.465 . S
C1475 C1470 1.399 . S
C1475 C1474 1.394 . S
C1475 C1476 1.516 . S
C1476 C1475 1.516 . S
C1476 C1477 1.502 . S
C1476 C1478 1.561 . S
C1476 C1479 1.526 . S
C1477 H1461 0.959 . S
C1477 H1462 0.959 . S
C1477 H1463 0.961 . S
C1477 C1476 1.502 . S
C1478 H1464 0.960 . S
C1478 H1465 0.961 . S
C1478 H1466 0.959 . S
C1478 C1476 1.561 . S
C1479 C1476 1.526 . S
C1479 C1480 1.396 . S
C1479 C1484 1.390 . S
C1480 C1474 1.465 . S
C1480 C1479 1.396 . S
C1480 C1481 1.399 . S
C1481 H1467 0.929 . S
C1481 C1480 1.399 . S
C1481 C1482 1.385 . S
C1482 H1468 0.931 . S
C1482 C1481 1.385 . S
C1482 C1483 1.389 . S
C1483 C1482 1.389 . S
C1483 C1484 1.387 . S
C1484 H1469 0.930 . S
C1484 C1479 1.390 . S
C1484 C1483 1.387 . S
H1485 C1497 0.930 . S
H1486 C1499 0.930 . S
H1487 C1500 0.930 . S
H1488 C1504 0.959 1_455 S
H1489 C1504 0.959 . S
H1490 C1504 0.961 1_455 S
H1491 C1505 0.960 . S
H1492 C1505 0.961 . S
H1493 C1505 0.959 . S
H1494 C1508 0.913 1_554 S
H1495 C1509 0.931 . S
H1496 C1511 0.930 . S
C1497 H1485 0.930 . S
C1497 C1498 1.399 . S
C1497 C1502 1.399 . S
C1498 C1497 1.399 . S
C1498 C1499 1.376 . S
C1499 H1486 0.930 . S
C1499 C1498 1.376 . S
C1499 C1500 1.388 . S
C1500 H1487 0.930 . S
C1500 C1499 1.388 . S
C1500 C1501 1.390 . S
C1501 C1500 1.390 . S
C1501 C1502 1.394 . S
C1501 C1507 1.465 . S
C1502 C1497 1.399 . S
C1502 C1501 1.394 . S
C1502 C1503 1.516 1_554 S
C1503 C1502 1.516 1_556 S
C1503 C1504 1.502 . S
C1503 C1505 1.561 . S
C1503 C1506 1.526 . S
C1504 H1488 0.959 1_655 S
C1504 H1489 0.959 . S
C1504 H1490 0.961 1_655 S
C1504 C1503 1.502 . S
C1505 H1491 0.960 . S
C1505 H1492 0.961 . S
C1505 H1493 0.959 . S
C1505 C1503 1.561 . S
C1506 C1503 1.526 . S
C1506 C1507 1.396 1_556 S
C1506 C1511 1.390 . S
C1507 C1501 1.465 . S
C1507 C1506 1.396 1_554 S
C1507 C1508 1.395 1_554 S
C1508 H1494 0.913 1_556 S
C1508 C1507 1.395 1_556 S
C1508 C1509 1.406 . S
C1509 H1495 0.931 . S
C1509 C1508 1.406 . S
C1509 C1510 1.389 . S
C1510 C1509 1.389 . S
C1510 C1511 1.387 . S
C1511 H1496 0.930 . S
C1511 C1506 1.390 . S
C1511 C1510 1.387 . S
H1512 C1524 0.930 . S
H1513 C1526 0.930 . S
H1514 C1527 0.930 . S
H1515 C1531 0.959 . S
H1516 C1531 0.959 . S
H1517 C1531 0.961 . S
H1518 C1532 0.960 . S
H1519 C1532 0.961 . S
H1520 C1532 0.959 1_565 S
H1521 C1535 0.929 . S
H1522 C1536 0.931 . S
H1523 C1538 0.930 . S
C1524 H1512 0.930 . S
C1524 C1525 1.399 . S
C1524 C1529 1.399 1_545 S
C1525 C1524 1.399 . S
C1525 C1526 1.376 1_545 S
C1526 H1513 0.930 . S
C1526 C1525 1.376 1_565 S
C1526 C1527 1.388 . S
C1527 H1514 0.930 . S
C1527 C1526 1.388 . S
C1527 C1528 1.390 . S
C1528 C1527 1.390 . S
C1528 C1529 1.394 . S
C1528 C1534 1.465 . S
C1529 C1524 1.399 1_565 S
C1529 C1528 1.394 . S
C1529 C1530 1.516 1_565 S
C1530 C1529 1.516 1_545 S
C1530 C1531 1.502 . S
C1530 C1532 1.561 . S
C1530 C1533 1.526 1_545 S
C1531 H1515 0.959 . S
C1531 H1516 0.959 . S
C1531 H1517 0.961 . S
C1531 C1530 1.502 . S
C1532 H1518 0.960 . S
C1532 H1519 0.961 . S
C1532 H1520 0.959 1_545 S
C1532 C1530 1.561 . S
C1533 C1530 1.526 1_565 S
C1533 C1534 1.396 . S
C1533 C1538 1.390 . S
C1534 C1528 1.465 . S
C1534 C1533 1.396 . S
C1534 C1535 1.399 . S
C1535 H1521 0.929 . S
C1535 C1534 1.399 . S
C1535 C1536 1.385 . S
C1536 H1522 0.931 . S
C1536 C1535 1.385 . S
C1536 C1537 1.389 . S
C1537 C1536 1.389 . S
C1537 C1538 1.387 . S
C1538 H1523 0.930 . S
C1538 C1533 1.390 . S
C1538 C1537 1.387 . S
H1539 C1551 0.930 . S
H1540 C1553 0.930 . S
H1541 C1554 0.930 . S
H1542 C1558 0.959 . S
H1543 C1558 0.959 . S
H1544 C1558 0.961 . S
H1545 C1559 0.960 . S
H1546 C1559 0.961 . S
H1547 C1559 0.959 . S
H1548 C1562 0.929 . S
H1549 C1563 0.931 . S
H1550 C1565 0.930 . S
C1551 H1539 0.930 . S
C1551 C1552 1.399 . S
C1551 C1556 1.399 1_565 S
C1552 C1551 1.399 . S
C1552 C1553 1.376 . S
C1553 H1540 0.930 . S
C1553 C1552 1.376 . S
C1553 C1554 1.388 1_565 S
C1554 H1541 0.930 . S
C1554 C1553 1.388 1_545 S
C1554 C1555 1.390 . S
C1555 C1554 1.390 . S
C1555 C1556 1.394 . S
C1555 C1561 1.465 . S
C1556 C1551 1.399 1_545 S
C1556 C1555 1.394 . S
C1556 C1557 1.516 . S
C1557 C1556 1.516 . S
C1557 C1558 1.502 . S
C1557 C1559 1.561 . S
C1557 C1560 1.526 . S
C1558 H1542 0.959 . S
C1558 H1543 0.959 . S
C1558 H1544 0.961 . S
C1558 C1557 1.502 . S
C1559 H1545 0.960 . S
C1559 H1546 0.961 . S
C1559 H1547 0.959 . S
C1559 C1557 1.561 . S
C1560 C1557 1.526 . S
C1560 C1561 1.396 . S
C1560 C1565 1.390 . S
C1561 C1555 1.465 . S
C1561 C1560 1.396 . S
C1561 C1562 1.399 . S
C1562 H1548 0.929 . S
C1562 C1561 1.399 . S
C1562 C1563 1.385 . S
C1563 H1549 0.931 . S
C1563 C1562 1.385 . S
C1563 C1564 1.389 . S
C1564 C1563 1.389 . S
C1564 C1565 1.387 . S
C1565 H1550 0.930 . S
C1565 C1560 1.390 . S
C1565 C1564 1.387 . S
H1566 C1578 0.930 . S
H1567 C1580 0.930 . S
H1568 C1581 0.930 . S
H1569 C1585 0.959 . S
H1570 C1585 0.959 . S
H1571 C1585 0.961 . S
H1572 C1586 0.960 . S
H1573 C1586 0.961 . S
H1574 C1586 0.959 . S
H1575 C1589 0.929 . S
H1576 C1590 0.931 . S
H1577 C1592 0.930 . S
C1578 H1566 0.930 . S
C1578 C1579 1.399 . S
C1578 C1583 1.399 . S
C1579 C1578 1.399 . S
C1579 C1580 1.376 . S
C1580 H1567 0.930 . S
C1580 C1579 1.376 . S
C1580 C1581 1.388 . S
C1581 H1568 0.930 . S
C1581 C1580 1.388 . S
C1581 C1582 1.390 . S
C1582 C1581 1.390 . S
C1582 C1583 1.394 . S
C1582 C1588 1.465 . S
C1583 C1578 1.399 . S
C1583 C1582 1.394 . S
C1583 C1584 1.516 . S
C1584 C1583 1.516 . S
C1584 C1585 1.502 . S
C1584 C1586 1.561 . S
C1584 C1587 1.526 . S
C1585 H1569 0.959 . S
C1585 H1570 0.959 . S
C1585 H1571 0.961 . S
C1585 C1584 1.502 . S
C1586 H1572 0.960 . S
C1586 H1573 0.961 . S
C1586 H1574 0.959 . S
C1586 C1584 1.561 . S
C1587 C1584 1.526 . S
C1587 C1588 1.396 . S
C1587 C1592 1.390 . S
C1588 C1582 1.465 . S
C1588 C1587 1.396 . S
C1588 C1589 1.399 . S
C1589 H1575 0.929 . S
C1589 C1588 1.399 . S
C1589 C1590 1.385 . S
C1590 H1576 0.931 . S
C1590 C1589 1.385 . S
C1590 C1591 1.389 . S
C1591 C1590 1.389 . S
C1591 C1592 1.387 . S
C1592 H1577 0.930 . S
C1592 C1587 1.390 . S
C1592 C1591 1.387 . S
H1593 C1605 0.930 . S
H1594 C1607 0.930 1_556 S
H1595 C1608 0.930 1_556 S
H1596 C1612 0.959 . S
H1597 C1612 0.959 . S
H1598 C1612 0.961 . S
H1599 C1613 0.960 . S
H1600 C1613 0.961 . S
H1601 C1613 0.959 . S
H1602 C1616 0.929 . S
H1603 C1617 0.931 . S
H1604 C1619 0.930 . S
C1605 H1593 0.930 . S
C1605 C1606 1.399 . S
C1605 C1610 1.399 . S
C1606 C1605 1.399 . S
C1606 C1607 1.376 . S
C1607 H1594 0.930 1_554 S
C1607 C1606 1.376 . S
C1607 C1608 1.388 . S
C1608 H1595 0.930 1_554 S
C1608 C1607 1.388 . S
C1608 C1609 1.390 . S
C1609 C1608 1.390 . S
C1609 C1610 1.394 . S
C1609 C1615 1.465 . S
C1610 C1605 1.399 . S
C1610 C1609 1.394 . S
C1610 C1611 1.516 . S
C1611 C1610 1.516 . S
C1611 C1612 1.502 . S
C1611 C1613 1.561 . S
C1611 C1614 1.526 . S
C1612 H1596 0.959 . S
C1612 H1597 0.959 . S
C1612 H1598 0.961 . S
C1612 C1611 1.502 . S
C1613 H1599 0.960 . S
C1613 H1600 0.961 . S
C1613 H1601 0.959 . S
C1613 C1611 1.561 . S
C1614 C1611 1.526 . S
C1614 C1615 1.396 . S
C1614 C1619 1.390 1_545 S
C1615 C1609 1.465 . S
C1615 C1614 1.396 . S
C1615 C1616 1.399 1_545 S
C1616 H1602 0.929 . S
C1616 C1615 1.399 1_565 S
C1616 C1617 1.385 . S
C1617 H1603 0.931 . S
C1617 C1616 1.385 . S
C1617 C1618 1.389 . S
C1618 C1617 1.389 . S
C1618 C1619 1.387 . S
C1619 H1604 0.930 . S
C1619 C1614 1.390 1_565 S
C1619 C1618 1.387 . S
H1620 C1632 0.930 . S
H1621 C1634 0.930 . S
H1622 C1635 0.930 . S
H1623 C1639 0.959 . S
H1624 C1639 0.959 . S
H1625 C1639 0.961 . S
H1626 C1640 0.960 . S
H1627 C1640 0.961 . S
H1628 C1640 0.959 . S
H1629 C1643 0.929 . S
H1630 C1644 0.931 . S
H1631 C1646 0.930 . S
C1632 H1620 0.930 . S
C1632 C1633 1.399 . S
C1632 C1637 1.399 . S
C1633 C1632 1.399 . S
C1633 C1634 1.376 . S
C1634 H1621 0.930 . S
C1634 C1633 1.376 . S
C1634 C1635 1.388 . S
C1635 H1622 0.930 . S
C1635 C1634 1.388 . S
C1635 C1636 1.390 . S
C1636 C1635 1.390 . S
C1636 C1637 1.394 . S
C1636 C1642 1.465 . S
C1637 C1632 1.399 . S
C1637 C1636 1.394 . S
C1637 C1638 1.516 . S
C1638 C1637 1.516 . S
C1638 C1639 1.502 . S
C1638 C1640 1.561 . S
C1638 C1641 1.526 . S
C1639 H1623 0.959 . S
C1639 H1624 0.959 . S
C1639 H1625 0.961 . S
C1639 C1638 1.502 . S
C1640 H1626 0.960 . S
C1640 H1627 0.961 . S
C1640 H1628 0.959 . S
C1640 C1638 1.561 . S
C1641 C1638 1.526 . S
C1641 C1642 1.396 . S
C1641 C1646 1.390 . S
C1642 C1636 1.465 . S
C1642 C1641 1.396 . S
C1642 C1643 1.399 . S
C1643 H1629 0.929 . S
C1643 C1642 1.399 . S
C1643 C1644 1.385 . S
C1644 H1630 0.931 . S
C1644 C1643 1.385 . S
C1644 C1645 1.389 . S
C1645 C1644 1.389 . S
C1645 C1646 1.387 . S
C1646 H1631 0.930 . S
C1646 C1641 1.390 . S
C1646 C1645 1.387 . S
H1647 C1659 0.930 . S
H1648 C1661 0.930 . S
H1649 C1662 0.930 . S
H1650 C1666 0.959 . S
H1651 C1666 0.959 . S
H1652 C1666 0.961 . S
H1653 C1667 0.960 . S
H1654 C1667 0.961 . S
H1655 C1667 0.959 . S
H1656 C1670 0.929 . S
H1657 C1671 0.931 . S
H1658 C1673 0.930 . S
C1659 H1647 0.930 . S
C1659 C1660 1.399 . S
C1659 C1664 1.399 1_565 S
C1660 C1659 1.399 . S
C1660 C1661 1.376 . S
C1661 H1648 0.930 . S
C1661 C1660 1.376 . S
C1661 C1662 1.388 . S
C1662 H1649 0.930 . S
C1662 C1661 1.388 . S
C1662 C1663 1.390 1_565 S
C1663 C1662 1.390 1_545 S
C1663 C1664 1.394 . S
C1663 C1669 1.465 . S
C1664 C1659 1.399 1_545 S
C1664 C1663 1.394 . S
C1664 C1665 1.516 . S
C1665 C1664 1.516 . S
C1665 C1666 1.502 . S
C1665 C1667 1.561 . S
C1665 C1668 1.526 . S
C1666 H1650 0.959 . S
C1666 H1651 0.959 . S
C1666 H1652 0.961 . S
C1666 C1665 1.502 . S
C1667 H1653 0.960 . S
C1667 H1654 0.961 . S
C1667 H1655 0.959 . S
C1667 C1665 1.561 . S
C1668 C1665 1.526 . S
C1668 C1669 1.396 . S
C1668 C1673 1.390 . S
C1669 C1663 1.465 . S
C1669 C1668 1.396 . S
C1669 C1670 1.399 . S
C1670 H1656 0.929 . S
C1670 C1669 1.399 . S
C1670 C1671 1.385 . S
C1671 H1657 0.931 . S
C1671 C1670 1.385 . S
C1671 C1672 1.389 . S
C1672 C1671 1.389 . S
C1672 C1673 1.387 . S
C1673 H1658 0.930 . S
C1673 C1668 1.390 . S
C1673 C1672 1.387 . S
H1674 C1686 0.930 . S
H1675 C1688 0.930 . S
H1676 C1689 0.930 . S
H1677 C1693 0.958 1_565 S
H1678 C1693 0.959 . S
H1679 C1693 0.961 . S
H1680 C1694 0.981 . S
H1681 C1694 0.961 . S
H1682 C1694 0.959 . S
H1683 C1697 0.929 . S
H1684 C1698 0.931 . S
H1685 C1700 0.930 . S
C1686 H1674 0.930 . S
C1686 C1687 1.399 . S
C1686 C1691 1.399 . S
C1687 C1686 1.399 . S
C1687 C1688 1.376 . S
C1688 H1675 0.930 . S
C1688 C1687 1.376 . S
C1688 C1689 1.388 . S
C1689 H1676 0.930 . S
C1689 C1688 1.388 . S
C1689 C1690 1.390 . S
C1690 C1689 1.390 . S
C1690 C1691 1.394 . S
C1690 C1696 1.465 . S
C1691 C1686 1.399 . S
C1691 C1690 1.394 . S
C1691 C1692 1.516 . S
C1692 C1691 1.516 . S
C1692 C1693 1.502 1_565 S
C1692 C1694 1.561 . S
C1692 C1695 1.526 . S
C1693 H1677 0.958 1_545 S
C1693 H1678 0.959 . S
C1693 H1679 0.961 . S
C1693 C1692 1.502 1_545 S
C1694 H1680 0.981 . S
C1694 H1681 0.961 . S
C1694 H1682 0.959 . S
C1694 C1692 1.561 . S
C1695 C1692 1.526 . S
C1695 C1696 1.396 . S
C1695 C1700 1.390 . S
C1696 C1690 1.465 . S
C1696 C1695 1.396 . S
C1696 C1697 1.399 . S
C1697 H1683 0.929 . S
C1697 C1696 1.399 . S
C1697 C1698 1.385 . S
C1698 H1684 0.931 . S
C1698 C1697 1.385 . S
C1698 C1699 1.389 . S
C1699 C1698 1.389 . S
C1699 C1700 1.387 . S
C1700 H1685 0.930 . S
C1700 C1695 1.390 . S
C1700 C1699 1.387 . S
H1701 C1713 0.930 . S
H1702 C1715 0.930 1_554 S
H1703 C1716 0.930 1_554 S
H1704 C1720 0.959 . S
H1705 C1720 0.959 . S
H1706 C1720 0.961 . S
H1707 C1721 0.960 . S
H1708 C1721 0.961 . S
H1709 C1721 0.959 . S
H1710 C1724 0.929 . S
H1711 C1725 0.931 . S
H1712 C1727 0.930 . S
C1713 H1701 0.930 . S
C1713 C1714 1.399 . S
C1713 C1718 1.399 . S
C1714 C1713 1.399 . S
C1714 C1715 1.376 . S
C1715 H1702 0.930 1_556 S
C1715 C1714 1.376 . S
C1715 C1716 1.388 . S
C1716 H1703 0.930 1_556 S
C1716 C1715 1.388 . S
C1716 C1717 1.390 . S
C1717 C1716 1.390 . S
C1717 C1718 1.394 . S
C1717 C1723 1.465 . S
C1718 C1713 1.399 . S
C1718 C1717 1.394 . S
C1718 C1719 1.516 . S
C1719 C1718 1.516 . S
C1719 C1720 1.502 . S
C1719 C1721 1.561 . S
C1719 C1722 1.526 . S
C1720 H1704 0.959 . S
C1720 H1705 0.959 . S
C1720 H1706 0.961 . S
C1720 C1719 1.502 . S
C1721 H1707 0.960 . S
C1721 H1708 0.961 . S
C1721 H1709 0.959 . S
C1721 C1719 1.561 . S
C1722 C1719 1.526 . S
C1722 C1723 1.396 . S
C1722 C1727 1.390 . S
C1723 C1717 1.465 . S
C1723 C1722 1.396 . S
C1723 C1724 1.399 . S
C1724 H1710 0.929 . S
C1724 C1723 1.399 . S
C1724 C1725 1.385 1_545 S
C1725 H1711 0.931 . S
C1725 C1724 1.385 1_565 S
C1725 C1726 1.389 . S
C1726 C1725 1.389 . S
C1726 C1727 1.387 1_565 S
C1727 H1712 0.930 . S
C1727 C1722 1.390 . S
C1727 C1726 1.387 1_545 S
H1728 C1740 0.930 . S
H1729 C1742 0.930 1_554 S
H1730 C1743 0.930 . S
H1731 C1747 0.959 . S
H1732 C1747 0.959 . S
H1733 C1747 0.961 . S
H1734 C1748 0.960 . S
H1735 C1748 0.961 . S
H1736 C1748 0.959 . S
H1737 C1751 0.929 . S
H1738 C1752 0.931 . S
H1739 C1754 0.930 . S
C1740 H1728 0.930 . S
C1740 C1741 1.399 . S
C1740 C1745 1.399 . S
C1741 C1740 1.399 . S
C1741 C1742 1.376 . S
C1742 H1729 0.930 1_556 S
C1742 C1741 1.376 . S
C1742 C1743 1.388 . S
C1743 H1730 0.930 . S
C1743 C1742 1.388 . S
C1743 C1744 1.390 . S
C1744 C1743 1.390 . S
C1744 C1745 1.394 . S
C1744 C1750 1.465 . S
C1745 C1740 1.399 . S
C1745 C1744 1.394 . S
C1745 C1746 1.516 . S
C1746 C1745 1.516 . S
C1746 C1747 1.502 . S
C1746 C1748 1.561 . S
C1746 C1749 1.526 . S
C1747 H1731 0.959 . S
C1747 H1732 0.959 . S
C1747 H1733 0.961 . S
C1747 C1746 1.502 . S
C1748 H1734 0.960 . S
C1748 H1735 0.961 . S
C1748 H1736 0.959 . S
C1748 C1746 1.561 . S
C1749 C1746 1.526 . S
C1749 C1750 1.396 . S
C1749 C1754 1.390 . S
C1750 C1744 1.465 . S
C1750 C1749 1.396 . S
C1750 C1751 1.399 . S
C1751 H1737 0.929 . S
C1751 C1750 1.399 . S
C1751 C1752 1.385 . S
C1752 H1738 0.931 . S
C1752 C1751 1.385 . S
C1752 C1753 1.389 . S
C1753 C1752 1.389 . S
C1753 C1754 1.387 . S
C1754 H1739 0.930 . S
C1754 C1749 1.390 . S
C1754 C1753 1.387 . S
H1755 C1767 0.930 . S
H1756 C1769 0.930 . S
H1757 C1770 0.930 . S
H1758 C1774 0.959 . S
H1759 C1774 0.959 . S
H1760 C1774 0.961 . S
H1761 C1775 0.960 . S
H1762 C1775 0.961 . S
H1763 C1775 0.959 . S
H1764 C1778 0.929 . S
H1765 C1779 0.931 . S
H1766 C1781 0.930 . S
C1767 H1755 0.930 . S
C1767 C1768 1.399 . S
C1767 C1772 1.399 . S
C1768 C1767 1.399 . S
C1768 C1769 1.376 . S
C1769 H1756 0.930 . S
C1769 C1768 1.376 . S
C1769 C1770 1.388 . S
C1770 H1757 0.930 . S
C1770 C1769 1.388 . S
C1770 C1771 1.390 . S
C1771 C1770 1.390 . S
C1771 C1772 1.394 . S
C1771 C1777 1.465 . S
C1772 C1767 1.399 . S
C1772 C1771 1.394 . S
C1772 C1773 1.516 . S
C1773 C1772 1.516 . S
C1773 C1774 1.502 . S
C1773 C1775 1.561 . S
C1773 C1776 1.526 . S
C1774 H1758 0.959 . S
C1774 H1759 0.959 . S
C1774 H1760 0.961 . S
C1774 C1773 1.502 . S
C1775 H1761 0.960 . S
C1775 H1762 0.961 . S
C1775 H1763 0.959 . S
C1775 C1773 1.561 . S
C1776 C1773 1.526 . S
C1776 C1777 1.396 . S
C1776 C1781 1.390 . S
C1777 C1771 1.465 . S
C1777 C1776 1.396 . S
C1777 C1778 1.399 . S
C1778 H1764 0.929 . S
C1778 C1777 1.399 . S
C1778 C1779 1.385 . S
C1779 H1765 0.931 . S
C1779 C1778 1.385 . S
C1779 C1780 1.389 . S
C1780 C1779 1.389 . S
C1780 C1781 1.387 . S
C1781 H1766 0.930 . S
C1781 C1776 1.390 . S
C1781 C1780 1.387 . S
H1782 C1794 0.930 . S
H1783 C1796 0.930 . S
H1784 C1797 0.930 . S
H1785 C1801 0.959 . S
H1786 C1801 0.959 . S
H1787 C1801 0.938 1_655 S
H1788 C1802 0.960 . S
H1789 C1802 0.984 . S
H1790 C1802 0.959 . S
H1791 C1805 0.929 . S
H1792 C1806 0.931 . S
H1793 C1808 0.930 . S
C1794 H1782 0.930 . S
C1794 C1795 1.399 . S
C1794 C1799 1.399 . S
C1795 C1794 1.399 . S
C1795 C1796 1.376 . S
C1796 H1783 0.930 . S
C1796 C1795 1.376 . S
C1796 C1797 1.388 . S
C1797 H1784 0.930 . S
C1797 C1796 1.388 . S
C1797 C1798 1.390 . S
C1798 C1797 1.390 . S
C1798 C1799 1.394 . S
C1798 C1804 1.465 1_655 S
C1799 C1794 1.399 . S
C1799 C1798 1.394 . S
C1799 C1800 1.494 1_655 S
C1800 C1799 1.494 1_455 S
C1800 C1801 1.516 . S
C1800 C1802 1.544 1_455 S
C1800 C1803 1.551 . S
C1801 H1785 0.959 . S
C1801 H1786 0.959 . S
C1801 H1787 0.938 1_455 S
C1801 C1800 1.516 . S
C1802 H1788 0.960 . S
C1802 H1789 0.984 . S
C1802 H1790 0.959 . S
C1802 C1800 1.544 1_655 S
C1803 C1800 1.551 . S
C1803 C1804 1.396 . S
C1803 C1808 1.390 . S
C1804 C1798 1.465 1_455 S
C1804 C1803 1.396 . S
C1804 C1805 1.399 . S
C1805 H1791 0.929 . S
C1805 C1804 1.399 . S
C1805 C1806 1.385 . S
C1806 H1792 0.931 . S
C1806 C1805 1.385 . S
C1806 C1807 1.389 . S
C1807 C1806 1.389 . S
C1807 C1808 1.387 . S
C1808 H1793 0.930 . S
C1808 C1803 1.390 . S
C1808 C1807 1.387 . S
H1809 C1821 0.930 . S
H1810 C1823 0.930 . S
H1811 C1824 0.930 . S
H1812 C1828 0.959 . S
H1813 C1828 0.959 . S
H1814 C1828 0.961 . S
H1815 C1829 0.960 . S
H1816 C1829 0.961 . S
H1817 C1829 0.959 . S
H1818 C1832 0.929 . S
H1819 C1833 0.931 . S
H1820 C1835 0.930 . S
C1821 H1809 0.930 . S
C1821 C1822 1.399 . S
C1821 C1826 1.399 . S
C1822 C1821 1.399 . S
C1822 C1823 1.376 . S
C1823 H1810 0.930 . S
C1823 C1822 1.376 . S
C1823 C1824 1.388 . S
C1824 H1811 0.930 . S
C1824 C1823 1.388 . S
C1824 C1825 1.390 . S
C1825 C1824 1.390 . S
C1825 C1826 1.394 . S
C1825 C1831 1.465 . S
C1826 C1821 1.399 . S
C1826 C1825 1.394 . S
C1826 C1827 1.516 . S
C1827 C1826 1.516 . S
C1827 C1828 1.502 . S
C1827 C1829 1.561 . S
C1827 C1830 1.526 . S
C1828 H1812 0.959 . S
C1828 H1813 0.959 . S
C1828 H1814 0.961 . S
C1828 C1827 1.502 . S
C1829 H1815 0.960 . S
C1829 H1816 0.961 . S
C1829 H1817 0.959 . S
C1829 C1827 1.561 . S
C1830 C1827 1.526 . S
C1830 C1831 1.396 . S
C1830 C1835 1.390 . S
C1831 C1825 1.465 . S
C1831 C1830 1.396 . S
C1831 C1832 1.399 . S
C1832 H1818 0.929 . S
C1832 C1831 1.399 . S
C1832 C1833 1.385 . S
C1833 H1819 0.931 . S
C1833 C1832 1.385 . S
C1833 C1834 1.389 . S
C1834 C1833 1.389 . S
C1834 C1835 1.387 . S
C1835 H1820 0.930 . S
C1835 C1830 1.390 . S
C1835 C1834 1.387 . S
H1836 C1848 0.930 . S
H1837 C1850 0.930 . S
H1838 C1851 0.930 . S
H1839 C1855 0.959 1_545 S
H1840 C1855 0.959 . S
H1841 C1855 0.961 . S
H1842 C1856 0.960 1_455 S
H1843 C1856 0.961 . S
H1844 C1856 0.959 1_455 S
H1845 C1859 0.929 . S
H1846 C1860 0.929 1_545 S
H1847 C1862 0.930 . S
C1848 H1836 0.930 . S
C1848 C1849 1.399 . S
C1848 C1853 1.399 . S
C1849 C1848 1.399 . S
C1849 C1850 1.376 . S
C1850 H1837 0.930 . S
C1850 C1849 1.376 . S
C1850 C1851 1.388 . S
C1851 H1838 0.930 . S
C1851 C1850 1.388 . S
C1851 C1852 1.390 . S
C1852 C1851 1.390 . S
C1852 C1853 1.394 . S
C1852 C1858 1.465 1_455 S
C1853 C1848 1.399 . S
C1853 C1852 1.394 . S
C1853 C1854 1.516 1_445 S
C1854 C1853 1.516 1_665 S
C1854 C1855 1.502 . S
C1854 C1856 1.561 . S
C1854 C1857 1.526 . S
C1855 H1839 0.959 1_565 S
C1855 H1840 0.959 . S
C1855 H1841 0.961 . S
C1855 C1854 1.502 . S
C1856 H1842 0.960 1_655 S
C1856 H1843 0.961 . S
C1856 H1844 0.959 1_655 S
C1856 C1854 1.561 . S
C1857 C1854 1.526 . S
C1857 C1858 1.396 1_565 S
C1857 C1862 1.390 . S
C1858 C1852 1.465 1_655 S
C1858 C1857 1.396 1_545 S
C1858 C1859 1.399 . S
C1859 H1845 0.929 . S
C1859 C1858 1.399 . S
C1859 C1860 1.385 1_545 S
C1860 H1846 0.929 1_565 S
C1860 C1859 1.385 1_565 S
C1860 C1861 1.389 . S
C1861 C1860 1.389 . S
C1861 C1862 1.387 . S
C1862 H1847 0.930 . S
C1862 C1857 1.390 . S
C1862 C1861 1.387 . S
H1863 C1875 0.930 . S
H1864 C1877 0.930 . S
H1865 C1878 0.930 . S
H1866 C1882 0.959 . S
H1867 C1882 0.959 . S
H1868 C1882 0.961 . S
H1869 C1883 0.960 . S
H1870 C1883 0.961 . S
H1871 C1883 0.959 . S
H1872 C1886 0.929 . S
H1873 C1887 0.931 . S
H1874 C1889 0.930 . S
C1875 H1863 0.930 . S
C1875 C1876 1.399 . S
C1875 C1880 1.399 . S
C1876 C1875 1.399 . S
C1876 C1877 1.376 . S
C1877 H1864 0.930 . S
C1877 C1876 1.376 . S
C1877 C1878 1.388 . S
C1878 H1865 0.930 . S
C1878 C1877 1.388 . S
C1878 C1879 1.390 . S
C1879 C1878 1.390 . S
C1879 C1880 1.394 . S
C1879 C1885 1.465 . S
C1880 C1875 1.399 . S
C1880 C1879 1.394 . S
C1880 C1881 1.516 . S
C1881 C1880 1.516 . S
C1881 C1882 1.502 . S
C1881 C1883 1.561 . S
C1881 C1884 1.526 . S
C1882 H1866 0.959 . S
C1882 H1867 0.959 . S
C1882 H1868 0.961 . S
C1882 C1881 1.502 . S
C1883 H1869 0.960 . S
C1883 H1870 0.961 . S
C1883 H1871 0.959 . S
C1883 C1881 1.561 . S
C1884 C1881 1.526 . S
C1884 C1885 1.396 . S
C1884 C1889 1.390 . S
C1885 C1879 1.465 . S
C1885 C1884 1.396 . S
C1885 C1886 1.399 . S
C1886 H1872 0.929 . S
C1886 C1885 1.399 . S
C1886 C1887 1.385 . S
C1887 H1873 0.931 . S
C1887 C1886 1.385 . S
C1887 C1888 1.389 . S
C1888 C1887 1.389 . S
C1888 C1889 1.387 . S
C1889 H1874 0.930 . S
C1889 C1884 1.390 . S
C1889 C1888 1.387 . S
H1890 C1902 0.930 . S
H1891 C1904 0.930 . S
H1892 C1905 0.930 . S
H1893 C1909 0.959 . S
H1894 C1909 0.959 . S
H1895 C1909 0.961 1_655 S
H1896 C1910 0.960 . S
H1897 C1910 0.961 1_455 S
H1898 C1910 0.959 . S
H1899 C1913 0.929 . S
H1900 C1914 0.931 . S
H1901 C1916 0.930 . S
C1902 H1890 0.930 . S
C1902 C1903 1.399 . S
C1902 C1907 1.399 . S
C1903 C1902 1.399 . S
C1903 C1904 1.376 . S
C1904 H1891 0.930 . S
C1904 C1903 1.376 . S
C1904 C1905 1.388 . S
C1905 H1892 0.930 . S
C1905 C1904 1.388 . S
C1905 C1906 1.390 . S
C1906 C1905 1.390 . S
C1906 C1907 1.394 . S
C1906 C1912 1.465 1_655 S
C1907 C1902 1.399 . S
C1907 C1906 1.394 . S
C1907 C1908 1.516 1_655 S
C1908 C1907 1.516 1_455 S
C1908 C1909 1.502 . S
C1908 C1910 1.561 1_455 S
C1908 C1911 1.526 . S
C1909 H1893 0.959 . S
C1909 H1894 0.959 . S
C1909 H1895 0.961 1_455 S
C1909 C1908 1.502 . S
C1910 H1896 0.960 . S
C1910 H1897 0.961 1_655 S
C1910 H1898 0.959 . S
C1910 C1908 1.561 1_655 S
C1911 C1908 1.526 . S
C1911 C1912 1.396 . S
C1911 C1916 1.390 . S
C1912 C1906 1.465 1_455 S
C1912 C1911 1.396 . S
C1912 C1913 1.399 . S
C1913 H1899 0.929 . S
C1913 C1912 1.399 . S
C1913 C1914 1.385 . S
C1914 H1900 0.931 . S
C1914 C1913 1.385 . S
C1914 C1915 1.389 . S
C1915 C1914 1.389 . S
C1915 C1916 1.387 . S
C1916 H1901 0.930 . S
C1916 C1911 1.390 . S
C1916 C1915 1.387 . S
H1917 C1929 0.930 . S
H1918 C1931 0.930 . S
H1919 C1932 0.930 . S
H1920 C1936 0.959 . S
H1921 C1936 0.959 . S
H1922 C1936 0.961 . S
H1923 C1937 0.960 . S
H1924 C1937 0.961 . S
H1925 C1937 0.959 . S
H1926 C1940 0.929 . S
H1927 C1941 0.931 . S
H1928 C1943 0.930 . S
C1929 H1917 0.930 . S
C1929 C1930 1.399 . S
C1929 C1934 1.399 . S
C1930 C1929 1.399 . S
C1930 C1931 1.376 . S
C1931 H1918 0.930 . S
C1931 C1930 1.376 . S
C1931 C1932 1.388 . S
C1932 H1919 0.930 . S
C1932 C1931 1.388 . S
C1932 C1933 1.390 . S
C1933 C1932 1.390 . S
C1933 C1934 1.394 . S
C1933 C1939 1.465 . S
C1934 C1929 1.399 . S
C1934 C1933 1.394 . S
C1934 C1935 1.516 . S
C1935 C1934 1.516 . S
C1935 C1936 1.502 . S
C1935 C1937 1.561 . S
C1935 C1938 1.526 . S
C1936 H1920 0.959 . S
C1936 H1921 0.959 . S
C1936 H1922 0.961 . S
C1936 C1935 1.502 . S
C1937 H1923 0.960 . S
C1937 H1924 0.961 . S
C1937 H1925 0.959 . S
C1937 C1935 1.561 . S
C1938 C1935 1.526 . S
C1938 C1939 1.396 . S
C1938 C1943 1.390 . S
C1939 C1933 1.465 . S
C1939 C1938 1.396 . S
C1939 C1940 1.399 . S
C1940 H1926 0.929 . S
C1940 C1939 1.399 . S
C1940 C1941 1.385 . S
C1941 H1927 0.931 . S
C1941 C1940 1.385 . S
C1941 C1942 1.389 . S
C1942 C1941 1.389 . S
C1942 C1943 1.387 . S
C1943 H1928 0.930 . S
C1943 C1938 1.390 . S
C1943 C1942 1.387 . S
H1944 C1956 0.930 . S
H1945 C1958 0.930 . S
H1946 C1959 0.930 . S
H1947 C1963 0.959 . S
H1948 C1963 0.959 . S
H1949 C1963 0.961 . S
H1950 C1964 0.960 . S
H1951 C1964 0.961 . S
H1952 C1964 0.959 . S
H1953 C1967 0.929 . S
H1954 C1968 0.931 . S
H1955 C1970 0.930 . S
C1956 H1944 0.930 . S
C1956 C1957 1.399 . S
C1956 C1961 1.399 . S
C1957 C1956 1.399 . S
C1957 C1958 1.376 . S
C1958 H1945 0.930 . S
C1958 C1957 1.376 . S
C1958 C1959 1.388 . S
C1959 H1946 0.930 . S
C1959 C1958 1.388 . S
C1959 C1960 1.390 . S
C1960 C1959 1.390 . S
C1960 C1961 1.394 . S
C1960 C1966 1.465 . S
C1961 C1956 1.399 . S
C1961 C1960 1.394 . S
C1961 C1962 1.516 . S
C1962 C1961 1.516 . S
C1962 C1963 1.502 . S
C1962 C1964 1.561 . S
C1962 C1965 1.526 . S
C1963 H1947 0.959 . S
C1963 H1948 0.959 . S
C1963 H1949 0.961 . S
C1963 C1962 1.502 . S
C1964 H1950 0.960 . S
C1964 H1951 0.961 . S
C1964 H1952 0.959 . S
C1964 C1962 1.561 . S
C1965 C1962 1.526 . S
C1965 C1966 1.396 . S
C1965 C1970 1.390 . S
C1966 C1960 1.465 . S
C1966 C1965 1.396 . S
C1966 C1967 1.399 . S
C1967 H1953 0.929 . S
C1967 C1966 1.399 . S
C1967 C1968 1.385 . S
C1968 H1954 0.931 . S
C1968 C1967 1.385 . S
C1968 C1969 1.389 . S
C1969 C1968 1.389 . S
C1969 C1970 1.387 . S
C1970 H1955 0.930 . S
C1970 C1965 1.390 . S
C1970 C1969 1.387 . S
H1971 C1983 0.930 . S
H1972 C1985 0.930 . S
H1973 C1986 0.930 . S
H1974 C1990 0.959 . S
H1975 C1990 0.959 1_556 S
H1976 C1990 0.961 . S
H1977 C1991 0.960 . S
H1978 C1991 0.961 1_556 S
H1979 C1991 0.960 . S
H1980 C1994 0.929 . S
H1981 C1995 0.931 . S
H1982 C1997 0.930 . S
C1983 H1971 0.930 . S
C1983 C1984 1.399 . S
C1983 C1988 1.399 . S
C1984 C1983 1.399 . S
C1984 C1985 1.376 . S
C1985 H1972 0.930 . S
C1985 C1984 1.376 . S
C1985 C1986 1.388 . S
C1986 H1973 0.930 . S
C1986 C1985 1.388 . S
C1986 C1987 1.390 . S
C1987 C1986 1.390 . S
C1987 C1988 1.394 . S
C1987 C1993 1.465 . S
C1988 C1983 1.399 . S
C1988 C1987 1.394 . S
C1988 C1989 1.516 . S
C1989 C1988 1.516 . S
C1989 C1990 1.502 . S
C1989 C1991 1.561 . S
C1989 C1992 1.518 1_554 S
C1990 H1974 0.959 . S
C1990 H1975 0.959 1_554 S
C1990 H1976 0.961 . S
C1990 C1989 1.502 . S
C1991 H1977 0.960 . S
C1991 H1978 0.961 1_554 S
C1991 H1979 0.960 . S
C1991 C1989 1.561 . S
C1992 C1989 1.518 1_556 S
C1992 C1993 1.388 1_556 S
C1992 C1997 1.404 . S
C1993 C1987 1.465 . S
C1993 C1992 1.388 1_554 S
C1993 C1994 1.399 . S
C1994 H1980 0.929 . S
C1994 C1993 1.399 . S
C1994 C1995 1.385 1_554 S
C1995 H1981 0.931 . S
C1995 C1994 1.385 1_556 S
C1995 C1996 1.389 . S
C1996 C1995 1.389 . S
C1996 C1997 1.387 . S
C1997 H1982 0.930 . S
C1997 C1992 1.404 . S
C1997 C1996 1.387 . S
H1998 C2010 0.930 . S
H1999 C2012 0.930 . S
H2000 C2013 0.930 . S
H2001 C2017 0.959 . S
H2002 C2017 0.959 . S
H2003 C2017 0.961 . S
H2004 C2018 0.960 . S
H2005 C2018 0.961 . S
H2006 C2018 0.959 . S
H2007 C2021 0.929 . S
H2008 C2022 0.931 . S
H2009 C2024 0.930 . S
C2010 H1998 0.930 . S
C2010 C2011 1.399 . S
C2010 C2015 1.399 . S
C2011 C2010 1.399 . S
C2011 C2012 1.376 . S
C2012 H1999 0.930 . S
C2012 C2011 1.376 . S
C2012 C2013 1.388 . S
C2013 H2000 0.930 . S
C2013 C2012 1.388 . S
C2013 C2014 1.390 . S
C2014 C2013 1.390 . S
C2014 C2015 1.394 . S
C2014 C2020 1.465 . S
C2015 C2010 1.399 . S
C2015 C2014 1.394 . S
C2015 C2016 1.516 . S
C2016 C2015 1.516 . S
C2016 C2017 1.502 . S
C2016 C2018 1.561 . S
C2016 C2019 1.526 . S
C2017 H2001 0.959 . S
C2017 H2002 0.959 . S
C2017 H2003 0.961 . S
C2017 C2016 1.502 . S
C2018 H2004 0.960 . S
C2018 H2005 0.961 . S
C2018 H2006 0.959 . S
C2018 C2016 1.561 . S
C2019 C2016 1.526 . S
C2019 C2020 1.396 . S
C2019 C2024 1.390 . S
C2020 C2014 1.465 . S
C2020 C2019 1.396 . S
C2020 C2021 1.399 . S
C2021 H2007 0.929 . S
C2021 C2020 1.399 . S
C2021 C2022 1.385 . S
C2022 H2008 0.931 . S
C2022 C2021 1.385 . S
C2022 C2023 1.389 . S
C2023 C2022 1.389 . S
C2023 C2024 1.387 . S
C2024 H2009 0.930 . S
C2024 C2019 1.390 . S
C2024 C2023 1.387 . S
H2025 C2037 0.930 . S
H2026 C2039 0.930 . S
H2027 C2040 0.930 . S
H2028 C2044 0.959 . S
H2029 C2044 0.959 . S
H2030 C2044 0.961 . S
H2031 C2045 0.960 . S
H2032 C2045 0.961 . S
H2033 C2045 0.959 . S
H2034 C2048 0.929 . S
H2035 C2049 0.931 . S
H2036 C2051 0.930 . S
C2037 H2025 0.930 . S
C2037 C2038 1.399 . S
C2037 C2042 1.399 . S
C2038 C2037 1.399 . S
C2038 C2039 1.376 . S
C2039 H2026 0.930 . S
C2039 C2038 1.376 . S
C2039 C2040 1.388 . S
C2040 H2027 0.930 . S
C2040 C2039 1.388 . S
C2040 C2041 1.390 . S
C2041 C2040 1.390 . S
C2041 C2042 1.394 . S
C2041 C2047 1.465 . S
C2042 C2037 1.399 . S
C2042 C2041 1.394 . S
C2042 C2043 1.516 . S
C2043 C2042 1.516 . S
C2043 C2044 1.502 . S
C2043 C2045 1.561 . S
C2043 C2046 1.526 . S
C2044 H2028 0.959 . S
C2044 H2029 0.959 . S
C2044 H2030 0.961 . S
C2044 C2043 1.502 . S
C2045 H2031 0.960 . S
C2045 H2032 0.961 . S
C2045 H2033 0.959 . S
C2045 C2043 1.561 . S
C2046 C2043 1.526 . S
C2046 C2047 1.396 . S
C2046 C2051 1.390 . S
C2047 C2041 1.465 . S
C2047 C2046 1.396 . S
C2047 C2048 1.399 . S
C2048 H2034 0.929 . S
C2048 C2047 1.399 . S
C2048 C2049 1.385 . S
C2049 H2035 0.931 . S
C2049 C2048 1.385 . S
C2049 C2050 1.389 . S
C2050 C2049 1.389 . S
C2050 C2051 1.387 . S
C2051 H2036 0.930 . S
C2051 C2046 1.390 . S
C2051 C2050 1.387 . S
H2052 C2064 0.930 . S
H2053 C2066 0.930 . S
H2054 C2067 0.930 . S
H2055 C2071 0.959 . S
H2056 C2071 0.959 . S
H2057 C2071 0.961 . S
H2058 C2072 0.960 . S
H2059 C2072 0.961 . S
H2060 C2072 0.959 . S
H2061 C2075 0.929 . S
H2062 C2076 0.931 . S
H2063 C2078 0.930 . S
C2064 H2052 0.930 . S
C2064 C2065 1.399 . S
C2064 C2069 1.399 . S
C2065 C2064 1.399 . S
C2065 C2066 1.376 . S
C2066 H2053 0.930 . S
C2066 C2065 1.376 . S
C2066 C2067 1.388 . S
C2067 H2054 0.930 . S
C2067 C2066 1.388 . S
C2067 C2068 1.390 . S
C2068 C2067 1.390 . S
C2068 C2069 1.394 . S
C2068 C2074 1.465 . S
C2069 C2064 1.399 . S
C2069 C2068 1.394 . S
C2069 C2070 1.516 . S
C2070 C2069 1.516 . S
C2070 C2071 1.502 . S
C2070 C2072 1.561 . S
C2070 C2073 1.526 . S
C2071 H2055 0.959 . S
C2071 H2056 0.959 . S
C2071 H2057 0.961 . S
C2071 C2070 1.502 . S
C2072 H2058 0.960 . S
C2072 H2059 0.961 . S
C2072 H2060 0.959 . S
C2072 C2070 1.561 . S
C2073 C2070 1.526 . S
C2073 C2074 1.396 . S
C2073 C2078 1.390 . S
C2074 C2068 1.465 . S
C2074 C2073 1.396 . S
C2074 C2075 1.399 . S
C2075 H2061 0.929 . S
C2075 C2074 1.399 . S
C2075 C2076 1.385 . S
C2076 H2062 0.931 . S
C2076 C2075 1.385 . S
C2076 C2077 1.389 . S
C2077 C2076 1.389 . S
C2077 C2078 1.387 . S
C2078 H2063 0.930 . S
C2078 C2073 1.390 . S
C2078 C2077 1.387 . S
H2079 C2091 0.930 1_455 S
H2080 C2093 0.930 . S
H2081 C2094 0.930 . S
H2082 C2098 0.959 . S
H2083 C2098 0.959 . S
H2084 C2098 0.961 . S
H2085 C2099 0.960 . S
H2086 C2099 0.961 . S
H2087 C2099 0.959 . S
H2088 C2102 0.929 . S
H2089 C2103 0.931 . S
H2090 C2105 0.930 . S
C2091 H2079 0.930 1_655 S
C2091 C2092 1.399 . S
C2091 C2096 1.385 1_556 S
C2092 C2091 1.399 . S
C2092 C2093 1.376 . S
C2093 H2080 0.930 . S
C2093 C2092 1.376 . S
C2093 C2094 1.388 . S
C2094 H2081 0.930 . S
C2094 C2093 1.388 . S
C2094 C2095 1.414 . S
C2095 C2094 1.414 . S
C2095 C2096 1.392 1_556 S
C2095 C2101 1.440 1_556 S
C2096 C2091 1.385 1_554 S
C2096 C2095 1.392 1_554 S
C2096 C2097 1.532 . S
C2097 C2096 1.532 . S
C2097 C2098 1.502 1_655 S
C2097 C2099 1.561 1_655 S
C2097 C2100 1.526 . S
C2098 H2082 0.959 . S
C2098 H2083 0.959 . S
C2098 H2084 0.961 . S
C2098 C2097 1.502 1_455 S
C2099 H2085 0.960 . S
C2099 H2086 0.961 . S
C2099 H2087 0.959 . S
C2099 C2097 1.561 1_455 S
C2100 C2097 1.526 . S
C2100 C2101 1.396 . S
C2100 C2105 1.390 . S
C2101 C2095 1.440 1_554 S
C2101 C2100 1.396 . S
C2101 C2102 1.399 . S
C2102 H2088 0.929 . S
C2102 C2101 1.399 . S
C2102 C2103 1.385 . S
C2103 H2089 0.931 . S
C2103 C2102 1.385 . S
C2103 C2104 1.389 . S
C2104 C2103 1.389 . S
C2104 C2105 1.387 . S
C2105 H2090 0.930 . S
C2105 C2100 1.390 . S
C2105 C2104 1.387 . S
H2106 C2118 0.930 . S
H2107 C2120 0.930 . S
H2108 C2121 0.930 . S
H2109 C2125 0.959 . S
H2110 C2125 0.959 . S
H2111 C2125 0.961 . S
H2112 C2126 0.960 . S
H2113 C2126 0.961 . S
H2114 C2126 0.959 . S
H2115 C2129 0.929 . S
H2116 C2130 0.931 . S
H2117 C2132 0.930 . S
C2118 H2106 0.930 . S
C2118 C2119 1.399 . S
C2118 C2123 1.399 . S
C2119 C2118 1.399 . S
C2119 C2120 1.376 . S
C2120 H2107 0.930 . S
C2120 C2119 1.376 . S
C2120 C2121 1.388 . S
C2121 H2108 0.930 . S
C2121 C2120 1.388 . S
C2121 C2122 1.390 . S
C2122 C2121 1.390 . S
C2122 C2123 1.394 . S
C2122 C2128 1.465 . S
C2123 C2118 1.399 . S
C2123 C2122 1.394 . S
C2123 C2124 1.516 . S
C2124 C2123 1.516 . S
C2124 C2125 1.502 . S
C2124 C2126 1.561 . S
C2124 C2127 1.526 . S
C2125 H2109 0.959 . S
C2125 H2110 0.959 . S
C2125 H2111 0.961 . S
C2125 C2124 1.502 . S
C2126 H2112 0.960 . S
C2126 H2113 0.961 . S
C2126 H2114 0.959 . S
C2126 C2124 1.561 . S
C2127 C2124 1.526 . S
C2127 C2128 1.396 . S
C2127 C2132 1.390 . S
C2128 C2122 1.465 . S
C2128 C2127 1.396 . S
C2128 C2129 1.399 . S
C2129 H2115 0.929 . S
C2129 C2128 1.399 . S
C2129 C2130 1.385 . S
C2130 H2116 0.931 . S
C2130 C2129 1.385 . S
C2130 C2131 1.389 . S
C2131 C2130 1.389 . S
C2131 C2132 1.387 . S
C2132 H2117 0.930 . S
C2132 C2127 1.390 . S
C2132 C2131 1.387 . S
H2133 C2145 0.930 . S
H2134 C2147 0.930 . S
H2135 C2148 0.930 . S
H2136 C2152 0.959 . S
H2137 C2152 0.959 . S
H2138 C2152 0.961 . S
H2139 C2153 0.960 . S
H2140 C2153 0.961 . S
H2141 C2153 0.959 . S
H2142 C2156 0.929 . S
H2143 C2157 0.931 . S
H2144 C2159 0.930 . S
C2145 H2133 0.930 . S
C2145 C2146 1.399 . S
C2145 C2150 1.399 . S
C2146 C2145 1.399 . S
C2146 C2147 1.376 . S
C2147 H2134 0.930 . S
C2147 C2146 1.376 . S
C2147 C2148 1.388 . S
C2148 H2135 0.930 . S
C2148 C2147 1.388 . S
C2148 C2149 1.390 . S
C2149 C2148 1.390 . S
C2149 C2150 1.394 . S
C2149 C2155 1.465 . S
C2150 C2145 1.399 . S
C2150 C2149 1.394 . S
C2150 C2151 1.516 . S
C2151 C2150 1.516 . S
C2151 C2152 1.502 . S
C2151 C2153 1.561 . S
C2151 C2154 1.526 . S
C2152 H2136 0.959 . S
C2152 H2137 0.959 . S
C2152 H2138 0.961 . S
C2152 C2151 1.502 . S
C2153 H2139 0.960 . S
C2153 H2140 0.961 . S
C2153 H2141 0.959 . S
C2153 C2151 1.561 . S
C2154 C2151 1.526 . S
C2154 C2155 1.396 . S
C2154 C2159 1.390 . S
C2155 C2149 1.465 . S
C2155 C2154 1.396 . S
C2155 C2156 1.399 . S
C2156 H2142 0.929 . S
C2156 C2155 1.399 . S
C2156 C2157 1.385 . S
C2157 H2143 0.931 . S
C2157 C2156 1.385 . S
C2157 C2158 1.389 . S
C2158 C2157 1.389 . S
C2158 C2159 1.387 . S
C2159 H2144 0.930 . S
C2159 C2154 1.390 . S
C2159 C2158 1.387 . S
H2160 C2172 0.930 . S
H2161 C2174 0.930 . S
H2162 C2175 0.930 . S
H2163 C2179 0.959 . S
H2164 C2179 0.959 . S
H2165 C2179 0.961 . S
H2166 C2180 0.960 . S
H2167 C2180 0.961 . S
H2168 C2180 0.959 . S
H2169 C2183 0.929 . S
H2170 C2184 0.931 . S
H2171 C2186 0.930 . S
C2172 H2160 0.930 . S
C2172 C2173 1.399 . S
C2172 C2177 1.399 . S
C2173 C2172 1.399 . S
C2173 C2174 1.376 . S
C2174 H2161 0.930 . S
C2174 C2173 1.376 . S
C2174 C2175 1.388 . S
C2175 H2162 0.930 . S
C2175 C2174 1.388 . S
C2175 C2176 1.390 . S
C2176 C2175 1.390 . S
C2176 C2177 1.394 . S
C2176 C2182 1.465 . S
C2177 C2172 1.399 . S
C2177 C2176 1.394 . S
C2177 C2178 1.516 . S
C2178 C2177 1.516 . S
C2178 C2179 1.502 . S
C2178 C2180 1.561 . S
C2178 C2181 1.526 . S
C2179 H2163 0.959 . S
C2179 H2164 0.959 . S
C2179 H2165 0.961 . S
C2179 C2178 1.502 . S
C2180 H2166 0.960 . S
C2180 H2167 0.961 . S
C2180 H2168 0.959 . S
C2180 C2178 1.561 . S
C2181 C2178 1.526 . S
C2181 C2182 1.396 . S
C2181 C2186 1.390 . S
C2182 C2176 1.465 . S
C2182 C2181 1.396 . S
C2182 C2183 1.399 . S
C2183 H2169 0.929 . S
C2183 C2182 1.399 . S
C2183 C2184 1.385 . S
C2184 H2170 0.931 . S
C2184 C2183 1.385 . S
C2184 C2185 1.389 . S
C2185 C2184 1.389 . S
C2185 C2186 1.387 . S
C2186 H2171 0.930 . S
C2186 C2181 1.390 . S
C2186 C2185 1.387 . S
H2187 C2199 0.930 1_554 S
H2188 C2201 0.930 . S
H2189 C2202 0.930 . S
H2190 C2206 0.959 1_556 S
H2191 C2206 0.959 . S
H2192 C2206 0.961 . S
H2193 C2207 0.960 . S
H2194 C2207 0.961 . S
H2195 C2207 0.959 . S
H2196 C2210 0.929 . S
H2197 C2211 0.931 . S
H2198 C2213 0.930 . S
C2199 H2187 0.930 1_556 S
C2199 C2200 1.399 . S
C2199 C2204 1.399 . S
C2200 C2199 1.399 . S
C2200 C2201 1.376 . S
C2201 H2188 0.930 . S
C2201 C2200 1.376 . S
C2201 C2202 1.388 . S
C2202 H2189 0.930 . S
C2202 C2201 1.388 . S
C2202 C2203 1.390 . S
C2203 C2202 1.390 . S
C2203 C2204 1.394 . S
C2203 C2209 1.465 . S
C2204 C2199 1.399 . S
C2204 C2203 1.394 . S
C2204 C2205 1.516 . S
C2205 C2204 1.516 . S
C2205 C2206 1.502 1_556 S
C2205 C2207 1.561 1_556 S
C2205 C2208 1.526 . S
C2206 H2190 0.959 1_554 S
C2206 H2191 0.959 . S
C2206 H2192 0.961 . S
C2206 C2205 1.502 1_554 S
C2207 H2193 0.960 . S
C2207 H2194 0.961 . S
C2207 H2195 0.959 . S
C2207 C2205 1.561 1_554 S
C2208 C2205 1.526 . S
C2208 C2209 1.396 . S
C2208 C2213 1.390 . S
C2209 C2203 1.465 . S
C2209 C2208 1.396 . S
C2209 C2210 1.399 . S
C2210 H2196 0.929 . S
C2210 C2209 1.399 . S
C2210 C2211 1.385 . S
C2211 H2197 0.931 . S
C2211 C2210 1.385 . S
C2211 C2212 1.389 . S
C2212 C2211 1.389 . S
C2212 C2213 1.387 . S
C2213 H2198 0.930 . S
C2213 C2208 1.390 . S
C2213 C2212 1.387 . S
H2214 C2226 0.930 . S
H2215 C2228 0.930 . S
H2216 C2229 0.930 . S
H2217 C2233 0.959 . S
H2218 C2233 0.959 . S
H2219 C2233 0.961 . S
H2220 C2234 0.960 . S
H2221 C2234 0.961 . S
H2222 C2234 0.959 . S
H2223 C2237 0.929 . S
H2224 C2238 0.931 . S
H2225 C2240 0.930 . S
C2226 H2214 0.930 . S
C2226 C2227 1.399 . S
C2226 C2231 1.399 . S
C2227 C2226 1.399 . S
C2227 C2228 1.376 . S
C2228 H2215 0.930 . S
C2228 C2227 1.376 . S
C2228 C2229 1.388 . S
C2229 H2216 0.930 . S
C2229 C2228 1.388 . S
C2229 C2230 1.390 . S
C2230 C2229 1.390 . S
C2230 C2231 1.394 . S
C2230 C2236 1.465 . S
C2231 C2226 1.399 . S
C2231 C2230 1.394 . S
C2231 C2232 1.516 . S
C2232 C2231 1.516 . S
C2232 C2233 1.502 . S
C2232 C2234 1.561 . S
C2232 C2235 1.526 . S
C2233 H2217 0.959 . S
C2233 H2218 0.959 . S
C2233 H2219 0.961 . S
C2233 C2232 1.502 . S
C2234 H2220 0.960 . S
C2234 H2221 0.961 . S
C2234 H2222 0.959 . S
C2234 C2232 1.561 . S
C2235 C2232 1.526 . S
C2235 C2236 1.396 . S
C2235 C2240 1.390 . S
C2236 C2230 1.465 . S
C2236 C2235 1.396 . S
C2236 C2237 1.399 . S
C2237 H2223 0.929 . S
C2237 C2236 1.399 . S
C2237 C2238 1.385 . S
C2238 H2224 0.931 . S
C2238 C2237 1.385 . S
C2238 C2239 1.389 . S
C2239 C2238 1.389 . S
C2239 C2240 1.387 . S
C2240 H2225 0.930 . S
C2240 C2235 1.390 . S
C2240 C2239 1.387 . S
H2241 C2253 0.930 . S
H2242 C2255 0.930 . S
H2243 C2256 0.930 . S
H2244 C2260 0.959 . S
H2245 C2260 0.959 . S
H2246 C2260 0.961 . S
H2247 C2261 0.960 . S
H2248 C2261 0.961 . S
H2249 C2261 0.959 . S
H2250 C2264 0.929 . S
H2251 C2265 0.931 . S
H2252 C2267 0.930 . S
C2253 H2241 0.930 . S
C2253 C2254 1.399 . S
C2253 C2258 1.399 . S
C2254 C2253 1.399 . S
C2254 C2255 1.376 . S
C2255 H2242 0.930 . S
C2255 C2254 1.376 . S
C2255 C2256 1.388 . S
C2256 H2243 0.930 . S
C2256 C2255 1.388 . S
C2256 C2257 1.390 . S
C2257 C2256 1.390 . S
C2257 C2258 1.394 . S
C2257 C2263 1.465 . S
C2258 C2253 1.399 . S
C2258 C2257 1.394 . S
C2258 C2259 1.516 . S
C2259 C2258 1.516 . S
C2259 C2260 1.502 . S
C2259 C2261 1.561 . S
C2259 C2262 1.526 . S
C2260 H2244 0.959 . S
C2260 H2245 0.959 . S
C2260 H2246 0.961 . S
C2260 C2259 1.502 . S
C2261 H2247 0.960 . S
C2261 H2248 0.961 . S
C2261 H2249 0.959 . S
C2261 C2259 1.561 . S
C2262 C2259 1.526 . S
C2262 C2263 1.396 . S
C2262 C2267 1.390 . S
C2263 C2257 1.465 . S
C2263 C2262 1.396 . S
C2263 C2264 1.399 . S
C2264 H2250 0.929 . S
C2264 C2263 1.399 . S
C2264 C2265 1.385 . S
C2265 H2251 0.931 . S
C2265 C2264 1.385 . S
C2265 C2266 1.389 . S
C2266 C2265 1.389 . S
C2266 C2267 1.387 . S
C2267 H2252 0.930 . S
C2267 C2262 1.390 . S
C2267 C2266 1.387 . S
H2268 C2280 0.930 . S
H2269 C2282 0.930 . S
H2270 C2283 0.930 . S
H2271 C2287 0.959 . S
H2272 C2287 0.959 . S
H2273 C2287 0.961 . S
H2274 C2288 0.960 . S
H2275 C2288 0.961 . S
H2276 C2288 0.959 . S
H2277 C2291 0.929 . S
H2278 C2292 0.931 . S
H2279 C2294 0.930 . S
C2280 H2268 0.930 . S
C2280 C2281 1.399 . S
C2280 C2285 1.399 . S
C2281 C2280 1.399 . S
C2281 C2282 1.376 . S
C2282 H2269 0.930 . S
C2282 C2281 1.376 . S
C2282 C2283 1.388 . S
C2283 H2270 0.930 . S
C2283 C2282 1.388 . S
C2283 C2284 1.390 . S
C2284 C2283 1.390 . S
C2284 C2285 1.394 . S
C2284 C2290 1.465 . S
C2285 C2280 1.399 . S
C2285 C2284 1.394 . S
C2285 C2286 1.516 . S
C2286 C2285 1.516 . S
C2286 C2287 1.502 . S
C2286 C2288 1.561 . S
C2286 C2289 1.526 . S
C2287 H2271 0.959 . S
C2287 H2272 0.959 . S
C2287 H2273 0.961 . S
C2287 C2286 1.502 . S
C2288 H2274 0.960 . S
C2288 H2275 0.961 . S
C2288 H2276 0.959 . S
C2288 C2286 1.561 . S
C2289 C2286 1.526 . S
C2289 C2290 1.396 . S
C2289 C2294 1.390 . S
C2290 C2284 1.465 . S
C2290 C2289 1.396 . S
C2290 C2291 1.399 . S
C2291 H2277 0.929 . S
C2291 C2290 1.399 . S
C2291 C2292 1.385 . S
C2292 H2278 0.931 . S
C2292 C2291 1.385 . S
C2292 C2293 1.389 . S
C2293 C2292 1.389 . S
C2293 C2294 1.387 . S
C2294 H2279 0.930 . S
C2294 C2289 1.390 . S
C2294 C2293 1.387 . S
H2295 C2307 0.930 . S
H2296 C2309 0.930 . S
H2297 C2310 0.930 . S
H2298 C2314 0.959 . S
H2299 C2314 0.959 . S
H2300 C2314 0.961 . S
H2301 C2315 0.960 . S
H2302 C2315 0.961 . S
H2303 C2315 0.959 . S
H2304 C2318 0.929 . S
H2305 C2319 0.931 . S
H2306 C2321 0.930 . S
C2307 H2295 0.930 . S
C2307 C2308 1.399 . S
C2307 C2312 1.399 . S
C2308 C2307 1.399 . S
C2308 C2309 1.376 . S
C2309 H2296 0.930 . S
C2309 C2308 1.376 . S
C2309 C2310 1.388 . S
C2310 H2297 0.930 . S
C2310 C2309 1.388 . S
C2310 C2311 1.390 . S
C2311 C2310 1.390 . S
C2311 C2312 1.394 . S
C2311 C2317 1.465 . S
C2312 C2307 1.399 . S
C2312 C2311 1.394 . S
C2312 C2313 1.516 . S
C2313 C2312 1.516 . S
C2313 C2314 1.502 . S
C2313 C2315 1.561 . S
C2313 C2316 1.526 . S
C2314 H2298 0.959 . S
C2314 H2299 0.959 . S
C2314 H2300 0.961 . S
C2314 C2313 1.502 . S
C2315 H2301 0.960 . S
C2315 H2302 0.961 . S
C2315 H2303 0.959 . S
C2315 C2313 1.561 . S
C2316 C2313 1.526 . S
C2316 C2317 1.396 . S
C2316 C2321 1.390 . S
C2317 C2311 1.465 . S
C2317 C2316 1.396 . S
C2317 C2318 1.399 . S
C2318 H2304 0.929 . S
C2318 C2317 1.399 . S
C2318 C2319 1.385 . S
C2319 H2305 0.931 . S
C2319 C2318 1.385 . S
C2319 C2320 1.389 . S
C2320 C2319 1.389 . S
C2320 C2321 1.387 . S
C2321 H2306 0.930 . S
C2321 C2316 1.390 . S
C2321 C2320 1.387 . S
H2322 C2334 0.930 . S
H2323 C2336 0.930 . S
H2324 C2337 0.930 . S
H2325 C2341 0.959 . S
H2326 C2341 0.959 . S
H2327 C2341 0.961 . S
H2328 C2342 0.960 . S
H2329 C2342 0.961 . S
H2330 C2342 0.959 . S
H2331 C2345 0.929 . S
H2332 C2346 0.931 . S
H2333 C2348 0.930 . S
C2334 H2322 0.930 . S
C2334 C2335 1.399 . S
C2334 C2339 1.399 . S
C2335 C2334 1.399 . S
C2335 C2336 1.376 . S
C2336 H2323 0.930 . S
C2336 C2335 1.376 . S
C2336 C2337 1.388 . S
C2337 H2324 0.930 . S
C2337 C2336 1.388 . S
C2337 C2338 1.390 . S
C2338 C2337 1.390 . S
C2338 C2339 1.394 . S
C2338 C2344 1.465 . S
C2339 C2334 1.399 . S
C2339 C2338 1.394 . S
C2339 C2340 1.516 . S
C2340 C2339 1.516 . S
C2340 C2341 1.502 . S
C2340 C2342 1.561 . S
C2340 C2343 1.526 . S
C2341 H2325 0.959 . S
C2341 H2326 0.959 . S
C2341 H2327 0.961 . S
C2341 C2340 1.502 . S
C2342 H2328 0.960 . S
C2342 H2329 0.961 . S
C2342 H2330 0.959 . S
C2342 C2340 1.561 . S
C2343 C2340 1.526 . S
C2343 C2344 1.396 . S
C2343 C2348 1.390 . S
C2344 C2338 1.465 . S
C2344 C2343 1.396 . S
C2344 C2345 1.399 . S
C2345 H2331 0.929 . S
C2345 C2344 1.399 . S
C2345 C2346 1.385 . S
C2346 H2332 0.931 . S
C2346 C2345 1.385 . S
C2346 C2347 1.389 . S
C2347 C2346 1.389 . S
C2347 C2348 1.387 . S
C2348 H2333 0.930 . S
C2348 C2343 1.390 . S
C2348 C2347 1.387 . S
H2349 C2361 0.930 . S
H2350 C2363 0.930 . S
H2351 C2364 0.930 . S
H2352 C2368 0.959 . S
H2353 C2368 0.959 . S
H2354 C2368 0.961 . S
H2355 C2369 0.960 . S
H2356 C2369 0.961 . S
H2357 C2369 0.959 . S
H2358 C2372 0.929 . S
H2359 C2373 0.931 . S
H2360 C2375 0.930 . S
C2361 H2349 0.930 . S
C2361 C2362 1.399 . S
C2361 C2366 1.399 . S
C2362 C2361 1.399 . S
C2362 C2363 1.376 . S
C2363 H2350 0.930 . S
C2363 C2362 1.376 . S
C2363 C2364 1.388 . S
C2364 H2351 0.930 . S
C2364 C2363 1.388 . S
C2364 C2365 1.390 . S
C2365 C2364 1.390 . S
C2365 C2366 1.394 . S
C2365 C2371 1.465 . S
C2366 C2361 1.399 . S
C2366 C2365 1.394 . S
C2366 C2367 1.516 . S
C2367 C2366 1.516 . S
C2367 C2368 1.502 . S
C2367 C2369 1.561 . S
C2367 C2370 1.526 . S
C2368 H2352 0.959 . S
C2368 H2353 0.959 . S
C2368 H2354 0.961 . S
C2368 C2367 1.502 . S
C2369 H2355 0.960 . S
C2369 H2356 0.961 . S
C2369 H2357 0.959 . S
C2369 C2367 1.561 . S
C2370 C2367 1.526 . S
C2370 C2371 1.396 . S
C2370 C2375 1.390 . S
C2371 C2365 1.465 . S
C2371 C2370 1.396 . S
C2371 C2372 1.399 . S
C2372 H2358 0.929 . S
C2372 C2371 1.399 . S
C2372 C2373 1.385 . S
C2373 H2359 0.931 . S
C2373 C2372 1.385 . S
C2373 C2374 1.389 . S
C2374 C2373 1.389 . S
C2374 C2375 1.387 . S
C2375 H2360 0.930 . S
C2375 C2370 1.390 . S
C2375 C2374 1.387 . S
H2376 C2388 0.930 . S
H2377 C2390 0.930 . S
H2378 C2391 0.930 . S
H2379 C2395 0.959 . S
H2380 C2395 0.959 . S
H2381 C2395 0.961 . S
H2382 C2396 0.960 . S
H2383 C2396 0.961 . S
H2384 C2396 0.959 . S
H2385 C2399 0.929 . S
H2386 C2400 0.931 . S
H2387 C2402 0.930 . S
C2388 H2376 0.930 . S
C2388 C2389 1.399 . S
C2388 C2393 1.399 . S
C2389 C2388 1.399 . S
C2389 C2390 1.376 . S
C2390 H2377 0.930 . S
C2390 C2389 1.376 . S
C2390 C2391 1.388 . S
C2391 H2378 0.930 . S
C2391 C2390 1.388 . S
C2391 C2392 1.390 . S
C2392 C2391 1.390 . S
C2392 C2393 1.394 . S
C2392 C2398 1.465 . S
C2393 C2388 1.399 . S
C2393 C2392 1.394 . S
C2393 C2394 1.516 . S
C2394 C2393 1.516 . S
C2394 C2395 1.502 . S
C2394 C2396 1.561 . S
C2394 C2397 1.526 . S
C2395 H2379 0.959 . S
C2395 H2380 0.959 . S
C2395 H2381 0.961 . S
C2395 C2394 1.502 . S
C2396 H2382 0.960 . S
C2396 H2383 0.961 . S
C2396 H2384 0.959 . S
C2396 C2394 1.561 . S
C2397 C2394 1.526 . S
C2397 C2398 1.396 . S
C2397 C2402 1.390 . S
C2398 C2392 1.465 . S
C2398 C2397 1.396 . S
C2398 C2399 1.399 . S
C2399 H2385 0.929 . S
C2399 C2398 1.399 . S
C2399 C2400 1.385 . S
C2400 H2386 0.931 . S
C2400 C2399 1.385 . S
C2400 C2401 1.389 . S
C2401 C2400 1.389 . S
C2401 C2402 1.387 . S
C2402 H2387 0.930 . S
C2402 C2397 1.390 . S
C2402 C2401 1.387 . S
H2403 C2415 0.930 . S
H2404 C2417 0.930 . S
H2405 C2418 0.930 . S
H2406 C2422 0.959 . S
H2407 C2422 0.959 . S
H2408 C2422 0.961 . S
H2409 C2423 0.960 . S
H2410 C2423 0.961 . S
H2411 C2423 0.959 . S
H2412 C2426 0.929 . S
H2413 C2427 0.931 . S
H2414 C2429 0.930 . S
C2415 H2403 0.930 . S
C2415 C2416 1.399 . S
C2415 C2420 1.399 . S
C2416 C2415 1.399 . S
C2416 C2417 1.376 . S
C2417 H2404 0.930 . S
C2417 C2416 1.376 . S
C2417 C2418 1.388 . S
C2418 H2405 0.930 . S
C2418 C2417 1.388 . S
C2418 C2419 1.390 . S
C2419 C2418 1.390 . S
C2419 C2420 1.394 . S
C2419 C2425 1.465 . S
C2420 C2415 1.399 . S
C2420 C2419 1.394 . S
C2420 C2421 1.516 . S
C2421 C2420 1.516 . S
C2421 C2422 1.502 . S
C2421 C2423 1.561 . S
C2421 C2424 1.526 . S
C2422 H2406 0.959 . S
C2422 H2407 0.959 . S
C2422 H2408 0.961 . S
C2422 C2421 1.502 . S
C2423 H2409 0.960 . S
C2423 H2410 0.961 . S
C2423 H2411 0.959 . S
C2423 C2421 1.561 . S
C2424 C2421 1.526 . S
C2424 C2425 1.396 . S
C2424 C2429 1.390 . S
C2425 C2419 1.465 . S
C2425 C2424 1.396 . S
C2425 C2426 1.399 . S
C2426 H2412 0.929 . S
C2426 C2425 1.399 . S
C2426 C2427 1.385 . S
C2427 H2413 0.931 . S
C2427 C2426 1.385 . S
C2427 C2428 1.389 . S
C2428 C2427 1.389 . S
C2428 C2429 1.387 . S
C2429 H2414 0.930 . S
C2429 C2424 1.390 . S
C2429 C2428 1.387 . S
H2430 C2442 0.930 . S
H2431 C2444 0.930 . S
H2432 C2445 0.930 . S
H2433 C2449 0.959 . S
H2434 C2449 0.959 . S
H2435 C2449 0.961 . S
H2436 C2450 0.960 . S
H2437 C2450 0.961 . S
H2438 C2450 0.959 . S
H2439 C2453 0.929 . S
H2440 C2454 0.931 . S
H2441 C2456 0.930 1_545 S
C2442 H2430 0.930 . S
C2442 C2443 1.399 . S
C2442 C2447 1.399 . S
C2443 C2442 1.399 . S
C2443 C2444 1.376 1_545 S
C2444 H2431 0.930 . S
C2444 C2443 1.376 1_565 S
C2444 C2445 1.388 . S
C2445 H2432 0.930 . S
C2445 C2444 1.388 . S
C2445 C2446 1.390 . S
C2446 C2445 1.390 . S
C2446 C2447 1.394 1_565 S
C2446 C2452 1.465 . S
C2447 C2442 1.399 . S
C2447 C2446 1.394 1_545 S
C2447 C2448 1.516 . S
C2448 C2447 1.516 . S
C2448 C2449 1.502 . S
C2448 C2450 1.561 . S
C2448 C2451 1.526 1_545 S
C2449 H2433 0.959 . S
C2449 H2434 0.959 . S
C2449 H2435 0.961 . S
C2449 C2448 1.502 . S
C2450 H2436 0.960 . S
C2450 H2437 0.961 . S
C2450 H2438 0.959 . S
C2450 C2448 1.561 . S
C2451 C2448 1.526 1_565 S
C2451 C2452 1.396 . S
C2451 C2456 1.390 . S
C2452 C2446 1.465 . S
C2452 C2451 1.396 . S
C2452 C2453 1.399 . S
C2453 H2439 0.929 . S
C2453 C2452 1.399 . S
C2453 C2454 1.385 . S
C2454 H2440 0.931 . S
C2454 C2453 1.385 . S
C2454 C2455 1.389 . S
C2455 C2454 1.389 . S
C2455 C2456 1.387 . S
C2456 H2441 0.930 1_565 S
C2456 C2451 1.390 . S
C2456 C2455 1.387 . S
H2457 C2469 0.930 . S
H2458 C2471 0.930 1_554 S
H2459 C2472 0.930 1_554 S
H2460 C2476 0.959 . S
H2461 C2476 0.959 . S
H2462 C2476 0.961 . S
H2463 C2477 0.960 . S
H2464 C2477 0.961 . S
H2465 C2477 0.959 . S
H2466 C2480 0.929 . S
H2467 C2481 0.931 . S
H2468 C2483 0.930 . S
C2469 H2457 0.930 . S
C2469 C2470 1.399 . S
C2469 C2474 1.399 . S
C2470 C2469 1.399 . S
C2470 C2471 1.376 . S
C2471 H2458 0.930 1_556 S
C2471 C2470 1.376 . S
C2471 C2472 1.388 . S
C2472 H2459 0.930 1_556 S
C2472 C2471 1.388 . S
C2472 C2473 1.390 . S
C2473 C2472 1.390 . S
C2473 C2474 1.394 . S
C2473 C2479 1.465 . S
C2474 C2469 1.399 . S
C2474 C2473 1.394 . S
C2474 C2475 1.516 . S
C2475 C2474 1.516 . S
C2475 C2476 1.502 . S
C2475 C2477 1.561 . S
C2475 C2478 1.526 . S
C2476 H2460 0.959 . S
C2476 H2461 0.959 . S
C2476 H2462 0.961 . S
C2476 C2475 1.502 . S
C2477 H2463 0.960 . S
C2477 H2464 0.961 . S
C2477 H2465 0.959 . S
C2477 C2475 1.561 . S
C2478 C2475 1.526 . S
C2478 C2479 1.396 . S
C2478 C2483 1.390 . S
C2479 C2473 1.465 . S
C2479 C2478 1.396 . S
C2479 C2480 1.399 . S
C2480 H2466 0.929 . S
C2480 C2479 1.399 . S
C2480 C2481 1.385 . S
C2481 H2467 0.931 . S
C2481 C2480 1.385 . S
C2481 C2482 1.389 . S
C2482 C2481 1.389 . S
C2482 C2483 1.387 . S
C2483 H2468 0.930 . S
C2483 C2478 1.390 . S
C2483 C2482 1.387 . S
H2484 C2496 0.930 . S
H2485 C2498 0.930 . S
H2486 C2499 0.930 . S
H2487 C2503 0.959 . S
H2488 C2503 0.959 . S
H2489 C2503 0.961 . S
H2490 C2504 0.960 . S
H2491 C2504 0.961 . S
H2492 C2504 0.959 . S
H2493 C2507 0.929 . S
H2494 C2508 0.931 . S
H2495 C2510 0.930 . S
C2496 H2484 0.930 . S
C2496 C2497 1.399 . S
C2496 C2501 1.399 . S
C2497 C2496 1.399 . S
C2497 C2498 1.376 . S
C2498 H2485 0.930 . S
C2498 C2497 1.376 . S
C2498 C2499 1.388 . S
C2499 H2486 0.930 . S
C2499 C2498 1.388 . S
C2499 C2500 1.390 . S
C2500 C2499 1.390 . S
C2500 C2501 1.394 . S
C2500 C2506 1.465 . S
C2501 C2496 1.399 . S
C2501 C2500 1.394 . S
C2501 C2502 1.516 . S
C2502 C2501 1.516 . S
C2502 C2503 1.502 . S
C2502 C2504 1.561 . S
C2502 C2505 1.526 . S
C2503 H2487 0.959 . S
C2503 H2488 0.959 . S
C2503 H2489 0.961 . S
C2503 C2502 1.502 . S
C2504 H2490 0.960 . S
C2504 H2491 0.961 . S
C2504 H2492 0.959 . S
C2504 C2502 1.561 . S
C2505 C2502 1.526 . S
C2505 C2506 1.396 . S
C2505 C2510 1.390 . S
C2506 C2500 1.465 . S
C2506 C2505 1.396 . S
C2506 C2507 1.399 . S
C2507 H2493 0.929 . S
C2507 C2506 1.399 . S
C2507 C2508 1.385 . S
C2508 H2494 0.931 . S
C2508 C2507 1.385 . S
C2508 C2509 1.389 . S
C2509 C2508 1.389 . S
C2509 C2510 1.387 . S
C2510 H2495 0.930 . S
C2510 C2505 1.390 . S
C2510 C2509 1.387 . S
H2511 C2523 0.930 . S
H2512 C2525 0.909 1_556 S
H2513 C2526 0.930 . S
H2514 C2530 0.959 . S
H2515 C2530 0.959 . S
H2516 C2530 0.961 . S
H2517 C2531 0.960 . S
H2518 C2531 0.961 . S
H2519 C2531 0.959 . S
H2520 C2534 0.929 . S
H2521 C2535 0.931 . S
H2522 C2537 0.930 . S
C2523 H2511 0.930 . S
C2523 C2524 1.399 . S
C2523 C2528 1.399 . S
C2524 C2523 1.399 . S
C2524 C2525 1.376 . S
C2525 H2512 0.909 1_554 S
C2525 C2524 1.376 . S
C2525 C2526 1.388 . S
C2526 H2513 0.930 . S
C2526 C2525 1.388 . S
C2526 C2527 1.390 . S
C2527 C2526 1.390 . S
C2527 C2528 1.394 . S
C2527 C2533 1.465 . S
C2528 C2523 1.399 . S
C2528 C2527 1.394 . S
C2528 C2529 1.516 . S
C2529 C2528 1.516 . S
C2529 C2530 1.502 . S
C2529 C2531 1.561 . S
C2529 C2532 1.526 . S
C2530 H2514 0.959 . S
C2530 H2515 0.959 . S
C2530 H2516 0.961 . S
C2530 C2529 1.502 . S
C2531 H2517 0.960 . S
C2531 H2518 0.961 . S
C2531 H2519 0.959 . S
C2531 C2529 1.561 . S
C2532 C2529 1.526 . S
C2532 C2533 1.396 . S
C2532 C2537 1.390 . S
C2533 C2527 1.465 . S
C2533 C2532 1.396 . S
C2533 C2534 1.399 . S
C2534 H2520 0.929 . S
C2534 C2533 1.399 . S
C2534 C2535 1.385 . S
C2535 H2521 0.931 . S
C2535 C2534 1.385 . S
C2535 C2536 1.389 . S
C2536 C2535 1.389 . S
C2536 C2537 1.387 . S
C2537 H2522 0.930 . S
C2537 C2532 1.390 . S
C2537 C2536 1.387 . S
H2538 C2550 0.930 . S
H2539 C2552 0.930 . S
H2540 C2553 0.930 . S
H2541 C2557 0.959 . S
H2542 C2557 0.959 . S
H2543 C2557 0.961 . S
H2544 C2558 0.960 . S
H2545 C2558 0.961 . S
H2546 C2558 0.959 . S
H2547 C2561 0.929 . S
H2548 C2562 0.931 . S
H2549 C2564 0.930 . S
C2550 H2538 0.930 . S
C2550 C2551 1.399 . S
C2550 C2555 1.399 . S
C2551 C2550 1.399 . S
C2551 C2552 1.376 . S
C2552 H2539 0.930 . S
C2552 C2551 1.376 . S
C2552 C2553 1.388 . S
C2553 H2540 0.930 . S
C2553 C2552 1.388 . S
C2553 C2554 1.390 . S
C2554 C2553 1.390 . S
C2554 C2555 1.394 . S
C2554 C2560 1.465 . S
C2555 C2550 1.399 . S
C2555 C2554 1.394 . S
C2555 C2556 1.516 . S
C2556 C2555 1.516 . S
C2556 C2557 1.502 . S
C2556 C2558 1.561 . S
C2556 C2559 1.526 . S
C2557 H2541 0.959 . S
C2557 H2542 0.959 . S
C2557 H2543 0.961 . S
C2557 C2556 1.502 . S
C2558 H2544 0.960 . S
C2558 H2545 0.961 . S
C2558 H2546 0.959 . S
C2558 C2556 1.561 . S
C2559 C2556 1.526 . S
C2559 C2560 1.396 . S
C2559 C2564 1.390 . S
C2560 C2554 1.465 . S
C2560 C2559 1.396 . S
C2560 C2561 1.399 . S
C2561 H2547 0.929 . S
C2561 C2560 1.399 . S
C2561 C2562 1.385 . S
C2562 H2548 0.931 . S
C2562 C2561 1.385 . S
C2562 C2563 1.389 . S
C2563 C2562 1.389 . S
C2563 C2564 1.387 . S
C2564 H2549 0.930 . S
C2564 C2559 1.390 . S
C2564 C2563 1.387 . S
H2565 C2577 0.930 . S
H2566 C2579 0.930 1_545 S
H2567 C2580 0.930 1_545 S
H2568 C2584 0.959 . S
H2569 C2584 0.978 . S
H2570 C2584 0.961 . S
H2571 C2585 0.960 1_655 S
H2572 C2585 0.961 . S
H2573 C2585 0.959 . S
H2574 C2588 0.925 . S
H2575 C2589 0.931 . S
H2576 C2591 0.930 . S
C2577 H2565 0.930 . S
C2577 C2578 1.399 . S
C2577 C2582 1.399 . S
C2578 C2577 1.399 . S
C2578 C2579 1.376 . S
C2579 H2566 0.930 1_565 S
C2579 C2578 1.376 . S
C2579 C2580 1.388 . S
C2580 H2567 0.930 1_565 S
C2580 C2579 1.388 . S
C2580 C2581 1.390 . S
C2581 C2580 1.390 . S
C2581 C2582 1.394 . S
C2581 C2587 1.465 1_655 S
C2582 C2577 1.399 . S
C2582 C2581 1.394 . S
C2582 C2583 1.516 . S
C2583 C2582 1.516 . S
C2583 C2584 1.502 . S
C2583 C2585 1.561 1_655 S
C2583 C2586 1.526 1_655 S
C2584 H2568 0.959 . S
C2584 H2569 0.978 . S
C2584 H2570 0.961 . S
C2584 C2583 1.502 . S
C2585 H2571 0.960 1_455 S
C2585 H2572 0.961 . S
C2585 H2573 0.959 . S
C2585 C2583 1.561 1_455 S
C2586 C2583 1.526 1_455 S
C2586 C2587 1.396 . S
C2586 C2591 1.390 . S
C2587 C2581 1.465 1_455 S
C2587 C2586 1.396 . S
C2587 C2588 1.399 . S
C2588 H2574 0.925 . S
C2588 C2587 1.399 . S
C2588 C2589 1.385 . S
C2589 H2575 0.931 . S
C2589 C2588 1.385 . S
C2589 C2590 1.389 . S
C2590 C2589 1.389 . S
C2590 C2591 1.387 . S
C2591 H2576 0.930 . S
C2591 C2586 1.390 . S
C2591 C2590 1.387 . S
H2592 C2604 0.930 . S
H2593 C2606 0.930 . S
H2594 C2607 0.930 . S
H2595 C2611 0.959 . S
H2596 C2611 0.959 . S
H2597 C2611 0.961 . S
H2598 C2612 0.960 . S
H2599 C2612 0.961 . S
H2600 C2612 0.959 . S
H2601 C2615 0.929 . S
H2602 C2616 0.931 . S
H2603 C2618 0.930 . S
C2604 H2592 0.930 . S
C2604 C2605 1.399 . S
C2604 C2609 1.399 . S
C2605 C2604 1.399 . S
C2605 C2606 1.376 . S
C2606 H2593 0.930 . S
C2606 C2605 1.376 . S
C2606 C2607 1.388 . S
C2607 H2594 0.930 . S
C2607 C2606 1.388 . S
C2607 C2608 1.390 . S
C2608 C2607 1.390 . S
C2608 C2609 1.394 . S
C2608 C2614 1.465 . S
C2609 C2604 1.399 . S
C2609 C2608 1.394 . S
C2609 C2610 1.516 . S
C2610 C2609 1.516 . S
C2610 C2611 1.502 . S
C2610 C2612 1.561 . S
C2610 C2613 1.526 . S
C2611 H2595 0.959 . S
C2611 H2596 0.959 . S
C2611 H2597 0.961 . S
C2611 C2610 1.502 . S
C2612 H2598 0.960 . S
C2612 H2599 0.961 . S
C2612 H2600 0.959 . S
C2612 C2610 1.561 . S
C2613 C2610 1.526 . S
C2613 C2614 1.396 . S
C2613 C2618 1.390 . S
C2614 C2608 1.465 . S
C2614 C2613 1.396 . S
C2614 C2615 1.399 . S
C2615 H2601 0.929 . S
C2615 C2614 1.399 . S
C2615 C2616 1.385 . S
C2616 H2602 0.931 . S
C2616 C2615 1.385 . S
C2616 C2617 1.389 . S
C2617 C2616 1.389 . S
C2617 C2618 1.387 . S
C2618 H2603 0.930 . S
C2618 C2613 1.390 . S
C2618 C2617 1.387 . S
H2619 C2631 0.930 . S
H2620 C2633 0.930 . S
H2621 C2634 0.930 . S
H2622 C2638 0.959 . S
H2623 C2638 0.959 . S
H2624 C2638 0.961 . S
H2625 C2639 0.960 1_556 S
H2626 C2639 0.961 . S
H2627 C2639 0.959 . S
H2628 C2642 0.932 1_556 S
H2629 C2643 0.931 . S
H2630 C2645 0.930 . S
C2631 H2619 0.930 . S
C2631 C2632 1.399 . S
C2631 C2636 1.399 . S
C2632 C2631 1.399 . S
C2632 C2633 1.376 . S
C2633 H2620 0.930 . S
C2633 C2632 1.376 . S
C2633 C2634 1.388 . S
C2634 H2621 0.930 . S
C2634 C2633 1.388 . S
C2634 C2635 1.390 . S
C2635 C2634 1.390 . S
C2635 C2636 1.394 . S
C2635 C2641 1.465 1_556 S
C2636 C2631 1.399 . S
C2636 C2635 1.394 . S
C2636 C2637 1.516 1_556 S
C2637 C2636 1.516 1_554 S
C2637 C2638 1.502 . S
C2637 C2639 1.561 . S
C2637 C2640 1.526 . S
C2638 H2622 0.959 . S
C2638 H2623 0.959 . S
C2638 H2624 0.961 . S
C2638 C2637 1.502 . S
C2639 H2625 0.960 1_554 S
C2639 H2626 0.961 . S
C2639 H2627 0.959 . S
C2639 C2637 1.561 . S
C2640 C2637 1.526 . S
C2640 C2641 1.396 . S
C2640 C2645 1.390 . S
C2641 C2635 1.465 1_554 S
C2641 C2640 1.396 . S
C2641 C2642 1.399 . S
C2642 H2628 0.932 1_554 S
C2642 C2641 1.399 . S
C2642 C2643 1.385 . S
C2643 H2629 0.931 . S
C2643 C2642 1.385 . S
C2643 C2644 1.389 . S
C2644 C2643 1.389 . S
C2644 C2645 1.387 . S
C2645 H2630 0.930 . S
C2645 C2640 1.390 . S
C2645 C2644 1.387 . S
H2646 C2658 0.930 . S
H2647 C2660 0.930 . S
H2648 C2661 0.930 . S
H2649 C2665 0.959 . S
H2650 C2665 0.959 . S
H2651 C2665 0.961 . S
H2652 C2666 0.960 . S
H2653 C2666 0.961 . S
H2654 C2666 0.959 . S
H2655 C2669 0.929 . S
H2656 C2670 0.931 . S
H2657 C2672 0.930 . S
C2658 H2646 0.930 . S
C2658 C2659 1.399 . S
C2658 C2663 1.399 . S
C2659 C2658 1.399 . S
C2659 C2660 1.376 . S
C2660 H2647 0.930 . S
C2660 C2659 1.376 . S
C2660 C2661 1.388 . S
C2661 H2648 0.930 . S
C2661 C2660 1.388 . S
C2661 C2662 1.390 . S
C2662 C2661 1.390 . S
C2662 C2663 1.394 . S
C2662 C2668 1.465 . S
C2663 C2658 1.399 . S
C2663 C2662 1.394 . S
C2663 C2664 1.516 . S
C2664 C2663 1.516 . S
C2664 C2665 1.502 . S
C2664 C2666 1.561 . S
C2664 C2667 1.526 . S
C2665 H2649 0.959 . S
C2665 H2650 0.959 . S
C2665 H2651 0.961 . S
C2665 C2664 1.502 . S
C2666 H2652 0.960 . S
C2666 H2653 0.961 . S
C2666 H2654 0.959 . S
C2666 C2664 1.561 . S
C2667 C2664 1.526 . S
C2667 C2668 1.396 . S
C2667 C2672 1.390 . S
C2668 C2662 1.465 . S
C2668 C2667 1.396 . S
C2668 C2669 1.399 . S
C2669 H2655 0.929 . S
C2669 C2668 1.399 . S
C2669 C2670 1.385 . S
C2670 H2656 0.931 . S
C2670 C2669 1.385 . S
C2670 C2671 1.389 . S
C2671 C2670 1.389 . S
C2671 C2672 1.387 . S
C2672 H2657 0.930 . S
C2672 C2667 1.390 . S
C2672 C2671 1.387 . S
H2673 C2685 0.930 . S
H2674 C2687 0.930 . S
H2675 C2688 0.930 . S
H2676 C2692 0.959 . S
H2677 C2692 0.959 . S
H2678 C2692 0.961 . S
H2679 C2693 0.960 . S
H2680 C2693 0.961 . S
H2681 C2693 0.959 . S
H2682 C2696 0.929 . S
H2683 C2697 0.931 . S
H2684 C2699 0.930 . S
C2685 H2673 0.930 . S
C2685 C2686 1.399 . S
C2685 C2690 1.399 . S
C2686 C2685 1.399 . S
C2686 C2687 1.376 . S
C2687 H2674 0.930 . S
C2687 C2686 1.376 . S
C2687 C2688 1.388 . S
C2688 H2675 0.930 . S
C2688 C2687 1.388 . S
C2688 C2689 1.390 . S
C2689 C2688 1.390 . S
C2689 C2690 1.394 . S
C2689 C2695 1.465 . S
C2690 C2685 1.399 . S
C2690 C2689 1.394 . S
C2690 C2691 1.516 . S
C2691 C2690 1.516 . S
C2691 C2692 1.502 . S
C2691 C2693 1.561 . S
C2691 C2694 1.526 . S
C2692 H2676 0.959 . S
C2692 H2677 0.959 . S
C2692 H2678 0.961 . S
C2692 C2691 1.502 . S
C2693 H2679 0.960 . S
C2693 H2680 0.961 . S
C2693 H2681 0.959 . S
C2693 C2691 1.561 . S
C2694 C2691 1.526 . S
C2694 C2695 1.396 . S
C2694 C2699 1.390 . S
C2695 C2689 1.465 . S
C2695 C2694 1.396 . S
C2695 C2696 1.399 . S
C2696 H2682 0.929 . S
C2696 C2695 1.399 . S
C2696 C2697 1.385 . S
C2697 H2683 0.931 . S
C2697 C2696 1.385 . S
C2697 C2698 1.389 . S
C2698 C2697 1.389 . S
C2698 C2699 1.387 . S
C2699 H2684 0.930 . S
C2699 C2694 1.390 . S
C2699 C2698 1.387 . S
H2700 C2712 0.930 . S
H2701 C2714 0.930 . S
H2702 C2715 0.930 . S
H2703 C2719 0.959 . S
H2704 C2719 0.959 . S
H2705 C2719 0.961 . S
H2706 C2720 0.960 . S
H2707 C2720 0.961 . S
H2708 C2720 0.959 . S
H2709 C2723 0.929 . S
H2710 C2724 0.931 . S
H2711 C2726 0.930 . S
C2712 H2700 0.930 . S
C2712 C2713 1.399 . S
C2712 C2717 1.399 . S
C2713 C2712 1.399 . S
C2713 C2714 1.376 . S
C2714 H2701 0.930 . S
C2714 C2713 1.376 . S
C2714 C2715 1.388 . S
C2715 H2702 0.930 . S
C2715 C2714 1.388 . S
C2715 C2716 1.390 . S
C2716 C2715 1.390 . S
C2716 C2717 1.394 . S
C2716 C2722 1.465 . S
C2717 C2712 1.399 . S
C2717 C2716 1.394 . S
C2717 C2718 1.516 . S
C2718 C2717 1.516 . S
C2718 C2719 1.502 . S
C2718 C2720 1.561 . S
C2718 C2721 1.526 . S
C2719 H2703 0.959 . S
C2719 H2704 0.959 . S
C2719 H2705 0.961 . S
C2719 C2718 1.502 . S
C2720 H2706 0.960 . S
C2720 H2707 0.961 . S
C2720 H2708 0.959 . S
C2720 C2718 1.561 . S
C2721 C2718 1.526 . S
C2721 C2722 1.396 . S
C2721 C2726 1.390 . S
C2722 C2716 1.465 . S
C2722 C2721 1.396 . S
C2722 C2723 1.399 . S
C2723 H2709 0.929 . S
C2723 C2722 1.399 . S
C2723 C2724 1.385 . S
C2724 H2710 0.931 . S
C2724 C2723 1.385 . S
C2724 C2725 1.389 . S
C2725 C2724 1.389 . S
C2725 C2726 1.387 . S
C2726 H2711 0.930 . S
C2726 C2721 1.390 . S
C2726 C2725 1.387 . S
H2727 C2739 0.930 . S
H2728 C2741 0.930 . S
H2729 C2742 0.930 . S
H2730 C2746 0.959 . S
H2731 C2746 0.959 . S
H2732 C2746 0.961 . S
H2733 C2747 0.960 . S
H2734 C2747 0.961 . S
H2735 C2747 0.959 . S
H2736 C2750 0.929 1_554 S
H2737 C2751 0.931 . S
H2738 C2753 0.930 . S
C2739 H2727 0.930 . S
C2739 C2740 1.399 . S
C2739 C2744 1.399 . S
C2740 C2739 1.399 . S
C2740 C2741 1.376 . S
C2741 H2728 0.930 . S
C2741 C2740 1.376 . S
C2741 C2742 1.388 . S
C2742 H2729 0.930 . S
C2742 C2741 1.388 . S
C2742 C2743 1.390 . S
C2743 C2742 1.390 . S
C2743 C2744 1.394 . S
C2743 C2749 1.465 . S
C2744 C2739 1.399 . S
C2744 C2743 1.394 . S
C2744 C2745 1.516 1_554 S
C2745 C2744 1.516 1_556 S
C2745 C2746 1.502 . S
C2745 C2747 1.561 . S
C2745 C2748 1.526 . S
C2746 H2730 0.959 . S
C2746 H2731 0.959 . S
C2746 H2732 0.961 . S
C2746 C2745 1.502 . S
C2747 H2733 0.960 . S
C2747 H2734 0.961 . S
C2747 H2735 0.959 . S
C2747 C2745 1.561 . S
C2748 C2745 1.526 . S
C2748 C2749 1.396 1_556 S
C2748 C2753 1.390 . S
C2749 C2743 1.465 . S
C2749 C2748 1.396 1_554 S
C2749 C2750 1.399 1_554 S
C2750 H2736 0.929 1_556 S
C2750 C2749 1.399 1_556 S
C2750 C2751 1.385 . S
C2751 H2737 0.931 . S
C2751 C2750 1.385 . S
C2751 C2752 1.389 . S
C2752 C2751 1.389 . S
C2752 C2753 1.387 . S
C2753 H2738 0.930 . S
C2753 C2748 1.390 . S
C2753 C2752 1.387 . S
H2754 C2766 0.930 . S
H2755 C2768 0.930 . S
H2756 C2769 0.930 . S
H2757 C2773 0.959 . S
H2758 C2773 0.959 . S
H2759 C2773 0.961 . S
H2760 C2774 0.960 . S
H2761 C2774 0.961 . S
H2762 C2774 0.959 . S
H2763 C2777 0.929 . S
H2764 C2778 0.931 . S
H2765 C2780 0.930 . S
C2766 H2754 0.930 . S
C2766 C2767 1.399 . S
C2766 C2771 1.399 . S
C2767 C2766 1.399 . S
C2767 C2768 1.376 . S
C2768 H2755 0.930 . S
C2768 C2767 1.376 . S
C2768 C2769 1.388 . S
C2769 H2756 0.930 . S
C2769 C2768 1.388 . S
C2769 C2770 1.390 . S
C2770 C2769 1.390 . S
C2770 C2771 1.394 . S
C2770 C2776 1.465 . S
C2771 C2766 1.399 . S
C2771 C2770 1.394 . S
C2771 C2772 1.516 . S
C2772 C2771 1.516 . S
C2772 C2773 1.502 . S
C2772 C2774 1.561 . S
C2772 C2775 1.526 . S
C2773 H2757 0.959 . S
C2773 H2758 0.959 . S
C2773 H2759 0.961 . S
C2773 C2772 1.502 . S
C2774 H2760 0.960 . S
C2774 H2761 0.961 . S
C2774 H2762 0.959 . S
C2774 C2772 1.561 . S
C2775 C2772 1.526 . S
C2775 C2776 1.396 . S
C2775 C2780 1.390 . S
C2776 C2770 1.465 . S
C2776 C2775 1.396 . S
C2776 C2777 1.399 . S
C2777 H2763 0.929 . S
C2777 C2776 1.399 . S
C2777 C2778 1.385 . S
C2778 H2764 0.931 . S
C2778 C2777 1.385 . S
C2778 C2779 1.389 . S
C2779 C2778 1.389 . S
C2779 C2780 1.387 . S
C2780 H2765 0.930 . S
C2780 C2775 1.390 . S
C2780 C2779 1.387 . S
H2781 C2793 0.930 . S
H2782 C2795 0.930 . S
H2783 C2796 0.930 . S
H2784 C2800 0.959 . S
H2785 C2800 0.959 . S
H2786 C2800 0.961 . S
H2787 C2801 0.960 . S
H2788 C2801 0.961 . S
H2789 C2801 0.959 . S
H2790 C2804 0.929 . S
H2791 C2805 0.931 . S
H2792 C2807 0.930 . S
C2793 H2781 0.930 . S
C2793 C2794 1.399 . S
C2793 C2798 1.399 . S
C2794 C2793 1.399 . S
C2794 C2795 1.376 . S
C2795 H2782 0.930 . S
C2795 C2794 1.376 . S
C2795 C2796 1.388 . S
C2796 H2783 0.930 . S
C2796 C2795 1.388 . S
C2796 C2797 1.390 . S
C2797 C2796 1.390 . S
C2797 C2798 1.394 . S
C2797 C2803 1.465 . S
C2798 C2793 1.399 . S
C2798 C2797 1.394 . S
C2798 C2799 1.516 . S
C2799 C2798 1.516 . S
C2799 C2800 1.502 . S
C2799 C2801 1.561 . S
C2799 C2802 1.526 . S
C2800 H2784 0.959 . S
C2800 H2785 0.959 . S
C2800 H2786 0.961 . S
C2800 C2799 1.502 . S
C2801 H2787 0.960 . S
C2801 H2788 0.961 . S
C2801 H2789 0.959 . S
C2801 C2799 1.561 . S
C2802 C2799 1.526 . S
C2802 C2803 1.396 . S
C2802 C2807 1.390 . S
C2803 C2797 1.465 . S
C2803 C2802 1.396 . S
C2803 C2804 1.399 . S
C2804 H2790 0.929 . S
C2804 C2803 1.399 . S
C2804 C2805 1.385 . S
C2805 H2791 0.931 . S
C2805 C2804 1.385 . S
C2805 C2806 1.389 . S
C2806 C2805 1.389 . S
C2806 C2807 1.387 . S
C2807 H2792 0.930 . S
C2807 C2802 1.390 . S
C2807 C2806 1.387 . S
H2808 C2820 0.930 . S
H2809 C2822 0.930 . S
H2810 C2823 0.930 . S
H2811 C2827 0.959 . S
H2812 C2827 0.959 . S
H2813 C2827 0.961 . S
H2814 C2828 0.960 . S
H2815 C2828 0.961 . S
H2816 C2828 0.959 . S
H2817 C2831 0.929 . S
H2818 C2832 0.931 . S
H2819 C2834 0.930 . S
C2820 H2808 0.930 . S
C2820 C2821 1.399 . S
C2820 C2825 1.399 . S
C2821 C2820 1.399 . S
C2821 C2822 1.376 . S
C2822 H2809 0.930 . S
C2822 C2821 1.376 . S
C2822 C2823 1.388 . S
C2823 H2810 0.930 . S
C2823 C2822 1.388 . S
C2823 C2824 1.390 . S
C2824 C2823 1.390 . S
C2824 C2825 1.394 . S
C2824 C2830 1.465 . S
C2825 C2820 1.399 . S
C2825 C2824 1.394 . S
C2825 C2826 1.516 . S
C2826 C2825 1.516 . S
C2826 C2827 1.502 . S
C2826 C2828 1.561 . S
C2826 C2829 1.526 . S
C2827 H2811 0.959 . S
C2827 H2812 0.959 . S
C2827 H2813 0.961 . S
C2827 C2826 1.502 . S
C2828 H2814 0.960 . S
C2828 H2815 0.961 . S
C2828 H2816 0.959 . S
C2828 C2826 1.561 . S
C2829 C2826 1.526 . S
C2829 C2830 1.396 . S
C2829 C2834 1.390 . S
C2830 C2824 1.465 . S
C2830 C2829 1.396 . S
C2830 C2831 1.399 . S
C2831 H2817 0.929 . S
C2831 C2830 1.399 . S
C2831 C2832 1.385 . S
C2832 H2818 0.931 . S
C2832 C2831 1.385 . S
C2832 C2833 1.389 . S
C2833 C2832 1.389 . S
C2833 C2834 1.387 . S
C2834 H2819 0.930 . S
C2834 C2829 1.390 . S
C2834 C2833 1.387 . S
H2835 C2847 0.930 . S
H2836 C2849 0.930 . S
H2837 C2850 0.930 . S
H2838 C2854 0.959 . S
H2839 C2854 0.959 . S
H2840 C2854 0.961 . S
H2841 C2855 0.960 . S
H2842 C2855 0.961 . S
H2843 C2855 0.959 . S
H2844 C2858 0.929 . S
H2845 C2859 0.931 . S
H2846 C2861 0.930 . S
C2847 H2835 0.930 . S
C2847 C2848 1.399 . S
C2847 C2852 1.399 . S
C2848 C2847 1.399 . S
C2848 C2849 1.376 . S
C2849 H2836 0.930 . S
C2849 C2848 1.376 . S
C2849 C2850 1.388 . S
C2850 H2837 0.930 . S
C2850 C2849 1.388 . S
C2850 C2851 1.390 . S
C2851 C2850 1.390 . S
C2851 C2852 1.394 . S
C2851 C2857 1.465 . S
C2852 C2847 1.399 . S
C2852 C2851 1.394 . S
C2852 C2853 1.516 . S
C2853 C2852 1.516 . S
C2853 C2854 1.502 . S
C2853 C2855 1.561 . S
C2853 C2856 1.526 . S
C2854 H2838 0.959 . S
C2854 H2839 0.959 . S
C2854 H2840 0.961 . S
C2854 C2853 1.502 . S
C2855 H2841 0.960 . S
C2855 H2842 0.961 . S
C2855 H2843 0.959 . S
C2855 C2853 1.561 . S
C2856 C2853 1.526 . S
C2856 C2857 1.396 . S
C2856 C2861 1.390 . S
C2857 C2851 1.465 . S
C2857 C2856 1.396 . S
C2857 C2858 1.399 . S
C2858 H2844 0.929 . S
C2858 C2857 1.399 . S
C2858 C2859 1.385 . S
C2859 H2845 0.931 . S
C2859 C2858 1.385 . S
C2859 C2860 1.389 . S
C2860 C2859 1.389 . S
C2860 C2861 1.387 . S
C2861 H2846 0.930 . S
C2861 C2856 1.390 . S
C2861 C2860 1.387 . S
H2862 C2874 0.930 . S
H2863 C2876 0.930 . S
H2864 C2877 0.930 . S
H2865 C2881 0.959 . S
H2866 C2881 0.959 . S
H2867 C2881 0.961 . S
H2868 C2882 0.960 . S
H2869 C2882 0.961 . S
H2870 C2882 0.959 . S
H2871 C2885 0.929 . S
H2872 C2886 0.931 . S
H2873 C2888 0.930 . S
C2874 H2862 0.930 . S
C2874 C2875 1.399 . S
C2874 C2879 1.399 . S
C2875 C2874 1.399 . S
C2875 C2876 1.376 . S
C2876 H2863 0.930 . S
C2876 C2875 1.376 . S
C2876 C2877 1.388 . S
C2877 H2864 0.930 . S
C2877 C2876 1.388 . S
C2877 C2878 1.390 . S
C2878 C2877 1.390 . S
C2878 C2879 1.394 . S
C2878 C2884 1.465 . S
C2879 C2874 1.399 . S
C2879 C2878 1.394 . S
C2879 C2880 1.516 . S
C2880 C2879 1.516 . S
C2880 C2881 1.502 . S
C2880 C2882 1.561 . S
C2880 C2883 1.526 . S
C2881 H2865 0.959 . S
C2881 H2866 0.959 . S
C2881 H2867 0.961 . S
C2881 C2880 1.502 . S
C2882 H2868 0.960 . S
C2882 H2869 0.961 . S
C2882 H2870 0.959 . S
C2882 C2880 1.561 . S
C2883 C2880 1.526 . S
C2883 C2884 1.396 . S
C2883 C2888 1.390 . S
C2884 C2878 1.465 . S
C2884 C2883 1.396 . S
C2884 C2885 1.399 . S
C2885 H2871 0.929 . S
C2885 C2884 1.399 . S
C2885 C2886 1.385 . S
C2886 H2872 0.931 . S
C2886 C2885 1.385 . S
C2886 C2887 1.389 . S
C2887 C2886 1.389 . S
C2887 C2888 1.387 . S
C2888 H2873 0.930 . S
C2888 C2883 1.390 . S
C2888 C2887 1.387 . S
H2889 C2901 0.930 . S
H2890 C2903 0.930 . S
H2891 C2904 0.930 . S
H2892 C2908 0.959 . S
H2893 C2908 0.959 . S
H2894 C2908 0.961 . S
H2895 C2909 0.960 . S
H2896 C2909 0.961 . S
H2897 C2909 0.959 . S
H2898 C2912 0.929 . S
H2899 C2913 0.931 . S
H2900 C2915 0.930 . S
C2901 H2889 0.930 . S
C2901 C2902 1.399 . S
C2901 C2906 1.399 . S
C2902 C2901 1.399 . S
C2902 C2903 1.376 . S
C2903 H2890 0.930 . S
C2903 C2902 1.376 . S
C2903 C2904 1.388 . S
C2904 H2891 0.930 . S
C2904 C2903 1.388 . S
C2904 C2905 1.390 . S
C2905 C2904 1.390 . S
C2905 C2906 1.394 . S
C2905 C2911 1.465 . S
C2906 C2901 1.399 . S
C2906 C2905 1.394 . S
C2906 C2907 1.516 . S
C2907 C2906 1.516 . S
C2907 C2908 1.502 . S
C2907 C2909 1.561 . S
C2907 C2910 1.526 . S
C2908 H2892 0.959 . S
C2908 H2893 0.959 . S
C2908 H2894 0.961 . S
C2908 C2907 1.502 . S
C2909 H2895 0.960 . S
C2909 H2896 0.961 . S
C2909 H2897 0.959 . S
C2909 C2907 1.561 . S
C2910 C2907 1.526 . S
C2910 C2911 1.396 . S
C2910 C2915 1.390 . S
C2911 C2905 1.465 . S
C2911 C2910 1.396 . S
C2911 C2912 1.399 . S
C2912 H2898 0.929 . S
C2912 C2911 1.399 . S
C2912 C2913 1.385 . S
C2913 H2899 0.931 . S
C2913 C2912 1.385 . S
C2913 C2914 1.389 . S
C2914 C2913 1.389 . S
C2914 C2915 1.387 . S
C2915 H2900 0.930 . S
C2915 C2910 1.390 . S
C2915 C2914 1.387 . S
H2916 C2928 0.930 . S
H2917 C2930 0.930 . S
H2918 C2931 0.930 . S
H2919 C2935 0.959 . S
H2920 C2935 0.959 . S
H2921 C2935 0.961 . S
H2922 C2936 0.960 . S
H2923 C2936 0.961 . S
H2924 C2936 0.959 . S
H2925 C2939 0.929 . S
H2926 C2940 0.931 . S
H2927 C2942 0.930 . S
C2928 H2916 0.930 . S
C2928 C2929 1.399 . S
C2928 C2933 1.399 . S
C2929 C2928 1.399 . S
C2929 C2930 1.376 . S
C2930 H2917 0.930 . S
C2930 C2929 1.376 . S
C2930 C2931 1.388 . S
C2931 H2918 0.930 . S
C2931 C2930 1.388 . S
C2931 C2932 1.390 . S
C2932 C2931 1.390 . S
C2932 C2933 1.394 . S
C2932 C2938 1.465 . S
C2933 C2928 1.399 . S
C2933 C2932 1.394 . S
C2933 C2934 1.516 . S
C2934 C2933 1.516 . S
C2934 C2935 1.502 . S
C2934 C2936 1.561 . S
C2934 C2937 1.526 . S
C2935 H2919 0.959 . S
C2935 H2920 0.959 . S
C2935 H2921 0.961 . S
C2935 C2934 1.502 . S
C2936 H2922 0.960 . S
C2936 H2923 0.961 . S
C2936 H2924 0.959 . S
C2936 C2934 1.561 . S
C2937 C2934 1.526 . S
C2937 C2938 1.396 . S
C2937 C2942 1.390 . S
C2938 C2932 1.465 . S
C2938 C2937 1.396 . S
C2938 C2939 1.399 . S
C2939 H2925 0.929 . S
C2939 C2938 1.399 . S
C2939 C2940 1.385 . S
C2940 H2926 0.931 . S
C2940 C2939 1.385 . S
C2940 C2941 1.389 . S
C2941 C2940 1.389 . S
C2941 C2942 1.387 . S
C2942 H2927 0.930 . S
C2942 C2937 1.390 . S
C2942 C2941 1.387 . S
H2943 C2955 0.930 1_554 S
H2944 C2957 0.930 . S
H2945 C2958 0.930 . S
H2946 C2962 0.959 . S
H2947 C2962 0.959 . S
H2948 C2962 0.961 1_554 S
H2949 C2963 0.960 . S
H2950 C2963 0.961 . S
H2951 C2963 0.959 . S
H2952 C2966 0.929 . S
H2953 C2967 0.931 . S
H2954 C2969 0.930 . S
C2955 H2943 0.930 1_556 S
C2955 C2956 1.399 . S
C2955 C2960 1.399 . S
C2956 C2955 1.399 . S
C2956 C2957 1.376 . S
C2957 H2944 0.930 . S
C2957 C2956 1.376 . S
C2957 C2958 1.388 . S
C2958 H2945 0.930 . S
C2958 C2957 1.388 . S
C2958 C2959 1.390 . S
C2959 C2958 1.390 . S
C2959 C2960 1.394 . S
C2959 C2965 1.465 . S
C2960 C2955 1.399 . S
C2960 C2959 1.394 . S
C2960 C2961 1.516 . S
C2961 C2960 1.516 . S
C2961 C2962 1.502 . S
C2961 C2963 1.561 1_556 S
C2961 C2964 1.526 . S
C2962 H2946 0.959 . S
C2962 H2947 0.959 . S
C2962 H2948 0.961 1_556 S
C2962 C2961 1.502 . S
C2963 H2949 0.960 . S
C2963 H2950 0.961 . S
C2963 H2951 0.959 . S
C2963 C2961 1.561 1_554 S
C2964 C2961 1.526 . S
C2964 C2965 1.396 . S
C2964 C2969 1.390 . S
C2965 C2959 1.465 . S
C2965 C2964 1.396 . S
C2965 C2966 1.399 . S
C2966 H2952 0.929 . S
C2966 C2965 1.399 . S
C2966 C2967 1.385 . S
C2967 H2953 0.931 . S
C2967 C2966 1.385 . S
C2967 C2968 1.389 . S
C2968 C2967 1.389 . S
C2968 C2969 1.387 . S
C2969 H2954 0.930 . S
C2969 C2964 1.390 . S
C2969 C2968 1.387 . S
H2970 C2982 0.930 . S
H2971 C2984 0.930 . S
H2972 C2985 0.930 . S
H2973 C2989 0.959 . S
H2974 C2989 0.959 . S
H2975 C2989 0.961 . S
H2976 C2990 0.960 . S
H2977 C2990 0.961 . S
H2978 C2990 0.959 . S
H2979 C2993 0.929 . S
H2980 C2994 0.931 . S
H2981 C2996 0.930 . S
C2982 H2970 0.930 . S
C2982 C2983 1.399 . S
C2982 C2987 1.399 . S
C2983 C2982 1.399 . S
C2983 C2984 1.376 . S
C2984 H2971 0.930 . S
C2984 C2983 1.376 . S
C2984 C2985 1.388 . S
C2985 H2972 0.930 . S
C2985 C2984 1.388 . S
C2985 C2986 1.390 . S
C2986 C2985 1.390 . S
C2986 C2987 1.394 . S
C2986 C2992 1.465 . S
C2987 C2982 1.399 . S
C2987 C2986 1.394 . S
C2987 C2988 1.516 . S
C2988 C2987 1.516 . S
C2988 C2989 1.502 . S
C2988 C2990 1.561 . S
C2988 C2991 1.526 . S
C2989 H2973 0.959 . S
C2989 H2974 0.959 . S
C2989 H2975 0.961 . S
C2989 C2988 1.502 . S
C2990 H2976 0.960 . S
C2990 H2977 0.961 . S
C2990 H2978 0.959 . S
C2990 C2988 1.561 . S
C2991 C2988 1.526 . S
C2991 C2992 1.396 . S
C2991 C2996 1.390 . S
C2992 C2986 1.465 . S
C2992 C2991 1.396 . S
C2992 C2993 1.399 . S
C2993 H2979 0.929 . S
C2993 C2992 1.399 . S
C2993 C2994 1.385 . S
C2994 H2980 0.931 . S
C2994 C2993 1.385 . S
C2994 C2995 1.389 . S
C2995 C2994 1.389 . S
C2995 C2996 1.387 . S
C2996 H2981 0.930 . S
C2996 C2991 1.390 . S
C2996 C2995 1.387 . S
H2997 C3009 0.930 . S
H2998 C3011 0.930 . S
H2999 C3012 0.930 . S
H3000 C3016 0.959 . S
H3001 C3016 0.959 . S
H3002 C3016 0.961 . S
H3003 C3017 0.960 . S
H3004 C3017 0.961 . S
H3005 C3017 0.959 . S
H3006 C3020 0.929 . S
H3007 C3021 0.931 . S
H3008 C3023 0.930 . S
C3009 H2997 0.930 . S
C3009 C3010 1.399 . S
C3009 C3014 1.399 . S
C3010 C3009 1.399 . S
C3010 C3011 1.376 . S
C3011 H2998 0.930 . S
C3011 C3010 1.376 . S
C3011 C3012 1.388 . S
C3012 H2999 0.930 . S
C3012 C3011 1.388 . S
C3012 C3013 1.390 . S
C3013 C3012 1.390 . S
C3013 C3014 1.394 . S
C3013 C3019 1.465 . S
C3014 C3009 1.399 . S
C3014 C3013 1.394 . S
C3014 C3015 1.516 . S
C3015 C3014 1.516 . S
C3015 C3016 1.502 . S
C3015 C3017 1.561 . S
C3015 C3018 1.526 . S
C3016 H3000 0.959 . S
C3016 H3001 0.959 . S
C3016 H3002 0.961 . S
C3016 C3015 1.502 . S
C3017 H3003 0.960 . S
C3017 H3004 0.961 . S
C3017 H3005 0.959 . S
C3017 C3015 1.561 . S
C3018 C3015 1.526 . S
C3018 C3019 1.396 . S
C3018 C3023 1.390 . S
C3019 C3013 1.465 . S
C3019 C3018 1.396 . S
C3019 C3020 1.399 . S
C3020 H3006 0.929 . S
C3020 C3019 1.399 . S
C3020 C3021 1.385 . S
C3021 H3007 0.931 . S
C3021 C3020 1.385 . S
C3021 C3022 1.389 . S
C3022 C3021 1.389 . S
C3022 C3023 1.387 . S
C3023 H3008 0.930 . S
C3023 C3018 1.390 . S
C3023 C3022 1.387 . S
H3024 C3036 0.930 . S
H3025 C3038 0.930 . S
H3026 C3039 0.930 . S
H3027 C3043 0.959 . S
H3028 C3043 0.959 . S
H3029 C3043 0.961 . S
H3030 C3044 0.960 . S
H3031 C3044 0.961 . S
H3032 C3044 0.959 . S
H3033 C3047 0.929 . S
H3034 C3048 0.931 . S
H3035 C3050 0.930 . S
C3036 H3024 0.930 . S
C3036 C3037 1.399 . S
C3036 C3041 1.399 . S
C3037 C3036 1.399 . S
C3037 C3038 1.376 . S
C3038 H3025 0.930 . S
C3038 C3037 1.376 . S
C3038 C3039 1.388 . S
C3039 H3026 0.930 . S
C3039 C3038 1.388 . S
C3039 C3040 1.390 . S
C3040 C3039 1.390 . S
C3040 C3041 1.394 . S
C3040 C3046 1.465 . S
C3041 C3036 1.399 . S
C3041 C3040 1.394 . S
C3041 C3042 1.516 . S
C3042 C3041 1.516 . S
C3042 C3043 1.502 . S
C3042 C3044 1.561 . S
C3042 C3045 1.526 . S
C3043 H3027 0.959 . S
C3043 H3028 0.959 . S
C3043 H3029 0.961 . S
C3043 C3042 1.502 . S
C3044 H3030 0.960 . S
C3044 H3031 0.961 . S
C3044 H3032 0.959 . S
C3044 C3042 1.561 . S
C3045 C3042 1.526 . S
C3045 C3046 1.396 . S
C3045 C3050 1.390 . S
C3046 C3040 1.465 . S
C3046 C3045 1.396 . S
C3046 C3047 1.399 . S
C3047 H3033 0.929 . S
C3047 C3046 1.399 . S
C3047 C3048 1.385 . S
C3048 H3034 0.931 . S
C3048 C3047 1.385 . S
C3048 C3049 1.389 . S
C3049 C3048 1.389 . S
C3049 C3050 1.387 . S
C3050 H3035 0.930 . S
C3050 C3045 1.390 . S
C3050 C3049 1.387 . S
H3051 C3063 0.930 . S
H3052 C3065 0.930 . S
H3053 C3066 0.930 . S
H3054 C3070 0.959 . S
H3055 C3070 0.959 . S
H3056 C3070 0.961 . S
H3057 C3071 0.960 . S
H3058 C3071 0.961 . S
H3059 C3071 0.959 . S
H3060 C3074 0.929 . S
H3061 C3075 0.931 . S
H3062 C3077 0.930 . S
C3063 H3051 0.930 . S
C3063 C3064 1.399 . S
C3063 C3068 1.399 . S
C3064 C3063 1.399 . S
C3064 C3065 1.376 . S
C3065 H3052 0.930 . S
C3065 C3064 1.376 . S
C3065 C3066 1.388 . S
C3066 H3053 0.930 . S
C3066 C3065 1.388 . S
C3066 C3067 1.390 . S
C3067 C3066 1.390 . S
C3067 C3068 1.394 . S
C3067 C3073 1.465 . S
C3068 C3063 1.399 . S
C3068 C3067 1.394 . S
C3068 C3069 1.516 . S
C3069 C3068 1.516 . S
C3069 C3070 1.502 . S
C3069 C3071 1.561 . S
C3069 C3072 1.526 . S
C3070 H3054 0.959 . S
C3070 H3055 0.959 . S
C3070 H3056 0.961 . S
C3070 C3069 1.502 . S
C3071 H3057 0.960 . S
C3071 H3058 0.961 . S
C3071 H3059 0.959 . S
C3071 C3069 1.561 . S
C3072 C3069 1.526 . S
C3072 C3073 1.396 . S
C3072 C3077 1.390 . S
C3073 C3067 1.465 . S
C3073 C3072 1.396 . S
C3073 C3074 1.399 . S
C3074 H3060 0.929 . S
C3074 C3073 1.399 . S
C3074 C3075 1.385 . S
C3075 H3061 0.931 . S
C3075 C3074 1.385 . S
C3075 C3076 1.389 . S
C3076 C3075 1.389 . S
C3076 C3077 1.387 . S
C3077 H3062 0.930 . S
C3077 C3072 1.390 . S
C3077 C3076 1.387 . S
H3078 C3090 0.930 . S
H3079 C3092 0.930 . S
H3080 C3093 0.930 . S
H3081 C3097 0.959 . S
H3082 C3097 0.959 . S
H3083 C3097 0.961 . S
H3084 C3098 0.960 . S
H3085 C3098 0.961 . S
H3086 C3098 0.959 . S
H3087 C3101 0.929 . S
H3088 C3102 0.931 . S
H3089 C3104 0.930 . S
C3090 H3078 0.930 . S
C3090 C3091 1.399 . S
C3090 C3095 1.399 . S
C3091 C3090 1.399 . S
C3091 C3092 1.376 . S
C3092 H3079 0.930 . S
C3092 C3091 1.376 . S
C3092 C3093 1.388 . S
C3093 H3080 0.930 . S
C3093 C3092 1.388 . S
C3093 C3094 1.390 . S
C3094 C3093 1.390 . S
C3094 C3095 1.394 . S
C3094 C3100 1.465 . S
C3095 C3090 1.399 . S
C3095 C3094 1.394 . S
C3095 C3096 1.516 . S
C3096 C3095 1.516 . S
C3096 C3097 1.502 . S
C3096 C3098 1.561 . S
C3096 C3099 1.526 . S
C3097 H3081 0.959 . S
C3097 H3082 0.959 . S
C3097 H3083 0.961 . S
C3097 C3096 1.502 . S
C3098 H3084 0.960 . S
C3098 H3085 0.961 . S
C3098 H3086 0.959 . S
C3098 C3096 1.561 . S
C3099 C3096 1.526 . S
C3099 C3100 1.396 . S
C3099 C3104 1.390 . S
C3100 C3094 1.465 . S
C3100 C3099 1.396 . S
C3100 C3101 1.399 . S
C3101 H3087 0.929 . S
C3101 C3100 1.399 . S
C3101 C3102 1.385 . S
C3102 H3088 0.931 . S
C3102 C3101 1.385 . S
C3102 C3103 1.389 . S
C3103 C3102 1.389 . S
C3103 C3104 1.387 . S
C3104 H3089 0.930 . S
C3104 C3099 1.390 . S
C3104 C3103 1.387 . S
H3105 C3117 0.930 . S
H3106 C3119 0.930 . S
H3107 C3120 0.930 . S
H3108 C3124 0.959 . S
H3109 C3124 0.959 . S
H3110 C3124 0.961 . S
H3111 C3125 0.960 . S
H3112 C3125 0.961 . S
H3113 C3125 0.959 . S
H3114 C3128 0.929 . S
H3115 C3129 0.931 . S
H3116 C3131 0.930 . S
C3117 H3105 0.930 . S
C3117 C3118 1.399 . S
C3117 C3122 1.399 . S
C3118 C3117 1.399 . S
C3118 C3119 1.376 . S
C3119 H3106 0.930 . S
C3119 C3118 1.376 . S
C3119 C3120 1.388 . S
C3120 H3107 0.930 . S
C3120 C3119 1.388 . S
C3120 C3121 1.390 . S
C3121 C3120 1.390 . S
C3121 C3122 1.394 . S
C3121 C3127 1.465 . S
C3122 C3117 1.399 . S
C3122 C3121 1.394 . S
C3122 C3123 1.516 . S
C3123 C3122 1.516 . S
C3123 C3124 1.502 . S
C3123 C3125 1.561 . S
C3123 C3126 1.526 . S
C3124 H3108 0.959 . S
C3124 H3109 0.959 . S
C3124 H3110 0.961 . S
C3124 C3123 1.502 . S
C3125 H3111 0.960 . S
C3125 H3112 0.961 . S
C3125 H3113 0.959 . S
C3125 C3123 1.561 . S
C3126 C3123 1.526 . S
C3126 C3127 1.396 . S
C3126 C3131 1.390 . S
C3127 C3121 1.465 . S
C3127 C3126 1.396 . S
C3127 C3128 1.399 . S
C3128 H3114 0.929 . S
C3128 C3127 1.399 . S
C3128 C3129 1.385 . S
C3129 H3115 0.931 . S
C3129 C3128 1.385 . S
C3129 C3130 1.389 . S
C3130 C3129 1.389 . S
C3130 C3131 1.387 . S
C3131 H3116 0.930 . S
C3131 C3126 1.390 . S
C3131 C3130 1.387 . S
H3132 C3144 0.930 . S
H3133 C3146 0.930 . S
H3134 C3147 0.930 . S
H3135 C3151 0.959 . S
H3136 C3151 0.959 . S
H3137 C3151 0.961 . S
H3138 C3152 0.960 . S
H3139 C3152 0.961 . S
H3140 C3152 0.959 . S
H3141 C3155 0.929 . S
H3142 C3156 0.931 . S
H3143 C3158 0.930 . S
C3144 H3132 0.930 . S
C3144 C3145 1.399 . S
C3144 C3149 1.399 . S
C3145 C3144 1.399 . S
C3145 C3146 1.376 . S
C3146 H3133 0.930 . S
C3146 C3145 1.376 . S
C3146 C3147 1.388 . S
C3147 H3134 0.930 . S
C3147 C3146 1.388 . S
C3147 C3148 1.390 . S
C3148 C3147 1.390 . S
C3148 C3149 1.394 . S
C3148 C3154 1.465 . S
C3149 C3144 1.399 . S
C3149 C3148 1.394 . S
C3149 C3150 1.516 . S
C3150 C3149 1.516 . S
C3150 C3151 1.502 . S
C3150 C3152 1.561 . S
C3150 C3153 1.526 . S
C3151 H3135 0.959 . S
C3151 H3136 0.959 . S
C3151 H3137 0.961 . S
C3151 C3150 1.502 . S
C3152 H3138 0.960 . S
C3152 H3139 0.961 . S
C3152 H3140 0.959 . S
C3152 C3150 1.561 . S
C3153 C3150 1.526 . S
C3153 C3154 1.396 . S
C3153 C3158 1.390 . S
C3154 C3148 1.465 . S
C3154 C3153 1.396 . S
C3154 C3155 1.399 . S
C3155 H3141 0.929 . S
C3155 C3154 1.399 . S
C3155 C3156 1.385 . S
C3156 H3142 0.931 . S
C3156 C3155 1.385 . S
C3156 C3157 1.389 . S
C3157 C3156 1.389 . S
C3157 C3158 1.387 . S
C3158 H3143 0.930 . S
C3158 C3153 1.390 . S
C3158 C3157 1.387 . S
H3159 C3171 0.930 . S
H3160 C3173 0.930 1_554 S
H3161 C3174 0.930 . S
H3162 C3178 0.959 . S
H3163 C3178 0.959 . S
H3164 C3178 0.961 . S
H3165 C3179 0.960 . S
H3166 C3179 0.961 . S
H3167 C3179 0.959 . S
H3168 C3182 0.929 . S
H3169 C3183 0.931 . S
H3170 C3185 0.930 . S
C3171 H3159 0.930 . S
C3171 C3172 1.399 . S
C3171 C3176 1.399 . S
C3172 C3171 1.399 . S
C3172 C3173 1.376 . S
C3173 H3160 0.930 1_556 S
C3173 C3172 1.376 . S
C3173 C3174 1.388 . S
C3174 H3161 0.930 . S
C3174 C3173 1.388 . S
C3174 C3175 1.390 . S
C3175 C3174 1.390 . S
C3175 C3176 1.394 . S
C3175 C3181 1.465 . S
C3176 C3171 1.399 . S
C3176 C3175 1.394 . S
C3176 C3177 1.516 . S
C3177 C3176 1.516 . S
C3177 C3178 1.502 . S
C3177 C3179 1.561 . S
C3177 C3180 1.526 . S
C3178 H3162 0.959 . S
C3178 H3163 0.959 . S
C3178 H3164 0.961 . S
C3178 C3177 1.502 . S
C3179 H3165 0.960 . S
C3179 H3166 0.961 . S
C3179 H3167 0.959 . S
C3179 C3177 1.561 . S
C3180 C3177 1.526 . S
C3180 C3181 1.396 . S
C3180 C3185 1.390 . S
C3181 C3175 1.465 . S
C3181 C3180 1.396 . S
C3181 C3182 1.399 . S
C3182 H3168 0.929 . S
C3182 C3181 1.399 . S
C3182 C3183 1.385 . S
C3183 H3169 0.931 . S
C3183 C3182 1.385 . S
C3183 C3184 1.389 . S
C3184 C3183 1.389 . S
C3184 C3185 1.387 . S
C3185 H3170 0.930 . S
C3185 C3180 1.390 . S
C3185 C3184 1.387 . S
H3186 C3198 0.930 . S
H3187 C3200 0.930 . S
H3188 C3201 0.930 . S
H3189 C3205 0.959 . S
H3190 C3205 0.959 . S
H3191 C3205 0.961 . S
H3192 C3206 0.960 . S
H3193 C3206 0.961 . S
H3194 C3206 0.959 . S
H3195 C3209 0.929 . S
H3196 C3210 0.931 . S
H3197 C3212 0.930 . S
C3198 H3186 0.930 . S
C3198 C3199 1.399 . S
C3198 C3203 1.399 . S
C3199 C3198 1.399 . S
C3199 C3200 1.376 . S
C3200 H3187 0.930 . S
C3200 C3199 1.376 . S
C3200 C3201 1.388 . S
C3201 H3188 0.930 . S
C3201 C3200 1.388 . S
C3201 C3202 1.390 . S
C3202 C3201 1.390 . S
C3202 C3203 1.394 . S
C3202 C3208 1.465 . S
C3203 C3198 1.399 . S
C3203 C3202 1.394 . S
C3203 C3204 1.516 . S
C3204 C3203 1.516 . S
C3204 C3205 1.502 . S
C3204 C3206 1.561 1_565 S
C3204 C3207 1.526 . S
C3205 H3189 0.959 . S
C3205 H3190 0.959 . S
C3205 H3191 0.961 . S
C3205 C3204 1.502 . S
C3206 H3192 0.960 . S
C3206 H3193 0.961 . S
C3206 H3194 0.959 . S
C3206 C3204 1.561 1_545 S
C3207 C3204 1.526 . S
C3207 C3208 1.396 . S
C3207 C3212 1.390 . S
C3208 C3202 1.465 . S
C3208 C3207 1.396 . S
C3208 C3209 1.399 . S
C3209 H3195 0.929 . S
C3209 C3208 1.399 . S
C3209 C3210 1.385 . S
C3210 H3196 0.931 . S
C3210 C3209 1.385 . S
C3210 C3211 1.389 . S
C3211 C3210 1.389 . S
C3211 C3212 1.387 . S
C3212 H3197 0.930 . S
C3212 C3207 1.390 . S
C3212 C3211 1.387 . S
H3213 C3225 0.930 . S
H3214 C3227 0.930 . S
H3215 C3228 0.930 . S
H3216 C3232 0.959 . S
H3217 C3232 0.959 . S
H3218 C3232 0.961 1_455 S
H3219 C3233 0.960 . S
H3220 C3233 0.961 . S
H3221 C3233 0.959 . S
H3222 C3236 0.929 . S
H3223 C3237 0.931 . S
H3224 C3239 0.930 . S
C3225 H3213 0.930 . S
C3225 C3226 1.399 . S
C3225 C3230 1.399 . S
C3226 C3225 1.399 . S
C3226 C3227 1.376 . S
C3227 H3214 0.930 . S
C3227 C3226 1.376 . S
C3227 C3228 1.388 . S
C3228 H3215 0.930 . S
C3228 C3227 1.388 . S
C3228 C3229 1.390 . S
C3229 C3228 1.390 . S
C3229 C3230 1.394 . S
C3229 C3235 1.465 1_455 S
C3230 C3225 1.399 . S
C3230 C3229 1.394 . S
C3230 C3231 1.516 . S
C3231 C3230 1.516 . S
C3231 C3232 1.502 1_455 S
C3231 C3233 1.561 . S
C3231 C3234 1.526 1_455 S
C3232 H3216 0.959 . S
C3232 H3217 0.959 . S
C3232 H3218 0.961 1_655 S
C3232 C3231 1.502 1_655 S
C3233 H3219 0.960 . S
C3233 H3220 0.961 . S
C3233 H3221 0.959 . S
C3233 C3231 1.561 . S
C3234 C3231 1.526 1_655 S
C3234 C3235 1.396 . S
C3234 C3239 1.390 . S
C3235 C3229 1.465 1_655 S
C3235 C3234 1.396 . S
C3235 C3236 1.399 . S
C3236 H3222 0.929 . S
C3236 C3235 1.399 . S
C3236 C3237 1.385 . S
C3237 H3223 0.931 . S
C3237 C3236 1.385 . S
C3237 C3238 1.389 . S
C3238 C3237 1.389 . S
C3238 C3239 1.387 . S
C3239 H3224 0.930 . S
C3239 C3234 1.390 . S
C3239 C3238 1.387 . S
C673 C330 1.233 . S
C661 C10 1.204 . S
C688 C16 1.502 . S
C700 C350 1.563 . S
C727 C370 1.165 . S
C715 C30 1.286 . S
C754 C389 1.515 . S
C742 C42 1.471 . S
C781 C347 1.469 . S
C769 C57 1.404 . S
C796 C69 1.313 . S
C808 C372 1.201 . S
C835 C392 1.397 . S
C823 C83 1.438 . S
C850 C101 1.334 . S
C862 C328 1.289 . S
C877 C108 1.532 . S
C889 C325 1.440 . S
C916 C348 1.302 . S
C904 C120 1.320 . S
C943 C371 1.464 . S
C931 C133 1.449 . S
C970 C393 1.466 . S
C958 C147 1.455 . S
C997 C351 1.084 . S
C985 C114 1.060 . S
C1024 C367 1.043 . S
C1012 C122 1.234 . S
C1039 C135 1.256 . S
C1051 C390 1.198 . S
C1078 C329 1.070 . S
C1066 C153 1.105 . S
C1093 C160 1.418 . S
C1105 C326 1.466 . S
C1120 C174 1.019 . S
C1132 C409 1.002 . S
C1159 C431 1.446 . S
C1147 C187 1.440 . S
C1186 C454 1.045 . S
C1174 C205 1.295 . S
C1201 C212 1.503 . S
C1213 C327 1.395 . S
C1228 C226 1.521 . S
C1240 C369 1.508 . S
C1267 C451 1.131 . S
C1255 C185 1.386 . S
C1294 C412 0.959 . S
C1282 C244 1.013 . S
C1321 C477 1.109 . S
C1309 C23 1.116 . S
C1348 C497 1.564 . S
C1336 C5 1.618 . S
C1363 C49 1.164 . S
C1375 C519 1.162 . S
C1390 C29 1.200 . S
C1402 C536 1.280 . S
C1417 C94 1.669 . S
C1429 C494 1.684 . S
C1444 C88 1.287 . S
C1456 C517 1.028 . S
C1483 C539 1.298 . S
C1471 C70 1.337 . S
C1498 C62 1.337 . S
C1510 C475 1.119 . S
C1525 C257 1.166 . S
C1537 C472 0.933 . S
C1564 C495 1.462 . S
C1552 C200 1.552 . S
C1591 C514 1.213 . S
C1579 C211 1.445 . S
C1618 C540 1.338 . S
C1606 C179 1.380 . S
C1645 C498 1.022 . S
C1633 C251 1.183 . S
C1672 C518 1.093 . S
C1660 C198 1.075 . S
C1699 C537 0.909 . S
C1687 C213 1.069 . S
C1714 C173 1.365 . S
C1726 C476 1.356 . S
C1753 C473 1.439 . S
C1741 C264 1.396 . S
C1768 C148 1.303 . S
C1780 C556 1.001 . S
C1807 C579 1.375 . S
C1795 C278 1.467 . S
C1822 C127 1.299 . S
C1834 C601 1.194 . S
C1861 C474 1.337 . S
C1849 C140 1.446 . S
C1888 C515 1.401 . S
C1876 C289 1.439 . S
C1915 C598 0.849 . S
C1903 C276 1.128 . S
C1930 C303 1.022 . S
C1942 C559 0.788 . S
C1957 C36 1.233 . S
C1969 C624 1.125 . S
C1984 C44 1.496 . S
C1996 C413 1.525 . S
C2023 C433 1.113 . S
C2011 C4 1.274 . S
C2038 C18 1.472 . S
C2050 C452 1.512 . S
C2065 C81 1.467 . S
C2077 C410 1.433 . S
C2092 C95 1.310 . S
C2104 C435 1.174 . S
C2131 C455 1.436 . S
C2119 C55 1.381 . S
C2158 C622 1.281 . S
C2146 C75 1.359 . S
C2185 C619 1.491 . S
C2173 C277 1.552 . S
C2212 C411 1.226 . S
C2200 C263 1.387 . S
C2239 C434 1.456 . S
C2227 C302 1.455 . S
C2254 C290 1.458 . S
C2266 C456 1.467 . S
C2293 C414 1.088 . S
C2281 C283 1.059 . S
C2308 C265 1.203 . S
C2320 C430 1.161 . S
C2347 C453 1.137 . S
C2335 C304 1.275 . S
C2362 C296 1.103 . S
C2374 C623 1.069 . S
C2401 C620 1.488 . S
C2389 C199 1.415 . S
C2416 C224 1.015 . S
C2428 C346 1.005 . S
C2455 C368 1.427 . S
C2443 C252 1.437 . S
C2470 C166 1.308 . S
C2482 C391 1.213 . S
C2509 C621 1.398 . S
C2497 C238 1.506 . S
C2536 C432 1.470 . S
C2524 C172 1.550 . S
C2563 C388 1.210 . S
C2551 C250 1.344 . S
C2590 C349 0.948 . S
C2578 C218 1.013 . S
C2605 C43 1.092 . S
C2617 C645 1.103 . S
C2632 C31 1.618 . S
C2644 C560 1.564 . S
C2659 C17 1.175 . S
C2671 C582 1.186 . S
C2698 C599 1.200 . S
C2686 C3 1.283 . S
C2725 C557 1.662 . S
C2713 C68 1.679 . S
C2740 C56 1.283 . S
C2752 C580 1.039 . S
C2779 C602 1.295 . S
C2767 C96 1.341 . S
C2794 C82 1.334 . S
C2806 C643 1.129 . S
C2833 C640 0.928 . S
C2821 C192 1.168 . S
C2848 C161 1.530 . S
C2860 C558 1.499 . S
C2875 C237 1.450 . S
C2887 C577 1.204 . S
C2914 C603 1.307 . S
C2902 C225 1.400 . S
C2941 C561 1.060 . S
C2929 C186 1.182 . S
C2956 C159 1.066 . S
C2968 C581 1.102 . S
C2995 C600 1.043 . S
C2983 C239 1.003 . S
C3022 C644 1.386 . S
C3010 C231 1.338 . S
C3049 C641 1.391 . S
C3037 C121 1.444 . S
C3076 C493 1.176 . S
C3064 C291 1.248 . S
C3091 C109 1.470 . S
C3103 C516 1.332 . S
C3118 C270 1.362 . S
C3130 C538 1.033 . S
C3157 C642 1.401 . S
C3145 C309 1.425 . S
C3184 C578 1.441 . S
C3172 C146 1.406 . S
C3211 C535 1.035 . S
C3199 C107 1.067 . S
C3238 C496 0.772 . S
C3226 C134 1.027 . S
