# Generated by pormake.
# Topology pth, (4,4)-cn, num edge types: 1
# Building blocks:
#     Node 0, Type 0, BuildingBlock: NAHDIM_clean_sbu_0, # of connection points: 4
#     Node 1, Type 0, BuildingBlock: NAHDIM_clean_sbu_0, # of connection points: 4
#     Node 2, Type 0, BuildingBlock: NAHDIM_clean_sbu_0, # of connection points: 4
#     Node 3, Type 1, BuildingBlock: KOZSID_clean_sbu_0, # of connection points: 4
#     Node 4, Type 1, BuildingBlock: KOZSID_clean_sbu_0, # of connection points: 4
#     Node 5, Type 1, BuildingBlock: KOZSID_clean_sbu_0, # of connection points: 4
#     Edge 6, Type (0, 1), BuildingBlock: FUNLAD_clean_linker_1, # of connection points: 2
#     Edge 7, Type (0, 1), BuildingBlock: FUNLAD_clean_linker_1, # of connection points: 2
#     Edge 8, Type (0, 1), BuildingBlock: FUNLAD_clean_linker_1, # of connection points: 2
#     Edge 9, Type (0, 1), BuildingBlock: FUNLAD_clean_linker_1, # of connection points: 2
#     Edge 10, Type (0, 1), BuildingBlock: FUNLAD_clean_linker_1, # of connection points: 2
#     Edge 11, Type (0, 1), BuildingBlock: FUNLAD_clean_linker_1, # of connection points: 2
#     Edge 12, Type (0, 1), BuildingBlock: FUNLAD_clean_linker_1, # of connection points: 2
#     Edge 13, Type (0, 1), BuildingBlock: FUNLAD_clean_linker_1, # of connection points: 2
#     Edge 14, Type (0, 1), BuildingBlock: FUNLAD_clean_linker_1, # of connection points: 2
#     Edge 15, Type (0, 1), BuildingBlock: FUNLAD_clean_linker_1, # of connection points: 2
#     Edge 16, Type (0, 1), BuildingBlock: FUNLAD_clean_linker_1, # of connection points: 2
#     Edge 17, Type (0, 1), BuildingBlock: FUNLAD_clean_linker_1, # of connection points: 2
# Relax obj value: 0.042
# Max RMSD: 0.170
# Mean RMSD: 0.085
data_MOF--net-pth--node1-NAHDIM_clean_sbu_0--node2-KOZSID_clean_sbu_0--edge1-FUNLAD_clean_linker_1
_symmetry_space_group_name_H-M    P1
_symmetry_Int_Tables_number       1
_symmetry_cell_setting            triclinic
loop_
_symmetry_equiv_pos_as_xyz
'x, y, z'
_cell_length_a     27.584784
_cell_length_b     27.744959
_cell_length_c     61.67657
_cell_angle_alpha  89.38214
_cell_angle_beta   87.431107
_cell_angle_gamma 120.67369
loop_
_atom_site_label
_atom_site_type_symbol
_atom_site_fract_x
_atom_site_fract_y
_atom_site_fract_z
_atom_type_partial_charge
C0 C 0.05916 0.98327 0.06402 0.0
O1 O 0.00813 0.97512 0.06758 0.0
O2 O 0.05832 0.11679 0.06379 0.0
Zn3 Zn 0.06598 0.07249 0.03946 0.0
O4 O 0.99069 0.01845 0.02725 0.0
C5 C 0.10878 0.1629 0.00782 0.0
O6 O 0.05995 0.15818 0.01322 0.0
O7 O 0.09498 0.02493 0.05196 0.0
C8 C 0.98593 0.00793 0.0072 0.0
O9 O 0.03013 0.03556 0.99352 0.0
C10 C 0.02028 0.1296 0.06576 0.0
O11 O 0.98035 0.11121 0.05188 0.0
O12 O 0.12127 0.12905 0.01646 0.0
C13 C 0.05311 0.18714 0.33498 0.0
O14 O 0.00525 0.13917 0.33457 0.0
O15 O 0.05653 0.06032 0.34874 0.0
Zn16 Zn 0.07241 0.12555 0.36742 0.0
O17 O 0.00491 0.10745 0.38751 0.0
C18 C 0.14994 0.10587 0.3901 0.0
O19 O 0.11868 0.05537 0.38278 0.0
O20 O 0.08982 0.192 0.3479 0.0
C21 C 0.99068 0.0748 0.40422 0.0
O22 O 0.01963 0.05061 0.40853 0.0
C23 C 0.00728 0.02079 0.34499 0.0
O24 O 0.96293 0.02116 0.35339 0.0
O25 O 0.13881 0.14381 0.38545 0.0
C26 C 0.12629 0.0276 0.66254 0.0
O27 O 0.0842 0.01705 0.65044 0.0
O28 O 0.01969 0.06488 0.67827 0.0
Zn29 Zn 0.06057 0.0417 0.69856 0.0
O30 O 0.09763 0.09682 0.72213 0.0
C31 C 0.96925 0.96433 0.72758 0.0
O32 O 0.97404 0.01131 0.73424 0.0
O33 O 0.12371 0.03755 0.68247 0.0
C34 C 0.13664 0.14684 0.71723 0.0
O35 O 0.14983 0.16347 0.69667 0.0
C36 C 1.00023 0.09592 0.68405 0.0
O37 O 0.00958 0.11693 0.70341 0.0
O38 O 0.00279 0.9662 0.71233 0.0
C39 C 0.08526 0.66677 0.16813 0.0
C40 C 0.13922 0.70468 0.15911 0.0
C41 C 0.17645 0.69693 0.17014 0.0
C42 C 0.14418 0.65596 0.18559 0.0
N43 N 0.0881 0.63631 0.18499 0.0
Co44 Co 0.02733 0.57989 0.2062 0.0
N45 N 0.08375 0.57387 0.22358 0.0
C46 C 0.14047 0.60619 0.22113 0.0
C47 C 0.16813 0.59644 0.23691 0.0
C48 C 0.12643 0.55408 0.24987 0.0
C49 C 0.07575 0.53893 0.24064 0.0
N50 N 0.96667 0.52246 0.2271 0.0
C51 C 0.97023 0.49178 0.24359 0.0
C52 C 0.91761 0.4568 0.25415 0.0
C53 C 0.87943 0.46375 0.24333 0.0
C54 C 0.91059 0.50267 0.227 0.0
N55 N 0.9708 0.58676 0.18923 0.0
C56 C 0.91403 0.55816 0.19317 0.0
C57 C 0.88594 0.57209 0.17903 0.0
C58 C 0.92717 0.61295 0.1655 0.0
C59 C 0.97859 0.62231 0.17237 0.0
N60 N 0.0202 0.51847 0.18791 0.0
C61 C 0.00957 0.42918 0.16302 0.0
C62 C 0.96233 0.43226 0.1698 0.0
C63 C 0.96845 0.47677 0.18208 0.0
C64 C 0.06252 0.47164 0.16909 0.0
C65 C 0.06676 0.51559 0.18138 0.0
N66 N 0.03439 0.64154 0.22463 0.0
C67 C 0.99078 0.68164 0.24718 0.0
C68 C 0.04332 0.72881 0.25058 0.0
C69 C 0.09121 0.73124 0.24086 0.0
C70 C 0.0859 0.68779 0.22801 0.0
C71 C 0.9874 0.6393 0.23417 0.0
H72 H 0.12415 0.69301 0.22092 0.0
H73 H 0.94605 0.6053 0.23208 0.0
H74 H 0.93063 0.47621 0.18683 0.0
H75 H 0.1081 0.54651 0.18567 0.0
C76 C 0.1662 0.64184 0.20286 0.0
C77 C 0.03329 0.66544 0.16221 0.0
C78 C 0.02116 0.48991 0.2478 0.0
C79 C 0.88838 0.52005 0.21084 0.0
H80 H 0.15231 0.73762 0.14688 0.0
H81 H 0.22207 0.72127 0.16814 0.0
H82 H 0.21323 0.6167 0.2385 0.0
H83 H 0.1329 0.53548 0.26413 0.0
H84 H 0.90712 0.4279 0.26786 0.0
H85 H 0.83413 0.44183 0.24662 0.0
H86 H 0.84089 0.55524 0.17881 0.0
H87 H 0.92005 0.63385 0.15217 0.0
H88 H 0.92043 0.40023 0.16564 0.0
H89 H 0.10067 0.47113 0.16481 0.0
H90 H 0.95205 0.67636 0.25461 0.0
H91 H 0.13289 0.76689 0.24306 0.0
C92 C 0.46804 0.99856 0.56664 0.0
C93 C 0.43119 0.94458 0.57513 0.0
C94 C 0.44138 0.90935 0.56312 0.0
C95 C 0.48418 0.94366 0.54826 0.0
N96 N 0.50294 0.9988 0.55046 0.0
Co97 Co 0.56447 0.06296 0.5324 0.0
N98 N 0.57073 0.01092 0.51173 0.0
C99 C 0.53671 0.95455 0.51187 0.0
C100 C 0.54494 0.93064 0.49388 0.0
C101 C 0.58776 0.97426 0.4818 0.0
C102 C 0.60514 0.02216 0.49364 0.0
N103 N 0.62726 0.12709 0.51447 0.0
C104 C 0.65803 0.12719 0.49659 0.0
C105 C 0.6969 0.18182 0.4891 0.0
C106 C 0.69181 0.21687 0.50309 0.0
C107 C 0.65018 0.18224 0.51819 0.0
N108 N 0.5562 0.11485 0.5528 0.0
C109 C 0.58735 0.17153 0.55173 0.0
C110 C 0.56867 0.19651 0.56605 0.0
C111 C 0.52179 0.15347 0.57658 0.0
C112 C 0.51475 0.10382 0.56835 0.0
N113 N 0.62153 0.06138 0.55059 0.0
C114 C 0.7038 0.05945 0.57567 0.0
C115 C 0.70173 0.10846 0.57298 0.0
C116 C 0.6607 0.10846 0.56047 0.0
C117 C 0.6645 0.01177 0.56537 0.0
C118 C 0.62391 0.01348 0.55314 0.0
N119 N 0.5076 0.06449 0.51422 0.0
C120 C 0.47459 0.11634 0.49397 0.0
C121 C 0.42694 0.06655 0.48827 0.0
C122 C 0.42056 0.01593 0.49581 0.0
C123 C 0.46076 0.01577 0.50873 0.0
C124 C 0.51381 0.11427 0.50692 0.0
H125 H 0.45285 0.9757 0.51417 0.0
H126 H 0.54883 0.15362 0.51081 0.0
H127 H 0.66213 0.14734 0.55884 0.0
H128 H 0.59524 0.97554 0.54576 0.0
C129 C 0.49936 0.92513 0.52964 0.0
C130 C 0.46549 0.04747 0.5736 0.0
C131 C 0.65558 0.07695 0.48776 0.0
C132 C 0.63022 0.20026 0.53556 0.0
H133 H 0.39849 0.93188 0.58799 0.0
H134 H 0.41773 0.86396 0.56413 0.0
H135 H 0.52276 0.88675 0.49006 0.0
H136 H 0.60458 0.97069 0.46619 0.0
H137 H 0.72663 0.19573 0.47517 0.0
H138 H 0.71575 0.26226 0.50235 0.0
H139 H 0.58509 0.24094 0.5677 0.0
H140 H 0.4952 0.15982 0.58803 0.0
H141 H 0.73225 0.14723 0.57998 0.0
H142 H 0.66484 0.97299 0.56684 0.0
H143 H 0.48265 0.15693 0.48833 0.0
H144 H 0.38431 0.97629 0.49183 0.0
C145 C 0.65104 0.62647 0.84054 0.0
C146 C 0.69929 0.62331 0.83642 0.0
C147 C 0.68986 0.57485 0.84609 0.0
C148 C 0.63759 0.55211 0.85641 0.0
N149 N 0.61311 0.58339 0.85414 0.0
Co150 Co 0.5419 0.57027 0.87008 0.0
N151 N 0.52986 0.50028 0.88527 0.0
C152 C 0.56525 0.48 0.88414 0.0
C153 C 0.54736 0.43225 0.89658 0.0
C154 C 0.49704 0.42066 0.90616 0.0
C155 C 0.48646 0.46186 0.89869 0.0
N156 N 0.46972 0.55612 0.88563 0.0
C157 C 0.43043 0.51151 0.89838 0.0
C158 C 0.38212 0.51484 0.90241 0.0
C159 C 0.39232 0.56396 0.89304 0.0
C160 C 0.44511 0.58721 0.88314 0.0
N161 N 0.55488 0.64117 0.85524 0.0
C162 C 0.52179 0.66391 0.85773 0.0
C163 C 0.54117 0.71306 0.84604 0.0
C164 C 0.58991 0.72286 0.83548 0.0
C165 C 0.59801 0.67899 0.84149 0.0
N166 N 0.49754 0.52509 0.84584 0.0
C167 C 0.42727 0.45548 0.81396 0.0
C168 C 0.42508 0.50226 0.82053 0.0
C169 C 0.46013 0.53613 0.83631 0.0
C170 C 0.46728 0.44549 0.82291 0.0
C171 C 0.50196 0.48083 0.83863 0.0
N172 N 0.58641 0.61612 0.89431 0.0
C173 C 0.61216 0.69546 0.91691 0.0
C174 C 0.66072 0.69611 0.92268 0.0
C175 C 0.66959 0.65362 0.91522 0.0
C176 C 0.63191 0.61412 0.90126 0.0
C177 C 0.57537 0.65486 0.90319 0.0
H178 H 0.64156 0.58356 0.89583 0.0
H179 H 0.53921 0.6569 0.89947 0.0
H180 H 0.45568 0.57066 0.84065 0.0
H181 H 0.53188 0.47146 0.84485 0.0
C182 C 0.61376 0.50512 0.87042 0.0
C183 C 0.64503 0.67319 0.8325 0.0
C184 C 0.43559 0.46343 0.90552 0.0
C185 C 0.47133 0.6368 0.87044 0.0
H186 H 0.73886 0.6543 0.82845 0.0
H187 H 0.71909 0.55978 0.84667 0.0
H188 H 0.56822 0.40843 0.89835 0.0
H189 H 0.47152 0.38575 0.91751 0.0
H190 H 0.34212 0.48426 0.91034 0.0
H191 H 0.36359 0.57967 0.89267 0.0
H192 H 0.52162 0.73829 0.845 0.0
H193 H 0.61551 0.758 0.82425 0.0
H194 H 0.39551 0.51227 0.81377 0.0
H195 H 0.47249 0.41113 0.81784 0.0
H196 H 0.60312 0.72702 0.92262 0.0
H197 H 0.70668 0.65218 0.91917 0.0
H198 H 0.05955 0.18398 0.09318 0.0
C199 C 0.0251 0.16947 0.08236 0.0
H200 H 0.95852 0.17926 0.07211 0.0
H201 H 0.01627 0.29943 0.16843 0.0
H202 H 0.9795 0.20555 0.18389 0.0
H203 H 0.95185 0.12545 0.16027 0.0
H204 H 0.96137 0.13879 0.12103 0.0
C205 C 0.99144 0.19131 0.08349 0.0
C206 C 0.00361 0.23838 0.09796 0.0
C207 C 0.99615 0.22954 0.12087 0.0
C208 C 0.0102 0.27545 0.13449 0.0
C209 C 0.00456 0.26583 0.15731 0.0
C210 C 0.98382 0.2122 0.16641 0.0
C211 C 0.96838 0.16711 0.15311 0.0
C212 C 0.97435 0.1754 0.13061 0.0
H213 H 0.95804 0.34634 0.14876 0.0
C214 C 0.00116 0.38078 0.15005 0.0
H215 H 0.08616 0.41229 0.13873 0.0
H216 H 0.02336 0.26996 0.05472 0.0
H217 H 0.05759 0.36328 0.03927 0.0
H218 H 0.07901 0.4422 0.06285 0.0
H219 H 0.06668 0.42835 0.10203 0.0
C220 C 0.04285 0.37778 0.13917 0.0
C221 C 0.02995 0.32975 0.12515 0.0
C222 C 0.037 0.33847 0.10226 0.0
C223 C 0.02386 0.29278 0.08866 0.0
C224 C 0.032 0.30294 0.06584 0.0
C225 C 0.05173 0.35636 0.05674 0.0
C226 C 0.06385 0.4008 0.07001 0.0
C227 C 0.05664 0.39224 0.0925 0.0
H228 H 0.93136 0.03541 0.4329 0.0
C229 C 0.94236 0.06418 0.41897 0.0
H230 H 0.92148 0.11652 0.40158 0.0
H231 H 0.6671 0.98985 0.43762 0.0
H232 H 0.65644 0.95459 0.4013 0.0
H233 H 0.73982 0.97418 0.37785 0.0
H234 H 0.83422 0.0293 0.3906 0.0
C235 C 0.9121 0.08892 0.41576 0.0
C236 C 0.86213 0.07593 0.43034 0.0
C237 C 0.80727 0.04345 0.42268 0.0
C238 C 0.75917 0.03157 0.43629 0.0
C239 C 0.70496 0.99953 0.42811 0.0
C240 C 0.69829 0.97914 0.40725 0.0
C241 C 0.74522 0.99022 0.39404 0.0
C242 C 0.79917 0.022 0.40156 0.0
H243 H 0.73371 0.12365 0.4678 0.0
C244 C 0.70243 0.0828 0.47475 0.0
H245 H 0.69193 1.00004 0.48005 0.0
H246 H 0.96152 0.14254 0.44957 0.0
H247 H 0.97185 0.17584 0.48624 0.0
H248 H 0.8882 0.15178 0.5104 0.0
H249 H 0.79369 0.09478 0.49793 0.0
C250 C 0.71564 0.04063 0.4716 0.0
C251 C 0.76601 0.05205 0.45758 0.0
C252 C 0.82087 0.08404 0.46533 0.0
C253 C 0.86906 0.09662 0.4516 0.0
C254 C 0.92342 0.1305 0.45948 0.0
C255 C 0.92996 0.15012 0.48048 0.0
C256 C 0.88287 0.13667 0.49406 0.0
C257 C 0.82886 0.10405 0.48667 0.0
H258 H 0.91875 0.8717 0.72998 0.0
C259 C 0.9247 0.9097 0.73728 0.0
H260 H 0.89677 0.94387 0.76179 0.0
H261 H 0.65203 0.73948 0.78029 0.0
H262 H 0.63344 0.80721 0.76327 0.0
H263 H 0.7113 0.89555 0.74631 0.0
H264 H 0.80806 0.91653 0.74618 0.0
C265 C 0.89189 0.90597 0.75479 0.0
C266 C 0.84505 0.85115 0.76416 0.0
C267 C 0.78871 0.8398 0.76432 0.0
C268 C 0.74389 0.78941 0.7745 0.0
C269 C 0.68786 0.77823 0.77365 0.0
C270 C 0.67653 0.81643 0.7637 0.0
C271 C 0.72035 0.86611 0.75412 0.0
C272 C 0.77579 0.87774 0.75426 0.0
H273 H 0.69415 0.75739 0.81839 0.0
C274 C 0.68528 0.71469 0.81726 0.0
H275 H 0.69978 0.66113 0.7959 0.0
H276 H 0.94834 0.86035 0.76811 0.0
H277 H 0.96522 0.78891 0.78229 0.0
H278 H 0.88607 0.69755 0.79639 0.0
H279 H 0.78987 0.67792 0.79677 0.0
C280 C 0.71118 0.70382 0.79931 0.0
C281 C 0.75549 0.75077 0.78485 0.0
C282 C 0.81092 0.75959 0.78285 0.0
C283 C 0.85617 0.81085 0.77336 0.0
C284 C 0.91194 0.82105 0.7739 0.0
C285 C 0.92237 0.78055 0.78221 0.0
C286 C 0.87787 0.72927 0.79027 0.0
C287 C 0.8228 0.71878 0.79067 0.0
H288 H 0.11787 0.95393 0.07171 0.0
C289 C 0.07457 0.94458 0.07394 0.0
H290 H 0.9923 0.88762 0.08723 0.0
H291 H 0.01953 0.67741 0.0959 0.0
H292 H 0.97245 0.6577 0.06206 0.0
H293 H 0.96099 0.72963 0.04303 0.0
H294 H 0.9964 0.82173 0.05778 0.0
C295 C 0.03611 0.89834 0.08555 0.0
C296 C 0.05018 0.85828 0.09553 0.0
C297 C 0.03019 0.80504 0.08652 0.0
C298 C 0.0374 0.7638 0.09736 0.0
C299 C 0.01579 0.71052 0.08824 0.0
C300 C 0.98858 0.6986 0.06883 0.0
C301 C 0.98207 0.73908 0.05813 0.0
C302 C 0.00247 0.79172 0.06679 0.0
H303 H 0.00304 0.72014 0.15285 0.0
C304 C 0.03426 0.70817 0.14906 0.0
H305 H 0.08917 0.71188 0.12211 0.0
H306 H 0.09396 0.95632 0.1172 0.0
H307 H 0.14415 0.97722 0.15029 0.0
H308 H 0.16013 0.90704 0.16826 0.0
H309 H 0.12543 0.81531 0.15337 0.0
C310 C 0.06717 0.7311 0.12964 0.0
C311 C 0.06456 0.77592 0.11721 0.0
C312 C 0.08687 0.83006 0.12572 0.0
C313 C 0.07909 0.8711 0.11501 0.0
C314 C 0.09969 0.92396 0.12438 0.0
C315 C 0.12848 0.9365 0.14341 0.0
C316 C 0.13738 0.89695 0.15356 0.0
C317 C 0.11695 0.84432 0.14489 0.0
H318 H 0.22051 0.16009 0.4104 0.0
C319 C 0.19623 0.11814 0.4043 0.0
H320 H 0.18274 0.03604 0.40477 0.0
H321 H 0.44233 0.17468 0.43849 0.0
H322 H 0.47023 0.21974 0.40251 0.0
H323 H 0.39868 0.20492 0.37661 0.0
H324 H 0.29888 0.14525 0.38655 0.0
C325 C 0.20805 0.07862 0.41015 0.0
C326 C 0.25175 0.08957 0.42579 0.0
C327 C 0.30999 0.12451 0.41963 0.0
C328 C 0.3513 0.13242 0.43446 0.0
C329 C 0.40918 0.16721 0.42788 0.0
C330 C 0.4258 0.19327 0.40726 0.0
C331 C 0.38552 0.18498 0.39269 0.0
C332 C 0.32827 0.15084 0.39866 0.0
H333 H 0.35459 0.02534 0.46734 0.0
C334 C 0.38385 0.06521 0.47421 0.0
H335 H 0.40543 0.15021 0.47638 0.0
H336 H 0.1437 0.02164 0.44298 0.0
H337 H 0.11595 0.978 0.47919 0.0
H338 H 0.18764 0.99303 0.50506 0.0
H339 H 0.28748 0.05148 0.49483 0.0
C340 C 0.37783 0.10949 0.46992 0.0
C341 C 0.33433 0.1046 0.45521 0.0
C342 C 0.27611 0.07104 0.4616 0.0
C343 C 0.23481 0.06308 0.44679 0.0
C344 C 0.17692 0.02899 0.45354 0.0
C345 C 0.16037 0.00383 0.47431 0.0
C346 C 0.20072 0.01223 0.48887 0.0
C347 C 0.25794 0.04557 0.48272 0.0
H348 H 0.16426 0.16448 0.75072 0.0
C349 C 0.17091 0.18312 0.73446 0.0
H350 H 0.21947 0.25516 0.71403 0.0
H351 H 0.28123 0.34217 0.81591 0.0
H352 H 0.18206 0.31125 0.82245 0.0
H353 H 0.11454 0.26385 0.79415 0.0
H354 H 0.14556 0.2461 0.75934 0.0
C355 C 0.21186 0.23681 0.73038 0.0
C356 C 0.25268 0.27012 0.74696 0.0
C357 C 0.23412 0.2824 0.76687 0.0
C358 C 0.27352 0.31219 0.78281 0.0
C359 C 0.25346 0.32139 0.80297 0.0
C360 C 0.19659 0.30367 0.80698 0.0
C361 C 0.15855 0.27679 0.79108 0.0
C362 C 0.17687 0.26638 0.77121 0.0
H363 H 0.36637 0.4362 0.78859 0.0
C364 C 0.38755 0.41921 0.79771 0.0
H365 H 0.39275 0.34638 0.8033 0.0
H366 H 0.30298 0.25374 0.71061 0.0
H367 H 0.40274 0.28872 0.70361 0.0
H368 H 0.47128 0.34413 0.73061 0.0
H369 H 0.44024 0.36449 0.76492 0.0
C370 C 0.3736 0.36588 0.79452 0.0
C371 C 0.33175 0.33205 0.77841 0.0
C372 C 0.35046 0.32071 0.75841 0.0
C373 C 0.31096 0.28955 0.7427 0.0
C374 C 0.33099 0.27807 0.72301 0.0
C375 C 0.38825 0.29774 0.71878 0.0
C376 C 0.42683 0.32887 0.73399 0.0
C377 C 0.40842 0.34025 0.75362 0.0
H378 H 0.94906 0.133 0.67541 0.0
C379 C 0.96344 0.10499 0.66998 0.0
H380 H 0.95594 0.04674 0.64662 0.0
H381 H 0.71098 0.99491 0.62535 0.0
H382 H 0.68773 0.91199 0.64715 0.0
H383 H 0.76152 0.9049 0.66557 0.0
H384 H 0.85898 0.98106 0.66245 0.0
C385 C 0.94423 0.07701 0.6517 0.0
C386 C 0.9007 0.08078 0.63957 0.0
C387 C 0.84421 0.03518 0.64098 0.0
C388 C 0.80188 0.0387 0.6299 0.0
C389 C 0.74527 0.99374 0.63266 0.0
C390 C 0.73119 0.946 0.64532 0.0
C391 C 0.77271 0.94205 0.65572 0.0
C392 C 0.82855 0.98606 0.65373 0.0
H393 H 0.75654 0.02417 0.58478 0.0
C394 C 0.74706 0.0569 0.58838 0.0
H395 H 0.76403 0.12365 0.609 0.0
H396 H 0.00531 0.17466 0.63274 0.0
H397 H 0.02893 0.25772 0.61082 0.0
H398 H 0.95589 0.26366 0.59132 0.0
H399 H 0.85881 0.18662 0.5936 0.0
C400 C 0.77297 0.09105 0.60469 0.0
C401 C 0.81654 0.0872 0.61682 0.0
C402 C 0.87306 0.13287 0.61548 0.0
C403 C 0.9152 0.1296 0.62681 0.0
C404 C 0.97149 0.1753 0.62478 0.0
C405 C 0.98569 0.22314 0.61216 0.0
C406 C 0.94457 0.22647 0.60117 0.0
C407 C 0.88893 0.18195 0.60268 0.0
H408 H 0.90294 0.93032 0.01242 0.0
C409 C 0.93327 0.95978 1.00005 0.0
H410 H 0.95455 0.97885 0.96661 0.0
H411 H 0.82444 0.73953 0.93022 0.0
H412 H 0.9219 0.7688 0.92067 0.0
H413 H 0.99956 0.85531 0.93482 0.0
H414 H 0.98023 0.91352 0.95831 0.0
C415 C 0.92367 0.94976 0.97892 0.0
C416 C 0.87587 0.89589 0.9716 0.0
C417 C 0.88794 0.86124 0.95839 0.0
C418 C 0.84315 0.81038 0.95077 0.0
C419 C 0.85661 0.77792 0.93689 0.0
C420 C 0.91248 0.79427 0.93122 0.0
C421 C 0.95619 0.84302 0.93914 0.0
C422 C 0.94438 0.87622 0.95257 0.0
H423 H 0.70461 0.78393 0.93265 0.0
C424 C 0.7031 0.74419 0.93471 0.0
H425 H 0.73885 0.7023 0.95016 0.0
H426 H 0.83663 0.95523 0.99413 0.0
H427 H 0.73948 0.92241 0.00599 0.0
H428 H 0.66295 0.82862 0.99678 0.0
H429 H 0.68307 0.7679 0.97504 0.0
C430 C 0.73977 0.74153 0.94762 0.0
C431 C 0.78625 0.79323 0.95685 0.0
C432 C 0.77424 0.82657 0.97087 0.0
C433 C 0.81886 0.87897 0.97752 0.0
C434 C 0.80496 0.91364 0.98974 0.0
C435 C 0.74921 0.89553 0.99649 0.0
C436 C 0.7061 0.84286 0.99121 0.0
C437 C 0.7182 0.80862 0.97855 0.0
H438 H 0.9568 0.94305 0.32749 0.0
C439 C 0.99953 0.97468 0.33113 0.0
H440 H 0.08618 0.00076 0.32713 0.0
H441 H 0.02643 0.75191 0.30737 0.0
H442 H 0.05168 0.75687 0.34474 0.0
H443 H 0.06996 0.83807 0.36643 0.0
H444 H 0.06255 0.91461 0.35088 0.0
C445 C 0.04334 0.97064 0.32308 0.0
C446 C 0.03448 0.92302 0.3096 0.0
C447 C 0.04052 0.87942 0.31873 0.0
C448 C 0.03115 0.83318 0.30607 0.0
C449 C 0.03482 0.78891 0.31596 0.0
C450 C 0.04889 0.79101 0.33748 0.0
C451 C 0.0591 0.83668 0.3497 0.0
C452 C 0.0548 0.88038 0.34056 0.0
H453 H 0.0922 0.8048 0.26943 0.0
C454 C 0.05009 0.77529 0.26439 0.0
H455 H 0.96564 0.7577 0.26483 0.0
H456 H 0.02281 0.00144 0.28682 0.0
H457 H 0.99858 0.99722 0.24929 0.0
H458 H 0.98276 0.91732 0.22723 0.0
H459 H 0.99116 0.84122 0.24255 0.0
C460 C 0.00753 0.78349 0.27064 0.0
C461 C 0.01723 0.83149 0.2841 0.0
C462 C 0.0115 0.87532 0.27495 0.0
C463 C 0.02033 0.92125 0.28769 0.0
C464 C 0.01565 0.9651 0.27799 0.0
C465 C 0.00202 0.96334 0.25643 0.0
C466 C 0.99313 0.91837 0.24401 0.0
C467 C 0.99793 0.87486 0.25304 0.0
H468 H 0.21316 0.04421 0.66372 0.0
C469 C 0.17826 0.03113 0.65321 0.0
H470 H 0.15062 0.00856 0.62158 0.0
H471 H 0.39514 0.13345 0.57522 0.0
H472 H 0.35384 0.18468 0.56027 0.0
H473 H 0.26024 0.16584 0.57413 0.0
H474 H 0.2072 0.09549 0.60288 0.0
C475 C 0.18451 0.02015 0.63244 0.0
C476 C 0.2396 0.02896 0.62329 0.0
C477 C 0.27002 0.07032 0.60643 0.0
C478 C 0.32427 0.08164 0.59857 0.0
C479 C 0.35385 0.12328 0.58181 0.0
C480 C 0.33066 0.15303 0.57309 0.0
C481 C 0.27794 0.14239 0.58089 0.0
C482 C 0.24787 0.10173 0.59739 0.0
H483 H 0.37463 0.00251 0.57657 0.0
C484 C 0.41281 0.03817 0.58217 0.0
H485 H 0.44034 0.09019 0.6101 0.0
H486 H 0.18884 0.94001 0.65287 0.0
H487 H 0.23019 0.88851 0.66744 0.0
H488 H 0.32624 0.91166 0.65507 0.0
H489 H 0.38128 0.98614 0.62783 0.0
C490 C 0.40564 0.06523 0.59994 0.0
C491 C 0.3482 0.05198 0.60767 0.0
C492 C 0.3173 0.00957 0.62405 0.0
C493 C 0.26253 0.99732 0.63161 0.0
C494 C 0.23148 0.95268 0.64716 0.0
C495 C 0.25452 0.92238 0.65552 0.0
C496 C 0.30855 0.93534 0.64852 0.0
C497 C 0.33971 0.97825 0.63292 0.0
H498 H 0.1355 0.23672 0.98609 0.0
C499 C 0.14886 0.20906 0.99262 0.0
H500 H 0.21608 0.19368 0.99439 0.0
H501 H 0.28303 0.36947 0.90776 0.0
H502 H 0.20233 0.29286 0.89168 0.0
H503 H 0.14022 0.20415 0.91258 0.0
H504 H 0.15788 0.19197 0.94982 0.0
C505 C 0.20121 0.21951 0.98732 0.0
C506 C 0.24208 0.27024 0.97371 0.0
C507 C 0.2325 0.27576 0.95164 0.0
C508 C 0.26992 0.3259 0.93924 0.0
C509 C 0.25744 0.33149 0.91765 0.0
C510 C 0.21098 0.28795 0.90825 0.0
C511 C 0.1759 0.2381 0.92004 0.0
C512 C 0.18632 0.23182 0.94147 0.0
H513 H 0.38688 0.37578 0.91576 0.0
C514 C 0.39204 0.41688 0.91799 0.0
H515 H 0.36973 0.46124 0.94119 0.0
H516 H 0.27304 0.27335 0.01549 0.0
H517 H 0.35635 0.34808 0.03101 0.0
H518 H 0.42382 0.43287 0.00896 0.0
H519 H 0.4081 0.44373 0.97134 0.0
C520 C 0.35961 0.42057 0.93532 0.0
C521 C 0.31842 0.36938 0.9486 0.0
C522 C 0.32862 0.36337 0.97051 0.0
C523 C 0.29029 0.31392 0.9831 0.0
C524 C 0.30108 0.30958 0.00507 0.0
C525 C 0.34874 0.35222 0.01421 0.0
C526 C 0.38668 0.39999 0.00181 0.0
C527 C 0.37702 0.40572 0.98022 0.0
H528 H 0.10313 0.27515 0.32256 0.0
C529 C 0.06348 0.23589 0.32135 0.0
H530 H 0.98553 0.19427 0.30646 0.0
H531 H 0.06614 0.46499 0.29598 0.0
H532 H 0.05574 0.46225 0.33524 0.0
H533 H 0.0325 0.37692 0.35675 0.0
H534 H 0.02092 0.29443 0.33913 0.0
C535 C 0.02469 0.23361 0.30828 0.0
C536 C 0.03431 0.28375 0.29537 0.0
C537 C 0.0382 0.3307 0.30595 0.0
C538 C 0.04834 0.37874 0.29349 0.0
C539 C 0.05574 0.42638 0.30453 0.0
C540 C 0.05031 0.42557 0.3271 0.0
C541 C 0.03748 0.37763 0.33921 0.0
C542 C 0.03139 0.33065 0.32886 0.0
H543 H 0.97658 0.41092 0.26647 0.0
C544 C 0.01624 0.44147 0.25813 0.0
H545 H 0.09499 0.44888 0.24604 0.0
H546 H 0.0289 0.20094 0.27 0.0
H547 H 0.03476 0.20208 0.23059 0.0
H548 H 0.04767 0.28363 0.20901 0.0
H549 H 0.05486 0.3645 0.22665 0.0
C550 C 0.05845 0.42739 0.25739 0.0
C551 C 0.05124 0.37851 0.27046 0.0
C552 C 0.04663 0.33137 0.25989 0.0
C553 C 0.03836 0.28402 0.27235 0.0
C554 C 0.0345 0.23774 0.26134 0.0
C555 C 0.03789 0.23787 0.23873 0.0
C556 C 0.04517 0.28377 0.22657 0.0
C557 C 0.04942 0.33003 0.23692 0.0
loop_
_geom_bond_atom_site_label_1
_geom_bond_atom_site_label_2
_geom_bond_distance
_geom_bond_site_symmetry_2
_ccdc_geom_bond_type
C0 O1 1.160 . S
C0 O7 1.185 1_565 S
O1 C0 1.160 . S
O2 Zn3 1.899 . S
O2 C10 1.284 . S
Zn3 O2 1.899 . S
Zn3 O4 2.032 . S
Zn3 O7 2.086 . S
Zn3 O12 1.977 . S
O4 Zn3 2.032 . S
O4 C8 1.278 1_455 S
C5 O6 1.203 . S
C5 O12 1.267 . S
O6 C5 1.203 . S
O7 C0 1.185 1_545 S
O7 Zn3 2.086 . S
C8 O4 1.278 1_655 S
C8 O9 1.211 1_654 S
O9 C8 1.211 1_456 S
C10 O2 1.284 . S
C10 O11 1.273 . S
O11 C10 1.273 . S
O12 Zn3 1.977 . S
O12 C5 1.267 . S
C13 O14 1.160 . S
C13 O20 1.185 . S
O14 C13 1.160 . S
O15 Zn16 1.899 . S
O15 C23 1.284 . S
Zn16 O15 1.899 . S
Zn16 O17 2.032 1_455 S
Zn16 O20 2.086 . S
Zn16 O25 1.977 . S
O17 Zn16 2.032 1_655 S
O17 C21 1.278 . S
C18 O19 1.203 . S
C18 O25 1.267 . S
O19 C18 1.203 . S
O20 C13 1.185 . S
O20 Zn16 2.086 . S
C21 O17 1.278 . S
C21 O22 1.211 . S
O22 C21 1.211 . S
C23 O15 1.284 . S
C23 O24 1.273 1_445 S
O24 C23 1.273 1_665 S
O25 Zn16 1.977 . S
O25 C18 1.267 . S
C26 O27 1.160 . S
C26 O33 1.180 1_545 S
O27 C26 1.160 . S
O28 Zn29 1.899 . S
O28 C36 1.284 1_455 S
Zn29 O28 1.899 . S
Zn29 O30 2.032 . S
Zn29 O33 2.070 1_545 S
Zn29 O38 1.977 1_545 S
O30 Zn29 2.032 . S
O30 C34 1.278 . S
C31 O32 1.203 . S
C31 O38 1.267 1_655 S
O32 C31 1.203 . S
O33 C26 1.180 1_565 S
O33 Zn29 2.070 1_565 S
C34 O30 1.278 . S
C34 O35 1.211 . S
O35 C34 1.211 . S
C36 O28 1.284 1_655 S
C36 O37 1.273 1_655 S
O37 C36 1.273 1_455 S
O38 Zn29 1.977 1_565 S
O38 C31 1.267 1_455 S
C39 C40 1.443 . S
C39 N43 1.376 . S
C39 C77 1.389 . S
C40 C39 1.443 . S
C40 C41 1.340 . S
C40 H80 0.951 . S
C41 C40 1.340 . S
C41 C42 1.439 . S
C41 H81 0.950 . S
C42 C41 1.439 . S
C42 N43 1.374 . S
C42 C76 1.395 . S
N43 C39 1.376 . S
N43 C42 1.374 . S
N43 Co44 2.008 . S
Co44 N43 2.008 . S
Co44 N45 1.995 . S
Co44 N50 2.008 1_455 S
Co44 N55 1.995 1_455 S
Co44 N60 2.282 . S
Co44 N66 2.282 . S
N45 Co44 1.995 . S
N45 C46 1.376 . S
N45 C49 1.383 . S
C46 N45 1.376 . S
C46 C47 1.446 . S
C46 C76 1.391 . S
C47 C46 1.446 . S
C47 C48 1.339 . S
C47 H82 0.949 . S
C48 C47 1.339 . S
C48 C49 1.439 . S
C48 H83 0.950 . S
C49 N45 1.383 . S
C49 C48 1.439 . S
C49 C78 1.392 . S
N50 Co44 2.008 1_655 S
N50 C51 1.376 . S
N50 C54 1.374 . S
C51 N50 1.376 . S
C51 C52 1.443 . S
C51 C78 1.389 1_655 S
C52 C51 1.443 . S
C52 C53 1.340 . S
C52 H84 0.951 . S
C53 C52 1.340 . S
C53 C54 1.439 . S
C53 H85 0.950 . S
C54 N50 1.374 . S
C54 C53 1.439 . S
C54 C79 1.395 . S
N55 Co44 1.995 1_655 S
N55 C56 1.376 . S
N55 C59 1.383 . S
C56 N55 1.376 . S
C56 C57 1.446 . S
C56 C79 1.391 . S
C57 C56 1.446 . S
C57 C58 1.339 . S
C57 H86 0.949 . S
C58 C57 1.339 . S
C58 C59 1.439 . S
C58 H87 0.950 . S
C59 N55 1.383 . S
C59 C58 1.439 . S
C59 C77 1.392 1_655 S
N60 Co44 2.282 . S
N60 C63 1.332 1_455 S
N60 C65 1.332 . S
C61 C62 1.386 1_455 S
C61 C64 1.388 . S
C62 C61 1.386 1_655 S
C62 C63 1.382 . S
C62 H88 0.950 . S
C63 N60 1.332 1_655 S
C63 C62 1.382 . S
C63 H74 0.952 . S
C64 C61 1.388 . S
C64 C65 1.382 . S
C64 H89 0.950 . S
C65 N60 1.332 . S
C65 C64 1.382 . S
C65 H75 0.948 . S
N66 Co44 2.282 . S
N66 C70 1.332 . S
N66 C71 1.332 1_455 S
C67 C68 1.388 1_655 S
C67 C71 1.382 . S
C67 H90 0.950 . S
C68 C67 1.388 1_455 S
C68 C69 1.386 . S
C69 C68 1.386 . S
C69 C70 1.382 . S
C69 H91 0.950 . S
C70 N66 1.332 . S
C70 C69 1.382 . S
C70 H72 0.952 . S
C71 N66 1.332 1_655 S
C71 C67 1.382 . S
C71 H73 0.948 . S
H72 C70 0.952 . S
H73 C71 0.948 . S
H74 C63 0.952 . S
H75 C65 0.948 . S
C76 C42 1.395 . S
C76 C46 1.391 . S
C77 C39 1.389 . S
C77 C59 1.392 1_455 S
C78 C49 1.392 . S
C78 C51 1.389 1_455 S
C79 C54 1.395 . S
C79 C56 1.391 . S
H80 C40 0.951 . S
H81 C41 0.950 . S
H82 C47 0.949 . S
H83 C48 0.950 . S
H84 C52 0.951 . S
H85 C53 0.950 . S
H86 C57 0.949 . S
H87 C58 0.950 . S
H88 C62 0.950 . S
H89 C64 0.950 . S
H90 C67 0.950 . S
H91 C69 0.950 . S
C92 C93 1.443 1_545 S
C92 N96 1.376 . S
C92 C130 1.389 . S
C93 C92 1.443 1_565 S
C93 C94 1.340 . S
C93 H133 0.951 . S
C94 C93 1.340 . S
C94 C95 1.439 . S
C94 H134 0.950 . S
C95 C94 1.439 . S
C95 N96 1.374 1_565 S
C95 C129 1.395 . S
N96 C92 1.376 . S
N96 C95 1.374 1_545 S
N96 Co97 2.008 . S
Co97 N96 2.008 . S
Co97 N98 1.995 . S
Co97 N103 2.008 . S
Co97 N108 1.995 . S
Co97 N113 2.282 . S
Co97 N119 2.282 . S
N98 Co97 1.995 . S
N98 C99 1.376 1_545 S
N98 C102 1.383 . S
C99 N98 1.376 1_565 S
C99 C100 1.446 . S
C99 C129 1.391 . S
C100 C99 1.446 . S
C100 C101 1.339 . S
C100 H135 0.949 . S
C101 C100 1.339 . S
C101 C102 1.439 1_565 S
C101 H136 0.950 . S
C102 N98 1.383 . S
C102 C101 1.439 1_545 S
C102 C131 1.392 . S
N103 Co97 2.008 . S
N103 C104 1.376 . S
N103 C107 1.374 . S
C104 N103 1.376 . S
C104 C105 1.443 . S
C104 C131 1.389 . S
C105 C104 1.443 . S
C105 C106 1.340 . S
C105 H137 0.951 . S
C106 C105 1.340 . S
C106 C107 1.439 . S
C106 H138 0.950 . S
C107 N103 1.374 . S
C107 C106 1.439 . S
C107 C132 1.395 . S
N108 Co97 1.995 . S
N108 C109 1.376 . S
N108 C112 1.383 . S
C109 N108 1.376 . S
C109 C110 1.446 . S
C109 C132 1.391 . S
C110 C109 1.446 . S
C110 C111 1.339 . S
C110 H139 0.949 . S
C111 C110 1.339 . S
C111 C112 1.439 . S
C111 H140 0.950 . S
C112 N108 1.383 . S
C112 C111 1.439 . S
C112 C130 1.392 . S
N113 Co97 2.282 . S
N113 C116 1.332 . S
N113 C118 1.332 . S
C114 C115 1.386 . S
C114 C117 1.388 . S
C115 C114 1.386 . S
C115 C116 1.382 . S
C115 H141 0.950 . S
C116 N113 1.332 . S
C116 C115 1.382 . S
C116 H127 0.952 . S
C117 C114 1.388 . S
C117 C118 1.382 . S
C117 H142 0.950 1_545 S
C118 N113 1.332 . S
C118 C117 1.382 . S
C118 H128 0.948 1_545 S
N119 Co97 2.282 . S
N119 C123 1.332 . S
N119 C124 1.332 . S
C120 C121 1.388 . S
C120 C124 1.382 . S
C120 H143 0.950 . S
C121 C120 1.388 . S
C121 C122 1.386 . S
C122 C121 1.386 . S
C122 C123 1.382 . S
C122 H144 0.950 . S
C123 N119 1.332 . S
C123 C122 1.382 . S
C123 H125 0.952 . S
C124 N119 1.332 . S
C124 C120 1.382 . S
C124 H126 0.948 . S
H125 C123 0.952 . S
H126 C124 0.948 . S
H127 C116 0.952 . S
H128 C118 0.948 1_565 S
C129 C95 1.395 . S
C129 C99 1.391 . S
C130 C92 1.389 . S
C130 C112 1.392 . S
C131 C102 1.392 . S
C131 C104 1.389 . S
C132 C107 1.395 . S
C132 C109 1.391 . S
H133 C93 0.951 . S
H134 C94 0.950 . S
H135 C100 0.949 . S
H136 C101 0.950 . S
H137 C105 0.951 . S
H138 C106 0.950 . S
H139 C110 0.949 . S
H140 C111 0.950 . S
H141 C115 0.950 . S
H142 C117 0.950 1_565 S
H143 C120 0.950 . S
H144 C122 0.950 . S
C145 C146 1.443 . S
C145 N149 1.376 . S
C145 C183 1.389 . S
C146 C145 1.443 . S
C146 C147 1.340 . S
C146 H186 0.951 . S
C147 C146 1.340 . S
C147 C148 1.439 . S
C147 H187 0.950 . S
C148 C147 1.439 . S
C148 N149 1.374 . S
C148 C182 1.395 . S
N149 C145 1.376 . S
N149 C148 1.374 . S
N149 Co150 2.008 . S
Co150 N149 2.008 . S
Co150 N151 1.995 . S
Co150 N156 2.008 . S
Co150 N161 1.995 . S
Co150 N166 2.282 . S
Co150 N172 2.282 . S
N151 Co150 1.995 . S
N151 C152 1.376 . S
N151 C155 1.383 . S
C152 N151 1.376 . S
C152 C153 1.446 . S
C152 C182 1.391 . S
C153 C152 1.446 . S
C153 C154 1.339 . S
C153 H188 0.949 . S
C154 C153 1.339 . S
C154 C155 1.439 . S
C154 H189 0.950 . S
C155 N151 1.383 . S
C155 C154 1.439 . S
C155 C184 1.392 . S
N156 Co150 2.008 . S
N156 C157 1.376 . S
N156 C160 1.374 . S
C157 N156 1.376 . S
C157 C158 1.443 . S
C157 C184 1.389 . S
C158 C157 1.443 . S
C158 C159 1.340 . S
C158 H190 0.951 . S
C159 C158 1.340 . S
C159 C160 1.439 . S
C159 H191 0.950 . S
C160 N156 1.374 . S
C160 C159 1.439 . S
C160 C185 1.395 . S
N161 Co150 1.995 . S
N161 C162 1.376 . S
N161 C165 1.383 . S
C162 N161 1.376 . S
C162 C163 1.446 . S
C162 C185 1.391 . S
C163 C162 1.446 . S
C163 C164 1.339 . S
C163 H192 0.949 . S
C164 C163 1.339 . S
C164 C165 1.439 . S
C164 H193 0.950 . S
C165 N161 1.383 . S
C165 C164 1.439 . S
C165 C183 1.392 . S
N166 Co150 2.282 . S
N166 C169 1.332 . S
N166 C171 1.332 . S
C167 C168 1.386 . S
C167 C170 1.388 . S
C168 C167 1.386 . S
C168 C169 1.382 . S
C168 H194 0.950 . S
C169 N166 1.332 . S
C169 C168 1.382 . S
C169 H180 0.952 . S
C170 C167 1.388 . S
C170 C171 1.382 . S
C170 H195 0.950 . S
C171 N166 1.332 . S
C171 C170 1.382 . S
C171 H181 0.948 . S
N172 Co150 2.282 . S
N172 C176 1.332 . S
N172 C177 1.332 . S
C173 C174 1.388 . S
C173 C177 1.382 . S
C173 H196 0.950 . S
C174 C173 1.388 . S
C174 C175 1.386 . S
C175 C174 1.386 . S
C175 C176 1.382 . S
C175 H197 0.950 . S
C176 N172 1.332 . S
C176 C175 1.382 . S
C176 H178 0.952 . S
C177 N172 1.332 . S
C177 C173 1.382 . S
C177 H179 0.948 . S
H178 C176 0.952 . S
H179 C177 0.948 . S
H180 C169 0.952 . S
H181 C171 0.948 . S
C182 C148 1.395 . S
C182 C152 1.391 . S
C183 C145 1.389 . S
C183 C165 1.392 . S
C184 C155 1.392 . S
C184 C157 1.389 . S
C185 C160 1.395 . S
C185 C162 1.391 . S
H186 C146 0.951 . S
H187 C147 0.950 . S
H188 C153 0.949 . S
H189 C154 0.950 . S
H190 C158 0.951 . S
H191 C159 0.950 . S
H192 C163 0.949 . S
H193 C164 0.950 . S
H194 C168 0.950 . S
H195 C170 0.950 . S
H196 C173 0.950 . S
H197 C175 0.950 . S
H198 C199 0.951 . S
C199 H198 0.951 . S
C199 C205 1.265 . S
H200 C205 0.950 1_655 S
H201 C209 0.949 . S
H202 C210 0.950 . S
H203 C211 0.951 . S
H204 C212 0.951 . S
C205 C199 1.265 . S
C205 H200 0.950 1_455 S
C205 C206 1.478 . S
C206 C205 1.478 . S
C206 C207 1.397 . S
C206 C223 1.394 . S
C207 C206 1.397 . S
C207 C208 1.438 . S
C207 C212 1.429 1_455 S
C208 C207 1.438 . S
C208 C209 1.428 . S
C208 C221 1.394 . S
C209 H201 0.949 . S
C209 C208 1.428 . S
C209 C210 1.345 1_455 S
C210 H202 0.950 . S
C210 C209 1.345 1_655 S
C210 C211 1.424 . S
C211 H203 0.951 . S
C211 C210 1.424 . S
C211 C212 1.347 . S
C212 H204 0.951 . S
C212 C207 1.429 1_655 S
C212 C211 1.347 . S
H213 C214 0.951 1_655 S
C214 H213 0.951 1_455 S
C214 C220 1.265 . S
H215 C220 0.950 . S
H216 C224 0.949 . S
H217 C225 0.950 . S
H218 C226 0.951 . S
H219 C227 0.951 . S
C220 C214 1.265 . S
C220 H215 0.950 . S
C220 C221 1.478 . S
C221 C208 1.394 . S
C221 C220 1.478 . S
C221 C222 1.397 . S
C222 C221 1.397 . S
C222 C223 1.438 . S
C222 C227 1.429 . S
C223 C206 1.394 . S
C223 C222 1.438 . S
C223 C224 1.428 . S
C224 H216 0.949 . S
C224 C223 1.428 . S
C224 C225 1.345 . S
C225 H217 0.950 . S
C225 C224 1.345 . S
C225 C226 1.424 . S
C226 H218 0.951 . S
C226 C225 1.424 . S
C226 C227 1.347 . S
C227 H219 0.951 . S
C227 C222 1.429 . S
C227 C226 1.347 . S
H228 C229 0.951 . S
C229 H228 0.951 . S
C229 C235 1.265 . S
H230 C235 0.950 . S
H231 C239 0.949 . S
H232 C240 0.950 . S
H233 C241 0.951 . S
H234 C242 0.951 . S
C235 C229 1.265 . S
C235 H230 0.950 . S
C235 C236 1.478 . S
C236 C235 1.478 . S
C236 C237 1.397 . S
C236 C253 1.394 . S
C237 C236 1.397 . S
C237 C238 1.438 . S
C237 C242 1.429 1_545 S
C238 C237 1.438 . S
C238 C239 1.428 1_545 S
C238 C251 1.394 . S
C239 H231 0.949 . S
C239 C238 1.428 1_565 S
C239 C240 1.345 . S
C240 H232 0.950 . S
C240 C239 1.345 . S
C240 C241 1.424 . S
C241 H233 0.951 . S
C241 C240 1.424 . S
C241 C242 1.347 . S
C242 H234 0.951 . S
C242 C237 1.429 1_565 S
C242 C241 1.347 . S
H243 C244 0.951 . S
C244 H243 0.951 . S
C244 C250 1.265 . S
H245 C250 0.950 . S
H246 C254 0.949 . S
H247 C255 0.950 . S
H248 C256 0.951 . S
H249 C257 0.951 . S
C250 C244 1.265 . S
C250 H245 0.950 . S
C250 C251 1.478 . S
C251 C238 1.394 . S
C251 C250 1.478 . S
C251 C252 1.397 . S
C252 C251 1.397 . S
C252 C253 1.438 . S
C252 C257 1.429 . S
C253 C236 1.394 . S
C253 C252 1.438 . S
C253 C254 1.428 . S
C254 H246 0.949 . S
C254 C253 1.428 . S
C254 C255 1.345 . S
C255 H247 0.950 . S
C255 C254 1.345 . S
C255 C256 1.424 . S
C256 H248 0.951 . S
C256 C255 1.424 . S
C256 C257 1.347 . S
C257 H249 0.951 . S
C257 C252 1.429 . S
C257 C256 1.347 . S
H258 C259 0.951 . S
C259 H258 0.951 . S
C259 C265 1.265 . S
H260 C265 0.950 . S
H261 C269 0.949 . S
H262 C270 0.950 . S
H263 C271 0.951 . S
H264 C272 0.951 . S
C265 C259 1.265 . S
C265 H260 0.950 . S
C265 C266 1.478 . S
C266 C265 1.478 . S
C266 C267 1.397 . S
C266 C283 1.394 . S
C267 C266 1.397 . S
C267 C268 1.438 . S
C267 C272 1.429 . S
C268 C267 1.438 . S
C268 C269 1.428 . S
C268 C281 1.394 . S
C269 H261 0.949 . S
C269 C268 1.428 . S
C269 C270 1.345 . S
C270 H262 0.950 . S
C270 C269 1.345 . S
C270 C271 1.424 . S
C271 H263 0.951 . S
C271 C270 1.424 . S
C271 C272 1.347 . S
C272 H264 0.951 . S
C272 C267 1.429 . S
C272 C271 1.347 . S
H273 C274 0.951 . S
C274 H273 0.951 . S
C274 C280 1.265 . S
H275 C280 0.950 . S
H276 C284 0.949 . S
H277 C285 0.950 . S
H278 C286 0.951 . S
H279 C287 0.951 . S
C280 C274 1.265 . S
C280 H275 0.950 . S
C280 C281 1.478 . S
C281 C268 1.394 . S
C281 C280 1.478 . S
C281 C282 1.397 . S
C282 C281 1.397 . S
C282 C283 1.438 . S
C282 C287 1.429 . S
C283 C266 1.394 . S
C283 C282 1.438 . S
C283 C284 1.428 . S
C284 H276 0.949 . S
C284 C283 1.428 . S
C284 C285 1.345 . S
C285 H277 0.950 . S
C285 C284 1.345 . S
C285 C286 1.424 . S
C286 H278 0.951 . S
C286 C285 1.424 . S
C286 C287 1.347 . S
C287 H279 0.951 . S
C287 C282 1.429 . S
C287 C286 1.347 . S
H288 C289 0.951 . S
C289 H288 0.951 . S
C289 C295 1.265 . S
H290 C295 0.950 . S
H291 C299 0.949 . S
H292 C300 0.950 . S
H293 C301 0.951 . S
H294 C302 0.951 . S
C295 C289 1.265 . S
C295 H290 0.950 . S
C295 C296 1.478 . S
C296 C295 1.478 . S
C296 C297 1.397 . S
C296 C313 1.394 . S
C297 C296 1.397 . S
C297 C298 1.438 . S
C297 C302 1.429 1_455 S
C298 C297 1.438 . S
C298 C299 1.428 1_455 S
C298 C311 1.394 . S
C299 H291 0.949 . S
C299 C298 1.428 1_655 S
C299 C300 1.345 . S
C300 H292 0.950 . S
C300 C299 1.345 . S
C300 C301 1.424 . S
C301 H293 0.951 . S
C301 C300 1.424 . S
C301 C302 1.347 . S
C302 H294 0.951 . S
C302 C297 1.429 1_655 S
C302 C301 1.347 . S
H303 C304 0.951 1_655 S
C304 H303 0.951 1_455 S
C304 C310 1.265 . S
H305 C310 0.950 . S
H306 C314 0.949 . S
H307 C315 0.950 . S
H308 C316 0.951 . S
H309 C317 0.951 . S
C310 C304 1.265 . S
C310 H305 0.950 . S
C310 C311 1.478 . S
C311 C298 1.394 . S
C311 C310 1.478 . S
C311 C312 1.397 . S
C312 C311 1.397 . S
C312 C313 1.438 . S
C312 C317 1.429 . S
C313 C296 1.394 . S
C313 C312 1.438 . S
C313 C314 1.428 . S
C314 H306 0.949 . S
C314 C313 1.428 . S
C314 C315 1.345 . S
C315 H307 0.950 . S
C315 C314 1.345 . S
C315 C316 1.424 . S
C316 H308 0.951 . S
C316 C315 1.424 . S
C316 C317 1.347 . S
C317 H309 0.951 . S
C317 C312 1.429 . S
C317 C316 1.347 . S
H318 C319 0.951 . S
C319 H318 0.951 . S
C319 C325 1.265 . S
H320 C325 0.950 . S
H321 C329 0.949 . S
H322 C330 0.950 . S
H323 C331 0.951 . S
H324 C332 0.951 . S
C325 C319 1.265 . S
C325 H320 0.950 . S
C325 C326 1.478 . S
C326 C325 1.478 . S
C326 C327 1.397 . S
C326 C343 1.394 . S
C327 C326 1.397 . S
C327 C328 1.438 . S
C327 C332 1.429 . S
C328 C327 1.438 . S
C328 C329 1.428 . S
C328 C341 1.394 . S
C329 H321 0.949 . S
C329 C328 1.428 . S
C329 C330 1.345 . S
C330 H322 0.950 . S
C330 C329 1.345 . S
C330 C331 1.424 . S
C331 H323 0.951 . S
C331 C330 1.424 . S
C331 C332 1.347 . S
C332 H324 0.951 . S
C332 C327 1.429 . S
C332 C331 1.347 . S
H333 C334 0.951 . S
C334 H333 0.951 . S
C334 C340 1.265 . S
H335 C340 0.950 . S
H336 C344 0.949 . S
H337 C345 0.950 . S
H338 C346 0.951 . S
H339 C347 0.951 . S
C340 C334 1.265 . S
C340 H335 0.950 . S
C340 C341 1.478 . S
C341 C328 1.394 . S
C341 C340 1.478 . S
C341 C342 1.397 . S
C342 C341 1.397 . S
C342 C343 1.438 . S
C342 C347 1.429 . S
C343 C326 1.394 . S
C343 C342 1.438 . S
C343 C344 1.428 . S
C344 H336 0.949 . S
C344 C343 1.428 . S
C344 C345 1.345 1_545 S
C345 H337 0.950 . S
C345 C344 1.345 1_565 S
C345 C346 1.424 . S
C346 H338 0.951 . S
C346 C345 1.424 . S
C346 C347 1.347 1_565 S
C347 H339 0.951 . S
C347 C342 1.429 . S
C347 C346 1.347 1_545 S
H348 C349 0.951 . S
C349 H348 0.951 . S
C349 C355 1.265 . S
H350 C355 0.950 . S
H351 C359 0.949 . S
H352 C360 0.950 . S
H353 C361 0.951 . S
H354 C362 0.951 . S
C355 C349 1.265 . S
C355 H350 0.950 . S
C355 C356 1.478 . S
C356 C355 1.478 . S
C356 C357 1.397 . S
C356 C373 1.394 . S
C357 C356 1.397 . S
C357 C358 1.438 . S
C357 C362 1.429 . S
C358 C357 1.438 . S
C358 C359 1.428 . S
C358 C371 1.394 . S
C359 H351 0.949 . S
C359 C358 1.428 . S
C359 C360 1.345 . S
C360 H352 0.950 . S
C360 C359 1.345 . S
C360 C361 1.424 . S
C361 H353 0.951 . S
C361 C360 1.424 . S
C361 C362 1.347 . S
C362 H354 0.951 . S
C362 C357 1.429 . S
C362 C361 1.347 . S
H363 C364 0.951 . S
C364 H363 0.951 . S
C364 C370 1.265 . S
H365 C370 0.950 . S
H366 C374 0.949 . S
H367 C375 0.950 . S
H368 C376 0.951 . S
H369 C377 0.951 . S
C370 C364 1.265 . S
C370 H365 0.950 . S
C370 C371 1.478 . S
C371 C358 1.394 . S
C371 C370 1.478 . S
C371 C372 1.397 . S
C372 C371 1.397 . S
C372 C373 1.438 . S
C372 C377 1.429 . S
C373 C356 1.394 . S
C373 C372 1.438 . S
C373 C374 1.428 . S
C374 H366 0.949 . S
C374 C373 1.428 . S
C374 C375 1.345 . S
C375 H367 0.950 . S
C375 C374 1.345 . S
C375 C376 1.424 . S
C376 H368 0.951 . S
C376 C375 1.424 . S
C376 C377 1.347 . S
C377 H369 0.951 . S
C377 C372 1.429 . S
C377 C376 1.347 . S
H378 C379 0.951 . S
C379 H378 0.951 . S
C379 C385 1.265 . S
H380 C385 0.950 . S
H381 C389 0.949 . S
H382 C390 0.950 . S
H383 C391 0.951 . S
H384 C392 0.951 . S
C385 C379 1.265 . S
C385 H380 0.950 . S
C385 C386 1.478 . S
C386 C385 1.478 . S
C386 C387 1.397 . S
C386 C403 1.394 . S
C387 C386 1.397 . S
C387 C388 1.438 . S
C387 C392 1.429 1_545 S
C388 C387 1.438 . S
C388 C389 1.428 1_545 S
C388 C401 1.394 . S
C389 H381 0.949 . S
C389 C388 1.428 1_565 S
C389 C390 1.345 . S
C390 H382 0.950 . S
C390 C389 1.345 . S
C390 C391 1.424 . S
C391 H383 0.951 . S
C391 C390 1.424 . S
C391 C392 1.347 . S
C392 H384 0.951 . S
C392 C387 1.429 1_565 S
C392 C391 1.347 . S
H393 C394 0.951 . S
C394 H393 0.951 . S
C394 C400 1.265 . S
H395 C400 0.950 . S
H396 C404 0.949 . S
H397 C405 0.950 . S
H398 C406 0.951 . S
H399 C407 0.951 . S
C400 C394 1.265 . S
C400 H395 0.950 . S
C400 C401 1.478 . S
C401 C388 1.394 . S
C401 C400 1.478 . S
C401 C402 1.397 . S
C402 C401 1.397 . S
C402 C403 1.438 . S
C402 C407 1.429 . S
C403 C386 1.394 . S
C403 C402 1.438 . S
C403 C404 1.428 . S
C404 H396 0.949 . S
C404 C403 1.428 . S
C404 C405 1.345 . S
C405 H397 0.950 . S
C405 C404 1.345 . S
C405 C406 1.424 . S
C406 H398 0.951 . S
C406 C405 1.424 . S
C406 C407 1.347 . S
C407 H399 0.951 . S
C407 C402 1.429 . S
C407 C406 1.347 . S
H408 C409 0.937 1_554 S
C409 H408 0.937 1_556 S
C409 C415 1.289 . S
H410 C415 0.950 . S
H411 C419 0.949 . S
H412 C420 0.950 . S
H413 C421 0.951 . S
H414 C422 0.951 . S
C415 C409 1.289 . S
C415 H410 0.950 . S
C415 C416 1.478 . S
C416 C415 1.478 . S
C416 C417 1.397 . S
C416 C433 1.394 . S
C417 C416 1.397 . S
C417 C418 1.438 . S
C417 C422 1.429 . S
C418 C417 1.438 . S
C418 C419 1.428 . S
C418 C431 1.394 . S
C419 H411 0.949 . S
C419 C418 1.428 . S
C419 C420 1.345 . S
C420 H412 0.950 . S
C420 C419 1.345 . S
C420 C421 1.424 . S
C421 H413 0.951 . S
C421 C420 1.424 . S
C421 C422 1.347 . S
C422 H414 0.951 . S
C422 C417 1.429 . S
C422 C421 1.347 . S
H423 C424 0.951 . S
C424 H423 0.951 . S
C424 C430 1.265 . S
H425 C430 0.950 . S
H426 C434 0.953 . S
H427 C435 0.950 . S
H428 C436 0.947 1_554 S
H429 C437 0.951 . S
C430 C424 1.265 . S
C430 H425 0.950 . S
C430 C431 1.478 . S
C431 C418 1.394 . S
C431 C430 1.478 . S
C431 C432 1.397 . S
C432 C431 1.397 . S
C432 C433 1.438 . S
C432 C437 1.429 . S
C433 C416 1.394 . S
C433 C432 1.438 . S
C433 C434 1.421 1_556 S
C434 H426 0.953 . S
C434 C433 1.421 1_554 S
C434 C435 1.348 . S
C435 H427 0.950 . S
C435 C434 1.348 . S
C435 C436 1.419 1_554 S
C436 H428 0.947 1_556 S
C436 C435 1.419 1_556 S
C436 C437 1.356 . S
C437 H429 0.951 . S
C437 C432 1.429 . S
C437 C436 1.356 . S
H438 C439 0.951 1_655 S
C439 H438 0.951 1_455 S
C439 C445 1.265 . S
H440 C445 0.950 . S
H441 C449 0.949 1_655 S
H442 C450 0.950 . S
H443 C451 0.951 . S
H444 C452 0.951 . S
C445 C439 1.265 . S
C445 H440 0.950 . S
C445 C446 1.478 . S
C446 C445 1.478 . S
C446 C447 1.397 . S
C446 C463 1.394 . S
C447 C446 1.397 . S
C447 C448 1.438 . S
C447 C452 1.429 . S
C448 C447 1.438 . S
C448 C449 1.428 . S
C448 C461 1.394 . S
C449 H441 0.949 1_455 S
C449 C448 1.428 . S
C449 C450 1.345 . S
C450 H442 0.950 . S
C450 C449 1.345 . S
C450 C451 1.424 . S
C451 H443 0.951 . S
C451 C450 1.424 . S
C451 C452 1.347 . S
C452 H444 0.951 . S
C452 C447 1.429 . S
C452 C451 1.347 . S
H453 C454 0.951 . S
C454 H453 0.951 . S
C454 C460 1.265 1_455 S
H455 C460 0.950 . S
H456 C464 0.949 . S
H457 C465 0.950 1_545 S
H458 C466 0.951 . S
H459 C467 0.951 . S
C460 C454 1.265 1_655 S
C460 H455 0.950 . S
C460 C461 1.478 1_655 S
C461 C448 1.394 . S
C461 C460 1.478 1_455 S
C461 C462 1.397 . S
C462 C461 1.397 . S
C462 C463 1.438 . S
C462 C467 1.429 . S
C463 C446 1.394 . S
C463 C462 1.438 . S
C463 C464 1.428 . S
C464 H456 0.949 . S
C464 C463 1.428 . S
C464 C465 1.345 . S
C465 H457 0.950 1_565 S
C465 C464 1.345 . S
C465 C466 1.424 . S
C466 H458 0.951 . S
C466 C465 1.424 . S
C466 C467 1.347 . S
C467 H459 0.951 . S
C467 C462 1.429 . S
C467 C466 1.347 . S
H468 C469 0.951 . S
C469 H468 0.951 . S
C469 C475 1.265 . S
H470 C475 0.950 . S
H471 C479 0.949 . S
H472 C480 0.950 . S
H473 C481 0.951 . S
H474 C482 0.951 . S
C475 C469 1.265 . S
C475 H470 0.950 . S
C475 C476 1.478 . S
C476 C475 1.478 . S
C476 C477 1.397 . S
C476 C493 1.394 . S
C477 C476 1.397 . S
C477 C478 1.438 . S
C477 C482 1.429 . S
C478 C477 1.438 . S
C478 C479 1.428 . S
C478 C491 1.394 . S
C479 H471 0.949 . S
C479 C478 1.428 . S
C479 C480 1.345 . S
C480 H472 0.950 . S
C480 C479 1.345 . S
C480 C481 1.424 . S
C481 H473 0.951 . S
C481 C480 1.424 . S
C481 C482 1.347 . S
C482 H474 0.951 . S
C482 C477 1.429 . S
C482 C481 1.347 . S
H483 C484 0.951 . S
C484 H483 0.951 . S
C484 C490 1.265 . S
H485 C490 0.950 . S
H486 C494 0.949 . S
H487 C495 0.950 . S
H488 C496 0.951 . S
H489 C497 0.949 . S
C490 C484 1.265 . S
C490 H485 0.950 . S
C490 C491 1.478 . S
C491 C478 1.394 . S
C491 C490 1.478 . S
C491 C492 1.397 . S
C492 C491 1.397 . S
C492 C493 1.438 . S
C492 C497 1.429 1_545 S
C493 C476 1.394 . S
C493 C492 1.438 . S
C493 C494 1.428 1_545 S
C494 H486 0.949 . S
C494 C493 1.428 1_565 S
C494 C495 1.345 . S
C495 H487 0.950 . S
C495 C494 1.345 . S
C495 C496 1.424 . S
C496 H488 0.951 . S
C496 C495 1.424 . S
C496 C497 1.347 . S
C497 H489 0.949 . S
C497 C492 1.429 1_565 S
C497 C496 1.347 . S
H498 C499 0.951 . S
C499 H498 0.951 . S
C499 C505 1.265 . S
H500 C505 0.950 . S
H501 C509 0.949 . S
H502 C510 0.950 . S
H503 C511 0.951 . S
H504 C512 0.951 . S
C505 C499 1.265 . S
C505 H500 0.950 . S
C505 C506 1.478 . S
C506 C505 1.478 . S
C506 C507 1.397 . S
C506 C523 1.394 . S
C507 C506 1.397 . S
C507 C508 1.438 . S
C507 C512 1.429 . S
C508 C507 1.438 . S
C508 C509 1.428 . S
C508 C521 1.394 . S
C509 H501 0.949 . S
C509 C508 1.428 . S
C509 C510 1.345 . S
C510 H502 0.950 . S
C510 C509 1.345 . S
C510 C511 1.424 . S
C511 H503 0.951 . S
C511 C510 1.424 . S
C511 C512 1.347 . S
C512 H504 0.951 . S
C512 C507 1.429 . S
C512 C511 1.347 . S
H513 C514 0.951 . S
C514 H513 0.951 . S
C514 C520 1.265 . S
H515 C520 0.950 . S
H516 C524 0.949 1_554 S
H517 C525 0.950 . S
H518 C526 0.951 1_554 S
H519 C527 0.951 . S
C520 C514 1.265 . S
C520 H515 0.950 . S
C520 C521 1.478 . S
C521 C508 1.394 . S
C521 C520 1.478 . S
C521 C522 1.397 . S
C522 C521 1.397 . S
C522 C523 1.438 . S
C522 C527 1.429 . S
C523 C506 1.394 . S
C523 C522 1.438 . S
C523 C524 1.428 . S
C524 H516 0.949 1_556 S
C524 C523 1.428 . S
C524 C525 1.345 1_556 S
C525 H517 0.950 . S
C525 C524 1.345 1_554 S
C525 C526 1.424 1_554 S
C526 H518 0.951 1_556 S
C526 C525 1.424 1_556 S
C526 C527 1.347 . S
C527 H519 0.951 . S
C527 C522 1.429 . S
C527 C526 1.347 . S
H528 C529 0.951 . S
C529 H528 0.951 . S
C529 C535 1.265 . S
H530 C535 0.950 . S
H531 C539 0.949 . S
H532 C540 0.950 . S
H533 C541 0.951 . S
H534 C542 0.951 . S
C535 C529 1.265 . S
C535 H530 0.950 . S
C535 C536 1.478 . S
C536 C535 1.478 . S
C536 C537 1.397 . S
C536 C553 1.394 . S
C537 C536 1.397 . S
C537 C538 1.438 . S
C537 C542 1.429 . S
C538 C537 1.438 . S
C538 C539 1.428 . S
C538 C551 1.394 . S
C539 H531 0.949 . S
C539 C538 1.428 . S
C539 C540 1.345 . S
C540 H532 0.950 . S
C540 C539 1.345 . S
C540 C541 1.424 . S
C541 H533 0.951 . S
C541 C540 1.424 . S
C541 C542 1.347 . S
C542 H534 0.951 . S
C542 C537 1.429 . S
C542 C541 1.347 . S
H543 C544 0.951 1_655 S
C544 H543 0.951 1_455 S
C544 C550 1.265 . S
H545 C550 0.950 . S
H546 C554 0.949 . S
H547 C555 0.950 . S
H548 C556 0.951 . S
H549 C557 0.951 . S
C550 C544 1.265 . S
C550 H545 0.950 . S
C550 C551 1.478 . S
C551 C538 1.394 . S
C551 C550 1.478 . S
C551 C552 1.397 . S
C552 C551 1.397 . S
C552 C553 1.438 . S
C552 C557 1.429 . S
C553 C536 1.394 . S
C553 C552 1.438 . S
C553 C554 1.428 . S
C554 H546 0.949 . S
C554 C553 1.428 . S
C554 C555 1.345 . S
C555 H547 0.950 . S
C555 C554 1.345 . S
C555 C556 1.424 . S
C556 H548 0.951 . S
C556 C555 1.424 . S
C556 C557 1.347 . S
C557 H549 0.951 . S
C557 C552 1.429 . S
C557 C556 1.347 . S
C214 C61 1.412 . S
C199 C10 1.412 . S
C229 C21 1.386 . S
C244 C131 1.444 . S
C259 C31 1.387 . S
C274 C183 1.450 . S
C289 C0 1.423 . S
C304 C77 1.444 . S
C334 C121 1.426 . S
C319 C18 1.377 . S
C349 C34 1.394 . S
C364 C167 1.427 . S
C394 C114 1.395 . S
C379 C36 1.379 . S
C409 C8 1.410 1_566 S
C424 C174 1.426 . S
C454 C68 1.404 . S
C439 C23 1.405 1_565 S
C484 C130 1.370 . S
C469 C26 1.349 . S
C514 C184 1.428 . S
C499 C5 1.308 1_556 S
C529 C13 1.398 . S
C544 C78 1.436 . S
