# Generated by pormake.
# Topology ibd, (4,6)-cn, num edge types: 1
# Building blocks:
#     Node 0, Type 0, BuildingBlock: GALJAG_clean_sbu_0, # of connection points: 4
#     Node 1, Type 0, BuildingBlock: GALJAG_clean_sbu_0, # of connection points: 4
#     Node 2, Type 0, BuildingBlock: GALJAG_clean_sbu_0, # of connection points: 4
#     Node 3, Type 0, BuildingBlock: GALJAG_clean_sbu_0, # of connection points: 4
#     Node 4, Type 0, BuildingBlock: GALJAG_clean_sbu_0, # of connection points: 4
#     Node 5, Type 0, BuildingBlock: GALJAG_clean_sbu_0, # of connection points: 4
#     Node 6, Type 0, BuildingBlock: GALJAG_clean_sbu_0, # of connection points: 4
#     Node 7, Type 0, BuildingBlock: GALJAG_clean_sbu_0, # of connection points: 4
#     Node 8, Type 0, BuildingBlock: GALJAG_clean_sbu_0, # of connection points: 4
#     Node 9, Type 0, BuildingBlock: GALJAG_clean_sbu_0, # of connection points: 4
#     Node 10, Type 0, BuildingBlock: GALJAG_clean_sbu_0, # of connection points: 4
#     Node 11, Type 0, BuildingBlock: GALJAG_clean_sbu_0, # of connection points: 4
#     Node 12, Type 0, BuildingBlock: GALJAG_clean_sbu_0, # of connection points: 4
#     Node 13, Type 0, BuildingBlock: GALJAG_clean_sbu_0, # of connection points: 4
#     Node 14, Type 0, BuildingBlock: GALJAG_clean_sbu_0, # of connection points: 4
#     Node 15, Type 0, BuildingBlock: GALJAG_clean_sbu_0, # of connection points: 4
#     Node 16, Type 0, BuildingBlock: GALJAG_clean_sbu_0, # of connection points: 4
#     Node 17, Type 0, BuildingBlock: GALJAG_clean_sbu_0, # of connection points: 4
#     Node 18, Type 0, BuildingBlock: GALJAG_clean_sbu_0, # of connection points: 4
#     Node 19, Type 0, BuildingBlock: GALJAG_clean_sbu_0, # of connection points: 4
#     Node 20, Type 0, BuildingBlock: GALJAG_clean_sbu_0, # of connection points: 4
#     Node 21, Type 0, BuildingBlock: GALJAG_clean_sbu_0, # of connection points: 4
#     Node 22, Type 0, BuildingBlock: GALJAG_clean_sbu_0, # of connection points: 4
#     Node 23, Type 0, BuildingBlock: GALJAG_clean_sbu_0, # of connection points: 4
#     Node 24, Type 1, BuildingBlock: OJICUG_clean_sbu_0, # of connection points: 6
#     Node 25, Type 1, BuildingBlock: OJICUG_clean_sbu_0, # of connection points: 6
#     Node 26, Type 1, BuildingBlock: OJICUG_clean_sbu_0, # of connection points: 6
#     Node 27, Type 1, BuildingBlock: OJICUG_clean_sbu_0, # of connection points: 6
#     Node 28, Type 1, BuildingBlock: OJICUG_clean_sbu_0, # of connection points: 6
#     Node 29, Type 1, BuildingBlock: OJICUG_clean_sbu_0, # of connection points: 6
#     Node 30, Type 1, BuildingBlock: OJICUG_clean_sbu_0, # of connection points: 6
#     Node 31, Type 1, BuildingBlock: OJICUG_clean_sbu_0, # of connection points: 6
#     Node 32, Type 1, BuildingBlock: OJICUG_clean_sbu_0, # of connection points: 6
#     Node 33, Type 1, BuildingBlock: OJICUG_clean_sbu_0, # of connection points: 6
#     Node 34, Type 1, BuildingBlock: OJICUG_clean_sbu_0, # of connection points: 6
#     Node 35, Type 1, BuildingBlock: OJICUG_clean_sbu_0, # of connection points: 6
#     Node 36, Type 1, BuildingBlock: OJICUG_clean_sbu_0, # of connection points: 6
#     Node 37, Type 1, BuildingBlock: OJICUG_clean_sbu_0, # of connection points: 6
#     Node 38, Type 1, BuildingBlock: OJICUG_clean_sbu_0, # of connection points: 6
#     Node 39, Type 1, BuildingBlock: OJICUG_clean_sbu_0, # of connection points: 6
#     Edge 40, Type (0, 1), BuildingBlock: OJICUG_clean_linker_0, # of connection points: 2
#     Edge 41, Type (0, 1), BuildingBlock: OJICUG_clean_linker_0, # of connection points: 2
#     Edge 42, Type (0, 1), BuildingBlock: OJICUG_clean_linker_0, # of connection points: 2
#     Edge 43, Type (0, 1), BuildingBlock: OJICUG_clean_linker_0, # of connection points: 2
#     Edge 44, Type (0, 1), BuildingBlock: OJICUG_clean_linker_0, # of connection points: 2
#     Edge 45, Type (0, 1), BuildingBlock: OJICUG_clean_linker_0, # of connection points: 2
#     Edge 46, Type (0, 1), BuildingBlock: OJICUG_clean_linker_0, # of connection points: 2
#     Edge 47, Type (0, 1), BuildingBlock: OJICUG_clean_linker_0, # of connection points: 2
#     Edge 48, Type (0, 1), BuildingBlock: OJICUG_clean_linker_0, # of connection points: 2
#     Edge 49, Type (0, 1), BuildingBlock: OJICUG_clean_linker_0, # of connection points: 2
#     Edge 50, Type (0, 1), BuildingBlock: OJICUG_clean_linker_0, # of connection points: 2
#     Edge 51, Type (0, 1), BuildingBlock: OJICUG_clean_linker_0, # of connection points: 2
#     Edge 52, Type (0, 1), BuildingBlock: OJICUG_clean_linker_0, # of connection points: 2
#     Edge 53, Type (0, 1), BuildingBlock: OJICUG_clean_linker_0, # of connection points: 2
#     Edge 54, Type (0, 1), BuildingBlock: OJICUG_clean_linker_0, # of connection points: 2
#     Edge 55, Type (0, 1), BuildingBlock: OJICUG_clean_linker_0, # of connection points: 2
#     Edge 56, Type (0, 1), BuildingBlock: OJICUG_clean_linker_0, # of connection points: 2
#     Edge 57, Type (0, 1), BuildingBlock: OJICUG_clean_linker_0, # of connection points: 2
#     Edge 58, Type (0, 1), BuildingBlock: OJICUG_clean_linker_0, # of connection points: 2
#     Edge 59, Type (0, 1), BuildingBlock: OJICUG_clean_linker_0, # of connection points: 2
#     Edge 60, Type (0, 1), BuildingBlock: OJICUG_clean_linker_0, # of connection points: 2
#     Edge 61, Type (0, 1), BuildingBlock: OJICUG_clean_linker_0, # of connection points: 2
#     Edge 62, Type (0, 1), BuildingBlock: OJICUG_clean_linker_0, # of connection points: 2
#     Edge 63, Type (0, 1), BuildingBlock: OJICUG_clean_linker_0, # of connection points: 2
#     Edge 64, Type (0, 1), BuildingBlock: OJICUG_clean_linker_0, # of connection points: 2
#     Edge 65, Type (0, 1), BuildingBlock: OJICUG_clean_linker_0, # of connection points: 2
#     Edge 66, Type (0, 1), BuildingBlock: OJICUG_clean_linker_0, # of connection points: 2
#     Edge 67, Type (0, 1), BuildingBlock: OJICUG_clean_linker_0, # of connection points: 2
#     Edge 68, Type (0, 1), BuildingBlock: OJICUG_clean_linker_0, # of connection points: 2
#     Edge 69, Type (0, 1), BuildingBlock: OJICUG_clean_linker_0, # of connection points: 2
#     Edge 70, Type (0, 1), BuildingBlock: OJICUG_clean_linker_0, # of connection points: 2
#     Edge 71, Type (0, 1), BuildingBlock: OJICUG_clean_linker_0, # of connection points: 2
#     Edge 72, Type (0, 1), BuildingBlock: OJICUG_clean_linker_0, # of connection points: 2
#     Edge 73, Type (0, 1), BuildingBlock: OJICUG_clean_linker_0, # of connection points: 2
#     Edge 74, Type (0, 1), BuildingBlock: OJICUG_clean_linker_0, # of connection points: 2
#     Edge 75, Type (0, 1), BuildingBlock: OJICUG_clean_linker_0, # of connection points: 2
#     Edge 76, Type (0, 1), BuildingBlock: OJICUG_clean_linker_0, # of connection points: 2
#     Edge 77, Type (0, 1), BuildingBlock: OJICUG_clean_linker_0, # of connection points: 2
#     Edge 78, Type (0, 1), BuildingBlock: OJICUG_clean_linker_0, # of connection points: 2
#     Edge 79, Type (0, 1), BuildingBlock: OJICUG_clean_linker_0, # of connection points: 2
#     Edge 80, Type (0, 1), BuildingBlock: OJICUG_clean_linker_0, # of connection points: 2
#     Edge 81, Type (0, 1), BuildingBlock: OJICUG_clean_linker_0, # of connection points: 2
#     Edge 82, Type (0, 1), BuildingBlock: OJICUG_clean_linker_0, # of connection points: 2
#     Edge 83, Type (0, 1), BuildingBlock: OJICUG_clean_linker_0, # of connection points: 2
#     Edge 84, Type (0, 1), BuildingBlock: OJICUG_clean_linker_0, # of connection points: 2
#     Edge 85, Type (0, 1), BuildingBlock: OJICUG_clean_linker_0, # of connection points: 2
#     Edge 86, Type (0, 1), BuildingBlock: OJICUG_clean_linker_0, # of connection points: 2
#     Edge 87, Type (0, 1), BuildingBlock: OJICUG_clean_linker_0, # of connection points: 2
#     Edge 88, Type (0, 1), BuildingBlock: OJICUG_clean_linker_0, # of connection points: 2
#     Edge 89, Type (0, 1), BuildingBlock: OJICUG_clean_linker_0, # of connection points: 2
#     Edge 90, Type (0, 1), BuildingBlock: OJICUG_clean_linker_0, # of connection points: 2
#     Edge 91, Type (0, 1), BuildingBlock: OJICUG_clean_linker_0, # of connection points: 2
#     Edge 92, Type (0, 1), BuildingBlock: OJICUG_clean_linker_0, # of connection points: 2
#     Edge 93, Type (0, 1), BuildingBlock: OJICUG_clean_linker_0, # of connection points: 2
#     Edge 94, Type (0, 1), BuildingBlock: OJICUG_clean_linker_0, # of connection points: 2
#     Edge 95, Type (0, 1), BuildingBlock: OJICUG_clean_linker_0, # of connection points: 2
#     Edge 96, Type (0, 1), BuildingBlock: OJICUG_clean_linker_0, # of connection points: 2
#     Edge 97, Type (0, 1), BuildingBlock: OJICUG_clean_linker_0, # of connection points: 2
#     Edge 98, Type (0, 1), BuildingBlock: OJICUG_clean_linker_0, # of connection points: 2
#     Edge 99, Type (0, 1), BuildingBlock: OJICUG_clean_linker_0, # of connection points: 2
#     Edge 100, Type (0, 1), BuildingBlock: OJICUG_clean_linker_0, # of connection points: 2
#     Edge 101, Type (0, 1), BuildingBlock: OJICUG_clean_linker_0, # of connection points: 2
#     Edge 102, Type (0, 1), BuildingBlock: OJICUG_clean_linker_0, # of connection points: 2
#     Edge 103, Type (0, 1), BuildingBlock: OJICUG_clean_linker_0, # of connection points: 2
#     Edge 104, Type (0, 1), BuildingBlock: OJICUG_clean_linker_0, # of connection points: 2
#     Edge 105, Type (0, 1), BuildingBlock: OJICUG_clean_linker_0, # of connection points: 2
#     Edge 106, Type (0, 1), BuildingBlock: OJICUG_clean_linker_0, # of connection points: 2
#     Edge 107, Type (0, 1), BuildingBlock: OJICUG_clean_linker_0, # of connection points: 2
#     Edge 108, Type (0, 1), BuildingBlock: OJICUG_clean_linker_0, # of connection points: 2
#     Edge 109, Type (0, 1), BuildingBlock: OJICUG_clean_linker_0, # of connection points: 2
#     Edge 110, Type (0, 1), BuildingBlock: OJICUG_clean_linker_0, # of connection points: 2
#     Edge 111, Type (0, 1), BuildingBlock: OJICUG_clean_linker_0, # of connection points: 2
#     Edge 112, Type (0, 1), BuildingBlock: OJICUG_clean_linker_0, # of connection points: 2
#     Edge 113, Type (0, 1), BuildingBlock: OJICUG_clean_linker_0, # of connection points: 2
#     Edge 114, Type (0, 1), BuildingBlock: OJICUG_clean_linker_0, # of connection points: 2
#     Edge 115, Type (0, 1), BuildingBlock: OJICUG_clean_linker_0, # of connection points: 2
#     Edge 116, Type (0, 1), BuildingBlock: OJICUG_clean_linker_0, # of connection points: 2
#     Edge 117, Type (0, 1), BuildingBlock: OJICUG_clean_linker_0, # of connection points: 2
#     Edge 118, Type (0, 1), BuildingBlock: OJICUG_clean_linker_0, # of connection points: 2
#     Edge 119, Type (0, 1), BuildingBlock: OJICUG_clean_linker_0, # of connection points: 2
#     Edge 120, Type (0, 1), BuildingBlock: OJICUG_clean_linker_0, # of connection points: 2
#     Edge 121, Type (0, 1), BuildingBlock: OJICUG_clean_linker_0, # of connection points: 2
#     Edge 122, Type (0, 1), BuildingBlock: OJICUG_clean_linker_0, # of connection points: 2
#     Edge 123, Type (0, 1), BuildingBlock: OJICUG_clean_linker_0, # of connection points: 2
#     Edge 124, Type (0, 1), BuildingBlock: OJICUG_clean_linker_0, # of connection points: 2
#     Edge 125, Type (0, 1), BuildingBlock: OJICUG_clean_linker_0, # of connection points: 2
#     Edge 126, Type (0, 1), BuildingBlock: OJICUG_clean_linker_0, # of connection points: 2
#     Edge 127, Type (0, 1), BuildingBlock: OJICUG_clean_linker_0, # of connection points: 2
#     Edge 128, Type (0, 1), BuildingBlock: OJICUG_clean_linker_0, # of connection points: 2
#     Edge 129, Type (0, 1), BuildingBlock: OJICUG_clean_linker_0, # of connection points: 2
#     Edge 130, Type (0, 1), BuildingBlock: OJICUG_clean_linker_0, # of connection points: 2
#     Edge 131, Type (0, 1), BuildingBlock: OJICUG_clean_linker_0, # of connection points: 2
#     Edge 132, Type (0, 1), BuildingBlock: OJICUG_clean_linker_0, # of connection points: 2
#     Edge 133, Type (0, 1), BuildingBlock: OJICUG_clean_linker_0, # of connection points: 2
#     Edge 134, Type (0, 1), BuildingBlock: OJICUG_clean_linker_0, # of connection points: 2
#     Edge 135, Type (0, 1), BuildingBlock: OJICUG_clean_linker_0, # of connection points: 2
# Relax obj value: 0.277
# Max RMSD: 0.280
# Mean RMSD: 0.234
data_MOF--net-ibd--node1-GALJAG_clean_sbu_0--node2-OJICUG_clean_sbu_0--edge1-OJICUG_clean_linker_0
_symmetry_space_group_name_H-M    P1
_symmetry_Int_Tables_number       1
_symmetry_cell_setting            triclinic
loop_
_symmetry_equiv_pos_as_xyz
'x, y, z'
_cell_length_a     37.401978
_cell_length_b     37.426925
_cell_length_c     37.385364
_cell_angle_alpha  90.036087
_cell_angle_beta   89.943904
_cell_angle_gamma 90.169893
loop_
_atom_site_label
_atom_site_type_symbol
_atom_site_fract_x
_atom_site_fract_y
_atom_site_fract_z
_atom_type_partial_charge
In0 In -0.01038 0.20857 0.36043 0.0
O1 O 0.03329 0.21416 0.31888 0.0
O2 O 0.01985 0.16181 0.33656 0.0
C3 C 0.01445 0.25692 0.40707 0.0
C4 C 0.94418 0.24002 0.31512 0.0
C5 C 0.9589 0.16052 0.40347 0.0
O6 O 0.03495 0.23992 0.38632 0.0
O7 O 0.98176 0.24914 0.4044 0.0
O8 O 0.94176 0.17675 0.37946 0.0
O9 O -0.00816 0.16773 0.40483 0.0
C10 C 0.03846 0.18101 0.31597 0.0
O11 O 0.95984 0.25675 0.33979 0.0
O12 O 0.95101 0.20708 0.31359 0.0
In13 In -0.00414 0.71446 0.60938 0.0
O14 O 0.9646 0.76103 0.63209 0.0
O15 O 0.95622 0.7097 0.65511 0.0
C16 C 0.02796 0.76419 0.56888 0.0
C17 C 0.04223 0.68375 0.65407 0.0
C18 C 0.96375 0.67319 0.5603 0.0
O19 O -0.00545 0.763 0.57331 0.0
O20 O 0.04529 0.74035 0.58515 0.0
O21 O 0.94705 0.68748 0.58577 0.0
O22 O -0.00297 0.67853 0.56042 0.0
C23 C 0.94832 0.74243 0.65506 0.0
O24 O 0.02259 0.66557 0.63345 0.0
O25 O 0.0387 0.71714 0.65152 0.0
In26 In 0.49433 0.71402 0.8636 0.0
O27 O 0.53496 0.71662 0.81893 0.0
O28 O 0.52135 0.66541 0.83971 0.0
C29 C 0.52445 0.7637 0.9058 0.0
C30 C 0.44538 0.74267 0.81985 0.0
C31 C 0.46574 0.66831 0.91056 0.0
O32 O 0.54283 0.74379 0.88569 0.0
O33 O 0.49118 0.75841 0.90446 0.0
O34 O 0.4473 0.6844 0.88749 0.0
O35 O 0.49879 0.67496 0.90958 0.0
C36 C 0.53899 0.6832 0.81712 0.0
O37 O 0.46274 0.76099 0.8422 0.0
O38 O 0.45265 0.70981 0.81965 0.0
In39 In 0.47385 0.21996 0.11655 0.0
O40 O 0.50387 0.17199 0.13799 0.0
O41 O 0.5191 0.22387 0.15604 0.0
C42 C 0.44543 0.17382 0.07002 0.0
C43 C 0.4268 0.24589 0.16401 0.0
C44 C 0.50214 0.26989 0.07343 0.0
O45 O 0.47854 0.1801 0.07144 0.0
O46 O 0.42681 0.19009 0.09292 0.0
O47 O 0.52014 0.25409 0.09705 0.0
O48 O 0.46965 0.26091 0.07197 0.0
C49 C 0.52422 0.1906 0.1575 0.0
O50 O 0.43992 0.26468 0.13927 0.0
O51 O 0.43717 0.21391 0.16455 0.0
In52 In -0.00136 0.76116 0.10936 0.0
O53 O 0.95182 0.79097 0.08591 0.0
O54 O 0.00288 0.79926 0.06233 0.0
C55 C 0.94857 0.73362 0.1528 0.0
C56 C 0.02923 0.71236 0.06676 0.0
C57 C 0.04415 0.79032 0.15605 0.0
O58 O 0.95631 0.76642 0.15246 0.0
O59 O 0.96627 0.71462 0.1313 0.0
O60 O 0.03903 0.75707 0.15383 0.0
O61 O 0.02686 0.80893 0.13394 0.0
C62 C 0.96989 0.80603 0.06181 0.0
O63 O 0.04734 0.73299 0.0864 0.0
O64 O -0.0042 0.71607 0.06913 0.0
In65 In 0.50129 0.76145 0.365 0.0
O66 O 0.49663 0.71476 0.40278 0.0
O67 O 0.54903 0.73255 0.38906 0.0
C68 C 0.45395 0.73233 0.31964 0.0
C69 C 0.47208 0.80565 0.41311 0.0
C70 C 0.54727 0.79163 0.31926 0.0
O71 O 0.46987 0.71446 0.34326 0.0
O72 O 0.46152 0.76517 0.31918 0.0
O73 O 0.52842 0.80985 0.34044 0.0
O74 O 0.54387 0.75824 0.32232 0.0
C75 C 0.52989 0.71073 0.40638 0.0
O76 O 0.45424 0.79149 0.38827 0.0
O77 O 0.50493 0.79823 0.41306 0.0
In78 In 0.50087 0.26136 0.61575 0.0
O79 O 0.54585 0.22971 0.59026 0.0
O80 O 0.49275 0.22058 0.57188 0.0
C81 C 0.5507 0.2856 0.66087 0.0
C82 C 0.47263 0.31047 0.57228 0.0
C83 C 0.45156 0.23383 0.65987 0.0
O84 O 0.53448 0.30589 0.63943 0.0
O85 O 0.54237 0.253 0.6587 0.0
O86 O 0.46081 0.26623 0.66096 0.0
O87 O 0.46726 0.21531 0.6365 0.0
C88 C 0.52548 0.21312 0.56907 0.0
O89 O 0.45506 0.29582 0.59704 0.0
O90 O 0.505 0.30133 0.5704 0.0
In91 In -0.01281 0.25069 0.86013 0.0
O92 O 0.03164 0.21431 0.87951 0.0
O93 O 0.98024 0.20921 0.90351 0.0
C94 C 0.93765 0.22621 0.81429 0.0
C95 C 0.9636 0.29929 0.90669 0.0
C96 C 0.0364 0.27931 0.81701 0.0
O97 O 0.9508 0.20713 0.83866 0.0
O98 O 0.94899 0.25793 0.81348 0.0
O99 O 0.0189 0.29765 0.83919 0.0
O100 O 0.02976 0.24623 0.81742 0.0
C101 C 0.01222 0.1987 0.90231 0.0
O102 O -0.00431 0.28911 0.90586 0.0
O103 O 0.94338 0.28499 0.88376 0.0
In104 In 0.3626 -0.00631 0.23078 0.0
O105 O 0.34215 0.96218 0.27838 0.0
O106 O 0.31697 0.95349 0.22823 0.0
C107 C 0.40943 0.96753 0.18338 0.0
C108 C 0.31714 0.03872 0.19924 0.0
C109 C 0.40402 0.02333 0.28089 0.0
O110 O 0.38651 0.94801 0.19871 0.0
O111 O 0.40874 1e-05 0.19223 0.0
O112 O 0.38329 0.04175 0.26171 0.0
O113 O 0.40382 -0.00975 0.27447 0.0
C114 C 0.31787 0.9464 0.26119 0.0
O115 O 0.31822 0.03469 0.23272 0.0
O116 O 0.33987 0.02094 0.18193 0.0
In117 In 0.23796 0.11327 0.52047 0.0
O118 O 0.18849 0.13296 0.549 0.0
O119 O 0.23819 0.15766 0.56156 0.0
C120 C 0.19381 0.06667 0.48872 0.0
C121 C 0.26556 0.16022 0.47393 0.0
C122 C 0.287 0.06995 0.54883 0.0
O123 O 0.20026 0.06574 0.5218 0.0
O124 O 0.20944 0.09129 0.4718 0.0
O125 O 0.26648 0.08866 0.56798 0.0
O126 O 0.2832 0.07391 0.51556 0.0
C127 C 0.20479 0.15696 0.56618 0.0
O128 O 0.2849 0.13971 0.49236 0.0
O129 O 0.23239 0.15684 0.47891 0.0
In130 In 0.10883 -0.01259 0.731 0.0
O131 O 0.08873 0.93886 0.7608 0.0
O132 O 0.06574 -0.01088 0.77378 0.0
C133 C 0.15431 0.93901 0.70532 0.0
C134 C 0.06157 0.01455 0.68461 0.0
C135 C 0.15246 0.03835 0.75615 0.0
O136 O 0.15294 0.94736 0.73797 0.0
O137 O 0.13274 0.95546 0.68528 0.0
O138 O 0.12993 0.02262 0.77585 0.0
O139 O 0.15284 0.02826 0.72398 0.0
C140 C 0.06593 0.95577 0.77884 0.0
O141 O 0.08522 0.03329 0.6996 0.0
O142 O 0.06264 0.98171 0.69197 0.0
In143 In 0.25456 0.86134 0.96889 0.0
O144 O 0.21043 0.90246 0.96368 0.0
O145 O 0.22222 0.88267 0.01564 0.0
C146 C 0.2277 0.81447 0.92195 0.0
C147 C 0.29834 0.90987 0.93985 0.0
C148 C 0.28396 0.81885 0.01839 0.0
O149 O 0.20888 0.83789 0.93707 0.0
O150 O 0.26037 0.81493 0.93023 0.0
O151 O 0.30268 0.83869 -0.00156 0.0
O152 O 0.25069 0.82081 0.01339 0.0
C153 C 0.20345 0.90318 -0.00334 0.0
O154 O 0.29263 0.90813 0.97306 0.0
O155 O 0.28317 0.886 0.9215 0.0
In156 In 0.23673 0.36284 0.01441 0.0
O157 O 0.23232 0.325 0.96748 0.0
O158 O 0.28454 0.33971 0.98477 0.0
C159 C 0.19021 0.40907 0.9859 0.0
C160 C 0.20697 0.31364 0.05702 0.0
C161 C 0.28391 0.40696 0.04527 0.0
O162 O 0.20545 0.38513 0.96785 0.0
O163 O 0.19814 0.40953 0.01867 0.0
O164 O 0.26342 0.38711 0.06336 0.0
O165 O 0.28107 0.40372 0.01181 0.0
C166 C 0.2656 0.32201 0.96312 0.0
O167 O 0.18916 0.33845 0.04296 0.0
O168 O 0.24007 0.31463 0.05075 0.0
In169 In 0.75962 0.11314 0.96804 0.0
O170 O 0.73069 0.08834 0.01526 0.0
O171 O 0.71959 0.06775 0.96336 0.0
C172 C 0.7905 0.15493 0.01734 0.0
C173 C 0.80522 0.06925 0.93512 0.0
C174 C 0.7262 0.16148 0.92738 0.0
O175 O 0.75722 0.14954 0.01617 0.0
O176 O 0.80843 0.13869 -0.00617 0.0
O177 O 0.7101 0.13576 0.94197 0.0
O178 O 0.75953 0.16213 0.93227 0.0
C179 C 0.7134 0.06627 -0.00353 0.0
O180 O 0.78557 0.09063 0.91806 0.0
O181 O 0.80264 0.07112 0.96871 0.0
In182 In 0.11367 0.501 0.25 0.0
O183 O 0.13551 0.47181 0.29876 0.0
O184 O 0.15492 0.45737 0.24717 0.0
C185 C 0.06748 0.53413 0.29335 0.0
C186 C 0.16025 0.54732 0.22157 0.0
C187 C 0.06924 0.4697 0.20304 0.0
O188 O 0.06862 0.50055 0.29055 0.0
O189 O 0.09074 0.55074 0.27548 0.0
O190 O 0.06946 0.50297 0.20834 0.0
O191 O 0.09195 0.45245 0.22082 0.0
C192 C 0.15589 0.45209 0.28045 0.0
O193 O 0.13781 0.53048 0.20279 0.0
O194 O 0.15921 0.54054 0.25457 0.0
In195 In 0.72421 0.86267 0.50531 0.0
O196 O 0.71959 0.81981 0.46269 0.0
O197 O 0.77071 0.84327 0.47147 0.0
C198 C 0.67605 0.90866 0.47905 0.0
C199 C 0.69832 0.81553 0.55234 0.0
C200 C 0.77265 0.90653 0.5342 0.0
O201 O 0.68956 0.88404 0.4605 0.0
O202 O 0.68623 0.90955 0.51115 0.0
O203 O 0.75355 0.88598 0.55297 0.0
O204 O 0.7677 0.90429 0.50089 0.0
C205 C 0.75221 0.82095 0.45419 0.0
O206 O 0.73109 0.81745 0.54465 0.0
O207 O 0.67869 0.83794 0.5367 0.0
In208 In 0.86182 0.97931 0.24376 0.0
O209 O 0.90526 -0.01158 0.28456 0.0
O210 O 0.88429 0.93569 0.27937 0.0
C211 C 0.8147 0.02627 0.26997 0.0
C212 C 0.90644 0.00512 0.19426 0.0
C213 C 0.81889 0.93056 0.21353 0.0
O214 O 0.83724 0.01055 0.28935 0.0
O215 O 0.81668 0.01912 0.23706 0.0
O216 O 0.84335 0.94637 0.1966 0.0
O217 O 0.8172 0.93808 0.24639 0.0
C218 C 0.9061 0.95637 0.29484 0.0
O219 O 0.9066 0.97287 0.20395 0.0
O220 O 0.88384 0.02467 0.20993 0.0
In221 In 0.23847 0.61267 0.47477 0.0
O222 O 0.27014 0.59081 0.42813 0.0
O223 O 0.28155 0.57106 0.48031 0.0
C224 C 0.21293 0.65832 0.42624 0.0
C225 C 0.18893 0.5672 0.50008 0.0
C226 C 0.2657 0.65614 0.52478 0.0
O227 O 0.24543 0.65769 0.43508 0.0
O228 O 0.19342 0.63546 0.44158 0.0
O229 O 0.28423 0.63281 0.5091 0.0
O230 O 0.23326 0.65704 0.51566 0.0
C231 C 0.28842 0.57002 0.44728 0.0
O232 O 0.20285 0.59126 0.51917 0.0
O233 O 0.1999 0.56624 0.46822 0.0
In234 In 0.36052 0.47324 0.73053 0.0
O235 O 0.40389 0.4792 0.77173 0.0
O236 O 0.38477 0.42658 0.76092 0.0
C237 C 0.31759 0.52081 0.76249 0.0
C238 C 0.4048 0.49972 0.68087 0.0
C239 C 0.31265 0.42844 0.70161 0.0
O240 O 0.33957 0.50194 0.77953 0.0
O241 O 0.318 0.51645 0.72903 0.0
O242 O 0.33594 0.4445 0.6833 0.0
O243 O 0.31459 0.4337 0.73486 0.0
C244 C 0.40573 0.4463 0.77866 0.0
O245 O 0.40449 0.46715 0.68947 0.0
O246 O 0.38269 0.51905 0.69745 0.0
In247 In 0.6089 -0.00715 0.74503 0.0
O248 O 0.63481 0.96223 0.79073 0.0
O249 O 0.65363 0.95338 0.73767 0.0
C250 C 0.56329 0.02289 0.79158 0.0
C251 C 0.65061 0.0424 0.71464 0.0
C252 C 0.56451 0.95936 0.69998 0.0
O253 O 0.5636 -0.01024 0.78549 0.0
O254 O 0.58703 0.04048 0.7754 0.0
O255 O 0.56522 -0.00706 0.70297 0.0
O256 O 0.58676 0.94294 0.71908 0.0
C257 C 0.65602 0.94562 0.77037 0.0
O258 O 0.62815 0.02445 0.6969 0.0
O259 O 0.65185 0.03523 0.74759 0.0
In260 In 0.73956 0.61262 0.00823 0.0
O261 O 0.69292 0.63525 0.03909 0.0
O262 O 0.74431 0.65807 0.04795 0.0
C263 C 0.68986 0.568 0.98213 0.0
C264 C 0.76765 0.65601 0.95835 0.0
C265 C 0.78734 0.56801 0.03665 0.0
O266 O 0.69879 0.56818 0.01462 0.0
O267 O 0.70619 0.59027 0.96273 0.0
O268 O 0.78086 0.56908 0.00356 0.0
O269 O 0.77011 0.59006 0.05542 0.0
C270 C 0.71134 0.65852 0.05506 0.0
O271 O 0.7865 0.63464 0.97626 0.0
O272 O 0.73469 0.65519 0.96544 0.0
In273 In 0.85915 0.49212 0.75198 0.0
O274 O 0.81903 0.4466 0.75291 0.0
O275 O 0.83551 0.4688 0.80265 0.0
C276 C 0.90223 0.4629 0.70286 0.0
C277 C 0.81234 0.53549 0.71932 0.0
C278 C 0.90579 0.52131 0.79763 0.0
O279 O 0.88099 0.44427 0.72145 0.0
O280 O 0.90189 0.49592 0.70952 0.0
O281 O 0.88384 0.54001 0.78018 0.0
O282 O 0.90397 0.48815 0.79195 0.0
C283 C 0.81604 0.4465 0.78654 0.0
O284 O 0.83704 0.51972 0.7029 0.0
O285 O 0.81188 0.53037 0.75263 0.0
In286 In 0.74987 0.36458 0.45821 0.0
O287 O 0.71901 0.38496 0.50609 0.0
O288 O 0.70861 0.40897 0.45564 0.0
C289 C 0.72125 0.31916 0.41089 0.0
C290 C 0.79729 0.4108 0.43097 0.0
C291 C 0.77581 0.31935 0.50696 0.0
O292 O 0.70349 0.34384 0.42534 0.0
O293 O 0.75386 0.3183 0.41938 0.0
O294 O 0.79602 0.33906 0.48835 0.0
O295 O 0.74286 0.32269 0.50087 0.0
C296 C 0.70175 0.40795 0.48867 0.0
O297 O 0.79191 0.40771 0.46412 0.0
O298 O 0.7796 0.38956 0.41163 0.0
In299 In 0.61358 0.47405 0.23598 0.0
O300 O 0.58862 0.42717 0.26511 0.0
O301 O 0.57048 0.47936 0.27826 0.0
C302 C 0.6588 0.42499 0.21057 0.0
C303 C 0.56905 0.50452 0.18896 0.0
C304 C 0.65755 0.52408 0.26207 0.0
O305 O 0.65801 0.43402 0.24305 0.0
O306 O 0.63637 0.44057 0.19081 0.0
O307 O 0.63649 0.50663 0.28195 0.0
O308 O 0.65663 0.51579 0.22939 0.0
C309 C 0.56745 0.44615 0.28313 0.0
O310 O 0.5939 0.52139 0.20416 0.0
O311 O 0.56755 0.47167 0.19633 0.0
Sc312 Sc 0.06915 0.13596 0.10382 0.0
Sc313 Sc 0.10732 0.05777 0.13481 0.0
Sc314 Sc 0.14414 0.10131 0.0616 0.0
O315 O 0.10666 0.09817 0.09976 0.0
C316 C 0.07317 0.12699 0.02136 0.0
C317 C 0.02626 0.06401 0.12206 0.0
C318 C 0.13128 0.01971 0.06192 0.0
C319 C 0.08615 0.12379 0.18395 0.0
C320 C 0.13871 0.18103 0.08491 0.0
C321 C 0.188 0.07695 0.13014 0.0
O322 O 0.05392 0.12844 0.04934 0.0
O323 O 0.0535 0.04381 0.12186 0.0
O324 O 0.13284 0.04827 0.04369 0.0
O325 O 0.08305 0.14568 0.15827 0.0
O326 O 0.15799 0.15413 0.07784 0.0
O327 O 0.16071 0.07096 0.14944 0.0
O328 O 0.1051 0.17889 0.08961 0.0
O329 O 0.08947 0.09031 0.17916 0.0
O330 O 0.18616 0.08262 0.09662 0.0
O331 O 0.02855 0.09788 0.11955 0.0
O332 O 0.1067 0.12114 0.02227 0.0
O333 O 0.12602 0.01966 0.09556 0.0
Sc334 Sc 0.15685 0.86576 0.40576 0.0
Sc335 Sc 0.0791 0.83172 0.36892 0.0
Sc336 Sc 0.11246 0.91262 0.33882 0.0
O337 O 0.11611 0.87026 0.37131 0.0
C338 C 0.13939 0.94675 0.41247 0.0
C339 C 0.08953 0.83734 0.45058 0.0
C340 C 0.03247 0.9019 0.35657 0.0
C341 C 0.15037 0.78725 0.38097 0.0
C342 C 0.19443 0.89749 0.336 0.0
C343 C 0.09128 0.84725 0.28845 0.0
O344 O 0.14577 0.91714 0.42771 0.0
O345 O 0.06791 0.83795 0.42442 0.0
O346 O 0.0589 0.92321 0.35564 0.0
O347 O 0.17033 0.81433 0.38533 0.0
O348 O 0.16546 0.90426 0.31979 0.0
O349 O 0.08967 0.82442 0.3135 0.0
O350 O 0.19553 0.88793 0.36867 0.0
O351 O 0.11649 0.78945 0.37986 0.0
O352 O 0.094 0.88073 0.29407 0.0
O353 O 0.12309 0.84236 0.44699 0.0
O354 O 0.13093 0.94924 0.37958 0.0
O355 O 0.03622 0.86817 0.3572 0.0
Sc356 Sc 0.40059 0.81687 0.62078 0.0
Sc357 Sc 0.32805 0.86017 0.58248 0.0
Sc358 Sc 0.35869 0.88663 0.66541 0.0
O359 O 0.36245 0.85426 0.62295 0.0
C360 C 0.38183 0.81294 0.70153 0.0
C361 C 0.33129 0.77733 0.58956 0.0
C362 C 0.27908 0.87286 0.65143 0.0
C363 C 0.40036 0.84243 0.5414 0.0
C364 C 0.44071 0.88557 0.65172 0.0
C365 C 0.34189 0.9392 0.60079 0.0
O366 O 0.38657 0.79651 0.67225 0.0
O367 O 0.31269 0.80551 0.58648 0.0
O368 O 0.30446 0.87099 0.6739 0.0
O369 O 0.4178 0.8345 0.56932 0.0
O370 O 0.41246 0.90337 0.65756 0.0
O371 O 0.34247 0.91505 0.57696 0.0
O372 O 0.44054 0.85254 0.64327 0.0
O373 O 0.36686 0.84793 0.54167 0.0
O374 O 0.34191 0.93211 0.63406 0.0
O375 O 0.36439 0.7777 0.59775 0.0
O376 O 0.3754 0.84624 0.70298 0.0
O377 O 0.28441 0.8737 0.61781 0.0
Sc378 Sc 0.35433 0.09271 0.81183 0.0
Sc379 Sc 0.39352 0.16285 0.85854 0.0
Sc380 Sc 0.31476 0.12513 0.88918 0.0
O381 O 0.35398 0.12714 0.85282 0.0
C382 C 0.27311 0.10776 0.81649 0.0
C383 C 0.38124 0.16615 0.7766 0.0
C384 C 0.32412 0.20653 0.8833 0.0
C385 C 0.43525 0.09396 0.83164 0.0
C386 C 0.33108 0.04446 0.87785 0.0
C387 C 0.38339 0.13898 0.93703 0.0
O388 O 0.30093 0.1065 0.79703 0.0
O389 O 0.3845 0.183 0.80595 0.0
O390 O 0.30273 0.18021 0.88094 0.0
O391 O 0.40728 0.07614 0.8245 0.0
O392 O 0.32617 0.07041 0.89913 0.0
O393 O 0.40458 0.14344 0.91091 0.0
O394 O 0.33581 0.04851 0.84435 0.0
O395 O 0.43458 0.1271 0.83917 0.0
O396 O 0.34961 0.13808 0.93333 0.0
O397 O 0.37394 0.13289 0.77502 0.0
O398 O 0.27455 0.11091 0.85033 0.0
O399 O 0.35785 0.20325 0.87974 0.0
Sc400 Sc 0.64392 0.36742 0.91991 0.0
Sc401 Sc 0.57555 0.32551 0.87271 0.0
Sc402 Sc 0.60799 0.40721 0.84447 0.0
O403 O 0.60899 0.3668 0.87935 0.0
C404 C 0.62419 0.44744 0.91818 0.0
C405 C 0.57249 0.33564 0.95524 0.0
C406 C 0.5274 0.393 0.85211 0.0
C407 C 0.64736 0.28743 0.89697 0.0
C408 C 0.68959 0.39584 0.85375 0.0
C409 C 0.59614 0.33981 0.79407 0.0
O410 O 0.62689 0.41919 0.93669 0.0
O411 O 0.55587 0.33161 0.92589 0.0
O412 O 0.55256 0.41574 0.85463 0.0
O413 O 0.6635 0.31608 0.90528 0.0
O414 O 0.66302 0.39915 0.83295 0.0
O415 O 0.59415 0.31736 0.81939 0.0
O416 O 0.68644 0.38993 0.88719 0.0
O417 O 0.61418 0.28628 0.88968 0.0
O418 O 0.59564 0.37336 0.79937 0.0
O419 O 0.60539 0.34454 0.95689 0.0
O420 O 0.62101 0.44687 0.88433 0.0
O421 O 0.53267 0.35944 0.85398 0.0
Sc422 Sc 0.91239 0.32549 0.11436 0.0
Sc423 Sc 0.86642 0.39144 0.16111 0.0
Sc424 Sc 0.83306 0.35873 0.08107 0.0
O425 O 0.87063 0.35859 0.11903 0.0
C426 C 0.90464 0.34909 0.03592 0.0
C427 C 0.94839 0.3958 0.14668 0.0
C428 C 0.84287 0.43995 0.09506 0.0
C429 C 0.8941 0.31832 0.19528 0.0
C430 C 0.84689 0.27788 0.08693 0.0
C431 C 0.78666 0.37063 0.15161 0.0
O432 O 0.92511 0.3464 0.06282 0.0
O433 O 0.9191 0.41167 0.15272 0.0
O434 O 0.84113 0.41437 0.0728 0.0
O435 O 0.90133 0.30337 0.16566 0.0
O436 O 0.82413 0.30294 0.08828 0.0
O437 O 0.81329 0.37364 0.17238 0.0
O438 O 0.88033 0.28315 0.09085 0.0
O439 O 0.88539 0.35112 0.19793 0.0
O440 O 0.78992 0.36912 0.11782 0.0
O441 O 0.95001 0.36325 0.13698 0.0
O442 O 0.87076 0.34869 0.03867 0.0
O443 O 0.84706 0.43526 0.12857 0.0
Sc444 Sc 0.85546 0.59531 0.30838 0.0
Sc445 Sc 0.8907 0.66979 0.35089 0.0
Sc446 Sc 0.81916 0.62377 0.38839 0.0
O447 O 0.85483 0.63004 0.34902 0.0
C448 C 0.77451 0.60375 0.31788 0.0
C449 C 0.876 0.66891 0.26974 0.0
C450 C 0.81869 0.70624 0.37975 0.0
C451 C 0.93631 0.60291 0.32554 0.0
C452 C 0.83904 0.54493 0.37469 0.0
C453 C 0.88932 0.646 0.43074 0.0
O454 O 0.80082 0.6064 0.29649 0.0
O455 O 0.87703 0.68726 0.29827 0.0
O456 O 0.80095 0.67731 0.38183 0.0
O457 O 0.90954 0.58273 0.32013 0.0
O458 O 0.83641 0.57024 0.3971 0.0
O459 O 0.90711 0.65416 0.40304 0.0
O460 O 0.84002 0.55024 0.34111 0.0
O461 O 0.9336 0.63645 0.33073 0.0
O462 O 0.85589 0.63975 0.43007 0.0
O463 O 0.87199 0.63514 0.26989 0.0
O464 O 0.77808 0.60579 0.35173 0.0
O465 O 0.85199 0.70717 0.37237 0.0
Sc466 Sc 0.89958 0.81431 0.85393 0.0
Sc467 Sc 0.82657 0.85693 0.89161 0.0
Sc468 Sc 0.85862 0.88469 0.80956 0.0
O469 O 0.8614 0.85156 0.85144 0.0
C470 C 0.94059 0.88255 0.82368 0.0
C471 C 0.89849 0.83965 0.93299 0.0
C472 C 0.8434 0.9361 0.87525 0.0
C473 C 0.83008 0.77454 0.88518 0.0
C474 C 0.88141 0.81065 0.77321 0.0
C475 C 0.77853 0.87293 0.82265 0.0
O476 O 0.94001 0.84938 0.83138 0.0
O477 O 0.86475 0.84345 0.93258 0.0
O478 O 0.84292 0.93013 0.84174 0.0
O479 O 0.86338 0.77543 0.87769 0.0
O480 O 0.87499 0.84401 0.77192 0.0
O481 O 0.78356 0.87224 0.85631 0.0
O482 O 0.88563 0.79396 0.80243 0.0
O483 O 0.81074 0.80239 0.88645 0.0
O484 O 0.80404 0.87059 0.80032 0.0
O485 O 0.91646 0.83281 0.90509 0.0
O486 O 0.91253 0.90061 0.81795 0.0
O487 O 0.84214 0.91129 0.89832 0.0
Sc488 Sc 0.81688 0.11601 0.57681 0.0
Sc489 Sc 0.89498 0.1529 0.61058 0.0
Sc490 Sc 0.85216 0.08465 0.65659 0.0
O491 O 0.85449 0.11803 0.61483 0.0
C492 C 0.77195 0.10346 0.64855 0.0
C493 C 0.82832 0.19769 0.58169 0.0
C494 C 0.87886 0.15803 0.69175 0.0
C495 C 0.88844 0.1268 0.53207 0.0
C496 C 0.8283 0.03517 0.59153 0.0
C497 C 0.93361 0.08337 0.64028 0.0
O498 O 0.77442 0.10506 0.61462 0.0
O499 O 0.86164 0.19389 0.58736 0.0
O500 O 0.87151 0.12482 0.69342 0.0
O501 O 0.85449 0.1258 0.53398 0.0
O502 O 0.83265 0.0403 0.6249 0.0
O503 O 0.93385 0.11642 0.6324 0.0
O504 O 0.82608 0.06048 0.56911 0.0
O505 O 0.90819 0.13248 0.55906 0.0
O506 O 0.90502 0.06604 0.64621 0.0
O507 O 0.80639 0.17173 0.58242 0.0
O508 O 0.79904 0.10124 0.66883 0.0
O509 O 0.88377 0.17433 0.66234 0.0
Sc510 Sc 0.60513 0.06868 0.33327 0.0
Sc511 Sc 0.64834 0.11262 0.40269 0.0
Sc512 Sc 0.57466 0.15115 0.36197 0.0
O513 O 0.60932 0.11073 0.36612 0.0
C514 C 0.58746 0.13425 0.28202 0.0
C515 C 0.6875 0.07973 0.33446 0.0
C516 C 0.64825 0.19141 0.37659 0.0
C517 C 0.62672 0.03262 0.40756 0.0
C518 C 0.52527 0.08268 0.34847 0.0
C519 C 0.58122 0.14518 0.44438 0.0
O520 O 0.58888 0.10083 0.2881 0.0
O521 O 0.68715 0.08848 0.36737 0.0
O522 O 0.61441 0.19144 0.37341 0.0
O523 O 0.6206 0.03105 0.37412 0.0
O524 O 0.53028 0.11632 0.34904 0.0
O525 O 0.61429 0.13738 0.44234 0.0
O526 O 0.55084 0.06045 0.34868 0.0
O527 O 0.63305 0.06178 0.42375 0.0
O528 O 0.56095 0.14673 0.4172 0.0
O529 O 0.6592 0.0752 0.31627 0.0
O530 O 0.58727 0.15743 0.30679 0.0
O531 O 0.66592 0.16334 0.38336 0.0
Sc532 Sc 0.65391 0.86716 0.06656 0.0
Sc533 Sc 0.5759 0.83489 0.10489 0.0
Sc534 Sc 0.61305 0.91376 0.13563 0.0
O535 O 0.61405 0.87223 0.10193 0.0
C536 C 0.69359 0.89356 0.13696 0.0
C537 C 0.64562 0.78861 0.09165 0.0
C538 C 0.58941 0.84925 0.18532 0.0
C539 C 0.58505 0.84035 0.02286 0.0
C540 C 0.64215 0.94875 0.06295 0.0
C541 C 0.53282 0.90747 0.11882 0.0
O542 O 0.69395 0.8869 0.10354 0.0
O543 O 0.61179 0.79128 0.09343 0.0
O544 O 0.59243 0.88268 0.17991 0.0
O545 O 0.61866 0.84549 0.02569 0.0
O546 O 0.63455 0.95018 0.09613 0.0
O547 O 0.53499 0.87354 0.11763 0.0
O548 O 0.64463 0.9195 0.04592 0.0
O549 O 0.56394 0.84123 0.0495 0.0
O550 O 0.56023 0.92761 0.11912 0.0
O551 O 0.6659 0.81517 0.08595 0.0
O552 O 0.66519 0.90078 0.15402 0.0
O553 O 0.58722 0.8267 0.16007 0.0
Sc554 Sc 0.32962 0.61695 0.08635 0.0
Sc555 Sc 0.40856 0.65295 0.11874 0.0
Sc556 Sc 0.3644 0.58642 0.16629 0.0
O557 O 0.36744 0.619 0.12397 0.0
C558 C 0.28492 0.60593 0.15847 0.0
C559 C 0.34165 0.69857 0.09129 0.0
C560 C 0.39399 0.65923 0.20017 0.0
C561 C 0.40039 0.62778 0.04033 0.0
C562 C 0.33942 0.53643 0.10201 0.0
C563 C 0.4454 0.58213 0.14795 0.0
O564 O 0.28755 0.60613 0.12453 0.0
O565 O 0.37516 0.69462 0.09614 0.0
O566 O 0.38571 0.62628 0.2025 0.0
O567 O 0.36651 0.62691 0.043 0.0
O568 O 0.3429 0.54224 0.13539 0.0
O569 O 0.44691 0.61514 0.13979 0.0
O570 O 0.33878 0.56131 0.07898 0.0
O571 O 0.42071 0.63244 0.06704 0.0
O572 O 0.41632 0.56615 0.15514 0.0
O573 O 0.31963 0.67267 0.09224 0.0
O574 O 0.31201 0.60496 0.17886 0.0
O575 O 0.39881 0.67492 0.17047 0.0
Sc576 Sc 0.11356 0.56426 0.83697 0.0
Sc577 Sc 0.15854 0.60969 0.90447 0.0
Sc578 Sc 0.08448 0.64752 0.86386 0.0
O579 O 0.11886 0.60706 0.86861 0.0
C580 C 0.0961 0.62872 0.78431 0.0
C581 C 0.19596 0.57555 0.83576 0.0
C582 C 0.1582 0.68801 0.87778 0.0
C583 C 0.1371 0.52986 0.9115 0.0
C584 C 0.0343 0.5792 0.85321 0.0
C585 C 0.09165 0.64279 0.94631 0.0
O586 O 0.09648 0.59544 0.79129 0.0
O587 O 0.19675 0.58482 0.86857 0.0
O588 O 0.12436 0.68785 0.87464 0.0
O589 O 0.13006 0.5275 0.87828 0.0
O590 O 0.03974 0.61276 0.85207 0.0
O591 O 0.12485 0.6353 0.94432 0.0
O592 O 0.05962 0.5567 0.8539 0.0
O593 O 0.14364 0.5594 0.92685 0.0
O594 O 0.0713 0.64384 0.91916 0.0
O595 O 0.16711 0.57045 0.81865 0.0
O596 O 0.09685 0.65254 0.80848 0.0
O597 O 0.17601 0.65996 0.88411 0.0
Sc598 Sc 0.13787 0.36548 0.56673 0.0
Sc599 Sc 0.06205 0.33074 0.60696 0.0
Sc600 Sc 0.09975 0.40925 0.63884 0.0
O601 O 0.09952 0.36887 0.60384 0.0
C602 C 0.18093 0.39242 0.63463 0.0
C603 C 0.13242 0.28663 0.5913 0.0
C604 C 0.0801 0.34224 0.68717 0.0
C605 C 0.06828 0.33725 0.52526 0.0
C606 C 0.12278 0.4466 0.56505 0.0
C607 C 0.01848 0.40171 0.62663 0.0
O608 O 0.17922 0.38646 0.6012 0.0
O609 O 0.09849 0.2883 0.59274 0.0
O610 O 0.08319 0.37588 0.68317 0.0
O611 O 0.10181 0.34282 0.52753 0.0
O612 O 0.11719 0.44719 0.5987 0.0
O613 O 0.02087 0.36794 0.62321 0.0
O614 O 0.12569 0.41772 0.54738 0.0
O615 O 0.04763 0.33845 0.55225 0.0
O616 O 0.04563 0.42216 0.6264 0.0
O617 O 0.15198 0.31378 0.58565 0.0
O618 O 0.15345 0.39773 0.65375 0.0
O619 O 0.07586 0.32089 0.66116 0.0
Sc620 Sc 0.57038 0.63468 0.60395 0.0
Sc621 Sc 0.60735 0.55653 0.63662 0.0
Sc622 Sc 0.65111 0.60526 0.57052 0.0
O623 O 0.60952 0.5985 0.60354 0.0
C624 C 0.58435 0.63034 0.52323 0.0
C625 C 0.52728 0.56205 0.61719 0.0
C626 C 0.63767 0.52357 0.56355 0.0
C627 C 0.58193 0.62167 0.68511 0.0
C628 C 0.63967 0.6831 0.59437 0.0
C629 C 0.68833 0.57592 0.64111 0.0
O630 O 0.56148 0.62695 0.54816 0.0
O631 O 0.55484 0.54247 0.61901 0.0
O632 O 0.64286 0.55345 0.54828 0.0
O633 O 0.579 0.64359 0.65939 0.0
O634 O 0.66123 0.65714 0.59182 0.0
O635 O 0.65931 0.56813 0.65682 0.0
O636 O 0.60594 0.67892 0.59327 0.0
O637 O 0.58649 0.58822 0.68057 0.0
O638 O 0.68978 0.58484 0.60831 0.0
O639 O 0.52916 0.59592 0.61547 0.0
O640 O 0.61788 0.62748 0.52852 0.0
O641 O 0.62867 0.5207 0.59635 0.0
Sc642 Sc 0.32426 0.36291 0.40727 0.0
Sc643 Sc 0.35607 0.39017 0.32471 0.0
Sc644 Sc 0.39533 0.31844 0.36789 0.0
O645 O 0.35833 0.35691 0.36644 0.0
C646 C 0.39733 0.34501 0.44651 0.0
C647 C 0.34233 0.44188 0.39079 0.0
C648 C 0.4382 0.38427 0.33515 0.0
C649 C 0.27547 0.38004 0.33915 0.0
C650 C 0.32631 0.28056 0.40184 0.0
C651 C 0.37364 0.31492 0.28811 0.0
O652 O 0.36359 0.34911 0.44717 0.0
O653 O 0.34281 0.43598 0.35727 0.0
O654 O 0.43602 0.35125 0.34298 0.0
O655 O 0.28054 0.37876 0.37281 0.0
O656 O 0.3594 0.28098 0.39367 0.0
O657 O 0.3693 0.34863 0.2869 0.0
O658 O 0.30728 0.3086 0.40282 0.0
O659 O 0.30088 0.37815 0.31668 0.0
O660 O 0.37847 0.29812 0.3172 0.0
O661 O 0.34041 0.41705 0.41378 0.0
O662 O 0.41434 0.33744 0.41815 0.0
O663 O 0.41096 0.40402 0.33134 0.0
C664 C 0.07294 0.18848 0.25973 0.0
C665 C 0.05913 0.16581 0.28626 0.0
H666 H 0.0926 0.19277 0.20628 0.0
C667 C 0.06008 0.12867 0.2811 0.0
H668 H 0.07286 0.21723 0.26319 0.0
C669 C 0.07143 0.11461 0.24846 0.0
C670 C 0.08172 0.13758 0.22056 0.0
H671 H 0.04983 0.1106 0.30131 0.0
H672 H 0.06976 0.086 0.24434 0.0
C673 C 0.08403 0.17448 0.22707 0.0
C674 C 0.02352 0.81029 0.52133 0.0
C675 C 0.04489 0.78881 0.54333 0.0
H676 H 0.0212 0.84306 0.47465 0.0
C677 C 0.08206 0.78826 0.53801 0.0
H678 H -0.00518 0.8115 0.5251 0.0
C679 C 0.09725 0.80664 0.50926 0.0
C680 C 0.07536 0.82545 0.48531 0.0
H681 H 0.09916 0.77213 0.55486 0.0
H682 H 0.12568 0.80401 0.5044 0.0
C683 C 0.03861 0.82834 0.49245 0.0
C684 C 0.41422 0.79574 0.79503 0.0
C685 C 0.42183 0.7591 0.79319 0.0
H686 H 0.39465 0.84161 0.76746 0.0
C687 C 0.41021 0.73925 0.76354 0.0
H688 H 0.42249 0.81153 0.81788 0.0
C689 C 0.39441 0.75645 0.73456 0.0
C690 C 0.3898 0.79371 0.73495 0.0
H691 H 0.41541 0.71085 0.76168 0.0
H692 H 0.38776 0.74085 0.71106 0.0
C693 C 0.39813 0.81291 0.76619 0.0
C694 C 0.4509 0.14408 0.01108 0.0
C695 C 0.42924 0.15514 0.03962 0.0
H696 H 0.45314 0.13001 0.95582 0.0
C697 C 0.39191 0.15414 0.036 0.0
H698 H 0.47977 0.14414 0.01337 0.0
C699 C 0.37661 0.14611 0.003 0.0
C700 C 0.39853 0.13916 0.97329 0.0
H701 H 0.37462 0.16217 0.05783 0.0
H702 H 0.34784 0.14796 0.00025 0.0
C703 C 0.43565 0.13623 0.97807 0.0
C704 C 0.07961 0.78383 0.21155 0.0
C705 C 0.06392 0.80619 0.18596 0.0
H706 H 0.10096 0.77954 0.26422 0.0
C707 C 0.06272 0.84319 0.19203 0.0
H708 H 0.08128 0.75524 0.2073 0.0
C709 C 0.07399 0.85718 0.22474 0.0
C710 C 0.0864 0.83424 0.25169 0.0
H711 H 0.05095 0.86102 0.17253 0.0
H712 H 0.07074 0.88551 0.2297 0.0
C713 C 0.0907 0.79773 0.2442 0.0
C714 C 0.41768 0.82898 0.44322 0.0
C715 C 0.45484 0.82387 0.44324 0.0
H716 H 0.37108 0.83932 0.47457 0.0
C717 C 0.47446 0.83108 0.47438 0.0
H718 H 0.40201 0.82394 0.41938 0.0
C719 C 0.45679 0.83961 0.50602 0.0
C720 C 0.41926 0.84126 0.50688 0.0
H721 H 0.50321 0.82768 0.47498 0.0
H722 H 0.47241 0.84293 0.53019 0.0
C723 C 0.39999 0.83776 0.47483 0.0
C724 C 0.41817 0.18168 0.68432 0.0
C725 C 0.42711 0.21806 0.68626 0.0
H726 H 0.39578 0.13665 0.71136 0.0
C727 C 0.41541 0.23839 0.71551 0.0
H728 H 0.42651 0.16553 0.66176 0.0
C729 C 0.39786 0.2219 0.74397 0.0
C730 C 0.39166 0.18484 0.7435 0.0
H731 H 0.42159 0.26663 0.71742 0.0
H732 H 0.39096 0.23788 0.76713 0.0
C733 C 0.40042 0.1652 0.71268 0.0
C734 C 0.00465 0.1603 0.95597 0.0
C735 C 0.02669 0.17345 0.92857 0.0
H736 H 0.00209 0.13453 0.00681 0.0
C737 C 0.06335 0.1656 0.92897 0.0
H738 H 0.97618 0.16556 0.95604 0.0
C739 C 0.07826 0.1477 0.95804 0.0
C740 C 0.0567 0.13762 0.98718 0.0
H741 H 0.08086 0.1751 0.9079 0.0
H742 H 0.10697 0.144 0.9587 0.0
C743 C 0.01952 0.14254 0.98506 0.0
C744 C 0.28569 0.0577 0.14389 0.0
C745 C 0.28745 0.05694 0.18141 0.0
H746 H 0.25245 0.06488 0.09796 0.0
C747 C 0.25799 0.06832 0.20158 0.0
H748 H 0.30822 0.04929 0.12774 0.0
C749 C 0.22606 0.07684 0.18462 0.0
C750 C 0.22326 0.07442 0.14722 0.0
H751 H 0.25877 0.06827 0.23055 0.0
H752 H 0.20311 0.08367 0.20092 0.0
C753 C 0.25378 0.06653 0.12686 0.0
C754 C 0.16358 0.00749 0.48895 0.0
C755 C 0.17318 0.0387 0.47052 0.0
H756 H 0.1449 0.95369 0.48487 0.0
C757 C 0.16642 0.04127 0.4337 0.0
H758 H 0.16824 0.00499 0.51743 0.0
C759 C 0.15286 0.01199 0.41504 0.0
C760 C 0.14623 0.97965 0.43294 0.0
H761 H 0.17327 0.06526 0.41898 0.0
H762 H 0.14974 0.01406 0.38632 0.0
C763 C 0.15032 0.97812 0.47028 0.0
C764 C 0.20619 0.89907 0.71509 0.0
C765 C 0.1817 0.91475 0.69146 0.0
H766 H 0.25624 0.87253 0.72082 0.0
C767 C 0.18609 0.91019 0.6545 0.0
H768 H 0.203 0.90164 0.74378 0.0
C769 C 0.21654 0.89336 0.64129 0.0
C770 C 0.24304 0.8811 0.66492 0.0
H771 H 0.16723 0.92159 0.63576 0.0
H772 H 0.22044 0.8924 0.61259 0.0
C773 C 0.23664 0.88232 0.70192 0.0
C774 C 0.31472 0.9454 0.88601 0.0
C775 C 0.315 0.94131 0.92336 0.0
H776 H 0.31962 0.98168 0.84205 0.0
C777 C 0.32569 0.96999 0.94502 0.0
H778 H 0.30673 0.92357 0.86871 0.0
C779 C 0.33267 0.00319 0.92987 0.0
C780 C 0.3293 0.00818 0.89278 0.0
H781 H 0.32644 0.96745 0.97388 0.0
H782 H 0.33921 0.02531 0.94742 0.0
C783 C 0.32193 0.97866 0.87077 0.0
C784 C 0.25808 0.9174 0.26048 0.0
C785 C 0.28922 0.9265 0.27929 0.0
H786 H 0.20351 0.90093 0.26385 0.0
C787 C 0.29053 0.92115 0.31646 0.0
H788 H 0.25643 0.92108 0.23179 0.0
C789 C 0.26019 0.90956 0.3349 0.0
C790 C 0.22809 0.90349 0.31641 0.0
H791 H 0.31436 0.92778 0.33155 0.0
H792 H 0.26135 0.90744 0.36377 0.0
C793 C 0.22772 0.90613 0.2789 0.0
C794 C 0.327 0.01788 0.54044 0.0
C795 C 0.30911 0.04126 0.56367 0.0
H796 H 0.35186 0.967 0.5342 0.0
C797 C 0.30804 0.03368 0.60041 0.0
H798 H 0.32862 0.02335 0.51203 0.0
C799 C 0.32145 0.00139 0.61317 0.0
C800 C 0.33585 0.97626 0.58924 0.0
H801 H 0.29468 0.05149 0.61892 0.0
H802 H 0.31811 -0.00488 0.64126 0.0
C803 C 0.34018 0.98556 0.55312 0.0
C804 C 0.20664 0.07614 0.74808 0.0
C805 C 0.17913 0.06349 0.77033 0.0
H806 H 0.25802 0.10097 0.74525 0.0
C807 C 0.17968 0.07185 0.80689 0.0
H808 H 0.20655 0.07054 0.71965 0.0
C809 C 0.20907 0.08951 0.82158 0.0
C810 C 0.23845 0.09877 0.79993 0.0
H811 H 0.15848 0.06286 0.82451 0.0
H812 H 0.20981 0.09346 0.85028 0.0
C813 C 0.2361 0.09364 0.76276 0.0
C814 C 0.16402 0.95629 -0.00893 0.0
C815 C 0.17828 0.9289 0.01227 0.0
H816 H 0.13724 0.00661 -0.00976 0.0
C817 C 0.17136 0.92857 0.04915 0.0
H818 H 0.16864 0.95692 0.96247 0.0
C819 C 0.15312 0.95686 0.06507 0.0
C820 C 0.14189 0.98608 0.04434 0.0
H821 H 0.18168 0.90746 0.06601 0.0
H822 H 0.15011 0.95693 0.09389 0.0
C823 C 0.14604 0.98473 0.00699 0.0
C824 C 0.15225 0.28026 0.07488 0.0
C825 C 0.18969 0.28224 0.07296 0.0
H826 H 0.1065 0.24633 0.0803 0.0
C827 C 0.21012 0.25183 0.08054 0.0
H828 H 0.1359 0.30346 0.06937 0.0
C829 C 0.19336 0.21912 0.08641 0.0
C830 C 0.15591 0.21641 0.08504 0.0
H831 H 0.23906 0.25272 0.07953 0.0
H832 H 0.20983 0.19568 0.09033 0.0
C833 C 0.13544 0.24754 0.081 0.0
C834 C 0.66944 0.19 0.9083 0.0
C835 C 0.70679 0.19159 0.9117 0.0
H836 H 0.62111 0.21936 0.90075 0.0
C837 C 0.72469 0.22392 0.90528 0.0
H838 H 0.65505 0.16526 0.91292 0.0
C839 C 0.7053 0.2549 0.89873 0.0
C840 C 0.66774 0.25393 0.8982 0.0
H841 H 0.75351 0.22579 0.90755 0.0
H842 H 0.71971 0.27986 0.89556 0.0
C843 C 0.65002 0.22097 0.90143 0.0
C844 C 0.04277 0.41469 0.17642 0.0
C845 C 0.0414 0.45178 0.18191 0.0
H846 H 0.01429 0.36773 0.16038 0.0
C847 C 0.01109 0.47083 0.17099 0.0
H848 H 0.06601 0.39945 0.1844 0.0
C849 C 0.98141 0.4527 0.15759 0.0
C850 C 0.98173 0.41526 0.15456 0.0
H851 H 0.00944 0.49949 0.17476 0.0
H852 H 0.95768 0.46787 0.15103 0.0
C853 C 0.0132 0.39656 0.16263 0.0
C854 C 0.74734 0.76773 0.41464 0.0
C855 C 0.76815 0.79553 0.42886 0.0
H856 H 0.74707 0.7177 0.3872 0.0
C857 C 0.80496 0.79668 0.42155 0.0
H858 H 0.7188 0.76645 0.41951 0.0
C859 C 0.82119 0.76884 0.40284 0.0
C860 C 0.80085 0.73933 0.39145 0.0
H861 H 0.82153 0.81811 0.43188 0.0
H862 H 0.84995 0.76936 0.39947 0.0
C863 C 0.76355 0.73982 0.39613 0.0
C864 C 0.9342 0.056 0.16151 0.0
C865 C 0.93293 0.01933 0.16902 0.0
H866 H 0.9647 0.09906 0.13973 0.0
C867 C 0.95929 -0.00327 0.15492 0.0
H868 H 0.91384 0.0739 0.17163 0.0
C869 C -0.01159 0.01104 0.13661 0.0
C870 C -0.00842 0.04819 0.13216 0.0
H871 H 0.95856 0.96821 0.15982 0.0
H872 H 0.00948 -0.00682 0.12801 0.0
C873 C 0.96328 0.07035 0.14308 0.0
C874 C 0.26067 0.71165 0.56078 0.0
C875 C 0.28171 0.68342 0.54805 0.0
H876 H 0.25998 0.76351 0.58442 0.0
C877 C 0.31877 0.6839 0.55406 0.0
H878 H 0.23198 0.71176 0.55683 0.0
C879 C 0.3349 0.71359 0.56991 0.0
C880 C 0.31415 0.74324 0.57975 0.0
H881 H 0.33554 0.66225 0.54474 0.0
H882 H 0.36375 0.71418 0.57239 0.0
C883 C 0.27676 0.74133 0.57645 0.0
C884 C 0.03463 0.59 0.30802 0.0
C885 C 0.03711 0.55258 0.30986 0.0
H886 H 0.00035 0.63557 0.31163 0.0
C887 C 0.00774 0.53264 0.32198 0.0
H888 H 0.05705 0.60599 0.29892 0.0
C889 C 0.97535 0.54946 0.3288 0.0
C890 C 0.97191 0.58651 0.32391 0.0
H891 H 0.00903 0.50379 0.32391 0.0
H892 H 0.95257 0.53318 0.33643 0.0
C893 C 0.0022 0.60691 0.31515 0.0
C894 C 0.45555 0.45571 0.82145 0.0
C895 C 0.4326 0.4321 0.8034 0.0
H896 H 0.50339 0.4617 0.85191 0.0
C897 C 0.4377 0.39515 0.80674 0.0
H898 H 0.45183 0.48435 0.81979 0.0
C899 C 0.46722 0.38209 0.82533 0.0
C900 C 0.49207 0.40589 0.84062 0.0
H901 H 0.42007 0.3764 0.79339 0.0
H902 H 0.47176 0.35353 0.8256 0.0
C903 C 0.48504 0.44272 0.83992 0.0
C904 C 0.91604 0.79478 0.68019 0.0
C905 C 0.92454 0.75834 0.68192 0.0
H906 H 0.8947 0.83996 0.70764 0.0
C907 C 0.91294 0.73806 0.71128 0.0
H908 H 0.92425 0.81088 0.65754 0.0
C909 C 0.89606 0.75467 0.74005 0.0
C910 C 0.8904 0.79179 0.73978 0.0
H911 H 0.91878 0.70978 0.71303 0.0
H912 H 0.88937 0.73876 0.76333 0.0
C913 C 0.89891 0.81136 0.70883 0.0
C914 C 0.96041 0.12996 0.4622 0.0
C915 C 0.94072 0.14122 0.43238 0.0
H916 H 0.95899 0.11619 0.51754 0.0
C917 C 0.90322 0.1403 0.43363 0.0
H918 H -0.01063 0.1299 0.46174 0.0
C919 C 0.88575 0.13254 0.46565 0.0
C920 C 0.90568 0.12575 0.49672 0.0
H921 H 0.88742 0.14845 0.41078 0.0
H922 H 0.85689 0.13472 0.46664 0.0
C923 C 0.943 0.12235 0.4942 0.0
C924 C 0.54798 0.13772 0.18992 0.0
C925 C 0.54837 0.17473 0.18388 0.0
H926 H 0.5608 0.09549 0.22611 0.0
C927 C 0.56813 0.19705 0.20666 0.0
H928 H 0.53324 0.11991 0.17243 0.0
C929 C 0.58384 0.18315 0.23731 0.0
C930 C 0.58004 0.14673 0.24553 0.0
H931 H 0.56936 0.22563 0.20221 0.0
H932 H 0.59686 0.20135 0.25575 0.0
C933 C 0.56385 0.12375 0.22059 0.0
C934 C 0.51841 0.80816 0.95482 0.0
C935 C 0.5405 0.78889 0.93142 0.0
H936 H 0.51536 0.8403 0.0019 0.0
C937 C 0.57778 0.79154 0.93499 0.0
H938 H 0.48957 0.80699 0.95239 0.0
C939 C 0.59264 0.81089 0.9633 0.0
C940 C 0.57036 0.8276 -0.01146 0.0
H941 H 0.59541 0.77719 0.91705 0.0
H942 H 0.62139 0.81069 0.96671 0.0
C943 C 0.5332 0.82729 0.98315 0.0
C944 C 0.90421 0.17529 0.78764 0.0
C945 C 0.91515 0.21112 0.78588 0.0
H946 H 0.8835 0.13035 0.75919 0.0
C947 C 0.90854 0.23089 0.75472 0.0
H948 H 0.90864 0.15958 0.81156 0.0
C949 C 0.89434 0.21414 0.72459 0.0
C950 C 0.8864 0.1774 0.72527 0.0
H951 H 0.91645 0.2587 0.75281 0.0
H952 H 0.89145 0.22956 0.70026 0.0
C953 C 0.8898 0.15857 0.75761 0.0
C954 C 0.5159 0.1775 0.51381 0.0
C955 C 0.53916 0.19005 0.54045 0.0
H956 H 0.51103 0.15308 0.46243 0.0
C957 C 0.57594 0.18342 0.53748 0.0
H958 H 0.48736 0.18203 0.51562 0.0
C959 C 0.58954 0.16668 0.50707 0.0
C960 C 0.56653 0.15662 0.47909 0.0
H961 H 0.59439 0.19261 0.55786 0.0
H962 H 0.61822 0.16346 0.50469 0.0
C963 C 0.52948 0.16102 0.48332 0.0
C964 C 0.58104 0.78558 0.26253 0.0
C965 C 0.56607 0.80775 0.2888 0.0
H966 H 0.60025 0.78153 0.20894 0.0
C967 C 0.56403 0.84471 0.28273 0.0
H968 H 0.58325 0.75702 0.26667 0.0
C969 C 0.57378 0.85881 0.24958 0.0
C970 C 0.58543 0.83601 0.22212 0.0
H971 H 0.55277 0.86241 0.3027 0.0
H972 H 0.57002 0.88709 0.2448 0.0
C973 C 0.5905 0.79958 0.2294 0.0
C974 C 0.91549 0.82849 0.03141 0.0
C975 C 0.95273 0.82402 0.03159 0.0
H976 H 0.86888 0.83726 -0.00026 0.0
C977 C 0.97243 0.83105 0.00045 0.0
H978 H 0.89976 0.8236 0.05527 0.0
C979 C 0.95477 0.83856 0.96859 0.0
C980 C 0.91721 0.83934 0.96756 0.0
H981 H 0.00123 0.82811 1e-05 0.0
H982 H 0.97048 0.84172 0.94443 0.0
C983 C 0.89782 0.83621 -0.00041 0.0
C984 C 0.70747 0.90518 0.75964 0.0
C985 C 0.68339 0.92098 0.78369 0.0
H986 H 0.75635 0.87662 0.75315 0.0
C987 C 0.68751 0.91524 0.82049 0.0
H988 H 0.70452 0.90869 0.73103 0.0
C989 C 0.71711 0.89661 0.83322 0.0
C990 C 0.7431 0.88371 0.80927 0.0
H991 H 0.66896 0.92671 0.83954 0.0
H992 H 0.72075 0.8945 0.86188 0.0
C993 C 0.7371 0.88667 0.77232 0.0
C994 C 0.79452 0.94058 0.5871 0.0
C995 C 0.79461 0.93496 0.54996 0.0
H996 H 0.80559 0.97714 0.62971 0.0
C997 C 0.81156 0.9598 0.52753 0.0
H998 H 0.78185 0.9216 0.60498 0.0
C999 C 0.82492 -0.00847 0.54159 0.0
C1000 C 0.8217 -0.00122 0.57831 0.0
H1001 H 0.81241 0.95586 0.49882 0.0
H1002 H 0.83599 0.0112 0.5234 0.0
C1003 C 0.80811 0.97232 0.60124 0.0
C1004 C 0.7839 0.05342 0.32223 0.0
C1005 C 0.78497 0.04664 0.28532 0.0
H1006 H 0.75209 0.06954 0.36684 0.0
C1007 C 0.75531 0.05514 0.2641 0.0
H1008 H 0.80658 0.04727 0.33913 0.0
C1009 C 0.724 0.06753 0.27995 0.0
C1010 C 0.72201 0.07188 0.31725 0.0
H1011 H 0.75553 0.05028 0.23552 0.0
H1012 H 0.70096 0.07237 0.26312 0.0
C1013 C 0.75269 0.06611 0.33808 0.0
C1014 C 0.67749 0.01041 -0.00848 0.0
C1015 C 0.68986 0.0391 0.01231 0.0
H1016 H 0.65209 0.9592 -0.00873 0.0
C1017 C 0.6818 0.04019 0.04894 0.0
H1018 H 0.6831 0.00913 0.96311 0.0
C1019 C 0.66373 0.01183 0.06503 0.0
C1020 C 0.65382 0.98173 0.04479 0.0
H1021 H 0.69071 0.06228 0.06546 0.0
H1022 H 0.65949 0.01264 0.09369 0.0
C1023 C 0.65972 0.98186 0.00765 0.0
C1024 C 0.67836 0.06905 0.66024 0.0
C1025 C 0.67672 0.06632 0.69764 0.0
H1026 H 0.71 0.08388 0.615 0.0
C1027 C 0.70315 0.08288 0.71852 0.0
H1028 H 0.65799 0.05692 0.64356 0.0
C1029 C 0.73288 0.09833 0.70224 0.0
C1030 C 0.73658 0.09744 0.66485 0.0
H1031 H 0.70215 0.08173 0.74746 0.0
H1032 H 0.75411 0.10866 0.71907 0.0
C1033 C 0.70809 0.08464 0.64391 0.0
C1034 C 0.64579 0.93587 0.42663 0.0
C1035 C 0.65503 0.9375 0.46295 0.0
H1036 H 0.62896 0.96482 0.38052 0.0
C1037 C 0.6488 0.96904 0.48225 0.0
H1038 H 0.64995 0.91167 0.41127 0.0
C1039 C 0.63702 -0.0004 0.46463 0.0
C1040 C 0.63114 -0.00103 0.4275 0.0
H1041 H 0.65539 0.97086 0.51041 0.0
H1042 H 0.63456 0.02418 0.47975 0.0
C1043 C 0.63379 0.96635 0.40904 0.0
C1044 C 0.7911 0.90824 0.15742 0.0
C1045 C 0.78998 0.91172 0.19483 0.0
H1046 H 0.76113 0.8997 0.10947 0.0
C1047 C 0.75838 0.90337 0.21322 0.0
H1048 H 0.81531 0.91428 0.14263 0.0
C1049 C 0.72736 0.89543 0.19426 0.0
C1050 C 0.72757 0.89547 0.15665 0.0
H1051 H 0.75688 0.90556 0.24208 0.0
H1052 H 0.70283 0.89103 0.20908 0.0
C1053 C 0.76007 0.90007 0.13842 0.0
C1054 C 0.84095 0.01378 0.93866 0.0
C1055 C 0.82386 0.03959 0.9176 0.0
H1056 H 0.86075 0.96046 0.94147 0.0
C1057 C 0.81927 0.03343 0.88084 0.0
H1058 H 0.84525 0.01807 0.96699 0.0
C1059 C 0.82815 0.00034 0.86618 0.0
C1060 C 0.84151 0.97311 0.88822 0.0
H1061 H 0.8064 0.05308 0.86398 0.0
H1062 H 0.82209 -0.00469 0.83829 0.0
C1063 C 0.84959 0.98072 0.9241 0.0
C1064 C 0.7614 0.70882 0.91856 0.0
C1065 C 0.78324 0.68257 0.93388 0.0
H1066 H 0.75917 0.75845 0.89054 0.0
C1067 C 0.82036 0.68405 0.92838 0.0
H1068 H 0.73264 0.70811 0.92206 0.0
C1069 C 0.83561 0.71284 0.91012 0.0
C1070 C 0.81394 0.74067 0.89736 0.0
H1071 H 0.83776 0.66392 0.93967 0.0
H1072 H 0.86446 0.71432 0.90798 0.0
C1073 C 0.77661 0.73767 0.90053 0.0
C1074 C 0.27702 0.76947 0.06219 0.0
C1075 C 0.29958 0.79247 0.04289 0.0
H1076 H 0.27286 0.72184 0.09329 0.0
C1077 C 0.33674 0.78753 0.04446 0.0
H1078 H 0.24828 0.77295 0.06184 0.0
C1079 C 0.35091 0.75825 0.0627 0.0
C1080 C 0.32802 0.73347 0.07936 0.0
H1081 H 0.35472 0.80511 0.03002 0.0
H1082 H 0.3795 0.75381 0.06169 0.0
C1083 C 0.29111 0.7402 0.08021 0.0
C1084 C 0.95936 0.51459 0.83608 0.0
C1085 C 0.93438 0.53699 0.81946 0.0
H1086 H 0.01066 0.51061 0.86064 0.0
C1087 C 0.93953 0.57411 0.82026 0.0
H1088 H 0.95569 0.48586 0.83637 0.0
C1089 C 0.97103 0.58836 0.83428 0.0
C1090 C -0.00222 0.56559 0.84748 0.0
H1091 H 0.92039 0.59197 0.80799 0.0
H1092 H 0.97542 0.61691 0.83232 0.0
C1093 C -0.00916 0.52877 0.84999 0.0
C1094 C 0.20479 0.2173 0.59338 0.0
C1095 C 0.18567 0.18677 0.58288 0.0
H1096 H 0.20267 0.27321 0.60426 0.0
C1097 C 0.14817 0.18788 0.5816 0.0
H1098 H 0.23371 0.21704 0.59496 0.0
C1099 C 0.13034 0.22012 0.58678 0.0
C1100 C 0.14989 0.25156 0.59313 0.0
H1101 H 0.13279 0.16454 0.57388 0.0
H1102 H 0.1016 0.22081 0.58327 0.0
C1103 C 0.18703 0.24952 0.59833 0.0
C1104 C 0.03707 0.89974 0.80025 0.0
C1105 C 0.03741 0.93725 0.79847 0.0
H1106 H 0.00582 0.8527 0.80985 0.0
C1107 C 0.00752 0.95645 0.81023 0.0
H1108 H 0.05996 0.88433 0.79153 0.0
C1109 C 0.97655 0.93841 0.82032 0.0
C1110 C 0.97509 0.90089 0.81906 0.0
H1111 H 0.00717 0.98539 0.80937 0.0
H1112 H 0.95322 0.95393 0.82755 0.0
C1113 C 0.00611 0.88164 0.81063 0.0
C1114 C 0.6666 0.28967 0.38728 0.0
C1115 C 0.7038 0.28946 0.39211 0.0
H1116 H 0.6196 0.25848 0.37824 0.0
C1117 C 0.72308 0.25816 0.38502 0.0
H1118 H 0.65118 0.31364 0.39219 0.0
C1119 C 0.70503 0.22649 0.37735 0.0
C1120 C 0.66747 0.2258 0.37647 0.0
H1121 H 0.75187 0.25741 0.38815 0.0
H1122 H 0.72042 0.2022 0.37431 0.0
C1123 C 0.64853 0.25803 0.37941 0.0
C1124 C 0.95214 0.46934 0.65938 0.0
C1125 C 0.92759 0.44724 0.67727 0.0
H1126 H -3e-05 0.47213 0.62829 0.0
C1127 C 0.92953 0.41009 0.67272 0.0
H1128 H 0.95088 0.49814 0.66195 0.0
C1129 C 0.95753 0.39513 0.65314 0.0
C1130 C 0.98411 0.41716 0.63811 0.0
H1131 H 0.91059 0.3925 0.68586 0.0
H1132 H 0.9597 0.36629 0.65209 0.0
C1133 C 0.98018 0.45444 0.63997 0.0
C1134 C 0.50814 0.50509 0.16276 0.0
C1135 C 0.54016 0.52314 0.1702 0.0
H1136 H 0.45281 0.50981 0.14982 0.0
C1137 C 0.54215 0.56028 0.16512 0.0
H1138 H 0.50596 0.47644 0.16628 0.0
C1139 C 0.51167 0.57948 0.15577 0.0
C1140 C 0.4788 0.56177 0.15164 0.0
H1141 H 0.56668 0.57478 0.17047 0.0
H1142 H 0.51346 0.60832 0.15391 0.0
C1143 C 0.47764 0.52427 0.15367 0.0
C1144 C 0.5726 0.68765 0.76018 0.0
C1145 C 0.55755 0.66623 0.78703 0.0
H1146 H 0.59235 0.69007 0.70673 0.0
C1147 C 0.5556 0.62905 0.78212 0.0
H1148 H 0.57477 0.71634 0.76344 0.0
C1149 C 0.56566 0.61392 0.7495 0.0
C1150 C 0.57754 0.63589 0.72148 0.0
H1151 H 0.54425 0.61194 0.80257 0.0
H1152 H 0.56199 0.58547 0.74554 0.0
C1153 C 0.58242 0.67262 0.72764 0.0
C1154 C 0.55555 0.30095 0.04834 0.0
C1155 C 0.51881 0.29329 0.04661 0.0
H1156 H 0.60149 0.32094 0.02071 0.0
C1157 C 0.49905 0.30463 0.01688 0.0
H1158 H 0.57132 0.29275 0.07118 0.0
C1159 C 0.51629 0.32061 -0.01204 0.0
C1160 C 0.55356 0.32566 -0.01162 0.0
H1161 H 0.47062 0.29934 0.01503 0.0
H1162 H 0.50062 0.32742 0.96459 0.0
C1163 C 0.57279 0.31715 0.01947 0.0
C1164 C 0.91745 0.29539 0.29032 0.0
C1165 C 0.92388 0.25858 0.28729 0.0
H1166 H 0.90244 0.34337 0.26337 0.0
C1167 C 0.91505 0.24076 0.2555 0.0
H1168 H 0.92373 0.30965 0.31475 0.0
C1169 C 0.90312 0.26004 0.22604 0.0
C1170 C 0.89962 0.29738 0.22807 0.0
H1171 H 0.9195 0.21231 0.25262 0.0
H1172 H 0.89832 0.24591 0.2012 0.0
C1173 C 0.90523 0.31467 0.26092 0.0
C1174 C 0.96405 0.6509 0.49784 0.0
C1175 C 0.94506 0.65785 0.52941 0.0
H1176 H 0.96108 0.64166 0.4416 0.0
C1177 C 0.90757 0.65567 0.52934 0.0
H1178 H -0.00702 0.65219 0.49723 0.0
C1179 C 0.88922 0.64969 0.49744 0.0
C1180 C 0.90819 0.6461 0.46523 0.0
H1181 H 0.89233 0.66071 0.55347 0.0
H1182 H 0.86026 0.65006 0.49772 0.0
C1183 C 0.94575 0.6452 0.46595 0.0
C1184 C 0.58401 0.27613 0.71736 0.0
C1185 C 0.57204 0.29954 0.69067 0.0
H1186 H 0.60151 0.27069 0.77137 0.0
C1187 C 0.57507 0.33654 0.69589 0.0
H1188 H 0.58245 0.24744 0.71377 0.0
C1189 C 0.58593 0.34991 0.72893 0.0
C1190 C 0.59375 0.32639 0.75713 0.0
H1191 H 0.56643 0.35515 0.67548 0.0
H1192 H 0.58555 0.37856 0.73307 0.0
C1193 C 0.59475 0.28947 0.75041 0.0
C1194 C 0.97233 0.33133 0.96411 0.0
C1195 C 0.94977 0.32154 0.93578 0.0
H1196 H 0.9756 0.34849 0.01843 0.0
C1197 C 0.91302 0.32839 0.93817 0.0
H1198 H 0.00091 0.32689 0.96263 0.0
C1199 C 0.89848 0.34083 0.9701 0.0
C1200 C 0.92056 0.34633 3e-05 0.0
H1201 H 0.89516 0.32163 0.91638 0.0
H1202 H 0.8697 0.34337 0.97205 0.0
C1203 C 0.95781 0.34366 -0.00391 0.0
C1204 C 0.91573 0.68155 0.17822 0.0
C1205 C 0.92339 0.71825 0.17878 0.0
H1206 H 0.89368 0.63707 0.20638 0.0
C1207 C 0.90952 0.73951 0.2064 0.0
H1208 H 0.92568 0.66466 0.15689 0.0
C1209 C 0.89122 0.72377 0.23484 0.0
C1210 C 0.88642 0.68652 0.23599 0.0
H1211 H 0.91464 0.76801 0.20718 0.0
H1212 H 0.8828 0.74054 0.2569 0.0
C1213 C 0.89721 0.66581 0.20651 0.0
C1214 C 0.52173 0.66337 0.4522 0.0
C1215 C 0.54482 0.68465 0.43158 0.0
H1216 H 0.51635 0.62874 0.49724 0.0
C1217 C 0.58179 0.68307 0.43764 0.0
H1218 H 0.49312 0.6637 0.44772 0.0
C1219 C 0.59518 0.66278 0.4659 0.0
C1220 C 0.57169 0.64406 0.48859 0.0
H1221 H 0.60019 0.69895 0.42182 0.0
H1222 H 0.6236 0.6638 0.47138 0.0
C1223 C 0.53504 0.6433 0.48051 0.0
C1224 C 0.75117 0.56105 0.71827 0.0
C1225 C 0.78307 0.5532 0.70024 0.0
H1226 H 0.69595 0.57449 0.71349 0.0
C1227 C 0.78488 0.5576 0.66297 0.0
H1228 H 0.74912 0.55802 0.74702 0.0
C1229 C 0.75445 0.5671 0.64371 0.0
C1230 C 0.72174 0.57195 0.66147 0.0
H1231 H 0.80931 0.5519 0.64849 0.0
H1232 H 0.75611 0.56858 0.61482 0.0
C1233 C 0.72069 0.5702 0.69902 0.0
C1234 C 0.65332 0.51279 -0.01132 0.0
C1235 C 0.66538 0.54115 0.96726 0.0
H1236 H 0.62989 0.46073 -0.01011 0.0
C1237 C 0.65714 0.54141 0.93068 0.0
H1238 H 0.65886 0.51224 0.01712 0.0
C1239 C 0.64031 0.51205 0.91507 0.0
C1240 C 0.63182 0.48186 0.93582 0.0
H1241 H 0.66563 0.56331 0.9137 0.0
H1242 H 0.63653 0.51199 0.88635 0.0
C1243 C 0.63668 0.48332 0.97307 0.0
C1244 C 0.69011 0.39682 0.1591 0.0
C1245 C 0.68728 0.4023 0.19611 0.0
H1246 H 0.724 0.38165 0.11576 0.0
C1247 C 0.71465 0.39027 0.2187 0.0
H1248 H 0.6691 0.40541 0.14115 0.0
C1249 C 0.74615 0.37676 0.20423 0.0
C1250 C 0.75065 0.37505 0.16696 0.0
H1251 H 0.71284 0.39364 0.24743 0.0
H1252 H 0.76781 0.37002 0.2222 0.0
C1253 C 0.72158 0.38316 0.1446 0.0
C1254 C 0.82986 0.4681 0.43875 0.0
C1255 C 0.81691 0.44128 0.41591 0.0
H1256 H 0.84732 0.52223 0.44342 0.0
C1257 C 0.81741 0.44679 0.37878 0.0
H1258 H 0.83013 0.46437 0.46748 0.0
C1259 C 0.82723 0.47998 0.36495 0.0
C1260 C 0.83647 0.50807 0.38814 0.0
H1261 H 0.80785 0.42636 0.36058 0.0
H1262 H 0.82515 0.48426 0.33638 0.0
C1263 C 0.83948 0.5013 0.42497 0.0
C1264 C 0.7839 0.42918 0.84236 0.0
C1265 C 0.78787 0.42633 0.80507 0.0
H1266 H 0.7493 0.42126 0.88738 0.0
C1267 C 0.76177 0.40829 0.78507 0.0
H1268 H 0.80385 0.44278 0.8584 0.0
C1269 C 0.73059 0.39636 0.80154 0.0
C1270 C 0.7252 0.40194 0.83831 0.0
H1271 H 0.76432 0.40545 0.75634 0.0
H1272 H 0.70995 0.38426 0.78516 0.0
C1273 C 0.75277 0.41687 0.85894 0.0
C1274 C 0.80956 0.53456 0.08971 0.0
C1275 C 0.80904 0.53955 0.05248 0.0
H1276 H 0.82109 0.4987 0.1327 0.0
C1277 C 0.82526 0.51423 0.03016 0.0
H1278 H 0.79744 0.55391 0.10751 0.0
C1279 C 0.83864 0.48273 0.04449 0.0
C1280 C 0.83607 0.47611 0.08138 0.0
H1281 H 0.82565 0.51769 0.00139 0.0
H1282 H 0.84925 0.46276 0.02639 0.0
C1283 C 0.82309 0.50299 0.10412 0.0
C1284 C 0.68571 0.55671 0.31291 0.0
C1285 C 0.68323 0.55032 0.27604 0.0
H1286 H 0.71638 0.57964 0.35525 0.0
C1287 C 0.70742 0.56709 0.2527 0.0
H1288 H 0.66702 0.54448 0.33141 0.0
C1289 C 0.73563 0.5873 0.26625 0.0
C1290 C 0.74011 0.59103 0.30337 0.0
H1291 H 0.7057 0.56308 0.22405 0.0
H1292 H 0.75509 0.59815 0.24768 0.0
C1293 C 0.71389 0.57704 0.3265 0.0
C1294 C 0.66713 0.46451 0.48766 0.0
C1295 C 0.67869 0.43423 0.50636 0.0
H1296 H 0.64452 0.51671 0.49125 0.0
C1297 C 0.67144 0.43124 0.54309 0.0
H1298 H 0.67212 0.46729 0.45924 0.0
C1299 C 0.65545 0.45942 0.56143 0.0
C1300 C 0.64684 0.4911 0.54331 0.0
H1301 H 0.67977 0.40791 0.55802 0.0
H1302 H 0.65204 0.45723 0.59012 0.0
C1303 C 0.65142 0.49281 0.50602 0.0
C1304 C 0.706 0.75779 0.58384 0.0
C1305 C 0.68346 0.78549 0.57265 0.0
H1306 H 0.70963 0.70329 0.60007 0.0
C1307 C 0.64629 0.78144 0.57572 0.0
H1308 H 0.73481 0.76048 0.58225 0.0
C1309 C 0.63181 0.74867 0.58591 0.0
C1310 C 0.65439 0.71956 0.59297 0.0
H1311 H 0.62835 0.80265 0.56771 0.0
H1312 H 0.60302 0.7455 0.58558 0.0
C1313 C 0.69156 0.725 0.59392 0.0
C1314 C 0.16085 0.68936 0.39956 0.0
C1315 C 0.1979 0.68745 0.40492 0.0
H1316 H 0.11649 0.72279 0.3871 0.0
C1317 C 0.21966 0.71638 0.39502 0.0
H1318 H 0.14356 0.66714 0.40649 0.0
C1319 C 0.20421 0.74834 0.38409 0.0
C1320 C 0.16682 0.75165 0.38285 0.0
H1321 H 0.2484 0.71534 0.39838 0.0
H1322 H 0.22148 0.77108 0.37907 0.0
C1323 C 0.14538 0.72127 0.38848 0.0
C1324 C 0.53594 0.90295 0.67915 0.0
C1325 C 0.53627 0.94048 0.68037 0.0
H1326 H 0.5051 0.85583 0.66869 0.0
C1327 C 0.50696 0.95956 0.66714 0.0
H1328 H 0.55842 0.88765 0.68898 0.0
C1329 C 0.47646 0.94142 0.65591 0.0
C1330 C 0.47498 0.90394 0.65742 0.0
H1331 H 0.50666 -0.01149 0.66755 0.0
H1332 H 0.45348 0.95684 0.6475 0.0
C1333 C 0.50549 0.88475 0.66755 0.0
C1334 C 0.31813 0.29323 0.93391 0.0
C1335 C 0.28094 0.297 0.937 0.0
H1336 H 0.36118 0.26178 0.91361 0.0
C1337 C 0.25837 0.27433 0.91732 0.0
H1338 H 0.33611 0.31065 0.94852 0.0
C1339 C 0.27264 0.24632 0.8974 0.0
C1340 C 0.30975 0.24065 0.89668 0.0
H1341 H 0.22957 0.27697 0.91887 0.0
H1342 H 0.25449 0.228 0.88416 0.0
C1343 C 0.33245 0.26534 0.91374 0.0
C1344 C 0.43291 0.55149 0.64987 0.0
C1345 C 0.43189 0.51465 0.65663 0.0
H1346 H 0.46392 0.59556 0.631 0.0
C1347 C 0.45939 0.49281 0.64354 0.0
H1348 H 0.41171 0.56883 0.65918 0.0
C1349 C 0.48936 0.50805 0.62742 0.0
C1350 C 0.4922 0.54536 0.62414 0.0
H1351 H 0.45893 0.4642 0.64789 0.0
H1352 H 0.51129 0.49078 0.61984 0.0
C1353 C 0.4628 0.56675 0.63358 0.0
C1354 C 0.78408 0.2034 0.06223 0.0
C1355 C 0.80638 0.1818 0.04121 0.0
H1356 H 0.77967 0.25087 0.09362 0.0
C1357 C 0.84324 0.18894 0.04007 0.0
H1358 H 0.7556 0.19826 0.06387 0.0
C1359 C 0.8571 0.21897 0.05739 0.0
C1360 C 0.83418 0.24238 0.07571 0.0
H1361 H 0.86103 0.17248 0.02426 0.0
H1362 H 0.88527 0.2251 0.05436 0.0
C1363 C 0.79784 0.23355 0.07921 0.0
C1364 C 0.53303 0.07784 0.81355 0.0
C1365 C 0.53348 0.04047 0.81006 0.0
H1366 H 0.50133 0.12431 0.82339 0.0
C1367 C 0.50283 0.02071 0.81894 0.0
H1368 H 0.55644 0.09368 0.80705 0.0
C1369 C 0.47125 0.0382 0.82787 0.0
C1370 C 0.46992 0.07572 0.82837 0.0
H1371 H 0.50251 -0.00815 0.81668 0.0
H1372 H 0.44748 0.02233 0.8328 0.0
C1373 C 0.50148 0.09537 0.8228 0.0
C1374 C 0.96053 0.96687 0.33139 0.0
C1375 C 0.93392 0.94334 0.31916 0.0
H1376 H 0.01279 0.97213 0.35367 0.0
C1377 C 0.93693 0.90671 0.32632 0.0
H1378 H 0.95854 -0.00464 0.32674 0.0
C1379 C 0.96796 0.89336 0.3419 0.0
C1380 C -0.00353 0.9165 0.35026 0.0
H1381 H 0.91646 0.88809 0.31765 0.0
H1382 H 0.97059 0.86469 0.34476 0.0
C1383 C -0.00838 0.95354 0.34683 0.0
C1384 C 0.3954 0.2975 0.1915 0.0
C1385 C 0.40519 0.26139 0.19285 0.0
H1386 H 0.37689 0.34281 0.22066 0.0
C1387 C 0.39822 0.24153 0.22392 0.0
H1388 H 0.40003 0.31325 0.16762 0.0
C1389 C 0.38511 0.25844 0.25442 0.0
C1390 C 0.37869 0.29543 0.2542 0.0
H1391 H 0.40514 0.21348 0.22547 0.0
H1392 H 0.38217 0.24294 0.27871 0.0
C1393 C 0.38209 0.31438 0.22191 0.0
C1394 C 0.47029 0.6372 0.96891 0.0
C1395 C 0.44924 0.64846 0.94006 0.0
H1396 H 0.47106 0.62118 0.02365 0.0
C1397 C 0.41187 0.64575 0.94226 0.0
H1398 H 0.4992 0.63852 0.96766 0.0
C1399 C 0.39569 0.63583 0.97433 0.0
C1400 C 0.41676 0.6287 0.00456 0.0
H1401 H 0.39507 0.65381 0.92011 0.0
H1402 H 0.36679 0.63651 0.9761 0.0
C1403 C 0.45414 0.62741 0.001 0.0
C1404 C 0.08292 0.6898 0.70598 0.0
C1405 C 0.0635 0.66763 0.68275 0.0
H1406 H 0.10902 0.69456 0.75647 0.0
C1407 C 0.06055 0.631 0.69026 0.0
H1408 H 0.08606 0.71806 0.70052 0.0
C1409 C 0.07379 0.61746 0.72239 0.0
C1410 C 0.08993 0.6405 0.74732 0.0
H1411 H 0.04593 0.6133 0.67256 0.0
H1412 H 0.06904 0.58961 0.72873 0.0
C1413 C 0.09598 0.67636 0.73805 0.0
C1414 C 0.00395 0.29693 0.45912 0.0
C1415 C 0.02765 0.28231 0.43397 0.0
H1416 H -0.00182 0.3265 0.50764 0.0
C1417 C 0.0642 0.2904 0.4362 0.0
H1418 H 0.97552 0.29145 0.45774 0.0
C1419 C 0.07719 0.31078 0.46461 0.0
C1420 C 0.05382 0.32308 0.49141 0.0
H1421 H 0.08296 0.2798 0.41684 0.0
H1422 H 0.10578 0.31504 0.4666 0.0
C1423 C 0.01692 0.3171 0.48765 0.0
C1424 C 0.42391 0.67865 0.29432 0.0
C1425 C 0.43195 0.71523 0.29199 0.0
H1426 H 0.40496 0.63217 0.26707 0.0
C1427 C 0.42245 0.73424 0.26114 0.0
H1428 H 0.43069 0.66348 0.31803 0.0
C1429 C 0.40792 0.71632 0.23186 0.0
C1430 C 0.40248 0.67915 0.23311 0.0
H1431 H 0.42814 0.76254 0.2588 0.0
H1432 H 0.40256 0.73133 0.2077 0.0
C1433 C 0.40912 0.66076 0.26516 0.0
C1434 C 0.08307 0.68718 0.03641 0.0
C1435 C 0.04571 0.68884 0.03995 0.0
H1436 H 0.12717 0.67066 0.00387 0.0
C1437 C 0.02403 0.6708 0.0152 0.0
H1438 H 0.10038 0.70069 0.05533 0.0
C1439 C 0.03927 0.65386 0.98578 0.0
C1440 C 0.07649 0.65442 0.98074 0.0
H1441 H -0.00485 0.67136 0.01748 0.0
H1442 H 0.02177 0.64166 0.96616 0.0
C1443 C 0.09839 0.66991 0.00706 0.0
C1444 C 0.07083 0.27468 0.76061 0.0
C1445 C 0.0571 0.29599 0.78819 0.0
H1446 H 0.08931 0.27294 0.70668 0.0
C1447 C 0.0576 0.33335 0.78469 0.0
H1448 H 0.0712 0.24583 0.76287 0.0
C1449 C 0.06785 0.34895 0.75241 0.0
C1450 C 0.07757 0.32726 0.72338 0.0
H1451 H 0.04747 0.35039 0.80582 0.0
H1452 H 0.06552 0.37764 0.74943 0.0
C1453 C 0.08094 0.29022 0.72838 0.0
C1454 C 0.41768 0.33486 0.54442 0.0
C1455 C 0.45484 0.32978 0.54325 0.0
H1456 H 0.37005 0.34387 0.51435 0.0
C1457 C 0.47349 0.3367 0.51143 0.0
H1458 H 0.40275 0.3301 0.56881 0.0
C1459 C 0.45478 0.34425 0.48019 0.0
C1460 C 0.41722 0.34519 0.48045 0.0
H1461 H 0.50222 0.33338 0.50994 0.0
H1462 H 0.46966 0.34712 0.45547 0.0
C1463 C 0.39896 0.34259 0.51319 0.0
C1464 C 0.20392 0.40686 0.27437 0.0
C1465 C 0.18156 0.42722 0.29655 0.0
H1466 H 0.251 0.37499 0.27074 0.0
C1467 C 0.18653 0.42625 0.33373 0.0
H1468 H 0.20029 0.40663 0.24563 0.0
C1469 C 0.21555 0.4079 0.34821 0.0
C1470 C 0.24004 0.39049 0.3256 0.0
H1471 H 0.16935 0.44142 0.35143 0.0
H1472 H 0.22023 0.40968 0.37675 0.0
C1473 C 0.23292 0.38864 0.28877 0.0
C1474 C 0.32386 0.45959 0.03932 0.0
C1475 C 0.30519 0.43573 0.06147 0.0
H1476 H 0.34969 0.51032 0.03504 0.0
C1477 C 0.30299 0.44261 0.09834 0.0
H1478 H 0.32633 0.45471 0.01085 0.0
C1479 C 0.31652 0.47452 0.11228 0.0
C1480 C 0.33212 0.49992 0.0894 0.0
H1481 H 0.28891 0.42446 0.11603 0.0
H1482 H 0.31256 0.48027 0.1404 0.0
C1483 C 0.33711 0.49148 0.05314 0.0
C1484 C 0.29025 0.54497 0.8182 0.0
C1485 C 0.28989 0.5417 0.78076 0.0
H1486 H 0.2606 0.55869 0.86521 0.0
C1487 C 0.26039 0.55426 0.76145 0.0
H1488 H 0.31285 0.53565 0.83368 0.0
C1489 C 0.23045 0.56705 0.77945 0.0
C1490 C 0.22968 0.56781 0.81703 0.0
H1491 H 0.25952 0.55222 0.73255 0.0
H1492 H 0.20734 0.57499 0.76394 0.0
C1493 C 0.26038 0.55813 0.83624 0.0
C1494 C 0.15516 0.54085 0.5511 0.0
C1495 C 0.16503 0.53974 0.51491 0.0
H1496 H 0.13322 0.51229 0.5954 0.0
C1497 C 0.15515 0.51017 0.49402 0.0
H1498 H 0.16206 0.5636 0.56768 0.0
C1499 C 0.13868 0.4807 0.50984 0.0
C1500 C 0.13179 0.48041 0.54682 0.0
H1501 H 0.16205 0.50885 0.46589 0.0
H1502 H 0.13331 0.45741 0.49347 0.0
C1503 C 0.13854 0.51146 0.56693 0.0
C1504 C 0.21533 0.58407 0.22751 0.0
C1505 C 0.18816 0.56997 0.2058 0.0
H1506 H 0.2674 0.60746 0.22941 0.0
C1507 C 0.19011 0.57437 0.1686 0.0
H1508 H 0.21415 0.58155 0.25636 0.0
C1509 C 0.22053 0.58939 0.15311 0.0
C1510 C 0.24948 0.59994 0.17466 0.0
H1511 H 0.16917 0.56422 0.15132 0.0
H1512 H 0.22233 0.59019 0.1242 0.0
C1513 C 0.2458 0.59896 0.21206 0.0
C1514 C 0.16119 0.46871 -0.01244 0.0
C1515 C 0.1689 0.43714 0.96891 0.0
H1516 H 0.14457 0.52312 0.98388 0.0
C1517 C 0.16021 0.4345 0.9325 0.0
H1518 H 0.16736 0.47127 0.01576 0.0
C1519 C 0.14702 0.46407 0.91424 0.0
C1520 C 0.14268 0.49681 0.9321 0.0
H1521 H 0.1655 0.41022 0.91764 0.0
H1522 H 0.1426 0.46185 0.88569 0.0
C1523 C 0.14826 0.4984 0.96926 0.0
C1524 C 0.25145 0.40305 0.7057 0.0
C1525 C 0.2816 0.41123 0.68491 0.0
H1526 H 0.1957 0.39076 0.70594 0.0
C1527 C 0.27961 0.40845 0.64751 0.0
H1528 H 0.25233 0.40484 0.73461 0.0
C1529 C 0.24714 0.40047 0.63102 0.0
C1530 C 0.21621 0.39543 0.65176 0.0
H1531 H 0.3026 0.41446 0.63089 0.0
H1532 H 0.24593 0.40022 0.60208 0.0
C1533 C 0.21896 0.39535 0.68925 0.0
C1534 C 0.31215 0.53717 0.39467 0.0
C1535 C 0.31146 0.54247 0.43183 0.0
H1536 H 0.32311 0.50068 0.35215 0.0
C1537 C 0.32823 0.51777 0.45438 0.0
H1538 H 0.29981 0.55617 0.37669 0.0
C1539 C 0.34153 0.48605 0.4404 0.0
C1540 C 0.3382 0.47871 0.4037 0.0
H1541 H 0.32863 0.52162 0.48311 0.0
H1542 H 0.35202 0.46625 0.4587 0.0
C1543 C 0.32553 0.50542 0.38063 0.0
C1544 C 0.25836 0.21475 0.43674 0.0
C1545 C 0.2806 0.18808 0.45072 0.0
H1546 H 0.25545 0.26503 0.4099 0.0
C1547 C 0.31758 0.18985 0.44464 0.0
H1548 H 0.22969 0.21386 0.44086 0.0
C1549 C 0.33233 0.21899 0.42664 0.0
C1550 C 0.31033 0.24697 0.41481 0.0
H1551 H 0.33525 0.16941 0.45492 0.0
H1552 H 0.36112 0.22043 0.42371 0.0
C1553 C 0.27311 0.24405 0.41906 0.0
C1554 C 0.76554 0.26839 0.54822 0.0
C1555 C 0.78948 0.29204 0.53151 0.0
H1556 H 0.75917 0.22003 0.5778 0.0
C1557 C 0.82638 0.28729 0.53599 0.0
H1558 H 0.7369 0.27171 0.54553 0.0
C1559 C 0.83919 0.25776 0.55473 0.0
C1560 C 0.81521 0.23247 0.56894 0.0
H1561 H 0.84537 0.30539 0.52362 0.0
H1562 H 0.86781 0.25368 0.55613 0.0
C1563 C 0.77829 0.2388 0.56671 0.0
C1564 C 0.45304 0.01731 0.32509 0.0
C1565 C 0.42967 0.03937 0.30587 0.0
H1566 H 0.50162 0.01404 0.35474 0.0
C1567 C 0.43401 0.07658 0.30744 0.0
H1568 H 0.44984 -0.01147 0.32488 0.0
C1569 C 0.46364 0.09127 0.32472 0.0
C1570 C 0.4893 0.06884 0.3404 0.0
H1571 H 0.416 0.09418 0.29323 0.0
H1572 H 0.46787 0.11987 0.32312 0.0
C1573 C 0.48265 0.03193 0.34225 0.0
C1574 C 0.7156 0.71736 0.08516 0.0
C1575 C 0.6947 0.6881 0.07452 0.0
H1576 H 0.71616 0.77253 0.09942 0.0
C1577 C 0.65729 0.69017 0.07674 0.0
H1578 H 0.74453 0.71623 0.08419 0.0
C1579 C 0.64098 0.72246 0.08535 0.0
C1580 C 0.66197 0.75296 0.09169 0.0
H1581 H 0.64059 0.66773 0.06912 0.0
H1582 H 0.61209 0.72409 0.08426 0.0
C1583 C 0.69933 0.74963 0.09365 0.0
C1584 C 0.50959 0.45245 0.31501 0.0
C1585 C 0.53762 0.43053 0.30334 0.0
H1586 H 0.45591 0.45483 0.33428 0.0
C1587 C 0.53446 0.39328 0.3066 0.0
H1588 H 0.51143 0.48127 0.31294 0.0
C1589 C 0.50266 0.37809 0.31889 0.0
C1590 C 0.47352 0.39998 0.32773 0.0
H1591 H 0.55584 0.37582 0.29794 0.0
H1592 H 0.50028 0.34925 0.31955 0.0
C1593 C 0.47772 0.43729 0.32696 0.0
C1594 C 0.23169 0.75481 0.89321 0.0
C1595 C 0.2116 0.78536 0.90122 0.0
H1596 H 0.23034 0.69962 0.8789 0.0
C1597 C 0.17474 0.78554 0.89432 0.0
H1598 H 0.26027 0.75419 0.89787 0.0
C1599 C 0.15755 0.75435 0.88342 0.0
C1600 C 0.17704 0.72255 0.87955 0.0
H1601 H 0.15877 0.80903 0.89976 0.0
H1602 H 0.12872 0.7546 0.88076 0.0
C1603 C 0.2145 0.72354 0.88249 0.0
C1604 C 0.4647 0.97543 0.14722 0.0
C1605 C 0.43725 0.95307 0.15979 0.0
H1606 H 0.51654 0.97851 0.12349 0.0
C1607 C 0.4386 0.91633 0.15258 0.0
H1608 H 0.464 0.00398 0.15194 0.0
C1609 C 0.4686 0.90171 0.13606 0.0
C1610 C 0.49779 0.92362 0.12679 0.0
H1611 H 0.41745 0.89861 0.16152 0.0
H1612 H 0.46986 0.87297 0.13293 0.0
C1613 C 0.49476 0.96082 0.13084 0.0
C1614 C 0.00041 0.01062 0.65915 0.0
C1615 C 0.03139 0.03077 0.66568 0.0
H1616 H 0.94488 0.0116 0.646 0.0
C1617 C 0.03125 0.06768 0.65908 0.0
H1618 H -0.00012 0.98207 0.66392 0.0
C1619 C -0.00022 0.08463 0.64884 0.0
C1620 C 0.96795 0.06493 0.64535 0.0
H1621 H 0.05494 0.08376 0.66371 0.0
H1622 H 3e-05 0.11339 0.64561 0.0
C1623 C 0.96886 0.02759 0.6492 0.0
loop_
_geom_bond_atom_site_label_1
_geom_bond_atom_site_label_2
_geom_bond_distance
_geom_bond_site_symmetry_2
_ccdc_geom_bond_type
In0 O1 2.310 . S
In0 O2 2.324 1_455 S
In0 O6 2.282 . S
In0 O7 2.323 1_455 S
In0 O8 2.250 1_455 S
In0 O9 2.328 . S
In0 O11 2.278 1_455 S
In0 O12 2.329 . S
O1 In0 2.310 . S
O1 C10 1.240 . S
O2 In0 2.324 1_655 S
O2 C10 1.252 1_655 S
C3 O6 1.252 . S
C3 O7 1.260 1_455 S
C4 O11 1.240 . S
C4 O12 1.252 1_655 S
C5 O8 1.252 . S
C5 O9 1.260 1_655 S
O6 In0 2.282 . S
O6 C3 1.252 . S
O7 In0 2.323 1_655 S
O7 C3 1.260 1_655 S
O8 In0 2.250 1_655 S
O8 C5 1.252 . S
O9 In0 2.328 . S
O9 C5 1.260 1_455 S
C10 O1 1.240 . S
C10 O2 1.252 1_455 S
O11 In0 2.278 1_655 S
O11 C4 1.240 . S
O12 In0 2.329 . S
O12 C4 1.252 1_455 S
In13 O14 2.284 1_455 S
In13 O15 2.310 1_455 S
In13 O19 2.276 . S
In13 O20 2.343 . S
In13 O21 2.257 1_455 S
In13 O22 2.309 1_455 S
In13 O24 2.304 . S
In13 O25 2.343 . S
O14 In13 2.284 1_655 S
O14 C23 1.240 . S
O15 In13 2.310 1_655 S
O15 C23 1.252 . S
C16 O19 1.252 . S
C16 O20 1.260 . S
C17 O24 1.240 . S
C17 O25 1.252 . S
C18 O21 1.252 . S
C18 O22 1.260 . S
O19 In13 2.276 . S
O19 C16 1.252 . S
O20 In13 2.343 . S
O20 C16 1.260 . S
O21 In13 2.257 1_655 S
O21 C18 1.252 . S
O22 In13 2.309 1_655 S
O22 C18 1.260 . S
C23 O14 1.240 . S
C23 O15 1.252 . S
O24 In13 2.304 . S
O24 C17 1.240 . S
O25 In13 2.343 . S
O25 C17 1.252 . S
In26 O27 2.294 . S
In26 O28 2.326 . S
In26 O32 2.266 . S
In26 O33 2.326 . S
In26 O34 2.266 . S
In26 O35 2.326 . S
In26 O37 2.294 . S
In26 O38 2.326 . S
O27 In26 2.294 . S
O27 C36 1.240 . S
O28 In26 2.326 . S
O28 C36 1.252 . S
C29 O32 1.252 . S
C29 O33 1.260 . S
C30 O37 1.240 . S
C30 O38 1.252 . S
C31 O34 1.252 . S
C31 O35 1.260 . S
O32 In26 2.266 . S
O32 C29 1.252 . S
O33 In26 2.326 . S
O33 C29 1.260 . S
O34 In26 2.266 . S
O34 C31 1.252 . S
O35 In26 2.326 . S
O35 C31 1.260 . S
C36 O27 1.240 . S
C36 O28 1.252 . S
O37 In26 2.294 . S
O37 C30 1.240 . S
O38 In26 2.326 . S
O38 C30 1.252 . S
In39 O40 2.294 . S
In39 O41 2.326 . S
In39 O45 2.266 . S
In39 O46 2.326 . S
In39 O47 2.266 . S
In39 O48 2.326 . S
In39 O50 2.294 . S
In39 O51 2.326 . S
O40 In39 2.294 . S
O40 C49 1.240 . S
O41 In39 2.326 . S
O41 C49 1.252 . S
C42 O45 1.252 . S
C42 O46 1.260 . S
C43 O50 1.240 . S
C43 O51 1.252 . S
C44 O47 1.252 . S
C44 O48 1.260 . S
O45 In39 2.266 . S
O45 C42 1.252 . S
O46 In39 2.326 . S
O46 C42 1.260 . S
O47 In39 2.266 . S
O47 C44 1.252 . S
O48 In39 2.326 . S
O48 C44 1.260 . S
C49 O40 1.240 . S
C49 O41 1.252 . S
O50 In39 2.294 . S
O50 C43 1.240 . S
O51 In39 2.326 . S
O51 C43 1.252 . S
In52 O53 2.294 1_455 S
In52 O54 2.326 . S
In52 O58 2.266 1_455 S
In52 O59 2.326 . S
In52 O60 2.266 . S
In52 O61 2.326 1_455 S
In52 O63 2.294 . S
In52 O64 2.326 1_455 S
O53 In52 2.294 1_655 S
O53 C62 1.240 . S
O54 In52 2.326 . S
O54 C62 1.252 1_455 S
C55 O58 1.252 . S
C55 O59 1.260 1_655 S
C56 O63 1.240 . S
C56 O64 1.252 1_455 S
C57 O60 1.252 . S
C57 O61 1.260 1_455 S
O58 In52 2.266 1_655 S
O58 C55 1.252 . S
O59 In52 2.326 . S
O59 C55 1.260 1_455 S
O60 In52 2.266 . S
O60 C57 1.252 . S
O61 In52 2.326 1_655 S
O61 C57 1.260 1_655 S
C62 O53 1.240 . S
C62 O54 1.252 1_655 S
O63 In52 2.294 . S
O63 C56 1.240 . S
O64 In52 2.326 1_655 S
O64 C56 1.252 1_655 S
In65 O66 2.294 . S
In65 O67 2.326 . S
In65 O71 2.266 . S
In65 O72 2.326 . S
In65 O73 2.266 . S
In65 O74 2.326 . S
In65 O76 2.294 . S
In65 O77 2.326 . S
O66 In65 2.294 . S
O66 C75 1.240 . S
O67 In65 2.326 . S
O67 C75 1.252 . S
C68 O71 1.252 . S
C68 O72 1.260 . S
C69 O76 1.240 . S
C69 O77 1.252 . S
C70 O73 1.252 . S
C70 O74 1.260 . S
O71 In65 2.266 . S
O71 C68 1.252 . S
O72 In65 2.326 . S
O72 C68 1.260 . S
O73 In65 2.266 . S
O73 C70 1.252 . S
O74 In65 2.326 . S
O74 C70 1.260 . S
C75 O66 1.240 . S
C75 O67 1.252 . S
O76 In65 2.294 . S
O76 C69 1.240 . S
O77 In65 2.326 . S
O77 C69 1.252 . S
In78 O79 2.294 . S
In78 O80 2.326 . S
In78 O84 2.266 . S
In78 O85 2.326 . S
In78 O86 2.266 . S
In78 O87 2.326 . S
In78 O89 2.294 . S
In78 O90 2.326 . S
O79 In78 2.294 . S
O79 C88 1.240 . S
O80 In78 2.326 . S
O80 C88 1.252 . S
C81 O84 1.252 . S
C81 O85 1.260 . S
C82 O89 1.240 . S
C82 O90 1.252 . S
C83 O86 1.252 . S
C83 O87 1.260 . S
O84 In78 2.266 . S
O84 C81 1.252 . S
O85 In78 2.326 . S
O85 C81 1.260 . S
O86 In78 2.266 . S
O86 C83 1.252 . S
O87 In78 2.326 . S
O87 C83 1.260 . S
C88 O79 1.240 . S
C88 O80 1.252 . S
O89 In78 2.294 . S
O89 C82 1.240 . S
O90 In78 2.326 . S
O90 C82 1.252 . S
In91 O92 2.298 . S
In91 O93 2.333 . S
In91 O97 2.262 1_455 S
In91 O98 2.318 1_455 S
In91 O99 2.270 . S
In91 O100 2.333 . S
In91 O102 2.290 1_455 S
In91 O103 2.319 1_455 S
O92 In91 2.298 . S
O92 C101 1.240 . S
O93 In91 2.333 . S
O93 C101 1.252 . S
C94 O97 1.252 . S
C94 O98 1.260 . S
C95 O102 1.240 . S
C95 O103 1.252 . S
C96 O99 1.252 . S
C96 O100 1.260 . S
O97 In91 2.262 1_655 S
O97 C94 1.252 . S
O98 In91 2.318 1_655 S
O98 C94 1.260 . S
O99 In91 2.270 . S
O99 C96 1.252 . S
O100 In91 2.333 . S
O100 C96 1.260 . S
C101 O92 1.240 . S
C101 O93 1.252 . S
O102 In91 2.290 1_655 S
O102 C95 1.240 . S
O103 In91 2.319 1_655 S
O103 C95 1.252 . S
In104 O105 2.278 1_545 S
In104 O106 2.329 . S
In104 O110 2.250 1_545 S
In104 O111 2.328 . S
In104 O112 2.282 . S
In104 O113 2.323 1_545 S
In104 O115 2.310 . S
In104 O116 2.324 1_545 S
O105 In104 2.278 1_565 S
O105 C114 1.240 . S
O106 In104 2.329 . S
O106 C114 1.252 1_545 S
C107 O110 1.252 . S
C107 O111 1.260 1_565 S
C108 O115 1.240 . S
C108 O116 1.252 1_545 S
C109 O112 1.252 . S
C109 O113 1.260 1_545 S
O110 In104 2.250 1_565 S
O110 C107 1.252 . S
O111 In104 2.328 . S
O111 C107 1.260 1_545 S
O112 In104 2.282 . S
O112 C109 1.252 . S
O113 In104 2.323 1_565 S
O113 C109 1.260 1_565 S
C114 O105 1.240 . S
C114 O106 1.252 1_565 S
O115 In104 2.310 . S
O115 C108 1.240 . S
O116 In104 2.324 1_565 S
O116 C108 1.252 1_565 S
In117 O118 2.294 . S
In117 O119 2.326 . S
In117 O123 2.266 . S
In117 O124 2.326 . S
In117 O125 2.266 . S
In117 O126 2.326 . S
In117 O128 2.294 . S
In117 O129 2.326 . S
O118 In117 2.294 . S
O118 C127 1.240 . S
O119 In117 2.326 . S
O119 C127 1.252 . S
C120 O123 1.252 . S
C120 O124 1.260 . S
C121 O128 1.240 . S
C121 O129 1.252 . S
C122 O125 1.252 . S
C122 O126 1.260 . S
O123 In117 2.266 . S
O123 C120 1.252 . S
O124 In117 2.326 . S
O124 C120 1.260 . S
O125 In117 2.266 . S
O125 C122 1.252 . S
O126 In117 2.326 . S
O126 C122 1.260 . S
C127 O118 1.240 . S
C127 O119 1.252 . S
O128 In117 2.294 . S
O128 C121 1.240 . S
O129 In117 2.326 . S
O129 C121 1.252 . S
In130 O131 2.294 1_545 S
In130 O132 2.326 . S
In130 O136 2.266 1_545 S
In130 O137 2.326 . S
In130 O138 2.266 . S
In130 O139 2.326 1_545 S
In130 O141 2.294 . S
In130 O142 2.326 1_545 S
O131 In130 2.294 1_565 S
O131 C140 1.240 . S
O132 In130 2.326 . S
O132 C140 1.252 1_545 S
C133 O136 1.252 . S
C133 O137 1.260 1_565 S
C134 O141 1.240 . S
C134 O142 1.252 1_545 S
C135 O138 1.252 . S
C135 O139 1.260 1_545 S
O136 In130 2.266 1_565 S
O136 C133 1.252 . S
O137 In130 2.326 . S
O137 C133 1.260 1_545 S
O138 In130 2.266 . S
O138 C135 1.252 . S
O139 In130 2.326 1_565 S
O139 C135 1.260 1_565 S
C140 O131 1.240 . S
C140 O132 1.252 1_565 S
O141 In130 2.294 . S
O141 C134 1.240 . S
O142 In130 2.326 1_565 S
O142 C134 1.252 1_565 S
In143 O144 2.298 . S
In143 O145 2.333 . S
In143 O149 2.262 1_554 S
In143 O150 2.318 1_554 S
In143 O151 2.270 . S
In143 O152 2.333 . S
In143 O154 2.290 1_554 S
In143 O155 2.319 1_554 S
O144 In143 2.298 . S
O144 C153 1.240 . S
O145 In143 2.333 . S
O145 C153 1.252 . S
C146 O149 1.252 . S
C146 O150 1.260 . S
C147 O154 1.240 . S
C147 O155 1.252 . S
C148 O151 1.252 . S
C148 O152 1.260 . S
O149 In143 2.262 1_556 S
O149 C146 1.252 . S
O150 In143 2.318 1_556 S
O150 C146 1.260 . S
O151 In143 2.270 . S
O151 C148 1.252 . S
O152 In143 2.333 . S
O152 C148 1.260 . S
C153 O144 1.240 . S
C153 O145 1.252 . S
O154 In143 2.290 1_556 S
O154 C147 1.240 . S
O155 In143 2.319 1_556 S
O155 C147 1.252 . S
In156 O157 2.278 1_554 S
In156 O158 2.329 . S
In156 O162 2.250 1_554 S
In156 O163 2.328 . S
In156 O164 2.282 . S
In156 O165 2.323 1_554 S
In156 O167 2.310 . S
In156 O168 2.324 1_554 S
O157 In156 2.278 1_556 S
O157 C166 1.240 . S
O158 In156 2.329 . S
O158 C166 1.252 1_554 S
C159 O162 1.252 . S
C159 O163 1.260 1_556 S
C160 O167 1.240 . S
C160 O168 1.252 1_554 S
C161 O164 1.252 . S
C161 O165 1.260 1_554 S
O162 In156 2.250 1_556 S
O162 C159 1.252 . S
O163 In156 2.328 . S
O163 C159 1.260 1_554 S
O164 In156 2.282 . S
O164 C161 1.252 . S
O165 In156 2.323 1_556 S
O165 C161 1.260 1_556 S
C166 O157 1.240 . S
C166 O158 1.252 1_556 S
O167 In156 2.310 . S
O167 C160 1.240 . S
O168 In156 2.324 1_556 S
O168 C160 1.252 1_556 S
In169 O170 2.294 . S
In169 O171 2.326 1_554 S
In169 O175 2.266 . S
In169 O176 2.326 1_554 S
In169 O177 2.266 1_554 S
In169 O178 2.326 . S
In169 O180 2.294 1_554 S
In169 O181 2.326 . S
O170 In169 2.294 . S
O170 C179 1.240 . S
O171 In169 2.326 1_556 S
O171 C179 1.252 1_556 S
C172 O175 1.252 . S
C172 O176 1.260 1_554 S
C173 O180 1.240 . S
C173 O181 1.252 1_556 S
C174 O177 1.252 . S
C174 O178 1.260 1_556 S
O175 In169 2.266 . S
O175 C172 1.252 . S
O176 In169 2.326 1_556 S
O176 C172 1.260 1_556 S
O177 In169 2.266 1_556 S
O177 C174 1.252 . S
O178 In169 2.326 . S
O178 C174 1.260 1_554 S
C179 O170 1.240 . S
C179 O171 1.252 1_554 S
O180 In169 2.294 1_556 S
O180 C173 1.240 . S
O181 In169 2.326 . S
O181 C173 1.252 1_554 S
In182 O183 2.294 . S
In182 O184 2.326 . S
In182 O188 2.266 . S
In182 O189 2.326 . S
In182 O190 2.266 . S
In182 O191 2.326 . S
In182 O193 2.294 . S
In182 O194 2.326 . S
O183 In182 2.294 . S
O183 C192 1.240 . S
O184 In182 2.326 . S
O184 C192 1.252 . S
C185 O188 1.252 . S
C185 O189 1.260 . S
C186 O193 1.240 . S
C186 O194 1.252 . S
C187 O190 1.252 . S
C187 O191 1.260 . S
O188 In182 2.266 . S
O188 C185 1.252 . S
O189 In182 2.326 . S
O189 C185 1.260 . S
O190 In182 2.266 . S
O190 C187 1.252 . S
O191 In182 2.326 . S
O191 C187 1.260 . S
C192 O183 1.240 . S
C192 O184 1.252 . S
O193 In182 2.294 . S
O193 C186 1.240 . S
O194 In182 2.326 . S
O194 C186 1.252 . S
In195 O196 2.294 . S
In195 O197 2.326 . S
In195 O201 2.266 . S
In195 O202 2.326 . S
In195 O203 2.266 . S
In195 O204 2.326 . S
In195 O206 2.294 . S
In195 O207 2.326 . S
O196 In195 2.294 . S
O196 C205 1.240 . S
O197 In195 2.326 . S
O197 C205 1.252 . S
C198 O201 1.252 . S
C198 O202 1.260 . S
C199 O206 1.240 . S
C199 O207 1.252 . S
C200 O203 1.252 . S
C200 O204 1.260 . S
O201 In195 2.266 . S
O201 C198 1.252 . S
O202 In195 2.326 . S
O202 C198 1.260 . S
O203 In195 2.266 . S
O203 C200 1.252 . S
O204 In195 2.326 . S
O204 C200 1.260 . S
C205 O196 1.240 . S
C205 O197 1.252 . S
O206 In195 2.294 . S
O206 C199 1.240 . S
O207 In195 2.326 . S
O207 C199 1.252 . S
In208 O209 2.290 1_545 S
In208 O210 2.319 1_545 S
In208 O214 2.270 . S
In208 O215 2.333 . S
In208 O216 2.262 1_545 S
In208 O217 2.318 1_545 S
In208 O219 2.298 . S
In208 O220 2.333 . S
O209 In208 2.290 1_565 S
O209 C218 1.240 . S
O210 In208 2.319 1_565 S
O210 C218 1.252 . S
C211 O214 1.252 . S
C211 O215 1.260 . S
C212 O219 1.240 . S
C212 O220 1.252 . S
C213 O216 1.252 . S
C213 O217 1.260 . S
O214 In208 2.270 . S
O214 C211 1.252 . S
O215 In208 2.333 . S
O215 C211 1.260 . S
O216 In208 2.262 1_565 S
O216 C213 1.252 . S
O217 In208 2.318 1_565 S
O217 C213 1.260 . S
C218 O209 1.240 . S
C218 O210 1.252 . S
O219 In208 2.298 . S
O219 C212 1.240 . S
O220 In208 2.333 . S
O220 C212 1.252 . S
In221 O222 2.294 . S
In221 O223 2.326 . S
In221 O227 2.266 . S
In221 O228 2.326 . S
In221 O229 2.266 . S
In221 O230 2.326 . S
In221 O232 2.294 . S
In221 O233 2.326 . S
O222 In221 2.294 . S
O222 C231 1.240 . S
O223 In221 2.326 . S
O223 C231 1.252 . S
C224 O227 1.252 . S
C224 O228 1.260 . S
C225 O232 1.240 . S
C225 O233 1.252 . S
C226 O229 1.252 . S
C226 O230 1.260 . S
O227 In221 2.266 . S
O227 C224 1.252 . S
O228 In221 2.326 . S
O228 C224 1.260 . S
O229 In221 2.266 . S
O229 C226 1.252 . S
O230 In221 2.326 . S
O230 C226 1.260 . S
C231 O222 1.240 . S
C231 O223 1.252 . S
O232 In221 2.294 . S
O232 C225 1.240 . S
O233 In221 2.326 . S
O233 C225 1.252 . S
In234 O235 2.294 . S
In234 O236 2.326 . S
In234 O240 2.266 . S
In234 O241 2.326 . S
In234 O242 2.266 . S
In234 O243 2.326 . S
In234 O245 2.294 . S
In234 O246 2.326 . S
O235 In234 2.294 . S
O235 C244 1.240 . S
O236 In234 2.326 . S
O236 C244 1.252 . S
C237 O240 1.252 . S
C237 O241 1.260 . S
C238 O245 1.240 . S
C238 O246 1.252 . S
C239 O242 1.252 . S
C239 O243 1.260 . S
O240 In234 2.266 . S
O240 C237 1.252 . S
O241 In234 2.326 . S
O241 C237 1.260 . S
O242 In234 2.266 . S
O242 C239 1.252 . S
O243 In234 2.326 . S
O243 C239 1.260 . S
C244 O235 1.240 . S
C244 O236 1.252 . S
O245 In234 2.294 . S
O245 C238 1.240 . S
O246 In234 2.326 . S
O246 C238 1.252 . S
In247 O248 2.284 1_545 S
In247 O249 2.310 1_545 S
In247 O253 2.276 . S
In247 O254 2.343 . S
In247 O255 2.257 1_545 S
In247 O256 2.309 1_545 S
In247 O258 2.304 . S
In247 O259 2.343 . S
O248 In247 2.284 1_565 S
O248 C257 1.240 . S
O249 In247 2.310 1_565 S
O249 C257 1.252 . S
C250 O253 1.252 . S
C250 O254 1.260 . S
C251 O258 1.240 . S
C251 O259 1.252 . S
C252 O255 1.252 . S
C252 O256 1.260 . S
O253 In247 2.276 . S
O253 C250 1.252 . S
O254 In247 2.343 . S
O254 C250 1.260 . S
O255 In247 2.257 1_565 S
O255 C252 1.252 . S
O256 In247 2.309 1_565 S
O256 C252 1.260 . S
C257 O248 1.240 . S
C257 O249 1.252 . S
O258 In247 2.304 . S
O258 C251 1.240 . S
O259 In247 2.343 . S
O259 C251 1.252 . S
In260 O261 2.304 . S
In260 O262 2.343 . S
In260 O266 2.257 1_554 S
In260 O267 2.309 1_554 S
In260 O268 2.276 . S
In260 O269 2.343 . S
In260 O271 2.284 1_554 S
In260 O272 2.310 1_554 S
O261 In260 2.304 . S
O261 C270 1.240 . S
O262 In260 2.343 . S
O262 C270 1.252 . S
C263 O266 1.252 . S
C263 O267 1.260 . S
C264 O271 1.240 . S
C264 O272 1.252 . S
C265 O268 1.252 . S
C265 O269 1.260 . S
O266 In260 2.257 1_556 S
O266 C263 1.252 . S
O267 In260 2.309 1_556 S
O267 C263 1.260 . S
O268 In260 2.276 . S
O268 C265 1.252 . S
O269 In260 2.343 . S
O269 C265 1.260 . S
C270 O261 1.240 . S
C270 O262 1.252 . S
O271 In260 2.284 1_556 S
O271 C264 1.240 . S
O272 In260 2.310 1_556 S
O272 C264 1.252 . S
In273 O274 2.294 . S
In273 O275 2.326 . S
In273 O279 2.266 . S
In273 O280 2.326 . S
In273 O281 2.266 . S
In273 O282 2.326 . S
In273 O284 2.294 . S
In273 O285 2.326 . S
O274 In273 2.294 . S
O274 C283 1.240 . S
O275 In273 2.326 . S
O275 C283 1.252 . S
C276 O279 1.252 . S
C276 O280 1.260 . S
C277 O284 1.240 . S
C277 O285 1.252 . S
C278 O281 1.252 . S
C278 O282 1.260 . S
O279 In273 2.266 . S
O279 C276 1.252 . S
O280 In273 2.326 . S
O280 C276 1.260 . S
O281 In273 2.266 . S
O281 C278 1.252 . S
O282 In273 2.326 . S
O282 C278 1.260 . S
C283 O274 1.240 . S
C283 O275 1.252 . S
O284 In273 2.294 . S
O284 C277 1.240 . S
O285 In273 2.326 . S
O285 C277 1.252 . S
In286 O287 2.294 . S
In286 O288 2.326 . S
In286 O292 2.266 . S
In286 O293 2.326 . S
In286 O294 2.266 . S
In286 O295 2.326 . S
In286 O297 2.294 . S
In286 O298 2.326 . S
O287 In286 2.294 . S
O287 C296 1.240 . S
O288 In286 2.326 . S
O288 C296 1.252 . S
C289 O292 1.252 . S
C289 O293 1.260 . S
C290 O297 1.240 . S
C290 O298 1.252 . S
C291 O294 1.252 . S
C291 O295 1.260 . S
O292 In286 2.266 . S
O292 C289 1.252 . S
O293 In286 2.326 . S
O293 C289 1.260 . S
O294 In286 2.266 . S
O294 C291 1.252 . S
O295 In286 2.326 . S
O295 C291 1.260 . S
C296 O287 1.240 . S
C296 O288 1.252 . S
O297 In286 2.294 . S
O297 C290 1.240 . S
O298 In286 2.326 . S
O298 C290 1.252 . S
In299 O300 2.294 . S
In299 O301 2.326 . S
In299 O305 2.266 . S
In299 O306 2.326 . S
In299 O307 2.266 . S
In299 O308 2.326 . S
In299 O310 2.294 . S
In299 O311 2.326 . S
O300 In299 2.294 . S
O300 C309 1.240 . S
O301 In299 2.326 . S
O301 C309 1.252 . S
C302 O305 1.252 . S
C302 O306 1.260 . S
C303 O310 1.240 . S
C303 O311 1.252 . S
C304 O307 1.252 . S
C304 O308 1.260 . S
O305 In299 2.266 . S
O305 C302 1.252 . S
O306 In299 2.326 . S
O306 C302 1.260 . S
O307 In299 2.266 . S
O307 C304 1.252 . S
O308 In299 2.326 . S
O308 C304 1.260 . S
C309 O300 1.240 . S
C309 O301 1.252 . S
O310 In299 2.294 . S
O310 C303 1.240 . S
O311 In299 2.326 . S
O311 C303 1.252 . S
Sc312 O315 2.025 . S
Sc312 O322 2.105 . S
Sc312 O325 2.105 . S
Sc312 O328 2.105 . S
Sc312 O331 2.105 . S
Sc313 O315 2.025 . S
Sc313 O323 2.105 . S
Sc313 O327 2.105 . S
Sc313 O329 2.105 . S
Sc313 O333 2.105 . S
Sc314 O315 2.025 . S
Sc314 O324 2.105 . S
Sc314 O326 2.105 . S
Sc314 O330 2.105 . S
Sc314 O332 2.105 . S
O315 Sc312 2.025 . S
O315 Sc313 2.025 . S
O315 Sc314 2.025 . S
C316 O322 1.268 . S
C316 O332 1.268 . S
C317 O323 1.268 . S
C317 O331 1.268 . S
C318 O324 1.268 . S
C318 O333 1.268 . S
C319 O325 1.268 . S
C319 O329 1.268 . S
C320 O326 1.268 . S
C320 O328 1.268 . S
C321 O327 1.268 . S
C321 O330 1.268 . S
O322 Sc312 2.105 . S
O322 C316 1.268 . S
O323 Sc313 2.105 . S
O323 C317 1.268 . S
O324 Sc314 2.105 . S
O324 C318 1.268 . S
O325 Sc312 2.105 . S
O325 C319 1.268 . S
O326 Sc314 2.105 . S
O326 C320 1.268 . S
O327 Sc313 2.105 . S
O327 C321 1.268 . S
O328 Sc312 2.105 . S
O328 C320 1.268 . S
O329 Sc313 2.105 . S
O329 C319 1.268 . S
O330 Sc314 2.105 . S
O330 C321 1.268 . S
O331 Sc312 2.105 . S
O331 C317 1.268 . S
O332 Sc314 2.105 . S
O332 C316 1.268 . S
O333 Sc313 2.105 . S
O333 C318 1.268 . S
Sc334 O337 2.025 . S
Sc334 O344 2.105 . S
Sc334 O347 2.105 . S
Sc334 O350 2.105 . S
Sc334 O353 2.105 . S
Sc335 O337 2.025 . S
Sc335 O345 2.105 . S
Sc335 O349 2.105 . S
Sc335 O351 2.105 . S
Sc335 O355 2.105 . S
Sc336 O337 2.025 . S
Sc336 O346 2.105 . S
Sc336 O348 2.105 . S
Sc336 O352 2.105 . S
Sc336 O354 2.105 . S
O337 Sc334 2.025 . S
O337 Sc335 2.025 . S
O337 Sc336 2.025 . S
C338 O344 1.268 . S
C338 O354 1.268 . S
C339 O345 1.268 . S
C339 O353 1.268 . S
C340 O346 1.268 . S
C340 O355 1.268 . S
C341 O347 1.268 . S
C341 O351 1.268 . S
C342 O348 1.268 . S
C342 O350 1.268 . S
C343 O349 1.268 . S
C343 O352 1.268 . S
O344 Sc334 2.105 . S
O344 C338 1.268 . S
O345 Sc335 2.105 . S
O345 C339 1.268 . S
O346 Sc336 2.105 . S
O346 C340 1.268 . S
O347 Sc334 2.105 . S
O347 C341 1.268 . S
O348 Sc336 2.105 . S
O348 C342 1.268 . S
O349 Sc335 2.105 . S
O349 C343 1.268 . S
O350 Sc334 2.105 . S
O350 C342 1.268 . S
O351 Sc335 2.105 . S
O351 C341 1.268 . S
O352 Sc336 2.105 . S
O352 C343 1.268 . S
O353 Sc334 2.105 . S
O353 C339 1.268 . S
O354 Sc336 2.105 . S
O354 C338 1.268 . S
O355 Sc335 2.105 . S
O355 C340 1.268 . S
Sc356 O359 2.025 . S
Sc356 O366 2.105 . S
Sc356 O369 2.105 . S
Sc356 O372 2.105 . S
Sc356 O375 2.105 . S
Sc357 O359 2.025 . S
Sc357 O367 2.105 . S
Sc357 O371 2.105 . S
Sc357 O373 2.105 . S
Sc357 O377 2.105 . S
Sc358 O359 2.025 . S
Sc358 O368 2.105 . S
Sc358 O370 2.105 . S
Sc358 O374 2.105 . S
Sc358 O376 2.105 . S
O359 Sc356 2.025 . S
O359 Sc357 2.025 . S
O359 Sc358 2.025 . S
C360 O366 1.268 . S
C360 O376 1.268 . S
C361 O367 1.268 . S
C361 O375 1.268 . S
C362 O368 1.268 . S
C362 O377 1.268 . S
C363 O369 1.268 . S
C363 O373 1.268 . S
C364 O370 1.268 . S
C364 O372 1.268 . S
C365 O371 1.268 . S
C365 O374 1.268 . S
O366 Sc356 2.105 . S
O366 C360 1.268 . S
O367 Sc357 2.105 . S
O367 C361 1.268 . S
O368 Sc358 2.105 . S
O368 C362 1.268 . S
O369 Sc356 2.105 . S
O369 C363 1.268 . S
O370 Sc358 2.105 . S
O370 C364 1.268 . S
O371 Sc357 2.105 . S
O371 C365 1.268 . S
O372 Sc356 2.105 . S
O372 C364 1.268 . S
O373 Sc357 2.105 . S
O373 C363 1.268 . S
O374 Sc358 2.105 . S
O374 C365 1.268 . S
O375 Sc356 2.105 . S
O375 C361 1.268 . S
O376 Sc358 2.105 . S
O376 C360 1.268 . S
O377 Sc357 2.105 . S
O377 C362 1.268 . S
Sc378 O381 2.025 . S
Sc378 O388 2.105 . S
Sc378 O391 2.105 . S
Sc378 O394 2.105 . S
Sc378 O397 2.105 . S
Sc379 O381 2.025 . S
Sc379 O389 2.105 . S
Sc379 O393 2.105 . S
Sc379 O395 2.105 . S
Sc379 O399 2.105 . S
Sc380 O381 2.025 . S
Sc380 O390 2.105 . S
Sc380 O392 2.105 . S
Sc380 O396 2.105 . S
Sc380 O398 2.105 . S
O381 Sc378 2.025 . S
O381 Sc379 2.025 . S
O381 Sc380 2.025 . S
C382 O388 1.268 . S
C382 O398 1.268 . S
C383 O389 1.268 . S
C383 O397 1.268 . S
C384 O390 1.268 . S
C384 O399 1.268 . S
C385 O391 1.268 . S
C385 O395 1.268 . S
C386 O392 1.268 . S
C386 O394 1.268 . S
C387 O393 1.268 . S
C387 O396 1.268 . S
O388 Sc378 2.105 . S
O388 C382 1.268 . S
O389 Sc379 2.105 . S
O389 C383 1.268 . S
O390 Sc380 2.105 . S
O390 C384 1.268 . S
O391 Sc378 2.105 . S
O391 C385 1.268 . S
O392 Sc380 2.105 . S
O392 C386 1.268 . S
O393 Sc379 2.105 . S
O393 C387 1.268 . S
O394 Sc378 2.105 . S
O394 C386 1.268 . S
O395 Sc379 2.105 . S
O395 C385 1.268 . S
O396 Sc380 2.105 . S
O396 C387 1.268 . S
O397 Sc378 2.105 . S
O397 C383 1.268 . S
O398 Sc380 2.105 . S
O398 C382 1.268 . S
O399 Sc379 2.105 . S
O399 C384 1.268 . S
Sc400 O403 2.025 . S
Sc400 O410 2.105 . S
Sc400 O413 2.105 . S
Sc400 O416 2.105 . S
Sc400 O419 2.105 . S
Sc401 O403 2.025 . S
Sc401 O411 2.105 . S
Sc401 O415 2.105 . S
Sc401 O417 2.105 . S
Sc401 O421 2.105 . S
Sc402 O403 2.025 . S
Sc402 O412 2.105 . S
Sc402 O414 2.105 . S
Sc402 O418 2.105 . S
Sc402 O420 2.105 . S
O403 Sc400 2.025 . S
O403 Sc401 2.025 . S
O403 Sc402 2.025 . S
C404 O410 1.268 . S
C404 O420 1.268 . S
C405 O411 1.268 . S
C405 O419 1.268 . S
C406 O412 1.268 . S
C406 O421 1.268 . S
C407 O413 1.268 . S
C407 O417 1.268 . S
C408 O414 1.268 . S
C408 O416 1.268 . S
C409 O415 1.268 . S
C409 O418 1.268 . S
O410 Sc400 2.105 . S
O410 C404 1.268 . S
O411 Sc401 2.105 . S
O411 C405 1.268 . S
O412 Sc402 2.105 . S
O412 C406 1.268 . S
O413 Sc400 2.105 . S
O413 C407 1.268 . S
O414 Sc402 2.105 . S
O414 C408 1.268 . S
O415 Sc401 2.105 . S
O415 C409 1.268 . S
O416 Sc400 2.105 . S
O416 C408 1.268 . S
O417 Sc401 2.105 . S
O417 C407 1.268 . S
O418 Sc402 2.105 . S
O418 C409 1.268 . S
O419 Sc400 2.105 . S
O419 C405 1.268 . S
O420 Sc402 2.105 . S
O420 C404 1.268 . S
O421 Sc401 2.105 . S
O421 C406 1.268 . S
Sc422 O425 2.025 . S
Sc422 O432 2.105 . S
Sc422 O435 2.105 . S
Sc422 O438 2.105 . S
Sc422 O441 2.105 . S
Sc423 O425 2.025 . S
Sc423 O433 2.105 . S
Sc423 O437 2.105 . S
Sc423 O439 2.105 . S
Sc423 O443 2.105 . S
Sc424 O425 2.025 . S
Sc424 O434 2.105 . S
Sc424 O436 2.105 . S
Sc424 O440 2.105 . S
Sc424 O442 2.105 . S
O425 Sc422 2.025 . S
O425 Sc423 2.025 . S
O425 Sc424 2.025 . S
C426 O432 1.268 . S
C426 O442 1.268 . S
C427 O433 1.268 . S
C427 O441 1.268 . S
C428 O434 1.268 . S
C428 O443 1.268 . S
C429 O435 1.268 . S
C429 O439 1.268 . S
C430 O436 1.268 . S
C430 O438 1.268 . S
C431 O437 1.268 . S
C431 O440 1.268 . S
O432 Sc422 2.105 . S
O432 C426 1.268 . S
O433 Sc423 2.105 . S
O433 C427 1.268 . S
O434 Sc424 2.105 . S
O434 C428 1.268 . S
O435 Sc422 2.105 . S
O435 C429 1.268 . S
O436 Sc424 2.105 . S
O436 C430 1.268 . S
O437 Sc423 2.105 . S
O437 C431 1.268 . S
O438 Sc422 2.105 . S
O438 C430 1.268 . S
O439 Sc423 2.105 . S
O439 C429 1.268 . S
O440 Sc424 2.105 . S
O440 C431 1.268 . S
O441 Sc422 2.105 . S
O441 C427 1.268 . S
O442 Sc424 2.105 . S
O442 C426 1.268 . S
O443 Sc423 2.105 . S
O443 C428 1.268 . S
Sc444 O447 2.025 . S
Sc444 O454 2.105 . S
Sc444 O457 2.105 . S
Sc444 O460 2.105 . S
Sc444 O463 2.105 . S
Sc445 O447 2.025 . S
Sc445 O455 2.105 . S
Sc445 O459 2.105 . S
Sc445 O461 2.105 . S
Sc445 O465 2.105 . S
Sc446 O447 2.025 . S
Sc446 O456 2.105 . S
Sc446 O458 2.105 . S
Sc446 O462 2.105 . S
Sc446 O464 2.105 . S
O447 Sc444 2.025 . S
O447 Sc445 2.025 . S
O447 Sc446 2.025 . S
C448 O454 1.268 . S
C448 O464 1.268 . S
C449 O455 1.268 . S
C449 O463 1.268 . S
C450 O456 1.268 . S
C450 O465 1.268 . S
C451 O457 1.268 . S
C451 O461 1.268 . S
C452 O458 1.268 . S
C452 O460 1.268 . S
C453 O459 1.268 . S
C453 O462 1.268 . S
O454 Sc444 2.105 . S
O454 C448 1.268 . S
O455 Sc445 2.105 . S
O455 C449 1.268 . S
O456 Sc446 2.105 . S
O456 C450 1.268 . S
O457 Sc444 2.105 . S
O457 C451 1.268 . S
O458 Sc446 2.105 . S
O458 C452 1.268 . S
O459 Sc445 2.105 . S
O459 C453 1.268 . S
O460 Sc444 2.105 . S
O460 C452 1.268 . S
O461 Sc445 2.105 . S
O461 C451 1.268 . S
O462 Sc446 2.105 . S
O462 C453 1.268 . S
O463 Sc444 2.105 . S
O463 C449 1.268 . S
O464 Sc446 2.105 . S
O464 C448 1.268 . S
O465 Sc445 2.105 . S
O465 C450 1.268 . S
Sc466 O469 2.025 . S
Sc466 O476 2.105 . S
Sc466 O479 2.105 . S
Sc466 O482 2.105 . S
Sc466 O485 2.105 . S
Sc467 O469 2.025 . S
Sc467 O477 2.105 . S
Sc467 O481 2.105 . S
Sc467 O483 2.105 . S
Sc467 O487 2.105 . S
Sc468 O469 2.025 . S
Sc468 O478 2.105 . S
Sc468 O480 2.105 . S
Sc468 O484 2.105 . S
Sc468 O486 2.105 . S
O469 Sc466 2.025 . S
O469 Sc467 2.025 . S
O469 Sc468 2.025 . S
C470 O476 1.268 . S
C470 O486 1.268 . S
C471 O477 1.268 . S
C471 O485 1.268 . S
C472 O478 1.268 . S
C472 O487 1.268 . S
C473 O479 1.268 . S
C473 O483 1.268 . S
C474 O480 1.268 . S
C474 O482 1.268 . S
C475 O481 1.268 . S
C475 O484 1.268 . S
O476 Sc466 2.105 . S
O476 C470 1.268 . S
O477 Sc467 2.105 . S
O477 C471 1.268 . S
O478 Sc468 2.105 . S
O478 C472 1.268 . S
O479 Sc466 2.105 . S
O479 C473 1.268 . S
O480 Sc468 2.105 . S
O480 C474 1.268 . S
O481 Sc467 2.105 . S
O481 C475 1.268 . S
O482 Sc466 2.105 . S
O482 C474 1.268 . S
O483 Sc467 2.105 . S
O483 C473 1.268 . S
O484 Sc468 2.105 . S
O484 C475 1.268 . S
O485 Sc466 2.105 . S
O485 C471 1.268 . S
O486 Sc468 2.105 . S
O486 C470 1.268 . S
O487 Sc467 2.105 . S
O487 C472 1.268 . S
Sc488 O491 2.025 . S
Sc488 O498 2.105 . S
Sc488 O501 2.105 . S
Sc488 O504 2.105 . S
Sc488 O507 2.105 . S
Sc489 O491 2.025 . S
Sc489 O499 2.105 . S
Sc489 O503 2.105 . S
Sc489 O505 2.105 . S
Sc489 O509 2.105 . S
Sc490 O491 2.025 . S
Sc490 O500 2.105 . S
Sc490 O502 2.105 . S
Sc490 O506 2.105 . S
Sc490 O508 2.105 . S
O491 Sc488 2.025 . S
O491 Sc489 2.025 . S
O491 Sc490 2.025 . S
C492 O498 1.268 . S
C492 O508 1.268 . S
C493 O499 1.268 . S
C493 O507 1.268 . S
C494 O500 1.268 . S
C494 O509 1.268 . S
C495 O501 1.268 . S
C495 O505 1.268 . S
C496 O502 1.268 . S
C496 O504 1.268 . S
C497 O503 1.268 . S
C497 O506 1.268 . S
O498 Sc488 2.105 . S
O498 C492 1.268 . S
O499 Sc489 2.105 . S
O499 C493 1.268 . S
O500 Sc490 2.105 . S
O500 C494 1.268 . S
O501 Sc488 2.105 . S
O501 C495 1.268 . S
O502 Sc490 2.105 . S
O502 C496 1.268 . S
O503 Sc489 2.105 . S
O503 C497 1.268 . S
O504 Sc488 2.105 . S
O504 C496 1.268 . S
O505 Sc489 2.105 . S
O505 C495 1.268 . S
O506 Sc490 2.105 . S
O506 C497 1.268 . S
O507 Sc488 2.105 . S
O507 C493 1.268 . S
O508 Sc490 2.105 . S
O508 C492 1.268 . S
O509 Sc489 2.105 . S
O509 C494 1.268 . S
Sc510 O513 2.025 . S
Sc510 O520 2.105 . S
Sc510 O523 2.105 . S
Sc510 O526 2.105 . S
Sc510 O529 2.105 . S
Sc511 O513 2.025 . S
Sc511 O521 2.105 . S
Sc511 O525 2.105 . S
Sc511 O527 2.105 . S
Sc511 O531 2.105 . S
Sc512 O513 2.025 . S
Sc512 O522 2.105 . S
Sc512 O524 2.105 . S
Sc512 O528 2.105 . S
Sc512 O530 2.105 . S
O513 Sc510 2.025 . S
O513 Sc511 2.025 . S
O513 Sc512 2.025 . S
C514 O520 1.268 . S
C514 O530 1.268 . S
C515 O521 1.268 . S
C515 O529 1.268 . S
C516 O522 1.268 . S
C516 O531 1.268 . S
C517 O523 1.268 . S
C517 O527 1.268 . S
C518 O524 1.268 . S
C518 O526 1.268 . S
C519 O525 1.268 . S
C519 O528 1.268 . S
O520 Sc510 2.105 . S
O520 C514 1.268 . S
O521 Sc511 2.105 . S
O521 C515 1.268 . S
O522 Sc512 2.105 . S
O522 C516 1.268 . S
O523 Sc510 2.105 . S
O523 C517 1.268 . S
O524 Sc512 2.105 . S
O524 C518 1.268 . S
O525 Sc511 2.105 . S
O525 C519 1.268 . S
O526 Sc510 2.105 . S
O526 C518 1.268 . S
O527 Sc511 2.105 . S
O527 C517 1.268 . S
O528 Sc512 2.105 . S
O528 C519 1.268 . S
O529 Sc510 2.105 . S
O529 C515 1.268 . S
O530 Sc512 2.105 . S
O530 C514 1.268 . S
O531 Sc511 2.105 . S
O531 C516 1.268 . S
Sc532 O535 2.025 . S
Sc532 O542 2.105 . S
Sc532 O545 2.105 . S
Sc532 O548 2.105 . S
Sc532 O551 2.105 . S
Sc533 O535 2.025 . S
Sc533 O543 2.105 . S
Sc533 O547 2.105 . S
Sc533 O549 2.105 . S
Sc533 O553 2.105 . S
Sc534 O535 2.025 . S
Sc534 O544 2.105 . S
Sc534 O546 2.105 . S
Sc534 O550 2.105 . S
Sc534 O552 2.105 . S
O535 Sc532 2.025 . S
O535 Sc533 2.025 . S
O535 Sc534 2.025 . S
C536 O542 1.268 . S
C536 O552 1.268 . S
C537 O543 1.268 . S
C537 O551 1.268 . S
C538 O544 1.268 . S
C538 O553 1.268 . S
C539 O545 1.268 . S
C539 O549 1.268 . S
C540 O546 1.268 . S
C540 O548 1.268 . S
C541 O547 1.268 . S
C541 O550 1.268 . S
O542 Sc532 2.105 . S
O542 C536 1.268 . S
O543 Sc533 2.105 . S
O543 C537 1.268 . S
O544 Sc534 2.105 . S
O544 C538 1.268 . S
O545 Sc532 2.105 . S
O545 C539 1.268 . S
O546 Sc534 2.105 . S
O546 C540 1.268 . S
O547 Sc533 2.105 . S
O547 C541 1.268 . S
O548 Sc532 2.105 . S
O548 C540 1.268 . S
O549 Sc533 2.105 . S
O549 C539 1.268 . S
O550 Sc534 2.105 . S
O550 C541 1.268 . S
O551 Sc532 2.105 . S
O551 C537 1.268 . S
O552 Sc534 2.105 . S
O552 C536 1.268 . S
O553 Sc533 2.105 . S
O553 C538 1.268 . S
Sc554 O557 2.025 . S
Sc554 O564 2.105 . S
Sc554 O567 2.105 . S
Sc554 O570 2.105 . S
Sc554 O573 2.105 . S
Sc555 O557 2.025 . S
Sc555 O565 2.105 . S
Sc555 O569 2.105 . S
Sc555 O571 2.105 . S
Sc555 O575 2.105 . S
Sc556 O557 2.025 . S
Sc556 O566 2.105 . S
Sc556 O568 2.105 . S
Sc556 O572 2.105 . S
Sc556 O574 2.105 . S
O557 Sc554 2.025 . S
O557 Sc555 2.025 . S
O557 Sc556 2.025 . S
C558 O564 1.268 . S
C558 O574 1.268 . S
C559 O565 1.268 . S
C559 O573 1.268 . S
C560 O566 1.268 . S
C560 O575 1.268 . S
C561 O567 1.268 . S
C561 O571 1.268 . S
C562 O568 1.268 . S
C562 O570 1.268 . S
C563 O569 1.268 . S
C563 O572 1.268 . S
O564 Sc554 2.105 . S
O564 C558 1.268 . S
O565 Sc555 2.105 . S
O565 C559 1.268 . S
O566 Sc556 2.105 . S
O566 C560 1.268 . S
O567 Sc554 2.105 . S
O567 C561 1.268 . S
O568 Sc556 2.105 . S
O568 C562 1.268 . S
O569 Sc555 2.105 . S
O569 C563 1.268 . S
O570 Sc554 2.105 . S
O570 C562 1.268 . S
O571 Sc555 2.105 . S
O571 C561 1.268 . S
O572 Sc556 2.105 . S
O572 C563 1.268 . S
O573 Sc554 2.105 . S
O573 C559 1.268 . S
O574 Sc556 2.105 . S
O574 C558 1.268 . S
O575 Sc555 2.105 . S
O575 C560 1.268 . S
Sc576 O579 2.025 . S
Sc576 O586 2.105 . S
Sc576 O589 2.105 . S
Sc576 O592 2.105 . S
Sc576 O595 2.105 . S
Sc577 O579 2.025 . S
Sc577 O587 2.105 . S
Sc577 O591 2.105 . S
Sc577 O593 2.105 . S
Sc577 O597 2.105 . S
Sc578 O579 2.025 . S
Sc578 O588 2.105 . S
Sc578 O590 2.105 . S
Sc578 O594 2.105 . S
Sc578 O596 2.105 . S
O579 Sc576 2.025 . S
O579 Sc577 2.025 . S
O579 Sc578 2.025 . S
C580 O586 1.268 . S
C580 O596 1.268 . S
C581 O587 1.268 . S
C581 O595 1.268 . S
C582 O588 1.268 . S
C582 O597 1.268 . S
C583 O589 1.268 . S
C583 O593 1.268 . S
C584 O590 1.268 . S
C584 O592 1.268 . S
C585 O591 1.268 . S
C585 O594 1.268 . S
O586 Sc576 2.105 . S
O586 C580 1.268 . S
O587 Sc577 2.105 . S
O587 C581 1.268 . S
O588 Sc578 2.105 . S
O588 C582 1.268 . S
O589 Sc576 2.105 . S
O589 C583 1.268 . S
O590 Sc578 2.105 . S
O590 C584 1.268 . S
O591 Sc577 2.105 . S
O591 C585 1.268 . S
O592 Sc576 2.105 . S
O592 C584 1.268 . S
O593 Sc577 2.105 . S
O593 C583 1.268 . S
O594 Sc578 2.105 . S
O594 C585 1.268 . S
O595 Sc576 2.105 . S
O595 C581 1.268 . S
O596 Sc578 2.105 . S
O596 C580 1.268 . S
O597 Sc577 2.105 . S
O597 C582 1.268 . S
Sc598 O601 2.025 . S
Sc598 O608 2.105 . S
Sc598 O611 2.105 . S
Sc598 O614 2.105 . S
Sc598 O617 2.105 . S
Sc599 O601 2.025 . S
Sc599 O609 2.105 . S
Sc599 O613 2.105 . S
Sc599 O615 2.105 . S
Sc599 O619 2.105 . S
Sc600 O601 2.025 . S
Sc600 O610 2.105 . S
Sc600 O612 2.105 . S
Sc600 O616 2.105 . S
Sc600 O618 2.105 . S
O601 Sc598 2.025 . S
O601 Sc599 2.025 . S
O601 Sc600 2.025 . S
C602 O608 1.268 . S
C602 O618 1.268 . S
C603 O609 1.268 . S
C603 O617 1.268 . S
C604 O610 1.268 . S
C604 O619 1.268 . S
C605 O611 1.268 . S
C605 O615 1.268 . S
C606 O612 1.268 . S
C606 O614 1.268 . S
C607 O613 1.268 . S
C607 O616 1.268 . S
O608 Sc598 2.105 . S
O608 C602 1.268 . S
O609 Sc599 2.105 . S
O609 C603 1.268 . S
O610 Sc600 2.105 . S
O610 C604 1.268 . S
O611 Sc598 2.105 . S
O611 C605 1.268 . S
O612 Sc600 2.105 . S
O612 C606 1.268 . S
O613 Sc599 2.105 . S
O613 C607 1.268 . S
O614 Sc598 2.105 . S
O614 C606 1.268 . S
O615 Sc599 2.105 . S
O615 C605 1.268 . S
O616 Sc600 2.105 . S
O616 C607 1.268 . S
O617 Sc598 2.105 . S
O617 C603 1.268 . S
O618 Sc600 2.105 . S
O618 C602 1.268 . S
O619 Sc599 2.105 . S
O619 C604 1.268 . S
Sc620 O623 2.025 . S
Sc620 O630 2.105 . S
Sc620 O633 2.105 . S
Sc620 O636 2.105 . S
Sc620 O639 2.105 . S
Sc621 O623 2.025 . S
Sc621 O631 2.105 . S
Sc621 O635 2.105 . S
Sc621 O637 2.105 . S
Sc621 O641 2.105 . S
Sc622 O623 2.025 . S
Sc622 O632 2.105 . S
Sc622 O634 2.105 . S
Sc622 O638 2.105 . S
Sc622 O640 2.105 . S
O623 Sc620 2.025 . S
O623 Sc621 2.025 . S
O623 Sc622 2.025 . S
C624 O630 1.268 . S
C624 O640 1.268 . S
C625 O631 1.268 . S
C625 O639 1.268 . S
C626 O632 1.268 . S
C626 O641 1.268 . S
C627 O633 1.268 . S
C627 O637 1.268 . S
C628 O634 1.268 . S
C628 O636 1.268 . S
C629 O635 1.268 . S
C629 O638 1.268 . S
O630 Sc620 2.105 . S
O630 C624 1.268 . S
O631 Sc621 2.105 . S
O631 C625 1.268 . S
O632 Sc622 2.105 . S
O632 C626 1.268 . S
O633 Sc620 2.105 . S
O633 C627 1.268 . S
O634 Sc622 2.105 . S
O634 C628 1.268 . S
O635 Sc621 2.105 . S
O635 C629 1.268 . S
O636 Sc620 2.105 . S
O636 C628 1.268 . S
O637 Sc621 2.105 . S
O637 C627 1.268 . S
O638 Sc622 2.105 . S
O638 C629 1.268 . S
O639 Sc620 2.105 . S
O639 C625 1.268 . S
O640 Sc622 2.105 . S
O640 C624 1.268 . S
O641 Sc621 2.105 . S
O641 C626 1.268 . S
Sc642 O645 2.025 . S
Sc642 O652 2.105 . S
Sc642 O655 2.105 . S
Sc642 O658 2.105 . S
Sc642 O661 2.105 . S
Sc643 O645 2.025 . S
Sc643 O653 2.105 . S
Sc643 O657 2.105 . S
Sc643 O659 2.105 . S
Sc643 O663 2.105 . S
Sc644 O645 2.025 . S
Sc644 O654 2.105 . S
Sc644 O656 2.105 . S
Sc644 O660 2.105 . S
Sc644 O662 2.105 . S
O645 Sc642 2.025 . S
O645 Sc643 2.025 . S
O645 Sc644 2.025 . S
C646 O652 1.268 . S
C646 O662 1.268 . S
C647 O653 1.268 . S
C647 O661 1.268 . S
C648 O654 1.268 . S
C648 O663 1.268 . S
C649 O655 1.268 . S
C649 O659 1.268 . S
C650 O656 1.268 . S
C650 O658 1.268 . S
C651 O657 1.268 . S
C651 O660 1.268 . S
O652 Sc642 2.105 . S
O652 C646 1.268 . S
O653 Sc643 2.105 . S
O653 C647 1.268 . S
O654 Sc644 2.105 . S
O654 C648 1.268 . S
O655 Sc642 2.105 . S
O655 C649 1.268 . S
O656 Sc644 2.105 . S
O656 C650 1.268 . S
O657 Sc643 2.105 . S
O657 C651 1.268 . S
O658 Sc642 2.105 . S
O658 C650 1.268 . S
O659 Sc643 2.105 . S
O659 C649 1.268 . S
O660 Sc644 2.105 . S
O660 C651 1.268 . S
O661 Sc642 2.105 . S
O661 C647 1.268 . S
O662 Sc644 2.105 . S
O662 C646 1.268 . S
O663 Sc643 2.105 . S
O663 C648 1.268 . S
C664 C665 1.387 . S
C664 H668 0.950 . S
C664 C673 1.390 . S
C665 C664 1.387 . S
C665 C667 1.387 . S
H666 C673 0.950 . S
C667 C665 1.387 . S
C667 C669 1.390 . S
C667 H671 0.950 . S
H668 C664 0.950 . S
C669 C667 1.390 . S
C669 C670 1.387 . S
C669 H672 0.950 . S
C670 C669 1.387 . S
C670 C673 1.387 . S
H671 C667 0.950 . S
H672 C669 0.950 . S
C673 C664 1.390 . S
C673 H666 0.950 . S
C673 C670 1.387 . S
C674 C675 1.387 . S
C674 H678 0.950 . S
C674 C683 1.390 . S
C675 C674 1.387 . S
C675 C677 1.387 . S
H676 C683 0.950 . S
C677 C675 1.387 . S
C677 C679 1.390 . S
C677 H681 0.950 . S
H678 C674 0.950 . S
C679 C677 1.390 . S
C679 C680 1.387 . S
C679 H682 0.950 . S
C680 C679 1.387 . S
C680 C683 1.387 . S
H681 C677 0.950 . S
H682 C679 0.950 . S
C683 C674 1.390 . S
C683 H676 0.950 . S
C683 C680 1.387 . S
C684 C685 1.387 . S
C684 H688 0.950 . S
C684 C693 1.390 . S
C685 C684 1.387 . S
C685 C687 1.387 . S
H686 C693 0.950 . S
C687 C685 1.387 . S
C687 C689 1.390 . S
C687 H691 0.950 . S
H688 C684 0.950 . S
C689 C687 1.390 . S
C689 C690 1.387 . S
C689 H692 0.950 . S
C690 C689 1.387 . S
C690 C693 1.387 . S
H691 C687 0.950 . S
H692 C689 0.950 . S
C693 C684 1.390 . S
C693 H686 0.950 . S
C693 C690 1.387 . S
C694 C695 1.387 . S
C694 H698 0.950 . S
C694 C703 1.390 1_554 S
C695 C694 1.387 . S
C695 C697 1.387 . S
H696 C703 0.950 . S
C697 C695 1.387 . S
C697 C699 1.390 . S
C697 H701 0.950 . S
H698 C694 0.950 . S
C699 C697 1.390 . S
C699 C700 1.387 1_554 S
C699 H702 0.950 . S
C700 C699 1.387 1_556 S
C700 C703 1.387 . S
H701 C697 0.950 . S
H702 C699 0.950 . S
C703 C694 1.390 1_556 S
C703 H696 0.950 . S
C703 C700 1.387 . S
C704 C705 1.387 . S
C704 H708 0.950 . S
C704 C713 1.390 . S
C705 C704 1.387 . S
C705 C707 1.387 . S
H706 C713 0.950 . S
C707 C705 1.387 . S
C707 C709 1.390 . S
C707 H711 0.950 . S
H708 C704 0.950 . S
C709 C707 1.390 . S
C709 C710 1.387 . S
C709 H712 0.950 . S
C710 C709 1.387 . S
C710 C713 1.387 . S
H711 C707 0.950 . S
H712 C709 0.950 . S
C713 C704 1.390 . S
C713 H706 0.950 . S
C713 C710 1.387 . S
C714 C715 1.387 . S
C714 H718 0.950 . S
C714 C723 1.390 . S
C715 C714 1.387 . S
C715 C717 1.387 . S
H716 C723 0.950 . S
C717 C715 1.387 . S
C717 C719 1.390 . S
C717 H721 0.950 . S
H718 C714 0.950 . S
C719 C717 1.390 . S
C719 C720 1.387 . S
C719 H722 0.950 . S
C720 C719 1.387 . S
C720 C723 1.387 . S
H721 C717 0.950 . S
H722 C719 0.950 . S
C723 C714 1.390 . S
C723 H716 0.950 . S
C723 C720 1.387 . S
C724 C725 1.387 . S
C724 H728 0.950 . S
C724 C733 1.390 . S
C725 C724 1.387 . S
C725 C727 1.387 . S
H726 C733 0.950 . S
C727 C725 1.387 . S
C727 C729 1.390 . S
C727 H731 0.950 . S
H728 C724 0.950 . S
C729 C727 1.390 . S
C729 C730 1.387 . S
C729 H732 0.950 . S
C730 C729 1.387 . S
C730 C733 1.387 . S
H731 C727 0.950 . S
H732 C729 0.950 . S
C733 C724 1.390 . S
C733 H726 0.950 . S
C733 C730 1.387 . S
C734 C735 1.387 . S
C734 H738 0.954 . S
C734 C743 1.390 1_556 S
C735 C734 1.387 . S
C735 C737 1.387 . S
H736 C743 0.950 . S
C737 C735 1.387 . S
C737 C739 1.390 . S
C737 H741 0.950 . S
H738 C734 0.954 . S
C739 C737 1.390 . S
C739 C740 1.387 1_556 S
C739 H742 0.950 . S
C740 C739 1.387 1_554 S
C740 C743 1.387 . S
H741 C737 0.950 . S
H742 C739 0.950 . S
C743 C734 1.390 1_554 S
C743 H736 0.950 . S
C743 C740 1.387 . S
C744 C745 1.387 . S
C744 H748 0.950 . S
C744 C753 1.390 . S
C745 C744 1.387 . S
C745 C747 1.387 . S
H746 C753 0.950 . S
C747 C745 1.387 . S
C747 C749 1.390 . S
C747 H751 0.950 . S
H748 C744 0.950 . S
C749 C747 1.390 . S
C749 C750 1.387 . S
C749 H752 0.950 . S
C750 C749 1.387 . S
C750 C753 1.387 . S
H751 C747 0.950 . S
H752 C749 0.950 . S
C753 C744 1.390 . S
C753 H746 0.950 . S
C753 C750 1.387 . S
C754 C755 1.387 . S
C754 H758 0.950 . S
C754 C763 1.390 1_545 S
C755 C754 1.387 . S
C755 C757 1.387 . S
H756 C763 0.950 . S
C757 C755 1.387 . S
C757 C759 1.390 . S
C757 H761 0.950 . S
H758 C754 0.950 . S
C759 C757 1.390 . S
C759 C760 1.387 1_545 S
C759 H762 0.950 . S
C760 C759 1.387 1_565 S
C760 C763 1.387 . S
H761 C757 0.950 . S
H762 C759 0.950 . S
C763 C754 1.390 1_565 S
C763 H756 0.950 . S
C763 C760 1.387 . S
C764 C765 1.387 . S
C764 H768 0.950 . S
C764 C773 1.390 . S
C765 C764 1.387 . S
C765 C767 1.387 . S
H766 C773 0.950 . S
C767 C765 1.387 . S
C767 C769 1.390 . S
C767 H771 0.950 . S
H768 C764 0.950 . S
C769 C767 1.390 . S
C769 C770 1.387 . S
C769 H772 0.950 . S
C770 C769 1.387 . S
C770 C773 1.387 . S
H771 C767 0.950 . S
H772 C769 0.950 . S
C773 C764 1.390 . S
C773 H766 0.950 . S
C773 C770 1.387 . S
C774 C775 1.387 . S
C774 H778 0.950 . S
C774 C783 1.390 1_565 S
C775 C774 1.387 . S
C775 C777 1.387 . S
H776 C783 0.950 . S
C777 C775 1.387 . S
C777 C779 1.390 . S
C777 H781 0.950 . S
H778 C774 0.950 . S
C779 C777 1.390 . S
C779 C780 1.387 1_565 S
C779 H782 0.950 . S
C780 C779 1.387 1_545 S
C780 C783 1.387 . S
H781 C777 0.950 . S
H782 C779 0.950 . S
C783 C774 1.390 1_545 S
C783 H776 0.950 . S
C783 C780 1.387 . S
C784 C785 1.387 . S
C784 H788 0.950 . S
C784 C793 1.390 . S
C785 C784 1.387 . S
C785 C787 1.387 . S
H786 C793 0.950 . S
C787 C785 1.387 . S
C787 C789 1.390 . S
C787 H791 0.950 . S
H788 C784 0.950 . S
C789 C787 1.390 . S
C789 C790 1.387 . S
C789 H792 0.950 . S
C790 C789 1.387 . S
C790 C793 1.387 . S
H791 C787 0.950 . S
H792 C789 0.950 . S
C793 C784 1.390 . S
C793 H786 0.950 . S
C793 C790 1.387 . S
C794 C795 1.387 . S
C794 H798 0.950 . S
C794 C803 1.390 1_545 S
C795 C794 1.387 . S
C795 C797 1.387 . S
H796 C803 0.950 . S
C797 C795 1.387 . S
C797 C799 1.390 . S
C797 H801 0.950 . S
H798 C794 0.950 . S
C799 C797 1.390 . S
C799 C800 1.387 1_545 S
C799 H802 0.950 . S
C800 C799 1.387 1_565 S
C800 C803 1.387 . S
H801 C797 0.950 . S
H802 C799 0.950 . S
C803 C794 1.390 1_565 S
C803 H796 0.950 . S
C803 C800 1.387 . S
C804 C805 1.387 . S
C804 H808 0.950 . S
C804 C813 1.390 . S
C805 C804 1.387 . S
C805 C807 1.387 . S
H806 C813 0.950 . S
C807 C805 1.387 . S
C807 C809 1.390 . S
C807 H811 0.950 . S
H808 C804 0.950 . S
C809 C807 1.390 . S
C809 C810 1.387 . S
C809 H812 0.950 . S
C810 C809 1.387 . S
C810 C813 1.387 . S
H811 C807 0.950 . S
H812 C809 0.950 . S
C813 C804 1.390 . S
C813 H806 0.950 . S
C813 C810 1.387 . S
C814 C815 1.387 . S
C814 H818 0.950 . S
C814 C823 1.390 1_565 S
C815 C814 1.387 . S
C815 C817 1.387 . S
H816 C823 0.950 . S
C817 C815 1.387 . S
C817 C819 1.390 . S
C817 H821 0.950 . S
H818 C814 0.950 . S
C819 C817 1.390 . S
C819 C820 1.387 1_565 S
C819 H822 0.950 . S
C820 C819 1.387 1_545 S
C820 C823 1.387 . S
H821 C817 0.950 . S
H822 C819 0.950 . S
C823 C814 1.390 1_545 S
C823 H816 0.950 . S
C823 C820 1.387 . S
C824 C825 1.387 . S
C824 H828 0.950 . S
C824 C833 1.390 . S
C825 C824 1.387 . S
C825 C827 1.387 . S
H826 C833 0.950 . S
C827 C825 1.387 . S
C827 C829 1.390 . S
C827 H831 0.950 . S
H828 C824 0.950 . S
C829 C827 1.390 . S
C829 C830 1.387 . S
C829 H832 0.950 . S
C830 C829 1.387 . S
C830 C833 1.387 . S
H831 C827 0.950 . S
H832 C829 0.950 . S
C833 C824 1.390 . S
C833 H826 0.950 . S
C833 C830 1.387 . S
C834 C835 1.387 . S
C834 H838 0.950 . S
C834 C843 1.390 . S
C835 C834 1.387 . S
C835 C837 1.387 . S
H836 C843 0.950 . S
C837 C835 1.387 . S
C837 C839 1.390 . S
C837 H841 0.950 . S
H838 C834 0.950 . S
C839 C837 1.390 . S
C839 C840 1.387 . S
C839 H842 0.950 . S
C840 C839 1.387 . S
C840 C843 1.387 . S
H841 C837 0.950 . S
H842 C839 0.950 . S
C843 C834 1.390 . S
C843 H836 0.950 . S
C843 C840 1.387 . S
C844 C845 1.387 . S
C844 H848 0.950 . S
C844 C853 1.390 . S
C845 C844 1.387 . S
C845 C847 1.387 . S
H846 C853 0.950 1_655 S
C847 C845 1.387 . S
C847 C849 1.390 . S
C847 H851 0.950 . S
H848 C844 0.950 . S
C849 C847 1.390 . S
C849 C850 1.387 1_455 S
C849 H852 0.950 1_455 S
C850 C849 1.387 1_655 S
C850 C853 1.387 1_655 S
H851 C847 0.950 . S
H852 C849 0.950 1_655 S
C853 C844 1.390 . S
C853 H846 0.950 1_455 S
C853 C850 1.387 1_455 S
C854 C855 1.387 . S
C854 H858 0.950 . S
C854 C863 1.390 . S
C855 C854 1.387 . S
C855 C857 1.387 . S
H856 C863 0.950 . S
C857 C855 1.387 . S
C857 C859 1.390 . S
C857 H861 0.950 . S
H858 C854 0.950 . S
C859 C857 1.390 . S
C859 C860 1.387 . S
C859 H862 0.950 . S
C860 C859 1.387 . S
C860 C863 1.387 . S
H861 C857 0.950 . S
H862 C859 0.950 . S
C863 C854 1.390 . S
C863 H856 0.950 . S
C863 C860 1.387 . S
C864 C865 1.387 . S
C864 H868 0.950 . S
C864 C873 1.390 . S
C865 C864 1.387 . S
C865 C867 1.387 . S
H866 C873 0.950 1_455 S
C867 C865 1.387 . S
C867 C869 1.390 . S
C867 H871 0.950 . S
H868 C864 0.950 . S
C869 C867 1.390 . S
C869 C870 1.387 1_655 S
C869 H872 0.950 1_655 S
C870 C869 1.387 1_455 S
C870 C873 1.387 1_455 S
H871 C867 0.950 . S
H872 C869 0.950 1_455 S
C873 C864 1.390 . S
C873 H866 0.950 1_655 S
C873 C870 1.387 1_655 S
C874 C875 1.387 . S
C874 H878 0.950 . S
C874 C883 1.390 . S
C875 C874 1.387 . S
C875 C877 1.387 . S
H876 C883 0.950 . S
C877 C875 1.387 . S
C877 C879 1.390 . S
C877 H881 0.950 . S
H878 C874 0.950 . S
C879 C877 1.390 . S
C879 C880 1.387 . S
C879 H882 0.950 . S
C880 C879 1.387 . S
C880 C883 1.387 . S
H881 C877 0.950 . S
H882 C879 0.950 . S
C883 C874 1.390 . S
C883 H876 0.950 . S
C883 C880 1.387 . S
C884 C885 1.387 . S
C884 H888 0.950 . S
C884 C893 1.386 1_455 S
C885 C884 1.387 . S
C885 C887 1.387 . S
H886 C893 0.952 . S
C887 C885 1.387 . S
C887 C889 1.390 . S
C887 H891 0.950 . S
H888 C884 0.950 . S
C889 C887 1.390 . S
C889 C890 1.387 1_455 S
C889 H892 0.950 . S
C890 C889 1.387 1_655 S
C890 C893 1.389 . S
H891 C887 0.950 . S
H892 C889 0.950 . S
C893 C884 1.386 1_655 S
C893 H886 0.952 . S
C893 C890 1.389 . S
C894 C895 1.387 . S
C894 H898 0.950 . S
C894 C903 1.390 . S
C895 C894 1.387 . S
C895 C897 1.387 . S
H896 C903 0.950 . S
C897 C895 1.387 . S
C897 C899 1.390 . S
C897 H901 0.950 . S
H898 C894 0.950 . S
C899 C897 1.390 . S
C899 C900 1.387 . S
C899 H902 0.950 . S
C900 C899 1.387 . S
C900 C903 1.387 . S
H901 C897 0.950 . S
H902 C899 0.950 . S
C903 C894 1.390 . S
C903 H896 0.950 . S
C903 C900 1.387 . S
C904 C905 1.387 . S
C904 H908 0.950 . S
C904 C913 1.390 . S
C905 C904 1.387 . S
C905 C907 1.387 . S
H906 C913 0.950 . S
C907 C905 1.387 . S
C907 C909 1.390 . S
C907 H911 0.950 . S
H908 C904 0.950 . S
C909 C907 1.390 . S
C909 C910 1.387 . S
C909 H912 0.950 . S
C910 C909 1.387 . S
C910 C913 1.387 . S
H911 C907 0.950 . S
H912 C909 0.950 . S
C913 C904 1.390 . S
C913 H906 0.950 . S
C913 C910 1.387 . S
C914 C915 1.387 . S
C914 H918 0.950 . S
C914 C923 1.390 . S
C915 C914 1.387 . S
C915 C917 1.387 . S
H916 C923 0.950 . S
C917 C915 1.387 . S
C917 C919 1.390 . S
C917 H921 0.950 . S
H918 C914 0.950 . S
C919 C917 1.390 . S
C919 C920 1.387 . S
C919 H922 0.950 . S
C920 C919 1.387 . S
C920 C923 1.387 . S
H921 C917 0.950 . S
H922 C919 0.950 . S
C923 C914 1.390 . S
C923 H916 0.950 . S
C923 C920 1.387 . S
C924 C925 1.387 . S
C924 H928 0.950 . S
C924 C933 1.390 . S
C925 C924 1.387 . S
C925 C927 1.387 . S
H926 C933 0.950 . S
C927 C925 1.387 . S
C927 C929 1.390 . S
C927 H931 0.950 . S
H928 C924 0.950 . S
C929 C927 1.390 . S
C929 C930 1.387 . S
C929 H932 0.950 . S
C930 C929 1.387 . S
C930 C933 1.387 . S
H931 C927 0.950 . S
H932 C929 0.950 . S
C933 C924 1.390 . S
C933 H926 0.950 . S
C933 C930 1.387 . S
C934 C935 1.387 . S
C934 H938 0.950 . S
C934 C943 1.390 . S
C935 C934 1.387 . S
C935 C937 1.387 . S
H936 C943 0.950 . S
C937 C935 1.387 . S
C937 C939 1.390 1_556 S
C937 H941 0.950 . S
H938 C934 0.950 . S
C939 C937 1.390 1_554 S
C939 C940 1.387 . S
C939 H942 0.950 . S
C940 C939 1.387 . S
C940 C943 1.387 1_554 S
H941 C937 0.950 . S
H942 C939 0.950 . S
C943 C934 1.390 . S
C943 H936 0.950 . S
C943 C940 1.387 1_556 S
C944 C945 1.387 . S
C944 H948 0.950 . S
C944 C953 1.390 . S
C945 C944 1.387 . S
C945 C947 1.387 . S
H946 C953 0.950 . S
C947 C945 1.387 . S
C947 C949 1.390 . S
C947 H951 0.950 . S
H948 C944 0.950 . S
C949 C947 1.390 . S
C949 C950 1.387 . S
C949 H952 0.950 . S
C950 C949 1.387 . S
C950 C953 1.387 . S
H951 C947 0.950 . S
H952 C949 0.950 . S
C953 C944 1.390 . S
C953 H946 0.950 . S
C953 C950 1.387 . S
C954 C955 1.387 . S
C954 H958 0.950 . S
C954 C963 1.390 . S
C955 C954 1.387 . S
C955 C957 1.387 . S
H956 C963 0.950 . S
C957 C955 1.387 . S
C957 C959 1.390 . S
C957 H961 0.950 . S
H958 C954 0.950 . S
C959 C957 1.390 . S
C959 C960 1.387 . S
C959 H962 0.950 . S
C960 C959 1.387 . S
C960 C963 1.387 . S
H961 C957 0.950 . S
H962 C959 0.950 . S
C963 C954 1.390 . S
C963 H956 0.950 . S
C963 C960 1.387 . S
C964 C965 1.387 . S
C964 H968 0.950 . S
C964 C973 1.390 . S
C965 C964 1.387 . S
C965 C967 1.387 . S
H966 C973 0.950 . S
C967 C965 1.387 . S
C967 C969 1.390 . S
C967 H971 0.950 . S
H968 C964 0.950 . S
C969 C967 1.390 . S
C969 C970 1.387 . S
C969 H972 0.950 . S
C970 C969 1.387 . S
C970 C973 1.387 . S
H971 C967 0.950 . S
H972 C969 0.950 . S
C973 C964 1.390 . S
C973 H966 0.950 . S
C973 C970 1.387 . S
C974 C975 1.387 . S
C974 H978 0.950 . S
C974 C983 1.390 . S
C975 C974 1.387 . S
C975 C977 1.387 . S
H976 C983 0.950 . S
C977 C975 1.387 . S
C977 C979 1.390 1_554 S
C977 H981 0.950 . S
H978 C974 0.950 . S
C979 C977 1.390 1_556 S
C979 C980 1.387 . S
C979 H982 0.950 . S
C980 C979 1.387 . S
C980 C983 1.387 1_556 S
H981 C977 0.950 . S
H982 C979 0.950 . S
C983 C974 1.390 . S
C983 H976 0.950 . S
C983 C980 1.387 1_554 S
C984 C985 1.387 . S
C984 H988 0.950 . S
C984 C993 1.390 . S
C985 C984 1.387 . S
C985 C987 1.387 . S
H986 C993 0.950 . S
C987 C985 1.387 . S
C987 C989 1.390 . S
C987 H991 0.950 . S
H988 C984 0.950 . S
C989 C987 1.390 . S
C989 C990 1.387 . S
C989 H992 0.950 . S
C990 C989 1.387 . S
C990 C993 1.387 . S
H991 C987 0.950 . S
H992 C989 0.950 . S
C993 C984 1.390 . S
C993 H986 0.950 . S
C993 C990 1.387 . S
C994 C995 1.387 . S
C994 H998 0.950 . S
C994 C1003 1.390 . S
C995 C994 1.387 . S
C995 C997 1.387 . S
H996 C1003 0.950 . S
C997 C995 1.387 . S
C997 C999 1.390 1_565 S
C997 H1001 0.950 . S
H998 C994 0.950 . S
C999 C997 1.390 1_545 S
C999 C1000 1.387 . S
C999 H1002 0.950 . S
C1000 C999 1.387 . S
C1000 C1003 1.387 1_545 S
H1001 C997 0.950 . S
H1002 C999 0.950 . S
C1003 C994 1.390 . S
C1003 H996 0.950 . S
C1003 C1000 1.387 1_565 S
C1004 C1005 1.387 . S
C1004 H1008 0.950 . S
C1004 C1013 1.390 . S
C1005 C1004 1.387 . S
C1005 C1007 1.387 . S
H1006 C1013 0.950 . S
C1007 C1005 1.387 . S
C1007 C1009 1.390 . S
C1007 H1011 0.950 . S
H1008 C1004 0.950 . S
C1009 C1007 1.390 . S
C1009 C1010 1.387 . S
C1009 H1012 0.950 . S
C1010 C1009 1.387 . S
C1010 C1013 1.387 . S
H1011 C1007 0.950 . S
H1012 C1009 0.950 . S
C1013 C1004 1.390 . S
C1013 H1006 0.950 . S
C1013 C1010 1.387 . S
C1014 C1015 1.387 . S
C1014 H1018 0.950 . S
C1014 C1023 1.390 1_545 S
C1015 C1014 1.387 . S
C1015 C1017 1.387 . S
H1016 C1023 0.950 . S
C1017 C1015 1.387 . S
C1017 C1019 1.390 . S
C1017 H1021 0.950 . S
H1018 C1014 0.950 . S
C1019 C1017 1.390 . S
C1019 C1020 1.387 1_545 S
C1019 H1022 0.950 . S
C1020 C1019 1.387 1_565 S
C1020 C1023 1.387 . S
H1021 C1017 0.950 . S
H1022 C1019 0.950 . S
C1023 C1014 1.390 1_565 S
C1023 H1016 0.950 . S
C1023 C1020 1.387 . S
C1024 C1025 1.387 . S
C1024 H1028 0.950 . S
C1024 C1033 1.390 . S
C1025 C1024 1.387 . S
C1025 C1027 1.387 . S
H1026 C1033 0.950 . S
C1027 C1025 1.387 . S
C1027 C1029 1.390 . S
C1027 H1031 0.950 . S
H1028 C1024 0.950 . S
C1029 C1027 1.390 . S
C1029 C1030 1.387 . S
C1029 H1032 0.950 . S
C1030 C1029 1.387 . S
C1030 C1033 1.387 . S
H1031 C1027 0.950 . S
H1032 C1029 0.950 . S
C1033 C1024 1.390 . S
C1033 H1026 0.950 . S
C1033 C1030 1.387 . S
C1034 C1035 1.387 . S
C1034 H1038 0.950 . S
C1034 C1043 1.390 . S
C1035 C1034 1.387 . S
C1035 C1037 1.387 . S
H1036 C1043 0.950 . S
C1037 C1035 1.387 . S
C1037 C1039 1.390 1_565 S
C1037 H1041 0.950 . S
H1038 C1034 0.950 . S
C1039 C1037 1.390 1_545 S
C1039 C1040 1.387 . S
C1039 H1042 0.950 . S
C1040 C1039 1.387 . S
C1040 C1043 1.387 1_545 S
H1041 C1037 0.950 . S
H1042 C1039 0.950 . S
C1043 C1034 1.390 . S
C1043 H1036 0.950 . S
C1043 C1040 1.387 1_565 S
C1044 C1045 1.387 . S
C1044 H1048 0.950 . S
C1044 C1053 1.390 . S
C1045 C1044 1.387 . S
C1045 C1047 1.387 . S
H1046 C1053 0.950 . S
C1047 C1045 1.387 . S
C1047 C1049 1.390 . S
C1047 H1051 0.950 . S
H1048 C1044 0.950 . S
C1049 C1047 1.390 . S
C1049 C1050 1.387 . S
C1049 H1052 0.950 . S
C1050 C1049 1.387 . S
C1050 C1053 1.387 . S
H1051 C1047 0.950 . S
H1052 C1049 0.950 . S
C1053 C1044 1.390 . S
C1053 H1046 0.950 . S
C1053 C1050 1.387 . S
C1054 C1055 1.387 . S
C1054 H1058 0.950 . S
C1054 C1063 1.390 . S
C1055 C1054 1.387 . S
C1055 C1057 1.387 . S
H1056 C1063 0.950 . S
C1057 C1055 1.387 . S
C1057 C1059 1.390 1_545 S
C1057 H1061 0.950 . S
H1058 C1054 0.950 . S
C1059 C1057 1.390 1_565 S
C1059 C1060 1.387 . S
C1059 H1062 0.950 . S
C1060 C1059 1.387 . S
C1060 C1063 1.387 1_565 S
H1061 C1057 0.950 . S
H1062 C1059 0.950 . S
C1063 C1054 1.390 . S
C1063 H1056 0.950 . S
C1063 C1060 1.387 1_545 S
C1064 C1065 1.387 . S
C1064 H1068 0.950 . S
C1064 C1073 1.390 . S
C1065 C1064 1.387 . S
C1065 C1067 1.387 . S
H1066 C1073 0.950 . S
C1067 C1065 1.387 . S
C1067 C1069 1.390 . S
C1067 H1071 0.950 . S
H1068 C1064 0.950 . S
C1069 C1067 1.390 . S
C1069 C1070 1.387 . S
C1069 H1072 0.950 . S
C1070 C1069 1.387 . S
C1070 C1073 1.387 . S
H1071 C1067 0.950 . S
H1072 C1069 0.950 . S
C1073 C1064 1.390 . S
C1073 H1066 0.950 . S
C1073 C1070 1.387 . S
C1074 C1075 1.387 . S
C1074 H1078 0.950 . S
C1074 C1083 1.390 . S
C1075 C1074 1.387 . S
C1075 C1077 1.387 . S
H1076 C1083 0.950 . S
C1077 C1075 1.387 . S
C1077 C1079 1.390 . S
C1077 H1081 0.950 . S
H1078 C1074 0.950 . S
C1079 C1077 1.390 . S
C1079 C1080 1.387 . S
C1079 H1082 0.950 . S
C1080 C1079 1.387 . S
C1080 C1083 1.387 . S
H1081 C1077 0.950 . S
H1082 C1079 0.950 . S
C1083 C1074 1.390 . S
C1083 H1076 0.950 . S
C1083 C1080 1.387 . S
C1084 C1085 1.387 . S
C1084 H1088 0.950 . S
C1084 C1093 1.390 1_655 S
C1085 C1084 1.387 . S
C1085 C1087 1.387 . S
H1086 C1093 0.950 . S
C1087 C1085 1.387 . S
C1087 C1089 1.390 . S
C1087 H1091 0.950 . S
H1088 C1084 0.950 . S
C1089 C1087 1.390 . S
C1089 C1090 1.387 1_655 S
C1089 H1092 0.950 . S
C1090 C1089 1.387 1_455 S
C1090 C1093 1.387 . S
H1091 C1087 0.950 . S
H1092 C1089 0.950 . S
C1093 C1084 1.390 1_455 S
C1093 H1086 0.950 . S
C1093 C1090 1.387 . S
C1094 C1095 1.387 . S
C1094 H1098 0.950 . S
C1094 C1103 1.390 . S
C1095 C1094 1.387 . S
C1095 C1097 1.387 . S
H1096 C1103 0.950 . S
C1097 C1095 1.387 . S
C1097 C1099 1.390 . S
C1097 H1101 0.950 . S
H1098 C1094 0.950 . S
C1099 C1097 1.390 . S
C1099 C1100 1.387 . S
C1099 H1102 0.950 . S
C1100 C1099 1.387 . S
C1100 C1103 1.387 . S
H1101 C1097 0.950 . S
H1102 C1099 0.950 . S
C1103 C1094 1.390 . S
C1103 H1096 0.950 . S
C1103 C1100 1.387 . S
C1104 C1105 1.387 . S
C1104 H1108 0.950 . S
C1104 C1113 1.390 1_455 S
C1105 C1104 1.387 . S
C1105 C1107 1.387 . S
H1106 C1113 0.950 . S
C1107 C1105 1.387 . S
C1107 C1109 1.390 . S
C1107 H1111 0.950 . S
H1108 C1104 0.950 . S
C1109 C1107 1.390 . S
C1109 C1110 1.387 1_455 S
C1109 H1112 0.950 . S
C1110 C1109 1.387 1_655 S
C1110 C1113 1.387 . S
H1111 C1107 0.950 . S
H1112 C1109 0.950 . S
C1113 C1104 1.390 1_655 S
C1113 H1106 0.950 . S
C1113 C1110 1.387 . S
C1114 C1115 1.387 . S
C1114 H1118 0.950 . S
C1114 C1123 1.390 . S
C1115 C1114 1.387 . S
C1115 C1117 1.387 . S
H1116 C1123 0.950 . S
C1117 C1115 1.387 . S
C1117 C1119 1.390 . S
C1117 H1121 0.950 . S
H1118 C1114 0.950 . S
C1119 C1117 1.390 . S
C1119 C1120 1.387 . S
C1119 H1122 0.950 . S
C1120 C1119 1.387 . S
C1120 C1123 1.387 . S
H1121 C1117 0.950 . S
H1122 C1119 0.950 . S
C1123 C1114 1.390 . S
C1123 H1116 0.950 . S
C1123 C1120 1.387 . S
C1124 C1125 1.387 . S
C1124 H1128 0.950 . S
C1124 C1133 1.390 1_655 S
C1125 C1124 1.387 . S
C1125 C1127 1.387 . S
H1126 C1133 0.950 . S
C1127 C1125 1.387 . S
C1127 C1129 1.390 . S
C1127 H1131 0.950 . S
H1128 C1124 0.950 . S
C1129 C1127 1.390 . S
C1129 C1130 1.387 1_655 S
C1129 H1132 0.950 . S
C1130 C1129 1.387 1_455 S
C1130 C1133 1.387 . S
H1131 C1127 0.950 . S
H1132 C1129 0.950 . S
C1133 C1124 1.390 1_455 S
C1133 H1126 0.950 . S
C1133 C1130 1.387 . S
C1134 C1135 1.387 . S
C1134 H1138 0.950 . S
C1134 C1143 1.390 . S
C1135 C1134 1.387 . S
C1135 C1137 1.387 . S
H1136 C1143 0.950 . S
C1137 C1135 1.387 . S
C1137 C1139 1.390 . S
C1137 H1141 0.950 . S
H1138 C1134 0.950 . S
C1139 C1137 1.390 . S
C1139 C1140 1.387 . S
C1139 H1142 0.950 . S
C1140 C1139 1.387 . S
C1140 C1143 1.387 . S
H1141 C1137 0.950 . S
H1142 C1139 0.950 . S
C1143 C1134 1.390 . S
C1143 H1136 0.950 . S
C1143 C1140 1.387 . S
C1144 C1145 1.387 . S
C1144 H1148 0.950 . S
C1144 C1153 1.390 . S
C1145 C1144 1.387 . S
C1145 C1147 1.387 . S
H1146 C1153 0.950 . S
C1147 C1145 1.387 . S
C1147 C1149 1.390 . S
C1147 H1151 0.950 . S
H1148 C1144 0.950 . S
C1149 C1147 1.390 . S
C1149 C1150 1.387 . S
C1149 H1152 0.950 . S
C1150 C1149 1.387 . S
C1150 C1153 1.387 . S
H1151 C1147 0.950 . S
H1152 C1149 0.950 . S
C1153 C1144 1.390 . S
C1153 H1146 0.950 . S
C1153 C1150 1.387 . S
C1154 C1155 1.387 . S
C1154 H1158 0.950 . S
C1154 C1163 1.390 . S
C1155 C1154 1.387 . S
C1155 C1157 1.387 . S
H1156 C1163 0.950 . S
C1157 C1155 1.387 . S
C1157 C1159 1.390 1_554 S
C1157 H1161 0.950 . S
H1158 C1154 0.950 . S
C1159 C1157 1.390 1_556 S
C1159 C1160 1.387 . S
C1159 H1162 0.950 . S
C1160 C1159 1.387 . S
C1160 C1163 1.387 1_556 S
H1161 C1157 0.950 . S
H1162 C1159 0.950 . S
C1163 C1154 1.390 . S
C1163 H1156 0.950 . S
C1163 C1160 1.387 1_554 S
C1164 C1165 1.387 . S
C1164 H1168 0.950 . S
C1164 C1173 1.390 . S
C1165 C1164 1.387 . S
C1165 C1167 1.387 . S
H1166 C1173 0.950 . S
C1167 C1165 1.387 . S
C1167 C1169 1.390 . S
C1167 H1171 0.950 . S
H1168 C1164 0.950 . S
C1169 C1167 1.390 . S
C1169 C1170 1.387 . S
C1169 H1172 0.950 . S
C1170 C1169 1.387 . S
C1170 C1173 1.387 . S
H1171 C1167 0.950 . S
H1172 C1169 0.950 . S
C1173 C1164 1.390 . S
C1173 H1166 0.950 . S
C1173 C1170 1.387 . S
C1174 C1175 1.387 . S
C1174 H1178 0.950 . S
C1174 C1183 1.390 . S
C1175 C1174 1.387 . S
C1175 C1177 1.387 . S
H1176 C1183 0.950 . S
C1177 C1175 1.387 . S
C1177 C1179 1.390 . S
C1177 H1181 0.950 . S
H1178 C1174 0.950 . S
C1179 C1177 1.390 . S
C1179 C1180 1.387 . S
C1179 H1182 0.950 . S
C1180 C1179 1.387 . S
C1180 C1183 1.387 . S
H1181 C1177 0.950 . S
H1182 C1179 0.950 . S
C1183 C1174 1.390 . S
C1183 H1176 0.950 . S
C1183 C1180 1.387 . S
C1184 C1185 1.387 . S
C1184 H1188 0.950 . S
C1184 C1193 1.390 . S
C1185 C1184 1.387 . S
C1185 C1187 1.387 . S
H1186 C1193 0.950 . S
C1187 C1185 1.387 . S
C1187 C1189 1.390 . S
C1187 H1191 0.950 . S
H1188 C1184 0.950 . S
C1189 C1187 1.390 . S
C1189 C1190 1.387 . S
C1189 H1192 0.950 . S
C1190 C1189 1.387 . S
C1190 C1193 1.387 . S
H1191 C1187 0.950 . S
H1192 C1189 0.950 . S
C1193 C1184 1.390 . S
C1193 H1186 0.950 . S
C1193 C1190 1.387 . S
C1194 C1195 1.387 . S
C1194 H1198 0.950 . S
C1194 C1203 1.390 . S
C1195 C1194 1.387 . S
C1195 C1197 1.387 . S
H1196 C1203 0.950 . S
C1197 C1195 1.387 . S
C1197 C1199 1.390 1_556 S
C1197 H1201 0.950 . S
H1198 C1194 0.950 . S
C1199 C1197 1.390 1_554 S
C1199 C1200 1.387 . S
C1199 H1202 0.950 . S
C1200 C1199 1.387 . S
C1200 C1203 1.387 1_554 S
H1201 C1197 0.950 . S
H1202 C1199 0.950 . S
C1203 C1194 1.390 . S
C1203 H1196 0.950 . S
C1203 C1200 1.387 1_556 S
C1204 C1205 1.387 . S
C1204 H1208 0.950 . S
C1204 C1213 1.390 . S
C1205 C1204 1.387 . S
C1205 C1207 1.387 . S
H1206 C1213 0.950 . S
C1207 C1205 1.387 . S
C1207 C1209 1.390 . S
C1207 H1211 0.950 . S
H1208 C1204 0.950 . S
C1209 C1207 1.390 . S
C1209 C1210 1.387 . S
C1209 H1212 0.950 . S
C1210 C1209 1.387 . S
C1210 C1213 1.387 . S
H1211 C1207 0.950 . S
H1212 C1209 0.950 . S
C1213 C1204 1.390 . S
C1213 H1206 0.950 . S
C1213 C1210 1.387 . S
C1214 C1215 1.387 . S
C1214 H1218 0.950 . S
C1214 C1223 1.390 . S
C1215 C1214 1.387 . S
C1215 C1217 1.387 . S
H1216 C1223 0.950 . S
C1217 C1215 1.387 . S
C1217 C1219 1.390 . S
C1217 H1221 0.950 . S
H1218 C1214 0.950 . S
C1219 C1217 1.390 . S
C1219 C1220 1.387 . S
C1219 H1222 0.950 . S
C1220 C1219 1.387 . S
C1220 C1223 1.387 . S
H1221 C1217 0.950 . S
H1222 C1219 0.950 . S
C1223 C1214 1.390 . S
C1223 H1216 0.950 . S
C1223 C1220 1.387 . S
C1224 C1225 1.387 . S
C1224 H1228 0.950 . S
C1224 C1233 1.390 . S
C1225 C1224 1.387 . S
C1225 C1227 1.387 . S
H1226 C1233 0.950 . S
C1227 C1225 1.387 . S
C1227 C1229 1.390 . S
C1227 H1231 0.950 . S
H1228 C1224 0.950 . S
C1229 C1227 1.390 . S
C1229 C1230 1.387 . S
C1229 H1232 0.950 . S
C1230 C1229 1.387 . S
C1230 C1233 1.387 . S
H1231 C1227 0.950 . S
H1232 C1229 0.950 . S
C1233 C1224 1.390 . S
C1233 H1226 0.950 . S
C1233 C1230 1.387 . S
C1234 C1235 1.387 . S
C1234 H1238 0.950 . S
C1234 C1243 1.390 . S
C1235 C1234 1.387 . S
C1235 C1237 1.387 . S
H1236 C1243 0.950 . S
C1237 C1235 1.387 . S
C1237 C1239 1.390 . S
C1237 H1241 0.950 . S
H1238 C1234 0.950 . S
C1239 C1237 1.390 . S
C1239 C1240 1.387 . S
C1239 H1242 0.950 . S
C1240 C1239 1.387 . S
C1240 C1243 1.387 . S
H1241 C1237 0.950 . S
H1242 C1239 0.950 . S
C1243 C1234 1.390 . S
C1243 H1236 0.950 . S
C1243 C1240 1.387 . S
C1244 C1245 1.387 . S
C1244 H1248 0.950 . S
C1244 C1253 1.390 . S
C1245 C1244 1.387 . S
C1245 C1247 1.387 . S
H1246 C1253 0.950 . S
C1247 C1245 1.387 . S
C1247 C1249 1.390 . S
C1247 H1251 0.950 . S
H1248 C1244 0.950 . S
C1249 C1247 1.390 . S
C1249 C1250 1.387 . S
C1249 H1252 0.950 . S
C1250 C1249 1.387 . S
C1250 C1253 1.387 . S
H1251 C1247 0.950 . S
H1252 C1249 0.950 . S
C1253 C1244 1.390 . S
C1253 H1246 0.950 . S
C1253 C1250 1.387 . S
C1254 C1255 1.387 . S
C1254 H1258 0.950 . S
C1254 C1263 1.390 . S
C1255 C1254 1.387 . S
C1255 C1257 1.387 . S
H1256 C1263 0.950 . S
C1257 C1255 1.387 . S
C1257 C1259 1.390 . S
C1257 H1261 0.950 . S
H1258 C1254 0.950 . S
C1259 C1257 1.390 . S
C1259 C1260 1.387 . S
C1259 H1262 0.950 . S
C1260 C1259 1.387 . S
C1260 C1263 1.387 . S
H1261 C1257 0.950 . S
H1262 C1259 0.950 . S
C1263 C1254 1.390 . S
C1263 H1256 0.950 . S
C1263 C1260 1.387 . S
C1264 C1265 1.387 . S
C1264 H1268 0.950 . S
C1264 C1273 1.390 . S
C1265 C1264 1.387 . S
C1265 C1267 1.387 . S
H1266 C1273 0.950 . S
C1267 C1265 1.387 . S
C1267 C1269 1.390 . S
C1267 H1271 0.950 . S
H1268 C1264 0.950 . S
C1269 C1267 1.390 . S
C1269 C1270 1.387 . S
C1269 H1272 0.950 . S
C1270 C1269 1.387 . S
C1270 C1273 1.387 . S
H1271 C1267 0.950 . S
H1272 C1269 0.950 . S
C1273 C1264 1.390 . S
C1273 H1266 0.950 . S
C1273 C1270 1.387 . S
C1274 C1275 1.387 . S
C1274 H1278 0.950 . S
C1274 C1283 1.390 . S
C1275 C1274 1.387 . S
C1275 C1277 1.387 . S
H1276 C1283 0.950 . S
C1277 C1275 1.387 . S
C1277 C1279 1.390 . S
C1277 H1281 0.950 . S
H1278 C1274 0.950 . S
C1279 C1277 1.390 . S
C1279 C1280 1.387 . S
C1279 H1282 0.950 . S
C1280 C1279 1.387 . S
C1280 C1283 1.387 . S
H1281 C1277 0.950 . S
H1282 C1279 0.950 . S
C1283 C1274 1.390 . S
C1283 H1276 0.950 . S
C1283 C1280 1.387 . S
C1284 C1285 1.387 . S
C1284 H1288 0.950 . S
C1284 C1293 1.390 . S
C1285 C1284 1.387 . S
C1285 C1287 1.387 . S
H1286 C1293 0.950 . S
C1287 C1285 1.387 . S
C1287 C1289 1.390 . S
C1287 H1291 0.950 . S
H1288 C1284 0.950 . S
C1289 C1287 1.390 . S
C1289 C1290 1.387 . S
C1289 H1292 0.950 . S
C1290 C1289 1.387 . S
C1290 C1293 1.387 . S
H1291 C1287 0.950 . S
H1292 C1289 0.950 . S
C1293 C1284 1.390 . S
C1293 H1286 0.950 . S
C1293 C1290 1.387 . S
C1294 C1295 1.387 . S
C1294 H1298 0.950 . S
C1294 C1303 1.390 . S
C1295 C1294 1.387 . S
C1295 C1297 1.387 . S
H1296 C1303 0.950 . S
C1297 C1295 1.387 . S
C1297 C1299 1.390 . S
C1297 H1301 0.950 . S
H1298 C1294 0.950 . S
C1299 C1297 1.390 . S
C1299 C1300 1.387 . S
C1299 H1302 0.950 . S
C1300 C1299 1.387 . S
C1300 C1303 1.387 . S
H1301 C1297 0.950 . S
H1302 C1299 0.950 . S
C1303 C1294 1.390 . S
C1303 H1296 0.950 . S
C1303 C1300 1.387 . S
C1304 C1305 1.387 . S
C1304 H1308 0.950 . S
C1304 C1313 1.390 . S
C1305 C1304 1.387 . S
C1305 C1307 1.387 . S
H1306 C1313 0.950 . S
C1307 C1305 1.387 . S
C1307 C1309 1.390 . S
C1307 H1311 0.950 . S
H1308 C1304 0.950 . S
C1309 C1307 1.390 . S
C1309 C1310 1.387 . S
C1309 H1312 0.950 . S
C1310 C1309 1.387 . S
C1310 C1313 1.387 . S
H1311 C1307 0.950 . S
H1312 C1309 0.950 . S
C1313 C1304 1.390 . S
C1313 H1306 0.950 . S
C1313 C1310 1.387 . S
C1314 C1315 1.387 . S
C1314 H1318 0.950 . S
C1314 C1323 1.390 . S
C1315 C1314 1.387 . S
C1315 C1317 1.387 . S
H1316 C1323 0.950 . S
C1317 C1315 1.387 . S
C1317 C1319 1.390 . S
C1317 H1321 0.950 . S
H1318 C1314 0.950 . S
C1319 C1317 1.390 . S
C1319 C1320 1.387 . S
C1319 H1322 0.950 . S
C1320 C1319 1.387 . S
C1320 C1323 1.387 . S
H1321 C1317 0.950 . S
H1322 C1319 0.950 . S
C1323 C1314 1.390 . S
C1323 H1316 0.950 . S
C1323 C1320 1.387 . S
C1324 C1325 1.387 . S
C1324 H1328 0.950 . S
C1324 C1333 1.390 . S
C1325 C1324 1.387 . S
C1325 C1327 1.387 . S
H1326 C1333 0.950 . S
C1327 C1325 1.387 . S
C1327 C1329 1.390 . S
C1327 H1331 0.950 . S
H1328 C1324 0.950 . S
C1329 C1327 1.390 . S
C1329 C1330 1.387 . S
C1329 H1332 0.950 . S
C1330 C1329 1.387 . S
C1330 C1333 1.387 . S
H1331 C1327 0.950 . S
H1332 C1329 0.950 . S
C1333 C1324 1.390 . S
C1333 H1326 0.950 . S
C1333 C1330 1.387 . S
C1334 C1335 1.387 . S
C1334 H1338 0.950 . S
C1334 C1343 1.390 . S
C1335 C1334 1.387 . S
C1335 C1337 1.387 . S
H1336 C1343 0.950 . S
C1337 C1335 1.387 . S
C1337 C1339 1.390 . S
C1337 H1341 0.950 . S
H1338 C1334 0.950 . S
C1339 C1337 1.390 . S
C1339 C1340 1.387 . S
C1339 H1342 0.950 . S
C1340 C1339 1.387 . S
C1340 C1343 1.387 . S
H1341 C1337 0.950 . S
H1342 C1339 0.950 . S
C1343 C1334 1.390 . S
C1343 H1336 0.950 . S
C1343 C1340 1.387 . S
C1344 C1345 1.387 . S
C1344 H1348 0.950 . S
C1344 C1353 1.390 . S
C1345 C1344 1.387 . S
C1345 C1347 1.387 . S
H1346 C1353 0.950 . S
C1347 C1345 1.387 . S
C1347 C1349 1.390 . S
C1347 H1351 0.950 . S
H1348 C1344 0.950 . S
C1349 C1347 1.390 . S
C1349 C1350 1.387 . S
C1349 H1352 0.950 . S
C1350 C1349 1.387 . S
C1350 C1353 1.387 . S
H1351 C1347 0.950 . S
H1352 C1349 0.950 . S
C1353 C1344 1.390 . S
C1353 H1346 0.950 . S
C1353 C1350 1.387 . S
C1354 C1355 1.387 . S
C1354 H1358 0.950 . S
C1354 C1363 1.390 . S
C1355 C1354 1.387 . S
C1355 C1357 1.387 . S
H1356 C1363 0.950 . S
C1357 C1355 1.387 . S
C1357 C1359 1.390 . S
C1357 H1361 0.950 . S
H1358 C1354 0.950 . S
C1359 C1357 1.390 . S
C1359 C1360 1.387 . S
C1359 H1362 0.950 . S
C1360 C1359 1.387 . S
C1360 C1363 1.387 . S
H1361 C1357 0.950 . S
H1362 C1359 0.950 . S
C1363 C1354 1.390 . S
C1363 H1356 0.950 . S
C1363 C1360 1.387 . S
C1364 C1365 1.387 . S
C1364 H1368 0.950 . S
C1364 C1373 1.390 . S
C1365 C1364 1.387 . S
C1365 C1367 1.387 . S
H1366 C1373 0.950 . S
C1367 C1365 1.387 . S
C1367 C1369 1.390 . S
C1367 H1371 0.950 . S
H1368 C1364 0.950 . S
C1369 C1367 1.390 . S
C1369 C1370 1.387 . S
C1369 H1372 0.950 . S
C1370 C1369 1.387 . S
C1370 C1373 1.387 . S
H1371 C1367 0.950 . S
H1372 C1369 0.950 . S
C1373 C1364 1.390 . S
C1373 H1366 0.950 . S
C1373 C1370 1.387 . S
C1374 C1375 1.387 . S
C1374 H1378 0.950 . S
C1374 C1383 1.390 . S
C1375 C1374 1.387 . S
C1375 C1377 1.387 . S
H1376 C1383 0.950 1_455 S
C1377 C1375 1.387 . S
C1377 C1379 1.390 . S
C1377 H1381 0.950 . S
H1378 C1374 0.950 . S
C1379 C1377 1.390 . S
C1379 C1380 1.388 1_655 S
C1379 H1382 0.950 1_655 S
C1380 C1379 1.388 1_455 S
C1380 C1383 1.387 1_455 S
H1381 C1377 0.950 . S
H1382 C1379 0.950 1_455 S
C1383 C1374 1.390 . S
C1383 H1376 0.950 1_655 S
C1383 C1380 1.387 1_655 S
C1384 C1385 1.387 . S
C1384 H1388 0.950 . S
C1384 C1393 1.390 . S
C1385 C1384 1.387 . S
C1385 C1387 1.387 . S
H1386 C1393 0.950 . S
C1387 C1385 1.387 . S
C1387 C1389 1.390 . S
C1387 H1391 0.950 . S
H1388 C1384 0.950 . S
C1389 C1387 1.390 . S
C1389 C1390 1.387 . S
C1389 H1392 0.950 . S
C1390 C1389 1.387 . S
C1390 C1393 1.387 . S
H1391 C1387 0.950 . S
H1392 C1389 0.950 . S
C1393 C1384 1.390 . S
C1393 H1386 0.950 . S
C1393 C1390 1.387 . S
C1394 C1395 1.387 . S
C1394 H1398 0.950 . S
C1394 C1403 1.390 1_556 S
C1395 C1394 1.387 . S
C1395 C1397 1.387 . S
H1396 C1403 0.950 . S
C1397 C1395 1.387 . S
C1397 C1399 1.390 . S
C1397 H1401 0.950 . S
H1398 C1394 0.950 . S
C1399 C1397 1.390 . S
C1399 C1400 1.387 1_556 S
C1399 H1402 0.950 . S
C1400 C1399 1.387 1_554 S
C1400 C1403 1.387 . S
H1401 C1397 0.950 . S
H1402 C1399 0.950 . S
C1403 C1394 1.390 1_554 S
C1403 H1396 0.950 . S
C1403 C1400 1.387 . S
C1404 C1405 1.387 . S
C1404 H1408 0.950 . S
C1404 C1413 1.390 . S
C1405 C1404 1.387 . S
C1405 C1407 1.387 . S
H1406 C1413 0.950 . S
C1407 C1405 1.387 . S
C1407 C1409 1.390 . S
C1407 H1411 0.950 . S
H1408 C1404 0.950 . S
C1409 C1407 1.390 . S
C1409 C1410 1.387 . S
C1409 H1412 0.950 . S
C1410 C1409 1.387 . S
C1410 C1413 1.387 . S
H1411 C1407 0.950 . S
H1412 C1409 0.950 . S
C1413 C1404 1.390 . S
C1413 H1406 0.950 . S
C1413 C1410 1.387 . S
C1414 C1415 1.387 . S
C1414 H1418 0.950 . S
C1414 C1423 1.390 . S
C1415 C1414 1.387 . S
C1415 C1417 1.387 . S
H1416 C1423 0.950 . S
C1417 C1415 1.387 . S
C1417 C1419 1.390 . S
C1417 H1421 0.950 . S
H1418 C1414 0.950 . S
C1419 C1417 1.390 . S
C1419 C1420 1.387 . S
C1419 H1422 0.950 . S
C1420 C1419 1.387 . S
C1420 C1423 1.387 . S
H1421 C1417 0.950 . S
H1422 C1419 0.950 . S
C1423 C1414 1.390 . S
C1423 H1416 0.950 . S
C1423 C1420 1.387 . S
C1424 C1425 1.387 . S
C1424 H1428 0.950 . S
C1424 C1433 1.390 . S
C1425 C1424 1.387 . S
C1425 C1427 1.387 . S
H1426 C1433 0.950 . S
C1427 C1425 1.387 . S
C1427 C1429 1.390 . S
C1427 H1431 0.950 . S
H1428 C1424 0.950 . S
C1429 C1427 1.390 . S
C1429 C1430 1.387 . S
C1429 H1432 0.950 . S
C1430 C1429 1.387 . S
C1430 C1433 1.387 . S
H1431 C1427 0.950 . S
H1432 C1429 0.950 . S
C1433 C1424 1.390 . S
C1433 H1426 0.950 . S
C1433 C1430 1.387 . S
C1434 C1435 1.387 . S
C1434 H1438 0.950 . S
C1434 C1443 1.390 1_554 S
C1435 C1434 1.387 . S
C1435 C1437 1.387 . S
H1436 C1443 0.950 . S
C1437 C1435 1.387 . S
C1437 C1439 1.390 . S
C1437 H1441 0.950 . S
H1438 C1434 0.950 . S
C1439 C1437 1.390 . S
C1439 C1440 1.387 1_554 S
C1439 H1442 0.950 . S
C1440 C1439 1.387 1_556 S
C1440 C1443 1.387 . S
H1441 C1437 0.950 . S
H1442 C1439 0.950 . S
C1443 C1434 1.390 1_556 S
C1443 H1436 0.950 . S
C1443 C1440 1.387 . S
C1444 C1445 1.387 . S
C1444 H1448 0.950 . S
C1444 C1453 1.390 . S
C1445 C1444 1.387 . S
C1445 C1447 1.387 . S
H1446 C1453 0.950 . S
C1447 C1445 1.387 . S
C1447 C1449 1.390 . S
C1447 H1451 0.950 . S
H1448 C1444 0.950 . S
C1449 C1447 1.390 . S
C1449 C1450 1.387 . S
C1449 H1452 0.950 . S
C1450 C1449 1.387 . S
C1450 C1453 1.387 . S
H1451 C1447 0.950 . S
H1452 C1449 0.950 . S
C1453 C1444 1.390 . S
C1453 H1446 0.950 . S
C1453 C1450 1.387 . S
C1454 C1455 1.387 . S
C1454 H1458 0.950 . S
C1454 C1463 1.390 . S
C1455 C1454 1.387 . S
C1455 C1457 1.387 . S
H1456 C1463 0.950 . S
C1457 C1455 1.387 . S
C1457 C1459 1.390 . S
C1457 H1461 0.950 . S
H1458 C1454 0.950 . S
C1459 C1457 1.390 . S
C1459 C1460 1.387 . S
C1459 H1462 0.950 . S
C1460 C1459 1.387 . S
C1460 C1463 1.387 . S
H1461 C1457 0.950 . S
H1462 C1459 0.950 . S
C1463 C1454 1.390 . S
C1463 H1456 0.950 . S
C1463 C1460 1.387 . S
C1464 C1465 1.387 . S
C1464 H1468 0.950 . S
C1464 C1473 1.390 . S
C1465 C1464 1.387 . S
C1465 C1467 1.387 . S
H1466 C1473 0.950 . S
C1467 C1465 1.387 . S
C1467 C1469 1.390 . S
C1467 H1471 0.950 . S
H1468 C1464 0.950 . S
C1469 C1467 1.390 . S
C1469 C1470 1.387 . S
C1469 H1472 0.950 . S
C1470 C1469 1.387 . S
C1470 C1473 1.387 . S
H1471 C1467 0.950 . S
H1472 C1469 0.950 . S
C1473 C1464 1.390 . S
C1473 H1466 0.950 . S
C1473 C1470 1.387 . S
C1474 C1475 1.387 . S
C1474 H1478 0.950 . S
C1474 C1483 1.390 . S
C1475 C1474 1.387 . S
C1475 C1477 1.387 . S
H1476 C1483 0.950 . S
C1477 C1475 1.387 . S
C1477 C1479 1.390 . S
C1477 H1481 0.950 . S
H1478 C1474 0.950 . S
C1479 C1477 1.390 . S
C1479 C1480 1.387 . S
C1479 H1482 0.950 . S
C1480 C1479 1.387 . S
C1480 C1483 1.387 . S
H1481 C1477 0.950 . S
H1482 C1479 0.950 . S
C1483 C1474 1.390 . S
C1483 H1476 0.950 . S
C1483 C1480 1.387 . S
C1484 C1485 1.387 . S
C1484 H1488 0.950 . S
C1484 C1493 1.390 . S
C1485 C1484 1.387 . S
C1485 C1487 1.387 . S
H1486 C1493 0.950 . S
C1487 C1485 1.387 . S
C1487 C1489 1.390 . S
C1487 H1491 0.950 . S
H1488 C1484 0.950 . S
C1489 C1487 1.390 . S
C1489 C1490 1.387 . S
C1489 H1492 0.950 . S
C1490 C1489 1.387 . S
C1490 C1493 1.387 . S
H1491 C1487 0.950 . S
H1492 C1489 0.950 . S
C1493 C1484 1.390 . S
C1493 H1486 0.950 . S
C1493 C1490 1.387 . S
C1494 C1495 1.387 . S
C1494 H1498 0.950 . S
C1494 C1503 1.390 . S
C1495 C1494 1.387 . S
C1495 C1497 1.387 . S
H1496 C1503 0.950 . S
C1497 C1495 1.387 . S
C1497 C1499 1.390 . S
C1497 H1501 0.950 . S
H1498 C1494 0.950 . S
C1499 C1497 1.390 . S
C1499 C1500 1.387 . S
C1499 H1502 0.950 . S
C1500 C1499 1.387 . S
C1500 C1503 1.387 . S
H1501 C1497 0.950 . S
H1502 C1499 0.950 . S
C1503 C1494 1.390 . S
C1503 H1496 0.950 . S
C1503 C1500 1.387 . S
C1504 C1505 1.387 . S
C1504 H1508 0.950 . S
C1504 C1513 1.390 . S
C1505 C1504 1.387 . S
C1505 C1507 1.387 . S
H1506 C1513 0.950 . S
C1507 C1505 1.387 . S
C1507 C1509 1.390 . S
C1507 H1511 0.950 . S
H1508 C1504 0.950 . S
C1509 C1507 1.390 . S
C1509 C1510 1.387 . S
C1509 H1512 0.950 . S
C1510 C1509 1.387 . S
C1510 C1513 1.387 . S
H1511 C1507 0.950 . S
H1512 C1509 0.950 . S
C1513 C1504 1.390 . S
C1513 H1506 0.950 . S
C1513 C1510 1.387 . S
C1514 C1515 1.387 . S
C1514 H1518 0.950 . S
C1514 C1523 1.390 . S
C1515 C1514 1.387 . S
C1515 C1517 1.387 . S
H1516 C1523 0.950 . S
C1517 C1515 1.387 . S
C1517 C1519 1.390 . S
C1517 H1521 0.950 . S
H1518 C1514 0.950 . S
C1519 C1517 1.390 . S
C1519 C1520 1.387 . S
C1519 H1522 0.950 . S
C1520 C1519 1.387 . S
C1520 C1523 1.387 . S
H1521 C1517 0.950 . S
H1522 C1519 0.950 . S
C1523 C1514 1.390 . S
C1523 H1516 0.950 . S
C1523 C1520 1.387 . S
C1524 C1525 1.387 . S
C1524 H1528 0.950 . S
C1524 C1533 1.390 . S
C1525 C1524 1.387 . S
C1525 C1527 1.387 . S
H1526 C1533 0.950 . S
C1527 C1525 1.387 . S
C1527 C1529 1.390 . S
C1527 H1531 0.950 . S
H1528 C1524 0.950 . S
C1529 C1527 1.390 . S
C1529 C1530 1.387 . S
C1529 H1532 0.950 . S
C1530 C1529 1.387 . S
C1530 C1533 1.387 . S
H1531 C1527 0.950 . S
H1532 C1529 0.950 . S
C1533 C1524 1.390 . S
C1533 H1526 0.950 . S
C1533 C1530 1.387 . S
C1534 C1535 1.387 . S
C1534 H1538 0.950 . S
C1534 C1543 1.390 . S
C1535 C1534 1.387 . S
C1535 C1537 1.387 . S
H1536 C1543 0.950 . S
C1537 C1535 1.387 . S
C1537 C1539 1.390 . S
C1537 H1541 0.950 . S
H1538 C1534 0.950 . S
C1539 C1537 1.390 . S
C1539 C1540 1.387 . S
C1539 H1542 0.950 . S
C1540 C1539 1.387 . S
C1540 C1543 1.387 . S
H1541 C1537 0.950 . S
H1542 C1539 0.950 . S
C1543 C1534 1.390 . S
C1543 H1536 0.950 . S
C1543 C1540 1.387 . S
C1544 C1545 1.387 . S
C1544 H1548 0.950 . S
C1544 C1553 1.390 . S
C1545 C1544 1.387 . S
C1545 C1547 1.387 . S
H1546 C1553 0.950 . S
C1547 C1545 1.387 . S
C1547 C1549 1.390 . S
C1547 H1551 0.950 . S
H1548 C1544 0.950 . S
C1549 C1547 1.390 . S
C1549 C1550 1.387 . S
C1549 H1552 0.950 . S
C1550 C1549 1.387 . S
C1550 C1553 1.387 . S
H1551 C1547 0.950 . S
H1552 C1549 0.950 . S
C1553 C1544 1.390 . S
C1553 H1546 0.950 . S
C1553 C1550 1.387 . S
C1554 C1555 1.387 . S
C1554 H1558 0.950 . S
C1554 C1563 1.390 . S
C1555 C1554 1.387 . S
C1555 C1557 1.387 . S
H1556 C1563 0.950 . S
C1557 C1555 1.387 . S
C1557 C1559 1.390 . S
C1557 H1561 0.950 . S
H1558 C1554 0.950 . S
C1559 C1557 1.390 . S
C1559 C1560 1.387 . S
C1559 H1562 0.950 . S
C1560 C1559 1.387 . S
C1560 C1563 1.387 . S
H1561 C1557 0.950 . S
H1562 C1559 0.950 . S
C1563 C1554 1.390 . S
C1563 H1556 0.950 . S
C1563 C1560 1.387 . S
C1564 C1565 1.387 . S
C1564 H1568 0.950 . S
C1564 C1573 1.390 . S
C1565 C1564 1.387 . S
C1565 C1567 1.387 . S
H1566 C1573 0.950 . S
C1567 C1565 1.387 . S
C1567 C1569 1.390 . S
C1567 H1571 0.950 . S
H1568 C1564 0.950 . S
C1569 C1567 1.390 . S
C1569 C1570 1.387 . S
C1569 H1572 0.950 . S
C1570 C1569 1.387 . S
C1570 C1573 1.387 . S
H1571 C1567 0.950 . S
H1572 C1569 0.950 . S
C1573 C1564 1.390 . S
C1573 H1566 0.950 . S
C1573 C1570 1.387 . S
C1574 C1575 1.387 . S
C1574 H1578 0.950 . S
C1574 C1583 1.390 . S
C1575 C1574 1.387 . S
C1575 C1577 1.387 . S
H1576 C1583 0.950 . S
C1577 C1575 1.387 . S
C1577 C1579 1.390 . S
C1577 H1581 0.950 . S
H1578 C1574 0.950 . S
C1579 C1577 1.390 . S
C1579 C1580 1.387 . S
C1579 H1582 0.950 . S
C1580 C1579 1.387 . S
C1580 C1583 1.387 . S
H1581 C1577 0.950 . S
H1582 C1579 0.950 . S
C1583 C1574 1.390 . S
C1583 H1576 0.950 . S
C1583 C1580 1.387 . S
C1584 C1585 1.387 . S
C1584 H1588 0.950 . S
C1584 C1593 1.390 . S
C1585 C1584 1.387 . S
C1585 C1587 1.387 . S
H1586 C1593 0.950 . S
C1587 C1585 1.387 . S
C1587 C1589 1.390 . S
C1587 H1591 0.950 . S
H1588 C1584 0.950 . S
C1589 C1587 1.390 . S
C1589 C1590 1.387 . S
C1589 H1592 0.950 . S
C1590 C1589 1.387 . S
C1590 C1593 1.387 . S
H1591 C1587 0.950 . S
H1592 C1589 0.950 . S
C1593 C1584 1.390 . S
C1593 H1586 0.950 . S
C1593 C1590 1.387 . S
C1594 C1595 1.387 . S
C1594 H1598 0.950 . S
C1594 C1603 1.390 . S
C1595 C1594 1.387 . S
C1595 C1597 1.387 . S
H1596 C1603 0.950 . S
C1597 C1595 1.387 . S
C1597 C1599 1.390 . S
C1597 H1601 0.950 . S
H1598 C1594 0.950 . S
C1599 C1597 1.390 . S
C1599 C1600 1.387 . S
C1599 H1602 0.950 . S
C1600 C1599 1.387 . S
C1600 C1603 1.387 . S
H1601 C1597 0.950 . S
H1602 C1599 0.950 . S
C1603 C1594 1.390 . S
C1603 H1596 0.950 . S
C1603 C1600 1.387 . S
C1604 C1605 1.387 . S
C1604 H1608 0.950 1_565 S
C1604 C1613 1.390 . S
C1605 C1604 1.387 . S
C1605 C1607 1.387 . S
H1606 C1613 0.950 . S
C1607 C1605 1.387 . S
C1607 C1609 1.390 . S
C1607 H1611 0.950 . S
H1608 C1604 0.950 1_545 S
C1609 C1607 1.390 . S
C1609 C1610 1.387 . S
C1609 H1612 0.950 . S
C1610 C1609 1.387 . S
C1610 C1613 1.387 . S
H1611 C1607 0.950 . S
H1612 C1609 0.950 . S
C1613 C1604 1.390 . S
C1613 H1606 0.950 . S
C1613 C1610 1.387 . S
C1614 C1615 1.387 . S
C1614 H1618 0.950 . S
C1614 C1623 1.390 1_455 S
C1615 C1614 1.387 . S
C1615 C1617 1.387 . S
H1616 C1623 0.950 . S
C1617 C1615 1.387 . S
C1617 C1619 1.390 . S
C1617 H1621 0.950 . S
H1618 C1614 0.950 . S
C1619 C1617 1.390 . S
C1619 C1620 1.387 1_455 S
C1619 H1622 0.950 . S
C1620 C1619 1.387 1_655 S
C1620 C1623 1.387 . S
H1621 C1617 0.950 . S
H1622 C1619 0.950 . S
C1623 C1614 1.390 1_655 S
C1623 H1616 0.950 . S
C1623 C1620 1.387 . S
C670 C319 1.302 . S
C665 C10 1.398 . S
C675 C16 1.404 . S
C680 C339 1.301 . S
C690 C360 1.298 . S
C685 C30 1.397 . S
C700 C387 1.303 . S
C695 C42 1.406 . S
C710 C343 1.303 . S
C705 C57 1.405 . S
C715 C69 1.396 . S
C720 C363 1.298 . S
C730 C383 1.298 . S
C725 C83 1.404 . S
C735 C101 1.398 . S
C740 C316 1.302 . S
C745 C108 1.397 . S
C750 C321 1.298 . S
C760 C338 1.303 . S
C755 C120 1.406 . S
C770 C362 1.299 . S
C765 C133 1.403 . S
C780 C386 1.300 . S
C775 C147 1.398 . S
C790 C342 1.302 . S
C785 C114 1.398 . S
C800 C365 1.303 . S
C795 C122 1.406 . S
C805 C135 1.406 . S
C810 C382 1.303 . S
C820 C318 1.302 . S
C815 C153 1.398 . S
C825 C160 1.396 . S
C830 C320 1.297 . S
C835 C174 1.403 . S
C840 C407 1.298 . S
C850 C427 1.299 . S
C845 C187 1.404 . S
C860 C450 1.302 . S
C855 C205 1.397 . S
C865 C212 1.397 . S
C870 C317 1.298 . S
C875 C226 1.406 . S
C880 C361 1.303 . S
C890 C451 1.298 . S
C885 C185 1.405 . S
C900 C406 1.302 . S
C895 C244 1.397 . S
C910 C474 1.280 . S
C905 C23 1.347 . S
C920 C495 1.276 . S
C915 C5 1.350 . S
C925 C49 1.347 . S
C930 C514 1.280 . S
C935 C29 1.350 . S
C940 C539 1.278 . S
C945 C94 1.350 . S
C950 C494 1.280 . S
C955 C88 1.347 . S
C960 C519 1.276 . S
C970 C538 1.276 . S
C965 C70 1.351 . S
C975 C62 1.347 . S
C980 C471 1.279 . S
C985 C257 1.348 . S
C990 C475 1.276 . S
C1000 C496 1.280 . S
C995 C200 1.350 . S
C1010 C515 1.278 . S
C1005 C211 1.350 . S
C1020 C540 1.275 . S
C1015 C179 1.348 . S
C1030 C492 1.279 . S
C1025 C251 1.347 . S
C1040 C517 1.280 . S
C1035 C198 1.350 . S
C1050 C536 1.280 . S
C1045 C213 1.350 . S
C1055 C173 1.347 . S
C1060 C472 1.278 . S
C1070 C473 1.277 . S
C1065 C264 1.348 . S
C1075 C148 1.350 . S
C1080 C559 1.277 . S
C1090 C584 1.276 . S
C1085 C278 1.350 . S
C1095 C127 1.348 . S
C1100 C603 1.275 . S
C1110 C470 1.279 . S
C1105 C140 1.347 . S
C1120 C516 1.279 . S
C1115 C289 1.350 . S
C1130 C607 1.276 . S
C1125 C276 1.350 . S
C1135 C303 1.348 . S
C1140 C563 1.275 . S
C1145 C36 1.397 . S
C1150 C627 1.302 . S
C1155 C44 1.403 . S
C1160 C405 1.298 . S
C1170 C429 1.298 . S
C1165 C4 1.396 . S
C1175 C18 1.405 . S
C1180 C453 1.300 . S
C1185 C81 1.405 . S
C1190 C409 1.303 . S
C1195 C95 1.397 . S
C1200 C426 1.302 . S
C1210 C449 1.298 . S
C1205 C55 1.404 . S
C1220 C624 1.301 . S
C1215 C75 1.397 . S
C1230 C629 1.302 . S
C1225 C277 1.398 . S
C1240 C404 1.303 . S
C1235 C263 1.405 . S
C1250 C431 1.298 . S
C1245 C302 1.404 . S
C1255 C290 1.398 . S
C1260 C452 1.303 . S
C1270 C408 1.299 . S
C1265 C283 1.397 . S
C1275 C265 1.404 . S
C1280 C428 1.298 . S
C1290 C448 1.299 . S
C1285 C304 1.404 . S
C1295 C296 1.398 . S
C1300 C626 1.302 . S
C1310 C628 1.302 . S
C1305 C199 1.397 . S
C1315 C224 1.405 . S
C1320 C341 1.299 . S
C1330 C364 1.299 . S
C1325 C252 1.404 . S
C1335 C166 1.396 . S
C1340 C384 1.298 . S
C1350 C625 1.297 . S
C1345 C238 1.397 . S
C1360 C430 1.302 . S
C1355 C172 1.404 . S
C1370 C385 1.298 . S
C1365 C250 1.404 . S
C1380 C340 1.302 . S
C1375 C218 1.397 . S
C1385 C43 1.347 . S
C1390 C651 1.280 . S
C1395 C31 1.350 . S
C1400 C561 1.276 . S
C1405 C17 1.348 . S
C1410 C580 1.275 . S
C1420 C605 1.276 . S
C1415 C3 1.350 . S
C1430 C560 1.280 . S
C1425 C68 1.350 . S
C1435 C56 1.347 . S
C1440 C585 1.278 . S
C1450 C604 1.276 . S
C1445 C96 1.350 . S
C1455 C82 1.347 . S
C1460 C646 1.279 . S
C1470 C649 1.276 . S
C1465 C192 1.348 . S
C1475 C161 1.350 . S
C1480 C562 1.277 . S
C1485 C237 1.350 . S
C1490 C581 1.279 . S
C1500 C606 1.280 . S
C1495 C225 1.347 . S
C1510 C558 1.276 . S
C1505 C186 1.347 . S
C1515 C159 1.350 . S
C1520 C583 1.277 . S
C1530 C602 1.277 . S
C1525 C239 1.350 . S
C1540 C647 1.279 . S
C1535 C231 1.347 . S
C1550 C650 1.277 . S
C1545 C121 1.348 . S
C1560 C493 1.276 . S
C1555 C291 1.350 . S
C1565 C109 1.350 . S
C1570 C518 1.278 . S
C1575 C270 1.347 . S
C1580 C537 1.277 . S
C1590 C648 1.277 . S
C1585 C309 1.348 . S
C1600 C582 1.277 . S
C1595 C146 1.350 . S
C1610 C541 1.276 . S
C1605 C107 1.350 . S
C1620 C497 1.276 . S
C1615 C134 1.348 . S
