# Generated by pormake.
# Topology hwx, (6,3)-cn, num edge types: 1
# Building blocks:
#     Node 0, Type 0, BuildingBlock: IZENUY_clean_sbu_0, # of connection points: 6
#     Node 1, Type 0, BuildingBlock: IZENUY_clean_sbu_0, # of connection points: 6
#     Node 2, Type 0, BuildingBlock: IZENUY_clean_sbu_0, # of connection points: 6
#     Node 3, Type 0, BuildingBlock: IZENUY_clean_sbu_0, # of connection points: 6
#     Node 4, Type 1, BuildingBlock: OLANEW_clean_sbu_2, # of connection points: 3
#     Node 5, Type 1, BuildingBlock: OLANEW_clean_sbu_2, # of connection points: 3
#     Node 6, Type 1, BuildingBlock: OLANEW_clean_sbu_2, # of connection points: 3
#     Node 7, Type 1, BuildingBlock: OLANEW_clean_sbu_2, # of connection points: 3
#     Node 8, Type 1, BuildingBlock: OLANEW_clean_sbu_2, # of connection points: 3
#     Node 9, Type 1, BuildingBlock: OLANEW_clean_sbu_2, # of connection points: 3
#     Node 10, Type 1, BuildingBlock: OLANEW_clean_sbu_2, # of connection points: 3
#     Node 11, Type 1, BuildingBlock: OLANEW_clean_sbu_2, # of connection points: 3
#     Edge 12, Type (0, 1), BuildingBlock: KIFKEQ_clean_linker_1, # of connection points: 2
#     Edge 13, Type (0, 1), BuildingBlock: KIFKEQ_clean_linker_1, # of connection points: 2
#     Edge 14, Type (0, 1), BuildingBlock: KIFKEQ_clean_linker_1, # of connection points: 2
#     Edge 15, Type (0, 1), BuildingBlock: KIFKEQ_clean_linker_1, # of connection points: 2
#     Edge 16, Type (0, 1), BuildingBlock: KIFKEQ_clean_linker_1, # of connection points: 2
#     Edge 17, Type (0, 1), BuildingBlock: KIFKEQ_clean_linker_1, # of connection points: 2
#     Edge 18, Type (0, 1), BuildingBlock: KIFKEQ_clean_linker_1, # of connection points: 2
#     Edge 19, Type (0, 1), BuildingBlock: KIFKEQ_clean_linker_1, # of connection points: 2
#     Edge 20, Type (0, 1), BuildingBlock: KIFKEQ_clean_linker_1, # of connection points: 2
#     Edge 21, Type (0, 1), BuildingBlock: KIFKEQ_clean_linker_1, # of connection points: 2
#     Edge 22, Type (0, 1), BuildingBlock: KIFKEQ_clean_linker_1, # of connection points: 2
#     Edge 23, Type (0, 1), BuildingBlock: KIFKEQ_clean_linker_1, # of connection points: 2
#     Edge 24, Type (0, 1), BuildingBlock: KIFKEQ_clean_linker_1, # of connection points: 2
#     Edge 25, Type (0, 1), BuildingBlock: KIFKEQ_clean_linker_1, # of connection points: 2
#     Edge 26, Type (0, 1), BuildingBlock: KIFKEQ_clean_linker_1, # of connection points: 2
#     Edge 27, Type (0, 1), BuildingBlock: KIFKEQ_clean_linker_1, # of connection points: 2
#     Edge 28, Type (0, 1), BuildingBlock: KIFKEQ_clean_linker_1, # of connection points: 2
#     Edge 29, Type (0, 1), BuildingBlock: KIFKEQ_clean_linker_1, # of connection points: 2
#     Edge 30, Type (0, 1), BuildingBlock: KIFKEQ_clean_linker_1, # of connection points: 2
#     Edge 31, Type (0, 1), BuildingBlock: KIFKEQ_clean_linker_1, # of connection points: 2
#     Edge 32, Type (0, 1), BuildingBlock: KIFKEQ_clean_linker_1, # of connection points: 2
#     Edge 33, Type (0, 1), BuildingBlock: KIFKEQ_clean_linker_1, # of connection points: 2
#     Edge 34, Type (0, 1), BuildingBlock: KIFKEQ_clean_linker_1, # of connection points: 2
#     Edge 35, Type (0, 1), BuildingBlock: KIFKEQ_clean_linker_1, # of connection points: 2
# Relax obj value: 0.014
# Max RMSD: 0.068
# Mean RMSD: 0.060
data_MOF--net-hwx--node1-IZENUY_clean_sbu_0--node2-OLANEW_clean_sbu_2--edge1-KIFKEQ_clean_linker_1
_symmetry_space_group_name_H-M    P1
_symmetry_Int_Tables_number       1
_symmetry_cell_setting            triclinic
loop_
_symmetry_equiv_pos_as_xyz
'x, y, z'
_cell_length_a     54.891174
_cell_length_b     54.742797
_cell_length_c     22.741012
_cell_angle_alpha  85.207866
_cell_angle_beta   94.57344
_cell_angle_gamma 90.246731
loop_
_atom_site_label
_atom_site_type_symbol
_atom_site_fract_x
_atom_site_fract_y
_atom_site_fract_z
_atom_type_partial_charge
Fe0 Fe 0.24104 0.2232 0.0872 0.0
Fe1 Fe 0.23689 0.22675 0.95189 0.0
O2 O 0.22905 0.21211 0.02006 0.0
Fe3 Fe 0.20918 0.18657 0.02118 0.0
O4 O 0.18734 0.20218 0.06082 0.0
O5 O 0.21439 0.2145 0.12827 0.0
O6 O 0.22637 0.25279 0.06758 0.0
C7 C 0.22987 0.26617 0.02109 0.0
C8 C 0.24537 0.17381 0.11468 0.0
O9 O 0.23964 0.25749 0.9787 0.0
C10 C 0.23687 0.17634 0.93181 0.0
O11 O 0.27002 0.23391 0.05865 0.0
O12 O 0.26915 0.22031 0.97039 0.0
O13 O 0.22405 0.17134 0.08994 0.0
O14 O 0.25621 0.19419 0.11032 0.0
C15 C 0.18807 0.21869 0.92684 0.0
O16 O 0.23543 0.19873 0.91261 0.0
O17 O 0.22965 0.16923 0.98161 0.0
C18 C 0.28105 0.22745 0.01556 0.0
O19 O 0.20516 0.23413 0.92951 0.0
O20 O 0.19083 0.19731 0.95262 0.0
C21 C 0.1924 0.21064 0.11017 0.0
Fe22 Fe 0.26645 0.72852 0.62744 0.0
Fe23 Fe 0.29111 0.69212 0.55496 0.0
O24 O 0.27278 0.71847 0.55806 0.0
Fe25 Fe 0.26067 0.73465 0.49153 0.0
O26 O 0.27633 0.76239 0.50999 0.0
O27 O 0.26592 0.7614 0.60166 0.0
O28 O 0.29865 0.73231 0.64911 0.0
C29 C 0.31465 0.7158 0.65007 0.0
C30 C 0.22179 0.73574 0.56591 0.0
O31 O 0.31047 0.69679 0.62276 0.0
C32 C 0.2542 0.68785 0.46139 0.0
O33 O 0.26589 0.69745 0.66548 0.0
O34 O 0.26994 0.67297 0.59498 0.0
O35 O 0.23257 0.74431 0.52159 0.0
O36 O 0.23372 0.72541 0.61076 0.0
C37 C 0.3084 0.72168 0.46527 0.0
O38 O 0.27519 0.68258 0.48642 0.0
O39 O 0.24411 0.70792 0.46845 0.0
C40 C 0.26302 0.67667 0.64504 0.0
O41 O 0.31345 0.70957 0.51435 0.0
O42 O 0.28658 0.72807 0.44904 0.0
C43 C 0.2741 0.77288 0.55654 0.0
Fe44 Fe 0.78054 0.79668 0.93751 0.0
Fe45 Fe 0.78316 0.7905 0.07276 0.0
O46 O 0.79049 0.80729 0.00676 0.0
Fe47 Fe 0.80779 0.83463 0.00977 0.0
O48 O 0.7834 0.85251 0.9684 0.0
O49 O 0.77734 0.82744 0.89819 0.0
O50 O 0.74873 0.79894 0.95248 0.0
C51 C 0.7398 0.78765 0.99636 0.0
C52 C 0.82695 0.81102 0.91712 0.0
O53 O 0.75348 0.77967 0.04142 0.0
C54 C 0.832 0.80583 0.09952 0.0
O55 O 0.78187 0.76388 0.96372 0.0
O56 O 0.79886 0.76348 0.05439 0.0
O57 O 0.82338 0.83035 0.94243 0.0
O58 O 0.81171 0.79373 0.9188 0.0
C59 C 0.77636 0.837 0.10291 0.0
O60 O 0.81153 0.79825 0.11585 0.0
O61 O 0.8333 0.8186 0.05114 0.0
C62 C 0.79339 0.75265 0.00842 0.0
O63 O 0.76698 0.81632 0.09564 0.0
O64 O 0.79546 0.84366 0.07799 0.0
C65 C 0.77456 0.84826 0.91736 0.0
Fe66 Fe 0.70328 0.33571 0.50773 0.0
Fe67 Fe 0.73173 0.29539 0.58606 0.0
O68 O 0.72111 0.3085 0.51499 0.0
Fe69 Fe 0.72842 0.29452 0.45117 0.0
O70 O 0.74415 0.3219 0.42387 0.0
O71 O 0.7149 0.34762 0.43735 0.0
O72 O 0.72765 0.35263 0.54454 0.0
C73 C 0.73791 0.34625 0.59504 0.0
C74 C 0.67914 0.30961 0.42399 0.0
O75 O 0.73523 0.32479 0.61901 0.0
C76 C 0.71812 0.25409 0.52382 0.0
O77 O 0.68842 0.32876 0.57688 0.0
O78 O 0.7008 0.29144 0.60763 0.0
O79 O 0.6997 0.30357 0.40769 0.0
O80 O 0.67783 0.32055 0.47029 0.0
C81 C 0.77223 0.2894 0.52632 0.0
O82 O 0.73016 0.2636 0.56593 0.0
O83 O 0.71324 0.26627 0.47473 0.0
C84 C 0.68539 0.30851 0.60667 0.0
O85 O 0.76337 0.29848 0.56911 0.0
O86 O 0.75841 0.28282 0.48317 0.0
C87 C 0.7347 0.343 0.41539 0.0
O88 O 0.18007 0.51915 0.86958 0.0
Cd89 Cd 0.15983 0.491 0.93986 0.0
O90 O 0.18772 0.5388 0.94845 0.0
Cd91 Cd 0.19943 0.56803 0.00409 0.0
O92 O 0.2105 0.59014 0.07701 0.0
C93 C 0.19513 0.59495 0.1134 0.0
O94 O 0.17257 0.58707 0.10516 0.0
C95 C 0.18947 0.53755 0.89332 0.0
C96 C 0.17719 0.44286 0.95513 0.0
O97 O 0.15822 0.44863 0.92022 0.0
O98 O 0.18832 0.45994 0.9817 0.0
O99 O 0.96913 0.77655 0.45889 0.0
Cd100 Cd 0.99007 0.77459 0.55854 0.0
O101 O 0.97494 0.81611 0.43968 0.0
Cd102 Cd 0.98756 0.81996 0.53171 0.0
O103 O 0.97046 0.81899 0.6152 0.0
C104 C 0.9497 0.8086 0.61208 0.0
O105 O 0.9419 0.79957 0.56221 0.0
C106 C 0.96686 0.79575 0.4232 0.0
C107 C 0.04015 0.76565 0.56082 0.0
O108 O 0.02499 0.74794 0.56728 0.0
O109 O 0.03159 0.78753 0.55281 0.0
O110 O 0.79469 0.49052 0.11423 0.0
Cd111 Cd 0.80466 0.51709 0.02699 0.0
O112 O 0.81127 0.45948 0.07632 0.0
Cd113 Cd 0.81679 0.47793 0.98969 0.0
O114 O 0.80829 0.47142 0.8971 0.0
C115 C 0.82156 0.45601 0.87556 0.0
O116 O 0.84103 0.44722 0.90763 0.0
C117 C 0.80091 0.46802 0.11833 0.0
C118 C 0.80211 0.56773 0.03334 0.0
O119 O 0.78341 0.55556 0.01496 0.0
O120 O 0.82182 0.55583 0.05055 0.0
O121 O 0.02904 0.23926 0.6148 0.0
Cd122 Cd 1.00145 0.24043 0.52423 0.0
O123 O 0.05584 0.26151 0.56712 0.0
Cd124 Cd 0.03848 0.25996 0.4778 0.0
O125 O 0.05248 0.25024 0.39559 0.0
C126 C 0.06813 0.23299 0.40349 0.0
O127 O 0.07252 0.22219 0.4571 0.0
C128 C 0.04934 0.25059 0.61491 0.0
C129 C 0.95247 0.25103 0.53737 0.0
O130 O 0.96013 0.22883 0.54059 0.0
O131 O 0.96807 0.26824 0.52931 0.0
O132 O 0.67955 0.99914 0.66285 0.0
Cd133 Cd 0.65406 0.02735 0.59477 0.0
O134 O 0.69323 0.98435 0.58557 0.0
Cd135 Cd 0.71117 0.96086 0.52841 0.0
O136 O 0.72483 0.94373 0.4539 0.0
C137 C 0.72264 0.9208 0.44998 0.0
O138 O 0.71258 0.9074 0.49216 0.0
C139 C 0.69281 0.9836 0.64162 0.0
C140 C 0.67035 0.07574 0.58227 0.0
O141 O 0.65675 0.06845 0.62352 0.0
O142 O 0.6767 0.06 0.54765 0.0
O143 O 0.53548 0.27397 0.0932 0.0
Cd144 Cd 0.51181 0.27027 0.99805 0.0
O145 O 0.53683 0.31421 0.08038 0.0
Cd146 Cd 0.52444 0.31427 0.98686 0.0
O147 O 0.54129 0.3115 0.90386 0.0
C148 C 0.56079 0.29877 0.90964 0.0
O149 O 0.56768 0.28792 0.96204 0.0
C150 C 0.54161 0.29444 0.11267 0.0
C151 C 0.46224 0.25986 0.0071 0.0
O152 O 0.47783 0.24261 0.00548 0.0
O153 O 0.47013 0.28196 0.00528 0.0
O154 O 0.29075 0.03062 0.45055 0.0
Cd155 Cd 0.29085 0.00759 0.54794 0.0
O156 O 0.32126 0.05444 0.4778 0.0
Cd157 Cd 0.32317 0.03935 0.56979 0.0
O158 O 0.31023 0.05046 0.65167 0.0
C159 C 0.28954 0.06107 0.64406 0.0
O160 O 0.27797 0.06239 0.591 0.0
C161 C 0.30529 0.04815 0.43829 0.0
C162 C 0.28928 0.95669 0.5457 0.0
O163 O 0.2698 0.9697 0.53584 0.0
O164 O 0.30963 0.96774 0.55573 0.0
O165 O 0.49011 0.7083 0.8982 0.0
Cd166 Cd 0.52251 0.70175 0.97826 0.0
O167 O 0.47125 0.72043 0.97119 0.0
Cd168 Cd 0.44362 0.73373 0.02489 0.0
O169 O 0.42151 0.73911 0.09826 0.0
C170 C 0.42327 0.72302 0.14205 0.0
O171 O 0.438 0.70425 0.14061 0.0
C172 C 0.47057 0.71589 0.91706 0.0
C173 C 0.56757 0.72381 0.96238 0.0
O174 O 0.56345 0.70173 0.94952 0.0
O175 O 0.55006 0.7358 0.98072 0.0
H176 H 0.14272 0.21002 0.08364 0.0
H177 H 0.19781 0.2179 0.22761 0.0
H178 H 0.11071 0.21397 0.1515 0.0
H179 H 0.16596 0.22177 0.29473 0.0
H180 H 0.10548 0.20003 0.41114 0.0
H181 H 0.13409 0.19381 0.3374 0.0
H182 H 0.09469 0.24662 0.21409 0.0
H183 H 0.06581 0.25298 0.28818 0.0
C184 C 0.148 0.21258 0.12964 0.0
C185 C 0.17283 0.21354 0.15027 0.0
C186 C 0.12969 0.21493 0.16832 0.0
C187 C 0.13588 0.21795 0.22841 0.0
C188 C 0.16066 0.21908 0.24881 0.0
C189 C 0.1789 0.21702 0.21019 0.0
C190 C 0.10267 0.21017 0.36816 0.0
C191 C 0.08349 0.22721 0.35579 0.0
C192 C 0.11916 0.20666 0.32603 0.0
C193 C 0.11679 0.21997 0.27036 0.0
C194 C 0.09691 0.2361 0.25668 0.0
C195 C 0.08044 0.23977 0.29914 0.0
H196 H 0.25327 0.63006 0.61466 0.0
H197 H 0.24945 0.67639 0.75856 0.0
H198 H 0.23635 0.59614 0.67462 0.0
H199 H 0.23219 0.64249 0.81816 0.0
H200 H 0.22619 0.56869 0.92803 0.0
H201 H 0.24395 0.60229 0.86857 0.0
H202 H 0.1979 0.58391 0.71564 0.0
H203 H 0.1799 0.55049 0.77551 0.0
C204 C 0.24883 0.63305 0.65907 0.0
C205 C 0.2528 0.65599 0.68177 0.0
C206 C 0.23897 0.61361 0.69331 0.0
C207 C 0.2329 0.61658 0.75119 0.0
C208 C 0.23695 0.63949 0.77401 0.0
C209 C 0.24672 0.65897 0.73968 0.0
C210 C 0.21944 0.57215 0.88215 0.0
C211 C 0.20114 0.55734 0.85695 0.0
C212 C 0.22977 0.59131 0.84788 0.0
C213 C 0.2222 0.59595 0.78745 0.0
C214 C 0.20428 0.58075 0.76195 0.0
C215 C 0.19392 0.56163 0.79628 0.0
H216 H 0.83649 0.77831 0.20574 0.0
H217 H 0.87794 0.82437 0.0864 0.0
H218 H 0.87218 0.774 0.27645 0.0
H219 H 0.91381 0.81974 0.15715 0.0
H220 H 0.9436 0.75624 0.37826 0.0
H221 H 0.91345 0.75661 0.29349 0.0
H222 H 0.92558 0.83411 0.25501 0.0
H223 H 0.95598 0.83372 0.33914 0.0
C224 C 0.85328 0.78734 0.19429 0.0
C225 C 0.85425 0.80188 0.14059 0.0
C226 C 0.87382 0.78469 0.23467 0.0
C227 C 0.89585 0.79653 0.22242 0.0
C228 C 0.89704 0.81058 0.16809 0.0
C229 C 0.87649 0.81315 0.12751 0.0
C230 C 0.94022 0.77327 0.35106 0.0
C231 C 0.95202 0.79502 0.36596 0.0
C232 C 0.9228 0.7735 0.30271 0.0
C233 C 0.91685 0.79546 0.26806 0.0
C234 C 0.9298 0.81686 0.28063 0.0
C235 C 0.94719 0.81665 0.32906 0.0
H236 H 0.73998 0.39624 0.57081 0.0
H237 H 0.76801 0.33705 0.69525 0.0
H238 H 0.7629 0.4257 0.62891 0.0
H239 H 0.7906 0.36632 0.75287 0.0
H240 H 0.84356 0.41981 0.8232 0.0
H241 H 0.8253 0.39528 0.74673 0.0
H242 H 0.76072 0.44089 0.72978 0.0
H243 H 0.77905 0.46567 0.80591 0.0
C244 C 0.75107 0.38951 0.61033 0.0
C245 C 0.75202 0.36432 0.62869 0.0
C246 C 0.76414 0.40637 0.64355 0.0
C247 C 0.77865 0.39829 0.69519 0.0
C248 C 0.7799 0.37309 0.71277 0.0
C249 C 0.76672 0.35633 0.68004 0.0
C250 C 0.82568 0.42495 0.80238 0.0
C251 C 0.81259 0.44444 0.82139 0.0
C252 C 0.81518 0.41081 0.75877 0.0
C253 C 0.79142 0.4159 0.73309 0.0
C254 C 0.77908 0.43654 0.74873 0.0
C255 C 0.78956 0.45068 0.79253 0.0
H256 H 0.67373 0.28063 0.33193 0.0
H257 H 0.63368 0.32975 0.42839 0.0
H258 H 0.63748 0.27555 0.26505 0.0
H259 H 0.59731 0.32458 0.36117 0.0
H260 H 0.55477 0.3347 0.17141 0.0
H261 H 0.58591 0.33688 0.25348 0.0
H262 H 0.59512 0.25833 0.26292 0.0
H263 H 0.56401 0.25607 0.18067 0.0
C264 C 0.65716 0.29026 0.33906 0.0
C265 C 0.65668 0.30575 0.38523 0.0
C266 C 0.63631 0.28716 0.30104 0.0
C267 C 0.61453 0.29963 0.30794 0.0
C268 C 0.61389 0.31484 0.35462 0.0
C269 C 0.6347 0.31774 0.39315 0.0
C270 C 0.56307 0.31782 0.19169 0.0
C271 C 0.55705 0.29524 0.16904 0.0
C272 C 0.58087 0.31908 0.23889 0.0
C273 C 0.59316 0.29781 0.26415 0.0
C274 C 0.58618 0.27507 0.24373 0.0
C275 C 0.56823 0.27378 0.19688 0.0
H276 H 0.24297 0.18354 0.81385 0.0
H277 H 0.24832 0.12785 0.96081 0.0
H278 H 0.25466 0.15353 0.74813 0.0
H279 H 0.26012 0.09772 0.89439 0.0
H280 H 0.30926 0.06377 0.75821 0.0
H281 H 0.2959 0.09032 0.83103 0.0
H282 H 0.23532 0.11559 0.70868 0.0
H283 H 0.24848 0.08924 0.63617 0.0
C284 C 0.24668 0.16491 0.83222 0.0
C285 C 0.2446 0.15807 0.89256 0.0
C286 C 0.25322 0.14768 0.79443 0.0
C287 C 0.25808 0.12327 0.81611 0.0
C288 C 0.25649 0.11645 0.87661 0.0
C289 C 0.24965 0.13366 0.91447 0.0
C290 C 0.2929 0.07475 0.74722 0.0
C291 C 0.28008 0.07458 0.69117 0.0
C292 C 0.28525 0.08987 0.78894 0.0
C293 C 0.26478 0.10522 0.7751 0.0
C294 C 0.2514 0.10424 0.72011 0.0
C295 C 0.2589 0.08903 0.67871 0.0
H296 H 0.30255 0.74285 0.35215 0.0
H297 H 0.3568 0.70827 0.48036 0.0
H298 H 0.33188 0.74486 0.27761 0.0
H299 H 0.38652 0.71095 0.40573 0.0
H300 H 0.39413 0.76114 0.16378 0.0
H301 H 0.36866 0.76352 0.24617 0.0
H302 H 0.39313 0.6913 0.31735 0.0
H303 H 0.41911 0.68926 0.23606 0.0
C304 C 0.32087 0.736 0.36476 0.0
C305 C 0.32723 0.72517 0.42217 0.0
C306 C 0.33778 0.73731 0.32198 0.0
C307 C 0.36155 0.72798 0.33553 0.0
C308 C 0.36823 0.71796 0.39356 0.0
C309 C 0.35124 0.71656 0.43644 0.0
C310 C 0.39418 0.74585 0.19723 0.0
C311 C 0.40852 0.72494 0.19315 0.0
C312 C 0.37952 0.74716 0.24436 0.0
C313 C 0.37874 0.72755 0.28828 0.0
C314 C 0.39352 0.70689 0.28481 0.0
C315 C 0.40828 0.70563 0.23788 0.0
H316 H 0.76237 0.89428 0.94448 0.0
H317 H 0.76062 0.84806 0.79912 0.0
H318 H 0.74377 0.92755 0.87791 0.0
H319 H 0.7419 0.88127 0.73288 0.0
H320 H 0.6838 0.96913 0.75515 0.0
H321 H 0.70401 0.93698 0.82174 0.0
H322 H 0.75219 0.9227 0.68743 0.0
H323 H 0.73233 0.95527 0.62116 0.0
C324 C 0.75802 0.89119 0.89839 0.0
C325 C 0.763 0.86847 0.87723 0.0
C326 C 0.74727 0.91023 0.8603 0.0
C327 C 0.7414 0.90706 0.80008 0.0
C328 C 0.74647 0.8844 0.77887 0.0
C329 C 0.75704 0.8653 0.81701 0.0
C330 C 0.69879 0.95925 0.73975 0.0
C331 C 0.70602 0.96447 0.68204 0.0
C332 C 0.71041 0.94084 0.77809 0.0
C333 C 0.72958 0.92715 0.75974 0.0
C334 C 0.73713 0.9326 0.70245 0.0
C335 C 0.72559 0.95117 0.66418 0.0
H336 H 0.85871 0.84759 0.88438 0.0
H337 H 0.84196 0.77134 0.86448 0.0
H338 H 0.89035 0.84596 0.81516 0.0
H339 H 0.87383 0.76962 0.79656 0.0
H340 H 0.90553 0.7863 0.61777 0.0
H341 H 0.878 0.78628 0.69603 0.0
H342 H 0.93018 0.82835 0.79808 0.0
H343 H 0.9578 0.82878 0.7186 0.0
C344 C 0.86197 0.83042 0.86585 0.0
C345 C 0.84755 0.80971 0.87927 0.0
C346 C 0.8802 0.82945 0.82646 0.0
C347 C 0.88442 0.80773 0.79989 0.0
C348 C 0.8707 0.78677 0.81534 0.0
C349 C 0.85246 0.78775 0.85444 0.0
C350 C 0.91127 0.79545 0.65696 0.0
C351 C 0.93385 0.80759 0.66187 0.0
C352 C 0.89552 0.79529 0.7021 0.0
C353 C 0.90192 0.80723 0.75344 0.0
C354 C 0.92465 0.81915 0.75883 0.0
C355 C 0.94051 0.81928 0.7135 0.0
H356 H 0.71478 0.38678 0.3685 0.0
H357 H 0.78024 0.3428 0.37455 0.0
H358 H 0.73282 0.41781 0.30244 0.0
H359 H 0.79868 0.37426 0.31017 0.0
H360 H 0.80952 0.41886 0.13486 0.0
H361 H 0.79483 0.38975 0.20991 0.0
H362 H 0.76312 0.44899 0.29271 0.0
H363 H 0.77718 0.4783 0.21562 0.0
C364 C 0.73312 0.38382 0.35614 0.0
C365 C 0.74595 0.36214 0.37626 0.0
C366 C 0.74358 0.40176 0.31864 0.0
C367 C 0.76723 0.3986 0.30073 0.0
C368 C 0.78026 0.37715 0.3221 0.0
C369 C 0.76972 0.3591 0.35915 0.0
C370 C 0.79963 0.42582 0.16932 0.0
C371 C 0.79441 0.45097 0.16888 0.0
C372 C 0.79131 0.40904 0.21278 0.0
C373 C 0.77768 0.41692 0.25745 0.0
C374 C 0.77322 0.44221 0.2584 0.0
C375 C 0.78145 0.45905 0.21451 0.0
H376 H 0.17323 0.26382 0.87649 0.0
H377 H 0.15158 0.1877 0.8907 0.0
H378 H 0.13721 0.27379 0.80932 0.0
H379 H 0.11596 0.19754 0.82204 0.0
H380 H 0.09311 0.27389 0.6287 0.0
H381 H 0.12454 0.26742 0.70941 0.0
H382 H 0.07689 0.21794 0.8041 0.0
H383 H 0.04541 0.22391 0.72181 0.0
C384 C 0.1608 0.24919 0.86523 0.0
C385 C 0.16547 0.2249 0.88841 0.0
C386 C 0.14015 0.2549 0.82658 0.0
C387 C 0.12374 0.23645 0.80974 0.0
C388 C 0.12801 0.21228 0.83449 0.0
C389 C 0.14858 0.20659 0.87353 0.0
C390 C 0.08911 0.26185 0.66697 0.0
C391 C 0.06675 0.24927 0.66845 0.0
C392 C 0.10717 0.25826 0.71363 0.0
C393 C 0.10336 0.24205 0.76331 0.0
C394 C 0.08058 0.23026 0.76609 0.0
C395 C 0.06245 0.23385 0.71916 0.0
H396 H 0.21093 0.69465 0.39288 0.0
H397 H 0.27327 0.64599 0.4259 0.0
H398 H 0.19583 0.67161 0.31014 0.0
H399 H 0.25799 0.62292 0.34376 0.0
H400 H 0.24108 0.61024 0.14809 0.0
H401 H 0.25395 0.63151 0.23515 0.0
H402 H 0.1796 0.63104 0.28466 0.0
H403 H 0.16658 0.60992 0.19705 0.0
C404 C 0.22126 0.67888 0.38303 0.0
C405 C 0.24345 0.67233 0.4157 0.0
C406 C 0.21255 0.66564 0.33573 0.0
C407 C 0.22588 0.64564 0.32004 0.0
C408 C 0.24755 0.63854 0.35412 0.0
C409 C 0.25621 0.65168 0.40147 0.0
C410 C 0.22744 0.61469 0.17741 0.0
C411 C 0.2028 0.60837 0.16562 0.0
C412 C 0.23486 0.62672 0.22756 0.0
C413 C 0.21781 0.63279 0.26696 0.0
C414 C 0.19312 0.62672 0.25491 0.0
C415 C 0.1857 0.61455 0.20484 0.0
H416 H 0.32554 0.74652 0.7377 0.0
H417 H 0.35641 0.68925 0.64662 0.0
H418 H 0.36356 0.74838 0.80097 0.0
H419 H 0.39435 0.69125 0.70971 0.0
H420 H 0.46649 0.71921 0.79636 0.0
H421 H 0.42915 0.72079 0.73003 0.0
H422 H 0.38588 0.71923 0.88061 0.0
H423 H 0.42295 0.71674 0.94675 0.0
C424 C 0.34045 0.73442 0.73096 0.0
C425 C 0.33789 0.71763 0.68734 0.0
C426 C 0.36216 0.73544 0.76734 0.0
C427 C 0.38189 0.71996 0.76024 0.0
C428 C 0.37952 0.70354 0.71585 0.0
C429 C 0.35772 0.70229 0.68003 0.0
C430 C 0.44902 0.71938 0.81536 0.0
C431 C 0.44783 0.71846 0.87709 0.0
C432 C 0.42765 0.72023 0.77734 0.0
C433 C 0.40462 0.72032 0.80017 0.0
C434 C 0.40339 0.7197 0.86171 0.0
C435 C 0.42474 0.71855 0.89973 0.0
H436 H 0.79743 0.87722 0.15048 0.0
H437 H 0.73431 0.82992 0.15859 0.0
H438 H 0.78429 0.89823 0.23306 0.0
H439 H 0.72097 0.85124 0.24004 0.0
H440 H 0.72158 0.87233 0.42961 0.0
H441 H 0.73392 0.85364 0.34321 0.0
H442 H 0.75346 0.92491 0.26463 0.0
H443 H 0.7416 0.94359 0.35185 0.0
C444 C 0.78057 0.87154 0.16922 0.0
C445 C 0.76706 0.85171 0.14825 0.0
C446 C 0.773 0.88363 0.21652 0.0
C447 C 0.75173 0.87622 0.24371 0.0
C448 C 0.73774 0.85706 0.22105 0.0
C449 C 0.74532 0.84494 0.17401 0.0
C450 C 0.72853 0.88404 0.39399 0.0
C451 C 0.73057 0.90946 0.39768 0.0
C452 C 0.73545 0.87334 0.34419 0.0
C453 C 0.74452 0.88779 0.2967 0.0
C454 C 0.74675 0.91321 0.30058 0.0
C455 C 0.73985 0.92393 0.35051 0.0
H456 H 0.67152 0.26708 0.67126 0.0
H457 H 0.65292 0.34358 0.63008 0.0
H458 H 0.63926 0.26298 0.73897 0.0
H459 H 0.62111 0.33961 0.699 0.0
H460 H 0.60421 0.27475 0.91126 0.0
H461 H 0.63248 0.27606 0.83427 0.0
H462 H 0.58191 0.32178 0.71866 0.0
H463 H 0.55373 0.32099 0.79675 0.0
C464 C 0.66057 0.28304 0.67665 0.0
C465 C 0.66499 0.30572 0.64564 0.0
C466 C 0.64211 0.2807 0.71566 0.0
C467 C 0.62768 0.301 0.72482 0.0
C468 C 0.63167 0.32352 0.69256 0.0
C469 C 0.65006 0.32584 0.65333 0.0
C470 C 0.59897 0.28493 0.8693 0.0
C471 C 0.57675 0.29788 0.86032 0.0
C472 C 0.61515 0.28555 0.82489 0.0
C473 C 0.60952 0.29906 0.77021 0.0
C474 C 0.58697 0.31147 0.76056 0.0
C475 C 0.57074 0.31089 0.80516 0.0
H476 H 0.22252 0.13339 0.16264 0.0
H477 H 0.29329 0.16788 0.15666 0.0
H478 H 0.2399 0.10123 0.23329 0.0
H479 H 0.3111 0.13497 0.22541 0.0
H480 H 0.32455 0.09321 0.40979 0.0
H481 H 0.31201 0.1218 0.32584 0.0
H482 H 0.26487 0.06651 0.25279 0.0
H483 H 0.2766 0.03821 0.33882 0.0
C484 C 0.24192 0.13388 0.17571 0.0
C485 C 0.25646 0.15336 0.15454 0.0
C486 C 0.25199 0.11525 0.21594 0.0
C487 C 0.27699 0.11538 0.23544 0.0
C488 C 0.2917 0.13445 0.21245 0.0
C489 C 0.28153 0.1533 0.17282 0.0
C490 C 0.31184 0.08695 0.37535 0.0
C491 C 0.30136 0.06349 0.38145 0.0
C492 C 0.30468 0.1034 0.3268 0.0
C493 C 0.2871 0.0967 0.28259 0.0
C494 C 0.27794 0.07259 0.28668 0.0
C495 C 0.28485 0.05624 0.33575 0.0
H496 H 0.19387 0.28824 0.07397 0.0
H497 H 0.25127 0.30336 0.95678 0.0
H498 H 0.1813 0.33143 0.05933 0.0
H499 H 0.23906 0.34653 0.94354 0.0
H500 H 0.22267 0.42611 0.99669 0.0
H501 H 0.23621 0.38338 0.01586 0.0
H502 H 0.16397 0.35887 0.95917 0.0
H503 H 0.15052 0.40152 0.93847 0.0
C504 C 0.204 0.30085 0.04587 0.0
C505 C 0.22352 0.29249 0.01649 0.0
C506 C 0.19673 0.32545 0.03726 0.0
C507 C 0.20924 0.34217 0.00031 0.0
C508 C 0.22922 0.33397 0.97243 0.0
C509 C 0.23612 0.3093 0.97989 0.0
C510 C 0.20971 0.4116 0.98817 0.0
C511 C 0.18557 0.41713 0.96587 0.0
C512 C 0.21747 0.38722 0.99909 0.0
C513 C 0.20106 0.36796 0.98926 0.0
C514 C 0.17688 0.37345 0.96751 0.0
C515 C 0.16927 0.39782 0.95531 0.0
H516 H 0.1911 0.71733 0.64837 0.0
H517 H 0.192 0.76313 0.48418 0.0
H518 H 0.14712 0.7244 0.64838 0.0
H519 H 0.14826 0.76995 0.48416 0.0
H520 H 0.07624 0.79891 0.53919 0.0
H521 H 0.12009 0.79141 0.54227 0.0
H522 H 0.10826 0.7145 0.58987 0.0
H523 H 0.06432 0.72199 0.58723 0.0
C524 C 0.18196 0.72888 0.61235 0.0
C525 C 0.19512 0.73973 0.56643 0.0
C526 C 0.15676 0.73281 0.6122 0.0
C527 C 0.14427 0.74781 0.56639 0.0
C528 C 0.15743 0.75857 0.52049 0.0
C529 C 0.1825 0.75453 0.52039 0.0
C530 C 0.08296 0.7804 0.55036 0.0
C531 C 0.06678 0.76104 0.5628 0.0
C532 C 0.10808 0.77609 0.55187 0.0
C533 C 0.11761 0.75236 0.56618 0.0
C534 C 0.10147 0.73302 0.57923 0.0
C535 C 0.0763 0.7373 0.57732 0.0
H536 H 0.7783 0.72189 0.92388 0.0
H537 H 0.81633 0.72235 0.09773 0.0
H538 H 0.78113 0.67732 0.93061 0.0
H539 H 0.81881 0.67773 0.10467 0.0
H540 H 0.83856 0.59871 0.06955 0.0
H541 H 0.83782 0.64345 0.06219 0.0
H542 H 0.76301 0.64277 0.98729 0.0
H543 H 0.76383 0.59812 0.99385 0.0
C544 C 0.78739 0.71253 0.9634 0.0
C545 C 0.79697 0.72574 0.01038 0.0
C546 C 0.78883 0.68695 0.96744 0.0
C547 C 0.79997 0.67395 0.01843 0.0
C548 C 0.81022 0.68719 0.06465 0.0
C549 C 0.80871 0.71278 0.06072 0.0
C550 C 0.82192 0.6081 0.05176 0.0
C551 C 0.80126 0.59483 0.03222 0.0
C552 C 0.82148 0.63375 0.0477 0.0
C553 C 0.80042 0.64669 0.02378 0.0
C554 C 0.77967 0.63338 0.005 0.0
C555 C 0.78008 0.60776 0.00923 0.0
H556 H 0.79617 0.26048 0.45712 0.0
H557 H 0.80849 0.30646 0.60214 0.0
H558 H 0.83975 0.25124 0.46289 0.0
H559 H 0.85218 0.29714 0.60771 0.0
H560 H 0.93137 0.29572 0.54556 0.0
H561 H 0.88784 0.30512 0.54472 0.0
H562 H 0.8707 0.22847 0.53457 0.0
H563 H 0.91415 0.21901 0.53549 0.0
C564 C 0.80816 0.26865 0.49018 0.0
C565 C 0.79881 0.28417 0.52927 0.0
C566 C 0.83311 0.26321 0.49371 0.0
C567 C 0.84936 0.27337 0.53593 0.0
C568 C 0.8401 0.28914 0.57454 0.0
C569 C 0.81507 0.29437 0.57149 0.0
C570 C 0.91832 0.28085 0.54354 0.0
C571 C 0.92622 0.25662 0.54044 0.0
C572 C 0.89341 0.28624 0.5433 0.0
C573 C 0.87587 0.26755 0.53926 0.0
C574 C 0.88379 0.24329 0.53702 0.0
C575 C 0.90869 0.23786 0.53792 0.0
H576 H 0.69803 0.22504 0.43985 0.0
H577 H 0.72249 0.22373 0.62558 0.0
H578 H 0.6867 0.18184 0.45384 0.0
H579 H 0.71137 0.18067 0.63918 0.0
H580 H 0.66257 0.11248 0.65293 0.0
H581 H 0.67394 0.15552 0.63779 0.0
H582 H 0.7066 0.14095 0.47764 0.0
H583 H 0.69506 0.09786 0.49245 0.0
C584 C 0.70105 0.21556 0.48356 0.0
C585 C 0.71123 0.22786 0.53154 0.0
C586 C 0.69467 0.19079 0.49149 0.0
C587 C 0.69814 0.17786 0.54763 0.0
C588 C 0.70824 0.19018 0.59553 0.0
C589 C 0.71475 0.21485 0.58758 0.0
C590 C 0.67223 0.11842 0.61456 0.0
C591 C 0.67794 0.10172 0.57396 0.0
C592 C 0.67883 0.14307 0.60602 0.0
C593 C 0.69116 0.15163 0.5565 0.0
C594 C 0.69688 0.13495 0.51587 0.0
C595 C 0.69042 0.11024 0.52462 0.0
H596 H 0.31199 0.212 0.93707 0.0
H597 H 0.31088 0.25116 0.09422 0.0
H598 H 0.35596 0.21927 0.93607 0.0
H599 H 0.35467 0.25831 0.09308 0.0
H600 H 0.42582 0.29148 0.02598 0.0
H601 H 0.38224 0.28289 0.02861 0.0
H602 H 0.39524 0.20755 0.99687 0.0
H603 H 0.4389 0.21611 0.9942 0.0
C604 C 0.3211 0.22209 0.97144 0.0
C605 C 0.30786 0.23108 0.01555 0.0
C606 C 0.34629 0.22613 0.97103 0.0
C607 C 0.35874 0.23945 0.01436 0.0
C608 C 0.34554 0.24824 0.0587 0.0
C609 C 0.32045 0.244 0.05948 0.0
C610 C 0.41941 0.27307 0.0197 0.0
C611 C 0.43584 0.25448 0.00994 0.0
C612 C 0.39446 0.26812 0.02147 0.0
C613 C 0.38532 0.24454 0.01296 0.0
C614 C 0.40172 0.22595 0.00307 0.0
C615 C 0.42674 0.23083 0.00191 0.0
H616 H 0.27371 0.80578 0.4596 0.0
H617 H 0.28344 0.80055 0.65071 0.0
H618 H 0.27818 0.85023 0.45721 0.0
H619 H 0.28843 0.84519 0.64791 0.0
H620 H 0.32272 0.92327 0.59863 0.0
H621 H 0.32004 0.87845 0.60247 0.0
H622 H 0.25088 0.88439 0.49791 0.0
H623 H 0.25318 0.9291 0.49511 0.0
C624 C 0.27705 0.81408 0.50109 0.0
C625 C 0.27815 0.79966 0.55542 0.0
C626 C 0.27949 0.83952 0.49963 0.0
C627 C 0.28358 0.85104 0.55235 0.0
C628 C 0.28536 0.83666 0.60667 0.0
C629 C 0.28241 0.81119 0.60824 0.0
C630 C 0.30698 0.91499 0.57638 0.0
C631 C 0.28815 0.92966 0.54653 0.0
C632 C 0.30541 0.8894 0.57889 0.0
C633 C 0.28527 0.87808 0.55047 0.0
C634 C 0.26664 0.89273 0.51994 0.0
C635 C 0.26794 0.91827 0.5185 0.0
H636 H 0.70265 0.80767 0.92002 0.0
H637 H 0.71834 0.75047 0.06067 0.0
H638 H 0.66032 0.79326 0.90792 0.0
H639 H 0.67633 0.73603 0.04781 0.0
H640 H 0.61031 0.69979 0.95327 0.0
H641 H 0.65161 0.71656 0.9602 0.0
H642 H 0.62229 0.78871 0.97366 0.0
H643 H 0.58079 0.77193 0.96761 0.0
C644 C 0.69705 0.79213 0.94844 0.0
C645 C 0.71384 0.78018 0.99122 0.0
C646 C 0.67287 0.78396 0.94156 0.0
C647 C 0.66522 0.76343 0.97658 0.0
C648 C 0.68188 0.75173 0.01983 0.0
C649 C 0.70587 0.76013 0.02742 0.0
C650 C 0.6126 0.71928 0.95705 0.0
C651 C 0.5923 0.73453 0.96017 0.0
C652 C 0.63624 0.72882 0.96136 0.0
C653 C 0.64006 0.75385 0.96791 0.0
C654 C 0.61978 0.76934 0.96853 0.0
C655 C 0.59609 0.75972 0.96521 0.0
loop_
_geom_bond_atom_site_label_1
_geom_bond_atom_site_label_2
_geom_bond_distance
_geom_bond_site_symmetry_2
_ccdc_geom_bond_type
Fe0 O2 1.918 . S
Fe0 O5 1.997 . S
Fe0 O6 2.002 . S
Fe0 O11 1.976 . S
Fe0 O14 1.996 . S
Fe1 O2 1.918 1_556 S
Fe1 O9 1.997 . S
Fe1 O12 1.996 . S
Fe1 O16 1.976 . S
Fe1 O19 2.002 . S
O2 Fe0 1.918 . S
O2 Fe1 1.918 1_554 S
O2 Fe3 1.918 . S
Fe3 O2 1.918 . S
Fe3 O4 2.002 . S
Fe3 O13 1.976 . S
Fe3 O17 1.996 1_554 S
Fe3 O20 1.997 1_554 S
O4 Fe3 2.002 . S
O4 C21 1.295 . S
O5 Fe0 1.997 . S
O5 C21 1.235 . S
O6 Fe0 2.002 . S
O6 C7 1.295 . S
C7 O6 1.295 . S
C7 O9 1.235 1_554 S
C8 O13 1.287 . S
C8 O14 1.255 . S
O9 Fe1 1.997 . S
O9 C7 1.235 1_556 S
C10 O16 1.287 . S
C10 O17 1.255 . S
O11 Fe0 1.976 . S
O11 C18 1.287 . S
O12 Fe1 1.996 . S
O12 C18 1.255 1_556 S
O13 Fe3 1.976 . S
O13 C8 1.287 . S
O14 Fe0 1.996 . S
O14 C8 1.255 . S
C15 O19 1.295 . S
C15 O20 1.235 . S
O16 Fe1 1.976 . S
O16 C10 1.287 . S
O17 Fe3 1.996 1_556 S
O17 C10 1.255 . S
C18 O11 1.287 . S
C18 O12 1.255 1_554 S
O19 Fe1 2.002 . S
O19 C15 1.295 . S
O20 Fe3 1.997 1_556 S
O20 C15 1.235 . S
C21 O4 1.295 . S
C21 O5 1.235 . S
Fe22 O24 1.918 . S
Fe22 O27 1.997 . S
Fe22 O28 2.002 . S
Fe22 O33 1.976 . S
Fe22 O36 1.996 . S
Fe23 O24 1.918 . S
Fe23 O31 1.997 . S
Fe23 O34 1.996 . S
Fe23 O38 1.976 . S
Fe23 O41 2.002 . S
O24 Fe22 1.918 . S
O24 Fe23 1.918 . S
O24 Fe25 1.918 . S
Fe25 O24 1.918 . S
Fe25 O26 2.002 . S
Fe25 O35 1.976 . S
Fe25 O39 1.996 . S
Fe25 O42 1.997 . S
O26 Fe25 2.002 . S
O26 C43 1.295 . S
O27 Fe22 1.997 . S
O27 C43 1.235 . S
O28 Fe22 2.002 . S
O28 C29 1.295 . S
C29 O28 1.295 . S
C29 O31 1.235 . S
C30 O35 1.287 . S
C30 O36 1.255 . S
O31 Fe23 1.997 . S
O31 C29 1.235 . S
C32 O38 1.287 . S
C32 O39 1.255 . S
O33 Fe22 1.976 . S
O33 C40 1.287 . S
O34 Fe23 1.996 . S
O34 C40 1.255 . S
O35 Fe25 1.976 . S
O35 C30 1.287 . S
O36 Fe22 1.996 . S
O36 C30 1.255 . S
C37 O41 1.295 . S
C37 O42 1.235 . S
O38 Fe23 1.976 . S
O38 C32 1.287 . S
O39 Fe25 1.996 . S
O39 C32 1.255 . S
C40 O33 1.287 . S
C40 O34 1.255 . S
O41 Fe23 2.002 . S
O41 C37 1.295 . S
O42 Fe25 1.997 . S
O42 C37 1.235 . S
C43 O26 1.295 . S
C43 O27 1.235 . S
Fe44 O46 1.918 1_556 S
Fe44 O49 1.997 . S
Fe44 O50 2.002 . S
Fe44 O55 1.976 . S
Fe44 O58 1.996 . S
Fe45 O46 1.918 . S
Fe45 O53 1.997 . S
Fe45 O56 1.996 . S
Fe45 O60 1.976 . S
Fe45 O63 2.002 . S
O46 Fe44 1.918 1_554 S
O46 Fe45 1.918 . S
O46 Fe47 1.918 . S
Fe47 O46 1.918 . S
Fe47 O48 2.002 1_554 S
Fe47 O57 1.976 1_554 S
Fe47 O61 1.996 . S
Fe47 O64 1.997 . S
O48 Fe47 2.002 1_556 S
O48 C65 1.295 . S
O49 Fe44 1.997 . S
O49 C65 1.235 . S
O50 Fe44 2.002 . S
O50 C51 1.295 1_556 S
C51 O50 1.295 1_554 S
C51 O53 1.235 . S
C52 O57 1.287 . S
C52 O58 1.255 . S
O53 Fe45 1.997 . S
O53 C51 1.235 . S
C54 O60 1.287 . S
C54 O61 1.255 . S
O55 Fe44 1.976 . S
O55 C62 1.287 1_556 S
O56 Fe45 1.996 . S
O56 C62 1.255 . S
O57 Fe47 1.976 1_556 S
O57 C52 1.287 . S
O58 Fe44 1.996 . S
O58 C52 1.255 . S
C59 O63 1.295 . S
C59 O64 1.235 . S
O60 Fe45 1.976 . S
O60 C54 1.287 . S
O61 Fe47 1.996 . S
O61 C54 1.255 . S
C62 O55 1.287 1_554 S
C62 O56 1.255 . S
O63 Fe45 2.002 . S
O63 C59 1.295 . S
O64 Fe47 1.997 . S
O64 C59 1.235 . S
C65 O48 1.295 . S
C65 O49 1.235 . S
Fe66 O68 1.918 . S
Fe66 O71 1.997 . S
Fe66 O72 2.002 . S
Fe66 O77 1.976 . S
Fe66 O80 1.996 . S
Fe67 O68 1.918 . S
Fe67 O75 1.997 . S
Fe67 O78 1.996 . S
Fe67 O82 1.976 . S
Fe67 O85 2.002 . S
O68 Fe66 1.918 . S
O68 Fe67 1.918 . S
O68 Fe69 1.918 . S
Fe69 O68 1.918 . S
Fe69 O70 2.002 . S
Fe69 O79 1.976 . S
Fe69 O83 1.996 . S
Fe69 O86 1.997 . S
O70 Fe69 2.002 . S
O70 C87 1.295 . S
O71 Fe66 1.997 . S
O71 C87 1.235 . S
O72 Fe66 2.002 . S
O72 C73 1.295 . S
C73 O72 1.295 . S
C73 O75 1.235 . S
C74 O79 1.287 . S
C74 O80 1.255 . S
O75 Fe67 1.997 . S
O75 C73 1.235 . S
C76 O82 1.287 . S
C76 O83 1.255 . S
O77 Fe66 1.976 . S
O77 C84 1.287 . S
O78 Fe67 1.996 . S
O78 C84 1.255 . S
O79 Fe69 1.976 . S
O79 C74 1.287 . S
O80 Fe66 1.996 . S
O80 C74 1.255 . S
C81 O85 1.295 . S
C81 O86 1.235 . S
O82 Fe67 1.976 . S
O82 C76 1.287 . S
O83 Fe69 1.996 . S
O83 C76 1.255 . S
C84 O77 1.287 . S
C84 O78 1.255 . S
O85 Fe67 2.002 . S
O85 C81 1.295 . S
O86 Fe69 1.997 . S
O86 C81 1.235 . S
C87 O70 1.295 . S
C87 O71 1.235 . S
O88 Cd89 2.300 1_556 S
O88 C95 1.275 . S
Cd89 O88 2.300 1_554 S
Cd89 O97 2.381 1_554 S
Cd89 O98 2.378 . S
O90 Cd91 2.385 1_556 S
O90 C95 1.255 . S
Cd91 O90 2.385 1_554 S
Cd91 O92 2.317 . S
O92 Cd91 2.317 . S
O92 C93 1.232 . S
C93 O92 1.232 . S
C93 O94 1.218 . S
O94 C93 1.218 . S
C95 O88 1.275 . S
C95 O90 1.255 . S
C96 O97 1.258 1_554 S
C96 O98 1.256 . S
O97 Cd89 2.381 1_556 S
O97 C96 1.258 1_556 S
O98 Cd89 2.378 . S
O98 C96 1.256 . S
O99 Cd100 2.300 1_655 S
O99 C106 1.275 . S
Cd100 O99 2.300 1_455 S
Cd100 O108 2.381 . S
Cd100 O109 2.378 . S
O101 Cd102 2.385 . S
O101 C106 1.255 . S
Cd102 O101 2.385 . S
Cd102 O103 2.317 . S
O103 Cd102 2.317 . S
O103 C104 1.232 . S
C104 O103 1.232 . S
C104 O105 1.218 . S
O105 C104 1.218 . S
C106 O99 1.275 . S
C106 O101 1.255 . S
C107 O108 1.258 . S
C107 O109 1.256 . S
O108 Cd100 2.381 . S
O108 C107 1.258 . S
O109 Cd100 2.378 . S
O109 C107 1.256 . S
O110 Cd111 2.300 . S
O110 C117 1.275 . S
Cd111 O110 2.300 . S
Cd111 O119 2.381 . S
Cd111 O120 2.378 . S
O112 Cd113 2.379 1_554 S
O112 C117 1.255 . S
Cd113 O112 2.379 1_556 S
Cd113 O114 2.322 . S
O114 Cd113 2.322 . S
O114 C115 1.232 . S
C115 O114 1.232 . S
C115 O116 1.218 . S
O116 C115 1.218 . S
C117 O110 1.275 . S
C117 O112 1.255 . S
C118 O119 1.258 . S
C118 O120 1.256 . S
O119 Cd111 2.381 . S
O119 C118 1.258 . S
O120 Cd111 2.378 . S
O120 C118 1.256 . S
O121 Cd122 2.300 1_455 S
O121 C128 1.275 . S
Cd122 O121 2.300 1_655 S
Cd122 O130 2.381 . S
Cd122 O131 2.378 . S
O123 Cd124 2.385 . S
O123 C128 1.255 . S
Cd124 O123 2.385 . S
Cd124 O125 2.317 . S
O125 Cd124 2.317 . S
O125 C126 1.232 . S
C126 O125 1.232 . S
C126 O127 1.218 . S
O127 C126 1.218 . S
C128 O121 1.275 . S
C128 O123 1.255 . S
C129 O130 1.258 . S
C129 O131 1.256 . S
O130 Cd122 2.381 . S
O130 C129 1.258 . S
O131 Cd122 2.378 . S
O131 C129 1.256 . S
O132 Cd133 2.300 1_565 S
O132 C139 1.275 . S
Cd133 O132 2.300 1_545 S
Cd133 O141 2.381 . S
Cd133 O142 2.378 . S
O134 Cd135 2.385 . S
O134 C139 1.255 . S
Cd135 O134 2.385 . S
Cd135 O136 2.317 . S
O136 Cd135 2.317 . S
O136 C137 1.232 . S
C137 O136 1.232 . S
C137 O138 1.218 . S
O138 C137 1.218 . S
C139 O132 1.275 . S
C139 O134 1.255 . S
C140 O141 1.258 . S
C140 O142 1.256 . S
O141 Cd133 2.381 . S
O141 C140 1.258 . S
O142 Cd133 2.378 . S
O142 C140 1.256 . S
O143 Cd144 2.300 . S
O143 C150 1.275 . S
Cd144 O143 2.300 . S
Cd144 O152 2.381 . S
Cd144 O153 2.378 1_554 S
O145 Cd146 2.385 1_554 S
O145 C150 1.255 . S
Cd146 O145 2.385 1_556 S
Cd146 O147 2.317 . S
O147 Cd146 2.317 . S
O147 C148 1.232 . S
C148 O147 1.232 . S
C148 O149 1.218 . S
O149 C148 1.218 . S
C150 O143 1.275 . S
C150 O145 1.255 . S
C151 O152 1.258 . S
C151 O153 1.256 1_554 S
O152 Cd144 2.381 . S
O152 C151 1.258 . S
O153 Cd144 2.378 1_556 S
O153 C151 1.256 1_556 S
O154 Cd155 2.300 1_545 S
O154 C161 1.275 . S
Cd155 O154 2.300 1_565 S
Cd155 O163 2.381 . S
Cd155 O164 2.378 . S
O156 Cd157 2.385 . S
O156 C161 1.255 . S
Cd157 O156 2.385 . S
Cd157 O158 2.317 . S
O158 Cd157 2.317 . S
O158 C159 1.232 . S
C159 O158 1.232 . S
C159 O160 1.218 . S
O160 C159 1.218 . S
C161 O154 1.275 . S
C161 O156 1.255 . S
C162 O163 1.258 . S
C162 O164 1.256 . S
O163 Cd155 2.381 . S
O163 C162 1.258 . S
O164 Cd155 2.378 . S
O164 C162 1.256 . S
O165 Cd166 2.300 1_556 S
O165 C172 1.275 . S
Cd166 O165 2.300 1_554 S
Cd166 O174 2.381 1_554 S
Cd166 O175 2.378 . S
O167 Cd168 2.385 1_556 S
O167 C172 1.255 . S
Cd168 O167 2.385 1_554 S
Cd168 O169 2.317 . S
O169 Cd168 2.317 . S
O169 C170 1.232 . S
C170 O169 1.232 . S
C170 O171 1.218 . S
O171 C170 1.218 . S
C172 O165 1.275 . S
C172 O167 1.255 . S
C173 O174 1.258 1_554 S
C173 O175 1.256 . S
O174 Cd166 2.381 1_556 S
O174 C173 1.258 1_556 S
O175 Cd166 2.378 . S
O175 C173 1.256 . S
H176 C184 0.950 . S
H177 C189 0.950 . S
H178 C186 0.950 . S
H179 C188 0.950 . S
H180 C190 0.950 . S
H181 C192 0.950 . S
H182 C194 0.950 . S
H183 C195 0.950 . S
C184 H176 0.950 . S
C184 C185 1.386 . S
C184 C186 1.391 . S
C185 C184 1.386 . S
C185 C189 1.393 . S
C186 H178 0.950 . S
C186 C184 1.391 . S
C186 C187 1.400 . S
C187 C186 1.400 . S
C187 C188 1.398 . S
C187 C193 1.491 . S
C188 H179 0.950 . S
C188 C187 1.398 . S
C188 C189 1.391 . S
C189 H177 0.950 . S
C189 C185 1.393 . S
C189 C188 1.391 . S
C190 H180 0.950 . S
C190 C191 1.386 . S
C190 C192 1.391 . S
C191 C190 1.386 . S
C191 C195 1.393 . S
C192 H181 0.950 . S
C192 C190 1.391 . S
C192 C193 1.400 . S
C193 C187 1.491 . S
C193 C192 1.400 . S
C193 C194 1.398 . S
C194 H182 0.950 . S
C194 C193 1.398 . S
C194 C195 1.391 . S
C195 H183 0.950 . S
C195 C191 1.393 . S
C195 C194 1.391 . S
H196 C204 0.950 . S
H197 C209 0.950 . S
H198 C206 0.950 . S
H199 C208 0.950 . S
H200 C210 0.950 . S
H201 C212 0.950 . S
H202 C214 0.950 . S
H203 C215 0.950 . S
C204 H196 0.950 . S
C204 C205 1.386 . S
C204 C206 1.391 . S
C205 C204 1.386 . S
C205 C209 1.393 . S
C206 H198 0.950 . S
C206 C204 1.391 . S
C206 C207 1.400 . S
C207 C206 1.400 . S
C207 C208 1.398 . S
C207 C213 1.491 . S
C208 H199 0.950 . S
C208 C207 1.398 . S
C208 C209 1.391 . S
C209 H197 0.950 . S
C209 C205 1.393 . S
C209 C208 1.391 . S
C210 H200 0.950 . S
C210 C211 1.386 . S
C210 C212 1.391 . S
C211 C210 1.386 . S
C211 C215 1.393 . S
C212 H201 0.950 . S
C212 C210 1.391 . S
C212 C213 1.400 . S
C213 C207 1.491 . S
C213 C212 1.400 . S
C213 C214 1.398 . S
C214 H202 0.950 . S
C214 C213 1.398 . S
C214 C215 1.391 . S
C215 H203 0.950 . S
C215 C211 1.393 . S
C215 C214 1.391 . S
H216 C224 0.950 . S
H217 C229 0.950 . S
H218 C226 0.950 . S
H219 C228 0.950 . S
H220 C230 0.950 . S
H221 C232 0.950 . S
H222 C234 0.950 . S
H223 C235 0.950 . S
C224 H216 0.950 . S
C224 C225 1.386 . S
C224 C226 1.391 . S
C225 C224 1.386 . S
C225 C229 1.393 . S
C226 H218 0.950 . S
C226 C224 1.391 . S
C226 C227 1.400 . S
C227 C226 1.400 . S
C227 C228 1.398 . S
C227 C233 1.491 . S
C228 H219 0.950 . S
C228 C227 1.398 . S
C228 C229 1.391 . S
C229 H217 0.950 . S
C229 C225 1.393 . S
C229 C228 1.391 . S
C230 H220 0.950 . S
C230 C231 1.386 . S
C230 C232 1.391 . S
C231 C230 1.386 . S
C231 C235 1.393 . S
C232 H221 0.950 . S
C232 C230 1.391 . S
C232 C233 1.400 . S
C233 C227 1.491 . S
C233 C232 1.400 . S
C233 C234 1.398 . S
C234 H222 0.950 . S
C234 C233 1.398 . S
C234 C235 1.391 . S
C235 H223 0.950 . S
C235 C231 1.393 . S
C235 C234 1.391 . S
H236 C244 0.950 . S
H237 C249 0.950 . S
H238 C246 0.950 . S
H239 C248 0.950 . S
H240 C250 0.950 . S
H241 C252 0.950 . S
H242 C254 0.950 . S
H243 C255 0.950 . S
C244 H236 0.950 . S
C244 C245 1.386 . S
C244 C246 1.391 . S
C245 C244 1.386 . S
C245 C249 1.393 . S
C246 H238 0.950 . S
C246 C244 1.391 . S
C246 C247 1.400 . S
C247 C246 1.400 . S
C247 C248 1.398 . S
C247 C253 1.491 . S
C248 H239 0.950 . S
C248 C247 1.398 . S
C248 C249 1.391 . S
C249 H237 0.950 . S
C249 C245 1.393 . S
C249 C248 1.391 . S
C250 H240 0.950 . S
C250 C251 1.386 . S
C250 C252 1.391 . S
C251 C250 1.386 . S
C251 C255 1.393 . S
C252 H241 0.950 . S
C252 C250 1.391 . S
C252 C253 1.400 . S
C253 C247 1.491 . S
C253 C252 1.400 . S
C253 C254 1.398 . S
C254 H242 0.950 . S
C254 C253 1.398 . S
C254 C255 1.391 . S
C255 H243 0.950 . S
C255 C251 1.393 . S
C255 C254 1.391 . S
H256 C264 0.950 . S
H257 C269 0.950 . S
H258 C266 0.950 . S
H259 C268 0.950 . S
H260 C270 0.950 . S
H261 C272 0.950 . S
H262 C274 0.950 . S
H263 C275 0.950 . S
C264 H256 0.950 . S
C264 C265 1.386 . S
C264 C266 1.391 . S
C265 C264 1.386 . S
C265 C269 1.393 . S
C266 H258 0.950 . S
C266 C264 1.391 . S
C266 C267 1.400 . S
C267 C266 1.400 . S
C267 C268 1.398 . S
C267 C273 1.491 . S
C268 H259 0.950 . S
C268 C267 1.398 . S
C268 C269 1.391 . S
C269 H257 0.950 . S
C269 C265 1.393 . S
C269 C268 1.391 . S
C270 H260 0.950 . S
C270 C271 1.386 . S
C270 C272 1.391 . S
C271 C270 1.386 . S
C271 C275 1.393 . S
C272 H261 0.950 . S
C272 C270 1.391 . S
C272 C273 1.400 . S
C273 C267 1.491 . S
C273 C272 1.400 . S
C273 C274 1.398 . S
C274 H262 0.950 . S
C274 C273 1.398 . S
C274 C275 1.391 . S
C275 H263 0.950 . S
C275 C271 1.393 . S
C275 C274 1.391 . S
H276 C284 0.950 . S
H277 C289 0.950 . S
H278 C286 0.950 . S
H279 C288 0.950 . S
H280 C290 0.950 . S
H281 C292 0.950 . S
H282 C294 0.950 . S
H283 C295 0.950 . S
C284 H276 0.950 . S
C284 C285 1.386 . S
C284 C286 1.391 . S
C285 C284 1.386 . S
C285 C289 1.393 . S
C286 H278 0.950 . S
C286 C284 1.391 . S
C286 C287 1.400 . S
C287 C286 1.400 . S
C287 C288 1.398 . S
C287 C293 1.491 . S
C288 H279 0.950 . S
C288 C287 1.398 . S
C288 C289 1.391 . S
C289 H277 0.950 . S
C289 C285 1.393 . S
C289 C288 1.391 . S
C290 H280 0.950 . S
C290 C291 1.386 . S
C290 C292 1.391 . S
C291 C290 1.386 . S
C291 C295 1.393 . S
C292 H281 0.950 . S
C292 C290 1.391 . S
C292 C293 1.400 . S
C293 C287 1.491 . S
C293 C292 1.400 . S
C293 C294 1.398 . S
C294 H282 0.950 . S
C294 C293 1.398 . S
C294 C295 1.391 . S
C295 H283 0.950 . S
C295 C291 1.393 . S
C295 C294 1.391 . S
H296 C304 0.950 . S
H297 C309 0.950 . S
H298 C306 0.950 . S
H299 C308 0.950 . S
H300 C310 0.950 . S
H301 C312 0.950 . S
H302 C314 0.950 . S
H303 C315 0.950 . S
C304 H296 0.950 . S
C304 C305 1.386 . S
C304 C306 1.391 . S
C305 C304 1.386 . S
C305 C309 1.393 . S
C306 H298 0.950 . S
C306 C304 1.391 . S
C306 C307 1.400 . S
C307 C306 1.400 . S
C307 C308 1.398 . S
C307 C313 1.491 . S
C308 H299 0.950 . S
C308 C307 1.398 . S
C308 C309 1.391 . S
C309 H297 0.950 . S
C309 C305 1.393 . S
C309 C308 1.391 . S
C310 H300 0.950 . S
C310 C311 1.386 . S
C310 C312 1.391 . S
C311 C310 1.386 . S
C311 C315 1.393 . S
C312 H301 0.950 . S
C312 C310 1.391 . S
C312 C313 1.400 . S
C313 C307 1.491 . S
C313 C312 1.400 . S
C313 C314 1.398 . S
C314 H302 0.950 . S
C314 C313 1.398 . S
C314 C315 1.391 . S
C315 H303 0.950 . S
C315 C311 1.393 . S
C315 C314 1.391 . S
H316 C324 0.950 . S
H317 C329 0.950 . S
H318 C326 0.950 . S
H319 C328 0.950 . S
H320 C330 0.950 . S
H321 C332 0.950 . S
H322 C334 0.950 . S
H323 C335 0.950 . S
C324 H316 0.950 . S
C324 C325 1.386 . S
C324 C326 1.391 . S
C325 C324 1.386 . S
C325 C329 1.393 . S
C326 H318 0.950 . S
C326 C324 1.391 . S
C326 C327 1.400 . S
C327 C326 1.400 . S
C327 C328 1.398 . S
C327 C333 1.491 . S
C328 H319 0.950 . S
C328 C327 1.398 . S
C328 C329 1.391 . S
C329 H317 0.950 . S
C329 C325 1.393 . S
C329 C328 1.391 . S
C330 H320 0.950 . S
C330 C331 1.386 . S
C330 C332 1.391 . S
C331 C330 1.386 . S
C331 C335 1.393 . S
C332 H321 0.950 . S
C332 C330 1.391 . S
C332 C333 1.400 . S
C333 C327 1.491 . S
C333 C332 1.400 . S
C333 C334 1.398 . S
C334 H322 0.950 . S
C334 C333 1.398 . S
C334 C335 1.391 . S
C335 H323 0.950 . S
C335 C331 1.393 . S
C335 C334 1.391 . S
H336 C344 0.950 . S
H337 C349 0.950 . S
H338 C346 0.950 . S
H339 C348 0.950 . S
H340 C350 0.950 . S
H341 C352 0.950 . S
H342 C354 0.950 . S
H343 C355 0.950 . S
C344 H336 0.950 . S
C344 C345 1.386 . S
C344 C346 1.391 . S
C345 C344 1.386 . S
C345 C349 1.393 . S
C346 H338 0.950 . S
C346 C344 1.391 . S
C346 C347 1.400 . S
C347 C346 1.400 . S
C347 C348 1.398 . S
C347 C353 1.491 . S
C348 H339 0.950 . S
C348 C347 1.398 . S
C348 C349 1.391 . S
C349 H337 0.950 . S
C349 C345 1.393 . S
C349 C348 1.391 . S
C350 H340 0.950 . S
C350 C351 1.386 . S
C350 C352 1.391 . S
C351 C350 1.386 . S
C351 C355 1.393 . S
C352 H341 0.950 . S
C352 C350 1.391 . S
C352 C353 1.400 . S
C353 C347 1.491 . S
C353 C352 1.400 . S
C353 C354 1.398 . S
C354 H342 0.950 . S
C354 C353 1.398 . S
C354 C355 1.391 . S
C355 H343 0.950 . S
C355 C351 1.393 . S
C355 C354 1.391 . S
H356 C364 0.950 . S
H357 C369 0.950 . S
H358 C366 0.950 . S
H359 C368 0.950 . S
H360 C370 0.950 . S
H361 C372 0.950 . S
H362 C374 0.950 . S
H363 C375 0.950 . S
C364 H356 0.950 . S
C364 C365 1.386 . S
C364 C366 1.391 . S
C365 C364 1.386 . S
C365 C369 1.393 . S
C366 H358 0.950 . S
C366 C364 1.391 . S
C366 C367 1.400 . S
C367 C366 1.400 . S
C367 C368 1.398 . S
C367 C373 1.491 . S
C368 H359 0.950 . S
C368 C367 1.398 . S
C368 C369 1.391 . S
C369 H357 0.950 . S
C369 C365 1.393 . S
C369 C368 1.391 . S
C370 H360 0.950 . S
C370 C371 1.386 . S
C370 C372 1.391 . S
C371 C370 1.386 . S
C371 C375 1.393 . S
C372 H361 0.950 . S
C372 C370 1.391 . S
C372 C373 1.400 . S
C373 C367 1.491 . S
C373 C372 1.400 . S
C373 C374 1.398 . S
C374 H362 0.950 . S
C374 C373 1.398 . S
C374 C375 1.391 . S
C375 H363 0.950 . S
C375 C371 1.393 . S
C375 C374 1.391 . S
H376 C384 0.950 . S
H377 C389 0.950 . S
H378 C386 0.950 . S
H379 C388 0.950 . S
H380 C390 0.950 . S
H381 C392 0.950 . S
H382 C394 0.950 . S
H383 C395 0.950 . S
C384 H376 0.950 . S
C384 C385 1.386 . S
C384 C386 1.391 . S
C385 C384 1.386 . S
C385 C389 1.393 . S
C386 H378 0.950 . S
C386 C384 1.391 . S
C386 C387 1.400 . S
C387 C386 1.400 . S
C387 C388 1.398 . S
C387 C393 1.491 . S
C388 H379 0.950 . S
C388 C387 1.398 . S
C388 C389 1.391 . S
C389 H377 0.950 . S
C389 C385 1.393 . S
C389 C388 1.391 . S
C390 H380 0.950 . S
C390 C391 1.386 . S
C390 C392 1.391 . S
C391 C390 1.386 . S
C391 C395 1.393 . S
C392 H381 0.950 . S
C392 C390 1.391 . S
C392 C393 1.400 . S
C393 C387 1.491 . S
C393 C392 1.400 . S
C393 C394 1.398 . S
C394 H382 0.950 . S
C394 C393 1.398 . S
C394 C395 1.391 . S
C395 H383 0.950 . S
C395 C391 1.393 . S
C395 C394 1.391 . S
H396 C404 0.950 . S
H397 C409 0.950 . S
H398 C406 0.950 . S
H399 C408 0.950 . S
H400 C410 0.950 . S
H401 C412 0.950 . S
H402 C414 0.950 . S
H403 C415 0.950 . S
C404 H396 0.950 . S
C404 C405 1.386 . S
C404 C406 1.391 . S
C405 C404 1.386 . S
C405 C409 1.393 . S
C406 H398 0.950 . S
C406 C404 1.391 . S
C406 C407 1.400 . S
C407 C406 1.400 . S
C407 C408 1.398 . S
C407 C413 1.491 . S
C408 H399 0.950 . S
C408 C407 1.398 . S
C408 C409 1.391 . S
C409 H397 0.950 . S
C409 C405 1.393 . S
C409 C408 1.391 . S
C410 H400 0.950 . S
C410 C411 1.386 . S
C410 C412 1.391 . S
C411 C410 1.386 . S
C411 C415 1.393 . S
C412 H401 0.950 . S
C412 C410 1.391 . S
C412 C413 1.400 . S
C413 C407 1.491 . S
C413 C412 1.400 . S
C413 C414 1.398 . S
C414 H402 0.950 . S
C414 C413 1.398 . S
C414 C415 1.391 . S
C415 H403 0.950 . S
C415 C411 1.393 . S
C415 C414 1.391 . S
H416 C424 0.950 . S
H417 C429 0.950 . S
H418 C426 0.950 . S
H419 C428 0.950 . S
H420 C430 0.950 . S
H421 C432 0.950 . S
H422 C434 0.950 . S
H423 C435 0.950 . S
C424 H416 0.950 . S
C424 C425 1.386 . S
C424 C426 1.391 . S
C425 C424 1.386 . S
C425 C429 1.393 . S
C426 H418 0.950 . S
C426 C424 1.391 . S
C426 C427 1.400 . S
C427 C426 1.400 . S
C427 C428 1.398 . S
C427 C433 1.491 . S
C428 H419 0.950 . S
C428 C427 1.398 . S
C428 C429 1.391 . S
C429 H417 0.950 . S
C429 C425 1.393 . S
C429 C428 1.391 . S
C430 H420 0.950 . S
C430 C431 1.386 . S
C430 C432 1.391 . S
C431 C430 1.386 . S
C431 C435 1.393 . S
C432 H421 0.950 . S
C432 C430 1.391 . S
C432 C433 1.400 . S
C433 C427 1.491 . S
C433 C432 1.400 . S
C433 C434 1.398 . S
C434 H422 0.950 . S
C434 C433 1.398 . S
C434 C435 1.391 . S
C435 H423 0.950 . S
C435 C431 1.393 . S
C435 C434 1.391 . S
H436 C444 0.950 . S
H437 C449 0.950 . S
H438 C446 0.950 . S
H439 C448 0.950 . S
H440 C450 0.950 . S
H441 C452 0.950 . S
H442 C454 0.950 . S
H443 C455 0.950 . S
C444 H436 0.950 . S
C444 C445 1.386 . S
C444 C446 1.391 . S
C445 C444 1.386 . S
C445 C449 1.393 . S
C446 H438 0.950 . S
C446 C444 1.391 . S
C446 C447 1.400 . S
C447 C446 1.400 . S
C447 C448 1.398 . S
C447 C453 1.491 . S
C448 H439 0.950 . S
C448 C447 1.398 . S
C448 C449 1.391 . S
C449 H437 0.950 . S
C449 C445 1.393 . S
C449 C448 1.391 . S
C450 H440 0.950 . S
C450 C451 1.386 . S
C450 C452 1.391 . S
C451 C450 1.386 . S
C451 C455 1.393 . S
C452 H441 0.950 . S
C452 C450 1.391 . S
C452 C453 1.400 . S
C453 C447 1.491 . S
C453 C452 1.400 . S
C453 C454 1.398 . S
C454 H442 0.950 . S
C454 C453 1.398 . S
C454 C455 1.391 . S
C455 H443 0.950 . S
C455 C451 1.393 . S
C455 C454 1.391 . S
H456 C464 0.950 . S
H457 C469 0.950 . S
H458 C466 0.950 . S
H459 C468 0.950 . S
H460 C470 0.950 . S
H461 C472 0.950 . S
H462 C474 0.950 . S
H463 C475 0.950 . S
C464 H456 0.950 . S
C464 C465 1.386 . S
C464 C466 1.391 . S
C465 C464 1.386 . S
C465 C469 1.393 . S
C466 H458 0.950 . S
C466 C464 1.391 . S
C466 C467 1.400 . S
C467 C466 1.400 . S
C467 C468 1.398 . S
C467 C473 1.491 . S
C468 H459 0.950 . S
C468 C467 1.398 . S
C468 C469 1.391 . S
C469 H457 0.950 . S
C469 C465 1.393 . S
C469 C468 1.391 . S
C470 H460 0.950 . S
C470 C471 1.386 . S
C470 C472 1.391 . S
C471 C470 1.386 . S
C471 C475 1.393 . S
C472 H461 0.950 . S
C472 C470 1.391 . S
C472 C473 1.400 . S
C473 C467 1.491 . S
C473 C472 1.400 . S
C473 C474 1.398 . S
C474 H462 0.950 . S
C474 C473 1.398 . S
C474 C475 1.391 . S
C475 H463 0.950 . S
C475 C471 1.393 . S
C475 C474 1.391 . S
H476 C484 0.950 . S
H477 C489 0.950 . S
H478 C486 0.950 . S
H479 C488 0.950 . S
H480 C490 0.950 . S
H481 C492 0.950 . S
H482 C494 0.950 . S
H483 C495 0.950 . S
C484 H476 0.950 . S
C484 C485 1.386 . S
C484 C486 1.391 . S
C485 C484 1.386 . S
C485 C489 1.393 . S
C486 H478 0.950 . S
C486 C484 1.391 . S
C486 C487 1.400 . S
C487 C486 1.400 . S
C487 C488 1.398 . S
C487 C493 1.491 . S
C488 H479 0.950 . S
C488 C487 1.398 . S
C488 C489 1.391 . S
C489 H477 0.950 . S
C489 C485 1.393 . S
C489 C488 1.391 . S
C490 H480 0.950 . S
C490 C491 1.386 . S
C490 C492 1.391 . S
C491 C490 1.386 . S
C491 C495 1.393 . S
C492 H481 0.950 . S
C492 C490 1.391 . S
C492 C493 1.400 . S
C493 C487 1.491 . S
C493 C492 1.400 . S
C493 C494 1.398 . S
C494 H482 0.950 . S
C494 C493 1.398 . S
C494 C495 1.391 . S
C495 H483 0.950 . S
C495 C491 1.393 . S
C495 C494 1.391 . S
H496 C504 0.950 . S
H497 C509 0.950 . S
H498 C506 0.950 . S
H499 C508 0.950 . S
H500 C510 0.950 . S
H501 C512 0.950 . S
H502 C514 0.950 . S
H503 C515 0.950 . S
C504 H496 0.950 . S
C504 C505 1.386 . S
C504 C506 1.391 . S
C505 C504 1.386 . S
C505 C509 1.393 1_554 S
C506 H498 0.950 . S
C506 C504 1.391 . S
C506 C507 1.400 . S
C507 C506 1.400 . S
C507 C508 1.398 1_554 S
C507 C513 1.491 . S
C508 H499 0.950 . S
C508 C507 1.398 1_556 S
C508 C509 1.391 . S
C509 H497 0.950 . S
C509 C505 1.393 1_556 S
C509 C508 1.391 . S
C510 H500 0.950 . S
C510 C511 1.386 1_556 S
C510 C512 1.391 . S
C511 C510 1.386 1_554 S
C511 C515 1.393 . S
C512 H501 0.950 . S
C512 C510 1.391 . S
C512 C513 1.400 1_556 S
C513 C507 1.491 . S
C513 C512 1.400 1_554 S
C513 C514 1.398 . S
C514 H502 0.950 . S
C514 C513 1.398 . S
C514 C515 1.391 . S
C515 H503 0.950 . S
C515 C511 1.393 . S
C515 C514 1.391 . S
H516 C524 0.950 . S
H517 C529 0.950 . S
H518 C526 0.950 . S
H519 C528 0.950 . S
H520 C530 0.950 . S
H521 C532 0.950 . S
H522 C534 0.950 . S
H523 C535 0.950 . S
C524 H516 0.950 . S
C524 C525 1.386 . S
C524 C526 1.391 . S
C525 C524 1.386 . S
C525 C529 1.393 . S
C526 H518 0.950 . S
C526 C524 1.391 . S
C526 C527 1.400 . S
C527 C526 1.400 . S
C527 C528 1.398 . S
C527 C533 1.491 . S
C528 H519 0.950 . S
C528 C527 1.398 . S
C528 C529 1.391 . S
C529 H517 0.950 . S
C529 C525 1.393 . S
C529 C528 1.391 . S
C530 H520 0.950 . S
C530 C531 1.386 . S
C530 C532 1.391 . S
C531 C530 1.386 . S
C531 C535 1.393 . S
C532 H521 0.950 . S
C532 C530 1.391 . S
C532 C533 1.400 . S
C533 C527 1.491 . S
C533 C532 1.400 . S
C533 C534 1.398 . S
C534 H522 0.950 . S
C534 C533 1.398 . S
C534 C535 1.391 . S
C535 H523 0.950 . S
C535 C531 1.393 . S
C535 C534 1.391 . S
H536 C544 0.958 . S
H537 C549 0.950 . S
H538 C546 0.942 1_556 S
H539 C548 0.950 . S
H540 C550 0.950 . S
H541 C552 0.950 . S
H542 C554 0.950 1_556 S
H543 C555 0.950 1_556 S
C544 H536 0.958 . S
C544 C545 1.377 1_556 S
C544 C546 1.394 1_556 S
C545 C544 1.377 1_554 S
C545 C549 1.393 . S
C546 H538 0.942 1_554 S
C546 C544 1.394 1_554 S
C546 C547 1.407 . S
C547 C546 1.407 . S
C547 C548 1.398 . S
C547 C553 1.491 . S
C548 H539 0.950 . S
C548 C547 1.398 . S
C548 C549 1.391 . S
C549 H537 0.950 . S
C549 C545 1.393 . S
C549 C548 1.391 . S
C550 H540 0.950 . S
C550 C551 1.386 . S
C550 C552 1.391 . S
C551 C550 1.386 . S
C551 C555 1.393 . S
C552 H541 0.950 . S
C552 C550 1.391 . S
C552 C553 1.400 . S
C553 C547 1.491 . S
C553 C552 1.400 . S
C553 C554 1.398 . S
C554 H542 0.950 1_554 S
C554 C553 1.398 . S
C554 C555 1.391 . S
C555 H543 0.950 1_554 S
C555 C551 1.393 . S
C555 C554 1.391 . S
H556 C564 0.950 . S
H557 C569 0.950 . S
H558 C566 0.950 . S
H559 C568 0.950 . S
H560 C570 0.950 . S
H561 C572 0.950 . S
H562 C574 0.950 . S
H563 C575 0.950 . S
C564 H556 0.950 . S
C564 C565 1.386 . S
C564 C566 1.391 . S
C565 C564 1.386 . S
C565 C569 1.393 . S
C566 H558 0.950 . S
C566 C564 1.391 . S
C566 C567 1.400 . S
C567 C566 1.400 . S
C567 C568 1.398 . S
C567 C573 1.491 . S
C568 H559 0.950 . S
C568 C567 1.398 . S
C568 C569 1.391 . S
C569 H557 0.950 . S
C569 C565 1.393 . S
C569 C568 1.391 . S
C570 H560 0.950 . S
C570 C571 1.386 . S
C570 C572 1.391 . S
C571 C570 1.386 . S
C571 C575 1.393 . S
C572 H561 0.950 . S
C572 C570 1.391 . S
C572 C573 1.400 . S
C573 C567 1.491 . S
C573 C572 1.400 . S
C573 C574 1.398 . S
C574 H562 0.950 . S
C574 C573 1.398 . S
C574 C575 1.391 . S
C575 H563 0.950 . S
C575 C571 1.393 . S
C575 C574 1.391 . S
H576 C584 0.950 . S
H577 C589 0.950 . S
H578 C586 0.950 . S
H579 C588 0.950 . S
H580 C590 0.950 . S
H581 C592 0.950 . S
H582 C594 0.950 . S
H583 C595 0.950 . S
C584 H576 0.950 . S
C584 C585 1.386 . S
C584 C586 1.391 . S
C585 C584 1.386 . S
C585 C589 1.393 . S
C586 H578 0.950 . S
C586 C584 1.391 . S
C586 C587 1.400 . S
C587 C586 1.400 . S
C587 C588 1.398 . S
C587 C593 1.491 . S
C588 H579 0.950 . S
C588 C587 1.398 . S
C588 C589 1.391 . S
C589 H577 0.950 . S
C589 C585 1.393 . S
C589 C588 1.391 . S
C590 H580 0.950 . S
C590 C591 1.386 . S
C590 C592 1.391 . S
C591 C590 1.386 . S
C591 C595 1.393 . S
C592 H581 0.950 . S
C592 C590 1.391 . S
C592 C593 1.400 . S
C593 C587 1.491 . S
C593 C592 1.400 . S
C593 C594 1.398 . S
C594 H582 0.950 . S
C594 C593 1.398 . S
C594 C595 1.391 . S
C595 H583 0.950 . S
C595 C591 1.393 . S
C595 C594 1.391 . S
H596 C604 0.950 . S
H597 C609 0.950 . S
H598 C606 0.950 . S
H599 C608 0.950 . S
H600 C610 0.950 . S
H601 C612 0.950 . S
H602 C614 0.950 . S
H603 C615 0.950 . S
C604 H596 0.950 . S
C604 C605 1.386 1_556 S
C604 C606 1.391 . S
C605 C604 1.386 1_554 S
C605 C609 1.393 . S
C606 H598 0.950 . S
C606 C604 1.391 . S
C606 C607 1.400 1_556 S
C607 C606 1.400 1_554 S
C607 C608 1.398 . S
C607 C613 1.491 . S
C608 H599 0.950 . S
C608 C607 1.398 . S
C608 C609 1.391 . S
C609 H597 0.950 . S
C609 C605 1.393 . S
C609 C608 1.391 . S
C610 H600 0.950 . S
C610 C611 1.386 . S
C610 C612 1.391 . S
C611 C610 1.386 . S
C611 C615 1.393 1_554 S
C612 H601 0.950 . S
C612 C610 1.391 . S
C612 C613 1.400 . S
C613 C607 1.491 . S
C613 C612 1.400 . S
C613 C614 1.398 1_554 S
C614 H602 0.950 . S
C614 C613 1.398 1_556 S
C614 C615 1.391 . S
C615 H603 0.950 . S
C615 C611 1.393 1_556 S
C615 C614 1.391 . S
H616 C624 0.950 . S
H617 C629 0.950 . S
H618 C626 0.950 . S
H619 C628 0.950 . S
H620 C630 0.950 . S
H621 C632 0.950 . S
H622 C634 0.950 . S
H623 C635 0.950 . S
C624 H616 0.950 . S
C624 C625 1.386 . S
C624 C626 1.391 . S
C625 C624 1.386 . S
C625 C629 1.393 . S
C626 H618 0.950 . S
C626 C624 1.391 . S
C626 C627 1.400 . S
C627 C626 1.400 . S
C627 C628 1.398 . S
C627 C633 1.491 . S
C628 H619 0.950 . S
C628 C627 1.398 . S
C628 C629 1.391 . S
C629 H617 0.950 . S
C629 C625 1.393 . S
C629 C628 1.391 . S
C630 H620 0.950 . S
C630 C631 1.386 . S
C630 C632 1.391 . S
C631 C630 1.386 . S
C631 C635 1.393 . S
C632 H621 0.950 . S
C632 C630 1.391 . S
C632 C633 1.400 . S
C633 C627 1.491 . S
C633 C632 1.400 . S
C633 C634 1.398 . S
C634 H622 0.950 . S
C634 C633 1.398 . S
C634 C635 1.391 . S
C635 H623 0.950 . S
C635 C631 1.393 . S
C635 C634 1.391 . S
H636 C644 0.950 . S
H637 C649 0.950 . S
H638 C646 0.950 . S
H639 C648 0.950 . S
H640 C650 0.950 . S
H641 C652 0.950 . S
H642 C654 0.950 . S
H643 C655 0.950 . S
C644 H636 0.950 . S
C644 C645 1.386 . S
C644 C646 1.391 . S
C645 C644 1.386 . S
C645 C649 1.393 . S
C646 H638 0.950 . S
C646 C644 1.391 . S
C646 C647 1.400 . S
C647 C646 1.400 . S
C647 C648 1.398 . S
C647 C653 1.491 . S
C648 H639 0.950 . S
C648 C647 1.398 . S
C648 C649 1.391 . S
C649 H637 0.950 . S
C649 C645 1.393 . S
C649 C648 1.391 . S
C650 H640 0.950 . S
C650 C651 1.386 . S
C650 C652 1.391 . S
C651 C650 1.386 . S
C651 C655 1.393 . S
C652 H641 0.950 . S
C652 C650 1.391 . S
C652 C653 1.400 . S
C653 C647 1.491 . S
C653 C652 1.400 . S
C653 C654 1.398 . S
C654 H642 0.950 . S
C654 C653 1.398 . S
C654 C655 1.391 . S
C655 H643 0.950 . S
C655 C651 1.393 . S
C655 C654 1.391 . S
C185 C21 1.480 . S
C191 C126 1.222 . S
C205 C40 1.569 . S
C211 C95 1.504 . S
C231 C106 1.466 . S
C225 C54 1.482 . S
C245 C73 1.507 . S
C251 C115 1.400 . S
C271 C150 1.494 . S
C265 C74 1.506 . S
C291 C159 1.414 . S
C285 C10 1.518 . S
C311 C170 1.251 . S
C305 C37 1.463 . S
C331 C139 1.488 . S
C325 C65 1.563 . S
C345 C52 1.446 . S
C351 C104 1.296 . S
C365 C87 1.597 . S
C371 C117 1.596 . S
C385 C15 1.517 . S
C391 C128 1.487 . S
C411 C93 1.218 . S
C405 C32 1.479 . S
C425 C29 1.541 . S
C431 C172 1.497 . S
C451 C137 1.222 . S
C445 C59 1.549 . S
C471 C148 1.282 . S
C465 C84 1.426 . S
C485 C8 1.535 . S
C491 C161 1.529 . S
C511 C96 1.563 . S
C505 C7 1.587 . S
C531 C107 1.525 . S
C525 C30 1.515 . S
C545 C62 1.602 . S
C551 C118 1.601 . S
C565 C81 1.531 . S
C571 C129 1.524 . S
C591 C140 1.568 . S
C585 C76 1.603 . S
C605 C18 1.517 . S
C611 C151 1.528 . S
C625 C43 1.592 . S
C631 C162 1.599 . S
C645 C51 1.527 . S
C651 C173 1.518 . S
