# Generated by pormake.
# Topology cml, (3,6)-cn, num edge types: 1
# Building blocks:
#     Node 0, Type 0, BuildingBlock: OLANEW_clean_sbu_2, # of connection points: 3
#     Node 1, Type 0, BuildingBlock: OLANEW_clean_sbu_2, # of connection points: 3
#     Node 2, Type 0, BuildingBlock: OLANEW_clean_sbu_2, # of connection points: 3
#     Node 3, Type 0, BuildingBlock: OLANEW_clean_sbu_2, # of connection points: 3
#     Node 4, Type 0, BuildingBlock: OLANEW_clean_sbu_2, # of connection points: 3
#     Node 5, Type 0, BuildingBlock: OLANEW_clean_sbu_2, # of connection points: 3
#     Node 6, Type 0, BuildingBlock: OLANEW_clean_sbu_2, # of connection points: 3
#     Node 7, Type 0, BuildingBlock: OLANEW_clean_sbu_2, # of connection points: 3
#     Node 8, Type 1, BuildingBlock: OJICUG_clean_sbu_0, # of connection points: 6
#     Node 9, Type 1, BuildingBlock: OJICUG_clean_sbu_0, # of connection points: 6
#     Node 10, Type 1, BuildingBlock: OJICUG_clean_sbu_0, # of connection points: 6
#     Node 11, Type 1, BuildingBlock: OJICUG_clean_sbu_0, # of connection points: 6
#     Edge 12, Type (0, 1), BuildingBlock: ZUJKAS_clean_linker_0, # of connection points: 2
#     Edge 13, Type (0, 1), BuildingBlock: ZUJKAS_clean_linker_0, # of connection points: 2
#     Edge 14, Type (0, 1), BuildingBlock: ZUJKAS_clean_linker_0, # of connection points: 2
#     Edge 15, Type (0, 1), BuildingBlock: ZUJKAS_clean_linker_0, # of connection points: 2
#     Edge 16, Type (0, 1), BuildingBlock: ZUJKAS_clean_linker_0, # of connection points: 2
#     Edge 17, Type (0, 1), BuildingBlock: ZUJKAS_clean_linker_0, # of connection points: 2
#     Edge 18, Type (0, 1), BuildingBlock: ZUJKAS_clean_linker_0, # of connection points: 2
#     Edge 19, Type (0, 1), BuildingBlock: ZUJKAS_clean_linker_0, # of connection points: 2
#     Edge 20, Type (0, 1), BuildingBlock: ZUJKAS_clean_linker_0, # of connection points: 2
#     Edge 21, Type (0, 1), BuildingBlock: ZUJKAS_clean_linker_0, # of connection points: 2
#     Edge 22, Type (0, 1), BuildingBlock: ZUJKAS_clean_linker_0, # of connection points: 2
#     Edge 23, Type (0, 1), BuildingBlock: ZUJKAS_clean_linker_0, # of connection points: 2
#     Edge 24, Type (0, 1), BuildingBlock: ZUJKAS_clean_linker_0, # of connection points: 2
#     Edge 25, Type (0, 1), BuildingBlock: ZUJKAS_clean_linker_0, # of connection points: 2
#     Edge 26, Type (0, 1), BuildingBlock: ZUJKAS_clean_linker_0, # of connection points: 2
#     Edge 27, Type (0, 1), BuildingBlock: ZUJKAS_clean_linker_0, # of connection points: 2
#     Edge 28, Type (0, 1), BuildingBlock: ZUJKAS_clean_linker_0, # of connection points: 2
#     Edge 29, Type (0, 1), BuildingBlock: ZUJKAS_clean_linker_0, # of connection points: 2
#     Edge 30, Type (0, 1), BuildingBlock: ZUJKAS_clean_linker_0, # of connection points: 2
#     Edge 31, Type (0, 1), BuildingBlock: ZUJKAS_clean_linker_0, # of connection points: 2
#     Edge 32, Type (0, 1), BuildingBlock: ZUJKAS_clean_linker_0, # of connection points: 2
#     Edge 33, Type (0, 1), BuildingBlock: ZUJKAS_clean_linker_0, # of connection points: 2
#     Edge 34, Type (0, 1), BuildingBlock: ZUJKAS_clean_linker_0, # of connection points: 2
#     Edge 35, Type (0, 1), BuildingBlock: ZUJKAS_clean_linker_0, # of connection points: 2
# Relax obj value: 0.020
# Max RMSD: 0.073
# Mean RMSD: 0.062
data_MOF--net-cml--node1-OLANEW_clean_sbu_2--node2-OJICUG_clean_sbu_0--edge1-ZUJKAS_clean_linker_0
_symmetry_space_group_name_H-M    P1
_symmetry_Int_Tables_number       1
_symmetry_cell_setting            triclinic
loop_
_symmetry_equiv_pos_as_xyz
'x, y, z'
_cell_length_a     54.350973
_cell_length_b     52.574883
_cell_length_c     48.722609
_cell_angle_alpha  88.486712
_cell_angle_beta   88.015923
_cell_angle_gamma 88.684807
loop_
_atom_site_label
_atom_site_type_symbol
_atom_site_fract_x
_atom_site_fract_y
_atom_site_fract_z
_atom_type_partial_charge
O0 O 0.2571 0.44998 0.95232 0.0
Cd1 Cd 0.22488 0.4264 0.97766 0.0
O2 O 0.28125 0.42831 0.97961 0.0
Cd3 Cd 0.31474 0.41836 0.00139 0.0
O4 O 0.34069 0.40621 0.03255 0.0
C5 C 0.33275 0.40605 0.05739 0.0
O6 O 0.30983 0.41328 0.0628 0.0
C7 C 0.27864 0.44518 0.96067 0.0
C8 C 0.2017 0.3888 0.94936 0.0
O9 O 0.19229 0.41132 0.95098 0.0
O10 O 0.22244 0.38425 0.96046 0.0
O11 O 0.73337 0.62792 0.55395 0.0
Cd12 Cd 0.7501 0.61084 0.51078 0.0
O13 O 0.75032 0.59778 0.57972 0.0
Cd14 Cd 0.76205 0.57636 0.54375 0.0
O15 O 0.74534 0.55312 0.51337 0.0
C16 C 0.72196 0.55434 0.515 0.0
O17 O 0.71127 0.56911 0.53345 0.0
C18 C 0.73743 0.6182 0.57761 0.0
C19 C 0.78565 0.64181 0.48567 0.0
O20 O 0.79152 0.62461 0.50356 0.0
O21 O 0.76292 0.64441 0.47974 0.0
O22 O 0.73053 0.4048 0.97361 0.0
Cd23 Cd 0.74672 0.36887 0.00088 0.0
O24 O 0.75046 0.43397 0.99489 0.0
Cd25 Cd 0.76346 0.40604 0.02523 0.0
O26 O 0.75258 0.3872 0.064 0.0
C27 C 0.7511 0.40105 0.085 0.0
O28 O 0.7584 0.42468 0.08256 0.0
C29 C 0.73593 0.428 0.97632 0.0
C30 C 0.78321 0.34104 0.97253 0.0
O31 O 0.76038 0.33608 0.97041 0.0
O32 O 0.78877 0.35928 0.98797 0.0
O33 O 0.29934 0.5911 0.48352 0.0
Cd34 Cd 0.28065 0.62443 0.51207 0.0
O35 O 0.29143 0.56132 0.51494 0.0
Cd36 Cd 0.28069 0.58833 0.54664 0.0
O37 O 0.29304 0.60791 0.58246 0.0
C38 C 0.30926 0.62479 0.5786 0.0
O39 O 0.31622 0.63111 0.55328 0.0
C40 C 0.29976 0.56775 0.4911 0.0
C41 C 0.24395 0.65305 0.48617 0.0
O42 O 0.26636 0.66019 0.48509 0.0
O43 O 0.23897 0.63222 0.49926 0.0
O44 O 0.80045 0.90945 0.96742 0.0
Cd45 Cd 0.7798 0.87793 0.99762 0.0
O46 O 0.83048 0.88261 0.956 0.0
Cd47 Cd 0.81893 0.85384 0.98652 0.0
O48 O 0.82612 0.84062 0.02837 0.0
C49 C 0.82401 0.85738 0.04668 0.0
O50 O 0.81588 0.88028 0.03962 0.0
C51 C 0.82025 0.90453 0.95368 0.0
C52 C 0.7428 0.8509 0.97374 0.0
O53 O 0.73774 0.87126 0.98691 0.0
O54 O 0.76543 0.84362 0.97137 0.0
O55 O 0.22989 0.13145 0.52512 0.0
Cd56 Cd 0.24628 0.11734 0.48051 0.0
O57 O 0.24632 0.09909 0.54807 0.0
Cd58 Cd 0.25681 0.07989 0.51022 0.0
O59 O 0.23883 0.05752 0.47999 0.0
C60 C 0.21549 0.05933 0.48226 0.0
O61 O 0.20559 0.07436 0.50096 0.0
C62 C 0.23393 0.11992 0.54787 0.0
C63 C 0.28421 0.14788 0.45985 0.0
O64 O 0.26181 0.15259 0.45361 0.0
O65 O 0.28864 0.12873 0.47589 0.0
O66 O 0.21309 0.89591 0.98177 0.0
Cd67 Cd 0.22936 0.86093 0.01052 0.0
O68 O 0.2425 0.92313 0.98768 0.0
Cd69 Cd 0.25609 0.89868 0.0209 0.0
O70 O 0.24512 0.88066 0.06013 0.0
C71 C 0.23964 0.89547 0.0797 0.0
O72 O 0.24325 0.91996 0.07592 0.0
C73 C 0.22276 0.91736 0.97626 0.0
C74 C 0.26901 0.83461 0.98564 0.0
O75 O 0.24677 0.82868 0.98126 0.0
O76 O 0.27249 0.85304 0.00165 0.0
O77 O 0.80873 0.09466 0.48074 0.0
Cd78 Cd 0.79116 0.12712 0.51113 0.0
O79 O 0.7808 0.06608 0.49152 0.0
Cd80 Cd 0.76886 0.08827 0.52695 0.0
O81 O 0.78591 0.10228 0.56341 0.0
C82 C 0.80861 0.09595 0.56407 0.0
O83 O 0.81826 0.08231 0.54403 0.0
C84 C 0.79955 0.073 0.47708 0.0
C85 C 0.75331 0.15543 0.4869 0.0
O86 O 0.77557 0.16301 0.48526 0.0
O87 O 0.74898 0.13443 0.49994 0.0
Sc88 Sc 0.01308 0.81419 0.31842 0.0
Sc89 Sc 0.00873 0.88119 0.3147 0.0
Sc90 Sc 0.00822 0.8495 0.37924 0.0
O91 O 0.00999 0.84827 0.33746 0.0
C92 C 0.97442 0.80218 0.3677 0.0
C93 C 0.97607 0.84517 0.27963 0.0
C94 C 0.96903 0.89299 0.36267 0.0
C95 C 0.04987 0.84856 0.28181 0.0
C96 C 0.04811 0.80482 0.36932 0.0
C97 C 0.04282 0.89628 0.36361 0.0
O98 O 0.98392 0.79796 0.34397 0.0
O99 O 0.98243 0.8669 0.28731 0.0
O100 O 0.97806 0.87696 0.37977 0.0
O101 O 0.04265 0.82698 0.29094 0.0
O102 O 0.03828 0.82243 0.38365 0.0
O103 O 0.03505 0.89935 0.33941 0.0
O104 O 0.04078 0.79956 0.34567 0.0
O105 O 0.0392 0.86939 0.28843 0.0
O106 O 0.0348 0.87915 0.38029 0.0
O107 O 0.98571 0.82452 0.28877 0.0
O108 O 0.98149 0.81987 0.38271 0.0
O109 O 0.97802 0.89647 0.33848 0.0
Sc110 Sc 0.01711 0.17788 0.80264 0.0
Sc111 Sc 0.02361 0.11115 0.80342 0.0
Sc112 Sc 0.01831 0.14343 0.86596 0.0
O113 O 0.01969 0.14418 0.82405 0.0
C114 C 0.05192 0.19145 0.85151 0.0
C115 C 0.05816 0.14779 0.76688 0.0
C116 C 0.05935 0.10042 0.85317 0.0
C117 C 0.98426 0.14225 0.76754 0.0
C118 C 0.97844 0.18718 0.85254 0.0
C119 C 0.98572 0.09575 0.85243 0.0
O120 O 0.04389 0.19501 0.82746 0.0
O121 O 0.05194 0.12591 0.77596 0.0
O122 O 0.04867 0.11638 0.86901 0.0
O123 O 0.99003 0.16404 0.7757 0.0
O124 O 0.9878 0.17021 0.8683 0.0
O125 O 0.99575 0.09271 0.82874 0.0
O126 O 0.98699 0.19197 0.82839 0.0
O127 O 0.9951 0.12179 0.77545 0.0
O128 O 0.99188 0.11323 0.86827 0.0
O129 O 0.04698 0.16815 0.77417 0.0
O130 O 0.04436 0.17381 0.86792 0.0
O131 O 0.05253 0.09673 0.82895 0.0
Sc132 Sc 0.52382 0.32326 0.3221 0.0
Sc133 Sc 0.52227 0.39028 0.32509 0.0
Sc134 Sc 0.51738 0.35321 0.38609 0.0
O135 O 0.52111 0.35556 0.3444 0.0
C136 C 0.48288 0.3085 0.36785 0.0
C137 C 0.49013 0.35945 0.28431 0.0
C138 C 0.48052 0.39944 0.3719 0.0
C139 C 0.56337 0.35851 0.29099 0.0
C140 C 0.55641 0.30843 0.37396 0.0
C141 C 0.55425 0.39949 0.37734 0.0
O142 O 0.49282 0.30641 0.34397 0.0
O143 O 0.49659 0.37994 0.29501 0.0
O144 O 0.48753 0.38088 0.3872 0.0
O145 O 0.55509 0.33673 0.29785 0.0
O146 O 0.54682 0.32542 0.3893 0.0
O147 O 0.54835 0.40446 0.35275 0.0
O148 O 0.54953 0.305 0.34965 0.0
O149 O 0.55317 0.37918 0.29892 0.0
O150 O 0.54426 0.38197 0.39204 0.0
O151 O 0.49862 0.33766 0.29168 0.0
O152 O 0.49019 0.32409 0.38518 0.0
O153 O 0.49151 0.40536 0.34922 0.0
Sc154 Sc 0.51637 0.68436 0.82559 0.0
Sc155 Sc 0.51962 0.61744 0.82357 0.0
Sc156 Sc 0.51666 0.64763 0.8874 0.0
O157 O 0.51753 0.64983 0.84554 0.0
C158 C 0.55157 0.69504 0.87508 0.0
C159 C 0.55614 0.65367 0.78885 0.0
C160 C 0.55594 0.60365 0.87224 0.0
C161 C 0.48216 0.65183 0.78855 0.0
C162 C 0.47763 0.69265 0.87566 0.0
C163 C 0.48198 0.60179 0.87252 0.0
O164 O 0.54359 0.69981 0.85122 0.0
O165 O 0.54864 0.63186 0.79676 0.0
O166 O 0.54676 0.62006 0.88861 0.0
O167 O 0.48906 0.67287 0.79762 0.0
O168 O 0.48661 0.67496 0.89086 0.0
O169 O 0.491 0.59951 0.84826 0.0
O170 O 0.48649 0.6982 0.8518 0.0
O171 O 0.49167 0.63053 0.79593 0.0
O172 O 0.48951 0.61809 0.889 0.0
O173 O 0.54608 0.67431 0.79707 0.0
O174 O 0.54349 0.677 0.89056 0.0
O175 O 0.54777 0.6005 0.84848 0.0
H176 H 0.22026 0.34288 0.93223 0.0
H177 H 0.19774 0.30838 0.91244 0.0
H178 H 0.13049 0.35337 0.91898 0.0
H179 H 0.15307 0.38826 0.93752 0.0
H180 H 0.16265 0.28044 0.93349 0.0
H181 H 0.12636 0.33098 0.84218 0.0
H182 H 0.14952 0.34441 0.86273 0.0
H183 H 0.11737 0.34729 0.87287 0.0
C184 C 0.20073 0.34552 0.92906 0.0
C185 C 0.18847 0.36836 0.9362 0.0
C186 C 0.18787 0.32578 0.91781 0.0
C187 C 0.16247 0.32839 0.91371 0.0
C188 C 0.15019 0.35114 0.92106 0.0
H189 H 0.05977 0.20557 0.90404 0.0
H190 H 0.08809 0.23761 0.91875 0.0
C191 C 0.16311 0.37104 0.93185 0.0
C192 C 0.14856 0.30693 0.90306 0.0
H193 H 0.10631 0.29231 0.85608 0.0
C194 C 0.15055 0.28296 0.91634 0.0
C195 C 0.13311 0.31 0.88035 0.0
C196 C 0.13168 0.3345 0.86354 0.0
C197 C 0.137 0.26223 0.90808 0.0
C198 C 0.12028 0.26579 0.88659 0.0
C199 C 0.11884 0.28958 0.87282 0.0
C200 C 0.10394 0.24533 0.87804 0.0
C201 C 0.14112 0.23668 0.92224 0.0
C202 C 0.10287 0.23938 0.85017 0.0
C203 C 0.08621 0.22161 0.84165 0.0
C204 C 0.07047 0.20914 0.86086 0.0
C205 C 0.0719 0.21464 0.88882 0.0
C206 C 0.08823 0.23284 0.89727 0.0
H207 H 0.15981 0.23505 0.93075 0.0
H208 H 0.12757 0.23455 0.93967 0.0
H209 H 0.13888 0.22082 0.90801 0.0
H210 H 0.11475 0.24874 0.83491 0.0
H211 H 0.0856 0.21768 0.81997 0.0
H212 H 0.77972 0.67669 0.44366 0.0
H213 H 0.81118 0.70334 0.42119 0.0
H214 H 0.86556 0.67109 0.47519 0.0
H215 H 0.83438 0.64397 0.49734 0.0
H216 H 0.83901 0.7396 0.44248 0.0
H217 H 0.89936 0.6626 0.40052 0.0
H218 H 0.86858 0.65699 0.41407 0.0
H219 H 0.89372 0.65921 0.43692 0.0
C220 C 0.79841 0.67517 0.45067 0.0
C221 C 0.80459 0.65811 0.47218 0.0
C222 C 0.81635 0.69042 0.43781 0.0
C223 C 0.8408 0.68887 0.44619 0.0
C224 C 0.84695 0.67212 0.46792 0.0
H225 H 0.95341 0.80083 0.41959 0.0
H226 H 0.92042 0.77368 0.43738 0.0
C227 C 0.82906 0.65676 0.48068 0.0
C228 C 0.8597 0.70538 0.4328 0.0
H229 H 0.91619 0.70417 0.39991 0.0
C230 C 0.85581 0.73186 0.43299 0.0
C231 C 0.88142 0.69523 0.42003 0.0
C232 C 0.88595 0.66695 0.41758 0.0
C233 C 0.87336 0.74851 0.42143 0.0
C234 C 0.89563 0.73839 0.40992 0.0
C235 C 0.89922 0.7119 0.40904 0.0
C236 C 0.91559 0.75494 0.39898 0.0
C237 C 0.86773 0.77675 0.4214 0.0
C238 C 0.92435 0.7529 0.37168 0.0
C239 C 0.94347 0.76819 0.36147 0.0
C240 C 0.95421 0.78582 0.37843 0.0
C241 C 0.94545 0.78765 0.40585 0.0
C242 C 0.92646 0.77225 0.41605 0.0
H243 H 0.8476 0.78082 0.42317 0.0
H244 H 0.87633 0.78517 0.43928 0.0
H245 H 0.87519 0.78631 0.40239 0.0
H246 H 0.91631 0.73953 0.35821 0.0
H247 H 0.94972 0.76626 0.34027 0.0
H248 H 0.83302 0.3427 0.97804 0.0
H249 H 0.86485 0.31669 0.9549 0.0
H250 H 0.8092 0.27947 0.91048 0.0
H251 H 0.77718 0.30495 0.93409 0.0
H252 H 0.84161 0.24569 0.9316 0.0
H253 H 0.89227 0.32316 0.87712 0.0
H254 H 0.88939 0.32777 0.91345 0.0
H255 H 0.86223 0.32816 0.89329 0.0
C256 C 0.82756 0.3291 0.96321 0.0
C257 C 0.80258 0.32593 0.95785 0.0
C258 C 0.8458 0.31437 0.94985 0.0
C259 C 0.83945 0.29646 0.93057 0.0
C260 C 0.81453 0.29328 0.92517 0.0
H261 H 0.94882 0.22046 0.82369 0.0
H262 H 0.91387 0.24594 0.84143 0.0
C263 C 0.79625 0.30786 0.93867 0.0
C264 C 0.85872 0.28027 0.91697 0.0
H265 H 0.91281 0.28246 0.8793 0.0
C266 C 0.85707 0.25373 0.91996 0.0
C267 C 0.87868 0.29075 0.90141 0.0
C268 C 0.88066 0.31901 0.89586 0.0
C269 C 0.87519 0.23738 0.90849 0.0
C270 C 0.89584 0.2479 0.89422 0.0
C271 C 0.89712 0.27442 0.89053 0.0
C272 C 0.91652 0.2318 0.88336 0.0
C273 C 0.87188 0.20902 0.91156 0.0
C274 C 0.92974 0.21552 0.90107 0.0
C275 C 0.9496 0.20079 0.891 0.0
C276 C 0.95691 0.20232 0.86302 0.0
C277 C 0.94373 0.2188 0.84534 0.0
C278 C 0.92374 0.23339 0.85543 0.0
H279 H 0.85219 0.20427 0.91509 0.0
H280 H 0.87911 0.19901 0.89307 0.0
H281 H 0.88206 0.20168 0.92957 0.0
H282 H 0.92493 0.21448 0.92283 0.0
H283 H 0.95945 0.18852 0.90527 0.0
H284 H 0.24755 0.70075 0.46284 0.0
H285 H 0.21465 0.72709 0.44302 0.0
H286 H 0.16331 0.66677 0.45951 0.0
H287 H 0.19593 0.64057 0.48 0.0
H288 H 0.18606 0.71981 0.39963 0.0
H289 H 0.1277 0.7265 0.49484 0.0
H290 H 0.15901 0.71435 0.49483 0.0
H291 H 0.13447 0.69429 0.48535 0.0
C292 C 0.22925 0.69309 0.46229 0.0
C293 C 0.2243 0.66864 0.47319 0.0
C294 C 0.21048 0.70817 0.45094 0.0
C295 C 0.18642 0.69909 0.45026 0.0
C296 C 0.18158 0.67443 0.46047 0.0
H297 H 0.06927 0.7608 0.3497 0.0
H298 H 0.10317 0.7357 0.369 0.0
C299 C 0.20029 0.65941 0.47202 0.0
C300 C 0.16649 0.71534 0.43859 0.0
H301 H 0.10962 0.74138 0.45344 0.0
C302 C 0.16938 0.72463 0.41142 0.0
C303 C 0.14493 0.72196 0.45415 0.0
C304 C 0.14139 0.71398 0.48399 0.0
C305 C 0.1511 0.73998 0.39921 0.0
C306 C 0.12908 0.74568 0.41439 0.0
C307 C 0.12639 0.73677 0.44172 0.0
C308 C 0.10864 0.76102 0.40246 0.0
C309 C 0.15577 0.75032 0.37035 0.0
C310 C 0.09996 0.78323 0.41529 0.0
C311 C 0.08033 0.79746 0.40454 0.0
C312 C 0.06898 0.78976 0.38069 0.0
C313 C 0.0777 0.76743 0.36794 0.0
C314 C 0.09721 0.75312 0.37885 0.0
H315 H 0.17577 0.75057 0.36481 0.0
H316 H 0.14686 0.73796 0.35567 0.0
H317 H 0.14801 0.76992 0.36782 0.0
H318 H 0.10844 0.78962 0.43362 0.0
H319 H 0.07415 0.81455 0.41489 0.0
H320 H 0.69311 0.85662 0.98294 0.0
H321 H 0.66066 0.83006 0.96643 0.0
H322 H 0.71514 0.78495 0.92189 0.0
H323 H 0.74777 0.81093 0.93901 0.0
H324 H 0.64591 0.82077 0.91605 0.0
H325 H 0.67869 0.73047 0.96491 0.0
H326 H 0.69095 0.76089 0.97289 0.0
H327 H 0.70159 0.74473 0.94244 0.0
C328 C 0.6982 0.84104 0.96962 0.0
C329 C 0.72304 0.83575 0.96246 0.0
C330 C 0.67962 0.82587 0.96021 0.0
C331 C 0.68548 0.80516 0.94339 0.0
C332 C 0.71021 0.80035 0.93549 0.0
H333 H 0.5808 0.72809 0.84522 0.0
H334 H 0.61301 0.75474 0.86186 0.0
C335 C 0.72883 0.81535 0.94512 0.0
C336 C 0.66567 0.78883 0.93393 0.0
H337 H 0.647 0.72728 0.93273 0.0
C338 C 0.64609 0.80034 0.91979 0.0
C339 C 0.66567 0.76221 0.93924 0.0
C340 C 0.68521 0.74886 0.95594 0.0
C341 C 0.62675 0.78596 0.91045 0.0
C342 C 0.62733 0.75921 0.91469 0.0
C343 C 0.6467 0.74774 0.9292 0.0
C344 C 0.60793 0.74276 0.90449 0.0
C345 C 0.60563 0.7997 0.89668 0.0
C346 C 0.59493 0.72641 0.92273 0.0
C347 C 0.57674 0.71079 0.91321 0.0
C348 C 0.57112 0.71127 0.88522 0.0
C349 C 0.58439 0.72747 0.86696 0.0
C350 C 0.60274 0.74286 0.87647 0.0
H351 H 0.60421 0.81998 0.9025 0.0
H352 H 0.60872 0.79921 0.87407 0.0
H353 H 0.58783 0.79055 0.90208 0.0
H354 H 0.59872 0.72588 0.94443 0.0
H355 H 0.56691 0.69854 0.92784 0.0
H356 H 0.28132 0.18679 0.42166 0.0
H357 H 0.31468 0.21352 0.40354 0.0
H358 H 0.36572 0.17301 0.45564 0.0
H359 H 0.33262 0.14582 0.47338 0.0
H360 H 0.3432 0.2456 0.43015 0.0
H361 H 0.40176 0.17051 0.38167 0.0
H362 H 0.37037 0.16518 0.39329 0.0
H363 H 0.39479 0.16382 0.41735 0.0
C364 C 0.29968 0.18347 0.42915 0.0
C365 C 0.30435 0.16409 0.44886 0.0
C366 C 0.31871 0.19876 0.41877 0.0
C367 C 0.34277 0.19498 0.42788 0.0
C368 C 0.34744 0.17585 0.44779 0.0
H369 H 0.46039 0.30287 0.41873 0.0
H370 H 0.42601 0.27572 0.43215 0.0
C371 C 0.32845 0.16043 0.45805 0.0
C372 C 0.36279 0.21164 0.41728 0.0
H373 H 0.42022 0.21084 0.38657 0.0
C374 C 0.35997 0.23802 0.42045 0.0
C375 C 0.3845 0.20177 0.40423 0.0
C376 C 0.38798 0.1738 0.39865 0.0
C377 C 0.37853 0.25475 0.41155 0.0
C378 C 0.40073 0.24475 0.39975 0.0
C379 C 0.4033 0.21844 0.39592 0.0
C380 C 0.42163 0.26122 0.39149 0.0
C381 C 0.37403 0.28298 0.41461 0.0
C382 C 0.4311 0.26152 0.36432 0.0
C383 C 0.45101 0.27683 0.35659 0.0
C384 C 0.46184 0.29211 0.37594 0.0
C385 C 0.4524 0.29155 0.40321 0.0
C386 C 0.43261 0.27614 0.41092 0.0
H387 H 0.35403 0.28785 0.41612 0.0
H388 H 0.3824 0.28909 0.43375 0.0
H389 H 0.38243 0.29395 0.39704 0.0
H390 H 0.42298 0.25002 0.34904 0.0
H391 H 0.45779 0.27676 0.33543 0.0
H392 H 0.31781 0.83884 0.99593 0.0
H393 H 0.35254 0.81485 0.97555 0.0
H394 H 0.30284 0.77469 0.92584 0.0
H395 H 0.26787 0.79817 0.94667 0.0
H396 H 0.33585 0.74275 0.94946 0.0
H397 H 0.38439 0.82428 0.90001 0.0
H398 H 0.37874 0.8282 0.93616 0.0
H399 H 0.3532 0.82697 0.91371 0.0
C400 C 0.31426 0.82501 0.98054 0.0
C401 C 0.29009 0.82048 0.97283 0.0
C402 C 0.33416 0.81143 0.96878 0.0
C403 C 0.33034 0.79333 0.94878 0.0
C404 C 0.30622 0.78868 0.94112 0.0
H405 H 0.44808 0.72596 0.84692 0.0
H406 H 0.41168 0.7495 0.86403 0.0
C407 C 0.28627 0.80213 0.95303 0.0
C408 C 0.35141 0.77862 0.93658 0.0
H409 H 0.40713 0.78495 0.90286 0.0
C410 C 0.35137 0.75196 0.9391 0.0
C411 C 0.37147 0.79063 0.92269 0.0
C412 C 0.3719 0.81908 0.9177 0.0
C413 C 0.37109 0.737 0.92867 0.0
C414 C 0.39169 0.74909 0.91599 0.0
C415 C 0.39147 0.77572 0.91289 0.0
C416 C 0.41364 0.7345 0.90571 0.0
C417 C 0.36947 0.7084 0.931 0.0
C418 C 0.42703 0.71848 0.92354 0.0
C419 C 0.44776 0.70484 0.91379 0.0
C420 C 0.45574 0.70725 0.88608 0.0
C421 C 0.4425 0.72366 0.86839 0.0
C422 C 0.42167 0.73713 0.87812 0.0
H423 H 0.35007 0.7023 0.93348 0.0
H424 H 0.37801 0.69922 0.91264 0.0
H425 H 0.37938 0.70142 0.94936 0.0
H426 H 0.42157 0.71667 0.94507 0.0
H427 H 0.45762 0.69257 0.92806 0.0
H428 H 0.75539 0.20353 0.46436 0.0
H429 H 0.72172 0.229 0.44491 0.0
H430 H 0.67228 0.16688 0.46073 0.0
H431 H 0.70567 0.14155 0.48091 0.0
H432 H 0.69346 0.22126 0.40146 0.0
H433 H 0.63481 0.22497 0.49673 0.0
H434 H 0.66643 0.21374 0.4966 0.0
H435 H 0.6425 0.19312 0.48661 0.0
C436 C 0.73734 0.19531 0.46376 0.0
C437 C 0.73315 0.1706 0.47439 0.0
C438 C 0.71812 0.20988 0.45261 0.0
C439 C 0.69438 0.20002 0.45181 0.0
C440 C 0.69029 0.17512 0.46178 0.0
H441 H 0.57653 0.26459 0.35252 0.0
H442 H 0.60994 0.23801 0.37089 0.0
C443 C 0.70944 0.16062 0.47316 0.0
C444 C 0.67399 0.21575 0.44034 0.0
H445 H 0.6167 0.24048 0.45572 0.0
C446 C 0.67669 0.22553 0.41333 0.0
C447 C 0.65228 0.2216 0.45599 0.0
C448 C 0.64887 0.21304 0.48567 0.0
C449 C 0.65818 0.24081 0.40145 0.0
C450 C 0.63611 0.24592 0.4168 0.0
C451 C 0.63351 0.23631 0.44388 0.0
C452 C 0.61576 0.26185 0.40553 0.0
C453 C 0.66273 0.25185 0.37287 0.0
C454 C 0.60742 0.28366 0.41934 0.0
C455 C 0.58809 0.29867 0.40915 0.0
C456 C 0.57671 0.29221 0.38485 0.0
C457 C 0.58501 0.27024 0.37114 0.0
C458 C 0.60423 0.2551 0.38151 0.0
H459 H 0.6827 0.25211 0.36715 0.0
H460 H 0.65362 0.23997 0.35789 0.0
H461 H 0.65507 0.27156 0.371 0.0
H462 H 0.61599 0.28918 0.43796 0.0
H463 H 0.58225 0.31547 0.42023 0.0
H464 H 0.27788 0.49437 0.94186 0.0
H465 H 0.31289 0.51999 0.92609 0.0
H466 H 0.3619 0.45535 0.9387 0.0
H467 H 0.32694 0.42971 0.95465 0.0
H468 H 0.37963 0.49798 0.95999 0.0
H469 H 0.35093 0.51858 0.85357 0.0
H470 H 0.32794 0.52791 0.87886 0.0
H471 H 0.33635 0.49479 0.87555 0.0
C472 C 0.29611 0.48558 0.94106 0.0
C473 C 0.29974 0.46014 0.94989 0.0
C474 C 0.31608 0.50021 0.93194 0.0
C475 C 0.34001 0.48953 0.93093 0.0
C476 C 0.34362 0.46402 0.9394 0.0
H477 H 0.46567 0.55993 0.84693 0.0
H478 H 0.43211 0.5322 0.86184 0.0
C479 C 0.32366 0.44944 0.94872 0.0
C480 C 0.36136 0.5052 0.92195 0.0
H481 H 0.38388 0.54298 0.86925 0.0
C482 C 0.38064 0.50771 0.94009 0.0
C483 C 0.36283 0.51761 0.89583 0.0
C484 C 0.34354 0.51441 0.87472 0.0
C485 C 0.40112 0.52264 0.93303 0.0
C486 C 0.40207 0.53593 0.90738 0.0
C487 C 0.38301 0.53304 0.88905 0.0
C488 C 0.42283 0.55261 0.8989 0.0
C489 C 0.42172 0.52364 0.95293 0.0
C490 C 0.4287 0.57347 0.91468 0.0
C491 C 0.44806 0.5893 0.90633 0.0
C492 C 0.46172 0.5848 0.88179 0.0
C493 C 0.45559 0.56401 0.86592 0.0
C494 C 0.43637 0.54811 0.87441 0.0
H495 H 0.42159 0.507 0.96748 0.0
H496 H 0.43995 0.52418 0.94195 0.0
H497 H 0.41938 0.54108 0.96517 0.0
H498 H 0.41811 0.57771 0.9333 0.0
H499 H 0.45208 0.60526 0.91892 0.0
H500 H 0.73757 0.52175 0.4745 0.0
H501 H 0.71188 0.49565 0.44645 0.0
H502 H 0.64668 0.52552 0.48832 0.0
H503 H 0.67198 0.55184 0.51593 0.0
H504 H 0.67972 0.45825 0.46358 0.0
H505 H 0.62984 0.53565 0.4082 0.0
H506 H 0.65733 0.54105 0.42678 0.0
H507 H 0.62788 0.53925 0.44472 0.0
C508 C 0.71775 0.52291 0.47753 0.0
C509 C 0.70681 0.53896 0.49735 0.0
C510 C 0.70312 0.50798 0.46153 0.0
C511 C 0.67736 0.50899 0.46499 0.0
C512 C 0.66647 0.52492 0.48483 0.0
H513 H 0.56792 0.40002 0.43096 0.0
H514 H 0.59953 0.42576 0.45039 0.0
C515 C 0.68101 0.53984 0.50074 0.0
C516 C 0.66173 0.49265 0.44887 0.0
H517 H 0.61169 0.49447 0.40844 0.0
C518 C 0.66503 0.46614 0.45123 0.0
C519 C 0.64283 0.50299 0.43243 0.0
C520 C 0.6394 0.5313 0.42762 0.0
C521 C 0.64924 0.44966 0.43851 0.0
C522 C 0.62935 0.46002 0.42356 0.0
C523 C 0.62672 0.48653 0.42024 0.0
C524 C 0.61072 0.4438 0.41163 0.0
C525 C 0.65405 0.42134 0.4412 0.0
C526 C 0.60605 0.44589 0.38352 0.0
C527 C 0.58775 0.43148 0.3724 0.0
C528 C 0.57371 0.41468 0.3892 0.0
C529 C 0.57847 0.41262 0.41738 0.0
C530 C 0.59668 0.42718 0.42851 0.0
H531 H 0.67365 0.41691 0.44553 0.0
H532 H 0.6426 0.41351 0.45859 0.0
H533 H 0.64928 0.41154 0.42225 0.0
H534 H 0.61657 0.45871 0.37017 0.0
H535 H 0.58466 0.43351 0.3506 0.0
H536 H 0.70777 0.42219 0.93159 0.0
H537 H 0.68119 0.45431 0.90976 0.0
H538 H 0.70713 0.51103 0.96354 0.0
H539 H 0.73423 0.47922 0.98497 0.0
H540 H 0.64394 0.47817 0.93667 0.0
H541 H 0.7072 0.55034 0.89141 0.0
H542 H 0.71775 0.51899 0.90233 0.0
H543 H 0.71228 0.54349 0.92705 0.0
C544 C 0.70827 0.44163 0.93834 0.0
C545 C 0.72306 0.44812 0.9601 0.0
C546 C 0.69304 0.45997 0.92586 0.0
C547 C 0.69226 0.48512 0.93488 0.0
C548 C 0.70779 0.4919 0.9558 0.0
H549 H 0.58212 0.60655 0.9193 0.0
H550 H 0.61609 0.57846 0.934 0.0
C551 C 0.7232 0.47362 0.96814 0.0
C552 C 0.67332 0.5034 0.92458 0.0
H553 H 0.66457 0.56272 0.89565 0.0
C554 C 0.64851 0.49655 0.92748 0.0
C555 C 0.67928 0.52745 0.91273 0.0
C556 C 0.70559 0.53544 0.90793 0.0
C557 C 0.62952 0.51319 0.91917 0.0
C558 C 0.63547 0.53727 0.90769 0.0
C559 C 0.66018 0.54423 0.90468 0.0
C560 C 0.61605 0.55512 0.89814 0.0
C561 C 0.60313 0.5051 0.92289 0.0
C562 C 0.60507 0.55127 0.87306 0.0
C563 C 0.58574 0.5672 0.86457 0.0
C564 C 0.57694 0.58726 0.88111 0.0
C565 C 0.58832 0.59124 0.90612 0.0
C566 C 0.60778 0.57532 0.91452 0.0
H567 H 0.60145 0.48687 0.93479 0.0
H568 H 0.59199 0.52005 0.93358 0.0
H569 H 0.59521 0.50273 0.90244 0.0
H570 H 0.61127 0.53571 0.86022 0.0
H571 H 0.5775 0.56354 0.84518 0.0
H572 H 0.32383 0.57509 0.44119 0.0
H573 H 0.35056 0.54444 0.41685 0.0
H574 H 0.3316 0.48629 0.47745 0.0
H575 H 0.30496 0.5167 0.502 0.0
H576 H 0.3828 0.49571 0.47016 0.0
H577 H 0.33893 0.48077 0.37063 0.0
H578 H 0.3418 0.51336 0.38016 0.0
H579 H 0.322 0.49275 0.40033 0.0
C580 C 0.32488 0.55563 0.44901 0.0
C581 C 0.3124 0.54842 0.47369 0.0
C582 C 0.34009 0.53811 0.43498 0.0
C583 C 0.34296 0.51309 0.44531 0.0
C584 C 0.32957 0.50551 0.46913 0.0
H585 H 0.44819 0.38949 0.41499 0.0
H586 H 0.41393 0.41635 0.43169 0.0
C587 C 0.31434 0.52295 0.48312 0.0
C588 C 0.36204 0.49575 0.43333 0.0
H589 H 0.37942 0.4637 0.37552 0.0
C590 C 0.38199 0.48855 0.44953 0.0
C591 C 0.36103 0.48676 0.40632 0.0
C592 C 0.33972 0.4936 0.38833 0.0
C593 C 0.40118 0.47281 0.43938 0.0
C594 C 0.40007 0.46348 0.41248 0.0
C595 C 0.38015 0.47077 0.39618 0.0
C596 C 0.4196 0.44632 0.40098 0.0
C597 C 0.42278 0.46688 0.45733 0.0
C598 C 0.43353 0.45379 0.37749 0.0
C599 C 0.45303 0.43836 0.36769 0.0
C600 C 0.45897 0.41516 0.38124 0.0
C601 C 0.4444 0.40738 0.40425 0.0
C602 C 0.42482 0.42274 0.4139 0.0
H603 H 0.42403 0.48087 0.4739 0.0
H604 H 0.42052 0.44778 0.46719 0.0
H605 H 0.44038 0.46675 0.44505 0.0
H606 H 0.4297 0.47187 0.36714 0.0
H607 H 0.46377 0.44491 0.34985 0.0
H608 H 0.86297 0.90042 0.92265 0.0
H609 H 0.88791 0.93504 0.90344 0.0
H610 H 0.83243 0.98973 0.9301 0.0
H611 H 0.80715 0.95518 0.94937 0.0
H612 H 0.8553 0.99976 0.87559 0.0
H613 H 0.92263 0.98188 0.95751 0.0
H614 H 0.91558 0.9544 0.93832 0.0
H615 H 0.89197 0.96931 0.95947 0.0
C616 C 0.85581 0.91976 0.92407 0.0
C617 C 0.83316 0.92503 0.93786 0.0
C618 C 0.87016 0.93952 0.91317 0.0
C619 C 0.8622 0.96491 0.91586 0.0
C620 C 0.83894 0.97023 0.928 0.0
H621 H 0.96085 0.09365 0.9025 0.0
H622 H 0.92906 0.06375 0.91785 0.0
C623 C 0.82452 0.95044 0.93896 0.0
C624 C 0.87886 0.98584 0.90753 0.0
H625 H 0.93417 0.0111 0.92173 0.0
C626 C 0.87249 0.00237 0.88571 0.0
C627 C 0.90105 0.98942 0.92113 0.0
C628 C 0.9082 0.97299 0.94558 0.0
C629 C 0.8882 0.02194 0.87655 0.0
C630 C 0.91089 0.0248 0.88941 0.0
C631 C 0.91685 0.00875 0.91177 0.0
C632 C 0.92913 0.0438 0.87957 0.0
C633 C 0.88032 0.03944 0.85328 0.0
C634 C 0.93983 0.04236 0.85305 0.0
C635 C 0.95803 0.05934 0.84422 0.0
C636 C 0.96603 0.07808 0.86181 0.0
C637 C 0.95517 0.07951 0.88838 0.0
C638 C 0.93697 0.06246 0.8972 0.0
H639 H 0.86007 0.03938 0.85092 0.0
H640 H 0.88599 0.05927 0.85655 0.0
H641 H 0.88925 0.03294 0.8338 0.0
H642 H 0.93445 0.02776 0.83931 0.0
H643 H 0.96596 0.05758 0.82364 0.0
H644 H 0.16555 0.0566 0.48616 0.0
H645 H 0.13913 0.02913 0.46124 0.0
H646 H 0.20241 0.99969 0.41548 0.0
H647 H 0.22926 0.02683 0.44093 0.0
H648 H 0.13057 0.02591 0.40663 0.0
H649 H 0.17135 0.93521 0.44741 0.0
H650 H 0.17789 0.96567 0.46138 0.0
H651 H 0.19272 0.95598 0.42969 0.0
C652 C 0.17393 0.04435 0.47076 0.0
C653 C 0.19956 0.04374 0.4657 0.0
C654 C 0.15875 0.02868 0.45649 0.0
C655 C 0.16883 0.01209 0.43681 0.0
C656 C 0.19432 0.01197 0.43101 0.0
H657 H 0.07056 0.9298 0.33231 0.0
H658 H 0.10245 0.95766 0.34772 0.0
C659 C 0.20961 0.02759 0.44544 0.0
C660 C 0.15241 0.99474 0.42294 0.0
H661 H 0.13934 0.93203 0.4164 0.0
C662 C 0.13256 0.00537 0.40857 0.0
C663 C 0.15493 0.96797 0.42581 0.0
C664 C 0.17522 0.95544 0.44209 0.0
C665 C 0.11484 0.98999 0.39746 0.0
C666 C 0.11739 0.96321 0.40028 0.0
C667 C 0.13752 0.95257 0.41415 0.0
C668 C 0.09858 0.94592 0.39053 0.0
C669 C 0.09302 0.00259 0.38386 0.0
C670 C 0.08631 0.92955 0.40935 0.0
C671 C 0.06829 0.9134 0.4006 0.0
C672 C 0.0621 0.91332 0.3728 0.0
C673 C 0.07464 0.92957 0.35392 0.0
C674 C 0.09282 0.9456 0.36269 0.0
H675 H 0.09077 0.02292 0.38929 0.0
H676 H 0.09577 0.00175 0.36123 0.0
H677 H 0.07575 0.99267 0.38979 0.0
H678 H 0.09051 0.92946 0.43093 0.0
H679 H 0.05906 0.90114 0.41571 0.0
H680 H 0.24056 0.96149 0.95249 0.0
H681 H 0.21734 0.99427 0.92693 0.0
H682 H 0.15202 0.94929 0.9363 0.0
H683 H 0.17523 0.91615 0.96058 0.0
H684 H 0.15478 0.96978 0.88696 0.0
H685 H 0.17097 0.04474 0.96202 0.0
H686 H 0.19866 0.03192 0.94617 0.0
H687 H 0.17968 0.01187 0.9682 0.0
C688 C 0.2213 0.95853 0.94883 0.0
C689 C 0.20971 0.9363 0.95871 0.0
C690 C 0.208 0.97738 0.93445 0.0
C691 C 0.18276 0.97457 0.93029 0.0
C692 C 0.17143 0.95198 0.93933 0.0
H693 H 0.06817 0.087 0.90652 0.0
H694 H 0.09993 0.05746 0.92337 0.0
C695 C 0.18477 0.93301 0.95324 0.0
C696 C 0.16773 0.99511 0.91705 0.0
H697 H 0.14824 0.05698 0.92329 0.0
C698 C 0.15341 0.98889 0.89484 0.0
C699 C 0.16572 0.01996 0.92757 0.0
C700 C 0.17938 0.02752 0.95245 0.0
C701 C 0.13669 0.00652 0.88333 0.0
C702 C 0.13496 0.0315 0.89356 0.0
C703 C 0.14971 0.03792 0.91533 0.0
C704 C 0.11681 0.0507 0.88322 0.0
C705 C 0.12025 0.99772 0.86126 0.0
C706 C 0.1161 0.05731 0.85514 0.0
C707 C 0.09764 0.07379 0.8454 0.0
C708 C 0.07997 0.08455 0.86368 0.0
C709 C 0.08152 0.07902 0.89194 0.0
C710 C 0.09968 0.06213 0.90159 0.0
H711 H 0.11904 0.97664 0.86139 0.0
H712 H 0.10133 0.00593 0.86382 0.0
H713 H 0.12794 0.0039 0.84084 0.0
H714 H 0.12959 0.04943 0.84067 0.0
H715 H 0.09713 0.07802 0.82355 0.0
H716 H 0.84625 0.07592 0.45541 0.0
H717 H 0.86945 0.04363 0.43003 0.0
H718 H 0.80517 0.99691 0.43037 0.0
H719 H 0.78204 0.02885 0.4571 0.0
H720 H 0.84234 0.9694 0.44522 0.0
H721 H 0.87302 0.02345 0.35249 0.0
H722 H 0.88188 0.03976 0.38226 0.0
H723 H 0.84966 0.03582 0.37606 0.0
C724 C 0.83685 0.05902 0.44965 0.0
C725 C 0.81227 0.05496 0.45826 0.0
C726 C 0.85013 0.04059 0.43489 0.0
C727 C 0.83899 0.01798 0.42774 0.0
C728 C 0.81416 0.01425 0.43552 0.0
H729 H 0.93418 0.91519 0.33024 0.0
H730 H 0.89938 0.94266 0.34449 0.0
C731 C 0.80094 0.03253 0.45074 0.0
C732 C 0.85403 0.99738 0.41462 0.0
H733 H 0.89876 0.98683 0.36514 0.0
C734 C 0.85433 0.9731 0.42737 0.0
C735 C 0.86931 0.00187 0.39095 0.0
C736 C 0.86821 0.02658 0.37452 0.0
C737 C 0.87045 0.95369 0.41806 0.0
C738 C 0.88744 0.95901 0.39609 0.0
C739 C 0.88614 0.98282 0.38236 0.0
C740 C 0.90739 0.94069 0.38774 0.0
C741 C 0.86899 0.92775 0.43196 0.0
C742 C 0.92352 0.93037 0.40725 0.0
C743 C 0.94312 0.91426 0.39922 0.0
C744 C 0.94743 0.90875 0.37139 0.0
C745 C 0.93137 0.91917 0.35184 0.0
C746 C 0.91147 0.93486 0.35996 0.0
H747 H 0.85005 0.92414 0.44023 0.0
H748 H 0.87447 0.91237 0.41765 0.0
H749 H 0.88143 0.92685 0.44956 0.0
H750 H 0.92137 0.93526 0.42866 0.0
H751 H 0.95538 0.9068 0.4147 0.0
H752 H 0.38013 0.38723 0.05336 0.0
H753 H 0.40694 0.37466 0.09096 0.0
H754 H 0.34919 0.39484 0.14988 0.0
H755 H 0.32215 0.40694 0.11254 0.0
H756 H 0.4233 0.40419 0.13086 0.0
H757 H 0.37021 0.32482 0.17821 0.0
H758 H 0.36404 0.33803 0.1445 0.0
H759 H 0.352 0.35355 0.17476 0.0
C760 C 0.37307 0.3888 0.07432 0.0
C761 C 0.34898 0.39803 0.07996 0.0
C762 C 0.3884 0.38158 0.09577 0.0
C763 C 0.37991 0.38338 0.12321 0.0
C764 C 0.35591 0.39265 0.12887 0.0
H765 H 0.46414 0.40156 0.26666 0.0
H766 H 0.43783 0.40563 0.22722 0.0
C767 C 0.34054 0.39976 0.10747 0.0
C768 C 0.3966 0.37711 0.14596 0.0
H769 H 0.40139 0.342 0.20561 0.0
C770 C 0.41863 0.3904 0.14705 0.0
C771 C 0.39067 0.35884 0.16687 0.0
C772 C 0.36807 0.3428 0.16593 0.0
C773 C 0.43444 0.38661 0.16899 0.0
C774 C 0.42778 0.36946 0.19071 0.0
C775 C 0.40626 0.35542 0.18912 0.0
C776 C 0.44268 0.36638 0.21551 0.0
C777 C 0.45816 0.40101 0.16867 0.0
C778 C 0.4533 0.34266 0.2227 0.0
C779 C 0.46826 0.34016 0.24547 0.0
C780 C 0.47278 0.36137 0.26146 0.0
C781 C 0.46135 0.38488 0.25466 0.0
C782 C 0.44638 0.3873 0.23201 0.0
H783 H 0.46389 0.40732 0.14751 0.0
H784 H 0.45546 0.41823 0.18121 0.0
H785 H 0.47328 0.38918 0.17748 0.0
H786 H 0.45048 0.32622 0.21033 0.0
H787 H 0.47669 0.32176 0.25014 0.0
H788 H 0.73208 0.59574 0.62856 0.0
H789 H 0.70454 0.60939 0.6662 0.0
H790 H 0.68653 0.67833 0.62055 0.0
H791 H 0.71342 0.66436 0.58226 0.0
H792 H 0.69962 0.64965 0.6996 0.0
H793 H 0.61985 0.64694 0.63131 0.0
H794 H 0.65004 0.63505 0.62103 0.0
H795 H 0.64327 0.66871 0.62003 0.0
C796 C 0.72258 0.614 0.62664 0.0
C797 C 0.72462 0.62877 0.60222 0.0
C798 C 0.70682 0.62179 0.64822 0.0
C799 C 0.69297 0.64455 0.64588 0.0
C800 C 0.69648 0.66032 0.62244 0.0
H801 H 0.57129 0.69447 0.75684 0.0
H802 H 0.60592 0.69567 0.72321 0.0
C803 C 0.712 0.6524 0.60066 0.0
C804 C 0.67366 0.65059 0.66713 0.0
H805 H 0.61138 0.65784 0.67718 0.0
C806 C 0.68035 0.65167 0.69466 0.0
C807 C 0.64847 0.65307 0.66067 0.0
C808 C 0.63987 0.65067 0.63172 0.0
C809 C 0.66249 0.65466 0.71592 0.0
C810 C 0.6374 0.65664 0.70943 0.0
C811 C 0.63072 0.65648 0.68193 0.0
C812 C 0.61759 0.65663 0.73096 0.0
C813 C 0.67045 0.65524 0.74524 0.0
C814 C 0.61272 0.63421 0.74618 0.0
C815 C 0.59285 0.63333 0.76508 0.0
C816 C 0.57754 0.65494 0.76922 0.0
C817 C 0.58275 0.67753 0.7542 0.0
C818 C 0.6025 0.67828 0.73503 0.0
H819 H 0.69046 0.65876 0.74645 0.0
H820 H 0.65995 0.67019 0.75665 0.0
H821 H 0.66656 0.63663 0.75558 0.0
H822 H 0.62401 0.61723 0.74301 0.0
H823 H 0.58945 0.61567 0.77639 0.0
H824 H 0.72922 0.35508 0.09509 0.0
H825 H 0.70076 0.344 0.13344 0.0
H826 H 0.71317 0.41621 0.16985 0.0
H827 H 0.74164 0.42751 0.13178 0.0
H828 H 0.70638 0.34822 0.1986 0.0
H829 H 0.63653 0.41042 0.14718 0.0
H830 H 0.66253 0.39634 0.1286 0.0
H831 H 0.66688 0.42286 0.1502 0.0
C832 C 0.72632 0.36839 0.11154 0.0
C833 C 0.73746 0.39232 0.11021 0.0
C834 C 0.7101 0.36199 0.13343 0.0
C835 C 0.70483 0.3794 0.15422 0.0
C836 C 0.71704 0.40259 0.15386 0.0
H837 H 0.58995 0.40073 0.27718 0.0
H838 H 0.62542 0.40391 0.24539 0.0
C839 C 0.73327 0.409 0.13207 0.0
C840 C 0.68466 0.37469 0.17465 0.0
H841 H 0.62544 0.39299 0.19071 0.0
C842 C 0.68861 0.35785 0.19693 0.0
C843 C 0.6616 0.38733 0.17221 0.0
C844 C 0.6564 0.40517 0.14821 0.0
C845 C 0.67012 0.35384 0.2174 0.0
C846 C 0.64708 0.3667 0.21506 0.0
C847 C 0.64314 0.38323 0.19249 0.0
C848 C 0.62683 0.3639 0.23599 0.0
C849 C 0.6756 0.33651 0.24169 0.0
C850 C 0.61588 0.34029 0.24134 0.0
C851 C 0.59555 0.33835 0.25963 0.0
C852 C 0.58565 0.36008 0.27264 0.0
C853 C 0.59694 0.38361 0.26744 0.0
C854 C 0.61728 0.38549 0.2493 0.0
H855 H 0.69572 0.33317 0.24381 0.0
H856 H 0.66781 0.34458 0.26104 0.0
H857 H 0.66705 0.31784 0.2389 0.0
H858 H 0.62264 0.32349 0.23084 0.0
H859 H 0.58727 0.31995 0.26307 0.0
H860 H 0.30459 0.61006 0.63284 0.0
H861 H 0.33154 0.62069 0.66976 0.0
H862 H 0.3717 0.67123 0.61432 0.0
H863 H 0.3451 0.66042 0.57714 0.0
H864 H 0.40142 0.63614 0.63951 0.0
H865 H 0.33965 0.68247 0.71702 0.0
H866 H 0.32855 0.65254 0.70628 0.0
H867 H 0.33109 0.6787 0.68188 0.0
C868 C 0.31881 0.62386 0.62862 0.0
C869 C 0.32281 0.63425 0.60198 0.0
C870 C 0.33412 0.63004 0.64982 0.0
C871 C 0.35351 0.64691 0.64485 0.0
C872 C 0.3568 0.65821 0.61861 0.0
H873 H 0.45642 0.6931 0.76759 0.0
H874 H 0.42506 0.69329 0.7327 0.0
C875 C 0.34156 0.652 0.59739 0.0
C876 C 0.372 0.65046 0.666 0.0
H877 H 0.37894 0.66734 0.73247 0.0
C878 C 0.39654 0.64324 0.65973 0.0
C879 C 0.36564 0.65988 0.6923 0.0
C880 C 0.33984 0.66908 0.69973 0.0
C881 C 0.41475 0.64443 0.6793 0.0
C882 C 0.40817 0.65268 0.70599 0.0
C883 C 0.38383 0.66074 0.71205 0.0
C884 C 0.42632 0.6525 0.72795 0.0
C885 C 0.44089 0.63679 0.67124 0.0
C886 C 0.43703 0.62944 0.73714 0.0
C887 C 0.45494 0.62922 0.75701 0.0
C888 C 0.46246 0.65209 0.76817 0.0
C889 C 0.45121 0.67514 0.75935 0.0
C890 C 0.43323 0.67531 0.73947 0.0
H891 H 0.44406 0.63733 0.64858 0.0
H892 H 0.45423 0.64945 0.68052 0.0
H893 H 0.44467 0.61704 0.6788 0.0
H894 H 0.43162 0.61159 0.7288 0.0
H895 H 0.46302 0.61109 0.7634 0.0
H896 H 0.82367 0.88995 0.08936 0.0
H897 H 0.84584 0.88478 0.13198 0.0
H898 H 0.8697 0.80929 0.10908 0.0
H899 H 0.84749 0.81419 0.06625 0.0
H900 H 0.85395 0.81749 0.16892 0.0
H901 H 0.92381 0.88407 0.1247 0.0
H902 H 0.89224 0.89489 0.12335 0.0
H903 H 0.90257 0.86801 0.10374 0.0
C904 C 0.83328 0.87206 0.09352 0.0
C905 C 0.83409 0.8526 0.07422 0.0
C906 C 0.84594 0.86917 0.11789 0.0
C907 C 0.85962 0.84681 0.1234 0.0
C908 C 0.85926 0.82672 0.10507 0.0
H909 H 0.96216 0.8037 0.25126 0.0
H910 H 0.93263 0.80289 0.21455 0.0
C911 C 0.8466 0.82958 0.08062 0.0
C912 C 0.87595 0.8454 0.14705 0.0
H913 H 0.92807 0.87072 0.17088 0.0
C914 C 0.87021 0.82902 0.16943 0.0
C915 C 0.89713 0.86046 0.14745 0.0
C916 C 0.90453 0.87774 0.12348 0.0
C917 C 0.88489 0.82781 0.19267 0.0
C918 C 0.90602 0.84303 0.19313 0.0
C919 C 0.91181 0.85917 0.17054 0.0
C920 C 0.92245 0.84284 0.21679 0.0
C921 C 0.8773 0.81081 0.21676 0.0
C922 C 0.92675 0.86562 0.23001 0.0
C923 C 0.94381 0.86624 0.25073 0.0
C924 C 0.95699 0.84406 0.25867 0.0
C925 C 0.95227 0.82111 0.24576 0.0
C926 C 0.93525 0.82056 0.22489 0.0
H927 H 0.8576 0.80572 0.21617 0.0
H928 H 0.88852 0.79292 0.21617 0.0
H929 H 0.88044 0.82009 0.23651 0.0
H930 H 0.91712 0.88305 0.22401 0.0
H931 H 0.94683 0.88422 0.2603 0.0
H932 H 0.22946 0.09441 0.59731 0.0
H933 H 0.20304 0.10607 0.63671 0.0
H934 H 0.18458 0.17767 0.59643 0.0
H935 H 0.21039 0.1658 0.55644 0.0
H936 H 0.19964 0.1448 0.6729 0.0
H937 H 0.11778 0.14607 0.60743 0.0
H938 H 0.14759 0.1344 0.59548 0.0
H939 H 0.14112 0.16807 0.59648 0.0
C940 C 0.22009 0.11282 0.59695 0.0
C941 C 0.22171 0.12901 0.57353 0.0
C942 C 0.20498 0.11946 0.61953 0.0
C943 C 0.19134 0.14244 0.6192 0.0
C944 C 0.1944 0.15952 0.59677 0.0
H945 H 0.07167 0.18868 0.73405 0.0
H946 H 0.10557 0.19049 0.6996 0.0
C947 C 0.20929 0.15277 0.57401 0.0
C948 C 0.1727 0.14749 0.64147 0.0
H949 H 0.11077 0.1551 0.65407 0.0
C950 C 0.18023 0.14725 0.66877 0.0
C951 C 0.14734 0.15054 0.63605 0.0
C952 C 0.13787 0.14957 0.60733 0.0
C953 C 0.16304 0.14963 0.69079 0.0
C954 C 0.13774 0.15222 0.68533 0.0
C955 C 0.13025 0.15326 0.65808 0.0
C956 C 0.1185 0.15188 0.70754 0.0
C957 C 0.17197 0.14907 0.71977 0.0
C958 C 0.11455 0.12952 0.72321 0.0
C959 C 0.09511 0.1283 0.74266 0.0
C960 C 0.07925 0.14949 0.74685 0.0
C961 C 0.08355 0.17204 0.73139 0.0
C962 C 0.1029 0.17314 0.71173 0.0
H963 H 0.19192 0.15312 0.72032 0.0
H964 H 0.16151 0.16314 0.73247 0.0
H965 H 0.169 0.12989 0.72918 0.0
H966 H 0.12617 0.11278 0.71993 0.0
H967 H 0.09242 0.11066 0.75425 0.0
H968 H 0.22361 0.84709 0.09108 0.0
H969 H 0.19436 0.83386 0.12787 0.0
H970 H 0.19402 0.90935 0.16025 0.0
H971 H 0.22321 0.92282 0.12375 0.0
H972 H 0.19504 0.84507 0.19466 0.0
H973 H 0.12097 0.88773 0.13064 0.0
H974 H 0.1497 0.8757 0.11577 0.0
H975 H 0.14885 0.90525 0.13334 0.0
C976 C 0.21775 0.86074 0.10638 0.0
C977 C 0.22553 0.8861 0.10432 0.0
C978 C 0.20108 0.85312 0.12737 0.0
C979 C 0.19205 0.87071 0.14654 0.0
C980 C 0.20087 0.89556 0.14554 0.0
H981 H 0.07223 0.89114 0.26077 0.0
H982 H 0.1074 0.89361 0.22861 0.0
C983 C 0.21751 0.9032 0.12464 0.0
C984 C 0.17146 0.86418 0.16577 0.0
H985 H 0.1096 0.87401 0.17563 0.0
C986 C 0.17629 0.85109 0.19051 0.0
C987 C 0.14713 0.87212 0.16008 0.0
C988 C 0.14113 0.88588 0.13348 0.0
C989 C 0.15733 0.84654 0.2103 0.0
C990 C 0.13306 0.85506 0.20485 0.0
C991 C 0.12824 0.86752 0.17973 0.0
C992 C 0.11254 0.85286 0.2255 0.0
C993 C 0.16352 0.8336 0.23726 0.0
C994 C 0.10374 0.82905 0.23442 0.0
C995 C 0.08349 0.82751 0.25293 0.0
C996 C 0.07165 0.84978 0.26265 0.0
C997 C 0.08074 0.87356 0.2537 0.0
C998 C 0.10091 0.87505 0.23531 0.0
H999 H 0.1837 0.83252 0.24025 0.0
H1000 H 0.15454 0.84383 0.2547 0.0
H1001 H 0.15653 0.81393 0.23774 0.0
H1002 H 0.11222 0.8117 0.2267 0.0
H1003 H 0.07697 0.80889 0.25933 0.0
H1004 H 0.85739 0.08537 0.56975 0.0
H1005 H 0.88355 0.09776 0.6065 0.0
H1006 H 0.82188 0.13688 0.64591 0.0
H1007 H 0.79527 0.12428 0.6091 0.0
H1008 H 0.89378 0.1474 0.62315 0.0
H1009 H 0.84924 0.0888 0.70695 0.0
H1010 H 0.84424 0.08362 0.67111 0.0
H1011 H 0.82946 0.11014 0.68789 0.0
C1012 C 0.84928 0.09656 0.58622 0.0
C1013 C 0.8242 0.10375 0.58655 0.0
C1014 C 0.86431 0.10368 0.60718 0.0
C1015 C 0.85461 0.11805 0.62899 0.0
C1016 C 0.82962 0.12549 0.6294 0.0
H1017 H 0.95575 0.1811 0.74575 0.0
H1018 H 0.92253 0.17775 0.71346 0.0
C1019 C 0.81449 0.11836 0.60834 0.0
C1020 C 0.871 0.12506 0.65109 0.0
H1021 H 0.88364 0.11228 0.71827 0.0
C1022 C 0.89145 0.14 0.64406 0.0
C1023 C 0.86793 0.11515 0.67822 0.0
C1024 C 0.84666 0.09838 0.68662 0.0
C1025 C 0.90933 0.14475 0.66325 0.0
C1026 C 0.90646 0.13454 0.69028 0.0
C1027 C 0.88567 0.12016 0.69753 0.0
C1028 C 0.92583 0.13681 0.71066 0.0
C1029 C 0.93171 0.15964 0.65412 0.0
C1030 C 0.93829 0.11485 0.72019 0.0
C1031 C 0.9572 0.11665 0.73867 0.0
C1032 C 0.964 0.14049 0.74808 0.0
C1033 C 0.95116 0.16246 0.73879 0.0
C1034 C 0.9322 0.16061 0.72028 0.0
H1035 H 0.93338 0.16195 0.6314 0.0
H1036 H 0.93034 0.17887 0.66296 0.0
H1037 H 0.94877 0.15013 0.66155 0.0
H1038 H 0.93361 0.0963 0.71301 0.0
H1039 H 0.96654 0.0993 0.74542 0.0
loop_
_geom_bond_atom_site_label_1
_geom_bond_atom_site_label_2
_geom_bond_distance
_geom_bond_site_symmetry_2
_ccdc_geom_bond_type
O0 Cd1 2.300 . S
O0 C7 1.275 . S
Cd1 O0 2.300 . S
Cd1 O9 2.381 . S
Cd1 O10 2.378 . S
O2 Cd3 2.385 1_556 S
O2 C7 1.255 . S
Cd3 O2 2.385 1_554 S
Cd3 O4 2.317 . S
O4 Cd3 2.317 . S
O4 C5 1.232 . S
C5 O4 1.232 . S
C5 O6 1.218 . S
O6 C5 1.218 . S
C7 O0 1.275 . S
C7 O2 1.255 . S
C8 O9 1.258 . S
C8 O10 1.256 . S
O9 Cd1 2.381 . S
O9 C8 1.258 . S
O10 Cd1 2.378 . S
O10 C8 1.256 . S
O11 Cd12 2.300 . S
O11 C18 1.275 . S
Cd12 O11 2.300 . S
Cd12 O20 2.381 . S
Cd12 O21 2.378 . S
O13 Cd14 2.385 . S
O13 C18 1.255 . S
Cd14 O13 2.385 . S
Cd14 O15 2.317 . S
O15 Cd14 2.317 . S
O15 C16 1.232 . S
C16 O15 1.232 . S
C16 O17 1.218 . S
O17 C16 1.218 . S
C18 O11 1.275 . S
C18 O13 1.255 . S
C19 O20 1.258 . S
C19 O21 1.256 . S
O20 Cd12 2.381 . S
O20 C19 1.258 . S
O21 Cd12 2.378 . S
O21 C19 1.256 . S
O22 Cd23 2.300 . S
O22 C29 1.275 . S
Cd23 O22 2.300 . S
Cd23 O31 2.381 . S
Cd23 O32 2.378 . S
O24 Cd25 2.385 . S
O24 C29 1.255 1_554 S
Cd25 O24 2.385 . S
Cd25 O26 2.317 . S
O26 Cd25 2.317 . S
O26 C27 1.232 . S
C27 O26 1.232 . S
C27 O28 1.218 . S
O28 C27 1.218 . S
C29 O22 1.275 . S
C29 O24 1.255 1_556 S
C30 O31 1.258 . S
C30 O32 1.256 . S
O31 Cd23 2.381 . S
O31 C30 1.258 . S
O32 Cd23 2.378 . S
O32 C30 1.256 . S
O33 Cd34 2.300 . S
O33 C40 1.275 . S
Cd34 O33 2.300 . S
Cd34 O42 2.381 . S
Cd34 O43 2.378 . S
O35 Cd36 2.385 . S
O35 C40 1.255 . S
Cd36 O35 2.385 . S
Cd36 O37 2.317 . S
O37 Cd36 2.317 . S
O37 C38 1.232 . S
C38 O37 1.232 . S
C38 O39 1.218 . S
O39 C38 1.218 . S
C40 O33 1.275 . S
C40 O35 1.255 . S
C41 O42 1.258 . S
C41 O43 1.256 . S
O42 Cd34 2.381 . S
O42 C41 1.258 . S
O43 Cd34 2.378 . S
O43 C41 1.256 . S
O44 Cd45 2.300 . S
O44 C51 1.275 . S
Cd45 O44 2.300 . S
Cd45 O53 2.381 . S
Cd45 O54 2.378 . S
O46 Cd47 2.385 1_556 S
O46 C51 1.255 . S
Cd47 O46 2.385 1_554 S
Cd47 O48 2.317 . S
O48 Cd47 2.317 . S
O48 C49 1.232 . S
C49 O48 1.232 . S
C49 O50 1.218 . S
O50 C49 1.218 . S
C51 O44 1.275 . S
C51 O46 1.255 . S
C52 O53 1.258 . S
C52 O54 1.256 . S
O53 Cd45 2.381 . S
O53 C52 1.258 . S
O54 Cd45 2.378 . S
O54 C52 1.256 . S
O55 Cd56 2.300 . S
O55 C62 1.275 . S
Cd56 O55 2.300 . S
Cd56 O64 2.381 . S
Cd56 O65 2.378 . S
O57 Cd58 2.385 . S
O57 C62 1.255 . S
Cd58 O57 2.385 . S
Cd58 O59 2.317 . S
O59 Cd58 2.317 . S
O59 C60 1.232 . S
C60 O59 1.232 . S
C60 O61 1.218 . S
O61 C60 1.218 . S
C62 O55 1.275 . S
C62 O57 1.255 . S
C63 O64 1.258 . S
C63 O65 1.256 . S
O64 Cd56 2.381 . S
O64 C63 1.258 . S
O65 Cd56 2.378 . S
O65 C63 1.256 . S
O66 Cd67 2.300 . S
O66 C73 1.275 . S
Cd67 O66 2.300 . S
Cd67 O75 2.381 . S
Cd67 O76 2.378 . S
O68 Cd69 2.385 . S
O68 C73 1.255 1_554 S
Cd69 O68 2.385 . S
Cd69 O70 2.317 . S
O70 Cd69 2.317 . S
O70 C71 1.232 . S
C71 O70 1.232 . S
C71 O72 1.218 . S
O72 C71 1.218 . S
C73 O66 1.275 . S
C73 O68 1.255 1_556 S
C74 O75 1.258 . S
C74 O76 1.256 . S
O75 Cd67 2.381 . S
O75 C74 1.258 . S
O76 Cd67 2.378 . S
O76 C74 1.256 . S
O77 Cd78 2.300 . S
O77 C84 1.275 . S
Cd78 O77 2.300 . S
Cd78 O86 2.381 . S
Cd78 O87 2.378 . S
O79 Cd80 2.385 . S
O79 C84 1.255 . S
Cd80 O79 2.385 . S
Cd80 O81 2.317 . S
O81 Cd80 2.317 . S
O81 C82 1.232 . S
C82 O81 1.232 . S
C82 O83 1.218 . S
O83 C82 1.218 . S
C84 O77 1.275 . S
C84 O79 1.255 . S
C85 O86 1.258 . S
C85 O87 1.256 . S
O86 Cd78 2.381 . S
O86 C85 1.258 . S
O87 Cd78 2.378 . S
O87 C85 1.256 . S
Sc88 O91 2.025 . S
Sc88 O98 2.105 1_455 S
Sc88 O101 2.105 . S
Sc88 O104 2.105 . S
Sc88 O107 2.105 1_455 S
Sc89 O91 2.025 . S
Sc89 O99 2.105 1_455 S
Sc89 O103 2.105 . S
Sc89 O105 2.105 . S
Sc89 O109 2.105 1_455 S
Sc90 O91 2.025 . S
Sc90 O100 2.105 1_455 S
Sc90 O102 2.105 . S
Sc90 O106 2.105 . S
Sc90 O108 2.105 1_455 S
O91 Sc88 2.025 . S
O91 Sc89 2.025 . S
O91 Sc90 2.025 . S
C92 O98 1.268 . S
C92 O108 1.268 . S
C93 O99 1.268 . S
C93 O107 1.268 . S
C94 O100 1.268 . S
C94 O109 1.268 . S
C95 O101 1.268 . S
C95 O105 1.268 . S
C96 O102 1.268 . S
C96 O104 1.268 . S
C97 O103 1.268 . S
C97 O106 1.268 . S
O98 Sc88 2.105 1_655 S
O98 C92 1.268 . S
O99 Sc89 2.105 1_655 S
O99 C93 1.268 . S
O100 Sc90 2.105 1_655 S
O100 C94 1.268 . S
O101 Sc88 2.105 . S
O101 C95 1.268 . S
O102 Sc90 2.105 . S
O102 C96 1.268 . S
O103 Sc89 2.105 . S
O103 C97 1.268 . S
O104 Sc88 2.105 . S
O104 C96 1.268 . S
O105 Sc89 2.105 . S
O105 C95 1.268 . S
O106 Sc90 2.105 . S
O106 C97 1.268 . S
O107 Sc88 2.105 1_655 S
O107 C93 1.268 . S
O108 Sc90 2.105 1_655 S
O108 C92 1.268 . S
O109 Sc89 2.105 1_655 S
O109 C94 1.268 . S
Sc110 O113 2.025 . S
Sc110 O120 2.105 . S
Sc110 O123 2.105 1_455 S
Sc110 O126 2.105 1_455 S
Sc110 O129 2.105 . S
Sc111 O113 2.025 . S
Sc111 O121 2.105 . S
Sc111 O125 2.105 1_455 S
Sc111 O127 2.105 1_455 S
Sc111 O131 2.105 . S
Sc112 O113 2.025 . S
Sc112 O122 2.105 . S
Sc112 O124 2.105 1_455 S
Sc112 O128 2.105 1_455 S
Sc112 O130 2.105 . S
O113 Sc110 2.025 . S
O113 Sc111 2.025 . S
O113 Sc112 2.025 . S
C114 O120 1.268 . S
C114 O130 1.268 . S
C115 O121 1.268 . S
C115 O129 1.268 . S
C116 O122 1.268 . S
C116 O131 1.268 . S
C117 O123 1.268 . S
C117 O127 1.268 . S
C118 O124 1.268 . S
C118 O126 1.268 . S
C119 O125 1.268 . S
C119 O128 1.268 . S
O120 Sc110 2.105 . S
O120 C114 1.268 . S
O121 Sc111 2.105 . S
O121 C115 1.268 . S
O122 Sc112 2.105 . S
O122 C116 1.268 . S
O123 Sc110 2.105 1_655 S
O123 C117 1.268 . S
O124 Sc112 2.105 1_655 S
O124 C118 1.268 . S
O125 Sc111 2.105 1_655 S
O125 C119 1.268 . S
O126 Sc110 2.105 1_655 S
O126 C118 1.268 . S
O127 Sc111 2.105 1_655 S
O127 C117 1.268 . S
O128 Sc112 2.105 1_655 S
O128 C119 1.268 . S
O129 Sc110 2.105 . S
O129 C115 1.268 . S
O130 Sc112 2.105 . S
O130 C114 1.268 . S
O131 Sc111 2.105 . S
O131 C116 1.268 . S
Sc132 O135 2.025 . S
Sc132 O142 2.105 . S
Sc132 O145 2.105 . S
Sc132 O148 2.105 . S
Sc132 O151 2.105 . S
Sc133 O135 2.025 . S
Sc133 O143 2.105 . S
Sc133 O147 2.105 . S
Sc133 O149 2.105 . S
Sc133 O153 2.105 . S
Sc134 O135 2.025 . S
Sc134 O144 2.105 . S
Sc134 O146 2.105 . S
Sc134 O150 2.105 . S
Sc134 O152 2.105 . S
O135 Sc132 2.025 . S
O135 Sc133 2.025 . S
O135 Sc134 2.025 . S
C136 O142 1.268 . S
C136 O152 1.268 . S
C137 O143 1.268 . S
C137 O151 1.268 . S
C138 O144 1.268 . S
C138 O153 1.268 . S
C139 O145 1.268 . S
C139 O149 1.268 . S
C140 O146 1.268 . S
C140 O148 1.268 . S
C141 O147 1.268 . S
C141 O150 1.268 . S
O142 Sc132 2.105 . S
O142 C136 1.268 . S
O143 Sc133 2.105 . S
O143 C137 1.268 . S
O144 Sc134 2.105 . S
O144 C138 1.268 . S
O145 Sc132 2.105 . S
O145 C139 1.268 . S
O146 Sc134 2.105 . S
O146 C140 1.268 . S
O147 Sc133 2.105 . S
O147 C141 1.268 . S
O148 Sc132 2.105 . S
O148 C140 1.268 . S
O149 Sc133 2.105 . S
O149 C139 1.268 . S
O150 Sc134 2.105 . S
O150 C141 1.268 . S
O151 Sc132 2.105 . S
O151 C137 1.268 . S
O152 Sc134 2.105 . S
O152 C136 1.268 . S
O153 Sc133 2.105 . S
O153 C138 1.268 . S
Sc154 O157 2.025 . S
Sc154 O164 2.105 . S
Sc154 O167 2.105 . S
Sc154 O170 2.105 . S
Sc154 O173 2.105 . S
Sc155 O157 2.025 . S
Sc155 O165 2.105 . S
Sc155 O169 2.105 . S
Sc155 O171 2.105 . S
Sc155 O175 2.105 . S
Sc156 O157 2.025 . S
Sc156 O166 2.105 . S
Sc156 O168 2.105 . S
Sc156 O172 2.105 . S
Sc156 O174 2.105 . S
O157 Sc154 2.025 . S
O157 Sc155 2.025 . S
O157 Sc156 2.025 . S
C158 O164 1.268 . S
C158 O174 1.268 . S
C159 O165 1.268 . S
C159 O173 1.268 . S
C160 O166 1.268 . S
C160 O175 1.268 . S
C161 O167 1.268 . S
C161 O171 1.268 . S
C162 O168 1.268 . S
C162 O170 1.268 . S
C163 O169 1.268 . S
C163 O172 1.268 . S
O164 Sc154 2.105 . S
O164 C158 1.268 . S
O165 Sc155 2.105 . S
O165 C159 1.268 . S
O166 Sc156 2.105 . S
O166 C160 1.268 . S
O167 Sc154 2.105 . S
O167 C161 1.268 . S
O168 Sc156 2.105 . S
O168 C162 1.268 . S
O169 Sc155 2.105 . S
O169 C163 1.268 . S
O170 Sc154 2.105 . S
O170 C162 1.268 . S
O171 Sc155 2.105 . S
O171 C161 1.268 . S
O172 Sc156 2.105 . S
O172 C163 1.268 . S
O173 Sc154 2.105 . S
O173 C159 1.268 . S
O174 Sc156 2.105 . S
O174 C158 1.268 . S
O175 Sc155 2.105 . S
O175 C160 1.268 . S
H176 C184 0.929 . S
H177 C186 0.930 . S
H178 C188 0.930 . S
H179 C191 0.929 . S
H180 C194 0.930 . S
H181 C196 0.960 . S
H182 C196 0.960 . S
H183 C196 0.960 . S
C184 H176 0.929 . S
C184 C185 1.377 . S
C184 C186 1.384 . S
C185 C184 1.377 . S
C185 C191 1.390 . S
C186 H177 0.930 . S
C186 C184 1.384 . S
C186 C187 1.372 . S
C187 C186 1.372 . S
C187 C188 1.400 . S
C187 C192 1.490 . S
C188 H178 0.930 . S
C188 C187 1.400 . S
C188 C191 1.386 . S
H189 C205 0.930 . S
H190 C206 0.931 . S
C191 H179 0.929 . S
C191 C185 1.390 . S
C191 C188 1.386 . S
C192 C187 1.490 . S
C192 C194 1.395 . S
C192 C195 1.403 . S
H193 C199 0.930 . S
C194 H180 0.930 . S
C194 C192 1.395 . S
C194 C197 1.403 . S
C195 C192 1.403 . S
C195 C196 1.524 . S
C195 C199 1.400 . S
C196 H181 0.960 . S
C196 H182 0.960 . S
C196 H183 0.960 . S
C196 C195 1.524 . S
C197 C194 1.403 . S
C197 C198 1.392 . S
C197 C201 1.495 . S
C198 C197 1.392 . S
C198 C199 1.385 . S
C198 C200 1.478 . S
C199 H193 0.930 . S
C199 C195 1.400 . S
C199 C198 1.385 . S
C200 C198 1.478 . S
C200 C202 1.381 . S
C200 C206 1.383 . S
C201 C197 1.495 . S
C201 H207 0.959 . S
C201 H208 0.961 . S
C201 H209 0.960 . S
C202 C200 1.381 . S
C202 C203 1.394 . S
C202 H210 0.930 . S
C203 C202 1.394 . S
C203 C204 1.383 . S
C203 H211 0.929 . S
C204 C203 1.383 . S
C204 C205 1.377 . S
C205 H189 0.930 . S
C205 C204 1.377 . S
C205 C206 1.379 . S
C206 H190 0.931 . S
C206 C200 1.383 . S
C206 C205 1.379 . S
H207 C201 0.959 . S
H208 C201 0.961 . S
H209 C201 0.960 . S
H210 C202 0.930 . S
H211 C203 0.929 . S
H212 C220 0.929 . S
H213 C222 0.930 . S
H214 C224 0.930 . S
H215 C227 0.929 . S
H216 C230 0.930 . S
H217 C232 0.960 . S
H218 C232 0.960 . S
H219 C232 0.960 . S
C220 H212 0.929 . S
C220 C221 1.377 . S
C220 C222 1.384 . S
C221 C220 1.377 . S
C221 C227 1.390 . S
C222 H213 0.930 . S
C222 C220 1.384 . S
C222 C223 1.372 . S
C223 C222 1.372 . S
C223 C224 1.400 . S
C223 C228 1.490 . S
C224 H214 0.930 . S
C224 C223 1.400 . S
C224 C227 1.386 . S
H225 C241 0.930 . S
H226 C242 0.931 . S
C227 H215 0.929 . S
C227 C221 1.390 . S
C227 C224 1.386 . S
C228 C223 1.490 . S
C228 C230 1.395 . S
C228 C231 1.403 . S
H229 C235 0.930 . S
C230 H216 0.930 . S
C230 C228 1.395 . S
C230 C233 1.403 . S
C231 C228 1.403 . S
C231 C232 1.524 . S
C231 C235 1.400 . S
C232 H217 0.960 . S
C232 H218 0.960 . S
C232 H219 0.960 . S
C232 C231 1.524 . S
C233 C230 1.403 . S
C233 C234 1.392 . S
C233 C237 1.495 . S
C234 C233 1.392 . S
C234 C235 1.385 . S
C234 C236 1.478 . S
C235 H229 0.930 . S
C235 C231 1.400 . S
C235 C234 1.385 . S
C236 C234 1.478 . S
C236 C238 1.381 . S
C236 C242 1.383 . S
C237 C233 1.495 . S
C237 H243 0.959 . S
C237 H244 0.961 . S
C237 H245 0.960 . S
C238 C236 1.381 . S
C238 C239 1.394 . S
C238 H246 0.930 . S
C239 C238 1.394 . S
C239 C240 1.383 . S
C239 H247 0.929 . S
C240 C239 1.383 . S
C240 C241 1.377 . S
C241 H225 0.930 . S
C241 C240 1.377 . S
C241 C242 1.379 . S
C242 H226 0.931 . S
C242 C236 1.383 . S
C242 C241 1.379 . S
H243 C237 0.959 . S
H244 C237 0.961 . S
H245 C237 0.960 . S
H246 C238 0.930 . S
H247 C239 0.929 . S
H248 C256 0.929 . S
H249 C258 0.930 . S
H250 C260 0.930 . S
H251 C263 0.929 . S
H252 C266 0.930 . S
H253 C268 0.960 . S
H254 C268 0.960 . S
H255 C268 0.960 . S
C256 H248 0.929 . S
C256 C257 1.377 . S
C256 C258 1.384 . S
C257 C256 1.377 . S
C257 C263 1.390 . S
C258 H249 0.930 . S
C258 C256 1.384 . S
C258 C259 1.372 . S
C259 C258 1.372 . S
C259 C260 1.400 . S
C259 C264 1.490 . S
C260 H250 0.930 . S
C260 C259 1.400 . S
C260 C263 1.386 . S
H261 C277 0.930 . S
H262 C278 0.931 . S
C263 H251 0.929 . S
C263 C257 1.390 . S
C263 C260 1.386 . S
C264 C259 1.490 . S
C264 C266 1.395 . S
C264 C267 1.403 . S
H265 C271 0.930 . S
C266 H252 0.930 . S
C266 C264 1.395 . S
C266 C269 1.403 . S
C267 C264 1.403 . S
C267 C268 1.524 . S
C267 C271 1.400 . S
C268 H253 0.960 . S
C268 H254 0.960 . S
C268 H255 0.960 . S
C268 C267 1.524 . S
C269 C266 1.403 . S
C269 C270 1.392 . S
C269 C273 1.495 . S
C270 C269 1.392 . S
C270 C271 1.385 . S
C270 C272 1.478 . S
C271 H265 0.930 . S
C271 C267 1.400 . S
C271 C270 1.385 . S
C272 C270 1.478 . S
C272 C274 1.381 . S
C272 C278 1.383 . S
C273 C269 1.495 . S
C273 H279 0.959 . S
C273 H280 0.961 . S
C273 H281 0.960 . S
C274 C272 1.381 . S
C274 C275 1.394 . S
C274 H282 0.930 . S
C275 C274 1.394 . S
C275 C276 1.383 . S
C275 H283 0.929 . S
C276 C275 1.383 . S
C276 C277 1.377 . S
C277 H261 0.930 . S
C277 C276 1.377 . S
C277 C278 1.379 . S
C278 H262 0.931 . S
C278 C272 1.383 . S
C278 C277 1.379 . S
H279 C273 0.959 . S
H280 C273 0.961 . S
H281 C273 0.960 . S
H282 C274 0.930 . S
H283 C275 0.929 . S
H284 C292 0.929 . S
H285 C294 0.930 . S
H286 C296 0.930 . S
H287 C299 0.929 . S
H288 C302 0.930 . S
H289 C304 0.960 . S
H290 C304 0.960 . S
H291 C304 0.960 . S
C292 H284 0.929 . S
C292 C293 1.377 . S
C292 C294 1.384 . S
C293 C292 1.377 . S
C293 C299 1.390 . S
C294 H285 0.930 . S
C294 C292 1.384 . S
C294 C295 1.372 . S
C295 C294 1.372 . S
C295 C296 1.400 . S
C295 C300 1.490 . S
C296 H286 0.930 . S
C296 C295 1.400 . S
C296 C299 1.386 . S
H297 C313 0.930 . S
H298 C314 0.931 . S
C299 H287 0.929 . S
C299 C293 1.390 . S
C299 C296 1.386 . S
C300 C295 1.490 . S
C300 C302 1.395 . S
C300 C303 1.403 . S
H301 C307 0.930 . S
C302 H288 0.930 . S
C302 C300 1.395 . S
C302 C305 1.403 . S
C303 C300 1.403 . S
C303 C304 1.524 . S
C303 C307 1.400 . S
C304 H289 0.960 . S
C304 H290 0.960 . S
C304 H291 0.960 . S
C304 C303 1.524 . S
C305 C302 1.403 . S
C305 C306 1.392 . S
C305 C309 1.495 . S
C306 C305 1.392 . S
C306 C307 1.385 . S
C306 C308 1.478 . S
C307 H301 0.930 . S
C307 C303 1.400 . S
C307 C306 1.385 . S
C308 C306 1.478 . S
C308 C310 1.381 . S
C308 C314 1.383 . S
C309 C305 1.495 . S
C309 H315 0.959 . S
C309 H316 0.961 . S
C309 H317 0.960 . S
C310 C308 1.381 . S
C310 C311 1.394 . S
C310 H318 0.930 . S
C311 C310 1.394 . S
C311 C312 1.383 . S
C311 H319 0.929 . S
C312 C311 1.383 . S
C312 C313 1.377 . S
C313 H297 0.930 . S
C313 C312 1.377 . S
C313 C314 1.379 . S
C314 H298 0.931 . S
C314 C308 1.383 . S
C314 C313 1.379 . S
H315 C309 0.959 . S
H316 C309 0.961 . S
H317 C309 0.960 . S
H318 C310 0.930 . S
H319 C311 0.929 . S
H320 C328 0.929 . S
H321 C330 0.930 . S
H322 C332 0.930 . S
H323 C335 0.929 . S
H324 C338 0.930 . S
H325 C340 0.960 . S
H326 C340 0.960 . S
H327 C340 0.960 . S
C328 H320 0.929 . S
C328 C329 1.377 . S
C328 C330 1.384 . S
C329 C328 1.377 . S
C329 C335 1.390 . S
C330 H321 0.930 . S
C330 C328 1.384 . S
C330 C331 1.372 . S
C331 C330 1.372 . S
C331 C332 1.400 . S
C331 C336 1.490 . S
C332 H322 0.930 . S
C332 C331 1.400 . S
C332 C335 1.386 . S
H333 C349 0.930 . S
H334 C350 0.931 . S
C335 H323 0.929 . S
C335 C329 1.390 . S
C335 C332 1.386 . S
C336 C331 1.490 . S
C336 C338 1.395 . S
C336 C339 1.403 . S
H337 C343 0.930 . S
C338 H324 0.930 . S
C338 C336 1.395 . S
C338 C341 1.403 . S
C339 C336 1.403 . S
C339 C340 1.524 . S
C339 C343 1.400 . S
C340 H325 0.960 . S
C340 H326 0.960 . S
C340 H327 0.960 . S
C340 C339 1.524 . S
C341 C338 1.403 . S
C341 C342 1.392 . S
C341 C345 1.495 . S
C342 C341 1.392 . S
C342 C343 1.385 . S
C342 C344 1.478 . S
C343 H337 0.930 . S
C343 C339 1.400 . S
C343 C342 1.385 . S
C344 C342 1.478 . S
C344 C346 1.381 . S
C344 C350 1.383 . S
C345 C341 1.495 . S
C345 H351 0.959 . S
C345 H352 0.961 . S
C345 H353 0.960 . S
C346 C344 1.381 . S
C346 C347 1.394 . S
C346 H354 0.930 . S
C347 C346 1.394 . S
C347 C348 1.383 . S
C347 H355 0.929 . S
C348 C347 1.383 . S
C348 C349 1.377 . S
C349 H333 0.930 . S
C349 C348 1.377 . S
C349 C350 1.379 . S
C350 H334 0.931 . S
C350 C344 1.383 . S
C350 C349 1.379 . S
H351 C345 0.959 . S
H352 C345 0.961 . S
H353 C345 0.960 . S
H354 C346 0.930 . S
H355 C347 0.929 . S
H356 C364 0.929 . S
H357 C366 0.930 . S
H358 C368 0.930 . S
H359 C371 0.929 . S
H360 C374 0.930 . S
H361 C376 0.960 . S
H362 C376 0.960 . S
H363 C376 0.960 . S
C364 H356 0.929 . S
C364 C365 1.377 . S
C364 C366 1.384 . S
C365 C364 1.377 . S
C365 C371 1.390 . S
C366 H357 0.930 . S
C366 C364 1.384 . S
C366 C367 1.372 . S
C367 C366 1.372 . S
C367 C368 1.400 . S
C367 C372 1.490 . S
C368 H358 0.930 . S
C368 C367 1.400 . S
C368 C371 1.386 . S
H369 C385 0.930 . S
H370 C386 0.931 . S
C371 H359 0.929 . S
C371 C365 1.390 . S
C371 C368 1.386 . S
C372 C367 1.490 . S
C372 C374 1.395 . S
C372 C375 1.403 . S
H373 C379 0.930 . S
C374 H360 0.930 . S
C374 C372 1.395 . S
C374 C377 1.403 . S
C375 C372 1.403 . S
C375 C376 1.524 . S
C375 C379 1.400 . S
C376 H361 0.960 . S
C376 H362 0.960 . S
C376 H363 0.960 . S
C376 C375 1.524 . S
C377 C374 1.403 . S
C377 C378 1.392 . S
C377 C381 1.495 . S
C378 C377 1.392 . S
C378 C379 1.385 . S
C378 C380 1.478 . S
C379 H373 0.930 . S
C379 C375 1.400 . S
C379 C378 1.385 . S
C380 C378 1.478 . S
C380 C382 1.381 . S
C380 C386 1.383 . S
C381 C377 1.495 . S
C381 H387 0.959 . S
C381 H388 0.961 . S
C381 H389 0.960 . S
C382 C380 1.381 . S
C382 C383 1.394 . S
C382 H390 0.930 . S
C383 C382 1.394 . S
C383 C384 1.383 . S
C383 H391 0.929 . S
C384 C383 1.383 . S
C384 C385 1.377 . S
C385 H369 0.930 . S
C385 C384 1.377 . S
C385 C386 1.379 . S
C386 H370 0.931 . S
C386 C380 1.383 . S
C386 C385 1.379 . S
H387 C381 0.959 . S
H388 C381 0.961 . S
H389 C381 0.960 . S
H390 C382 0.930 . S
H391 C383 0.929 . S
H392 C400 0.929 . S
H393 C402 0.930 . S
H394 C404 0.930 . S
H395 C407 0.929 . S
H396 C410 0.930 . S
H397 C412 0.960 . S
H398 C412 0.960 . S
H399 C412 0.960 . S
C400 H392 0.929 . S
C400 C401 1.377 . S
C400 C402 1.384 . S
C401 C400 1.377 . S
C401 C407 1.390 . S
C402 H393 0.930 . S
C402 C400 1.384 . S
C402 C403 1.372 . S
C403 C402 1.372 . S
C403 C404 1.400 . S
C403 C408 1.490 . S
C404 H394 0.930 . S
C404 C403 1.400 . S
C404 C407 1.386 . S
H405 C421 0.930 . S
H406 C422 0.931 . S
C407 H395 0.929 . S
C407 C401 1.390 . S
C407 C404 1.386 . S
C408 C403 1.490 . S
C408 C410 1.395 . S
C408 C411 1.403 . S
H409 C415 0.930 . S
C410 H396 0.930 . S
C410 C408 1.395 . S
C410 C413 1.403 . S
C411 C408 1.403 . S
C411 C412 1.524 . S
C411 C415 1.400 . S
C412 H397 0.960 . S
C412 H398 0.960 . S
C412 H399 0.960 . S
C412 C411 1.524 . S
C413 C410 1.403 . S
C413 C414 1.392 . S
C413 C417 1.495 . S
C414 C413 1.392 . S
C414 C415 1.385 . S
C414 C416 1.478 . S
C415 H409 0.930 . S
C415 C411 1.400 . S
C415 C414 1.385 . S
C416 C414 1.478 . S
C416 C418 1.381 . S
C416 C422 1.383 . S
C417 C413 1.495 . S
C417 H423 0.959 . S
C417 H424 0.961 . S
C417 H425 0.960 . S
C418 C416 1.381 . S
C418 C419 1.394 . S
C418 H426 0.930 . S
C419 C418 1.394 . S
C419 C420 1.383 . S
C419 H427 0.929 . S
C420 C419 1.383 . S
C420 C421 1.377 . S
C421 H405 0.930 . S
C421 C420 1.377 . S
C421 C422 1.379 . S
C422 H406 0.931 . S
C422 C416 1.383 . S
C422 C421 1.379 . S
H423 C417 0.959 . S
H424 C417 0.961 . S
H425 C417 0.960 . S
H426 C418 0.930 . S
H427 C419 0.929 . S
H428 C436 0.929 . S
H429 C438 0.930 . S
H430 C440 0.930 . S
H431 C443 0.929 . S
H432 C446 0.930 . S
H433 C448 0.960 . S
H434 C448 0.960 . S
H435 C448 0.960 . S
C436 H428 0.929 . S
C436 C437 1.377 . S
C436 C438 1.384 . S
C437 C436 1.377 . S
C437 C443 1.390 . S
C438 H429 0.930 . S
C438 C436 1.384 . S
C438 C439 1.372 . S
C439 C438 1.372 . S
C439 C440 1.400 . S
C439 C444 1.490 . S
C440 H430 0.930 . S
C440 C439 1.400 . S
C440 C443 1.386 . S
H441 C457 0.930 . S
H442 C458 0.931 . S
C443 H431 0.929 . S
C443 C437 1.390 . S
C443 C440 1.386 . S
C444 C439 1.490 . S
C444 C446 1.395 . S
C444 C447 1.403 . S
H445 C451 0.930 . S
C446 H432 0.930 . S
C446 C444 1.395 . S
C446 C449 1.403 . S
C447 C444 1.403 . S
C447 C448 1.524 . S
C447 C451 1.400 . S
C448 H433 0.960 . S
C448 H434 0.960 . S
C448 H435 0.960 . S
C448 C447 1.524 . S
C449 C446 1.403 . S
C449 C450 1.392 . S
C449 C453 1.495 . S
C450 C449 1.392 . S
C450 C451 1.385 . S
C450 C452 1.478 . S
C451 H445 0.930 . S
C451 C447 1.400 . S
C451 C450 1.385 . S
C452 C450 1.478 . S
C452 C454 1.381 . S
C452 C458 1.383 . S
C453 C449 1.495 . S
C453 H459 0.959 . S
C453 H460 0.961 . S
C453 H461 0.960 . S
C454 C452 1.381 . S
C454 C455 1.394 . S
C454 H462 0.930 . S
C455 C454 1.394 . S
C455 C456 1.383 . S
C455 H463 0.929 . S
C456 C455 1.383 . S
C456 C457 1.377 . S
C457 H441 0.930 . S
C457 C456 1.377 . S
C457 C458 1.379 . S
C458 H442 0.931 . S
C458 C452 1.383 . S
C458 C457 1.379 . S
H459 C453 0.959 . S
H460 C453 0.961 . S
H461 C453 0.960 . S
H462 C454 0.930 . S
H463 C455 0.929 . S
H464 C472 0.929 . S
H465 C474 0.930 . S
H466 C476 0.930 . S
H467 C479 0.929 . S
H468 C482 0.930 . S
H469 C484 0.960 . S
H470 C484 0.960 . S
H471 C484 0.960 . S
C472 H464 0.929 . S
C472 C473 1.377 . S
C472 C474 1.384 . S
C473 C472 1.377 . S
C473 C479 1.390 . S
C474 H465 0.930 . S
C474 C472 1.384 . S
C474 C475 1.372 . S
C475 C474 1.372 . S
C475 C476 1.400 . S
C475 C480 1.490 . S
C476 H466 0.930 . S
C476 C475 1.400 . S
C476 C479 1.386 . S
H477 C493 0.930 . S
H478 C494 0.931 . S
C479 H467 0.929 . S
C479 C473 1.390 . S
C479 C476 1.386 . S
C480 C475 1.490 . S
C480 C482 1.395 . S
C480 C483 1.403 . S
H481 C487 0.930 . S
C482 H468 0.930 . S
C482 C480 1.395 . S
C482 C485 1.403 . S
C483 C480 1.403 . S
C483 C484 1.524 . S
C483 C487 1.400 . S
C484 H469 0.960 . S
C484 H470 0.960 . S
C484 H471 0.960 . S
C484 C483 1.524 . S
C485 C482 1.403 . S
C485 C486 1.392 . S
C485 C489 1.495 . S
C486 C485 1.392 . S
C486 C487 1.385 . S
C486 C488 1.478 . S
C487 H481 0.930 . S
C487 C483 1.400 . S
C487 C486 1.385 . S
C488 C486 1.478 . S
C488 C490 1.381 . S
C488 C494 1.383 . S
C489 C485 1.495 . S
C489 H495 0.959 . S
C489 H496 0.961 . S
C489 H497 0.960 . S
C490 C488 1.381 . S
C490 C491 1.394 . S
C490 H498 0.930 . S
C491 C490 1.394 . S
C491 C492 1.383 . S
C491 H499 0.929 . S
C492 C491 1.383 . S
C492 C493 1.377 . S
C493 H477 0.930 . S
C493 C492 1.377 . S
C493 C494 1.379 . S
C494 H478 0.931 . S
C494 C488 1.383 . S
C494 C493 1.379 . S
H495 C489 0.959 . S
H496 C489 0.961 . S
H497 C489 0.960 . S
H498 C490 0.930 . S
H499 C491 0.929 . S
H500 C508 0.929 . S
H501 C510 0.930 . S
H502 C512 0.930 . S
H503 C515 0.929 . S
H504 C518 0.930 . S
H505 C520 0.960 . S
H506 C520 0.960 . S
H507 C520 0.960 . S
C508 H500 0.929 . S
C508 C509 1.377 . S
C508 C510 1.384 . S
C509 C508 1.377 . S
C509 C515 1.390 . S
C510 H501 0.930 . S
C510 C508 1.384 . S
C510 C511 1.372 . S
C511 C510 1.372 . S
C511 C512 1.400 . S
C511 C516 1.490 . S
C512 H502 0.930 . S
C512 C511 1.400 . S
C512 C515 1.386 . S
H513 C529 0.930 . S
H514 C530 0.931 . S
C515 H503 0.929 . S
C515 C509 1.390 . S
C515 C512 1.386 . S
C516 C511 1.490 . S
C516 C518 1.395 . S
C516 C519 1.403 . S
H517 C523 0.930 . S
C518 H504 0.930 . S
C518 C516 1.395 . S
C518 C521 1.403 . S
C519 C516 1.403 . S
C519 C520 1.524 . S
C519 C523 1.400 . S
C520 H505 0.960 . S
C520 H506 0.960 . S
C520 H507 0.960 . S
C520 C519 1.524 . S
C521 C518 1.403 . S
C521 C522 1.392 . S
C521 C525 1.495 . S
C522 C521 1.392 . S
C522 C523 1.385 . S
C522 C524 1.478 . S
C523 H517 0.930 . S
C523 C519 1.400 . S
C523 C522 1.385 . S
C524 C522 1.478 . S
C524 C526 1.381 . S
C524 C530 1.383 . S
C525 C521 1.495 . S
C525 H531 0.959 . S
C525 H532 0.961 . S
C525 H533 0.960 . S
C526 C524 1.381 . S
C526 C527 1.394 . S
C526 H534 0.930 . S
C527 C526 1.394 . S
C527 C528 1.383 . S
C527 H535 0.929 . S
C528 C527 1.383 . S
C528 C529 1.377 . S
C529 H513 0.930 . S
C529 C528 1.377 . S
C529 C530 1.379 . S
C530 H514 0.931 . S
C530 C524 1.383 . S
C530 C529 1.379 . S
H531 C525 0.959 . S
H532 C525 0.961 . S
H533 C525 0.960 . S
H534 C526 0.930 . S
H535 C527 0.929 . S
H536 C544 0.929 . S
H537 C546 0.930 . S
H538 C548 0.930 . S
H539 C551 0.929 1_554 S
H540 C554 0.930 . S
H541 C556 0.960 . S
H542 C556 0.960 . S
H543 C556 0.960 . S
C544 H536 0.929 . S
C544 C545 1.377 . S
C544 C546 1.384 . S
C545 C544 1.377 . S
C545 C551 1.390 . S
C546 H537 0.930 . S
C546 C544 1.384 . S
C546 C547 1.372 . S
C547 C546 1.372 . S
C547 C548 1.400 . S
C547 C552 1.490 . S
C548 H538 0.930 . S
C548 C547 1.400 . S
C548 C551 1.386 . S
H549 C565 0.930 . S
H550 C566 0.931 . S
C551 H539 0.929 1_556 S
C551 C545 1.390 . S
C551 C548 1.386 . S
C552 C547 1.490 . S
C552 C554 1.395 . S
C552 C555 1.403 . S
H553 C559 0.930 . S
C554 H540 0.930 . S
C554 C552 1.395 . S
C554 C557 1.403 . S
C555 C552 1.403 . S
C555 C556 1.524 . S
C555 C559 1.400 . S
C556 H541 0.960 . S
C556 H542 0.960 . S
C556 H543 0.960 . S
C556 C555 1.524 . S
C557 C554 1.403 . S
C557 C558 1.392 . S
C557 C561 1.495 . S
C558 C557 1.392 . S
C558 C559 1.385 . S
C558 C560 1.478 . S
C559 H553 0.930 . S
C559 C555 1.400 . S
C559 C558 1.385 . S
C560 C558 1.478 . S
C560 C562 1.381 . S
C560 C566 1.383 . S
C561 C557 1.495 . S
C561 H567 0.959 . S
C561 H568 0.961 . S
C561 H569 0.960 . S
C562 C560 1.381 . S
C562 C563 1.394 . S
C562 H570 0.930 . S
C563 C562 1.394 . S
C563 C564 1.383 . S
C563 H571 0.929 . S
C564 C563 1.383 . S
C564 C565 1.377 . S
C565 H549 0.930 . S
C565 C564 1.377 . S
C565 C566 1.379 . S
C566 H550 0.931 . S
C566 C560 1.383 . S
C566 C565 1.379 . S
H567 C561 0.959 . S
H568 C561 0.961 . S
H569 C561 0.960 . S
H570 C562 0.930 . S
H571 C563 0.929 . S
H572 C580 0.929 . S
H573 C582 0.930 . S
H574 C584 0.930 . S
H575 C587 0.929 . S
H576 C590 0.930 . S
H577 C592 0.960 . S
H578 C592 0.960 . S
H579 C592 0.960 . S
C580 H572 0.929 . S
C580 C581 1.377 . S
C580 C582 1.384 . S
C581 C580 1.377 . S
C581 C587 1.390 . S
C582 H573 0.930 . S
C582 C580 1.384 . S
C582 C583 1.372 . S
C583 C582 1.372 . S
C583 C584 1.400 . S
C583 C588 1.490 . S
C584 H574 0.930 . S
C584 C583 1.400 . S
C584 C587 1.386 . S
H585 C601 0.930 . S
H586 C602 0.931 . S
C587 H575 0.929 . S
C587 C581 1.390 . S
C587 C584 1.386 . S
C588 C583 1.490 . S
C588 C590 1.395 . S
C588 C591 1.403 . S
H589 C595 0.930 . S
C590 H576 0.930 . S
C590 C588 1.395 . S
C590 C593 1.403 . S
C591 C588 1.403 . S
C591 C592 1.524 . S
C591 C595 1.400 . S
C592 H577 0.960 . S
C592 H578 0.960 . S
C592 H579 0.960 . S
C592 C591 1.524 . S
C593 C590 1.403 . S
C593 C594 1.392 . S
C593 C597 1.495 . S
C594 C593 1.392 . S
C594 C595 1.385 . S
C594 C596 1.478 . S
C595 H589 0.930 . S
C595 C591 1.400 . S
C595 C594 1.385 . S
C596 C594 1.478 . S
C596 C598 1.381 . S
C596 C602 1.383 . S
C597 C593 1.495 . S
C597 H603 0.959 . S
C597 H604 0.961 . S
C597 H605 0.960 . S
C598 C596 1.381 . S
C598 C599 1.394 . S
C598 H606 0.930 . S
C599 C598 1.394 . S
C599 C600 1.383 . S
C599 H607 0.929 . S
C600 C599 1.383 . S
C600 C601 1.377 . S
C601 H585 0.930 . S
C601 C600 1.377 . S
C601 C602 1.379 . S
C602 H586 0.931 . S
C602 C596 1.383 . S
C602 C601 1.379 . S
H603 C597 0.959 . S
H604 C597 0.961 . S
H605 C597 0.960 . S
H606 C598 0.930 . S
H607 C599 0.929 . S
H608 C616 0.929 . S
H609 C618 0.930 . S
H610 C620 0.930 . S
H611 C623 0.929 1_554 S
H612 C626 0.930 . S
H613 C628 0.960 . S
H614 C628 0.960 . S
H615 C628 0.960 . S
C616 H608 0.929 . S
C616 C617 1.377 . S
C616 C618 1.384 . S
C617 C616 1.377 . S
C617 C623 1.390 . S
C618 H609 0.930 . S
C618 C616 1.384 . S
C618 C619 1.372 . S
C619 C618 1.372 . S
C619 C620 1.400 . S
C619 C624 1.490 . S
C620 H610 0.930 . S
C620 C619 1.400 . S
C620 C623 1.386 . S
H621 C637 0.930 . S
H622 C638 0.931 . S
C623 H611 0.929 1_556 S
C623 C617 1.390 . S
C623 C620 1.386 . S
C624 C619 1.490 . S
C624 C626 1.395 1_565 S
C624 C627 1.403 . S
H625 C631 0.930 . S
C626 H612 0.930 . S
C626 C624 1.395 1_545 S
C626 C629 1.403 . S
C627 C624 1.403 . S
C627 C628 1.524 . S
C627 C631 1.400 1_565 S
C628 H613 0.960 . S
C628 H614 0.960 . S
C628 H615 0.960 . S
C628 C627 1.524 . S
C629 C626 1.403 . S
C629 C630 1.392 . S
C629 C633 1.495 . S
C630 C629 1.392 . S
C630 C631 1.385 . S
C630 C632 1.478 . S
C631 H625 0.930 . S
C631 C627 1.400 1_545 S
C631 C630 1.385 . S
C632 C630 1.478 . S
C632 C634 1.381 . S
C632 C638 1.383 . S
C633 C629 1.495 . S
C633 H639 0.959 . S
C633 H640 0.961 . S
C633 H641 0.960 . S
C634 C632 1.381 . S
C634 C635 1.394 . S
C634 H642 0.930 . S
C635 C634 1.394 . S
C635 C636 1.383 . S
C635 H643 0.929 . S
C636 C635 1.383 . S
C636 C637 1.377 . S
C637 H621 0.930 . S
C637 C636 1.377 . S
C637 C638 1.379 . S
C638 H622 0.931 . S
C638 C632 1.383 . S
C638 C637 1.379 . S
H639 C633 0.959 . S
H640 C633 0.961 . S
H641 C633 0.960 . S
H642 C634 0.930 . S
H643 C635 0.929 . S
H644 C652 0.929 . S
H645 C654 0.930 . S
H646 C656 0.930 1_565 S
H647 C659 0.929 . S
H648 C662 0.930 . S
H649 C664 0.960 . S
H650 C664 0.960 . S
H651 C664 0.960 . S
C652 H644 0.929 . S
C652 C653 1.377 . S
C652 C654 1.384 . S
C653 C652 1.377 . S
C653 C659 1.390 . S
C654 H645 0.930 . S
C654 C652 1.384 . S
C654 C655 1.372 . S
C655 C654 1.372 . S
C655 C656 1.400 . S
C655 C660 1.472 1_545 S
C656 H646 0.930 1_545 S
C656 C655 1.400 . S
C656 C659 1.386 . S
H657 C673 0.930 . S
H658 C674 0.931 . S
C659 H647 0.929 . S
C659 C653 1.390 . S
C659 C656 1.386 . S
C660 C655 1.472 1_565 S
C660 C662 1.381 1_565 S
C660 C663 1.434 . S
H661 C667 0.930 . S
C662 H648 0.930 . S
C662 C660 1.381 1_545 S
C662 C665 1.403 1_545 S
C663 C660 1.434 . S
C663 C664 1.524 . S
C663 C667 1.400 . S
C664 H649 0.960 . S
C664 H650 0.960 . S
C664 H651 0.960 . S
C664 C663 1.524 . S
C665 C662 1.403 1_565 S
C665 C666 1.392 . S
C665 C669 1.495 1_565 S
C666 C665 1.392 . S
C666 C667 1.385 . S
C666 C668 1.478 . S
C667 H661 0.930 . S
C667 C663 1.400 . S
C667 C666 1.385 . S
C668 C666 1.478 . S
C668 C670 1.381 . S
C668 C674 1.383 . S
C669 C665 1.495 1_545 S
C669 H675 0.959 . S
C669 H676 0.961 . S
C669 H677 0.960 . S
C670 C668 1.381 . S
C670 C671 1.394 . S
C670 H678 0.930 . S
C671 C670 1.394 . S
C671 C672 1.383 . S
C671 H679 0.929 . S
C672 C671 1.383 . S
C672 C673 1.377 . S
C673 H657 0.930 . S
C673 C672 1.377 . S
C673 C674 1.379 . S
C674 H658 0.931 . S
C674 C668 1.383 . S
C674 C673 1.379 . S
H675 C669 0.959 . S
H676 C669 0.961 . S
H677 C669 0.960 . S
H678 C670 0.930 . S
H679 C671 0.929 . S
H680 C688 0.929 . S
H681 C690 0.930 . S
H682 C692 0.930 . S
H683 C695 0.929 . S
H684 C698 0.930 . S
H685 C700 0.960 . S
H686 C700 0.960 . S
H687 C700 0.960 . S
C688 H680 0.929 . S
C688 C689 1.377 . S
C688 C690 1.384 . S
C689 C688 1.377 . S
C689 C695 1.390 . S
C690 H681 0.930 . S
C690 C688 1.384 . S
C690 C691 1.372 . S
C691 C690 1.372 . S
C691 C692 1.400 . S
C691 C696 1.490 . S
C692 H682 0.930 . S
C692 C691 1.400 . S
C692 C695 1.386 . S
H693 C709 0.930 . S
H694 C710 0.931 . S
C695 H683 0.929 . S
C695 C689 1.390 . S
C695 C692 1.386 . S
C696 C691 1.490 . S
C696 C698 1.395 . S
C696 C699 1.403 1_565 S
H697 C703 0.930 . S
C698 H684 0.930 . S
C698 C696 1.395 . S
C698 C701 1.403 1_565 S
C699 C696 1.403 1_545 S
C699 C700 1.524 . S
C699 C703 1.400 . S
C700 H685 0.960 . S
C700 H686 0.960 . S
C700 H687 0.960 . S
C700 C699 1.524 . S
C701 C698 1.403 1_545 S
C701 C702 1.392 . S
C701 C705 1.495 1_545 S
C702 C701 1.392 . S
C702 C703 1.385 . S
C702 C704 1.478 . S
C703 H697 0.930 . S
C703 C699 1.400 . S
C703 C702 1.385 . S
C704 C702 1.478 . S
C704 C706 1.381 . S
C704 C710 1.383 . S
C705 C701 1.495 1_565 S
C705 H711 0.959 . S
C705 H712 0.961 . S
C705 H713 0.960 1_565 S
C706 C704 1.381 . S
C706 C707 1.394 . S
C706 H714 0.930 . S
C707 C706 1.394 . S
C707 C708 1.383 . S
C707 H715 0.929 . S
C708 C707 1.383 . S
C708 C709 1.377 . S
C709 H693 0.930 . S
C709 C708 1.377 . S
C709 C710 1.379 . S
C710 H694 0.931 . S
C710 C704 1.383 . S
C710 C709 1.379 . S
H711 C705 0.959 . S
H712 C705 0.961 . S
H713 C705 0.960 1_545 S
H714 C706 0.930 . S
H715 C707 0.929 . S
H716 C724 0.929 . S
H717 C726 0.930 . S
H718 C728 0.930 . S
H719 C731 0.929 . S
H720 C734 0.930 . S
H721 C736 0.960 . S
H722 C736 0.960 . S
H723 C736 0.960 . S
C724 H716 0.929 . S
C724 C725 1.377 . S
C724 C726 1.384 . S
C725 C724 1.377 . S
C725 C731 1.390 . S
C726 H717 0.930 . S
C726 C724 1.384 . S
C726 C727 1.372 . S
C727 C726 1.372 . S
C727 C728 1.400 . S
C727 C732 1.490 . S
C728 H718 0.930 . S
C728 C727 1.400 . S
C728 C731 1.386 . S
H729 C745 0.930 . S
H730 C746 0.931 . S
C731 H719 0.929 . S
C731 C725 1.390 . S
C731 C728 1.386 . S
C732 C727 1.490 . S
C732 C734 1.395 1_545 S
C732 C735 1.403 . S
H733 C739 0.930 . S
C734 H720 0.930 . S
C734 C732 1.395 1_565 S
C734 C737 1.403 . S
C735 C732 1.403 . S
C735 C736 1.524 . S
C735 C739 1.400 1_545 S
C736 H721 0.960 . S
C736 H722 0.960 . S
C736 H723 0.960 . S
C736 C735 1.524 . S
C737 C734 1.403 . S
C737 C738 1.392 . S
C737 C741 1.495 . S
C738 C737 1.392 . S
C738 C739 1.385 . S
C738 C740 1.478 . S
C739 H733 0.930 . S
C739 C735 1.400 1_565 S
C739 C738 1.385 . S
C740 C738 1.478 . S
C740 C742 1.381 . S
C740 C746 1.383 . S
C741 C737 1.495 . S
C741 H747 0.959 . S
C741 H748 0.961 . S
C741 H749 0.960 . S
C742 C740 1.381 . S
C742 C743 1.394 . S
C742 H750 0.930 . S
C743 C742 1.394 . S
C743 C744 1.383 . S
C743 H751 0.929 . S
C744 C743 1.383 . S
C744 C745 1.377 . S
C745 H729 0.930 . S
C745 C744 1.377 . S
C745 C746 1.379 . S
C746 H730 0.931 . S
C746 C740 1.383 . S
C746 C745 1.379 . S
H747 C741 0.959 . S
H748 C741 0.961 . S
H749 C741 0.960 . S
H750 C742 0.930 . S
H751 C743 0.929 . S
H752 C760 0.929 . S
H753 C762 0.930 . S
H754 C764 0.930 . S
H755 C767 0.929 . S
H756 C770 0.930 . S
H757 C772 0.960 . S
H758 C772 0.960 . S
H759 C772 0.960 . S
C760 H752 0.929 . S
C760 C761 1.377 . S
C760 C762 1.384 . S
C761 C760 1.377 . S
C761 C767 1.390 . S
C762 H753 0.930 . S
C762 C760 1.384 . S
C762 C763 1.372 . S
C763 C762 1.372 . S
C763 C764 1.400 . S
C763 C768 1.490 . S
C764 H754 0.930 . S
C764 C763 1.400 . S
C764 C767 1.386 . S
H765 C781 0.930 . S
H766 C782 0.931 . S
C767 H755 0.929 . S
C767 C761 1.390 . S
C767 C764 1.386 . S
C768 C763 1.490 . S
C768 C770 1.395 . S
C768 C771 1.403 . S
H769 C775 0.930 . S
C770 H756 0.930 . S
C770 C768 1.395 . S
C770 C773 1.403 . S
C771 C768 1.403 . S
C771 C772 1.524 . S
C771 C775 1.400 . S
C772 H757 0.960 . S
C772 H758 0.960 . S
C772 H759 0.960 . S
C772 C771 1.524 . S
C773 C770 1.403 . S
C773 C774 1.392 . S
C773 C777 1.495 . S
C774 C773 1.392 . S
C774 C775 1.385 . S
C774 C776 1.478 . S
C775 H769 0.930 . S
C775 C771 1.400 . S
C775 C774 1.385 . S
C776 C774 1.478 . S
C776 C778 1.381 . S
C776 C782 1.383 . S
C777 C773 1.495 . S
C777 H783 0.959 . S
C777 H784 0.961 . S
C777 H785 0.960 . S
C778 C776 1.381 . S
C778 C779 1.394 . S
C778 H786 0.930 . S
C779 C778 1.394 . S
C779 C780 1.383 . S
C779 H787 0.929 . S
C780 C779 1.383 . S
C780 C781 1.377 . S
C781 H765 0.930 . S
C781 C780 1.377 . S
C781 C782 1.379 . S
C782 H766 0.931 . S
C782 C776 1.383 . S
C782 C781 1.379 . S
H783 C777 0.959 . S
H784 C777 0.961 . S
H785 C777 0.960 . S
H786 C778 0.930 . S
H787 C779 0.929 . S
H788 C796 0.929 . S
H789 C798 0.930 . S
H790 C800 0.930 . S
H791 C803 0.929 . S
H792 C806 0.930 . S
H793 C808 0.960 . S
H794 C808 0.960 . S
H795 C808 0.960 . S
C796 H788 0.929 . S
C796 C797 1.377 . S
C796 C798 1.384 . S
C797 C796 1.377 . S
C797 C803 1.390 . S
C798 H789 0.930 . S
C798 C796 1.384 . S
C798 C799 1.372 . S
C799 C798 1.372 . S
C799 C800 1.400 . S
C799 C804 1.490 . S
C800 H790 0.930 . S
C800 C799 1.400 . S
C800 C803 1.386 . S
H801 C817 0.930 . S
H802 C818 0.931 . S
C803 H791 0.929 . S
C803 C797 1.390 . S
C803 C800 1.386 . S
C804 C799 1.490 . S
C804 C806 1.395 . S
C804 C807 1.403 . S
H805 C811 0.930 . S
C806 H792 0.930 . S
C806 C804 1.395 . S
C806 C809 1.403 . S
C807 C804 1.403 . S
C807 C808 1.524 . S
C807 C811 1.400 . S
C808 H793 0.960 . S
C808 H794 0.960 . S
C808 H795 0.960 . S
C808 C807 1.524 . S
C809 C806 1.403 . S
C809 C810 1.392 . S
C809 C813 1.495 . S
C810 C809 1.392 . S
C810 C811 1.385 . S
C810 C812 1.478 . S
C811 H805 0.930 . S
C811 C807 1.400 . S
C811 C810 1.385 . S
C812 C810 1.478 . S
C812 C814 1.381 . S
C812 C818 1.383 . S
C813 C809 1.495 . S
C813 H819 0.959 . S
C813 H820 0.961 . S
C813 H821 0.960 . S
C814 C812 1.381 . S
C814 C815 1.394 . S
C814 H822 0.930 . S
C815 C814 1.394 . S
C815 C816 1.383 . S
C815 H823 0.929 . S
C816 C815 1.383 . S
C816 C817 1.377 . S
C817 H801 0.930 . S
C817 C816 1.377 . S
C817 C818 1.379 . S
C818 H802 0.931 . S
C818 C812 1.383 . S
C818 C817 1.379 . S
H819 C813 0.959 . S
H820 C813 0.961 . S
H821 C813 0.960 . S
H822 C814 0.930 . S
H823 C815 0.929 . S
H824 C832 0.929 . S
H825 C834 0.930 . S
H826 C836 0.930 . S
H827 C839 0.929 . S
H828 C842 0.930 . S
H829 C844 0.960 . S
H830 C844 0.960 . S
H831 C844 0.960 . S
C832 H824 0.929 . S
C832 C833 1.377 . S
C832 C834 1.384 . S
C833 C832 1.377 . S
C833 C839 1.390 . S
C834 H825 0.930 . S
C834 C832 1.384 . S
C834 C835 1.372 . S
C835 C834 1.372 . S
C835 C836 1.400 . S
C835 C840 1.490 . S
C836 H826 0.930 . S
C836 C835 1.400 . S
C836 C839 1.386 . S
H837 C853 0.930 . S
H838 C854 0.931 . S
C839 H827 0.929 . S
C839 C833 1.390 . S
C839 C836 1.386 . S
C840 C835 1.490 . S
C840 C842 1.395 . S
C840 C843 1.403 . S
H841 C847 0.930 . S
C842 H828 0.930 . S
C842 C840 1.395 . S
C842 C845 1.403 . S
C843 C840 1.403 . S
C843 C844 1.524 . S
C843 C847 1.400 . S
C844 H829 0.960 . S
C844 H830 0.960 . S
C844 H831 0.960 . S
C844 C843 1.524 . S
C845 C842 1.403 . S
C845 C846 1.392 . S
C845 C849 1.495 . S
C846 C845 1.392 . S
C846 C847 1.385 . S
C846 C848 1.478 . S
C847 H841 0.930 . S
C847 C843 1.400 . S
C847 C846 1.385 . S
C848 C846 1.478 . S
C848 C850 1.381 . S
C848 C854 1.383 . S
C849 C845 1.495 . S
C849 H855 0.959 . S
C849 H856 0.961 . S
C849 H857 0.960 . S
C850 C848 1.381 . S
C850 C851 1.394 . S
C850 H858 0.930 . S
C851 C850 1.394 . S
C851 C852 1.383 . S
C851 H859 0.929 . S
C852 C851 1.383 . S
C852 C853 1.377 . S
C853 H837 0.930 . S
C853 C852 1.377 . S
C853 C854 1.379 . S
C854 H838 0.931 . S
C854 C848 1.383 . S
C854 C853 1.379 . S
H855 C849 0.959 . S
H856 C849 0.961 . S
H857 C849 0.960 . S
H858 C850 0.930 . S
H859 C851 0.929 . S
H860 C868 0.929 . S
H861 C870 0.930 . S
H862 C872 0.930 . S
H863 C875 0.929 . S
H864 C878 0.930 . S
H865 C880 0.960 . S
H866 C880 0.960 . S
H867 C880 0.960 . S
C868 H860 0.929 . S
C868 C869 1.377 . S
C868 C870 1.384 . S
C869 C868 1.377 . S
C869 C875 1.390 . S
C870 H861 0.930 . S
C870 C868 1.384 . S
C870 C871 1.372 . S
C871 C870 1.372 . S
C871 C872 1.400 . S
C871 C876 1.490 . S
C872 H862 0.930 . S
C872 C871 1.400 . S
C872 C875 1.386 . S
H873 C889 0.930 . S
H874 C890 0.931 . S
C875 H863 0.929 . S
C875 C869 1.390 . S
C875 C872 1.386 . S
C876 C871 1.490 . S
C876 C878 1.395 . S
C876 C879 1.403 . S
H877 C883 0.930 . S
C878 H864 0.930 . S
C878 C876 1.395 . S
C878 C881 1.403 . S
C879 C876 1.403 . S
C879 C880 1.524 . S
C879 C883 1.400 . S
C880 H865 0.960 . S
C880 H866 0.960 . S
C880 H867 0.960 . S
C880 C879 1.524 . S
C881 C878 1.403 . S
C881 C882 1.392 . S
C881 C885 1.495 . S
C882 C881 1.392 . S
C882 C883 1.385 . S
C882 C884 1.478 . S
C883 H877 0.930 . S
C883 C879 1.400 . S
C883 C882 1.385 . S
C884 C882 1.478 . S
C884 C886 1.381 . S
C884 C890 1.383 . S
C885 C881 1.495 . S
C885 H891 0.959 . S
C885 H892 0.961 . S
C885 H893 0.960 . S
C886 C884 1.381 . S
C886 C887 1.394 . S
C886 H894 0.930 . S
C887 C886 1.394 . S
C887 C888 1.383 . S
C887 H895 0.929 . S
C888 C887 1.383 . S
C888 C889 1.377 . S
C889 H873 0.930 . S
C889 C888 1.377 . S
C889 C890 1.379 . S
C890 H874 0.931 . S
C890 C884 1.383 . S
C890 C889 1.379 . S
H891 C885 0.959 . S
H892 C885 0.961 . S
H893 C885 0.960 . S
H894 C886 0.930 . S
H895 C887 0.929 . S
H896 C904 0.929 . S
H897 C906 0.930 . S
H898 C908 0.930 . S
H899 C911 0.929 . S
H900 C914 0.930 . S
H901 C916 0.960 . S
H902 C916 0.960 . S
H903 C916 0.960 . S
C904 H896 0.929 . S
C904 C905 1.377 . S
C904 C906 1.384 . S
C905 C904 1.377 . S
C905 C911 1.390 . S
C906 H897 0.930 . S
C906 C904 1.384 . S
C906 C907 1.372 . S
C907 C906 1.372 . S
C907 C908 1.400 . S
C907 C912 1.490 . S
C908 H898 0.930 . S
C908 C907 1.400 . S
C908 C911 1.386 . S
H909 C925 0.930 . S
H910 C926 0.931 . S
C911 H899 0.929 . S
C911 C905 1.390 . S
C911 C908 1.386 . S
C912 C907 1.490 . S
C912 C914 1.395 . S
C912 C915 1.403 . S
H913 C919 0.930 . S
C914 H900 0.930 . S
C914 C912 1.395 . S
C914 C917 1.403 . S
C915 C912 1.403 . S
C915 C916 1.524 . S
C915 C919 1.400 . S
C916 H901 0.960 . S
C916 H902 0.960 . S
C916 H903 0.960 . S
C916 C915 1.524 . S
C917 C914 1.403 . S
C917 C918 1.392 . S
C917 C921 1.495 . S
C918 C917 1.392 . S
C918 C919 1.385 . S
C918 C920 1.478 . S
C919 H913 0.930 . S
C919 C915 1.400 . S
C919 C918 1.385 . S
C920 C918 1.478 . S
C920 C922 1.381 . S
C920 C926 1.383 . S
C921 C917 1.495 . S
C921 H927 0.959 . S
C921 H928 0.961 . S
C921 H929 0.960 . S
C922 C920 1.381 . S
C922 C923 1.394 . S
C922 H930 0.930 . S
C923 C922 1.394 . S
C923 C924 1.383 . S
C923 H931 0.929 . S
C924 C923 1.383 . S
C924 C925 1.377 . S
C925 H909 0.930 . S
C925 C924 1.377 . S
C925 C926 1.379 . S
C926 H910 0.931 . S
C926 C920 1.383 . S
C926 C925 1.379 . S
H927 C921 0.959 . S
H928 C921 0.961 . S
H929 C921 0.960 . S
H930 C922 0.930 . S
H931 C923 0.929 . S
H932 C940 0.929 . S
H933 C942 0.930 . S
H934 C944 0.930 . S
H935 C947 0.929 . S
H936 C950 0.930 . S
H937 C952 0.960 . S
H938 C952 0.960 . S
H939 C952 0.960 . S
C940 H932 0.929 . S
C940 C941 1.377 . S
C940 C942 1.384 . S
C941 C940 1.377 . S
C941 C947 1.390 . S
C942 H933 0.930 . S
C942 C940 1.384 . S
C942 C943 1.372 . S
C943 C942 1.372 . S
C943 C944 1.400 . S
C943 C948 1.490 . S
C944 H934 0.930 . S
C944 C943 1.400 . S
C944 C947 1.386 . S
H945 C961 0.930 . S
H946 C962 0.931 . S
C947 H935 0.929 . S
C947 C941 1.390 . S
C947 C944 1.386 . S
C948 C943 1.490 . S
C948 C950 1.395 . S
C948 C951 1.403 . S
H949 C955 0.930 . S
C950 H936 0.930 . S
C950 C948 1.395 . S
C950 C953 1.403 . S
C951 C948 1.403 . S
C951 C952 1.524 . S
C951 C955 1.400 . S
C952 H937 0.960 . S
C952 H938 0.960 . S
C952 H939 0.960 . S
C952 C951 1.524 . S
C953 C950 1.403 . S
C953 C954 1.392 . S
C953 C957 1.495 . S
C954 C953 1.392 . S
C954 C955 1.385 . S
C954 C956 1.478 . S
C955 H949 0.930 . S
C955 C951 1.400 . S
C955 C954 1.385 . S
C956 C954 1.478 . S
C956 C958 1.381 . S
C956 C962 1.383 . S
C957 C953 1.495 . S
C957 H963 0.959 . S
C957 H964 0.961 . S
C957 H965 0.960 . S
C958 C956 1.381 . S
C958 C959 1.394 . S
C958 H966 0.930 . S
C959 C958 1.394 . S
C959 C960 1.383 . S
C959 H967 0.929 . S
C960 C959 1.383 . S
C960 C961 1.377 . S
C961 H945 0.930 . S
C961 C960 1.377 . S
C961 C962 1.379 . S
C962 H946 0.931 . S
C962 C956 1.383 . S
C962 C961 1.379 . S
H963 C957 0.959 . S
H964 C957 0.961 . S
H965 C957 0.960 . S
H966 C958 0.930 . S
H967 C959 0.929 . S
H968 C976 0.929 . S
H969 C978 0.930 . S
H970 C980 0.930 . S
H971 C983 0.929 . S
H972 C986 0.930 . S
H973 C988 0.960 . S
H974 C988 0.960 . S
H975 C988 0.960 . S
C976 H968 0.929 . S
C976 C977 1.377 . S
C976 C978 1.384 . S
C977 C976 1.377 . S
C977 C983 1.390 . S
C978 H969 0.930 . S
C978 C976 1.384 . S
C978 C979 1.372 . S
C979 C978 1.372 . S
C979 C980 1.400 . S
C979 C984 1.490 . S
C980 H970 0.930 . S
C980 C979 1.400 . S
C980 C983 1.386 . S
H981 C997 0.930 . S
H982 C998 0.931 . S
C983 H971 0.929 . S
C983 C977 1.390 . S
C983 C980 1.386 . S
C984 C979 1.490 . S
C984 C986 1.395 . S
C984 C987 1.403 . S
H985 C991 0.930 . S
C986 H972 0.930 . S
C986 C984 1.395 . S
C986 C989 1.403 . S
C987 C984 1.403 . S
C987 C988 1.524 . S
C987 C991 1.400 . S
C988 H973 0.960 . S
C988 H974 0.960 . S
C988 H975 0.960 . S
C988 C987 1.524 . S
C989 C986 1.403 . S
C989 C990 1.392 . S
C989 C993 1.495 . S
C990 C989 1.392 . S
C990 C991 1.385 . S
C990 C992 1.478 . S
C991 H985 0.930 . S
C991 C987 1.400 . S
C991 C990 1.385 . S
C992 C990 1.478 . S
C992 C994 1.381 . S
C992 C998 1.383 . S
C993 C989 1.495 . S
C993 H999 0.959 . S
C993 H1000 0.961 . S
C993 H1001 0.960 . S
C994 C992 1.381 . S
C994 C995 1.394 . S
C994 H1002 0.930 . S
C995 C994 1.394 . S
C995 C996 1.383 . S
C995 H1003 0.929 . S
C996 C995 1.383 . S
C996 C997 1.377 . S
C997 H981 0.930 . S
C997 C996 1.377 . S
C997 C998 1.379 . S
C998 H982 0.931 . S
C998 C992 1.383 . S
C998 C997 1.379 . S
H999 C993 0.959 . S
H1000 C993 0.961 . S
H1001 C993 0.960 . S
H1002 C994 0.930 . S
H1003 C995 0.929 . S
H1004 C1012 0.929 . S
H1005 C1014 0.930 . S
H1006 C1016 0.930 . S
H1007 C1019 0.929 . S
H1008 C1022 0.930 . S
H1009 C1024 0.960 . S
H1010 C1024 0.960 . S
H1011 C1024 0.960 . S
C1012 H1004 0.929 . S
C1012 C1013 1.377 . S
C1012 C1014 1.384 . S
C1013 C1012 1.377 . S
C1013 C1019 1.390 . S
C1014 H1005 0.930 . S
C1014 C1012 1.384 . S
C1014 C1015 1.372 . S
C1015 C1014 1.372 . S
C1015 C1016 1.400 . S
C1015 C1020 1.490 . S
C1016 H1006 0.930 . S
C1016 C1015 1.400 . S
C1016 C1019 1.386 . S
H1017 C1033 0.930 . S
H1018 C1034 0.931 . S
C1019 H1007 0.929 . S
C1019 C1013 1.390 . S
C1019 C1016 1.386 . S
C1020 C1015 1.490 . S
C1020 C1022 1.395 . S
C1020 C1023 1.403 . S
H1021 C1027 0.930 . S
C1022 H1008 0.930 . S
C1022 C1020 1.395 . S
C1022 C1025 1.403 . S
C1023 C1020 1.403 . S
C1023 C1024 1.524 . S
C1023 C1027 1.400 . S
C1024 H1009 0.960 . S
C1024 H1010 0.960 . S
C1024 H1011 0.960 . S
C1024 C1023 1.524 . S
C1025 C1022 1.403 . S
C1025 C1026 1.392 . S
C1025 C1029 1.495 . S
C1026 C1025 1.392 . S
C1026 C1027 1.385 . S
C1026 C1028 1.478 . S
C1027 H1021 0.930 . S
C1027 C1023 1.400 . S
C1027 C1026 1.385 . S
C1028 C1026 1.478 . S
C1028 C1030 1.381 . S
C1028 C1034 1.383 . S
C1029 C1025 1.495 . S
C1029 H1035 0.959 . S
C1029 H1036 0.961 . S
C1029 H1037 0.960 . S
C1030 C1028 1.381 . S
C1030 C1031 1.394 . S
C1030 H1038 0.930 . S
C1031 C1030 1.394 . S
C1031 C1032 1.383 . S
C1031 H1039 0.929 . S
C1032 C1031 1.383 . S
C1032 C1033 1.377 . S
C1033 H1017 0.930 . S
C1033 C1032 1.377 . S
C1033 C1034 1.379 . S
C1034 H1018 0.931 . S
C1034 C1028 1.383 . S
C1034 C1033 1.379 . S
H1035 C1029 0.959 . S
H1036 C1029 0.961 . S
H1037 C1029 0.960 . S
H1038 C1030 0.930 . S
H1039 C1031 0.929 . S
C185 C8 1.717 . S
C204 C114 1.723 . S
C240 C92 1.398 . S
C221 C19 1.406 . S
C276 C118 1.511 . S
C257 C30 1.544 . S
C312 C96 1.538 . S
C293 C41 1.548 . S
C348 C158 1.702 . S
C329 C52 1.718 . S
C384 C136 1.391 . S
C365 C63 1.406 . S
C401 C74 1.544 . S
C420 C162 1.525 . S
C456 C140 1.535 . S
C437 C85 1.548 . S
C473 C7 1.674 . S
C492 C163 1.702 . S
C528 C141 1.299 . S
C509 C16 1.196 . S
C545 C29 1.568 . S
C564 C160 1.554 . S
C581 C40 1.505 . S
C600 C138 1.481 . S
C636 C119 1.724 . S
C617 C51 1.665 . S
C653 C60 1.182 . S
C672 C97 1.284 . S
C708 C116 1.560 . S
C689 C73 1.569 . S
C744 C94 1.484 . S
C725 C84 1.506 . S
C780 C137 1.438 . S
C761 C5 1.209 . S
C816 C159 1.453 . S
C797 C18 1.452 . S
C833 C27 1.353 . S
C852 C139 1.476 . S
C888 C161 1.427 . S
C869 C38 1.315 . S
C924 C93 1.473 . S
C905 C49 1.218 . S
C941 C62 1.452 . S
C960 C115 1.449 . S
C977 C71 1.353 . S
C996 C95 1.476 . S
C1013 C82 1.306 . S
C1032 C117 1.420 . S
