# Generated by pormake.
# Topology gar, (4,6)-cn, num edge types: 1
# Building blocks:
#     Node 0, Type 0, BuildingBlock: UXUYUI_clean_sbu_0, # of connection points: 4
#     Node 1, Type 0, BuildingBlock: UXUYUI_clean_sbu_0, # of connection points: 4
#     Node 2, Type 0, BuildingBlock: UXUYUI_clean_sbu_0, # of connection points: 4
#     Node 3, Type 0, BuildingBlock: UXUYUI_clean_sbu_0, # of connection points: 4
#     Node 4, Type 0, BuildingBlock: UXUYUI_clean_sbu_0, # of connection points: 4
#     Node 5, Type 0, BuildingBlock: UXUYUI_clean_sbu_0, # of connection points: 4
#     Node 6, Type 0, BuildingBlock: UXUYUI_clean_sbu_0, # of connection points: 4
#     Node 7, Type 0, BuildingBlock: UXUYUI_clean_sbu_0, # of connection points: 4
#     Node 8, Type 0, BuildingBlock: UXUYUI_clean_sbu_0, # of connection points: 4
#     Node 9, Type 0, BuildingBlock: UXUYUI_clean_sbu_0, # of connection points: 4
#     Node 10, Type 0, BuildingBlock: UXUYUI_clean_sbu_0, # of connection points: 4
#     Node 11, Type 0, BuildingBlock: UXUYUI_clean_sbu_0, # of connection points: 4
#     Node 12, Type 0, BuildingBlock: UXUYUI_clean_sbu_0, # of connection points: 4
#     Node 13, Type 0, BuildingBlock: UXUYUI_clean_sbu_0, # of connection points: 4
#     Node 14, Type 0, BuildingBlock: UXUYUI_clean_sbu_0, # of connection points: 4
#     Node 15, Type 0, BuildingBlock: UXUYUI_clean_sbu_0, # of connection points: 4
#     Node 16, Type 0, BuildingBlock: UXUYUI_clean_sbu_0, # of connection points: 4
#     Node 17, Type 0, BuildingBlock: UXUYUI_clean_sbu_0, # of connection points: 4
#     Node 18, Type 0, BuildingBlock: UXUYUI_clean_sbu_0, # of connection points: 4
#     Node 19, Type 0, BuildingBlock: UXUYUI_clean_sbu_0, # of connection points: 4
#     Node 20, Type 0, BuildingBlock: UXUYUI_clean_sbu_0, # of connection points: 4
#     Node 21, Type 0, BuildingBlock: UXUYUI_clean_sbu_0, # of connection points: 4
#     Node 22, Type 0, BuildingBlock: UXUYUI_clean_sbu_0, # of connection points: 4
#     Node 23, Type 0, BuildingBlock: UXUYUI_clean_sbu_0, # of connection points: 4
#     Node 24, Type 1, BuildingBlock: HISSIN_clean_sbu_0, # of connection points: 6
#     Node 25, Type 1, BuildingBlock: HISSIN_clean_sbu_0, # of connection points: 6
#     Node 26, Type 1, BuildingBlock: HISSIN_clean_sbu_0, # of connection points: 6
#     Node 27, Type 1, BuildingBlock: HISSIN_clean_sbu_0, # of connection points: 6
#     Node 28, Type 1, BuildingBlock: HISSIN_clean_sbu_0, # of connection points: 6
#     Node 29, Type 1, BuildingBlock: HISSIN_clean_sbu_0, # of connection points: 6
#     Node 30, Type 1, BuildingBlock: HISSIN_clean_sbu_0, # of connection points: 6
#     Node 31, Type 1, BuildingBlock: HISSIN_clean_sbu_0, # of connection points: 6
#     Node 32, Type 1, BuildingBlock: HISSIN_clean_sbu_0, # of connection points: 6
#     Node 33, Type 1, BuildingBlock: HISSIN_clean_sbu_0, # of connection points: 6
#     Node 34, Type 1, BuildingBlock: HISSIN_clean_sbu_0, # of connection points: 6
#     Node 35, Type 1, BuildingBlock: HISSIN_clean_sbu_0, # of connection points: 6
#     Node 36, Type 1, BuildingBlock: HISSIN_clean_sbu_0, # of connection points: 6
#     Node 37, Type 1, BuildingBlock: HISSIN_clean_sbu_0, # of connection points: 6
#     Node 38, Type 1, BuildingBlock: HISSIN_clean_sbu_0, # of connection points: 6
#     Node 39, Type 1, BuildingBlock: HISSIN_clean_sbu_0, # of connection points: 6
#     Edge 40, Type (0, 1), BuildingBlock: OJICUG_clean_linker_0, # of connection points: 2
#     Edge 41, Type (0, 1), BuildingBlock: OJICUG_clean_linker_0, # of connection points: 2
#     Edge 42, Type (0, 1), BuildingBlock: OJICUG_clean_linker_0, # of connection points: 2
#     Edge 43, Type (0, 1), BuildingBlock: OJICUG_clean_linker_0, # of connection points: 2
#     Edge 44, Type (0, 1), BuildingBlock: OJICUG_clean_linker_0, # of connection points: 2
#     Edge 45, Type (0, 1), BuildingBlock: OJICUG_clean_linker_0, # of connection points: 2
#     Edge 46, Type (0, 1), BuildingBlock: OJICUG_clean_linker_0, # of connection points: 2
#     Edge 47, Type (0, 1), BuildingBlock: OJICUG_clean_linker_0, # of connection points: 2
#     Edge 48, Type (0, 1), BuildingBlock: OJICUG_clean_linker_0, # of connection points: 2
#     Edge 49, Type (0, 1), BuildingBlock: OJICUG_clean_linker_0, # of connection points: 2
#     Edge 50, Type (0, 1), BuildingBlock: OJICUG_clean_linker_0, # of connection points: 2
#     Edge 51, Type (0, 1), BuildingBlock: OJICUG_clean_linker_0, # of connection points: 2
#     Edge 52, Type (0, 1), BuildingBlock: OJICUG_clean_linker_0, # of connection points: 2
#     Edge 53, Type (0, 1), BuildingBlock: OJICUG_clean_linker_0, # of connection points: 2
#     Edge 54, Type (0, 1), BuildingBlock: OJICUG_clean_linker_0, # of connection points: 2
#     Edge 55, Type (0, 1), BuildingBlock: OJICUG_clean_linker_0, # of connection points: 2
#     Edge 56, Type (0, 1), BuildingBlock: OJICUG_clean_linker_0, # of connection points: 2
#     Edge 57, Type (0, 1), BuildingBlock: OJICUG_clean_linker_0, # of connection points: 2
#     Edge 58, Type (0, 1), BuildingBlock: OJICUG_clean_linker_0, # of connection points: 2
#     Edge 59, Type (0, 1), BuildingBlock: OJICUG_clean_linker_0, # of connection points: 2
#     Edge 60, Type (0, 1), BuildingBlock: OJICUG_clean_linker_0, # of connection points: 2
#     Edge 61, Type (0, 1), BuildingBlock: OJICUG_clean_linker_0, # of connection points: 2
#     Edge 62, Type (0, 1), BuildingBlock: OJICUG_clean_linker_0, # of connection points: 2
#     Edge 63, Type (0, 1), BuildingBlock: OJICUG_clean_linker_0, # of connection points: 2
#     Edge 64, Type (0, 1), BuildingBlock: OJICUG_clean_linker_0, # of connection points: 2
#     Edge 65, Type (0, 1), BuildingBlock: OJICUG_clean_linker_0, # of connection points: 2
#     Edge 66, Type (0, 1), BuildingBlock: OJICUG_clean_linker_0, # of connection points: 2
#     Edge 67, Type (0, 1), BuildingBlock: OJICUG_clean_linker_0, # of connection points: 2
#     Edge 68, Type (0, 1), BuildingBlock: OJICUG_clean_linker_0, # of connection points: 2
#     Edge 69, Type (0, 1), BuildingBlock: OJICUG_clean_linker_0, # of connection points: 2
#     Edge 70, Type (0, 1), BuildingBlock: OJICUG_clean_linker_0, # of connection points: 2
#     Edge 71, Type (0, 1), BuildingBlock: OJICUG_clean_linker_0, # of connection points: 2
#     Edge 72, Type (0, 1), BuildingBlock: OJICUG_clean_linker_0, # of connection points: 2
#     Edge 73, Type (0, 1), BuildingBlock: OJICUG_clean_linker_0, # of connection points: 2
#     Edge 74, Type (0, 1), BuildingBlock: OJICUG_clean_linker_0, # of connection points: 2
#     Edge 75, Type (0, 1), BuildingBlock: OJICUG_clean_linker_0, # of connection points: 2
#     Edge 76, Type (0, 1), BuildingBlock: OJICUG_clean_linker_0, # of connection points: 2
#     Edge 77, Type (0, 1), BuildingBlock: OJICUG_clean_linker_0, # of connection points: 2
#     Edge 78, Type (0, 1), BuildingBlock: OJICUG_clean_linker_0, # of connection points: 2
#     Edge 79, Type (0, 1), BuildingBlock: OJICUG_clean_linker_0, # of connection points: 2
#     Edge 80, Type (0, 1), BuildingBlock: OJICUG_clean_linker_0, # of connection points: 2
#     Edge 81, Type (0, 1), BuildingBlock: OJICUG_clean_linker_0, # of connection points: 2
#     Edge 82, Type (0, 1), BuildingBlock: OJICUG_clean_linker_0, # of connection points: 2
#     Edge 83, Type (0, 1), BuildingBlock: OJICUG_clean_linker_0, # of connection points: 2
#     Edge 84, Type (0, 1), BuildingBlock: OJICUG_clean_linker_0, # of connection points: 2
#     Edge 85, Type (0, 1), BuildingBlock: OJICUG_clean_linker_0, # of connection points: 2
#     Edge 86, Type (0, 1), BuildingBlock: OJICUG_clean_linker_0, # of connection points: 2
#     Edge 87, Type (0, 1), BuildingBlock: OJICUG_clean_linker_0, # of connection points: 2
#     Edge 88, Type (0, 1), BuildingBlock: OJICUG_clean_linker_0, # of connection points: 2
#     Edge 89, Type (0, 1), BuildingBlock: OJICUG_clean_linker_0, # of connection points: 2
#     Edge 90, Type (0, 1), BuildingBlock: OJICUG_clean_linker_0, # of connection points: 2
#     Edge 91, Type (0, 1), BuildingBlock: OJICUG_clean_linker_0, # of connection points: 2
#     Edge 92, Type (0, 1), BuildingBlock: OJICUG_clean_linker_0, # of connection points: 2
#     Edge 93, Type (0, 1), BuildingBlock: OJICUG_clean_linker_0, # of connection points: 2
#     Edge 94, Type (0, 1), BuildingBlock: OJICUG_clean_linker_0, # of connection points: 2
#     Edge 95, Type (0, 1), BuildingBlock: OJICUG_clean_linker_0, # of connection points: 2
#     Edge 96, Type (0, 1), BuildingBlock: OJICUG_clean_linker_0, # of connection points: 2
#     Edge 97, Type (0, 1), BuildingBlock: OJICUG_clean_linker_0, # of connection points: 2
#     Edge 98, Type (0, 1), BuildingBlock: OJICUG_clean_linker_0, # of connection points: 2
#     Edge 99, Type (0, 1), BuildingBlock: OJICUG_clean_linker_0, # of connection points: 2
#     Edge 100, Type (0, 1), BuildingBlock: OJICUG_clean_linker_0, # of connection points: 2
#     Edge 101, Type (0, 1), BuildingBlock: OJICUG_clean_linker_0, # of connection points: 2
#     Edge 102, Type (0, 1), BuildingBlock: OJICUG_clean_linker_0, # of connection points: 2
#     Edge 103, Type (0, 1), BuildingBlock: OJICUG_clean_linker_0, # of connection points: 2
#     Edge 104, Type (0, 1), BuildingBlock: OJICUG_clean_linker_0, # of connection points: 2
#     Edge 105, Type (0, 1), BuildingBlock: OJICUG_clean_linker_0, # of connection points: 2
#     Edge 106, Type (0, 1), BuildingBlock: OJICUG_clean_linker_0, # of connection points: 2
#     Edge 107, Type (0, 1), BuildingBlock: OJICUG_clean_linker_0, # of connection points: 2
#     Edge 108, Type (0, 1), BuildingBlock: OJICUG_clean_linker_0, # of connection points: 2
#     Edge 109, Type (0, 1), BuildingBlock: OJICUG_clean_linker_0, # of connection points: 2
#     Edge 110, Type (0, 1), BuildingBlock: OJICUG_clean_linker_0, # of connection points: 2
#     Edge 111, Type (0, 1), BuildingBlock: OJICUG_clean_linker_0, # of connection points: 2
#     Edge 112, Type (0, 1), BuildingBlock: OJICUG_clean_linker_0, # of connection points: 2
#     Edge 113, Type (0, 1), BuildingBlock: OJICUG_clean_linker_0, # of connection points: 2
#     Edge 114, Type (0, 1), BuildingBlock: OJICUG_clean_linker_0, # of connection points: 2
#     Edge 115, Type (0, 1), BuildingBlock: OJICUG_clean_linker_0, # of connection points: 2
#     Edge 116, Type (0, 1), BuildingBlock: OJICUG_clean_linker_0, # of connection points: 2
#     Edge 117, Type (0, 1), BuildingBlock: OJICUG_clean_linker_0, # of connection points: 2
#     Edge 118, Type (0, 1), BuildingBlock: OJICUG_clean_linker_0, # of connection points: 2
#     Edge 119, Type (0, 1), BuildingBlock: OJICUG_clean_linker_0, # of connection points: 2
#     Edge 120, Type (0, 1), BuildingBlock: OJICUG_clean_linker_0, # of connection points: 2
#     Edge 121, Type (0, 1), BuildingBlock: OJICUG_clean_linker_0, # of connection points: 2
#     Edge 122, Type (0, 1), BuildingBlock: OJICUG_clean_linker_0, # of connection points: 2
#     Edge 123, Type (0, 1), BuildingBlock: OJICUG_clean_linker_0, # of connection points: 2
#     Edge 124, Type (0, 1), BuildingBlock: OJICUG_clean_linker_0, # of connection points: 2
#     Edge 125, Type (0, 1), BuildingBlock: OJICUG_clean_linker_0, # of connection points: 2
#     Edge 126, Type (0, 1), BuildingBlock: OJICUG_clean_linker_0, # of connection points: 2
#     Edge 127, Type (0, 1), BuildingBlock: OJICUG_clean_linker_0, # of connection points: 2
#     Edge 128, Type (0, 1), BuildingBlock: OJICUG_clean_linker_0, # of connection points: 2
#     Edge 129, Type (0, 1), BuildingBlock: OJICUG_clean_linker_0, # of connection points: 2
#     Edge 130, Type (0, 1), BuildingBlock: OJICUG_clean_linker_0, # of connection points: 2
#     Edge 131, Type (0, 1), BuildingBlock: OJICUG_clean_linker_0, # of connection points: 2
#     Edge 132, Type (0, 1), BuildingBlock: OJICUG_clean_linker_0, # of connection points: 2
#     Edge 133, Type (0, 1), BuildingBlock: OJICUG_clean_linker_0, # of connection points: 2
#     Edge 134, Type (0, 1), BuildingBlock: OJICUG_clean_linker_0, # of connection points: 2
#     Edge 135, Type (0, 1), BuildingBlock: OJICUG_clean_linker_0, # of connection points: 2
# Relax obj value: 0.216
# Max RMSD: 0.290
# Mean RMSD: 0.190
data_MOF--net-gar--node1-UXUYUI_clean_sbu_0--node2-HISSIN_clean_sbu_0--edge1-OJICUG_clean_linker_0
_symmetry_space_group_name_H-M    P1
_symmetry_Int_Tables_number       1
_symmetry_cell_setting            triclinic
loop_
_symmetry_equiv_pos_as_xyz
'x, y, z'
_cell_length_a     57.700718
_cell_length_b     57.646143
_cell_length_c     55.887819
_cell_angle_alpha  100.7956
_cell_angle_beta   93.394269
_cell_angle_gamma 100.73891
loop_
_atom_site_label
_atom_site_type_symbol
_atom_site_fract_x
_atom_site_fract_y
_atom_site_fract_z
_atom_type_partial_charge
Li0 Li 0.09091 0.31571 0.38159 0.0
Li1 Li 0.10869 0.34556 0.41583 0.0
Li2 Li 0.13264 0.32328 0.39189 0.0
Li3 Li 0.10454 0.3043 0.41908 0.0
C4 C 0.10503 0.3619 0.37137 0.0
N5 N 0.08619 0.39557 0.35152 0.0
C6 C 0.08311 0.3669 0.37755 0.0
C7 C 0.1174 0.37405 0.35513 0.0
C8 C 0.07387 0.38397 0.36732 0.0
C9 C 0.10756 0.391 0.34527 0.0
C10 C 0.06028 0.3242 0.42649 0.0
C11 C 0.0406 0.32374 0.46338 0.0
N12 N 0.02133 0.32914 0.45211 0.0
C13 C 0.04014 0.32945 0.41519 0.0
C14 C 0.06038 0.32102 0.4507 0.0
C15 C 0.02069 0.33199 0.42848 0.0
C16 C 0.04674 0.29121 0.35873 0.0
N17 N 0.0668 0.30644 0.35571 0.0
C18 C 0.0498 0.31211 0.31796 0.0
C19 C 0.06912 0.31582 0.33526 0.0
C20 C 0.02815 0.29779 0.32132 0.0
C21 C 0.0272 0.28624 0.34142 0.0
H22 H 0.04571 0.2836 0.37502 0.0
H23 H 0.08565 0.32705 0.33284 0.0
C24 C 0.11759 0.39653 0.4257 0.0
N25 N 0.10766 0.37649 0.43383 0.0
C26 C 0.11407 0.41907 0.43705 0.0
C27 C 0.09222 0.40008 0.46628 0.0
C28 C 0.096 0.378 0.45425 0.0
C29 C 0.10083 0.42083 0.45728 0.0
H30 H 0.12786 0.395 0.41015 0.0
H31 H 0.08958 0.36209 0.4612 0.0
C32 C 0.10085 0.27403 0.36487 0.0
N33 N 0.07982 0.24005 0.32403 0.0
C34 C 0.08464 0.2536 0.36745 0.0
C35 C 0.10657 0.27707 0.34154 0.0
C36 C 0.07415 0.23665 0.34657 0.0
C37 C 0.09569 0.25971 0.32111 0.0
C38 C 0.14376 0.34812 0.44754 0.0
C39 C 0.16101 0.36727 0.44382 0.0
C40 C 0.13622 0.34806 0.47084 0.0
C41 C 0.17025 0.38625 0.46349 0.0
C42 C 0.14592 0.36736 0.49004 0.0
N43 N 0.16256 0.38591 0.48599 0.0
C44 C 0.17427 0.34305 0.37357 0.0
C45 C 0.1653 0.30053 0.36974 0.0
C46 C 0.1937 0.34151 0.36011 0.0
N47 N 0.16066 0.32268 0.37794 0.0
C48 C 0.1841 0.29809 0.35582 0.0
C49 C 0.19864 0.31874 0.35086 0.0
H50 H 0.16969 0.36035 0.38005 0.0
H51 H 0.15385 0.2847 0.37331 0.0
C52 C 0.07654 0.26809 0.43663 0.0
N53 N 0.09865 0.28187 0.4389 0.0
C54 C 0.07103 0.25167 0.45176 0.0
C55 C 0.11133 0.26389 0.47103 0.0
C56 C 0.11604 0.28011 0.45551 0.0
C57 C 0.08856 0.24949 0.46925 0.0
H58 H 0.06316 0.27006 0.42316 0.0
H59 H 0.13345 0.29142 0.45676 0.0
O60 O 0.11458 0.34533 0.38118 0.0
O61 O 0.07931 0.32108 0.41354 0.0
O62 O 0.11069 0.29125 0.385 0.0
O63 O 0.13397 0.32979 0.42834 0.0
H64 H 0.07351 0.35791 0.3903 0.0
H65 H 0.13442 0.3704 0.3502 0.0
H66 H 0.05695 0.38805 0.372 0.0
H67 H 0.11693 0.40054 0.33267 0.0
H68 H 0.04058 0.32159 0.4822 0.0
H69 H 0.0394 0.3314 0.39631 0.0
H70 H 0.07577 0.317 0.45982 0.0
H71 H 1.00505 0.33614 0.41998 0.0
H72 H 0.05161 0.32159 0.30299 0.0
H73 H 1.01127 0.27432 0.3444 0.0
H74 H 0.12154 0.43488 0.4301 0.0
H75 H 0.08216 0.40082 0.48207 0.0
H76 H 0.08006 0.25094 0.38536 0.0
H77 H 0.11896 0.29289 0.33922 0.0
H78 H 0.06144 0.22083 0.34829 0.0
H79 H 0.09978 0.26194 0.30294 0.0
H80 H 0.16695 0.36762 0.42587 0.0
H81 H 0.12275 0.33346 0.47397 0.0
H82 H 0.18346 0.40129 0.46084 0.0
H83 H 0.14012 0.36765 0.50813 0.0
H84 H 0.20459 0.35787 0.35691 0.0
H85 H 0.1868 0.28012 0.34855 0.0
H86 H 0.05338 0.24061 0.44959 0.0
H87 H 0.12524 0.26278 0.48441 0.0
Li88 Li 0.02028 0.79257 0.62922 0.0
Li89 Li 0.0346 0.78048 0.6669 0.0
Li90 Li 1.01165 0.75151 0.6342 0.0
Li91 Li 0.99393 0.77885 0.65926 0.0
C92 C 0.05525 0.75798 0.6193 0.0
N93 N 0.07863 0.72713 0.59066 0.0
C94 C 0.06885 0.74433 0.63014 0.0
C95 C 0.05373 0.75614 0.59394 0.0
C96 C 0.08047 0.72877 0.61532 0.0
C97 C 0.06567 0.74041 0.57977 0.0
C98 C 0.03568 0.82612 0.67949 0.0
C99 C 0.05474 0.84502 0.7199 0.0
N100 N 0.06957 0.86112 0.71004 0.0
C101 C 0.051 0.84301 0.66984 0.0
C102 C 0.03742 0.8273 0.7048 0.0
C103 C 0.06804 0.86051 0.68555 0.0
C104 C 1.00965 0.82372 0.59972 0.0
N105 N 0.02709 0.81357 0.6081 0.0
C106 C 0.05568 0.83587 0.5877 0.0
C107 C 0.04971 0.81911 0.60239 0.0
C108 C 0.03809 0.8468 0.57876 0.0
C109 C 1.01475 0.84037 0.58472 0.0
H110 H 0.99185 0.81889 0.60481 0.0
H111 H 0.06321 0.81099 0.60984 0.0
C112 C 0.057 0.77791 0.71143 0.0
N113 N 0.06059 0.78525 0.69003 0.0
C114 C 0.07606 0.77951 0.7284 0.0
C115 C 0.10226 0.79604 0.70081 0.0
C116 C 0.08254 0.79459 0.68456 0.0
C117 C 0.09913 0.788 0.72289 0.0
H118 H 0.0394 0.77034 0.7151 0.0
H119 H 0.08473 0.8001 0.66722 0.0
C120 C 0.97644 0.75509 0.6026 0.0
N121 N 0.95124 0.72457 0.56141 0.0
C122 C 0.95978 0.73484 0.60487 0.0
C123 C 0.98016 0.75989 0.57936 0.0
C124 C 0.94726 0.71961 0.58383 0.0
C125 C 0.96726 0.74423 0.55876 0.0
C126 C 0.99179 0.74276 0.68164 0.0
C127 C 0.97628 0.7214 0.67004 0.0
C128 C 0.98919 0.75304 0.70584 0.0
C129 C 0.95859 0.71068 0.68282 0.0
C130 C 0.97124 0.74178 0.71798 0.0
N131 N 0.95645 0.721 0.70632 0.0
C132 C 0.01906 0.70592 0.63276 0.0
C133 C 1.00888 0.71249 0.59317 0.0
C134 C 0.02459 0.68393 0.62283 0.0
N135 N 1.01149 0.71972 0.61793 0.0
C136 C 1.01418 0.69056 0.58242 0.0
C137 C 0.02262 0.67631 0.59736 0.0
H138 H 0.02221 0.71266 0.65229 0.0
H139 H 1.00436 0.72432 0.58166 0.0
C140 C 0.97165 0.8035 0.69432 0.0
N141 N 0.96753 0.78432 0.67534 0.0
C142 C 0.95513 0.80599 0.71112 0.0
C143 C 0.92942 0.77003 0.68719 0.0
C144 C 0.94668 0.76809 0.67098 0.0
C145 C 0.93393 0.78881 0.70793 0.0
H146 H 0.98824 0.81623 0.69711 0.0
H147 H 0.94397 0.75298 0.65577 0.0
O148 O 0.04319 0.77278 0.63342 0.0
O149 O 0.01917 0.8085 0.66428 0.0
O150 O 0.98875 0.77037 0.62299 0.0
O151 O 1.00921 0.75363 0.66933 0.0
H152 H 0.0701 0.74548 0.64974 0.0
H153 H 0.04308 0.7664 0.58524 0.0
H154 H 0.09086 0.71791 0.62342 0.0
H155 H 0.06448 0.73863 0.5601 0.0
H156 H 0.05646 0.8459 0.73944 0.0
H157 H 0.04979 0.8427 0.65044 0.0
H158 H 0.02594 0.81427 0.71269 0.0
H159 H 0.08005 0.87362 0.67827 0.0
H160 H 0.07397 0.84068 0.58397 0.0
H161 H 1.00063 0.84817 0.57797 0.0
H162 H 0.07277 0.77351 0.74535 0.0
H163 H 0.11974 0.80232 0.69558 0.0
H164 H 0.95674 0.73071 0.6226 0.0
H165 H 0.99308 0.77532 0.57716 0.0
H166 H 0.93443 0.7038 0.58534 0.0
H167 H 0.97009 0.74764 0.54066 0.0
H168 H 0.97762 0.71325 0.65128 0.0
H169 H 1.00038 0.76995 0.71497 0.0
H170 H 0.94648 0.6942 0.674 0.0
H171 H 0.96891 0.74971 0.73659 0.0
H172 H 0.03164 0.67372 0.63491 0.0
H173 H 1.0126 0.68527 0.56265 0.0
H174 H 0.95937 0.82068 0.7269 0.0
H175 H 0.91302 0.75673 0.68383 0.0
Li176 Li 0.58922 0.81591 0.88247 0.0
Li177 Li 0.60805 0.84701 0.91889 0.0
Li178 Li 0.63076 0.8226 0.89452 0.0
Li179 Li 0.60168 0.80488 0.92029 0.0
C180 C 0.62725 0.85902 0.87101 0.0
N181 N 0.65649 0.88576 0.84434 0.0
C182 C 0.63994 0.88206 0.88194 0.0
C183 C 0.62913 0.84975 0.8464 0.0
C184 C 0.6547 0.89526 0.86818 0.0
C185 C 0.6441 0.8635 0.83326 0.0
C186 C 0.55925 0.81974 0.92859 0.0
C187 C 0.54344 0.82446 0.9678 0.0
N188 N 0.52206 0.81147 0.95687 0.0
C189 C 0.53704 0.80674 0.91769 0.0
C190 C 0.56242 0.82892 0.95379 0.0
C191 C 0.5185 0.80262 0.93232 0.0
C192 C 0.55 0.7888 0.84918 0.0
N193 N 0.5658 0.81001 0.85631 0.0
C194 C 0.54718 0.82748 0.82705 0.0
C195 C 0.56477 0.82914 0.84568 0.0
C196 C 0.53054 0.80581 0.81914 0.0
C197 C 0.53238 0.78612 0.83016 0.0
H198 H 0.55072 0.77415 0.85856 0.0
H199 H 0.57711 0.84602 0.85229 0.0
C200 C 0.62315 0.89494 0.94797 0.0
N201 N 0.60512 0.8774 0.93552 0.0
C202 C 0.61858 0.91713 0.95914 0.0
C203 C 0.57721 0.90273 0.94399 0.0
C204 C 0.58262 0.88106 0.93294 0.0
C205 C 0.5953 0.92096 0.95732 0.0
H206 H 0.64104 0.89197 0.94887 0.0
H207 H 0.56885 0.86721 0.92202 0.0
C208 C 0.59866 0.77214 0.86768 0.0
N209 N 0.5799 0.73404 0.82944 0.0
C210 C 0.58656 0.75035 0.8724 0.0
C211 C 0.60163 0.77436 0.8435 0.0
C212 C 0.57709 0.73135 0.85282 0.0
C213 C 0.59192 0.75495 0.82442 0.0
C214 C 0.64407 0.84408 0.95136 0.0
C215 C 0.66688 0.85702 0.95022 0.0
C216 C 0.63428 0.84596 0.97376 0.0
C217 C 0.67924 0.87219 0.97138 0.0
C218 C 0.64721 0.86131 0.99451 0.0
N219 N 0.66922 0.87404 0.99289 0.0
C220 C 0.67648 0.84088 0.88131 0.0
C221 C 0.66044 0.79915 0.86772 0.0
C222 C 0.69538 0.83907 0.86716 0.0
N223 N 0.65928 0.82112 0.88082 0.0
C224 C 0.6786 0.7966 0.85297 0.0
C225 C 0.69628 0.81675 0.85239 0.0
H226 H 0.6752 0.85813 0.89204 0.0
H227 H 0.64689 0.78365 0.86811 0.0
C228 C 0.57196 0.76844 0.93582 0.0
N229 N 0.59394 0.78263 0.94012 0.0
C230 C 0.56508 0.75173 0.95026 0.0
C231 C 0.60397 0.76403 0.97282 0.0
C232 C 0.60997 0.78082 0.9581 0.0
C233 C 0.58126 0.74919 0.96888 0.0
H234 H 0.5599 0.76985 0.92089 0.0
H235 H 0.62746 0.79217 0.96076 0.0
O236 O 0.61284 0.84576 0.88426 0.0
O237 O 0.57765 0.82375 0.91453 0.0
O238 O 0.60793 0.79102 0.88664 0.0
O239 O 0.63168 0.82922 0.93079 0.0
H240 H 0.63863 0.88957 0.90091 0.0
H241 H 0.61919 0.83211 0.83756 0.0
H242 H 0.66478 0.91302 0.87647 0.0
H243 H 0.64585 0.85647 0.81425 0.0
H244 H 0.54568 0.83138 0.98735 0.0
H245 H 0.53423 0.79969 0.89817 0.0
H246 H 0.57931 0.83949 0.96242 0.0
H247 H 0.50128 0.79239 0.92417 0.0
H248 H 0.54603 0.84344 0.81983 0.0
H249 H 0.51996 0.76907 0.82467 0.0
H250 H 0.63296 0.93103 0.96916 0.0
H251 H 0.55916 0.90537 0.94178 0.0
H252 H 0.58455 0.74805 0.89095 0.0
H253 H 0.61118 0.79096 0.83951 0.0
H254 H 0.56755 0.71445 0.85622 0.0
H255 H 0.5939 0.75652 0.80564 0.0
H256 H 0.67492 0.85547 0.93321 0.0
H257 H 0.61695 0.83561 0.97514 0.0
H258 H 0.69681 0.8825 0.97068 0.0
H259 H 0.63978 0.86304 1.01193 0.0
H260 H 0.70894 0.85494 0.86764 0.0
H261 H 0.67837 0.77908 0.8417 0.0
H262 H 0.54733 0.74084 0.94673 0.0
H263 H 0.61712 0.76231 0.98667 0.0
Li264 Li 0.52659 0.29644 0.13639 0.0
Li265 Li 0.54015 0.2832 0.17375 0.0
Li266 Li 0.51737 0.25516 0.13998 0.0
Li267 Li 0.49953 0.28225 0.16552 0.0
C268 C 0.56144 0.26117 0.12668 0.0
N269 N 0.58471 0.22961 0.09888 0.0
C270 C 0.5747 0.24757 0.13799 0.0
C271 C 0.56023 0.25897 0.10128 0.0
C272 C 0.58627 0.23163 0.12359 0.0
C273 C 0.57209 0.24287 0.08754 0.0
C274 C 0.5408 0.32977 0.18692 0.0
C275 C 0.5593 0.34925 0.2274 0.0
N276 N 0.57253 0.36669 0.21776 0.0
C277 C 0.55448 0.34801 0.17749 0.0
C278 C 0.54312 0.33049 0.21214 0.0
C279 C 0.57045 0.36647 0.19335 0.0
C280 C 0.5162 0.32838 0.10814 0.0
N281 N 0.53366 0.3179 0.11586 0.0
C282 C 0.5617 0.33963 0.09444 0.0
C283 C 0.55606 0.32307 0.10943 0.0
C284 C 0.54401 0.35075 0.08603 0.0
C285 C 0.52096 0.34485 0.09293 0.0
H286 H 0.49858 0.32378 0.11376 0.0
H287 H 0.56958 0.31461 0.11629 0.0
C288 C 0.56134 0.27007 0.21279 0.0
N289 N 0.56488 0.28622 0.19789 0.0
C290 C 0.57887 0.27006 0.23081 0.0
C291 C 0.60356 0.30336 0.21783 0.0
C292 C 0.58549 0.3026 0.19983 0.0
C293 C 0.60031 0.28668 0.23328 0.0
H294 H 0.54516 0.25671 0.21028 0.0
H295 H 0.58794 0.31482 0.18725 0.0
C296 C 0.48266 0.25985 0.10845 0.0
N297 N 0.45767 0.2304 0.06653 0.0
C298 C 0.46582 0.23948 0.11004 0.0
C299 C 0.4867 0.26528 0.08549 0.0
C300 C 0.45341 0.2248 0.08865 0.0
C301 C 0.4739 0.25017 0.06453 0.0
C302 C 0.49731 0.24615 0.18768 0.0
C303 C 0.4806 0.22557 0.17647 0.0
C304 C 0.4965 0.25627 0.21233 0.0
C305 C 0.46317 0.21562 0.19002 0.0
C306 C 0.47876 0.24582 0.22523 0.0
N307 N 0.46259 0.22589 0.2139 0.0
C308 C 0.52398 0.2091 0.13794 0.0
C309 C 0.51377 0.21628 0.09863 0.0
C310 C 0.52913 0.187 0.12767 0.0
N311 N 0.51675 0.22334 0.12339 0.0
C312 C 0.5183 0.19411 0.08758 0.0
C313 C 0.52679 0.17952 0.10215 0.0
H314 H 0.52724 0.21561 0.15751 0.0
H315 H 0.50942 0.22835 0.08732 0.0
C316 C 0.47729 0.30487 0.20249 0.0
N317 N 0.47313 0.28753 0.18179 0.0
C318 C 0.46014 0.30632 0.21879 0.0
C319 C 0.43394 0.27339 0.19091 0.0
C320 C 0.45179 0.27236 0.17533 0.0
C321 C 0.43838 0.29 0.21337 0.0
H322 H 0.49435 0.31676 0.207 0.0
H323 H 0.44902 0.25876 0.15875 0.0
O324 O 0.54941 0.27632 0.14038 0.0
O325 O 0.52501 0.31155 0.17161 0.0
O326 O 0.49485 0.27461 0.1292 0.0
O327 O 0.51429 0.25645 0.1746 0.0
H328 H 0.57577 0.24906 0.15764 0.0
H329 H 0.54989 0.26927 0.09225 0.0
H330 H 0.59642 0.22081 0.13206 0.0
H331 H 0.57112 0.24079 0.06784 0.0
H332 H 0.56144 0.34984 0.24688 0.0
H333 H 0.55276 0.34804 0.15815 0.0
H334 H 0.53301 0.31638 0.21983 0.0
H335 H 0.58118 0.38065 0.18626 0.0
H336 H 0.57977 0.34402 0.08991 0.0
H337 H 0.50676 0.35279 0.08658 0.0
H338 H 0.57594 0.2568 0.24231 0.0
H339 H 0.62017 0.31608 0.21898 0.0
H340 H 0.46259 0.23479 0.12752 0.0
H341 H 0.49978 0.28079 0.08379 0.0
H342 H 0.44045 0.2089 0.08964 0.0
H343 H 0.47695 0.2541 0.04666 0.0
H344 H 0.48095 0.2174 0.15748 0.0
H345 H 0.5092 0.27229 0.22129 0.0
H346 H 0.45006 0.19977 0.18152 0.0
H347 H 0.47778 0.25362 0.24423 0.0
H348 H 0.53615 0.17659 0.13954 0.0
H349 H 0.51612 0.18894 0.0678 0.0
H350 H 0.46433 0.31936 0.23589 0.0
H351 H 0.41711 0.26092 0.1857 0.0
Li352 Li 0.10847 0.80839 0.11892 0.0
Li353 Li 0.12594 0.79935 0.15605 0.0
Li354 Li 0.11177 0.76728 0.12169 0.0
Li355 Li 0.08581 0.78644 0.14512 0.0
C356 C 0.15547 0.78599 0.11363 0.0
N357 N 0.19029 0.76373 0.09347 0.0
C358 C 0.17215 0.77924 0.12871 0.0
C359 C 0.1566 0.78154 0.08831 0.0
C360 C 0.1896 0.76801 0.11817 0.0
C361 C 0.17429 0.77021 0.07847 0.0
C362 C 0.11095 0.83735 0.17376 0.0
C363 C 0.11359 0.85088 0.21757 0.0
N364 N 0.12942 0.871 0.2158 0.0
C365 C 0.12723 0.85821 0.17238 0.0
C366 C 0.10405 0.83367 0.19654 0.0
C367 C 0.13636 0.87499 0.19383 0.0
C368 C 0.10456 0.85165 0.10562 0.0
N369 N 0.10776 0.82891 0.09742 0.0
C370 C 0.1057 0.8339 0.05609 0.0
C371 C 0.10824 0.81974 0.07329 0.0
C372 C 0.1025 0.85754 0.06402 0.0
C373 C 0.10209 0.86649 0.08912 0.0
H374 H 0.10299 0.85791 0.12479 0.0
H375 H 0.10979 0.80118 0.0674 0.0
C376 C 0.14985 0.79811 0.20002 0.0
N377 N 0.14994 0.81027 0.18146 0.0
C378 C 0.16933 0.80316 0.21729 0.0
C379 C 0.18792 0.83415 0.1967 0.0
C380 C 0.1682 0.82824 0.17962 0.0
C381 C 0.18898 0.82082 0.2152 0.0
H382 H 0.13534 0.78352 0.20057 0.0
H383 H 0.16787 0.83713 0.16423 0.0
C384 C 0.06087 0.77209 0.10227 0.0
N385 N 1.01237 0.75965 0.09061 0.0
C386 C 0.04919 0.74799 0.09874 0.0
C387 C 0.04793 0.78984 0.09966 0.0
C388 C 0.02465 0.74208 0.0929 0.0
C389 C 0.0234 0.78318 0.09382 0.0
C390 C 0.09447 0.75085 0.16726 0.0
C391 C 0.08715 0.72675 0.15527 0.0
C392 C 0.08818 0.75817 0.19088 0.0
C393 C 0.0735 0.71044 0.16703 0.0
C394 C 0.0745 0.74132 0.202 0.0
N395 N 0.0675 0.71801 0.18994 0.0
C396 C 0.13242 0.72665 0.11204 0.0
C397 C 0.1045 0.73082 0.081 0.0
C398 C 0.13473 0.70442 0.09867 0.0
N399 N 0.11718 0.73899 0.10314 0.0
C400 C 0.1057 0.70843 0.06737 0.0
C401 C 0.12066 0.69468 0.07636 0.0
H402 H 0.14218 0.73375 0.12983 0.0
H403 H 0.09275 0.7413 0.07439 0.0
C404 C 0.04843 0.80373 0.16515 0.0
N405 N 0.05573 0.78289 0.15668 0.0
C406 C 0.02724 0.80314 0.17574 0.0
C407 C 0.0207 0.75954 0.16711 0.0
C408 C 0.04194 0.761 0.15653 0.0
C409 C 1.01353 0.78084 0.17733 0.0
H410 H 0.05929 0.82086 0.16416 0.0
H411 H 0.04753 0.74468 0.14856 0.0
O412 O 0.13792 0.79655 0.12354 0.0
O413 O 0.10226 0.82034 0.15303 0.0
O414 O 0.0848 0.77833 0.10862 0.0
O415 O 0.10807 0.76706 0.15614 0.0
H416 H 0.17143 0.78226 0.14831 0.0
H417 H 0.14382 0.78654 0.07634 0.0
H418 H 0.20253 0.76256 0.12962 0.0
H419 H 0.17527 0.76653 0.05889 0.0
H420 H 0.10846 0.84819 0.23531 0.0
H421 H 0.13331 0.86112 0.15505 0.0
H422 H 0.09162 0.81759 0.19802 0.0
H423 H 0.14914 0.89108 0.19304 0.0
H424 H 0.10575 0.82635 0.03683 0.0
H425 H 0.09883 0.88437 0.09581 0.0
H426 H 0.16969 0.7921 0.23094 0.0
H427 H 0.20276 0.84796 0.19459 0.0
H428 H 0.0589 0.73406 0.10099 0.0
H429 H 0.05672 0.80857 0.10241 0.0
H430 H 1.01535 0.72355 0.09036 0.0
H431 H 1.01313 0.79674 0.09189 0.0
H432 H 0.09161 0.72069 0.13697 0.0
H433 H 0.09353 0.77672 0.20044 0.0
H434 H 0.06759 0.69179 0.15789 0.0
H435 H 0.06939 0.74679 0.22019 0.0
H436 H 0.14678 0.69467 0.10612 0.0
H437 H 0.09407 0.7016 0.05061 0.0
H438 H 0.02212 0.81992 0.18347 0.0
H439 H 1.0102 0.74203 0.1677 0.0
Li440 Li 0.52515 0.82434 0.4484 0.0
Li441 Li 0.50299 0.79286 0.41396 0.0
Li442 Li 0.51749 0.78378 0.44953 0.0
Li443 Li 0.5451 0.79447 0.42256 0.0
C444 C 0.47585 0.79526 0.45917 0.0
N445 N 0.43908 0.77752 0.48443 0.0
C446 C 0.45954 0.77425 0.44838 0.0
C447 C 0.47337 0.80738 0.48271 0.0
C448 C 0.44107 0.76556 0.46147 0.0
C449 C 0.45473 0.79806 0.49523 0.0
C450 C 0.53221 0.83529 0.39744 0.0
C451 C 0.5473 0.84756 0.36135 0.0
N452 N 0.53805 0.86777 0.36645 0.0
C453 C 0.52304 0.85633 0.40237 0.0
C454 C 0.54463 0.831 0.37681 0.0
C455 C 0.52609 0.87245 0.38647 0.0
C456 C 0.55052 0.86971 0.46721 0.0
N457 N 0.52849 0.85572 0.46384 0.0
C458 C 0.51079 0.88941 0.47675 0.0
C459 C 0.5088 0.86476 0.46875 0.0
C460 C 0.53319 0.90445 0.47918 0.0
C461 C 0.55333 0.89446 0.475 0.0
H462 H 0.56564 0.86171 0.4627 0.0
H463 H 0.49151 0.85303 0.46506 0.0
C464 C 0.46728 0.76739 0.37612 0.0
N465 N 0.47838 0.78902 0.38993 0.0
C466 C 0.44907 0.76639 0.35827 0.0
C467 C 0.4537 0.80978 0.37011 0.0
C468 C 0.47171 0.80989 0.38766 0.0
C469 C 0.44227 0.78784 0.35515 0.0
H470 H 0.47238 0.75096 0.37906 0.0
H471 H 0.48009 0.82652 0.39988 0.0
C472 C 0.56003 0.79876 0.47596 0.0
N473 N 0.58209 0.78207 0.51256 0.0
C474 C 0.5682 0.77721 0.47045 0.0
C475 C 0.56342 0.81205 0.49995 0.0
C476 C 0.5792 0.769 0.48926 0.0
C477 C 0.57455 0.80326 0.51823 0.0
C478 C 0.51987 0.75254 0.39288 0.0
C479 C 0.51896 0.72769 0.38881 0.0
C480 C 0.52199 0.76433 0.37319 0.0
C481 C 0.5202 0.7151 0.36514 0.0
C482 C 0.5231 0.75112 0.34978 0.0
N483 N 0.52221 0.72697 0.34627 0.0
C484 C 0.51191 0.77507 0.49652 0.0
C485 C 0.51065 0.74048 0.46543 0.0
C486 C 0.51308 0.76164 0.5146 0.0
N487 N 0.51155 0.76445 0.47263 0.0
C488 C 0.51192 0.72637 0.48289 0.0
C489 C 0.51415 0.73721 0.50785 0.0
H490 H 0.51317 0.79432 0.50164 0.0
H491 H 0.51068 0.73273 0.44628 0.0
C492 C 0.58792 0.81515 0.41065 0.0
N493 N 0.57363 0.79327 0.4091 0.0
C494 C 0.60841 0.81706 0.3987 0.0
C495 C 0.59963 0.77366 0.38491 0.0
C496 C 0.57933 0.7726 0.39724 0.0
C497 C 0.61415 0.79616 0.3852 0.0
H498 H 0.58281 0.83119 0.42038 0.0
H499 H 0.56791 0.7554 0.39685 0.0
O500 O 0.49386 0.80422 0.44654 0.0
O501 O 0.52989 0.81955 0.41321 0.0
O502 O 0.54869 0.80678 0.45795 0.0
O503 O 0.51888 0.765 0.41611 0.0
H504 H 0.46117 0.76473 0.43013 0.0
H505 H 0.4859 0.82362 0.49138 0.0
H506 H 0.42831 0.7493 0.45337 0.0
H507 H 0.45271 0.80713 0.51353 0.0
H508 H 0.55682 0.84439 0.34534 0.0
H509 H 0.51345 0.86013 0.41819 0.0
H510 H 0.5523 0.81514 0.37275 0.0
H511 H 0.51896 0.88871 0.39007 0.0
H512 H 0.49496 0.89674 0.47952 0.0
H513 H 0.57085 0.90575 0.47684 0.0
H514 H 0.4403 0.74913 0.34722 0.0
H515 H 0.44826 0.82655 0.36883 0.0
H516 H 0.56571 0.76677 0.45192 0.0
H517 H 0.55724 0.82883 0.50441 0.0
H518 H 0.58537 0.75221 0.48536 0.0
H519 H 0.57711 0.81322 0.53694 0.0
H520 H 0.51742 0.71822 0.4038 0.0
H521 H 0.52229 0.78335 0.37583 0.0
H522 H 0.51956 0.69588 0.36178 0.0
H523 H 0.52459 0.76006 0.3344 0.0
H524 H 0.51476 0.77059 0.53366 0.0
H525 H 0.51314 0.70768 0.47691 0.0
H526 H 0.61909 0.83474 0.39916 0.0
H527 H 0.60377 0.75715 0.37498 0.0
Li528 Li 0.60543 0.30627 0.61432 0.0
Li529 Li 0.63038 0.29856 0.64788 0.0
Li530 Li 0.61134 0.26712 0.61506 0.0
Li531 Li 0.5883 0.28466 0.64432 0.0
C532 C 0.64727 0.28653 0.59409 0.0
N533 N 0.66937 0.2655 0.55571 0.0
C534 C 0.66856 0.27918 0.59867 0.0
C535 C 0.63731 0.28343 0.57002 0.0
C536 C 0.67944 0.26852 0.57901 0.0
C537 C 0.64874 0.2727 0.55086 0.0
C538 C 0.60525 0.33077 0.67362 0.0
C539 C 0.60645 0.33152 0.71697 0.0
N540 N 0.60434 0.35501 0.72103 0.0
C541 C 0.60304 0.35489 0.67821 0.0
C542 C 0.60694 0.31896 0.69313 0.0
C543 C 0.60264 0.36685 0.70231 0.0
C544 C 0.57589 0.32375 0.58744 0.0
N545 N 0.59929 0.32639 0.59426 0.0
C546 C 0.60955 0.35472 0.56885 0.0
C547 C 0.61621 0.34134 0.58547 0.0
C548 C 0.58537 0.35213 0.56123 0.0
C549 C 0.5685 0.33615 0.5705 0.0
H550 H 0.56299 0.31171 0.59498 0.0
H551 H 0.63472 0.34274 0.5913 0.0
C552 C 0.66773 0.28841 0.67005 0.0
N553 N 0.65722 0.30745 0.66933 0.0
C554 C 0.68666 0.29051 0.68718 0.0
C555 C 0.68433 0.33231 0.70177 0.0
C556 C 0.66515 0.32929 0.68434 0.0
C557 C 0.69486 0.31254 0.70347 0.0
H558 H 0.66092 0.27138 0.65763 0.0
H559 H 0.65631 0.34407 0.68315 0.0
C560 C 0.56217 0.25909 0.59764 0.0
N561 N 0.5239 0.22364 0.57524 0.0
C562 C 0.55189 0.24144 0.61003 0.0
C563 C 0.55269 0.25889 0.57395 0.0
C564 C 0.53263 0.22364 0.59838 0.0
C565 C 0.53344 0.24075 0.56291 0.0
C566 C 0.60947 0.24788 0.66165 0.0
C567 C 0.5968 0.22518 0.64958 0.0
C568 C 0.61886 0.25111 0.68598 0.0
C569 C 0.59332 0.20625 0.66218 0.0
C570 C 0.615 0.23171 0.69794 0.0
N571 N 0.6024 0.20988 0.68591 0.0
C572 C 0.63276 0.22796 0.60468 0.0
C573 C 0.60347 0.22973 0.57382 0.0
C574 C 0.63601 0.20592 0.59183 0.0
N575 N 0.61619 0.23888 0.59581 0.0
C576 C 0.60566 0.2075 0.56066 0.0
C577 C 0.62171 0.195 0.56994 0.0
H578 H 0.64302 0.23617 0.62201 0.0
H579 H 0.59131 0.23943 0.56671 0.0
C580 C 0.54546 0.29386 0.65491 0.0
N581 N 0.5618 0.28146 0.66142 0.0
C582 C 0.52533 0.29427 0.66728 0.0
C583 C 0.53923 0.26876 0.6925 0.0
C584 C 0.55911 0.26892 0.67967 0.0
C585 C 0.52226 0.2818 0.68648 0.0
H586 H 0.54841 0.3038 0.64038 0.0
H587 H 0.57246 0.2594 0.68459 0.0
O588 O 0.63596 0.29627 0.61311 0.0
O589 O 0.60568 0.31891 0.65008 0.0
O590 O 0.58099 0.27687 0.60867 0.0
O591 O 0.61325 0.26674 0.64967 0.0
H592 H 0.67648 0.28146 0.61722 0.0
H593 H 0.62073 0.28886 0.56621 0.0
H594 H 0.69584 0.26258 0.58227 0.0
H595 H 0.64115 0.26998 0.53214 0.0
H596 H 0.60775 0.32259 0.73224 0.0
H597 H 0.60169 0.36428 0.66327 0.0
H598 H 0.60863 0.30033 0.68991 0.0
H599 H 0.60098 0.38554 0.70614 0.0
H600 H 0.62305 0.36713 0.56238 0.0
H601 H 0.54975 0.33325 0.56479 0.0
H602 H 0.6948 0.27509 0.6877 0.0
H603 H 0.69052 0.34957 0.71408 0.0
H604 H 0.55851 0.24154 0.62849 0.0
H605 H 0.56037 0.27238 0.56404 0.0
H606 H 0.52457 0.20986 0.60778 0.0
H607 H 0.52611 0.24028 0.54451 0.0
H608 H 0.58988 0.22205 0.63062 0.0
H609 H 0.62893 0.26843 0.69561 0.0
H610 H 0.5835 0.18863 0.65306 0.0
H611 H 0.62205 0.23402 0.7168 0.0
H612 H 0.64898 0.1972 0.59936 0.0
H613 H 0.59401 0.1998 0.54405 0.0
H614 H 0.5127 0.30475 0.66237 0.0
H615 H 0.53725 0.25873 0.70707 0.0
Li616 Li 0.02999 0.32566 0.9483 0.0
Li617 Li 1.00694 0.29388 0.91713 0.0
Li618 Li 0.0253 0.28602 0.95311 0.0
Li619 Li 0.04958 0.29867 0.92212 0.0
C620 C 0.98341 0.29543 0.96475 0.0
N621 N 0.94951 0.2764 0.99253 0.0
C622 C 0.96342 0.27837 0.9534 0.0
C623 C 0.98606 0.30291 0.99021 0.0
C624 C 0.9465 0.26896 0.96777 0.0
C625 C 0.96877 0.29302 1.00393 0.0
C626 C 0.02455 0.33476 0.89718 0.0
C627 C 0.0254 0.34696 0.85815 0.0
N628 N 1.01079 0.36235 0.86548 0.0
C629 C 1.00976 0.35095 0.90439 0.0
C630 C 0.0326 0.33293 0.87391 0.0
C631 C 1.0029 0.36461 0.88808 0.0
C632 C 0.04985 0.37355 0.95574 0.0
N633 N 0.03225 0.35763 0.96237 0.0
C634 C 1.01507 0.38911 0.98316 0.0
C635 C 1.01518 0.36471 0.97603 0.0
C636 C 0.0326 0.40594 0.97584 0.0
C637 C 0.05052 0.39804 0.96254 0.0
H638 H 0.06278 0.3671 0.94435 0.0
H639 H 1.0011 0.35143 0.98035 0.0
C640 C 0.9742 0.27323 0.87338 0.0
N641 N 0.98019 0.28922 0.89505 0.0
C642 C 0.95475 0.27454 0.85802 0.0
C643 C 0.94805 0.30824 0.88797 0.0
C644 C 0.96732 0.30616 0.90266 0.0
C645 C 0.94158 0.29232 0.86536 0.0
H646 H 0.98435 0.2596 0.86785 0.0
H647 H 0.97241 0.31847 0.92007 0.0
C648 C 0.06925 0.32834 0.97445 0.0
N649 N 0.09634 0.36695 1.00756 0.0
C650 C 0.09119 0.33982 0.9688 0.0
C651 C 0.06129 0.33624 0.99713 0.0
C652 C 0.10457 0.35938 0.98574 0.0
C653 C 0.07518 0.35586 1.01356 0.0
C654 C 0.02418 0.25345 0.89616 0.0
C655 C 1.01709 0.22847 0.89326 0.0
C656 C 0.03061 0.26341 0.87596 0.0
C657 C 1.01651 0.21386 0.87018 0.0
C658 C 0.02989 0.2482 0.8532 0.0
N659 N 0.02289 0.22395 0.85079 0.0
C660 C 1.00436 0.2496 0.97769 0.0
C661 C 0.04275 0.27202 0.99335 0.0
C662 C 1.00397 0.23668 0.99644 0.0
N663 N 0.02345 0.2671 0.97681 0.0
C664 C 0.04333 0.25934 1.01202 0.0
C665 C 0.02377 0.2414 1.01382 0.0
H666 H 0.98959 0.24554 0.96377 0.0
H667 H 0.05803 0.28539 0.99175 0.0
C668 C 0.08692 0.31931 0.90097 0.0
N669 N 0.0767 0.298 0.90637 0.0
C670 C 0.10683 0.32076 0.88818 0.0
C671 C 0.10516 0.27817 0.88679 0.0
C672 C 0.08541 0.27764 0.89996 0.0
C673 C 0.11597 0.29996 0.88081 0.0
H674 H 0.07945 0.33513 0.90652 0.0
H675 H 0.07678 0.26102 0.9047 0.0
O676 O 1.00014 0.30494 0.951 0.0
O677 O 0.03171 0.32132 0.91297 0.0
O678 O 0.05565 0.30939 0.95795 0.0
O679 O 0.02507 0.26783 0.91879 0.0
H680 H 0.96113 0.27213 0.93377 0.0
H681 H 1.00141 0.31606 0.99931 0.0
H682 H 0.93102 0.25565 0.95925 0.0
H683 H 0.97067 0.29855 0.02366 0.0
H684 H 0.03149 0.34566 0.84009 0.0
H685 H 1.00342 0.35285 0.92231 0.0
H686 H 0.04443 0.32093 0.86807 0.0
H687 H 0.99132 0.37703 0.89341 0.0
H688 H 1.00093 0.39468 0.99328 0.0
H689 H 0.06453 0.41063 0.95696 0.0
H690 H 0.94997 0.26177 0.84078 0.0
H691 H 0.9385 0.32241 0.89413 0.0
H692 H 0.09782 0.33378 0.95153 0.0
H693 H 0.04442 0.32747 1.00185 0.0
H694 H 0.12151 0.36854 0.98154 0.0
H695 H 0.06911 0.36229 0.03107 0.0
H696 H 1.01209 0.22047 0.90873 0.0
H697 H 0.0358 0.28265 0.87776 0.0
H698 H 1.01103 0.1945 0.86768 0.0
H699 H 0.03477 0.25571 0.83742 0.0
H700 H 0.9886 0.22285 0.997 0.0
H701 H 0.05944 0.26292 0.02423 0.0
H702 H 0.11466 0.33778 0.88363 0.0
H703 H 0.11195 0.26186 0.8814 0.0
Li704 Li 0.44421 0.05614 0.3326 0.0
Li705 Li 0.409 0.0253 0.32108 0.0
Li706 Li 0.43203 0.04126 0.29112 0.0
Li707 Li 0.40872 0.06525 0.31597 0.0
C708 C 0.45167 1.00532 0.30206 0.0
N709 N 0.4711 0.96986 0.27471 0.0
C710 C 0.44051 0.98107 0.29869 0.0
C711 C 0.47285 1.01146 0.29162 0.0
C712 C 0.45058 0.96343 0.28477 0.0
C713 C 0.48234 0.9933 0.27782 0.0
C714 C 0.40019 0.04652 0.36425 0.0
C715 C 0.36214 0.03195 0.37763 0.0
N716 N 0.37324 0.02817 0.39829 0.0
C717 C 0.4112 0.04245 0.38563 0.0
C718 C 0.37545 0.04123 0.36024 0.0
C719 C 0.39727 0.03321 0.40262 0.0
C720 C 0.46835 0.0795 0.37771 0.0
N721 N 0.47081 0.06766 0.35497 0.0
C722 C 0.51147 0.06839 0.36568 0.0
C723 C 0.4919 0.06267 0.34846 0.0
C724 C 0.50894 0.0785 0.39001 0.0
C725 C 0.48721 0.08481 0.39579 0.0
H726 H 0.4514 0.0837 0.38207 0.0
H727 H 0.49338 0.05376 0.33006 0.0
C728 C 0.37439 0.98527 0.30638 0.0
N729 N 0.39015 0.99684 0.32581 0.0
C730 C 0.3607 0.96289 0.30646 0.0
C731 C 0.37929 0.96481 0.34695 0.0
C732 C 0.39307 0.98709 0.34583 0.0
C733 C 0.36312 0.95226 0.32685 0.0
H734 H 0.37321 0.99284 0.29023 0.0
H735 H 0.40656 0.99616 0.36051 0.0
C736 C 0.45806 0.09522 0.31671 0.0
N737 N 0.49285 0.13458 0.33835 0.0
C738 C 0.45236 0.11404 0.33348 0.0
C739 C 0.48142 0.09647 0.31082 0.0
C740 C 0.47021 0.13379 0.34423 0.0
C741 C 0.49876 0.1165 0.32201 0.0
C742 C 0.37934 0.03787 0.27678 0.0
C743 C 0.38302 0.04298 0.25363 0.0
C744 C 0.35664 0.0359 0.28466 0.0
C745 C 0.36401 0.04643 0.23896 0.0
C746 C 0.3381 0.03956 0.26948 0.0
N747 N 0.34214 0.04472 0.24714 0.0
C748 C 0.43437 1.01045 0.24715 0.0
C749 C 0.45487 0.05101 0.25131 0.0
C750 C 0.4431 1.00397 0.22475 0.0
N751 N 0.44111 0.03342 0.26013 0.0
C752 C 0.46368 0.04546 0.22887 0.0
C753 C 0.45814 0.02161 0.21568 0.0
H754 H 0.42291 0.99709 0.25463 0.0
H755 H 0.45929 0.0692 0.2619 0.0
C756 C 0.37606 0.09338 0.33335 0.0
N757 N 0.38955 0.0875 0.31493 0.0
C758 C 0.35829 0.10609 0.32981 0.0
C759 C 0.36984 0.10745 0.28901 0.0
C760 C 0.38762 0.09519 0.29353 0.0
C761 C 0.35464 0.11238 0.30709 0.0
H762 H 0.37855 0.08753 0.3504 0.0
H763 H 0.39912 0.09064 0.27955 0.0
O764 O 0.44209 0.02285 0.31577 0.0
O765 O 0.41352 0.0555 0.34732 0.0
O766 O 0.44095 0.0754 0.30661 0.0
O767 O 0.39777 0.03453 0.29154 0.0
H768 H 0.42427 0.97582 0.30671 0.0
H769 H 0.48148 0.03009 0.29337 0.0
H770 H 0.44206 0.94462 0.28198 0.0
H771 H 0.49854 0.99787 0.26942 0.0
H772 H 0.343 0.0277 0.37467 0.0
H773 H 0.43029 0.04593 0.38892 0.0
H774 H 0.36661 0.04402 0.34376 0.0
H775 H 0.40557 0.02987 0.41916 0.0
H776 H 0.52803 0.06386 0.36021 0.0
H777 H 0.48419 0.09234 0.41431 0.0
H778 H 0.3493 0.95356 0.29008 0.0
H779 H 0.38182 0.95723 0.36299 0.0
H780 H 0.4344 0.11327 0.33836 0.0
H781 H 0.48623 0.08189 0.29817 0.0
H782 H 0.46609 0.14844 0.35733 0.0
H783 H 0.51695 0.11759 0.31783 0.0
H784 H 0.40038 0.04459 0.24712 0.0
H785 H 0.35335 0.03163 0.30232 0.0
H786 H 0.36665 0.05056 0.2211 0.0
H787 H 0.3205 0.03827 0.27546 0.0
H788 H 0.43848 0.98545 0.21482 0.0
H789 H 0.47539 0.05942 0.22234 0.0
H790 H 0.347 0.11015 0.34418 0.0
H791 H 0.36766 0.11264 0.27148 0.0
Li792 Li 0.29877 0.22868 0.5364 0.0
Li793 Li 0.31604 0.19695 0.51467 0.0
Li794 Li 0.29937 0.22523 0.49142 0.0
Li795 Li 0.27265 0.19463 0.5105 0.0
C796 C 0.34535 0.2495 0.5281 0.0
N797 N 0.38322 0.28501 0.55109 0.0
C798 C 0.36062 0.24496 0.54625 0.0
C799 C 0.34947 0.272 0.52144 0.0
C800 C 0.37965 0.26317 0.5577 0.0
C801 C 0.36866 0.28976 0.53336 0.0
C802 C 0.28994 0.17281 0.54605 0.0
C803 C 0.28331 0.12945 0.53486 0.0
N804 N 0.28264 0.12818 0.55888 0.0
C805 C 0.28921 0.17109 0.57062 0.0
C806 C 0.28703 0.15184 0.52801 0.0
C807 C 0.2855 0.14836 0.57673 0.0
C808 C 0.28474 0.23777 0.58349 0.0
N809 N 0.30096 0.24777 0.56971 0.0
C810 C 0.32087 0.27577 0.60562 0.0
C811 C 0.31849 0.26692 0.58022 0.0
C812 C 0.30483 0.26516 0.6204 0.0
C813 C 0.28625 0.24624 0.60881 0.0
H814 H 0.27105 0.22246 0.5749 0.0
H815 H 0.3311 0.27501 0.56918 0.0
C816 C 0.35061 0.17181 0.49571 0.0
N817 N 0.34059 0.17988 0.51624 0.0
C818 C 0.36929 0.15968 0.49721 0.0
C819 C 0.36694 0.16474 0.54092 0.0
C820 C 0.34837 0.1767 0.53857 0.0
C821 C 0.3776 0.15599 0.52007 0.0
H822 H 0.34415 0.17491 0.47825 0.0
H823 H 0.34035 0.18379 0.55462 0.0
C824 C 0.2661 0.24958 0.52468 0.0
N825 N 0.25574 0.29015 0.55336 0.0
C826 C 0.2463 0.24762 0.53796 0.0
C827 C 0.28053 0.27217 0.52583 0.0
C828 C 0.24139 0.26835 0.5524 0.0
C829 C 0.27502 0.29248 0.54046 0.0
C830 C 0.28471 0.1748 0.46245 0.0
C831 C 0.26846 0.18258 0.4478 0.0
C832 C 0.29075 0.15241 0.45463 0.0
C833 C 0.25846 0.16772 0.42549 0.0
C834 C 0.28031 0.13806 0.43223 0.0
N835 N 0.26452 0.14595 0.41825 0.0
C836 C 0.31687 0.22652 0.44553 0.0
C837 C 0.29392 0.25619 0.45634 0.0
C838 C 0.31989 0.23297 0.42278 0.0
N839 N 0.30392 0.23796 0.46174 0.0
C840 C 0.2967 0.2634 0.43384 0.0
C841 C 0.30972 0.25162 0.41652 0.0
H842 H 0.32463 0.21203 0.45014 0.0
H843 H 0.28346 0.2649 0.46931 0.0
C844 C 0.23055 0.17626 0.52874 0.0
N845 N 0.2425 0.17264 0.50856 0.0
C846 C 0.20898 0.16107 0.53013 0.0
C847 C 0.21249 0.1381 0.4902 0.0
C848 C 0.23401 0.1538 0.48955 0.0
C849 C 0.19956 0.1417 0.51064 0.0
H850 H 0.23802 0.19079 0.54399 0.0
H851 H 0.2439 0.1506 0.47395 0.0
O852 O 0.3267 0.23192 0.51656 0.0
O853 O 0.29357 0.19498 0.53986 0.0
O854 O 0.2717 0.22945 0.51109 0.0
O855 O 0.29462 0.18897 0.48441 0.0
H856 H 0.35767 0.22768 0.55165 0.0
H857 H 0.33797 0.27569 0.50721 0.0
H858 H 0.39153 0.25996 0.57187 0.0
H859 H 0.372 0.3073 0.5285 0.0
H860 H 0.28098 0.11307 0.52108 0.0
H861 H 0.29156 0.18715 0.58482 0.0
H862 H 0.2876 0.15281 0.50893 0.0
H863 H 0.28491 0.14676 0.59568 0.0
H864 H 0.33526 0.29065 0.61364 0.0
H865 H 0.27352 0.23731 0.61932 0.0
H866 H 0.37697 0.15309 0.48069 0.0
H867 H 0.37313 0.16272 0.55895 0.0
H868 H 0.23491 0.23029 0.5372 0.0
H869 H 0.29597 0.27395 0.51573 0.0
H870 H 0.22619 0.26709 0.56288 0.0
H871 H 0.28611 0.31006 0.54163 0.0
H872 H 0.26348 0.1998 0.45371 0.0
H873 H 0.30323 0.1461 0.46581 0.0
H874 H 0.24581 0.17345 0.41398 0.0
H875 H 0.28473 0.12064 0.42598 0.0
H876 H 0.33032 0.22354 0.41032 0.0
H877 H 0.28828 0.27772 0.42986 0.0
H878 H 0.19997 0.16423 0.54653 0.0
H879 H 0.20596 0.12344 0.47473 0.0
Li880 Li 0.21002 0.06181 0.78496 0.0
Li881 Li 0.17543 0.03402 0.80657 0.0
Li882 Li 0.20692 1.0087 0.77983 0.0
Li883 Li 0.17585 0.03108 0.75731 0.0
C884 C 0.22081 0.04355 0.83448 0.0
N885 N 0.23671 0.05353 0.8836 0.0
C886 C 0.22311 0.06685 0.8483 0.0
C887 C 0.22657 0.0253 0.84557 0.0
C888 C 0.23115 0.07154 0.87313 0.0
C889 C 0.23462 0.03073 0.87045 0.0
C890 C 0.15638 0.07056 0.78168 0.0
C891 C 0.11497 0.07209 0.7827 0.0
N892 N 0.11901 0.09303 0.77432 0.0
C893 C 0.16017 0.09218 0.77326 0.0
C894 C 0.13364 0.06047 0.78657 0.0
C895 C 0.14103 0.10322 0.76956 0.0
C896 C 0.24834 0.10371 0.77357 0.0
N897 N 0.22938 0.09829 0.78668 0.0
C898 C 0.2315 0.14189 0.79942 0.0
C899 C 0.22124 0.11734 0.79965 0.0
C900 C 0.25097 0.14818 0.78589 0.0
C901 C 0.25927 0.12808 0.77306 0.0
H902 H 0.25497 0.08911 0.76288 0.0
H903 H 0.20623 0.11365 0.81004 0.0
C904 C 0.14157 0.01672 0.8454 0.0
N905 N 0.15681 0.03606 0.84015 0.0
C906 C 0.1297 0.01822 0.86741 0.0
C907 C 0.1488 0.05946 0.8794 0.0
C908 C 0.16025 0.05725 0.85717 0.0
C909 C 0.13286 0.03986 0.88555 0.0
H910 H 0.13839 0.99969 0.83247 0.0
H911 H 0.17209 0.07291 0.85371 0.0
C912 C 0.2136 0.03124 0.73141 0.0
N913 N 0.21517 0.02622 0.68147 0.0
C914 C 0.21277 1.00852 0.71686 0.0
C915 C 0.21528 0.05141 0.72064 0.0
C916 C 0.2136 1.00636 0.69162 0.0
C917 C 0.21603 0.0485 0.69533 0.0
C918 C 0.15214 0.98577 0.7657 0.0
C919 C 0.15707 0.96777 0.74738 0.0
C920 C 0.12878 0.98551 0.77115 0.0
C921 C 0.13845 0.94972 0.73476 0.0
C922 C 0.11066 0.96716 0.7581 0.0
N923 N 0.11583 0.9498 0.74032 0.0
C924 C 0.212 0.95381 0.77936 0.0
C925 C 0.2488 0.97748 0.77683 0.0
C926 C 0.22245 0.93273 0.77848 0.0
N927 N 0.22487 0.9763 0.77852 0.0
C928 C 0.25992 0.95681 0.77594 0.0
C929 C 0.24715 0.9332 0.7767 0.0
H930 H 0.19314 0.95179 0.78078 0.0
H931 H 0.25981 0.99467 0.77611 0.0
C932 C 0.15731 0.05342 0.71574 0.0
N933 N 0.1567 0.03155 0.72237 0.0
C934 C 0.14614 0.05572 0.69299 0.0
C935 C 0.13383 1.01298 0.68258 0.0
C936 C 0.14506 1.01147 0.70574 0.0
C937 C 0.13392 0.03541 0.6754 0.0
H938 H 0.16708 0.06952 0.72788 0.0
H939 H 0.1445 0.9939 0.71009 0.0
O940 O 0.21272 0.03859 0.81025 0.0
O941 O 0.17483 0.05942 0.78544 0.0
O942 O 0.21199 0.03359 0.75599 0.0
O943 O 0.17011 1.00362 0.77815 0.0
H944 H 0.21862 0.08113 0.83992 0.0
H945 H 0.22483 1.00715 0.83507 0.0
H946 H 0.23297 0.08948 0.88409 0.0
H947 H 0.23918 0.01681 0.87931 0.0
H948 H 0.09726 0.06447 0.78638 0.0
H949 H 0.17763 0.10016 0.76925 0.0
H950 H 0.13048 0.04386 0.79332 0.0
H951 H 0.14367 0.11986 0.76287 0.0
H952 H 0.22407 0.1559 0.81007 0.0
H953 H 0.27388 0.13096 0.76198 0.0
H954 H 0.11798 1.00208 0.86984 0.0
H955 H 0.15281 0.07684 0.89167 0.0
H956 H 0.21134 0.99273 0.72498 0.0
H957 H 0.21566 0.06907 0.73167 0.0
H958 H 0.21292 0.98889 0.68009 0.0
H959 H 0.21716 0.06392 0.6867 0.0
H960 H 0.17507 0.96782 0.7429 0.0
H961 H 0.1247 0.9993 0.78533 0.0
H962 H 0.14198 0.93569 0.7205 0.0
H963 H 0.09248 0.96671 0.7621 0.0
H964 H 0.21071 0.91602 0.77929 0.0
H965 H 0.27879 0.95971 0.77457 0.0
H966 H 0.14772 0.0736 0.6891 0.0
H967 H 0.12489 0.9964 0.67048 0.0
Li968 Li 0.27834 0.98288 1.01266 0.0
Li969 Li 0.30047 0.95564 0.02861 0.0
Li970 Li 0.32594 0.98704 1.01306 0.0
Li971 Li 0.2985 0.95111 0.98418 0.0
C972 C 0.30212 0.9974 0.06479 0.0
N973 N 0.29737 1.00872 0.11433 0.0
C974 C 0.2843 0.98358 0.07502 0.0
C975 C 0.3174 0.01712 0.07977 0.0
C976 C 0.2822 0.98955 0.10008 0.0
C977 C 0.31477 0.0225 0.10478 0.0
C978 C 0.25615 0.92544 1.00579 0.0
C979 C 0.24338 0.88224 0.99315 0.0
N980 N 0.22553 0.88292 1.00793 0.0
C981 C 0.23754 0.92566 0.02072 0.0
C982 C 0.25901 0.90351 0.9918 0.0
C983 C 0.22232 0.904 0.02162 0.0
C984 C 0.23971 1.00916 1.00087 0.0
N985 N 0.24851 0.99685 0.01675 0.0
C986 C 0.21383 0.99831 0.03897 0.0
C987 C 0.23595 0.99184 0.03577 0.0
C988 C 0.20412 1.01074 0.02283 0.0
C989 C 0.21772 1.01649 1.00374 0.0
H990 H 0.24949 1.01303 0.98568 0.0
H991 H 0.24276 0.98234 0.04848 0.0
C992 C 0.3206 0.94836 0.07267 0.0
N993 N 0.30308 0.93807 0.05432 0.0
C994 C 0.32467 0.93661 0.09166 0.0
C995 C 0.29296 0.90358 0.07234 0.0
C996 C 0.2895 0.91597 0.05378 0.0
C997 C 0.31077 0.91388 0.09155 0.0
H998 H 0.33172 0.96558 0.07233 0.0
H999 H 0.27632 0.90752 0.03884 0.0
C1000 C 0.30983 1.00435 0.97318 0.0
N1001 N 0.3295 0.04024 0.9497 0.0
C1002 C 0.32173 0.99871 0.95249 0.0
C1003 C 0.3078 0.02814 0.98191 0.0
C1004 C 0.33162 0.01715 0.9409 0.0
C1005 C 0.31788 0.04606 0.96977 0.0
C1006 C 0.33793 0.93709 1.01574 0.0
C1007 C 0.3587 0.94596 0.03154 0.0
C1008 C 0.32912 0.91223 1.00939 0.0
C1009 C 0.37014 0.92982 0.04098 0.0
C1010 C 0.34108 0.89667 0.01921 0.0
N1011 N 0.36115 0.90571 0.0347 0.0
C1012 C 0.37241 1.01649 0.03647 0.0
C1013 C 0.37172 0.99864 0.99482 0.0
C1014 C 0.39734 0.02362 0.03836 0.0
N1015 N 0.35994 1.00411 1.01493 0.0
C1016 C 0.39661 1.00542 0.9959 0.0
C1017 C 0.41011 0.01784 0.01801 0.0
H1018 H 0.36325 0.01986 0.05264 0.0
H1019 H 0.36195 0.98782 0.9781 0.0
C1020 C 0.27996 0.91945 0.93683 0.0
N1021 N 0.29909 0.9295 0.95341 0.0
C1022 C 0.28196 0.90218 0.9161 0.0
C1023 C 0.32319 0.90609 0.9299 0.0
C1024 C 0.32049 0.92342 0.95002 0.0
C1025 C 0.30382 0.89506 0.91246 0.0
H1026 H 0.26307 0.92448 0.93992 0.0
H1027 H 0.33552 0.93171 0.96328 0.0
O1028 O 0.30472 0.99165 0.0403 0.0
O1029 O 0.2713 0.94649 1.00464 0.0
O1030 O 0.30026 0.98664 0.98491 0.0
O1031 O 0.32602 0.95267 1.00694 0.0
H1032 H 0.27264 0.96794 0.06385 0.0
H1033 H 0.331 0.02832 0.07216 0.0
H1034 H 0.2686 0.97885 0.10822 0.0
H1035 H 0.32653 0.03767 0.11657 0.0
H1036 H 0.24552 0.86518 0.98252 0.0
H1037 H 0.23497 0.94226 0.03174 0.0
H1038 H 0.27331 0.90279 0.98029 0.0
H1039 H 0.20797 0.90395 0.03323 0.0
H1040 H 0.20448 0.99372 0.05422 0.0
H1041 H 0.21114 0.026 0.99068 0.0
H1042 H 0.33895 0.94493 0.10588 0.0
H1043 H 0.28184 0.88606 0.0716 0.0
H1044 H 0.3234 0.98032 0.94556 0.0
H1045 H 0.29859 0.0327 0.99792 0.0
H1046 H 0.34098 1.01311 0.92491 0.0
H1047 H 0.31649 0.06459 0.97631 0.0
H1048 H 0.36571 0.96513 0.03679 0.0
H1049 H 0.31308 0.90503 0.99723 0.0
H1050 H 0.3861 0.93646 0.0534 0.0
H1051 H 0.33436 0.87741 1.01458 0.0
H1052 H 0.40651 0.03327 0.05585 0.0
H1053 H 0.40521 0.99992 0.97969 0.0
H1054 H 0.26655 0.89458 0.90308 0.0
H1055 H 0.3403 0.90109 0.92844 0.0
Li1056 Li 0.31932 0.40361 0.04824 0.0
Li1057 Li 0.33562 0.37456 0.06796 0.0
Li1058 Li 0.36291 0.4058 0.05141 0.0
Li1059 Li 0.33673 0.37123 0.02255 0.0
C1060 C 0.34398 0.43349 0.09167 0.0
N1061 N 0.34836 0.47973 0.11861 0.0
C1062 C 0.34759 0.43791 0.1172 0.0
C1063 C 0.34261 0.45259 0.07985 0.0
C1064 C 0.34978 0.46142 0.13049 0.0
C1065 C 0.34486 0.47583 0.09378 0.0
C1066 C 0.29029 0.35357 0.04957 0.0
C1067 C 0.26595 0.31444 0.04827 0.0
N1068 N 0.25381 0.32442 0.06627 0.0
C1069 C 0.27746 0.36348 0.06789 0.0
C1070 C 0.28444 0.32889 0.03954 0.0
C1071 C 0.25913 0.34842 0.07617 0.0
C1072 C 0.28773 0.42187 0.02242 0.0
N1073 N 0.2948 0.42075 0.04569 0.0
C1074 C 0.26607 0.44297 0.06137 0.0
C1075 C 0.28446 0.43093 0.06512 0.0
C1076 C 0.25834 0.44435 0.03743 0.0
C1077 C 0.26958 0.43375 0.01785 0.0
H1078 H 0.29626 0.41346 1.00737 0.0
H1079 H 0.29037 0.42956 0.08344 0.0
C1080 C 0.33623 0.33814 0.09931 0.0
N1081 N 0.33023 0.35928 0.09635 0.0
C1082 C 0.33213 0.32944 0.12091 0.0
C1083 C 0.3158 0.36429 0.1361 0.0
C1084 C 0.31994 0.37214 0.11421 0.0
C1085 C 0.32205 0.34274 0.13987 0.0
H1086 H 0.34452 0.32809 0.0852 0.0
H1087 H 0.31499 0.38871 0.1115 0.0
C1088 C 0.3517 0.41895 1.00671 0.0
N1089 N 0.37272 0.44476 0.97398 0.0
C1090 C 0.3662 0.40888 0.99026 0.0
C1091 C 0.34764 0.44204 1.00626 0.0
C1092 C 0.37675 0.42225 0.97394 0.0
C1093 C 0.35849 0.45482 0.98964 0.0
C1094 C 0.37054 0.34931 0.04108 0.0
C1095 C 0.39412 0.34939 0.03658 0.0
C1096 C 0.3544 0.32742 0.038 0.0
C1097 C 0.4012 0.32746 0.02922 0.0
C1098 C 0.36218 0.30587 0.0307 0.0
N1099 N 0.38522 0.30634 0.02648 0.0
C1100 C 0.40062 0.44799 0.07093 0.0
C1101 C 0.40807 0.42083 0.03635 0.0
C1102 C 0.42218 0.46366 0.07023 0.0
N1103 N 0.39373 0.42719 0.05384 0.0
C1104 C 0.42968 0.43596 0.0349 0.0
C1105 C 0.43703 0.45787 0.05189 0.0
H1106 H 0.38953 0.45263 0.08517 0.0
H1107 H 0.40255 0.40407 0.02319 0.0
C1108 C 0.31523 0.35969 0.97506 0.0
N1109 N 0.33253 0.35365 0.98884 0.0
C1110 C 0.31207 0.35168 0.94963 0.0
C1111 C 0.34411 0.33055 0.9528 0.0
C1112 C 0.34687 0.33926 0.97822 0.0
C1113 C 0.32672 0.33702 0.93794 0.0
H1114 H 0.30443 0.37164 0.98378 0.0
H1115 H 0.36098 0.33513 0.98922 0.0
O1116 O 0.34128 0.4105 0.07839 0.0
O1117 O 0.30853 0.36796 0.0415 0.0
O1118 O 0.3412 0.4061 0.02283 0.0
O1119 O 0.36317 0.37059 0.04769 0.0
H1120 H 0.34877 0.42337 0.12667 0.0
H1121 H 0.33993 0.44949 0.06015 0.0
H1122 H 0.35259 0.46511 0.15026 0.0
H1123 H 0.34383 0.49077 0.08485 0.0
H1124 H 0.26125 0.29529 0.04073 0.0
H1125 H 0.28178 0.38255 0.07584 0.0
H1126 H 0.29405 0.32099 0.02515 0.0
H1127 H 0.24917 0.35582 0.09048 0.0
H1128 H 0.25773 0.4507 0.07695 0.0
H1129 H 0.26452 0.43473 0.99915 0.0
H1130 H 0.33743 0.31282 0.12302 0.0
H1131 H 0.30768 0.37503 0.14995 0.0
H1132 H 0.36953 0.39104 0.99028 0.0
H1133 H 0.33615 0.45001 0.0185 0.0
H1134 H 0.38816 0.41473 0.96126 0.0
H1135 H 0.35554 0.47273 0.98915 0.0
H1136 H 0.40679 0.36621 0.03871 0.0
H1137 H 0.33604 0.32712 0.04109 0.0
H1138 H 0.41939 0.32723 0.02566 0.0
H1139 H 0.34988 0.28879 0.02828 0.0
H1140 H 0.42722 0.48004 0.08407 0.0
H1141 H 0.44028 0.43068 0.02025 0.0
H1142 H 0.29878 0.35775 0.93922 0.0
H1143 H 0.35574 0.31912 0.94489 0.0
Li1144 Li 0.83306 0.14875 0.07514 0.0
Li1145 Li 0.85193 0.11704 0.04762 0.0
Li1146 Li 0.82974 0.14611 0.03038 0.0
Li1147 Li 0.80578 0.11388 0.04753 0.0
C1148 C 0.87843 0.17035 0.06415 0.0
N1149 N 0.91772 0.20407 0.08701 0.0
C1150 C 0.89536 0.16368 0.07899 0.0
C1151 C 0.88149 0.19417 0.06089 0.0
C1152 C 0.91511 0.181 0.09039 0.0
C1153 C 0.90147 0.21095 0.07263 0.0
C1154 C 0.82045 0.09611 0.08715 0.0
C1155 C 0.80814 0.05419 0.08883 0.0
N1156 N 0.79877 0.06072 0.11025 0.0
C1157 C 0.81091 0.10245 0.10927 0.0
C1158 C 0.81923 0.07183 0.0769 0.0
C1159 C 0.79993 0.08427 0.12063 0.0
C1160 C 0.81113 0.17076 0.11362 0.0
N1161 N 0.833 0.17134 0.10561 0.0
C1162 C 0.84919 0.20568 0.1375 0.0
C1163 C 0.85197 0.18829 0.11726 0.0
C1164 C 0.82667 0.20576 0.14587 0.0
C1165 C 0.80754 0.18781 0.13363 0.0
H1166 H 0.79623 0.15732 0.10398 0.0
H1167 H 0.86922 0.18869 0.11083 0.0
C1168 C 0.89854 0.11733 0.03157 0.0
N1169 N 0.88187 0.10395 0.0425 0.0
C1170 C 0.92069 0.11099 0.02782 0.0
C1171 C 0.90848 0.07659 0.04595 0.0
C1172 C 0.88653 0.08374 0.0496 0.0
C1173 C 0.92624 0.09035 0.03505 0.0
H1174 H 0.89477 0.13326 0.02585 0.0
H1175 H 0.87334 0.07317 0.05832 0.0
C1176 C 0.79491 0.16754 0.05447 0.0
N1177 N 0.77376 0.20708 0.05742 0.0
C1178 C 0.77024 0.16437 0.0512 0.0
C1179 C 0.80883 0.19079 0.05922 0.0
C1180 C 0.75988 0.1846 0.05275 0.0
C1181 C 0.7978 0.21056 0.06066 0.0
C1182 C 0.81818 0.09161 1.00054 0.0
C1183 C 0.8059 0.09485 0.97949 0.0
C1184 C 0.8222 0.06877 1.00211 0.0
C1185 C 0.79726 0.07496 0.96057 0.0
C1186 C 0.81335 0.04935 0.98276 0.0
N1187 N 0.80111 0.0528 0.96259 0.0
C1188 C 0.8469 0.17645 0.99801 0.0
C1189 C 0.80524 0.16295 0.99603 0.0
C1190 C 0.84404 0.19006 0.98025 0.0
N1191 N 0.82755 0.16354 1.00562 0.0
C1192 C 0.80156 0.17632 0.97842 0.0
C1193 C 0.82109 0.19028 0.97051 0.0
H1194 H 0.86444 0.17633 1.00589 0.0
H1195 H 0.79027 0.15212 1.0022 0.0
C1196 C 0.7596 0.09788 0.06473 0.0
N1197 N 0.77139 0.09742 0.04424 0.0
C1198 C 0.73462 0.0918 0.06309 0.0
C1199 C 0.73379 0.08485 0.01928 0.0
C1200 C 0.75878 0.09096 0.02175 0.0
C1201 C 0.72108 0.0855 0.0401 0.0
H1202 H 0.76942 0.1043 0.08254 0.0
H1203 H 0.76792 0.09164 1.00557 0.0
O1204 O 0.85905 0.15361 0.05273 0.0
O1205 O 0.83104 0.1136 0.07564 0.0
O1206 O 0.80534 0.14793 0.05297 0.0
O1207 O 0.8266 0.11081 0.01933 0.0
H1208 H 0.89316 0.14537 0.08185 0.0
H1209 H 0.86858 0.19967 0.04948 0.0
H1210 H 0.92831 0.17611 0.10199 0.0
H1211 H 0.90406 0.22944 0.07032 0.0
H1212 H 0.80698 0.03531 0.08107 0.0
H1213 H 0.81187 0.12118 0.11752 0.0
H1214 H 0.82672 0.06668 0.0599 0.0
H1215 H 0.79232 0.08889 0.13768 0.0
H1216 H 0.86459 0.21886 0.14651 0.0
H1217 H 0.78976 0.18723 0.13904 0.0
H1218 H 0.93326 0.12217 0.01899 0.0
H1219 H 0.91162 0.06066 0.05215 0.0
H1220 H 0.75921 0.14647 0.04746 0.0
H1221 H 0.82794 0.19352 0.06183 0.0
H1222 H 0.74081 0.18242 0.05025 0.0
H1223 H 0.80836 0.22866 0.06435 0.0
H1224 H 0.80283 0.11245 0.97788 0.0
H1225 H 0.83213 0.0661 0.01804 0.0
H1226 H 0.78749 0.07714 0.94428 0.0
H1227 H 0.81624 0.03153 0.98376 0.0
H1228 H 0.85951 0.20067 0.97458 0.0
H1229 H 0.78362 0.17568 0.97099 0.0
H1230 H 0.72601 0.09318 0.07984 0.0
H1231 H 0.72454 0.08001 1.00108 0.0
Li1232 Li 0.22861 0.58676 0.23043 0.0
Li1233 Li 0.19972 0.57295 0.25491 0.0
Li1234 Li 0.22273 0.54615 0.23642 0.0
Li1235 Li 0.19293 0.55939 0.21217 0.0
C1236 C 0.23846 0.58226 0.28557 0.0
N1237 N 0.24552 0.59547 0.33605 0.0
C1238 C 0.24211 0.60654 0.29708 0.0
C1239 C 0.23886 0.56474 0.29975 0.0
C1240 C 0.24555 0.61285 0.32261 0.0
C1241 C 0.24231 0.57176 0.32524 0.0
C1242 C 0.18899 0.61366 0.23852 0.0
C1243 C 0.15814 0.63688 0.24247 0.0
N1244 N 0.17412 0.65622 0.25533 0.0
C1245 C 0.20511 0.63386 0.25166 0.0
C1246 C 0.16531 0.61525 0.23374 0.0
C1247 C 0.19726 0.65518 0.26003 0.0
C1248 C 0.24653 0.62753 0.21208 0.0
N1249 N 0.25155 0.61251 0.22679 0.0
C1250 C 0.28782 0.63891 0.24359 0.0
C1251 C 0.2721 0.61711 0.2415 0.0
C1252 C 0.28195 0.65591 0.23059 0.0
C1253 C 0.26171 0.64964 0.21369 0.0
H1254 H 0.22989 0.62312 0.20066 0.0
H1255 H 0.27548 0.60454 0.25277 0.0
C1256 C 0.18159 0.55889 0.29445 0.0
N1257 N 0.18479 0.57836 0.28371 0.0
C1258 C 0.16951 0.55903 0.31515 0.0
C1259 C 0.16451 0.59952 0.31363 0.0
C1260 C 0.17695 0.59866 0.29306 0.0
C1261 C 0.16046 0.57939 0.32468 0.0
H1262 H 0.1883 0.54309 0.28672 0.0
H1263 H 0.17989 0.61405 0.28456 0.0
C1264 C 0.239 0.56575 0.1879 0.0
N1265 N 0.26622 0.58582 0.15503 0.0
C1266 C 0.22814 0.57084 0.16701 0.0
C1267 C 0.26374 0.57063 0.19191 0.0
C1268 C 0.2422 0.58102 0.15063 0.0
C1269 C 0.27718 0.58088 0.17515 0.0
C1270 C 0.16432 0.53079 0.2375 0.0
C1271 C 0.1557 0.50618 0.23601 0.0
C1272 C 0.14848 0.54651 0.23893 0.0
C1273 C 0.13139 0.49773 0.23605 0.0
C1274 C 0.12429 0.53738 0.23893 0.0
N1275 N 0.11631 0.51338 0.2375 0.0
C1276 C 0.2252 0.50497 0.25292 0.0
C1277 C 0.2601 0.52293 0.23739 0.0
C1278 C 0.23686 0.48853 0.26109 0.0
N1279 N 0.23707 0.52172 0.24158 0.0
C1280 C 0.27245 0.50677 0.24509 0.0
C1281 C 0.26086 0.48961 0.25744 0.0
H1282 H 0.20711 0.50526 0.25675 0.0
H1283 H 0.26906 0.53696 0.22894 0.0
C1284 C 0.16371 0.56995 0.17794 0.0
N1285 N 0.17 0.55119 0.18629 0.0
C1286 C 0.14581 0.5657 0.15912 0.0
C1287 C 0.14145 0.52278 0.15777 0.0
C1288 C 0.15948 0.52792 0.17677 0.0
C1289 C 0.13451 0.54189 0.14888 0.0
H1290 H 0.17287 0.58818 0.1857 0.0
H1291 H 0.1651 0.51349 0.18396 0.0
O1292 O 0.23458 0.57569 0.26058 0.0
O1293 O 0.1963 0.5926 0.2299 0.0
O1294 O 0.22549 0.55628 0.20444 0.0
O1295 O 0.18812 0.53926 0.23725 0.0
H1296 H 0.2423 0.6204 0.28647 0.0
H1297 H 0.23622 0.54589 0.29123 0.0
H1298 H 0.24826 0.63156 0.33173 0.0
H1299 H 0.24238 0.55835 0.33643 0.0
H1300 H 0.13986 0.63829 0.23898 0.0
H1301 H 0.22344 0.63315 0.25559 0.0
H1302 H 0.15253 0.59997 0.22341 0.0
H1303 H 0.20956 0.67087 0.27032 0.0
H1304 H 0.30335 0.64325 0.25672 0.0
H1305 H 0.25652 0.66251 0.20365 0.0
H1306 H 0.16718 0.54335 0.32349 0.0
H1307 H 0.15763 0.61551 0.32041 0.0
H1308 H 0.20908 0.56704 0.16343 0.0
H1309 H 0.27251 0.56725 0.20813 0.0
H1310 H 0.234 0.58513 0.13444 0.0
H1311 H 0.29632 0.58503 0.17822 0.0
H1312 H 0.16765 0.49368 0.23467 0.0
H1313 H 0.1548 0.56554 0.24009 0.0
H1314 H 0.12449 0.47873 0.23489 0.0
H1315 H 0.11187 0.54938 0.24005 0.0
H1316 H 0.22751 0.47578 0.27093 0.0
H1317 H 0.2909 0.50792 0.24178 0.0
H1318 H 0.14136 0.58081 0.15219 0.0
H1319 H 0.13311 0.50422 0.15006 0.0
Li1320 Li 0.82126 0.90573 0.55064 0.0
Li1321 Li 0.83689 0.87708 0.57088 0.0
Li1322 Li 0.86432 0.90804 0.55269 0.0
Li1323 Li 0.83783 0.87372 0.52509 0.0
C1324 C 0.83824 0.9303 0.59798 0.0
N1325 N 0.82627 0.96492 0.63381 0.0
C1326 C 0.82436 0.92345 0.61616 0.0
C1327 C 0.84615 0.9548 0.59818 0.0
C1328 C 0.81848 0.94121 0.63408 0.0
C1329 C 0.83986 0.97201 0.6164 0.0
C1330 C 0.78866 0.85991 0.55132 0.0
C1331 C 0.75526 0.82671 0.54648 0.0
N1332 N 0.74587 0.83908 0.5654 0.0
C1333 C 0.77872 0.87225 0.57076 0.0
C1334 C 0.77689 0.83692 0.5391 0.0
C1335 C 0.75706 0.86144 0.57758 0.0
C1336 C 0.78908 0.92221 0.52399 0.0
N1337 N 0.7967 0.92309 0.54766 0.0
C1338 C 0.7686 0.9469 0.56173 0.0
C1339 C 0.78682 0.93502 0.56647 0.0
C1340 C 0.7605 0.94641 0.53741 0.0
C1341 C 0.77107 0.93393 0.51841 0.0
H1342 H 0.79708 0.91238 0.50939 0.0
H1343 H 0.79266 0.9351 0.58513 0.0
C1344 C 0.84857 0.87313 0.61963 0.0
N1345 N 0.83349 0.86205 0.59937 0.0
C1346 C 0.84537 0.86613 0.64211 0.0
C1347 C 0.81168 0.83573 0.62247 0.0
C1348 C 0.81559 0.84326 0.60033 0.0
C1349 C 0.82643 0.84745 0.64398 0.0
H1350 H 0.86264 0.88808 0.61854 0.0
H1351 H 0.80387 0.83443 0.58411 0.0
C1352 C 0.85013 0.92796 0.51486 0.0
N1353 N 0.86648 0.96827 0.49592 0.0
C1354 C 0.86027 0.92561 0.49266 0.0
C1355 C 0.84803 0.95076 0.52726 0.0
C1356 C 0.86852 0.94622 0.48343 0.0
C1357 C 0.85647 0.97094 0.51744 0.0
C1358 C 0.87029 0.85129 0.54128 0.0
C1359 C 0.89107 0.85081 0.52974 0.0
C1360 C 0.85554 0.8297 0.54319 0.0
C1361 C 0.89672 0.8286 0.52015 0.0
C1362 C 0.86183 0.80786 0.53342 0.0
N1363 N 0.88211 0.80777 0.52218 0.0
C1364 C 0.90396 0.94677 0.57371 0.0
C1365 C 0.90644 0.9252 0.5338 0.0
C1366 C 0.92551 0.96244 0.57292 0.0
N1367 N 0.89478 0.92876 0.55418 0.0
C1368 C 0.92793 0.94037 0.53222 0.0
C1369 C 0.93781 0.95938 0.55192 0.0
H1370 H 0.89459 0.94905 0.58989 0.0
H1371 H 0.89879 0.91072 0.51855 0.0
C1372 C 0.8126 0.84532 0.4805 0.0
N1373 N 0.83463 0.85542 0.4919 0.0
C1374 C 0.80934 0.83632 0.45517 0.0
C1375 C 0.85149 0.84823 0.45365 0.0
C1376 C 0.85395 0.8568 0.47903 0.0
C1377 C 0.82887 0.83812 0.44117 0.0
H1378 H 0.79737 0.84525 0.49085 0.0
H1379 H 0.87116 0.86586 0.48823 0.0
O1380 O 0.84443 0.91316 0.58043 0.0
O1381 O 0.80997 0.87003 0.54446 0.0
O1382 O 0.84233 0.90802 0.5244 0.0
O1383 O 0.8642 0.87279 0.55031 0.0
H1384 H 0.81788 0.90465 0.6163 0.0
H1385 H 0.85705 0.96052 0.58446 0.0
H1386 H 0.80764 0.93614 0.64814 0.0
H1387 H 0.84583 0.99101 0.6167 0.0
H1388 H 0.74598 0.80892 0.53721 0.0
H1389 H 0.78774 0.88986 0.58061 0.0
H1390 H 0.78451 0.82693 0.52427 0.0
H1391 H 0.74918 0.87079 0.59262 0.0
H1392 H 0.76068 0.95599 0.57692 0.0
H1393 H 0.76563 0.93334 0.49939 0.0
H1394 H 0.8576 0.87543 0.65789 0.0
H1395 H 0.79676 0.82134 0.6228 0.0
H1396 H 0.86194 0.90809 0.48274 0.0
H1397 H 0.83989 0.95286 0.54423 0.0
H1398 H 0.87655 0.94469 0.46635 0.0
H1399 H 0.85502 0.98871 0.52691 0.0
H1400 H 0.90261 0.86742 0.52807 0.0
H1401 H 0.83931 0.82982 0.55195 0.0
H1402 H 0.91269 0.82793 0.51107 0.0
H1403 H 0.85058 0.79098 0.53471 0.0
H1404 H 0.93257 0.9766 0.58868 0.0
H1405 H 0.93652 0.93744 0.51552 0.0
H1406 H 0.79157 0.8285 0.44663 0.0
H1407 H 0.86709 0.85063 0.44383 0.0
Li1408 Li 0.95862 0.07205 0.30302 0.0
Li1409 Li 0.92317 0.04194 0.27458 0.0
Li1410 Li 0.95719 0.06912 0.25335 0.0
Li1411 Li 0.92685 0.09494 0.27863 0.0
C1412 C 0.97278 0.02857 0.27849 0.0
N1413 N 1.00228 0.99775 0.28695 0.0
C1414 C 0.96695 1.01281 0.29439 0.0
C1415 C 0.99359 0.02871 0.2669 0.0
C1416 C 0.9821 0.99735 0.29842 0.0
C1417 C 1.00828 1.01297 0.27141 0.0
C1418 C 0.91451 0.06905 0.32575 0.0
C1419 C 0.89872 0.08658 0.36227 0.0
N1420 N 0.8989 0.06613 0.37105 0.0
C1421 C 0.91455 0.04821 0.3351 0.0
C1422 C 0.90656 0.08841 0.33939 0.0
C1423 C 0.90659 0.04709 0.35806 0.0
C1424 C 0.97054 0.08039 0.35983 0.0
N1425 N 0.97812 0.07148 0.33776 0.0
C1426 C 1.00889 0.05813 0.3612 0.0
C1427 C 0.99739 0.06068 0.33863 0.0
C1428 C 1.00121 0.06676 0.38433 0.0
C1429 C 0.98152 0.07821 0.38277 0.0
H1430 H 0.95552 0.08914 0.35997 0.0
H1431 H 1.00408 0.05364 0.32168 0.0
C1432 C 0.91268 0.98642 0.26224 0.0
N1433 N 0.9036 1.0056 0.27346 0.0
C1434 C 0.90223 0.96198 0.26271 0.0
C1435 C 0.87238 0.97614 0.28576 0.0
C1436 C 0.88351 1.0004 0.28507 0.0
C1437 C 0.88158 0.95591 0.27469 0.0
H1438 H 0.92855 0.98992 0.25302 0.0
H1439 H 0.87608 1.01511 0.29437 0.0
C1440 C 0.98591 0.11298 0.28136 0.0
N1441 N 0.03042 0.13969 0.27892 0.0
C1442 C 0.98841 0.13624 0.27664 0.0
C1443 C 1.00603 0.10331 0.28489 0.0
C1444 C 1.01107 0.14945 0.27546 0.0
C1445 C 0.02838 0.1171 0.28357 0.0
C1446 C 0.91517 0.06083 0.22415 0.0
C1447 C 0.9139 0.08022 0.21277 0.0
C1448 C 0.91208 0.03755 0.21006 0.0
C1449 C 0.90951 0.07596 0.18731 0.0
C1450 C 0.90777 0.03405 0.18464 0.0
N1451 N 0.90658 0.05316 0.17389 0.0
C1452 C 0.97391 0.04518 0.20397 0.0
C1453 C 0.98938 0.0866 0.21336 0.0
C1454 C 0.98523 0.04277 0.18167 0.0
N1455 N 0.97584 0.0669 0.21985 0.0
C1456 C 1.00101 0.08495 0.1912 0.0
C1457 C 0.99937 0.06274 0.17425 0.0
H1458 H 0.9634 0.02923 0.20844 0.0
H1459 H 0.99127 0.10407 0.22531 0.0
C1460 C 0.88871 0.12984 0.29111 0.0
N1461 N 0.9091 0.12757 0.27993 0.0
C1462 C 0.87783 0.15068 0.29213 0.0
C1463 C 0.90822 0.16784 0.27022 0.0
C1464 C 0.91847 0.14665 0.26944 0.0
C1465 C 0.88723 0.17089 0.28172 0.0
H1466 H 0.88044 0.11539 0.29954 0.0
H1467 H 0.9342 0.14573 0.26003 0.0
O1468 O 0.95831 0.04398 0.27444 0.0
O1469 O 0.9224 0.07054 0.30342 0.0
O1470 O 0.96391 0.09958 0.2823 0.0
O1471 O 0.92009 0.0647 0.24895 0.0
H1472 H 0.95098 1.01262 0.30362 0.0
H1473 H 0.99838 0.04091 0.25463 0.0
H1474 H 0.97785 0.98507 0.31071 0.0
H1475 H 0.02446 1.01288 0.2626 0.0
H1476 H 0.89253 0.10143 0.37307 0.0
H1477 H 0.92081 0.03314 0.3248 0.0
H1478 H 0.90659 0.10473 0.33245 0.0
H1479 H 0.90657 0.03109 0.36556 0.0
H1480 H 0.02399 0.04947 0.36024 0.0
H1481 H 0.97403 0.08524 0.3992 0.0
H1482 H 0.91045 0.94788 0.25342 0.0
H1483 H 0.85683 0.97345 0.2956 0.0
H1484 H 0.97304 0.144 0.27393 0.0
H1485 H 1.00436 0.08531 0.28854 0.0
H1486 H 1.01327 0.16747 0.2718 0.0
H1487 H 0.04412 0.10984 0.28624 0.0
H1488 H 0.91641 0.09837 0.22349 0.0
H1489 H 0.91321 0.02241 0.21866 0.0
H1490 H 0.90849 0.09078 0.1782 0.0
H1491 H 0.90545 1.01615 0.17346 0.0
H1492 H 0.98277 0.0249 0.17049 0.0
H1493 H 1.01109 0.10145 0.18754 0.0
H1494 H 0.86198 0.1508 0.3015 0.0
H1495 H 0.9169 0.18173 0.26132 0.0
Li1496 Li 0.3343 0.64946 0.57488 0.0
Li1497 Li 0.3531 0.61797 0.54761 0.0
Li1498 Li 0.33019 0.64635 0.53018 0.0
Li1499 Li 0.30747 0.61515 0.54873 0.0
C1500 C 0.38098 0.66801 0.56324 0.0
N1501 N 0.42369 0.69557 0.58599 0.0
C1502 C 0.39333 0.66022 0.58148 0.0
C1503 C 0.39032 0.68979 0.55655 0.0
C1504 C 0.41492 0.67442 0.59275 0.0
C1505 C 0.41194 0.70348 0.56829 0.0
C1506 C 0.32102 0.59431 0.58288 0.0
C1507 C 0.30859 0.55109 0.57548 0.0
N1508 N 0.29578 0.55331 0.59515 0.0
C1509 C 0.30784 0.59619 0.60308 0.0
C1510 C 0.32148 0.57162 0.56898 0.0
C1511 C 0.29515 0.57524 0.60896 0.0
C1512 C 0.3164 0.66912 0.61811 0.0
N1513 N 0.33546 0.67276 0.60507 0.0
C1514 C 0.34991 0.71155 0.63102 0.0
C1515 C 0.35206 0.69358 0.61114 0.0
C1516 C 0.3304 0.7083 0.64488 0.0
C1517 C 0.3136 0.68657 0.63821 0.0
H1518 H 0.30285 0.65299 0.61233 0.0
H1519 H 0.3665 0.69686 0.60008 0.0
C1520 C 0.39972 0.61863 0.53082 0.0
N1521 N 0.38345 0.60545 0.54238 0.0
C1522 C 0.4221 0.61274 0.52724 0.0
C1523 C 0.41093 0.57913 0.54675 0.0
C1524 C 0.38879 0.58587 0.55028 0.0
C1525 C 0.42826 0.5927 0.53521 0.0
H1526 H 0.39545 0.63407 0.52444 0.0
H1527 H 0.37602 0.5755 0.5596 0.0
C1528 C 0.3002 0.67143 0.55845 0.0
N1529 N 0.28845 0.71629 0.56996 0.0
C1530 C 0.2773 0.67342 0.56417 0.0
C1531 C 0.3171 0.69228 0.5585 0.0
C1532 C 0.27172 0.69626 0.56996 0.0
C1533 C 0.31082 0.71478 0.56439 0.0
C1534 C 0.31657 0.59348 0.50041 0.0
C1535 C 0.30015 0.59839 0.48361 0.0
C1536 C 0.32228 0.57065 0.49698 0.0
C1537 C 0.28943 0.5802 0.46378 0.0
C1538 C 0.31114 0.55293 0.47695 0.0
N1539 N 0.29508 0.55803 0.46091 0.0
C1540 C 0.34703 0.67309 0.49464 0.0
C1541 C 0.30564 0.6661 0.49821 0.0
C1542 C 0.34431 0.68659 0.47674 0.0
N1543 N 0.3278 0.6634 0.50501 0.0
C1544 C 0.30211 0.67946 0.48056 0.0
C1545 C 0.32161 0.69008 0.46977 0.0
H1546 H 0.36443 0.67053 0.50047 0.0
H1547 H 0.29068 0.65793 0.50665 0.0
C1548 C 0.26131 0.60715 0.56572 0.0
N1549 N 0.27338 0.59803 0.54711 0.0
C1550 C 0.23639 0.60096 0.56454 0.0
C1551 C 0.23618 0.5753 0.5253 0.0
C1552 C 0.26119 0.5819 0.52729 0.0
C1553 C 0.22314 0.58516 0.54387 0.0
H1554 H 0.27096 0.62033 0.58114 0.0
H1555 H 0.27061 0.57465 0.5125 0.0
O1556 O 0.35974 0.65448 0.5521 0.0
O1557 O 0.33304 0.61457 0.57637 0.0
O1558 O 0.30615 0.64922 0.55338 0.0
O1559 O 0.32735 0.61102 0.51988 0.0
H1560 H 0.38625 0.64345 0.58692 0.0
H1561 H 0.38088 0.69614 0.54257 0.0
H1562 H 0.42468 0.66865 0.60691 0.0
H1563 H 0.41936 0.72041 0.56336 0.0
H1564 H 0.30873 0.53339 0.56485 0.0
H1565 H 0.30739 0.61361 0.61408 0.0
H1566 H 0.33155 0.56991 0.55326 0.0
H1567 H 0.28479 0.57642 0.62449 0.0
H1568 H 0.36305 0.72817 0.63494 0.0
H1569 H 0.29832 0.68304 0.6483 0.0
H1570 H 0.43435 0.62375 0.51795 0.0
H1571 H 0.41458 0.56365 0.55355 0.0
H1572 H 0.26398 0.65752 0.56421 0.0
H1573 H 0.33495 0.69113 0.55426 0.0
H1574 H 0.25408 0.69805 0.57447 0.0
H1575 H 0.32375 0.73104 0.5646 0.0
H1576 H 0.29551 0.61592 0.48597 0.0
H1577 H 0.33522 0.56668 0.50963 0.0
H1578 H 0.27658 0.58369 0.45072 0.0
H1579 H 0.3153 0.53514 0.47412 0.0
H1580 H 0.35975 0.69463 0.46884 0.0
H1581 H 0.2843 0.68142 0.47536 0.0
H1582 H 0.22759 0.60944 0.57933 0.0
H1583 H 0.22717 0.56273 0.50913 0.0
Li1584 Li 0.42396 0.5419 0.77318 0.0
Li1585 Li 0.45916 0.57207 0.80233 0.0
Li1586 Li 0.4272 0.59486 0.77748 0.0
Li1587 Li 0.45784 0.56951 0.75226 0.0
C1588 C 0.41466 0.56946 0.82448 0.0
N1589 N 0.39877 0.56806 0.86991 0.0
C1590 C 0.41434 0.54894 0.83448 0.0
C1591 C 0.40687 0.58925 0.83749 0.0
C1592 C 0.40625 0.5486 0.8575 0.0
C1593 C 0.39891 0.58819 0.86047 0.0
C1594 C 0.47223 0.52752 0.7769 0.0
C1595 C 0.50482 0.50771 0.76749 0.0
N1596 N 0.49857 0.49356 0.78394 0.0
C1597 C 0.46613 0.51283 0.79373 0.0
C1598 C 0.49174 0.52502 0.76369 0.0
C1599 C 0.47967 0.49575 0.79702 0.0
C1600 C 0.41356 0.48629 0.76014 0.0
N1601 N 0.4046 0.50537 0.77182 0.0
C1602 C 0.37373 0.47563 0.78426 0.0
C1603 C 0.38474 0.49997 0.78372 0.0
C1604 C 0.38282 0.4555 0.77271 0.0
C1605 C 0.40323 0.46177 0.76045 0.0
H1606 H 0.42924 0.48992 0.75067 0.0
H1607 H 0.3774 0.51459 0.79338 0.0
C1608 C 0.47072 0.58025 0.85917 0.0
N1609 N 0.4783 0.5712 0.83715 0.0
C1610 C 0.48149 0.57786 0.88214 0.0
C1611 C 0.50858 0.55729 0.86067 0.0
C1612 C 0.49729 0.56001 0.83806 0.0
C1613 C 0.50094 0.56607 0.88379 0.0
H1614 H 0.45587 0.58923 0.85925 0.0
H1615 H 0.50388 0.55277 0.82112 0.0
C1616 C 0.41606 0.56133 0.72285 0.0
N1617 N 0.40784 0.55452 0.67262 0.0
C1618 C 0.41527 0.58104 0.71182 0.0
C1619 C 0.41272 0.53818 0.70842 0.0
C1620 C 0.41106 0.57721 0.68637 0.0
C1621 C 0.40858 0.53511 0.68303 0.0
C1622 C 0.4834 0.61615 0.77857 0.0
C1623 C 0.48058 0.63452 0.76618 0.0
C1624 C 0.50603 0.61465 0.78768 0.0
C1625 C 0.50055 0.65122 0.76318 0.0
C1626 C 0.52556 0.6317 0.78429 0.0
N1627 N 0.52243 0.64948 0.77222 0.0
C1628 C 0.42236 0.65085 0.78656 0.0
C1629 C 0.38569 0.62575 0.77268 0.0
C1630 C 0.41206 0.67202 0.78736 0.0
N1631 N 0.4095 0.62759 0.77918 0.0
C1632 C 0.37468 0.6465 0.77338 0.0
C1633 C 0.3875 0.67084 0.78076 0.0
H1634 H 0.4411 0.65347 0.79207 0.0
H1635 H 0.37468 0.60796 0.76668 0.0
C1636 C 0.47524 0.54594 0.70298 0.0
N1637 N 0.47679 0.56762 0.71883 0.0
C1638 C 0.48676 0.54372 0.68079 0.0
C1639 C 0.50184 0.58601 0.69028 0.0
C1640 C 0.49006 0.58747 0.71232 0.0
C1641 C 0.50067 0.56386 0.67341 0.0
H1642 H 0.46491 0.52987 0.70739 0.0
H1643 H 0.49165 0.60491 0.72413 0.0
O1644 O 0.42279 0.57027 0.80214 0.0
O1645 O 0.45927 0.5444 0.77346 0.0
O1646 O 0.42076 0.56477 0.74763 0.0
O1647 O 0.46411 0.59965 0.78173 0.0
H1648 H 0.42041 0.53353 0.82464 0.0
H1649 H 0.40708 0.60527 0.82996 0.0
H1650 H 0.40595 0.53287 0.86552 0.0
H1651 H 0.39286 0.60338 0.8708 0.0
H1652 H 0.51996 0.50554 0.75739 0.0
H1653 H 0.45115 0.51466 0.80418 0.0
H1654 H 0.49674 0.53636 0.75069 0.0
H1655 H 0.47517 0.48425 0.80999 0.0
H1656 H 0.35836 0.4728 0.79434 0.0
H1657 H 0.41134 0.44777 0.75079 0.0
H1658 H 0.474 0.58502 0.89852 0.0
H1659 H 0.52348 0.54834 0.85973 0.0
H1660 H 0.418 0.59909 0.72281 0.0
H1661 H 0.41349 0.52279 0.71675 0.0
H1662 H 0.4104 0.59228 0.67754 0.0
H1663 H 0.40603 0.51731 0.67159 0.0
H1664 H 0.46319 0.63568 0.75872 0.0
H1665 H 0.50847 0.60047 0.79726 0.0
H1666 H 0.49865 0.66551 0.75358 0.0
H1667 H 0.5432 0.6308 0.79125 0.0
H1668 H 0.42371 0.68941 0.79351 0.0
H1669 H 0.35591 0.64309 0.76776 0.0
H1670 H 0.48463 0.52587 0.66965 0.0
H1671 H 0.51168 0.60264 0.68664 0.0
Li1672 Li 0.70109 0.07347 0.75586 0.0
Li1673 Li 0.73148 0.08772 0.73372 0.0
Li1674 Li 0.69701 0.05967 0.71297 0.0
Li1675 Li 0.72722 0.04783 0.74024 0.0
C1676 C 0.68678 0.11005 0.73939 0.0
N1677 N 0.66235 0.14546 0.75742 0.0
C1678 C 0.69793 0.12991 0.75737 0.0
C1679 C 0.66331 0.10842 0.73026 0.0
C1680 C 0.68526 0.14756 0.76634 0.0
C1681 C 0.65123 0.12644 0.73971 0.0
C1682 C 0.75359 0.09119 0.78009 0.0
C1683 C 0.79429 0.09808 0.79709 0.0
N1684 N 0.79171 0.1192 0.81122 0.0
C1685 C 0.75125 0.11278 0.79509 0.0
C1686 C 0.77519 0.0836 0.78135 0.0
C1687 C 0.77076 0.12676 0.81058 0.0
C1688 C 0.69585 0.07902 0.80486 0.0
N1689 N 0.68456 0.07987 0.78313 0.0
C1690 C 0.64924 0.08474 0.80155 0.0
C1691 C 0.66169 0.08252 0.78103 0.0
C1692 C 0.66048 0.08382 0.82416 0.0
C1693 C 0.68409 0.08111 0.82584 0.0
H1694 H 0.71371 0.07586 0.80576 0.0
H1695 H 0.65273 0.0817 0.76334 0.0
C1696 C 0.74431 0.13225 0.72165 0.0
N1697 N 0.75342 0.11509 0.73044 0.0
C1698 C 0.75839 0.1548 0.72273 0.0
C1699 C 0.79159 0.14068 0.73946 0.0
C1700 C 0.77683 0.11837 0.73798 0.0
C1701 C 0.78207 0.15944 0.73273 0.0
H1702 H 0.72581 0.12881 0.71492 0.0
H1703 H 0.78389 0.10401 0.74362 0.0
C1704 C 0.67271 0.03072 0.74898 0.0
N1705 N 0.6341 1.01478 0.77288 0.0
C1706 C 0.67585 0.02115 0.76988 0.0
C1707 C 0.64989 0.03194 0.74009 0.0
C1708 C 0.65612 1.01329 0.78177 0.0
C1709 C 0.63061 0.02381 0.75245 0.0
C1710 C 0.74885 0.06679 0.69594 0.0
C1711 C 0.74428 0.07881 0.67722 0.0
C1712 C 0.77202 0.06461 0.70227 0.0
C1713 C 0.7631 0.08875 0.66528 0.0
C1714 C 0.79036 0.07479 0.68988 0.0
N1715 N 0.78556 0.08657 0.67182 0.0
C1716 C 0.67357 0.07008 0.67469 0.0
C1717 C 0.66399 0.02857 0.67665 0.0
C1718 C 0.65676 0.0665 0.65495 0.0
N1719 N 0.67648 0.05134 0.68521 0.0
C1720 C 0.64705 0.02407 0.65666 0.0
C1721 C 0.64316 0.04334 0.64598 0.0
H1722 H 0.68402 0.08791 0.68204 0.0
H1723 H 0.66685 1.01417 0.68569 0.0
C1724 C 0.74464 0.02427 0.77166 0.0
N1725 N 0.74247 0.02466 0.74747 0.0
C1726 C 0.75794 1.00932 0.78014 0.0
C1727 C 0.76585 0.99491 0.73838 0.0
C1728 C 0.75244 1.01037 0.7307 0.0
C1729 C 0.76881 0.9945 0.76342 0.0
H1730 H 0.73667 0.03626 0.78441 0.0
H1731 H 0.75033 1.01138 0.71159 0.0
O1732 O 0.69894 0.09259 0.73032 0.0
O1733 O 0.73459 0.0771 0.76499 0.0
O1734 O 0.69187 0.03911 0.73746 0.0
O1735 O 0.73079 0.05762 0.70836 0.0
H1736 H 0.71623 0.13178 0.76416 0.0
H1737 H 0.65435 0.09317 0.71638 0.0
H1738 H 0.69367 0.16298 0.78032 0.0
H1739 H 0.63299 0.12527 0.73301 0.0
H1740 H 0.81119 0.09257 0.798 0.0
H1741 H 0.73449 0.11857 0.79502 0.0
H1742 H 0.77739 0.06696 0.76991 0.0
H1743 H 0.7692 0.14355 0.82219 0.0
H1744 H 0.63079 0.08614 0.79958 0.0
H1745 H 0.69317 0.08019 0.84306 0.0
H1746 H 0.75038 0.16887 0.71743 0.0
H1747 H 0.80993 0.14357 0.74682 0.0
H1748 H 0.69336 0.02006 0.77702 0.0
H1749 H 0.64713 0.03952 0.72411 0.0
H1750 H 0.65832 1.00606 0.79808 0.0
H1751 H 0.61288 0.02485 0.7459 0.0
H1752 H 0.72643 0.08069 0.67219 0.0
H1753 H 0.77587 0.05558 0.71691 0.0
H1754 H 0.75987 0.09826 0.65087 0.0
H1755 H 0.80843 0.07346 0.69473 0.0
H1756 H 0.65447 0.08162 0.64673 0.0
H1757 H 0.63681 1.006 0.64996 0.0
H1758 H 0.76018 1.00982 0.79962 0.0
H1759 H 0.77381 0.98351 0.72498 0.0
Li1760 Li 0.79617 0.73 0.03981 0.0
Li1761 Li 0.81261 0.69861 1.01594 0.0
Li1762 Li 0.79552 0.72619 0.99381 0.0
Li1763 Li 0.77026 0.69485 1.0126 0.0
C1764 C 0.83692 0.75654 0.02445 0.0
N1765 N 0.86403 0.80271 0.03592 0.0
C1766 C 0.86076 0.76037 0.03337 0.0
C1767 C 0.82691 0.77614 0.02123 0.0
C1768 C 0.87416 0.78387 0.03913 0.0
C1769 C 0.8409 0.79935 0.02713 0.0
C1770 C 0.80207 0.68223 0.05499 0.0
C1771 C 0.8133 0.64457 0.05837 0.0
N1772 N 0.82553 0.65528 0.08043 0.0
C1773 C 0.81475 0.69283 0.07773 0.0
C1774 C 0.80131 0.65787 0.04526 0.0
C1775 C 0.82647 0.6789 0.0903 0.0
C1776 C 0.781 0.74137 0.08653 0.0
N1777 N 0.79857 0.74912 0.07294 0.0
C1778 C 0.82061 0.77494 0.10906 0.0
C1779 C 0.81813 0.76577 0.08373 0.0
C1780 C 0.80288 0.76691 0.12358 0.0
C1781 C 0.78269 0.75015 0.11179 0.0
H1782 H 0.76627 0.72717 0.07801 0.0
H1783 H 0.83236 0.77123 0.07307 0.0
C1784 C 0.83999 0.66429 0.99806 0.0
N1785 N 0.83843 0.68293 0.01634 0.0
C1786 C 0.85905 0.65265 0.999 0.0
C1787 C 0.87452 0.67987 0.03741 0.0
C1788 C 0.85533 0.69111 0.03557 0.0
C1789 C 0.87656 0.66032 0.01897 0.0
H1790 H 0.82647 0.65851 0.98276 0.0
H1791 H 0.85366 0.70617 0.04968 0.0
C1792 C 0.75377 0.74264 0.0263 0.0
N1793 N 0.72316 0.76866 0.04991 0.0
C1794 C 0.7367 0.73167 0.03958 0.0
C1795 C 0.75512 0.76678 0.0248 0.0
C1796 C 0.72145 0.74515 0.05148 0.0
C1797 C 0.73951 0.77964 0.03691 0.0
C1798 C 0.77561 0.67304 0.96893 0.0
C1799 C 0.76146 0.67997 0.95145 0.0
C1800 C 0.77304 0.64867 0.96998 0.0
C1801 C 0.74492 0.66235 0.93529 0.0
C1802 C 0.75628 0.6316 0.95351 0.0
N1803 N 0.74267 0.63874 0.93666 0.0
C1804 C 0.81116 0.72693 0.94757 0.0
C1805 C 0.79235 0.75969 0.96018 0.0
C1806 C 0.81482 0.7337 0.9251 0.0
N1807 N 0.79993 0.73974 0.96455 0.0
C1808 C 0.7959 0.76729 0.93794 0.0
C1809 C 0.80711 0.7541 0.91986 0.0
H1810 H 0.81711 0.71118 0.95141 0.0
H1811 H 0.78338 0.76962 0.97379 0.0
C1812 C 0.73838 0.6559 0.02423 0.0
N1813 N 0.74015 0.67259 1.00981 0.0
C1814 C 0.71713 0.63959 0.02382 0.0
C1815 C 0.69939 0.65807 0.99403 0.0
C1816 C 0.72116 0.67399 0.99488 0.0
C1817 C 0.69717 0.64053 1.00865 0.0
H1818 H 0.75335 0.6555 0.03649 0.0
H1819 H 0.72283 0.68764 0.98383 0.0
O1820 O 0.8234 0.73374 0.01936 0.0
O1821 O 0.79087 0.69569 0.04212 0.0
O1822 O 0.76883 0.72972 1.01448 0.0
O1823 O 0.79137 0.6901 0.9854 0.0
H1824 H 0.86879 0.74539 0.036 0.0
H1825 H 0.8085 0.77344 1.01444 0.0
H1826 H 0.89259 0.78713 0.04619 0.0
H1827 H 0.83335 0.8147 0.02481 0.0
H1828 H 0.81299 0.62578 0.05094 0.0
H1829 H 0.81583 0.71166 0.08552 0.0
H1830 H 0.79194 0.64941 0.02753 0.0
H1831 H 0.83642 0.68692 0.10785 0.0
H1832 H 0.83649 0.78788 0.11724 0.0
H1833 H 0.76879 0.74292 0.12214 0.0
H1834 H 0.86015 0.63795 0.98416 0.0
H1835 H 0.88738 0.68619 0.0533 0.0
H1836 H 0.7354 0.71303 0.04097 0.0
H1837 H 0.76799 0.77551 1.01437 0.0
H1838 H 0.70827 0.73692 0.06198 0.0
H1839 H 0.74038 0.79835 0.03594 0.0
H1840 H 0.76296 0.69878 0.95061 0.0
H1841 H 0.7837 0.643 0.9835 0.0
H1842 H 0.73376 0.66746 0.92176 0.0
H1843 H 0.75403 0.61269 0.95419 0.0
H1844 H 0.82386 0.72313 0.91204 0.0
H1845 H 0.78945 0.78303 0.93475 0.0
H1846 H 0.71618 0.62678 0.03583 0.0
H1847 H 0.6845 0.65945 0.98202 0.0
Li1848 Li 0.90415 0.52427 0.82407 0.0
Li1849 Li 0.94007 0.5545 0.83475 0.0
Li1850 Li 0.90659 0.56434 0.81878 0.0
Li1851 Li 0.92815 0.53976 0.79266 0.0
C1852 C 0.91107 0.54692 0.87222 0.0
N1853 N 0.91476 0.53329 0.91693 0.0
C1854 C 0.92391 0.52919 0.87541 0.0
C1855 C 0.90011 0.55765 0.89179 0.0
C1856 C 0.92556 0.52257 0.89815 0.0
C1857 C 0.90218 0.55053 0.91424 0.0
C1858 C 0.95008 0.50445 0.81004 0.0
C1859 C 0.98306 0.49213 0.79012 0.0
N1860 N 0.97679 0.47002 0.79581 0.0
C1861 C 0.94397 0.48161 0.81567 0.0
C1862 C 0.96978 0.50977 0.79714 0.0
C1863 C 0.95769 0.46445 0.80832 0.0
C1864 C 0.8812 0.47952 0.80643 0.0
N1865 N 0.88411 0.49635 0.82742 0.0
C1866 C 0.85677 0.47072 0.84612 0.0
C1867 C 0.87213 0.49269 0.84705 0.0
C1868 C 0.85354 0.453 0.82461 0.0
C1869 C 0.86592 0.45757 0.80459 0.0
H1870 H 0.89088 0.48328 0.79113 0.0
H1871 H 0.8743 0.50673 0.86326 0.0
C1872 C 0.96624 0.57786 0.87942 0.0
N1873 N 0.96744 0.56502 0.85673 0.0
C1874 C 0.98571 0.58308 0.89676 0.0
C1875 C 1.00805 0.56434 0.86607 0.0
C1876 C 0.98792 0.55889 0.84958 0.0
C1877 C 1.0068 0.57568 0.89031 0.0
H1878 H 0.94993 0.58325 0.88434 0.0
H1879 H 0.98859 0.54955 0.83116 0.0
C1880 C 0.8735 0.53669 0.78314 0.0
N1881 N 0.83188 0.54327 0.76087 0.0
C1882 C 0.87313 0.54271 0.76005 0.0
C1883 C 0.85269 0.5337 0.79478 0.0
C1884 C 0.8519 0.54603 0.74912 0.0
C1885 C 0.83184 0.53721 0.78325 0.0
C1886 C 0.95721 0.59198 0.81771 0.0
C1887 C 0.95459 0.61131 0.83587 0.0
C1888 C 0.9794 0.59112 0.80922 0.0
C1889 C 0.97438 0.62937 0.84552 0.0
C1890 C 0.99875 0.60952 0.81935 0.0
N1891 N 0.99587 0.62809 0.83715 0.0
C1892 C 0.87118 0.58926 0.8331 0.0
C1893 C 0.88883 0.5964 0.79705 0.0
C1894 C 0.8538 0.60205 0.82838 0.0
N1895 N 0.88784 0.58648 0.81722 0.0
C1896 C 0.87159 0.60887 0.79139 0.0
C1897 C 0.85367 0.6113 0.80695 0.0
H1898 H 0.87075 0.58053 0.84864 0.0
H1899 H 0.90217 0.5933 0.78467 0.0
C1900 C 0.93399 0.50817 0.7503 0.0
N1901 N 0.93683 0.53161 0.76171 0.0
C1902 C 0.94325 0.50241 0.72805 0.0
C1903 C 0.95649 0.54515 0.72934 0.0
C1904 C 0.94713 0.55003 0.75155 0.0
C1905 C 0.95502 0.52108 0.71765 0.0
H1906 H 0.92541 0.49404 0.75899 0.0
H1907 H 0.9487 0.56846 0.76111 0.0
O1908 O 0.90922 0.55409 0.85029 0.0
O1909 O 0.93659 0.52131 0.81697 0.0
O1910 O 0.89418 0.53387 0.79436 0.0
O1911 O 0.93821 0.57374 0.80869 0.0
H1912 H 0.93257 0.52062 0.86067 0.0
H1913 H 0.89014 0.57141 0.88964 0.0
H1914 H 0.93545 0.50892 0.90087 0.0
H1915 H 0.8938 0.55873 0.92953 0.0
H1916 H 0.9983 0.49599 0.78007 0.0
H1917 H 0.92886 0.4772 0.82574 0.0
H1918 H 0.97463 0.52723 0.7923 0.0
H1919 H 0.95316 0.4467 0.81258 0.0
H1920 H 0.84748 0.46761 0.86187 0.0
H1921 H 0.86424 0.44409 0.78788 0.0
H1922 H 0.9837 0.59161 0.91528 0.0
H1923 H 0.0241 0.55891 0.86012 0.0
H1924 H 0.88912 0.54503 0.75081 0.0
H1925 H 0.85275 0.52901 0.81265 0.0
H1926 H 0.85135 0.55087 0.73133 0.0
H1927 H 0.81563 0.53517 0.79212 0.0
H1928 H 0.93752 0.61215 0.84266 0.0
H1929 H 0.98176 0.57616 0.79532 0.0
H1930 H 0.97268 0.64435 0.85972 0.0
H1931 H 1.01609 0.60897 0.81316 0.0
H1932 H 0.84008 0.60379 0.84063 0.0
H1933 H 0.87189 0.61605 0.7748 0.0
H1934 H 0.94176 0.48367 0.71937 0.0
H1935 H 0.96575 0.56 0.72199 0.0
Li1936 Li 0.80236 0.45602 0.5318 0.0
Li1937 Li 0.78044 0.4826 0.51427 0.0
Li1938 Li 0.80107 0.44972 0.48721 0.0
Li1939 Li 0.82876 0.48636 0.51564 0.0
C1940 C 0.75798 0.42531 0.5084 0.0
N1941 N 0.72672 0.38308 0.51018 0.0
C1942 C 0.73825 0.42596 0.52171 0.0
C1943 C 0.76153 0.40313 0.49568 0.0
C1944 C 0.72275 0.40443 0.5225 0.0
C1945 C 0.7456 0.38201 0.49686 0.0
C1946 C 0.8058 0.49808 0.56683 0.0
C1947 C 0.82204 0.52191 0.60653 0.0
N1948 N 0.80424 0.5096 0.61693 0.0
C1949 C 0.78756 0.48583 0.57791 0.0
C1950 C 0.82308 0.51641 0.58123 0.0
C1951 C 0.78712 0.49184 0.60325 0.0
C1952 C 0.82368 0.44923 0.57524 0.0
N1953 N 0.80414 0.4401 0.55898 0.0
C1954 C 0.79231 0.40821 0.58022 0.0
C1955 C 0.78844 0.42006 0.56127 0.0
C1956 C 0.8125 0.41708 0.59699 0.0
C1957 C 0.82817 0.43804 0.59455 0.0
H1958 H 0.83617 0.46488 0.57275 0.0
H1959 H 0.77332 0.41267 0.54812 0.0
C1960 C 0.74187 0.50929 0.50171 0.0
N1961 N 0.75044 0.49692 0.5177 0.0
C1962 C 0.71994 0.51688 0.50438 0.0
C1963 C 0.71555 0.49883 0.53962 0.0
C1964 C 0.73765 0.49215 0.53665 0.0
C1965 C 0.70608 0.51134 0.52338 0.0
H1966 H 0.7518 0.51305 0.48658 0.0
H1967 H 0.74427 0.48267 0.54951 0.0
C1968 C 0.84021 0.43645 0.52077 0.0
N1969 N 0.86343 0.40636 0.54205 0.0
C1970 C 0.86388 0.44428 0.53049 0.0
C1971 C 0.82853 0.41306 0.52156 0.0
C1972 C 0.87527 0.42887 0.54124 0.0
C1973 C 0.8405 0.3982 0.53247 0.0
C1974 C 0.81091 0.50245 0.47395 0.0
C1975 C 0.82112 0.49643 0.45218 0.0
C1976 C 0.80847 0.52617 0.48235 0.0
C1977 C 0.82893 0.51441 0.43918 0.0
C1978 C 0.81645 0.54362 0.4688 0.0
N1979 N 0.82645 0.53743 0.4477 0.0
C1980 C 0.79031 0.4292 0.43467 0.0
C1981 C 0.81461 0.41046 0.45726 0.0
C1982 C 0.79237 0.41312 0.41299 0.0
N1983 N 0.8014 0.42758 0.45633 0.0
C1984 C 0.81668 0.39381 0.43633 0.0
C1985 C 0.8056 0.39502 0.41377 0.0
H1986 H 0.78018 0.44314 0.43416 0.0
H1987 H 0.82386 0.40973 0.47423 0.0
C1988 C 0.87602 0.51002 0.54035 0.0
N1989 N 0.86287 0.50381 0.51814 0.0
C1990 C 0.901 0.51656 0.54216 0.0
C1991 C 0.89897 0.5112 0.49836 0.0
C1992 C 0.87404 0.50451 0.49734 0.0
C1993 C 0.91309 0.51689 0.52097 0.0
H1994 H 0.86735 0.50828 0.55671 0.0
H1995 H 0.8638 0.49857 0.47973 0.0
O1996 O 0.77345 0.44622 0.50741 0.0
O1997 O 0.80675 0.4923 0.54203 0.0
O1998 O 0.82854 0.45161 0.51073 0.0
O1999 O 0.80327 0.48517 0.48698 0.0
H2000 H 0.73503 0.44277 0.53161 0.0
H2001 H 0.77643 0.40214 0.48505 0.0
H2002 H 0.70757 0.40471 0.53295 0.0
H2003 H 0.74826 0.36475 0.48718 0.0
H2004 H 0.83535 0.53601 0.61789 0.0
H2005 H 0.77438 0.4712 0.56719 0.0
H2006 H 0.83703 0.52646 0.57294 0.0
H2007 H 0.77327 0.48225 0.61206 0.0
H2008 H 0.77976 0.39212 0.58158 0.0
H2009 H 0.84415 0.44522 0.60689 0.0
H2010 H 0.71361 0.52645 0.49125 0.0
H2011 H 0.70602 0.49436 0.5548 0.0
H2012 H 0.87347 0.462 0.52967 0.0
H2013 H 0.81023 0.4066 0.51424 0.0
H2014 H 0.89354 0.43482 0.54892 0.0
H2015 H 0.83152 0.38021 0.53344 0.0
H2016 H 0.82317 0.47812 0.4455 0.0
H2017 H 0.80053 0.53103 0.49918 0.0
H2018 H 0.83698 0.51006 0.42235 0.0
H2019 H 0.81472 0.56209 0.47507 0.0
H2020 H 0.78362 0.41473 0.39587 0.0
H2021 H 0.82744 0.38051 0.43771 0.0
H2022 H 0.91077 0.52084 0.56009 0.0
H2023 H 0.90712 0.51072 0.48137 0.0
Li2024 Li 0.67566 0.53392 0.30573 0.0
Li2025 Li 0.71006 0.56166 0.28438 0.0
Li2026 Li 0.67602 0.53081 0.25661 0.0
Li2027 Li 0.70709 0.50857 0.2793 0.0
C2028 C 0.65669 0.57044 0.2804 0.0
N2029 N 0.61977 0.59321 0.2721 0.0
C2030 C 0.66075 0.59152 0.27104 0.0
C2031 C 0.63391 0.56104 0.28574 0.0
C2032 C 0.64184 0.60272 0.26688 0.0
C2033 C 0.61547 0.5728 0.28139 0.0
C2034 C 0.72013 0.54328 0.3341 0.0
C2035 C 0.73248 0.53012 0.37041 0.0
N2036 N 0.73417 0.55282 0.38364 0.0
C2037 C 0.72198 0.56648 0.34801 0.0
C2038 C 0.72537 0.52491 0.34532 0.0
C2039 C 0.72909 0.57094 0.37306 0.0
C2040 C 0.64433 0.51654 0.34615 0.0
N2041 N 0.65729 0.53628 0.33923 0.0
C2042 C 0.64736 0.56072 0.37689 0.0
C2043 C 0.65869 0.55818 0.35462 0.0
C2044 C 0.6338 0.5407 0.38478 0.0
C2045 C 0.63275 0.51831 0.36832 0.0
H2046 H 0.64286 0.49896 0.33452 0.0
H2047 H 0.66875 0.57415 0.34977 0.0
C2048 C 0.74817 0.60409 0.27371 0.0
N2049 N 0.72909 0.59825 0.28653 0.0
C2050 C 0.75886 0.62859 0.27357 0.0
C2051 C 0.73061 0.64168 0.29972 0.0
C2052 C 0.72058 0.61699 0.29956 0.0
C2053 C 0.7502 0.6484 0.28651 0.0
H2054 H 0.75508 0.58971 0.26297 0.0
H2055 H 0.70544 0.61295 0.3097 0.0
C2056 C 0.6523 0.48556 0.26521 0.0
N2057 N 0.61587 0.44961 0.24005 0.0
C2058 C 0.65724 0.46697 0.24757 0.0
C2059 C 0.62889 0.48588 0.27013 0.0
C2060 C 0.63856 0.44895 0.23504 0.0
C2061 C 0.61071 0.46753 0.25718 0.0
C2062 C 0.714 0.53096 0.23086 0.0
C2063 C 0.71272 0.50812 0.21639 0.0
C2064 C 0.71639 0.55114 0.22004 0.0
C2065 C 0.71381 0.50584 0.19117 0.0
C2066 C 0.71737 0.5481 0.19476 0.0
N2067 N 0.71607 0.52571 0.18096 0.0
C2068 C 0.65863 0.55278 0.21426 0.0
C2069 C 0.64376 0.51118 0.2059 0.0
C2070 C 0.6474 0.55496 0.1915 0.0
N2071 N 0.6568 0.53115 0.22169 0.0
C2072 C 0.63239 0.51257 0.18277 0.0
C2073 C 0.63378 0.53477 0.17474 0.0
H2074 H 0.66938 0.56874 0.22579 0.0
H2075 H 0.64212 0.49378 0.21095 0.0
C2076 C 0.71283 0.45449 0.28208 0.0
N2077 N 0.72501 0.4762 0.27813 0.0
C2078 C 0.72332 0.43345 0.28137 0.0
C2079 C 0.75938 0.45597 0.27254 0.0
C2080 C 0.74825 0.47663 0.27338 0.0
C2081 C 0.74733 0.43316 0.27651 0.0
H2082 H 0.69451 0.45309 0.28588 0.0
H2083 H 0.75868 0.49317 0.2701 0.0
O2084 O 0.67492 0.55915 0.28461 0.0
O2085 O 0.71288 0.53853 0.30966 0.0
O2086 O 0.67034 0.50342 0.27753 0.0
O2087 O 0.7122 0.53345 0.25542 0.0
H2088 H 0.67826 0.59899 0.26672 0.0
H2089 H 0.63055 0.54485 0.29322 0.0
H2090 H 0.64469 0.61896 0.25947 0.0
H2091 H 0.59773 0.56571 0.28541 0.0
H2092 H 0.73664 0.5161 0.37937 0.0
H2093 H 0.71784 0.58084 0.33954 0.0
H2094 H 0.72393 0.50683 0.33475 0.0
H2095 H 0.73056 0.5888 0.38408 0.0
H2096 H 0.64936 0.57871 0.38768 0.0
H2097 H 0.62313 0.50177 0.37234 0.0
H2098 H 0.77358 0.63181 0.2627 0.0
H2099 H 0.7229 0.65544 0.31042 0.0
H2100 H 0.67529 0.46655 0.24355 0.0
H2101 H 0.62482 0.50011 0.28381 0.0
H2102 H 0.64208 0.43446 0.22129 0.0
H2103 H 0.59249 0.46753 0.26077 0.0
H2104 H 0.71076 0.49233 0.22454 0.0
H2105 H 0.71713 0.5689 0.23102 0.0
H2106 H 0.7128 0.48828 0.17969 0.0
H2107 H 0.71906 0.56353 0.18609 0.0
H2108 H 0.65002 0.57263 0.18694 0.0
H2109 H 0.62229 0.4961 0.17138 0.0
H2110 H 0.71216 0.41737 0.28472 0.0
H2111 H 0.77769 0.45827 0.26867 0.0
Eu2112 Eu 0.078 0.07853 0.0369 0.0
Eu2113 Eu 0.05304 0.02319 0.02237 0.0
C2114 C 0.08419 0.04806 0.981 0.0
C2115 C 0.08559 0.14362 0.06166 0.0
C2116 C 0.06188 0.13817 0.06677 0.0
C2117 C 0.08271 0.18513 0.06363 0.0
C2118 C 0.04818 0.1558 0.06859 0.0
C2119 C 0.09632 0.16738 0.06144 0.0
C2120 C 0.05822 0.17904 0.06562 0.0
C2121 C 0.09668 0.124 0.05075 0.0
O2122 O 0.09138 0.02084 0.03305 0.0
O2123 O 0.10958 0.06031 0.03684 0.0
C2124 C 0.1108 0.03755 0.03503 0.0
O2125 O 0.06203 0.07234 0.07324 0.0
O2126 O 0.03468 0.99187 0.99501 0.0
O2127 O 0.04077 0.98911 0.03299 0.0
O2128 O 0.04154 0.03354 0.0616 0.0
C2129 C 0.04702 0.05385 0.07829 0.0
O2130 O 0.03932 0.08096 0.02923 0.0
O2131 O 0.02152 0.0411 0.01776 0.0
O2132 O 0.07138 0.02871 0.98704 0.0
O2133 O 0.09919 0.10818 0.06416 0.0
O2134 O 0.08775 0.114 0.02837 0.0
O2135 O 0.08736 0.06907 0.99663 0.0
C2136 C 0.04417 0.95621 1.00392 0.0
C2137 C 0.06847 0.95903 1.00115 0.0
C2138 C 0.04284 0.91517 1.00842 0.0
C2139 C 0.08016 0.94034 1.00329 0.0
C2140 C 0.03119 0.93389 1.00633 0.0
C2141 C 0.06763 0.91872 1.0083 0.0
C2142 C 0.03398 0.97752 1.01058 0.0
C2143 C 0.02007 0.06397 0.02314 0.0
H2144 H 0.05334 0.11979 0.06689 0.0
H2145 H 0.09078 0.20288 0.06095 0.0
H2146 H 0.02933 0.15073 0.06998 0.0
H2147 H 0.11453 0.17172 0.05726 0.0
H2148 H 0.07875 0.97633 0.99953 0.0
H2149 H 0.03274 0.89883 1.01257 0.0
H2150 H 0.09924 0.94345 1.00296 0.0
H2151 H 1.01248 0.93164 1.00884 0.0
Eu2152 Eu 0.32987 0.81086 0.25816 0.0
Eu2153 Eu 0.30529 0.79941 0.30774 0.0
C2154 C 0.27538 0.81158 0.26414 0.0
C2155 C 0.34285 0.83624 0.20164 0.0
C2156 C 0.3274 0.85231 0.20648 0.0
C2157 C 0.34664 0.84569 0.16152 0.0
C2158 C 0.32167 0.86514 0.18888 0.0
C2159 C 0.3524 0.83296 0.17914 0.0
C2160 C 0.33119 0.86185 0.1662 0.0
C2161 C 0.34842 0.82208 0.21949 0.0
O2162 O 0.29622 0.7654 0.27927 0.0
O2163 O 0.32698 0.77125 0.25524 0.0
C2164 C 0.30979 0.75721 0.26302 0.0
O2165 O 0.35922 0.81098 0.28626 0.0
O2166 O 0.27838 0.77957 0.32632 0.0
O2167 O 0.30565 0.80852 0.34728 0.0
O2168 O 0.33854 0.78494 0.30746 0.0
C2169 C 0.35854 0.79567 0.30095 0.0
O2170 O 0.32087 0.8448 0.27863 0.0
O2171 O 0.32816 0.8363 0.31611 0.0
O2172 O 0.27925 0.81532 0.28803 0.0
O2173 O 0.35562 0.83414 0.2417 0.0
O2174 O 0.33297 0.80233 0.21902 0.0
O2175 O 0.29064 0.80407 0.24958 0.0
C2176 C 0.29372 0.77464 0.3645 0.0
C2177 C 0.31649 0.76961 0.36757 0.0
C2178 C 0.2805 0.75006 0.39363 0.0
C2179 C 0.32137 0.75533 0.38405 0.0
C2180 C 0.2757 0.76453 0.37732 0.0
C2181 C 0.30348 0.74568 0.39751 0.0
C2182 C 0.2886 0.79038 0.348 0.0
C2183 C 0.32634 0.85182 0.30223 0.0
H2184 H 0.31965 0.85476 0.22376 0.0
H2185 H 0.35443 0.84303 0.14431 0.0
H2186 H 0.30952 0.87728 0.19284 0.0
H2187 H 0.36423 0.82048 0.17515 0.0
H2188 H 0.33059 0.77705 0.35754 0.0
H2189 H 0.2662 0.7424 0.40328 0.0
H2190 H 0.33926 0.75239 0.3867 0.0
H2191 H 0.25797 0.76796 0.37485 0.0
Eu2192 Eu 0.59532 0.04268 0.50372 0.0
Eu2193 Eu 0.54783 0.05847 0.52763 0.0
C2194 C 0.58608 0.04036 0.5588 0.0
C2195 C 0.65157 0.01773 0.49507 0.0
C2196 C 0.65619 0.01817 0.52012 0.0
C2197 C 0.68285 0.99569 0.48612 0.0
C2198 C 0.67407 1.00721 0.52811 0.0
C2199 C 0.66511 1.00669 0.4782 0.0
C2200 C 0.68729 0.99554 0.51108 0.0
C2201 C 0.6316 0.02701 0.48598 0.0
O2202 O 0.57283 0.09205 0.52411 0.0
O2203 O 0.60714 0.07819 0.52962 0.0
C2204 C 0.59577 0.09583 0.52976 0.0
O2205 O 0.58203 0.0628 0.4771 0.0
O2206 O 0.53092 0.08092 0.55428 0.0
O2207 O 0.50967 0.05018 0.52856 0.0
O2208 O 0.54392 0.06204 0.4885 0.0
C2209 C 0.56035 0.06624 0.47365 0.0
O2210 O 0.56179 0.01836 0.48547 0.0
O2211 O 0.54382 0.01841 0.52014 0.0
O2212 O 0.57266 0.05636 0.55887 0.0
O2213 O 0.61083 1.01331 0.48562 0.0
O2214 O 0.63169 0.0498 0.49403 0.0
O2215 O 0.59206 0.0286 0.53842 0.0
C2216 C 0.4921 0.0836 0.54111 0.0
C2217 C 0.48604 0.08705 0.5175 0.0
C2218 C 0.46276 0.10587 0.55685 0.0
C2219 C 0.468 0.09945 0.51353 0.0
C2220 C 0.48065 0.09339 0.56076 0.0
C2221 C 0.45591 0.10863 0.53314 0.0
C2222 C 0.50962 0.06912 0.54553 0.0
C2223 C 0.54772 1.00699 0.49878 0.0
H2224 H 0.64566 0.02648 0.53334 0.0
H2225 H 0.69301 0.98713 0.47266 0.0
H2226 H 0.67706 1.00722 0.54743 0.0
H2227 H 0.66163 1.00615 0.45881 0.0
H2228 H 0.49486 0.07972 0.5021 0.0
H2229 H 0.45414 0.11321 0.5724 0.0
H2230 H 0.46306 0.10121 0.49505 0.0
H2231 H 0.4853 0.09104 0.57911 0.0
Eu2232 Eu 0.29091 0.3083 0.77781 0.0
Eu2233 Eu 0.34213 0.29526 0.78035 0.0
C2234 C 0.29438 0.2522 0.7824 0.0
C2235 C 0.23008 0.31603 0.79157 0.0
C2236 C 0.23515 0.31627 0.8165 0.0
C2237 C 0.18815 0.3074 0.79612 0.0
C2238 C 0.21682 0.31248 0.83125 0.0
C2239 C 0.20654 0.31138 0.78138 0.0
C2240 C 0.19321 0.30814 0.82118 0.0
C2241 C 0.2493 0.31942 0.776 0.0
O2242 O 0.33495 0.29311 0.73967 0.0
O2243 O 0.29582 0.29581 0.73808 0.0
C2244 C 0.31469 0.29215 0.72716 0.0
O2245 O 0.31563 0.34499 0.7769 0.0
O2246 O 0.36404 0.26864 0.77149 0.0
O2247 O 0.37895 0.30291 0.79568 0.0
O2248 O 0.35221 0.33507 0.77587 0.0
C2249 C 0.33881 0.35145 0.77586 0.0
O2250 O 0.29844 0.31113 0.81848 0.0
O2251 O 0.33715 0.30708 0.82016 0.0
O2252 O 0.31738 0.2585 0.78055 0.0
O2253 O 0.26852 0.33457 0.78631 0.0
O2254 O 0.25373 0.29966 0.76328 0.0
O2255 O 0.2811 0.26874 0.78313 0.0
C2256 C 0.40386 0.28453 0.77029 0.0
C2257 C 0.40569 0.29758 0.75147 0.0
C2258 C 0.44086 0.27249 0.76199 0.0
C2259 C 0.42516 0.29806 0.73788 0.0
C2260 C 0.42144 0.27208 0.77558 0.0
C2261 C 0.44283 0.28543 0.74301 0.0
C2262 C 0.38305 0.28268 0.78365 0.0
C2263 C 0.31844 0.31135 0.83102 0.0
H2264 H 0.25326 0.31937 0.82458 0.0
H2265 H 0.17 0.3042 0.78806 0.0
H2266 H 0.22108 0.31281 0.85047 0.0
H2267 H 0.20244 0.31082 0.76209 0.0
H2268 H 0.39199 0.30714 0.7472 0.0
H2269 H 0.45408 0.2623 0.766 0.0
H2270 H 0.42643 0.3083 0.72344 0.0
H2271 H 0.41996 0.26175 0.78994 0.0
Eu2272 Eu 0.0592 0.07424 0.5429 0.0
Eu2273 Eu 0.07673 0.02678 0.51602 0.0
C2274 C 0.11044 0.07875 0.51923 0.0
C2275 C 0.0526 0.13611 0.54767 0.0
C2276 C 0.06242 0.13313 0.52519 0.0
C2277 C 0.05464 0.17833 0.54706 0.0
C2278 C 0.06861 0.15256 0.51388 0.0
C2279 C 0.04861 0.15875 0.55857 0.0
C2280 C 0.06496 0.17538 0.52477 0.0
C2281 C 0.04801 0.11544 0.55962 0.0
O2282 O 0.08824 0.02878 0.55727 0.0
O2283 O 0.07836 0.06405 0.57599 0.0
C2284 C 0.08812 0.04519 0.57744 0.0
O2285 O 0.03102 0.04505 0.55131 0.0
O2286 O 0.10109 1.0018 0.51395 0.0
O2287 O 0.07077 0.99458 0.48711 0.0
O2288 O 0.04017 1.01263 0.52581 0.0
C2289 C 0.02623 0.02215 0.54079 0.0
O2290 O 0.04325 0.06896 0.50251 0.0
O2291 O 0.06164 0.04012 0.48265 0.0
O2292 O 0.10823 0.05532 0.51341 0.0
O2293 O 0.03272 0.09689 0.5472 0.0
O2294 O 0.06712 0.10929 0.5678 0.0
O2295 O 0.09368 0.08883 0.52891 0.0
C2296 C 0.07948 0.96205 0.5036 0.0
C2297 C 0.05525 0.95278 0.50436 0.0
C2298 C 0.08921 0.9302 0.52278 0.0
C2299 C 0.04811 0.9328 0.51476 0.0
C2300 C 0.09637 0.95029 0.51241 0.0
C2301 C 0.06504 0.92166 0.52453 0.0
C2302 C 0.0872 0.98568 0.4971 0.0
C2303 C 0.04756 0.05576 0.48175 0.0
H2304 H 0.0655 0.11574 0.51642 0.0
H2305 H 0.05169 0.19583 0.55575 0.0
H2306 H 0.07612 0.14967 0.49651 0.0
H2307 H 0.04113 0.16132 0.57597 0.0
H2308 H 0.04177 0.96148 0.49777 0.0
H2309 H 0.10261 0.92203 0.5304 0.0
H2310 H 0.02936 0.92638 0.51564 0.0
H2311 H 0.11513 0.9573 0.51227 0.0
Eu2312 Eu 0.34274 0.81869 0.77888 0.0
Eu2313 Eu 0.29256 0.7855 0.77697 0.0
C2314 C 0.31497 0.8248 0.82647 0.0
C2315 C 0.40558 0.8382 0.76933 0.0
C2316 C 0.40551 0.81365 0.76096 0.0
C2317 C 0.44832 0.84653 0.7757 0.0
C2318 C 0.42668 0.80541 0.7612 0.0
C2319 C 0.42707 0.85474 0.77572 0.0
C2320 C 0.44812 0.82168 0.76961 0.0
C2321 C 0.38353 0.8454 0.77591 0.0
O2322 O 0.28039 0.8217 0.77407 0.0
O2323 O 0.3169 0.84538 0.77428 0.0
C2324 C 0.29342 0.84335 0.77391 0.0
O2325 O 0.33937 0.79048 0.74445 0.0
O2326 O 0.26701 0.76407 0.79561 0.0
O2327 O 0.26044 0.76317 0.75675 0.0
O2328 O 0.29942 0.78146 0.73728 0.0
C2329 C 0.32027 0.77985 0.72998 0.0
O2330 O 0.35475 0.78279 0.78381 0.0
O2331 O 0.31817 0.7586 0.78127 0.0
O2332 O 0.29588 0.8118 0.81312 0.0
O2333 O 0.36623 0.84005 0.75838 0.0
O2334 O 0.37676 0.83964 0.79628 0.0
O2335 O 0.33589 0.82573 0.81839 0.0
C2336 C 0.22793 0.76128 0.77893 0.0
C2337 C 0.20872 0.74303 0.7681 0.0
C2338 C 0.20209 0.79009 0.78447 0.0
C2339 C 0.18642 0.74843 0.76458 0.0
C2340 C 0.22446 0.78467 0.78783 0.0
C2341 C 0.18306 0.77221 0.77193 0.0
C2342 C 0.25178 0.75702 0.77618 0.0
C2343 C 0.34169 0.76089 0.78297 0.0
H2344 H 0.38898 0.80064 0.75608 0.0
H2345 H 0.46465 0.85936 0.78259 0.0
H2346 H 0.42616 0.78619 0.75653 0.0
H2347 H 0.42731 0.87368 0.78246 0.0
H2348 H 0.21131 0.72501 0.76077 0.0
H2349 H 0.19997 0.80848 0.79055 0.0
H2350 H 0.17228 0.73431 0.75448 0.0
H2351 H 0.2393 0.79903 0.79597 0.0
Eu2352 Eu 0.5666 0.04046 0.05205 0.0
Eu2353 Eu 0.56419 0.0626 1.00325 0.0
C2354 C 0.55714 0.09437 0.05553 0.0
C2355 C 0.54995 1.01232 0.10453 0.0
C2356 C 0.52608 1.01089 0.09668 0.0
C2357 C 0.5392 1.00759 0.14466 0.0
C2358 C 0.5089 1.00828 0.11286 0.0
C2359 C 0.55644 1.01026 0.12841 0.0
C2360 C 0.51541 1.00713 0.13709 0.0
C2361 C 0.56806 0.01848 0.08851 0.0
O2362 O 0.60388 0.07338 1.01564 0.0
O2363 O 0.60544 0.05138 0.04579 0.0
C2364 C 0.61616 0.06523 0.03181 0.0
O2365 O 0.55786 1.011 0.01865 0.0
O2366 O 0.56838 0.09184 0.98345 0.0
O2367 O 0.55167 0.05544 0.96464 0.0
O2368 O 0.58092 0.03049 0.99462 0.0
C2369 C 0.57151 1.01047 1.0009 0.0
O2370 O 0.52734 0.04091 0.04644 0.0
O2371 O 0.52603 0.04394 1.00614 0.0
O2372 O 0.55699 0.09195 0.03182 0.0
O2373 O 0.56323 1.00723 0.06576 0.0
O2374 O 0.57606 0.04153 0.09063 0.0
O2375 O 0.56111 0.07765 0.06733 0.0
C2376 C 0.57553 0.07949 0.94306 0.0
C2377 C 0.59904 0.07671 0.94647 0.0
C2378 C 0.58101 0.08491 0.90193 0.0
C2379 C 0.61358 0.07819 0.92765 0.0
C2380 C 0.56652 0.08356 0.92083 0.0
C2381 C 0.60464 0.08226 0.90523 0.0
C2382 C 0.56026 0.07749 0.9625 0.0
C2383 C 0.5151 0.04006 0.02554 0.0
H2384 H 0.52082 1.01254 0.07827 0.0
H2385 H 0.54462 1.00714 0.16343 0.0
H2386 H 0.49065 1.0079 0.10666 0.0
H2387 H 0.57486 1.01165 0.1347 0.0
H2388 H 0.60607 0.07337 0.96364 0.0
H2389 H 0.57363 0.08763 0.88463 0.0
H2390 H 0.63179 0.07628 0.93066 0.0
H2391 H 0.54828 0.08548 0.91805 0.0
Eu2392 Eu 0.32762 0.32441 0.29232 0.0
Eu2393 Eu 0.30444 0.26922 0.26321 0.0
C2394 C 0.31291 0.3124 0.23347 0.0
C2395 C 0.33493 0.38948 0.30516 0.0
C2396 C 0.32255 0.38511 0.28191 0.0
C2397 C 0.32573 0.42924 0.31398 0.0
C2398 C 0.31167 0.40248 0.27476 0.0
C2399 C 0.3368 0.41169 0.32114 0.0
C2400 C 0.31265 0.42442 0.29094 0.0
C2401 C 0.34263 0.36932 0.31317 0.0
O2402 O 0.34183 0.27814 0.25464 0.0
O2403 O 0.35795 0.30527 0.28958 0.0
C2404 C 0.36012 0.28997 0.26979 0.0
O2405 O 0.32142 0.30373 0.32244 0.0
O2406 O 0.30874 0.23461 0.24298 0.0
O2407 O 0.27336 0.24105 0.24832 0.0
O2408 O 0.31671 0.26453 0.30135 0.0
C2409 C 0.3193 0.28058 0.32211 0.0
O2410 O 0.28834 0.32127 0.28449 0.0
O2411 O 0.27894 0.2822 0.28799 0.0
O2412 O 0.29884 0.29218 0.23539 0.0
O2413 O 0.3258 0.35509 0.32105 0.0
O2414 O 0.3545 0.35744 0.29776 0.0
O2415 O 0.32745 0.32561 0.25209 0.0
C2416 C 0.2816 0.20306 0.25117 0.0
C2417 C 0.27949 0.20455 0.27628 0.0
C2418 C 0.29029 0.16329 0.24802 0.0
C2419 C 0.28379 0.18585 0.2874 0.0
C2420 C 0.28567 0.18184 0.2369 0.0
C2421 C 0.29075 0.16573 0.27361 0.0
C2422 C 0.28624 0.22506 0.24147 0.0
C2423 C 0.27381 0.30355 0.29061 0.0
H2424 H 0.32048 0.36786 0.26957 0.0
H2425 H 0.32657 0.44609 0.32674 0.0
H2426 H 0.30198 0.3985 0.25677 0.0
H2427 H 0.34596 0.41507 0.33931 0.0
H2428 H 0.27664 0.221 0.28766 0.0
H2429 H 0.29584 0.14825 0.23679 0.0
H2430 H 0.28356 0.18806 0.30706 0.0
H2431 H 0.28771 0.18062 0.21758 0.0
Eu2432 Eu 0.55876 0.57299 0.04194 0.0
Eu2433 Eu 0.5757 0.52547 1.01592 0.0
C2434 C 0.60857 0.57701 0.01757 0.0
C2435 C 0.5514 0.63493 0.04752 0.0
C2436 C 0.55759 0.63139 0.02342 0.0
C2437 C 0.55304 0.67716 0.04732 0.0
C2438 C 0.56159 0.65049 1.01137 0.0
C2439 C 0.54918 0.65788 0.05952 0.0
C2440 C 0.55925 0.67355 0.0231 0.0
C2441 C 0.5489 0.61455 0.05987 0.0
O2442 O 0.5853 0.52602 0.05713 0.0
O2443 O 0.5801 0.56372 0.07434 0.0
C2444 C 0.58758 0.54374 0.07662 0.0
O2445 O 0.52968 0.54423 0.0499 0.0
O2446 O 0.60076 0.5012 1.01271 0.0
O2447 O 0.56945 0.4932 0.98703 0.0
O2448 O 0.53967 0.51099 0.0266 0.0
C2449 C 0.5253 0.52102 0.04059 0.0
O2450 O 0.54125 0.56705 1.00217 0.0
O2451 O 0.56124 0.53956 0.98255 0.0
O2452 O 0.60823 0.55432 0.01784 0.0
O2453 O 0.53277 0.59586 0.0492 0.0
O2454 O 0.56891 0.6086 0.06561 0.0
O2455 O 0.58975 0.58625 0.02167 0.0
C2456 C 0.57955 0.46134 1.00373 0.0
C2457 C 0.55566 0.45241 1.00651 0.0
C2458 C 0.59093 0.43039 0.02325 0.0
C2459 C 0.54956 0.43307 0.0181 0.0
C2460 C 0.59706 0.44981 1.01166 0.0
C2461 C 0.56719 0.42229 0.02711 0.0
C2462 C 0.58649 0.48473 0.9965 0.0
C2463 C 0.54636 0.55447 0.98145 0.0
H2464 H 0.55966 0.61384 1.01396 0.0
H2465 H 0.55105 0.69479 0.05672 0.0
H2466 H 0.56691 0.64721 0.99296 0.0
H2467 H 0.54464 0.66089 0.07823 0.0
H2468 H 0.54173 0.46098 1.00074 0.0
H2469 H 0.60487 0.42249 0.03025 0.0
H2470 H 0.5311 0.42695 0.02058 0.0
H2471 H 0.61558 0.45661 1.01001 0.0
Eu2472 Eu 0.84169 0.31815 0.27413 0.0
Eu2473 Eu 0.7942 0.28675 0.28477 0.0
C2474 C 0.82064 0.32899 0.32665 0.0
C2475 C 0.90552 0.33281 0.26452 0.0
C2476 C 0.90462 0.30787 0.25857 0.0
C2477 C 0.94806 0.3398 0.27308 0.0
C2478 C 0.92519 0.29889 0.26136 0.0
C2479 C 0.92739 0.34879 0.27072 0.0
C2480 C 0.9468 0.31483 0.26957 0.0
C2481 C 0.88381 0.34145 0.26973 0.0
O2482 O 0.78287 0.32323 0.27916 0.0
O2483 O 0.81701 0.34533 0.26973 0.0
C2484 C 0.79438 0.34386 0.27399 0.0
O2485 O 0.82767 0.29773 0.23619 0.0
O2486 O 0.76942 0.27114 0.30836 0.0
O2487 O 0.75984 0.26544 0.26925 0.0
O2488 O 0.80274 0.26758 0.24831 0.0
C2489 C 0.81493 0.27583 0.2316 0.0
O2490 O 0.85283 0.28151 0.27972 0.0
O2491 O 0.81852 0.25921 0.28848 0.0
O2492 O 0.81007 0.30632 0.3225 0.0
O2493 O 0.86671 0.33561 0.25199 0.0
O2494 O 0.87647 0.33772 0.29061 0.0
O2495 O 0.83139 0.33791 0.30946 0.0
C2496 C 0.72986 0.2699 0.29445 0.0
C2497 C 0.72654 0.29245 0.29069 0.0
C2498 C 0.68769 0.25726 0.29542 0.0
C2499 C 0.70378 0.29681 0.2876 0.0
C2500 C 0.71052 0.25273 0.29796 0.0
C2501 C 0.68404 0.27873 0.28862 0.0
C2502 C 0.75258 0.26302 0.29049 0.0
C2503 C 0.84117 0.26073 0.28444 0.0
H2504 H 0.88779 0.29532 0.25385 0.0
H2505 H 0.96463 0.35228 0.27988 0.0
H2506 H 0.92397 0.27959 0.25897 0.0
H2507 H 0.92827 0.36805 0.27568 0.0
H2508 H 0.74137 0.30593 0.28808 0.0
H2509 H 0.67283 0.24325 0.297 0.0
H2510 H 0.70177 0.31349 0.28224 0.0
H2511 H 0.7129 0.23528 0.30104 0.0
Eu2512 Eu 0.06975 0.54125 0.55547 0.0
Eu2513 Eu 0.06679 0.5618 0.50624 0.0
C2514 C 0.05843 0.59258 0.55661 0.0
C2515 C 0.05262 0.51911 0.611 0.0
C2516 C 0.02901 0.51808 0.60259 0.0
C2517 C 0.04064 0.5136 0.65049 0.0
C2518 C 1.01125 0.51479 0.61802 0.0
C2519 C 0.05842 0.51667 0.63488 0.0
C2520 C 1.01695 0.51288 0.64222 0.0
C2521 C 0.07108 0.52403 0.59502 0.0
O2522 O 0.10606 0.561 0.51315 0.0
O2523 O 0.10679 0.56342 0.55448 0.0
C2524 C 0.11813 0.56493 0.53482 0.0
O2525 O 0.08505 0.51678 0.52815 0.0
O2526 O 0.07741 0.59142 0.48764 0.0
O2527 O 0.05111 0.56005 0.46944 0.0
O2528 O 0.06663 0.52243 0.49308 0.0
C2529 C 0.07801 0.5097 0.50489 0.0
O2530 O 0.03094 0.52726 0.53946 0.0
O2531 O 0.02842 0.55454 0.51504 0.0
O2532 O 0.07074 0.59298 0.5378 0.0
O2533 O 0.06691 0.5105 0.57309 0.0
O2534 O 0.07843 0.54683 0.59483 0.0
O2535 O 0.05209 0.57265 0.56449 0.0
C2536 C 0.07758 0.57911 0.44573 0.0
C2537 C 0.08931 0.56008 0.43857 0.0
C2538 C 0.09311 0.5981 0.41346 0.0
C2539 C 0.10277 0.55998 0.41874 0.0
C2540 C 0.0795 0.59809 0.43318 0.0
C2541 C 0.10481 0.57906 0.40616 0.0
C2542 C 0.06473 0.58017 0.46731 0.0
C2543 C 0.01802 0.5379 0.52629 0.0
H2544 H 0.02437 0.52022 0.5842 0.0
H2545 H 0.04555 0.51266 0.66924 0.0
H2546 H 0.99313 0.51416 0.61116 0.0
H2547 H 0.07667 0.51772 0.64158 0.0
H2548 H 0.08829 0.54552 0.44849 0.0
H2549 H 0.0944 0.61289 0.40385 0.0
H2550 H 0.11193 0.54529 0.41352 0.0
H2551 H 0.07072 0.613 0.43882 0.0
Eu2552 Eu 0.78939 0.80945 0.28133 0.0
Eu2553 Eu 0.84068 0.79592 0.28317 0.0
C2554 C 0.79301 0.75294 0.28476 0.0
C2555 C 0.72835 0.81633 0.29589 0.0
C2556 C 0.73309 0.81228 0.31952 0.0
C2557 C 0.68666 0.81156 0.30154 0.0
C2558 C 0.71473 0.80818 0.33421 0.0
C2559 C 0.7051 0.8158 0.28689 0.0
C2560 C 0.69137 0.80784 0.32536 0.0
C2561 C 0.74756 0.82027 0.2804 0.0
O2562 O 0.8328 0.79342 0.24261 0.0
O2563 O 0.79417 0.79804 0.24137 0.0
C2564 C 0.81274 0.79353 0.2303 0.0
O2565 O 0.81386 0.84577 0.27898 0.0
O2566 O 0.86191 0.76861 0.27499 0.0
O2567 O 0.87819 0.80398 0.2963 0.0
O2568 O 0.85058 0.83605 0.27962 0.0
C2569 C 0.83714 0.85226 0.27869 0.0
O2570 O 0.79857 0.81445 0.32207 0.0
O2571 O 0.83559 0.80549 0.32316 0.0
O2572 O 0.81591 0.75911 0.28244 0.0
O2573 O 0.76672 0.83527 0.29105 0.0
O2574 O 0.7521 0.8008 0.26719 0.0
O2575 O 0.77987 0.76967 0.28634 0.0
C2576 C 0.90108 0.78339 0.26928 0.0
C2577 C 0.91183 0.80445 0.26184 0.0
C2578 C 0.92542 0.7607 0.24452 0.0
C2579 C 0.92954 0.80364 0.24602 0.0
C2580 C 0.90799 0.76158 0.26056 0.0
C2581 C 0.93647 0.78174 0.23724 0.0
C2582 C 0.88158 0.78322 0.28474 0.0
C2583 C 0.81789 0.81223 0.33428 0.0
H2584 H 0.75098 0.81226 0.32657 0.0
H2585 H 0.66879 0.81155 0.29441 0.0
H2586 H 0.71874 0.80505 0.35238 0.0
H2587 H 0.70123 0.81868 0.26859 0.0
H2588 H 0.90652 0.82146 0.26811 0.0
H2589 H 0.93009 0.74349 0.23765 0.0
H2590 H 0.93798 0.82018 0.24091 0.0
H2591 H 0.89959 0.74511 0.26587 0.0
Eu2592 Eu 0.83327 0.31377 0.76162 0.0
Eu2593 Eu 0.80523 0.29949 0.80835 0.0
C2594 C 0.77815 0.31154 0.76255 0.0
C2595 C 0.84828 0.33954 0.70597 0.0
C2596 C 0.83511 0.35758 0.71219 0.0
C2597 C 0.84934 0.34753 0.66501 0.0
C2598 C 0.82914 0.37061 0.69486 0.0
C2599 C 0.85538 0.33461 0.68237 0.0
C2600 C 0.83606 0.36555 0.67105 0.0
C2601 C 0.85294 0.3244 0.72323 0.0
O2602 O 0.81919 0.26754 0.79036 0.0
O2603 O 0.81489 0.27502 0.75206 0.0
C2604 C 0.81631 0.25996 0.76662 0.0
O2605 O 0.85935 0.30083 0.78452 0.0
O2606 O 0.77978 0.27362 0.82239 0.0
O2607 O 0.79859 0.30657 0.84666 0.0
O2608 O 0.8438 0.31188 0.82067 0.0
C2609 C 0.8611 0.30556 0.80849 0.0
O2610 O 0.83686 0.34759 0.79013 0.0
O2611 O 0.80379 0.33822 0.81039 0.0
O2612 O 0.77769 0.29641 0.77741 0.0
O2613 O 0.86091 0.33548 0.74558 0.0
O2614 O 0.83629 0.30553 0.72247 0.0
O2615 O 0.79804 0.32411 0.75773 0.0
C2616 C 0.79088 0.27141 0.86277 0.0
C2617 C 0.81458 0.27042 0.86889 0.0
C2618 C 0.77829 0.24515 0.89061 0.0
C2619 C 0.82014 0.25725 0.88623 0.0
C2620 C 0.77279 0.25851 0.87347 0.0
C2621 C 0.80204 0.24466 0.89745 0.0
C2622 C 0.78484 0.28548 0.84495 0.0
C2623 C 0.82098 0.3538 0.80462 0.0
H2624 H 0.82909 0.36127 0.73026 0.0
H2625 H 0.85508 0.34342 0.64687 0.0
H2626 H 0.81865 0.3842 0.69988 0.0
H2627 H 0.86529 0.32052 0.67726 0.0
H2628 H 0.82874 0.27999 0.86043 0.0
H2629 H 0.76391 0.23515 0.89846 0.0
H2630 H 0.8386 0.25734 0.89116 0.0
H2631 H 0.7544 0.25879 0.86859 0.0
Eu2632 Eu 0.826 0.82889 0.79701 0.0
Eu2633 Eu 0.80652 0.7729 0.76685 0.0
C2634 C 0.81381 0.81897 0.73819 0.0
C2635 C 0.84052 0.89551 0.81479 0.0
C2636 C 0.83962 0.89691 0.78995 0.0
C2637 C 0.82766 0.93341 0.82449 0.0
C2638 C 0.83188 0.91602 0.78231 0.0
C2639 C 0.83543 0.91428 0.83213 0.0
C2640 C 0.82486 0.93381 0.79944 0.0
C2641 C 0.84154 0.87257 0.82173 0.0
O2642 O 0.84573 0.77647 0.77275 0.0
O2643 O 0.85589 0.81745 0.77783 0.0
C2644 C 0.86098 0.79609 0.772 0.0
O2645 O 0.82505 0.80603 0.82588 0.0
O2646 O 0.81125 0.73993 0.74332 0.0
O2647 O 0.77591 0.7444 0.75147 0.0
O2648 O 0.81232 0.76664 0.80525 0.0
C2649 C 0.81884 0.78283 0.82568 0.0
O2650 O 0.78683 0.82465 0.78907 0.0
O2651 O 0.77831 0.7845 0.78879 0.0
O2652 O 0.80774 0.79575 0.73794 0.0
O2653 O 0.82083 0.85979 0.8236 0.0
O2654 O 0.85509 0.85973 0.80975 0.0
O2655 O 0.82019 0.83514 0.75863 0.0
C2656 C 0.78578 0.70642 0.75046 0.0
C2657 C 0.78096 0.70533 0.77461 0.0
C2658 C 0.79709 0.66766 0.74574 0.0
C2659 C 0.78497 0.68582 0.78452 0.0
C2660 C 0.79274 0.68699 0.73576 0.0
C2661 C 0.79432 0.66745 0.77057 0.0
C2662 C 0.78909 0.72943 0.74253 0.0
C2663 C 0.77238 0.80553 0.79252 0.0
H2664 H 0.84319 0.88238 0.77625 0.0
H2665 H 0.82245 0.94711 0.83797 0.0
H2666 H 0.8296 0.91582 0.76288 0.0
H2667 H 0.83579 0.91325 0.85131 0.0
H2668 H 0.77583 0.72034 0.78639 0.0
H2669 H 0.80462 0.65406 0.73452 0.0
H2670 H 0.78231 0.68598 0.80356 0.0
H2671 H 0.79686 0.68776 0.71722 0.0
Eu2672 Eu 0.58038 0.5806 0.53661 0.0
Eu2673 Eu 0.55479 0.52559 0.52176 0.0
C2674 C 0.58607 0.54999 0.48054 0.0
C2675 C 0.58895 0.6465 0.55878 0.0
C2676 C 0.56581 0.64216 0.56577 0.0
C2677 C 0.58534 0.68678 0.55525 0.0
C2678 C 0.55206 0.65967 0.56623 0.0
C2679 C 0.59906 0.66924 0.55476 0.0
C2680 C 0.56131 0.68163 0.55961 0.0
C2681 C 0.59963 0.62606 0.54938 0.0
O2682 O 0.59309 0.52223 0.5313 0.0
O2683 O 0.6117 0.56191 0.5378 0.0
C2684 C 0.61269 0.53894 0.53469 0.0
O2685 O 0.56365 0.57469 0.57271 0.0
O2686 O 0.53498 0.49563 0.49377 0.0
O2687 O 0.54182 0.49114 0.53115 0.0
O2688 O 0.54415 0.53547 0.56139 0.0
C2689 C 0.54911 0.55592 0.5779 0.0
O2690 O 0.54183 0.58389 0.52925 0.0
O2691 O 0.5237 0.54417 0.51793 0.0
O2692 O 0.57289 0.53081 0.4864 0.0
O2693 O 0.60112 0.61078 0.56369 0.0
O2694 O 0.5912 0.61545 0.52703 0.0
O2695 O 0.58972 0.5709 0.49635 0.0
C2696 C 0.54155 0.45815 0.50034 0.0
C2697 C 0.56581 0.45779 0.50269 0.0
C2698 C 0.53201 0.41508 0.4968 0.0
C2699 C 0.57305 0.43632 0.5041 0.0
C2700 C 0.52477 0.4366 0.49573 0.0
C2701 C 0.556 0.41524 0.50304 0.0
C2702 C 0.53377 0.48061 0.50866 0.0
C2703 C 0.52243 0.56706 0.52333 0.0
H2704 H 0.55767 0.6245 0.56864 0.0
H2705 H 0.59293 0.7034 0.54975 0.0
H2706 H 0.53368 0.65531 0.56982 0.0
H2707 H 0.61675 0.67265 0.54897 0.0
H2708 H 0.57895 0.47443 0.50623 0.0
H2709 H 0.51864 0.39888 0.49566 0.0
H2710 H 0.59164 0.43692 0.50902 0.0
H2711 H 0.506 0.43672 0.49384 0.0
Eu2712 Eu 0.09295 0.54278 1.0056 0.0
Eu2713 Eu 0.04517 0.55945 0.02779 0.0
C2714 C 0.08128 0.5398 0.06 0.0
C2715 C 0.14935 0.51715 0.99813 0.0
C2716 C 0.15305 0.51598 0.0229 0.0
C2717 C 0.18139 0.49621 0.98895 0.0
C2718 C 0.17084 0.50473 0.03062 0.0
C2719 C 0.16375 0.50749 0.98132 0.0
C2720 C 0.18489 0.49437 1.01358 0.0
C2721 C 0.12955 0.52675 0.98904 0.0
O2722 O 0.07102 0.59268 0.02485 0.0
O2723 O 0.10454 0.57812 0.03204 0.0
C2724 C 0.0937 0.5961 0.0317 0.0
O2725 O 0.08089 0.56297 0.97837 0.0
O2726 O 0.02785 0.58275 0.05315 0.0
O2727 O 1.00694 0.55134 0.02807 0.0
O2728 O 0.04237 0.56223 0.98838 0.0
C2729 C 0.05929 0.56629 0.97405 0.0
O2730 O 0.0596 0.51855 0.98644 0.0
O2731 O 0.04043 0.51935 0.0205 0.0
O2732 O 0.0685 0.55632 0.05976 0.0
O2733 O 0.10863 0.5132 0.98829 0.0
O2734 O 0.12978 0.54955 0.99717 0.0
O2735 O 0.08799 0.52831 0.03989 0.0
C2736 C 0.9893 0.58539 0.03838 0.0
C2737 C 0.97539 0.57964 1.01574 0.0
C2738 C 0.9685 0.61764 0.052 0.0
C2739 C 0.95792 0.59255 1.01146 0.0
C2740 C 0.98586 0.60462 0.05634 0.0
C2741 C 0.95414 0.61148 0.02966 0.0
C2742 C 1.00663 0.57096 0.04403 0.0
C2743 C 0.04442 0.50779 0.99926 0.0
H2744 H 0.14189 0.52326 0.03607 0.0
H2745 H 0.19221 0.48874 0.97551 0.0
H2746 H 0.1731 0.50345 0.04968 0.0
H2747 H 0.16104 0.50824 0.96214 0.0
H2748 H 0.97773 0.56497 1.00145 0.0
H2749 H 0.96581 0.63201 0.06642 0.0
H2750 H 0.94727 0.58764 0.99397 0.0
H2751 H 0.99633 0.60931 0.07394 0.0
C2752 C 0.01814 0.20062 0.02408 0.0
C2753 C 0.02589 0.22567 0.03156 0.0
H2754 H 0.02215 0.16599 0.02976 0.0
C2755 C 0.03962 0.23497 0.05417 0.0
H2756 H 1.00767 0.19279 1.00675 0.0
C2757 C 0.0484 0.21952 0.06712 0.0
C2758 C 0.04293 0.1946 0.05798 0.0
H2759 H 0.04528 0.25423 0.06077 0.0
H2760 H 0.06096 0.22708 0.08311 0.0
C2761 C 0.02648 0.18519 0.03731 0.0
C2762 C 0.2322 0.82251 0.21698 0.0
C2763 C 0.21168 0.82213 0.22928 0.0
H2764 H 0.26842 0.81958 0.21851 0.0
C2765 C 0.21261 0.81988 0.25391 0.0
H2766 H 0.23193 0.82371 0.19786 0.0
C2767 C 0.23361 0.81712 0.26573 0.0
C2768 C 0.25373 0.8164 0.25292 0.0
H2769 H 0.19698 0.81957 0.26376 0.0
H2770 H 0.23383 0.8147 0.2845 0.0
C2771 C 0.25302 0.81971 0.2287 0.0
C2772 C 0.54757 0.94356 0.4678 0.0
C2773 C 0.53534 0.93057 0.48358 0.0
H2774 H 0.56054 0.97804 0.45991 0.0
C2775 C 0.52514 0.94258 0.50312 0.0
H2776 H 0.55508 0.93446 0.45227 0.0
C2777 C 0.52821 0.9676 0.50756 0.0
C2778 C 0.54131 0.9807 0.4923 0.0
H2779 H 0.51546 0.93269 0.51532 0.0
H2780 H 0.52097 0.97669 0.52328 0.0
C2781 C 0.55044 0.96843 0.47205 0.0
C2782 C 0.47912 0.28071 0.6891 0.0
C2783 C 0.50188 0.2831 0.70082 0.0
H2784 H 0.44237 0.27938 0.69344 0.0
C2785 C 0.50521 0.28697 0.72643 0.0
H2786 H 0.47615 0.27754 0.66933 0.0
C2787 C 0.48601 0.28811 0.74014 0.0
C2788 C 0.46319 0.28536 0.72846 0.0
H2789 H 0.52269 0.28935 0.73587 0.0
H2790 H 0.48903 0.29123 0.7599 0.0
C2791 C 0.45988 0.28183 0.70285 0.0
C2792 C 0.06081 0.86316 0.54672 0.0
C2793 C 0.0443 0.86547 0.56409 0.0
H2794 H 0.08022 0.87916 0.52043 0.0
C2795 C 0.03431 0.88614 0.56793 0.0
H2796 H 0.06856 0.84728 0.54312 0.0
C2797 C 0.04082 0.90421 0.55479 0.0
C2798 C 0.05754 0.90202 0.53766 0.0
H2799 H 0.02191 0.88868 0.58153 0.0
H2800 H 0.03321 0.92019 0.55848 0.0
C2801 C 0.06744 0.88134 0.5337 0.0
C2802 C 0.51188 0.81896 0.78363 0.0
C2803 C 0.50982 0.80506 0.80188 0.0
H2804 H 0.49359 0.83525 0.75886 0.0
C2805 C 0.48721 0.79321 0.80583 0.0
H2806 H 0.52907 0.82782 0.7797 0.0
C2807 C 0.46707 0.79692 0.79337 0.0
C2808 C 0.46915 0.81277 0.77703 0.0
H2809 H 0.48484 0.78263 0.81991 0.0
H2810 H 0.44984 0.78902 0.79815 0.0
C2811 C 0.49166 0.82305 0.77153 0.0
C2812 C 0.53143 0.13695 0.10102 0.0
C2813 C 0.53504 0.15768 0.09076 0.0
H2814 H 0.53603 0.10052 0.09802 0.0
C2815 C 0.54731 0.15776 0.06981 0.0
H2816 H 0.52191 0.13634 0.11709 0.0
C2817 C 0.55509 0.1373 0.05886 0.0
C2818 C 0.55111 0.11649 0.06884 0.0
H2819 H 0.55103 0.17367 0.06189 0.0
H2820 H 0.56412 0.13776 0.04244 0.0
C2821 C 0.53956 0.11652 0.09021 0.0
C2822 C 0.22476 0.33091 0.31895 0.0
C2823 C 0.21866 0.31614 0.33597 0.0
H2824 H 0.24739 0.33859 0.29102 0.0
C2825 C 0.23135 0.29802 0.33821 0.0
H2826 H 0.21518 0.34494 0.31669 0.0
C2827 C 0.24896 0.29398 0.32313 0.0
C2828 C 0.2548 0.30835 0.30584 0.0
H2829 H 0.2277 0.28684 0.35165 0.0
H2830 H 0.25828 0.27972 0.32535 0.0
C2831 C 0.24296 0.32719 0.30412 0.0
C2832 C 1.00747 0.03896 0.13112 0.0
C2833 C 1.01194 0.06045 0.14962 0.0
H2834 H 1.01416 0.0199 0.09574 0.0
C2835 C 0.02873 0.07964 0.14379 0.0
H2836 H 0.99488 0.02336 0.13346 0.0
C2837 C 0.03998 0.07752 0.12141 0.0
C2838 C 0.03542 0.05604 0.10312 0.0
H2839 H 0.03357 0.09669 0.15658 0.0
H2840 H 0.05237 0.09306 0.11843 0.0
C2841 C 0.01877 0.03686 0.1088 0.0
C2842 C 0.30324 0.72175 0.45599 0.0
C2843 C 0.31803 0.70495 0.4516 0.0
H2844 H 0.28749 0.74807 0.4426 0.0
C2845 C 0.32864 0.70201 0.42956 0.0
H2846 H 0.29518 0.72466 0.47304 0.0
C2847 C 0.32402 0.71526 0.41193 0.0
C2848 C 0.30884 0.73176 0.41616 0.0
H2849 H 0.33997 0.68903 0.42569 0.0
H2850 H 0.33193 0.7122 0.39481 0.0
C2851 C 0.29876 0.73505 0.43851 0.0
C2852 C 0.62599 0.02194 0.60419 0.0
C2853 C 0.62548 0.03955 0.62505 0.0
H2854 H 0.61358 1.00825 0.56653 0.0
C2855 C 0.60966 0.05526 0.62492 0.0
H2856 H 0.6382 1.00975 0.60401 0.0
C2857 C 0.59558 0.05444 0.60364 0.0
C2858 C 0.59732 0.038 0.58216 0.0
H2859 H 0.60891 0.06883 0.641 0.0
H2860 H 0.58434 0.06755 0.60375 0.0
C2861 C 0.612 0.0212 0.5828 0.0
C2862 C 0.30224 0.32528 0.89667 0.0
C2863 C 0.3244 0.32942 0.91051 0.0
H2864 H 0.28291 0.31646 0.86111 0.0
C2865 C 0.34445 0.32697 0.89776 0.0
H2866 H 0.28626 0.32651 0.90563 0.0
C2867 C 0.34242 0.3208 0.87212 0.0
C2868 C 0.32032 0.31708 0.85835 0.0
H2869 H 0.36191 0.3304 0.90749 0.0
H2870 H 0.35834 0.31936 0.86309 0.0
C2871 C 0.30025 0.31933 0.87101 0.0
C2872 C 0.02791 0.04675 0.4111 0.0
C2873 C 1.01334 0.06394 0.40938 0.0
H2874 H 0.04954 0.03062 0.4337 0.0
C2875 C 1.01061 0.07835 0.4323 0.0
H2876 H 0.03078 0.03475 0.39471 0.0
C2877 C 0.0215 0.07575 0.4551 0.0
C2878 C 0.03596 0.0586 0.45673 0.0
H2879 H 1.00017 0.09214 0.43287 0.0
H2880 H 0.01852 0.08747 0.47168 0.0
C2881 C 0.03883 0.0442 0.43396 0.0
C2882 C 0.30505 0.73179 0.67148 0.0
C2883 C 0.32761 0.72749 0.66598 0.0
H2884 H 0.28494 0.75177 0.69573 0.0
C2885 C 0.3476 0.74162 0.68101 0.0
H2886 H 0.28923 0.7216 0.66014 0.0
C2887 C 0.34515 0.75923 0.70107 0.0
C2888 C 0.3226 0.76316 0.7069 0.0
H2889 H 0.36524 0.73869 0.67773 0.0
H2890 H 0.36101 0.76929 0.71244 0.0
C2891 C 0.30257 0.74934 0.69173 0.0
C2892 C 0.63285 0.10129 0.85119 0.0
C2893 C 0.64713 0.08422 0.84562 0.0
H2894 H 0.60846 0.11433 0.87499 0.0
C2895 C 0.64794 0.06691 0.86008 0.0
H2896 H 0.63219 0.1149 0.84032 0.0
C2897 C 0.63431 0.06645 0.87972 0.0
C2898 C 0.61977 0.08335 0.88514 0.0
H2899 H 0.65859 0.05333 0.85579 0.0
H2900 H 0.63469 0.05252 0.89024 0.0
C2901 C 0.6193 0.10091 0.8709 0.0
C2902 C 0.32469 0.35164 0.18602 0.0
C2903 C 0.31878 0.3348 0.16374 0.0
H2904 H 0.32752 0.35787 0.22518 0.0
C2905 C 0.30999 0.3105 0.16463 0.0
H2906 H 0.33172 0.37045 0.18613 0.0
C2907 C 0.30722 0.3033 0.18718 0.0
C2908 C 0.31363 0.32013 0.20942 0.0
H2909 H 0.30512 0.29706 0.14787 0.0
H2910 H 0.30069 0.28443 0.1872 0.0
C2911 C 0.32233 0.34439 0.20848 0.0
C2912 C 0.16088 1.00136 0.03226 0.0
C2913 C 0.18014 0.01754 0.02613 0.0
H2914 H 0.1242 0.99454 0.03961 0.0
C2915 C 0.17629 0.04042 0.02361 0.0
H2916 H 0.16291 0.98349 0.03422 0.0
C2917 C 0.15418 0.04694 0.02723 0.0
C2918 C 0.13482 0.03071 0.0331 0.0
H2919 H 0.19054 0.05352 0.01911 0.0
H2920 H 0.15216 0.06473 0.02494 0.0
C2921 C 0.13855 1.00771 0.0354 0.0
C2922 C 0.67346 0.59948 1.01001 0.0
C2923 C 0.67413 0.62379 1.00894 0.0
H2924 H 0.65242 0.56568 1.01329 0.0
C2925 C 0.65276 0.63222 1.00941 0.0
H2926 H 0.68953 0.5923 1.00938 0.0
C2927 C 0.63141 0.61693 1.01167 0.0
C2928 C 0.63087 0.59277 1.01336 0.0
H2929 H 0.65264 0.65088 1.00886 0.0
H2930 H 0.61541 0.62421 1.01254 0.0
C2931 C 0.65212 0.58416 1.01211 0.0
C2932 C 0.74715 0.38715 0.27959 0.0
C2933 C 0.75932 0.40997 0.27562 0.0
H2934 H 0.74731 0.34998 0.28227 0.0
C2935 C 0.7834 0.40984 0.27078 0.0
H2936 H 0.72884 0.385 0.28344 0.0
C2937 C 0.79422 0.38903 0.27004 0.0
C2938 C 0.78201 0.36638 0.27402 0.0
H2939 H 0.79443 0.42603 0.26753 0.0
H2940 H 0.81262 0.3909 0.26639 0.0
C2941 C 0.75801 0.36634 0.27886 0.0
C2942 C 0.95395 0.51404 0.53948 0.0
C2943 C 0.94006 0.52219 0.52234 0.0
H2944 H 0.98877 0.51202 0.55398 0.0
C2945 C 0.95229 0.53519 0.5063 0.0
H2946 H 0.94546 0.50368 0.55198 0.0
C2947 C 0.9773 0.54009 0.50756 0.0
C2948 C 0.99117 0.53192 0.52468 0.0
H2949 H 0.94255 0.542 0.49292 0.0
H2950 H 0.98579 0.55035 0.49498 0.0
C2951 C 0.97898 0.51867 0.54052 0.0
C2952 C 0.33498 0.14731 0.31475 0.0
C2953 C 0.33508 0.12408 0.3019 0.0
H2954 H 0.32085 0.17897 0.31568 0.0
C2955 C 0.3179 0.11306 0.28231 0.0
H2956 H 0.34827 0.156 0.32987 0.0
C2957 C 0.30166 0.12583 0.27455 0.0
C2958 C 0.30287 0.15001 0.28587 0.0
H2959 H 0.31773 0.09495 0.2724 0.0
H2960 H 0.28911 0.11725 0.25879 0.0
C2961 C 0.31908 0.1603 0.3067 0.0
C2962 C 0.41743 0.14781 0.50967 0.0
C2963 C 0.39733 0.14318 0.52239 0.0
H2964 H 0.45196 0.14077 0.50334 0.0
C2965 C 0.39638 0.12661 0.53798 0.0
H2966 H 0.41873 0.16067 0.4977 0.0
C2967 C 0.41531 0.11529 0.54119 0.0
C2968 C 0.43566 0.12028 0.52895 0.0
H2969 H 0.38093 0.12231 0.54765 0.0
H2970 H 0.41393 0.10247 0.55321 0.0
C2971 C 0.43644 0.13645 0.51292 0.0
C2972 C 0.74793 0.69403 0.29002 0.0
C2973 C 0.76118 0.67536 0.28614 0.0
H2974 H 0.74668 0.73176 0.29253 0.0
C2975 C 0.78517 0.6831 0.28188 0.0
H2976 H 0.72943 0.68969 0.29308 0.0
C2977 C 0.79521 0.7077 0.28161 0.0
C2978 C 0.78193 0.72626 0.28539 0.0
H2979 H 0.79661 0.67014 0.27904 0.0
H2980 H 0.81366 0.71213 0.27832 0.0
C2981 C 0.75794 0.71862 0.28957 0.0
C2982 C 0.82401 0.41774 0.80181 0.0
C2983 C 0.83897 0.42896 0.82318 0.0
H2984 H 0.80621 0.38417 0.77928 0.0
C2985 C 0.84341 0.41555 0.84087 0.0
H2986 H 0.82027 0.42786 0.78804 0.0
C2987 C 0.83516 0.39067 0.83592 0.0
C2988 C 0.82238 0.37931 0.81341 0.0
H2989 H 0.85508 0.42386 0.85736 0.0
H2990 H 0.84054 0.38013 0.84862 0.0
C2991 C 0.81589 0.39292 0.79686 0.0
C2992 C 0.07989 0.86229 0.02653 0.0
C2993 C 0.09728 0.87219 0.04628 0.0
H2994 H 0.05712 0.86943 0.99833 0.0
C2995 C 0.10752 0.89681 0.05066 0.0
H2996 H 0.07161 0.84334 0.02291 0.0
C2997 C 0.09916 0.9117 0.03676 0.0
C2998 C 0.08041 0.90217 0.01823 0.0
H2999 H 0.12112 0.90475 0.06569 0.0
H3000 H 0.10617 0.93093 0.0418 0.0
C3001 C 0.07151 0.8772 1.01258 0.0
C3002 C 0.9005 0.29866 0.8612 0.0
C3003 C 0.92082 0.29436 0.85006 0.0
H3004 H 0.86616 0.30632 0.85697 0.0
C3005 C 0.92146 0.29337 0.82481 0.0
H3006 H 0.89939 0.29905 0.88055 0.0
C3007 C 0.90204 0.29712 0.81101 0.0
C3008 C 0.88197 0.30205 0.82244 0.0
H3009 H 0.9371 0.29026 0.81591 0.0
H3010 H 0.90283 0.2964 0.79158 0.0
C3011 C 0.88141 0.30275 0.84762 0.0
C3012 C 0.62289 0.15266 0.57323 0.0
C3013 C 0.62112 0.16965 0.55844 0.0
H3014 H 0.61655 0.11528 0.57511 0.0
C3015 C 0.61505 0.1616 0.5331 0.0
H3016 H 0.62718 0.15812 0.59284 0.0
C3017 C 0.60809 0.13709 0.5233 0.0
C3018 C 0.60821 0.12045 0.53852 0.0
H3019 H 0.61419 0.17421 0.5211 0.0
H3020 H 0.60156 0.13117 0.50411 0.0
C3021 C 0.61669 0.12813 0.5632 0.0
C3022 C 0.63185 0.78527 0.34612 0.0
C3023 C 0.63443 0.79806 0.37042 0.0
H3024 H 0.64806 0.77826 0.3128 0.0
C3025 C 0.65607 0.81353 0.38006 0.0
H3026 H 0.61522 0.77347 0.33818 0.0
C3027 C 0.67474 0.81642 0.36549 0.0
C3028 C 0.672 0.80397 0.34105 0.0
H3029 H 0.65849 0.82349 0.3988 0.0
H3030 H 0.69112 0.82882 0.37317 0.0
C3031 C 0.65049 0.78822 0.33154 0.0
C3032 C 0.06159 0.22874 0.49556 0.0
C3033 C 0.08321 0.23175 0.48505 0.0
H3034 H 0.03889 0.20843 0.51653 0.0
C3035 C 0.09933 0.21706 0.48894 0.0
H3036 H 0.04896 0.24003 0.49303 0.0
C3037 C 0.09366 0.19922 0.50251 0.0
C3038 C 0.07178 0.19576 0.51245 0.0
H3039 H 0.11603 0.21886 0.48086 0.0
H3040 H 0.10626 0.18786 0.50494 0.0
C3041 C 0.05594 0.2109 0.50921 0.0
C3042 C 0.62619 0.26207 0.24892 0.0
C3043 C 0.62006 0.28461 0.24999 0.0
H3044 H 0.65126 0.24261 0.26007 0.0
C3045 C 0.63357 0.30496 0.26595 0.0
H3046 H 0.61618 0.2462 0.23644 0.0
C3047 C 0.65352 0.30285 0.28012 0.0
C3048 C 0.66044 0.28045 0.2781 0.0
H3049 H 0.62893 0.32247 0.26711 0.0
H3050 H 0.66397 0.31888 0.29198 0.0
C3051 C 0.64622 0.26002 0.26272 0.0
C3052 C 0.57047 0.94412 0.9831 0.0
C3053 C 0.58968 0.94397 0.96889 0.0
H3054 H 0.54958 0.96545 1.00438 0.0
C3055 C 0.60281 0.96575 0.96501 0.0
H3056 H 0.56021 0.92744 0.98638 0.0
C3057 C 0.59661 0.98748 0.97506 0.0
C3058 C 0.57738 0.98763 0.98932 0.0
H3059 H 0.61757 0.96592 0.95388 0.0
H3060 H 0.60701 1.00412 0.97189 0.0
C3061 C 0.56442 0.9658 0.99335 0.0
C3062 C 0.9043 0.76977 0.73301 0.0
C3063 C 0.91676 0.79057 0.72629 0.0
H3064 H 0.87694 0.75517 0.75336 0.0
C3065 C 0.91267 0.81323 0.73716 0.0
H3066 H 0.90757 0.75211 0.72533 0.0
C3067 C 0.89581 0.81504 0.75371 0.0
C3068 C 0.88229 0.79418 0.75933 0.0
H3069 H 0.92182 0.82957 0.7322 0.0
H3070 H 0.89253 0.83279 0.76098 0.0
C3071 C 0.88709 0.77155 0.74935 0.0
C3072 C 0.10526 0.02197 0.91696 0.0
C3073 C 0.12001 0.04197 0.91005 0.0
H3074 H 0.08303 1.00777 0.94301 0.0
C3075 C 0.12215 0.06409 0.92736 0.0
H3076 H 0.10246 1.0043 0.9053 0.0
C3077 C 0.11065 0.066 0.94957 0.0
C3078 C 0.09603 0.04602 0.95629 0.0
H3079 H 0.1328 0.08045 0.92404 0.0
H3080 H 0.11343 0.0835 0.96168 0.0
C3081 C 0.09376 0.02393 0.93918 0.0
C3082 C 0.81514 0.37873 0.61058 0.0
C3083 C 0.81774 0.40392 0.61626 0.0
H3084 H 0.81866 0.34685 0.62358 0.0
C3085 C 0.82591 0.41641 0.64023 0.0
H3086 H 0.80914 0.36868 0.59217 0.0
C3087 C 0.83154 0.40393 0.65817 0.0
C3088 C 0.82926 0.37877 0.65238 0.0
H3089 H 0.8279 0.43582 0.6451 0.0
H3090 H 0.83813 0.414 0.67643 0.0
C3091 C 0.82084 0.36628 0.62847 0.0
C3092 C 0.53993 0.06024 0.4083 0.0
C3093 C 0.52738 0.07915 0.40976 0.0
H3094 H 0.56107 0.04182 0.42794 0.0
C3095 C 0.52991 0.09636 0.43168 0.0
H3096 H 0.53818 0.04639 0.39192 0.0
C3097 C 0.54233 0.09309 0.45245 0.0
C3098 C 0.55313 0.07317 0.45123 0.0
H3099 H 0.52106 0.11149 0.43325 0.0
H3100 H 0.54245 0.10535 0.46975 0.0
C3101 C 0.55298 0.05746 0.42892 0.0
C3102 C 0.78626 0.77914 0.1638 0.0
C3103 C 0.80578 0.77494 0.15088 0.0
H3104 H 0.77309 0.78836 0.1986 0.0
C3105 C 0.82784 0.77756 0.16439 0.0
H3106 H 0.76904 0.77755 0.1541 0.0
C3107 C 0.83021 0.78383 0.19006 0.0
C3108 C 0.8106 0.78776 0.20296 0.0
H3109 H 0.84322 0.77415 0.15517 0.0
H3110 H 0.8474 0.78535 0.19979 0.0
C3111 C 0.78864 0.78549 0.18942 0.0
C3112 C 0.11362 0.05878 0.64681 0.0
C3113 C 0.12186 0.03772 0.65022 0.0
H3114 H 0.09694 0.07764 0.62281 0.0
C3115 C 0.11842 0.01907 0.62891 0.0
H3116 H 0.11524 0.07377 0.66212 0.0
C3117 C 0.10776 0.02142 0.60586 0.0
C3118 C 0.09954 0.04247 0.60257 0.0
H3119 H 0.12438 1.00251 0.62977 0.0
H3120 H 0.10596 1.00649 0.59045 0.0
C3121 C 0.10275 0.06102 0.62385 0.0
C3122 C 0.80617 0.35307 0.39102 0.0
C3123 C 0.80879 0.37791 0.39127 0.0
H3124 H 0.80774 0.31806 0.37045 0.0
C3125 C 0.81569 0.38643 0.37032 0.0
H3126 H 0.80081 0.34597 0.40691 0.0
C3127 C 0.82013 0.37056 0.34969 0.0
C3128 C 0.81743 0.3457 0.34935 0.0
H3129 H 0.8181 0.40547 0.37004 0.0
H3130 H 0.82532 0.3778 0.33382 0.0
C3131 C 0.8102 0.3371 0.37019 0.0
C3132 C 0.48264 0.99676 0.1915 0.0
C3133 C 0.46955 1.01512 0.19344 0.0
H3134 H 0.5076 0.9797 0.17165 0.0
C3135 C 0.46973 0.0291 0.17547 0.0
H3136 H 0.48286 0.98599 0.20542 0.0
C3137 C 0.48383 0.02559 0.15635 0.0
C3138 C 0.49797 1.00813 0.1551 0.0
H3139 H 0.45969 0.04334 0.17677 0.0
H3140 H 0.48461 0.03741 0.14333 0.0
C3141 C 0.49687 0.99333 0.17242 0.0
C3142 C 0.81714 0.78581 0.8943 0.0
C3143 C 0.81073 0.76138 0.89571 0.0
H3144 H 0.82511 0.81166 0.87153 0.0
C3145 C 0.80792 0.74393 0.87381 0.0
H3146 H 0.81977 0.79977 0.91071 0.0
C3147 C 0.81109 0.75074 0.85117 0.0
C3148 C 0.81732 0.7752 0.84978 0.0
H3149 H 0.80274 0.72494 0.87405 0.0
H3150 H 0.80831 0.7368 0.83473 0.0
C3151 C 0.82046 0.79261 0.87173 0.0
C3152 C 0.97118 0.10124 0.03296 0.0
C3153 C 0.95027 0.08349 0.03129 0.0
H3154 H 1.00897 0.10933 0.03168 0.0
C3155 C 0.95271 0.05917 0.02594 0.0
H3156 H 0.97049 0.12018 0.03741 0.0
C3157 C 0.97502 0.0529 0.02252 0.0
C3158 C 0.9959 0.07068 0.02442 0.0
H3159 H 0.9373 0.0448 0.02419 0.0
H3160 H 0.97591 0.03398 0.01879 0.0
C3161 C 0.99349 0.09498 0.02969 0.0
C3162 C 0.46227 0.49966 0.05574 0.0
C3163 C 0.46 0.47439 0.0504 0.0
H3164 H 0.48459 0.53424 0.05697 0.0
C3165 C 0.47983 0.46492 0.04309 0.0
H3166 H 0.44736 0.50767 0.0612 0.0
C3167 C 0.50101 0.48013 0.04045 0.0
C3168 C 0.50314 0.50531 0.0452 0.0
H3169 H 0.47907 0.44566 0.03939 0.0
H3170 H 0.51575 0.47204 0.03459 0.0
C3171 C 0.48361 0.51494 0.05325 0.0
C3172 C 0.38912 0.71822 0.78425 0.0
C3173 C 0.37574 0.69414 0.78157 0.0
H3174 H 0.39019 0.75657 0.78672 0.0
C3175 C 0.3507 0.69312 0.77966 0.0
H3176 H 0.40825 0.72119 0.78562 0.0
C3177 C 0.3401 0.71408 0.78037 0.0
C3178 C 0.35353 0.73802 0.78302 0.0
H3179 H 0.33879 0.67588 0.77772 0.0
H3180 H 0.32095 0.71134 0.77869 0.0
C3181 C 0.3785 0.73918 0.78486 0.0
C3182 C 0.18277 0.57585 0.51856 0.0
C3183 C 0.19613 0.57968 0.54149 0.0
H3184 H 0.14835 0.5685 0.49844 0.0
C3185 C 0.1833 0.57869 0.56216 0.0
H3186 H 0.19164 0.57677 0.50214 0.0
C3187 C 0.15827 0.57409 0.56002 0.0
C3188 C 0.14498 0.57034 0.53712 0.0
H3189 H 0.19257 0.58115 0.58015 0.0
H3190 H 0.14934 0.57337 0.57645 0.0
C3191 C 0.15772 0.57129 0.51643 0.0
C3192 C 0.80519 0.97689 0.76328 0.0
C3193 C 0.78334 0.97895 0.77239 0.0
H3194 H 0.83586 0.96107 0.76512 0.0
C3195 C 0.77561 0.96656 0.79071 0.0
H3196 H 0.81163 0.98653 0.74934 0.0
C3197 C 0.78956 0.95247 0.79994 0.0
C3198 C 0.8114 0.95041 0.7909 0.0
H3199 H 0.75862 0.96749 0.79771 0.0
H3200 H 0.78294 0.94265 0.81369 0.0
C3201 C 0.81911 0.96259 0.77242 0.0
C3202 C 0.73975 0.98133 0.54546 0.0
C3203 C 0.74102 0.9586 0.53172 0.0
H3204 H 0.72169 1.01095 0.54965 0.0
C3205 C 0.72379 0.94771 0.51202 0.0
H3206 H 0.75288 0.99027 0.56063 0.0
C3207 C 0.70615 0.95958 0.50569 0.0
C3208 C 0.70525 0.98257 0.51896 0.0
H3209 H 0.72391 0.92996 0.50145 0.0
H3210 H 0.69317 0.95076 0.49034 0.0
C3211 C 0.72195 0.99319 0.53918 0.0
C3212 C 0.38467 0.40998 0.77096 0.0
C3213 C 0.37145 0.4287 0.77348 0.0
H3214 H 0.38565 0.37239 0.76981 0.0
C3215 C 0.34714 0.42112 0.77676 0.0
H3216 H 0.40338 0.41416 0.76873 0.0
C3217 C 0.33679 0.39663 0.77733 0.0
C3218 C 0.35006 0.37803 0.77488 0.0
H3219 H 0.3357 0.4341 0.77857 0.0
H3220 H 0.31813 0.39232 0.77982 0.0
C3221 C 0.37435 0.38553 0.77173 0.0
C3222 C 0.29943 0.69613 0.22176 0.0
C3223 C 0.29338 0.68136 0.23869 0.0
H3224 H 0.30997 0.73242 0.2165 0.0
C3225 C 0.29494 0.69167 0.2637 0.0
H3226 H 0.29814 0.68845 0.20238 0.0
C3227 C 0.30112 0.71645 0.27157 0.0
C3228 C 0.30615 0.73126 0.2546 0.0
H3229 H 0.28993 0.68072 0.27707 0.0
H3230 H 0.30132 0.72411 0.29086 0.0
C3231 C 0.30612 0.72107 0.22977 0.0
C3232 C 0.54132 0.73553 0.54344 0.0
C3233 C 0.52185 0.72421 0.52622 0.0
H3234 H 0.5688 0.73082 0.56835 0.0
C3235 C 0.51274 0.69951 0.52402 0.0
H3236 H 0.5489 0.75452 0.54538 0.0
C3237 C 0.5244 0.68589 0.53691 0.0
C3238 C 0.54529 0.69682 0.55228 0.0
H3239 H 0.49763 0.69044 0.51103 0.0
H3240 H 0.51818 0.66652 0.53311 0.0
C3241 C 0.55288 0.72194 0.55644 0.0
C3242 C 0.73498 0.33283 0.72304 0.0
C3243 C 0.71485 0.31462 0.72159 0.0
H3244 H 0.77112 0.34609 0.73735 0.0
C3245 C 0.71485 0.29681 0.73558 0.0
H3246 H 0.73525 0.34664 0.71225 0.0
C3247 C 0.73525 0.29639 0.74983 0.0
C3248 C 0.75592 0.31369 0.75006 0.0
H3249 H 0.69932 0.28273 0.73478 0.0
H3250 H 0.73508 0.28194 0.75976 0.0
C3251 C 0.75547 0.33233 0.73716 0.0
C3252 C 0.03621 0.44514 0.96283 0.0
C3253 C 0.0319 0.43166 0.98113 0.0
H3254 H 0.04316 0.48015 0.95427 0.0
C3255 C 0.02822 0.44312 1.00462 0.0
H3256 H 0.03845 0.43652 0.94438 0.0
C3257 C 0.03055 0.46806 1.0102 0.0
C3258 C 0.03673 0.48167 0.99233 0.0
H3259 H 0.02481 0.43299 0.01897 0.0
H3260 H 0.029 0.47674 0.02882 0.0
C3261 C 0.03869 0.46999 0.96841 0.0
C3262 C 0.97598 0.79383 0.1877 0.0
C3263 C 0.99289 0.77995 0.19136 0.0
H3264 H 0.94433 0.80485 0.19912 0.0
C3265 C 0.99095 0.76631 0.20968 0.0
H3266 H 0.97724 0.80443 0.17355 0.0
C3267 C 0.97252 0.76685 0.2245 0.0
C3268 C 0.9556 0.78085 0.22104 0.0
H3269 H 1.00414 0.75586 0.21308 0.0
H3270 H 0.97189 0.75678 0.23906 0.0
C3271 C 0.95734 0.79418 0.20238 0.0
C3272 C 0.565 0.3655 0.05216 0.0
C3273 C 0.54968 0.36881 0.07059 0.0
H3274 H 0.58242 0.37984 0.02376 0.0
C3275 C 0.54003 0.38969 0.07442 0.0
H3276 H 0.57246 0.34943 0.04859 0.0
C3277 C 0.54556 0.40691 0.0601 0.0
C3278 C 0.56094 0.40364 0.04175 0.0
H3279 H 0.52856 0.39298 0.0888 0.0
H3280 H 0.53819 0.42304 0.06373 0.0
C3281 C 0.57065 0.38282 0.03792 0.0
C3282 C 1.00709 0.3012 0.28167 0.0
C3283 C 1.00621 0.29755 0.30589 0.0
H3284 H 0.98875 0.31008 0.25108 0.0
C3285 C 0.98456 0.2967 0.31639 0.0
H3286 H 0.02322 0.3014 0.27271 0.0
C3287 C 0.96478 0.30065 0.30356 0.0
C3288 C 0.96636 0.30604 0.28025 0.0
H3289 H 0.98307 0.29453 0.33508 0.0
H3290 H 0.94863 0.30103 0.31247 0.0
C3291 C 0.98738 0.30588 0.26911 0.0
C3292 C 0.02624 0.63375 0.5963 0.0
C3293 C 0.0313 0.65466 0.58657 0.0
H3294 H 0.03109 0.59768 0.59457 0.0
C3295 C 0.04578 0.65524 0.56729 0.0
H3296 H 1.01503 0.63287 0.61112 0.0
C3297 C 0.05499 0.63516 0.55783 0.0
C3298 C 0.0499 0.61421 0.56754 0.0
H3299 H 0.05033 0.67135 0.5598 0.0
H3300 H 0.06599 0.63606 0.54284 0.0
C3301 C 0.03546 0.61367 0.58686 0.0
C3302 C 0.72478 0.83247 0.82418 0.0
C3303 C 0.71551 0.81416 0.8365 0.0
H3304 H 0.75023 0.84408 0.80022 0.0
C3305 C 0.72447 0.7929 0.83329 0.0
H3306 H 0.71797 0.84893 0.82605 0.0
C3307 C 0.7421 0.78982 0.81796 0.0
C3308 C 0.75172 0.80821 0.80598 0.0
H3309 H 0.7182 0.77869 0.84296 0.0
H3310 H 0.74877 0.77328 0.81631 0.0
C3311 C 0.74296 0.82959 0.80916 0.0
C3312 C 0.52992 0.58131 0.64312 0.0
C3313 C 0.51347 0.56182 0.64891 0.0
H3314 H 0.55345 0.59517 0.61789 0.0
C3315 C 0.50956 0.5403 0.6305 0.0
H3316 H 0.53432 0.59842 0.65584 0.0
C3317 C 0.52105 0.53844 0.60831 0.0
C3318 C 0.53735 0.55791 0.60265 0.0
H3319 H 0.49727 0.52448 0.63283 0.0
H3320 H 0.51687 0.52142 0.59531 0.0
C3321 C 0.54135 0.57943 0.62084 0.0
C3322 C 0.79953 0.21881 0.9548 0.0
C3323 C 0.81726 0.20509 0.95236 0.0
H3324 H 0.78124 0.24248 0.9397 0.0
C3325 C 0.83065 0.20508 0.9322 0.0
H3326 H 0.78924 0.21947 0.97042 0.0
C3327 C 0.8259 0.21808 0.91439 0.0
C3328 C 0.80778 0.23141 0.91657 0.0
H3329 H 0.84432 0.19449 0.92985 0.0
H3330 H 0.83602 0.21719 0.89864 0.0
C3331 C 0.7949 0.2319 0.93715 0.0
C3332 C 0.11963 0.52103 0.10635 0.0
C3333 C 0.11708 0.53732 0.12756 0.0
H3334 H 0.10989 0.50882 0.06802 0.0
C3335 C 0.09998 0.55165 0.12718 0.0
H3336 H 0.13285 0.50992 0.10626 0.0
C3337 C 0.08696 0.55119 0.10533 0.0
C3338 C 0.09099 0.53643 0.08361 0.0
H3339 H 0.0976 0.56414 0.1435 0.0
H3340 H 0.07484 0.56344 0.10528 0.0
C3341 C 0.10661 0.52055 0.08447 0.0
C3342 C 0.84303 0.82107 0.40075 0.0
C3343 C 0.8256 0.83062 0.41374 0.0
H3344 H 0.85434 0.80783 0.36589 0.0
C3345 C 0.80531 0.83353 0.40019 0.0
H3346 H 0.85875 0.81817 0.41036 0.0
C3347 C 0.8026 0.82725 0.37453 0.0
C3348 C 0.82019 0.81801 0.36161 0.0
H3349 H 0.79164 0.84123 0.40931 0.0
H3350 H 0.78685 0.83001 0.36483 0.0
C3351 C 0.8404 0.81494 0.37511 0.0
C3352 C 0.52754 0.54599 0.91066 0.0
C3353 C 0.51283 0.56305 0.90889 0.0
H3354 H 0.54911 0.52984 0.93332 0.0
C3355 C 0.50973 0.57716 0.93184 0.0
H3356 H 0.53072 0.53421 0.89426 0.0
C3357 C 0.52037 0.57439 0.9547 0.0
C3358 C 0.53498 0.55737 0.95636 0.0
H3359 H 0.49918 0.59087 0.93245 0.0
H3360 H 0.51711 0.58591 0.97129 0.0
C3361 C 0.53825 0.54328 0.93356 0.0
C3362 C 0.80693 0.2179 0.18397 0.0
C3363 C 0.82307 0.22424 0.16725 0.0
H3364 H 0.79144 0.22908 0.21687 0.0
C3365 C 0.83567 0.24827 0.17123 0.0
H3366 H 0.79716 0.19956 0.18184 0.0
C3367 C 0.83247 0.26533 0.1916 0.0
C3368 C 0.81655 0.25881 0.20846 0.0
H3369 H 0.84802 0.25395 0.1586 0.0
H3370 H 0.84283 0.2835 0.19437 0.0
C3371 C 0.80368 0.23492 0.20421 0.0
C3372 C 0.14931 0.59995 0.36435 0.0
C3373 C 0.14636 0.57933 0.34569 0.0
H3374 H 0.13837 0.6159 0.39841 0.0
C3375 C 0.1297 0.55861 0.34708 0.0
H3376 H 0.16227 0.61603 0.36384 0.0
C3377 C 0.11628 0.55848 0.3669 0.0
C3378 C 0.11918 0.57913 0.38545 0.0
H3379 H 0.12677 0.54262 0.33268 0.0
H3380 H 0.10336 0.5424 0.36754 0.0
C3381 C 0.13574 0.59987 0.38408 0.0
C3382 C 0.82667 0.85771 0.69022 0.0
C3383 C 0.82209 0.84037 0.66815 0.0
H3384 H 0.82747 0.86481 0.72938 0.0
C3385 C 0.81348 0.81618 0.66945 0.0
H3386 H 0.83285 0.8766 0.69008 0.0
C3387 C 0.81005 0.80947 0.69204 0.0
C3388 C 0.81518 0.82671 0.71413 0.0
H3389 H 0.80996 0.80218 0.65305 0.0
H3390 H 0.80388 0.79056 0.69214 0.0
C3391 C 0.82331 0.85098 0.71286 0.0
C3392 C 0.66255 0.50228 0.53224 0.0
C3393 C 0.68209 0.51838 0.52645 0.0
H3394 H 0.6257 0.49566 0.53905 0.0
C3395 C 0.67848 0.54139 0.52405 0.0
H3396 H 0.66437 0.48433 0.53411 0.0
C3397 C 0.65636 0.5481 0.52748 0.0
C3398 C 0.63673 0.53192 0.53296 0.0
H3399 H 0.69291 0.55444 0.5198 0.0
H3400 H 0.65455 0.56597 0.52531 0.0
C3401 C 0.64023 0.5088 0.53511 0.0
C3402 C 0.15754 0.13498 0.52159 0.0
C3403 C 0.17645 0.12544 0.51178 0.0
H3404 H 0.12205 0.12798 0.53136 0.0
C3405 C 0.17315 0.10032 0.50347 0.0
H3406 H 0.15929 0.15424 0.52779 0.0
C3407 C 0.15164 0.08513 0.50546 0.0
C3408 C 0.13288 0.0947 0.51569 0.0
H3409 H 0.18739 0.09233 0.49596 0.0
H3410 H 0.14985 0.06586 0.49927 0.0
C3411 C 0.13607 0.11986 0.52348 0.0
C3412 C 0.28399 0.91071 0.77508 0.0
C3413 C 0.25907 0.90996 0.77571 0.0
H3414 H 0.31374 0.89234 0.77401 0.0
C3415 C 0.24597 0.88618 0.77541 0.0
H3416 H 0.29576 0.92769 0.7753 0.0
C3417 C 0.2567 0.86529 0.77462 0.0
C3418 C 0.28152 0.8662 0.77402 0.0
H3419 H 0.22697 0.88328 0.77579 0.0
H3420 H 0.24521 0.84814 0.7746 0.0
C3421 C 0.2947 0.88981 0.7743 0.0
C3422 C 0.45087 0.0242 0.04191 0.0
C3423 C 0.43711 0.02385 0.02 0.0
H3424 H 0.48554 0.02939 0.0609 0.0
C3425 C 0.44957 0.02892 0.99995 0.0
H3426 H 0.44236 0.02003 0.05775 0.0
C3427 C 0.47459 0.03407 1.00172 0.0
C3428 C 0.48827 0.0344 0.02362 0.0
H3429 H 0.44 0.02924 0.98279 0.0
H3430 H 0.48323 0.03791 0.98581 0.0
C3431 C 0.47589 0.02941 0.04369 0.0
C3432 C 0.82036 0.61385 0.77833 0.0
C3433 C 0.83481 0.62328 0.80032 0.0
H3434 H 0.79492 0.62005 0.75217 0.0
C3435 C 0.83308 0.64551 0.8144 0.0
H3436 H 0.8215 0.59653 0.7674 0.0
C3437 C 0.81839 0.65924 0.80551 0.0
C3438 C 0.80504 0.65065 0.78257 0.0
H3439 H 0.8443 0.65298 0.83136 0.0
H3440 H 0.81895 0.67725 0.81581 0.0
C3441 C 0.80532 0.62733 0.76964 0.0
C3442 C 0.89323 0.62271 1.01348 0.0
C3443 C 0.8967 0.64791 0.02077 0.0
H3444 H 0.90871 0.59148 1.01065 0.0
C3445 C 0.91946 0.66109 0.03028 0.0
H3446 H 0.87586 0.61197 1.00648 0.0
C3447 C 0.9382 0.64931 0.03287 0.0
C3448 C 0.93462 0.62413 0.02582 0.0
H3449 H 0.92284 0.68056 0.03566 0.0
H3450 H 0.95553 0.6599 0.04032 0.0
C3451 C 0.91203 0.61096 1.0159 0.0
C3452 C 0.24908 0.1938 0.78865 0.0
C3453 C 0.26216 0.17499 0.78508 0.0
H3454 H 0.24808 0.23149 0.79051 0.0
C3455 C 0.28618 0.18245 0.78067 0.0
H3456 H 0.23058 0.18967 0.79179 0.0
C3457 C 0.29638 0.20693 0.78002 0.0
C3458 C 0.28324 0.22563 0.78348 0.0
H3459 H 0.29749 0.16936 0.77802 0.0
H3460 H 0.31483 0.21117 0.77665 0.0
C3461 C 0.25924 0.21825 0.78776 0.0
C3462 C 0.36306 0.91094 0.33449 0.0
C3463 C 0.35101 0.92704 0.32541 0.0
H3464 H 0.36417 0.87402 0.33436 0.0
C3465 C 0.32884 0.91808 0.3117 0.0
H3466 H 0.38028 0.91711 0.34485 0.0
C3467 C 0.32024 0.89338 0.30486 0.0
C3468 C 0.3332 0.87744 0.31254 0.0
H3469 H 0.31876 0.93007 0.30508 0.0
H3470 H 0.3039 0.8867 0.29295 0.0
C3471 C 0.354 0.88625 0.32833 0.0
C3472 C 0.59021 0.37234 0.52527 0.0
C3473 C 0.57737 0.36686 0.54479 0.0
H3474 H 0.59323 0.39196 0.49614 0.0
C3475 C 0.55679 0.37604 0.54908 0.0
H3476 H 0.60606 0.36535 0.52147 0.0
C3477 C 0.54921 0.39046 0.53432 0.0
C3478 C 0.56221 0.3964 0.51513 0.0
H3479 H 0.54689 0.37282 0.56442 0.0
H3480 H 0.53381 0.39806 0.53884 0.0
C3481 C 0.58275 0.38723 0.51061 0.0
C3482 C 0.40067 0.77095 0.33803 0.0
C3483 C 0.42189 0.78737 0.33803 0.0
H3484 H 0.36381 0.76065 0.326 0.0
C3485 C 0.42274 0.80495 0.32363 0.0
H3486 H 0.39959 0.75738 0.34918 0.0
C3487 C 0.40224 0.80697 0.31049 0.0
C3488 C 0.38069 0.79151 0.31176 0.0
H3489 H 0.43906 0.81765 0.32325 0.0
H3490 H 0.40311 0.8213 0.3003 0.0
C3491 C 0.38019 0.773 0.32497 0.0
C3492 C 0.11357 0.66239 0.0384 0.0
C3493 C 0.11929 0.66938 0.06389 0.0
H3494 H 0.10036 0.63309 1.00817 0.0
C3495 C 0.12037 0.65149 0.07775 0.0
H3496 H 0.11325 0.67565 0.02706 0.0
C3497 C 0.11407 0.62719 0.06663 0.0
C3498 C 0.10611 0.62058 0.04174 0.0
H3499 H 0.12434 0.65606 0.09743 0.0
H3500 H 0.11351 0.61367 0.07782 0.0
C3501 C 0.1065 0.63813 0.0275 0.0
C3502 C 0.15631 0.31966 0.8737 0.0
C3503 C 0.13635 0.30104 0.86633 0.0
H3504 H 0.19008 0.33645 0.86495 0.0
C3505 C 0.13544 0.28422 0.84445 0.0
H3506 H 0.15733 0.33275 0.89059 0.0
C3507 C 0.1541 0.28634 0.8298 0.0
C3508 C 0.17391 0.30519 0.837 0.0
H3509 H 0.12005 0.26987 0.83838 0.0
H3510 H 0.15303 0.27335 0.81283 0.0
C3511 C 0.17502 0.32167 0.85917 0.0
C3512 C 0.56129 0.7077 0.97175 0.0
C3513 C 0.57475 0.73035 0.98328 0.0
H3514 H 0.54516 0.67235 0.9755 0.0
C3515 C 0.58227 0.73459 1.00838 0.0
H3516 H 0.55553 0.70371 0.95236 0.0
C3517 C 0.57679 0.71632 0.02156 0.0
C3518 C 0.56361 0.69359 1.00987 0.0
H3519 H 0.59244 0.75197 0.01781 0.0
H3520 H 0.58338 0.71979 0.04071 0.0
C3521 C 0.55561 0.68961 0.98494 0.0
C3522 C 0.11892 0.76597 0.74981 0.0
C3523 C 0.11978 0.78615 0.73886 0.0
H3524 H 0.13805 0.74633 0.76986 0.0
C3525 C 0.14101 0.80331 0.74172 0.0
H3526 H 0.10298 0.75219 0.74773 0.0
C3527 C 0.16137 0.79952 0.75384 0.0
C3528 C 0.16076 0.77864 0.76357 0.0
H3529 H 0.14213 0.81925 0.73387 0.0
H3530 H 0.17782 0.81229 0.75433 0.0
C3531 C 0.13913 0.76241 0.76225 0.0
C3532 C 0.08739 0.45918 0.45505 0.0
C3533 C 0.0958 0.4441 0.46908 0.0
H3534 H 0.07484 0.49198 0.45545 0.0
C3535 C 0.09843 0.45079 0.49464 0.0
H3536 H 0.08503 0.45417 0.43525 0.0
C3537 C 0.09252 0.4721 0.50608 0.0
C3538 C 0.08387 0.48717 0.49219 0.0
H3539 H 0.10507 0.43953 0.50581 0.0
H3540 H 0.09464 0.47662 0.5259 0.0
C3541 C 0.08137 0.48061 0.46656 0.0
C3542 C 0.40663 0.268 0.2339 0.0
C3543 C 0.42055 0.28992 0.2312 0.0
H3544 H 0.37634 0.25096 0.24894 0.0
C3545 C 0.41675 0.31168 0.24503 0.0
H3546 H 0.40961 0.25091 0.2241 0.0
C3547 C 0.39831 0.31156 0.26004 0.0
C3548 C 0.38331 0.28974 0.26101 0.0
H3549 H 0.4271 0.32887 0.24323 0.0
H3550 H 0.3946 0.3286 0.26918 0.0
C3551 C 0.38794 0.26795 0.24846 0.0
C3552 C 0.6054 0.52363 0.41586 0.0
C3553 C 0.62123 0.54315 0.40937 0.0
H3554 H 0.58254 0.51005 0.4417 0.0
C3555 C 0.6247 0.56509 0.42718 0.0
H3556 H 0.60136 0.50621 0.40365 0.0
C3557 C 0.61337 0.5673 0.44946 0.0
C3558 C 0.59772 0.54777 0.45578 0.0
H3559 H 0.63651 0.58098 0.4243 0.0
H3560 H 0.61717 0.5846 0.46199 0.0
C3561 C 0.59416 0.52585 0.43821 0.0
C3562 C 0.32008 0.91246 0.1355 0.0
C3563 C 0.31533 0.90054 0.11087 0.0
H3564 H 0.32888 0.9095 0.17241 0.0
C3565 C 0.31524 0.87577 0.10468 0.0
H3566 H 0.32003 0.93151 0.14079 0.0
C3567 C 0.32001 0.86317 0.12273 0.0
C3568 C 0.32508 0.87511 0.14732 0.0
H3569 H 0.31189 0.86617 0.08581 0.0
H3570 H 0.31977 0.84406 0.11743 0.0
C3571 C 0.32487 0.89983 0.1536 0.0
C3572 C 0.03 0.59542 0.93045 0.0
C3573 C 0.02594 0.57687 0.90949 0.0
H3574 H 0.04402 0.60629 0.96807 0.0
C3575 C 0.0376 0.55737 0.90877 0.0
H3576 H 0.02182 0.61097 0.93134 0.0
C3577 C 0.05107 0.55533 0.92946 0.0
C3578 C 0.05261 0.57248 0.95106 0.0
H3579 H 0.03469 0.54258 0.8931 0.0
H3580 H 0.05827 0.53922 0.92927 0.0
C3581 C 0.0429 0.59297 0.95131 0.0
C3582 C 0.28774 0.27503 0.66075 0.0
C3583 C 0.30766 0.27318 0.64771 0.0
H3584 H 0.27431 0.28256 0.69563 0.0
C3585 C 0.33012 0.27818 0.66107 0.0
H3586 H 0.2702 0.27154 0.65114 0.0
C3587 C 0.33252 0.28446 0.68678 0.0
C3588 C 0.31254 0.28613 0.6998 0.0
H3589 H 0.34583 0.27666 0.6517 0.0
H3590 H 0.35004 0.28787 0.69644 0.0
C3591 C 0.29015 0.28149 0.68636 0.0
C3592 C 0.61632 0.51747 0.12889 0.0
C3593 C 0.6216 0.53692 0.14953 0.0
H3594 H 0.60229 0.50403 0.09095 0.0
C3595 C 0.61509 0.5586 0.14541 0.0
H3596 H 0.6209 0.50037 0.13029 0.0
C3597 C 0.60415 0.56067 0.12241 0.0
C3598 C 0.59908 0.54128 0.10181 0.0
H3599 H 0.61815 0.57424 0.16018 0.0
H3600 H 0.59972 0.57779 0.12081 0.0
C3601 C 0.60555 0.51961 0.10582 0.0
C3602 C 0.28793 0.85702 0.88039 0.0
C3603 C 0.30666 0.8764 0.89079 0.0
H3604 H 0.27583 0.82544 0.85219 0.0
C3605 C 0.32841 0.87773 0.88037 0.0
H3606 H 0.27102 0.85503 0.88801 0.0
C3607 C 0.33135 0.86036 0.8603 0.0
C3608 C 0.31253 0.84128 0.84968 0.0
H3609 H 0.34316 0.89256 0.88728 0.0
H3610 H 0.34822 0.86242 0.8526 0.0
C3611 C 0.29077 0.83979 0.86001 0.0
C3612 C 0.96709 0.52941 0.67771 0.0
C3613 C 0.96775 0.51582 0.69599 0.0
H3614 H 0.98253 0.53938 0.6465 0.0
C3615 C 0.98291 0.49932 0.69501 0.0
H3616 H 0.95539 0.54213 0.67808 0.0
C3617 C 0.99823 0.49748 0.67675 0.0
C3618 C 0.9986 0.51217 0.65935 0.0
H3619 H 0.98388 0.48884 0.7091 0.0
H3620 H 1.01031 0.48517 0.67673 0.0
C3621 C 0.98247 0.52767 0.65957 0.0
C3622 C 0.31226 0.24147 0.37058 0.0
C3623 C 0.31277 0.25881 0.39223 0.0
H3624 H 0.31388 0.23451 0.33158 0.0
C3625 C 0.31627 0.2832 0.39048 0.0
H3626 H 0.30937 0.22248 0.37109 0.0
C3627 C 0.31893 0.29006 0.36789 0.0
C3628 C 0.31809 0.27278 0.34617 0.0
H3629 H 0.31716 0.29713 0.40666 0.0
H3630 H 0.32139 0.30908 0.36753 0.0
C3631 C 0.3148 0.24836 0.34785 0.0
C3632 C 0.47318 0.60406 0.53288 0.0
C3633 C 0.45243 0.58616 0.53149 0.0
H3634 H 0.51101 0.61242 0.53148 0.0
C3635 C 0.45511 0.56193 0.52645 0.0
H3636 H 0.47226 0.62296 0.53702 0.0
C3637 C 0.47749 0.55586 0.52305 0.0
C3638 C 0.49824 0.57375 0.52471 0.0
H3639 H 0.43982 0.54745 0.52491 0.0
H3640 H 0.47851 0.53698 0.51952 0.0
C3641 C 0.49562 0.598 0.5297 0.0
C3642 C 0.96468 1.00065 0.55966 0.0
C3643 C 0.96086 0.97562 0.55042 0.0
H3644 H 0.98822 0.03503 0.56391 0.0
C3645 C 0.97914 0.96615 0.53909 0.0
H3646 H 0.95093 1.00861 0.56833 0.0
C3647 C 1.00035 0.98124 0.53646 0.0
C3648 C 1.00404 1.0063 0.54512 0.0
H3649 H 0.9771 0.94695 0.53222 0.0
H3650 H 1.01385 0.97315 0.52747 0.0
C3651 C 0.98604 1.01582 0.55705 0.0
C3652 C 0.88752 0.21651 0.27736 0.0
C3653 C 0.87556 0.19423 0.28271 0.0
H3654 H 0.8874 0.25347 0.27376 0.0
C3655 C 0.85199 0.19499 0.28898 0.0
H3656 H 0.90555 0.21809 0.27257 0.0
C3657 C 0.84138 0.21593 0.28971 0.0
C3658 C 0.85338 0.23809 0.28438 0.0
H3659 H 0.84118 0.17909 0.29315 0.0
H3660 H 0.82332 0.21456 0.29444 0.0
C3661 C 0.87692 0.2375 0.2782 0.0
C3662 C 0.68128 0.06904 0.05474 0.0
C3663 C 0.6941 0.0804 0.03792 0.0
H3664 H 0.64736 0.05541 0.06609 0.0
C3665 C 0.68078 0.08702 0.01915 0.0
H3666 H 0.69054 0.06334 0.06932 0.0
C3667 C 0.65573 0.08243 0.01727 0.0
C3668 C 0.64299 0.07094 0.03402 0.0
H3669 H 0.68969 0.09611 1.00597 0.0
H3670 H 0.64635 0.08779 1.00253 0.0
C3671 C 0.65628 0.06434 0.05278 0.0
C3672 C 0.2633 0.44884 0.26432 0.0
C3673 C 0.27389 0.47321 0.26694 0.0
H3674 H 0.26725 0.41435 0.27051 0.0
C3675 C 0.29697 0.4818 0.2786 0.0
H3676 H 0.24556 0.44179 0.2553 0.0
C3677 C 0.30952 0.46603 0.28699 0.0
C3678 C 0.29908 0.44156 0.28383 0.0
H3679 H 0.30532 0.50067 0.28119 0.0
H3680 H 0.32751 0.47283 0.29539 0.0
C3681 C 0.27576 0.43315 0.2728 0.0
C3682 C 0.23654 0.47835 0.04774 0.0
C3683 C 0.23857 0.45654 0.03259 0.0
H3684 H 0.21792 0.50756 0.05355 0.0
C3685 C 0.22194 0.44669 1.01214 0.0
H3686 H 0.24917 0.48647 0.06355 0.0
C3687 C 0.20428 0.45878 1.00638 0.0
C3688 C 0.20272 0.48097 0.02099 0.0
H3689 H 0.22261 0.42962 1.00044 0.0
H3690 H 0.19185 0.45079 0.99037 0.0
C3691 C 0.21871 0.49044 0.04201 0.0
C3692 C 0.84567 0.92171 0.27848 0.0
C3693 C 0.8701 0.92921 0.27566 0.0
H3694 H 0.81647 0.89303 0.28136 0.0
C3695 C 0.88333 0.91052 0.2738 0.0
H3696 H 0.83423 0.93469 0.27978 0.0
C3697 C 0.87291 0.88617 0.27478 0.0
C3698 C 0.8485 0.87874 0.27748 0.0
H3699 H 0.90212 0.91467 0.27195 0.0
H3700 H 0.8842 0.87303 0.27338 0.0
C3701 C 0.83522 0.89731 0.27925 0.0
C3702 C 0.80643 0.19322 0.76334 0.0
C3703 C 0.79535 0.18444 0.73947 0.0
H3704 H 0.82195 0.22424 0.79068 0.0
C3705 C 0.79404 0.20045 0.72361 0.0
H3706 H 0.8074 0.18126 0.77603 0.0
C3707 C 0.80223 0.22509 0.73205 0.0
C3708 C 0.81164 0.23401 0.75651 0.0
H3709 H 0.78568 0.194 0.70507 0.0
H3710 H 0.79996 0.23718 0.7198 0.0
C3711 C 0.81451 0.21784 0.77181 0.0
loop_
_geom_bond_atom_site_label_1
_geom_bond_atom_site_label_2
_geom_bond_distance
_geom_bond_site_symmetry_2
_ccdc_geom_bond_type
Li0 N17 1.990 . S
Li0 O60 1.956 . S
Li0 O61 1.970 . S
Li0 O62 1.961 . S
Li1 N25 1.990 . S
Li1 O60 1.970 . S
Li1 O61 1.956 . S
Li1 O63 1.961 . S
Li2 N47 1.990 . S
Li2 O60 1.961 . S
Li2 O62 1.956 . S
Li2 O63 1.970 . S
Li3 N53 1.990 . S
Li3 O61 1.961 . S
Li3 O62 1.970 . S
Li3 O63 1.956 . S
C4 C6 1.348 . S
C4 C7 1.356 . S
C4 O60 1.325 . S
N5 C8 1.314 . S
N5 C9 1.279 . S
C6 C4 1.348 . S
C6 C8 1.353 . S
C6 H64 0.929 . S
C7 C4 1.356 . S
C7 C9 1.358 . S
C7 H65 0.930 . S
C8 N5 1.314 . S
C8 C6 1.353 . S
C8 H66 0.930 . S
C9 N5 1.279 . S
C9 C7 1.358 . S
C9 H67 0.930 . S
C10 C13 1.348 . S
C10 C14 1.356 . S
C10 O61 1.325 . S
C11 N12 1.279 . S
C11 C14 1.358 . S
C11 H68 0.930 . S
N12 C11 1.279 . S
N12 C15 1.314 . S
C13 C10 1.348 . S
C13 C15 1.353 . S
C13 H69 0.929 . S
C14 C10 1.356 . S
C14 C11 1.358 . S
C14 H70 0.930 . S
C15 N12 1.314 . S
C15 C13 1.353 . S
C15 H71 0.930 . S
C16 N17 1.314 . S
C16 C21 1.353 . S
C16 H22 0.930 . S
N17 Li0 1.990 . S
N17 C16 1.314 . S
N17 C19 1.279 . S
C18 C19 1.358 . S
C18 C20 1.356 . S
C18 H72 0.930 . S
C19 N17 1.279 . S
C19 C18 1.358 . S
C19 H23 0.930 . S
C20 C18 1.356 . S
C20 C21 1.348 . S
C21 C16 1.353 . S
C21 C20 1.348 . S
C21 H73 0.926 1_455 S
H22 C16 0.930 . S
H23 C19 0.930 . S
C24 N25 1.314 . S
C24 C26 1.353 . S
C24 H30 0.930 . S
N25 Li1 1.990 . S
N25 C24 1.314 . S
N25 C28 1.279 . S
C26 C24 1.353 . S
C26 C29 1.348 . S
C26 H74 0.929 . S
C27 C28 1.358 . S
C27 C29 1.356 . S
C27 H75 0.930 . S
C28 N25 1.279 . S
C28 C27 1.358 . S
C28 H31 0.930 . S
C29 C26 1.348 . S
C29 C27 1.356 . S
H30 C24 0.930 . S
H31 C28 0.930 . S
C32 C34 1.348 . S
C32 C35 1.356 . S
C32 O62 1.325 . S
N33 C36 1.314 . S
N33 C37 1.279 . S
C34 C32 1.348 . S
C34 C36 1.353 . S
C34 H76 0.929 . S
C35 C32 1.356 . S
C35 C37 1.358 . S
C35 H77 0.930 . S
C36 N33 1.314 . S
C36 C34 1.353 . S
C36 H78 0.930 . S
C37 N33 1.279 . S
C37 C35 1.358 . S
C37 H79 0.930 . S
C38 C39 1.348 . S
C38 C40 1.356 . S
C38 O63 1.325 . S
C39 C38 1.348 . S
C39 C41 1.353 . S
C39 H80 0.929 . S
C40 C38 1.356 . S
C40 C42 1.358 . S
C40 H81 0.930 . S
C41 C39 1.353 . S
C41 N43 1.314 . S
C41 H82 0.930 . S
C42 C40 1.358 . S
C42 N43 1.279 . S
C42 H83 0.930 . S
N43 C41 1.314 . S
N43 C42 1.279 . S
C44 C46 1.353 . S
C44 N47 1.314 . S
C44 H50 0.930 . S
C45 N47 1.279 . S
C45 C48 1.358 . S
C45 H51 0.930 . S
C46 C44 1.353 . S
C46 C49 1.348 . S
C46 H84 0.929 . S
N47 Li2 1.990 . S
N47 C44 1.314 . S
N47 C45 1.279 . S
C48 C45 1.358 . S
C48 C49 1.356 . S
C48 H85 0.930 . S
C49 C46 1.348 . S
C49 C48 1.356 . S
H50 C44 0.930 . S
H51 C45 0.930 . S
C52 N53 1.314 . S
C52 C54 1.353 . S
C52 H58 0.930 . S
N53 Li3 1.990 . S
N53 C52 1.314 . S
N53 C56 1.279 . S
C54 C52 1.353 . S
C54 C57 1.348 . S
C54 H86 0.929 . S
C55 C56 1.358 . S
C55 C57 1.356 . S
C55 H87 0.930 . S
C56 N53 1.279 . S
C56 C55 1.358 . S
C56 H59 0.930 . S
C57 C54 1.348 . S
C57 C55 1.356 . S
H58 C52 0.930 . S
H59 C56 0.930 . S
O60 Li0 1.956 . S
O60 Li1 1.970 . S
O60 Li2 1.961 . S
O60 C4 1.325 . S
O61 Li0 1.970 . S
O61 Li1 1.956 . S
O61 Li3 1.961 . S
O61 C10 1.325 . S
O62 Li0 1.961 . S
O62 Li2 1.956 . S
O62 Li3 1.970 . S
O62 C32 1.325 . S
O63 Li1 1.961 . S
O63 Li2 1.970 . S
O63 Li3 1.956 . S
O63 C38 1.325 . S
H64 C6 0.929 . S
H65 C7 0.930 . S
H66 C8 0.930 . S
H67 C9 0.930 . S
H68 C11 0.930 . S
H69 C13 0.929 . S
H70 C14 0.930 . S
H71 C15 0.930 . S
H72 C18 0.930 . S
H73 C21 0.926 1_655 S
H74 C26 0.929 . S
H75 C27 0.930 . S
H76 C34 0.929 . S
H77 C35 0.930 . S
H78 C36 0.930 . S
H79 C37 0.930 . S
H80 C39 0.929 . S
H81 C40 0.930 . S
H82 C41 0.930 . S
H83 C42 0.930 . S
H84 C46 0.929 . S
H85 C48 0.930 . S
H86 C54 0.929 . S
H87 C55 0.930 . S
Li88 N105 1.990 . S
Li88 O148 1.956 . S
Li88 O149 1.970 . S
Li88 O150 1.961 1_455 S
Li89 N113 1.990 . S
Li89 O148 1.970 . S
Li89 O149 1.956 . S
Li89 O151 1.933 1_455 S
Li90 N135 1.990 . S
Li90 O148 1.961 1_655 S
Li90 O150 1.956 . S
Li90 O151 1.972 . S
Li91 N141 1.990 . S
Li91 O149 1.961 1_655 S
Li91 O150 1.970 . S
Li91 O151 1.994 . S
C92 C94 1.348 . S
C92 C95 1.356 . S
C92 O148 1.325 . S
N93 C96 1.314 . S
N93 C97 1.279 . S
C94 C92 1.348 . S
C94 C96 1.353 . S
C94 H152 0.929 . S
C95 C92 1.356 . S
C95 C97 1.358 . S
C95 H153 0.930 . S
C96 N93 1.314 . S
C96 C94 1.353 . S
C96 H154 0.930 . S
C97 N93 1.279 . S
C97 C95 1.358 . S
C97 H155 0.930 . S
C98 C101 1.348 . S
C98 C102 1.356 . S
C98 O149 1.325 . S
C99 N100 1.279 . S
C99 C102 1.358 . S
C99 H156 0.930 . S
N100 C99 1.279 . S
N100 C103 1.314 . S
C101 C98 1.348 . S
C101 C103 1.353 . S
C101 H157 0.929 . S
C102 C98 1.356 . S
C102 C99 1.358 . S
C102 H158 0.927 1_455 S
C103 N100 1.314 . S
C103 C101 1.353 . S
C103 H159 0.930 . S
C104 N105 1.314 1_655 S
C104 C109 1.353 . S
C104 H110 0.930 . S
N105 Li88 1.990 . S
N105 C104 1.314 1_455 S
N105 C107 1.279 . S
C106 C107 1.358 . S
C106 C108 1.356 . S
C106 H160 0.930 . S
C107 N105 1.279 . S
C107 C106 1.358 . S
C107 H111 0.930 . S
C108 C106 1.356 . S
C108 C109 1.348 1_455 S
C109 C104 1.353 . S
C109 C108 1.348 1_655 S
C109 H161 0.929 . S
H110 C104 0.930 . S
H111 C107 0.930 . S
C112 N113 1.314 . S
C112 C114 1.353 . S
C112 H118 0.930 . S
N113 Li89 1.990 . S
N113 C112 1.314 . S
N113 C116 1.279 . S
C114 C112 1.353 . S
C114 C117 1.348 . S
C114 H162 0.929 . S
C115 C116 1.358 . S
C115 C117 1.356 . S
C115 H163 0.930 . S
C116 N113 1.279 . S
C116 C115 1.358 . S
C116 H119 0.930 . S
C117 C114 1.348 . S
C117 C115 1.356 . S
H118 C112 0.930 . S
H119 C116 0.930 . S
C120 C122 1.348 . S
C120 C123 1.356 . S
C120 O150 1.325 . S
N121 C124 1.314 . S
N121 C125 1.279 . S
C122 C120 1.348 . S
C122 C124 1.353 . S
C122 H164 0.929 . S
C123 C120 1.356 . S
C123 C125 1.358 . S
C123 H165 0.930 . S
C124 N121 1.314 . S
C124 C122 1.353 . S
C124 H166 0.930 . S
C125 N121 1.279 . S
C125 C123 1.358 . S
C125 H167 0.930 . S
C126 C127 1.348 . S
C126 C128 1.356 1_655 S
C126 O151 1.324 . S
C127 C126 1.348 . S
C127 C129 1.353 . S
C127 H168 0.929 . S
C128 C126 1.356 1_455 S
C128 C130 1.358 . S
C128 H169 0.930 . S
C129 C127 1.353 . S
C129 N131 1.314 . S
C129 H170 0.930 . S
C130 C128 1.358 . S
C130 N131 1.279 1_455 S
C130 H171 0.930 . S
N131 C129 1.314 . S
N131 C130 1.279 1_655 S
C132 C134 1.353 . S
C132 N135 1.314 1_455 S
C132 H138 0.930 . S
C133 N135 1.279 . S
C133 C136 1.358 . S
C133 H139 0.930 . S
C134 C132 1.353 . S
C134 C137 1.348 1_455 S
C134 H172 0.929 . S
N135 Li90 1.990 . S
N135 C132 1.314 1_655 S
N135 C133 1.279 . S
C136 C133 1.358 . S
C136 C137 1.356 . S
C136 H173 0.930 . S
C137 C134 1.348 1_655 S
C137 C136 1.356 . S
H138 C132 0.930 . S
H139 C133 0.930 . S
C140 N141 1.314 . S
C140 C142 1.353 . S
C140 H146 0.930 . S
N141 Li91 1.990 . S
N141 C140 1.314 . S
N141 C144 1.279 . S
C142 C140 1.353 . S
C142 C145 1.348 . S
C142 H174 0.929 . S
C143 C144 1.358 . S
C143 C145 1.356 . S
C143 H175 0.930 . S
C144 N141 1.279 . S
C144 C143 1.358 . S
C144 H147 0.930 . S
C145 C142 1.348 . S
C145 C143 1.356 . S
H146 C140 0.930 . S
H147 C144 0.930 . S
O148 Li88 1.956 . S
O148 Li89 1.970 . S
O148 Li90 1.961 1_455 S
O148 C92 1.325 . S
O149 Li88 1.970 . S
O149 Li89 1.956 . S
O149 Li91 1.961 1_455 S
O149 C98 1.325 . S
O150 Li88 1.961 1_655 S
O150 Li90 1.956 . S
O150 Li91 1.970 . S
O150 C120 1.325 . S
O151 Li89 1.933 1_655 S
O151 Li90 1.972 . S
O151 Li91 1.994 . S
O151 C126 1.324 . S
H152 C94 0.929 . S
H153 C95 0.930 . S
H154 C96 0.930 . S
H155 C97 0.930 . S
H156 C99 0.930 . S
H157 C101 0.929 . S
H158 C102 0.927 1_655 S
H159 C103 0.930 . S
H160 C106 0.930 . S
H161 C109 0.929 . S
H162 C114 0.929 . S
H163 C115 0.930 . S
H164 C122 0.929 . S
H165 C123 0.930 . S
H166 C124 0.930 . S
H167 C125 0.930 . S
H168 C127 0.929 . S
H169 C128 0.930 . S
H170 C129 0.930 . S
H171 C130 0.930 . S
H172 C134 0.929 . S
H173 C136 0.930 . S
H174 C142 0.929 . S
H175 C143 0.930 . S
Li176 N193 1.990 . S
Li176 O236 1.956 . S
Li176 O237 1.970 . S
Li176 O238 1.961 . S
Li177 N201 1.990 . S
Li177 O236 1.970 . S
Li177 O237 1.956 . S
Li177 O239 1.961 . S
Li178 N223 1.990 . S
Li178 O236 1.961 . S
Li178 O238 1.956 . S
Li178 O239 1.970 . S
Li179 N229 1.990 . S
Li179 O237 1.961 . S
Li179 O238 1.970 . S
Li179 O239 1.956 . S
C180 C182 1.348 . S
C180 C183 1.356 . S
C180 O236 1.325 . S
N181 C184 1.314 . S
N181 C185 1.279 . S
C182 C180 1.348 . S
C182 C184 1.353 . S
C182 H240 0.929 . S
C183 C180 1.356 . S
C183 C185 1.358 . S
C183 H241 0.930 . S
C184 N181 1.314 . S
C184 C182 1.353 . S
C184 H242 0.930 . S
C185 N181 1.279 . S
C185 C183 1.358 . S
C185 H243 0.930 . S
C186 C189 1.348 . S
C186 C190 1.356 . S
C186 O237 1.325 . S
C187 N188 1.279 . S
C187 C190 1.358 . S
C187 H244 0.930 . S
N188 C187 1.279 . S
N188 C191 1.314 . S
C189 C186 1.348 . S
C189 C191 1.353 . S
C189 H245 0.929 . S
C190 C186 1.356 . S
C190 C187 1.358 . S
C190 H246 0.930 . S
C191 N188 1.314 . S
C191 C189 1.353 . S
C191 H247 0.930 . S
C192 N193 1.314 . S
C192 C197 1.353 . S
C192 H198 0.930 . S
N193 Li176 1.990 . S
N193 C192 1.314 . S
N193 C195 1.279 . S
C194 C195 1.358 . S
C194 C196 1.356 . S
C194 H248 0.930 . S
C195 N193 1.279 . S
C195 C194 1.358 . S
C195 H199 0.930 . S
C196 C194 1.356 . S
C196 C197 1.348 . S
C197 C192 1.353 . S
C197 C196 1.348 . S
C197 H249 0.929 . S
H198 C192 0.930 . S
H199 C195 0.930 . S
C200 N201 1.314 . S
C200 C202 1.353 . S
C200 H206 0.930 . S
N201 Li177 1.990 . S
N201 C200 1.314 . S
N201 C204 1.279 . S
C202 C200 1.353 . S
C202 C205 1.348 . S
C202 H250 0.929 . S
C203 C204 1.358 . S
C203 C205 1.356 . S
C203 H251 0.930 . S
C204 N201 1.279 . S
C204 C203 1.358 . S
C204 H207 0.930 . S
C205 C202 1.348 . S
C205 C203 1.356 . S
H206 C200 0.930 . S
H207 C204 0.930 . S
C208 C210 1.348 . S
C208 C211 1.356 . S
C208 O238 1.325 . S
N209 C212 1.314 . S
N209 C213 1.279 . S
C210 C208 1.348 . S
C210 C212 1.353 . S
C210 H252 0.929 . S
C211 C208 1.356 . S
C211 C213 1.358 . S
C211 H253 0.930 . S
C212 N209 1.314 . S
C212 C210 1.353 . S
C212 H254 0.930 . S
C213 N209 1.279 . S
C213 C211 1.358 . S
C213 H255 0.930 . S
C214 C215 1.348 . S
C214 C216 1.356 . S
C214 O239 1.325 . S
C215 C214 1.348 . S
C215 C217 1.353 . S
C215 H256 0.929 . S
C216 C214 1.356 . S
C216 C218 1.358 . S
C216 H257 0.930 . S
C217 C215 1.353 . S
C217 N219 1.314 . S
C217 H258 0.930 . S
C218 C216 1.358 . S
C218 N219 1.279 . S
C218 H259 0.930 . S
N219 C217 1.314 . S
N219 C218 1.279 . S
C220 C222 1.353 . S
C220 N223 1.314 . S
C220 H226 0.930 . S
C221 N223 1.279 . S
C221 C224 1.358 . S
C221 H227 0.930 . S
C222 C220 1.353 . S
C222 C225 1.348 . S
C222 H260 0.929 . S
N223 Li178 1.990 . S
N223 C220 1.314 . S
N223 C221 1.279 . S
C224 C221 1.358 . S
C224 C225 1.356 . S
C224 H261 0.930 . S
C225 C222 1.348 . S
C225 C224 1.356 . S
H226 C220 0.930 . S
H227 C221 0.930 . S
C228 N229 1.314 . S
C228 C230 1.353 . S
C228 H234 0.930 . S
N229 Li179 1.990 . S
N229 C228 1.314 . S
N229 C232 1.279 . S
C230 C228 1.353 . S
C230 C233 1.348 . S
C230 H262 0.929 . S
C231 C232 1.358 . S
C231 C233 1.356 . S
C231 H263 0.930 . S
C232 N229 1.279 . S
C232 C231 1.358 . S
C232 H235 0.930 . S
C233 C230 1.348 . S
C233 C231 1.356 . S
H234 C228 0.930 . S
H235 C232 0.930 . S
O236 Li176 1.956 . S
O236 Li177 1.970 . S
O236 Li178 1.961 . S
O236 C180 1.325 . S
O237 Li176 1.970 . S
O237 Li177 1.956 . S
O237 Li179 1.961 . S
O237 C186 1.325 . S
O238 Li176 1.961 . S
O238 Li178 1.956 . S
O238 Li179 1.970 . S
O238 C208 1.325 . S
O239 Li177 1.961 . S
O239 Li178 1.970 . S
O239 Li179 1.956 . S
O239 C214 1.325 . S
H240 C182 0.929 . S
H241 C183 0.930 . S
H242 C184 0.930 . S
H243 C185 0.930 . S
H244 C187 0.930 . S
H245 C189 0.929 . S
H246 C190 0.930 . S
H247 C191 0.930 . S
H248 C194 0.930 . S
H249 C197 0.929 . S
H250 C202 0.929 . S
H251 C203 0.930 . S
H252 C210 0.929 . S
H253 C211 0.930 . S
H254 C212 0.930 . S
H255 C213 0.930 . S
H256 C215 0.929 . S
H257 C216 0.930 . S
H258 C217 0.930 . S
H259 C218 0.930 . S
H260 C222 0.929 . S
H261 C224 0.930 . S
H262 C230 0.929 . S
H263 C231 0.930 . S
Li264 N281 1.990 . S
Li264 O324 1.956 . S
Li264 O325 1.970 . S
Li264 O326 1.961 . S
Li265 N289 1.990 . S
Li265 O324 1.970 . S
Li265 O325 1.956 . S
Li265 O327 1.961 . S
Li266 N311 1.990 . S
Li266 O324 1.961 . S
Li266 O326 1.956 . S
Li266 O327 1.970 . S
Li267 N317 1.990 . S
Li267 O325 1.961 . S
Li267 O326 1.970 . S
Li267 O327 1.956 . S
C268 C270 1.348 . S
C268 C271 1.356 . S
C268 O324 1.325 . S
N269 C272 1.314 . S
N269 C273 1.279 . S
C270 C268 1.348 . S
C270 C272 1.353 . S
C270 H328 0.929 . S
C271 C268 1.356 . S
C271 C273 1.358 . S
C271 H329 0.930 . S
C272 N269 1.314 . S
C272 C270 1.353 . S
C272 H330 0.930 . S
C273 N269 1.279 . S
C273 C271 1.358 . S
C273 H331 0.930 . S
C274 C277 1.348 . S
C274 C278 1.356 . S
C274 O325 1.325 . S
C275 N276 1.279 . S
C275 C278 1.358 . S
C275 H332 0.930 . S
N276 C275 1.279 . S
N276 C279 1.314 . S
C277 C274 1.348 . S
C277 C279 1.353 . S
C277 H333 0.929 . S
C278 C274 1.356 . S
C278 C275 1.358 . S
C278 H334 0.930 . S
C279 N276 1.314 . S
C279 C277 1.353 . S
C279 H335 0.930 . S
C280 N281 1.314 . S
C280 C285 1.353 . S
C280 H286 0.930 . S
N281 Li264 1.990 . S
N281 C280 1.314 . S
N281 C283 1.279 . S
C282 C283 1.358 . S
C282 C284 1.356 . S
C282 H336 0.930 . S
C283 N281 1.279 . S
C283 C282 1.358 . S
C283 H287 0.930 . S
C284 C282 1.356 . S
C284 C285 1.348 . S
C285 C280 1.353 . S
C285 C284 1.348 . S
C285 H337 0.929 . S
H286 C280 0.930 . S
H287 C283 0.930 . S
C288 N289 1.314 . S
C288 C290 1.353 . S
C288 H294 0.930 . S
N289 Li265 1.990 . S
N289 C288 1.314 . S
N289 C292 1.279 . S
C290 C288 1.353 . S
C290 C293 1.348 . S
C290 H338 0.929 . S
C291 C292 1.358 . S
C291 C293 1.356 . S
C291 H339 0.930 . S
C292 N289 1.279 . S
C292 C291 1.358 . S
C292 H295 0.930 . S
C293 C290 1.348 . S
C293 C291 1.356 . S
H294 C288 0.930 . S
H295 C292 0.930 . S
C296 C298 1.348 . S
C296 C299 1.356 . S
C296 O326 1.325 . S
N297 C300 1.314 . S
N297 C301 1.279 . S
C298 C296 1.348 . S
C298 C300 1.353 . S
C298 H340 0.929 . S
C299 C296 1.356 . S
C299 C301 1.358 . S
C299 H341 0.930 . S
C300 N297 1.314 . S
C300 C298 1.353 . S
C300 H342 0.930 . S
C301 N297 1.279 . S
C301 C299 1.358 . S
C301 H343 0.930 . S
C302 C303 1.348 . S
C302 C304 1.356 . S
C302 O327 1.325 . S
C303 C302 1.348 . S
C303 C305 1.353 . S
C303 H344 0.929 . S
C304 C302 1.356 . S
C304 C306 1.358 . S
C304 H345 0.930 . S
C305 C303 1.353 . S
C305 N307 1.314 . S
C305 H346 0.930 . S
C306 C304 1.358 . S
C306 N307 1.279 . S
C306 H347 0.930 . S
N307 C305 1.314 . S
N307 C306 1.279 . S
C308 C310 1.353 . S
C308 N311 1.314 . S
C308 H314 0.930 . S
C309 N311 1.279 . S
C309 C312 1.358 . S
C309 H315 0.930 . S
C310 C308 1.353 . S
C310 C313 1.348 . S
C310 H348 0.929 . S
N311 Li266 1.990 . S
N311 C308 1.314 . S
N311 C309 1.279 . S
C312 C309 1.358 . S
C312 C313 1.356 . S
C312 H349 0.930 . S
C313 C310 1.348 . S
C313 C312 1.356 . S
H314 C308 0.930 . S
H315 C309 0.930 . S
C316 N317 1.314 . S
C316 C318 1.353 . S
C316 H322 0.930 . S
N317 Li267 1.990 . S
N317 C316 1.314 . S
N317 C320 1.279 . S
C318 C316 1.353 . S
C318 C321 1.348 . S
C318 H350 0.929 . S
C319 C320 1.358 . S
C319 C321 1.356 . S
C319 H351 0.930 . S
C320 N317 1.279 . S
C320 C319 1.358 . S
C320 H323 0.930 . S
C321 C318 1.348 . S
C321 C319 1.356 . S
H322 C316 0.930 . S
H323 C320 0.930 . S
O324 Li264 1.956 . S
O324 Li265 1.970 . S
O324 Li266 1.961 . S
O324 C268 1.325 . S
O325 Li264 1.970 . S
O325 Li265 1.956 . S
O325 Li267 1.961 . S
O325 C274 1.325 . S
O326 Li264 1.961 . S
O326 Li266 1.956 . S
O326 Li267 1.970 . S
O326 C296 1.325 . S
O327 Li265 1.961 . S
O327 Li266 1.970 . S
O327 Li267 1.956 . S
O327 C302 1.325 . S
H328 C270 0.929 . S
H329 C271 0.930 . S
H330 C272 0.930 . S
H331 C273 0.930 . S
H332 C275 0.930 . S
H333 C277 0.929 . S
H334 C278 0.930 . S
H335 C279 0.930 . S
H336 C282 0.930 . S
H337 C285 0.929 . S
H338 C290 0.929 . S
H339 C291 0.930 . S
H340 C298 0.929 . S
H341 C299 0.930 . S
H342 C300 0.930 . S
H343 C301 0.930 . S
H344 C303 0.929 . S
H345 C304 0.930 . S
H346 C305 0.930 . S
H347 C306 0.930 . S
H348 C310 0.929 . S
H349 C312 0.930 . S
H350 C318 0.929 . S
H351 C319 0.930 . S
Li352 N369 1.990 . S
Li352 O412 1.956 . S
Li352 O413 1.970 . S
Li352 O414 1.961 . S
Li353 N377 1.990 . S
Li353 O412 1.970 . S
Li353 O413 1.956 . S
Li353 O415 1.961 . S
Li354 N399 1.990 . S
Li354 O412 1.961 . S
Li354 O414 1.956 . S
Li354 O415 1.970 . S
Li355 N405 1.990 . S
Li355 O413 1.961 . S
Li355 O414 1.970 . S
Li355 O415 1.956 . S
C356 C358 1.348 . S
C356 C359 1.356 . S
C356 O412 1.325 . S
N357 C360 1.314 . S
N357 C361 1.279 . S
C358 C356 1.348 . S
C358 C360 1.353 . S
C358 H416 0.929 . S
C359 C356 1.356 . S
C359 C361 1.358 . S
C359 H417 0.930 . S
C360 N357 1.314 . S
C360 C358 1.353 . S
C360 H418 0.930 . S
C361 N357 1.279 . S
C361 C359 1.358 . S
C361 H419 0.930 . S
C362 C365 1.348 . S
C362 C366 1.356 . S
C362 O413 1.325 . S
C363 N364 1.279 . S
C363 C366 1.358 . S
C363 H420 0.930 . S
N364 C363 1.279 . S
N364 C367 1.314 . S
C365 C362 1.348 . S
C365 C367 1.353 . S
C365 H421 0.929 . S
C366 C362 1.356 . S
C366 C363 1.358 . S
C366 H422 0.930 . S
C367 N364 1.314 . S
C367 C365 1.353 . S
C367 H423 0.930 . S
C368 N369 1.314 . S
C368 C373 1.353 . S
C368 H374 0.930 . S
N369 Li352 1.990 . S
N369 C368 1.314 . S
N369 C371 1.279 . S
C370 C371 1.358 . S
C370 C372 1.356 . S
C370 H424 0.930 . S
C371 N369 1.279 . S
C371 C370 1.358 . S
C371 H375 0.930 . S
C372 C370 1.356 . S
C372 C373 1.348 . S
C373 C368 1.353 . S
C373 C372 1.348 . S
C373 H425 0.929 . S
H374 C368 0.930 . S
H375 C371 0.930 . S
C376 N377 1.314 . S
C376 C378 1.353 . S
C376 H382 0.930 . S
N377 Li353 1.990 . S
N377 C376 1.314 . S
N377 C380 1.279 . S
C378 C376 1.353 . S
C378 C381 1.348 . S
C378 H426 0.929 . S
C379 C380 1.358 . S
C379 C381 1.356 . S
C379 H427 0.930 . S
C380 N377 1.279 . S
C380 C379 1.358 . S
C380 H383 0.930 . S
C381 C378 1.348 . S
C381 C379 1.356 . S
H382 C376 0.930 . S
H383 C380 0.930 . S
C384 C386 1.348 . S
C384 C387 1.356 . S
C384 O414 1.325 . S
N385 C388 1.314 . S
N385 C389 1.279 1_655 S
C386 C384 1.348 . S
C386 C388 1.353 1_455 S
C386 H428 0.929 . S
C387 C384 1.356 . S
C387 C389 1.358 . S
C387 H429 0.930 . S
C388 N385 1.314 . S
C388 C386 1.353 1_655 S
C388 H430 0.930 . S
C389 N385 1.279 1_455 S
C389 C387 1.358 . S
C389 H431 0.930 . S
C390 C391 1.348 . S
C390 C392 1.356 . S
C390 O415 1.325 . S
C391 C390 1.348 . S
C391 C393 1.353 . S
C391 H432 0.929 . S
C392 C390 1.356 . S
C392 C394 1.358 . S
C392 H433 0.930 . S
C393 C391 1.353 . S
C393 N395 1.314 . S
C393 H434 0.930 . S
C394 C392 1.358 . S
C394 N395 1.279 . S
C394 H435 0.930 . S
N395 C393 1.314 . S
N395 C394 1.279 . S
C396 C398 1.353 . S
C396 N399 1.314 . S
C396 H402 0.930 . S
C397 N399 1.279 . S
C397 C400 1.358 . S
C397 H403 0.930 . S
C398 C396 1.353 . S
C398 C401 1.348 . S
C398 H436 0.929 . S
N399 Li354 1.990 . S
N399 C396 1.314 . S
N399 C397 1.279 . S
C400 C397 1.358 . S
C400 C401 1.356 . S
C400 H437 0.930 . S
C401 C398 1.348 . S
C401 C400 1.356 . S
H402 C396 0.930 . S
H403 C397 0.930 . S
C404 N405 1.314 . S
C404 C406 1.353 . S
C404 H410 0.930 . S
N405 Li355 1.990 . S
N405 C404 1.314 . S
N405 C408 1.279 . S
C406 C404 1.353 . S
C406 C409 1.348 1_455 S
C406 H438 0.921 1_455 S
C407 C408 1.358 . S
C407 C409 1.356 1_455 S
C407 H439 0.930 . S
C408 N405 1.279 . S
C408 C407 1.358 . S
C408 H411 0.930 . S
C409 C406 1.348 1_655 S
C409 C407 1.356 1_655 S
H410 C404 0.930 . S
H411 C408 0.930 . S
O412 Li352 1.956 . S
O412 Li353 1.970 . S
O412 Li354 1.961 . S
O412 C356 1.325 . S
O413 Li352 1.970 . S
O413 Li353 1.956 . S
O413 Li355 1.961 . S
O413 C362 1.325 . S
O414 Li352 1.961 . S
O414 Li354 1.956 . S
O414 Li355 1.970 . S
O414 C384 1.325 . S
O415 Li353 1.961 . S
O415 Li354 1.970 . S
O415 Li355 1.956 . S
O415 C390 1.325 . S
H416 C358 0.929 . S
H417 C359 0.930 . S
H418 C360 0.930 . S
H419 C361 0.930 . S
H420 C363 0.930 . S
H421 C365 0.929 . S
H422 C366 0.930 . S
H423 C367 0.930 . S
H424 C370 0.930 . S
H425 C373 0.929 . S
H426 C378 0.929 . S
H427 C379 0.930 . S
H428 C386 0.929 . S
H429 C387 0.930 . S
H430 C388 0.930 . S
H431 C389 0.930 . S
H432 C391 0.929 . S
H433 C392 0.930 . S
H434 C393 0.930 . S
H435 C394 0.930 . S
H436 C398 0.929 . S
H437 C400 0.930 . S
H438 C406 0.921 1_655 S
H439 C407 0.930 . S
Li440 N457 1.990 . S
Li440 O500 1.956 . S
Li440 O501 1.970 . S
Li440 O502 1.961 . S
Li441 N465 1.990 . S
Li441 O500 1.970 . S
Li441 O501 1.956 . S
Li441 O503 1.961 . S
Li442 N487 1.990 . S
Li442 O500 1.961 . S
Li442 O502 1.956 . S
Li442 O503 1.970 . S
Li443 N493 1.990 . S
Li443 O501 1.961 . S
Li443 O502 1.970 . S
Li443 O503 1.956 . S
C444 C446 1.348 . S
C444 C447 1.356 . S
C444 O500 1.325 . S
N445 C448 1.314 . S
N445 C449 1.279 . S
C446 C444 1.348 . S
C446 C448 1.353 . S
C446 H504 0.929 . S
C447 C444 1.356 . S
C447 C449 1.358 . S
C447 H505 0.930 . S
C448 N445 1.314 . S
C448 C446 1.353 . S
C448 H506 0.930 . S
C449 N445 1.279 . S
C449 C447 1.358 . S
C449 H507 0.930 . S
C450 C453 1.348 . S
C450 C454 1.356 . S
C450 O501 1.325 . S
C451 N452 1.279 . S
C451 C454 1.358 . S
C451 H508 0.930 . S
N452 C451 1.279 . S
N452 C455 1.314 . S
C453 C450 1.348 . S
C453 C455 1.353 . S
C453 H509 0.929 . S
C454 C450 1.356 . S
C454 C451 1.358 . S
C454 H510 0.930 . S
C455 N452 1.314 . S
C455 C453 1.353 . S
C455 H511 0.930 . S
C456 N457 1.314 . S
C456 C461 1.353 . S
C456 H462 0.930 . S
N457 Li440 1.990 . S
N457 C456 1.314 . S
N457 C459 1.279 . S
C458 C459 1.358 . S
C458 C460 1.356 . S
C458 H512 0.930 . S
C459 N457 1.279 . S
C459 C458 1.358 . S
C459 H463 0.930 . S
C460 C458 1.356 . S
C460 C461 1.348 . S
C461 C456 1.353 . S
C461 C460 1.348 . S
C461 H513 0.929 . S
H462 C456 0.930 . S
H463 C459 0.930 . S
C464 N465 1.314 . S
C464 C466 1.353 . S
C464 H470 0.930 . S
N465 Li441 1.990 . S
N465 C464 1.314 . S
N465 C468 1.279 . S
C466 C464 1.353 . S
C466 C469 1.348 . S
C466 H514 0.929 . S
C467 C468 1.358 . S
C467 C469 1.356 . S
C467 H515 0.930 . S
C468 N465 1.279 . S
C468 C467 1.358 . S
C468 H471 0.930 . S
C469 C466 1.348 . S
C469 C467 1.356 . S
H470 C464 0.930 . S
H471 C468 0.930 . S
C472 C474 1.348 . S
C472 C475 1.356 . S
C472 O502 1.325 . S
N473 C476 1.314 . S
N473 C477 1.279 . S
C474 C472 1.348 . S
C474 C476 1.353 . S
C474 H516 0.929 . S
C475 C472 1.356 . S
C475 C477 1.358 . S
C475 H517 0.930 . S
C476 N473 1.314 . S
C476 C474 1.353 . S
C476 H518 0.930 . S
C477 N473 1.279 . S
C477 C475 1.358 . S
C477 H519 0.930 . S
C478 C479 1.348 . S
C478 C480 1.356 . S
C478 O503 1.325 . S
C479 C478 1.348 . S
C479 C481 1.353 . S
C479 H520 0.929 . S
C480 C478 1.356 . S
C480 C482 1.358 . S
C480 H521 0.930 . S
C481 C479 1.353 . S
C481 N483 1.314 . S
C481 H522 0.930 . S
C482 C480 1.358 . S
C482 N483 1.279 . S
C482 H523 0.930 . S
N483 C481 1.314 . S
N483 C482 1.279 . S
C484 C486 1.353 . S
C484 N487 1.314 . S
C484 H490 0.930 . S
C485 N487 1.279 . S
C485 C488 1.358 . S
C485 H491 0.930 . S
C486 C484 1.353 . S
C486 C489 1.348 . S
C486 H524 0.929 . S
N487 Li442 1.990 . S
N487 C484 1.314 . S
N487 C485 1.279 . S
C488 C485 1.358 . S
C488 C489 1.356 . S
C488 H525 0.930 . S
C489 C486 1.348 . S
C489 C488 1.356 . S
H490 C484 0.930 . S
H491 C485 0.930 . S
C492 N493 1.314 . S
C492 C494 1.353 . S
C492 H498 0.930 . S
N493 Li443 1.990 . S
N493 C492 1.314 . S
N493 C496 1.279 . S
C494 C492 1.353 . S
C494 C497 1.348 . S
C494 H526 0.929 . S
C495 C496 1.358 . S
C495 C497 1.356 . S
C495 H527 0.930 . S
C496 N493 1.279 . S
C496 C495 1.358 . S
C496 H499 0.930 . S
C497 C494 1.348 . S
C497 C495 1.356 . S
H498 C492 0.930 . S
H499 C496 0.930 . S
O500 Li440 1.956 . S
O500 Li441 1.970 . S
O500 Li442 1.961 . S
O500 C444 1.325 . S
O501 Li440 1.970 . S
O501 Li441 1.956 . S
O501 Li443 1.961 . S
O501 C450 1.325 . S
O502 Li440 1.961 . S
O502 Li442 1.956 . S
O502 Li443 1.970 . S
O502 C472 1.325 . S
O503 Li441 1.961 . S
O503 Li442 1.970 . S
O503 Li443 1.956 . S
O503 C478 1.325 . S
H504 C446 0.929 . S
H505 C447 0.930 . S
H506 C448 0.930 . S
H507 C449 0.930 . S
H508 C451 0.930 . S
H509 C453 0.929 . S
H510 C454 0.930 . S
H511 C455 0.930 . S
H512 C458 0.930 . S
H513 C461 0.929 . S
H514 C466 0.929 . S
H515 C467 0.930 . S
H516 C474 0.929 . S
H517 C475 0.930 . S
H518 C476 0.930 . S
H519 C477 0.930 . S
H520 C479 0.929 . S
H521 C480 0.930 . S
H522 C481 0.930 . S
H523 C482 0.930 . S
H524 C486 0.929 . S
H525 C488 0.930 . S
H526 C494 0.929 . S
H527 C495 0.930 . S
Li528 N545 1.990 . S
Li528 O588 1.956 . S
Li528 O589 1.970 . S
Li528 O590 1.961 . S
Li529 N553 1.990 . S
Li529 O588 1.970 . S
Li529 O589 1.956 . S
Li529 O591 1.961 . S
Li530 N575 1.990 . S
Li530 O588 1.961 . S
Li530 O590 1.956 . S
Li530 O591 1.970 . S
Li531 N581 1.990 . S
Li531 O589 1.961 . S
Li531 O590 1.970 . S
Li531 O591 1.956 . S
C532 C534 1.348 . S
C532 C535 1.356 . S
C532 O588 1.325 . S
N533 C536 1.314 . S
N533 C537 1.279 . S
C534 C532 1.348 . S
C534 C536 1.353 . S
C534 H592 0.929 . S
C535 C532 1.356 . S
C535 C537 1.358 . S
C535 H593 0.930 . S
C536 N533 1.314 . S
C536 C534 1.353 . S
C536 H594 0.930 . S
C537 N533 1.279 . S
C537 C535 1.358 . S
C537 H595 0.930 . S
C538 C541 1.348 . S
C538 C542 1.356 . S
C538 O589 1.325 . S
C539 N540 1.279 . S
C539 C542 1.358 . S
C539 H596 0.930 . S
N540 C539 1.279 . S
N540 C543 1.314 . S
C541 C538 1.348 . S
C541 C543 1.353 . S
C541 H597 0.929 . S
C542 C538 1.356 . S
C542 C539 1.358 . S
C542 H598 0.930 . S
C543 N540 1.314 . S
C543 C541 1.353 . S
C543 H599 0.930 . S
C544 N545 1.314 . S
C544 C549 1.353 . S
C544 H550 0.930 . S
N545 Li528 1.990 . S
N545 C544 1.314 . S
N545 C547 1.279 . S
C546 C547 1.358 . S
C546 C548 1.356 . S
C546 H600 0.930 . S
C547 N545 1.279 . S
C547 C546 1.358 . S
C547 H551 0.930 . S
C548 C546 1.356 . S
C548 C549 1.348 . S
C549 C544 1.353 . S
C549 C548 1.348 . S
C549 H601 0.929 . S
H550 C544 0.930 . S
H551 C547 0.930 . S
C552 N553 1.314 . S
C552 C554 1.353 . S
C552 H558 0.930 . S
N553 Li529 1.990 . S
N553 C552 1.314 . S
N553 C556 1.279 . S
C554 C552 1.353 . S
C554 C557 1.348 . S
C554 H602 0.929 . S
C555 C556 1.358 . S
C555 C557 1.356 . S
C555 H603 0.930 . S
C556 N553 1.279 . S
C556 C555 1.358 . S
C556 H559 0.930 . S
C557 C554 1.348 . S
C557 C555 1.356 . S
H558 C552 0.930 . S
H559 C556 0.930 . S
C560 C562 1.348 . S
C560 C563 1.356 . S
C560 O590 1.325 . S
N561 C564 1.314 . S
N561 C565 1.279 . S
C562 C560 1.348 . S
C562 C564 1.353 . S
C562 H604 0.929 . S
C563 C560 1.356 . S
C563 C565 1.358 . S
C563 H605 0.930 . S
C564 N561 1.314 . S
C564 C562 1.353 . S
C564 H606 0.930 . S
C565 N561 1.279 . S
C565 C563 1.358 . S
C565 H607 0.930 . S
C566 C567 1.348 . S
C566 C568 1.356 . S
C566 O591 1.325 . S
C567 C566 1.348 . S
C567 C569 1.353 . S
C567 H608 0.929 . S
C568 C566 1.356 . S
C568 C570 1.358 . S
C568 H609 0.930 . S
C569 C567 1.353 . S
C569 N571 1.314 . S
C569 H610 0.930 . S
C570 C568 1.358 . S
C570 N571 1.279 . S
C570 H611 0.930 . S
N571 C569 1.314 . S
N571 C570 1.279 . S
C572 C574 1.353 . S
C572 N575 1.314 . S
C572 H578 0.930 . S
C573 N575 1.279 . S
C573 C576 1.358 . S
C573 H579 0.930 . S
C574 C572 1.353 . S
C574 C577 1.348 . S
C574 H612 0.929 . S
N575 Li530 1.990 . S
N575 C572 1.314 . S
N575 C573 1.279 . S
C576 C573 1.358 . S
C576 C577 1.356 . S
C576 H613 0.930 . S
C577 C574 1.348 . S
C577 C576 1.356 . S
H578 C572 0.930 . S
H579 C573 0.930 . S
C580 N581 1.314 . S
C580 C582 1.353 . S
C580 H586 0.930 . S
N581 Li531 1.990 . S
N581 C580 1.314 . S
N581 C584 1.279 . S
C582 C580 1.353 . S
C582 C585 1.348 . S
C582 H614 0.929 . S
C583 C584 1.358 . S
C583 C585 1.356 . S
C583 H615 0.930 . S
C584 N581 1.279 . S
C584 C583 1.358 . S
C584 H587 0.930 . S
C585 C582 1.348 . S
C585 C583 1.356 . S
H586 C580 0.930 . S
H587 C584 0.930 . S
O588 Li528 1.956 . S
O588 Li529 1.970 . S
O588 Li530 1.961 . S
O588 C532 1.325 . S
O589 Li528 1.970 . S
O589 Li529 1.956 . S
O589 Li531 1.961 . S
O589 C538 1.325 . S
O590 Li528 1.961 . S
O590 Li530 1.956 . S
O590 Li531 1.970 . S
O590 C560 1.325 . S
O591 Li529 1.961 . S
O591 Li530 1.970 . S
O591 Li531 1.956 . S
O591 C566 1.325 . S
H592 C534 0.929 . S
H593 C535 0.930 . S
H594 C536 0.930 . S
H595 C537 0.930 . S
H596 C539 0.930 . S
H597 C541 0.929 . S
H598 C542 0.930 . S
H599 C543 0.930 . S
H600 C546 0.930 . S
H601 C549 0.929 . S
H602 C554 0.929 . S
H603 C555 0.930 . S
H604 C562 0.929 . S
H605 C563 0.930 . S
H606 C564 0.930 . S
H607 C565 0.930 . S
H608 C567 0.929 . S
H609 C568 0.930 . S
H610 C569 0.930 . S
H611 C570 0.930 . S
H612 C574 0.929 . S
H613 C576 0.930 . S
H614 C582 0.929 . S
H615 C583 0.930 . S
Li616 N633 1.990 . S
Li616 O676 1.956 1_455 S
Li616 O677 1.970 . S
Li616 O678 1.961 . S
Li617 N641 1.990 . S
Li617 O676 1.970 . S
Li617 O677 1.956 1_655 S
Li617 O679 1.961 1_655 S
Li618 N663 1.990 . S
Li618 O676 1.961 1_455 S
Li618 O678 1.956 . S
Li618 O679 1.970 . S
Li619 N669 1.990 . S
Li619 O677 1.961 . S
Li619 O678 1.970 . S
Li619 O679 1.956 . S
C620 C622 1.348 . S
C620 C623 1.356 . S
C620 O676 1.325 . S
N621 C624 1.314 . S
N621 C625 1.279 . S
C622 C620 1.348 . S
C622 C624 1.353 . S
C622 H680 0.929 . S
C623 C620 1.356 . S
C623 C625 1.358 . S
C623 H681 0.930 . S
C624 N621 1.314 . S
C624 C622 1.353 . S
C624 H682 0.930 . S
C625 N621 1.279 . S
C625 C623 1.358 . S
C625 H683 0.930 . S
C626 C629 1.348 . S
C626 C630 1.356 . S
C626 O677 1.325 . S
C627 N628 1.279 . S
C627 C630 1.358 . S
C627 H684 0.930 . S
N628 C627 1.279 . S
N628 C631 1.314 . S
C629 C626 1.348 . S
C629 C631 1.353 . S
C629 H685 0.929 . S
C630 C626 1.356 . S
C630 C627 1.358 . S
C630 H686 0.930 . S
C631 N628 1.314 . S
C631 C629 1.353 . S
C631 H687 0.930 . S
C632 N633 1.314 . S
C632 C637 1.353 . S
C632 H638 0.930 . S
N633 Li616 1.990 . S
N633 C632 1.314 . S
N633 C635 1.279 . S
C634 C635 1.358 . S
C634 C636 1.356 . S
C634 H688 0.930 1_455 S
C635 N633 1.279 . S
C635 C634 1.358 . S
C635 H639 0.930 1_455 S
C636 C634 1.356 . S
C636 C637 1.348 . S
C637 C632 1.353 . S
C637 C636 1.348 . S
C637 H689 0.929 . S
H638 C632 0.930 . S
H639 C635 0.930 1_655 S
C640 N641 1.314 . S
C640 C642 1.353 . S
C640 H646 0.930 . S
N641 Li617 1.990 . S
N641 C640 1.314 . S
N641 C644 1.279 . S
C642 C640 1.353 . S
C642 C645 1.348 . S
C642 H690 0.929 . S
C643 C644 1.358 . S
C643 C645 1.356 . S
C643 H691 0.930 . S
C644 N641 1.279 . S
C644 C643 1.358 . S
C644 H647 0.930 . S
C645 C642 1.348 . S
C645 C643 1.356 . S
H646 C640 0.930 . S
H647 C644 0.930 . S
C648 C650 1.348 . S
C648 C651 1.356 . S
C648 O678 1.325 . S
N649 C652 1.314 . S
N649 C653 1.279 . S
C650 C648 1.348 . S
C650 C652 1.353 . S
C650 H692 0.929 . S
C651 C648 1.356 . S
C651 C653 1.358 . S
C651 H693 0.930 . S
C652 N649 1.314 . S
C652 C650 1.353 . S
C652 H694 0.930 . S
C653 N649 1.279 . S
C653 C651 1.358 . S
C653 H695 0.930 . S
C654 C655 1.348 . S
C654 C656 1.356 . S
C654 O679 1.325 . S
C655 C654 1.348 . S
C655 C657 1.353 . S
C655 H696 0.929 . S
C656 C654 1.356 . S
C656 C658 1.358 1_455 S
C656 H697 0.931 . S
C657 C655 1.353 . S
C657 N659 1.314 . S
C657 H698 0.930 . S
C658 C656 1.358 1_655 S
C658 N659 1.281 1_655 S
C658 H699 0.929 . S
N659 C657 1.314 . S
N659 C658 1.281 1_455 S
C660 C662 1.353 . S
C660 N663 1.314 1_655 S
C660 H666 0.930 . S
C661 N663 1.279 . S
C661 C664 1.358 . S
C661 H667 0.930 . S
C662 C660 1.353 . S
C662 C665 1.348 1_655 S
C662 H700 0.929 . S
N663 Li618 1.990 . S
N663 C660 1.314 1_455 S
N663 C661 1.279 . S
C664 C661 1.358 . S
C664 C665 1.356 . S
C664 H701 0.930 . S
C665 C662 1.348 1_455 S
C665 C664 1.356 . S
H666 C660 0.930 . S
H667 C661 0.930 . S
C668 N669 1.314 . S
C668 C670 1.353 . S
C668 H674 0.930 . S
N669 Li619 1.990 . S
N669 C668 1.314 . S
N669 C672 1.279 . S
C670 C668 1.353 . S
C670 C673 1.348 . S
C670 H702 0.929 . S
C671 C672 1.358 . S
C671 C673 1.356 . S
C671 H703 0.930 . S
C672 N669 1.279 . S
C672 C671 1.358 . S
C672 H675 0.930 . S
C673 C670 1.348 . S
C673 C671 1.356 . S
H674 C668 0.930 . S
H675 C672 0.930 . S
O676 Li616 1.956 1_655 S
O676 Li617 1.970 . S
O676 Li618 1.961 1_655 S
O676 C620 1.325 . S
O677 Li616 1.970 . S
O677 Li617 1.956 1_455 S
O677 Li619 1.961 . S
O677 C626 1.325 . S
O678 Li616 1.961 . S
O678 Li618 1.956 . S
O678 Li619 1.970 . S
O678 C648 1.325 . S
O679 Li617 1.961 1_455 S
O679 Li618 1.970 . S
O679 Li619 1.956 . S
O679 C654 1.325 . S
H680 C622 0.929 . S
H681 C623 0.930 . S
H682 C624 0.930 . S
H683 C625 0.930 . S
H684 C627 0.930 . S
H685 C629 0.929 . S
H686 C630 0.930 . S
H687 C631 0.930 . S
H688 C634 0.930 1_655 S
H689 C637 0.929 . S
H690 C642 0.929 . S
H691 C643 0.930 . S
H692 C650 0.929 . S
H693 C651 0.930 . S
H694 C652 0.930 . S
H695 C653 0.930 . S
H696 C655 0.929 . S
H697 C656 0.931 . S
H698 C657 0.930 . S
H699 C658 0.929 . S
H700 C662 0.929 . S
H701 C664 0.930 . S
H702 C670 0.929 . S
H703 C671 0.930 . S
Li704 N721 1.990 . S
Li704 O764 1.956 1_545 S
Li704 O765 1.970 . S
Li704 O766 1.961 . S
Li705 N729 1.990 . S
Li705 O764 1.970 . S
Li705 O765 1.956 1_565 S
Li705 O767 1.961 . S
Li706 N751 1.990 . S
Li706 O764 1.961 1_545 S
Li706 O766 1.956 . S
Li706 O767 1.970 1_545 S
Li707 N757 1.990 . S
Li707 O765 1.961 . S
Li707 O766 1.970 . S
Li707 O767 1.956 1_545 S
C708 C710 1.348 . S
C708 C711 1.356 . S
C708 O764 1.325 . S
N709 C712 1.314 . S
N709 C713 1.279 . S
C710 C708 1.348 . S
C710 C712 1.353 . S
C710 H768 0.929 . S
C711 C708 1.356 . S
C711 C713 1.358 . S
C711 H769 0.930 . S
C712 N709 1.314 . S
C712 C710 1.353 . S
C712 H770 0.930 . S
C713 N709 1.279 . S
C713 C711 1.358 . S
C713 H771 0.930 . S
C714 C717 1.338 1_545 S
C714 C718 1.356 . S
C714 O765 1.325 . S
C715 N716 1.279 . S
C715 C718 1.358 . S
C715 H772 0.930 . S
N716 C715 1.279 . S
N716 C719 1.304 1_545 S
C717 C714 1.338 1_565 S
C717 C719 1.353 . S
C717 H773 0.939 . S
C718 C714 1.356 . S
C718 C715 1.358 . S
C718 H774 0.930 . S
C719 N716 1.304 1_565 S
C719 C717 1.353 . S
C719 H775 0.943 . S
C720 N721 1.314 . S
C720 C725 1.353 . S
C720 H726 0.930 . S
N721 Li704 1.990 . S
N721 C720 1.314 . S
N721 C723 1.279 1_545 S
C722 C723 1.362 1_545 S
C722 C724 1.374 . S
C722 H776 0.908 1_545 S
C723 N721 1.279 1_565 S
C723 C722 1.362 1_565 S
C723 H727 0.930 . S
C724 C722 1.374 . S
C724 C725 1.348 . S
C725 C720 1.353 . S
C725 C724 1.348 . S
C725 H777 0.929 . S
H726 C720 0.930 . S
H727 C723 0.930 . S
C728 N729 1.314 . S
C728 C730 1.353 . S
C728 H734 0.930 . S
N729 Li705 1.990 . S
N729 C728 1.314 . S
N729 C732 1.279 . S
C730 C728 1.353 . S
C730 C733 1.348 . S
C730 H778 0.929 . S
C731 C732 1.358 . S
C731 C733 1.356 . S
C731 H779 0.930 . S
C732 N729 1.279 . S
C732 C731 1.358 . S
C732 H735 0.930 . S
C733 C730 1.348 . S
C733 C731 1.356 . S
H734 C728 0.930 . S
H735 C732 0.930 . S
C736 C738 1.348 . S
C736 C739 1.356 . S
C736 O766 1.325 . S
N737 C740 1.314 . S
N737 C741 1.279 . S
C738 C736 1.348 . S
C738 C740 1.353 . S
C738 H780 0.929 . S
C739 C736 1.356 . S
C739 C741 1.358 . S
C739 H781 0.930 . S
C740 N737 1.314 . S
C740 C738 1.353 . S
C740 H782 0.930 . S
C741 N737 1.279 . S
C741 C739 1.358 . S
C741 H783 0.930 . S
C742 C743 1.367 . S
C742 C744 1.356 . S
C742 O767 1.325 . S
C743 C742 1.367 . S
C743 C745 1.347 . S
C743 H784 0.919 1_565 S
C744 C742 1.356 . S
C744 C746 1.358 . S
C744 H785 0.930 . S
C745 C743 1.347 . S
C745 N747 1.314 . S
C745 H786 0.930 . S
C746 C744 1.358 . S
C746 N747 1.279 . S
C746 H787 0.930 . S
N747 C745 1.314 . S
N747 C746 1.279 . S
C748 C750 1.353 . S
C748 N751 1.314 1_565 S
C748 H754 0.930 . S
C749 N751 1.279 . S
C749 C752 1.358 . S
C749 H755 0.930 . S
C750 C748 1.353 . S
C750 C753 1.348 1_565 S
C750 H788 0.929 . S
N751 Li706 1.990 . S
N751 C748 1.314 1_545 S
N751 C749 1.279 . S
C752 C749 1.358 . S
C752 C753 1.356 . S
C752 H789 0.930 . S
C753 C750 1.348 1_545 S
C753 C752 1.356 . S
H754 C748 0.930 . S
H755 C749 0.930 . S
C756 N757 1.314 . S
C756 C758 1.353 . S
C756 H762 0.930 . S
N757 Li707 1.990 . S
N757 C756 1.314 . S
N757 C760 1.279 . S
C758 C756 1.353 . S
C758 C761 1.348 . S
C758 H790 0.929 . S
C759 C760 1.358 . S
C759 C761 1.356 . S
C759 H791 0.930 . S
C760 N757 1.279 . S
C760 C759 1.358 . S
C760 H763 0.930 . S
C761 C758 1.348 . S
C761 C759 1.356 . S
H762 C756 0.930 . S
H763 C760 0.930 . S
O764 Li704 1.956 1_565 S
O764 Li705 1.970 . S
O764 Li706 1.961 1_565 S
O764 C708 1.325 . S
O765 Li704 1.970 . S
O765 Li705 1.956 1_545 S
O765 Li707 1.961 . S
O765 C714 1.325 . S
O766 Li704 1.961 . S
O766 Li706 1.956 . S
O766 Li707 1.970 . S
O766 C736 1.325 . S
O767 Li705 1.961 . S
O767 Li706 1.970 1_565 S
O767 Li707 1.956 1_565 S
O767 C742 1.325 . S
H768 C710 0.929 . S
H769 C711 0.930 . S
H770 C712 0.930 . S
H771 C713 0.930 . S
H772 C715 0.930 . S
H773 C717 0.939 . S
H774 C718 0.930 . S
H775 C719 0.943 . S
H776 C722 0.908 1_565 S
H777 C725 0.929 . S
H778 C730 0.929 . S
H779 C731 0.930 . S
H780 C738 0.929 . S
H781 C739 0.930 . S
H782 C740 0.930 . S
H783 C741 0.930 . S
H784 C743 0.919 1_545 S
H785 C744 0.930 . S
H786 C745 0.930 . S
H787 C746 0.930 . S
H788 C750 0.929 . S
H789 C752 0.930 . S
H790 C758 0.929 . S
H791 C759 0.930 . S
Li792 N809 1.990 . S
Li792 O852 1.956 . S
Li792 O853 1.970 . S
Li792 O854 1.961 . S
Li793 N817 1.990 . S
Li793 O852 1.970 . S
Li793 O853 1.956 . S
Li793 O855 1.961 . S
Li794 N839 1.990 . S
Li794 O852 1.961 . S
Li794 O854 1.956 . S
Li794 O855 1.970 . S
Li795 N845 1.990 . S
Li795 O853 1.961 . S
Li795 O854 1.970 . S
Li795 O855 1.956 . S
C796 C798 1.348 . S
C796 C799 1.356 . S
C796 O852 1.325 . S
N797 C800 1.314 . S
N797 C801 1.279 . S
C798 C796 1.348 . S
C798 C800 1.353 . S
C798 H856 0.929 . S
C799 C796 1.356 . S
C799 C801 1.358 . S
C799 H857 0.930 . S
C800 N797 1.314 . S
C800 C798 1.353 . S
C800 H858 0.930 . S
C801 N797 1.279 . S
C801 C799 1.358 . S
C801 H859 0.930 . S
C802 C805 1.348 . S
C802 C806 1.356 . S
C802 O853 1.325 . S
C803 N804 1.279 . S
C803 C806 1.358 . S
C803 H860 0.930 . S
N804 C803 1.279 . S
N804 C807 1.314 . S
C805 C802 1.348 . S
C805 C807 1.353 . S
C805 H861 0.929 . S
C806 C802 1.356 . S
C806 C803 1.358 . S
C806 H862 0.930 . S
C807 N804 1.314 . S
C807 C805 1.353 . S
C807 H863 0.930 . S
C808 N809 1.314 . S
C808 C813 1.353 . S
C808 H814 0.930 . S
N809 Li792 1.990 . S
N809 C808 1.314 . S
N809 C811 1.279 . S
C810 C811 1.358 . S
C810 C812 1.356 . S
C810 H864 0.930 . S
C811 N809 1.279 . S
C811 C810 1.358 . S
C811 H815 0.930 . S
C812 C810 1.356 . S
C812 C813 1.348 . S
C813 C808 1.353 . S
C813 C812 1.348 . S
C813 H865 0.929 . S
H814 C808 0.930 . S
H815 C811 0.930 . S
C816 N817 1.314 . S
C816 C818 1.353 . S
C816 H822 0.930 . S
N817 Li793 1.990 . S
N817 C816 1.314 . S
N817 C820 1.279 . S
C818 C816 1.353 . S
C818 C821 1.348 . S
C818 H866 0.929 . S
C819 C820 1.358 . S
C819 C821 1.356 . S
C819 H867 0.930 . S
C820 N817 1.279 . S
C820 C819 1.358 . S
C820 H823 0.930 . S
C821 C818 1.348 . S
C821 C819 1.356 . S
H822 C816 0.930 . S
H823 C820 0.930 . S
C824 C826 1.348 . S
C824 C827 1.356 . S
C824 O854 1.325 . S
N825 C828 1.314 . S
N825 C829 1.279 . S
C826 C824 1.348 . S
C826 C828 1.353 . S
C826 H868 0.929 . S
C827 C824 1.356 . S
C827 C829 1.358 . S
C827 H869 0.930 . S
C828 N825 1.314 . S
C828 C826 1.353 . S
C828 H870 0.930 . S
C829 N825 1.279 . S
C829 C827 1.358 . S
C829 H871 0.930 . S
C830 C831 1.348 . S
C830 C832 1.356 . S
C830 O855 1.325 . S
C831 C830 1.348 . S
C831 C833 1.353 . S
C831 H872 0.929 . S
C832 C830 1.356 . S
C832 C834 1.358 . S
C832 H873 0.930 . S
C833 C831 1.353 . S
C833 N835 1.314 . S
C833 H874 0.930 . S
C834 C832 1.358 . S
C834 N835 1.279 . S
C834 H875 0.930 . S
N835 C833 1.314 . S
N835 C834 1.279 . S
C836 C838 1.353 . S
C836 N839 1.314 . S
C836 H842 0.930 . S
C837 N839 1.279 . S
C837 C840 1.358 . S
C837 H843 0.930 . S
C838 C836 1.353 . S
C838 C841 1.348 . S
C838 H876 0.929 . S
N839 Li794 1.990 . S
N839 C836 1.314 . S
N839 C837 1.279 . S
C840 C837 1.358 . S
C840 C841 1.356 . S
C840 H877 0.930 . S
C841 C838 1.348 . S
C841 C840 1.356 . S
H842 C836 0.930 . S
H843 C837 0.930 . S
C844 N845 1.314 . S
C844 C846 1.353 . S
C844 H850 0.930 . S
N845 Li795 1.990 . S
N845 C844 1.314 . S
N845 C848 1.279 . S
C846 C844 1.353 . S
C846 C849 1.348 . S
C846 H878 0.929 . S
C847 C848 1.358 . S
C847 C849 1.356 . S
C847 H879 0.930 . S
C848 N845 1.279 . S
C848 C847 1.358 . S
C848 H851 0.930 . S
C849 C846 1.348 . S
C849 C847 1.356 . S
H850 C844 0.930 . S
H851 C848 0.930 . S
O852 Li792 1.956 . S
O852 Li793 1.970 . S
O852 Li794 1.961 . S
O852 C796 1.325 . S
O853 Li792 1.970 . S
O853 Li793 1.956 . S
O853 Li795 1.961 . S
O853 C802 1.325 . S
O854 Li792 1.961 . S
O854 Li794 1.956 . S
O854 Li795 1.970 . S
O854 C824 1.325 . S
O855 Li793 1.961 . S
O855 Li794 1.970 . S
O855 Li795 1.956 . S
O855 C830 1.325 . S
H856 C798 0.929 . S
H857 C799 0.930 . S
H858 C800 0.930 . S
H859 C801 0.930 . S
H860 C803 0.930 . S
H861 C805 0.929 . S
H862 C806 0.930 . S
H863 C807 0.930 . S
H864 C810 0.930 . S
H865 C813 0.929 . S
H866 C818 0.929 . S
H867 C819 0.930 . S
H868 C826 0.929 . S
H869 C827 0.930 . S
H870 C828 0.930 . S
H871 C829 0.930 . S
H872 C831 0.929 . S
H873 C832 0.930 . S
H874 C833 0.930 . S
H875 C834 0.930 . S
H876 C838 0.929 . S
H877 C840 0.930 . S
H878 C846 0.929 . S
H879 C847 0.930 . S
Li880 N897 1.990 . S
Li880 O940 1.956 . S
Li880 O941 1.970 . S
Li880 O942 1.961 . S
Li881 N905 1.990 . S
Li881 O940 1.970 . S
Li881 O941 1.956 . S
Li881 O943 1.961 1_545 S
Li882 N927 1.990 . S
Li882 O940 1.961 1_565 S
Li882 O942 1.956 1_565 S
Li882 O943 1.970 . S
Li883 N933 1.990 1_545 S
Li883 O941 1.961 . S
Li883 O942 1.970 . S
Li883 O943 1.956 1_545 S
C884 C886 1.348 . S
C884 C887 1.356 . S
C884 O940 1.325 . S
N885 C888 1.314 . S
N885 C889 1.279 . S
C886 C884 1.348 . S
C886 C888 1.353 . S
C886 H944 0.929 . S
C887 C884 1.356 . S
C887 C889 1.358 . S
C887 H945 0.930 . S
C888 N885 1.314 . S
C888 C886 1.353 . S
C888 H946 0.930 . S
C889 N885 1.279 . S
C889 C887 1.358 . S
C889 H947 0.930 . S
C890 C893 1.348 . S
C890 C894 1.356 . S
C890 O941 1.325 . S
C891 N892 1.279 . S
C891 C894 1.358 . S
C891 H948 0.930 . S
N892 C891 1.279 . S
N892 C895 1.314 . S
C893 C890 1.348 . S
C893 C895 1.353 . S
C893 H949 0.929 . S
C894 C890 1.356 . S
C894 C891 1.358 . S
C894 H950 0.930 . S
C895 N892 1.314 . S
C895 C893 1.353 . S
C895 H951 0.930 . S
C896 N897 1.314 . S
C896 C901 1.353 . S
C896 H902 0.930 . S
N897 Li880 1.990 . S
N897 C896 1.314 . S
N897 C899 1.279 . S
C898 C899 1.358 . S
C898 C900 1.356 . S
C898 H952 0.930 . S
C899 N897 1.279 . S
C899 C898 1.358 . S
C899 H903 0.930 . S
C900 C898 1.356 . S
C900 C901 1.348 . S
C901 C896 1.353 . S
C901 C900 1.348 . S
C901 H953 0.929 . S
H902 C896 0.930 . S
H903 C899 0.930 . S
C904 N905 1.314 1_565 S
C904 C906 1.353 . S
C904 H910 0.930 . S
N905 Li881 1.990 . S
N905 C904 1.314 1_545 S
N905 C908 1.279 . S
C906 C904 1.353 . S
C906 C909 1.348 1_565 S
C906 H954 0.929 . S
C907 C908 1.358 . S
C907 C909 1.356 . S
C907 H955 0.930 . S
C908 N905 1.279 . S
C908 C907 1.358 . S
C908 H911 0.930 . S
C909 C906 1.348 1_545 S
C909 C907 1.356 . S
H910 C904 0.930 . S
H911 C908 0.930 . S
C912 C914 1.348 1_545 S
C912 C915 1.356 . S
C912 O942 1.325 . S
N913 C916 1.315 . S
N913 C917 1.279 . S
C914 C912 1.348 1_565 S
C914 C916 1.353 1_565 S
C914 H956 0.929 . S
C915 C912 1.356 . S
C915 C917 1.358 . S
C915 H957 0.930 . S
C916 N913 1.315 . S
C916 C914 1.353 1_545 S
C916 H958 0.929 1_545 S
C917 N913 1.279 . S
C917 C915 1.358 . S
C917 H959 0.930 . S
C918 C919 1.348 . S
C918 C920 1.356 . S
C918 O943 1.325 . S
C919 C918 1.348 . S
C919 C921 1.353 . S
C919 H960 0.929 . S
C920 C918 1.356 . S
C920 C922 1.358 . S
C920 H961 0.930 . S
C921 C919 1.353 . S
C921 N923 1.314 . S
C921 H962 0.930 . S
C922 C920 1.358 . S
C922 N923 1.279 . S
C922 H963 0.930 . S
N923 C921 1.314 . S
N923 C922 1.279 . S
C924 C926 1.353 . S
C924 N927 1.314 . S
C924 H930 0.930 . S
C925 N927 1.279 . S
C925 C928 1.358 . S
C925 H931 0.930 . S
C926 C924 1.353 . S
C926 C929 1.348 . S
C926 H964 0.929 . S
N927 Li882 1.990 . S
N927 C924 1.314 . S
N927 C925 1.279 . S
C928 C925 1.358 . S
C928 C929 1.356 . S
C928 H965 0.930 . S
C929 C926 1.348 . S
C929 C928 1.356 . S
H930 C924 0.930 . S
H931 C925 0.930 . S
C932 N933 1.314 1_545 S
C932 C934 1.353 . S
C932 H938 0.930 . S
N933 Li883 1.990 1_565 S
N933 C932 1.314 1_565 S
N933 C936 1.279 . S
C934 C932 1.353 . S
C934 C937 1.348 1_545 S
C934 H966 0.929 . S
C935 C936 1.358 . S
C935 C937 1.356 . S
C935 H967 0.930 . S
C936 N933 1.279 . S
C936 C935 1.358 . S
C936 H939 0.930 . S
C937 C934 1.348 1_565 S
C937 C935 1.356 . S
H938 C932 0.930 . S
H939 C936 0.930 . S
O940 Li880 1.956 . S
O940 Li881 1.970 . S
O940 Li882 1.961 1_545 S
O940 C884 1.325 . S
O941 Li880 1.970 . S
O941 Li881 1.956 . S
O941 Li883 1.961 . S
O941 C890 1.325 . S
O942 Li880 1.961 . S
O942 Li882 1.956 1_545 S
O942 Li883 1.970 . S
O942 C912 1.325 . S
O943 Li881 1.961 1_565 S
O943 Li882 1.970 . S
O943 Li883 1.956 1_565 S
O943 C918 1.325 . S
H944 C886 0.929 . S
H945 C887 0.930 . S
H946 C888 0.930 . S
H947 C889 0.930 . S
H948 C891 0.930 . S
H949 C893 0.929 . S
H950 C894 0.930 . S
H951 C895 0.930 . S
H952 C898 0.930 . S
H953 C901 0.929 . S
H954 C906 0.929 . S
H955 C907 0.930 . S
H956 C914 0.929 . S
H957 C915 0.930 . S
H958 C916 0.929 1_565 S
H959 C917 0.930 . S
H960 C919 0.929 . S
H961 C920 0.930 . S
H962 C921 0.930 . S
H963 C922 0.930 . S
H964 C926 0.929 . S
H965 C928 0.930 . S
H966 C934 0.929 . S
H967 C935 0.930 . S
Li968 N985 1.990 . S
Li968 O1028 1.956 . S
Li968 O1029 1.970 . S
Li968 O1030 1.961 1_554 S
Li969 N993 1.990 . S
Li969 O1028 1.970 . S
Li969 O1029 1.956 . S
Li969 O1031 1.961 . S
Li970 N1015 1.990 . S
Li970 O1028 1.961 . S
Li970 O1030 1.956 1_554 S
Li970 O1031 1.970 . S
Li971 N1021 1.990 . S
Li971 O1029 1.961 1_556 S
Li971 O1030 1.970 . S
Li971 O1031 1.956 1_556 S
C972 C974 1.348 . S
C972 C975 1.353 . S
C972 O1028 1.325 . S
N973 C976 1.314 1_545 S
N973 C977 1.279 . S
C974 C972 1.348 . S
C974 C976 1.353 . S
C974 H1032 0.929 . S
C975 C972 1.353 . S
C975 C977 1.360 1_565 S
C975 H1033 0.931 1_565 S
C976 N973 1.314 1_565 S
C976 C974 1.353 . S
C976 H1034 0.930 . S
C977 N973 1.279 . S
C977 C975 1.360 1_545 S
C977 H1035 0.930 . S
C978 C981 1.346 1_556 S
C978 C982 1.357 . S
C978 O1029 1.326 1_556 S
C979 N980 1.279 . S
C979 C982 1.358 . S
C979 H1036 0.930 . S
N980 C979 1.279 . S
N980 C983 1.314 1_556 S
C981 C978 1.346 1_554 S
C981 C983 1.353 . S
C981 H1037 0.929 . S
C982 C978 1.357 . S
C982 C979 1.358 . S
C982 H1038 0.930 . S
C983 N980 1.314 1_554 S
C983 C981 1.353 . S
C983 H1039 0.930 . S
C984 N985 1.314 1_556 S
C984 C989 1.353 . S
C984 H990 0.930 . S
N985 Li968 1.990 . S
N985 C984 1.314 1_554 S
N985 C987 1.279 . S
C986 C987 1.368 . S
C986 C988 1.366 . S
C986 H1040 0.924 1_565 S
C987 N985 1.279 . S
C987 C986 1.368 . S
C987 H991 0.930 . S
C988 C986 1.366 . S
C988 C989 1.367 1_554 S
C989 C984 1.353 . S
C989 C988 1.367 1_556 S
C989 H1041 0.929 . S
H990 C984 0.930 . S
H991 C987 0.930 . S
C992 N993 1.314 . S
C992 C994 1.353 . S
C992 H998 0.930 . S
N993 Li969 1.990 . S
N993 C992 1.314 . S
N993 C996 1.279 . S
C994 C992 1.353 . S
C994 C997 1.348 . S
C994 H1042 0.929 . S
C995 C996 1.358 . S
C995 C997 1.356 . S
C995 H1043 0.930 . S
C996 N993 1.279 . S
C996 C995 1.358 . S
C996 H999 0.930 . S
C997 C994 1.348 . S
C997 C995 1.356 . S
H998 C992 0.930 . S
H999 C996 0.930 . S
C1000 C1002 1.348 . S
C1000 C1003 1.356 . S
C1000 O1030 1.325 . S
N1001 C1004 1.314 . S
N1001 C1005 1.279 1_565 S
C1002 C1000 1.348 . S
C1002 C1004 1.353 . S
C1002 H1044 0.929 . S
C1003 C1000 1.356 . S
C1003 C1005 1.358 1_565 S
C1003 H1045 0.930 1_565 S
C1004 N1001 1.314 . S
C1004 C1002 1.353 . S
C1004 H1046 0.930 . S
C1005 N1001 1.279 1_545 S
C1005 C1003 1.358 1_545 S
C1005 H1047 0.930 . S
C1006 C1007 1.337 1_554 S
C1006 C1008 1.356 . S
C1006 O1031 1.325 . S
C1007 C1006 1.337 1_556 S
C1007 C1009 1.353 . S
C1007 H1048 0.942 . S
C1008 C1006 1.356 . S
C1008 C1010 1.358 . S
C1008 H1049 0.930 . S
C1009 C1007 1.353 . S
C1009 N1011 1.315 1_556 S
C1009 H1050 0.930 . S
C1010 C1008 1.358 . S
C1010 N1011 1.279 . S
C1010 H1051 0.930 . S
N1011 C1009 1.315 1_554 S
N1011 C1010 1.279 . S
C1012 C1014 1.353 1_565 S
C1012 N1015 1.314 . S
C1012 H1018 0.930 . S
C1013 N1015 1.279 1_556 S
C1013 C1016 1.355 1_565 S
C1013 H1019 0.930 . S
C1014 C1012 1.353 1_545 S
C1014 C1017 1.348 . S
C1014 H1052 0.929 . S
N1015 Li970 1.990 . S
N1015 C1012 1.314 . S
N1015 C1013 1.279 1_554 S
C1016 C1013 1.355 1_545 S
C1016 C1017 1.325 1_556 S
C1016 H1053 0.966 . S
C1017 C1014 1.348 . S
C1017 C1016 1.325 1_554 S
H1018 C1012 0.930 . S
H1019 C1013 0.930 . S
C1020 N1021 1.314 . S
C1020 C1022 1.353 . S
C1020 H1026 0.930 . S
N1021 Li971 1.990 . S
N1021 C1020 1.314 . S
N1021 C1024 1.279 . S
C1022 C1020 1.353 . S
C1022 C1025 1.348 . S
C1022 H1054 0.929 . S
C1023 C1024 1.358 . S
C1023 C1025 1.356 . S
C1023 H1055 0.930 . S
C1024 N1021 1.279 . S
C1024 C1023 1.358 . S
C1024 H1027 0.930 . S
C1025 C1022 1.348 . S
C1025 C1023 1.356 . S
H1026 C1020 0.930 . S
H1027 C1024 0.930 . S
O1028 Li968 1.956 . S
O1028 Li969 1.970 . S
O1028 Li970 1.961 . S
O1028 C972 1.325 . S
O1029 Li968 1.970 . S
O1029 Li969 1.956 . S
O1029 Li971 1.961 1_554 S
O1029 C978 1.326 1_554 S
O1030 Li968 1.961 1_556 S
O1030 Li970 1.956 1_556 S
O1030 Li971 1.970 . S
O1030 C1000 1.325 . S
O1031 Li969 1.961 . S
O1031 Li970 1.970 . S
O1031 Li971 1.956 1_554 S
O1031 C1006 1.325 . S
H1032 C974 0.929 . S
H1033 C975 0.931 1_545 S
H1034 C976 0.930 . S
H1035 C977 0.930 . S
H1036 C979 0.930 . S
H1037 C981 0.929 . S
H1038 C982 0.930 . S
H1039 C983 0.930 . S
H1040 C986 0.924 1_545 S
H1041 C989 0.929 . S
H1042 C994 0.929 . S
H1043 C995 0.930 . S
H1044 C1002 0.929 . S
H1045 C1003 0.930 1_545 S
H1046 C1004 0.930 . S
H1047 C1005 0.930 . S
H1048 C1007 0.942 . S
H1049 C1008 0.930 . S
H1050 C1009 0.930 . S
H1051 C1010 0.930 . S
H1052 C1014 0.929 . S
H1053 C1016 0.966 . S
H1054 C1022 0.929 . S
H1055 C1023 0.930 . S
Li1056 N1073 1.990 . S
Li1056 O1116 1.956 . S
Li1056 O1117 1.970 . S
Li1056 O1118 1.961 1_554 S
Li1057 N1081 1.990 . S
Li1057 O1116 1.970 . S
Li1057 O1117 1.956 . S
Li1057 O1119 1.961 . S
Li1058 N1103 1.990 . S
Li1058 O1116 1.961 . S
Li1058 O1118 1.956 1_554 S
Li1058 O1119 1.970 . S
Li1059 N1109 1.990 . S
Li1059 O1117 1.961 1_556 S
Li1059 O1118 1.970 . S
Li1059 O1119 1.956 1_556 S
C1060 C1062 1.348 . S
C1060 C1063 1.356 . S
C1060 O1116 1.325 . S
N1061 C1064 1.314 . S
N1061 C1065 1.279 . S
C1062 C1060 1.348 . S
C1062 C1064 1.353 . S
C1062 H1120 0.929 . S
C1063 C1060 1.356 . S
C1063 C1065 1.358 . S
C1063 H1121 0.930 . S
C1064 N1061 1.314 . S
C1064 C1062 1.353 . S
C1064 H1122 0.930 . S
C1065 N1061 1.279 . S
C1065 C1063 1.358 . S
C1065 H1123 0.930 . S
C1066 C1069 1.348 . S
C1066 C1070 1.356 . S
C1066 O1117 1.325 . S
C1067 N1068 1.279 . S
C1067 C1070 1.358 . S
C1067 H1124 0.930 1_554 S
N1068 C1067 1.279 . S
N1068 C1071 1.314 . S
C1069 C1066 1.348 . S
C1069 C1071 1.353 . S
C1069 H1125 0.929 . S
C1070 C1066 1.356 . S
C1070 C1067 1.358 . S
C1070 H1126 0.930 . S
C1071 N1068 1.314 . S
C1071 C1069 1.353 . S
C1071 H1127 0.930 . S
C1072 N1073 1.314 . S
C1072 C1077 1.353 . S
C1072 H1078 0.930 1_554 S
N1073 Li1056 1.990 . S
N1073 C1072 1.314 . S
N1073 C1075 1.279 . S
C1074 C1075 1.358 . S
C1074 C1076 1.356 . S
C1074 H1128 0.930 . S
C1075 N1073 1.279 . S
C1075 C1074 1.358 . S
C1075 H1079 0.930 . S
C1076 C1074 1.356 . S
C1076 C1077 1.348 . S
C1077 C1072 1.353 . S
C1077 C1076 1.348 . S
C1077 H1129 0.929 1_554 S
H1078 C1072 0.930 1_556 S
H1079 C1075 0.930 . S
C1080 N1081 1.314 . S
C1080 C1082 1.353 . S
C1080 H1086 0.930 . S
N1081 Li1057 1.990 . S
N1081 C1080 1.314 . S
N1081 C1084 1.279 . S
C1082 C1080 1.353 . S
C1082 C1085 1.348 . S
C1082 H1130 0.929 . S
C1083 C1084 1.358 . S
C1083 C1085 1.356 . S
C1083 H1131 0.930 . S
C1084 N1081 1.279 . S
C1084 C1083 1.358 . S
C1084 H1087 0.930 . S
C1085 C1082 1.348 . S
C1085 C1083 1.356 . S
H1086 C1080 0.930 . S
H1087 C1084 0.930 . S
C1088 C1090 1.348 . S
C1088 C1091 1.356 . S
C1088 O1118 1.325 . S
N1089 C1092 1.314 . S
N1089 C1093 1.279 . S
C1090 C1088 1.348 . S
C1090 C1092 1.353 . S
C1090 H1132 0.929 . S
C1091 C1088 1.356 . S
C1091 C1093 1.358 . S
C1091 H1133 0.930 . S
C1092 N1089 1.314 . S
C1092 C1090 1.353 . S
C1092 H1134 0.930 . S
C1093 N1089 1.279 . S
C1093 C1091 1.358 . S
C1093 H1135 0.930 . S
C1094 C1095 1.348 . S
C1094 C1096 1.356 . S
C1094 O1119 1.325 . S
C1095 C1094 1.348 . S
C1095 C1097 1.353 . S
C1095 H1136 0.929 . S
C1096 C1094 1.356 . S
C1096 C1098 1.358 . S
C1096 H1137 0.930 . S
C1097 C1095 1.353 . S
C1097 N1099 1.314 . S
C1097 H1138 0.930 . S
C1098 C1096 1.358 . S
C1098 N1099 1.279 . S
C1098 H1139 0.930 . S
N1099 C1097 1.314 . S
N1099 C1098 1.279 . S
C1100 C1102 1.353 . S
C1100 N1103 1.314 . S
C1100 H1106 0.930 . S
C1101 N1103 1.279 . S
C1101 C1104 1.358 . S
C1101 H1107 0.930 1_554 S
C1102 C1100 1.353 . S
C1102 C1105 1.348 . S
C1102 H1140 0.929 . S
N1103 Li1058 1.990 . S
N1103 C1100 1.314 . S
N1103 C1101 1.279 . S
C1104 C1101 1.358 . S
C1104 C1105 1.356 . S
C1104 H1141 0.892 1_554 S
C1105 C1102 1.348 . S
C1105 C1104 1.356 . S
H1106 C1100 0.930 . S
H1107 C1101 0.930 1_556 S
C1108 N1109 1.314 . S
C1108 C1110 1.353 . S
C1108 H1114 0.930 . S
N1109 Li1059 1.990 . S
N1109 C1108 1.314 . S
N1109 C1112 1.279 . S
C1110 C1108 1.353 . S
C1110 C1113 1.348 . S
C1110 H1142 0.929 . S
C1111 C1112 1.358 . S
C1111 C1113 1.356 . S
C1111 H1143 0.930 . S
C1112 N1109 1.279 . S
C1112 C1111 1.358 . S
C1112 H1115 0.930 . S
C1113 C1110 1.348 . S
C1113 C1111 1.356 . S
H1114 C1108 0.930 . S
H1115 C1112 0.930 . S
O1116 Li1056 1.956 . S
O1116 Li1057 1.970 . S
O1116 Li1058 1.961 . S
O1116 C1060 1.325 . S
O1117 Li1056 1.970 . S
O1117 Li1057 1.956 . S
O1117 Li1059 1.961 1_554 S
O1117 C1066 1.325 . S
O1118 Li1056 1.961 1_556 S
O1118 Li1058 1.956 1_556 S
O1118 Li1059 1.970 . S
O1118 C1088 1.325 . S
O1119 Li1057 1.961 . S
O1119 Li1058 1.970 . S
O1119 Li1059 1.956 1_554 S
O1119 C1094 1.325 . S
H1120 C1062 0.929 . S
H1121 C1063 0.930 . S
H1122 C1064 0.930 . S
H1123 C1065 0.930 . S
H1124 C1067 0.930 1_556 S
H1125 C1069 0.929 . S
H1126 C1070 0.930 . S
H1127 C1071 0.930 . S
H1128 C1074 0.930 . S
H1129 C1077 0.929 1_556 S
H1130 C1082 0.929 . S
H1131 C1083 0.930 . S
H1132 C1090 0.929 . S
H1133 C1091 0.930 . S
H1134 C1092 0.930 . S
H1135 C1093 0.930 . S
H1136 C1095 0.929 . S
H1137 C1096 0.930 . S
H1138 C1097 0.930 . S
H1139 C1098 0.930 . S
H1140 C1102 0.929 . S
H1141 C1104 0.892 1_556 S
H1142 C1110 0.929 . S
H1143 C1111 0.930 . S
Li1144 N1161 1.990 . S
Li1144 O1204 1.956 . S
Li1144 O1205 1.970 . S
Li1144 O1206 1.961 . S
Li1145 N1169 1.990 . S
Li1145 O1204 1.970 . S
Li1145 O1205 1.956 . S
Li1145 O1207 1.961 1_554 S
Li1146 N1191 1.993 . S
Li1146 O1204 1.959 1_556 S
Li1146 O1206 1.954 1_556 S
Li1146 O1207 1.970 . S
Li1147 N1197 1.990 . S
Li1147 O1205 1.961 . S
Li1147 O1206 1.970 . S
Li1147 O1207 1.956 1_554 S
C1148 C1150 1.348 . S
C1148 C1151 1.356 . S
C1148 O1204 1.325 . S
N1149 C1152 1.314 . S
N1149 C1153 1.279 . S
C1150 C1148 1.348 . S
C1150 C1152 1.353 . S
C1150 H1208 0.929 . S
C1151 C1148 1.356 . S
C1151 C1153 1.358 . S
C1151 H1209 0.930 . S
C1152 N1149 1.314 . S
C1152 C1150 1.353 . S
C1152 H1210 0.930 . S
C1153 N1149 1.279 . S
C1153 C1151 1.358 . S
C1153 H1211 0.930 . S
C1154 C1157 1.348 . S
C1154 C1158 1.356 . S
C1154 O1205 1.325 . S
C1155 N1156 1.279 . S
C1155 C1158 1.358 . S
C1155 H1212 0.930 . S
N1156 C1155 1.279 . S
N1156 C1159 1.314 . S
C1157 C1154 1.348 . S
C1157 C1159 1.353 . S
C1157 H1213 0.929 . S
C1158 C1154 1.356 . S
C1158 C1155 1.358 . S
C1158 H1214 0.930 . S
C1159 N1156 1.314 . S
C1159 C1157 1.353 . S
C1159 H1215 0.930 . S
C1160 N1161 1.314 . S
C1160 C1165 1.353 . S
C1160 H1166 0.930 . S
N1161 Li1144 1.990 . S
N1161 C1160 1.314 . S
N1161 C1163 1.279 . S
C1162 C1163 1.358 . S
C1162 C1164 1.356 . S
C1162 H1216 0.930 . S
C1163 N1161 1.279 . S
C1163 C1162 1.358 . S
C1163 H1167 0.930 . S
C1164 C1162 1.356 . S
C1164 C1165 1.348 . S
C1165 C1160 1.353 . S
C1165 C1164 1.348 . S
C1165 H1217 0.929 . S
H1166 C1160 0.930 . S
H1167 C1163 0.930 . S
C1168 N1169 1.319 . S
C1168 C1170 1.353 1_554 S
C1168 H1174 0.925 1_554 S
N1169 Li1145 1.990 . S
N1169 C1168 1.319 . S
N1169 C1172 1.279 . S
C1170 C1168 1.353 1_556 S
C1170 C1173 1.348 1_556 S
C1170 H1218 0.929 . S
C1171 C1172 1.358 . S
C1171 C1173 1.356 . S
C1171 H1219 0.930 . S
C1172 N1169 1.279 . S
C1172 C1171 1.358 . S
C1172 H1175 0.930 . S
C1173 C1170 1.348 1_554 S
C1173 C1171 1.356 . S
H1174 C1168 0.925 1_556 S
H1175 C1172 0.930 . S
C1176 C1178 1.348 . S
C1176 C1179 1.356 . S
C1176 O1206 1.325 . S
N1177 C1180 1.314 . S
N1177 C1181 1.279 . S
C1178 C1176 1.348 . S
C1178 C1180 1.353 . S
C1178 H1220 0.929 . S
C1179 C1176 1.356 . S
C1179 C1181 1.358 . S
C1179 H1221 0.930 . S
C1180 N1177 1.314 . S
C1180 C1178 1.353 . S
C1180 H1222 0.930 . S
C1181 N1177 1.279 . S
C1181 C1179 1.358 . S
C1181 H1223 0.930 . S
C1182 C1183 1.348 . S
C1182 C1184 1.356 . S
C1182 O1207 1.325 . S
C1183 C1182 1.348 . S
C1183 C1185 1.353 . S
C1183 H1224 0.929 . S
C1184 C1182 1.356 . S
C1184 C1186 1.358 . S
C1184 H1225 0.930 . S
C1185 C1183 1.353 . S
C1185 N1187 1.314 . S
C1185 H1226 0.930 . S
C1186 C1184 1.358 . S
C1186 N1187 1.279 . S
C1186 H1227 0.930 . S
N1187 C1185 1.314 . S
N1187 C1186 1.279 . S
C1188 C1190 1.353 . S
C1188 N1191 1.314 . S
C1188 H1194 0.930 . S
C1189 N1191 1.279 . S
C1189 C1192 1.358 . S
C1189 H1195 0.930 . S
C1190 C1188 1.353 . S
C1190 C1193 1.348 . S
C1190 H1228 0.929 . S
N1191 Li1146 1.993 . S
N1191 C1188 1.314 . S
N1191 C1189 1.279 . S
C1192 C1189 1.358 . S
C1192 C1193 1.356 . S
C1192 H1229 0.930 . S
C1193 C1190 1.348 . S
C1193 C1192 1.356 . S
H1194 C1188 0.930 . S
H1195 C1189 0.930 . S
C1196 N1197 1.314 . S
C1196 C1198 1.353 . S
C1196 H1202 0.930 . S
N1197 Li1147 1.990 . S
N1197 C1196 1.314 . S
N1197 C1200 1.279 1_554 S
C1198 C1196 1.353 . S
C1198 C1201 1.348 . S
C1198 H1230 0.929 . S
C1199 C1200 1.358 . S
C1199 C1201 1.356 1_556 S
C1199 H1231 0.930 . S
C1200 N1197 1.279 1_556 S
C1200 C1199 1.358 . S
C1200 H1203 0.930 . S
C1201 C1198 1.348 . S
C1201 C1199 1.356 1_554 S
H1202 C1196 0.930 . S
H1203 C1200 0.930 . S
O1204 Li1144 1.956 . S
O1204 Li1145 1.970 . S
O1204 Li1146 1.959 1_554 S
O1204 C1148 1.325 . S
O1205 Li1144 1.970 . S
O1205 Li1145 1.956 . S
O1205 Li1147 1.961 . S
O1205 C1154 1.325 . S
O1206 Li1144 1.961 . S
O1206 Li1146 1.954 1_554 S
O1206 Li1147 1.970 . S
O1206 C1176 1.325 . S
O1207 Li1145 1.961 1_556 S
O1207 Li1146 1.970 . S
O1207 Li1147 1.956 1_556 S
O1207 C1182 1.325 . S
H1208 C1150 0.929 . S
H1209 C1151 0.930 . S
H1210 C1152 0.930 . S
H1211 C1153 0.930 . S
H1212 C1155 0.930 . S
H1213 C1157 0.929 . S
H1214 C1158 0.930 . S
H1215 C1159 0.930 . S
H1216 C1162 0.930 . S
H1217 C1165 0.929 . S
H1218 C1170 0.929 . S
H1219 C1171 0.930 . S
H1220 C1178 0.929 . S
H1221 C1179 0.930 . S
H1222 C1180 0.930 . S
H1223 C1181 0.930 . S
H1224 C1183 0.929 . S
H1225 C1184 0.930 . S
H1226 C1185 0.930 . S
H1227 C1186 0.930 . S
H1228 C1190 0.929 . S
H1229 C1192 0.930 . S
H1230 C1198 0.929 . S
H1231 C1199 0.930 . S
Li1232 N1249 1.990 . S
Li1232 O1292 1.956 . S
Li1232 O1293 1.970 . S
Li1232 O1294 1.961 . S
Li1233 N1257 1.990 . S
Li1233 O1292 1.970 . S
Li1233 O1293 1.956 . S
Li1233 O1295 1.961 . S
Li1234 N1279 1.990 . S
Li1234 O1292 1.961 . S
Li1234 O1294 1.956 . S
Li1234 O1295 1.970 . S
Li1235 N1285 1.990 . S
Li1235 O1293 1.961 . S
Li1235 O1294 1.970 . S
Li1235 O1295 1.956 . S
C1236 C1238 1.348 . S
C1236 C1239 1.356 . S
C1236 O1292 1.325 . S
N1237 C1240 1.314 . S
N1237 C1241 1.279 . S
C1238 C1236 1.348 . S
C1238 C1240 1.353 . S
C1238 H1296 0.929 . S
C1239 C1236 1.356 . S
C1239 C1241 1.358 . S
C1239 H1297 0.930 . S
C1240 N1237 1.314 . S
C1240 C1238 1.353 . S
C1240 H1298 0.930 . S
C1241 N1237 1.279 . S
C1241 C1239 1.358 . S
C1241 H1299 0.930 . S
C1242 C1245 1.348 . S
C1242 C1246 1.356 . S
C1242 O1293 1.325 . S
C1243 N1244 1.279 . S
C1243 C1246 1.358 . S
C1243 H1300 0.930 . S
N1244 C1243 1.279 . S
N1244 C1247 1.314 . S
C1245 C1242 1.348 . S
C1245 C1247 1.353 . S
C1245 H1301 0.929 . S
C1246 C1242 1.356 . S
C1246 C1243 1.358 . S
C1246 H1302 0.930 . S
C1247 N1244 1.314 . S
C1247 C1245 1.353 . S
C1247 H1303 0.930 . S
C1248 N1249 1.314 . S
C1248 C1253 1.353 . S
C1248 H1254 0.930 . S
N1249 Li1232 1.990 . S
N1249 C1248 1.314 . S
N1249 C1251 1.279 . S
C1250 C1251 1.358 . S
C1250 C1252 1.356 . S
C1250 H1304 0.930 . S
C1251 N1249 1.279 . S
C1251 C1250 1.358 . S
C1251 H1255 0.930 . S
C1252 C1250 1.356 . S
C1252 C1253 1.348 . S
C1253 C1248 1.353 . S
C1253 C1252 1.348 . S
C1253 H1305 0.929 . S
H1254 C1248 0.930 . S
H1255 C1251 0.930 . S
C1256 N1257 1.314 . S
C1256 C1258 1.353 . S
C1256 H1262 0.930 . S
N1257 Li1233 1.990 . S
N1257 C1256 1.314 . S
N1257 C1260 1.279 . S
C1258 C1256 1.353 . S
C1258 C1261 1.348 . S
C1258 H1306 0.929 . S
C1259 C1260 1.358 . S
C1259 C1261 1.356 . S
C1259 H1307 0.930 . S
C1260 N1257 1.279 . S
C1260 C1259 1.358 . S
C1260 H1263 0.930 . S
C1261 C1258 1.348 . S
C1261 C1259 1.356 . S
H1262 C1256 0.930 . S
H1263 C1260 0.930 . S
C1264 C1266 1.348 . S
C1264 C1267 1.356 . S
C1264 O1294 1.325 . S
N1265 C1268 1.314 . S
N1265 C1269 1.279 . S
C1266 C1264 1.348 . S
C1266 C1268 1.353 . S
C1266 H1308 0.929 . S
C1267 C1264 1.356 . S
C1267 C1269 1.358 . S
C1267 H1309 0.930 . S
C1268 N1265 1.314 . S
C1268 C1266 1.353 . S
C1268 H1310 0.930 . S
C1269 N1265 1.279 . S
C1269 C1267 1.358 . S
C1269 H1311 0.930 . S
C1270 C1271 1.348 . S
C1270 C1272 1.356 . S
C1270 O1295 1.325 . S
C1271 C1270 1.348 . S
C1271 C1273 1.353 . S
C1271 H1312 0.929 . S
C1272 C1270 1.356 . S
C1272 C1274 1.358 . S
C1272 H1313 0.930 . S
C1273 C1271 1.353 . S
C1273 N1275 1.314 . S
C1273 H1314 0.930 . S
C1274 C1272 1.358 . S
C1274 N1275 1.279 . S
C1274 H1315 0.930 . S
N1275 C1273 1.314 . S
N1275 C1274 1.279 . S
C1276 C1278 1.353 . S
C1276 N1279 1.314 . S
C1276 H1282 0.930 . S
C1277 N1279 1.279 . S
C1277 C1280 1.358 . S
C1277 H1283 0.930 . S
C1278 C1276 1.353 . S
C1278 C1281 1.348 . S
C1278 H1316 0.929 . S
N1279 Li1234 1.990 . S
N1279 C1276 1.314 . S
N1279 C1277 1.279 . S
C1280 C1277 1.358 . S
C1280 C1281 1.356 . S
C1280 H1317 0.930 . S
C1281 C1278 1.348 . S
C1281 C1280 1.356 . S
H1282 C1276 0.930 . S
H1283 C1277 0.930 . S
C1284 N1285 1.314 . S
C1284 C1286 1.353 . S
C1284 H1290 0.930 . S
N1285 Li1235 1.990 . S
N1285 C1284 1.314 . S
N1285 C1288 1.279 . S
C1286 C1284 1.353 . S
C1286 C1289 1.348 . S
C1286 H1318 0.929 . S
C1287 C1288 1.358 . S
C1287 C1289 1.356 . S
C1287 H1319 0.930 . S
C1288 N1285 1.279 . S
C1288 C1287 1.358 . S
C1288 H1291 0.930 . S
C1289 C1286 1.348 . S
C1289 C1287 1.356 . S
H1290 C1284 0.930 . S
H1291 C1288 0.930 . S
O1292 Li1232 1.956 . S
O1292 Li1233 1.970 . S
O1292 Li1234 1.961 . S
O1292 C1236 1.325 . S
O1293 Li1232 1.970 . S
O1293 Li1233 1.956 . S
O1293 Li1235 1.961 . S
O1293 C1242 1.325 . S
O1294 Li1232 1.961 . S
O1294 Li1234 1.956 . S
O1294 Li1235 1.970 . S
O1294 C1264 1.325 . S
O1295 Li1233 1.961 . S
O1295 Li1234 1.970 . S
O1295 Li1235 1.956 . S
O1295 C1270 1.325 . S
H1296 C1238 0.929 . S
H1297 C1239 0.930 . S
H1298 C1240 0.930 . S
H1299 C1241 0.930 . S
H1300 C1243 0.930 . S
H1301 C1245 0.929 . S
H1302 C1246 0.930 . S
H1303 C1247 0.930 . S
H1304 C1250 0.930 . S
H1305 C1253 0.929 . S
H1306 C1258 0.929 . S
H1307 C1259 0.930 . S
H1308 C1266 0.929 . S
H1309 C1267 0.930 . S
H1310 C1268 0.930 . S
H1311 C1269 0.930 . S
H1312 C1271 0.929 . S
H1313 C1272 0.930 . S
H1314 C1273 0.930 . S
H1315 C1274 0.930 . S
H1316 C1278 0.929 . S
H1317 C1280 0.930 . S
H1318 C1286 0.929 . S
H1319 C1287 0.930 . S
Li1320 N1337 1.990 . S
Li1320 O1380 1.956 . S
Li1320 O1381 1.970 . S
Li1320 O1382 1.961 . S
Li1321 N1345 1.990 . S
Li1321 O1380 1.970 . S
Li1321 O1381 1.956 . S
Li1321 O1383 1.961 . S
Li1322 N1367 1.990 . S
Li1322 O1380 1.961 . S
Li1322 O1382 1.956 . S
Li1322 O1383 1.970 . S
Li1323 N1373 1.990 . S
Li1323 O1381 1.961 . S
Li1323 O1382 1.970 . S
Li1323 O1383 1.956 . S
C1324 C1326 1.348 . S
C1324 C1327 1.356 . S
C1324 O1380 1.325 . S
N1325 C1328 1.314 . S
N1325 C1329 1.279 . S
C1326 C1324 1.348 . S
C1326 C1328 1.353 . S
C1326 H1384 0.929 . S
C1327 C1324 1.356 . S
C1327 C1329 1.358 . S
C1327 H1385 0.930 . S
C1328 N1325 1.314 . S
C1328 C1326 1.353 . S
C1328 H1386 0.930 . S
C1329 N1325 1.279 . S
C1329 C1327 1.358 . S
C1329 H1387 0.930 . S
C1330 C1333 1.348 . S
C1330 C1334 1.356 . S
C1330 O1381 1.325 . S
C1331 N1332 1.279 . S
C1331 C1334 1.358 . S
C1331 H1388 0.930 . S
N1332 C1331 1.279 . S
N1332 C1335 1.314 . S
C1333 C1330 1.348 . S
C1333 C1335 1.353 . S
C1333 H1389 0.929 . S
C1334 C1330 1.356 . S
C1334 C1331 1.358 . S
C1334 H1390 0.930 . S
C1335 N1332 1.314 . S
C1335 C1333 1.353 . S
C1335 H1391 0.930 . S
C1336 N1337 1.314 . S
C1336 C1341 1.353 . S
C1336 H1342 0.930 . S
N1337 Li1320 1.990 . S
N1337 C1336 1.314 . S
N1337 C1339 1.279 . S
C1338 C1339 1.358 . S
C1338 C1340 1.356 . S
C1338 H1392 0.930 . S
C1339 N1337 1.279 . S
C1339 C1338 1.358 . S
C1339 H1343 0.930 . S
C1340 C1338 1.356 . S
C1340 C1341 1.348 . S
C1341 C1336 1.353 . S
C1341 C1340 1.348 . S
C1341 H1393 0.929 . S
H1342 C1336 0.930 . S
H1343 C1339 0.930 . S
C1344 N1345 1.314 . S
C1344 C1346 1.353 . S
C1344 H1350 0.930 . S
N1345 Li1321 1.990 . S
N1345 C1344 1.314 . S
N1345 C1348 1.279 . S
C1346 C1344 1.353 . S
C1346 C1349 1.348 . S
C1346 H1394 0.929 . S
C1347 C1348 1.358 . S
C1347 C1349 1.356 . S
C1347 H1395 0.930 . S
C1348 N1345 1.279 . S
C1348 C1347 1.358 . S
C1348 H1351 0.930 . S
C1349 C1346 1.348 . S
C1349 C1347 1.356 . S
H1350 C1344 0.930 . S
H1351 C1348 0.930 . S
C1352 C1354 1.348 . S
C1352 C1355 1.356 . S
C1352 O1382 1.325 . S
N1353 C1356 1.314 . S
N1353 C1357 1.279 . S
C1354 C1352 1.348 . S
C1354 C1356 1.353 . S
C1354 H1396 0.929 . S
C1355 C1352 1.356 . S
C1355 C1357 1.358 . S
C1355 H1397 0.930 . S
C1356 N1353 1.314 . S
C1356 C1354 1.353 . S
C1356 H1398 0.930 . S
C1357 N1353 1.279 . S
C1357 C1355 1.358 . S
C1357 H1399 0.930 . S
C1358 C1359 1.348 . S
C1358 C1360 1.356 . S
C1358 O1383 1.325 . S
C1359 C1358 1.348 . S
C1359 C1361 1.353 . S
C1359 H1400 0.929 . S
C1360 C1358 1.356 . S
C1360 C1362 1.358 . S
C1360 H1401 0.930 . S
C1361 C1359 1.353 . S
C1361 N1363 1.314 . S
C1361 H1402 0.930 . S
C1362 C1360 1.358 . S
C1362 N1363 1.279 . S
C1362 H1403 0.930 . S
N1363 C1361 1.314 . S
N1363 C1362 1.279 . S
C1364 C1366 1.353 . S
C1364 N1367 1.314 . S
C1364 H1370 0.930 . S
C1365 N1367 1.279 . S
C1365 C1368 1.358 . S
C1365 H1371 0.930 . S
C1366 C1364 1.353 . S
C1366 C1369 1.348 . S
C1366 H1404 0.929 . S
N1367 Li1322 1.990 . S
N1367 C1364 1.314 . S
N1367 C1365 1.279 . S
C1368 C1365 1.358 . S
C1368 C1369 1.356 . S
C1368 H1405 0.930 . S
C1369 C1366 1.348 . S
C1369 C1368 1.356 . S
H1370 C1364 0.930 . S
H1371 C1365 0.930 . S
C1372 N1373 1.314 . S
C1372 C1374 1.353 . S
C1372 H1378 0.930 . S
N1373 Li1323 1.990 . S
N1373 C1372 1.314 . S
N1373 C1376 1.279 . S
C1374 C1372 1.353 . S
C1374 C1377 1.348 . S
C1374 H1406 0.929 . S
C1375 C1376 1.358 . S
C1375 C1377 1.356 . S
C1375 H1407 0.930 . S
C1376 N1373 1.279 . S
C1376 C1375 1.358 . S
C1376 H1379 0.930 . S
C1377 C1374 1.348 . S
C1377 C1375 1.356 . S
H1378 C1372 0.930 . S
H1379 C1376 0.930 . S
O1380 Li1320 1.956 . S
O1380 Li1321 1.970 . S
O1380 Li1322 1.961 . S
O1380 C1324 1.325 . S
O1381 Li1320 1.970 . S
O1381 Li1321 1.956 . S
O1381 Li1323 1.961 . S
O1381 C1330 1.325 . S
O1382 Li1320 1.961 . S
O1382 Li1322 1.956 . S
O1382 Li1323 1.970 . S
O1382 C1352 1.325 . S
O1383 Li1321 1.961 . S
O1383 Li1322 1.970 . S
O1383 Li1323 1.956 . S
O1383 C1358 1.325 . S
H1384 C1326 0.929 . S
H1385 C1327 0.930 . S
H1386 C1328 0.930 . S
H1387 C1329 0.930 . S
H1388 C1331 0.930 . S
H1389 C1333 0.929 . S
H1390 C1334 0.930 . S
H1391 C1335 0.930 . S
H1392 C1338 0.930 . S
H1393 C1341 0.929 . S
H1394 C1346 0.929 . S
H1395 C1347 0.930 . S
H1396 C1354 0.929 . S
H1397 C1355 0.930 . S
H1398 C1356 0.930 . S
H1399 C1357 0.930 . S
H1400 C1359 0.929 . S
H1401 C1360 0.930 . S
H1402 C1361 0.930 . S
H1403 C1362 0.930 . S
H1404 C1366 0.929 . S
H1405 C1368 0.930 . S
H1406 C1374 0.929 . S
H1407 C1375 0.930 . S
Li1408 N1425 1.990 . S
Li1408 O1468 1.956 . S
Li1408 O1469 1.970 . S
Li1408 O1470 1.961 . S
Li1409 N1433 1.990 . S
Li1409 O1468 1.970 . S
Li1409 O1469 1.956 . S
Li1409 O1471 1.961 . S
Li1410 N1455 1.990 . S
Li1410 O1468 1.961 . S
Li1410 O1470 1.956 . S
Li1410 O1471 1.970 . S
Li1411 N1461 1.990 . S
Li1411 O1469 1.961 . S
Li1411 O1470 1.970 . S
Li1411 O1471 1.956 . S
C1412 C1414 1.348 1_545 S
C1412 C1415 1.356 . S
C1412 O1468 1.325 . S
N1413 C1416 1.314 . S
N1413 C1417 1.279 1_565 S
C1414 C1412 1.348 1_565 S
C1414 C1416 1.353 . S
C1414 H1472 0.929 . S
C1415 C1412 1.356 . S
C1415 C1417 1.358 . S
C1415 H1473 0.930 . S
C1416 N1413 1.314 . S
C1416 C1414 1.353 . S
C1416 H1474 0.930 . S
C1417 N1413 1.279 1_545 S
C1417 C1415 1.358 . S
C1417 H1475 0.930 1_655 S
C1418 C1421 1.348 . S
C1418 C1422 1.356 . S
C1418 O1469 1.325 . S
C1419 N1420 1.279 . S
C1419 C1422 1.358 . S
C1419 H1476 0.930 . S
N1420 C1419 1.279 . S
N1420 C1423 1.314 . S
C1421 C1418 1.348 . S
C1421 C1423 1.353 . S
C1421 H1477 0.929 . S
C1422 C1418 1.356 . S
C1422 C1419 1.358 . S
C1422 H1478 0.930 . S
C1423 N1420 1.314 . S
C1423 C1421 1.353 . S
C1423 H1479 0.930 . S
C1424 N1425 1.314 . S
C1424 C1429 1.353 . S
C1424 H1430 0.930 . S
N1425 Li1408 1.990 . S
N1425 C1424 1.314 . S
N1425 C1427 1.279 . S
C1426 C1427 1.350 1_455 S
C1426 C1428 1.355 . S
C1426 H1480 0.939 . S
C1427 N1425 1.279 . S
C1427 C1426 1.350 1_655 S
C1427 H1431 0.930 . S
C1428 C1426 1.355 . S
C1428 C1429 1.348 1_455 S
C1429 C1424 1.353 . S
C1429 C1428 1.348 1_655 S
C1429 H1481 0.929 . S
H1430 C1424 0.930 . S
H1431 C1427 0.930 . S
C1432 N1433 1.314 1_565 S
C1432 C1434 1.353 . S
C1432 H1438 0.930 . S
N1433 Li1409 1.990 . S
N1433 C1432 1.314 1_545 S
N1433 C1436 1.279 1_545 S
C1434 C1432 1.353 . S
C1434 C1437 1.348 . S
C1434 H1482 0.929 . S
C1435 C1436 1.358 . S
C1435 C1437 1.356 . S
C1435 H1483 0.930 . S
C1436 N1433 1.279 1_565 S
C1436 C1435 1.358 . S
C1436 H1439 0.930 1_565 S
C1437 C1434 1.348 . S
C1437 C1435 1.356 . S
H1438 C1432 0.930 . S
H1439 C1436 0.930 1_545 S
C1440 C1442 1.348 . S
C1440 C1443 1.356 . S
C1440 O1470 1.325 . S
N1441 C1444 1.314 1_455 S
N1441 C1445 1.279 . S
C1442 C1440 1.348 . S
C1442 C1444 1.353 . S
C1442 H1484 0.929 . S
C1443 C1440 1.356 . S
C1443 C1445 1.358 1_655 S
C1443 H1485 0.935 . S
C1444 N1441 1.314 1_655 S
C1444 C1442 1.353 . S
C1444 H1486 0.930 . S
C1445 N1441 1.279 . S
C1445 C1443 1.358 1_455 S
C1445 H1487 0.930 . S
C1446 C1447 1.348 . S
C1446 C1448 1.356 . S
C1446 O1471 1.325 . S
C1447 C1446 1.348 . S
C1447 C1449 1.353 . S
C1447 H1488 0.929 . S
C1448 C1446 1.356 . S
C1448 C1450 1.358 . S
C1448 H1489 0.930 . S
C1449 C1447 1.353 . S
C1449 N1451 1.314 . S
C1449 H1490 0.930 . S
C1450 C1448 1.358 . S
C1450 N1451 1.279 . S
C1450 H1491 0.930 . S
N1451 C1449 1.314 . S
N1451 C1450 1.279 . S
C1452 C1454 1.353 . S
C1452 N1455 1.314 . S
C1452 H1458 0.930 . S
C1453 N1455 1.279 . S
C1453 C1456 1.358 . S
C1453 H1459 0.930 . S
C1454 C1452 1.353 . S
C1454 C1457 1.348 . S
C1454 H1492 0.929 . S
N1455 Li1410 1.990 . S
N1455 C1452 1.314 . S
N1455 C1453 1.279 . S
C1456 C1453 1.358 . S
C1456 C1457 1.356 . S
C1456 H1493 0.930 1_655 S
C1457 C1454 1.348 . S
C1457 C1456 1.356 . S
H1458 C1452 0.930 . S
H1459 C1453 0.930 . S
C1460 N1461 1.314 . S
C1460 C1462 1.353 . S
C1460 H1466 0.930 . S
N1461 Li1411 1.990 . S
N1461 C1460 1.314 . S
N1461 C1464 1.279 . S
C1462 C1460 1.353 . S
C1462 C1465 1.348 . S
C1462 H1494 0.929 . S
C1463 C1464 1.358 . S
C1463 C1465 1.356 . S
C1463 H1495 0.930 . S
C1464 N1461 1.279 . S
C1464 C1463 1.358 . S
C1464 H1467 0.930 . S
C1465 C1462 1.348 . S
C1465 C1463 1.356 . S
H1466 C1460 0.930 . S
H1467 C1464 0.930 . S
O1468 Li1408 1.956 . S
O1468 Li1409 1.970 . S
O1468 Li1410 1.961 . S
O1468 C1412 1.325 . S
O1469 Li1408 1.970 . S
O1469 Li1409 1.956 . S
O1469 Li1411 1.961 . S
O1469 C1418 1.325 . S
O1470 Li1408 1.961 . S
O1470 Li1410 1.956 . S
O1470 Li1411 1.970 . S
O1470 C1440 1.325 . S
O1471 Li1409 1.961 . S
O1471 Li1410 1.970 . S
O1471 Li1411 1.956 . S
O1471 C1446 1.325 . S
H1472 C1414 0.929 . S
H1473 C1415 0.930 . S
H1474 C1416 0.930 . S
H1475 C1417 0.930 1_455 S
H1476 C1419 0.930 . S
H1477 C1421 0.929 . S
H1478 C1422 0.930 . S
H1479 C1423 0.930 . S
H1480 C1426 0.939 . S
H1481 C1429 0.929 . S
H1482 C1434 0.929 . S
H1483 C1435 0.930 . S
H1484 C1442 0.929 . S
H1485 C1443 0.935 . S
H1486 C1444 0.930 . S
H1487 C1445 0.930 . S
H1488 C1447 0.929 . S
H1489 C1448 0.930 . S
H1490 C1449 0.930 . S
H1491 C1450 0.930 . S
H1492 C1454 0.929 . S
H1493 C1456 0.930 1_455 S
H1494 C1462 0.929 . S
H1495 C1463 0.930 . S
Li1496 N1513 1.990 . S
Li1496 O1556 1.956 . S
Li1496 O1557 1.970 . S
Li1496 O1558 1.961 . S
Li1497 N1521 1.990 . S
Li1497 O1556 1.970 . S
Li1497 O1557 1.956 . S
Li1497 O1559 1.961 . S
Li1498 N1543 1.990 . S
Li1498 O1556 1.961 . S
Li1498 O1558 1.956 . S
Li1498 O1559 1.970 . S
Li1499 N1549 1.990 . S
Li1499 O1557 1.961 . S
Li1499 O1558 1.970 . S
Li1499 O1559 1.956 . S
C1500 C1502 1.348 . S
C1500 C1503 1.356 . S
C1500 O1556 1.325 . S
N1501 C1504 1.314 . S
N1501 C1505 1.279 . S
C1502 C1500 1.348 . S
C1502 C1504 1.353 . S
C1502 H1560 0.929 . S
C1503 C1500 1.356 . S
C1503 C1505 1.358 . S
C1503 H1561 0.930 . S
C1504 N1501 1.314 . S
C1504 C1502 1.353 . S
C1504 H1562 0.930 . S
C1505 N1501 1.279 . S
C1505 C1503 1.358 . S
C1505 H1563 0.930 . S
C1506 C1509 1.348 . S
C1506 C1510 1.356 . S
C1506 O1557 1.325 . S
C1507 N1508 1.279 . S
C1507 C1510 1.358 . S
C1507 H1564 0.930 . S
N1508 C1507 1.279 . S
N1508 C1511 1.314 . S
C1509 C1506 1.348 . S
C1509 C1511 1.353 . S
C1509 H1565 0.929 . S
C1510 C1506 1.356 . S
C1510 C1507 1.358 . S
C1510 H1566 0.930 . S
C1511 N1508 1.314 . S
C1511 C1509 1.353 . S
C1511 H1567 0.930 . S
C1512 N1513 1.314 . S
C1512 C1517 1.353 . S
C1512 H1518 0.930 . S
N1513 Li1496 1.990 . S
N1513 C1512 1.314 . S
N1513 C1515 1.279 . S
C1514 C1515 1.358 . S
C1514 C1516 1.356 . S
C1514 H1568 0.930 . S
C1515 N1513 1.279 . S
C1515 C1514 1.358 . S
C1515 H1519 0.930 . S
C1516 C1514 1.356 . S
C1516 C1517 1.348 . S
C1517 C1512 1.353 . S
C1517 C1516 1.348 . S
C1517 H1569 0.929 . S
H1518 C1512 0.930 . S
H1519 C1515 0.930 . S
C1520 N1521 1.314 . S
C1520 C1522 1.353 . S
C1520 H1526 0.930 . S
N1521 Li1497 1.990 . S
N1521 C1520 1.314 . S
N1521 C1524 1.279 . S
C1522 C1520 1.353 . S
C1522 C1525 1.348 . S
C1522 H1570 0.929 . S
C1523 C1524 1.358 . S
C1523 C1525 1.356 . S
C1523 H1571 0.930 . S
C1524 N1521 1.279 . S
C1524 C1523 1.358 . S
C1524 H1527 0.930 . S
C1525 C1522 1.348 . S
C1525 C1523 1.356 . S
H1526 C1520 0.930 . S
H1527 C1524 0.930 . S
C1528 C1530 1.348 . S
C1528 C1531 1.356 . S
C1528 O1558 1.325 . S
N1529 C1532 1.314 . S
N1529 C1533 1.279 . S
C1530 C1528 1.348 . S
C1530 C1532 1.353 . S
C1530 H1572 0.929 . S
C1531 C1528 1.356 . S
C1531 C1533 1.358 . S
C1531 H1573 0.930 . S
C1532 N1529 1.314 . S
C1532 C1530 1.353 . S
C1532 H1574 0.930 . S
C1533 N1529 1.279 . S
C1533 C1531 1.358 . S
C1533 H1575 0.930 . S
C1534 C1535 1.348 . S
C1534 C1536 1.356 . S
C1534 O1559 1.325 . S
C1535 C1534 1.348 . S
C1535 C1537 1.353 . S
C1535 H1576 0.929 . S
C1536 C1534 1.356 . S
C1536 C1538 1.358 . S
C1536 H1577 0.930 . S
C1537 C1535 1.353 . S
C1537 N1539 1.314 . S
C1537 H1578 0.930 . S
C1538 C1536 1.358 . S
C1538 N1539 1.279 . S
C1538 H1579 0.930 . S
N1539 C1537 1.314 . S
N1539 C1538 1.279 . S
C1540 C1542 1.353 . S
C1540 N1543 1.314 . S
C1540 H1546 0.930 . S
C1541 N1543 1.279 . S
C1541 C1544 1.358 . S
C1541 H1547 0.930 . S
C1542 C1540 1.353 . S
C1542 C1545 1.348 . S
C1542 H1580 0.929 . S
N1543 Li1498 1.990 . S
N1543 C1540 1.314 . S
N1543 C1541 1.279 . S
C1544 C1541 1.358 . S
C1544 C1545 1.356 . S
C1544 H1581 0.930 . S
C1545 C1542 1.348 . S
C1545 C1544 1.356 . S
H1546 C1540 0.930 . S
H1547 C1541 0.930 . S
C1548 N1549 1.314 . S
C1548 C1550 1.353 . S
C1548 H1554 0.930 . S
N1549 Li1499 1.990 . S
N1549 C1548 1.314 . S
N1549 C1552 1.279 . S
C1550 C1548 1.353 . S
C1550 C1553 1.348 . S
C1550 H1582 0.929 . S
C1551 C1552 1.358 . S
C1551 C1553 1.356 . S
C1551 H1583 0.930 . S
C1552 N1549 1.279 . S
C1552 C1551 1.358 . S
C1552 H1555 0.930 . S
C1553 C1550 1.348 . S
C1553 C1551 1.356 . S
H1554 C1548 0.930 . S
H1555 C1552 0.930 . S
O1556 Li1496 1.956 . S
O1556 Li1497 1.970 . S
O1556 Li1498 1.961 . S
O1556 C1500 1.325 . S
O1557 Li1496 1.970 . S
O1557 Li1497 1.956 . S
O1557 Li1499 1.961 . S
O1557 C1506 1.325 . S
O1558 Li1496 1.961 . S
O1558 Li1498 1.956 . S
O1558 Li1499 1.970 . S
O1558 C1528 1.325 . S
O1559 Li1497 1.961 . S
O1559 Li1498 1.970 . S
O1559 Li1499 1.956 . S
O1559 C1534 1.325 . S
H1560 C1502 0.929 . S
H1561 C1503 0.930 . S
H1562 C1504 0.930 . S
H1563 C1505 0.930 . S
H1564 C1507 0.930 . S
H1565 C1509 0.929 . S
H1566 C1510 0.930 . S
H1567 C1511 0.930 . S
H1568 C1514 0.930 . S
H1569 C1517 0.929 . S
H1570 C1522 0.929 . S
H1571 C1523 0.930 . S
H1572 C1530 0.929 . S
H1573 C1531 0.930 . S
H1574 C1532 0.930 . S
H1575 C1533 0.930 . S
H1576 C1535 0.929 . S
H1577 C1536 0.930 . S
H1578 C1537 0.930 . S
H1579 C1538 0.930 . S
H1580 C1542 0.929 . S
H1581 C1544 0.930 . S
H1582 C1550 0.929 . S
H1583 C1551 0.930 . S
Li1584 N1601 1.990 . S
Li1584 O1644 1.956 . S
Li1584 O1645 1.970 . S
Li1584 O1646 1.961 . S
Li1585 N1609 1.990 . S
Li1585 O1644 1.970 . S
Li1585 O1645 1.956 . S
Li1585 O1647 1.961 . S
Li1586 N1631 1.990 . S
Li1586 O1644 1.961 . S
Li1586 O1646 1.956 . S
Li1586 O1647 1.970 . S
Li1587 N1637 1.990 . S
Li1587 O1645 1.961 . S
Li1587 O1646 1.970 . S
Li1587 O1647 1.956 . S
C1588 C1590 1.348 . S
C1588 C1591 1.356 . S
C1588 O1644 1.325 . S
N1589 C1592 1.314 . S
N1589 C1593 1.279 . S
C1590 C1588 1.348 . S
C1590 C1592 1.353 . S
C1590 H1648 0.929 . S
C1591 C1588 1.356 . S
C1591 C1593 1.358 . S
C1591 H1649 0.930 . S
C1592 N1589 1.314 . S
C1592 C1590 1.353 . S
C1592 H1650 0.930 . S
C1593 N1589 1.279 . S
C1593 C1591 1.358 . S
C1593 H1651 0.930 . S
C1594 C1597 1.348 . S
C1594 C1598 1.356 . S
C1594 O1645 1.325 . S
C1595 N1596 1.279 . S
C1595 C1598 1.358 . S
C1595 H1652 0.930 . S
N1596 C1595 1.279 . S
N1596 C1599 1.314 . S
C1597 C1594 1.348 . S
C1597 C1599 1.353 . S
C1597 H1653 0.929 . S
C1598 C1594 1.356 . S
C1598 C1595 1.358 . S
C1598 H1654 0.930 . S
C1599 N1596 1.314 . S
C1599 C1597 1.353 . S
C1599 H1655 0.930 . S
C1600 N1601 1.314 . S
C1600 C1605 1.353 . S
C1600 H1606 0.930 . S
N1601 Li1584 1.990 . S
N1601 C1600 1.314 . S
N1601 C1603 1.279 . S
C1602 C1603 1.358 . S
C1602 C1604 1.356 . S
C1602 H1656 0.930 . S
C1603 N1601 1.279 . S
C1603 C1602 1.358 . S
C1603 H1607 0.930 . S
C1604 C1602 1.356 . S
C1604 C1605 1.348 . S
C1605 C1600 1.353 . S
C1605 C1604 1.348 . S
C1605 H1657 0.929 . S
H1606 C1600 0.930 . S
H1607 C1603 0.930 . S
C1608 N1609 1.314 . S
C1608 C1610 1.353 . S
C1608 H1614 0.930 . S
N1609 Li1585 1.990 . S
N1609 C1608 1.314 . S
N1609 C1612 1.279 . S
C1610 C1608 1.353 . S
C1610 C1613 1.348 . S
C1610 H1658 0.929 . S
C1611 C1612 1.358 . S
C1611 C1613 1.356 . S
C1611 H1659 0.930 . S
C1612 N1609 1.279 . S
C1612 C1611 1.358 . S
C1612 H1615 0.930 . S
C1613 C1610 1.348 . S
C1613 C1611 1.356 . S
H1614 C1608 0.930 . S
H1615 C1612 0.930 . S
C1616 C1618 1.348 . S
C1616 C1619 1.356 . S
C1616 O1646 1.325 . S
N1617 C1620 1.314 . S
N1617 C1621 1.279 . S
C1618 C1616 1.348 . S
C1618 C1620 1.353 . S
C1618 H1660 0.929 . S
C1619 C1616 1.356 . S
C1619 C1621 1.358 . S
C1619 H1661 0.930 . S
C1620 N1617 1.314 . S
C1620 C1618 1.353 . S
C1620 H1662 0.930 . S
C1621 N1617 1.279 . S
C1621 C1619 1.358 . S
C1621 H1663 0.930 . S
C1622 C1623 1.348 . S
C1622 C1624 1.356 . S
C1622 O1647 1.325 . S
C1623 C1622 1.348 . S
C1623 C1625 1.353 . S
C1623 H1664 0.929 . S
C1624 C1622 1.356 . S
C1624 C1626 1.358 . S
C1624 H1665 0.930 . S
C1625 C1623 1.353 . S
C1625 N1627 1.314 . S
C1625 H1666 0.930 . S
C1626 C1624 1.358 . S
C1626 N1627 1.279 . S
C1626 H1667 0.930 . S
N1627 C1625 1.314 . S
N1627 C1626 1.279 . S
C1628 C1630 1.353 . S
C1628 N1631 1.314 . S
C1628 H1634 0.930 . S
C1629 N1631 1.279 . S
C1629 C1632 1.358 . S
C1629 H1635 0.930 . S
C1630 C1628 1.353 . S
C1630 C1633 1.348 . S
C1630 H1668 0.929 . S
N1631 Li1586 1.990 . S
N1631 C1628 1.314 . S
N1631 C1629 1.279 . S
C1632 C1629 1.358 . S
C1632 C1633 1.356 . S
C1632 H1669 0.930 . S
C1633 C1630 1.348 . S
C1633 C1632 1.356 . S
H1634 C1628 0.930 . S
H1635 C1629 0.930 . S
C1636 N1637 1.314 . S
C1636 C1638 1.353 . S
C1636 H1642 0.930 . S
N1637 Li1587 1.990 . S
N1637 C1636 1.314 . S
N1637 C1640 1.279 . S
C1638 C1636 1.353 . S
C1638 C1641 1.348 . S
C1638 H1670 0.929 . S
C1639 C1640 1.358 . S
C1639 C1641 1.356 . S
C1639 H1671 0.930 . S
C1640 N1637 1.279 . S
C1640 C1639 1.358 . S
C1640 H1643 0.930 . S
C1641 C1638 1.348 . S
C1641 C1639 1.356 . S
H1642 C1636 0.930 . S
H1643 C1640 0.930 . S
O1644 Li1584 1.956 . S
O1644 Li1585 1.970 . S
O1644 Li1586 1.961 . S
O1644 C1588 1.325 . S
O1645 Li1584 1.970 . S
O1645 Li1585 1.956 . S
O1645 Li1587 1.961 . S
O1645 C1594 1.325 . S
O1646 Li1584 1.961 . S
O1646 Li1586 1.956 . S
O1646 Li1587 1.970 . S
O1646 C1616 1.325 . S
O1647 Li1585 1.961 . S
O1647 Li1586 1.970 . S
O1647 Li1587 1.956 . S
O1647 C1622 1.325 . S
H1648 C1590 0.929 . S
H1649 C1591 0.930 . S
H1650 C1592 0.930 . S
H1651 C1593 0.930 . S
H1652 C1595 0.930 . S
H1653 C1597 0.929 . S
H1654 C1598 0.930 . S
H1655 C1599 0.930 . S
H1656 C1602 0.930 . S
H1657 C1605 0.929 . S
H1658 C1610 0.929 . S
H1659 C1611 0.930 . S
H1660 C1618 0.929 . S
H1661 C1619 0.930 . S
H1662 C1620 0.930 . S
H1663 C1621 0.930 . S
H1664 C1623 0.929 . S
H1665 C1624 0.930 . S
H1666 C1625 0.930 . S
H1667 C1626 0.930 . S
H1668 C1630 0.929 . S
H1669 C1632 0.930 . S
H1670 C1638 0.929 . S
H1671 C1639 0.930 . S
Li1672 N1689 1.990 . S
Li1672 O1732 1.956 . S
Li1672 O1733 1.970 . S
Li1672 O1734 1.961 . S
Li1673 N1697 1.990 . S
Li1673 O1732 1.970 . S
Li1673 O1733 1.956 . S
Li1673 O1735 1.961 . S
Li1674 N1719 1.990 . S
Li1674 O1732 1.961 . S
Li1674 O1734 1.956 . S
Li1674 O1735 1.970 . S
Li1675 N1725 1.990 . S
Li1675 O1733 1.961 . S
Li1675 O1734 1.970 . S
Li1675 O1735 1.956 . S
C1676 C1678 1.348 . S
C1676 C1679 1.356 . S
C1676 O1732 1.325 . S
N1677 C1680 1.314 . S
N1677 C1681 1.279 . S
C1678 C1676 1.348 . S
C1678 C1680 1.353 . S
C1678 H1736 0.929 . S
C1679 C1676 1.356 . S
C1679 C1681 1.358 . S
C1679 H1737 0.930 . S
C1680 N1677 1.314 . S
C1680 C1678 1.353 . S
C1680 H1738 0.930 . S
C1681 N1677 1.279 . S
C1681 C1679 1.358 . S
C1681 H1739 0.930 . S
C1682 C1685 1.348 . S
C1682 C1686 1.356 . S
C1682 O1733 1.325 . S
C1683 N1684 1.279 . S
C1683 C1686 1.358 . S
C1683 H1740 0.930 . S
N1684 C1683 1.279 . S
N1684 C1687 1.314 . S
C1685 C1682 1.348 . S
C1685 C1687 1.353 . S
C1685 H1741 0.929 . S
C1686 C1682 1.356 . S
C1686 C1683 1.358 . S
C1686 H1742 0.930 . S
C1687 N1684 1.314 . S
C1687 C1685 1.353 . S
C1687 H1743 0.930 . S
C1688 N1689 1.314 . S
C1688 C1693 1.353 . S
C1688 H1694 0.930 . S
N1689 Li1672 1.990 . S
N1689 C1688 1.314 . S
N1689 C1691 1.279 . S
C1690 C1691 1.358 . S
C1690 C1692 1.356 . S
C1690 H1744 0.930 . S
C1691 N1689 1.279 . S
C1691 C1690 1.358 . S
C1691 H1695 0.930 . S
C1692 C1690 1.356 . S
C1692 C1693 1.348 . S
C1693 C1688 1.353 . S
C1693 C1692 1.348 . S
C1693 H1745 0.929 . S
H1694 C1688 0.930 . S
H1695 C1691 0.930 . S
C1696 N1697 1.314 . S
C1696 C1698 1.353 . S
C1696 H1702 0.930 . S
N1697 Li1673 1.990 . S
N1697 C1696 1.314 . S
N1697 C1700 1.279 . S
C1698 C1696 1.353 . S
C1698 C1701 1.348 . S
C1698 H1746 0.929 . S
C1699 C1700 1.358 . S
C1699 C1701 1.356 . S
C1699 H1747 0.930 . S
C1700 N1697 1.279 . S
C1700 C1699 1.358 . S
C1700 H1703 0.930 . S
C1701 C1698 1.348 . S
C1701 C1699 1.356 . S
H1702 C1696 0.930 . S
H1703 C1700 0.930 . S
C1704 C1706 1.348 1_545 S
C1704 C1707 1.356 . S
C1704 O1734 1.325 . S
N1705 C1708 1.314 . S
N1705 C1709 1.279 . S
C1706 C1704 1.348 1_565 S
C1706 C1708 1.353 . S
C1706 H1748 0.929 . S
C1707 C1704 1.356 . S
C1707 C1709 1.358 1_545 S
C1707 H1749 0.930 . S
C1708 N1705 1.314 . S
C1708 C1706 1.353 . S
C1708 H1750 0.930 . S
C1709 N1705 1.279 . S
C1709 C1707 1.358 1_565 S
C1709 H1751 0.930 . S
C1710 C1711 1.348 . S
C1710 C1712 1.356 . S
C1710 O1735 1.325 . S
C1711 C1710 1.348 . S
C1711 C1713 1.353 . S
C1711 H1752 0.929 . S
C1712 C1710 1.356 . S
C1712 C1714 1.358 . S
C1712 H1753 0.930 . S
C1713 C1711 1.353 . S
C1713 N1715 1.314 . S
C1713 H1754 0.930 . S
C1714 C1712 1.358 . S
C1714 N1715 1.279 . S
C1714 H1755 0.930 . S
N1715 C1713 1.314 . S
N1715 C1714 1.279 . S
C1716 C1718 1.353 . S
C1716 N1719 1.314 . S
C1716 H1722 0.930 . S
C1717 N1719 1.279 . S
C1717 C1720 1.358 . S
C1717 H1723 0.930 . S
C1718 C1716 1.353 . S
C1718 C1721 1.348 . S
C1718 H1756 0.929 . S
N1719 Li1674 1.990 . S
N1719 C1716 1.314 . S
N1719 C1717 1.279 . S
C1720 C1717 1.358 . S
C1720 C1721 1.356 . S
C1720 H1757 0.930 . S
C1721 C1718 1.348 . S
C1721 C1720 1.356 . S
H1722 C1716 0.930 . S
H1723 C1717 0.930 . S
C1724 N1725 1.314 . S
C1724 C1726 1.353 1_545 S
C1724 H1730 0.930 . S
N1725 Li1675 1.990 . S
N1725 C1724 1.314 . S
N1725 C1728 1.279 . S
C1726 C1724 1.353 1_565 S
C1726 C1729 1.348 . S
C1726 H1758 0.929 . S
C1727 C1728 1.358 1_565 S
C1727 C1729 1.356 . S
C1727 H1759 0.930 . S
C1728 N1725 1.279 . S
C1728 C1727 1.358 1_545 S
C1728 H1731 0.930 . S
C1729 C1726 1.348 . S
C1729 C1727 1.356 . S
H1730 C1724 0.930 . S
H1731 C1728 0.930 . S
O1732 Li1672 1.956 . S
O1732 Li1673 1.970 . S
O1732 Li1674 1.961 . S
O1732 C1676 1.325 . S
O1733 Li1672 1.970 . S
O1733 Li1673 1.956 . S
O1733 Li1675 1.961 . S
O1733 C1682 1.325 . S
O1734 Li1672 1.961 . S
O1734 Li1674 1.956 . S
O1734 Li1675 1.970 . S
O1734 C1704 1.325 . S
O1735 Li1673 1.961 . S
O1735 Li1674 1.970 . S
O1735 Li1675 1.956 . S
O1735 C1710 1.325 . S
H1736 C1678 0.929 . S
H1737 C1679 0.930 . S
H1738 C1680 0.930 . S
H1739 C1681 0.930 . S
H1740 C1683 0.930 . S
H1741 C1685 0.929 . S
H1742 C1686 0.930 . S
H1743 C1687 0.930 . S
H1744 C1690 0.930 . S
H1745 C1693 0.929 . S
H1746 C1698 0.929 . S
H1747 C1699 0.930 . S
H1748 C1706 0.929 . S
H1749 C1707 0.930 . S
H1750 C1708 0.930 . S
H1751 C1709 0.930 . S
H1752 C1711 0.929 . S
H1753 C1712 0.930 . S
H1754 C1713 0.930 . S
H1755 C1714 0.930 . S
H1756 C1718 0.929 . S
H1757 C1720 0.930 . S
H1758 C1726 0.929 . S
H1759 C1727 0.930 . S
Li1760 N1777 1.990 . S
Li1760 O1820 1.956 . S
Li1760 O1821 1.970 . S
Li1760 O1822 1.961 . S
Li1761 N1785 1.990 . S
Li1761 O1820 1.970 . S
Li1761 O1821 1.956 . S
Li1761 O1823 1.961 1_554 S
Li1762 N1807 1.990 . S
Li1762 O1820 1.961 1_556 S
Li1762 O1822 1.956 1_556 S
Li1762 O1823 1.970 . S
Li1763 N1813 1.992 1_554 S
Li1763 O1821 1.961 . S
Li1763 O1822 1.970 . S
Li1763 O1823 1.956 1_554 S
C1764 C1766 1.348 . S
C1764 C1767 1.356 . S
C1764 O1820 1.325 . S
N1765 C1768 1.314 . S
N1765 C1769 1.279 . S
C1766 C1764 1.348 . S
C1766 C1768 1.353 . S
C1766 H1824 0.929 . S
C1767 C1764 1.356 . S
C1767 C1769 1.358 . S
C1767 H1825 0.930 . S
C1768 N1765 1.314 . S
C1768 C1766 1.353 . S
C1768 H1826 0.930 . S
C1769 N1765 1.279 . S
C1769 C1767 1.358 . S
C1769 H1827 0.930 . S
C1770 C1773 1.348 . S
C1770 C1774 1.356 . S
C1770 O1821 1.325 . S
C1771 N1772 1.279 . S
C1771 C1774 1.358 . S
C1771 H1828 0.930 . S
N1772 C1771 1.279 . S
N1772 C1775 1.314 . S
C1773 C1770 1.348 . S
C1773 C1775 1.353 . S
C1773 H1829 0.929 . S
C1774 C1770 1.356 . S
C1774 C1771 1.358 . S
C1774 H1830 0.930 . S
C1775 N1772 1.314 . S
C1775 C1773 1.353 . S
C1775 H1831 0.930 . S
C1776 N1777 1.314 . S
C1776 C1781 1.353 . S
C1776 H1782 0.930 . S
N1777 Li1760 1.990 . S
N1777 C1776 1.314 . S
N1777 C1779 1.279 . S
C1778 C1779 1.358 . S
C1778 C1780 1.356 . S
C1778 H1832 0.930 . S
C1779 N1777 1.279 . S
C1779 C1778 1.358 . S
C1779 H1783 0.930 . S
C1780 C1778 1.356 . S
C1780 C1781 1.348 . S
C1781 C1776 1.353 . S
C1781 C1780 1.348 . S
C1781 H1833 0.929 . S
H1782 C1776 0.930 . S
H1783 C1779 0.930 . S
C1784 N1785 1.314 1_556 S
C1784 C1786 1.353 . S
C1784 H1790 0.930 . S
N1785 Li1761 1.990 . S
N1785 C1784 1.314 1_554 S
N1785 C1788 1.279 . S
C1786 C1784 1.353 . S
C1786 C1789 1.348 1_556 S
C1786 H1834 0.929 . S
C1787 C1788 1.358 . S
C1787 C1789 1.356 . S
C1787 H1835 0.930 . S
C1788 N1785 1.279 . S
C1788 C1787 1.358 . S
C1788 H1791 0.930 . S
C1789 C1786 1.348 1_554 S
C1789 C1787 1.356 . S
H1790 C1784 0.930 . S
H1791 C1788 0.930 . S
C1792 C1794 1.348 . S
C1792 C1795 1.356 . S
C1792 O1822 1.325 . S
N1793 C1796 1.314 . S
N1793 C1797 1.279 . S
C1794 C1792 1.348 . S
C1794 C1796 1.353 . S
C1794 H1836 0.929 1_554 S
C1795 C1792 1.356 . S
C1795 C1797 1.358 . S
C1795 H1837 0.930 . S
C1796 N1793 1.314 . S
C1796 C1794 1.353 . S
C1796 H1838 0.930 1_554 S
C1797 N1793 1.279 . S
C1797 C1795 1.358 . S
C1797 H1839 0.930 . S
C1798 C1799 1.348 . S
C1798 C1800 1.356 . S
C1798 O1823 1.325 . S
C1799 C1798 1.348 . S
C1799 C1801 1.353 . S
C1799 H1840 0.929 . S
C1800 C1798 1.356 . S
C1800 C1802 1.358 . S
C1800 H1841 0.930 . S
C1801 C1799 1.353 . S
C1801 N1803 1.314 . S
C1801 H1842 0.930 . S
C1802 C1800 1.358 . S
C1802 N1803 1.279 . S
C1802 H1843 0.930 . S
N1803 C1801 1.314 . S
N1803 C1802 1.279 . S
C1804 C1806 1.353 . S
C1804 N1807 1.314 . S
C1804 H1810 0.930 . S
C1805 N1807 1.279 . S
C1805 C1808 1.358 . S
C1805 H1811 0.930 . S
C1806 C1804 1.353 . S
C1806 C1809 1.348 . S
C1806 H1844 0.929 . S
N1807 Li1762 1.990 . S
N1807 C1804 1.314 . S
N1807 C1805 1.279 . S
C1808 C1805 1.358 . S
C1808 C1809 1.356 . S
C1808 H1845 0.930 . S
C1809 C1806 1.348 . S
C1809 C1808 1.356 . S
H1810 C1804 0.930 . S
H1811 C1805 0.930 . S
C1812 N1813 1.290 1_554 S
C1812 C1814 1.353 . S
C1812 H1818 0.930 . S
N1813 Li1763 1.992 1_556 S
N1813 C1812 1.290 1_556 S
N1813 C1816 1.301 . S
C1814 C1812 1.353 . S
C1814 C1817 1.348 1_554 S
C1814 H1846 0.929 . S
C1815 C1816 1.358 . S
C1815 C1817 1.356 . S
C1815 H1847 0.930 . S
C1816 N1813 1.301 . S
C1816 C1815 1.358 . S
C1816 H1819 0.930 . S
C1817 C1814 1.348 1_556 S
C1817 C1815 1.356 . S
H1818 C1812 0.930 . S
H1819 C1816 0.930 . S
O1820 Li1760 1.956 . S
O1820 Li1761 1.970 . S
O1820 Li1762 1.961 1_554 S
O1820 C1764 1.325 . S
O1821 Li1760 1.970 . S
O1821 Li1761 1.956 . S
O1821 Li1763 1.961 . S
O1821 C1770 1.325 . S
O1822 Li1760 1.961 . S
O1822 Li1762 1.956 1_554 S
O1822 Li1763 1.970 . S
O1822 C1792 1.325 . S
O1823 Li1761 1.961 1_556 S
O1823 Li1762 1.970 . S
O1823 Li1763 1.956 1_556 S
O1823 C1798 1.325 . S
H1824 C1766 0.929 . S
H1825 C1767 0.930 . S
H1826 C1768 0.930 . S
H1827 C1769 0.930 . S
H1828 C1771 0.930 . S
H1829 C1773 0.929 . S
H1830 C1774 0.930 . S
H1831 C1775 0.930 . S
H1832 C1778 0.930 . S
H1833 C1781 0.929 . S
H1834 C1786 0.929 . S
H1835 C1787 0.930 . S
H1836 C1794 0.929 1_556 S
H1837 C1795 0.930 . S
H1838 C1796 0.930 1_556 S
H1839 C1797 0.930 . S
H1840 C1799 0.929 . S
H1841 C1800 0.930 . S
H1842 C1801 0.930 . S
H1843 C1802 0.930 . S
H1844 C1806 0.929 . S
H1845 C1808 0.930 . S
H1846 C1814 0.929 . S
H1847 C1815 0.930 . S
Li1848 N1865 1.990 . S
Li1848 O1908 1.956 . S
Li1848 O1909 1.970 . S
Li1848 O1910 1.961 . S
Li1849 N1873 1.990 . S
Li1849 O1908 1.970 . S
Li1849 O1909 1.956 . S
Li1849 O1911 1.961 . S
Li1850 N1895 1.990 . S
Li1850 O1908 1.961 . S
Li1850 O1910 1.956 . S
Li1850 O1911 1.970 . S
Li1851 N1901 1.990 . S
Li1851 O1909 1.961 . S
Li1851 O1910 1.970 . S
Li1851 O1911 1.956 . S
C1852 C1854 1.348 . S
C1852 C1855 1.356 . S
C1852 O1908 1.325 . S
N1853 C1856 1.314 . S
N1853 C1857 1.279 . S
C1854 C1852 1.348 . S
C1854 C1856 1.353 . S
C1854 H1912 0.929 . S
C1855 C1852 1.356 . S
C1855 C1857 1.358 . S
C1855 H1913 0.930 . S
C1856 N1853 1.314 . S
C1856 C1854 1.353 . S
C1856 H1914 0.930 . S
C1857 N1853 1.279 . S
C1857 C1855 1.358 . S
C1857 H1915 0.930 . S
C1858 C1861 1.348 . S
C1858 C1862 1.356 . S
C1858 O1909 1.325 . S
C1859 N1860 1.279 . S
C1859 C1862 1.358 . S
C1859 H1916 0.969 . S
N1860 C1859 1.279 . S
N1860 C1863 1.314 . S
C1861 C1858 1.348 . S
C1861 C1863 1.353 . S
C1861 H1917 0.929 . S
C1862 C1858 1.356 . S
C1862 C1859 1.358 . S
C1862 H1918 0.930 . S
C1863 N1860 1.314 . S
C1863 C1861 1.353 . S
C1863 H1919 0.930 . S
C1864 N1865 1.314 . S
C1864 C1869 1.353 . S
C1864 H1870 0.930 . S
N1865 Li1848 1.990 . S
N1865 C1864 1.314 . S
N1865 C1867 1.279 . S
C1866 C1867 1.358 . S
C1866 C1868 1.356 . S
C1866 H1920 0.930 . S
C1867 N1865 1.279 . S
C1867 C1866 1.358 . S
C1867 H1871 0.930 . S
C1868 C1866 1.356 . S
C1868 C1869 1.348 . S
C1869 C1864 1.353 . S
C1869 C1868 1.348 . S
C1869 H1921 0.929 . S
H1870 C1864 0.930 . S
H1871 C1867 0.930 . S
C1872 N1873 1.314 . S
C1872 C1874 1.353 . S
C1872 H1878 0.930 . S
N1873 Li1849 1.990 . S
N1873 C1872 1.314 . S
N1873 C1876 1.279 . S
C1874 C1872 1.353 . S
C1874 C1877 1.348 . S
C1874 H1922 0.929 . S
C1875 C1876 1.358 . S
C1875 C1877 1.356 . S
C1875 H1923 0.930 . S
C1876 N1873 1.279 . S
C1876 C1875 1.358 . S
C1876 H1879 0.930 . S
C1877 C1874 1.348 . S
C1877 C1875 1.356 . S
H1878 C1872 0.930 . S
H1879 C1876 0.930 . S
C1880 C1882 1.348 . S
C1880 C1883 1.356 . S
C1880 O1910 1.325 . S
N1881 C1884 1.314 . S
N1881 C1885 1.279 . S
C1882 C1880 1.348 . S
C1882 C1884 1.353 . S
C1882 H1924 0.929 . S
C1883 C1880 1.356 . S
C1883 C1885 1.358 . S
C1883 H1925 0.930 . S
C1884 N1881 1.314 . S
C1884 C1882 1.353 . S
C1884 H1926 0.930 . S
C1885 N1881 1.279 . S
C1885 C1883 1.358 . S
C1885 H1927 0.930 . S
C1886 C1887 1.348 . S
C1886 C1888 1.356 . S
C1886 O1911 1.325 . S
C1887 C1886 1.348 . S
C1887 C1889 1.353 . S
C1887 H1928 0.929 . S
C1888 C1886 1.356 . S
C1888 C1890 1.358 . S
C1888 H1929 0.930 . S
C1889 C1887 1.353 . S
C1889 N1891 1.314 . S
C1889 H1930 0.930 . S
C1890 C1888 1.358 . S
C1890 N1891 1.279 . S
C1890 H1931 0.930 1_655 S
N1891 C1889 1.314 . S
N1891 C1890 1.279 . S
C1892 C1894 1.353 . S
C1892 N1895 1.314 . S
C1892 H1898 0.930 . S
C1893 N1895 1.279 . S
C1893 C1896 1.358 . S
C1893 H1899 0.930 . S
C1894 C1892 1.353 . S
C1894 C1897 1.348 . S
C1894 H1932 0.929 . S
N1895 Li1850 1.990 . S
N1895 C1892 1.314 . S
N1895 C1893 1.279 . S
C1896 C1893 1.358 . S
C1896 C1897 1.356 . S
C1896 H1933 0.930 . S
C1897 C1894 1.348 . S
C1897 C1896 1.356 . S
H1898 C1892 0.930 . S
H1899 C1893 0.930 . S
C1900 N1901 1.314 . S
C1900 C1902 1.353 . S
C1900 H1906 0.930 . S
N1901 Li1851 1.990 . S
N1901 C1900 1.314 . S
N1901 C1904 1.279 . S
C1902 C1900 1.353 . S
C1902 C1905 1.348 . S
C1902 H1934 0.929 . S
C1903 C1904 1.358 . S
C1903 C1905 1.356 . S
C1903 H1935 0.930 . S
C1904 N1901 1.279 . S
C1904 C1903 1.358 . S
C1904 H1907 0.930 . S
C1905 C1902 1.348 . S
C1905 C1903 1.356 . S
H1906 C1900 0.930 . S
H1907 C1904 0.930 . S
O1908 Li1848 1.956 . S
O1908 Li1849 1.970 . S
O1908 Li1850 1.961 . S
O1908 C1852 1.325 . S
O1909 Li1848 1.970 . S
O1909 Li1849 1.956 . S
O1909 Li1851 1.961 . S
O1909 C1858 1.325 . S
O1910 Li1848 1.961 . S
O1910 Li1850 1.956 . S
O1910 Li1851 1.970 . S
O1910 C1880 1.325 . S
O1911 Li1849 1.961 . S
O1911 Li1850 1.970 . S
O1911 Li1851 1.956 . S
O1911 C1886 1.325 . S
H1912 C1854 0.929 . S
H1913 C1855 0.930 . S
H1914 C1856 0.930 . S
H1915 C1857 0.930 . S
H1916 C1859 0.969 . S
H1917 C1861 0.929 . S
H1918 C1862 0.930 . S
H1919 C1863 0.930 . S
H1920 C1866 0.930 . S
H1921 C1869 0.929 . S
H1922 C1874 0.929 . S
H1923 C1875 0.930 . S
H1924 C1882 0.929 . S
H1925 C1883 0.930 . S
H1926 C1884 0.930 . S
H1927 C1885 0.930 . S
H1928 C1887 0.929 . S
H1929 C1888 0.930 . S
H1930 C1889 0.930 . S
H1931 C1890 0.930 1_455 S
H1932 C1894 0.929 . S
H1933 C1896 0.930 . S
H1934 C1902 0.929 . S
H1935 C1903 0.930 . S
Li1936 N1953 1.990 . S
Li1936 O1996 1.956 . S
Li1936 O1997 1.970 . S
Li1936 O1998 1.961 . S
Li1937 N1961 1.990 . S
Li1937 O1996 1.970 . S
Li1937 O1997 1.956 . S
Li1937 O1999 1.961 . S
Li1938 N1983 1.990 . S
Li1938 O1996 1.961 . S
Li1938 O1998 1.956 . S
Li1938 O1999 1.970 . S
Li1939 N1989 1.990 . S
Li1939 O1997 1.961 . S
Li1939 O1998 1.970 . S
Li1939 O1999 1.956 . S
C1940 C1942 1.348 . S
C1940 C1943 1.356 . S
C1940 O1996 1.325 . S
N1941 C1944 1.314 . S
N1941 C1945 1.279 . S
C1942 C1940 1.348 . S
C1942 C1944 1.353 . S
C1942 H2000 0.929 . S
C1943 C1940 1.356 . S
C1943 C1945 1.358 . S
C1943 H2001 0.930 . S
C1944 N1941 1.314 . S
C1944 C1942 1.353 . S
C1944 H2002 0.930 . S
C1945 N1941 1.279 . S
C1945 C1943 1.358 . S
C1945 H2003 0.930 . S
C1946 C1949 1.348 . S
C1946 C1950 1.356 . S
C1946 O1997 1.325 . S
C1947 N1948 1.279 . S
C1947 C1950 1.358 . S
C1947 H2004 0.930 . S
N1948 C1947 1.279 . S
N1948 C1951 1.314 . S
C1949 C1946 1.348 . S
C1949 C1951 1.353 . S
C1949 H2005 0.929 . S
C1950 C1946 1.356 . S
C1950 C1947 1.358 . S
C1950 H2006 0.930 . S
C1951 N1948 1.314 . S
C1951 C1949 1.353 . S
C1951 H2007 0.930 . S
C1952 N1953 1.314 . S
C1952 C1957 1.353 . S
C1952 H1958 0.930 . S
N1953 Li1936 1.990 . S
N1953 C1952 1.314 . S
N1953 C1955 1.279 . S
C1954 C1955 1.358 . S
C1954 C1956 1.356 . S
C1954 H2008 0.930 . S
C1955 N1953 1.279 . S
C1955 C1954 1.358 . S
C1955 H1959 0.930 . S
C1956 C1954 1.356 . S
C1956 C1957 1.348 . S
C1957 C1952 1.353 . S
C1957 C1956 1.348 . S
C1957 H2009 0.929 . S
H1958 C1952 0.930 . S
H1959 C1955 0.930 . S
C1960 N1961 1.314 . S
C1960 C1962 1.353 . S
C1960 H1966 0.930 . S
N1961 Li1937 1.990 . S
N1961 C1960 1.314 . S
N1961 C1964 1.279 . S
C1962 C1960 1.353 . S
C1962 C1965 1.348 . S
C1962 H2010 0.929 . S
C1963 C1964 1.358 . S
C1963 C1965 1.356 . S
C1963 H2011 0.930 . S
C1964 N1961 1.279 . S
C1964 C1963 1.358 . S
C1964 H1967 0.930 . S
C1965 C1962 1.348 . S
C1965 C1963 1.356 . S
H1966 C1960 0.930 . S
H1967 C1964 0.930 . S
C1968 C1970 1.348 . S
C1968 C1971 1.356 . S
C1968 O1998 1.325 . S
N1969 C1972 1.314 . S
N1969 C1973 1.279 . S
C1970 C1968 1.348 . S
C1970 C1972 1.353 . S
C1970 H2012 0.929 . S
C1971 C1968 1.356 . S
C1971 C1973 1.358 . S
C1971 H2013 0.930 . S
C1972 N1969 1.314 . S
C1972 C1970 1.353 . S
C1972 H2014 0.930 . S
C1973 N1969 1.279 . S
C1973 C1971 1.358 . S
C1973 H2015 0.930 . S
C1974 C1975 1.348 . S
C1974 C1976 1.356 . S
C1974 O1999 1.325 . S
C1975 C1974 1.348 . S
C1975 C1977 1.353 . S
C1975 H2016 0.929 . S
C1976 C1974 1.356 . S
C1976 C1978 1.358 . S
C1976 H2017 0.930 . S
C1977 C1975 1.353 . S
C1977 N1979 1.314 . S
C1977 H2018 0.930 . S
C1978 C1976 1.358 . S
C1978 N1979 1.279 . S
C1978 H2019 0.930 . S
N1979 C1977 1.314 . S
N1979 C1978 1.279 . S
C1980 C1982 1.353 . S
C1980 N1983 1.314 . S
C1980 H1986 0.930 . S
C1981 N1983 1.279 . S
C1981 C1984 1.358 . S
C1981 H1987 0.930 . S
C1982 C1980 1.353 . S
C1982 C1985 1.348 . S
C1982 H2020 0.929 . S
N1983 Li1938 1.990 . S
N1983 C1980 1.314 . S
N1983 C1981 1.279 . S
C1984 C1981 1.358 . S
C1984 C1985 1.356 . S
C1984 H2021 0.930 . S
C1985 C1982 1.348 . S
C1985 C1984 1.356 . S
H1986 C1980 0.930 . S
H1987 C1981 0.930 . S
C1988 N1989 1.314 . S
C1988 C1990 1.353 . S
C1988 H1994 0.930 . S
N1989 Li1939 1.990 . S
N1989 C1988 1.314 . S
N1989 C1992 1.279 . S
C1990 C1988 1.353 . S
C1990 C1993 1.348 . S
C1990 H2022 0.929 . S
C1991 C1992 1.358 . S
C1991 C1993 1.356 . S
C1991 H2023 0.930 . S
C1992 N1989 1.279 . S
C1992 C1991 1.358 . S
C1992 H1995 0.930 . S
C1993 C1990 1.348 . S
C1993 C1991 1.356 . S
H1994 C1988 0.930 . S
H1995 C1992 0.930 . S
O1996 Li1936 1.956 . S
O1996 Li1937 1.970 . S
O1996 Li1938 1.961 . S
O1996 C1940 1.325 . S
O1997 Li1936 1.970 . S
O1997 Li1937 1.956 . S
O1997 Li1939 1.961 . S
O1997 C1946 1.325 . S
O1998 Li1936 1.961 . S
O1998 Li1938 1.956 . S
O1998 Li1939 1.970 . S
O1998 C1968 1.325 . S
O1999 Li1937 1.961 . S
O1999 Li1938 1.970 . S
O1999 Li1939 1.956 . S
O1999 C1974 1.325 . S
H2000 C1942 0.929 . S
H2001 C1943 0.930 . S
H2002 C1944 0.930 . S
H2003 C1945 0.930 . S
H2004 C1947 0.930 . S
H2005 C1949 0.929 . S
H2006 C1950 0.930 . S
H2007 C1951 0.930 . S
H2008 C1954 0.930 . S
H2009 C1957 0.929 . S
H2010 C1962 0.929 . S
H2011 C1963 0.930 . S
H2012 C1970 0.929 . S
H2013 C1971 0.930 . S
H2014 C1972 0.930 . S
H2015 C1973 0.930 . S
H2016 C1975 0.929 . S
H2017 C1976 0.930 . S
H2018 C1977 0.930 . S
H2019 C1978 0.930 . S
H2020 C1982 0.929 . S
H2021 C1984 0.930 . S
H2022 C1990 0.929 . S
H2023 C1991 0.930 . S
Li2024 N2041 1.990 . S
Li2024 O2084 1.956 . S
Li2024 O2085 1.970 . S
Li2024 O2086 1.961 . S
Li2025 N2049 1.990 . S
Li2025 O2084 1.970 . S
Li2025 O2085 1.956 . S
Li2025 O2087 1.961 . S
Li2026 N2071 1.990 . S
Li2026 O2084 1.961 . S
Li2026 O2086 1.956 . S
Li2026 O2087 1.970 . S
Li2027 N2077 1.990 . S
Li2027 O2085 1.961 . S
Li2027 O2086 1.970 . S
Li2027 O2087 1.956 . S
C2028 C2030 1.348 . S
C2028 C2031 1.356 . S
C2028 O2084 1.325 . S
N2029 C2032 1.314 . S
N2029 C2033 1.279 . S
C2030 C2028 1.348 . S
C2030 C2032 1.353 . S
C2030 H2088 0.929 . S
C2031 C2028 1.356 . S
C2031 C2033 1.358 . S
C2031 H2089 0.930 . S
C2032 N2029 1.314 . S
C2032 C2030 1.353 . S
C2032 H2090 0.930 . S
C2033 N2029 1.279 . S
C2033 C2031 1.358 . S
C2033 H2091 0.930 . S
C2034 C2037 1.348 . S
C2034 C2038 1.356 . S
C2034 O2085 1.325 . S
C2035 N2036 1.279 . S
C2035 C2038 1.358 . S
C2035 H2092 0.930 . S
N2036 C2035 1.279 . S
N2036 C2039 1.314 . S
C2037 C2034 1.348 . S
C2037 C2039 1.353 . S
C2037 H2093 0.929 . S
C2038 C2034 1.356 . S
C2038 C2035 1.358 . S
C2038 H2094 0.930 . S
C2039 N2036 1.314 . S
C2039 C2037 1.353 . S
C2039 H2095 0.930 . S
C2040 N2041 1.314 . S
C2040 C2045 1.353 . S
C2040 H2046 0.930 . S
N2041 Li2024 1.990 . S
N2041 C2040 1.314 . S
N2041 C2043 1.279 . S
C2042 C2043 1.358 . S
C2042 C2044 1.356 . S
C2042 H2096 0.930 . S
C2043 N2041 1.279 . S
C2043 C2042 1.358 . S
C2043 H2047 0.930 . S
C2044 C2042 1.356 . S
C2044 C2045 1.348 . S
C2045 C2040 1.353 . S
C2045 C2044 1.348 . S
C2045 H2097 0.929 . S
H2046 C2040 0.930 . S
H2047 C2043 0.930 . S
C2048 N2049 1.314 . S
C2048 C2050 1.353 . S
C2048 H2054 0.930 . S
N2049 Li2025 1.990 . S
N2049 C2048 1.314 . S
N2049 C2052 1.279 . S
C2050 C2048 1.353 . S
C2050 C2053 1.348 . S
C2050 H2098 0.929 . S
C2051 C2052 1.358 . S
C2051 C2053 1.356 . S
C2051 H2099 0.930 . S
C2052 N2049 1.279 . S
C2052 C2051 1.358 . S
C2052 H2055 0.930 . S
C2053 C2050 1.348 . S
C2053 C2051 1.356 . S
H2054 C2048 0.930 . S
H2055 C2052 0.930 . S
C2056 C2058 1.348 . S
C2056 C2059 1.356 . S
C2056 O2086 1.325 . S
N2057 C2060 1.314 . S
N2057 C2061 1.279 . S
C2058 C2056 1.348 . S
C2058 C2060 1.353 . S
C2058 H2100 0.929 . S
C2059 C2056 1.356 . S
C2059 C2061 1.358 . S
C2059 H2101 0.930 . S
C2060 N2057 1.314 . S
C2060 C2058 1.353 . S
C2060 H2102 0.930 . S
C2061 N2057 1.279 . S
C2061 C2059 1.358 . S
C2061 H2103 0.930 . S
C2062 C2063 1.348 . S
C2062 C2064 1.356 . S
C2062 O2087 1.325 . S
C2063 C2062 1.348 . S
C2063 C2065 1.353 . S
C2063 H2104 0.929 . S
C2064 C2062 1.356 . S
C2064 C2066 1.358 . S
C2064 H2105 0.930 . S
C2065 C2063 1.353 . S
C2065 N2067 1.314 . S
C2065 H2106 0.930 . S
C2066 C2064 1.358 . S
C2066 N2067 1.279 . S
C2066 H2107 0.930 . S
N2067 C2065 1.314 . S
N2067 C2066 1.279 . S
C2068 C2070 1.353 . S
C2068 N2071 1.314 . S
C2068 H2074 0.930 . S
C2069 N2071 1.279 . S
C2069 C2072 1.358 . S
C2069 H2075 0.930 . S
C2070 C2068 1.353 . S
C2070 C2073 1.348 . S
C2070 H2108 0.929 . S
N2071 Li2026 1.990 . S
N2071 C2068 1.314 . S
N2071 C2069 1.279 . S
C2072 C2069 1.358 . S
C2072 C2073 1.356 . S
C2072 H2109 0.930 . S
C2073 C2070 1.348 . S
C2073 C2072 1.356 . S
H2074 C2068 0.930 . S
H2075 C2069 0.930 . S
C2076 N2077 1.314 . S
C2076 C2078 1.353 . S
C2076 H2082 0.930 . S
N2077 Li2027 1.990 . S
N2077 C2076 1.314 . S
N2077 C2080 1.279 . S
C2078 C2076 1.353 . S
C2078 C2081 1.348 . S
C2078 H2110 0.929 . S
C2079 C2080 1.358 . S
C2079 C2081 1.356 . S
C2079 H2111 0.930 . S
C2080 N2077 1.279 . S
C2080 C2079 1.358 . S
C2080 H2083 0.930 . S
C2081 C2078 1.348 . S
C2081 C2079 1.356 . S
H2082 C2076 0.930 . S
H2083 C2080 0.930 . S
O2084 Li2024 1.956 . S
O2084 Li2025 1.970 . S
O2084 Li2026 1.961 . S
O2084 C2028 1.325 . S
O2085 Li2024 1.970 . S
O2085 Li2025 1.956 . S
O2085 Li2027 1.961 . S
O2085 C2034 1.325 . S
O2086 Li2024 1.961 . S
O2086 Li2026 1.956 . S
O2086 Li2027 1.970 . S
O2086 C2056 1.325 . S
O2087 Li2025 1.961 . S
O2087 Li2026 1.970 . S
O2087 Li2027 1.956 . S
O2087 C2062 1.325 . S
H2088 C2030 0.929 . S
H2089 C2031 0.930 . S
H2090 C2032 0.930 . S
H2091 C2033 0.930 . S
H2092 C2035 0.930 . S
H2093 C2037 0.929 . S
H2094 C2038 0.930 . S
H2095 C2039 0.930 . S
H2096 C2042 0.930 . S
H2097 C2045 0.929 . S
H2098 C2050 0.929 . S
H2099 C2051 0.930 . S
H2100 C2058 0.929 . S
H2101 C2059 0.930 . S
H2102 C2060 0.930 . S
H2103 C2061 0.930 . S
H2104 C2063 0.929 . S
H2105 C2064 0.930 . S
H2106 C2065 0.930 . S
H2107 C2066 0.930 . S
H2108 C2070 0.929 . S
H2109 C2072 0.930 . S
H2110 C2078 0.929 . S
H2111 C2079 0.930 . S
Eu2112 C2121 2.828 . S
Eu2112 O2123 2.392 . S
Eu2112 O2125 2.418 . S
Eu2112 O2130 2.373 . S
Eu2112 O2133 2.488 . S
Eu2112 O2134 2.471 1_554 S
Eu2112 O2135 2.349 1_554 S
Eu2113 O2122 2.376 1_565 S
Eu2113 O2126 2.517 1_554 S
Eu2113 O2127 2.494 . S
Eu2113 O2128 2.332 1_565 S
Eu2113 O2131 2.370 1_564 S
Eu2113 O2132 2.415 1_564 S
Eu2113 C2142 2.856 . S
C2114 O2132 1.239 . S
C2114 O2135 1.265 . S
C2115 C2116 1.379 1_554 S
C2115 C2119 1.373 . S
C2115 C2121 1.505 . S
C2116 C2115 1.379 1_556 S
C2116 C2118 1.369 . S
C2116 H2144 0.930 . S
C2117 C2119 1.383 . S
C2117 C2120 1.382 1_554 S
C2117 H2145 0.930 . S
C2118 C2116 1.369 . S
C2118 C2120 1.392 . S
C2118 H2146 0.930 . S
C2119 C2115 1.373 . S
C2119 C2117 1.383 . S
C2119 H2147 0.931 . S
C2120 C2117 1.382 1_556 S
C2120 C2118 1.392 . S
C2121 Eu2112 2.828 . S
C2121 C2115 1.505 . S
C2121 O2133 1.249 . S
C2121 O2134 1.244 1_554 S
O2122 Eu2113 2.376 1_545 S
O2122 C2124 1.258 . S
O2123 Eu2112 2.392 . S
O2123 C2124 1.242 . S
C2124 O2122 1.258 . S
C2124 O2123 1.242 . S
O2125 Eu2112 2.418 . S
O2125 C2129 1.244 . S
O2126 Eu2113 2.517 1_556 S
O2126 C2142 1.249 1_556 S
O2127 Eu2113 2.494 . S
O2127 C2142 1.244 . S
O2128 Eu2113 2.332 1_545 S
O2128 C2129 1.265 . S
C2129 O2125 1.244 . S
C2129 O2128 1.265 . S
O2130 Eu2112 2.373 . S
O2130 C2143 1.258 . S
O2131 Eu2113 2.370 1_546 S
O2131 C2143 1.242 1_556 S
O2132 Eu2113 2.415 1_546 S
O2132 C2114 1.239 . S
O2133 Eu2112 2.488 . S
O2133 C2121 1.249 . S
O2134 Eu2112 2.471 1_556 S
O2134 C2121 1.244 1_556 S
O2135 Eu2112 2.349 1_556 S
O2135 C2114 1.265 . S
C2136 C2137 1.379 . S
C2136 C2140 1.373 . S
C2136 C2142 1.505 . S
C2137 C2136 1.379 . S
C2137 C2139 1.369 . S
C2137 H2148 0.930 . S
C2138 C2140 1.383 . S
C2138 C2141 1.382 . S
C2138 H2149 0.930 . S
C2139 C2137 1.369 . S
C2139 C2141 1.392 . S
C2139 H2150 0.930 . S
C2140 C2136 1.373 . S
C2140 C2138 1.383 . S
C2140 H2151 0.931 1_554 S
C2141 C2138 1.382 . S
C2141 C2139 1.392 . S
C2142 Eu2113 2.856 . S
C2142 O2126 1.249 1_554 S
C2142 O2127 1.244 . S
C2142 C2136 1.505 . S
C2143 O2130 1.258 . S
C2143 O2131 1.242 1_554 S
H2144 C2116 0.930 . S
H2145 C2117 0.930 . S
H2146 C2118 0.930 . S
H2147 C2119 0.931 . S
H2148 C2137 0.930 . S
H2149 C2138 0.930 . S
H2150 C2139 0.930 . S
H2151 C2140 0.931 1_556 S
Eu2152 C2161 2.828 . S
Eu2152 O2163 2.392 . S
Eu2152 O2165 2.418 . S
Eu2152 O2170 2.373 . S
Eu2152 O2173 2.488 . S
Eu2152 O2174 2.471 . S
Eu2152 O2175 2.349 . S
Eu2153 O2162 2.373 . S
Eu2153 O2166 2.488 . S
Eu2153 O2167 2.471 . S
Eu2153 O2168 2.349 . S
Eu2153 O2171 2.392 . S
Eu2153 O2172 2.418 . S
Eu2153 C2182 2.828 . S
C2154 O2172 1.244 . S
C2154 O2175 1.265 . S
C2155 C2156 1.379 . S
C2155 C2159 1.373 . S
C2155 C2161 1.505 . S
C2156 C2155 1.379 . S
C2156 C2158 1.369 . S
C2156 H2184 0.930 . S
C2157 C2159 1.383 . S
C2157 C2160 1.382 . S
C2157 H2185 0.930 . S
C2158 C2156 1.369 . S
C2158 C2160 1.392 . S
C2158 H2186 0.930 . S
C2159 C2155 1.373 . S
C2159 C2157 1.383 . S
C2159 H2187 0.931 . S
C2160 C2157 1.382 . S
C2160 C2158 1.392 . S
C2161 Eu2152 2.828 . S
C2161 C2155 1.505 . S
C2161 O2173 1.249 . S
C2161 O2174 1.244 . S
O2162 Eu2153 2.373 . S
O2162 C2164 1.258 . S
O2163 Eu2152 2.392 . S
O2163 C2164 1.242 . S
C2164 O2162 1.258 . S
C2164 O2163 1.242 . S
O2165 Eu2152 2.418 . S
O2165 C2169 1.244 . S
O2166 Eu2153 2.488 . S
O2166 C2182 1.249 . S
O2167 Eu2153 2.471 . S
O2167 C2182 1.244 . S
O2168 Eu2153 2.349 . S
O2168 C2169 1.265 . S
C2169 O2165 1.244 . S
C2169 O2168 1.265 . S
O2170 Eu2152 2.373 . S
O2170 C2183 1.258 . S
O2171 Eu2153 2.392 . S
O2171 C2183 1.242 . S
O2172 Eu2153 2.418 . S
O2172 C2154 1.244 . S
O2173 Eu2152 2.488 . S
O2173 C2161 1.249 . S
O2174 Eu2152 2.471 . S
O2174 C2161 1.244 . S
O2175 Eu2152 2.349 . S
O2175 C2154 1.265 . S
C2176 C2177 1.379 . S
C2176 C2180 1.373 . S
C2176 C2182 1.505 . S
C2177 C2176 1.379 . S
C2177 C2179 1.369 . S
C2177 H2188 0.930 . S
C2178 C2180 1.383 . S
C2178 C2181 1.382 . S
C2178 H2189 0.930 . S
C2179 C2177 1.369 . S
C2179 C2181 1.392 . S
C2179 H2190 0.930 . S
C2180 C2176 1.373 . S
C2180 C2178 1.383 . S
C2180 H2191 0.931 . S
C2181 C2178 1.382 . S
C2181 C2179 1.392 . S
C2182 Eu2153 2.828 . S
C2182 O2166 1.249 . S
C2182 O2167 1.244 . S
C2182 C2176 1.505 . S
C2183 O2170 1.258 . S
C2183 O2171 1.242 . S
H2184 C2156 0.930 . S
H2185 C2157 0.930 . S
H2186 C2158 0.930 . S
H2187 C2159 0.931 . S
H2188 C2177 0.930 . S
H2189 C2178 0.930 . S
H2190 C2179 0.930 . S
H2191 C2180 0.931 . S
Eu2192 C2201 2.828 . S
Eu2192 O2203 2.392 . S
Eu2192 O2205 2.418 . S
Eu2192 O2210 2.373 1_545 S
Eu2192 O2213 2.488 . S
Eu2192 O2214 2.471 . S
Eu2192 O2215 2.349 . S
Eu2193 O2202 2.373 . S
Eu2193 O2206 2.488 . S
Eu2193 O2207 2.471 . S
Eu2193 O2208 2.349 . S
Eu2193 O2211 2.392 1_545 S
Eu2193 O2212 2.418 . S
Eu2193 C2222 2.828 . S
C2194 O2212 1.244 . S
C2194 O2215 1.265 . S
C2195 C2196 1.379 . S
C2195 C2199 1.373 . S
C2195 C2201 1.505 1_565 S
C2196 C2195 1.379 . S
C2196 C2198 1.369 . S
C2196 H2224 0.930 . S
C2197 C2199 1.383 . S
C2197 C2200 1.382 . S
C2197 H2225 0.930 . S
C2198 C2196 1.369 . S
C2198 C2200 1.392 . S
C2198 H2226 0.930 . S
C2199 C2195 1.373 . S
C2199 C2197 1.383 . S
C2199 H2227 0.894 1_565 S
C2200 C2197 1.382 . S
C2200 C2198 1.392 . S
C2201 Eu2192 2.828 . S
C2201 C2195 1.505 1_545 S
C2201 O2213 1.249 . S
C2201 O2214 1.244 . S
O2202 Eu2193 2.373 . S
O2202 C2204 1.258 . S
O2203 Eu2192 2.392 . S
O2203 C2204 1.242 . S
C2204 O2202 1.258 . S
C2204 O2203 1.242 . S
O2205 Eu2192 2.418 . S
O2205 C2209 1.244 . S
O2206 Eu2193 2.488 . S
O2206 C2222 1.249 . S
O2207 Eu2193 2.471 . S
O2207 C2222 1.244 . S
O2208 Eu2193 2.349 . S
O2208 C2209 1.265 . S
C2209 O2205 1.244 . S
C2209 O2208 1.265 . S
O2210 Eu2192 2.373 1_565 S
O2210 C2223 1.258 . S
O2211 Eu2193 2.392 1_565 S
O2211 C2223 1.242 . S
O2212 Eu2193 2.418 . S
O2212 C2194 1.244 . S
O2213 Eu2192 2.488 . S
O2213 C2201 1.249 . S
O2214 Eu2192 2.471 . S
O2214 C2201 1.244 . S
O2215 Eu2192 2.349 . S
O2215 C2194 1.265 . S
C2216 C2217 1.379 . S
C2216 C2220 1.373 . S
C2216 C2222 1.505 . S
C2217 C2216 1.379 . S
C2217 C2219 1.369 . S
C2217 H2228 0.930 . S
C2218 C2220 1.383 . S
C2218 C2221 1.382 . S
C2218 H2229 0.930 . S
C2219 C2217 1.369 . S
C2219 C2221 1.392 . S
C2219 H2230 0.930 . S
C2220 C2216 1.373 . S
C2220 C2218 1.383 . S
C2220 H2231 0.931 . S
C2221 C2218 1.382 . S
C2221 C2219 1.392 . S
C2222 Eu2193 2.828 . S
C2222 O2206 1.249 . S
C2222 O2207 1.244 . S
C2222 C2216 1.505 . S
C2223 O2210 1.258 . S
C2223 O2211 1.242 . S
H2224 C2196 0.930 . S
H2225 C2197 0.930 . S
H2226 C2198 0.930 . S
H2227 C2199 0.894 1_545 S
H2228 C2217 0.930 . S
H2229 C2218 0.930 . S
H2230 C2219 0.930 . S
H2231 C2220 0.931 . S
Eu2232 C2241 2.828 . S
Eu2232 O2243 2.392 . S
Eu2232 O2245 2.418 . S
Eu2232 O2250 2.373 . S
Eu2232 O2253 2.488 . S
Eu2232 O2254 2.471 . S
Eu2232 O2255 2.349 . S
Eu2233 O2242 2.373 . S
Eu2233 O2246 2.488 . S
Eu2233 O2247 2.471 . S
Eu2233 O2248 2.349 . S
Eu2233 O2251 2.392 . S
Eu2233 O2252 2.418 . S
Eu2233 C2262 2.828 . S
C2234 O2252 1.244 . S
C2234 O2255 1.265 . S
C2235 C2236 1.379 . S
C2235 C2239 1.373 . S
C2235 C2241 1.505 . S
C2236 C2235 1.379 . S
C2236 C2238 1.369 . S
C2236 H2264 0.930 . S
C2237 C2239 1.383 . S
C2237 C2240 1.382 . S
C2237 H2265 0.930 . S
C2238 C2236 1.369 . S
C2238 C2240 1.392 . S
C2238 H2266 0.930 . S
C2239 C2235 1.373 . S
C2239 C2237 1.383 . S
C2239 H2267 0.931 . S
C2240 C2237 1.382 . S
C2240 C2238 1.392 . S
C2241 Eu2232 2.828 . S
C2241 C2235 1.505 . S
C2241 O2253 1.249 . S
C2241 O2254 1.244 . S
O2242 Eu2233 2.373 . S
O2242 C2244 1.258 . S
O2243 Eu2232 2.392 . S
O2243 C2244 1.242 . S
C2244 O2242 1.258 . S
C2244 O2243 1.242 . S
O2245 Eu2232 2.418 . S
O2245 C2249 1.244 . S
O2246 Eu2233 2.488 . S
O2246 C2262 1.249 . S
O2247 Eu2233 2.471 . S
O2247 C2262 1.244 . S
O2248 Eu2233 2.349 . S
O2248 C2249 1.265 . S
C2249 O2245 1.244 . S
C2249 O2248 1.265 . S
O2250 Eu2232 2.373 . S
O2250 C2263 1.258 . S
O2251 Eu2233 2.392 . S
O2251 C2263 1.242 . S
O2252 Eu2233 2.418 . S
O2252 C2234 1.244 . S
O2253 Eu2232 2.488 . S
O2253 C2241 1.249 . S
O2254 Eu2232 2.471 . S
O2254 C2241 1.244 . S
O2255 Eu2232 2.349 . S
O2255 C2234 1.265 . S
C2256 C2257 1.379 . S
C2256 C2260 1.373 . S
C2256 C2262 1.505 . S
C2257 C2256 1.379 . S
C2257 C2259 1.369 . S
C2257 H2268 0.930 . S
C2258 C2260 1.383 . S
C2258 C2261 1.382 . S
C2258 H2269 0.930 . S
C2259 C2257 1.369 . S
C2259 C2261 1.392 . S
C2259 H2270 0.930 . S
C2260 C2256 1.373 . S
C2260 C2258 1.383 . S
C2260 H2271 0.931 . S
C2261 C2258 1.382 . S
C2261 C2259 1.392 . S
C2262 Eu2233 2.828 . S
C2262 O2246 1.249 . S
C2262 O2247 1.244 . S
C2262 C2256 1.505 . S
C2263 O2250 1.258 . S
C2263 O2251 1.242 . S
H2264 C2236 0.930 . S
H2265 C2237 0.930 . S
H2266 C2238 0.930 . S
H2267 C2239 0.931 . S
H2268 C2257 0.930 . S
H2269 C2258 0.930 . S
H2270 C2259 0.930 . S
H2271 C2260 0.931 . S
Eu2272 C2281 2.828 . S
Eu2272 O2283 2.392 . S
Eu2272 O2285 2.418 . S
Eu2272 O2290 2.373 . S
Eu2272 O2293 2.488 . S
Eu2272 O2294 2.471 . S
Eu2272 O2295 2.349 . S
Eu2273 O2282 2.373 . S
Eu2273 O2286 2.488 1_545 S
Eu2273 O2287 2.471 1_545 S
Eu2273 O2288 2.349 . S
Eu2273 O2291 2.392 . S
Eu2273 O2292 2.418 . S
Eu2273 C2302 2.828 1_545 S
C2274 O2292 1.244 . S
C2274 O2295 1.265 . S
C2275 C2276 1.379 . S
C2275 C2279 1.373 . S
C2275 C2281 1.505 . S
C2276 C2275 1.379 . S
C2276 C2278 1.369 . S
C2276 H2304 0.930 . S
C2277 C2279 1.383 . S
C2277 C2280 1.382 . S
C2277 H2305 0.930 1_455 S
C2278 C2276 1.369 . S
C2278 C2280 1.392 . S
C2278 H2306 0.930 . S
C2279 C2275 1.373 . S
C2279 C2277 1.383 . S
C2279 H2307 0.931 . S
C2280 C2277 1.382 . S
C2280 C2278 1.392 . S
C2281 Eu2272 2.828 . S
C2281 C2275 1.505 . S
C2281 O2293 1.249 . S
C2281 O2294 1.244 . S
O2282 Eu2273 2.373 . S
O2282 C2284 1.258 . S
O2283 Eu2272 2.392 . S
O2283 C2284 1.242 . S
C2284 O2282 1.258 . S
C2284 O2283 1.242 . S
O2285 Eu2272 2.418 . S
O2285 C2289 1.244 . S
O2286 Eu2273 2.488 1_565 S
O2286 C2302 1.249 . S
O2287 Eu2273 2.471 1_565 S
O2287 C2302 1.244 . S
O2288 Eu2273 2.349 . S
O2288 C2289 1.265 . S
C2289 O2285 1.244 . S
C2289 O2288 1.265 . S
O2290 Eu2272 2.373 . S
O2290 C2303 1.258 . S
O2291 Eu2273 2.392 . S
O2291 C2303 1.242 . S
O2292 Eu2273 2.418 . S
O2292 C2274 1.244 . S
O2293 Eu2272 2.488 . S
O2293 C2281 1.249 . S
O2294 Eu2272 2.471 . S
O2294 C2281 1.244 . S
O2295 Eu2272 2.349 . S
O2295 C2274 1.265 . S
C2296 C2297 1.379 . S
C2296 C2300 1.373 . S
C2296 C2302 1.505 . S
C2297 C2296 1.379 . S
C2297 C2299 1.369 . S
C2297 H2308 0.930 . S
C2298 C2300 1.383 . S
C2298 C2301 1.382 . S
C2298 H2309 0.930 . S
C2299 C2297 1.369 . S
C2299 C2301 1.392 . S
C2299 H2310 0.930 . S
C2300 C2296 1.373 . S
C2300 C2298 1.383 . S
C2300 H2311 0.931 . S
C2301 C2298 1.382 . S
C2301 C2299 1.392 . S
C2302 Eu2273 2.828 1_565 S
C2302 O2286 1.249 . S
C2302 O2287 1.244 . S
C2302 C2296 1.505 . S
C2303 O2290 1.258 . S
C2303 O2291 1.242 . S
H2304 C2276 0.930 . S
H2305 C2277 0.930 1_655 S
H2306 C2278 0.930 . S
H2307 C2279 0.931 . S
H2308 C2297 0.930 . S
H2309 C2298 0.930 . S
H2310 C2299 0.930 . S
H2311 C2300 0.931 . S
Eu2312 C2321 2.828 . S
Eu2312 O2323 2.392 . S
Eu2312 O2325 2.418 . S
Eu2312 O2330 2.373 . S
Eu2312 O2333 2.488 . S
Eu2312 O2334 2.471 . S
Eu2312 O2335 2.349 . S
Eu2313 O2322 2.373 . S
Eu2313 O2326 2.488 . S
Eu2313 O2327 2.471 . S
Eu2313 O2328 2.349 . S
Eu2313 O2331 2.392 . S
Eu2313 O2332 2.418 . S
Eu2313 C2342 2.828 . S
C2314 O2332 1.244 . S
C2314 O2335 1.265 . S
C2315 C2316 1.379 . S
C2315 C2319 1.373 . S
C2315 C2321 1.505 . S
C2316 C2315 1.379 . S
C2316 C2318 1.369 . S
C2316 H2344 0.930 . S
C2317 C2319 1.383 . S
C2317 C2320 1.382 . S
C2317 H2345 0.930 . S
C2318 C2316 1.369 . S
C2318 C2320 1.392 . S
C2318 H2346 0.930 . S
C2319 C2315 1.373 . S
C2319 C2317 1.383 . S
C2319 H2347 0.931 . S
C2320 C2317 1.382 . S
C2320 C2318 1.392 . S
C2321 Eu2312 2.828 . S
C2321 C2315 1.505 . S
C2321 O2333 1.249 . S
C2321 O2334 1.244 . S
O2322 Eu2313 2.373 . S
O2322 C2324 1.258 . S
O2323 Eu2312 2.392 . S
O2323 C2324 1.242 . S
C2324 O2322 1.258 . S
C2324 O2323 1.242 . S
O2325 Eu2312 2.418 . S
O2325 C2329 1.244 . S
O2326 Eu2313 2.488 . S
O2326 C2342 1.249 . S
O2327 Eu2313 2.471 . S
O2327 C2342 1.244 . S
O2328 Eu2313 2.349 . S
O2328 C2329 1.265 . S
C2329 O2325 1.244 . S
C2329 O2328 1.265 . S
O2330 Eu2312 2.373 . S
O2330 C2343 1.258 . S
O2331 Eu2313 2.392 . S
O2331 C2343 1.242 . S
O2332 Eu2313 2.418 . S
O2332 C2314 1.244 . S
O2333 Eu2312 2.488 . S
O2333 C2321 1.249 . S
O2334 Eu2312 2.471 . S
O2334 C2321 1.244 . S
O2335 Eu2312 2.349 . S
O2335 C2314 1.265 . S
C2336 C2337 1.379 . S
C2336 C2340 1.373 . S
C2336 C2342 1.505 . S
C2337 C2336 1.379 . S
C2337 C2339 1.369 . S
C2337 H2348 0.930 . S
C2338 C2340 1.383 . S
C2338 C2341 1.382 . S
C2338 H2349 0.930 . S
C2339 C2337 1.369 . S
C2339 C2341 1.392 . S
C2339 H2350 0.930 . S
C2340 C2336 1.373 . S
C2340 C2338 1.383 . S
C2340 H2351 0.931 . S
C2341 C2338 1.382 . S
C2341 C2339 1.392 . S
C2342 Eu2313 2.828 . S
C2342 O2326 1.249 . S
C2342 O2327 1.244 . S
C2342 C2336 1.505 . S
C2343 O2330 1.258 . S
C2343 O2331 1.242 . S
H2344 C2316 0.930 . S
H2345 C2317 0.930 . S
H2346 C2318 0.930 . S
H2347 C2319 0.931 . S
H2348 C2337 0.930 . S
H2349 C2338 0.930 . S
H2350 C2339 0.930 . S
H2351 C2340 0.931 . S
Eu2352 C2361 2.828 . S
Eu2352 O2363 2.392 . S
Eu2352 O2365 2.418 1_545 S
Eu2352 O2370 2.373 . S
Eu2352 O2373 2.485 1_545 S
Eu2352 O2374 2.471 . S
Eu2352 O2375 2.349 . S
Eu2353 O2362 2.373 . S
Eu2353 O2366 2.488 . S
Eu2353 O2367 2.471 . S
Eu2353 O2368 2.349 . S
Eu2353 O2371 2.392 . S
Eu2353 O2372 2.418 1_556 S
Eu2353 C2382 2.828 . S
C2354 O2372 1.244 . S
C2354 O2375 1.265 . S
C2355 C2356 1.379 . S
C2355 C2359 1.373 1_545 S
C2355 C2361 1.505 . S
C2356 C2355 1.379 . S
C2356 C2358 1.369 . S
C2356 H2384 0.930 . S
C2357 C2359 1.383 . S
C2357 C2360 1.391 . S
C2357 H2385 0.930 . S
C2358 C2356 1.369 . S
C2358 C2360 1.380 1_545 S
C2358 H2386 0.930 . S
C2359 C2355 1.373 1_565 S
C2359 C2357 1.383 . S
C2359 H2387 0.931 . S
C2360 C2357 1.391 . S
C2360 C2358 1.380 1_565 S
C2361 Eu2352 2.828 . S
C2361 C2355 1.505 . S
C2361 O2373 1.245 1_545 S
C2361 O2374 1.244 . S
O2362 Eu2353 2.373 . S
O2362 C2364 1.258 1_556 S
O2363 Eu2352 2.392 . S
O2363 C2364 1.242 . S
C2364 O2362 1.258 1_554 S
C2364 O2363 1.242 . S
O2365 Eu2352 2.418 1_565 S
O2365 C2369 1.228 1_554 S
O2366 Eu2353 2.488 . S
O2366 C2382 1.249 . S
O2367 Eu2353 2.471 . S
O2367 C2382 1.244 . S
O2368 Eu2353 2.349 . S
O2368 C2369 1.271 1_545 S
C2369 O2365 1.228 1_556 S
C2369 O2368 1.271 1_565 S
O2370 Eu2352 2.373 . S
O2370 C2383 1.258 . S
O2371 Eu2353 2.392 . S
O2371 C2383 1.242 1_556 S
O2372 Eu2353 2.418 1_554 S
O2372 C2354 1.244 . S
O2373 Eu2352 2.485 1_565 S
O2373 C2361 1.245 1_565 S
O2374 Eu2352 2.471 . S
O2374 C2361 1.244 . S
O2375 Eu2352 2.349 . S
O2375 C2354 1.265 . S
C2376 C2377 1.379 . S
C2376 C2380 1.373 . S
C2376 C2382 1.505 . S
C2377 C2376 1.379 . S
C2377 C2379 1.369 . S
C2377 H2388 0.930 . S
C2378 C2380 1.383 . S
C2378 C2381 1.382 . S
C2378 H2389 0.930 . S
C2379 C2377 1.369 . S
C2379 C2381 1.392 . S
C2379 H2390 0.930 . S
C2380 C2376 1.373 . S
C2380 C2378 1.383 . S
C2380 H2391 0.931 . S
C2381 C2378 1.382 . S
C2381 C2379 1.392 . S
C2382 Eu2353 2.828 . S
C2382 O2366 1.249 . S
C2382 O2367 1.244 . S
C2382 C2376 1.505 . S
C2383 O2370 1.258 . S
C2383 O2371 1.242 1_554 S
H2384 C2356 0.930 . S
H2385 C2357 0.930 . S
H2386 C2358 0.930 . S
H2387 C2359 0.931 . S
H2388 C2377 0.930 . S
H2389 C2378 0.930 . S
H2390 C2379 0.930 . S
H2391 C2380 0.931 . S
Eu2392 C2401 2.828 . S
Eu2392 O2403 2.392 . S
Eu2392 O2405 2.418 . S
Eu2392 O2410 2.373 . S
Eu2392 O2413 2.488 . S
Eu2392 O2414 2.471 . S
Eu2392 O2415 2.349 . S
Eu2393 O2402 2.373 . S
Eu2393 O2406 2.488 . S
Eu2393 O2407 2.471 . S
Eu2393 O2408 2.349 . S
Eu2393 O2411 2.392 . S
Eu2393 O2412 2.418 . S
Eu2393 C2422 2.828 . S
C2394 O2412 1.244 . S
C2394 O2415 1.265 . S
C2395 C2396 1.379 . S
C2395 C2399 1.373 . S
C2395 C2401 1.505 . S
C2396 C2395 1.379 . S
C2396 C2398 1.369 . S
C2396 H2424 0.930 . S
C2397 C2399 1.383 . S
C2397 C2400 1.382 . S
C2397 H2425 0.930 . S
C2398 C2396 1.369 . S
C2398 C2400 1.392 . S
C2398 H2426 0.930 . S
C2399 C2395 1.373 . S
C2399 C2397 1.383 . S
C2399 H2427 0.931 . S
C2400 C2397 1.382 . S
C2400 C2398 1.392 . S
C2401 Eu2392 2.828 . S
C2401 C2395 1.505 . S
C2401 O2413 1.249 . S
C2401 O2414 1.244 . S
O2402 Eu2393 2.373 . S
O2402 C2404 1.258 . S
O2403 Eu2392 2.392 . S
O2403 C2404 1.242 . S
C2404 O2402 1.258 . S
C2404 O2403 1.242 . S
O2405 Eu2392 2.418 . S
O2405 C2409 1.244 . S
O2406 Eu2393 2.488 . S
O2406 C2422 1.249 . S
O2407 Eu2393 2.471 . S
O2407 C2422 1.244 . S
O2408 Eu2393 2.349 . S
O2408 C2409 1.265 . S
C2409 O2405 1.244 . S
C2409 O2408 1.265 . S
O2410 Eu2392 2.373 . S
O2410 C2423 1.258 . S
O2411 Eu2393 2.392 . S
O2411 C2423 1.242 . S
O2412 Eu2393 2.418 . S
O2412 C2394 1.244 . S
O2413 Eu2392 2.488 . S
O2413 C2401 1.249 . S
O2414 Eu2392 2.471 . S
O2414 C2401 1.244 . S
O2415 Eu2392 2.349 . S
O2415 C2394 1.265 . S
C2416 C2417 1.379 . S
C2416 C2420 1.373 . S
C2416 C2422 1.505 . S
C2417 C2416 1.379 . S
C2417 C2419 1.369 . S
C2417 H2428 0.930 . S
C2418 C2420 1.383 . S
C2418 C2421 1.382 . S
C2418 H2429 0.930 . S
C2419 C2417 1.369 . S
C2419 C2421 1.392 . S
C2419 H2430 0.930 . S
C2420 C2416 1.373 . S
C2420 C2418 1.383 . S
C2420 H2431 0.931 . S
C2421 C2418 1.382 . S
C2421 C2419 1.392 . S
C2422 Eu2393 2.828 . S
C2422 O2406 1.249 . S
C2422 O2407 1.244 . S
C2422 C2416 1.505 . S
C2423 O2410 1.258 . S
C2423 O2411 1.242 . S
H2424 C2396 0.930 . S
H2425 C2397 0.930 . S
H2426 C2398 0.930 . S
H2427 C2399 0.931 . S
H2428 C2417 0.930 . S
H2429 C2418 0.930 . S
H2430 C2419 0.930 . S
H2431 C2420 0.931 . S
Eu2432 C2441 2.828 . S
Eu2432 O2443 2.392 . S
Eu2432 O2445 2.418 . S
Eu2432 O2450 2.373 1_554 S
Eu2432 O2453 2.488 . S
Eu2432 O2454 2.471 . S
Eu2432 O2455 2.349 . S
Eu2433 O2442 2.411 . S
Eu2433 O2446 2.503 . S
Eu2433 O2447 2.496 . S
Eu2433 O2448 2.363 . S
Eu2433 O2451 2.359 1_554 S
Eu2433 O2452 2.414 . S
Eu2433 C2462 2.851 . S
C2434 O2452 1.244 . S
C2434 O2455 1.265 . S
C2435 C2436 1.379 . S
C2435 C2439 1.379 . S
C2435 C2441 1.505 1_556 S
C2436 C2435 1.379 . S
C2436 C2438 1.369 . S
C2436 H2464 0.930 . S
C2437 C2439 1.411 . S
C2437 C2440 1.382 . S
C2437 H2465 0.930 . S
C2438 C2436 1.369 . S
C2438 C2440 1.392 . S
C2438 H2466 0.930 . S
C2439 C2435 1.379 . S
C2439 C2437 1.411 . S
C2439 H2467 0.898 1_556 S
C2440 C2437 1.382 . S
C2440 C2438 1.392 . S
C2441 Eu2432 2.828 . S
C2441 C2435 1.505 1_554 S
C2441 O2453 1.249 . S
C2441 O2454 1.244 . S
O2442 Eu2433 2.411 . S
O2442 C2444 1.258 . S
O2443 Eu2432 2.392 . S
O2443 C2444 1.242 . S
C2444 O2442 1.258 . S
C2444 O2443 1.242 . S
O2445 Eu2432 2.418 . S
O2445 C2449 1.244 . S
O2446 Eu2433 2.503 . S
O2446 C2462 1.249 . S
O2447 Eu2433 2.496 . S
O2447 C2462 1.244 . S
O2448 Eu2433 2.363 . S
O2448 C2449 1.265 . S
C2449 O2445 1.244 . S
C2449 O2448 1.265 . S
O2450 Eu2432 2.373 1_556 S
O2450 C2463 1.258 . S
O2451 Eu2433 2.359 1_556 S
O2451 C2463 1.242 . S
O2452 Eu2433 2.414 . S
O2452 C2434 1.244 . S
O2453 Eu2432 2.488 . S
O2453 C2441 1.249 . S
O2454 Eu2432 2.471 . S
O2454 C2441 1.244 . S
O2455 Eu2432 2.349 . S
O2455 C2434 1.265 . S
C2456 C2457 1.379 . S
C2456 C2460 1.373 . S
C2456 C2462 1.505 . S
C2457 C2456 1.379 . S
C2457 C2459 1.369 . S
C2457 H2468 0.930 . S
C2458 C2460 1.383 . S
C2458 C2461 1.382 . S
C2458 H2469 0.930 . S
C2459 C2457 1.369 . S
C2459 C2461 1.392 . S
C2459 H2470 0.930 . S
C2460 C2456 1.373 . S
C2460 C2458 1.383 . S
C2460 H2471 0.931 . S
C2461 C2458 1.382 . S
C2461 C2459 1.392 . S
C2462 Eu2433 2.851 . S
C2462 O2446 1.249 . S
C2462 O2447 1.244 . S
C2462 C2456 1.505 . S
C2463 O2450 1.258 . S
C2463 O2451 1.242 . S
H2464 C2436 0.930 . S
H2465 C2437 0.930 . S
H2466 C2438 0.930 . S
H2467 C2439 0.898 1_554 S
H2468 C2457 0.930 . S
H2469 C2458 0.930 . S
H2470 C2459 0.930 . S
H2471 C2460 0.931 . S
Eu2472 C2481 2.828 . S
Eu2472 O2483 2.392 . S
Eu2472 O2485 2.418 . S
Eu2472 O2490 2.373 . S
Eu2472 O2493 2.488 . S
Eu2472 O2494 2.471 . S
Eu2472 O2495 2.349 . S
Eu2473 O2482 2.373 . S
Eu2473 O2486 2.488 . S
Eu2473 O2487 2.471 . S
Eu2473 O2488 2.349 . S
Eu2473 O2491 2.392 . S
Eu2473 O2492 2.418 . S
Eu2473 C2502 2.828 . S
C2474 O2492 1.244 . S
C2474 O2495 1.265 . S
C2475 C2476 1.379 . S
C2475 C2479 1.373 . S
C2475 C2481 1.505 . S
C2476 C2475 1.379 . S
C2476 C2478 1.369 . S
C2476 H2504 0.930 . S
C2477 C2479 1.383 . S
C2477 C2480 1.382 . S
C2477 H2505 0.930 . S
C2478 C2476 1.369 . S
C2478 C2480 1.392 . S
C2478 H2506 0.930 . S
C2479 C2475 1.373 . S
C2479 C2477 1.383 . S
C2479 H2507 0.931 . S
C2480 C2477 1.382 . S
C2480 C2478 1.392 . S
C2481 Eu2472 2.828 . S
C2481 C2475 1.505 . S
C2481 O2493 1.249 . S
C2481 O2494 1.244 . S
O2482 Eu2473 2.373 . S
O2482 C2484 1.258 . S
O2483 Eu2472 2.392 . S
O2483 C2484 1.242 . S
C2484 O2482 1.258 . S
C2484 O2483 1.242 . S
O2485 Eu2472 2.418 . S
O2485 C2489 1.244 . S
O2486 Eu2473 2.488 . S
O2486 C2502 1.249 . S
O2487 Eu2473 2.471 . S
O2487 C2502 1.244 . S
O2488 Eu2473 2.349 . S
O2488 C2489 1.265 . S
C2489 O2485 1.244 . S
C2489 O2488 1.265 . S
O2490 Eu2472 2.373 . S
O2490 C2503 1.258 . S
O2491 Eu2473 2.392 . S
O2491 C2503 1.242 . S
O2492 Eu2473 2.418 . S
O2492 C2474 1.244 . S
O2493 Eu2472 2.488 . S
O2493 C2481 1.249 . S
O2494 Eu2472 2.471 . S
O2494 C2481 1.244 . S
O2495 Eu2472 2.349 . S
O2495 C2474 1.265 . S
C2496 C2497 1.379 . S
C2496 C2500 1.373 . S
C2496 C2502 1.505 . S
C2497 C2496 1.379 . S
C2497 C2499 1.369 . S
C2497 H2508 0.930 . S
C2498 C2500 1.383 . S
C2498 C2501 1.382 . S
C2498 H2509 0.930 . S
C2499 C2497 1.369 . S
C2499 C2501 1.392 . S
C2499 H2510 0.930 . S
C2500 C2496 1.373 . S
C2500 C2498 1.383 . S
C2500 H2511 0.931 . S
C2501 C2498 1.382 . S
C2501 C2499 1.392 . S
C2502 Eu2473 2.828 . S
C2502 O2486 1.249 . S
C2502 O2487 1.244 . S
C2502 C2496 1.505 . S
C2503 O2490 1.258 . S
C2503 O2491 1.242 . S
H2504 C2476 0.930 . S
H2505 C2477 0.930 . S
H2506 C2478 0.930 . S
H2507 C2479 0.931 . S
H2508 C2497 0.930 . S
H2509 C2498 0.930 . S
H2510 C2499 0.930 . S
H2511 C2500 0.931 . S
Eu2512 C2521 2.828 . S
Eu2512 O2523 2.392 . S
Eu2512 O2525 2.418 . S
Eu2512 O2530 2.373 . S
Eu2512 O2533 2.488 . S
Eu2512 O2534 2.471 . S
Eu2512 O2535 2.349 . S
Eu2513 O2522 2.373 . S
Eu2513 O2526 2.488 . S
Eu2513 O2527 2.471 . S
Eu2513 O2528 2.349 . S
Eu2513 O2531 2.392 . S
Eu2513 O2532 2.418 . S
Eu2513 C2542 2.828 . S
C2514 O2532 1.244 . S
C2514 O2535 1.265 . S
C2515 C2516 1.379 1_455 S
C2515 C2519 1.373 . S
C2515 C2521 1.505 . S
C2516 C2515 1.379 1_655 S
C2516 C2518 1.369 . S
C2516 H2544 0.930 . S
C2517 C2519 1.386 . S
C2517 C2520 1.378 1_455 S
C2517 H2545 0.923 . S
C2518 C2516 1.369 . S
C2518 C2520 1.392 . S
C2518 H2546 0.930 . S
C2519 C2515 1.373 . S
C2519 C2517 1.386 . S
C2519 H2547 0.931 . S
C2520 C2517 1.378 1_655 S
C2520 C2518 1.392 . S
C2521 Eu2512 2.828 . S
C2521 C2515 1.505 . S
C2521 O2533 1.249 . S
C2521 O2534 1.244 . S
O2522 Eu2513 2.373 . S
O2522 C2524 1.258 . S
O2523 Eu2512 2.392 . S
O2523 C2524 1.242 . S
C2524 O2522 1.258 . S
C2524 O2523 1.242 . S
O2525 Eu2512 2.418 . S
O2525 C2529 1.244 . S
O2526 Eu2513 2.488 . S
O2526 C2542 1.249 . S
O2527 Eu2513 2.471 . S
O2527 C2542 1.244 . S
O2528 Eu2513 2.349 . S
O2528 C2529 1.265 . S
C2529 O2525 1.244 . S
C2529 O2528 1.265 . S
O2530 Eu2512 2.373 . S
O2530 C2543 1.258 . S
O2531 Eu2513 2.392 . S
O2531 C2543 1.242 . S
O2532 Eu2513 2.418 . S
O2532 C2514 1.244 . S
O2533 Eu2512 2.488 . S
O2533 C2521 1.249 . S
O2534 Eu2512 2.471 . S
O2534 C2521 1.244 . S
O2535 Eu2512 2.349 . S
O2535 C2514 1.265 . S
C2536 C2537 1.379 . S
C2536 C2540 1.373 . S
C2536 C2542 1.505 . S
C2537 C2536 1.379 . S
C2537 C2539 1.369 . S
C2537 H2548 0.930 . S
C2538 C2540 1.383 . S
C2538 C2541 1.382 . S
C2538 H2549 0.930 . S
C2539 C2537 1.369 . S
C2539 C2541 1.392 . S
C2539 H2550 0.930 . S
C2540 C2536 1.373 . S
C2540 C2538 1.383 . S
C2540 H2551 0.931 . S
C2541 C2538 1.382 . S
C2541 C2539 1.392 . S
C2542 Eu2513 2.828 . S
C2542 O2526 1.249 . S
C2542 O2527 1.244 . S
C2542 C2536 1.505 . S
C2543 O2530 1.258 . S
C2543 O2531 1.242 . S
H2544 C2516 0.930 . S
H2545 C2517 0.923 . S
H2546 C2518 0.930 . S
H2547 C2519 0.931 . S
H2548 C2537 0.930 . S
H2549 C2538 0.930 . S
H2550 C2539 0.930 . S
H2551 C2540 0.931 . S
Eu2552 C2561 2.828 . S
Eu2552 O2563 2.392 . S
Eu2552 O2565 2.418 . S
Eu2552 O2570 2.373 . S
Eu2552 O2573 2.488 . S
Eu2552 O2574 2.471 . S
Eu2552 O2575 2.349 . S
Eu2553 O2562 2.373 . S
Eu2553 O2566 2.488 . S
Eu2553 O2567 2.471 . S
Eu2553 O2568 2.349 . S
Eu2553 O2571 2.392 . S
Eu2553 O2572 2.418 . S
Eu2553 C2582 2.828 . S
C2554 O2572 1.244 . S
C2554 O2575 1.265 . S
C2555 C2556 1.379 . S
C2555 C2559 1.373 . S
C2555 C2561 1.505 . S
C2556 C2555 1.379 . S
C2556 C2558 1.369 . S
C2556 H2584 0.930 . S
C2557 C2559 1.383 . S
C2557 C2560 1.382 . S
C2557 H2585 0.930 . S
C2558 C2556 1.369 . S
C2558 C2560 1.392 . S
C2558 H2586 0.930 . S
C2559 C2555 1.373 . S
C2559 C2557 1.383 . S
C2559 H2587 0.931 . S
C2560 C2557 1.382 . S
C2560 C2558 1.392 . S
C2561 Eu2552 2.828 . S
C2561 C2555 1.505 . S
C2561 O2573 1.249 . S
C2561 O2574 1.244 . S
O2562 Eu2553 2.373 . S
O2562 C2564 1.258 . S
O2563 Eu2552 2.392 . S
O2563 C2564 1.242 . S
C2564 O2562 1.258 . S
C2564 O2563 1.242 . S
O2565 Eu2552 2.418 . S
O2565 C2569 1.244 . S
O2566 Eu2553 2.488 . S
O2566 C2582 1.249 . S
O2567 Eu2553 2.471 . S
O2567 C2582 1.244 . S
O2568 Eu2553 2.349 . S
O2568 C2569 1.265 . S
C2569 O2565 1.244 . S
C2569 O2568 1.265 . S
O2570 Eu2552 2.373 . S
O2570 C2583 1.258 . S
O2571 Eu2553 2.392 . S
O2571 C2583 1.242 . S
O2572 Eu2553 2.418 . S
O2572 C2554 1.244 . S
O2573 Eu2552 2.488 . S
O2573 C2561 1.249 . S
O2574 Eu2552 2.471 . S
O2574 C2561 1.244 . S
O2575 Eu2552 2.349 . S
O2575 C2554 1.265 . S
C2576 C2577 1.379 . S
C2576 C2580 1.373 . S
C2576 C2582 1.505 . S
C2577 C2576 1.379 . S
C2577 C2579 1.369 . S
C2577 H2588 0.930 . S
C2578 C2580 1.383 . S
C2578 C2581 1.382 . S
C2578 H2589 0.930 . S
C2579 C2577 1.369 . S
C2579 C2581 1.392 . S
C2579 H2590 0.930 . S
C2580 C2576 1.373 . S
C2580 C2578 1.383 . S
C2580 H2591 0.931 . S
C2581 C2578 1.382 . S
C2581 C2579 1.392 . S
C2582 Eu2553 2.828 . S
C2582 O2566 1.249 . S
C2582 O2567 1.244 . S
C2582 C2576 1.505 . S
C2583 O2570 1.258 . S
C2583 O2571 1.242 . S
H2584 C2556 0.930 . S
H2585 C2557 0.930 . S
H2586 C2558 0.930 . S
H2587 C2559 0.931 . S
H2588 C2577 0.930 . S
H2589 C2578 0.930 . S
H2590 C2579 0.930 . S
H2591 C2580 0.931 . S
Eu2592 C2601 2.828 . S
Eu2592 O2603 2.392 . S
Eu2592 O2605 2.418 . S
Eu2592 O2610 2.373 . S
Eu2592 O2613 2.488 . S
Eu2592 O2614 2.471 . S
Eu2592 O2615 2.349 . S
Eu2593 O2602 2.373 . S
Eu2593 O2606 2.488 . S
Eu2593 O2607 2.471 . S
Eu2593 O2608 2.349 . S
Eu2593 O2611 2.392 . S
Eu2593 O2612 2.418 . S
Eu2593 C2622 2.828 . S
C2594 O2612 1.244 . S
C2594 O2615 1.265 . S
C2595 C2596 1.379 . S
C2595 C2599 1.373 . S
C2595 C2601 1.505 . S
C2596 C2595 1.379 . S
C2596 C2598 1.369 . S
C2596 H2624 0.930 . S
C2597 C2599 1.383 . S
C2597 C2600 1.382 . S
C2597 H2625 0.930 . S
C2598 C2596 1.369 . S
C2598 C2600 1.392 . S
C2598 H2626 0.930 . S
C2599 C2595 1.373 . S
C2599 C2597 1.383 . S
C2599 H2627 0.931 . S
C2600 C2597 1.382 . S
C2600 C2598 1.392 . S
C2601 Eu2592 2.828 . S
C2601 C2595 1.505 . S
C2601 O2613 1.249 . S
C2601 O2614 1.244 . S
O2602 Eu2593 2.373 . S
O2602 C2604 1.258 . S
O2603 Eu2592 2.392 . S
O2603 C2604 1.242 . S
C2604 O2602 1.258 . S
C2604 O2603 1.242 . S
O2605 Eu2592 2.418 . S
O2605 C2609 1.244 . S
O2606 Eu2593 2.488 . S
O2606 C2622 1.249 . S
O2607 Eu2593 2.471 . S
O2607 C2622 1.244 . S
O2608 Eu2593 2.349 . S
O2608 C2609 1.265 . S
C2609 O2605 1.244 . S
C2609 O2608 1.265 . S
O2610 Eu2592 2.373 . S
O2610 C2623 1.258 . S
O2611 Eu2593 2.392 . S
O2611 C2623 1.242 . S
O2612 Eu2593 2.418 . S
O2612 C2594 1.244 . S
O2613 Eu2592 2.488 . S
O2613 C2601 1.249 . S
O2614 Eu2592 2.471 . S
O2614 C2601 1.244 . S
O2615 Eu2592 2.349 . S
O2615 C2594 1.265 . S
C2616 C2617 1.379 . S
C2616 C2620 1.373 . S
C2616 C2622 1.505 . S
C2617 C2616 1.379 . S
C2617 C2619 1.369 . S
C2617 H2628 0.930 . S
C2618 C2620 1.383 . S
C2618 C2621 1.382 . S
C2618 H2629 0.930 . S
C2619 C2617 1.369 . S
C2619 C2621 1.392 . S
C2619 H2630 0.930 . S
C2620 C2616 1.373 . S
C2620 C2618 1.383 . S
C2620 H2631 0.931 . S
C2621 C2618 1.382 . S
C2621 C2619 1.392 . S
C2622 Eu2593 2.828 . S
C2622 O2606 1.249 . S
C2622 O2607 1.244 . S
C2622 C2616 1.505 . S
C2623 O2610 1.258 . S
C2623 O2611 1.242 . S
H2624 C2596 0.930 . S
H2625 C2597 0.930 . S
H2626 C2598 0.930 . S
H2627 C2599 0.931 . S
H2628 C2617 0.930 . S
H2629 C2618 0.930 . S
H2630 C2619 0.930 . S
H2631 C2620 0.931 . S
Eu2632 C2641 2.828 . S
Eu2632 O2643 2.392 . S
Eu2632 O2645 2.418 . S
Eu2632 O2650 2.373 . S
Eu2632 O2653 2.488 . S
Eu2632 O2654 2.471 . S
Eu2632 O2655 2.349 . S
Eu2633 O2642 2.373 . S
Eu2633 O2646 2.488 . S
Eu2633 O2647 2.471 . S
Eu2633 O2648 2.349 . S
Eu2633 O2651 2.392 . S
Eu2633 O2652 2.418 . S
Eu2633 C2662 2.828 . S
C2634 O2652 1.244 . S
C2634 O2655 1.265 . S
C2635 C2636 1.379 . S
C2635 C2639 1.373 . S
C2635 C2641 1.505 . S
C2636 C2635 1.379 . S
C2636 C2638 1.369 . S
C2636 H2664 0.930 . S
C2637 C2639 1.383 . S
C2637 C2640 1.382 . S
C2637 H2665 0.930 . S
C2638 C2636 1.369 . S
C2638 C2640 1.392 . S
C2638 H2666 0.930 . S
C2639 C2635 1.373 . S
C2639 C2637 1.383 . S
C2639 H2667 0.931 . S
C2640 C2637 1.382 . S
C2640 C2638 1.392 . S
C2641 Eu2632 2.828 . S
C2641 C2635 1.505 . S
C2641 O2653 1.249 . S
C2641 O2654 1.244 . S
O2642 Eu2633 2.373 . S
O2642 C2644 1.258 . S
O2643 Eu2632 2.392 . S
O2643 C2644 1.242 . S
C2644 O2642 1.258 . S
C2644 O2643 1.242 . S
O2645 Eu2632 2.418 . S
O2645 C2649 1.244 . S
O2646 Eu2633 2.488 . S
O2646 C2662 1.249 . S
O2647 Eu2633 2.471 . S
O2647 C2662 1.244 . S
O2648 Eu2633 2.349 . S
O2648 C2649 1.265 . S
C2649 O2645 1.244 . S
C2649 O2648 1.265 . S
O2650 Eu2632 2.373 . S
O2650 C2663 1.258 . S
O2651 Eu2633 2.392 . S
O2651 C2663 1.242 . S
O2652 Eu2633 2.418 . S
O2652 C2634 1.244 . S
O2653 Eu2632 2.488 . S
O2653 C2641 1.249 . S
O2654 Eu2632 2.471 . S
O2654 C2641 1.244 . S
O2655 Eu2632 2.349 . S
O2655 C2634 1.265 . S
C2656 C2657 1.379 . S
C2656 C2660 1.373 . S
C2656 C2662 1.505 . S
C2657 C2656 1.379 . S
C2657 C2659 1.369 . S
C2657 H2668 0.930 . S
C2658 C2660 1.383 . S
C2658 C2661 1.382 . S
C2658 H2669 0.930 . S
C2659 C2657 1.369 . S
C2659 C2661 1.392 . S
C2659 H2670 0.930 . S
C2660 C2656 1.373 . S
C2660 C2658 1.383 . S
C2660 H2671 0.931 . S
C2661 C2658 1.382 . S
C2661 C2659 1.392 . S
C2662 Eu2633 2.828 . S
C2662 O2646 1.249 . S
C2662 O2647 1.244 . S
C2662 C2656 1.505 . S
C2663 O2650 1.258 . S
C2663 O2651 1.242 . S
H2664 C2636 0.930 . S
H2665 C2637 0.930 . S
H2666 C2638 0.930 . S
H2667 C2639 0.931 . S
H2668 C2657 0.930 . S
H2669 C2658 0.930 . S
H2670 C2659 0.930 . S
H2671 C2660 0.931 . S
Eu2672 C2681 2.828 . S
Eu2672 O2683 2.392 . S
Eu2672 O2685 2.418 . S
Eu2672 O2690 2.373 . S
Eu2672 O2693 2.488 . S
Eu2672 O2694 2.471 . S
Eu2672 O2695 2.349 . S
Eu2673 O2682 2.373 . S
Eu2673 O2686 2.488 . S
Eu2673 O2687 2.471 . S
Eu2673 O2688 2.349 . S
Eu2673 O2691 2.392 . S
Eu2673 O2692 2.418 . S
Eu2673 C2702 2.828 . S
C2674 O2692 1.244 . S
C2674 O2695 1.265 . S
C2675 C2676 1.379 . S
C2675 C2679 1.373 . S
C2675 C2681 1.505 . S
C2676 C2675 1.379 . S
C2676 C2678 1.369 . S
C2676 H2704 0.930 . S
C2677 C2679 1.383 . S
C2677 C2680 1.382 . S
C2677 H2705 0.930 . S
C2678 C2676 1.369 . S
C2678 C2680 1.392 . S
C2678 H2706 0.930 . S
C2679 C2675 1.373 . S
C2679 C2677 1.383 . S
C2679 H2707 0.931 . S
C2680 C2677 1.382 . S
C2680 C2678 1.392 . S
C2681 Eu2672 2.828 . S
C2681 C2675 1.505 . S
C2681 O2693 1.249 . S
C2681 O2694 1.244 . S
O2682 Eu2673 2.373 . S
O2682 C2684 1.258 . S
O2683 Eu2672 2.392 . S
O2683 C2684 1.242 . S
C2684 O2682 1.258 . S
C2684 O2683 1.242 . S
O2685 Eu2672 2.418 . S
O2685 C2689 1.244 . S
O2686 Eu2673 2.488 . S
O2686 C2702 1.249 . S
O2687 Eu2673 2.471 . S
O2687 C2702 1.244 . S
O2688 Eu2673 2.349 . S
O2688 C2689 1.265 . S
C2689 O2685 1.244 . S
C2689 O2688 1.265 . S
O2690 Eu2672 2.373 . S
O2690 C2703 1.258 . S
O2691 Eu2673 2.392 . S
O2691 C2703 1.242 . S
O2692 Eu2673 2.418 . S
O2692 C2674 1.244 . S
O2693 Eu2672 2.488 . S
O2693 C2681 1.249 . S
O2694 Eu2672 2.471 . S
O2694 C2681 1.244 . S
O2695 Eu2672 2.349 . S
O2695 C2674 1.265 . S
C2696 C2697 1.379 . S
C2696 C2700 1.373 . S
C2696 C2702 1.505 . S
C2697 C2696 1.379 . S
C2697 C2699 1.369 . S
C2697 H2708 0.930 . S
C2698 C2700 1.383 . S
C2698 C2701 1.382 . S
C2698 H2709 0.930 . S
C2699 C2697 1.369 . S
C2699 C2701 1.392 . S
C2699 H2710 0.930 . S
C2700 C2696 1.373 . S
C2700 C2698 1.383 . S
C2700 H2711 0.931 . S
C2701 C2698 1.382 . S
C2701 C2699 1.392 . S
C2702 Eu2673 2.828 . S
C2702 O2686 1.249 . S
C2702 O2687 1.244 . S
C2702 C2696 1.505 . S
C2703 O2690 1.258 . S
C2703 O2691 1.242 . S
H2704 C2676 0.930 . S
H2705 C2677 0.930 . S
H2706 C2678 0.930 . S
H2707 C2679 0.931 . S
H2708 C2697 0.930 . S
H2709 C2698 0.930 . S
H2710 C2699 0.930 . S
H2711 C2700 0.931 . S
Eu2712 C2721 2.828 1_554 S
Eu2712 O2723 2.392 . S
Eu2712 O2725 2.418 1_554 S
Eu2712 O2730 2.373 1_554 S
Eu2712 O2733 2.488 1_554 S
Eu2712 O2734 2.471 . S
Eu2712 O2735 2.349 . S
Eu2713 O2722 2.373 . S
Eu2713 O2726 2.488 1_455 S
Eu2713 O2727 2.471 1_455 S
Eu2713 O2728 2.349 1_554 S
Eu2713 O2731 2.392 . S
Eu2713 O2732 2.418 . S
Eu2713 C2742 2.828 1_455 S
C2714 O2732 1.244 . S
C2714 O2735 1.265 . S
C2715 C2716 1.379 1_556 S
C2715 C2719 1.373 . S
C2715 C2721 1.505 . S
C2716 C2715 1.379 1_554 S
C2716 C2718 1.369 . S
C2716 H2744 0.930 . S
C2717 C2719 1.383 . S
C2717 C2720 1.382 . S
C2717 H2745 0.930 . S
C2718 C2716 1.369 . S
C2718 C2720 1.392 1_554 S
C2718 H2746 0.930 . S
C2719 C2715 1.373 . S
C2719 C2717 1.383 . S
C2719 H2747 0.931 . S
C2720 C2717 1.382 . S
C2720 C2718 1.392 1_556 S
C2721 Eu2712 2.828 1_556 S
C2721 C2715 1.505 . S
C2721 O2733 1.249 . S
C2721 O2734 1.244 1_556 S
O2722 Eu2713 2.373 . S
O2722 C2724 1.258 . S
O2723 Eu2712 2.392 . S
O2723 C2724 1.242 . S
C2724 O2722 1.258 . S
C2724 O2723 1.242 . S
O2725 Eu2712 2.418 1_556 S
O2725 C2729 1.244 . S
O2726 Eu2713 2.488 1_655 S
O2726 C2742 1.249 . S
O2727 Eu2713 2.471 1_655 S
O2727 C2742 1.244 . S
O2728 Eu2713 2.349 1_556 S
O2728 C2729 1.265 . S
C2729 O2725 1.244 . S
C2729 O2728 1.265 . S
O2730 Eu2712 2.373 1_556 S
O2730 C2743 1.257 1_556 S
O2731 Eu2713 2.392 . S
O2731 C2743 1.243 . S
O2732 Eu2713 2.418 . S
O2732 C2714 1.244 . S
O2733 Eu2712 2.488 1_556 S
O2733 C2721 1.249 . S
O2734 Eu2712 2.471 . S
O2734 C2721 1.244 1_554 S
O2735 Eu2712 2.349 . S
O2735 C2714 1.265 . S
C2736 C2737 1.379 . S
C2736 C2740 1.373 . S
C2736 C2742 1.505 . S
C2737 C2736 1.379 . S
C2737 C2739 1.369 . S
C2737 H2748 0.930 . S
C2738 C2740 1.383 . S
C2738 C2741 1.382 . S
C2738 H2749 0.930 . S
C2739 C2737 1.369 . S
C2739 C2741 1.392 . S
C2739 H2750 0.930 . S
C2740 C2736 1.373 . S
C2740 C2738 1.383 . S
C2740 H2751 0.931 . S
C2741 C2738 1.382 . S
C2741 C2739 1.392 . S
C2742 Eu2713 2.828 1_655 S
C2742 O2726 1.249 . S
C2742 O2727 1.244 . S
C2742 C2736 1.505 . S
C2743 O2730 1.257 1_554 S
C2743 O2731 1.243 . S
H2744 C2716 0.930 . S
H2745 C2717 0.930 . S
H2746 C2718 0.930 . S
H2747 C2719 0.931 . S
H2748 C2737 0.930 . S
H2749 C2738 0.930 . S
H2750 C2739 0.930 . S
H2751 C2740 0.931 . S
C2752 C2753 1.387 . S
C2752 H2756 0.950 . S
C2752 C2761 1.390 . S
C2753 C2752 1.387 . S
C2753 C2755 1.387 . S
H2754 C2761 0.950 . S
C2755 C2753 1.387 . S
C2755 C2757 1.385 1_556 S
C2755 H2759 0.950 1_556 S
H2756 C2752 0.950 . S
C2757 C2755 1.385 1_554 S
C2757 C2758 1.380 1_554 S
C2757 H2760 0.962 . S
C2758 C2757 1.380 1_556 S
C2758 C2761 1.387 . S
H2759 C2755 0.950 1_554 S
H2760 C2757 0.962 . S
C2761 C2752 1.390 . S
C2761 H2754 0.950 . S
C2761 C2758 1.387 . S
C2762 C2763 1.387 . S
C2762 H2766 0.950 . S
C2762 C2771 1.390 . S
C2763 C2762 1.387 . S
C2763 C2765 1.387 . S
H2764 C2771 0.950 . S
C2765 C2763 1.387 . S
C2765 C2767 1.390 . S
C2765 H2769 0.950 . S
H2766 C2762 0.950 . S
C2767 C2765 1.390 . S
C2767 C2768 1.387 . S
C2767 H2770 0.950 . S
C2768 C2767 1.387 . S
C2768 C2771 1.387 . S
H2769 C2765 0.950 . S
H2770 C2767 0.950 . S
C2771 C2762 1.390 . S
C2771 H2764 0.950 . S
C2771 C2768 1.387 . S
C2772 C2773 1.387 . S
C2772 H2776 0.950 . S
C2772 C2781 1.390 . S
C2773 C2772 1.387 . S
C2773 C2775 1.387 . S
H2774 C2781 0.950 . S
C2775 C2773 1.387 . S
C2775 C2777 1.390 . S
C2775 H2779 0.950 . S
H2776 C2772 0.950 . S
C2777 C2775 1.390 . S
C2777 C2778 1.387 . S
C2777 H2780 0.950 . S
C2778 C2777 1.387 . S
C2778 C2781 1.387 . S
H2779 C2775 0.950 . S
H2780 C2777 0.950 . S
C2781 C2772 1.390 . S
C2781 H2774 0.950 . S
C2781 C2778 1.387 . S
C2782 C2783 1.387 . S
C2782 H2786 0.950 . S
C2782 C2791 1.390 . S
C2783 C2782 1.387 . S
C2783 C2785 1.387 . S
H2784 C2791 0.950 . S
C2785 C2783 1.387 . S
C2785 C2787 1.390 . S
C2785 H2789 0.950 . S
H2786 C2782 0.950 . S
C2787 C2785 1.390 . S
C2787 C2788 1.387 . S
C2787 H2790 0.950 . S
C2788 C2787 1.387 . S
C2788 C2791 1.387 . S
H2789 C2785 0.950 . S
H2790 C2787 0.950 . S
C2791 C2782 1.390 . S
C2791 H2784 0.950 . S
C2791 C2788 1.387 . S
C2792 C2793 1.387 . S
C2792 H2796 0.950 . S
C2792 C2801 1.390 . S
C2793 C2792 1.387 . S
C2793 C2795 1.387 . S
H2794 C2801 0.950 . S
C2795 C2793 1.387 . S
C2795 C2797 1.390 . S
C2795 H2799 0.950 . S
H2796 C2792 0.950 . S
C2797 C2795 1.390 . S
C2797 C2798 1.387 . S
C2797 H2800 0.950 . S
C2798 C2797 1.387 . S
C2798 C2801 1.387 . S
H2799 C2795 0.950 . S
H2800 C2797 0.950 . S
C2801 C2792 1.390 . S
C2801 H2794 0.950 . S
C2801 C2798 1.387 . S
C2802 C2803 1.387 . S
C2802 H2806 0.950 . S
C2802 C2811 1.390 . S
C2803 C2802 1.387 . S
C2803 C2805 1.387 . S
H2804 C2811 0.950 . S
C2805 C2803 1.387 . S
C2805 C2807 1.390 . S
C2805 H2809 0.950 . S
H2806 C2802 0.950 . S
C2807 C2805 1.390 . S
C2807 C2808 1.387 . S
C2807 H2810 0.950 . S
C2808 C2807 1.387 . S
C2808 C2811 1.387 . S
H2809 C2805 0.950 . S
H2810 C2807 0.950 . S
C2811 C2802 1.390 . S
C2811 H2804 0.950 . S
C2811 C2808 1.387 . S
C2812 C2813 1.387 . S
C2812 H2816 0.950 . S
C2812 C2821 1.390 . S
C2813 C2812 1.387 . S
C2813 C2815 1.387 . S
H2814 C2821 0.950 . S
C2815 C2813 1.387 . S
C2815 C2817 1.390 . S
C2815 H2819 0.950 . S
H2816 C2812 0.950 . S
C2817 C2815 1.390 . S
C2817 C2818 1.387 . S
C2817 H2820 0.950 . S
C2818 C2817 1.387 . S
C2818 C2821 1.387 . S
H2819 C2815 0.950 . S
H2820 C2817 0.950 . S
C2821 C2812 1.390 . S
C2821 H2814 0.950 . S
C2821 C2818 1.387 . S
C2822 C2823 1.387 . S
C2822 H2826 0.950 . S
C2822 C2831 1.390 . S
C2823 C2822 1.387 . S
C2823 C2825 1.387 . S
H2824 C2831 0.950 . S
C2825 C2823 1.387 . S
C2825 C2827 1.390 . S
C2825 H2829 0.950 . S
H2826 C2822 0.950 . S
C2827 C2825 1.390 . S
C2827 C2828 1.387 . S
C2827 H2830 0.950 . S
C2828 C2827 1.387 . S
C2828 C2831 1.387 . S
H2829 C2825 0.950 . S
H2830 C2827 0.950 . S
C2831 C2822 1.390 . S
C2831 H2824 0.950 . S
C2831 C2828 1.387 . S
C2832 C2833 1.387 . S
C2832 H2836 0.949 1_455 S
C2832 C2841 1.390 . S
C2833 C2832 1.387 . S
C2833 C2835 1.387 . S
H2834 C2841 0.950 . S
C2835 C2833 1.387 . S
C2835 C2837 1.390 . S
C2835 H2839 0.950 . S
H2836 C2832 0.949 1_655 S
C2837 C2835 1.390 . S
C2837 C2838 1.387 . S
C2837 H2840 0.950 . S
C2838 C2837 1.387 . S
C2838 C2841 1.387 . S
H2839 C2835 0.950 . S
H2840 C2837 0.950 . S
C2841 C2832 1.390 . S
C2841 H2834 0.950 . S
C2841 C2838 1.387 . S
C2842 C2843 1.387 . S
C2842 H2846 0.950 . S
C2842 C2851 1.390 . S
C2843 C2842 1.387 . S
C2843 C2845 1.387 . S
H2844 C2851 0.950 . S
C2845 C2843 1.387 . S
C2845 C2847 1.390 . S
C2845 H2849 0.950 . S
H2846 C2842 0.950 . S
C2847 C2845 1.390 . S
C2847 C2848 1.387 . S
C2847 H2850 0.950 . S
C2848 C2847 1.387 . S
C2848 C2851 1.387 . S
H2849 C2845 0.950 . S
H2850 C2847 0.950 . S
C2851 C2842 1.390 . S
C2851 H2844 0.950 . S
C2851 C2848 1.387 . S
C2852 C2853 1.387 . S
C2852 H2856 0.950 . S
C2852 C2861 1.390 . S
C2853 C2852 1.387 . S
C2853 C2855 1.387 . S
H2854 C2861 0.989 . S
C2855 C2853 1.387 . S
C2855 C2857 1.390 . S
C2855 H2859 0.950 . S
H2856 C2852 0.950 . S
C2857 C2855 1.390 . S
C2857 C2858 1.387 . S
C2857 H2860 0.950 . S
C2858 C2857 1.387 . S
C2858 C2861 1.387 . S
H2859 C2855 0.950 . S
H2860 C2857 0.950 . S
C2861 C2852 1.390 . S
C2861 H2854 0.989 . S
C2861 C2858 1.387 . S
C2862 C2863 1.387 . S
C2862 H2866 0.950 . S
C2862 C2871 1.390 . S
C2863 C2862 1.387 . S
C2863 C2865 1.387 . S
H2864 C2871 0.950 . S
C2865 C2863 1.387 . S
C2865 C2867 1.390 . S
C2865 H2869 0.950 . S
H2866 C2862 0.950 . S
C2867 C2865 1.390 . S
C2867 C2868 1.387 . S
C2867 H2870 0.950 . S
C2868 C2867 1.387 . S
C2868 C2871 1.387 . S
H2869 C2865 0.950 . S
H2870 C2867 0.950 . S
C2871 C2862 1.390 . S
C2871 H2864 0.950 . S
C2871 C2868 1.387 . S
C2872 C2873 1.387 . S
C2872 H2876 0.950 . S
C2872 C2881 1.390 . S
C2873 C2872 1.387 . S
C2873 C2875 1.387 . S
H2874 C2881 0.950 . S
C2875 C2873 1.387 . S
C2875 C2877 1.390 . S
C2875 H2879 0.950 1_455 S
H2876 C2872 0.950 . S
C2877 C2875 1.390 . S
C2877 C2878 1.387 . S
C2877 H2880 0.940 1_455 S
C2878 C2877 1.387 . S
C2878 C2881 1.387 . S
H2879 C2875 0.950 1_655 S
H2880 C2877 0.940 1_655 S
C2881 C2872 1.390 . S
C2881 H2874 0.950 . S
C2881 C2878 1.387 . S
C2882 C2883 1.387 . S
C2882 H2886 0.950 . S
C2882 C2891 1.390 . S
C2883 C2882 1.387 . S
C2883 C2885 1.387 . S
H2884 C2891 0.950 . S
C2885 C2883 1.387 . S
C2885 C2887 1.390 . S
C2885 H2889 0.950 . S
H2886 C2882 0.950 . S
C2887 C2885 1.390 . S
C2887 C2888 1.387 . S
C2887 H2890 0.950 . S
C2888 C2887 1.387 . S
C2888 C2891 1.387 . S
H2889 C2885 0.950 . S
H2890 C2887 0.950 . S
C2891 C2882 1.390 . S
C2891 H2884 0.950 . S
C2891 C2888 1.387 . S
C2892 C2893 1.387 . S
C2892 H2896 0.950 . S
C2892 C2901 1.390 . S
C2893 C2892 1.387 . S
C2893 C2895 1.387 . S
H2894 C2901 0.950 . S
C2895 C2893 1.387 . S
C2895 C2897 1.390 . S
C2895 H2899 0.950 . S
H2896 C2892 0.950 . S
C2897 C2895 1.390 . S
C2897 C2898 1.387 . S
C2897 H2900 0.950 . S
C2898 C2897 1.387 . S
C2898 C2901 1.387 . S
H2899 C2895 0.950 . S
H2900 C2897 0.950 . S
C2901 C2892 1.390 . S
C2901 H2894 0.950 . S
C2901 C2898 1.387 . S
C2902 C2903 1.387 . S
C2902 H2906 0.950 . S
C2902 C2911 1.390 . S
C2903 C2902 1.387 . S
C2903 C2905 1.387 . S
H2904 C2911 0.950 . S
C2905 C2903 1.387 . S
C2905 C2907 1.390 . S
C2905 H2909 0.950 . S
H2906 C2902 0.950 . S
C2907 C2905 1.390 . S
C2907 C2908 1.387 . S
C2907 H2910 0.950 . S
C2908 C2907 1.387 . S
C2908 C2911 1.387 . S
H2909 C2905 0.950 . S
H2910 C2907 0.950 . S
C2911 C2902 1.390 . S
C2911 H2904 0.950 . S
C2911 C2908 1.387 . S
C2912 C2913 1.387 . S
C2912 H2916 0.950 1_545 S
C2912 C2921 1.390 . S
C2913 C2912 1.387 . S
C2913 C2915 1.391 1_554 S
H2914 C2921 0.950 . S
C2915 C2913 1.391 1_556 S
C2915 C2917 1.391 1_556 S
C2915 H2919 0.946 . S
H2916 C2912 0.950 1_565 S
C2917 C2915 1.391 1_554 S
C2917 C2918 1.387 . S
C2917 H2920 0.950 1_554 S
C2918 C2917 1.387 . S
C2918 C2921 1.387 . S
H2919 C2915 0.946 . S
H2920 C2917 0.950 1_556 S
C2921 C2912 1.390 . S
C2921 H2914 0.950 . S
C2921 C2918 1.387 . S
C2922 C2923 1.387 1_554 S
C2922 H2926 0.950 . S
C2922 C2931 1.390 . S
C2923 C2922 1.387 1_556 S
C2923 C2925 1.387 . S
H2924 C2931 0.950 . S
C2925 C2923 1.387 . S
C2925 C2927 1.390 . S
C2925 H2929 0.950 . S
H2926 C2922 0.950 . S
C2927 C2925 1.390 . S
C2927 C2928 1.387 1_556 S
C2927 H2930 0.950 . S
C2928 C2927 1.387 1_554 S
C2928 C2931 1.387 . S
H2929 C2925 0.950 . S
H2930 C2927 0.950 . S
C2931 C2922 1.390 . S
C2931 H2924 0.950 . S
C2931 C2928 1.387 . S
C2932 C2933 1.387 . S
C2932 H2936 0.950 . S
C2932 C2941 1.390 . S
C2933 C2932 1.387 . S
C2933 C2935 1.387 . S
H2934 C2941 0.950 . S
C2935 C2933 1.387 . S
C2935 C2937 1.390 . S
C2935 H2939 0.950 . S
H2936 C2932 0.950 . S
C2937 C2935 1.390 . S
C2937 C2938 1.387 . S
C2937 H2940 0.950 . S
C2938 C2937 1.387 . S
C2938 C2941 1.387 . S
H2939 C2935 0.950 . S
H2940 C2937 0.950 . S
C2941 C2932 1.390 . S
C2941 H2934 0.950 . S
C2941 C2938 1.387 . S
C2942 C2943 1.387 . S
C2942 H2946 0.950 . S
C2942 C2951 1.390 . S
C2943 C2942 1.387 . S
C2943 C2945 1.387 . S
H2944 C2951 0.950 . S
C2945 C2943 1.387 . S
C2945 C2947 1.390 . S
C2945 H2949 0.950 . S
H2946 C2942 0.950 . S
C2947 C2945 1.390 . S
C2947 C2948 1.387 . S
C2947 H2950 0.950 . S
C2948 C2947 1.387 . S
C2948 C2951 1.387 . S
H2949 C2945 0.950 . S
H2950 C2947 0.950 . S
C2951 C2942 1.390 . S
C2951 H2944 0.950 . S
C2951 C2948 1.387 . S
C2952 C2953 1.387 . S
C2952 H2956 0.950 . S
C2952 C2961 1.390 . S
C2953 C2952 1.387 . S
C2953 C2955 1.387 . S
H2954 C2961 0.950 . S
C2955 C2953 1.387 . S
C2955 C2957 1.390 . S
C2955 H2959 0.950 . S
H2956 C2952 0.950 . S
C2957 C2955 1.390 . S
C2957 C2958 1.387 . S
C2957 H2960 0.950 . S
C2958 C2957 1.387 . S
C2958 C2961 1.387 . S
H2959 C2955 0.950 . S
H2960 C2957 0.950 . S
C2961 C2952 1.390 . S
C2961 H2954 0.950 . S
C2961 C2958 1.387 . S
C2962 C2963 1.387 . S
C2962 H2966 0.950 . S
C2962 C2971 1.390 . S
C2963 C2962 1.387 . S
C2963 C2965 1.387 . S
H2964 C2971 0.950 . S
C2965 C2963 1.387 . S
C2965 C2967 1.390 . S
C2965 H2969 0.950 . S
H2966 C2962 0.950 . S
C2967 C2965 1.390 . S
C2967 C2968 1.387 . S
C2967 H2970 0.950 . S
C2968 C2967 1.387 . S
C2968 C2971 1.387 . S
H2969 C2965 0.950 . S
H2970 C2967 0.950 . S
C2971 C2962 1.390 . S
C2971 H2964 0.950 . S
C2971 C2968 1.387 . S
C2972 C2973 1.387 . S
C2972 H2976 0.950 . S
C2972 C2981 1.390 . S
C2973 C2972 1.387 . S
C2973 C2975 1.387 . S
H2974 C2981 0.950 . S
C2975 C2973 1.387 . S
C2975 C2977 1.390 . S
C2975 H2979 0.950 . S
H2976 C2972 0.950 . S
C2977 C2975 1.390 . S
C2977 C2978 1.387 . S
C2977 H2980 0.950 . S
C2978 C2977 1.387 . S
C2978 C2981 1.387 . S
H2979 C2975 0.950 . S
H2980 C2977 0.950 . S
C2981 C2972 1.390 . S
C2981 H2974 0.950 . S
C2981 C2978 1.387 . S
C2982 C2983 1.387 . S
C2982 H2986 0.950 . S
C2982 C2991 1.390 . S
C2983 C2982 1.387 . S
C2983 C2985 1.387 . S
H2984 C2991 0.950 . S
C2985 C2983 1.387 . S
C2985 C2987 1.390 . S
C2985 H2989 0.950 . S
H2986 C2982 0.950 . S
C2987 C2985 1.390 . S
C2987 C2988 1.387 . S
C2987 H2990 0.950 . S
C2988 C2987 1.387 . S
C2988 C2991 1.387 . S
H2989 C2985 0.950 . S
H2990 C2987 0.950 . S
C2991 C2982 1.390 . S
C2991 H2984 0.950 . S
C2991 C2988 1.387 . S
C2992 C2993 1.387 . S
C2992 H2996 0.950 . S
C2992 C3001 1.390 . S
C2993 C2992 1.387 . S
C2993 C2995 1.387 . S
H2994 C3001 0.950 . S
C2995 C2993 1.387 . S
C2995 C2997 1.390 . S
C2995 H2999 0.950 . S
H2996 C2992 0.950 . S
C2997 C2995 1.390 . S
C2997 C2998 1.387 . S
C2997 H3000 0.950 . S
C2998 C2997 1.387 . S
C2998 C3001 1.387 . S
H2999 C2995 0.950 . S
H3000 C2997 0.950 . S
C3001 C2992 1.390 . S
C3001 H2994 0.950 . S
C3001 C2998 1.387 . S
C3002 C3003 1.387 . S
C3002 H3006 0.950 . S
C3002 C3011 1.390 . S
C3003 C3002 1.387 . S
C3003 C3005 1.387 . S
H3004 C3011 0.950 . S
C3005 C3003 1.387 . S
C3005 C3007 1.390 . S
C3005 H3009 0.950 . S
H3006 C3002 0.950 . S
C3007 C3005 1.390 . S
C3007 C3008 1.387 . S
C3007 H3010 0.950 . S
C3008 C3007 1.387 . S
C3008 C3011 1.387 . S
H3009 C3005 0.950 . S
H3010 C3007 0.950 . S
C3011 C3002 1.390 . S
C3011 H3004 0.950 . S
C3011 C3008 1.387 . S
C3012 C3013 1.387 . S
C3012 H3016 0.950 . S
C3012 C3021 1.390 . S
C3013 C3012 1.387 . S
C3013 C3015 1.387 . S
H3014 C3021 0.950 . S
C3015 C3013 1.387 . S
C3015 C3017 1.390 . S
C3015 H3019 0.950 . S
H3016 C3012 0.950 . S
C3017 C3015 1.390 . S
C3017 C3018 1.387 . S
C3017 H3020 0.950 . S
C3018 C3017 1.387 . S
C3018 C3021 1.387 . S
H3019 C3015 0.950 . S
H3020 C3017 0.950 . S
C3021 C3012 1.390 . S
C3021 H3014 0.950 . S
C3021 C3018 1.387 . S
C3022 C3023 1.387 . S
C3022 H3026 0.950 . S
C3022 C3031 1.390 . S
C3023 C3022 1.387 . S
C3023 C3025 1.387 . S
H3024 C3031 0.950 . S
C3025 C3023 1.387 . S
C3025 C3027 1.390 . S
C3025 H3029 0.950 . S
H3026 C3022 0.950 . S
C3027 C3025 1.390 . S
C3027 C3028 1.387 . S
C3027 H3030 0.950 . S
C3028 C3027 1.387 . S
C3028 C3031 1.387 . S
H3029 C3025 0.950 . S
H3030 C3027 0.950 . S
C3031 C3022 1.390 . S
C3031 H3024 0.950 . S
C3031 C3028 1.387 . S
C3032 C3033 1.387 . S
C3032 H3036 0.950 . S
C3032 C3041 1.390 . S
C3033 C3032 1.387 . S
C3033 C3035 1.387 . S
H3034 C3041 0.950 . S
C3035 C3033 1.387 . S
C3035 C3037 1.390 . S
C3035 H3039 0.950 . S
H3036 C3032 0.950 . S
C3037 C3035 1.390 . S
C3037 C3038 1.387 . S
C3037 H3040 0.950 . S
C3038 C3037 1.387 . S
C3038 C3041 1.387 . S
H3039 C3035 0.950 . S
H3040 C3037 0.950 . S
C3041 C3032 1.390 . S
C3041 H3034 0.950 . S
C3041 C3038 1.387 . S
C3042 C3043 1.387 . S
C3042 H3046 0.950 . S
C3042 C3051 1.390 . S
C3043 C3042 1.387 . S
C3043 C3045 1.387 . S
H3044 C3051 0.950 . S
C3045 C3043 1.387 . S
C3045 C3047 1.390 . S
C3045 H3049 0.950 . S
H3046 C3042 0.950 . S
C3047 C3045 1.390 . S
C3047 C3048 1.387 . S
C3047 H3050 0.950 . S
C3048 C3047 1.387 . S
C3048 C3051 1.387 . S
H3049 C3045 0.950 . S
H3050 C3047 0.950 . S
C3051 C3042 1.390 . S
C3051 H3044 0.950 . S
C3051 C3048 1.387 . S
C3052 C3053 1.387 . S
C3052 H3056 0.950 1_556 S
C3052 C3061 1.393 . S
C3053 C3052 1.387 . S
C3053 C3055 1.387 . S
H3054 C3061 0.932 1_554 S
C3055 C3053 1.387 . S
C3055 C3057 1.390 . S
C3055 H3059 0.950 . S
H3056 C3052 0.950 1_554 S
C3057 C3055 1.390 . S
C3057 C3058 1.387 . S
C3057 H3060 0.950 . S
C3058 C3057 1.387 . S
C3058 C3061 1.402 . S
H3059 C3055 0.950 . S
H3060 C3057 0.950 . S
C3061 C3052 1.393 . S
C3061 H3054 0.932 1_556 S
C3061 C3058 1.402 . S
C3062 C3063 1.387 . S
C3062 H3066 0.950 . S
C3062 C3071 1.390 . S
C3063 C3062 1.387 . S
C3063 C3065 1.387 . S
H3064 C3071 0.950 . S
C3065 C3063 1.387 . S
C3065 C3067 1.390 . S
C3065 H3069 0.950 . S
H3066 C3062 0.950 . S
C3067 C3065 1.390 . S
C3067 C3068 1.387 . S
C3067 H3070 0.950 . S
C3068 C3067 1.387 . S
C3068 C3071 1.387 . S
H3069 C3065 0.950 . S
H3070 C3067 0.950 . S
C3071 C3062 1.390 . S
C3071 H3064 0.950 . S
C3071 C3068 1.387 . S
C3072 C3073 1.387 1_565 S
C3072 H3076 0.950 . S
C3072 C3081 1.390 . S
C3073 C3072 1.387 1_545 S
C3073 C3075 1.387 . S
H3074 C3081 0.950 . S
C3075 C3073 1.387 . S
C3075 C3077 1.390 . S
C3075 H3079 0.950 . S
H3076 C3072 0.950 . S
C3077 C3075 1.390 . S
C3077 C3078 1.387 . S
C3077 H3080 0.950 . S
C3078 C3077 1.387 . S
C3078 C3081 1.387 1_545 S
H3079 C3075 0.950 . S
H3080 C3077 0.950 . S
C3081 C3072 1.390 . S
C3081 H3074 0.950 . S
C3081 C3078 1.387 1_565 S
C3082 C3083 1.387 . S
C3082 H3086 0.950 . S
C3082 C3091 1.390 . S
C3083 C3082 1.387 . S
C3083 C3085 1.387 . S
H3084 C3091 0.950 . S
C3085 C3083 1.387 . S
C3085 C3087 1.390 . S
C3085 H3089 0.950 . S
H3086 C3082 0.950 . S
C3087 C3085 1.390 . S
C3087 C3088 1.387 . S
C3087 H3090 0.950 . S
C3088 C3087 1.387 . S
C3088 C3091 1.387 . S
H3089 C3085 0.950 . S
H3090 C3087 0.950 . S
C3091 C3082 1.390 . S
C3091 H3084 0.950 . S
C3091 C3088 1.387 . S
C3092 C3093 1.387 . S
C3092 H3096 0.950 1_545 S
C3092 C3101 1.390 . S
C3093 C3092 1.387 . S
C3093 C3095 1.387 . S
H3094 C3101 0.950 1_565 S
C3095 C3093 1.387 . S
C3095 C3097 1.390 . S
C3095 H3099 0.950 . S
H3096 C3092 0.950 1_565 S
C3097 C3095 1.390 . S
C3097 C3098 1.387 . S
C3097 H3100 0.950 . S
C3098 C3097 1.387 . S
C3098 C3101 1.387 . S
H3099 C3095 0.950 . S
H3100 C3097 0.950 . S
C3101 C3092 1.390 . S
C3101 H3094 0.950 1_545 S
C3101 C3098 1.387 . S
C3102 C3103 1.387 . S
C3102 H3106 0.950 . S
C3102 C3111 1.390 . S
C3103 C3102 1.387 . S
C3103 C3105 1.387 . S
H3104 C3111 0.950 . S
C3105 C3103 1.387 . S
C3105 C3107 1.390 . S
C3105 H3109 0.950 . S
H3106 C3102 0.950 . S
C3107 C3105 1.390 . S
C3107 C3108 1.387 . S
C3107 H3110 0.950 . S
C3108 C3107 1.387 . S
C3108 C3111 1.387 . S
H3109 C3105 0.950 . S
H3110 C3107 0.950 . S
C3111 C3102 1.390 . S
C3111 H3104 0.950 . S
C3111 C3108 1.387 . S
C3112 C3113 1.386 1_545 S
C3112 H3116 0.950 . S
C3112 C3121 1.390 . S
C3113 C3112 1.386 1_565 S
C3113 C3115 1.387 . S
H3114 C3121 0.950 . S
C3115 C3113 1.387 . S
C3115 C3117 1.390 1_565 S
C3115 H3119 0.950 . S
H3116 C3112 0.950 . S
C3117 C3115 1.390 1_545 S
C3117 C3118 1.387 . S
C3117 H3120 0.950 . S
C3118 C3117 1.387 . S
C3118 C3121 1.387 . S
H3119 C3115 0.950 . S
H3120 C3117 0.950 . S
C3121 C3112 1.390 . S
C3121 H3114 0.950 . S
C3121 C3118 1.387 . S
C3122 C3123 1.387 . S
C3122 H3126 0.950 . S
C3122 C3131 1.390 . S
C3123 C3122 1.387 . S
C3123 C3125 1.387 . S
H3124 C3131 0.950 . S
C3125 C3123 1.387 . S
C3125 C3127 1.390 . S
C3125 H3129 0.950 . S
H3126 C3122 0.950 . S
C3127 C3125 1.390 . S
C3127 C3128 1.387 . S
C3127 H3130 0.950 . S
C3128 C3127 1.387 . S
C3128 C3131 1.387 . S
H3129 C3125 0.950 . S
H3130 C3127 0.950 . S
C3131 C3122 1.390 . S
C3131 H3124 0.950 . S
C3131 C3128 1.387 . S
C3132 C3133 1.387 1_565 S
C3132 H3136 0.950 . S
C3132 C3141 1.390 . S
C3133 C3132 1.387 1_545 S
C3133 C3135 1.387 . S
H3134 C3141 0.950 . S
C3135 C3133 1.387 . S
C3135 C3137 1.390 . S
C3135 H3139 0.950 . S
H3136 C3132 0.950 . S
C3137 C3135 1.390 . S
C3137 C3138 1.387 1_545 S
C3137 H3140 0.950 . S
C3138 C3137 1.387 1_565 S
C3138 C3141 1.387 . S
H3139 C3135 0.950 . S
H3140 C3137 0.950 . S
C3141 C3132 1.390 . S
C3141 H3134 0.950 . S
C3141 C3138 1.387 . S
C3142 C3143 1.387 . S
C3142 H3146 0.950 . S
C3142 C3151 1.390 . S
C3143 C3142 1.387 . S
C3143 C3145 1.387 . S
H3144 C3151 0.950 . S
C3145 C3143 1.387 . S
C3145 C3147 1.390 . S
C3145 H3149 0.950 . S
H3146 C3142 0.950 . S
C3147 C3145 1.390 . S
C3147 C3148 1.387 . S
C3147 H3150 0.950 . S
C3148 C3147 1.387 . S
C3148 C3151 1.387 . S
H3149 C3145 0.950 . S
H3150 C3147 0.950 . S
C3151 C3142 1.390 . S
C3151 H3144 0.950 . S
C3151 C3148 1.387 . S
C3152 C3153 1.387 1_556 S
C3152 H3156 0.950 . S
C3152 C3161 1.390 . S
C3153 C3152 1.387 1_554 S
C3153 C3155 1.387 . S
H3154 C3161 0.950 . S
C3155 C3153 1.387 . S
C3155 C3157 1.390 . S
C3155 H3159 0.950 . S
H3156 C3152 0.950 . S
C3157 C3155 1.390 . S
C3157 C3158 1.387 . S
C3157 H3160 0.950 . S
C3158 C3157 1.387 . S
C3158 C3161 1.387 1_554 S
H3159 C3155 0.950 . S
H3160 C3157 0.950 . S
C3161 C3152 1.390 . S
C3161 H3154 0.950 . S
C3161 C3158 1.387 1_556 S
C3162 C3163 1.387 . S
C3162 H3166 0.950 . S
C3162 C3171 1.390 . S
C3163 C3162 1.387 . S
C3163 C3165 1.387 . S
H3164 C3171 0.950 . S
C3165 C3163 1.387 . S
C3165 C3167 1.390 . S
C3165 H3169 0.958 . S
H3166 C3162 0.950 . S
C3167 C3165 1.390 . S
C3167 C3168 1.387 . S
C3167 H3170 0.950 1_554 S
C3168 C3167 1.387 . S
C3168 C3171 1.387 . S
H3169 C3165 0.958 . S
H3170 C3167 0.950 1_556 S
C3171 C3162 1.390 . S
C3171 H3164 0.950 . S
C3171 C3168 1.387 . S
C3172 C3173 1.387 . S
C3172 H3176 0.950 . S
C3172 C3181 1.390 . S
C3173 C3172 1.387 . S
C3173 C3175 1.387 . S
H3174 C3181 0.950 . S
C3175 C3173 1.387 . S
C3175 C3177 1.390 . S
C3175 H3179 0.950 . S
H3176 C3172 0.950 . S
C3177 C3175 1.390 . S
C3177 C3178 1.387 . S
C3177 H3180 0.950 . S
C3178 C3177 1.387 . S
C3178 C3181 1.387 . S
H3179 C3175 0.950 . S
H3180 C3177 0.950 . S
C3181 C3172 1.390 . S
C3181 H3174 0.950 . S
C3181 C3178 1.387 . S
C3182 C3183 1.387 . S
C3182 H3186 0.950 . S
C3182 C3191 1.390 . S
C3183 C3182 1.387 . S
C3183 C3185 1.387 . S
H3184 C3191 0.950 . S
C3185 C3183 1.387 . S
C3185 C3187 1.390 . S
C3185 H3189 0.950 . S
H3186 C3182 0.950 . S
C3187 C3185 1.390 . S
C3187 C3188 1.387 . S
C3187 H3190 0.950 . S
C3188 C3187 1.387 . S
C3188 C3191 1.387 . S
H3189 C3185 0.950 . S
H3190 C3187 0.950 . S
C3191 C3182 1.390 . S
C3191 H3184 0.950 . S
C3191 C3188 1.387 . S
C3192 C3193 1.387 . S
C3192 H3196 0.950 . S
C3192 C3201 1.390 . S
C3193 C3192 1.387 . S
C3193 C3195 1.387 . S
H3194 C3201 0.950 . S
C3195 C3193 1.387 . S
C3195 C3197 1.390 . S
C3195 H3199 0.950 . S
H3196 C3192 0.950 . S
C3197 C3195 1.390 . S
C3197 C3198 1.387 . S
C3197 H3200 0.950 . S
C3198 C3197 1.387 . S
C3198 C3201 1.387 . S
H3199 C3195 0.950 . S
H3200 C3197 0.950 . S
C3201 C3192 1.390 . S
C3201 H3194 0.950 . S
C3201 C3198 1.387 . S
C3202 C3203 1.387 . S
C3202 H3206 0.950 . S
C3202 C3211 1.390 . S
C3203 C3202 1.387 . S
C3203 C3205 1.387 . S
H3204 C3211 0.950 . S
C3205 C3203 1.387 . S
C3205 C3207 1.390 . S
C3205 H3209 0.950 . S
H3206 C3202 0.950 . S
C3207 C3205 1.390 . S
C3207 C3208 1.387 . S
C3207 H3210 0.950 . S
C3208 C3207 1.387 . S
C3208 C3211 1.387 . S
H3209 C3205 0.950 . S
H3210 C3207 0.950 . S
C3211 C3202 1.390 . S
C3211 H3204 0.950 . S
C3211 C3208 1.387 . S
C3212 C3213 1.387 . S
C3212 H3216 0.950 . S
C3212 C3221 1.390 . S
C3213 C3212 1.387 . S
C3213 C3215 1.387 . S
H3214 C3221 0.950 . S
C3215 C3213 1.387 . S
C3215 C3217 1.390 . S
C3215 H3219 0.950 . S
H3216 C3212 0.950 . S
C3217 C3215 1.390 . S
C3217 C3218 1.387 . S
C3217 H3220 0.950 . S
C3218 C3217 1.387 . S
C3218 C3221 1.387 . S
H3219 C3215 0.950 . S
H3220 C3217 0.950 . S
C3221 C3212 1.390 . S
C3221 H3214 0.950 . S
C3221 C3218 1.387 . S
C3222 C3223 1.387 . S
C3222 H3226 0.950 . S
C3222 C3231 1.390 . S
C3223 C3222 1.387 . S
C3223 C3225 1.387 . S
H3224 C3231 0.950 . S
C3225 C3223 1.387 . S
C3225 C3227 1.390 . S
C3225 H3229 0.950 . S
H3226 C3222 0.950 . S
C3227 C3225 1.390 . S
C3227 C3228 1.387 . S
C3227 H3230 0.950 . S
C3228 C3227 1.387 . S
C3228 C3231 1.387 . S
H3229 C3225 0.950 . S
H3230 C3227 0.950 . S
C3231 C3222 1.390 . S
C3231 H3224 0.950 . S
C3231 C3228 1.387 . S
C3232 C3233 1.387 . S
C3232 H3236 0.950 . S
C3232 C3241 1.390 . S
C3233 C3232 1.387 . S
C3233 C3235 1.387 . S
H3234 C3241 0.950 . S
C3235 C3233 1.387 . S
C3235 C3237 1.390 . S
C3235 H3239 0.950 . S
H3236 C3232 0.950 . S
C3237 C3235 1.390 . S
C3237 C3238 1.387 . S
C3237 H3240 0.950 . S
C3238 C3237 1.387 . S
C3238 C3241 1.387 . S
H3239 C3235 0.950 . S
H3240 C3237 0.950 . S
C3241 C3232 1.390 . S
C3241 H3234 0.950 . S
C3241 C3238 1.387 . S
C3242 C3243 1.387 . S
C3242 H3246 0.950 . S
C3242 C3251 1.390 . S
C3243 C3242 1.387 . S
C3243 C3245 1.387 . S
H3244 C3251 0.950 . S
C3245 C3243 1.387 . S
C3245 C3247 1.390 . S
C3245 H3249 0.950 . S
H3246 C3242 0.950 . S
C3247 C3245 1.390 . S
C3247 C3248 1.387 . S
C3247 H3250 0.950 . S
C3248 C3247 1.387 . S
C3248 C3251 1.387 . S
H3249 C3245 0.950 . S
H3250 C3247 0.950 . S
C3251 C3242 1.390 . S
C3251 H3244 0.950 . S
C3251 C3248 1.387 . S
C3252 C3253 1.387 . S
C3252 H3256 0.950 . S
C3252 C3261 1.390 . S
C3253 C3252 1.387 . S
C3253 C3255 1.387 1_556 S
H3254 C3261 0.950 . S
C3255 C3253 1.387 1_554 S
C3255 C3257 1.390 . S
C3255 H3259 0.950 . S
H3256 C3252 0.950 . S
C3257 C3255 1.390 . S
C3257 C3258 1.387 1_554 S
C3257 H3260 0.950 . S
C3258 C3257 1.387 1_556 S
C3258 C3261 1.387 . S
H3259 C3255 0.950 . S
H3260 C3257 0.950 . S
C3261 C3252 1.390 . S
C3261 H3254 0.950 . S
C3261 C3258 1.387 . S
C3262 C3263 1.387 . S
C3262 H3266 0.950 . S
C3262 C3271 1.390 . S
C3263 C3262 1.387 . S
C3263 C3265 1.387 . S
H3264 C3271 0.950 . S
C3265 C3263 1.387 . S
C3265 C3267 1.390 . S
C3265 H3269 0.950 . S
H3266 C3262 0.950 . S
C3267 C3265 1.390 . S
C3267 C3268 1.387 . S
C3267 H3270 0.950 . S
C3268 C3267 1.387 . S
C3268 C3271 1.387 . S
H3269 C3265 0.950 . S
H3270 C3267 0.950 . S
C3271 C3262 1.390 . S
C3271 H3264 0.950 . S
C3271 C3268 1.387 . S
C3272 C3273 1.387 . S
C3272 H3276 0.950 . S
C3272 C3281 1.390 . S
C3273 C3272 1.387 . S
C3273 C3275 1.387 . S
H3274 C3281 0.950 . S
C3275 C3273 1.387 . S
C3275 C3277 1.390 . S
C3275 H3279 0.950 . S
H3276 C3272 0.950 . S
C3277 C3275 1.390 . S
C3277 C3278 1.387 . S
C3277 H3280 0.950 . S
C3278 C3277 1.387 . S
C3278 C3281 1.387 . S
H3279 C3275 0.950 . S
H3280 C3277 0.950 . S
C3281 C3272 1.390 . S
C3281 H3274 0.950 . S
C3281 C3278 1.387 . S
C3282 C3283 1.387 . S
C3282 H3286 0.950 . S
C3282 C3291 1.390 . S
C3283 C3282 1.387 . S
C3283 C3285 1.387 . S
H3284 C3291 0.950 . S
C3285 C3283 1.387 . S
C3285 C3287 1.390 . S
C3285 H3289 0.950 . S
H3286 C3282 0.950 . S
C3287 C3285 1.390 . S
C3287 C3288 1.387 . S
C3287 H3290 0.950 . S
C3288 C3287 1.387 . S
C3288 C3291 1.387 . S
H3289 C3285 0.950 . S
H3290 C3287 0.950 . S
C3291 C3282 1.390 . S
C3291 H3284 0.950 . S
C3291 C3288 1.387 . S
C3292 C3293 1.387 . S
C3292 H3296 0.950 . S
C3292 C3301 1.390 1_655 S
C3293 C3292 1.387 . S
C3293 C3295 1.387 1_655 S
H3294 C3301 0.950 . S
C3295 C3293 1.387 1_455 S
C3295 C3297 1.390 . S
C3295 H3299 0.950 . S
H3296 C3292 0.950 . S
C3297 C3295 1.390 . S
C3297 C3298 1.387 . S
C3297 H3300 0.950 . S
C3298 C3297 1.387 . S
C3298 C3301 1.387 . S
H3299 C3295 0.950 . S
H3300 C3297 0.950 . S
C3301 C3292 1.390 1_455 S
C3301 H3294 0.950 . S
C3301 C3298 1.387 . S
C3302 C3303 1.387 . S
C3302 H3306 0.950 . S
C3302 C3311 1.390 . S
C3303 C3302 1.387 . S
C3303 C3305 1.387 . S
H3304 C3311 0.950 . S
C3305 C3303 1.387 . S
C3305 C3307 1.390 . S
C3305 H3309 0.950 . S
H3306 C3302 0.950 . S
C3307 C3305 1.390 . S
C3307 C3308 1.387 . S
C3307 H3310 0.950 . S
C3308 C3307 1.387 . S
C3308 C3311 1.387 . S
H3309 C3305 0.950 . S
H3310 C3307 0.950 . S
C3311 C3302 1.390 . S
C3311 H3304 0.950 . S
C3311 C3308 1.387 . S
C3312 C3313 1.387 . S
C3312 H3316 0.950 . S
C3312 C3321 1.390 . S
C3313 C3312 1.387 . S
C3313 C3315 1.387 . S
H3314 C3321 0.950 . S
C3315 C3313 1.387 . S
C3315 C3317 1.390 . S
C3315 H3319 0.950 . S
H3316 C3312 0.950 . S
C3317 C3315 1.390 . S
C3317 C3318 1.387 . S
C3317 H3320 0.950 . S
C3318 C3317 1.387 . S
C3318 C3321 1.387 . S
H3319 C3315 0.950 . S
H3320 C3317 0.950 . S
C3321 C3312 1.390 . S
C3321 H3314 0.950 . S
C3321 C3318 1.387 . S
C3322 C3323 1.387 . S
C3322 H3326 0.950 . S
C3322 C3331 1.390 . S
C3323 C3322 1.387 . S
C3323 C3325 1.387 . S
H3324 C3331 0.950 . S
C3325 C3323 1.387 . S
C3325 C3327 1.390 . S
C3325 H3329 0.950 . S
H3326 C3322 0.950 . S
C3327 C3325 1.390 . S
C3327 C3328 1.387 . S
C3327 H3330 0.950 . S
C3328 C3327 1.387 . S
C3328 C3331 1.387 . S
H3329 C3325 0.950 . S
H3330 C3327 0.950 . S
C3331 C3322 1.390 . S
C3331 H3324 0.950 . S
C3331 C3328 1.387 . S
C3332 C3333 1.387 . S
C3332 H3336 0.950 . S
C3332 C3341 1.390 . S
C3333 C3332 1.387 . S
C3333 C3335 1.387 . S
H3334 C3341 0.950 . S
C3335 C3333 1.387 . S
C3335 C3337 1.390 . S
C3335 H3339 0.950 . S
H3336 C3332 0.950 . S
C3337 C3335 1.390 . S
C3337 C3338 1.387 . S
C3337 H3340 0.950 . S
C3338 C3337 1.387 . S
C3338 C3341 1.387 . S
H3339 C3335 0.950 . S
H3340 C3337 0.950 . S
C3341 C3332 1.390 . S
C3341 H3334 0.950 . S
C3341 C3338 1.387 . S
C3342 C3343 1.387 . S
C3342 H3346 0.950 . S
C3342 C3351 1.390 . S
C3343 C3342 1.387 . S
C3343 C3345 1.387 . S
H3344 C3351 0.950 . S
C3345 C3343 1.387 . S
C3345 C3347 1.390 . S
C3345 H3349 0.950 . S
H3346 C3342 0.950 . S
C3347 C3345 1.390 . S
C3347 C3348 1.387 . S
C3347 H3350 0.950 . S
C3348 C3347 1.387 . S
C3348 C3351 1.387 . S
H3349 C3345 0.950 . S
H3350 C3347 0.950 . S
C3351 C3342 1.390 . S
C3351 H3344 0.950 . S
C3351 C3348 1.387 . S
C3352 C3353 1.387 . S
C3352 H3356 0.950 . S
C3352 C3361 1.390 . S
C3353 C3352 1.387 . S
C3353 C3355 1.387 . S
H3354 C3361 0.950 . S
C3355 C3353 1.387 . S
C3355 C3357 1.390 . S
C3355 H3359 0.950 . S
H3356 C3352 0.950 . S
C3357 C3355 1.390 . S
C3357 C3358 1.387 . S
C3357 H3360 0.950 . S
C3358 C3357 1.387 . S
C3358 C3361 1.387 . S
H3359 C3355 0.950 . S
H3360 C3357 0.950 . S
C3361 C3352 1.390 . S
C3361 H3354 0.950 . S
C3361 C3358 1.387 . S
C3362 C3363 1.387 . S
C3362 H3366 0.950 . S
C3362 C3371 1.390 . S
C3363 C3362 1.387 . S
C3363 C3365 1.387 . S
H3364 C3371 0.950 . S
C3365 C3363 1.387 . S
C3365 C3367 1.390 . S
C3365 H3369 0.950 . S
H3366 C3362 0.950 . S
C3367 C3365 1.390 . S
C3367 C3368 1.387 . S
C3367 H3370 0.950 . S
C3368 C3367 1.387 . S
C3368 C3371 1.387 . S
H3369 C3365 0.950 . S
H3370 C3367 0.950 . S
C3371 C3362 1.390 . S
C3371 H3364 0.950 . S
C3371 C3368 1.387 . S
C3372 C3373 1.387 . S
C3372 H3376 0.950 . S
C3372 C3381 1.390 . S
C3373 C3372 1.387 . S
C3373 C3375 1.387 . S
H3374 C3381 0.950 . S
C3375 C3373 1.387 . S
C3375 C3377 1.390 . S
C3375 H3379 0.950 . S
H3376 C3372 0.950 . S
C3377 C3375 1.390 . S
C3377 C3378 1.387 . S
C3377 H3380 0.950 . S
C3378 C3377 1.387 . S
C3378 C3381 1.387 . S
H3379 C3375 0.950 . S
H3380 C3377 0.950 . S
C3381 C3372 1.390 . S
C3381 H3374 0.950 . S
C3381 C3378 1.387 . S
C3382 C3383 1.387 . S
C3382 H3386 0.950 . S
C3382 C3391 1.390 . S
C3383 C3382 1.387 . S
C3383 C3385 1.387 . S
H3384 C3391 0.950 . S
C3385 C3383 1.387 . S
C3385 C3387 1.390 . S
C3385 H3389 0.950 . S
H3386 C3382 0.950 . S
C3387 C3385 1.390 . S
C3387 C3388 1.387 . S
C3387 H3390 0.950 . S
C3388 C3387 1.387 . S
C3388 C3391 1.387 . S
H3389 C3385 0.950 . S
H3390 C3387 0.950 . S
C3391 C3382 1.390 . S
C3391 H3384 0.950 . S
C3391 C3388 1.387 . S
C3392 C3393 1.387 . S
C3392 H3396 0.950 . S
C3392 C3401 1.390 . S
C3393 C3392 1.387 . S
C3393 C3395 1.387 . S
H3394 C3401 0.950 . S
C3395 C3393 1.387 . S
C3395 C3397 1.390 . S
C3395 H3399 0.950 . S
H3396 C3392 0.950 . S
C3397 C3395 1.390 . S
C3397 C3398 1.387 . S
C3397 H3400 0.950 . S
C3398 C3397 1.387 . S
C3398 C3401 1.387 . S
H3399 C3395 0.950 . S
H3400 C3397 0.950 . S
C3401 C3392 1.390 . S
C3401 H3394 0.950 . S
C3401 C3398 1.387 . S
C3402 C3403 1.387 . S
C3402 H3406 0.950 . S
C3402 C3411 1.390 . S
C3403 C3402 1.387 . S
C3403 C3405 1.387 . S
H3404 C3411 0.950 . S
C3405 C3403 1.387 . S
C3405 C3407 1.390 . S
C3405 H3409 0.950 . S
H3406 C3402 0.950 . S
C3407 C3405 1.390 . S
C3407 C3408 1.387 . S
C3407 H3410 0.950 . S
C3408 C3407 1.387 . S
C3408 C3411 1.387 . S
H3409 C3405 0.950 . S
H3410 C3407 0.950 . S
C3411 C3402 1.390 . S
C3411 H3404 0.950 . S
C3411 C3408 1.387 . S
C3412 C3413 1.387 . S
C3412 H3416 0.950 . S
C3412 C3421 1.390 . S
C3413 C3412 1.387 . S
C3413 C3415 1.387 . S
H3414 C3421 0.950 . S
C3415 C3413 1.387 . S
C3415 C3417 1.390 . S
C3415 H3419 0.950 . S
H3416 C3412 0.950 . S
C3417 C3415 1.390 . S
C3417 C3418 1.387 . S
C3417 H3420 0.950 . S
C3418 C3417 1.387 . S
C3418 C3421 1.387 . S
H3419 C3415 0.950 . S
H3420 C3417 0.950 . S
C3421 C3412 1.390 . S
C3421 H3414 0.950 . S
C3421 C3418 1.387 . S
C3422 C3423 1.387 . S
C3422 H3426 0.950 . S
C3422 C3431 1.390 . S
C3423 C3422 1.387 . S
C3423 C3425 1.386 1_554 S
H3424 C3431 0.950 . S
C3425 C3423 1.386 1_556 S
C3425 C3427 1.390 . S
C3425 H3429 0.951 . S
H3426 C3422 0.950 . S
C3427 C3425 1.390 . S
C3427 C3428 1.387 1_556 S
C3427 H3430 0.950 . S
C3428 C3427 1.387 1_554 S
C3428 C3431 1.387 . S
H3429 C3425 0.951 . S
H3430 C3427 0.950 . S
C3431 C3422 1.390 . S
C3431 H3424 0.950 . S
C3431 C3428 1.387 . S
C3432 C3433 1.387 . S
C3432 H3436 0.950 . S
C3432 C3441 1.390 . S
C3433 C3432 1.387 . S
C3433 C3435 1.387 . S
H3434 C3441 0.950 . S
C3435 C3433 1.387 . S
C3435 C3437 1.390 . S
C3435 H3439 0.950 . S
H3436 C3432 0.950 . S
C3437 C3435 1.390 . S
C3437 C3438 1.387 . S
C3437 H3440 0.950 . S
C3438 C3437 1.387 . S
C3438 C3441 1.387 . S
H3439 C3435 0.950 . S
H3440 C3437 0.950 . S
C3441 C3432 1.390 . S
C3441 H3434 0.950 . S
C3441 C3438 1.387 . S
C3442 C3443 1.401 . S
C3442 H3446 0.917 1_554 S
C3442 C3451 1.410 . S
C3443 C3442 1.401 . S
C3443 C3445 1.387 . S
H3444 C3451 0.950 . S
C3445 C3443 1.387 . S
C3445 C3447 1.390 . S
C3445 H3449 0.950 . S
H3446 C3442 0.917 1_556 S
C3447 C3445 1.390 . S
C3447 C3448 1.387 . S
C3447 H3450 0.950 . S
C3448 C3447 1.387 . S
C3448 C3451 1.387 . S
H3449 C3445 0.950 . S
H3450 C3447 0.950 . S
C3451 C3442 1.410 . S
C3451 H3444 0.950 . S
C3451 C3448 1.387 . S
C3452 C3453 1.387 . S
C3452 H3456 0.950 . S
C3452 C3461 1.390 . S
C3453 C3452 1.387 . S
C3453 C3455 1.387 . S
H3454 C3461 0.950 . S
C3455 C3453 1.387 . S
C3455 C3457 1.390 . S
C3455 H3459 0.950 . S
H3456 C3452 0.950 . S
C3457 C3455 1.390 . S
C3457 C3458 1.387 . S
C3457 H3460 0.950 . S
C3458 C3457 1.387 . S
C3458 C3461 1.387 . S
H3459 C3455 0.950 . S
H3460 C3457 0.950 . S
C3461 C3452 1.390 . S
C3461 H3454 0.950 . S
C3461 C3458 1.387 . S
C3462 C3463 1.387 . S
C3462 H3466 0.950 . S
C3462 C3471 1.390 . S
C3463 C3462 1.387 . S
C3463 C3465 1.387 . S
H3464 C3471 0.950 . S
C3465 C3463 1.387 . S
C3465 C3467 1.390 . S
C3465 H3469 0.950 . S
H3466 C3462 0.950 . S
C3467 C3465 1.390 . S
C3467 C3468 1.387 . S
C3467 H3470 0.950 . S
C3468 C3467 1.387 . S
C3468 C3471 1.387 . S
H3469 C3465 0.950 . S
H3470 C3467 0.950 . S
C3471 C3462 1.390 . S
C3471 H3464 0.950 . S
C3471 C3468 1.387 . S
C3472 C3473 1.387 . S
C3472 H3476 0.950 . S
C3472 C3481 1.390 . S
C3473 C3472 1.387 . S
C3473 C3475 1.387 . S
H3474 C3481 0.950 . S
C3475 C3473 1.387 . S
C3475 C3477 1.390 . S
C3475 H3479 0.950 . S
H3476 C3472 0.950 . S
C3477 C3475 1.390 . S
C3477 C3478 1.387 . S
C3477 H3480 0.950 . S
C3478 C3477 1.387 . S
C3478 C3481 1.387 . S
H3479 C3475 0.950 . S
H3480 C3477 0.950 . S
C3481 C3472 1.390 . S
C3481 H3474 0.950 . S
C3481 C3478 1.387 . S
C3482 C3483 1.387 . S
C3482 H3486 0.950 . S
C3482 C3491 1.390 . S
C3483 C3482 1.387 . S
C3483 C3485 1.387 . S
H3484 C3491 0.950 . S
C3485 C3483 1.387 . S
C3485 C3487 1.390 . S
C3485 H3489 0.950 . S
H3486 C3482 0.950 . S
C3487 C3485 1.390 . S
C3487 C3488 1.387 . S
C3487 H3490 0.950 . S
C3488 C3487 1.387 . S
C3488 C3491 1.387 . S
H3489 C3485 0.950 . S
H3490 C3487 0.950 . S
C3491 C3482 1.390 . S
C3491 H3484 0.950 . S
C3491 C3488 1.387 . S
C3492 C3493 1.387 . S
C3492 H3496 0.950 . S
C3492 C3501 1.390 . S
C3493 C3492 1.387 . S
C3493 C3495 1.387 . S
H3494 C3501 0.974 . S
C3495 C3493 1.387 . S
C3495 C3497 1.390 . S
C3495 H3499 0.950 . S
H3496 C3492 0.950 . S
C3497 C3495 1.390 . S
C3497 C3498 1.387 . S
C3497 H3500 0.950 . S
C3498 C3497 1.387 . S
C3498 C3501 1.387 . S
H3499 C3495 0.950 . S
H3500 C3497 0.950 . S
C3501 C3492 1.390 . S
C3501 H3494 0.974 . S
C3501 C3498 1.387 . S
C3502 C3503 1.387 . S
C3502 H3506 0.950 . S
C3502 C3511 1.390 . S
C3503 C3502 1.387 . S
C3503 C3505 1.387 . S
H3504 C3511 0.950 . S
C3505 C3503 1.387 . S
C3505 C3507 1.390 . S
C3505 H3509 0.950 . S
H3506 C3502 0.950 . S
C3507 C3505 1.390 . S
C3507 C3508 1.387 . S
C3507 H3510 0.950 . S
C3508 C3507 1.387 . S
C3508 C3511 1.387 . S
H3509 C3505 0.950 . S
H3510 C3507 0.950 . S
C3511 C3502 1.390 . S
C3511 H3504 0.950 . S
C3511 C3508 1.387 . S
C3512 C3513 1.387 . S
C3512 H3516 0.950 . S
C3512 C3521 1.390 . S
C3513 C3512 1.387 . S
C3513 C3515 1.387 . S
H3514 C3521 0.950 . S
C3515 C3513 1.387 . S
C3515 C3517 1.390 . S
C3515 H3519 0.950 . S
H3516 C3512 0.950 . S
C3517 C3515 1.390 . S
C3517 C3518 1.387 . S
C3517 H3520 0.950 1_556 S
C3518 C3517 1.387 . S
C3518 C3521 1.387 . S
H3519 C3515 0.950 . S
H3520 C3517 0.950 1_554 S
C3521 C3512 1.390 . S
C3521 H3514 0.950 . S
C3521 C3518 1.387 . S
C3522 C3523 1.387 . S
C3522 H3526 0.950 . S
C3522 C3531 1.390 . S
C3523 C3522 1.387 . S
C3523 C3525 1.387 . S
H3524 C3531 0.950 . S
C3525 C3523 1.387 . S
C3525 C3527 1.390 . S
C3525 H3529 0.950 . S
H3526 C3522 0.950 . S
C3527 C3525 1.390 . S
C3527 C3528 1.387 . S
C3527 H3530 0.950 . S
C3528 C3527 1.387 . S
C3528 C3531 1.387 . S
H3529 C3525 0.950 . S
H3530 C3527 0.950 . S
C3531 C3522 1.390 . S
C3531 H3524 0.950 . S
C3531 C3528 1.387 . S
C3532 C3533 1.387 . S
C3532 H3536 0.950 . S
C3532 C3541 1.390 . S
C3533 C3532 1.387 . S
C3533 C3535 1.387 . S
H3534 C3541 0.950 . S
C3535 C3533 1.387 . S
C3535 C3537 1.390 . S
C3535 H3539 0.950 . S
H3536 C3532 0.950 . S
C3537 C3535 1.390 . S
C3537 C3538 1.387 . S
C3537 H3540 0.950 . S
C3538 C3537 1.387 . S
C3538 C3541 1.387 . S
H3539 C3535 0.950 . S
H3540 C3537 0.950 . S
C3541 C3532 1.390 . S
C3541 H3534 0.950 . S
C3541 C3538 1.387 . S
C3542 C3543 1.387 . S
C3542 H3546 0.950 . S
C3542 C3551 1.390 . S
C3543 C3542 1.387 . S
C3543 C3545 1.387 . S
H3544 C3551 0.950 . S
C3545 C3543 1.387 . S
C3545 C3547 1.390 . S
C3545 H3549 0.950 . S
H3546 C3542 0.950 . S
C3547 C3545 1.390 . S
C3547 C3548 1.387 . S
C3547 H3550 0.950 . S
C3548 C3547 1.387 . S
C3548 C3551 1.387 . S
H3549 C3545 0.950 . S
H3550 C3547 0.950 . S
C3551 C3542 1.390 . S
C3551 H3544 0.950 . S
C3551 C3548 1.387 . S
C3552 C3553 1.387 . S
C3552 H3556 0.950 . S
C3552 C3561 1.390 . S
C3553 C3552 1.387 . S
C3553 C3555 1.387 . S
H3554 C3561 0.950 . S
C3555 C3553 1.387 . S
C3555 C3557 1.390 . S
C3555 H3559 0.950 . S
H3556 C3552 0.950 . S
C3557 C3555 1.390 . S
C3557 C3558 1.387 . S
C3557 H3560 0.950 . S
C3558 C3557 1.387 . S
C3558 C3561 1.387 . S
H3559 C3555 0.950 . S
H3560 C3557 0.950 . S
C3561 C3552 1.390 . S
C3561 H3554 0.950 . S
C3561 C3558 1.387 . S
C3562 C3563 1.387 . S
C3562 H3566 0.950 . S
C3562 C3571 1.390 . S
C3563 C3562 1.387 . S
C3563 C3565 1.387 . S
H3564 C3571 0.950 . S
C3565 C3563 1.387 . S
C3565 C3567 1.390 . S
C3565 H3569 0.950 . S
H3566 C3562 0.950 . S
C3567 C3565 1.390 . S
C3567 C3568 1.387 . S
C3567 H3570 0.950 . S
C3568 C3567 1.387 . S
C3568 C3571 1.387 . S
H3569 C3565 0.950 . S
H3570 C3567 0.950 . S
C3571 C3562 1.390 . S
C3571 H3564 0.950 . S
C3571 C3568 1.387 . S
C3572 C3573 1.387 . S
C3572 H3576 0.950 . S
C3572 C3581 1.390 . S
C3573 C3572 1.387 . S
C3573 C3575 1.387 . S
H3574 C3581 0.950 . S
C3575 C3573 1.387 . S
C3575 C3577 1.390 . S
C3575 H3579 0.951 . S
H3576 C3572 0.950 . S
C3577 C3575 1.390 . S
C3577 C3578 1.387 . S
C3577 H3580 0.950 . S
C3578 C3577 1.387 . S
C3578 C3581 1.387 . S
H3579 C3575 0.951 . S
H3580 C3577 0.950 . S
C3581 C3572 1.390 . S
C3581 H3574 0.950 . S
C3581 C3578 1.387 . S
C3582 C3583 1.387 . S
C3582 H3586 0.950 . S
C3582 C3591 1.390 . S
C3583 C3582 1.387 . S
C3583 C3585 1.387 . S
H3584 C3591 0.950 . S
C3585 C3583 1.387 . S
C3585 C3587 1.390 . S
C3585 H3589 0.950 . S
H3586 C3582 0.950 . S
C3587 C3585 1.390 . S
C3587 C3588 1.387 . S
C3587 H3590 0.950 . S
C3588 C3587 1.387 . S
C3588 C3591 1.387 . S
H3589 C3585 0.950 . S
H3590 C3587 0.950 . S
C3591 C3582 1.390 . S
C3591 H3584 0.950 . S
C3591 C3588 1.387 . S
C3592 C3593 1.387 . S
C3592 H3596 0.950 . S
C3592 C3601 1.390 . S
C3593 C3592 1.387 . S
C3593 C3595 1.387 . S
H3594 C3601 0.950 . S
C3595 C3593 1.387 . S
C3595 C3597 1.390 . S
C3595 H3599 0.950 . S
H3596 C3592 0.950 . S
C3597 C3595 1.390 . S
C3597 C3598 1.387 . S
C3597 H3600 0.950 . S
C3598 C3597 1.387 . S
C3598 C3601 1.387 . S
H3599 C3595 0.950 . S
H3600 C3597 0.950 . S
C3601 C3592 1.390 . S
C3601 H3594 0.950 . S
C3601 C3598 1.387 . S
C3602 C3603 1.387 . S
C3602 H3606 0.950 . S
C3602 C3611 1.390 . S
C3603 C3602 1.387 . S
C3603 C3605 1.387 . S
H3604 C3611 0.950 . S
C3605 C3603 1.387 . S
C3605 C3607 1.390 . S
C3605 H3609 0.950 . S
H3606 C3602 0.950 . S
C3607 C3605 1.390 . S
C3607 C3608 1.387 . S
C3607 H3610 0.950 . S
C3608 C3607 1.387 . S
C3608 C3611 1.387 . S
H3609 C3605 0.950 . S
H3610 C3607 0.950 . S
C3611 C3602 1.390 . S
C3611 H3604 0.950 . S
C3611 C3608 1.387 . S
C3612 C3613 1.387 . S
C3612 H3616 0.950 . S
C3612 C3621 1.390 . S
C3613 C3612 1.387 . S
C3613 C3615 1.387 . S
H3614 C3621 0.950 . S
C3615 C3613 1.387 . S
C3615 C3617 1.390 . S
C3615 H3619 0.950 . S
H3616 C3612 0.950 . S
C3617 C3615 1.390 . S
C3617 C3618 1.387 . S
C3617 H3620 0.950 . S
C3618 C3617 1.387 . S
C3618 C3621 1.387 . S
H3619 C3615 0.950 . S
H3620 C3617 0.950 . S
C3621 C3612 1.390 . S
C3621 H3614 0.950 . S
C3621 C3618 1.387 . S
C3622 C3623 1.387 . S
C3622 H3626 0.950 . S
C3622 C3631 1.390 . S
C3623 C3622 1.387 . S
C3623 C3625 1.387 . S
H3624 C3631 0.950 . S
C3625 C3623 1.387 . S
C3625 C3627 1.390 . S
C3625 H3629 0.950 . S
H3626 C3622 0.950 . S
C3627 C3625 1.390 . S
C3627 C3628 1.387 . S
C3627 H3630 0.950 . S
C3628 C3627 1.387 . S
C3628 C3631 1.387 . S
H3629 C3625 0.950 . S
H3630 C3627 0.950 . S
C3631 C3622 1.390 . S
C3631 H3624 0.950 . S
C3631 C3628 1.387 . S
C3632 C3633 1.387 . S
C3632 H3636 0.950 . S
C3632 C3641 1.390 . S
C3633 C3632 1.387 . S
C3633 C3635 1.387 . S
H3634 C3641 0.950 . S
C3635 C3633 1.387 . S
C3635 C3637 1.390 . S
C3635 H3639 0.950 . S
H3636 C3632 0.950 . S
C3637 C3635 1.390 . S
C3637 C3638 1.387 . S
C3637 H3640 0.950 . S
C3638 C3637 1.387 . S
C3638 C3641 1.387 . S
H3639 C3635 0.950 . S
H3640 C3637 0.950 . S
C3641 C3632 1.390 . S
C3641 H3634 0.950 . S
C3641 C3638 1.387 . S
C3642 C3643 1.387 . S
C3642 H3646 0.950 . S
C3642 C3651 1.390 . S
C3643 C3642 1.387 . S
C3643 C3645 1.387 . S
H3644 C3651 0.950 1_545 S
C3645 C3643 1.387 . S
C3645 C3647 1.390 . S
C3645 H3649 0.950 . S
H3646 C3642 0.950 . S
C3647 C3645 1.390 . S
C3647 C3648 1.387 . S
C3647 H3650 0.950 . S
C3648 C3647 1.387 . S
C3648 C3651 1.387 . S
H3649 C3645 0.950 . S
H3650 C3647 0.950 . S
C3651 C3642 1.390 . S
C3651 H3644 0.950 1_565 S
C3651 C3648 1.387 . S
C3652 C3653 1.387 . S
C3652 H3656 0.950 . S
C3652 C3661 1.390 . S
C3653 C3652 1.387 . S
C3653 C3655 1.387 . S
H3654 C3661 0.950 . S
C3655 C3653 1.387 . S
C3655 C3657 1.390 . S
C3655 H3659 0.950 . S
H3656 C3652 0.950 . S
C3657 C3655 1.390 . S
C3657 C3658 1.387 . S
C3657 H3660 0.950 . S
C3658 C3657 1.387 . S
C3658 C3661 1.387 . S
H3659 C3655 0.950 . S
H3660 C3657 0.950 . S
C3661 C3652 1.390 . S
C3661 H3654 0.950 . S
C3661 C3658 1.387 . S
C3662 C3663 1.387 . S
C3662 H3666 0.950 . S
C3662 C3671 1.390 . S
C3663 C3662 1.387 . S
C3663 C3665 1.387 1_554 S
H3664 C3671 0.950 . S
C3665 C3663 1.387 1_556 S
C3665 C3667 1.390 . S
C3665 H3669 0.950 . S
H3666 C3662 0.950 . S
C3667 C3665 1.390 . S
C3667 C3668 1.387 1_556 S
C3667 H3670 0.950 . S
C3668 C3667 1.387 1_554 S
C3668 C3671 1.387 . S
H3669 C3665 0.950 . S
H3670 C3667 0.950 . S
C3671 C3662 1.390 . S
C3671 H3664 0.950 . S
C3671 C3668 1.387 . S
C3672 C3673 1.387 . S
C3672 H3676 0.950 . S
C3672 C3681 1.390 . S
C3673 C3672 1.387 . S
C3673 C3675 1.387 . S
H3674 C3681 0.950 . S
C3675 C3673 1.387 . S
C3675 C3677 1.390 . S
C3675 H3679 0.950 . S
H3676 C3672 0.950 . S
C3677 C3675 1.390 . S
C3677 C3678 1.387 . S
C3677 H3680 0.950 . S
C3678 C3677 1.387 . S
C3678 C3681 1.387 . S
H3679 C3675 0.950 . S
H3680 C3677 0.950 . S
C3681 C3672 1.390 . S
C3681 H3674 0.950 . S
C3681 C3678 1.387 . S
C3682 C3683 1.387 . S
C3682 H3686 0.950 . S
C3682 C3691 1.390 . S
C3683 C3682 1.387 . S
C3683 C3685 1.387 1_554 S
H3684 C3691 0.950 . S
C3685 C3683 1.387 1_556 S
C3685 C3687 1.390 . S
C3685 H3689 0.950 . S
H3686 C3682 0.950 . S
C3687 C3685 1.390 . S
C3687 C3688 1.387 . S
C3687 H3690 0.950 . S
C3688 C3687 1.387 . S
C3688 C3691 1.387 1_556 S
H3689 C3685 0.950 . S
H3690 C3687 0.950 . S
C3691 C3682 1.390 . S
C3691 H3684 0.950 . S
C3691 C3688 1.387 1_554 S
C3692 C3693 1.387 . S
C3692 H3696 0.950 . S
C3692 C3701 1.390 . S
C3693 C3692 1.387 . S
C3693 C3695 1.387 . S
H3694 C3701 0.950 . S
C3695 C3693 1.387 . S
C3695 C3697 1.390 . S
C3695 H3699 0.950 . S
H3696 C3692 0.950 . S
C3697 C3695 1.390 . S
C3697 C3698 1.387 . S
C3697 H3700 0.950 . S
C3698 C3697 1.387 . S
C3698 C3701 1.387 . S
H3699 C3695 0.950 . S
H3700 C3697 0.950 . S
C3701 C3692 1.390 . S
C3701 H3694 0.950 . S
C3701 C3698 1.387 . S
C3702 C3703 1.387 . S
C3702 H3706 0.950 . S
C3702 C3711 1.390 . S
C3703 C3702 1.387 . S
C3703 C3705 1.387 . S
H3704 C3711 0.950 . S
C3705 C3703 1.387 . S
C3705 C3707 1.390 . S
C3705 H3709 0.950 . S
H3706 C3702 0.950 . S
C3707 C3705 1.390 . S
C3707 C3708 1.387 . S
C3707 H3710 0.950 . S
C3708 C3707 1.387 . S
C3708 C3711 1.387 . S
H3709 C3705 0.950 . S
H3710 C3707 0.950 . S
C3711 C3702 1.390 . S
C3711 H3704 0.950 . S
C3711 C3708 1.387 . S
C2753 C665 1.110 . S
C2758 C2120 1.148 . S
C2763 C381 1.336 . S
C2768 C2154 1.327 . S
C2773 C460 0.617 . S
C2778 C2223 0.602 . S
C2788 C2261 1.041 . S
C2783 C585 1.051 . S
C2793 C108 1.662 . S
C2798 C2301 1.609 . S
C2808 C2320 0.410 . S
C2803 C196 0.469 . S
C2818 C2354 1.548 . S
C2813 C313 1.515 . S
C2823 C49 1.700 . S
C2828 C2423 1.699 . S
C2838 C2129 2.461 . S
C2833 C1457 2.490 1_455 S
C2843 C1545 1.268 . S
C2848 C2181 1.229 . S
C2858 C2194 1.348 . S
C2853 C1721 1.365 . S
C2868 C2263 1.759 . S
C2863 C1113 1.664 . S
C2873 C1428 2.099 . S
C2878 C2303 2.181 . S
C2888 C2329 1.837 . S
C2883 C1516 1.894 . S
C2898 C2381 0.638 . S
C2893 C1692 0.617 . S
C2908 C2394 2.292 . S
C2903 C1085 2.311 . S
C2918 C2124 2.512 . S
C2913 C988 2.502 1_545 S
C2923 C1817 1.950 . S
C2928 C2434 1.963 . S
C2938 C2484 2.660 . S
C2933 C2081 2.683 . S
C2948 C2543 1.894 1_655 S
C2943 C1993 1.816 . S
C2953 C761 1.725 . S
C2958 C2421 1.696 . S
C2963 C821 1.535 . S
C2968 C2221 1.504 . S
C2973 C2053 2.519 . S
C2978 C2554 2.474 . S
C2988 C2623 0.767 . S
C2983 C1868 0.769 . S
C2998 C2141 1.145 . S
C2993 C372 1.111 . S
C3008 C2609 1.325 . S
C3003 C645 1.334 . S
C3013 C577 0.612 . S
C3018 C2204 0.599 . S
C3023 C497 1.046 . S
C3028 C2560 1.038 . S
C3038 C2280 1.610 . S
C3033 C57 1.671 . S
C3043 C293 0.464 . S
C3048 C2501 0.405 . S
C3058 C2369 1.552 . S
C3053 C205 1.502 . S
C3068 C2644 1.700 . S
C3063 C145 1.711 . S
C3078 C2114 2.460 . S
C3073 C909 2.488 . S
C3088 C2600 1.234 . S
C3083 C1956 1.279 . S
C3093 C724 1.361 . S
C3098 C2209 1.344 . S
C3103 C1780 1.661 . S
C3108 C2564 1.754 . S
C3113 C937 2.104 . S
C3118 C2284 2.175 . S
C3128 C2474 1.835 . S
C3123 C1985 1.889 . S
C3133 C753 0.625 . S
C3138 C2360 0.649 . S
C3143 C1809 2.311 . S
C3148 C2649 2.290 . S
C3153 C1173 2.522 . S
C3158 C2143 2.508 1_655 S
C3163 C1105 1.944 . S
C3168 C2449 1.961 . S
C3173 C1633 2.680 . S
C3178 C2343 2.657 . S
C3183 C1553 1.808 . S
C3188 C2524 1.885 . S
C3198 C2640 1.693 . S
C3193 C1729 1.732 . S
C3203 C1340 1.540 . S
C3208 C2200 1.501 . S
C3218 C2249 2.473 . S
C3213 C1604 2.514 . S
C3228 C2164 0.763 . S
C3223 C1252 0.765 . S
C3233 C489 1.106 . S
C3238 C2680 1.147 . S
C3248 C2594 1.327 . S
C3243 C557 1.336 . S
C3253 C636 0.615 . S
C3258 C2743 0.601 1_556 S
C3263 C409 1.051 . S
C3268 C2581 1.041 . S
C3273 C284 1.662 . S
C3278 C2461 1.610 . S
C3288 C2480 0.410 . S
C3283 C20 0.470 1_655 S
C3298 C2514 1.547 . S
C3293 C137 1.511 . S
C3308 C2663 1.699 . S
C3303 C225 1.701 . S
C3318 C2689 2.462 . S
C3313 C1641 2.490 . S
C3323 C1193 1.266 . S
C3328 C2621 1.228 . S
C3338 C2714 1.348 . S
C3333 C1289 1.365 . S
C3348 C2583 1.757 . S
C3343 C1377 1.661 . S
C3358 C2463 2.181 . S
C3353 C1613 2.100 . S
C3363 C1164 1.893 . S
C3368 C2489 1.835 . S
C3378 C2541 0.638 . S
C3373 C1261 0.617 . S
C3383 C1349 2.311 . S
C3388 C2634 2.293 . S
C3398 C2684 2.512 . S
C3393 C1965 2.522 . S
C3403 C849 1.950 . S
C3408 C2274 1.962 . S
C3418 C2324 2.660 . S
C3413 C929 2.683 . S
C3428 C2383 1.894 . S
C3423 C1017 1.816 . S
C3438 C2661 1.692 . S
C3433 C1897 1.721 . S
C3443 C1789 1.534 . S
C3448 C2741 1.503 . S
C3458 C2234 2.474 . S
C3453 C900 2.519 . S
C3468 C2183 0.770 . S
C3463 C733 0.768 . S
C3473 C548 1.111 . S
C3478 C2701 1.145 . S
C3488 C2169 1.326 . S
C3483 C469 1.333 . S
C3493 C401 0.609 . S
C3498 C2724 0.597 . S
C3503 C673 1.048 . S
C3508 C2240 1.038 . S
C3513 C233 1.669 . S
C3518 C2440 1.608 . S
C3528 C2341 0.404 . S
C3523 C117 0.459 . S
C3533 C29 1.507 . S
C3538 C2529 1.549 . S
C3543 C321 1.706 . S
C3548 C2404 1.700 . S
C3558 C2674 2.460 . S
C3553 C2044 2.488 . S
C3563 C997 1.274 . S
C3568 C2160 1.228 . S
C3578 C2729 1.347 . S
C3573 C1877 1.362 1_455 S
C3583 C812 1.661 . S
C3588 C2244 1.754 . S
C3593 C2073 2.105 . S
C3598 C2444 2.177 . S
C3608 C2314 1.835 . S
C3603 C1025 1.889 . S
C3613 C1905 0.614 . S
C3618 C2520 0.635 . S
C3628 C2409 2.289 . S
C3623 C841 2.310 . S
C3638 C2703 2.508 . S
C3633 C1525 2.521 . S
C3648 C2289 1.961 1_665 S
C3643 C1369 1.944 . S
C3653 C1465 2.679 . S
C3658 C2503 2.657 . S
C3668 C2364 1.887 . S
C3663 C1201 1.811 . S
C3673 C1281 1.731 . S
C3678 C2400 1.691 . S
C3683 C1076 1.540 . S
C3688 C2720 1.502 . S
C3698 C2569 2.471 . S
C3693 C1437 2.513 . S
C3708 C2604 0.765 . S
C3703 C1701 0.764 . S
