# Generated by pormake.
# Topology pyr, (3,6)-cn, num edge types: 1
# Building blocks:
#     Node 0, Type 0, BuildingBlock: OLANEW_clean_sbu_2, # of connection points: 3
#     Node 1, Type 0, BuildingBlock: OLANEW_clean_sbu_2, # of connection points: 3
#     Node 2, Type 0, BuildingBlock: OLANEW_clean_sbu_2, # of connection points: 3
#     Node 3, Type 0, BuildingBlock: OLANEW_clean_sbu_2, # of connection points: 3
#     Node 4, Type 0, BuildingBlock: OLANEW_clean_sbu_2, # of connection points: 3
#     Node 5, Type 0, BuildingBlock: OLANEW_clean_sbu_2, # of connection points: 3
#     Node 6, Type 0, BuildingBlock: OLANEW_clean_sbu_2, # of connection points: 3
#     Node 7, Type 0, BuildingBlock: OLANEW_clean_sbu_2, # of connection points: 3
#     Node 8, Type 1, BuildingBlock: INOVEN_clean_sbu_0, # of connection points: 6
#     Node 9, Type 1, BuildingBlock: INOVEN_clean_sbu_0, # of connection points: 6
#     Node 10, Type 1, BuildingBlock: INOVEN_clean_sbu_0, # of connection points: 6
#     Node 11, Type 1, BuildingBlock: INOVEN_clean_sbu_0, # of connection points: 6
#     Edge 12, Type (0, 1), BuildingBlock: MIFKUJ_clean_linker_0, # of connection points: 2
#     Edge 13, Type (0, 1), BuildingBlock: MIFKUJ_clean_linker_0, # of connection points: 2
#     Edge 14, Type (0, 1), BuildingBlock: MIFKUJ_clean_linker_0, # of connection points: 2
#     Edge 15, Type (0, 1), BuildingBlock: MIFKUJ_clean_linker_0, # of connection points: 2
#     Edge 16, Type (0, 1), BuildingBlock: MIFKUJ_clean_linker_0, # of connection points: 2
#     Edge 17, Type (0, 1), BuildingBlock: MIFKUJ_clean_linker_0, # of connection points: 2
#     Edge 18, Type (0, 1), BuildingBlock: MIFKUJ_clean_linker_0, # of connection points: 2
#     Edge 19, Type (0, 1), BuildingBlock: MIFKUJ_clean_linker_0, # of connection points: 2
#     Edge 20, Type (0, 1), BuildingBlock: MIFKUJ_clean_linker_0, # of connection points: 2
#     Edge 21, Type (0, 1), BuildingBlock: MIFKUJ_clean_linker_0, # of connection points: 2
#     Edge 22, Type (0, 1), BuildingBlock: MIFKUJ_clean_linker_0, # of connection points: 2
#     Edge 23, Type (0, 1), BuildingBlock: MIFKUJ_clean_linker_0, # of connection points: 2
#     Edge 24, Type (0, 1), BuildingBlock: MIFKUJ_clean_linker_0, # of connection points: 2
#     Edge 25, Type (0, 1), BuildingBlock: MIFKUJ_clean_linker_0, # of connection points: 2
#     Edge 26, Type (0, 1), BuildingBlock: MIFKUJ_clean_linker_0, # of connection points: 2
#     Edge 27, Type (0, 1), BuildingBlock: MIFKUJ_clean_linker_0, # of connection points: 2
#     Edge 28, Type (0, 1), BuildingBlock: MIFKUJ_clean_linker_0, # of connection points: 2
#     Edge 29, Type (0, 1), BuildingBlock: MIFKUJ_clean_linker_0, # of connection points: 2
#     Edge 30, Type (0, 1), BuildingBlock: MIFKUJ_clean_linker_0, # of connection points: 2
#     Edge 31, Type (0, 1), BuildingBlock: MIFKUJ_clean_linker_0, # of connection points: 2
#     Edge 32, Type (0, 1), BuildingBlock: MIFKUJ_clean_linker_0, # of connection points: 2
#     Edge 33, Type (0, 1), BuildingBlock: MIFKUJ_clean_linker_0, # of connection points: 2
#     Edge 34, Type (0, 1), BuildingBlock: MIFKUJ_clean_linker_0, # of connection points: 2
#     Edge 35, Type (0, 1), BuildingBlock: MIFKUJ_clean_linker_0, # of connection points: 2
# Relax obj value: 0.093
# Max RMSD: 0.161
# Mean RMSD: 0.120
data_MOF--net-pyr--node1-OLANEW_clean_sbu_2--node2-INOVEN_clean_sbu_0--edge1-MIFKUJ_clean_linker_0
_symmetry_space_group_name_H-M    P1
_symmetry_Int_Tables_number       1
_symmetry_cell_setting            triclinic
loop_
_symmetry_equiv_pos_as_xyz
'x, y, z'
_cell_length_a     51.911007
_cell_length_b     56.643068
_cell_length_c     49.431831
_cell_angle_alpha  95.440989
_cell_angle_beta   88.104992
_cell_angle_gamma 102.4366
loop_
_atom_site_label
_atom_site_type_symbol
_atom_site_fract_x
_atom_site_fract_y
_atom_site_fract_z
_atom_type_partial_charge
O0 O 0.35178 0.26931 0.15805 0.0
Cd1 Cd 0.33986 0.30896 0.1686 0.0
O2 O 0.33018 0.25752 0.19478 0.0
Cd3 Cd 0.31244 0.23291 0.22505 0.0
O4 O 0.28695 0.21212 0.2543 0.0
C5 C 0.28985 0.21741 0.27974 0.0
O6 O 0.30919 0.23524 0.28854 0.0
C7 C 0.34482 0.25315 0.17459 0.0
C8 C 0.29317 0.31681 0.14781 0.0
O9 O 0.31497 0.32134 0.13439 0.0
O10 O 0.29321 0.30764 0.17055 0.0
O11 O 0.39739 0.93316 0.64707 0.0
Cd12 Cd 0.38954 0.92799 0.59821 0.0
O13 O 0.3548 0.9214 0.65176 0.0
Cd14 Cd 0.31471 0.9135 0.66871 0.0
O15 O 0.27258 0.91136 0.66434 0.0
C16 C 0.26206 0.89951 0.64292 0.0
O17 O 0.27648 0.88804 0.62628 0.0
C18 C 0.37738 0.92815 0.66265 0.0
C19 C 0.39089 0.8804 0.57949 0.0
O20 O 0.41167 0.89737 0.57919 0.0
O21 O 0.36923 0.88608 0.58798 0.0
O22 O 0.69474 0.3861 0.8644 0.0
Cd23 Cd 0.65298 0.37528 0.83725 0.0
O24 O 0.69349 0.35717 0.89267 0.0
Cd25 Cd 0.65906 0.3257 0.89407 0.0
O26 O 0.63447 0.29198 0.91008 0.0
C27 C 0.64564 0.27651 0.91947 0.0
O28 O 0.67154 0.2806 0.91892 0.0
C29 C 0.70515 0.37698 0.88301 0.0
C30 C 0.64304 0.40389 0.79544 0.0
O31 O 0.63724 0.40898 0.82043 0.0
O32 O 0.65458 0.38607 0.79015 0.0
O33 O 0.92301 0.71526 0.38329 0.0
Cd34 Cd 0.9045 0.67362 0.36385 0.0
O35 O 0.89183 0.71255 0.41495 0.0
Cd36 Cd 0.8687 0.67575 0.40553 0.0
O37 O 0.83326 0.6511 0.41945 0.0
C38 C 0.8117 0.64743 0.40667 0.0
O39 O 0.81143 0.65707 0.38355 0.0
C40 C 0.91234 0.72469 0.40397 0.0
C41 C 0.92607 0.65791 0.31422 0.0
O42 O 0.90675 0.66877 0.31489 0.0
O43 O 0.93571 0.65512 0.33696 0.0
O44 O 0.73687 0.76674 0.80917 0.0
Cd45 Cd 0.70569 0.73813 0.83472 0.0
O46 O 0.71923 0.7966 0.82652 0.0
Cd47 Cd 0.71054 0.83278 0.83561 0.0
O48 O 0.69378 0.86274 0.85454 0.0
C49 C 0.66881 0.85984 0.85579 0.0
O50 O 0.65428 0.83948 0.84479 0.0
C51 C 0.73675 0.78926 0.81133 0.0
C52 C 0.73346 0.71278 0.86472 0.0
O53 O 0.72549 0.7045 0.84071 0.0
O54 O 0.72786 0.73283 0.87469 0.0
O55 O 0.67617 0.11743 0.49056 0.0
Cd56 Cd 0.696 0.12425 0.53537 0.0
O57 O 0.70068 0.15293 0.48365 0.0
Cd58 Cd 0.71155 0.18595 0.46277 0.0
O59 O 0.70635 0.22158 0.45428 0.0
C60 C 0.68247 0.22362 0.45419 0.0
O61 O 0.66379 0.20441 0.45781 0.0
C62 C 0.68363 0.13429 0.47502 0.0
C63 C 0.74386 0.10958 0.53382 0.0
O64 O 0.72239 0.09531 0.5405 0.0
O65 O 0.74272 0.1309 0.52798 0.0
O66 O 0.39635 0.75722 0.23848 0.0
Cd67 Cd 0.3796 0.7181 0.26019 0.0
O68 O 0.36902 0.75089 0.20343 0.0
Cd69 Cd 0.33936 0.71627 0.20505 0.0
O70 O 0.30133 0.69224 0.19092 0.0
C71 C 0.29974 0.67158 0.17758 0.0
O72 O 0.3214 0.66332 0.17279 0.0
C73 C 0.38842 0.76409 0.21681 0.0
C74 C 0.4054 0.70164 0.30286 0.0
O75 O 0.41122 0.69703 0.27777 0.0
O76 O 0.38856 0.71509 0.30806 0.0
O77 O 0.18529 0.40503 0.76054 0.0
Cd78 Cd 0.20655 0.38207 0.72517 0.0
O79 O 0.15368 0.37353 0.76863 0.0
Cd80 Cd 0.16414 0.34596 0.73857 0.0
O81 O 0.15799 0.30946 0.71698 0.0
C82 C 0.14108 0.30367 0.69814 0.0
O83 O 0.12884 0.32018 0.69119 0.0
C84 C 0.16472 0.3958 0.77379 0.0
C85 C 0.24777 0.41064 0.69701 0.0
O86 O 0.22419 0.4054 0.68789 0.0
O87 O 0.25179 0.40267 0.71958 0.0
Gd88 Gd 0.02209 0.02174 0.53008 0.0
Gd89 Gd 0.01649 1.00371 0.58615 0.0
C90 C 0.04427 0.05855 0.58256 0.0
C91 C 0.02255 0.04524 0.48768 0.0
C92 C 0.04268 0.06336 0.47512 0.0
C93 C 0.06833 0.06973 0.48545 0.0
C94 C 0.03682 0.07324 0.45177 0.0
C95 C 0.08267 0.09464 0.44801 0.0
C96 C 0.05665 0.08882 0.43833 0.0
C97 C 0.08818 0.08523 0.472 0.0
C98 C 0.06233 1.00233 0.54441 0.0
C99 C 0.99672 0.96668 0.53297 0.0
C100 C 0.01441 0.9804 0.62898 0.0
C101 C 0.99273 0.9655 0.64377 0.0
C102 C 0.96735 0.97048 0.64446 0.0
C103 C 0.99724 0.94605 0.65715 0.0
C104 C 0.95134 0.93707 0.67233 0.0
C105 C 0.97666 0.93182 0.6712 0.0
C106 C 0.9469 0.95651 0.65878 0.0
C107 C 0.9759 0.02252 0.5713 0.0
O108 O 0.03341 0.05609 0.55836 0.0
O109 O 0.04499 0.03932 0.59549 0.0
O110 O 0.02785 0.02364 0.48682 0.0
O111 O 0.01336 0.05221 0.51137 0.0
O112 O 0.0546 1.00131 0.51965 0.0
O113 O 0.05044 0.01554 0.55968 0.0
O114 O 0.00729 0.96932 0.55737 0.0
O115 O 0.99499 0.98577 0.52033 0.0
O116 O 0.01423 1.00349 0.62984 0.0
O117 O 0.02001 0.97128 0.60476 0.0
O118 O 0.98381 0.02401 0.59602 0.0
O119 O 0.98794 0.0093 0.55628 0.0
H120 H 0.07314 0.06215 0.50348 0.0
H121 H 0.01708 0.06851 0.44361 0.0
H122 H 0.05166 0.09608 0.42017 0.0
H123 H 0.10803 0.0891 0.47984 0.0
H124 H 0.96332 0.98522 0.63397 0.0
H125 H 0.01669 0.94196 0.65682 0.0
H126 H 0.98062 0.91699 0.68155 0.0
H127 H 0.9275 0.96073 0.65899 0.0
Gd128 Gd 0.52695 0.03852 0.0916 0.0
Gd129 Gd 0.47941 0.01894 0.06117 0.0
C130 C 0.47231 0.05443 0.11124 0.0
C131 C 0.56606 0.06484 0.11931 0.0
C132 C 0.57219 0.07285 0.14797 0.0
C133 C 0.56218 0.05796 0.16867 0.0
C134 C 0.58874 0.09553 0.15465 0.0
C135 C 0.58634 0.08799 0.20247 0.0
C136 C 0.59573 0.10308 0.18165 0.0
C137 C 0.56929 0.06541 0.19566 0.0
C138 C 0.50107 0.99441 0.10671 0.0
C139 C 0.53422 1.0058 0.0385 0.0
C140 C 0.44109 0.99159 0.03337 0.0
C141 C 0.43732 0.98291 1.00452 0.0
C142 C 0.45102 0.99654 0.98426 0.0
C143 C 0.4198 0.96093 0.99708 0.0
C144 C 0.4286 0.96684 0.94915 0.0
C145 C 0.41552 0.9529 0.96963 0.0
C146 C 0.44659 0.98867 0.95686 0.0
C147 C 0.50585 0.06274 0.04547 0.0
O148 O 0.4983 0.06081 0.11019 0.0
O149 O 0.45989 0.0346 0.09723 0.0
O150 O 0.56384 0.04172 0.11209 0.0
O151 O 0.54809 0.0739 0.1086 0.0
O152 O 0.52635 1.00124 0.10431 0.0
O153 O 0.49025 0.01157 0.10201 0.0
O154 O 0.50843 0.99816 0.04049 0.0
O155 O 0.54617 0.02518 0.05367 0.0
O156 O 0.44311 0.01488 0.03932 0.0
O157 O 0.4582 0.98298 0.04611 0.0
O158 O 0.48045 0.05594 0.04677 0.0
O159 O 0.51617 0.04559 0.05094 0.0
H160 H 0.54923 0.0404 0.16394 0.0
H161 H 0.59648 0.10733 0.13892 0.0
H162 H 0.6085 0.12075 0.18619 0.0
H163 H 0.56194 0.05319 0.21108 0.0
H164 H 0.46483 0.0135 0.98963 0.0
H165 H 0.4093 0.95005 0.01249 0.0
H166 H 0.40193 0.93579 0.96449 0.0
H167 H 0.45678 1.00007 0.94175 0.0
Gd168 Gd 0.52609 0.52934 0.52364 0.0
Gd169 Gd 0.51591 0.56587 0.56916 0.0
C170 C 0.54351 0.52457 0.58636 0.0
C171 C 0.54745 0.50235 0.48858 0.0
C172 C 0.55985 0.48124 0.48698 0.0
C173 C 0.55307 0.4631 0.46558 0.0
C174 C 0.57889 0.47927 0.50572 0.0
C175 C 0.58458 0.44141 0.48114 0.0
C176 C 0.59129 0.45954 0.50271 0.0
C177 C 0.56524 0.44331 0.46272 0.0
C178 C 0.47817 0.51838 0.54778 0.0
C179 C 0.49938 0.57141 0.50654 0.0
C180 C 0.49364 0.59411 0.6015 0.0
C181 C 0.48217 0.61476 0.59644 0.0
C182 C 0.48968 0.62708 0.57317 0.0
C183 C 0.46268 0.62145 0.61394 0.0
C184 C 0.45864 0.65305 0.58517 0.0
C185 C 0.45098 0.64049 0.60837 0.0
C186 C 0.47803 0.64604 0.56758 0.0
C187 C 0.56374 0.57646 0.545 0.0
O188 O 0.54658 0.51889 0.55986 0.0
O189 O 0.52935 0.54063 0.59527 0.0
O190 O 0.52206 0.49826 0.49369 0.0
O191 O 0.56052 0.52255 0.50117 0.0
O192 O 0.48213 0.5139 0.52191 0.0
O193 O 0.49969 0.52711 0.55953 0.0
O194 O 0.49569 0.57644 0.53297 0.0
O195 O 0.5135 0.55534 0.49769 0.0
O196 O 0.51927 0.59735 0.59828 0.0
O197 O 0.48094 0.57305 0.59055 0.0
O198 O 0.56001 0.58107 0.5709 0.0
O199 O 0.54213 0.56799 0.5334 0.0
H200 H 0.53852 0.46437 0.45087 0.0
H201 H 0.58438 0.49304 0.52249 0.0
H202 H 0.60599 0.45839 0.51731 0.0
H203 H 0.5599 0.42973 0.44575 0.0
H204 H 0.50448 0.62196 0.55921 0.0
H205 H 0.45652 0.61196 0.63185 0.0
H206 H 0.43626 0.64563 0.62243 0.0
H207 H 0.48403 0.65508 0.54932 0.0
Gd208 Gd 0.01248 0.49346 0.03174 0.0
Gd209 Gd 0.0036 0.54307 0.01918 0.0
C210 C 0.05607 0.54155 0.0501 0.0
C211 C 0.02303 0.45076 0.02968 0.0
C212 C 0.04136 0.43849 0.04201 0.0
C213 C 0.055 0.44861 0.06583 0.0
C214 C 0.0464 0.41695 0.02877 0.0
C215 C 0.07882 0.41566 0.06287 0.0
C216 C 0.06493 0.40564 0.03904 0.0
C217 C 0.07351 0.43725 0.07623 0.0
C218 C 0.99716 0.52025 0.07483 0.0
C219 C 0.95737 0.49527 1.00326 0.0
C220 C 0.98808 0.5827 0.01331 0.0
C221 C 0.96373 0.59081 0.00865 0.0
C222 C 0.96476 0.61564 0.00798 0.0
C223 C 0.93998 0.57408 1.00287 0.0
C224 C 0.91892 0.60701 0.994 0.0
C225 C 0.91775 0.58211 0.9955 0.0
C226 C 0.94255 0.62371 1.00078 0.0
C227 C 0.03565 0.52281 0.9843 0.0
O228 O 0.05241 0.51832 0.04076 0.0
O229 O 0.03767 0.55413 0.0478 0.0
O230 O 0.00448 0.45731 0.04545 0.0
O231 O 0.03396 0.4672 0.01346 0.0
O232 O 0.0132 0.50575 0.07645 0.0
O233 O 0.98871 0.51871 0.05093 0.0
O234 O 0.96532 0.51914 1.00377 0.0
O235 O 0.97201 0.48158 0.01298 0.0
O236 O 0.99605 0.56924 0.99313 0.0
O237 O 0.99057 0.57508 0.0371 0.0
O238 O 0.04013 0.54581 0.99211 0.0
O239 O 0.01448 0.51213 0.99476 0.0
H240 H 0.05151 0.46539 0.0762 0.0
H241 H 0.03629 0.40906 0.01016 0.0
H242 H 0.06881 0.38934 0.0279 0.0
H243 H 0.08362 0.44536 0.09475 0.0
H244 H 0.983 0.62877 0.01226 0.0
H245 H 0.93882 0.55484 1.00344 0.0
H246 H 0.89974 0.56885 0.99069 0.0
H247 H 0.94422 0.64296 0.9995 0.0
H248 H 0.2465 0.18139 0.26778 0.0
H249 H 0.21283 0.16248 0.29923 0.0
H250 H 0.2552 0.20578 0.36675 0.0
H251 H 0.28924 0.22478 0.33536 0.0
H252 H 0.23569 0.15818 0.37775 0.0
H253 H 0.20325 0.22248 0.34438 0.0
H254 H 0.19189 0.24687 0.30961 0.0
H255 H 0.1363 0.18483 0.27491 0.0
H256 H 0.1476 0.15996 0.30925 0.0
H257 H 0.12429 0.1301 0.46768 0.0
H258 H 0.16088 0.15264 0.44166 0.0
H259 H 0.12643 0.11498 0.36718 0.0
H260 H 0.09011 0.09219 0.39294 0.0
H261 H 0.14301 0.16333 0.36303 0.0
H262 H 0.17769 0.09858 0.39508 0.0
H263 H 0.18926 0.07436 0.42993 0.0
H264 H 0.24066 0.1378 0.46767 0.0
H265 H 0.2291 0.16248 0.43323 0.0
C266 C 0.24881 0.18683 0.28932 0.0
C267 C 0.27046 0.20476 0.29904 0.0
C268 C 0.22949 0.17604 0.30726 0.0
C269 C 0.23134 0.18302 0.33525 0.0
C270 C 0.25338 0.20024 0.34518 0.0
C271 C 0.27276 0.21111 0.32721 0.0
C272 C 0.20979 0.17268 0.35389 0.0
C273 C 0.21548 0.15962 0.37486 0.0
C274 C 0.18341 0.17438 0.34988 0.0
C275 C 0.17644 0.1893 0.32926 0.0
C276 C 0.18875 0.21399 0.3292 0.0
C277 C 0.1823 0.22791 0.3096 0.0
C278 C 0.16343 0.2174 0.29003 0.0
C279 C 0.15092 0.19294 0.29007 0.0
C280 C 0.15733 0.17893 0.30962 0.0
C281 C 0.12458 0.12655 0.44576 0.0
C282 C 0.10425 0.10934 0.43239 0.0
C283 C 0.14547 0.13946 0.43094 0.0
C284 C 0.14645 0.13533 0.40252 0.0
C285 C 0.12599 0.1185 0.3891 0.0
C286 C 0.10516 0.10558 0.40387 0.0
C287 C 0.16879 0.14837 0.38654 0.0
C288 C 0.16325 0.16203 0.3661 0.0
C289 C 0.19527 0.14726 0.39112 0.0
C290 C 0.20229 0.13242 0.41177 0.0
C291 C 0.19129 0.10741 0.41094 0.0
C292 C 0.19787 0.09359 0.4306 0.0
C293 C 0.21562 0.10455 0.45105 0.0
C294 C 0.22687 0.12934 0.45184 0.0
C295 C 0.22032 0.14325 0.43226 0.0
H296 H 0.2207 0.09382 0.46624 0.0
H297 H 0.15846 0.22821 0.27486 0.0
H298 H 0.4209 0.95211 0.69073 0.0
H299 H 0.42796 0.95531 0.73963 0.0
H300 H 0.34947 0.91301 0.75132 0.0
H301 H 0.34257 0.90887 0.70233 0.0
H302 H 0.36338 0.95635 0.78766 0.0
H303 H 0.39677 0.88585 0.75582 0.0
H304 H 0.4237 0.86264 0.72652 0.0
H305 H 0.49434 0.91218 0.75477 0.0
H306 H 0.4678 0.93592 0.78396 0.0
H307 H 0.38097 0.94491 0.92625 0.0
H308 H 0.37108 0.93466 0.87818 0.0
H309 H 0.45265 0.96272 0.85752 0.0
H310 H 0.46307 0.97147 0.90567 0.0
H311 H 0.43481 0.92407 0.82555 0.0
H312 H 0.40304 0.99625 0.8544 0.0
H313 H 0.37738 0.02137 0.8828 0.0
H314 H 0.30543 0.97131 0.85932 0.0
H315 H 0.33071 0.94572 0.83104 0.0
C316 C 0.40506 0.94347 0.70364 0.0
C317 C 0.3809 0.93063 0.69252 0.0
C318 C 0.40918 0.94531 0.73159 0.0
C319 C 0.38923 0.93438 0.74902 0.0
C320 C 0.36502 0.92173 0.73815 0.0
C321 C 0.36098 0.91964 0.7101 0.0
C322 C 0.39382 0.93623 0.77861 0.0
C323 C 0.37868 0.94896 0.79607 0.0
C324 C 0.41424 0.92709 0.78934 0.0
C325 C 0.43027 0.91279 0.77189 0.0
C326 C 0.41803 0.89192 0.75561 0.0
C327 C 0.43323 0.87864 0.73906 0.0
C328 C 0.46071 0.88596 0.73873 0.0
C329 C 0.47305 0.90655 0.75502 0.0
C330 C 0.45794 0.91991 0.7716 0.0
C331 C 0.39696 0.94844 0.91157 0.0
C332 C 0.42282 0.95926 0.91992 0.0
C333 C 0.39118 0.94288 0.88401 0.0
C334 C 0.41097 0.94846 0.86415 0.0
C335 C 0.43696 0.95844 0.87242 0.0
C336 C 0.44285 0.9637 0.9 0.0
C337 C 0.40455 0.94447 0.83477 0.0
C338 C 0.41936 0.93135 0.81727 0.0
C339 C 0.38402 0.95354 0.82395 0.0
C340 C 0.36878 0.96894 0.84085 0.0
C341 C 0.38176 0.99051 0.85545 0.0
C342 C 0.36729 1.00484 0.8715 0.0
C343 C 0.3398 0.9979 0.87293 0.0
C344 C 0.32672 0.97664 0.85824 0.0
C345 C 0.34111 0.96222 0.84218 0.0
H346 H 0.32863 0.00902 0.88536 0.0
H347 H 0.47244 0.87566 0.7259 0.0
H348 H 0.61985 0.44343 0.80041 0.0
H349 H 0.60491 0.46376 0.7643 0.0
H350 H 0.63313 0.41492 0.70396 0.0
H351 H 0.64867 0.39483 0.74006 0.0
H352 H 0.64342 0.45883 0.68692 0.0
H353 H 0.56608 0.40805 0.72213 0.0
H354 H 0.53425 0.39168 0.75738 0.0
H355 H 0.51813 0.46243 0.77835 0.0
H356 H 0.55012 0.4793 0.74344 0.0
H357 H 0.5707 0.48749 0.57746 0.0
H358 H 0.5888 0.46689 0.61143 0.0
H359 H 0.5616 0.51308 0.6755 0.0
H360 H 0.54302 0.53326 0.64187 0.0
H361 H 0.55081 0.46896 0.68939 0.0
H362 H 0.62885 0.51973 0.65393 0.0
H363 H 0.66035 0.53552 0.61812 0.0
H364 H 0.67467 0.46417 0.59682 0.0
H365 H 0.64297 0.44788 0.63226 0.0
C366 C 0.62307 0.43706 0.77947 0.0
C367 C 0.63542 0.41734 0.7733 0.0
C368 C 0.61432 0.44866 0.75873 0.0
C369 C 0.61734 0.4407 0.73116 0.0
C370 C 0.63038 0.42147 0.72494 0.0
C371 C 0.63926 0.40992 0.7457 0.0
C372 C 0.60647 0.45211 0.70898 0.0
C373 C 0.62306 0.46075 0.68733 0.0
C374 C 0.57999 0.45507 0.7094 0.0
C375 C 0.56068 0.44497 0.73035 0.0
C376 C 0.55588 0.42015 0.73439 0.0
C377 C 0.53779 0.41077 0.75429 0.0
C378 C 0.52423 0.42602 0.77014 0.0
C379 C 0.52868 0.45065 0.76608 0.0
C380 C 0.54677 0.46012 0.74623 0.0
C381 C 0.56861 0.49333 0.59878 0.0
C382 C 0.55531 0.51213 0.60676 0.0
C383 C 0.57914 0.48157 0.61827 0.0
C384 C 0.57692 0.48847 0.64628 0.0
C385 C 0.56365 0.50725 0.65418 0.0
C386 C 0.55304 0.51889 0.63478 0.0
C387 C 0.58783 0.47602 0.6675 0.0
C388 C 0.57119 0.46709 0.68895 0.0
C389 C 0.61421 0.47276 0.66681 0.0
C390 C 0.63336 0.48255 0.64559 0.0
C391 C 0.63858 0.50738 0.64148 0.0
C392 C 0.65648 0.51642 0.62127 0.0
C393 C 0.66947 0.50085 0.60519 0.0
C394 C 0.66458 0.4762 0.60929 0.0
C395 C 0.64666 0.46706 0.62944 0.0
H396 H 0.6834 0.50789 0.58964 0.0
H397 H 0.51023 0.41873 0.78554 0.0
H398 H 0.9092 0.6603 0.2628 0.0
H399 H 0.92304 0.64066 0.22023 0.0
H400 H 0.97874 0.61246 0.2638 0.0
H401 H 0.96529 0.63235 0.3064 0.0
H402 H 0.99964 0.6274 0.21585 0.0
H403 H 0.91863 0.57727 0.24625 0.0
H404 H 0.87198 0.56857 0.26108 0.0
H405 H 0.84909 0.58872 0.18529 0.0
H406 H 0.89568 0.59785 0.17015 0.0
H407 H 0.01799 0.52777 0.12537 0.0
H408 H 0.00741 0.55462 0.16377 0.0
H409 H 0.95145 0.57718 0.11465 0.0
H410 H 0.96149 0.54967 0.07627 0.0
H411 H 0.9309 0.56794 0.16322 0.0
H412 H 0.01217 0.61403 0.13088 0.0
H413 H 0.05883 0.62168 0.11613 0.0
H414 H 0.08178 0.6089 0.19517 0.0
H415 H 0.03519 0.60068 0.21029 0.0
C416 C 0.92458 0.65012 0.26332 0.0
C417 C 0.93599 0.64776 0.28808 0.0
C418 C 0.93242 0.63882 0.23895 0.0
C419 C 0.95167 0.62476 0.23883 0.0
C420 C 0.96382 0.62317 0.26336 0.0
C421 C 0.95604 0.6345 0.28774 0.0
C422 C 0.95828 0.61079 0.21344 0.0
C423 C 0.98467 0.61425 0.20444 0.0
C424 C 0.93866 0.59403 0.19816 0.0
C425 C 0.91065 0.5885 0.2072 0.0
C426 C 0.90366 0.58003 0.23284 0.0
C427 C 0.87723 0.57499 0.24129 0.0
C428 C 0.85759 0.57816 0.22418 0.0
C429 C 0.86433 0.58632 0.19855 0.0
C430 C 0.89074 0.59141 0.19002 0.0
C431 C 1.00344 0.53846 0.12274 0.0
C432 C 0.99064 0.53673 0.0978 0.0
C433 C 0.99756 0.55397 0.14466 0.0
C434 C 0.97895 0.56828 0.14204 0.0
C435 C 0.966 0.56645 0.11713 0.0
C436 C 0.97182 0.55082 0.09519 0.0
C437 C 0.97233 0.58438 0.16565 0.0
C438 C 0.9459 0.58128 0.17438 0.0
C439 C 0.99197 0.60142 0.18065 0.0
C440 C 0.02009 0.60654 0.17167 0.0
C441 C 0.02712 0.61265 0.14508 0.0
C442 C 0.05357 0.6171 0.13664 0.0
C443 C 0.07324 0.61573 0.15468 0.0
C444 C 0.06651 0.60992 0.18121 0.0
C445 C 0.04007 0.60538 0.18973 0.0
H446 H 0.09371 0.61924 0.14815 0.0
H447 H 0.83714 0.57425 0.23075 0.0
H448 H 0.35366 0.22421 0.2133 0.0
H449 H 0.37274 0.18824 0.20675 0.0
H450 H 0.37953 0.19547 0.12062 0.0
H451 H 0.35969 0.23113 0.12694 0.0
H452 H 0.35955 0.14374 0.17665 0.0
H453 H 0.43952 0.18414 0.09939 0.0
H454 H 0.46474 0.2242 0.08808 0.0
H455 H 0.45494 0.25383 0.17006 0.0
H456 H 0.43004 0.21388 0.18196 0.0
H457 H 0.41979 0.05357 0.10639 0.0
H458 H 0.39659 0.08548 0.12233 0.0
H459 H 0.46678 0.12594 0.1632 0.0
H460 H 0.49041 0.09439 0.14651 0.0
H461 H 0.449 0.15436 0.13473 0.0
H462 H 0.40906 0.09828 0.19812 0.0
H463 H 0.3856 0.0589 0.21299 0.0
H464 H 0.31848 0.06162 0.16581 0.0
H465 H 0.34167 0.10087 0.15036 0.0
C466 C 0.35819 0.21765 0.19284 0.0
C467 C 0.35447 0.23022 0.17056 0.0
C468 C 0.36944 0.19721 0.18917 0.0
C469 C 0.37764 0.1892 0.16323 0.0
C470 C 0.3735 0.20142 0.14086 0.0
C471 C 0.36214 0.22178 0.1445 0.0
C472 C 0.39176 0.16888 0.15971 0.0
C473 C 0.3791 0.146 0.16748 0.0
C474 C 0.41752 0.172 0.14837 0.0
C475 C 0.43266 0.19607 0.14146 0.0
C476 C 0.44282 0.19919 0.11501 0.0
C477 C 0.45706 0.22188 0.1085 0.0
C478 C 0.46135 0.24157 0.12831 0.0
C479 C 0.45151 0.23859 0.15471 0.0
C480 C 0.4373 0.21593 0.16133 0.0
C481 C 0.43017 0.06899 0.11927 0.0
C482 C 0.45701 0.07144 0.1251 0.0
C483 C 0.41681 0.08726 0.12845 0.0
C484 C 0.42984 0.10816 0.1441 0.0
C485 C 0.45629 0.11006 0.15106 0.0
C486 C 0.46976 0.09194 0.14161 0.0
C487 C 0.41666 0.12889 0.15118 0.0
C488 C 0.42948 0.15196 0.144 0.0
C489 C 0.39127 0.12598 0.16353 0.0
C490 C 0.3772 0.10244 0.17292 0.0
C491 C 0.38937 0.0904 0.19077 0.0
C492 C 0.3761 0.06811 0.19933 0.0
C493 C 0.35059 0.05774 0.19031 0.0
C494 C 0.33825 0.06967 0.17277 0.0
C495 C 0.35144 0.09195 0.16414 0.0
H496 H 0.34036 0.04048 0.19695 0.0
H497 H 0.47236 0.25912 0.12323 0.0
H498 H 0.23803 0.88335 0.59436 0.0
H499 H 0.19879 0.89405 0.57742 0.0
H500 H 0.18719 0.93199 0.65515 0.0
H501 H 0.22665 0.92155 0.67233 0.0
H502 H 0.13825 0.90538 0.62619 0.0
H503 H 0.22034 0.96456 0.61373 0.0
H504 H 0.26657 0.97643 0.5982 0.0
H505 H 0.24391 0.94861 0.51661 0.0
H506 H 0.19757 0.93624 0.53179 0.0
H507 H 0.07534 0.99894 0.59653 0.0
H508 H 0.10472 0.97469 0.61214 0.0
H509 H 0.11899 0.94923 0.52908 0.0
H510 H 0.0895 0.97342 0.51335 0.0
H511 H 0.16454 0.96531 0.55785 0.0
H512 H 0.08249 0.91125 0.56715 0.0
H513 H 0.0358 0.8985 0.58059 0.0
H514 H 0.05662 0.91443 0.66472 0.0
H515 H 0.10348 0.92763 0.65174 0.0
C516 C 0.22684 0.89349 0.6081 0.0
C517 C 0.23572 0.90196 0.63456 0.0
C518 C 0.20437 0.89952 0.59838 0.0
C519 C 0.19031 0.91396 0.61498 0.0
C520 C 0.19781 0.92078 0.64208 0.0
C521 C 0.22045 0.91492 0.65178 0.0
C522 C 0.1704 0.92485 0.60298 0.0
C523 C 0.14392 0.91861 0.6114 0.0
C524 C 0.17781 0.94155 0.58312 0.0
C525 C 0.20558 0.94923 0.57394 0.0
C526 C 0.22526 0.96079 0.59253 0.0
C527 C 0.25147 0.96764 0.58379 0.0
C528 C 0.25819 0.9632 0.55645 0.0
C529 C 0.23869 0.95198 0.53779 0.0
C530 C 0.21245 0.94506 0.54644 0.0
C531 C 0.08474 0.98815 0.58163 0.0
C532 C 0.08032 0.98809 0.55376 0.0
C533 C 0.10135 0.9742 0.59056 0.0
C534 C 0.11382 0.96004 0.57175 0.0
C535 C 0.10949 0.96002 0.54388 0.0
C536 C 0.09271 0.97384 0.53495 0.0
C537 C 0.13232 0.94615 0.58124 0.0
C538 C 0.15866 0.95189 0.5724 0.0
C539 C 0.12463 0.92881 0.6004 0.0
C540 C 0.09652 0.9206 0.60845 0.0
C541 C 0.07712 0.91218 0.58852 0.0
C542 C 0.05062 0.90485 0.59605 0.0
C543 C 0.04325 0.90567 0.6235 0.0
C544 C 0.06238 0.91379 0.64346 0.0
C545 C 0.08893 0.92117 0.63603 0.0
H546 H 0.02271 0.9 0.62931 0.0
H547 H 0.2785 0.96852 0.54972 0.0
H548 H 0.73685 0.35954 0.91591 0.0
H549 H 0.77911 0.38015 0.93545 0.0
H550 H 0.77561 0.44418 0.89618 0.0
H551 H 0.73343 0.42328 0.87577 0.0
H552 H 0.82404 0.43788 0.89297 0.0
H553 H 0.76214 0.43929 0.9664 0.0
H554 H 0.72632 0.4225 0.99769 0.0
H555 H 0.7741 0.37717 0.02647 0.0
H556 H 0.81009 0.39346 0.99509 0.0
H557 H 0.92519 0.5158 0.97396 0.0
H558 H 0.88277 0.49651 0.95345 0.0
H559 H 0.88768 0.42873 0.98372 0.0
H560 H 0.93015 0.44794 1.00448 0.0
H561 H 0.83829 0.43835 0.99178 0.0
H562 H 0.90018 0.43761 0.91721 0.0
H563 H 0.93579 0.45584 0.88648 0.0
H564 H 0.88739 0.50199 0.86073 0.0
H565 H 0.85159 0.48425 0.89161 0.0
C566 C 0.74496 0.37802 0.91135 0.0
C567 C 0.73144 0.38972 0.89431 0.0
C568 C 0.76921 0.3899 0.92273 0.0
C569 C 0.78053 0.41403 0.91789 0.0
C570 C 0.76737 0.42564 0.90044 0.0
C571 C 0.74316 0.41365 0.88877 0.0
C572 C 0.80605 0.42694 0.93098 0.0
C573 C 0.82693 0.43827 0.91465 0.0
C574 C 0.81029 0.42725 0.95926 0.0
C575 C 0.78872 0.41744 0.97821 0.0
C576 C 0.76494 0.42561 0.97926 0.0
C577 C 0.74462 0.41621 0.99704 0.0
C578 C 0.74791 0.39873 0.01401 0.0
C579 C 0.77157 0.39068 0.01329 0.0
C580 C 0.79194 0.40001 0.99553 0.0
C581 C 0.91728 0.4968 0.97642 0.0
C582 C 0.93126 0.48349 0.99099 0.0
C583 C 0.893 0.48573 0.96447 0.0
C584 C 0.88199 0.46104 0.96675 0.0
C585 C 0.8957 0.44777 0.98159 0.0
C586 C 0.92009 0.4588 0.99341 0.0
C587 C 0.85621 0.44908 0.95375 0.0
C588 C 0.8353 0.43797 0.97012 0.0
C589 C 0.85188 0.44919 0.92559 0.0
C590 C 0.87331 0.45977 0.90691 0.0
C591 C 0.8972 0.45178 0.90515 0.0
C592 C 0.91741 0.462 0.88768 0.0
C593 C 0.91388 0.48011 0.87172 0.0
C594 C 0.8901 0.48798 0.87314 0.0
C595 C 0.86984 0.47784 0.8906 0.0
H596 H 0.92955 0.488 0.8582 0.0
H597 H 0.73215 0.39147 0.02776 0.0
H598 H 0.76271 0.63466 0.38408 0.0
H599 H 0.72078 0.61912 0.40676 0.0
H600 H 0.76186 0.61803 0.48092 0.0
H601 H 0.80395 0.63298 0.45819 0.0
H602 H 0.72193 0.57959 0.47489 0.0
H603 H 0.73291 0.66544 0.47051 0.0
H604 H 0.74105 0.70364 0.44838 0.0
H605 H 0.67241 0.67651 0.39935 0.0
H606 H 0.66406 0.638 0.42094 0.0
H607 H 0.61297 0.58714 0.56691 0.0
H608 H 0.65546 0.59575 0.54244 0.0
H609 H 0.61458 0.58615 0.46631 0.0
H610 H 0.5722 0.57722 0.49055 0.0
H611 H 0.65412 0.62927 0.4735 0.0
H612 H 0.643 0.54342 0.47935 0.0
H613 H 0.63492 0.506 0.50287 0.0
H614 H 0.70367 0.53443 0.55136 0.0
H615 H 0.71208 0.57214 0.52823 0.0
C616 C 0.76288 0.63083 0.40512 0.0
C617 C 0.78667 0.63532 0.41939 0.0
C618 C 0.73886 0.62204 0.4181 0.0
C619 C 0.7381 0.6179 0.44573 0.0
C620 C 0.76193 0.62119 0.45965 0.0
C621 C 0.78599 0.62979 0.44661 0.0
C622 C 0.71246 0.61141 0.46044 0.0
C623 C 0.70723 0.5906 0.47481 0.0
C624 C 0.69309 0.62559 0.46013 0.0
C625 C 0.69803 0.64875 0.44714 0.0
C626 C 0.71967 0.66755 0.45486 0.0
C627 C 0.7243 0.68927 0.44244 0.0
C628 C 0.7073 0.69247 0.42242 0.0
C629 C 0.68559 0.67399 0.41483 0.0
C630 C 0.68089 0.65222 0.42716 0.0
C631 C 0.61312 0.58684 0.54496 0.0
C632 C 0.58939 0.58159 0.53059 0.0
C633 C 0.63734 0.59164 0.53102 0.0
C634 C 0.6381 0.59149 0.50258 0.0
C635 C 0.61438 0.58633 0.48825 0.0
C636 C 0.59023 0.58122 0.50212 0.0
C637 C 0.6636 0.59746 0.48774 0.0
C638 C 0.66882 0.61824 0.47346 0.0
C639 C 0.68297 0.58338 0.48835 0.0
C640 C 0.67802 0.5607 0.50225 0.0
C641 C 0.65627 0.54178 0.49519 0.0
C642 C 0.65164 0.5205 0.50843 0.0
C643 C 0.66866 0.51787 0.52872 0.0
C644 C 0.69044 0.5365 0.5357 0.0
C645 C 0.69519 0.55782 0.52249 0.0
H646 H 0.66502 0.50137 0.53893 0.0
H647 H 0.71091 0.7093 0.41283 0.0
H648 H 0.2441 0.30973 0.17178 0.0
H649 H 0.20538 0.32328 0.15755 0.0
H650 H 0.24919 0.35302 0.08844 0.0
H651 H 0.2878 0.33918 0.10225 0.0
H652 H 0.19854 0.3677 0.15339 0.0
H653 H 0.208 0.35131 0.03627 0.0
H654 H 0.22373 0.32278 1.00212 0.0
H655 H 0.20918 0.26786 0.05826 0.0
H656 H 0.19304 0.29594 0.09261 0.0
H657 H 0.12683 0.43755 0.08509 0.0
H658 H 0.16066 0.41805 0.10058 0.0
H659 H 0.11126 0.34765 0.07892 0.0
H660 H 0.07707 0.36695 0.06391 0.0
H661 H 0.16143 0.34985 0.06065 0.0
H662 H 0.11838 0.36848 0.14437 0.0
H663 H 0.10023 0.39445 0.17955 0.0
H664 H 0.17732 0.43978 0.19229 0.0
H665 H 0.19588 0.41426 0.1569 0.0
C666 C 0.24541 0.3189 0.15337 0.0
C667 C 0.26906 0.32331 0.13812 0.0
C668 C 0.22328 0.32673 0.14533 0.0
C669 C 0.22427 0.33906 0.12184 0.0
C670 C 0.24776 0.34322 0.10641 0.0
C671 C 0.26988 0.33534 0.11438 0.0
C672 C 0.2011 0.34836 0.11403 0.0
C673 C 0.19042 0.36374 0.13312 0.0
C674 C 0.19017 0.34296 0.08771 0.0
C675 C 0.19954 0.32582 0.06709 0.0
C676 C 0.20805 0.33311 0.04128 0.0
C677 C 0.21706 0.31703 0.0219 0.0
C678 C 0.21753 0.29355 0.02805 0.0
C679 C 0.2089 0.28608 0.05356 0.0
C680 C 0.19986 0.30208 0.07301 0.0
C681 C 0.12293 0.41792 0.08401 0.0
C682 C 0.09914 0.40386 0.07323 0.0
C683 C 0.14237 0.40679 0.09277 0.0
C684 C 0.13846 0.38138 0.091 0.0
C685 C 0.11476 0.36729 0.08035 0.0
C686 C 0.09526 0.37838 0.07169 0.0
C687 C 0.15928 0.36952 0.09985 0.0
C688 C 0.16954 0.35373 0.08093 0.0
C689 C 0.16954 0.37422 0.12645 0.0
C690 C 0.15848 0.38958 0.1478 0.0
C691 C 0.13143 0.38409 0.15452 0.0
C692 C 0.12107 0.39871 0.17453 0.0
C693 C 0.1376 0.41878 0.1881 0.0
C694 C 0.16454 0.42424 0.18174 0.0
C695 C 0.17499 0.40969 0.16172 0.0
H696 H 0.12955 0.43008 0.20359 0.0
H697 H 0.22453 0.28113 0.01302 0.0
H698 H 0.59169 0.26278 0.92777 0.0
H699 H 0.56725 0.2267 0.9485 0.0
H700 H 0.64014 0.20414 0.95937 0.0
H701 H 0.66452 0.2398 0.93853 0.0
H702 H 0.60364 0.16595 0.94177 0.0
H703 H 0.60794 0.23083 0.01262 0.0
H704 H 0.60154 0.27041 0.03375 0.0
H705 H 0.51793 0.24757 0.02224 0.0
H706 H 0.52388 0.20796 1.00067 0.0
H707 H 0.55904 0.07743 0.03582 0.0
H708 H 0.58198 0.1136 0.01434 0.0
H709 H 0.50771 0.1343 1.00523 0.0
H710 H 0.48484 0.09843 0.02709 0.0
H711 H 0.54396 0.17322 0.02112 0.0
H712 H 0.53958 0.10789 0.95107 0.0
H713 H 0.54598 0.06788 0.9313 0.0
H714 H 0.62966 0.09129 0.94183 0.0
H715 H 0.62373 0.13134 0.96204 0.0
C716 C 0.60251 0.25011 0.93451 0.0
C717 C 0.63016 0.25437 0.93147 0.0
C718 C 0.5885 0.22949 0.94652 0.0
C719 C 0.60178 0.21263 0.95586 0.0
C720 C 0.62931 0.21671 0.95241 0.0
C721 C 0.64328 0.23728 0.94051 0.0
C722 C 0.58725 0.19083 0.96932 0.0
C723 C 0.59081 0.16763 0.95929 0.0
C724 C 0.57 0.1927 0.99192 0.0
C725 C 0.56639 0.21654 1.00474 0.0
C726 C 0.58821 0.23433 0.01437 0.0
C727 C 0.58466 0.25676 0.02647 0.0
C728 C 0.55935 0.26153 0.02925 0.0
C729 C 0.53753 0.24387 0.02 0.0
C730 C 0.54098 0.22143 0.00785 0.0
C731 C 0.54761 0.08972 0.02925 0.0
C732 C 0.52007 0.08494 0.03301 0.0
C733 C 0.56075 0.11038 0.01684 0.0
C734 C 0.54663 0.12667 0.00768 0.0
C735 C 0.51916 0.1221 0.01196 0.0
C736 C 0.50603 0.1015 0.02441 0.0
C737 C 0.5604 0.14838 0.99361 0.0
C738 C 0.5567 0.17154 1.00352 0.0
C739 C 0.5775 0.14647 0.9709 0.0
C740 C 0.58118 0.12255 0.9583 0.0
C741 C 0.55934 0.10446 0.94931 0.0
C742 C 0.56288 0.08178 0.93802 0.0
C743 C 0.5882 0.07702 0.93538 0.0
C744 C 0.61005 0.09499 0.94392 0.0
C745 C 0.60661 0.11769 0.95527 0.0
H746 H 0.5909 0.05944 0.92667 0.0
H747 H 0.55664 0.2789 0.03865 0.0
H748 H 0.89102 0.75048 0.44477 0.0
H749 H 0.90778 0.79185 0.46402 0.0
H750 H 0.97497 0.79795 0.40948 0.0
H751 H 0.95824 0.75609 0.38986 0.0
H752 H 0.98822 0.81737 0.46331 0.0
H753 H 0.92805 0.82448 0.39492 0.0
H754 H 0.88609 0.81449 0.37013 0.0
H755 H 0.84493 0.83471 0.44248 0.0
H756 H 0.88661 0.8445 0.46781 0.0
H757 H 0.98076 0.95464 0.48042 0.0
H758 H 0.96899 0.91419 0.45654 0.0
H759 H 0.98003 0.8824 0.5301 0.0
H760 H 0.99266 0.92291 0.55397 0.0
H761 H 0.93089 0.87695 0.46186 0.0
H762 H 1.00133 0.83043 0.5154 0.0
H763 H 0.04409 0.84186 0.53878 0.0
H764 H 0.06759 0.90287 0.49145 0.0
H765 H 0.02514 0.89161 0.46751 0.0
C766 C 0.90941 0.76047 0.43677 0.0
C767 C 0.92321 0.74991 0.4156 0.0
C768 C 0.91894 0.78421 0.44784 0.0
C769 C 0.94249 0.79806 0.43805 0.0
C770 C 0.95671 0.78754 0.4173 0.0
C771 C 0.94707 0.76369 0.40604 0.0
C772 C 0.95163 0.82365 0.44933 0.0
C773 C 0.9758 0.83047 0.46289 0.0
C774 C 0.93554 0.84081 0.44849 0.0
C775 C 0.91044 0.83505 0.43331 0.0
C776 C 0.91002 0.82663 0.40559 0.0
C777 C 0.88629 0.82103 0.39144 0.0
C778 C 0.86285 0.82392 0.40474 0.0
C779 C 0.8631 0.83247 0.43221 0.0
C780 C 0.88678 0.83807 0.44647 0.0
C781 C 0.98061 0.93906 0.4916 0.0
C782 C 0.98773 0.94204 0.51911 0.0
C783 C 0.97386 0.91591 0.47788 0.0
C784 C 0.97399 0.89521 0.49135 0.0
C785 C 0.98034 0.89809 0.51907 0.0
C786 C 0.98737 0.92128 0.53276 0.0
C787 C 0.96731 0.87067 0.47637 0.0
C788 C 0.9435 0.86399 0.46216 0.0
C789 C 0.98396 0.85384 0.47627 0.0
C790 C 0.00997 0.86024 0.48979 0.0
C791 C 0.0157 0.84617 0.50983 0.0
C792 C 0.03986 0.85265 0.52322 0.0
C793 C 0.05852 0.87309 0.51663 0.0
C794 C 0.0531 0.88705 0.49656 0.0
C795 C 0.02899 0.88064 0.48308 0.0
H796 H 0.07719 0.87807 0.52702 0.0
H797 H 0.8445 0.81958 0.39374 0.0
H798 H 0.43371 0.86298 0.56029 0.0
H799 H 0.43769 0.82073 0.55372 0.0
H800 H 0.35552 0.79749 0.57533 0.0
H801 H 0.35144 0.8399 0.58231 0.0
H802 H 0.38592 0.77761 0.60455 0.0
H803 H 0.37711 0.78407 0.51017 0.0
H804 H 0.38574 0.80242 0.46659 0.0
H805 H 0.46696 0.79737 0.46895 0.0
H806 H 0.45885 0.779 0.51254 0.0
H807 H 0.40679 0.65658 0.58955 0.0
H808 H 0.38829 0.69165 0.58179 0.0
H809 H 0.46582 0.73128 0.56053 0.0
H810 H 0.48436 0.69645 0.56822 0.0
H811 H 0.42924 0.73877 0.52683 0.0
H812 H 0.43948 0.7391 0.62418 0.0
H813 H 0.43177 0.72154 0.66828 0.0
H814 H 0.34831 0.71498 0.66063 0.0
H815 H 0.35552 0.73222 0.61628 0.0
C816 C 0.41635 0.8489 0.5632 0.0
C817 C 0.3923 0.8548 0.572 0.0
C818 C 0.4186 0.82471 0.55924 0.0
C819 C 0.39684 0.80592 0.56382 0.0
C820 C 0.37253 0.81171 0.5716 0.0
C821 C 0.37024 0.83595 0.57555 0.0
C822 C 0.40042 0.78062 0.56338 0.0
C823 C 0.39475 0.76884 0.58728 0.0
C824 C 0.41241 0.76938 0.54105 0.0
C825 C 0.41738 0.78028 0.51472 0.0
C826 C 0.39684 0.78697 0.50145 0.0
C827 C 0.40162 0.7973 0.4767 0.0
C828 C 0.42688 0.80102 0.46498 0.0
C829 C 0.44739 0.79438 0.47798 0.0
C830 C 0.44269 0.78393 0.50267 0.0
C831 C 0.41986 0.6728 0.58326 0.0
C832 C 0.44705 0.67381 0.57962 0.0
C833 C 0.40926 0.69275 0.57872 0.0
C834 C 0.42573 0.71411 0.57076 0.0
C835 C 0.45274 0.71493 0.5665 0.0
C836 C 0.46331 0.695 0.57092 0.0
C837 C 0.41535 0.73618 0.56821 0.0
C838 C 0.4198 0.74733 0.54381 0.0
C839 C 0.40233 0.74692 0.5901 0.0
C840 C 0.39801 0.73665 0.61679 0.0
C841 C 0.41947 0.73373 0.63181 0.0
C842 C 0.41519 0.72387 0.65686 0.0
C843 C 0.38956 0.71707 0.66721 0.0
C844 C 0.36815 0.7202 0.65256 0.0
C845 C 0.37232 0.73002 0.62748 0.0
H846 H 0.38629 0.70944 0.68661 0.0
H847 H 0.43055 0.80905 0.44584 0.0
H848 H 0.76615 0.77736 0.76774 0.0
H849 H 0.80217 0.80369 0.74507 0.0
H850 H 0.79006 0.86513 0.79852 0.0
H851 H 0.75457 0.83876 0.82201 0.0
H852 H 0.79761 0.87389 0.74184 0.0
H853 H 0.83828 0.84185 0.81217 0.0
H854 H 0.84731 0.8093 0.83782 0.0
H855 H 0.8789 0.77705 0.7656 0.0
H856 H 0.8697 0.80923 0.73942 0.0
H857 H 0.9171 0.95343 0.70873 0.0
H858 H 0.88039 0.92935 0.73305 0.0
H859 H 0.89918 0.86354 0.69407 0.0
H860 H 0.93643 0.88765 0.67031 0.0
H861 H 0.8877 0.85776 0.74478 0.0
H862 H 0.84657 0.88774 0.67372 0.0
H863 H 0.83641 0.91866 0.64629 0.0
H864 H 0.80455 0.95291 0.71702 0.0
H865 H 0.81486 0.92237 0.74497 0.0
C866 C 0.77098 0.79651 0.77464 0.0
C867 C 0.75708 0.80598 0.79649 0.0
C868 C 0.79159 0.81151 0.76163 0.0
C869 C 0.79879 0.83631 0.77019 0.0
C870 C 0.78462 0.84603 0.79151 0.0
C871 C 0.7641 0.83095 0.80474 0.0
C872 C 0.82167 0.85181 0.75733 0.0
C873 C 0.81741 0.87066 0.74278 0.0
C874 C 0.84729 0.84708 0.75802 0.0
C875 C 0.85307 0.82783 0.77378 0.0
C876 C 0.84696 0.82771 0.80171 0.0
C877 C 0.85214 0.80934 0.81636 0.0
C878 C 0.86361 0.79108 0.80334 0.0
C879 C 0.86999 0.79119 0.77566 0.0
C880 C 0.86482 0.8095 0.76091 0.0
C881 C 0.91333 0.93382 0.70534 0.0
C882 C 0.9295 0.92239 0.68754 0.0
C883 C 0.8923 0.92007 0.71916 0.0
C884 C 0.88666 0.89461 0.71503 0.0
C885 C 0.90308 0.88315 0.69758 0.0
C886 C 0.92436 0.89691 0.68403 0.0
C887 C 0.86375 0.8799 0.72899 0.0
C888 C 0.86797 0.86114 0.74381 0.0
C889 C 0.83802 0.88455 0.72825 0.0
C890 C 0.83174 0.90291 0.71149 0.0
C891 C 0.83758 0.90197 0.68347 0.0
C892 C 0.83177 0.91941 0.66782 0.0
C893 C 0.81991 0.93778 0.67992 0.0
C894 C 0.81378 0.9387 0.70769 0.0
C895 C 0.81958 0.92132 0.72344 0.0
H896 H 0.81541 0.95126 0.66777 0.0
H897 H 0.8676 0.77688 0.81471 0.0
H898 H 0.70744 0.15174 0.42872 0.0
H899 H 0.68871 0.14682 0.38336 0.0
H900 H 0.61512 0.10668 0.41425 0.0
H901 H 0.63394 0.11146 0.45971 0.0
H902 H 0.62856 0.08364 0.36994 0.0
H903 H 0.61996 0.16558 0.39336 0.0
H904 H 0.63392 0.20872 0.40985 0.0
H905 H 0.69423 0.21849 0.34788 0.0
H906 H 0.68032 0.17535 0.33072 0.0
H907 H 0.55688 0.08105 0.24931 0.0
H908 H 0.57197 0.09102 0.29617 0.0
H909 H 0.65006 0.12203 0.26724 0.0
H910 H 0.6354 0.1116 0.22034 0.0
H911 H 0.63266 0.15044 0.31078 0.0
H912 H 0.63879 0.06714 0.2872 0.0
H913 H 0.62168 0.02438 0.2705 0.0
H914 H 0.56336 0.01747 0.33457 0.0
H915 H 0.5799 0.06033 0.35142 0.0
C916 C 0.68705 0.14246 0.426 0.0
C917 C 0.67197 0.13241 0.44785 0.0
C918 C 0.67637 0.13957 0.40002 0.0
C919 C 0.65033 0.12671 0.39542 0.0
C920 C 0.63521 0.11674 0.4173 0.0
C921 C 0.64597 0.11949 0.44324 0.0
C922 C 0.63948 0.12233 0.36752 0.0
C923 C 0.62904 0.09832 0.35722 0.0
C924 C 0.6406 0.14137 0.35062 0.0
C925 C 0.64927 0.16722 0.36095 0.0
C926 C 0.63631 0.17689 0.38337 0.0
C927 C 0.64417 0.20137 0.39278 0.0
C928 C 0.6651 0.21634 0.38009 0.0
C929 C 0.67806 0.20688 0.35775 0.0
C930 C 0.6701 0.18244 0.34807 0.0
C931 C 0.57731 0.08987 0.25287 0.0
C932 C 0.59496 0.09538 0.231 0.0
C933 C 0.58585 0.09566 0.27967 0.0
C934 C 0.61217 0.10709 0.28511 0.0
C935 C 0.62964 0.11328 0.26343 0.0
C936 C 0.62117 0.10738 0.23663 0.0
C937 C 0.62174 0.11183 0.31341 0.0
C938 C 0.63204 0.13584 0.32367 0.0
C939 C 0.62024 0.09282 0.33039 0.0
C940 C 0.6104 0.06701 0.32039 0.0
C941 C 0.62218 0.05656 0.29759 0.0
C942 C 0.61261 0.0323 0.28812 0.0
C943 C 0.5914 0.01824 0.30142 0.0
C944 C 0.57976 0.0284 0.32426 0.0
C945 C 0.58924 0.05267 0.33379 0.0
H946 H 0.58402 0.99945 0.29406 0.0
H947 H 0.67121 0.23527 0.3875 0.0
H948 H 0.39422 0.70527 0.35777 0.0
H949 H 0.40981 0.68452 0.39319 0.0
H950 H 0.45735 0.65195 0.33372 0.0
H951 H 0.44144 0.67228 0.29816 0.0
H952 H 0.43234 0.61871 0.36429 0.0
H953 H 0.48357 0.69994 0.38356 0.0
H954 H 0.49049 0.74427 0.39412 0.0
H955 H 0.44403 0.73386 0.46723 0.0
H956 H 0.43654 0.68943 0.45691 0.0
H957 H 0.50931 0.57098 0.45163 0.0
H958 H 0.49356 0.59406 0.4189 0.0
H959 H 0.44994 0.62631 0.48261 0.0
H960 H 0.46635 0.60369 0.51575 0.0
H961 H 0.47113 0.65982 0.45119 0.0
H962 H 0.41973 0.57952 0.43318 0.0
H963 H 0.41139 0.53506 0.42328 0.0
H964 H 0.45587 0.54347 0.34872 0.0
H965 H 0.46478 0.58801 0.35835 0.0
C966 C 0.40821 0.69389 0.35223 0.0
C967 C 0.41657 0.69059 0.32497 0.0
C968 C 0.41722 0.68204 0.37262 0.0
C969 C 0.43505 0.66669 0.36641 0.0
C970 C 0.44363 0.66361 0.33924 0.0
C971 C 0.43458 0.67539 0.31885 0.0
C972 C 0.44404 0.65314 0.38784 0.0
C973 C 0.44117 0.62783 0.3831 0.0
C974 C 0.45473 0.66467 0.41301 0.0
C975 C 0.45926 0.69136 0.41929 0.0
C976 C 0.47466 0.7071 0.40177 0.0
C977 C 0.47871 0.73224 0.40774 0.0
C978 C 0.46764 0.74186 0.43128 0.0
C979 C 0.45255 0.72637 0.44897 0.0
C980 C 0.44842 0.70121 0.44308 0.0
C981 C 0.49626 0.58287 0.45878 0.0
C982 C 0.489 0.58521 0.48646 0.0
C983 C 0.48711 0.59607 0.43989 0.0
C984 C 0.47002 0.61175 0.44793 0.0
C985 C 0.46297 0.61434 0.47565 0.0
C986 C 0.47232 0.60127 0.49465 0.0
C987 C 0.45977 0.62543 0.42743 0.0
C988 C 0.4623 0.65071 0.43238 0.0
C989 C 0.44851 0.61387 0.40253 0.0
C990 C 0.44312 0.5871 0.39661 0.0
C991 C 0.42789 0.57189 0.41476 0.0
C992 C 0.42303 0.54667 0.40919 0.0
C993 C 0.43315 0.53645 0.38542 0.0
C994 C 0.44808 0.55142 0.36714 0.0
C995 C 0.45301 0.57665 0.37263 0.0
H996 H 0.42937 0.51692 0.38114 0.0
H997 H 0.47081 0.76132 0.43581 0.0
H998 H 0.12011 0.38183 0.80422 0.0
H999 H 0.10095 0.40605 0.83949 0.0
H1000 H 0.16392 0.46787 0.82801 0.0
H1001 H 0.18353 0.44358 0.79258 0.0
H1002 H 0.15249 0.46209 0.88254 0.0
H1003 H 0.10493 0.46605 0.80243 0.0
H1004 H 0.07931 0.44986 0.76111 0.0
H1005 H 0.01834 0.40892 0.80921 0.0
H1006 H 0.04377 0.42459 0.8508 0.0
H1007 H 0.08261 0.5429 0.96059 0.0
H1008 H 0.10702 0.52367 0.92463 0.0
H1009 H 0.04774 0.45735 0.92524 0.0
H1010 H 0.02318 0.47655 0.9607 0.0
H1011 H 0.05948 0.46912 0.87439 0.0
H1012 H 0.10774 0.46318 0.95403 0.0
H1013 H 0.1329 0.47919 0.99567 0.0
H1014 H 0.19217 0.52363 0.94894 0.0
H1015 H 0.16712 0.50818 0.90703 0.0
C1016 C 0.12999 0.40057 0.8091 0.0
C1017 C 0.15333 0.41077 0.79538 0.0
C1018 C 0.11893 0.41443 0.82928 0.0
C1019 C 0.13082 0.43886 0.83618 0.0
C1020 C 0.15438 0.44906 0.82295 0.0
C1021 C 0.16549 0.43518 0.80263 0.0
C1022 C 0.11827 0.45359 0.85704 0.0
C1023 C 0.13231 0.46401 0.88057 0.0
C1024 C 0.09178 0.45575 0.85469 0.0
C1025 C 0.07637 0.44636 0.82972 0.0
C1026 C 0.08615 0.45345 0.80418 0.0
C1027 C 0.07165 0.44439 0.78071 0.0
C1028 C 0.04724 0.42833 0.78253 0.0
C1029 C 0.03726 0.42135 0.80783 0.0
C1030 C 0.05169 0.43034 0.83137 0.0
C1031 C 0.0749 0.5242 0.95307 0.0
C1032 C 0.05108 0.51118 0.96346 0.0
C1033 C 0.08889 0.5132 0.93263 0.0
C1034 C 0.07928 0.48901 0.92233 0.0
C1035 C 0.05552 0.47603 0.93283 0.0
C1036 C 0.04159 0.48698 0.95321 0.0
C1037 C 0.09348 0.47722 0.90016 0.0
C1038 C 0.07973 0.46739 0.8763 0.0
C1039 C 0.12017 0.4756 0.9023 0.0
C1040 C 0.1354 0.48472 0.92743 0.0
C1041 C 0.12603 0.47651 0.95265 0.0
C1042 C 0.14028 0.48547 0.9763 0.0
C1043 C 0.16408 0.50248 0.97496 0.0
C1044 C 0.17371 0.5105 0.94995 0.0
C1045 C 0.15949 0.50164 0.92624 0.0
H1046 H 0.17508 0.50938 0.99329 0.0
H1047 H 0.03604 0.42134 0.76434 0.0
H1048 H 0.69285 0.90316 0.88271 0.0
H1049 H 0.67179 0.93169 0.91093 0.0
H1050 H 0.59529 0.88639 0.89231 0.0
H1051 H 0.61611 0.85801 0.86376 0.0
H1052 H 0.59411 0.93387 0.89243 0.0
H1053 H 0.62579 0.88327 0.95135 0.0
H1054 H 0.65928 0.8649 0.97056 0.0
H1055 H 0.70431 0.93579 0.99682 0.0
H1056 H 0.67123 0.95459 0.97743 0.0
H1057 H 0.51528 0.96651 1.00281 0.0
H1058 H 0.5402 0.94556 0.96946 0.0
H1059 H 0.61219 0.99571 0.99427 0.0
H1060 H 0.58741 0.01666 0.02806 0.0
H1061 H 0.6183 0.94941 0.98979 0.0
H1062 H 0.58438 1.0 0.93431 0.0
H1063 H 0.54986 0.01801 0.9166 0.0
H1064 H 0.50839 0.94738 0.88477 0.0
H1065 H 0.54254 0.92888 0.90258 0.0
C1066 C 0.67153 0.89938 0.8844 0.0
C1067 C 0.65618 0.87818 0.87116 0.0
C1068 C 0.65953 0.91568 0.9006 0.0
C1069 C 0.63198 0.911 0.90403 0.0
C1070 C 0.61658 0.89036 0.88999 0.0
C1071 C 0.62854 0.87409 0.87376 0.0
C1072 C 0.6192 0.92688 0.92326 0.0
C1073 C 0.59928 0.93715 0.91374 0.0
C1074 C 0.62633 0.93161 0.95097 0.0
C1075 C 0.6462 0.92033 0.96266 0.0
C1076 C 0.64294 0.89494 0.96102 0.0
C1077 C 0.66183 0.88445 0.97198 0.0
C1078 C 0.68395 0.89917 0.98482 0.0
C1079 C 0.68719 0.92441 0.98681 0.0
C1080 C 0.66838 0.93499 0.97586 0.0
C1081 C 0.5364 0.97316 1.00118 0.0
C1082 C 0.54936 0.99328 0.01811 0.0
C1083 C 0.55061 0.96123 0.98197 0.0
C1084 C 0.57801 0.96926 0.97913 0.0
C1085 C 0.59104 0.98927 0.99607 0.0
C1086 C 0.57684 1.00123 0.01533 0.0
C1087 C 0.59306 0.95623 0.95903 0.0
C1088 C 0.61337 0.94643 0.96839 0.0
C1089 C 0.58625 0.95194 0.93123 0.0
C1090 C 0.56596 0.96303 0.91993 0.0
C1091 C 0.56784 0.98828 0.92364 0.0
C1092 C 0.54835 0.99859 0.91357 0.0
C1093 C 0.52693 0.98384 0.8996 0.0
C1094 C 0.52501 0.95877 0.89559 0.0
C1095 C 0.54446 0.94837 0.90562 0.0
H1096 H 0.51185 0.99185 0.89184 0.0
H1097 H 0.69855 0.89102 0.9933 0.0
H1098 H 0.79078 0.13163 0.51147 0.0
H1099 H 0.83258 0.11812 0.50991 0.0
H1100 H 0.79617 0.05683 0.55368 0.0
H1101 H 0.75426 0.06972 0.55441 0.0
H1102 H 0.86453 0.11355 0.54642 0.0
H1103 H 0.82148 0.00869 0.53697 0.0
H1104 H 0.78444 0.97958 0.51446 0.0
H1105 H 0.78035 0.03006 0.45602 0.0
H1106 H 0.8176 0.05933 0.47791 0.0
H1107 H 0.94766 0.05008 0.60257 0.0
H1108 H 0.91115 0.06691 0.58863 0.0
H1109 H 0.91909 0.03574 0.50645 0.0
H1110 H 0.95559 0.01858 0.52045 0.0
H1111 H 0.86885 0.02748 0.52178 0.0
H1112 H 0.93787 0.09561 0.51993 0.0
H1113 H 0.97752 0.12574 0.53526 0.0
H1114 H 0.93402 0.15088 0.60336 0.0
H1115 H 0.89414 0.12058 0.58869 0.0
C1116 C 0.79169 0.1152 0.52062 0.0
C1117 C 0.76921 0.10165 0.53294 0.0
C1118 C 0.81559 0.10752 0.51974 0.0
C1119 C 0.81746 0.08624 0.53128 0.0
C1120 C 0.79509 0.07295 0.54398 0.0
C1121 C 0.77115 0.08042 0.54455 0.0
C1122 C 0.84288 0.07821 0.53097 0.0
C1123 C 0.86549 0.09477 0.54087 0.0
C1124 C 0.84452 0.05393 0.52268 0.0
C1125 C 0.82224 0.03628 0.50923 0.0
C1126 C 0.81278 0.01353 0.51923 0.0
C1127 C 0.79172 0.99701 0.50659 0.0
C1128 C 0.78001 1.00299 0.48387 0.0
C1129 C 0.78938 0.02548 0.47368 0.0
C1130 C 0.81044 0.04205 0.48622 0.0
C1131 C 0.94166 0.04688 0.58152 0.0
C1132 C 0.9543 0.03299 0.56259 0.0
C1133 C 0.92093 0.05662 0.57354 0.0
C1134 C 0.91259 0.05278 0.54644 0.0
C1135 C 0.92526 0.03893 0.52744 0.0
C1136 C 0.94606 0.02918 0.53544 0.0
C1137 C 0.88995 0.06253 0.53847 0.0
C1138 C 0.86792 0.04632 0.52698 0.0
C1139 C 0.88918 0.08732 0.54424 0.0
C1140 C 0.91302 0.1057 0.55327 0.0
C1141 C 0.93678 0.10743 0.53829 0.0
C1142 C 0.9593 0.12455 0.54685 0.0
C1143 C 0.95828 0.1402 0.57026 0.0
C1144 C 0.93475 0.13874 0.58521 0.0
C1145 C 0.91216 0.12161 0.57676 0.0
H1146 H 0.97573 0.1535 0.57672 0.0
H1147 H 0.76369 0.99018 0.47413 0.0
H1148 H 0.25216 0.68557 0.17697 0.0
H1149 H 0.21089 0.66279 0.15643 0.0
H1150 H 0.24774 0.60255 0.13244 0.0
H1151 H 0.28917 0.62545 0.15225 0.0
H1152 H 0.22038 0.60928 0.0921 0.0
H1153 H 0.20208 0.60349 0.18719 0.0
H1154 H 0.19759 0.61802 0.23537 0.0
H1155 H 0.1394 0.65663 0.21458 0.0
H1156 H 0.14388 0.64269 0.16621 0.0
H1157 H 0.10096 0.52394 0.05567 0.0
H1158 H 0.14198 0.54488 0.07829 0.0
H1159 H 0.10902 0.60814 0.09819 0.0
H1160 H 0.068 0.58733 0.07609 0.0
H1161 H 0.13425 0.59867 0.14095 0.0
H1162 H 0.15381 0.60582 0.04593 0.0
H1163 H 0.15703 0.59027 0.9979 0.0
H1164 H 0.21185 0.54825 0.01898 0.0
H1165 H 0.20867 0.5633 0.06725 0.0
C1166 C 0.25145 0.66742 0.16748 0.0
C1167 C 0.27408 0.65739 0.16636 0.0
C1168 C 0.22773 0.65432 0.15579 0.0
C1169 C 0.22591 0.63071 0.14305 0.0
C1170 C 0.24848 0.62067 0.14206 0.0
C1171 C 0.27222 0.63381 0.15354 0.0
C1172 C 0.20081 0.6167 0.13012 0.0
C1173 C 0.20165 0.60671 0.103 0.0
C1174 C 0.17606 0.61365 0.14394 0.0
C1175 C 0.17358 0.62229 0.173 0.0
C1176 C 0.18854 0.6153 0.19285 0.0
C1177 C 0.18596 0.6234 0.22021 0.0
C1178 C 0.1683 0.63832 0.22802 0.0
C1179 C 0.15313 0.64513 0.2085 0.0
C1180 C 0.15569 0.63714 0.1811 0.0
C1181 C 0.10242 0.5423 0.06487 0.0
C1182 C 0.08114 0.55395 0.06384 0.0
C1183 C 0.12596 0.55431 0.07773 0.0
C1184 C 0.12878 0.57825 0.08978 0.0
C1185 C 0.10742 0.58972 0.08911 0.0
C1186 C 0.08395 0.57778 0.07626 0.0
C1187 C 0.15392 0.59146 0.10305 0.0
C1188 C 0.15305 0.60127 0.13017 0.0
C1189 C 0.17861 0.59435 0.08927 0.0
C1190 C 0.18081 0.58552 0.06024 0.0
C1191 C 0.16642 0.59314 0.04036 0.0
C1192 C 0.16825 0.58444 0.01309 0.0
C1193 C 0.18459 0.56825 1.00541 0.0
C1194 C 0.19919 0.56078 0.02498 0.0
C1195 C 0.19739 0.5694 0.05229 0.0
H1196 H 0.18599 0.56155 0.98429 0.0
H1197 H 0.1663 0.64453 0.24922 0.0
H1198 H 0.24754 0.42291 0.64478 0.0
H1199 H 0.28477 0.44419 0.61853 0.0
H1200 H 0.33505 0.45174 0.68791 0.0
H1201 H 0.298 0.43033 0.71426 0.0
H1202 H 0.34191 0.49445 0.66018 0.0
H1203 H 0.33813 0.40839 0.64044 0.0
H1204 H 0.31639 0.36624 0.62542 0.0
H1205 H 0.30149 0.38812 0.54761 0.0
H1206 H 0.32283 0.43048 0.56233 0.0
H1207 H 0.47001 0.5179 0.60238 0.0
H1208 H 0.42889 0.50249 0.62643 0.0
H1209 H 0.38801 0.48563 0.55007 0.0
H1210 H 0.42951 0.50032 0.52582 0.0
H1211 H 0.37377 0.44941 0.57944 0.0
H1212 H 0.38072 0.53459 0.59653 0.0
H1213 H 0.40214 0.57702 0.61063 0.0
H1214 H 0.40971 0.55838 0.69174 0.0
H1215 H 0.38883 0.51572 0.67802 0.0
C1216 C 0.26646 0.42925 0.65454 0.0
C1217 C 0.26984 0.42481 0.68158 0.0
C1218 C 0.28772 0.44137 0.63948 0.0
C1219 C 0.3127 0.44941 0.65123 0.0
C1220 C 0.31593 0.4457 0.67847 0.0
C1221 C 0.29476 0.43337 0.69345 0.0
C1222 C 0.33576 0.46074 0.63482 0.0
C1223 C 0.34906 0.4846 0.64264 0.0
C1224 C 0.34455 0.4481 0.61147 0.0
C1225 C 0.3318 0.42263 0.60259 0.0
C1226 C 0.33001 0.40424 0.62021 0.0
C1227 C 0.3178 0.38031 0.61174 0.0
C1228 C 0.30749 0.37452 0.58561 0.0
C1229 C 0.30944 0.39264 0.56787 0.0
C1230 C 0.3216 0.41661 0.57626 0.0
C1231 C 0.45222 0.51105 0.59073 0.0
C1232 C 0.45292 0.51028 0.56223 0.0
C1233 C 0.42866 0.50237 0.60452 0.0
C1234 C 0.40517 0.49319 0.59015 0.0
C1235 C 0.40583 0.49265 0.56164 0.0
C1236 C 0.4295 0.50109 0.5478 0.0
C1237 C 0.38027 0.4832 0.60485 0.0
C1238 C 0.36657 0.4595 0.59676 0.0
C1239 C 0.37099 0.49614 0.62776 0.0
C1240 C 0.38335 0.52187 0.63618 0.0
C1241 C 0.38712 0.53948 0.61733 0.0
C1242 C 0.39916 0.56359 0.62525 0.0
C1243 C 0.40729 0.57038 0.65205 0.0
C1244 C 0.4034 0.55308 0.67098 0.0
C1245 C 0.39145 0.52894 0.66315 0.0
H1246 H 0.41654 0.58905 0.65818 0.0
H1247 H 0.29806 0.35598 0.57908 0.0
H1248 H 0.75578 0.72737 0.91449 0.0
H1249 H 0.78451 0.70763 0.93852 0.0
H1250 H 0.77637 0.64991 0.87384 0.0
H1251 H 0.74744 0.66945 0.84969 0.0
H1252 H 0.77385 0.6327 0.92422 0.0
H1253 H 0.8303 0.69383 0.87601 0.0
H1254 H 0.84696 0.73502 0.86186 0.0
H1255 H 0.86548 0.76196 0.94463 0.0
H1256 H 0.84857 0.72097 0.95933 0.0
H1257 H 0.88749 0.58716 0.9508 0.0
H1258 H 0.85292 0.60341 0.93151 0.0
H1259 H 0.86478 0.66269 0.99454 0.0
H1260 H 0.89945 0.64654 0.01392 0.0
H1261 H 0.8645 0.67889 0.94575 0.0
H1262 H 0.80928 0.61649 0.9935 0.0
H1263 H 0.79319 0.57487 0.00658 0.0
H1264 H 0.77304 0.54973 0.92372 0.0
H1265 H 0.78934 0.59116 0.91006 0.0
C1266 C 0.75992 0.71038 0.90544 0.0
C1267 C 0.74946 0.70006 0.88009 0.0
C1268 C 0.77641 0.69917 0.91918 0.0
C1269 C 0.7828 0.67747 0.9078 0.0
C1270 C 0.7717 0.66668 0.88294 0.0
C1271 C 0.75525 0.67792 0.86914 0.0
C1272 C 0.80183 0.66651 0.92138 0.0
C1273 C 0.79377 0.64268 0.92871 0.0
C1274 C 0.82765 0.67971 0.9276 0.0
C1275 C 0.8379 0.70438 0.91881 0.0
C1276 C 0.83771 0.70858 0.89123 0.0
C1277 C 0.84724 0.73188 0.8831 0.0
C1278 C 0.8572 0.75111 0.90234 0.0
C1279 C 0.85772 0.74706 0.92975 0.0
C1280 C 0.84818 0.72379 0.93799 0.0
C1281 C 0.88237 0.60338 0.96089 0.0
C1282 C 0.89622 0.61558 0.98389 0.0
C1283 C 0.86262 0.61268 0.94981 0.0
C1284 C 0.85613 0.6342 0.96168 0.0
C1285 C 0.86951 0.6461 0.98501 0.0
C1286 C 0.88933 0.63687 0.99603 0.0
C1287 C 0.83652 0.64507 0.94886 0.0
C1288 C 0.84453 0.66892 0.94151 0.0
C1289 C 0.81073 0.63181 0.94253 0.0
C1290 C 0.80075 0.6069 0.95072 0.0
C1291 C 0.80159 0.60206 0.97803 0.0
C1292 C 0.79241 0.5785 0.98556 0.0
C1293 C 0.78216 0.55965 0.96598 0.0
C1294 C 0.78101 0.56434 0.93885 0.0
C1295 C 0.79019 0.58786 0.93121 0.0
H1296 H 0.77506 0.54143 0.97185 0.0
H1297 H 0.86457 0.76914 0.89601 0.0
H1298 H 0.3879 0.77745 0.16522 0.0
H1299 H 0.40682 0.81648 0.14812 0.0
H1300 H 0.4355 0.84484 0.22819 0.0
H1301 H 0.41758 0.80517 0.24513 0.0
H1302 H 0.39807 0.85808 0.15489 0.0
H1303 H 0.48767 0.89216 0.22576 0.0
H1304 H 0.51922 0.87562 0.25068 0.0
H1305 H 0.50707 0.8119 0.19423 0.0
H1306 H 0.47569 0.82818 0.16881 0.0
H1307 H 0.45158 0.982 0.13055 0.0
H1308 H 0.4322 0.94419 0.15105 0.0
H1309 H 0.50153 0.91625 0.12756 0.0
H1310 H 0.52126 0.95429 0.10853 0.0
H1311 H 0.4894 0.9035 0.17378 0.0
H1312 H 0.43782 0.8982 0.09404 0.0
H1313 H 0.40916 0.91168 0.06257 0.0
H1314 H 0.34991 0.91182 0.12526 0.0
H1315 H 0.3784 0.89868 0.15724 0.0
C1316 C 0.39844 0.7919 0.17923 0.0
C1317 C 0.40127 0.78797 0.20661 0.0
C1318 C 0.40918 0.81441 0.1694 0.0
C1319 C 0.42289 0.83395 0.18662 0.0
C1320 C 0.42561 0.83014 0.21411 0.0
C1321 C 0.41525 0.80737 0.22388 0.0
C1322 C 0.43398 0.8581 0.17562 0.0
C1323 C 0.41806 0.86795 0.15914 0.0
C1324 C 0.4602 0.87118 0.18053 0.0
C1325 C 0.4791 0.86127 0.19561 0.0
C1326 C 0.49178 0.87464 0.21865 0.0
C1327 C 0.50963 0.86531 0.23286 0.0
C1328 C 0.51507 0.84268 0.2241 0.0
C1329 C 0.50275 0.82937 0.20105 0.0
C1330 C 0.48491 0.83863 0.18676 0.0
C1331 C 0.46258 0.96772 0.12973 0.0
C1332 C 0.48797 0.97118 0.11789 0.0
C1333 C 0.45145 0.94598 0.14137 0.0
C1334 C 0.46515 0.92691 0.14079 0.0
C1335 C 0.49042 0.93047 0.12864 0.0
C1336 C 0.50169 0.95228 0.11755 0.0
C1337 C 0.45359 0.90335 0.15283 0.0
C1338 C 0.46937 0.89367 0.16962 0.0
C1339 C 0.4276 0.88996 0.14731 0.0
C1340 C 0.41036 0.89771 0.12811 0.0
C1341 C 0.41875 0.90126 0.10116 0.0
C1342 C 0.40253 0.90883 0.08323 0.0
C1343 C 0.37776 0.91267 0.09194 0.0
C1344 C 0.36912 0.90888 0.11857 0.0
C1345 C 0.38529 0.90137 0.1366 0.0
H1346 H 0.36523 0.91852 0.07803 0.0
H1347 H 0.52887 0.83548 0.23514 0.0
H1348 H 0.15743 0.26357 0.71224 0.0
H1349 H 0.14264 0.22144 0.69342 0.0
H1350 H 0.09344 0.24427 0.63679 0.0
H1351 H 0.10768 0.28627 0.65584 0.0
H1352 H 0.06664 0.20629 0.65974 0.0
H1353 H 0.1521 0.22681 0.61705 0.0
H1354 H 0.20038 0.24153 0.61552 0.0
H1355 H 0.21027 0.18496 0.6637 0.0
H1356 H 0.162 0.17009 0.66582 0.0
H1357 H 0.03816 0.10172 0.56637 0.0
H1358 H 0.05596 0.1425 0.58739 0.0
H1359 H 0.0944 0.11248 0.64775 0.0
H1360 H 0.07644 0.0714 0.62691 0.0
H1361 H 0.12695 0.1528 0.62553 0.0
H1362 H 0.04079 0.1304 0.66441 0.0
H1363 H 0.99251 0.1159 0.66489 0.0
H1364 H 0.98361 0.17693 0.62356 0.0
H1365 H 0.0319 0.19132 0.62186 0.0
C1366 C 0.14363 0.25965 0.69562 0.0
C1367 C 0.13373 0.27832 0.68557 0.0
C1368 C 0.13524 0.23553 0.68482 0.0
C1369 C 0.11702 0.22964 0.66354 0.0
C1370 C 0.10744 0.24832 0.65324 0.0
C1371 C 0.11569 0.27237 0.66411 0.0
C1372 C 0.1072 0.20398 0.65252 0.0
C1373 C 0.07984 0.19471 0.65192 0.0
C1374 C 0.12441 0.18859 0.64308 0.0
C1375 C 0.15343 0.1975 0.64184 0.0
C1376 C 0.16456 0.21763 0.62751 0.0
C1377 C 0.19193 0.22598 0.6265 0.0
C1378 C 0.20838 0.21424 0.63957 0.0
C1379 C 0.1975 0.19407 0.65362 0.0
C1380 C 0.17014 0.18566 0.65472 0.0
C1381 C 0.05047 0.10372 0.58406 0.0
C1382 C 0.05583 0.08326 0.595 0.0
C1383 C 0.06055 0.12707 0.59611 0.0
C1384 C 0.07633 0.13051 0.61925 0.0
C1385 C 0.08222 0.1102 0.62992 0.0
C1386 C 0.07187 0.08675 0.61805 0.0
C1387 C 0.08643 0.15536 0.63231 0.0
C1388 C 0.11379 0.16441 0.63339 0.0
C1389 C 0.0692 0.17062 0.64205 0.0
C1390 C 0.04008 0.16178 0.64269 0.0
C1391 C 0.0286 0.14054 0.65502 0.0
C1392 C 1.0012 0.13233 0.65551 0.0
C1393 C 0.98501 0.1454 0.64409 0.0
C1394 C 0.99618 0.16673 0.63222 0.0
C1395 C 0.02358 0.17488 0.63142 0.0
H1396 H 0.96379 0.13905 0.64456 0.0
H1397 H 0.22956 0.22072 0.63876 0.0
H1398 H 0.71619 0.26781 0.45088 0.0
H1399 H 0.70441 0.30752 0.45147 0.0
H1400 H 0.62189 0.27294 0.4539 0.0
H1401 H 0.63337 0.23342 0.45374 0.0
H1402 H 0.63381 0.30932 0.41778 0.0
H1403 H 0.65163 0.29677 0.511 0.0
H1404 H 0.67973 0.28921 0.54711 0.0
H1405 H 0.73723 0.35347 0.53163 0.0
H1406 H 0.70959 0.36122 0.49516 0.0
H1407 H 0.56143 0.39363 0.47097 0.0
H1408 H 0.58302 0.35932 0.46273 0.0
H1409 H 0.65906 0.40777 0.47441 0.0
H1410 H 0.63738 0.44224 0.48317 0.0
H1411 H 0.65733 0.36803 0.49879 0.0
H1412 H 0.63771 0.38431 0.41032 0.0
H1413 H 0.61066 0.39262 0.37374 0.0
H1414 H 0.55888 0.32287 0.3782 0.0
H1415 H 0.58538 0.31427 0.4151 0.0
C1416 C 0.69554 0.26866 0.4513 0.0
C1417 C 0.67571 0.24746 0.4523 0.0
C1418 C 0.68887 0.29134 0.45166 0.0
C1419 C 0.6623 0.2931 0.45287 0.0
C1420 C 0.64251 0.27192 0.45288 0.0
C1421 C 0.64913 0.24934 0.45281 0.0
C1422 C 0.6548 0.31697 0.4555 0.0
C1423 C 0.63885 0.32217 0.43549 0.0
C1424 C 0.6622 0.33403 0.47818 0.0
C1425 C 0.67872 0.3294 0.50015 0.0
C1426 C 0.67037 0.30916 0.51514 0.0
C1427 C 0.68619 0.30487 0.5357 0.0
C1428 C 0.71029 0.3208 0.5416 0.0
C1429 C 0.71859 0.34111 0.527 0.0
C1430 C 0.70285 0.34547 0.50639 0.0
C1431 C 0.58275 0.39696 0.4717 0.0
C1432 C 0.59776 0.42058 0.47749 0.0
C1433 C 0.59509 0.37738 0.46689 0.0
C1434 C 0.62271 0.38105 0.46732 0.0
C1435 C 0.63774 0.40456 0.47379 0.0
C1436 C 0.62536 0.42418 0.47887 0.0
C1437 C 0.63561 0.36015 0.46142 0.0
C1438 C 0.65262 0.35548 0.48078 0.0
C1439 C 0.62943 0.3437 0.43796 0.0
C1440 C 0.61347 0.34871 0.41562 0.0
C1441 C 0.62046 0.3708 0.40363 0.0
C1442 C 0.60523 0.37555 0.38282 0.0
C1443 C 0.58304 0.3583 0.37368 0.0
C1444 C 0.57607 0.33622 0.3853 0.0
C1445 C 0.59121 0.33138 0.40615 0.0
H1446 H 0.57128 0.36202 0.35757 0.0
H1447 H 0.72251 0.31745 0.55753 0.0
loop_
_geom_bond_atom_site_label_1
_geom_bond_atom_site_label_2
_geom_bond_distance
_geom_bond_site_symmetry_2
_ccdc_geom_bond_type
O0 Cd1 2.300 . S
O0 C7 1.275 . S
Cd1 O0 2.300 . S
Cd1 O9 2.381 . S
Cd1 O10 2.378 . S
O2 Cd3 2.385 . S
O2 C7 1.255 . S
Cd3 O2 2.385 . S
Cd3 O4 2.317 . S
O4 Cd3 2.317 . S
O4 C5 1.232 . S
C5 O4 1.232 . S
C5 O6 1.218 . S
O6 C5 1.218 . S
C7 O0 1.275 . S
C7 O2 1.255 . S
C8 O9 1.258 . S
C8 O10 1.256 . S
O9 Cd1 2.381 . S
O9 C8 1.258 . S
O10 Cd1 2.378 . S
O10 C8 1.256 . S
O11 Cd12 2.300 . S
O11 C18 1.275 . S
Cd12 O11 2.300 . S
Cd12 O20 2.381 . S
Cd12 O21 2.378 . S
O13 Cd14 2.385 . S
O13 C18 1.255 . S
Cd14 O13 2.385 . S
Cd14 O15 2.317 . S
O15 Cd14 2.317 . S
O15 C16 1.232 . S
C16 O15 1.232 . S
C16 O17 1.218 . S
O17 C16 1.218 . S
C18 O11 1.275 . S
C18 O13 1.255 . S
C19 O20 1.258 . S
C19 O21 1.256 . S
O20 Cd12 2.381 . S
O20 C19 1.258 . S
O21 Cd12 2.378 . S
O21 C19 1.256 . S
O22 Cd23 2.300 . S
O22 C29 1.275 . S
Cd23 O22 2.300 . S
Cd23 O31 2.381 . S
Cd23 O32 2.378 . S
O24 Cd25 2.385 . S
O24 C29 1.255 . S
Cd25 O24 2.385 . S
Cd25 O26 2.317 . S
O26 Cd25 2.317 . S
O26 C27 1.232 . S
C27 O26 1.232 . S
C27 O28 1.218 . S
O28 C27 1.218 . S
C29 O22 1.275 . S
C29 O24 1.255 . S
C30 O31 1.258 . S
C30 O32 1.256 . S
O31 Cd23 2.381 . S
O31 C30 1.258 . S
O32 Cd23 2.378 . S
O32 C30 1.256 . S
O33 Cd34 2.300 . S
O33 C40 1.275 . S
Cd34 O33 2.300 . S
Cd34 O42 2.381 . S
Cd34 O43 2.378 . S
O35 Cd36 2.385 . S
O35 C40 1.255 . S
Cd36 O35 2.385 . S
Cd36 O37 2.317 . S
O37 Cd36 2.317 . S
O37 C38 1.232 . S
C38 O37 1.232 . S
C38 O39 1.218 . S
O39 C38 1.218 . S
C40 O33 1.275 . S
C40 O35 1.255 . S
C41 O42 1.258 . S
C41 O43 1.256 . S
O42 Cd34 2.381 . S
O42 C41 1.258 . S
O43 Cd34 2.378 . S
O43 C41 1.256 . S
O44 Cd45 2.300 . S
O44 C51 1.275 . S
Cd45 O44 2.300 . S
Cd45 O53 2.381 . S
Cd45 O54 2.378 . S
O46 Cd47 2.385 . S
O46 C51 1.255 . S
Cd47 O46 2.385 . S
Cd47 O48 2.317 . S
O48 Cd47 2.317 . S
O48 C49 1.232 . S
C49 O48 1.232 . S
C49 O50 1.218 . S
O50 C49 1.218 . S
C51 O44 1.275 . S
C51 O46 1.255 . S
C52 O53 1.258 . S
C52 O54 1.256 . S
O53 Cd45 2.381 . S
O53 C52 1.258 . S
O54 Cd45 2.378 . S
O54 C52 1.256 . S
O55 Cd56 2.300 . S
O55 C62 1.275 . S
Cd56 O55 2.300 . S
Cd56 O64 2.381 . S
Cd56 O65 2.378 . S
O57 Cd58 2.385 . S
O57 C62 1.255 . S
Cd58 O57 2.385 . S
Cd58 O59 2.317 . S
O59 Cd58 2.317 . S
O59 C60 1.232 . S
C60 O59 1.232 . S
C60 O61 1.218 . S
O61 C60 1.218 . S
C62 O55 1.275 . S
C62 O57 1.255 . S
C63 O64 1.258 . S
C63 O65 1.256 . S
O64 Cd56 2.381 . S
O64 C63 1.258 . S
O65 Cd56 2.378 . S
O65 C63 1.256 . S
O66 Cd67 2.300 . S
O66 C73 1.275 . S
Cd67 O66 2.300 . S
Cd67 O75 2.381 . S
Cd67 O76 2.378 . S
O68 Cd69 2.385 . S
O68 C73 1.255 . S
Cd69 O68 2.385 . S
Cd69 O70 2.317 . S
O70 Cd69 2.317 . S
O70 C71 1.232 . S
C71 O70 1.232 . S
C71 O72 1.218 . S
O72 C71 1.218 . S
C73 O66 1.275 . S
C73 O68 1.255 . S
C74 O75 1.258 . S
C74 O76 1.256 . S
O75 Cd67 2.381 . S
O75 C74 1.258 . S
O76 Cd67 2.378 . S
O76 C74 1.256 . S
O77 Cd78 2.300 . S
O77 C84 1.275 . S
Cd78 O77 2.300 . S
Cd78 O86 2.381 . S
Cd78 O87 2.378 . S
O79 Cd80 2.385 . S
O79 C84 1.255 . S
Cd80 O79 2.385 . S
Cd80 O81 2.317 . S
O81 Cd80 2.317 . S
O81 C82 1.232 . S
C82 O81 1.232 . S
C82 O83 1.218 . S
O83 C82 1.218 . S
C84 O77 1.275 . S
C84 O79 1.255 . S
C85 O86 1.258 . S
C85 O87 1.256 . S
O86 Cd78 2.381 . S
O86 C85 1.258 . S
O87 Cd78 2.378 . S
O87 C85 1.256 . S
Gd88 C91 2.818 . S
Gd88 O108 2.377 . S
Gd88 O110 2.448 . S
Gd88 O111 2.506 . S
Gd88 O112 2.435 1_545 S
Gd88 O113 2.717 1_545 S
Gd88 O115 2.383 1_445 S
Gd88 O119 2.327 1_455 S
Gd89 C100 2.818 1_545 S
Gd89 O109 2.395 1_655 S
Gd89 O113 2.327 1_645 S
Gd89 O114 2.377 1_545 S
Gd89 O116 2.448 1_545 S
Gd89 O117 2.506 1_545 S
Gd89 O118 2.435 . S
Gd89 O119 2.717 . S
C90 O108 1.240 . S
C90 O109 1.240 . S
C91 Gd88 2.818 . S
C91 C92 1.510 . S
C91 O110 1.249 . S
C91 O111 1.252 . S
C92 C91 1.510 . S
C92 C93 1.404 . S
C92 C94 1.352 . S
C93 C92 1.404 . S
C93 C97 1.389 . S
C93 H120 0.930 . S
C94 C92 1.352 . S
C94 C96 1.374 . S
C94 H121 0.931 . S
C95 C96 1.359 . S
C95 C97 1.364 . S
C96 C94 1.374 . S
C96 C95 1.359 . S
C96 H122 0.931 . S
C97 C93 1.389 . S
C97 C95 1.364 . S
C97 H123 0.931 . S
C98 O112 1.256 . S
C98 O113 1.257 . S
C99 O114 1.240 . S
C99 O115 1.260 . S
C100 Gd89 2.818 1_565 S
C100 C101 1.510 . S
C100 O116 1.249 . S
C100 O117 1.252 . S
C101 C100 1.510 . S
C101 C102 1.404 . S
C101 C103 1.352 . S
C102 C101 1.404 . S
C102 C106 1.389 . S
C102 H124 0.930 . S
C103 C101 1.352 . S
C103 C105 1.374 . S
C103 H125 0.931 . S
C104 C105 1.359 . S
C104 C106 1.364 . S
C105 C103 1.374 . S
C105 C104 1.359 . S
C105 H126 0.931 . S
C106 C102 1.389 . S
C106 C104 1.364 . S
C106 H127 0.931 . S
C107 O118 1.256 . S
C107 O119 1.257 . S
O108 Gd88 2.377 . S
O108 C90 1.240 . S
O109 Gd89 2.395 1_455 S
O109 C90 1.240 . S
O110 Gd88 2.448 . S
O110 C91 1.249 . S
O111 Gd88 2.506 . S
O111 C91 1.252 . S
O112 Gd88 2.435 1_565 S
O112 C98 1.256 . S
O113 Gd88 2.717 1_565 S
O113 Gd89 2.327 1_465 S
O113 C98 1.257 . S
O114 Gd89 2.377 1_565 S
O114 C99 1.240 . S
O115 Gd88 2.383 1_665 S
O115 C99 1.260 . S
O116 Gd89 2.448 1_565 S
O116 C100 1.249 . S
O117 Gd89 2.506 1_565 S
O117 C100 1.252 . S
O118 Gd89 2.435 . S
O118 C107 1.256 . S
O119 Gd88 2.327 1_655 S
O119 Gd89 2.717 . S
O119 C107 1.257 . S
H120 C93 0.930 . S
H121 C94 0.931 . S
H122 C96 0.931 . S
H123 C97 0.931 . S
H124 C102 0.930 . S
H125 C103 0.931 . S
H126 C105 0.931 . S
H127 C106 0.931 . S
Gd128 C131 2.818 . S
Gd128 O148 2.377 . S
Gd128 O150 2.448 . S
Gd128 O151 2.506 . S
Gd128 O152 2.435 1_545 S
Gd128 O153 2.717 . S
Gd128 O155 2.395 . S
Gd128 O159 2.327 . S
Gd129 C140 2.818 1_544 S
Gd129 O149 2.395 . S
Gd129 O153 2.327 . S
Gd129 O154 2.377 . S
Gd129 O156 2.448 1_554 S
Gd129 O157 2.506 1_545 S
Gd129 O158 2.435 . S
Gd129 O159 2.717 . S
C130 O148 1.240 . S
C130 O149 1.240 . S
C131 Gd128 2.818 . S
C131 C132 1.510 . S
C131 O150 1.249 . S
C131 O151 1.252 . S
C132 C131 1.510 . S
C132 C133 1.404 . S
C132 C134 1.352 . S
C133 C132 1.404 . S
C133 C137 1.389 . S
C133 H160 0.930 . S
C134 C132 1.352 . S
C134 C136 1.374 . S
C134 H161 0.931 . S
C135 C136 1.359 . S
C135 C137 1.364 . S
C136 C134 1.374 . S
C136 C135 1.359 . S
C136 H162 0.931 . S
C137 C133 1.389 . S
C137 C135 1.364 . S
C137 H163 0.931 . S
C138 O152 1.256 . S
C138 O153 1.257 1_565 S
C139 O154 1.240 1_565 S
C139 O155 1.240 1_565 S
C140 Gd129 2.818 1_566 S
C140 C141 1.510 . S
C140 O156 1.249 1_565 S
C140 O157 1.252 1_556 S
C141 C140 1.510 . S
C141 C142 1.404 . S
C141 C143 1.352 . S
C142 C141 1.404 . S
C142 C146 1.389 . S
C142 H164 0.930 1_565 S
C143 C141 1.352 . S
C143 C145 1.374 . S
C143 H165 0.931 . S
C144 C145 1.359 . S
C144 C146 1.364 . S
C145 C143 1.374 . S
C145 C144 1.359 . S
C145 H166 0.931 . S
C146 C142 1.389 . S
C146 C144 1.364 . S
C146 H167 0.931 . S
C147 O158 1.256 . S
C147 O159 1.257 . S
O148 Gd128 2.377 . S
O148 C130 1.240 . S
O149 Gd129 2.395 . S
O149 C130 1.240 . S
O150 Gd128 2.448 . S
O150 C131 1.249 . S
O151 Gd128 2.506 . S
O151 C131 1.252 . S
O152 Gd128 2.435 1_565 S
O152 C138 1.256 . S
O153 Gd128 2.717 . S
O153 Gd129 2.327 . S
O153 C138 1.257 1_545 S
O154 Gd129 2.377 . S
O154 C139 1.240 1_545 S
O155 Gd128 2.395 . S
O155 C139 1.240 1_545 S
O156 Gd129 2.448 1_556 S
O156 C140 1.249 1_545 S
O157 Gd129 2.506 1_565 S
O157 C140 1.252 1_554 S
O158 Gd129 2.435 . S
O158 C147 1.256 . S
O159 Gd128 2.327 . S
O159 Gd129 2.717 . S
O159 C147 1.257 . S
H160 C133 0.930 . S
H161 C134 0.931 . S
H162 C136 0.931 . S
H163 C137 0.931 . S
H164 C142 0.930 1_545 S
H165 C143 0.931 . S
H166 C145 0.931 . S
H167 C146 0.931 . S
Gd168 C171 2.818 . S
Gd168 O188 2.377 . S
Gd168 O190 2.448 . S
Gd168 O191 2.506 . S
Gd168 O192 2.435 . S
Gd168 O193 2.717 . S
Gd168 O195 2.395 . S
Gd168 O199 2.327 . S
Gd169 C180 2.818 . S
Gd169 O189 2.395 . S
Gd169 O193 2.327 . S
Gd169 O194 2.377 . S
Gd169 O196 2.448 . S
Gd169 O197 2.506 . S
Gd169 O198 2.435 . S
Gd169 O199 2.717 . S
C170 O188 1.240 . S
C170 O189 1.240 . S
C171 Gd168 2.818 . S
C171 C172 1.510 . S
C171 O190 1.249 . S
C171 O191 1.252 . S
C172 C171 1.510 . S
C172 C173 1.404 . S
C172 C174 1.352 . S
C173 C172 1.404 . S
C173 C177 1.389 . S
C173 H200 0.930 . S
C174 C172 1.352 . S
C174 C176 1.374 . S
C174 H201 0.931 . S
C175 C176 1.359 . S
C175 C177 1.364 . S
C176 C174 1.374 . S
C176 C175 1.359 . S
C176 H202 0.931 . S
C177 C173 1.389 . S
C177 C175 1.364 . S
C177 H203 0.931 . S
C178 O192 1.256 . S
C178 O193 1.257 . S
C179 O194 1.240 . S
C179 O195 1.240 . S
C180 Gd169 2.818 . S
C180 C181 1.510 . S
C180 O196 1.249 . S
C180 O197 1.252 . S
C181 C180 1.510 . S
C181 C182 1.404 . S
C181 C183 1.352 . S
C182 C181 1.404 . S
C182 C186 1.389 . S
C182 H204 0.930 . S
C183 C181 1.352 . S
C183 C185 1.374 . S
C183 H205 0.931 . S
C184 C185 1.359 . S
C184 C186 1.364 . S
C185 C183 1.374 . S
C185 C184 1.359 . S
C185 H206 0.931 . S
C186 C182 1.389 . S
C186 C184 1.364 . S
C186 H207 0.931 . S
C187 O198 1.256 . S
C187 O199 1.257 . S
O188 Gd168 2.377 . S
O188 C170 1.240 . S
O189 Gd169 2.395 . S
O189 C170 1.240 . S
O190 Gd168 2.448 . S
O190 C171 1.249 . S
O191 Gd168 2.506 . S
O191 C171 1.252 . S
O192 Gd168 2.435 . S
O192 C178 1.256 . S
O193 Gd168 2.717 . S
O193 Gd169 2.327 . S
O193 C178 1.257 . S
O194 Gd169 2.377 . S
O194 C179 1.240 . S
O195 Gd168 2.395 . S
O195 C179 1.240 . S
O196 Gd169 2.448 . S
O196 C180 1.249 . S
O197 Gd169 2.506 . S
O197 C180 1.252 . S
O198 Gd169 2.435 . S
O198 C187 1.256 . S
O199 Gd168 2.327 . S
O199 Gd169 2.717 . S
O199 C187 1.257 . S
H200 C173 0.930 . S
H201 C174 0.931 . S
H202 C176 0.931 . S
H203 C177 0.931 . S
H204 C182 0.930 . S
H205 C183 0.931 . S
H206 C185 0.931 . S
H207 C186 0.931 . S
Gd208 C211 2.818 . S
Gd208 O228 2.377 . S
Gd208 O230 2.448 . S
Gd208 O231 2.506 . S
Gd208 O232 2.435 . S
Gd208 O233 2.717 . S
Gd208 O235 2.395 1_455 S
Gd208 O239 2.327 1_554 S
Gd209 C220 2.818 1_455 S
Gd209 O229 2.395 1_556 S
Gd209 O233 2.327 1_556 S
Gd209 O234 2.377 1_455 S
Gd209 O236 2.456 . S
Gd209 O237 2.506 1_455 S
Gd209 O238 2.435 . S
Gd209 O239 2.717 . S
C210 O228 1.240 . S
C210 O229 1.240 . S
C211 Gd208 2.818 . S
C211 C212 1.510 . S
C211 O230 1.249 . S
C211 O231 1.252 . S
C212 C211 1.510 . S
C212 C213 1.404 . S
C212 C214 1.352 . S
C213 C212 1.404 . S
C213 C217 1.389 . S
C213 H240 0.930 . S
C214 C212 1.352 . S
C214 C216 1.374 . S
C214 H241 0.931 . S
C215 C216 1.359 . S
C215 C217 1.364 . S
C216 C214 1.374 . S
C216 C215 1.359 . S
C216 H242 0.931 . S
C217 C213 1.389 . S
C217 C215 1.364 . S
C217 H243 0.931 . S
C218 O232 1.256 1_655 S
C218 O233 1.257 1_655 S
C219 O234 1.240 . S
C219 O235 1.240 1_556 S
C220 Gd209 2.818 1_655 S
C220 C221 1.510 . S
C220 O236 1.237 1_655 S
C220 O237 1.252 . S
C221 C220 1.510 . S
C221 C222 1.404 . S
C221 C223 1.352 . S
C222 C221 1.404 . S
C222 C226 1.389 . S
C222 H244 0.930 . S
C223 C221 1.352 . S
C223 C225 1.374 . S
C223 H245 0.931 . S
C224 C225 1.359 . S
C224 C226 1.364 . S
C225 C223 1.374 . S
C225 C224 1.359 . S
C225 H246 0.931 . S
C226 C222 1.389 . S
C226 C224 1.364 . S
C226 H247 0.931 . S
C227 O238 1.256 . S
C227 O239 1.257 . S
O228 Gd208 2.377 . S
O228 C210 1.240 . S
O229 Gd209 2.395 1_554 S
O229 C210 1.240 . S
O230 Gd208 2.448 . S
O230 C211 1.249 . S
O231 Gd208 2.506 . S
O231 C211 1.252 . S
O232 Gd208 2.435 . S
O232 C218 1.256 1_455 S
O233 Gd208 2.717 . S
O233 Gd209 2.327 1_554 S
O233 C218 1.257 1_455 S
O234 Gd209 2.377 1_655 S
O234 C219 1.240 . S
O235 Gd208 2.395 1_655 S
O235 C219 1.240 1_554 S
O236 Gd209 2.456 . S
O236 C220 1.237 1_455 S
O237 Gd209 2.506 1_655 S
O237 C220 1.252 . S
O238 Gd209 2.435 . S
O238 C227 1.256 . S
O239 Gd208 2.327 1_556 S
O239 Gd209 2.717 . S
O239 C227 1.257 . S
H240 C213 0.930 . S
H241 C214 0.931 . S
H242 C216 0.931 . S
H243 C217 0.931 . S
H244 C222 0.930 . S
H245 C223 0.931 . S
H246 C225 0.931 . S
H247 C226 0.931 . S
H248 C266 0.951 . S
H249 C268 0.951 . S
H250 C270 0.950 . S
H251 C271 0.950 . S
H252 C273 0.950 . S
H253 C276 0.950 . S
H254 C277 0.950 . S
H255 C279 0.950 . S
H256 C280 0.950 . S
H257 C281 0.951 . S
H258 C283 0.951 . S
H259 C285 0.950 . S
H260 C286 0.950 . S
H261 C288 0.950 . S
H262 C291 0.950 . S
H263 C292 0.950 . S
H264 C294 0.950 . S
H265 C295 0.950 . S
C266 H248 0.951 . S
C266 C267 1.366 . S
C266 C268 1.388 . S
C267 C266 1.366 . S
C267 C271 1.385 . S
C268 H249 0.951 . S
C268 C266 1.388 . S
C268 C269 1.366 . S
C269 C268 1.366 . S
C269 C270 1.414 . S
C269 C272 1.499 . S
C270 H250 0.950 . S
C270 C269 1.414 . S
C270 C271 1.374 . S
C271 H251 0.950 . S
C271 C267 1.385 . S
C271 C270 1.374 . S
C272 C269 1.499 . S
C272 C273 1.373 . S
C272 C274 1.389 . S
C273 H252 0.950 . S
C273 C272 1.373 . S
C273 C289 1.377 . S
C274 C272 1.389 . S
C274 C275 1.524 . S
C274 C288 1.377 . S
C275 C274 1.524 . S
C275 C276 1.397 . S
C275 C280 1.363 . S
C276 H253 0.950 . S
C276 C275 1.397 . S
C276 C277 1.334 . S
C277 H254 0.950 . S
C277 C276 1.334 . S
C277 C278 1.287 . S
C278 C277 1.287 . S
C278 C279 1.524 . S
C278 H297 0.913 . S
C279 H255 0.950 . S
C279 C278 1.524 . S
C279 C280 1.415 . S
C280 H256 0.950 . S
C280 C275 1.363 . S
C280 C279 1.415 . S
C281 H257 0.951 . S
C281 C282 1.366 . S
C281 C283 1.388 . S
C282 C281 1.366 . S
C282 C286 1.385 . S
C283 H258 0.951 . S
C283 C281 1.388 . S
C283 C284 1.366 . S
C284 C283 1.366 . S
C284 C285 1.414 . S
C284 C287 1.499 . S
C285 H259 0.950 . S
C285 C284 1.414 . S
C285 C286 1.374 . S
C286 H260 0.950 . S
C286 C282 1.385 . S
C286 C285 1.374 . S
C287 C284 1.499 . S
C287 C288 1.373 . S
C287 C289 1.389 . S
C288 H261 0.950 . S
C288 C274 1.377 . S
C288 C287 1.373 . S
C289 C273 1.377 . S
C289 C287 1.389 . S
C289 C290 1.524 . S
C290 C289 1.524 . S
C290 C291 1.397 . S
C290 C295 1.363 . S
C291 H262 0.950 . S
C291 C290 1.397 . S
C291 C292 1.334 . S
C292 H263 0.950 . S
C292 C291 1.334 . S
C292 C293 1.287 . S
C293 C292 1.287 . S
C293 C294 1.524 . S
C293 H296 0.999 . S
C294 H264 0.950 . S
C294 C293 1.524 . S
C294 C295 1.415 . S
C295 H265 0.950 . S
C295 C290 1.363 . S
C295 C294 1.415 . S
H296 C293 0.999 . S
H297 C278 0.913 . S
H298 C316 0.951 . S
H299 C318 0.951 . S
H300 C320 0.950 . S
H301 C321 0.950 . S
H302 C323 0.950 . S
H303 C326 0.950 . S
H304 C327 0.950 . S
H305 C329 0.950 . S
H306 C330 0.950 . S
H307 C331 0.951 . S
H308 C333 0.951 . S
H309 C335 0.950 . S
H310 C336 0.950 . S
H311 C338 0.950 . S
H312 C341 0.950 . S
H313 C342 0.950 . S
H314 C344 0.950 . S
H315 C345 0.950 . S
C316 H298 0.951 . S
C316 C317 1.366 . S
C316 C318 1.388 . S
C317 C316 1.366 . S
C317 C321 1.385 . S
C318 H299 0.951 . S
C318 C316 1.388 . S
C318 C319 1.366 . S
C319 C318 1.366 . S
C319 C320 1.414 . S
C319 C322 1.499 . S
C320 H300 0.950 . S
C320 C319 1.414 . S
C320 C321 1.374 . S
C321 H301 0.950 . S
C321 C317 1.385 . S
C321 C320 1.374 . S
C322 C319 1.499 . S
C322 C323 1.373 . S
C322 C324 1.389 . S
C323 H302 0.950 . S
C323 C322 1.373 . S
C323 C339 1.377 . S
C324 C322 1.389 . S
C324 C325 1.524 . S
C324 C338 1.377 . S
C325 C324 1.524 . S
C325 C326 1.397 . S
C325 C330 1.363 . S
C326 H303 0.950 . S
C326 C325 1.397 . S
C326 C327 1.334 . S
C327 H304 0.950 . S
C327 C326 1.334 . S
C327 C328 1.287 . S
C328 C327 1.287 . S
C328 C329 1.524 . S
C328 H347 0.913 . S
C329 H305 0.950 . S
C329 C328 1.524 . S
C329 C330 1.415 . S
C330 H306 0.950 . S
C330 C325 1.363 . S
C330 C329 1.415 . S
C331 H307 0.951 . S
C331 C332 1.366 . S
C331 C333 1.388 . S
C332 C331 1.366 . S
C332 C336 1.385 . S
C333 H308 0.951 . S
C333 C331 1.388 . S
C333 C334 1.366 . S
C334 C333 1.366 . S
C334 C335 1.414 . S
C334 C337 1.499 . S
C335 H309 0.950 . S
C335 C334 1.414 . S
C335 C336 1.374 . S
C336 H310 0.950 . S
C336 C332 1.385 . S
C336 C335 1.374 . S
C337 C334 1.499 . S
C337 C338 1.373 . S
C337 C339 1.389 . S
C338 H311 0.950 . S
C338 C324 1.377 . S
C338 C337 1.373 . S
C339 C323 1.377 . S
C339 C337 1.389 . S
C339 C340 1.524 . S
C340 C339 1.524 . S
C340 C341 1.397 . S
C340 C345 1.363 . S
C341 H312 0.950 . S
C341 C340 1.397 . S
C341 C342 1.334 . S
C342 H313 0.950 . S
C342 C341 1.334 . S
C342 C343 1.287 . S
C343 C342 1.287 . S
C343 C344 1.524 . S
C343 H346 0.999 . S
C344 H314 0.950 . S
C344 C343 1.524 . S
C344 C345 1.415 . S
C345 H315 0.950 . S
C345 C340 1.363 . S
C345 C344 1.415 . S
H346 C343 0.999 . S
H347 C328 0.913 . S
H348 C366 0.951 . S
H349 C368 0.951 . S
H350 C370 0.950 . S
H351 C371 0.950 . S
H352 C373 0.950 . S
H353 C376 0.950 . S
H354 C377 0.950 . S
H355 C379 0.950 . S
H356 C380 0.950 . S
H357 C381 0.951 . S
H358 C383 0.951 . S
H359 C385 0.950 . S
H360 C386 0.950 . S
H361 C388 0.950 . S
H362 C391 0.950 . S
H363 C392 0.950 . S
H364 C394 0.950 . S
H365 C395 0.950 . S
C366 H348 0.951 . S
C366 C367 1.366 . S
C366 C368 1.388 . S
C367 C366 1.366 . S
C367 C371 1.385 . S
C368 H349 0.951 . S
C368 C366 1.388 . S
C368 C369 1.366 . S
C369 C368 1.366 . S
C369 C370 1.414 . S
C369 C372 1.499 . S
C370 H350 0.950 . S
C370 C369 1.414 . S
C370 C371 1.374 . S
C371 H351 0.950 . S
C371 C367 1.385 . S
C371 C370 1.374 . S
C372 C369 1.499 . S
C372 C373 1.373 . S
C372 C374 1.389 . S
C373 H352 0.950 . S
C373 C372 1.373 . S
C373 C389 1.377 . S
C374 C372 1.389 . S
C374 C375 1.524 . S
C374 C388 1.377 . S
C375 C374 1.524 . S
C375 C376 1.397 . S
C375 C380 1.363 . S
C376 H353 0.950 . S
C376 C375 1.397 . S
C376 C377 1.334 . S
C377 H354 0.950 . S
C377 C376 1.334 . S
C377 C378 1.287 . S
C378 C377 1.287 . S
C378 C379 1.524 . S
C378 H397 0.913 . S
C379 H355 0.950 . S
C379 C378 1.524 . S
C379 C380 1.415 . S
C380 H356 0.950 . S
C380 C375 1.363 . S
C380 C379 1.415 . S
C381 H357 0.951 . S
C381 C382 1.366 . S
C381 C383 1.388 . S
C382 C381 1.366 . S
C382 C386 1.385 . S
C383 H358 0.951 . S
C383 C381 1.388 . S
C383 C384 1.366 . S
C384 C383 1.366 . S
C384 C385 1.414 . S
C384 C387 1.499 . S
C385 H359 0.950 . S
C385 C384 1.414 . S
C385 C386 1.374 . S
C386 H360 0.950 . S
C386 C382 1.385 . S
C386 C385 1.374 . S
C387 C384 1.499 . S
C387 C388 1.373 . S
C387 C389 1.389 . S
C388 H361 0.950 . S
C388 C374 1.377 . S
C388 C387 1.373 . S
C389 C373 1.377 . S
C389 C387 1.389 . S
C389 C390 1.524 . S
C390 C389 1.524 . S
C390 C391 1.397 . S
C390 C395 1.363 . S
C391 H362 0.950 . S
C391 C390 1.397 . S
C391 C392 1.334 . S
C392 H363 0.950 . S
C392 C391 1.334 . S
C392 C393 1.287 . S
C393 C392 1.287 . S
C393 C394 1.524 . S
C393 H396 0.999 . S
C394 H364 0.950 . S
C394 C393 1.524 . S
C394 C395 1.415 . S
C395 H365 0.950 . S
C395 C390 1.363 . S
C395 C394 1.415 . S
H396 C393 0.999 . S
H397 C378 0.913 . S
H398 C416 0.951 . S
H399 C418 0.951 . S
H400 C420 0.950 . S
H401 C421 0.950 . S
H402 C423 0.950 . S
H403 C426 0.950 . S
H404 C427 0.950 . S
H405 C429 0.950 . S
H406 C430 0.950 . S
H407 C431 0.951 1_455 S
H408 C433 0.929 1_455 S
H409 C435 0.950 . S
H410 C436 0.950 . S
H411 C438 0.950 . S
H412 C441 0.950 . S
H413 C442 0.950 . S
H414 C444 0.950 . S
H415 C445 0.950 . S
C416 H398 0.951 . S
C416 C417 1.366 . S
C416 C418 1.388 . S
C417 C416 1.366 . S
C417 C421 1.385 . S
C418 H399 0.951 . S
C418 C416 1.388 . S
C418 C419 1.366 . S
C419 C418 1.366 . S
C419 C420 1.414 . S
C419 C422 1.499 . S
C420 H400 0.950 . S
C420 C419 1.414 . S
C420 C421 1.374 . S
C421 H401 0.950 . S
C421 C417 1.385 . S
C421 C420 1.374 . S
C422 C419 1.499 . S
C422 C423 1.373 . S
C422 C424 1.389 . S
C423 H402 0.950 . S
C423 C422 1.373 . S
C423 C439 1.377 . S
C424 C422 1.389 . S
C424 C425 1.524 . S
C424 C438 1.377 . S
C425 C424 1.524 . S
C425 C426 1.397 . S
C425 C430 1.363 . S
C426 H403 0.950 . S
C426 C425 1.397 . S
C426 C427 1.334 . S
C427 H404 0.950 . S
C427 C426 1.334 . S
C427 C428 1.287 . S
C428 C427 1.287 . S
C428 C429 1.524 . S
C428 H447 0.913 . S
C429 H405 0.950 . S
C429 C428 1.524 . S
C429 C430 1.415 . S
C430 H406 0.950 . S
C430 C425 1.363 . S
C430 C429 1.415 . S
C431 H407 0.951 1_655 S
C431 C432 1.366 . S
C431 C433 1.388 . S
C432 C431 1.366 . S
C432 C436 1.385 . S
C433 H408 0.929 1_655 S
C433 C431 1.388 . S
C433 C434 1.366 . S
C434 C433 1.366 . S
C434 C435 1.414 . S
C434 C437 1.499 . S
C435 H409 0.950 . S
C435 C434 1.414 . S
C435 C436 1.374 . S
C436 H410 0.950 . S
C436 C432 1.385 . S
C436 C435 1.374 . S
C437 C434 1.499 . S
C437 C438 1.373 . S
C437 C439 1.389 . S
C438 H411 0.950 . S
C438 C424 1.377 . S
C438 C437 1.373 . S
C439 C423 1.377 . S
C439 C437 1.389 . S
C439 C440 1.524 . S
C440 C439 1.524 . S
C440 C441 1.397 . S
C440 C445 1.363 1_655 S
C441 H412 0.950 . S
C441 C440 1.397 . S
C441 C442 1.334 1_655 S
C442 H413 0.950 . S
C442 C441 1.334 1_455 S
C442 C443 1.287 . S
C443 C442 1.287 . S
C443 C444 1.524 . S
C443 H446 0.999 . S
C444 H414 0.950 . S
C444 C443 1.524 . S
C444 C445 1.415 . S
C445 H415 0.950 . S
C445 C440 1.363 1_455 S
C445 C444 1.415 . S
H446 C443 0.999 . S
H447 C428 0.913 . S
H448 C466 0.951 . S
H449 C468 0.951 . S
H450 C470 0.950 . S
H451 C471 0.950 . S
H452 C473 0.950 . S
H453 C476 0.950 . S
H454 C477 0.950 . S
H455 C479 0.950 . S
H456 C480 0.950 . S
H457 C481 0.951 . S
H458 C483 0.951 . S
H459 C485 0.950 . S
H460 C486 0.950 . S
H461 C488 0.950 . S
H462 C491 0.950 . S
H463 C492 0.950 . S
H464 C494 0.950 . S
H465 C495 0.950 . S
C466 H448 0.951 . S
C466 C467 1.366 . S
C466 C468 1.388 . S
C467 C466 1.366 . S
C467 C471 1.385 . S
C468 H449 0.951 . S
C468 C466 1.388 . S
C468 C469 1.366 . S
C469 C468 1.366 . S
C469 C470 1.414 . S
C469 C472 1.499 . S
C470 H450 0.950 . S
C470 C469 1.414 . S
C470 C471 1.374 . S
C471 H451 0.950 . S
C471 C467 1.385 . S
C471 C470 1.374 . S
C472 C469 1.499 . S
C472 C473 1.373 . S
C472 C474 1.389 . S
C473 H452 0.950 . S
C473 C472 1.373 . S
C473 C489 1.377 . S
C474 C472 1.389 . S
C474 C475 1.524 . S
C474 C488 1.377 . S
C475 C474 1.524 . S
C475 C476 1.397 . S
C475 C480 1.363 . S
C476 H453 0.950 . S
C476 C475 1.397 . S
C476 C477 1.334 . S
C477 H454 0.950 . S
C477 C476 1.334 . S
C477 C478 1.287 . S
C478 C477 1.287 . S
C478 C479 1.524 . S
C478 H497 0.913 . S
C479 H455 0.950 . S
C479 C478 1.524 . S
C479 C480 1.415 . S
C480 H456 0.950 . S
C480 C475 1.363 . S
C480 C479 1.415 . S
C481 H457 0.951 . S
C481 C482 1.366 . S
C481 C483 1.388 . S
C482 C481 1.366 . S
C482 C486 1.385 . S
C483 H458 0.951 . S
C483 C481 1.388 . S
C483 C484 1.366 . S
C484 C483 1.366 . S
C484 C485 1.414 . S
C484 C487 1.499 . S
C485 H459 0.950 . S
C485 C484 1.414 . S
C485 C486 1.374 . S
C486 H460 0.950 . S
C486 C482 1.385 . S
C486 C485 1.374 . S
C487 C484 1.499 . S
C487 C488 1.373 . S
C487 C489 1.389 . S
C488 H461 0.950 . S
C488 C474 1.377 . S
C488 C487 1.373 . S
C489 C473 1.377 . S
C489 C487 1.389 . S
C489 C490 1.524 . S
C490 C489 1.524 . S
C490 C491 1.397 . S
C490 C495 1.363 . S
C491 H462 0.950 . S
C491 C490 1.397 . S
C491 C492 1.334 . S
C492 H463 0.950 . S
C492 C491 1.334 . S
C492 C493 1.287 . S
C493 C492 1.287 . S
C493 C494 1.524 . S
C493 H496 0.999 . S
C494 H464 0.950 . S
C494 C493 1.524 . S
C494 C495 1.415 . S
C495 H465 0.950 . S
C495 C490 1.363 . S
C495 C494 1.415 . S
H496 C493 0.999 . S
H497 C478 0.913 . S
H498 C516 0.951 . S
H499 C518 0.951 . S
H500 C520 0.950 . S
H501 C521 0.950 . S
H502 C523 0.950 . S
H503 C526 0.950 . S
H504 C527 0.950 . S
H505 C529 0.950 1_545 S
H506 C530 0.950 . S
H507 C531 0.951 . S
H508 C533 0.951 . S
H509 C535 0.950 . S
H510 C536 0.950 1_545 S
H511 C538 0.950 . S
H512 C541 0.950 . S
H513 C542 0.950 . S
H514 C544 0.950 . S
H515 C545 0.950 . S
C516 H498 0.951 . S
C516 C517 1.366 . S
C516 C518 1.388 . S
C517 C516 1.366 . S
C517 C521 1.385 . S
C518 H499 0.951 . S
C518 C516 1.388 . S
C518 C519 1.366 . S
C519 C518 1.366 . S
C519 C520 1.414 . S
C519 C522 1.499 . S
C520 H500 0.950 . S
C520 C519 1.414 . S
C520 C521 1.374 . S
C521 H501 0.950 . S
C521 C517 1.385 . S
C521 C520 1.374 . S
C522 C519 1.499 . S
C522 C523 1.373 . S
C522 C524 1.389 . S
C523 H502 0.950 . S
C523 C522 1.373 . S
C523 C539 1.377 . S
C524 C522 1.389 . S
C524 C525 1.524 . S
C524 C538 1.377 . S
C525 C524 1.524 . S
C525 C526 1.397 . S
C525 C530 1.363 . S
C526 H503 0.950 . S
C526 C525 1.397 . S
C526 C527 1.334 . S
C527 H504 0.950 . S
C527 C526 1.334 . S
C527 C528 1.287 . S
C528 C527 1.287 . S
C528 C529 1.524 . S
C528 H547 0.913 . S
C529 H505 0.950 1_565 S
C529 C528 1.524 . S
C529 C530 1.415 . S
C530 H506 0.950 . S
C530 C525 1.363 . S
C530 C529 1.415 . S
C531 H507 0.951 . S
C531 C532 1.366 . S
C531 C533 1.388 . S
C532 C531 1.366 . S
C532 C536 1.385 . S
C533 H508 0.951 . S
C533 C531 1.388 . S
C533 C534 1.366 . S
C534 C533 1.366 . S
C534 C535 1.414 . S
C534 C537 1.499 . S
C535 H509 0.950 . S
C535 C534 1.414 . S
C535 C536 1.374 . S
C536 H510 0.950 1_565 S
C536 C532 1.385 . S
C536 C535 1.374 . S
C537 C534 1.499 . S
C537 C538 1.373 . S
C537 C539 1.389 . S
C538 H511 0.950 . S
C538 C524 1.377 . S
C538 C537 1.373 . S
C539 C523 1.377 . S
C539 C537 1.389 . S
C539 C540 1.524 . S
C540 C539 1.524 . S
C540 C541 1.397 . S
C540 C545 1.363 . S
C541 H512 0.950 . S
C541 C540 1.397 . S
C541 C542 1.334 . S
C542 H513 0.950 . S
C542 C541 1.334 . S
C542 C543 1.287 . S
C543 C542 1.287 . S
C543 C544 1.524 . S
C543 H546 0.999 . S
C544 H514 0.950 . S
C544 C543 1.524 . S
C544 C545 1.415 . S
C545 H515 0.950 . S
C545 C540 1.363 . S
C545 C544 1.415 . S
H546 C543 0.999 . S
H547 C528 0.913 . S
H548 C566 0.951 . S
H549 C568 0.951 . S
H550 C570 0.950 . S
H551 C571 0.950 . S
H552 C573 0.950 . S
H553 C576 0.950 . S
H554 C577 0.950 . S
H555 C579 0.950 . S
H556 C580 0.950 . S
H557 C581 0.951 . S
H558 C583 0.951 . S
H559 C585 0.950 . S
H560 C586 0.950 . S
H561 C588 0.950 . S
H562 C591 0.950 . S
H563 C592 0.950 . S
H564 C594 0.950 . S
H565 C595 0.950 . S
C566 H548 0.951 . S
C566 C567 1.366 . S
C566 C568 1.388 . S
C567 C566 1.366 . S
C567 C571 1.385 . S
C568 H549 0.951 . S
C568 C566 1.388 . S
C568 C569 1.366 . S
C569 C568 1.366 . S
C569 C570 1.414 . S
C569 C572 1.499 . S
C570 H550 0.950 . S
C570 C569 1.414 . S
C570 C571 1.374 . S
C571 H551 0.950 . S
C571 C567 1.385 . S
C571 C570 1.374 . S
C572 C569 1.499 . S
C572 C573 1.373 . S
C572 C574 1.389 . S
C573 H552 0.950 . S
C573 C572 1.373 . S
C573 C589 1.377 . S
C574 C572 1.389 . S
C574 C575 1.524 . S
C574 C588 1.377 . S
C575 C574 1.524 . S
C575 C576 1.397 . S
C575 C580 1.363 . S
C576 H553 0.950 . S
C576 C575 1.397 . S
C576 C577 1.334 . S
C577 H554 0.950 . S
C577 C576 1.334 . S
C577 C578 1.287 . S
C578 C577 1.287 . S
C578 C579 1.524 . S
C578 H597 0.913 1_556 S
C579 H555 0.950 . S
C579 C578 1.524 . S
C579 C580 1.415 . S
C580 H556 0.950 . S
C580 C575 1.363 . S
C580 C579 1.415 . S
C581 H557 0.951 . S
C581 C582 1.366 . S
C581 C583 1.388 . S
C582 C581 1.366 . S
C582 C586 1.385 . S
C583 H558 0.951 . S
C583 C581 1.388 . S
C583 C584 1.366 . S
C584 C583 1.366 . S
C584 C585 1.414 . S
C584 C587 1.499 . S
C585 H559 0.950 . S
C585 C584 1.414 . S
C585 C586 1.374 . S
C586 H560 0.950 . S
C586 C582 1.385 . S
C586 C585 1.374 . S
C587 C584 1.499 . S
C587 C588 1.373 . S
C587 C589 1.389 . S
C588 H561 0.950 . S
C588 C574 1.377 . S
C588 C587 1.373 . S
C589 C573 1.377 . S
C589 C587 1.389 . S
C589 C590 1.524 . S
C590 C589 1.524 . S
C590 C591 1.397 . S
C590 C595 1.363 . S
C591 H562 0.950 . S
C591 C590 1.397 . S
C591 C592 1.334 . S
C592 H563 0.950 . S
C592 C591 1.334 . S
C592 C593 1.287 . S
C593 C592 1.287 . S
C593 C594 1.524 . S
C593 H596 0.999 . S
C594 H564 0.950 . S
C594 C593 1.524 . S
C594 C595 1.415 . S
C595 H565 0.950 . S
C595 C590 1.363 . S
C595 C594 1.415 . S
H596 C593 0.999 . S
H597 C578 0.913 1_554 S
H598 C616 0.951 . S
H599 C618 0.951 . S
H600 C620 0.950 . S
H601 C621 0.950 . S
H602 C623 0.950 . S
H603 C626 0.950 . S
H604 C627 0.950 . S
H605 C629 0.950 . S
H606 C630 0.950 . S
H607 C631 0.951 . S
H608 C633 0.951 . S
H609 C635 0.950 . S
H610 C636 0.950 . S
H611 C638 0.950 . S
H612 C641 0.950 . S
H613 C642 0.950 . S
H614 C644 0.950 . S
H615 C645 0.950 . S
C616 H598 0.951 . S
C616 C617 1.366 . S
C616 C618 1.388 . S
C617 C616 1.366 . S
C617 C621 1.385 . S
C618 H599 0.951 . S
C618 C616 1.388 . S
C618 C619 1.366 . S
C619 C618 1.366 . S
C619 C620 1.414 . S
C619 C622 1.499 . S
C620 H600 0.950 . S
C620 C619 1.414 . S
C620 C621 1.374 . S
C621 H601 0.950 . S
C621 C617 1.385 . S
C621 C620 1.374 . S
C622 C619 1.499 . S
C622 C623 1.373 . S
C622 C624 1.389 . S
C623 H602 0.950 . S
C623 C622 1.373 . S
C623 C639 1.377 . S
C624 C622 1.389 . S
C624 C625 1.524 . S
C624 C638 1.377 . S
C625 C624 1.524 . S
C625 C626 1.397 . S
C625 C630 1.363 . S
C626 H603 0.950 . S
C626 C625 1.397 . S
C626 C627 1.334 . S
C627 H604 0.950 . S
C627 C626 1.334 . S
C627 C628 1.287 . S
C628 C627 1.287 . S
C628 C629 1.524 . S
C628 H647 0.913 . S
C629 H605 0.950 . S
C629 C628 1.524 . S
C629 C630 1.415 . S
C630 H606 0.950 . S
C630 C625 1.363 . S
C630 C629 1.415 . S
C631 H607 0.951 . S
C631 C632 1.366 . S
C631 C633 1.388 . S
C632 C631 1.366 . S
C632 C636 1.385 . S
C633 H608 0.951 . S
C633 C631 1.388 . S
C633 C634 1.366 . S
C634 C633 1.366 . S
C634 C635 1.414 . S
C634 C637 1.499 . S
C635 H609 0.950 . S
C635 C634 1.414 . S
C635 C636 1.374 . S
C636 H610 0.950 . S
C636 C632 1.385 . S
C636 C635 1.374 . S
C637 C634 1.499 . S
C637 C638 1.373 . S
C637 C639 1.389 . S
C638 H611 0.950 . S
C638 C624 1.377 . S
C638 C637 1.373 . S
C639 C623 1.377 . S
C639 C637 1.389 . S
C639 C640 1.524 . S
C640 C639 1.524 . S
C640 C641 1.397 . S
C640 C645 1.363 . S
C641 H612 0.950 . S
C641 C640 1.397 . S
C641 C642 1.334 . S
C642 H613 0.950 . S
C642 C641 1.334 . S
C642 C643 1.287 . S
C643 C642 1.287 . S
C643 C644 1.524 . S
C643 H646 0.999 . S
C644 H614 0.950 . S
C644 C643 1.524 . S
C644 C645 1.415 . S
C645 H615 0.950 . S
C645 C640 1.363 . S
C645 C644 1.415 . S
H646 C643 0.999 . S
H647 C628 0.913 . S
H648 C666 0.951 . S
H649 C668 0.951 . S
H650 C670 0.950 . S
H651 C671 0.950 . S
H652 C673 0.950 . S
H653 C676 0.950 . S
H654 C677 0.950 . S
H655 C679 0.950 . S
H656 C680 0.950 . S
H657 C681 0.951 . S
H658 C683 0.951 . S
H659 C685 0.950 . S
H660 C686 0.950 . S
H661 C688 0.950 . S
H662 C691 0.950 . S
H663 C692 0.950 . S
H664 C694 0.950 . S
H665 C695 0.950 . S
C666 H648 0.951 . S
C666 C667 1.366 . S
C666 C668 1.388 . S
C667 C666 1.366 . S
C667 C671 1.385 . S
C668 H649 0.951 . S
C668 C666 1.388 . S
C668 C669 1.366 . S
C669 C668 1.366 . S
C669 C670 1.414 . S
C669 C672 1.499 . S
C670 H650 0.950 . S
C670 C669 1.414 . S
C670 C671 1.374 . S
C671 H651 0.950 . S
C671 C667 1.385 . S
C671 C670 1.374 . S
C672 C669 1.499 . S
C672 C673 1.373 . S
C672 C674 1.389 . S
C673 H652 0.950 . S
C673 C672 1.373 . S
C673 C689 1.377 . S
C674 C672 1.389 . S
C674 C675 1.524 . S
C674 C688 1.377 . S
C675 C674 1.524 . S
C675 C676 1.397 . S
C675 C680 1.363 . S
C676 H653 0.950 . S
C676 C675 1.397 . S
C676 C677 1.334 . S
C677 H654 0.950 . S
C677 C676 1.334 . S
C677 C678 1.287 . S
C678 C677 1.287 . S
C678 C679 1.524 . S
C678 H697 0.913 . S
C679 H655 0.950 . S
C679 C678 1.524 . S
C679 C680 1.415 . S
C680 H656 0.950 . S
C680 C675 1.363 . S
C680 C679 1.415 . S
C681 H657 0.951 . S
C681 C682 1.366 . S
C681 C683 1.388 . S
C682 C681 1.366 . S
C682 C686 1.385 . S
C683 H658 0.951 . S
C683 C681 1.388 . S
C683 C684 1.366 . S
C684 C683 1.366 . S
C684 C685 1.414 . S
C684 C687 1.499 . S
C685 H659 0.950 . S
C685 C684 1.414 . S
C685 C686 1.374 . S
C686 H660 0.950 . S
C686 C682 1.385 . S
C686 C685 1.374 . S
C687 C684 1.499 . S
C687 C688 1.373 . S
C687 C689 1.389 . S
C688 H661 0.950 . S
C688 C674 1.377 . S
C688 C687 1.373 . S
C689 C673 1.377 . S
C689 C687 1.389 . S
C689 C690 1.524 . S
C690 C689 1.524 . S
C690 C691 1.397 . S
C690 C695 1.363 . S
C691 H662 0.950 . S
C691 C690 1.397 . S
C691 C692 1.334 . S
C692 H663 0.950 . S
C692 C691 1.334 . S
C692 C693 1.287 . S
C693 C692 1.287 . S
C693 C694 1.524 . S
C693 H696 0.999 . S
C694 H664 0.950 . S
C694 C693 1.524 . S
C694 C695 1.415 . S
C695 H665 0.950 . S
C695 C690 1.363 . S
C695 C694 1.415 . S
H696 C693 0.999 . S
H697 C678 0.913 . S
H698 C716 0.951 . S
H699 C718 0.951 . S
H700 C720 0.950 . S
H701 C721 0.950 . S
H702 C723 0.950 . S
H703 C726 0.950 . S
H704 C727 0.956 . S
H705 C729 0.950 . S
H706 C730 0.950 . S
H707 C731 0.951 . S
H708 C733 0.951 . S
H709 C735 0.950 . S
H710 C736 0.950 . S
H711 C738 0.950 . S
H712 C741 0.950 . S
H713 C742 0.950 . S
H714 C744 0.950 . S
H715 C745 0.950 . S
C716 H698 0.951 . S
C716 C717 1.366 . S
C716 C718 1.388 . S
C717 C716 1.366 . S
C717 C721 1.385 . S
C718 H699 0.951 . S
C718 C716 1.388 . S
C718 C719 1.366 . S
C719 C718 1.366 . S
C719 C720 1.414 . S
C719 C722 1.499 . S
C720 H700 0.950 . S
C720 C719 1.414 . S
C720 C721 1.374 . S
C721 H701 0.950 . S
C721 C717 1.385 . S
C721 C720 1.374 . S
C722 C719 1.499 . S
C722 C723 1.373 . S
C722 C724 1.389 . S
C723 H702 0.950 . S
C723 C722 1.373 . S
C723 C739 1.377 . S
C724 C722 1.389 . S
C724 C725 1.524 . S
C724 C738 1.377 . S
C725 C724 1.524 . S
C725 C726 1.397 . S
C725 C730 1.363 . S
C726 H703 0.950 . S
C726 C725 1.397 . S
C726 C727 1.328 1_556 S
C727 H704 0.956 . S
C727 C726 1.328 1_554 S
C727 C728 1.287 . S
C728 C727 1.287 . S
C728 C729 1.524 1_554 S
C728 H747 0.913 . S
C729 H705 0.950 . S
C729 C728 1.524 1_556 S
C729 C730 1.415 . S
C730 H706 0.950 . S
C730 C725 1.363 . S
C730 C729 1.415 . S
C731 H707 0.951 . S
C731 C732 1.366 . S
C731 C733 1.388 1_554 S
C732 C731 1.366 . S
C732 C736 1.385 1_554 S
C733 H708 0.951 . S
C733 C731 1.388 1_556 S
C733 C734 1.366 . S
C734 C733 1.366 . S
C734 C735 1.414 . S
C734 C737 1.499 . S
C735 H709 0.950 . S
C735 C734 1.414 . S
C735 C736 1.374 . S
C736 H710 0.950 . S
C736 C732 1.385 1_556 S
C736 C735 1.374 . S
C737 C734 1.499 . S
C737 C738 1.373 . S
C737 C739 1.389 . S
C738 H711 0.950 . S
C738 C724 1.377 . S
C738 C737 1.373 . S
C739 C723 1.377 . S
C739 C737 1.389 . S
C739 C740 1.524 . S
C740 C739 1.524 . S
C740 C741 1.397 . S
C740 C745 1.363 . S
C741 H712 0.950 . S
C741 C740 1.397 . S
C741 C742 1.334 . S
C742 H713 0.950 . S
C742 C741 1.334 . S
C742 C743 1.287 . S
C743 C742 1.287 . S
C743 C744 1.524 . S
C743 H746 0.999 . S
C744 H714 0.950 . S
C744 C743 1.524 . S
C744 C745 1.415 . S
C745 H715 0.950 . S
C745 C740 1.363 . S
C745 C744 1.415 . S
H746 C743 0.999 . S
H747 C728 0.913 . S
H748 C766 0.951 . S
H749 C768 0.951 . S
H750 C770 0.950 . S
H751 C771 0.950 . S
H752 C773 0.950 . S
H753 C776 0.950 . S
H754 C777 0.950 . S
H755 C779 0.950 . S
H756 C780 0.950 . S
H757 C781 0.951 . S
H758 C783 0.951 . S
H759 C785 0.950 . S
H760 C786 0.950 . S
H761 C788 0.950 . S
H762 C791 0.950 . S
H763 C792 0.950 . S
H764 C794 0.950 . S
H765 C795 0.959 . S
C766 H748 0.951 . S
C766 C767 1.366 . S
C766 C768 1.388 . S
C767 C766 1.366 . S
C767 C771 1.385 . S
C768 H749 0.951 . S
C768 C766 1.388 . S
C768 C769 1.366 . S
C769 C768 1.366 . S
C769 C770 1.414 . S
C769 C772 1.499 . S
C770 H750 0.950 . S
C770 C769 1.414 . S
C770 C771 1.374 . S
C771 H751 0.950 . S
C771 C767 1.385 . S
C771 C770 1.374 . S
C772 C769 1.499 . S
C772 C773 1.373 . S
C772 C774 1.389 . S
C773 H752 0.950 . S
C773 C772 1.373 . S
C773 C789 1.377 . S
C774 C772 1.389 . S
C774 C775 1.524 . S
C774 C788 1.377 . S
C775 C774 1.524 . S
C775 C776 1.397 . S
C775 C780 1.363 . S
C776 H753 0.950 . S
C776 C775 1.397 . S
C776 C777 1.334 . S
C777 H754 0.950 . S
C777 C776 1.334 . S
C777 C778 1.287 . S
C778 C777 1.287 . S
C778 C779 1.524 . S
C778 H797 0.913 . S
C779 H755 0.950 . S
C779 C778 1.524 . S
C779 C780 1.415 . S
C780 H756 0.950 . S
C780 C775 1.363 . S
C780 C779 1.415 . S
C781 H757 0.951 . S
C781 C782 1.366 . S
C781 C783 1.388 . S
C782 C781 1.366 . S
C782 C786 1.385 . S
C783 H758 0.951 . S
C783 C781 1.388 . S
C783 C784 1.366 . S
C784 C783 1.366 . S
C784 C785 1.414 . S
C784 C787 1.499 . S
C785 H759 0.950 . S
C785 C784 1.414 . S
C785 C786 1.374 . S
C786 H760 0.950 . S
C786 C782 1.385 . S
C786 C785 1.374 . S
C787 C784 1.499 . S
C787 C788 1.373 . S
C787 C789 1.389 . S
C788 H761 0.950 . S
C788 C774 1.377 . S
C788 C787 1.373 . S
C789 C773 1.377 . S
C789 C787 1.389 . S
C789 C790 1.524 . S
C790 C789 1.524 . S
C790 C791 1.397 . S
C790 C795 1.387 . S
C791 H762 0.950 . S
C791 C790 1.397 . S
C791 C792 1.334 1_655 S
C792 H763 0.950 . S
C792 C791 1.334 1_455 S
C792 C793 1.287 . S
C793 C792 1.287 . S
C793 C794 1.524 . S
C793 H796 0.999 . S
C794 H764 0.950 . S
C794 C793 1.524 . S
C794 C795 1.383 1_455 S
C795 H765 0.959 . S
C795 C790 1.387 . S
C795 C794 1.383 1_655 S
H796 C793 0.999 . S
H797 C778 0.913 . S
H798 C816 0.951 . S
H799 C818 0.951 . S
H800 C820 0.950 . S
H801 C821 0.950 . S
H802 C823 0.950 . S
H803 C826 0.950 . S
H804 C827 0.950 . S
H805 C829 0.950 . S
H806 C830 0.950 . S
H807 C831 0.951 . S
H808 C833 0.951 . S
H809 C835 0.950 . S
H810 C836 0.950 . S
H811 C838 0.950 . S
H812 C841 0.950 . S
H813 C842 0.950 . S
H814 C844 0.950 . S
H815 C845 0.950 . S
C816 H798 0.951 . S
C816 C817 1.366 . S
C816 C818 1.388 . S
C817 C816 1.366 . S
C817 C821 1.385 . S
C818 H799 0.951 . S
C818 C816 1.388 . S
C818 C819 1.366 . S
C819 C818 1.366 . S
C819 C820 1.414 . S
C819 C822 1.499 . S
C820 H800 0.950 . S
C820 C819 1.414 . S
C820 C821 1.374 . S
C821 H801 0.950 . S
C821 C817 1.385 . S
C821 C820 1.374 . S
C822 C819 1.499 . S
C822 C823 1.373 . S
C822 C824 1.389 . S
C823 H802 0.950 . S
C823 C822 1.373 . S
C823 C839 1.377 . S
C824 C822 1.389 . S
C824 C825 1.524 . S
C824 C838 1.377 . S
C825 C824 1.524 . S
C825 C826 1.397 . S
C825 C830 1.363 . S
C826 H803 0.950 . S
C826 C825 1.397 . S
C826 C827 1.334 . S
C827 H804 0.950 . S
C827 C826 1.334 . S
C827 C828 1.287 . S
C828 C827 1.287 . S
C828 C829 1.524 . S
C828 H847 0.913 . S
C829 H805 0.950 . S
C829 C828 1.524 . S
C829 C830 1.415 . S
C830 H806 0.950 . S
C830 C825 1.363 . S
C830 C829 1.415 . S
C831 H807 0.951 . S
C831 C832 1.366 . S
C831 C833 1.388 . S
C832 C831 1.366 . S
C832 C836 1.385 . S
C833 H808 0.951 . S
C833 C831 1.388 . S
C833 C834 1.366 . S
C834 C833 1.366 . S
C834 C835 1.414 . S
C834 C837 1.499 . S
C835 H809 0.950 . S
C835 C834 1.414 . S
C835 C836 1.374 . S
C836 H810 0.950 . S
C836 C832 1.385 . S
C836 C835 1.374 . S
C837 C834 1.499 . S
C837 C838 1.373 . S
C837 C839 1.389 . S
C838 H811 0.950 . S
C838 C824 1.377 . S
C838 C837 1.373 . S
C839 C823 1.377 . S
C839 C837 1.389 . S
C839 C840 1.524 . S
C840 C839 1.524 . S
C840 C841 1.397 . S
C840 C845 1.363 . S
C841 H812 0.950 . S
C841 C840 1.397 . S
C841 C842 1.334 . S
C842 H813 0.950 . S
C842 C841 1.334 . S
C842 C843 1.287 . S
C843 C842 1.287 . S
C843 C844 1.524 . S
C843 H846 0.999 . S
C844 H814 0.950 . S
C844 C843 1.524 . S
C844 C845 1.415 . S
C845 H815 0.950 . S
C845 C840 1.363 . S
C845 C844 1.415 . S
H846 C843 0.999 . S
H847 C828 0.913 . S
H848 C866 0.951 . S
H849 C868 0.951 . S
H850 C870 0.950 . S
H851 C871 0.950 . S
H852 C873 0.950 . S
H853 C876 0.950 . S
H854 C877 0.950 . S
H855 C879 0.950 . S
H856 C880 0.950 . S
H857 C881 0.951 . S
H858 C883 0.951 . S
H859 C885 0.950 . S
H860 C886 0.950 . S
H861 C888 0.950 . S
H862 C891 0.950 . S
H863 C892 0.950 . S
H864 C894 0.950 . S
H865 C895 0.950 . S
C866 H848 0.951 . S
C866 C867 1.366 . S
C866 C868 1.388 . S
C867 C866 1.366 . S
C867 C871 1.385 . S
C868 H849 0.951 . S
C868 C866 1.388 . S
C868 C869 1.366 . S
C869 C868 1.366 . S
C869 C870 1.414 . S
C869 C872 1.499 . S
C870 H850 0.950 . S
C870 C869 1.414 . S
C870 C871 1.374 . S
C871 H851 0.950 . S
C871 C867 1.385 . S
C871 C870 1.374 . S
C872 C869 1.499 . S
C872 C873 1.373 . S
C872 C874 1.389 . S
C873 H852 0.950 . S
C873 C872 1.373 . S
C873 C889 1.377 . S
C874 C872 1.389 . S
C874 C875 1.524 . S
C874 C888 1.377 . S
C875 C874 1.524 . S
C875 C876 1.397 . S
C875 C880 1.363 . S
C876 H853 0.950 . S
C876 C875 1.397 . S
C876 C877 1.334 . S
C877 H854 0.950 . S
C877 C876 1.334 . S
C877 C878 1.287 . S
C878 C877 1.287 . S
C878 C879 1.524 . S
C878 H897 0.913 . S
C879 H855 0.950 . S
C879 C878 1.524 . S
C879 C880 1.415 . S
C880 H856 0.950 . S
C880 C875 1.363 . S
C880 C879 1.415 . S
C881 H857 0.951 . S
C881 C882 1.366 . S
C881 C883 1.388 . S
C882 C881 1.366 . S
C882 C886 1.385 . S
C883 H858 0.951 . S
C883 C881 1.388 . S
C883 C884 1.366 . S
C884 C883 1.366 . S
C884 C885 1.414 . S
C884 C887 1.499 . S
C885 H859 0.950 . S
C885 C884 1.414 . S
C885 C886 1.374 . S
C886 H860 0.950 . S
C886 C882 1.385 . S
C886 C885 1.374 . S
C887 C884 1.499 . S
C887 C888 1.373 . S
C887 C889 1.389 . S
C888 H861 0.950 . S
C888 C874 1.377 . S
C888 C887 1.373 . S
C889 C873 1.377 . S
C889 C887 1.389 . S
C889 C890 1.524 . S
C890 C889 1.524 . S
C890 C891 1.397 . S
C890 C895 1.363 . S
C891 H862 0.950 . S
C891 C890 1.397 . S
C891 C892 1.334 . S
C892 H863 0.950 . S
C892 C891 1.334 . S
C892 C893 1.287 . S
C893 C892 1.287 . S
C893 C894 1.524 . S
C893 H896 0.999 . S
C894 H864 0.950 . S
C894 C893 1.524 . S
C894 C895 1.415 . S
C895 H865 0.950 . S
C895 C890 1.363 . S
C895 C894 1.415 . S
H896 C893 0.999 . S
H897 C878 0.913 . S
H898 C916 0.951 . S
H899 C918 0.951 . S
H900 C920 0.950 . S
H901 C921 0.950 . S
H902 C923 0.950 . S
H903 C926 0.950 . S
H904 C927 0.950 . S
H905 C929 0.950 . S
H906 C930 0.950 . S
H907 C931 0.951 . S
H908 C933 0.951 . S
H909 C935 0.950 . S
H910 C936 0.950 . S
H911 C938 0.950 . S
H912 C941 0.950 . S
H913 C942 0.950 . S
H914 C944 0.950 . S
H915 C945 0.950 . S
C916 H898 0.951 . S
C916 C917 1.366 . S
C916 C918 1.388 . S
C917 C916 1.366 . S
C917 C921 1.385 . S
C918 H899 0.951 . S
C918 C916 1.388 . S
C918 C919 1.366 . S
C919 C918 1.366 . S
C919 C920 1.414 . S
C919 C922 1.499 . S
C920 H900 0.950 . S
C920 C919 1.414 . S
C920 C921 1.374 . S
C921 H901 0.950 . S
C921 C917 1.385 . S
C921 C920 1.374 . S
C922 C919 1.499 . S
C922 C923 1.373 . S
C922 C924 1.389 . S
C923 H902 0.950 . S
C923 C922 1.373 . S
C923 C939 1.377 . S
C924 C922 1.389 . S
C924 C925 1.524 . S
C924 C938 1.377 . S
C925 C924 1.524 . S
C925 C926 1.397 . S
C925 C930 1.363 . S
C926 H903 0.950 . S
C926 C925 1.397 . S
C926 C927 1.334 . S
C927 H904 0.950 . S
C927 C926 1.334 . S
C927 C928 1.287 . S
C928 C927 1.287 . S
C928 C929 1.524 . S
C928 H947 0.913 . S
C929 H905 0.950 . S
C929 C928 1.524 . S
C929 C930 1.415 . S
C930 H906 0.950 . S
C930 C925 1.363 . S
C930 C929 1.415 . S
C931 H907 0.951 . S
C931 C932 1.366 . S
C931 C933 1.388 . S
C932 C931 1.366 . S
C932 C936 1.385 . S
C933 H908 0.951 . S
C933 C931 1.388 . S
C933 C934 1.366 . S
C934 C933 1.366 . S
C934 C935 1.414 . S
C934 C937 1.499 . S
C935 H909 0.950 . S
C935 C934 1.414 . S
C935 C936 1.374 . S
C936 H910 0.950 . S
C936 C932 1.385 . S
C936 C935 1.374 . S
C937 C934 1.499 . S
C937 C938 1.373 . S
C937 C939 1.389 . S
C938 H911 0.950 . S
C938 C924 1.377 . S
C938 C937 1.373 . S
C939 C923 1.377 . S
C939 C937 1.389 . S
C939 C940 1.524 . S
C940 C939 1.524 . S
C940 C941 1.397 . S
C940 C945 1.363 . S
C941 H912 0.950 . S
C941 C940 1.397 . S
C941 C942 1.334 . S
C942 H913 0.950 . S
C942 C941 1.334 . S
C942 C943 1.287 . S
C943 C942 1.287 . S
C943 C944 1.524 . S
C943 H946 0.999 . S
C944 H914 0.950 . S
C944 C943 1.524 . S
C944 C945 1.415 . S
C945 H915 0.950 . S
C945 C940 1.363 . S
C945 C944 1.415 . S
H946 C943 0.999 . S
H947 C928 0.913 . S
H948 C966 0.951 . S
H949 C968 0.951 . S
H950 C970 0.950 . S
H951 C971 0.950 . S
H952 C973 0.950 . S
H953 C976 0.950 . S
H954 C977 0.950 . S
H955 C979 0.950 . S
H956 C980 0.950 . S
H957 C981 0.951 . S
H958 C983 0.951 . S
H959 C985 0.950 . S
H960 C986 0.950 . S
H961 C988 0.950 . S
H962 C991 0.950 . S
H963 C992 0.950 . S
H964 C994 0.950 . S
H965 C995 0.950 . S
C966 H948 0.951 . S
C966 C967 1.366 . S
C966 C968 1.388 . S
C967 C966 1.366 . S
C967 C971 1.385 . S
C968 H949 0.951 . S
C968 C966 1.388 . S
C968 C969 1.366 . S
C969 C968 1.366 . S
C969 C970 1.414 . S
C969 C972 1.499 . S
C970 H950 0.950 . S
C970 C969 1.414 . S
C970 C971 1.374 . S
C971 H951 0.950 . S
C971 C967 1.385 . S
C971 C970 1.374 . S
C972 C969 1.499 . S
C972 C973 1.373 . S
C972 C974 1.389 . S
C973 H952 0.950 . S
C973 C972 1.373 . S
C973 C989 1.377 . S
C974 C972 1.389 . S
C974 C975 1.524 . S
C974 C988 1.377 . S
C975 C974 1.524 . S
C975 C976 1.397 . S
C975 C980 1.363 . S
C976 H953 0.950 . S
C976 C975 1.397 . S
C976 C977 1.334 . S
C977 H954 0.950 . S
C977 C976 1.334 . S
C977 C978 1.287 . S
C978 C977 1.287 . S
C978 C979 1.524 . S
C978 H997 0.913 . S
C979 H955 0.950 . S
C979 C978 1.524 . S
C979 C980 1.415 . S
C980 H956 0.950 . S
C980 C975 1.363 . S
C980 C979 1.415 . S
C981 H957 0.951 . S
C981 C982 1.366 . S
C981 C983 1.388 . S
C982 C981 1.366 . S
C982 C986 1.385 . S
C983 H958 0.951 . S
C983 C981 1.388 . S
C983 C984 1.366 . S
C984 C983 1.366 . S
C984 C985 1.414 . S
C984 C987 1.499 . S
C985 H959 0.950 . S
C985 C984 1.414 . S
C985 C986 1.374 . S
C986 H960 0.950 . S
C986 C982 1.385 . S
C986 C985 1.374 . S
C987 C984 1.499 . S
C987 C988 1.373 . S
C987 C989 1.389 . S
C988 H961 0.950 . S
C988 C974 1.377 . S
C988 C987 1.373 . S
C989 C973 1.377 . S
C989 C987 1.389 . S
C989 C990 1.524 . S
C990 C989 1.524 . S
C990 C991 1.397 . S
C990 C995 1.363 . S
C991 H962 0.950 . S
C991 C990 1.397 . S
C991 C992 1.334 . S
C992 H963 0.950 . S
C992 C991 1.334 . S
C992 C993 1.287 . S
C993 C992 1.287 . S
C993 C994 1.524 . S
C993 H996 0.999 . S
C994 H964 0.950 . S
C994 C993 1.524 . S
C994 C995 1.415 . S
C995 H965 0.950 . S
C995 C990 1.363 . S
C995 C994 1.415 . S
H996 C993 0.999 . S
H997 C978 0.913 . S
H998 C1016 0.951 . S
H999 C1018 0.951 . S
H1000 C1020 0.950 . S
H1001 C1021 0.950 . S
H1002 C1023 0.950 . S
H1003 C1026 0.950 . S
H1004 C1027 0.950 . S
H1005 C1029 0.950 . S
H1006 C1030 0.950 . S
H1007 C1031 0.951 . S
H1008 C1033 0.951 . S
H1009 C1035 0.950 . S
H1010 C1036 0.950 . S
H1011 C1038 0.950 . S
H1012 C1041 0.950 . S
H1013 C1042 0.950 . S
H1014 C1044 0.950 . S
H1015 C1045 0.950 . S
C1016 H998 0.951 . S
C1016 C1017 1.366 . S
C1016 C1018 1.388 . S
C1017 C1016 1.366 . S
C1017 C1021 1.385 . S
C1018 H999 0.951 . S
C1018 C1016 1.388 . S
C1018 C1019 1.366 . S
C1019 C1018 1.366 . S
C1019 C1020 1.414 . S
C1019 C1022 1.499 . S
C1020 H1000 0.950 . S
C1020 C1019 1.414 . S
C1020 C1021 1.374 . S
C1021 H1001 0.950 . S
C1021 C1017 1.385 . S
C1021 C1020 1.374 . S
C1022 C1019 1.499 . S
C1022 C1023 1.373 . S
C1022 C1024 1.389 . S
C1023 H1002 0.950 . S
C1023 C1022 1.373 . S
C1023 C1039 1.377 . S
C1024 C1022 1.389 . S
C1024 C1025 1.524 . S
C1024 C1038 1.377 . S
C1025 C1024 1.524 . S
C1025 C1026 1.397 . S
C1025 C1030 1.363 . S
C1026 H1003 0.950 . S
C1026 C1025 1.397 . S
C1026 C1027 1.334 . S
C1027 H1004 0.950 . S
C1027 C1026 1.334 . S
C1027 C1028 1.287 . S
C1028 C1027 1.287 . S
C1028 C1029 1.524 . S
C1028 H1047 0.913 . S
C1029 H1005 0.950 . S
C1029 C1028 1.524 . S
C1029 C1030 1.415 . S
C1030 H1006 0.950 . S
C1030 C1025 1.363 . S
C1030 C1029 1.415 . S
C1031 H1007 0.951 . S
C1031 C1032 1.366 . S
C1031 C1033 1.388 . S
C1032 C1031 1.366 . S
C1032 C1036 1.385 . S
C1033 H1008 0.951 . S
C1033 C1031 1.388 . S
C1033 C1034 1.366 . S
C1034 C1033 1.366 . S
C1034 C1035 1.414 . S
C1034 C1037 1.499 . S
C1035 H1009 0.950 . S
C1035 C1034 1.414 . S
C1035 C1036 1.374 . S
C1036 H1010 0.950 . S
C1036 C1032 1.385 . S
C1036 C1035 1.374 . S
C1037 C1034 1.499 . S
C1037 C1038 1.373 . S
C1037 C1039 1.389 . S
C1038 H1011 0.950 . S
C1038 C1024 1.377 . S
C1038 C1037 1.373 . S
C1039 C1023 1.377 . S
C1039 C1037 1.389 . S
C1039 C1040 1.524 . S
C1040 C1039 1.524 . S
C1040 C1041 1.397 . S
C1040 C1045 1.363 . S
C1041 H1012 0.950 . S
C1041 C1040 1.397 . S
C1041 C1042 1.334 . S
C1042 H1013 0.950 . S
C1042 C1041 1.334 . S
C1042 C1043 1.287 . S
C1043 C1042 1.287 . S
C1043 C1044 1.524 . S
C1043 H1046 0.999 . S
C1044 H1014 0.950 . S
C1044 C1043 1.524 . S
C1044 C1045 1.415 . S
C1045 H1015 0.950 . S
C1045 C1040 1.363 . S
C1045 C1044 1.415 . S
H1046 C1043 0.999 . S
H1047 C1028 0.913 . S
H1048 C1066 0.951 . S
H1049 C1068 0.951 . S
H1050 C1070 0.950 . S
H1051 C1071 0.950 . S
H1052 C1073 0.950 . S
H1053 C1076 0.950 . S
H1054 C1077 0.950 . S
H1055 C1079 0.950 . S
H1056 C1080 0.950 . S
H1057 C1081 0.951 . S
H1058 C1083 0.951 . S
H1059 C1085 0.950 . S
H1060 C1086 0.950 . S
H1061 C1088 0.950 . S
H1062 C1091 0.950 . S
H1063 C1092 0.950 . S
H1064 C1094 0.950 . S
H1065 C1095 0.950 . S
C1066 H1048 0.951 . S
C1066 C1067 1.366 . S
C1066 C1068 1.388 . S
C1067 C1066 1.366 . S
C1067 C1071 1.385 . S
C1068 H1049 0.951 . S
C1068 C1066 1.388 . S
C1068 C1069 1.366 . S
C1069 C1068 1.366 . S
C1069 C1070 1.414 . S
C1069 C1072 1.499 . S
C1070 H1050 0.950 . S
C1070 C1069 1.414 . S
C1070 C1071 1.374 . S
C1071 H1051 0.950 . S
C1071 C1067 1.385 . S
C1071 C1070 1.374 . S
C1072 C1069 1.499 . S
C1072 C1073 1.373 . S
C1072 C1074 1.389 . S
C1073 H1052 0.950 . S
C1073 C1072 1.373 . S
C1073 C1089 1.377 . S
C1074 C1072 1.389 . S
C1074 C1075 1.524 . S
C1074 C1088 1.377 . S
C1075 C1074 1.524 . S
C1075 C1076 1.397 . S
C1075 C1080 1.363 . S
C1076 H1053 0.950 . S
C1076 C1075 1.397 . S
C1076 C1077 1.334 . S
C1077 H1054 0.950 . S
C1077 C1076 1.334 . S
C1077 C1078 1.287 . S
C1078 C1077 1.287 . S
C1078 C1079 1.524 . S
C1078 H1097 0.913 . S
C1079 H1055 0.950 . S
C1079 C1078 1.524 . S
C1079 C1080 1.415 . S
C1080 H1056 0.950 . S
C1080 C1075 1.363 . S
C1080 C1079 1.415 . S
C1081 H1057 0.951 . S
C1081 C1082 1.366 . S
C1081 C1083 1.388 . S
C1082 C1081 1.366 . S
C1082 C1086 1.385 . S
C1083 H1058 0.951 . S
C1083 C1081 1.388 . S
C1083 C1084 1.366 . S
C1084 C1083 1.366 . S
C1084 C1085 1.414 . S
C1084 C1087 1.499 . S
C1085 H1059 0.950 . S
C1085 C1084 1.414 . S
C1085 C1086 1.374 . S
C1086 H1060 0.950 . S
C1086 C1082 1.385 . S
C1086 C1085 1.374 . S
C1087 C1084 1.499 . S
C1087 C1088 1.373 . S
C1087 C1089 1.389 . S
C1088 H1061 0.950 . S
C1088 C1074 1.377 . S
C1088 C1087 1.373 . S
C1089 C1073 1.377 . S
C1089 C1087 1.389 . S
C1089 C1090 1.524 . S
C1090 C1089 1.524 . S
C1090 C1091 1.397 . S
C1090 C1095 1.363 . S
C1091 H1062 0.950 . S
C1091 C1090 1.397 . S
C1091 C1092 1.334 . S
C1092 H1063 0.950 . S
C1092 C1091 1.334 . S
C1092 C1093 1.287 . S
C1093 C1092 1.287 . S
C1093 C1094 1.524 . S
C1093 H1096 0.999 . S
C1094 H1064 0.950 . S
C1094 C1093 1.524 . S
C1094 C1095 1.415 . S
C1095 H1065 0.950 . S
C1095 C1090 1.363 . S
C1095 C1094 1.415 . S
H1096 C1093 0.999 . S
H1097 C1078 0.913 . S
H1098 C1116 0.951 . S
H1099 C1118 0.951 . S
H1100 C1120 0.950 . S
H1101 C1121 0.950 . S
H1102 C1123 0.950 . S
H1103 C1126 0.950 . S
H1104 C1127 0.950 . S
H1105 C1129 0.950 . S
H1106 C1130 0.950 . S
H1107 C1131 0.951 . S
H1108 C1133 0.951 . S
H1109 C1135 0.950 . S
H1110 C1136 0.950 . S
H1111 C1138 0.950 . S
H1112 C1141 0.950 . S
H1113 C1142 0.950 . S
H1114 C1144 0.950 . S
H1115 C1145 0.950 . S
C1116 H1098 0.951 . S
C1116 C1117 1.366 . S
C1116 C1118 1.388 . S
C1117 C1116 1.366 . S
C1117 C1121 1.385 . S
C1118 H1099 0.951 . S
C1118 C1116 1.388 . S
C1118 C1119 1.366 . S
C1119 C1118 1.366 . S
C1119 C1120 1.414 . S
C1119 C1122 1.499 . S
C1120 H1100 0.950 . S
C1120 C1119 1.414 . S
C1120 C1121 1.374 . S
C1121 H1101 0.950 . S
C1121 C1117 1.385 . S
C1121 C1120 1.374 . S
C1122 C1119 1.499 . S
C1122 C1123 1.373 . S
C1122 C1124 1.389 . S
C1123 H1102 0.950 . S
C1123 C1122 1.373 . S
C1123 C1139 1.377 . S
C1124 C1122 1.389 . S
C1124 C1125 1.524 . S
C1124 C1138 1.377 . S
C1125 C1124 1.524 . S
C1125 C1126 1.397 . S
C1125 C1130 1.363 . S
C1126 H1103 0.950 . S
C1126 C1125 1.397 . S
C1126 C1127 1.334 . S
C1127 H1104 0.950 . S
C1127 C1126 1.334 . S
C1127 C1128 1.287 . S
C1128 C1127 1.287 . S
C1128 C1129 1.524 . S
C1128 H1147 0.913 . S
C1129 H1105 0.950 . S
C1129 C1128 1.524 . S
C1129 C1130 1.415 . S
C1130 H1106 0.950 . S
C1130 C1125 1.363 . S
C1130 C1129 1.415 . S
C1131 H1107 0.951 . S
C1131 C1132 1.366 . S
C1131 C1133 1.388 . S
C1132 C1131 1.366 . S
C1132 C1136 1.385 . S
C1133 H1108 0.951 . S
C1133 C1131 1.388 . S
C1133 C1134 1.366 . S
C1134 C1133 1.366 . S
C1134 C1135 1.414 . S
C1134 C1137 1.499 . S
C1135 H1109 0.950 . S
C1135 C1134 1.414 . S
C1135 C1136 1.374 . S
C1136 H1110 0.950 . S
C1136 C1132 1.385 . S
C1136 C1135 1.374 . S
C1137 C1134 1.499 . S
C1137 C1138 1.373 . S
C1137 C1139 1.389 . S
C1138 H1111 0.950 . S
C1138 C1124 1.377 . S
C1138 C1137 1.373 . S
C1139 C1123 1.377 . S
C1139 C1137 1.389 . S
C1139 C1140 1.524 . S
C1140 C1139 1.524 . S
C1140 C1141 1.397 . S
C1140 C1145 1.363 . S
C1141 H1112 0.950 . S
C1141 C1140 1.397 . S
C1141 C1142 1.334 . S
C1142 H1113 0.950 . S
C1142 C1141 1.334 . S
C1142 C1143 1.287 . S
C1143 C1142 1.287 . S
C1143 C1144 1.524 . S
C1143 H1146 0.999 . S
C1144 H1114 0.950 . S
C1144 C1143 1.524 . S
C1144 C1145 1.415 . S
C1145 H1115 0.950 . S
C1145 C1140 1.363 . S
C1145 C1144 1.415 . S
H1146 C1143 0.999 . S
H1147 C1128 0.913 . S
H1148 C1166 0.951 . S
H1149 C1168 0.951 . S
H1150 C1170 0.950 . S
H1151 C1171 0.950 . S
H1152 C1173 0.950 . S
H1153 C1176 0.950 . S
H1154 C1177 0.950 . S
H1155 C1179 0.950 . S
H1156 C1180 0.950 . S
H1157 C1181 0.951 . S
H1158 C1183 0.951 . S
H1159 C1185 0.950 . S
H1160 C1186 0.950 . S
H1161 C1188 0.950 . S
H1162 C1191 0.950 . S
H1163 C1192 0.950 . S
H1164 C1194 0.950 1_556 S
H1165 C1195 0.950 . S
C1166 H1148 0.951 . S
C1166 C1167 1.366 . S
C1166 C1168 1.388 . S
C1167 C1166 1.366 . S
C1167 C1171 1.385 . S
C1168 H1149 0.951 . S
C1168 C1166 1.388 . S
C1168 C1169 1.366 . S
C1169 C1168 1.366 . S
C1169 C1170 1.414 . S
C1169 C1172 1.499 . S
C1170 H1150 0.950 . S
C1170 C1169 1.414 . S
C1170 C1171 1.374 . S
C1171 H1151 0.950 . S
C1171 C1167 1.385 . S
C1171 C1170 1.374 . S
C1172 C1169 1.499 . S
C1172 C1173 1.373 . S
C1172 C1174 1.389 . S
C1173 H1152 0.950 . S
C1173 C1172 1.373 . S
C1173 C1189 1.377 . S
C1174 C1172 1.389 . S
C1174 C1175 1.524 . S
C1174 C1188 1.377 . S
C1175 C1174 1.524 . S
C1175 C1176 1.397 . S
C1175 C1180 1.363 . S
C1176 H1153 0.950 . S
C1176 C1175 1.397 . S
C1176 C1177 1.334 . S
C1177 H1154 0.950 . S
C1177 C1176 1.334 . S
C1177 C1178 1.287 . S
C1178 C1177 1.287 . S
C1178 C1179 1.524 . S
C1178 H1197 0.913 . S
C1179 H1155 0.950 . S
C1179 C1178 1.524 . S
C1179 C1180 1.415 . S
C1180 H1156 0.950 . S
C1180 C1175 1.363 . S
C1180 C1179 1.415 . S
C1181 H1157 0.951 . S
C1181 C1182 1.366 . S
C1181 C1183 1.388 . S
C1182 C1181 1.366 . S
C1182 C1186 1.385 . S
C1183 H1158 0.951 . S
C1183 C1181 1.388 . S
C1183 C1184 1.366 . S
C1184 C1183 1.366 . S
C1184 C1185 1.414 . S
C1184 C1187 1.499 . S
C1185 H1159 0.950 . S
C1185 C1184 1.414 . S
C1185 C1186 1.374 . S
C1186 H1160 0.950 . S
C1186 C1182 1.385 . S
C1186 C1185 1.374 . S
C1187 C1184 1.499 . S
C1187 C1188 1.373 . S
C1187 C1189 1.389 . S
C1188 H1161 0.950 . S
C1188 C1174 1.377 . S
C1188 C1187 1.373 . S
C1189 C1173 1.377 . S
C1189 C1187 1.389 . S
C1189 C1190 1.524 . S
C1190 C1189 1.524 . S
C1190 C1191 1.397 . S
C1190 C1195 1.363 . S
C1191 H1162 0.950 . S
C1191 C1190 1.397 . S
C1191 C1192 1.334 . S
C1192 H1163 0.950 . S
C1192 C1191 1.334 . S
C1192 C1193 1.287 1_554 S
C1193 C1192 1.287 1_556 S
C1193 C1194 1.524 1_556 S
C1193 H1196 0.999 . S
C1194 H1164 0.950 1_554 S
C1194 C1193 1.524 1_554 S
C1194 C1195 1.415 . S
C1195 H1165 0.950 . S
C1195 C1190 1.363 . S
C1195 C1194 1.415 . S
H1196 C1193 0.999 . S
H1197 C1178 0.913 . S
H1198 C1216 0.951 . S
H1199 C1218 0.951 . S
H1200 C1220 0.950 . S
H1201 C1221 0.950 . S
H1202 C1223 0.950 . S
H1203 C1226 0.950 . S
H1204 C1227 0.950 . S
H1205 C1229 0.950 . S
H1206 C1230 0.950 . S
H1207 C1231 0.951 . S
H1208 C1233 0.951 . S
H1209 C1235 0.950 . S
H1210 C1236 0.950 . S
H1211 C1238 0.950 . S
H1212 C1241 0.950 . S
H1213 C1242 0.950 . S
H1214 C1244 0.950 . S
H1215 C1245 0.950 . S
C1216 H1198 0.951 . S
C1216 C1217 1.366 . S
C1216 C1218 1.388 . S
C1217 C1216 1.366 . S
C1217 C1221 1.385 . S
C1218 H1199 0.951 . S
C1218 C1216 1.388 . S
C1218 C1219 1.366 . S
C1219 C1218 1.366 . S
C1219 C1220 1.414 . S
C1219 C1222 1.499 . S
C1220 H1200 0.950 . S
C1220 C1219 1.414 . S
C1220 C1221 1.374 . S
C1221 H1201 0.950 . S
C1221 C1217 1.385 . S
C1221 C1220 1.374 . S
C1222 C1219 1.499 . S
C1222 C1223 1.373 . S
C1222 C1224 1.389 . S
C1223 H1202 0.950 . S
C1223 C1222 1.373 . S
C1223 C1239 1.377 . S
C1224 C1222 1.389 . S
C1224 C1225 1.524 . S
C1224 C1238 1.377 . S
C1225 C1224 1.524 . S
C1225 C1226 1.397 . S
C1225 C1230 1.363 . S
C1226 H1203 0.950 . S
C1226 C1225 1.397 . S
C1226 C1227 1.334 . S
C1227 H1204 0.950 . S
C1227 C1226 1.334 . S
C1227 C1228 1.287 . S
C1228 C1227 1.287 . S
C1228 C1229 1.524 . S
C1228 H1247 0.913 . S
C1229 H1205 0.950 . S
C1229 C1228 1.524 . S
C1229 C1230 1.415 . S
C1230 H1206 0.950 . S
C1230 C1225 1.363 . S
C1230 C1229 1.415 . S
C1231 H1207 0.951 . S
C1231 C1232 1.366 . S
C1231 C1233 1.388 . S
C1232 C1231 1.366 . S
C1232 C1236 1.385 . S
C1233 H1208 0.951 . S
C1233 C1231 1.388 . S
C1233 C1234 1.366 . S
C1234 C1233 1.366 . S
C1234 C1235 1.414 . S
C1234 C1237 1.499 . S
C1235 H1209 0.950 . S
C1235 C1234 1.414 . S
C1235 C1236 1.374 . S
C1236 H1210 0.950 . S
C1236 C1232 1.385 . S
C1236 C1235 1.374 . S
C1237 C1234 1.499 . S
C1237 C1238 1.373 . S
C1237 C1239 1.389 . S
C1238 H1211 0.950 . S
C1238 C1224 1.377 . S
C1238 C1237 1.373 . S
C1239 C1223 1.377 . S
C1239 C1237 1.389 . S
C1239 C1240 1.524 . S
C1240 C1239 1.524 . S
C1240 C1241 1.397 . S
C1240 C1245 1.363 . S
C1241 H1212 0.950 . S
C1241 C1240 1.397 . S
C1241 C1242 1.334 . S
C1242 H1213 0.950 . S
C1242 C1241 1.334 . S
C1242 C1243 1.287 . S
C1243 C1242 1.287 . S
C1243 C1244 1.524 . S
C1243 H1246 0.999 . S
C1244 H1214 0.950 . S
C1244 C1243 1.524 . S
C1244 C1245 1.415 . S
C1245 H1215 0.950 . S
C1245 C1240 1.363 . S
C1245 C1244 1.415 . S
H1246 C1243 0.999 . S
H1247 C1228 0.913 . S
H1248 C1266 0.951 . S
H1249 C1268 0.951 . S
H1250 C1270 0.950 . S
H1251 C1271 0.950 . S
H1252 C1273 0.950 . S
H1253 C1276 0.950 . S
H1254 C1277 0.950 . S
H1255 C1279 0.950 . S
H1256 C1280 0.950 . S
H1257 C1281 0.951 . S
H1258 C1283 0.951 . S
H1259 C1285 0.950 . S
H1260 C1286 0.950 . S
H1261 C1288 0.950 . S
H1262 C1291 0.950 . S
H1263 C1292 0.950 . S
H1264 C1294 0.950 . S
H1265 C1295 0.950 . S
C1266 H1248 0.951 . S
C1266 C1267 1.366 . S
C1266 C1268 1.388 . S
C1267 C1266 1.366 . S
C1267 C1271 1.385 . S
C1268 H1249 0.951 . S
C1268 C1266 1.388 . S
C1268 C1269 1.366 . S
C1269 C1268 1.366 . S
C1269 C1270 1.414 . S
C1269 C1272 1.499 . S
C1270 H1250 0.950 . S
C1270 C1269 1.414 . S
C1270 C1271 1.374 . S
C1271 H1251 0.950 . S
C1271 C1267 1.385 . S
C1271 C1270 1.374 . S
C1272 C1269 1.499 . S
C1272 C1273 1.373 . S
C1272 C1274 1.389 . S
C1273 H1252 0.950 . S
C1273 C1272 1.373 . S
C1273 C1289 1.377 . S
C1274 C1272 1.389 . S
C1274 C1275 1.524 . S
C1274 C1288 1.377 . S
C1275 C1274 1.524 . S
C1275 C1276 1.397 . S
C1275 C1280 1.363 . S
C1276 H1253 0.950 . S
C1276 C1275 1.397 . S
C1276 C1277 1.334 . S
C1277 H1254 0.950 . S
C1277 C1276 1.334 . S
C1277 C1278 1.287 . S
C1278 C1277 1.287 . S
C1278 C1279 1.524 . S
C1278 H1297 0.913 . S
C1279 H1255 0.950 . S
C1279 C1278 1.524 . S
C1279 C1280 1.415 . S
C1280 H1256 0.950 . S
C1280 C1275 1.363 . S
C1280 C1279 1.415 . S
C1281 H1257 0.951 . S
C1281 C1282 1.366 . S
C1281 C1283 1.388 . S
C1282 C1281 1.366 . S
C1282 C1286 1.385 . S
C1283 H1258 0.951 . S
C1283 C1281 1.388 . S
C1283 C1284 1.366 . S
C1284 C1283 1.366 . S
C1284 C1285 1.414 . S
C1284 C1287 1.499 . S
C1285 H1259 0.950 . S
C1285 C1284 1.414 . S
C1285 C1286 1.374 . S
C1286 H1260 0.950 . S
C1286 C1282 1.385 . S
C1286 C1285 1.374 . S
C1287 C1284 1.499 . S
C1287 C1288 1.373 . S
C1287 C1289 1.389 . S
C1288 H1261 0.950 . S
C1288 C1274 1.377 . S
C1288 C1287 1.373 . S
C1289 C1273 1.377 . S
C1289 C1287 1.389 . S
C1289 C1290 1.524 . S
C1290 C1289 1.524 . S
C1290 C1291 1.397 . S
C1290 C1295 1.363 . S
C1291 H1262 0.950 . S
C1291 C1290 1.397 . S
C1291 C1292 1.334 . S
C1292 H1263 0.950 . S
C1292 C1291 1.334 . S
C1292 C1293 1.287 . S
C1293 C1292 1.287 . S
C1293 C1294 1.524 . S
C1293 H1296 0.999 1_556 S
C1294 H1264 0.950 . S
C1294 C1293 1.524 . S
C1294 C1295 1.415 . S
C1295 H1265 0.950 . S
C1295 C1290 1.363 . S
C1295 C1294 1.415 . S
H1296 C1293 0.999 1_554 S
H1297 C1278 0.913 . S
H1298 C1316 0.951 . S
H1299 C1318 0.951 . S
H1300 C1320 0.950 . S
H1301 C1321 0.950 . S
H1302 C1323 0.950 . S
H1303 C1326 0.950 . S
H1304 C1327 0.950 . S
H1305 C1329 0.950 . S
H1306 C1330 0.950 . S
H1307 C1331 0.951 . S
H1308 C1333 0.951 . S
H1309 C1335 0.950 . S
H1310 C1336 0.950 . S
H1311 C1338 0.950 . S
H1312 C1341 0.950 . S
H1313 C1342 0.950 . S
H1314 C1344 0.950 . S
H1315 C1345 0.950 . S
C1316 H1298 0.951 . S
C1316 C1317 1.366 . S
C1316 C1318 1.388 . S
C1317 C1316 1.366 . S
C1317 C1321 1.385 . S
C1318 H1299 0.951 . S
C1318 C1316 1.388 . S
C1318 C1319 1.366 . S
C1319 C1318 1.366 . S
C1319 C1320 1.414 . S
C1319 C1322 1.499 . S
C1320 H1300 0.950 . S
C1320 C1319 1.414 . S
C1320 C1321 1.374 . S
C1321 H1301 0.950 . S
C1321 C1317 1.385 . S
C1321 C1320 1.374 . S
C1322 C1319 1.499 . S
C1322 C1323 1.373 . S
C1322 C1324 1.389 . S
C1323 H1302 0.950 . S
C1323 C1322 1.373 . S
C1323 C1339 1.377 . S
C1324 C1322 1.389 . S
C1324 C1325 1.524 . S
C1324 C1338 1.377 . S
C1325 C1324 1.524 . S
C1325 C1326 1.397 . S
C1325 C1330 1.363 . S
C1326 H1303 0.950 . S
C1326 C1325 1.397 . S
C1326 C1327 1.334 . S
C1327 H1304 0.950 . S
C1327 C1326 1.334 . S
C1327 C1328 1.287 . S
C1328 C1327 1.287 . S
C1328 C1329 1.524 . S
C1328 H1347 0.913 . S
C1329 H1305 0.950 . S
C1329 C1328 1.524 . S
C1329 C1330 1.415 . S
C1330 H1306 0.950 . S
C1330 C1325 1.363 . S
C1330 C1329 1.415 . S
C1331 H1307 0.951 . S
C1331 C1332 1.366 . S
C1331 C1333 1.388 . S
C1332 C1331 1.366 . S
C1332 C1336 1.385 . S
C1333 H1308 0.951 . S
C1333 C1331 1.388 . S
C1333 C1334 1.366 . S
C1334 C1333 1.366 . S
C1334 C1335 1.414 . S
C1334 C1337 1.499 . S
C1335 H1309 0.950 . S
C1335 C1334 1.414 . S
C1335 C1336 1.374 . S
C1336 H1310 0.950 . S
C1336 C1332 1.385 . S
C1336 C1335 1.374 . S
C1337 C1334 1.499 . S
C1337 C1338 1.373 . S
C1337 C1339 1.389 . S
C1338 H1311 0.950 . S
C1338 C1324 1.377 . S
C1338 C1337 1.373 . S
C1339 C1323 1.377 . S
C1339 C1337 1.389 . S
C1339 C1340 1.524 . S
C1340 C1339 1.524 . S
C1340 C1341 1.397 . S
C1340 C1345 1.363 . S
C1341 H1312 0.950 . S
C1341 C1340 1.397 . S
C1341 C1342 1.334 . S
C1342 H1313 0.950 . S
C1342 C1341 1.334 . S
C1342 C1343 1.287 . S
C1343 C1342 1.287 . S
C1343 C1344 1.524 . S
C1343 H1346 0.999 . S
C1344 H1314 0.950 . S
C1344 C1343 1.524 . S
C1344 C1345 1.415 . S
C1345 H1315 0.950 . S
C1345 C1340 1.363 . S
C1345 C1344 1.415 . S
H1346 C1343 0.999 . S
H1347 C1328 0.913 . S
H1348 C1366 0.951 . S
H1349 C1368 0.951 . S
H1350 C1370 0.950 . S
H1351 C1371 0.950 . S
H1352 C1373 0.950 . S
H1353 C1376 0.950 . S
H1354 C1377 0.950 . S
H1355 C1379 0.950 . S
H1356 C1380 0.950 . S
H1357 C1381 0.951 . S
H1358 C1383 0.951 . S
H1359 C1385 0.950 . S
H1360 C1386 0.950 . S
H1361 C1388 0.950 . S
H1362 C1391 0.950 . S
H1363 C1392 0.947 1_655 S
H1364 C1394 0.950 . S
H1365 C1395 0.950 . S
C1366 H1348 0.951 . S
C1366 C1367 1.366 . S
C1366 C1368 1.388 . S
C1367 C1366 1.366 . S
C1367 C1371 1.385 . S
C1368 H1349 0.951 . S
C1368 C1366 1.388 . S
C1368 C1369 1.366 . S
C1369 C1368 1.366 . S
C1369 C1370 1.414 . S
C1369 C1372 1.499 . S
C1370 H1350 0.950 . S
C1370 C1369 1.414 . S
C1370 C1371 1.374 . S
C1371 H1351 0.950 . S
C1371 C1367 1.385 . S
C1371 C1370 1.374 . S
C1372 C1369 1.499 . S
C1372 C1373 1.373 . S
C1372 C1374 1.389 . S
C1373 H1352 0.950 . S
C1373 C1372 1.373 . S
C1373 C1389 1.377 . S
C1374 C1372 1.389 . S
C1374 C1375 1.524 . S
C1374 C1388 1.377 . S
C1375 C1374 1.524 . S
C1375 C1376 1.397 . S
C1375 C1380 1.363 . S
C1376 H1353 0.950 . S
C1376 C1375 1.397 . S
C1376 C1377 1.334 . S
C1377 H1354 0.950 . S
C1377 C1376 1.334 . S
C1377 C1378 1.287 . S
C1378 C1377 1.287 . S
C1378 C1379 1.524 . S
C1378 H1397 0.913 . S
C1379 H1355 0.950 . S
C1379 C1378 1.524 . S
C1379 C1380 1.415 . S
C1380 H1356 0.950 . S
C1380 C1375 1.363 . S
C1380 C1379 1.415 . S
C1381 H1357 0.951 . S
C1381 C1382 1.366 . S
C1381 C1383 1.388 . S
C1382 C1381 1.366 . S
C1382 C1386 1.385 . S
C1383 H1358 0.951 . S
C1383 C1381 1.388 . S
C1383 C1384 1.366 . S
C1384 C1383 1.366 . S
C1384 C1385 1.414 . S
C1384 C1387 1.499 . S
C1385 H1359 0.950 . S
C1385 C1384 1.414 . S
C1385 C1386 1.374 . S
C1386 H1360 0.950 . S
C1386 C1382 1.385 . S
C1386 C1385 1.374 . S
C1387 C1384 1.499 . S
C1387 C1388 1.373 . S
C1387 C1389 1.389 . S
C1388 H1361 0.950 . S
C1388 C1374 1.377 . S
C1388 C1387 1.373 . S
C1389 C1373 1.377 . S
C1389 C1387 1.389 . S
C1389 C1390 1.524 . S
C1390 C1389 1.524 . S
C1390 C1391 1.397 . S
C1390 C1395 1.363 . S
C1391 H1362 0.950 . S
C1391 C1390 1.397 . S
C1391 C1392 1.373 . S
C1392 H1363 0.947 1_455 S
C1392 C1391 1.373 . S
C1392 C1393 1.252 1_455 S
C1393 C1392 1.252 1_655 S
C1393 C1394 1.524 . S
C1393 H1396 0.999 . S
C1394 H1364 0.950 . S
C1394 C1393 1.524 . S
C1394 C1395 1.415 1_655 S
C1395 H1365 0.950 . S
C1395 C1390 1.363 . S
C1395 C1394 1.415 1_455 S
H1396 C1393 0.999 . S
H1397 C1378 0.913 . S
H1398 C1416 0.951 . S
H1399 C1418 0.951 . S
H1400 C1420 0.950 . S
H1401 C1421 0.950 . S
H1402 C1423 0.950 . S
H1403 C1426 0.950 . S
H1404 C1427 0.950 . S
H1405 C1429 0.950 . S
H1406 C1430 0.950 . S
H1407 C1431 0.951 . S
H1408 C1433 0.951 . S
H1409 C1435 0.950 . S
H1410 C1436 0.950 . S
H1411 C1438 0.950 . S
H1412 C1441 0.950 . S
H1413 C1442 0.950 . S
H1414 C1444 0.950 . S
H1415 C1445 0.950 . S
C1416 H1398 0.951 . S
C1416 C1417 1.366 . S
C1416 C1418 1.388 . S
C1417 C1416 1.366 . S
C1417 C1421 1.385 . S
C1418 H1399 0.951 . S
C1418 C1416 1.388 . S
C1418 C1419 1.366 . S
C1419 C1418 1.366 . S
C1419 C1420 1.414 . S
C1419 C1422 1.499 . S
C1420 H1400 0.950 . S
C1420 C1419 1.414 . S
C1420 C1421 1.374 . S
C1421 H1401 0.950 . S
C1421 C1417 1.385 . S
C1421 C1420 1.374 . S
C1422 C1419 1.499 . S
C1422 C1423 1.373 . S
C1422 C1424 1.389 . S
C1423 H1402 0.950 . S
C1423 C1422 1.373 . S
C1423 C1439 1.377 . S
C1424 C1422 1.389 . S
C1424 C1425 1.524 . S
C1424 C1438 1.377 . S
C1425 C1424 1.524 . S
C1425 C1426 1.397 . S
C1425 C1430 1.363 . S
C1426 H1403 0.950 . S
C1426 C1425 1.397 . S
C1426 C1427 1.334 . S
C1427 H1404 0.950 . S
C1427 C1426 1.334 . S
C1427 C1428 1.287 . S
C1428 C1427 1.287 . S
C1428 C1429 1.524 . S
C1428 H1447 0.913 . S
C1429 H1405 0.950 . S
C1429 C1428 1.524 . S
C1429 C1430 1.415 . S
C1430 H1406 0.950 . S
C1430 C1425 1.363 . S
C1430 C1429 1.415 . S
C1431 H1407 0.951 . S
C1431 C1432 1.366 . S
C1431 C1433 1.388 . S
C1432 C1431 1.366 . S
C1432 C1436 1.385 . S
C1433 H1408 0.951 . S
C1433 C1431 1.388 . S
C1433 C1434 1.366 . S
C1434 C1433 1.366 . S
C1434 C1435 1.414 . S
C1434 C1437 1.499 . S
C1435 H1409 0.950 . S
C1435 C1434 1.414 . S
C1435 C1436 1.374 . S
C1436 H1410 0.950 . S
C1436 C1432 1.385 . S
C1436 C1435 1.374 . S
C1437 C1434 1.499 . S
C1437 C1438 1.373 . S
C1437 C1439 1.389 . S
C1438 H1411 0.950 . S
C1438 C1424 1.377 . S
C1438 C1437 1.373 . S
C1439 C1423 1.377 . S
C1439 C1437 1.389 . S
C1439 C1440 1.524 . S
C1440 C1439 1.524 . S
C1440 C1441 1.397 . S
C1440 C1445 1.363 . S
C1441 H1412 0.950 . S
C1441 C1440 1.397 . S
C1441 C1442 1.334 . S
C1442 H1413 0.950 . S
C1442 C1441 1.334 . S
C1442 C1443 1.287 . S
C1443 C1442 1.287 . S
C1443 C1444 1.524 . S
C1443 H1446 0.999 . S
C1444 H1414 0.950 . S
C1444 C1443 1.524 . S
C1444 C1445 1.415 . S
C1445 H1415 0.950 . S
C1445 C1440 1.363 . S
C1445 C1444 1.415 . S
H1446 C1443 0.999 . S
H1447 C1428 0.913 . S
C267 C5 1.035 . S
C282 C95 1.302 . S
C317 C18 1.020 . S
C332 C144 1.080 . S
C382 C170 2.243 . S
C367 C30 2.261 . S
C417 C41 1.919 . S
C432 C218 1.873 . S
C482 C130 2.481 . S
C467 C7 2.311 . S
C532 C98 1.088 . S
C517 C16 0.989 . S
C582 C219 1.892 . S
C567 C29 1.841 . S
C632 C187 1.019 . S
C617 C38 0.945 . S
C667 C8 1.615 . S
C682 C215 1.693 . S
C732 C147 2.564 . S
C717 C27 2.384 . S
C767 C40 2.405 . S
C782 C99 2.442 . S
C817 C19 0.535 . S
C832 C184 0.534 . S
C882 C104 1.142 . S
C867 C51 1.021 . S
C917 C62 1.388 . S
C932 C135 1.381 . S
C967 C74 2.353 . S
C982 C179 2.345 . S
C1017 C84 2.066 . S
C1032 C227 2.115 . S
C1067 C49 2.167 . S
C1082 C139 2.711 1_556 S
C1132 C107 1.047 . S
C1117 C63 1.063 . S
C1182 C210 1.763 . S
C1167 C71 1.615 . S
C1232 C178 1.156 . S
C1217 C85 1.164 . S
C1267 C52 1.581 . S
C1282 C224 1.660 . S
C1332 C138 2.621 . S
C1317 C73 2.652 . S
C1382 C90 1.861 . S
C1367 C82 1.598 . S
C1417 C60 0.752 . S
C1432 C175 0.756 . S
