# Generated by pormake.
# Topology iac, (4,6)-cn, num edge types: 1
# Building blocks:
#     Node 0, Type 0, BuildingBlock: QUQFOY_clean_sbu_3, # of connection points: 4
#     Node 1, Type 0, BuildingBlock: QUQFOY_clean_sbu_3, # of connection points: 4
#     Node 2, Type 0, BuildingBlock: QUQFOY_clean_sbu_3, # of connection points: 4
#     Node 3, Type 0, BuildingBlock: QUQFOY_clean_sbu_3, # of connection points: 4
#     Node 4, Type 0, BuildingBlock: QUQFOY_clean_sbu_3, # of connection points: 4
#     Node 5, Type 0, BuildingBlock: QUQFOY_clean_sbu_3, # of connection points: 4
#     Node 6, Type 0, BuildingBlock: QUQFOY_clean_sbu_3, # of connection points: 4
#     Node 7, Type 0, BuildingBlock: QUQFOY_clean_sbu_3, # of connection points: 4
#     Node 8, Type 0, BuildingBlock: QUQFOY_clean_sbu_3, # of connection points: 4
#     Node 9, Type 0, BuildingBlock: QUQFOY_clean_sbu_3, # of connection points: 4
#     Node 10, Type 0, BuildingBlock: QUQFOY_clean_sbu_3, # of connection points: 4
#     Node 11, Type 0, BuildingBlock: QUQFOY_clean_sbu_3, # of connection points: 4
#     Node 12, Type 0, BuildingBlock: QUQFOY_clean_sbu_3, # of connection points: 4
#     Node 13, Type 0, BuildingBlock: QUQFOY_clean_sbu_3, # of connection points: 4
#     Node 14, Type 0, BuildingBlock: QUQFOY_clean_sbu_3, # of connection points: 4
#     Node 15, Type 0, BuildingBlock: QUQFOY_clean_sbu_3, # of connection points: 4
#     Node 16, Type 0, BuildingBlock: QUQFOY_clean_sbu_3, # of connection points: 4
#     Node 17, Type 0, BuildingBlock: QUQFOY_clean_sbu_3, # of connection points: 4
#     Node 18, Type 0, BuildingBlock: QUQFOY_clean_sbu_3, # of connection points: 4
#     Node 19, Type 0, BuildingBlock: QUQFOY_clean_sbu_3, # of connection points: 4
#     Node 20, Type 0, BuildingBlock: QUQFOY_clean_sbu_3, # of connection points: 4
#     Node 21, Type 0, BuildingBlock: QUQFOY_clean_sbu_3, # of connection points: 4
#     Node 22, Type 0, BuildingBlock: QUQFOY_clean_sbu_3, # of connection points: 4
#     Node 23, Type 0, BuildingBlock: QUQFOY_clean_sbu_3, # of connection points: 4
#     Node 24, Type 1, BuildingBlock: FUNLAD_clean_sbu_0, # of connection points: 6
#     Node 25, Type 1, BuildingBlock: FUNLAD_clean_sbu_0, # of connection points: 6
#     Node 26, Type 1, BuildingBlock: FUNLAD_clean_sbu_0, # of connection points: 6
#     Node 27, Type 1, BuildingBlock: FUNLAD_clean_sbu_0, # of connection points: 6
#     Node 28, Type 1, BuildingBlock: FUNLAD_clean_sbu_0, # of connection points: 6
#     Node 29, Type 1, BuildingBlock: FUNLAD_clean_sbu_0, # of connection points: 6
#     Node 30, Type 1, BuildingBlock: FUNLAD_clean_sbu_0, # of connection points: 6
#     Node 31, Type 1, BuildingBlock: FUNLAD_clean_sbu_0, # of connection points: 6
#     Node 32, Type 1, BuildingBlock: FUNLAD_clean_sbu_0, # of connection points: 6
#     Node 33, Type 1, BuildingBlock: FUNLAD_clean_sbu_0, # of connection points: 6
#     Node 34, Type 1, BuildingBlock: FUNLAD_clean_sbu_0, # of connection points: 6
#     Node 35, Type 1, BuildingBlock: FUNLAD_clean_sbu_0, # of connection points: 6
#     Node 36, Type 1, BuildingBlock: FUNLAD_clean_sbu_0, # of connection points: 6
#     Node 37, Type 1, BuildingBlock: FUNLAD_clean_sbu_0, # of connection points: 6
#     Node 38, Type 1, BuildingBlock: FUNLAD_clean_sbu_0, # of connection points: 6
#     Node 39, Type 1, BuildingBlock: FUNLAD_clean_sbu_0, # of connection points: 6
#     Edge 40, Type (0, 1), BuildingBlock: CIFDUS_clean_linker_0, # of connection points: 2
#     Edge 41, Type (0, 1), BuildingBlock: CIFDUS_clean_linker_0, # of connection points: 2
#     Edge 42, Type (0, 1), BuildingBlock: CIFDUS_clean_linker_0, # of connection points: 2
#     Edge 43, Type (0, 1), BuildingBlock: CIFDUS_clean_linker_0, # of connection points: 2
#     Edge 44, Type (0, 1), BuildingBlock: CIFDUS_clean_linker_0, # of connection points: 2
#     Edge 45, Type (0, 1), BuildingBlock: CIFDUS_clean_linker_0, # of connection points: 2
#     Edge 46, Type (0, 1), BuildingBlock: CIFDUS_clean_linker_0, # of connection points: 2
#     Edge 47, Type (0, 1), BuildingBlock: CIFDUS_clean_linker_0, # of connection points: 2
#     Edge 48, Type (0, 1), BuildingBlock: CIFDUS_clean_linker_0, # of connection points: 2
#     Edge 49, Type (0, 1), BuildingBlock: CIFDUS_clean_linker_0, # of connection points: 2
#     Edge 50, Type (0, 1), BuildingBlock: CIFDUS_clean_linker_0, # of connection points: 2
#     Edge 51, Type (0, 1), BuildingBlock: CIFDUS_clean_linker_0, # of connection points: 2
#     Edge 52, Type (0, 1), BuildingBlock: CIFDUS_clean_linker_0, # of connection points: 2
#     Edge 53, Type (0, 1), BuildingBlock: CIFDUS_clean_linker_0, # of connection points: 2
#     Edge 54, Type (0, 1), BuildingBlock: CIFDUS_clean_linker_0, # of connection points: 2
#     Edge 55, Type (0, 1), BuildingBlock: CIFDUS_clean_linker_0, # of connection points: 2
#     Edge 56, Type (0, 1), BuildingBlock: CIFDUS_clean_linker_0, # of connection points: 2
#     Edge 57, Type (0, 1), BuildingBlock: CIFDUS_clean_linker_0, # of connection points: 2
#     Edge 58, Type (0, 1), BuildingBlock: CIFDUS_clean_linker_0, # of connection points: 2
#     Edge 59, Type (0, 1), BuildingBlock: CIFDUS_clean_linker_0, # of connection points: 2
#     Edge 60, Type (0, 1), BuildingBlock: CIFDUS_clean_linker_0, # of connection points: 2
#     Edge 61, Type (0, 1), BuildingBlock: CIFDUS_clean_linker_0, # of connection points: 2
#     Edge 62, Type (0, 1), BuildingBlock: CIFDUS_clean_linker_0, # of connection points: 2
#     Edge 63, Type (0, 1), BuildingBlock: CIFDUS_clean_linker_0, # of connection points: 2
#     Edge 64, Type (0, 1), BuildingBlock: CIFDUS_clean_linker_0, # of connection points: 2
#     Edge 65, Type (0, 1), BuildingBlock: CIFDUS_clean_linker_0, # of connection points: 2
#     Edge 66, Type (0, 1), BuildingBlock: CIFDUS_clean_linker_0, # of connection points: 2
#     Edge 67, Type (0, 1), BuildingBlock: CIFDUS_clean_linker_0, # of connection points: 2
#     Edge 68, Type (0, 1), BuildingBlock: CIFDUS_clean_linker_0, # of connection points: 2
#     Edge 69, Type (0, 1), BuildingBlock: CIFDUS_clean_linker_0, # of connection points: 2
#     Edge 70, Type (0, 1), BuildingBlock: CIFDUS_clean_linker_0, # of connection points: 2
#     Edge 71, Type (0, 1), BuildingBlock: CIFDUS_clean_linker_0, # of connection points: 2
#     Edge 72, Type (0, 1), BuildingBlock: CIFDUS_clean_linker_0, # of connection points: 2
#     Edge 73, Type (0, 1), BuildingBlock: CIFDUS_clean_linker_0, # of connection points: 2
#     Edge 74, Type (0, 1), BuildingBlock: CIFDUS_clean_linker_0, # of connection points: 2
#     Edge 75, Type (0, 1), BuildingBlock: CIFDUS_clean_linker_0, # of connection points: 2
#     Edge 76, Type (0, 1), BuildingBlock: CIFDUS_clean_linker_0, # of connection points: 2
#     Edge 77, Type (0, 1), BuildingBlock: CIFDUS_clean_linker_0, # of connection points: 2
#     Edge 78, Type (0, 1), BuildingBlock: CIFDUS_clean_linker_0, # of connection points: 2
#     Edge 79, Type (0, 1), BuildingBlock: CIFDUS_clean_linker_0, # of connection points: 2
#     Edge 80, Type (0, 1), BuildingBlock: CIFDUS_clean_linker_0, # of connection points: 2
#     Edge 81, Type (0, 1), BuildingBlock: CIFDUS_clean_linker_0, # of connection points: 2
#     Edge 82, Type (0, 1), BuildingBlock: CIFDUS_clean_linker_0, # of connection points: 2
#     Edge 83, Type (0, 1), BuildingBlock: CIFDUS_clean_linker_0, # of connection points: 2
#     Edge 84, Type (0, 1), BuildingBlock: CIFDUS_clean_linker_0, # of connection points: 2
#     Edge 85, Type (0, 1), BuildingBlock: CIFDUS_clean_linker_0, # of connection points: 2
#     Edge 86, Type (0, 1), BuildingBlock: CIFDUS_clean_linker_0, # of connection points: 2
#     Edge 87, Type (0, 1), BuildingBlock: CIFDUS_clean_linker_0, # of connection points: 2
#     Edge 88, Type (0, 1), BuildingBlock: CIFDUS_clean_linker_0, # of connection points: 2
#     Edge 89, Type (0, 1), BuildingBlock: CIFDUS_clean_linker_0, # of connection points: 2
#     Edge 90, Type (0, 1), BuildingBlock: CIFDUS_clean_linker_0, # of connection points: 2
#     Edge 91, Type (0, 1), BuildingBlock: CIFDUS_clean_linker_0, # of connection points: 2
#     Edge 92, Type (0, 1), BuildingBlock: CIFDUS_clean_linker_0, # of connection points: 2
#     Edge 93, Type (0, 1), BuildingBlock: CIFDUS_clean_linker_0, # of connection points: 2
#     Edge 94, Type (0, 1), BuildingBlock: CIFDUS_clean_linker_0, # of connection points: 2
#     Edge 95, Type (0, 1), BuildingBlock: CIFDUS_clean_linker_0, # of connection points: 2
#     Edge 96, Type (0, 1), BuildingBlock: CIFDUS_clean_linker_0, # of connection points: 2
#     Edge 97, Type (0, 1), BuildingBlock: CIFDUS_clean_linker_0, # of connection points: 2
#     Edge 98, Type (0, 1), BuildingBlock: CIFDUS_clean_linker_0, # of connection points: 2
#     Edge 99, Type (0, 1), BuildingBlock: CIFDUS_clean_linker_0, # of connection points: 2
#     Edge 100, Type (0, 1), BuildingBlock: CIFDUS_clean_linker_0, # of connection points: 2
#     Edge 101, Type (0, 1), BuildingBlock: CIFDUS_clean_linker_0, # of connection points: 2
#     Edge 102, Type (0, 1), BuildingBlock: CIFDUS_clean_linker_0, # of connection points: 2
#     Edge 103, Type (0, 1), BuildingBlock: CIFDUS_clean_linker_0, # of connection points: 2
#     Edge 104, Type (0, 1), BuildingBlock: CIFDUS_clean_linker_0, # of connection points: 2
#     Edge 105, Type (0, 1), BuildingBlock: CIFDUS_clean_linker_0, # of connection points: 2
#     Edge 106, Type (0, 1), BuildingBlock: CIFDUS_clean_linker_0, # of connection points: 2
#     Edge 107, Type (0, 1), BuildingBlock: CIFDUS_clean_linker_0, # of connection points: 2
#     Edge 108, Type (0, 1), BuildingBlock: CIFDUS_clean_linker_0, # of connection points: 2
#     Edge 109, Type (0, 1), BuildingBlock: CIFDUS_clean_linker_0, # of connection points: 2
#     Edge 110, Type (0, 1), BuildingBlock: CIFDUS_clean_linker_0, # of connection points: 2
#     Edge 111, Type (0, 1), BuildingBlock: CIFDUS_clean_linker_0, # of connection points: 2
#     Edge 112, Type (0, 1), BuildingBlock: CIFDUS_clean_linker_0, # of connection points: 2
#     Edge 113, Type (0, 1), BuildingBlock: CIFDUS_clean_linker_0, # of connection points: 2
#     Edge 114, Type (0, 1), BuildingBlock: CIFDUS_clean_linker_0, # of connection points: 2
#     Edge 115, Type (0, 1), BuildingBlock: CIFDUS_clean_linker_0, # of connection points: 2
#     Edge 116, Type (0, 1), BuildingBlock: CIFDUS_clean_linker_0, # of connection points: 2
#     Edge 117, Type (0, 1), BuildingBlock: CIFDUS_clean_linker_0, # of connection points: 2
#     Edge 118, Type (0, 1), BuildingBlock: CIFDUS_clean_linker_0, # of connection points: 2
#     Edge 119, Type (0, 1), BuildingBlock: CIFDUS_clean_linker_0, # of connection points: 2
#     Edge 120, Type (0, 1), BuildingBlock: CIFDUS_clean_linker_0, # of connection points: 2
#     Edge 121, Type (0, 1), BuildingBlock: CIFDUS_clean_linker_0, # of connection points: 2
#     Edge 122, Type (0, 1), BuildingBlock: CIFDUS_clean_linker_0, # of connection points: 2
#     Edge 123, Type (0, 1), BuildingBlock: CIFDUS_clean_linker_0, # of connection points: 2
#     Edge 124, Type (0, 1), BuildingBlock: CIFDUS_clean_linker_0, # of connection points: 2
#     Edge 125, Type (0, 1), BuildingBlock: CIFDUS_clean_linker_0, # of connection points: 2
#     Edge 126, Type (0, 1), BuildingBlock: CIFDUS_clean_linker_0, # of connection points: 2
#     Edge 127, Type (0, 1), BuildingBlock: CIFDUS_clean_linker_0, # of connection points: 2
#     Edge 128, Type (0, 1), BuildingBlock: CIFDUS_clean_linker_0, # of connection points: 2
#     Edge 129, Type (0, 1), BuildingBlock: CIFDUS_clean_linker_0, # of connection points: 2
#     Edge 130, Type (0, 1), BuildingBlock: CIFDUS_clean_linker_0, # of connection points: 2
#     Edge 131, Type (0, 1), BuildingBlock: CIFDUS_clean_linker_0, # of connection points: 2
#     Edge 132, Type (0, 1), BuildingBlock: CIFDUS_clean_linker_0, # of connection points: 2
#     Edge 133, Type (0, 1), BuildingBlock: CIFDUS_clean_linker_0, # of connection points: 2
#     Edge 134, Type (0, 1), BuildingBlock: CIFDUS_clean_linker_0, # of connection points: 2
#     Edge 135, Type (0, 1), BuildingBlock: CIFDUS_clean_linker_0, # of connection points: 2
# Relax obj value: 0.340
# Max RMSD: 0.283
# Mean RMSD: 0.132
data_MOF--net-iac--node1-QUQFOY_clean_sbu_3--node2-FUNLAD_clean_sbu_0--edge1-CIFDUS_clean_linker_0
_symmetry_space_group_name_H-M    P1
_symmetry_Int_Tables_number       1
_symmetry_cell_setting            triclinic
loop_
_symmetry_equiv_pos_as_xyz
'x, y, z'
_cell_length_a     48.936707
_cell_length_b     47.833577
_cell_length_c     53.604973
_cell_angle_alpha  90.632333
_cell_angle_beta   92.246004
_cell_angle_gamma 90.462452
loop_
_atom_site_label
_atom_site_type_symbol
_atom_site_fract_x
_atom_site_fract_y
_atom_site_fract_z
_atom_type_partial_charge
C0 C 0.05043 0.23365 0.22768 0.0
O1 O 0.06885 0.21828 0.23742 0.0
Cd2 Cd 0.10864 0.20695 0.21434 0.0
O3 O 0.05409 0.24544 0.20693 0.0
Cd4 Cd 0.08908 0.24965 0.17583 0.0
C5 C 0.07558 0.1846 0.16022 0.0
O6 O 0.13247 0.24688 0.19905 0.0
O7 O 0.13204 0.23235 0.16064 0.0
O8 O 0.08446 0.30019 0.17291 0.0
C9 C 0.14579 0.23913 0.18033 0.0
O10 O 0.09233 0.17874 0.17817 0.0
C11 C 0.08099 0.2999 0.14929 0.0
O12 O 0.06778 0.20946 0.15638 0.0
O13 O 0.08065 0.27622 0.13836 0.0
C14 C 0.97824 0.76822 0.35674 0.0
O15 O -0.00325 0.78292 0.34719 0.0
Cd16 Cd 0.04241 0.78705 0.36352 0.0
O17 O 0.98401 0.7528 0.37554 0.0
Cd18 Cd 0.02722 0.74055 0.40104 0.0
C19 C 0.02929 0.80791 0.4238 0.0
O20 O 0.05901 0.74013 0.36614 0.0
O21 O 0.07813 0.73964 0.40287 0.0
O22 O 0.01153 0.69141 0.39866 0.0
C23 C 0.08073 0.73745 0.37948 0.0
O24 O 0.0377 0.81376 0.40227 0.0
C25 C 0.0158 0.68599 0.4216 0.0
O26 O 0.02319 0.78268 0.42903 0.0
O27 O 0.02459 0.70617 0.4354 0.0
C28 C 0.56686 0.70434 0.71396 0.0
O29 O 0.57924 0.68113 0.71403 0.0
Cd30 Cd 0.61273 0.66964 0.68428 0.0
O31 O 0.57254 0.72313 0.69828 0.0
Cd32 Cd 0.6026 0.72844 0.66275 0.0
C33 C 0.57054 0.67436 0.6332 0.0
O34 O 0.64462 0.70847 0.68058 0.0
O35 O 0.6442 0.71853 0.64133 0.0
O36 O 0.60879 0.7798 0.66673 0.0
C37 C 0.65783 0.71182 0.66089 0.0
O38 O 0.58284 0.6578 0.64814 0.0
C39 C 0.59659 0.78403 0.64572 0.0
O40 O 0.57429 0.70051 0.63487 0.0
O41 O 0.58759 0.76277 0.63363 0.0
C42 C 0.46321 0.25893 0.86133 0.0
O43 O 0.47748 0.27574 0.84897 0.0
Cd44 Cd 0.52463 0.28683 0.85626 0.0
O45 O 0.47418 0.24534 0.87954 0.0
Cd46 Cd 0.5223 0.24206 0.89977 0.0
C47 C 0.52196 0.31213 0.91627 0.0
O48 O 0.54635 0.24237 0.86019 0.0
O49 O 0.5727 0.24655 0.89294 0.0
O50 O 0.51751 0.1911 0.90762 0.0
C51 C 0.57053 0.24362 0.86939 0.0
O52 O 0.52588 0.31713 0.8934 0.0
C53 C 0.52244 0.19267 0.93105 0.0
O54 O 0.51896 0.287 0.92351 0.0
O55 O 0.5269 0.21704 0.94002 0.0
C56 C 0.12451 0.02168 0.30051 0.0
O57 O 0.11546 0.03786 0.28352 0.0
Cd58 Cd 0.12527 0.03386 0.24008 0.0
O59 O 0.14004 0.00134 0.29528 0.0
Cd60 Cd 0.16035 0.98192 0.25726 0.0
C61 C 0.19469 0.04109 0.24377 0.0
O62 O 0.11974 0.98547 0.22976 0.0
O63 O 0.15723 0.97593 0.21185 0.0
O64 O 0.15536 0.93308 0.26877 0.0
C65 C 0.13146 0.97841 0.21006 0.0
O66 O 0.17211 0.05048 0.23489 0.0
C67 C 0.1807 0.92771 0.26826 0.0
O68 O 0.19572 0.01779 0.25495 0.0
O69 O 0.1967 0.94794 0.26392 0.0
C70 C 0.31346 0.94453 0.52694 0.0
O71 O 0.29305 0.95615 0.51608 0.0
Cd72 Cd 0.24664 0.94061 0.51413 0.0
O73 O 0.31035 0.92251 0.5399 0.0
Cd74 Cd 0.27098 0.89186 0.55221 0.0
C75 C 0.26031 0.87514 0.49054 0.0
O76 O 0.23837 0.92974 0.55617 0.0
O77 O 0.2212 0.88868 0.55969 0.0
O78 O 0.2943 0.88373 0.593 0.0
C79 C 0.21748 0.91485 0.55975 0.0
O80 O 0.24964 0.89914 0.48753 0.0
C81 C 0.28988 0.85747 0.59276 0.0
O82 O 0.27024 0.86784 0.51177 0.0
O83 O 0.27721 0.84733 0.57357 0.0
C84 C 0.44463 -0.00233 0.7762 0.0
O85 O 0.45789 0.98877 0.75785 0.0
Cd86 Cd 0.44256 0.98744 0.71545 0.0
O87 O 0.42136 0.00937 0.77276 0.0
Cd88 Cd 0.39001 0.02246 0.73629 0.0
C89 C 0.38296 0.95205 0.72741 0.0
O90 O 0.4273 0.03415 0.70981 0.0
O91 O 0.38792 0.03418 0.69095 0.0
O92 O 0.3741 0.06362 0.76001 0.0
C93 C 0.41343 0.03833 0.68987 0.0
O94 O 0.40689 0.95158 0.71888 0.0
C95 C 0.34939 0.06098 0.75194 0.0
O96 O 0.37251 0.97483 0.73471 0.0
O97 O 0.34386 0.04044 0.73739 0.0
C98 C 0.40608 0.14141 0.95447 0.0
O99 O 0.38798 0.12663 0.94318 0.0
Cd100 Cd 0.38505 0.10207 0.98262 0.0
O101 O 0.39801 0.15452 0.97344 0.0
Cd102 Cd 0.35277 0.14184 0.9904 0.0
C103 C 0.39595 0.1456 0.03446 0.0
O104 O 0.33873 0.09157 0.9848 0.0
O105 O 0.33415 0.1107 0.02116 0.0
O106 O 0.32065 0.15456 0.95836 0.0
C107 C 0.3283 0.0907 0.00605 0.0
O108 O 0.40191 0.12289 0.02339 0.0
C109 C 0.30748 0.17136 0.97183 0.0
O110 O 0.37691 0.16087 0.02569 0.0
O111 O 0.31712 0.17691 0.99369 0.0
C112 C 0.82767 0.44788 0.04197 0.0
O113 O 0.81001 0.46464 0.03284 0.0
Cd114 Cd 0.76152 0.45991 0.03065 0.0
O115 O 0.8204 0.42583 0.05328 0.0
Cd116 Cd 0.77651 0.40216 0.06368 0.0
C117 C 0.76556 0.39574 0.0007 0.0
O118 O 0.74952 0.44379 0.06998 0.0
O119 O 0.72673 0.40532 0.06715 0.0
O120 O 0.79757 0.38976 0.10424 0.0
C121 C 0.72644 0.43166 0.06981 0.0
O122 O 0.75825 0.42126 0.00093 0.0
C123 C 0.78765 0.36512 0.10433 0.0
O124 O 0.77445 0.38379 0.02057 0.0
O125 O 0.77343 0.3573 0.08512 0.0
C126 C 0.94496 0.49079 0.26225 0.0
O127 O 0.95835 0.48058 0.24454 0.0
Cd128 Cd 0.94102 0.48027 0.20251 0.0
O129 O 0.92303 0.50447 0.25781 0.0
Cd130 Cd 0.89382 0.52153 0.2222 0.0
C131 C 0.87814 0.45252 0.21757 0.0
O132 O 0.9307 0.52783 0.19462 0.0
O133 O 0.89088 0.52834 0.17613 0.0
O134 O 0.89429 0.5684 0.23999 0.0
C135 C 0.91654 0.53177 0.17478 0.0
O136 O 0.90134 0.4499 0.20784 0.0
C137 C 0.86854 0.57155 0.23915 0.0
O138 O 0.86995 0.47639 0.22482 0.0
O139 O 0.85406 0.55082 0.23131 0.0
C140 C 0.81138 0.55553 0.57063 0.0
O141 O 0.79346 0.54859 0.58591 0.0
Cd142 Cd 0.75745 0.58062 0.59284 0.0
O143 O 0.81118 0.57942 0.5604 0.0
Cd144 Cd 0.78615 0.62319 0.55904 0.0
C145 C 0.79688 0.63231 0.62046 0.0
O146 O 0.74581 0.59647 0.55135 0.0
O147 O 0.73931 0.64054 0.55863 0.0
O148 O 0.80257 0.62407 0.51672 0.0
C149 C 0.73105 0.61785 0.54835 0.0
O150 O 0.77854 0.61359 0.62253 0.0
C151 C 0.79931 0.65016 0.51409 0.0
O152 O 0.80486 0.63941 0.59913 0.0
O153 O 0.79348 0.66412 0.53342 0.0
C154 C 0.60869 0.55306 0.78618 0.0
O155 O 0.59441 0.56476 0.76905 0.0
Cd156 Cd 0.60676 0.56942 0.72681 0.0
O157 O 0.63098 0.54086 0.78113 0.0
Cd158 Cd 0.65784 0.53111 0.74272 0.0
C159 C 0.66987 0.60106 0.73786 0.0
O160 O 0.61977 0.52443 0.71268 0.0
O161 O 0.65855 0.53175 0.69627 0.0
O162 O 0.66204 0.48129 0.7514 0.0
C163 C 0.63335 0.52563 0.6931 0.0
O164 O 0.64508 0.60216 0.72979 0.0
C165 C 0.68792 0.48078 0.75379 0.0
O166 O 0.6802 0.5779 0.745 0.0
O167 O 0.7004 0.50402 0.7517 0.0
C168 C 0.93933 0.84453 0.84583 0.0
O169 O 0.94769 0.86222 0.83033 0.0
Cd170 Cd -0.00366 0.8656 0.82232 0.0
O171 O 0.95609 0.8281 0.85645 0.0
Cd172 Cd 0.00431 0.81995 0.85845 0.0
C173 C 0.01722 0.88377 0.88017 0.0
O174 O 0.02193 0.82272 0.81553 0.0
O175 O 0.04965 0.82814 0.84779 0.0
O176 O -0.00579 0.77058 0.86451 0.0
C177 C 0.04645 0.82465 0.82441 0.0
O178 O 0.01734 0.89135 0.8575 0.0
C179 C 0.00806 0.76937 0.88503 0.0
O180 O 0.00962 0.8593 0.88582 0.0
O181 O 0.0207 0.79136 0.89247 0.0
C182 C 0.96008 0.24695 0.70506 0.0
O183 O 0.97612 0.23087 0.71722 0.0
Cd184 Cd 0.01976 0.2147 0.70497 0.0
O185 O 0.96676 0.25651 0.6839 0.0
Cd186 Cd 0.00915 0.25442 0.65723 0.0
C187 C 0.00852 0.18302 0.64715 0.0
O188 O 0.04282 0.25611 0.69299 0.0
O189 O 0.05971 0.25073 0.65688 0.0
O190 O 0.00406 0.30448 0.64951 0.0
C191 C 0.06393 0.25343 0.68027 0.0
O192 O 0.01442 0.18116 0.67042 0.0
C193 C 0.00225 0.30331 0.62584 0.0
O194 O 0.00429 0.20686 0.63724 0.0
O195 O 0.00337 0.27902 0.61609 0.0
C196 C 0.43102 0.33556 0.33542 0.0
O197 O 0.43746 0.35435 0.32018 0.0
Cd198 Cd 0.4866 0.35574 0.33028 0.0
O199 O 0.43828 0.34011 0.35807 0.0
Cd200 Cd 0.47215 0.31075 0.37839 0.0
C201 C 0.49652 0.37568 0.39288 0.0
O202 O 0.49643 0.30714 0.34001 0.0
O203 O 0.51927 0.29777 0.37405 0.0
O204 O 0.45126 0.26576 0.38891 0.0
C205 C 0.51911 0.30075 0.35058 0.0
O206 O 0.49765 0.38136 0.36972 0.0
C207 C 0.45676 0.26891 0.41219 0.0
O208 O 0.48766 0.35216 0.40012 0.0
O209 O 0.46783 0.29189 0.4193 0.0
C210 C 0.46475 0.73456 0.19823 0.0
O211 O 0.48042 0.71736 0.20947 0.0
Cd212 Cd 0.52729 0.70954 0.20092 0.0
O213 O 0.47374 0.74981 0.18081 0.0
Cd214 Cd 0.51986 0.75798 0.16097 0.0
C215 C 0.52631 0.69035 0.13875 0.0
O216 O 0.54677 0.75547 0.20076 0.0
O217 O 0.57101 0.75827 0.16845 0.0
O218 O 0.5118 0.809 0.15827 0.0
C219 C 0.57035 0.75733 0.19206 0.0
O220 O 0.53015 0.68352 0.16151 0.0
C221 C 0.51272 0.81062 0.13469 0.0
O222 O 0.52096 0.71565 0.13316 0.0
O223 O 0.51694 0.78786 0.1231 0.0
C224 C 0.96785 0.03662 0.84904 0.0
O225 O 0.98441 0.02597 0.83404 0.0
Cd226 Cd 0.97268 0.01081 0.79211 0.0
O227 O 0.9433 0.04192 0.84183 0.0
Cd228 Cd 0.91492 0.04118 0.80198 0.0
C229 C 0.91392 0.97064 0.79917 0.0
O230 O 0.95018 0.04816 0.77138 0.0
O231 O 0.91095 0.03272 0.75731 0.0
O232 O 0.90397 0.08946 0.81144 0.0
C233 C 0.93514 0.04013 0.7528 0.0
O234 O 0.93887 0.97293 0.79339 0.0
C235 C 0.87829 0.08701 0.80779 0.0
O236 O 0.90029 0.99211 0.80544 0.0
O237 O 0.86912 0.0628 0.80179 0.0
C238 C 0.81539 0.08024 0.50463 0.0
O239 O 0.79848 0.06372 0.51438 0.0
Cd240 Cd 0.75163 0.0731 0.5221 0.0
O241 O 0.80774 0.10416 0.49673 0.0
Cd242 Cd 0.7652 0.13324 0.4916 0.0
C243 C 0.75975 0.13631 0.55479 0.0
O244 O 0.73405 0.0943 0.48544 0.0
O245 O 0.71452 0.13406 0.48897 0.0
O246 O 0.78245 0.14233 0.45053 0.0
C247 C 0.71199 0.10771 0.48717 0.0
O248 O 0.75402 0.11026 0.55355 0.0
C249 C 0.77922 0.16863 0.45093 0.0
O250 O 0.7658 0.15004 0.53541 0.0
O251 O 0.76908 0.17905 0.47042 0.0
C252 C 0.59909 0.0286 0.34016 0.0
O253 O 0.58718 0.04094 0.322 0.0
Cd254 Cd 0.60293 0.04874 0.28161 0.0
O255 O 0.62285 0.01804 0.33791 0.0
Cd256 Cd 0.65602 0.01442 0.30255 0.0
C257 C 0.66332 0.08442 0.29697 0.0
O258 O 0.62212 0.00603 0.26906 0.0
O259 O 0.66158 0.01903 0.25735 0.0
O260 O 0.66638 0.96594 0.31337 0.0
C261 C 0.63751 0.01105 0.25124 0.0
O262 O 0.63915 0.08349 0.28725 0.0
C263 C 0.69201 0.96804 0.31094 0.0
O264 O 0.67465 0.06255 0.30592 0.0
O265 O 0.70127 0.99221 0.30623 0.0
C266 C 0.79521 0.96095 0.01618 0.0
O267 O 0.77421 0.97335 0.00732 0.0
Cd268 Cd 0.73126 0.94917 0.00146 0.0
O269 O 0.79454 0.93504 0.02136 0.0
Cd270 Cd 0.76703 0.89218 0.02248 0.0
C271 C 0.7501 0.89613 0.96077 0.0
O272 O 0.73028 0.91842 0.03577 0.0
O273 O 0.71992 0.87521 0.0288 0.0
O274 O 0.79313 0.88711 0.06061 0.0
C275 C 0.71206 0.89955 0.03454 0.0
O276 O 0.73661 0.91807 0.96572 0.0
C277 C 0.79732 0.86108 0.05863 0.0
O278 O 0.76466 0.8838 0.97755 0.0
O279 O 0.78804 0.84893 0.03878 0.0
C280 C 0.31767 0.57259 0.00193 0.0
O281 O 0.29789 0.55976 0.01152 0.0
Cd282 Cd 0.25126 0.57346 0.01229 0.0
O283 O 0.31386 0.59571 0.99065 0.0
Cd284 Cd 0.27461 0.62749 0.97954 0.0
C285 C 0.26193 0.63862 0.04061 0.0
O286 O 0.24154 0.59055 0.97217 0.0
O287 O 0.22405 0.63131 0.97455 0.0
O288 O 0.29586 0.63232 0.93945 0.0
C289 C 0.22016 0.60518 0.97215 0.0
O290 O 0.25155 0.61408 0.04009 0.0
C291 C 0.29288 0.65857 0.93766 0.0
O292 O 0.27429 0.64833 0.02195 0.0
O293 O 0.28159 0.67089 0.95565 0.0
C294 C 0.10717 0.53386 0.83059 0.0
O295 O 0.09449 0.54738 0.81354 0.0
Cd296 Cd 0.1019 0.54698 0.77037 0.0
O297 O 0.12781 0.51873 0.82583 0.0
Cd298 Cd 0.15456 0.50735 0.78771 0.0
C299 C 0.16748 0.57496 0.77258 0.0
O300 O 0.11232 0.49946 0.76456 0.0
O301 O 0.1477 0.49679 0.74254 0.0
O302 O 0.16496 0.46363 0.80906 0.0
C303 C 0.12195 0.49492 0.74348 0.0
O304 O 0.14215 0.57616 0.76632 0.0
C305 C 0.1876 0.45974 0.79885 0.0
O306 O 0.17763 0.553 0.78244 0.0
O307 O 0.19576 0.47886 0.78464 0.0
C308 C 0.26305 0.41207 0.51289 0.0
O309 O 0.24657 0.42602 0.49907 0.0
Cd310 Cd 0.20501 0.40533 0.48321 0.0
O311 O 0.25831 0.38663 0.51808 0.0
Cd312 Cd 0.22748 0.34612 0.51421 0.0
C313 C 0.22564 0.34623 0.45112 0.0
O314 O 0.19726 0.38121 0.52077 0.0
O315 O 0.17745 0.34121 0.52295 0.0
O316 O 0.26169 0.33782 0.54625 0.0
C317 C 0.17544 0.36766 0.52308 0.0
O318 O 0.21664 0.37118 0.4504 0.0
C319 C 0.25619 0.31209 0.54864 0.0
O320 O 0.23096 0.33403 0.47162 0.0
O321 O 0.23636 0.30199 0.5353 0.0
C322 C 0.44497 0.48096 0.34246 0.0
O323 O 0.46233 0.47125 0.32771 0.0
Cd324 Cd 0.45134 0.45815 0.28518 0.0
O325 O 0.42042 0.48515 0.33481 0.0
Cd326 Cd 0.39195 0.4828 0.29564 0.0
C327 C 0.39633 0.41302 0.29179 0.0
O328 O 0.42732 0.49643 0.26729 0.0
O329 O 0.39017 0.47937 0.25007 0.0
O330 O 0.37992 0.52756 0.31271 0.0
C331 C 0.41359 0.49018 0.24744 0.0
O332 O 0.42056 0.41779 0.28493 0.0
C333 C 0.3548 0.52671 0.30607 0.0
O334 O 0.3813 0.43281 0.2994 0.0
O335 O 0.34613 0.50473 0.29464 0.0
C336 C 0.04403 0.0456 0.98231 0.0
N337 N 0.0018 0.01538 0.04281 0.0
C338 C 0.98429 0.0371 0.0396 0.0
C339 C 0.95654 0.03349 0.04369 0.0
C340 C 0.94682 0.00722 0.05092 0.0
C341 C 0.96563 0.98558 0.05517 0.0
C342 C -0.00683 0.99017 0.05103 0.0
Zn343 Zn 0.04099 0.01962 0.03301 0.0
C344 C 0.05782 0.97172 0.00129 0.0
N345 N 0.12252 0.02749 0.01124 0.0
C346 C 0.1316 0.05367 0.00623 0.0
C347 C 0.14017 0.00604 0.01551 0.0
C348 C 0.1683 0.01113 0.01694 0.0
C349 C 0.1779 0.03852 0.01421 0.0
C350 C 0.15943 0.05973 0.0078 0.0
Zn351 Zn 0.08295 0.02305 0.0199 0.0
O352 O 0.0275 0.03803 -0.00129 0.0
C353 C 0.06652 0.0711 0.05191 0.0
O354 O 0.0696 0.04354 0.987 0.0
H355 H 0.1324 0.98544 0.01962 0.0
H356 H 0.99171 0.05697 0.03309 0.0
H357 H 0.11717 0.07035 0.00289 0.0
O358 O 0.04352 0.05868 0.05122 0.0
O359 O 0.08603 0.06075 0.04012 0.0
H360 H 0.00752 0.97325 0.05345 0.0
O361 O 0.09598 0.00196 0.05242 0.0
O362 O 0.05472 0.00088 0.06676 0.0
O363 O 0.07975 0.98582 0.00011 0.0
O364 O 0.03876 0.98033 0.01473 0.0
C365 C 0.08002 0.99558 0.06957 0.0
H366 H 0.94276 0.05079 0.04049 0.0
H367 H 0.95901 0.96486 0.06035 0.0
H368 H 0.18219 0.99435 0.02182 0.0
H369 H 0.1664 0.08104 0.00524 0.0
C370 C 0.32101 0.73251 0.26533 0.0
N371 N 0.24641 0.71371 0.22725 0.0
C372 C 0.25429 0.73132 0.20905 0.0
C373 C 0.25004 0.72401 0.18391 0.0
C374 C 0.23799 0.69806 0.17734 0.0
C375 C 0.22899 0.68086 0.19657 0.0
C376 C 0.23328 0.68919 0.22148 0.0
Zn377 Zn 0.25932 0.72237 0.26329 0.0
C378 C 0.27813 0.67028 0.28957 0.0
N379 N 0.29018 0.74016 0.3371 0.0
C380 C 0.30553 0.76378 0.34077 0.0
C381 C 0.27899 0.72672 0.35655 0.0
C382 C 0.28084 0.73855 0.38051 0.0
C383 C 0.2941 0.76444 0.38418 0.0
C384 C 0.30767 0.77642 0.36431 0.0
Zn385 Zn 0.27706 0.73045 0.30148 0.0
O386 O 0.30046 0.72856 0.25033 0.0
C387 C 0.2576 0.78224 0.27561 0.0
O388 O 0.31719 0.7341 0.28862 0.0
H389 H 0.26671 0.70807 0.35314 0.0
H390 H 0.26493 0.75061 0.21399 0.0
H391 H 0.31418 0.77415 0.32505 0.0
O392 O 0.25028 0.76496 0.25847 0.0
O393 O 0.27015 0.77364 0.29516 0.0
H394 H 0.22728 0.67544 0.23621 0.0
O395 O 0.23656 0.72674 0.31405 0.0
O396 O 0.21868 0.71679 0.27684 0.0
O397 O 0.28373 0.6874 0.30739 0.0
O398 O 0.268 0.67939 0.26906 0.0
C399 C 0.21562 0.72101 0.3001 0.0
H400 H 0.25682 0.73826 0.16983 0.0
H401 H 0.21991 0.66051 0.19257 0.0
H402 H 0.27 0.72885 0.39543 0.0
H403 H 0.31821 0.79635 0.36659 0.0
C404 C 0.50134 0.03533 0.56828 0.0
N405 N 0.54747 0.96885 0.54201 0.0
C406 C 0.55916 0.96973 0.56547 0.0
C407 C 0.56654 0.94501 0.57751 0.0
C408 C 0.56233 0.91923 0.56506 0.0
C409 C 0.55252 0.91932 0.54005 0.0
C410 C 0.54476 0.94437 0.529 0.0
Zn411 Zn 0.52865 0.00323 0.52759 0.0
C412 C 0.46951 0.99126 0.51515 0.0
N413 N 0.48634 0.07458 0.49955 0.0
C414 C 0.48411 0.09822 0.51362 0.0
C415 C 0.47589 0.07325 0.47567 0.0
C416 C 0.46423 0.09675 0.46454 0.0
C417 C 0.46232 0.12182 0.47833 0.0
C418 C 0.47162 0.1219 0.50354 0.0
Zn419 Zn 0.50631 0.04059 0.51397 0.0
O420 O 0.51735 0.0152 0.56413 0.0
C421 C 0.56529 0.05277 0.52574 0.0
O422 O 0.49296 0.05035 0.55022 0.0
H423 H 0.4772 0.05413 0.46488 0.0
H424 H 0.56135 0.98944 0.57543 0.0
H425 H 0.4924 0.09896 0.53259 0.0
O426 O 0.56528 0.0269 0.53101 0.0
O427 O 0.54281 0.06461 0.51974 0.0
H428 H 0.53526 0.94403 0.51046 0.0
O429 O 0.52008 0.03005 0.47802 0.0
O430 O 0.54026 0.99193 0.49101 0.0
O431 O 0.47048 0.01654 0.50821 0.0
O432 O 0.49125 0.97982 0.52368 0.0
C433 C 0.53442 0.00871 0.47345 0.0
H434 H 0.57395 0.94609 0.59679 0.0
H435 H 0.54971 0.90009 0.52938 0.0
H436 H 0.45782 0.09536 0.44503 0.0
H437 H 0.4699 0.1402 0.51539 0.0
C438 C 0.26539 0.19461 0.78704 0.0
N439 N 0.23479 0.25346 0.83686 0.0
C440 C 0.21237 0.23866 0.84337 0.0
C441 C 0.20409 0.23935 0.86797 0.0
C442 C 0.21997 0.25417 0.88624 0.0
C443 C 0.24096 0.27183 0.87822 0.0
C444 C 0.24794 0.27121 0.85333 0.0
Zn445 Zn 0.24934 0.25015 0.80205 0.0
C446 C 0.3104 0.25905 0.80131 0.0
N447 N 0.27744 0.24924 0.72836 0.0
C448 C 0.27127 0.22513 0.71552 0.0
C449 C 0.28948 0.27119 0.7171 0.0
C450 C 0.29352 0.27021 0.69149 0.0
C451 C 0.28571 0.24611 0.67751 0.0
C452 C 0.276 0.22284 0.69023 0.0
Zn453 Zn 0.26435 0.25259 0.76381 0.0
O454 O 0.25466 0.20613 0.80571 0.0
C455 C 0.20374 0.24416 0.76307 0.0
O456 O 0.27055 0.2092 0.76819 0.0
H457 H 0.29442 0.29009 0.72762 0.0
H458 H 0.20166 0.22525 0.82983 0.0
H459 H 0.26115 0.20799 0.72437 0.0
O460 O 0.20803 0.24492 0.78664 0.0
O461 O 0.22406 0.24588 0.74919 0.0
H462 H 0.26494 0.28379 0.8475 0.0
O463 O 0.25828 0.29659 0.76066 0.0
O464 O 0.24485 0.2937 0.79904 0.0
O465 O 0.30464 0.25966 0.77799 0.0
O466 O 0.29121 0.25532 0.81635 0.0
C467 C 0.2495 0.30842 0.7801 0.0
H468 H 0.18709 0.22623 0.87302 0.0
H469 H 0.25386 0.2839 0.89126 0.0
H470 H 0.30081 0.28891 0.68263 0.0
H471 H 0.27034 0.20359 0.68048 0.0
C472 C 0.0744 0.99092 0.53618 0.0
N473 N 0.03554 0.03307 0.47654 0.0
C474 C 0.06005 0.04643 0.4748 0.0
C475 C 0.06986 0.05294 0.45143 0.0
C476 C 0.05399 0.04614 0.42984 0.0
C477 C 0.02801 0.03417 0.43224 0.0
C478 C 0.01924 0.02751 0.4559 0.0
Zn479 Zn 0.02516 0.01587 0.50953 0.0
C480 C 0.01514 0.9526 0.50002 0.0
N481 N 0.00421 0.97498 0.57636 0.0
C482 C 0.02174 0.98112 0.59605 0.0
C483 C 0.97816 0.96622 0.58008 0.0
C484 C 0.96793 0.9668 0.60408 0.0
C485 C 0.98489 0.97599 0.62439 0.0
C486 C 0.01258 0.9813 0.6203 0.0
Zn487 Zn 0.01455 0.99082 0.54253 0.0
O488 O 0.06742 0.00628 0.51784 0.0
C489 C 0.02422 0.05454 0.55121 0.0
O490 O 0.05612 0.98178 0.55018 0.0
H491 H 0.96447 0.96131 0.5643 0.0
H492 H 0.07266 0.05071 0.49144 0.0
H493 H 0.0422 0.98859 0.59299 0.0
O494 O 0.02948 0.0548 0.5282 0.0
O495 O 0.01837 0.0313 0.56119 0.0
H496 H 6e-05 0.01646 0.45762 0.0
O497 O 0.97304 -0.00037 0.53398 0.0
O498 O 0.98286 0.02542 0.50198 0.0
O499 O 0.01071 0.95099 0.52325 0.0
O500 O 0.02056 0.97641 0.49093 0.0
C501 C 0.96518 0.01519 0.51612 0.0
H502 H 0.09002 0.06222 0.45018 0.0
H503 H 0.0154 0.02831 0.41592 0.0
H504 H 0.94644 0.96236 0.60626 0.0
H505 H 0.02666 0.98759 0.63546 0.0
C506 C 0.2992 0.75686 0.7088 0.0
N507 N 0.35959 0.72007 0.75638 0.0
C508 C 0.36615 0.7021 0.73774 0.0
C509 C 0.39314 0.69311 0.73584 0.0
C510 C 0.41336 0.70293 0.7532 0.0
C511 C 0.40568 0.72038 0.77282 0.0
C512 C 0.37861 0.72872 0.77406 0.0
Zn513 Zn 0.32209 0.73807 0.75797 0.0
C514 C 0.32914 0.80031 0.76209 0.0
N515 N 0.246 0.77986 0.76461 0.0
C516 C 0.2225 0.76766 0.75519 0.0
C517 C 0.24538 0.80428 0.7778 0.0
C518 C 0.22059 0.81675 0.78278 0.0
C519 C 0.1959 0.8033 0.77537 0.0
C520 C 0.1971 0.77884 0.76067 0.0
Zn521 Zn 0.28294 0.76053 0.76151 0.0
O522 O 0.32029 0.7452 0.71854 0.0
C523 C 0.276 0.69822 0.75628 0.0
O524 O 0.27972 0.76392 0.72244 0.0
H525 H 0.26403 0.81374 0.78542 0.0
H526 H 0.35069 0.69559 0.72386 0.0
H527 H 0.22329 0.74854 0.74433 0.0
O528 O 0.30172 0.69854 0.75359 0.0
O529 O 0.26368 0.72111 0.75985 0.0
H530 H 0.37304 0.74306 0.7887 0.0
O531 O 0.2862 0.75702 0.80114 0.0
O532 O 0.32291 0.73172 0.7972 0.0
O533 O 0.30327 0.79951 0.76244 0.0
O534 O 0.34221 0.77751 0.76201 0.0
C535 C 0.30498 0.74208 0.81101 0.0
H536 H 0.39837 0.67979 0.7203 0.0
H537 H 0.42065 0.72818 0.78668 0.0
H538 H 0.22089 0.83614 0.79338 0.0
H539 H 0.17875 0.76754 0.75455 0.0
C540 C 0.50298 0.94376 0.04477 0.0
N541 N 0.53206 0.02082 0.07328 0.0
C542 C 0.51443 0.0176 0.09204 0.0
C543 C 0.52373 0.02035 0.11685 0.0
C544 C 0.55169 0.0253 0.12247 0.0
C545 C 0.56881 0.03099 0.1026 0.0
C546 C 0.5584 0.02908 0.07807 0.0
Zn547 Zn 0.52116 0.00485 0.03894 0.0
C548 C 0.56879 0.97365 0.01903 0.0
N549 N 0.50197 0.96677 0.96883 0.0
C550 C 0.47585 0.95793 0.96364 0.0
C551 C 0.51915 0.97278 0.95027 0.0
C552 C 0.50946 0.97285 0.92549 0.0
C553 C 0.48185 0.96634 0.91969 0.0
C554 C 0.46535 0.95743 0.93902 0.0
Zn555 Zn 0.51268 0.98184 0.00356 0.0
O556 O 0.51106 0.96581 0.05651 0.0
C557 C 0.46847 0.01913 0.02103 0.0
O558 O 0.49974 0.94457 0.02111 0.0
H559 H 0.53973 0.98012 0.95481 0.0
H560 H 0.49358 0.01092 0.08789 0.0
H561 H 0.46249 0.95346 0.97873 0.0
O562 O 0.48209 0.0198 0.04161 0.0
O563 O 0.47393 0.00045 0.00499 0.0
H564 H 0.57202 0.03194 0.0629 0.0
O565 O 0.52556 0.01946 0.98623 0.0
O566 O 0.53086 0.04362 0.021 0.0
O567 O 0.55211 0.9646 0.00205 0.0
O568 O 0.56082 0.99066 0.0354 0.0
C569 C 0.53038 0.04274 -0.00276 0.0
H570 H 0.50938 0.01695 0.13139 0.0
H571 H 0.59051 0.03483 0.10562 0.0
H572 H 0.52298 0.98013 0.91139 0.0
H573 H 0.44413 0.95162 0.93537 0.0
C574 C 0.31806 0.14505 0.26637 0.0
N575 N 0.37279 0.18469 0.21906 0.0
C576 C 0.38856 0.16139 0.21971 0.0
C577 C 0.40256 0.15316 0.19864 0.0
C578 C 0.40001 0.16893 0.1767 0.0
C579 C 0.38442 0.19351 0.17711 0.0
C580 C 0.37115 0.2011 0.19858 0.0
Zn581 Zn 0.34925 0.19507 0.248 0.0
C582 C 0.29444 0.21235 0.23299 0.0
N583 N 0.30179 0.2155 0.30974 0.0
C584 C 0.30312 0.20393 0.33282 0.0
C585 C 0.28578 0.23804 0.30477 0.0
C586 C 0.27051 0.24998 0.32319 0.0
C587 C 0.27272 0.23976 0.34755 0.0
C588 C 0.28881 0.21598 0.35223 0.0
Zn589 Zn 0.32558 0.20297 0.28157 0.0
O590 O 0.33399 0.15302 0.24957 0.0
C591 C 0.38092 0.19126 0.29745 0.0
O592 O 0.31129 0.16205 0.28333 0.0
H593 H 0.28551 0.24771 0.28669 0.0
H594 H 0.38963 0.14875 0.23632 0.0
H595 H 0.31612 0.18613 0.33642 0.0
O596 O 0.38273 0.18758 0.27398 0.0
O597 O 0.35747 0.1943 0.30629 0.0
H598 H 0.35862 0.21962 0.19853 0.0
O599 O 0.34016 0.24453 0.28005 0.0
O600 O 0.36344 0.23708 0.24664 0.0
O601 O 0.29381 0.21225 0.2565 0.0
O602 O 0.3159 0.20469 0.22241 0.0
C603 C 0.3559 0.25361 0.2637 0.0
H604 H 0.41456 0.13425 0.19934 0.0
H605 H 0.38114 0.20612 0.16064 0.0
H606 H 0.25787 0.26779 0.31849 0.0
H607 H 0.29131 0.20753 0.37082 0.0
C608 C 0.57553 0.48499 0.03763 0.0
N609 N 0.55081 0.5347 0.9763 0.0
C610 C 0.57696 0.54462 0.97585 0.0
C611 C 0.58883 0.55018 0.95299 0.0
C612 C 0.57357 0.54558 0.9305 0.0
C613 C 0.54636 0.53637 0.93174 0.0
C614 C 0.53544 0.53099 0.95479 0.0
Zn615 Zn 0.5344 0.51798 0.00765 0.0
C616 C 0.51732 0.45691 0.99331 0.0
N617 N 0.49889 0.47522 0.06778 0.0
C618 C 0.51377 0.47741 0.08969 0.0
C619 C 0.47222 0.46684 0.06727 0.0
C620 C 0.45894 0.46265 0.08956 0.0
C621 C 0.47338 0.4668 0.11252 0.0
C622 C 0.50149 0.47289 0.11229 0.0
Zn623 Zn 0.51561 0.49228 0.03699 0.0
O624 O 0.57398 0.50291 0.02024 0.0
C625 C 0.53303 0.55294 0.05182 0.0
O626 O 0.55391 0.47694 0.04775 0.0
H627 H 0.46071 0.4652 0.04967 0.0
H628 H 0.58902 0.54705 0.99309 0.0
H629 H 0.5348 0.48448 0.08988 0.0
O630 O 0.5405 0.55559 0.02946 0.0
O631 O 0.52319 0.52962 0.05856 0.0
H632 H 0.51505 0.52225 0.9553 0.0
O633 O 0.47718 0.50772 0.02563 0.0
O634 O 0.49458 0.53294 -0.00375 0.0
O635 O 0.50865 0.45517 0.0153 0.0
O636 O 0.52786 0.47987 0.98646 0.0
C637 C 0.47387 0.52487 0.00792 0.0
H638 H 0.60986 0.55738 0.95289 0.0
H639 H 0.53396 0.53189 0.91498 0.0
H640 H 0.43723 0.458 0.08876 0.0
H641 H 0.51367 0.47552 0.12947 0.0
C642 C 0.77419 0.27844 0.22863 0.0
N643 N 0.83941 0.24674 0.27185 0.0
C644 C 0.84423 0.23023 0.25172 0.0
C645 C 0.871 0.22524 0.24497 0.0
C646 C 0.89285 0.23729 0.25917 0.0
C647 C 0.88732 0.2525 0.28088 0.0
C648 C 0.86025 0.25711 0.28685 0.0
Zn649 Zn 0.80114 0.26114 0.27691 0.0
C650 C 0.80297 0.32432 0.27997 0.0
N651 N 0.72322 0.29567 0.28772 0.0
C652 C 0.70131 0.28341 0.27548 0.0
C653 C 0.72005 0.31486 0.30624 0.0
C654 C 0.69407 0.32077 0.31446 0.0
C655 C 0.67127 0.30653 0.30369 0.0
C656 C 0.67495 0.28854 0.28324 0.0
Zn657 Zn 0.76113 0.2809 0.28215 0.0
O658 O 0.79572 0.26734 0.2379 0.0
C659 C 0.75894 0.21773 0.27783 0.0
O660 O 0.755 0.285 0.24283 0.0
H661 H 0.7378 0.3243 0.3157 0.0
H662 H 0.82731 0.22222 0.24011 0.0
H663 H 0.70439 0.26823 0.26078 0.0
O664 O 0.78442 0.21994 0.27438 0.0
O665 O 0.74509 0.23975 0.28092 0.0
H666 H 0.85589 0.27041 0.30262 0.0
O667 O 0.76735 0.27645 0.32159 0.0
O668 O 0.80617 0.25527 0.31602 0.0
O669 O 0.77748 0.32198 0.28305 0.0
O670 O 0.81741 0.30242 0.27875 0.0
C671 C 0.7879 0.26338 0.33061 0.0
H672 H 0.87455 0.21313 0.22823 0.0
H673 H 0.90363 0.26232 0.29216 0.0
H674 H 0.692 0.33517 0.33 0.0
H675 H 0.65794 0.277 0.27452 0.0
C676 C -0.00594 0.43219 0.53098 0.0
N677 N 0.01854 0.50758 0.56474 0.0
C678 C 0.00812 0.49474 0.58481 0.0
C679 C 0.02192 0.49657 0.608 0.0
C680 C 0.04637 0.51214 0.61051 0.0
C681 C 0.05494 0.52757 0.59007 0.0
C682 C 0.04078 0.52476 0.56715 0.0
Zn683 Zn 0.00629 0.49474 0.52999 0.0
C684 C 0.05326 0.4722 0.50398 0.0
N685 N 0.98401 0.46448 0.45753 0.0
C686 C 0.95937 0.45267 0.45089 0.0
C687 C 0.00143 0.47329 0.44004 0.0
C688 C -0.00621 0.47189 0.41485 0.0
C689 C 0.96787 0.46139 0.4074 0.0
C690 C 0.95081 0.45092 0.4257 0.0
Zn691 Zn -0.00571 0.47648 0.49318 0.0
O692 O 0.00249 0.4536 0.54326 0.0
C693 C 0.9471 0.49673 0.52036 0.0
O694 O 0.98755 0.43476 0.50783 0.0
H695 H 0.02065 0.48321 0.44565 0.0
H696 H 0.99033 0.48128 0.58245 0.0
H697 H 0.94575 0.44603 0.46513 0.0
O698 O 0.96541 0.50179 0.53728 0.0
O699 O 0.95365 0.48707 0.4993 0.0
H700 H 0.04881 0.53467 0.55092 0.0
O701 O 0.00134 0.51877 0.47925 0.0
O702 O 0.01008 0.53572 0.51677 0.0
O703 O 0.03478 0.465 0.48797 0.0
O704 O 0.04719 0.48678 0.52279 0.0
C705 C 0.00713 0.53967 0.49348 0.0
H706 H 0.01456 0.48423 0.6232 0.0
H707 H 0.07328 0.54042 0.59137 0.0
H708 H 0.00741 0.48074 0.40153 0.0
H709 H 0.93072 0.44246 0.42068 0.0
C710 C 0.78457 0.70758 0.27479 0.0
N711 N 0.74598 0.73826 0.33803 0.0
C712 C 0.74008 0.71083 0.34209 0.0
C713 C 0.74081 0.70045 0.36645 0.0
C714 C 0.74713 0.71863 0.38667 0.0
C715 C 0.75082 0.7471 0.38202 0.0
C716 C 0.75052 0.75643 0.35756 0.0
Zn717 Zn 0.75896 0.75194 0.3041 0.0
C718 C 0.81985 0.76727 0.31236 0.0
N719 N 0.79494 0.78407 0.23927 0.0
C720 C 0.78611 0.77192 0.21734 0.0
C721 C 0.81361 0.8053 0.23984 0.0
C722 C 0.82352 0.81566 0.21767 0.0
C723 C 0.81351 0.80464 0.1946 0.0
C724 C 0.79486 0.78211 0.19474 0.0
Zn725 Zn 0.77918 0.77019 0.2715 0.0
O726 O 0.77016 0.7108 0.29378 0.0
C727 C 0.71866 0.75434 0.26219 0.0
O728 O 0.79101 0.72877 0.26211 0.0
H729 H 0.8205 0.8146 0.25748 0.0
H730 H 0.73681 0.69654 0.32648 0.0
H731 H 0.77163 0.75473 0.21729 0.0
O732 O 0.71946 0.74657 0.28493 0.0
O733 O 0.74028 0.76412 0.253 0.0
H734 H 0.75645 0.77781 0.35444 0.0
O735 O 0.76754 0.81187 0.28135 0.0
O736 O 0.74747 0.79333 0.31308 0.0
O737 O 0.81735 0.7757 0.29006 0.0
O738 O 0.79895 0.75728 0.32261 0.0
C739 C 0.7533 0.81477 0.30054 0.0
H740 H 0.73772 0.6783 0.36939 0.0
H741 H 0.7562 0.76171 0.39704 0.0
H742 H 0.83834 0.83258 0.21867 0.0
H743 H 0.78604 0.7731 0.17763 0.0
C744 C 0.81056 0.27948 0.753 0.0
N745 N 0.73511 0.24875 0.72486 0.0
C746 C 0.74104 0.26511 0.70513 0.0
C747 C 0.7386 0.25449 0.68082 0.0
C748 C 0.73004 0.22671 0.67669 0.0
C749 C 0.72196 0.211 0.69724 0.0
C750 C 0.72473 0.22248 0.72133 0.0
Zn751 Zn 0.75017 0.26205 0.75915 0.0
C752 C 0.77986 0.21679 0.78609 0.0
N753 N 0.7879 0.29152 0.82735 0.0
C754 C 0.79733 0.31815 0.83094 0.0
C755 C 0.7841 0.27428 0.84699 0.0
C756 C 0.78817 0.28414 0.87141 0.0
C757 C 0.79572 0.31213 0.87563 0.0
C758 C 0.80122 0.32902 0.85513 0.0
Zn759 Zn 0.77249 0.27847 0.79319 0.0
O760 O 0.78872 0.27033 0.74195 0.0
C761 C 0.74264 0.32392 0.76598 0.0
O762 O 0.81009 0.28617 0.77601 0.0
H763 H 0.77602 0.25339 0.84385 0.0
H764 H 0.74972 0.28575 0.7083 0.0
H765 H 0.80019 0.33152 0.8151 0.0
O766 O 0.73618 0.3032 0.75183 0.0
O767 O 0.75848 0.32008 0.785 0.0
H768 H 0.7203 0.20977 0.73726 0.0
O769 O 0.73485 0.26986 0.81039 0.0
O770 O 0.71225 0.25354 0.77717 0.0
O771 O 0.78635 0.23728 0.80044 0.0
O772 O 0.76412 0.22089 0.76709 0.0
C773 C 0.7129 0.25971 0.8004 0.0
H774 H 0.74533 0.2673 0.66567 0.0
H775 H 0.71481 0.18962 0.69484 0.0
H776 H 0.78339 0.27064 0.88677 0.0
H777 H 0.80716 0.35075 0.85777 0.0
C778 C 0.76774 0.73274 0.76811 0.0
N779 N 0.84776 0.75696 0.75601 0.0
C780 C 0.85465 0.73189 0.76604 0.0
C781 C 0.86859 0.71249 0.75185 0.0
C782 C 0.87407 0.71901 0.72703 0.0
C783 C 0.87237 0.74703 0.71963 0.0
C784 C 0.85875 0.76591 0.73458 0.0
Zn785 Zn 0.8124 0.77493 0.76601 0.0
C786 C 0.7772 0.78862 0.72069 0.0
N787 N 0.73765 0.81274 0.78547 0.0
C788 C 0.72372 0.79806 0.80256 0.0
C789 C 0.73481 0.84095 0.78354 0.0
C790 C 0.72261 0.85594 0.80257 0.0
C791 C 0.71298 0.84134 0.82303 0.0
C792 C 0.71075 0.81214 0.82151 0.0
Zn793 Zn 0.77302 0.79487 0.77428 0.0
O794 O 0.79339 0.73482 0.76592 0.0
C795 C 0.80781 0.78073 0.81963 0.0
O796 O 0.75401 0.75464 0.77217 0.0
H797 H 0.74547 0.85223 0.76946 0.0
H798 H 0.84592 0.72537 0.78329 0.0
H799 H 0.72618 0.77574 0.80406 0.0
O800 O 0.82357 0.77134 0.80335 0.0
O801 O 0.7848 0.79063 0.81272 0.0
H802 H 0.85335 0.78617 0.72722 0.0
O803 O 0.79283 0.83424 0.77572 0.0
O804 O 0.83166 0.81513 0.7664 0.0
O805 O 0.76192 0.79969 0.73661 0.0
O806 O 0.79977 0.77792 0.72792 0.0
C807 C 0.81817 0.83673 0.77204 0.0
H808 H 0.87031 0.69121 0.75841 0.0
H809 H 0.87682 0.75312 0.7008 0.0
H810 H 0.72441 0.87853 0.80305 0.0
H811 H 0.70311 0.80029 0.83693 0.0
C812 C 0.47272 0.53178 0.48318 0.0
N813 N 0.45278 0.49808 0.55134 0.0
C814 C 0.42836 0.51034 0.54618 0.0
C815 C 0.40427 0.49662 0.55124 0.0
C816 C 0.4051 0.47002 0.56217 0.0
C817 C 0.43074 0.45898 0.56945 0.0
C818 C 0.45456 0.47337 0.56356 0.0
Zn819 Zn 0.48498 0.51698 0.53643 0.0
C820 C 0.51873 0.47706 0.50814 0.0
N821 N 0.55017 0.55768 0.50301 0.0
C822 C 0.54474 0.58295 0.49251 0.0
C823 C 0.57591 0.5475 0.50499 0.0
C824 C 0.59775 0.56393 0.49801 0.0
C825 C 0.59298 0.59118 0.48925 0.0
C826 C 0.56607 0.60032 0.48563 0.0
Zn827 Zn 0.51969 0.53689 0.51883 0.0
O828 O 0.46133 0.52163 0.50197 0.0
C829 C 0.48629 0.57709 0.54705 0.0
O830 O 0.49671 0.54166 0.48588 0.0
H831 H 0.57961 0.52738 0.51342 0.0
H832 H 0.42746 0.53006 0.53655 0.0
H833 H 0.52396 0.59041 0.49085 0.0
O834 O 0.47196 0.55561 0.55125 0.0
O835 O 0.50642 0.57477 0.53308 0.0
H836 H 0.47435 0.4642 0.56759 0.0
O837 O 0.54394 0.5313 0.55255 0.0
O838 O 0.5088 0.51152 0.56969 0.0
O839 O 0.53274 0.49891 0.50429 0.0
O840 O 0.49831 0.47843 0.52203 0.0
C841 C 0.53352 0.51994 0.57137 0.0
H842 H 0.38536 0.50605 0.54462 0.0
H843 H 0.43247 0.43883 0.57835 0.0
H844 H 0.61829 0.55627 0.5016 0.0
H845 H 0.56172 0.62122 0.47908 0.0
C846 C 0.0084 0.54197 0.05652 0.0
N847 N 0.05033 0.47344 0.02933 0.0
C848 C 0.06729 0.47534 0.04999 0.0
C849 C 0.07594 0.45122 0.06218 0.0
C850 C 0.06685 0.42497 0.05309 0.0
C851 C 0.0505 0.42361 0.03098 0.0
C852 C 0.04246 0.44827 0.01932 0.0
Zn853 Zn 0.03344 0.50865 0.01528 0.0
C854 C 0.97389 0.50129 0.00324 0.0
N855 N -0.0027 0.58275 0.98855 0.0
C856 C 0.00231 0.60778 0.00012 0.0
C857 C 0.98448 0.58103 0.9656 0.0
C858 C 0.97821 0.60524 0.95246 0.0
C859 C 0.98512 0.63139 0.96314 0.0
C860 C -0.00381 0.63254 0.98772 0.0
Zn861 Zn 0.01392 0.54761 0.00306 0.0
O862 O 0.02396 0.52153 0.05202 0.0
C863 C 0.07324 0.55573 0.01421 0.0
O864 O 0.00025 0.5576 0.03879 0.0
H865 H 0.9807 0.56086 0.95679 0.0
H866 H 0.07325 0.49562 0.05757 0.0
H867 H 0.01249 0.60857 0.0184 0.0
O868 O 0.07182 0.52953 0.01771 0.0
O869 O 0.05139 0.56929 0.00992 0.0
H870 H 0.02894 0.44734 0.00287 0.0
O871 O 0.02778 0.5371 0.96758 0.0
O872 O 0.04319 0.49604 0.9786 0.0
O873 O 0.97695 0.52621 -0.00403 0.0
O874 O -0.00561 0.48829 0.01245 0.0
C875 C 0.03963 0.51452 0.96199 0.0
H876 H 0.08892 0.45313 0.07895 0.0
H877 H 0.04282 0.40383 0.02347 0.0
H878 H 0.96986 0.60337 0.9335 0.0
H879 H 0.00134 0.65234 -0.00321 0.0
H880 H 0.11097 0.15643 0.13351 0.0
H881 H 0.02487 0.16735 0.14375 0.0
H882 H 0.01399 0.1338 0.10967 0.0
H883 H 0.02953 0.10097 0.07754 0.0
H884 H 0.11604 0.0935 0.06573 0.0
H885 H 0.12627 0.12678 0.09948 0.0
C886 C 0.08987 0.15112 0.12836 0.0
C887 C 0.06868 0.16343 0.14122 0.0
C888 C 0.08392 0.13294 0.10828 0.0
C889 C 0.04136 0.15747 0.13414 0.0
C890 C 0.03522 0.13854 0.11465 0.0
C891 C 0.05058 0.10693 0.08216 0.0
C892 C 0.07197 0.09466 0.0693 0.0
C893 C 0.05638 0.12617 0.10158 0.0
C894 C 0.09916 0.10268 0.07532 0.0
C895 C 0.10509 0.12152 0.09476 0.0
H896 H 0.09172 0.72849 0.33032 0.0
H897 H 0.13094 0.73771 0.40352 0.0
H898 H 0.17568 0.73238 0.38554 0.0
H899 H 0.20386 0.72625 0.34912 0.0
H900 H 0.16522 0.71666 0.27572 0.0
H901 H 0.12017 0.7207 0.29373 0.0
C902 C 0.11006 0.72931 0.34235 0.0
C903 C 0.10787 0.73366 0.36829 0.0
C904 C 0.13587 0.72606 0.33186 0.0
C905 C 0.1319 0.73446 0.38355 0.0
C906 C 0.15756 0.7314 0.37326 0.0
C907 C 0.18562 0.72486 0.33699 0.0
C908 C 0.18806 0.72118 0.31101 0.0
C909 C 0.1598 0.72732 0.34745 0.0
C910 C 0.16407 0.71939 0.29574 0.0
C911 C 0.13826 0.72182 0.30604 0.0
H912 H 0.55877 0.79882 0.61105 0.0
H913 H 0.62657 0.83185 0.65632 0.0
H914 H 0.6224 0.8769 0.63498 0.0
H915 H 0.60045 0.90584 0.60202 0.0
H916 H 0.53071 0.87226 0.55921 0.0
H917 H 0.53529 0.82814 0.58062 0.0
C918 C 0.57262 0.8159 0.61634 0.0
C919 C 0.59305 0.81207 0.63504 0.0
C920 C 0.57005 0.84144 0.60415 0.0
C921 C 0.6106 0.83443 0.64198 0.0
C922 C 0.60832 0.86006 0.62968 0.0
C923 C 0.58609 0.889 0.59752 0.0
C924 C 0.56564 0.89238 0.57854 0.0
C925 C 0.58826 0.86369 0.61052 0.0
C926 C 0.54729 0.87014 0.573 0.0
C927 C 0.54962 0.84491 0.5855 0.0
H928 H 0.43712 0.27828 0.81963 0.0
H929 H 0.42239 0.2328 0.88692 0.0
H930 H 0.37347 0.22984 0.87505 0.0
H931 H 0.33473 0.24026 0.84507 0.0
H932 H 0.35135 0.28441 0.77743 0.0
H933 H 0.39956 0.28803 0.79011 0.0
C934 C 0.42332 0.2677 0.83183 0.0
C935 C 0.43355 0.25586 0.85422 0.0
C936 C 0.39541 0.26598 0.82484 0.0
C937 C 0.41518 0.24206 0.86956 0.0
C938 C 0.38716 0.24046 0.8628 0.0
C939 C 0.34892 0.25086 0.83326 0.0
C940 C 0.33936 0.26217 0.81036 0.0
C941 C 0.37699 0.25242 0.84047 0.0
C942 C 0.35808 0.2755 0.7951 0.0
C943 C 0.38571 0.27757 0.80233 0.0
H944 H 0.02766 0.86322 0.4139 0.0
H945 H 0.02159 0.80543 0.47464 0.0
H946 H 0.0156 0.84473 0.50379 0.0
H947 H 0.01324 0.89626 0.51203 0.0
H948 H 0.01847 0.95238 0.44972 0.0
H949 H 0.0234 0.91307 0.42144 0.0
C950 C 0.02512 0.85905 0.43353 0.0
C951 C 0.02539 0.83129 0.44201 0.0
C952 C 0.0214 0.88161 0.45002 0.0
C953 C 0.0216 0.82653 0.46752 0.0
C954 C 0.01816 0.84905 0.48421 0.0
C955 C 0.0152 0.89983 0.49225 0.0
C956 C 0.0156 0.92749 0.48322 0.0
C957 C 0.01812 0.8768 0.4757 0.0
C958 C 0.01822 0.93154 0.45743 0.0
C959 C 0.0211 0.90899 0.4411 0.0
H960 H 0.53086 0.66381 0.72507 0.0
H961 H 0.54662 0.75232 0.7335 0.0
H962 H 0.50075 0.75906 0.74901 0.0
H963 H 0.45467 0.74067 0.75498 0.0
H964 H 0.43744 0.65291 0.74284 0.0
H965 H 0.48542 0.64489 0.73364 0.0
C966 C 0.5245 0.68444 0.73099 0.0
C967 C 0.54206 0.70755 0.72837 0.0
C968 C 0.49769 0.6883 0.73865 0.0
C969 C 0.53341 0.73426 0.73551 0.0
C970 C 0.50717 0.73812 0.74418 0.0
C971 C 0.46156 0.71969 0.75081 0.0
C972 C 0.44265 0.69737 0.7496 0.0
C973 C 0.48888 0.71544 0.74502 0.0
C974 C 0.45166 0.6704 0.74369 0.0
C975 C 0.47905 0.66583 0.73853 0.0
H976 H 0.52551 0.13808 0.91621 0.0
H977 H 0.52214 0.19032 0.98206 0.0
H978 H 0.52515 0.14899 0.00851 0.0
H979 H 0.52883 0.09765 0.01302 0.0
H980 H 0.53324 0.04602 0.94675 0.0
H981 H 0.53002 0.08726 0.92067 0.0
C982 C 0.52538 0.14045 0.93635 0.0
C983 C 0.52359 0.16736 0.94706 0.0
C984 C 0.52761 0.11661 0.9515 0.0
C985 C 0.52359 0.16993 0.97325 0.0
C986 C 0.52535 0.14627 0.98843 0.0
C987 C 0.52958 0.09546 0.99291 0.0
C988 C 0.53164 0.06862 0.98202 0.0
C989 C 0.52757 0.11945 0.97779 0.0
C990 C 0.53195 0.0663 0.95581 0.0
C991 C 0.52995 0.08993 0.94077 0.0
H992 H 0.18312 0.2682 0.20798 0.0
H993 H 0.17383 0.19713 0.15823 0.0
H994 H 0.22154 0.18409 0.16719 0.0
H995 H 0.26407 0.18993 0.19373 0.0
H996 H 0.27229 0.26177 0.2428 0.0
H997 H 0.22718 0.27796 0.22915 0.0
C998 C 0.19173 0.25009 0.19889 0.0
C999 C 0.17515 0.23336 0.18291 0.0
C1000 C 0.219 0.24293 0.20397 0.0
C1001 C 0.18641 0.21021 0.17077 0.0
C1002 C 0.2136 0.20272 0.17592 0.0
C1003 C 0.25619 0.20953 0.20071 0.0
C1004 C 0.27107 0.22456 0.21934 0.0
C1005 C 0.2299 0.21851 0.19306 0.0
C1006 C 0.26083 0.24982 0.22857 0.0
C1007 C 0.23505 0.25902 0.22089 0.0
H1008 H 0.15209 0.96711 0.16491 0.0
H1009 H 0.07717 0.98797 0.20045 0.0
H1010 H 0.0535 0.99166 0.15969 0.0
H1011 H 0.05538 0.99369 0.11405 0.0
H1012 H 0.13094 0.97472 0.07875 0.0
H1013 H 0.15292 0.96513 0.11932 0.0
C1014 C 0.13052 0.97219 0.16374 0.0
C1015 C 0.11651 0.97765 0.18562 0.0
C1016 C 0.11715 0.97466 0.14029 0.0
C1017 C 0.08849 0.98393 0.18384 0.0
C1018 C 0.07493 0.98605 0.16055 0.0
C1019 C 0.0765 0.98693 0.11521 0.0
C1020 C 0.09158 0.98517 0.09348 0.0
C1021 C 0.08923 0.98214 0.13865 0.0
C1022 C 0.11895 0.97645 0.09525 0.0
C1023 C 0.13157 0.97105 0.11844 0.0
H1024 H 0.28007 0.82184 0.4895 0.0
H1025 H 0.24728 0.88685 0.44192 0.0
H1026 H 0.25556 0.8584 0.40515 0.0
H1027 H 0.27305 0.81583 0.38628 0.0
H1028 H 0.30441 0.74973 0.43294 0.0
H1029 H 0.29583 0.7779 0.47042 0.0
C1030 C 0.27457 0.82972 0.47111 0.0
C1031 C 0.26319 0.85656 0.46854 0.0
C1032 C 0.27937 0.8132 0.4499 0.0
C1033 C 0.25607 0.86633 0.44453 0.0
C1034 C 0.26089 0.85013 0.42343 0.0
C1035 C 0.27826 0.80775 0.40469 0.0
C1036 C 0.28983 0.78112 0.40701 0.0
C1037 C 0.2728 0.82374 0.4259 0.0
C1038 C 0.29575 0.77039 0.43085 0.0
C1039 C 0.29079 0.78644 0.45218 0.0
H1040 H 0.46655 0.0295 0.67985 0.0
H1041 H 0.39001 0.05667 0.64601 0.0
H1042 H 0.41149 0.06125 0.60575 0.0
H1043 H 0.45127 0.05443 0.57962 0.0
H1044 H 0.52647 0.02319 0.61295 0.0
H1045 H 0.50643 0.02362 0.65404 0.0
C1046 C 0.45463 0.03671 0.66372 0.0
C1047 C 0.42673 0.04275 0.66589 0.0
C1048 C 0.46692 0.03855 0.64056 0.0
C1049 C 0.4115 0.0518 0.64478 0.0
C1050 C 0.42377 0.05445 0.62178 0.0
C1051 C 0.46339 0.04823 0.59598 0.0
C1052 C 0.49036 0.03902 0.59336 0.0
C1053 C 0.45137 0.0475 0.61937 0.0
C1054 C 0.50569 0.03045 0.61458 0.0
C1055 C 0.49421 0.03061 0.63803 0.0
H1056 H 0.28767 0.22399 0.97757 0.0
H1057 H 0.26853 0.14257 0.94589 0.0
H1058 H 0.22932 0.16149 0.92264 0.0
H1059 H 0.21016 0.20192 0.903 0.0
H1060 H 0.23248 0.28475 0.9297 0.0
H1061 H 0.25949 0.26457 0.96422 0.0
C1062 C 0.27439 0.21045 0.96604 0.0
C1063 C 0.28125 0.18229 0.96255 0.0
C1064 C 0.25259 0.22176 0.95176 0.0
C1065 C 0.26392 0.16458 0.94803 0.0
C1066 C 0.24145 0.17532 0.9349 0.0
C1067 C 0.21983 0.21587 0.91681 0.0
C1068 C 0.22096 0.24481 0.91265 0.0
C1069 C 0.23685 0.20415 0.93529 0.0
C1070 C 0.23259 0.26224 0.93166 0.0
C1071 C 0.24832 0.25071 0.95126 0.0
H1072 H 0.0818 0.05214 0.31642 0.0
H1073 H 0.14892 0.00099 0.34298 0.0
H1074 H 0.1344 0.0066 0.38579 0.0
H1075 H 0.10107 0.0236 0.41532 0.0
H1076 H 0.03217 0.07184 0.38857 0.0
H1077 H 0.04905 0.07009 0.34613 0.0
C1078 C 0.0934 0.04242 0.3316 0.0
C1079 C 0.11637 0.02612 0.32652 0.0
C1080 C 0.0846 0.04525 0.3561 0.0
C1081 C 0.13105 0.01349 0.34637 0.0
C1082 C 0.12281 0.01673 0.37086 0.0
C1083 C 0.09009 0.03417 0.40023 0.0
C1084 C 0.06563 0.04807 0.40492 0.0
C1085 C 0.09944 0.03226 0.37589 0.0
C1086 C 0.05114 0.06115 0.38525 0.0
C1087 C 0.06073 0.06006 0.36106 0.0
H1088 H 0.27138 0.80516 0.60265 0.0
H1089 H 0.32603 0.87012 0.63141 0.0
H1090 H 0.33674 0.84228 0.66845 0.0
H1091 H 0.32753 0.80132 0.69431 0.0
H1092 H 0.26947 0.73872 0.66767 0.0
H1093 H 0.2634 0.76338 0.62791 0.0
C1094 C 0.2859 0.81306 0.61687 0.0
C1095 C 0.29788 0.8397 0.61428 0.0
C1096 C 0.29139 0.79724 0.63843 0.0
C1097 C 0.31645 0.84975 0.63299 0.0
C1098 C 0.32261 0.83383 0.65416 0.0
C1099 C 0.31416 0.79277 0.67943 0.0
C1100 C 0.29946 0.76799 0.6834 0.0
C1101 C 0.30986 0.80777 0.65726 0.0
C1102 C 0.28139 0.75747 0.6646 0.0
C1103 C 0.27777 0.77171 0.64205 0.0
H1104 H 0.41923 0.00441 0.82042 0.0
H1105 H 0.49489 0.97735 0.78936 0.0
H1106 H 0.51212 0.96357 0.8305 0.0
H1107 H 0.50569 0.95827 0.87508 0.0
H1108 H 0.43132 0.9875 0.90701 0.0
H1109 H 0.41335 0.00029 0.86568 0.0
C1110 C 0.43958 -0.00424 0.82269 0.0
C1111 C 0.45567 0.99197 0.80175 0.0
C1112 C 0.44946 0.98768 0.8465 0.0
C1113 C 0.48196 0.98054 0.80507 0.0
C1114 C 0.49186 0.9725 0.82861 0.0
C1115 C 0.48562 0.9676 0.8731 0.0
C1116 C 0.46995 0.97175 0.89423 0.0
C1117 C 0.47573 0.97579 0.84941 0.0
C1118 C 0.44372 0.98343 0.89109 0.0
C1119 C 0.43352 0.99116 0.86746 0.0
H1120 H 0.40521 0.11059 0.07271 0.0
H1121 H 0.41343 0.19663 0.05107 0.0
H1122 H 0.4231 0.21054 0.09459 0.0
H1123 H 0.42007 0.19941 0.13869 0.0
H1124 H 0.40274 0.1145 0.16012 0.0
H1125 H 0.40727 0.09873 0.11722 0.0
C1126 C 0.40998 0.13221 0.07756 0.0
C1127 C 0.40849 0.15267 0.05901 0.0
C1128 C 0.41368 0.14024 0.10272 0.0
C1129 C 0.41436 0.18068 0.06527 0.0
C1130 C 0.41976 0.1886 0.09009 0.0
C1131 C 0.41744 0.1774 0.13405 0.0
C1132 C 0.41023 0.1584 0.15259 0.0
C1133 C 0.41795 0.16876 0.10904 0.0
C1134 C 0.40819 0.12976 0.14638 0.0
C1135 C 0.41041 0.1207 0.12169 0.0
H1136 H 0.29002 0.09643 0.04052 0.0
H1137 H 0.31486 0.04254 0.9806 0.0
H1138 H 0.27072 0.01822 0.98035 0.0
H1139 H 0.22254 0.01799 0.99229 0.0
H1140 H 0.19703 0.07531 0.04926 0.0
H1141 H 0.24391 0.09261 0.05567 0.0
C1142 C 0.28607 0.07887 0.02787 0.0
C1143 C 0.3054 0.07151 0.01038 0.0
C1144 C 0.26028 0.06601 0.02698 0.0
C1145 C 0.30007 0.04872 -0.00591 0.0
C1146 C 0.2748 0.03495 -0.00618 0.0
C1147 C 0.22753 0.03388 0.00637 0.0
C1148 C 0.20666 0.04578 0.02003 0.0
C1149 C 0.25432 0.04432 0.00936 0.0
C1150 C 0.21298 0.0663 0.03831 0.0
C1151 C 0.23969 0.07611 0.042 0.0
H1152 H 0.67515 0.4121 0.07489 0.0
H1153 H 0.72013 0.48589 0.05489 0.0
H1154 H 0.67736 0.50913 0.04266 0.0
H1155 H 0.62699 0.50746 0.03577 0.0
H1156 H 0.58267 0.43395 0.05778 0.0
H1157 H 0.62528 0.41162 0.07091 0.0
C1158 C 0.67557 0.43337 0.06807 0.0
C1159 C 0.70071 0.44715 0.06561 0.0
C1160 C 0.651 0.44657 0.06117 0.0
C1161 C 0.70098 0.47481 0.05698 0.0
C1162 C 0.67655 0.48805 0.04983 0.0
C1163 C 0.62678 0.48657 0.04343 0.0
C1164 C 0.60178 0.4723 0.04562 0.0
C1165 C 0.65143 0.47396 0.05147 0.0
C1166 C 0.60167 0.44539 0.05591 0.0
C1167 C 0.62602 0.43257 0.06343 0.0
H1168 H 0.83722 0.447 0.25065 0.0
H1169 H 0.88585 0.39982 0.19973 0.0
H1170 H 0.8679 0.35627 0.21579 0.0
H1171 H 0.84058 0.33144 0.2456 0.0
H1172 H 0.78969 0.37735 0.29522 0.0
H1173 H 0.8068 0.42165 0.27873 0.0
C1174 C 0.84351 0.42721 0.24275 0.0
C1175 C 0.86305 0.42676 0.2241 0.0
C1176 C 0.8333 0.40205 0.2523 0.0
C1177 C 0.87099 0.40087 0.21416 0.0
C1178 C 0.86089 0.37589 0.22345 0.0
C1179 C 0.83352 0.35116 0.2531 0.0
C1180 C 0.81455 0.35125 0.27211 0.0
C1181 C 0.8426 0.37625 0.2429 0.0
C1182 C 0.80475 0.37687 0.28094 0.0
C1183 C 0.81435 0.40212 0.27136 0.0
H1184 H 0.82924 0.54431 0.52531 0.0
H1185 H 0.84285 0.52526 0.60317 0.0
H1186 H 0.88616 0.50262 0.59394 0.0
H1187 H 0.92254 0.49442 0.56437 0.0
H1188 H 0.90806 0.51273 0.48634 0.0
H1189 H 0.86226 0.52942 0.49487 0.0
C1190 C 0.8415 0.53461 0.5401 0.0
C1191 C 0.83346 0.53657 0.56483 0.0
C1192 C 0.86615 0.52195 0.53465 0.0
C1193 C 0.84895 0.52381 0.58399 0.0
C1194 C 0.8737 0.51116 0.57874 0.0
C1195 C 0.90915 0.50179 0.54926 0.0
C1196 C 0.91857 0.50304 0.52492 0.0
C1197 C 0.88292 0.5111 0.55428 0.0
C1198 C 0.9011 0.5119 0.50527 0.0
C1199 C 0.87503 0.52146 0.51012 0.0
H1200 H 0.23701 0.04493 0.27768 0.0
H1201 H 0.20802 0.07575 0.20621 0.0
H1202 H 0.24759 0.10719 0.20494 0.0
H1203 H 0.28733 0.1296 0.22633 0.0
H1204 H 0.31232 0.1039 0.30044 0.0
H1205 H 0.27794 0.06624 0.29845 0.0
C1206 C 0.23967 0.05823 0.26168 0.0
C1207 C 0.21974 0.05814 0.24207 0.0
C1208 C 0.26182 0.07704 0.26159 0.0
C1209 C 0.22308 0.07568 0.22157 0.0
C1210 C 0.24569 0.09357 0.22082 0.0
C1211 C 0.28575 0.11509 0.24166 0.0
C1212 C 0.30253 0.11886 0.26327 0.0
C1213 C 0.26482 0.09489 0.24098 0.0
C1214 C 0.29981 0.10085 0.28349 0.0
C1215 C 0.28002 0.07959 0.28242 0.0
H1216 H 0.36341 0.92052 0.53693 0.0
H1217 H 0.32555 -0.00434 0.50858 0.0
H1218 H 0.3702 0.01553 0.50075 0.0
H1219 H 0.41979 0.01234 0.5025 0.0
H1220 H 0.45877 0.93806 0.53117 0.0
H1221 H 0.41392 0.91698 0.53785 0.0
C1222 C 0.36497 0.94129 0.52917 0.0
C1223 C 0.34107 0.95656 0.52346 0.0
C1224 C 0.39089 0.95268 0.52448 0.0
C1225 C 0.3435 0.98336 0.51318 0.0
C1226 C 0.36907 0.99479 0.50861 0.0
C1227 C 0.41858 0.9914 0.50996 0.0
C1228 C 0.44267 0.97683 0.51628 0.0
C1229 C 0.39286 0.97966 0.51417 0.0
C1230 C 0.44058 0.94974 0.52603 0.0
C1231 C 0.41492 0.93773 0.53001 0.0
H1232 H 0.81727 0.58178 0.25531 0.0
H1233 H 0.89267 0.6225 0.2367 0.0
H1234 H 0.87275 0.66814 0.2447 0.0
H1235 H 0.83404 0.69662 0.25695 0.0
H1236 H 0.75999 0.65654 0.27961 0.0
H1237 H 0.77906 0.61054 0.27001 0.0
C1238 C 0.82928 0.60069 0.25308 0.0
C1239 C 0.85635 0.5988 0.24535 0.0
C1240 C 0.81788 0.62694 0.25832 0.0
C1241 C 0.87183 0.6234 0.24276 0.0
C1242 C 0.86042 0.64952 0.24721 0.0
C1243 C 0.82203 0.67779 0.25959 0.0
C1244 C 0.79555 0.67985 0.26857 0.0
C1245 C 0.83348 0.65155 0.25492 0.0
C1246 C 0.78039 0.65536 0.27254 0.0
C1247 C 0.7913 0.62912 0.26709 0.0
H1248 H 0.67065 0.42917 0.73934 0.0
H1249 H 0.73805 0.4725 0.77722 0.0
H1250 H 0.76107 0.42779 0.78482 0.0
H1251 H 0.76153 0.37591 0.78103 0.0
H1252 H 0.69518 0.33397 0.74004 0.0
H1253 H 0.67239 0.37847 0.73326 0.0
C1254 C 0.69037 0.42884 0.74931 0.0
C1255 C 0.70249 0.45406 0.75796 0.0
C1256 C 0.70372 0.40323 0.75299 0.0
C1257 C 0.72828 0.45334 0.77043 0.0
C1258 C 0.74141 0.42777 0.77479 0.0
C1259 C 0.74213 0.3766 0.77056 0.0
C1260 C 0.73005 0.35158 0.76114 0.0
C1261 C 0.72927 0.40252 0.76622 0.0
C1262 C 0.70502 0.35285 0.74741 0.0
C1263 C 0.69188 0.37831 0.74359 0.0
H1264 H 0.00828 0.87941 0.9293 0.0
H1265 H 0.04945 0.93006 0.87587 0.0
H1266 H 0.06871 0.95962 0.90971 0.0
H1267 H 0.07257 0.97171 0.95401 0.0
H1268 H 0.0281 0.92399 0.00712 0.0
H1269 H 0.0119 0.89176 0.97373 0.0
C1270 C 0.02151 0.8969 0.92507 0.0
C1271 C 0.02749 0.90262 0.90021 0.0
C1272 C 0.03221 0.91386 0.94449 0.0
C1273 C 0.04442 0.92544 0.89489 0.0
C1274 C 0.05559 0.94217 0.9142 0.0
C1275 C 0.05989 0.95381 0.95833 0.0
C1276 C 0.05191 0.94963 0.98286 0.0
C1277 C 0.04961 0.93652 0.93901 0.0
C1278 C 0.03472 0.92711 0.98829 0.0
C1279 C 0.02532 0.90897 0.96924 0.0
H1280 H 0.91052 0.26161 0.68265 0.0
H1281 H 0.95207 0.25202 0.7545 0.0
H1282 H 0.91055 0.26425 0.77547 0.0
H1283 H 0.86171 0.27486 0.77387 0.0
H1284 H 0.81828 0.28065 0.70263 0.0
H1285 H 0.86094 0.27312 0.68112 0.0
C1286 C 0.91047 0.26243 0.70287 0.0
C1287 C 0.93444 0.25576 0.71692 0.0
C1288 C 0.88607 0.26885 0.71501 0.0
C1289 C 0.93392 0.25675 0.74316 0.0
C1290 C 0.91016 0.26385 0.75523 0.0
C1291 C 0.86163 0.275 0.75364 0.0
C1292 C 0.83684 0.27861 0.73993 0.0
C1293 C 0.88602 0.26959 0.74141 0.0
C1294 C 0.83709 0.27809 0.71367 0.0
C1295 C 0.86149 0.27365 0.70135 0.0
H1296 H 0.42944 0.21923 0.40487 0.0
H1297 H 0.47882 0.26642 0.45927 0.0
H1298 H 0.483 0.22549 0.48554 0.0
H1299 H 0.47828 0.17543 0.49006 0.0
H1300 H 0.42551 0.12815 0.43823 0.0
H1301 H 0.41754 0.17009 0.41374 0.0
C1302 C 0.44064 0.22066 0.4227 0.0
C1303 C 0.45419 0.24569 0.42986 0.0
C1304 C 0.44291 0.19698 0.43791 0.0
C1305 C 0.46834 0.24736 0.45318 0.0
C1306 C 0.47089 0.22391 0.4682 0.0
C1307 C 0.46422 0.17411 0.47398 0.0
C1308 C 0.45317 0.14814 0.46588 0.0
C1309 C 0.45903 0.19841 0.46034 0.0
C1310 C 0.4353 0.14744 0.44457 0.0
C1311 C 0.43046 0.17154 0.4306 0.0
H1312 H 0.62367 0.75883 0.17863 0.0
H1313 H 0.57371 0.75221 0.24285 0.0
H1314 H 0.61469 0.74926 0.27022 0.0
H1315 H 0.6652 0.74944 0.27619 0.0
H1316 H 0.71463 0.75694 0.21162 0.0
H1317 H 0.6737 0.75841 0.18444 0.0
C1318 C 0.62172 0.75675 0.19861 0.0
C1319 C 0.59554 0.75583 0.20857 0.0
C1320 C 0.64543 0.7551 0.21433 0.0
C1321 C 0.59353 0.75307 0.23457 0.0
C1322 C 0.61701 0.75132 0.2503 0.0
C1323 C 0.66699 0.75112 0.25617 0.0
C1324 C 0.6931 0.75307 0.2461 0.0
C1325 C 0.64314 0.75236 0.24043 0.0
C1326 C 0.69491 0.7555 0.22004 0.0
C1327 C 0.67145 0.75638 0.20437 0.0
H1328 H 0.01831 0.17714 0.59733 0.0
H1329 H -0.00101 0.12999 0.66259 0.0
H1330 H 0.00251 0.08635 0.63901 0.0
H1331 H 0.01211 0.06126 0.60019 0.0
H1332 H 0.03275 0.10794 0.535 0.0
H1333 H 0.02799 0.15177 0.5582 0.0
C1334 C 0.01454 0.15733 0.60628 0.0
C1335 C 0.00825 0.15695 0.6317 0.0
C1336 C 0.01721 0.13209 0.59269 0.0
C1337 C 0.00386 0.13099 0.64307 0.0
C1338 C 0.00595 0.10595 0.62962 0.0
C1339 C 0.01571 0.08099 0.59104 0.0
C1340 C 0.0229 0.08115 0.56584 0.0
C1341 C 0.0129 0.10621 0.60449 0.0
C1342 C 0.02735 0.10705 0.55438 0.0
C1343 C 0.0245 0.13221 0.56762 0.0
H1344 H 0.56989 0.29993 0.37154 0.0
H1345 H 0.52616 0.30436 0.30023 0.0
H1346 H 0.56963 0.30769 0.27916 0.0
H1347 H 0.62018 0.30922 0.28136 0.0
H1348 H 0.66275 0.30478 0.35332 0.0
H1349 H 0.61943 0.30229 0.37385 0.0
C1350 C 0.56979 0.3015 0.35136 0.0
C1351 C 0.54493 0.30171 0.33742 0.0
C1352 C 0.59462 0.30381 0.33955 0.0
C1353 C 0.54513 0.30404 0.31133 0.0
C1354 C 0.56993 0.30602 0.29931 0.0
C1355 C 0.61989 0.30777 0.30152 0.0
C1356 C 0.64464 0.30744 0.31579 0.0
C1357 C 0.59482 0.30596 0.31328 0.0
C1358 C 0.64401 0.30571 0.34192 0.0
C1359 C 0.61926 0.30395 0.35369 0.0
H1360 H 0.50331 0.81944 0.08469 0.0
H1361 H 0.51483 0.86313 0.15519 0.0
H1362 H 0.51138 0.90797 0.13396 0.0
H1363 H 0.50695 0.935 0.09517 0.0
H1364 H 0.49426 0.8914 0.02469 0.0
H1365 H 0.49593 0.8466 0.04609 0.0
C1366 C 0.50499 0.83877 0.09542 0.0
C1367 C 0.50954 0.8378 0.12154 0.0
C1368 C 0.50267 0.86463 0.08307 0.0
C1369 C 0.51138 0.86314 0.13511 0.0
C1370 C 0.50942 0.88886 0.12296 0.0
C1371 C 0.50422 0.91573 0.08448 0.0
C1372 C 0.50053 0.91675 0.05826 0.0
C1373 C 0.50527 0.8899 0.09692 0.0
C1374 C 0.49704 0.89143 0.04484 0.0
C1375 C 0.49815 0.8657 0.05707 0.0
H1376 H 0.9154 0.80014 0.86681 0.0
H1377 H 0.89752 0.88123 0.83602 0.0
H1378 H 0.8485 0.8705 0.83587 0.0
H1379 H 0.81351 0.83375 0.83362 0.0
H1380 H 0.83419 0.75008 0.85571 0.0
H1381 H 0.87864 0.76651 0.87246 0.0
C1382 C 0.90079 0.81577 0.86057 0.0
C1383 C 0.90998 0.84096 0.85035 0.0
C1384 C 0.87296 0.80893 0.8595 0.0
C1385 C 0.89085 0.86121 0.84289 0.0
C1386 C 0.86288 0.85516 0.84306 0.0
C1387 C 0.82721 0.81948 0.84345 0.0
C1388 C 0.82117 0.79069 0.84292 0.0
C1389 C 0.85391 0.82843 0.8498 0.0
C1390 C 0.83867 0.7723 0.8558 0.0
C1391 C 0.86437 0.78161 0.86469 0.0
H1392 H 0.01994 0.04576 0.86652 0.0
H1393 H 0.93681 0.04109 0.89021 0.0
H1394 H 0.95288 0.04691 0.93379 0.0
H1395 H 0.9909 0.04901 0.96524 0.0
H1396 H 0.07396 0.05425 0.94113 0.0
H1397 H 0.05746 0.05317 0.89765 0.0
C1398 C 0.00532 0.04618 0.88121 0.0
C1399 C 0.97726 0.04255 0.87518 0.0
C1400 C 0.01467 0.04976 0.90615 0.0
C1401 C 0.95853 0.04369 0.89437 0.0
C1402 C 0.96771 0.04699 0.91929 0.0
C1403 C 0.00539 0.05051 0.9505 0.0
C1404 C 0.03367 0.05144 0.95653 0.0
C1405 C -0.00421 0.0495 0.92543 0.0
C1406 C 0.05209 0.05348 0.93713 0.0
C1407 C 0.04269 0.05264 0.91219 0.0
H1408 H 0.74257 0.18932 0.56397 0.0
H1409 H 0.7716 0.11461 0.60032 0.0
H1410 H 0.76426 0.13571 0.64114 0.0
H1411 H 0.74918 0.17496 0.66647 0.0
H1412 H 0.71777 0.24906 0.63063 0.0
H1413 H 0.72639 0.22865 0.58968 0.0
C1414 C 0.74761 0.17789 0.58088 0.0
C1415 C 0.75782 0.15057 0.5792 0.0
C1416 C 0.74261 0.18988 0.60434 0.0
C1417 C 0.76378 0.13571 0.60119 0.0
C1418 C 0.75949 0.14771 0.62451 0.0
C1419 C 0.7437 0.18649 0.64972 0.0
C1420 C 0.73268 0.21345 0.65168 0.0
C1421 C 0.74862 0.17463 0.6263 0.0
C1422 C 0.7264 0.22831 0.6297 0.0
C1423 C 0.73134 0.21666 0.60627 0.0
H1424 H 0.60756 0.99265 0.37951 0.0
H1425 H 0.55762 0.06159 0.35412 0.0
H1426 H 0.53209 0.05991 0.39194 0.0
H1427 H 0.52432 0.04012 0.43257 0.0
H1428 H 0.57344 0.97134 0.45926 0.0
H1429 H 0.59839 0.97137 0.42052 0.0
C1430 C 0.59117 0.00733 0.38236 0.0
C1431 C 0.58466 0.02725 0.36395 0.0
C1432 C 0.57616 0.00614 0.40428 0.0
C1433 C 0.56312 0.04595 0.36785 0.0
C1434 C 0.54841 0.04504 0.38951 0.0
C1435 C 0.54028 0.02489 0.42989 0.0
C1436 C 0.54697 0.0058 0.44883 0.0
C1437 C 0.55474 0.0253 0.40784 0.0
C1438 C 0.56773 0.98621 0.44492 0.0
C1439 C 0.58218 0.98636 0.42284 0.0
H1440 H 0.81646 0.88311 0.10238 0.0
H1441 H 0.80399 0.80436 0.06337 0.0
H1442 H 0.81336 0.7793 0.10234 0.0
H1443 H 0.8178 0.78041 0.1482 0.0
H1444 H 0.82327 0.86032 0.18677 0.0
H1445 H 0.82504 0.88405 0.14724 0.0
C1446 C 0.81625 0.86043 0.10224 0.0
C1447 C 0.80901 0.84561 0.08015 0.0
C1448 C 0.82032 0.84633 0.12476 0.0
C1449 C 0.80926 0.81625 0.08022 0.0
C1450 C 0.81445 0.80194 0.10252 0.0
C1451 C 0.81938 0.80302 0.14804 0.0
C1452 C 0.81987 0.81839 0.17067 0.0
C1453 C 0.81873 0.81686 0.12508 0.0
C1454 C 0.82305 0.84765 0.16992 0.0
C1455 C 0.82372 0.86142 0.1472 0.0
H1456 H 0.91984 -0.00301 0.72235 0.0
H1457 H 0.97752 0.06546 0.73023 0.0
H1458 H -0.00196 0.05148 0.69105 0.0
H1459 H -0.00094 0.02017 0.65475 0.0
H1460 H 0.94384 0.94925 0.64869 0.0
H1461 H 0.92258 0.96407 0.68708 0.0
C1462 C 0.93677 0.00897 0.71536 0.0
C1463 C 0.94699 0.03245 0.72886 0.0
C1464 C 0.94891 0.00031 0.69334 0.0
C1465 C 0.96929 0.04743 0.71999 0.0
C1466 C 0.98101 0.0394 0.69769 0.0
C1467 C 0.98282 0.00746 0.66203 0.0
C1468 C 0.97323 0.98345 0.6488 0.0
C1469 C 0.97104 0.0158 0.68431 0.0
C1470 C 0.95152 0.96792 0.65829 0.0
C1471 C 0.9394 0.97633 0.68029 0.0
H1472 H 0.76001 0.22022 0.43761 0.0
H1473 H 0.81532 0.15543 0.41568 0.0
H1474 H 0.82584 0.18127 0.37827 0.0
H1475 H 0.81642 0.21991 0.34993 0.0
H1476 H 0.75819 0.28296 0.36938 0.0
H1477 H 0.75211 0.26055 0.40968 0.0
C1478 C 0.7746 0.21198 0.42477 0.0
C1479 C 0.78677 0.18586 0.42938 0.0
C1480 C 0.78005 0.22667 0.4028 0.0
C1481 C 0.80549 0.17535 0.41248 0.0
C1482 C 0.81158 0.19015 0.39108 0.0
C1483 C 0.80285 0.22916 0.36318 0.0
C1484 C 0.7879 0.25318 0.35666 0.0
C1485 C 0.7986 0.21553 0.3858 0.0
C1486 C 0.77004 0.26455 0.37395 0.0
C1487 C 0.76642 0.25163 0.39694 0.0
H1488 H 0.5911 0.98839 0.23079 0.0
H1489 H 0.65746 0.04472 0.21535 0.0
H1490 H 0.63548 0.05605 0.17506 0.0
H1491 H 0.59699 0.05073 0.14488 0.0
H1492 H 0.53348 0.9899 0.15843 0.0
H1493 H 0.55411 0.98076 0.19928 0.0
C1494 C 0.6008 0.00299 0.21849 0.0
C1495 C 0.62578 0.01568 0.22595 0.0
C1496 C 0.58826 0.00914 0.19528 0.0
C1497 C 0.63829 0.03448 0.20988 0.0
C1498 C 0.62564 0.04115 0.18695 0.0
C1499 C 0.58773 0.03517 0.15648 0.0
C1500 C 0.56342 0.02135 0.14829 0.0
C1501 C 0.60054 0.02869 0.17953 0.0
C1502 C 0.55163 0.00171 0.16419 0.0
C1503 C 0.56369 -0.004 0.18754 0.0
H1504 H 0.71705 0.91363 0.92206 0.0
H1505 H 0.77606 0.85032 0.94272 0.0
H1506 H 0.76843 0.82752 0.90217 0.0
H1507 H 0.74497 0.82521 0.8614 0.0
H1508 H 0.68677 0.88839 0.83948 0.0
H1509 H 0.69398 0.91173 0.88038 0.0
C1510 C 0.72837 0.89493 0.91768 0.0
C1511 C 0.74706 0.88365 0.93548 0.0
C1512 C 0.72376 0.88178 0.89437 0.0
C1513 C 0.76155 0.85943 0.92943 0.0
C1514 C 0.75713 0.8463 0.90629 0.0
C1515 C 0.7334 0.84379 0.86578 0.0
C1516 C 0.71473 0.85472 0.84793 0.0
C1517 C 0.73811 0.85714 0.88882 0.0
C1518 C 0.70078 0.87942 0.85327 0.0
C1519 C 0.70506 0.89274 0.8765 0.0
H1520 H 0.83037 0.95304 0.05494 0.0
H1521 H 0.81669 0.00377 0.98971 0.0
H1522 H 0.86205 0.02534 -0.00348 0.0
H1523 H 0.90716 0.02523 0.01823 0.0
H1524 H 0.9199 0.97541 0.08433 0.0
H1525 H 0.87296 0.95797 0.08002 0.0
C1526 C 0.83729 0.96901 0.04235 0.0
C1527 C 0.82071 0.97652 0.0216 0.0
C1528 C 0.86309 0.98128 0.04648 0.0
C1529 C 0.82938 -0.00237 0.0057 0.0
C1530 C 0.85525 0.00985 0.00957 0.0
C1531 C 0.89948 0.01122 0.03214 0.0
C1532 C 0.91713 0.00124 0.05133 0.0
C1533 C 0.87252 0.00127 0.02954 0.0
C1534 C 0.90687 0.98289 0.06906 0.0
C1535 C 0.88006 0.97295 0.06664 0.0
H1536 H 0.36464 0.5893 0.97967 0.0
H1537 H 0.33302 0.52791 0.02988 0.0
H1538 H 0.37804 0.5074 0.03509 0.0
H1539 H 0.42637 0.50724 0.02655 0.0
H1540 H 0.45929 0.56781 0.9765 0.0
H1541 H 0.41373 0.58803 0.9699 0.0
C1542 C 0.36762 0.57143 0.99173 0.0
C1543 C 0.34538 0.56031 0.00442 0.0
C1544 C 0.39376 0.55949 -0.00535 0.0
C1545 C 0.34964 0.53701 0.01985 0.0
C1546 C 0.37543 0.52519 0.02288 0.0
C1547 C 0.42367 0.52481 0.01408 0.0
C1548 C 0.44625 0.53606 0.00213 0.0
C1549 C 0.39762 0.53632 0.01051 0.0
C1550 C 0.44223 0.55871 0.98592 0.0
C1551 C 0.41621 0.57035 0.98223 0.0
H1552 H 0.22353 0.57857 0.77178 0.0
H1553 H 0.15004 0.6277 0.76389 0.0
H1554 H 0.17713 0.66935 0.75674 0.0
H1555 H 0.22119 0.69231 0.75372 0.0
H1556 H 0.29547 0.64465 0.76113 0.0
H1557 H 0.26855 0.60191 0.76704 0.0
C1558 C 0.21351 0.59842 0.76855 0.0
C1559 C 0.18476 0.59995 0.7685 0.0
C1560 C 0.22929 0.62253 0.76418 0.0
C1561 C 0.17209 0.6258 0.76402 0.0
C1562 C 0.18755 0.64972 0.75991 0.0
C1563 C 0.23159 0.67258 0.75648 0.0
C1564 C 0.26029 0.6717 0.7571 0.0
C1565 C 0.2161 0.64834 0.76003 0.0
C1566 C 0.27336 0.64588 0.76048 0.0
C1567 C 0.25798 0.62147 0.76403 0.0
H1568 H 0.16793 0.42239 0.52978 0.0
H1569 H 0.12508 0.34599 0.50863 0.0
H1570 H 0.08392 0.37284 0.49769 0.0
H1571 H 0.06069 0.41803 0.49411 0.0
H1572 H 0.10315 0.49378 0.51759 0.0
H1573 H 0.14481 0.46712 0.52675 0.0
C1574 C 0.14952 0.41156 0.52289 0.0
C1575 C 0.14939 0.38234 0.51993 0.0
C1576 C 0.12638 0.42704 0.51643 0.0
C1577 C 0.12547 0.36848 0.51123 0.0
C1578 C 0.10214 0.38383 0.50471 0.0
C1579 C 0.07934 0.42872 0.50058 0.0
C1580 C 0.07939 0.45778 0.50461 0.0
C1581 C 0.10255 0.41312 0.50696 0.0
C1582 C 0.10312 0.47146 0.51392 0.0
C1583 C 0.12667 0.45621 0.51943 0.0
H1584 H 0.85928 0.959 0.7999 0.0
H1585 H 0.93756 0.92018 0.7901 0.0
H1586 H 0.91489 0.8758 0.77967 0.0
H1587 H 0.87286 0.84799 0.77275 0.0
H1588 H 0.79458 0.88674 0.78263 0.0
H1589 H 0.81727 0.93104 0.79346 0.0
C1590 C 0.87142 0.94077 0.79578 0.0
C1591 C 0.9001 0.94304 0.79582 0.0
C1592 C 0.85825 0.91529 0.7895 0.0
C1593 C 0.91545 0.91916 0.79021 0.0
C1594 C 0.9025 0.89375 0.78406 0.0
C1595 C 0.86074 0.8662 0.77698 0.0
C1596 C 0.83204 0.86404 0.77663 0.0
C1597 C 0.87391 0.89162 0.78342 0.0
C1598 C 0.8167 0.88779 0.78257 0.0
C1599 C 0.82965 0.91315 0.7889 0.0
H1600 H 0.66366 0.1316 0.49898 0.0
H1601 H 0.7026 0.05162 0.49013 0.0
H1602 H 0.66151 0.02787 0.50363 0.0
H1603 H 0.61443 0.02964 0.5174 0.0
H1604 H 0.57452 0.10924 0.52473 0.0
H1605 H 0.61631 0.13335 0.51291 0.0
C1606 C 0.66311 0.10897 0.49986 0.0
C1607 C 0.68619 0.09343 0.49346 0.0
C1608 C 0.6394 0.0954 0.50775 0.0
C1609 C 0.68512 0.06411 0.49481 0.0
C1610 C 0.66167 0.0505 0.50268 0.0
C1611 C 0.615 0.0523 0.51687 0.0
C1612 C 0.59149 0.06765 0.52225 0.0
C1613 C 0.63875 0.06592 0.50929 0.0
C1614 C 0.59241 0.09697 0.5209 0.0
C1615 C 0.61623 0.11074 0.51396 0.0
H1616 H 0.22104 0.43597 0.76555 0.0
H1617 H 0.18536 0.42278 0.83686 0.0
H1618 H 0.20353 0.37538 0.83806 0.0
H1619 H 0.22591 0.33672 0.81737 0.0
H1620 H 0.2589 0.34808 0.74461 0.0
H1621 H 0.24543 0.39731 0.74543 0.0
C1622 C 0.21772 0.42287 0.78156 0.0
C1623 C 0.20197 0.43283 0.80116 0.0
C1624 C 0.2274 0.39527 0.78168 0.0
C1625 C 0.19743 0.41554 0.82159 0.0
C1626 C 0.20771 0.38843 0.82222 0.0
C1627 C 0.23041 0.34994 0.80171 0.0
C1628 C 0.24327 0.33866 0.78087 0.0
C1629 C 0.22213 0.3779 0.80211 0.0
C1630 C 0.2489 0.35619 0.76081 0.0
C1631 C 0.24121 0.38432 0.76129 0.0
H1632 H 0.3121 0.54436 0.27651 0.0
H1633 H 0.35997 0.56501 0.34353 0.0
H1634 H 0.33776 0.6104 0.34602 0.0
H1635 H 0.30904 0.64623 0.32644 0.0
H1636 H 0.26368 0.62728 0.25758 0.0
H1637 H 0.28039 0.5793 0.25858 0.0
C1638 C 0.31712 0.55858 0.29195 0.0
C1639 C 0.33761 0.55146 0.30979 0.0
C1640 C 0.30502 0.58513 0.29272 0.0
C1641 C 0.34429 0.57015 0.32954 0.0
C1642 C 0.33169 0.59613 0.33092 0.0
C1643 C 0.30245 0.6315 0.31185 0.0
C1644 C 0.28535 0.64041 0.29187 0.0
C1645 C 0.31269 0.60419 0.31218 0.0
C1646 C 0.27704 0.62103 0.27309 0.0
C1647 C 0.28659 0.59357 0.27362 0.0
H1648 H 0.52907 0.63833 0.63991 0.0
H1649 H 0.56793 0.68743 0.58424 0.0
H1650 H 0.53764 0.66665 0.55152 0.0
H1651 H 0.50618 0.62871 0.53862 0.0
H1652 H 0.46792 0.57903 0.59436 0.0
H1653 H 0.49032 0.60729 0.6274 0.0
C1654 C 0.53062 0.64453 0.6206 0.0
C1655 C 0.55107 0.66346 0.61409 0.0
C1656 C 0.51287 0.63292 0.60209 0.0
C1657 C 0.55256 0.67233 0.58934 0.0
C1658 C 0.53518 0.66064 0.57074 0.0
C1659 C 0.50181 0.6249 0.558 0.0
C1660 C 0.48627 0.60132 0.56412 0.0
C1661 C 0.51594 0.6402 0.57684 0.0
C1662 C 0.48013 0.59689 0.58917 0.0
C1663 C 0.49343 0.61265 0.60812 0.0
H1664 H 0.62437 0.252 0.88334 0.0
H1665 H 0.57082 0.23725 0.81863 0.0
H1666 H 0.60975 0.23986 0.79153 0.0
H1667 H 0.65931 0.24752 0.78592 0.0
H1668 H 0.71222 0.26314 0.85102 0.0
H1669 H 0.67356 0.25893 0.87788 0.0
C1670 C 0.6212 0.24925 0.86332 0.0
C1671 C 0.5946 0.24447 0.85314 0.0
C1672 C 0.64371 0.25098 0.84774 0.0
C1673 C 0.591 0.24101 0.82708 0.0
C1674 C 0.61331 0.2425 0.81151 0.0
C1675 C 0.66238 0.24984 0.80598 0.0
C1676 C 0.68879 0.25571 0.81627 0.0
C1677 C 0.63981 0.24763 0.82157 0.0
C1678 C 0.69223 0.25875 0.84239 0.0
C1679 C 0.67007 0.25633 0.8579 0.0
H1680 H 0.08479 0.30575 0.09945 0.0
H1681 H 0.07124 0.35231 0.16723 0.0
H1682 H 0.06664 0.39538 0.14336 0.0
H1683 H 0.06517 0.41932 0.10324 0.0
H1684 H 0.08022 0.37307 0.0356 0.0
H1685 H 0.08541 0.33013 0.05952 0.0
C1686 C 0.08077 0.32532 0.10899 0.0
C1687 C 0.07815 0.32589 0.135 0.0
C1688 C 0.07846 0.34996 0.09523 0.0
C1689 C 0.07327 0.35139 0.14719 0.0
C1690 C 0.07066 0.37599 0.13357 0.0
C1691 C 0.07012 0.39997 0.09376 0.0
C1692 C 0.07234 0.39938 0.06768 0.0
C1693 C 0.07317 0.37547 0.1076 0.0
C1694 C 0.07815 0.374 0.05563 0.0
C1695 C 0.08118 0.34948 0.06929 0.0
H1696 H 0.93014 0.75006 0.37646 0.0
H1697 H 0.96255 0.79006 0.31194 0.0
H1698 H 0.91674 0.79431 0.29338 0.0
H1699 H 0.86761 0.78651 0.29482 0.0
H1700 H 0.83396 0.74678 0.35879 0.0
H1701 H 0.87991 0.74294 0.37819 0.0
C1702 C 0.92716 0.75959 0.35831 0.0
C1703 C 0.94993 0.76965 0.34567 0.0
C1704 C 0.90047 0.76225 0.34764 0.0
C1705 C 0.94556 0.78215 0.32221 0.0
C1706 C 0.91929 0.78465 0.31151 0.0
C1707 C 0.8702 0.77716 0.3131 0.0
C1708 C 0.84728 0.76698 0.32528 0.0
C1709 C 0.89662 0.77482 0.32402 0.0
C1710 C 0.85119 0.75491 0.34897 0.0
C1711 C 0.87752 0.75258 0.36004 0.0
H1712 H 0.52624 0.36766 0.9064 0.0
H1713 H 0.51299 0.31061 0.96664 0.0
H1714 H 0.509 0.35016 -0.00438 0.0
H1715 H 0.50998 0.40131 0.00401 0.0
H1716 H 0.52401 0.45751 0.94325 0.0
H1717 H 0.52669 0.41801 0.91447 0.0
C1718 C 0.52251 0.36374 0.92587 0.0
C1719 C 0.52002 0.33604 0.93423 0.0
C1720 C 0.52021 0.38655 0.94241 0.0
C1721 C 0.5151 0.33162 0.95959 0.0
C1722 C 0.51274 0.35428 0.97621 0.0
C1723 C 0.51335 0.40489 0.98443 0.0
C1724 C 0.51673 0.43245 0.97588 0.0
C1725 C 0.51528 0.38189 0.96784 0.0
C1726 C 0.52136 0.43662 0.95044 0.0
C1727 C 0.52296 0.414 0.93391 0.0
H1728 H 0.00309 0.2467 0.2036 0.0
H1729 H 0.03662 0.22265 0.27579 0.0
H1730 H 0.99052 0.2215 0.29213 0.0
H1731 H 0.94047 0.2263 0.28529 0.0
H1732 H 0.90789 0.24833 0.21221 0.0
H1733 H 0.95395 0.25083 0.19666 0.0
C1734 C 0.00042 0.24153 0.22302 0.0
C1735 C 0.02322 0.23506 0.23855 0.0
C1736 C 0.97401 0.24011 0.23197 0.0
C1737 C 0.01934 0.22786 0.26351 0.0
C1738 C -0.00698 0.22709 0.27281 0.0
C1739 C 0.94356 0.23159 0.26598 0.0
C1740 C 0.92087 0.23688 0.24985 0.0
C1741 C 0.97017 0.23294 0.25712 0.0
C1742 C 0.92503 0.24364 0.22484 0.0
C1743 C 0.95135 0.24534 0.216 0.0
H1744 H 0.02526 0.66776 0.46928 0.0
H1745 H -0.00245 0.63935 0.39586 0.0
H1746 H -0.00732 0.59174 0.41124 0.0
H1747 H -0.00328 0.55775 0.44558 0.0
H1748 H 0.02428 0.58664 0.51897 0.0
H1749 H 0.02881 0.63409 0.50355 0.0
C1750 C 0.01804 0.6512 0.45665 0.0
C1751 C 0.01177 0.65727 0.43143 0.0
C1752 C 0.01535 0.62375 0.4656 0.0
C1753 C 0.0025 0.63541 0.41537 0.0
C1754 C -0.00025 0.60809 0.42414 0.0
C1755 C 0.00377 0.57441 0.45818 0.0
C1756 C 0.01016 0.56844 0.48343 0.0
C1757 C 0.00623 0.60193 0.44921 0.0
C1758 C 0.01916 0.59045 0.49946 0.0
C1759 C 0.02177 0.61771 0.49067 0.0
H1760 H 0.68119 0.76007 0.64873 0.0
H1761 H 0.69865 0.67928 0.68001 0.0
H1762 H 0.74417 0.69571 0.69444 0.0
H1763 H 0.77316 0.73554 0.70664 0.0
H1764 H 0.74954 0.8186 0.68483 0.0
H1765 H 0.71295 0.79911 0.65717 0.0
C1766 C 0.69549 0.74585 0.65784 0.0
C1767 C 0.68703 0.71853 0.66319 0.0
C1768 C 0.72047 0.75617 0.66784 0.0
C1769 C 0.7051 0.70032 0.6756 0.0
C1770 C 0.73095 0.7098 0.68395 0.0
C1771 C 0.76077 0.74924 0.69487 0.0
C1772 C 0.76399 0.77837 0.69738 0.0
C1773 C 0.73816 0.73807 0.68136 0.0
C1774 C 0.74748 0.79611 0.68279 0.0
C1775 C 0.72637 0.78495 0.66735 0.0
H1776 H 0.58124 0.50912 0.68186 0.0
H1777 H 0.65427 0.53908 0.64799 0.0
H1778 H 0.63011 0.53939 0.60711 0.0
H1779 H 0.58756 0.53269 0.58127 0.0
H1780 H 0.515 0.50209 0.61575 0.0
H1781 H 0.5397 0.50046 0.65601 0.0
C1782 C 0.59194 0.51562 0.66553 0.0
C1783 C 0.61947 0.52422 0.66802 0.0
C1784 C 0.57797 0.5157 0.64216 0.0
C1785 C 0.63307 0.53237 0.64661 0.0
C1786 C 0.61924 0.53262 0.62324 0.0
C1787 C 0.5772 0.52553 0.59756 0.0
C1788 C 0.54939 0.51763 0.59541 0.0
C1789 C 0.59159 0.52456 0.62082 0.0
C1790 C 0.53635 0.50831 0.61676 0.0
C1791 C 0.55045 0.5074 0.63987 0.0
H1792 H 0.79307 0.34808 0.98923 0.0
H1793 H 0.74035 0.41127 0.95701 0.0
H1794 H 0.74615 0.39156 0.91555 0.0
H1795 H 0.76708 0.35744 0.88818 0.0
H1796 H 0.81903 0.29345 0.91956 0.0
H1797 H 0.81287 0.31254 0.96164 0.0
C1798 C 0.78256 0.35729 0.97318 0.0
C1799 C 0.76639 0.38118 0.97626 0.0
C1800 C 0.7862 0.34601 0.94922 0.0
C1801 C 0.75303 0.39295 0.95521 0.0
C1802 C 0.7564 0.38178 0.93144 0.0
C1803 C 0.77735 0.34794 0.90423 0.0
C1804 C 0.79388 0.32448 0.90088 0.0
C1805 C 0.77327 0.35864 0.9282 0.0
C1806 C 0.80644 0.31176 0.9218 0.0
C1807 C 0.80281 0.32258 0.94579 0.0
H1808 H 0.97044 0.52833 0.16607 0.0
H1809 H 0.89251 0.54784 0.13026 0.0
H1810 H 0.91496 0.55632 0.09096 0.0
H1811 H 0.95643 0.55542 0.06633 0.0
H1812 H 0.0334 0.53188 0.10161 0.0
H1813 H 0.01174 0.52827 0.14184 0.0
C1814 C 0.95834 0.53461 0.14972 0.0
C1815 C 0.92983 0.53741 0.15104 0.0
C1816 C 0.97129 0.53893 0.1272 0.0
C1817 C 0.91446 0.5454 0.12966 0.0
C1818 C 0.9273 0.55033 0.10724 0.0
C1819 C 0.96853 0.55016 0.08299 0.0
C1820 C -0.00349 0.54434 0.08123 0.0
C1821 C 0.95567 0.54691 0.10575 0.0
C1822 C 0.01189 0.53672 0.10269 0.0
C1823 C -0.00052 0.53448 0.1256 0.0
H1824 H 0.77001 0.69556 0.50098 0.0
H1825 H 0.82001 0.63058 0.47069 0.0
H1826 H 0.8072 0.64534 0.42825 0.0
H1827 H 0.78018 0.67556 0.39985 0.0
H1828 H 0.72875 0.73906 0.43052 0.0
H1829 H 0.74327 0.72564 0.47283 0.0
C1830 C 0.77861 0.68502 0.48511 0.0
C1831 C 0.79623 0.66227 0.48894 0.0
C1832 C 0.77031 0.69288 0.46088 0.0
C1833 C 0.80666 0.64838 0.46818 0.0
C1834 C 0.7991 0.6566 0.44395 0.0
C1835 C 0.77182 0.6861 0.41583 0.0
C1836 C 0.75322 0.70807 0.41213 0.0
C1837 C 0.7805 0.67846 0.44008 0.0
C1838 C 0.74301 0.72201 0.43296 0.0
C1839 C 0.75143 0.71447 0.45711 0.0
H1840 H 0.63561 0.53617 0.82931 0.0
H1841 H 0.56038 0.57348 0.80164 0.0
H1842 H 0.54417 0.57655 0.84382 0.0
H1843 H 0.55039 0.56766 0.88837 0.0
H1844 H 0.62452 0.52916 0.91674 0.0
H1845 H 0.64236 0.52839 0.87472 0.0
C1846 C 0.61567 0.54492 0.83251 0.0
C1847 C 0.59924 0.55439 0.81218 0.0
C1848 C 0.60632 0.54674 0.85702 0.0
C1849 C 0.57351 0.56591 0.81679 0.0
C1850 C 0.56417 0.56776 0.84098 0.0
C1851 C 0.57046 0.55908 0.8854 0.0
C1852 C 0.58597 0.54833 0.9057 0.0
C1853 C 0.58029 0.5581 0.86118 0.0
C1854 C 0.61221 0.53784 0.90154 0.0
C1855 C 0.62231 0.53711 0.87744 0.0
H1856 H 0.75075 0.32831 0.12164 0.0
H1857 H 0.83142 0.36271 0.13712 0.0
H1858 H 0.83549 0.33579 0.17565 0.0
H1859 H 0.81486 0.30509 0.20628 0.0
H1860 H 0.73186 0.27591 0.19388 0.0
H1861 H 0.72988 0.29781 0.15263 0.0
C1862 C 0.76936 0.32952 0.1333 0.0
C1863 C 0.79089 0.34719 0.1265 0.0
C1864 C 0.77104 0.31493 0.15594 0.0
C1865 C 0.81465 0.34916 0.14199 0.0
C1866 C 0.81696 0.33379 0.16399 0.0
C1867 C 0.79655 0.30308 0.19427 0.0
C1868 C 0.7737 0.2885 0.20273 0.0
C1869 C 0.79515 0.31693 0.17131 0.0
C1870 C 0.74976 0.28677 0.1875 0.0
C1871 C 0.74863 0.29938 0.16403 0.0
H1872 H 0.91463 0.49526 0.30341 0.0
H1873 H -0.00574 0.47092 0.27928 0.0
H1874 H 0.00739 0.45714 0.32174 0.0
H1875 H -0.00353 0.45246 0.36565 0.0
H1876 H 0.91736 0.47799 0.39009 0.0
H1877 H 0.90343 0.48976 0.3473 0.0
C1878 C 0.93495 0.48719 0.30747 0.0
C1879 C 0.95353 0.48439 0.28826 0.0
C1880 C 0.94226 0.47897 0.33184 0.0
C1881 C 0.97962 0.47344 0.29376 0.0
C1882 C 0.98711 0.46542 0.318 0.0
C1883 C 0.97616 0.46057 0.36161 0.0
C1884 C 0.95804 0.46442 0.38106 0.0
C1885 C 0.96858 0.46808 0.33715 0.0
C1886 C 0.9316 0.47444 0.37545 0.0
C1887 C 0.92374 0.48156 0.35103 0.0
H1888 H 0.84575 0.65981 0.62496 0.0
H1889 H 0.77752 0.6318 0.66725 0.0
H1890 H 0.7989 0.65165 0.70526 0.0
H1891 H 0.83429 0.68021 0.72542 0.0
H1892 H 0.90173 0.71104 0.68376 0.0
H1893 H 0.88376 0.68575 0.64649 0.0
C1894 C 0.8356 0.65808 0.64251 0.0
C1895 C 0.80995 0.64466 0.64326 0.0
C1896 C 0.84807 0.66948 0.66437 0.0
C1897 C 0.7972 0.64215 0.66616 0.0
C1898 C 0.80946 0.65336 0.68792 0.0
C1899 C 0.84581 0.68058 0.70853 0.0
C1900 C 0.86951 0.69729 0.70742 0.0
C1901 C 0.83469 0.66729 0.68715 0.0
C1902 C 0.88359 0.6981 0.68509 0.0
C1903 C 0.8731 0.684 0.66376 0.0
H1904 H 0.68545 0.64989 0.54576 0.0
H1905 H 0.72896 0.58585 0.50667 0.0
H1906 H 0.69069 0.57981 0.47676 0.0
H1907 H 0.64179 0.58417 0.46871 0.0
H1908 H 0.59593 0.6423 0.51209 0.0
H1909 H 0.63809 0.6608 0.53183 0.0
C1910 C 0.68657 0.63503 0.5304 0.0
C1911 C 0.70926 0.61753 0.52889 0.0
C1912 C 0.66404 0.63087 0.51379 0.0
C1913 C 0.71105 0.59873 0.5087 0.0
C1914 C 0.68935 0.59547 0.49143 0.0
C1915 C 0.64128 0.60172 0.4817 0.0
C1916 C 0.61606 0.61111 0.48973 0.0
C1917 C 0.6652 0.6102 0.49472 0.0
C1918 C 0.61526 0.63439 0.50593 0.0
C1919 C 0.63933 0.64457 0.51767 0.0
H1920 H 0.20078 0.964 0.53947 0.0
H1921 H 0.17178 0.89216 0.5789 0.0
H1922 H 0.12524 0.91049 0.57659 0.0
H1923 H 0.09255 0.94576 0.56176 0.0
H1924 H 0.12067 0.01572 0.51929 0.0
H1925 H 0.16784 -0.00062 0.52442 0.0
C1926 C 0.18429 0.95252 0.54777 0.0
C1927 C 0.18969 0.92682 0.55946 0.0
C1928 C 0.15745 0.9628 0.54571 0.0
C1929 C 0.1681 0.91196 0.5698 0.0
C1930 C 0.14151 0.92243 0.56848 0.0
C1931 C 0.10903 0.95761 0.55383 0.0
C1932 C 0.10314 0.98203 0.54029 0.0
C1933 C 0.13591 0.94767 0.55625 0.0
C1934 C 0.12467 -0.00312 0.52981 0.0
C1935 C 0.15163 0.98753 0.53273 0.0
H1936 H 0.40551 0.90113 0.73466 0.0
H1937 H 0.3281 0.94376 0.73149 0.0
H1938 H 0.30473 0.9008 0.74331 0.0
H1939 H 0.30644 0.85139 0.75494 0.0
H1940 H 0.38412 0.80914 0.75916 0.0
H1941 H 0.40732 0.85195 0.74704 0.0
C1942 C 0.38347 0.90092 0.73622 0.0
C1943 C 0.3685 0.92548 0.73194 0.0
C1944 C 0.37031 0.8764 0.74367 0.0
C1945 C 0.34004 0.92505 0.73455 0.0
C1946 C 0.32671 0.90056 0.74144 0.0
C1947 C 0.32849 0.8516 0.75351 0.0
C1948 C 0.34351 0.82709 0.75806 0.0
C1949 C 0.34168 0.87619 0.74627 0.0
C1950 C 0.37206 0.82773 0.75593 0.0
C1951 C 0.38533 0.85215 0.74881 0.0
H1952 H 0.44217 0.14376 -0.00497 0.0
H1953 H 0.43204 0.10733 0.9214 0.0
H1954 H 0.45105 0.06344 0.93665 0.0
H1955 H 0.45748 0.03252 0.9725 0.0
H1956 H 0.462 0.06779 0.0472 0.0
H1957 H 0.45634 0.11448 0.0302 0.0
C1958 C 0.44473 0.12643 0.98213 0.0
C1959 C 0.43311 0.12773 0.95772 0.0
C1960 C 0.45252 0.10041 0.99165 0.0
C1961 C 0.4393 0.10628 0.94072 0.0
C1962 C 0.44933 0.08085 0.94959 0.0
C1963 C 0.45657 0.05026 0.98522 0.0
C1964 C 0.45907 0.04635 0.01125 0.0
C1965 C 0.45328 0.07705 0.97538 0.0
C1966 C 0.45907 0.06994 0.02717 0.0
C1967 C 0.4564 0.09674 0.01744 0.0
H1968 H 0.72337 0.6087 0.75419 0.0
H1969 H 0.65202 0.65356 0.7272 0.0
H1970 H 0.67582 0.6978 0.73458 0.0
H1971 H 0.71603 0.72419 0.75019 0.0
H1972 H 0.78854 0.68036 0.77511 0.0
H1973 H 0.76515 0.63544 0.76717 0.0
C1974 C 0.71308 0.62814 0.74981 0.0
C1975 C 0.68577 0.62762 0.74045 0.0
C1976 C 0.72697 0.65379 0.75402 0.0
C1977 C 0.67292 0.65312 0.73463 0.0
C1978 C 0.68648 0.67856 0.73891 0.0
C1979 C 0.72661 0.70479 0.75413 0.0
C1980 C 0.7537 0.70554 0.7638 0.0
C1981 C 0.7133 0.67917 0.74897 0.0
C1982 C 0.76751 0.68027 0.768 0.0
C1983 C 0.75417 0.65461 0.7634 0.0
H1984 H 0.84771 0.48105 0.0066 0.0
H1985 H 0.87308 0.42581 0.0661 0.0
H1986 H 0.92115 0.43505 0.05746 0.0
H1987 H 0.95578 0.4611 0.03434 0.0
H1988 H 0.92925 0.51639 0.97523 0.0
H1989 H 0.88168 0.5043 0.98206 0.0
C1990 C 0.8637 0.47106 0.01781 0.0
C1991 C 0.85684 0.45314 0.03725 0.0
C1992 C 0.89106 0.47622 0.01259 0.0
C1993 C 0.87785 0.43991 0.05118 0.0
C1994 C 0.9053 0.44512 0.04619 0.0
C1995 C 0.93959 0.46998 0.02261 0.0
C1996 C 0.94599 0.48962 0.0043 0.0
C1997 C 0.91214 0.46343 0.02704 0.0
C1998 C 0.92482 0.50125 0.98944 0.0
C1999 C 0.89761 0.4945 0.99343 0.0
H2000 H 0.34422 0.09266 0.7943 0.0
H2001 H 0.30733 0.07635 0.72113 0.0
H2002 H 0.27517 0.11436 0.72686 0.0
H2003 H 0.26102 0.15549 0.75068 0.0
H2004 H 0.29547 0.17079 0.82476 0.0
H2005 H 0.32457 0.12955 0.82107 0.0
C2006 C 0.32891 0.0973 0.7798 0.0
C2007 C 0.32839 0.08207 0.75718 0.0
C2008 C 0.30996 0.11886 0.78345 0.0
C2009 C 0.30818 0.08788 0.73866 0.0
C2010 C 0.2898 0.10962 0.7419 0.0
C2011 C 0.27427 0.14919 0.76629 0.0
C2012 C 0.27613 0.16596 0.78795 0.0
C2013 C 0.2909 0.12563 0.76396 0.0
C2014 C 0.29344 0.15787 0.80806 0.0
C2015 C 0.31036 0.13455 0.80579 0.0
H2016 H 0.23239 0.91107 0.28067 0.0
H2017 H 0.15167 0.87976 0.25974 0.0
H2018 H 0.16899 0.83208 0.25849 0.0
H2019 H 0.20715 0.79937 0.26263 0.0
H2020 H 0.28693 0.82951 0.2875 0.0
H2021 H 0.27011 0.87774 0.28766 0.0
C2022 C 0.21861 0.89375 0.27601 0.0
C2023 C 0.19084 0.89886 0.27022 0.0
C2024 C 0.22863 0.86633 0.27571 0.0
C2025 C 0.1731 0.87629 0.26442 0.0
C2026 C 0.18302 0.84906 0.26351 0.0
C2027 C 0.22086 0.81662 0.26779 0.0
C2028 C 0.24829 0.81128 0.27446 0.0
C2029 C 0.21076 0.8439 0.26888 0.0
C2030 C 0.26579 0.83344 0.28195 0.0
C2031 C 0.25615 0.86087 0.28215 0.0
H2032 H 0.49476 0.37074 0.44307 0.0
H2033 H 0.51997 0.42702 0.38562 0.0
H2034 H 0.53442 0.46148 0.4175 0.0
H2035 H 0.53517 0.47736 0.46099 0.0
H2036 H 0.50593 0.42283 0.5179 0.0
H2037 H 0.49844 0.38541 0.48681 0.0
C2038 C 0.50353 0.39048 0.43744 0.0
C2039 C 0.50601 0.3964 0.41197 0.0
C2040 C 0.51125 0.41034 0.45576 0.0
C2041 C 0.51756 0.42203 0.40508 0.0
C2042 C 0.52589 0.44172 0.42328 0.0
C2043 C 0.52801 0.45698 0.46673 0.0
C2044 C 0.52131 0.45263 0.49166 0.0
C2045 C 0.52233 0.43628 0.44861 0.0
C2046 C 0.51141 0.42643 0.4988 0.0
C2047 C 0.50685 0.40523 0.48102 0.0
H2048 H 0.44685 0.72535 0.24443 0.0
H2049 H 0.41855 0.74992 0.17081 0.0
H2050 H 0.37134 0.75142 0.18479 0.0
H2051 H 0.33788 0.74435 0.21812 0.0
H2052 H 0.368 0.72263 0.29212 0.0
H2053 H 0.41457 0.72146 0.27782 0.0
C2054 C 0.43037 0.73105 0.23139 0.0
C2055 C 0.4362 0.7372 0.20652 0.0
C2056 C 0.40352 0.73236 0.23968 0.0
C2057 C 0.41464 0.74506 0.19003 0.0
C2058 C 0.38763 0.74583 0.19803 0.0
C2059 C 0.35468 0.73946 0.23109 0.0
C2060 C 0.34932 0.73344 0.25617 0.0
C2061 C 0.38177 0.7393 0.22281 0.0
C2062 C 0.3714 0.72742 0.27277 0.0
C2063 C 0.39812 0.72665 0.2646 0.0
H2064 H 0.9695 0.72846 0.88521 0.0
H2065 H 0.04673 0.75457 0.9199 0.0
H2066 H 0.04589 0.71448 0.94766 0.0
H2067 H 0.02343 0.67223 0.96184 0.0
H2068 H 0.94505 0.64696 0.92893 0.0
H2069 H 0.94611 0.68664 0.90057 0.0
C2070 C 0.98624 0.72516 0.89871 0.0
C2071 C 0.00825 0.74419 0.90046 0.0
C2072 C 0.98529 0.70247 0.915 0.0
C2073 C 0.02961 0.74007 0.91824 0.0
C2074 C 0.02911 0.71725 0.93414 0.0
C2075 C 0.00626 0.67569 0.94886 0.0
C2076 C 0.98411 0.65679 0.94762 0.0
C2077 C 0.00697 0.69847 0.93278 0.0
C2078 C 0.96241 0.66117 0.93017 0.0
C2079 C 0.963 0.68382 0.91397 0.0
H2080 H 0.07805 0.25064 0.7301 0.0
H2081 H 0.11258 0.25084 0.65723 0.0
H2082 H 0.15845 0.24673 0.67636 0.0
H2083 H 0.18891 0.24392 0.7136 0.0
H2084 H 0.15492 0.24372 0.78669 0.0
H2085 H 0.10876 0.24666 0.76763 0.0
C2086 C 0.09561 0.24983 0.7184 0.0
C2087 C 0.09179 0.2512 0.69222 0.0
C2088 C 0.12206 0.2473 0.72955 0.0
C2089 C 0.11483 0.24991 0.67739 0.0
C2090 C 0.14112 0.24751 0.68832 0.0
C2091 C 0.17144 0.24431 0.72544 0.0
C2092 C 0.1755 0.24359 0.75162 0.0
C2093 C 0.14499 0.24625 0.71436 0.0
C2094 C 0.15249 0.24416 0.76653 0.0
C2095 C 0.12606 0.24597 0.75562 0.0
H2096 H 0.53287 0.63446 0.14505 0.0
H2097 H 0.52415 0.69659 0.0876 0.0
H2098 H 0.52736 0.66006 0.05544 0.0
H2099 H 0.53137 0.60975 0.0436 0.0
H2100 H 0.53822 0.54849 0.10198 0.0
H2101 H 0.53732 0.58533 0.1336 0.0
C2102 C 0.53173 0.64017 0.12551 0.0
C2103 C 0.52823 0.66838 0.11889 0.0
C2104 C 0.53337 0.61908 0.10716 0.0
C2105 C 0.52674 0.67511 0.09336 0.0
C2106 C 0.52864 0.65419 0.07492 0.0
C2107 C 0.53301 0.60458 0.06324 0.0
C2108 C 0.53495 0.57633 0.07035 0.0
C2109 C 0.53186 0.62601 0.08157 0.0
C2110 C 0.53666 0.56998 0.09592 0.0
C2111 C 0.5361 0.59106 0.11408 0.0
H2112 H 0.09738 0.83844 0.83962 0.0
H2113 H 0.05042 0.80777 0.7751 0.0
H2114 H 0.09296 0.80086 0.75286 0.0
H2115 H 0.14378 0.80031 0.75355 0.0
H2116 H 0.18854 0.82686 0.82111 0.0
H2117 H 0.1464 0.83921 0.84002 0.0
C2118 C 0.09625 0.83033 0.82062 0.0
C2119 C 0.07084 0.82325 0.80913 0.0
C2120 C 0.12047 0.8258 0.80844 0.0
C2121 C 0.06982 0.81326 0.78437 0.0
C2122 C 0.09411 0.80921 0.77174 0.0
C2123 C 0.14435 0.80876 0.77241 0.0
C2124 C 0.16965 0.81283 0.78561 0.0
C2125 C 0.11965 0.81481 0.78388 0.0
C2126 C 0.16976 0.82418 0.80997 0.0
C2127 C 0.14553 0.83096 0.82108 0.0
H2128 H -0.00464 0.30878 0.57461 0.0
H2129 H 0.00317 0.35668 0.64335 0.0
H2130 H 0.00033 0.39993 0.62013 0.0
H2131 H -0.00316 0.42454 0.58082 0.0
H2132 H 0.98866 0.37853 0.51124 0.0
H2133 H 0.99012 0.33432 0.53425 0.0
C2134 C -0.00364 0.32869 0.58447 0.0
C2135 C -0.00041 0.32929 0.61081 0.0
C2136 C -0.00541 0.35389 0.57087 0.0
C2137 C 0.00073 0.35538 0.6232 0.0
C2138 C -0.00089 0.38025 0.60991 0.0
C2139 C -0.00472 0.40489 0.57053 0.0
C2140 C -0.00724 0.40497 0.54424 0.0
C2141 C -0.00379 0.37977 0.58381 0.0
C2142 C 0.99053 0.37918 0.53144 0.0
C2143 C 0.99149 0.35388 0.54462 0.0
H2144 H 0.41497 0.29021 0.36038 0.0
H2145 H 0.4463 0.31532 0.28989 0.0
H2146 H 0.44219 0.26739 0.27424 0.0
H2147 H 0.42233 0.22085 0.27828 0.0
H2148 H 0.38892 0.19622 0.34806 0.0
H2149 H 0.40355 0.24066 0.36706 0.0
C2150 C 0.42167 0.28495 0.34188 0.0
C2151 C 0.43076 0.30627 0.32636 0.0
C2152 C 0.41942 0.25729 0.33305 0.0
C2153 C 0.43888 0.29939 0.30218 0.0
C2154 C 0.43681 0.27189 0.29328 0.0
C2155 C 0.41949 0.22451 0.29802 0.0
C2156 C 0.40355 0.20571 0.31147 0.0
C2157 C 0.42624 0.25088 0.30827 0.0
C2158 C 0.40072 0.21057 0.33717 0.0
C2159 C 0.4085 0.23631 0.34788 0.0
H2160 H 0.413 0.49365 0.38168 0.0
H2161 H 0.49718 0.48839 0.36068 0.0
H2162 H 0.51242 0.50641 0.40154 0.0
H2163 H 0.50232 0.5229 0.44303 0.0
H2164 H 0.41906 0.52479 0.46653 0.0
H2165 H 0.40286 0.50908 0.42463 0.0
C2166 C 0.43468 0.49633 0.38611 0.0
C2167 C 0.45391 0.48976 0.36807 0.0
C2168 C 0.44342 0.50633 0.40991 0.0
C2169 C 0.48193 0.49315 0.37418 0.0
C2170 C 0.49069 0.50359 0.39751 0.0
C2171 C 0.48053 0.52045 0.43892 0.0
C2172 C 0.4618 0.52569 0.45763 0.0
C2173 C 0.47164 0.51033 0.41541 0.0
C2174 C 0.43377 0.52136 0.45225 0.0
C2175 C 0.42459 0.51219 0.42841 0.0
H2176 H 0.22148 0.63622 0.07324 0.0
H2177 H 0.29753 0.67857 0.05977 0.0
H2178 H 0.29608 0.70204 0.10059 0.0
H2179 H 0.27513 0.70705 0.14132 0.0
H2180 H 0.19766 0.66641 0.15353 0.0
H2181 H 0.19799 0.64539 0.11194 0.0
C2182 C 0.23766 0.65075 0.07918 0.0
C2183 C 0.25978 0.65541 0.06373 0.0
C2184 C 0.23658 0.66418 0.10248 0.0
C2185 C 0.28033 0.67465 0.07139 0.0
C2186 C 0.27955 0.68793 0.09475 0.0
C2187 C 0.25794 0.69417 0.13478 0.0
C2188 C 0.23657 0.68808 0.15086 0.0
C2189 C 0.25801 0.68243 0.11064 0.0
C2190 C 0.21473 0.67095 0.14193 0.0
C2191 C 0.21479 0.65904 0.11805 0.0
H2192 H 0.10749 0.49267 0.8656 0.0
H2193 H 0.0811 0.57713 0.85147 0.0
H2194 H 0.05667 0.57771 0.89012 0.0
H2195 H 0.04165 0.55424 0.92694 0.0
H2196 H 0.06757 0.46999 0.94263 0.0
H2197 H 0.09284 0.46907 0.904 0.0
C2198 C 0.09676 0.5113 0.87128 0.0
C2199 C 0.09612 0.53485 0.85577 0.0
C2200 C 0.08221 0.51133 0.89343 0.0
C2201 C 0.08184 0.55875 0.8631 0.0
C2202 C 0.06774 0.55906 0.88511 0.0
C2203 C 0.05259 0.53549 0.92191 0.0
C2204 C 0.0525 0.51213 0.93756 0.0
C2205 C 0.06744 0.53536 0.90017 0.0
C2206 C 0.06708 0.48818 0.93077 0.0
C2207 C 0.08171 0.48774 0.90881 0.0
H2208 H 0.23864 0.26466 0.56983 0.0
H2209 H 0.30615 0.32325 0.57061 0.0
H2210 H 0.32539 0.3025 0.60874 0.0
H2211 H 0.31818 0.27395 0.64549 0.0
H2212 H 0.24638 0.22077 0.64697 0.0
H2213 H 0.23471 0.2319 0.60405 0.0
C2214 C 0.25792 0.27237 0.57802 0.0
C2215 C 0.27068 0.29572 0.5679 0.0
C2216 C 0.26815 0.26127 0.60051 0.0
C2217 C 0.29572 0.30553 0.57849 0.0
C2218 C 0.30672 0.29372 0.60026 0.0
C2219 C 0.30011 0.2646 0.63639 0.0
C2220 C 0.28298 0.2471 0.64985 0.0
C2221 C 0.2923 0.27259 0.61212 0.0
C2222 C 0.26021 0.23427 0.63733 0.0
C2223 C 0.25317 0.24093 0.61273 0.0
H2224 H 0.40062 0.45721 0.20713 0.0
H2225 H 0.45552 0.52318 0.23333 0.0
H2226 H 0.47845 0.52201 0.19363 0.0
H2227 H 0.48308 0.50206 0.15198 0.0
H2228 H 0.4307 0.4335 0.12668 0.0
H2229 H 0.40625 0.43617 0.16553 0.0
C2230 C 0.41745 0.47149 0.20403 0.0
C2231 C 0.42631 0.4904 0.22299 0.0
C2232 C 0.43099 0.47016 0.18144 0.0
C2233 C 0.44838 0.50848 0.21894 0.0
C2234 C 0.46149 0.50779 0.19631 0.0
C2235 C 0.46668 0.48727 0.15505 0.0
C2236 C 0.45896 0.46742 0.13643 0.0
C2237 C 0.45312 0.48854 0.17755 0.0
C2238 C 0.43701 0.44911 0.14057 0.0
C2239 C 0.42307 0.45055 0.16282 0.0
H2240 H 0.27487 0.70898 0.9204 0.0
H2241 H 0.32939 0.64135 0.90399 0.0
H2242 H 0.34043 0.66319 0.86469 0.0
H2243 H 0.33175 0.69916 0.8334 0.0
H2244 H 0.27467 0.76512 0.84785 0.0
H2245 H 0.26777 0.74656 0.88953 0.0
C2246 C 0.28944 0.69927 0.90835 0.0
C2247 C 0.30123 0.67353 0.91508 0.0
C2248 C 0.29517 0.7116 0.88536 0.0
C2249 C 0.3199 0.66106 0.89918 0.0
C2250 C 0.32624 0.67355 0.8767 0.0
C2251 C 0.31816 0.70982 0.8458 0.0
C2252 C 0.30378 0.73354 0.83748 0.0
C2253 C 0.3136 0.6985 0.86936 0.0
C2254 C 0.28601 0.74684 0.85376 0.0
C2255 C 0.28197 0.73616 0.87757 0.0
H2256 H 0.1374 0.49644 0.69549 0.0
H2257 H 0.06635 0.4955 0.74077 0.0
H2258 H 0.03667 0.50185 0.70369 0.0
H2259 H 0.03107 0.50943 0.65873 0.0
H2260 H 0.10206 0.50861 0.61331 0.0
H2261 H 0.13162 0.50217 0.65031 0.0
C2262 C 0.11541 0.49737 0.69721 0.0
C2263 C 0.10409 0.4956 0.72078 0.0
C2264 C 0.09848 0.5013 0.6759 0.0
C2265 C 0.07556 0.49684 0.72277 0.0
C2266 C 0.05858 0.50061 0.70162 0.0
C2267 C 0.05298 0.50766 0.65689 0.0
C2268 C 0.06427 0.50982 0.6333 0.0
C2269 C 0.06985 0.5032 0.67814 0.0
C2270 C 0.09279 0.50778 0.6313 0.0
C2271 C 0.10974 0.50371 0.65241 0.0
H2272 H 0.2231 0.29056 0.44443 0.0
H2273 H 0.24033 0.36744 0.40646 0.0
H2274 H 0.25582 0.34076 0.37049 0.0
H2275 H 0.26841 0.29609 0.35218 0.0
H2276 H 0.24917 0.21895 0.38921 0.0
H2277 H 0.2312 0.24558 0.42399 0.0
C2278 C 0.23002 0.30146 0.42815 0.0
C2279 C 0.23097 0.33082 0.42805 0.0
C2280 C 0.23891 0.28606 0.40779 0.0
C2281 C 0.23946 0.34481 0.40683 0.0
C2282 C 0.24847 0.32959 0.38642 0.0
C2283 C 0.25962 0.28491 0.36746 0.0
C2284 C 0.26015 0.25548 0.36804 0.0
C2285 C 0.24882 0.30025 0.387 0.0
C2286 C 0.24941 0.24156 0.38845 0.0
C2287 C 0.23894 0.25675 0.40823 0.0
H2288 H 0.31155 0.38888 0.52552 0.0
H2289 H 0.26662 0.46596 0.52906 0.0
H2290 H 0.30526 0.48862 0.55166 0.0
H2291 H 0.35259 0.48739 0.56717 0.0
H2292 H 0.40027 0.41302 0.55542 0.0
H2293 H 0.35916 0.38764 0.54161 0.0
C2294 C 0.31032 0.41064 0.53126 0.0
C2295 C 0.28666 0.42597 0.52537 0.0
C2296 C 0.33283 0.42371 0.54345 0.0
C2297 C 0.28501 0.45405 0.53295 0.0
C2298 C 0.3069 0.46685 0.5461 0.0
C2299 C 0.35415 0.46567 0.56144 0.0
C2300 C 0.37981 0.45261 0.56155 0.0
C2301 C 0.33107 0.45202 0.55097 0.0
C2302 C 0.38099 0.42391 0.55555 0.0
C2303 C 0.3575 0.40942 0.5471 0.0
H2304 H 0.83836 0.03257 0.52227 0.0
H2305 H 0.85763 0.10804 0.48293 0.0
H2306 H 0.90542 0.09364 0.48126 0.0
H2307 H 0.94224 0.06034 0.49269 0.0
H2308 H 0.92226 0.98607 0.53346 0.0
H2309 H 0.87425 -0.00081 0.53257 0.0
C2310 C 0.85291 0.04591 0.5132 0.0
C2311 C 0.84432 0.07143 0.50282 0.0
C2312 C 0.88031 0.03766 0.51252 0.0
C2313 C 0.86361 0.08834 0.49118 0.0
C2314 C 0.89097 0.08009 0.49018 0.0
C2315 C 0.92729 0.04689 0.50107 0.0
C2316 C 0.93584 0.02224 0.5131 0.0
C2317 C 0.89962 0.05488 0.50098 0.0
C2318 C 0.91627 0.00517 0.52413 0.0
C2319 C 0.88879 0.01268 0.52369 0.0
H2320 H 0.71814 0.093 0.29207 0.0
H2321 H 0.64176 0.13613 0.29973 0.0
H2322 H 0.6646 0.18091 0.29397 0.0
H2323 H 0.70551 0.20769 0.28543 0.0
H2324 H 0.78229 0.16562 0.27663 0.0
H2325 H 0.75997 0.12051 0.28376 0.0
C2326 C 0.70667 0.11227 0.29285 0.0
C2327 C 0.67834 0.1113 0.29645 0.0
C2328 C 0.71986 0.13805 0.28889 0.0
C2329 C 0.66358 0.13636 0.29699 0.0
C2330 C 0.67659 0.16196 0.2936 0.0
C2331 C 0.71746 0.18869 0.28495 0.0
C2332 C 0.74553 0.19006 0.28037 0.0
C2333 C 0.70459 0.16301 0.2892 0.0
C2334 C 0.7606 0.16516 0.27992 0.0
C2335 C 0.74788 0.13938 0.28415 0.0
H2336 H 0.69162 0.94982 0.04498 0.0
H2337 H 0.66795 0.86719 0.0187 0.0
H2338 H 0.62123 0.88339 0.00977 0.0
H2339 H 0.58757 0.92178 0.0086 0.0
H2340 H 0.61252 0.00386 0.03538 0.0
H2341 H 0.65876 0.98728 0.04428 0.0
C2342 C 0.67623 0.93525 0.03745 0.0
C2343 C 0.68314 0.90745 0.03241 0.0
C2344 C 0.64988 0.94477 0.03196 0.0
C2345 C 0.66299 0.88873 0.02283 0.0
C2346 C 0.6364 0.89803 0.0175 0.0
C2347 C 0.60335 0.936 0.01599 0.0
C2348 C 0.59699 0.96396 0.02113 0.0
C2349 C 0.62975 0.92615 0.02165 0.0
C2350 C 0.6172 0.98224 0.03121 0.0
C2351 C 0.64351 0.97277 0.03644 0.0
H2352 H 0.41218 0.37243 0.2602 0.0
H2353 H 0.35604 0.389 0.31856 0.0
H2354 H 0.3387 0.34087 0.31502 0.0
H2355 H 0.33966 0.29435 0.29535 0.0
H2356 H 0.39467 0.27851 0.23583 0.0
H2357 H 0.41221 0.32639 0.23972 0.0
C2358 C 0.39618 0.3655 0.27219 0.0
C2359 C 0.38549 0.38415 0.28973 0.0
C2360 C 0.38604 0.33809 0.26973 0.0
C2361 C 0.36454 0.37501 0.30491 0.0
C2362 C 0.35468 0.34753 0.30291 0.0
C2363 C 0.35544 0.30136 0.28315 0.0
C2364 C 0.36584 0.28286 0.2653 0.0
C2365 C 0.36528 0.32892 0.28537 0.0
C2366 C 0.3862 0.29234 0.24961 0.0
C2367 C 0.39629 0.31969 0.25187 0.0
H2368 H 0.17414 0.63101 0.98766 0.0
H2369 H 0.20689 0.5499 0.97013 0.0
H2370 H 0.16532 0.5274 0.98394 0.0
H2371 H 0.1198 0.53059 0.00095 0.0
H2372 H 0.08594 0.61146 0.01718 0.0
H2373 H 0.12811 0.6342 0.00451 0.0
C2374 C 0.17207 0.60843 0.98662 0.0
C2375 C 0.19359 0.59218 0.97779 0.0
C2376 C 0.14816 0.59556 -0.00517 0.0
C2377 C 0.19061 0.56292 0.97675 0.0
C2378 C 0.16692 0.55001 0.98481 0.0
C2379 C 0.12183 0.55317 0.00219 0.0
C2380 C 0.09995 0.5693 0.01035 0.0
C2381 C 0.14569 0.56609 -0.00591 0.0
C2382 C 0.10264 0.59858 0.01122 0.0
C2383 C 0.12664 0.61159 0.00377 0.0
H2384 H 0.68161 0.91752 0.33111 0.0
H2385 H 0.74141 0.9621 0.28956 0.0
H2386 H 0.76652 0.91874 0.28316 0.0
H2387 H 0.76932 0.86721 0.28655 0.0
H2388 H 0.7102 0.82361 0.32984 0.0
H2389 H 0.68719 0.86738 0.33839 0.0
C2390 C 0.70036 0.91781 0.32096 0.0
C2391 C 0.70951 0.94293 0.31068 0.0
C2392 C 0.71472 0.89286 0.31744 0.0
C2393 C 0.73397 0.94303 0.29775 0.0
C2394 C 0.74824 0.91819 0.29392 0.0
C2395 C 0.75154 0.86738 0.29801 0.0
C2396 C 0.74137 0.84209 0.30729 0.0
C2397 C 0.73847 0.89283 0.3032 0.0
C2398 C 0.7185 0.84271 0.32239 0.0
C2399 C 0.70522 0.86776 0.32728 0.0
H2400 H 0.82853 0.09481 0.78434 0.0
H2401 H 0.88847 0.13489 0.83422 0.0
H2402 H 0.86178 0.17777 0.83375 0.0
H2403 H 0.82348 0.20499 0.81675 0.0
H2404 H 0.76507 0.16653 0.76433 0.0
H2405 H 0.78893 0.12193 0.76832 0.0
C2406 C 0.83548 0.11283 0.79537 0.0
C2407 C 0.86042 0.11171 0.8093 0.0
C2408 C 0.82041 0.13777 0.79442 0.0
C2409 C 0.86939 0.13529 0.82328 0.0
C2410 C 0.85416 0.15982 0.82301 0.0
C2411 C 0.81571 0.18677 0.80643 0.0
C2412 C 0.79252 0.18911 0.79027 0.0
C2413 C 0.82993 0.16147 0.80828 0.0
C2414 C 0.78292 0.16532 0.77687 0.0
C2415 C 0.79658 0.13982 0.77912 0.0
loop_
_geom_bond_atom_site_label_1
_geom_bond_atom_site_label_2
_geom_bond_distance
_geom_bond_site_symmetry_2
_ccdc_geom_bond_type
C0 O1 1.306 . S
C0 O3 1.160 . S
O1 C0 1.306 . S
O1 Cd2 2.228 . S
Cd2 O1 2.228 . S
Cd2 O6 2.273 . S
Cd2 O10 2.277 . S
O3 C0 1.160 . S
O3 Cd4 2.203 . S
Cd4 O3 2.203 . S
Cd4 O6 2.411 . S
Cd4 O7 2.333 . S
Cd4 O8 2.352 . S
Cd4 O12 2.277 . S
Cd4 O13 2.356 . S
C5 O10 1.209 . S
C5 O12 1.226 . S
O6 Cd2 2.273 . S
O6 Cd4 2.411 . S
O6 C9 1.320 . S
O7 Cd4 2.333 . S
O7 C9 1.214 . S
O8 Cd4 2.352 . S
O8 C11 1.258 . S
C9 O6 1.320 . S
C9 O7 1.214 . S
O10 Cd2 2.277 . S
O10 C5 1.209 . S
C11 O8 1.258 . S
C11 O13 1.282 . S
O12 Cd4 2.277 . S
O12 C5 1.226 . S
O13 Cd4 2.356 . S
O13 C11 1.282 . S
C14 O15 1.306 1_655 S
C14 O17 1.160 . S
O15 C14 1.306 1_455 S
O15 Cd16 2.228 . S
Cd16 O15 2.228 . S
Cd16 O20 2.273 . S
Cd16 O24 2.277 . S
O17 C14 1.160 . S
O17 Cd18 2.203 1_655 S
Cd18 O17 2.203 1_455 S
Cd18 O20 2.411 . S
Cd18 O21 2.333 . S
Cd18 O22 2.352 . S
Cd18 O26 2.277 . S
Cd18 O27 2.356 . S
C19 O24 1.209 . S
C19 O26 1.226 . S
O20 Cd16 2.273 . S
O20 Cd18 2.411 . S
O20 C23 1.320 . S
O21 Cd18 2.333 . S
O21 C23 1.214 . S
O22 Cd18 2.352 . S
O22 C25 1.258 . S
C23 O20 1.320 . S
C23 O21 1.214 . S
O24 Cd16 2.277 . S
O24 C19 1.209 . S
C25 O22 1.258 . S
C25 O27 1.282 . S
O26 Cd18 2.277 . S
O26 C19 1.226 . S
O27 Cd18 2.356 . S
O27 C25 1.282 . S
C28 O29 1.306 . S
C28 O31 1.160 . S
O29 C28 1.306 . S
O29 Cd30 2.228 . S
Cd30 O29 2.228 . S
Cd30 O34 2.273 . S
Cd30 O38 2.277 . S
O31 C28 1.160 . S
O31 Cd32 2.203 . S
Cd32 O31 2.203 . S
Cd32 O34 2.411 . S
Cd32 O35 2.333 . S
Cd32 O36 2.352 . S
Cd32 O40 2.277 . S
Cd32 O41 2.356 . S
C33 O38 1.209 . S
C33 O40 1.226 . S
O34 Cd30 2.273 . S
O34 Cd32 2.411 . S
O34 C37 1.320 . S
O35 Cd32 2.333 . S
O35 C37 1.214 . S
O36 Cd32 2.352 . S
O36 C39 1.258 . S
C37 O34 1.320 . S
C37 O35 1.214 . S
O38 Cd30 2.277 . S
O38 C33 1.209 . S
C39 O36 1.258 . S
C39 O41 1.282 . S
O40 Cd32 2.277 . S
O40 C33 1.226 . S
O41 Cd32 2.356 . S
O41 C39 1.282 . S
C42 O43 1.306 . S
C42 O45 1.160 . S
O43 C42 1.306 . S
O43 Cd44 2.228 . S
Cd44 O43 2.228 . S
Cd44 O48 2.273 . S
Cd44 O52 2.277 . S
O45 C42 1.160 . S
O45 Cd46 2.203 . S
Cd46 O45 2.203 . S
Cd46 O48 2.411 . S
Cd46 O49 2.333 . S
Cd46 O50 2.352 . S
Cd46 O54 2.277 . S
Cd46 O55 2.356 . S
C47 O52 1.209 . S
C47 O54 1.226 . S
O48 Cd44 2.273 . S
O48 Cd46 2.411 . S
O48 C51 1.320 . S
O49 Cd46 2.333 . S
O49 C51 1.214 . S
O50 Cd46 2.352 . S
O50 C53 1.258 . S
C51 O48 1.320 . S
C51 O49 1.214 . S
O52 Cd44 2.277 . S
O52 C47 1.209 . S
C53 O50 1.258 . S
C53 O55 1.282 . S
O54 Cd46 2.277 . S
O54 C47 1.226 . S
O55 Cd46 2.356 . S
O55 C53 1.282 . S
C56 O57 1.306 . S
C56 O59 1.160 . S
O57 C56 1.306 . S
O57 Cd58 2.228 . S
Cd58 O57 2.228 . S
Cd58 O62 2.273 . S
Cd58 O66 2.277 . S
O59 C56 1.160 . S
O59 Cd60 2.203 . S
Cd60 O59 2.203 . S
Cd60 O62 2.411 . S
Cd60 O63 2.333 . S
Cd60 O64 2.352 1_545 S
Cd60 O68 2.277 . S
Cd60 O69 2.356 1_545 S
C61 O66 1.209 . S
C61 O68 1.226 . S
O62 Cd58 2.273 . S
O62 Cd60 2.411 . S
O62 C65 1.320 . S
O63 Cd60 2.333 . S
O63 C65 1.214 . S
O64 Cd60 2.352 1_565 S
O64 C67 1.258 . S
C65 O62 1.320 . S
C65 O63 1.214 . S
O66 Cd58 2.277 . S
O66 C61 1.209 . S
C67 O64 1.258 . S
C67 O69 1.282 . S
O68 Cd60 2.277 . S
O68 C61 1.226 . S
O69 Cd60 2.356 1_565 S
O69 C67 1.282 . S
C70 O71 1.306 . S
C70 O73 1.160 . S
O71 C70 1.306 . S
O71 Cd72 2.228 . S
Cd72 O71 2.228 . S
Cd72 O76 2.273 . S
Cd72 O80 2.277 . S
O73 C70 1.160 . S
O73 Cd74 2.203 . S
Cd74 O73 2.203 . S
Cd74 O76 2.411 . S
Cd74 O77 2.333 . S
Cd74 O78 2.352 . S
Cd74 O82 2.277 . S
Cd74 O83 2.356 . S
C75 O80 1.209 . S
C75 O82 1.226 . S
O76 Cd72 2.273 . S
O76 Cd74 2.411 . S
O76 C79 1.320 . S
O77 Cd74 2.333 . S
O77 C79 1.214 . S
O78 Cd74 2.352 . S
O78 C81 1.258 . S
C79 O76 1.320 . S
C79 O77 1.214 . S
O80 Cd72 2.277 . S
O80 C75 1.209 . S
C81 O78 1.258 . S
C81 O83 1.282 . S
O82 Cd74 2.277 . S
O82 C75 1.226 . S
O83 Cd74 2.356 . S
O83 C81 1.282 . S
C84 O85 1.306 1_545 S
C84 O87 1.160 . S
O85 C84 1.306 1_565 S
O85 Cd86 2.228 . S
Cd86 O85 2.228 . S
Cd86 O90 2.273 1_565 S
Cd86 O94 2.277 . S
O87 C84 1.160 . S
O87 Cd88 2.203 . S
Cd88 O87 2.203 . S
Cd88 O90 2.411 . S
Cd88 O91 2.333 . S
Cd88 O92 2.352 . S
Cd88 O96 2.277 1_545 S
Cd88 O97 2.356 . S
C89 O94 1.209 . S
C89 O96 1.226 . S
O90 Cd86 2.273 1_545 S
O90 Cd88 2.411 . S
O90 C93 1.320 . S
O91 Cd88 2.333 . S
O91 C93 1.214 . S
O92 Cd88 2.352 . S
O92 C95 1.258 . S
C93 O90 1.320 . S
C93 O91 1.214 . S
O94 Cd86 2.277 . S
O94 C89 1.209 . S
C95 O92 1.258 . S
C95 O97 1.282 . S
O96 Cd88 2.277 1_565 S
O96 C89 1.226 . S
O97 Cd88 2.356 . S
O97 C95 1.282 . S
C98 O99 1.306 . S
C98 O101 1.160 . S
O99 C98 1.306 . S
O99 Cd100 2.228 . S
Cd100 O99 2.228 . S
Cd100 O104 2.273 . S
Cd100 O108 2.277 . S
O101 C98 1.160 . S
O101 Cd102 2.203 . S
Cd102 O101 2.203 . S
Cd102 O104 2.411 . S
Cd102 O105 2.333 . S
Cd102 O106 2.352 1_554 S
Cd102 O110 2.277 . S
Cd102 O111 2.356 1_554 S
C103 O108 1.209 . S
C103 O110 1.226 . S
O104 Cd100 2.273 . S
O104 Cd102 2.411 . S
O104 C107 1.320 . S
O105 Cd102 2.333 . S
O105 C107 1.214 . S
O106 Cd102 2.352 1_556 S
O106 C109 1.258 . S
C107 O104 1.320 . S
C107 O105 1.214 . S
O108 Cd100 2.277 . S
O108 C103 1.209 . S
C109 O106 1.258 . S
C109 O111 1.282 . S
O110 Cd102 2.277 . S
O110 C103 1.226 . S
O111 Cd102 2.356 1_556 S
O111 C109 1.282 . S
C112 O113 1.306 . S
C112 O115 1.160 . S
O113 C112 1.306 . S
O113 Cd114 2.228 . S
Cd114 O113 2.228 . S
Cd114 O118 2.273 . S
Cd114 O122 2.277 . S
O115 C112 1.160 . S
O115 Cd116 2.203 . S
Cd116 O115 2.203 . S
Cd116 O118 2.411 . S
Cd116 O119 2.333 . S
Cd116 O120 2.352 . S
Cd116 O124 2.277 . S
Cd116 O125 2.356 . S
C117 O122 1.209 . S
C117 O124 1.226 . S
O118 Cd114 2.273 . S
O118 Cd116 2.411 . S
O118 C121 1.320 . S
O119 Cd116 2.333 . S
O119 C121 1.214 . S
O120 Cd116 2.352 . S
O120 C123 1.258 . S
C121 O118 1.320 . S
C121 O119 1.214 . S
O122 Cd114 2.277 . S
O122 C117 1.209 . S
C123 O120 1.258 . S
C123 O125 1.282 . S
O124 Cd116 2.277 . S
O124 C117 1.226 . S
O125 Cd116 2.356 . S
O125 C123 1.282 . S
C126 O127 1.306 . S
C126 O129 1.160 . S
O127 C126 1.306 . S
O127 Cd128 2.228 . S
Cd128 O127 2.228 . S
Cd128 O132 2.273 . S
Cd128 O136 2.277 . S
O129 C126 1.160 . S
O129 Cd130 2.203 . S
Cd130 O129 2.203 . S
Cd130 O132 2.411 . S
Cd130 O133 2.333 . S
Cd130 O134 2.352 . S
Cd130 O138 2.277 . S
Cd130 O139 2.356 . S
C131 O136 1.209 . S
C131 O138 1.226 . S
O132 Cd128 2.273 . S
O132 Cd130 2.411 . S
O132 C135 1.320 . S
O133 Cd130 2.333 . S
O133 C135 1.214 . S
O134 Cd130 2.352 . S
O134 C137 1.258 . S
C135 O132 1.320 . S
C135 O133 1.214 . S
O136 Cd128 2.277 . S
O136 C131 1.209 . S
C137 O134 1.258 . S
C137 O139 1.282 . S
O138 Cd130 2.277 . S
O138 C131 1.226 . S
O139 Cd130 2.356 . S
O139 C137 1.282 . S
C140 O141 1.306 . S
C140 O143 1.160 . S
O141 C140 1.306 . S
O141 Cd142 2.228 . S
Cd142 O141 2.228 . S
Cd142 O146 2.273 . S
Cd142 O150 2.277 . S
O143 C140 1.160 . S
O143 Cd144 2.203 . S
Cd144 O143 2.203 . S
Cd144 O146 2.411 . S
Cd144 O147 2.333 . S
Cd144 O148 2.352 . S
Cd144 O152 2.277 . S
Cd144 O153 2.356 . S
C145 O150 1.209 . S
C145 O152 1.226 . S
O146 Cd142 2.273 . S
O146 Cd144 2.411 . S
O146 C149 1.320 . S
O147 Cd144 2.333 . S
O147 C149 1.214 . S
O148 Cd144 2.352 . S
O148 C151 1.258 . S
C149 O146 1.320 . S
C149 O147 1.214 . S
O150 Cd142 2.277 . S
O150 C145 1.209 . S
C151 O148 1.258 . S
C151 O153 1.282 . S
O152 Cd144 2.277 . S
O152 C145 1.226 . S
O153 Cd144 2.356 . S
O153 C151 1.282 . S
C154 O155 1.306 . S
C154 O157 1.160 . S
O155 C154 1.306 . S
O155 Cd156 2.228 . S
Cd156 O155 2.228 . S
Cd156 O160 2.273 . S
Cd156 O164 2.277 . S
O157 C154 1.160 . S
O157 Cd158 2.203 . S
Cd158 O157 2.203 . S
Cd158 O160 2.411 . S
Cd158 O161 2.333 . S
Cd158 O162 2.352 . S
Cd158 O166 2.277 . S
Cd158 O167 2.356 . S
C159 O164 1.209 . S
C159 O166 1.226 . S
O160 Cd156 2.273 . S
O160 Cd158 2.411 . S
O160 C163 1.320 . S
O161 Cd158 2.333 . S
O161 C163 1.214 . S
O162 Cd158 2.352 . S
O162 C165 1.258 . S
C163 O160 1.320 . S
C163 O161 1.214 . S
O164 Cd156 2.277 . S
O164 C159 1.209 . S
C165 O162 1.258 . S
C165 O167 1.282 . S
O166 Cd158 2.277 . S
O166 C159 1.226 . S
O167 Cd158 2.356 . S
O167 C165 1.282 . S
C168 O169 1.306 . S
C168 O171 1.160 . S
O169 C168 1.306 . S
O169 Cd170 2.228 1_655 S
Cd170 O169 2.228 1_455 S
Cd170 O174 2.273 . S
Cd170 O178 2.277 . S
O171 C168 1.160 . S
O171 Cd172 2.203 1_655 S
Cd172 O171 2.203 1_455 S
Cd172 O174 2.411 . S
Cd172 O175 2.333 . S
Cd172 O176 2.350 1_455 S
Cd172 O180 2.277 . S
Cd172 O181 2.356 . S
C173 O178 1.209 . S
C173 O180 1.226 . S
O174 Cd170 2.273 . S
O174 Cd172 2.411 . S
O174 C177 1.320 . S
O175 Cd172 2.333 . S
O175 C177 1.214 . S
O176 Cd172 2.350 1_655 S
O176 C179 1.255 1_655 S
C177 O174 1.320 . S
C177 O175 1.214 . S
O178 Cd170 2.277 . S
O178 C173 1.209 . S
C179 O176 1.255 1_455 S
C179 O181 1.282 . S
O180 Cd172 2.277 . S
O180 C173 1.226 . S
O181 Cd172 2.356 . S
O181 C179 1.282 . S
C182 O183 1.306 1_655 S
C182 O185 1.160 . S
O183 C182 1.306 1_455 S
O183 Cd184 2.228 . S
Cd184 O183 2.228 . S
Cd184 O188 2.273 . S
Cd184 O192 2.277 . S
O185 C182 1.160 . S
O185 Cd186 2.203 1_655 S
Cd186 O185 2.203 1_455 S
Cd186 O188 2.411 . S
Cd186 O189 2.333 . S
Cd186 O190 2.352 . S
Cd186 O194 2.277 . S
Cd186 O195 2.356 . S
C187 O192 1.209 . S
C187 O194 1.226 . S
O188 Cd184 2.273 . S
O188 Cd186 2.411 . S
O188 C191 1.320 . S
O189 Cd186 2.333 . S
O189 C191 1.214 . S
O190 Cd186 2.352 . S
O190 C193 1.258 . S
C191 O188 1.320 . S
C191 O189 1.214 . S
O192 Cd184 2.277 . S
O192 C187 1.209 . S
C193 O190 1.258 . S
C193 O195 1.282 . S
O194 Cd186 2.277 . S
O194 C187 1.226 . S
O195 Cd186 2.356 . S
O195 C193 1.282 . S
C196 O197 1.306 . S
C196 O199 1.160 . S
O197 C196 1.306 . S
O197 Cd198 2.228 . S
Cd198 O197 2.228 . S
Cd198 O202 2.273 . S
Cd198 O206 2.277 . S
O199 C196 1.160 . S
O199 Cd200 2.203 . S
Cd200 O199 2.203 . S
Cd200 O202 2.411 . S
Cd200 O203 2.333 . S
Cd200 O204 2.352 . S
Cd200 O208 2.277 . S
Cd200 O209 2.356 . S
C201 O206 1.209 . S
C201 O208 1.226 . S
O202 Cd198 2.273 . S
O202 Cd200 2.411 . S
O202 C205 1.320 . S
O203 Cd200 2.333 . S
O203 C205 1.214 . S
O204 Cd200 2.352 . S
O204 C207 1.258 . S
C205 O202 1.320 . S
C205 O203 1.214 . S
O206 Cd198 2.277 . S
O206 C201 1.209 . S
C207 O204 1.258 . S
C207 O209 1.282 . S
O208 Cd200 2.277 . S
O208 C201 1.226 . S
O209 Cd200 2.356 . S
O209 C207 1.282 . S
C210 O211 1.306 . S
C210 O213 1.160 . S
O211 C210 1.306 . S
O211 Cd212 2.228 . S
Cd212 O211 2.228 . S
Cd212 O216 2.273 . S
Cd212 O220 2.277 . S
O213 C210 1.160 . S
O213 Cd214 2.203 . S
Cd214 O213 2.203 . S
Cd214 O216 2.411 . S
Cd214 O217 2.333 . S
Cd214 O218 2.352 . S
Cd214 O222 2.277 . S
Cd214 O223 2.356 . S
C215 O220 1.209 . S
C215 O222 1.226 . S
O216 Cd212 2.273 . S
O216 Cd214 2.411 . S
O216 C219 1.320 . S
O217 Cd214 2.333 . S
O217 C219 1.214 . S
O218 Cd214 2.352 . S
O218 C221 1.258 . S
C219 O216 1.320 . S
C219 O217 1.214 . S
O220 Cd212 2.277 . S
O220 C215 1.209 . S
C221 O218 1.258 . S
C221 O223 1.282 . S
O222 Cd214 2.277 . S
O222 C215 1.226 . S
O223 Cd214 2.356 . S
O223 C221 1.282 . S
C224 O225 1.306 1_545 S
C224 O227 1.160 . S
O225 C224 1.306 1_565 S
O225 Cd226 2.228 . S
Cd226 O225 2.228 . S
Cd226 O230 2.273 1_565 S
Cd226 O234 2.277 . S
O227 C224 1.160 . S
O227 Cd228 2.203 . S
Cd228 O227 2.203 . S
Cd228 O230 2.411 . S
Cd228 O231 2.333 . S
Cd228 O232 2.352 . S
Cd228 O236 2.277 1_545 S
Cd228 O237 2.356 . S
C229 O234 1.209 . S
C229 O236 1.226 . S
O230 Cd226 2.273 1_545 S
O230 Cd228 2.411 . S
O230 C233 1.320 . S
O231 Cd228 2.333 . S
O231 C233 1.214 . S
O232 Cd228 2.352 . S
O232 C235 1.258 . S
C233 O230 1.320 . S
C233 O231 1.214 . S
O234 Cd226 2.277 . S
O234 C229 1.209 . S
C235 O232 1.258 . S
C235 O237 1.282 . S
O236 Cd228 2.277 1_565 S
O236 C229 1.226 . S
O237 Cd228 2.356 . S
O237 C235 1.282 . S
C238 O239 1.306 . S
C238 O241 1.160 . S
O239 C238 1.306 . S
O239 Cd240 2.228 . S
Cd240 O239 2.228 . S
Cd240 O244 2.273 . S
Cd240 O248 2.277 . S
O241 C238 1.160 . S
O241 Cd242 2.203 . S
Cd242 O241 2.203 . S
Cd242 O244 2.411 . S
Cd242 O245 2.333 . S
Cd242 O246 2.352 . S
Cd242 O250 2.277 . S
Cd242 O251 2.356 . S
C243 O248 1.209 . S
C243 O250 1.226 . S
O244 Cd240 2.273 . S
O244 Cd242 2.411 . S
O244 C247 1.320 . S
O245 Cd242 2.333 . S
O245 C247 1.214 . S
O246 Cd242 2.352 . S
O246 C249 1.258 . S
C247 O244 1.320 . S
C247 O245 1.214 . S
O248 Cd240 2.277 . S
O248 C243 1.209 . S
C249 O246 1.258 . S
C249 O251 1.282 . S
O250 Cd242 2.277 . S
O250 C243 1.226 . S
O251 Cd242 2.356 . S
O251 C249 1.282 . S
C252 O253 1.306 . S
C252 O255 1.160 . S
O253 C252 1.306 . S
O253 Cd254 2.228 . S
Cd254 O253 2.228 . S
Cd254 O258 2.273 . S
Cd254 O262 2.277 . S
O255 C252 1.160 . S
O255 Cd256 2.203 . S
Cd256 O255 2.203 . S
Cd256 O258 2.411 . S
Cd256 O259 2.333 . S
Cd256 O260 2.352 1_545 S
Cd256 O264 2.277 . S
Cd256 O265 2.356 1_545 S
C257 O262 1.209 . S
C257 O264 1.226 . S
O258 Cd254 2.273 . S
O258 Cd256 2.411 . S
O258 C261 1.320 . S
O259 Cd256 2.333 . S
O259 C261 1.214 . S
O260 Cd256 2.352 1_565 S
O260 C263 1.258 . S
C261 O258 1.320 . S
C261 O259 1.214 . S
O262 Cd254 2.277 . S
O262 C257 1.209 . S
C263 O260 1.258 . S
C263 O265 1.282 . S
O264 Cd256 2.277 . S
O264 C257 1.226 . S
O265 Cd256 2.356 1_565 S
O265 C263 1.282 . S
C266 O267 1.306 . S
C266 O269 1.160 . S
O267 C266 1.306 . S
O267 Cd268 2.228 1_554 S
Cd268 O267 2.228 1_556 S
Cd268 O272 2.273 1_556 S
Cd268 O276 2.277 . S
O269 C266 1.160 . S
O269 Cd270 2.203 . S
Cd270 O269 2.203 . S
Cd270 O272 2.411 . S
Cd270 O273 2.333 . S
Cd270 O274 2.352 . S
Cd270 O278 2.277 1_554 S
Cd270 O279 2.356 . S
C271 O276 1.209 . S
C271 O278 1.226 . S
O272 Cd268 2.273 1_554 S
O272 Cd270 2.411 . S
O272 C275 1.320 . S
O273 Cd270 2.333 . S
O273 C275 1.214 . S
O274 Cd270 2.352 . S
O274 C277 1.258 . S
C275 O272 1.320 . S
C275 O273 1.214 . S
O276 Cd268 2.277 . S
O276 C271 1.209 . S
C277 O274 1.258 . S
C277 O279 1.282 . S
O278 Cd270 2.277 1_556 S
O278 C271 1.226 . S
O279 Cd270 2.356 . S
O279 C277 1.282 . S
C280 O281 1.306 . S
C280 O283 1.160 1_554 S
O281 C280 1.306 . S
O281 Cd282 2.228 . S
Cd282 O281 2.228 . S
Cd282 O286 2.273 . S
Cd282 O290 2.277 . S
O283 C280 1.160 1_556 S
O283 Cd284 2.203 . S
Cd284 O283 2.203 . S
Cd284 O286 2.411 1_556 S
Cd284 O287 2.333 . S
Cd284 O288 2.352 . S
Cd284 O292 2.277 1_556 S
Cd284 O293 2.356 . S
C285 O290 1.209 . S
C285 O292 1.226 . S
O286 Cd282 2.273 . S
O286 Cd284 2.411 1_554 S
O286 C289 1.320 1_554 S
O287 Cd284 2.333 . S
O287 C289 1.214 . S
O288 Cd284 2.352 . S
O288 C291 1.258 . S
C289 O286 1.320 1_556 S
C289 O287 1.214 . S
O290 Cd282 2.277 . S
O290 C285 1.209 . S
C291 O288 1.258 . S
C291 O293 1.282 . S
O292 Cd284 2.277 1_554 S
O292 C285 1.226 . S
O293 Cd284 2.356 . S
O293 C291 1.282 . S
C294 O295 1.306 . S
C294 O297 1.160 . S
O295 C294 1.306 . S
O295 Cd296 2.228 . S
Cd296 O295 2.228 . S
Cd296 O300 2.273 . S
Cd296 O304 2.277 . S
O297 C294 1.160 . S
O297 Cd298 2.203 . S
Cd298 O297 2.203 . S
Cd298 O300 2.411 . S
Cd298 O301 2.333 . S
Cd298 O302 2.352 . S
Cd298 O306 2.277 . S
Cd298 O307 2.356 . S
C299 O304 1.209 . S
C299 O306 1.226 . S
O300 Cd296 2.273 . S
O300 Cd298 2.411 . S
O300 C303 1.320 . S
O301 Cd298 2.333 . S
O301 C303 1.214 . S
O302 Cd298 2.352 . S
O302 C305 1.258 . S
C303 O300 1.320 . S
C303 O301 1.214 . S
O304 Cd296 2.277 . S
O304 C299 1.209 . S
C305 O302 1.258 . S
C305 O307 1.282 . S
O306 Cd298 2.277 . S
O306 C299 1.226 . S
O307 Cd298 2.356 . S
O307 C305 1.282 . S
C308 O309 1.306 . S
C308 O311 1.160 . S
O309 C308 1.306 . S
O309 Cd310 2.228 . S
Cd310 O309 2.228 . S
Cd310 O314 2.273 . S
Cd310 O318 2.277 . S
O311 C308 1.160 . S
O311 Cd312 2.203 . S
Cd312 O311 2.203 . S
Cd312 O314 2.411 . S
Cd312 O315 2.333 . S
Cd312 O316 2.352 . S
Cd312 O320 2.277 . S
Cd312 O321 2.356 . S
C313 O318 1.209 . S
C313 O320 1.226 . S
O314 Cd310 2.273 . S
O314 Cd312 2.411 . S
O314 C317 1.320 . S
O315 Cd312 2.333 . S
O315 C317 1.214 . S
O316 Cd312 2.352 . S
O316 C319 1.258 . S
C317 O314 1.320 . S
C317 O315 1.214 . S
O318 Cd310 2.277 . S
O318 C313 1.209 . S
C319 O316 1.258 . S
C319 O321 1.282 . S
O320 Cd312 2.277 . S
O320 C313 1.226 . S
O321 Cd312 2.356 . S
O321 C319 1.282 . S
C322 O323 1.306 . S
C322 O325 1.160 . S
O323 C322 1.306 . S
O323 Cd324 2.228 . S
Cd324 O323 2.228 . S
Cd324 O328 2.273 . S
Cd324 O332 2.277 . S
O325 C322 1.160 . S
O325 Cd326 2.203 . S
Cd326 O325 2.203 . S
Cd326 O328 2.411 . S
Cd326 O329 2.333 . S
Cd326 O330 2.352 . S
Cd326 O334 2.277 . S
Cd326 O335 2.356 . S
C327 O332 1.209 . S
C327 O334 1.226 . S
O328 Cd324 2.273 . S
O328 Cd326 2.411 . S
O328 C331 1.320 . S
O329 Cd326 2.333 . S
O329 C331 1.214 . S
O330 Cd326 2.352 . S
O330 C333 1.258 . S
C331 O328 1.320 . S
C331 O329 1.214 . S
O332 Cd324 2.277 . S
O332 C327 1.209 . S
C333 O330 1.258 . S
C333 O335 1.282 . S
O334 Cd326 2.277 . S
O334 C327 1.226 . S
O335 Cd326 2.356 . S
O335 C333 1.282 . S
C336 O352 1.281 . S
C336 O354 1.254 . S
N337 C338 1.333 1_565 S
N337 C342 1.307 . S
N337 Zn343 2.020 1_665 S
C338 N337 1.333 1_545 S
C338 C339 1.379 . S
C338 H356 0.952 . S
C339 C338 1.379 . S
C339 C340 1.390 1_545 S
C339 H366 0.949 . S
C340 C339 1.390 1_565 S
C340 C341 1.357 . S
C341 C340 1.357 . S
C341 C342 1.370 . S
C341 H367 0.950 . S
C342 N337 1.307 . S
C342 C341 1.370 . S
C342 H360 0.948 . S
Zn343 N337 2.020 1_445 S
Zn343 O352 2.040 1_554 S
Zn343 O358 2.034 . S
Zn343 O362 2.025 1_545 S
Zn343 O364 2.024 1_545 S
C344 O363 1.246 . S
C344 O364 1.249 . S
N345 C346 1.307 1_554 S
N345 C347 1.333 . S
N345 Zn351 2.020 . S
C346 N345 1.307 1_556 S
C346 C350 1.370 . S
C346 H357 0.948 . S
C347 N345 1.333 . S
C347 C348 1.379 . S
C347 H355 0.952 . S
C348 C347 1.379 . S
C348 C349 1.417 . S
C348 H368 0.949 . S
C349 C348 1.417 . S
C349 C350 1.342 1_554 S
C350 C346 1.370 . S
C350 C349 1.342 1_556 S
C350 H369 0.950 . S
Zn351 N345 2.020 . S
Zn351 O354 2.025 1_554 S
Zn351 O359 2.024 . S
Zn351 O361 2.039 . S
Zn351 O363 2.034 1_545 S
O352 C336 1.281 . S
O352 Zn343 2.040 1_556 S
C353 O358 1.246 . S
C353 O359 1.249 . S
O354 C336 1.254 . S
O354 Zn351 2.025 1_556 S
H355 C347 0.952 . S
H356 C338 0.952 . S
H357 C346 0.948 . S
O358 Zn343 2.034 . S
O358 C353 1.246 . S
O359 Zn351 2.024 . S
O359 C353 1.249 . S
H360 C342 0.948 . S
O361 Zn351 2.039 . S
O361 C365 1.235 1_545 S
O362 Zn343 2.025 1_565 S
O362 C365 1.261 . S
O363 C344 1.246 . S
O363 Zn351 2.034 1_565 S
O364 Zn343 2.024 1_565 S
O364 C344 1.249 . S
C365 O361 1.235 1_565 S
C365 O362 1.261 . S
H366 C339 0.949 . S
H367 C341 0.950 . S
H368 C348 0.949 . S
H369 C350 0.950 . S
C370 O386 1.251 . S
C370 O388 1.254 . S
N371 C372 1.333 . S
N371 C376 1.307 . S
N371 Zn377 2.020 . S
C372 N371 1.333 . S
C372 C373 1.379 . S
C372 H390 0.952 . S
C373 C372 1.379 . S
C373 C374 1.390 . S
C373 H400 0.949 . S
C374 C373 1.390 . S
C374 C375 1.357 . S
C375 C374 1.357 . S
C375 C376 1.370 . S
C375 H401 0.950 . S
C376 N371 1.307 . S
C376 C375 1.370 . S
C376 H394 0.948 . S
Zn377 N371 2.020 . S
Zn377 O386 2.039 . S
Zn377 O392 2.034 . S
Zn377 O396 2.025 . S
Zn377 O398 2.024 . S
C378 O397 1.246 . S
C378 O398 1.249 . S
N379 C380 1.307 . S
N379 C381 1.333 . S
N379 Zn385 2.020 . S
C380 N379 1.307 . S
C380 C384 1.370 . S
C380 H391 0.948 . S
C381 N379 1.333 . S
C381 C382 1.379 . S
C381 H389 0.952 . S
C382 C381 1.379 . S
C382 C383 1.390 . S
C382 H402 0.949 . S
C383 C382 1.390 . S
C383 C384 1.357 . S
C384 C380 1.370 . S
C384 C383 1.357 . S
C384 H403 0.950 . S
Zn385 N379 2.020 . S
Zn385 O388 2.025 . S
Zn385 O393 2.024 . S
Zn385 O395 2.039 . S
Zn385 O397 2.034 . S
O386 C370 1.251 . S
O386 Zn377 2.039 . S
C387 O392 1.246 . S
C387 O393 1.249 . S
O388 C370 1.254 . S
O388 Zn385 2.025 . S
H389 C381 0.952 . S
H390 C372 0.952 . S
H391 C380 0.948 . S
O392 Zn377 2.034 . S
O392 C387 1.246 . S
O393 Zn385 2.024 . S
O393 C387 1.249 . S
H394 C376 0.948 . S
O395 Zn385 2.039 . S
O395 C399 1.251 . S
O396 Zn377 2.025 . S
O396 C399 1.254 . S
O397 C378 1.246 . S
O397 Zn385 2.034 . S
O398 Zn377 2.024 . S
O398 C378 1.249 . S
C399 O395 1.251 . S
C399 O396 1.254 . S
H400 C373 0.949 . S
H401 C375 0.950 . S
H402 C382 0.949 . S
H403 C384 0.950 . S
C404 O420 1.251 . S
C404 O422 1.254 . S
N405 C406 1.333 . S
N405 C410 1.307 . S
N405 Zn411 2.020 . S
C406 N405 1.333 . S
C406 C407 1.379 . S
C406 H424 0.952 . S
C407 C406 1.379 . S
C407 C408 1.390 . S
C407 H434 0.949 . S
C408 C407 1.390 . S
C408 C409 1.357 . S
C409 C408 1.357 . S
C409 C410 1.370 . S
C409 H435 0.950 . S
C410 N405 1.307 . S
C410 C409 1.370 . S
C410 H428 0.948 . S
Zn411 N405 2.020 . S
Zn411 O420 2.039 1_565 S
Zn411 O426 2.034 1_565 S
Zn411 O430 2.025 . S
Zn411 O432 2.024 . S
C412 O431 1.246 1_565 S
C412 O432 1.249 . S
N413 C414 1.307 . S
N413 C415 1.333 . S
N413 Zn419 2.020 . S
C414 N413 1.307 . S
C414 C418 1.370 . S
C414 H425 0.948 . S
C415 N413 1.333 . S
C415 C416 1.379 . S
C415 H423 0.952 . S
C416 C415 1.379 . S
C416 C417 1.390 . S
C416 H436 0.949 . S
C417 C416 1.390 . S
C417 C418 1.357 . S
C418 C414 1.370 . S
C418 C417 1.357 . S
C418 H437 0.950 . S
Zn419 N413 2.020 . S
Zn419 O422 2.025 . S
Zn419 O427 2.024 . S
Zn419 O429 2.039 . S
Zn419 O431 2.034 . S
O420 C404 1.251 . S
O420 Zn411 2.039 1_545 S
C421 O426 1.246 . S
C421 O427 1.249 . S
O422 C404 1.254 . S
O422 Zn419 2.025 . S
H423 C415 0.952 . S
H424 C406 0.952 . S
H425 C414 0.948 . S
O426 Zn411 2.034 1_545 S
O426 C421 1.246 . S
O427 Zn419 2.024 . S
O427 C421 1.249 . S
H428 C410 0.948 . S
O429 Zn419 2.039 . S
O429 C433 1.251 . S
O430 Zn411 2.025 . S
O430 C433 1.254 1_565 S
O431 C412 1.246 1_545 S
O431 Zn419 2.034 . S
O432 Zn411 2.024 . S
O432 C412 1.249 . S
C433 O429 1.251 . S
C433 O430 1.254 1_545 S
H434 C407 0.949 . S
H435 C409 0.950 . S
H436 C416 0.949 . S
H437 C418 0.950 . S
C438 O454 1.251 . S
C438 O456 1.254 . S
N439 C440 1.333 . S
N439 C444 1.307 . S
N439 Zn445 2.020 . S
C440 N439 1.333 . S
C440 C441 1.379 . S
C440 H458 0.952 . S
C441 C440 1.379 . S
C441 C442 1.390 . S
C441 H468 0.949 . S
C442 C441 1.390 . S
C442 C443 1.357 . S
C443 C442 1.357 . S
C443 C444 1.370 . S
C443 H469 0.950 . S
C444 N439 1.307 . S
C444 C443 1.370 . S
C444 H462 0.948 . S
Zn445 N439 2.020 . S
Zn445 O454 2.039 . S
Zn445 O460 2.034 . S
Zn445 O464 2.025 . S
Zn445 O466 2.024 . S
C446 O465 1.246 . S
C446 O466 1.249 . S
N447 C448 1.307 . S
N447 C449 1.333 . S
N447 Zn453 2.020 . S
C448 N447 1.307 . S
C448 C452 1.370 . S
C448 H459 0.948 . S
C449 N447 1.333 . S
C449 C450 1.379 . S
C449 H457 0.952 . S
C450 C449 1.379 . S
C450 C451 1.390 . S
C450 H470 0.949 . S
C451 C450 1.390 . S
C451 C452 1.357 . S
C452 C448 1.370 . S
C452 C451 1.357 . S
C452 H471 0.950 . S
Zn453 N447 2.020 . S
Zn453 O456 2.025 . S
Zn453 O461 2.024 . S
Zn453 O463 2.039 . S
Zn453 O465 2.034 . S
O454 C438 1.251 . S
O454 Zn445 2.039 . S
C455 O460 1.246 . S
C455 O461 1.249 . S
O456 C438 1.254 . S
O456 Zn453 2.025 . S
H457 C449 0.952 . S
H458 C440 0.952 . S
H459 C448 0.948 . S
O460 Zn445 2.034 . S
O460 C455 1.246 . S
O461 Zn453 2.024 . S
O461 C455 1.249 . S
H462 C444 0.948 . S
O463 Zn453 2.039 . S
O463 C467 1.251 . S
O464 Zn445 2.025 . S
O464 C467 1.254 . S
O465 C446 1.246 . S
O465 Zn453 2.034 . S
O466 Zn445 2.024 . S
O466 C446 1.249 . S
C467 O463 1.251 . S
C467 O464 1.254 . S
H468 C441 0.949 . S
H469 C443 0.950 . S
H470 C450 0.949 . S
H471 C452 0.950 . S
C472 O488 1.251 1_565 S
C472 O490 1.254 . S
N473 C474 1.333 . S
N473 C478 1.307 . S
N473 Zn479 2.020 . S
C474 N473 1.333 . S
C474 C475 1.379 . S
C474 H492 0.952 . S
C475 C474 1.379 . S
C475 C476 1.390 . S
C475 H502 0.949 . S
C476 C475 1.390 . S
C476 C477 1.357 . S
C477 C476 1.357 . S
C477 C478 1.370 . S
C477 H503 0.950 . S
C478 N473 1.307 . S
C478 C477 1.370 . S
C478 H496 0.948 . S
Zn479 N473 2.020 . S
Zn479 O488 2.039 . S
Zn479 O494 2.034 . S
Zn479 O498 2.025 . S
Zn479 O500 2.024 1_545 S
C480 O499 1.246 . S
C480 O500 1.249 . S
N481 C482 1.307 . S
N481 C483 1.333 1_455 S
N481 Zn487 2.020 1_565 S
C482 N481 1.307 . S
C482 C486 1.370 . S
C482 H493 0.942 1_565 S
C483 N481 1.333 1_655 S
C483 C484 1.379 . S
C483 H491 0.952 . S
C484 C483 1.379 . S
C484 C485 1.390 . S
C484 H504 0.949 . S
C485 C484 1.390 . S
C485 C486 1.357 1_655 S
C486 C482 1.370 . S
C486 C485 1.357 1_455 S
C486 H505 0.950 . S
Zn487 N481 2.020 1_545 S
Zn487 O490 2.025 1_545 S
Zn487 O495 2.024 . S
Zn487 O497 2.039 1_455 S
Zn487 O499 2.034 1_545 S
O488 C472 1.251 1_545 S
O488 Zn479 2.039 . S
C489 O494 1.246 . S
C489 O495 1.249 . S
O490 C472 1.254 . S
O490 Zn487 2.025 1_565 S
H491 C483 0.952 . S
H492 C474 0.952 . S
H493 C482 0.942 1_545 S
O494 Zn479 2.034 . S
O494 C489 1.246 . S
O495 Zn487 2.024 . S
O495 C489 1.249 . S
H496 C478 0.948 . S
O497 Zn487 2.039 1_655 S
O497 C501 1.251 . S
O498 Zn479 2.025 . S
O498 C501 1.254 1_455 S
O499 C480 1.246 . S
O499 Zn487 2.034 1_565 S
O500 Zn479 2.024 1_565 S
O500 C480 1.249 . S
C501 O497 1.251 . S
C501 O498 1.254 1_655 S
H502 C475 0.949 . S
H503 C477 0.950 . S
H504 C484 0.949 . S
H505 C486 0.950 . S
C506 O522 1.251 . S
C506 O524 1.254 . S
N507 C508 1.333 . S
N507 C512 1.307 . S
N507 Zn513 2.020 . S
C508 N507 1.333 . S
C508 C509 1.379 . S
C508 H526 0.952 . S
C509 C508 1.379 . S
C509 C510 1.390 . S
C509 H536 0.949 . S
C510 C509 1.390 . S
C510 C511 1.357 . S
C511 C510 1.357 . S
C511 C512 1.370 . S
C511 H537 0.950 . S
C512 N507 1.307 . S
C512 C511 1.370 . S
C512 H530 0.948 . S
Zn513 N507 2.020 . S
Zn513 O522 2.039 . S
Zn513 O528 2.034 . S
Zn513 O532 2.025 . S
Zn513 O534 2.024 . S
C514 O533 1.246 . S
C514 O534 1.249 . S
N515 C516 1.307 . S
N515 C517 1.333 . S
N515 Zn521 2.020 . S
C516 N515 1.307 . S
C516 C520 1.370 . S
C516 H527 0.948 . S
C517 N515 1.333 . S
C517 C518 1.379 . S
C517 H525 0.952 . S
C518 C517 1.379 . S
C518 C519 1.390 . S
C518 H538 0.949 . S
C519 C518 1.390 . S
C519 C520 1.357 . S
C520 C516 1.370 . S
C520 C519 1.357 . S
C520 H539 0.950 . S
Zn521 N515 2.020 . S
Zn521 O524 2.025 . S
Zn521 O529 2.024 . S
Zn521 O531 2.039 . S
Zn521 O533 2.034 . S
O522 C506 1.251 . S
O522 Zn513 2.039 . S
C523 O528 1.246 . S
C523 O529 1.249 . S
O524 C506 1.254 . S
O524 Zn521 2.025 . S
H525 C517 0.952 . S
H526 C508 0.952 . S
H527 C516 0.948 . S
O528 Zn513 2.034 . S
O528 C523 1.246 . S
O529 Zn521 2.024 . S
O529 C523 1.249 . S
H530 C512 0.948 . S
O531 Zn521 2.039 . S
O531 C535 1.251 . S
O532 Zn513 2.025 . S
O532 C535 1.254 . S
O533 C514 1.246 . S
O533 Zn521 2.034 . S
O534 Zn513 2.024 . S
O534 C514 1.249 . S
C535 O531 1.251 . S
C535 O532 1.254 . S
H536 C509 0.949 . S
H537 C511 0.950 . S
H538 C518 0.949 . S
H539 C520 0.950 . S
C540 O556 1.251 . S
C540 O558 1.254 . S
N541 C542 1.333 . S
N541 C546 1.307 . S
N541 Zn547 2.020 . S
C542 N541 1.333 . S
C542 C543 1.379 . S
C542 H560 0.952 . S
C543 C542 1.379 . S
C543 C544 1.390 . S
C543 H570 0.949 . S
C544 C543 1.390 . S
C544 C545 1.357 . S
C545 C544 1.357 . S
C545 C546 1.370 . S
C545 H571 0.950 . S
C546 N541 1.307 . S
C546 C545 1.370 . S
C546 H564 0.948 . S
Zn547 N541 2.020 . S
Zn547 O556 2.039 1_545 S
Zn547 O562 2.034 . S
Zn547 O566 2.025 . S
Zn547 O568 2.024 . S
C548 O567 1.246 . S
C548 O568 1.249 1_565 S
N549 C550 1.307 . S
N549 C551 1.333 1_565 S
N549 Zn555 2.020 1_566 S
C550 N549 1.307 . S
C550 C554 1.370 . S
C550 H561 0.948 . S
C551 N549 1.333 1_545 S
C551 C552 1.375 1_545 S
C551 H559 0.952 . S
C552 C551 1.375 1_565 S
C552 C553 1.408 . S
C552 H572 0.936 1_565 S
C553 C552 1.408 . S
C553 C554 1.357 . S
C554 C550 1.370 . S
C554 C553 1.357 . S
C554 H573 0.950 . S
Zn555 N549 2.020 1_544 S
Zn555 O558 2.025 1_545 S
Zn555 O563 2.024 . S
Zn555 O565 2.039 1_554 S
Zn555 O567 2.034 1_545 S
O556 C540 1.251 . S
O556 Zn547 2.039 1_565 S
C557 O562 1.246 . S
C557 O563 1.249 . S
O558 C540 1.254 . S
O558 Zn555 2.025 1_565 S
H559 C551 0.952 . S
H560 C542 0.952 . S
H561 C550 0.948 . S
O562 Zn547 2.034 . S
O562 C557 1.246 . S
O563 Zn555 2.024 . S
O563 C557 1.249 . S
H564 C546 0.948 . S
O565 Zn555 2.039 1_556 S
O565 C569 1.251 1_556 S
O566 Zn547 2.025 . S
O566 C569 1.254 . S
O567 C548 1.246 . S
O567 Zn555 2.034 1_565 S
O568 Zn547 2.024 . S
O568 C548 1.249 1_545 S
C569 O565 1.251 1_554 S
C569 O566 1.254 . S
H570 C543 0.949 . S
H571 C545 0.950 . S
H572 C552 0.936 1_545 S
H573 C554 0.950 . S
C574 O590 1.251 . S
C574 O592 1.254 . S
N575 C576 1.333 . S
N575 C580 1.307 . S
N575 Zn581 2.020 . S
C576 N575 1.333 . S
C576 C577 1.379 . S
C576 H594 0.952 . S
C577 C576 1.379 . S
C577 C578 1.390 . S
C577 H604 0.949 . S
C578 C577 1.390 . S
C578 C579 1.357 . S
C579 C578 1.357 . S
C579 C580 1.370 . S
C579 H605 0.950 . S
C580 N575 1.307 . S
C580 C579 1.370 . S
C580 H598 0.948 . S
Zn581 N575 2.020 . S
Zn581 O590 2.039 . S
Zn581 O596 2.034 . S
Zn581 O600 2.025 . S
Zn581 O602 2.024 . S
C582 O601 1.246 . S
C582 O602 1.249 . S
N583 C584 1.307 . S
N583 C585 1.333 . S
N583 Zn589 2.020 . S
C584 N583 1.307 . S
C584 C588 1.370 . S
C584 H595 0.948 . S
C585 N583 1.333 . S
C585 C586 1.379 . S
C585 H593 0.952 . S
C586 C585 1.379 . S
C586 C587 1.390 . S
C586 H606 0.949 . S
C587 C586 1.390 . S
C587 C588 1.357 . S
C588 C584 1.370 . S
C588 C587 1.357 . S
C588 H607 0.950 . S
Zn589 N583 2.020 . S
Zn589 O592 2.025 . S
Zn589 O597 2.024 . S
Zn589 O599 2.039 . S
Zn589 O601 2.034 . S
O590 C574 1.251 . S
O590 Zn581 2.039 . S
C591 O596 1.246 . S
C591 O597 1.249 . S
O592 C574 1.254 . S
O592 Zn589 2.025 . S
H593 C585 0.952 . S
H594 C576 0.952 . S
H595 C584 0.948 . S
O596 Zn581 2.034 . S
O596 C591 1.246 . S
O597 Zn589 2.024 . S
O597 C591 1.249 . S
H598 C580 0.948 . S
O599 Zn589 2.039 . S
O599 C603 1.251 . S
O600 Zn581 2.025 . S
O600 C603 1.254 . S
O601 C582 1.246 . S
O601 Zn589 2.034 . S
O602 Zn581 2.024 . S
O602 C582 1.249 . S
C603 O599 1.251 . S
C603 O600 1.254 . S
H604 C577 0.949 . S
H605 C579 0.950 . S
H606 C586 0.949 . S
H607 C588 0.950 . S
C608 O624 1.251 . S
C608 O626 1.254 . S
N609 C610 1.333 . S
N609 C614 1.307 . S
N609 Zn615 2.020 1_556 S
C610 N609 1.333 . S
C610 C611 1.379 . S
C610 H628 0.952 . S
C611 C610 1.379 . S
C611 C612 1.390 . S
C611 H638 0.949 . S
C612 C611 1.390 . S
C612 C613 1.357 . S
C613 C612 1.357 . S
C613 C614 1.370 . S
C613 H639 0.950 . S
C614 N609 1.307 . S
C614 C613 1.370 . S
C614 H632 0.948 . S
Zn615 N609 2.020 1_554 S
Zn615 O624 2.039 . S
Zn615 O630 2.034 . S
Zn615 O634 2.027 . S
Zn615 O636 2.024 1_554 S
C616 O635 1.246 . S
C616 O636 1.249 1_554 S
N617 C618 1.307 . S
N617 C619 1.333 . S
N617 Zn623 2.020 . S
C618 N617 1.307 . S
C618 C622 1.370 . S
C618 H629 0.948 . S
C619 N617 1.333 . S
C619 C620 1.379 . S
C619 H627 0.952 . S
C620 C619 1.379 . S
C620 C621 1.390 . S
C620 H640 0.949 . S
C621 C620 1.390 . S
C621 C622 1.357 . S
C622 C618 1.370 . S
C622 C621 1.357 . S
C622 H641 0.950 . S
Zn623 N617 2.020 . S
Zn623 O626 2.025 . S
Zn623 O631 2.024 . S
Zn623 O633 2.039 . S
Zn623 O635 2.034 . S
O624 C608 1.251 . S
O624 Zn615 2.039 . S
C625 O630 1.246 . S
C625 O631 1.249 . S
O626 C608 1.254 . S
O626 Zn623 2.025 . S
H627 C619 0.952 . S
H628 C610 0.952 . S
H629 C618 0.948 . S
O630 Zn615 2.034 . S
O630 C625 1.246 . S
O631 Zn623 2.024 . S
O631 C625 1.249 . S
H632 C614 0.948 . S
O633 Zn623 2.039 . S
O633 C637 1.251 . S
O634 Zn615 2.027 . S
O634 C637 1.287 . S
O635 C616 1.246 . S
O635 Zn623 2.034 . S
O636 Zn615 2.024 1_556 S
O636 C616 1.249 1_556 S
C637 O633 1.251 . S
C637 O634 1.287 . S
H638 C611 0.949 . S
H639 C613 0.950 . S
H640 C620 0.949 . S
H641 C622 0.950 . S
C642 O658 1.251 . S
C642 O660 1.254 . S
N643 C644 1.333 . S
N643 C648 1.307 . S
N643 Zn649 2.020 . S
C644 N643 1.333 . S
C644 C645 1.379 . S
C644 H662 0.952 . S
C645 C644 1.379 . S
C645 C646 1.390 . S
C645 H672 0.949 . S
C646 C645 1.390 . S
C646 C647 1.357 . S
C647 C646 1.357 . S
C647 C648 1.370 . S
C647 H673 0.950 . S
C648 N643 1.307 . S
C648 C647 1.370 . S
C648 H666 0.948 . S
Zn649 N643 2.020 . S
Zn649 O658 2.039 . S
Zn649 O664 2.034 . S
Zn649 O668 2.025 . S
Zn649 O670 2.024 . S
C650 O669 1.246 . S
C650 O670 1.249 . S
N651 C652 1.307 . S
N651 C653 1.333 . S
N651 Zn657 2.020 . S
C652 N651 1.307 . S
C652 C656 1.370 . S
C652 H663 0.948 . S
C653 N651 1.333 . S
C653 C654 1.379 . S
C653 H661 0.952 . S
C654 C653 1.379 . S
C654 C655 1.390 . S
C654 H674 0.949 . S
C655 C654 1.390 . S
C655 C656 1.357 . S
C656 C652 1.370 . S
C656 C655 1.357 . S
C656 H675 0.950 . S
Zn657 N651 2.020 . S
Zn657 O660 2.025 . S
Zn657 O665 2.024 . S
Zn657 O667 2.039 . S
Zn657 O669 2.034 . S
O658 C642 1.251 . S
O658 Zn649 2.039 . S
C659 O664 1.246 . S
C659 O665 1.249 . S
O660 C642 1.254 . S
O660 Zn657 2.025 . S
H661 C653 0.952 . S
H662 C644 0.952 . S
H663 C652 0.948 . S
O664 Zn649 2.034 . S
O664 C659 1.246 . S
O665 Zn657 2.024 . S
O665 C659 1.249 . S
H666 C648 0.948 . S
O667 Zn657 2.039 . S
O667 C671 1.251 . S
O668 Zn649 2.025 . S
O668 C671 1.254 . S
O669 C650 1.246 . S
O669 Zn657 2.034 . S
O670 Zn649 2.024 . S
O670 C650 1.249 . S
C671 O667 1.251 . S
C671 O668 1.254 . S
H672 C645 0.949 . S
H673 C647 0.950 . S
H674 C654 0.949 . S
H675 C656 0.950 . S
C676 O692 1.251 . S
C676 O694 1.254 . S
N677 C678 1.333 . S
N677 C682 1.307 . S
N677 Zn683 2.020 . S
C678 N677 1.333 . S
C678 C679 1.379 . S
C678 H696 0.952 . S
C679 C678 1.379 . S
C679 C680 1.390 . S
C679 H706 0.949 . S
C680 C679 1.390 . S
C680 C681 1.357 . S
C681 C680 1.357 . S
C681 C682 1.370 . S
C681 H707 0.950 . S
C682 N677 1.307 . S
C682 C681 1.370 . S
C682 H700 0.948 . S
Zn683 N677 2.020 . S
Zn683 O692 2.039 . S
Zn683 O698 2.034 . S
Zn683 O702 2.025 . S
Zn683 O704 2.024 . S
C684 O703 1.246 . S
C684 O704 1.249 . S
N685 C686 1.307 1_455 S
N685 C687 1.333 . S
N685 Zn691 2.020 . S
C686 N685 1.307 1_655 S
C686 C690 1.370 . S
C686 H697 0.948 . S
C687 N685 1.333 . S
C687 C688 1.379 . S
C687 H695 0.952 . S
C688 C687 1.379 . S
C688 C689 1.390 1_455 S
C688 H708 0.949 . S
C689 C688 1.390 1_655 S
C689 C690 1.357 . S
C690 C686 1.370 . S
C690 C689 1.357 . S
C690 H709 0.950 . S
Zn691 N685 2.020 . S
Zn691 O694 2.025 . S
Zn691 O699 2.024 1_455 S
Zn691 O701 2.039 . S
Zn691 O703 2.034 . S
O692 C676 1.251 . S
O692 Zn683 2.039 . S
C693 O698 1.246 1_655 S
C693 O699 1.249 . S
O694 C676 1.254 . S
O694 Zn691 2.025 . S
H695 C687 0.952 . S
H696 C678 0.952 . S
H697 C686 0.948 . S
O698 Zn683 2.034 . S
O698 C693 1.246 1_455 S
O699 Zn691 2.024 1_655 S
O699 C693 1.249 . S
H700 C682 0.948 . S
O701 Zn691 2.039 . S
O701 C705 1.251 . S
O702 Zn683 2.025 . S
O702 C705 1.254 . S
O703 C684 1.246 . S
O703 Zn691 2.034 . S
O704 Zn683 2.024 . S
O704 C684 1.249 . S
C705 O701 1.251 . S
C705 O702 1.254 . S
H706 C679 0.949 . S
H707 C681 0.950 . S
H708 C688 0.949 . S
H709 C690 0.950 . S
C710 O726 1.251 . S
C710 O728 1.254 . S
N711 C712 1.333 . S
N711 C716 1.307 . S
N711 Zn717 2.020 . S
C712 N711 1.333 . S
C712 C713 1.379 . S
C712 H730 0.952 . S
C713 C712 1.379 . S
C713 C714 1.390 . S
C713 H740 0.949 . S
C714 C713 1.390 . S
C714 C715 1.357 . S
C715 C714 1.357 . S
C715 C716 1.370 . S
C715 H741 0.950 . S
C716 N711 1.307 . S
C716 C715 1.370 . S
C716 H734 0.948 . S
Zn717 N711 2.020 . S
Zn717 O726 2.039 . S
Zn717 O732 2.034 . S
Zn717 O736 2.025 . S
Zn717 O738 2.024 . S
C718 O737 1.246 . S
C718 O738 1.249 . S
N719 C720 1.307 . S
N719 C721 1.333 . S
N719 Zn725 2.020 . S
C720 N719 1.307 . S
C720 C724 1.370 . S
C720 H731 0.948 . S
C721 N719 1.333 . S
C721 C722 1.379 . S
C721 H729 0.952 . S
C722 C721 1.379 . S
C722 C723 1.390 . S
C722 H742 0.949 . S
C723 C722 1.390 . S
C723 C724 1.357 . S
C724 C720 1.370 . S
C724 C723 1.357 . S
C724 H743 0.950 . S
Zn725 N719 2.020 . S
Zn725 O728 2.025 . S
Zn725 O733 2.024 . S
Zn725 O735 2.039 . S
Zn725 O737 2.034 . S
O726 C710 1.251 . S
O726 Zn717 2.039 . S
C727 O732 1.246 . S
C727 O733 1.249 . S
O728 C710 1.254 . S
O728 Zn725 2.025 . S
H729 C721 0.952 . S
H730 C712 0.952 . S
H731 C720 0.948 . S
O732 Zn717 2.034 . S
O732 C727 1.246 . S
O733 Zn725 2.024 . S
O733 C727 1.249 . S
H734 C716 0.948 . S
O735 Zn725 2.039 . S
O735 C739 1.251 . S
O736 Zn717 2.025 . S
O736 C739 1.254 . S
O737 C718 1.246 . S
O737 Zn725 2.034 . S
O738 Zn717 2.024 . S
O738 C718 1.249 . S
C739 O735 1.251 . S
C739 O736 1.254 . S
H740 C713 0.949 . S
H741 C715 0.950 . S
H742 C722 0.949 . S
H743 C724 0.950 . S
C744 O760 1.251 . S
C744 O762 1.254 . S
N745 C746 1.333 . S
N745 C750 1.307 . S
N745 Zn751 2.020 . S
C746 N745 1.333 . S
C746 C747 1.379 . S
C746 H764 0.952 . S
C747 C746 1.379 . S
C747 C748 1.390 . S
C747 H774 0.949 . S
C748 C747 1.390 . S
C748 C749 1.357 . S
C749 C748 1.357 . S
C749 C750 1.370 . S
C749 H775 0.950 . S
C750 N745 1.307 . S
C750 C749 1.370 . S
C750 H768 0.948 . S
Zn751 N745 2.020 . S
Zn751 O760 2.039 . S
Zn751 O766 2.034 . S
Zn751 O770 2.025 . S
Zn751 O772 2.024 . S
C752 O771 1.246 . S
C752 O772 1.249 . S
N753 C754 1.307 . S
N753 C755 1.333 . S
N753 Zn759 2.020 . S
C754 N753 1.307 . S
C754 C758 1.370 . S
C754 H765 0.948 . S
C755 N753 1.333 . S
C755 C756 1.379 . S
C755 H763 0.952 . S
C756 C755 1.379 . S
C756 C757 1.390 . S
C756 H776 0.949 . S
C757 C756 1.390 . S
C757 C758 1.357 . S
C758 C754 1.370 . S
C758 C757 1.357 . S
C758 H777 0.950 . S
Zn759 N753 2.020 . S
Zn759 O762 2.025 . S
Zn759 O767 2.024 . S
Zn759 O769 2.039 . S
Zn759 O771 2.034 . S
O760 C744 1.251 . S
O760 Zn751 2.039 . S
C761 O766 1.246 . S
C761 O767 1.249 . S
O762 C744 1.254 . S
O762 Zn759 2.025 . S
H763 C755 0.952 . S
H764 C746 0.952 . S
H765 C754 0.948 . S
O766 Zn751 2.034 . S
O766 C761 1.246 . S
O767 Zn759 2.024 . S
O767 C761 1.249 . S
H768 C750 0.948 . S
O769 Zn759 2.039 . S
O769 C773 1.251 . S
O770 Zn751 2.025 . S
O770 C773 1.254 . S
O771 C752 1.246 . S
O771 Zn759 2.034 . S
O772 Zn751 2.024 . S
O772 C752 1.249 . S
C773 O769 1.251 . S
C773 O770 1.254 . S
H774 C747 0.949 . S
H775 C749 0.950 . S
H776 C756 0.949 . S
H777 C758 0.950 . S
C778 O794 1.251 . S
C778 O796 1.254 . S
N779 C780 1.333 . S
N779 C784 1.307 . S
N779 Zn785 2.020 . S
C780 N779 1.333 . S
C780 C781 1.379 . S
C780 H798 0.952 . S
C781 C780 1.379 . S
C781 C782 1.390 . S
C781 H808 0.949 . S
C782 C781 1.390 . S
C782 C783 1.357 . S
C783 C782 1.357 . S
C783 C784 1.370 . S
C783 H809 0.950 . S
C784 N779 1.307 . S
C784 C783 1.370 . S
C784 H802 0.948 . S
Zn785 N779 2.020 . S
Zn785 O794 2.039 . S
Zn785 O800 2.034 . S
Zn785 O804 2.025 . S
Zn785 O806 2.024 . S
C786 O805 1.246 . S
C786 O806 1.249 . S
N787 C788 1.307 . S
N787 C789 1.333 . S
N787 Zn793 2.020 . S
C788 N787 1.307 . S
C788 C792 1.370 . S
C788 H799 0.948 . S
C789 N787 1.333 . S
C789 C790 1.379 . S
C789 H797 0.952 . S
C790 C789 1.379 . S
C790 C791 1.390 . S
C790 H810 0.949 . S
C791 C790 1.390 . S
C791 C792 1.357 . S
C792 C788 1.370 . S
C792 C791 1.357 . S
C792 H811 0.950 . S
Zn793 N787 2.020 . S
Zn793 O796 2.025 . S
Zn793 O801 2.024 . S
Zn793 O803 2.039 . S
Zn793 O805 2.034 . S
O794 C778 1.251 . S
O794 Zn785 2.039 . S
C795 O800 1.246 . S
C795 O801 1.249 . S
O796 C778 1.254 . S
O796 Zn793 2.025 . S
H797 C789 0.952 . S
H798 C780 0.952 . S
H799 C788 0.948 . S
O800 Zn785 2.034 . S
O800 C795 1.246 . S
O801 Zn793 2.024 . S
O801 C795 1.249 . S
H802 C784 0.948 . S
O803 Zn793 2.039 . S
O803 C807 1.251 . S
O804 Zn785 2.025 . S
O804 C807 1.254 . S
O805 C786 1.246 . S
O805 Zn793 2.034 . S
O806 Zn785 2.024 . S
O806 C786 1.249 . S
C807 O803 1.251 . S
C807 O804 1.254 . S
H808 C781 0.949 . S
H809 C783 0.950 . S
H810 C790 0.949 . S
H811 C792 0.950 . S
C812 O828 1.251 . S
C812 O830 1.254 . S
N813 C814 1.333 . S
N813 C818 1.307 . S
N813 Zn819 2.020 . S
C814 N813 1.333 . S
C814 C815 1.379 . S
C814 H832 0.952 . S
C815 C814 1.379 . S
C815 C816 1.390 . S
C815 H842 0.949 . S
C816 C815 1.390 . S
C816 C817 1.357 . S
C817 C816 1.357 . S
C817 C818 1.370 . S
C817 H843 0.950 . S
C818 N813 1.307 . S
C818 C817 1.370 . S
C818 H836 0.948 . S
Zn819 N813 2.020 . S
Zn819 O828 2.039 . S
Zn819 O834 2.034 . S
Zn819 O838 2.025 . S
Zn819 O840 2.024 . S
C820 O839 1.246 . S
C820 O840 1.249 . S
N821 C822 1.307 . S
N821 C823 1.333 . S
N821 Zn827 2.020 . S
C822 N821 1.307 . S
C822 C826 1.370 . S
C822 H833 0.948 . S
C823 N821 1.333 . S
C823 C824 1.379 . S
C823 H831 0.952 . S
C824 C823 1.379 . S
C824 C825 1.390 . S
C824 H844 0.949 . S
C825 C824 1.390 . S
C825 C826 1.357 . S
C826 C822 1.370 . S
C826 C825 1.357 . S
C826 H845 0.950 . S
Zn827 N821 2.020 . S
Zn827 O830 2.025 . S
Zn827 O835 2.024 . S
Zn827 O837 2.039 . S
Zn827 O839 2.034 . S
O828 C812 1.251 . S
O828 Zn819 2.039 . S
C829 O834 1.246 . S
C829 O835 1.249 . S
O830 C812 1.254 . S
O830 Zn827 2.025 . S
H831 C823 0.952 . S
H832 C814 0.952 . S
H833 C822 0.948 . S
O834 Zn819 2.034 . S
O834 C829 1.246 . S
O835 Zn827 2.024 . S
O835 C829 1.249 . S
H836 C818 0.948 . S
O837 Zn827 2.039 . S
O837 C841 1.251 . S
O838 Zn819 2.025 . S
O838 C841 1.254 . S
O839 C820 1.246 . S
O839 Zn827 2.034 . S
O840 Zn819 2.024 . S
O840 C820 1.249 . S
C841 O837 1.251 . S
C841 O838 1.254 . S
H842 C815 0.949 . S
H843 C817 0.950 . S
H844 C824 0.949 . S
H845 C826 0.950 . S
C846 O862 1.251 . S
C846 O864 1.254 . S
N847 C848 1.333 . S
N847 C852 1.307 . S
N847 Zn853 2.020 . S
C848 N847 1.333 . S
C848 C849 1.379 . S
C848 H866 0.952 . S
C849 C848 1.379 . S
C849 C850 1.390 . S
C849 H876 0.949 . S
C850 C849 1.390 . S
C850 C851 1.357 . S
C851 C850 1.357 . S
C851 C852 1.370 . S
C851 H877 0.950 . S
C852 N847 1.307 . S
C852 C851 1.370 . S
C852 H870 0.948 . S
Zn853 N847 2.020 . S
Zn853 O862 2.039 . S
Zn853 O868 2.034 . S
Zn853 O872 2.044 . S
Zn853 O874 2.024 . S
C854 O873 1.246 . S
C854 O874 1.249 1_655 S
N855 C856 1.307 . S
N855 C857 1.333 1_554 S
N855 Zn861 2.020 . S
C856 N855 1.307 . S
C856 C860 1.370 . S
C856 H867 0.948 . S
C857 N855 1.333 1_556 S
C857 C858 1.388 . S
C857 H865 0.952 . S
C858 C857 1.388 . S
C858 C859 1.387 1_455 S
C858 H878 0.944 1_455 S
C859 C858 1.387 1_655 S
C859 C860 1.357 1_656 S
C860 C856 1.370 . S
C860 C859 1.357 1_454 S
C860 H879 0.950 . S
Zn861 N855 2.020 . S
Zn861 O864 2.025 . S
Zn861 O869 2.024 . S
Zn861 O871 2.039 1_554 S
Zn861 O873 2.034 1_455 S
O862 C846 1.251 . S
O862 Zn853 2.039 . S
C863 O868 1.246 . S
C863 O869 1.249 . S
O864 C846 1.254 . S
O864 Zn861 2.025 . S
H865 C857 0.952 . S
H866 C848 0.952 . S
H867 C856 0.948 . S
O868 Zn853 2.034 . S
O868 C863 1.246 . S
O869 Zn861 2.024 . S
O869 C863 1.249 . S
H870 C852 0.948 . S
O871 Zn861 2.039 1_556 S
O871 C875 1.251 . S
O872 Zn853 2.044 . S
O872 C875 1.241 1_554 S
O873 C854 1.246 . S
O873 Zn861 2.034 1_655 S
O874 Zn853 2.024 . S
O874 C854 1.249 1_455 S
C875 O871 1.251 . S
C875 O872 1.241 1_556 S
H876 C849 0.949 . S
H877 C851 0.950 . S
H878 C858 0.944 1_655 S
H879 C860 0.950 . S
H880 C886 0.930 . S
H881 C889 0.930 . S
H882 C890 0.930 . S
H883 C891 0.930 . S
H884 C894 0.930 . S
H885 C895 0.930 . S
C886 H880 0.930 . S
C886 C887 1.355 . S
C886 C888 1.415 . S
C887 C886 1.355 . S
C887 C889 1.419 . S
C888 C886 1.415 . S
C888 C893 1.425 . S
C888 C895 1.409 . S
C889 H881 0.930 . S
C889 C887 1.419 . S
C889 C890 1.362 . S
C890 H882 0.930 . S
C890 C889 1.362 . S
C890 C893 1.409 . S
C891 H883 0.930 . S
C891 C892 1.355 . S
C891 C893 1.415 . S
C892 C891 1.355 . S
C892 C894 1.419 . S
C893 C888 1.425 . S
C893 C890 1.409 . S
C893 C891 1.415 . S
C894 H884 0.930 . S
C894 C892 1.419 . S
C894 C895 1.362 . S
C895 H885 0.930 . S
C895 C888 1.409 . S
C895 C894 1.362 . S
H896 C902 0.930 . S
H897 C905 0.930 . S
H898 C906 0.930 . S
H899 C907 0.930 . S
H900 C910 0.930 . S
H901 C911 0.930 . S
C902 H896 0.930 . S
C902 C903 1.355 . S
C902 C904 1.415 . S
C903 C902 1.355 . S
C903 C905 1.419 . S
C904 C902 1.415 . S
C904 C909 1.425 . S
C904 C911 1.409 . S
C905 H897 0.930 . S
C905 C903 1.419 . S
C905 C906 1.362 . S
C906 H898 0.930 . S
C906 C905 1.362 . S
C906 C909 1.409 . S
C907 H899 0.930 . S
C907 C908 1.355 . S
C907 C909 1.415 . S
C908 C907 1.355 . S
C908 C910 1.419 . S
C909 C904 1.425 . S
C909 C906 1.409 . S
C909 C907 1.415 . S
C910 H900 0.930 . S
C910 C908 1.419 . S
C910 C911 1.362 . S
C911 H901 0.930 . S
C911 C904 1.409 . S
C911 C910 1.362 . S
H912 C918 0.930 . S
H913 C921 0.930 . S
H914 C922 0.930 . S
H915 C923 0.930 . S
H916 C926 0.930 . S
H917 C927 0.930 . S
C918 H912 0.930 . S
C918 C919 1.355 . S
C918 C920 1.415 . S
C919 C918 1.355 . S
C919 C921 1.419 . S
C920 C918 1.415 . S
C920 C925 1.425 . S
C920 C927 1.409 . S
C921 H913 0.930 . S
C921 C919 1.419 . S
C921 C922 1.362 . S
C922 H914 0.930 . S
C922 C921 1.362 . S
C922 C925 1.409 . S
C923 H915 0.930 . S
C923 C924 1.355 . S
C923 C925 1.415 . S
C924 C923 1.355 . S
C924 C926 1.419 . S
C925 C920 1.425 . S
C925 C922 1.409 . S
C925 C923 1.415 . S
C926 H916 0.930 . S
C926 C924 1.419 . S
C926 C927 1.362 . S
C927 H917 0.930 . S
C927 C920 1.409 . S
C927 C926 1.362 . S
H928 C934 0.930 . S
H929 C937 0.930 . S
H930 C938 0.930 . S
H931 C939 0.930 . S
H932 C942 0.930 . S
H933 C943 0.930 . S
C934 H928 0.930 . S
C934 C935 1.355 . S
C934 C936 1.415 . S
C935 C934 1.355 . S
C935 C937 1.419 . S
C936 C934 1.415 . S
C936 C941 1.425 . S
C936 C943 1.409 . S
C937 H929 0.930 . S
C937 C935 1.419 . S
C937 C938 1.362 . S
C938 H930 0.930 . S
C938 C937 1.362 . S
C938 C941 1.409 . S
C939 H931 0.930 . S
C939 C940 1.355 . S
C939 C941 1.415 . S
C940 C939 1.355 . S
C940 C942 1.419 . S
C941 C936 1.425 . S
C941 C938 1.409 . S
C941 C939 1.415 . S
C942 H932 0.930 . S
C942 C940 1.419 . S
C942 C943 1.362 . S
C943 H933 0.930 . S
C943 C936 1.409 . S
C943 C942 1.362 . S
H944 C950 0.947 . S
H945 C953 0.930 . S
H946 C954 0.930 . S
H947 C955 0.930 . S
H948 C958 0.930 . S
H949 C959 0.930 . S
C950 H944 0.947 . S
C950 C951 1.355 . S
C950 C952 1.415 . S
C951 C950 1.355 . S
C951 C953 1.419 . S
C952 C950 1.415 . S
C952 C957 1.425 . S
C952 C959 1.409 1_455 S
C953 H945 0.930 . S
C953 C951 1.419 . S
C953 C954 1.362 . S
C954 H946 0.930 . S
C954 C953 1.362 . S
C954 C957 1.409 . S
C955 H947 0.930 . S
C955 C956 1.355 . S
C955 C957 1.415 . S
C956 C955 1.355 . S
C956 C958 1.419 1_455 S
C957 C952 1.425 . S
C957 C954 1.409 . S
C957 C955 1.415 . S
C958 H948 0.930 . S
C958 C956 1.419 1_655 S
C958 C959 1.362 . S
C959 H949 0.930 . S
C959 C952 1.409 1_655 S
C959 C958 1.362 . S
H960 C966 0.930 . S
H961 C969 0.930 . S
H962 C970 0.930 . S
H963 C971 0.930 . S
H964 C974 0.930 . S
H965 C975 0.930 . S
C966 H960 0.930 . S
C966 C967 1.355 . S
C966 C968 1.415 . S
C967 C966 1.355 . S
C967 C969 1.419 . S
C968 C966 1.415 . S
C968 C973 1.425 . S
C968 C975 1.409 . S
C969 H961 0.930 . S
C969 C967 1.419 . S
C969 C970 1.362 . S
C970 H962 0.930 . S
C970 C969 1.362 . S
C970 C973 1.409 . S
C971 H963 0.930 . S
C971 C972 1.355 . S
C971 C973 1.415 . S
C972 C971 1.355 . S
C972 C974 1.419 . S
C973 C968 1.425 . S
C973 C970 1.409 . S
C973 C971 1.415 . S
C974 H964 0.930 . S
C974 C972 1.419 . S
C974 C975 1.362 . S
C975 H965 0.930 . S
C975 C968 1.409 . S
C975 C974 1.362 . S
H976 C982 0.930 . S
H977 C985 0.930 . S
H978 C986 0.930 . S
H979 C987 0.930 . S
H980 C990 0.924 1_554 S
H981 C991 0.930 . S
C982 H976 0.930 . S
C982 C983 1.355 . S
C982 C984 1.415 . S
C983 C982 1.355 . S
C983 C985 1.419 . S
C984 C982 1.415 . S
C984 C989 1.425 . S
C984 C991 1.409 . S
C985 H977 0.930 . S
C985 C983 1.419 . S
C985 C986 1.362 . S
C986 H978 0.930 . S
C986 C985 1.362 . S
C986 C989 1.409 . S
C987 H979 0.930 . S
C987 C988 1.355 . S
C987 C989 1.415 . S
C988 C987 1.355 . S
C988 C990 1.419 . S
C989 C984 1.425 . S
C989 C986 1.409 . S
C989 C987 1.415 . S
C990 H980 0.924 1_556 S
C990 C988 1.419 . S
C990 C991 1.362 . S
C991 H981 0.930 . S
C991 C984 1.409 . S
C991 C990 1.362 . S
H992 C998 0.930 . S
H993 C1001 0.930 . S
H994 C1002 0.930 . S
H995 C1003 0.930 . S
H996 C1006 0.930 . S
H997 C1007 0.930 . S
C998 H992 0.930 . S
C998 C999 1.355 . S
C998 C1000 1.415 . S
C999 C998 1.355 . S
C999 C1001 1.419 . S
C1000 C998 1.415 . S
C1000 C1005 1.425 . S
C1000 C1007 1.409 . S
C1001 H993 0.930 . S
C1001 C999 1.419 . S
C1001 C1002 1.362 . S
C1002 H994 0.930 . S
C1002 C1001 1.362 . S
C1002 C1005 1.409 . S
C1003 H995 0.930 . S
C1003 C1004 1.355 . S
C1003 C1005 1.415 . S
C1004 C1003 1.355 . S
C1004 C1006 1.419 . S
C1005 C1000 1.425 . S
C1005 C1002 1.409 . S
C1005 C1003 1.415 . S
C1006 H996 0.930 . S
C1006 C1004 1.419 . S
C1006 C1007 1.362 . S
C1007 H997 0.930 . S
C1007 C1000 1.409 . S
C1007 C1006 1.362 . S
H1008 C1014 0.930 . S
H1009 C1017 0.930 . S
H1010 C1018 0.930 . S
H1011 C1019 0.930 . S
H1012 C1022 0.930 . S
H1013 C1023 0.930 . S
C1014 H1008 0.930 . S
C1014 C1015 1.355 . S
C1014 C1016 1.415 . S
C1015 C1014 1.355 . S
C1015 C1017 1.419 1_545 S
C1016 C1014 1.415 . S
C1016 C1021 1.425 1_545 S
C1016 C1023 1.409 . S
C1017 H1009 0.930 . S
C1017 C1015 1.419 1_565 S
C1017 C1018 1.362 . S
C1018 H1010 0.930 . S
C1018 C1017 1.362 . S
C1018 C1021 1.409 . S
C1019 H1011 0.930 . S
C1019 C1020 1.354 . S
C1019 C1021 1.415 . S
C1020 C1019 1.354 . S
C1020 C1022 1.419 1_565 S
C1021 C1016 1.425 1_565 S
C1021 C1018 1.409 . S
C1021 C1019 1.415 . S
C1022 H1012 0.930 . S
C1022 C1020 1.419 1_545 S
C1022 C1023 1.362 . S
C1023 H1013 0.930 . S
C1023 C1016 1.409 . S
C1023 C1022 1.362 . S
H1024 C1030 0.930 . S
H1025 C1033 0.930 . S
H1026 C1034 0.930 . S
H1027 C1035 0.930 . S
H1028 C1038 0.930 . S
H1029 C1039 0.930 . S
C1030 H1024 0.930 . S
C1030 C1031 1.355 . S
C1030 C1032 1.415 . S
C1031 C1030 1.355 . S
C1031 C1033 1.419 . S
C1032 C1030 1.415 . S
C1032 C1037 1.425 . S
C1032 C1039 1.409 . S
C1033 H1025 0.930 . S
C1033 C1031 1.419 . S
C1033 C1034 1.362 . S
C1034 H1026 0.930 . S
C1034 C1033 1.362 . S
C1034 C1037 1.409 . S
C1035 H1027 0.930 . S
C1035 C1036 1.355 . S
C1035 C1037 1.415 . S
C1036 C1035 1.355 . S
C1036 C1038 1.419 . S
C1037 C1032 1.425 . S
C1037 C1034 1.409 . S
C1037 C1035 1.415 . S
C1038 H1028 0.930 . S
C1038 C1036 1.419 . S
C1038 C1039 1.362 . S
C1039 H1029 0.930 . S
C1039 C1032 1.409 . S
C1039 C1038 1.362 . S
H1040 C1046 0.930 . S
H1041 C1049 0.930 . S
H1042 C1050 0.930 . S
H1043 C1051 0.930 . S
H1044 C1054 0.930 . S
H1045 C1055 0.930 . S
C1046 H1040 0.930 . S
C1046 C1047 1.355 1_565 S
C1046 C1048 1.415 1_565 S
C1047 C1046 1.355 1_545 S
C1047 C1049 1.419 . S
C1048 C1046 1.415 1_545 S
C1048 C1053 1.425 . S
C1048 C1055 1.409 1_545 S
C1049 H1041 0.930 . S
C1049 C1047 1.419 . S
C1049 C1050 1.362 . S
C1050 H1042 0.930 . S
C1050 C1049 1.362 . S
C1050 C1053 1.409 . S
C1051 H1043 0.930 . S
C1051 C1052 1.355 . S
C1051 C1053 1.415 . S
C1052 C1051 1.355 . S
C1052 C1054 1.419 1_545 S
C1053 C1048 1.425 . S
C1053 C1050 1.409 . S
C1053 C1051 1.415 . S
C1054 H1044 0.930 . S
C1054 C1052 1.419 1_565 S
C1054 C1055 1.362 . S
C1055 H1045 0.930 . S
C1055 C1048 1.409 1_565 S
C1055 C1054 1.362 . S
H1056 C1062 0.930 . S
H1057 C1065 0.930 . S
H1058 C1066 0.930 . S
H1059 C1067 0.930 . S
H1060 C1070 0.930 . S
H1061 C1071 0.930 . S
C1062 H1056 0.930 . S
C1062 C1063 1.355 . S
C1062 C1064 1.415 . S
C1063 C1062 1.355 . S
C1063 C1065 1.419 . S
C1064 C1062 1.415 . S
C1064 C1069 1.425 . S
C1064 C1071 1.409 . S
C1065 H1057 0.930 . S
C1065 C1063 1.419 . S
C1065 C1066 1.362 . S
C1066 H1058 0.930 . S
C1066 C1065 1.362 . S
C1066 C1069 1.409 . S
C1067 H1059 0.930 . S
C1067 C1068 1.355 . S
C1067 C1069 1.415 . S
C1068 C1067 1.355 . S
C1068 C1070 1.419 . S
C1069 C1064 1.425 . S
C1069 C1066 1.409 . S
C1069 C1067 1.415 . S
C1070 H1060 0.930 . S
C1070 C1068 1.419 . S
C1070 C1071 1.362 . S
C1071 H1061 0.930 . S
C1071 C1064 1.409 . S
C1071 C1070 1.362 . S
H1072 C1078 0.930 . S
H1073 C1081 0.930 1_565 S
H1074 C1082 0.930 1_565 S
H1075 C1083 0.930 . S
H1076 C1086 0.930 . S
H1077 C1087 0.930 . S
C1078 H1072 0.930 . S
C1078 C1079 1.355 . S
C1078 C1080 1.415 . S
C1079 C1078 1.355 . S
C1079 C1081 1.419 . S
C1080 C1078 1.415 . S
C1080 C1085 1.425 . S
C1080 C1087 1.409 . S
C1081 H1073 0.930 1_545 S
C1081 C1079 1.419 . S
C1081 C1082 1.362 . S
C1082 H1074 0.930 1_545 S
C1082 C1081 1.362 . S
C1082 C1085 1.409 . S
C1083 H1075 0.930 . S
C1083 C1084 1.355 . S
C1083 C1085 1.415 . S
C1084 C1083 1.355 . S
C1084 C1086 1.419 . S
C1085 C1080 1.425 . S
C1085 C1082 1.409 . S
C1085 C1083 1.415 . S
C1086 H1076 0.930 . S
C1086 C1084 1.419 . S
C1086 C1087 1.362 . S
C1087 H1077 0.930 . S
C1087 C1080 1.409 . S
C1087 C1086 1.362 . S
H1088 C1094 0.930 . S
H1089 C1097 0.930 . S
H1090 C1098 0.930 . S
H1091 C1099 0.930 . S
H1092 C1102 0.930 . S
H1093 C1103 0.930 . S
C1094 H1088 0.930 . S
C1094 C1095 1.355 . S
C1094 C1096 1.415 . S
C1095 C1094 1.355 . S
C1095 C1097 1.419 . S
C1096 C1094 1.415 . S
C1096 C1101 1.425 . S
C1096 C1103 1.409 . S
C1097 H1089 0.930 . S
C1097 C1095 1.419 . S
C1097 C1098 1.362 . S
C1098 H1090 0.930 . S
C1098 C1097 1.362 . S
C1098 C1101 1.409 . S
C1099 H1091 0.930 . S
C1099 C1100 1.355 . S
C1099 C1101 1.415 . S
C1100 C1099 1.355 . S
C1100 C1102 1.419 . S
C1101 C1096 1.425 . S
C1101 C1098 1.409 . S
C1101 C1099 1.415 . S
C1102 H1092 0.930 . S
C1102 C1100 1.419 . S
C1102 C1103 1.362 . S
C1103 H1093 0.930 . S
C1103 C1096 1.409 . S
C1103 C1102 1.362 . S
H1104 C1110 0.929 . S
H1105 C1113 0.930 . S
H1106 C1114 0.930 . S
H1107 C1115 0.930 . S
H1108 C1118 0.930 . S
H1109 C1119 0.930 . S
C1110 H1104 0.929 . S
C1110 C1111 1.353 1_565 S
C1110 C1112 1.417 . S
C1111 C1110 1.353 1_545 S
C1111 C1113 1.419 . S
C1112 C1110 1.417 . S
C1112 C1117 1.425 . S
C1112 C1119 1.409 . S
C1113 H1105 0.930 . S
C1113 C1111 1.419 . S
C1113 C1114 1.362 . S
C1114 H1106 0.930 . S
C1114 C1113 1.362 . S
C1114 C1117 1.409 1_545 S
C1115 H1107 0.930 . S
C1115 C1116 1.355 . S
C1115 C1117 1.415 . S
C1116 C1115 1.355 . S
C1116 C1118 1.419 . S
C1117 C1112 1.425 . S
C1117 C1114 1.409 1_565 S
C1117 C1115 1.415 . S
C1118 H1108 0.930 . S
C1118 C1116 1.419 . S
C1118 C1119 1.362 . S
C1119 H1109 0.930 . S
C1119 C1112 1.409 . S
C1119 C1118 1.362 . S
H1120 C1126 0.930 . S
H1121 C1129 0.930 . S
H1122 C1130 0.930 . S
H1123 C1131 0.930 . S
H1124 C1134 0.930 . S
H1125 C1135 0.930 . S
C1126 H1120 0.930 . S
C1126 C1127 1.355 . S
C1126 C1128 1.415 . S
C1127 C1126 1.355 . S
C1127 C1129 1.419 . S
C1128 C1126 1.415 . S
C1128 C1133 1.425 . S
C1128 C1135 1.409 . S
C1129 H1121 0.930 . S
C1129 C1127 1.419 . S
C1129 C1130 1.362 . S
C1130 H1122 0.930 . S
C1130 C1129 1.362 . S
C1130 C1133 1.409 . S
C1131 H1123 0.930 . S
C1131 C1132 1.355 . S
C1131 C1133 1.415 . S
C1132 C1131 1.355 . S
C1132 C1134 1.419 . S
C1133 C1128 1.425 . S
C1133 C1130 1.409 . S
C1133 C1131 1.415 . S
C1134 H1124 0.930 . S
C1134 C1132 1.419 . S
C1134 C1135 1.362 . S
C1135 H1125 0.930 . S
C1135 C1128 1.409 . S
C1135 C1134 1.362 . S
H1136 C1142 0.930 . S
H1137 C1145 0.930 . S
H1138 C1146 0.930 . S
H1139 C1147 0.930 . S
H1140 C1150 0.930 . S
H1141 C1151 0.930 . S
C1142 H1136 0.930 . S
C1142 C1143 1.355 . S
C1142 C1144 1.415 . S
C1143 C1142 1.355 . S
C1143 C1145 1.419 . S
C1144 C1142 1.415 . S
C1144 C1149 1.425 . S
C1144 C1151 1.409 1_554 S
C1145 H1137 0.930 . S
C1145 C1143 1.419 . S
C1145 C1146 1.362 . S
C1146 H1138 0.930 . S
C1146 C1145 1.362 . S
C1146 C1149 1.409 . S
C1147 H1139 0.930 . S
C1147 C1148 1.355 1_554 S
C1147 C1149 1.415 . S
C1148 C1147 1.355 1_556 S
C1148 C1150 1.419 . S
C1149 C1144 1.425 . S
C1149 C1146 1.409 . S
C1149 C1147 1.415 . S
C1150 H1140 0.930 . S
C1150 C1148 1.419 . S
C1150 C1151 1.362 . S
C1151 H1141 0.930 . S
C1151 C1144 1.409 1_556 S
C1151 C1150 1.362 . S
H1152 C1158 0.930 . S
H1153 C1161 0.930 . S
H1154 C1162 0.930 . S
H1155 C1163 0.930 . S
H1156 C1166 0.930 . S
H1157 C1167 0.930 . S
C1158 H1152 0.930 . S
C1158 C1159 1.355 . S
C1158 C1160 1.415 . S
C1159 C1158 1.355 . S
C1159 C1161 1.419 . S
C1160 C1158 1.415 . S
C1160 C1165 1.425 . S
C1160 C1167 1.409 . S
C1161 H1153 0.930 . S
C1161 C1159 1.419 . S
C1161 C1162 1.362 . S
C1162 H1154 0.930 . S
C1162 C1161 1.362 . S
C1162 C1165 1.409 . S
C1163 H1155 0.930 . S
C1163 C1164 1.355 . S
C1163 C1165 1.415 . S
C1164 C1163 1.355 . S
C1164 C1166 1.419 . S
C1165 C1160 1.425 . S
C1165 C1162 1.409 . S
C1165 C1163 1.415 . S
C1166 H1156 0.930 . S
C1166 C1164 1.419 . S
C1166 C1167 1.362 . S
C1167 H1157 0.930 . S
C1167 C1160 1.409 . S
C1167 C1166 1.362 . S
H1168 C1174 0.930 . S
H1169 C1177 0.930 . S
H1170 C1178 0.930 . S
H1171 C1179 0.930 . S
H1172 C1182 0.930 . S
H1173 C1183 0.930 . S
C1174 H1168 0.930 . S
C1174 C1175 1.355 . S
C1174 C1176 1.415 . S
C1175 C1174 1.355 . S
C1175 C1177 1.419 . S
C1176 C1174 1.415 . S
C1176 C1181 1.425 . S
C1176 C1183 1.409 . S
C1177 H1169 0.930 . S
C1177 C1175 1.419 . S
C1177 C1178 1.362 . S
C1178 H1170 0.930 . S
C1178 C1177 1.362 . S
C1178 C1181 1.409 . S
C1179 H1171 0.930 . S
C1179 C1180 1.355 . S
C1179 C1181 1.415 . S
C1180 C1179 1.355 . S
C1180 C1182 1.419 . S
C1181 C1176 1.425 . S
C1181 C1178 1.409 . S
C1181 C1179 1.415 . S
C1182 H1172 0.930 . S
C1182 C1180 1.419 . S
C1182 C1183 1.362 . S
C1183 H1173 0.930 . S
C1183 C1176 1.409 . S
C1183 C1182 1.362 . S
H1184 C1190 0.930 . S
H1185 C1193 0.930 . S
H1186 C1194 0.930 . S
H1187 C1195 0.930 . S
H1188 C1198 0.930 . S
H1189 C1199 0.930 . S
C1190 H1184 0.930 . S
C1190 C1191 1.355 . S
C1190 C1192 1.415 . S
C1191 C1190 1.355 . S
C1191 C1193 1.419 . S
C1192 C1190 1.415 . S
C1192 C1197 1.425 . S
C1192 C1199 1.409 . S
C1193 H1185 0.930 . S
C1193 C1191 1.419 . S
C1193 C1194 1.362 . S
C1194 H1186 0.930 . S
C1194 C1193 1.362 . S
C1194 C1197 1.409 . S
C1195 H1187 0.930 . S
C1195 C1196 1.355 . S
C1195 C1197 1.415 . S
C1196 C1195 1.355 . S
C1196 C1198 1.419 . S
C1197 C1192 1.425 . S
C1197 C1194 1.409 . S
C1197 C1195 1.415 . S
C1198 H1188 0.930 . S
C1198 C1196 1.419 . S
C1198 C1199 1.362 . S
C1199 H1189 0.930 . S
C1199 C1192 1.409 . S
C1199 C1198 1.362 . S
H1200 C1206 0.930 . S
H1201 C1209 0.930 . S
H1202 C1210 0.930 . S
H1203 C1211 0.930 . S
H1204 C1214 0.930 . S
H1205 C1215 0.930 . S
C1206 H1200 0.930 . S
C1206 C1207 1.355 . S
C1206 C1208 1.415 . S
C1207 C1206 1.355 . S
C1207 C1209 1.419 . S
C1208 C1206 1.415 . S
C1208 C1213 1.425 . S
C1208 C1215 1.409 . S
C1209 H1201 0.930 . S
C1209 C1207 1.419 . S
C1209 C1210 1.362 . S
C1210 H1202 0.930 . S
C1210 C1209 1.362 . S
C1210 C1213 1.409 . S
C1211 H1203 0.930 . S
C1211 C1212 1.355 . S
C1211 C1213 1.415 . S
C1212 C1211 1.355 . S
C1212 C1214 1.419 . S
C1213 C1208 1.425 . S
C1213 C1210 1.409 . S
C1213 C1211 1.415 . S
C1214 H1204 0.930 . S
C1214 C1212 1.419 . S
C1214 C1215 1.362 . S
C1215 H1205 0.930 . S
C1215 C1208 1.409 . S
C1215 C1214 1.362 . S
H1216 C1222 0.930 . S
H1217 C1225 0.930 . S
H1218 C1226 0.930 1_545 S
H1219 C1227 0.930 1_545 S
H1220 C1230 0.930 . S
H1221 C1231 0.930 . S
C1222 H1216 0.930 . S
C1222 C1223 1.355 . S
C1222 C1224 1.415 . S
C1223 C1222 1.355 . S
C1223 C1225 1.419 . S
C1224 C1222 1.415 . S
C1224 C1229 1.425 . S
C1224 C1231 1.409 . S
C1225 H1217 0.930 . S
C1225 C1223 1.419 . S
C1225 C1226 1.362 . S
C1226 H1218 0.930 1_565 S
C1226 C1225 1.362 . S
C1226 C1229 1.409 . S
C1227 H1219 0.930 1_565 S
C1227 C1228 1.355 . S
C1227 C1229 1.415 . S
C1228 C1227 1.355 . S
C1228 C1230 1.419 . S
C1229 C1224 1.425 . S
C1229 C1226 1.409 . S
C1229 C1227 1.415 . S
C1230 H1220 0.930 . S
C1230 C1228 1.419 . S
C1230 C1231 1.362 . S
C1231 H1221 0.930 . S
C1231 C1224 1.409 . S
C1231 C1230 1.362 . S
H1232 C1238 0.930 . S
H1233 C1241 0.930 . S
H1234 C1242 0.930 . S
H1235 C1243 0.930 . S
H1236 C1246 0.930 . S
H1237 C1247 0.930 . S
C1238 H1232 0.930 . S
C1238 C1239 1.355 . S
C1238 C1240 1.415 . S
C1239 C1238 1.355 . S
C1239 C1241 1.419 . S
C1240 C1238 1.415 . S
C1240 C1245 1.425 . S
C1240 C1247 1.409 . S
C1241 H1233 0.930 . S
C1241 C1239 1.419 . S
C1241 C1242 1.362 . S
C1242 H1234 0.930 . S
C1242 C1241 1.362 . S
C1242 C1245 1.409 . S
C1243 H1235 0.930 . S
C1243 C1244 1.355 . S
C1243 C1245 1.415 . S
C1244 C1243 1.355 . S
C1244 C1246 1.419 . S
C1245 C1240 1.425 . S
C1245 C1242 1.409 . S
C1245 C1243 1.415 . S
C1246 H1236 0.930 . S
C1246 C1244 1.419 . S
C1246 C1247 1.362 . S
C1247 H1237 0.930 . S
C1247 C1240 1.409 . S
C1247 C1246 1.362 . S
H1248 C1254 0.930 . S
H1249 C1257 0.930 . S
H1250 C1258 0.930 . S
H1251 C1259 0.930 . S
H1252 C1262 0.930 . S
H1253 C1263 0.930 . S
C1254 H1248 0.930 . S
C1254 C1255 1.355 . S
C1254 C1256 1.415 . S
C1255 C1254 1.355 . S
C1255 C1257 1.419 . S
C1256 C1254 1.415 . S
C1256 C1261 1.425 . S
C1256 C1263 1.409 . S
C1257 H1249 0.930 . S
C1257 C1255 1.419 . S
C1257 C1258 1.362 . S
C1258 H1250 0.930 . S
C1258 C1257 1.362 . S
C1258 C1261 1.409 . S
C1259 H1251 0.930 . S
C1259 C1260 1.355 . S
C1259 C1261 1.415 . S
C1260 C1259 1.355 . S
C1260 C1262 1.419 . S
C1261 C1256 1.425 . S
C1261 C1258 1.409 . S
C1261 C1259 1.415 . S
C1262 H1252 0.930 . S
C1262 C1260 1.419 . S
C1262 C1263 1.362 . S
C1263 H1253 0.930 . S
C1263 C1256 1.409 . S
C1263 C1262 1.362 . S
H1264 C1270 0.930 . S
H1265 C1273 0.930 . S
H1266 C1274 0.930 . S
H1267 C1275 0.930 . S
H1268 C1278 0.930 . S
H1269 C1279 0.930 1_655 S
C1270 H1264 0.930 . S
C1270 C1271 1.355 1_655 S
C1270 C1272 1.415 1_655 S
C1271 C1270 1.355 1_455 S
C1271 C1273 1.419 . S
C1272 C1270 1.415 1_455 S
C1272 C1277 1.425 . S
C1272 C1279 1.409 . S
C1273 H1265 0.930 . S
C1273 C1271 1.419 . S
C1273 C1274 1.362 . S
C1274 H1266 0.930 . S
C1274 C1273 1.362 . S
C1274 C1277 1.409 . S
C1275 H1267 0.930 . S
C1275 C1276 1.355 . S
C1275 C1277 1.415 . S
C1276 C1275 1.355 . S
C1276 C1278 1.419 1_556 S
C1277 C1272 1.425 . S
C1277 C1274 1.409 . S
C1277 C1275 1.415 . S
C1278 H1268 0.930 . S
C1278 C1276 1.419 1_554 S
C1278 C1279 1.362 1_554 S
C1279 H1269 0.930 1_455 S
C1279 C1272 1.409 . S
C1279 C1278 1.362 1_556 S
H1280 C1286 0.930 . S
H1281 C1289 0.930 . S
H1282 C1290 0.930 . S
H1283 C1291 0.930 . S
H1284 C1294 0.930 . S
H1285 C1295 0.930 . S
C1286 H1280 0.930 . S
C1286 C1287 1.355 . S
C1286 C1288 1.415 . S
C1287 C1286 1.355 . S
C1287 C1289 1.419 . S
C1288 C1286 1.415 . S
C1288 C1293 1.425 . S
C1288 C1295 1.409 . S
C1289 H1281 0.930 . S
C1289 C1287 1.419 . S
C1289 C1290 1.362 . S
C1290 H1282 0.930 . S
C1290 C1289 1.362 . S
C1290 C1293 1.409 . S
C1291 H1283 0.930 . S
C1291 C1292 1.355 . S
C1291 C1293 1.415 . S
C1292 C1291 1.355 . S
C1292 C1294 1.419 . S
C1293 C1288 1.425 . S
C1293 C1290 1.409 . S
C1293 C1291 1.415 . S
C1294 H1284 0.930 . S
C1294 C1292 1.419 . S
C1294 C1295 1.362 . S
C1295 H1285 0.930 . S
C1295 C1288 1.409 . S
C1295 C1294 1.362 . S
H1296 C1302 0.930 . S
H1297 C1305 0.930 . S
H1298 C1306 0.930 . S
H1299 C1307 0.930 . S
H1300 C1310 0.930 . S
H1301 C1311 0.930 . S
C1302 H1296 0.930 . S
C1302 C1303 1.355 . S
C1302 C1304 1.415 . S
C1303 C1302 1.355 . S
C1303 C1305 1.419 . S
C1304 C1302 1.415 . S
C1304 C1309 1.425 . S
C1304 C1311 1.409 . S
C1305 H1297 0.930 . S
C1305 C1303 1.419 . S
C1305 C1306 1.362 . S
C1306 H1298 0.930 . S
C1306 C1305 1.362 . S
C1306 C1309 1.409 . S
C1307 H1299 0.930 . S
C1307 C1308 1.355 . S
C1307 C1309 1.415 . S
C1308 C1307 1.355 . S
C1308 C1310 1.419 . S
C1309 C1304 1.425 . S
C1309 C1306 1.409 . S
C1309 C1307 1.415 . S
C1310 H1300 0.930 . S
C1310 C1308 1.419 . S
C1310 C1311 1.362 . S
C1311 H1301 0.930 . S
C1311 C1304 1.409 . S
C1311 C1310 1.362 . S
H1312 C1318 0.930 . S
H1313 C1321 0.930 . S
H1314 C1322 0.930 . S
H1315 C1323 0.930 . S
H1316 C1326 0.930 . S
H1317 C1327 0.930 . S
C1318 H1312 0.930 . S
C1318 C1319 1.355 . S
C1318 C1320 1.415 . S
C1319 C1318 1.355 . S
C1319 C1321 1.419 . S
C1320 C1318 1.415 . S
C1320 C1325 1.425 . S
C1320 C1327 1.409 . S
C1321 H1313 0.930 . S
C1321 C1319 1.419 . S
C1321 C1322 1.362 . S
C1322 H1314 0.930 . S
C1322 C1321 1.362 . S
C1322 C1325 1.409 . S
C1323 H1315 0.930 . S
C1323 C1324 1.355 . S
C1323 C1325 1.415 . S
C1324 C1323 1.355 . S
C1324 C1326 1.419 . S
C1325 C1320 1.425 . S
C1325 C1322 1.409 . S
C1325 C1323 1.415 . S
C1326 H1316 0.930 . S
C1326 C1324 1.419 . S
C1326 C1327 1.362 . S
C1327 H1317 0.930 . S
C1327 C1320 1.409 . S
C1327 C1326 1.362 . S
H1328 C1334 0.930 . S
H1329 C1337 0.930 1_655 S
H1330 C1338 0.930 1_655 S
H1331 C1339 0.930 . S
H1332 C1342 0.930 . S
H1333 C1343 0.930 . S
C1334 H1328 0.930 . S
C1334 C1335 1.355 . S
C1334 C1336 1.415 . S
C1335 C1334 1.355 . S
C1335 C1337 1.419 . S
C1336 C1334 1.415 . S
C1336 C1341 1.425 . S
C1336 C1343 1.409 . S
C1337 H1329 0.930 1_455 S
C1337 C1335 1.419 . S
C1337 C1338 1.362 . S
C1338 H1330 0.930 1_455 S
C1338 C1337 1.362 . S
C1338 C1341 1.409 . S
C1339 H1331 0.930 . S
C1339 C1340 1.355 . S
C1339 C1341 1.415 . S
C1340 C1339 1.355 . S
C1340 C1342 1.419 . S
C1341 C1336 1.425 . S
C1341 C1338 1.409 . S
C1341 C1339 1.415 . S
C1342 H1332 0.930 . S
C1342 C1340 1.419 . S
C1342 C1343 1.362 . S
C1343 H1333 0.930 . S
C1343 C1336 1.409 . S
C1343 C1342 1.362 . S
H1344 C1350 0.930 . S
H1345 C1353 0.930 . S
H1346 C1354 0.930 . S
H1347 C1355 0.930 . S
H1348 C1358 0.930 . S
H1349 C1359 0.930 . S
C1350 H1344 0.930 . S
C1350 C1351 1.355 . S
C1350 C1352 1.415 . S
C1351 C1350 1.355 . S
C1351 C1353 1.419 . S
C1352 C1350 1.415 . S
C1352 C1357 1.425 . S
C1352 C1359 1.409 . S
C1353 H1345 0.930 . S
C1353 C1351 1.419 . S
C1353 C1354 1.362 . S
C1354 H1346 0.930 . S
C1354 C1353 1.362 . S
C1354 C1357 1.409 . S
C1355 H1347 0.930 . S
C1355 C1356 1.355 . S
C1355 C1357 1.415 . S
C1356 C1355 1.355 . S
C1356 C1358 1.419 . S
C1357 C1352 1.425 . S
C1357 C1354 1.409 . S
C1357 C1355 1.415 . S
C1358 H1348 0.930 . S
C1358 C1356 1.419 . S
C1358 C1359 1.362 . S
C1359 H1349 0.930 . S
C1359 C1352 1.409 . S
C1359 C1358 1.362 . S
H1360 C1366 0.930 . S
H1361 C1369 0.930 . S
H1362 C1370 0.930 . S
H1363 C1371 0.930 . S
H1364 C1374 0.930 . S
H1365 C1375 0.930 . S
C1366 H1360 0.930 . S
C1366 C1367 1.355 . S
C1366 C1368 1.415 . S
C1367 C1366 1.355 . S
C1367 C1369 1.419 . S
C1368 C1366 1.415 . S
C1368 C1373 1.425 . S
C1368 C1375 1.409 . S
C1369 H1361 0.930 . S
C1369 C1367 1.419 . S
C1369 C1370 1.362 . S
C1370 H1362 0.930 . S
C1370 C1369 1.362 . S
C1370 C1373 1.409 . S
C1371 H1363 0.930 . S
C1371 C1372 1.355 . S
C1371 C1373 1.415 . S
C1372 C1371 1.355 . S
C1372 C1374 1.419 . S
C1373 C1368 1.425 . S
C1373 C1370 1.409 . S
C1373 C1371 1.415 . S
C1374 H1364 0.930 . S
C1374 C1372 1.419 . S
C1374 C1375 1.362 . S
C1375 H1365 0.930 . S
C1375 C1368 1.409 . S
C1375 C1374 1.362 . S
H1376 C1382 0.930 . S
H1377 C1385 0.930 . S
H1378 C1386 0.930 . S
H1379 C1387 0.930 . S
H1380 C1390 0.930 . S
H1381 C1391 0.930 . S
C1382 H1376 0.930 . S
C1382 C1383 1.355 . S
C1382 C1384 1.415 . S
C1383 C1382 1.355 . S
C1383 C1385 1.419 . S
C1384 C1382 1.415 . S
C1384 C1389 1.425 . S
C1384 C1391 1.409 . S
C1385 H1377 0.930 . S
C1385 C1383 1.419 . S
C1385 C1386 1.362 . S
C1386 H1378 0.930 . S
C1386 C1385 1.362 . S
C1386 C1389 1.409 . S
C1387 H1379 0.930 . S
C1387 C1388 1.355 . S
C1387 C1389 1.415 . S
C1388 C1387 1.355 . S
C1388 C1390 1.419 . S
C1389 C1384 1.425 . S
C1389 C1386 1.409 . S
C1389 C1387 1.415 . S
C1390 H1380 0.930 . S
C1390 C1388 1.419 . S
C1390 C1391 1.362 . S
C1391 H1381 0.930 . S
C1391 C1384 1.409 . S
C1391 C1390 1.362 . S
H1392 C1398 0.930 . S
H1393 C1401 0.930 . S
H1394 C1402 0.930 . S
H1395 C1403 0.930 . S
H1396 C1406 0.930 . S
H1397 C1407 0.930 . S
C1398 H1392 0.930 . S
C1398 C1399 1.355 . S
C1398 C1400 1.415 . S
C1399 C1398 1.355 . S
C1399 C1401 1.419 1_545 S
C1400 C1398 1.415 . S
C1400 C1405 1.425 . S
C1400 C1407 1.409 1_655 S
C1401 H1393 0.930 . S
C1401 C1399 1.419 1_565 S
C1401 C1402 1.362 . S
C1402 H1394 0.930 . S
C1402 C1401 1.362 . S
C1402 C1405 1.409 1_565 S
C1403 H1395 0.930 . S
C1403 C1404 1.355 1_655 S
C1403 C1405 1.415 . S
C1404 C1403 1.355 1_455 S
C1404 C1406 1.419 . S
C1405 C1400 1.425 . S
C1405 C1402 1.409 1_545 S
C1405 C1403 1.415 . S
C1406 H1396 0.930 . S
C1406 C1404 1.419 . S
C1406 C1407 1.362 . S
C1407 H1397 0.930 . S
C1407 C1400 1.409 1_455 S
C1407 C1406 1.362 . S
H1408 C1414 0.930 . S
H1409 C1417 0.930 . S
H1410 C1418 0.930 . S
H1411 C1419 0.930 . S
H1412 C1422 0.930 . S
H1413 C1423 0.930 . S
C1414 H1408 0.930 . S
C1414 C1415 1.355 . S
C1414 C1416 1.415 . S
C1415 C1414 1.355 . S
C1415 C1417 1.419 . S
C1416 C1414 1.415 . S
C1416 C1421 1.425 . S
C1416 C1423 1.409 . S
C1417 H1409 0.930 . S
C1417 C1415 1.419 . S
C1417 C1418 1.362 . S
C1418 H1410 0.930 . S
C1418 C1417 1.362 . S
C1418 C1421 1.409 . S
C1419 H1411 0.930 . S
C1419 C1420 1.355 . S
C1419 C1421 1.415 . S
C1420 C1419 1.355 . S
C1420 C1422 1.419 . S
C1421 C1416 1.425 . S
C1421 C1418 1.409 . S
C1421 C1419 1.415 . S
C1422 H1412 0.930 . S
C1422 C1420 1.419 . S
C1422 C1423 1.362 . S
C1423 H1413 0.930 . S
C1423 C1416 1.409 . S
C1423 C1422 1.362 . S
H1424 C1430 0.930 . S
H1425 C1433 0.930 . S
H1426 C1434 0.930 . S
H1427 C1435 0.930 . S
H1428 C1438 0.930 . S
H1429 C1439 0.930 . S
C1430 H1424 0.930 . S
C1430 C1431 1.355 1_565 S
C1430 C1432 1.415 . S
C1431 C1430 1.355 1_545 S
C1431 C1433 1.419 . S
C1432 C1430 1.415 . S
C1432 C1437 1.425 1_565 S
C1432 C1439 1.409 . S
C1433 H1425 0.930 . S
C1433 C1431 1.419 . S
C1433 C1434 1.362 . S
C1434 H1426 0.930 . S
C1434 C1433 1.362 . S
C1434 C1437 1.409 . S
C1435 H1427 0.930 . S
C1435 C1436 1.338 1_545 S
C1435 C1437 1.415 . S
C1436 C1435 1.338 1_565 S
C1436 C1438 1.437 . S
C1437 C1432 1.425 1_545 S
C1437 C1434 1.409 . S
C1437 C1435 1.415 . S
C1438 H1428 0.930 . S
C1438 C1436 1.437 . S
C1438 C1439 1.362 . S
C1439 H1429 0.930 . S
C1439 C1432 1.409 . S
C1439 C1438 1.362 . S
H1440 C1446 0.930 . S
H1441 C1449 0.930 . S
H1442 C1450 0.930 . S
H1443 C1451 0.930 . S
H1444 C1454 0.930 . S
H1445 C1455 0.930 . S
C1446 H1440 0.930 . S
C1446 C1447 1.355 . S
C1446 C1448 1.415 . S
C1447 C1446 1.355 . S
C1447 C1449 1.419 . S
C1448 C1446 1.415 . S
C1448 C1453 1.425 . S
C1448 C1455 1.409 . S
C1449 H1441 0.930 . S
C1449 C1447 1.419 . S
C1449 C1450 1.362 . S
C1450 H1442 0.930 . S
C1450 C1449 1.362 . S
C1450 C1453 1.409 . S
C1451 H1443 0.930 . S
C1451 C1452 1.355 . S
C1451 C1453 1.415 . S
C1452 C1451 1.355 . S
C1452 C1454 1.419 . S
C1453 C1448 1.425 . S
C1453 C1450 1.409 . S
C1453 C1451 1.415 . S
C1454 H1444 0.930 . S
C1454 C1452 1.419 . S
C1454 C1455 1.362 . S
C1455 H1445 0.930 . S
C1455 C1448 1.409 . S
C1455 C1454 1.362 . S
H1456 C1462 0.930 . S
H1457 C1465 0.930 . S
H1458 C1466 0.930 . S
H1459 C1467 0.940 . S
H1460 C1470 0.930 . S
H1461 C1471 0.930 . S
C1462 H1456 0.930 . S
C1462 C1463 1.355 1_565 S
C1462 C1464 1.415 . S
C1463 C1462 1.355 1_545 S
C1463 C1465 1.419 . S
C1464 C1462 1.415 . S
C1464 C1469 1.425 1_565 S
C1464 C1471 1.409 . S
C1465 H1457 0.930 . S
C1465 C1463 1.419 . S
C1465 C1466 1.362 . S
C1466 H1458 0.930 . S
C1466 C1465 1.362 . S
C1466 C1469 1.409 . S
C1467 H1459 0.940 . S
C1467 C1468 1.344 1_545 S
C1467 C1469 1.416 . S
C1468 C1467 1.344 1_565 S
C1468 C1470 1.419 . S
C1469 C1464 1.425 1_545 S
C1469 C1466 1.409 . S
C1469 C1467 1.416 . S
C1470 H1460 0.930 . S
C1470 C1468 1.419 . S
C1470 C1471 1.362 . S
C1471 H1461 0.930 . S
C1471 C1464 1.409 . S
C1471 C1470 1.362 . S
H1472 C1478 0.930 . S
H1473 C1481 0.930 . S
H1474 C1482 0.930 . S
H1475 C1483 0.930 . S
H1476 C1486 0.930 . S
H1477 C1487 0.930 . S
C1478 H1472 0.930 . S
C1478 C1479 1.355 . S
C1478 C1480 1.415 . S
C1479 C1478 1.355 . S
C1479 C1481 1.419 . S
C1480 C1478 1.415 . S
C1480 C1485 1.425 . S
C1480 C1487 1.409 . S
C1481 H1473 0.930 . S
C1481 C1479 1.419 . S
C1481 C1482 1.362 . S
C1482 H1474 0.930 . S
C1482 C1481 1.362 . S
C1482 C1485 1.409 . S
C1483 H1475 0.930 . S
C1483 C1484 1.355 . S
C1483 C1485 1.415 . S
C1484 C1483 1.355 . S
C1484 C1486 1.419 . S
C1485 C1480 1.425 . S
C1485 C1482 1.409 . S
C1485 C1483 1.415 . S
C1486 H1476 0.930 . S
C1486 C1484 1.419 . S
C1486 C1487 1.362 . S
C1487 H1477 0.930 . S
C1487 C1480 1.409 . S
C1487 C1486 1.362 . S
H1488 C1494 0.930 1_565 S
H1489 C1497 0.930 . S
H1490 C1498 0.930 . S
H1491 C1499 0.930 . S
H1492 C1502 0.930 . S
H1493 C1503 0.930 1_565 S
C1494 H1488 0.930 1_545 S
C1494 C1495 1.355 . S
C1494 C1496 1.415 . S
C1495 C1494 1.355 . S
C1495 C1497 1.419 . S
C1496 C1494 1.415 . S
C1496 C1501 1.425 . S
C1496 C1503 1.409 . S
C1497 H1489 0.930 . S
C1497 C1495 1.419 . S
C1497 C1498 1.362 . S
C1498 H1490 0.930 . S
C1498 C1497 1.362 . S
C1498 C1501 1.409 . S
C1499 H1491 0.930 . S
C1499 C1500 1.355 . S
C1499 C1501 1.415 . S
C1500 C1499 1.355 . S
C1500 C1502 1.419 . S
C1501 C1496 1.425 . S
C1501 C1498 1.409 . S
C1501 C1499 1.415 . S
C1502 H1492 0.930 . S
C1502 C1500 1.419 . S
C1502 C1503 1.362 . S
C1503 H1493 0.930 1_545 S
C1503 C1496 1.409 . S
C1503 C1502 1.362 . S
H1504 C1510 0.930 . S
H1505 C1513 0.930 . S
H1506 C1514 0.930 . S
H1507 C1515 0.930 . S
H1508 C1518 0.930 . S
H1509 C1519 0.930 . S
C1510 H1504 0.930 . S
C1510 C1511 1.355 . S
C1510 C1512 1.415 . S
C1511 C1510 1.355 . S
C1511 C1513 1.419 . S
C1512 C1510 1.415 . S
C1512 C1517 1.425 . S
C1512 C1519 1.409 . S
C1513 H1505 0.930 . S
C1513 C1511 1.419 . S
C1513 C1514 1.362 . S
C1514 H1506 0.930 . S
C1514 C1513 1.362 . S
C1514 C1517 1.409 . S
C1515 H1507 0.930 . S
C1515 C1516 1.355 . S
C1515 C1517 1.415 . S
C1516 C1515 1.355 . S
C1516 C1518 1.419 . S
C1517 C1512 1.425 . S
C1517 C1514 1.409 . S
C1517 C1515 1.415 . S
C1518 H1508 0.930 . S
C1518 C1516 1.419 . S
C1518 C1519 1.362 . S
C1519 H1509 0.930 . S
C1519 C1512 1.409 . S
C1519 C1518 1.362 . S
H1520 C1526 0.930 . S
H1521 C1529 0.930 1_556 S
H1522 C1530 0.930 1_556 S
H1523 C1531 0.930 . S
H1524 C1534 0.930 . S
H1525 C1535 0.930 . S
C1526 H1520 0.930 . S
C1526 C1527 1.355 . S
C1526 C1528 1.415 . S
C1527 C1526 1.355 . S
C1527 C1529 1.419 . S
C1528 C1526 1.415 . S
C1528 C1533 1.425 . S
C1528 C1535 1.409 . S
C1529 H1521 0.930 1_554 S
C1529 C1527 1.419 . S
C1529 C1530 1.362 . S
C1530 H1522 0.930 1_554 S
C1530 C1529 1.362 . S
C1530 C1533 1.409 . S
C1531 H1523 0.930 . S
C1531 C1532 1.355 . S
C1531 C1533 1.415 . S
C1532 C1531 1.355 . S
C1532 C1534 1.419 . S
C1533 C1528 1.425 . S
C1533 C1530 1.409 . S
C1533 C1531 1.415 . S
C1534 H1524 0.930 . S
C1534 C1532 1.419 . S
C1534 C1535 1.362 . S
C1535 H1525 0.930 . S
C1535 C1528 1.409 . S
C1535 C1534 1.362 . S
H1536 C1542 0.930 . S
H1537 C1545 0.930 . S
H1538 C1546 0.930 . S
H1539 C1547 0.930 . S
H1540 C1550 0.930 . S
H1541 C1551 0.930 . S
C1542 H1536 0.930 . S
C1542 C1543 1.355 1_556 S
C1542 C1544 1.417 . S
C1543 C1542 1.355 1_554 S
C1543 C1545 1.419 . S
C1544 C1542 1.417 . S
C1544 C1549 1.416 1_556 S
C1544 C1551 1.415 . S
C1545 H1537 0.930 . S
C1545 C1543 1.419 . S
C1545 C1546 1.362 . S
C1546 H1538 0.930 . S
C1546 C1545 1.362 . S
C1546 C1549 1.409 . S
C1547 H1539 0.930 . S
C1547 C1548 1.355 . S
C1547 C1549 1.415 . S
C1548 C1547 1.355 . S
C1548 C1550 1.419 1_554 S
C1549 C1544 1.416 1_554 S
C1549 C1546 1.409 . S
C1549 C1547 1.415 . S
C1550 H1540 0.930 . S
C1550 C1548 1.419 1_556 S
C1550 C1551 1.362 . S
C1551 H1541 0.930 . S
C1551 C1544 1.415 . S
C1551 C1550 1.362 . S
H1552 C1558 0.930 . S
H1553 C1561 0.930 . S
H1554 C1562 0.930 . S
H1555 C1563 0.930 . S
H1556 C1566 0.930 . S
H1557 C1567 0.930 . S
C1558 H1552 0.930 . S
C1558 C1559 1.355 . S
C1558 C1560 1.415 . S
C1559 C1558 1.355 . S
C1559 C1561 1.419 . S
C1560 C1558 1.415 . S
C1560 C1565 1.425 . S
C1560 C1567 1.409 . S
C1561 H1553 0.930 . S
C1561 C1559 1.419 . S
C1561 C1562 1.362 . S
C1562 H1554 0.930 . S
C1562 C1561 1.362 . S
C1562 C1565 1.409 . S
C1563 H1555 0.930 . S
C1563 C1564 1.355 . S
C1563 C1565 1.415 . S
C1564 C1563 1.355 . S
C1564 C1566 1.419 . S
C1565 C1560 1.425 . S
C1565 C1562 1.409 . S
C1565 C1563 1.415 . S
C1566 H1556 0.930 . S
C1566 C1564 1.419 . S
C1566 C1567 1.362 . S
C1567 H1557 0.930 . S
C1567 C1560 1.409 . S
C1567 C1566 1.362 . S
H1568 C1574 0.930 . S
H1569 C1577 0.930 . S
H1570 C1578 0.930 . S
H1571 C1579 0.930 . S
H1572 C1582 0.930 . S
H1573 C1583 0.930 . S
C1574 H1568 0.930 . S
C1574 C1575 1.355 . S
C1574 C1576 1.415 . S
C1575 C1574 1.355 . S
C1575 C1577 1.419 . S
C1576 C1574 1.415 . S
C1576 C1581 1.425 . S
C1576 C1583 1.409 . S
C1577 H1569 0.930 . S
C1577 C1575 1.419 . S
C1577 C1578 1.362 . S
C1578 H1570 0.930 . S
C1578 C1577 1.362 . S
C1578 C1581 1.409 . S
C1579 H1571 0.930 . S
C1579 C1580 1.355 . S
C1579 C1581 1.415 . S
C1580 C1579 1.355 . S
C1580 C1582 1.419 . S
C1581 C1576 1.425 . S
C1581 C1578 1.409 . S
C1581 C1579 1.415 . S
C1582 H1572 0.930 . S
C1582 C1580 1.419 . S
C1582 C1583 1.362 . S
C1583 H1573 0.930 . S
C1583 C1576 1.409 . S
C1583 C1582 1.362 . S
H1584 C1590 0.930 . S
H1585 C1593 0.930 . S
H1586 C1594 0.930 . S
H1587 C1595 0.930 . S
H1588 C1598 0.930 . S
H1589 C1599 0.930 . S
C1590 H1584 0.930 . S
C1590 C1591 1.355 . S
C1590 C1592 1.415 . S
C1591 C1590 1.355 . S
C1591 C1593 1.419 . S
C1592 C1590 1.415 . S
C1592 C1597 1.425 . S
C1592 C1599 1.409 . S
C1593 H1585 0.930 . S
C1593 C1591 1.419 . S
C1593 C1594 1.362 . S
C1594 H1586 0.930 . S
C1594 C1593 1.362 . S
C1594 C1597 1.409 . S
C1595 H1587 0.930 . S
C1595 C1596 1.355 . S
C1595 C1597 1.415 . S
C1596 C1595 1.355 . S
C1596 C1598 1.419 . S
C1597 C1592 1.425 . S
C1597 C1594 1.409 . S
C1597 C1595 1.415 . S
C1598 H1588 0.930 . S
C1598 C1596 1.419 . S
C1598 C1599 1.362 . S
C1599 H1589 0.930 . S
C1599 C1592 1.409 . S
C1599 C1598 1.362 . S
H1600 C1606 0.930 . S
H1601 C1609 0.930 . S
H1602 C1610 0.930 . S
H1603 C1611 0.930 . S
H1604 C1614 0.930 . S
H1605 C1615 0.930 . S
C1606 H1600 0.930 . S
C1606 C1607 1.355 . S
C1606 C1608 1.415 . S
C1607 C1606 1.355 . S
C1607 C1609 1.419 . S
C1608 C1606 1.415 . S
C1608 C1613 1.425 . S
C1608 C1615 1.409 . S
C1609 H1601 0.930 . S
C1609 C1607 1.419 . S
C1609 C1610 1.362 . S
C1610 H1602 0.930 . S
C1610 C1609 1.362 . S
C1610 C1613 1.409 . S
C1611 H1603 0.930 . S
C1611 C1612 1.355 . S
C1611 C1613 1.415 . S
C1612 C1611 1.355 . S
C1612 C1614 1.419 . S
C1613 C1608 1.425 . S
C1613 C1610 1.409 . S
C1613 C1611 1.415 . S
C1614 H1604 0.930 . S
C1614 C1612 1.419 . S
C1614 C1615 1.362 . S
C1615 H1605 0.930 . S
C1615 C1608 1.409 . S
C1615 C1614 1.362 . S
H1616 C1622 0.930 . S
H1617 C1625 0.930 . S
H1618 C1626 0.930 . S
H1619 C1627 0.930 . S
H1620 C1630 0.930 . S
H1621 C1631 0.930 . S
C1622 H1616 0.930 . S
C1622 C1623 1.355 . S
C1622 C1624 1.415 . S
C1623 C1622 1.355 . S
C1623 C1625 1.419 . S
C1624 C1622 1.415 . S
C1624 C1629 1.425 . S
C1624 C1631 1.409 . S
C1625 H1617 0.930 . S
C1625 C1623 1.419 . S
C1625 C1626 1.362 . S
C1626 H1618 0.930 . S
C1626 C1625 1.362 . S
C1626 C1629 1.409 . S
C1627 H1619 0.930 . S
C1627 C1628 1.355 . S
C1627 C1629 1.415 . S
C1628 C1627 1.355 . S
C1628 C1630 1.419 . S
C1629 C1624 1.425 . S
C1629 C1626 1.409 . S
C1629 C1627 1.415 . S
C1630 H1620 0.930 . S
C1630 C1628 1.419 . S
C1630 C1631 1.362 . S
C1631 H1621 0.930 . S
C1631 C1624 1.409 . S
C1631 C1630 1.362 . S
H1632 C1638 0.930 . S
H1633 C1641 0.930 . S
H1634 C1642 0.930 . S
H1635 C1643 0.930 . S
H1636 C1646 0.930 . S
H1637 C1647 0.930 . S
C1638 H1632 0.930 . S
C1638 C1639 1.355 . S
C1638 C1640 1.415 . S
C1639 C1638 1.355 . S
C1639 C1641 1.419 . S
C1640 C1638 1.415 . S
C1640 C1645 1.425 . S
C1640 C1647 1.409 . S
C1641 H1633 0.930 . S
C1641 C1639 1.419 . S
C1641 C1642 1.362 . S
C1642 H1634 0.930 . S
C1642 C1641 1.362 . S
C1642 C1645 1.409 . S
C1643 H1635 0.930 . S
C1643 C1644 1.355 . S
C1643 C1645 1.415 . S
C1644 C1643 1.355 . S
C1644 C1646 1.419 . S
C1645 C1640 1.425 . S
C1645 C1642 1.409 . S
C1645 C1643 1.415 . S
C1646 H1636 0.930 . S
C1646 C1644 1.419 . S
C1646 C1647 1.362 . S
C1647 H1637 0.930 . S
C1647 C1640 1.409 . S
C1647 C1646 1.362 . S
H1648 C1654 0.930 . S
H1649 C1657 0.930 . S
H1650 C1658 0.930 . S
H1651 C1659 0.930 . S
H1652 C1662 0.930 . S
H1653 C1663 0.930 . S
C1654 H1648 0.930 . S
C1654 C1655 1.355 . S
C1654 C1656 1.415 . S
C1655 C1654 1.355 . S
C1655 C1657 1.419 . S
C1656 C1654 1.415 . S
C1656 C1661 1.425 . S
C1656 C1663 1.409 . S
C1657 H1649 0.930 . S
C1657 C1655 1.419 . S
C1657 C1658 1.362 . S
C1658 H1650 0.930 . S
C1658 C1657 1.362 . S
C1658 C1661 1.409 . S
C1659 H1651 0.930 . S
C1659 C1660 1.355 . S
C1659 C1661 1.415 . S
C1660 C1659 1.355 . S
C1660 C1662 1.419 . S
C1661 C1656 1.425 . S
C1661 C1658 1.409 . S
C1661 C1659 1.415 . S
C1662 H1652 0.930 . S
C1662 C1660 1.419 . S
C1662 C1663 1.362 . S
C1663 H1653 0.930 . S
C1663 C1656 1.409 . S
C1663 C1662 1.362 . S
H1664 C1670 0.930 . S
H1665 C1673 0.930 . S
H1666 C1674 0.930 . S
H1667 C1675 0.930 . S
H1668 C1678 0.930 . S
H1669 C1679 0.930 . S
C1670 H1664 0.930 . S
C1670 C1671 1.355 . S
C1670 C1672 1.415 . S
C1671 C1670 1.355 . S
C1671 C1673 1.419 . S
C1672 C1670 1.415 . S
C1672 C1677 1.425 . S
C1672 C1679 1.409 . S
C1673 H1665 0.930 . S
C1673 C1671 1.419 . S
C1673 C1674 1.362 . S
C1674 H1666 0.930 . S
C1674 C1673 1.362 . S
C1674 C1677 1.409 . S
C1675 H1667 0.930 . S
C1675 C1676 1.355 . S
C1675 C1677 1.415 . S
C1676 C1675 1.355 . S
C1676 C1678 1.419 . S
C1677 C1672 1.425 . S
C1677 C1674 1.409 . S
C1677 C1675 1.415 . S
C1678 H1668 0.930 . S
C1678 C1676 1.419 . S
C1678 C1679 1.362 . S
C1679 H1669 0.930 . S
C1679 C1672 1.409 . S
C1679 C1678 1.362 . S
H1680 C1686 0.930 . S
H1681 C1689 0.930 . S
H1682 C1690 0.930 . S
H1683 C1691 0.930 . S
H1684 C1694 0.930 . S
H1685 C1695 0.930 . S
C1686 H1680 0.930 . S
C1686 C1687 1.355 . S
C1686 C1688 1.415 . S
C1687 C1686 1.355 . S
C1687 C1689 1.419 . S
C1688 C1686 1.415 . S
C1688 C1693 1.425 . S
C1688 C1695 1.409 . S
C1689 H1681 0.930 . S
C1689 C1687 1.419 . S
C1689 C1690 1.362 . S
C1690 H1682 0.930 . S
C1690 C1689 1.362 . S
C1690 C1693 1.409 . S
C1691 H1683 0.930 . S
C1691 C1692 1.355 . S
C1691 C1693 1.415 . S
C1692 C1691 1.355 . S
C1692 C1694 1.419 . S
C1693 C1688 1.425 . S
C1693 C1690 1.409 . S
C1693 C1691 1.415 . S
C1694 H1684 0.930 . S
C1694 C1692 1.419 . S
C1694 C1695 1.362 . S
C1695 H1685 0.930 . S
C1695 C1688 1.409 . S
C1695 C1694 1.362 . S
H1696 C1702 0.930 . S
H1697 C1705 0.930 . S
H1698 C1706 0.930 . S
H1699 C1707 0.930 . S
H1700 C1710 0.930 . S
H1701 C1711 0.930 . S
C1702 H1696 0.930 . S
C1702 C1703 1.355 . S
C1702 C1704 1.415 . S
C1703 C1702 1.355 . S
C1703 C1705 1.419 . S
C1704 C1702 1.415 . S
C1704 C1709 1.425 . S
C1704 C1711 1.409 . S
C1705 H1697 0.930 . S
C1705 C1703 1.419 . S
C1705 C1706 1.362 . S
C1706 H1698 0.930 . S
C1706 C1705 1.362 . S
C1706 C1709 1.409 . S
C1707 H1699 0.930 . S
C1707 C1708 1.355 . S
C1707 C1709 1.415 . S
C1708 C1707 1.355 . S
C1708 C1710 1.419 . S
C1709 C1704 1.425 . S
C1709 C1706 1.409 . S
C1709 C1707 1.415 . S
C1710 H1700 0.930 . S
C1710 C1708 1.419 . S
C1710 C1711 1.362 . S
C1711 H1701 0.930 . S
C1711 C1704 1.409 . S
C1711 C1710 1.362 . S
H1712 C1718 0.930 . S
H1713 C1721 0.930 . S
H1714 C1722 0.930 . S
H1715 C1723 0.930 1_554 S
H1716 C1726 0.930 . S
H1717 C1727 0.930 . S
C1718 H1712 0.930 . S
C1718 C1719 1.355 . S
C1718 C1720 1.415 . S
C1719 C1718 1.355 . S
C1719 C1721 1.419 . S
C1720 C1718 1.415 . S
C1720 C1725 1.425 . S
C1720 C1727 1.409 . S
C1721 H1713 0.930 . S
C1721 C1719 1.419 . S
C1721 C1722 1.362 . S
C1722 H1714 0.930 . S
C1722 C1721 1.362 . S
C1722 C1725 1.409 . S
C1723 H1715 0.930 1_556 S
C1723 C1724 1.355 . S
C1723 C1725 1.415 . S
C1724 C1723 1.355 . S
C1724 C1726 1.419 . S
C1725 C1720 1.425 . S
C1725 C1722 1.409 . S
C1725 C1723 1.415 . S
C1726 H1716 0.930 . S
C1726 C1724 1.419 . S
C1726 C1727 1.362 . S
C1727 H1717 0.930 . S
C1727 C1720 1.409 . S
C1727 C1726 1.362 . S
H1728 C1734 0.930 1_455 S
H1729 C1737 0.930 . S
H1730 C1738 0.930 . S
H1731 C1739 0.930 . S
H1732 C1742 0.930 . S
H1733 C1743 0.930 . S
C1734 H1728 0.930 1_655 S
C1734 C1735 1.355 1_655 S
C1734 C1736 1.415 . S
C1735 C1734 1.355 1_455 S
C1735 C1737 1.419 1_455 S
C1736 C1734 1.415 . S
C1736 C1741 1.425 . S
C1736 C1743 1.409 . S
C1737 H1729 0.930 . S
C1737 C1735 1.419 1_655 S
C1737 C1738 1.362 . S
C1738 H1730 0.930 . S
C1738 C1737 1.362 . S
C1738 C1741 1.409 . S
C1739 H1731 0.930 . S
C1739 C1740 1.355 . S
C1739 C1741 1.415 . S
C1740 C1739 1.355 . S
C1740 C1742 1.419 . S
C1741 C1736 1.425 . S
C1741 C1738 1.409 . S
C1741 C1739 1.415 . S
C1742 H1732 0.930 . S
C1742 C1740 1.419 . S
C1742 C1743 1.362 . S
C1743 H1733 0.930 . S
C1743 C1736 1.409 . S
C1743 C1742 1.362 . S
H1744 C1750 0.930 . S
H1745 C1753 0.930 . S
H1746 C1754 0.930 . S
H1747 C1755 0.930 . S
H1748 C1758 0.930 . S
H1749 C1759 0.930 . S
C1750 H1744 0.930 . S
C1750 C1751 1.355 . S
C1750 C1752 1.415 . S
C1751 C1750 1.355 . S
C1751 C1753 1.419 . S
C1752 C1750 1.415 . S
C1752 C1757 1.425 . S
C1752 C1759 1.409 . S
C1753 H1745 0.930 . S
C1753 C1751 1.419 . S
C1753 C1754 1.362 . S
C1754 H1746 0.930 . S
C1754 C1753 1.362 . S
C1754 C1757 1.409 . S
C1755 H1747 0.930 . S
C1755 C1756 1.355 . S
C1755 C1757 1.415 . S
C1756 C1755 1.355 . S
C1756 C1758 1.419 . S
C1757 C1752 1.425 . S
C1757 C1754 1.409 . S
C1757 C1755 1.415 . S
C1758 H1748 0.930 . S
C1758 C1756 1.419 . S
C1758 C1759 1.362 . S
C1759 H1749 0.930 . S
C1759 C1752 1.409 . S
C1759 C1758 1.362 . S
H1760 C1766 0.930 . S
H1761 C1769 0.930 . S
H1762 C1770 0.930 . S
H1763 C1771 0.930 . S
H1764 C1774 0.930 . S
H1765 C1775 0.930 . S
C1766 H1760 0.930 . S
C1766 C1767 1.355 . S
C1766 C1768 1.415 . S
C1767 C1766 1.355 . S
C1767 C1769 1.419 . S
C1768 C1766 1.415 . S
C1768 C1773 1.425 . S
C1768 C1775 1.409 . S
C1769 H1761 0.930 . S
C1769 C1767 1.419 . S
C1769 C1770 1.362 . S
C1770 H1762 0.930 . S
C1770 C1769 1.362 . S
C1770 C1773 1.409 . S
C1771 H1763 0.930 . S
C1771 C1772 1.355 . S
C1771 C1773 1.415 . S
C1772 C1771 1.355 . S
C1772 C1774 1.419 . S
C1773 C1768 1.425 . S
C1773 C1770 1.409 . S
C1773 C1771 1.415 . S
C1774 H1764 0.930 . S
C1774 C1772 1.419 . S
C1774 C1775 1.362 . S
C1775 H1765 0.930 . S
C1775 C1768 1.409 . S
C1775 C1774 1.362 . S
H1776 C1782 0.930 . S
H1777 C1785 0.930 . S
H1778 C1786 0.930 . S
H1779 C1787 0.930 . S
H1780 C1790 0.930 . S
H1781 C1791 0.930 . S
C1782 H1776 0.930 . S
C1782 C1783 1.355 . S
C1782 C1784 1.415 . S
C1783 C1782 1.355 . S
C1783 C1785 1.419 . S
C1784 C1782 1.415 . S
C1784 C1789 1.425 . S
C1784 C1791 1.409 . S
C1785 H1777 0.930 . S
C1785 C1783 1.419 . S
C1785 C1786 1.362 . S
C1786 H1778 0.930 . S
C1786 C1785 1.362 . S
C1786 C1789 1.409 . S
C1787 H1779 0.930 . S
C1787 C1788 1.355 . S
C1787 C1789 1.415 . S
C1788 C1787 1.355 . S
C1788 C1790 1.419 . S
C1789 C1784 1.425 . S
C1789 C1786 1.409 . S
C1789 C1787 1.415 . S
C1790 H1780 0.930 . S
C1790 C1788 1.419 . S
C1790 C1791 1.362 . S
C1791 H1781 0.930 . S
C1791 C1784 1.409 . S
C1791 C1790 1.362 . S
H1792 C1798 0.930 . S
H1793 C1801 0.930 . S
H1794 C1802 0.930 . S
H1795 C1803 0.930 . S
H1796 C1806 0.930 . S
H1797 C1807 0.930 . S
C1798 H1792 0.930 . S
C1798 C1799 1.355 . S
C1798 C1800 1.415 . S
C1799 C1798 1.355 . S
C1799 C1801 1.419 . S
C1800 C1798 1.415 . S
C1800 C1805 1.425 . S
C1800 C1807 1.409 . S
C1801 H1793 0.930 . S
C1801 C1799 1.419 . S
C1801 C1802 1.362 . S
C1802 H1794 0.930 . S
C1802 C1801 1.362 . S
C1802 C1805 1.409 . S
C1803 H1795 0.930 . S
C1803 C1804 1.355 . S
C1803 C1805 1.415 . S
C1804 C1803 1.355 . S
C1804 C1806 1.419 . S
C1805 C1800 1.425 . S
C1805 C1802 1.409 . S
C1805 C1803 1.415 . S
C1806 H1796 0.930 . S
C1806 C1804 1.419 . S
C1806 C1807 1.362 . S
C1807 H1797 0.930 . S
C1807 C1800 1.409 . S
C1807 C1806 1.362 . S
H1808 C1814 0.930 . S
H1809 C1817 0.930 . S
H1810 C1818 0.930 . S
H1811 C1819 0.930 1_455 S
H1812 C1822 0.930 . S
H1813 C1823 0.930 . S
C1814 H1808 0.930 . S
C1814 C1815 1.355 . S
C1814 C1816 1.415 . S
C1815 C1814 1.355 . S
C1815 C1817 1.419 . S
C1816 C1814 1.415 . S
C1816 C1821 1.425 . S
C1816 C1823 1.409 . S
C1817 H1809 0.930 . S
C1817 C1815 1.419 . S
C1817 C1818 1.362 . S
C1818 H1810 0.930 . S
C1818 C1817 1.362 . S
C1818 C1821 1.409 . S
C1819 H1811 0.930 1_655 S
C1819 C1820 1.355 1_655 S
C1819 C1821 1.415 . S
C1820 C1819 1.355 1_455 S
C1820 C1822 1.419 1_455 S
C1821 C1816 1.425 . S
C1821 C1818 1.409 . S
C1821 C1819 1.415 . S
C1822 H1812 0.930 . S
C1822 C1820 1.419 1_655 S
C1822 C1823 1.362 . S
C1823 H1813 0.930 . S
C1823 C1816 1.409 . S
C1823 C1822 1.362 . S
H1824 C1830 0.930 . S
H1825 C1833 0.930 . S
H1826 C1834 0.930 . S
H1827 C1835 0.930 . S
H1828 C1838 0.930 . S
H1829 C1839 0.930 . S
C1830 H1824 0.930 . S
C1830 C1831 1.355 . S
C1830 C1832 1.415 . S
C1831 C1830 1.355 . S
C1831 C1833 1.419 . S
C1832 C1830 1.415 . S
C1832 C1837 1.425 . S
C1832 C1839 1.409 . S
C1833 H1825 0.930 . S
C1833 C1831 1.419 . S
C1833 C1834 1.362 . S
C1834 H1826 0.930 . S
C1834 C1833 1.362 . S
C1834 C1837 1.409 . S
C1835 H1827 0.930 . S
C1835 C1836 1.355 . S
C1835 C1837 1.415 . S
C1836 C1835 1.355 . S
C1836 C1838 1.419 . S
C1837 C1832 1.425 . S
C1837 C1834 1.409 . S
C1837 C1835 1.415 . S
C1838 H1828 0.930 . S
C1838 C1836 1.419 . S
C1838 C1839 1.362 . S
C1839 H1829 0.930 . S
C1839 C1832 1.409 . S
C1839 C1838 1.362 . S
H1840 C1846 0.930 . S
H1841 C1849 0.930 . S
H1842 C1850 0.930 . S
H1843 C1851 0.930 . S
H1844 C1854 0.930 . S
H1845 C1855 0.930 . S
C1846 H1840 0.930 . S
C1846 C1847 1.355 . S
C1846 C1848 1.415 . S
C1847 C1846 1.355 . S
C1847 C1849 1.419 . S
C1848 C1846 1.415 . S
C1848 C1853 1.425 . S
C1848 C1855 1.409 . S
C1849 H1841 0.930 . S
C1849 C1847 1.419 . S
C1849 C1850 1.362 . S
C1850 H1842 0.930 . S
C1850 C1849 1.362 . S
C1850 C1853 1.409 . S
C1851 H1843 0.930 . S
C1851 C1852 1.355 . S
C1851 C1853 1.415 . S
C1852 C1851 1.355 . S
C1852 C1854 1.419 . S
C1853 C1848 1.425 . S
C1853 C1850 1.409 . S
C1853 C1851 1.415 . S
C1854 H1844 0.930 . S
C1854 C1852 1.419 . S
C1854 C1855 1.362 . S
C1855 H1845 0.930 . S
C1855 C1848 1.409 . S
C1855 C1854 1.362 . S
H1856 C1862 0.930 . S
H1857 C1865 0.930 . S
H1858 C1866 0.930 . S
H1859 C1867 0.930 . S
H1860 C1870 0.930 . S
H1861 C1871 0.930 . S
C1862 H1856 0.930 . S
C1862 C1863 1.355 . S
C1862 C1864 1.415 . S
C1863 C1862 1.355 . S
C1863 C1865 1.419 . S
C1864 C1862 1.415 . S
C1864 C1869 1.425 . S
C1864 C1871 1.409 . S
C1865 H1857 0.930 . S
C1865 C1863 1.419 . S
C1865 C1866 1.362 . S
C1866 H1858 0.930 . S
C1866 C1865 1.362 . S
C1866 C1869 1.409 . S
C1867 H1859 0.930 . S
C1867 C1868 1.355 . S
C1867 C1869 1.415 . S
C1868 C1867 1.355 . S
C1868 C1870 1.419 . S
C1869 C1864 1.425 . S
C1869 C1866 1.409 . S
C1869 C1867 1.415 . S
C1870 H1860 0.930 . S
C1870 C1868 1.419 . S
C1870 C1871 1.362 . S
C1871 H1861 0.930 . S
C1871 C1864 1.409 . S
C1871 C1870 1.362 . S
H1872 C1878 0.930 . S
H1873 C1881 0.930 . S
H1874 C1882 0.930 . S
H1875 C1883 0.930 . S
H1876 C1886 0.930 . S
H1877 C1887 0.919 1_455 S
C1878 H1872 0.930 . S
C1878 C1879 1.355 . S
C1878 C1880 1.415 . S
C1879 C1878 1.355 . S
C1879 C1881 1.419 . S
C1880 C1878 1.415 . S
C1880 C1885 1.425 . S
C1880 C1887 1.409 . S
C1881 H1873 0.930 . S
C1881 C1879 1.419 . S
C1881 C1882 1.362 . S
C1882 H1874 0.930 . S
C1882 C1881 1.362 . S
C1882 C1885 1.409 . S
C1883 H1875 0.930 . S
C1883 C1884 1.355 . S
C1883 C1885 1.415 . S
C1884 C1883 1.355 . S
C1884 C1886 1.419 1_655 S
C1885 C1880 1.425 . S
C1885 C1882 1.409 . S
C1885 C1883 1.415 . S
C1886 H1876 0.930 . S
C1886 C1884 1.419 1_455 S
C1886 C1887 1.362 1_455 S
C1887 H1877 0.919 1_655 S
C1887 C1880 1.409 . S
C1887 C1886 1.362 1_655 S
H1888 C1894 0.930 . S
H1889 C1897 0.930 . S
H1890 C1898 0.930 . S
H1891 C1899 0.930 . S
H1892 C1902 0.930 . S
H1893 C1903 0.930 . S
C1894 H1888 0.930 . S
C1894 C1895 1.355 . S
C1894 C1896 1.415 . S
C1895 C1894 1.355 . S
C1895 C1897 1.419 . S
C1896 C1894 1.415 . S
C1896 C1901 1.425 . S
C1896 C1903 1.409 . S
C1897 H1889 0.930 . S
C1897 C1895 1.419 . S
C1897 C1898 1.362 . S
C1898 H1890 0.930 . S
C1898 C1897 1.362 . S
C1898 C1901 1.409 . S
C1899 H1891 0.930 . S
C1899 C1900 1.355 . S
C1899 C1901 1.415 . S
C1900 C1899 1.355 . S
C1900 C1902 1.419 . S
C1901 C1896 1.425 . S
C1901 C1898 1.409 . S
C1901 C1899 1.415 . S
C1902 H1892 0.930 . S
C1902 C1900 1.419 . S
C1902 C1903 1.362 . S
C1903 H1893 0.930 . S
C1903 C1896 1.409 . S
C1903 C1902 1.362 . S
H1904 C1910 0.930 . S
H1905 C1913 0.930 . S
H1906 C1914 0.930 . S
H1907 C1915 0.930 . S
H1908 C1918 0.930 . S
H1909 C1919 0.930 . S
C1910 H1904 0.930 . S
C1910 C1911 1.355 . S
C1910 C1912 1.415 . S
C1911 C1910 1.355 . S
C1911 C1913 1.419 . S
C1912 C1910 1.415 . S
C1912 C1917 1.425 . S
C1912 C1919 1.409 . S
C1913 H1905 0.930 . S
C1913 C1911 1.419 . S
C1913 C1914 1.362 . S
C1914 H1906 0.930 . S
C1914 C1913 1.362 . S
C1914 C1917 1.409 . S
C1915 H1907 0.930 . S
C1915 C1916 1.355 . S
C1915 C1917 1.415 . S
C1916 C1915 1.355 . S
C1916 C1918 1.419 . S
C1917 C1912 1.425 . S
C1917 C1914 1.409 . S
C1917 C1915 1.415 . S
C1918 H1908 0.930 . S
C1918 C1916 1.419 . S
C1918 C1919 1.362 . S
C1919 H1909 0.930 . S
C1919 C1912 1.409 . S
C1919 C1918 1.362 . S
H1920 C1926 0.930 . S
H1921 C1929 0.930 . S
H1922 C1930 0.930 . S
H1923 C1931 0.930 . S
H1924 C1934 0.930 . S
H1925 C1935 0.930 . S
C1926 H1920 0.930 . S
C1926 C1927 1.355 . S
C1926 C1928 1.415 . S
C1927 C1926 1.355 . S
C1927 C1929 1.419 . S
C1928 C1926 1.415 . S
C1928 C1933 1.425 . S
C1928 C1935 1.409 . S
C1929 H1921 0.930 . S
C1929 C1927 1.419 . S
C1929 C1930 1.362 . S
C1930 H1922 0.930 . S
C1930 C1929 1.362 . S
C1930 C1933 1.409 . S
C1931 H1923 0.930 . S
C1931 C1932 1.355 . S
C1931 C1933 1.415 . S
C1932 C1931 1.355 . S
C1932 C1934 1.419 . S
C1933 C1928 1.425 . S
C1933 C1930 1.409 . S
C1933 C1931 1.415 . S
C1934 H1924 0.930 . S
C1934 C1932 1.419 . S
C1934 C1935 1.362 . S
C1935 H1925 0.930 . S
C1935 C1928 1.409 . S
C1935 C1934 1.362 . S
H1936 C1942 0.930 . S
H1937 C1945 0.930 . S
H1938 C1946 0.930 . S
H1939 C1947 0.930 . S
H1940 C1950 0.930 . S
H1941 C1951 0.930 . S
C1942 H1936 0.930 . S
C1942 C1943 1.355 . S
C1942 C1944 1.415 . S
C1943 C1942 1.355 . S
C1943 C1945 1.419 . S
C1944 C1942 1.415 . S
C1944 C1949 1.425 . S
C1944 C1951 1.409 . S
C1945 H1937 0.930 . S
C1945 C1943 1.419 . S
C1945 C1946 1.362 . S
C1946 H1938 0.930 . S
C1946 C1945 1.362 . S
C1946 C1949 1.409 . S
C1947 H1939 0.930 . S
C1947 C1948 1.355 . S
C1947 C1949 1.415 . S
C1948 C1947 1.355 . S
C1948 C1950 1.419 . S
C1949 C1944 1.425 . S
C1949 C1946 1.409 . S
C1949 C1947 1.415 . S
C1950 H1940 0.930 . S
C1950 C1948 1.419 . S
C1950 C1951 1.362 . S
C1951 H1941 0.930 . S
C1951 C1944 1.409 . S
C1951 C1950 1.362 . S
H1952 C1958 0.930 . S
H1953 C1961 0.930 1_556 S
H1954 C1962 0.930 1_556 S
H1955 C1963 0.930 . S
H1956 C1966 0.930 . S
H1957 C1967 0.930 . S
C1958 H1952 0.930 . S
C1958 C1959 1.355 . S
C1958 C1960 1.415 . S
C1959 C1958 1.355 . S
C1959 C1961 1.419 . S
C1960 C1958 1.415 . S
C1960 C1965 1.425 . S
C1960 C1967 1.409 . S
C1961 H1953 0.930 1_554 S
C1961 C1959 1.419 . S
C1961 C1962 1.362 . S
C1962 H1954 0.930 1_554 S
C1962 C1961 1.362 . S
C1962 C1965 1.409 . S
C1963 H1955 0.930 . S
C1963 C1964 1.355 . S
C1963 C1965 1.415 . S
C1964 C1963 1.355 . S
C1964 C1966 1.419 . S
C1965 C1960 1.425 . S
C1965 C1962 1.409 . S
C1965 C1963 1.415 . S
C1966 H1956 0.930 . S
C1966 C1964 1.419 . S
C1966 C1967 1.362 . S
C1967 H1957 0.930 . S
C1967 C1960 1.409 . S
C1967 C1966 1.362 . S
H1968 C1974 0.930 . S
H1969 C1977 0.930 . S
H1970 C1978 0.930 . S
H1971 C1979 0.930 . S
H1972 C1982 0.930 . S
H1973 C1983 0.930 . S
C1974 H1968 0.930 . S
C1974 C1975 1.355 . S
C1974 C1976 1.415 . S
C1975 C1974 1.355 . S
C1975 C1977 1.419 . S
C1976 C1974 1.415 . S
C1976 C1981 1.425 . S
C1976 C1983 1.409 . S
C1977 H1969 0.930 . S
C1977 C1975 1.419 . S
C1977 C1978 1.362 . S
C1978 H1970 0.930 . S
C1978 C1977 1.362 . S
C1978 C1981 1.409 . S
C1979 H1971 0.930 . S
C1979 C1980 1.355 . S
C1979 C1981 1.415 . S
C1980 C1979 1.355 . S
C1980 C1982 1.419 . S
C1981 C1976 1.425 . S
C1981 C1978 1.409 . S
C1981 C1979 1.415 . S
C1982 H1972 0.930 . S
C1982 C1980 1.419 . S
C1982 C1983 1.362 . S
C1983 H1973 0.930 . S
C1983 C1976 1.409 . S
C1983 C1982 1.362 . S
H1984 C1990 0.930 . S
H1985 C1993 0.930 . S
H1986 C1994 0.930 . S
H1987 C1995 0.930 . S
H1988 C1998 0.930 . S
H1989 C1999 0.930 . S
C1990 H1984 0.930 . S
C1990 C1991 1.355 . S
C1990 C1992 1.415 . S
C1991 C1990 1.355 . S
C1991 C1993 1.419 . S
C1992 C1990 1.415 . S
C1992 C1997 1.425 . S
C1992 C1999 1.409 . S
C1993 H1985 0.930 . S
C1993 C1991 1.419 . S
C1993 C1994 1.362 . S
C1994 H1986 0.930 . S
C1994 C1993 1.362 . S
C1994 C1997 1.409 . S
C1995 H1987 0.930 . S
C1995 C1996 1.355 . S
C1995 C1997 1.415 . S
C1996 C1995 1.355 . S
C1996 C1998 1.419 . S
C1997 C1992 1.425 . S
C1997 C1994 1.409 . S
C1997 C1995 1.415 . S
C1998 H1988 0.930 . S
C1998 C1996 1.419 . S
C1998 C1999 1.362 . S
C1999 H1989 0.930 . S
C1999 C1992 1.409 . S
C1999 C1998 1.362 . S
H2000 C2006 0.930 . S
H2001 C2009 0.930 . S
H2002 C2010 0.930 . S
H2003 C2011 0.930 . S
H2004 C2014 0.930 . S
H2005 C2015 0.930 . S
C2006 H2000 0.930 . S
C2006 C2007 1.355 . S
C2006 C2008 1.415 . S
C2007 C2006 1.355 . S
C2007 C2009 1.419 . S
C2008 C2006 1.415 . S
C2008 C2013 1.425 . S
C2008 C2015 1.409 . S
C2009 H2001 0.930 . S
C2009 C2007 1.419 . S
C2009 C2010 1.362 . S
C2010 H2002 0.930 . S
C2010 C2009 1.362 . S
C2010 C2013 1.409 . S
C2011 H2003 0.930 . S
C2011 C2012 1.355 . S
C2011 C2013 1.415 . S
C2012 C2011 1.355 . S
C2012 C2014 1.419 . S
C2013 C2008 1.425 . S
C2013 C2010 1.409 . S
C2013 C2011 1.415 . S
C2014 H2004 0.930 . S
C2014 C2012 1.419 . S
C2014 C2015 1.362 . S
C2015 H2005 0.930 . S
C2015 C2008 1.409 . S
C2015 C2014 1.362 . S
H2016 C2022 0.930 . S
H2017 C2025 0.930 . S
H2018 C2026 0.930 . S
H2019 C2027 0.930 . S
H2020 C2030 0.930 . S
H2021 C2031 0.930 . S
C2022 H2016 0.930 . S
C2022 C2023 1.355 . S
C2022 C2024 1.415 . S
C2023 C2022 1.355 . S
C2023 C2025 1.419 . S
C2024 C2022 1.415 . S
C2024 C2029 1.425 . S
C2024 C2031 1.409 . S
C2025 H2017 0.930 . S
C2025 C2023 1.419 . S
C2025 C2026 1.362 . S
C2026 H2018 0.930 . S
C2026 C2025 1.362 . S
C2026 C2029 1.409 . S
C2027 H2019 0.930 . S
C2027 C2028 1.355 . S
C2027 C2029 1.415 . S
C2028 C2027 1.355 . S
C2028 C2030 1.419 . S
C2029 C2024 1.425 . S
C2029 C2026 1.409 . S
C2029 C2027 1.415 . S
C2030 H2020 0.930 . S
C2030 C2028 1.419 . S
C2030 C2031 1.362 . S
C2031 H2021 0.930 . S
C2031 C2024 1.409 . S
C2031 C2030 1.362 . S
H2032 C2038 0.930 . S
H2033 C2041 0.930 . S
H2034 C2042 0.930 . S
H2035 C2043 0.930 . S
H2036 C2046 0.930 . S
H2037 C2047 0.930 . S
C2038 H2032 0.930 . S
C2038 C2039 1.355 . S
C2038 C2040 1.415 . S
C2039 C2038 1.355 . S
C2039 C2041 1.419 . S
C2040 C2038 1.415 . S
C2040 C2045 1.425 . S
C2040 C2047 1.409 . S
C2041 H2033 0.930 . S
C2041 C2039 1.419 . S
C2041 C2042 1.362 . S
C2042 H2034 0.930 . S
C2042 C2041 1.362 . S
C2042 C2045 1.409 . S
C2043 H2035 0.930 . S
C2043 C2044 1.355 . S
C2043 C2045 1.415 . S
C2044 C2043 1.355 . S
C2044 C2046 1.419 . S
C2045 C2040 1.425 . S
C2045 C2042 1.409 . S
C2045 C2043 1.415 . S
C2046 H2036 0.930 . S
C2046 C2044 1.419 . S
C2046 C2047 1.362 . S
C2047 H2037 0.930 . S
C2047 C2040 1.409 . S
C2047 C2046 1.362 . S
H2048 C2054 0.930 . S
H2049 C2057 0.930 . S
H2050 C2058 0.930 . S
H2051 C2059 0.930 . S
H2052 C2062 0.930 . S
H2053 C2063 0.930 . S
C2054 H2048 0.930 . S
C2054 C2055 1.355 . S
C2054 C2056 1.415 . S
C2055 C2054 1.355 . S
C2055 C2057 1.419 . S
C2056 C2054 1.415 . S
C2056 C2061 1.425 . S
C2056 C2063 1.409 . S
C2057 H2049 0.930 . S
C2057 C2055 1.419 . S
C2057 C2058 1.362 . S
C2058 H2050 0.930 . S
C2058 C2057 1.362 . S
C2058 C2061 1.409 . S
C2059 H2051 0.930 . S
C2059 C2060 1.355 . S
C2059 C2061 1.415 . S
C2060 C2059 1.355 . S
C2060 C2062 1.419 . S
C2061 C2056 1.425 . S
C2061 C2058 1.409 . S
C2061 C2059 1.415 . S
C2062 H2052 0.930 . S
C2062 C2060 1.419 . S
C2062 C2063 1.362 . S
C2063 H2053 0.930 . S
C2063 C2056 1.409 . S
C2063 C2062 1.362 . S
H2064 C2070 0.930 . S
H2065 C2073 0.930 . S
H2066 C2074 0.930 . S
H2067 C2075 0.922 1_454 S
H2068 C2078 0.930 . S
H2069 C2079 0.930 . S
C2070 H2064 0.930 . S
C2070 C2071 1.351 1_655 S
C2070 C2072 1.415 . S
C2071 C2070 1.351 1_455 S
C2071 C2073 1.421 . S
C2072 C2070 1.415 . S
C2072 C2077 1.426 . S
C2072 C2079 1.409 . S
C2073 H2065 0.930 . S
C2073 C2071 1.421 . S
C2073 C2074 1.362 . S
C2074 H2066 0.930 . S
C2074 C2073 1.362 . S
C2074 C2077 1.408 1_455 S
C2075 H2067 0.922 1_656 S
C2075 C2076 1.359 . S
C2075 C2077 1.414 . S
C2076 C2075 1.359 . S
C2076 C2078 1.419 . S
C2077 C2072 1.426 . S
C2077 C2074 1.408 1_655 S
C2077 C2075 1.414 . S
C2078 H2068 0.930 . S
C2078 C2076 1.419 . S
C2078 C2079 1.362 . S
C2079 H2069 0.930 . S
C2079 C2072 1.409 . S
C2079 C2078 1.362 . S
H2080 C2086 0.930 . S
H2081 C2089 0.930 . S
H2082 C2090 0.930 . S
H2083 C2091 0.930 . S
H2084 C2094 0.930 . S
H2085 C2095 0.930 . S
C2086 H2080 0.930 . S
C2086 C2087 1.355 . S
C2086 C2088 1.415 . S
C2087 C2086 1.355 . S
C2087 C2089 1.419 . S
C2088 C2086 1.415 . S
C2088 C2093 1.425 . S
C2088 C2095 1.409 . S
C2089 H2081 0.930 . S
C2089 C2087 1.419 . S
C2089 C2090 1.362 . S
C2090 H2082 0.930 . S
C2090 C2089 1.362 . S
C2090 C2093 1.409 . S
C2091 H2083 0.930 . S
C2091 C2092 1.355 . S
C2091 C2093 1.415 . S
C2092 C2091 1.355 . S
C2092 C2094 1.419 . S
C2093 C2088 1.425 . S
C2093 C2090 1.409 . S
C2093 C2091 1.415 . S
C2094 H2084 0.930 . S
C2094 C2092 1.419 . S
C2094 C2095 1.362 . S
C2095 H2085 0.930 . S
C2095 C2088 1.409 . S
C2095 C2094 1.362 . S
H2096 C2102 0.930 . S
H2097 C2105 0.930 . S
H2098 C2106 0.930 . S
H2099 C2107 0.930 . S
H2100 C2110 0.930 . S
H2101 C2111 0.930 . S
C2102 H2096 0.930 . S
C2102 C2103 1.355 . S
C2102 C2104 1.415 . S
C2103 C2102 1.355 . S
C2103 C2105 1.419 . S
C2104 C2102 1.415 . S
C2104 C2109 1.425 . S
C2104 C2111 1.409 . S
C2105 H2097 0.930 . S
C2105 C2103 1.419 . S
C2105 C2106 1.362 . S
C2106 H2098 0.930 . S
C2106 C2105 1.362 . S
C2106 C2109 1.409 . S
C2107 H2099 0.930 . S
C2107 C2108 1.355 . S
C2107 C2109 1.415 . S
C2108 C2107 1.355 . S
C2108 C2110 1.419 . S
C2109 C2104 1.425 . S
C2109 C2106 1.409 . S
C2109 C2107 1.415 . S
C2110 H2100 0.930 . S
C2110 C2108 1.419 . S
C2110 C2111 1.362 . S
C2111 H2101 0.930 . S
C2111 C2104 1.409 . S
C2111 C2110 1.362 . S
H2112 C2118 0.930 . S
H2113 C2121 0.930 . S
H2114 C2122 0.930 . S
H2115 C2123 0.930 . S
H2116 C2126 0.930 . S
H2117 C2127 0.930 . S
C2118 H2112 0.930 . S
C2118 C2119 1.355 . S
C2118 C2120 1.415 . S
C2119 C2118 1.355 . S
C2119 C2121 1.419 . S
C2120 C2118 1.415 . S
C2120 C2125 1.425 . S
C2120 C2127 1.409 . S
C2121 H2113 0.930 . S
C2121 C2119 1.419 . S
C2121 C2122 1.362 . S
C2122 H2114 0.930 . S
C2122 C2121 1.362 . S
C2122 C2125 1.409 . S
C2123 H2115 0.930 . S
C2123 C2124 1.355 . S
C2123 C2125 1.415 . S
C2124 C2123 1.355 . S
C2124 C2126 1.419 . S
C2125 C2120 1.425 . S
C2125 C2122 1.409 . S
C2125 C2123 1.415 . S
C2126 H2116 0.930 . S
C2126 C2124 1.419 . S
C2126 C2127 1.362 . S
C2127 H2117 0.930 . S
C2127 C2120 1.409 . S
C2127 C2126 1.362 . S
H2128 C2134 0.930 . S
H2129 C2137 0.930 . S
H2130 C2138 0.930 . S
H2131 C2139 0.930 . S
H2132 C2142 0.930 1_655 S
H2133 C2143 0.930 1_655 S
C2134 H2128 0.930 . S
C2134 C2135 1.355 . S
C2134 C2136 1.415 . S
C2135 C2134 1.355 . S
C2135 C2137 1.419 . S
C2136 C2134 1.415 . S
C2136 C2141 1.425 . S
C2136 C2143 1.409 . S
C2137 H2129 0.930 . S
C2137 C2135 1.419 . S
C2137 C2138 1.362 . S
C2138 H2130 0.930 . S
C2138 C2137 1.362 . S
C2138 C2141 1.409 . S
C2139 H2131 0.930 . S
C2139 C2140 1.355 . S
C2139 C2141 1.415 . S
C2140 C2139 1.355 . S
C2140 C2142 1.419 . S
C2141 C2136 1.425 . S
C2141 C2138 1.409 . S
C2141 C2139 1.415 . S
C2142 H2132 0.930 1_455 S
C2142 C2140 1.419 . S
C2142 C2143 1.362 . S
C2143 H2133 0.930 1_455 S
C2143 C2136 1.409 . S
C2143 C2142 1.362 . S
H2144 C2150 0.930 . S
H2145 C2153 0.930 . S
H2146 C2154 0.930 . S
H2147 C2155 0.930 . S
H2148 C2158 0.930 . S
H2149 C2159 0.930 . S
C2150 H2144 0.930 . S
C2150 C2151 1.355 . S
C2150 C2152 1.415 . S
C2151 C2150 1.355 . S
C2151 C2153 1.419 . S
C2152 C2150 1.415 . S
C2152 C2157 1.425 . S
C2152 C2159 1.409 . S
C2153 H2145 0.930 . S
C2153 C2151 1.419 . S
C2153 C2154 1.362 . S
C2154 H2146 0.930 . S
C2154 C2153 1.362 . S
C2154 C2157 1.409 . S
C2155 H2147 0.930 . S
C2155 C2156 1.355 . S
C2155 C2157 1.415 . S
C2156 C2155 1.355 . S
C2156 C2158 1.419 . S
C2157 C2152 1.425 . S
C2157 C2154 1.409 . S
C2157 C2155 1.415 . S
C2158 H2148 0.930 . S
C2158 C2156 1.419 . S
C2158 C2159 1.362 . S
C2159 H2149 0.930 . S
C2159 C2152 1.409 . S
C2159 C2158 1.362 . S
H2160 C2166 0.930 . S
H2161 C2169 0.930 . S
H2162 C2170 0.930 . S
H2163 C2171 0.930 . S
H2164 C2174 0.930 . S
H2165 C2175 0.930 . S
C2166 H2160 0.930 . S
C2166 C2167 1.355 . S
C2166 C2168 1.415 . S
C2167 C2166 1.355 . S
C2167 C2169 1.419 . S
C2168 C2166 1.415 . S
C2168 C2173 1.425 . S
C2168 C2175 1.409 . S
C2169 H2161 0.930 . S
C2169 C2167 1.419 . S
C2169 C2170 1.362 . S
C2170 H2162 0.930 . S
C2170 C2169 1.362 . S
C2170 C2173 1.409 . S
C2171 H2163 0.930 . S
C2171 C2172 1.355 . S
C2171 C2173 1.415 . S
C2172 C2171 1.355 . S
C2172 C2174 1.419 . S
C2173 C2168 1.425 . S
C2173 C2170 1.409 . S
C2173 C2171 1.415 . S
C2174 H2164 0.930 . S
C2174 C2172 1.419 . S
C2174 C2175 1.362 . S
C2175 H2165 0.930 . S
C2175 C2168 1.409 . S
C2175 C2174 1.362 . S
H2176 C2182 0.930 . S
H2177 C2185 0.930 . S
H2178 C2186 0.930 . S
H2179 C2187 0.930 . S
H2180 C2190 0.930 . S
H2181 C2191 0.930 . S
C2182 H2176 0.930 . S
C2182 C2183 1.355 . S
C2182 C2184 1.415 . S
C2183 C2182 1.355 . S
C2183 C2185 1.419 . S
C2184 C2182 1.415 . S
C2184 C2189 1.425 . S
C2184 C2191 1.409 . S
C2185 H2177 0.930 . S
C2185 C2183 1.419 . S
C2185 C2186 1.362 . S
C2186 H2178 0.930 . S
C2186 C2185 1.362 . S
C2186 C2189 1.409 . S
C2187 H2179 0.930 . S
C2187 C2188 1.355 . S
C2187 C2189 1.415 . S
C2188 C2187 1.355 . S
C2188 C2190 1.419 . S
C2189 C2184 1.425 . S
C2189 C2186 1.409 . S
C2189 C2187 1.415 . S
C2190 H2180 0.930 . S
C2190 C2188 1.419 . S
C2190 C2191 1.362 . S
C2191 H2181 0.930 . S
C2191 C2184 1.409 . S
C2191 C2190 1.362 . S
H2192 C2198 0.930 . S
H2193 C2201 0.930 . S
H2194 C2202 0.930 . S
H2195 C2203 0.930 . S
H2196 C2206 0.930 . S
H2197 C2207 0.930 . S
C2198 H2192 0.930 . S
C2198 C2199 1.355 . S
C2198 C2200 1.415 . S
C2199 C2198 1.355 . S
C2199 C2201 1.419 . S
C2200 C2198 1.415 . S
C2200 C2205 1.425 . S
C2200 C2207 1.409 . S
C2201 H2193 0.930 . S
C2201 C2199 1.419 . S
C2201 C2202 1.362 . S
C2202 H2194 0.930 . S
C2202 C2201 1.362 . S
C2202 C2205 1.409 . S
C2203 H2195 0.930 . S
C2203 C2204 1.355 . S
C2203 C2205 1.415 . S
C2204 C2203 1.355 . S
C2204 C2206 1.419 . S
C2205 C2200 1.425 . S
C2205 C2202 1.409 . S
C2205 C2203 1.415 . S
C2206 H2196 0.930 . S
C2206 C2204 1.419 . S
C2206 C2207 1.362 . S
C2207 H2197 0.930 . S
C2207 C2200 1.409 . S
C2207 C2206 1.362 . S
H2208 C2214 0.930 . S
H2209 C2217 0.930 . S
H2210 C2218 0.930 . S
H2211 C2219 0.930 . S
H2212 C2222 0.930 . S
H2213 C2223 0.930 . S
C2214 H2208 0.930 . S
C2214 C2215 1.355 . S
C2214 C2216 1.415 . S
C2215 C2214 1.355 . S
C2215 C2217 1.419 . S
C2216 C2214 1.415 . S
C2216 C2221 1.425 . S
C2216 C2223 1.409 . S
C2217 H2209 0.930 . S
C2217 C2215 1.419 . S
C2217 C2218 1.362 . S
C2218 H2210 0.930 . S
C2218 C2217 1.362 . S
C2218 C2221 1.409 . S
C2219 H2211 0.930 . S
C2219 C2220 1.355 . S
C2219 C2221 1.415 . S
C2220 C2219 1.355 . S
C2220 C2222 1.419 . S
C2221 C2216 1.425 . S
C2221 C2218 1.409 . S
C2221 C2219 1.415 . S
C2222 H2212 0.930 . S
C2222 C2220 1.419 . S
C2222 C2223 1.362 . S
C2223 H2213 0.930 . S
C2223 C2216 1.409 . S
C2223 C2222 1.362 . S
H2224 C2230 0.930 . S
H2225 C2233 0.930 . S
H2226 C2234 0.930 . S
H2227 C2235 0.930 . S
H2228 C2238 0.930 . S
H2229 C2239 0.930 . S
C2230 H2224 0.930 . S
C2230 C2231 1.355 . S
C2230 C2232 1.415 . S
C2231 C2230 1.355 . S
C2231 C2233 1.419 . S
C2232 C2230 1.415 . S
C2232 C2237 1.425 . S
C2232 C2239 1.409 . S
C2233 H2225 0.930 . S
C2233 C2231 1.419 . S
C2233 C2234 1.362 . S
C2234 H2226 0.930 . S
C2234 C2233 1.362 . S
C2234 C2237 1.409 . S
C2235 H2227 0.930 . S
C2235 C2236 1.355 . S
C2235 C2237 1.415 . S
C2236 C2235 1.355 . S
C2236 C2238 1.419 . S
C2237 C2232 1.425 . S
C2237 C2234 1.409 . S
C2237 C2235 1.415 . S
C2238 H2228 0.930 . S
C2238 C2236 1.419 . S
C2238 C2239 1.362 . S
C2239 H2229 0.930 . S
C2239 C2232 1.409 . S
C2239 C2238 1.362 . S
H2240 C2246 0.930 . S
H2241 C2249 0.930 . S
H2242 C2250 0.930 . S
H2243 C2251 0.930 . S
H2244 C2254 0.930 . S
H2245 C2255 0.930 . S
C2246 H2240 0.930 . S
C2246 C2247 1.355 . S
C2246 C2248 1.415 . S
C2247 C2246 1.355 . S
C2247 C2249 1.419 . S
C2248 C2246 1.415 . S
C2248 C2253 1.425 . S
C2248 C2255 1.409 . S
C2249 H2241 0.930 . S
C2249 C2247 1.419 . S
C2249 C2250 1.362 . S
C2250 H2242 0.930 . S
C2250 C2249 1.362 . S
C2250 C2253 1.409 . S
C2251 H2243 0.930 . S
C2251 C2252 1.355 . S
C2251 C2253 1.415 . S
C2252 C2251 1.355 . S
C2252 C2254 1.419 . S
C2253 C2248 1.425 . S
C2253 C2250 1.409 . S
C2253 C2251 1.415 . S
C2254 H2244 0.930 . S
C2254 C2252 1.419 . S
C2254 C2255 1.362 . S
C2255 H2245 0.930 . S
C2255 C2248 1.409 . S
C2255 C2254 1.362 . S
H2256 C2262 0.930 . S
H2257 C2265 0.930 . S
H2258 C2266 0.930 . S
H2259 C2267 0.930 . S
H2260 C2270 0.930 . S
H2261 C2271 0.930 . S
C2262 H2256 0.930 . S
C2262 C2263 1.355 . S
C2262 C2264 1.415 . S
C2263 C2262 1.355 . S
C2263 C2265 1.419 . S
C2264 C2262 1.415 . S
C2264 C2269 1.425 . S
C2264 C2271 1.409 . S
C2265 H2257 0.930 . S
C2265 C2263 1.419 . S
C2265 C2266 1.362 . S
C2266 H2258 0.930 . S
C2266 C2265 1.362 . S
C2266 C2269 1.409 . S
C2267 H2259 0.930 . S
C2267 C2268 1.355 . S
C2267 C2269 1.415 . S
C2268 C2267 1.355 . S
C2268 C2270 1.419 . S
C2269 C2264 1.425 . S
C2269 C2266 1.409 . S
C2269 C2267 1.415 . S
C2270 H2260 0.930 . S
C2270 C2268 1.419 . S
C2270 C2271 1.362 . S
C2271 H2261 0.930 . S
C2271 C2264 1.409 . S
C2271 C2270 1.362 . S
H2272 C2278 0.930 . S
H2273 C2281 0.930 . S
H2274 C2282 0.930 . S
H2275 C2283 0.930 . S
H2276 C2286 0.930 . S
H2277 C2287 0.930 . S
C2278 H2272 0.930 . S
C2278 C2279 1.355 . S
C2278 C2280 1.415 . S
C2279 C2278 1.355 . S
C2279 C2281 1.419 . S
C2280 C2278 1.415 . S
C2280 C2285 1.425 . S
C2280 C2287 1.409 . S
C2281 H2273 0.930 . S
C2281 C2279 1.419 . S
C2281 C2282 1.362 . S
C2282 H2274 0.930 . S
C2282 C2281 1.362 . S
C2282 C2285 1.409 . S
C2283 H2275 0.930 . S
C2283 C2284 1.355 . S
C2283 C2285 1.415 . S
C2284 C2283 1.355 . S
C2284 C2286 1.419 . S
C2285 C2280 1.425 . S
C2285 C2282 1.409 . S
C2285 C2283 1.415 . S
C2286 H2276 0.930 . S
C2286 C2284 1.419 . S
C2286 C2287 1.362 . S
C2287 H2277 0.930 . S
C2287 C2280 1.409 . S
C2287 C2286 1.362 . S
H2288 C2294 0.930 . S
H2289 C2297 0.930 . S
H2290 C2298 0.930 . S
H2291 C2299 0.930 . S
H2292 C2302 0.930 . S
H2293 C2303 0.930 . S
C2294 H2288 0.930 . S
C2294 C2295 1.355 . S
C2294 C2296 1.415 . S
C2295 C2294 1.355 . S
C2295 C2297 1.419 . S
C2296 C2294 1.415 . S
C2296 C2301 1.425 . S
C2296 C2303 1.409 . S
C2297 H2289 0.930 . S
C2297 C2295 1.419 . S
C2297 C2298 1.362 . S
C2298 H2290 0.930 . S
C2298 C2297 1.362 . S
C2298 C2301 1.409 . S
C2299 H2291 0.930 . S
C2299 C2300 1.355 . S
C2299 C2301 1.415 . S
C2300 C2299 1.355 . S
C2300 C2302 1.419 . S
C2301 C2296 1.425 . S
C2301 C2298 1.409 . S
C2301 C2299 1.415 . S
C2302 H2292 0.930 . S
C2302 C2300 1.419 . S
C2302 C2303 1.362 . S
C2303 H2293 0.930 . S
C2303 C2296 1.409 . S
C2303 C2302 1.362 . S
H2304 C2310 0.930 . S
H2305 C2313 0.930 . S
H2306 C2314 0.930 . S
H2307 C2315 0.930 . S
H2308 C2318 0.929 1_565 S
H2309 C2319 0.930 . S
C2310 H2304 0.930 . S
C2310 C2311 1.355 . S
C2310 C2312 1.415 . S
C2311 C2310 1.355 . S
C2311 C2313 1.419 . S
C2312 C2310 1.415 . S
C2312 C2317 1.425 . S
C2312 C2319 1.409 . S
C2313 H2305 0.930 . S
C2313 C2311 1.419 . S
C2313 C2314 1.362 . S
C2314 H2306 0.930 . S
C2314 C2313 1.362 . S
C2314 C2317 1.409 . S
C2315 H2307 0.930 . S
C2315 C2316 1.355 . S
C2315 C2317 1.415 . S
C2316 C2315 1.355 . S
C2316 C2318 1.419 . S
C2317 C2312 1.425 . S
C2317 C2314 1.409 . S
C2317 C2315 1.415 . S
C2318 H2308 0.929 1_545 S
C2318 C2316 1.419 . S
C2318 C2319 1.362 . S
C2319 H2309 0.930 . S
C2319 C2312 1.409 . S
C2319 C2318 1.362 . S
H2320 C2326 0.930 . S
H2321 C2329 0.930 . S
H2322 C2330 0.930 . S
H2323 C2331 0.930 . S
H2324 C2334 0.930 . S
H2325 C2335 0.930 . S
C2326 H2320 0.930 . S
C2326 C2327 1.355 . S
C2326 C2328 1.415 . S
C2327 C2326 1.355 . S
C2327 C2329 1.419 . S
C2328 C2326 1.415 . S
C2328 C2333 1.425 . S
C2328 C2335 1.409 . S
C2329 H2321 0.930 . S
C2329 C2327 1.419 . S
C2329 C2330 1.362 . S
C2330 H2322 0.930 . S
C2330 C2329 1.362 . S
C2330 C2333 1.409 . S
C2331 H2323 0.930 . S
C2331 C2332 1.355 . S
C2331 C2333 1.415 . S
C2332 C2331 1.355 . S
C2332 C2334 1.419 . S
C2333 C2328 1.425 . S
C2333 C2330 1.409 . S
C2333 C2331 1.415 . S
C2334 H2324 0.930 . S
C2334 C2332 1.419 . S
C2334 C2335 1.362 . S
C2335 H2325 0.930 . S
C2335 C2328 1.409 . S
C2335 C2334 1.362 . S
H2336 C2342 0.930 . S
H2337 C2345 0.930 . S
H2338 C2346 0.930 . S
H2339 C2347 0.930 . S
H2340 C2350 0.930 . S
H2341 C2351 0.930 . S
C2342 H2336 0.930 . S
C2342 C2343 1.355 . S
C2342 C2344 1.415 . S
C2343 C2342 1.355 . S
C2343 C2345 1.419 . S
C2344 C2342 1.415 . S
C2344 C2349 1.425 . S
C2344 C2351 1.409 1_565 S
C2345 H2337 0.930 . S
C2345 C2343 1.419 . S
C2345 C2346 1.362 . S
C2346 H2338 0.930 . S
C2346 C2345 1.362 . S
C2346 C2349 1.409 . S
C2347 H2339 0.930 . S
C2347 C2348 1.355 . S
C2347 C2349 1.415 . S
C2348 C2347 1.355 . S
C2348 C2350 1.419 1_565 S
C2349 C2344 1.425 . S
C2349 C2346 1.409 . S
C2349 C2347 1.415 . S
C2350 H2340 0.930 . S
C2350 C2348 1.419 1_545 S
C2350 C2351 1.362 . S
C2351 H2341 0.930 . S
C2351 C2344 1.409 1_545 S
C2351 C2350 1.362 . S
H2352 C2358 0.930 . S
H2353 C2361 0.930 . S
H2354 C2362 0.930 . S
H2355 C2363 0.930 . S
H2356 C2366 0.930 . S
H2357 C2367 0.930 . S
C2358 H2352 0.930 . S
C2358 C2359 1.355 . S
C2358 C2360 1.415 . S
C2359 C2358 1.355 . S
C2359 C2361 1.419 . S
C2360 C2358 1.415 . S
C2360 C2365 1.425 . S
C2360 C2367 1.409 . S
C2361 H2353 0.930 . S
C2361 C2359 1.419 . S
C2361 C2362 1.362 . S
C2362 H2354 0.930 . S
C2362 C2361 1.362 . S
C2362 C2365 1.409 . S
C2363 H2355 0.930 . S
C2363 C2364 1.355 . S
C2363 C2365 1.415 . S
C2364 C2363 1.355 . S
C2364 C2366 1.419 . S
C2365 C2360 1.425 . S
C2365 C2362 1.409 . S
C2365 C2363 1.415 . S
C2366 H2356 0.930 . S
C2366 C2364 1.419 . S
C2366 C2367 1.362 . S
C2367 H2357 0.930 . S
C2367 C2360 1.409 . S
C2367 C2366 1.362 . S
H2368 C2374 0.930 . S
H2369 C2377 0.930 . S
H2370 C2378 0.930 . S
H2371 C2379 0.930 . S
H2372 C2382 0.930 . S
H2373 C2383 0.930 . S
C2374 H2368 0.930 . S
C2374 C2375 1.355 1_556 S
C2374 C2376 1.415 1_556 S
C2375 C2374 1.355 1_554 S
C2375 C2377 1.419 . S
C2376 C2374 1.415 1_554 S
C2376 C2381 1.425 . S
C2376 C2383 1.409 1_554 S
C2377 H2369 0.930 . S
C2377 C2375 1.419 . S
C2377 C2378 1.362 . S
C2378 H2370 0.930 . S
C2378 C2377 1.362 . S
C2378 C2381 1.409 . S
C2379 H2371 0.930 . S
C2379 C2380 1.355 . S
C2379 C2381 1.415 . S
C2380 C2379 1.355 . S
C2380 C2382 1.419 . S
C2381 C2376 1.425 . S
C2381 C2378 1.409 . S
C2381 C2379 1.415 . S
C2382 H2372 0.930 . S
C2382 C2380 1.419 . S
C2382 C2383 1.362 1_554 S
C2383 H2373 0.930 . S
C2383 C2376 1.409 1_556 S
C2383 C2382 1.362 1_556 S
H2384 C2390 0.930 . S
H2385 C2393 0.930 . S
H2386 C2394 0.930 . S
H2387 C2395 0.930 . S
H2388 C2398 0.930 . S
H2389 C2399 0.930 . S
C2390 H2384 0.930 . S
C2390 C2391 1.355 . S
C2390 C2392 1.415 . S
C2391 C2390 1.355 . S
C2391 C2393 1.419 . S
C2392 C2390 1.415 . S
C2392 C2397 1.425 . S
C2392 C2399 1.409 . S
C2393 H2385 0.930 . S
C2393 C2391 1.419 . S
C2393 C2394 1.362 . S
C2394 H2386 0.930 . S
C2394 C2393 1.362 . S
C2394 C2397 1.409 . S
C2395 H2387 0.930 . S
C2395 C2396 1.355 . S
C2395 C2397 1.415 . S
C2396 C2395 1.355 . S
C2396 C2398 1.419 . S
C2397 C2392 1.425 . S
C2397 C2394 1.409 . S
C2397 C2395 1.415 . S
C2398 H2388 0.930 . S
C2398 C2396 1.419 . S
C2398 C2399 1.362 . S
C2399 H2389 0.930 . S
C2399 C2392 1.409 . S
C2399 C2398 1.362 . S
H2400 C2406 0.930 . S
H2401 C2409 0.930 . S
H2402 C2410 0.930 . S
H2403 C2411 0.930 . S
H2404 C2414 0.930 . S
H2405 C2415 0.930 . S
C2406 H2400 0.930 . S
C2406 C2407 1.355 . S
C2406 C2408 1.415 . S
C2407 C2406 1.355 . S
C2407 C2409 1.419 . S
C2408 C2406 1.415 . S
C2408 C2413 1.425 . S
C2408 C2415 1.409 . S
C2409 H2401 0.930 . S
C2409 C2407 1.419 . S
C2409 C2410 1.362 . S
C2410 H2402 0.930 . S
C2410 C2409 1.362 . S
C2410 C2413 1.409 . S
C2411 H2403 0.930 . S
C2411 C2412 1.355 . S
C2411 C2413 1.415 . S
C2412 C2411 1.355 . S
C2412 C2414 1.419 . S
C2413 C2408 1.425 . S
C2413 C2410 1.409 . S
C2413 C2411 1.415 . S
C2414 H2404 0.930 . S
C2414 C2412 1.419 . S
C2414 C2415 1.362 . S
C2415 H2405 0.930 . S
C2415 C2408 1.409 . S
C2415 C2414 1.362 . S
C892 C353 1.101 . S
C887 C5 1.109 . S
C903 C23 1.938 . S
C908 C399 1.934 . S
C919 C39 0.924 . S
C924 C408 0.896 . S
C940 C446 1.719 . S
C935 C42 1.731 . S
C951 C19 1.726 . S
C956 C480 1.701 . S
C972 C510 0.927 . S
C967 C28 0.912 . S
C988 C569 1.637 1_556 S
C983 C53 1.648 . S
C999 C9 1.075 . S
C1004 C582 1.094 . S
C1015 C65 1.512 . S
C1020 C365 1.477 . S
C1031 C75 1.279 . S
C1036 C383 1.275 . S
C1052 C404 1.776 . S
C1047 C93 1.810 . S
C1068 C442 0.916 . S
C1063 C109 0.946 . S
C1079 C56 1.343 . S
C1084 C476 1.326 . S
C1100 C506 1.631 . S
C1095 C81 1.644 . S
C1116 C553 1.316 . S
C1111 C84 1.326 . S
C1132 C578 0.733 . S
C1127 C103 0.748 . S
C1148 C349 0.766 1_556 S
C1143 C107 0.808 . S
C1164 C608 1.645 . S
C1159 C121 1.656 . S
C1175 C131 1.540 . S
C1180 C650 1.533 . S
C1196 C693 0.543 . S
C1191 C140 0.525 . S
C1207 C61 1.500 . S
C1212 C574 1.487 . S
C1228 C412 1.519 . S
C1223 C70 1.520 . S
C1239 C137 1.394 . S
C1244 C710 1.385 . S
C1260 C761 1.581 . S
C1255 C165 1.566 . S
C1271 C173 1.147 . S
C1276 C344 1.129 1_556 S
C1292 C744 1.865 . S
C1287 C182 1.877 . S
C1303 C207 0.894 . S
C1308 C417 0.918 . S
C1319 C219 1.708 . S
C1324 C727 1.641 . S
C1340 C489 1.662 . S
C1335 C187 1.690 . S
C1356 C655 0.863 . S
C1351 C205 0.909 . S
C1372 C540 1.645 . S
C1367 C221 1.641 . S
C1388 C795 1.094 . S
C1383 C168 1.100 . S
C1404 C336 1.490 . S
C1399 C224 1.500 . S
C1415 C243 1.236 . S
C1420 C748 1.228 . S
C1436 C433 1.758 1_565 S
C1431 C252 1.764 . S
C1447 C277 0.855 . S
C1452 C723 0.822 . S
C1463 C233 1.361 . S
C1468 C485 1.349 . S
C1479 C249 1.631 . S
C1484 C671 1.624 . S
C1500 C544 1.275 . S
C1495 C261 1.319 . S
C1511 C271 0.775 . S
C1516 C791 0.814 . S
C1527 C266 0.759 . S
C1532 C340 0.789 . S
C1543 C280 1.595 . S
C1548 C637 1.609 . S
C1559 C299 1.516 . S
C1564 C523 1.513 . S
C1575 C317 0.514 . S
C1580 C684 0.554 . S
C1596 C807 1.431 . S
C1591 C229 1.452 . S
C1612 C421 1.468 . S
C1607 C247 1.504 . S
C1628 C467 1.370 . S
C1623 C305 1.363 . S
C1644 C378 1.552 . S
C1639 C333 1.574 . S
C1655 C33 1.172 . S
C1660 C829 1.181 . S
C1676 C773 1.916 . S
C1671 C51 1.941 . S
C1692 C850 0.957 . S
C1687 C11 0.946 . S
C1703 C14 1.708 . S
C1708 C718 1.677 . S
C1719 C47 1.719 . S
C1724 C616 1.688 1_556 S
C1740 C646 0.875 . S
C1735 C0 0.897 . S
C1756 C705 1.673 . S
C1751 C25 1.678 . S
C1772 C786 1.057 . S
C1767 C37 1.037 . S
C1788 C841 1.498 . S
C1783 C163 1.511 . S
C1799 C117 1.265 1_556 S
C1804 C757 1.258 . S
C1815 C135 1.837 . S
C1820 C846 1.813 . S
C1836 C714 0.986 . S
C1831 C151 0.998 . S
C1852 C612 1.333 . S
C1847 C154 1.336 . S
C1863 C123 1.632 . S
C1868 C642 1.627 . S
C1884 C689 1.295 . S
C1879 C126 1.301 . S
C1895 C145 0.784 . S
C1900 C782 0.824 . S
C1916 C825 0.714 . S
C1911 C149 0.763 . S
C1932 C472 1.643 . S
C1927 C79 1.651 . S
C1948 C514 1.550 . S
C1943 C89 1.567 . S
C1959 C98 0.613 . S
C1964 C557 0.625 . S
C1980 C778 1.431 . S
C1975 C159 1.465 . S
C1991 C112 1.492 . S
C1996 C854 1.505 . S
C2012 C438 1.377 . S
C2007 C95 1.379 . S
C2028 C387 1.568 . S
C2023 C67 1.586 . S
C2039 C201 1.143 . S
C2044 C820 1.125 . S
C2060 C370 1.867 . S
C2055 C210 1.893 . S
C2076 C859 0.897 . S
C2071 C179 0.897 . S
C2087 C191 1.710 . S
C2092 C455 1.691 . S
C2103 C215 1.673 . S
C2108 C625 1.637 . S
C2119 C177 0.911 . S
C2124 C519 0.860 . S
C2135 C193 1.641 . S
C2140 C676 1.645 . S
C2151 C196 1.022 . S
C2156 C591 0.993 . S
C2172 C812 1.434 . S
C2167 C322 1.481 . S
C2183 C285 1.257 . S
C2188 C374 1.248 . S
C2204 C875 1.724 . S
C2199 C294 1.745 . S
C2215 C319 0.864 . S
C2220 C451 0.826 . S
C2231 C331 1.360 . S
C2236 C621 1.351 . S
C2252 C535 1.623 . S
C2247 C291 1.636 . S
C2263 C303 1.337 . S
C2268 C680 1.286 . S
C2284 C587 0.816 . S
C2279 C313 0.779 . S
C2300 C816 0.714 . S
C2295 C308 0.734 . S
C2316 C501 1.613 . S
C2311 C238 1.603 . S
C2327 C257 1.511 . S
C2332 C659 1.509 . S
C2348 C548 0.558 . S
C2343 C275 0.514 . S
C2364 C603 1.441 . S
C2359 C327 1.463 . S
C2375 C289 1.505 1_554 S
C2380 C863 1.467 . S
C2396 C739 1.355 . S
C2391 C263 1.369 . S
C2412 C752 1.567 . S
C2407 C235 1.567 . S
