# Generated by pormake.
# Topology gar, (4,6)-cn, num edge types: 1
# Building blocks:
#     Node 0, Type 0, BuildingBlock: KUFVIS_clean_sbu_0, # of connection points: 4
#     Node 1, Type 0, BuildingBlock: KUFVIS_clean_sbu_0, # of connection points: 4
#     Node 2, Type 0, BuildingBlock: KUFVIS_clean_sbu_0, # of connection points: 4
#     Node 3, Type 0, BuildingBlock: KUFVIS_clean_sbu_0, # of connection points: 4
#     Node 4, Type 0, BuildingBlock: KUFVIS_clean_sbu_0, # of connection points: 4
#     Node 5, Type 0, BuildingBlock: KUFVIS_clean_sbu_0, # of connection points: 4
#     Node 6, Type 0, BuildingBlock: KUFVIS_clean_sbu_0, # of connection points: 4
#     Node 7, Type 0, BuildingBlock: KUFVIS_clean_sbu_0, # of connection points: 4
#     Node 8, Type 0, BuildingBlock: KUFVIS_clean_sbu_0, # of connection points: 4
#     Node 9, Type 0, BuildingBlock: KUFVIS_clean_sbu_0, # of connection points: 4
#     Node 10, Type 0, BuildingBlock: KUFVIS_clean_sbu_0, # of connection points: 4
#     Node 11, Type 0, BuildingBlock: KUFVIS_clean_sbu_0, # of connection points: 4
#     Node 12, Type 0, BuildingBlock: KUFVIS_clean_sbu_0, # of connection points: 4
#     Node 13, Type 0, BuildingBlock: KUFVIS_clean_sbu_0, # of connection points: 4
#     Node 14, Type 0, BuildingBlock: KUFVIS_clean_sbu_0, # of connection points: 4
#     Node 15, Type 0, BuildingBlock: KUFVIS_clean_sbu_0, # of connection points: 4
#     Node 16, Type 0, BuildingBlock: KUFVIS_clean_sbu_0, # of connection points: 4
#     Node 17, Type 0, BuildingBlock: KUFVIS_clean_sbu_0, # of connection points: 4
#     Node 18, Type 0, BuildingBlock: KUFVIS_clean_sbu_0, # of connection points: 4
#     Node 19, Type 0, BuildingBlock: KUFVIS_clean_sbu_0, # of connection points: 4
#     Node 20, Type 0, BuildingBlock: KUFVIS_clean_sbu_0, # of connection points: 4
#     Node 21, Type 0, BuildingBlock: KUFVIS_clean_sbu_0, # of connection points: 4
#     Node 22, Type 0, BuildingBlock: KUFVIS_clean_sbu_0, # of connection points: 4
#     Node 23, Type 0, BuildingBlock: KUFVIS_clean_sbu_0, # of connection points: 4
#     Node 24, Type 1, BuildingBlock: KUMBUR_clean_sbu_1, # of connection points: 6
#     Node 25, Type 1, BuildingBlock: KUMBUR_clean_sbu_1, # of connection points: 6
#     Node 26, Type 1, BuildingBlock: KUMBUR_clean_sbu_1, # of connection points: 6
#     Node 27, Type 1, BuildingBlock: KUMBUR_clean_sbu_1, # of connection points: 6
#     Node 28, Type 1, BuildingBlock: KUMBUR_clean_sbu_1, # of connection points: 6
#     Node 29, Type 1, BuildingBlock: KUMBUR_clean_sbu_1, # of connection points: 6
#     Node 30, Type 1, BuildingBlock: KUMBUR_clean_sbu_1, # of connection points: 6
#     Node 31, Type 1, BuildingBlock: KUMBUR_clean_sbu_1, # of connection points: 6
#     Node 32, Type 1, BuildingBlock: KUMBUR_clean_sbu_1, # of connection points: 6
#     Node 33, Type 1, BuildingBlock: KUMBUR_clean_sbu_1, # of connection points: 6
#     Node 34, Type 1, BuildingBlock: KUMBUR_clean_sbu_1, # of connection points: 6
#     Node 35, Type 1, BuildingBlock: KUMBUR_clean_sbu_1, # of connection points: 6
#     Node 36, Type 1, BuildingBlock: KUMBUR_clean_sbu_1, # of connection points: 6
#     Node 37, Type 1, BuildingBlock: KUMBUR_clean_sbu_1, # of connection points: 6
#     Node 38, Type 1, BuildingBlock: KUMBUR_clean_sbu_1, # of connection points: 6
#     Node 39, Type 1, BuildingBlock: KUMBUR_clean_sbu_1, # of connection points: 6
#     Edge 40, Type (0, 1), BuildingBlock: CIFDUS_clean_linker_0, # of connection points: 2
#     Edge 41, Type (0, 1), BuildingBlock: CIFDUS_clean_linker_0, # of connection points: 2
#     Edge 42, Type (0, 1), BuildingBlock: CIFDUS_clean_linker_0, # of connection points: 2
#     Edge 43, Type (0, 1), BuildingBlock: CIFDUS_clean_linker_0, # of connection points: 2
#     Edge 44, Type (0, 1), BuildingBlock: CIFDUS_clean_linker_0, # of connection points: 2
#     Edge 45, Type (0, 1), BuildingBlock: CIFDUS_clean_linker_0, # of connection points: 2
#     Edge 46, Type (0, 1), BuildingBlock: CIFDUS_clean_linker_0, # of connection points: 2
#     Edge 47, Type (0, 1), BuildingBlock: CIFDUS_clean_linker_0, # of connection points: 2
#     Edge 48, Type (0, 1), BuildingBlock: CIFDUS_clean_linker_0, # of connection points: 2
#     Edge 49, Type (0, 1), BuildingBlock: CIFDUS_clean_linker_0, # of connection points: 2
#     Edge 50, Type (0, 1), BuildingBlock: CIFDUS_clean_linker_0, # of connection points: 2
#     Edge 51, Type (0, 1), BuildingBlock: CIFDUS_clean_linker_0, # of connection points: 2
#     Edge 52, Type (0, 1), BuildingBlock: CIFDUS_clean_linker_0, # of connection points: 2
#     Edge 53, Type (0, 1), BuildingBlock: CIFDUS_clean_linker_0, # of connection points: 2
#     Edge 54, Type (0, 1), BuildingBlock: CIFDUS_clean_linker_0, # of connection points: 2
#     Edge 55, Type (0, 1), BuildingBlock: CIFDUS_clean_linker_0, # of connection points: 2
#     Edge 56, Type (0, 1), BuildingBlock: CIFDUS_clean_linker_0, # of connection points: 2
#     Edge 57, Type (0, 1), BuildingBlock: CIFDUS_clean_linker_0, # of connection points: 2
#     Edge 58, Type (0, 1), BuildingBlock: CIFDUS_clean_linker_0, # of connection points: 2
#     Edge 59, Type (0, 1), BuildingBlock: CIFDUS_clean_linker_0, # of connection points: 2
#     Edge 60, Type (0, 1), BuildingBlock: CIFDUS_clean_linker_0, # of connection points: 2
#     Edge 61, Type (0, 1), BuildingBlock: CIFDUS_clean_linker_0, # of connection points: 2
#     Edge 62, Type (0, 1), BuildingBlock: CIFDUS_clean_linker_0, # of connection points: 2
#     Edge 63, Type (0, 1), BuildingBlock: CIFDUS_clean_linker_0, # of connection points: 2
#     Edge 64, Type (0, 1), BuildingBlock: CIFDUS_clean_linker_0, # of connection points: 2
#     Edge 65, Type (0, 1), BuildingBlock: CIFDUS_clean_linker_0, # of connection points: 2
#     Edge 66, Type (0, 1), BuildingBlock: CIFDUS_clean_linker_0, # of connection points: 2
#     Edge 67, Type (0, 1), BuildingBlock: CIFDUS_clean_linker_0, # of connection points: 2
#     Edge 68, Type (0, 1), BuildingBlock: CIFDUS_clean_linker_0, # of connection points: 2
#     Edge 69, Type (0, 1), BuildingBlock: CIFDUS_clean_linker_0, # of connection points: 2
#     Edge 70, Type (0, 1), BuildingBlock: CIFDUS_clean_linker_0, # of connection points: 2
#     Edge 71, Type (0, 1), BuildingBlock: CIFDUS_clean_linker_0, # of connection points: 2
#     Edge 72, Type (0, 1), BuildingBlock: CIFDUS_clean_linker_0, # of connection points: 2
#     Edge 73, Type (0, 1), BuildingBlock: CIFDUS_clean_linker_0, # of connection points: 2
#     Edge 74, Type (0, 1), BuildingBlock: CIFDUS_clean_linker_0, # of connection points: 2
#     Edge 75, Type (0, 1), BuildingBlock: CIFDUS_clean_linker_0, # of connection points: 2
#     Edge 76, Type (0, 1), BuildingBlock: CIFDUS_clean_linker_0, # of connection points: 2
#     Edge 77, Type (0, 1), BuildingBlock: CIFDUS_clean_linker_0, # of connection points: 2
#     Edge 78, Type (0, 1), BuildingBlock: CIFDUS_clean_linker_0, # of connection points: 2
#     Edge 79, Type (0, 1), BuildingBlock: CIFDUS_clean_linker_0, # of connection points: 2
#     Edge 80, Type (0, 1), BuildingBlock: CIFDUS_clean_linker_0, # of connection points: 2
#     Edge 81, Type (0, 1), BuildingBlock: CIFDUS_clean_linker_0, # of connection points: 2
#     Edge 82, Type (0, 1), BuildingBlock: CIFDUS_clean_linker_0, # of connection points: 2
#     Edge 83, Type (0, 1), BuildingBlock: CIFDUS_clean_linker_0, # of connection points: 2
#     Edge 84, Type (0, 1), BuildingBlock: CIFDUS_clean_linker_0, # of connection points: 2
#     Edge 85, Type (0, 1), BuildingBlock: CIFDUS_clean_linker_0, # of connection points: 2
#     Edge 86, Type (0, 1), BuildingBlock: CIFDUS_clean_linker_0, # of connection points: 2
#     Edge 87, Type (0, 1), BuildingBlock: CIFDUS_clean_linker_0, # of connection points: 2
#     Edge 88, Type (0, 1), BuildingBlock: CIFDUS_clean_linker_0, # of connection points: 2
#     Edge 89, Type (0, 1), BuildingBlock: CIFDUS_clean_linker_0, # of connection points: 2
#     Edge 90, Type (0, 1), BuildingBlock: CIFDUS_clean_linker_0, # of connection points: 2
#     Edge 91, Type (0, 1), BuildingBlock: CIFDUS_clean_linker_0, # of connection points: 2
#     Edge 92, Type (0, 1), BuildingBlock: CIFDUS_clean_linker_0, # of connection points: 2
#     Edge 93, Type (0, 1), BuildingBlock: CIFDUS_clean_linker_0, # of connection points: 2
#     Edge 94, Type (0, 1), BuildingBlock: CIFDUS_clean_linker_0, # of connection points: 2
#     Edge 95, Type (0, 1), BuildingBlock: CIFDUS_clean_linker_0, # of connection points: 2
#     Edge 96, Type (0, 1), BuildingBlock: CIFDUS_clean_linker_0, # of connection points: 2
#     Edge 97, Type (0, 1), BuildingBlock: CIFDUS_clean_linker_0, # of connection points: 2
#     Edge 98, Type (0, 1), BuildingBlock: CIFDUS_clean_linker_0, # of connection points: 2
#     Edge 99, Type (0, 1), BuildingBlock: CIFDUS_clean_linker_0, # of connection points: 2
#     Edge 100, Type (0, 1), BuildingBlock: CIFDUS_clean_linker_0, # of connection points: 2
#     Edge 101, Type (0, 1), BuildingBlock: CIFDUS_clean_linker_0, # of connection points: 2
#     Edge 102, Type (0, 1), BuildingBlock: CIFDUS_clean_linker_0, # of connection points: 2
#     Edge 103, Type (0, 1), BuildingBlock: CIFDUS_clean_linker_0, # of connection points: 2
#     Edge 104, Type (0, 1), BuildingBlock: CIFDUS_clean_linker_0, # of connection points: 2
#     Edge 105, Type (0, 1), BuildingBlock: CIFDUS_clean_linker_0, # of connection points: 2
#     Edge 106, Type (0, 1), BuildingBlock: CIFDUS_clean_linker_0, # of connection points: 2
#     Edge 107, Type (0, 1), BuildingBlock: CIFDUS_clean_linker_0, # of connection points: 2
#     Edge 108, Type (0, 1), BuildingBlock: CIFDUS_clean_linker_0, # of connection points: 2
#     Edge 109, Type (0, 1), BuildingBlock: CIFDUS_clean_linker_0, # of connection points: 2
#     Edge 110, Type (0, 1), BuildingBlock: CIFDUS_clean_linker_0, # of connection points: 2
#     Edge 111, Type (0, 1), BuildingBlock: CIFDUS_clean_linker_0, # of connection points: 2
#     Edge 112, Type (0, 1), BuildingBlock: CIFDUS_clean_linker_0, # of connection points: 2
#     Edge 113, Type (0, 1), BuildingBlock: CIFDUS_clean_linker_0, # of connection points: 2
#     Edge 114, Type (0, 1), BuildingBlock: CIFDUS_clean_linker_0, # of connection points: 2
#     Edge 115, Type (0, 1), BuildingBlock: CIFDUS_clean_linker_0, # of connection points: 2
#     Edge 116, Type (0, 1), BuildingBlock: CIFDUS_clean_linker_0, # of connection points: 2
#     Edge 117, Type (0, 1), BuildingBlock: CIFDUS_clean_linker_0, # of connection points: 2
#     Edge 118, Type (0, 1), BuildingBlock: CIFDUS_clean_linker_0, # of connection points: 2
#     Edge 119, Type (0, 1), BuildingBlock: CIFDUS_clean_linker_0, # of connection points: 2
#     Edge 120, Type (0, 1), BuildingBlock: CIFDUS_clean_linker_0, # of connection points: 2
#     Edge 121, Type (0, 1), BuildingBlock: CIFDUS_clean_linker_0, # of connection points: 2
#     Edge 122, Type (0, 1), BuildingBlock: CIFDUS_clean_linker_0, # of connection points: 2
#     Edge 123, Type (0, 1), BuildingBlock: CIFDUS_clean_linker_0, # of connection points: 2
#     Edge 124, Type (0, 1), BuildingBlock: CIFDUS_clean_linker_0, # of connection points: 2
#     Edge 125, Type (0, 1), BuildingBlock: CIFDUS_clean_linker_0, # of connection points: 2
#     Edge 126, Type (0, 1), BuildingBlock: CIFDUS_clean_linker_0, # of connection points: 2
#     Edge 127, Type (0, 1), BuildingBlock: CIFDUS_clean_linker_0, # of connection points: 2
#     Edge 128, Type (0, 1), BuildingBlock: CIFDUS_clean_linker_0, # of connection points: 2
#     Edge 129, Type (0, 1), BuildingBlock: CIFDUS_clean_linker_0, # of connection points: 2
#     Edge 130, Type (0, 1), BuildingBlock: CIFDUS_clean_linker_0, # of connection points: 2
#     Edge 131, Type (0, 1), BuildingBlock: CIFDUS_clean_linker_0, # of connection points: 2
#     Edge 132, Type (0, 1), BuildingBlock: CIFDUS_clean_linker_0, # of connection points: 2
#     Edge 133, Type (0, 1), BuildingBlock: CIFDUS_clean_linker_0, # of connection points: 2
#     Edge 134, Type (0, 1), BuildingBlock: CIFDUS_clean_linker_0, # of connection points: 2
#     Edge 135, Type (0, 1), BuildingBlock: CIFDUS_clean_linker_0, # of connection points: 2
# Relax obj value: 0.075
# Max RMSD: 0.184
# Mean RMSD: 0.111
data_MOF--net-gar--node1-KUFVIS_clean_sbu_0--node2-KUMBUR_clean_sbu_1--edge1-CIFDUS_clean_linker_0
_symmetry_space_group_name_H-M    P1
_symmetry_Int_Tables_number       1
_symmetry_cell_setting            triclinic
loop_
_symmetry_equiv_pos_as_xyz
'x, y, z'
_cell_length_a     52.174166
_cell_length_b     52.434787
_cell_length_c     50.015033
_cell_angle_alpha  96.387036
_cell_angle_beta   96.431796
_cell_angle_gamma 101.72935
loop_
_atom_site_label
_atom_site_type_symbol
_atom_site_fract_x
_atom_site_fract_y
_atom_site_fract_z
_atom_type_partial_charge
Mn0 Mn 0.06069 0.32762 0.37971 0.0
Mn1 Mn 0.0628 0.37011 0.33472 0.0
C2 C 1.01921 0.33538 0.36036 0.0
C3 C 0.05981 0.28543 0.39191 0.0
C4 C 0.07365 0.38851 0.39637 0.0
O5 O 0.09866 0.32996 0.3683 0.0
O6 O 0.09834 0.35719 0.33706 0.0
C7 C 0.06329 0.33327 0.28536 0.0
N8 N 0.05163 0.35069 0.29912 0.0
C9 C 1.01559 0.3435 0.26262 0.0
C10 C 0.02737 0.3257 0.24801 0.0
C11 C 0.05132 0.32057 0.25944 0.0
C12 C 0.02856 0.35577 0.28827 0.0
H13 H 0.08153 0.32893 0.29407 0.0
C14 C 0.10992 0.3415 0.34994 0.0
O15 O 0.06896 0.30655 0.40914 0.0
O16 O 0.05192 0.28873 0.36721 0.0
N17 N 0.03111 0.38319 0.32888 0.0
C18 C 1.02161 0.40005 0.34595 0.0
C19 C 0.99748 0.40671 0.3377 0.0
C20 C 0.98334 0.39605 0.31199 0.0
C21 C 0.99353 0.37891 0.2947 0.0
C22 C 1.01778 0.37306 0.30395 0.0
H23 H 0.03212 0.40815 0.36588 0.0
O24 O 0.02235 0.32617 0.38318 0.0
O25 O 0.04124 0.33978 0.34901 0.0
O26 O 0.07036 0.36501 0.40226 0.0
O27 O 0.07314 0.39292 0.37155 0.0
C28 C 0.98025 0.36691 0.26889 0.0
C29 C 0.99128 0.34922 0.25286 0.0
H30 H 1.01811 0.31571 0.22809 0.0
H31 H 0.06046 0.30673 0.24836 0.0
H32 H 0.98969 0.41988 0.35123 0.0
H33 H 0.96459 0.40101 0.30582 0.0
H34 H 0.9614 0.37092 0.26129 0.0
H35 H 0.98077 0.33995 0.23314 0.0
Mn36 Mn 0.04452 0.75579 0.71361 0.0
Mn37 Mn 0.0585 0.80002 0.77042 0.0
C38 C 0.09013 0.76854 0.73703 0.0
C39 C 0.03409 0.71161 0.68815 0.0
C40 C 0.0533 0.81634 0.71377 0.0
O41 O 1.00566 0.75646 0.72516 0.0
O42 O 1.01814 0.78718 0.76184 0.0
C43 C 0.04054 0.76325 0.80877 0.0
N44 N 0.05999 0.78134 0.80108 0.0
C45 C 0.09089 0.77758 0.83916 0.0
C46 C 0.07113 0.75908 0.84762 0.0
C47 C 0.04585 0.75186 0.83233 0.0
C48 C 0.0844 0.78837 0.8156 0.0
H49 H 1.02113 0.75751 0.797 0.0
C50 C 0.9995 0.77133 0.74511 0.0
O51 O 0.03029 0.7321 0.67734 0.0
O52 O 0.04134 0.71624 0.71426 0.0
N53 N 0.0953 0.81461 0.7822 0.0
C54 C 0.11248 0.83191 0.77069 0.0
C55 C 0.13879 0.84068 0.78317 0.0
C56 C 0.14712 0.83174 0.80743 0.0
C57 C 0.12903 0.81416 0.81905 0.0
C58 C 0.10303 0.80616 0.80573 0.0
H59 H 0.10627 0.8387 0.75194 0.0
O60 O 0.08419 0.75893 0.71161 0.0
O61 O 0.06874 0.77042 0.74845 0.0
O62 O 0.04689 0.79283 0.70114 0.0
O63 O 0.05826 0.82116 0.73973 0.0
C64 C 0.13592 0.80378 0.84297 0.0
C65 C 0.11688 0.78549 0.85301 0.0
H66 H 0.07518 0.75016 0.86571 0.0
H67 H 0.03053 0.73748 0.83864 0.0
H68 H 0.15265 0.85417 0.77402 0.0
H69 H 0.16749 0.83835 0.81685 0.0
H70 H 0.1559 0.80951 0.85364 0.0
H71 H 0.12248 0.77747 0.87128 0.0
Mn72 Mn 0.56419 0.83093 0.88086 0.0
Mn73 Mn 0.56447 0.87275 0.8353 0.0
C74 C 0.52168 0.83683 0.86028 0.0
C75 C 0.56408 0.78908 0.89418 0.0
C76 C 0.57406 0.8918 0.89679 0.0
O77 O 0.60303 0.8339 0.86964 0.0
O78 O 0.60035 0.86105 0.83864 0.0
C79 C 0.56733 0.8366 0.78621 0.0
N80 N 0.55502 0.85382 0.79935 0.0
C81 C 0.52204 0.84907 0.76033 0.0
C82 C 0.53459 0.8316 0.74631 0.0
C83 C 0.55729 0.82529 0.75934 0.0
C84 C 0.53314 0.86002 0.78698 0.0
H85 H 0.58462 0.8314 0.79611 0.0
C86 C 0.61331 0.84608 0.85105 0.0
O87 O 0.57294 0.81055 0.91096 0.0
O88 O 0.55618 0.79189 0.86933 0.0
N89 N 0.53232 0.88477 0.8284 0.0
C90 C 0.52091 0.89973 0.84556 0.0
C91 C 0.49717 0.90652 0.8361 0.0
C92 C 0.48538 0.89792 0.80911 0.0
C93 C 0.49738 0.8825 0.79184 0.0
C94 C 0.52112 0.87641 0.80236 0.0
H95 H 0.52963 0.90624 0.86642 0.0
O96 O 0.52512 0.82867 0.88363 0.0
O97 O 0.54388 0.8416 0.8493 0.0
O98 O 0.57252 0.86858 0.90313 0.0
O99 O 0.57317 0.89575 0.87188 0.0
C100 C 0.48621 0.87218 0.76488 0.0
C101 C 0.49855 0.85551 0.74913 0.0
H102 H 0.52677 0.82262 0.72566 0.0
H103 H 0.56696 0.81162 0.74873 0.0
H104 H 0.48789 0.91823 0.84962 0.0
H105 H 0.46693 0.90295 0.80198 0.0
H106 H 0.46786 0.87653 0.75623 0.0
H107 H 0.48953 0.84734 0.72857 0.0
Mn108 Mn 0.54198 0.25319 0.21716 0.0
Mn109 Mn 0.49248 0.2423 0.16345 0.0
C110 C 0.52613 0.21008 0.1905 0.0
C111 C 0.59084 0.26306 0.23486 0.0
C112 C 0.48024 0.25383 0.22196 0.0
O113 O 0.54374 0.29043 0.20593 0.0
O114 O 0.511 0.27997 0.17006 0.0
C115 C 0.52576 0.25283 0.11993 0.0
N116 N 0.50705 0.23628 0.13046 0.0
C117 C 0.50244 0.20267 0.09221 0.0
C118 C 0.52156 0.21941 0.08091 0.0
C119 C 0.5333 0.24457 0.09487 0.0
C120 C 0.49564 0.21202 0.1172 0.0
H121 H 0.5349 0.27216 0.1306 0.0
C122 C 0.52961 0.29649 0.1858 0.0
O123 O 0.57256 0.26626 0.24978 0.0
O124 O 0.58102 0.2546 0.20978 0.0
N125 N 0.47368 0.2064 0.15485 0.0
C126 C 0.45729 0.1919 0.16959 0.0
C127 C 0.4447 0.16586 0.15901 0.0
C128 C 0.4491 0.15501 0.1334 0.0
C129 C 0.46612 0.17029 0.11862 0.0
C130 C 0.47793 0.19619 0.13011 0.0
H131 H 0.45399 0.20012 0.18931 0.0
O132 O 0.53708 0.21288 0.21559 0.0
O133 O 0.52307 0.23218 0.18276 0.0
O134 O 0.50449 0.25521 0.23336 0.0
O135 O 0.4742 0.24821 0.19614 0.0
C136 C 0.47228 0.16064 0.09323 0.0
C137 C 0.49041 0.17683 0.08002 0.0
H138 H 0.52759 0.21303 0.06169 0.0
H139 H 0.54819 0.25755 0.08635 0.0
H140 H 0.43172 0.15414 0.17061 0.0
H141 H 0.43956 0.13483 0.12543 0.0
H142 H 0.46354 0.14065 0.0839 0.0
H143 H 0.49537 0.16902 0.06076 0.0
Mn144 Mn 0.10007 0.81585 0.12204 0.0
Mn145 Mn 0.05773 0.79782 0.06366 0.0
C146 C 0.08967 0.77005 0.10066 0.0
C147 C 0.14368 0.82786 0.14844 0.0
C148 C 0.039 0.80466 0.11882 0.0
O149 O 0.09825 0.85377 0.10897 0.0
O150 O 0.06936 0.83761 0.07143 0.0
C151 C 0.09591 0.81536 0.02638 0.0
N152 N 0.07764 0.79602 0.03396 0.0
C153 C 0.08217 0.76501 0.99648 0.0
C154 C 0.10091 0.78465 0.98816 0.0
C155 C 0.10785 0.80991 1.00322 0.0
C156 C 0.07087 0.77163 0.01967 0.0
H157 H 0.10132 0.83477 0.03795 0.0
C158 C 0.08341 0.85761 0.0877 0.0
O159 O 0.12263 0.83139 0.15853 0.0
O160 O 0.13987 0.8203 0.12242 0.0
N161 N 0.04421 0.76091 0.05285 0.0
C162 C 0.02685 0.74386 0.06442 0.0
C163 C 1.01848 0.71752 0.05233 0.0
C164 C 0.02773 0.7091 0.02828 0.0
C165 C 0.0453 0.7271 0.01654 0.0
C166 C 0.05293 0.7531 0.02951 0.0
H167 H 1.01965 0.75024 0.08289 0.0
O168 O 0.09843 0.77712 0.12616 0.0
O169 O 0.08734 0.79029 0.08783 0.0
O170 O 0.06207 0.81224 0.13266 0.0
O171 O 0.0354 0.79854 0.09301 0.0
C172 C 0.05611 0.72011 0.99292 0.0
C173 C 0.07455 0.73904 0.98292 0.0
H174 H 0.11024 0.78051 0.97036 0.0
H175 H 0.12238 0.82514 0.99699 0.0
H176 H 1.00499 0.70374 0.06155 0.0
H177 H 1.02141 0.68872 0.01915 0.0
H178 H 0.05066 0.70013 0.98251 0.0
H179 H 0.08296 0.73335 0.96492 0.0
Mn180 Mn 0.51492 0.78405 0.45699 0.0
Mn181 Mn 0.51067 0.8245 0.40727 0.0
C182 C 0.47245 0.78552 0.43073 0.0
C183 C 0.52059 0.73975 0.47116 0.0
C184 C 0.52312 0.847 0.46749 0.0
O185 O 0.55342 0.79242 0.44602 0.0
O186 O 0.5452 0.81462 0.41094 0.0
C187 C 0.5134 0.78945 0.35748 0.0
N188 N 0.50082 0.80583 0.37142 0.0
C189 C 0.47169 0.8075 0.33109 0.0
C190 C 0.48435 0.79068 0.31624 0.0
C191 C 0.50511 0.7814 0.32955 0.0
C192 C 0.48054 0.81452 0.35888 0.0
H193 H 0.52978 0.78285 0.36756 0.0
C194 C 0.56046 0.80364 0.4254 0.0
O195 O 0.52575 0.76166 0.48768 0.0
O196 O 0.51219 0.74347 0.44677 0.0
N197 N 0.47794 0.83549 0.40162 0.0
C198 C 0.46645 0.84969 0.41937 0.0
C199 C 0.44396 0.85864 0.4098 0.0
C200 C 0.43393 0.85342 0.38201 0.0
C201 C 0.44627 0.83894 0.36414 0.0
C202 C 0.46826 0.83007 0.37495 0.0
H203 H 0.4744 0.85419 0.44065 0.0
O204 O 0.47372 0.77704 0.45421 0.0
O205 O 0.49554 0.7932 0.42364 0.0
O206 O 0.52016 0.82458 0.47715 0.0
O207 O 0.52098 0.84767 0.44206 0.0
C208 C 0.43759 0.83288 0.33603 0.0
C209 C 0.45055 0.81751 0.3195 0.0
H210 H 0.47815 0.78459 0.29467 0.0
H211 H 0.51494 0.76838 0.31824 0.0
H212 H 0.43455 0.86978 0.42375 0.0
H213 H 0.4167 0.8605 0.37465 0.0
H214 H 0.42095 0.83988 0.32692 0.0
H215 H 0.44413 0.81357 0.29792 0.0
Mn216 Mn 0.60148 0.31545 0.62559 0.0
Mn217 Mn 0.56098 0.30189 0.56573 0.0
C218 C 0.59096 0.27077 0.60168 0.0
C219 C 0.64432 0.32762 0.65367 0.0
C220 C 0.54051 0.30599 0.62028 0.0
O221 O 0.60009 0.35386 0.61481 0.0
O222 O 0.57357 0.34179 0.5749 0.0
C223 C 0.60098 0.31976 0.53042 0.0
N224 N 0.58179 0.3005 0.53675 0.0
C225 C 0.58657 0.27031 0.49868 0.0
C226 C 0.60627 0.2899 0.49162 0.0
C227 C 0.61353 0.3147 0.50761 0.0
C228 C 0.5747 0.27654 0.52157 0.0
H229 H 0.60665 0.33882 0.54272 0.0
C230 C 0.58715 0.36002 0.59354 0.0
O231 O 0.62256 0.32974 0.663 0.0
O232 O 0.64162 0.32072 0.62756 0.0
N233 N 0.54652 0.26537 0.55336 0.0
C234 C 0.52821 0.24824 0.56379 0.0
C235 C 0.51937 0.22229 0.55067 0.0
C236 C 0.52915 0.21433 0.5268 0.0
C237 C 0.54773 0.23241 0.51626 0.0
C238 C 0.5558 0.25801 0.53021 0.0
H239 H 0.5206 0.25426 0.58212 0.0
O240 O 0.59947 0.2764 0.6274 0.0
O241 O 0.58934 0.292 0.59008 0.0
O242 O 0.56317 0.31122 0.63489 0.0
O243 O 0.53765 0.30227 0.59431 0.0
C244 C 0.55911 0.22583 0.4929 0.0
C245 C 0.57854 0.24476 0.48414 0.0
H246 H 0.61607 0.28604 0.4741 0.0
H247 H 0.6288 0.32987 0.50237 0.0
H248 H 0.50509 0.20844 0.55897 0.0
H249 H 0.52245 0.19424 0.51688 0.0
H250 H 0.55335 0.20616 0.48175 0.0
H251 H 0.58738 0.23937 0.46635 0.0
Mn252 Mn 1.01219 0.28396 0.96258 0.0
Mn253 Mn 1.01103 0.32061 0.90935 0.0
C254 C 0.97071 0.2858 0.93534 0.0
C255 C 1.01864 0.24196 0.98104 0.0
C256 C 1.02115 0.34701 0.96843 0.0
O257 O 0.05063 0.29031 0.95326 0.0
O258 O 0.04568 0.31117 0.91649 0.0
C259 C 1.01484 0.27933 0.86545 0.0
N260 N 1.00223 0.2978 0.87561 0.0
C261 C 0.9723 0.2916 0.83404 0.0
C262 C 0.985 0.27254 0.82306 0.0
C263 C 1.00623 0.26624 0.83892 0.0
C264 C 0.98146 0.30363 0.86075 0.0
H265 H 0.03141 0.27474 0.87747 0.0
C266 C 0.05943 0.3007 0.93306 0.0
O267 O 0.02259 0.26491 0.99553 0.0
O268 O 1.00995 0.2429 0.95584 0.0
N269 N 0.97886 0.33159 0.89942 0.0
C270 C 0.96847 0.35009 0.91319 0.0
C271 C 0.9469 0.35843 0.90028 0.0
C272 C 0.9366 0.3481 0.87319 0.0
C273 C 0.9479 0.32942 0.85928 0.0
C274 C 0.96928 0.32178 0.87323 0.0
H275 H 0.97663 0.35853 0.93382 0.0
O276 O 0.97125 0.27818 0.95925 0.0
O277 O 0.99401 0.29164 0.92801 0.0
O278 O 1.01773 0.32532 0.97943 0.0
O279 O 1.01993 0.34647 0.94274 0.0
C280 C 0.93879 0.31808 0.83213 0.0
C281 C 0.95093 0.29911 0.81956 0.0
H282 H 0.97856 0.26257 0.80252 0.0
H283 H 1.0161 0.25153 0.8306 0.0
H284 H 0.93834 0.37292 0.91113 0.0
H285 H 0.91995 0.35457 0.86331 0.0
H286 H 0.92238 0.3237 0.82079 0.0
H287 H 0.94381 0.2905 0.79872 0.0
Mn288 Mn 0.41248 0.02341 0.31076 0.0
Mn289 Mn 0.36708 0.01806 0.35391 0.0
C290 C 0.39779 0.98386 0.32549 0.0
C291 C 0.42313 0.02148 0.267 0.0
C292 C 0.42491 0.04366 0.37137 0.0
O293 O 0.39713 0.05553 0.30724 0.0
O294 O 0.36592 0.04957 0.3352 0.0
C295 C 0.31869 1.00609 0.31358 0.0
N296 N 0.33367 0.99924 0.33455 0.0
C297 C 0.30181 0.95882 0.33393 0.0
C298 C 0.28597 0.96554 0.31245 0.0
C299 C 0.29448 0.98926 0.3022 0.0
C300 C 0.3257 0.97643 0.34452 0.0
H301 H 0.32521 0.02423 0.30553 0.0
C302 C 0.37811 0.06223 0.31816 0.0
O303 O 0.43974 0.03512 0.28738 0.0
O304 O 0.40009 1.00989 0.27201 0.0
N305 N 0.36596 0.98812 0.37287 0.0
C306 C 0.38426 0.98379 0.39253 0.0
C307 C 0.37916 0.9605 0.40432 0.0
C308 C 0.35529 0.94195 0.39586 0.0
C309 C 0.33668 0.94691 0.37573 0.0
C310 C 0.34276 0.97057 0.36487 0.0
H311 H 0.40269 0.99792 0.39905 0.0
O312 O 0.42042 0.98869 0.31649 0.0
O313 O 0.38464 1.00243 0.32569 0.0
O314 O 0.43229 0.03961 0.34814 0.0
O315 O 0.40096 0.03699 0.37577 0.0
C316 C 0.31255 0.92909 0.36568 0.0
C317 C 0.29511 0.93505 0.34482 0.0
H318 H 0.26737 0.95253 0.30348 0.0
H319 H 0.28243 0.9945 0.28551 0.0
H320 H 0.39364 0.95679 0.41981 0.0
H321 H 0.35154 0.92389 0.4048 0.0
H322 H 0.30737 0.91057 0.37358 0.0
H323 H 0.27681 0.92102 0.33697 0.0
Mn324 Mn 0.27172 0.21102 0.53577 0.0
Mn325 Mn 0.26461 0.15556 0.49145 0.0
C326 C 0.23053 0.18031 0.52509 0.0
C327 C 0.28021 0.23241 0.58226 0.0
C328 C 0.27104 0.20998 0.47257 0.0
O329 O 0.30989 0.20602 0.53644 0.0
O330 O 0.3024 0.16852 0.50696 0.0
C331 C 0.27957 0.12087 0.53053 0.0
N332 N 0.26158 0.12609 0.51111 0.0
C333 C 0.23031 0.08659 0.51496 0.0
C334 C 0.24854 0.08071 0.53486 0.0
C335 C 0.27328 0.09794 0.54267 0.0
C336 C 0.23777 0.10958 0.50334 0.0
H337 H 0.29854 0.13414 0.53684 0.0
C338 C 0.31779 0.18697 0.52385 0.0
O339 O 0.28279 0.24552 0.56177 0.0
O340 O 0.27326 0.20717 0.57581 0.0
N341 N 0.22866 0.14065 0.47597 0.0
C342 C 0.21227 0.15052 0.45877 0.0
C343 C 0.18646 0.13597 0.44952 0.0
C344 C 0.17765 0.11159 0.45836 0.0
C345 C 0.1947 0.10205 0.4765 0.0
C346 C 0.22036 0.1172 0.48462 0.0
H347 H 0.21867 0.16956 0.45262 0.0
O348 O 0.23151 0.20489 0.53345 0.0
O349 O 0.2533 0.17524 0.5217 0.0
O350 O 0.27255 0.2231 0.49638 0.0
O351 O 0.26732 0.18484 0.469 0.0
C352 C 0.18693 0.07859 0.48759 0.0
C353 C 0.20474 0.07095 0.50688 0.0
H354 H 0.24363 0.06317 0.54449 0.0
H355 H 0.28741 0.09363 0.55814 0.0
H356 H 0.17327 0.14371 0.43592 0.0
H357 H 0.15758 0.10066 0.45158 0.0
H358 H 0.16712 0.06662 0.48192 0.0
H359 H 0.19852 0.05335 0.51594 0.0
Mn360 Mn 0.15109 0.08598 0.80259 0.0
Mn361 Mn 0.20193 0.09645 0.85361 0.0
C362 C 0.17808 0.1284 0.8165 0.0
C363 C 0.13622 0.07603 0.75465 0.0
C364 C 0.14413 0.08171 0.86295 0.0
O365 O 0.15947 0.04949 0.80401 0.0
O366 O 0.19703 0.06043 0.83427 0.0
C367 C 0.24645 0.09478 0.82207 0.0
N368 N 0.23474 0.10804 0.84041 0.0
C369 C 0.27037 0.14624 0.84578 0.0
C370 C 0.28285 0.13294 0.82701 0.0
C371 C 0.27081 0.10712 0.81508 0.0
C372 C 0.24614 0.13291 0.85199 0.0
H373 H 0.23718 0.07498 0.81273 0.0
C374 C 0.18014 0.04405 0.81656 0.0
O375 O 0.11996 0.07227 0.77244 0.0
O376 O 0.16075 0.08525 0.76465 0.0
N377 N 0.20828 0.1313 0.87287 0.0
C378 C 0.19269 0.1421 0.88889 0.0
C379 C 0.20154 0.16811 0.90181 0.0
C380 C 0.2263 0.18274 0.89815 0.0
C381 C 0.24199 0.17122 0.88155 0.0
C382 C 0.23221 0.14516 0.86933 0.0
H383 H 0.17364 0.13098 0.89179 0.0
O384 O 0.15419 0.12555 0.80418 0.0
O385 O 0.18406 0.1066 0.8216 0.0
O386 O 0.1339 0.08375 0.83878 0.0
O387 O 0.16907 0.085 0.86967 0.0
C388 C 0.2666 0.18483 0.87603 0.0
C389 C 0.28072 0.17237 0.85809 0.0
H390 H 0.30152 0.14243 0.82139 0.0
H391 H 0.28025 0.0968 0.80047 0.0
H392 H 0.18926 0.1769 0.9145 0.0
H393 H 0.23294 0.20289 0.90792 0.0
H394 H 0.27459 0.20505 0.88504 0.0
H395 H 0.29932 0.18324 0.85365 0.0
Mn396 Mn 0.3195 0.94248 0.02738 0.0
Mn397 Mn 0.31705 0.98829 0.98523 0.0
C398 C 0.35728 0.96272 0.01231 0.0
C399 C 0.32469 0.93036 0.07053 0.0
C400 C 0.30014 0.92976 0.9663 0.0
O401 O 0.28435 0.95215 0.0318 0.0
O402 O 0.28525 0.98368 1.00439 0.0
C403 C 0.32278 0.03472 0.02678 0.0
N404 N 0.33145 0.02246 1.00521 0.0
C405 C 0.36745 0.05955 1.00591 0.0
C406 C 0.35878 0.07264 0.02799 0.0
C407 C 0.33638 0.06015 0.0385 0.0
C408 C 0.35303 0.03428 0.99499 0.0
H409 H 0.30567 0.02516 0.03504 0.0
C410 C 0.27453 0.9698 0.0214 0.0
O411 O 0.31279 0.9134 0.04971 0.0
O412 O 0.33236 0.9546 0.06659 0.0
N413 N 0.34682 0.99507 0.96581 0.0
C414 C 0.35347 0.97924 0.9454 0.0
C415 C 0.37591 0.98852 0.93324 0.0
C416 C 0.39118 1.01401 0.94201 0.0
C417 C 0.38376 0.03008 0.96276 0.0
C418 C 0.36107 0.01984 0.974 0.0
H419 H 0.34189 0.95959 0.93861 0.0
O420 O 0.35584 0.94021 0.02111 0.0
O421 O 0.33663 0.97303 0.01291 0.0
O422 O 0.30531 0.9225 0.98943 0.0
O423 O 0.30277 0.95382 0.96261 0.0
C424 C 0.39829 0.05565 0.97311 0.0
C425 C 0.39014 0.07037 0.99467 0.0
H426 H 0.36931 0.09218 0.03721 0.0
H427 H 0.32966 0.07006 0.05565 0.0
H428 H 0.38151 0.97599 0.91723 0.0
H429 H 0.40865 0.02099 0.93278 0.0
H430 H 0.416 0.06403 0.96493 0.0
H431 H 0.40171 0.08985 1.00274 0.0
Mn432 Mn 0.34038 0.39539 0.06552 0.0
Mn433 Mn 0.34976 0.44335 0.02414 0.0
C434 C 0.38328 0.41815 0.0613 0.0
C435 C 0.33226 0.38181 0.10911 0.0
C436 C 0.33711 0.3851 1.00203 0.0
O437 O 0.30396 0.40462 0.05989 0.0
O438 O 0.31303 0.43597 0.03288 0.0
C439 C 0.34322 0.48709 0.06389 0.0
N440 N 0.35755 0.47711 0.04583 0.0
C441 C 0.38889 0.51849 0.05063 0.0
C442 C 0.37441 0.52925 0.0692 0.0
C443 C 0.35158 0.51342 0.07601 0.0
C444 C 0.37985 0.49201 0.0396 0.0
H445 H 0.32548 0.47511 0.06892 0.0
C446 C 0.29734 0.42208 0.04626 0.0
O447 O 0.32678 0.36544 0.08674 0.0
O448 O 0.34257 0.40588 0.1063 0.0
N449 N 0.38414 0.45386 0.01358 0.0
C450 C 0.39639 0.44034 0.99601 0.0
C451 C 0.41973 0.45323 0.98739 0.0
C452 C 0.42995 0.48009 0.99641 0.0
C453 C 0.41677 0.49378 0.01408 0.0
C454 C 0.39368 0.47982 0.02212 0.0
H455 H 0.38846 0.41987 0.98875 0.0
O456 O 0.37928 0.39531 0.06976 0.0
O457 O 0.36226 0.42732 0.05568 0.0
O458 O 0.33488 0.37644 0.02501 0.0
O459 O 0.34258 0.40957 0.99978 0.0
C460 C 0.42578 0.52068 0.02424 0.0
C461 C 0.41196 0.53298 0.04266 0.0
H462 H 0.38067 0.54961 0.07841 0.0
H463 H 0.34032 0.52157 0.09036 0.0
H464 H 0.42974 0.4425 0.97371 0.0
H465 H 0.44798 0.48997 0.98975 0.0
H466 H 0.44361 0.53196 0.01843 0.0
H467 H 0.41933 0.55354 0.05072 0.0
Mn468 Mn 0.77048 0.15929 0.06446 0.0
Mn469 Mn 0.74662 0.09967 0.02685 0.0
C470 C 0.72822 0.13687 0.06668 0.0
C471 C 0.79125 0.18816 0.10261 0.0
C472 C 0.75412 0.15095 1.00349 0.0
O473 O 0.80378 0.14783 0.05474 0.0
O474 O 0.78554 0.10614 0.03491 0.0
C475 C 0.75992 0.06446 0.06612 0.0
N476 N 0.74178 0.07176 0.04853 0.0
C477 C 0.70773 0.03532 0.05495 0.0
C478 C 0.72617 0.02715 0.07282 0.0
C479 C 0.75233 0.04189 0.07856 0.0
C480 C 0.71648 0.0579 0.04309 0.0
H481 H 0.77997 0.07584 0.07065 0.0
C482 C 0.80549 0.12489 0.04441 0.0
O483 O 0.78976 0.19535 0.07867 0.0
O484 O 0.78286 0.16332 0.10428 0.0
N485 N 0.70894 0.09101 0.01793 0.0
C486 C 0.693 0.10336 1.00297 0.0
C487 C 0.6658 0.09226 0.99696 0.0
C488 C 0.65533 0.06841 1.00605 0.0
C489 C 0.67213 0.05602 0.02134 0.0
C490 C 0.69907 0.06807 0.02678 0.0
H491 H 0.70094 0.12161 0.99578 0.0
O492 O 0.73479 0.16224 0.07298 0.0
O493 O 0.74641 0.12523 0.05895 0.0
O494 O 0.76063 0.1657 0.02604 0.0
O495 O 0.74998 0.12599 1.00122 0.0
C496 C 0.66309 0.0327 0.03223 0.0
C497 C 0.68087 0.02237 0.04905 0.0
H498 H 0.72037 1.00985 0.08258 0.0
H499 H 0.76659 0.03587 0.09256 0.0
H500 H 0.65295 0.10207 0.98538 0.0
H501 H 0.6343 0.06003 1.00157 0.0
H502 H 0.64237 0.02295 0.02839 0.0
H503 H 0.67355 1.0048 0.05785 0.0
Mn504 Mn 0.20352 0.56381 0.25954 0.0
Mn505 Mn 0.25889 0.5889 0.3048 0.0
C506 C 0.22135 0.60842 0.26611 0.0
C507 C 0.1799 0.54649 0.2172 0.0
C508 C 0.20424 0.57677 0.32083 0.0
O509 O 0.21666 0.53072 0.26643 0.0
O510 O 0.2526 0.55004 0.29652 0.0
C511 C 0.2966 0.57581 0.26818 0.0
N512 N 0.28859 0.59377 0.28529 0.0
C513 C 0.32599 0.6276 0.28071 0.0
C514 C 0.33479 0.6094 0.26323 0.0
C515 C 0.31993 0.58344 0.25682 0.0
C516 C 0.30242 0.61893 0.29114 0.0
H517 H 0.28527 0.55584 0.26325 0.0
C518 C 0.23708 0.52972 0.28257 0.0
O519 O 0.16963 0.54323 0.2393 0.0
O520 O 0.20487 0.55763 0.21964 0.0
N521 N 0.26859 0.62616 0.31565 0.0
C522 C 0.25748 0.64129 0.33294 0.0
C523 C 0.26987 0.66781 0.34136 0.0
C524 C 0.29395 0.67834 0.33257 0.0
C525 C 0.30547 0.6622 0.31552 0.0
C526 C 0.29213 0.63594 0.30769 0.0
H527 H 0.23921 0.63322 0.34019 0.0
O528 O 0.19698 0.59912 0.25556 0.0
O529 O 0.23557 0.59132 0.27158 0.0
O530 O 0.19255 0.56697 0.29714 0.0
O531 O 0.22921 0.58547 0.32637 0.0
C532 C 0.32953 0.67122 0.30574 0.0
C533 C 0.33966 0.65399 0.28816 0.0
H534 H 0.35285 0.61518 0.25455 0.0
H535 H 0.32652 0.56932 0.24324 0.0
H536 H 0.26093 0.68009 0.35467 0.0
H537 H 0.30339 0.69884 0.339 0.0
H538 H 0.34019 0.69147 0.3113 0.0
H539 H 0.35799 0.66124 0.28048 0.0
Mn540 Mn 0.83759 0.89322 0.56838 0.0
Mn541 Mn 0.84843 0.93897 0.52509 0.0
C542 C 0.88076 0.91489 0.56434 0.0
C543 C 0.83039 0.88149 0.6127 0.0
C544 C 0.83397 0.88015 0.50523 0.0
O545 O 0.80172 0.9037 0.56226 0.0
O546 O 0.81155 0.93359 0.53373 0.0
C547 C 0.84287 0.98581 0.56112 0.0
N548 N 0.85711 0.97382 0.54446 0.0
C549 C 0.889 1.01432 0.54568 0.0
C550 C 0.87465 0.02713 0.56281 0.0
C551 C 0.8516 1.01276 0.57073 0.0
C552 C 0.87955 0.98737 0.53708 0.0
H553 H 0.82489 0.97495 0.56686 0.0
C554 C 0.79563 0.9209 0.54785 0.0
O555 O 0.82367 0.86452 0.59077 0.0
O556 O 0.84077 0.90522 0.60887 0.0
N557 N 0.88325 0.94712 0.51502 0.0
C558 C 0.89633 0.93129 0.50101 0.0
C559 C 0.92057 0.9423 0.49277 0.0
C560 C 0.93096 0.96951 0.49876 0.0
C561 C 0.91722 0.98539 0.51338 0.0
C562 C 0.89331 0.97325 0.52129 0.0
H563 H 0.88861 0.91037 0.49673 0.0
O564 O 0.87619 0.89213 0.57291 0.0
O565 O 0.86005 0.9243 0.55789 0.0
O566 O 0.83145 0.87247 0.52858 0.0
O567 O 0.8403 0.90438 0.50233 0.0
C568 C 0.92659 1.0127 0.52091 0.0
C569 C 0.91247 0.02716 0.53703 0.0
H570 H 0.88124 0.04794 0.57015 0.0
H571 H 0.84043 0.0225 0.58398 0.0
H572 H 0.93123 0.92984 0.48186 0.0
H573 H 0.94968 0.97794 0.49244 0.0
H574 H 0.94495 0.02268 0.51501 0.0
H575 H 0.9201 0.04804 0.54308 0.0
Mn576 Mn 0.96175 0.01909 0.27509 0.0
Mn577 Mn 0.91096 1.01638 0.31276 0.0
C578 C 0.93389 0.9782 0.27878 0.0
C579 C 0.97657 0.02509 0.23122 0.0
C580 C 0.96881 0.02478 0.33848 0.0
O581 O 0.95761 0.05761 0.28147 0.0
O582 O 0.92012 0.0514 0.30069 0.0
C583 C 0.87003 0.01962 0.26796 0.0
N584 N 0.87827 1.00729 0.28881 0.0
C585 C 0.83738 0.97484 0.28117 0.0
C586 C 0.82827 0.98746 0.25991 0.0
C587 C 0.84475 1.00984 0.25314 0.0
C588 C 0.86289 0.9853 0.29494 0.0
H589 H 0.88273 0.03667 0.26258 0.0
C590 C 0.93823 0.06581 0.29043 0.0
O591 O 0.99292 0.02923 0.25366 0.0
O592 O 0.95199 0.01761 0.23431 0.0
N593 N 0.89893 0.98386 0.32627 0.0
C594 C 0.91038 0.9744 0.34782 0.0
C595 C 0.89611 0.95268 0.3579 0.0
C596 C 0.87011 0.94101 0.34593 0.0
C597 C 0.85858 0.95125 0.32404 0.0
C598 C 0.87359 0.97326 0.31521 0.0
H599 H 0.93019 0.98341 0.3574 0.0
O600 O 0.95667 0.97917 0.27037 0.0
O601 O 0.92796 1.00084 0.28409 0.0
O602 O 0.97884 0.02223 0.31608 0.0
O603 O 0.94422 0.02467 0.33886 0.0
C604 C 0.83269 0.94061 0.31078 0.0
C605 C 0.8222 0.95225 0.28917 0.0
H606 H 0.80874 0.98004 0.24852 0.0
H607 H 0.83798 0.01954 0.23658 0.0
H608 H 0.90514 0.94494 0.37486 0.0
H609 H 0.85925 0.92412 0.35361 0.0
H610 H 0.82074 0.92341 0.31694 0.0
H611 H 0.80236 0.94378 0.27898 0.0
Mn612 Mn 0.27897 0.66324 0.58745 0.0
Mn613 Mn 0.25231 0.60622 0.54577 0.0
C614 C 0.23616 0.64124 0.58901 0.0
C615 C 0.30174 0.68901 0.62698 0.0
C616 C 0.25835 0.65929 0.52701 0.0
O617 O 0.31173 0.6523 0.57612 0.0
O618 O 0.29121 0.61544 0.54806 0.0
C619 C 0.27459 0.57091 0.57962 0.0
N620 N 0.25339 0.57725 0.56558 0.0
C621 C 0.22436 0.53776 0.57363 0.0
C622 C 0.24589 0.53075 0.58811 0.0
C623 C 0.27109 0.54747 0.59123 0.0
C624 C 0.22902 0.56148 0.56276 0.0
H625 H 0.294 0.58361 0.58185 0.0
C626 C 0.31204 0.63219 0.5594 0.0
O627 O 0.29995 0.69815 0.60401 0.0
O628 O 0.29131 0.66425 0.62692 0.0
N629 N 0.21475 0.59409 0.54105 0.0
C630 C 0.19591 0.60428 0.52752 0.0
C631 C 0.16961 0.59001 0.52265 0.0
C632 C 0.16299 0.56518 0.5312 0.0
C633 C 0.18273 0.55503 0.54499 0.0
C634 C 0.20863 0.57014 0.54923 0.0
H635 H 0.20089 0.62317 0.52058 0.0
O636 O 0.24346 0.66638 0.59683 0.0
O637 O 0.25382 0.62952 0.58004 0.0
O638 O 0.27006 0.67222 0.54953 0.0
O639 O 0.24965 0.63446 0.52326 0.0
C640 C 0.17766 0.53079 0.55523 0.0
C641 C 0.19843 0.52225 0.5697 0.0
H642 H 0.2433 0.51263 0.597 0.0
H643 H 0.28779 0.54222 0.60242 0.0
H644 H 0.15451 0.59818 0.51241 0.0
H645 H 0.14262 0.55432 0.5275 0.0
H646 H 0.15779 0.51877 0.55245 0.0
H647 H 0.19422 0.50376 0.57781 0.0
Mn648 Mn 0.46714 0.51733 0.77574 0.0
Mn649 Mn 0.41668 0.5115 0.81402 0.0
C650 C 0.43991 0.47549 0.7782 0.0
C651 C 0.48445 0.52514 0.73342 0.0
C652 C 0.47468 0.52269 0.83909 0.0
O653 O 0.46051 0.55521 0.78209 0.0
O654 O 0.42335 0.54631 0.80164 0.0
C655 C 0.3728 0.5129 0.77155 0.0
N656 N 0.38324 0.50083 0.79152 0.0
C657 C 0.343 0.46794 0.78758 0.0
C658 C 0.33166 0.48018 0.76719 0.0
C659 C 0.34672 0.50261 0.75895 0.0
C660 C 0.36922 0.47878 0.79898 0.0
H661 H 0.38428 0.53025 0.76533 0.0
C662 C 0.44015 0.56178 0.79082 0.0
O663 O 0.49922 0.52897 0.75678 0.0
O664 O 0.4594 0.51685 0.73438 0.0
N665 N 0.40756 0.47853 0.82752 0.0
C666 C 0.4214 0.46898 0.84743 0.0
C667 C 0.40915 0.44659 0.85796 0.0
C668 C 0.38267 0.43449 0.84832 0.0
C669 C 0.36873 0.44479 0.82805 0.0
C670 C 0.38196 0.46717 0.81833 0.0
H671 H 0.44156 0.47847 0.85545 0.0
O672 O 0.46305 0.47735 0.77034 0.0
O673 O 0.43347 0.49776 0.78404 0.0
O674 O 0.48438 0.52022 0.81659 0.0
O675 O 0.45008 0.52179 0.83961 0.0
C676 C 0.34213 0.43389 0.81731 0.0
C677 C 0.32931 0.44548 0.79711 0.0
H678 H 0.31147 0.47244 0.75762 0.0
H679 H 0.33818 0.51206 0.7431 0.0
H680 H 0.42005 0.43879 0.87364 0.0
H681 H 0.37327 0.41724 0.85651 0.0
H682 H 0.33137 0.41661 0.82444 0.0
H683 H 0.30883 0.43716 0.78928 0.0
Mn684 Mn 0.70013 0.08349 0.76002 0.0
Mn685 Mn 0.75555 0.11129 0.80416 0.0
C686 C 0.71871 0.1276 0.76227 0.0
C687 C 0.67654 0.06301 0.71869 0.0
C688 C 0.70118 0.10055 0.82086 0.0
O689 O 0.71321 0.05136 0.76921 0.0
O690 O 0.74838 0.07238 0.79952 0.0
C691 C 0.79307 0.09348 0.76985 0.0
N692 N 0.78561 0.11306 0.78527 0.0
C693 C 0.82548 0.14401 0.78131 0.0
C694 C 0.83376 0.12409 0.76567 0.0
C695 C 0.81737 0.09878 0.75971 0.0
C696 C 0.80089 0.13764 0.79049 0.0
H697 H 0.7806 0.07399 0.76536 0.0
C698 C 0.73317 0.05145 0.78638 0.0
O699 O 0.66622 0.0619 0.74103 0.0
O700 O 0.70138 0.07437 0.72048 0.0
N701 N 0.76631 0.14881 0.81142 0.0
C702 C 0.75485 0.16614 0.82552 0.0
C703 C 0.76835 0.19248 0.83257 0.0
C704 C 0.79378 0.20067 0.8256 0.0
C705 C 0.80543 0.18242 0.81153 0.0
C706 C 0.7909 0.15647 0.80483 0.0
H707 H 0.73549 0.15993 0.83115 0.0
O708 O 0.69396 0.11823 0.75311 0.0
O709 O 0.7326 0.11092 0.76981 0.0
O710 O 0.68938 0.08882 0.79782 0.0
O711 O 0.72585 0.11098 0.82554 0.0
C712 C 0.83068 0.18908 0.80341 0.0
C713 C 0.84059 0.16994 0.78809 0.0
H714 H 0.85257 0.12805 0.75798 0.0
H715 H 0.82353 0.08335 0.7475 0.0
H716 H 0.75924 0.20635 0.84351 0.0
H717 H 0.80408 0.22104 0.83085 0.0
H718 H 0.84235 0.20901 0.80828 0.0
H719 H 0.85978 0.17542 0.78146 0.0
Mn720 Mn 0.77336 0.71279 0.04298 0.0
Mn721 Mn 0.76437 0.66172 0.99254 0.0
C722 C 0.7307 0.68759 0.02651 0.0
C723 C 0.78128 0.72754 0.09112 0.0
C724 C 0.77929 0.71918 0.98269 0.0
O725 O 0.81011 0.70416 0.04347 0.0
O726 O 0.80059 0.66734 0.01274 0.0
C727 C 0.76637 0.61802 0.02495 0.0
N728 N 0.75309 0.62911 1.006 0.0
C729 C 0.7158 0.59235 0.99934 0.0
C730 C 0.72915 0.58049 0.01866 0.0
C731 C 0.75451 0.59341 0.03156 0.0
C732 C 0.72867 0.61683 0.99345 0.0
H733 H 0.78583 0.62792 0.03499 0.0
C734 C 0.81647 0.68409 0.031 0.0
O735 O 0.78644 0.74375 0.07357 0.0
O736 O 0.77188 0.70327 0.08075 0.0
N737 N 0.72972 0.65424 0.97217 0.0
C738 C 0.71872 0.66924 0.95561 0.0
C739 C 0.69289 0.65966 0.94205 0.0
C740 C 0.67866 0.63477 0.94562 0.0
C741 C 0.6904 0.61967 0.96273 0.0
C742 C 0.71627 0.63016 0.97556 0.0
H743 H 0.72951 0.68843 0.95287 0.0
O744 O 0.73394 0.71132 0.039 0.0
O745 O 0.75244 0.67997 0.02345 0.0
O746 O 0.77754 0.72961 1.00685 0.0
O747 O 0.77559 0.69429 0.97606 0.0
C748 C 0.67722 0.59488 0.96804 0.0
C749 C 0.68992 0.58121 0.98629 0.0
H750 H 0.71996 0.56163 0.02402 0.0
H751 H 0.76487 0.58446 0.04663 0.0
H752 H 0.68393 0.67148 0.92896 0.0
H753 H 0.65866 0.62757 0.93532 0.0
H754 H 0.65716 0.58634 0.95852 0.0
H755 H 0.67942 0.56238 0.99057 0.0
Mn756 Mn 0.91578 0.52565 0.81404 0.0
Mn757 Mn 0.86969 0.52941 0.85555 0.0
C758 C 0.89638 0.48867 0.83101 0.0
C759 C 0.92682 0.52035 0.77068 0.0
C760 C 0.9286 0.54939 0.87342 0.0
O761 O 0.90602 0.56042 0.80889 0.0
O762 O 0.8717 0.55847 0.83284 0.0
C763 C 0.82178 0.51767 0.8146 0.0
N764 N 0.83537 0.51207 0.83728 0.0
C765 C 0.79963 0.4763 0.84149 0.0
C766 C 0.78512 0.4819 0.81838 0.0
C767 C 0.79629 0.50262 0.80482 0.0
C768 C 0.82488 0.49208 0.85039 0.0
H769 H 0.83038 0.53341 0.80398 0.0
C770 C 0.88668 0.56927 0.8167 0.0
O771 O 0.94439 0.53223 0.79107 0.0
O772 O 0.9028 0.51202 0.7753 0.0
N773 N 0.86546 0.5021 0.87818 0.0
C774 C 0.88289 0.49783 0.89873 0.0
C775 C 0.87533 0.47689 0.91344 0.0
C776 C 0.8499 0.46066 0.90701 0.0
C777 C 0.83222 0.46555 0.88594 0.0
C778 C 0.84081 0.48681 0.87208 0.0
H779 H 0.90249 0.51018 0.90375 0.0
O780 O 0.91866 0.48983 0.82154 0.0
O781 O 0.88569 0.50893 0.82948 0.0
O782 O 0.93604 0.54124 0.85126 0.0
O783 O 0.90435 0.54724 0.87671 0.0
C784 C 0.80664 0.4498 0.87774 0.0
C785 C 0.79033 0.45521 0.85558 0.0
H786 H 0.76555 0.4702 0.81064 0.0
H787 H 0.78532 0.5069 0.78682 0.0
H788 H 0.88911 0.4732 0.92963 0.0
H789 H 0.84423 0.44437 0.91824 0.0
H790 H 0.79948 0.43319 0.88804 0.0
H791 H 0.77091 0.44264 0.84913 0.0
Mn792 Mn 0.83239 0.43485 0.5352 0.0
Mn793 Mn 0.8362 0.47625 0.4879 0.0
C794 C 0.87274 0.45319 0.52358 0.0
C795 C 0.83203 0.42737 0.5801 0.0
C796 C 0.81862 0.41699 0.47436 0.0
O797 O 0.79656 0.44484 0.53247 0.0
O798 O 0.80316 0.47545 0.50416 0.0
C799 C 0.84166 0.52651 0.52379 0.0
N800 N 0.85089 0.51161 0.5046 0.0
C801 C 0.88738 0.5473 0.50218 0.0
C802 C 0.87806 0.56313 0.52166 0.0
C803 C 0.85518 0.55264 0.53262 0.0
C804 C 0.87309 0.52139 0.4942 0.0
H805 H 0.82417 0.51849 0.53237 0.0
C806 C 0.78938 0.46279 0.52006 0.0
O807 O 0.82191 0.40873 0.56011 0.0
O808 O 0.84095 0.45061 0.57392 0.0
N809 N 0.86758 0.47928 0.47083 0.0
C810 C 0.87492 0.46094 0.45354 0.0
C811 C 0.8981 0.46794 0.44174 0.0
C812 C 0.91331 0.49377 0.44756 0.0
C813 C 0.90519 0.5124 0.4651 0.0
C814 C 0.88187 0.50431 0.47622 0.0
H815 H 0.86328 0.44108 0.44887 0.0
O816 O 0.86986 0.43201 0.5351 0.0
O817 O 0.8521 0.46325 0.51958 0.0
O818 O 0.82232 0.41162 0.49852 0.0
O819 O 0.82167 0.44039 0.46843 0.0
C820 C 0.91953 0.53858 0.47233 0.0
C821 C 0.91061 0.55602 0.49083 0.0
H822 H 0.88849 0.58326 0.52861 0.0
H823 H 0.848 0.56467 0.54785 0.0
H824 H 0.90423 0.45345 0.4282 0.0
H825 H 0.93128 0.49905 0.43857 0.0
H826 H 0.93768 0.54537 0.46415 0.0
H827 H 0.92207 0.57595 0.49663 0.0
Mn828 Mn 0.65102 0.58152 0.30454 0.0
Mn829 Mn 0.70708 0.58838 0.34824 0.0
C830 C 0.67866 0.62335 0.31897 0.0
C831 C 0.62997 0.57401 0.25832 0.0
C832 C 0.65194 0.57547 0.36566 0.0
O833 O 0.65833 0.54424 0.30171 0.0
O834 O 0.69858 0.55268 0.327 0.0
C835 C 0.7458 0.58617 0.30955 0.0
N836 N 0.73755 0.59916 0.33095 0.0
C837 C 0.77513 0.63525 0.33507 0.0
C838 C 0.78412 0.62224 0.31316 0.0
C839 C 0.76934 0.59762 0.3003 0.0
C840 C 0.75156 0.6229 0.3434 0.0
H841 H 0.73445 0.56727 0.29959 0.0
C842 C 0.67949 0.53727 0.31082 0.0
O843 O 0.61675 0.56957 0.27848 0.0
O844 O 0.65523 0.58252 0.26493 0.0
N845 N 0.7174 0.62234 0.36964 0.0
C846 C 0.70514 0.6331 0.3893 0.0
C847 C 0.71695 0.65809 0.40359 0.0
C848 C 0.74127 0.6717 0.39761 0.0
C849 C 0.75355 0.66018 0.37739 0.0
C850 C 0.74095 0.63513 0.36397 0.0
H851 H 0.68648 0.62274 0.39404 0.0
O852 O 0.65396 0.62101 0.3095 0.0
O853 O 0.68597 0.6013 0.32019 0.0
O854 O 0.63873 0.578 0.34312 0.0
O855 O 0.67701 0.5778 0.36846 0.0
C856 C 0.77756 0.67276 0.36968 0.0
C857 C 0.78829 0.66028 0.34855 0.0
H858 H 0.80219 0.63109 0.30587 0.0
H859 H 0.77607 0.58751 0.28327 0.0
H860 H 0.70731 0.66686 0.41912 0.0
H861 H 0.75021 0.69107 0.4085 0.0
H862 H 0.78774 0.69218 0.37959 0.0
H863 H 0.80647 0.67024 0.34255 0.0
Tb864 Tb 0.0916 0.07628 0.06344 0.0
C865 C 1.0072 0.98631 0.9812 0.0
N866 N 1.01517 1.0127 0.982 0.0
C867 C 1.01135 1.00737 0.93326 0.0
C868 C 1.00146 0.96926 0.9564 0.0
C869 C 1.01649 0.02346 0.95837 0.0
C870 C 1.00407 0.98011 0.93228 0.0
C871 C 0.99336 0.94955 1.00543 0.0
C872 C 1.00324 0.97663 1.00525 0.0
C873 C 0.98858 0.93226 0.98098 0.0
C874 C 0.99264 0.9421 0.95648 0.0
Tb875 Tb 0.02522 0.03716 0.02427 0.0
N876 N 1.00804 0.99403 0.02837 0.0
C877 C 0.988 0.94082 0.03007 0.0
C878 C 1.00135 0.98578 0.0522 0.0
C879 C 0.9917 0.95908 0.05349 0.0
H880 H 1.02162 0.04449 0.95873 0.0
H881 H 0.9871 0.95261 0.07255 0.0
H882 H 0.06605 0.10008 0.11686 0.0
H883 H 0.14616 0.12465 0.99025 0.0
H884 H 1.00401 0.99953 0.07047 0.0
H885 H 0.98046 0.92017 0.03112 0.0
H886 H 0.12887 0.08746 0.01364 0.0
H887 H 1.01286 1.01603 0.91469 0.0
H888 H 0.98121 0.91135 0.98071 0.0
H889 H 0.9883 0.92863 0.93767 0.0
H890 H 0.06259 0.14344 0.13858 0.0
H891 H 0.99989 0.9677 0.91279 0.0
H892 H 0.14109 0.16927 1.00709 0.0
N893 N 0.08612 0.1152 0.08523 0.0
C894 C 0.09736 0.13721 0.075 0.0
C895 C 0.07226 0.14192 0.1206 0.0
C896 C 0.09565 0.16241 0.08676 0.0
C897 C 0.0741 0.11727 0.10807 0.0
C898 C 0.08297 0.16457 0.10986 0.0
N899 N 0.11003 0.10939 0.04054 0.0
C900 C 0.12445 0.10616 0.01974 0.0
C901 C 0.11991 0.15635 0.03972 0.0
C902 C 0.1091 0.13411 0.05157 0.0
C903 C 0.13253 0.1527 0.01681 0.0
C904 C 0.13522 0.12753 1.00708 0.0
H905 H 0.08126 0.18359 0.11949 0.0
H906 H 0.10482 0.20404 0.08341 0.0
H907 H 0.1262 0.19877 0.04236 0.0
O908 O 0.13228 0.07653 0.06539 0.0
O909 O 0.05935 0.09814 0.05058 0.0
O910 O 0.04004 0.07568 1.00992 0.0
O911 O 0.11598 0.08809 0.10096 0.0
O912 O 0.09416 0.05312 0.02426 0.0
O913 O 0.05503 0.05296 0.99875 0.0
O914 O 1.00138 0.06008 0.04213 0.0
O915 O 0.04937 1.00895 0.0387 0.0
O916 O 0.08555 0.0332 0.06859 0.0
O917 O 0.98605 0.03208 1.00579 0.0
O918 O 0.02513 0.04456 0.06935 0.0
O919 O 0.06782 0.05765 0.09192 0.0
C920 C 0.04777 0.09858 0.02563 0.0
C921 C 0.14746 0.06178 0.10608 0.0
C922 C 0.17433 0.02846 0.10644 0.0
C923 C 0.16473 0.02131 0.13039 0.0
C924 C 0.13882 0.05465 0.13042 0.0
C925 C 0.14743 0.03456 0.1424 0.0
C926 C 0.16566 0.04896 0.09456 0.0
C927 C 0.08014 0.05214 1.00042 0.0
C928 C 0.13616 0.08114 0.09177 0.0
C929 C 0.10609 0.18452 0.07477 0.0
C930 C 0.11814 0.1815 0.0513 0.0
C931 C 0.07029 1.01008 0.05698 0.0
C932 C 0.97243 0.07241 1.00907 0.0
C933 C 0.94469 0.10458 1.0091 0.0
C934 C 0.95388 0.11241 0.98527 0.0
C935 C 0.981 0.08007 0.98496 0.0
C936 C 0.95464 0.08497 0.02123 0.0
C937 C 0.97193 0.10014 0.9733 0.0
C938 C 0.04229 0.04942 0.09193 0.0
C939 C 0.98211 0.05172 0.02205 0.0
H940 H 0.17031 1.00524 0.13977 0.0
H941 H 0.12494 0.06415 0.13998 0.0
H942 H 0.14026 0.0289 0.16084 0.0
H943 H 0.17294 0.05498 0.07628 0.0
H944 H 0.9463 0.12719 0.97528 0.0
H945 H 0.99475 0.07068 0.97519 0.0
H946 H 0.94811 0.07903 0.03988 0.0
H947 H 0.9786 0.10592 0.95469 0.0
Tb948 Tb 0.27155 0.79864 0.32762 0.0
C949 C 0.35091 0.77588 0.2286 0.0
N950 N 0.35734 0.78939 0.25396 0.0
C951 C 0.40075 0.7804 0.25617 0.0
C952 C 0.36943 0.76471 0.21558 0.0
C953 C 0.38181 0.79155 0.26808 0.0
C954 C 0.39474 0.76742 0.22961 0.0
C955 C 0.31668 0.75518 0.19151 0.0
C956 C 0.32504 0.77131 0.21679 0.0
C957 C 0.33534 0.74547 0.17749 0.0
C958 C 0.36172 0.7502 0.18956 0.0
Tb959 Tb 0.32612 0.80898 0.27067 0.0
N960 N 0.30762 0.78032 0.23152 0.0
C961 C 0.28969 0.74805 0.18183 0.0
C962 C 0.28108 0.77101 0.22332 0.0
C963 C 0.27177 0.75545 0.19818 0.0
H964 H 0.38686 0.8021 0.28843 0.0
H965 H 0.25073 0.74876 0.19168 0.0
H966 H 0.21042 0.79487 0.29646 0.0
H967 H 0.32723 0.86032 0.4183 0.0
H968 H 0.2667 0.77466 0.23612 0.0
H969 H 0.28243 0.73565 0.16256 0.0
H970 H 0.3216 0.83125 0.37501 0.0
H971 H 0.41996 0.78156 0.26735 0.0
H972 H 0.32937 0.73333 0.1579 0.0
H973 H 0.37575 0.74173 0.17907 0.0
H974 H 0.17208 0.81352 0.3052 0.0
H975 H 0.40947 0.75885 0.22049 0.0
H976 H 0.28919 0.87684 0.43302 0.0
N977 N 0.23486 0.81555 0.33263 0.0
C978 C 0.23607 0.83177 0.35611 0.0
C979 C 0.19001 0.81896 0.31962 0.0
C980 C 0.21427 0.84233 0.36222 0.0
C981 C 0.21204 0.80876 0.31456 0.0
C982 C 0.1911 0.83578 0.34358 0.0
N983 N 0.28033 0.8286 0.3665 0.0
C984 C 0.30454 0.83663 0.38209 0.0
C985 C 0.26193 0.85581 0.39794 0.0
C986 C 0.25946 0.83823 0.37384 0.0
C987 C 0.28645 0.86326 0.41442 0.0
C988 C 0.30793 0.85389 0.40625 0.0
H989 H 0.17394 0.84352 0.34752 0.0
H990 H 0.19977 0.86743 0.3917 0.0
H991 H 0.24159 0.87937 0.42292 0.0
O992 O 0.27086 0.7725 0.35703 0.0
O993 O 0.28764 0.84078 0.32996 0.0
O994 O 0.3071 0.82037 0.30267 0.0
O995 O 0.23792 0.76856 0.32598 0.0
O996 O 0.31274 0.79248 0.34112 0.0
O997 O 0.34503 0.80376 0.31172 0.0
O998 O 0.33031 0.84081 0.24847 0.0
O999 O 0.31615 0.76907 0.27913 0.0
O1000 O 0.27678 0.77527 0.28979 0.0
O1001 O 0.36097 0.8387 0.28011 0.0
O1002 O 0.28716 0.81898 0.25687 0.0
O1003 O 0.25555 0.80742 0.28682 0.0
C1004 C 0.3056 0.84306 0.31446 0.0
C1005 C 0.22796 0.75664 0.36846 0.0
C1006 C 0.21436 0.73585 0.40741 0.0
C1007 C 0.19208 0.7471 0.40599 0.0
C1008 C 0.2051 0.76705 0.36703 0.0
C1009 C 0.18751 0.76257 0.38586 0.0
C1010 C 0.23238 0.74092 0.38868 0.0
C1011 C 0.33763 0.79597 0.33495 0.0
C1012 C 0.24647 0.76058 0.34822 0.0
C1013 C 0.21634 0.85922 0.3866 0.0
C1014 C 0.24013 0.86595 0.40442 0.0
C1015 C 0.29351 0.75965 0.28724 0.0
C1016 C 0.37401 0.85726 0.24103 0.0
C1017 C 0.38364 0.87143 0.19767 0.0
C1018 C 0.40925 0.86699 0.20292 0.0
C1019 C 0.39994 0.85352 0.24629 0.0
C1020 C 0.36628 0.86683 0.21695 0.0
C1021 C 0.41741 0.85836 0.22727 0.0
C1022 C 0.26284 0.81652 0.26415 0.0
C1023 C 0.3545 0.85075 0.25984 0.0
H1024 H 0.17816 0.74394 0.42046 0.0
H1025 H 0.20038 0.77828 0.35121 0.0
H1026 H 0.17013 0.7709 0.38464 0.0
H1027 H 0.24947 0.73207 0.38932 0.0
H1028 H 0.42297 0.87038 0.18829 0.0
H1029 H 0.40668 0.84662 0.26489 0.0
H1030 H 0.34636 0.86989 0.21273 0.0
H1031 H 0.43725 0.85518 0.23131 0.0
Tb1032 Tb 0.52085 0.05256 0.55082 0.0
C1033 C 0.62528 0.10462 0.50161 0.0
N1034 N 0.60905 0.08049 0.49404 0.0
C1035 C 0.61421 0.0833 0.44737 0.0
C1036 C 0.63618 0.11937 0.48212 0.0
C1037 C 0.60401 0.06932 0.46748 0.0
C1038 C 0.63014 0.10855 0.45468 0.0
C1039 C 0.6493 0.13862 0.53783 0.0
C1040 C 0.63182 0.1141 0.52911 0.0
C1041 C 0.65964 0.15374 0.51844 0.0
C1042 C 0.6531 0.14415 0.49067 0.0
Tb1043 Tb 0.59264 0.06057 0.52852 0.0
N1044 N 0.62105 0.09915 0.54733 0.0
C1045 C 0.6561 0.14702 0.56576 0.0
C1046 C 0.62871 0.10661 0.57459 0.0
C1047 C 0.646 0.1308 0.58421 0.0
H1048 H 0.5925 0.04946 0.46189 0.0
H1049 H 0.65157 0.1369 0.60583 0.0
H1050 H 0.52566 0.04971 0.61797 0.0
H1051 H 0.46676 0.98434 0.46433 0.0
H1052 H 0.62114 0.09418 0.58887 0.0
H1053 H 0.66947 0.16576 0.57329 0.0
H1054 H 0.49465 0.02629 0.48757 0.0
H1055 H 0.60997 0.07451 0.42629 0.0
H1056 H 0.67298 0.17273 0.52473 0.0
H1057 H 0.66154 0.15587 0.47598 0.0
H1058 H 0.51172 1.0166 0.64758 0.0
H1059 H 0.63812 0.11926 0.43908 0.0
H1060 H 0.45071 0.94884 0.49106 0.0
N1061 N 0.50876 0.02435 0.58122 0.0
C1062 C 0.49296 1.00071 0.57001 0.0
C1063 C 0.50659 1.01177 0.62576 0.0
C1064 C 0.484 0.98138 0.58632 0.0
C1065 C 0.51497 0.03037 0.6088 0.0
C1066 C 0.49124 0.9871 0.61449 0.0
N1067 N 0.49553 1.01454 0.52673 0.0
C1068 C 0.48822 1.01096 0.49932 0.0
C1069 C 0.46964 0.97147 0.52962 0.0
C1070 C 0.48572 0.9958 0.54197 0.0
C1071 C 0.46303 0.96727 0.50134 0.0
C1072 C 0.47216 0.98721 0.48616 0.0
H1073 H 0.48475 0.97277 0.62772 0.0
H1074 H 0.46107 0.94194 0.58629 0.0
H1075 H 0.44861 0.93325 0.53668 0.0
O1076 O 0.48954 0.06695 0.53162 0.0
O1077 O 0.53625 1.01536 0.53938 0.0
O1078 O 0.56382 0.02512 0.5074 0.0
O1079 O 0.49146 0.06167 0.57352 0.0
O1080 O 0.53112 0.07256 0.51601 0.0
O1081 O 0.56016 0.05272 0.49508 0.0
O1082 O 0.61013 0.03372 0.54792 0.0
O1083 O 0.58194 0.09966 0.54203 0.0
O1084 O 0.5461 0.09252 0.56636 0.0
O1085 O 0.62635 0.04966 0.51436 0.0
O1086 O 0.58157 0.04582 0.56571 0.0
O1087 O 0.55233 0.0659 0.58497 0.0
C1088 C 0.54893 1.00739 0.51936 0.0
C1089 C 0.47543 0.09837 0.56101 0.0
C1090 C 0.44922 0.13214 0.55597 0.0
C1091 C 0.46955 0.15034 0.57331 0.0
C1092 C 0.49446 0.11679 0.57929 0.0
C1093 C 0.49169 0.1426 0.58509 0.0
C1094 C 0.45261 0.10604 0.54957 0.0
C1095 C 0.53953 0.06354 0.49393 0.0
C1096 C 0.47969 0.07138 0.55403 0.0
C1097 C 0.46804 0.95705 0.57407 0.0
C1098 C 0.4609 0.95211 0.54582 0.0
C1099 C 0.56579 0.1087 0.55784 0.0
C1100 C 0.65529 0.03463 0.5466 0.0
C1101 C 0.69221 1.01267 0.55457 0.0
C1102 C 0.70287 0.03167 0.5773 0.0
C1103 C 0.66655 0.05343 0.56923 0.0
C1104 C 0.66842 1.01443 0.53908 0.0
C1105 C 0.69024 0.052 0.58437 0.0
C1106 C 0.57494 0.05859 0.58681 0.0
C1107 C 0.62865 0.0341 0.53254 0.0
H1108 H 0.46849 0.17072 0.57792 0.0
H1109 H 0.51146 0.11115 0.58923 0.0
H1110 H 0.50673 0.15671 0.59892 0.0
H1111 H 0.43748 0.09154 0.53622 0.0
H1112 H 0.72123 0.03098 0.58941 0.0
H1113 H 0.65671 0.06881 0.57562 0.0
H1114 H 0.65974 0.99967 0.52176 0.0
H1115 H 0.69865 0.06651 0.60193 0.0
Tb1116 Tb 0.34564 0.28205 0.79637 0.0
C1117 C 0.25385 0.3324 0.74338 0.0
N1118 N 0.27045 0.3431 0.76671 0.0
C1119 C 0.27284 0.38621 0.75406 0.0
C1120 C 0.24647 0.34833 0.72426 0.0
C1121 C 0.27965 0.3697 0.77254 0.0
C1122 C 0.25636 0.3755 0.72979 0.0
C1123 C 0.22647 0.29366 0.71491 0.0
C1124 C 0.24393 0.30532 0.73868 0.0
C1125 C 0.21938 0.30949 0.69571 0.0
C1126 C 0.22936 0.33673 0.70036 0.0
Tb1127 Tb 0.27985 0.31343 0.79422 0.0
N1128 N 0.25175 0.29037 0.75731 0.0
C1129 C 0.21652 0.26644 0.71125 0.0
C1130 C 0.241 0.26407 0.75453 0.0
C1131 C 0.22358 0.25164 0.7313 0.0
H1132 H 0.2919 0.37831 0.79155 0.0
H1133 H 0.21551 0.23068 0.72895 0.0
H1134 H 0.32858 0.21831 0.77124 0.0
H1135 H 0.42355 0.3273 0.87836 0.0
H1136 H 0.24578 0.25263 0.77003 0.0
H1137 H 0.20304 0.25673 0.69325 0.0
H1138 H 0.39739 0.32314 0.83289 0.0
H1139 H 0.28005 0.40723 0.7585 0.0
H1140 H 0.20607 0.30087 0.67726 0.0
H1141 H 0.22357 0.3487 0.68542 0.0
H1142 H 0.32706 0.17591 0.78904 0.0
H1143 H 0.25114 0.38843 0.71562 0.0
H1144 H 0.41582 0.29043 0.90552 0.0
N1145 N 0.34545 0.24145 0.80922 0.0
C1146 C 0.35639 0.24151 0.83514 0.0
C1147 C 0.33519 0.19423 0.80228 0.0
C1148 C 0.35642 0.21785 0.84602 0.0
C1149 C 0.33604 0.21823 0.7923 0.0
C1150 C 0.34513 0.19404 0.82937 0.0
N1151 N 0.37254 0.28686 0.83672 0.0
C1152 C 0.393 0.30798 0.84549 0.0
C1153 C 0.38563 0.2658 0.87484 0.0
C1154 C 0.37054 0.26516 0.84947 0.0
C1155 C 0.40375 0.28909 0.88611 0.0
C1156 C 0.40817 0.30995 0.87085 0.0
H1157 H 0.3449 0.17544 0.83693 0.0
H1158 H 0.36897 0.20076 0.88144 0.0
H1159 H 0.3948 0.24283 0.90665 0.0
O1160 O 0.37284 0.30262 0.77369 0.0
O1161 O 0.34092 0.30484 0.83561 0.0
O1162 O 0.30711 0.32871 0.83218 0.0
O1163 O 0.37506 0.26411 0.78184 0.0
O1164 O 0.34098 0.31858 0.77993 0.0
O1165 O 0.31634 0.34433 0.80024 0.0
O1166 O 0.25033 0.29579 0.81547 0.0
O1167 O 0.29244 0.29807 0.75472 0.0
O1168 O 0.31475 0.2649 0.76216 0.0
O1169 O 0.25311 0.33582 0.80844 0.0
O1170 O 0.28785 0.28188 0.81672 0.0
O1171 O 0.30678 0.25424 0.79222 0.0
C1172 C 0.32683 0.32111 0.84605 0.0
C1173 C 0.38848 0.2761 0.74053 0.0
C1174 C 0.41689 0.27738 0.70429 0.0
C1175 C 0.39525 0.26153 0.68645 0.0
C1176 C 0.36748 0.26042 0.72213 0.0
C1177 C 0.37085 0.25329 0.69529 0.0
C1178 C 0.41322 0.28456 0.73157 0.0
C1179 C 0.33911 0.34131 0.79274 0.0
C1180 C 0.38457 0.28331 0.76906 0.0
C1181 C 0.36912 0.21869 0.87252 0.0
C1182 C 0.38376 0.24267 0.88692 0.0
C1183 C 0.30184 0.27742 0.7457 0.0
C1184 C 0.21119 0.31121 0.81687 0.0
C1185 C 0.17101 0.30575 0.83898 0.0
C1186 C 0.15611 0.29414 0.81387 0.0
C1187 C 0.19572 0.29989 0.79202 0.0
C1188 C 0.19866 0.31446 0.84033 0.0
C1189 C 0.16836 0.29147 0.79057 0.0
C1190 C 0.28777 0.25806 0.80624 0.0
C1191 C 0.24041 0.31648 0.81944 0.0
H1192 H 0.39724 0.25498 0.66563 0.0
H1193 H 0.34854 0.25344 0.72864 0.0
H1194 H 0.3545 0.24106 0.6813 0.0
H1195 H 0.42942 0.29681 0.74576 0.0
H1196 H 0.13485 0.28751 0.81221 0.0
H1197 H 0.20478 0.29704 0.77385 0.0
H1198 H 0.21043 0.32306 0.85969 0.0
H1199 H 0.15661 0.2826 0.77131 0.0
Tb1200 Tb 0.07087 1.01538 0.54251 0.0
C1201 C 1.0194 0.10661 0.59851 0.0
N1202 N 1.00935 0.09078 0.57471 0.0
C1203 C 0.96524 0.09052 0.58424 0.0
C1204 C 1.00266 0.11473 0.6164 0.0
C1205 C 0.98263 0.08289 0.56718 0.0
C1206 C 0.97528 0.10636 0.60904 0.0
C1207 C 0.05783 0.13163 0.6292 0.0
C1208 C 0.04663 0.11497 0.60483 0.0
C1209 C 0.04125 0.13946 0.64729 0.0
C1210 C 1.01374 0.13104 0.6409 0.0
Tb1211 Tb 0.03981 0.0795 0.54903 0.0
N1212 N 0.06214 0.10649 0.58715 0.0
C1213 C 0.08536 0.14007 0.63454 0.0
C1214 C 0.08888 0.11581 0.59158 0.0
C1215 C 0.10092 0.13234 0.6155 0.0
H1216 H 0.97476 0.07069 0.54794 0.0
H1217 H 0.12218 0.13918 0.61919 0.0
H1218 H 0.13482 0.03188 0.53529 0.0
H1219 H 0.98681 0.95174 0.47762 0.0
H1220 H 0.10105 0.11029 0.57702 0.0
H1221 H 0.09475 0.15286 0.65305 0.0
H1222 H 1.00902 0.98401 0.51692 0.0
H1223 H 0.9441 0.08418 0.57832 0.0
H1224 H 0.04949 0.15218 0.66618 0.0
H1225 H 1.00119 0.13741 0.65497 0.0
H1226 H 0.16329 0.02006 0.50193 0.0
H1227 H 0.96175 0.1122 0.62222 0.0
H1228 H 1.01271 0.93726 0.44263 0.0
N1229 N 0.09948 1.0078 0.5126 0.0
C1230 C 0.08878 0.99013 0.49012 0.0
C1231 C 0.14231 1.01199 0.49819 0.0
C1232 C 0.10446 0.98306 0.47053 0.0
C1233 C 0.12598 0.01873 0.51692 0.0
C1234 C 0.13152 0.99428 0.47482 0.0
N1235 N 0.04736 0.98705 0.5056 0.0
C1236 C 1.02072 0.97711 0.50266 0.0
C1237 C 0.04995 0.96115 0.46337 0.0
C1238 C 0.06192 0.97915 0.48665 0.0
C1239 C 0.02266 0.95107 0.46027 0.0
C1240 C 1.00799 0.95914 0.48 0.0
H1241 H 0.1443 0.9892 0.46038 0.0
H1242 H 0.10446 0.9593 0.43218 0.0
H1243 H 0.05668 0.94023 0.42583 0.0
O1244 O 0.05892 0.98398 0.56597 0.0
O1245 O 0.05297 0.02748 0.50376 0.0
O1246 O 1.02027 0.04875 0.5157 0.0
O1247 O 0.09803 0.99284 0.55402 0.0
O1248 O 0.03415 1.01208 0.56105 0.0
O1249 O 1.01008 0.04274 0.54778 0.0
O1250 O 0.05757 0.11121 0.53002 0.0
O1251 O 0.05311 0.06561 0.58728 0.0
O1252 O 0.08679 0.0447 0.57889 0.0
O1253 O 1.01602 0.1035 0.53272 0.0
O1254 O 0.07302 0.07535 0.5267 0.0
O1255 O 0.10018 0.05346 0.54871 0.0
C1256 C 0.0314 0.03662 0.49721 0.0
C1257 C 0.09057 0.95653 0.58087 0.0
C1258 C 0.08462 0.92067 0.60955 0.0
C1259 C 0.11087 0.91883 0.60793 0.0
C1260 C 0.11668 0.95359 0.57983 0.0
C1261 C 0.12662 0.93501 0.59316 0.0
C1262 C 0.07428 0.93963 0.59577 0.0
C1263 C 1.01229 0.02115 0.55863 0.0
C1264 C 0.08203 0.97804 0.56693 0.0
C1265 C 0.0927 0.96495 0.44743 0.0
C1266 C 0.06551 0.95405 0.44384 0.0
C1267 C 0.07297 0.05519 0.59588 0.0
C1268 C 0.02972 0.12224 0.49438 0.0
C1269 C 0.03217 0.15236 0.45988 0.0
C1270 C 1.0167 0.13151 0.44084 0.0
C1271 C 1.01454 0.102 0.47485 0.0
C1272 C 0.03883 0.14725 0.48675 0.0
C1273 C 1.00827 0.10658 0.44824 0.0
C1274 C 0.0969 0.0739 0.53659 0.0
C1275 C 0.03524 0.11774 0.52294 0.0
H1276 H 0.11921 0.90455 0.61807 0.0
H1277 H 0.12977 0.9659 0.56877 0.0
H1278 H 0.1468 0.93319 0.59211 0.0
H1279 H 0.05409 0.9414 0.59692 0.0
H1280 H 1.01039 0.13446 0.42028 0.0
H1281 H 1.00711 0.08281 0.48035 0.0
H1282 H 0.05091 0.16264 0.5019 0.0
H1283 H 0.99631 0.09085 0.43339 0.0
Tb1284 Tb 0.31045 0.84072 0.78694 0.0
C1285 C 0.28477 0.74802 0.86627 0.0
N1286 N 0.30775 0.75908 0.85782 0.0
C1287 C 0.33107 0.76098 0.90244 0.0
C1288 C 0.28379 0.7443 0.89367 0.0
C1289 C 0.33107 0.76403 0.87501 0.0
C1290 C 0.30723 0.75164 0.91195 0.0
C1291 C 0.23934 0.72387 0.85449 0.0
C1292 C 0.26282 0.73799 0.84689 0.0
C1293 C 0.23762 0.72194 0.88205 0.0
C1294 C 0.25982 0.73213 0.90162 0.0
Tb1295 Tb 0.30454 0.76581 0.81339 0.0
N1296 N 0.26544 0.73961 0.82035 0.0
C1297 C 0.21883 0.71086 0.83408 0.0
C1298 C 0.24653 0.72453 0.8004 0.0
C1299 C 0.22271 0.71067 0.80692 0.0
H1300 H 0.34962 0.7712 0.86787 0.0
H1301 H 0.20739 0.69976 0.79097 0.0
H1302 H 0.30234 0.84473 0.71982 0.0
H1303 H 0.38584 0.89422 0.8683 0.0
H1304 H 0.24912 0.72406 0.77933 0.0
H1305 H 0.20047 0.69985 0.83907 0.0
H1306 H 0.34257 0.86599 0.84888 0.0
H1307 H 0.34944 0.76579 0.91619 0.0
H1308 H 0.2196 0.71153 0.8883 0.0
H1309 H 0.25857 0.72945 0.92264 0.0
H1310 H 0.32971 0.86405 0.687 0.0
H1311 H 0.3073 0.74909 0.93316 0.0
H1312 H 0.4169 0.91264 0.83787 0.0
N1313 N 0.33278 0.8576 0.75373 0.0
C1314 C 0.3572 0.87299 0.76297 0.0
C1315 C 0.3378 0.86643 0.70824 0.0
C1316 C 0.3733 0.88478 0.74486 0.0
C1317 C 0.32246 0.85528 0.72692 0.0
C1318 C 0.36347 0.8809 0.71717 0.0
N1319 N 0.34929 0.86737 0.80795 0.0
C1320 C 0.35592 0.87367 0.83546 0.0
C1321 C 0.39045 0.89476 0.80108 0.0
C1322 C 0.36559 0.87825 0.79085 0.0
C1323 C 0.39791 0.90014 0.82925 0.0
C1324 C 0.38044 0.88978 0.84649 0.0
H1325 H 0.37522 0.88967 0.70266 0.0
H1326 H 0.411 0.90978 0.74133 0.0
H1327 H 0.42598 0.91846 0.79048 0.0
O1328 O 0.30285 0.87453 0.80893 0.0
O1329 O 0.34884 0.82734 0.79966 0.0
O1330 O 0.34353 0.79381 0.82779 0.0
O1331 O 0.28707 0.86252 0.76659 0.0
O1332 O 0.29302 0.82418 0.82104 0.0
O1333 O 0.3133 0.79872 0.84594 0.0
O1334 O 0.33023 0.75387 0.78735 0.0
O1335 O 0.26447 0.77348 0.79432 0.0
O1336 O 0.26887 0.81527 0.77892 0.0
O1337 O 0.31071 0.72681 0.81071 0.0
O1338 O 0.30509 0.79027 0.78319 0.0
O1339 O 0.30799 0.81254 0.75053 0.0
C1340 C 0.35873 0.81245 0.8167 0.0
C1341 C 0.29125 0.90719 0.78337 0.0
C1342 C 0.27232 0.94603 0.78629 0.0
C1343 C 0.29016 0.9574 0.76966 0.0
C1344 C 0.30922 0.91885 0.76705 0.0
C1345 C 0.30871 0.94395 0.76036 0.0
C1346 C 0.27318 0.92104 0.79332 0.0
C1347 C 0.3057 0.82089 0.84408 0.0
C1348 C 0.28866 0.87969 0.78792 0.0
C1349 C 0.39832 0.90072 0.75497 0.0
C1350 C 0.40686 0.90568 0.78298 0.0
C1351 C 0.254 0.79218 0.78295 0.0
C1352 C 0.35455 0.72423 0.80374 0.0
C1353 C 0.38466 0.69359 0.80294 0.0
C1354 C 0.40423 0.71317 0.81956 0.0
C1355 C 0.37463 0.74308 0.82044 0.0
C1356 C 0.35969 0.69941 0.79498 0.0
C1357 C 0.39922 0.73765 0.82812 0.0
C1358 C 0.30657 0.78949 0.75741 0.0
C1359 C 0.32878 0.73094 0.79498 0.0
H1360 H 0.28989 0.97675 0.76413 0.0
H1361 H 0.32316 0.90845 0.759 0.0
H1362 H 0.32247 0.95283 0.74762 0.0
H1363 H 0.2591 0.91197 0.80575 0.0
H1364 H 0.42329 0.7094 0.82669 0.0
H1365 H 0.3715 0.76216 0.82759 0.0
H1366 H 0.34435 0.68481 0.78197 0.0
H1367 H 0.41443 0.75246 0.84103 0.0
Tb1368 Tb 0.54763 0.08415 1.00353 0.0
C1369 C 0.55507 0.98549 0.08579 0.0
N1370 N 0.54138 0.98768 0.06179 0.0
C1371 C 0.54084 0.94261 0.04563 0.0
C1372 C 0.56302 0.96202 0.0904 0.0
C1373 C 0.53332 0.96628 0.04212 0.0
C1374 C 0.55607 0.94056 0.06974 0.0
C1375 C 0.57316 1.00483 0.13198 0.0
C1376 C 0.55989 1.00643 0.10626 0.0
C1377 C 0.58204 0.98189 0.13644 0.0
C1378 C 0.57695 0.9605 0.11569 0.0
Tb1379 Tb 0.53011 0.02732 0.0581 0.0
N1380 N 0.55075 0.02809 0.1012 0.0
C1381 C 0.5766 0.02609 0.15255 0.0
C1382 C 0.55322 0.04853 0.12155 0.0
C1383 C 0.56639 0.04795 0.14736 0.0
H1384 H 0.52118 0.96743 0.02348 0.0
H1385 H 0.56857 0.06434 0.16325 0.0
H1386 H 0.53744 0.14192 0.02832 0.0
H1387 H 0.49293 1.0147 0.91677 0.0
H1388 H 0.54539 0.06553 0.11807 0.0
H1389 H 0.58668 0.02565 0.17259 0.0
H1390 H 0.51879 0.02696 0.96169 0.0
H1391 H 0.5348 0.92595 0.02974 0.0
H1392 H 0.5924 0.98032 0.15601 0.0
H1393 H 0.5834 0.94271 0.11957 0.0
H1394 H 0.5157 0.17585 0.01192 0.0
H1395 H 0.56177 0.92216 0.07247 0.0
H1396 H 0.47595 0.04818 0.89328 0.0
N1397 N 0.52556 0.1154 0.99161 0.0
C1398 C 0.51206 0.11086 0.96617 0.0
C1399 C 0.51449 0.15765 0.99882 0.0
C1400 C 0.49945 0.12977 0.95581 0.0
C1401 C 0.52658 0.13821 1.00818 0.0
C1402 C 0.50112 0.15354 0.97239 0.0
N1403 N 0.51986 0.06807 0.96332 0.0
C1404 C 0.51319 0.04235 0.95154 0.0
C1405 C 0.49321 0.07986 0.92585 0.0
C1406 C 0.50917 0.08632 0.9514 0.0
C1407 C 0.48818 0.05398 0.91287 0.0
C1408 C 0.49777 0.03506 0.92604 0.0
H1409 H 0.49171 0.16859 0.96519 0.0
H1410 H 0.47528 0.13835 0.92124 0.0
H1411 H 0.4697 0.09453 0.895 0.0
O1412 O 0.57875 0.08873 0.97972 0.0
O1413 O 0.50559 0.07448 1.00635 0.0
O1414 O 0.51699 0.03969 0.02019 0.0
O1415 O 0.57512 0.12014 1.00928 0.0
O1416 O 0.55807 0.04513 0.99136 0.0
O1417 O 0.54612 1.01264 0.02024 0.0
O1418 O 0.49816 0.027 0.08058 0.0
O1419 O 0.57194 0.04691 0.07069 0.0
O1420 O 0.56017 0.06507 0.0366 0.0
O1421 O 0.49531 0.99858 0.0455 0.0
O1422 O 0.52685 0.0691 0.07341 0.0
O1423 O 0.54411 0.1007 0.0457 0.0
C1424 C 0.49878 0.05313 0.01697 0.0
C1425 C 0.59291 0.13204 0.96993 0.0
C1426 C 0.61591 0.14533 0.93222 0.0
C1427 C 0.60486 0.16767 0.93285 0.0
C1428 C 0.58236 0.15471 0.9705 0.0
C1429 C 0.58817 0.17227 0.95191 0.0
C1430 C 0.6097 0.12754 0.95078 0.0
C1431 C 0.55596 0.02063 0.99802 0.0
C1432 C 0.58758 0.11336 0.98963 0.0
C1433 C 0.4849 0.12399 0.92968 0.0
C1434 C 0.48177 0.09906 0.91473 0.0
C1435 C 0.5792 0.06488 0.05566 0.0
C1436 C 0.4723 0.98413 0.08096 0.0
C1437 C 0.45054 0.97056 0.11936 0.0
C1438 C 0.44821 0.94409 0.10876 0.0
C1439 C 0.46968 0.95751 0.07058 0.0
C1440 C 0.46239 0.99043 0.10516 0.0
C1441 C 0.45773 0.93767 0.08448 0.0
C1442 C 0.53471 0.09405 0.06844 0.0
C1443 C 0.4842 1.00542 0.06623 0.0
H1444 H 0.60904 0.18154 0.91856 0.0
H1445 H 0.56986 0.15912 0.9854 0.0
H1446 H 0.57986 0.1896 0.95239 0.0
H1447 H 0.61836 0.11042 0.95072 0.0
H1448 H 0.43936 0.92839 0.11942 0.0
H1449 H 0.4767 0.95194 0.05169 0.0
H1450 H 0.46368 1.0109 0.11282 0.0
H1451 H 0.45589 0.91725 0.07643 0.0
Tb1452 Tb 0.27837 0.26621 0.27384 0.0
C1453 C 0.36974 0.37143 0.3139 0.0
N1454 N 0.35789 0.35041 0.32492 0.0
C1455 C 0.39934 0.34975 0.35078 0.0
C1456 C 0.3971 0.38204 0.32017 0.0
C1457 C 0.37203 0.34016 0.34411 0.0
C1458 C 0.41202 0.37054 0.33846 0.0
C1459 C 0.36481 0.40651 0.2875 0.0
C1460 C 0.35392 0.38337 0.2978 0.0
C1461 C 0.39228 0.41649 0.29243 0.0
C1462 C 0.40843 0.40424 0.30874 0.0
Tb1463 Tb 0.31366 0.33471 0.3107 0.0
N1464 N 0.32752 0.37339 0.29411 0.0
C1465 C 0.34765 0.41941 0.27352 0.0
C1466 C 0.31057 0.38674 0.28191 0.0
C1467 C 0.32037 0.40971 0.27112 0.0
H1468 H 0.36243 0.32417 0.35382 0.0
H1469 H 0.30687 0.41989 0.26097 0.0
H1470 H 0.28295 0.26737 0.20668 0.0
H1471 H 0.18856 0.22658 0.31262 0.0
H1472 H 0.28944 0.37932 0.27997 0.0
H1473 H 0.35519 0.43727 0.26529 0.0
H1474 H 0.2364 0.2333 0.30904 0.0
H1475 H 0.41057 0.34116 0.36548 0.0
H1476 H 0.40111 0.43409 0.28445 0.0
H1477 H 0.42947 0.41256 0.31306 0.0
H1478 H 0.25685 0.27878 0.16743 0.0
H1479 H 0.43313 0.37806 0.34381 0.0
H1480 H 0.15911 0.24341 0.27981 0.0
N1481 N 0.25467 0.27153 0.23355 0.0
C1482 C 0.22876 0.2714 0.23445 0.0
C1483 C 0.24885 0.27744 0.1864 0.0
C1484 C 0.21244 0.27663 0.21221 0.0
C1485 C 0.26388 0.27156 0.20896 0.0
C1486 C 0.22327 0.28094 0.18834 0.0
N1487 N 0.2339 0.25433 0.27523 0.0
C1488 C 0.22357 0.24048 0.29459 0.0
C1489 C 0.1905 0.25864 0.25713 0.0
C1490 C 0.21783 0.26212 0.25614 0.0
C1491 C 0.18002 0.24639 0.27822 0.0
C1492 C 0.19656 0.23676 0.2967 0.0
H1493 H 0.21146 0.285 0.17073 0.0
H1494 H 0.17271 0.27984 0.19724 0.0
H1495 H 0.1535 0.26436 0.23694 0.0
O1496 O 0.29187 0.23387 0.28696 0.0
O1497 O 0.25592 0.28895 0.30087 0.0
O1498 O 0.2715 0.33008 0.29235 0.0
O1499 O 0.26527 0.22918 0.24996 0.0
O1500 O 0.27974 0.26983 0.31803 0.0
O1501 O 0.31809 0.30034 0.33252 0.0
O1502 O 0.31603 0.36845 0.33879 0.0
O1503 O 0.34442 0.31404 0.29559 0.0
O1504 O 0.32307 0.27258 0.27306 0.0
O1505 O 0.29256 0.33101 0.34407 0.0
O1506 O 0.29814 0.33363 0.26748 0.0
O1507 O 0.30204 0.29293 0.25004 0.0
C1508 C 0.25185 0.31289 0.29915 0.0
C1509 C 0.30015 0.20699 0.24984 0.0
C1510 C 0.32865 0.17546 0.24617 0.0
C1511 C 0.33995 0.18834 0.22564 0.0
C1512 C 0.3117 0.21941 0.22928 0.0
C1513 C 0.33132 0.20998 0.21715 0.0
C1514 C 0.30844 0.18489 0.258 0.0
C1515 C 0.29937 0.28075 0.33719 0.0
C1516 C 0.2814 0.21859 0.26449 0.0
C1517 C 0.18549 0.27536 0.21387 0.0
C1518 C 0.17452 0.26642 0.23641 0.0
C1519 C 0.34537 0.29092 0.28188 0.0
C1520 C 0.275 0.36795 0.35556 0.0
C1521 C 0.24595 0.39737 0.343 0.0
C1522 C 0.22948 0.38764 0.36172 0.0
C1523 C 0.25818 0.35861 0.37398 0.0
C1524 C 0.2687 0.38722 0.34004 0.0
C1525 C 0.23554 0.36836 0.37695 0.0
C1526 C 0.30328 0.31785 0.2475 0.0
C1527 C 0.29808 0.35624 0.35183 0.0
H1528 H 0.35595 0.18216 0.21653 0.0
H1529 H 0.30603 0.23681 0.22305 0.0
H1530 H 0.34038 0.2199 0.20159 0.0
H1531 H 0.29929 0.17534 0.27374 0.0
H1532 H 0.21208 0.39516 0.365 0.0
H1533 H 0.26243 0.34354 0.38588 0.0
H1534 H 0.28129 0.39405 0.3254 0.0
H1535 H 0.22265 0.36098 0.39118 0.0
Tb1536 Tb 0.57702 0.51364 0.04154 0.0
C1537 C 0.5312 0.60891 0.1002 0.0
N1538 N 0.52127 0.59437 0.07567 0.0
C1539 C 0.47723 0.59674 0.0835 0.0
C1540 C 0.51438 0.61771 0.1176 0.0
C1541 C 0.4947 0.58848 0.06691 0.0
C1542 C 0.48709 0.6113 0.10901 0.0
C1543 C 0.56949 0.63072 0.13288 0.0
C1544 C 0.5584 0.61533 0.10777 0.0
C1545 C 0.55279 0.63918 0.15048 0.0
C1546 C 0.52531 0.6327 0.14286 0.0
Tb1547 Tb 0.5518 0.58133 0.05127 0.0
N1548 N 0.57397 0.6064 0.09047 0.0
C1549 C 0.59704 0.63732 0.13941 0.0
C1550 C 0.60086 0.61389 0.09611 0.0
C1551 C 0.61279 0.6291 0.12082 0.0
H1552 H 0.48697 0.57721 0.04716 0.0
H1553 H 0.63411 0.63444 0.1255 0.0
H1554 H 0.64162 0.5234 0.05982 0.0
H1555 H 0.51316 0.4519 0.95578 0.0
H1556 H 0.61311 0.60764 0.08195 0.0
H1557 H 0.60634 0.64906 0.15855 0.0
H1558 H 0.52344 0.47763 1.00156 0.0
H1559 H 0.45619 0.59186 0.07661 0.0
H1560 H 0.56093 0.65092 0.16994 0.0
H1561 H 0.5127 0.63954 0.15657 0.0
H1562 H 0.68075 0.51874 0.03746 0.0
H1563 H 0.4735 0.61767 0.1218 0.0
H1564 H 0.54921 0.44752 0.92851 0.0
N1565 N 0.61421 0.50729 0.0243 0.0
C1566 C 0.61053 0.49496 0.99843 0.0
C1567 C 0.66111 0.5121 0.02619 0.0
C1568 C 0.63212 0.49127 0.98503 0.0
C1569 C 0.63897 0.51491 0.03871 0.0
C1570 C 0.65769 0.50053 0.9991 0.0
N1571 N 0.56484 0.48786 1.00019 0.0
C1572 C 0.53934 0.47544 0.99006 0.0
C1573 C 0.58002 0.47025 0.95976 0.0
C1574 C 0.58492 0.48465 0.986 0.0
C1575 C 0.55383 0.4587 0.94866 0.0
C1576 C 0.53344 0.46105 0.96403 0.0
H1577 H 0.67485 0.49821 0.9895 0.0
H1578 H 0.64374 0.47502 0.94764 0.0
H1579 H 0.59807 0.45656 0.9255 0.0
O1580 O 0.56326 0.49542 0.07423 0.0
O1581 O 0.55979 0.52716 1.00368 0.0
O1582 O 0.53096 0.55359 0.01583 0.0
O1583 O 0.58951 0.47924 0.05071 0.0
O1584 O 0.53514 0.50859 0.04608 0.0
O1585 O 0.52012 0.54757 0.05501 0.0
O1586 O 0.57205 0.61688 0.0406 0.0
O1587 O 0.56383 0.56493 0.08881 0.0
O1588 O 0.59549 0.54274 0.07705 0.0
O1589 O 0.52999 0.60446 0.03007 0.0
O1590 O 0.58405 0.57567 0.02798 0.0
O1591 O 0.60754 0.55031 0.04941 0.0
C1592 C 0.53953 0.53832 0.99769 0.0
C1593 C 0.55967 0.44956 0.07162 0.0
C1594 C 0.54815 0.41106 0.09548 0.0
C1595 C 0.5267 0.40074 0.07491 0.0
C1596 C 0.53834 0.43842 0.05131 0.0
C1597 C 0.52201 0.41421 0.05295 0.0
C1598 C 0.56481 0.43559 0.09364 0.0
C1599 C 0.51727 0.52168 0.05309 0.0
C1600 C 0.57551 0.47626 0.07059 0.0
C1601 C 0.62742 0.47789 0.9584 0.0
C1602 C 0.60141 0.46736 0.9458 0.0
C1603 C 0.58333 0.55332 0.09564 0.0
C1604 C 0.55391 0.62708 0.99895 0.0
C1605 C 0.55881 0.65777 0.96504 0.0
C1606 C 0.56219 0.63706 0.94618 0.0
C1607 C 0.55718 0.60703 0.97949 0.0
C1608 C 0.55472 0.6525 0.99167 0.0
C1609 C 0.56121 0.61197 0.95334 0.0
C1610 C 0.60684 0.57154 0.03791 0.0
C1611 C 0.55105 0.62151 0.02703 0.0
H1612 H 0.51371 0.38193 0.07561 0.0
H1613 H 0.53416 0.4486 0.03429 0.0
H1614 H 0.50556 0.40585 0.03715 0.0
H1615 H 0.58126 0.44399 0.10947 0.0
H1616 H 0.56617 0.64028 0.9259 0.0
H1617 H 0.55708 0.58758 0.98463 0.0
H1618 H 0.55213 0.668 1.00668 0.0
H1619 H 0.56394 0.59633 0.93862 0.0
Tb1620 Tb 0.80982 0.33417 0.27168 0.0
C1621 C 0.7602 0.24578 0.33899 0.0
N1622 N 0.78453 0.26211 0.34449 0.0
C1623 C 0.78095 0.26636 0.39212 0.0
C1624 C 0.74491 0.23967 0.35986 0.0
C1625 C 0.79544 0.27164 0.37072 0.0
C1626 C 0.75545 0.25054 0.38666 0.0
C1627 C 0.72604 0.2171 0.30575 0.0
C1628 C 0.75089 0.23455 0.31236 0.0
C1629 C 0.71045 0.21138 0.32639 0.0
C1630 C 0.71986 0.22265 0.35338 0.0
Tb1631 Tb 0.80572 0.26984 0.30769 0.0
N1632 N 0.76616 0.24121 0.29279 0.0
C1633 C 0.71774 0.20581 0.27865 0.0
C1634 C 0.7589 0.22909 0.26662 0.0
C1635 C 0.73439 0.21159 0.25907 0.0
H1636 H 0.8156 0.2827 0.37521 0.0
H1637 H 0.72838 0.20253 0.23818 0.0
H1638 H 0.80351 0.32249 0.20423 0.0
H1639 H 0.88563 0.39813 0.34599 0.0
H1640 H 0.77176 0.23327 0.25154 0.0
H1641 H 0.69875 0.19229 0.27272 0.0
H1642 H 0.84216 0.36855 0.33005 0.0
H1643 H 0.78959 0.2742 0.41284 0.0
H1644 H 0.69121 0.1981 0.32173 0.0
H1645 H 0.70776 0.21782 0.36912 0.0
H1646 H 0.83163 0.33213 0.16846 0.0
H1647 H 0.74433 0.24634 0.40329 0.0
H1648 H 0.91698 0.40959 0.31331 0.0
N1649 N 0.83299 0.343 0.23647 0.0
C1650 C 0.85726 0.35931 0.24344 0.0
C1651 C 0.8392 0.33965 0.18951 0.0
C1652 C 0.87382 0.36583 0.22369 0.0
C1653 C 0.82348 0.33377 0.20986 0.0
C1654 C 0.86458 0.35555 0.19647 0.0
N1655 N 0.84919 0.36225 0.28909 0.0
C1656 C 0.85571 0.37308 0.31572 0.0
C1657 C 0.8905 0.38653 0.27867 0.0
C1658 C 0.86548 0.36965 0.27054 0.0
C1659 C 0.89791 0.39656 0.30621 0.0
C1660 C 0.8803 0.39005 0.32474 0.0
H1661 H 0.87669 0.3601 0.18066 0.0
H1662 H 0.912 0.38759 0.21683 0.0
H1663 H 0.92662 0.40563 0.26496 0.0
O1664 O 0.7964 0.36651 0.28932 0.0
O1665 O 0.84852 0.32204 0.28342 0.0
O1666 O 0.84443 0.29891 0.32007 0.0
O1667 O 0.79469 0.35853 0.24607 0.0
O1668 O 0.79328 0.32906 0.30949 0.0
O1669 O 0.81704 0.30666 0.33525 0.0
O1670 O 0.81923 0.2377 0.28975 0.0
O1671 O 0.76585 0.27991 0.29328 0.0
O1672 O 0.7712 0.30577 0.25861 0.0
O1673 O 0.82228 0.24583 0.33291 0.0
O1674 O 0.82103 0.27393 0.26914 0.0
O1675 O 0.79838 0.29758 0.24356 0.0
C1676 C 0.85944 0.31274 0.30459 0.0
C1677 C 0.76034 0.37638 0.26277 0.0
C1678 C 0.72832 0.40384 0.27125 0.0
C1679 C 0.70784 0.38253 0.2589 0.0
C1680 C 0.7395 0.35577 0.25008 0.0
C1681 C 0.71346 0.35881 0.24832 0.0
C1682 C 0.75468 0.40042 0.27315 0.0
C1683 C 0.80577 0.32659 0.33285 0.0
C1684 C 0.78787 0.37271 0.26598 0.0
C1685 C 0.89892 0.38247 0.2317 0.0
C1686 C 0.90724 0.39278 0.25912 0.0
C1687 C 0.75558 0.29059 0.27255 0.0
C1688 C 0.85639 0.22828 0.31485 0.0
C1689 C 0.88863 0.20072 0.30658 0.0
C1690 C 0.90903 0.22344 0.31435 0.0
C1691 C 0.87737 0.24997 0.32381 0.0
C1692 C 0.8621 0.20359 0.30673 0.0
C1693 C 0.90341 0.24761 0.32325 0.0
C1694 C 0.8082 0.27666 0.24605 0.0
C1695 C 0.82865 0.2316 0.31276 0.0
H1696 H 0.68735 0.38397 0.25767 0.0
H1697 H 0.74332 0.33729 0.24155 0.0
H1698 H 0.69751 0.34264 0.23881 0.0
H1699 H 0.77089 0.41644 0.28248 0.0
H1700 H 0.92951 0.22283 0.31348 0.0
H1701 H 0.87369 0.26882 0.33114 0.0
H1702 H 0.84577 0.18678 0.30084 0.0
H1703 H 0.91939 0.2647 0.32962 0.0
Tb1704 Tb 0.06 0.58113 0.51238 0.0
C1705 C 0.07085 0.48361 0.59342 0.0
N1706 N 0.05661 0.48466 0.56932 0.0
C1707 C 0.06032 0.44071 0.55346 0.0
C1708 C 0.08145 0.46156 0.59813 0.0
C1709 C 0.05011 0.463 0.54992 0.0
C1710 C 0.0765 0.44018 0.57748 0.0
C1711 C 0.08608 0.50311 0.64011 0.0
C1712 C 0.07298 0.50387 0.61408 0.0
C1713 C 0.09798 0.48193 0.6446 0.0
C1714 C 0.09564 0.46115 0.62362 0.0
Tb1715 Tb 0.04123 0.52236 0.56537 0.0
N1716 N 0.06089 0.52371 0.60897 0.0
C1717 C 0.08603 0.52321 0.66099 0.0
C1718 C 0.05934 0.54242 0.62967 0.0
C1719 C 0.07225 0.54274 0.65582 0.0
H1720 H 0.03703 0.4628 0.5315 0.0
H1721 H 0.07134 0.55792 0.67201 0.0
H1722 H 0.05699 0.64128 0.53879 0.0
H1723 H 1.00438 0.51892 0.42155 0.0
H1724 H 0.04814 0.55708 0.62612 0.0
H1725 H 0.09584 0.52336 0.68131 0.0
H1726 H 0.02892 0.52738 0.4673 0.0
H1727 H 0.05553 0.4239 0.53771 0.0
H1728 H 0.10834 0.48106 0.66439 0.0
H1729 H 0.10416 0.44451 0.62756 0.0
H1730 H 0.0402 0.67857 0.52333 0.0
H1731 H 0.08421 0.42283 0.58028 0.0
H1732 H 0.99195 0.55551 0.39971 0.0
N1733 N 0.04319 0.61608 0.50129 0.0
C1734 C 0.03032 0.61344 0.47572 0.0
C1735 C 0.03726 0.66035 0.50972 0.0
C1736 C 1.02063 0.63437 0.46593 0.0
C1737 C 0.04647 0.63902 0.5185 0.0
C1738 C 0.0245 0.65812 0.48323 0.0
N1739 N 0.03361 0.56912 0.47098 0.0
C1740 C 0.02527 0.54394 0.45782 0.0
C1741 C 1.01041 0.58499 0.43395 0.0
C1742 C 0.02547 0.58915 0.45992 0.0
C1743 C 1.00357 0.55955 0.41967 0.0
C1744 C 1.01061 0.53887 0.4319 0.0
H1745 H 1.01736 0.67467 0.47648 0.0
H1746 H 0.99945 0.64663 0.43156 0.0
H1747 H 0.99037 0.60329 0.40356 0.0
O1748 O 0.09353 0.58219 0.49251 0.0
O1749 O 1.01725 0.56904 0.51169 0.0
O1750 O 0.02979 0.53573 0.52765 0.0
O1751 O 0.08948 0.61588 0.5188 0.0
O1752 O 0.06827 0.54177 0.49789 0.0
O1753 O 0.05661 0.5089 0.52639 0.0
O1754 O 1.00757 0.52139 0.58541 0.0
O1755 O 0.08174 0.54438 0.58092 0.0
O1756 O 0.07154 0.56226 0.54607 0.0
O1757 O 1.00882 0.4905 0.55427 0.0
O1758 O 0.03523 0.56338 0.57985 0.0
O1759 O 0.05143 0.59643 0.55298 0.0
C1760 C 1.01076 0.54766 0.52249 0.0
C1761 C 0.11177 0.62361 0.4809 0.0
C1762 C 0.13647 0.63 0.443 0.0
C1763 C 0.12711 0.65283 0.43947 0.0
C1764 C 0.10297 0.64689 0.47773 0.0
C1765 C 0.11065 0.66138 0.45704 0.0
C1766 C 0.12887 0.61558 0.46372 0.0
C1767 C 0.06595 0.5171 0.50394 0.0
C1768 C 0.10318 0.60694 0.5014 0.0
C1769 C 1.00685 0.63072 0.43954 0.0
C1770 C 1.00173 0.60606 0.42357 0.0
C1771 C 0.08924 0.56306 0.56679 0.0
C1772 C 0.98816 0.47774 0.59162 0.0
C1773 C 0.97556 0.46678 0.63511 0.0
C1774 C 0.97534 0.44027 0.62676 0.0
C1775 C 0.98728 0.45098 0.58335 0.0
C1776 C 0.98178 0.48538 0.6174 0.0
C1777 C 0.98096 0.43243 0.60088 0.0
C1778 C 0.04092 0.5885 0.57467 0.0
C1779 C 0.99644 0.49768 0.57381 0.0
H1780 H 0.13263 0.66399 0.42325 0.0
H1781 H 0.09008 0.65382 0.49095 0.0
H1782 H 0.10362 0.67913 0.45448 0.0
H1783 H 0.1356 0.59755 0.46583 0.0
H1784 H 0.97052 0.42563 0.64014 0.0
H1785 H 0.99177 0.44436 0.56346 0.0
H1786 H 0.9823 0.50591 0.62401 0.0
H1787 H 0.98055 0.41193 0.59444 0.0
Tb1788 Tb 0.84723 0.78373 0.2987 0.0
C1789 C 0.75292 0.82418 0.25034 0.0
N1790 N 0.77177 0.83618 0.27149 0.0
C1791 C 0.77723 0.87644 0.25208 0.0
C1792 C 0.74628 0.8376 0.22858 0.0
C1793 C 0.78322 0.86225 0.27315 0.0
C1794 C 0.75888 0.86401 0.22956 0.0
C1795 C 0.72129 0.78481 0.22869 0.0
C1796 C 0.74071 0.7981 0.25038 0.0
C1797 C 0.71494 0.79792 0.20667 0.0
C1798 C 0.7274 0.82426 0.20662 0.0
Tb1799 Tb 0.78039 0.81092 0.30431 0.0
N1800 N 0.74765 0.78595 0.27189 0.0
C1801 C 0.70849 0.75891 0.23005 0.0
C1802 C 0.7337 0.76149 0.27421 0.0
C1803 C 0.7144 0.74738 0.25316 0.0
H1804 H 0.79686 0.87235 0.29075 0.0
H1805 H 0.70373 0.72781 0.25502 0.0
H1806 H 0.83407 0.71872 0.28318 0.0
H1807 H 0.92738 0.84196 0.37161 0.0
H1808 H 0.73646 0.7532 0.29264 0.0
H1809 H 0.69342 0.74801 0.21384 0.0
H1810 H 0.89796 0.83039 0.32732 0.0
H1811 H 0.78669 0.89699 0.25327 0.0
H1812 H 0.70019 0.78796 0.18974 0.0
H1813 H 0.72215 0.83417 0.1896 0.0
H1814 H 0.83708 0.68035 0.30701 0.0
H1815 H 0.75435 0.87503 0.21324 0.0
H1816 H 0.92482 0.81004 0.40478 0.0
N1817 N 0.8503 0.74672 0.31813 0.0
C1818 C 0.86336 0.75074 0.34376 0.0
C1819 C 0.84411 0.70007 0.31779 0.0
C1820 C 0.86606 0.72957 0.3581 0.0
C1821 C 0.84207 0.72179 0.30447 0.0
C1822 C 0.85556 0.70397 0.34499 0.0
N1823 N 0.87684 0.7947 0.33758 0.0
C1824 C 0.89611 0.81725 0.34246 0.0
C1825 C 0.89425 0.78072 0.37877 0.0
C1826 C 0.87729 0.77582 0.35392 0.0
C1827 C 0.91143 0.80543 0.38586 0.0
C1828 C 0.91296 0.8235 0.36719 0.0
H1829 H 0.85743 0.68711 0.35517 0.0
H1830 H 0.88277 0.71865 0.39573 0.0
H1831 H 0.90748 0.76362 0.41392 0.0
O1832 O 0.87152 0.80159 0.27185 0.0
O1833 O 0.84371 0.8088 0.33653 0.0
O1834 O 0.79973 0.79843 0.34059 0.0
O1835 O 0.87632 0.76514 0.28414 0.0
O1836 O 0.84533 0.82261 0.28689 0.0
O1837 O 0.81779 0.84135 0.31267 0.0
O1838 O 0.74272 0.80762 0.31744 0.0
O1839 O 0.79612 0.80536 0.26454 0.0
O1840 O 0.81472 0.76926 0.26528 0.0
O1841 O 0.77247 0.84301 0.32873 0.0
O1842 O 0.78071 0.77223 0.31749 0.0
O1843 O 0.80904 0.7541 0.29242 0.0
C1844 C 0.82437 0.80775 0.3516 0.0
C1845 C 0.88852 0.77383 0.24119 0.0
C1846 C 0.91697 0.7742 0.20495 0.0
C1847 C 0.89587 0.75663 0.18793 0.0
C1848 C 0.86804 0.75644 0.22363 0.0
C1849 C 0.87172 0.74795 0.19719 0.0
C1850 C 0.91302 0.78265 0.23183 0.0
C1851 C 0.83887 0.84316 0.29984 0.0
C1852 C 0.88439 0.78298 0.26917 0.0
C1853 C 0.88085 0.7346 0.38415 0.0
C1854 C 0.89492 0.76022 0.39452 0.0
C1855 C 0.8022 0.7843 0.25179 0.0
C1856 C 0.74326 0.83129 0.36132 0.0
C1857 C 0.71191 0.82315 0.39487 0.0
C1858 C 0.73267 0.83574 0.41553 0.0
C1859 C 0.76321 0.84354 0.3828 0.0
C1860 C 0.71745 0.82116 0.36752 0.0
C1861 C 0.75788 0.8458 0.40952 0.0
C1862 C 0.78872 0.7517 0.30642 0.0
C1863 C 0.74927 0.83031 0.33264 0.0
H1864 H 0.8981 0.74914 0.16745 0.0
H1865 H 0.84927 0.74933 0.23048 0.0
H1866 H 0.85579 0.73442 0.1838 0.0
H1867 H 0.92879 0.79629 0.24536 0.0
H1868 H 0.72934 0.83857 0.43653 0.0
H1869 H 0.78304 0.85179 0.37903 0.0
H1870 H 0.70185 0.81181 0.35114 0.0
H1871 H 0.77336 0.85579 0.42572 0.0
Tb1872 Tb 0.77549 0.29647 0.82986 0.0
C1873 C 0.85557 0.30048 0.73208 0.0
N1874 N 0.85833 0.3043 0.75961 0.0
C1875 C 0.89008 0.27703 0.76152 0.0
C1876 C 0.86982 0.2845 0.71806 0.0
C1877 C 0.8759 0.2935 0.7745 0.0
C1878 C 0.88702 0.27248 0.73318 0.0
C1879 C 0.83592 0.31052 0.68946 0.0
C1880 C 0.83862 0.31297 0.71805 0.0
C1881 C 0.84965 0.29424 0.67525 0.0
C1882 C 0.86653 0.28119 0.68953 0.0
Tb1883 Tb 0.83212 0.32912 0.77871 0.0
N1884 N 0.82573 0.32851 0.73253 0.0
C1885 C 0.82005 0.32501 0.67609 0.0
C1886 C 0.81184 0.34419 0.71965 0.0
C1887 C 0.80834 0.34229 0.6913 0.0
H1888 H 0.87846 0.29694 0.79636 0.0
H1889 H 0.79684 0.35435 0.68122 0.0
H1890 H 0.7335 0.33582 0.82859 0.0
H1891 H 0.81863 0.2528 0.91261 0.0
H1892 H 0.80338 0.35832 0.73113 0.0
H1893 H 0.81738 0.32361 0.65414 0.0
H1894 H 0.80667 0.2574 0.86492 0.0
H1895 H 0.90321 0.2677 0.77336 0.0
H1896 H 0.84769 0.29195 0.65327 0.0
H1897 H 0.87721 0.2689 0.67835 0.0
H1898 H 0.71338 0.36146 0.86163 0.0
H1899 H 0.89815 0.25983 0.72319 0.0
H1900 H 0.80449 0.28047 0.94897 0.0
N1901 N 0.75661 0.32156 0.85871 0.0
C1902 C 0.76243 0.32018 0.88559 0.0
C1903 C 0.72725 0.35004 0.86865 0.0
C1904 C 0.75135 0.33434 0.90521 0.0
C1905 C 0.73862 0.33553 0.84996 0.0
C1906 C 0.7338 0.34962 0.89643 0.0
N1907 N 0.78843 0.28984 0.87362 0.0
C1908 C 0.80147 0.27073 0.88037 0.0
C1909 C 0.78471 0.30125 0.92097 0.0
C1910 C 0.77908 0.30401 0.8933 0.0
C1911 C 0.7998 0.2832 0.92796 0.0
C1912 C 0.80788 0.26761 0.90752 0.0
H1913 H 0.72486 0.36078 0.91087 0.0
H1914 H 0.74947 0.3432 0.94822 0.0
H1915 H 0.77856 0.31409 0.96203 0.0
O1916 O 0.76125 0.25622 0.83175 0.0
O1917 O 0.7905 0.33844 0.84509 0.0
O1918 O 0.81019 0.33021 0.81131 0.0
O1919 O 0.73479 0.2806 0.81984 0.0
O1920 O 0.8167 0.28839 0.83487 0.0
O1921 O 0.84856 0.32015 0.81919 0.0
O1922 O 0.83716 0.36961 0.77762 0.0
O1923 O 0.82121 0.28585 0.77057 0.0
O1924 O 0.78525 0.28864 0.78896 0.0
O1925 O 0.8702 0.35329 0.79094 0.0
O1926 O 0.78959 0.33078 0.76467 0.0
O1927 O 0.75918 0.31472 0.79451 0.0
C1928 C 0.80704 0.34808 0.82977 0.0
C1929 C 0.71843 0.24777 0.84541 0.0
C1930 C 0.70995 0.23102 0.88773 0.0
C1931 C 0.683 0.23082 0.88131 0.0
C1932 C 0.69135 0.24697 0.83899 0.0
C1933 C 0.67377 0.23864 0.85694 0.0
C1934 C 0.7276 0.23963 0.86981 0.0
C1935 C 0.84135 0.30256 0.83594 0.0
C1936 C 0.73668 0.2579 0.82677 0.0
C1937 C 0.7577 0.33239 0.93283 0.0
C1938 C 0.77433 0.31587 0.94069 0.0
C1939 C 0.80013 0.2737 0.77956 0.0
C1940 C 0.87955 0.39258 0.77114 0.0
C1941 C 0.88633 0.41728 0.73296 0.0
C1942 C 0.91185 0.42961 0.74604 0.0
C1943 C 0.90497 0.40521 0.78393 0.0
C1944 C 0.8703 0.3988 0.74574 0.0
C1945 C 0.92103 0.42361 0.77139 0.0
C1946 C 0.76522 0.32568 0.77219 0.0
C1947 C 0.86248 0.37443 0.78551 0.0
H1948 H 0.66903 0.22401 0.89482 0.0
H1949 H 0.68385 0.25305 0.82018 0.0
H1950 H 0.65294 0.23817 0.85192 0.0
H1951 H 0.7484 0.24012 0.8751 0.0
H1952 H 0.92479 0.4437 0.73657 0.0
H1953 H 0.91229 0.40103 0.80376 0.0
H1954 H 0.8504 0.3898 0.7362 0.0
H1955 H 0.94065 0.43328 0.78137 0.0
Tb1956 Tb 0.78551 0.76986 0.78112 0.0
C1957 C 0.87028 0.85649 0.86446 0.0
N1958 N 0.84386 0.84726 0.86299 0.0
C1959 C 0.84805 0.85148 0.91169 0.0
C1960 C 0.88684 0.86304 0.88961 0.0
C1961 C 0.83244 0.84566 0.88623 0.0
C1962 C 0.87543 0.85989 0.91339 0.0
C1963 C 0.90734 0.8724 0.84118 0.0
C1964 C 0.88034 0.86106 0.84071 0.0
C1965 C 0.92424 0.87799 0.86601 0.0
C1966 C 0.91401 0.87329 0.89021 0.0
Tb1967 Tb 0.82028 0.83641 0.82032 0.0
N1968 N 0.86332 0.85536 0.81721 0.0
C1969 C 0.91633 0.87826 0.81677 0.0
C1970 C 0.87169 0.86251 0.7936 0.0
C1971 C 0.89835 0.87359 0.79294 0.0
H1972 H 0.81124 0.84009 0.88521 0.0
H1973 H 0.90499 0.87858 0.77406 0.0
H1974 H 0.76274 0.79192 0.72509 0.0
H1975 H 0.73483 0.71931 0.85571 0.0
H1976 H 0.85804 0.85912 0.77509 0.0
H1977 H 0.93694 0.88692 0.81621 0.0
H1978 H 0.77278 0.73469 0.83236 0.0
H1979 H 0.83891 0.84974 0.92998 0.0
H1980 H 0.94511 0.88648 0.86679 0.0
H1981 H 0.92713 0.87828 0.9093 0.0
H1982 H 0.71956 0.79496 0.70174 0.0
H1983 H 0.88746 0.86467 0.93314 0.0
H1984 H 0.69038 0.72428 0.83729 0.0
N1985 N 0.74672 0.77422 0.75759 0.0
C1986 C 0.72427 0.76375 0.76772 0.0
C1987 C 0.72066 0.78635 0.72042 0.0
C1988 C 0.6992 0.76536 0.75516 0.0
C1989 C 0.74517 0.78479 0.73384 0.0
C1990 C 0.6976 0.77679 0.73121 0.0
N1991 N 0.75153 0.75266 0.80391 0.0
C1992 C 0.7542 0.73922 0.82556 0.0
C1993 C 0.70418 0.74344 0.80378 0.0
C1994 C 0.72686 0.75323 0.79196 0.0
C1995 C 0.70729 0.73202 0.82757 0.0
C1996 C 0.73237 0.72943 0.83819 0.0
H1997 H 0.67868 0.77831 0.7209 0.0
H1998 H 0.65722 0.75712 0.75784 0.0
H1999 H 0.66155 0.73779 0.80028 0.0
O2000 O 0.78201 0.72908 0.7801 0.0
O2001 O 0.7626 0.80231 0.79049 0.0
O2002 O 0.78107 0.82 0.83263 0.0
O2003 O 0.77731 0.74587 0.74327 0.0
O2004 O 0.80819 0.76832 0.82101 0.0
O2005 O 0.8044 0.80637 0.84536 0.0
O2006 O 0.79831 0.8601 0.80093 0.0
O2007 O 0.85045 0.81412 0.80658 0.0
O2008 O 0.82975 0.77572 0.77806 0.0
O2009 O 0.82252 0.87456 0.83985 0.0
O2010 O 0.81214 0.83601 0.77524 0.0
O2011 O 0.80607 0.79348 0.75403 0.0
C2012 C 0.75938 0.81298 0.81497 0.0
C2013 C 0.7987 0.71016 0.74258 0.0
C2014 C 0.82434 0.67622 0.74632 0.0
C2015 C 0.83491 0.68246 0.7226 0.0
C2016 C 0.80946 0.71602 0.71885 0.0
C2017 C 0.82747 0.70224 0.70901 0.0
C2018 C 0.80619 0.69018 0.75608 0.0
C2019 C 0.80771 0.78217 0.84454 0.0
C2020 C 0.78011 0.72492 0.7538 0.0
C2021 C 0.67666 0.75596 0.76713 0.0
C2022 C 0.67914 0.74505 0.79137 0.0
C2023 C 0.8519 0.79295 0.78976 0.0
C2024 C 0.78142 0.88665 0.83211 0.0
C2025 C 0.74844 0.91327 0.82834 0.0
C2026 C 0.73618 0.90123 0.84871 0.0
C2027 C 0.76965 0.87542 0.85322 0.0
C2028 C 0.7706 0.90527 0.81965 0.0
C2029 C 0.74684 0.88238 0.86111 0.0
C2030 C 0.81092 0.81888 0.75332 0.0
C2031 C 0.80421 0.87852 0.82184 0.0
H2032 H 0.84866 0.67185 0.71433 0.0
H2033 H 0.8041 0.73131 0.70793 0.0
H2034 H 0.83568 0.70688 0.69074 0.0
H2035 H 0.79822 0.68586 0.77458 0.0
H2036 H 0.71909 0.90713 0.85577 0.0
H2037 H 0.77784 0.86117 0.86343 0.0
H2038 H 0.77979 0.91396 0.80341 0.0
H2039 H 0.73764 0.87343 0.87714 0.0
Tb2040 Tb 0.5866 0.56758 0.56193 0.0
C2041 C 0.50954 0.47698 0.49161 0.0
N2042 N 0.51947 0.50172 0.48632 0.0
C2043 C 0.52577 0.48403 0.44168 0.0
C2044 C 0.50807 0.45475 0.47234 0.0
C2045 C 0.52687 0.50548 0.46139 0.0
C2046 C 0.51653 0.45854 0.44723 0.0
C2047 C 0.49126 0.44859 0.52312 0.0
C2048 C 0.5013 0.47393 0.51674 0.0
C2049 C 0.48998 0.42641 0.50407 0.0
C2050 C 0.49835 0.42948 0.47875 0.0
Tb2051 Tb 0.51989 0.53503 0.52044 0.0
N2052 N 0.50355 0.4958 0.53506 0.0
C2053 C 0.48266 0.4463 0.54841 0.0
C2054 C 0.49332 0.49366 0.55885 0.0
C2055 C 0.48332 0.46898 0.56617 0.0
H2056 H 0.53271 0.52491 0.45605 0.0
H2057 H 0.47565 0.46749 0.58531 0.0
H2058 H 0.58605 0.56657 0.62867 0.0
H2059 H 0.62706 0.64611 0.50706 0.0
H2060 H 0.49174 0.51074 0.57182 0.0
H2061 H 0.47482 0.4272 0.5541 0.0
H2062 H 0.61036 0.60011 0.51333 0.0
H2063 H 0.53176 0.4872 0.42207 0.0
H2064 H 0.48244 0.4068 0.50869 0.0
H2065 H 0.49719 0.41219 0.46424 0.0
H2066 H 0.59065 0.59878 0.6696 0.0
H2067 H 0.51571 0.44198 0.43189 0.0
H2068 H 0.63141 0.68178 0.5452 0.0
N2069 N 0.59277 0.5954 0.60203 0.0
C2070 C 0.60121 0.62141 0.60036 0.0
C2071 C 0.59326 0.60545 0.65016 0.0
C2072 C 0.60512 0.64057 0.62343 0.0
C2073 C 0.58998 0.58719 0.62675 0.0
C2074 C 0.60048 0.63229 0.64844 0.0
N2075 N 0.60349 0.60948 0.55402 0.0
C2076 C 0.61149 0.61538 0.52991 0.0
C2077 C 0.61716 0.65525 0.57316 0.0
C2078 C 0.60731 0.62866 0.57567 0.0
C2079 C 0.62382 0.66157 0.548 0.0
C2080 C 0.62129 0.6415 0.52639 0.0
H2081 H 0.60326 0.64639 0.66665 0.0
H2082 H 0.61714 0.68224 0.63837 0.0
H2083 H 0.62756 0.69511 0.59428 0.0
O2084 O 0.61712 0.55125 0.54782 0.0
O2085 O 0.56237 0.59722 0.54936 0.0
O2086 O 0.53015 0.57756 0.51346 0.0
O2087 O 0.62289 0.57429 0.58728 0.0
O2088 O 0.58697 0.55436 0.51798 0.0
O2089 O 0.54667 0.55635 0.49591 0.0
O2090 O 0.48231 0.54041 0.52789 0.0
O2091 O 0.54909 0.50906 0.5295 0.0
O2092 O 0.57248 0.52639 0.57096 0.0
O2093 O 0.48942 0.52772 0.48756 0.0
O2094 O 0.51885 0.55264 0.56309 0.0
O2095 O 0.55763 0.5487 0.58656 0.0
C2096 C 0.54452 0.59925 0.52876 0.0
C2097 C 0.6407 0.53639 0.58375 0.0
C2098 C 0.66644 0.50227 0.58226 0.0
C2099 C 0.65818 0.49552 0.60691 0.0
C2100 C 0.63255 0.52915 0.60821 0.0
C2101 C 0.64119 0.50875 0.61958 0.0
C2102 C 0.65702 0.5225 0.57061 0.0
C2103 C 0.57196 0.55723 0.49592 0.0
C2104 C 0.63189 0.55795 0.57137 0.0
C2105 C 0.61421 0.66721 0.62092 0.0
C2106 C 0.62021 0.67454 0.59583 0.0
C2107 C 0.56259 0.5055 0.55255 0.0
C2108 C 0.46214 0.55803 0.49215 0.0
C2109 C 0.42963 0.5851 0.49482 0.0
C2110 C 0.44235 0.60118 0.47745 0.0
C2111 C 0.47456 0.574 0.47441 0.0
C2112 C 0.43961 0.56357 0.50204 0.0
C2113 C 0.4646 0.59543 0.4671 0.0
C2114 C 0.53275 0.55012 0.58606 0.0
C2115 C 0.47331 0.53673 0.50208 0.0
H2116 H 0.66528 0.48049 0.61685 0.0
H2117 H 0.61947 0.53915 0.61853 0.0
H2118 H 0.63492 0.50336 0.63849 0.0
H2119 H 0.66232 0.52762 0.55126 0.0
H2120 H 0.43484 0.61785 0.47161 0.0
H2121 H 0.49212 0.57019 0.46652 0.0
H2122 H 0.43016 0.55142 0.51591 0.0
H2123 H 0.47425 0.60769 0.45351 0.0
Tb2124 Tb 0.02351 0.55231 0.05506 0.0
C2125 C 0.1268 0.60555 1.00552 0.0
N2126 N 0.11054 0.58154 0.99724 0.0
C2127 C 0.1155 0.58593 0.95082 0.0
C2128 C 0.13768 0.62102 0.98654 0.0
C2129 C 0.10531 0.57124 0.97042 0.0
C2130 C 0.13156 0.61104 0.95888 0.0
C2131 C 0.15063 0.63876 0.04258 0.0
C2132 C 0.13328 0.61429 0.03321 0.0
C2133 C 0.16103 0.65452 0.0237 0.0
C2134 C 0.15457 0.64568 0.99577 0.0
Tb2135 Tb 0.09427 0.56041 0.03103 0.0
N2136 N 0.12239 0.59879 0.05095 0.0
C2137 C 0.15719 0.64653 0.07063 0.0
C2138 C 0.12972 0.60569 0.07831 0.0
C2139 C 0.14692 0.62979 0.08855 0.0
H2140 H 0.09371 0.55149 0.96424 0.0
H2141 H 0.15228 0.63542 0.11026 0.0
H2142 H 0.02823 0.55044 0.12224 0.0
H2143 H 0.96804 0.48379 0.96951 0.0
H2144 H 0.12212 0.59286 0.09223 0.0
H2145 H 0.17047 0.66521 0.07865 0.0
H2146 H 0.99626 0.52586 0.99225 0.0
H2147 H 0.11117 0.57781 0.92954 0.0
H2148 H 0.1743 0.67347 0.03051 0.0
H2149 H 0.16301 0.65792 0.98149 0.0
H2150 H 1.01448 0.51779 0.15245 0.0
H2151 H 0.13952 0.62231 0.94365 0.0
H2152 H 0.95246 0.44849 0.99666 0.0
N2153 N 1.0114 0.52455 0.08585 0.0
C2154 C 0.99562 0.50081 0.07497 0.0
C2155 C 1.00933 0.51264 0.13067 0.0
C2156 C 0.98672 0.48175 0.09159 0.0
C2157 C 1.01761 0.53096 0.11339 0.0
C2158 C 0.99404 0.48784 0.11972 0.0
N2159 N 0.99777 0.51422 0.03153 0.0
C2160 C 0.98998 0.51057 1.00417 0.0
C2161 C 0.9719 0.47131 0.03496 0.0
C2162 C 0.98815 0.49564 0.04701 0.0
C2163 C 0.9649 0.46695 1.00671 0.0
C2164 C 0.97377 0.48678 0.99129 0.0
H2165 H 0.98758 0.47374 0.13319 0.0
H2166 H 0.96375 0.44243 0.0921 0.0
H2167 H 0.95089 0.43327 0.04254 0.0
O2168 O 0.99225 0.56669 0.03587 0.0
O2169 O 0.03822 0.51511 0.04225 0.0
O2170 O 0.06534 0.52506 1.00981 0.0
O2171 O 0.99448 0.5621 0.07797 0.0
O2172 O 0.03265 0.57224 0.01982 0.0
O2173 O 0.06153 0.55272 0.99811 0.0
O2174 O 0.11207 0.53307 0.04898 0.0
O2175 O 0.08307 0.5992 0.04448 0.0
O2176 O 0.04945 0.5916 0.0714 0.0
O2177 O 0.12797 0.55039 0.01594 0.0
O2178 O 0.08403 0.54441 0.06784 0.0
O2179 O 0.05581 0.56448 0.08887 0.0
C2180 C 0.05028 0.50732 0.02163 0.0
C2181 C 0.97738 0.59793 0.06456 0.0
C2182 C 0.94911 0.62995 0.06018 0.0
C2183 C 0.96985 0.64943 0.07538 0.0
C2184 C 0.99696 0.61762 0.08069 0.0
C2185 C 0.99336 0.64321 0.08574 0.0
C2186 C 0.9533 0.60409 0.05449 0.0
C2187 C 0.04082 0.56339 0.99749 0.0
C2188 C 0.98234 0.57118 0.05822 0.0
C2189 C 0.97068 0.45736 0.07965 0.0
C2190 C 0.9633 0.45215 0.05142 0.0
C2191 C 0.06787 0.60803 0.06151 0.0
C2192 C 0.15722 0.53493 0.04743 0.0
C2193 C 0.19398 0.51287 0.05521 0.0
C2194 C 0.20472 0.53172 0.07803 0.0
C2195 C 0.1685 0.55363 0.07014 0.0
C2196 C 0.17023 0.51474 0.0398 0.0
C2197 C 0.19216 0.55208 0.08525 0.0
C2198 C 0.07804 0.55637 0.08976 0.0
C2199 C 0.13056 0.5343 0.03352 0.0
H2200 H 0.96804 0.66966 0.07934 0.0
H2201 H 1.01501 0.6131 0.0895 0.0
H2202 H 1.00882 0.65833 0.09785 0.0
H2203 H 0.93784 0.58866 0.04274 0.0
H2204 H 0.22307 0.53092 0.09008 0.0
H2205 H 0.15868 0.56899 0.07664 0.0
H2206 H 0.16148 0.50004 0.02244 0.0
H2207 H 0.2006 0.56648 0.10288 0.0
H2208 H 1.02075 0.19059 0.95528 0.0
H2209 H 0.03039 0.23512 0.03485 0.0
H2210 H 0.0401 0.19733 0.05553 0.0
H2211 H 0.04557 0.15007 0.05211 0.0
H2212 H 0.03799 0.10652 0.97231 0.0
H2213 H 0.028 0.14412 0.95184 0.0
C2214 C 0.02485 0.19226 0.9772 0.0
C2215 C 0.02436 0.21677 0.99302 0.0
C2216 C 0.03096 0.16988 0.98946 0.0
C2217 C 0.03024 0.21733 0.0215 0.0
C2218 C 0.03592 0.19533 0.0336 0.0
C2219 C 0.0421 0.14867 0.03021 0.0
C2220 C 0.04272 0.12425 0.01427 0.0
C2221 C 0.03639 0.17124 0.01798 0.0
C2222 C 0.03767 0.12408 0.98578 0.0
C2223 C 0.03188 0.14601 0.97378 0.0
H2224 H 0.15764 0.84201 0.20424 0.0
H2225 H 0.18829 0.81353 0.13293 0.0
H2226 H 0.2279 0.80859 0.16127 0.0
H2227 H 0.25342 0.80994 0.20706 0.0
H2228 H 0.22356 0.84062 0.27781 0.0
H2229 H 0.18482 0.84694 0.24942 0.0
C2230 C 0.17309 0.83505 0.19476 0.0
C2231 C 0.16953 0.82823 0.16611 0.0
C2232 C 0.19615 0.83217 0.21137 0.0
C2233 C 0.19012 0.81914 0.15467 0.0
C2234 C 0.21292 0.81616 0.17101 0.0
C2235 C 0.23853 0.81806 0.21635 0.0
C2236 C 0.24113 0.82344 0.24512 0.0
C2237 C 0.21612 0.82223 0.1995 0.0
C2238 C 0.22162 0.83468 0.25618 0.0
C2239 C 0.19949 0.83875 0.23975 0.0
H2240 H 0.54683 0.8942 0.45307 0.0
H2241 H 0.5104 0.86417 0.51963 0.0
H2242 H 0.51415 0.90982 0.54125 0.0
H2243 H 0.52699 0.95979 0.54057 0.0
H2244 H 0.56336 0.98679 0.47238 0.0
H2245 H 0.56009 0.94167 0.4527 0.0
C2246 C 0.53979 0.89723 0.47251 0.0
C2247 C 0.52843 0.87473 0.48439 0.0
C2248 C 0.5418 0.9237 0.48471 0.0
C2249 C 0.51965 0.88026 0.50972 0.0
C2250 C 0.52159 0.90673 0.52206 0.0
C2251 C 0.53418 0.95592 0.52136 0.0
C2252 C 0.54551 0.97783 0.50829 0.0
C2253 C 0.53244 0.92889 0.50967 0.0
C2254 C 0.55465 0.97135 0.48342 0.0
C2255 C 0.55279 0.94514 0.47193 0.0
H2256 H 0.5341 0.29953 0.67355 0.0
H2257 H 0.49106 0.30689 0.59685 0.0
H2258 H 0.45006 0.30063 0.61647 0.0
H2259 H 0.42572 0.29154 0.65451 0.0
H2260 H 0.46727 0.28168 0.73092 0.0
H2261 H 0.50927 0.29117 0.71258 0.0
C2262 C 0.5158 0.29998 0.66118 0.0
C2263 C 0.51593 0.30361 0.63359 0.0
C2264 C 0.49184 0.29599 0.67258 0.0
C2265 C 0.49181 0.30398 0.618 0.0
C2266 C 0.46821 0.30043 0.62924 0.0
C2267 C 0.44387 0.29124 0.66723 0.0
C2268 C 0.44301 0.28556 0.6941 0.0
C2269 C 0.4679 0.29609 0.65636 0.0
C2270 C 0.46709 0.28613 0.71028 0.0
C2271 C 0.49119 0.29135 0.69969 0.0
H2272 H 0.03773 0.81802 0.65888 0.0
H2273 H 0.07738 0.86749 0.73281 0.0
H2274 H 0.08746 0.9047 0.70792 0.0
H2275 H 0.08887 0.92283 0.66449 0.0
H2276 H 0.04873 0.87472 0.59046 0.0
H2277 H 0.03463 0.838 0.61584 0.0
C2278 C 0.04835 0.83697 0.66963 0.0
C2279 C 0.05698 0.83945 0.69791 0.0
C2280 C 0.0539 0.85886 0.65509 0.0
C2281 C 0.07052 0.86451 0.71122 0.0
C2282 C 0.07634 0.88603 0.69693 0.0
C2283 C 0.07619 0.90462 0.65407 0.0
C2284 C 0.06935 0.90185 0.62561 0.0
C2285 C 0.06854 0.88341 0.66882 0.0
C2286 C 0.05364 0.87774 0.61237 0.0
C2287 C 0.04594 0.85655 0.6269 0.0
H2288 H 0.47695 0.84192 0.88429 0.0
H2289 H 0.49893 0.82224 0.80561 0.0
H2290 H 0.45273 0.81601 0.78494 0.0
H2291 H 0.40406 0.81362 0.78916 0.0
H2292 H 0.38235 0.82692 0.86929 0.0
H2293 H 0.42904 0.83751 0.88884 0.0
C2294 C 0.47191 0.83673 0.86248 0.0
C2295 C 0.4928 0.83462 0.84658 0.0
C2296 C 0.44447 0.83144 0.85079 0.0
C2297 C 0.48457 0.82635 0.8185 0.0
C2298 C 0.4576 0.82205 0.80665 0.0
C2299 C 0.40945 0.81904 0.8109 0.0
C2300 C 0.38877 0.81964 0.82748 0.0
C2301 C 0.43709 0.82439 0.82249 0.0
C2302 C 0.39705 0.82625 0.8557 0.0
C2303 C 0.4241 0.83238 0.86702 0.0
H2304 H 0.54943 0.20517 0.14409 0.0
H2305 H 0.50105 0.15842 0.1927 0.0
H2306 H 0.4989 0.11871 0.16041 0.0
H2307 H 0.51042 0.09674 0.11687 0.0
H2308 H 0.56113 0.14518 0.07092 0.0
H2309 H 0.56229 0.18362 0.10281 0.0
C2310 C 0.53825 0.18633 0.14764 0.0
C2311 C 0.5248 0.18529 0.17073 0.0
C2312 C 0.5374 0.16336 0.12902 0.0
C2313 C 0.51126 0.16026 0.17509 0.0
C2314 C 0.51004 0.13738 0.15646 0.0
C2315 C 0.52177 0.11564 0.11375 0.0
C2316 C 0.5351 0.11732 0.09034 0.0
C2317 C 0.52293 0.13855 0.13307 0.0
C2318 C 0.54983 0.1425 0.08762 0.0
C2319 C 0.55084 0.16489 0.10629 0.0
H2320 H 0.14668 0.36149 0.31343 0.0
H2321 H 0.13548 0.30485 0.36971 0.0
H2322 H 0.17541 0.29085 0.35936 0.0
H2323 H 0.21492 0.29342 0.3342 0.0
H2324 H 0.22819 0.35136 0.2798 0.0
H2325 H 0.18726 0.36474 0.2888 0.0
C2326 C 0.15281 0.34614 0.32367 0.0
C2327 C 0.13676 0.33465 0.3428 0.0
C2328 C 0.1769 0.33787 0.31768 0.0
C2329 C 0.14634 0.31467 0.35517 0.0
C2330 C 0.16963 0.30638 0.34912 0.0
C2331 C 0.20908 0.30907 0.32423 0.0
C2332 C 0.22563 0.32098 0.30589 0.0
C2333 C 0.1853 0.31763 0.33037 0.0
C2334 C 0.21676 0.34144 0.29389 0.0
C2335 C 0.19298 0.34932 0.29922 0.0
H2336 H 0.0271 0.03911 0.21649 0.0
H2337 H 0.94484 0.01896 0.1823 0.0
H2338 H 0.9569 0.02428 0.13708 0.0
H2339 H 0.99103 0.03493 0.1062 0.0
H2340 H 0.07327 0.05468 0.14106 0.0
H2341 H 0.06101 0.0493 0.18582 0.0
C2342 C 1.01174 0.03587 0.19921 0.0
C2343 C 0.98493 0.0286 0.20337 0.0
C2344 C 1.01885 0.03893 0.17278 0.0
C2345 C 0.96561 0.02454 0.18024 0.0
C2346 C 0.97252 0.0276 0.15411 0.0
C2347 C 1.00633 0.03802 0.1235 0.0
C2348 C 0.03324 0.04534 0.11949 0.0
C2349 C 0.99912 0.03481 0.14994 0.0
C2350 C 0.05243 0.04915 0.14276 0.0
C2351 C 0.04543 0.04605 0.16875 0.0
H2352 H 0.2132 0.65681 0.49373 0.0
H2353 H 0.29552 0.69568 0.51037 0.0
H2354 H 0.28954 0.72231 0.47387 0.0
H2355 H 0.26041 0.73551 0.43847 0.0
H2356 H 0.17751 0.69792 0.42346 0.0
H2357 H 0.18395 0.67093 0.45925 0.0
C2358 C 0.22982 0.67086 0.48905 0.0
C2359 C 0.25478 0.67415 0.50425 0.0
C2360 C 0.22604 0.68659 0.46871 0.0
C2361 C 0.27614 0.69287 0.49866 0.0
C2362 C 0.27273 0.70806 0.47789 0.0
C2363 C 0.24387 0.72097 0.44261 0.0
C2364 C 0.21858 0.71865 0.42828 0.0
C2365 C 0.24771 0.70518 0.46289 0.0
C2366 C 0.19717 0.70021 0.43434 0.0
C2367 C 0.20086 0.68448 0.4545 0.0
H2368 H 0.62908 0.07415 0.70839 0.0
H2369 H 0.68635 0.03938 0.67042 0.0
H2370 H 0.65835 0.03283 0.62625 0.0
H2371 H 0.61904 0.03943 0.59871 0.0
H2372 H 0.56538 0.08038 0.63605 0.0
H2373 H 0.59056 0.08203 0.68054 0.0
C2374 C 0.63521 0.06478 0.69045 0.0
C2375 C 0.65936 0.05676 0.69248 0.0
C2376 C 0.61982 0.06248 0.66518 0.0
C2377 C 0.66764 0.04542 0.66917 0.0
C2378 C 0.65175 0.04186 0.64402 0.0
C2379 C 0.61272 0.04871 0.61645 0.0
C2380 C 0.58998 0.05936 0.61393 0.0
C2381 C 0.62801 0.05072 0.64177 0.0
C2382 C 0.58238 0.07147 0.63734 0.0
C2383 C 0.5969 0.07261 0.6628 0.0
H2384 H 0.37165 0.37988 0.96547 0.0
H2385 H 0.29163 0.34985 0.97868 0.0
H2386 H 0.28129 0.32724 0.93174 0.0
H2387 H 0.29426 0.31884 0.88547 0.0
H2388 H 0.37456 0.34904 0.87309 0.0
H2389 H 0.38548 0.36888 0.92072 0.0
C2390 C 0.352 0.36823 0.95825 0.0
C2391 C 0.33246 0.36667 0.97584 0.0
C2392 C 0.3462 0.35549 0.93108 0.0
C2393 C 0.30719 0.35111 0.96594 0.0
C2394 C 0.3012 0.33842 0.9389 0.0
C2395 C 0.3142 0.32963 0.8933 0.0
C2396 C 0.33366 0.33222 0.87558 0.0
C2397 C 0.32039 0.34092 0.92105 0.0
C2398 C 0.35936 0.34622 0.88617 0.0
C2399 C 0.36555 0.35776 0.91348 0.0
H2400 H 0.95212 0.02472 0.3885 0.0
H2401 H 0.02325 0.0291 0.35125 0.0
H2402 H 0.04894 0.0316 0.39622 0.0
H2403 H 0.05128 0.03347 0.44724 0.0
H2404 H 0.97867 0.02784 0.48211 0.0
H2405 H 0.95384 0.02436 0.43729 0.0
C2406 C 0.97325 0.02617 0.38987 0.0
C2407 C 0.98547 0.02682 0.36593 0.0
C2408 C 0.98783 0.0272 0.41576 0.0
C2409 C 1.01302 0.02865 0.36892 0.0
C2410 C 0.02778 0.03001 0.39481 0.0
C2411 C 0.03 0.03116 0.44495 0.0
C2412 C 1.01705 0.03121 0.46849 0.0
C2413 C 1.01545 0.02934 0.41854 0.0
C2414 C 0.98939 0.02819 0.46477 0.0
C2415 C 0.97506 0.02625 0.43898 0.0
H2416 H 0.28678 0.68427 0.6767 0.0
H2417 H 0.33718 0.73552 0.63311 0.0
H2418 H 0.34466 0.77094 0.67106 0.0
H2419 H 0.33237 0.78892 0.71396 0.0
H2420 H 0.28069 0.73885 0.75677 0.0
H2421 H 0.27787 0.70127 0.72191 0.0
C2422 C 0.30002 0.70294 0.67591 0.0
C2423 C 0.31138 0.70738 0.65222 0.0
C2424 C 0.30344 0.72353 0.69739 0.0
C2425 C 0.3282 0.73174 0.6512 0.0
C2426 C 0.33231 0.75205 0.67277 0.0
C2427 C 0.32069 0.76968 0.71569 0.0
C2428 C 0.30655 0.76639 0.73776 0.0
C2429 C 0.31924 0.74845 0.69549 0.0
C2430 C 0.29151 0.74154 0.73988 0.0
C2431 C 0.29006 0.72017 0.72 0.0
H2432 H 0.70237 0.14495 0.85417 0.0
H2433 H 0.66248 0.06342 0.83498 0.0
H2434 H 0.63273 0.06973 0.86861 0.0
H2435 H 0.61715 0.09921 0.90199 0.0
H2436 H 0.65581 0.18148 0.91832 0.0
H2437 H 0.68559 0.17427 0.88538 0.0
C2438 C 0.68744 0.12851 0.85758 0.0
C2439 C 0.68483 0.10372 0.84254 0.0
C2440 C 0.66985 0.13254 0.87596 0.0
C2441 C 0.66491 0.08266 0.84663 0.0
C2442 C 0.6479 0.08628 0.86573 0.0
C2443 C 0.63252 0.11548 0.8988 0.0
C2444 C 0.63433 0.1408 0.91266 0.0
C2445 C 0.65008 0.11125 0.88035 0.0
C2446 C 0.65387 0.16183 0.9078 0.0
C2447 C 0.67128 0.15772 0.88945 0.0
H2448 H 0.33578 0.33564 0.12985 0.0
H2449 H 0.31539 0.41026 0.15032 0.0
H2450 H 0.30427 0.39776 0.19414 0.0
H2451 H 0.29914 0.3648 0.22681 0.0
H2452 H 0.32586 0.29302 0.20843 0.0
H2453 H 0.33516 0.30495 0.16434 0.0
C2454 C 0.32888 0.34919 0.14387 0.0
C2455 C 0.32621 0.37385 0.13634 0.0
C2456 C 0.32336 0.34221 0.16971 0.0
C2457 C 0.31766 0.39118 0.15527 0.0
C2458 C 0.31122 0.38398 0.18046 0.0
C2459 C 0.30732 0.35188 0.21343 0.0
C2460 C 0.3109 0.32748 0.22123 0.0
C2461 C 0.31389 0.35946 0.18802 0.0
C2462 C 0.32178 0.3114 0.20311 0.0
C2463 C 0.3274 0.31833 0.17771 0.0
H2464 H 0.26492 0.9725 0.07329 0.0
H2465 H 0.23338 0.98497 0.99358 0.0
H2466 H 0.19827 1.00262 0.01268 0.0
H2467 H 0.17818 1.01658 0.05239 0.0
H2468 H 0.21381 1.00915 0.13265 0.0
H2469 H 0.24524 0.98695 0.11291 0.0
C2470 C 0.25002 0.97861 0.06006 0.0
C2471 C 0.25143 0.97714 0.03207 0.0
C2472 C 0.23072 0.98978 0.07132 0.0
C2473 C 0.2325 0.98576 0.01519 0.0
C2474 C 0.21255 0.99595 0.02612 0.0
C2475 C 0.19297 1.01043 0.06567 0.0
C2476 C 0.19339 1.01462 0.09408 0.0
C2477 C 0.21179 0.99853 0.05425 0.0
C2478 C 0.21248 1.00584 0.11074 0.0
C2479 C 0.2307 0.99329 0.09949 0.0
H2480 H 0.72208 0.64352 0.05006 0.0
H2481 H 0.68177 0.6896 1.001 0.0
H2482 H 0.63976 0.65759 0.99945 0.0
H2483 H 0.61464 0.61597 0.01209 0.0
H2484 H 0.65608 0.57129 0.06242 0.0
H2485 H 0.69732 0.60288 0.06305 0.0
C2486 C 0.70411 0.6464 0.03882 0.0
C2487 C 0.70511 0.66844 0.02499 0.0
C2488 C 0.68017 0.62806 0.03823 0.0
C2489 C 0.68155 0.6725 1.01137 0.0
C2490 C 0.65756 0.65419 1.0105 0.0
C2491 C 0.63268 0.6131 0.02316 0.0
C2492 C 0.63203 0.59091 0.03698 0.0
C2493 C 0.65663 0.63176 0.02379 0.0
C2494 C 0.65577 0.58775 0.05122 0.0
C2495 C 0.67947 0.60602 0.05183 0.0
H2496 H 0.71664 0.51267 0.33217 0.0
H2497 H 0.65159 0.50177 0.2675 0.0
H2498 H 0.66111 0.45986 0.24951 0.0
H2499 H 0.68918 0.42739 0.25096 0.0
H2500 H 0.75296 0.43775 0.317 0.0
H2501 H 0.74303 0.47919 0.33504 0.0
C2502 C 0.70437 0.50113 0.3142 0.0
C2503 C 0.68341 0.51055 0.30121 0.0
C2504 C 0.71 0.47711 0.30392 0.0
C2505 C 0.66773 0.49507 0.27805 0.0
C2506 C 0.67329 0.47114 0.26764 0.0
C2507 C 0.70074 0.43843 0.26954 0.0
C2508 C 0.722 0.42926 0.28237 0.0
C2509 C 0.69455 0.46209 0.28026 0.0
C2510 C 0.7369 0.44435 0.30619 0.0
C2511 C 0.73106 0.46802 0.31675 0.0
H2512 H 0.89519 0.50311 0.5443 0.0
H2513 H 0.90939 0.43407 0.49833 0.0
H2514 H 0.95365 0.45813 0.49321 0.0
H2515 H 0.98746 0.49894 0.50102 0.0
H2516 H 0.97411 0.56811 0.54746 0.0
H2517 H 0.9297 0.54409 0.55288 0.0
C2518 C 0.90802 0.49357 0.53295 0.0
C2519 C 0.89912 0.46738 0.52075 0.0
C2520 C 0.9332 0.50752 0.53016 0.0
C2521 C 0.91595 0.45451 0.50721 0.0
C2522 C 0.94106 0.46822 0.50428 0.0
C2523 C 0.97464 0.50869 0.51218 0.0
C2524 C 0.98358 0.53494 0.524 0.0
C2525 C 0.94968 0.49477 0.51537 0.0
C2526 C 0.96721 0.54779 0.53826 0.0
C2527 C 0.94212 0.53403 0.54154 0.0
H2528 H 0.37548 0.07638 0.26793 0.0
H2529 H 0.35895 0.09857 0.34878 0.0
H2530 H 0.34266 0.13603 0.33379 0.0
H2531 H 0.33362 0.16244 0.29776 0.0
H2532 H 0.34582 0.13704 0.21581 0.0
H2533 H 0.36384 0.10115 0.23137 0.0
C2534 C 0.36847 0.08955 0.28229 0.0
C2535 C 0.36866 0.08502 0.30945 0.0
C2536 C 0.35846 0.11047 0.27336 0.0
C2537 C 0.35902 0.10181 0.32776 0.0
C2538 C 0.34973 0.12317 0.3192 0.0
C2539 C 0.33973 0.14885 0.28312 0.0
C2540 C 0.33847 0.15276 0.25561 0.0
C2541 C 0.34929 0.12763 0.29201 0.0
C2542 C 0.34706 0.13505 0.2372 0.0
C2543 C 0.3572 0.11432 0.24602 0.0
H2544 H 0.34397 0.155 0.49606 0.0
H2545 H 0.35298 0.20995 0.56927 0.0
H2546 H 0.39412 0.19763 0.58555 0.0
H2547 H 0.42522 0.16866 0.58079 0.0
H2548 H 0.41752 0.1152 0.50657 0.0
H2549 H 0.37747 0.12885 0.48952 0.0
C2550 C 0.35509 0.16463 0.51544 0.0
C2551 C 0.34519 0.18341 0.53142 0.0
C2552 C 0.3786 0.15721 0.52484 0.0
C2553 C 0.36007 0.19564 0.55639 0.0
C2554 C 0.3835 0.18837 0.56586 0.0
C2555 C 0.4153 0.16029 0.56059 0.0
C2556 C 0.42472 0.14072 0.54515 0.0
C2557 C 0.39264 0.16879 0.5505 0.0
C2558 C 0.41073 0.12982 0.51932 0.0
C2559 C 0.3879 0.13786 0.50937 0.0
H2560 H 0.7198 0.63466 0.29048 0.0
H2561 H 0.67981 0.66954 0.35079 0.0
H2562 H 0.71186 0.71154 0.35408 0.0
H2563 H 0.75102 0.73838 0.33945 0.0
H2564 H 0.78772 0.70471 0.27512 0.0
H2565 H 0.75809 0.66208 0.27457 0.0
C2566 C 0.71826 0.65147 0.30444 0.0
C2567 C 0.69793 0.64886 0.32096 0.0
C2568 C 0.73643 0.67569 0.30572 0.0
C2569 C 0.69555 0.67098 0.33826 0.0
C2570 C 0.7139 0.69495 0.34013 0.0
C2571 C 0.7527 0.72172 0.32535 0.0
C2572 C 0.77208 0.72496 0.30758 0.0
C2573 C 0.73448 0.69753 0.32401 0.0
C2574 C 0.77365 0.70297 0.28949 0.0
C2575 C 0.75632 0.67857 0.28883 0.0
H2576 H 0.84706 0.46387 0.80976 0.0
H2577 H 0.91493 0.45626 0.86316 0.0
H2578 H 0.89232 0.41188 0.86927 0.0
H2579 H 0.8538 0.37454 0.85725 0.0
H2580 H 0.78558 0.38309 0.80491 0.0
H2581 H 0.80732 0.4283 0.80098 0.0
C2582 C 0.85646 0.45274 0.8234 0.0
C2583 C 0.88202 0.46339 0.83689 0.0
C2584 C 0.84328 0.42758 0.82692 0.0
C2585 C 0.89487 0.44844 0.85323 0.0
C2586 C 0.88199 0.42319 0.85669 0.0
C2587 C 0.84365 0.38668 0.84556 0.0
C2588 C 0.81844 0.37598 0.83125 0.0
C2589 C 0.85625 0.41252 0.8435 0.0
C2590 C 0.80511 0.39135 0.816 0.0
C2591 C 0.81757 0.41698 0.81362 0.0
H2592 H 0.10882 0.91244 0.11085 0.0
H2593 H 0.0493 0.86751 0.04642 0.0
H2594 H 0.04025 0.90758 0.03193 0.0
H2595 H 0.04801 0.95644 0.03589 0.0
H2596 H 0.10726 1.003 0.0989 0.0
H2597 H 0.11716 0.96281 0.11436 0.0
C2598 C 0.09388 0.91114 0.09358 0.0
C2599 C 0.08003 0.88542 0.08021 0.0
C2600 C 0.08841 0.93537 0.08454 0.0
C2601 C 0.06081 0.88581 0.05777 0.0
C2602 C 0.05536 0.90923 0.04915 0.0
C2603 C 0.06306 0.95812 0.05313 0.0
C2604 C 0.07655 0.98391 0.06595 0.0
C2605 C 0.06886 0.9343 0.06218 0.0
C2606 C 0.09621 0.98428 0.08814 0.0
C2607 C 0.10194 0.96085 0.09719 0.0
H2608 H 0.92822 0.31057 0.94032 0.0
H2609 H 0.95537 0.25525 0.88621 0.0
H2610 H 0.91771 0.25378 0.85168 0.0
H2611 H 0.87855 0.27105 0.83465 0.0
H2612 H 0.85192 0.32736 0.88804 0.0
H2613 H 0.88722 0.32576 0.92423 0.0
C2614 C 0.92573 0.29792 0.92112 0.0
C2615 C 0.94529 0.28339 0.91596 0.0
C2616 C 0.90394 0.2976 0.90076 0.0
C2617 C 0.94117 0.26699 0.89085 0.0
C2618 C 0.91948 0.26615 0.87094 0.0
C2619 C 0.88034 0.28287 0.85425 0.0
C2620 C 0.86236 0.2995 0.8583 0.0
C2621 C 0.90103 0.2819 0.87524 0.0
C2622 C 0.86526 0.31445 0.88409 0.0
C2623 C 0.88556 0.31349 0.90493 0.0
H2624 H 0.56904 0.22458 0.62064 0.0
H2625 H 0.60704 0.25051 0.55352 0.0
H2626 H 0.60312 0.20445 0.53393 0.0
H2627 H 0.58877 0.15515 0.53576 0.0
H2628 H 0.55495 0.13103 0.60616 0.0
H2629 H 0.55758 0.17672 0.62397 0.0
C2630 C 0.57615 0.22034 0.60145 0.0
C2631 C 0.58692 0.2419 0.588 0.0
C2632 C 0.57465 0.19337 0.59067 0.0
C2633 C 0.59712 0.23507 0.56382 0.0
C2634 C 0.59527 0.20837 0.55275 0.0
C2635 C 0.58195 0.15975 0.55502 0.0
C2636 C 0.57063 0.13849 0.56883 0.0
C2637 C 0.58395 0.18705 0.56586 0.0
C2638 C 0.56264 0.14597 0.59409 0.0
C2639 C 0.56439 0.17252 0.60461 0.0
H2640 H 0.60748 0.79306 0.45111 0.0
H2641 H 0.57402 0.81632 0.37694 0.0
H2642 H 0.61611 0.82247 0.36059 0.0
H2643 H 0.66363 0.82481 0.36759 0.0
H2644 H 0.69843 0.80022 0.43997 0.0
H2645 H 0.65546 0.7913 0.45612 0.0
C2646 C 0.60933 0.79923 0.43131 0.0
C2647 C 0.5871 0.80456 0.41585 0.0
C2648 C 0.63426 0.80286 0.42142 0.0
C2649 C 0.59036 0.81238 0.38999 0.0
C2650 C 0.61468 0.81594 0.38029 0.0
C2651 C 0.66186 0.81699 0.38664 0.0
C2652 C 0.68469 0.81374 0.40254 0.0
C2653 C 0.63692 0.81172 0.39592 0.0
C2654 C 0.68155 0.80367 0.42735 0.0
C2655 C 0.65681 0.79841 0.43668 0.0
H2656 H 0.05731 0.27286 0.44296 0.0
H2657 H 0.05556 0.23836 0.36022 0.0
H2658 H 0.04903 0.19448 0.37429 0.0
H2659 H 0.04272 0.16596 0.40984 0.0
H2660 H 0.03932 0.20045 0.49168 0.0
H2661 H 0.04988 0.24414 0.47834 0.0
C2662 C 0.05572 0.25575 0.42803 0.0
C2663 C 0.05705 0.25891 0.40057 0.0
C2664 C 0.0512 0.23052 0.43615 0.0
C2665 C 0.05459 0.23649 0.38145 0.0
C2666 C 0.05087 0.2114 0.38951 0.0
C2667 C 0.04388 0.18288 0.42484 0.0
C2668 C 0.04009 0.17941 0.45189 0.0
C2669 C 0.04885 0.20814 0.41678 0.0
C2670 C 0.04258 0.20204 0.47089 0.0
C2671 C 0.04834 0.22723 0.4632 0.0
H2672 H 0.63606 0.26828 0.20735 0.0
H2673 H 0.61504 0.2691 0.28822 0.0
H2674 H 0.66181 0.27574 0.3069 0.0
H2675 H 0.71036 0.28202 0.30104 0.0
H2676 H 0.73092 0.28424 0.22014 0.0
H2677 H 0.68419 0.27589 0.20162 0.0
C2678 C 0.64149 0.26991 0.22912 0.0
C2679 C 0.6209 0.26795 0.24601 0.0
C2680 C 0.66917 0.27436 0.24012 0.0
C2681 C 0.62952 0.27043 0.27424 0.0
C2682 C 0.65669 0.27424 0.2851 0.0
C2683 C 0.70476 0.28054 0.27931 0.0
C2684 C 0.72528 0.28382 0.2623 0.0
C2685 C 0.67699 0.27628 0.2684 0.0
C2686 C 0.71651 0.28197 0.23419 0.0
C2687 C 0.68936 0.27714 0.22338 0.0
H2688 H 0.57291 0.94485 0.89323 0.0
H2689 H 0.57457 0.89059 0.95188 0.0
H2690 H 0.57019 0.9245 0.98761 0.0
H2691 H 0.56449 0.96971 1.0029 0.0
H2692 H 0.56322 0.02415 0.94452 0.0
H2693 H 0.56933 0.99084 0.90918 0.0
C2694 C 0.57267 0.94037 0.91385 0.0
C2695 C 0.57424 0.91453 0.91922 0.0
C2696 C 0.57003 0.96033 0.93485 0.0
C2697 C 0.57359 0.90983 0.94647 0.0
C2698 C 0.57096 0.92942 0.96719 0.0
C2699 C 0.56515 0.97438 0.98249 0.0
C2700 C 0.56248 0.99988 0.97698 0.0
C2701 C 0.56882 0.95475 0.96172 0.0
C2702 C 0.56476 1.00509 0.95008 0.0
C2703 C 0.56827 0.9858 0.92951 0.0
H2704 H 0.97868 0.80018 0.78599 0.0
H2705 H 0.95099 0.74245 0.71503 0.0
H2706 H 0.90503 0.74292 0.72169 0.0
H2707 H 0.87073 0.76032 0.74768 0.0
H2708 H 0.90024 0.8175 0.81895 0.0
H2709 H 0.94537 0.81656 0.81191 0.0
C2710 C 0.96283 0.7875 0.77174 0.0
C2711 C 0.96978 0.77119 0.74971 0.0
C2712 C 0.93565 0.78786 0.77574 0.0
C2713 C 0.94764 0.7553 0.73216 0.0
C2714 C 0.9208 0.7556 0.73604 0.0
C2715 C 0.88686 0.77261 0.76191 0.0
C2716 C 0.88051 0.78948 0.78405 0.0
C2717 C 0.91416 0.77185 0.75778 0.0
C2718 C 0.903 0.80474 0.80152 0.0
C2719 C 0.92947 0.80407 0.79754 0.0
H2720 H 0.15634 0.06027 0.90898 0.0
H2721 H 0.09346 0.08922 0.86743 0.0
H2722 H 0.06794 0.08201 0.9054 0.0
H2723 H 0.06441 0.06942 0.95186 0.0
H2724 H 0.12686 0.03856 0.9917 0.0
H2725 H 0.1514 0.04466 0.95321 0.0
C2726 C 0.13699 0.06497 0.90802 0.0
C2727 C 0.12711 0.07555 0.88507 0.0
C2728 C 0.12227 0.06048 0.92989 0.0
C2729 C 0.10176 0.08107 0.8845 0.0
C2730 C 0.08714 0.077 0.90638 0.0
C2731 C 0.08315 0.06353 0.952 0.0
C2732 C 0.09366 0.05359 0.97515 0.0
C2733 C 0.09726 0.06692 0.92938 0.0
C2734 C 0.11819 0.04639 0.97458 0.0
C2735 C 0.13233 0.04994 0.95247 0.0
H2736 H 0.85502 0.46205 0.62485 0.0
H2737 H 0.8197 0.37992 0.5986 0.0
H2738 H 0.83313 0.36965 0.64377 0.0
H2739 H 0.85762 0.3835 0.68969 0.0
H2740 H 0.89224 0.46565 0.71616 0.0
H2741 H 0.87664 0.47631 0.67169 0.0
C2742 C 0.84989 0.44194 0.6291 0.0
C2743 C 0.83645 0.42177 0.60835 0.0
C2744 C 0.85793 0.4361 0.65502 0.0
C2745 C 0.82999 0.39583 0.61422 0.0
C2746 C 0.83778 0.3899 0.64002 0.0
C2747 C 0.86143 0.40379 0.68588 0.0
C2748 C 0.87628 0.42375 0.70614 0.0
C2749 C 0.85219 0.40981 0.66041 0.0
C2750 C 0.88139 0.44989 0.70071 0.0
C2751 C 0.8723 0.45602 0.67539 0.0
H2752 H 0.47548 0.03816 0.37676 0.0
H2753 H 0.42019 0.07242 0.41889 0.0
H2754 H 0.45306 0.08561 0.45962 0.0
H2755 H 0.49564 0.08346 0.48423 0.0
H2756 H 0.54813 0.04353 0.44356 0.0
H2757 H 0.51869 0.03746 0.40096 0.0
C2758 C 0.4708 0.04896 0.39469 0.0
C2759 C 0.4455 0.05436 0.39487 0.0
C2760 C 0.48935 0.0555 0.41826 0.0
C2761 C 0.43953 0.06797 0.41836 0.0
C2762 C 0.4583 0.07551 0.4416 0.0
C2763 C 0.50084 0.07363 0.46604 0.0
C2764 C 0.5241 0.06383 0.46727 0.0
C2765 C 0.48302 0.06877 0.44196 0.0
C2766 C 0.53054 0.05144 0.44333 0.0
C2767 C 0.51353 0.04769 0.41895 0.0
H2768 H 0.78476 0.77641 0.12179 0.0
H2769 H 0.78826 0.69599 0.12942 0.0
H2770 H 0.79468 0.70617 0.17873 0.0
H2771 H 0.79887 0.73737 0.22024 0.0
H2772 H 0.79433 0.81767 0.21406 0.0
H2773 H 0.78819 0.80802 0.16433 0.0
C2774 C 0.78706 0.76117 0.13425 0.0
C2775 C 0.78609 0.73537 0.12152 0.0
C2776 C 0.79027 0.76706 0.16313 0.0
C2777 C 0.78883 0.71594 0.1383 0.0
C2778 C 0.7925 0.72174 0.16668 0.0
C2779 C 0.79663 0.75286 0.20809 0.0
C2780 C 0.79719 0.77831 0.22122 0.0
C2781 C 0.79316 0.74715 0.17939 0.0
C2782 C 0.79381 0.79787 0.20481 0.0
C2783 C 0.79048 0.79236 0.17621 0.0
H2784 H 0.08714 0.07303 0.72558 0.0
H2785 H 0.16662 0.06669 0.71528 0.0
H2786 H 0.15447 0.05872 0.66595 0.0
H2787 H 0.12134 0.05433 0.62495 0.0
H2788 H 0.04264 0.06355 0.63551 0.0
H2789 H 0.05436 0.06965 0.68469 0.0
C2790 C 0.10176 0.06973 0.71256 0.0
C2791 C 0.12779 0.07034 0.72442 0.0
C2792 C 0.09478 0.06576 0.68388 0.0
C2793 C 0.14646 0.06637 0.70696 0.0
C2794 C 0.13951 0.06179 0.6786 0.0
C2795 C 0.10671 0.05751 0.63799 0.0
C2796 C 0.08103 0.05831 0.62615 0.0
C2797 C 0.11374 0.06154 0.66669 0.0
C2798 C 0.06256 0.06283 0.6437 0.0
C2799 C 0.06924 0.0663 0.67203 0.0
H2800 H 0.79151 0.4139 0.4241 0.0
H2801 H 0.83708 0.37214 0.47371 0.0
H2802 H 0.83725 0.34035 0.4342 0.0
H2803 H 0.82807 0.32713 0.38498 0.0
H2804 H 0.77867 0.36609 0.33605 0.0
H2805 H 0.77717 0.39683 0.37573 0.0
C2806 C 0.80106 0.39756 0.42629 0.0
C2807 C 0.81431 0.39538 0.45169 0.0
C2808 C 0.80092 0.37923 0.40355 0.0
C2809 C 0.82653 0.37408 0.45438 0.0
C2810 C 0.82687 0.35606 0.43176 0.0
C2811 C 0.81631 0.34177 0.38303 0.0
C2812 C 0.80354 0.34414 0.35744 0.0
C2813 C 0.81461 0.35878 0.40615 0.0
C2814 C 0.78903 0.36389 0.35535 0.0
C2815 C 0.78798 0.38144 0.3781 0.0
H2816 H 0.39626 0.98633 0.22448 0.0
H2817 H 0.46759 0.04652 0.24861 0.0
H2818 H 0.4821 0.03626 0.20462 0.0
H2819 H 0.47546 1.0087 0.16043 0.0
H2820 H 0.40435 0.94813 0.13666 0.0
H2821 H 0.38912 0.95972 0.17996 0.0
C2822 C 0.41485 0.99743 0.22002 0.0
C2823 C 0.43083 0.01718 0.2397 0.0
C2824 C 0.42326 0.9911 0.195 0.0
C2825 C 0.45495 0.03123 0.23374 0.0
C2826 C 0.46329 0.02532 0.20866 0.0
C2827 C 0.45644 0.99827 0.16455 0.0
C2828 C 0.44104 0.97763 0.14538 0.0
C2829 C 0.44774 1.00507 0.18931 0.0
C2830 C 0.41669 0.96391 0.15122 0.0
C2831 C 0.40787 0.97062 0.17582 0.0
H2832 H 0.80167 0.70734 0.93709 0.0
H2833 H 0.77048 0.76893 0.97749 0.0
H2834 H 0.77705 0.79401 0.93919 0.0
H2835 H 0.78949 0.79737 0.89272 0.0
H2836 H 0.82304 0.73659 0.85409 0.0
H2837 H 0.81756 0.71245 0.89289 0.0
C2838 C 0.79639 0.72634 0.93773 0.0
C2839 C 0.78536 0.73598 0.96045 0.0
C2840 C 0.80056 0.74085 0.91568 0.0
C2841 C 0.77904 0.76086 0.96061 0.0
C2842 C 0.78271 0.7752 0.93853 0.0
C2843 C 0.79618 0.77915 0.89294 0.0
C2844 C 0.80671 0.76899 0.87004 0.0
C2845 C 0.79324 0.76532 0.91576 0.0
C2846 C 0.81481 0.74503 0.87103 0.0
C2847 C 0.8116 0.73111 0.89332 0.0
H2848 H 0.85141 0.15813 0.03806 0.0
H2849 H 0.818 0.07773 0.04736 0.0
H2850 H 0.85913 0.06524 0.0398 0.0
H2851 H 0.90242 0.07572 0.0259 0.0
H2852 H 0.93682 0.15518 0.01463 0.0
H2853 H 0.89731 0.16945 0.02725 0.0
C2854 C 0.8534 0.13802 0.03886 0.0
C2855 C 0.83168 0.11886 0.04308 0.0
C2856 C 0.87706 0.13071 0.03375 0.0
C2857 C 0.83435 0.09281 0.04392 0.0
C2858 C 0.85785 0.0856 0.03957 0.0
C2859 C 0.90167 0.09633 0.02689 0.0
C2860 C 0.92251 0.11437 0.01947 0.0
C2861 C 0.87903 0.10421 0.0338 0.0
C2862 C 0.92087 0.14087 0.0201 0.0
C2863 C 0.89835 0.14903 0.02736 0.0
H2864 H 0.40545 0.46866 0.08355 0.0
H2865 H 0.42227 0.40083 0.03793 0.0
H2866 H 0.46557 0.42661 0.0321 0.0
H2867 H 0.49685 0.46921 0.03676 0.0
H2868 H 0.48033 0.53736 0.08237 0.0
H2869 H 0.4388 0.51079 0.09145 0.0
C2870 C 0.41872 0.45959 0.07242 0.0
C2871 C 0.41039 0.43319 0.06027 0.0
C2872 C 0.44355 0.47463 0.06907 0.0
C2873 C 0.42808 0.42127 0.04692 0.0
C2874 C 0.4528 0.43603 0.04356 0.0
C2875 C 0.48429 0.47836 0.04872 0.0
C2876 C 0.49165 0.50556 0.05828 0.0
C2877 C 0.46042 0.46291 0.0539 0.0
C2878 C 0.475 0.51676 0.07403 0.0
C2879 C 0.45134 0.50145 0.07955 0.0
H2880 H 0.39271 0.57479 0.79195 0.0
H2881 H 0.47373 0.60833 0.78398 0.0
H2882 H 0.46304 0.65196 0.78447 0.0
H2883 H 0.43108 0.68073 0.79038 0.0
H2884 H 0.35075 0.64587 0.80008 0.0
H2885 H 0.36076 0.60239 0.79488 0.0
C2886 C 0.40821 0.59151 0.79019 0.0
C2887 C 0.4342 0.58819 0.78834 0.0
C2888 C 0.40195 0.61632 0.79067 0.0
C2889 C 0.45365 0.61022 0.78557 0.0
C2890 C 0.44751 0.63518 0.78593 0.0
C2891 C 0.41571 0.66364 0.79136 0.0
C2892 C 0.39013 0.66684 0.7959 0.0
C2893 C 0.4218 0.63852 0.78901 0.0
C2894 C 0.37044 0.64425 0.79636 0.0
C2895 C 0.37625 0.61931 0.79368 0.0
H2896 H 0.18916 0.65465 0.57854 0.0
H2897 H 0.22577 0.59633 0.61164 0.0
H2898 H 0.18232 0.56764 0.61128 0.0
H2899 H 0.13496 0.55594 0.59232 0.0
H2900 H 0.09781 0.61645 0.56604 0.0
H2901 H 0.1404 0.64723 0.57143 0.0
C2902 C 0.18748 0.6358 0.58598 0.0
C2903 C 0.21028 0.62662 0.59342 0.0
C2904 C 0.16256 0.61944 0.58551 0.0
C2905 C 0.20819 0.60293 0.60443 0.0
C2906 C 0.18344 0.58666 0.60438 0.0
C2907 C 0.13622 0.57595 0.58801 0.0
C2908 C 0.11389 0.58312 0.57526 0.0
C2909 C 0.16061 0.59404 0.59328 0.0
C2910 C 0.11533 0.60947 0.57177 0.0
C2911 C 0.13958 0.62739 0.57604 0.0
H2912 H 0.69925 1.00416 0.78527 0.0
H2913 H 0.78187 0.04301 0.80039 0.0
H2914 H 0.79353 1.00326 0.81374 0.0
H2915 H 0.78045 0.95882 0.82374 0.0
H2916 H 0.69831 0.91898 0.81061 0.0
H2917 H 0.68608 0.95803 0.79432 0.0
C2918 C 0.71978 1.00369 0.79115 0.0
C2919 C 0.73968 0.0264 0.79185 0.0
C2920 C 0.72637 0.98084 0.7995 0.0
C2921 C 0.76621 0.02578 0.79979 0.0
C2922 C 0.77292 1.0031 0.80748 0.0
C2923 C 0.75988 0.95849 0.81688 0.0
C2924 C 0.74031 0.93611 0.81803 0.0
C2925 C 0.75316 0.98074 0.80779 0.0
C2926 C 0.71367 0.93614 0.80988 0.0
C2927 C 0.70674 0.95835 0.8005 0.0
H2928 H 0.76809 0.94321 0.51084 0.0
H2929 H 0.76788 0.92068 0.59119 0.0
H2930 H 0.73413 0.94569 0.59976 0.0
H2931 H 0.70886 0.97858 0.58645 0.0
H2932 H 0.70838 1.0002 0.50578 0.0
H2933 H 0.73804 0.9709 0.49525 0.0
C2934 C 0.76022 0.94326 0.53002 0.0
C2935 C 0.77071 0.93016 0.5504 0.0
C2936 C 0.74094 0.95788 0.53489 0.0
C2937 C 0.76012 0.93035 0.57506 0.0
C2938 C 0.741 0.94494 0.58009 0.0
C2939 C 0.71496 0.97652 0.56643 0.0
C2940 C 0.70666 0.99174 0.54698 0.0
C2941 C 0.73193 0.95949 0.56049 0.0
C2942 C 0.71445 0.98869 0.52105 0.0
C2943 C 0.73153 0.97203 0.51509 0.0
H2944 H 0.44128 0.43386 0.80656 0.0
H2945 H 0.39424 0.46023 0.74343 0.0
H2946 H 0.35926 0.42059 0.74081 0.0
H2947 H 0.34061 0.37921 0.75862 0.0
H2948 H 0.38424 0.35821 0.82756 0.0
H2949 H 0.42184 0.39397 0.82571 0.0
C2950 C 0.42351 0.43067 0.792 0.0
C2951 C 0.42031 0.44998 0.77528 0.0
C2952 C 0.40284 0.4084 0.79158 0.0
C2953 C 0.39711 0.44568 0.7566 0.0
C2954 C 0.37705 0.42303 0.75516 0.0
C2955 C 0.35843 0.3825 0.77312 0.0
C2956 C 0.36035 0.36501 0.79235 0.0
C2957 C 0.37937 0.40446 0.77296 0.0
C2958 C 0.38319 0.37003 0.81143 0.0
C2959 C 0.4045 0.39088 0.81062 0.0
H2960 H 0.26553 0.63667 0.25099 0.0
H2961 H 0.19767 0.6438 0.29061 0.0
H2962 H 0.21323 0.69161 0.29949 0.0
H2963 H 0.24706 0.73087 0.29757 0.0
H2964 H 0.31673 0.72356 0.26098 0.0
H2965 H 0.2994 0.67648 0.24885 0.0
C2966 C 0.25441 0.64881 0.26178 0.0
C2967 C 0.23117 0.63698 0.27114 0.0
C2968 C 0.26368 0.67618 0.26715 0.0
C2969 C 0.21606 0.6527 0.28392 0.0
C2970 C 0.22491 0.67994 0.28897 0.0
C2971 C 0.25867 0.71904 0.28741 0.0
C2972 C 0.28333 0.73086 0.28081 0.0
C2973 C 0.24895 0.69183 0.28112 0.0
C2974 C 0.29778 0.71509 0.26678 0.0
C2975 C 0.28784 0.68811 0.25962 0.0
H2976 H 0.54142 0.72336 0.52121 0.0
H2977 H 0.50698 0.69137 0.43891 0.0
H2978 H 0.51067 0.64741 0.4483 0.0
H2979 H 0.52382 0.61614 0.47968 0.0
H2980 H 0.55851 0.64771 0.56189 0.0
H2981 H 0.55493 0.69186 0.55268 0.0
C2982 C 0.53459 0.70692 0.50515 0.0
C2983 C 0.52367 0.71198 0.47895 0.0
C2984 C 0.53692 0.68065 0.51075 0.0
C2985 C 0.51538 0.68932 0.45915 0.0
C2986 C 0.51749 0.66363 0.46461 0.0
C2987 C 0.53037 0.63246 0.49588 0.0
C2988 C 0.54145 0.62728 0.52191 0.0
C2989 C 0.52817 0.65871 0.49033 0.0
C2990 C 0.55011 0.6499 0.54171 0.0
C2991 C 0.5479 0.67565 0.53639 0.0
H2992 H 0.65409 0.33595 0.70992 0.0
H2993 H 0.69317 0.32351 0.63967 0.0
H2994 H 0.73386 0.32311 0.66922 0.0
H2995 H 0.75809 0.32365 0.71547 0.0
H2996 H 0.71819 0.33567 0.78517 0.0
H2997 H 0.67881 0.33857 0.75581 0.0
C2998 C 0.67154 0.33346 0.70095 0.0
C2999 C 0.67014 0.3299 0.67223 0.0
C3000 C 0.69507 0.33294 0.71822 0.0
C3001 C 0.69327 0.32644 0.66146 0.0
C3002 C 0.7167 0.32612 0.67848 0.0
C3003 C 0.74112 0.32761 0.7244 0.0
C3004 C 0.74189 0.32981 0.75311 0.0
C3005 C 0.71789 0.32907 0.70699 0.0
C3006 C 0.71883 0.33392 0.76359 0.0
C3007 C 0.696 0.3356 0.74661 0.0
H3008 H 0.04089 0.39441 0.95129 0.0
H3009 H 1.01256 0.36452 0.02187 0.0
H3010 H 1.01784 0.41012 0.04417 0.0
H3011 H 0.0304 0.45988 0.04349 0.0
H3012 H 0.05952 0.48715 0.9719 0.0
H3013 H 0.05387 0.442 0.95081 0.0
C3014 C 0.03587 0.39747 0.97168 0.0
C3015 C 0.02627 0.37505 0.98451 0.0
C3016 C 0.03905 0.42394 0.98446 0.0
C3017 C 1.02019 0.3806 1.0111 0.0
C3018 C 0.02311 0.40701 0.02391 0.0
C3019 C 0.03549 0.45605 0.02324 0.0
C3020 C 0.04555 0.47794 1.00963 0.0
C3021 C 0.03246 0.4291 1.01081 0.0
C3022 C 0.05196 0.47161 0.98337 0.0
C3023 C 0.04868 0.44542 0.97108 0.0
H3024 H 0.03381 0.8005 0.17301 0.0
H3025 H 0.9889 0.80298 0.09572 0.0
H3026 H 0.94818 0.79553 0.11573 0.0
H3027 H 0.92455 0.78643 0.15424 0.0
H3028 H 0.96792 0.78194 0.23158 0.0
H3029 H 1.0096 0.79263 0.21275 0.0
C3030 C 1.01516 0.79968 0.16063 0.0
C3031 C 1.01472 0.80221 0.13271 0.0
C3032 C 0.99131 0.795 0.17229 0.0
C3033 C 0.99013 0.80093 0.11712 0.0
C3034 C 0.96667 0.79667 0.12857 0.0
C3035 C 0.94305 0.78761 0.16707 0.0
C3036 C 0.94279 0.78303 0.19434 0.0
C3037 C 0.96692 0.79329 0.15598 0.0
C3038 C 0.96726 0.78547 0.21061 0.0
C3039 C 0.9912 0.7914 0.19975 0.0
H3040 H 0.57293 0.32518 0.16783 0.0
H3041 H 0.49463 0.32768 0.18599 0.0
H3042 H 0.49464 0.36579 0.16205 0.0
H3043 H 0.51397 0.39404 0.13011 0.0
H3044 H 0.5919 0.39189 0.11078 0.0
H3045 H 0.59524 0.35851 0.14103 0.0
C3046 C 0.55639 0.3348 0.16747 0.0
C3047 C 0.53394 0.32383 0.17909 0.0
C3048 C 0.55626 0.3565 0.1529 0.0
C3049 C 0.51227 0.336 0.17765 0.0
C3050 C 0.51215 0.35764 0.16366 0.0
C3051 C 0.53194 0.38671 0.13306 0.0
C3052 C 0.55262 0.39539 0.11813 0.0
C3053 C 0.53357 0.36741 0.15032 0.0
C3054 C 0.57578 0.3857 0.12215 0.0
C3055 C 0.57758 0.36643 0.13931 0.0
H3056 H 0.98558 0.3169 0.30914 0.0
H3057 H 0.98664 0.35725 0.38927 0.0
H3058 H 0.93903 0.35341 0.38062 0.0
H3059 H 0.89521 0.33624 0.35158 0.0
H3060 H 0.89366 0.29994 0.2698 0.0
H3061 H 0.94186 0.30471 0.27761 0.0
C3062 C 0.9757 0.32574 0.32444 0.0
C3063 C 0.99088 0.33806 0.34995 0.0
C3064 C 0.94739 0.32368 0.31918 0.0
C3065 C 0.97645 0.34816 0.36937 0.0
C3066 C 0.94877 0.34574 0.36449 0.0
C3067 C 0.9053 0.32935 0.33536 0.0
C3068 C 0.88993 0.31717 0.31009 0.0
C3069 C 0.93371 0.33306 0.33972 0.0
C3070 C 0.90425 0.30913 0.2895 0.0
C3071 C 0.93216 0.3119 0.29401 0.0
H3072 H 1.01715 0.69499 0.63291 0.0
H3073 H 0.05121 0.66869 0.70455 0.0
H3074 H 0.05547 0.62841 0.67719 0.0
H3075 H 0.05222 0.60124 0.6319 0.0
H3076 H 1.01596 0.62675 0.56092 0.0
H3077 H 1.0103 0.66608 0.58856 0.0
C3078 C 0.02521 0.68036 0.64272 0.0
C3079 C 0.03376 0.68538 0.67118 0.0
C3080 C 0.02753 0.65679 0.62668 0.0
C3081 C 0.04423 0.66578 0.68297 0.0
C3082 C 0.04681 0.64257 0.66717 0.0
C3083 C 0.0424 0.61489 0.62247 0.0
C3084 C 0.03463 0.6105 0.59384 0.0
C3085 C 0.0388 0.63782 0.63886 0.0
C3086 C 0.02263 0.62939 0.58253 0.0
C3087 C 1.01923 0.65204 0.59848 0.0
H3088 H 0.65444 0.82172 0.87432 0.0
H3089 H 0.63521 0.85997 0.80517 0.0
H3090 H 0.67518 0.85249 0.78737 0.0
H3091 H 0.71729 0.83489 0.79019 0.0
H3092 H 0.73851 0.80008 0.8611 0.0
H3093 H 0.69762 0.80606 0.87824 0.0
C3094 C 0.65876 0.82862 0.85535 0.0
C3095 C 0.64038 0.84168 0.84158 0.0
C3096 C 0.68294 0.82455 0.84491 0.0
C3097 C 0.64784 0.85006 0.81695 0.0
C3098 C 0.67117 0.84562 0.80643 0.0
C3099 C 0.71306 0.82831 0.80932 0.0
C3100 C 0.73197 0.81639 0.82377 0.0
C3101 C 0.68911 0.83276 0.81997 0.0
C3102 C 0.72519 0.809 0.84892 0.0
C3103 C 0.70139 0.81254 0.85896 0.0
H3104 H 0.46255 0.53874 0.68446 0.0
H3105 H 0.53344 0.52034 0.72297 0.0
H3106 H 0.55391 0.52554 0.68176 0.0
H3107 H 0.55191 0.53434 0.63419 0.0
H3108 H 0.48346 0.55755 0.59645 0.0
H3109 H 0.46199 0.55096 0.63711 0.0
C3110 C 0.48247 0.53585 0.68386 0.0
C3111 C 0.49621 0.5289 0.70723 0.0
C3112 C 0.49473 0.53971 0.65993 0.0
C3113 C 0.52219 0.52565 0.70571 0.0
C3114 C 0.534 0.52861 0.68196 0.0
C3115 C 0.53263 0.53881 0.63491 0.0
C3116 C 0.51982 0.54705 0.61185 0.0
C3117 C 0.52057 0.53569 0.65889 0.0
C3118 C 0.49419 0.55142 0.61352 0.0
C3119 C 0.48179 0.5476 0.63696 0.0
H3120 H 0.73287 0.19316 1.0009 0.0
H3121 H 0.76382 0.13672 0.95187 0.0
H3122 H 0.75541 0.15868 0.91192 0.0
H3123 H 0.73789 0.19316 0.89103 0.0
H3124 H 0.70242 0.24611 0.93945 0.0
H3125 H 0.71449 0.22663 0.98 0.0
C3126 C 0.73799 0.18582 0.9815 0.0
C3127 C 0.74919 0.16362 0.97922 0.0
C3128 C 0.73243 0.19801 0.95873 0.0
C3129 C 0.75519 0.15384 0.95395 0.0
C3130 C 0.75048 0.16642 0.93124 0.0
C3131 C 0.73323 0.20062 0.91061 0.0
C3132 C 0.71941 0.221 0.91251 0.0
C3133 C 0.73904 0.18848 0.93342 0.0
C3134 C 0.71295 0.23033 0.9377 0.0
C3135 C 0.71977 0.21917 0.96076 0.0
H3136 H 0.13363 0.56099 0.20976 0.0
H3137 H 0.18818 0.52665 0.16667 0.0
H3138 H 0.16005 0.52506 0.12346 0.0
H3139 H 0.12133 0.53524 0.09849 0.0
H3140 H 0.07019 0.57545 0.14101 0.0
H3141 H 0.0957 0.5729 0.18429 0.0
C3142 C 0.13913 0.55282 0.19089 0.0
C3143 C 0.16255 0.5434 0.19124 0.0
C3144 C 0.12366 0.55329 0.16623 0.0
C3145 C 0.17004 0.53368 0.16675 0.0
C3146 C 0.15407 0.53295 0.14215 0.0
C3147 C 0.1156 0.54353 0.11704 0.0
C3148 C 0.09339 0.55509 0.11629 0.0
C3149 C 0.13103 0.54302 0.14168 0.0
C3150 C 0.08667 0.56584 0.14085 0.0
C3151 C 0.10141 0.56457 0.16563 0.0
H3152 H 0.86032 0.88549 0.46167 0.0
H3153 H 0.79849 0.83177 0.4899 0.0
H3154 H 0.78973 0.80428 0.44514 0.0
H3155 H 0.79841 0.79712 0.3964 0.0
H3156 H 0.86373 0.84982 0.37212 0.0
H3157 H 0.87241 0.87584 0.41669 0.0
C3158 C 0.84521 0.86755 0.45849 0.0
C3159 C 0.83019 0.86092 0.47954 0.0
C3160 C 0.84074 0.85167 0.43301 0.0
C3161 C 0.8106 0.83744 0.47442 0.0
C3162 C 0.80552 0.82175 0.44866 0.0
C3163 C 0.81469 0.81417 0.40099 0.0
C3164 C 0.83018 0.82164 0.38036 0.0
C3165 C 0.82022 0.82888 0.42753 0.0
C3166 C 0.85135 0.8436 0.38707 0.0
C3167 C 0.85634 0.85859 0.41276 0.0
H3168 H 0.45959 0.52897 0.88969 0.0
H3169 H 0.52823 0.52214 0.85109 0.0
H3170 H 0.55415 0.52479 0.89596 0.0
H3171 H 0.55743 0.52953 0.94718 0.0
H3172 H 0.48764 0.53687 0.98367 0.0
H3173 H 0.46244 0.53317 0.93899 0.0
C3174 C 0.48027 0.52813 0.89077 0.0
C3175 C 0.4917 0.52546 0.86646 0.0
C3176 C 0.49503 0.52959 0.91666 0.0
C3177 C 0.51864 0.52435 0.86905 0.0
C3178 C 0.53353 0.52576 0.89488 0.0
C3179 C 0.53666 0.53009 0.94531 0.0
C3180 C 0.52465 0.53358 0.96921 0.0
C3181 C 0.52197 0.52837 0.91899 0.0
C3182 C 0.49768 0.53443 0.96603 0.0
C3183 C 0.48312 0.53233 0.94031 0.0
H3184 H 0.81423 0.18584 0.15393 0.0
H3185 H 0.77844 0.23535 0.10483 0.0
H3186 H 0.77977 0.26675 0.14485 0.0
H3187 H 0.788 0.27848 0.19396 0.0
H3188 H 0.83026 0.23328 0.24269 0.0
H3189 H 0.82877 0.20153 0.20294 0.0
C3190 C 0.80715 0.20372 0.15208 0.0
C3191 C 0.79622 0.20827 0.12661 0.0
C3192 C 0.8086 0.2222 0.17514 0.0
C3193 C 0.78718 0.23154 0.12427 0.0
C3194 C 0.7877 0.24943 0.14715 0.0
C3195 C 0.79753 0.26216 0.19593 0.0
C3196 C 0.80892 0.25833 0.2215 0.0
C3197 C 0.79799 0.24475 0.17273 0.0
C3198 C 0.82073 0.23658 0.22349 0.0
C3199 C 0.82012 0.21843 0.20064 0.0
H3200 H 0.219 0.59048 0.37552 0.0
H3201 H 0.15159 0.57551 0.31275 0.0
H3202 H 0.12514 0.59154 0.34498 0.0
H3203 H 0.12165 0.6124 0.39021 0.0
H3204 H 0.18684 0.62366 0.45435 0.0
H3205 H 0.21391 0.60699 0.42234 0.0
C3206 C 0.19843 0.59037 0.36902 0.0
C3207 C 0.18744 0.582 0.34172 0.0
C3208 C 0.18311 0.59951 0.38773 0.0
C3209 C 0.16064 0.58177 0.33365 0.0
C3210 C 0.14547 0.59116 0.35199 0.0
C3211 C 0.14184 0.61126 0.39699 0.0
C3212 C 0.15278 0.62001 0.42406 0.0
C3213 C 0.15666 0.60059 0.37887 0.0
C3214 C 0.17852 0.61769 0.43321 0.0
C3215 C 0.19382 0.60798 0.41504 0.0
H3216 H 0.81896 0.83221 0.62868 0.0
H3217 H 0.83469 0.91447 0.66054 0.0
H3218 H 0.83011 0.90327 0.7063 0.0
H3219 H 0.82162 0.86968 0.7381 0.0
H3220 H 0.80793 0.78757 0.70516 0.0
H3221 H 0.81174 0.79917 0.66005 0.0
C3222 C 0.8213 0.84775 0.64557 0.0
C3223 C 0.82705 0.87424 0.64076 0.0
C3224 C 0.81905 0.84117 0.67215 0.0
C3225 C 0.83023 0.89392 0.66328 0.0
C3226 C 0.82762 0.8875 0.68964 0.0
C3227 C 0.81952 0.85431 0.72111 0.0
C3228 C 0.8143 0.82763 0.7257 0.0
C3229 C 0.82205 0.86112 0.69449 0.0
C3230 C 0.81183 0.80826 0.70294 0.0
C3231 C 0.81399 0.81485 0.67677 0.0
H3232 H 0.74852 0.43702 0.54364 0.0
H3233 H 0.77636 0.50902 0.51104 0.0
H3234 H 0.74071 0.52709 0.527 0.0
H3235 H 0.70451 0.52428 0.55353 0.0
H3236 H 0.6728 0.4512 0.58236 0.0
H3237 H 0.70767 0.4321 0.56516 0.0
C3238 C 0.74659 0.45654 0.53977 0.0
C3239 C 0.76539 0.47172 0.52652 0.0
C3240 C 0.72569 0.46685 0.54871 0.0
C3241 C 0.76235 0.49686 0.52132 0.0
C3242 C 0.74199 0.50733 0.53053 0.0
C3243 C 0.70447 0.5039 0.55544 0.0
C3244 C 0.68597 0.48944 0.56956 0.0
C3245 C 0.7239 0.49271 0.5447 0.0
C3246 C 0.6871 0.4632 0.57227 0.0
C3247 C 0.70692 0.45212 0.5622 0.0
H3248 H 0.17786 0.17002 0.50308 0.0
H3249 H 0.2326 0.14336 0.55856 0.0
H3250 H 0.19713 0.10807 0.56709 0.0
H3251 H 0.14997 0.08414 0.55867 0.0
H3252 H 0.09607 0.10966 0.50089 0.0
H3253 H 0.13127 0.14511 0.4933 0.0
C3254 C 0.18196 0.15647 0.51702 0.0
C3255 C 0.20803 0.15918 0.52981 0.0
C3256 C 0.16141 0.13568 0.52144 0.0
C3257 C 0.21286 0.14154 0.54806 0.0
C3258 C 0.1925 0.1213 0.55301 0.0
C3259 C 0.14594 0.09733 0.5443 0.0
C3260 C 0.11995 0.09414 0.53082 0.0
C3261 C 0.16663 0.11795 0.53968 0.0
C3262 C 0.11547 0.11163 0.51217 0.0
C3263 C 0.13575 0.13208 0.50768 0.0
H3264 H 0.20713 1.01639 0.8473 0.0
H3265 H 0.17219 0.01739 0.76521 0.0
H3266 H 0.19699 0.98551 0.74833 0.0
H3267 H 0.23346 0.96236 0.75658 0.0
H3268 H 0.26778 0.96118 0.83879 0.0
H3269 H 0.23857 0.98831 0.85606 0.0
C3270 C 0.2044 1.00904 0.82578 0.0
C3271 C 0.18802 0.01933 0.8075 0.0
C3272 C 0.21912 0.99122 0.81624 0.0
C3273 C 0.1845 1.00959 0.77971 0.0
C3274 C 0.199 0.99167 0.77002 0.0
C3275 C 0.23426 0.96791 0.77826 0.0
C3276 C 0.25293 0.96032 0.79647 0.0
C3277 C 0.21717 0.98321 0.788 0.0
C3278 C 0.25364 0.96708 0.82451 0.0
C3279 C 0.23696 0.98253 0.83435 0.0
H3280 H 0.38168 1.01141 0.0362 0.0
H3281 H 0.39092 0.94577 0.981 0.0
H3282 H 0.43586 0.96876 0.97701 0.0
H3283 H 0.47258 1.00696 0.9902 0.0
H3284 H 0.46378 0.07306 0.04497 0.0
H3285 H 0.41809 0.05078 0.04793 0.0
C3286 C 0.39344 1.00254 0.02285 0.0
C3287 C 0.38304 0.97752 1.00809 0.0
C3288 C 0.41912 1.01584 0.02079 0.0
C3289 C 0.3986 0.96538 0.99192 0.0
C3290 C 0.42416 0.97844 0.98971 0.0
C3291 C 0.46048 1.01642 1.00266 0.0
C3292 C 0.47115 0.0412 0.01768 0.0
C3293 C 0.4346 1.00359 1.00413 0.0
C3294 C 0.45564 0.05379 0.03346 0.0
C3295 C 0.42974 0.04104 0.03522 0.0
H3296 H 0.83915 0.58292 0.81181 0.0
H3297 H 0.91907 0.60644 0.79433 0.0
H3298 H 0.90697 0.64201 0.77151 0.0
H3299 H 0.87339 0.66566 0.75556 0.0
H3300 H 0.79279 0.63966 0.77018 0.0
H3301 H 0.80559 0.60596 0.7953 0.0
C3302 C 0.85401 0.59595 0.80323 0.0
C3303 C 0.87998 0.59206 0.80482 0.0
C3304 C 0.84678 0.61586 0.78954 0.0
C3305 C 0.89891 0.60899 0.79335 0.0
C3306 C 0.89201 0.6293 0.78026 0.0
C3307 C 0.85855 0.65245 0.76397 0.0
C3308 C 0.83219 0.65531 0.76104 0.0
C3309 C 0.86591 0.63271 0.77794 0.0
C3310 C 0.81332 0.63824 0.77249 0.0
C3311 C 0.82057 0.61884 0.78675 0.0
H3312 H 0.84034 0.64897 1.00438 0.0
H3313 H 0.85204 0.70602 0.07639 0.0
H3314 H 0.89335 0.6937 0.09188 0.0
H3315 H 0.92501 0.66558 0.08605 0.0
H3316 H 0.91494 0.61037 0.01278 0.0
H3317 H 0.87356 0.62252 0.99732 0.0
C3318 C 0.85197 0.65889 0.0234 0.0
C3319 C 0.84292 0.67846 0.03917 0.0
C3320 C 0.87577 0.65171 0.03223 0.0
C3321 C 0.85845 0.69106 0.06369 0.0
C3322 C 0.88204 0.68389 0.07268 0.0
C3323 C 0.91417 0.65645 0.06642 0.0
C3324 C 0.92344 0.63701 0.05067 0.0
C3325 C 0.89076 0.66409 0.05722 0.0
C3326 C 0.90834 0.62502 0.02568 0.0
C3327 C 0.88473 0.63218 0.01664 0.0
H3328 H 0.19015 0.1802 0.84013 0.0
H3329 H 0.21378 0.12553 0.78215 0.0
H3330 H 0.25005 0.16 0.77383 0.0
H3331 H 0.2753 0.20613 0.78286 0.0
H3332 H 0.25445 0.25948 0.8446 0.0
H3333 H 0.2175 0.22551 0.85163 0.0
C3334 C 0.2032 0.17599 0.82561 0.0
C3335 C 0.19931 0.15038 0.81181 0.0
C3336 C 0.2247 0.1958 0.82154 0.0
C3337 C 0.21646 0.14511 0.79312 0.0
C3338 C 0.23726 0.16482 0.78837 0.0
C3339 C 0.26287 0.21026 0.79804 0.0
C3340 C 0.26743 0.23574 0.81254 0.0
C3341 C 0.24174 0.19027 0.80256 0.0
C3342 C 0.25107 0.24046 0.83233 0.0
C3343 C 0.22984 0.22093 0.83652 0.0
H3344 H 0.35185 0.95847 0.29658 0.0
H3345 H 0.41572 0.94808 0.3538 0.0
H3346 H 0.39349 0.90197 0.35352 0.0
H3347 H 0.35441 0.86564 0.33875 0.0
H3348 H 0.29031 0.87679 0.28229 0.0
H3349 H 0.31412 0.92177 0.28009 0.0
C3350 C 0.36069 0.94607 0.30913 0.0
C3351 C 0.38468 0.95654 0.32602 0.0
C3352 C 0.34792 0.91985 0.30865 0.0
C3353 C 0.3968 0.94031 0.34129 0.0
C3354 C 0.38418 0.91407 0.34103 0.0
C3355 C 0.34604 0.87794 0.32567 0.0
C3356 C 0.3211 0.86828 0.31033 0.0
C3357 C 0.35957 0.90377 0.32505 0.0
C3358 C 0.3098 0.88407 0.29382 0.0
C3359 C 0.32331 0.90967 0.29268 0.0
H3360 H 0.56851 0.38179 0.54779 0.0
H3361 H 0.60314 0.40608 0.63138 0.0
H3362 H 0.59892 0.45135 0.62703 0.0
H3363 H 0.58383 0.4853 0.59969 0.0
H3364 H 0.55294 0.46056 0.51518 0.0
H3365 H 0.55662 0.41573 0.52003 0.0
C3366 C 0.57535 0.39682 0.56526 0.0
C3367 C 0.58625 0.38931 0.59013 0.0
C3368 C 0.57306 0.42353 0.56253 0.0
C3369 C 0.59481 0.41017 0.61191 0.0
C3370 C 0.59224 0.43649 0.60942 0.0
C3371 C 0.57803 0.47029 0.58213 0.0
C3372 C 0.56716 0.47742 0.55695 0.0
C3373 C 0.5812 0.44367 0.58486 0.0
C3374 C 0.56028 0.45666 0.53502 0.0
C3375 C 0.56275 0.43056 0.53774 0.0
H3376 H 0.42348 0.79785 0.43923 0.0
H3377 H 0.4625 0.76347 0.37775 0.0
H3378 H 0.42585 0.76407 0.34291 0.0
H3379 H 0.38408 0.77839 0.32866 0.0
H3380 H 0.33999 0.80196 0.39132 0.0
H3381 H 0.37679 0.8025 0.4259 0.0
C3382 C 0.42394 0.79031 0.41826 0.0
C3383 C 0.44696 0.78221 0.41113 0.0
C3384 C 0.40194 0.78973 0.39803 0.0
C3385 C 0.44605 0.77128 0.38388 0.0
C3386 C 0.42485 0.77146 0.36379 0.0
C3387 C 0.38237 0.7837 0.34983 0.0
C3388 C 0.35938 0.79217 0.35658 0.0
C3389 C 0.40302 0.78158 0.37035 0.0
C3390 C 0.35762 0.79733 0.38461 0.0
C3391 C 0.37877 0.79712 0.4048 0.0
H3392 H 0.07016 0.72446 0.12204 0.0
H3393 H 0.10536 0.74899 0.05282 0.0
H3394 H 0.10217 0.70275 0.03447 0.0
H3395 H 0.08897 0.65378 0.0378 0.0
H3396 H 0.0582 0.63102 0.11018 0.0
H3397 H 0.06029 0.67686 0.12702 0.0
C3398 C 0.07685 0.71984 0.1027 0.0
C3399 C 0.08653 0.74097 0.08824 0.0
C3400 C 0.0758 0.69281 0.09262 0.0
C3401 C 0.09625 0.73378 0.06388 0.0
C3402 C 0.09481 0.70701 0.05351 0.0
C3403 C 0.08272 0.65872 0.0573 0.0
C3404 C 0.0724 0.63783 0.07199 0.0
C3405 C 0.08445 0.68607 0.06754 0.0
C3406 C 0.06517 0.6457 0.09752 0.0
C3407 C 0.06658 0.67233 0.10746 0.0
H3408 H 0.09762 0.33958 0.92154 0.0
H3409 H 0.0786 0.25621 0.9246 0.0
H3410 H 0.11361 0.25031 0.89711 0.0
H3411 H 0.14495 0.26833 0.86626 0.0
H3412 H 0.16464 0.35194 0.86462 0.0
H3413 H 0.13433 0.35842 0.89754 0.0
C3414 C 0.10186 0.32025 0.91707 0.0
C3415 C 0.08565 0.29837 0.92532 0.0
C3416 C 0.12184 0.31704 0.901 0.0
C3417 C 0.09109 0.27341 0.91901 0.0
C3418 C 0.11086 0.27001 0.90289 0.0
C3419 C 0.14306 0.28799 0.87372 0.0
C3420 C 0.15697 0.30967 0.86299 0.0
C3421 C 0.12567 0.29156 0.89288 0.0
C3422 C 0.1543 0.33503 0.87269 0.0
C3423 C 0.13685 0.3387 0.89141 0.0
H3424 H 0.57968 0.77755 0.94478 0.0
H3425 H 0.54247 0.7411 0.86437 0.0
H3426 H 0.53634 0.69787 0.87955 0.0
H3427 H 0.54109 0.67036 0.91552 0.0
H3428 H 0.58026 0.70614 0.99551 0.0
H3429 H 0.58522 0.7496 0.98083 0.0
C3430 C 0.57033 0.76014 0.93053 0.0
C3431 C 0.56163 0.76269 0.90337 0.0
C3432 C 0.56687 0.73518 0.93942 0.0
C3433 C 0.54949 0.73984 0.88529 0.0
C3434 C 0.54587 0.71506 0.89401 0.0
C3435 C 0.55102 0.68755 0.92979 0.0
C3436 C 0.56038 0.68465 0.95668 0.0
C3437 C 0.55446 0.71248 0.92101 0.0
C3438 C 0.5725 0.70751 0.97485 0.0
C3439 C 0.57561 0.73245 0.96636 0.0
H3440 H 0.13762 0.79213 0.71995 0.0
H3441 H 0.11011 0.7514 0.7848 0.0
H3442 H 0.15614 0.75343 0.80409 0.0
H3443 H 0.20611 0.7666 0.80273 0.0
H3444 H 0.23198 0.8084 0.73761 0.0
H3445 H 0.18623 0.8059 0.71907 0.0
C3446 C 0.14147 0.78394 0.73857 0.0
C3447 C 0.11931 0.77241 0.75107 0.0
C3448 C 0.16857 0.78511 0.74972 0.0
C3449 C 0.12586 0.76137 0.77484 0.0
C3450 C 0.15262 0.76227 0.78584 0.0
C3451 C 0.20192 0.77498 0.78432 0.0
C3452 C 0.22382 0.78756 0.77179 0.0
C3453 C 0.17449 0.77402 0.77353 0.0
C3454 C 0.21664 0.79851 0.74814 0.0
C3455 C 0.19001 0.79714 0.73733 0.0
H3456 H 0.07456 0.44237 0.39474 0.0
H3457 H 0.07705 0.38623 0.45133 0.0
H3458 H 0.07615 0.41992 0.48871 0.0
H3459 H 0.07345 0.46544 0.50615 0.0
H3460 H 0.07109 0.52184 0.45011 0.0
H3461 H 0.07386 0.48877 0.4129 0.0
C3462 C 0.0752 0.43742 0.41523 0.0
C3463 C 0.07589 0.41112 0.41953 0.0
C3464 C 0.07456 0.45726 0.43727 0.0
C3465 C 0.07656 0.40583 0.44669 0.0
C3466 C 0.07597 0.42528 0.46839 0.0
C3467 C 0.07291 0.47056 0.48589 0.0
C3468 C 0.07081 0.49649 0.48164 0.0
C3469 C 0.0746 0.45107 0.46404 0.0
C3470 C 0.072 0.50235 0.45477 0.0
C3471 C 0.07362 0.48321 0.43311 0.0
H3472 H 0.46427 0.29945 0.24638 0.0
H3473 H 0.43891 0.21516 0.23116 0.0
H3474 H 0.39667 0.21806 0.24686 0.0
H3475 H 0.3644 0.24451 0.26378 0.0
H3476 H 0.39049 0.3288 0.2802 0.0
H3477 H 0.43314 0.32568 0.26599 0.0
C3478 C 0.44997 0.2815 0.24717 0.0
C3479 C 0.45636 0.25681 0.23793 0.0
C3480 C 0.42472 0.28331 0.25637 0.0
C3481 C 0.43598 0.23444 0.23846 0.0
C3482 C 0.41122 0.23613 0.24735 0.0
C3483 C 0.37923 0.26236 0.26429 0.0
C3484 C 0.37282 0.28711 0.27335 0.0
C3485 C 0.40489 0.26045 0.25613 0.0
C3486 C 0.39361 0.3094 0.27376 0.0
C3487 C 0.41854 0.30762 0.26541 0.0
H3488 H 0.60231 0.58153 0.37895 0.0
H3489 H 0.67234 0.55622 0.40969 0.0
H3490 H 0.65481 0.54885 0.45173 0.0
H3491 H 0.61993 0.54984 0.48118 0.0
H3492 H 0.54981 0.57525 0.45139 0.0
H3493 H 0.56686 0.58213 0.40865 0.0
C3494 C 0.61365 0.5742 0.39471 0.0
C3495 C 0.63885 0.5696 0.39059 0.0
C3496 C 0.60343 0.57001 0.41958 0.0
C3497 C 0.65305 0.56023 0.41178 0.0
C3498 C 0.64301 0.55593 0.43614 0.0
C3499 C 0.60834 0.5569 0.4654 0.0
C3500 C 0.5834 0.56175 0.46986 0.0
C3501 C 0.61831 0.56089 0.44049 0.0
C3502 C 0.56893 0.571 0.44882 0.0
C3503 C 0.57872 0.57502 0.42416 0.0
H3504 H 0.34497 0.88821 0.07817 0.0
H3505 H 0.32307 0.95462 0.12117 0.0
H3506 H 0.33901 0.94192 0.16472 0.0
H3507 H 0.36046 0.91247 0.19033 0.0
H3508 H 0.3858 0.84843 0.1468 0.0
H3509 H 0.3679 0.85996 0.10354 0.0
C3510 C 0.34344 0.89966 0.09715 0.0
C3511 C 0.33243 0.92193 0.09673 0.0
C3512 C 0.35376 0.89295 0.12187 0.0
C3513 C 0.33122 0.93719 0.12123 0.0
C3514 C 0.34043 0.93001 0.14603 0.0
C3515 C 0.36202 0.90111 0.17131 0.0
C3516 C 0.37434 0.87964 0.17161 0.0
C3517 C 0.35198 0.90807 0.14657 0.0
C3518 C 0.37659 0.86518 0.14695 0.0
C3519 C 0.3662 0.87164 0.12228 0.0
H3520 H 0.97858 0.54193 0.87968 0.0
H3521 H 0.92417 0.57832 0.92115 0.0
H3522 H 0.95609 0.58913 0.96263 0.0
H3523 H 0.99745 0.5843 0.98803 0.0
H3524 H 0.04907 0.54328 0.94719 0.0
H3525 H 1.02058 0.53899 0.90436 0.0
C3526 C 0.97383 0.55267 0.89761 0.0
C3527 C 0.949 0.55924 0.89733 0.0
C3528 C 0.99182 0.55799 0.92154 0.0
C3529 C 0.94311 0.57292 0.92087 0.0
C3530 C 0.96133 0.57907 0.94459 0.0
C3531 C 1.00265 0.57464 0.96975 0.0
C3532 C 0.02546 0.56412 0.97096 0.0
C3533 C 0.98545 0.57107 0.94533 0.0
C3534 C 0.0319 0.55185 0.94695 0.0
C3535 C 1.01543 0.54913 0.92241 0.0
H3536 H 0.28185 0.20893 0.62869 0.0
H3537 H 0.28749 0.28506 0.60218 0.0
H3538 H 0.29289 0.30568 0.64958 0.0
H3539 H 0.29679 0.30227 0.69947 0.0
H3540 H 0.29303 0.22583 0.72493 0.0
H3541 H 0.28598 0.20552 0.67769 0.0
C3542 C 0.28428 0.23007 0.63317 0.0
C3543 C 0.28423 0.24527 0.61149 0.0
C3544 C 0.28767 0.2419 0.66065 0.0
C3545 C 0.28751 0.27269 0.61814 0.0
C3546 C 0.29054 0.28455 0.6454 0.0
C3547 C 0.29423 0.28116 0.69465 0.0
C3548 C 0.29554 0.26573 0.71611 0.0
C3549 C 0.2907 0.2694 0.66697 0.0
C3550 C 0.29231 0.23837 0.70916 0.0
C3551 C 0.28828 0.22664 0.68198 0.0
H3552 H 0.65279 0.56779 0.21187 0.0
H3553 H 0.57796 0.57156 0.23902 0.0
H3554 H 0.55714 0.56675 0.19174 0.0
H3555 H 0.56005 0.56124 0.14205 0.0
H3556 H 0.63449 0.55424 0.11551 0.0
H3557 H 0.65531 0.56056 0.16263 0.0
C3558 C 0.6319 0.56753 0.20749 0.0
C3559 C 0.61707 0.57014 0.22924 0.0
C3560 C 0.61987 0.56415 0.18009 0.0
C3561 C 0.58995 0.56952 0.2229 0.0
C3562 C 0.57801 0.56683 0.19576 0.0
C3563 C 0.58082 0.56106 0.14659 0.0
C3564 C 0.59555 0.55717 0.12494 0.0
C3565 C 0.59272 0.5641 0.17408 0.0
C3566 C 0.62247 0.55695 0.13146 0.0
C3567 C 0.63449 0.56064 0.15855 0.0
H3568 H 0.31587 0.88371 0.96112 0.0
H3569 H 0.27301 0.93135 0.91654 0.0
H3570 H 0.26938 0.90077 0.87484 0.0
H3571 H 0.28071 0.86185 0.85075 0.0
H3572 H 0.32767 0.81733 0.89518 0.0
H3573 H 0.32694 0.84505 0.93729 0.0
C3574 C 0.30524 0.88714 0.94242 0.0
C3575 C 0.29446 0.90961 0.94199 0.0
C3576 C 0.30414 0.8701 0.91843 0.0
C3577 C 0.28132 0.91409 0.91742 0.0
C3578 C 0.27936 0.89669 0.89357 0.0
C3579 C 0.29091 0.85828 0.86958 0.0
C3580 C 0.3043 0.83752 0.86965 0.0
C3581 C 0.29115 0.87489 0.89374 0.0
C3582 C 0.31705 0.833 0.89442 0.0
C3583 C 0.31674 0.84893 0.91858 0.0
H3584 H 0.96475 0.4953 0.75848 0.0
H3585 H 0.9044 0.53132 0.72296 0.0
H3586 H 0.91496 0.5187 0.67742 0.0
H3587 H 0.94009 0.49561 0.64786 0.0
H3588 H 0.99812 0.45672 0.68336 0.0
H3589 H 0.98933 0.47159 0.72891 0.0
C3590 C 0.95421 0.50059 0.74069 0.0
C3591 C 0.9342 0.51446 0.74371 0.0
C3592 C 0.9596 0.49228 0.71473 0.0
C3593 C 0.92007 0.52079 0.7208 0.0
C3594 C 0.92602 0.5135 0.69489 0.0
C3595 C 0.95086 0.49057 0.66564 0.0
C3596 C 0.96975 0.47524 0.66247 0.0
C3597 C 0.9455 0.49894 0.69162 0.0
C3598 C 0.98337 0.4684 0.68548 0.0
C3599 C 0.97847 0.477 0.71144 0.0
H3600 H 0.30432 0.25699 0.46206 0.0
H3601 H 0.24197 0.19176 0.42333 0.0
H3602 H 0.24525 0.20734 0.37983 0.0
H3603 H 0.26621 0.23809 0.35131 0.0
H3604 H 0.3297 0.30315 0.3872 0.0
H3605 H 0.32584 0.28903 0.4322 0.0
C3606 C 0.29112 0.24644 0.44422 0.0
C3607 C 0.27243 0.22314 0.44679 0.0
C3608 C 0.29362 0.25529 0.41819 0.0
C3609 C 0.25624 0.20973 0.42279 0.0
C3610 C 0.25822 0.2186 0.39751 0.0
C3611 C 0.27932 0.24939 0.36883 0.0
C3612 C 0.29834 0.27183 0.36522 0.0
C3613 C 0.27696 0.24112 0.39477 0.0
C3614 C 0.31499 0.28574 0.38876 0.0
C3615 C 0.31265 0.27767 0.41474 0.0
H3616 H 0.32097 0.58682 0.53582 0.0
H3617 H 0.35975 0.66763 0.56487 0.0
H3618 H 0.39988 0.66034 0.54682 0.0
H3619 H 0.42316 0.631 0.52126 0.0
H3620 H 0.38312 0.55058 0.49244 0.0
H3621 H 0.34383 0.55788 0.51163 0.0
C3622 C 0.33816 0.60293 0.53829 0.0
C3623 C 0.33733 0.62779 0.55144 0.0
C3624 C 0.36075 0.59871 0.52764 0.0
C3625 C 0.35995 0.64827 0.55485 0.0
C3626 C 0.38278 0.64417 0.54437 0.0
C3627 C 0.40569 0.61525 0.51908 0.0
C3628 C 0.40579 0.59035 0.50546 0.0
C3629 C 0.38325 0.61954 0.53039 0.0
C3630 C 0.38334 0.56986 0.50296 0.0
C3631 C 0.36097 0.574 0.51392 0.0
H3632 H 0.89953 0.96651 0.58399 0.0
H3633 H 0.9238 0.89759 0.54996 0.0
H3634 H 0.9682 0.92395 0.54894 0.0
H3635 H 0.99867 0.96723 0.55403 0.0
H3636 H 0.97276 0.03668 0.58352 0.0
H3637 H 0.93111 1.0096 0.59144 0.0
C3638 C 0.91455 0.95737 0.57618 0.0
C3639 C 0.90815 0.93043 0.56588 0.0
C3640 C 0.93976 0.9728 0.575 0.0
C3641 C 0.92811 0.91845 0.55728 0.0
C3642 C 0.95346 0.93354 0.55668 0.0
C3643 C 0.98369 0.97663 0.5614 0.0
C3644 C 0.98817 1.00434 0.56617 0.0
C3645 C 0.95923 0.96088 0.56464 0.0
C3646 C 0.96923 1.01572 0.57792 0.0
C3647 C 0.9455 1.00012 0.58279 0.0
H3648 H 0.89683 0.08331 0.2676 0.0
H3649 H 0.97393 0.11013 0.31467 0.0
H3650 H 0.96539 0.1544 0.324 0.0
H3651 H 0.93417 0.18365 0.32267 0.0
H3652 H 0.85842 0.15765 0.27176 0.0
H3653 H 0.868 0.11454 0.26096 0.0
C3654 C 0.91201 0.09903 0.27934 0.0
C3655 C 0.93606 0.09353 0.2903 0.0
C3656 C 0.9069 0.12432 0.28461 0.0
C3657 C 0.95549 0.114 0.30563 0.0
C3658 C 0.95042 0.1392 0.31124 0.0
C3659 C 0.91984 0.16905 0.30858 0.0
C3660 C 0.89525 0.17443 0.29853 0.0
C3661 C 0.92591 0.1444 0.30138 0.0
C3662 C 0.8771 0.15438 0.28078 0.0
C3663 C 0.88271 0.12962 0.27419 0.0
H3664 H 0.68173 0.15062 0.05631 0.0
H3665 H 0.71776 0.09282 0.09108 0.0
H3666 H 0.67403 0.06522 0.09259 0.0
H3667 H 0.62574 0.05493 0.07645 0.0
H3668 H 0.59054 0.11784 0.05394 0.0
H3669 H 0.6336 0.14585 0.05355 0.0
C3670 C 0.67991 0.13201 0.06428 0.0
C3671 C 0.70246 0.1224 0.07138 0.0
C3672 C 0.65496 0.11682 0.06582 0.0
C3673 C 0.70026 0.09935 0.08355 0.0
C3674 C 0.67538 0.0838 0.08469 0.0
C3675 C 0.62758 0.07482 0.07159 0.0
C3676 C 0.60509 0.08329 0.06125 0.0
C3677 C 0.65259 0.09172 0.07441 0.0
C3678 C 0.60756 0.10961 0.05729 0.0
C3679 C 0.63227 0.12603 0.05843 0.0
H3680 H 0.20173 0.48429 0.28514 0.0
H3681 H 0.28521 0.51806 0.29263 0.0
H3682 H 0.29536 0.47905 0.30996 0.0
H3683 H 0.28062 0.43808 0.32811 0.0
H3684 H 0.19709 0.40463 0.32247 0.0
H3685 H 0.18696 0.44084 0.29977 0.0
C3686 C 0.22211 0.48275 0.28992 0.0
C3687 C 0.24267 0.50399 0.28759 0.0
C3688 C 0.22784 0.46057 0.30083 0.0
C3689 C 0.26902 0.50196 0.29428 0.0
C3690 C 0.27485 0.47973 0.30435 0.0
C3691 C 0.26018 0.43824 0.3214 0.0
C3692 C 0.23974 0.41843 0.32716 0.0
C3693 C 0.25442 0.45929 0.30852 0.0
C3694 C 0.21336 0.4196 0.3187 0.0
C3695 C 0.20748 0.44032 0.30555 0.0
H3696 H 0.26841 0.44306 1.00951 0.0
H3697 H 0.27042 0.42115 0.09018 0.0
H3698 H 0.23667 0.44596 0.09955 0.0
H3699 H 0.2112 0.47888 0.08683 0.0
H3700 H 0.20895 0.50017 1.00594 0.0
H3701 H 0.23805 0.47058 0.99457 0.0
C3702 C 0.26096 0.44315 0.02891 0.0
C3703 C 0.27208 0.43038 0.04917 0.0
C3704 C 0.24183 0.45775 0.03426 0.0
C3705 C 0.26211 0.43058 0.07414 0.0
C3706 C 0.24303 0.44507 0.07963 0.0
C3707 C 0.21682 0.4767 0.0666 0.0
C3708 C 0.20823 0.49192 0.04732 0.0
C3709 C 0.23349 0.45953 0.06019 0.0
C3710 C 0.21531 0.48868 0.02109 0.0
C3711 C 0.23204 0.47185 0.01464 0.0
H3712 H 0.93565 0.94055 0.31196 0.0
H3713 H 0.88883 0.95936 0.24352 0.0
H3714 H 0.85519 0.91901 0.24308 0.0
H3715 H 0.83842 0.87857 0.26336 0.0
H3716 H 0.88137 0.86558 0.33727 0.0
H3717 H 0.91711 0.90262 0.33438 0.0
C3718 C 0.91814 0.93564 0.29688 0.0
C3719 C 0.91459 0.95292 0.27792 0.0
C3720 C 0.89815 0.91321 0.29777 0.0
C3721 C 0.89186 0.94639 0.25844 0.0
C3722 C 0.87259 0.92336 0.25824 0.0
C3723 C 0.85531 0.88427 0.27915 0.0
C3724 C 0.8573 0.869 0.30047 0.0
C3725 C 0.87524 0.90681 0.27815 0.0
C3726 C 0.87952 0.87651 0.32046 0.0
C3727 C 0.90005 0.8978 0.31877 0.0
H3728 H 0.76592 0.15059 0.7479 0.0
H3729 H 0.69469 0.16694 0.77527 0.0
H3730 H 0.71247 0.21402 0.77818 0.0
H3731 H 0.74927 0.24997 0.77679 0.0
H3732 H 0.82399 0.23506 0.75839 0.0
H3733 H 0.80345 0.18799 0.74592 0.0
C3734 C 0.75459 0.16461 0.7548 0.0
C3735 C 0.72966 0.15564 0.76263 0.0
C3736 C 0.76544 0.19172 0.75757 0.0
C3737 C 0.71428 0.17363 0.76997 0.0
C3738 C 0.7244 0.20046 0.77161 0.0
C3739 C 0.7615 0.23639 0.77131 0.0
C3740 C 0.78847 0.24567 0.7703 0.0
C3741 C 0.75025 0.20961 0.76643 0.0
C3742 C 0.80333 0.22816 0.76025 0.0
C3743 C 0.7916 0.20135 0.75317 0.0
loop_
_geom_bond_atom_site_label_1
_geom_bond_atom_site_label_2
_geom_bond_distance
_geom_bond_site_symmetry_2
_ccdc_geom_bond_type
Mn0 O5 2.095 . S
Mn0 O15 2.162 . S
Mn0 O16 2.297 . S
Mn0 O24 2.385 1_455 S
Mn0 O25 2.209 . S
Mn0 O26 2.094 . S
Mn1 O6 2.121 . S
Mn1 N8 2.257 . S
Mn1 N17 2.282 . S
Mn1 O25 2.215 . S
Mn1 O27 2.117 . S
C2 O24 1.234 . S
C2 O25 1.282 1_655 S
C3 O15 1.281 . S
C3 O16 1.236 . S
C4 O26 1.240 . S
C4 O27 1.264 . S
O5 Mn0 2.095 . S
O5 C14 1.250 . S
O6 Mn1 2.121 . S
O6 C14 1.258 . S
C7 N8 1.326 . S
C7 C11 1.460 . S
C7 H13 0.929 . S
N8 Mn1 2.257 . S
N8 C7 1.326 . S
N8 C12 1.362 . S
C9 C10 1.258 1_655 S
C9 C12 1.431 1_655 S
C9 C29 1.449 . S
C10 C9 1.258 1_455 S
C10 C11 1.477 . S
C10 H30 0.931 1_455 S
C11 C7 1.460 . S
C11 C10 1.477 . S
C11 H31 0.930 . S
C12 N8 1.362 . S
C12 C9 1.431 1_455 S
C12 C22 1.476 1_455 S
H13 C7 0.929 . S
C14 O5 1.250 . S
C14 O6 1.258 . S
O15 Mn0 2.162 . S
O15 C3 1.281 . S
O16 Mn0 2.297 . S
O16 C3 1.236 . S
N17 Mn1 2.282 . S
N17 C18 1.328 1_455 S
N17 C22 1.318 1_455 S
C18 N17 1.328 1_655 S
C18 C19 1.457 . S
C18 H23 0.929 1_655 S
C19 C18 1.457 . S
C19 C20 1.291 . S
C19 H32 0.931 . S
C20 C19 1.291 . S
C20 C21 1.373 . S
C20 H33 0.929 . S
C21 C20 1.373 . S
C21 C22 1.396 . S
C21 C28 1.403 . S
C22 C12 1.476 1_655 S
C22 N17 1.318 1_655 S
C22 C21 1.396 . S
H23 C18 0.929 1_455 S
O24 Mn0 2.385 1_655 S
O24 C2 1.234 . S
O25 Mn0 2.209 . S
O25 Mn1 2.215 . S
O25 C2 1.282 1_455 S
O26 Mn0 2.094 . S
O26 C4 1.240 . S
O27 Mn1 2.117 . S
O27 C4 1.264 . S
C28 C21 1.403 . S
C28 C29 1.399 . S
C28 H34 0.929 . S
C29 C9 1.449 . S
C29 C28 1.399 . S
C29 H35 0.930 . S
H30 C10 0.931 1_655 S
H31 C11 0.930 . S
H32 C19 0.931 . S
H33 C20 0.929 . S
H34 C28 0.929 . S
H35 C29 0.930 . S
Mn36 O41 2.095 1_455 S
Mn36 O51 2.162 . S
Mn36 O52 2.297 . S
Mn36 O60 2.385 . S
Mn36 O61 2.209 . S
Mn36 O62 2.094 . S
Mn37 O42 2.121 1_455 S
Mn37 N44 2.257 . S
Mn37 N53 2.282 . S
Mn37 O61 2.215 . S
Mn37 O63 2.117 . S
C38 O60 1.234 . S
C38 O61 1.283 . S
C39 O51 1.281 . S
C39 O52 1.236 . S
C40 O62 1.240 . S
C40 O63 1.264 . S
O41 Mn36 2.095 1_655 S
O41 C50 1.250 . S
O42 Mn37 2.121 1_655 S
O42 C50 1.258 . S
C43 N44 1.326 . S
C43 C47 1.460 . S
C43 H49 0.929 . S
N44 Mn37 2.257 . S
N44 C43 1.326 . S
N44 C48 1.362 . S
C45 C46 1.258 . S
C45 C48 1.431 . S
C45 C65 1.449 . S
C46 C45 1.258 . S
C46 C47 1.477 . S
C46 H66 0.931 . S
C47 C43 1.460 . S
C47 C46 1.477 . S
C47 H67 0.930 . S
C48 N44 1.362 . S
C48 C45 1.431 . S
C48 C58 1.476 . S
H49 C43 0.929 . S
C50 O41 1.250 . S
C50 O42 1.258 . S
O51 Mn36 2.162 . S
O51 C39 1.281 . S
O52 Mn36 2.297 . S
O52 C39 1.236 . S
N53 Mn37 2.282 . S
N53 C54 1.328 . S
N53 C58 1.318 . S
C54 N53 1.328 . S
C54 C55 1.457 . S
C54 H59 0.929 . S
C55 C54 1.457 . S
C55 C56 1.291 . S
C55 H68 0.931 . S
C56 C55 1.291 . S
C56 C57 1.373 . S
C56 H69 0.929 . S
C57 C56 1.373 . S
C57 C58 1.396 . S
C57 C64 1.403 . S
C58 C48 1.476 . S
C58 N53 1.318 . S
C58 C57 1.396 . S
H59 C54 0.929 . S
O60 Mn36 2.385 . S
O60 C38 1.234 . S
O61 Mn36 2.209 . S
O61 Mn37 2.215 . S
O61 C38 1.283 . S
O62 Mn36 2.094 . S
O62 C40 1.240 . S
O63 Mn37 2.117 . S
O63 C40 1.264 . S
C64 C57 1.403 . S
C64 C65 1.399 . S
C64 H70 0.929 . S
C65 C45 1.449 . S
C65 C64 1.399 . S
C65 H71 0.930 . S
H66 C46 0.931 . S
H67 C47 0.930 . S
H68 C55 0.931 . S
H69 C56 0.929 . S
H70 C64 0.929 . S
H71 C65 0.930 . S
Mn72 O77 2.095 . S
Mn72 O87 2.162 . S
Mn72 O88 2.297 . S
Mn72 O96 2.385 . S
Mn72 O97 2.209 . S
Mn72 O98 2.094 . S
Mn73 O78 2.121 . S
Mn73 N80 2.257 . S
Mn73 N89 2.282 . S
Mn73 O97 2.215 . S
Mn73 O99 2.117 . S
C74 O96 1.234 . S
C74 O97 1.283 . S
C75 O87 1.281 . S
C75 O88 1.236 . S
C76 O98 1.240 . S
C76 O99 1.264 . S
O77 Mn72 2.095 . S
O77 C86 1.250 . S
O78 Mn73 2.121 . S
O78 C86 1.258 . S
C79 N80 1.326 . S
C79 C83 1.460 . S
C79 H85 0.929 . S
N80 Mn73 2.257 . S
N80 C79 1.326 . S
N80 C84 1.362 . S
C81 C82 1.258 . S
C81 C84 1.431 . S
C81 C101 1.449 . S
C82 C81 1.258 . S
C82 C83 1.477 . S
C82 H102 0.931 . S
C83 C79 1.460 . S
C83 C82 1.477 . S
C83 H103 0.930 . S
C84 N80 1.362 . S
C84 C81 1.431 . S
C84 C94 1.476 . S
H85 C79 0.929 . S
C86 O77 1.250 . S
C86 O78 1.258 . S
O87 Mn72 2.162 . S
O87 C75 1.281 . S
O88 Mn72 2.297 . S
O88 C75 1.236 . S
N89 Mn73 2.282 . S
N89 C90 1.328 . S
N89 C94 1.318 . S
C90 N89 1.328 . S
C90 C91 1.457 . S
C90 H95 0.929 . S
C91 C90 1.457 . S
C91 C92 1.291 . S
C91 H104 0.931 . S
C92 C91 1.291 . S
C92 C93 1.373 . S
C92 H105 0.929 . S
C93 C92 1.373 . S
C93 C94 1.396 . S
C93 C100 1.403 . S
C94 C84 1.476 . S
C94 N89 1.318 . S
C94 C93 1.396 . S
H95 C90 0.929 . S
O96 Mn72 2.385 . S
O96 C74 1.234 . S
O97 Mn72 2.209 . S
O97 Mn73 2.215 . S
O97 C74 1.283 . S
O98 Mn72 2.094 . S
O98 C76 1.240 . S
O99 Mn73 2.117 . S
O99 C76 1.264 . S
C100 C93 1.403 . S
C100 C101 1.399 . S
C100 H106 0.929 . S
C101 C81 1.449 . S
C101 C100 1.399 . S
C101 H107 0.930 . S
H102 C82 0.931 . S
H103 C83 0.930 . S
H104 C91 0.931 . S
H105 C92 0.929 . S
H106 C100 0.929 . S
H107 C101 0.930 . S
Mn108 O113 2.095 . S
Mn108 O123 2.162 . S
Mn108 O124 2.297 . S
Mn108 O132 2.385 . S
Mn108 O133 2.209 . S
Mn108 O134 2.094 . S
Mn109 O114 2.121 . S
Mn109 N116 2.257 . S
Mn109 N125 2.282 . S
Mn109 O133 2.215 . S
Mn109 O135 2.117 . S
C110 O132 1.234 . S
C110 O133 1.283 . S
C111 O123 1.281 . S
C111 O124 1.236 . S
C112 O134 1.240 . S
C112 O135 1.264 . S
O113 Mn108 2.095 . S
O113 C122 1.250 . S
O114 Mn109 2.121 . S
O114 C122 1.258 . S
C115 N116 1.326 . S
C115 C119 1.460 . S
C115 H121 0.929 . S
N116 Mn109 2.257 . S
N116 C115 1.326 . S
N116 C120 1.362 . S
C117 C118 1.258 . S
C117 C120 1.431 . S
C117 C137 1.449 . S
C118 C117 1.258 . S
C118 C119 1.477 . S
C118 H138 0.931 . S
C119 C115 1.460 . S
C119 C118 1.477 . S
C119 H139 0.930 . S
C120 N116 1.362 . S
C120 C117 1.431 . S
C120 C130 1.476 . S
H121 C115 0.929 . S
C122 O113 1.250 . S
C122 O114 1.258 . S
O123 Mn108 2.162 . S
O123 C111 1.281 . S
O124 Mn108 2.297 . S
O124 C111 1.236 . S
N125 Mn109 2.282 . S
N125 C126 1.328 . S
N125 C130 1.318 . S
C126 N125 1.328 . S
C126 C127 1.457 . S
C126 H131 0.929 . S
C127 C126 1.457 . S
C127 C128 1.291 . S
C127 H140 0.931 . S
C128 C127 1.291 . S
C128 C129 1.373 . S
C128 H141 0.929 . S
C129 C128 1.373 . S
C129 C130 1.396 . S
C129 C136 1.403 . S
C130 C120 1.476 . S
C130 N125 1.318 . S
C130 C129 1.396 . S
H131 C126 0.929 . S
O132 Mn108 2.385 . S
O132 C110 1.234 . S
O133 Mn108 2.209 . S
O133 Mn109 2.215 . S
O133 C110 1.283 . S
O134 Mn108 2.094 . S
O134 C112 1.240 . S
O135 Mn109 2.117 . S
O135 C112 1.264 . S
C136 C129 1.403 . S
C136 C137 1.399 . S
C136 H142 0.929 . S
C137 C117 1.449 . S
C137 C136 1.399 . S
C137 H143 0.930 . S
H138 C118 0.931 . S
H139 C119 0.930 . S
H140 C127 0.931 . S
H141 C128 0.929 . S
H142 C136 0.929 . S
H143 C137 0.930 . S
Mn144 O149 2.095 . S
Mn144 O159 2.162 . S
Mn144 O160 2.297 . S
Mn144 O168 2.385 . S
Mn144 O169 2.209 . S
Mn144 O170 2.094 . S
Mn145 O150 2.121 . S
Mn145 N152 2.257 . S
Mn145 N161 2.273 1_455 S
Mn145 O169 2.215 . S
Mn145 O171 2.117 . S
C146 O168 1.234 . S
C146 O169 1.283 . S
C147 O159 1.281 . S
C147 O160 1.236 . S
C148 O170 1.240 . S
C148 O171 1.264 . S
O149 Mn144 2.095 . S
O149 C158 1.250 . S
O150 Mn145 2.121 . S
O150 C158 1.258 . S
C151 N152 1.326 . S
C151 C155 1.460 1_554 S
C151 H157 0.929 . S
N152 Mn145 2.257 . S
N152 C151 1.326 . S
N152 C156 1.362 . S
C153 C154 1.258 . S
C153 C156 1.431 1_556 S
C153 C173 1.449 1_455 S
C154 C153 1.258 . S
C154 C155 1.477 . S
C154 H174 0.931 . S
C155 C151 1.460 1_556 S
C155 C154 1.477 . S
C155 H175 0.930 . S
C156 N152 1.362 . S
C156 C153 1.431 1_554 S
C156 C166 1.476 1_455 S
H157 C151 0.929 . S
C158 O149 1.250 . S
C158 O150 1.258 . S
O159 Mn144 2.162 . S
O159 C147 1.281 . S
O160 Mn144 2.297 . S
O160 C147 1.236 . S
N161 Mn145 2.273 1_655 S
N161 C162 1.339 . S
N161 C166 1.314 . S
C162 N161 1.339 . S
C162 C163 1.457 . S
C162 H167 0.929 . S
C163 C162 1.457 . S
C163 C164 1.291 . S
C163 H176 0.931 . S
C164 C163 1.291 . S
C164 C165 1.373 . S
C164 H177 0.929 . S
C165 C164 1.373 . S
C165 C166 1.396 . S
C165 C172 1.403 . S
C166 C156 1.476 1_655 S
C166 N161 1.314 . S
C166 C165 1.396 . S
H167 C162 0.929 . S
O168 Mn144 2.385 . S
O168 C146 1.234 . S
O169 Mn144 2.209 . S
O169 Mn145 2.215 . S
O169 C146 1.283 . S
O170 Mn144 2.094 . S
O170 C148 1.240 . S
O171 Mn145 2.117 . S
O171 C148 1.264 . S
C172 C165 1.403 . S
C172 C173 1.399 1_554 S
C172 H178 0.929 1_554 S
C173 C153 1.449 1_655 S
C173 C172 1.399 1_556 S
C173 H179 0.930 . S
H174 C154 0.931 . S
H175 C155 0.930 . S
H176 C163 0.931 . S
H177 C164 0.929 . S
H178 C172 0.929 1_556 S
H179 C173 0.930 . S
Mn180 O185 2.095 . S
Mn180 O195 2.162 . S
Mn180 O196 2.297 . S
Mn180 O204 2.385 . S
Mn180 O205 2.209 . S
Mn180 O206 2.094 . S
Mn181 O186 2.121 . S
Mn181 N188 2.257 . S
Mn181 N197 2.282 . S
Mn181 O205 2.215 . S
Mn181 O207 2.117 . S
C182 O204 1.234 . S
C182 O205 1.283 . S
C183 O195 1.281 . S
C183 O196 1.236 . S
C184 O206 1.240 . S
C184 O207 1.264 . S
O185 Mn180 2.095 . S
O185 C194 1.250 . S
O186 Mn181 2.121 . S
O186 C194 1.258 . S
C187 N188 1.326 . S
C187 C191 1.460 . S
C187 H193 0.929 . S
N188 Mn181 2.257 . S
N188 C187 1.326 . S
N188 C192 1.362 . S
C189 C190 1.258 . S
C189 C192 1.431 . S
C189 C209 1.449 . S
C190 C189 1.258 . S
C190 C191 1.477 . S
C190 H210 0.931 . S
C191 C187 1.460 . S
C191 C190 1.477 . S
C191 H211 0.930 . S
C192 N188 1.362 . S
C192 C189 1.431 . S
C192 C202 1.476 . S
H193 C187 0.929 . S
C194 O185 1.250 . S
C194 O186 1.258 . S
O195 Mn180 2.162 . S
O195 C183 1.281 . S
O196 Mn180 2.297 . S
O196 C183 1.236 . S
N197 Mn181 2.282 . S
N197 C198 1.328 . S
N197 C202 1.318 . S
C198 N197 1.328 . S
C198 C199 1.457 . S
C198 H203 0.929 . S
C199 C198 1.457 . S
C199 C200 1.291 . S
C199 H212 0.931 . S
C200 C199 1.291 . S
C200 C201 1.373 . S
C200 H213 0.929 . S
C201 C200 1.373 . S
C201 C202 1.396 . S
C201 C208 1.403 . S
C202 C192 1.476 . S
C202 N197 1.318 . S
C202 C201 1.396 . S
H203 C198 0.929 . S
O204 Mn180 2.385 . S
O204 C182 1.234 . S
O205 Mn180 2.209 . S
O205 Mn181 2.215 . S
O205 C182 1.283 . S
O206 Mn180 2.094 . S
O206 C184 1.240 . S
O207 Mn181 2.117 . S
O207 C184 1.264 . S
C208 C201 1.403 . S
C208 C209 1.399 . S
C208 H214 0.929 . S
C209 C189 1.449 . S
C209 C208 1.399 . S
C209 H215 0.930 . S
H210 C190 0.931 . S
H211 C191 0.930 . S
H212 C199 0.931 . S
H213 C200 0.929 . S
H214 C208 0.929 . S
H215 C209 0.930 . S
Mn216 O221 2.095 . S
Mn216 O231 2.162 . S
Mn216 O232 2.297 . S
Mn216 O240 2.385 . S
Mn216 O241 2.209 . S
Mn216 O242 2.094 . S
Mn217 O222 2.121 . S
Mn217 N224 2.257 . S
Mn217 N233 2.282 . S
Mn217 O241 2.215 . S
Mn217 O243 2.117 . S
C218 O240 1.234 . S
C218 O241 1.283 . S
C219 O231 1.281 . S
C219 O232 1.236 . S
C220 O242 1.240 . S
C220 O243 1.264 . S
O221 Mn216 2.095 . S
O221 C230 1.250 . S
O222 Mn217 2.121 . S
O222 C230 1.258 . S
C223 N224 1.326 . S
C223 C227 1.460 . S
C223 H229 0.929 . S
N224 Mn217 2.257 . S
N224 C223 1.326 . S
N224 C228 1.362 . S
C225 C226 1.258 . S
C225 C228 1.431 . S
C225 C245 1.449 . S
C226 C225 1.258 . S
C226 C227 1.477 . S
C226 H246 0.931 . S
C227 C223 1.460 . S
C227 C226 1.477 . S
C227 H247 0.930 . S
C228 N224 1.362 . S
C228 C225 1.431 . S
C228 C238 1.476 . S
H229 C223 0.929 . S
C230 O221 1.250 . S
C230 O222 1.258 . S
O231 Mn216 2.162 . S
O231 C219 1.281 . S
O232 Mn216 2.297 . S
O232 C219 1.236 . S
N233 Mn217 2.282 . S
N233 C234 1.328 . S
N233 C238 1.318 . S
C234 N233 1.328 . S
C234 C235 1.457 . S
C234 H239 0.929 . S
C235 C234 1.457 . S
C235 C236 1.291 . S
C235 H248 0.931 . S
C236 C235 1.291 . S
C236 C237 1.373 . S
C236 H249 0.929 . S
C237 C236 1.373 . S
C237 C238 1.396 . S
C237 C244 1.403 . S
C238 C228 1.476 . S
C238 N233 1.318 . S
C238 C237 1.396 . S
H239 C234 0.929 . S
O240 Mn216 2.385 . S
O240 C218 1.234 . S
O241 Mn216 2.209 . S
O241 Mn217 2.215 . S
O241 C218 1.283 . S
O242 Mn216 2.094 . S
O242 C220 1.240 . S
O243 Mn217 2.117 . S
O243 C220 1.264 . S
C244 C237 1.403 . S
C244 C245 1.399 . S
C244 H250 0.929 . S
C245 C225 1.449 . S
C245 C244 1.399 . S
C245 H251 0.930 . S
H246 C226 0.931 . S
H247 C227 0.930 . S
H248 C235 0.931 . S
H249 C236 0.929 . S
H250 C244 0.929 . S
H251 C245 0.930 . S
Mn252 O257 2.089 1_655 S
Mn252 O267 2.161 1_655 S
Mn252 O268 2.296 . S
Mn252 O276 2.392 . S
Mn252 O277 2.211 . S
Mn252 O278 2.095 1_655 S
Mn253 O258 2.121 1_655 S
Mn253 N260 2.257 . S
Mn253 N269 2.282 . S
Mn253 O277 2.215 . S
Mn253 O279 2.117 1_655 S
C254 O276 1.234 . S
C254 O277 1.283 . S
C255 O267 1.281 1_655 S
C255 O268 1.236 . S
C256 O278 1.240 . S
C256 O279 1.264 . S
O257 Mn252 2.089 1_455 S
O257 C266 1.250 . S
O258 Mn253 2.121 1_455 S
O258 C266 1.258 . S
C259 N260 1.326 . S
C259 C263 1.460 . S
C259 H265 0.929 1_655 S
N260 Mn253 2.257 . S
N260 C259 1.326 . S
N260 C264 1.362 . S
C261 C262 1.258 . S
C261 C264 1.431 . S
C261 C281 1.449 . S
C262 C261 1.258 . S
C262 C263 1.477 . S
C262 H282 0.931 . S
C263 C259 1.460 . S
C263 C262 1.477 . S
C263 H283 0.930 . S
C264 N260 1.362 . S
C264 C261 1.431 . S
C264 C274 1.476 . S
H265 C259 0.929 1_455 S
C266 O257 1.250 . S
C266 O258 1.258 . S
O267 Mn252 2.161 1_455 S
O267 C255 1.281 1_455 S
O268 Mn252 2.296 . S
O268 C255 1.236 . S
N269 Mn253 2.282 . S
N269 C270 1.328 . S
N269 C274 1.318 . S
C270 N269 1.328 . S
C270 C271 1.457 . S
C270 H275 0.929 . S
C271 C270 1.457 . S
C271 C272 1.291 . S
C271 H284 0.931 . S
C272 C271 1.291 . S
C272 C273 1.373 . S
C272 H285 0.929 . S
C273 C272 1.373 . S
C273 C274 1.396 . S
C273 C280 1.403 . S
C274 C264 1.476 . S
C274 N269 1.318 . S
C274 C273 1.396 . S
H275 C270 0.929 . S
O276 Mn252 2.392 . S
O276 C254 1.234 . S
O277 Mn252 2.211 . S
O277 Mn253 2.215 . S
O277 C254 1.283 . S
O278 Mn252 2.095 1_455 S
O278 C256 1.240 . S
O279 Mn253 2.117 1_455 S
O279 C256 1.264 . S
C280 C273 1.403 . S
C280 C281 1.399 . S
C280 H286 0.929 . S
C281 C261 1.449 . S
C281 C280 1.399 . S
C281 H287 0.930 . S
H282 C262 0.931 . S
H283 C263 0.930 . S
H284 C271 0.931 . S
H285 C272 0.929 . S
H286 C280 0.929 . S
H287 C281 0.930 . S
Mn288 O293 2.095 . S
Mn288 O303 2.162 . S
Mn288 O304 2.297 . S
Mn288 O312 2.385 1_545 S
Mn288 O313 2.209 1_545 S
Mn288 O314 2.094 . S
Mn289 O294 2.164 . S
Mn289 N296 2.249 1_545 S
Mn289 N305 2.238 1_545 S
Mn289 O313 2.197 1_545 S
Mn289 O315 2.115 . S
C290 O312 1.234 . S
C290 O313 1.283 . S
C291 O303 1.281 . S
C291 O304 1.236 . S
C292 O314 1.240 . S
C292 O315 1.264 . S
O293 Mn288 2.095 . S
O293 C302 1.250 . S
O294 Mn289 2.164 . S
O294 C302 1.258 . S
C295 N296 1.326 . S
C295 C299 1.460 . S
C295 H301 0.929 1_565 S
N296 Mn289 2.249 1_565 S
N296 C295 1.326 . S
N296 C300 1.362 . S
C297 C298 1.258 . S
C297 C300 1.431 . S
C297 C317 1.449 . S
C298 C297 1.258 . S
C298 C299 1.477 . S
C298 H318 0.931 . S
C299 C295 1.460 . S
C299 C298 1.477 . S
C299 H319 0.930 . S
C300 N296 1.362 . S
C300 C297 1.431 . S
C300 C310 1.476 . S
H301 C295 0.929 1_545 S
C302 O293 1.250 . S
C302 O294 1.258 . S
O303 Mn288 2.162 . S
O303 C291 1.281 . S
O304 Mn288 2.297 . S
O304 C291 1.236 . S
N305 Mn289 2.238 1_565 S
N305 C306 1.328 . S
N305 C310 1.318 . S
C306 N305 1.328 . S
C306 C307 1.457 . S
C306 H311 0.929 . S
C307 C306 1.457 . S
C307 C308 1.291 . S
C307 H320 0.931 . S
C308 C307 1.291 . S
C308 C309 1.373 . S
C308 H321 0.929 . S
C309 C308 1.373 . S
C309 C310 1.396 . S
C309 C316 1.403 . S
C310 C300 1.476 . S
C310 N305 1.318 . S
C310 C309 1.396 . S
H311 C306 0.929 . S
O312 Mn288 2.385 1_565 S
O312 C290 1.234 . S
O313 Mn288 2.209 1_565 S
O313 Mn289 2.197 1_565 S
O313 C290 1.283 . S
O314 Mn288 2.094 . S
O314 C292 1.240 . S
O315 Mn289 2.115 . S
O315 C292 1.264 . S
C316 C309 1.403 . S
C316 C317 1.399 . S
C316 H322 0.929 . S
C317 C297 1.449 . S
C317 C316 1.399 . S
C317 H323 0.930 . S
H318 C298 0.931 . S
H319 C299 0.930 . S
H320 C307 0.931 . S
H321 C308 0.929 . S
H322 C316 0.929 . S
H323 C317 0.930 . S
Mn324 O329 2.095 . S
Mn324 O339 2.162 . S
Mn324 O340 2.297 . S
Mn324 O348 2.385 . S
Mn324 O349 2.209 . S
Mn324 O350 2.094 . S
Mn325 O330 2.121 . S
Mn325 N332 2.257 . S
Mn325 N341 2.282 . S
Mn325 O349 2.215 . S
Mn325 O351 2.117 . S
C326 O348 1.234 . S
C326 O349 1.283 . S
C327 O339 1.281 . S
C327 O340 1.236 . S
C328 O350 1.240 . S
C328 O351 1.264 . S
O329 Mn324 2.095 . S
O329 C338 1.250 . S
O330 Mn325 2.121 . S
O330 C338 1.258 . S
C331 N332 1.326 . S
C331 C335 1.460 . S
C331 H337 0.929 . S
N332 Mn325 2.257 . S
N332 C331 1.326 . S
N332 C336 1.362 . S
C333 C334 1.258 . S
C333 C336 1.431 . S
C333 C353 1.449 . S
C334 C333 1.258 . S
C334 C335 1.477 . S
C334 H354 0.931 . S
C335 C331 1.460 . S
C335 C334 1.477 . S
C335 H355 0.930 . S
C336 N332 1.362 . S
C336 C333 1.431 . S
C336 C346 1.476 . S
H337 C331 0.929 . S
C338 O329 1.250 . S
C338 O330 1.258 . S
O339 Mn324 2.162 . S
O339 C327 1.281 . S
O340 Mn324 2.297 . S
O340 C327 1.236 . S
N341 Mn325 2.282 . S
N341 C342 1.328 . S
N341 C346 1.318 . S
C342 N341 1.328 . S
C342 C343 1.457 . S
C342 H347 0.929 . S
C343 C342 1.457 . S
C343 C344 1.291 . S
C343 H356 0.931 . S
C344 C343 1.291 . S
C344 C345 1.373 . S
C344 H357 0.929 . S
C345 C344 1.373 . S
C345 C346 1.396 . S
C345 C352 1.403 . S
C346 C336 1.476 . S
C346 N341 1.318 . S
C346 C345 1.396 . S
H347 C342 0.929 . S
O348 Mn324 2.385 . S
O348 C326 1.234 . S
O349 Mn324 2.209 . S
O349 Mn325 2.215 . S
O349 C326 1.283 . S
O350 Mn324 2.094 . S
O350 C328 1.240 . S
O351 Mn325 2.117 . S
O351 C328 1.264 . S
C352 C345 1.403 . S
C352 C353 1.399 . S
C352 H358 0.929 . S
C353 C333 1.449 . S
C353 C352 1.399 . S
C353 H359 0.930 . S
H354 C334 0.931 . S
H355 C335 0.930 . S
H356 C343 0.931 . S
H357 C344 0.929 . S
H358 C352 0.929 . S
H359 C353 0.930 . S
Mn360 O365 2.095 . S
Mn360 O375 2.162 . S
Mn360 O376 2.297 . S
Mn360 O384 2.385 . S
Mn360 O385 2.209 . S
Mn360 O386 2.094 . S
Mn361 O366 2.121 . S
Mn361 N368 2.257 . S
Mn361 N377 2.282 . S
Mn361 O385 2.215 . S
Mn361 O387 2.117 . S
C362 O384 1.234 . S
C362 O385 1.283 . S
C363 O375 1.281 . S
C363 O376 1.236 . S
C364 O386 1.240 . S
C364 O387 1.264 . S
O365 Mn360 2.095 . S
O365 C374 1.250 . S
O366 Mn361 2.121 . S
O366 C374 1.258 . S
C367 N368 1.326 . S
C367 C371 1.460 . S
C367 H373 0.929 . S
N368 Mn361 2.257 . S
N368 C367 1.326 . S
N368 C372 1.362 . S
C369 C370 1.258 . S
C369 C372 1.431 . S
C369 C389 1.449 . S
C370 C369 1.258 . S
C370 C371 1.477 . S
C370 H390 0.931 . S
C371 C367 1.460 . S
C371 C370 1.477 . S
C371 H391 0.930 . S
C372 N368 1.362 . S
C372 C369 1.431 . S
C372 C382 1.476 . S
H373 C367 0.929 . S
C374 O365 1.250 . S
C374 O366 1.258 . S
O375 Mn360 2.162 . S
O375 C363 1.281 . S
O376 Mn360 2.297 . S
O376 C363 1.236 . S
N377 Mn361 2.282 . S
N377 C378 1.328 . S
N377 C382 1.318 . S
C378 N377 1.328 . S
C378 C379 1.457 . S
C378 H383 0.929 . S
C379 C378 1.457 . S
C379 C380 1.291 . S
C379 H392 0.931 . S
C380 C379 1.291 . S
C380 C381 1.373 . S
C380 H393 0.929 . S
C381 C380 1.373 . S
C381 C382 1.396 . S
C381 C388 1.403 . S
C382 C372 1.476 . S
C382 N377 1.318 . S
C382 C381 1.396 . S
H383 C378 0.929 . S
O384 Mn360 2.385 . S
O384 C362 1.234 . S
O385 Mn360 2.209 . S
O385 Mn361 2.215 . S
O385 C362 1.283 . S
O386 Mn360 2.094 . S
O386 C364 1.240 . S
O387 Mn361 2.117 . S
O387 C364 1.264 . S
C388 C381 1.403 . S
C388 C389 1.399 . S
C388 H394 0.929 . S
C389 C369 1.449 . S
C389 C388 1.399 . S
C389 H395 0.930 . S
H390 C370 0.931 . S
H391 C371 0.930 . S
H392 C379 0.931 . S
H393 C380 0.929 . S
H394 C388 0.929 . S
H395 C389 0.930 . S
Mn396 O401 2.095 1_554 S
Mn396 O411 2.162 . S
Mn396 O412 2.297 . S
Mn396 O420 2.385 . S
Mn396 O421 2.208 . S
Mn396 O422 2.094 1_554 S
Mn397 O402 2.121 . S
Mn397 N404 2.257 1_565 S
Mn397 N413 2.282 . S
Mn397 O421 2.217 1_556 S
Mn397 O423 2.117 . S
C398 O420 1.234 . S
C398 O421 1.283 . S
C399 O411 1.281 . S
C399 O412 1.236 . S
C400 O422 1.240 . S
C400 O423 1.264 . S
O401 Mn396 2.095 1_556 S
O401 C410 1.250 . S
O402 Mn397 2.121 . S
O402 C410 1.258 . S
C403 N404 1.326 . S
C403 C407 1.460 . S
C403 H409 0.929 . S
N404 Mn397 2.257 1_545 S
N404 C403 1.326 . S
N404 C408 1.362 . S
C405 C406 1.258 . S
C405 C408 1.431 . S
C405 C425 1.449 . S
C406 C405 1.258 . S
C406 C407 1.477 . S
C406 H426 0.931 . S
C407 C403 1.460 . S
C407 C406 1.477 . S
C407 H427 0.930 . S
C408 N404 1.362 . S
C408 C405 1.431 . S
C408 C418 1.476 . S
H409 C403 0.929 . S
C410 O401 1.250 . S
C410 O402 1.258 . S
O411 Mn396 2.162 . S
O411 C399 1.281 . S
O412 Mn396 2.297 . S
O412 C399 1.236 . S
N413 Mn397 2.282 . S
N413 C414 1.328 . S
N413 C418 1.318 1_565 S
C414 N413 1.328 . S
C414 C415 1.457 . S
C414 H419 0.929 . S
C415 C414 1.457 . S
C415 C416 1.291 . S
C415 H428 0.931 . S
C416 C415 1.291 . S
C416 C417 1.373 1_565 S
C416 H429 0.929 1_565 S
C417 C416 1.373 1_545 S
C417 C418 1.396 . S
C417 C424 1.403 . S
C418 C408 1.476 . S
C418 N413 1.318 1_545 S
C418 C417 1.396 . S
H419 C414 0.929 . S
O420 Mn396 2.385 . S
O420 C398 1.234 . S
O421 Mn396 2.208 . S
O421 Mn397 2.217 1_554 S
O421 C398 1.283 . S
O422 Mn396 2.094 1_556 S
O422 C400 1.240 . S
O423 Mn397 2.117 . S
O423 C400 1.264 . S
C424 C417 1.403 . S
C424 C425 1.399 . S
C424 H430 0.929 . S
C425 C405 1.449 . S
C425 C424 1.399 . S
C425 H431 0.930 . S
H426 C406 0.931 . S
H427 C407 0.930 . S
H428 C415 0.931 . S
H429 C416 0.929 1_545 S
H430 C424 0.929 . S
H431 C425 0.930 . S
Mn432 O437 2.095 . S
Mn432 O447 2.162 . S
Mn432 O448 2.297 . S
Mn432 O456 2.385 . S
Mn432 O457 2.209 . S
Mn432 O458 2.094 . S
Mn433 O438 2.121 . S
Mn433 N440 2.257 . S
Mn433 N449 2.282 1_554 S
Mn433 O457 2.215 . S
Mn433 O459 2.117 1_554 S
C434 O456 1.234 . S
C434 O457 1.283 . S
C435 O447 1.281 . S
C435 O448 1.236 . S
C436 O458 1.240 1_556 S
C436 O459 1.264 . S
O437 Mn432 2.095 . S
O437 C446 1.250 . S
O438 Mn433 2.121 . S
O438 C446 1.258 . S
C439 N440 1.326 . S
C439 C443 1.460 . S
C439 H445 0.929 . S
N440 Mn433 2.257 . S
N440 C439 1.326 . S
N440 C444 1.362 . S
C441 C442 1.258 . S
C441 C444 1.431 . S
C441 C461 1.449 . S
C442 C441 1.258 . S
C442 C443 1.477 . S
C442 H462 0.931 . S
C443 C439 1.460 . S
C443 C442 1.477 . S
C443 H463 0.930 . S
C444 N440 1.362 . S
C444 C441 1.431 . S
C444 C454 1.476 1_554 S
H445 C439 0.929 . S
C446 O437 1.250 . S
C446 O438 1.258 . S
O447 Mn432 2.162 . S
O447 C435 1.281 . S
O448 Mn432 2.297 . S
O448 C435 1.236 . S
N449 Mn433 2.282 1_556 S
N449 C450 1.328 . S
N449 C454 1.318 . S
C450 N449 1.328 . S
C450 C451 1.457 . S
C450 H455 0.929 . S
C451 C450 1.457 . S
C451 C452 1.291 . S
C451 H464 0.931 . S
C452 C451 1.291 . S
C452 C453 1.373 . S
C452 H465 0.929 . S
C453 C452 1.373 . S
C453 C454 1.396 . S
C453 C460 1.403 . S
C454 C444 1.476 1_556 S
C454 N449 1.318 . S
C454 C453 1.396 . S
H455 C450 0.929 . S
O456 Mn432 2.385 . S
O456 C434 1.234 . S
O457 Mn432 2.209 . S
O457 Mn433 2.215 . S
O457 C434 1.283 . S
O458 Mn432 2.094 . S
O458 C436 1.240 1_554 S
O459 Mn433 2.117 1_556 S
O459 C436 1.264 . S
C460 C453 1.403 . S
C460 C461 1.399 1_556 S
C460 H466 0.929 . S
C461 C441 1.449 . S
C461 C460 1.399 1_554 S
C461 H467 0.930 . S
H462 C442 0.931 . S
H463 C443 0.930 . S
H464 C451 0.931 . S
H465 C452 0.929 . S
H466 C460 0.929 . S
H467 C461 0.930 . S
Mn468 O473 2.095 . S
Mn468 O483 2.162 . S
Mn468 O484 2.297 . S
Mn468 O492 2.385 . S
Mn468 O493 2.209 . S
Mn468 O494 2.094 . S
Mn469 O474 2.121 . S
Mn469 N476 2.257 . S
Mn469 N485 2.282 1_554 S
Mn469 O493 2.215 . S
Mn469 O495 2.117 . S
C470 O492 1.234 . S
C470 O493 1.283 . S
C471 O483 1.281 . S
C471 O484 1.236 . S
C472 O494 1.240 . S
C472 O495 1.264 . S
O473 Mn468 2.095 . S
O473 C482 1.250 . S
O474 Mn469 2.121 . S
O474 C482 1.258 . S
C475 N476 1.326 . S
C475 C479 1.460 . S
C475 H481 0.929 . S
N476 Mn469 2.257 . S
N476 C475 1.326 . S
N476 C480 1.362 . S
C477 C478 1.227 1_545 S
C477 C480 1.431 . S
C477 C497 1.449 1_554 S
C478 C477 1.227 1_565 S
C478 C479 1.476 1_565 S
C478 H498 0.963 . S
C479 C475 1.460 . S
C479 C478 1.476 1_545 S
C479 H499 0.930 1_545 S
C480 N476 1.362 . S
C480 C477 1.431 . S
C480 C490 1.476 1_554 S
H481 C475 0.929 . S
C482 O473 1.250 . S
C482 O474 1.258 . S
O483 Mn468 2.162 . S
O483 C471 1.281 . S
O484 Mn468 2.297 . S
O484 C471 1.236 . S
N485 Mn469 2.282 1_556 S
N485 C486 1.328 . S
N485 C490 1.318 . S
C486 N485 1.328 . S
C486 C487 1.457 . S
C486 H491 0.929 . S
C487 C486 1.457 . S
C487 C488 1.291 . S
C487 H500 0.931 . S
C488 C487 1.291 . S
C488 C489 1.373 . S
C488 H501 0.929 . S
C489 C488 1.373 . S
C489 C490 1.396 . S
C489 C496 1.403 . S
C490 C480 1.476 1_556 S
C490 N485 1.318 . S
C490 C489 1.396 . S
H491 C486 0.929 . S
O492 Mn468 2.385 . S
O492 C470 1.234 . S
O493 Mn468 2.209 . S
O493 Mn469 2.215 . S
O493 C470 1.283 . S
O494 Mn468 2.094 . S
O494 C472 1.240 . S
O495 Mn469 2.117 . S
O495 C472 1.264 . S
C496 C489 1.403 . S
C496 C497 1.399 . S
C496 H502 0.929 . S
C497 C477 1.449 1_556 S
C497 C496 1.399 . S
C497 H503 0.930 1_545 S
H498 C478 0.963 . S
H499 C479 0.930 1_565 S
H500 C487 0.931 . S
H501 C488 0.929 . S
H502 C496 0.929 . S
H503 C497 0.930 1_565 S
Mn504 O509 2.095 . S
Mn504 O519 2.162 . S
Mn504 O520 2.297 . S
Mn504 O528 2.385 . S
Mn504 O529 2.209 . S
Mn504 O530 2.094 . S
Mn505 O510 2.121 . S
Mn505 N512 2.257 . S
Mn505 N521 2.282 . S
Mn505 O529 2.215 . S
Mn505 O531 2.117 . S
C506 O528 1.234 . S
C506 O529 1.283 . S
C507 O519 1.281 . S
C507 O520 1.236 . S
C508 O530 1.240 . S
C508 O531 1.264 . S
O509 Mn504 2.095 . S
O509 C518 1.250 . S
O510 Mn505 2.121 . S
O510 C518 1.258 . S
C511 N512 1.326 . S
C511 C515 1.460 . S
C511 H517 0.929 . S
N512 Mn505 2.257 . S
N512 C511 1.326 . S
N512 C516 1.362 . S
C513 C514 1.258 . S
C513 C516 1.431 . S
C513 C533 1.449 . S
C514 C513 1.258 . S
C514 C515 1.477 . S
C514 H534 0.931 . S
C515 C511 1.460 . S
C515 C514 1.477 . S
C515 H535 0.930 . S
C516 N512 1.362 . S
C516 C513 1.431 . S
C516 C526 1.476 . S
H517 C511 0.929 . S
C518 O509 1.250 . S
C518 O510 1.258 . S
O519 Mn504 2.162 . S
O519 C507 1.281 . S
O520 Mn504 2.297 . S
O520 C507 1.236 . S
N521 Mn505 2.282 . S
N521 C522 1.328 . S
N521 C526 1.318 . S
C522 N521 1.328 . S
C522 C523 1.457 . S
C522 H527 0.929 . S
C523 C522 1.457 . S
C523 C524 1.291 . S
C523 H536 0.931 . S
C524 C523 1.291 . S
C524 C525 1.373 . S
C524 H537 0.929 . S
C525 C524 1.373 . S
C525 C526 1.396 . S
C525 C532 1.403 . S
C526 C516 1.476 . S
C526 N521 1.318 . S
C526 C525 1.396 . S
H527 C522 0.929 . S
O528 Mn504 2.385 . S
O528 C506 1.234 . S
O529 Mn504 2.209 . S
O529 Mn505 2.215 . S
O529 C506 1.283 . S
O530 Mn504 2.094 . S
O530 C508 1.240 . S
O531 Mn505 2.117 . S
O531 C508 1.264 . S
C532 C525 1.403 . S
C532 C533 1.399 . S
C532 H538 0.929 . S
C533 C513 1.449 . S
C533 C532 1.399 . S
C533 H539 0.930 . S
H534 C514 0.931 . S
H535 C515 0.930 . S
H536 C523 0.931 . S
H537 C524 0.929 . S
H538 C532 0.929 . S
H539 C533 0.930 . S
Mn540 O545 2.095 . S
Mn540 O555 2.162 . S
Mn540 O556 2.297 . S
Mn540 O564 2.385 . S
Mn540 O565 2.209 . S
Mn540 O566 2.094 . S
Mn541 O546 2.121 . S
Mn541 N548 2.257 . S
Mn541 N557 2.282 . S
Mn541 O565 2.215 . S
Mn541 O567 2.117 . S
C542 O564 1.234 . S
C542 O565 1.283 . S
C543 O555 1.281 . S
C543 O556 1.236 . S
C544 O566 1.240 . S
C544 O567 1.264 . S
O545 Mn540 2.095 . S
O545 C554 1.250 . S
O546 Mn541 2.121 . S
O546 C554 1.258 . S
C547 N548 1.326 . S
C547 C551 1.460 1_565 S
C547 H553 0.929 . S
N548 Mn541 2.257 . S
N548 C547 1.326 . S
N548 C552 1.362 . S
C549 C550 1.258 . S
C549 C552 1.431 1_545 S
C549 C569 1.449 . S
C550 C549 1.258 . S
C550 C551 1.477 . S
C550 H570 0.931 . S
C551 C547 1.460 1_545 S
C551 C550 1.477 . S
C551 H571 0.930 . S
C552 N548 1.362 . S
C552 C549 1.431 1_565 S
C552 C562 1.476 . S
H553 C547 0.929 . S
C554 O545 1.250 . S
C554 O546 1.258 . S
O555 Mn540 2.162 . S
O555 C543 1.281 . S
O556 Mn540 2.297 . S
O556 C543 1.236 . S
N557 Mn541 2.282 . S
N557 C558 1.328 . S
N557 C562 1.318 . S
C558 N557 1.328 . S
C558 C559 1.457 . S
C558 H563 0.929 . S
C559 C558 1.457 . S
C559 C560 1.291 . S
C559 H572 0.931 . S
C560 C559 1.291 . S
C560 C561 1.373 . S
C560 H573 0.929 . S
C561 C560 1.373 . S
C561 C562 1.396 . S
C561 C568 1.403 . S
C562 C552 1.476 . S
C562 N557 1.318 . S
C562 C561 1.396 . S
H563 C558 0.929 . S
O564 Mn540 2.385 . S
O564 C542 1.234 . S
O565 Mn540 2.209 . S
O565 Mn541 2.215 . S
O565 C542 1.283 . S
O566 Mn540 2.094 . S
O566 C544 1.240 . S
O567 Mn541 2.117 . S
O567 C544 1.264 . S
C568 C561 1.403 . S
C568 C569 1.399 1_565 S
C568 H574 0.929 . S
C569 C549 1.449 . S
C569 C568 1.399 1_545 S
C569 H575 0.930 . S
H570 C550 0.931 . S
H571 C551 0.930 . S
H572 C559 0.931 . S
H573 C560 0.929 . S
H574 C568 0.929 . S
H575 C569 0.930 . S
Mn576 O581 2.095 . S
Mn576 O591 2.162 . S
Mn576 O592 2.297 . S
Mn576 O600 2.385 1_545 S
Mn576 O601 2.209 1_545 S
Mn576 O602 2.094 . S
Mn577 O582 2.121 . S
Mn577 N584 2.257 1_545 S
Mn577 N593 2.282 1_545 S
Mn577 O601 2.215 1_545 S
Mn577 O603 2.117 . S
C578 O600 1.234 . S
C578 O601 1.283 . S
C579 O591 1.281 . S
C579 O592 1.236 . S
C580 O602 1.240 . S
C580 O603 1.264 . S
O581 Mn576 2.095 . S
O581 C590 1.250 . S
O582 Mn577 2.121 . S
O582 C590 1.258 . S
C583 N584 1.326 1_545 S
C583 C587 1.460 1_545 S
C583 H589 0.929 . S
N584 Mn577 2.257 1_565 S
N584 C583 1.326 1_565 S
N584 C588 1.362 . S
C585 C586 1.258 . S
C585 C588 1.431 . S
C585 C605 1.449 . S
C586 C585 1.258 . S
C586 C587 1.477 . S
C586 H606 0.931 . S
C587 C583 1.460 1_565 S
C587 C586 1.477 . S
C587 H607 0.930 . S
C588 N584 1.362 . S
C588 C585 1.431 . S
C588 C598 1.476 . S
H589 C583 0.929 . S
C590 O581 1.250 . S
C590 O582 1.258 . S
O591 Mn576 2.162 . S
O591 C579 1.281 . S
O592 Mn576 2.297 . S
O592 C579 1.236 . S
N593 Mn577 2.282 1_565 S
N593 C594 1.328 . S
N593 C598 1.318 . S
C594 N593 1.328 . S
C594 C595 1.457 . S
C594 H599 0.929 . S
C595 C594 1.457 . S
C595 C596 1.291 . S
C595 H608 0.931 . S
C596 C595 1.291 . S
C596 C597 1.373 . S
C596 H609 0.929 . S
C597 C596 1.373 . S
C597 C598 1.396 . S
C597 C604 1.403 . S
C598 C588 1.476 . S
C598 N593 1.318 . S
C598 C597 1.396 . S
H599 C594 0.929 . S
O600 Mn576 2.385 1_565 S
O600 C578 1.234 . S
O601 Mn576 2.209 1_565 S
O601 Mn577 2.215 1_565 S
O601 C578 1.283 . S
O602 Mn576 2.094 . S
O602 C580 1.240 . S
O603 Mn577 2.117 . S
O603 C580 1.264 . S
C604 C597 1.403 . S
C604 C605 1.399 . S
C604 H610 0.929 . S
C605 C585 1.449 . S
C605 C604 1.399 . S
C605 H611 0.930 . S
H606 C586 0.931 . S
H607 C587 0.930 . S
H608 C595 0.931 . S
H609 C596 0.929 . S
H610 C604 0.929 . S
H611 C605 0.930 . S
Mn612 O617 2.095 . S
Mn612 O627 2.162 . S
Mn612 O628 2.297 . S
Mn612 O636 2.385 . S
Mn612 O637 2.209 . S
Mn612 O638 2.094 . S
Mn613 O618 2.121 . S
Mn613 N620 2.257 . S
Mn613 N629 2.282 . S
Mn613 O637 2.215 . S
Mn613 O639 2.117 . S
C614 O636 1.234 . S
C614 O637 1.283 . S
C615 O627 1.281 . S
C615 O628 1.236 . S
C616 O638 1.240 . S
C616 O639 1.264 . S
O617 Mn612 2.095 . S
O617 C626 1.250 . S
O618 Mn613 2.121 . S
O618 C626 1.258 . S
C619 N620 1.326 . S
C619 C623 1.460 . S
C619 H625 0.929 . S
N620 Mn613 2.257 . S
N620 C619 1.326 . S
N620 C624 1.362 . S
C621 C622 1.258 . S
C621 C624 1.431 . S
C621 C641 1.449 . S
C622 C621 1.258 . S
C622 C623 1.477 . S
C622 H642 0.931 . S
C623 C619 1.460 . S
C623 C622 1.477 . S
C623 H643 0.930 . S
C624 N620 1.362 . S
C624 C621 1.431 . S
C624 C634 1.476 . S
H625 C619 0.929 . S
C626 O617 1.250 . S
C626 O618 1.258 . S
O627 Mn612 2.162 . S
O627 C615 1.281 . S
O628 Mn612 2.297 . S
O628 C615 1.236 . S
N629 Mn613 2.282 . S
N629 C630 1.328 . S
N629 C634 1.318 . S
C630 N629 1.328 . S
C630 C631 1.457 . S
C630 H635 0.929 . S
C631 C630 1.457 . S
C631 C632 1.291 . S
C631 H644 0.931 . S
C632 C631 1.291 . S
C632 C633 1.373 . S
C632 H645 0.929 . S
C633 C632 1.373 . S
C633 C634 1.396 . S
C633 C640 1.403 . S
C634 C624 1.476 . S
C634 N629 1.318 . S
C634 C633 1.396 . S
H635 C630 0.929 . S
O636 Mn612 2.385 . S
O636 C614 1.234 . S
O637 Mn612 2.209 . S
O637 Mn613 2.215 . S
O637 C614 1.283 . S
O638 Mn612 2.094 . S
O638 C616 1.240 . S
O639 Mn613 2.117 . S
O639 C616 1.264 . S
C640 C633 1.403 . S
C640 C641 1.399 . S
C640 H646 0.929 . S
C641 C621 1.449 . S
C641 C640 1.399 . S
C641 H647 0.930 . S
H642 C622 0.931 . S
H643 C623 0.930 . S
H644 C631 0.931 . S
H645 C632 0.929 . S
H646 C640 0.929 . S
H647 C641 0.930 . S
Mn648 O653 2.095 . S
Mn648 O663 2.162 . S
Mn648 O664 2.297 . S
Mn648 O672 2.385 . S
Mn648 O673 2.209 . S
Mn648 O674 2.094 . S
Mn649 O654 2.121 . S
Mn649 N656 2.257 . S
Mn649 N665 2.282 . S
Mn649 O673 2.215 . S
Mn649 O675 2.117 . S
C650 O672 1.234 . S
C650 O673 1.283 . S
C651 O663 1.281 . S
C651 O664 1.236 . S
C652 O674 1.240 . S
C652 O675 1.264 . S
O653 Mn648 2.095 . S
O653 C662 1.250 . S
O654 Mn649 2.121 . S
O654 C662 1.258 . S
C655 N656 1.326 . S
C655 C659 1.460 . S
C655 H661 0.929 . S
N656 Mn649 2.257 . S
N656 C655 1.326 . S
N656 C660 1.362 . S
C657 C658 1.258 . S
C657 C660 1.431 . S
C657 C677 1.449 . S
C658 C657 1.258 . S
C658 C659 1.477 . S
C658 H678 0.931 . S
C659 C655 1.460 . S
C659 C658 1.477 . S
C659 H679 0.930 . S
C660 N656 1.362 . S
C660 C657 1.431 . S
C660 C670 1.476 . S
H661 C655 0.929 . S
C662 O653 1.250 . S
C662 O654 1.258 . S
O663 Mn648 2.162 . S
O663 C651 1.281 . S
O664 Mn648 2.297 . S
O664 C651 1.236 . S
N665 Mn649 2.282 . S
N665 C666 1.328 . S
N665 C670 1.318 . S
C666 N665 1.328 . S
C666 C667 1.457 . S
C666 H671 0.929 . S
C667 C666 1.457 . S
C667 C668 1.291 . S
C667 H680 0.931 . S
C668 C667 1.291 . S
C668 C669 1.373 . S
C668 H681 0.929 . S
C669 C668 1.373 . S
C669 C670 1.396 . S
C669 C676 1.403 . S
C670 C660 1.476 . S
C670 N665 1.318 . S
C670 C669 1.396 . S
H671 C666 0.929 . S
O672 Mn648 2.385 . S
O672 C650 1.234 . S
O673 Mn648 2.209 . S
O673 Mn649 2.215 . S
O673 C650 1.283 . S
O674 Mn648 2.094 . S
O674 C652 1.240 . S
O675 Mn649 2.117 . S
O675 C652 1.264 . S
C676 C669 1.403 . S
C676 C677 1.399 . S
C676 H682 0.929 . S
C677 C657 1.449 . S
C677 C676 1.399 . S
C677 H683 0.930 . S
H678 C658 0.931 . S
H679 C659 0.930 . S
H680 C667 0.931 . S
H681 C668 0.929 . S
H682 C676 0.929 . S
H683 C677 0.930 . S
Mn684 O689 2.095 . S
Mn684 O699 2.162 . S
Mn684 O700 2.297 . S
Mn684 O708 2.385 . S
Mn684 O709 2.209 . S
Mn684 O710 2.094 . S
Mn685 O690 2.121 . S
Mn685 N692 2.257 . S
Mn685 N701 2.282 . S
Mn685 O709 2.215 . S
Mn685 O711 2.117 . S
C686 O708 1.234 . S
C686 O709 1.283 . S
C687 O699 1.281 . S
C687 O700 1.236 . S
C688 O710 1.240 . S
C688 O711 1.264 . S
O689 Mn684 2.095 . S
O689 C698 1.250 . S
O690 Mn685 2.121 . S
O690 C698 1.258 . S
C691 N692 1.326 . S
C691 C695 1.460 . S
C691 H697 0.929 . S
N692 Mn685 2.257 . S
N692 C691 1.326 . S
N692 C696 1.362 . S
C693 C694 1.258 . S
C693 C696 1.431 . S
C693 C713 1.449 . S
C694 C693 1.258 . S
C694 C695 1.477 . S
C694 H714 0.931 . S
C695 C691 1.460 . S
C695 C694 1.477 . S
C695 H715 0.930 . S
C696 N692 1.362 . S
C696 C693 1.431 . S
C696 C706 1.476 . S
H697 C691 0.929 . S
C698 O689 1.250 . S
C698 O690 1.258 . S
O699 Mn684 2.162 . S
O699 C687 1.281 . S
O700 Mn684 2.297 . S
O700 C687 1.236 . S
N701 Mn685 2.282 . S
N701 C702 1.328 . S
N701 C706 1.318 . S
C702 N701 1.328 . S
C702 C703 1.457 . S
C702 H707 0.929 . S
C703 C702 1.457 . S
C703 C704 1.291 . S
C703 H716 0.931 . S
C704 C703 1.291 . S
C704 C705 1.373 . S
C704 H717 0.929 . S
C705 C704 1.373 . S
C705 C706 1.396 . S
C705 C712 1.403 . S
C706 C696 1.476 . S
C706 N701 1.318 . S
C706 C705 1.396 . S
H707 C702 0.929 . S
O708 Mn684 2.385 . S
O708 C686 1.234 . S
O709 Mn684 2.209 . S
O709 Mn685 2.215 . S
O709 C686 1.283 . S
O710 Mn684 2.094 . S
O710 C688 1.240 . S
O711 Mn685 2.117 . S
O711 C688 1.264 . S
C712 C705 1.403 . S
C712 C713 1.399 . S
C712 H718 0.929 . S
C713 C693 1.449 . S
C713 C712 1.399 . S
C713 H719 0.930 . S
H714 C694 0.931 . S
H715 C695 0.930 . S
H716 C703 0.931 . S
H717 C704 0.929 . S
H718 C712 0.929 . S
H719 C713 0.930 . S
Mn720 O725 2.095 . S
Mn720 O735 2.162 . S
Mn720 O736 2.297 . S
Mn720 O744 2.385 . S
Mn720 O745 2.209 . S
Mn720 O746 2.094 1_554 S
Mn721 O726 2.121 . S
Mn721 N728 2.257 . S
Mn721 N737 2.282 . S
Mn721 O745 2.215 1_556 S
Mn721 O747 2.117 . S
C722 O744 1.234 . S
C722 O745 1.283 . S
C723 O735 1.281 . S
C723 O736 1.236 . S
C724 O746 1.240 . S
C724 O747 1.264 . S
O725 Mn720 2.095 . S
O725 C734 1.250 . S
O726 Mn721 2.121 . S
O726 C734 1.258 1_556 S
C727 N728 1.326 . S
C727 C731 1.460 . S
C727 H733 0.929 . S
N728 Mn721 2.257 . S
N728 C727 1.326 . S
N728 C732 1.362 . S
C729 C730 1.258 . S
C729 C732 1.431 . S
C729 C749 1.449 . S
C730 C729 1.258 . S
C730 C731 1.477 . S
C730 H750 0.931 . S
C731 C727 1.460 . S
C731 C730 1.477 . S
C731 H751 0.930 . S
C732 N728 1.362 . S
C732 C729 1.431 . S
C732 C742 1.476 . S
H733 C727 0.929 . S
C734 O725 1.250 . S
C734 O726 1.258 1_554 S
O735 Mn720 2.162 . S
O735 C723 1.281 . S
O736 Mn720 2.297 . S
O736 C723 1.236 . S
N737 Mn721 2.282 . S
N737 C738 1.328 . S
N737 C742 1.318 . S
C738 N737 1.328 . S
C738 C739 1.457 . S
C738 H743 0.929 . S
C739 C738 1.457 . S
C739 C740 1.291 . S
C739 H752 0.931 . S
C740 C739 1.291 . S
C740 C741 1.373 . S
C740 H753 0.929 . S
C741 C740 1.373 . S
C741 C742 1.396 . S
C741 C748 1.403 . S
C742 C732 1.476 . S
C742 N737 1.318 . S
C742 C741 1.396 . S
H743 C738 0.929 . S
O744 Mn720 2.385 . S
O744 C722 1.234 . S
O745 Mn720 2.209 . S
O745 Mn721 2.215 1_554 S
O745 C722 1.283 . S
O746 Mn720 2.094 1_556 S
O746 C724 1.240 . S
O747 Mn721 2.117 . S
O747 C724 1.264 . S
C748 C741 1.403 . S
C748 C749 1.399 . S
C748 H754 0.929 . S
C749 C729 1.449 . S
C749 C748 1.399 . S
C749 H755 0.930 . S
H750 C730 0.931 . S
H751 C731 0.930 . S
H752 C739 0.931 . S
H753 C740 0.929 . S
H754 C748 0.929 . S
H755 C749 0.930 . S
Mn756 O761 2.095 . S
Mn756 O771 2.162 . S
Mn756 O772 2.297 . S
Mn756 O780 2.385 . S
Mn756 O781 2.209 . S
Mn756 O782 2.094 . S
Mn757 O762 2.121 . S
Mn757 N764 2.257 . S
Mn757 N773 2.282 . S
Mn757 O781 2.215 . S
Mn757 O783 2.117 . S
C758 O780 1.234 . S
C758 O781 1.283 . S
C759 O771 1.281 . S
C759 O772 1.236 . S
C760 O782 1.240 . S
C760 O783 1.264 . S
O761 Mn756 2.095 . S
O761 C770 1.250 . S
O762 Mn757 2.121 . S
O762 C770 1.258 . S
C763 N764 1.326 . S
C763 C767 1.460 . S
C763 H769 0.929 . S
N764 Mn757 2.257 . S
N764 C763 1.326 . S
N764 C768 1.362 . S
C765 C766 1.258 . S
C765 C768 1.431 . S
C765 C785 1.449 . S
C766 C765 1.258 . S
C766 C767 1.477 . S
C766 H786 0.931 . S
C767 C763 1.460 . S
C767 C766 1.477 . S
C767 H787 0.930 . S
C768 N764 1.362 . S
C768 C765 1.431 . S
C768 C778 1.476 . S
H769 C763 0.929 . S
C770 O761 1.250 . S
C770 O762 1.258 . S
O771 Mn756 2.162 . S
O771 C759 1.281 . S
O772 Mn756 2.297 . S
O772 C759 1.236 . S
N773 Mn757 2.282 . S
N773 C774 1.328 . S
N773 C778 1.318 . S
C774 N773 1.328 . S
C774 C775 1.457 . S
C774 H779 0.929 . S
C775 C774 1.457 . S
C775 C776 1.291 . S
C775 H788 0.931 . S
C776 C775 1.291 . S
C776 C777 1.373 . S
C776 H789 0.929 . S
C777 C776 1.373 . S
C777 C778 1.396 . S
C777 C784 1.403 . S
C778 C768 1.476 . S
C778 N773 1.318 . S
C778 C777 1.396 . S
H779 C774 0.929 . S
O780 Mn756 2.385 . S
O780 C758 1.234 . S
O781 Mn756 2.209 . S
O781 Mn757 2.215 . S
O781 C758 1.283 . S
O782 Mn756 2.094 . S
O782 C760 1.240 . S
O783 Mn757 2.117 . S
O783 C760 1.264 . S
C784 C777 1.403 . S
C784 C785 1.399 . S
C784 H790 0.929 . S
C785 C765 1.449 . S
C785 C784 1.399 . S
C785 H791 0.930 . S
H786 C766 0.931 . S
H787 C767 0.930 . S
H788 C775 0.931 . S
H789 C776 0.929 . S
H790 C784 0.929 . S
H791 C785 0.930 . S
Mn792 O797 2.095 . S
Mn792 O807 2.162 . S
Mn792 O808 2.297 . S
Mn792 O816 2.385 . S
Mn792 O817 2.209 . S
Mn792 O818 2.094 . S
Mn793 O798 2.121 . S
Mn793 N800 2.257 . S
Mn793 N809 2.282 . S
Mn793 O817 2.215 . S
Mn793 O819 2.117 . S
C794 O816 1.234 . S
C794 O817 1.283 . S
C795 O807 1.281 . S
C795 O808 1.236 . S
C796 O818 1.240 . S
C796 O819 1.264 . S
O797 Mn792 2.095 . S
O797 C806 1.250 . S
O798 Mn793 2.121 . S
O798 C806 1.258 . S
C799 N800 1.326 . S
C799 C803 1.460 . S
C799 H805 0.929 . S
N800 Mn793 2.257 . S
N800 C799 1.326 . S
N800 C804 1.362 . S
C801 C802 1.258 . S
C801 C804 1.431 . S
C801 C821 1.449 . S
C802 C801 1.258 . S
C802 C803 1.477 . S
C802 H822 0.931 . S
C803 C799 1.460 . S
C803 C802 1.477 . S
C803 H823 0.930 . S
C804 N800 1.362 . S
C804 C801 1.431 . S
C804 C814 1.476 . S
H805 C799 0.929 . S
C806 O797 1.250 . S
C806 O798 1.258 . S
O807 Mn792 2.162 . S
O807 C795 1.281 . S
O808 Mn792 2.297 . S
O808 C795 1.236 . S
N809 Mn793 2.282 . S
N809 C810 1.328 . S
N809 C814 1.318 . S
C810 N809 1.328 . S
C810 C811 1.457 . S
C810 H815 0.929 . S
C811 C810 1.457 . S
C811 C812 1.291 . S
C811 H824 0.931 . S
C812 C811 1.291 . S
C812 C813 1.373 . S
C812 H825 0.929 . S
C813 C812 1.373 . S
C813 C814 1.396 . S
C813 C820 1.403 . S
C814 C804 1.476 . S
C814 N809 1.318 . S
C814 C813 1.396 . S
H815 C810 0.929 . S
O816 Mn792 2.385 . S
O816 C794 1.234 . S
O817 Mn792 2.209 . S
O817 Mn793 2.215 . S
O817 C794 1.283 . S
O818 Mn792 2.094 . S
O818 C796 1.240 . S
O819 Mn793 2.117 . S
O819 C796 1.264 . S
C820 C813 1.403 . S
C820 C821 1.399 . S
C820 H826 0.929 . S
C821 C801 1.449 . S
C821 C820 1.399 . S
C821 H827 0.930 . S
H822 C802 0.931 . S
H823 C803 0.930 . S
H824 C811 0.931 . S
H825 C812 0.929 . S
H826 C820 0.929 . S
H827 C821 0.930 . S
Mn828 O833 2.095 . S
Mn828 O843 2.162 . S
Mn828 O844 2.297 . S
Mn828 O852 2.385 . S
Mn828 O853 2.209 . S
Mn828 O854 2.094 . S
Mn829 O834 2.121 . S
Mn829 N836 2.257 . S
Mn829 N845 2.282 . S
Mn829 O853 2.215 . S
Mn829 O855 2.117 . S
C830 O852 1.234 . S
C830 O853 1.283 . S
C831 O843 1.281 . S
C831 O844 1.236 . S
C832 O854 1.240 . S
C832 O855 1.264 . S
O833 Mn828 2.095 . S
O833 C842 1.250 . S
O834 Mn829 2.121 . S
O834 C842 1.258 . S
C835 N836 1.326 . S
C835 C839 1.460 . S
C835 H841 0.929 . S
N836 Mn829 2.257 . S
N836 C835 1.326 . S
N836 C840 1.362 . S
C837 C838 1.258 . S
C837 C840 1.431 . S
C837 C857 1.449 . S
C838 C837 1.258 . S
C838 C839 1.477 . S
C838 H858 0.931 . S
C839 C835 1.460 . S
C839 C838 1.477 . S
C839 H859 0.930 . S
C840 N836 1.362 . S
C840 C837 1.431 . S
C840 C850 1.476 . S
H841 C835 0.929 . S
C842 O833 1.250 . S
C842 O834 1.258 . S
O843 Mn828 2.162 . S
O843 C831 1.281 . S
O844 Mn828 2.297 . S
O844 C831 1.236 . S
N845 Mn829 2.282 . S
N845 C846 1.328 . S
N845 C850 1.318 . S
C846 N845 1.328 . S
C846 C847 1.457 . S
C846 H851 0.929 . S
C847 C846 1.457 . S
C847 C848 1.291 . S
C847 H860 0.931 . S
C848 C847 1.291 . S
C848 C849 1.373 . S
C848 H861 0.929 . S
C849 C848 1.373 . S
C849 C850 1.396 . S
C849 C856 1.403 . S
C850 C840 1.476 . S
C850 N845 1.318 . S
C850 C849 1.396 . S
H851 C846 0.929 . S
O852 Mn828 2.385 . S
O852 C830 1.234 . S
O853 Mn828 2.209 . S
O853 Mn829 2.215 . S
O853 C830 1.283 . S
O854 Mn828 2.094 . S
O854 C832 1.240 . S
O855 Mn829 2.117 . S
O855 C832 1.264 . S
C856 C849 1.403 . S
C856 C857 1.399 . S
C856 H862 0.929 . S
C857 C837 1.449 . S
C857 C856 1.399 . S
C857 H863 0.930 . S
H858 C838 0.931 . S
H859 C839 0.930 . S
H860 C847 0.931 . S
H861 C848 0.929 . S
H862 C856 0.929 . S
H863 C857 0.930 . S
Tb864 N893 2.617 . S
Tb864 N899 2.572 . S
Tb864 O908 2.465 . S
Tb864 O909 2.387 . S
Tb864 O911 2.428 . S
Tb864 O912 2.308 . S
Tb864 O916 2.321 1_545 S
Tb864 O919 2.393 . S
Tb864 C928 2.802 . S
C865 N866 1.379 . S
C865 C868 1.416 . S
C865 C872 1.424 1_556 S
N866 C865 1.379 . S
N866 C869 1.334 . S
N866 Tb875 2.617 1_566 S
C867 C869 1.390 . S
C867 C870 1.339 . S
C867 H887 0.930 . S
C868 C865 1.416 . S
C868 C870 1.416 . S
C868 C874 1.448 . S
C869 N866 1.334 . S
C869 C867 1.390 . S
C869 H880 0.930 . S
C870 C867 1.339 . S
C870 C868 1.416 . S
C870 H891 0.930 . S
C871 C872 1.413 . S
C871 C873 1.427 1_554 S
C871 C877 1.416 . S
C872 C865 1.424 1_554 S
C872 C871 1.413 . S
C872 N876 1.361 . S
C873 C871 1.427 1_556 S
C873 C874 1.328 . S
C873 H888 0.929 . S
C874 C868 1.448 . S
C874 C873 1.328 . S
C874 H889 0.930 . S
Tb875 N866 2.617 1_544 S
Tb875 N876 2.572 1_545 S
Tb875 O910 2.349 1_655 S
Tb875 O913 2.393 1_654 S
Tb875 O914 2.465 . S
Tb875 O915 2.387 1_645 S
Tb875 O917 2.428 1_554 S
Tb875 O918 2.308 1_655 S
Tb875 C939 2.802 . S
N876 C872 1.361 . S
N876 Tb875 2.572 1_565 S
N876 C878 1.340 . S
C877 C871 1.416 . S
C877 C879 1.332 . S
C877 H885 0.931 . S
C878 N876 1.340 . S
C878 C879 1.407 . S
C878 H884 0.930 . S
C879 C877 1.332 . S
C879 C878 1.407 . S
C879 H881 0.929 . S
H880 C869 0.930 . S
H881 C879 0.929 . S
H882 C897 0.930 . S
H883 C904 0.929 1_556 S
H884 C878 0.930 . S
H885 C877 0.931 . S
H886 C900 0.929 . S
H887 C867 0.930 . S
H888 C873 0.929 . S
H889 C874 0.930 . S
H890 C895 0.930 . S
H891 C870 0.930 . S
H892 C903 0.931 . S
N893 Tb864 2.617 . S
N893 C894 1.379 . S
N893 C897 1.334 . S
C894 N893 1.379 . S
C894 C896 1.416 . S
C894 C902 1.424 . S
C895 H890 0.930 . S
C895 C897 1.390 . S
C895 C898 1.339 . S
C896 C894 1.416 . S
C896 C898 1.416 . S
C896 C929 1.448 . S
C897 H882 0.930 . S
C897 N893 1.334 . S
C897 C895 1.390 . S
C898 C895 1.339 . S
C898 C896 1.416 . S
C898 H905 0.930 . S
N899 Tb864 2.572 . S
N899 C900 1.340 . S
N899 C902 1.361 . S
C900 H886 0.929 . S
C900 N899 1.340 . S
C900 C904 1.407 . S
C901 C902 1.413 . S
C901 C903 1.416 . S
C901 C930 1.427 . S
C902 C894 1.424 . S
C902 N899 1.361 . S
C902 C901 1.413 . S
C903 H892 0.931 . S
C903 C901 1.416 . S
C903 C904 1.332 . S
C904 H883 0.929 1_554 S
C904 C900 1.407 . S
C904 C903 1.332 . S
H905 C898 0.930 . S
H906 C929 0.930 . S
H907 C930 0.929 . S
O908 Tb864 2.465 . S
O908 C928 1.264 . S
O909 Tb864 2.387 . S
O909 C920 1.264 . S
O910 Tb875 2.349 1_455 S
O910 C920 1.243 . S
O911 Tb864 2.428 . S
O911 C928 1.256 . S
O912 Tb864 2.308 . S
O912 C927 1.266 1_554 S
O913 Tb875 2.393 1_456 S
O913 C927 1.248 . S
O914 Tb875 2.465 . S
O914 C939 1.264 . S
O915 Tb875 2.387 1_465 S
O915 C931 1.264 . S
O916 Tb864 2.321 1_565 S
O916 C931 1.260 . S
O917 Tb875 2.428 1_556 S
O917 C939 1.256 1_556 S
O918 Tb875 2.308 1_455 S
O918 C938 1.266 . S
O919 Tb864 2.393 . S
O919 C938 1.248 . S
C920 O909 1.264 . S
C920 O910 1.243 . S
C921 C924 1.399 . S
C921 C926 1.383 . S
C921 C928 1.496 . S
C922 C923 1.399 . S
C922 C926 1.389 . S
C923 C922 1.399 . S
C923 C925 1.380 . S
C923 H940 0.931 . S
C924 C921 1.399 . S
C924 C925 1.392 . S
C924 H941 0.929 . S
C925 C923 1.380 . S
C925 C924 1.392 . S
C925 H942 0.929 . S
C926 C921 1.383 . S
C926 C922 1.389 . S
C926 H943 0.931 . S
C927 O912 1.266 1_556 S
C927 O913 1.248 . S
C928 Tb864 2.802 . S
C928 O908 1.264 . S
C928 O911 1.256 . S
C928 C921 1.496 . S
C929 C896 1.448 . S
C929 H906 0.930 . S
C929 C930 1.328 . S
C930 C901 1.427 . S
C930 H907 0.929 . S
C930 C929 1.328 . S
C931 O915 1.264 . S
C931 O916 1.260 . S
C932 C935 1.432 . S
C932 C936 1.354 1_556 S
C932 C939 1.494 1_556 S
C933 C934 1.399 1_554 S
C933 C936 1.389 . S
C934 C933 1.399 1_556 S
C934 C937 1.380 . S
C934 H944 0.929 . S
C935 C932 1.432 . S
C935 C937 1.392 . S
C935 H945 0.929 . S
C936 C932 1.354 1_554 S
C936 C933 1.389 . S
C936 H946 0.931 . S
C937 C934 1.380 . S
C937 C935 1.392 . S
C937 H947 0.929 . S
C938 O918 1.266 . S
C938 O919 1.248 . S
C939 Tb875 2.802 . S
C939 O914 1.264 . S
C939 O917 1.256 1_554 S
C939 C932 1.494 1_554 S
H940 C923 0.931 . S
H941 C924 0.929 . S
H942 C925 0.929 . S
H943 C926 0.931 . S
H944 C934 0.929 . S
H945 C935 0.929 . S
H946 C936 0.931 . S
H947 C937 0.929 . S
Tb948 N977 2.617 . S
Tb948 N983 2.572 . S
Tb948 O992 2.465 . S
Tb948 O993 2.387 . S
Tb948 O995 2.428 . S
Tb948 O996 2.308 . S
Tb948 O1000 2.349 . S
Tb948 O1003 2.393 . S
Tb948 C1012 2.802 . S
C949 N950 1.379 . S
C949 C952 1.416 . S
C949 C956 1.424 . S
N950 C949 1.379 . S
N950 C953 1.334 . S
N950 Tb959 2.617 . S
C951 C953 1.390 . S
C951 C954 1.339 . S
C951 H971 0.930 . S
C952 C949 1.416 . S
C952 C954 1.416 . S
C952 C958 1.448 . S
C953 N950 1.334 . S
C953 C951 1.390 . S
C953 H964 0.930 . S
C954 C951 1.339 . S
C954 C952 1.416 . S
C954 H975 0.930 . S
C955 C956 1.413 . S
C955 C957 1.427 . S
C955 C961 1.416 . S
C956 C949 1.424 . S
C956 C955 1.413 . S
C956 N960 1.361 . S
C957 C955 1.427 . S
C957 C958 1.328 . S
C957 H972 0.929 . S
C958 C952 1.448 . S
C958 C957 1.328 . S
C958 H973 0.930 . S
Tb959 N950 2.617 . S
Tb959 N960 2.572 . S
Tb959 O994 2.349 . S
Tb959 O997 2.393 . S
Tb959 O998 2.465 . S
Tb959 O999 2.387 . S
Tb959 O1001 2.428 . S
Tb959 O1002 2.308 . S
Tb959 C1023 2.802 . S
N960 C956 1.361 . S
N960 Tb959 2.572 . S
N960 C962 1.340 . S
C961 C955 1.416 . S
C961 C963 1.332 . S
C961 H969 0.931 . S
C962 N960 1.340 . S
C962 C963 1.407 . S
C962 H968 0.930 . S
C963 C961 1.332 . S
C963 C962 1.407 . S
C963 H965 0.929 . S
H964 C953 0.930 . S
H965 C963 0.929 . S
H966 C981 0.930 . S
H967 C988 0.929 . S
H968 C962 0.930 . S
H969 C961 0.931 . S
H970 C984 0.930 . S
H971 C951 0.930 . S
H972 C957 0.929 . S
H973 C958 0.930 . S
H974 C979 0.930 . S
H975 C954 0.930 . S
H976 C987 0.931 . S
N977 Tb948 2.617 . S
N977 C978 1.379 . S
N977 C981 1.334 . S
C978 N977 1.379 . S
C978 C980 1.416 . S
C978 C986 1.424 . S
C979 H974 0.930 . S
C979 C981 1.390 . S
C979 C982 1.339 . S
C980 C978 1.416 . S
C980 C982 1.416 . S
C980 C1013 1.448 . S
C981 H966 0.930 . S
C981 N977 1.334 . S
C981 C979 1.390 . S
C982 C979 1.339 . S
C982 C980 1.416 . S
C982 H989 0.930 . S
N983 Tb948 2.572 . S
N983 C984 1.340 . S
N983 C986 1.361 . S
C984 H970 0.930 . S
C984 N983 1.340 . S
C984 C988 1.407 . S
C985 C986 1.413 . S
C985 C987 1.416 . S
C985 C1014 1.427 . S
C986 C978 1.424 . S
C986 N983 1.361 . S
C986 C985 1.413 . S
C987 H976 0.931 . S
C987 C985 1.416 . S
C987 C988 1.332 . S
C988 H967 0.929 . S
C988 C984 1.407 . S
C988 C987 1.332 . S
H989 C982 0.930 . S
H990 C1013 0.930 . S
H991 C1014 0.929 . S
O992 Tb948 2.465 . S
O992 C1012 1.264 . S
O993 Tb948 2.387 . S
O993 C1004 1.264 . S
O994 Tb959 2.349 . S
O994 C1004 1.243 . S
O995 Tb948 2.428 . S
O995 C1012 1.256 . S
O996 Tb948 2.308 . S
O996 C1011 1.266 . S
O997 Tb959 2.393 . S
O997 C1011 1.248 . S
O998 Tb959 2.465 . S
O998 C1023 1.264 . S
O999 Tb959 2.387 . S
O999 C1015 1.264 . S
O1000 Tb948 2.349 . S
O1000 C1015 1.243 . S
O1001 Tb959 2.428 . S
O1001 C1023 1.256 . S
O1002 Tb959 2.308 . S
O1002 C1022 1.266 . S
O1003 Tb948 2.393 . S
O1003 C1022 1.248 . S
C1004 O993 1.264 . S
C1004 O994 1.243 . S
C1005 C1008 1.399 . S
C1005 C1010 1.383 . S
C1005 C1012 1.496 . S
C1006 C1007 1.399 . S
C1006 C1010 1.389 . S
C1007 C1006 1.399 . S
C1007 C1009 1.380 . S
C1007 H1024 0.929 . S
C1008 C1005 1.399 . S
C1008 C1009 1.392 . S
C1008 H1025 0.929 . S
C1009 C1007 1.380 . S
C1009 C1008 1.392 . S
C1009 H1026 0.929 . S
C1010 C1005 1.383 . S
C1010 C1006 1.389 . S
C1010 H1027 0.931 . S
C1011 O996 1.266 . S
C1011 O997 1.248 . S
C1012 Tb948 2.802 . S
C1012 O992 1.264 . S
C1012 O995 1.256 . S
C1012 C1005 1.496 . S
C1013 C980 1.448 . S
C1013 H990 0.930 . S
C1013 C1014 1.328 . S
C1014 C985 1.427 . S
C1014 H991 0.929 . S
C1014 C1013 1.328 . S
C1015 O999 1.264 . S
C1015 O1000 1.243 . S
C1016 C1019 1.399 . S
C1016 C1020 1.383 . S
C1016 C1023 1.496 . S
C1017 C1018 1.399 . S
C1017 C1020 1.389 . S
C1018 C1017 1.399 . S
C1018 C1021 1.380 . S
C1018 H1028 0.929 . S
C1019 C1016 1.399 . S
C1019 C1021 1.392 . S
C1019 H1029 0.929 . S
C1020 C1016 1.383 . S
C1020 C1017 1.389 . S
C1020 H1030 0.931 . S
C1021 C1018 1.380 . S
C1021 C1019 1.392 . S
C1021 H1031 0.929 . S
C1022 O1002 1.266 . S
C1022 O1003 1.248 . S
C1023 Tb959 2.802 . S
C1023 O998 1.264 . S
C1023 O1001 1.256 . S
C1023 C1016 1.496 . S
H1024 C1007 0.929 . S
H1025 C1008 0.929 . S
H1026 C1009 0.929 . S
H1027 C1010 0.931 . S
H1028 C1018 0.929 . S
H1029 C1019 0.929 . S
H1030 C1020 0.931 . S
H1031 C1021 0.929 . S
Tb1032 N1061 2.617 . S
Tb1032 N1067 2.572 1_545 S
Tb1032 O1076 2.465 . S
Tb1032 O1077 2.387 1_545 S
Tb1032 O1079 2.428 . S
Tb1032 O1080 2.308 . S
Tb1032 O1084 2.349 . S
Tb1032 O1087 2.393 . S
Tb1032 C1096 2.802 . S
C1033 N1034 1.379 . S
C1033 C1036 1.416 . S
C1033 C1040 1.424 . S
N1034 C1033 1.379 . S
N1034 C1037 1.334 . S
N1034 Tb1043 2.617 . S
C1035 C1037 1.390 . S
C1035 C1038 1.339 . S
C1035 H1055 0.930 . S
C1036 C1033 1.416 . S
C1036 C1038 1.416 . S
C1036 C1042 1.448 . S
C1037 N1034 1.334 . S
C1037 C1035 1.390 . S
C1037 H1048 0.930 . S
C1038 C1035 1.339 . S
C1038 C1036 1.416 . S
C1038 H1059 0.930 . S
C1039 C1040 1.413 . S
C1039 C1041 1.427 . S
C1039 C1045 1.416 . S
C1040 C1033 1.424 . S
C1040 C1039 1.413 . S
C1040 N1044 1.361 . S
C1041 C1039 1.427 . S
C1041 C1042 1.328 . S
C1041 H1056 0.929 . S
C1042 C1036 1.448 . S
C1042 C1041 1.328 . S
C1042 H1057 0.930 . S
Tb1043 N1034 2.617 . S
Tb1043 N1044 2.572 . S
Tb1043 O1078 2.349 . S
Tb1043 O1081 2.393 . S
Tb1043 O1082 2.465 . S
Tb1043 O1083 2.387 . S
Tb1043 O1085 2.428 . S
Tb1043 O1086 2.308 . S
Tb1043 C1107 2.802 . S
N1044 C1040 1.361 . S
N1044 Tb1043 2.572 . S
N1044 C1046 1.340 . S
C1045 C1039 1.416 . S
C1045 C1047 1.332 . S
C1045 H1053 0.931 . S
C1046 N1044 1.340 . S
C1046 C1047 1.407 . S
C1046 H1052 0.930 . S
C1047 C1045 1.332 . S
C1047 C1046 1.407 . S
C1047 H1049 0.929 . S
H1048 C1037 0.930 . S
H1049 C1047 0.929 . S
H1050 C1065 0.930 . S
H1051 C1072 0.929 . S
H1052 C1046 0.930 . S
H1053 C1045 0.931 . S
H1054 C1068 0.930 1_545 S
H1055 C1035 0.930 . S
H1056 C1041 0.929 . S
H1057 C1042 0.930 . S
H1058 C1063 0.931 . S
H1059 C1038 0.930 . S
H1060 C1071 0.931 . S
N1061 Tb1032 2.617 . S
N1061 C1062 1.379 1_545 S
N1061 C1065 1.334 . S
C1062 N1061 1.379 1_565 S
C1062 C1064 1.416 . S
C1062 C1070 1.424 . S
C1063 H1058 0.931 . S
C1063 C1065 1.390 1_565 S
C1063 C1066 1.339 . S
C1064 C1062 1.416 . S
C1064 C1066 1.416 . S
C1064 C1097 1.448 . S
C1065 H1050 0.930 . S
C1065 N1061 1.334 . S
C1065 C1063 1.390 1_545 S
C1066 C1063 1.339 . S
C1066 C1064 1.416 . S
C1066 H1073 0.930 . S
N1067 Tb1032 2.572 1_565 S
N1067 C1068 1.340 . S
N1067 C1070 1.361 . S
C1068 H1054 0.930 1_565 S
C1068 N1067 1.340 . S
C1068 C1072 1.407 . S
C1069 C1070 1.413 . S
C1069 C1071 1.416 . S
C1069 C1098 1.427 . S
C1070 C1062 1.424 . S
C1070 N1067 1.361 . S
C1070 C1069 1.413 . S
C1071 H1060 0.931 . S
C1071 C1069 1.416 . S
C1071 C1072 1.332 . S
C1072 H1051 0.929 . S
C1072 C1068 1.407 . S
C1072 C1071 1.332 . S
H1073 C1066 0.930 . S
H1074 C1097 0.930 . S
H1075 C1098 0.929 . S
O1076 Tb1032 2.465 . S
O1076 C1096 1.264 . S
O1077 Tb1032 2.387 1_565 S
O1077 C1088 1.264 . S
O1078 Tb1043 2.349 . S
O1078 C1088 1.243 1_545 S
O1079 Tb1032 2.428 . S
O1079 C1096 1.256 . S
O1080 Tb1032 2.308 . S
O1080 C1095 1.266 . S
O1081 Tb1043 2.393 . S
O1081 C1095 1.248 . S
O1082 Tb1043 2.465 . S
O1082 C1107 1.264 . S
O1083 Tb1043 2.387 . S
O1083 C1099 1.264 . S
O1084 Tb1032 2.349 . S
O1084 C1099 1.243 . S
O1085 Tb1043 2.428 . S
O1085 C1107 1.256 . S
O1086 Tb1043 2.308 . S
O1086 C1106 1.266 . S
O1087 Tb1032 2.393 . S
O1087 C1106 1.248 . S
C1088 O1077 1.264 . S
C1088 O1078 1.243 1_565 S
C1089 C1092 1.399 . S
C1089 C1094 1.383 . S
C1089 C1096 1.496 . S
C1090 C1091 1.399 . S
C1090 C1094 1.389 . S
C1091 C1090 1.399 . S
C1091 C1093 1.380 . S
C1091 H1108 0.929 . S
C1092 C1089 1.399 . S
C1092 C1093 1.392 . S
C1092 H1109 0.929 . S
C1093 C1091 1.380 . S
C1093 C1092 1.392 . S
C1093 H1110 0.929 . S
C1094 C1089 1.383 . S
C1094 C1090 1.389 . S
C1094 H1111 0.931 . S
C1095 O1080 1.266 . S
C1095 O1081 1.248 . S
C1096 Tb1032 2.802 . S
C1096 O1076 1.264 . S
C1096 O1079 1.256 . S
C1096 C1089 1.496 . S
C1097 C1064 1.448 . S
C1097 H1074 0.930 . S
C1097 C1098 1.328 . S
C1098 C1069 1.427 . S
C1098 H1075 0.929 . S
C1098 C1097 1.328 . S
C1099 O1083 1.264 . S
C1099 O1084 1.243 . S
C1100 C1103 1.399 1_545 S
C1100 C1104 1.383 1_545 S
C1100 C1107 1.496 . S
C1101 C1102 1.399 . S
C1101 C1104 1.389 . S
C1102 C1101 1.399 . S
C1102 C1105 1.380 . S
C1102 H1112 0.929 . S
C1103 C1100 1.399 1_565 S
C1103 C1105 1.392 . S
C1103 H1113 0.929 . S
C1104 C1100 1.383 1_565 S
C1104 C1101 1.389 . S
C1104 H1114 0.927 1_565 S
C1105 C1102 1.380 . S
C1105 C1103 1.392 . S
C1105 H1115 0.929 . S
C1106 O1086 1.266 . S
C1106 O1087 1.248 . S
C1107 Tb1043 2.802 . S
C1107 O1082 1.264 . S
C1107 O1085 1.256 . S
C1107 C1100 1.496 . S
H1108 C1091 0.929 . S
H1109 C1092 0.929 . S
H1110 C1093 0.929 . S
H1111 C1094 0.931 . S
H1112 C1102 0.929 . S
H1113 C1103 0.929 . S
H1114 C1104 0.927 1_545 S
H1115 C1105 0.929 . S
Tb1116 N1145 2.617 . S
Tb1116 N1151 2.572 . S
Tb1116 O1160 2.465 . S
Tb1116 O1161 2.387 . S
Tb1116 O1163 2.428 . S
Tb1116 O1164 2.308 . S
Tb1116 O1168 2.349 . S
Tb1116 O1171 2.393 . S
Tb1116 C1180 2.802 . S
C1117 N1118 1.379 . S
C1117 C1120 1.416 . S
C1117 C1124 1.424 . S
N1118 C1117 1.379 . S
N1118 C1121 1.334 . S
N1118 Tb1127 2.617 . S
C1119 C1121 1.390 . S
C1119 C1122 1.339 . S
C1119 H1139 0.930 . S
C1120 C1117 1.416 . S
C1120 C1122 1.416 . S
C1120 C1126 1.448 . S
C1121 N1118 1.334 . S
C1121 C1119 1.390 . S
C1121 H1132 0.930 . S
C1122 C1119 1.339 . S
C1122 C1120 1.416 . S
C1122 H1143 0.930 . S
C1123 C1124 1.413 . S
C1123 C1125 1.427 . S
C1123 C1129 1.416 . S
C1124 C1117 1.424 . S
C1124 C1123 1.413 . S
C1124 N1128 1.361 . S
C1125 C1123 1.427 . S
C1125 C1126 1.328 . S
C1125 H1140 0.929 . S
C1126 C1120 1.448 . S
C1126 C1125 1.328 . S
C1126 H1141 0.930 . S
Tb1127 N1118 2.617 . S
Tb1127 N1128 2.572 . S
Tb1127 O1162 2.349 . S
Tb1127 O1165 2.393 . S
Tb1127 O1166 2.465 . S
Tb1127 O1167 2.387 . S
Tb1127 O1169 2.428 . S
Tb1127 O1170 2.308 . S
Tb1127 C1191 2.802 . S
N1128 C1124 1.361 . S
N1128 Tb1127 2.572 . S
N1128 C1130 1.340 . S
C1129 C1123 1.416 . S
C1129 C1131 1.332 . S
C1129 H1137 0.931 . S
C1130 N1128 1.340 . S
C1130 C1131 1.407 . S
C1130 H1136 0.930 . S
C1131 C1129 1.332 . S
C1131 C1130 1.407 . S
C1131 H1133 0.929 . S
H1132 C1121 0.930 . S
H1133 C1131 0.929 . S
H1134 C1149 0.930 . S
H1135 C1156 0.929 . S
H1136 C1130 0.930 . S
H1137 C1129 0.931 . S
H1138 C1152 0.930 . S
H1139 C1119 0.930 . S
H1140 C1125 0.929 . S
H1141 C1126 0.930 . S
H1142 C1147 0.930 . S
H1143 C1122 0.930 . S
H1144 C1155 0.931 . S
N1145 Tb1116 2.617 . S
N1145 C1146 1.379 . S
N1145 C1149 1.334 . S
C1146 N1145 1.379 . S
C1146 C1148 1.416 . S
C1146 C1154 1.424 . S
C1147 H1142 0.930 . S
C1147 C1149 1.390 . S
C1147 C1150 1.339 . S
C1148 C1146 1.416 . S
C1148 C1150 1.416 . S
C1148 C1181 1.448 . S
C1149 H1134 0.930 . S
C1149 N1145 1.334 . S
C1149 C1147 1.390 . S
C1150 C1147 1.339 . S
C1150 C1148 1.416 . S
C1150 H1157 0.930 . S
N1151 Tb1116 2.572 . S
N1151 C1152 1.340 . S
N1151 C1154 1.361 . S
C1152 H1138 0.930 . S
C1152 N1151 1.340 . S
C1152 C1156 1.407 . S
C1153 C1154 1.413 . S
C1153 C1155 1.416 . S
C1153 C1182 1.427 . S
C1154 C1146 1.424 . S
C1154 N1151 1.361 . S
C1154 C1153 1.413 . S
C1155 H1144 0.931 . S
C1155 C1153 1.416 . S
C1155 C1156 1.332 . S
C1156 H1135 0.929 . S
C1156 C1152 1.407 . S
C1156 C1155 1.332 . S
H1157 C1150 0.930 . S
H1158 C1181 0.930 . S
H1159 C1182 0.929 . S
O1160 Tb1116 2.465 . S
O1160 C1180 1.264 . S
O1161 Tb1116 2.387 . S
O1161 C1172 1.264 . S
O1162 Tb1127 2.349 . S
O1162 C1172 1.243 . S
O1163 Tb1116 2.428 . S
O1163 C1180 1.256 . S
O1164 Tb1116 2.308 . S
O1164 C1179 1.266 . S
O1165 Tb1127 2.393 . S
O1165 C1179 1.248 . S
O1166 Tb1127 2.465 . S
O1166 C1191 1.264 . S
O1167 Tb1127 2.387 . S
O1167 C1183 1.264 . S
O1168 Tb1116 2.349 . S
O1168 C1183 1.243 . S
O1169 Tb1127 2.428 . S
O1169 C1191 1.256 . S
O1170 Tb1127 2.308 . S
O1170 C1190 1.266 . S
O1171 Tb1116 2.393 . S
O1171 C1190 1.248 . S
C1172 O1161 1.264 . S
C1172 O1162 1.243 . S
C1173 C1176 1.399 . S
C1173 C1178 1.383 . S
C1173 C1180 1.496 . S
C1174 C1175 1.399 . S
C1174 C1178 1.389 . S
C1175 C1174 1.399 . S
C1175 C1177 1.380 . S
C1175 H1192 0.929 . S
C1176 C1173 1.399 . S
C1176 C1177 1.392 . S
C1176 H1193 0.929 . S
C1177 C1175 1.380 . S
C1177 C1176 1.392 . S
C1177 H1194 0.929 . S
C1178 C1173 1.383 . S
C1178 C1174 1.389 . S
C1178 H1195 0.931 . S
C1179 O1164 1.266 . S
C1179 O1165 1.248 . S
C1180 Tb1116 2.802 . S
C1180 O1160 1.264 . S
C1180 O1163 1.256 . S
C1180 C1173 1.496 . S
C1181 C1148 1.448 . S
C1181 H1158 0.930 . S
C1181 C1182 1.328 . S
C1182 C1153 1.427 . S
C1182 H1159 0.929 . S
C1182 C1181 1.328 . S
C1183 O1167 1.264 . S
C1183 O1168 1.243 . S
C1184 C1187 1.399 . S
C1184 C1188 1.383 . S
C1184 C1191 1.496 . S
C1185 C1186 1.399 . S
C1185 C1188 1.389 . S
C1186 C1185 1.399 . S
C1186 C1189 1.380 . S
C1186 H1196 0.929 . S
C1187 C1184 1.399 . S
C1187 C1189 1.392 . S
C1187 H1197 0.929 . S
C1188 C1184 1.383 . S
C1188 C1185 1.389 . S
C1188 H1198 0.931 . S
C1189 C1186 1.380 . S
C1189 C1187 1.392 . S
C1189 H1199 0.929 . S
C1190 O1170 1.266 . S
C1190 O1171 1.248 . S
C1191 Tb1127 2.802 . S
C1191 O1166 1.264 . S
C1191 O1169 1.256 . S
C1191 C1184 1.496 . S
H1192 C1175 0.929 . S
H1193 C1176 0.929 . S
H1194 C1177 0.929 . S
H1195 C1178 0.931 . S
H1196 C1186 0.929 . S
H1197 C1187 0.929 . S
H1198 C1188 0.931 . S
H1199 C1189 0.929 . S
Tb1200 N1229 2.604 1_545 S
Tb1200 N1235 2.547 1_545 S
Tb1200 O1244 2.433 1_545 S
Tb1200 O1245 2.408 . S
Tb1200 O1247 2.398 1_545 S
Tb1200 O1248 2.320 . S
Tb1200 O1252 2.362 . S
Tb1200 O1255 2.418 . S
Tb1200 C1264 2.768 1_545 S
C1201 N1202 1.379 1_455 S
C1201 C1204 1.416 1_455 S
C1201 C1208 1.424 . S
N1202 C1201 1.379 1_655 S
N1202 C1205 1.334 . S
N1202 Tb1211 2.617 1_655 S
C1203 C1205 1.390 . S
C1203 C1206 1.339 . S
C1203 H1223 0.930 . S
C1204 C1201 1.416 1_655 S
C1204 C1206 1.416 . S
C1204 C1210 1.448 1_655 S
C1205 N1202 1.334 . S
C1205 C1203 1.390 . S
C1205 H1216 0.930 . S
C1206 C1203 1.339 . S
C1206 C1204 1.416 . S
C1206 H1227 0.930 . S
C1207 C1208 1.413 . S
C1207 C1209 1.427 . S
C1207 C1213 1.416 . S
C1208 C1201 1.424 . S
C1208 C1207 1.413 . S
C1208 N1212 1.361 . S
C1209 C1207 1.427 . S
C1209 C1210 1.328 . S
C1209 H1224 0.929 . S
C1210 C1204 1.448 1_455 S
C1210 C1209 1.328 . S
C1210 H1225 0.930 1_455 S
Tb1211 N1202 2.617 1_455 S
Tb1211 N1212 2.572 . S
Tb1211 O1246 2.349 . S
Tb1211 O1249 2.393 1_455 S
Tb1211 O1250 2.465 . S
Tb1211 O1251 2.387 . S
Tb1211 O1253 2.428 1_455 S
Tb1211 O1254 2.308 . S
Tb1211 C1275 2.802 . S
N1212 C1208 1.361 . S
N1212 Tb1211 2.572 . S
N1212 C1214 1.340 . S
C1213 C1207 1.416 . S
C1213 C1215 1.332 . S
C1213 H1221 0.931 . S
C1214 N1212 1.340 . S
C1214 C1215 1.407 . S
C1214 H1220 0.930 . S
C1215 C1213 1.332 . S
C1215 C1214 1.407 . S
C1215 H1217 0.929 . S
H1216 C1205 0.930 . S
H1217 C1215 0.929 . S
H1218 C1233 0.930 1_545 S
H1219 C1240 0.929 . S
H1220 C1214 0.930 . S
H1221 C1213 0.931 . S
H1222 C1236 0.930 . S
H1223 C1203 0.930 . S
H1224 C1209 0.929 . S
H1225 C1210 0.930 1_655 S
H1226 C1231 0.926 1_545 S
H1227 C1206 0.930 . S
H1228 C1239 0.931 . S
N1229 Tb1200 2.604 1_565 S
N1229 C1230 1.379 . S
N1229 C1233 1.334 . S
C1230 N1229 1.379 . S
C1230 C1232 1.416 . S
C1230 C1238 1.424 . S
C1231 H1226 0.926 1_565 S
C1231 C1233 1.390 . S
C1231 C1234 1.339 . S
C1232 C1230 1.416 . S
C1232 C1234 1.416 . S
C1232 C1265 1.448 . S
C1233 H1218 0.930 1_565 S
C1233 N1229 1.334 . S
C1233 C1231 1.390 . S
C1234 C1231 1.339 . S
C1234 C1232 1.416 . S
C1234 H1241 0.930 . S
N1235 Tb1200 2.547 1_565 S
N1235 C1236 1.340 1_455 S
N1235 C1238 1.361 . S
C1236 H1222 0.930 . S
C1236 N1235 1.340 1_655 S
C1236 C1240 1.407 . S
C1237 C1238 1.413 . S
C1237 C1239 1.416 1_455 S
C1237 C1266 1.427 . S
C1238 C1230 1.424 . S
C1238 N1235 1.361 . S
C1238 C1237 1.413 . S
C1239 H1228 0.931 . S
C1239 C1237 1.416 1_655 S
C1239 C1240 1.332 . S
C1240 H1219 0.929 . S
C1240 C1236 1.407 . S
C1240 C1239 1.332 . S
H1241 C1234 0.930 . S
H1242 C1265 0.930 . S
H1243 C1266 0.929 . S
O1244 Tb1200 2.433 1_565 S
O1244 C1264 1.264 . S
O1245 Tb1200 2.408 . S
O1245 C1256 1.264 . S
O1246 Tb1211 2.349 . S
O1246 C1256 1.243 . S
O1247 Tb1200 2.398 1_565 S
O1247 C1264 1.256 . S
O1248 Tb1200 2.320 . S
O1248 C1263 1.266 1_455 S
O1249 Tb1211 2.393 1_655 S
O1249 C1263 1.248 . S
O1250 Tb1211 2.465 . S
O1250 C1275 1.264 . S
O1251 Tb1211 2.387 . S
O1251 C1267 1.264 . S
O1252 Tb1200 2.362 . S
O1252 C1267 1.243 . S
O1253 Tb1211 2.428 1_655 S
O1253 C1275 1.256 1_655 S
O1254 Tb1211 2.308 . S
O1254 C1274 1.266 . S
O1255 Tb1200 2.418 . S
O1255 C1274 1.248 . S
C1256 O1245 1.264 . S
C1256 O1246 1.243 . S
C1257 C1260 1.399 . S
C1257 C1262 1.383 . S
C1257 C1264 1.496 . S
C1258 C1259 1.399 . S
C1258 C1262 1.389 . S
C1259 C1258 1.399 . S
C1259 C1261 1.380 . S
C1259 H1276 0.929 . S
C1260 C1257 1.399 . S
C1260 C1261 1.392 . S
C1260 H1277 0.929 . S
C1261 C1259 1.380 . S
C1261 C1260 1.392 . S
C1261 H1278 0.929 . S
C1262 C1257 1.383 . S
C1262 C1258 1.389 . S
C1262 H1279 0.931 . S
C1263 O1248 1.266 1_655 S
C1263 O1249 1.248 . S
C1264 Tb1200 2.768 1_565 S
C1264 O1244 1.264 . S
C1264 O1247 1.256 . S
C1264 C1257 1.496 . S
C1265 C1232 1.448 . S
C1265 H1242 0.930 . S
C1265 C1266 1.328 . S
C1266 C1237 1.427 . S
C1266 H1243 0.929 . S
C1266 C1265 1.328 . S
C1267 O1251 1.264 . S
C1267 O1252 1.243 . S
C1268 C1271 1.399 1_455 S
C1268 C1272 1.383 . S
C1268 C1275 1.496 . S
C1269 C1270 1.399 1_455 S
C1269 C1272 1.389 . S
C1270 C1269 1.399 1_655 S
C1270 C1273 1.380 . S
C1270 H1280 0.929 . S
C1271 C1268 1.399 1_655 S
C1271 C1273 1.392 . S
C1271 H1281 0.929 . S
C1272 C1268 1.383 . S
C1272 C1269 1.389 . S
C1272 H1282 0.931 . S
C1273 C1270 1.380 . S
C1273 C1271 1.392 . S
C1273 H1283 0.929 . S
C1274 O1254 1.266 . S
C1274 O1255 1.248 . S
C1275 Tb1211 2.802 . S
C1275 O1250 1.264 . S
C1275 O1253 1.256 1_455 S
C1275 C1268 1.496 . S
H1276 C1259 0.929 . S
H1277 C1260 0.929 . S
H1278 C1261 0.929 . S
H1279 C1262 0.931 . S
H1280 C1270 0.929 . S
H1281 C1271 0.929 . S
H1282 C1272 0.931 . S
H1283 C1273 0.929 . S
Tb1284 N1313 2.617 . S
Tb1284 N1319 2.572 . S
Tb1284 O1328 2.465 . S
Tb1284 O1329 2.387 . S
Tb1284 O1331 2.428 . S
Tb1284 O1332 2.308 . S
Tb1284 O1336 2.349 . S
Tb1284 O1339 2.393 . S
Tb1284 C1348 2.802 . S
C1285 N1286 1.379 . S
C1285 C1288 1.416 . S
C1285 C1292 1.424 . S
N1286 C1285 1.379 . S
N1286 C1289 1.334 . S
N1286 Tb1295 2.617 . S
C1287 C1289 1.390 . S
C1287 C1290 1.339 . S
C1287 H1307 0.930 . S
C1288 C1285 1.416 . S
C1288 C1290 1.416 . S
C1288 C1294 1.448 . S
C1289 N1286 1.334 . S
C1289 C1287 1.390 . S
C1289 H1300 0.930 . S
C1290 C1287 1.339 . S
C1290 C1288 1.416 . S
C1290 H1311 0.930 . S
C1291 C1292 1.413 . S
C1291 C1293 1.427 . S
C1291 C1297 1.416 . S
C1292 C1285 1.424 . S
C1292 C1291 1.413 . S
C1292 N1296 1.361 . S
C1293 C1291 1.427 . S
C1293 C1294 1.328 . S
C1293 H1308 0.929 . S
C1294 C1288 1.448 . S
C1294 C1293 1.328 . S
C1294 H1309 0.930 . S
Tb1295 N1286 2.617 . S
Tb1295 N1296 2.572 . S
Tb1295 O1330 2.349 . S
Tb1295 O1333 2.393 . S
Tb1295 O1334 2.465 . S
Tb1295 O1335 2.387 . S
Tb1295 O1337 2.428 . S
Tb1295 O1338 2.308 . S
Tb1295 C1359 2.802 . S
N1296 C1292 1.361 . S
N1296 Tb1295 2.572 . S
N1296 C1298 1.340 . S
C1297 C1291 1.416 . S
C1297 C1299 1.332 . S
C1297 H1305 0.931 . S
C1298 N1296 1.340 . S
C1298 C1299 1.407 . S
C1298 H1304 0.930 . S
C1299 C1297 1.332 . S
C1299 C1298 1.407 . S
C1299 H1301 0.929 . S
H1300 C1289 0.930 . S
H1301 C1299 0.929 . S
H1302 C1317 0.930 . S
H1303 C1324 0.929 . S
H1304 C1298 0.930 . S
H1305 C1297 0.931 . S
H1306 C1320 0.930 . S
H1307 C1287 0.930 . S
H1308 C1293 0.929 . S
H1309 C1294 0.930 . S
H1310 C1315 0.930 . S
H1311 C1290 0.930 . S
H1312 C1323 0.931 . S
N1313 Tb1284 2.617 . S
N1313 C1314 1.379 . S
N1313 C1317 1.334 . S
C1314 N1313 1.379 . S
C1314 C1316 1.416 . S
C1314 C1322 1.424 . S
C1315 H1310 0.930 . S
C1315 C1317 1.390 . S
C1315 C1318 1.339 . S
C1316 C1314 1.416 . S
C1316 C1318 1.416 . S
C1316 C1349 1.448 . S
C1317 H1302 0.930 . S
C1317 N1313 1.334 . S
C1317 C1315 1.390 . S
C1318 C1315 1.339 . S
C1318 C1316 1.416 . S
C1318 H1325 0.930 . S
N1319 Tb1284 2.572 . S
N1319 C1320 1.340 . S
N1319 C1322 1.361 . S
C1320 H1306 0.930 . S
C1320 N1319 1.340 . S
C1320 C1324 1.407 . S
C1321 C1322 1.413 . S
C1321 C1323 1.416 . S
C1321 C1350 1.427 . S
C1322 C1314 1.424 . S
C1322 N1319 1.361 . S
C1322 C1321 1.413 . S
C1323 H1312 0.931 . S
C1323 C1321 1.416 . S
C1323 C1324 1.332 . S
C1324 H1303 0.929 . S
C1324 C1320 1.407 . S
C1324 C1323 1.332 . S
H1325 C1318 0.930 . S
H1326 C1349 0.930 . S
H1327 C1350 0.929 . S
O1328 Tb1284 2.465 . S
O1328 C1348 1.264 . S
O1329 Tb1284 2.387 . S
O1329 C1340 1.264 . S
O1330 Tb1295 2.349 . S
O1330 C1340 1.243 . S
O1331 Tb1284 2.428 . S
O1331 C1348 1.256 . S
O1332 Tb1284 2.308 . S
O1332 C1347 1.266 . S
O1333 Tb1295 2.393 . S
O1333 C1347 1.248 . S
O1334 Tb1295 2.465 . S
O1334 C1359 1.264 . S
O1335 Tb1295 2.387 . S
O1335 C1351 1.264 . S
O1336 Tb1284 2.349 . S
O1336 C1351 1.243 . S
O1337 Tb1295 2.428 . S
O1337 C1359 1.256 . S
O1338 Tb1295 2.308 . S
O1338 C1358 1.266 . S
O1339 Tb1284 2.393 . S
O1339 C1358 1.248 . S
C1340 O1329 1.264 . S
C1340 O1330 1.243 . S
C1341 C1344 1.399 . S
C1341 C1346 1.383 . S
C1341 C1348 1.496 . S
C1342 C1343 1.399 . S
C1342 C1346 1.389 . S
C1343 C1342 1.399 . S
C1343 C1345 1.380 . S
C1343 H1360 0.929 . S
C1344 C1341 1.399 . S
C1344 C1345 1.392 . S
C1344 H1361 0.929 . S
C1345 C1343 1.380 . S
C1345 C1344 1.392 . S
C1345 H1362 0.929 . S
C1346 C1341 1.383 . S
C1346 C1342 1.389 . S
C1346 H1363 0.931 . S
C1347 O1332 1.266 . S
C1347 O1333 1.248 . S
C1348 Tb1284 2.802 . S
C1348 O1328 1.264 . S
C1348 O1331 1.256 . S
C1348 C1341 1.496 . S
C1349 C1316 1.448 . S
C1349 H1326 0.930 . S
C1349 C1350 1.328 . S
C1350 C1321 1.427 . S
C1350 H1327 0.929 . S
C1350 C1349 1.328 . S
C1351 O1335 1.264 . S
C1351 O1336 1.243 . S
C1352 C1355 1.399 . S
C1352 C1356 1.383 . S
C1352 C1359 1.496 . S
C1353 C1354 1.399 . S
C1353 C1356 1.389 . S
C1354 C1353 1.399 . S
C1354 C1357 1.380 . S
C1354 H1364 0.929 . S
C1355 C1352 1.399 . S
C1355 C1357 1.392 . S
C1355 H1365 0.929 . S
C1356 C1352 1.383 . S
C1356 C1353 1.389 . S
C1356 H1366 0.931 . S
C1357 C1354 1.380 . S
C1357 C1355 1.392 . S
C1357 H1367 0.929 . S
C1358 O1338 1.266 . S
C1358 O1339 1.248 . S
C1359 Tb1295 2.802 . S
C1359 O1334 1.264 . S
C1359 O1337 1.256 . S
C1359 C1352 1.496 . S
H1360 C1343 0.929 . S
H1361 C1344 0.929 . S
H1362 C1345 0.929 . S
H1363 C1346 0.931 . S
H1364 C1354 0.929 . S
H1365 C1355 0.929 . S
H1366 C1356 0.931 . S
H1367 C1357 0.929 . S
Tb1368 N1397 2.628 . S
Tb1368 N1403 2.599 . S
Tb1368 O1412 2.498 . S
Tb1368 O1413 2.368 1_556 S
Tb1368 O1415 2.453 . S
Tb1368 O1416 2.302 1_556 S
Tb1368 O1420 2.336 1_556 S
Tb1368 O1423 2.364 1_556 S
Tb1368 C1432 2.835 . S
C1369 N1370 1.379 1_545 S
C1369 C1372 1.416 1_545 S
C1369 C1376 1.424 . S
N1370 C1369 1.379 1_565 S
N1370 C1373 1.334 . S
N1370 Tb1379 2.617 1_565 S
C1371 C1373 1.390 . S
C1371 C1374 1.339 . S
C1371 H1391 0.930 . S
C1372 C1369 1.416 1_565 S
C1372 C1374 1.416 . S
C1372 C1378 1.448 1_565 S
C1373 N1370 1.334 . S
C1373 C1371 1.390 . S
C1373 H1384 0.930 . S
C1374 C1371 1.339 . S
C1374 C1372 1.416 . S
C1374 H1395 0.930 . S
C1375 C1376 1.413 . S
C1375 C1377 1.427 . S
C1375 C1381 1.416 . S
C1376 C1369 1.424 . S
C1376 C1375 1.413 . S
C1376 N1380 1.361 . S
C1377 C1375 1.427 . S
C1377 C1378 1.328 . S
C1377 H1392 0.929 . S
C1378 C1372 1.448 1_545 S
C1378 C1377 1.328 . S
C1378 H1393 0.930 1_545 S
Tb1379 N1370 2.617 1_545 S
Tb1379 N1380 2.572 . S
Tb1379 O1414 2.349 . S
Tb1379 O1417 2.393 1_545 S
Tb1379 O1418 2.465 . S
Tb1379 O1419 2.387 . S
Tb1379 O1421 2.428 1_545 S
Tb1379 O1422 2.308 . S
Tb1379 C1443 2.802 . S
N1380 C1376 1.361 . S
N1380 Tb1379 2.572 . S
N1380 C1382 1.340 . S
C1381 C1375 1.416 . S
C1381 C1383 1.332 . S
C1381 H1389 0.931 . S
C1382 N1380 1.340 . S
C1382 C1383 1.407 . S
C1382 H1388 0.930 . S
C1383 C1381 1.332 . S
C1383 C1382 1.407 . S
C1383 H1385 0.929 . S
H1384 C1373 0.930 . S
H1385 C1383 0.929 . S
H1386 C1401 0.930 1_554 S
H1387 C1408 0.929 1_565 S
H1388 C1382 0.930 . S
H1389 C1381 0.931 . S
H1390 C1404 0.930 . S
H1391 C1371 0.930 . S
H1392 C1377 0.929 . S
H1393 C1378 0.930 1_565 S
H1394 C1399 0.919 1_554 S
H1395 C1374 0.930 . S
H1396 C1407 0.931 . S
N1397 Tb1368 2.628 . S
N1397 C1398 1.379 . S
N1397 C1401 1.334 . S
C1398 N1397 1.379 . S
C1398 C1400 1.416 . S
C1398 C1406 1.424 . S
C1399 H1394 0.919 1_556 S
C1399 C1401 1.390 . S
C1399 C1402 1.339 . S
C1400 C1398 1.416 . S
C1400 C1402 1.416 . S
C1400 C1433 1.448 . S
C1401 H1386 0.930 1_556 S
C1401 N1397 1.334 . S
C1401 C1399 1.390 . S
C1402 C1399 1.339 . S
C1402 C1400 1.416 . S
C1402 H1409 0.930 . S
N1403 Tb1368 2.599 . S
N1403 C1404 1.340 . S
N1403 C1406 1.361 . S
C1404 H1390 0.930 . S
C1404 N1403 1.340 . S
C1404 C1408 1.407 . S
C1405 C1406 1.413 . S
C1405 C1407 1.416 . S
C1405 C1434 1.427 . S
C1406 C1398 1.424 . S
C1406 N1403 1.361 . S
C1406 C1405 1.413 . S
C1407 H1396 0.931 . S
C1407 C1405 1.416 . S
C1407 C1408 1.332 . S
C1408 H1387 0.929 1_545 S
C1408 C1404 1.407 . S
C1408 C1407 1.332 . S
H1409 C1402 0.930 . S
H1410 C1433 0.930 . S
H1411 C1434 0.929 . S
O1412 Tb1368 2.498 . S
O1412 C1432 1.264 . S
O1413 Tb1368 2.368 1_554 S
O1413 C1424 1.264 . S
O1414 Tb1379 2.349 . S
O1414 C1424 1.243 . S
O1415 Tb1368 2.453 . S
O1415 C1432 1.256 . S
O1416 Tb1368 2.302 1_554 S
O1416 C1431 1.266 1_545 S
O1417 Tb1379 2.393 1_565 S
O1417 C1431 1.248 . S
O1418 Tb1379 2.465 . S
O1418 C1443 1.264 . S
O1419 Tb1379 2.387 . S
O1419 C1435 1.264 . S
O1420 Tb1368 2.336 1_554 S
O1420 C1435 1.243 . S
O1421 Tb1379 2.428 1_565 S
O1421 C1443 1.256 1_565 S
O1422 Tb1379 2.308 . S
O1422 C1442 1.266 . S
O1423 Tb1368 2.364 1_554 S
O1423 C1442 1.248 . S
C1424 O1413 1.264 . S
C1424 O1414 1.243 . S
C1425 C1428 1.399 . S
C1425 C1430 1.383 . S
C1425 C1432 1.496 . S
C1426 C1427 1.399 . S
C1426 C1430 1.389 . S
C1427 C1426 1.399 . S
C1427 C1429 1.380 . S
C1427 H1444 0.929 . S
C1428 C1425 1.399 . S
C1428 C1429 1.392 . S
C1428 H1445 0.929 . S
C1429 C1427 1.380 . S
C1429 C1428 1.392 . S
C1429 H1446 0.929 . S
C1430 C1425 1.383 . S
C1430 C1426 1.389 . S
C1430 H1447 0.931 . S
C1431 O1416 1.266 1_565 S
C1431 O1417 1.248 . S
C1432 Tb1368 2.835 . S
C1432 O1412 1.264 . S
C1432 O1415 1.256 . S
C1432 C1425 1.496 . S
C1433 C1400 1.448 . S
C1433 H1410 0.930 . S
C1433 C1434 1.328 . S
C1434 C1405 1.427 . S
C1434 H1411 0.929 . S
C1434 C1433 1.328 . S
C1435 O1419 1.264 . S
C1435 O1420 1.243 . S
C1436 C1439 1.399 . S
C1436 C1440 1.383 1_565 S
C1436 C1443 1.496 1_565 S
C1437 C1438 1.399 1_545 S
C1437 C1440 1.389 . S
C1438 C1437 1.399 1_565 S
C1438 C1441 1.380 . S
C1438 H1448 0.929 . S
C1439 C1436 1.399 . S
C1439 C1441 1.392 . S
C1439 H1449 0.929 . S
C1440 C1436 1.383 1_545 S
C1440 C1437 1.389 . S
C1440 H1450 0.931 . S
C1441 C1438 1.380 . S
C1441 C1439 1.392 . S
C1441 H1451 0.929 . S
C1442 O1422 1.266 . S
C1442 O1423 1.248 . S
C1443 Tb1379 2.802 . S
C1443 O1418 1.264 . S
C1443 O1421 1.256 1_545 S
C1443 C1436 1.496 1_545 S
H1444 C1427 0.929 . S
H1445 C1428 0.929 . S
H1446 C1429 0.929 . S
H1447 C1430 0.931 . S
H1448 C1438 0.929 . S
H1449 C1439 0.929 . S
H1450 C1440 0.931 . S
H1451 C1441 0.929 . S
Tb1452 N1481 2.617 . S
Tb1452 N1487 2.572 . S
Tb1452 O1496 2.465 . S
Tb1452 O1497 2.387 . S
Tb1452 O1499 2.428 . S
Tb1452 O1500 2.308 . S
Tb1452 O1504 2.349 . S
Tb1452 O1507 2.393 . S
Tb1452 C1516 2.802 . S
C1453 N1454 1.379 . S
C1453 C1456 1.416 . S
C1453 C1460 1.424 . S
N1454 C1453 1.379 . S
N1454 C1457 1.334 . S
N1454 Tb1463 2.617 . S
C1455 C1457 1.390 . S
C1455 C1458 1.339 . S
C1455 H1475 0.930 . S
C1456 C1453 1.416 . S
C1456 C1458 1.416 . S
C1456 C1462 1.448 . S
C1457 N1454 1.334 . S
C1457 C1455 1.390 . S
C1457 H1468 0.930 . S
C1458 C1455 1.339 . S
C1458 C1456 1.416 . S
C1458 H1479 0.930 . S
C1459 C1460 1.413 . S
C1459 C1461 1.427 . S
C1459 C1465 1.416 . S
C1460 C1453 1.424 . S
C1460 C1459 1.413 . S
C1460 N1464 1.361 . S
C1461 C1459 1.427 . S
C1461 C1462 1.328 . S
C1461 H1476 0.929 . S
C1462 C1456 1.448 . S
C1462 C1461 1.328 . S
C1462 H1477 0.930 . S
Tb1463 N1454 2.617 . S
Tb1463 N1464 2.572 . S
Tb1463 O1498 2.349 . S
Tb1463 O1501 2.393 . S
Tb1463 O1502 2.465 . S
Tb1463 O1503 2.387 . S
Tb1463 O1505 2.428 . S
Tb1463 O1506 2.308 . S
Tb1463 C1527 2.802 . S
N1464 C1460 1.361 . S
N1464 Tb1463 2.572 . S
N1464 C1466 1.340 . S
C1465 C1459 1.416 . S
C1465 C1467 1.332 . S
C1465 H1473 0.931 . S
C1466 N1464 1.340 . S
C1466 C1467 1.407 . S
C1466 H1472 0.930 . S
C1467 C1465 1.332 . S
C1467 C1466 1.407 . S
C1467 H1469 0.929 . S
H1468 C1457 0.930 . S
H1469 C1467 0.929 . S
H1470 C1485 0.930 . S
H1471 C1492 0.929 . S
H1472 C1466 0.930 . S
H1473 C1465 0.931 . S
H1474 C1488 0.930 . S
H1475 C1455 0.930 . S
H1476 C1461 0.929 . S
H1477 C1462 0.930 . S
H1478 C1483 0.930 . S
H1479 C1458 0.930 . S
H1480 C1491 0.931 . S
N1481 Tb1452 2.617 . S
N1481 C1482 1.379 . S
N1481 C1485 1.334 . S
C1482 N1481 1.379 . S
C1482 C1484 1.416 . S
C1482 C1490 1.424 . S
C1483 H1478 0.930 . S
C1483 C1485 1.390 . S
C1483 C1486 1.339 . S
C1484 C1482 1.416 . S
C1484 C1486 1.416 . S
C1484 C1517 1.448 . S
C1485 H1470 0.930 . S
C1485 N1481 1.334 . S
C1485 C1483 1.390 . S
C1486 C1483 1.339 . S
C1486 C1484 1.416 . S
C1486 H1493 0.930 . S
N1487 Tb1452 2.572 . S
N1487 C1488 1.340 . S
N1487 C1490 1.361 . S
C1488 H1474 0.930 . S
C1488 N1487 1.340 . S
C1488 C1492 1.407 . S
C1489 C1490 1.413 . S
C1489 C1491 1.416 . S
C1489 C1518 1.427 . S
C1490 C1482 1.424 . S
C1490 N1487 1.361 . S
C1490 C1489 1.413 . S
C1491 H1480 0.931 . S
C1491 C1489 1.416 . S
C1491 C1492 1.332 . S
C1492 H1471 0.929 . S
C1492 C1488 1.407 . S
C1492 C1491 1.332 . S
H1493 C1486 0.930 . S
H1494 C1517 0.930 . S
H1495 C1518 0.929 . S
O1496 Tb1452 2.465 . S
O1496 C1516 1.264 . S
O1497 Tb1452 2.387 . S
O1497 C1508 1.264 . S
O1498 Tb1463 2.349 . S
O1498 C1508 1.243 . S
O1499 Tb1452 2.428 . S
O1499 C1516 1.256 . S
O1500 Tb1452 2.308 . S
O1500 C1515 1.266 . S
O1501 Tb1463 2.393 . S
O1501 C1515 1.248 . S
O1502 Tb1463 2.465 . S
O1502 C1527 1.264 . S
O1503 Tb1463 2.387 . S
O1503 C1519 1.264 . S
O1504 Tb1452 2.349 . S
O1504 C1519 1.243 . S
O1505 Tb1463 2.428 . S
O1505 C1527 1.256 . S
O1506 Tb1463 2.308 . S
O1506 C1526 1.266 . S
O1507 Tb1452 2.393 . S
O1507 C1526 1.248 . S
C1508 O1497 1.264 . S
C1508 O1498 1.243 . S
C1509 C1512 1.399 . S
C1509 C1514 1.383 . S
C1509 C1516 1.496 . S
C1510 C1511 1.399 . S
C1510 C1514 1.389 . S
C1511 C1510 1.399 . S
C1511 C1513 1.380 . S
C1511 H1528 0.929 . S
C1512 C1509 1.399 . S
C1512 C1513 1.392 . S
C1512 H1529 0.929 . S
C1513 C1511 1.380 . S
C1513 C1512 1.392 . S
C1513 H1530 0.929 . S
C1514 C1509 1.383 . S
C1514 C1510 1.389 . S
C1514 H1531 0.931 . S
C1515 O1500 1.266 . S
C1515 O1501 1.248 . S
C1516 Tb1452 2.802 . S
C1516 O1496 1.264 . S
C1516 O1499 1.256 . S
C1516 C1509 1.496 . S
C1517 C1484 1.448 . S
C1517 H1494 0.930 . S
C1517 C1518 1.328 . S
C1518 C1489 1.427 . S
C1518 H1495 0.929 . S
C1518 C1517 1.328 . S
C1519 O1503 1.264 . S
C1519 O1504 1.243 . S
C1520 C1523 1.399 . S
C1520 C1524 1.383 . S
C1520 C1527 1.496 . S
C1521 C1522 1.399 . S
C1521 C1524 1.389 . S
C1522 C1521 1.399 . S
C1522 C1525 1.380 . S
C1522 H1532 0.929 . S
C1523 C1520 1.399 . S
C1523 C1525 1.392 . S
C1523 H1533 0.929 . S
C1524 C1520 1.383 . S
C1524 C1521 1.389 . S
C1524 H1534 0.931 . S
C1525 C1522 1.380 . S
C1525 C1523 1.392 . S
C1525 H1535 0.929 . S
C1526 O1506 1.266 . S
C1526 O1507 1.248 . S
C1527 Tb1463 2.802 . S
C1527 O1502 1.264 . S
C1527 O1505 1.256 . S
C1527 C1520 1.496 . S
H1528 C1511 0.929 . S
H1529 C1512 0.929 . S
H1530 C1513 0.929 . S
H1531 C1514 0.931 . S
H1532 C1522 0.929 . S
H1533 C1523 0.929 . S
H1534 C1524 0.931 . S
H1535 C1525 0.929 . S
Tb1536 N1565 2.617 1_554 S
Tb1536 N1571 2.572 1_554 S
Tb1536 O1580 2.465 . S
Tb1536 O1581 2.387 1_554 S
Tb1536 O1583 2.428 . S
Tb1536 O1584 2.308 . S
Tb1536 O1588 2.349 . S
Tb1536 O1591 2.393 . S
Tb1536 C1600 2.802 . S
C1537 N1538 1.379 . S
C1537 C1540 1.416 . S
C1537 C1544 1.424 . S
N1538 C1537 1.379 . S
N1538 C1541 1.334 . S
N1538 Tb1547 2.617 . S
C1539 C1541 1.390 . S
C1539 C1542 1.339 . S
C1539 H1559 0.930 . S
C1540 C1537 1.416 . S
C1540 C1542 1.416 . S
C1540 C1546 1.448 . S
C1541 N1538 1.334 . S
C1541 C1539 1.390 . S
C1541 H1552 0.930 . S
C1542 C1539 1.339 . S
C1542 C1540 1.416 . S
C1542 H1563 0.930 . S
C1543 C1544 1.413 . S
C1543 C1545 1.427 . S
C1543 C1549 1.416 . S
C1544 C1537 1.424 . S
C1544 C1543 1.413 . S
C1544 N1548 1.361 . S
C1545 C1543 1.427 . S
C1545 C1546 1.328 . S
C1545 H1560 0.929 . S
C1546 C1540 1.448 . S
C1546 C1545 1.328 . S
C1546 H1561 0.930 . S
Tb1547 N1538 2.617 . S
Tb1547 N1548 2.572 . S
Tb1547 O1582 2.349 1_554 S
Tb1547 O1585 2.393 . S
Tb1547 O1586 2.465 . S
Tb1547 O1587 2.387 . S
Tb1547 O1589 2.428 . S
Tb1547 O1590 2.308 . S
Tb1547 C1611 2.802 . S
N1548 C1544 1.361 . S
N1548 Tb1547 2.572 . S
N1548 C1550 1.340 . S
C1549 C1543 1.416 . S
C1549 C1551 1.332 . S
C1549 H1557 0.931 . S
C1550 N1548 1.340 . S
C1550 C1551 1.407 . S
C1550 H1556 0.930 . S
C1551 C1549 1.332 . S
C1551 C1550 1.407 . S
C1551 H1553 0.929 . S
H1552 C1541 0.930 . S
H1553 C1551 0.929 . S
H1554 C1569 0.930 1_554 S
H1555 C1576 0.929 . S
H1556 C1550 0.930 . S
H1557 C1549 0.931 . S
H1558 C1572 0.930 1_554 S
H1559 C1539 0.930 . S
H1560 C1545 0.929 . S
H1561 C1546 0.930 . S
H1562 C1567 0.930 . S
H1563 C1542 0.930 . S
H1564 C1575 0.931 . S
N1565 Tb1536 2.617 1_556 S
N1565 C1566 1.379 . S
N1565 C1569 1.334 . S
C1566 N1565 1.379 . S
C1566 C1568 1.416 . S
C1566 C1574 1.424 . S
C1567 H1562 0.930 . S
C1567 C1569 1.390 . S
C1567 C1570 1.339 . S
C1568 C1566 1.416 . S
C1568 C1570 1.416 . S
C1568 C1601 1.448 . S
C1569 H1554 0.930 1_556 S
C1569 N1565 1.334 . S
C1569 C1567 1.390 . S
C1570 C1567 1.339 . S
C1570 C1568 1.416 . S
C1570 H1577 0.930 . S
N1571 Tb1536 2.572 1_556 S
N1571 C1572 1.340 . S
N1571 C1574 1.361 . S
C1572 H1558 0.930 1_556 S
C1572 N1571 1.340 . S
C1572 C1576 1.407 . S
C1573 C1574 1.413 . S
C1573 C1575 1.416 . S
C1573 C1602 1.427 . S
C1574 C1566 1.424 . S
C1574 N1571 1.361 . S
C1574 C1573 1.413 . S
C1575 H1564 0.931 . S
C1575 C1573 1.416 . S
C1575 C1576 1.332 . S
C1576 H1555 0.929 . S
C1576 C1572 1.407 . S
C1576 C1575 1.332 . S
H1577 C1570 0.930 . S
H1578 C1601 0.930 . S
H1579 C1602 0.929 . S
O1580 Tb1536 2.465 . S
O1580 C1600 1.264 . S
O1581 Tb1536 2.387 1_556 S
O1581 C1592 1.264 . S
O1582 Tb1547 2.349 1_556 S
O1582 C1592 1.243 . S
O1583 Tb1536 2.428 . S
O1583 C1600 1.256 . S
O1584 Tb1536 2.308 . S
O1584 C1599 1.266 . S
O1585 Tb1547 2.393 . S
O1585 C1599 1.248 . S
O1586 Tb1547 2.465 . S
O1586 C1611 1.264 . S
O1587 Tb1547 2.387 . S
O1587 C1603 1.264 . S
O1588 Tb1536 2.349 . S
O1588 C1603 1.243 . S
O1589 Tb1547 2.428 . S
O1589 C1611 1.256 . S
O1590 Tb1547 2.308 . S
O1590 C1610 1.266 . S
O1591 Tb1536 2.393 . S
O1591 C1610 1.248 . S
C1592 O1581 1.264 . S
C1592 O1582 1.243 . S
C1593 C1596 1.399 . S
C1593 C1598 1.383 . S
C1593 C1600 1.496 . S
C1594 C1595 1.399 . S
C1594 C1598 1.389 . S
C1595 C1594 1.399 . S
C1595 C1597 1.380 . S
C1595 H1612 0.929 . S
C1596 C1593 1.399 . S
C1596 C1597 1.392 . S
C1596 H1613 0.929 . S
C1597 C1595 1.380 . S
C1597 C1596 1.392 . S
C1597 H1614 0.929 . S
C1598 C1593 1.383 . S
C1598 C1594 1.389 . S
C1598 H1615 0.931 . S
C1599 O1584 1.266 . S
C1599 O1585 1.248 . S
C1600 Tb1536 2.802 . S
C1600 O1580 1.264 . S
C1600 O1583 1.256 . S
C1600 C1593 1.496 . S
C1601 C1568 1.448 . S
C1601 H1578 0.930 . S
C1601 C1602 1.328 . S
C1602 C1573 1.427 . S
C1602 H1579 0.929 . S
C1602 C1601 1.328 . S
C1603 O1587 1.264 . S
C1603 O1588 1.243 . S
C1604 C1607 1.399 . S
C1604 C1608 1.383 . S
C1604 C1611 1.496 1_556 S
C1605 C1606 1.399 . S
C1605 C1608 1.389 . S
C1606 C1605 1.399 . S
C1606 C1609 1.380 . S
C1606 H1616 0.929 . S
C1607 C1604 1.399 . S
C1607 C1609 1.392 . S
C1607 H1617 0.929 . S
C1608 C1604 1.383 . S
C1608 C1605 1.389 . S
C1608 H1618 0.931 . S
C1609 C1606 1.380 . S
C1609 C1607 1.392 . S
C1609 H1619 0.929 . S
C1610 O1590 1.266 . S
C1610 O1591 1.248 . S
C1611 Tb1547 2.802 . S
C1611 O1586 1.264 . S
C1611 O1589 1.256 . S
C1611 C1604 1.496 1_554 S
H1612 C1595 0.929 . S
H1613 C1596 0.929 . S
H1614 C1597 0.929 . S
H1615 C1598 0.931 . S
H1616 C1606 0.929 . S
H1617 C1607 0.929 . S
H1618 C1608 0.931 . S
H1619 C1609 0.929 . S
Tb1620 N1649 2.617 . S
Tb1620 N1655 2.572 . S
Tb1620 O1664 2.465 . S
Tb1620 O1665 2.387 . S
Tb1620 O1667 2.428 . S
Tb1620 O1668 2.308 . S
Tb1620 O1672 2.349 . S
Tb1620 O1675 2.393 . S
Tb1620 C1684 2.802 . S
C1621 N1622 1.379 . S
C1621 C1624 1.416 . S
C1621 C1628 1.424 . S
N1622 C1621 1.379 . S
N1622 C1625 1.334 . S
N1622 Tb1631 2.617 . S
C1623 C1625 1.390 . S
C1623 C1626 1.339 . S
C1623 H1643 0.930 . S
C1624 C1621 1.416 . S
C1624 C1626 1.416 . S
C1624 C1630 1.448 . S
C1625 N1622 1.334 . S
C1625 C1623 1.390 . S
C1625 H1636 0.930 . S
C1626 C1623 1.339 . S
C1626 C1624 1.416 . S
C1626 H1647 0.930 . S
C1627 C1628 1.413 . S
C1627 C1629 1.427 . S
C1627 C1633 1.416 . S
C1628 C1621 1.424 . S
C1628 C1627 1.413 . S
C1628 N1632 1.361 . S
C1629 C1627 1.427 . S
C1629 C1630 1.328 . S
C1629 H1644 0.929 . S
C1630 C1624 1.448 . S
C1630 C1629 1.328 . S
C1630 H1645 0.930 . S
Tb1631 N1622 2.617 . S
Tb1631 N1632 2.572 . S
Tb1631 O1666 2.349 . S
Tb1631 O1669 2.393 . S
Tb1631 O1670 2.465 . S
Tb1631 O1671 2.387 . S
Tb1631 O1673 2.428 . S
Tb1631 O1674 2.308 . S
Tb1631 C1695 2.802 . S
N1632 C1628 1.361 . S
N1632 Tb1631 2.572 . S
N1632 C1634 1.340 . S
C1633 C1627 1.416 . S
C1633 C1635 1.332 . S
C1633 H1641 0.931 . S
C1634 N1632 1.340 . S
C1634 C1635 1.407 . S
C1634 H1640 0.930 . S
C1635 C1633 1.332 . S
C1635 C1634 1.407 . S
C1635 H1637 0.929 . S
H1636 C1625 0.930 . S
H1637 C1635 0.929 . S
H1638 C1653 0.930 . S
H1639 C1660 0.929 . S
H1640 C1634 0.930 . S
H1641 C1633 0.931 . S
H1642 C1656 0.930 . S
H1643 C1623 0.930 . S
H1644 C1629 0.929 . S
H1645 C1630 0.930 . S
H1646 C1651 0.930 . S
H1647 C1626 0.930 . S
H1648 C1659 0.931 . S
N1649 Tb1620 2.617 . S
N1649 C1650 1.379 . S
N1649 C1653 1.334 . S
C1650 N1649 1.379 . S
C1650 C1652 1.416 . S
C1650 C1658 1.424 . S
C1651 H1646 0.930 . S
C1651 C1653 1.390 . S
C1651 C1654 1.339 . S
C1652 C1650 1.416 . S
C1652 C1654 1.416 . S
C1652 C1685 1.448 . S
C1653 H1638 0.930 . S
C1653 N1649 1.334 . S
C1653 C1651 1.390 . S
C1654 C1651 1.339 . S
C1654 C1652 1.416 . S
C1654 H1661 0.930 . S
N1655 Tb1620 2.572 . S
N1655 C1656 1.340 . S
N1655 C1658 1.361 . S
C1656 H1642 0.930 . S
C1656 N1655 1.340 . S
C1656 C1660 1.407 . S
C1657 C1658 1.413 . S
C1657 C1659 1.416 . S
C1657 C1686 1.427 . S
C1658 C1650 1.424 . S
C1658 N1655 1.361 . S
C1658 C1657 1.413 . S
C1659 H1648 0.931 . S
C1659 C1657 1.416 . S
C1659 C1660 1.332 . S
C1660 H1639 0.929 . S
C1660 C1656 1.407 . S
C1660 C1659 1.332 . S
H1661 C1654 0.930 . S
H1662 C1685 0.930 . S
H1663 C1686 0.929 . S
O1664 Tb1620 2.465 . S
O1664 C1684 1.264 . S
O1665 Tb1620 2.387 . S
O1665 C1676 1.264 . S
O1666 Tb1631 2.349 . S
O1666 C1676 1.243 . S
O1667 Tb1620 2.428 . S
O1667 C1684 1.256 . S
O1668 Tb1620 2.308 . S
O1668 C1683 1.266 . S
O1669 Tb1631 2.393 . S
O1669 C1683 1.248 . S
O1670 Tb1631 2.465 . S
O1670 C1695 1.264 . S
O1671 Tb1631 2.387 . S
O1671 C1687 1.264 . S
O1672 Tb1620 2.349 . S
O1672 C1687 1.243 . S
O1673 Tb1631 2.428 . S
O1673 C1695 1.256 . S
O1674 Tb1631 2.308 . S
O1674 C1694 1.266 . S
O1675 Tb1620 2.393 . S
O1675 C1694 1.248 . S
C1676 O1665 1.264 . S
C1676 O1666 1.243 . S
C1677 C1680 1.399 . S
C1677 C1682 1.383 . S
C1677 C1684 1.496 . S
C1678 C1679 1.399 . S
C1678 C1682 1.389 . S
C1679 C1678 1.399 . S
C1679 C1681 1.380 . S
C1679 H1696 0.929 . S
C1680 C1677 1.399 . S
C1680 C1681 1.392 . S
C1680 H1697 0.929 . S
C1681 C1679 1.380 . S
C1681 C1680 1.392 . S
C1681 H1698 0.929 . S
C1682 C1677 1.383 . S
C1682 C1678 1.389 . S
C1682 H1699 0.931 . S
C1683 O1668 1.266 . S
C1683 O1669 1.248 . S
C1684 Tb1620 2.802 . S
C1684 O1664 1.264 . S
C1684 O1667 1.256 . S
C1684 C1677 1.496 . S
C1685 C1652 1.448 . S
C1685 H1662 0.930 . S
C1685 C1686 1.328 . S
C1686 C1657 1.427 . S
C1686 H1663 0.929 . S
C1686 C1685 1.328 . S
C1687 O1671 1.264 . S
C1687 O1672 1.243 . S
C1688 C1691 1.399 . S
C1688 C1692 1.383 . S
C1688 C1695 1.496 . S
C1689 C1690 1.399 . S
C1689 C1692 1.389 . S
C1690 C1689 1.399 . S
C1690 C1693 1.380 . S
C1690 H1700 0.929 . S
C1691 C1688 1.399 . S
C1691 C1693 1.392 . S
C1691 H1701 0.929 . S
C1692 C1688 1.383 . S
C1692 C1689 1.389 . S
C1692 H1702 0.931 . S
C1693 C1690 1.380 . S
C1693 C1691 1.392 . S
C1693 H1703 0.929 . S
C1694 O1674 1.266 . S
C1694 O1675 1.248 . S
C1695 Tb1631 2.802 . S
C1695 O1670 1.264 . S
C1695 O1673 1.256 . S
C1695 C1688 1.496 . S
H1696 C1679 0.929 . S
H1697 C1680 0.929 . S
H1698 C1681 0.929 . S
H1699 C1682 0.931 . S
H1700 C1690 0.929 . S
H1701 C1691 0.929 . S
H1702 C1692 0.931 . S
H1703 C1693 0.929 . S
Tb1704 N1733 2.625 . S
Tb1704 N1739 2.572 1_455 S
Tb1704 O1748 2.465 . S
Tb1704 O1749 2.387 1_455 S
Tb1704 O1751 2.428 . S
Tb1704 O1752 2.308 . S
Tb1704 O1756 2.349 . S
Tb1704 O1759 2.393 . S
Tb1704 C1768 2.802 . S
C1705 N1706 1.379 . S
C1705 C1708 1.416 . S
C1705 C1712 1.424 . S
N1706 C1705 1.379 . S
N1706 C1709 1.334 . S
N1706 Tb1715 2.617 . S
C1707 C1709 1.390 . S
C1707 C1710 1.339 . S
C1707 H1727 0.930 . S
C1708 C1705 1.416 . S
C1708 C1710 1.416 . S
C1708 C1714 1.448 . S
C1709 N1706 1.334 . S
C1709 C1707 1.390 . S
C1709 H1720 0.930 . S
C1710 C1707 1.339 . S
C1710 C1708 1.416 . S
C1710 H1731 0.930 . S
C1711 C1712 1.413 . S
C1711 C1713 1.427 . S
C1711 C1717 1.416 . S
C1712 C1705 1.424 . S
C1712 C1711 1.413 . S
C1712 N1716 1.361 . S
C1713 C1711 1.427 . S
C1713 C1714 1.328 . S
C1713 H1728 0.929 . S
C1714 C1708 1.448 . S
C1714 C1713 1.328 . S
C1714 H1729 0.930 . S
Tb1715 N1706 2.617 . S
Tb1715 N1716 2.572 . S
Tb1715 O1750 2.349 1_455 S
Tb1715 O1753 2.393 . S
Tb1715 O1754 2.465 . S
Tb1715 O1755 2.387 . S
Tb1715 O1757 2.428 . S
Tb1715 O1758 2.308 . S
Tb1715 C1779 2.802 . S
N1716 C1712 1.361 . S
N1716 Tb1715 2.572 . S
N1716 C1718 1.340 . S
C1717 C1711 1.416 . S
C1717 C1719 1.332 . S
C1717 H1725 0.931 . S
C1718 N1716 1.340 . S
C1718 C1719 1.407 . S
C1718 H1724 0.930 . S
C1719 C1717 1.332 . S
C1719 C1718 1.407 . S
C1719 H1721 0.929 . S
H1720 C1709 0.930 . S
H1721 C1719 0.929 . S
H1722 C1737 0.930 . S
H1723 C1744 0.929 . S
H1724 C1718 0.930 . S
H1725 C1717 0.931 . S
H1726 C1740 0.930 1_455 S
H1727 C1707 0.930 . S
H1728 C1713 0.929 . S
H1729 C1714 0.930 . S
H1730 C1735 0.930 . S
H1731 C1710 0.930 . S
H1732 C1743 0.931 . S
N1733 Tb1704 2.625 . S
N1733 C1734 1.373 1_455 S
N1733 C1737 1.332 . S
C1734 N1733 1.373 1_655 S
C1734 C1736 1.416 . S
C1734 C1742 1.424 . S
C1735 H1730 0.930 . S
C1735 C1737 1.390 1_655 S
C1735 C1738 1.339 . S
C1736 C1734 1.416 . S
C1736 C1738 1.416 . S
C1736 C1769 1.448 . S
C1737 H1722 0.930 . S
C1737 N1733 1.332 . S
C1737 C1735 1.390 1_455 S
C1738 C1735 1.339 . S
C1738 C1736 1.416 . S
C1738 H1745 0.930 . S
N1739 Tb1704 2.572 1_655 S
N1739 C1740 1.340 . S
N1739 C1742 1.361 . S
C1740 H1726 0.930 1_655 S
C1740 N1739 1.340 . S
C1740 C1744 1.407 . S
C1741 C1742 1.413 . S
C1741 C1743 1.416 . S
C1741 C1770 1.427 . S
C1742 C1734 1.424 . S
C1742 N1739 1.361 . S
C1742 C1741 1.413 . S
C1743 H1732 0.931 . S
C1743 C1741 1.416 . S
C1743 C1744 1.332 . S
C1744 H1723 0.929 . S
C1744 C1740 1.407 . S
C1744 C1743 1.332 . S
H1745 C1738 0.930 . S
H1746 C1769 0.930 . S
H1747 C1770 0.929 . S
O1748 Tb1704 2.465 . S
O1748 C1768 1.264 . S
O1749 Tb1704 2.387 1_655 S
O1749 C1760 1.264 . S
O1750 Tb1715 2.349 1_655 S
O1750 C1760 1.243 . S
O1751 Tb1704 2.428 . S
O1751 C1768 1.256 . S
O1752 Tb1704 2.308 . S
O1752 C1767 1.266 . S
O1753 Tb1715 2.393 . S
O1753 C1767 1.248 . S
O1754 Tb1715 2.465 . S
O1754 C1779 1.264 . S
O1755 Tb1715 2.387 . S
O1755 C1771 1.264 . S
O1756 Tb1704 2.349 . S
O1756 C1771 1.243 . S
O1757 Tb1715 2.428 . S
O1757 C1779 1.256 . S
O1758 Tb1715 2.308 . S
O1758 C1778 1.266 . S
O1759 Tb1704 2.393 . S
O1759 C1778 1.248 . S
C1760 O1749 1.264 . S
C1760 O1750 1.243 . S
C1761 C1764 1.399 . S
C1761 C1766 1.383 . S
C1761 C1768 1.496 . S
C1762 C1763 1.399 . S
C1762 C1766 1.389 . S
C1763 C1762 1.399 . S
C1763 C1765 1.380 . S
C1763 H1780 0.929 . S
C1764 C1761 1.399 . S
C1764 C1765 1.392 . S
C1764 H1781 0.929 . S
C1765 C1763 1.380 . S
C1765 C1764 1.392 . S
C1765 H1782 0.929 . S
C1766 C1761 1.383 . S
C1766 C1762 1.389 . S
C1766 H1783 0.931 . S
C1767 O1752 1.266 . S
C1767 O1753 1.248 . S
C1768 Tb1704 2.802 . S
C1768 O1748 1.264 . S
C1768 O1751 1.256 . S
C1768 C1761 1.496 . S
C1769 C1736 1.448 . S
C1769 H1746 0.930 . S
C1769 C1770 1.328 . S
C1770 C1741 1.427 . S
C1770 H1747 0.929 . S
C1770 C1769 1.328 . S
C1771 O1755 1.264 . S
C1771 O1756 1.243 . S
C1772 C1775 1.399 . S
C1772 C1776 1.383 . S
C1772 C1779 1.496 1_655 S
C1773 C1774 1.399 . S
C1773 C1776 1.389 . S
C1774 C1773 1.399 . S
C1774 C1777 1.380 . S
C1774 H1784 0.929 . S
C1775 C1772 1.399 . S
C1775 C1777 1.392 . S
C1775 H1785 0.929 . S
C1776 C1772 1.383 . S
C1776 C1773 1.389 . S
C1776 H1786 0.931 . S
C1777 C1774 1.380 . S
C1777 C1775 1.392 . S
C1777 H1787 0.929 . S
C1778 O1758 1.266 . S
C1778 O1759 1.248 . S
C1779 Tb1715 2.802 . S
C1779 O1754 1.264 . S
C1779 O1757 1.256 . S
C1779 C1772 1.496 1_455 S
H1780 C1763 0.929 . S
H1781 C1764 0.929 . S
H1782 C1765 0.929 . S
H1783 C1766 0.931 . S
H1784 C1774 0.929 . S
H1785 C1775 0.929 . S
H1786 C1776 0.931 . S
H1787 C1777 0.929 . S
Tb1788 N1817 2.617 . S
Tb1788 N1823 2.572 . S
Tb1788 O1832 2.465 . S
Tb1788 O1833 2.387 . S
Tb1788 O1835 2.428 . S
Tb1788 O1836 2.308 . S
Tb1788 O1840 2.349 . S
Tb1788 O1843 2.393 . S
Tb1788 C1852 2.802 . S
C1789 N1790 1.379 . S
C1789 C1792 1.416 . S
C1789 C1796 1.424 . S
N1790 C1789 1.379 . S
N1790 C1793 1.334 . S
N1790 Tb1799 2.617 . S
C1791 C1793 1.390 . S
C1791 C1794 1.339 . S
C1791 H1811 0.930 . S
C1792 C1789 1.416 . S
C1792 C1794 1.416 . S
C1792 C1798 1.448 . S
C1793 N1790 1.334 . S
C1793 C1791 1.390 . S
C1793 H1804 0.930 . S
C1794 C1791 1.339 . S
C1794 C1792 1.416 . S
C1794 H1815 0.930 . S
C1795 C1796 1.413 . S
C1795 C1797 1.427 . S
C1795 C1801 1.416 . S
C1796 C1789 1.424 . S
C1796 C1795 1.413 . S
C1796 N1800 1.361 . S
C1797 C1795 1.427 . S
C1797 C1798 1.328 . S
C1797 H1812 0.929 . S
C1798 C1792 1.448 . S
C1798 C1797 1.328 . S
C1798 H1813 0.930 . S
Tb1799 N1790 2.617 . S
Tb1799 N1800 2.572 . S
Tb1799 O1834 2.349 . S
Tb1799 O1837 2.393 . S
Tb1799 O1838 2.465 . S
Tb1799 O1839 2.387 . S
Tb1799 O1841 2.428 . S
Tb1799 O1842 2.308 . S
Tb1799 C1863 2.802 . S
N1800 C1796 1.361 . S
N1800 Tb1799 2.572 . S
N1800 C1802 1.340 . S
C1801 C1795 1.416 . S
C1801 C1803 1.332 . S
C1801 H1809 0.931 . S
C1802 N1800 1.340 . S
C1802 C1803 1.407 . S
C1802 H1808 0.930 . S
C1803 C1801 1.332 . S
C1803 C1802 1.407 . S
C1803 H1805 0.929 . S
H1804 C1793 0.930 . S
H1805 C1803 0.929 . S
H1806 C1821 0.930 . S
H1807 C1828 0.929 . S
H1808 C1802 0.930 . S
H1809 C1801 0.931 . S
H1810 C1824 0.930 . S
H1811 C1791 0.930 . S
H1812 C1797 0.929 . S
H1813 C1798 0.930 . S
H1814 C1819 0.930 . S
H1815 C1794 0.930 . S
H1816 C1827 0.931 . S
N1817 Tb1788 2.617 . S
N1817 C1818 1.379 . S
N1817 C1821 1.334 . S
C1818 N1817 1.379 . S
C1818 C1820 1.416 . S
C1818 C1826 1.424 . S
C1819 H1814 0.930 . S
C1819 C1821 1.390 . S
C1819 C1822 1.339 . S
C1820 C1818 1.416 . S
C1820 C1822 1.416 . S
C1820 C1853 1.448 . S
C1821 H1806 0.930 . S
C1821 N1817 1.334 . S
C1821 C1819 1.390 . S
C1822 C1819 1.339 . S
C1822 C1820 1.416 . S
C1822 H1829 0.930 . S
N1823 Tb1788 2.572 . S
N1823 C1824 1.340 . S
N1823 C1826 1.361 . S
C1824 H1810 0.930 . S
C1824 N1823 1.340 . S
C1824 C1828 1.407 . S
C1825 C1826 1.413 . S
C1825 C1827 1.416 . S
C1825 C1854 1.427 . S
C1826 C1818 1.424 . S
C1826 N1823 1.361 . S
C1826 C1825 1.413 . S
C1827 H1816 0.931 . S
C1827 C1825 1.416 . S
C1827 C1828 1.332 . S
C1828 H1807 0.929 . S
C1828 C1824 1.407 . S
C1828 C1827 1.332 . S
H1829 C1822 0.930 . S
H1830 C1853 0.930 . S
H1831 C1854 0.929 . S
O1832 Tb1788 2.465 . S
O1832 C1852 1.264 . S
O1833 Tb1788 2.387 . S
O1833 C1844 1.264 . S
O1834 Tb1799 2.349 . S
O1834 C1844 1.243 . S
O1835 Tb1788 2.428 . S
O1835 C1852 1.256 . S
O1836 Tb1788 2.308 . S
O1836 C1851 1.266 . S
O1837 Tb1799 2.393 . S
O1837 C1851 1.248 . S
O1838 Tb1799 2.465 . S
O1838 C1863 1.264 . S
O1839 Tb1799 2.387 . S
O1839 C1855 1.264 . S
O1840 Tb1788 2.349 . S
O1840 C1855 1.243 . S
O1841 Tb1799 2.428 . S
O1841 C1863 1.256 . S
O1842 Tb1799 2.308 . S
O1842 C1862 1.266 . S
O1843 Tb1788 2.393 . S
O1843 C1862 1.248 . S
C1844 O1833 1.264 . S
C1844 O1834 1.243 . S
C1845 C1848 1.399 . S
C1845 C1850 1.383 . S
C1845 C1852 1.496 . S
C1846 C1847 1.399 . S
C1846 C1850 1.389 . S
C1847 C1846 1.399 . S
C1847 C1849 1.380 . S
C1847 H1864 0.929 . S
C1848 C1845 1.399 . S
C1848 C1849 1.392 . S
C1848 H1865 0.929 . S
C1849 C1847 1.380 . S
C1849 C1848 1.392 . S
C1849 H1866 0.929 . S
C1850 C1845 1.383 . S
C1850 C1846 1.389 . S
C1850 H1867 0.931 . S
C1851 O1836 1.266 . S
C1851 O1837 1.248 . S
C1852 Tb1788 2.802 . S
C1852 O1832 1.264 . S
C1852 O1835 1.256 . S
C1852 C1845 1.496 . S
C1853 C1820 1.448 . S
C1853 H1830 0.930 . S
C1853 C1854 1.328 . S
C1854 C1825 1.427 . S
C1854 H1831 0.929 . S
C1854 C1853 1.328 . S
C1855 O1839 1.264 . S
C1855 O1840 1.243 . S
C1856 C1859 1.399 . S
C1856 C1860 1.383 . S
C1856 C1863 1.496 . S
C1857 C1858 1.399 . S
C1857 C1860 1.389 . S
C1858 C1857 1.399 . S
C1858 C1861 1.380 . S
C1858 H1868 0.929 . S
C1859 C1856 1.399 . S
C1859 C1861 1.392 . S
C1859 H1869 0.929 . S
C1860 C1856 1.383 . S
C1860 C1857 1.389 . S
C1860 H1870 0.931 . S
C1861 C1858 1.380 . S
C1861 C1859 1.392 . S
C1861 H1871 0.929 . S
C1862 O1842 1.266 . S
C1862 O1843 1.248 . S
C1863 Tb1799 2.802 . S
C1863 O1838 1.264 . S
C1863 O1841 1.256 . S
C1863 C1856 1.496 . S
H1864 C1847 0.929 . S
H1865 C1848 0.929 . S
H1866 C1849 0.929 . S
H1867 C1850 0.931 . S
H1868 C1858 0.929 . S
H1869 C1859 0.929 . S
H1870 C1860 0.931 . S
H1871 C1861 0.929 . S
Tb1872 N1901 2.617 . S
Tb1872 N1907 2.572 . S
Tb1872 O1916 2.465 . S
Tb1872 O1917 2.387 . S
Tb1872 O1919 2.428 . S
Tb1872 O1920 2.308 . S
Tb1872 O1924 2.349 . S
Tb1872 O1927 2.393 . S
Tb1872 C1936 2.802 . S
C1873 N1874 1.379 . S
C1873 C1876 1.416 . S
C1873 C1880 1.424 . S
N1874 C1873 1.379 . S
N1874 C1877 1.334 . S
N1874 Tb1883 2.617 . S
C1875 C1877 1.390 . S
C1875 C1878 1.339 . S
C1875 H1895 0.930 . S
C1876 C1873 1.416 . S
C1876 C1878 1.416 . S
C1876 C1882 1.448 . S
C1877 N1874 1.334 . S
C1877 C1875 1.390 . S
C1877 H1888 0.930 . S
C1878 C1875 1.339 . S
C1878 C1876 1.416 . S
C1878 H1899 0.930 . S
C1879 C1880 1.413 . S
C1879 C1881 1.427 . S
C1879 C1885 1.416 . S
C1880 C1873 1.424 . S
C1880 C1879 1.413 . S
C1880 N1884 1.361 . S
C1881 C1879 1.427 . S
C1881 C1882 1.328 . S
C1881 H1896 0.929 . S
C1882 C1876 1.448 . S
C1882 C1881 1.328 . S
C1882 H1897 0.930 . S
Tb1883 N1874 2.617 . S
Tb1883 N1884 2.572 . S
Tb1883 O1918 2.349 . S
Tb1883 O1921 2.393 . S
Tb1883 O1922 2.465 . S
Tb1883 O1923 2.387 . S
Tb1883 O1925 2.428 . S
Tb1883 O1926 2.308 . S
Tb1883 C1947 2.802 . S
N1884 C1880 1.361 . S
N1884 Tb1883 2.572 . S
N1884 C1886 1.340 . S
C1885 C1879 1.416 . S
C1885 C1887 1.332 . S
C1885 H1893 0.931 . S
C1886 N1884 1.340 . S
C1886 C1887 1.407 . S
C1886 H1892 0.930 . S
C1887 C1885 1.332 . S
C1887 C1886 1.407 . S
C1887 H1889 0.929 . S
H1888 C1877 0.930 . S
H1889 C1887 0.929 . S
H1890 C1905 0.930 . S
H1891 C1912 0.929 . S
H1892 C1886 0.930 . S
H1893 C1885 0.931 . S
H1894 C1908 0.930 . S
H1895 C1875 0.930 . S
H1896 C1881 0.929 . S
H1897 C1882 0.930 . S
H1898 C1903 0.930 . S
H1899 C1878 0.930 . S
H1900 C1911 0.931 . S
N1901 Tb1872 2.617 . S
N1901 C1902 1.379 . S
N1901 C1905 1.334 . S
C1902 N1901 1.379 . S
C1902 C1904 1.416 . S
C1902 C1910 1.424 . S
C1903 H1898 0.930 . S
C1903 C1905 1.390 . S
C1903 C1906 1.339 . S
C1904 C1902 1.416 . S
C1904 C1906 1.416 . S
C1904 C1937 1.448 . S
C1905 H1890 0.930 . S
C1905 N1901 1.334 . S
C1905 C1903 1.390 . S
C1906 C1903 1.339 . S
C1906 C1904 1.416 . S
C1906 H1913 0.930 . S
N1907 Tb1872 2.572 . S
N1907 C1908 1.340 . S
N1907 C1910 1.361 . S
C1908 H1894 0.930 . S
C1908 N1907 1.340 . S
C1908 C1912 1.407 . S
C1909 C1910 1.413 . S
C1909 C1911 1.416 . S
C1909 C1938 1.427 . S
C1910 C1902 1.424 . S
C1910 N1907 1.361 . S
C1910 C1909 1.413 . S
C1911 H1900 0.931 . S
C1911 C1909 1.416 . S
C1911 C1912 1.332 . S
C1912 H1891 0.929 . S
C1912 C1908 1.407 . S
C1912 C1911 1.332 . S
H1913 C1906 0.930 . S
H1914 C1937 0.930 . S
H1915 C1938 0.929 . S
O1916 Tb1872 2.465 . S
O1916 C1936 1.264 . S
O1917 Tb1872 2.387 . S
O1917 C1928 1.264 . S
O1918 Tb1883 2.349 . S
O1918 C1928 1.243 . S
O1919 Tb1872 2.428 . S
O1919 C1936 1.256 . S
O1920 Tb1872 2.308 . S
O1920 C1935 1.266 . S
O1921 Tb1883 2.393 . S
O1921 C1935 1.248 . S
O1922 Tb1883 2.465 . S
O1922 C1947 1.264 . S
O1923 Tb1883 2.387 . S
O1923 C1939 1.264 . S
O1924 Tb1872 2.349 . S
O1924 C1939 1.243 . S
O1925 Tb1883 2.428 . S
O1925 C1947 1.256 . S
O1926 Tb1883 2.308 . S
O1926 C1946 1.266 . S
O1927 Tb1872 2.393 . S
O1927 C1946 1.248 . S
C1928 O1917 1.264 . S
C1928 O1918 1.243 . S
C1929 C1932 1.399 . S
C1929 C1934 1.383 . S
C1929 C1936 1.496 . S
C1930 C1931 1.399 . S
C1930 C1934 1.389 . S
C1931 C1930 1.399 . S
C1931 C1933 1.380 . S
C1931 H1948 0.929 . S
C1932 C1929 1.399 . S
C1932 C1933 1.392 . S
C1932 H1949 0.929 . S
C1933 C1931 1.380 . S
C1933 C1932 1.392 . S
C1933 H1950 0.929 . S
C1934 C1929 1.383 . S
C1934 C1930 1.389 . S
C1934 H1951 0.931 . S
C1935 O1920 1.266 . S
C1935 O1921 1.248 . S
C1936 Tb1872 2.802 . S
C1936 O1916 1.264 . S
C1936 O1919 1.256 . S
C1936 C1929 1.496 . S
C1937 C1904 1.448 . S
C1937 H1914 0.930 . S
C1937 C1938 1.328 . S
C1938 C1909 1.427 . S
C1938 H1915 0.929 . S
C1938 C1937 1.328 . S
C1939 O1923 1.264 . S
C1939 O1924 1.243 . S
C1940 C1943 1.399 . S
C1940 C1944 1.383 . S
C1940 C1947 1.496 . S
C1941 C1942 1.399 . S
C1941 C1944 1.389 . S
C1942 C1941 1.399 . S
C1942 C1945 1.380 . S
C1942 H1952 0.929 . S
C1943 C1940 1.399 . S
C1943 C1945 1.392 . S
C1943 H1953 0.929 . S
C1944 C1940 1.383 . S
C1944 C1941 1.389 . S
C1944 H1954 0.931 . S
C1945 C1942 1.380 . S
C1945 C1943 1.392 . S
C1945 H1955 0.929 . S
C1946 O1926 1.266 . S
C1946 O1927 1.248 . S
C1947 Tb1883 2.802 . S
C1947 O1922 1.264 . S
C1947 O1925 1.256 . S
C1947 C1940 1.496 . S
H1948 C1931 0.929 . S
H1949 C1932 0.929 . S
H1950 C1933 0.929 . S
H1951 C1934 0.931 . S
H1952 C1942 0.929 . S
H1953 C1943 0.929 . S
H1954 C1944 0.931 . S
H1955 C1945 0.929 . S
Tb1956 N1985 2.617 . S
Tb1956 N1991 2.572 . S
Tb1956 O2000 2.465 . S
Tb1956 O2001 2.387 . S
Tb1956 O2003 2.428 . S
Tb1956 O2004 2.308 . S
Tb1956 O2008 2.349 . S
Tb1956 O2011 2.393 . S
Tb1956 C2020 2.802 . S
C1957 N1958 1.379 . S
C1957 C1960 1.416 . S
C1957 C1964 1.424 . S
N1958 C1957 1.379 . S
N1958 C1961 1.334 . S
N1958 Tb1967 2.617 . S
C1959 C1961 1.390 . S
C1959 C1962 1.339 . S
C1959 H1979 0.930 . S
C1960 C1957 1.416 . S
C1960 C1962 1.416 . S
C1960 C1966 1.448 . S
C1961 N1958 1.334 . S
C1961 C1959 1.390 . S
C1961 H1972 0.930 . S
C1962 C1959 1.339 . S
C1962 C1960 1.416 . S
C1962 H1983 0.930 . S
C1963 C1964 1.413 . S
C1963 C1965 1.427 . S
C1963 C1969 1.416 . S
C1964 C1957 1.424 . S
C1964 C1963 1.413 . S
C1964 N1968 1.361 . S
C1965 C1963 1.427 . S
C1965 C1966 1.328 . S
C1965 H1980 0.929 . S
C1966 C1960 1.448 . S
C1966 C1965 1.328 . S
C1966 H1981 0.930 . S
Tb1967 N1958 2.617 . S
Tb1967 N1968 2.572 . S
Tb1967 O2002 2.349 . S
Tb1967 O2005 2.393 . S
Tb1967 O2006 2.465 . S
Tb1967 O2007 2.387 . S
Tb1967 O2009 2.428 . S
Tb1967 O2010 2.308 . S
Tb1967 C2031 2.802 . S
N1968 C1964 1.361 . S
N1968 Tb1967 2.572 . S
N1968 C1970 1.340 . S
C1969 C1963 1.416 . S
C1969 C1971 1.332 . S
C1969 H1977 0.931 . S
C1970 N1968 1.340 . S
C1970 C1971 1.407 . S
C1970 H1976 0.930 . S
C1971 C1969 1.332 . S
C1971 C1970 1.407 . S
C1971 H1973 0.929 . S
H1972 C1961 0.930 . S
H1973 C1971 0.929 . S
H1974 C1989 0.930 . S
H1975 C1996 0.929 . S
H1976 C1970 0.930 . S
H1977 C1969 0.931 . S
H1978 C1992 0.930 . S
H1979 C1959 0.930 . S
H1980 C1965 0.929 . S
H1981 C1966 0.930 . S
H1982 C1987 0.930 . S
H1983 C1962 0.930 . S
H1984 C1995 0.931 . S
N1985 Tb1956 2.617 . S
N1985 C1986 1.379 . S
N1985 C1989 1.334 . S
C1986 N1985 1.379 . S
C1986 C1988 1.416 . S
C1986 C1994 1.424 . S
C1987 H1982 0.930 . S
C1987 C1989 1.390 . S
C1987 C1990 1.339 . S
C1988 C1986 1.416 . S
C1988 C1990 1.416 . S
C1988 C2021 1.448 . S
C1989 H1974 0.930 . S
C1989 N1985 1.334 . S
C1989 C1987 1.390 . S
C1990 C1987 1.339 . S
C1990 C1988 1.416 . S
C1990 H1997 0.930 . S
N1991 Tb1956 2.572 . S
N1991 C1992 1.340 . S
N1991 C1994 1.361 . S
C1992 H1978 0.930 . S
C1992 N1991 1.340 . S
C1992 C1996 1.407 . S
C1993 C1994 1.413 . S
C1993 C1995 1.416 . S
C1993 C2022 1.427 . S
C1994 C1986 1.424 . S
C1994 N1991 1.361 . S
C1994 C1993 1.413 . S
C1995 H1984 0.931 . S
C1995 C1993 1.416 . S
C1995 C1996 1.332 . S
C1996 H1975 0.929 . S
C1996 C1992 1.407 . S
C1996 C1995 1.332 . S
H1997 C1990 0.930 . S
H1998 C2021 0.930 . S
H1999 C2022 0.929 . S
O2000 Tb1956 2.465 . S
O2000 C2020 1.264 . S
O2001 Tb1956 2.387 . S
O2001 C2012 1.264 . S
O2002 Tb1967 2.349 . S
O2002 C2012 1.243 . S
O2003 Tb1956 2.428 . S
O2003 C2020 1.256 . S
O2004 Tb1956 2.308 . S
O2004 C2019 1.266 . S
O2005 Tb1967 2.393 . S
O2005 C2019 1.248 . S
O2006 Tb1967 2.465 . S
O2006 C2031 1.264 . S
O2007 Tb1967 2.387 . S
O2007 C2023 1.264 . S
O2008 Tb1956 2.349 . S
O2008 C2023 1.243 . S
O2009 Tb1967 2.428 . S
O2009 C2031 1.256 . S
O2010 Tb1967 2.308 . S
O2010 C2030 1.266 . S
O2011 Tb1956 2.393 . S
O2011 C2030 1.248 . S
C2012 O2001 1.264 . S
C2012 O2002 1.243 . S
C2013 C2016 1.399 . S
C2013 C2018 1.383 . S
C2013 C2020 1.496 . S
C2014 C2015 1.399 . S
C2014 C2018 1.389 . S
C2015 C2014 1.399 . S
C2015 C2017 1.380 . S
C2015 H2032 0.929 . S
C2016 C2013 1.399 . S
C2016 C2017 1.392 . S
C2016 H2033 0.929 . S
C2017 C2015 1.380 . S
C2017 C2016 1.392 . S
C2017 H2034 0.929 . S
C2018 C2013 1.383 . S
C2018 C2014 1.389 . S
C2018 H2035 0.931 . S
C2019 O2004 1.266 . S
C2019 O2005 1.248 . S
C2020 Tb1956 2.802 . S
C2020 O2000 1.264 . S
C2020 O2003 1.256 . S
C2020 C2013 1.496 . S
C2021 C1988 1.448 . S
C2021 H1998 0.930 . S
C2021 C2022 1.328 . S
C2022 C1993 1.427 . S
C2022 H1999 0.929 . S
C2022 C2021 1.328 . S
C2023 O2007 1.264 . S
C2023 O2008 1.243 . S
C2024 C2027 1.399 . S
C2024 C2028 1.383 . S
C2024 C2031 1.496 . S
C2025 C2026 1.399 . S
C2025 C2028 1.389 . S
C2026 C2025 1.399 . S
C2026 C2029 1.380 . S
C2026 H2036 0.929 . S
C2027 C2024 1.399 . S
C2027 C2029 1.392 . S
C2027 H2037 0.929 . S
C2028 C2024 1.383 . S
C2028 C2025 1.389 . S
C2028 H2038 0.931 . S
C2029 C2026 1.380 . S
C2029 C2027 1.392 . S
C2029 H2039 0.929 . S
C2030 O2010 1.266 . S
C2030 O2011 1.248 . S
C2031 Tb1967 2.802 . S
C2031 O2006 1.264 . S
C2031 O2009 1.256 . S
C2031 C2024 1.496 . S
H2032 C2015 0.929 . S
H2033 C2016 0.929 . S
H2034 C2017 0.929 . S
H2035 C2018 0.931 . S
H2036 C2026 0.929 . S
H2037 C2027 0.929 . S
H2038 C2028 0.931 . S
H2039 C2029 0.929 . S
Tb2040 N2069 2.617 . S
Tb2040 N2075 2.572 . S
Tb2040 O2084 2.465 . S
Tb2040 O2085 2.387 . S
Tb2040 O2087 2.428 . S
Tb2040 O2088 2.308 . S
Tb2040 O2092 2.349 . S
Tb2040 O2095 2.393 . S
Tb2040 C2104 2.802 . S
C2041 N2042 1.379 . S
C2041 C2044 1.416 . S
C2041 C2048 1.424 . S
N2042 C2041 1.379 . S
N2042 C2045 1.334 . S
N2042 Tb2051 2.617 . S
C2043 C2045 1.390 . S
C2043 C2046 1.339 . S
C2043 H2063 0.930 . S
C2044 C2041 1.416 . S
C2044 C2046 1.416 . S
C2044 C2050 1.448 . S
C2045 N2042 1.334 . S
C2045 C2043 1.390 . S
C2045 H2056 0.930 . S
C2046 C2043 1.339 . S
C2046 C2044 1.416 . S
C2046 H2067 0.930 . S
C2047 C2048 1.413 . S
C2047 C2049 1.427 . S
C2047 C2053 1.416 . S
C2048 C2041 1.424 . S
C2048 C2047 1.413 . S
C2048 N2052 1.361 . S
C2049 C2047 1.427 . S
C2049 C2050 1.328 . S
C2049 H2064 0.929 . S
C2050 C2044 1.448 . S
C2050 C2049 1.328 . S
C2050 H2065 0.930 . S
Tb2051 N2042 2.617 . S
Tb2051 N2052 2.572 . S
Tb2051 O2086 2.349 . S
Tb2051 O2089 2.393 . S
Tb2051 O2090 2.465 . S
Tb2051 O2091 2.387 . S
Tb2051 O2093 2.428 . S
Tb2051 O2094 2.308 . S
Tb2051 C2115 2.802 . S
N2052 C2048 1.361 . S
N2052 Tb2051 2.572 . S
N2052 C2054 1.340 . S
C2053 C2047 1.416 . S
C2053 C2055 1.332 . S
C2053 H2061 0.931 . S
C2054 N2052 1.340 . S
C2054 C2055 1.407 . S
C2054 H2060 0.930 . S
C2055 C2053 1.332 . S
C2055 C2054 1.407 . S
C2055 H2057 0.929 . S
H2056 C2045 0.930 . S
H2057 C2055 0.929 . S
H2058 C2073 0.930 . S
H2059 C2080 0.929 . S
H2060 C2054 0.930 . S
H2061 C2053 0.931 . S
H2062 C2076 0.930 . S
H2063 C2043 0.930 . S
H2064 C2049 0.929 . S
H2065 C2050 0.930 . S
H2066 C2071 0.930 . S
H2067 C2046 0.930 . S
H2068 C2079 0.931 . S
N2069 Tb2040 2.617 . S
N2069 C2070 1.379 . S
N2069 C2073 1.334 . S
C2070 N2069 1.379 . S
C2070 C2072 1.416 . S
C2070 C2078 1.424 . S
C2071 H2066 0.930 . S
C2071 C2073 1.390 . S
C2071 C2074 1.339 . S
C2072 C2070 1.416 . S
C2072 C2074 1.416 . S
C2072 C2105 1.448 . S
C2073 H2058 0.930 . S
C2073 N2069 1.334 . S
C2073 C2071 1.390 . S
C2074 C2071 1.339 . S
C2074 C2072 1.416 . S
C2074 H2081 0.930 . S
N2075 Tb2040 2.572 . S
N2075 C2076 1.340 . S
N2075 C2078 1.361 . S
C2076 H2062 0.930 . S
C2076 N2075 1.340 . S
C2076 C2080 1.407 . S
C2077 C2078 1.413 . S
C2077 C2079 1.416 . S
C2077 C2106 1.427 . S
C2078 C2070 1.424 . S
C2078 N2075 1.361 . S
C2078 C2077 1.413 . S
C2079 H2068 0.931 . S
C2079 C2077 1.416 . S
C2079 C2080 1.332 . S
C2080 H2059 0.929 . S
C2080 C2076 1.407 . S
C2080 C2079 1.332 . S
H2081 C2074 0.930 . S
H2082 C2105 0.930 . S
H2083 C2106 0.929 . S
O2084 Tb2040 2.465 . S
O2084 C2104 1.264 . S
O2085 Tb2040 2.387 . S
O2085 C2096 1.264 . S
O2086 Tb2051 2.349 . S
O2086 C2096 1.243 . S
O2087 Tb2040 2.428 . S
O2087 C2104 1.256 . S
O2088 Tb2040 2.308 . S
O2088 C2103 1.266 . S
O2089 Tb2051 2.393 . S
O2089 C2103 1.248 . S
O2090 Tb2051 2.465 . S
O2090 C2115 1.264 . S
O2091 Tb2051 2.387 . S
O2091 C2107 1.264 . S
O2092 Tb2040 2.349 . S
O2092 C2107 1.243 . S
O2093 Tb2051 2.428 . S
O2093 C2115 1.256 . S
O2094 Tb2051 2.308 . S
O2094 C2114 1.266 . S
O2095 Tb2040 2.393 . S
O2095 C2114 1.248 . S
C2096 O2085 1.264 . S
C2096 O2086 1.243 . S
C2097 C2100 1.399 . S
C2097 C2102 1.383 . S
C2097 C2104 1.496 . S
C2098 C2099 1.399 . S
C2098 C2102 1.389 . S
C2099 C2098 1.399 . S
C2099 C2101 1.380 . S
C2099 H2116 0.929 . S
C2100 C2097 1.399 . S
C2100 C2101 1.392 . S
C2100 H2117 0.929 . S
C2101 C2099 1.380 . S
C2101 C2100 1.392 . S
C2101 H2118 0.929 . S
C2102 C2097 1.383 . S
C2102 C2098 1.389 . S
C2102 H2119 0.931 . S
C2103 O2088 1.266 . S
C2103 O2089 1.248 . S
C2104 Tb2040 2.802 . S
C2104 O2084 1.264 . S
C2104 O2087 1.256 . S
C2104 C2097 1.496 . S
C2105 C2072 1.448 . S
C2105 H2082 0.930 . S
C2105 C2106 1.328 . S
C2106 C2077 1.427 . S
C2106 H2083 0.929 . S
C2106 C2105 1.328 . S
C2107 O2091 1.264 . S
C2107 O2092 1.243 . S
C2108 C2111 1.399 . S
C2108 C2112 1.383 . S
C2108 C2115 1.496 . S
C2109 C2110 1.399 . S
C2109 C2112 1.389 . S
C2110 C2109 1.399 . S
C2110 C2113 1.380 . S
C2110 H2120 0.929 . S
C2111 C2108 1.399 . S
C2111 C2113 1.392 . S
C2111 H2121 0.929 . S
C2112 C2108 1.383 . S
C2112 C2109 1.389 . S
C2112 H2122 0.931 . S
C2113 C2110 1.380 . S
C2113 C2111 1.392 . S
C2113 H2123 0.929 . S
C2114 O2094 1.266 . S
C2114 O2095 1.248 . S
C2115 Tb2051 2.802 . S
C2115 O2090 1.264 . S
C2115 O2093 1.256 . S
C2115 C2108 1.496 . S
H2116 C2099 0.929 . S
H2117 C2100 0.929 . S
H2118 C2101 0.929 . S
H2119 C2102 0.931 . S
H2120 C2110 0.929 . S
H2121 C2111 0.929 . S
H2122 C2112 0.931 . S
H2123 C2113 0.929 . S
Tb2124 N2153 2.607 1_455 S
Tb2124 N2159 2.544 1_455 S
Tb2124 O2168 2.428 1_455 S
Tb2124 O2169 2.411 . S
Tb2124 O2171 2.397 1_455 S
Tb2124 O2172 2.316 . S
Tb2124 O2176 2.362 . S
Tb2124 O2179 2.423 . S
Tb2124 C2188 2.764 1_455 S
C2125 N2126 1.379 . S
C2125 C2128 1.416 . S
C2125 C2132 1.424 1_556 S
N2126 C2125 1.379 . S
N2126 C2129 1.334 . S
N2126 Tb2135 2.617 1_556 S
C2127 C2129 1.390 . S
C2127 C2130 1.339 . S
C2127 H2147 0.930 . S
C2128 C2125 1.416 . S
C2128 C2130 1.416 . S
C2128 C2134 1.448 . S
C2129 N2126 1.334 . S
C2129 C2127 1.390 . S
C2129 H2140 0.930 . S
C2130 C2127 1.339 . S
C2130 C2128 1.416 . S
C2130 H2151 0.930 . S
C2131 C2132 1.413 . S
C2131 C2133 1.443 . S
C2131 C2137 1.416 . S
C2132 C2125 1.424 1_554 S
C2132 C2131 1.413 . S
C2132 N2136 1.361 . S
C2133 C2131 1.443 . S
C2133 C2134 1.310 1_554 S
C2133 H2148 0.932 . S
C2134 C2128 1.448 . S
C2134 C2133 1.310 1_556 S
C2134 H2149 0.930 . S
Tb2135 N2126 2.617 1_554 S
Tb2135 N2136 2.572 . S
Tb2135 O2170 2.349 . S
Tb2135 O2173 2.393 1_554 S
Tb2135 O2174 2.465 . S
Tb2135 O2175 2.387 . S
Tb2135 O2177 2.428 1_554 S
Tb2135 O2178 2.308 . S
Tb2135 C2199 2.802 . S
N2136 C2132 1.361 . S
N2136 Tb2135 2.572 . S
N2136 C2138 1.340 . S
C2137 C2131 1.416 . S
C2137 C2139 1.332 . S
C2137 H2145 0.931 . S
C2138 N2136 1.340 . S
C2138 C2139 1.407 . S
C2138 H2144 0.930 . S
C2139 C2137 1.332 . S
C2139 C2138 1.407 . S
C2139 H2141 0.929 . S
H2140 C2129 0.930 . S
H2141 C2139 0.929 . S
H2142 C2157 0.930 1_455 S
H2143 C2164 0.929 1_556 S
H2144 C2138 0.930 . S
H2145 C2137 0.931 . S
H2146 C2160 0.928 . S
H2147 C2127 0.930 . S
H2148 C2133 0.932 . S
H2149 C2134 0.930 . S
H2150 C2155 0.930 1_455 S
H2151 C2130 0.930 . S
H2152 C2163 0.931 . S
N2153 Tb2124 2.607 1_655 S
N2153 C2154 1.379 . S
N2153 C2157 1.334 . S
C2154 N2153 1.379 . S
C2154 C2156 1.416 . S
C2154 C2162 1.424 . S
C2155 H2150 0.930 1_655 S
C2155 C2157 1.390 . S
C2155 C2158 1.339 . S
C2156 C2154 1.416 . S
C2156 C2158 1.416 . S
C2156 C2189 1.448 . S
C2157 H2142 0.930 1_655 S
C2157 N2153 1.334 . S
C2157 C2155 1.390 . S
C2158 C2155 1.339 . S
C2158 C2156 1.416 . S
C2158 H2165 0.930 . S
N2159 Tb2124 2.544 1_655 S
N2159 C2160 1.340 . S
N2159 C2162 1.361 . S
C2160 H2146 0.928 . S
C2160 N2159 1.340 . S
C2160 C2164 1.407 . S
C2161 C2162 1.413 . S
C2161 C2163 1.416 . S
C2161 C2190 1.427 . S
C2162 C2154 1.424 . S
C2162 N2159 1.361 . S
C2162 C2161 1.413 . S
C2163 H2152 0.931 . S
C2163 C2161 1.416 . S
C2163 C2164 1.332 . S
C2164 H2143 0.929 1_554 S
C2164 C2160 1.407 . S
C2164 C2163 1.332 . S
H2165 C2158 0.930 . S
H2166 C2189 0.930 . S
H2167 C2190 0.929 . S
O2168 Tb2124 2.428 1_655 S
O2168 C2188 1.264 . S
O2169 Tb2124 2.411 . S
O2169 C2180 1.264 . S
O2170 Tb2135 2.349 . S
O2170 C2180 1.243 . S
O2171 Tb2124 2.397 1_655 S
O2171 C2188 1.256 . S
O2172 Tb2124 2.316 . S
O2172 C2187 1.266 1_554 S
O2173 Tb2135 2.393 1_556 S
O2173 C2187 1.248 . S
O2174 Tb2135 2.465 . S
O2174 C2199 1.264 . S
O2175 Tb2135 2.387 . S
O2175 C2191 1.264 . S
O2176 Tb2124 2.362 . S
O2176 C2191 1.243 . S
O2177 Tb2135 2.428 1_556 S
O2177 C2199 1.256 1_556 S
O2178 Tb2135 2.308 . S
O2178 C2198 1.266 . S
O2179 Tb2124 2.423 . S
O2179 C2198 1.248 . S
C2180 O2169 1.264 . S
C2180 O2170 1.243 . S
C2181 C2184 1.399 . S
C2181 C2186 1.383 . S
C2181 C2188 1.496 . S
C2182 C2183 1.399 . S
C2182 C2186 1.389 . S
C2183 C2182 1.399 . S
C2183 C2185 1.380 . S
C2183 H2200 0.929 . S
C2184 C2181 1.399 . S
C2184 C2185 1.392 . S
C2184 H2201 0.929 . S
C2185 C2183 1.380 . S
C2185 C2184 1.392 . S
C2185 H2202 0.929 . S
C2186 C2181 1.383 . S
C2186 C2182 1.389 . S
C2186 H2203 0.931 . S
C2187 O2172 1.266 1_556 S
C2187 O2173 1.248 . S
C2188 Tb2124 2.764 1_655 S
C2188 O2168 1.264 . S
C2188 O2171 1.256 . S
C2188 C2181 1.496 . S
C2189 C2156 1.448 . S
C2189 H2166 0.930 . S
C2189 C2190 1.328 . S
C2190 C2161 1.427 . S
C2190 H2167 0.929 . S
C2190 C2189 1.328 . S
C2191 O2175 1.264 . S
C2191 O2176 1.243 . S
C2192 C2195 1.399 . S
C2192 C2196 1.383 1_556 S
C2192 C2199 1.496 1_556 S
C2193 C2194 1.399 1_554 S
C2193 C2196 1.389 . S
C2194 C2193 1.399 1_556 S
C2194 C2197 1.380 . S
C2194 H2204 0.929 . S
C2195 C2192 1.399 . S
C2195 C2197 1.392 . S
C2195 H2205 0.929 . S
C2196 C2192 1.383 1_554 S
C2196 C2193 1.389 . S
C2196 H2206 0.931 . S
C2197 C2194 1.380 . S
C2197 C2195 1.392 . S
C2197 H2207 0.929 . S
C2198 O2178 1.266 . S
C2198 O2179 1.248 . S
C2199 Tb2135 2.802 . S
C2199 O2174 1.264 . S
C2199 O2177 1.256 1_554 S
C2199 C2192 1.496 1_554 S
H2200 C2183 0.929 . S
H2201 C2184 0.929 . S
H2202 C2185 0.929 . S
H2203 C2186 0.931 . S
H2204 C2194 0.929 . S
H2205 C2195 0.929 . S
H2206 C2196 0.931 . S
H2207 C2197 0.929 . S
H2208 C2214 0.930 . S
H2209 C2217 0.930 . S
H2210 C2218 0.930 . S
H2211 C2219 0.930 . S
H2212 C2222 0.930 . S
H2213 C2223 0.930 . S
C2214 H2208 0.930 . S
C2214 C2215 1.355 1_655 S
C2214 C2216 1.415 . S
C2215 C2214 1.355 1_455 S
C2215 C2217 1.419 . S
C2216 C2214 1.415 . S
C2216 C2221 1.425 1_656 S
C2216 C2223 1.409 . S
C2217 H2209 0.930 . S
C2217 C2215 1.419 . S
C2217 C2218 1.362 1_556 S
C2218 H2210 0.930 . S
C2218 C2217 1.362 1_554 S
C2218 C2221 1.409 . S
C2219 H2211 0.930 . S
C2219 C2220 1.355 . S
C2219 C2221 1.415 . S
C2220 C2219 1.355 . S
C2220 C2222 1.419 1_455 S
C2221 C2216 1.425 1_454 S
C2221 C2218 1.409 . S
C2221 C2219 1.415 . S
C2222 H2212 0.930 . S
C2222 C2220 1.419 1_655 S
C2222 C2223 1.362 1_554 S
C2223 H2213 0.930 . S
C2223 C2216 1.409 . S
C2223 C2222 1.362 1_556 S
H2224 C2230 0.930 . S
H2225 C2233 0.930 . S
H2226 C2234 0.930 . S
H2227 C2235 0.930 . S
H2228 C2238 0.930 . S
H2229 C2239 0.930 . S
C2230 H2224 0.930 . S
C2230 C2231 1.355 . S
C2230 C2232 1.415 . S
C2231 C2230 1.355 . S
C2231 C2233 1.419 . S
C2232 C2230 1.415 . S
C2232 C2237 1.425 . S
C2232 C2239 1.409 . S
C2233 H2225 0.930 . S
C2233 C2231 1.419 . S
C2233 C2234 1.362 . S
C2234 H2226 0.930 . S
C2234 C2233 1.362 . S
C2234 C2237 1.409 . S
C2235 H2227 0.930 . S
C2235 C2236 1.355 . S
C2235 C2237 1.415 . S
C2236 C2235 1.355 . S
C2236 C2238 1.419 . S
C2237 C2232 1.425 . S
C2237 C2234 1.409 . S
C2237 C2235 1.415 . S
C2238 H2228 0.930 . S
C2238 C2236 1.419 . S
C2238 C2239 1.362 . S
C2239 H2229 0.930 . S
C2239 C2232 1.409 . S
C2239 C2238 1.362 . S
H2240 C2246 0.930 . S
H2241 C2249 0.930 . S
H2242 C2250 0.930 . S
H2243 C2251 0.930 . S
H2244 C2254 0.930 . S
H2245 C2255 0.930 . S
C2246 H2240 0.930 . S
C2246 C2247 1.355 . S
C2246 C2248 1.415 . S
C2247 C2246 1.355 . S
C2247 C2249 1.419 . S
C2248 C2246 1.415 . S
C2248 C2253 1.425 . S
C2248 C2255 1.409 . S
C2249 H2241 0.930 . S
C2249 C2247 1.419 . S
C2249 C2250 1.362 . S
C2250 H2242 0.930 . S
C2250 C2249 1.362 . S
C2250 C2253 1.409 . S
C2251 H2243 0.930 . S
C2251 C2252 1.355 . S
C2251 C2253 1.415 . S
C2252 C2251 1.355 . S
C2252 C2254 1.419 . S
C2253 C2248 1.425 . S
C2253 C2250 1.409 . S
C2253 C2251 1.415 . S
C2254 H2244 0.930 . S
C2254 C2252 1.419 . S
C2254 C2255 1.362 . S
C2255 H2245 0.930 . S
C2255 C2248 1.409 . S
C2255 C2254 1.362 . S
H2256 C2262 0.930 . S
H2257 C2265 0.930 . S
H2258 C2266 0.930 . S
H2259 C2267 0.930 . S
H2260 C2270 0.930 . S
H2261 C2271 0.930 . S
C2262 H2256 0.930 . S
C2262 C2263 1.355 . S
C2262 C2264 1.415 . S
C2263 C2262 1.355 . S
C2263 C2265 1.419 . S
C2264 C2262 1.415 . S
C2264 C2269 1.425 . S
C2264 C2271 1.409 . S
C2265 H2257 0.930 . S
C2265 C2263 1.419 . S
C2265 C2266 1.362 . S
C2266 H2258 0.930 . S
C2266 C2265 1.362 . S
C2266 C2269 1.409 . S
C2267 H2259 0.930 . S
C2267 C2268 1.355 . S
C2267 C2269 1.415 . S
C2268 C2267 1.355 . S
C2268 C2270 1.419 . S
C2269 C2264 1.425 . S
C2269 C2266 1.409 . S
C2269 C2267 1.415 . S
C2270 H2260 0.930 . S
C2270 C2268 1.419 . S
C2270 C2271 1.362 . S
C2271 H2261 0.930 . S
C2271 C2264 1.409 . S
C2271 C2270 1.362 . S
H2272 C2278 0.930 . S
H2273 C2281 0.930 . S
H2274 C2282 0.930 . S
H2275 C2283 0.930 . S
H2276 C2286 0.930 . S
H2277 C2287 0.930 1_655 S
C2278 H2272 0.930 . S
C2278 C2279 1.355 . S
C2278 C2280 1.415 . S
C2279 C2278 1.355 . S
C2279 C2281 1.419 . S
C2280 C2278 1.415 . S
C2280 C2285 1.425 . S
C2280 C2287 1.409 . S
C2281 H2273 0.930 . S
C2281 C2279 1.419 . S
C2281 C2282 1.362 . S
C2282 H2274 0.930 . S
C2282 C2281 1.362 . S
C2282 C2285 1.409 . S
C2283 H2275 0.930 . S
C2283 C2284 1.355 . S
C2283 C2285 1.415 . S
C2284 C2283 1.355 . S
C2284 C2286 1.419 . S
C2285 C2280 1.425 . S
C2285 C2282 1.409 . S
C2285 C2283 1.415 . S
C2286 H2276 0.930 . S
C2286 C2284 1.419 . S
C2286 C2287 1.362 . S
C2287 H2277 0.930 1_455 S
C2287 C2280 1.409 . S
C2287 C2286 1.362 . S
H2288 C2294 0.930 . S
H2289 C2297 0.930 . S
H2290 C2298 0.930 . S
H2291 C2299 0.930 . S
H2292 C2302 0.930 . S
H2293 C2303 0.930 . S
C2294 H2288 0.930 . S
C2294 C2295 1.355 . S
C2294 C2296 1.415 . S
C2295 C2294 1.355 . S
C2295 C2297 1.419 . S
C2296 C2294 1.415 . S
C2296 C2301 1.425 . S
C2296 C2303 1.409 . S
C2297 H2289 0.930 . S
C2297 C2295 1.419 . S
C2297 C2298 1.362 . S
C2298 H2290 0.930 . S
C2298 C2297 1.362 . S
C2298 C2301 1.409 . S
C2299 H2291 0.930 . S
C2299 C2300 1.355 . S
C2299 C2301 1.415 . S
C2300 C2299 1.355 . S
C2300 C2302 1.419 . S
C2301 C2296 1.425 . S
C2301 C2298 1.409 . S
C2301 C2299 1.415 . S
C2302 H2292 0.930 . S
C2302 C2300 1.419 . S
C2302 C2303 1.362 . S
C2303 H2293 0.930 . S
C2303 C2296 1.409 . S
C2303 C2302 1.362 . S
H2304 C2310 0.930 . S
H2305 C2313 0.930 . S
H2306 C2314 0.930 . S
H2307 C2315 0.930 . S
H2308 C2318 0.930 . S
H2309 C2319 0.930 . S
C2310 H2304 0.930 . S
C2310 C2311 1.355 . S
C2310 C2312 1.415 . S
C2311 C2310 1.355 . S
C2311 C2313 1.419 . S
C2312 C2310 1.415 . S
C2312 C2317 1.425 . S
C2312 C2319 1.409 . S
C2313 H2305 0.930 . S
C2313 C2311 1.419 . S
C2313 C2314 1.362 . S
C2314 H2306 0.930 . S
C2314 C2313 1.362 . S
C2314 C2317 1.409 . S
C2315 H2307 0.930 . S
C2315 C2316 1.355 . S
C2315 C2317 1.415 . S
C2316 C2315 1.355 . S
C2316 C2318 1.419 . S
C2317 C2312 1.425 . S
C2317 C2314 1.409 . S
C2317 C2315 1.415 . S
C2318 H2308 0.930 . S
C2318 C2316 1.419 . S
C2318 C2319 1.362 . S
C2319 H2309 0.930 . S
C2319 C2312 1.409 . S
C2319 C2318 1.362 . S
H2320 C2326 0.930 . S
H2321 C2329 0.930 . S
H2322 C2330 0.930 . S
H2323 C2331 0.930 . S
H2324 C2334 0.930 . S
H2325 C2335 0.930 . S
C2326 H2320 0.930 . S
C2326 C2327 1.355 . S
C2326 C2328 1.415 . S
C2327 C2326 1.355 . S
C2327 C2329 1.419 . S
C2328 C2326 1.415 . S
C2328 C2333 1.425 . S
C2328 C2335 1.409 . S
C2329 H2321 0.930 . S
C2329 C2327 1.419 . S
C2329 C2330 1.362 . S
C2330 H2322 0.930 . S
C2330 C2329 1.362 . S
C2330 C2333 1.409 . S
C2331 H2323 0.930 . S
C2331 C2332 1.355 . S
C2331 C2333 1.415 . S
C2332 C2331 1.355 . S
C2332 C2334 1.419 . S
C2333 C2328 1.425 . S
C2333 C2330 1.409 . S
C2333 C2331 1.415 . S
C2334 H2324 0.930 . S
C2334 C2332 1.419 . S
C2334 C2335 1.362 . S
C2335 H2325 0.930 . S
C2335 C2328 1.409 . S
C2335 C2334 1.362 . S
H2336 C2342 0.930 1_565 S
H2337 C2345 0.930 . S
H2338 C2346 0.930 . S
H2339 C2347 0.930 . S
H2340 C2350 0.930 . S
H2341 C2351 0.930 1_565 S
C2342 H2336 0.930 1_545 S
C2342 C2343 1.355 . S
C2342 C2344 1.415 . S
C2343 C2342 1.355 . S
C2343 C2345 1.419 . S
C2344 C2342 1.415 . S
C2344 C2349 1.425 . S
C2344 C2351 1.409 1_655 S
C2345 H2337 0.930 . S
C2345 C2343 1.419 . S
C2345 C2346 1.362 . S
C2346 H2338 0.930 . S
C2346 C2345 1.362 . S
C2346 C2349 1.409 . S
C2347 H2339 0.930 . S
C2347 C2348 1.355 1_655 S
C2347 C2349 1.415 . S
C2348 C2347 1.355 1_455 S
C2348 C2350 1.419 . S
C2349 C2344 1.425 . S
C2349 C2346 1.409 . S
C2349 C2347 1.415 . S
C2350 H2340 0.930 . S
C2350 C2348 1.419 . S
C2350 C2351 1.362 . S
C2351 H2341 0.930 1_545 S
C2351 C2344 1.409 1_455 S
C2351 C2350 1.362 . S
H2352 C2358 0.930 . S
H2353 C2361 0.930 . S
H2354 C2362 0.930 . S
H2355 C2363 0.930 . S
H2356 C2366 0.930 . S
H2357 C2367 0.930 . S
C2358 H2352 0.930 . S
C2358 C2359 1.355 . S
C2358 C2360 1.415 . S
C2359 C2358 1.355 . S
C2359 C2361 1.419 . S
C2360 C2358 1.415 . S
C2360 C2365 1.425 . S
C2360 C2367 1.409 . S
C2361 H2353 0.930 . S
C2361 C2359 1.419 . S
C2361 C2362 1.362 . S
C2362 H2354 0.930 . S
C2362 C2361 1.362 . S
C2362 C2365 1.409 . S
C2363 H2355 0.930 . S
C2363 C2364 1.355 . S
C2363 C2365 1.415 . S
C2364 C2363 1.355 . S
C2364 C2366 1.419 . S
C2365 C2360 1.425 . S
C2365 C2362 1.409 . S
C2365 C2363 1.415 . S
C2366 H2356 0.930 . S
C2366 C2364 1.419 . S
C2366 C2367 1.362 . S
C2367 H2357 0.930 . S
C2367 C2360 1.409 . S
C2367 C2366 1.362 . S
H2368 C2374 0.930 . S
H2369 C2377 0.930 . S
H2370 C2378 0.930 . S
H2371 C2379 0.930 . S
H2372 C2382 0.930 . S
H2373 C2383 0.930 . S
C2374 H2368 0.930 . S
C2374 C2375 1.355 . S
C2374 C2376 1.415 . S
C2375 C2374 1.355 . S
C2375 C2377 1.419 . S
C2376 C2374 1.415 . S
C2376 C2381 1.425 . S
C2376 C2383 1.409 . S
C2377 H2369 0.930 . S
C2377 C2375 1.419 . S
C2377 C2378 1.362 . S
C2378 H2370 0.930 . S
C2378 C2377 1.362 . S
C2378 C2381 1.409 . S
C2379 H2371 0.930 . S
C2379 C2380 1.355 . S
C2379 C2381 1.415 . S
C2380 C2379 1.355 . S
C2380 C2382 1.419 . S
C2381 C2376 1.425 . S
C2381 C2378 1.409 . S
C2381 C2379 1.415 . S
C2382 H2372 0.930 . S
C2382 C2380 1.419 . S
C2382 C2383 1.362 . S
C2383 H2373 0.930 . S
C2383 C2376 1.409 . S
C2383 C2382 1.362 . S
H2384 C2390 0.930 . S
H2385 C2393 0.930 . S
H2386 C2394 0.930 . S
H2387 C2395 0.930 . S
H2388 C2398 0.930 . S
H2389 C2399 0.930 . S
C2390 H2384 0.930 . S
C2390 C2391 1.355 . S
C2390 C2392 1.415 . S
C2391 C2390 1.355 . S
C2391 C2393 1.419 . S
C2392 C2390 1.415 . S
C2392 C2397 1.425 . S
C2392 C2399 1.409 . S
C2393 H2385 0.930 . S
C2393 C2391 1.419 . S
C2393 C2394 1.362 . S
C2394 H2386 0.930 . S
C2394 C2393 1.362 . S
C2394 C2397 1.409 . S
C2395 H2387 0.930 . S
C2395 C2396 1.355 . S
C2395 C2397 1.415 . S
C2396 C2395 1.355 . S
C2396 C2398 1.419 . S
C2397 C2392 1.425 . S
C2397 C2394 1.409 . S
C2397 C2395 1.415 . S
C2398 H2388 0.930 . S
C2398 C2396 1.419 . S
C2398 C2399 1.362 . S
C2399 H2389 0.930 . S
C2399 C2392 1.409 . S
C2399 C2398 1.362 . S
H2400 C2406 0.930 . S
H2401 C2409 0.930 . S
H2402 C2410 0.930 . S
H2403 C2411 0.930 1_565 S
H2404 C2414 0.930 . S
H2405 C2415 0.930 . S
C2406 H2400 0.930 . S
C2406 C2407 1.355 . S
C2406 C2408 1.415 . S
C2407 C2406 1.355 . S
C2407 C2409 1.419 1_545 S
C2408 C2406 1.415 . S
C2408 C2413 1.425 . S
C2408 C2415 1.409 1_655 S
C2409 H2401 0.930 . S
C2409 C2407 1.419 1_565 S
C2409 C2410 1.362 . S
C2410 H2402 0.930 . S
C2410 C2409 1.362 . S
C2410 C2413 1.409 1_565 S
C2411 H2403 0.930 1_545 S
C2411 C2412 1.355 1_655 S
C2411 C2413 1.415 . S
C2412 C2411 1.355 1_455 S
C2412 C2414 1.419 . S
C2413 C2408 1.425 . S
C2413 C2410 1.409 1_545 S
C2413 C2411 1.415 . S
C2414 H2404 0.930 . S
C2414 C2412 1.419 . S
C2414 C2415 1.362 . S
C2415 H2405 0.930 . S
C2415 C2408 1.409 1_455 S
C2415 C2414 1.362 . S
H2416 C2422 0.930 . S
H2417 C2425 0.930 . S
H2418 C2426 0.930 . S
H2419 C2427 0.930 . S
H2420 C2430 0.930 . S
H2421 C2431 0.930 . S
C2422 H2416 0.930 . S
C2422 C2423 1.355 . S
C2422 C2424 1.415 . S
C2423 C2422 1.355 . S
C2423 C2425 1.419 . S
C2424 C2422 1.415 . S
C2424 C2429 1.425 . S
C2424 C2431 1.409 . S
C2425 H2417 0.930 . S
C2425 C2423 1.419 . S
C2425 C2426 1.362 . S
C2426 H2418 0.930 . S
C2426 C2425 1.362 . S
C2426 C2429 1.409 . S
C2427 H2419 0.930 . S
C2427 C2428 1.355 . S
C2427 C2429 1.415 . S
C2428 C2427 1.355 . S
C2428 C2430 1.419 . S
C2429 C2424 1.425 . S
C2429 C2426 1.409 . S
C2429 C2427 1.415 . S
C2430 H2420 0.930 . S
C2430 C2428 1.419 . S
C2430 C2431 1.362 . S
C2431 H2421 0.930 . S
C2431 C2424 1.409 . S
C2431 C2430 1.362 . S
H2432 C2438 0.930 . S
H2433 C2441 0.930 . S
H2434 C2442 0.930 . S
H2435 C2443 0.930 . S
H2436 C2446 0.930 . S
H2437 C2447 0.930 . S
C2438 H2432 0.930 . S
C2438 C2439 1.355 . S
C2438 C2440 1.415 . S
C2439 C2438 1.355 . S
C2439 C2441 1.419 . S
C2440 C2438 1.415 . S
C2440 C2445 1.425 . S
C2440 C2447 1.409 . S
C2441 H2433 0.930 . S
C2441 C2439 1.419 . S
C2441 C2442 1.362 . S
C2442 H2434 0.930 . S
C2442 C2441 1.362 . S
C2442 C2445 1.409 . S
C2443 H2435 0.930 . S
C2443 C2444 1.355 . S
C2443 C2445 1.415 . S
C2444 C2443 1.355 . S
C2444 C2446 1.419 . S
C2445 C2440 1.425 . S
C2445 C2442 1.409 . S
C2445 C2443 1.415 . S
C2446 H2436 0.930 . S
C2446 C2444 1.419 . S
C2446 C2447 1.362 . S
C2447 H2437 0.930 . S
C2447 C2440 1.409 . S
C2447 C2446 1.362 . S
H2448 C2454 0.930 . S
H2449 C2457 0.930 . S
H2450 C2458 0.930 . S
H2451 C2459 0.930 . S
H2452 C2462 0.930 . S
H2453 C2463 0.930 . S
C2454 H2448 0.930 . S
C2454 C2455 1.355 . S
C2454 C2456 1.415 . S
C2455 C2454 1.355 . S
C2455 C2457 1.419 . S
C2456 C2454 1.415 . S
C2456 C2461 1.425 . S
C2456 C2463 1.409 . S
C2457 H2449 0.930 . S
C2457 C2455 1.419 . S
C2457 C2458 1.362 . S
C2458 H2450 0.930 . S
C2458 C2457 1.362 . S
C2458 C2461 1.409 . S
C2459 H2451 0.930 . S
C2459 C2460 1.355 . S
C2459 C2461 1.415 . S
C2460 C2459 1.355 . S
C2460 C2462 1.419 . S
C2461 C2456 1.425 . S
C2461 C2458 1.409 . S
C2461 C2459 1.415 . S
C2462 H2452 0.930 . S
C2462 C2460 1.419 . S
C2462 C2463 1.362 . S
C2463 H2453 0.930 . S
C2463 C2456 1.409 . S
C2463 C2462 1.362 . S
H2464 C2470 0.930 . S
H2465 C2473 0.930 . S
H2466 C2474 0.930 . S
H2467 C2475 0.930 1_556 S
H2468 C2478 0.930 . S
H2469 C2479 0.930 1_545 S
C2470 H2464 0.930 . S
C2470 C2471 1.355 1_554 S
C2470 C2472 1.415 . S
C2471 C2470 1.355 1_556 S
C2471 C2473 1.419 . S
C2472 C2470 1.415 . S
C2472 C2477 1.425 . S
C2472 C2479 1.409 . S
C2473 H2465 0.930 . S
C2473 C2471 1.419 . S
C2473 C2474 1.362 . S
C2474 H2466 0.930 . S
C2474 C2473 1.362 . S
C2474 C2477 1.409 1_556 S
C2475 H2467 0.930 1_554 S
C2475 C2476 1.370 . S
C2475 C2477 1.415 . S
C2476 C2475 1.370 . S
C2476 C2478 1.420 1_565 S
C2477 C2472 1.425 . S
C2477 C2474 1.409 1_554 S
C2477 C2475 1.415 . S
C2478 H2468 0.930 . S
C2478 C2476 1.420 1_545 S
C2478 C2479 1.362 1_545 S
C2479 H2469 0.930 1_565 S
C2479 C2472 1.409 . S
C2479 C2478 1.362 1_565 S
H2480 C2486 0.930 . S
H2481 C2489 0.930 . S
H2482 C2490 0.930 . S
H2483 C2491 0.930 . S
H2484 C2494 0.930 . S
H2485 C2495 0.930 . S
C2486 H2480 0.930 . S
C2486 C2487 1.355 . S
C2486 C2488 1.415 . S
C2487 C2486 1.355 . S
C2487 C2489 1.419 . S
C2488 C2486 1.415 . S
C2488 C2493 1.425 . S
C2488 C2495 1.409 . S
C2489 H2481 0.930 . S
C2489 C2487 1.419 . S
C2489 C2490 1.362 . S
C2490 H2482 0.930 . S
C2490 C2489 1.362 . S
C2490 C2493 1.409 . S
C2491 H2483 0.930 . S
C2491 C2492 1.355 . S
C2491 C2493 1.415 . S
C2492 C2491 1.355 . S
C2492 C2494 1.419 . S
C2493 C2488 1.425 . S
C2493 C2490 1.409 . S
C2493 C2491 1.415 . S
C2494 H2484 0.930 . S
C2494 C2492 1.419 . S
C2494 C2495 1.362 . S
C2495 H2485 0.930 . S
C2495 C2488 1.409 . S
C2495 C2494 1.362 . S
H2496 C2502 0.930 . S
H2497 C2505 0.930 . S
H2498 C2506 0.930 . S
H2499 C2507 0.930 . S
H2500 C2510 0.930 . S
H2501 C2511 0.930 . S
C2502 H2496 0.930 . S
C2502 C2503 1.355 . S
C2502 C2504 1.415 . S
C2503 C2502 1.355 . S
C2503 C2505 1.419 . S
C2504 C2502 1.415 . S
C2504 C2509 1.425 . S
C2504 C2511 1.409 . S
C2505 H2497 0.930 . S
C2505 C2503 1.419 . S
C2505 C2506 1.362 . S
C2506 H2498 0.930 . S
C2506 C2505 1.362 . S
C2506 C2509 1.409 . S
C2507 H2499 0.930 . S
C2507 C2508 1.355 . S
C2507 C2509 1.415 . S
C2508 C2507 1.355 . S
C2508 C2510 1.419 . S
C2509 C2504 1.425 . S
C2509 C2506 1.409 . S
C2509 C2507 1.415 . S
C2510 H2500 0.930 . S
C2510 C2508 1.419 . S
C2510 C2511 1.362 . S
C2511 H2501 0.930 . S
C2511 C2504 1.409 . S
C2511 C2510 1.362 . S
H2512 C2518 0.930 . S
H2513 C2521 0.930 . S
H2514 C2522 0.930 . S
H2515 C2523 0.930 . S
H2516 C2526 0.930 . S
H2517 C2527 0.930 . S
C2518 H2512 0.930 . S
C2518 C2519 1.355 . S
C2518 C2520 1.415 . S
C2519 C2518 1.355 . S
C2519 C2521 1.419 . S
C2520 C2518 1.415 . S
C2520 C2525 1.425 . S
C2520 C2527 1.409 . S
C2521 H2513 0.930 . S
C2521 C2519 1.419 . S
C2521 C2522 1.362 . S
C2522 H2514 0.930 . S
C2522 C2521 1.362 . S
C2522 C2525 1.409 . S
C2523 H2515 0.930 . S
C2523 C2524 1.355 . S
C2523 C2525 1.415 . S
C2524 C2523 1.355 . S
C2524 C2526 1.419 . S
C2525 C2520 1.425 . S
C2525 C2522 1.409 . S
C2525 C2523 1.415 . S
C2526 H2516 0.930 . S
C2526 C2524 1.419 . S
C2526 C2527 1.362 . S
C2527 H2517 0.930 . S
C2527 C2520 1.409 . S
C2527 C2526 1.362 . S
H2528 C2534 0.930 . S
H2529 C2537 0.930 . S
H2530 C2538 0.930 . S
H2531 C2539 0.930 . S
H2532 C2542 0.930 . S
H2533 C2543 0.930 . S
C2534 H2528 0.930 . S
C2534 C2535 1.355 . S
C2534 C2536 1.415 . S
C2535 C2534 1.355 . S
C2535 C2537 1.419 . S
C2536 C2534 1.415 . S
C2536 C2541 1.425 . S
C2536 C2543 1.409 . S
C2537 H2529 0.930 . S
C2537 C2535 1.419 . S
C2537 C2538 1.362 . S
C2538 H2530 0.930 . S
C2538 C2537 1.362 . S
C2538 C2541 1.409 . S
C2539 H2531 0.930 . S
C2539 C2540 1.355 . S
C2539 C2541 1.415 . S
C2540 C2539 1.355 . S
C2540 C2542 1.419 . S
C2541 C2536 1.425 . S
C2541 C2538 1.409 . S
C2541 C2539 1.415 . S
C2542 H2532 0.930 . S
C2542 C2540 1.419 . S
C2542 C2543 1.362 . S
C2543 H2533 0.930 . S
C2543 C2536 1.409 . S
C2543 C2542 1.362 . S
H2544 C2550 0.930 . S
H2545 C2553 0.930 . S
H2546 C2554 0.930 . S
H2547 C2555 0.930 . S
H2548 C2558 0.930 . S
H2549 C2559 0.930 . S
C2550 H2544 0.930 . S
C2550 C2551 1.355 . S
C2550 C2552 1.415 . S
C2551 C2550 1.355 . S
C2551 C2553 1.419 . S
C2552 C2550 1.415 . S
C2552 C2557 1.425 . S
C2552 C2559 1.409 . S
C2553 H2545 0.930 . S
C2553 C2551 1.419 . S
C2553 C2554 1.362 . S
C2554 H2546 0.930 . S
C2554 C2553 1.362 . S
C2554 C2557 1.409 . S
C2555 H2547 0.930 . S
C2555 C2556 1.355 . S
C2555 C2557 1.415 . S
C2556 C2555 1.355 . S
C2556 C2558 1.419 . S
C2557 C2552 1.425 . S
C2557 C2554 1.409 . S
C2557 C2555 1.415 . S
C2558 H2548 0.930 . S
C2558 C2556 1.419 . S
C2558 C2559 1.362 . S
C2559 H2549 0.930 . S
C2559 C2552 1.409 . S
C2559 C2558 1.362 . S
H2560 C2566 0.930 . S
H2561 C2569 0.930 . S
H2562 C2570 0.930 . S
H2563 C2571 0.930 . S
H2564 C2574 0.930 . S
H2565 C2575 0.930 . S
C2566 H2560 0.930 . S
C2566 C2567 1.355 . S
C2566 C2568 1.415 . S
C2567 C2566 1.355 . S
C2567 C2569 1.419 . S
C2568 C2566 1.415 . S
C2568 C2573 1.425 . S
C2568 C2575 1.409 . S
C2569 H2561 0.930 . S
C2569 C2567 1.419 . S
C2569 C2570 1.362 . S
C2570 H2562 0.930 . S
C2570 C2569 1.362 . S
C2570 C2573 1.409 . S
C2571 H2563 0.930 . S
C2571 C2572 1.355 . S
C2571 C2573 1.415 . S
C2572 C2571 1.355 . S
C2572 C2574 1.419 . S
C2573 C2568 1.425 . S
C2573 C2570 1.409 . S
C2573 C2571 1.415 . S
C2574 H2564 0.930 . S
C2574 C2572 1.419 . S
C2574 C2575 1.362 . S
C2575 H2565 0.930 . S
C2575 C2568 1.409 . S
C2575 C2574 1.362 . S
H2576 C2582 0.930 . S
H2577 C2585 0.930 . S
H2578 C2586 0.930 . S
H2579 C2587 0.930 . S
H2580 C2590 0.930 . S
H2581 C2591 0.930 . S
C2582 H2576 0.930 . S
C2582 C2583 1.355 . S
C2582 C2584 1.415 . S
C2583 C2582 1.355 . S
C2583 C2585 1.419 . S
C2584 C2582 1.415 . S
C2584 C2589 1.425 . S
C2584 C2591 1.409 . S
C2585 H2577 0.930 . S
C2585 C2583 1.419 . S
C2585 C2586 1.362 . S
C2586 H2578 0.930 . S
C2586 C2585 1.362 . S
C2586 C2589 1.409 . S
C2587 H2579 0.930 . S
C2587 C2588 1.355 . S
C2587 C2589 1.415 . S
C2588 C2587 1.355 . S
C2588 C2590 1.419 . S
C2589 C2584 1.425 . S
C2589 C2586 1.409 . S
C2589 C2587 1.415 . S
C2590 H2580 0.930 . S
C2590 C2588 1.419 . S
C2590 C2591 1.362 . S
C2591 H2581 0.930 . S
C2591 C2584 1.409 . S
C2591 C2590 1.362 . S
H2592 C2598 0.930 . S
H2593 C2601 0.930 . S
H2594 C2602 0.930 . S
H2595 C2603 0.930 . S
H2596 C2606 0.930 . S
H2597 C2607 0.930 . S
C2598 H2592 0.930 . S
C2598 C2599 1.355 . S
C2598 C2600 1.415 . S
C2599 C2598 1.355 . S
C2599 C2601 1.419 . S
C2600 C2598 1.415 . S
C2600 C2605 1.425 . S
C2600 C2607 1.409 . S
C2601 H2593 0.930 . S
C2601 C2599 1.419 . S
C2601 C2602 1.362 . S
C2602 H2594 0.930 . S
C2602 C2601 1.362 . S
C2602 C2605 1.409 . S
C2603 H2595 0.930 . S
C2603 C2604 1.355 . S
C2603 C2605 1.415 . S
C2604 C2603 1.355 . S
C2604 C2606 1.419 . S
C2605 C2600 1.425 . S
C2605 C2602 1.409 . S
C2605 C2603 1.415 . S
C2606 H2596 0.930 . S
C2606 C2604 1.419 . S
C2606 C2607 1.362 . S
C2607 H2597 0.930 . S
C2607 C2600 1.409 . S
C2607 C2606 1.362 . S
H2608 C2614 0.930 . S
H2609 C2617 0.930 . S
H2610 C2618 0.930 . S
H2611 C2619 0.930 . S
H2612 C2622 0.930 . S
H2613 C2623 0.930 . S
C2614 H2608 0.930 . S
C2614 C2615 1.355 . S
C2614 C2616 1.415 . S
C2615 C2614 1.355 . S
C2615 C2617 1.419 . S
C2616 C2614 1.415 . S
C2616 C2621 1.425 . S
C2616 C2623 1.409 . S
C2617 H2609 0.930 . S
C2617 C2615 1.419 . S
C2617 C2618 1.362 . S
C2618 H2610 0.930 . S
C2618 C2617 1.362 . S
C2618 C2621 1.409 . S
C2619 H2611 0.930 . S
C2619 C2620 1.355 . S
C2619 C2621 1.415 . S
C2620 C2619 1.355 . S
C2620 C2622 1.419 . S
C2621 C2616 1.425 . S
C2621 C2618 1.409 . S
C2621 C2619 1.415 . S
C2622 H2612 0.930 . S
C2622 C2620 1.419 . S
C2622 C2623 1.362 . S
C2623 H2613 0.930 . S
C2623 C2616 1.409 . S
C2623 C2622 1.362 . S
H2624 C2630 0.930 . S
H2625 C2633 0.930 . S
H2626 C2634 0.930 . S
H2627 C2635 0.930 . S
H2628 C2638 0.930 . S
H2629 C2639 0.930 . S
C2630 H2624 0.930 . S
C2630 C2631 1.355 . S
C2630 C2632 1.415 . S
C2631 C2630 1.355 . S
C2631 C2633 1.419 . S
C2632 C2630 1.415 . S
C2632 C2637 1.425 . S
C2632 C2639 1.409 . S
C2633 H2625 0.930 . S
C2633 C2631 1.419 . S
C2633 C2634 1.362 . S
C2634 H2626 0.930 . S
C2634 C2633 1.362 . S
C2634 C2637 1.409 . S
C2635 H2627 0.930 . S
C2635 C2636 1.355 . S
C2635 C2637 1.415 . S
C2636 C2635 1.355 . S
C2636 C2638 1.419 . S
C2637 C2632 1.425 . S
C2637 C2634 1.409 . S
C2637 C2635 1.415 . S
C2638 H2628 0.930 . S
C2638 C2636 1.419 . S
C2638 C2639 1.362 . S
C2639 H2629 0.930 . S
C2639 C2632 1.409 . S
C2639 C2638 1.362 . S
H2640 C2646 0.930 . S
H2641 C2649 0.930 . S
H2642 C2650 0.930 . S
H2643 C2651 0.930 . S
H2644 C2654 0.930 . S
H2645 C2655 0.930 . S
C2646 H2640 0.930 . S
C2646 C2647 1.355 . S
C2646 C2648 1.415 . S
C2647 C2646 1.355 . S
C2647 C2649 1.419 . S
C2648 C2646 1.415 . S
C2648 C2653 1.425 . S
C2648 C2655 1.409 . S
C2649 H2641 0.930 . S
C2649 C2647 1.419 . S
C2649 C2650 1.362 . S
C2650 H2642 0.930 . S
C2650 C2649 1.362 . S
C2650 C2653 1.409 . S
C2651 H2643 0.930 . S
C2651 C2652 1.355 . S
C2651 C2653 1.415 . S
C2652 C2651 1.355 . S
C2652 C2654 1.419 . S
C2653 C2648 1.425 . S
C2653 C2650 1.409 . S
C2653 C2651 1.415 . S
C2654 H2644 0.930 . S
C2654 C2652 1.419 . S
C2654 C2655 1.362 . S
C2655 H2645 0.930 . S
C2655 C2648 1.409 . S
C2655 C2654 1.362 . S
H2656 C2662 0.930 . S
H2657 C2665 0.930 . S
H2658 C2666 0.930 . S
H2659 C2667 0.930 . S
H2660 C2670 0.930 . S
H2661 C2671 0.930 . S
C2662 H2656 0.930 . S
C2662 C2663 1.355 . S
C2662 C2664 1.415 . S
C2663 C2662 1.355 . S
C2663 C2665 1.419 . S
C2664 C2662 1.415 . S
C2664 C2669 1.425 . S
C2664 C2671 1.409 . S
C2665 H2657 0.930 . S
C2665 C2663 1.419 . S
C2665 C2666 1.362 . S
C2666 H2658 0.930 . S
C2666 C2665 1.362 . S
C2666 C2669 1.409 . S
C2667 H2659 0.930 . S
C2667 C2668 1.355 . S
C2667 C2669 1.415 . S
C2668 C2667 1.355 . S
C2668 C2670 1.419 . S
C2669 C2664 1.425 . S
C2669 C2666 1.409 . S
C2669 C2667 1.415 . S
C2670 H2660 0.930 . S
C2670 C2668 1.419 . S
C2670 C2671 1.362 . S
C2671 H2661 0.930 . S
C2671 C2664 1.409 . S
C2671 C2670 1.362 . S
H2672 C2678 0.930 . S
H2673 C2681 0.930 . S
H2674 C2682 0.930 . S
H2675 C2683 0.930 . S
H2676 C2686 0.930 . S
H2677 C2687 0.930 . S
C2678 H2672 0.930 . S
C2678 C2679 1.355 . S
C2678 C2680 1.415 . S
C2679 C2678 1.355 . S
C2679 C2681 1.419 . S
C2680 C2678 1.415 . S
C2680 C2685 1.425 . S
C2680 C2687 1.409 . S
C2681 H2673 0.930 . S
C2681 C2679 1.419 . S
C2681 C2682 1.362 . S
C2682 H2674 0.930 . S
C2682 C2681 1.362 . S
C2682 C2685 1.409 . S
C2683 H2675 0.930 . S
C2683 C2684 1.355 . S
C2683 C2685 1.415 . S
C2684 C2683 1.355 . S
C2684 C2686 1.419 . S
C2685 C2680 1.425 . S
C2685 C2682 1.409 . S
C2685 C2683 1.415 . S
C2686 H2676 0.930 . S
C2686 C2684 1.419 . S
C2686 C2687 1.362 . S
C2687 H2677 0.930 . S
C2687 C2680 1.409 . S
C2687 C2686 1.362 . S
H2688 C2694 0.930 . S
H2689 C2697 0.930 . S
H2690 C2698 0.930 . S
H2691 C2699 0.919 1_554 S
H2692 C2702 0.930 . S
H2693 C2703 0.930 . S
C2694 H2688 0.930 . S
C2694 C2695 1.355 . S
C2694 C2696 1.415 . S
C2695 C2694 1.355 . S
C2695 C2697 1.419 . S
C2696 C2694 1.415 . S
C2696 C2701 1.425 . S
C2696 C2703 1.409 . S
C2697 H2689 0.930 . S
C2697 C2695 1.419 . S
C2697 C2698 1.362 . S
C2698 H2690 0.930 . S
C2698 C2697 1.362 . S
C2698 C2701 1.409 . S
C2699 H2691 0.919 1_556 S
C2699 C2700 1.355 . S
C2699 C2701 1.415 . S
C2700 C2699 1.355 . S
C2700 C2702 1.419 . S
C2701 C2696 1.425 . S
C2701 C2698 1.409 . S
C2701 C2699 1.415 . S
C2702 H2692 0.930 . S
C2702 C2700 1.419 . S
C2702 C2703 1.362 . S
C2703 H2693 0.930 . S
C2703 C2696 1.409 . S
C2703 C2702 1.362 . S
H2704 C2710 0.930 . S
H2705 C2713 0.930 . S
H2706 C2714 0.930 . S
H2707 C2715 0.930 . S
H2708 C2718 0.930 . S
H2709 C2719 0.930 . S
C2710 H2704 0.930 . S
C2710 C2711 1.355 . S
C2710 C2712 1.415 . S
C2711 C2710 1.355 . S
C2711 C2713 1.419 . S
C2712 C2710 1.415 . S
C2712 C2717 1.425 . S
C2712 C2719 1.409 . S
C2713 H2705 0.930 . S
C2713 C2711 1.419 . S
C2713 C2714 1.362 . S
C2714 H2706 0.930 . S
C2714 C2713 1.362 . S
C2714 C2717 1.409 . S
C2715 H2707 0.930 . S
C2715 C2716 1.355 . S
C2715 C2717 1.415 . S
C2716 C2715 1.355 . S
C2716 C2718 1.419 . S
C2717 C2712 1.425 . S
C2717 C2714 1.409 . S
C2717 C2715 1.415 . S
C2718 H2708 0.930 . S
C2718 C2716 1.419 . S
C2718 C2719 1.362 . S
C2719 H2709 0.930 . S
C2719 C2712 1.409 . S
C2719 C2718 1.362 . S
H2720 C2726 0.930 . S
H2721 C2729 0.930 . S
H2722 C2730 0.930 . S
H2723 C2731 0.930 . S
H2724 C2734 0.917 1_565 S
H2725 C2735 0.930 . S
C2726 H2720 0.930 . S
C2726 C2727 1.355 . S
C2726 C2728 1.415 . S
C2727 C2726 1.355 . S
C2727 C2729 1.419 . S
C2728 C2726 1.415 . S
C2728 C2733 1.425 . S
C2728 C2735 1.409 . S
C2729 H2721 0.930 . S
C2729 C2727 1.419 . S
C2729 C2730 1.362 . S
C2730 H2722 0.930 . S
C2730 C2729 1.362 . S
C2730 C2733 1.409 . S
C2731 H2723 0.930 . S
C2731 C2732 1.355 . S
C2731 C2733 1.415 . S
C2732 C2731 1.355 . S
C2732 C2734 1.419 . S
C2733 C2728 1.425 . S
C2733 C2730 1.409 . S
C2733 C2731 1.415 . S
C2734 H2724 0.917 1_545 S
C2734 C2732 1.419 . S
C2734 C2735 1.362 . S
C2735 H2725 0.930 . S
C2735 C2728 1.409 . S
C2735 C2734 1.362 . S
H2736 C2742 0.930 . S
H2737 C2745 0.930 . S
H2738 C2746 0.930 . S
H2739 C2747 0.930 . S
H2740 C2750 0.930 . S
H2741 C2751 0.930 . S
C2742 H2736 0.930 . S
C2742 C2743 1.355 . S
C2742 C2744 1.415 . S
C2743 C2742 1.355 . S
C2743 C2745 1.419 . S
C2744 C2742 1.415 . S
C2744 C2749 1.425 . S
C2744 C2751 1.409 . S
C2745 H2737 0.930 . S
C2745 C2743 1.419 . S
C2745 C2746 1.362 . S
C2746 H2738 0.930 . S
C2746 C2745 1.362 . S
C2746 C2749 1.409 . S
C2747 H2739 0.930 . S
C2747 C2748 1.355 . S
C2747 C2749 1.415 . S
C2748 C2747 1.355 . S
C2748 C2750 1.419 . S
C2749 C2744 1.425 . S
C2749 C2746 1.409 . S
C2749 C2747 1.415 . S
C2750 H2740 0.930 . S
C2750 C2748 1.419 . S
C2750 C2751 1.362 . S
C2751 H2741 0.930 . S
C2751 C2744 1.409 . S
C2751 C2750 1.362 . S
H2752 C2758 0.904 1_565 S
H2753 C2761 0.930 . S
H2754 C2762 0.930 . S
H2755 C2763 0.930 . S
H2756 C2766 0.930 . S
H2757 C2767 0.930 1_565 S
C2758 H2752 0.904 1_545 S
C2758 C2759 1.355 . S
C2758 C2760 1.415 . S
C2759 C2758 1.355 . S
C2759 C2761 1.419 . S
C2760 C2758 1.415 . S
C2760 C2765 1.425 . S
C2760 C2767 1.409 . S
C2761 H2753 0.930 . S
C2761 C2759 1.419 . S
C2761 C2762 1.362 . S
C2762 H2754 0.930 . S
C2762 C2761 1.362 . S
C2762 C2765 1.409 . S
C2763 H2755 0.930 . S
C2763 C2764 1.355 . S
C2763 C2765 1.415 . S
C2764 C2763 1.355 . S
C2764 C2766 1.419 . S
C2765 C2760 1.425 . S
C2765 C2762 1.409 . S
C2765 C2763 1.415 . S
C2766 H2756 0.930 . S
C2766 C2764 1.419 . S
C2766 C2767 1.362 . S
C2767 H2757 0.930 1_545 S
C2767 C2760 1.409 . S
C2767 C2766 1.362 . S
H2768 C2774 0.930 . S
H2769 C2777 0.930 . S
H2770 C2778 0.930 . S
H2771 C2779 0.930 . S
H2772 C2782 0.930 . S
H2773 C2783 0.930 . S
C2774 H2768 0.930 . S
C2774 C2775 1.355 . S
C2774 C2776 1.415 . S
C2775 C2774 1.355 . S
C2775 C2777 1.419 . S
C2776 C2774 1.415 . S
C2776 C2781 1.425 . S
C2776 C2783 1.409 . S
C2777 H2769 0.930 . S
C2777 C2775 1.419 . S
C2777 C2778 1.362 . S
C2778 H2770 0.930 . S
C2778 C2777 1.362 . S
C2778 C2781 1.409 . S
C2779 H2771 0.930 . S
C2779 C2780 1.355 . S
C2779 C2781 1.415 . S
C2780 C2779 1.355 . S
C2780 C2782 1.419 . S
C2781 C2776 1.425 . S
C2781 C2778 1.409 . S
C2781 C2779 1.415 . S
C2782 H2772 0.930 . S
C2782 C2780 1.419 . S
C2782 C2783 1.362 . S
C2783 H2773 0.930 . S
C2783 C2776 1.409 . S
C2783 C2782 1.362 . S
H2784 C2790 0.930 . S
H2785 C2793 0.930 . S
H2786 C2794 0.930 . S
H2787 C2795 0.930 . S
H2788 C2798 0.930 . S
H2789 C2799 0.930 . S
C2790 H2784 0.930 . S
C2790 C2791 1.355 . S
C2790 C2792 1.415 . S
C2791 C2790 1.355 . S
C2791 C2793 1.419 . S
C2792 C2790 1.415 . S
C2792 C2797 1.425 . S
C2792 C2799 1.409 . S
C2793 H2785 0.930 . S
C2793 C2791 1.419 . S
C2793 C2794 1.362 . S
C2794 H2786 0.930 . S
C2794 C2793 1.362 . S
C2794 C2797 1.409 . S
C2795 H2787 0.930 . S
C2795 C2796 1.355 . S
C2795 C2797 1.415 . S
C2796 C2795 1.355 . S
C2796 C2798 1.419 . S
C2797 C2792 1.425 . S
C2797 C2794 1.409 . S
C2797 C2795 1.415 . S
C2798 H2788 0.930 . S
C2798 C2796 1.419 . S
C2798 C2799 1.362 . S
C2799 H2789 0.930 . S
C2799 C2792 1.409 . S
C2799 C2798 1.362 . S
H2800 C2806 0.930 . S
H2801 C2809 0.930 . S
H2802 C2810 0.930 . S
H2803 C2811 0.930 . S
H2804 C2814 0.930 . S
H2805 C2815 0.930 . S
C2806 H2800 0.930 . S
C2806 C2807 1.355 . S
C2806 C2808 1.415 . S
C2807 C2806 1.355 . S
C2807 C2809 1.419 . S
C2808 C2806 1.415 . S
C2808 C2813 1.425 . S
C2808 C2815 1.409 . S
C2809 H2801 0.930 . S
C2809 C2807 1.419 . S
C2809 C2810 1.362 . S
C2810 H2802 0.930 . S
C2810 C2809 1.362 . S
C2810 C2813 1.409 . S
C2811 H2803 0.930 . S
C2811 C2812 1.355 . S
C2811 C2813 1.415 . S
C2812 C2811 1.355 . S
C2812 C2814 1.419 . S
C2813 C2808 1.425 . S
C2813 C2810 1.409 . S
C2813 C2811 1.415 . S
C2814 H2804 0.930 . S
C2814 C2812 1.419 . S
C2814 C2815 1.362 . S
C2815 H2805 0.930 . S
C2815 C2808 1.409 . S
C2815 C2814 1.362 . S
H2816 C2822 0.929 . S
H2817 C2825 0.930 . S
H2818 C2826 0.930 . S
H2819 C2827 0.930 . S
H2820 C2830 0.930 . S
H2821 C2831 0.930 . S
C2822 H2816 0.929 . S
C2822 C2823 1.355 . S
C2822 C2824 1.415 . S
C2823 C2822 1.355 . S
C2823 C2825 1.419 . S
C2824 C2822 1.415 . S
C2824 C2829 1.425 . S
C2824 C2831 1.409 . S
C2825 H2817 0.930 . S
C2825 C2823 1.419 . S
C2825 C2826 1.362 . S
C2826 H2818 0.930 . S
C2826 C2825 1.362 . S
C2826 C2829 1.409 . S
C2827 H2819 0.930 . S
C2827 C2828 1.355 . S
C2827 C2829 1.415 . S
C2828 C2827 1.355 . S
C2828 C2830 1.419 . S
C2829 C2824 1.425 . S
C2829 C2826 1.409 . S
C2829 C2827 1.415 . S
C2830 H2820 0.930 . S
C2830 C2828 1.419 . S
C2830 C2831 1.362 . S
C2831 H2821 0.930 . S
C2831 C2824 1.409 . S
C2831 C2830 1.362 . S
H2832 C2838 0.930 . S
H2833 C2841 0.930 . S
H2834 C2842 0.930 . S
H2835 C2843 0.930 . S
H2836 C2846 0.930 . S
H2837 C2847 0.930 . S
C2838 H2832 0.930 . S
C2838 C2839 1.355 . S
C2838 C2840 1.415 . S
C2839 C2838 1.355 . S
C2839 C2841 1.419 . S
C2840 C2838 1.415 . S
C2840 C2845 1.425 . S
C2840 C2847 1.409 . S
C2841 H2833 0.930 . S
C2841 C2839 1.419 . S
C2841 C2842 1.362 . S
C2842 H2834 0.930 . S
C2842 C2841 1.362 . S
C2842 C2845 1.409 . S
C2843 H2835 0.930 . S
C2843 C2844 1.355 . S
C2843 C2845 1.415 . S
C2844 C2843 1.355 . S
C2844 C2846 1.419 . S
C2845 C2840 1.425 . S
C2845 C2842 1.409 . S
C2845 C2843 1.415 . S
C2846 H2836 0.930 . S
C2846 C2844 1.419 . S
C2846 C2847 1.362 . S
C2847 H2837 0.930 . S
C2847 C2840 1.409 . S
C2847 C2846 1.362 . S
H2848 C2854 0.930 . S
H2849 C2857 0.930 . S
H2850 C2858 0.930 . S
H2851 C2859 0.930 . S
H2852 C2862 0.930 . S
H2853 C2863 0.930 . S
C2854 H2848 0.930 . S
C2854 C2855 1.355 . S
C2854 C2856 1.415 . S
C2855 C2854 1.355 . S
C2855 C2857 1.419 . S
C2856 C2854 1.415 . S
C2856 C2861 1.425 . S
C2856 C2863 1.409 . S
C2857 H2849 0.930 . S
C2857 C2855 1.419 . S
C2857 C2858 1.362 . S
C2858 H2850 0.930 . S
C2858 C2857 1.362 . S
C2858 C2861 1.409 . S
C2859 H2851 0.930 . S
C2859 C2860 1.355 . S
C2859 C2861 1.415 . S
C2860 C2859 1.355 . S
C2860 C2862 1.419 . S
C2861 C2856 1.425 . S
C2861 C2858 1.409 . S
C2861 C2859 1.415 . S
C2862 H2852 0.930 . S
C2862 C2860 1.419 . S
C2862 C2863 1.362 . S
C2863 H2853 0.930 . S
C2863 C2856 1.409 . S
C2863 C2862 1.362 . S
H2864 C2870 0.930 . S
H2865 C2873 0.930 . S
H2866 C2874 0.930 . S
H2867 C2875 0.930 . S
H2868 C2878 0.930 . S
H2869 C2879 0.930 . S
C2870 H2864 0.930 . S
C2870 C2871 1.355 . S
C2870 C2872 1.415 . S
C2871 C2870 1.355 . S
C2871 C2873 1.419 . S
C2872 C2870 1.415 . S
C2872 C2877 1.425 . S
C2872 C2879 1.409 . S
C2873 H2865 0.930 . S
C2873 C2871 1.419 . S
C2873 C2874 1.362 . S
C2874 H2866 0.930 . S
C2874 C2873 1.362 . S
C2874 C2877 1.409 . S
C2875 H2867 0.930 . S
C2875 C2876 1.355 . S
C2875 C2877 1.415 . S
C2876 C2875 1.355 . S
C2876 C2878 1.419 . S
C2877 C2872 1.425 . S
C2877 C2874 1.409 . S
C2877 C2875 1.415 . S
C2878 H2868 0.930 . S
C2878 C2876 1.419 . S
C2878 C2879 1.362 . S
C2879 H2869 0.930 . S
C2879 C2872 1.409 . S
C2879 C2878 1.362 . S
H2880 C2886 0.930 . S
H2881 C2889 0.930 . S
H2882 C2890 0.930 . S
H2883 C2891 0.930 . S
H2884 C2894 0.930 . S
H2885 C2895 0.930 . S
C2886 H2880 0.930 . S
C2886 C2887 1.355 . S
C2886 C2888 1.415 . S
C2887 C2886 1.355 . S
C2887 C2889 1.419 . S
C2888 C2886 1.415 . S
C2888 C2893 1.425 . S
C2888 C2895 1.409 . S
C2889 H2881 0.930 . S
C2889 C2887 1.419 . S
C2889 C2890 1.362 . S
C2890 H2882 0.930 . S
C2890 C2889 1.362 . S
C2890 C2893 1.409 . S
C2891 H2883 0.930 . S
C2891 C2892 1.355 . S
C2891 C2893 1.415 . S
C2892 C2891 1.355 . S
C2892 C2894 1.419 . S
C2893 C2888 1.425 . S
C2893 C2890 1.409 . S
C2893 C2891 1.415 . S
C2894 H2884 0.930 . S
C2894 C2892 1.419 . S
C2894 C2895 1.362 . S
C2895 H2885 0.930 . S
C2895 C2888 1.409 . S
C2895 C2894 1.362 . S
H2896 C2902 0.930 . S
H2897 C2905 0.930 . S
H2898 C2906 0.930 . S
H2899 C2907 0.930 . S
H2900 C2910 0.930 . S
H2901 C2911 0.930 . S
C2902 H2896 0.930 . S
C2902 C2903 1.355 . S
C2902 C2904 1.415 . S
C2903 C2902 1.355 . S
C2903 C2905 1.419 . S
C2904 C2902 1.415 . S
C2904 C2909 1.425 . S
C2904 C2911 1.409 . S
C2905 H2897 0.930 . S
C2905 C2903 1.419 . S
C2905 C2906 1.362 . S
C2906 H2898 0.930 . S
C2906 C2905 1.362 . S
C2906 C2909 1.409 . S
C2907 H2899 0.930 . S
C2907 C2908 1.355 . S
C2907 C2909 1.415 . S
C2908 C2907 1.355 . S
C2908 C2910 1.419 . S
C2909 C2904 1.425 . S
C2909 C2906 1.409 . S
C2909 C2907 1.415 . S
C2910 H2900 0.930 . S
C2910 C2908 1.419 . S
C2910 C2911 1.362 . S
C2911 H2901 0.930 . S
C2911 C2904 1.409 . S
C2911 C2910 1.362 . S
H2912 C2918 0.930 . S
H2913 C2921 0.930 . S
H2914 C2922 0.931 . S
H2915 C2923 0.930 . S
H2916 C2926 0.930 . S
H2917 C2927 0.930 . S
C2918 H2912 0.930 . S
C2918 C2919 1.355 1_565 S
C2918 C2920 1.415 . S
C2919 C2918 1.355 1_545 S
C2919 C2921 1.419 . S
C2920 C2918 1.415 . S
C2920 C2925 1.425 . S
C2920 C2927 1.409 . S
C2921 H2913 0.930 . S
C2921 C2919 1.419 . S
C2921 C2922 1.394 . S
C2922 H2914 0.931 . S
C2922 C2921 1.394 . S
C2922 C2925 1.377 1_545 S
C2923 H2915 0.930 . S
C2923 C2924 1.355 . S
C2923 C2925 1.415 . S
C2924 C2923 1.355 . S
C2924 C2926 1.419 . S
C2925 C2920 1.425 . S
C2925 C2922 1.377 1_565 S
C2925 C2923 1.415 . S
C2926 H2916 0.930 . S
C2926 C2924 1.419 . S
C2926 C2927 1.362 . S
C2927 H2917 0.930 . S
C2927 C2920 1.409 . S
C2927 C2926 1.362 . S
H2928 C2934 0.930 . S
H2929 C2937 0.930 . S
H2930 C2938 0.930 . S
H2931 C2939 0.930 . S
H2932 C2942 0.930 . S
H2933 C2943 0.930 . S
C2934 H2928 0.930 . S
C2934 C2935 1.355 . S
C2934 C2936 1.415 . S
C2935 C2934 1.355 . S
C2935 C2937 1.419 . S
C2936 C2934 1.415 . S
C2936 C2941 1.425 . S
C2936 C2943 1.409 . S
C2937 H2929 0.930 . S
C2937 C2935 1.419 . S
C2937 C2938 1.362 . S
C2938 H2930 0.930 . S
C2938 C2937 1.362 . S
C2938 C2941 1.409 . S
C2939 H2931 0.930 . S
C2939 C2940 1.355 . S
C2939 C2941 1.415 . S
C2940 C2939 1.355 . S
C2940 C2942 1.419 . S
C2941 C2936 1.425 . S
C2941 C2938 1.409 . S
C2941 C2939 1.415 . S
C2942 H2932 0.930 . S
C2942 C2940 1.419 . S
C2942 C2943 1.362 . S
C2943 H2933 0.930 . S
C2943 C2936 1.409 . S
C2943 C2942 1.362 . S
H2944 C2950 0.930 . S
H2945 C2953 0.930 . S
H2946 C2954 0.930 . S
H2947 C2955 0.930 . S
H2948 C2958 0.930 . S
H2949 C2959 0.930 . S
C2950 H2944 0.930 . S
C2950 C2951 1.355 . S
C2950 C2952 1.415 . S
C2951 C2950 1.355 . S
C2951 C2953 1.419 . S
C2952 C2950 1.415 . S
C2952 C2957 1.425 . S
C2952 C2959 1.409 . S
C2953 H2945 0.930 . S
C2953 C2951 1.419 . S
C2953 C2954 1.362 . S
C2954 H2946 0.930 . S
C2954 C2953 1.362 . S
C2954 C2957 1.409 . S
C2955 H2947 0.930 . S
C2955 C2956 1.355 . S
C2955 C2957 1.415 . S
C2956 C2955 1.355 . S
C2956 C2958 1.419 . S
C2957 C2952 1.425 . S
C2957 C2954 1.409 . S
C2957 C2955 1.415 . S
C2958 H2948 0.930 . S
C2958 C2956 1.419 . S
C2958 C2959 1.362 . S
C2959 H2949 0.930 . S
C2959 C2952 1.409 . S
C2959 C2958 1.362 . S
H2960 C2966 0.930 . S
H2961 C2969 0.930 . S
H2962 C2970 0.930 . S
H2963 C2971 0.930 . S
H2964 C2974 0.930 . S
H2965 C2975 0.930 . S
C2966 H2960 0.930 . S
C2966 C2967 1.355 . S
C2966 C2968 1.415 . S
C2967 C2966 1.355 . S
C2967 C2969 1.419 . S
C2968 C2966 1.415 . S
C2968 C2973 1.425 . S
C2968 C2975 1.409 . S
C2969 H2961 0.930 . S
C2969 C2967 1.419 . S
C2969 C2970 1.362 . S
C2970 H2962 0.930 . S
C2970 C2969 1.362 . S
C2970 C2973 1.409 . S
C2971 H2963 0.930 . S
C2971 C2972 1.355 . S
C2971 C2973 1.415 . S
C2972 C2971 1.355 . S
C2972 C2974 1.419 . S
C2973 C2968 1.425 . S
C2973 C2970 1.409 . S
C2973 C2971 1.415 . S
C2974 H2964 0.930 . S
C2974 C2972 1.419 . S
C2974 C2975 1.362 . S
C2975 H2965 0.930 . S
C2975 C2968 1.409 . S
C2975 C2974 1.362 . S
H2976 C2982 0.930 . S
H2977 C2985 0.930 . S
H2978 C2986 0.930 . S
H2979 C2987 0.930 . S
H2980 C2990 0.930 . S
H2981 C2991 0.930 . S
C2982 H2976 0.930 . S
C2982 C2983 1.355 . S
C2982 C2984 1.415 . S
C2983 C2982 1.355 . S
C2983 C2985 1.419 . S
C2984 C2982 1.415 . S
C2984 C2989 1.425 . S
C2984 C2991 1.409 . S
C2985 H2977 0.930 . S
C2985 C2983 1.419 . S
C2985 C2986 1.362 . S
C2986 H2978 0.930 . S
C2986 C2985 1.362 . S
C2986 C2989 1.409 . S
C2987 H2979 0.930 . S
C2987 C2988 1.355 . S
C2987 C2989 1.415 . S
C2988 C2987 1.355 . S
C2988 C2990 1.419 . S
C2989 C2984 1.425 . S
C2989 C2986 1.409 . S
C2989 C2987 1.415 . S
C2990 H2980 0.930 . S
C2990 C2988 1.419 . S
C2990 C2991 1.362 . S
C2991 H2981 0.930 . S
C2991 C2984 1.409 . S
C2991 C2990 1.362 . S
H2992 C2998 0.930 . S
H2993 C3001 0.930 . S
H2994 C3002 0.930 . S
H2995 C3003 0.930 . S
H2996 C3006 0.930 . S
H2997 C3007 0.930 . S
C2998 H2992 0.930 . S
C2998 C2999 1.355 . S
C2998 C3000 1.415 . S
C2999 C2998 1.355 . S
C2999 C3001 1.419 . S
C3000 C2998 1.415 . S
C3000 C3005 1.425 . S
C3000 C3007 1.409 . S
C3001 H2993 0.930 . S
C3001 C2999 1.419 . S
C3001 C3002 1.362 . S
C3002 H2994 0.930 . S
C3002 C3001 1.362 . S
C3002 C3005 1.409 . S
C3003 H2995 0.930 . S
C3003 C3004 1.355 . S
C3003 C3005 1.415 . S
C3004 C3003 1.355 . S
C3004 C3006 1.419 . S
C3005 C3000 1.425 . S
C3005 C3002 1.409 . S
C3005 C3003 1.415 . S
C3006 H2996 0.930 . S
C3006 C3004 1.419 . S
C3006 C3007 1.362 . S
C3007 H2997 0.930 . S
C3007 C3000 1.409 . S
C3007 C3006 1.362 . S
H3008 C3014 0.930 . S
H3009 C3017 0.930 . S
H3010 C3018 0.930 . S
H3011 C3019 0.930 . S
H3012 C3022 0.930 . S
H3013 C3023 0.930 . S
C3014 H3008 0.930 . S
C3014 C3015 1.355 1_655 S
C3014 C3016 1.415 1_656 S
C3015 C3014 1.355 1_455 S
C3015 C3017 1.419 . S
C3016 C3014 1.415 1_454 S
C3016 C3021 1.439 . S
C3016 C3023 1.409 1_455 S
C3017 H3009 0.930 . S
C3017 C3015 1.419 . S
C3017 C3018 1.362 . S
C3018 H3010 0.930 . S
C3018 C3017 1.362 . S
C3018 C3021 1.393 1_556 S
C3019 H3011 0.930 . S
C3019 C3020 1.355 . S
C3019 C3021 1.419 . S
C3020 C3019 1.355 . S
C3020 C3022 1.419 1_455 S
C3021 C3016 1.439 . S
C3021 C3018 1.393 1_554 S
C3021 C3019 1.419 . S
C3022 H3012 0.930 . S
C3022 C3020 1.419 1_655 S
C3022 C3023 1.362 . S
C3023 H3013 0.930 . S
C3023 C3016 1.409 1_655 S
C3023 C3022 1.362 . S
H3024 C3030 0.930 . S
H3025 C3033 0.938 . S
H3026 C3034 0.930 . S
H3027 C3035 0.930 . S
H3028 C3038 0.930 . S
H3029 C3039 0.930 . S
C3030 H3024 0.930 . S
C3030 C3031 1.355 . S
C3030 C3032 1.415 . S
C3031 C3030 1.355 . S
C3031 C3033 1.419 . S
C3032 C3030 1.415 . S
C3032 C3037 1.425 . S
C3032 C3039 1.409 . S
C3033 H3025 0.938 . S
C3033 C3031 1.419 . S
C3033 C3034 1.362 . S
C3034 H3026 0.930 . S
C3034 C3033 1.362 . S
C3034 C3037 1.409 . S
C3035 H3027 0.930 . S
C3035 C3036 1.355 . S
C3035 C3037 1.415 . S
C3036 C3035 1.355 . S
C3036 C3038 1.419 . S
C3037 C3032 1.425 . S
C3037 C3034 1.409 . S
C3037 C3035 1.415 . S
C3038 H3028 0.930 . S
C3038 C3036 1.419 . S
C3038 C3039 1.362 . S
C3039 H3029 0.930 . S
C3039 C3032 1.409 . S
C3039 C3038 1.362 . S
H3040 C3046 0.930 . S
H3041 C3049 0.930 . S
H3042 C3050 0.930 . S
H3043 C3051 0.930 . S
H3044 C3054 0.930 . S
H3045 C3055 0.930 . S
C3046 H3040 0.930 . S
C3046 C3047 1.355 . S
C3046 C3048 1.415 . S
C3047 C3046 1.355 . S
C3047 C3049 1.419 . S
C3048 C3046 1.415 . S
C3048 C3053 1.425 . S
C3048 C3055 1.409 . S
C3049 H3041 0.930 . S
C3049 C3047 1.419 . S
C3049 C3050 1.362 . S
C3050 H3042 0.930 . S
C3050 C3049 1.362 . S
C3050 C3053 1.409 . S
C3051 H3043 0.930 . S
C3051 C3052 1.355 . S
C3051 C3053 1.415 . S
C3052 C3051 1.355 . S
C3052 C3054 1.419 . S
C3053 C3048 1.425 . S
C3053 C3050 1.409 . S
C3053 C3051 1.415 . S
C3054 H3044 0.930 . S
C3054 C3052 1.419 . S
C3054 C3055 1.362 . S
C3055 H3045 0.930 . S
C3055 C3048 1.409 . S
C3055 C3054 1.362 . S
H3056 C3062 0.930 . S
H3057 C3065 0.930 . S
H3058 C3066 0.930 . S
H3059 C3067 0.930 . S
H3060 C3070 0.930 . S
H3061 C3071 0.930 . S
C3062 H3056 0.930 . S
C3062 C3063 1.355 . S
C3062 C3064 1.415 . S
C3063 C3062 1.355 . S
C3063 C3065 1.419 . S
C3064 C3062 1.415 . S
C3064 C3069 1.425 . S
C3064 C3071 1.409 . S
C3065 H3057 0.930 . S
C3065 C3063 1.419 . S
C3065 C3066 1.362 . S
C3066 H3058 0.930 . S
C3066 C3065 1.362 . S
C3066 C3069 1.409 . S
C3067 H3059 0.930 . S
C3067 C3068 1.355 . S
C3067 C3069 1.415 . S
C3068 C3067 1.355 . S
C3068 C3070 1.419 . S
C3069 C3064 1.425 . S
C3069 C3066 1.409 . S
C3069 C3067 1.415 . S
C3070 H3060 0.930 . S
C3070 C3068 1.419 . S
C3070 C3071 1.362 . S
C3071 H3061 0.930 . S
C3071 C3064 1.409 . S
C3071 C3070 1.362 . S
H3072 C3078 0.930 . S
H3073 C3081 0.930 . S
H3074 C3082 0.930 . S
H3075 C3083 0.930 . S
H3076 C3086 0.930 . S
H3077 C3087 0.930 . S
C3078 H3072 0.930 . S
C3078 C3079 1.355 . S
C3078 C3080 1.415 . S
C3079 C3078 1.355 . S
C3079 C3081 1.419 . S
C3080 C3078 1.415 . S
C3080 C3085 1.425 . S
C3080 C3087 1.409 . S
C3081 H3073 0.930 . S
C3081 C3079 1.419 . S
C3081 C3082 1.362 . S
C3082 H3074 0.930 . S
C3082 C3081 1.362 . S
C3082 C3085 1.409 . S
C3083 H3075 0.930 . S
C3083 C3084 1.355 . S
C3083 C3085 1.415 . S
C3084 C3083 1.355 . S
C3084 C3086 1.419 . S
C3085 C3080 1.425 . S
C3085 C3082 1.409 . S
C3085 C3083 1.415 . S
C3086 H3076 0.930 . S
C3086 C3084 1.419 . S
C3086 C3087 1.362 . S
C3087 H3077 0.930 . S
C3087 C3080 1.409 . S
C3087 C3086 1.362 . S
H3088 C3094 0.930 . S
H3089 C3097 0.930 . S
H3090 C3098 0.930 . S
H3091 C3099 0.930 . S
H3092 C3102 0.930 . S
H3093 C3103 0.930 . S
C3094 H3088 0.930 . S
C3094 C3095 1.355 . S
C3094 C3096 1.415 . S
C3095 C3094 1.355 . S
C3095 C3097 1.419 . S
C3096 C3094 1.415 . S
C3096 C3101 1.425 . S
C3096 C3103 1.409 . S
C3097 H3089 0.930 . S
C3097 C3095 1.419 . S
C3097 C3098 1.362 . S
C3098 H3090 0.930 . S
C3098 C3097 1.362 . S
C3098 C3101 1.409 . S
C3099 H3091 0.930 . S
C3099 C3100 1.355 . S
C3099 C3101 1.415 . S
C3100 C3099 1.355 . S
C3100 C3102 1.419 . S
C3101 C3096 1.425 . S
C3101 C3098 1.409 . S
C3101 C3099 1.415 . S
C3102 H3092 0.930 . S
C3102 C3100 1.419 . S
C3102 C3103 1.362 . S
C3103 H3093 0.930 . S
C3103 C3096 1.409 . S
C3103 C3102 1.362 . S
H3104 C3110 0.930 . S
H3105 C3113 0.930 . S
H3106 C3114 0.930 . S
H3107 C3115 0.930 . S
H3108 C3118 0.930 . S
H3109 C3119 0.930 . S
C3110 H3104 0.930 . S
C3110 C3111 1.355 . S
C3110 C3112 1.415 . S
C3111 C3110 1.355 . S
C3111 C3113 1.419 . S
C3112 C3110 1.415 . S
C3112 C3117 1.425 . S
C3112 C3119 1.409 . S
C3113 H3105 0.930 . S
C3113 C3111 1.419 . S
C3113 C3114 1.362 . S
C3114 H3106 0.930 . S
C3114 C3113 1.362 . S
C3114 C3117 1.409 . S
C3115 H3107 0.930 . S
C3115 C3116 1.355 . S
C3115 C3117 1.415 . S
C3116 C3115 1.355 . S
C3116 C3118 1.419 . S
C3117 C3112 1.425 . S
C3117 C3114 1.409 . S
C3117 C3115 1.415 . S
C3118 H3108 0.930 . S
C3118 C3116 1.419 . S
C3118 C3119 1.362 . S
C3119 H3109 0.930 . S
C3119 C3112 1.409 . S
C3119 C3118 1.362 . S
H3120 C3126 0.930 1_554 S
H3121 C3129 0.930 . S
H3122 C3130 0.930 . S
H3123 C3131 0.930 . S
H3124 C3134 0.930 . S
H3125 C3135 0.930 . S
C3126 H3120 0.930 1_556 S
C3126 C3127 1.352 1_556 S
C3126 C3128 1.415 . S
C3127 C3126 1.352 1_554 S
C3127 C3129 1.413 1_554 S
C3128 C3126 1.415 . S
C3128 C3133 1.425 . S
C3128 C3135 1.409 . S
C3129 H3121 0.930 . S
C3129 C3127 1.413 1_556 S
C3129 C3130 1.362 . S
C3130 H3122 0.930 . S
C3130 C3129 1.362 . S
C3130 C3133 1.409 . S
C3131 H3123 0.930 . S
C3131 C3132 1.355 . S
C3131 C3133 1.415 . S
C3132 C3131 1.355 . S
C3132 C3134 1.419 . S
C3133 C3128 1.425 . S
C3133 C3130 1.409 . S
C3133 C3131 1.415 . S
C3134 H3124 0.930 . S
C3134 C3132 1.419 . S
C3134 C3135 1.362 . S
C3135 H3125 0.930 . S
C3135 C3128 1.409 . S
C3135 C3134 1.362 . S
H3136 C3142 0.930 . S
H3137 C3145 0.930 . S
H3138 C3146 0.930 . S
H3139 C3147 0.930 . S
H3140 C3150 0.930 . S
H3141 C3151 0.930 . S
C3142 H3136 0.930 . S
C3142 C3143 1.355 . S
C3142 C3144 1.415 . S
C3143 C3142 1.355 . S
C3143 C3145 1.419 . S
C3144 C3142 1.415 . S
C3144 C3149 1.425 . S
C3144 C3151 1.409 . S
C3145 H3137 0.930 . S
C3145 C3143 1.419 . S
C3145 C3146 1.362 . S
C3146 H3138 0.930 . S
C3146 C3145 1.362 . S
C3146 C3149 1.409 . S
C3147 H3139 0.930 . S
C3147 C3148 1.355 . S
C3147 C3149 1.415 . S
C3148 C3147 1.355 . S
C3148 C3150 1.419 . S
C3149 C3144 1.425 . S
C3149 C3146 1.409 . S
C3149 C3147 1.415 . S
C3150 H3140 0.930 . S
C3150 C3148 1.419 . S
C3150 C3151 1.362 . S
C3151 H3141 0.930 . S
C3151 C3144 1.409 . S
C3151 C3150 1.362 . S
H3152 C3158 0.930 . S
H3153 C3161 0.930 . S
H3154 C3162 0.930 . S
H3155 C3163 0.930 . S
H3156 C3166 0.930 . S
H3157 C3167 0.930 . S
C3158 H3152 0.930 . S
C3158 C3159 1.355 . S
C3158 C3160 1.415 . S
C3159 C3158 1.355 . S
C3159 C3161 1.419 . S
C3160 C3158 1.415 . S
C3160 C3165 1.425 . S
C3160 C3167 1.409 . S
C3161 H3153 0.930 . S
C3161 C3159 1.419 . S
C3161 C3162 1.362 . S
C3162 H3154 0.930 . S
C3162 C3161 1.362 . S
C3162 C3165 1.409 . S
C3163 H3155 0.930 . S
C3163 C3164 1.355 . S
C3163 C3165 1.415 . S
C3164 C3163 1.355 . S
C3164 C3166 1.419 . S
C3165 C3160 1.425 . S
C3165 C3162 1.409 . S
C3165 C3163 1.415 . S
C3166 H3156 0.930 . S
C3166 C3164 1.419 . S
C3166 C3167 1.362 . S
C3167 H3157 0.930 . S
C3167 C3160 1.409 . S
C3167 C3166 1.362 . S
H3168 C3174 0.930 . S
H3169 C3177 0.930 . S
H3170 C3178 0.930 . S
H3171 C3179 0.930 . S
H3172 C3182 0.930 . S
H3173 C3183 0.930 . S
C3174 H3168 0.930 . S
C3174 C3175 1.355 . S
C3174 C3176 1.415 . S
C3175 C3174 1.355 . S
C3175 C3177 1.419 . S
C3176 C3174 1.415 . S
C3176 C3181 1.425 . S
C3176 C3183 1.409 . S
C3177 H3169 0.930 . S
C3177 C3175 1.419 . S
C3177 C3178 1.362 . S
C3178 H3170 0.930 . S
C3178 C3177 1.362 . S
C3178 C3181 1.409 . S
C3179 H3171 0.930 . S
C3179 C3180 1.355 . S
C3179 C3181 1.415 . S
C3180 C3179 1.355 . S
C3180 C3182 1.419 . S
C3181 C3176 1.425 . S
C3181 C3178 1.409 . S
C3181 C3179 1.415 . S
C3182 H3172 0.930 . S
C3182 C3180 1.419 . S
C3182 C3183 1.362 . S
C3183 H3173 0.930 . S
C3183 C3176 1.409 . S
C3183 C3182 1.362 . S
H3184 C3190 0.930 . S
H3185 C3193 0.930 . S
H3186 C3194 0.930 . S
H3187 C3195 0.930 . S
H3188 C3198 0.930 . S
H3189 C3199 0.930 . S
C3190 H3184 0.930 . S
C3190 C3191 1.355 . S
C3190 C3192 1.415 . S
C3191 C3190 1.355 . S
C3191 C3193 1.419 . S
C3192 C3190 1.415 . S
C3192 C3197 1.425 . S
C3192 C3199 1.409 . S
C3193 H3185 0.930 . S
C3193 C3191 1.419 . S
C3193 C3194 1.362 . S
C3194 H3186 0.930 . S
C3194 C3193 1.362 . S
C3194 C3197 1.409 . S
C3195 H3187 0.930 . S
C3195 C3196 1.355 . S
C3195 C3197 1.415 . S
C3196 C3195 1.355 . S
C3196 C3198 1.419 . S
C3197 C3192 1.425 . S
C3197 C3194 1.409 . S
C3197 C3195 1.415 . S
C3198 H3188 0.930 . S
C3198 C3196 1.419 . S
C3198 C3199 1.362 . S
C3199 H3189 0.930 . S
C3199 C3192 1.409 . S
C3199 C3198 1.362 . S
H3200 C3206 0.930 . S
H3201 C3209 0.930 . S
H3202 C3210 0.930 . S
H3203 C3211 0.930 . S
H3204 C3214 0.930 . S
H3205 C3215 0.930 . S
C3206 H3200 0.930 . S
C3206 C3207 1.355 . S
C3206 C3208 1.415 . S
C3207 C3206 1.355 . S
C3207 C3209 1.419 . S
C3208 C3206 1.415 . S
C3208 C3213 1.425 . S
C3208 C3215 1.409 . S
C3209 H3201 0.930 . S
C3209 C3207 1.419 . S
C3209 C3210 1.362 . S
C3210 H3202 0.930 . S
C3210 C3209 1.362 . S
C3210 C3213 1.409 . S
C3211 H3203 0.930 . S
C3211 C3212 1.355 . S
C3211 C3213 1.415 . S
C3212 C3211 1.355 . S
C3212 C3214 1.419 . S
C3213 C3208 1.425 . S
C3213 C3210 1.409 . S
C3213 C3211 1.415 . S
C3214 H3204 0.930 . S
C3214 C3212 1.419 . S
C3214 C3215 1.362 . S
C3215 H3205 0.930 . S
C3215 C3208 1.409 . S
C3215 C3214 1.362 . S
H3216 C3222 0.930 . S
H3217 C3225 0.930 . S
H3218 C3226 0.930 . S
H3219 C3227 0.930 . S
H3220 C3230 0.930 . S
H3221 C3231 0.930 . S
C3222 H3216 0.930 . S
C3222 C3223 1.355 . S
C3222 C3224 1.415 . S
C3223 C3222 1.355 . S
C3223 C3225 1.419 . S
C3224 C3222 1.415 . S
C3224 C3229 1.425 . S
C3224 C3231 1.409 . S
C3225 H3217 0.930 . S
C3225 C3223 1.419 . S
C3225 C3226 1.362 . S
C3226 H3218 0.930 . S
C3226 C3225 1.362 . S
C3226 C3229 1.409 . S
C3227 H3219 0.930 . S
C3227 C3228 1.355 . S
C3227 C3229 1.415 . S
C3228 C3227 1.355 . S
C3228 C3230 1.419 . S
C3229 C3224 1.425 . S
C3229 C3226 1.409 . S
C3229 C3227 1.415 . S
C3230 H3220 0.930 . S
C3230 C3228 1.419 . S
C3230 C3231 1.362 . S
C3231 H3221 0.930 . S
C3231 C3224 1.409 . S
C3231 C3230 1.362 . S
H3232 C3238 0.930 . S
H3233 C3241 0.930 . S
H3234 C3242 0.930 . S
H3235 C3243 0.930 . S
H3236 C3246 0.930 . S
H3237 C3247 0.930 . S
C3238 H3232 0.930 . S
C3238 C3239 1.355 . S
C3238 C3240 1.415 . S
C3239 C3238 1.355 . S
C3239 C3241 1.419 . S
C3240 C3238 1.415 . S
C3240 C3245 1.425 . S
C3240 C3247 1.409 . S
C3241 H3233 0.930 . S
C3241 C3239 1.419 . S
C3241 C3242 1.362 . S
C3242 H3234 0.930 . S
C3242 C3241 1.362 . S
C3242 C3245 1.409 . S
C3243 H3235 0.930 . S
C3243 C3244 1.355 . S
C3243 C3245 1.415 . S
C3244 C3243 1.355 . S
C3244 C3246 1.419 . S
C3245 C3240 1.425 . S
C3245 C3242 1.409 . S
C3245 C3243 1.415 . S
C3246 H3236 0.930 . S
C3246 C3244 1.419 . S
C3246 C3247 1.362 . S
C3247 H3237 0.930 . S
C3247 C3240 1.409 . S
C3247 C3246 1.362 . S
H3248 C3254 0.930 . S
H3249 C3257 0.930 . S
H3250 C3258 0.930 . S
H3251 C3259 0.930 . S
H3252 C3262 0.930 . S
H3253 C3263 0.930 . S
C3254 H3248 0.930 . S
C3254 C3255 1.355 . S
C3254 C3256 1.415 . S
C3255 C3254 1.355 . S
C3255 C3257 1.419 . S
C3256 C3254 1.415 . S
C3256 C3261 1.425 . S
C3256 C3263 1.409 . S
C3257 H3249 0.930 . S
C3257 C3255 1.419 . S
C3257 C3258 1.362 . S
C3258 H3250 0.930 . S
C3258 C3257 1.362 . S
C3258 C3261 1.409 . S
C3259 H3251 0.930 . S
C3259 C3260 1.355 . S
C3259 C3261 1.415 . S
C3260 C3259 1.355 . S
C3260 C3262 1.419 . S
C3261 C3256 1.425 . S
C3261 C3258 1.409 . S
C3261 C3259 1.415 . S
C3262 H3252 0.930 . S
C3262 C3260 1.419 . S
C3262 C3263 1.362 . S
C3263 H3253 0.930 . S
C3263 C3256 1.409 . S
C3263 C3262 1.362 . S
H3264 C3270 0.930 . S
H3265 C3273 0.930 . S
H3266 C3274 0.930 . S
H3267 C3275 0.930 . S
H3268 C3278 0.930 . S
H3269 C3279 0.930 . S
C3270 H3264 0.930 . S
C3270 C3271 1.355 . S
C3270 C3272 1.415 . S
C3271 C3270 1.355 . S
C3271 C3273 1.419 . S
C3272 C3270 1.415 . S
C3272 C3277 1.425 . S
C3272 C3279 1.409 . S
C3273 H3265 0.930 . S
C3273 C3271 1.419 . S
C3273 C3274 1.362 . S
C3274 H3266 0.930 . S
C3274 C3273 1.362 . S
C3274 C3277 1.409 . S
C3275 H3267 0.930 . S
C3275 C3276 1.355 . S
C3275 C3277 1.415 . S
C3276 C3275 1.355 . S
C3276 C3278 1.419 . S
C3277 C3272 1.425 . S
C3277 C3274 1.409 . S
C3277 C3275 1.415 . S
C3278 H3268 0.930 . S
C3278 C3276 1.419 . S
C3278 C3279 1.362 . S
C3279 H3269 0.930 . S
C3279 C3272 1.409 . S
C3279 C3278 1.362 . S
H3280 C3286 0.930 1_545 S
H3281 C3289 0.930 . S
H3282 C3290 0.930 . S
H3283 C3291 0.930 . S
H3284 C3294 0.930 . S
H3285 C3295 0.930 . S
C3286 H3280 0.930 1_565 S
C3286 C3287 1.355 . S
C3286 C3288 1.412 1_565 S
C3287 C3286 1.355 . S
C3287 C3289 1.419 1_554 S
C3288 C3286 1.412 1_545 S
C3288 C3293 1.399 1_545 S
C3288 C3295 1.438 . S
C3289 H3281 0.930 . S
C3289 C3287 1.419 1_556 S
C3289 C3290 1.362 . S
C3290 H3282 0.930 . S
C3290 C3289 1.362 . S
C3290 C3293 1.409 1_556 S
C3291 H3283 0.930 . S
C3291 C3292 1.355 1_565 S
C3291 C3293 1.415 . S
C3292 C3291 1.355 1_545 S
C3292 C3294 1.419 . S
C3293 C3288 1.399 1_565 S
C3293 C3290 1.409 1_554 S
C3293 C3291 1.415 . S
C3294 H3284 0.930 . S
C3294 C3292 1.419 . S
C3294 C3295 1.362 . S
C3295 H3285 0.930 . S
C3295 C3288 1.438 . S
C3295 C3294 1.362 . S
H3296 C3302 0.930 . S
H3297 C3305 0.930 . S
H3298 C3306 0.930 . S
H3299 C3307 0.930 . S
H3300 C3310 0.930 . S
H3301 C3311 0.930 . S
C3302 H3296 0.930 . S
C3302 C3303 1.355 . S
C3302 C3304 1.415 . S
C3303 C3302 1.355 . S
C3303 C3305 1.419 . S
C3304 C3302 1.415 . S
C3304 C3309 1.425 . S
C3304 C3311 1.409 . S
C3305 H3297 0.930 . S
C3305 C3303 1.419 . S
C3305 C3306 1.362 . S
C3306 H3298 0.930 . S
C3306 C3305 1.362 . S
C3306 C3309 1.409 . S
C3307 H3299 0.930 . S
C3307 C3308 1.355 . S
C3307 C3309 1.415 . S
C3308 C3307 1.355 . S
C3308 C3310 1.419 . S
C3309 C3304 1.425 . S
C3309 C3306 1.409 . S
C3309 C3307 1.415 . S
C3310 H3300 0.930 . S
C3310 C3308 1.419 . S
C3310 C3311 1.362 . S
C3311 H3301 0.930 . S
C3311 C3304 1.409 . S
C3311 C3310 1.362 . S
H3312 C3318 0.930 . S
H3313 C3321 0.930 . S
H3314 C3322 0.930 . S
H3315 C3323 0.930 . S
H3316 C3326 0.930 . S
H3317 C3327 0.930 . S
C3318 H3312 0.930 . S
C3318 C3319 1.355 . S
C3318 C3320 1.415 . S
C3319 C3318 1.355 . S
C3319 C3321 1.419 . S
C3320 C3318 1.415 . S
C3320 C3325 1.425 . S
C3320 C3327 1.409 . S
C3321 H3313 0.930 . S
C3321 C3319 1.419 . S
C3321 C3322 1.362 . S
C3322 H3314 0.930 . S
C3322 C3321 1.362 . S
C3322 C3325 1.409 . S
C3323 H3315 0.930 . S
C3323 C3324 1.355 . S
C3323 C3325 1.415 . S
C3324 C3323 1.355 . S
C3324 C3326 1.419 . S
C3325 C3320 1.425 . S
C3325 C3322 1.409 . S
C3325 C3323 1.415 . S
C3326 H3316 0.930 . S
C3326 C3324 1.419 . S
C3326 C3327 1.362 . S
C3327 H3317 0.930 . S
C3327 C3320 1.409 . S
C3327 C3326 1.362 . S
H3328 C3334 0.930 . S
H3329 C3337 0.930 . S
H3330 C3338 0.930 . S
H3331 C3339 0.930 . S
H3332 C3342 0.930 . S
H3333 C3343 0.930 . S
C3334 H3328 0.930 . S
C3334 C3335 1.355 . S
C3334 C3336 1.415 . S
C3335 C3334 1.355 . S
C3335 C3337 1.419 . S
C3336 C3334 1.415 . S
C3336 C3341 1.425 . S
C3336 C3343 1.409 . S
C3337 H3329 0.930 . S
C3337 C3335 1.419 . S
C3337 C3338 1.362 . S
C3338 H3330 0.930 . S
C3338 C3337 1.362 . S
C3338 C3341 1.409 . S
C3339 H3331 0.930 . S
C3339 C3340 1.355 . S
C3339 C3341 1.415 . S
C3340 C3339 1.355 . S
C3340 C3342 1.419 . S
C3341 C3336 1.425 . S
C3341 C3338 1.409 . S
C3341 C3339 1.415 . S
C3342 H3332 0.930 . S
C3342 C3340 1.419 . S
C3342 C3343 1.362 . S
C3343 H3333 0.930 . S
C3343 C3336 1.409 . S
C3343 C3342 1.362 . S
H3344 C3350 0.930 . S
H3345 C3353 0.930 . S
H3346 C3354 0.930 . S
H3347 C3355 0.930 . S
H3348 C3358 0.930 . S
H3349 C3359 0.930 . S
C3350 H3344 0.930 . S
C3350 C3351 1.355 . S
C3350 C3352 1.415 . S
C3351 C3350 1.355 . S
C3351 C3353 1.419 . S
C3352 C3350 1.415 . S
C3352 C3357 1.425 . S
C3352 C3359 1.409 . S
C3353 H3345 0.930 . S
C3353 C3351 1.419 . S
C3353 C3354 1.362 . S
C3354 H3346 0.930 . S
C3354 C3353 1.362 . S
C3354 C3357 1.409 . S
C3355 H3347 0.930 . S
C3355 C3356 1.355 . S
C3355 C3357 1.415 . S
C3356 C3355 1.355 . S
C3356 C3358 1.419 . S
C3357 C3352 1.425 . S
C3357 C3354 1.409 . S
C3357 C3355 1.415 . S
C3358 H3348 0.930 . S
C3358 C3356 1.419 . S
C3358 C3359 1.362 . S
C3359 H3349 0.930 . S
C3359 C3352 1.409 . S
C3359 C3358 1.362 . S
H3360 C3366 0.930 . S
H3361 C3369 0.930 . S
H3362 C3370 0.930 . S
H3363 C3371 0.930 . S
H3364 C3374 0.930 . S
H3365 C3375 0.930 . S
C3366 H3360 0.930 . S
C3366 C3367 1.355 . S
C3366 C3368 1.415 . S
C3367 C3366 1.355 . S
C3367 C3369 1.419 . S
C3368 C3366 1.415 . S
C3368 C3373 1.425 . S
C3368 C3375 1.409 . S
C3369 H3361 0.930 . S
C3369 C3367 1.419 . S
C3369 C3370 1.362 . S
C3370 H3362 0.930 . S
C3370 C3369 1.362 . S
C3370 C3373 1.409 . S
C3371 H3363 0.930 . S
C3371 C3372 1.355 . S
C3371 C3373 1.415 . S
C3372 C3371 1.355 . S
C3372 C3374 1.419 . S
C3373 C3368 1.425 . S
C3373 C3370 1.409 . S
C3373 C3371 1.415 . S
C3374 H3364 0.930 . S
C3374 C3372 1.419 . S
C3374 C3375 1.362 . S
C3375 H3365 0.930 . S
C3375 C3368 1.409 . S
C3375 C3374 1.362 . S
H3376 C3382 0.930 . S
H3377 C3385 0.930 . S
H3378 C3386 0.930 . S
H3379 C3387 0.930 . S
H3380 C3390 0.930 . S
H3381 C3391 0.930 . S
C3382 H3376 0.930 . S
C3382 C3383 1.355 . S
C3382 C3384 1.415 . S
C3383 C3382 1.355 . S
C3383 C3385 1.419 . S
C3384 C3382 1.415 . S
C3384 C3389 1.425 . S
C3384 C3391 1.409 . S
C3385 H3377 0.930 . S
C3385 C3383 1.419 . S
C3385 C3386 1.362 . S
C3386 H3378 0.930 . S
C3386 C3385 1.362 . S
C3386 C3389 1.409 . S
C3387 H3379 0.930 . S
C3387 C3388 1.355 . S
C3387 C3389 1.415 . S
C3388 C3387 1.355 . S
C3388 C3390 1.419 . S
C3389 C3384 1.425 . S
C3389 C3386 1.409 . S
C3389 C3387 1.415 . S
C3390 H3380 0.930 . S
C3390 C3388 1.419 . S
C3390 C3391 1.362 . S
C3391 H3381 0.930 . S
C3391 C3384 1.409 . S
C3391 C3390 1.362 . S
H3392 C3398 0.930 . S
H3393 C3401 0.930 . S
H3394 C3402 0.930 . S
H3395 C3403 0.930 . S
H3396 C3406 0.930 . S
H3397 C3407 0.930 . S
C3398 H3392 0.930 . S
C3398 C3399 1.355 . S
C3398 C3400 1.415 . S
C3399 C3398 1.355 . S
C3399 C3401 1.419 . S
C3400 C3398 1.415 . S
C3400 C3405 1.425 . S
C3400 C3407 1.409 . S
C3401 H3393 0.930 . S
C3401 C3399 1.419 . S
C3401 C3402 1.362 . S
C3402 H3394 0.930 . S
C3402 C3401 1.362 . S
C3402 C3405 1.409 . S
C3403 H3395 0.930 . S
C3403 C3404 1.355 . S
C3403 C3405 1.415 . S
C3404 C3403 1.355 . S
C3404 C3406 1.419 . S
C3405 C3400 1.425 . S
C3405 C3402 1.409 . S
C3405 C3403 1.415 . S
C3406 H3396 0.930 . S
C3406 C3404 1.419 . S
C3406 C3407 1.362 . S
C3407 H3397 0.930 . S
C3407 C3400 1.409 . S
C3407 C3406 1.362 . S
H3408 C3414 0.930 . S
H3409 C3417 0.930 . S
H3410 C3418 0.930 . S
H3411 C3419 0.930 . S
H3412 C3422 0.930 . S
H3413 C3423 0.930 . S
C3414 H3408 0.930 . S
C3414 C3415 1.355 . S
C3414 C3416 1.415 . S
C3415 C3414 1.355 . S
C3415 C3417 1.419 . S
C3416 C3414 1.415 . S
C3416 C3421 1.425 . S
C3416 C3423 1.409 . S
C3417 H3409 0.930 . S
C3417 C3415 1.419 . S
C3417 C3418 1.362 . S
C3418 H3410 0.930 . S
C3418 C3417 1.362 . S
C3418 C3421 1.409 . S
C3419 H3411 0.930 . S
C3419 C3420 1.355 . S
C3419 C3421 1.415 . S
C3420 C3419 1.355 . S
C3420 C3422 1.419 . S
C3421 C3416 1.425 . S
C3421 C3418 1.409 . S
C3421 C3419 1.415 . S
C3422 H3412 0.930 . S
C3422 C3420 1.419 . S
C3422 C3423 1.362 . S
C3423 H3413 0.930 . S
C3423 C3416 1.409 . S
C3423 C3422 1.362 . S
H3424 C3430 0.930 . S
H3425 C3433 0.930 . S
H3426 C3434 0.930 . S
H3427 C3435 0.930 . S
H3428 C3438 0.930 . S
H3429 C3439 0.930 . S
C3430 H3424 0.930 . S
C3430 C3431 1.355 . S
C3430 C3432 1.415 . S
C3431 C3430 1.355 . S
C3431 C3433 1.419 . S
C3432 C3430 1.415 . S
C3432 C3437 1.425 . S
C3432 C3439 1.409 . S
C3433 H3425 0.930 . S
C3433 C3431 1.419 . S
C3433 C3434 1.362 . S
C3434 H3426 0.930 . S
C3434 C3433 1.362 . S
C3434 C3437 1.409 . S
C3435 H3427 0.930 . S
C3435 C3436 1.355 . S
C3435 C3437 1.415 . S
C3436 C3435 1.355 . S
C3436 C3438 1.419 . S
C3437 C3432 1.425 . S
C3437 C3434 1.409 . S
C3437 C3435 1.415 . S
C3438 H3428 0.930 . S
C3438 C3436 1.419 . S
C3438 C3439 1.362 . S
C3439 H3429 0.930 . S
C3439 C3432 1.409 . S
C3439 C3438 1.362 . S
H3440 C3446 0.930 . S
H3441 C3449 0.930 . S
H3442 C3450 0.930 . S
H3443 C3451 0.930 . S
H3444 C3454 0.930 . S
H3445 C3455 0.930 . S
C3446 H3440 0.930 . S
C3446 C3447 1.355 . S
C3446 C3448 1.415 . S
C3447 C3446 1.355 . S
C3447 C3449 1.419 . S
C3448 C3446 1.415 . S
C3448 C3453 1.425 . S
C3448 C3455 1.409 . S
C3449 H3441 0.930 . S
C3449 C3447 1.419 . S
C3449 C3450 1.362 . S
C3450 H3442 0.930 . S
C3450 C3449 1.362 . S
C3450 C3453 1.409 . S
C3451 H3443 0.930 . S
C3451 C3452 1.355 . S
C3451 C3453 1.415 . S
C3452 C3451 1.355 . S
C3452 C3454 1.419 . S
C3453 C3448 1.425 . S
C3453 C3450 1.409 . S
C3453 C3451 1.415 . S
C3454 H3444 0.930 . S
C3454 C3452 1.419 . S
C3454 C3455 1.362 . S
C3455 H3445 0.930 . S
C3455 C3448 1.409 . S
C3455 C3454 1.362 . S
H3456 C3462 0.930 . S
H3457 C3465 0.930 . S
H3458 C3466 0.930 . S
H3459 C3467 0.930 . S
H3460 C3470 0.930 . S
H3461 C3471 0.930 . S
C3462 H3456 0.930 . S
C3462 C3463 1.355 . S
C3462 C3464 1.415 . S
C3463 C3462 1.355 . S
C3463 C3465 1.419 . S
C3464 C3462 1.415 . S
C3464 C3469 1.425 . S
C3464 C3471 1.409 . S
C3465 H3457 0.930 . S
C3465 C3463 1.419 . S
C3465 C3466 1.362 . S
C3466 H3458 0.930 . S
C3466 C3465 1.362 . S
C3466 C3469 1.409 . S
C3467 H3459 0.930 . S
C3467 C3468 1.355 . S
C3467 C3469 1.415 . S
C3468 C3467 1.355 . S
C3468 C3470 1.419 . S
C3469 C3464 1.425 . S
C3469 C3466 1.409 . S
C3469 C3467 1.415 . S
C3470 H3460 0.930 . S
C3470 C3468 1.419 . S
C3470 C3471 1.362 . S
C3471 H3461 0.930 . S
C3471 C3464 1.409 . S
C3471 C3470 1.362 . S
H3472 C3478 0.930 . S
H3473 C3481 0.930 . S
H3474 C3482 0.930 . S
H3475 C3483 0.930 . S
H3476 C3486 0.930 . S
H3477 C3487 0.930 . S
C3478 H3472 0.930 . S
C3478 C3479 1.355 . S
C3478 C3480 1.415 . S
C3479 C3478 1.355 . S
C3479 C3481 1.419 . S
C3480 C3478 1.415 . S
C3480 C3485 1.425 . S
C3480 C3487 1.409 . S
C3481 H3473 0.930 . S
C3481 C3479 1.419 . S
C3481 C3482 1.362 . S
C3482 H3474 0.930 . S
C3482 C3481 1.362 . S
C3482 C3485 1.409 . S
C3483 H3475 0.930 . S
C3483 C3484 1.355 . S
C3483 C3485 1.415 . S
C3484 C3483 1.355 . S
C3484 C3486 1.419 . S
C3485 C3480 1.425 . S
C3485 C3482 1.409 . S
C3485 C3483 1.415 . S
C3486 H3476 0.930 . S
C3486 C3484 1.419 . S
C3486 C3487 1.362 . S
C3487 H3477 0.930 . S
C3487 C3480 1.409 . S
C3487 C3486 1.362 . S
H3488 C3494 0.930 . S
H3489 C3497 0.930 . S
H3490 C3498 0.930 . S
H3491 C3499 0.930 . S
H3492 C3502 0.930 . S
H3493 C3503 0.930 . S
C3494 H3488 0.930 . S
C3494 C3495 1.355 . S
C3494 C3496 1.415 . S
C3495 C3494 1.355 . S
C3495 C3497 1.419 . S
C3496 C3494 1.415 . S
C3496 C3501 1.425 . S
C3496 C3503 1.409 . S
C3497 H3489 0.930 . S
C3497 C3495 1.419 . S
C3497 C3498 1.362 . S
C3498 H3490 0.930 . S
C3498 C3497 1.362 . S
C3498 C3501 1.409 . S
C3499 H3491 0.930 . S
C3499 C3500 1.355 . S
C3499 C3501 1.415 . S
C3500 C3499 1.355 . S
C3500 C3502 1.419 . S
C3501 C3496 1.425 . S
C3501 C3498 1.409 . S
C3501 C3499 1.415 . S
C3502 H3492 0.930 . S
C3502 C3500 1.419 . S
C3502 C3503 1.362 . S
C3503 H3493 0.930 . S
C3503 C3496 1.409 . S
C3503 C3502 1.362 . S
H3504 C3510 0.930 . S
H3505 C3513 0.930 . S
H3506 C3514 0.930 . S
H3507 C3515 0.930 . S
H3508 C3518 0.930 . S
H3509 C3519 0.930 . S
C3510 H3504 0.930 . S
C3510 C3511 1.355 . S
C3510 C3512 1.415 . S
C3511 C3510 1.355 . S
C3511 C3513 1.419 . S
C3512 C3510 1.415 . S
C3512 C3517 1.425 . S
C3512 C3519 1.409 . S
C3513 H3505 0.930 . S
C3513 C3511 1.419 . S
C3513 C3514 1.362 . S
C3514 H3506 0.930 . S
C3514 C3513 1.362 . S
C3514 C3517 1.409 . S
C3515 H3507 0.930 . S
C3515 C3516 1.355 . S
C3515 C3517 1.415 . S
C3516 C3515 1.355 . S
C3516 C3518 1.419 . S
C3517 C3512 1.425 . S
C3517 C3514 1.409 . S
C3517 C3515 1.415 . S
C3518 H3508 0.930 . S
C3518 C3516 1.419 . S
C3518 C3519 1.362 . S
C3519 H3509 0.930 . S
C3519 C3512 1.409 . S
C3519 C3518 1.362 . S
H3520 C3526 0.930 . S
H3521 C3529 0.930 . S
H3522 C3530 0.930 . S
H3523 C3531 0.930 1_455 S
H3524 C3534 0.930 . S
H3525 C3535 0.930 . S
C3526 H3520 0.930 . S
C3526 C3527 1.355 . S
C3526 C3528 1.415 . S
C3527 C3526 1.355 . S
C3527 C3529 1.419 . S
C3528 C3526 1.415 . S
C3528 C3533 1.425 . S
C3528 C3535 1.409 . S
C3529 H3521 0.930 . S
C3529 C3527 1.419 . S
C3529 C3530 1.362 . S
C3530 H3522 0.930 . S
C3530 C3529 1.362 . S
C3530 C3533 1.409 . S
C3531 H3523 0.930 1_655 S
C3531 C3532 1.355 . S
C3531 C3533 1.415 . S
C3532 C3531 1.355 . S
C3532 C3534 1.419 . S
C3533 C3528 1.425 . S
C3533 C3530 1.409 . S
C3533 C3531 1.415 . S
C3534 H3524 0.930 . S
C3534 C3532 1.419 . S
C3534 C3535 1.362 . S
C3535 H3525 0.930 . S
C3535 C3528 1.409 . S
C3535 C3534 1.362 . S
H3536 C3542 0.930 . S
H3537 C3545 0.930 . S
H3538 C3546 0.930 . S
H3539 C3547 0.930 . S
H3540 C3550 0.930 . S
H3541 C3551 0.930 . S
C3542 H3536 0.930 . S
C3542 C3543 1.355 . S
C3542 C3544 1.415 . S
C3543 C3542 1.355 . S
C3543 C3545 1.419 . S
C3544 C3542 1.415 . S
C3544 C3549 1.425 . S
C3544 C3551 1.409 . S
C3545 H3537 0.930 . S
C3545 C3543 1.419 . S
C3545 C3546 1.362 . S
C3546 H3538 0.930 . S
C3546 C3545 1.362 . S
C3546 C3549 1.409 . S
C3547 H3539 0.930 . S
C3547 C3548 1.355 . S
C3547 C3549 1.415 . S
C3548 C3547 1.355 . S
C3548 C3550 1.419 . S
C3549 C3544 1.425 . S
C3549 C3546 1.409 . S
C3549 C3547 1.415 . S
C3550 H3540 0.930 . S
C3550 C3548 1.419 . S
C3550 C3551 1.362 . S
C3551 H3541 0.930 . S
C3551 C3544 1.409 . S
C3551 C3550 1.362 . S
H3552 C3558 0.930 . S
H3553 C3561 0.930 . S
H3554 C3562 0.930 . S
H3555 C3563 0.930 . S
H3556 C3566 0.930 . S
H3557 C3567 0.930 . S
C3558 H3552 0.930 . S
C3558 C3559 1.355 . S
C3558 C3560 1.415 . S
C3559 C3558 1.355 . S
C3559 C3561 1.419 . S
C3560 C3558 1.415 . S
C3560 C3565 1.425 . S
C3560 C3567 1.409 . S
C3561 H3553 0.930 . S
C3561 C3559 1.419 . S
C3561 C3562 1.362 . S
C3562 H3554 0.930 . S
C3562 C3561 1.362 . S
C3562 C3565 1.409 . S
C3563 H3555 0.930 . S
C3563 C3564 1.355 . S
C3563 C3565 1.415 . S
C3564 C3563 1.355 . S
C3564 C3566 1.419 . S
C3565 C3560 1.425 . S
C3565 C3562 1.409 . S
C3565 C3563 1.415 . S
C3566 H3556 0.930 . S
C3566 C3564 1.419 . S
C3566 C3567 1.362 . S
C3567 H3557 0.930 . S
C3567 C3560 1.409 . S
C3567 C3566 1.362 . S
H3568 C3574 0.930 . S
H3569 C3577 0.930 . S
H3570 C3578 0.930 . S
H3571 C3579 0.930 . S
H3572 C3582 0.930 . S
H3573 C3583 0.930 . S
C3574 H3568 0.930 . S
C3574 C3575 1.355 . S
C3574 C3576 1.415 . S
C3575 C3574 1.355 . S
C3575 C3577 1.419 . S
C3576 C3574 1.415 . S
C3576 C3581 1.425 . S
C3576 C3583 1.409 . S
C3577 H3569 0.930 . S
C3577 C3575 1.419 . S
C3577 C3578 1.362 . S
C3578 H3570 0.930 . S
C3578 C3577 1.362 . S
C3578 C3581 1.409 . S
C3579 H3571 0.930 . S
C3579 C3580 1.355 . S
C3579 C3581 1.415 . S
C3580 C3579 1.355 . S
C3580 C3582 1.419 . S
C3581 C3576 1.425 . S
C3581 C3578 1.409 . S
C3581 C3579 1.415 . S
C3582 H3572 0.930 . S
C3582 C3580 1.419 . S
C3582 C3583 1.362 . S
C3583 H3573 0.930 . S
C3583 C3576 1.409 . S
C3583 C3582 1.362 . S
H3584 C3590 0.930 . S
H3585 C3593 0.930 . S
H3586 C3594 0.930 . S
H3587 C3595 0.930 . S
H3588 C3598 0.930 . S
H3589 C3599 0.930 . S
C3590 H3584 0.930 . S
C3590 C3591 1.355 . S
C3590 C3592 1.415 . S
C3591 C3590 1.355 . S
C3591 C3593 1.419 . S
C3592 C3590 1.415 . S
C3592 C3597 1.425 . S
C3592 C3599 1.409 . S
C3593 H3585 0.930 . S
C3593 C3591 1.419 . S
C3593 C3594 1.362 . S
C3594 H3586 0.930 . S
C3594 C3593 1.362 . S
C3594 C3597 1.409 . S
C3595 H3587 0.930 . S
C3595 C3596 1.355 . S
C3595 C3597 1.415 . S
C3596 C3595 1.355 . S
C3596 C3598 1.419 . S
C3597 C3592 1.425 . S
C3597 C3594 1.409 . S
C3597 C3595 1.415 . S
C3598 H3588 0.930 . S
C3598 C3596 1.419 . S
C3598 C3599 1.362 . S
C3599 H3589 0.930 . S
C3599 C3592 1.409 . S
C3599 C3598 1.362 . S
H3600 C3606 0.930 . S
H3601 C3609 0.930 . S
H3602 C3610 0.930 . S
H3603 C3611 0.930 . S
H3604 C3614 0.930 . S
H3605 C3615 0.930 . S
C3606 H3600 0.930 . S
C3606 C3607 1.355 . S
C3606 C3608 1.415 . S
C3607 C3606 1.355 . S
C3607 C3609 1.419 . S
C3608 C3606 1.415 . S
C3608 C3613 1.425 . S
C3608 C3615 1.409 . S
C3609 H3601 0.930 . S
C3609 C3607 1.419 . S
C3609 C3610 1.362 . S
C3610 H3602 0.930 . S
C3610 C3609 1.362 . S
C3610 C3613 1.409 . S
C3611 H3603 0.930 . S
C3611 C3612 1.355 . S
C3611 C3613 1.415 . S
C3612 C3611 1.355 . S
C3612 C3614 1.419 . S
C3613 C3608 1.425 . S
C3613 C3610 1.409 . S
C3613 C3611 1.415 . S
C3614 H3604 0.930 . S
C3614 C3612 1.419 . S
C3614 C3615 1.362 . S
C3615 H3605 0.930 . S
C3615 C3608 1.409 . S
C3615 C3614 1.362 . S
H3616 C3622 0.930 . S
H3617 C3625 0.930 . S
H3618 C3626 0.930 . S
H3619 C3627 0.930 . S
H3620 C3630 0.930 . S
H3621 C3631 0.930 . S
C3622 H3616 0.930 . S
C3622 C3623 1.355 . S
C3622 C3624 1.415 . S
C3623 C3622 1.355 . S
C3623 C3625 1.419 . S
C3624 C3622 1.415 . S
C3624 C3629 1.425 . S
C3624 C3631 1.409 . S
C3625 H3617 0.930 . S
C3625 C3623 1.419 . S
C3625 C3626 1.362 . S
C3626 H3618 0.930 . S
C3626 C3625 1.362 . S
C3626 C3629 1.409 . S
C3627 H3619 0.930 . S
C3627 C3628 1.355 . S
C3627 C3629 1.415 . S
C3628 C3627 1.355 . S
C3628 C3630 1.419 . S
C3629 C3624 1.425 . S
C3629 C3626 1.409 . S
C3629 C3627 1.415 . S
C3630 H3620 0.930 . S
C3630 C3628 1.419 . S
C3630 C3631 1.362 . S
C3631 H3621 0.930 . S
C3631 C3624 1.409 . S
C3631 C3630 1.362 . S
H3632 C3638 0.930 . S
H3633 C3641 0.930 . S
H3634 C3642 0.930 . S
H3635 C3643 0.930 . S
H3636 C3646 0.930 . S
H3637 C3647 0.930 1_545 S
C3638 H3632 0.930 . S
C3638 C3639 1.355 . S
C3638 C3640 1.415 . S
C3639 C3638 1.355 . S
C3639 C3641 1.419 . S
C3640 C3638 1.415 . S
C3640 C3645 1.425 . S
C3640 C3647 1.409 . S
C3641 H3633 0.930 . S
C3641 C3639 1.419 . S
C3641 C3642 1.362 . S
C3642 H3634 0.930 . S
C3642 C3641 1.362 . S
C3642 C3645 1.409 . S
C3643 H3635 0.930 . S
C3643 C3644 1.355 . S
C3643 C3645 1.415 . S
C3644 C3643 1.355 . S
C3644 C3646 1.419 1_565 S
C3645 C3640 1.425 . S
C3645 C3642 1.409 . S
C3645 C3643 1.415 . S
C3646 H3636 0.930 . S
C3646 C3644 1.419 1_545 S
C3646 C3647 1.362 1_545 S
C3647 H3637 0.930 1_565 S
C3647 C3640 1.409 . S
C3647 C3646 1.362 1_565 S
H3648 C3654 0.930 . S
H3649 C3657 0.930 . S
H3650 C3658 0.930 . S
H3651 C3659 0.930 . S
H3652 C3662 0.930 . S
H3653 C3663 0.930 . S
C3654 H3648 0.930 . S
C3654 C3655 1.355 . S
C3654 C3656 1.415 . S
C3655 C3654 1.355 . S
C3655 C3657 1.419 . S
C3656 C3654 1.415 . S
C3656 C3661 1.425 . S
C3656 C3663 1.409 . S
C3657 H3649 0.930 . S
C3657 C3655 1.419 . S
C3657 C3658 1.362 . S
C3658 H3650 0.930 . S
C3658 C3657 1.362 . S
C3658 C3661 1.409 . S
C3659 H3651 0.930 . S
C3659 C3660 1.355 . S
C3659 C3661 1.415 . S
C3660 C3659 1.355 . S
C3660 C3662 1.419 . S
C3661 C3656 1.425 . S
C3661 C3658 1.409 . S
C3661 C3659 1.415 . S
C3662 H3652 0.930 . S
C3662 C3660 1.419 . S
C3662 C3663 1.362 . S
C3663 H3653 0.930 . S
C3663 C3656 1.409 . S
C3663 C3662 1.362 . S
H3664 C3670 0.930 . S
H3665 C3673 0.930 . S
H3666 C3674 0.930 . S
H3667 C3675 0.930 . S
H3668 C3678 0.930 . S
H3669 C3679 0.930 . S
C3670 H3664 0.930 . S
C3670 C3671 1.355 . S
C3670 C3672 1.415 . S
C3671 C3670 1.355 . S
C3671 C3673 1.419 . S
C3672 C3670 1.415 . S
C3672 C3677 1.425 . S
C3672 C3679 1.409 . S
C3673 H3665 0.930 . S
C3673 C3671 1.419 . S
C3673 C3674 1.362 . S
C3674 H3666 0.930 . S
C3674 C3673 1.362 . S
C3674 C3677 1.409 . S
C3675 H3667 0.930 . S
C3675 C3676 1.355 . S
C3675 C3677 1.415 . S
C3676 C3675 1.355 . S
C3676 C3678 1.419 . S
C3677 C3672 1.425 . S
C3677 C3674 1.409 . S
C3677 C3675 1.415 . S
C3678 H3668 0.930 . S
C3678 C3676 1.419 . S
C3678 C3679 1.362 . S
C3679 H3669 0.930 . S
C3679 C3672 1.409 . S
C3679 C3678 1.362 . S
H3680 C3686 0.930 . S
H3681 C3689 0.930 . S
H3682 C3690 0.930 . S
H3683 C3691 0.930 . S
H3684 C3694 0.930 . S
H3685 C3695 0.930 . S
C3686 H3680 0.930 . S
C3686 C3687 1.355 . S
C3686 C3688 1.415 . S
C3687 C3686 1.355 . S
C3687 C3689 1.419 . S
C3688 C3686 1.415 . S
C3688 C3693 1.425 . S
C3688 C3695 1.409 . S
C3689 H3681 0.930 . S
C3689 C3687 1.419 . S
C3689 C3690 1.362 . S
C3690 H3682 0.930 . S
C3690 C3689 1.362 . S
C3690 C3693 1.409 . S
C3691 H3683 0.930 . S
C3691 C3692 1.355 . S
C3691 C3693 1.415 . S
C3692 C3691 1.355 . S
C3692 C3694 1.419 . S
C3693 C3688 1.425 . S
C3693 C3690 1.409 . S
C3693 C3691 1.415 . S
C3694 H3684 0.930 . S
C3694 C3692 1.419 . S
C3694 C3695 1.362 . S
C3695 H3685 0.930 . S
C3695 C3688 1.409 . S
C3695 C3694 1.362 . S
H3696 C3702 0.930 . S
H3697 C3705 0.930 . S
H3698 C3706 0.930 . S
H3699 C3707 0.930 . S
H3700 C3710 0.930 1_556 S
H3701 C3711 0.923 1_556 S
C3702 H3696 0.930 . S
C3702 C3703 1.355 . S
C3702 C3704 1.415 . S
C3703 C3702 1.355 . S
C3703 C3705 1.419 . S
C3704 C3702 1.415 . S
C3704 C3709 1.425 . S
C3704 C3711 1.409 . S
C3705 H3697 0.930 . S
C3705 C3703 1.419 . S
C3705 C3706 1.362 . S
C3706 H3698 0.930 . S
C3706 C3705 1.362 . S
C3706 C3709 1.409 . S
C3707 H3699 0.930 . S
C3707 C3708 1.355 . S
C3707 C3709 1.415 . S
C3708 C3707 1.355 . S
C3708 C3710 1.419 . S
C3709 C3704 1.425 . S
C3709 C3706 1.409 . S
C3709 C3707 1.415 . S
C3710 H3700 0.930 1_554 S
C3710 C3708 1.419 . S
C3710 C3711 1.362 . S
C3711 H3701 0.923 1_554 S
C3711 C3704 1.409 . S
C3711 C3710 1.362 . S
H3712 C3718 0.930 . S
H3713 C3721 0.930 . S
H3714 C3722 0.930 . S
H3715 C3723 0.930 . S
H3716 C3726 0.930 . S
H3717 C3727 0.930 . S
C3718 H3712 0.930 . S
C3718 C3719 1.355 . S
C3718 C3720 1.415 . S
C3719 C3718 1.355 . S
C3719 C3721 1.419 . S
C3720 C3718 1.415 . S
C3720 C3725 1.425 . S
C3720 C3727 1.409 . S
C3721 H3713 0.930 . S
C3721 C3719 1.419 . S
C3721 C3722 1.362 . S
C3722 H3714 0.930 . S
C3722 C3721 1.362 . S
C3722 C3725 1.409 . S
C3723 H3715 0.930 . S
C3723 C3724 1.355 . S
C3723 C3725 1.415 . S
C3724 C3723 1.355 . S
C3724 C3726 1.419 . S
C3725 C3720 1.425 . S
C3725 C3722 1.409 . S
C3725 C3723 1.415 . S
C3726 H3716 0.930 . S
C3726 C3724 1.419 . S
C3726 C3727 1.362 . S
C3727 H3717 0.930 . S
C3727 C3720 1.409 . S
C3727 C3726 1.362 . S
H3728 C3734 0.930 . S
H3729 C3737 0.930 . S
H3730 C3738 0.930 . S
H3731 C3739 0.930 . S
H3732 C3742 0.930 . S
H3733 C3743 0.930 . S
C3734 H3728 0.930 . S
C3734 C3735 1.355 . S
C3734 C3736 1.415 . S
C3735 C3734 1.355 . S
C3735 C3737 1.419 . S
C3736 C3734 1.415 . S
C3736 C3741 1.425 . S
C3736 C3743 1.409 . S
C3737 H3729 0.930 . S
C3737 C3735 1.419 . S
C3737 C3738 1.362 . S
C3738 H3730 0.930 . S
C3738 C3737 1.362 . S
C3738 C3741 1.409 . S
C3739 H3731 0.930 . S
C3739 C3740 1.355 . S
C3739 C3741 1.415 . S
C3740 C3739 1.355 . S
C3740 C3742 1.419 . S
C3741 C3736 1.425 . S
C3741 C3738 1.409 . S
C3741 C3739 1.415 . S
C3742 H3732 0.930 . S
C3742 C3740 1.419 . S
C3742 C3743 1.362 . S
C3743 H3733 0.930 . S
C3743 C3736 1.409 . S
C3743 C3742 1.362 . S
C2215 C255 2.109 1_455 S
C2220 C920 2.137 . S
C2231 C147 1.897 . S
C2236 C1022 1.890 . S
C2247 C184 1.820 . S
C2252 C1088 1.837 . S
C2268 C1174 1.367 . S
C2263 C220 1.458 . S
C2279 C40 1.432 . S
C2284 C1258 1.377 . S
C2300 C1340 1.943 . S
C2295 C74 1.909 . S
C2316 C1442 1.926 . S
C2311 C110 1.921 . S
C2327 C14 2.132 . S
C2332 C1508 2.117 . S
C2348 C938 1.753 . S
C2343 C579 1.807 . S
C2359 C616 0.968 . S
C2364 C1006 0.846 . S
C2380 C1106 1.218 . S
C2375 C687 1.189 . S
C2396 C1172 1.668 . S
C2391 C436 1.643 . S
C2407 C580 1.629 . S
C2412 C1256 1.643 . S
C2428 C1358 1.200 . S
C2423 C615 1.166 . S
C2444 C1426 0.929 . S
C2439 C688 0.967 . S
C2460 C1526 1.760 . S
C2455 C435 1.793 . S
C2476 C922 0.996 1_565 S
C2471 C410 1.074 . S
C2487 C722 1.720 . S
C2492 C1610 1.702 . S
C2508 C1678 1.400 . S
C2503 C842 1.414 . S
C2524 C1760 0.865 . S
C2519 C794 0.822 . S
C2535 C302 1.116 . S
C2540 C1510 1.055 . S
C2551 C338 1.347 . S
C2556 C1090 1.308 . S
C2567 C830 1.749 . S
C2572 C1862 1.715 . S
C2588 C1928 0.920 . S
C2583 C758 0.875 . S
C2604 C931 2.126 . S
C2599 C158 1.981 . S
C2620 C1935 1.869 . S
C2615 C254 1.882 . S
C2631 C218 1.820 . S
C2636 C1099 1.859 . S
C2647 C194 1.330 . S
C2652 C1857 1.386 . S
C2668 C1269 1.305 . S
C2663 C3 1.428 . S
C2679 C111 1.775 . S
C2684 C1687 1.769 . S
C2700 C1431 1.880 1_556 S
C2695 C76 1.882 . S
C2716 C2023 2.200 . S
C2711 C50 2.099 . S
C2732 C927 1.753 . S
C2727 C364 1.789 . S
C2748 C1941 0.938 . S
C2743 C795 0.914 . S
C2759 C292 1.189 . S
C2764 C1095 1.148 . S
C2775 C723 1.618 . S
C2780 C1855 1.623 . S
C2791 C363 1.629 . S
C2796 C1267 1.626 . S
C2812 C1683 1.209 . S
C2807 C796 1.193 . S
C2823 C291 0.922 . S
C2828 C1437 0.927 . S
C2839 C724 1.807 . S
C2844 C2019 1.753 . S
C2855 C482 0.972 . S
C2860 C933 1.063 . S
C2871 C434 1.682 . S
C2876 C1599 1.670 . S
C2887 C662 1.376 . S
C2892 C1353 1.340 . S
C2903 C614 0.891 . S
C2908 C1771 0.861 . S
C2924 C2025 1.065 . S
C2919 C698 0.999 . S
C2935 C554 1.292 . S
C2940 C1101 1.357 . S
C2956 C1179 1.672 . S
C2951 C650 1.706 . S
C2972 C1015 0.873 . S
C2967 C506 0.827 . S
C2983 C183 2.139 . S
C2988 C2096 2.159 . S
C3004 C1946 1.906 . S
C2999 C219 1.874 . S
C3015 C256 1.786 . S
C3020 C2180 1.837 . S
C3031 C148 1.463 1_655 S
C3036 C1846 1.307 . S
C3047 C122 1.384 . S
C3052 C1594 1.320 . S
C3068 C1676 1.872 . S
C3063 C2 1.796 . S
C3084 C1778 1.840 . S
C3079 C39 1.840 . S
C3100 C2012 2.184 . S
C3095 C86 2.195 . S
C3116 C2114 1.809 . S
C3111 C651 1.830 . S
C3127 C472 0.970 . S
C3132 C1930 0.988 . S
C3148 C2198 1.195 . S
C3143 C507 1.230 . S
C3164 C1844 1.691 . S
C3159 C544 1.673 . S
C3180 C1592 1.657 . S
C3175 C652 1.649 . S
C3191 C471 1.169 . S
C3196 C1694 1.210 . S
C3212 C1762 0.862 . S
C3207 C508 0.965 . S
C3223 C543 1.808 . S
C3228 C2030 1.778 . S
C3244 C2098 1.048 . S
C3239 C806 1.069 . S
C3255 C326 1.709 . S
C3260 C1274 1.700 . S
C3276 C1342 1.390 . S
C3271 C374 1.408 1_565 S
C3292 C1424 0.877 . S
C3287 C398 0.856 . S
C3308 C2014 1.068 . S
C3303 C770 1.110 . S
C3319 C734 1.355 . S
C3324 C2182 1.337 . S
C3340 C1190 1.735 . S
C3335 C362 1.720 . S
C3356 C1004 0.937 . S
C3351 C290 0.900 . S
C3367 C230 2.035 . S
C3372 C2107 2.144 . S
C3388 C1011 1.879 . S
C3383 C182 1.882 . S
C3399 C146 1.837 . S
C3404 C2191 1.872 . S
C3415 C266 1.335 . S
C3420 C1185 1.369 . S
C3431 C75 1.440 . S
C3436 C1605 1.403 . S
C3452 C1351 1.918 . S
C3447 C38 1.860 . S
C3463 C4 1.814 . S
C3468 C1767 1.825 . S
C3479 C112 2.070 . S
C3484 C1519 2.103 . S
C3500 C2103 1.726 . S
C3495 C832 1.779 . S
C3511 C399 0.974 . S
C3516 C1017 0.918 . S
C3532 C2187 1.145 1_655 S
C3527 C760 1.185 . S
C3543 C327 1.616 . S
C3548 C1183 1.616 . S
C3559 C831 1.656 . S
C3564 C1603 1.650 . S
C3580 C1347 1.175 . S
C3575 C400 1.228 . S
C3591 C759 0.968 . S
C3596 C1773 0.872 . S
C3612 C1515 1.743 . S
C3607 C328 1.793 . S
C3628 C2109 1.022 . S
C3623 C626 1.090 . S
C3644 C1263 1.685 1_565 S
C3639 C542 1.689 . S
C3655 C590 1.261 . S
C3660 C1689 1.370 . S
C3676 C1435 0.871 . S
C3671 C470 0.886 . S
C3687 C518 0.947 . S
C3692 C1521 1.068 . S
C3703 C446 1.313 . S
C3708 C2193 1.319 . S
C3724 C1851 1.696 . S
C3719 C578 1.723 . S
C3740 C1939 0.854 . S
C3735 C686 0.857 . S
