# Generated by pormake.
# Topology pyr, (3,6)-cn, num edge types: 1
# Building blocks:
#     Node 0, Type 0, BuildingBlock: OLANEW_clean_sbu_2, # of connection points: 3
#     Node 1, Type 0, BuildingBlock: OLANEW_clean_sbu_2, # of connection points: 3
#     Node 2, Type 0, BuildingBlock: OLANEW_clean_sbu_2, # of connection points: 3
#     Node 3, Type 0, BuildingBlock: OLANEW_clean_sbu_2, # of connection points: 3
#     Node 4, Type 0, BuildingBlock: OLANEW_clean_sbu_2, # of connection points: 3
#     Node 5, Type 0, BuildingBlock: OLANEW_clean_sbu_2, # of connection points: 3
#     Node 6, Type 0, BuildingBlock: OLANEW_clean_sbu_2, # of connection points: 3
#     Node 7, Type 0, BuildingBlock: OLANEW_clean_sbu_2, # of connection points: 3
#     Node 8, Type 1, BuildingBlock: MIDCAF_clean_sbu_0, # of connection points: 6
#     Node 9, Type 1, BuildingBlock: MIDCAF_clean_sbu_0, # of connection points: 6
#     Node 10, Type 1, BuildingBlock: MIDCAF_clean_sbu_0, # of connection points: 6
#     Node 11, Type 1, BuildingBlock: MIDCAF_clean_sbu_0, # of connection points: 6
#     Edge 12, Type (0, 1), BuildingBlock: MIFKUJ_clean_linker_0, # of connection points: 2
#     Edge 13, Type (0, 1), BuildingBlock: MIFKUJ_clean_linker_0, # of connection points: 2
#     Edge 14, Type (0, 1), BuildingBlock: MIFKUJ_clean_linker_0, # of connection points: 2
#     Edge 15, Type (0, 1), BuildingBlock: MIFKUJ_clean_linker_0, # of connection points: 2
#     Edge 16, Type (0, 1), BuildingBlock: MIFKUJ_clean_linker_0, # of connection points: 2
#     Edge 17, Type (0, 1), BuildingBlock: MIFKUJ_clean_linker_0, # of connection points: 2
#     Edge 18, Type (0, 1), BuildingBlock: MIFKUJ_clean_linker_0, # of connection points: 2
#     Edge 19, Type (0, 1), BuildingBlock: MIFKUJ_clean_linker_0, # of connection points: 2
#     Edge 20, Type (0, 1), BuildingBlock: MIFKUJ_clean_linker_0, # of connection points: 2
#     Edge 21, Type (0, 1), BuildingBlock: MIFKUJ_clean_linker_0, # of connection points: 2
#     Edge 22, Type (0, 1), BuildingBlock: MIFKUJ_clean_linker_0, # of connection points: 2
#     Edge 23, Type (0, 1), BuildingBlock: MIFKUJ_clean_linker_0, # of connection points: 2
#     Edge 24, Type (0, 1), BuildingBlock: MIFKUJ_clean_linker_0, # of connection points: 2
#     Edge 25, Type (0, 1), BuildingBlock: MIFKUJ_clean_linker_0, # of connection points: 2
#     Edge 26, Type (0, 1), BuildingBlock: MIFKUJ_clean_linker_0, # of connection points: 2
#     Edge 27, Type (0, 1), BuildingBlock: MIFKUJ_clean_linker_0, # of connection points: 2
#     Edge 28, Type (0, 1), BuildingBlock: MIFKUJ_clean_linker_0, # of connection points: 2
#     Edge 29, Type (0, 1), BuildingBlock: MIFKUJ_clean_linker_0, # of connection points: 2
#     Edge 30, Type (0, 1), BuildingBlock: MIFKUJ_clean_linker_0, # of connection points: 2
#     Edge 31, Type (0, 1), BuildingBlock: MIFKUJ_clean_linker_0, # of connection points: 2
#     Edge 32, Type (0, 1), BuildingBlock: MIFKUJ_clean_linker_0, # of connection points: 2
#     Edge 33, Type (0, 1), BuildingBlock: MIFKUJ_clean_linker_0, # of connection points: 2
#     Edge 34, Type (0, 1), BuildingBlock: MIFKUJ_clean_linker_0, # of connection points: 2
#     Edge 35, Type (0, 1), BuildingBlock: MIFKUJ_clean_linker_0, # of connection points: 2
# Relax obj value: 0.070
# Max RMSD: 0.158
# Mean RMSD: 0.121
data_MOF--net-pyr--node1-OLANEW_clean_sbu_2--node2-MIDCAF_clean_sbu_0--edge1-MIFKUJ_clean_linker_0
_symmetry_space_group_name_H-M    P1
_symmetry_Int_Tables_number       1
_symmetry_cell_setting            triclinic
loop_
_symmetry_equiv_pos_as_xyz
'x, y, z'
_cell_length_a     48.460291
_cell_length_b     48.641784
_cell_length_c     47.818747
_cell_angle_alpha  94.078943
_cell_angle_beta   89.129984
_cell_angle_gamma 95.312894
loop_
_atom_site_label
_atom_site_type_symbol
_atom_site_fract_x
_atom_site_fract_y
_atom_site_fract_z
_atom_type_partial_charge
O0 O 0.28724 0.24691 0.23814 0.0
Cd1 Cd 0.25121 0.27695 0.25339 0.0
O2 O 0.27112 0.21887 0.26938 0.0
Cd3 Cd 0.26334 0.18499 0.29733 0.0
O4 O 0.24048 0.16173 0.32944 0.0
C5 C 0.23209 0.17507 0.35132 0.0
O6 O 0.23835 0.20198 0.35428 0.0
C7 C 0.28862 0.22446 0.24997 0.0
C8 C 0.23247 0.3085 0.21207 0.0
O9 O 0.25182 0.31854 0.22884 0.0
O10 O 0.22245 0.28344 0.21447 0.0
O11 O 0.33673 0.79175 0.82453 0.0
Cd12 Cd 0.31408 0.77186 0.78119 0.0
O13 O 0.30348 0.81903 0.82653 0.0
Cd14 Cd 0.27542 0.85166 0.83558 0.0
O15 O 0.24034 0.8742 0.82435 0.0
C16 C 0.24327 0.88808 0.80278 0.0
O17 O 0.2673 0.88938 0.7896 0.0
C18 C 0.32555 0.81192 0.83702 0.0
C19 C 0.34389 0.73492 0.74826 0.0
O20 O 0.34911 0.76115 0.74721 0.0
O21 O 0.32493 0.72611 0.76527 0.0
O22 O 0.79765 0.32045 0.78201 0.0
Cd23 Cd 0.76259 0.29361 0.7517 0.0
O24 O 0.78498 0.2915 0.81363 0.0
Cd25 Cd 0.77876 0.26866 0.85182 0.0
O26 O 0.75625 0.23673 0.8761 0.0
C27 C 0.75847 0.23412 0.90225 0.0
O28 O 0.77591 0.25146 0.91703 0.0
C29 C 0.80083 0.31225 0.80637 0.0
C30 C 0.73252 0.32212 0.71528 0.0
O31 O 0.72424 0.31883 0.74052 0.0
O32 O 0.75549 0.31272 0.70749 0.0
O33 O 0.87733 0.82926 0.27927 0.0
Cd34 Cd 0.86588 0.81781 0.22976 0.0
O35 O 0.8453 0.79932 0.29493 0.0
Cd36 Cd 0.81969 0.7742 0.32369 0.0
O37 O 0.79123 0.74782 0.34855 0.0
C38 C 0.76574 0.7438 0.34206 0.0
O39 O 0.75697 0.75584 0.32055 0.0
C40 C 0.86477 0.81844 0.29992 0.0
C41 C 0.89263 0.77462 0.20294 0.0
O42 O 0.90486 0.79913 0.20614 0.0
O43 O 0.86804 0.77038 0.21296 0.0
O44 O 0.97937 0.92296 0.94792 0.0
Cd45 Cd 0.97481 0.91077 0.99668 0.0
O46 O 0.93904 0.93989 0.95021 0.0
Cd47 Cd 0.90421 0.96232 0.9384 0.0
O48 O 0.8669 0.98364 0.94792 0.0
C49 C 0.84446 0.9791 0.93421 0.0
O50 O 0.84341 0.9615 0.91201 0.0
C51 C 0.96074 0.93476 0.93621 0.0
C52 C 0.98303 0.85544 0.00234 0.0
O53 O 0.00354 0.87393 0.00101 0.0
O54 O 0.95848 0.86305 0.00104 0.0
O55 O 0.59304 0.0351 0.44182 0.0
Cd56 Cd 0.61197 0.02886 0.48787 0.0
O57 O 0.60229 0.07982 0.44998 0.0
Cd58 Cd 0.60136 0.12405 0.44454 0.0
O59 O 0.59942 0.16835 0.45553 0.0
C60 C 0.57963 0.17547 0.47138 0.0
O61 O 0.56111 0.15618 0.47963 0.0
C62 C 0.59234 0.05944 0.43394 0.0
C63 C 0.66761 0.0181 0.48763 0.0
O64 O 0.64825 0.99823 0.48622 0.0
O65 O 0.66064 0.04294 0.48858 0.0
O66 O 0.51691 0.6603 0.11253 0.0
Cd67 Cd 0.52627 0.61489 0.12736 0.0
O68 O 0.47288 0.64974 0.12114 0.0
Cd69 Cd 0.42801 0.65219 0.12096 0.0
O70 O 0.38511 0.63356 0.11751 0.0
C71 C 0.38196 0.60815 0.10878 0.0
O72 O 0.40411 0.59521 0.1025 0.0
C73 C 0.4921 0.66682 0.11261 0.0
C74 C 0.53853 0.61399 0.18419 0.0
O75 O 0.55797 0.61721 0.1659 0.0
O76 O 0.51343 0.61167 0.17563 0.0
O77 O 0.10835 0.50121 0.66164 0.0
Cd78 Cd 0.13458 0.50885 0.61833 0.0
O79 O 0.10993 0.45685 0.65159 0.0
Cd80 Cd 0.10129 0.41217 0.65406 0.0
O81 O 0.09812 0.36762 0.64307 0.0
C82 C 0.08947 0.35892 0.61877 0.0
O83 O 0.08223 0.3769 0.60164 0.0
C84 C 0.10186 0.47643 0.66783 0.0
C85 C 0.19217 0.51586 0.62392 0.0
O86 O 0.17793 0.53684 0.62446 0.0
O87 O 0.17912 0.49167 0.62143 0.0
Zn88 Zn 0.97893 0.04181 0.6121 0.0
Zn89 Zn 0.03538 0.97073 0.56198 0.0
Zn90 Zn 0.0073 0.00754 0.58639 0.0
C91 C 0.05435 0.02099 0.54011 0.0
C92 C 0.9816 0.95461 0.5467 0.0
O93 O 0.00725 0.00101 0.63222 0.0
O94 O 0.97195 0.02383 0.64755 0.0
C95 C 0.02371 0.07286 0.59244 0.0
O96 O 0.03925 0.03023 0.56052 0.0
O97 O 0.05446 0.99521 0.53464 0.0
O98 O 0.00428 0.94396 0.54823 0.0
O99 O 0.97916 0.97909 0.55821 0.0
O100 O 0.00636 0.0744 0.61226 0.0
O101 O 0.02579 0.04971 0.57799 0.0
O102 O 0.96435 0.00066 0.57008 0.0
O103 O 0.948 0.03995 0.58544 0.0
C104 C 0.94516 0.01738 0.57065 0.0
O105 O 0.02774 0.98616 0.61932 0.0
O106 O 0.05732 0.96228 0.59432 0.0
C107 C 0.99016 0.00779 0.65195 0.0
C108 C 0.0481 0.97075 0.61787 0.0
Zn109 Zn 0.4961 0.0466 0.04954 0.0
Zn110 Zn 0.55741 0.99156 0.11665 0.0
Zn111 Zn 0.52468 0.01788 0.0836 0.0
C112 C 0.59182 0.01571 0.07652 0.0
C113 C 0.51738 0.95218 0.09027 0.0
O114 O 0.50118 0.04661 0.11076 0.0
O115 O 0.48205 0.0714 0.08047 0.0
C116 C 0.55115 0.0563 0.03403 0.0
O117 O 0.56845 0.02385 0.06958 0.0
O118 O 0.59322 0.00085 0.09695 0.0
O119 O 0.53622 0.95467 0.1085 0.0
O120 O 0.51078 0.97332 0.07797 0.0
O121 O 0.52758 0.061 0.0256 0.0
O122 O 0.55324 0.04129 0.05495 0.0
O123 O 0.49521 0.98747 0.06 0.0
O124 O 0.47115 0.01378 0.03541 0.0
C125 C 0.47567 0.99013 0.04266 0.0
O126 O 0.51925 0.03435 0.1279 0.0
O127 O 0.54953 0.01375 0.15155 0.0
C128 C 0.48612 0.06611 0.1055 0.0
C129 C 0.53146 0.03077 0.15097 0.0
Zn130 Zn 0.57174 0.55129 0.56699 0.0
Zn131 Zn 0.50128 0.50025 0.48929 0.0
Zn132 Zn 0.53764 0.52603 0.52662 0.0
C133 C 0.53172 0.46007 0.51049 0.0
C134 C 0.53606 0.53869 0.46091 0.0
O135 O 0.51288 0.54921 0.55809 0.0
O136 O 0.54297 0.57074 0.58853 0.0
C137 C 0.57734 0.49485 0.56652 0.0
O138 O 0.54372 0.48151 0.52425 0.0
O139 O 0.51224 0.46239 0.49383 0.0
O140 O 0.51529 0.52122 0.45716 0.0
O141 O 0.54744 0.54309 0.48522 0.0
O142 O 0.58387 0.51702 0.58122 0.0
O143 O 0.56145 0.4947 0.54509 0.0
O144 O 0.56587 0.55637 0.50583 0.0
O145 O 0.59573 0.57173 0.53933 0.0
C146 C 0.58782 0.57151 0.51423 0.0
O147 O 0.49436 0.53138 0.54125 0.0
O148 O 0.46685 0.51056 0.50807 0.0
C149 C 0.51837 0.56586 0.57993 0.0
C150 C 0.46987 0.52396 0.53157 0.0
Zn151 Zn 0.08319 0.53367 0.97749 0.0
Zn152 Zn 0.0116 0.485 0.05142 0.0
Zn153 Zn 0.04632 0.51146 0.01368 0.0
C154 C 0.06625 0.475 0.06328 0.0
C155 C 0.99709 0.46306 0.99672 0.0
O156 O 0.04018 0.55598 0.01577 0.0
O157 O 0.07065 0.57157 0.98436 0.0
C158 C 0.1143 0.51352 0.01726 0.0
O159 O 0.07116 0.48959 0.04196 0.0
O160 O 0.0418 0.47051 0.07254 0.0
O161 O 0.99103 0.45996 0.02218 0.0
O162 O 0.01682 0.48115 0.99002 0.0
O163 O 0.11799 0.52551 0.99481 0.0
O164 O 0.08958 0.50678 0.02639 0.0
O165 O 0.03568 0.49336 0.9707 0.0
O166 O 0.0697 0.51084 0.94389 0.0
C167 C 0.04769 0.49524 0.94658 0.0
O168 O 0.02446 0.54327 0.03761 0.0
O169 O 0.99601 0.51991 0.06615 0.0
C170 C 0.05159 0.57595 0.00202 0.0
C171 C 0.00584 0.54263 0.05714 0.0
H172 H 0.21139 0.12059 0.34962 0.0
H173 H 0.18019 0.09807 0.38349 0.0
H174 H 0.18091 0.17489 0.4345 0.0
H175 H 0.21229 0.19755 0.40086 0.0
H176 H 0.18518 0.13145 0.4664 0.0
H177 H 0.12597 0.15388 0.39407 0.0
H178 H 0.10989 0.15545 0.34559 0.0
H179 H 0.09926 0.06665 0.33675 0.0
H180 H 0.11565 0.06454 0.38508 0.0
H181 H 0.07668 0.07429 0.55328 0.0
H182 H 0.1035 0.10518 0.52265 0.0
H183 H 0.10154 0.0389 0.45742 0.0
H184 H 0.07214 0.00942 0.48684 0.0
H185 H 0.09558 0.08289 0.43415 0.0
H186 H 0.16017 0.0609 0.5051 0.0
H187 H 0.17596 0.05983 0.55381 0.0
H188 H 0.17581 0.14819 0.5654 0.0
H189 H 0.15985 0.14973 0.51681 0.0
C190 C 0.20503 0.13269 0.36809 0.0
C191 C 0.21425 0.16092 0.37243 0.0
C192 C 0.18708 0.11981 0.38738 0.0
C193 C 0.17791 0.13489 0.41135 0.0
C194 C 0.18764 0.16288 0.41612 0.0
C195 C 0.20554 0.1758 0.39681 0.0
C196 C 0.15795 0.12145 0.43124 0.0
C197 C 0.16543 0.1211 0.45945 0.0
C198 C 0.13222 0.10787 0.42218 0.0
C199 C 0.12226 0.10906 0.39313 0.0
C200 C 0.1204 0.13468 0.38172 0.0
C201 C 0.1112 0.13567 0.35428 0.0
C202 C 0.10362 0.11117 0.33808 0.0
C203 C 0.10516 0.08562 0.34932 0.0
C204 C 0.11438 0.08451 0.37675 0.0
C205 C 0.08091 0.06686 0.53201 0.0
C206 C 0.07135 0.03983 0.52224 0.0
C207 C 0.09701 0.08422 0.51471 0.0
C208 C 0.10497 0.07437 0.48767 0.0
C209 C 0.09565 0.0472 0.47806 0.0
C210 C 0.07897 0.03021 0.49503 0.0
C211 C 0.12321 0.09184 0.4692 0.0
C212 C 0.11531 0.09321 0.4412 0.0
C213 C 0.14855 0.1063 0.47847 0.0
C214 C 0.15864 0.1054 0.50745 0.0
C215 C 0.16345 0.08007 0.51809 0.0
C216 C 0.17243 0.07939 0.54566 0.0
C217 C 0.17684 0.10392 0.5627 0.0
C218 C 0.17239 0.12921 0.55218 0.0
C219 C 0.16343 0.13 0.52462 0.0
H220 H 0.18375 0.10334 0.58406 0.0
H221 H 0.09649 0.11198 0.31683 0.0
H222 H 0.37721 0.807 0.85675 0.0
H223 H 0.40075 0.83284 0.89642 0.0
H224 H 0.32825 0.87642 0.91435 0.0
H225 H 0.30453 0.85062 0.87462 0.0
H226 H 0.37347 0.91148 0.91379 0.0
H227 H 0.34784 0.82684 0.95646 0.0
H228 H 0.3443 0.7766 0.9618 0.0
H229 H 0.43302 0.77848 0.96333 0.0
H230 H 0.43713 0.82867 0.95752 0.0
H231 H 0.42008 0.98438 0.03623 0.0
H232 H 0.39295 0.94915 0.00654 0.0
H233 H 0.46642 0.90711 0.98827 0.0
H234 H 0.49351 0.94225 0.01863 0.0
H235 H 0.42134 0.87027 0.98939 0.0
H236 H 0.44661 0.95372 0.94467 0.0
H237 H 0.45086 0.00406 0.93979 0.0
H238 H 0.36226 0.0041 0.94263 0.0
H239 H 0.35749 0.95379 0.94794 0.0
C240 C 0.3661 0.82192 0.86923 0.0
C241 C 0.33899 0.82695 0.86214 0.0
C242 C 0.3796 0.83658 0.89207 0.0
C243 C 0.36625 0.85646 0.90858 0.0
C244 C 0.33902 0.86122 0.90189 0.0
C245 C 0.3255 0.84655 0.87899 0.0
C246 C 0.38132 0.87354 0.93159 0.0
C247 C 0.38333 0.90242 0.9307 0.0
C248 C 0.39517 0.86177 0.9531 0.0
C249 C 0.39279 0.83149 0.95619 0.0
C250 C 0.36661 0.8165 0.9576 0.0
C251 C 0.3645 0.78803 0.96079 0.0
C252 C 0.38842 0.77434 0.96281 0.0
C253 C 0.41451 0.7891 0.9617 0.0
C254 C 0.41674 0.81756 0.95846 0.0
C255 C 0.43025 0.96719 0.02646 0.0
C256 C 0.45882 0.96588 0.02973 0.0
C257 C 0.4148 0.94716 0.00938 0.0
C258 C 0.42779 0.9259 0.99453 0.0
C259 C 0.45597 0.9234 0.99938 0.0
C260 C 0.47141 0.94332 0.01687 0.0
C261 C 0.41251 0.90813 0.97215 0.0
C262 C 0.41088 0.87924 0.97285 0.0
C263 C 0.39893 0.91981 0.95042 0.0
C264 C 0.40171 0.95003 0.94697 0.0
C265 C 0.42804 0.96449 0.94444 0.0
C266 C 0.43054 0.99302 0.94158 0.0
C267 C 0.40685 0.00728 0.94097 0.0
C268 C 0.3806 0.99303 0.94314 0.0
C269 C 0.37798 0.96451 0.94606 0.0
H270 H 0.40882 0.02937 0.93876 0.0
H271 H 0.38674 0.75231 0.96531 0.0
H272 H 0.68333 0.34443 0.72586 0.0
H273 H 0.65529 0.36622 0.69331 0.0
H274 H 0.71492 0.35178 0.62724 0.0
H275 H 0.74337 0.33028 0.65988 0.0
H276 H 0.70073 0.40253 0.62714 0.0
H277 H 0.65124 0.31435 0.62656 0.0
H278 H 0.62733 0.27235 0.64494 0.0
H279 H 0.56709 0.32095 0.68619 0.0
H280 H 0.59074 0.36328 0.66814 0.0
H281 H 0.61159 0.46218 0.53663 0.0
H282 H 0.63541 0.42431 0.55393 0.0
H283 H 0.59305 0.43454 0.6335 0.0
H284 H 0.56886 0.47174 0.61591 0.0
H285 H 0.59924 0.37927 0.61793 0.0
H286 H 0.65605 0.46832 0.62315 0.0
H287 H 0.67987 0.50887 0.60185 0.0
H288 H 0.72685 0.4554 0.54845 0.0
H289 H 0.70303 0.41452 0.56923 0.0
C290 C 0.6905 0.34583 0.7044 0.0
C291 C 0.71565 0.33564 0.69552 0.0
C292 C 0.6743 0.3581 0.68571 0.0
C293 C 0.68273 0.36028 0.65764 0.0
C294 C 0.7079 0.35024 0.64873 0.0
C295 C 0.72416 0.33798 0.66745 0.0
C296 C 0.66591 0.3744 0.63819 0.0
C297 C 0.67865 0.397 0.62468 0.0
C298 C 0.63706 0.36733 0.63487 0.0
C299 C 0.62288 0.34201 0.64611 0.0
C300 C 0.63299 0.3161 0.63969 0.0
C301 C 0.61946 0.29223 0.65001 0.0
C302 C 0.59574 0.29398 0.66678 0.0
C303 C 0.58547 0.31962 0.6732 0.0
C304 C 0.5989 0.34356 0.66287 0.0
C305 C 0.60661 0.45546 0.55735 0.0
C306 C 0.58806 0.46932 0.57479 0.0
C307 C 0.62043 0.43413 0.56736 0.0
C308 C 0.61616 0.42674 0.59511 0.0
C309 C 0.59657 0.43976 0.61201 0.0
C310 C 0.58283 0.46103 0.60201 0.0
C311 C 0.63397 0.40778 0.60781 0.0
C312 C 0.62142 0.38433 0.62004 0.0
C313 C 0.66305 0.41382 0.60967 0.0
C314 C 0.67758 0.4384 0.59751 0.0
C315 C 0.67135 0.46523 0.60675 0.0
C316 C 0.68486 0.48826 0.59479 0.0
C317 C 0.70481 0.48471 0.57375 0.0
C318 C 0.71136 0.45812 0.56471 0.0
C319 C 0.69788 0.43502 0.57657 0.0
H320 H 0.71523 0.50257 0.56451 0.0
H321 H 0.58529 0.27547 0.67476 0.0
H322 H 0.94799 0.77166 0.19253 0.0
H323 H 0.97005 0.73439 0.16597 0.0
H324 H 0.88987 0.69006 0.15082 0.0
H325 H 0.86774 0.72676 0.17792 0.0
H326 H 0.96445 0.67504 0.17686 0.0
H327 H 0.89484 0.66684 0.07792 0.0
H328 H 0.87102 0.69729 0.04905 0.0
H329 H 0.92741 0.76661 0.07745 0.0
H330 H 0.9517 0.73658 0.10625 0.0
H331 H 0.95257 0.55325 0.06693 0.0
H332 H 0.93575 0.59531 0.08987 0.0
H333 H 0.01998 0.63146 0.09988 0.0
H334 H 0.03689 0.58958 0.07628 0.0
H335 H 0.94672 0.65309 0.07539 0.0
H336 H 0.01814 0.66398 0.17122 0.0
H337 H 0.04615 0.63517 0.1978 0.0
H338 H 0.99064 0.56344 0.17467 0.0
H339 H 0.96214 0.59187 0.14823 0.0
C340 C 0.93509 0.75391 0.18362 0.0
C341 C 0.90615 0.75206 0.18737 0.0
C342 C 0.94771 0.73268 0.16852 0.0
C343 C 0.93153 0.70964 0.15636 0.0
C344 C 0.90266 0.70779 0.15995 0.0
C345 C 0.89009 0.72869 0.17553 0.0
C346 C 0.94468 0.68717 0.14024 0.0
C347 C 0.96088 0.67042 0.15461 0.0
C348 C 0.93979 0.68113 0.11128 0.0
C349 C 0.92483 0.69949 0.09456 0.0
C350 C 0.90211 0.68859 0.07805 0.0
C351 C 0.88854 0.70578 0.06167 0.0
C352 C 0.89762 0.73389 0.06151 0.0
C353 C 0.92028 0.74487 0.07773 0.0
C354 C 0.93389 0.72779 0.09417 0.0
C355 C 0.96743 0.57031 0.07385 0.0
C356 C 0.99594 0.56839 0.06983 0.0
C357 C 0.95783 0.59429 0.08678 0.0
C358 C 0.97665 0.61639 0.09659 0.0
C359 C 0.00519 0.61459 0.09248 0.0
C360 C 0.01479 0.59075 0.07906 0.0
C361 C 0.96622 0.6408 0.11207 0.0
C362 C 0.95032 0.65776 0.09764 0.0
C363 C 0.97176 0.64727 0.14087 0.0
C364 C 0.98835 0.62999 0.15721 0.0
C365 C 0.01195 0.64205 0.17173 0.0
C366 C 0.02789 0.62579 0.18683 0.0
C367 C 0.02028 0.59745 0.18777 0.0
C368 C 0.99662 0.58536 0.17376 0.0
C369 C 0.98061 0.60153 0.15865 0.0
H370 H 0.03265 0.5849 0.19946 0.0
H371 H 0.88715 0.74715 0.04874 0.0
H372 H 0.33455 0.23749 0.21873 0.0
H373 H 0.36846 0.20709 0.19981 0.0
H374 H 0.32593 0.13884 0.24049 0.0
H375 H 0.29146 0.16923 0.25941 0.0
H376 H 0.38517 0.141 0.24339 0.0
H377 H 0.31484 0.14076 0.17459 0.0
H378 H 0.28263 0.16134 0.14445 0.0
H379 H 0.35132 0.20464 0.10353 0.0
H380 H 0.38395 0.18463 0.13372 0.0
H381 H 0.45982 0.04621 0.152 0.0
H382 H 0.42705 0.07003 0.18259 0.0
H383 H 0.4471 0.14469 0.13988 0.0
H384 H 0.47875 0.12064 0.10882 0.0
H385 H 0.39434 0.13308 0.13976 0.0
H386 H 0.46472 0.13523 0.21104 0.0
H387 H 0.49638 0.11525 0.24205 0.0
H388 H 0.42759 0.06777 0.27845 0.0
H389 H 0.39548 0.08722 0.24724 0.0
C390 C 0.33237 0.21607 0.22388 0.0
C391 C 0.31017 0.20588 0.24067 0.0
C392 C 0.35186 0.19871 0.21304 0.0
C393 C 0.34958 0.17065 0.21852 0.0
C394 C 0.32809 0.16048 0.23608 0.0
C395 C 0.30843 0.17793 0.24697 0.0
C396 C 0.36898 0.15203 0.20447 0.0
C397 C 0.38698 0.13885 0.22071 0.0
C398 C 0.37138 0.14939 0.17492 0.0
C399 C 0.35183 0.16134 0.15657 0.0
C400 C 0.32307 0.15483 0.15931 0.0
C401 C 0.30474 0.16636 0.14219 0.0
C402 C 0.31492 0.18432 0.12212 0.0
C403 C 0.34346 0.19073 0.11909 0.0
C404 C 0.36189 0.17927 0.13618 0.0
C405 C 0.45776 0.06793 0.1498 0.0
C406 C 0.47172 0.08162 0.12807 0.0
C407 C 0.43897 0.08154 0.16723 0.0
C408 C 0.43437 0.1092 0.16349 0.0
C409 C 0.44995 0.12329 0.14303 0.0
C410 C 0.46819 0.10961 0.12538 0.0
C411 C 0.41167 0.12296 0.1786 0.0
C412 C 0.39267 0.13504 0.16245 0.0
C413 C 0.40841 0.12444 0.20817 0.0
C414 C 0.42775 0.11247 0.22662 0.0
C415 C 0.45637 0.12033 0.22546 0.0
C416 C 0.47439 0.10914 0.24316 0.0
C417 C 0.46401 0.09024 0.26228 0.0
C418 C 0.43559 0.08242 0.26365 0.0
C419 C 0.41747 0.09352 0.24596 0.0
H420 H 0.47791 0.08166 0.27609 0.0
H421 H 0.30069 0.19324 0.10889 0.0
H422 H 0.24388 0.91973 0.75795 0.0
H423 H 0.20477 0.93751 0.73616 0.0
H424 H 0.14964 0.90306 0.79897 0.0
H425 H 0.18893 0.88469 0.82084 0.0
H426 H 0.12837 0.89105 0.74796 0.0
H427 H 0.16374 0.97324 0.79856 0.0
H428 H 0.1987 0.00973 0.81718 0.0
H429 H 0.21924 0.03196 0.73359 0.0
H430 H 0.1847 0.99534 0.7144 0.0
H431 H 0.02716 0.95011 0.66676 0.0
H432 H 0.05388 0.9407 0.70794 0.0
H433 H 0.12973 0.96713 0.66518 0.0
H434 H 0.10318 0.97772 0.62506 0.0
H435 H 0.13195 0.98687 0.71799 0.0
H436 H 0.10332 0.89606 0.66916 0.0
H437 H 0.06774 0.85958 0.65157 0.0
H438 H 0.03289 0.85521 0.73442 0.0
H439 H 0.06815 0.89184 0.75242 0.0
C440 C 0.22353 0.91612 0.76739 0.0
C441 C 0.21959 0.90076 0.79117 0.0
C442 C 0.20113 0.92648 0.75496 0.0
C443 C 0.17424 0.92197 0.7661 0.0
C444 C 0.17021 0.90692 0.79007 0.0
C445 C 0.1927 0.89652 0.80259 0.0
C446 C 0.15046 0.93169 0.75143 0.0
C447 C 0.12882 0.91218 0.74196 0.0
C448 C 0.15085 0.95926 0.74364 0.0
C449 C 0.17167 0.98142 0.75503 0.0
C450 C 0.17583 0.98578 0.78412 0.0
C451 C 0.19556 0.00651 0.79478 0.0
C452 C 0.2112 0.02313 0.77658 0.0
C453 C 0.2071 0.01908 0.74767 0.0
C454 C 0.18741 0.99836 0.73689 0.0
C455 C 0.04948 0.95447 0.66662 0.0
C456 C 0.06314 0.96519 0.64313 0.0
C457 C 0.06473 0.94877 0.68992 0.0
C458 C 0.09385 0.95313 0.68969 0.0
C459 C 0.10732 0.96381 0.66607 0.0
C460 C 0.09215 0.96968 0.64305 0.0
C461 C 0.11093 0.94585 0.71323 0.0
C462 C 0.13121 0.96591 0.72453 0.0
C463 C 0.10914 0.91888 0.72286 0.0
C464 C 0.0882 0.89675 0.71206 0.0
C465 C 0.088 0.88735 0.68358 0.0
C466 C 0.06792 0.86666 0.67355 0.0
C467 C 0.04808 0.85507 0.69187 0.0
C468 C 0.04831 0.86414 0.72027 0.0
C469 C 0.06832 0.88486 0.73039 0.0
H470 H 0.03251 0.8391 0.68407 0.0
H471 H 0.22647 0.03917 0.78488 0.0
H472 H 0.82965 0.36244 0.80024 0.0
H473 H 0.86569 0.38652 0.83044 0.0
H474 H 0.85793 0.31915 0.88482 0.0
H475 H 0.82203 0.29489 0.85465 0.0
H476 H 0.85851 0.36731 0.91451 0.0
H477 H 0.91265 0.32977 0.8394 0.0
H478 H 0.92947 0.32061 0.79105 0.0
H479 H 0.95272 0.40735 0.7851 0.0
H480 H 0.93534 0.41717 0.83317 0.0
H481 H 0.9753 0.40962 0.99835 0.0
H482 H 0.94448 0.38293 0.96421 0.0
H483 H 0.94964 0.45228 0.91231 0.0
H484 H 0.98005 0.47916 0.94688 0.0
H485 H 0.95149 0.40291 0.88092 0.0
H486 H 0.89452 0.44056 0.95441 0.0
H487 H 0.87938 0.44982 0.00337 0.0
H488 H 0.863 0.36256 0.01212 0.0
H489 H 0.87842 0.35277 0.9633 0.0
C490 C 0.8356 0.35266 0.81861 0.0
C491 C 0.82251 0.32681 0.82518 0.0
C492 C 0.85638 0.36643 0.83578 0.0
C493 C 0.86475 0.35459 0.85982 0.0
C494 C 0.85179 0.32877 0.86642 0.0
C495 C 0.83101 0.31497 0.84924 0.0
C496 C 0.88607 0.36963 0.8788 0.0
C497 C 0.87897 0.37469 0.90716 0.0
C498 C 0.91259 0.38002 0.86913 0.0
C499 C 0.92223 0.37425 0.83982 0.0
C500 C 0.92091 0.34697 0.82766 0.0
C501 C 0.93062 0.34165 0.8003 0.0
C502 C 0.942 0.3634 0.78496 0.0
C503 C 0.94375 0.39053 0.79695 0.0
C504 C 0.93392 0.39599 0.82425 0.0
C505 C 0.97007 0.41904 0.9795 0.0
C506 C 0.98052 0.44626 0.97488 0.0
C507 C 0.95243 0.40381 0.96005 0.0
C508 C 0.94456 0.41566 0.93579 0.0
C509 C 0.95558 0.44262 0.93077 0.0
C510 C 0.97322 0.45786 0.9503 0.0
C511 C 0.92383 0.40038 0.91641 0.0
C512 C 0.93099 0.39541 0.88809 0.0
C513 C 0.89734 0.39009 0.92599 0.0
C514 C 0.88788 0.39593 0.95529 0.0
C515 C 0.88789 0.42334 0.96684 0.0
C516 C 0.87922 0.42869 0.99456 0.0
C517 C 0.8703 0.40679 0.01087 0.0
C518 C 0.86995 0.3795 0.99947 0.0
C519 C 0.87863 0.37404 0.97177 0.0
H520 H 0.8636 0.41097 0.03232 0.0
H521 H 0.94951 0.35921 0.76381 0.0
H522 H 0.71007 0.73142 0.33389 0.0
H523 H 0.67797 0.70132 0.3606 0.0
H524 H 0.7449 0.68515 0.41375 0.0
H525 H 0.77722 0.71496 0.38697 0.0
H526 H 0.71285 0.63795 0.39736 0.0
H527 H 0.69728 0.73022 0.43692 0.0
H528 H 0.68576 0.77834 0.4344 0.0
H529 H 0.60751 0.74904 0.39704 0.0
H530 H 0.61882 0.70077 0.39892 0.0
H531 H 0.64372 0.58279 0.51367 0.0
H532 H 0.67176 0.61124 0.48182 0.0
H533 H 0.59775 0.62716 0.43913 0.0
H534 H 0.56953 0.59975 0.47184 0.0
H535 H 0.63056 0.67295 0.44596 0.0
H536 H 0.64246 0.58176 0.40983 0.0
H537 H 0.65209 0.53293 0.41067 0.0
H538 H 0.7352 0.55849 0.43776 0.0
H539 H 0.72585 0.60747 0.43747 0.0
C540 C 0.71799 0.7215 0.35128 0.0
C541 C 0.74622 0.72568 0.35834 0.0
C542 C 0.69957 0.70436 0.36659 0.0
C543 C 0.70898 0.6912 0.38934 0.0
C544 C 0.73718 0.69512 0.39627 0.0
C545 C 0.75562 0.71225 0.38099 0.0
C546 C 0.68954 0.67322 0.40594 0.0
C547 C 0.69503 0.64566 0.40826 0.0
C548 C 0.66564 0.68295 0.41918 0.0
C549 C 0.65892 0.71194 0.41797 0.0
C550 C 0.6777 0.73407 0.42802 0.0
C551 C 0.67121 0.76136 0.42671 0.0
C552 C 0.64593 0.76675 0.41555 0.0
C553 C 0.62708 0.74485 0.40569 0.0
C554 C 0.63349 0.71753 0.40691 0.0
C555 C 0.63346 0.59236 0.49742 0.0
C556 C 0.60452 0.58846 0.49464 0.0
C557 C 0.64951 0.60843 0.47908 0.0
C558 C 0.63695 0.62084 0.45753 0.0
C559 C 0.60795 0.61753 0.45524 0.0
C560 C 0.59187 0.60155 0.4737 0.0
C561 C 0.65418 0.63776 0.43793 0.0
C562 C 0.64824 0.66509 0.43493 0.0
C563 C 0.67746 0.62768 0.42372 0.0
C564 C 0.68334 0.59827 0.42384 0.0
C565 C 0.6627 0.57693 0.41615 0.0
C566 C 0.66813 0.54924 0.41651 0.0
C567 C 0.69424 0.5426 0.42432 0.0
C568 C 0.71498 0.56366 0.43173 0.0
C569 C 0.70962 0.5914 0.43145 0.0
H570 H 0.69842 0.52115 0.42459 0.0
H571 H 0.64094 0.78789 0.41456 0.0
H572 H 0.19765 0.29127 0.16866 0.0
H573 H 0.17512 0.31996 0.13765 0.0
H574 H 0.21752 0.39338 0.1789 0.0
H575 H 0.24083 0.36468 0.20935 0.0
H576 H 0.13965 0.35412 0.15121 0.0
H577 H 0.22176 0.44698 0.13664 0.0
H578 H 0.27235 0.45637 0.13112 0.0
H579 H 0.27819 0.37213 0.0998 0.0
H580 H 0.22756 0.36239 0.10461 0.0
H581 H 0.07121 0.46616 0.11832 0.0
H582 H 0.10474 0.43944 0.13939 0.0
H583 H 0.14493 0.427 0.05894 0.0
H584 H 0.11159 0.45423 0.03786 0.0
H585 H 0.18254 0.4323 0.09957 0.0
H586 H 0.0975 0.37745 0.08171 0.0
H587 H 0.04687 0.36592 0.08269 0.0
H588 H 0.04776 0.3693 0.17265 0.0
H589 H 0.09836 0.38125 0.17222 0.0
C590 C 0.20252 0.3135 0.17084 0.0
C591 C 0.22093 0.3257 0.19155 0.0
C592 C 0.1896 0.3299 0.15311 0.0
C593 C 0.19464 0.35888 0.1558 0.0
C594 C 0.21363 0.37108 0.17598 0.0
C595 C 0.22683 0.35463 0.19353 0.0
C596 C 0.17814 0.37628 0.1393 0.0
C597 C 0.14915 0.37119 0.13994 0.0
C598 C 0.19038 0.39834 0.12411 0.0
C599 C 0.22086 0.40393 0.12118 0.0
C600 C 0.23381 0.43051 0.12842 0.0
C601 C 0.2625 0.43589 0.12544 0.0
C602 C 0.27849 0.41484 0.11519 0.0
C603 C 0.2658 0.38839 0.10783 0.0
C604 C 0.2371 0.38292 0.1107 0.0
C605 C 0.08746 0.45807 0.10523 0.0
C606 C 0.0888 0.46219 0.07646 0.0
C607 C 0.10654 0.44273 0.11724 0.0
C608 C 0.12691 0.43059 0.1006 0.0
C609 C 0.1293 0.43602 0.07216 0.0
C610 C 0.11033 0.45168 0.06016 0.0
C611 C 0.14425 0.41077 0.11263 0.0
C612 C 0.17323 0.41527 0.11097 0.0
C613 C 0.1321 0.38786 0.12656 0.0
C614 C 0.10169 0.38044 0.12693 0.0
C615 C 0.08687 0.3759 0.1017 0.0
C616 C 0.05818 0.36927 0.10216 0.0
C617 C 0.0441 0.36693 0.12772 0.0
C618 C 0.05869 0.37114 0.15287 0.0
C619 C 0.08738 0.37781 0.15253 0.0
H620 H 0.02189 0.36181 0.12803 0.0
H621 H 0.3007 0.41903 0.11291 0.0
H622 H 0.75594 0.22364 0.95802 0.0
H623 H 0.72441 0.18935 0.98054 0.0
H624 H 0.68915 0.1612 0.90013 0.0
H625 H 0.72027 0.19541 0.87755 0.0
H626 H 0.64994 0.17218 0.93928 0.0
H627 H 0.73422 0.12707 0.93442 0.0
H628 H 0.78325 0.12282 0.94449 0.0
H629 H 0.76439 0.12153 0.03237 0.0
H630 H 0.71554 0.12755 0.02313 0.0
H631 H 0.5596 0.0614 0.97829 0.0
H632 H 0.59889 0.08646 0.95559 0.0
H633 H 0.63778 0.10599 0.03607 0.0
H634 H 0.5988 0.08004 0.05868 0.0
H635 H 0.67639 0.09851 0.99749 0.0
H636 H 0.59825 0.15194 0.00627 0.0
H637 H 0.54954 0.1614 0.00099 0.0
H638 H 0.55763 0.15026 0.91145 0.0
H639 H 0.60631 0.14036 0.91622 0.0
C640 C 0.74161 0.21001 0.94509 0.0
C641 C 0.74059 0.21239 0.91596 0.0
C642 C 0.72368 0.19034 0.958 0.0
C643 C 0.7045 0.17258 0.94201 0.0
C644 C 0.70377 0.17466 0.9129 0.0
C645 C 0.72163 0.19426 0.90001 0.0
C646 C 0.68399 0.1529 0.95552 0.0
C647 C 0.65581 0.15583 0.95166 0.0
C648 C 0.69165 0.13221 0.97263 0.0
C649 C 0.72112 0.12825 0.97806 0.0
C650 C 0.74053 0.12647 0.95597 0.0
C651 C 0.76836 0.1238 0.96155 0.0
C652 C 0.77693 0.12191 0.98904 0.0
C653 C 0.75773 0.123 0.01107 0.0
C654 C 0.73 0.12625 0.00568 0.0
C655 C 0.57674 0.07075 0.99104 0.0
C656 C 0.57618 0.06894 0.0202 0.0
C657 C 0.59915 0.08511 0.9781 0.0
C658 C 0.62103 0.09874 0.99417 0.0
C659 C 0.62113 0.09579 0.0232 0.0
C660 C 0.59885 0.08102 0.03611 0.0
C661 C 0.64248 0.1178 0.98102 0.0
C662 C 0.67069 0.11482 0.98498 0.0
C663 C 0.63504 0.13903 0.96458 0.0
C664 C 0.60582 0.14514 0.96162 0.0
C665 C 0.58958 0.15133 0.98547 0.0
C666 C 0.56199 0.15679 0.98256 0.0
C667 C 0.55048 0.15636 0.9559 0.0
C668 C 0.56657 0.15055 0.93208 0.0
C669 C 0.59416 0.14502 0.93487 0.0
H670 H 0.52911 0.1606 0.9537 0.0
H671 H 0.79843 0.11954 0.99325 0.0
H672 H 0.9129 0.84829 0.31563 0.0
H673 H 0.92644 0.868 0.36207 0.0
H674 H 0.84994 0.8316 0.3966 0.0
H675 H 0.83528 0.81376 0.34972 0.0
H676 H 0.85915 0.8797 0.41977 0.0
H677 H 0.915 0.80518 0.40609 0.0
H678 H 0.94734 0.77498 0.38191 0.0
H679 H 0.01051 0.84301 0.38259 0.0
H680 H 0.97844 0.87374 0.40644 0.0
H681 H 0.96736 0.89939 0.54378 0.0
H682 H 0.93886 0.87224 0.50817 0.0
H683 H 0.91821 0.94742 0.47416 0.0
H684 H 0.94703 0.97477 0.50982 0.0
H685 H 0.95377 0.8734 0.45516 0.0
H686 H 0.85197 0.928 0.4363 0.0
H687 H 0.81319 0.9464 0.46321 0.0
H688 H 0.8359 0.90614 0.53532 0.0
H689 H 0.87431 0.88674 0.5087 0.0
C690 C 0.89892 0.8443 0.33307 0.0
C691 C 0.87325 0.82861 0.32886 0.0
C692 C 0.90685 0.85543 0.35976 0.0
C693 C 0.88959 0.85074 0.38312 0.0
C694 C 0.86384 0.83525 0.37902 0.0
C695 C 0.85567 0.82448 0.35215 0.0
C696 C 0.89819 0.86284 0.41151 0.0
C697 C 0.87985 0.87843 0.42756 0.0
C698 C 0.92481 0.8602 0.42222 0.0
C699 C 0.94423 0.84181 0.40787 0.0
C700 C 0.93573 0.81375 0.40091 0.0
C701 C 0.95402 0.79653 0.38729 0.0
C702 C 0.98094 0.80708 0.38067 0.0
C703 C 0.98965 0.83487 0.38771 0.0
C704 C 0.97143 0.85219 0.40132 0.0
C705 C 0.95608 0.91016 0.52922 0.0
C706 C 0.95929 0.93917 0.52964 0.0
C707 C 0.93979 0.89463 0.50888 0.0
C708 C 0.92644 0.90776 0.4884 0.0
C709 C 0.92801 0.93684 0.48995 0.0
C710 C 0.94443 0.95246 0.51037 0.0
C711 C 0.91506 0.89121 0.46312 0.0
C712 C 0.93301 0.8748 0.44752 0.0
C713 C 0.88774 0.89235 0.45346 0.0
C714 C 0.86639 0.90616 0.4705 0.0
C715 C 0.8488 0.92309 0.45792 0.0
C716 C 0.82676 0.9336 0.4731 0.0
C717 C 0.82208 0.92739 0.50092 0.0
C718 C 0.83962 0.91096 0.51376 0.0
C719 C 0.86163 0.9003 0.49865 0.0
H720 H 0.80476 0.93518 0.51247 0.0
H721 H 0.99507 0.79371 0.37013 0.0
H722 H 0.32763 0.68085 0.73252 0.0
H723 H 0.35191 0.64922 0.70126 0.0
H724 H 0.41886 0.71297 0.69216 0.0
H725 H 0.39397 0.7451 0.72237 0.0
H726 H 0.41121 0.68911 0.64485 0.0
H727 H 0.41751 0.65215 0.73676 0.0
H728 H 0.39807 0.63287 0.77999 0.0
H729 H 0.35317 0.56641 0.731 0.0
H730 H 0.37223 0.5854 0.68752 0.0
H731 H 0.51534 0.57894 0.63586 0.0
H732 H 0.48054 0.60416 0.66151 0.0
H733 H 0.43627 0.60881 0.58458 0.0
H734 H 0.47203 0.58472 0.5586 0.0
H735 H 0.42688 0.59492 0.67081 0.0
H736 H 0.40623 0.66993 0.58834 0.0
H737 H 0.42874 0.69021 0.54693 0.0
H738 H 0.50886 0.68293 0.58136 0.0
H739 H 0.48681 0.66292 0.62308 0.0
C740 C 0.34755 0.6881 0.72385 0.0
C741 C 0.35896 0.71544 0.72997 0.0
C742 C 0.36146 0.66993 0.70593 0.0
C743 C 0.38743 0.67841 0.69434 0.0
C744 C 0.39881 0.70579 0.70057 0.0
C745 C 0.38464 0.72416 0.718 0.0
C746 C 0.4029 0.65907 0.67573 0.0
C747 C 0.41456 0.66852 0.65065 0.0
C748 C 0.4071 0.63191 0.68276 0.0
C749 C 0.39601 0.62036 0.70893 0.0
C750 C 0.40339 0.63349 0.73524 0.0
C751 C 0.39247 0.6226 0.75978 0.0
C752 C 0.37432 0.59848 0.75824 0.0
C753 C 0.36718 0.58511 0.73217 0.0
C754 C 0.37806 0.59591 0.70759 0.0
C755 C 0.49815 0.5853 0.62443 0.0
C756 C 0.49617 0.57959 0.59531 0.0
C757 C 0.47815 0.59951 0.63913 0.0
C758 C 0.4558 0.60849 0.62501 0.0
C759 C 0.45344 0.60232 0.59592 0.0
C760 C 0.47369 0.5883 0.58114 0.0
C761 C 0.43609 0.62555 0.64085 0.0
C762 C 0.42333 0.61549 0.66509 0.0
C763 C 0.43137 0.65234 0.6334 0.0
C764 C 0.44487 0.66466 0.60862 0.0
C765 C 0.42865 0.67274 0.58707 0.0
C766 C 0.44132 0.68417 0.56355 0.0
C767 C 0.47021 0.68776 0.56147 0.0
C768 C 0.48649 0.68004 0.58295 0.0
C769 C 0.47392 0.66864 0.60652 0.0
H770 H 0.47998 0.69658 0.54323 0.0
H771 H 0.36586 0.59011 0.77726 0.0
H772 H 0.00983 0.94892 0.91053 0.0
H773 H 0.01777 0.96021 0.86183 0.0
H774 H 0.92975 0.94882 0.84709 0.0
H775 H 0.92164 0.93749 0.89589 0.0
H776 H 0.96336 0.92108 0.80576 0.0
H777 H 0.95823 0.01154 0.85373 0.0
H778 H 0.9716 0.04901 0.88977 0.0
H779 H 0.05544 0.05367 0.85885 0.0
H780 H 0.04263 0.01592 0.82286 0.0
H781 H 0.94718 0.98268 0.67951 0.0
H782 H 0.94618 0.96835 0.72748 0.0
H783 H 0.03333 0.99506 0.73559 0.0
H784 H 0.03407 0.01014 0.68747 0.0
H785 H 0.00494 0.01318 0.78036 0.0
H786 H 0.01117 0.92654 0.73056 0.0
H787 H 0.99976 0.88932 0.69377 0.0
H788 H 0.91772 0.87539 0.72817 0.0
H789 H 0.92835 0.91325 0.7646 0.0
C790 C 0.99214 0.94898 0.89695 0.0
C791 C 0.96507 0.94271 0.9071 0.0
C792 C 0.99673 0.95547 0.86918 0.0
C793 C 0.97435 0.95548 0.85095 0.0
C794 C 0.94728 0.94902 0.86092 0.0
C795 C 0.94265 0.94288 0.88886 0.0
C796 C 0.97926 0.96197 0.8214 0.0
C797 C 0.97214 0.94129 0.80012 0.0
C798 C 0.99185 0.98797 0.81423 0.0
C799 C 0.99954 0.0107 0.83581 0.0
C800 C 0.97957 0.02037 0.85479 0.0
C801 C 0.98703 0.0417 0.87517 0.0
C802 C 0.01437 0.05366 0.87665 0.0
C803 C 0.03428 0.04436 0.8577 0.0
C804 C 0.02693 0.02301 0.8373 0.0
C805 C 0.96618 0.98511 0.69145 0.0
C806 C 0.99086 0.99682 0.67976 0.0
C807 C 0.96564 0.97684 0.71878 0.0
C808 C 0.98978 0.98017 0.735 0.0
C809 C 0.01451 0.99209 0.72337 0.0
C810 C 0.01501 0.00044 0.69591 0.0
C811 C 0.98849 0.97246 0.76452 0.0
C812 C 0.99637 0.99286 0.78587 0.0
C813 C 0.97698 0.94605 0.77176 0.0
C814 C 0.97051 0.92295 0.75016 0.0
C815 C 0.99062 0.91574 0.73011 0.0
C816 C 0.9843 0.89449 0.70934 0.0
C817 C 0.95805 0.87995 0.70866 0.0
C818 C 0.93806 0.88668 0.72873 0.0
C819 C 0.94421 0.90807 0.74942 0.0
H820 H 0.95321 0.86347 0.69259 0.0
H821 H 0.02011 0.07018 0.89244 0.0
H822 H 0.60876 0.09774 0.39635 0.0
H823 H 0.59079 0.10023 0.34912 0.0
H824 H 0.52882 0.03291 0.36355 0.0
H825 H 0.54779 0.02948 0.41005 0.0
H826 H 0.55036 0.02224 0.31693 0.0
H827 H 0.51438 0.10404 0.35743 0.0
H828 H 0.51535 0.14949 0.38393 0.0
H829 H 0.5734 0.18447 0.32452 0.0
H830 H 0.57309 0.13911 0.29787 0.0
H831 H 0.48898 0.02081 0.18759 0.0
H832 H 0.49067 0.0347 0.23791 0.0
H833 H 0.56516 0.08809 0.22469 0.0
H834 H 0.56324 0.0744 0.17445 0.0
H835 H 0.53406 0.10745 0.27096 0.0
H836 H 0.57163 0.02317 0.23427 0.0
H837 H 0.5689 0.97769 0.20765 0.0
H838 H 0.50318 0.94736 0.26178 0.0
H839 H 0.50523 0.99287 0.28843 0.0
C840 C 0.591 0.08385 0.38955 0.0
C841 C 0.57963 0.06344 0.40681 0.0
C842 C 0.58061 0.08534 0.36257 0.0
C843 C 0.55816 0.06694 0.35267 0.0
C844 C 0.5462 0.04728 0.37049 0.0
C845 C 0.557 0.04535 0.39711 0.0
C846 C 0.54865 0.06645 0.32308 0.0
C847 C 0.54603 0.04088 0.30727 0.0
C848 C 0.54371 0.09074 0.30991 0.0
C849 C 0.5439 0.11809 0.3258 0.0
C850 C 0.52751 0.12137 0.35013 0.0
C851 C 0.52792 0.14713 0.36516 0.0
C852 C 0.54448 0.16983 0.35595 0.0
C853 C 0.56061 0.16685 0.33164 0.0
C854 C 0.5603 0.14112 0.31655 0.0
C855 C 0.50477 0.03665 0.19528 0.0
C856 C 0.52585 0.04676 0.1773 0.0
C857 C 0.50592 0.04438 0.22403 0.0
C858 C 0.52841 0.06197 0.2351 0.0
C859 C 0.54767 0.07448 0.21664 0.0
C860 C 0.54651 0.06674 0.18793 0.0
C861 C 0.53475 0.06323 0.2655 0.0
C862 C 0.53747 0.08886 0.28113 0.0
C863 C 0.53926 0.03898 0.27879 0.0
C864 C 0.53839 0.01147 0.26314 0.0
C865 C 0.5565 0.00684 0.24038 0.0
C866 C 0.55507 0.98107 0.22529 0.0
C867 C 0.53584 0.95966 0.23298 0.0
C868 C 0.51804 0.96397 0.25582 0.0
C869 C 0.51932 0.98975 0.27093 0.0
H870 H 0.53476 0.93972 0.22127 0.0
H871 H 0.54477 0.18976 0.36763 0.0
H872 H 0.58869 0.60803 0.2077 0.0
H873 H 0.59808 0.60205 0.25705 0.0
H874 H 0.51206 0.6097 0.27764 0.0
H875 H 0.50247 0.61551 0.2285 0.0
H876 H 0.54867 0.63976 0.31594 0.0
H877 H 0.53462 0.54741 0.26864 0.0
H878 H 0.54548 0.51063 0.23309 0.0
H879 H 0.62841 0.51404 0.26437 0.0
H880 H 0.61811 0.55113 0.2999 0.0
H881 H 0.505 0.56992 0.43257 0.0
H882 H 0.51635 0.59095 0.38864 0.0
H883 H 0.59863 0.56405 0.39057 0.0
H884 H 0.58713 0.54286 0.43511 0.0
H885 H 0.5763 0.54932 0.34199 0.0
H886 H 0.59034 0.63751 0.39213 0.0
H887 H 0.58078 0.67448 0.42819 0.0
H888 H 0.50142 0.68052 0.3916 0.0
H889 H 0.51029 0.64323 0.35576 0.0
C890 C 0.57182 0.60866 0.22279 0.0
C891 C 0.54479 0.61211 0.21418 0.0
C892 C 0.57723 0.60518 0.25094 0.0
C893 C 0.55574 0.60531 0.27095 0.0
C894 C 0.52895 0.60959 0.26253 0.0
C895 C 0.52348 0.61279 0.23441 0.0
C896 C 0.56058 0.59987 0.30052 0.0
C897 C 0.55473 0.62 0.32169 0.0
C898 C 0.56956 0.57454 0.30799 0.0
C899 C 0.57572 0.55228 0.28664 0.0
C900 C 0.55524 0.5405 0.26776 0.0
C901 C 0.56128 0.51956 0.24765 0.0
C902 C 0.58765 0.51007 0.2464 0.0
C903 C 0.60802 0.52146 0.26532 0.0
C904 C 0.60209 0.54243 0.28544 0.0
C905 C 0.52578 0.5692 0.42401 0.0
C906 C 0.5453 0.55509 0.43723 0.0
C907 C 0.53237 0.58143 0.39899 0.0
C908 C 0.55861 0.5797 0.38648 0.0
C909 C 0.57846 0.56612 0.40008 0.0
C910 C 0.57191 0.55403 0.42543 0.0
C911 C 0.56349 0.58889 0.35763 0.0
C912 C 0.57108 0.56944 0.33644 0.0
C913 C 0.55641 0.61498 0.35013 0.0
C914 C 0.55085 0.63736 0.37158 0.0
C915 C 0.57072 0.64651 0.39207 0.0
C916 C 0.56546 0.66756 0.41238 0.0
C917 C 0.5405 0.67978 0.41222 0.0
C918 C 0.52074 0.67101 0.39172 0.0
C919 C 0.52588 0.64993 0.3714 0.0
H920 H 0.53649 0.69609 0.42794 0.0
H921 H 0.59229 0.49385 0.23083 0.0
H922 H 0.103 0.43336 0.70188 0.0
H923 H 0.07934 0.42843 0.74708 0.0
H924 H 0.03994 0.50306 0.73697 0.0
H925 H 0.06371 0.50817 0.69202 0.0
H926 H 0.06596 0.50706 0.78401 0.0
H927 H 0.00229 0.43884 0.73846 0.0
H928 H 0.98623 0.39682 0.7092 0.0
H929 H 0.02437 0.34664 0.76509 0.0
H930 H 0.04107 0.3884 0.79447 0.0
H931 H 0.00804 0.51221 0.91469 0.0
H932 H 0.00176 0.49938 0.86463 0.0
H933 H 0.0572 0.43552 0.86963 0.0
H934 H 0.06303 0.44806 0.9199 0.0
H935 H 0.01588 0.42511 0.82425 0.0
H936 H 0.08693 0.49526 0.86282 0.0
H937 H 0.10161 0.53721 0.89291 0.0
H938 H 0.04732 0.5837 0.84876 0.0
H939 H 0.03201 0.54184 0.81869 0.0
C940 C 0.08863 0.4482 0.70888 0.0
C941 C 0.08517 0.47112 0.69338 0.0
C942 C 0.07507 0.44537 0.73475 0.0
C943 C 0.05769 0.46529 0.74542 0.0
C944 C 0.05323 0.48742 0.72923 0.0
C945 C 0.06692 0.49038 0.70358 0.0
C946 C 0.0474 0.46539 0.77489 0.0
C947 C 0.05445 0.48927 0.79248 0.0
C948 C 0.03292 0.44202 0.78632 0.0
C949 C 0.02324 0.41684 0.7685 0.0
C950 C 0.00756 0.41889 0.74435 0.0
C951 C 0.99828 0.3951 0.72776 0.0
C952 C 0.00441 0.36909 0.73519 0.0
C953 C 0.01973 0.36681 0.7593 0.0
C954 C 0.02909 0.39054 0.77594 0.0
C955 C 0.01751 0.49436 0.90541 0.0
C956 C 0.03572 0.48084 0.92101 0.0
C957 C 0.014 0.48709 0.87682 0.0
C958 C 0.02932 0.46675 0.8634 0.0
C959 C 0.04507 0.45115 0.87963 0.0
C960 C 0.04843 0.45832 0.9083 0.0
C961 C 0.03451 0.46668 0.83279 0.0
C962 C 0.02687 0.4429 0.81528 0.0
C963 C 0.04843 0.49012 0.82117 0.0
C964 C 0.05814 0.51541 0.83874 0.0
C965 C 0.07803 0.5144 0.85965 0.0
C966 C 0.08646 0.53815 0.87669 0.0
C967 C 0.07535 0.56309 0.8728 0.0
C968 C 0.05587 0.56435 0.85178 0.0
C969 C 0.04731 0.54064 0.83473 0.0
H970 H 0.08188 0.58145 0.88604 0.0
H971 H 0.99716 0.35069 0.72235 0.0
H972 H 0.79211 0.97173 0.91213 0.0
H973 H 0.74947 0.9873 0.9335 0.0
H974 H 0.79665 0.02908 0.00228 0.0
H975 H 0.83924 0.01366 0.98121 0.0
H976 H 0.7541 0.99209 0.01876 0.0
H977 H 0.76896 0.06226 0.95353 0.0
H978 H 0.77498 0.08098 0.90714 0.0
H979 H 0.6929 0.04689 0.88433 0.0
H980 H 0.68673 0.02688 0.93011 0.0
H981 H 0.64238 0.03655 0.0957 0.0
H982 H 0.68579 0.04106 0.06886 0.0
H983 H 0.64152 0.01206 0.99317 0.0
H984 H 0.59785 0.00911 0.01988 0.0
H985 H 0.6836 0.04627 0.98002 0.0
H986 H 0.67218 0.96712 0.03485 0.0
H987 H 0.6638 0.9423 0.07784 0.0
H988 H 0.7362 0.98683 0.1153 0.0
H989 H 0.7448 0.01218 0.07263 0.0
C990 C 0.79348 0.9846 0.93157 0.0
C991 C 0.81908 0.99121 0.94509 0.0
C992 C 0.76909 0.99358 0.94369 0.0
C993 C 0.76991 0.00936 0.96946 0.0
C994 C 0.79556 0.0169 0.98238 0.0
C995 C 0.8199 0.00804 0.97029 0.0
C996 C 0.74397 0.01562 0.98449 0.0
C997 C 0.73893 0.00436 0.01046 0.0
C998 C 0.72367 0.0307 0.97305 0.0
C999 C 0.7275 0.04274 0.94535 0.0
C1000 C 0.75233 0.05828 0.93852 0.0
C1001 C 0.75577 0.06917 0.91228 0.0
C1002 C 0.73435 0.06513 0.8928 0.0
C1003 C 0.70949 0.05003 0.89945 0.0
C1004 C 0.70605 0.03883 0.92553 0.0
C1005 C 0.64195 0.03174 0.07323 0.0
C1006 C 0.61701 0.02224 0.0598 0.0
C1007 C 0.6667 0.03423 0.05791 0.0
C1008 C 0.66709 0.02606 0.02911 0.0
C1009 C 0.64183 0.01829 0.01537 0.0
C1010 C 0.61693 0.01648 0.03062 0.0
C1011 C 0.69384 0.02262 0.01416 0.0
C1012 C 0.69898 0.03426 0.9883 0.0
C1013 C 0.71398 0.00704 0.02506 0.0
C1014 C 0.70895 0.99175 0.05069 0.0
C1015 C 0.68621 0.97173 0.05233 0.0
C1016 C 0.68143 0.95756 0.07663 0.0
C1017 C 0.69942 0.96304 0.09932 0.0
C1018 C 0.72226 0.98265 0.09773 0.0
C1019 C 0.7271 0.99691 0.0735 0.0
H1020 H 0.69569 0.95205 0.11811 0.0
H1021 H 0.737 0.07374 0.87257 0.0
H1022 H 0.68865 0.96879 0.49512 0.0
H1023 H 0.73718 0.96099 0.50242 0.0
H1024 H 0.76158 0.04716 0.49173 0.0
H1025 H 0.71324 0.05516 0.48448 0.0
H1026 H 0.79773 0.01169 0.46518 0.0
H1027 H 0.75205 0.02608 0.55557 0.0
H1028 H 0.71631 0.01532 0.59142 0.0
H1029 H 0.7421 0.93341 0.59376 0.0
H1030 H 0.77777 0.94358 0.55766 0.0
H1031 H 0.9186 0.0527 0.54216 0.0
H1032 H 0.87283 0.04458 0.52098 0.0
H1033 H 0.86723 0.95969 0.54292 0.0
H1034 H 0.91328 0.96793 0.56446 0.0
H1035 H 0.82179 0.98525 0.5595 0.0
H1036 H 0.87524 0.97566 0.47694 0.0
H1037 H 0.91088 0.98657 0.44125 0.0
H1038 H 0.872 0.05918 0.42378 0.0
H1039 H 0.83616 0.04888 0.45956 0.0
C1040 C 0.70439 0.98601 0.49399 0.0
C1041 C 0.69708 0.01266 0.48944 0.0
C1042 C 0.73208 0.98151 0.4982 0.0
C1043 C 0.75292 0.00354 0.49782 0.0
C1044 C 0.74581 0.02987 0.49207 0.0
C1045 C 0.71815 0.03443 0.48808 0.0
C1046 C 0.78187 0.99985 0.50525 0.0
C1047 C 0.80312 0.00602 0.4858 0.0
C1048 C 0.78867 0.99155 0.53186 0.0
C1049 C 0.76729 0.98546 0.55361 0.0
C1050 C 0.74992 0.00569 0.56354 0.0
C1051 C 0.72971 0.99972 0.58395 0.0
C1052 C 0.72685 0.97366 0.59478 0.0
C1053 C 0.74427 0.95355 0.58529 0.0
C1054 C 0.76449 0.95941 0.56485 0.0
C1055 C 0.9078 0.03216 0.54197 0.0
C1056 C 0.91947 0.01082 0.5546 0.0
C1057 C 0.88172 0.0275 0.52977 0.0
C1058 C 0.86673 0.00144 0.53006 0.0
C1059 C 0.87857 0.97987 0.54223 0.0
C1060 C 0.90487 0.98451 0.55434 0.0
C1061 C 0.83789 0.99778 0.51965 0.0
C1062 C 0.81657 0.99042 0.53863 0.0
C1063 C 0.83112 0.00497 0.49256 0.0
C1064 C 0.85283 0.01139 0.47102 0.0
C1065 C 0.87422 0.99397 0.46557 0.0
C1066 C 0.89451 1.00007 0.4453 0.0
C1067 C 0.8937 0.02354 0.43024 0.0
C1068 C 0.87257 0.04097 0.43542 0.0
C1069 C 0.8522 0.03495 0.45567 0.0
H1070 H 0.90945 0.02824 0.41456 0.0
H1071 H 0.71121 0.96908 0.61059 0.0
H1072 H 0.36887 0.55646 0.08385 0.0
H1073 H 0.32279 0.53306 0.0746 0.0
H1074 H 0.28555 0.60259 0.11538 0.0
H1075 H 0.33171 0.62638 0.12463 0.0
H1076 H 0.25937 0.54815 0.12811 0.0
H1077 H 0.28951 0.6009 0.04891 0.0
H1078 H 0.3223 0.61478 0.01141 0.0
H1079 H 0.31801 0.53073 0.97638 0.0
H1080 H 0.28548 0.5163 0.01394 0.0
H1081 H 0.12507 0.53863 0.06853 0.0
H1082 H 0.1705 0.54693 0.09042 0.0
H1083 H 0.20377 0.49107 0.02696 0.0
H1084 H 0.15872 0.48495 0.00374 0.0
H1085 H 0.23391 0.53447 0.02772 0.0
H1086 H 0.19839 0.482 0.10301 0.0
H1087 H 0.1659 0.46767 0.14069 0.0
H1088 H 0.18014 0.54811 0.18357 0.0
H1089 H 0.21234 0.56312 0.14607 0.0
C1090 C 0.35093 0.56675 0.0911 0.0
C1091 C 0.35397 0.59343 0.10476 0.0
C1092 C 0.32461 0.55328 0.08584 0.0
C1093 C 0.30081 0.56613 0.09424 0.0
C1094 C 0.3037 0.59229 0.10884 0.0
C1095 C 0.33007 0.60592 0.11391 0.0
C1096 C 0.27301 0.55329 0.08566 0.0
C1097 C 0.25355 0.5452 0.10621 0.0
C1098 C 0.2659 0.54878 0.05706 0.0
C1099 C 0.28532 0.55748 0.0344 0.0
C1100 C 0.29575 0.58535 0.03334 0.0
C1101 C 0.31425 0.59332 0.01206 0.0
C1102 C 0.3223 0.57364 0.99157 0.0
C1103 C 0.3118 0.54595 0.99229 0.0
C1104 C 0.29332 0.53787 0.01356 0.0
C1105 C 0.14194 0.52747 0.05987 0.0
C1106 C 0.13862 0.51118 0.03457 0.0
C1107 C 0.16797 0.53209 0.07247 0.0
C1108 C 0.19086 0.51962 0.06049 0.0
C1109 C 0.18665 0.5012 0.03654 0.0
C1110 C 0.1609 0.49747 0.02338 0.0
C1111 C 0.21959 0.52891 0.07014 0.0
C1112 C 0.23945 0.53666 0.04971 0.0
C1113 C 0.22698 0.53278 0.09887 0.0
C1114 C 0.20771 0.52372 0.12159 0.0
C1115 C 0.19445 0.49668 0.12038 0.0
C1116 C 0.1761 0.48843 0.14169 0.0
C1117 C 0.17094 0.50695 0.16442 0.0
C1118 C 0.18416 0.53377 0.16594 0.0
C1119 C 0.2025 0.54215 0.14468 0.0
H1120 H 0.15672 0.5005 0.18088 0.0
H1121 H 0.33662 0.57985 0.9751 0.0
H1122 H 0.22751 0.47682 0.63272 0.0
H1123 H 0.27795 0.48108 0.62774 0.0
H1124 H 0.27648 0.56653 0.60937 0.0
H1125 H 0.22617 0.56265 0.61539 0.0
H1126 H 0.30464 0.48888 0.58229 0.0
H1127 H 0.33761 0.60273 0.62021 0.0
H1128 H 0.32394 0.63742 0.65662 0.0
H1129 H 0.29452 0.5727 0.70916 0.0
H1130 H 0.30793 0.53758 0.67298 0.0
H1131 H 0.42152 0.53716 0.5111 0.0
H1132 H 0.37739 0.53962 0.53606 0.0
H1133 H 0.41681 0.52581 0.61344 0.0
H1134 H 0.46133 0.52318 0.58834 0.0
H1135 H 0.37323 0.56473 0.61851 0.0
H1136 H 0.38805 0.47227 0.5828 0.0
H1137 H 0.40121 0.43709 0.54658 0.0
H1138 H 0.33576 0.45635 0.4938 0.0
H1139 H 0.32249 0.49198 0.52954 0.0
C1140 C 0.238 0.49668 0.62817 0.0
C1141 C 0.22285 0.51936 0.62429 0.0
C1142 C 0.26685 0.49909 0.62533 0.0
C1143 C 0.28116 0.52415 0.61829 0.0
C1144 C 0.26611 0.54712 0.61539 0.0
C1145 C 0.23726 0.54482 0.61864 0.0
C1146 C 0.31115 0.52527 0.61077 0.0
C1147 C 0.31959 0.50533 0.59056 0.0
C1148 C 0.33091 0.54659 0.62154 0.0
C1149 C 0.32356 0.56753 0.64378 0.0
C1150 C 0.32832 0.59589 0.63958 0.0
C1151 C 0.3205 0.61563 0.66012 0.0
C1152 C 0.30824 0.60726 0.68515 0.0
C1153 C 0.30384 0.57914 0.68969 0.0
C1154 C 0.31146 0.5593 0.66913 0.0
C1155 C 0.4209 0.53516 0.53353 0.0
C1156 C 0.44474 0.52991 0.54782 0.0
C1157 C 0.39574 0.53667 0.54777 0.0
C1158 C 0.39384 0.53261 0.5765 0.0
C1159 C 0.41793 0.52904 0.59126 0.0
C1160 C 0.44326 0.52751 0.57694 0.0
C1161 C 0.36612 0.52869 0.58983 0.0
C1162 C 0.3582 0.54808 0.61084 0.0
C1163 C 0.34678 0.50664 0.58013 0.0
C1164 C 0.3544 0.48491 0.55877 0.0
C1165 C 0.37658 0.46912 0.5634 0.0
C1166 C 0.38405 0.44909 0.54296 0.0
C1167 C 0.36936 0.44452 0.51789 0.0
C1168 C 0.34712 0.45992 0.51323 0.0
C1169 C 0.3396 0.48001 0.53358 0.0
H1170 H 0.37518 0.42901 0.50208 0.0
H1171 H 0.30227 0.62258 0.70107 0.0
H1172 H 0.0298 0.83031 0.98881 0.0
H1173 H 0.03733 0.78156 0.99202 0.0
H1174 H 0.95482 0.76571 0.02563 0.0
H1175 H 0.94674 0.81443 0.02176 0.0
H1176 H 0.00922 0.74542 0.05445 0.0
H1177 H 0.95274 0.74143 0.9706 0.0
H1178 H 0.94106 0.75735 0.92477 0.0
H1179 H 0.02137 0.74033 0.89254 0.0
H1180 H 0.03367 0.72472 0.93835 0.0
H1181 H 0.00108 0.59216 0.02016 0.0
H1182 H 0.98743 0.6396 0.02681 0.0
H1183 H 0.0671 0.67072 0.99506 0.0
H1184 H 0.08177 0.62391 0.99108 0.0
H1185 H 0.00983 0.68252 0.96812 0.0
H1186 H 0.06735 0.68568 0.04877 0.0
H1187 H 0.08425 0.67485 0.0945 0.0
H1188 H 0.00959 0.69967 0.134 0.0
H1189 H 0.99128 0.70865 0.08808 0.0
C1190 C 0.01326 0.81648 0.99694 0.0
C1191 C 0.98766 0.82613 0.00496 0.0
C1192 C 0.0176 0.78869 0.99874 0.0
C1193 C 0.99662 0.77021 0.00904 0.0
C1194 C 0.97122 0.77979 0.01765 0.0
C1195 C 0.96663 0.80752 0.0153 0.0
C1196 C 0.00136 0.74077 0.01019 0.0
C1197 C 0.00875 0.73131 0.0358 0.0
C1198 C 0.00162 0.72301 0.98556 0.0
C1199 C 0.99421 0.7322 0.95797 0.0
C1200 C 0.968 0.74136 0.95383 0.0
C1201 C 0.96125 0.75026 0.92783 0.0
C1202 C 0.98049 0.74993 0.90578 0.0
C1203 C 0.0065 0.74062 0.90965 0.0
C1204 C 0.01336 0.73172 0.93561 0.0
C1205 C 0.01612 0.60923 0.01602 0.0
C1206 C 0.04287 0.60435 0.00631 0.0
C1207 C 0.00817 0.63625 0.01939 0.0
C1208 C 0.02655 0.65862 0.01203 0.0
C1209 C 0.05289 0.65372 0.00143 0.0
C1210 C 0.06114 0.62694 0.99902 0.0
C1211 C 0.01755 0.68683 0.01253 0.0
C1212 C 0.00961 0.6962 0.98705 0.0
C1213 C 0.01732 0.7046 0.03731 0.0
C1214 C 0.02738 0.69679 0.06462 0.0
C1215 C 0.0539 0.68761 0.06689 0.0
C1216 C 0.06385 0.68195 0.09296 0.0
C1217 C 0.0478 0.68611 0.11711 0.0
C1218 C 0.02173 0.69584 0.11521 0.0
C1219 C 0.01146 0.70098 0.08912 0.0
H1220 H 0.05571 0.68209 0.13732 0.0
H1221 H 0.97522 0.75682 0.88567 0.0
H1222 H 0.51618 0.69217 0.06861 0.0
H1223 H 0.51179 0.73926 0.05574 0.0
H1224 H 0.45224 0.75022 0.12273 0.0
H1225 H 0.45539 0.70229 0.1345 0.0
H1226 H 0.4397 0.77942 0.08174 0.0
H1227 H 0.5235 0.77038 0.13089 0.0
H1228 H 0.56756 0.75119 0.14016 0.0
H1229 H 0.60001 0.77581 0.06076 0.0
H1230 H 0.55597 0.79484 0.05087 0.0
H1231 H 0.47879 0.92341 0.12084 0.0
H1232 H 0.46551 0.87343 0.11535 0.0
H1233 H 0.51452 0.86792 0.03942 0.0
H1234 H 0.52787 0.91791 0.04508 0.0
H1235 H 0.53037 0.83571 0.08003 0.0
H1236 H 0.44541 0.85384 0.03782 0.0
H1237 H 0.40178 0.87599 0.03553 0.0
H1238 H 0.37127 0.83693 0.10894 0.0
H1239 H 0.41501 0.81537 0.11246 0.0
C1240 C 0.50175 0.70447 0.08021 0.0
C1241 C 0.48632 0.69377 0.10271 0.0
C1242 C 0.49932 0.73143 0.07294 0.0
C1243 C 0.48233 0.74868 0.08879 0.0
C1244 C 0.46562 0.73744 0.11025 0.0
C1245 C 0.46745 0.71008 0.11702 0.0
C1246 C 0.48397 0.77889 0.08461 0.0
C1247 C 0.4595 0.79178 0.08151 0.0
C1248 C 0.50982 0.7951 0.08409 0.0
C1249 C 0.53635 0.78374 0.09001 0.0
C1250 C 0.53997 0.77153 0.11533 0.0
C1251 C 0.56494 0.7607 0.12071 0.0
C1252 C 0.58654 0.76221 0.10102 0.0
C1253 C 0.58324 0.77461 0.07596 0.0
C1254 C 0.55829 0.78543 0.07046 0.0
C1255 C 0.48577 0.91161 0.10243 0.0
C1256 C 0.50388 0.92435 0.08307 0.0
C1257 C 0.47819 0.88311 0.09929 0.0
C1258 C 0.4889 0.86695 0.07689 0.0
C1259 C 0.50584 0.88003 0.05672 0.0
C1260 C 0.51331 0.90854 0.05982 0.0
C1261 C 0.48616 0.8363 0.07708 0.0
C1262 C 0.51055 0.82332 0.0797 0.0
C1263 C 0.46021 0.82037 0.07794 0.0
C1264 C 0.43368 0.83308 0.07552 0.0
C1265 C 0.42954 0.85014 0.05365 0.0
C1266 C 0.40476 0.86257 0.05209 0.0
C1267 C 0.38378 0.85778 0.07197 0.0
C1268 C 0.38754 0.8406 0.09353 0.0
C1269 C 0.41234 0.82831 0.09535 0.0
H1270 H 0.36462 0.8674 0.07068 0.0
H1271 H 0.60586 0.75382 0.10522 0.0
H1272 H 0.10855 0.31703 0.64619 0.0
H1273 H 0.10407 0.26757 0.6319 0.0
H1274 H 0.06158 0.28365 0.55698 0.0
H1275 H 0.06596 0.33317 0.57111 0.0
H1276 H 0.03394 0.24293 0.58471 0.0
H1277 H 0.12567 0.26381 0.55157 0.0
H1278 H 0.17452 0.28308 0.55311 0.0
H1279 H 0.19032 0.23055 0.61841 0.0
H1280 H 0.14143 0.21126 0.6176 0.0
H1281 H 0.02217 0.10009 0.54492 0.0
H1282 H 0.04082 0.14816 0.53924 0.0
H1283 H 0.07944 0.15138 0.62025 0.0
H1284 H 0.06057 0.10363 0.62603 0.0
H1285 H 0.11113 0.18236 0.58008 0.0
H1286 H 0.01785 0.16955 0.61911 0.0
H1287 H 0.969 0.15012 0.61828 0.0
H1288 H 0.95672 0.18817 0.54165 0.0
H1289 H 0.00569 0.20747 0.54182 0.0
C1290 C 0.0984 0.31008 0.62659 0.0
C1291 C 0.08751 0.32903 0.60984 0.0
C1292 C 0.09605 0.28182 0.61833 0.0
C1293 C 0.08276 0.27197 0.59322 0.0
C1294 C 0.07205 0.29084 0.57636 0.0
C1295 C 0.07455 0.31913 0.5845 0.0
C1296 C 0.07827 0.24179 0.58572 0.0
C1297 C 0.0509 0.2298 0.58301 0.0
C1298 C 0.10036 0.22459 0.58395 0.0
C1299 C 0.12977 0.23625 0.58469 0.0
C1300 C 0.13948 0.25655 0.56646 0.0
C1301 C 0.1672 0.26744 0.56716 0.0
C1302 C 0.1855 0.25809 0.58589 0.0
C1303 C 0.17612 0.23779 0.60393 0.0
C1304 C 0.1484 0.22685 0.60334 0.0
C1305 C 0.03543 0.11087 0.56099 0.0
C1306 C 0.04016 0.09841 0.58584 0.0
C1307 C 0.04601 0.13823 0.55779 0.0
C1308 C 0.06133 0.15331 0.57944 0.0
C1309 C 0.06781 0.14004 0.60327 0.0
C1310 C 0.057 0.11287 0.6066 0.0
C1311 C 0.0669 0.18374 0.57954 0.0
C1312 C 0.09434 0.1957 0.58107 0.0
C1313 C 0.04492 0.20102 0.5803 0.0
C1314 C 0.01548 0.18962 0.58027 0.0
C1315 C 0.00479 0.17356 0.60196 0.0
C1316 C 0.97708 0.16261 0.60163 0.0
C1317 C 0.95979 0.16783 0.57987 0.0
C1318 C 0.97016 0.18409 0.55845 0.0
C1319 C 0.99789 0.19503 0.55864 0.0
H1320 H 0.93834 0.15934 0.57965 0.0
H1321 H 0.20696 0.26654 0.58638 0.0
H1322 H 0.6182 0.21983 0.46599 0.0
H1323 H 0.61302 0.26869 0.47954 0.0
H1324 H 0.53044 0.24653 0.51032 0.0
H1325 H 0.53549 0.1978 0.49717 0.0
H1326 H 0.53297 0.28715 0.47267 0.0
H1327 H 0.57853 0.26763 0.55577 0.0
H1328 H 0.61478 0.2524 0.58516 0.0
H1329 H 0.67408 0.314 0.5536 0.0
H1330 H 0.63829 0.32933 0.52365 0.0
H1331 H 0.49916 0.41646 0.52783 0.0
H1332 H 0.51037 0.36835 0.52747 0.0
H1333 H 0.59347 0.39282 0.49926 0.0
H1334 H 0.5821 0.44109 0.49967 0.0
H1335 H 0.59186 0.35136 0.53707 0.0
H1336 H 0.54612 0.36903 0.45224 0.0
H1337 H 0.50891 0.38543 0.42491 0.0
H1338 H 0.44936 0.32709 0.46129 0.0
H1339 H 0.48618 0.31062 0.48915 0.0
C1340 C 0.59902 0.22536 0.47583 0.0
C1341 C 0.57718 0.20495 0.48033 0.0
C1342 C 0.59619 0.25324 0.48376 0.0
C1343 C 0.57141 0.26118 0.49608 0.0
C1344 C 0.54977 0.24081 0.50094 0.0
C1345 C 0.55269 0.21296 0.49335 0.0
C1346 C 0.56697 0.29083 0.50158 0.0
C1347 C 0.54564 0.30107 0.48705 0.0
C1348 C 0.58397 0.30914 0.51982 0.0
C1349 C 0.6058 0.29931 0.53706 0.0
C1350 C 0.5994 0.27764 0.55472 0.0
C1351 C 0.61985 0.26905 0.57157 0.0
C1352 C 0.64677 0.28207 0.57107 0.0
C1353 C 0.65326 0.30381 0.55382 0.0
C1354 C 0.6329 0.31246 0.53691 0.0
C1355 C 0.51997 0.41155 0.52215 0.0
C1356 C 0.53997 0.43229 0.51416 0.0
C1357 C 0.52634 0.38416 0.52189 0.0
C1358 C 0.55265 0.37699 0.51301 0.0
C1359 C 0.57309 0.39794 0.50628 0.0
C1360 C 0.56669 0.42545 0.50667 0.0
C1361 C 0.55782 0.34744 0.50825 0.0
C1362 C 0.57928 0.33732 0.52272 0.0
C1363 C 0.54098 0.32911 0.48994 0.0
C1364 C 0.51886 0.33877 0.47296 0.0
C1365 C 0.52506 0.35983 0.45454 0.0
C1366 C 0.50404 0.36912 0.43895 0.0
C1367 C 0.47677 0.35736 0.44141 0.0
C1368 C 0.47048 0.33621 0.45943 0.0
C1369 C 0.49142 0.32687 0.47511 0.0
H1370 H 0.46053 0.36458 0.42933 0.0
H1371 H 0.66254 0.27545 0.58421 0.0
loop_
_geom_bond_atom_site_label_1
_geom_bond_atom_site_label_2
_geom_bond_distance
_geom_bond_site_symmetry_2
_ccdc_geom_bond_type
O0 Cd1 2.300 . S
O0 C7 1.275 . S
Cd1 O0 2.300 . S
Cd1 O9 2.381 . S
Cd1 O10 2.378 . S
O2 Cd3 2.385 . S
O2 C7 1.255 . S
Cd3 O2 2.385 . S
Cd3 O4 2.317 . S
O4 Cd3 2.317 . S
O4 C5 1.232 . S
C5 O4 1.232 . S
C5 O6 1.218 . S
O6 C5 1.218 . S
C7 O0 1.275 . S
C7 O2 1.255 . S
C8 O9 1.258 . S
C8 O10 1.256 . S
O9 Cd1 2.381 . S
O9 C8 1.258 . S
O10 Cd1 2.378 . S
O10 C8 1.256 . S
O11 Cd12 2.300 . S
O11 C18 1.275 . S
Cd12 O11 2.300 . S
Cd12 O20 2.381 . S
Cd12 O21 2.378 . S
O13 Cd14 2.385 . S
O13 C18 1.255 . S
Cd14 O13 2.385 . S
Cd14 O15 2.317 . S
O15 Cd14 2.317 . S
O15 C16 1.232 . S
C16 O15 1.232 . S
C16 O17 1.218 . S
O17 C16 1.218 . S
C18 O11 1.275 . S
C18 O13 1.255 . S
C19 O20 1.258 . S
C19 O21 1.256 . S
O20 Cd12 2.381 . S
O20 C19 1.258 . S
O21 Cd12 2.378 . S
O21 C19 1.256 . S
O22 Cd23 2.300 . S
O22 C29 1.275 . S
Cd23 O22 2.300 . S
Cd23 O31 2.381 . S
Cd23 O32 2.378 . S
O24 Cd25 2.385 . S
O24 C29 1.255 . S
Cd25 O24 2.385 . S
Cd25 O26 2.317 . S
O26 Cd25 2.317 . S
O26 C27 1.232 . S
C27 O26 1.232 . S
C27 O28 1.218 . S
O28 C27 1.218 . S
C29 O22 1.275 . S
C29 O24 1.255 . S
C30 O31 1.258 . S
C30 O32 1.256 . S
O31 Cd23 2.381 . S
O31 C30 1.258 . S
O32 Cd23 2.378 . S
O32 C30 1.256 . S
O33 Cd34 2.300 . S
O33 C40 1.275 . S
Cd34 O33 2.300 . S
Cd34 O42 2.381 . S
Cd34 O43 2.378 . S
O35 Cd36 2.385 . S
O35 C40 1.255 . S
Cd36 O35 2.385 . S
Cd36 O37 2.317 . S
O37 Cd36 2.317 . S
O37 C38 1.232 . S
C38 O37 1.232 . S
C38 O39 1.218 . S
O39 C38 1.218 . S
C40 O33 1.275 . S
C40 O35 1.255 . S
C41 O42 1.258 . S
C41 O43 1.256 . S
O42 Cd34 2.381 . S
O42 C41 1.258 . S
O43 Cd34 2.378 . S
O43 C41 1.256 . S
O44 Cd45 2.300 . S
O44 C51 1.275 . S
Cd45 O44 2.300 . S
Cd45 O53 2.381 . S
Cd45 O54 2.378 1_556 S
O46 Cd47 2.385 1_556 S
O46 C51 1.255 . S
Cd47 O46 2.385 1_554 S
Cd47 O48 2.317 . S
O48 Cd47 2.317 . S
O48 C49 1.230 1_554 S
C49 O48 1.230 1_556 S
C49 O50 1.220 1_565 S
O50 C49 1.220 1_545 S
C51 O44 1.275 . S
C51 O46 1.255 . S
C52 O53 1.258 . S
C52 O54 1.256 1_556 S
O53 Cd45 2.381 . S
O53 C52 1.258 . S
O54 Cd45 2.378 1_554 S
O54 C52 1.256 1_554 S
O55 Cd56 2.300 . S
O55 C62 1.275 . S
Cd56 O55 2.300 . S
Cd56 O64 2.381 . S
Cd56 O65 2.378 . S
O57 Cd58 2.385 . S
O57 C62 1.255 . S
Cd58 O57 2.385 . S
Cd58 O59 2.317 . S
O59 Cd58 2.317 . S
O59 C60 1.232 . S
C60 O59 1.232 . S
C60 O61 1.218 . S
O61 C60 1.218 . S
C62 O55 1.275 . S
C62 O57 1.255 . S
C63 O64 1.258 . S
C63 O65 1.256 . S
O64 Cd56 2.381 . S
O64 C63 1.258 . S
O65 Cd56 2.378 . S
O65 C63 1.256 . S
O66 Cd67 2.300 . S
O66 C73 1.275 . S
Cd67 O66 2.300 . S
Cd67 O75 2.381 . S
Cd67 O76 2.378 . S
O68 Cd69 2.385 . S
O68 C73 1.255 . S
Cd69 O68 2.385 . S
Cd69 O70 2.317 . S
O70 Cd69 2.317 . S
O70 C71 1.232 . S
C71 O70 1.232 . S
C71 O72 1.218 . S
O72 C71 1.218 . S
C73 O66 1.275 . S
C73 O68 1.255 . S
C74 O75 1.258 . S
C74 O76 1.256 . S
O75 Cd67 2.381 . S
O75 C74 1.258 . S
O76 Cd67 2.378 . S
O76 C74 1.256 . S
O77 Cd78 2.300 . S
O77 C84 1.275 . S
Cd78 O77 2.300 . S
Cd78 O86 2.381 . S
Cd78 O87 2.378 . S
O79 Cd80 2.385 . S
O79 C84 1.255 . S
Cd80 O79 2.385 . S
Cd80 O81 2.317 . S
O81 Cd80 2.317 . S
O81 C82 1.232 . S
C82 O81 1.232 . S
C82 O83 1.218 . S
O83 C82 1.218 . S
C84 O77 1.275 . S
C84 O79 1.255 . S
C85 O86 1.258 . S
C85 O87 1.256 . S
O86 Cd78 2.381 . S
O86 C85 1.258 . S
O87 Cd78 2.378 . S
O87 C85 1.256 . S
Zn88 O94 1.920 . S
Zn88 O100 1.898 . S
Zn88 O103 1.905 . S
Zn89 O97 1.905 1_565 S
Zn89 O98 1.898 . S
Zn89 O106 1.920 . S
Zn90 O93 2.080 1_455 S
Zn90 O96 2.114 . S
Zn90 O99 2.120 1_445 S
Zn90 O101 2.120 . S
Zn90 O102 2.114 1_455 S
Zn90 O105 2.080 . S
C91 O96 1.166 . S
C91 O97 1.182 . S
C92 O98 1.167 1_655 S
C92 O99 1.299 . S
O93 Zn90 2.080 1_655 S
O93 C107 1.305 . S
O94 Zn88 1.920 . S
O94 C107 1.234 . S
C95 O100 1.167 1_455 S
C95 O101 1.299 . S
O96 Zn90 2.114 . S
O96 C91 1.166 . S
O97 Zn89 1.905 1_545 S
O97 C91 1.182 . S
O98 Zn89 1.898 . S
O98 C92 1.167 1_455 S
O99 Zn90 2.120 1_665 S
O99 C92 1.299 . S
O100 Zn88 1.898 . S
O100 C95 1.167 1_655 S
O101 Zn90 2.120 . S
O101 C95 1.299 . S
O102 Zn90 2.114 1_655 S
O102 C104 1.166 . S
O103 Zn88 1.905 . S
O103 C104 1.182 . S
C104 O102 1.166 . S
C104 O103 1.182 . S
O105 Zn90 2.080 . S
O105 C108 1.305 1_545 S
O106 Zn89 1.920 . S
O106 C108 1.234 . S
C107 O93 1.305 . S
C107 O94 1.234 . S
C108 O105 1.305 1_565 S
C108 O106 1.234 . S
Zn109 O115 1.920 . S
Zn109 O121 1.898 . S
Zn109 O124 1.905 . S
Zn110 O118 1.905 . S
Zn110 O119 1.898 . S
Zn110 O127 1.920 1_565 S
Zn111 O114 2.080 . S
Zn111 O117 2.114 . S
Zn111 O120 2.120 1_545 S
Zn111 O122 2.120 . S
Zn111 O123 2.114 . S
Zn111 O126 2.080 . S
C112 O117 1.166 . S
C112 O118 1.182 1_545 S
C113 O119 1.167 . S
C113 O120 1.299 . S
O114 Zn111 2.080 . S
O114 C128 1.305 . S
O115 Zn109 1.920 . S
O115 C128 1.234 . S
C116 O121 1.167 . S
C116 O122 1.299 . S
O117 Zn111 2.114 . S
O117 C112 1.166 . S
O118 Zn110 1.905 . S
O118 C112 1.182 1_565 S
O119 Zn110 1.898 . S
O119 C113 1.167 . S
O120 Zn111 2.120 1_565 S
O120 C113 1.299 . S
O121 Zn109 1.898 . S
O121 C116 1.167 . S
O122 Zn111 2.120 . S
O122 C116 1.299 . S
O123 Zn111 2.114 . S
O123 C125 1.166 . S
O124 Zn109 1.905 . S
O124 C125 1.182 . S
C125 O123 1.166 . S
C125 O124 1.182 . S
O126 Zn111 2.080 . S
O126 C129 1.305 . S
O127 Zn110 1.920 1_545 S
O127 C129 1.234 . S
C128 O114 1.305 . S
C128 O115 1.234 . S
C129 O126 1.305 . S
C129 O127 1.234 . S
Zn130 O136 1.920 . S
Zn130 O142 1.898 . S
Zn130 O145 1.905 . S
Zn131 O139 1.905 . S
Zn131 O140 1.898 . S
Zn131 O148 1.920 . S
Zn132 O135 2.080 . S
Zn132 O138 2.114 . S
Zn132 O141 2.120 . S
Zn132 O143 2.120 . S
Zn132 O144 2.114 . S
Zn132 O147 2.080 . S
C133 O138 1.166 . S
C133 O139 1.182 . S
C134 O140 1.167 . S
C134 O141 1.299 . S
O135 Zn132 2.080 . S
O135 C149 1.305 . S
O136 Zn130 1.920 . S
O136 C149 1.234 . S
C137 O142 1.167 . S
C137 O143 1.299 . S
O138 Zn132 2.114 . S
O138 C133 1.166 . S
O139 Zn131 1.905 . S
O139 C133 1.182 . S
O140 Zn131 1.898 . S
O140 C134 1.167 . S
O141 Zn132 2.120 . S
O141 C134 1.299 . S
O142 Zn130 1.898 . S
O142 C137 1.167 . S
O143 Zn132 2.120 . S
O143 C137 1.299 . S
O144 Zn132 2.114 . S
O144 C146 1.166 . S
O145 Zn130 1.905 . S
O145 C146 1.182 . S
C146 O144 1.166 . S
C146 O145 1.182 . S
O147 Zn132 2.080 . S
O147 C150 1.305 . S
O148 Zn131 1.920 . S
O148 C150 1.234 . S
C149 O135 1.305 . S
C149 O136 1.234 . S
C150 O147 1.305 . S
C150 O148 1.234 . S
Zn151 O157 1.920 . S
Zn151 O163 1.898 . S
Zn151 O166 1.905 . S
Zn152 O160 1.905 . S
Zn152 O161 1.898 1_455 S
Zn152 O169 1.917 1_455 S
Zn153 O156 2.080 1_554 S
Zn153 O159 2.114 . S
Zn153 O162 2.120 1_554 S
Zn153 O164 2.120 . S
Zn153 O165 2.114 1_554 S
Zn153 O168 2.080 . S
C154 O159 1.166 . S
C154 O160 1.182 . S
C155 O161 1.167 1_556 S
C155 O162 1.299 1_655 S
O156 Zn153 2.080 1_556 S
O156 C170 1.305 . S
O157 Zn151 1.920 . S
O157 C170 1.234 . S
C158 O163 1.167 1_554 S
C158 O164 1.299 . S
O159 Zn153 2.114 . S
O159 C154 1.166 . S
O160 Zn152 1.905 . S
O160 C154 1.182 . S
O161 Zn152 1.898 1_655 S
O161 C155 1.167 1_554 S
O162 Zn153 2.120 1_556 S
O162 C155 1.299 1_455 S
O163 Zn151 1.898 . S
O163 C158 1.167 1_556 S
O164 Zn153 2.120 . S
O164 C158 1.299 . S
O165 Zn153 2.114 1_556 S
O165 C167 1.166 . S
O166 Zn151 1.905 . S
O166 C167 1.182 . S
C167 O165 1.166 . S
C167 O166 1.182 . S
O168 Zn153 2.080 . S
O168 C171 1.305 . S
O169 Zn152 1.917 1_655 S
O169 C171 1.229 1_655 S
C170 O156 1.305 . S
C170 O157 1.234 . S
C171 O168 1.305 . S
C171 O169 1.229 1_455 S
H172 C190 0.951 . S
H173 C192 0.951 . S
H174 C194 0.950 . S
H175 C195 0.950 . S
H176 C197 0.950 . S
H177 C200 0.950 . S
H178 C201 0.950 . S
H179 C203 0.950 . S
H180 C204 0.950 . S
H181 C205 0.951 . S
H182 C207 0.951 . S
H183 C209 0.950 . S
H184 C210 0.950 . S
H185 C212 0.950 . S
H186 C215 0.950 . S
H187 C216 0.950 1_565 S
H188 C218 0.950 . S
H189 C219 0.950 . S
C190 H172 0.951 . S
C190 C191 1.366 . S
C190 C192 1.388 . S
C191 C190 1.366 . S
C191 C195 1.385 . S
C192 H173 0.951 . S
C192 C190 1.388 . S
C192 C193 1.366 . S
C193 C192 1.366 . S
C193 C194 1.414 . S
C193 C196 1.499 . S
C194 H174 0.950 . S
C194 C193 1.414 . S
C194 C195 1.374 . S
C195 H175 0.950 . S
C195 C191 1.385 . S
C195 C194 1.374 . S
C196 C193 1.499 . S
C196 C197 1.373 . S
C196 C198 1.389 . S
C197 H176 0.950 . S
C197 C196 1.373 . S
C197 C213 1.377 . S
C198 C196 1.389 . S
C198 C199 1.524 . S
C198 C212 1.377 . S
C199 C198 1.524 . S
C199 C200 1.397 . S
C199 C204 1.363 . S
C200 H177 0.950 . S
C200 C199 1.397 . S
C200 C201 1.334 . S
C201 H178 0.950 . S
C201 C200 1.334 . S
C201 C202 1.287 . S
C202 C201 1.287 . S
C202 C203 1.524 . S
C202 H221 0.913 . S
C203 H179 0.950 . S
C203 C202 1.524 . S
C203 C204 1.415 . S
C204 H180 0.950 . S
C204 C199 1.363 . S
C204 C203 1.415 . S
C205 H181 0.951 . S
C205 C206 1.366 . S
C205 C207 1.388 . S
C206 C205 1.366 . S
C206 C210 1.385 . S
C207 H182 0.951 . S
C207 C205 1.388 . S
C207 C208 1.366 . S
C208 C207 1.366 . S
C208 C209 1.414 . S
C208 C211 1.499 . S
C209 H183 0.950 . S
C209 C208 1.414 . S
C209 C210 1.374 . S
C210 H184 0.950 . S
C210 C206 1.385 . S
C210 C209 1.374 . S
C211 C208 1.499 . S
C211 C212 1.373 . S
C211 C213 1.389 . S
C212 H185 0.950 . S
C212 C198 1.377 . S
C212 C211 1.373 . S
C213 C197 1.377 . S
C213 C211 1.389 . S
C213 C214 1.524 . S
C214 C213 1.524 . S
C214 C215 1.397 . S
C214 C219 1.363 . S
C215 H186 0.950 . S
C215 C214 1.397 . S
C215 C216 1.334 . S
C216 H187 0.950 1_545 S
C216 C215 1.334 . S
C216 C217 1.287 . S
C217 C216 1.287 . S
C217 C218 1.524 . S
C217 H220 0.999 . S
C218 H188 0.950 . S
C218 C217 1.524 . S
C218 C219 1.415 . S
C219 H189 0.950 . S
C219 C214 1.363 . S
C219 C218 1.415 . S
H220 C217 0.999 . S
H221 C202 0.913 . S
H222 C240 0.951 . S
H223 C242 0.951 . S
H224 C244 0.950 . S
H225 C245 0.950 . S
H226 C247 0.950 . S
H227 C250 0.950 . S
H228 C251 0.950 . S
H229 C253 0.950 . S
H230 C254 0.950 . S
H231 C255 0.951 1_554 S
H232 C257 0.951 . S
H233 C259 0.950 . S
H234 C260 0.971 . S
H235 C262 0.950 . S
H236 C265 0.950 . S
H237 C266 0.950 . S
H238 C268 0.950 . S
H239 C269 0.950 . S
C240 H222 0.951 . S
C240 C241 1.366 . S
C240 C242 1.388 . S
C241 C240 1.366 . S
C241 C245 1.385 . S
C242 H223 0.951 . S
C242 C240 1.388 . S
C242 C243 1.366 . S
C243 C242 1.366 . S
C243 C244 1.414 . S
C243 C246 1.499 . S
C244 H224 0.950 . S
C244 C243 1.414 . S
C244 C245 1.374 . S
C245 H225 0.950 . S
C245 C241 1.385 . S
C245 C244 1.374 . S
C246 C243 1.499 . S
C246 C247 1.373 . S
C246 C248 1.389 . S
C247 H226 0.950 . S
C247 C246 1.373 . S
C247 C263 1.377 . S
C248 C246 1.389 . S
C248 C249 1.524 . S
C248 C262 1.377 . S
C249 C248 1.524 . S
C249 C250 1.397 . S
C249 C254 1.363 . S
C250 H227 0.950 . S
C250 C249 1.397 . S
C250 C251 1.334 . S
C251 H228 0.950 . S
C251 C250 1.334 . S
C251 C252 1.287 . S
C252 C251 1.287 . S
C252 C253 1.524 . S
C252 H271 0.913 . S
C253 H229 0.950 . S
C253 C252 1.524 . S
C253 C254 1.415 . S
C254 H230 0.950 . S
C254 C249 1.363 . S
C254 C253 1.415 . S
C255 H231 0.951 1_556 S
C255 C256 1.366 . S
C255 C257 1.388 . S
C256 C255 1.366 . S
C256 C260 1.385 . S
C257 H232 0.951 . S
C257 C255 1.388 . S
C257 C258 1.366 . S
C258 C257 1.366 . S
C258 C259 1.414 . S
C258 C261 1.499 . S
C259 H233 0.950 . S
C259 C258 1.414 . S
C259 C260 1.374 . S
C260 H234 0.971 . S
C260 C256 1.385 . S
C260 C259 1.374 . S
C261 C258 1.499 . S
C261 C262 1.373 . S
C261 C263 1.389 . S
C262 H235 0.950 . S
C262 C248 1.377 . S
C262 C261 1.373 . S
C263 C247 1.377 . S
C263 C261 1.389 . S
C263 C264 1.524 . S
C264 C263 1.524 . S
C264 C265 1.397 . S
C264 C269 1.363 . S
C265 H236 0.950 . S
C265 C264 1.397 . S
C265 C266 1.334 1_565 S
C266 H237 0.950 . S
C266 C265 1.334 1_545 S
C266 C267 1.287 1_545 S
C267 C266 1.287 1_565 S
C267 C268 1.524 . S
C267 H270 0.999 1_565 S
C268 H238 0.950 . S
C268 C267 1.524 . S
C268 C269 1.415 . S
C269 H239 0.950 . S
C269 C264 1.363 . S
C269 C268 1.415 . S
H270 C267 0.999 1_545 S
H271 C252 0.913 . S
H272 C290 0.951 . S
H273 C292 0.951 . S
H274 C294 0.950 . S
H275 C295 0.950 . S
H276 C297 0.950 . S
H277 C300 0.950 . S
H278 C301 0.950 . S
H279 C303 0.950 . S
H280 C304 0.950 . S
H281 C305 0.951 . S
H282 C307 0.951 . S
H283 C309 0.950 . S
H284 C310 0.950 . S
H285 C312 0.950 . S
H286 C315 0.950 . S
H287 C316 0.950 . S
H288 C318 0.950 . S
H289 C319 0.950 . S
C290 H272 0.951 . S
C290 C291 1.366 . S
C290 C292 1.388 . S
C291 C290 1.366 . S
C291 C295 1.385 . S
C292 H273 0.951 . S
C292 C290 1.388 . S
C292 C293 1.366 . S
C293 C292 1.366 . S
C293 C294 1.414 . S
C293 C296 1.499 . S
C294 H274 0.950 . S
C294 C293 1.414 . S
C294 C295 1.374 . S
C295 H275 0.950 . S
C295 C291 1.385 . S
C295 C294 1.374 . S
C296 C293 1.499 . S
C296 C297 1.373 . S
C296 C298 1.389 . S
C297 H276 0.950 . S
C297 C296 1.373 . S
C297 C313 1.377 . S
C298 C296 1.389 . S
C298 C299 1.524 . S
C298 C312 1.377 . S
C299 C298 1.524 . S
C299 C300 1.397 . S
C299 C304 1.363 . S
C300 H277 0.950 . S
C300 C299 1.397 . S
C300 C301 1.334 . S
C301 H278 0.950 . S
C301 C300 1.334 . S
C301 C302 1.287 . S
C302 C301 1.287 . S
C302 C303 1.524 . S
C302 H321 0.913 . S
C303 H279 0.950 . S
C303 C302 1.524 . S
C303 C304 1.415 . S
C304 H280 0.950 . S
C304 C299 1.363 . S
C304 C303 1.415 . S
C305 H281 0.951 . S
C305 C306 1.366 . S
C305 C307 1.388 . S
C306 C305 1.366 . S
C306 C310 1.385 . S
C307 H282 0.951 . S
C307 C305 1.388 . S
C307 C308 1.366 . S
C308 C307 1.366 . S
C308 C309 1.414 . S
C308 C311 1.499 . S
C309 H283 0.950 . S
C309 C308 1.414 . S
C309 C310 1.374 . S
C310 H284 0.950 . S
C310 C306 1.385 . S
C310 C309 1.374 . S
C311 C308 1.499 . S
C311 C312 1.373 . S
C311 C313 1.389 . S
C312 H285 0.950 . S
C312 C298 1.377 . S
C312 C311 1.373 . S
C313 C297 1.377 . S
C313 C311 1.389 . S
C313 C314 1.524 . S
C314 C313 1.524 . S
C314 C315 1.397 . S
C314 C319 1.363 . S
C315 H286 0.950 . S
C315 C314 1.397 . S
C315 C316 1.334 . S
C316 H287 0.950 . S
C316 C315 1.334 . S
C316 C317 1.287 . S
C317 C316 1.287 . S
C317 C318 1.524 . S
C317 H320 0.999 . S
C318 H288 0.950 . S
C318 C317 1.524 . S
C318 C319 1.415 . S
C319 H289 0.950 . S
C319 C314 1.363 . S
C319 C318 1.415 . S
H320 C317 0.999 . S
H321 C302 0.913 . S
H322 C340 0.951 . S
H323 C342 0.951 . S
H324 C344 0.950 . S
H325 C345 0.950 . S
H326 C347 0.950 . S
H327 C350 0.950 . S
H328 C351 0.950 . S
H329 C353 0.950 . S
H330 C354 0.950 . S
H331 C355 0.951 . S
H332 C357 0.951 . S
H333 C359 0.950 . S
H334 C360 0.950 . S
H335 C362 0.950 . S
H336 C365 0.950 . S
H337 C366 0.950 . S
H338 C368 0.950 . S
H339 C369 0.950 . S
C340 H322 0.951 . S
C340 C341 1.366 . S
C340 C342 1.388 . S
C341 C340 1.366 . S
C341 C345 1.385 . S
C342 H323 0.951 . S
C342 C340 1.388 . S
C342 C343 1.366 . S
C343 C342 1.366 . S
C343 C344 1.414 . S
C343 C346 1.499 . S
C344 H324 0.950 . S
C344 C343 1.414 . S
C344 C345 1.374 . S
C345 H325 0.950 . S
C345 C341 1.385 . S
C345 C344 1.374 . S
C346 C343 1.499 . S
C346 C347 1.373 . S
C346 C348 1.389 . S
C347 H326 0.950 . S
C347 C346 1.373 . S
C347 C363 1.377 . S
C348 C346 1.389 . S
C348 C349 1.524 . S
C348 C362 1.377 . S
C349 C348 1.524 . S
C349 C350 1.397 . S
C349 C354 1.363 . S
C350 H327 0.950 . S
C350 C349 1.397 . S
C350 C351 1.334 . S
C351 H328 0.950 . S
C351 C350 1.334 . S
C351 C352 1.287 . S
C352 C351 1.287 . S
C352 C353 1.524 . S
C352 H371 0.913 . S
C353 H329 0.950 . S
C353 C352 1.524 . S
C353 C354 1.415 . S
C354 H330 0.950 . S
C354 C349 1.363 . S
C354 C353 1.415 . S
C355 H331 0.951 . S
C355 C356 1.366 1_655 S
C355 C357 1.388 . S
C356 C355 1.366 1_455 S
C356 C360 1.385 . S
C357 H332 0.951 . S
C357 C355 1.388 . S
C357 C358 1.366 . S
C358 C357 1.366 . S
C358 C359 1.414 1_655 S
C358 C361 1.499 . S
C359 H333 0.950 . S
C359 C358 1.414 1_455 S
C359 C360 1.374 . S
C360 H334 0.950 . S
C360 C356 1.385 . S
C360 C359 1.374 . S
C361 C358 1.499 . S
C361 C362 1.373 . S
C361 C363 1.389 . S
C362 H335 0.950 . S
C362 C348 1.377 . S
C362 C361 1.373 . S
C363 C347 1.377 . S
C363 C361 1.389 . S
C363 C364 1.524 . S
C364 C363 1.524 . S
C364 C365 1.397 1_655 S
C364 C369 1.363 . S
C365 H336 0.950 . S
C365 C364 1.397 1_455 S
C365 C366 1.334 . S
C366 H337 0.950 . S
C366 C365 1.334 . S
C366 C367 1.287 . S
C367 C366 1.287 . S
C367 C368 1.524 1_455 S
C367 H370 0.999 . S
C368 H338 0.950 . S
C368 C367 1.524 1_655 S
C368 C369 1.415 . S
C369 H339 0.950 . S
C369 C364 1.363 . S
C369 C368 1.415 . S
H370 C367 0.999 . S
H371 C352 0.913 . S
H372 C390 0.951 . S
H373 C392 0.951 . S
H374 C394 0.950 . S
H375 C395 0.950 . S
H376 C397 0.950 . S
H377 C400 0.950 . S
H378 C401 0.950 . S
H379 C403 0.950 . S
H380 C404 0.950 . S
H381 C405 0.951 . S
H382 C407 0.951 . S
H383 C409 0.950 . S
H384 C410 0.950 . S
H385 C412 0.950 . S
H386 C415 0.950 . S
H387 C416 0.950 . S
H388 C418 0.950 1_565 S
H389 C419 0.950 . S
C390 H372 0.951 . S
C390 C391 1.366 . S
C390 C392 1.388 . S
C391 C390 1.366 . S
C391 C395 1.385 . S
C392 H373 0.951 . S
C392 C390 1.388 . S
C392 C393 1.366 . S
C393 C392 1.366 . S
C393 C394 1.414 . S
C393 C396 1.499 . S
C394 H374 0.950 . S
C394 C393 1.414 . S
C394 C395 1.374 . S
C395 H375 0.950 . S
C395 C391 1.385 . S
C395 C394 1.374 . S
C396 C393 1.499 . S
C396 C397 1.373 . S
C396 C398 1.389 . S
C397 H376 0.950 . S
C397 C396 1.373 . S
C397 C413 1.377 . S
C398 C396 1.389 . S
C398 C399 1.524 . S
C398 C412 1.377 . S
C399 C398 1.524 . S
C399 C400 1.397 . S
C399 C404 1.363 . S
C400 H377 0.950 . S
C400 C399 1.397 . S
C400 C401 1.334 . S
C401 H378 0.950 . S
C401 C400 1.334 . S
C401 C402 1.287 . S
C402 C401 1.287 . S
C402 C403 1.524 . S
C402 H421 0.913 . S
C403 H379 0.950 . S
C403 C402 1.524 . S
C403 C404 1.415 . S
C404 H380 0.950 . S
C404 C399 1.363 . S
C404 C403 1.415 . S
C405 H381 0.951 . S
C405 C406 1.366 . S
C405 C407 1.388 . S
C406 C405 1.366 . S
C406 C410 1.385 . S
C407 H382 0.951 . S
C407 C405 1.388 . S
C407 C408 1.366 . S
C408 C407 1.366 . S
C408 C409 1.414 . S
C408 C411 1.499 . S
C409 H383 0.950 . S
C409 C408 1.414 . S
C409 C410 1.374 . S
C410 H384 0.950 . S
C410 C406 1.385 . S
C410 C409 1.374 . S
C411 C408 1.499 . S
C411 C412 1.373 . S
C411 C413 1.389 . S
C412 H385 0.950 . S
C412 C398 1.377 . S
C412 C411 1.373 . S
C413 C397 1.377 . S
C413 C411 1.389 . S
C413 C414 1.524 . S
C414 C413 1.524 . S
C414 C415 1.397 . S
C414 C419 1.363 . S
C415 H386 0.950 . S
C415 C414 1.397 . S
C415 C416 1.334 . S
C416 H387 0.950 . S
C416 C415 1.334 . S
C416 C417 1.316 . S
C417 C416 1.316 . S
C417 C418 1.530 . S
C417 H420 0.958 1_545 S
C418 H388 0.950 1_545 S
C418 C417 1.530 . S
C418 C419 1.415 . S
C419 H389 0.950 . S
C419 C414 1.363 . S
C419 C418 1.415 . S
H420 C417 0.958 1_565 S
H421 C402 0.913 . S
H422 C440 0.951 . S
H423 C442 0.951 . S
H424 C444 0.950 . S
H425 C445 0.950 . S
H426 C447 0.950 . S
H427 C450 0.950 . S
H428 C451 0.952 . S
H429 C453 0.950 . S
H430 C454 0.950 . S
H431 C455 0.951 . S
H432 C457 0.951 . S
H433 C459 0.950 . S
H434 C460 0.950 . S
H435 C462 0.950 . S
H436 C465 0.950 . S
H437 C466 0.950 . S
H438 C468 0.950 . S
H439 C469 0.950 . S
C440 H422 0.951 . S
C440 C441 1.366 . S
C440 C442 1.388 . S
C441 C440 1.366 . S
C441 C445 1.385 . S
C442 H423 0.951 . S
C442 C440 1.388 . S
C442 C443 1.366 . S
C443 C442 1.366 . S
C443 C444 1.414 . S
C443 C446 1.499 . S
C444 H424 0.950 . S
C444 C443 1.414 . S
C444 C445 1.374 . S
C445 H425 0.950 . S
C445 C441 1.385 . S
C445 C444 1.374 . S
C446 C443 1.499 . S
C446 C447 1.373 . S
C446 C448 1.389 . S
C447 H426 0.950 . S
C447 C446 1.373 . S
C447 C463 1.377 . S
C448 C446 1.389 . S
C448 C449 1.524 . S
C448 C462 1.377 . S
C449 C448 1.524 . S
C449 C450 1.397 . S
C449 C454 1.363 . S
C450 H427 0.950 . S
C450 C449 1.397 . S
C450 C451 1.324 1_565 S
C451 H428 0.952 . S
C451 C450 1.324 1_545 S
C451 C452 1.298 . S
C452 C451 1.298 . S
C452 C453 1.524 . S
C452 H471 0.913 . S
C453 H429 0.950 . S
C453 C452 1.524 . S
C453 C454 1.415 1_545 S
C454 H430 0.950 . S
C454 C449 1.363 . S
C454 C453 1.415 1_565 S
C455 H431 0.951 . S
C455 C456 1.366 . S
C455 C457 1.388 . S
C456 C455 1.366 . S
C456 C460 1.385 . S
C457 H432 0.951 . S
C457 C455 1.388 . S
C457 C458 1.366 . S
C458 C457 1.366 . S
C458 C459 1.414 . S
C458 C461 1.499 . S
C459 H433 0.950 . S
C459 C458 1.414 . S
C459 C460 1.374 . S
C460 H434 0.950 . S
C460 C456 1.385 . S
C460 C459 1.374 . S
C461 C458 1.499 . S
C461 C462 1.373 . S
C461 C463 1.389 . S
C462 H435 0.950 . S
C462 C448 1.377 . S
C462 C461 1.373 . S
C463 C447 1.377 . S
C463 C461 1.389 . S
C463 C464 1.524 . S
C464 C463 1.524 . S
C464 C465 1.397 . S
C464 C469 1.363 . S
C465 H436 0.950 . S
C465 C464 1.397 . S
C465 C466 1.334 . S
C466 H437 0.950 . S
C466 C465 1.334 . S
C466 C467 1.287 . S
C467 C466 1.287 . S
C467 C468 1.524 . S
C467 H470 0.999 . S
C468 H438 0.950 . S
C468 C467 1.524 . S
C468 C469 1.415 . S
C469 H439 0.950 . S
C469 C464 1.363 . S
C469 C468 1.415 . S
H470 C467 0.999 . S
H471 C452 0.913 . S
H472 C490 0.951 . S
H473 C492 0.951 . S
H474 C494 0.950 . S
H475 C495 0.950 . S
H476 C497 0.950 . S
H477 C500 0.950 . S
H478 C501 0.950 . S
H479 C503 0.950 . S
H480 C504 0.950 . S
H481 C505 0.951 . S
H482 C507 0.951 . S
H483 C509 0.950 . S
H484 C510 0.950 . S
H485 C512 0.950 . S
H486 C515 0.950 1_554 S
H487 C516 0.950 . S
H488 C518 0.950 . S
H489 C519 0.950 . S
C490 H472 0.951 . S
C490 C491 1.366 . S
C490 C492 1.388 . S
C491 C490 1.366 . S
C491 C495 1.385 . S
C492 H473 0.951 . S
C492 C490 1.388 . S
C492 C493 1.366 . S
C493 C492 1.366 . S
C493 C494 1.414 . S
C493 C496 1.499 . S
C494 H474 0.950 . S
C494 C493 1.414 . S
C494 C495 1.374 . S
C495 H475 0.950 . S
C495 C491 1.385 . S
C495 C494 1.374 . S
C496 C493 1.499 . S
C496 C497 1.373 . S
C496 C498 1.389 . S
C497 H476 0.950 . S
C497 C496 1.373 . S
C497 C513 1.377 . S
C498 C496 1.389 . S
C498 C499 1.524 . S
C498 C512 1.377 . S
C499 C498 1.524 . S
C499 C500 1.397 . S
C499 C504 1.363 . S
C500 H477 0.950 . S
C500 C499 1.397 . S
C500 C501 1.334 . S
C501 H478 0.950 . S
C501 C500 1.334 . S
C501 C502 1.287 . S
C502 C501 1.287 . S
C502 C503 1.524 . S
C502 H521 0.913 . S
C503 H479 0.950 . S
C503 C502 1.524 . S
C503 C504 1.415 . S
C504 H480 0.950 . S
C504 C499 1.363 . S
C504 C503 1.415 . S
C505 H481 0.951 . S
C505 C506 1.366 . S
C505 C507 1.388 . S
C506 C505 1.366 . S
C506 C510 1.385 . S
C507 H482 0.951 . S
C507 C505 1.388 . S
C507 C508 1.366 . S
C508 C507 1.366 . S
C508 C509 1.414 . S
C508 C511 1.499 . S
C509 H483 0.950 . S
C509 C508 1.414 . S
C509 C510 1.374 . S
C510 H484 0.950 . S
C510 C506 1.385 . S
C510 C509 1.374 . S
C511 C508 1.499 . S
C511 C512 1.373 . S
C511 C513 1.389 . S
C512 H485 0.950 . S
C512 C498 1.377 . S
C512 C511 1.373 . S
C513 C497 1.377 . S
C513 C511 1.389 . S
C513 C514 1.524 . S
C514 C513 1.524 . S
C514 C515 1.397 . S
C514 C519 1.363 . S
C515 H486 0.950 1_556 S
C515 C514 1.397 . S
C515 C516 1.334 1_556 S
C516 H487 0.950 . S
C516 C515 1.334 1_554 S
C516 C517 1.287 . S
C517 C516 1.287 . S
C517 C518 1.524 1_554 S
C517 H520 0.999 . S
C518 H488 0.950 . S
C518 C517 1.524 1_556 S
C518 C519 1.415 . S
C519 H489 0.950 . S
C519 C514 1.363 . S
C519 C518 1.415 . S
H520 C517 0.999 . S
H521 C502 0.913 . S
H522 C540 0.951 . S
H523 C542 0.951 . S
H524 C544 0.950 . S
H525 C545 0.950 . S
H526 C547 0.950 . S
H527 C550 0.950 . S
H528 C551 0.950 . S
H529 C553 0.950 . S
H530 C554 0.950 . S
H531 C555 0.951 . S
H532 C557 0.951 . S
H533 C559 0.950 . S
H534 C560 0.950 . S
H535 C562 0.950 . S
H536 C565 0.950 . S
H537 C566 0.950 . S
H538 C568 0.950 . S
H539 C569 0.950 . S
C540 H522 0.951 . S
C540 C541 1.366 . S
C540 C542 1.388 . S
C541 C540 1.366 . S
C541 C545 1.385 . S
C542 H523 0.951 . S
C542 C540 1.388 . S
C542 C543 1.366 . S
C543 C542 1.366 . S
C543 C544 1.414 . S
C543 C546 1.499 . S
C544 H524 0.950 . S
C544 C543 1.414 . S
C544 C545 1.374 . S
C545 H525 0.950 . S
C545 C541 1.385 . S
C545 C544 1.374 . S
C546 C543 1.499 . S
C546 C547 1.373 . S
C546 C548 1.389 . S
C547 H526 0.950 . S
C547 C546 1.373 . S
C547 C563 1.377 . S
C548 C546 1.389 . S
C548 C549 1.524 . S
C548 C562 1.377 . S
C549 C548 1.524 . S
C549 C550 1.397 . S
C549 C554 1.363 . S
C550 H527 0.950 . S
C550 C549 1.397 . S
C550 C551 1.334 . S
C551 H528 0.950 . S
C551 C550 1.334 . S
C551 C552 1.287 . S
C552 C551 1.287 . S
C552 C553 1.524 . S
C552 H571 0.913 . S
C553 H529 0.950 . S
C553 C552 1.524 . S
C553 C554 1.415 . S
C554 H530 0.950 . S
C554 C549 1.363 . S
C554 C553 1.415 . S
C555 H531 0.951 . S
C555 C556 1.366 . S
C555 C557 1.388 . S
C556 C555 1.366 . S
C556 C560 1.385 . S
C557 H532 0.951 . S
C557 C555 1.388 . S
C557 C558 1.366 . S
C558 C557 1.366 . S
C558 C559 1.414 . S
C558 C561 1.499 . S
C559 H533 0.950 . S
C559 C558 1.414 . S
C559 C560 1.374 . S
C560 H534 0.950 . S
C560 C556 1.385 . S
C560 C559 1.374 . S
C561 C558 1.499 . S
C561 C562 1.373 . S
C561 C563 1.389 . S
C562 H535 0.950 . S
C562 C548 1.377 . S
C562 C561 1.373 . S
C563 C547 1.377 . S
C563 C561 1.389 . S
C563 C564 1.524 . S
C564 C563 1.524 . S
C564 C565 1.397 . S
C564 C569 1.363 . S
C565 H536 0.950 . S
C565 C564 1.397 . S
C565 C566 1.334 . S
C566 H537 0.950 . S
C566 C565 1.334 . S
C566 C567 1.287 . S
C567 C566 1.287 . S
C567 C568 1.524 . S
C567 H570 0.999 . S
C568 H538 0.950 . S
C568 C567 1.524 . S
C568 C569 1.415 . S
C569 H539 0.950 . S
C569 C564 1.363 . S
C569 C568 1.415 . S
H570 C567 0.999 . S
H571 C552 0.913 . S
H572 C590 0.951 . S
H573 C592 0.951 . S
H574 C594 0.950 . S
H575 C595 0.950 . S
H576 C597 0.950 . S
H577 C600 0.950 . S
H578 C601 0.950 . S
H579 C603 0.950 . S
H580 C604 0.950 . S
H581 C605 0.951 . S
H582 C607 0.951 . S
H583 C609 0.950 . S
H584 C610 0.950 . S
H585 C612 0.950 . S
H586 C615 0.950 . S
H587 C616 0.950 . S
H588 C618 0.950 . S
H589 C619 0.950 . S
C590 H572 0.951 . S
C590 C591 1.366 . S
C590 C592 1.388 . S
C591 C590 1.366 . S
C591 C595 1.385 . S
C592 H573 0.951 . S
C592 C590 1.388 . S
C592 C593 1.366 . S
C593 C592 1.366 . S
C593 C594 1.414 . S
C593 C596 1.499 . S
C594 H574 0.950 . S
C594 C593 1.414 . S
C594 C595 1.374 . S
C595 H575 0.950 . S
C595 C591 1.385 . S
C595 C594 1.374 . S
C596 C593 1.499 . S
C596 C597 1.373 . S
C596 C598 1.389 . S
C597 H576 0.950 . S
C597 C596 1.373 . S
C597 C613 1.377 . S
C598 C596 1.389 . S
C598 C599 1.524 . S
C598 C612 1.377 . S
C599 C598 1.524 . S
C599 C600 1.397 . S
C599 C604 1.363 . S
C600 H577 0.950 . S
C600 C599 1.397 . S
C600 C601 1.334 . S
C601 H578 0.950 . S
C601 C600 1.334 . S
C601 C602 1.287 . S
C602 C601 1.287 . S
C602 C603 1.524 . S
C602 H621 0.913 . S
C603 H579 0.950 . S
C603 C602 1.524 . S
C603 C604 1.415 . S
C604 H580 0.950 . S
C604 C599 1.363 . S
C604 C603 1.415 . S
C605 H581 0.951 . S
C605 C606 1.366 . S
C605 C607 1.388 . S
C606 C605 1.366 . S
C606 C610 1.385 . S
C607 H582 0.951 . S
C607 C605 1.388 . S
C607 C608 1.366 . S
C608 C607 1.366 . S
C608 C609 1.414 . S
C608 C611 1.499 . S
C609 H583 0.950 . S
C609 C608 1.414 . S
C609 C610 1.374 . S
C610 H584 0.950 . S
C610 C606 1.385 . S
C610 C609 1.374 . S
C611 C608 1.499 . S
C611 C612 1.373 . S
C611 C613 1.389 . S
C612 H585 0.950 . S
C612 C598 1.377 . S
C612 C611 1.373 . S
C613 C597 1.377 . S
C613 C611 1.389 . S
C613 C614 1.524 . S
C614 C613 1.524 . S
C614 C615 1.397 . S
C614 C619 1.363 . S
C615 H586 0.950 . S
C615 C614 1.397 . S
C615 C616 1.334 . S
C616 H587 0.950 . S
C616 C615 1.334 . S
C616 C617 1.287 . S
C617 C616 1.287 . S
C617 C618 1.524 . S
C617 H620 0.999 1_455 S
C618 H588 0.950 . S
C618 C617 1.524 . S
C618 C619 1.415 . S
C619 H589 0.950 . S
C619 C614 1.363 . S
C619 C618 1.415 . S
H620 C617 0.999 1_655 S
H621 C602 0.913 . S
H622 C640 0.951 . S
H623 C642 0.951 . S
H624 C644 0.950 . S
H625 C645 0.950 . S
H626 C647 0.950 . S
H627 C650 0.950 . S
H628 C651 0.950 . S
H629 C653 0.950 . S
H630 C654 0.950 . S
H631 C655 0.951 1_556 S
H632 C657 0.951 . S
H633 C659 0.950 . S
H634 C660 0.950 . S
H635 C662 0.950 . S
H636 C665 0.950 . S
H637 C666 0.950 . S
H638 C668 0.950 . S
H639 C669 0.950 . S
C640 H622 0.951 . S
C640 C641 1.366 . S
C640 C642 1.388 . S
C641 C640 1.366 . S
C641 C645 1.385 . S
C642 H623 0.951 . S
C642 C640 1.388 . S
C642 C643 1.366 . S
C643 C642 1.366 . S
C643 C644 1.414 . S
C643 C646 1.499 . S
C644 H624 0.950 . S
C644 C643 1.414 . S
C644 C645 1.374 . S
C645 H625 0.950 . S
C645 C641 1.385 . S
C645 C644 1.374 . S
C646 C643 1.499 . S
C646 C647 1.373 . S
C646 C648 1.389 . S
C647 H626 0.950 . S
C647 C646 1.373 . S
C647 C663 1.377 . S
C648 C646 1.389 . S
C648 C649 1.524 . S
C648 C662 1.377 . S
C649 C648 1.524 . S
C649 C650 1.397 . S
C649 C654 1.363 . S
C650 H627 0.950 . S
C650 C649 1.397 . S
C650 C651 1.334 . S
C651 H628 0.950 . S
C651 C650 1.334 . S
C651 C652 1.287 . S
C652 C651 1.287 . S
C652 C653 1.524 . S
C652 H671 0.913 . S
C653 H629 0.950 . S
C653 C652 1.524 . S
C653 C654 1.415 . S
C654 H630 0.950 . S
C654 C649 1.363 . S
C654 C653 1.415 . S
C655 H631 0.951 1_554 S
C655 C656 1.366 . S
C655 C657 1.388 1_554 S
C656 C655 1.366 . S
C656 C660 1.385 . S
C657 H632 0.951 . S
C657 C655 1.388 1_556 S
C657 C658 1.366 1_556 S
C658 C657 1.366 1_554 S
C658 C659 1.414 . S
C658 C661 1.499 1_554 S
C659 H633 0.950 . S
C659 C658 1.414 . S
C659 C660 1.374 . S
C660 H634 0.950 . S
C660 C656 1.385 . S
C660 C659 1.374 . S
C661 C658 1.499 1_556 S
C661 C662 1.373 . S
C661 C663 1.389 . S
C662 H635 0.950 . S
C662 C648 1.377 . S
C662 C661 1.373 . S
C663 C647 1.377 . S
C663 C661 1.389 . S
C663 C664 1.524 . S
C664 C663 1.524 . S
C664 C665 1.397 1_556 S
C664 C669 1.363 . S
C665 H636 0.950 . S
C665 C664 1.397 1_554 S
C665 C666 1.334 . S
C666 H637 0.950 . S
C666 C665 1.334 . S
C666 C667 1.287 . S
C667 C666 1.287 . S
C667 C668 1.524 1_554 S
C667 H670 0.999 . S
C668 H638 0.950 . S
C668 C667 1.524 1_556 S
C668 C669 1.415 . S
C669 H639 0.950 . S
C669 C664 1.363 . S
C669 C668 1.415 . S
H670 C667 0.999 . S
H671 C652 0.913 . S
H672 C690 0.951 . S
H673 C692 0.951 . S
H674 C694 0.950 . S
H675 C695 0.950 . S
H676 C697 0.950 . S
H677 C700 0.950 . S
H678 C701 0.950 . S
H679 C703 0.950 . S
H680 C704 0.940 1_455 S
H681 C705 0.951 . S
H682 C707 0.951 . S
H683 C709 0.950 . S
H684 C710 0.950 1_455 S
H685 C712 0.950 . S
H686 C715 0.950 . S
H687 C716 0.950 . S
H688 C718 0.950 . S
H689 C719 0.950 . S
C690 H672 0.951 . S
C690 C691 1.366 . S
C690 C692 1.388 . S
C691 C690 1.366 . S
C691 C695 1.385 . S
C692 H673 0.951 . S
C692 C690 1.388 . S
C692 C693 1.366 . S
C693 C692 1.366 . S
C693 C694 1.414 . S
C693 C696 1.499 . S
C694 H674 0.950 . S
C694 C693 1.414 . S
C694 C695 1.374 . S
C695 H675 0.950 . S
C695 C691 1.385 . S
C695 C694 1.374 . S
C696 C693 1.499 . S
C696 C697 1.373 . S
C696 C698 1.389 . S
C697 H676 0.950 . S
C697 C696 1.373 . S
C697 C713 1.377 . S
C698 C696 1.389 . S
C698 C699 1.524 . S
C698 C712 1.377 . S
C699 C698 1.524 . S
C699 C700 1.397 . S
C699 C704 1.363 . S
C700 H677 0.950 . S
C700 C699 1.397 . S
C700 C701 1.334 . S
C701 H678 0.950 . S
C701 C700 1.334 . S
C701 C702 1.287 . S
C702 C701 1.287 . S
C702 C703 1.524 1_655 S
C702 H721 0.913 . S
C703 H679 0.950 . S
C703 C702 1.524 1_455 S
C703 C704 1.415 1_455 S
C704 H680 0.940 1_655 S
C704 C699 1.363 . S
C704 C703 1.415 1_655 S
C705 H681 0.951 . S
C705 C706 1.366 . S
C705 C707 1.388 . S
C706 C705 1.366 . S
C706 C710 1.385 . S
C707 H682 0.951 . S
C707 C705 1.388 . S
C707 C708 1.366 . S
C708 C707 1.366 . S
C708 C709 1.414 . S
C708 C711 1.499 . S
C709 H683 0.950 . S
C709 C708 1.414 . S
C709 C710 1.374 . S
C710 H684 0.950 1_655 S
C710 C706 1.385 . S
C710 C709 1.374 . S
C711 C708 1.499 . S
C711 C712 1.373 . S
C711 C713 1.389 . S
C712 H685 0.950 . S
C712 C698 1.377 . S
C712 C711 1.373 . S
C713 C697 1.377 . S
C713 C711 1.389 . S
C713 C714 1.524 . S
C714 C713 1.524 . S
C714 C715 1.397 . S
C714 C719 1.363 . S
C715 H686 0.950 . S
C715 C714 1.397 . S
C715 C716 1.334 . S
C716 H687 0.950 . S
C716 C715 1.334 . S
C716 C717 1.287 . S
C717 C716 1.287 . S
C717 C718 1.524 . S
C717 H720 0.999 . S
C718 H688 0.950 . S
C718 C717 1.524 . S
C718 C719 1.415 . S
C719 H689 0.950 . S
C719 C714 1.363 . S
C719 C718 1.415 . S
H720 C717 0.999 . S
H721 C702 0.913 . S
H722 C740 0.951 . S
H723 C742 0.951 . S
H724 C744 0.950 . S
H725 C745 0.950 . S
H726 C747 0.950 . S
H727 C750 0.950 . S
H728 C751 0.950 . S
H729 C753 0.950 . S
H730 C754 0.950 . S
H731 C755 0.951 . S
H732 C757 0.951 . S
H733 C759 0.950 . S
H734 C760 0.950 . S
H735 C762 0.950 . S
H736 C765 0.950 . S
H737 C766 0.950 . S
H738 C768 0.950 . S
H739 C769 0.950 . S
C740 H722 0.951 . S
C740 C741 1.366 . S
C740 C742 1.388 . S
C741 C740 1.366 . S
C741 C745 1.385 . S
C742 H723 0.951 . S
C742 C740 1.388 . S
C742 C743 1.366 . S
C743 C742 1.366 . S
C743 C744 1.414 . S
C743 C746 1.499 . S
C744 H724 0.950 . S
C744 C743 1.414 . S
C744 C745 1.374 . S
C745 H725 0.950 . S
C745 C741 1.385 . S
C745 C744 1.374 . S
C746 C743 1.499 . S
C746 C747 1.373 . S
C746 C748 1.389 . S
C747 H726 0.950 . S
C747 C746 1.373 . S
C747 C763 1.377 . S
C748 C746 1.389 . S
C748 C749 1.524 . S
C748 C762 1.377 . S
C749 C748 1.524 . S
C749 C750 1.397 . S
C749 C754 1.363 . S
C750 H727 0.950 . S
C750 C749 1.397 . S
C750 C751 1.334 . S
C751 H728 0.950 . S
C751 C750 1.334 . S
C751 C752 1.287 . S
C752 C751 1.287 . S
C752 C753 1.524 . S
C752 H771 0.913 . S
C753 H729 0.950 . S
C753 C752 1.524 . S
C753 C754 1.415 . S
C754 H730 0.950 . S
C754 C749 1.363 . S
C754 C753 1.415 . S
C755 H731 0.951 . S
C755 C756 1.366 . S
C755 C757 1.388 . S
C756 C755 1.366 . S
C756 C760 1.385 . S
C757 H732 0.951 . S
C757 C755 1.388 . S
C757 C758 1.366 . S
C758 C757 1.366 . S
C758 C759 1.414 . S
C758 C761 1.499 . S
C759 H733 0.950 . S
C759 C758 1.414 . S
C759 C760 1.374 . S
C760 H734 0.950 . S
C760 C756 1.385 . S
C760 C759 1.374 . S
C761 C758 1.499 . S
C761 C762 1.373 . S
C761 C763 1.389 . S
C762 H735 0.950 . S
C762 C748 1.377 . S
C762 C761 1.373 . S
C763 C747 1.377 . S
C763 C761 1.389 . S
C763 C764 1.524 . S
C764 C763 1.524 . S
C764 C765 1.397 . S
C764 C769 1.363 . S
C765 H736 0.950 . S
C765 C764 1.397 . S
C765 C766 1.334 . S
C766 H737 0.950 . S
C766 C765 1.334 . S
C766 C767 1.287 . S
C767 C766 1.287 . S
C767 C768 1.524 . S
C767 H770 0.999 . S
C768 H738 0.950 . S
C768 C767 1.524 . S
C768 C769 1.415 . S
C769 H739 0.950 . S
C769 C764 1.363 . S
C769 C768 1.415 . S
H770 C767 0.999 . S
H771 C752 0.913 . S
H772 C790 0.951 . S
H773 C792 0.951 1_545 S
H774 C794 0.950 . S
H775 C795 0.950 . S
H776 C797 0.950 . S
H777 C800 0.950 . S
H778 C801 0.950 . S
H779 C803 0.950 . S
H780 C804 0.950 . S
H781 C805 0.951 . S
H782 C807 0.951 . S
H783 C809 0.950 . S
H784 C810 0.950 . S
H785 C812 0.950 . S
H786 C815 0.950 . S
H787 C816 0.950 . S
H788 C818 0.950 . S
H789 C819 0.950 . S
C790 H772 0.951 . S
C790 C791 1.366 . S
C790 C792 1.388 . S
C791 C790 1.366 . S
C791 C795 1.385 . S
C792 H773 0.951 1_565 S
C792 C790 1.388 . S
C792 C793 1.366 . S
C793 C792 1.366 . S
C793 C794 1.414 . S
C793 C796 1.499 . S
C794 H774 0.950 . S
C794 C793 1.414 . S
C794 C795 1.374 . S
C795 H775 0.950 . S
C795 C791 1.385 . S
C795 C794 1.374 . S
C796 C793 1.499 . S
C796 C797 1.373 . S
C796 C798 1.389 1_565 S
C797 H776 0.950 . S
C797 C796 1.373 . S
C797 C813 1.377 . S
C798 C796 1.389 1_545 S
C798 C799 1.524 . S
C798 C812 1.377 . S
C799 C798 1.524 . S
C799 C800 1.397 . S
C799 C804 1.363 . S
C800 H777 0.950 . S
C800 C799 1.397 . S
C800 C801 1.334 . S
C801 H778 0.950 . S
C801 C800 1.334 . S
C801 C802 1.287 . S
C802 C801 1.287 . S
C802 C803 1.524 . S
C802 H821 0.913 . S
C803 H779 0.950 . S
C803 C802 1.524 . S
C803 C804 1.415 . S
C804 H780 0.950 . S
C804 C799 1.363 . S
C804 C803 1.415 . S
C805 H781 0.951 . S
C805 C806 1.366 1_565 S
C805 C807 1.388 . S
C806 C805 1.366 1_545 S
C806 C810 1.385 1_655 S
C807 H782 0.951 . S
C807 C805 1.388 . S
C807 C808 1.366 . S
C808 C807 1.366 . S
C808 C809 1.414 1_665 S
C808 C811 1.499 . S
C809 H783 0.950 . S
C809 C808 1.414 1_445 S
C809 C810 1.374 . S
C810 H784 0.950 . S
C810 C806 1.385 1_455 S
C810 C809 1.374 . S
C811 C808 1.499 . S
C811 C812 1.373 1_565 S
C811 C813 1.389 . S
C812 H785 0.950 . S
C812 C798 1.377 . S
C812 C811 1.373 1_545 S
C813 C797 1.377 . S
C813 C811 1.389 . S
C813 C814 1.524 . S
C814 C813 1.524 . S
C814 C815 1.397 1_655 S
C814 C819 1.363 . S
C815 H786 0.950 . S
C815 C814 1.397 1_455 S
C815 C816 1.334 . S
C816 H787 0.950 . S
C816 C815 1.334 . S
C816 C817 1.287 . S
C817 C816 1.287 . S
C817 C818 1.524 1_455 S
C817 H820 0.999 . S
C818 H788 0.950 . S
C818 C817 1.524 1_655 S
C818 C819 1.415 . S
C819 H789 0.950 . S
C819 C814 1.363 . S
C819 C818 1.415 . S
H820 C817 0.999 . S
H821 C802 0.913 . S
H822 C840 0.951 . S
H823 C842 0.951 . S
H824 C844 0.950 . S
H825 C845 0.950 . S
H826 C847 0.950 . S
H827 C850 0.950 . S
H828 C851 0.950 . S
H829 C853 0.950 . S
H830 C854 0.950 . S
H831 C855 0.951 . S
H832 C857 0.951 . S
H833 C859 0.950 . S
H834 C860 0.950 . S
H835 C862 0.950 . S
H836 C865 0.960 . S
H837 C866 0.950 . S
H838 C868 0.950 . S
H839 C869 0.950 1_545 S
C840 H822 0.951 . S
C840 C841 1.366 . S
C840 C842 1.388 . S
C841 C840 1.366 . S
C841 C845 1.385 . S
C842 H823 0.951 . S
C842 C840 1.388 . S
C842 C843 1.366 . S
C843 C842 1.366 . S
C843 C844 1.414 . S
C843 C846 1.499 . S
C844 H824 0.950 . S
C844 C843 1.414 . S
C844 C845 1.374 . S
C845 H825 0.950 . S
C845 C841 1.385 . S
C845 C844 1.374 . S
C846 C843 1.499 . S
C846 C847 1.373 . S
C846 C848 1.389 . S
C847 H826 0.950 . S
C847 C846 1.373 . S
C847 C863 1.377 . S
C848 C846 1.389 . S
C848 C849 1.524 . S
C848 C862 1.377 . S
C849 C848 1.524 . S
C849 C850 1.397 . S
C849 C854 1.363 . S
C850 H827 0.950 . S
C850 C849 1.397 . S
C850 C851 1.334 . S
C851 H828 0.950 . S
C851 C850 1.334 . S
C851 C852 1.287 . S
C852 C851 1.287 . S
C852 C853 1.524 . S
C852 H871 0.913 . S
C853 H829 0.950 . S
C853 C852 1.524 . S
C853 C854 1.415 . S
C854 H830 0.950 . S
C854 C849 1.363 . S
C854 C853 1.415 . S
C855 H831 0.951 . S
C855 C856 1.366 . S
C855 C857 1.388 . S
C856 C855 1.366 . S
C856 C860 1.385 . S
C857 H832 0.951 . S
C857 C855 1.388 . S
C857 C858 1.366 . S
C858 C857 1.366 . S
C858 C859 1.414 . S
C858 C861 1.499 . S
C859 H833 0.950 . S
C859 C858 1.414 . S
C859 C860 1.374 . S
C860 H834 0.950 . S
C860 C856 1.385 . S
C860 C859 1.374 . S
C861 C858 1.499 . S
C861 C862 1.373 . S
C861 C863 1.389 . S
C862 H835 0.950 . S
C862 C848 1.377 . S
C862 C861 1.373 . S
C863 C847 1.377 . S
C863 C861 1.389 . S
C863 C864 1.524 . S
C864 C863 1.524 . S
C864 C865 1.397 1_545 S
C864 C869 1.363 1_545 S
C865 H836 0.960 . S
C865 C864 1.397 1_565 S
C865 C866 1.334 . S
C866 H837 0.950 . S
C866 C865 1.334 . S
C866 C867 1.287 . S
C867 C866 1.287 . S
C867 C868 1.524 . S
C867 H870 0.999 . S
C868 H838 0.950 . S
C868 C867 1.524 . S
C868 C869 1.415 . S
C869 H839 0.950 1_565 S
C869 C864 1.363 1_565 S
C869 C868 1.415 . S
H870 C867 0.999 . S
H871 C852 0.913 . S
H872 C890 0.951 . S
H873 C892 0.951 . S
H874 C894 0.950 . S
H875 C895 0.950 . S
H876 C897 0.950 . S
H877 C900 0.950 . S
H878 C901 0.950 . S
H879 C903 0.950 . S
H880 C904 0.950 . S
H881 C905 0.951 . S
H882 C907 0.951 . S
H883 C909 0.950 . S
H884 C910 0.950 . S
H885 C912 0.950 . S
H886 C915 0.950 . S
H887 C916 0.950 . S
H888 C918 0.950 . S
H889 C919 0.950 . S
C890 H872 0.951 . S
C890 C891 1.366 . S
C890 C892 1.388 . S
C891 C890 1.366 . S
C891 C895 1.385 . S
C892 H873 0.951 . S
C892 C890 1.388 . S
C892 C893 1.366 . S
C893 C892 1.366 . S
C893 C894 1.414 . S
C893 C896 1.499 . S
C894 H874 0.950 . S
C894 C893 1.414 . S
C894 C895 1.374 . S
C895 H875 0.950 . S
C895 C891 1.385 . S
C895 C894 1.374 . S
C896 C893 1.499 . S
C896 C897 1.373 . S
C896 C898 1.389 . S
C897 H876 0.950 . S
C897 C896 1.373 . S
C897 C913 1.377 . S
C898 C896 1.389 . S
C898 C899 1.524 . S
C898 C912 1.377 . S
C899 C898 1.524 . S
C899 C900 1.397 . S
C899 C904 1.363 . S
C900 H877 0.950 . S
C900 C899 1.397 . S
C900 C901 1.334 . S
C901 H878 0.950 . S
C901 C900 1.334 . S
C901 C902 1.287 . S
C902 C901 1.287 . S
C902 C903 1.524 . S
C902 H921 0.913 . S
C903 H879 0.950 . S
C903 C902 1.524 . S
C903 C904 1.415 . S
C904 H880 0.950 . S
C904 C899 1.363 . S
C904 C903 1.415 . S
C905 H881 0.951 . S
C905 C906 1.366 . S
C905 C907 1.388 . S
C906 C905 1.366 . S
C906 C910 1.385 . S
C907 H882 0.951 . S
C907 C905 1.388 . S
C907 C908 1.366 . S
C908 C907 1.366 . S
C908 C909 1.414 . S
C908 C911 1.499 . S
C909 H883 0.950 . S
C909 C908 1.414 . S
C909 C910 1.374 . S
C910 H884 0.950 . S
C910 C906 1.385 . S
C910 C909 1.374 . S
C911 C908 1.499 . S
C911 C912 1.373 . S
C911 C913 1.389 . S
C912 H885 0.950 . S
C912 C898 1.377 . S
C912 C911 1.373 . S
C913 C897 1.377 . S
C913 C911 1.389 . S
C913 C914 1.524 . S
C914 C913 1.524 . S
C914 C915 1.397 . S
C914 C919 1.363 . S
C915 H886 0.950 . S
C915 C914 1.397 . S
C915 C916 1.334 . S
C916 H887 0.950 . S
C916 C915 1.334 . S
C916 C917 1.287 . S
C917 C916 1.287 . S
C917 C918 1.524 . S
C917 H920 0.999 . S
C918 H888 0.950 . S
C918 C917 1.524 . S
C918 C919 1.415 . S
C919 H889 0.950 . S
C919 C914 1.363 . S
C919 C918 1.415 . S
H920 C917 0.999 . S
H921 C902 0.913 . S
H922 C940 0.951 . S
H923 C942 0.951 . S
H924 C944 0.950 . S
H925 C945 0.950 . S
H926 C947 0.950 . S
H927 C950 0.950 . S
H928 C951 0.950 . S
H929 C953 0.950 . S
H930 C954 0.950 . S
H931 C955 0.951 . S
H932 C957 0.951 . S
H933 C959 0.950 . S
H934 C960 0.950 . S
H935 C962 0.950 . S
H936 C965 0.950 . S
H937 C966 0.950 . S
H938 C968 0.950 . S
H939 C969 0.950 . S
C940 H922 0.951 . S
C940 C941 1.366 . S
C940 C942 1.388 . S
C941 C940 1.366 . S
C941 C945 1.385 . S
C942 H923 0.951 . S
C942 C940 1.388 . S
C942 C943 1.366 . S
C943 C942 1.366 . S
C943 C944 1.414 . S
C943 C946 1.499 . S
C944 H924 0.950 . S
C944 C943 1.414 . S
C944 C945 1.374 . S
C945 H925 0.950 . S
C945 C941 1.385 . S
C945 C944 1.374 . S
C946 C943 1.499 . S
C946 C947 1.373 . S
C946 C948 1.389 . S
C947 H926 0.950 . S
C947 C946 1.373 . S
C947 C963 1.377 . S
C948 C946 1.389 . S
C948 C949 1.524 . S
C948 C962 1.377 . S
C949 C948 1.524 . S
C949 C950 1.397 . S
C949 C954 1.363 . S
C950 H927 0.950 . S
C950 C949 1.397 . S
C950 C951 1.334 . S
C951 H928 0.950 . S
C951 C950 1.334 . S
C951 C952 1.287 . S
C952 C951 1.287 . S
C952 C953 1.524 . S
C952 H971 0.913 . S
C953 H929 0.950 . S
C953 C952 1.524 . S
C953 C954 1.415 . S
C954 H930 0.950 . S
C954 C949 1.363 . S
C954 C953 1.415 . S
C955 H931 0.951 . S
C955 C956 1.366 . S
C955 C957 1.388 . S
C956 C955 1.366 . S
C956 C960 1.385 . S
C957 H932 0.951 . S
C957 C955 1.388 . S
C957 C958 1.366 . S
C958 C957 1.366 . S
C958 C959 1.414 . S
C958 C961 1.499 . S
C959 H933 0.950 . S
C959 C958 1.414 . S
C959 C960 1.374 . S
C960 H934 0.950 . S
C960 C956 1.385 . S
C960 C959 1.374 . S
C961 C958 1.499 . S
C961 C962 1.373 . S
C961 C963 1.389 . S
C962 H935 0.950 . S
C962 C948 1.377 . S
C962 C961 1.373 . S
C963 C947 1.377 . S
C963 C961 1.389 . S
C963 C964 1.524 . S
C964 C963 1.524 . S
C964 C965 1.397 . S
C964 C969 1.363 . S
C965 H936 0.950 . S
C965 C964 1.397 . S
C965 C966 1.334 . S
C966 H937 0.950 . S
C966 C965 1.334 . S
C966 C967 1.287 . S
C967 C966 1.287 . S
C967 C968 1.524 1_455 S
C967 H970 0.999 1_455 S
C968 H938 0.950 . S
C968 C967 1.524 1_655 S
C968 C969 1.415 1_655 S
C969 H939 0.950 . S
C969 C964 1.363 . S
C969 C968 1.415 1_455 S
H970 C967 0.999 1_655 S
H971 C952 0.913 . S
H972 C990 0.951 . S
H973 C992 0.951 . S
H974 C994 0.950 1_545 S
H975 C995 0.950 1_545 S
H976 C997 0.950 . S
H977 C1000 0.950 . S
H978 C1001 0.950 . S
H979 C1003 0.950 . S
H980 C1004 0.950 . S
H981 C1005 0.951 . S
H982 C1007 0.951 . S
H983 C1009 0.950 . S
H984 C1010 0.950 . S
H985 C1012 0.950 1_556 S
H986 C1015 0.950 . S
H987 C1016 0.950 . S
H988 C1018 0.950 . S
H989 C1019 0.950 1_545 S
C990 H972 0.951 . S
C990 C991 1.366 1_556 S
C990 C992 1.388 . S
C991 C990 1.366 1_554 S
C991 C995 1.385 . S
C992 H973 0.951 . S
C992 C990 1.388 . S
C992 C993 1.366 1_556 S
C993 C992 1.366 1_554 S
C993 C994 1.414 . S
C993 C996 1.499 . S
C994 H974 0.950 1_565 S
C994 C993 1.414 . S
C994 C995 1.374 . S
C995 H975 0.950 1_565 S
C995 C991 1.385 . S
C995 C994 1.374 . S
C996 C993 1.499 . S
C996 C997 1.373 . S
C996 C998 1.389 . S
C997 H976 0.950 . S
C997 C996 1.373 . S
C997 C1013 1.377 . S
C998 C996 1.389 . S
C998 C999 1.524 1_564 S
C998 C1012 1.377 . S
C999 C998 1.524 1_546 S
C999 C1000 1.399 . S
C999 C1004 1.362 1_545 S
C1000 H977 0.950 . S
C1000 C999 1.399 . S
C1000 C1001 1.334 . S
C1001 H978 0.950 . S
C1001 C1000 1.334 . S
C1001 C1002 1.287 . S
C1002 C1001 1.287 . S
C1002 C1003 1.524 1_545 S
C1002 H1021 0.913 . S
C1003 H979 0.950 . S
C1003 C1002 1.524 1_565 S
C1003 C1004 1.415 . S
C1004 H980 0.950 . S
C1004 C999 1.362 1_565 S
C1004 C1003 1.415 . S
C1005 H981 0.951 . S
C1005 C1006 1.366 . S
C1005 C1007 1.388 . S
C1006 C1005 1.366 . S
C1006 C1010 1.385 1_545 S
C1007 H982 0.951 . S
C1007 C1005 1.388 . S
C1007 C1008 1.366 1_545 S
C1008 C1007 1.366 1_565 S
C1008 C1009 1.414 . S
C1008 C1011 1.499 . S
C1009 H983 0.950 . S
C1009 C1008 1.414 . S
C1009 C1010 1.374 . S
C1010 H984 0.950 . S
C1010 C1006 1.385 1_565 S
C1010 C1009 1.374 . S
C1011 C1008 1.499 . S
C1011 C1012 1.373 . S
C1011 C1013 1.389 . S
C1012 H985 0.950 1_554 S
C1012 C998 1.377 . S
C1012 C1011 1.373 . S
C1013 C997 1.377 . S
C1013 C1011 1.389 . S
C1013 C1014 1.524 . S
C1014 C1013 1.524 . S
C1014 C1015 1.397 . S
C1014 C1019 1.363 . S
C1015 H986 0.950 . S
C1015 C1014 1.397 . S
C1015 C1016 1.334 . S
C1016 H987 0.950 . S
C1016 C1015 1.334 . S
C1016 C1017 1.287 . S
C1017 C1016 1.287 . S
C1017 C1018 1.524 . S
C1017 H1020 0.999 . S
C1018 H988 0.950 . S
C1018 C1017 1.524 . S
C1018 C1019 1.415 . S
C1019 H989 0.950 1_565 S
C1019 C1014 1.363 . S
C1019 C1018 1.415 . S
H1020 C1017 0.999 . S
H1021 C1002 0.913 . S
H1022 C1040 0.951 . S
H1023 C1042 0.951 . S
H1024 C1044 0.950 . S
H1025 C1045 0.950 . S
H1026 C1047 0.950 . S
H1027 C1050 0.950 . S
H1028 C1051 0.950 . S
H1029 C1053 0.950 . S
H1030 C1054 0.950 . S
H1031 C1055 0.951 . S
H1032 C1057 0.951 . S
H1033 C1059 0.950 1_565 S
H1034 C1060 0.950 1_565 S
H1035 C1062 0.950 . S
H1036 C1065 0.950 . S
H1037 C1066 0.950 . S
H1038 C1068 0.950 . S
H1039 C1069 0.950 . S
C1040 H1022 0.951 . S
C1040 C1041 1.366 . S
C1040 C1042 1.388 . S
C1041 C1040 1.366 . S
C1041 C1045 1.385 . S
C1042 H1023 0.951 . S
C1042 C1040 1.388 . S
C1042 C1043 1.366 . S
C1043 C1042 1.366 . S
C1043 C1044 1.414 . S
C1043 C1046 1.499 . S
C1044 H1024 0.950 . S
C1044 C1043 1.414 . S
C1044 C1045 1.374 . S
C1045 H1025 0.950 . S
C1045 C1041 1.385 . S
C1045 C1044 1.374 . S
C1046 C1043 1.499 . S
C1046 C1047 1.373 . S
C1046 C1048 1.389 . S
C1047 H1026 0.950 . S
C1047 C1046 1.373 . S
C1047 C1063 1.377 . S
C1048 C1046 1.389 . S
C1048 C1049 1.524 . S
C1048 C1062 1.377 . S
C1049 C1048 1.524 . S
C1049 C1050 1.397 . S
C1049 C1054 1.363 1_545 S
C1050 H1027 0.950 . S
C1050 C1049 1.397 . S
C1050 C1051 1.334 . S
C1051 H1028 0.950 . S
C1051 C1050 1.334 . S
C1051 C1052 1.287 . S
C1052 C1051 1.287 . S
C1052 C1053 1.524 1_545 S
C1052 H1071 0.913 . S
C1053 H1029 0.950 . S
C1053 C1052 1.524 1_565 S
C1053 C1054 1.415 . S
C1054 H1030 0.950 . S
C1054 C1049 1.363 1_565 S
C1054 C1053 1.415 . S
C1055 H1031 0.951 . S
C1055 C1056 1.366 . S
C1055 C1057 1.388 . S
C1056 C1055 1.366 . S
C1056 C1060 1.385 . S
C1057 H1032 0.951 . S
C1057 C1055 1.388 . S
C1057 C1058 1.366 . S
C1058 C1057 1.366 . S
C1058 C1059 1.414 . S
C1058 C1061 1.499 . S
C1059 H1033 0.950 1_545 S
C1059 C1058 1.414 . S
C1059 C1060 1.374 . S
C1060 H1034 0.950 1_545 S
C1060 C1056 1.385 . S
C1060 C1059 1.374 . S
C1061 C1058 1.499 . S
C1061 C1062 1.373 . S
C1061 C1063 1.389 . S
C1062 H1035 0.950 . S
C1062 C1048 1.377 . S
C1062 C1061 1.373 . S
C1063 C1047 1.377 . S
C1063 C1061 1.389 . S
C1063 C1064 1.524 . S
C1064 C1063 1.524 . S
C1064 C1065 1.397 . S
C1064 C1069 1.363 . S
C1065 H1036 0.950 . S
C1065 C1064 1.397 . S
C1065 C1066 1.334 . S
C1066 H1037 0.950 . S
C1066 C1065 1.334 . S
C1066 C1067 1.287 . S
C1067 C1066 1.287 . S
C1067 C1068 1.524 . S
C1067 H1070 0.999 . S
C1068 H1038 0.950 . S
C1068 C1067 1.524 . S
C1068 C1069 1.415 . S
C1069 H1039 0.950 . S
C1069 C1064 1.363 . S
C1069 C1068 1.415 . S
H1070 C1067 0.999 . S
H1071 C1052 0.913 . S
H1072 C1090 0.951 . S
H1073 C1092 0.951 . S
H1074 C1094 0.950 . S
H1075 C1095 0.950 . S
H1076 C1097 0.950 . S
H1077 C1100 0.950 . S
H1078 C1101 0.950 . S
H1079 C1103 0.950 . S
H1080 C1104 0.950 . S
H1081 C1105 0.951 . S
H1082 C1107 0.951 . S
H1083 C1109 0.950 . S
H1084 C1110 0.950 1_556 S
H1085 C1112 0.950 . S
H1086 C1115 0.950 . S
H1087 C1116 0.950 . S
H1088 C1118 0.950 . S
H1089 C1119 0.950 . S
C1090 H1072 0.951 . S
C1090 C1091 1.366 . S
C1090 C1092 1.388 . S
C1091 C1090 1.366 . S
C1091 C1095 1.385 . S
C1092 H1073 0.951 . S
C1092 C1090 1.388 . S
C1092 C1093 1.366 . S
C1093 C1092 1.366 . S
C1093 C1094 1.414 . S
C1093 C1096 1.499 . S
C1094 H1074 0.950 . S
C1094 C1093 1.414 . S
C1094 C1095 1.374 . S
C1095 H1075 0.950 . S
C1095 C1091 1.385 . S
C1095 C1094 1.374 . S
C1096 C1093 1.499 . S
C1096 C1097 1.373 . S
C1096 C1098 1.389 . S
C1097 H1076 0.950 . S
C1097 C1096 1.373 . S
C1097 C1113 1.377 . S
C1098 C1096 1.389 . S
C1098 C1099 1.524 . S
C1098 C1112 1.377 . S
C1099 C1098 1.524 . S
C1099 C1100 1.397 . S
C1099 C1104 1.363 1_554 S
C1100 H1077 0.950 . S
C1100 C1099 1.397 . S
C1100 C1101 1.334 1_554 S
C1101 H1078 0.950 . S
C1101 C1100 1.334 1_556 S
C1101 C1102 1.287 . S
C1102 C1101 1.287 . S
C1102 C1103 1.524 . S
C1102 H1121 0.913 . S
C1103 H1079 0.950 . S
C1103 C1102 1.524 . S
C1103 C1104 1.415 . S
C1104 H1080 0.950 . S
C1104 C1099 1.363 1_556 S
C1104 C1103 1.415 . S
C1105 H1081 0.951 . S
C1105 C1106 1.366 . S
C1105 C1107 1.388 . S
C1106 C1105 1.366 . S
C1106 C1110 1.385 . S
C1107 H1082 0.951 . S
C1107 C1105 1.388 . S
C1107 C1108 1.366 . S
C1108 C1107 1.366 . S
C1108 C1109 1.414 . S
C1108 C1111 1.499 . S
C1109 H1083 0.950 . S
C1109 C1108 1.414 . S
C1109 C1110 1.374 . S
C1110 H1084 0.950 1_554 S
C1110 C1106 1.385 . S
C1110 C1109 1.374 . S
C1111 C1108 1.499 . S
C1111 C1112 1.373 . S
C1111 C1113 1.389 . S
C1112 H1085 0.950 . S
C1112 C1098 1.377 . S
C1112 C1111 1.373 . S
C1113 C1097 1.377 . S
C1113 C1111 1.389 . S
C1113 C1114 1.524 . S
C1114 C1113 1.524 . S
C1114 C1115 1.397 . S
C1114 C1119 1.363 . S
C1115 H1086 0.950 . S
C1115 C1114 1.397 . S
C1115 C1116 1.334 . S
C1116 H1087 0.950 . S
C1116 C1115 1.334 . S
C1116 C1117 1.287 . S
C1117 C1116 1.287 . S
C1117 C1118 1.524 . S
C1117 H1120 0.999 . S
C1118 H1088 0.950 . S
C1118 C1117 1.524 . S
C1118 C1119 1.415 . S
C1119 H1089 0.950 . S
C1119 C1114 1.363 . S
C1119 C1118 1.415 . S
H1120 C1117 0.999 . S
H1121 C1102 0.913 . S
H1122 C1140 0.951 . S
H1123 C1142 0.951 . S
H1124 C1144 0.950 . S
H1125 C1145 0.950 . S
H1126 C1147 0.950 . S
H1127 C1150 0.950 . S
H1128 C1151 0.950 . S
H1129 C1153 0.950 . S
H1130 C1154 0.950 . S
H1131 C1155 0.951 . S
H1132 C1157 0.951 . S
H1133 C1159 0.950 . S
H1134 C1160 0.950 . S
H1135 C1162 0.950 . S
H1136 C1165 0.950 . S
H1137 C1166 0.950 . S
H1138 C1168 0.950 . S
H1139 C1169 0.950 . S
C1140 H1122 0.951 . S
C1140 C1141 1.366 . S
C1140 C1142 1.388 . S
C1141 C1140 1.366 . S
C1141 C1145 1.385 . S
C1142 H1123 0.951 . S
C1142 C1140 1.388 . S
C1142 C1143 1.366 . S
C1143 C1142 1.366 . S
C1143 C1144 1.414 . S
C1143 C1146 1.499 . S
C1144 H1124 0.950 . S
C1144 C1143 1.414 . S
C1144 C1145 1.374 . S
C1145 H1125 0.950 . S
C1145 C1141 1.385 . S
C1145 C1144 1.374 . S
C1146 C1143 1.499 . S
C1146 C1147 1.373 . S
C1146 C1148 1.389 . S
C1147 H1126 0.950 . S
C1147 C1146 1.373 . S
C1147 C1163 1.377 . S
C1148 C1146 1.389 . S
C1148 C1149 1.524 . S
C1148 C1162 1.377 . S
C1149 C1148 1.524 . S
C1149 C1150 1.397 . S
C1149 C1154 1.363 . S
C1150 H1127 0.950 . S
C1150 C1149 1.397 . S
C1150 C1151 1.334 . S
C1151 H1128 0.950 . S
C1151 C1150 1.334 . S
C1151 C1152 1.287 . S
C1152 C1151 1.287 . S
C1152 C1153 1.524 . S
C1152 H1171 0.913 . S
C1153 H1129 0.950 . S
C1153 C1152 1.524 . S
C1153 C1154 1.415 . S
C1154 H1130 0.950 . S
C1154 C1149 1.363 . S
C1154 C1153 1.415 . S
C1155 H1131 0.951 . S
C1155 C1156 1.366 . S
C1155 C1157 1.388 . S
C1156 C1155 1.366 . S
C1156 C1160 1.385 . S
C1157 H1132 0.951 . S
C1157 C1155 1.388 . S
C1157 C1158 1.366 . S
C1158 C1157 1.366 . S
C1158 C1159 1.414 . S
C1158 C1161 1.499 . S
C1159 H1133 0.950 . S
C1159 C1158 1.414 . S
C1159 C1160 1.374 . S
C1160 H1134 0.950 . S
C1160 C1156 1.385 . S
C1160 C1159 1.374 . S
C1161 C1158 1.499 . S
C1161 C1162 1.373 . S
C1161 C1163 1.389 . S
C1162 H1135 0.950 . S
C1162 C1148 1.377 . S
C1162 C1161 1.373 . S
C1163 C1147 1.377 . S
C1163 C1161 1.389 . S
C1163 C1164 1.524 . S
C1164 C1163 1.524 . S
C1164 C1165 1.397 . S
C1164 C1169 1.363 . S
C1165 H1136 0.950 . S
C1165 C1164 1.397 . S
C1165 C1166 1.334 . S
C1166 H1137 0.950 . S
C1166 C1165 1.334 . S
C1166 C1167 1.287 . S
C1167 C1166 1.287 . S
C1167 C1168 1.524 . S
C1167 H1170 0.999 . S
C1168 H1138 0.950 . S
C1168 C1167 1.524 . S
C1168 C1169 1.415 . S
C1169 H1139 0.950 . S
C1169 C1164 1.363 . S
C1169 C1168 1.415 . S
H1170 C1167 0.999 . S
H1171 C1152 0.913 . S
H1172 C1190 0.951 . S
H1173 C1192 0.951 . S
H1174 C1194 0.950 . S
H1175 C1195 0.950 . S
H1176 C1197 0.950 . S
H1177 C1200 0.950 . S
H1178 C1201 0.950 . S
H1179 C1203 0.950 . S
H1180 C1204 0.950 . S
H1181 C1205 0.951 . S
H1182 C1207 0.951 1_655 S
H1183 C1209 0.950 . S
H1184 C1210 0.950 . S
H1185 C1212 0.950 . S
H1186 C1215 0.950 . S
H1187 C1216 0.950 . S
H1188 C1218 0.950 1_655 S
H1189 C1219 0.950 . S
C1190 H1172 0.951 . S
C1190 C1191 1.366 1_455 S
C1190 C1192 1.388 . S
C1191 C1190 1.366 1_655 S
C1191 C1195 1.385 1_556 S
C1192 H1173 0.951 . S
C1192 C1190 1.388 . S
C1192 C1193 1.364 . S
C1193 C1192 1.364 . S
C1193 C1194 1.417 1_456 S
C1193 C1196 1.498 . S
C1194 H1174 0.950 . S
C1194 C1193 1.417 1_654 S
C1194 C1195 1.374 . S
C1195 H1175 0.950 . S
C1195 C1191 1.385 1_554 S
C1195 C1194 1.374 . S
C1196 C1193 1.498 . S
C1196 C1197 1.373 1_556 S
C1196 C1198 1.389 . S
C1197 H1176 0.950 . S
C1197 C1196 1.373 1_554 S
C1197 C1213 1.377 . S
C1198 C1196 1.389 . S
C1198 C1199 1.524 . S
C1198 C1212 1.377 . S
C1199 C1198 1.524 . S
C1199 C1200 1.397 1_455 S
C1199 C1204 1.363 . S
C1200 H1177 0.950 . S
C1200 C1199 1.397 1_655 S
C1200 C1201 1.334 . S
C1201 H1178 0.950 . S
C1201 C1200 1.334 . S
C1201 C1202 1.287 . S
C1202 C1201 1.287 . S
C1202 C1203 1.524 1_655 S
C1202 H1221 0.913 . S
C1203 H1179 0.950 . S
C1203 C1202 1.524 1_455 S
C1203 C1204 1.415 . S
C1204 H1180 0.950 . S
C1204 C1199 1.363 . S
C1204 C1203 1.415 . S
C1205 H1181 0.951 . S
C1205 C1206 1.369 . S
C1205 C1207 1.388 . S
C1206 C1205 1.369 . S
C1206 C1210 1.381 1_554 S
C1207 H1182 0.951 1_455 S
C1207 C1205 1.388 . S
C1207 C1208 1.382 . S
C1208 C1207 1.382 . S
C1208 C1209 1.399 1_554 S
C1208 C1211 1.496 1_554 S
C1209 H1183 0.950 . S
C1209 C1208 1.399 1_556 S
C1209 C1210 1.374 . S
C1210 H1184 0.950 . S
C1210 C1206 1.381 1_556 S
C1210 C1209 1.374 . S
C1211 C1208 1.496 1_556 S
C1211 C1212 1.371 . S
C1211 C1213 1.391 1_556 S
C1212 H1185 0.950 . S
C1212 C1198 1.377 . S
C1212 C1211 1.371 . S
C1213 C1197 1.377 . S
C1213 C1211 1.391 1_554 S
C1213 C1214 1.524 . S
C1214 C1213 1.524 . S
C1214 C1215 1.397 . S
C1214 C1219 1.363 1_455 S
C1215 H1186 0.950 . S
C1215 C1214 1.397 . S
C1215 C1216 1.334 . S
C1216 H1187 0.950 . S
C1216 C1215 1.334 . S
C1216 C1217 1.287 . S
C1217 C1216 1.287 . S
C1217 C1218 1.524 . S
C1217 H1220 0.999 . S
C1218 H1188 0.950 1_455 S
C1218 C1217 1.524 . S
C1218 C1219 1.415 1_455 S
C1219 H1189 0.950 . S
C1219 C1214 1.363 1_655 S
C1219 C1218 1.415 1_655 S
H1220 C1217 0.999 . S
H1221 C1202 0.913 . S
H1222 C1240 0.951 . S
H1223 C1242 0.951 . S
H1224 C1244 0.950 . S
H1225 C1245 0.950 . S
H1226 C1247 0.950 . S
H1227 C1250 0.950 . S
H1228 C1251 0.950 . S
H1229 C1253 0.950 . S
H1230 C1254 0.950 . S
H1231 C1255 0.951 . S
H1232 C1257 0.951 . S
H1233 C1259 0.950 . S
H1234 C1260 0.950 . S
H1235 C1262 0.950 . S
H1236 C1265 0.950 . S
H1237 C1266 0.950 . S
H1238 C1268 0.950 . S
H1239 C1269 0.950 . S
C1240 H1222 0.951 . S
C1240 C1241 1.366 . S
C1240 C1242 1.388 . S
C1241 C1240 1.366 . S
C1241 C1245 1.385 . S
C1242 H1223 0.951 . S
C1242 C1240 1.388 . S
C1242 C1243 1.366 . S
C1243 C1242 1.366 . S
C1243 C1244 1.414 . S
C1243 C1246 1.499 . S
C1244 H1224 0.950 . S
C1244 C1243 1.414 . S
C1244 C1245 1.374 . S
C1245 H1225 0.950 . S
C1245 C1241 1.385 . S
C1245 C1244 1.374 . S
C1246 C1243 1.499 . S
C1246 C1247 1.373 . S
C1246 C1248 1.389 . S
C1247 H1226 0.950 . S
C1247 C1246 1.373 . S
C1247 C1263 1.377 . S
C1248 C1246 1.389 . S
C1248 C1249 1.524 . S
C1248 C1262 1.377 . S
C1249 C1248 1.524 . S
C1249 C1250 1.397 . S
C1249 C1254 1.363 . S
C1250 H1227 0.950 . S
C1250 C1249 1.397 . S
C1250 C1251 1.334 . S
C1251 H1228 0.950 . S
C1251 C1250 1.334 . S
C1251 C1252 1.287 . S
C1252 C1251 1.287 . S
C1252 C1253 1.524 . S
C1252 H1271 0.913 . S
C1253 H1229 0.950 . S
C1253 C1252 1.524 . S
C1253 C1254 1.415 . S
C1254 H1230 0.950 . S
C1254 C1249 1.363 . S
C1254 C1253 1.415 . S
C1255 H1231 0.951 . S
C1255 C1256 1.366 . S
C1255 C1257 1.388 . S
C1256 C1255 1.366 . S
C1256 C1260 1.385 . S
C1257 H1232 0.951 . S
C1257 C1255 1.388 . S
C1257 C1258 1.366 . S
C1258 C1257 1.366 . S
C1258 C1259 1.414 . S
C1258 C1261 1.499 . S
C1259 H1233 0.950 . S
C1259 C1258 1.414 . S
C1259 C1260 1.374 . S
C1260 H1234 0.950 . S
C1260 C1256 1.385 . S
C1260 C1259 1.374 . S
C1261 C1258 1.499 . S
C1261 C1262 1.373 . S
C1261 C1263 1.389 . S
C1262 H1235 0.950 . S
C1262 C1248 1.377 . S
C1262 C1261 1.373 . S
C1263 C1247 1.377 . S
C1263 C1261 1.389 . S
C1263 C1264 1.524 . S
C1264 C1263 1.524 . S
C1264 C1265 1.397 . S
C1264 C1269 1.363 . S
C1265 H1236 0.950 . S
C1265 C1264 1.397 . S
C1265 C1266 1.334 . S
C1266 H1237 0.950 . S
C1266 C1265 1.334 . S
C1266 C1267 1.287 . S
C1267 C1266 1.287 . S
C1267 C1268 1.524 . S
C1267 H1270 0.999 . S
C1268 H1238 0.950 . S
C1268 C1267 1.524 . S
C1268 C1269 1.415 . S
C1269 H1239 0.950 . S
C1269 C1264 1.363 . S
C1269 C1268 1.415 . S
H1270 C1267 0.999 . S
H1271 C1252 0.913 . S
H1272 C1290 0.951 . S
H1273 C1292 0.951 . S
H1274 C1294 0.950 . S
H1275 C1295 0.950 . S
H1276 C1297 0.950 . S
H1277 C1300 0.950 . S
H1278 C1301 0.950 . S
H1279 C1303 0.950 . S
H1280 C1304 0.950 . S
H1281 C1305 0.951 1_655 S
H1282 C1307 0.955 . S
H1283 C1309 0.950 . S
H1284 C1310 0.950 . S
H1285 C1312 0.950 . S
H1286 C1315 0.950 . S
H1287 C1316 0.950 . S
H1288 C1318 0.950 . S
H1289 C1319 0.950 . S
C1290 H1272 0.951 . S
C1290 C1291 1.366 . S
C1290 C1292 1.388 . S
C1291 C1290 1.366 . S
C1291 C1295 1.385 . S
C1292 H1273 0.951 . S
C1292 C1290 1.388 . S
C1292 C1293 1.366 . S
C1293 C1292 1.366 . S
C1293 C1294 1.414 . S
C1293 C1296 1.499 . S
C1294 H1274 0.950 . S
C1294 C1293 1.414 . S
C1294 C1295 1.374 . S
C1295 H1275 0.950 . S
C1295 C1291 1.385 . S
C1295 C1294 1.374 . S
C1296 C1293 1.499 . S
C1296 C1297 1.373 . S
C1296 C1298 1.389 . S
C1297 H1276 0.950 . S
C1297 C1296 1.373 . S
C1297 C1313 1.377 . S
C1298 C1296 1.389 . S
C1298 C1299 1.524 . S
C1298 C1312 1.377 . S
C1299 C1298 1.524 . S
C1299 C1300 1.397 . S
C1299 C1304 1.363 . S
C1300 H1277 0.950 . S
C1300 C1299 1.397 . S
C1300 C1301 1.334 . S
C1301 H1278 0.950 . S
C1301 C1300 1.334 . S
C1301 C1302 1.287 . S
C1302 C1301 1.287 . S
C1302 C1303 1.524 . S
C1302 H1321 0.913 . S
C1303 H1279 0.950 . S
C1303 C1302 1.524 . S
C1303 C1304 1.415 . S
C1304 H1280 0.950 . S
C1304 C1299 1.363 . S
C1304 C1303 1.415 . S
C1305 H1281 0.951 1_455 S
C1305 C1306 1.366 . S
C1305 C1307 1.388 . S
C1306 C1305 1.366 . S
C1306 C1310 1.385 . S
C1307 H1282 0.955 . S
C1307 C1305 1.388 . S
C1307 C1308 1.366 . S
C1308 C1307 1.366 . S
C1308 C1309 1.414 . S
C1308 C1311 1.499 . S
C1309 H1283 0.950 . S
C1309 C1308 1.414 . S
C1309 C1310 1.374 . S
C1310 H1284 0.950 . S
C1310 C1306 1.385 . S
C1310 C1309 1.374 . S
C1311 C1308 1.499 . S
C1311 C1312 1.373 . S
C1311 C1313 1.389 . S
C1312 H1285 0.950 . S
C1312 C1298 1.377 . S
C1312 C1311 1.373 . S
C1313 C1297 1.377 . S
C1313 C1311 1.389 . S
C1313 C1314 1.524 . S
C1314 C1313 1.524 . S
C1314 C1315 1.397 . S
C1314 C1319 1.363 1_455 S
C1315 H1286 0.950 . S
C1315 C1314 1.397 . S
C1315 C1316 1.334 . S
C1316 H1287 0.950 . S
C1316 C1315 1.334 . S
C1316 C1317 1.287 1_455 S
C1317 C1316 1.287 1_655 S
C1317 C1318 1.524 . S
C1317 H1320 0.999 . S
C1318 H1288 0.950 . S
C1318 C1317 1.524 . S
C1318 C1319 1.415 . S
C1319 H1289 0.950 . S
C1319 C1314 1.363 1_655 S
C1319 C1318 1.415 . S
H1320 C1317 0.999 . S
H1321 C1302 0.913 . S
H1322 C1340 0.951 . S
H1323 C1342 0.951 . S
H1324 C1344 0.950 . S
H1325 C1345 0.950 . S
H1326 C1347 0.950 . S
H1327 C1350 0.950 . S
H1328 C1351 0.950 . S
H1329 C1353 0.950 . S
H1330 C1354 0.950 . S
H1331 C1355 0.951 . S
H1332 C1357 0.951 . S
H1333 C1359 0.950 . S
H1334 C1360 0.950 . S
H1335 C1362 0.950 . S
H1336 C1365 0.950 . S
H1337 C1366 0.950 . S
H1338 C1368 0.950 . S
H1339 C1369 0.950 . S
C1340 H1322 0.951 . S
C1340 C1341 1.366 . S
C1340 C1342 1.388 . S
C1341 C1340 1.366 . S
C1341 C1345 1.385 . S
C1342 H1323 0.951 . S
C1342 C1340 1.388 . S
C1342 C1343 1.366 . S
C1343 C1342 1.366 . S
C1343 C1344 1.414 . S
C1343 C1346 1.499 . S
C1344 H1324 0.950 . S
C1344 C1343 1.414 . S
C1344 C1345 1.374 . S
C1345 H1325 0.950 . S
C1345 C1341 1.385 . S
C1345 C1344 1.374 . S
C1346 C1343 1.499 . S
C1346 C1347 1.373 . S
C1346 C1348 1.389 . S
C1347 H1326 0.950 . S
C1347 C1346 1.373 . S
C1347 C1363 1.377 . S
C1348 C1346 1.389 . S
C1348 C1349 1.524 . S
C1348 C1362 1.377 . S
C1349 C1348 1.524 . S
C1349 C1350 1.397 . S
C1349 C1354 1.363 . S
C1350 H1327 0.950 . S
C1350 C1349 1.397 . S
C1350 C1351 1.334 . S
C1351 H1328 0.950 . S
C1351 C1350 1.334 . S
C1351 C1352 1.287 . S
C1352 C1351 1.287 . S
C1352 C1353 1.524 . S
C1352 H1371 0.913 . S
C1353 H1329 0.950 . S
C1353 C1352 1.524 . S
C1353 C1354 1.415 . S
C1354 H1330 0.950 . S
C1354 C1349 1.363 . S
C1354 C1353 1.415 . S
C1355 H1331 0.951 . S
C1355 C1356 1.366 . S
C1355 C1357 1.388 . S
C1356 C1355 1.366 . S
C1356 C1360 1.385 . S
C1357 H1332 0.951 . S
C1357 C1355 1.388 . S
C1357 C1358 1.366 . S
C1358 C1357 1.366 . S
C1358 C1359 1.414 . S
C1358 C1361 1.499 . S
C1359 H1333 0.950 . S
C1359 C1358 1.414 . S
C1359 C1360 1.374 . S
C1360 H1334 0.950 . S
C1360 C1356 1.385 . S
C1360 C1359 1.374 . S
C1361 C1358 1.499 . S
C1361 C1362 1.373 . S
C1361 C1363 1.389 . S
C1362 H1335 0.950 . S
C1362 C1348 1.377 . S
C1362 C1361 1.373 . S
C1363 C1347 1.377 . S
C1363 C1361 1.389 . S
C1363 C1364 1.524 . S
C1364 C1363 1.524 . S
C1364 C1365 1.397 . S
C1364 C1369 1.363 . S
C1365 H1336 0.950 . S
C1365 C1364 1.397 . S
C1365 C1366 1.334 . S
C1366 H1337 0.950 . S
C1366 C1365 1.334 . S
C1366 C1367 1.287 . S
C1367 C1366 1.287 . S
C1367 C1368 1.524 . S
C1367 H1370 0.999 . S
C1368 H1338 0.950 . S
C1368 C1367 1.524 . S
C1368 C1369 1.415 . S
C1369 H1339 0.950 . S
C1369 C1364 1.363 . S
C1369 C1368 1.415 . S
H1370 C1367 0.999 . S
H1371 C1352 0.913 . S
C191 C5 1.715 . S
C206 C91 1.792 . S
C241 C18 1.579 . S
C256 C125 1.520 1_566 S
C306 C137 1.195 . S
C291 C30 1.261 . S
C341 C41 1.180 . S
C356 C171 1.119 . S
C406 C128 1.711 . S
C391 C7 1.774 . S
C456 C108 1.666 . S
C441 C16 1.584 . S
C506 C155 1.400 . S
C491 C29 1.475 . S
C556 C146 0.983 . S
C541 C38 0.936 . S
C591 C8 1.706 . S
C606 C154 1.590 . S
C656 C116 1.582 . S
C641 C27 1.516 . S
C691 C40 1.482 . S
C706 C92 1.381 . S
C741 C19 1.197 . S
C756 C149 1.137 . S
C806 C107 1.584 . S
C791 C51 1.676 . S
C841 C62 1.677 . S
C856 C129 1.659 . S
C891 C74 1.457 . S
C906 C134 1.414 . S
C941 C84 1.347 . S
C956 C167 1.370 . S
C991 C49 1.975 1_554 S
C1006 C112 1.919 . S
C1056 C104 1.520 . S
C1041 C63 1.571 . S
C1106 C158 1.394 . S
C1091 C71 1.177 . S
C1156 C150 1.163 . S
C1141 C85 1.197 . S
C1191 C52 1.726 . S
C1206 C170 1.629 1_554 S
C1256 C113 1.830 . S
C1241 C73 1.838 . S
C1306 C95 1.362 . S
C1291 C82 1.123 . S
C1341 C60 1.393 . S
C1356 C133 1.654 . S
