# Generated by pormake.
# Topology anh, (6,3)-cn, num edge types: 1
# Building blocks:
#     Node 0, Type 0, BuildingBlock: BETDEL_clean_sbu_0, # of connection points: 6
#     Node 1, Type 0, BuildingBlock: BETDEL_clean_sbu_0, # of connection points: 6
#     Node 2, Type 0, BuildingBlock: BETDEL_clean_sbu_0, # of connection points: 6
#     Node 3, Type 1, BuildingBlock: WUSLED_clean_sbu_0, # of connection points: 3
#     Node 4, Type 1, BuildingBlock: WUSLED_clean_sbu_0, # of connection points: 3
#     Node 5, Type 1, BuildingBlock: WUSLED_clean_sbu_0, # of connection points: 3
#     Node 6, Type 1, BuildingBlock: WUSLED_clean_sbu_0, # of connection points: 3
#     Node 7, Type 1, BuildingBlock: WUSLED_clean_sbu_0, # of connection points: 3
#     Node 8, Type 1, BuildingBlock: WUSLED_clean_sbu_0, # of connection points: 3
#     Edge 9, Type (0, 1), BuildingBlock: CIFDUS_clean_linker_0, # of connection points: 2
#     Edge 10, Type (0, 1), BuildingBlock: CIFDUS_clean_linker_0, # of connection points: 2
#     Edge 11, Type (0, 1), BuildingBlock: CIFDUS_clean_linker_0, # of connection points: 2
#     Edge 12, Type (0, 1), BuildingBlock: CIFDUS_clean_linker_0, # of connection points: 2
#     Edge 13, Type (0, 1), BuildingBlock: CIFDUS_clean_linker_0, # of connection points: 2
#     Edge 14, Type (0, 1), BuildingBlock: CIFDUS_clean_linker_0, # of connection points: 2
#     Edge 15, Type (0, 1), BuildingBlock: CIFDUS_clean_linker_0, # of connection points: 2
#     Edge 16, Type (0, 1), BuildingBlock: CIFDUS_clean_linker_0, # of connection points: 2
#     Edge 17, Type (0, 1), BuildingBlock: CIFDUS_clean_linker_0, # of connection points: 2
#     Edge 18, Type (0, 1), BuildingBlock: CIFDUS_clean_linker_0, # of connection points: 2
#     Edge 19, Type (0, 1), BuildingBlock: CIFDUS_clean_linker_0, # of connection points: 2
#     Edge 20, Type (0, 1), BuildingBlock: CIFDUS_clean_linker_0, # of connection points: 2
#     Edge 21, Type (0, 1), BuildingBlock: CIFDUS_clean_linker_0, # of connection points: 2
#     Edge 22, Type (0, 1), BuildingBlock: CIFDUS_clean_linker_0, # of connection points: 2
#     Edge 23, Type (0, 1), BuildingBlock: CIFDUS_clean_linker_0, # of connection points: 2
#     Edge 24, Type (0, 1), BuildingBlock: CIFDUS_clean_linker_0, # of connection points: 2
#     Edge 25, Type (0, 1), BuildingBlock: CIFDUS_clean_linker_0, # of connection points: 2
#     Edge 26, Type (0, 1), BuildingBlock: CIFDUS_clean_linker_0, # of connection points: 2
# Relax obj value: 0.134
# Max RMSD: 0.162
# Mean RMSD: 0.128
data_MOF--net-anh--node1-BETDEL_clean_sbu_0--node2-WUSLED_clean_sbu_0--edge1-CIFDUS_clean_linker_0
_symmetry_space_group_name_H-M    P1
_symmetry_Int_Tables_number       1
_symmetry_cell_setting            triclinic
loop_
_symmetry_equiv_pos_as_xyz
'x, y, z'
_cell_length_a     34.430966
_cell_length_b     34.375784
_cell_length_c     60.395124
_cell_angle_alpha  89.307128
_cell_angle_beta   89.978439
_cell_angle_gamma 120.14002
loop_
_atom_site_label
_atom_site_type_symbol
_atom_site_fract_x
_atom_site_fract_y
_atom_site_fract_z
_atom_type_partial_charge
Dy0 Dy 0.07809 0.50956 0.17819 0.0
C1 C 0.94315 0.55856 0.19696 0.0
C2 C 0.13581 0.49104 0.15625 0.0
Dy3 Dy 1.01681 0.55163 0.18801 0.0
O4 O 0.10617 0.46442 0.17081 0.0
O5 O 0.13279 0.52692 0.15325 0.0
O6 O 0.09252 0.49885 0.21376 0.0
O7 O 0.05441 0.52829 0.20637 0.0
C8 C 0.06959 0.51593 0.22212 0.0
C9 C 0.04511 0.55752 0.14581 0.0
O10 O 0.08239 0.60926 0.19868 0.0
O11 O 0.12625 0.58436 0.18103 0.0
O12 O 0.94425 0.52882 0.18441 0.0
O13 O 0.98308 0.58591 0.20467 0.0
O14 O 0.03798 0.58715 0.15514 0.0
O15 O 0.03324 0.52431 0.15879 0.0
O16 O 1.00949 0.44748 0.17825 0.0
O17 O 0.97666 0.47968 0.19931 0.0
C18 C 0.12185 0.61575 0.19164 0.0
C19 C 0.97638 0.44403 0.19099 0.0
Dy20 Dy 0.50553 0.05109 0.50932 0.0
C21 C 0.69589 0.16876 0.53018 0.0
C22 C 0.42072 0.99028 0.49629 0.0
Dy23 Dy 0.61205 0.11124 0.51479 0.0
O24 O 0.4389 0.98846 0.51483 0.0
O25 O 0.44872 0.02587 0.4849 0.0
O26 O 0.49668 0.06612 0.54444 0.0
O27 O 0.55477 0.06483 0.5352 0.0
C28 C 0.53606 0.07371 0.55067 0.0
C29 C 0.58781 0.10337 0.47158 0.0
O30 O 0.60218 0.04171 0.51957 0.0
O31 O 0.53039 1.00231 0.50428 0.0
O32 O 0.68624 0.13665 0.5162 0.0
O33 O 0.65928 0.16782 0.53644 0.0
O34 O 0.6292 0.12577 0.47807 0.0
O35 O 0.56373 0.08844 0.48864 0.0
O36 O 0.51364 0.11996 0.50739 0.0
O37 O 0.58672 0.15925 0.5211 0.0
C38 C 0.56755 1.00406 0.51189 0.0
C39 C 0.54832 0.15699 0.51544 0.0
Dy40 Dy 0.58965 0.60905 0.84798 0.0
C41 C 0.52097 0.41879 0.86764 0.0
C42 C 0.61209 0.69533 0.83774 0.0
Dy43 Dy 0.54626 0.50317 0.85251 0.0
O44 O 0.60844 0.67909 0.85761 0.0
O45 O 0.60378 0.66445 0.82327 0.0
O46 O 0.62315 0.61605 0.88065 0.0
O47 O 0.56061 0.55847 0.87438 0.0
C48 C 0.59246 0.57668 0.88794 0.0
C49 C 0.55717 0.52854 0.80922 0.0
O50 O 0.48632 0.50989 0.86064 0.0
O51 O 0.51538 0.58547 0.85068 0.0
O52 O 0.49727 0.42904 0.85458 0.0
O53 O 0.55792 0.45505 0.87291 0.0
O54 O 0.53979 0.4871 0.81594 0.0
O55 O 0.56686 0.55268 0.82611 0.0
O56 O 0.64995 0.6022 0.8407 0.0
O57 O 0.62048 0.52957 0.85536 0.0
C58 C 0.48151 0.54556 0.85721 0.0
C59 C 0.65485 0.56822 0.84803 0.0
C60 C 0.66209 0.13404 0.21354 0.0
C61 C 0.69656 0.14553 0.229 0.0
C62 C 0.74852 0.20908 0.20552 0.0
C63 C 0.73941 0.18313 0.22511 0.0
C64 C 0.7135 0.19792 0.19047 0.0
C65 C 0.67082 0.161 0.1945 0.0
U66 U 0.54641 0.02295 0.23216 0.0
O67 O 0.48729 0.9966 0.21053 0.0
O68 O 0.52469 0.96065 0.21358 0.0
C69 C 0.4897 0.96095 0.20514 0.0
C70 C 0.61856 0.09163 0.2149 0.0
C71 C 0.44733 0.91742 0.20511 0.0
C72 C 0.4 0.84677 0.18658 0.0
C73 C 0.43986 0.88804 0.18766 0.0
C74 C 0.37395 0.86343 0.22047 0.0
C75 C 0.36653 0.83376 0.20297 0.0
C76 C 0.41415 0.90493 0.22157 0.0
C77 C 0.54357 0.0311 0.29714 0.0
C78 C 0.54147 1.01618 0.33672 0.0
C79 C 0.57597 0.09302 0.32307 0.0
C80 C 0.56607 0.07747 0.30126 0.0
C81 C 0.56327 0.06246 0.34109 0.0
C82 C 0.53178 1.00076 0.31502 0.0
C83 C 0.52855 1.01252 0.27486 0.0
O84 O 0.61743 0.05486 0.22216 0.0
O85 O 0.58113 0.0923 0.21817 0.0
O86 O 0.51523 0.03387 0.26143 0.0
O87 O 0.55118 0.99631 0.26482 0.0
H88 H 0.69071 0.12493 0.24371 0.0
H89 H 0.76578 0.19101 0.23702 0.0
H90 H 0.71924 0.21761 0.17542 0.0
H91 H 0.64486 0.15255 0.18226 0.0
H92 H 0.39519 0.82523 0.17267 0.0
H93 H 0.46491 0.89718 0.17472 0.0
H94 H 0.34901 0.8543 0.23344 0.0
H95 H 0.41929 0.92716 0.23521 0.0
H96 H 0.532 0.99174 0.3501 0.0
H97 H 0.59267 0.1289 0.32587 0.0
H98 H 0.57528 0.10151 0.28771 0.0
H99 H 0.51428 0.96484 0.3122 0.0
C100 C 0.57972 0.69792 0.53876 0.0
C101 C 0.58658 0.72327 0.55791 0.0
C102 C 0.58593 0.78325 0.53588 0.0
C103 C 0.58975 0.76565 0.55648 0.0
C104 C 0.57932 0.75754 0.51682 0.0
C105 C 0.57622 0.71545 0.51827 0.0
U106 U 0.57177 0.5908 0.56667 0.0
O107 O 0.52871 0.52092 0.5553 0.0
O108 O 0.60236 0.55247 0.55402 0.0
C109 C 0.56336 0.51677 0.54972 0.0
C110 C 0.57594 0.65318 0.53931 0.0
C111 C 0.55939 0.47184 0.55114 0.0
C112 C 0.53325 0.3997 0.53329 0.0
C113 C 0.53248 0.43978 0.53547 0.0
C114 C 0.5863 0.42171 0.56333 0.0
C115 C 0.56082 0.39028 0.54688 0.0
C116 C 0.58584 0.46221 0.56534 0.0
C117 C 0.57472 0.58537 0.63194 0.0
C118 C 0.53456 0.5327 0.66222 0.0
C119 C 0.60729 0.59809 0.66884 0.0
C120 C 0.60991 0.61104 0.64657 0.0
C121 C 0.56924 0.55917 0.67708 0.0
C122 C 0.53722 0.54567 0.63992 0.0
C123 C 0.57553 0.6042 0.60962 0.0
O124 O 0.6114 0.65142 0.54587 0.0
O125 O 0.53808 0.61964 0.54706 0.0
O126 O 0.53792 0.58585 0.59832 0.0
O127 O 0.61139 0.61671 0.5972 0.0
H128 H 0.5893 0.71027 0.57391 0.0
H129 H 0.59448 0.78428 0.57153 0.0
H130 H 0.57702 0.77015 0.50064 0.0
H131 H 0.57111 0.69649 0.50328 0.0
H132 H 0.51371 0.37716 0.52018 0.0
H133 H 0.51229 0.4467 0.5241 0.0
H134 H 0.60731 0.4155 0.57444 0.0
H135 H 0.6071 0.48645 0.57751 0.0
H136 H 0.50454 0.50272 0.66798 0.0
H137 H 0.63495 0.6189 0.67965 0.0
H138 H 0.63899 0.64205 0.64093 0.0
H139 H 0.50927 0.52537 0.62916 0.0
C140 C 0.9666 0.56823 0.87661 0.0
C141 C 0.93488 0.54979 0.89386 0.0
C142 C 0.88259 0.5643 0.87275 0.0
C143 C 0.89331 0.54789 0.89196 0.0
C144 C 0.91516 0.5838 0.85581 0.0
C145 C 0.95661 0.58569 0.85775 0.0
U146 U 0.06342 0.55773 0.90451 0.0
O147 O 0.09669 0.52288 0.89037 0.0
O148 O 0.13515 0.59601 0.89531 0.0
C149 C 0.13573 0.56016 0.88836 0.0
C150 C 1.00918 0.56752 0.87711 0.0
C151 C 0.17743 0.55775 0.89096 0.0
C152 C 0.22166 0.52485 0.87797 0.0
C153 C 0.18033 0.52305 0.88041 0.0
C154 C 0.25814 0.59516 0.89758 0.0
C155 C 0.26144 0.56155 0.88598 0.0
C156 C 0.21672 0.59341 0.89994 0.0
C157 C 0.05636 0.53819 0.96958 0.0
C158 C 0.09803 0.56915 1.00368 0.0
C159 C 0.03227 0.49479 1.00415 0.0
C160 C 1.027 0.49864 0.98138 0.0
C161 C 0.06698 0.53059 0.01577 0.0
C162 C 0.09272 0.57299 0.98087 0.0
C163 C 0.04349 0.5452 0.94704 0.0
O164 O 0.04355 0.60144 0.88668 0.0
O165 O 1.00605 0.5286 0.88175 0.0
O166 O 0.0294 0.51198 0.93295 0.0
O167 O 0.06726 0.58518 0.93765 0.0
H168 H 0.94193 0.53622 0.90861 0.0
H169 H 0.86943 0.53326 0.90551 0.0
H170 H 0.90812 0.59626 0.84068 0.0
H171 H 0.98056 0.59991 0.84419 0.0
H172 H 0.22265 0.49858 0.86871 0.0
H173 H 0.15091 0.4956 0.87288 0.0
H174 H 0.28782 0.62355 0.90434 0.0
H175 H 0.21589 0.62099 0.90798 0.0
H176 H 0.12562 0.5971 1.01199 0.0
H177 H 1.0074 0.46479 1.01285 0.0
H178 H 0.99826 0.47153 0.97325 0.0
H179 H 0.11591 0.60406 0.97235 0.0
C180 C 0.96444 0.49853 0.50029 0.0
C181 C 0.91967 0.48883 0.50172 0.0
C182 C 0.89753 0.41702 0.51997 0.0
C183 C 0.88666 0.44857 0.51141 0.0
C184 C 0.94245 0.42714 0.51904 0.0
C185 C 0.97559 0.46758 0.50942 0.0
U186 U 1.01983 0.56741 0.44783 0.0
O187 O 0.04633 0.63921 0.44003 0.0
O188 O 0.09077 0.6106 0.4386 0.0
C189 C 0.08768 0.64721 0.43767 0.0
C190 C 0.99939 0.54031 0.48918 0.0
C191 C 0.12273 0.68692 0.44923 0.0
C192 C 0.16517 0.76824 0.45284 0.0
C193 C 0.13033 0.72973 0.44322 0.0
C194 C 0.18509 0.72162 0.47489 0.0
C195 C 0.19342 0.76472 0.46857 0.0
C196 C 0.15003 0.68311 0.46539 0.0
C197 C 0.97568 0.51643 0.39152 0.0
C198 C 0.99847 0.56046 0.35727 0.0
C199 C 0.97219 0.48054 0.35664 0.0
C200 C 0.96526 0.4778 0.37953 0.0
C201 C 0.98944 0.522 0.34533 0.0
C202 C 0.99198 0.55778 0.38024 0.0
C203 C 0.97261 0.51347 0.41585 0.0
O204 O 0.03003 0.5367 0.47784 0.0
O205 O 0.9854 0.56496 0.47891 0.0
O206 O 0.96152 0.5405 0.42567 0.0
O207 O 1.00584 0.51175 0.42559 0.0
H208 H 0.9098 0.51193 0.49504 0.0
H209 H 0.85228 0.44158 0.51159 0.0
H210 H 0.95194 0.40371 0.52569 0.0
H211 H 1.0099 0.47438 0.50884 0.0
H212 H 0.17009 0.80078 0.44785 0.0
H213 H 0.10961 0.73343 0.43083 0.0
H214 H 0.20646 0.7176 0.48674 0.0
H215 H 0.1449 0.65048 0.47038 0.0
H216 H 1.01221 0.59288 0.34897 0.0
H217 H 0.96464 0.45033 0.3478 0.0
H218 H 0.95284 0.44566 0.38796 0.0
H219 H 1.00077 0.58817 0.38922 0.0
C220 C 0.60294 1.00101 0.82841 0.0
C221 C 0.62586 0.99116 0.81222 0.0
C222 C 0.62241 0.93148 0.83573 0.0
C223 C 0.63575 0.95687 0.8159 0.0
C224 C 0.60037 0.9423 0.8521 0.0
C225 C 0.59078 0.97681 0.84846 0.0
U226 U 0.57005 0.06205 0.78697 0.0
O227 O 0.51357 0.07487 0.7872 0.0
O228 O 0.58292 0.13137 0.78517 0.0
C229 C 0.54021 0.11876 0.78767 0.0
C230 C 0.58804 0.03345 0.82379 0.0
C231 C 0.52925 0.14339 0.80416 0.0
C232 C 0.47319 0.15277 0.82423 0.0
C233 C 0.48451 0.1269 0.81092 0.0
C234 C 0.55129 0.21152 0.82487 0.0
C235 C 0.50632 0.19585 0.83092 0.0
C236 C 0.56261 0.18567 0.81162 0.0
C237 C 0.57295 0.04117 0.72537 0.0
C238 C 0.60186 0.08121 0.69026 0.0
C239 C 0.52292 0.02576 0.69411 0.0
C240 C 0.52994 1.01739 0.71599 0.0
C241 C 0.55872 0.05793 0.68103 0.0
C242 C 0.60892 0.07282 0.71217 0.0
C243 C 0.58039 0.03305 0.74873 0.0
O244 O 0.61734 0.07086 0.81355 0.0
O245 O 0.54739 1.01558 0.81559 0.0
O246 O 0.54421 1.01072 0.76117 0.0
O247 O 0.61332 0.06734 0.75893 0.0
H248 H 0.63517 1.00926 0.79652 0.0
H249 H 0.65325 0.94981 0.80307 0.0
H250 H 0.58892 0.92301 0.86741 0.0
H251 H 0.5726 0.98365 0.86102 0.0
H252 H 0.43829 0.13963 0.82872 0.0
H253 H 0.45794 0.0946 0.80531 0.0
H254 H 0.57759 0.2449 0.82933 0.0
H255 H 0.59732 0.19972 0.80652 0.0
H256 H 0.63011 0.10632 0.68064 0.0
H257 H 0.48946 1.00653 0.68734 0.0
H258 H 0.50155 0.99226 0.72553 0.0
H259 H 0.64254 0.09136 0.71882 0.0
C260 C 0.6243 0.52279 0.16583 0.0
C261 C 0.64537 0.50385 0.15375 0.0
C262 C 0.70095 0.52353 0.18262 0.0
C263 C 0.68305 0.50397 0.16211 0.0
C264 C 0.68067 0.54358 0.19455 0.0
C265 C 0.64229 0.54299 0.18623 0.0
U266 U 0.56385 0.51994 0.11451 0.0
O267 O 0.49311 0.48099 0.10447 0.0
O268 O 0.52874 0.55494 0.10305 0.0
C269 C 0.49027 0.51724 0.10079 0.0
C270 C 0.58507 0.52296 0.15628 0.0
C271 C 0.44945 0.516 0.10927 0.0
C272 C 0.41215 0.55149 0.12717 0.0
C273 C 0.45154 0.55148 0.12153 0.0
C274 C 0.36797 0.47997 0.10904 0.0
C275 C 0.37001 0.51603 0.1207 0.0
C276 C 0.40732 0.48009 0.1033 0.0
C277 C 0.61905 0.51965 0.06056 0.0
C278 C 0.58335 0.52012 0.02602 0.0
C279 C 0.65935 0.533 0.0258 0.0
C280 C 0.65761 0.52793 0.04884 0.0
C281 C 0.62251 0.52994 1.01418 0.0
C282 C 0.58168 0.51512 0.04903 0.0
C283 C 0.61917 0.51947 0.08482 0.0
O284 O 0.59458 0.55919 0.14456 0.0
O285 O 0.55643 0.48544 0.14642 0.0
O286 O 0.58741 0.48268 0.09446 0.0
O287 O 0.62408 0.55645 0.09358 0.0
H288 H 0.63273 0.48901 0.13774 0.0
H289 H 0.69857 0.48908 0.15238 0.0
H290 H 0.69408 0.55904 0.21036 0.0
H291 H 0.62681 0.55834 0.19561 0.0
H292 H 0.41467 0.57945 0.13642 0.0
H293 H 0.48353 0.57966 0.12638 0.0
H294 H 0.33605 0.45241 0.10365 0.0
H295 H 0.40488 0.45259 0.09364 0.0
H296 H 0.55467 0.51822 0.01762 0.0
H297 H 0.6898 0.54014 0.01711 0.0
H298 H 0.68676 0.53165 0.05755 0.0
H299 H 0.55177 0.50914 0.05791 0.0
H300 H 0.21134 0.55472 0.13604 0.0
H301 H 0.14465 0.41657 0.1587 0.0
H302 H 0.21112 0.41155 0.14906 0.0
H303 H 0.28983 0.44813 0.13624 0.0
H304 H 0.35698 0.58737 0.11512 0.0
H305 H 0.28893 0.59058 0.12247 0.0
C306 C 0.21115 0.52332 0.13856 0.0
C307 C 0.17323 0.48598 0.14794 0.0
C308 C 0.24982 0.52118 0.13362 0.0
C309 C 0.17351 0.44567 0.1514 0.0
C310 C 0.21154 0.44289 0.146 0.0
C311 C 0.28938 0.47903 0.1331 0.0
C312 C 0.32845 0.51753 0.12528 0.0
C313 C 0.25016 0.48069 0.13745 0.0
C314 C 0.32757 0.5575 0.12148 0.0
C315 C 0.28858 0.55927 0.12551 0.0
H316 H 0.71741 0.24646 0.55064 0.0
H317 H 0.77531 0.18023 0.5145 0.0
H318 H 0.84594 0.25158 0.51046 0.0
H319 H 0.88655 0.33421 0.51222 0.0
H320 H 0.82702 0.40056 0.54698 0.0
H321 H 0.76158 0.32781 0.55641 0.0
C322 C 0.74589 0.24744 0.54239 0.0
C323 C 0.74114 0.2083 0.53272 0.0
C324 C 0.78575 0.2888 0.53946 0.0
C325 C 0.7782 0.21 0.52204 0.0
C326 C 0.81845 0.25086 0.51957 0.0
C327 C 0.85979 0.33272 0.52233 0.0
C328 C 0.8614 0.37281 0.52861 0.0
C329 C 0.82196 0.29075 0.52745 0.0
C330 C 0.82621 0.37024 0.54156 0.0
C331 C 0.78885 0.32865 0.54704 0.0
H332 H 0.63623 0.76297 0.86648 0.0
H333 H 0.60359 0.72849 0.79792 0.0
H334 H 0.60678 0.80036 0.79087 0.0
H335 H 0.61235 0.86962 0.80507 0.0
H336 H 0.64656 0.90454 0.87357 0.0
H337 H 0.64887 0.83549 0.87982 0.0
C338 C 0.63033 0.77146 0.84994 0.0
C339 C 0.61935 0.74054 0.83277 0.0
C340 C 0.632 0.81258 0.84608 0.0
C341 C 0.61205 0.75189 0.81139 0.0
C342 C 0.6137 0.79283 0.80739 0.0
C343 C 0.6213 0.86271 0.82125 0.0
C344 C 0.62881 0.8921 0.83888 0.0
C345 C 0.62278 0.82303 0.82472 0.0
C346 C 0.63974 0.88213 0.85982 0.0
C347 C 0.6413 0.84275 0.86339 0.0
H348 H 0.86018 0.48822 0.19662 0.0
H349 H 0.93343 0.63164 0.20572 0.0
H350 H 0.86265 0.63302 0.20497 0.0
H351 H 0.78083 0.59382 0.19653 0.0
H352 H 0.71001 0.45028 0.18702 0.0
H353 H 0.77887 0.4483 0.1934 0.0
C354 C 0.86055 0.51971 0.1988 0.0
C355 C 0.90164 0.55985 0.20089 0.0
C356 C 0.82019 0.52012 0.19812 0.0
C357 C 0.90195 0.60036 0.20405 0.0
C358 C 0.86157 0.60112 0.20347 0.0
C359 C 0.78047 0.56209 0.19644 0.0
C360 C 0.7407 0.5223 0.19101 0.0
C361 C 0.82058 0.56132 0.19979 0.0
C362 C 0.74045 0.48133 0.19087 0.0
C363 C 0.77976 0.48019 0.19448 0.0
H364 H 0.35954 0.91722 0.51946 0.0
H365 H 0.3841 0.98268 0.45545 0.0
H366 H 0.3147 0.91927 0.44142 0.0
H367 H 0.25 0.84322 0.44676 0.0
H368 H 0.22476 0.77857 0.51111 0.0
H369 H 0.29189 0.84352 0.52552 0.0
C370 C 0.34942 0.91776 0.5025 0.0
C371 C 0.37683 0.95437 0.48846 0.0
C372 C 0.30971 0.88117 0.49456 0.0
C373 C 0.36341 0.95481 0.46656 0.0
C374 C 0.32387 0.91852 0.45852 0.0
C375 C 0.25862 0.84359 0.46405 0.0
C376 C 0.23241 0.80576 0.47776 0.0
C377 C 0.29711 0.88123 0.47229 0.0
C378 C 0.24469 0.80676 0.50005 0.0
C379 C 0.28295 0.84403 0.50836 0.0
H380 H 0.45478 0.34253 0.84981 0.0
H381 H 0.57302 0.3933 0.89037 0.0
H382 H 0.57431 0.32346 0.88555 0.0
H383 H 0.5498 0.25443 0.86436 0.0
H384 H 0.43523 0.20732 0.82131 0.0
H385 H 0.42381 0.26839 0.83299 0.0
C386 C 0.48005 0.33774 0.85811 0.0
C387 C 0.51415 0.37311 0.87012 0.0
C388 C 0.48156 0.29828 0.85456 0.0
C389 C 0.54659 0.36655 0.8809 0.0
C390 C 0.54754 0.32677 0.878 0.0
C391 C 0.52197 0.25721 0.85778 0.0
C392 C 0.49392 0.22675 0.84171 0.0
C393 C 0.51652 0.29342 0.86396 0.0
C394 C 0.45732 0.23013 0.83374 0.0
C395 C 0.45098 0.26537 0.84026 0.0
H396 H 0.62163 0.98368 0.53708 0.0
H397 H 0.51399 0.92701 0.4896 0.0
H398 H 0.51004 0.85448 0.49302 0.0
H399 H 0.53529 0.80614 0.51006 0.0
H400 H 0.64264 0.86139 0.55761 0.0
H401 H 0.64787 0.93485 0.55389 0.0
C402 C 0.59766 0.9556 0.52731 0.0
C403 C 0.56826 0.9611 0.51304 0.0
C404 C 0.59506 0.91339 0.52956 0.0
C405 C 0.53703 0.924 0.50074 0.0
C406 C 0.53465 0.88233 0.5027 0.0
C407 C 0.56022 0.8343 0.51947 0.0
C408 C 0.58861 0.82801 0.53405 0.0
C409 C 0.56323 0.87651 0.51715 0.0
C410 C 0.61998 0.86491 0.54643 0.0
C411 C 0.62323 0.90711 0.54419 0.0
H412 H 0.67782 0.50963 0.86613 0.0
H413 H 0.73572 0.64059 0.8346 0.0
H414 H 0.81097 0.65123 0.83967 0.0
H415 H 0.86056 0.6238 0.85372 0.0
H416 H 0.80138 0.49245 0.88495 0.0
H417 H 0.72667 0.48213 0.87967 0.0
C418 C 0.70674 0.54051 0.86019 0.0
C419 C 0.70076 0.57417 0.84988 0.0
C420 C 0.74993 0.5466 0.86335 0.0
C421 C 0.73902 0.61396 0.84251 0.0
C422 C 0.78218 0.62014 0.84547 0.0
C423 C 0.83134 0.59277 0.85925 0.0
C424 C 0.83699 0.55909 0.86987 0.0
C425 C 0.78808 0.58675 0.85596 0.0
C426 C 0.79848 0.51938 0.87713 0.0
C427 C 0.75555 0.51323 0.87393 0.0
H428 H 0.20842 0.63574 0.18668 0.0
H429 H 0.12853 0.69433 0.20621 0.0
H430 H 0.19696 0.76645 0.21229 0.0
H431 H 0.27985 0.81368 0.21085 0.0
H432 H 0.35855 0.7534 0.19196 0.0
H433 H 0.29023 0.68136 0.1868 0.0
C434 C 0.20578 0.66421 0.19225 0.0
C435 C 0.1632 0.65952 0.19581 0.0
C436 C 0.24519 0.70546 0.1958 0.0
C437 C 0.16076 0.69685 0.20328 0.0
C438 C 0.19993 0.73818 0.20676 0.0
C439 C 0.28204 0.78464 0.20588 0.0
C440 C 0.32442 0.78924 0.20157 0.0
C441 C 0.24239 0.74297 0.20296 0.0
C442 C 0.32649 0.75119 0.19498 0.0
C443 C 0.2874 0.70985 0.19211 0.0
H444 H 0.61227 0.23954 0.53017 0.0
H445 H 0.4732 0.16488 0.51061 0.0
H446 H 0.46437 0.22921 0.5194 0.0
H447 H 0.49567 0.30632 0.53315 0.0
H448 H 0.63575 0.38179 0.55107 0.0
H449 H 0.64393 0.31704 0.54306 0.0
C450 C 0.57997 0.2372 0.52772 0.0
C451 C 0.54349 0.1971 0.51965 0.0
C452 C 0.57504 0.2744 0.53283 0.0
C453 C 0.50201 0.19514 0.51666 0.0
C454 C 0.49685 0.23196 0.52178 0.0
C455 C 0.52819 0.30898 0.53514 0.0
C456 C 0.56493 0.34939 0.54288 0.0
C457 C 0.5331 0.27176 0.52994 0.0
C458 C 0.60646 0.35125 0.54566 0.0
C459 C 0.61139 0.31423 0.54081 0.0
H460 H 0.45988 0.61222 0.85874 0.0
H461 H 0.40272 0.46887 0.86779 0.0
H462 H 0.33074 0.46137 0.87797 0.0
H463 H 0.28376 0.49525 0.88482 0.0
H464 H 0.34035 0.63834 0.87514 0.0
H465 H 0.41256 0.64603 0.86525 0.0
C466 C 0.43167 0.57925 0.86281 0.0
C467 C 0.43707 0.5412 0.8624 0.0
C468 C 0.39013 0.57508 0.86885 0.0
C469 C 0.39991 0.49886 0.86791 0.0
C470 C 0.35857 0.49448 0.8738 0.0
C471 C 0.31173 0.52814 0.88042 0.0
C472 C 0.30623 0.56613 0.8809 0.0
C473 C 0.35327 0.53234 0.8744 0.0
C474 C 0.34342 0.6085 0.87541 0.0
C475 C 0.3848 0.61293 0.8695 0.0
H476 H 0.93144 0.36775 0.16621 0.0
H477 H 0.93535 0.42109 0.23095 0.0
H478 H 0.86738 0.35188 0.24189 0.0
H479 H 0.80324 0.2783 0.23228 0.0
H480 H 0.79607 0.22615 0.16696 0.0
H481 H 0.86831 0.29213 0.15708 0.0
C482 C 0.91771 0.36376 0.18279 0.0
C483 C 0.93835 0.39948 0.19772 0.0
C484 C 0.87759 0.32412 0.18883 0.0
C485 C 0.9199 0.39415 0.21909 0.0
C486 C 0.88097 0.35458 0.22539 0.0
C487 C 0.81786 0.28114 0.21601 0.0
C488 C 0.79425 0.24747 0.20037 0.0
C489 C 0.85898 0.31966 0.21028 0.0
C490 C 0.81339 0.25186 0.17923 0.0
C491 C 0.85476 0.28955 0.17358 0.0
H492 H 0.04126 0.49085 0.11943 0.0
H493 H 0.07589 0.63015 0.11879 0.0
H494 H 0.08918 0.63507 0.079 0.0
H495 H 0.08496 0.59872 0.04393 0.0
H496 H 0.04975 0.4593 0.04352 0.0
H497 H 0.04251 0.45551 0.08392 0.0
C498 C 0.05217 0.52232 0.11056 0.0
C499 C 0.05715 0.55996 0.12205 0.0
C500 C 0.05926 0.52485 0.0874 0.0
C501 C 0.0714 0.60055 0.11035 0.0
C502 C 0.07902 0.60345 0.08754 0.0
C503 C 0.07671 0.5677 0.05263 0.0
C504 C 0.06784 0.52936 0.04055 0.0
C505 C 0.07224 0.56564 0.07583 0.0
C506 C 0.05626 0.48927 0.05228 0.0
C507 C 0.0522 0.48708 0.07544 0.0
H508 H 0.63791 0.14458 0.43526 0.0
H509 H 0.50719 0.0377 0.45561 0.0
H510 H 0.48702 1.01714 0.41688 0.0
H511 H 0.50829 0.02744 0.37733 0.0
H512 H 0.64021 0.13328 0.35728 0.0
H513 H 0.65808 0.15671 0.39572 0.0
C514 C 0.60485 0.11703 0.43118 0.0
C515 C 0.57383 0.09288 0.44824 0.0
C516 C 0.59388 0.10516 0.40892 0.0
C517 C 0.53122 0.05726 0.44276 0.0
C518 C 0.51991 0.04529 0.42062 0.0
C519 C 0.54101 0.05558 0.38137 0.0
C520 C 0.57297 0.07837 0.36438 0.0
C521 C 0.55121 0.06865 0.40358 0.0
C522 C 0.61485 0.11533 0.36992 0.0
C523 C 0.62521 0.12858 0.39194 0.0
H524 H 0.5347 0.47476 0.77381 0.0
H525 H 0.59469 0.61408 0.79153 0.0
H526 H 0.604 0.63604 0.75226 0.0
H527 H 0.59384 0.61499 0.7128 0.0
H528 H 0.53547 0.47516 0.69558 0.0
H529 H 0.52646 0.454 0.73472 0.0
C530 C 0.54984 0.50999 0.7691 0.0
C531 C 0.56368 0.54284 0.7856 0.0
C532 C 0.55524 0.52216 0.74654 0.0
C533 C 0.5834 0.58824 0.7792 0.0
C534 C 0.58881 0.60072 0.75672 0.0
C535 C 0.57964 0.57992 0.71757 0.0
C536 C 0.56523 0.54673 0.70111 0.0
C537 C 0.57476 0.56791 0.74023 0.0
C538 C 0.54624 0.5014 0.70776 0.0
C539 C 0.54129 0.48925 0.73018 0.0
H540 H 0.49093 0.07682 0.58665 0.0
H541 H 0.61293 0.0802 0.56675 0.0
H542 H 0.63221 0.07834 0.60557 0.0
H543 H 0.61113 0.06937 0.64496 0.0
H544 H 0.48871 0.06541 0.66476 0.0
H545 H 0.47261 0.07339 0.62615 0.0
C546 C 0.52198 0.07767 0.59084 0.0
C547 C 0.55029 0.07824 0.57395 0.0
C548 C 0.53246 0.07588 0.61314 0.0
C549 C 0.5905 0.07952 0.57953 0.0
C550 C 0.60146 0.07831 0.6017 0.0
C551 C 0.58132 0.07102 0.64087 0.0
C552 C 0.55096 0.06634 0.65771 0.0
C553 C 0.57222 0.07554 0.61863 0.0
C554 C 0.51221 0.06807 0.65208 0.0
C555 C 0.50309 0.07289 0.63002 0.0
H556 H 0.65984 0.61176 0.91746 0.0
H557 H 0.52569 0.50068 0.90784 0.0
H558 H 0.52421 0.4743 0.94585 0.0
H559 H 0.55952 0.48585 0.98249 0.0
H560 H 0.69318 0.59825 0.99195 0.0
H561 H 0.69672 0.62062 0.95321 0.0
C562 C 0.63041 0.58162 0.92366 0.0
C563 C 0.59275 0.55845 0.91007 0.0
C564 C 0.62976 0.56689 0.94547 0.0
C565 C 0.55497 0.51919 0.91813 0.0
C566 C 0.5541 0.50416 0.93984 0.0
C567 C 0.58944 0.51515 0.97602 0.0
C568 C 0.62594 0.54042 0.99011 0.0
C569 C 0.59102 0.52824 0.95378 0.0
C570 C 0.66479 0.5779 0.98143 0.0
C571 C 0.66673 0.59096 0.95931 0.0
H572 H 1.02254 0.55076 0.24174 0.0
H573 H 0.09257 0.47858 0.25542 0.0
H574 H 0.07337 0.47362 0.29461 0.0
H575 H 0.03658 0.48929 0.32499 0.0
H576 H 0.96807 0.56317 0.31227 0.0
H577 H 0.98693 0.56831 0.27275 0.0
C578 C 0.03363 0.53412 0.25338 0.0
C579 C 0.05882 0.51498 0.24578 0.0
C580 C 1.02271 0.53166 0.276 0.0
C581 C 0.07315 0.49358 0.26093 0.0
C582 C 0.06214 0.49066 0.28333 0.0
C583 C 1.02548 0.50621 0.31352 0.0
C584 C 1.00061 0.52541 0.32142 0.0
C585 C 0.03682 0.50939 0.29102 0.0
C586 C 0.98728 0.54814 0.3065 0.0
C587 C 0.99798 0.55099 0.28395 0.0
loop_
_geom_bond_atom_site_label_1
_geom_bond_atom_site_label_2
_geom_bond_distance
_geom_bond_site_symmetry_2
_ccdc_geom_bond_type
Dy0 O4 2.398 . S
Dy0 O5 2.491 . S
Dy0 O6 2.403 . S
Dy0 O7 2.664 . S
Dy0 O11 2.326 . S
Dy0 O15 2.310 . S
Dy0 O16 2.351 1_455 S
C1 O12 1.185 . S
C1 O13 1.355 . S
C2 O4 1.185 . S
C2 O5 1.355 . S
Dy3 O7 2.310 1_655 S
Dy3 O10 2.351 1_655 S
Dy3 O12 2.398 . S
Dy3 O13 2.491 . S
Dy3 O14 2.403 1_655 S
Dy3 O15 2.664 1_655 S
Dy3 O17 2.326 . S
O4 Dy0 2.398 . S
O4 C2 1.185 . S
O5 Dy0 2.491 . S
O5 C2 1.355 . S
O6 Dy0 2.403 . S
O6 C8 1.254 . S
O7 Dy0 2.664 . S
O7 Dy3 2.310 1_455 S
O7 C8 1.268 . S
C8 O6 1.254 . S
C8 O7 1.268 . S
C9 O14 1.254 . S
C9 O15 1.268 . S
O10 Dy3 2.351 1_455 S
O10 C18 1.249 . S
O11 Dy0 2.326 . S
O11 C18 1.267 . S
O12 C1 1.185 . S
O12 Dy3 2.398 . S
O13 C1 1.355 . S
O13 Dy3 2.491 . S
O14 Dy3 2.403 1_455 S
O14 C9 1.254 . S
O15 Dy0 2.310 . S
O15 Dy3 2.664 1_455 S
O15 C9 1.268 . S
O16 Dy0 2.351 1_655 S
O16 C19 1.249 . S
O17 Dy3 2.326 . S
O17 C19 1.267 . S
C18 O10 1.249 . S
C18 O11 1.267 . S
C19 O16 1.249 . S
C19 O17 1.267 . S
Dy20 O24 2.398 1_545 S
Dy20 O25 2.491 1_545 S
Dy20 O26 2.403 . S
Dy20 O27 2.664 . S
Dy20 O31 2.326 1_545 S
Dy20 O35 2.310 . S
Dy20 O36 2.351 . S
C21 O32 1.185 . S
C21 O33 1.355 . S
C22 O24 1.185 . S
C22 O25 1.355 . S
Dy23 O27 2.310 . S
Dy23 O30 2.351 1_545 S
Dy23 O32 2.398 . S
Dy23 O33 2.491 . S
Dy23 O34 2.403 . S
Dy23 O35 2.664 . S
Dy23 O37 2.326 . S
O24 Dy20 2.398 1_565 S
O24 C22 1.185 . S
O25 Dy20 2.491 1_565 S
O25 C22 1.355 . S
O26 Dy20 2.403 . S
O26 C28 1.254 . S
O27 Dy20 2.664 . S
O27 Dy23 2.310 . S
O27 C28 1.268 . S
C28 O26 1.254 . S
C28 O27 1.268 . S
C29 O34 1.254 . S
C29 O35 1.268 . S
O30 Dy23 2.351 1_565 S
O30 C38 1.249 . S
O31 Dy20 2.326 1_565 S
O31 C38 1.267 . S
O32 C21 1.185 . S
O32 Dy23 2.398 . S
O33 C21 1.355 . S
O33 Dy23 2.491 . S
O34 Dy23 2.403 . S
O34 C29 1.254 . S
O35 Dy20 2.310 . S
O35 Dy23 2.664 . S
O35 C29 1.268 . S
O36 Dy20 2.351 . S
O36 C39 1.249 . S
O37 Dy23 2.326 . S
O37 C39 1.267 . S
C38 O30 1.249 . S
C38 O31 1.267 . S
C39 O36 1.249 . S
C39 O37 1.267 . S
Dy40 O44 2.398 . S
Dy40 O45 2.491 . S
Dy40 O46 2.403 . S
Dy40 O47 2.664 . S
Dy40 O51 2.326 . S
Dy40 O55 2.310 . S
Dy40 O56 2.351 . S
C41 O52 1.185 . S
C41 O53 1.355 . S
C42 O44 1.185 . S
C42 O45 1.355 . S
Dy43 O47 2.310 . S
Dy43 O50 2.351 . S
Dy43 O52 2.398 . S
Dy43 O53 2.491 . S
Dy43 O54 2.403 . S
Dy43 O55 2.664 . S
Dy43 O57 2.326 . S
O44 Dy40 2.398 . S
O44 C42 1.185 . S
O45 Dy40 2.491 . S
O45 C42 1.355 . S
O46 Dy40 2.403 . S
O46 C48 1.254 . S
O47 Dy40 2.664 . S
O47 Dy43 2.310 . S
O47 C48 1.268 . S
C48 O46 1.254 . S
C48 O47 1.268 . S
C49 O54 1.254 . S
C49 O55 1.268 . S
O50 Dy43 2.351 . S
O50 C58 1.249 . S
O51 Dy40 2.326 . S
O51 C58 1.267 . S
O52 C41 1.185 . S
O52 Dy43 2.398 . S
O53 C41 1.355 . S
O53 Dy43 2.491 . S
O54 Dy43 2.403 . S
O54 C49 1.254 . S
O55 Dy40 2.310 . S
O55 Dy43 2.664 . S
O55 C49 1.268 . S
O56 Dy40 2.351 . S
O56 C59 1.249 . S
O57 Dy43 2.326 . S
O57 C59 1.267 . S
C58 O50 1.249 . S
C58 O51 1.267 . S
C59 O56 1.249 . S
C59 O57 1.267 . S
C60 C61 1.264 . S
C60 C65 1.479 . S
C60 C70 1.465 . S
C61 C60 1.264 . S
C61 C63 1.339 . S
C61 H88 0.931 . S
C62 C63 1.395 . S
C62 C64 1.320 . S
C63 C61 1.339 . S
C63 C62 1.395 . S
C63 H89 0.929 . S
C64 C62 1.320 . S
C64 C65 1.405 . S
C64 H90 0.930 . S
C65 C60 1.479 . S
C65 C64 1.405 . S
C65 H91 0.931 . S
U66 O67 2.454 1_545 S
U66 O68 2.458 1_545 S
U66 C69 2.984 1_545 S
U66 C70 2.847 . S
U66 C83 2.882 . S
U66 O84 2.441 . S
U66 O85 2.420 . S
U66 O86 2.455 1_545 S
U66 O87 2.449 . S
O67 U66 2.454 1_565 S
O67 C69 1.353 . S
O68 U66 2.458 1_565 S
O68 C69 1.286 . S
C69 U66 2.984 1_565 S
C69 O67 1.353 . S
C69 O68 1.286 . S
C69 C71 1.363 . S
C70 C60 1.465 . S
C70 U66 2.847 . S
C70 O84 1.249 . S
C70 O85 1.202 . S
C71 C69 1.363 . S
C71 C73 1.408 . S
C71 C76 1.342 . S
C72 C73 1.310 . S
C72 C75 1.461 . S
C72 H92 0.932 . S
C73 C71 1.408 . S
C73 C72 1.310 . S
C73 H93 0.930 . S
C74 C75 1.474 . S
C74 C76 1.285 . S
C74 H94 0.929 . S
C75 C72 1.461 . S
C75 C74 1.474 . S
C76 C71 1.342 . S
C76 C74 1.285 . S
C76 H95 0.930 . S
C77 C80 1.424 . S
C77 C82 1.245 1_545 S
C77 C83 1.428 . S
C78 C81 1.261 1_565 S
C78 C82 1.477 . S
C78 H96 0.931 . S
C79 C80 1.384 . S
C79 C81 1.479 . S
C79 H97 0.929 . S
C80 C77 1.424 . S
C80 C79 1.384 . S
C80 H98 0.928 . S
C81 C78 1.261 1_545 S
C81 C79 1.479 . S
C82 C77 1.245 1_565 S
C82 C78 1.477 . S
C82 H99 0.932 . S
C83 U66 2.882 . S
C83 C77 1.428 . S
C83 O86 1.301 1_545 S
C83 O87 1.282 . S
O84 U66 2.441 . S
O84 C70 1.249 . S
O85 U66 2.420 . S
O85 C70 1.202 . S
O86 U66 2.455 1_565 S
O86 C83 1.301 1_565 S
O87 U66 2.449 . S
O87 C83 1.282 . S
H88 C61 0.931 . S
H89 C63 0.929 . S
H90 C64 0.930 . S
H91 C65 0.931 . S
H92 C72 0.932 . S
H93 C73 0.930 . S
H94 C74 0.929 . S
H95 C76 0.930 . S
H96 C78 0.931 . S
H97 C79 0.929 . S
H98 C80 0.928 . S
H99 C82 0.932 . S
C100 C101 1.264 . S
C100 C105 1.479 . S
C100 C110 1.465 . S
C101 C100 1.264 . S
C101 C103 1.339 . S
C101 H128 0.931 . S
C102 C103 1.395 . S
C102 C104 1.320 . S
C103 C101 1.339 . S
C103 C102 1.395 . S
C103 H129 0.929 . S
C104 C102 1.320 . S
C104 C105 1.405 . S
C104 H130 0.930 . S
C105 C100 1.479 . S
C105 C104 1.405 . S
C105 H131 0.931 . S
U106 O107 2.454 . S
U106 O108 2.458 . S
U106 C109 2.984 . S
U106 C110 2.847 . S
U106 C123 2.882 . S
U106 O124 2.441 . S
U106 O125 2.420 . S
U106 O126 2.455 . S
U106 O127 2.449 . S
O107 U106 2.454 . S
O107 C109 1.353 . S
O108 U106 2.458 . S
O108 C109 1.286 . S
C109 U106 2.984 . S
C109 O107 1.353 . S
C109 O108 1.286 . S
C109 C111 1.363 . S
C110 C100 1.465 . S
C110 U106 2.847 . S
C110 O124 1.249 . S
C110 O125 1.202 . S
C111 C109 1.363 . S
C111 C113 1.408 . S
C111 C116 1.342 . S
C112 C113 1.310 . S
C112 C115 1.461 . S
C112 H132 0.932 . S
C113 C111 1.408 . S
C113 C112 1.310 . S
C113 H133 0.930 . S
C114 C115 1.474 . S
C114 C116 1.285 . S
C114 H134 0.929 . S
C115 C112 1.461 . S
C115 C114 1.474 . S
C116 C111 1.342 . S
C116 C114 1.285 . S
C116 H135 0.930 . S
C117 C120 1.424 . S
C117 C122 1.245 . S
C117 C123 1.428 . S
C118 C121 1.260 . S
C118 C122 1.477 . S
C118 H136 0.932 . S
C119 C120 1.384 . S
C119 C121 1.479 . S
C119 H137 0.929 . S
C120 C117 1.424 . S
C120 C119 1.384 . S
C120 H138 0.928 . S
C121 C118 1.260 . S
C121 C119 1.479 . S
C122 C117 1.245 . S
C122 C118 1.477 . S
C122 H139 0.932 . S
C123 U106 2.882 . S
C123 C117 1.428 . S
C123 O126 1.301 . S
C123 O127 1.282 . S
O124 U106 2.441 . S
O124 C110 1.249 . S
O125 U106 2.420 . S
O125 C110 1.202 . S
O126 U106 2.455 . S
O126 C123 1.301 . S
O127 U106 2.449 . S
O127 C123 1.282 . S
H128 C101 0.931 . S
H129 C103 0.929 . S
H130 C104 0.930 . S
H131 C105 0.931 . S
H132 C112 0.932 . S
H133 C113 0.930 . S
H134 C114 0.929 . S
H135 C116 0.930 . S
H136 C118 0.932 . S
H137 C119 0.929 . S
H138 C120 0.928 . S
H139 C122 0.932 . S
C140 C141 1.264 . S
C140 C145 1.479 . S
C140 C150 1.465 . S
C141 C140 1.264 . S
C141 C143 1.339 . S
C141 H168 0.931 . S
C142 C143 1.395 . S
C142 C144 1.320 . S
C143 C141 1.339 . S
C143 C142 1.395 . S
C143 H169 0.929 . S
C144 C142 1.320 . S
C144 C145 1.405 . S
C144 H170 0.930 . S
C145 C140 1.479 . S
C145 C144 1.405 . S
C145 H171 0.931 . S
U146 O147 2.454 . S
U146 O148 2.458 . S
U146 C149 2.984 . S
U146 C150 2.847 1_455 S
U146 C163 2.882 . S
U146 O164 2.441 . S
U146 O165 2.420 1_455 S
U146 O166 2.455 . S
U146 O167 2.449 . S
O147 U146 2.454 . S
O147 C149 1.353 . S
O148 U146 2.458 . S
O148 C149 1.286 . S
C149 U146 2.984 . S
C149 O147 1.353 . S
C149 O148 1.286 . S
C149 C151 1.363 . S
C150 C140 1.465 . S
C150 U146 2.847 1_655 S
C150 O164 1.249 1_655 S
C150 O165 1.202 . S
C151 C149 1.363 . S
C151 C153 1.408 . S
C151 C156 1.342 . S
C152 C153 1.310 . S
C152 C155 1.461 . S
C152 H172 0.932 . S
C153 C151 1.408 . S
C153 C152 1.310 . S
C153 H173 0.930 . S
C154 C155 1.474 . S
C154 C156 1.285 . S
C154 H174 0.929 . S
C155 C152 1.461 . S
C155 C154 1.474 . S
C156 C151 1.342 . S
C156 C154 1.285 . S
C156 H175 0.930 . S
C157 C160 1.424 . S
C157 C162 1.245 . S
C157 C163 1.428 . S
C158 C161 1.289 . S
C158 C162 1.477 . S
C158 H176 0.932 . S
C159 C160 1.384 . S
C159 C161 1.508 . S
C159 H177 0.929 1_455 S
C160 C157 1.424 . S
C160 C159 1.384 . S
C160 H178 0.928 1_455 S
C161 C158 1.289 . S
C161 C159 1.508 . S
C162 C157 1.245 . S
C162 C158 1.477 . S
C162 H179 0.932 . S
C163 U146 2.882 . S
C163 C157 1.428 . S
C163 O166 1.301 . S
C163 O167 1.282 . S
O164 U146 2.441 . S
O164 C150 1.249 1_455 S
O165 U146 2.420 1_655 S
O165 C150 1.202 . S
O166 U146 2.455 . S
O166 C163 1.301 . S
O167 U146 2.449 . S
O167 C163 1.282 . S
H168 C141 0.931 . S
H169 C143 0.929 . S
H170 C144 0.930 . S
H171 C145 0.931 . S
H172 C152 0.932 . S
H173 C153 0.930 . S
H174 C154 0.929 . S
H175 C156 0.930 . S
H176 C158 0.932 . S
H177 C159 0.929 1_655 S
H178 C160 0.928 1_655 S
H179 C162 0.932 . S
C180 C181 1.264 . S
C180 C185 1.479 . S
C180 C190 1.465 . S
C181 C180 1.264 . S
C181 C183 1.339 . S
C181 H208 0.931 . S
C182 C183 1.395 . S
C182 C184 1.320 . S
C183 C181 1.339 . S
C183 C182 1.395 . S
C183 H209 0.929 . S
C184 C182 1.320 . S
C184 C185 1.405 . S
C184 H210 0.930 . S
C185 C180 1.479 . S
C185 C184 1.405 . S
C185 H211 0.931 . S
U186 O187 2.454 1_655 S
U186 O188 2.458 1_655 S
U186 C189 2.984 1_655 S
U186 C190 2.847 . S
U186 C203 2.882 . S
U186 O204 2.441 . S
U186 O205 2.420 . S
U186 O206 2.455 1_655 S
U186 O207 2.449 . S
O187 U186 2.454 1_455 S
O187 C189 1.353 . S
O188 U186 2.458 1_455 S
O188 C189 1.286 . S
C189 U186 2.984 1_455 S
C189 O187 1.353 . S
C189 O188 1.286 . S
C189 C191 1.363 . S
C190 C180 1.465 . S
C190 U186 2.847 . S
C190 O204 1.249 . S
C190 O205 1.202 . S
C191 C189 1.363 . S
C191 C193 1.408 . S
C191 C196 1.342 . S
C192 C193 1.310 . S
C192 C195 1.461 . S
C192 H212 0.932 . S
C193 C191 1.408 . S
C193 C192 1.310 . S
C193 H213 0.930 . S
C194 C195 1.474 . S
C194 C196 1.285 . S
C194 H214 0.929 . S
C195 C192 1.461 . S
C195 C194 1.474 . S
C196 C191 1.342 . S
C196 C194 1.285 . S
C196 H215 0.930 . S
C197 C200 1.424 1_455 S
C197 C202 1.245 . S
C197 C203 1.428 1_455 S
C198 C201 1.260 . S
C198 C202 1.477 . S
C198 H216 0.932 . S
C199 C200 1.384 . S
C199 C201 1.479 1_655 S
C199 H217 0.929 . S
C200 C197 1.424 1_655 S
C200 C199 1.384 . S
C200 H218 0.928 . S
C201 C198 1.260 . S
C201 C199 1.479 1_455 S
C202 C197 1.245 . S
C202 C198 1.477 . S
C202 H219 0.932 . S
C203 U186 2.882 . S
C203 C197 1.428 1_655 S
C203 O206 1.301 1_655 S
C203 O207 1.282 . S
O204 U186 2.441 . S
O204 C190 1.249 . S
O205 U186 2.420 . S
O205 C190 1.202 . S
O206 U186 2.455 1_455 S
O206 C203 1.301 1_455 S
O207 U186 2.449 . S
O207 C203 1.282 . S
H208 C181 0.931 . S
H209 C183 0.929 . S
H210 C184 0.930 . S
H211 C185 0.931 . S
H212 C192 0.932 . S
H213 C193 0.930 . S
H214 C194 0.929 . S
H215 C196 0.930 . S
H216 C198 0.932 . S
H217 C199 0.929 . S
H218 C200 0.928 . S
H219 C202 0.932 . S
C220 C221 1.264 . S
C220 C225 1.479 . S
C220 C230 1.465 . S
C221 C220 1.264 . S
C221 C223 1.339 . S
C221 H248 0.931 . S
C222 C223 1.395 . S
C222 C224 1.320 . S
C223 C221 1.339 . S
C223 C222 1.395 . S
C223 H249 0.929 . S
C224 C222 1.320 . S
C224 C225 1.405 . S
C224 H250 0.930 . S
C225 C220 1.479 . S
C225 C224 1.405 . S
C225 H251 0.931 . S
U226 O227 2.454 . S
U226 O228 2.458 . S
U226 C229 2.984 . S
U226 C230 2.847 1_545 S
U226 C243 2.882 . S
U226 O244 2.441 . S
U226 O245 2.420 1_545 S
U226 O246 2.455 . S
U226 O247 2.449 . S
O227 U226 2.454 . S
O227 C229 1.353 . S
O228 U226 2.458 . S
O228 C229 1.286 . S
C229 U226 2.984 . S
C229 O227 1.353 . S
C229 O228 1.286 . S
C229 C231 1.363 . S
C230 C220 1.465 . S
C230 U226 2.847 1_565 S
C230 O244 1.249 1_565 S
C230 O245 1.202 . S
C231 C229 1.363 . S
C231 C233 1.408 . S
C231 C236 1.342 . S
C232 C233 1.310 . S
C232 C235 1.461 . S
C232 H252 0.932 . S
C233 C231 1.408 . S
C233 C232 1.310 . S
C233 H253 0.930 . S
C234 C235 1.474 . S
C234 C236 1.285 . S
C234 H254 0.929 . S
C235 C232 1.461 . S
C235 C234 1.474 . S
C236 C231 1.342 . S
C236 C234 1.285 . S
C236 H255 0.930 . S
C237 C240 1.424 . S
C237 C242 1.245 . S
C237 C243 1.428 . S
C238 C241 1.260 . S
C238 C242 1.477 . S
C238 H256 0.932 . S
C239 C240 1.384 . S
C239 C241 1.479 . S
C239 H257 0.929 1_545 S
C240 C237 1.424 . S
C240 C239 1.384 . S
C240 H258 0.928 1_545 S
C241 C238 1.260 . S
C241 C239 1.479 . S
C242 C237 1.245 . S
C242 C238 1.477 . S
C242 H259 0.932 . S
C243 U226 2.882 . S
C243 C237 1.428 . S
C243 O246 1.301 . S
C243 O247 1.282 . S
O244 U226 2.441 . S
O244 C230 1.249 1_545 S
O245 U226 2.420 1_565 S
O245 C230 1.202 . S
O246 U226 2.455 . S
O246 C243 1.301 . S
O247 U226 2.449 . S
O247 C243 1.282 . S
H248 C221 0.931 . S
H249 C223 0.929 . S
H250 C224 0.930 . S
H251 C225 0.931 . S
H252 C232 0.932 . S
H253 C233 0.930 . S
H254 C234 0.929 . S
H255 C236 0.930 . S
H256 C238 0.932 . S
H257 C239 0.929 1_565 S
H258 C240 0.928 1_565 S
H259 C242 0.932 . S
C260 C261 1.264 . S
C260 C265 1.479 . S
C260 C270 1.465 . S
C261 C260 1.264 . S
C261 C263 1.339 . S
C261 H288 0.931 . S
C262 C263 1.395 . S
C262 C264 1.320 . S
C263 C261 1.339 . S
C263 C262 1.395 . S
C263 H289 0.929 . S
C264 C262 1.320 . S
C264 C265 1.405 . S
C264 H290 0.930 . S
C265 C260 1.479 . S
C265 C264 1.405 . S
C265 H291 0.931 . S
U266 O267 2.454 . S
U266 O268 2.458 . S
U266 C269 2.984 . S
U266 C270 2.847 . S
U266 C283 2.882 . S
U266 O284 2.441 . S
U266 O285 2.420 . S
U266 O286 2.455 . S
U266 O287 2.449 . S
O267 U266 2.454 . S
O267 C269 1.353 . S
O268 U266 2.458 . S
O268 C269 1.286 . S
C269 U266 2.984 . S
C269 O267 1.353 . S
C269 O268 1.286 . S
C269 C271 1.363 . S
C270 C260 1.465 . S
C270 U266 2.847 . S
C270 O284 1.249 . S
C270 O285 1.202 . S
C271 C269 1.363 . S
C271 C273 1.408 . S
C271 C276 1.342 . S
C272 C273 1.310 . S
C272 C275 1.461 . S
C272 H292 0.932 . S
C273 C271 1.408 . S
C273 C272 1.310 . S
C273 H293 0.930 . S
C274 C275 1.474 . S
C274 C276 1.285 . S
C274 H294 0.929 . S
C275 C272 1.461 . S
C275 C274 1.474 . S
C276 C271 1.342 . S
C276 C274 1.285 . S
C276 H295 0.930 . S
C277 C280 1.424 . S
C277 C282 1.245 . S
C277 C283 1.428 . S
C278 C281 1.260 1_554 S
C278 C282 1.477 . S
C278 H296 0.951 . S
C279 C280 1.384 . S
C279 C281 1.479 1_554 S
C279 H297 0.929 . S
C280 C277 1.424 . S
C280 C279 1.384 . S
C280 H298 0.928 . S
C281 C278 1.260 1_556 S
C281 C279 1.479 1_556 S
C282 C277 1.245 . S
C282 C278 1.477 . S
C282 H299 0.932 . S
C283 U266 2.882 . S
C283 C277 1.428 . S
C283 O286 1.301 . S
C283 O287 1.282 . S
O284 U266 2.441 . S
O284 C270 1.249 . S
O285 U266 2.420 . S
O285 C270 1.202 . S
O286 U266 2.455 . S
O286 C283 1.301 . S
O287 U266 2.449 . S
O287 C283 1.282 . S
H288 C261 0.931 . S
H289 C263 0.929 . S
H290 C264 0.930 . S
H291 C265 0.931 . S
H292 C272 0.932 . S
H293 C273 0.930 . S
H294 C274 0.929 . S
H295 C276 0.930 . S
H296 C278 0.951 . S
H297 C279 0.929 . S
H298 C280 0.928 . S
H299 C282 0.932 . S
H300 C306 0.930 . S
H301 C309 0.930 . S
H302 C310 0.930 . S
H303 C311 0.930 . S
H304 C314 0.930 . S
H305 C315 0.930 . S
C306 H300 0.930 . S
C306 C307 1.355 . S
C306 C308 1.415 . S
C307 C306 1.355 . S
C307 C309 1.419 . S
C308 C306 1.415 . S
C308 C313 1.425 . S
C308 C315 1.409 . S
C309 H301 0.930 . S
C309 C307 1.419 . S
C309 C310 1.362 . S
C310 H302 0.930 . S
C310 C309 1.362 . S
C310 C313 1.409 . S
C311 H303 0.930 . S
C311 C312 1.355 . S
C311 C313 1.415 . S
C312 C311 1.355 . S
C312 C314 1.419 . S
C313 C308 1.425 . S
C313 C310 1.409 . S
C313 C311 1.415 . S
C314 H304 0.930 . S
C314 C312 1.419 . S
C314 C315 1.362 . S
C315 H305 0.930 . S
C315 C308 1.409 . S
C315 C314 1.362 . S
H316 C322 0.930 . S
H317 C325 0.930 . S
H318 C326 0.930 . S
H319 C327 0.930 . S
H320 C330 0.930 . S
H321 C331 0.930 . S
C322 H316 0.930 . S
C322 C323 1.355 . S
C322 C324 1.415 . S
C323 C322 1.355 . S
C323 C325 1.419 . S
C324 C322 1.415 . S
C324 C329 1.425 . S
C324 C331 1.409 . S
C325 H317 0.930 . S
C325 C323 1.419 . S
C325 C326 1.362 . S
C326 H318 0.930 . S
C326 C325 1.362 . S
C326 C329 1.409 . S
C327 H319 0.930 . S
C327 C328 1.355 . S
C327 C329 1.415 . S
C328 C327 1.355 . S
C328 C330 1.419 . S
C329 C324 1.425 . S
C329 C326 1.409 . S
C329 C327 1.415 . S
C330 H320 0.930 . S
C330 C328 1.419 . S
C330 C331 1.362 . S
C331 H321 0.930 . S
C331 C324 1.409 . S
C331 C330 1.362 . S
H332 C338 0.930 . S
H333 C341 0.930 . S
H334 C342 0.930 . S
H335 C343 0.930 . S
H336 C346 0.930 . S
H337 C347 0.930 . S
C338 H332 0.930 . S
C338 C339 1.355 . S
C338 C340 1.415 . S
C339 C338 1.355 . S
C339 C341 1.419 . S
C340 C338 1.415 . S
C340 C345 1.425 . S
C340 C347 1.409 . S
C341 H333 0.930 . S
C341 C339 1.419 . S
C341 C342 1.362 . S
C342 H334 0.930 . S
C342 C341 1.362 . S
C342 C345 1.409 . S
C343 H335 0.930 . S
C343 C344 1.355 . S
C343 C345 1.415 . S
C344 C343 1.355 . S
C344 C346 1.419 . S
C345 C340 1.425 . S
C345 C342 1.409 . S
C345 C343 1.415 . S
C346 H336 0.930 . S
C346 C344 1.419 . S
C346 C347 1.362 . S
C347 H337 0.930 . S
C347 C340 1.409 . S
C347 C346 1.362 . S
H348 C354 0.930 . S
H349 C357 0.930 . S
H350 C358 0.930 . S
H351 C359 0.930 . S
H352 C362 0.930 . S
H353 C363 0.930 . S
C354 H348 0.930 . S
C354 C355 1.355 . S
C354 C356 1.415 . S
C355 C354 1.355 . S
C355 C357 1.419 . S
C356 C354 1.415 . S
C356 C361 1.425 . S
C356 C363 1.409 . S
C357 H349 0.930 . S
C357 C355 1.419 . S
C357 C358 1.362 . S
C358 H350 0.930 . S
C358 C357 1.362 . S
C358 C361 1.409 . S
C359 H351 0.930 . S
C359 C360 1.355 . S
C359 C361 1.415 . S
C360 C359 1.355 . S
C360 C362 1.419 . S
C361 C356 1.425 . S
C361 C358 1.409 . S
C361 C359 1.415 . S
C362 H352 0.930 . S
C362 C360 1.419 . S
C362 C363 1.362 . S
C363 H353 0.930 . S
C363 C356 1.409 . S
C363 C362 1.362 . S
H364 C370 0.930 . S
H365 C373 0.930 . S
H366 C374 0.930 . S
H367 C375 0.930 . S
H368 C378 0.930 . S
H369 C379 0.930 . S
C370 H364 0.930 . S
C370 C371 1.355 . S
C370 C372 1.415 . S
C371 C370 1.355 . S
C371 C373 1.419 . S
C372 C370 1.415 . S
C372 C377 1.425 . S
C372 C379 1.409 . S
C373 H365 0.930 . S
C373 C371 1.419 . S
C373 C374 1.362 . S
C374 H366 0.930 . S
C374 C373 1.362 . S
C374 C377 1.409 . S
C375 H367 0.930 . S
C375 C376 1.355 . S
C375 C377 1.415 . S
C376 C375 1.355 . S
C376 C378 1.419 . S
C377 C372 1.425 . S
C377 C374 1.409 . S
C377 C375 1.415 . S
C378 H368 0.930 . S
C378 C376 1.419 . S
C378 C379 1.362 . S
C379 H369 0.930 . S
C379 C372 1.409 . S
C379 C378 1.362 . S
H380 C386 0.930 . S
H381 C389 0.930 . S
H382 C390 0.930 . S
H383 C391 0.930 . S
H384 C394 0.930 . S
H385 C395 0.930 . S
C386 H380 0.930 . S
C386 C387 1.355 . S
C386 C388 1.415 . S
C387 C386 1.355 . S
C387 C389 1.419 . S
C388 C386 1.415 . S
C388 C393 1.425 . S
C388 C395 1.409 . S
C389 H381 0.930 . S
C389 C387 1.419 . S
C389 C390 1.362 . S
C390 H382 0.930 . S
C390 C389 1.362 . S
C390 C393 1.409 . S
C391 H383 0.930 . S
C391 C392 1.355 . S
C391 C393 1.415 . S
C392 C391 1.355 . S
C392 C394 1.419 . S
C393 C388 1.425 . S
C393 C390 1.409 . S
C393 C391 1.415 . S
C394 H384 0.930 . S
C394 C392 1.419 . S
C394 C395 1.362 . S
C395 H385 0.930 . S
C395 C388 1.409 . S
C395 C394 1.362 . S
H396 C402 0.930 . S
H397 C405 0.930 . S
H398 C406 0.930 . S
H399 C407 0.930 . S
H400 C410 0.930 . S
H401 C411 0.930 . S
C402 H396 0.930 . S
C402 C403 1.355 . S
C402 C404 1.415 . S
C403 C402 1.355 . S
C403 C405 1.419 . S
C404 C402 1.415 . S
C404 C409 1.425 . S
C404 C411 1.409 . S
C405 H397 0.930 . S
C405 C403 1.419 . S
C405 C406 1.362 . S
C406 H398 0.930 . S
C406 C405 1.362 . S
C406 C409 1.409 . S
C407 H399 0.930 . S
C407 C408 1.355 . S
C407 C409 1.415 . S
C408 C407 1.355 . S
C408 C410 1.419 . S
C409 C404 1.425 . S
C409 C406 1.409 . S
C409 C407 1.415 . S
C410 H400 0.930 . S
C410 C408 1.419 . S
C410 C411 1.362 . S
C411 H401 0.930 . S
C411 C404 1.409 . S
C411 C410 1.362 . S
H412 C418 0.930 . S
H413 C421 0.930 . S
H414 C422 0.930 . S
H415 C423 0.930 . S
H416 C426 0.930 . S
H417 C427 0.930 . S
C418 H412 0.930 . S
C418 C419 1.355 . S
C418 C420 1.415 . S
C419 C418 1.355 . S
C419 C421 1.419 . S
C420 C418 1.415 . S
C420 C425 1.425 . S
C420 C427 1.409 . S
C421 H413 0.930 . S
C421 C419 1.419 . S
C421 C422 1.362 . S
C422 H414 0.930 . S
C422 C421 1.362 . S
C422 C425 1.409 . S
C423 H415 0.930 . S
C423 C424 1.355 . S
C423 C425 1.415 . S
C424 C423 1.355 . S
C424 C426 1.419 . S
C425 C420 1.425 . S
C425 C422 1.409 . S
C425 C423 1.415 . S
C426 H416 0.930 . S
C426 C424 1.419 . S
C426 C427 1.362 . S
C427 H417 0.930 . S
C427 C420 1.409 . S
C427 C426 1.362 . S
H428 C434 0.930 . S
H429 C437 0.930 . S
H430 C438 0.930 . S
H431 C439 0.930 . S
H432 C442 0.930 . S
H433 C443 0.930 . S
C434 H428 0.930 . S
C434 C435 1.355 . S
C434 C436 1.415 . S
C435 C434 1.355 . S
C435 C437 1.419 . S
C436 C434 1.415 . S
C436 C441 1.425 . S
C436 C443 1.409 . S
C437 H429 0.930 . S
C437 C435 1.419 . S
C437 C438 1.362 . S
C438 H430 0.930 . S
C438 C437 1.362 . S
C438 C441 1.409 . S
C439 H431 0.930 . S
C439 C440 1.355 . S
C439 C441 1.415 . S
C440 C439 1.355 . S
C440 C442 1.419 . S
C441 C436 1.425 . S
C441 C438 1.409 . S
C441 C439 1.415 . S
C442 H432 0.930 . S
C442 C440 1.419 . S
C442 C443 1.362 . S
C443 H433 0.930 . S
C443 C436 1.409 . S
C443 C442 1.362 . S
H444 C450 0.930 . S
H445 C453 0.930 . S
H446 C454 0.930 . S
H447 C455 0.930 . S
H448 C458 0.930 . S
H449 C459 0.930 . S
C450 H444 0.930 . S
C450 C451 1.355 . S
C450 C452 1.415 . S
C451 C450 1.355 . S
C451 C453 1.419 . S
C452 C450 1.415 . S
C452 C457 1.425 . S
C452 C459 1.409 . S
C453 H445 0.930 . S
C453 C451 1.419 . S
C453 C454 1.362 . S
C454 H446 0.930 . S
C454 C453 1.362 . S
C454 C457 1.409 . S
C455 H447 0.930 . S
C455 C456 1.355 . S
C455 C457 1.415 . S
C456 C455 1.355 . S
C456 C458 1.419 . S
C457 C452 1.425 . S
C457 C454 1.409 . S
C457 C455 1.415 . S
C458 H448 0.930 . S
C458 C456 1.419 . S
C458 C459 1.362 . S
C459 H449 0.930 . S
C459 C452 1.409 . S
C459 C458 1.362 . S
H460 C466 0.930 . S
H461 C469 0.930 . S
H462 C470 0.930 . S
H463 C471 0.930 . S
H464 C474 0.930 . S
H465 C475 0.930 . S
C466 H460 0.930 . S
C466 C467 1.355 . S
C466 C468 1.415 . S
C467 C466 1.355 . S
C467 C469 1.419 . S
C468 C466 1.415 . S
C468 C473 1.425 . S
C468 C475 1.409 . S
C469 H461 0.930 . S
C469 C467 1.419 . S
C469 C470 1.362 . S
C470 H462 0.930 . S
C470 C469 1.362 . S
C470 C473 1.409 . S
C471 H463 0.930 . S
C471 C472 1.355 . S
C471 C473 1.415 . S
C472 C471 1.355 . S
C472 C474 1.419 . S
C473 C468 1.425 . S
C473 C470 1.409 . S
C473 C471 1.415 . S
C474 H464 0.930 . S
C474 C472 1.419 . S
C474 C475 1.362 . S
C475 H465 0.930 . S
C475 C468 1.409 . S
C475 C474 1.362 . S
H476 C482 0.930 . S
H477 C485 0.930 . S
H478 C486 0.930 . S
H479 C487 0.930 . S
H480 C490 0.930 . S
H481 C491 0.930 . S
C482 H476 0.930 . S
C482 C483 1.355 . S
C482 C484 1.415 . S
C483 C482 1.355 . S
C483 C485 1.419 . S
C484 C482 1.415 . S
C484 C489 1.425 . S
C484 C491 1.409 . S
C485 H477 0.930 . S
C485 C483 1.419 . S
C485 C486 1.362 . S
C486 H478 0.930 . S
C486 C485 1.362 . S
C486 C489 1.409 . S
C487 H479 0.930 . S
C487 C488 1.355 . S
C487 C489 1.415 . S
C488 C487 1.355 . S
C488 C490 1.419 . S
C489 C484 1.425 . S
C489 C486 1.409 . S
C489 C487 1.415 . S
C490 H480 0.930 . S
C490 C488 1.419 . S
C490 C491 1.362 . S
C491 H481 0.930 . S
C491 C484 1.409 . S
C491 C490 1.362 . S
H492 C498 0.930 1_655 S
H493 C501 0.930 . S
H494 C502 0.930 . S
H495 C503 0.930 . S
H496 C506 0.930 1_655 S
H497 C507 0.930 . S
C498 H492 0.930 1_455 S
C498 C499 1.355 . S
C498 C500 1.415 . S
C499 C498 1.355 . S
C499 C501 1.419 . S
C500 C498 1.415 . S
C500 C505 1.425 . S
C500 C507 1.409 1_455 S
C501 H493 0.930 . S
C501 C499 1.419 . S
C501 C502 1.362 . S
C502 H494 0.930 . S
C502 C501 1.362 . S
C502 C505 1.409 . S
C503 H495 0.930 . S
C503 C504 1.355 . S
C503 C505 1.415 . S
C504 C503 1.355 . S
C504 C506 1.419 . S
C505 C500 1.425 . S
C505 C502 1.409 . S
C505 C503 1.415 . S
C506 H496 0.930 1_455 S
C506 C504 1.419 . S
C506 C507 1.362 1_455 S
C507 H497 0.930 . S
C507 C500 1.409 1_655 S
C507 C506 1.362 1_655 S
H508 C514 0.930 . S
H509 C517 0.930 . S
H510 C518 0.930 1_565 S
H511 C519 0.930 1_565 S
H512 C522 0.930 . S
H513 C523 0.930 . S
C514 H508 0.930 . S
C514 C515 1.355 . S
C514 C516 1.415 . S
C515 C514 1.355 . S
C515 C517 1.419 . S
C516 C514 1.415 . S
C516 C521 1.425 . S
C516 C523 1.409 . S
C517 H509 0.930 . S
C517 C515 1.419 . S
C517 C518 1.362 . S
C518 H510 0.930 1_545 S
C518 C517 1.362 . S
C518 C521 1.409 . S
C519 H511 0.930 1_545 S
C519 C520 1.355 . S
C519 C521 1.415 . S
C520 C519 1.355 . S
C520 C522 1.419 . S
C521 C516 1.425 . S
C521 C518 1.409 . S
C521 C519 1.415 . S
C522 H512 0.930 . S
C522 C520 1.419 . S
C522 C523 1.362 . S
C523 H513 0.930 . S
C523 C516 1.409 . S
C523 C522 1.362 . S
H524 C530 0.930 . S
H525 C533 0.930 . S
H526 C534 0.930 . S
H527 C535 0.930 . S
H528 C538 0.930 . S
H529 C539 0.930 . S
C530 H524 0.930 . S
C530 C531 1.355 . S
C530 C532 1.415 . S
C531 C530 1.355 . S
C531 C533 1.419 . S
C532 C530 1.415 . S
C532 C537 1.425 . S
C532 C539 1.409 . S
C533 H525 0.930 . S
C533 C531 1.419 . S
C533 C534 1.362 . S
C534 H526 0.930 . S
C534 C533 1.362 . S
C534 C537 1.409 . S
C535 H527 0.930 . S
C535 C536 1.355 . S
C535 C537 1.415 . S
C536 C535 1.355 . S
C536 C538 1.419 . S
C537 C532 1.425 . S
C537 C534 1.409 . S
C537 C535 1.415 . S
C538 H528 0.930 . S
C538 C536 1.419 . S
C538 C539 1.362 . S
C539 H529 0.930 . S
C539 C532 1.409 . S
C539 C538 1.362 . S
H540 C546 0.930 1_565 S
H541 C549 0.930 . S
H542 C550 0.930 . S
H543 C551 0.930 . S
H544 C554 0.930 1_565 S
H545 C555 0.930 . S
C546 H540 0.930 1_545 S
C546 C547 1.355 . S
C546 C548 1.415 . S
C547 C546 1.355 . S
C547 C549 1.419 . S
C548 C546 1.415 . S
C548 C553 1.425 . S
C548 C555 1.409 1_545 S
C549 H541 0.930 . S
C549 C547 1.419 . S
C549 C550 1.362 . S
C550 H542 0.930 . S
C550 C549 1.362 . S
C550 C553 1.409 . S
C551 H543 0.930 . S
C551 C552 1.355 . S
C551 C553 1.415 . S
C552 C551 1.355 . S
C552 C554 1.419 . S
C553 C548 1.425 . S
C553 C550 1.409 . S
C553 C551 1.415 . S
C554 H544 0.930 1_545 S
C554 C552 1.419 . S
C554 C555 1.362 1_545 S
C555 H545 0.930 . S
C555 C548 1.409 1_565 S
C555 C554 1.362 1_565 S
H556 C562 0.930 . S
H557 C565 0.930 . S
H558 C566 0.930 . S
H559 C567 0.930 . S
H560 C570 0.930 . S
H561 C571 0.930 . S
C562 H556 0.930 . S
C562 C563 1.355 . S
C562 C564 1.415 . S
C563 C562 1.355 . S
C563 C565 1.419 . S
C564 C562 1.415 . S
C564 C569 1.425 . S
C564 C571 1.409 . S
C565 H557 0.930 . S
C565 C563 1.419 . S
C565 C566 1.362 . S
C566 H558 0.930 . S
C566 C565 1.362 . S
C566 C569 1.409 . S
C567 H559 0.930 . S
C567 C568 1.355 . S
C567 C569 1.415 . S
C568 C567 1.355 . S
C568 C570 1.419 . S
C569 C564 1.425 . S
C569 C566 1.409 . S
C569 C567 1.415 . S
C570 H560 0.930 . S
C570 C568 1.419 . S
C570 C571 1.362 . S
C571 H561 0.930 . S
C571 C564 1.409 . S
C571 C570 1.362 . S
H572 C578 0.930 1_655 S
H573 C581 0.930 . S
H574 C582 0.930 . S
H575 C583 0.930 . S
H576 C586 0.930 . S
H577 C587 0.930 . S
C578 H572 0.930 1_455 S
C578 C579 1.355 . S
C578 C580 1.415 . S
C579 C578 1.355 . S
C579 C581 1.419 . S
C580 C578 1.415 . S
C580 C585 1.425 . S
C580 C587 1.409 1_455 S
C581 H573 0.930 . S
C581 C579 1.419 . S
C581 C582 1.362 . S
C582 H574 0.930 . S
C582 C581 1.362 . S
C582 C585 1.409 . S
C583 H575 0.930 . S
C583 C584 1.355 . S
C583 C585 1.415 . S
C584 C583 1.355 . S
C584 C586 1.419 1_455 S
C585 C580 1.425 . S
C585 C582 1.409 . S
C585 C583 1.415 . S
C586 H576 0.930 . S
C586 C584 1.419 1_655 S
C586 C587 1.362 . S
C587 H577 0.930 . S
C587 C580 1.409 1_655 S
C587 C586 1.362 . S
C307 C2 1.154 . S
C312 C275 1.138 . S
C323 C21 1.090 . S
C328 C182 1.051 . S
C339 C42 1.181 . S
C344 C222 1.157 . S
C355 C1 1.080 . S
C360 C262 1.063 . S
C376 C195 1.196 . S
C371 C22 1.176 . S
C392 C235 1.055 . S
C387 C41 1.138 . S
C403 C38 2.007 . S
C408 C102 1.954 . S
C419 C59 2.043 . S
C424 C142 1.997 . S
C435 C18 2.014 . S
C440 C75 1.981 . S
C456 C115 2.011 . S
C451 C39 2.067 . S
C472 C155 1.956 . S
C467 C58 2.020 . S
C483 C19 2.064 . S
C488 C62 2.038 . S
C504 C161 1.486 1_554 S
C499 C9 1.501 . S
C515 C29 1.534 . S
C520 C81 1.564 . S
C531 C49 1.515 . S
C536 C121 1.568 . S
C552 C241 1.361 . S
C547 C28 1.371 . S
C568 C281 1.390 . S
C563 C48 1.380 . S
C579 C8 1.331 . S
C584 C201 1.365 . S
