# Generated by pormake.
# Topology rtl, (3,6)-cn, num edge types: 1
# Building blocks:
#     Node 0, Type 0, BuildingBlock: OLANEW_clean_sbu_2, # of connection points: 3
#     Node 1, Type 0, BuildingBlock: OLANEW_clean_sbu_2, # of connection points: 3
#     Node 2, Type 0, BuildingBlock: OLANEW_clean_sbu_2, # of connection points: 3
#     Node 3, Type 0, BuildingBlock: OLANEW_clean_sbu_2, # of connection points: 3
#     Node 4, Type 1, BuildingBlock: VOLQOD_clean_sbu_1, # of connection points: 6
#     Node 5, Type 1, BuildingBlock: VOLQOD_clean_sbu_1, # of connection points: 6
#     Edge 6, Type (0, 1), BuildingBlock: XIVTED_clean_linker_0, # of connection points: 2
#     Edge 7, Type (0, 1), BuildingBlock: XIVTED_clean_linker_0, # of connection points: 2
#     Edge 8, Type (0, 1), BuildingBlock: XIVTED_clean_linker_0, # of connection points: 2
#     Edge 9, Type (0, 1), BuildingBlock: XIVTED_clean_linker_0, # of connection points: 2
#     Edge 10, Type (0, 1), BuildingBlock: XIVTED_clean_linker_0, # of connection points: 2
#     Edge 11, Type (0, 1), BuildingBlock: XIVTED_clean_linker_0, # of connection points: 2
#     Edge 12, Type (0, 1), BuildingBlock: XIVTED_clean_linker_0, # of connection points: 2
#     Edge 13, Type (0, 1), BuildingBlock: XIVTED_clean_linker_0, # of connection points: 2
#     Edge 14, Type (0, 1), BuildingBlock: XIVTED_clean_linker_0, # of connection points: 2
#     Edge 15, Type (0, 1), BuildingBlock: XIVTED_clean_linker_0, # of connection points: 2
#     Edge 16, Type (0, 1), BuildingBlock: XIVTED_clean_linker_0, # of connection points: 2
#     Edge 17, Type (0, 1), BuildingBlock: XIVTED_clean_linker_0, # of connection points: 2
# Relax obj value: 0.054
# Max RMSD: 0.146
# Mean RMSD: 0.100
data_MOF--net-rtl--node1-OLANEW_clean_sbu_2--node2-VOLQOD_clean_sbu_1--edge1-XIVTED_clean_linker_0
_symmetry_space_group_name_H-M    P1
_symmetry_Int_Tables_number       1
_symmetry_cell_setting            triclinic
loop_
_symmetry_equiv_pos_as_xyz
'x, y, z'
_cell_length_a     41.108815
_cell_length_b     38.999518
_cell_length_c     23.787027
_cell_angle_alpha  86.876448
_cell_angle_beta   92.905198
_cell_angle_gamma 89.817465
loop_
_atom_site_label
_atom_site_type_symbol
_atom_site_fract_x
_atom_site_fract_y
_atom_site_fract_z
_atom_type_partial_charge
O0 O 0.14814 0.75707 0.95442 0.0
Cd1 Cd 0.17237 0.72592 0.03809 0.0
O2 O 0.17057 0.80449 0.98361 0.0
Cd3 Cd 0.17959 0.78643 0.07136 0.0
O4 O 0.16122 0.80558 0.14843 0.0
C5 C 0.15639 0.83786 0.14558 0.0
O6 O 0.16434 0.85571 0.09989 0.0
C7 C 0.15487 0.78864 0.94567 0.0
C8 C 0.22664 0.68749 0.01295 0.0
O9 O 0.1987 0.67339 0.01752 0.0
O10 O 0.22894 0.71973 0.0201 0.0
O11 O 0.64756 0.73083 0.57074 0.0
Cd12 Cd 0.66798 0.7632 0.48823 0.0
O13 O 0.68693 0.69222 0.57727 0.0
Cd14 Cd 0.70226 0.7078 0.49372 0.0
O15 O 0.68616 0.69962 0.40702 0.0
C16 C 0.65538 0.69914 0.39892 0.0
O17 O 0.63719 0.70574 0.44094 0.0
C18 C 0.66139 0.70477 0.59631 0.0
C19 C 0.72394 0.80229 0.50817 0.0
O20 O 0.6955 0.81508 0.51293 0.0
O21 O 0.7259 0.77096 0.4951 0.0
O22 O 0.8416 0.21318 0.10382 0.0
Cd23 Cd 0.81945 0.23397 0.01077 0.0
O24 O 0.88334 0.24834 0.10516 0.0
Cd25 Cd 0.87247 0.2636 0.01678 0.0
O26 O 0.87795 0.23507 0.94152 0.0
C27 C 0.89098 0.20585 0.95389 0.0
O28 O 0.89882 0.19734 0.00708 0.0
C29 C 0.86685 0.2248 0.1293 0.0
C30 C 0.76869 0.2809 0.01675 0.0
O31 O 0.76328 0.24856 0.01634 0.0
O32 O 0.79824 0.2911 0.01456 0.0
O33 O 0.36723 0.22991 0.70424 0.0
Cd34 Cd 0.35521 0.17949 0.65042 0.0
O35 O 0.36319 0.26173 0.62572 0.0
Cd36 Cd 0.37155 0.30645 0.5695 0.0
O37 O 0.38595 0.33938 0.49851 0.0
C38 C 0.39495 0.32416 0.45601 0.0
O39 O 0.39465 0.29042 0.45764 0.0
C40 C 0.36965 0.25915 0.6786 0.0
C41 C 0.28964 0.16293 0.63665 0.0
O42 O 0.30671 0.1525 0.68092 0.0
O43 O 0.30343 0.18194 0.59927 0.0
O44 O 0.92047 0.98198 0.54047 0.0
Zn45 Zn 0.95236 0.02099 0.54549 0.0
O46 O -0.00277 0.00386 0.54702 0.0
Zn47 Zn 0.0188 0.01374 0.61891 0.0
Zn48 Zn -0.00261 0.95392 0.53949 0.0
Zn49 Zn 0.02053 0.02711 0.48588 0.0
O50 O 0.05722 0.04416 0.6082 0.0
O51 O 0.05948 0.05361 0.51575 0.0
O52 O 0.94363 0.0463 0.61521 0.0
O53 O 0.98914 0.03776 0.66839 0.0
O54 O 0.03618 0.97107 0.66007 0.0
O55 O 0.0218 0.92872 0.60561 0.0
O56 O 0.0205 0.94203 0.47023 0.0
O57 O 0.94319 0.05434 0.47904 0.0
O58 O 0.03735 0.99231 0.43435 0.0
O59 O 0.99089 0.06059 0.43987 0.0
C60 C 0.92347 0.94971 0.53611 0.0
C61 C 0.07077 0.05787 0.56575 0.0
C62 C 0.03604 0.93936 0.65012 0.0
C63 C 0.96044 0.05001 0.6609 0.0
C64 C 0.03553 0.95972 0.43323 0.0
C65 C 0.96081 0.06826 0.44173 0.0
O66 O 0.95142 0.93562 0.53459 0.0
O67 O 0.58749 0.48125 0.00675 0.0
Zn68 Zn 0.55569 0.52114 -0.00187 0.0
O69 O 0.51024 0.50665 -0.00246 0.0
Zn70 Zn 0.48704 0.52062 0.92473 0.0
Zn71 Zn 0.50969 0.45712 0.01054 0.0
Zn72 Zn 0.48906 0.52686 0.05943 0.0
O73 O 0.44676 0.54928 0.93781 0.0
O74 O 0.4477 0.55035 0.03131 0.0
O75 O 0.56391 0.54731 0.92597 0.0
O76 O 0.51697 0.54944 0.87507 0.0
O77 O 0.4712 0.47815 0.88384 0.0
O78 O 0.48547 0.43613 0.94719 0.0
O79 O 0.48878 0.44221 0.08216 0.0
O80 O 0.56591 0.55328 0.05992 0.0
O81 O 0.47665 0.49134 0.11892 0.0
O82 O 0.51823 0.56084 0.09742 0.0
C83 C 0.58303 0.44899 0.01281 0.0
C84 C 0.43413 0.55786 0.98293 0.0
C85 C 0.4721 0.44633 0.89984 0.0
C86 C 0.54703 0.55722 0.88172 0.0
C87 C 0.47735 0.45868 0.1215 0.0
C88 C 0.54838 0.56769 0.09454 0.0
O89 O 0.5545 0.43665 0.01482 0.0
H90 H 0.25146 0.13004 0.71304 0.0
H91 H 0.10754 0.09222 0.48726 0.0
H92 H 0.25014 0.17035 0.54028 0.0
H93 H 0.1031 0.06883 0.66631 0.0
H94 H 0.15931 0.12165 0.50498 0.0
H95 H 0.19657 0.10808 0.69617 0.0
C96 C 0.23953 0.13446 0.67161 0.0
C97 C 0.25547 0.15192 0.62794 0.0
C98 C 0.14682 0.11027 0.54034 0.0
C99 C 0.19261 0.12655 0.6081 0.0
C100 C 0.11729 0.09342 0.53026 0.0
C101 C 0.10099 0.07779 0.57529 0.0
C102 C 0.16022 0.11125 0.59576 0.0
C103 C 0.11478 0.0803 0.63016 0.0
C104 C 0.20815 0.12194 0.66198 0.0
C105 C 0.23875 0.15701 0.57515 0.0
N106 N 0.14364 0.09646 0.63874 0.0
N107 N 0.20831 0.1441 0.56654 0.0
H108 H 0.23611 0.6186 0.0337 0.0
H109 H 0.41035 0.60735 0.90464 0.0
H110 H 0.28299 0.70968 0.96654 0.0
H111 H 0.38583 0.54876 0.05553 0.0
H112 H 0.35813 0.63861 0.90623 0.0
H113 H 0.28574 0.58559 0.02053 0.0
C114 C 0.25671 0.63155 0.0156 0.0
C115 C 0.2556 0.66695 0.0016 0.0
C116 C 0.36428 0.61873 0.93864 0.0
C117 C 0.31199 0.62931 0.98566 0.0
C118 C 0.39384 0.60087 0.93762 0.0
C119 C 0.40236 0.5757 0.98025 0.0
C120 C 0.34293 0.61048 0.98156 0.0
C121 C 0.38026 0.56825 0.02222 0.0
C122 C 0.28497 0.61276 0.00831 0.0
C123 C 0.28302 0.68248 0.97838 0.0
N124 N 0.35147 0.58541 0.02164 0.0
N125 N 0.31015 0.66352 0.97093 0.0
H126 H 0.78744 0.78188 0.50328 0.0
H127 H 0.85983 0.96998 0.54211 0.0
H128 H 0.72814 0.87057 0.52964 0.0
H129 H 0.91939 0.88021 0.52397 0.0
H130 H 0.81138 0.93402 0.53779 0.0
H131 H 0.83605 0.81743 0.51152 0.0
C132 C 0.78463 0.80882 0.51103 0.0
C133 C 0.75363 0.82327 0.51568 0.0
C134 C 0.83505 0.92217 0.53482 0.0
C135 C 0.80928 0.86421 0.52489 0.0
C136 C 0.86278 0.94271 0.53719 0.0
C137 C 0.89383 0.92815 0.53331 0.0
C138 C 0.83828 0.88676 0.5284 0.0
C139 C 0.89601 0.89262 0.52709 0.0
C140 C 0.81243 0.82912 0.51568 0.0
C141 C 0.75153 0.85833 0.52575 0.0
N142 N 0.86863 0.87318 0.52475 0.0
N143 N 0.77896 0.87761 0.52983 0.0
H144 H 0.70392 0.26697 0.0248 0.0
H145 H 0.64819 0.46444 0.00851 0.0
H146 H 0.77152 0.35127 0.01365 0.0
H147 H 0.58226 0.37889 0.02521 0.0
H148 H 0.6939 0.42387 0.01182 0.0
H149 H 0.65922 0.30807 0.02639 0.0
C150 C 0.70939 0.29414 0.02278 0.0
C151 C 0.74153 0.30568 0.01897 0.0
C152 C 0.66942 0.41404 0.0149 0.0
C153 C 0.69033 0.35302 0.02067 0.0
C154 C 0.6433 0.43719 0.01303 0.0
C155 C 0.61127 0.42511 0.01643 0.0
C156 C 0.66347 0.37857 0.02012 0.0
C157 C 0.60647 0.38947 0.0223 0.0
C158 C 0.68382 0.31764 0.02371 0.0
C159 C 0.74711 0.34123 0.01657 0.0
N160 N 0.63223 0.36754 0.02381 0.0
N161 N 0.72174 0.36365 0.01732 0.0
H162 H 0.1295 0.80849 0.24011 0.0
H163 H 0.06769 0.98843 0.34421 0.0
H164 H 0.14558 0.9065 0.15294 0.0
H165 H 0.04277 0.89031 0.42318 0.0
H166 H 0.09785 0.95866 0.27563 0.0
H167 H 0.09976 0.83788 0.31031 0.0
C168 C 0.12696 0.83617 0.23589 0.0
C169 C 0.14001 0.85504 0.19049 0.0
C170 C 0.08572 0.94362 0.30787 0.0
C171 C 0.10591 0.88879 0.27042 0.0
C172 C 0.06843 0.96062 0.34707 0.0
C173 C 0.0526 0.9419 0.38964 0.0
C174 C 0.08741 0.90757 0.31122 0.0
C175 C 0.05451 0.90586 0.39109 0.0
C176 C 0.10987 0.85293 0.27584 0.0
C177 C 0.13589 0.89086 0.1871 0.0
N178 N 0.07166 0.88989 0.35257 0.0
N179 N 0.1192 0.90652 0.22643 0.0
H180 H 0.6884 0.65623 0.67207 0.0
H181 H 0.51861 0.59864 0.7951 0.0
H182 H 0.59839 0.71065 0.62732 0.0
H183 H 0.61216 0.56613 0.87065 0.0
H184 H 0.54664 0.63698 0.72823 0.0
H185 H 0.66026 0.62082 0.74192 0.0
C186 C 0.66279 0.66099 0.67738 0.0
C187 C 0.64574 0.68645 0.6438 0.0
C188 C 0.56094 0.62144 0.75957 0.0
C189 C 0.61318 0.64551 0.72296 0.0
C190 C 0.54498 0.59938 0.79741 0.0
C191 C 0.56304 0.57915 0.83857 0.0
C192 C 0.59515 0.6229 0.76258 0.0
C193 C 0.59718 0.58133 0.83984 0.0
C194 C 0.64671 0.64071 0.71718 0.0
C195 C 0.61254 0.69143 0.65251 0.0
N196 N 0.61207 0.60268 0.80238 0.0
N197 N 0.59724 0.67089 0.69085 0.0
H198 H 0.92717 0.23064 0.18222 0.0
H199 H 0.89604 0.08301 0.41992 0.0
H200 H 0.83484 0.17959 0.19888 0.0
H201 H 0.99177 0.11273 0.36909 0.0
H202 H 0.87207 0.12535 0.35019 0.0
H203 H 0.94968 0.19531 0.26313 0.0
C204 C 0.91145 0.21244 0.20345 0.0
C205 C 0.87913 0.20786 0.18343 0.0
C206 C 0.89832 0.12264 0.35446 0.0
C207 C 0.90484 0.16724 0.2757 0.0
C208 C 0.91205 0.09849 0.39426 0.0
C209 C 0.946 0.0941 0.40011 0.0
C210 C 0.91865 0.14282 0.32062 0.0
C211 C 0.96549 0.11499 0.36572 0.0
C212 C 0.92441 0.19211 0.24935 0.0
C213 C 0.85996 0.1838 0.21258 0.0
N214 N 0.95153 0.13844 0.32745 0.0
N215 N 0.87315 0.16426 0.25706 0.0
H216 H 0.35901 0.32884 0.65691 0.0
H217 H 0.47912 0.37715 0.91535 0.0
H218 H 0.41039 0.2557 0.77193 0.0
H219 H 0.43164 0.45474 0.80302 0.0
H220 H 0.45374 0.33303 0.86103 0.0
H221 H 0.38458 0.37573 0.70763 0.0
C222 C 0.376 0.32262 0.6922 0.0
C223 C 0.38316 0.28828 0.70941 0.0
C224 C 0.44876 0.35963 0.84793 0.0
C225 C 0.41178 0.34165 0.76833 0.0
C226 C 0.4633 0.38503 0.87909 0.0
C227 C 0.45742 0.41989 0.86403 0.0
C228 C 0.42791 0.36881 0.801 0.0
C229 C 0.43686 0.42821 0.81617 0.0
C230 C 0.39032 0.3494 0.72147 0.0
C231 C 0.40421 0.28175 0.75701 0.0
N232 N 0.4227 0.40279 0.78637 0.0
N233 N 0.4178 0.30811 0.78453 0.0
H234 H 0.68538 0.67471 0.30844 0.0
H235 H 0.5185 0.6058 0.17062 0.0
H236 H 0.59052 0.69484 0.36991 0.0
H237 H 0.6128 0.58548 0.1069 0.0
H238 H 0.5443 0.64331 0.23813 0.0
H239 H 0.65909 0.64725 0.22812 0.0
C240 C 0.65903 0.67375 0.3047 0.0
C241 C 0.64013 0.68671 0.34632 0.0
C242 C 0.55935 0.63083 0.20916 0.0
C243 C 0.60994 0.65513 0.25489 0.0
C244 C 0.54462 0.60932 0.1706 0.0
C245 C 0.56352 0.59215 0.13334 0.0
C246 C 0.59329 0.63512 0.2108 0.0
C247 C 0.59726 0.59799 0.13506 0.0
C248 C 0.64404 0.65799 0.25892 0.0
C249 C 0.60609 0.68489 0.33918 0.0
N250 N 0.61109 0.61878 0.17347 0.0
N251 N 0.59213 0.66909 0.29469 0.0
H252 H 0.87315 0.21113 0.84057 0.0
H253 H 0.98202 0.05093 0.77114 0.0
H254 H 0.92561 0.14612 0.96733 0.0
H255 H 0.90925 0.09578 0.65173 0.0
H256 H 0.96296 0.08764 0.84246 0.0
H257 H 0.88743 0.1713 0.76916 0.0
C258 C 0.88758 0.1885 0.85339 0.0
C259 C 0.89832 0.18202 0.90994 0.0
C260 C 0.95096 0.08932 0.80079 0.0
C261 C 0.91478 0.13661 0.82875 0.0
C262 C 0.96189 0.06839 0.75998 0.0
C263 C 0.94727 0.07035 0.70533 0.0
C264 C 0.92547 0.11278 0.78681 0.0
C265 C 0.92116 0.09338 0.6934 0.0
C266 C 0.8956 0.16575 0.81271 0.0
C267 C 0.91683 0.15223 0.92427 0.0
N268 N 0.91127 0.11398 0.73372 0.0
N269 N 0.92463 0.1308 0.88393 0.0
H270 H 0.41676 0.29912 0.35959 0.0
H271 H 0.45213 0.48454 0.2152 0.0
H272 H 0.39888 0.39408 0.43836 0.0
H273 H 0.47342 0.38897 0.14064 0.0
H274 H 0.43131 0.4521 0.29633 0.0
H275 H 0.43625 0.33189 0.27792 0.0
C276 C 0.41688 0.32688 0.35971 0.0
C277 C 0.40622 0.34388 0.40595 0.0
C278 C 0.44054 0.43825 0.2622 0.0
C279 C 0.42857 0.38162 0.31245 0.0
C280 C 0.45244 0.45675 0.21581 0.0
C281 C 0.4646 0.43948 0.17097 0.0
C282 C 0.44076 0.4022 0.26377 0.0
C283 C 0.46434 0.40342 0.17419 0.0
C284 C 0.42805 0.3456 0.31302 0.0
C285 C 0.40691 0.37991 0.40367 0.0
N286 N 0.45262 0.38602 0.21976 0.0
N287 N 0.41794 0.39759 0.35769 0.0
H288 H 0.16893 0.85454 0.91181 0.0
H289 H 0.0359 0.86851 0.65414 0.0
H290 H 0.11082 0.76791 0.86325 0.0
H291 H 0.07844 0.95485 0.73663 0.0
H292 H 0.06783 0.8296 0.72063 0.0
H293 H 0.14181 0.88966 0.83581 0.0
C294 C 0.15066 0.84276 0.88479 0.0
C295 C 0.14186 0.80829 0.89444 0.0
C296 C 0.07008 0.85709 0.72392 0.0
C297 C 0.11035 0.84868 0.80732 0.0
C298 C 0.05189 0.87928 0.68612 0.0
C299 C 0.05433 0.91502 0.68999 0.0
C300 C 0.09109 0.87082 0.76525 0.0
C301 C 0.0755 0.92755 0.73216 0.0
C302 C 0.13506 0.86292 0.84147 0.0
C303 C 0.11823 0.79443 0.85752 0.0
N304 N 0.09304 0.90552 0.76792 0.0
N305 N 0.10303 0.81479 0.81577 0.0
loop_
_geom_bond_atom_site_label_1
_geom_bond_atom_site_label_2
_geom_bond_distance
_geom_bond_site_symmetry_2
_ccdc_geom_bond_type
O0 Cd1 2.300 1_556 S
O0 C7 1.275 . S
Cd1 O0 2.300 1_554 S
Cd1 O9 2.385 . S
Cd1 O10 2.378 . S
O2 Cd3 2.385 . S
O2 C7 1.255 1_554 S
Cd3 O2 2.385 . S
Cd3 O4 2.317 . S
O4 Cd3 2.317 . S
O4 C5 1.232 . S
C5 O4 1.232 . S
C5 O6 1.218 . S
O6 C5 1.218 . S
C7 O0 1.275 . S
C7 O2 1.255 1_556 S
C8 O9 1.264 . S
C8 O10 1.256 . S
O9 Cd1 2.385 . S
O9 C8 1.264 . S
O10 Cd1 2.378 . S
O10 C8 1.256 . S
O11 Cd12 2.300 . S
O11 C18 1.275 . S
Cd12 O11 2.300 . S
Cd12 O20 2.381 . S
Cd12 O21 2.378 . S
O13 Cd14 2.385 . S
O13 C18 1.255 . S
Cd14 O13 2.385 . S
Cd14 O15 2.317 . S
O15 Cd14 2.317 . S
O15 C16 1.232 . S
C16 O15 1.232 . S
C16 O17 1.218 . S
O17 C16 1.218 . S
C18 O11 1.275 . S
C18 O13 1.255 . S
C19 O20 1.258 . S
C19 O21 1.256 . S
O20 Cd12 2.381 . S
O20 C19 1.258 . S
O21 Cd12 2.378 . S
O21 C19 1.256 . S
O22 Cd23 2.300 . S
O22 C29 1.275 . S
Cd23 O22 2.300 . S
Cd23 O31 2.381 . S
Cd23 O32 2.378 . S
O24 Cd25 2.385 . S
O24 C29 1.255 . S
Cd25 O24 2.385 . S
Cd25 O26 2.317 1_554 S
O26 Cd25 2.317 1_556 S
O26 C27 1.232 . S
C27 O26 1.232 . S
C27 O28 1.218 . S
O28 C27 1.218 . S
C29 O22 1.275 . S
C29 O24 1.255 . S
C30 O31 1.258 . S
C30 O32 1.256 . S
O31 Cd23 2.381 . S
O31 C30 1.258 . S
O32 Cd23 2.378 . S
O32 C30 1.256 . S
O33 Cd34 2.300 . S
O33 C40 1.275 . S
Cd34 O33 2.300 . S
Cd34 O42 2.381 . S
Cd34 O43 2.378 . S
O35 Cd36 2.385 . S
O35 C40 1.255 . S
Cd36 O35 2.385 . S
Cd36 O37 2.317 . S
O37 Cd36 2.317 . S
O37 C38 1.232 . S
C38 O37 1.232 . S
C38 O39 1.218 . S
O39 C38 1.218 . S
C40 O33 1.275 . S
C40 O35 1.255 . S
C41 O42 1.258 . S
C41 O43 1.256 . S
O42 Cd34 2.381 . S
O42 C41 1.258 . S
O43 Cd34 2.378 . S
O43 C41 1.256 . S
O44 Zn45 1.953 1_565 S
O44 C60 1.225 . S
Zn45 O44 1.953 1_545 S
Zn45 O46 1.949 1_655 S
Zn45 O52 1.919 . S
Zn45 O57 1.924 . S
O46 Zn45 1.949 1_455 S
O46 Zn47 1.923 . S
O46 Zn48 1.950 1_545 S
O46 Zn49 1.945 . S
Zn47 O46 1.923 . S
Zn47 O50 1.933 . S
Zn47 O53 1.941 . S
Zn47 O54 1.965 1_545 S
Zn48 O46 1.950 1_565 S
Zn48 O55 1.938 . S
Zn48 O56 1.906 . S
Zn48 O66 1.953 1_455 S
Zn49 O46 1.945 . S
Zn49 O51 1.932 . S
Zn49 O58 1.977 1_545 S
Zn49 O59 1.910 1_455 S
O50 Zn47 1.933 . S
O50 C61 1.226 . S
O51 Zn49 1.932 . S
O51 C61 1.307 . S
O52 Zn45 1.919 . S
O52 C63 1.253 . S
O53 Zn47 1.941 . S
O53 C63 1.283 1_455 S
O54 Zn47 1.965 1_565 S
O54 C62 1.303 . S
O55 Zn48 1.938 . S
O55 C62 1.247 . S
O56 Zn48 1.906 . S
O56 C64 1.304 . S
O57 Zn45 1.924 . S
O57 C65 1.311 . S
O58 Zn49 1.977 1_565 S
O58 C64 1.272 . S
O59 Zn49 1.910 1_655 S
O59 C65 1.231 . S
C60 O44 1.225 . S
C60 O66 1.298 . S
C61 O50 1.226 . S
C61 O51 1.307 . S
C62 O54 1.303 . S
C62 O55 1.247 . S
C63 O52 1.253 . S
C63 O53 1.283 1_655 S
C64 O56 1.304 . S
C64 O58 1.272 . S
C65 O57 1.311 . S
C65 O59 1.231 . S
O66 Zn48 1.953 1_655 S
O66 C60 1.298 . S
O67 Zn68 1.953 . S
O67 C83 1.225 . S
Zn68 O67 1.953 . S
Zn68 O69 1.949 . S
Zn68 O75 1.919 1_554 S
Zn68 O80 1.924 . S
O69 Zn68 1.949 . S
O69 Zn70 1.923 1_554 S
O69 Zn71 1.950 . S
O69 Zn72 1.945 . S
Zn70 O69 1.923 1_556 S
Zn70 O73 1.933 . S
Zn70 O76 1.941 . S
Zn70 O77 1.965 . S
Zn71 O69 1.950 . S
Zn71 O78 1.938 1_554 S
Zn71 O79 1.906 . S
Zn71 O89 1.953 . S
Zn72 O69 1.945 . S
Zn72 O74 1.932 . S
Zn72 O81 1.977 . S
Zn72 O82 1.910 . S
O73 Zn70 1.933 . S
O73 C84 1.226 1_556 S
O74 Zn72 1.932 . S
O74 C84 1.307 . S
O75 Zn68 1.919 1_556 S
O75 C86 1.253 . S
O76 Zn70 1.941 . S
O76 C86 1.283 . S
O77 Zn70 1.965 . S
O77 C85 1.303 . S
O78 Zn71 1.938 1_556 S
O78 C85 1.247 . S
O79 Zn71 1.906 . S
O79 C87 1.304 . S
O80 Zn68 1.924 . S
O80 C88 1.311 . S
O81 Zn72 1.977 . S
O81 C87 1.272 . S
O82 Zn72 1.910 . S
O82 C88 1.231 . S
C83 O67 1.225 . S
C83 O89 1.298 . S
C84 O73 1.226 1_554 S
C84 O74 1.307 . S
C85 O77 1.303 . S
C85 O78 1.247 . S
C86 O75 1.253 . S
C86 O76 1.283 . S
C87 O79 1.304 . S
C87 O81 1.272 . S
C88 O80 1.311 . S
C88 O82 1.231 . S
O89 Zn71 1.953 . S
O89 C83 1.298 . S
H90 C96 0.930 . S
H91 C100 0.930 . S
H92 C105 0.929 . S
H93 C103 0.929 . S
H94 C98 0.929 . S
H95 C104 0.929 . S
C96 H90 0.930 . S
C96 C97 1.367 . S
C96 C104 1.378 . S
C97 C96 1.367 . S
C97 C105 1.433 . S
C98 H94 0.929 . S
C98 C100 1.378 . S
C98 C102 1.350 . S
C99 C102 1.463 . S
C99 C104 1.350 . S
C99 N107 1.427 . S
C100 H91 0.930 . S
C100 C98 1.378 . S
C100 C101 1.367 . S
C101 C100 1.367 . S
C101 C103 1.433 . S
C102 C98 1.350 . S
C102 C99 1.463 . S
C102 N106 1.427 . S
C103 H93 0.929 . S
C103 C101 1.433 . S
C103 N106 1.384 . S
C104 H95 0.929 . S
C104 C96 1.378 . S
C104 C99 1.350 . S
C105 H92 0.929 . S
C105 C97 1.433 . S
C105 N107 1.384 . S
N106 C102 1.427 . S
N106 C103 1.384 . S
N107 C99 1.427 . S
N107 C105 1.384 . S
H108 C114 0.930 . S
H109 C118 0.930 . S
H110 C123 0.929 . S
H111 C121 0.929 . S
H112 C116 0.929 . S
H113 C122 0.929 . S
C114 H108 0.930 . S
C114 C115 1.367 . S
C114 C122 1.378 . S
C115 C114 1.367 . S
C115 C123 1.433 1_554 S
C116 H112 0.929 . S
C116 C118 1.378 . S
C116 C120 1.350 1_556 S
C117 C120 1.463 . S
C117 C122 1.350 . S
C117 N125 1.427 1_554 S
C118 H109 0.930 . S
C118 C116 1.378 . S
C118 C119 1.367 1_556 S
C119 C118 1.367 1_554 S
C119 C121 1.433 . S
C120 C116 1.350 1_554 S
C120 C117 1.463 . S
C120 N124 1.427 . S
C121 H111 0.929 . S
C121 C119 1.433 . S
C121 N124 1.384 . S
C122 H113 0.929 . S
C122 C114 1.378 . S
C122 C117 1.350 . S
C123 H110 0.929 . S
C123 C115 1.433 1_556 S
C123 N125 1.384 . S
N124 C120 1.427 . S
N124 C121 1.384 . S
N125 C117 1.427 1_556 S
N125 C123 1.384 . S
H126 C132 0.930 . S
H127 C136 0.930 . S
H128 C141 0.929 . S
H129 C139 0.929 . S
H130 C134 0.929 . S
H131 C140 0.929 . S
C132 H126 0.930 . S
C132 C133 1.367 . S
C132 C140 1.378 . S
C133 C132 1.367 . S
C133 C141 1.433 . S
C134 H130 0.929 . S
C134 C136 1.378 . S
C134 C138 1.350 . S
C135 C138 1.463 . S
C135 C140 1.350 . S
C135 N143 1.427 . S
C136 H127 0.930 . S
C136 C134 1.378 . S
C136 C137 1.367 . S
C137 C136 1.367 . S
C137 C139 1.433 . S
C138 C134 1.350 . S
C138 C135 1.463 . S
C138 N142 1.427 . S
C139 H129 0.929 . S
C139 C137 1.433 . S
C139 N142 1.384 . S
C140 H131 0.929 . S
C140 C132 1.378 . S
C140 C135 1.350 . S
C141 H128 0.929 . S
C141 C133 1.433 . S
C141 N143 1.384 . S
N142 C138 1.427 . S
N142 C139 1.384 . S
N143 C135 1.427 . S
N143 C141 1.384 . S
H144 C150 0.930 1_556 S
H145 C154 0.930 . S
H146 C159 0.929 . S
H147 C157 0.929 . S
H148 C152 0.929 . S
H149 C158 0.929 1_556 S
C150 H144 0.930 1_554 S
C150 C151 1.367 . S
C150 C158 1.378 . S
C151 C150 1.367 . S
C151 C159 1.433 . S
C152 H148 0.929 . S
C152 C154 1.378 . S
C152 C156 1.350 . S
C153 C156 1.463 . S
C153 C158 1.350 . S
C153 N161 1.427 . S
C154 H145 0.930 . S
C154 C152 1.378 . S
C154 C155 1.367 . S
C155 C154 1.367 . S
C155 C157 1.433 1_554 S
C156 C152 1.350 . S
C156 C153 1.463 . S
C156 N160 1.427 1_554 S
C157 H147 0.929 . S
C157 C155 1.433 1_556 S
C157 N160 1.384 . S
C158 H149 0.929 1_554 S
C158 C150 1.378 . S
C158 C153 1.350 . S
C159 H146 0.929 . S
C159 C151 1.433 . S
C159 N161 1.384 . S
N160 C156 1.427 1_556 S
N160 C157 1.384 . S
N161 C153 1.427 . S
N161 C159 1.384 . S
H162 C168 0.930 . S
H163 C172 0.930 . S
H164 C177 0.929 . S
H165 C175 0.929 . S
H166 C170 0.929 . S
H167 C176 0.929 . S
C168 H162 0.930 . S
C168 C169 1.367 . S
C168 C176 1.378 . S
C169 C168 1.367 . S
C169 C177 1.433 . S
C170 H166 0.929 . S
C170 C172 1.378 . S
C170 C174 1.350 . S
C171 C174 1.463 . S
C171 C176 1.350 . S
C171 N179 1.427 . S
C172 H163 0.930 . S
C172 C170 1.378 . S
C172 C173 1.367 . S
C173 C172 1.367 . S
C173 C175 1.433 . S
C174 C170 1.350 . S
C174 C171 1.463 . S
C174 N178 1.427 . S
C175 H165 0.929 . S
C175 C173 1.433 . S
C175 N178 1.384 . S
C176 H167 0.929 . S
C176 C168 1.378 . S
C176 C171 1.350 . S
C177 H164 0.929 . S
C177 C169 1.433 . S
C177 N179 1.384 . S
N178 C174 1.427 . S
N178 C175 1.384 . S
N179 C171 1.427 . S
N179 C177 1.384 . S
H180 C186 0.930 . S
H181 C190 0.930 . S
H182 C195 0.929 . S
H183 C193 0.929 . S
H184 C188 0.929 . S
H185 C194 0.929 . S
C186 H180 0.930 . S
C186 C187 1.367 . S
C186 C194 1.378 . S
C187 C186 1.367 . S
C187 C195 1.433 . S
C188 H184 0.929 . S
C188 C190 1.378 . S
C188 C192 1.350 . S
C189 C192 1.463 . S
C189 C194 1.350 . S
C189 N197 1.427 . S
C190 H181 0.930 . S
C190 C188 1.378 . S
C190 C191 1.367 . S
C191 C190 1.367 . S
C191 C193 1.433 . S
C192 C188 1.350 . S
C192 C189 1.463 . S
C192 N196 1.427 . S
C193 H183 0.929 . S
C193 C191 1.433 . S
C193 N196 1.384 . S
C194 H185 0.929 . S
C194 C186 1.378 . S
C194 C189 1.350 . S
C195 H182 0.929 . S
C195 C187 1.433 . S
C195 N197 1.384 . S
N196 C192 1.427 . S
N196 C193 1.384 . S
N197 C189 1.427 . S
N197 C195 1.384 . S
H198 C204 0.930 . S
H199 C208 0.930 . S
H200 C213 0.929 . S
H201 C211 0.929 . S
H202 C206 0.929 . S
H203 C212 0.929 . S
C204 H198 0.930 . S
C204 C205 1.367 . S
C204 C212 1.378 . S
C205 C204 1.367 . S
C205 C213 1.433 . S
C206 H202 0.929 . S
C206 C208 1.378 . S
C206 C210 1.350 . S
C207 C210 1.463 . S
C207 C212 1.350 . S
C207 N215 1.427 . S
C208 H199 0.930 . S
C208 C206 1.378 . S
C208 C209 1.367 . S
C209 C208 1.367 . S
C209 C211 1.433 . S
C210 C206 1.350 . S
C210 C207 1.463 . S
C210 N214 1.427 . S
C211 H201 0.929 . S
C211 C209 1.433 . S
C211 N214 1.384 . S
C212 H203 0.929 . S
C212 C204 1.378 . S
C212 C207 1.350 . S
C213 H200 0.929 . S
C213 C205 1.433 . S
C213 N215 1.384 . S
N214 C210 1.427 . S
N214 C211 1.384 . S
N215 C207 1.427 . S
N215 C213 1.384 . S
H216 C222 0.930 . S
H217 C226 0.930 . S
H218 C231 0.929 . S
H219 C229 0.929 . S
H220 C224 0.929 . S
H221 C230 0.929 . S
C222 H216 0.930 . S
C222 C223 1.367 . S
C222 C230 1.378 . S
C223 C222 1.367 . S
C223 C231 1.433 . S
C224 H220 0.929 . S
C224 C226 1.378 . S
C224 C228 1.350 . S
C225 C228 1.463 . S
C225 C230 1.350 . S
C225 N233 1.427 . S
C226 H217 0.930 . S
C226 C224 1.378 . S
C226 C227 1.367 . S
C227 C226 1.367 . S
C227 C229 1.433 . S
C228 C224 1.350 . S
C228 C225 1.463 . S
C228 N232 1.427 . S
C229 H219 0.929 . S
C229 C227 1.433 . S
C229 N232 1.384 . S
C230 H221 0.929 . S
C230 C222 1.378 . S
C230 C225 1.350 . S
C231 H218 0.929 . S
C231 C223 1.433 . S
C231 N233 1.384 . S
N232 C228 1.427 . S
N232 C229 1.384 . S
N233 C225 1.427 . S
N233 C231 1.384 . S
H234 C240 0.930 . S
H235 C244 0.930 . S
H236 C249 0.929 . S
H237 C247 0.929 . S
H238 C242 0.929 . S
H239 C248 0.929 . S
C240 H234 0.930 . S
C240 C241 1.367 . S
C240 C248 1.378 . S
C241 C240 1.367 . S
C241 C249 1.433 . S
C242 H238 0.929 . S
C242 C244 1.378 . S
C242 C246 1.350 . S
C243 C246 1.463 . S
C243 C248 1.350 . S
C243 N251 1.427 . S
C244 H235 0.930 . S
C244 C242 1.378 . S
C244 C245 1.367 . S
C245 C244 1.367 . S
C245 C247 1.433 . S
C246 C242 1.350 . S
C246 C243 1.463 . S
C246 N250 1.427 . S
C247 H237 0.929 . S
C247 C245 1.433 . S
C247 N250 1.384 . S
C248 H239 0.929 . S
C248 C240 1.378 . S
C248 C243 1.350 . S
C249 H236 0.929 . S
C249 C241 1.433 . S
C249 N251 1.384 . S
N250 C246 1.427 . S
N250 C247 1.384 . S
N251 C243 1.427 . S
N251 C249 1.384 . S
H252 C258 0.930 . S
H253 C262 0.930 . S
H254 C267 0.929 . S
H255 C265 0.929 . S
H256 C260 0.929 . S
H257 C266 0.929 . S
C258 H252 0.930 . S
C258 C259 1.367 . S
C258 C266 1.378 . S
C259 C258 1.367 . S
C259 C267 1.433 . S
C260 H256 0.929 . S
C260 C262 1.378 . S
C260 C264 1.350 . S
C261 C264 1.463 . S
C261 C266 1.350 . S
C261 N269 1.427 . S
C262 H253 0.930 . S
C262 C260 1.378 . S
C262 C263 1.367 . S
C263 C262 1.367 . S
C263 C265 1.433 . S
C264 C260 1.350 . S
C264 C261 1.463 . S
C264 N268 1.427 . S
C265 H255 0.929 . S
C265 C263 1.433 . S
C265 N268 1.384 . S
C266 H257 0.929 . S
C266 C258 1.378 . S
C266 C261 1.350 . S
C267 H254 0.929 . S
C267 C259 1.433 . S
C267 N269 1.384 . S
N268 C264 1.427 . S
N268 C265 1.384 . S
N269 C261 1.427 . S
N269 C267 1.384 . S
H270 C276 0.930 . S
H271 C280 0.930 . S
H272 C285 0.929 . S
H273 C283 0.929 . S
H274 C278 0.929 . S
H275 C284 0.929 . S
C276 H270 0.930 . S
C276 C277 1.367 . S
C276 C284 1.378 . S
C277 C276 1.367 . S
C277 C285 1.433 . S
C278 H274 0.929 . S
C278 C280 1.378 . S
C278 C282 1.350 . S
C279 C282 1.463 . S
C279 C284 1.350 . S
C279 N287 1.427 . S
C280 H271 0.930 . S
C280 C278 1.378 . S
C280 C281 1.367 . S
C281 C280 1.367 . S
C281 C283 1.433 . S
C282 C278 1.350 . S
C282 C279 1.463 . S
C282 N286 1.427 . S
C283 H273 0.929 . S
C283 C281 1.433 . S
C283 N286 1.384 . S
C284 H275 0.929 . S
C284 C276 1.378 . S
C284 C279 1.350 . S
C285 H272 0.929 . S
C285 C277 1.433 . S
C285 N287 1.384 . S
N286 C282 1.427 . S
N286 C283 1.384 . S
N287 C279 1.427 . S
N287 C285 1.384 . S
H288 C294 0.930 . S
H289 C298 0.930 . S
H290 C303 0.929 . S
H291 C301 0.929 . S
H292 C296 0.929 . S
H293 C302 0.929 . S
C294 H288 0.930 . S
C294 C295 1.367 . S
C294 C302 1.378 . S
C295 C294 1.367 . S
C295 C303 1.433 . S
C296 H292 0.929 . S
C296 C298 1.378 . S
C296 C300 1.350 . S
C297 C300 1.463 . S
C297 C302 1.350 . S
C297 N305 1.427 . S
C298 H289 0.930 . S
C298 C296 1.378 . S
C298 C299 1.367 . S
C299 C298 1.367 . S
C299 C301 1.433 . S
C300 C296 1.350 . S
C300 C297 1.463 . S
C300 N304 1.427 . S
C301 H291 0.929 . S
C301 C299 1.433 . S
C301 N304 1.384 . S
C302 H293 0.929 . S
C302 C294 1.378 . S
C302 C297 1.350 . S
C303 H290 0.929 . S
C303 C295 1.433 . S
C303 N305 1.384 . S
N304 C300 1.427 . S
N304 C301 1.384 . S
N305 C297 1.427 . S
N305 C303 1.384 . S
C101 C61 1.524 . S
C97 C41 1.499 . S
C115 C8 1.493 . S
C119 C84 1.515 . S
C133 C19 1.521 . S
C137 C60 1.546 . S
C151 C30 1.559 . S
C155 C83 1.558 . S
C173 C64 1.511 . S
C169 C5 1.274 . S
C191 C86 1.621 . S
C187 C18 1.634 . S
C205 C29 1.592 . S
C209 C65 1.540 . S
C223 C40 1.597 . S
C227 C85 1.589 . S
C245 C88 1.353 . S
C241 C16 1.148 . S
C263 C63 1.401 . S
C259 C27 1.288 . S
C281 C87 1.334 . S
C277 C38 1.129 . S
C295 C7 1.408 . S
C299 C62 1.381 . S
