# Generated by pormake.
# Topology pth, (4,4)-cn, num edge types: 1
# Building blocks:
#     Node 0, Type 0, BuildingBlock: UXUYUI_clean_sbu_0, # of connection points: 4
#     Node 1, Type 0, BuildingBlock: UXUYUI_clean_sbu_0, # of connection points: 4
#     Node 2, Type 0, BuildingBlock: UXUYUI_clean_sbu_0, # of connection points: 4
#     Node 3, Type 1, BuildingBlock: KOZSID_clean_sbu_0, # of connection points: 4
#     Node 4, Type 1, BuildingBlock: KOZSID_clean_sbu_0, # of connection points: 4
#     Node 5, Type 1, BuildingBlock: KOZSID_clean_sbu_0, # of connection points: 4
#     Edge 6, Type (0, 1), BuildingBlock: CIFDUS_clean_linker_0, # of connection points: 2
#     Edge 7, Type (0, 1), BuildingBlock: CIFDUS_clean_linker_0, # of connection points: 2
#     Edge 8, Type (0, 1), BuildingBlock: CIFDUS_clean_linker_0, # of connection points: 2
#     Edge 9, Type (0, 1), BuildingBlock: CIFDUS_clean_linker_0, # of connection points: 2
#     Edge 10, Type (0, 1), BuildingBlock: CIFDUS_clean_linker_0, # of connection points: 2
#     Edge 11, Type (0, 1), BuildingBlock: CIFDUS_clean_linker_0, # of connection points: 2
#     Edge 12, Type (0, 1), BuildingBlock: CIFDUS_clean_linker_0, # of connection points: 2
#     Edge 13, Type (0, 1), BuildingBlock: CIFDUS_clean_linker_0, # of connection points: 2
#     Edge 14, Type (0, 1), BuildingBlock: CIFDUS_clean_linker_0, # of connection points: 2
#     Edge 15, Type (0, 1), BuildingBlock: CIFDUS_clean_linker_0, # of connection points: 2
#     Edge 16, Type (0, 1), BuildingBlock: CIFDUS_clean_linker_0, # of connection points: 2
#     Edge 17, Type (0, 1), BuildingBlock: CIFDUS_clean_linker_0, # of connection points: 2
# Relax obj value: 0.074
# Max RMSD: 0.213
# Mean RMSD: 0.112
data_MOF--net-pth--node1-UXUYUI_clean_sbu_0--node2-KOZSID_clean_sbu_0--edge1-CIFDUS_clean_linker_0
_symmetry_space_group_name_H-M    P1
_symmetry_Int_Tables_number       1
_symmetry_cell_setting            triclinic
loop_
_symmetry_equiv_pos_as_xyz
'x, y, z'
_cell_length_a     29.170779
_cell_length_b     29.123269
_cell_length_c     66.2047
_cell_angle_alpha  87.596355
_cell_angle_beta   87.596536
_cell_angle_gamma 119.9315
loop_
_atom_site_label
_atom_site_type_symbol
_atom_site_fract_x
_atom_site_fract_y
_atom_site_fract_z
_atom_type_partial_charge
Li0 Li 0.10805 0.09406 0.02412 0.0
Li1 Li 0.04807 0.09308 0.05165 0.0
Li2 Li 0.07436 0.02205 0.05052 0.0
Li3 Li 0.01337 0.02325 0.02695 0.0
C4 C 0.16987 0.14108 0.05345 0.0
N5 N 0.27227 0.22618 0.05118 0.0
C6 C 0.17891 0.19239 0.05571 0.0
C7 C 0.21287 0.13296 0.05024 0.0
C8 C 0.23099 0.23492 0.05447 0.0
C9 C 0.26435 0.17653 0.04908 0.0
C10 C 0.02209 0.1072 0.005 0.0
C11 C 0.95142 0.1112 0.98883 0.0
N12 N 0.97595 0.11521 0.97038 0.0
C13 C 0.04661 0.11142 0.98586 0.0
C14 C 0.97412 0.10718 0.0065 0.0
C15 C 0.02267 0.11542 0.96855 0.0
C16 C 0.19661 0.13143 0.99416 0.0
N17 N 0.16654 0.14473 0.00608 0.0
C18 C 0.21486 0.23459 0.99182 0.0
C19 C 0.17485 0.19508 0.00511 0.0
C20 C 0.24641 0.22216 0.97917 0.0
C21 C 0.23698 0.16974 0.98053 0.0
H22 H 0.18879 0.09099 0.99499 0.0
H23 H 0.14968 0.20432 0.01448 0.0
C24 C 0.04354 0.14194 0.0879 0.0
N25 N 0.03641 0.14032 0.06772 0.0
C26 C 0.04075 0.18068 0.09892 0.0
C27 C 0.0224 0.21458 0.06826 0.0
C28 C 0.0259 0.17555 0.05784 0.0
C29 C 0.03041 0.21799 0.08906 0.0
H30 H 0.05264 0.11397 0.09534 0.0
H31 H 0.02167 0.17431 0.04171 0.0
C32 C 0.08969 0.97872 0.01837 0.0
N33 N 0.11408 0.89885 0.01531 0.0
C34 C 0.05063 0.9278 0.01408 0.0
C35 C 0.14123 0.9891 0.02095 0.0
C36 C 0.06374 0.88794 0.01262 0.0
C37 C 0.15274 0.94817 0.0194 0.0
C38 C 0.95442 0.99622 0.06646 0.0
C39 C 0.93157 0.95083 0.07987 0.0
C40 C 0.92703 0.02338 0.06288 0.0
C41 C 0.88128 0.93305 0.08936 0.0
C42 C 0.87686 0.00439 0.07268 0.0
N43 N 0.85519 0.95997 0.0856 0.0
C44 C 0.12569 0.98531 0.07822 0.0
C45 C 0.04723 0.91935 0.06512 0.0
C46 C 0.13052 0.94626 0.08947 0.0
N47 N 0.08449 0.97122 0.06633 0.0
C48 C 0.05108 0.87907 0.07573 0.0
C49 C 0.09293 0.892 0.08833 0.0
H50 H 0.15447 0.02685 0.07916 0.0
H51 H 0.0144 0.9092 0.05578 0.0
C52 C 0.96642 0.97583 0.99145 0.0
N53 N 0.955 0.97654 0.01154 0.0
C54 C 0.92788 0.93973 0.97954 0.0
C55 C 0.86632 0.90501 0.00917 0.0
C56 C 0.90596 0.94199 0.02047 0.0
C57 C 0.87702 0.90317 0.9884 0.0
H58 H 0.00608 0.00233 0.98476 0.0
H59 H 0.89764 0.94166 0.03649 0.0
O60 O 0.11915 0.09912 0.05412 0.0
O61 O 0.04456 0.10257 0.02216 0.0
O62 O 0.07742 0.01804 0.02023 0.0
O63 O 0.00364 0.01419 0.05711 0.0
H64 H 0.1461 0.19943 0.05814 0.0
H65 H 0.20657 0.09349 0.04858 0.0
H66 H 0.23858 0.27489 0.05605 0.0
H67 H 0.29801 0.17087 0.04649 0.0
H68 H 0.91427 0.11112 0.98979 0.0
H69 H 0.0832 0.11061 0.98431 0.0
H70 H 0.95447 0.10399 0.02113 0.0
H71 H 0.04109 0.11842 0.95366 0.0
H72 H 0.22 0.27412 0.99106 0.0
H73 H 0.26053 0.15845 0.97114 0.0
H74 H 0.04683 0.18153 0.11495 0.0
H75 H 0.01521 0.24291 0.05994 0.0
H76 H 0.01044 0.91888 0.01217 0.0
H77 H 0.17188 0.0282 0.02431 0.0
H78 H 0.03383 0.84828 0.00943 0.0
H79 H 0.19239 0.95558 0.02149 0.0
H80 H 0.95243 0.9295 0.08287 0.0
H81 H 0.94427 0.05861 0.05261 0.0
H82 H 0.86301 0.89788 0.09973 0.0
H83 H 0.85514 0.02495 0.07001 0.0
H84 H 0.16288 0.95872 0.09924 0.0
H85 H 0.02151 0.83822 0.07392 0.0
H86 H 0.93806 0.94029 0.96358 0.0
H87 H 0.82818 0.87703 0.01683 0.0
Li88 Li 0.03513 0.02495 0.35846 0.0
Li89 Li 0.1019 0.08833 0.38287 0.0
Li90 Li 0.00757 0.0648 0.38487 0.0
Li91 Li 0.06342 0.12056 0.35753 0.0
C92 C 1.00055 0.97979 0.4028 0.0
N93 N 0.92501 0.90887 0.432 0.0
C94 C 0.00678 0.98933 0.42328 0.0
C95 C 0.95605 0.93414 0.39714 0.0
C96 C 0.96807 0.95303 0.43783 0.0
C97 C 0.9183 0.89874 0.41214 0.0
C98 C 0.14256 0.12115 0.33722 0.0
C99 C 0.22457 0.19919 0.32486 0.0
N100 N 0.20906 0.19074 0.30563 0.0
C101 C 0.12747 0.1131 0.31734 0.0
C102 C 0.19148 0.16446 0.34105 0.0
C103 C 0.16163 0.1488 0.30157 0.0
C104 C 0.0074 0.96333 0.32398 0.0
N105 N 0.02236 0.96599 0.34326 0.0
C106 C 0.03022 0.88853 0.34046 0.0
C107 C 0.03338 0.92951 0.35166 0.0
C108 C 0.0161 0.88529 0.3203 0.0
C109 C 0.00396 0.92311 0.31218 0.0
H110 H 0.9995 0.99328 0.3176 0.0
H111 H 0.04571 0.93292 0.36697 0.0
C112 C 0.16079 0.10481 0.41766 0.0
N113 N 0.16059 0.0976 0.3975 0.0
C114 C 0.20067 0.10558 0.42894 0.0
C115 C 0.24026 0.09327 0.39836 0.0
C116 C 0.19928 0.09201 0.38774 0.0
C117 C 0.2409 0.09936 0.4193 0.0
H118 H 0.12932 0.1088 0.42506 0.0
H119 H 0.19758 0.08522 0.37178 0.0
C120 C 0.93887 0.04076 0.35589 0.0
N121 N 0.83134 0.00394 0.35614 0.0
C122 C 0.91936 0.07511 0.35936 0.0
C123 C 0.90383 0.98785 0.35234 0.0
C124 C 0.86481 0.05566 0.3595 0.0
C125 C 0.84956 0.96997 0.35257 0.0
C126 C 0.09158 0.18766 0.38717 0.0
C127 C 0.05856 0.20909 0.38455 0.0
C128 C 0.14498 0.22102 0.39044 0.0
C129 C 0.07982 0.26393 0.38489 0.0
C130 C 0.1647 0.27565 0.39072 0.0
N131 N 0.13201 0.29579 0.38793 0.0
C132 C 0.96679 0.09202 0.41847 0.0
C133 C 0.90061 0.01405 0.40513 0.0
C134 C 0.92977 0.09084 0.43285 0.0
N135 N 0.95173 0.05459 0.40471 0.0
C136 C 0.86203 0.01162 0.41916 0.0
C137 C 0.87642 0.05065 0.43319 0.0
H138 H 0.00767 0.1233 0.41823 0.0
H139 H 0.88947 0.98375 0.3945 0.0
C140 C 0.03719 0.17024 0.32626 0.0
N141 N 0.07623 0.17957 0.33881 0.0
C142 C 0.04051 0.21124 0.31341 0.0
C143 C 0.1253 0.27077 0.32593 0.0
C144 C 0.12044 0.22847 0.33849 0.0
C145 C 0.08459 0.26263 0.31336 0.0
H146 H 0.00281 0.13102 0.32643 0.0
H147 H 0.15162 0.23507 0.34822 0.0
O148 O 0.03721 0.01553 0.3883 0.0
O149 O 0.10915 0.08736 0.35289 0.0
O150 O 0.99213 0.0591 0.35552 0.0
O151 O 0.07153 0.13411 0.38693 0.0
H152 H 0.04082 0.02469 0.42788 0.0
H153 H 0.95042 0.92645 0.38132 0.0
H154 H 0.97219 0.96003 0.45374 0.0
H155 H 0.88353 0.86337 0.40799 0.0
H156 H 0.26244 0.23304 0.3276 0.0
H157 H 0.08955 0.07996 0.31416 0.0
H158 H 0.20343 0.17162 0.35639 0.0
H159 H 0.15038 0.14323 0.28611 0.0
H160 H 0.03914 0.85994 0.3475 0.0
H161 H 0.99358 0.92275 0.29665 0.0
H162 H 0.19994 0.11075 0.44503 0.0
H163 H 0.27013 0.08769 0.39039 0.0
H164 H 0.94605 0.11624 0.36202 0.0
H165 H 0.91834 0.96082 0.34956 0.0
H166 H 0.84909 0.08168 0.36229 0.0
H167 H 0.82191 0.92906 0.34994 0.0
H168 H 0.01705 0.18366 0.38214 0.0
H169 H 0.17095 0.20493 0.39258 0.0
H170 H 0.05486 0.28116 0.38273 0.0
H171 H 0.20601 0.30205 0.39312 0.0
H172 H 0.94266 0.12184 0.44333 0.0
H173 H 0.82148 0.97939 0.41913 0.0
H174 H 0.00801 0.20305 0.30409 0.0
H175 H 0.16046 0.3095 0.32614 0.0
Li176 Li 0.10553 0.04471 0.6912 0.0
Li177 Li 0.10441 0.10531 0.71584 0.0
Li178 Li 0.03163 0.00924 0.71745 0.0
Li179 Li 0.03394 0.07061 0.69104 0.0
C180 C 0.14289 0.02289 0.72562 0.0
N181 N 0.21443 0.98966 0.73362 0.0
C182 C 0.19047 0.05701 0.73398 0.0
C183 C 0.13145 0.97169 0.72155 0.0
C184 C 0.22619 0.03952 0.73786 0.0
C185 C 0.16818 0.95568 0.72563 0.0
C186 C 0.14002 0.1651 0.67589 0.0
C187 C 0.14566 0.24727 0.66385 0.0
N188 N 0.19545 0.26459 0.65548 0.0
C189 C 0.19094 0.18343 0.66687 0.0
C190 C 0.11692 0.19703 0.67413 0.0
C191 C 0.21844 0.23394 0.65675 0.0
C192 C 0.14455 0.00555 0.65918 0.0
N193 N 0.15684 0.03616 0.67527 0.0
C194 C 0.24876 0.06386 0.66932 0.0
C195 C 0.20778 0.06536 0.68033 0.0
C196 C 0.23755 0.03277 0.65262 0.0
C197 C 0.18464 0.00344 0.6475 0.0
H198 H 0.10384 0.98338 0.65524 0.0
H199 H 0.21682 0.09091 0.6927 0.0
C200 C 0.14061 0.16516 0.7507 0.0
N201 N 0.15336 0.16189 0.73102 0.0
C202 C 0.17916 0.20161 0.76258 0.0
C203 C 0.24277 0.23127 0.7336 0.0
C204 C 0.2032 0.19417 0.72237 0.0
C205 C 0.23142 0.23478 0.75414 0.0
H206 H 0.10099 0.13814 0.75737 0.0
H207 H 0.21295 0.18965 0.70697 0.0
C208 C 0.99034 0.94819 0.68669 0.0
N209 N 0.91307 0.84285 0.68551 0.0
C210 C 0.93717 0.93415 0.68583 0.0
C211 C 0.00434 0.90879 0.68659 0.0
C212 C 0.89864 0.88064 0.68536 0.0
C213 C 0.96466 0.85572 0.68607 0.0
C214 C 0.00727 0.10715 0.72633 0.0
C215 C 0.95673 0.08633 0.73612 0.0
C216 C 0.03934 0.1621 0.72254 0.0
C217 C 0.93863 0.12077 0.74144 0.0
C218 C 0.01987 0.19526 0.72811 0.0
N219 N 0.97029 0.17408 0.73734 0.0
C220 C 0.99507 0.92136 0.7477 0.0
C221 C 0.93031 0.9399 0.73564 0.0
C222 C 0.95694 0.88075 0.76131 0.0
N223 N 0.98117 0.95005 0.73526 0.0
C224 C 0.89102 0.89982 0.74898 0.0
C225 C 0.90406 0.86977 0.76221 0.0
H226 H 0.03583 0.93051 0.74734 0.0
H227 H 0.9204 0.96363 0.72574 0.0
C228 C 0.00388 0.09936 0.6543 0.0
N229 N 0.98842 0.08258 0.67418 0.0
C230 C 0.96888 0.10281 0.64132 0.0
C231 C 0.9027 0.07167 0.66947 0.0
C232 C 0.93894 0.06885 0.68188 0.0
C233 C 0.91719 0.08827 0.64881 0.0
H234 H 0.04297 0.10875 0.64841 0.0
H235 H 0.92687 0.05392 0.69753 0.0
O236 O 0.10787 0.03968 0.72139 0.0
O237 O 0.1123 0.11539 0.68567 0.0
O238 O 0.02853 1.0003 0.68746 0.0
O239 O 0.02568 0.0739 0.72112 0.0
H240 H 0.19988 0.09666 0.73735 0.0
H241 H 0.09465 0.94466 0.71527 0.0
H242 H 0.26327 0.0656 0.74423 0.0
H243 H 0.15992 0.91623 0.72246 0.0
H244 H 0.12826 0.27239 0.66244 0.0
H245 H 0.20923 0.1591 0.66777 0.0
H246 H 0.07696 0.18303 0.68037 0.0
H247 H 0.25804 0.24874 0.64986 0.0
H248 H 0.28907 0.0879 0.67354 0.0
H249 H 0.17439 0.97898 0.63472 0.0
H250 H 0.1686 0.20225 0.7784 0.0
H251 H 0.28216 0.2563 0.72632 0.0
H252 H 0.92568 0.96417 0.68575 0.0
H253 H 0.04539 0.91905 0.6868 0.0
H254 H 0.85728 0.86916 0.68488 0.0
H255 H 0.97491 0.82477 0.68608 0.0
H256 H 0.9316 0.04399 0.7395 0.0
H257 H 0.07907 0.17911 0.71557 0.0
H258 H 0.89945 0.10513 0.74887 0.0
H259 H 0.04428 0.23785 0.72519 0.0
H260 H 0.96882 0.85835 0.77108 0.0
H261 H 0.85116 0.89359 0.7493 0.0
H262 H 0.98163 0.11502 0.62546 0.0
H263 H 0.86353 0.06045 0.67599 0.0
C264 C 0.11029 0.67659 0.17958 0.0
C265 C 0.15644 0.7258 0.17822 0.0
C266 C 0.19544 0.718 0.18527 0.0
C267 C 0.17038 0.66543 0.19188 0.0
N268 N 0.11746 0.63968 0.19001 0.0
Co269 Co 0.06347 0.57063 0.20491 0.0
N270 N 0.12003 0.55986 0.21671 0.0
C271 C 0.17305 0.59286 0.2138 0.0
C272 C 0.20227 0.57403 0.22294 0.0
C273 C 0.16579 0.52585 0.23217 0.0
C274 C 0.11615 0.51823 0.22824 0.0
N275 N 0.00939 0.50154 0.21971 0.0
C276 C 0.01577 0.4654 0.23102 0.0
C277 C 0.9673 0.42215 0.23822 0.0
C278 C 0.92898 0.4308 0.23096 0.0
C279 C 0.95604 0.47868 0.21984 0.0
N280 N 0.00712 0.58178 0.19318 0.0
C281 C 0.95434 0.55211 0.19808 0.0
C282 C 0.9268 0.57676 0.19259 0.0
C283 C 0.96403 0.62436 0.18316 0.0
C284 C 0.01187 0.62471 0.18222 0.0
N285 N 0.06462 0.53092 0.18147 0.0
C286 C 0.06634 0.45816 0.15506 0.0
C287 C 0.01835 0.45349 0.16238 0.0
C288 C 0.01842 0.49045 0.17526 0.0
C289 C 0.11339 0.50302 0.15971 0.0
C290 C 0.11162 0.53892 0.1727 0.0
N291 N 0.06205 0.61035 0.22873 0.0
C292 C 0.01249 0.63314 0.25262 0.0
C293 C 0.05885 0.67747 0.25783 0.0
C294 C 0.1071 0.68514 0.24939 0.0
C295 C 0.10776 0.65099 0.23527 0.0
C296 C 0.01504 0.60014 0.23842 0.0
H297 H 0.14585 0.65882 0.22979 0.0
H298 H 0.97823 0.56685 0.23555 0.0
H299 H 0.98068 0.48446 0.18071 0.0
H300 H 0.14868 0.57197 0.17603 0.0
C301 C 0.19418 0.64127 0.20238 0.0
C302 C 0.06072 0.66535 0.17045 0.0
C303 C 0.06665 0.47028 0.2354 0.0
C304 C 0.93262 0.5039 0.20976 0.0
H305 H 0.16151 0.76397 0.17319 0.0
H306 H 0.23649 0.74779 0.18654 0.0
H307 H 0.24502 0.59285 0.22274 0.0
H308 H 0.17487 0.49916 0.24065 0.0
H309 H 0.96029 0.38787 0.24777 0.0
H310 H 0.88645 0.4053 0.23353 0.0
H311 H 0.88507 0.56287 0.19588 0.0
H312 H 0.95656 0.65542 0.17777 0.0
H313 H 0.98071 0.42012 0.15904 0.0
H314 H 0.1516 0.50988 0.15374 0.0
H315 H 0.97413 0.6238 0.25944 0.0
H316 H 0.14442 0.71823 0.25317 0.0
C317 C 0.45869 0.99841 0.56945 0.0
C318 C 0.41976 0.94943 0.57833 0.0
C319 C 0.42678 0.91195 0.56928 0.0
C320 C 0.46939 0.94004 0.55547 0.0
N321 N 0.49051 0.99329 0.5553 0.0
Co322 Co 0.55218 0.04887 0.53729 0.0
N323 N 0.55743 0.99344 0.52195 0.0
C324 C 0.52543 0.94016 0.52485 0.0
C325 C 0.53861 0.9121 0.51207 0.0
C326 C 0.58178 0.94962 0.50032 0.0
C327 C 0.59247 0.99866 0.50664 0.0
N328 N 0.61498 0.1044 0.51971 0.0
C329 C 0.64579 0.09908 0.50513 0.0
C330 C 0.68699 0.14806 0.49722 0.0
C331 C 0.68251 0.18567 0.50734 0.0
C332 C 0.63903 0.15768 0.52078 0.0
N333 N 0.54547 0.10419 0.55214 0.0
C334 C 0.57631 0.15754 0.5489 0.0
C335 C 0.55994 0.18534 0.56049 0.0
C336 C 0.51532 0.14753 0.57153 0.0
C337 C 0.50711 0.09869 0.566 0.0
N338 N 0.60183 0.04809 0.55695 0.0
C339 C 0.67524 0.04796 0.58359 0.0
C340 C 0.67646 0.09505 0.57742 0.0
C341 C 0.63981 0.09422 0.56427 0.0
C342 C 0.63608 1.00079 0.57634 0.0
C343 C 0.60011 1.00174 0.56322 0.0
N344 N 0.50271 0.04998 0.51775 0.0
C345 C 0.47483 0.0995 0.49625 0.0
C346 C 0.42732 0.05338 0.49327 0.0
C347 C 0.41914 0.00521 0.50215 0.0
C348 C 0.45722 0.00435 0.51409 0.0
C349 C 0.5116 0.09693 0.50842 0.0
H350 H 0.44863 0.96643 0.52048 0.0
H351 H 0.54644 0.13368 0.51041 0.0
H352 H 0.64326 0.13157 0.56024 0.0
H353 H 0.57158 0.96444 0.55823 0.0
C354 C 0.48615 0.91755 0.54078 0.0
C355 C 0.46151 0.0483 0.57392 0.0
C356 C 0.63788 0.04875 0.49832 0.0
C357 C 0.61928 0.18021 0.53436 0.0
H358 H 0.38839 0.94146 0.58967 0.0
H359 H 0.40221 0.86924 0.57179 0.0
H360 H 0.52002 0.86939 0.51174 0.0
H361 H 0.60365 0.94165 0.48873 0.0
H362 H 0.71728 0.15576 0.48541 0.0
H363 H 0.70802 0.22834 0.50519 0.0
H364 H 0.57762 0.22802 0.56055 0.0
H365 H 0.49098 0.15495 0.58218 0.0
H366 H 0.70529 0.13259 0.58286 0.0
H367 H 0.63358 0.96319 0.58048 0.0
H368 H 0.48299 0.13783 0.48976 0.0
H369 H 0.3834 0.96823 0.49995 0.0
C370 C 0.654 0.60029 0.83852 0.0
C371 C 0.69037 0.58754 0.83019 0.0
C372 C 0.68235 0.54288 0.84095 0.0
C373 C 0.64151 0.53072 0.85506 0.0
N374 N 0.62254 0.56463 0.85391 0.0
Co375 Co 0.56285 0.56106 0.87145 0.0
N376 N 0.55391 0.49765 0.88821 0.0
C377 C 0.58364 0.47409 0.8863 0.0
C378 C 0.56883 0.43194 0.90012 0.0
C379 C 0.5267 0.42785 0.91147 0.0
C380 C 0.51791 0.46765 0.90373 0.0
N381 N 0.50236 0.5567 0.88876 0.0
C382 C 0.46992 0.51993 0.90374 0.0
C383 C 0.43042 0.52984 0.91084 0.0
C384 C 0.43819 0.57437 0.90004 0.0
C385 C 0.4815 0.58892 0.8869 0.0
N386 N 0.57268 0.62527 0.85491 0.0
C387 C 0.54476 0.65055 0.85749 0.0
C388 C 0.56219 0.69501 0.84461 0.0
C389 C 0.60417 0.69881 0.83323 0.0
C390 C 0.60975 0.65603 0.83976 0.0
N391 N 0.51099 0.51323 0.8527 0.0
C392 C 0.43168 0.44187 0.82862 0.0
C393 C 0.43457 0.48948 0.83337 0.0
C394 C 0.47401 0.52411 0.84528 0.0
C395 C 0.47044 0.43146 0.83561 0.0
C396 C 0.50952 0.46746 0.84746 0.0
N397 N 0.61447 0.60902 0.89022 0.0
C398 C 0.6475 0.68639 0.90977 0.0
C399 C 0.69078 0.68139 0.91506 0.0
C400 C 0.69448 0.63865 0.90794 0.0
C401 C 0.65636 0.60339 0.89562 0.0
C402 C 0.61008 0.64999 0.89765 0.0
H403 H 0.66184 0.57211 0.89052 0.0
H404 H 0.57831 0.65636 0.89428 0.0
H405 H 0.47328 0.55921 0.84842 0.0
H406 H 0.53764 0.45704 0.85245 0.0
C407 C 0.62282 0.4902 0.87049 0.0
C408 C 0.65189 0.64736 0.83156 0.0
C409 C 0.47382 0.47411 0.91122 0.0
C410 C 0.50275 0.63186 0.87234 0.0
H411 H 0.7202 0.6088 0.81783 0.0
H412 H 0.70449 0.52243 0.83902 0.0
H413 H 0.58586 0.40646 0.90149 0.0
H414 H 0.5044 0.39826 0.92382 0.0
H415 H 0.39865 0.50683 0.92238 0.0
H416 H 0.41444 0.59331 0.90134 0.0
H417 H 0.54673 0.72192 0.84381 0.0
H418 H 0.6284 0.73006 0.82164 0.0
H419 H 0.40647 0.50027 0.82792 0.0
H420 H 0.47004 0.39511 0.83239 0.0
H421 H 0.64281 0.71901 0.91456 0.0
H422 H 0.72657 0.63214 0.91185 0.0
H423 H 0.09777 0.27874 0.1168 0.0
H424 H 0.96084 0.25483 0.08604 0.0
H425 H 0.96065 0.32751 0.1031 0.0
H426 H 0.99952 0.39831 0.1267 0.0
H427 H 0.1352 0.42054 0.15806 0.0
H428 H 0.13592 0.34874 0.1407 0.0
C429 C 0.06751 0.289 0.11399 0.0
C430 C 0.02935 0.26114 0.10014 0.0
C431 C 0.06767 0.33103 0.12384 0.0
C432 C 0.99103 0.2758 0.09646 0.0
C433 C 0.99078 0.31732 0.10626 0.0
C434 C 0.0291 0.38733 0.12985 0.0
C435 C 0.06742 0.41535 0.14366 0.0
C436 C 0.02898 0.34535 0.11996 0.0
C437 C 0.1058 0.40067 0.14726 0.0
C438 C 0.10597 0.35913 0.13747 0.0
H439 H 0.77789 0.03375 0.42617 0.0
H440 H 0.88529 0.06712 0.47348 0.0
H441 H 0.82161 0.07056 0.49763 0.0
H442 H 0.73512 0.06435 0.5054 0.0
H443 H 0.62773 0.0312 0.4583 0.0
H444 H 0.6913 0.02724 0.43396 0.0
C445 C 0.78707 0.04122 0.44182 0.0
C446 C 0.83631 0.05018 0.44799 0.0
C447 C 0.75032 0.04343 0.45563 0.0
C448 C 0.84792 0.06059 0.46827 0.0
C449 C 0.81148 0.06244 0.48212 0.0
C450 C 0.72603 0.05648 0.48976 0.0
C451 C 0.67725 0.04815 0.48349 0.0
C452 C 0.76268 0.05419 0.47595 0.0
C453 C 0.66531 0.0378 0.4633 0.0
C454 C 0.70152 0.03543 0.44946 0.0
H455 H 0.79996 0.79949 0.75693 0.0
H456 H 0.91588 0.84808 0.80169 0.0
H457 H 0.84852 0.78352 0.82689 0.0
H458 H 0.75574 0.7144 0.83659 0.0
H459 H 0.63973 0.66676 0.79214 0.0
H460 H 0.7076 0.73042 0.76654 0.0
C461 C 0.81049 0.79628 0.77223 0.0
C462 C 0.86313 0.82878 0.77732 0.0
C463 C 0.77133 0.75946 0.78676 0.0
C464 C 0.87603 0.8232 0.79718 0.0
C465 C 0.83737 0.78654 0.81169 0.0
C466 C 0.74561 0.71824 0.82127 0.0
C467 C 0.69308 0.68657 0.81616 0.0
C468 C 0.78486 0.75468 0.80669 0.0
C469 C 0.68001 0.69126 0.79632 0.0
C470 C 0.71877 0.72745 0.78174 0.0
H471 H 0.01145 0.79576 0.10487 0.0
H472 H 0.18258 0.89079 0.09915 0.0
H473 H 0.18821 0.82524 0.12139 0.0
H474 H 0.14452 0.74196 0.14247 0.0
H475 H 0.97552 0.64425 0.1459 0.0
H476 H 0.96959 0.70665 0.12264 0.0
C477 C 0.05024 0.80221 0.10812 0.0
C478 C 0.09647 0.84946 0.10057 0.0
C479 C 0.05351 0.76396 0.12071 0.0
C480 C 0.14607 0.85609 0.10517 0.0
C481 C 0.14943 0.81818 0.11776 0.0
C482 C 0.10593 0.73663 0.1402 0.0
C483 C 0.05949 0.69477 0.15079 0.0
C484 C 0.10325 0.77269 0.1261 0.0
C485 C 0.01132 0.68158 0.14206 0.0
C486 C 0.00797 0.71657 0.12786 0.0
H487 H 0.22719 0.04316 0.45513 0.0
H488 H 0.34772 0.15084 0.4096 0.0
H489 H 0.41592 0.14598 0.42831 0.0
H490 H 0.44127 0.11056 0.45751 0.0
H491 H 0.32045 0.002 0.50282 0.0
H492 H 0.25249 0.00744 0.48425 0.0
C493 C 0.26847 0.06594 0.44942 0.0
C494 C 0.28239 0.09751 0.43105 0.0
C495 C 0.30739 0.06248 0.46014 0.0
C496 C 0.33594 0.12605 0.42365 0.0
C497 C 0.37496 0.12336 0.43436 0.0
C498 C 0.4001 0.08831 0.46337 0.0
C499 C 0.38604 0.05586 0.48153 0.0
C500 C 0.36114 0.09159 0.45259 0.0
C501 C 0.33235 0.02673 0.48875 0.0
C502 C 0.29347 0.0301 0.47821 0.0
H503 H 0.22542 0.29414 0.78405 0.0
H504 H 0.33452 0.25697 0.75285 0.0
H505 H 0.40559 0.31734 0.77287 0.0
H506 H 0.43746 0.38159 0.79906 0.0
H507 H 0.32736 0.41549 0.83138 0.0
H508 H 0.25637 0.3555 0.81121 0.0
C509 C 0.26457 0.29877 0.78175 0.0
C510 C 0.27441 0.27121 0.76676 0.0
C511 C 0.30536 0.33318 0.79352 0.0
C512 C 0.32578 0.27839 0.76392 0.0
C513 C 0.36651 0.31267 0.7755 0.0
C514 C 0.39784 0.37544 0.80187 0.0
C515 C 0.38814 0.40353 0.81666 0.0
C516 C 0.35685 0.34041 0.79031 0.0
C517 C 0.33647 0.39534 0.81986 0.0
C518 C 0.29562 0.3607 0.80841 0.0
H519 H 0.81179 0.01533 0.64853 0.0
H520 H 0.9348 0.16229 0.61796 0.0
H521 H 0.87135 0.16242 0.59505 0.0
H522 H 0.78097 0.12072 0.58359 0.0
H523 H 0.65748 0.97529 0.61496 0.0
H524 H 0.72112 0.97479 0.63761 0.0
C525 C 0.82468 0.0478 0.63703 0.0
C526 C 0.87815 0.0888 0.63506 0.0
C527 C 0.7879 0.04781 0.62396 0.0
C528 C 0.89415 0.12989 0.61974 0.0
C529 C 0.85778 0.13015 0.60668 0.0
C530 C 0.76776 0.08918 0.59551 0.0
C531 C 0.71431 0.04806 0.59748 0.0
C532 C 0.80455 0.08931 0.60864 0.0
C533 C 0.69838 0.00706 0.61284 0.0
C534 C 0.73472 0.0069 0.62591 0.0
H535 H 0.89086 0.84827 0.95843 0.0
H536 H 0.76997 0.86604 0.99108 0.0
H537 H 0.70209 0.79774 0.9721 0.0
H538 H 0.67678 0.73307 0.94627 0.0
H539 H 0.79825 0.71974 0.91189 0.0
H540 H 0.86582 0.78579 0.93166 0.0
C541 C 0.8498 0.83784 0.96124 0.0
C542 C 0.83583 0.86249 0.97627 0.0
C543 C 0.81084 0.79892 0.95006 0.0
C544 C 0.78207 0.84738 0.97988 0.0
C545 C 0.74312 0.80844 0.96893 0.0
C546 C 0.71805 0.74493 0.94287 0.0
C547 C 0.73201 0.72105 0.92752 0.0
C548 C 0.75703 0.78394 0.95399 0.0
C549 C 0.78584 0.73646 0.92378 0.0
C550 C 0.82474 0.77472 0.93498 0.0
H551 H 0.08552 0.84803 0.31958 0.0
H552 H 0.94572 0.82918 0.29237 0.0
H553 H 0.94658 0.7635 0.27087 0.0
H554 H 0.9878 0.7125 0.25935 0.0
H555 H 0.12559 0.72888 0.28747 0.0
H556 H 0.12445 0.79422 0.30909 0.0
C557 C 0.0547 0.82905 0.30918 0.0
C558 C 0.01563 0.8438 0.30765 0.0
C559 C 0.05515 0.79093 0.29694 0.0
C560 C 0.97674 0.81934 0.29373 0.0
C561 C 0.977 0.78147 0.28149 0.0
C562 C 0.01717 0.72971 0.2704 0.0
C563 C 0.05679 0.71566 0.27168 0.0
C564 C 0.01612 0.76709 0.28291 0.0
C565 C 0.09506 0.73934 0.28588 0.0
C566 C 0.09428 0.77657 0.29836 0.0
H567 H 0.25654 0.04431 0.61151 0.0
H568 H 0.31743 0.02059 0.66682 0.0
H569 H 0.39244 0.02409 0.64747 0.0
H570 H 0.44149 0.03466 0.61471 0.0
H571 H 0.38178 0.05953 0.55944 0.0
H572 H 0.3057 0.05501 0.57872 0.0
C573 C 0.28597 0.03936 0.61927 0.0
C574 C 0.28137 0.03211 0.64056 0.0
C575 C 0.3294 0.04202 0.60804 0.0
C576 C 0.32026 0.02656 0.65045 0.0
C577 C 0.36313 0.0285 0.6394 0.0
C578 C 0.41173 0.03922 0.60702 0.0
C579 C 0.41675 0.04746 0.58582 0.0
C580 C 0.36831 0.03652 0.61821 0.0
C581 C 0.37835 0.05331 0.57581 0.0
C582 C 0.33494 0.05055 0.58682 0.0
H583 H 0.3166 0.32593 0.98486 0.0
H584 H 0.26834 0.21087 0.93973 0.0
H585 H 0.33358 0.27865 0.91475 0.0
H586 H 0.40387 0.37125 0.9055 0.0
H587 H 0.45327 0.48584 0.95063 0.0
H588 H 0.38746 0.41811 0.97575 0.0
C589 C 0.32015 0.31575 0.96953 0.0
C590 C 0.28753 0.26329 0.96422 0.0
C591 C 0.35768 0.35502 0.9552 0.0
C592 C 0.29331 0.25067 0.94434 0.0
C593 C 0.33037 0.28953 0.92998 0.0
C594 C 0.39989 0.38116 0.92085 0.0
C595 C 0.43268 0.43331 0.92626 0.0
C596 C 0.36263 0.34184 0.93521 0.0
C597 C 0.42785 0.44596 0.94617 0.0
C598 C 0.39047 0.40725 0.96049 0.0
H599 H 0.05673 0.26328 0.2745 0.0
H600 H 0.11717 0.36325 0.32429 0.0
H601 H 0.11746 0.43622 0.3046 0.0
H602 H 0.09813 0.47117 0.27347 0.0
H603 H 0.03806 0.37167 0.22371 0.0
H604 H 0.03905 0.29866 0.24319 0.0
C605 C 0.06978 0.30096 0.28107 0.0
C606 C 0.08691 0.30765 0.30087 0.0
C607 C 0.06954 0.34273 0.2697 0.0
C608 C 0.10444 0.3571 0.30902 0.0
C609 C 0.10424 0.39879 0.29782 0.0
C610 C 0.08549 0.43345 0.26696 0.0
C611 C 0.06798 0.42642 0.24728 0.0
C612 C 0.0866 0.39199 0.2782 0.0
C613 C 0.05154 0.3776 0.23889 0.0
C614 C 0.05221 0.33605 0.25 0.0
loop_
_geom_bond_atom_site_label_1
_geom_bond_atom_site_label_2
_geom_bond_distance
_geom_bond_site_symmetry_2
_ccdc_geom_bond_type
Li0 N17 1.990 . S
Li0 O60 1.956 . S
Li0 O61 1.970 . S
Li0 O62 1.961 . S
Li1 N25 1.990 . S
Li1 O60 1.970 . S
Li1 O61 1.956 . S
Li1 O63 1.961 . S
Li2 N47 1.990 1_545 S
Li2 O60 1.961 . S
Li2 O62 1.956 . S
Li2 O63 1.970 . S
Li3 N53 1.990 1_445 S
Li3 O61 1.961 . S
Li3 O62 1.970 . S
Li3 O63 1.956 . S
C4 C6 1.348 . S
C4 C7 1.356 . S
C4 O60 1.325 . S
N5 C8 1.314 . S
N5 C9 1.279 . S
C6 C4 1.348 . S
C6 C8 1.353 . S
C6 H64 0.929 . S
C7 C4 1.356 . S
C7 C9 1.358 . S
C7 H65 0.930 . S
C8 N5 1.314 . S
C8 C6 1.353 . S
C8 H66 0.930 . S
C9 N5 1.279 . S
C9 C7 1.358 . S
C9 H67 0.930 . S
C10 C13 1.348 1_554 S
C10 C14 1.356 . S
C10 O61 1.325 . S
C11 N12 1.279 1_655 S
C11 C14 1.358 1_656 S
C11 H68 0.930 . S
N12 C11 1.279 1_455 S
N12 C15 1.314 . S
C13 C10 1.348 1_556 S
C13 C15 1.353 . S
C13 H69 0.935 . S
C14 C10 1.356 . S
C14 C11 1.358 1_454 S
C14 H70 0.930 1_455 S
C15 N12 1.314 . S
C15 C13 1.353 . S
C15 H71 0.930 . S
C16 N17 1.314 1_556 S
C16 C21 1.353 . S
C16 H22 0.930 . S
N17 Li0 1.990 . S
N17 C16 1.314 1_554 S
N17 C19 1.279 . S
C18 C19 1.358 1_556 S
C18 C20 1.356 . S
C18 H72 0.930 1_556 S
C19 N17 1.279 . S
C19 C18 1.358 1_554 S
C19 H23 0.930 . S
C20 C18 1.356 . S
C20 C21 1.348 . S
C21 C16 1.353 . S
C21 C20 1.348 . S
C21 H73 0.929 . S
H22 C16 0.930 . S
H23 C19 0.930 . S
C24 N25 1.314 . S
C24 C26 1.353 . S
C24 H30 0.930 . S
N25 Li1 1.990 . S
N25 C24 1.314 . S
N25 C28 1.279 . S
C26 C24 1.353 . S
C26 C29 1.348 . S
C26 H74 0.929 1_455 S
C27 C28 1.358 . S
C27 C29 1.356 . S
C27 H75 0.930 . S
C28 N25 1.279 . S
C28 C27 1.358 . S
C28 H31 0.930 . S
C29 C26 1.348 . S
C29 C27 1.356 . S
H30 C24 0.930 . S
H31 C28 0.930 . S
C32 C34 1.374 . S
C32 C35 1.356 . S
C32 O62 1.325 1_565 S
N33 C36 1.314 . S
N33 C37 1.279 . S
C34 C32 1.374 . S
C34 C36 1.325 1_554 S
C34 H76 0.934 . S
C35 C32 1.356 . S
C35 C37 1.358 1_554 S
C35 H77 0.930 1_565 S
C36 N33 1.314 . S
C36 C34 1.325 1_556 S
C36 H78 0.930 . S
C37 N33 1.279 . S
C37 C35 1.358 1_556 S
C37 H79 0.930 . S
C38 C39 1.348 . S
C38 C40 1.356 . S
C38 O63 1.325 1_665 S
C39 C38 1.348 . S
C39 C41 1.353 . S
C39 H80 0.929 . S
C40 C38 1.356 . S
C40 C42 1.358 . S
C40 H81 0.930 1_565 S
C41 C39 1.353 . S
C41 N43 1.314 . S
C41 H82 0.930 . S
C42 C40 1.358 . S
C42 N43 1.279 . S
C42 H83 0.930 . S
N43 C41 1.314 . S
N43 C42 1.279 . S
C44 C46 1.353 . S
C44 N47 1.314 . S
C44 H50 0.930 1_565 S
C45 N47 1.279 . S
C45 C48 1.358 . S
C45 H51 0.930 . S
C46 C44 1.353 . S
C46 C49 1.348 . S
C46 H84 0.929 . S
N47 Li2 1.990 1_565 S
N47 C44 1.314 . S
N47 C45 1.279 . S
C48 C45 1.358 . S
C48 C49 1.356 . S
C48 H85 0.930 . S
C49 C46 1.348 . S
C49 C48 1.356 . S
H50 C44 0.930 1_545 S
H51 C45 0.930 . S
C52 N53 1.314 1_556 S
C52 C54 1.353 . S
C52 H58 0.930 1_565 S
N53 Li3 1.990 1_665 S
N53 C52 1.314 1_554 S
N53 C56 1.279 . S
C54 C52 1.353 . S
C54 C57 1.348 . S
C54 H86 0.929 . S
C55 C56 1.358 . S
C55 C57 1.356 1_554 S
C55 H87 0.930 . S
C56 N53 1.279 . S
C56 C55 1.358 . S
C56 H59 0.930 . S
C57 C54 1.348 . S
C57 C55 1.356 1_556 S
H58 C52 0.930 1_545 S
H59 C56 0.930 . S
O60 Li0 1.956 . S
O60 Li1 1.970 . S
O60 Li2 1.961 . S
O60 C4 1.325 . S
O61 Li0 1.970 . S
O61 Li1 1.956 . S
O61 Li3 1.961 . S
O61 C10 1.325 . S
O62 Li0 1.961 . S
O62 Li2 1.956 . S
O62 Li3 1.970 . S
O62 C32 1.325 1_545 S
O63 Li1 1.961 . S
O63 Li2 1.970 . S
O63 Li3 1.956 . S
O63 C38 1.325 1_445 S
H64 C6 0.929 . S
H65 C7 0.930 . S
H66 C8 0.930 . S
H67 C9 0.930 . S
H68 C11 0.930 . S
H69 C13 0.935 . S
H70 C14 0.930 1_655 S
H71 C15 0.930 . S
H72 C18 0.930 1_554 S
H73 C21 0.929 . S
H74 C26 0.929 1_655 S
H75 C27 0.930 . S
H76 C34 0.934 . S
H77 C35 0.930 1_545 S
H78 C36 0.930 . S
H79 C37 0.930 . S
H80 C39 0.929 . S
H81 C40 0.930 1_545 S
H82 C41 0.930 . S
H83 C42 0.930 . S
H84 C46 0.929 . S
H85 C48 0.930 . S
H86 C54 0.929 . S
H87 C55 0.930 . S
Li88 N105 1.990 1_545 S
Li88 O148 1.956 . S
Li88 O149 1.970 . S
Li88 O150 1.961 1_455 S
Li89 N113 1.990 . S
Li89 O148 1.970 . S
Li89 O149 1.956 . S
Li89 O151 1.961 . S
Li90 N135 1.990 . S
Li90 O148 1.961 1_655 S
Li90 O150 1.956 . S
Li90 O151 1.970 1_655 S
Li91 N141 1.990 . S
Li91 O149 1.961 . S
Li91 O150 1.970 1_455 S
Li91 O151 1.956 . S
C92 C94 1.348 . S
C92 C95 1.356 1_455 S
C92 O148 1.325 1_565 S
N93 C96 1.314 1_655 S
N93 C97 1.279 . S
C94 C92 1.348 . S
C94 C96 1.353 . S
C94 H152 0.929 . S
C95 C92 1.356 1_655 S
C95 C97 1.358 . S
C95 H153 0.930 . S
C96 N93 1.314 1_455 S
C96 C94 1.353 . S
C96 H154 0.930 . S
C97 N93 1.279 . S
C97 C95 1.358 . S
C97 H155 0.930 . S
C98 C101 1.348 . S
C98 C102 1.356 . S
C98 O149 1.325 . S
C99 N100 1.279 . S
C99 C102 1.358 . S
C99 H156 0.930 . S
N100 C99 1.279 . S
N100 C103 1.314 . S
C101 C98 1.348 . S
C101 C103 1.353 . S
C101 H157 0.929 . S
C102 C98 1.356 . S
C102 C99 1.358 . S
C102 H158 0.930 . S
C103 N100 1.314 . S
C103 C101 1.353 . S
C103 H159 0.930 . S
C104 N105 1.314 1_655 S
C104 C109 1.353 . S
C104 H110 0.930 . S
N105 Li88 1.990 1_565 S
N105 C104 1.314 1_455 S
N105 C107 1.279 . S
C106 C107 1.358 1_655 S
C106 C108 1.356 . S
C106 H160 0.930 . S
C107 N105 1.279 . S
C107 C106 1.358 1_455 S
C107 H111 0.930 . S
C108 C106 1.356 . S
C108 C109 1.348 . S
C109 C104 1.353 . S
C109 C108 1.348 . S
C109 H161 0.929 . S
H110 C104 0.930 . S
H111 C107 0.930 . S
C112 N113 1.314 . S
C112 C114 1.353 . S
C112 H118 0.930 . S
N113 Li89 1.990 . S
N113 C112 1.314 . S
N113 C116 1.279 . S
C114 C112 1.353 . S
C114 C117 1.348 . S
C114 H162 0.929 . S
C115 C116 1.358 . S
C115 C117 1.356 . S
C115 H163 0.930 . S
C116 N113 1.279 . S
C116 C115 1.358 . S
C116 H119 0.930 . S
C117 C114 1.348 . S
C117 C115 1.356 . S
H118 C112 0.930 . S
H119 C116 0.930 . S
C120 C122 1.348 . S
C120 C123 1.356 . S
C120 O150 1.325 . S
N121 C124 1.314 . S
N121 C125 1.279 1_545 S
C122 C120 1.348 . S
C122 C124 1.353 . S
C122 H164 0.929 . S
C123 C120 1.356 . S
C123 C125 1.358 1_545 S
C123 H165 0.930 1_545 S
C124 N121 1.314 . S
C124 C122 1.353 . S
C124 H166 0.930 . S
C125 N121 1.279 1_565 S
C125 C123 1.358 1_565 S
C125 H167 0.930 . S
C126 C127 1.348 . S
C126 C128 1.356 . S
C126 O151 1.325 . S
C127 C126 1.348 . S
C127 C129 1.353 . S
C127 H168 0.929 1_455 S
C128 C126 1.356 . S
C128 C130 1.358 . S
C128 H169 0.930 . S
C129 C127 1.353 . S
C129 N131 1.314 . S
C129 H170 0.930 . S
C130 C128 1.358 . S
C130 N131 1.279 . S
C130 H171 0.930 . S
N131 C129 1.314 . S
N131 C130 1.279 . S
C132 C134 1.353 . S
C132 N135 1.314 . S
C132 H138 0.930 . S
C133 N135 1.279 . S
C133 C136 1.358 . S
C133 H139 0.930 . S
C134 C132 1.353 . S
C134 C137 1.348 . S
C134 H172 0.929 . S
N135 Li90 1.990 . S
N135 C132 1.314 . S
N135 C133 1.279 . S
C136 C133 1.358 . S
C136 C137 1.356 . S
C136 H173 0.930 . S
C137 C134 1.348 . S
C137 C136 1.356 . S
H138 C132 0.930 . S
H139 C133 0.930 . S
C140 N141 1.314 . S
C140 C142 1.353 . S
C140 H146 0.930 . S
N141 Li91 1.990 . S
N141 C140 1.314 . S
N141 C144 1.279 . S
C142 C140 1.353 . S
C142 C145 1.348 . S
C142 H174 0.929 . S
C143 C144 1.358 . S
C143 C145 1.356 . S
C143 H175 0.930 . S
C144 N141 1.279 . S
C144 C143 1.358 . S
C144 H147 0.930 . S
C145 C142 1.348 . S
C145 C143 1.356 . S
H146 C140 0.930 . S
H147 C144 0.930 . S
O148 Li88 1.956 . S
O148 Li89 1.970 . S
O148 Li90 1.961 1_455 S
O148 C92 1.325 1_545 S
O149 Li88 1.970 . S
O149 Li89 1.956 . S
O149 Li91 1.961 . S
O149 C98 1.325 . S
O150 Li88 1.961 1_655 S
O150 Li90 1.956 . S
O150 Li91 1.970 1_655 S
O150 C120 1.325 . S
O151 Li89 1.961 . S
O151 Li90 1.970 1_455 S
O151 Li91 1.956 . S
O151 C126 1.325 . S
H152 C94 0.929 . S
H153 C95 0.930 . S
H154 C96 0.930 . S
H155 C97 0.930 . S
H156 C99 0.930 . S
H157 C101 0.929 . S
H158 C102 0.930 . S
H159 C103 0.930 . S
H160 C106 0.930 . S
H161 C109 0.929 . S
H162 C114 0.929 . S
H163 C115 0.930 . S
H164 C122 0.929 . S
H165 C123 0.930 1_565 S
H166 C124 0.930 . S
H167 C125 0.930 . S
H168 C127 0.929 1_655 S
H169 C128 0.930 . S
H170 C129 0.930 . S
H171 C130 0.930 . S
H172 C134 0.929 . S
H173 C136 0.930 . S
H174 C142 0.929 . S
H175 C143 0.930 . S
Li176 N193 1.990 . S
Li176 O236 1.956 . S
Li176 O237 1.970 . S
Li176 O238 1.961 1_545 S
Li177 N201 1.990 . S
Li177 O236 1.970 . S
Li177 O237 1.956 . S
Li177 O239 1.961 . S
Li178 N223 1.990 1_455 S
Li178 O236 1.961 1_565 S
Li178 O238 1.956 . S
Li178 O239 1.970 1_565 S
Li179 N229 1.990 1_455 S
Li179 O237 1.961 . S
Li179 O238 1.970 1_545 S
Li179 O239 1.956 . S
C180 C182 1.348 . S
C180 C183 1.356 1_545 S
C180 O236 1.325 . S
N181 C184 1.314 1_565 S
N181 C185 1.279 . S
C182 C180 1.348 . S
C182 C184 1.353 . S
C182 H240 0.929 . S
C183 C180 1.356 1_565 S
C183 C185 1.358 . S
C183 H241 0.930 . S
C184 N181 1.314 1_545 S
C184 C182 1.353 . S
C184 H242 0.930 . S
C185 N181 1.279 . S
C185 C183 1.358 . S
C185 H243 0.930 . S
C186 C189 1.348 . S
C186 C190 1.356 . S
C186 O237 1.325 . S
C187 N188 1.279 . S
C187 C190 1.358 . S
C187 H244 0.930 . S
N188 C187 1.279 . S
N188 C191 1.314 . S
C189 C186 1.348 . S
C189 C191 1.353 . S
C189 H245 0.929 . S
C190 C186 1.356 . S
C190 C187 1.358 . S
C190 H246 0.930 . S
C191 N188 1.314 . S
C191 C189 1.353 . S
C191 H247 0.930 . S
C192 N193 1.314 . S
C192 C197 1.353 1_545 S
C192 H198 0.930 . S
N193 Li176 1.990 . S
N193 C192 1.314 . S
N193 C195 1.279 . S
C194 C195 1.358 . S
C194 C196 1.355 1_545 S
C194 H248 0.930 . S
C195 N193 1.279 . S
C195 C194 1.358 . S
C195 H199 0.930 . S
C196 C194 1.355 1_565 S
C196 C197 1.342 . S
C197 C192 1.353 1_565 S
C197 C196 1.342 . S
C197 H249 0.929 . S
H198 C192 0.930 . S
H199 C195 0.930 . S
C200 N201 1.314 . S
C200 C202 1.353 . S
C200 H206 0.930 . S
N201 Li177 1.990 . S
N201 C200 1.314 . S
N201 C204 1.279 . S
C202 C200 1.353 . S
C202 C205 1.348 . S
C202 H250 0.929 . S
C203 C204 1.358 . S
C203 C205 1.356 . S
C203 H251 0.930 . S
C204 N201 1.279 . S
C204 C203 1.358 . S
C204 H207 0.930 . S
C205 C202 1.348 . S
C205 C203 1.356 . S
H206 C200 0.930 . S
H207 C204 0.930 . S
C208 C210 1.348 . S
C208 C211 1.356 1_655 S
C208 O238 1.325 1_655 S
N209 C212 1.314 . S
N209 C213 1.279 . S
C210 C208 1.348 . S
C210 C212 1.353 . S
C210 H252 0.929 . S
C211 C208 1.356 1_455 S
C211 C213 1.358 1_455 S
C211 H253 0.930 . S
C212 N209 1.314 . S
C212 C210 1.353 . S
C212 H254 0.930 . S
C213 N209 1.279 . S
C213 C211 1.358 1_655 S
C213 H255 0.930 . S
C214 C215 1.348 . S
C214 C216 1.353 . S
C214 O239 1.325 1_655 S
C215 C214 1.348 . S
C215 C217 1.353 . S
C215 H256 0.929 1_545 S
C216 C214 1.353 . S
C216 C218 1.365 . S
C216 H257 0.926 1_655 S
C217 C215 1.353 . S
C217 N219 1.314 . S
C217 H258 0.930 . S
C218 C216 1.365 . S
C218 N219 1.279 . S
C218 H259 0.930 . S
N219 C217 1.314 . S
N219 C218 1.279 . S
C220 C222 1.353 . S
C220 N223 1.314 . S
C220 H226 0.930 1_655 S
C221 N223 1.279 . S
C221 C224 1.358 . S
C221 H227 0.930 . S
C222 C220 1.353 . S
C222 C225 1.348 . S
C222 H260 0.929 . S
N223 Li178 1.990 1_655 S
N223 C220 1.314 . S
N223 C221 1.279 . S
C224 C221 1.358 . S
C224 C225 1.356 . S
C224 H261 0.930 . S
C225 C222 1.348 . S
C225 C224 1.356 . S
H226 C220 0.930 1_455 S
H227 C221 0.930 . S
C228 N229 1.314 . S
C228 C230 1.353 . S
C228 H234 0.930 1_655 S
N229 Li179 1.990 1_655 S
N229 C228 1.314 . S
N229 C232 1.279 . S
C230 C228 1.353 . S
C230 C233 1.348 . S
C230 H262 0.929 . S
C231 C232 1.358 . S
C231 C233 1.356 . S
C231 H263 0.930 . S
C232 N229 1.279 . S
C232 C231 1.358 . S
C232 H235 0.930 . S
C233 C230 1.348 . S
C233 C231 1.356 . S
H234 C228 0.930 1_455 S
H235 C232 0.930 . S
O236 Li176 1.956 . S
O236 Li177 1.970 . S
O236 Li178 1.961 1_545 S
O236 C180 1.325 . S
O237 Li176 1.970 . S
O237 Li177 1.956 . S
O237 Li179 1.961 . S
O237 C186 1.325 . S
O238 Li176 1.961 1_565 S
O238 Li178 1.956 . S
O238 Li179 1.970 1_565 S
O238 C208 1.325 1_455 S
O239 Li177 1.961 . S
O239 Li178 1.970 1_545 S
O239 Li179 1.956 . S
O239 C214 1.325 1_455 S
H240 C182 0.929 . S
H241 C183 0.930 . S
H242 C184 0.930 . S
H243 C185 0.930 . S
H244 C187 0.930 . S
H245 C189 0.929 . S
H246 C190 0.930 . S
H247 C191 0.930 . S
H248 C194 0.930 . S
H249 C197 0.929 . S
H250 C202 0.929 . S
H251 C203 0.930 . S
H252 C210 0.929 . S
H253 C211 0.930 . S
H254 C212 0.930 . S
H255 C213 0.930 . S
H256 C215 0.929 1_565 S
H257 C216 0.926 1_455 S
H258 C217 0.930 . S
H259 C218 0.930 . S
H260 C222 0.929 . S
H261 C224 0.930 . S
H262 C230 0.929 . S
H263 C231 0.930 . S
C264 C265 1.443 . S
C264 N268 1.376 . S
C264 C302 1.389 . S
C265 C264 1.443 . S
C265 C266 1.340 . S
C265 H305 0.951 . S
C266 C265 1.340 . S
C266 C267 1.439 . S
C266 H306 0.950 . S
C267 C266 1.439 . S
C267 N268 1.374 . S
C267 C301 1.395 . S
N268 C264 1.376 . S
N268 C267 1.374 . S
N268 Co269 2.008 . S
Co269 N268 2.008 . S
Co269 N270 1.995 . S
Co269 N275 2.008 1_455 S
Co269 N280 1.995 1_455 S
Co269 N285 2.282 . S
Co269 N291 2.282 . S
N270 Co269 1.995 . S
N270 C271 1.376 . S
N270 C274 1.383 . S
C271 N270 1.376 . S
C271 C272 1.446 . S
C271 C301 1.391 . S
C272 C271 1.446 . S
C272 C273 1.339 . S
C272 H307 0.949 . S
C273 C272 1.339 . S
C273 C274 1.439 . S
C273 H308 0.950 . S
C274 N270 1.383 . S
C274 C273 1.439 . S
C274 C303 1.392 . S
N275 Co269 2.008 1_655 S
N275 C276 1.376 . S
N275 C279 1.374 . S
C276 N275 1.376 . S
C276 C277 1.443 . S
C276 C303 1.389 1_655 S
C277 C276 1.443 . S
C277 C278 1.340 . S
C277 H309 0.951 . S
C278 C277 1.340 . S
C278 C279 1.439 . S
C278 H310 0.950 . S
C279 N275 1.374 . S
C279 C278 1.439 . S
C279 C304 1.395 . S
N280 Co269 1.995 1_655 S
N280 C281 1.376 . S
N280 C284 1.383 . S
C281 N280 1.376 . S
C281 C282 1.446 . S
C281 C304 1.391 . S
C282 C281 1.446 . S
C282 C283 1.339 . S
C282 H311 0.949 . S
C283 C282 1.339 . S
C283 C284 1.439 . S
C283 H312 0.950 . S
C284 N280 1.383 . S
C284 C283 1.439 . S
C284 C302 1.392 1_655 S
N285 Co269 2.282 . S
N285 C288 1.332 1_455 S
N285 C290 1.332 . S
C286 C287 1.386 1_455 S
C286 C289 1.388 . S
C287 C286 1.386 1_655 S
C287 C288 1.382 . S
C287 H313 0.950 . S
C288 N285 1.332 1_655 S
C288 C287 1.382 . S
C288 H299 0.952 . S
C289 C286 1.388 . S
C289 C290 1.382 . S
C289 H314 0.950 . S
C290 N285 1.332 . S
C290 C289 1.382 . S
C290 H300 0.948 . S
N291 Co269 2.282 . S
N291 C295 1.332 . S
N291 C296 1.332 1_455 S
C292 C293 1.388 1_655 S
C292 C296 1.382 . S
C292 H315 0.950 . S
C293 C292 1.388 1_455 S
C293 C294 1.386 . S
C294 C293 1.386 . S
C294 C295 1.382 . S
C294 H316 0.950 . S
C295 N291 1.332 . S
C295 C294 1.382 . S
C295 H297 0.952 . S
C296 N291 1.332 1_655 S
C296 C292 1.382 . S
C296 H298 0.948 . S
H297 C295 0.952 . S
H298 C296 0.948 . S
H299 C288 0.952 . S
H300 C290 0.948 . S
C301 C267 1.395 . S
C301 C271 1.391 . S
C302 C264 1.389 . S
C302 C284 1.392 1_455 S
C303 C274 1.392 . S
C303 C276 1.389 1_455 S
C304 C279 1.395 . S
C304 C281 1.391 . S
H305 C265 0.951 . S
H306 C266 0.950 . S
H307 C272 0.949 . S
H308 C273 0.950 . S
H309 C277 0.951 . S
H310 C278 0.950 . S
H311 C282 0.949 . S
H312 C283 0.950 . S
H313 C287 0.950 . S
H314 C289 0.950 . S
H315 C292 0.950 . S
H316 C294 0.950 . S
C317 C318 1.443 1_545 S
C317 N321 1.376 . S
C317 C355 1.389 . S
C318 C317 1.443 1_565 S
C318 C319 1.340 . S
C318 H358 0.951 . S
C319 C318 1.340 . S
C319 C320 1.439 . S
C319 H359 0.950 . S
C320 C319 1.439 . S
C320 N321 1.374 1_565 S
C320 C354 1.395 . S
N321 C317 1.376 . S
N321 C320 1.374 1_545 S
N321 Co322 2.008 . S
Co322 N321 2.008 . S
Co322 N323 1.995 . S
Co322 N328 2.008 . S
Co322 N333 1.995 . S
Co322 N338 2.282 . S
Co322 N344 2.282 . S
N323 Co322 1.995 . S
N323 C324 1.376 1_545 S
N323 C327 1.383 . S
C324 N323 1.376 1_565 S
C324 C325 1.446 . S
C324 C354 1.391 . S
C325 C324 1.446 . S
C325 C326 1.339 . S
C325 H360 0.949 . S
C326 C325 1.339 . S
C326 C327 1.439 1_565 S
C326 H361 0.950 . S
C327 N323 1.383 . S
C327 C326 1.439 1_545 S
C327 C356 1.392 . S
N328 Co322 2.008 . S
N328 C329 1.376 . S
N328 C332 1.374 . S
C329 N328 1.376 . S
C329 C330 1.443 . S
C329 C356 1.389 . S
C330 C329 1.443 . S
C330 C331 1.340 . S
C330 H362 0.951 . S
C331 C330 1.340 . S
C331 C332 1.439 . S
C331 H363 0.950 . S
C332 N328 1.374 . S
C332 C331 1.439 . S
C332 C357 1.395 . S
N333 Co322 1.995 . S
N333 C334 1.376 . S
N333 C337 1.383 . S
C334 N333 1.376 . S
C334 C335 1.446 . S
C334 C357 1.391 . S
C335 C334 1.446 . S
C335 C336 1.339 . S
C335 H364 0.949 . S
C336 C335 1.339 . S
C336 C337 1.439 . S
C336 H365 0.950 . S
C337 N333 1.383 . S
C337 C336 1.439 . S
C337 C355 1.392 . S
N338 Co322 2.282 . S
N338 C341 1.332 . S
N338 C343 1.332 . S
C339 C340 1.386 . S
C339 C342 1.388 . S
C340 C339 1.386 . S
C340 C341 1.382 . S
C340 H366 0.950 . S
C341 N338 1.332 . S
C341 C340 1.382 . S
C341 H352 0.952 . S
C342 C339 1.388 . S
C342 C343 1.382 . S
C342 H367 0.950 . S
C343 N338 1.332 . S
C343 C342 1.382 . S
C343 H353 0.948 . S
N344 Co322 2.282 . S
N344 C348 1.332 . S
N344 C349 1.332 . S
C345 C346 1.388 . S
C345 C349 1.382 . S
C345 H368 0.950 . S
C346 C345 1.388 . S
C346 C347 1.386 . S
C347 C346 1.386 . S
C347 C348 1.382 . S
C347 H369 0.950 . S
C348 N344 1.332 . S
C348 C347 1.382 . S
C348 H350 0.952 . S
C349 N344 1.332 . S
C349 C345 1.382 . S
C349 H351 0.948 . S
H350 C348 0.952 . S
H351 C349 0.948 . S
H352 C341 0.952 . S
H353 C343 0.948 . S
C354 C320 1.395 . S
C354 C324 1.391 . S
C355 C317 1.389 . S
C355 C337 1.392 . S
C356 C327 1.392 . S
C356 C329 1.389 . S
C357 C332 1.395 . S
C357 C334 1.391 . S
H358 C318 0.951 . S
H359 C319 0.950 . S
H360 C325 0.949 . S
H361 C326 0.950 . S
H362 C330 0.951 . S
H363 C331 0.950 . S
H364 C335 0.949 . S
H365 C336 0.950 . S
H366 C340 0.950 . S
H367 C342 0.950 . S
H368 C345 0.950 . S
H369 C347 0.950 . S
C370 C371 1.443 . S
C370 N374 1.376 . S
C370 C408 1.389 . S
C371 C370 1.443 . S
C371 C372 1.340 . S
C371 H411 0.951 . S
C372 C371 1.340 . S
C372 C373 1.439 . S
C372 H412 0.950 . S
C373 C372 1.439 . S
C373 N374 1.374 . S
C373 C407 1.395 . S
N374 C370 1.376 . S
N374 C373 1.374 . S
N374 Co375 2.008 . S
Co375 N374 2.008 . S
Co375 N376 1.995 . S
Co375 N381 2.008 . S
Co375 N386 1.995 . S
Co375 N391 2.282 . S
Co375 N397 2.282 . S
N376 Co375 1.995 . S
N376 C377 1.376 . S
N376 C380 1.383 . S
C377 N376 1.376 . S
C377 C378 1.446 . S
C377 C407 1.391 . S
C378 C377 1.446 . S
C378 C379 1.339 . S
C378 H413 0.949 . S
C379 C378 1.339 . S
C379 C380 1.439 . S
C379 H414 0.950 . S
C380 N376 1.383 . S
C380 C379 1.439 . S
C380 C409 1.392 . S
N381 Co375 2.008 . S
N381 C382 1.376 . S
N381 C385 1.374 . S
C382 N381 1.376 . S
C382 C383 1.443 . S
C382 C409 1.389 . S
C383 C382 1.443 . S
C383 C384 1.340 . S
C383 H415 0.951 . S
C384 C383 1.340 . S
C384 C385 1.439 . S
C384 H416 0.950 . S
C385 N381 1.374 . S
C385 C384 1.439 . S
C385 C410 1.395 . S
N386 Co375 1.995 . S
N386 C387 1.376 . S
N386 C390 1.383 . S
C387 N386 1.376 . S
C387 C388 1.446 . S
C387 C410 1.391 . S
C388 C387 1.446 . S
C388 C389 1.339 . S
C388 H417 0.949 . S
C389 C388 1.339 . S
C389 C390 1.439 . S
C389 H418 0.950 . S
C390 N386 1.383 . S
C390 C389 1.439 . S
C390 C408 1.392 . S
N391 Co375 2.282 . S
N391 C394 1.332 . S
N391 C396 1.332 . S
C392 C393 1.386 . S
C392 C395 1.388 . S
C393 C392 1.386 . S
C393 C394 1.382 . S
C393 H419 0.950 . S
C394 N391 1.332 . S
C394 C393 1.382 . S
C394 H405 0.952 . S
C395 C392 1.388 . S
C395 C396 1.382 . S
C395 H420 0.950 . S
C396 N391 1.332 . S
C396 C395 1.382 . S
C396 H406 0.948 . S
N397 Co375 2.282 . S
N397 C401 1.332 . S
N397 C402 1.332 . S
C398 C399 1.388 . S
C398 C402 1.382 . S
C398 H421 0.950 . S
C399 C398 1.388 . S
C399 C400 1.386 . S
C400 C399 1.386 . S
C400 C401 1.382 . S
C400 H422 0.950 . S
C401 N397 1.332 . S
C401 C400 1.382 . S
C401 H403 0.952 . S
C402 N397 1.332 . S
C402 C398 1.382 . S
C402 H404 0.948 . S
H403 C401 0.952 . S
H404 C402 0.948 . S
H405 C394 0.952 . S
H406 C396 0.948 . S
C407 C373 1.395 . S
C407 C377 1.391 . S
C408 C370 1.389 . S
C408 C390 1.392 . S
C409 C380 1.392 . S
C409 C382 1.389 . S
C410 C385 1.395 . S
C410 C387 1.391 . S
H411 C371 0.951 . S
H412 C372 0.950 . S
H413 C378 0.949 . S
H414 C379 0.950 . S
H415 C383 0.951 . S
H416 C384 0.950 . S
H417 C388 0.949 . S
H418 C389 0.950 . S
H419 C393 0.950 . S
H420 C395 0.950 . S
H421 C398 0.950 . S
H422 C400 0.950 . S
H423 C429 0.930 . S
H424 C432 0.930 . S
H425 C433 0.930 . S
H426 C434 0.930 1_655 S
H427 C437 0.930 . S
H428 C438 0.930 . S
C429 H423 0.930 . S
C429 C430 1.355 . S
C429 C431 1.415 . S
C430 C429 1.355 . S
C430 C432 1.419 1_455 S
C431 C429 1.415 . S
C431 C436 1.425 . S
C431 C438 1.409 . S
C432 H424 0.930 . S
C432 C430 1.419 1_655 S
C432 C433 1.362 . S
C433 H425 0.930 . S
C433 C432 1.362 . S
C433 C436 1.409 1_655 S
C434 H426 0.930 1_455 S
C434 C435 1.355 . S
C434 C436 1.415 . S
C435 C434 1.355 . S
C435 C437 1.419 . S
C436 C431 1.425 . S
C436 C433 1.409 1_455 S
C436 C434 1.415 . S
C437 H427 0.930 . S
C437 C435 1.419 . S
C437 C438 1.362 . S
C438 H428 0.930 . S
C438 C431 1.409 . S
C438 C437 1.362 . S
H439 C445 0.930 . S
H440 C448 0.930 . S
H441 C449 0.930 . S
H442 C450 0.930 . S
H443 C453 0.930 . S
H444 C454 0.930 . S
C445 H439 0.930 . S
C445 C446 1.355 . S
C445 C447 1.415 . S
C446 C445 1.355 . S
C446 C448 1.419 1_545 S
C447 C445 1.415 . S
C447 C452 1.425 . S
C447 C454 1.409 . S
C448 H440 0.930 . S
C448 C446 1.419 1_565 S
C448 C449 1.362 . S
C449 H441 0.930 . S
C449 C448 1.362 . S
C449 C452 1.409 1_565 S
C450 H442 0.930 . S
C450 C451 1.355 . S
C450 C452 1.415 . S
C451 C450 1.355 . S
C451 C453 1.419 . S
C452 C447 1.425 . S
C452 C449 1.409 1_545 S
C452 C450 1.415 . S
C453 H443 0.930 . S
C453 C451 1.419 . S
C453 C454 1.362 . S
C454 H444 0.930 . S
C454 C447 1.409 . S
C454 C453 1.362 . S
H455 C461 0.930 . S
H456 C464 0.930 . S
H457 C465 0.930 . S
H458 C466 0.930 . S
H459 C469 0.930 . S
H460 C470 0.930 . S
C461 H455 0.930 . S
C461 C462 1.355 . S
C461 C463 1.415 . S
C462 C461 1.355 . S
C462 C464 1.419 . S
C463 C461 1.415 . S
C463 C468 1.425 . S
C463 C470 1.409 . S
C464 H456 0.930 . S
C464 C462 1.419 . S
C464 C465 1.362 . S
C465 H457 0.930 . S
C465 C464 1.362 . S
C465 C468 1.409 . S
C466 H458 0.930 . S
C466 C467 1.355 . S
C466 C468 1.415 . S
C467 C466 1.355 . S
C467 C469 1.419 . S
C468 C463 1.425 . S
C468 C465 1.409 . S
C468 C466 1.415 . S
C469 H459 0.930 . S
C469 C467 1.419 . S
C469 C470 1.362 . S
C470 H460 0.930 . S
C470 C463 1.409 . S
C470 C469 1.362 . S
H471 C477 0.930 . S
H472 C480 0.930 . S
H473 C481 0.930 . S
H474 C482 0.930 . S
H475 C485 0.930 . S
H476 C486 0.930 1_655 S
C477 H471 0.930 . S
C477 C478 1.355 . S
C477 C479 1.415 . S
C478 C477 1.355 . S
C478 C480 1.419 . S
C479 C477 1.415 . S
C479 C484 1.425 . S
C479 C486 1.409 . S
C480 H472 0.930 . S
C480 C478 1.419 . S
C480 C481 1.362 . S
C481 H473 0.930 . S
C481 C480 1.362 . S
C481 C484 1.409 . S
C482 H474 0.930 . S
C482 C483 1.355 . S
C482 C484 1.415 . S
C483 C482 1.355 . S
C483 C485 1.419 1_455 S
C484 C479 1.425 . S
C484 C481 1.409 . S
C484 C482 1.415 . S
C485 H475 0.930 . S
C485 C483 1.419 1_655 S
C485 C486 1.362 1_655 S
C486 H476 0.930 1_455 S
C486 C479 1.409 . S
C486 C485 1.362 1_455 S
H487 C493 0.930 . S
H488 C496 0.930 . S
H489 C497 0.930 . S
H490 C498 0.930 . S
H491 C501 0.930 . S
H492 C502 0.930 . S
C493 H487 0.930 . S
C493 C494 1.355 . S
C493 C495 1.415 . S
C494 C493 1.355 . S
C494 C496 1.419 . S
C495 C493 1.415 . S
C495 C500 1.425 . S
C495 C502 1.409 . S
C496 H488 0.930 . S
C496 C494 1.419 . S
C496 C497 1.362 . S
C497 H489 0.930 . S
C497 C496 1.362 . S
C497 C500 1.409 . S
C498 H490 0.930 . S
C498 C499 1.355 . S
C498 C500 1.415 . S
C499 C498 1.355 . S
C499 C501 1.419 . S
C500 C495 1.425 . S
C500 C497 1.409 . S
C500 C498 1.415 . S
C501 H491 0.930 . S
C501 C499 1.419 . S
C501 C502 1.362 . S
C502 H492 0.930 . S
C502 C495 1.409 . S
C502 C501 1.362 . S
H503 C509 0.930 . S
H504 C512 0.930 . S
H505 C513 0.930 . S
H506 C514 0.930 . S
H507 C517 0.930 . S
H508 C518 0.930 . S
C509 H503 0.930 . S
C509 C510 1.355 . S
C509 C511 1.415 . S
C510 C509 1.355 . S
C510 C512 1.419 . S
C511 C509 1.415 . S
C511 C516 1.425 . S
C511 C518 1.409 . S
C512 H504 0.930 . S
C512 C510 1.419 . S
C512 C513 1.362 . S
C513 H505 0.930 . S
C513 C512 1.362 . S
C513 C516 1.409 . S
C514 H506 0.930 . S
C514 C515 1.355 . S
C514 C516 1.415 . S
C515 C514 1.355 . S
C515 C517 1.419 . S
C516 C511 1.425 . S
C516 C513 1.409 . S
C516 C514 1.415 . S
C517 H507 0.930 . S
C517 C515 1.419 . S
C517 C518 1.362 . S
C518 H508 0.930 . S
C518 C511 1.409 . S
C518 C517 1.362 . S
H519 C525 0.930 . S
H520 C528 0.930 . S
H521 C529 0.930 . S
H522 C530 0.930 . S
H523 C533 0.930 1_565 S
H524 C534 0.930 1_565 S
C525 H519 0.930 . S
C525 C526 1.355 . S
C525 C527 1.415 . S
C526 C525 1.355 . S
C526 C528 1.419 . S
C527 C525 1.415 . S
C527 C532 1.425 . S
C527 C534 1.409 . S
C528 H520 0.930 . S
C528 C526 1.419 . S
C528 C529 1.362 . S
C529 H521 0.930 . S
C529 C528 1.362 . S
C529 C532 1.409 . S
C530 H522 0.930 . S
C530 C531 1.355 . S
C530 C532 1.415 . S
C531 C530 1.355 . S
C531 C533 1.419 . S
C532 C527 1.425 . S
C532 C529 1.409 . S
C532 C530 1.415 . S
C533 H523 0.930 1_545 S
C533 C531 1.419 . S
C533 C534 1.362 . S
C534 H524 0.930 1_545 S
C534 C527 1.409 . S
C534 C533 1.362 . S
H535 C541 0.930 . S
H536 C544 0.930 . S
H537 C545 0.930 . S
H538 C546 0.930 . S
H539 C549 0.930 . S
H540 C550 0.930 . S
C541 H535 0.930 . S
C541 C542 1.355 . S
C541 C543 1.415 . S
C542 C541 1.355 . S
C542 C544 1.419 . S
C543 C541 1.415 . S
C543 C548 1.425 . S
C543 C550 1.409 . S
C544 H536 0.930 . S
C544 C542 1.419 . S
C544 C545 1.362 . S
C545 H537 0.930 . S
C545 C544 1.362 . S
C545 C548 1.409 . S
C546 H538 0.930 . S
C546 C547 1.355 . S
C546 C548 1.415 . S
C547 C546 1.355 . S
C547 C549 1.419 . S
C548 C543 1.425 . S
C548 C545 1.409 . S
C548 C546 1.415 . S
C549 H539 0.930 . S
C549 C547 1.419 . S
C549 C550 1.362 . S
C550 H540 0.930 . S
C550 C543 1.409 . S
C550 C549 1.362 . S
H551 C557 0.930 . S
H552 C560 0.930 . S
H553 C561 0.930 . S
H554 C562 0.930 1_655 S
H555 C565 0.930 . S
H556 C566 0.930 . S
C557 H551 0.930 . S
C557 C558 1.355 1_455 S
C557 C559 1.415 . S
C558 C557 1.355 1_655 S
C558 C560 1.419 . S
C559 C557 1.415 . S
C559 C564 1.425 1_455 S
C559 C566 1.409 . S
C560 H552 0.930 . S
C560 C558 1.419 . S
C560 C561 1.362 . S
C561 H553 0.930 . S
C561 C560 1.362 . S
C561 C564 1.409 . S
C562 H554 0.930 1_455 S
C562 C563 1.355 . S
C562 C564 1.415 1_455 S
C563 C562 1.355 . S
C563 C565 1.419 . S
C564 C559 1.425 1_655 S
C564 C561 1.409 . S
C564 C562 1.415 1_655 S
C565 H555 0.930 . S
C565 C563 1.419 . S
C565 C566 1.362 . S
C566 H556 0.930 . S
C566 C559 1.409 . S
C566 C565 1.362 . S
H567 C573 0.930 . S
H568 C576 0.930 . S
H569 C577 0.930 . S
H570 C578 0.930 1_565 S
H571 C581 0.930 . S
H572 C582 0.930 . S
C573 H567 0.930 . S
C573 C574 1.369 . S
C573 C575 1.415 . S
C574 C573 1.369 . S
C574 C576 1.399 1_545 S
C575 C573 1.415 . S
C575 C580 1.425 . S
C575 C582 1.409 . S
C576 H568 0.930 . S
C576 C574 1.399 1_565 S
C576 C577 1.362 . S
C577 H569 0.930 . S
C577 C576 1.362 . S
C577 C580 1.409 1_565 S
C578 H570 0.930 1_545 S
C578 C579 1.355 . S
C578 C580 1.415 . S
C579 C578 1.355 . S
C579 C581 1.419 . S
C580 C575 1.425 . S
C580 C577 1.409 1_545 S
C580 C578 1.415 . S
C581 H571 0.930 . S
C581 C579 1.419 . S
C581 C582 1.362 . S
C582 H572 0.930 . S
C582 C575 1.409 . S
C582 C581 1.362 . S
H583 C589 0.930 . S
H584 C592 0.930 . S
H585 C593 0.930 . S
H586 C594 0.930 . S
H587 C597 0.930 . S
H588 C598 0.930 . S
C589 H583 0.930 . S
C589 C590 1.355 . S
C589 C591 1.415 . S
C590 C589 1.355 . S
C590 C592 1.419 . S
C591 C589 1.415 . S
C591 C596 1.425 . S
C591 C598 1.409 . S
C592 H584 0.930 . S
C592 C590 1.419 . S
C592 C593 1.362 . S
C593 H585 0.930 . S
C593 C592 1.362 . S
C593 C596 1.409 . S
C594 H586 0.930 . S
C594 C595 1.355 . S
C594 C596 1.415 . S
C595 C594 1.355 . S
C595 C597 1.419 . S
C596 C591 1.425 . S
C596 C593 1.409 . S
C596 C594 1.415 . S
C597 H587 0.930 . S
C597 C595 1.419 . S
C597 C598 1.362 . S
C598 H588 0.930 . S
C598 C591 1.409 . S
C598 C597 1.362 . S
H599 C605 0.930 . S
H600 C608 0.930 . S
H601 C609 0.930 1_655 S
H602 C610 0.930 1_655 S
H603 C613 0.930 . S
H604 C614 0.930 . S
C605 H599 0.930 . S
C605 C606 1.355 . S
C605 C607 1.415 . S
C606 C605 1.355 . S
C606 C608 1.419 . S
C607 C605 1.415 . S
C607 C612 1.425 . S
C607 C614 1.409 . S
C608 H600 0.930 . S
C608 C606 1.419 . S
C608 C609 1.362 . S
C609 H601 0.930 1_455 S
C609 C608 1.362 . S
C609 C612 1.409 . S
C610 H602 0.930 1_455 S
C610 C611 1.355 . S
C610 C612 1.415 . S
C611 C610 1.355 . S
C611 C613 1.419 . S
C612 C607 1.425 . S
C612 C609 1.409 . S
C612 C610 1.415 . S
C613 H603 0.930 . S
C613 C611 1.419 . S
C613 C614 1.362 . S
C614 H604 0.930 . S
C614 C607 1.409 . S
C614 C613 1.362 . S
C435 C286 1.473 . S
C430 C29 1.465 . S
C446 C137 1.512 . S
C451 C356 1.525 . S
C462 C225 1.472 . S
C467 C408 1.502 . S
C478 C49 1.538 . S
C483 C302 1.549 . S
C499 C346 1.485 . S
C494 C117 1.473 . S
C510 C205 1.434 . S
C515 C392 1.464 . S
C531 C339 1.469 . S
C526 C233 1.467 . S
C542 C57 1.474 . S
C547 C399 1.481 . S
C563 C293 1.466 . S
C558 C108 1.452 . S
C579 C355 1.551 . S
C574 C196 1.554 1_545 S
C595 C409 1.516 . S
C590 C20 1.489 . S
C606 C145 1.480 . S
C611 C303 1.515 . S
