# Generated by pormake.
# Topology pyr, (3,6)-cn, num edge types: 1
# Building blocks:
#     Node 0, Type 0, BuildingBlock: OLANEW_clean_sbu_2, # of connection points: 3
#     Node 1, Type 0, BuildingBlock: OLANEW_clean_sbu_2, # of connection points: 3
#     Node 2, Type 0, BuildingBlock: OLANEW_clean_sbu_2, # of connection points: 3
#     Node 3, Type 0, BuildingBlock: OLANEW_clean_sbu_2, # of connection points: 3
#     Node 4, Type 0, BuildingBlock: OLANEW_clean_sbu_2, # of connection points: 3
#     Node 5, Type 0, BuildingBlock: OLANEW_clean_sbu_2, # of connection points: 3
#     Node 6, Type 0, BuildingBlock: OLANEW_clean_sbu_2, # of connection points: 3
#     Node 7, Type 0, BuildingBlock: OLANEW_clean_sbu_2, # of connection points: 3
#     Node 8, Type 1, BuildingBlock: PAMTOO_clean_sbu_0, # of connection points: 6
#     Node 9, Type 1, BuildingBlock: PAMTOO_clean_sbu_0, # of connection points: 6
#     Node 10, Type 1, BuildingBlock: PAMTOO_clean_sbu_0, # of connection points: 6
#     Node 11, Type 1, BuildingBlock: PAMTOO_clean_sbu_0, # of connection points: 6
#     Edge 12, Type (0, 1), BuildingBlock: ZUJKAS_clean_linker_0, # of connection points: 2
#     Edge 13, Type (0, 1), BuildingBlock: ZUJKAS_clean_linker_0, # of connection points: 2
#     Edge 14, Type (0, 1), BuildingBlock: ZUJKAS_clean_linker_0, # of connection points: 2
#     Edge 15, Type (0, 1), BuildingBlock: ZUJKAS_clean_linker_0, # of connection points: 2
#     Edge 16, Type (0, 1), BuildingBlock: ZUJKAS_clean_linker_0, # of connection points: 2
#     Edge 17, Type (0, 1), BuildingBlock: ZUJKAS_clean_linker_0, # of connection points: 2
#     Edge 18, Type (0, 1), BuildingBlock: ZUJKAS_clean_linker_0, # of connection points: 2
#     Edge 19, Type (0, 1), BuildingBlock: ZUJKAS_clean_linker_0, # of connection points: 2
#     Edge 20, Type (0, 1), BuildingBlock: ZUJKAS_clean_linker_0, # of connection points: 2
#     Edge 21, Type (0, 1), BuildingBlock: ZUJKAS_clean_linker_0, # of connection points: 2
#     Edge 22, Type (0, 1), BuildingBlock: ZUJKAS_clean_linker_0, # of connection points: 2
#     Edge 23, Type (0, 1), BuildingBlock: ZUJKAS_clean_linker_0, # of connection points: 2
#     Edge 24, Type (0, 1), BuildingBlock: ZUJKAS_clean_linker_0, # of connection points: 2
#     Edge 25, Type (0, 1), BuildingBlock: ZUJKAS_clean_linker_0, # of connection points: 2
#     Edge 26, Type (0, 1), BuildingBlock: ZUJKAS_clean_linker_0, # of connection points: 2
#     Edge 27, Type (0, 1), BuildingBlock: ZUJKAS_clean_linker_0, # of connection points: 2
#     Edge 28, Type (0, 1), BuildingBlock: ZUJKAS_clean_linker_0, # of connection points: 2
#     Edge 29, Type (0, 1), BuildingBlock: ZUJKAS_clean_linker_0, # of connection points: 2
#     Edge 30, Type (0, 1), BuildingBlock: ZUJKAS_clean_linker_0, # of connection points: 2
#     Edge 31, Type (0, 1), BuildingBlock: ZUJKAS_clean_linker_0, # of connection points: 2
#     Edge 32, Type (0, 1), BuildingBlock: ZUJKAS_clean_linker_0, # of connection points: 2
#     Edge 33, Type (0, 1), BuildingBlock: ZUJKAS_clean_linker_0, # of connection points: 2
#     Edge 34, Type (0, 1), BuildingBlock: ZUJKAS_clean_linker_0, # of connection points: 2
#     Edge 35, Type (0, 1), BuildingBlock: ZUJKAS_clean_linker_0, # of connection points: 2
# Relax obj value: 0.097
# Max RMSD: 0.205
# Mean RMSD: 0.126
data_MOF--net-pyr--node1-OLANEW_clean_sbu_2--node2-PAMTOO_clean_sbu_0--edge1-ZUJKAS_clean_linker_0
_symmetry_space_group_name_H-M    P1
_symmetry_Int_Tables_number       1
_symmetry_cell_setting            triclinic
loop_
_symmetry_equiv_pos_as_xyz
'x, y, z'
_cell_length_a     50.063086
_cell_length_b     54.072453
_cell_length_c     53.630024
_cell_angle_alpha  93.741388
_cell_angle_beta   89.212624
_cell_angle_gamma 105.40024
loop_
_atom_site_label
_atom_site_type_symbol
_atom_site_fract_x
_atom_site_fract_y
_atom_site_fract_z
_atom_type_partial_charge
O0 O 0.36603 0.27982 0.15398 0.0
Cd1 Cd 0.35069 0.31796 0.16787 0.0
O2 O 0.341 0.26074 0.18434 0.0
Cd3 Cd 0.32096 0.23068 0.20908 0.0
O4 O 0.29738 0.20692 0.23747 0.0
C5 C 0.2935 0.2178 0.25843 0.0
O6 O 0.30413 0.24271 0.26227 0.0
C7 C 0.35804 0.26012 0.16662 0.0
C8 C 0.30219 0.32405 0.1469 0.0
O9 O 0.32597 0.33397 0.13741 0.0
O10 O 0.30125 0.31047 0.16579 0.0
O11 O 0.22805 0.78544 0.76532 0.0
Cd12 Cd 0.20652 0.772 0.72433 0.0
O13 O 0.19156 0.7924 0.78486 0.0
Cd14 Cd 0.1672 0.7874 0.75059 0.0
O15 O 0.14468 0.80054 0.72187 0.0
C16 C 0.15819 0.81888 0.70928 0.0
O17 O 0.18499 0.82784 0.71316 0.0
C18 C 0.21668 0.79153 0.78528 0.0
C19 C 0.24252 0.75005 0.69608 0.0
O20 O 0.24386 0.774 0.69541 0.0
O21 O 0.22356 0.73635 0.70946 0.0
O22 O 0.69138 0.39447 0.85645 0.0
Cd23 Cd 0.64708 0.37632 0.83372 0.0
O24 O 0.68884 0.36348 0.88231 0.0
Cd25 Cd 0.64919 0.33418 0.87627 0.0
O26 O 0.62383 0.29854 0.89169 0.0
C27 C 0.63692 0.28721 0.90531 0.0
O28 O 0.66373 0.29708 0.90839 0.0
C29 C 0.70174 0.38491 0.8739 0.0
C30 C 0.63711 0.40275 0.79245 0.0
O31 O 0.63008 0.40869 0.81466 0.0
O32 O 0.64948 0.38481 0.78974 0.0
O33 O 0.8911 0.71119 0.35056 0.0
Cd34 Cd 0.86671 0.66747 0.3344 0.0
O35 O 0.90929 0.69737 0.38222 0.0
Cd36 Cd 0.88319 0.65822 0.37654 0.0
O37 O 0.84477 0.63776 0.39401 0.0
C38 C 0.83283 0.65277 0.40615 0.0
O39 O 0.84406 0.67768 0.40621 0.0
C40 C 0.90667 0.71585 0.36981 0.0
C41 C 0.88815 0.64821 0.29103 0.0
O42 O 0.87024 0.66119 0.28978 0.0
O43 O 0.89649 0.64491 0.31276 0.0
O44 O 0.71563 0.75399 0.80734 0.0
Cd45 Cd 0.69179 0.7243 0.83789 0.0
O46 O 0.69975 0.78438 0.82585 0.0
Cd47 Cd 0.694 0.82249 0.83617 0.0
O48 O 0.67922 0.85088 0.85948 0.0
C49 C 0.65511 0.85356 0.85593 0.0
O50 O 0.64009 0.84013 0.8373 0.0
C51 C 0.71436 0.7772 0.80869 0.0
C52 C 0.73053 0.7065 0.86321 0.0
O53 O 0.71868 0.69445 0.84325 0.0
O54 O 0.72369 0.72675 0.87143 0.0
O55 O 0.82952 0.24193 0.34958 0.0
Cd56 Cd 0.85214 0.25894 0.38948 0.0
O57 O 0.82949 0.27945 0.33601 0.0
Cd58 Cd 0.8383 0.29986 0.37265 0.0
O59 O 0.81746 0.32061 0.39936 0.0
C60 C 0.79367 0.30821 0.40662 0.0
O61 O 0.78457 0.28372 0.39943 0.0
C62 C 0.82487 0.25523 0.33226 0.0
C63 C 0.87711 0.22302 0.40723 0.0
O64 O 0.85241 0.22324 0.41364 0.0
O65 O 0.89021 0.24009 0.39277 0.0
O66 O 0.41529 0.73377 0.23959 0.0
Cd67 Cd 0.39483 0.6912 0.25677 0.0
O68 O 0.38624 0.7233 0.20763 0.0
Cd69 Cd 0.36028 0.68498 0.21462 0.0
O70 O 0.32285 0.65832 0.19803 0.0
C71 C 0.31634 0.66428 0.1768 0.0
O72 O 0.33238 0.68469 0.16708 0.0
C73 C 0.40617 0.73938 0.21916 0.0
C74 C 0.41808 0.67506 0.29856 0.0
O75 O 0.42612 0.67074 0.27627 0.0
O76 O 0.40007 0.68803 0.30125 0.0
O77 O 0.16257 0.39803 0.76052 0.0
Cd78 Cd 0.17547 0.37676 0.72221 0.0
O79 O 0.13602 0.36151 0.77274 0.0
Cd80 Cd 0.14253 0.33712 0.74033 0.0
O81 O 0.13569 0.30376 0.71352 0.0
C82 C 0.11987 0.28293 0.72067 0.0
O83 O 0.10937 0.28283 0.74327 0.0
C84 C 0.14622 0.38564 0.77653 0.0
C85 C 0.22162 0.40601 0.69769 0.0
O86 O 0.19711 0.40734 0.69261 0.0
O87 O 0.22432 0.39117 0.71463 0.0
Dy88 Dy 0.03692 0.00863 0.52292 0.0
Dy89 Dy 0.97976 0.9971 0.55701 0.0
C90 C 0.02964 0.04829 0.56648 0.0
O91 O 0.04578 0.99213 0.55813 0.0
O92 O 0.00195 0.96866 0.5676 0.0
O93 O 0.08117 0.02414 0.51952 0.0
O94 O 0.05707 1.0023 0.48821 0.0
O95 O 0.97022 0.96874 0.52377 0.0
O96 O 0.01474 0.96748 0.51501 0.0
O97 O 0.97799 0.02922 0.53374 0.0
O98 O 0.00675 0.02314 0.50148 0.0
O99 O 0.93514 0.98802 0.56071 0.0
O100 O 0.96145 0.99704 0.59363 0.0
C101 C 0.02897 0.97334 0.56958 0.0
O102 O 0.0381 0.04599 0.54342 0.0
O103 O 0.01187 0.02918 0.57663 0.0
C104 C 0.09738 0.03402 0.47879 0.0
C105 C 0.12739 0.06701 0.44366 0.0
C106 C 0.1072 0.07442 0.45869 0.0
C107 C 0.09218 0.05796 0.47609 0.0
C108 C 0.11767 0.02674 0.46411 0.0
C109 C 0.13255 0.04306 0.4467 0.0
C110 C 0.08138 0.01589 0.49612 0.0
C111 C 0.98794 0.95772 0.51245 0.0
C112 C 0.98737 0.03324 0.51098 0.0
C113 C 0.916 0.97133 0.59882 0.0
C114 C 0.87863 0.93651 0.62817 0.0
C115 C 0.89644 0.92781 0.6112 0.0
C116 C 0.91505 0.94513 0.59664 0.0
C117 C 0.89815 0.98 0.61543 0.0
C118 C 0.8797 0.96283 0.62999 0.0
C119 C 0.93616 0.9904 0.58506 0.0
H120 H 0.10265 0.09268 0.45664 0.0
H121 H 0.07639 0.06376 0.48723 0.0
H122 H 0.12189 0.0083 0.46599 0.0
H123 H 0.14824 0.03697 0.43568 0.0
H124 H 0.896 0.90765 0.60916 0.0
H125 H 0.92883 0.93816 0.58394 0.0
H126 H 0.89883 1.00024 0.61749 0.0
H127 H 0.86678 0.97035 0.64316 0.0
Dy128 Dy 0.47463 0.01252 0.05597 0.0
Dy129 Dy 0.53353 0.02999 0.08704 0.0
C130 C 0.48792 0.97791 0.09708 0.0
O131 O 0.46767 0.0335 0.09171 0.0
O132 O 0.51125 0.05992 0.09748 0.0
O133 O 0.43053 0.995 0.05631 0.0
O134 O 0.45027 0.01185 0.02293 0.0
O135 O 0.54015 0.05487 0.05459 0.0
O136 O 0.49486 0.05263 0.04536 0.0
O137 O 0.5368 0.99701 0.06087 0.0
O138 O 0.50476 0.99893 0.03131 0.0
O139 O 0.57833 0.03919 0.0886 0.0
O140 O 0.55425 0.0377 0.12272 0.0
C141 C 0.48439 0.05507 0.10086 0.0
O142 O 0.47811 0.97753 0.07444 0.0
O143 O 0.5046 0.99893 0.1074 0.0
C144 C 0.41107 0.97667 0.01743 0.0
C145 C 0.37988 0.93556 0.98617 0.0
C146 C 0.40396 0.9335 0.99819 0.0
C147 C 0.41947 0.95394 0.01371 0.0
C148 C 0.38704 0.97873 0.00573 0.0
C149 C 0.37158 0.9584 0.99022 0.0
C150 C 0.42742 0.99871 0.03286 0.0
C151 C 0.52157 0.06344 0.04326 0.0
C152 C 0.52623 0.99137 0.03825 0.0
C153 C 0.59937 0.06615 0.12347 0.0
C154 C 0.63924 0.10709 0.14783 0.0
C155 C 0.6474 0.08758 0.13363 0.0
C156 C 0.62761 0.06726 0.12164 0.0
C157 C 0.59118 0.08616 0.13676 0.0
C158 C 0.61096 0.10642 0.14892 0.0
C159 C 0.57894 0.04313 0.11286 0.0
H160 H 0.4108 0.91611 0.99561 0.0
H161 H 0.43808 0.95211 0.02265 0.0
H162 H 0.38041 0.99625 0.00832 0.0
H163 H 0.35348 0.96086 0.9809 0.0
H164 H 0.66898 0.08744 0.13266 0.0
H165 H 0.63432 0.05197 0.11152 0.0
H166 H 0.56949 0.08583 0.13829 0.0
H167 H 0.60413 0.12136 0.1595 0.0
Dy168 Dy 0.51874 0.50922 0.52961 0.0
Dy169 Dy 0.52458 0.56285 0.56439 0.0
C170 C 0.54498 0.51632 0.58415 0.0
O171 O 0.48221 0.50191 0.55506 0.0
O172 O 0.47935 0.54331 0.56225 0.0
O173 O 0.5112 0.46791 0.52669 0.0
O174 O 0.52076 0.48939 0.49362 0.0
O175 O 0.51579 0.5712 0.52548 0.0
O176 O 0.49372 0.53064 0.50949 0.0
O177 O 0.56798 0.56402 0.55283 0.0
O178 O 0.55695 0.53728 0.51737 0.0
O179 O 0.53583 0.60435 0.56932 0.0
O180 O 0.5187 0.58136 0.60014 0.0
C181 C 0.46844 0.51845 0.5629 0.0
O182 O 0.54774 0.50839 0.56083 0.0
O183 O 0.53172 0.53388 0.58969 0.0
C184 C 0.54042 0.45496 0.49703 0.0
C185 C 0.58366 0.43186 0.48504 0.0
C186 C 0.58836 0.45405 0.50136 0.0
C187 C 0.56696 0.46551 0.50725 0.0
C188 C 0.53549 0.43283 0.48084 0.0
C189 C 0.55694 0.42134 0.47488 0.0
C190 C 0.51816 0.46733 0.50319 0.0
C191 C 0.50006 0.55579 0.50837 0.0
C192 C 0.57485 0.55485 0.53109 0.0
C193 C 0.50519 0.61911 0.59646 0.0
C194 C 0.46362 0.64428 0.60823 0.0
C195 C 0.46032 0.62602 0.58781 0.0
C196 C 0.4809 0.61349 0.58202 0.0
C197 C 0.50889 0.63767 0.61647 0.0
C198 C 0.48828 0.65019 0.62232 0.0
C199 C 0.52561 0.60429 0.59182 0.0
H200 H 0.60853 0.46245 0.50981 0.0
H201 H 0.57111 0.48263 0.51981 0.0
H202 H 0.51513 0.42453 0.47271 0.0
H203 H 0.55271 0.40447 0.46201 0.0
H204 H 0.44145 0.6208 0.5768 0.0
H205 H 0.4776 0.59897 0.56663 0.0
H206 H 0.52747 0.64212 0.62786 0.0
H207 H 0.49156 0.66436 0.63798 0.0
Dy208 Dy 0.01226 0.54639 0.01344 0.0
Dy209 Dy 0.00646 0.49212 0.04067 0.0
C210 C 0.98317 0.53635 0.06699 0.0
O211 O 0.05485 0.54938 0.0276 0.0
O212 O 0.04257 0.52114 0.05856 0.0
O213 O 0.01888 0.58766 0.01522 0.0
O214 O 0.012 0.56585 0.97962 0.0
O215 O 0.03881 0.49397 0.01127 0.0
O216 O 0.02289 0.5185 0.98504 0.0
O217 O 0.97197 0.48417 0.01255 0.0
O218 O 0.96764 0.52506 0.00981 0.0
O219 O 0.99941 0.45089 0.03762 0.0
O220 O 0.00771 0.47162 0.07381 0.0
C221 C 0.06055 0.54002 0.04829 0.0
O222 O 0.99983 0.55275 0.05297 0.0
O223 O 0.97812 0.51139 0.06207 0.0
C224 C 0.99264 0.60065 0.98505 0.0
C225 C 0.9508 0.62229 0.96941 0.0
C226 C 0.94444 0.60161 0.98504 0.0
C227 C 0.96518 0.59088 0.99277 0.0
C228 C 0.99925 0.62154 0.96989 0.0
C229 C 0.9785 0.63232 0.96215 0.0
C230 C 0.01396 0.58804 0.99148 0.0
C231 C 0.0374 0.50219 0.98899 0.0
C232 C 0.95801 0.50009 0.00573 0.0
C233 C 0.02705 0.43664 0.06592 0.0
C234 C 0.06949 0.41331 0.07672 0.0
C235 C 0.06991 0.42579 0.05443 0.0
C236 C 0.04902 0.43746 0.04916 0.0
C237 C 0.02632 0.42401 0.08802 0.0
C238 C 0.04734 0.41248 0.09341 0.0
C239 C 0.00555 0.44982 0.06102 0.0
H240 H 0.92329 0.59319 0.99069 0.0
H241 H 0.95971 0.57461 1.00435 0.0
H242 H 0.02036 0.62924 0.96373 0.0
H243 H 0.98412 0.64842 0.95037 0.0
H244 H 0.08636 0.42651 0.04095 0.0
H245 H 0.05017 0.44725 0.03204 0.0
H246 H 0.00968 0.42339 0.1013 0.0
H247 H 0.04652 0.40342 0.11093 0.0
H248 H 0.2821 0.23524 0.30532 0.0
H249 H 0.25416 0.2105 0.33759 0.0
H250 H 0.23871 0.14199 0.28819 0.0
H251 H 0.26689 0.16645 0.25591 0.0
H252 H 0.19837 0.18251 0.33524 0.0
H253 H 0.26669 0.1195 0.35207 0.0
H254 H 0.27815 0.14837 0.33539 0.0
H255 H 0.25719 0.11936 0.31989 0.0
C256 C 0.27289 0.21488 0.30134 0.0
C257 C 0.27684 0.20279 0.27807 0.0
C258 C 0.2569 0.2008 0.3198 0.0
C259 C 0.24471 0.17437 0.31539 0.0
C260 C 0.24841 0.16228 0.29214 0.0
H261 H 0.13917 0.05316 0.3958 0.0
H262 H 0.16699 0.08038 0.36515 0.0
C263 C 0.26442 0.17632 0.27368 0.0
C264 C 0.22756 0.15956 0.33491 0.0
H265 H 0.22204 0.10844 0.37056 0.0
C266 C 0.20359 0.16641 0.34312 0.0
C267 C 0.23452 0.13863 0.34514 0.0
C268 C 0.26067 0.13112 0.33788 0.0
C269 C 0.18592 0.15238 0.3608 0.0
C270 C 0.1927 0.13124 0.37078 0.0
C271 C 0.21686 0.12461 0.36279 0.0
C272 C 0.1748 0.1153 0.38916 0.0
C273 C 0.15976 0.15984 0.36811 0.0
C274 C 0.16993 0.12595 0.41282 0.0
C275 C 0.15401 0.11041 0.43041 0.0
C276 C 0.14298 0.08392 0.42469 0.0
C277 C 0.14769 0.07343 0.40087 0.0
C278 C 0.16349 0.08896 0.38332 0.0
H279 H 0.15426 0.17231 0.35446 0.0
H280 H 0.14209 0.14254 0.36963 0.0
H281 H 0.16286 0.17066 0.38661 0.0
H282 H 0.17893 0.14615 0.41787 0.0
H283 H 0.15101 0.11897 0.4487 0.0
H284 H 0.27078 0.79198 0.79261 0.0
H285 H 0.29953 0.8093 0.82943 0.0
H286 H 0.22939 0.82671 0.86703 0.0
H287 H 0.20035 0.80915 0.83045 0.0
H288 H 0.3095 0.85976 0.8475 0.0
H289 H 0.26304 0.79476 0.92144 0.0
H290 H 0.25628 0.78603 0.88859 0.0
H291 H 0.23825 0.8066 0.9053 0.0
C292 C 0.2613 0.79907 0.80886 0.0
C293 C 0.23326 0.79928 0.80853 0.0
C294 C 0.27778 0.80893 0.82989 0.0
C295 C 0.26653 0.81903 0.85105 0.0
C296 C 0.23835 0.81851 0.85111 0.0
H297 H 0.32355 0.91792 0.98107 0.0
H298 H 0.29765 0.88728 0.94878 0.0
C299 C 0.22183 0.80862 0.83009 0.0
C300 C 0.28484 0.83261 0.8719 0.0
H301 H 0.29359 0.8354 0.93515 0.0
C302 C 0.30631 0.85422 0.86663 0.0
C303 C 0.28049 0.8254 0.89681 0.0
C304 C 0.25843 0.80178 0.9034 0.0
C305 C 0.32289 0.86945 0.88571 0.0
C306 C 0.31823 0.86254 0.91071 0.0
C307 C 0.29714 0.84059 0.91595 0.0
C308 C 0.33392 0.87886 0.93172 0.0
C309 C 0.34442 0.89345 0.87903 0.0
C310 C 0.36282 0.88368 0.93328 0.0
C311 C 0.37774 0.90145 0.95152 0.0
C312 C 0.36395 0.91456 0.96864 0.0
C313 C 0.33484 0.90857 0.96784 0.0
C314 C 0.31998 0.8909 0.94955 0.0
H315 H 0.3411 0.89903 0.85998 0.0
H316 H 0.34426 0.90981 0.89261 0.0
H317 H 0.36526 0.88995 0.87956 0.0
H318 H 0.37391 0.87422 0.91994 0.0
H319 H 0.40013 0.90566 0.95154 0.0
H320 H 0.64712 0.39284 0.74285 0.0
H321 H 0.63422 0.41287 0.70682 0.0
H322 H 0.59823 0.46127 0.75622 0.0
H323 H 0.61127 0.44156 0.79232 0.0
H324 H 0.58149 0.41386 0.69191 0.0
H325 H 0.64733 0.51308 0.71165 0.0
H326 H 0.65253 0.48594 0.72694 0.0
H327 H 0.62564 0.50056 0.73732 0.0
C328 C 0.63669 0.40792 0.7461 0.0
C329 C 0.63037 0.41564 0.77056 0.0
C330 C 0.62927 0.41932 0.72544 0.0
C331 C 0.61557 0.43885 0.72876 0.0
C332 C 0.60929 0.44664 0.75315 0.0
H333 H 0.54199 0.52725 0.63457 0.0
H334 H 0.55971 0.50797 0.66849 0.0
C335 C 0.61665 0.43523 0.77381 0.0
C336 C 0.60688 0.45036 0.70671 0.0
H337 H 0.61291 0.50735 0.68005 0.0
C338 C 0.58854 0.43427 0.6892 0.0
C339 C 0.61603 0.47701 0.70315 0.0
C340 C 0.63667 0.49515 0.72061 0.0
C341 C 0.57848 0.44417 0.6687 0.0
C342 C 0.5874 0.47087 0.66528 0.0
C343 C 0.60601 0.4869 0.68264 0.0
C344 C 0.57706 0.48268 0.64428 0.0
C345 C 0.55764 0.42603 0.65138 0.0
C346 C 0.58122 0.47522 0.61922 0.0
C347 C 0.571 0.48619 0.59968 0.0
C348 C 0.55657 0.50503 0.60475 0.0
C349 C 0.55292 0.51278 0.62987 0.0
C350 C 0.56309 0.50178 0.64935 0.0
H351 H 0.54772 0.40773 0.66004 0.0
H352 H 0.54119 0.43497 0.64594 0.0
H353 H 0.56831 0.42135 0.63415 0.0
H354 H 0.59246 0.46095 0.61476 0.0
H355 H 0.57438 0.47985 0.5806 0.0
H356 H 0.87459 0.65205 0.2424 0.0
H357 H 0.88982 0.63162 0.2048 0.0
H358 H 0.93914 0.59736 0.25004 0.0
H359 H 0.92435 0.61803 0.28774 0.0
H360 H 0.96724 0.61857 0.20896 0.0
H361 H 0.8639 0.5559 0.18096 0.0
H362 H 0.86485 0.58933 0.18518 0.0
H363 H 0.87069 0.57243 0.21149 0.0
C364 C 0.8887 0.64019 0.24438 0.0
C365 C 0.89816 0.63661 0.26812 0.0
C366 C 0.89721 0.62835 0.22286 0.0
C367 C 0.91518 0.61253 0.22463 0.0
C368 C 0.92509 0.60932 0.24824 0.0
H369 H 0.95294 0.50947 0.10448 0.0
H370 H 0.9363 0.5272 0.14308 0.0
C371 C 0.91663 0.62118 0.26978 0.0
C372 C 0.92417 0.59981 0.20183 0.0
H373 H 0.90009 0.55867 0.15106 0.0
C374 C 0.95257 0.60538 0.19637 0.0
C375 C 0.90505 0.58228 0.1856 0.0
C376 C 0.87444 0.57439 0.19117 0.0
C377 C 0.96231 0.59443 0.17482 0.0
C378 C 0.9431 0.57778 0.15802 0.0
C379 C 0.91476 0.57165 0.16381 0.0
C380 C 0.95208 0.5669 0.1342 0.0
C381 C 0.99314 0.60061 0.17035 0.0
C382 C 0.9658 0.58328 0.11613 0.0
C383 C 0.97533 0.57326 0.09414 0.0
C384 C 0.97118 0.54657 0.08961 0.0
C385 C 0.95656 0.5301 0.10737 0.0
C386 C 0.94705 0.5402 0.12945 0.0
H387 H 0.00508 0.60754 0.18791 0.0
H388 H 0.99923 0.58352 0.16213 0.0
H389 H 0.99905 0.61604 0.15708 0.0
H390 H 0.96932 0.60391 0.11912 0.0
H391 H 0.98623 0.58655 0.08081 0.0
H392 H 0.36358 0.2237 0.19824 0.0
H393 H 0.38365 0.18772 0.18894 0.0
H394 H 0.40109 0.21111 0.11376 0.0
H395 H 0.37944 0.2463 0.12253 0.0
H396 H 0.38106 0.15997 0.11411 0.0
H397 H 0.46524 0.19306 0.18437 0.0
H398 H 0.43134 0.18829 0.19772 0.0
H399 H 0.44332 0.21289 0.17603 0.0
C400 C 0.37077 0.22075 0.17949 0.0
C401 C 0.36919 0.23755 0.16096 0.0
C402 C 0.38292 0.20048 0.17437 0.0
C403 C 0.39433 0.19693 0.15077 0.0
C404 C 0.39252 0.2135 0.13214 0.0
H405 H 0.50966 0.10636 0.10981 0.0
H406 H 0.48758 0.14036 0.12299 0.0
C407 C 0.38017 0.23363 0.1372 0.0
C408 C 0.40805 0.17592 0.14536 0.0
H409 H 0.46019 0.15148 0.16444 0.0
C410 C 0.39838 0.15814 0.12511 0.0
C411 C 0.43097 0.17376 0.15946 0.0
C412 C 0.44354 0.19316 0.18044 0.0
C413 C 0.41078 0.13817 0.11867 0.0
C414 C 0.43302 0.13543 0.13333 0.0
C415 C 0.4429 0.15336 0.15343 0.0
C416 C 0.44683 0.11457 0.12754 0.0
C417 C 0.40037 0.12064 0.09578 0.0
C418 C 0.43153 0.08868 0.12662 0.0
C419 C 0.44403 0.06924 0.11891 0.0
C420 C 0.47223 0.07525 0.11236 0.0
C421 C 0.48791 0.10106 0.11474 0.0
C422 C 0.4753 0.12054 0.12222 0.0
H423 H 0.38897 0.12957 0.08292 0.0
H424 H 0.41771 0.11561 0.08535 0.0
H425 H 0.38588 0.10263 0.10161 0.0
H426 H 0.40974 0.08354 0.13135 0.0
H427 H 0.43142 0.04953 0.11754 0.0
H428 H 0.1024 0.80822 0.70023 0.0
H429 H 0.07853 0.83172 0.6747 0.0
H430 H 0.15713 0.88217 0.65508 0.0
H431 H 0.18117 0.85873 0.68028 0.0
H432 H 0.08106 0.88411 0.6819 0.0
H433 H 0.11805 0.86156 0.58738 0.0
H434 H 0.12067 0.84326 0.6138 0.0
H435 H 0.14541 0.87364 0.60986 0.0
C436 C 0.11464 0.82409 0.69021 0.0
C437 C 0.14371 0.83159 0.69228 0.0
C438 C 0.10095 0.83752 0.67567 0.0
C439 C 0.11608 0.85849 0.66279 0.0
C440 C 0.14509 0.86574 0.66449 0.0
H441 H 0.08372 0.97731 0.57822 0.0
H442 H 0.10336 0.94881 0.60134 0.0
C443 C 0.15878 0.85238 0.67902 0.0
C444 C 0.10157 0.87384 0.64882 0.0
H445 H 0.09637 0.89592 0.59137 0.0
C446 C 0.08413 0.8865 0.66205 0.0
C447 C 0.10572 0.87694 0.62295 0.0
C448 C 0.12327 0.86295 0.60758 0.0
C449 C 0.07144 0.90289 0.65027 0.0
C450 C 0.07597 0.90632 0.62449 0.0
C451 C 0.09303 0.89332 0.61117 0.0
C452 C 0.06372 0.92378 0.61104 0.0
C453 C 0.05406 0.91704 0.66568 0.0
C454 C 0.03489 0.91908 0.60878 0.0
C455 C 0.02354 0.9354 0.59564 0.0
C456 C 0.04087 0.95661 0.58436 0.0
C457 C 0.06975 0.96121 0.5867 0.0
C458 C 0.08105 0.94491 0.59986 0.0
H459 H 0.05802 0.91707 0.68602 0.0
H460 H 0.05817 0.93725 0.66047 0.0
H461 H 0.03181 0.90748 0.66215 0.0
H462 H 0.02116 0.9026 0.61689 0.0
H463 H 1.00122 0.93117 0.59408 0.0
H464 H 0.73328 0.36615 0.90497 0.0
H465 H 0.77721 0.38867 0.925 0.0
H466 H 0.77647 0.45743 0.88897 0.0
H467 H 0.73222 0.43492 0.86857 0.0
H468 H 0.82926 0.41582 0.89982 0.0
H469 H 0.78611 0.47821 0.96682 0.0
H470 H 0.76468 0.44884 0.95192 0.0
H471 H 0.77679 0.47671 0.93432 0.0
C472 C 0.74236 0.38606 0.9012 0.0
C473 C 0.72906 0.39873 0.88518 0.0
C474 C 0.76755 0.39889 0.91268 0.0
C475 C 0.77996 0.42475 0.90867 0.0
C476 C 0.76706 0.4375 0.8925 0.0
H477 H 0.92725 0.52691 0.98233 0.0
H478 H 0.88485 0.50959 0.95774 0.0
C479 C 0.74185 0.42458 0.88077 0.0
C480 C 0.80643 0.43808 0.92156 0.0
H481 H 0.83379 0.48162 0.9697 0.0
C482 C 0.83034 0.43033 0.915 0.0
C483 C 0.80777 0.45707 0.94126 0.0
C484 C 0.78252 0.46574 0.94923 0.0
C485 C 0.85556 0.44094 0.92771 0.0
C486 C 0.85671 0.45927 0.94808 0.0
C487 C 0.83291 0.46747 0.95423 0.0
C488 C 0.88225 0.46978 0.96349 0.0
C489 C 0.88078 0.43261 0.91893 0.0
C490 C 0.89464 0.45326 0.97546 0.0
C491 C 0.91901 0.46308 0.98942 0.0
C492 C 0.93133 0.48972 0.99206 0.0
C493 C 0.91839 0.50629 0.98071 0.0
C494 C 0.89412 0.49642 0.9666 0.0
H495 H 0.87875 0.42525 0.89902 0.0
H496 H 0.89989 0.4487 0.9211 0.0
H497 H 0.88314 0.41682 0.9302 0.0
H498 H 0.88547 0.43269 0.97399 0.0
H499 H 0.92822 0.44975 0.99807 0.0
H500 H 0.80178 0.68046 0.43154 0.0
H501 H 0.75975 0.66432 0.45564 0.0
H502 H 0.76358 0.58648 0.43747 0.0
H503 H 0.80589 0.60247 0.4133 0.0
H504 H 0.70956 0.6306 0.43745 0.0
H505 H 0.75445 0.59055 0.51464 0.0
H506 H 0.77541 0.61326 0.49424 0.0
H507 H 0.76264 0.58003 0.48366 0.0
C508 C 0.7938 0.65989 0.4327 0.0
C509 C 0.80722 0.64273 0.42052 0.0
C510 C 0.76978 0.65073 0.44652 0.0
C511 C 0.75882 0.62427 0.44861 0.0
C512 C 0.77204 0.60702 0.43644 0.0
H513 H 0.59544 0.53932 0.48727 0.0
H514 H 0.6407 0.55709 0.46898 0.0
C515 C 0.79608 0.61617 0.4225 0.0
C516 C 0.73283 0.61479 0.46264 0.0
H517 H 0.70526 0.58115 0.51287 0.0
C518 C 0.70864 0.61991 0.45401 0.0
C519 C 0.73182 0.60111 0.48439 0.0
C520 C 0.75748 0.59605 0.49499 0.0
C521 C 0.68326 0.6111 0.46619 0.0
C522 C 0.68206 0.59671 0.48744 0.0
C523 C 0.70634 0.59213 0.4965 0.0
C524 C 0.6554 0.58526 0.4996 0.0
C525 C 0.6578 0.61709 0.4562 0.0
C526 C 0.64898 0.59491 0.5232 0.0
C527 C 0.62292 0.58484 0.5338 0.0
C528 C 0.60305 0.56489 0.52096 0.0
C529 C 0.61007 0.55483 0.49765 0.0
C530 C 0.63595 0.56493 0.4871 0.0
H531 H 0.66316 0.63267 0.44301 0.0
H532 H 0.64466 0.59961 0.44611 0.0
H533 H 0.64536 0.62286 0.47173 0.0
H534 H 0.66387 0.61058 0.53312 0.0
H535 H 0.61823 0.59294 0.55181 0.0
H536 H 0.29857 0.35824 0.11258 0.0
H537 H 0.25717 0.37012 0.09989 0.0
H538 H 0.20689 0.31361 0.1463 0.0
H539 H 0.24833 0.30214 0.15967 0.0
H540 H 0.20957 0.34378 0.07646 0.0
H541 H 0.18604 0.37768 0.17213 0.0
H542 H 0.21829 0.37013 0.16448 0.0
H543 H 0.18753 0.34483 0.16962 0.0
C544 C 0.27869 0.34823 0.12001 0.0
C545 C 0.27679 0.32942 0.13734 0.0
C546 C 0.25503 0.35506 0.11273 0.0
C547 C 0.22899 0.34318 0.12256 0.0
C548 C 0.22685 0.32356 0.139 0.0
H549 H 0.0659 0.36849 0.09964 0.0
H550 H 0.10379 0.35021 0.11023 0.0
C551 C 0.25055 0.31688 0.14648 0.0
C552 C 0.20427 0.35168 0.11584 0.0
H553 H 0.1533 0.37713 0.14054 0.0
C554 C 0.19728 0.35106 0.09048 0.0
C555 C 0.18825 0.36127 0.13415 0.0
C556 C 0.19551 0.36378 0.16159 0.0
C557 C 0.17472 0.3597 0.08296 0.0
C558 C 0.15884 0.36931 0.10126 0.0
C559 C 0.1655 0.36961 0.1266 0.0
C560 C 0.13586 0.38011 0.09442 0.0
C561 C 0.16793 0.35843 0.05551 0.0
C562 C 0.14145 0.40313 0.08231 0.0
C563 C 0.11995 0.41384 0.07655 0.0
C564 C 0.09234 0.40169 0.08271 0.0
C565 C 0.08689 0.37856 0.09487 0.0
C566 C 0.10847 0.36797 0.10079 0.0
H567 H 0.17826 0.34562 0.04432 0.0
H568 H 0.14521 0.35148 0.05239 0.0
H569 H 0.17506 0.37798 0.04857 0.0
H570 H 0.16254 0.41304 0.07766 0.0
H571 H 0.12507 0.43192 0.06768 0.0
H572 H 0.58117 0.26224 0.90549 0.0
H573 H 0.55814 0.22464 0.92859 0.0
H574 H 0.63722 0.22173 0.9572 0.0
H575 H 0.66023 0.25916 0.9346 0.0
H576 H 0.5658 0.1746 0.92651 0.0
H577 H 0.59141 0.22301 0.02069 0.0
H578 H 0.59448 0.24055 0.99281 0.0
H579 H 0.62122 0.22589 1.00101 0.0
C580 C 0.59363 0.25359 0.91672 0.0
C581 C 0.62255 0.26389 0.91832 0.0
C582 C 0.58044 0.2321 0.92989 0.0
C583 C 0.59589 0.22066 0.94503 0.0
C584 C 0.62477 0.23057 0.94614 0.0
H585 H 0.57478 0.09248 0.03679 0.0
H586 H 0.59056 0.13026 0.01245 0.0
C587 C 0.63793 0.25194 0.93305 0.0
C588 C 0.58215 0.19822 0.95955 0.0
H589 H 0.57575 0.17718 0.01863 0.0
C590 C 0.56765 0.17522 0.94668 0.0
C591 C 0.58453 0.19906 0.98589 0.0
C592 C 0.59851 0.22352 1.00096 0.0
C593 C 0.55652 0.15276 0.95933 0.0
C594 C 0.55964 0.15344 0.98559 0.0
C595 C 0.57351 0.17662 0.9985 0.0
C596 C 0.54962 0.13014 0.99999 0.0
C597 C 0.54243 0.12824 0.94441 0.0
C598 C 0.52126 0.11758 1.0013 0.0
C599 C 0.5121 0.09589 0.01528 0.0
C600 C 0.53112 0.08638 0.02829 0.0
C601 C 0.5595 0.09914 0.02699 0.0
C602 C 0.5686 0.12081 0.01308 0.0
H603 H 0.5469 0.12958 0.92412 0.0
H604 H 0.54906 0.11173 0.95099 0.0
H605 H 0.51968 0.12425 0.94696 0.0
H606 H 0.50618 0.12469 0.99173 0.0
H607 H 0.4901 0.08666 0.01593 0.0
H608 H 0.89688 0.76006 0.35436 0.0
H609 H 0.91018 0.80283 0.37601 0.0
H610 H 0.95619 0.77503 0.43016 0.0
H611 H 0.94277 0.73224 0.40892 0.0
H612 H 0.91845 0.79962 0.45154 0.0
H613 H 0.98372 0.8589 0.38114 0.0
H614 H 0.95028 0.84012 0.37012 0.0
H615 H 0.97558 0.82423 0.37917 0.0
C616 C 0.91035 0.76317 0.37054 0.0
C617 C 0.91868 0.74266 0.37993 0.0
C618 C 0.91794 0.78766 0.38289 0.0
C619 C 0.93421 0.79212 0.40468 0.0
C620 C 0.94355 0.77198 0.41342 0.0
H621 H 0.01941 0.92967 0.48821 0.0
H622 H 0.00395 0.89018 0.46187 0.0
C623 C 0.93594 0.74754 0.40116 0.0
C624 C 0.93996 0.81715 0.41947 0.0
H625 H 0.97302 0.88097 0.41788 0.0
C626 C 0.93032 0.81744 0.44418 0.0
C627 C 0.95547 0.84032 0.40981 0.0
C628 C 0.9671 0.841 0.38368 0.0
C629 C 0.93611 0.84021 0.45964 0.0
C630 C 0.95159 0.8634 0.44998 0.0
C631 C 0.96093 0.86318 0.42516 0.0
C632 C 0.9603 0.88767 0.46592 0.0
C633 C 0.92647 0.83908 0.48643 0.0
C634 C 0.94083 0.89951 0.47695 0.0
C635 C 0.94961 0.92222 0.49226 0.0
C636 C 0.97802 0.9335 0.49665 0.0
C637 C 0.99736 0.92158 0.48535 0.0
C638 C 0.98858 0.89899 0.47016 0.0
H639 H 0.91984 0.81903 0.4923 0.0
H640 H 0.94316 0.85041 0.49922 0.0
H641 H 0.90854 0.84747 0.48855 0.0
H642 H 0.91889 0.89127 0.47361 0.0
H643 H 0.9342 0.93096 0.50053 0.0
H644 H 0.24775 0.7011 0.69732 0.0
H645 H 0.28491 0.68407 0.6794 0.0
H646 H 0.32132 0.75644 0.64734 0.0
H647 H 0.2845 0.77383 0.66557 0.0
H648 H 0.30319 0.67834 0.6307 0.0
H649 H 0.38442 0.74613 0.68956 0.0
H650 H 0.34791 0.74166 0.69533 0.0
H651 H 0.36465 0.76128 0.67084 0.0
C652 C 0.26353 0.71336 0.6863 0.0
C653 C 0.26332 0.73891 0.68308 0.0
C654 C 0.28474 0.70358 0.67606 0.0
C655 C 0.30613 0.71915 0.66245 0.0
C656 C 0.30532 0.74429 0.65825 0.0
H657 H 0.43122 0.66297 0.57756 0.0
H658 H 0.3929 0.68147 0.58961 0.0
C659 C 0.28418 0.75413 0.66856 0.0
C660 C 0.32967 0.70926 0.65338 0.0
H661 H 0.39956 0.71896 0.65949 0.0
C662 C 0.32429 0.68724 0.6369 0.0
C663 C 0.3571 0.72072 0.66182 0.0
C664 C 0.36394 0.74361 0.68054 0.0
C665 C 0.34564 0.67636 0.6286 0.0
C666 C 0.37314 0.68812 0.63668 0.0
C667 C 0.37849 0.71013 0.65315 0.0
C668 C 0.39652 0.67728 0.62918 0.0
C669 C 0.33845 0.65197 0.61185 0.0
C670 C 0.41173 0.66944 0.64748 0.0
C671 C 0.43369 0.65902 0.64068 0.0
C672 C 0.44093 0.65629 0.61542 0.0
C673 C 0.42589 0.66449 0.59713 0.0
C674 C 0.40396 0.67501 0.60398 0.0
H675 H 0.31596 0.64211 0.61236 0.0
H676 H 0.34396 0.65673 0.5923 0.0
H677 H 0.35025 0.63844 0.61734 0.0
H678 H 0.40635 0.67107 0.66704 0.0
H679 H 0.44462 0.6526 0.65519 0.0
H680 H 0.76172 0.77417 0.78515 0.0
H681 H 0.78786 0.80214 0.7543 0.0
H682 H 0.72906 0.84786 0.75995 0.0
H683 H 0.70294 0.82003 0.7912 0.0
H684 H 0.77121 0.81074 0.70898 0.0
H685 H 0.80172 0.90278 0.76695 0.0
H686 H 0.78755 0.87228 0.78031 0.0
H687 H 0.76507 0.88819 0.76583 0.0
C688 C 0.75447 0.79033 0.78 0.0
C689 C 0.73049 0.79514 0.79089 0.0
C690 C 0.76943 0.80629 0.76235 0.0
C691 C 0.76068 0.82732 0.75505 0.0
C692 C 0.73664 0.83216 0.76579 0.0
H693 H 0.82554 0.93614 0.6419 0.0
H694 H 0.79598 0.90923 0.67183 0.0
C695 C 0.72175 0.81627 0.7837 0.0
C696 C 0.77629 0.8434 0.73546 0.0
H697 H 0.81256 0.90457 0.72383 0.0
C698 C 0.78027 0.83125 0.71226 0.0
C699 C 0.7881 0.87017 0.73974 0.0
C700 C 0.78566 0.88414 0.76462 0.0
C701 C 0.79574 0.84512 0.69327 0.0
C702 C 0.80763 0.87179 0.69762 0.0
C703 C 0.80333 0.88407 0.72061 0.0
C704 C 0.82511 0.88724 0.67871 0.0
C705 C 0.79918 0.83122 0.66861 0.0
C706 C 0.85125 0.88367 0.67265 0.0
C707 C 0.86837 0.89921 0.65576 0.0
C708 C 0.85965 0.91862 0.64463 0.0
C709 C 0.83313 0.92169 0.65041 0.0
C710 C 0.81613 0.90626 0.66741 0.0
H711 H 0.78424 0.81191 0.66642 0.0
H712 H 0.79636 0.8426 0.65281 0.0
H713 H 0.82046 0.82871 0.66746 0.0
H714 H 0.85866 0.86927 0.68145 0.0
H715 H 0.88878 0.89656 0.65208 0.0
H716 H 0.8055 0.20364 0.32049 0.0
H717 H 0.77886 0.18269 0.28365 0.0
H718 H 0.78807 0.25646 0.25337 0.0
H719 H 0.81423 0.2777 0.29053 0.0
H720 H 0.73521 0.22909 0.25279 0.0
H721 H 0.79918 0.16757 0.21253 0.0
H722 H 0.79223 0.16245 0.24494 0.0
H723 H 0.81236 0.19339 0.2359 0.0
C724 C 0.80232 0.21542 0.30582 0.0
C725 C 0.81194 0.24237 0.30851 0.0
C726 C 0.78722 0.20337 0.28465 0.0
C727 C 0.78178 0.21797 0.26558 0.0
C728 C 0.79214 0.24482 0.26782 0.0
H729 H 0.69075 0.1346 0.13349 0.0
H730 H 0.72618 0.16479 0.15966 0.0
C731 C 0.8071 0.25691 0.28907 0.0
C732 C 0.76307 0.20536 0.2446 0.0
H733 H 0.75084 0.15505 0.20068 0.0
C734 C 0.73886 0.21317 0.24111 0.0
C735 C 0.76801 0.18487 0.22907 0.0
C736 C 0.79452 0.17677 0.23062 0.0
C737 C 0.71879 0.20021 0.22342 0.0
C738 C 0.72275 0.17847 0.20926 0.0
C739 C 0.74762 0.1715 0.21179 0.0
C740 C 0.70073 0.1618 0.19285 0.0
C741 C 0.69346 0.20986 0.22024 0.0
C742 C 0.67471 0.15012 0.20283 0.0
C743 C 0.65446 0.13304 0.18793 0.0
C744 C 0.65997 0.12699 0.16284 0.0
C745 C 0.68598 0.13884 0.1528 0.0
C746 C 0.70618 0.15609 0.16769 0.0
H747 H 0.69787 0.23076 0.22558 0.0
H748 H 0.68575 0.20637 0.20067 0.0
H749 H 0.67678 0.19967 0.23264 0.0
H750 H 0.6703 0.15361 0.22237 0.0
H751 H 0.63485 0.12381 0.19634 0.0
H752 H 0.40371 0.67971 0.34786 0.0
H753 H 0.41798 0.65963 0.38318 0.0
H754 H 0.46846 0.62486 0.33396 0.0
H755 H 0.45459 0.64513 0.29861 0.0
H756 H 0.41008 0.60806 0.39018 0.0
H757 H 0.52236 0.6575 0.39043 0.0
H758 H 0.49737 0.66838 0.37322 0.0
H759 H 0.50953 0.64164 0.36085 0.0
C760 C 0.4181 0.66804 0.34455 0.0
C761 C 0.42812 0.66421 0.32034 0.0
C762 C 0.42617 0.65647 0.36479 0.0
C763 C 0.44455 0.64092 0.36137 0.0
C764 C 0.45469 0.63715 0.33724 0.0
H765 H 0.47067 0.53131 0.46657 0.0
H766 H 0.45658 0.55113 0.43088 0.0
C767 C 0.44664 0.64872 0.31699 0.0
C768 C 0.45244 0.62808 0.38289 0.0
H769 H 0.50783 0.62287 0.41682 0.0
C770 C 0.43146 0.61133 0.39602 0.0
C771 C 0.4803 0.63248 0.39072 0.0
C772 C 0.5037 0.65115 0.37825 0.0
C773 C 0.43757 0.59875 0.41654 0.0
C774 C 0.4655 0.60269 0.424 0.0
C775 C 0.48644 0.61961 0.411 0.0
C776 C 0.47343 0.59029 0.44582 0.0
C777 C 0.41399 0.58182 0.43042 0.0
C778 C 0.48796 0.60559 0.466 0.0
C779 C 0.49615 0.59434 0.48634 0.0
C780 C 0.49015 0.56741 0.48702 0.0
C781 C 0.47549 0.55207 0.46681 0.0
C782 C 0.46731 0.56339 0.4464 0.0
H783 H 0.3939 0.58586 0.42643 0.0
H784 H 0.41222 0.5614 0.4245 0.0
H785 H 0.41774 0.58444 0.4509 0.0
H786 H 0.49298 0.62636 0.46604 0.0
H787 H 0.50738 0.60686 0.50148 0.0
H788 H 0.11166 0.36451 0.81384 0.0
H789 H 0.09621 0.38662 0.85006 0.0
H790 H 0.14657 0.45927 0.82716 0.0
H791 H 0.16241 0.43726 0.79072 0.0
H792 H 0.14911 0.45146 0.87999 0.0
H793 H 0.04133 0.43152 0.84449 0.0
H794 H 0.05432 0.40362 0.84512 0.0
H795 H 0.06991 0.4285 0.8247 0.0
C796 C 0.11959 0.38519 0.81646 0.0
C797 C 0.13813 0.39913 0.7992 0.0
C798 C 0.11064 0.39779 0.83716 0.0
C799 C 0.11992 0.42458 0.84105 0.0
C800 C 0.13906 0.43856 0.82437 0.0
H801 H 0.03962 0.51565 0.94061 0.0
H802 H 0.0617 0.49853 0.90511 0.0
C803 C 0.14805 0.42595 0.80356 0.0
C804 C 0.10908 0.4379 0.86231 0.0
H805 H 0.04928 0.44817 0.88658 0.0
C806 C 0.12733 0.4509 0.88142 0.0
C807 C 0.08072 0.43737 0.86393 0.0
C808 C 0.06042 0.42471 0.84338 0.0
C809 C 0.11777 0.46286 0.90248 0.0
C810 C 0.0892 0.46149 0.90452 0.0
C811 C 0.07113 0.44901 0.88509 0.0
C812 C 0.07746 0.47291 0.92656 0.0
C813 C 0.13834 0.47707 0.92223 0.0
C814 C 0.07896 0.46416 0.95044 0.0
C815 C 0.06634 0.47393 0.97086 0.0
C816 C 0.05182 0.49251 0.9677 0.0
C817 C 0.05059 0.50136 0.94376 0.0
C818 C 0.06322 0.49161 0.92341 0.0
H819 H 0.15985 0.4821 0.91491 0.0
H820 H 0.13328 0.49497 0.92954 0.0
H821 H 0.13759 0.46464 0.93803 0.0
H822 H 0.08935 0.44935 0.95321 0.0
H823 H 0.06762 0.46661 0.989 0.0
H824 H 0.60528 0.86495 0.8526 0.0
H825 H 0.58439 0.88961 0.88322 0.0
H826 H 0.65645 0.90291 0.93051 0.0
H827 H 0.67776 0.87875 0.89977 0.0
H828 H 0.57083 0.87874 0.93144 0.0
H829 H 0.64609 0.97459 0.92936 0.0
H830 H 0.64533 0.94905 0.90574 0.0
H831 H 0.6618 0.94935 0.9354 0.0
C832 C 0.61686 0.87338 0.86937 0.0
C833 C 0.64324 0.86993 0.87369 0.0
C834 C 0.60485 0.88744 0.88688 0.0
C835 C 0.61897 0.89838 0.90902 0.0
C836 C 0.64541 0.89515 0.91331 0.0
H837 H 0.57457 0.9774 0.04319 0.0
H838 H 0.59657 0.9541 0.0121 0.0
C839 C 0.65751 0.8812 0.89575 0.0
C840 C 0.60541 0.91199 0.92817 0.0
H841 H 0.61285 0.96915 0.96209 0.0
C842 C 0.57994 0.89856 0.93803 0.0
C843 C 0.61737 0.93783 0.93681 0.0
C844 C 0.64402 0.95365 0.92613 0.0
C845 C 0.56629 0.91014 0.95653 0.0
C846 C 0.5783 0.9359 0.96521 0.0
C847 C 0.60378 0.94934 0.95543 0.0
C848 C 0.56453 0.94938 0.9842 0.0
C849 C 0.53935 0.8946 0.96697 0.0
C850 C 0.53928 0.9545 0.97873 0.0
C851 C 0.52666 0.96784 0.9964 0.0
C852 C 0.53909 0.97635 0.0199 0.0
C853 C 0.56434 0.97103 0.02534 0.0
C854 C 0.57701 0.95779 0.00759 0.0
H855 H 0.53617 0.87365 0.96258 0.0
H856 H 0.53866 0.89824 0.98756 0.0
H857 H 0.52189 0.90035 0.95869 0.0
H858 H 0.52951 0.94848 0.96064 0.0
H859 H 0.50725 0.97163 0.99153 0.0
H860 H 0.92699 0.21462 0.39339 0.0
H861 H 0.94711 0.18094 0.40662 0.0
H862 H 0.87661 0.15356 0.45409 0.0
H863 H 0.85609 0.18674 0.4406 0.0
H864 H 0.96235 0.17153 0.45294 0.0
H865 H 0.88021 0.08809 0.41471 0.0
H866 H 0.88306 0.12048 0.40632 0.0
H867 H 0.86665 0.10941 0.43511 0.0
C868 C 0.91573 0.20138 0.40661 0.0
C869 C 0.88984 0.20325 0.41582 0.0
C870 C 0.92726 0.18214 0.41412 0.0
C871 C 0.91309 0.16439 0.43093 0.0
C872 C 0.88755 0.16659 0.44057 0.0
H873 H 0.94142 0.05015 0.52067 0.0
H874 H 0.92509 0.08137 0.49852 0.0
C875 C 0.87595 0.18571 0.43298 0.0
C876 C 0.92531 0.14402 0.43901 0.0
H877 H 0.91115 0.07925 0.44457 0.0
C878 C 0.95136 0.15132 0.45078 0.0
C879 C 0.91102 0.11763 0.43602 0.0
C880 C 0.88382 0.10839 0.42211 0.0
C881 C 0.96289 0.13304 0.46071 0.0
C882 C 0.94803 0.10682 0.45862 0.0
C883 C 0.92242 0.09941 0.44617 0.0
C884 C 0.95771 0.08707 0.47095 0.0
C885 C 0.9903 0.14192 0.47428 0.0
C886 C 0.98124 0.07962 0.46246 0.0
C887 C 0.99063 0.0616 0.47504 0.0
C888 C 0.97667 0.0509 0.49637 0.0
C889 C 0.95278 0.0581 0.50442 0.0
C890 C 0.94335 0.0759 0.49176 0.0
H891 H 0.99746 0.1632 0.47703 0.0
H892 H 0.98871 0.13361 0.49282 0.0
H893 H 0.00621 0.13507 0.46334 0.0
H894 H 0.99243 0.0879 0.44627 0.0
H895 H 0.00911 0.05649 0.46839 0.0
H896 H 0.27693 0.622 0.19181 0.0
H897 H 0.23431 0.59843 0.1696 0.0
H898 H 0.25525 0.64957 0.10971 0.0
H899 H 0.29781 0.67291 0.13145 0.0
H900 H 0.19068 0.61758 0.15519 0.0
H901 H 0.23756 0.57906 0.07226 0.0
H902 H 0.25705 0.592 0.10041 0.0
H903 H 0.25058 0.6132 0.07811 0.0
C904 C 0.27257 0.62807 0.17381 0.0
C905 C 0.29086 0.64928 0.16338 0.0
C906 C 0.2482 0.61461 0.16116 0.0
C907 C 0.24182 0.62198 0.1378 0.0
C908 C 0.26003 0.64315 0.12742 0.0
H909 H 0.10311 0.58036 0.03439 0.0
H910 H 0.14698 0.59962 0.05645 0.0
C911 C 0.28432 0.65659 0.14 0.0
C912 C 0.21555 0.60841 0.12472 0.0
H913 H 0.18938 0.57656 0.06954 0.0
C914 C 0.19037 0.60838 0.13657 0.0
C915 C 0.21521 0.59653 0.10036 0.0
C916 C 0.24153 0.59494 0.0871 0.0
C917 C 0.16487 0.5974 0.12447 0.0
C918 C 0.16454 0.58578 0.10001 0.0
C919 C 0.1897 0.58559 0.08824 0.0
C920 C 0.13824 0.57368 0.08637 0.0
C921 C 0.13851 0.59898 0.13769 0.0
C922 C 0.11904 0.55243 0.09562 0.0
C923 C 0.09399 0.54139 0.0831 0.0
C924 C 0.08765 0.55131 0.06095 0.0
C925 C 0.10724 0.57228 0.05142 0.0
C926 C 0.13234 0.58331 0.06399 0.0
H927 H 0.14255 0.61384 0.1535 0.0
H928 H 0.1237 0.60342 0.12457 0.0
H929 H 0.12852 0.58016 0.14532 0.0
H930 H 0.12342 0.54436 0.11257 0.0
H931 H 0.07955 0.52514 0.09091 0.0
H932 H 0.27596 0.40682 0.70407 0.0
H933 H 0.3159 0.4294 0.68015 0.0
H934 H 0.2627 0.46076 0.6363 0.0
H935 H 0.22249 0.43799 0.65996 0.0
H936 H 0.29849 0.43962 0.60747 0.0
H937 H 0.35569 0.50606 0.68357 0.0
H938 H 0.34643 0.473 0.69113 0.0
H939 H 0.31967 0.48878 0.68624 0.0
C940 C 0.27274 0.41869 0.68948 0.0
C941 C 0.24602 0.42065 0.68397 0.0
C942 C 0.29564 0.4317 0.67592 0.0
C943 C 0.29233 0.44706 0.65669 0.0
C944 C 0.26572 0.44913 0.65117 0.0
H945 H 0.43484 0.54669 0.58399 0.0
H946 H 0.39042 0.53063 0.60491 0.0
C947 C 0.24278 0.43612 0.66474 0.0
C948 C 0.3165 0.45998 0.64164 0.0
H949 H 0.38112 0.5015 0.64627 0.0
C950 C 0.31646 0.45334 0.61589 0.0
C951 C 0.33975 0.47816 0.65259 0.0
C952 C 0.34037 0.48715 0.67986 0.0
C953 C 0.33948 0.46367 0.60096 0.0
C954 C 0.3633 0.48079 0.61217 0.0
C955 C 0.36293 0.48818 0.63774 0.0
C956 C 0.38922 0.49048 0.59799 0.0
C957 C 0.33809 0.45615 0.57333 0.0
C958 C 0.40327 0.47323 0.58714 0.0
C959 C 0.42862 0.48231 0.57515 0.0
C960 C 0.44055 0.50887 0.57391 0.0
C961 C 0.42623 0.52612 0.58451 0.0
C962 C 0.40086 0.51699 0.59652 0.0
H963 H 0.31632 0.44939 0.56657 0.0
H964 H 0.34925 0.4725 0.5624 0.0
H965 H 0.34796 0.44018 0.56962 0.0
H966 H 0.39498 0.45272 0.5885 0.0
H967 H 0.4391 0.46848 0.56733 0.0
H968 H 0.76003 0.72839 0.90529 0.0
H969 H 0.79703 0.71478 0.92516 0.0
H970 H 0.78703 0.65148 0.86977 0.0
H971 H 0.74982 0.66473 0.84992 0.0
H972 H 0.79166 0.63796 0.91902 0.0
H973 H 0.8754 0.7238 0.89618 0.0
H974 H 0.84637 0.7307 0.91251 0.0
H975 H 0.84171 0.71561 0.88145 0.0
C976 C 0.76564 0.71152 0.89736 0.0
C977 C 0.75209 0.69772 0.87594 0.0
C978 C 0.78688 0.70387 0.90867 0.0
C979 C 0.79503 0.68238 0.89868 0.0
C980 C 0.78112 0.66821 0.87767 0.0
H981 H 0.94447 0.63619 0.92218 0.0
H982 H 0.90655 0.6513 0.90609 0.0
C983 C 0.75988 0.67583 0.86635 0.0
C984 C 0.81812 0.67464 0.91003 0.0
H985 H 0.88768 0.69447 0.92176 0.0
C986 C 0.81266 0.6503 0.91969 0.0
C987 C 0.84551 0.69071 0.91056 0.0
C988 C 0.85278 0.71658 0.89944 0.0
C989 C 0.83387 0.64162 0.93001 0.0
C990 C 0.86117 0.65789 0.93096 0.0
C991 C 0.86666 0.68217 0.9212 0.0
C992 C 0.88452 0.64965 0.94119 0.0
C993 C 0.82704 0.61489 0.93923 0.0
C994 C 0.88493 0.64421 0.96638 0.0
C995 C 0.90665 0.63569 0.97567 0.0
C996 C 0.92842 0.6326 0.95995 0.0
C997 C 0.92821 0.63865 0.93485 0.0
C998 C 0.90649 0.64715 0.92559 0.0
H999 H 0.80672 0.60286 0.932 0.0
H1000 H 0.8433 0.60511 0.93361 0.0
H1001 H 0.82605 0.61616 0.95995 0.0
H1002 H 0.86843 0.64653 0.97884 0.0
H1003 H 0.90643 0.63159 0.99519 0.0
H1004 H 0.44412 0.78276 0.23987 0.0
H1005 H 0.45986 0.82506 0.22206 0.0
H1006 H 0.41016 0.79539 0.15633 0.0
H1007 H 0.3943 0.75366 0.17376 0.0
H1008 H 0.48707 0.8397 0.17567 0.0
H1009 H 0.38353 0.85844 0.17982 0.0
H1010 H 0.39193 0.83382 0.19695 0.0
H1011 H 0.38317 0.82794 0.16428 0.0
C1012 C 0.43665 0.78526 0.2216 0.0
C1013 C 0.41768 0.76479 0.20844 0.0
C1014 C 0.44563 0.80944 0.21145 0.0
C1015 C 0.4357 0.81355 0.18808 0.0
C1016 C 0.41758 0.79291 0.17464 0.0
H1017 H 0.45272 0.93089 0.0829 0.0
H1018 H 0.4413 0.89193 0.10613 0.0
C1019 C 0.40863 0.76894 0.18468 0.0
C1020 C 0.44397 0.83921 0.17735 0.0
H1021 H 0.41706 0.88484 0.15392 0.0
C1022 C 0.47186 0.84978 0.17121 0.0
C1023 C 0.4241 0.85235 0.17148 0.0
C1024 C 0.39405 0.84271 0.17868 0.0
C1025 C 0.48018 0.87254 0.15846 0.0
C1026 C 0.46014 0.88526 0.15199 0.0
C1027 C 0.43239 0.875 0.15868 0.0
C1028 C 0.46737 0.90901 0.13793 0.0
C1029 C 0.51018 0.88227 0.15119 0.0
C1030 C 0.48553 0.93172 0.1482 0.0
C1031 C 0.49205 0.95406 0.13499 0.0
C1032 C 0.48048 0.95424 0.11123 0.0
C1033 C 0.46207 0.9315 0.1011 0.0
C1034 C 0.45551 0.90918 0.11437 0.0
H1035 H 0.52156 0.86731 0.15232 0.0
H1036 H 0.51201 0.88885 0.1319 0.0
H1037 H 0.52038 0.89888 0.16409 0.0
H1038 H 0.49452 0.93225 0.16654 0.0
H1039 H 0.50623 0.97119 0.14346 0.0
H1040 H 0.08618 0.23606 0.73067 0.0
H1041 H 0.07302 0.19732 0.70269 0.0
H1042 H 0.12328 0.23742 0.64435 0.0
H1043 H 0.13685 0.27636 0.67236 0.0
H1044 H 0.04576 0.19214 0.65623 0.0
H1045 H 0.14829 0.1708 0.64666 0.0
H1046 H 0.14096 0.19253 0.67121 0.0
H1047 H 0.14764 0.2028 0.64002 0.0
C1048 C 0.09462 0.23667 0.71195 0.0
C1049 C 0.11262 0.25932 0.70377 0.0
C1050 C 0.08704 0.21449 0.69598 0.0
C1051 C 0.09739 0.21443 0.67156 0.0
C1052 C 0.11543 0.23695 0.66328 0.0
H1053 H 0.06614 0.0924 0.55198 0.0
H1054 H 0.08255 0.13334 0.57654 0.0
C1055 C 0.12304 0.25921 0.67927 0.0
C1056 C 0.0884 0.19095 0.65462 0.0
H1057 H 0.11142 0.14404 0.62247 0.0
C1058 C 0.06011 0.18162 0.64883 0.0
C1059 C 0.10721 0.17739 0.64489 0.0
C1060 C 0.13771 0.18619 0.6511 0.0
C1061 C 0.05007 0.15902 0.6336 0.0
C1062 C 0.06877 0.14514 0.62431 0.0
C1063 C 0.09715 0.15472 0.62968 0.0
C1064 C 0.05911 0.12025 0.60955 0.0
C1065 C 0.01955 0.15035 0.62739 0.0
C1066 C 0.04086 0.09923 0.62014 0.0
C1067 C 0.03142 0.07583 0.6062 0.0
C1068 C 0.0402 0.07295 0.58141 0.0
C1069 C 0.0589 0.09395 0.57099 0.0
C1070 C 0.06832 0.11737 0.58499 0.0
H1071 H 0.0096 0.16642 0.63001 0.0
H1072 H 0.01607 0.14212 0.60782 0.0
H1073 H 0.00913 0.13525 0.63999 0.0
H1074 H 0.03395 0.1009 0.63925 0.0
H1075 H 0.01718 0.06005 0.61488 0.0
H1076 H 0.80291 0.35988 0.4186 0.0
H1077 H 0.76957 0.38224 0.43597 0.0
H1078 H 0.70862 0.30956 0.44132 0.0
H1079 H 0.74176 0.28706 0.42426 0.0
H1080 H 0.7189 0.3797 0.41329 0.0
H1081 H 0.70271 0.34654 0.50939 0.0
H1082 H 0.73212 0.34373 0.49061 0.0
H1083 H 0.69895 0.32091 0.48557 0.0
C1084 C 0.78259 0.34862 0.42392 0.0
C1085 C 0.77498 0.32168 0.41999 0.0
C1086 C 0.76355 0.36143 0.43379 0.0
C1087 C 0.73672 0.34755 0.44015 0.0
C1088 C 0.72937 0.32063 0.43699 0.0
H1089 H 0.58152 0.38057 0.48027 0.0
H1090 H 0.61934 0.36105 0.46936 0.0
C1091 C 0.74833 0.30781 0.42709 0.0
C1092 C 0.71561 0.36118 0.44797 0.0
H1093 H 0.66971 0.3668 0.4943 0.0
C1094 C 0.70835 0.37713 0.43112 0.0
C1095 C 0.70176 0.35762 0.47115 0.0
C1096 C 0.70942 0.34146 0.49034 0.0
C1097 C 0.68704 0.38906 0.43651 0.0
C1098 C 0.67299 0.3853 0.4596 0.0
C1099 C 0.68048 0.36959 0.47659 0.0
C1100 C 0.65023 0.39727 0.46631 0.0
C1101 C 0.67916 0.40487 0.4171 0.0
C1102 C 0.65513 0.4241 0.46842 0.0
C1103 C 0.63353 0.4353 0.4744 0.0
C1104 C 0.60661 0.41989 0.47861 0.0
C1105 C 0.60187 0.39299 0.47677 0.0
C1106 C 0.6235 0.38181 0.47075 0.0
H1107 H 0.68691 0.4005 0.39826 0.0
H1108 H 0.65632 0.40149 0.41605 0.0
H1109 H 0.68838 0.42557 0.42227 0.0
H1110 H 0.6757 0.43639 0.46547 0.0
H1111 H 0.63788 0.45606 0.47545 0.0
loop_
_geom_bond_atom_site_label_1
_geom_bond_atom_site_label_2
_geom_bond_distance
_geom_bond_site_symmetry_2
_ccdc_geom_bond_type
O0 Cd1 2.300 . S
O0 C7 1.275 . S
Cd1 O0 2.300 . S
Cd1 O9 2.381 . S
Cd1 O10 2.378 . S
O2 Cd3 2.385 . S
O2 C7 1.255 . S
Cd3 O2 2.385 . S
Cd3 O4 2.317 . S
O4 Cd3 2.317 . S
O4 C5 1.232 . S
C5 O4 1.232 . S
C5 O6 1.218 . S
O6 C5 1.218 . S
C7 O0 1.275 . S
C7 O2 1.255 . S
C8 O9 1.258 . S
C8 O10 1.256 . S
O9 Cd1 2.381 . S
O9 C8 1.258 . S
O10 Cd1 2.378 . S
O10 C8 1.256 . S
O11 Cd12 2.300 . S
O11 C18 1.275 . S
Cd12 O11 2.300 . S
Cd12 O20 2.381 . S
Cd12 O21 2.378 . S
O13 Cd14 2.385 . S
O13 C18 1.255 . S
Cd14 O13 2.385 . S
Cd14 O15 2.317 . S
O15 Cd14 2.317 . S
O15 C16 1.232 . S
C16 O15 1.232 . S
C16 O17 1.218 . S
O17 C16 1.218 . S
C18 O11 1.275 . S
C18 O13 1.255 . S
C19 O20 1.258 . S
C19 O21 1.256 . S
O20 Cd12 2.381 . S
O20 C19 1.258 . S
O21 Cd12 2.378 . S
O21 C19 1.256 . S
O22 Cd23 2.300 . S
O22 C29 1.275 . S
Cd23 O22 2.300 . S
Cd23 O31 2.381 . S
Cd23 O32 2.378 . S
O24 Cd25 2.385 . S
O24 C29 1.255 . S
Cd25 O24 2.385 . S
Cd25 O26 2.317 . S
O26 Cd25 2.317 . S
O26 C27 1.232 . S
C27 O26 1.232 . S
C27 O28 1.218 . S
O28 C27 1.218 . S
C29 O22 1.275 . S
C29 O24 1.255 . S
C30 O31 1.258 . S
C30 O32 1.256 . S
O31 Cd23 2.381 . S
O31 C30 1.258 . S
O32 Cd23 2.378 . S
O32 C30 1.256 . S
O33 Cd34 2.300 . S
O33 C40 1.275 . S
Cd34 O33 2.300 . S
Cd34 O42 2.381 . S
Cd34 O43 2.378 . S
O35 Cd36 2.385 . S
O35 C40 1.255 . S
Cd36 O35 2.385 . S
Cd36 O37 2.317 . S
O37 Cd36 2.317 . S
O37 C38 1.232 . S
C38 O37 1.232 . S
C38 O39 1.218 . S
O39 C38 1.218 . S
C40 O33 1.275 . S
C40 O35 1.255 . S
C41 O42 1.258 . S
C41 O43 1.256 . S
O42 Cd34 2.381 . S
O42 C41 1.258 . S
O43 Cd34 2.378 . S
O43 C41 1.256 . S
O44 Cd45 2.300 . S
O44 C51 1.275 . S
Cd45 O44 2.300 . S
Cd45 O53 2.381 . S
Cd45 O54 2.378 . S
O46 Cd47 2.385 . S
O46 C51 1.255 . S
Cd47 O46 2.385 . S
Cd47 O48 2.317 . S
O48 Cd47 2.317 . S
O48 C49 1.232 . S
C49 O48 1.232 . S
C49 O50 1.218 . S
O50 C49 1.218 . S
C51 O44 1.275 . S
C51 O46 1.255 . S
C52 O53 1.258 . S
C52 O54 1.256 . S
O53 Cd45 2.381 . S
O53 C52 1.258 . S
O54 Cd45 2.378 . S
O54 C52 1.256 . S
O55 Cd56 2.300 . S
O55 C62 1.275 . S
Cd56 O55 2.300 . S
Cd56 O64 2.381 . S
Cd56 O65 2.378 . S
O57 Cd58 2.385 . S
O57 C62 1.255 . S
Cd58 O57 2.385 . S
Cd58 O59 2.317 . S
O59 Cd58 2.317 . S
O59 C60 1.232 . S
C60 O59 1.232 . S
C60 O61 1.218 . S
O61 C60 1.218 . S
C62 O55 1.275 . S
C62 O57 1.255 . S
C63 O64 1.258 . S
C63 O65 1.256 . S
O64 Cd56 2.381 . S
O64 C63 1.258 . S
O65 Cd56 2.378 . S
O65 C63 1.256 . S
O66 Cd67 2.300 . S
O66 C73 1.275 . S
Cd67 O66 2.300 . S
Cd67 O75 2.381 . S
Cd67 O76 2.378 . S
O68 Cd69 2.385 . S
O68 C73 1.255 . S
Cd69 O68 2.385 . S
Cd69 O70 2.317 . S
O70 Cd69 2.317 . S
O70 C71 1.232 . S
C71 O70 1.232 . S
C71 O72 1.218 . S
O72 C71 1.218 . S
C73 O66 1.275 . S
C73 O68 1.255 . S
C74 O75 1.258 . S
C74 O76 1.256 . S
O75 Cd67 2.381 . S
O75 C74 1.258 . S
O76 Cd67 2.378 . S
O76 C74 1.256 . S
O77 Cd78 2.300 . S
O77 C84 1.275 . S
Cd78 O77 2.300 . S
Cd78 O86 2.381 . S
Cd78 O87 2.378 . S
O79 Cd80 2.385 . S
O79 C84 1.255 . S
Cd80 O79 2.385 . S
Cd80 O81 2.317 . S
O81 Cd80 2.317 . S
O81 C82 1.232 . S
C82 O81 1.232 . S
C82 O83 1.218 . S
O83 C82 1.218 . S
C84 O77 1.275 . S
C84 O79 1.255 . S
C85 O86 1.258 . S
C85 O87 1.256 . S
O86 Cd78 2.381 . S
O86 C85 1.258 . S
O87 Cd78 2.378 . S
O87 C85 1.256 . S
Dy88 O91 2.307 1_545 S
Dy88 O93 2.395 . S
Dy88 O94 2.379 . S
Dy88 O96 2.339 1_545 S
Dy88 O98 2.319 . S
Dy88 O102 2.275 . S
Dy88 C110 2.738 . S
Dy89 O92 2.298 1_645 S
Dy89 O95 2.275 1_545 S
Dy89 O97 2.307 . S
Dy89 O99 2.395 1_545 S
Dy89 O100 2.379 1_545 S
Dy89 O103 2.348 . S
Dy89 C119 2.738 1_545 S
C90 O102 1.254 . S
C90 O103 1.237 1_455 S
O91 Dy88 2.307 1_565 S
O91 C101 1.266 . S
O92 Dy89 2.298 1_465 S
O92 C101 1.236 . S
O93 Dy88 2.395 . S
O93 C110 1.255 . S
O94 Dy88 2.379 . S
O94 C110 1.249 . S
O95 Dy89 2.275 1_565 S
O95 C111 1.254 . S
O96 Dy88 2.339 1_565 S
O96 C111 1.257 1_455 S
O97 Dy89 2.307 . S
O97 C112 1.266 . S
O98 Dy88 2.319 . S
O98 C112 1.216 1_455 S
O99 Dy89 2.395 1_565 S
O99 C119 1.255 . S
O100 Dy89 2.379 1_565 S
O100 C119 1.249 . S
C101 O91 1.266 . S
C101 O92 1.236 . S
O102 Dy88 2.275 . S
O102 C90 1.254 . S
O103 Dy89 2.348 . S
O103 C90 1.237 1_655 S
C104 C107 1.344 . S
C104 C108 1.328 . S
C104 C110 1.516 . S
C105 C106 1.304 . S
C105 C109 1.323 . S
C106 C105 1.304 . S
C106 C107 1.371 . S
C106 H120 0.930 . S
C107 C104 1.344 . S
C107 C106 1.371 . S
C107 H121 0.931 . S
C108 C104 1.328 . S
C108 C109 1.433 . S
C108 H122 0.931 . S
C109 C105 1.323 . S
C109 C108 1.433 . S
C109 H123 0.933 . S
C110 Dy88 2.738 . S
C110 O93 1.255 . S
C110 O94 1.249 . S
C110 C104 1.516 . S
C111 O95 1.254 . S
C111 O96 1.257 1_655 S
C112 O97 1.266 . S
C112 O98 1.216 1_655 S
C113 C116 1.344 . S
C113 C117 1.328 . S
C113 C119 1.516 . S
C114 C115 1.304 . S
C114 C118 1.323 . S
C115 C114 1.304 . S
C115 C116 1.371 . S
C115 H124 0.930 . S
C116 C113 1.344 . S
C116 C115 1.371 . S
C116 H125 0.931 . S
C117 C113 1.328 . S
C117 C118 1.433 . S
C117 H126 0.931 . S
C118 C114 1.323 . S
C118 C117 1.433 . S
C118 H127 0.933 . S
C119 Dy89 2.738 1_565 S
C119 O99 1.255 . S
C119 O100 1.249 . S
C119 C113 1.516 . S
H120 C106 0.930 . S
H121 C107 0.931 . S
H122 C108 0.931 . S
H123 C109 0.933 . S
H124 C115 0.930 . S
H125 C116 0.931 . S
H126 C117 0.931 . S
H127 C118 0.933 . S
Dy128 O131 2.307 . S
Dy128 O133 2.395 1_545 S
Dy128 O134 2.379 1_554 S
Dy128 O136 2.339 . S
Dy128 O138 2.298 . S
Dy128 O142 2.280 . S
Dy128 C150 2.738 1_544 S
Dy129 O132 2.298 . S
Dy129 O135 2.275 . S
Dy129 O137 2.307 . S
Dy129 O139 2.395 . S
Dy129 O140 2.379 . S
Dy129 O143 2.339 1_545 S
Dy129 C159 2.738 . S
C130 O142 1.249 1_565 S
C130 O143 1.257 . S
O131 Dy128 2.307 . S
O131 C141 1.266 . S
O132 Dy129 2.298 . S
O132 C141 1.236 . S
O133 Dy128 2.395 1_565 S
O133 C150 1.255 1_554 S
O134 Dy128 2.379 1_556 S
O134 C150 1.249 1_545 S
O135 Dy129 2.275 . S
O135 C151 1.254 . S
O136 Dy128 2.339 . S
O136 C151 1.257 . S
O137 Dy129 2.307 . S
O137 C152 1.266 1_545 S
O138 Dy128 2.298 . S
O138 C152 1.236 1_545 S
O139 Dy129 2.395 . S
O139 C159 1.255 . S
O140 Dy129 2.379 . S
O140 C159 1.249 . S
C141 O131 1.266 . S
C141 O132 1.236 . S
O142 Dy128 2.280 . S
O142 C130 1.249 1_545 S
O143 Dy129 2.339 1_565 S
O143 C130 1.257 . S
C144 C147 1.344 . S
C144 C148 1.328 . S
C144 C150 1.516 . S
C145 C146 1.304 . S
C145 C149 1.323 . S
C146 C145 1.304 . S
C146 C147 1.371 . S
C146 H160 0.930 . S
C147 C144 1.344 . S
C147 C146 1.371 . S
C147 H161 0.931 . S
C148 C144 1.328 . S
C148 C149 1.433 . S
C148 H162 0.931 . S
C149 C145 1.323 . S
C149 C148 1.433 . S
C149 H163 0.933 . S
C150 Dy128 2.738 1_566 S
C150 O133 1.255 1_556 S
C150 O134 1.249 1_565 S
C150 C144 1.516 . S
C151 O135 1.254 . S
C151 O136 1.257 . S
C152 O137 1.266 1_565 S
C152 O138 1.236 1_565 S
C153 C156 1.344 . S
C153 C157 1.328 . S
C153 C159 1.516 . S
C154 C155 1.304 . S
C154 C158 1.323 . S
C155 C154 1.304 . S
C155 C156 1.371 . S
C155 H164 0.930 . S
C156 C153 1.344 . S
C156 C155 1.371 . S
C156 H165 0.931 . S
C157 C153 1.328 . S
C157 C158 1.433 . S
C157 H166 0.931 . S
C158 C154 1.323 . S
C158 C157 1.433 . S
C158 H167 0.933 . S
C159 Dy129 2.738 . S
C159 O139 1.255 . S
C159 O140 1.249 . S
C159 C153 1.516 . S
H160 C146 0.930 . S
H161 C147 0.931 . S
H162 C148 0.931 . S
H163 C149 0.933 . S
H164 C155 0.930 . S
H165 C156 0.931 . S
H166 C157 0.931 . S
H167 C158 0.933 . S
Dy168 O171 2.307 . S
Dy168 O173 2.395 . S
Dy168 O174 2.379 . S
Dy168 O176 2.339 . S
Dy168 O178 2.298 . S
Dy168 O182 2.275 . S
Dy168 C190 2.738 . S
Dy169 O172 2.298 . S
Dy169 O175 2.275 . S
Dy169 O177 2.307 . S
Dy169 O179 2.395 . S
Dy169 O180 2.379 . S
Dy169 O183 2.339 . S
Dy169 C199 2.738 . S
C170 O182 1.254 . S
C170 O183 1.257 . S
O171 Dy168 2.307 . S
O171 C181 1.266 . S
O172 Dy169 2.298 . S
O172 C181 1.236 . S
O173 Dy168 2.395 . S
O173 C190 1.255 . S
O174 Dy168 2.379 . S
O174 C190 1.249 . S
O175 Dy169 2.275 . S
O175 C191 1.254 . S
O176 Dy168 2.339 . S
O176 C191 1.257 . S
O177 Dy169 2.307 . S
O177 C192 1.266 . S
O178 Dy168 2.298 . S
O178 C192 1.236 . S
O179 Dy169 2.395 . S
O179 C199 1.255 . S
O180 Dy169 2.379 . S
O180 C199 1.249 . S
C181 O171 1.266 . S
C181 O172 1.236 . S
O182 Dy168 2.275 . S
O182 C170 1.254 . S
O183 Dy169 2.339 . S
O183 C170 1.257 . S
C184 C187 1.344 . S
C184 C188 1.328 . S
C184 C190 1.516 . S
C185 C186 1.304 . S
C185 C189 1.323 . S
C186 C185 1.304 . S
C186 C187 1.371 . S
C186 H200 0.930 . S
C187 C184 1.344 . S
C187 C186 1.371 . S
C187 H201 0.931 . S
C188 C184 1.328 . S
C188 C189 1.433 . S
C188 H202 0.931 . S
C189 C185 1.323 . S
C189 C188 1.433 . S
C189 H203 0.933 . S
C190 Dy168 2.738 . S
C190 O173 1.255 . S
C190 O174 1.249 . S
C190 C184 1.516 . S
C191 O175 1.254 . S
C191 O176 1.257 . S
C192 O177 1.266 . S
C192 O178 1.236 . S
C193 C196 1.344 . S
C193 C197 1.328 . S
C193 C199 1.516 . S
C194 C195 1.304 . S
C194 C198 1.323 . S
C195 C194 1.304 . S
C195 C196 1.371 . S
C195 H204 0.930 . S
C196 C193 1.344 . S
C196 C195 1.371 . S
C196 H205 0.931 . S
C197 C193 1.328 . S
C197 C198 1.433 . S
C197 H206 0.931 . S
C198 C194 1.323 . S
C198 C197 1.433 . S
C198 H207 0.933 . S
C199 Dy169 2.738 . S
C199 O179 1.255 . S
C199 O180 1.249 . S
C199 C193 1.516 . S
H200 C186 0.930 . S
H201 C187 0.931 . S
H202 C188 0.931 . S
H203 C189 0.933 . S
H204 C195 0.930 . S
H205 C196 0.931 . S
H206 C197 0.931 . S
H207 C198 0.933 . S
Dy208 O211 2.307 1_556 S
Dy208 O213 2.395 1_455 S
Dy208 O214 2.379 . S
Dy208 O216 2.339 . S
Dy208 O218 2.298 1_455 S
Dy208 O222 2.275 1_556 S
Dy208 C230 2.738 1_455 S
Dy209 O212 2.298 . S
Dy209 O215 2.275 1_554 S
Dy209 O217 2.307 1_455 S
Dy209 O219 2.395 . S
Dy209 O220 2.379 . S
Dy209 O223 2.339 . S
Dy209 C239 2.738 . S
C210 O222 1.254 1_655 S
C210 O223 1.257 1_655 S
O211 Dy208 2.307 1_554 S
O211 C221 1.266 . S
O212 Dy209 2.298 . S
O212 C221 1.236 . S
O213 Dy208 2.395 1_655 S
O213 C230 1.255 . S
O214 Dy208 2.379 . S
O214 C230 1.249 1_455 S
O215 Dy209 2.275 1_556 S
O215 C231 1.254 . S
O216 Dy208 2.339 . S
O216 C231 1.257 . S
O217 Dy209 2.307 1_655 S
O217 C232 1.266 1_554 S
O218 Dy208 2.298 1_655 S
O218 C232 1.236 . S
O219 Dy209 2.395 . S
O219 C239 1.255 . S
O220 Dy209 2.379 . S
O220 C239 1.249 . S
C221 O211 1.266 . S
C221 O212 1.236 . S
O222 Dy208 2.275 1_554 S
O222 C210 1.254 1_455 S
O223 Dy209 2.339 . S
O223 C210 1.257 1_455 S
C224 C227 1.344 . S
C224 C228 1.328 . S
C224 C230 1.516 . S
C225 C226 1.304 . S
C225 C229 1.323 . S
C226 C225 1.304 . S
C226 C227 1.371 . S
C226 H240 0.930 . S
C227 C224 1.344 . S
C227 C226 1.371 . S
C227 H241 0.931 . S
C228 C224 1.328 . S
C228 C229 1.433 . S
C228 H242 0.931 . S
C229 C225 1.323 . S
C229 C228 1.433 . S
C229 H243 0.933 . S
C230 Dy208 2.738 1_655 S
C230 O213 1.255 . S
C230 O214 1.249 1_655 S
C230 C224 1.516 . S
C231 O215 1.254 . S
C231 O216 1.257 . S
C232 O217 1.266 1_556 S
C232 O218 1.236 . S
C233 C236 1.344 . S
C233 C237 1.328 . S
C233 C239 1.516 . S
C234 C235 1.304 . S
C234 C238 1.323 . S
C235 C234 1.304 . S
C235 C236 1.371 . S
C235 H244 0.930 . S
C236 C233 1.344 . S
C236 C235 1.371 . S
C236 H245 0.931 . S
C237 C233 1.328 . S
C237 C238 1.433 . S
C237 H246 0.931 . S
C238 C234 1.323 . S
C238 C237 1.433 . S
C238 H247 0.933 . S
C239 Dy209 2.738 . S
C239 O219 1.255 . S
C239 O220 1.249 . S
C239 C233 1.516 . S
H240 C226 0.930 . S
H241 C227 0.931 . S
H242 C228 0.931 . S
H243 C229 0.933 . S
H244 C235 0.930 . S
H245 C236 0.931 . S
H246 C237 0.931 . S
H247 C238 0.933 . S
H248 C256 0.929 . S
H249 C258 0.930 . S
H250 C260 0.930 . S
H251 C263 0.929 . S
H252 C266 0.930 . S
H253 C268 0.960 . S
H254 C268 0.960 . S
H255 C268 0.960 . S
C256 H248 0.929 . S
C256 C257 1.377 . S
C256 C258 1.384 . S
C257 C256 1.377 . S
C257 C263 1.390 . S
C258 H249 0.930 . S
C258 C256 1.384 . S
C258 C259 1.372 . S
C259 C258 1.372 . S
C259 C260 1.400 . S
C259 C264 1.490 . S
C260 H250 0.930 . S
C260 C259 1.400 . S
C260 C263 1.386 . S
H261 C277 0.930 . S
H262 C278 0.931 . S
C263 H251 0.929 . S
C263 C257 1.390 . S
C263 C260 1.386 . S
C264 C259 1.490 . S
C264 C266 1.395 . S
C264 C267 1.403 . S
H265 C271 0.930 . S
C266 H252 0.930 . S
C266 C264 1.395 . S
C266 C269 1.403 . S
C267 C264 1.403 . S
C267 C268 1.524 . S
C267 C271 1.400 . S
C268 H253 0.960 . S
C268 H254 0.960 . S
C268 H255 0.960 . S
C268 C267 1.524 . S
C269 C266 1.403 . S
C269 C270 1.392 . S
C269 C273 1.495 . S
C270 C269 1.392 . S
C270 C271 1.385 . S
C270 C272 1.478 . S
C271 H265 0.930 . S
C271 C267 1.400 . S
C271 C270 1.385 . S
C272 C270 1.478 . S
C272 C274 1.381 . S
C272 C278 1.383 . S
C273 C269 1.495 . S
C273 H279 0.959 . S
C273 H280 0.961 . S
C273 H281 0.960 . S
C274 C272 1.381 . S
C274 C275 1.394 . S
C274 H282 0.930 . S
C275 C274 1.394 . S
C275 C276 1.383 . S
C275 H283 0.929 . S
C276 C275 1.383 . S
C276 C277 1.377 . S
C277 H261 0.930 . S
C277 C276 1.377 . S
C277 C278 1.379 . S
C278 H262 0.931 . S
C278 C272 1.383 . S
C278 C277 1.379 . S
H279 C273 0.959 . S
H280 C273 0.961 . S
H281 C273 0.960 . S
H282 C274 0.930 . S
H283 C275 0.929 . S
H284 C292 0.929 . S
H285 C294 0.930 . S
H286 C296 0.930 . S
H287 C299 0.929 . S
H288 C302 0.930 . S
H289 C304 0.960 . S
H290 C304 0.960 . S
H291 C304 0.960 . S
C292 H284 0.929 . S
C292 C293 1.377 . S
C292 C294 1.384 . S
C293 C292 1.377 . S
C293 C299 1.390 . S
C294 H285 0.930 . S
C294 C292 1.384 . S
C294 C295 1.372 . S
C295 C294 1.372 . S
C295 C296 1.400 . S
C295 C300 1.490 . S
C296 H286 0.930 . S
C296 C295 1.400 . S
C296 C299 1.386 . S
H297 C313 0.930 . S
H298 C314 0.931 . S
C299 H287 0.929 . S
C299 C293 1.390 . S
C299 C296 1.386 . S
C300 C295 1.490 . S
C300 C302 1.395 . S
C300 C303 1.403 . S
H301 C307 0.930 . S
C302 H288 0.930 . S
C302 C300 1.395 . S
C302 C305 1.403 . S
C303 C300 1.403 . S
C303 C304 1.524 . S
C303 C307 1.400 . S
C304 H289 0.960 . S
C304 H290 0.960 . S
C304 H291 0.960 . S
C304 C303 1.524 . S
C305 C302 1.403 . S
C305 C306 1.392 . S
C305 C309 1.495 . S
C306 C305 1.392 . S
C306 C307 1.385 . S
C306 C308 1.478 . S
C307 H301 0.930 . S
C307 C303 1.400 . S
C307 C306 1.385 . S
C308 C306 1.478 . S
C308 C310 1.381 . S
C308 C314 1.383 . S
C309 C305 1.495 . S
C309 H315 0.959 . S
C309 H316 0.961 . S
C309 H317 0.960 . S
C310 C308 1.381 . S
C310 C311 1.394 . S
C310 H318 0.930 . S
C311 C310 1.394 . S
C311 C312 1.383 . S
C311 H319 0.929 . S
C312 C311 1.383 . S
C312 C313 1.377 . S
C313 H297 0.930 . S
C313 C312 1.377 . S
C313 C314 1.379 . S
C314 H298 0.931 . S
C314 C308 1.383 . S
C314 C313 1.379 . S
H315 C309 0.959 . S
H316 C309 0.961 . S
H317 C309 0.960 . S
H318 C310 0.930 . S
H319 C311 0.929 . S
H320 C328 0.929 . S
H321 C330 0.930 . S
H322 C332 0.930 . S
H323 C335 0.929 . S
H324 C338 0.930 . S
H325 C340 0.960 . S
H326 C340 0.960 . S
H327 C340 0.960 . S
C328 H320 0.929 . S
C328 C329 1.377 . S
C328 C330 1.384 . S
C329 C328 1.377 . S
C329 C335 1.390 . S
C330 H321 0.930 . S
C330 C328 1.384 . S
C330 C331 1.372 . S
C331 C330 1.372 . S
C331 C332 1.400 . S
C331 C336 1.490 . S
C332 H322 0.930 . S
C332 C331 1.400 . S
C332 C335 1.386 . S
H333 C349 0.930 . S
H334 C350 0.931 . S
C335 H323 0.929 . S
C335 C329 1.390 . S
C335 C332 1.386 . S
C336 C331 1.490 . S
C336 C338 1.395 . S
C336 C339 1.403 . S
H337 C343 0.930 . S
C338 H324 0.930 . S
C338 C336 1.395 . S
C338 C341 1.403 . S
C339 C336 1.403 . S
C339 C340 1.524 . S
C339 C343 1.400 . S
C340 H325 0.960 . S
C340 H326 0.960 . S
C340 H327 0.960 . S
C340 C339 1.524 . S
C341 C338 1.403 . S
C341 C342 1.392 . S
C341 C345 1.495 . S
C342 C341 1.392 . S
C342 C343 1.385 . S
C342 C344 1.478 . S
C343 H337 0.930 . S
C343 C339 1.400 . S
C343 C342 1.385 . S
C344 C342 1.478 . S
C344 C346 1.381 . S
C344 C350 1.383 . S
C345 C341 1.495 . S
C345 H351 0.959 . S
C345 H352 0.961 . S
C345 H353 0.960 . S
C346 C344 1.381 . S
C346 C347 1.394 . S
C346 H354 0.930 . S
C347 C346 1.394 . S
C347 C348 1.383 . S
C347 H355 0.929 . S
C348 C347 1.383 . S
C348 C349 1.377 . S
C349 H333 0.930 . S
C349 C348 1.377 . S
C349 C350 1.379 . S
C350 H334 0.931 . S
C350 C344 1.383 . S
C350 C349 1.379 . S
H351 C345 0.959 . S
H352 C345 0.961 . S
H353 C345 0.960 . S
H354 C346 0.930 . S
H355 C347 0.929 . S
H356 C364 0.929 . S
H357 C366 0.930 . S
H358 C368 0.930 . S
H359 C371 0.929 . S
H360 C374 0.930 . S
H361 C376 0.960 . S
H362 C376 0.960 . S
H363 C376 0.960 . S
C364 H356 0.929 . S
C364 C365 1.377 . S
C364 C366 1.384 . S
C365 C364 1.377 . S
C365 C371 1.390 . S
C366 H357 0.930 . S
C366 C364 1.384 . S
C366 C367 1.372 . S
C367 C366 1.372 . S
C367 C368 1.400 . S
C367 C372 1.490 . S
C368 H358 0.930 . S
C368 C367 1.400 . S
C368 C371 1.386 . S
H369 C385 0.930 . S
H370 C386 0.931 . S
C371 H359 0.929 . S
C371 C365 1.390 . S
C371 C368 1.386 . S
C372 C367 1.490 . S
C372 C374 1.395 . S
C372 C375 1.403 . S
H373 C379 0.930 . S
C374 H360 0.930 . S
C374 C372 1.395 . S
C374 C377 1.403 . S
C375 C372 1.403 . S
C375 C376 1.524 . S
C375 C379 1.400 . S
C376 H361 0.960 . S
C376 H362 0.960 . S
C376 H363 0.960 . S
C376 C375 1.524 . S
C377 C374 1.403 . S
C377 C378 1.392 . S
C377 C381 1.495 . S
C378 C377 1.392 . S
C378 C379 1.385 . S
C378 C380 1.478 . S
C379 H373 0.930 . S
C379 C375 1.400 . S
C379 C378 1.385 . S
C380 C378 1.478 . S
C380 C382 1.381 . S
C380 C386 1.383 . S
C381 C377 1.495 . S
C381 H387 0.959 1_655 S
C381 H388 0.961 1_655 S
C381 H389 0.960 . S
C382 C380 1.381 . S
C382 C383 1.394 . S
C382 H390 0.930 . S
C383 C382 1.394 . S
C383 C384 1.383 . S
C383 H391 0.929 . S
C384 C383 1.383 . S
C384 C385 1.377 . S
C385 H369 0.930 . S
C385 C384 1.377 . S
C385 C386 1.379 . S
C386 H370 0.931 . S
C386 C380 1.383 . S
C386 C385 1.379 . S
H387 C381 0.959 1_455 S
H388 C381 0.961 1_455 S
H389 C381 0.960 . S
H390 C382 0.930 . S
H391 C383 0.929 . S
H392 C400 0.929 . S
H393 C402 0.930 . S
H394 C404 0.930 . S
H395 C407 0.929 . S
H396 C410 0.930 . S
H397 C412 0.960 . S
H398 C412 0.960 . S
H399 C412 0.960 . S
C400 H392 0.929 . S
C400 C401 1.377 . S
C400 C402 1.384 . S
C401 C400 1.377 . S
C401 C407 1.390 . S
C402 H393 0.930 . S
C402 C400 1.384 . S
C402 C403 1.372 . S
C403 C402 1.372 . S
C403 C404 1.400 . S
C403 C408 1.490 . S
C404 H394 0.930 . S
C404 C403 1.400 . S
C404 C407 1.386 . S
H405 C421 0.930 . S
H406 C422 0.931 . S
C407 H395 0.929 . S
C407 C401 1.390 . S
C407 C404 1.386 . S
C408 C403 1.490 . S
C408 C410 1.395 . S
C408 C411 1.403 . S
H409 C415 0.930 . S
C410 H396 0.930 . S
C410 C408 1.395 . S
C410 C413 1.403 . S
C411 C408 1.403 . S
C411 C412 1.524 . S
C411 C415 1.400 . S
C412 H397 0.960 . S
C412 H398 0.960 . S
C412 H399 0.960 . S
C412 C411 1.524 . S
C413 C410 1.403 . S
C413 C414 1.392 . S
C413 C417 1.495 . S
C414 C413 1.392 . S
C414 C415 1.385 . S
C414 C416 1.478 . S
C415 H409 0.930 . S
C415 C411 1.400 . S
C415 C414 1.385 . S
C416 C414 1.478 . S
C416 C418 1.381 . S
C416 C422 1.383 . S
C417 C413 1.495 . S
C417 H423 0.959 . S
C417 H424 0.961 . S
C417 H425 0.960 . S
C418 C416 1.381 . S
C418 C419 1.394 . S
C418 H426 0.930 . S
C419 C418 1.394 . S
C419 C420 1.383 . S
C419 H427 0.929 . S
C420 C419 1.383 . S
C420 C421 1.377 . S
C421 H405 0.930 . S
C421 C420 1.377 . S
C421 C422 1.379 . S
C422 H406 0.931 . S
C422 C416 1.383 . S
C422 C421 1.379 . S
H423 C417 0.959 . S
H424 C417 0.961 . S
H425 C417 0.960 . S
H426 C418 0.930 . S
H427 C419 0.929 . S
H428 C436 0.929 . S
H429 C438 0.930 . S
H430 C440 0.930 . S
H431 C443 0.929 . S
H432 C446 0.930 . S
H433 C448 0.960 . S
H434 C448 0.960 . S
H435 C448 0.960 . S
C436 H428 0.929 . S
C436 C437 1.377 . S
C436 C438 1.384 . S
C437 C436 1.377 . S
C437 C443 1.390 . S
C438 H429 0.930 . S
C438 C436 1.384 . S
C438 C439 1.372 . S
C439 C438 1.372 . S
C439 C440 1.400 . S
C439 C444 1.490 . S
C440 H430 0.930 . S
C440 C439 1.400 . S
C440 C443 1.386 . S
H441 C457 0.930 . S
H442 C458 0.931 . S
C443 H431 0.929 . S
C443 C437 1.390 . S
C443 C440 1.386 . S
C444 C439 1.490 . S
C444 C446 1.395 . S
C444 C447 1.403 . S
H445 C451 0.930 . S
C446 H432 0.930 . S
C446 C444 1.395 . S
C446 C449 1.403 . S
C447 C444 1.403 . S
C447 C448 1.524 . S
C447 C451 1.400 . S
C448 H433 0.960 . S
C448 H434 0.960 . S
C448 H435 0.960 . S
C448 C447 1.524 . S
C449 C446 1.403 . S
C449 C450 1.392 . S
C449 C453 1.495 . S
C450 C449 1.392 . S
C450 C451 1.385 . S
C450 C452 1.478 . S
C451 H445 0.930 . S
C451 C447 1.400 . S
C451 C450 1.385 . S
C452 C450 1.478 . S
C452 C454 1.381 . S
C452 C458 1.383 . S
C453 C449 1.495 . S
C453 H459 0.959 . S
C453 H460 0.961 . S
C453 H461 0.960 . S
C454 C452 1.381 . S
C454 C455 1.394 . S
C454 H462 0.930 . S
C455 C454 1.394 . S
C455 C456 1.383 . S
C455 H463 0.929 . S
C456 C455 1.383 . S
C456 C457 1.377 . S
C457 H441 0.930 . S
C457 C456 1.377 . S
C457 C458 1.379 . S
C458 H442 0.931 . S
C458 C452 1.383 . S
C458 C457 1.379 . S
H459 C453 0.959 . S
H460 C453 0.961 . S
H461 C453 0.960 . S
H462 C454 0.930 . S
H463 C455 0.929 . S
H464 C472 0.929 . S
H465 C474 0.930 . S
H466 C476 0.930 . S
H467 C479 0.929 . S
H468 C482 0.930 . S
H469 C484 0.960 . S
H470 C484 0.960 . S
H471 C484 0.960 . S
C472 H464 0.929 . S
C472 C473 1.377 . S
C472 C474 1.384 . S
C473 C472 1.377 . S
C473 C479 1.390 . S
C474 H465 0.930 . S
C474 C472 1.384 . S
C474 C475 1.372 . S
C475 C474 1.372 . S
C475 C476 1.400 . S
C475 C480 1.490 . S
C476 H466 0.930 . S
C476 C475 1.400 . S
C476 C479 1.386 . S
H477 C493 0.930 . S
H478 C494 0.931 . S
C479 H467 0.929 . S
C479 C473 1.390 . S
C479 C476 1.386 . S
C480 C475 1.490 . S
C480 C482 1.395 . S
C480 C483 1.403 . S
H481 C487 0.930 . S
C482 H468 0.930 . S
C482 C480 1.395 . S
C482 C485 1.403 . S
C483 C480 1.403 . S
C483 C484 1.524 . S
C483 C487 1.400 . S
C484 H469 0.960 . S
C484 H470 0.960 . S
C484 H471 0.960 . S
C484 C483 1.524 . S
C485 C482 1.403 . S
C485 C486 1.392 . S
C485 C489 1.495 . S
C486 C485 1.392 . S
C486 C487 1.385 . S
C486 C488 1.478 . S
C487 H481 0.930 . S
C487 C483 1.400 . S
C487 C486 1.385 . S
C488 C486 1.478 . S
C488 C490 1.381 . S
C488 C494 1.383 . S
C489 C485 1.495 . S
C489 H495 0.959 . S
C489 H496 0.961 . S
C489 H497 0.960 . S
C490 C488 1.381 . S
C490 C491 1.394 . S
C490 H498 0.930 . S
C491 C490 1.394 . S
C491 C492 1.383 . S
C491 H499 0.929 1_556 S
C492 C491 1.383 . S
C492 C493 1.377 . S
C493 H477 0.930 . S
C493 C492 1.377 . S
C493 C494 1.379 . S
C494 H478 0.931 . S
C494 C488 1.383 . S
C494 C493 1.379 . S
H495 C489 0.959 . S
H496 C489 0.961 . S
H497 C489 0.960 . S
H498 C490 0.930 . S
H499 C491 0.929 1_554 S
H500 C508 0.929 . S
H501 C510 0.930 . S
H502 C512 0.930 . S
H503 C515 0.929 . S
H504 C518 0.930 . S
H505 C520 0.960 . S
H506 C520 0.960 . S
H507 C520 0.960 . S
C508 H500 0.929 . S
C508 C509 1.377 . S
C508 C510 1.384 . S
C509 C508 1.377 . S
C509 C515 1.390 . S
C510 H501 0.930 . S
C510 C508 1.384 . S
C510 C511 1.372 . S
C511 C510 1.372 . S
C511 C512 1.400 . S
C511 C516 1.490 . S
C512 H502 0.930 . S
C512 C511 1.400 . S
C512 C515 1.386 . S
H513 C529 0.930 . S
H514 C530 0.931 . S
C515 H503 0.929 . S
C515 C509 1.390 . S
C515 C512 1.386 . S
C516 C511 1.490 . S
C516 C518 1.395 . S
C516 C519 1.403 . S
H517 C523 0.930 . S
C518 H504 0.930 . S
C518 C516 1.395 . S
C518 C521 1.403 . S
C519 C516 1.403 . S
C519 C520 1.524 . S
C519 C523 1.400 . S
C520 H505 0.960 . S
C520 H506 0.960 . S
C520 H507 0.960 . S
C520 C519 1.524 . S
C521 C518 1.403 . S
C521 C522 1.392 . S
C521 C525 1.495 . S
C522 C521 1.392 . S
C522 C523 1.385 . S
C522 C524 1.478 . S
C523 H517 0.930 . S
C523 C519 1.400 . S
C523 C522 1.385 . S
C524 C522 1.478 . S
C524 C526 1.381 . S
C524 C530 1.383 . S
C525 C521 1.495 . S
C525 H531 0.959 . S
C525 H532 0.961 . S
C525 H533 0.960 . S
C526 C524 1.381 . S
C526 C527 1.394 . S
C526 H534 0.930 . S
C527 C526 1.394 . S
C527 C528 1.383 . S
C527 H535 0.929 . S
C528 C527 1.383 . S
C528 C529 1.377 . S
C529 H513 0.930 . S
C529 C528 1.377 . S
C529 C530 1.379 . S
C530 H514 0.931 . S
C530 C524 1.383 . S
C530 C529 1.379 . S
H531 C525 0.959 . S
H532 C525 0.961 . S
H533 C525 0.960 . S
H534 C526 0.930 . S
H535 C527 0.929 . S
H536 C544 0.929 . S
H537 C546 0.930 . S
H538 C548 0.930 . S
H539 C551 0.929 . S
H540 C554 0.930 . S
H541 C556 0.960 . S
H542 C556 0.960 . S
H543 C556 0.960 . S
C544 H536 0.929 . S
C544 C545 1.377 . S
C544 C546 1.384 . S
C545 C544 1.377 . S
C545 C551 1.390 . S
C546 H537 0.930 . S
C546 C544 1.384 . S
C546 C547 1.372 . S
C547 C546 1.372 . S
C547 C548 1.400 . S
C547 C552 1.490 . S
C548 H538 0.930 . S
C548 C547 1.400 . S
C548 C551 1.386 . S
H549 C565 0.930 . S
H550 C566 0.931 . S
C551 H539 0.929 . S
C551 C545 1.390 . S
C551 C548 1.386 . S
C552 C547 1.490 . S
C552 C554 1.395 . S
C552 C555 1.403 . S
H553 C559 0.930 . S
C554 H540 0.930 . S
C554 C552 1.395 . S
C554 C557 1.403 . S
C555 C552 1.403 . S
C555 C556 1.524 . S
C555 C559 1.400 . S
C556 H541 0.960 . S
C556 H542 0.960 . S
C556 H543 0.960 . S
C556 C555 1.524 . S
C557 C554 1.403 . S
C557 C558 1.392 . S
C557 C561 1.495 . S
C558 C557 1.392 . S
C558 C559 1.385 . S
C558 C560 1.478 . S
C559 H553 0.930 . S
C559 C555 1.400 . S
C559 C558 1.385 . S
C560 C558 1.478 . S
C560 C562 1.381 . S
C560 C566 1.383 . S
C561 C557 1.495 . S
C561 H567 0.959 . S
C561 H568 0.961 . S
C561 H569 0.960 . S
C562 C560 1.381 . S
C562 C563 1.394 . S
C562 H570 0.930 . S
C563 C562 1.394 . S
C563 C564 1.383 . S
C563 H571 0.929 . S
C564 C563 1.383 . S
C564 C565 1.377 . S
C565 H549 0.930 . S
C565 C564 1.377 . S
C565 C566 1.379 . S
C566 H550 0.931 . S
C566 C560 1.383 . S
C566 C565 1.379 . S
H567 C561 0.959 . S
H568 C561 0.961 . S
H569 C561 0.960 . S
H570 C562 0.930 . S
H571 C563 0.929 . S
H572 C580 0.929 . S
H573 C582 0.930 . S
H574 C584 0.930 . S
H575 C587 0.929 . S
H576 C590 0.930 . S
H577 C592 0.960 1_554 S
H578 C592 0.960 . S
H579 C592 0.960 . S
C580 H572 0.929 . S
C580 C581 1.377 . S
C580 C582 1.384 . S
C581 C580 1.377 . S
C581 C587 1.390 . S
C582 H573 0.930 . S
C582 C580 1.384 . S
C582 C583 1.372 . S
C583 C582 1.372 . S
C583 C584 1.400 . S
C583 C588 1.490 . S
C584 H574 0.930 . S
C584 C583 1.400 . S
C584 C587 1.386 . S
H585 C601 0.930 . S
H586 C602 0.931 . S
C587 H575 0.929 . S
C587 C581 1.390 . S
C587 C584 1.386 . S
C588 C583 1.490 . S
C588 C590 1.395 . S
C588 C591 1.403 . S
H589 C595 0.930 . S
C590 H576 0.930 . S
C590 C588 1.395 . S
C590 C593 1.403 . S
C591 C588 1.403 . S
C591 C592 1.524 . S
C591 C595 1.400 . S
C592 H577 0.960 1_556 S
C592 H578 0.960 . S
C592 H579 0.960 . S
C592 C591 1.524 . S
C593 C590 1.403 . S
C593 C594 1.392 . S
C593 C597 1.495 . S
C594 C593 1.392 . S
C594 C595 1.385 . S
C594 C596 1.478 . S
C595 H589 0.930 . S
C595 C591 1.400 . S
C595 C594 1.385 . S
C596 C594 1.478 . S
C596 C598 1.381 . S
C596 C602 1.383 . S
C597 C593 1.495 . S
C597 H603 0.959 . S
C597 H604 0.961 . S
C597 H605 0.960 . S
C598 C596 1.381 . S
C598 C599 1.394 . S
C598 H606 0.930 . S
C599 C598 1.394 . S
C599 C600 1.383 1_556 S
C599 H607 0.929 . S
C600 C599 1.383 1_554 S
C600 C601 1.377 . S
C601 H585 0.930 . S
C601 C600 1.377 . S
C601 C602 1.379 1_554 S
C602 H586 0.931 . S
C602 C596 1.383 . S
C602 C601 1.379 1_556 S
H603 C597 0.959 . S
H604 C597 0.961 . S
H605 C597 0.960 . S
H606 C598 0.930 . S
H607 C599 0.929 . S
H608 C616 0.929 . S
H609 C618 0.930 . S
H610 C620 0.930 . S
H611 C623 0.929 . S
H612 C626 0.930 . S
H613 C628 0.960 . S
H614 C628 0.960 . S
H615 C628 0.960 . S
C616 H608 0.929 . S
C616 C617 1.377 . S
C616 C618 1.384 . S
C617 C616 1.377 . S
C617 C623 1.390 . S
C618 H609 0.930 . S
C618 C616 1.384 . S
C618 C619 1.372 . S
C619 C618 1.372 . S
C619 C620 1.400 . S
C619 C624 1.490 . S
C620 H610 0.930 . S
C620 C619 1.400 . S
C620 C623 1.386 . S
H621 C637 0.930 1_455 S
H622 C638 0.931 . S
C623 H611 0.929 . S
C623 C617 1.390 . S
C623 C620 1.386 . S
C624 C619 1.490 . S
C624 C626 1.395 . S
C624 C627 1.403 . S
H625 C631 0.930 . S
C626 H612 0.930 . S
C626 C624 1.395 . S
C626 C629 1.403 . S
C627 C624 1.403 . S
C627 C628 1.524 . S
C627 C631 1.400 . S
C628 H613 0.960 . S
C628 H614 0.960 . S
C628 H615 0.960 . S
C628 C627 1.524 . S
C629 C626 1.403 . S
C629 C630 1.392 . S
C629 C633 1.495 . S
C630 C629 1.392 . S
C630 C631 1.385 . S
C630 C632 1.478 . S
C631 H625 0.930 . S
C631 C627 1.400 . S
C631 C630 1.385 . S
C632 C630 1.478 . S
C632 C634 1.381 . S
C632 C638 1.383 . S
C633 C629 1.495 . S
C633 H639 0.959 . S
C633 H640 0.961 . S
C633 H641 0.960 . S
C634 C632 1.381 . S
C634 C635 1.394 . S
C634 H642 0.930 . S
C635 C634 1.394 . S
C635 C636 1.383 . S
C635 H643 0.929 . S
C636 C635 1.383 . S
C636 C637 1.377 . S
C637 H621 0.930 1_655 S
C637 C636 1.377 . S
C637 C638 1.379 . S
C638 H622 0.931 . S
C638 C632 1.383 . S
C638 C637 1.379 . S
H639 C633 0.959 . S
H640 C633 0.961 . S
H641 C633 0.960 . S
H642 C634 0.930 . S
H643 C635 0.929 . S
H644 C652 0.929 . S
H645 C654 0.930 . S
H646 C656 0.930 . S
H647 C659 0.929 . S
H648 C662 0.930 . S
H649 C664 0.960 . S
H650 C664 0.960 . S
H651 C664 0.960 . S
C652 H644 0.929 . S
C652 C653 1.377 . S
C652 C654 1.384 . S
C653 C652 1.377 . S
C653 C659 1.390 . S
C654 H645 0.930 . S
C654 C652 1.384 . S
C654 C655 1.372 . S
C655 C654 1.372 . S
C655 C656 1.400 . S
C655 C660 1.490 . S
C656 H646 0.930 . S
C656 C655 1.400 . S
C656 C659 1.386 . S
H657 C673 0.930 . S
H658 C674 0.931 . S
C659 H647 0.929 . S
C659 C653 1.390 . S
C659 C656 1.386 . S
C660 C655 1.490 . S
C660 C662 1.395 . S
C660 C663 1.403 . S
H661 C667 0.930 . S
C662 H648 0.930 . S
C662 C660 1.395 . S
C662 C665 1.403 . S
C663 C660 1.403 . S
C663 C664 1.524 . S
C663 C667 1.400 . S
C664 H649 0.960 . S
C664 H650 0.960 . S
C664 H651 0.960 . S
C664 C663 1.524 . S
C665 C662 1.403 . S
C665 C666 1.392 . S
C665 C669 1.495 . S
C666 C665 1.392 . S
C666 C667 1.385 . S
C666 C668 1.478 . S
C667 H661 0.930 . S
C667 C663 1.400 . S
C667 C666 1.385 . S
C668 C666 1.478 . S
C668 C670 1.381 . S
C668 C674 1.383 . S
C669 C665 1.495 . S
C669 H675 0.959 . S
C669 H676 0.961 . S
C669 H677 0.960 . S
C670 C668 1.381 . S
C670 C671 1.394 . S
C670 H678 0.930 . S
C671 C670 1.394 . S
C671 C672 1.383 . S
C671 H679 0.929 . S
C672 C671 1.383 . S
C672 C673 1.377 . S
C673 H657 0.930 . S
C673 C672 1.377 . S
C673 C674 1.379 . S
C674 H658 0.931 . S
C674 C668 1.383 . S
C674 C673 1.379 . S
H675 C669 0.959 . S
H676 C669 0.961 . S
H677 C669 0.960 . S
H678 C670 0.930 . S
H679 C671 0.929 . S
H680 C688 0.929 . S
H681 C690 0.930 . S
H682 C692 0.930 . S
H683 C695 0.929 . S
H684 C698 0.930 . S
H685 C700 0.960 . S
H686 C700 0.960 . S
H687 C700 0.960 . S
C688 H680 0.929 . S
C688 C689 1.377 . S
C688 C690 1.384 . S
C689 C688 1.377 . S
C689 C695 1.390 . S
C690 H681 0.930 . S
C690 C688 1.384 . S
C690 C691 1.372 . S
C691 C690 1.372 . S
C691 C692 1.400 . S
C691 C696 1.490 . S
C692 H682 0.930 . S
C692 C691 1.400 . S
C692 C695 1.386 . S
H693 C709 0.930 . S
H694 C710 0.931 . S
C695 H683 0.929 . S
C695 C689 1.390 . S
C695 C692 1.386 . S
C696 C691 1.490 . S
C696 C698 1.395 . S
C696 C699 1.403 . S
H697 C703 0.930 . S
C698 H684 0.930 . S
C698 C696 1.395 . S
C698 C701 1.403 . S
C699 C696 1.403 . S
C699 C700 1.524 . S
C699 C703 1.400 . S
C700 H685 0.960 . S
C700 H686 0.960 . S
C700 H687 0.960 . S
C700 C699 1.524 . S
C701 C698 1.403 . S
C701 C702 1.392 . S
C701 C705 1.495 . S
C702 C701 1.392 . S
C702 C703 1.385 . S
C702 C704 1.478 . S
C703 H697 0.930 . S
C703 C699 1.400 . S
C703 C702 1.385 . S
C704 C702 1.478 . S
C704 C706 1.381 . S
C704 C710 1.383 . S
C705 C701 1.495 . S
C705 H711 0.959 . S
C705 H712 0.961 . S
C705 H713 0.960 . S
C706 C704 1.381 . S
C706 C707 1.394 . S
C706 H714 0.930 . S
C707 C706 1.394 . S
C707 C708 1.383 . S
C707 H715 0.929 . S
C708 C707 1.383 . S
C708 C709 1.377 . S
C709 H693 0.930 . S
C709 C708 1.377 . S
C709 C710 1.379 . S
C710 H694 0.931 . S
C710 C704 1.383 . S
C710 C709 1.379 . S
H711 C705 0.959 . S
H712 C705 0.961 . S
H713 C705 0.960 . S
H714 C706 0.930 . S
H715 C707 0.929 . S
H716 C724 0.929 . S
H717 C726 0.930 . S
H718 C728 0.930 . S
H719 C731 0.929 . S
H720 C734 0.930 . S
H721 C736 0.960 . S
H722 C736 0.960 . S
H723 C736 0.960 . S
C724 H716 0.929 . S
C724 C725 1.377 . S
C724 C726 1.384 . S
C725 C724 1.377 . S
C725 C731 1.390 . S
C726 H717 0.930 . S
C726 C724 1.384 . S
C726 C727 1.372 . S
C727 C726 1.372 . S
C727 C728 1.400 . S
C727 C732 1.490 . S
C728 H718 0.930 . S
C728 C727 1.400 . S
C728 C731 1.386 . S
H729 C745 0.930 . S
H730 C746 0.931 . S
C731 H719 0.929 . S
C731 C725 1.390 . S
C731 C728 1.386 . S
C732 C727 1.490 . S
C732 C734 1.395 . S
C732 C735 1.403 . S
H733 C739 0.930 . S
C734 H720 0.930 . S
C734 C732 1.395 . S
C734 C737 1.403 . S
C735 C732 1.403 . S
C735 C736 1.524 . S
C735 C739 1.400 . S
C736 H721 0.960 . S
C736 H722 0.960 . S
C736 H723 0.960 . S
C736 C735 1.524 . S
C737 C734 1.403 . S
C737 C738 1.392 . S
C737 C741 1.495 . S
C738 C737 1.392 . S
C738 C739 1.385 . S
C738 C740 1.478 . S
C739 H733 0.930 . S
C739 C735 1.400 . S
C739 C738 1.385 . S
C740 C738 1.478 . S
C740 C742 1.381 . S
C740 C746 1.383 . S
C741 C737 1.495 . S
C741 H747 0.959 . S
C741 H748 0.961 . S
C741 H749 0.960 . S
C742 C740 1.381 . S
C742 C743 1.394 . S
C742 H750 0.930 . S
C743 C742 1.394 . S
C743 C744 1.383 . S
C743 H751 0.929 . S
C744 C743 1.383 . S
C744 C745 1.377 . S
C745 H729 0.930 . S
C745 C744 1.377 . S
C745 C746 1.379 . S
C746 H730 0.931 . S
C746 C740 1.383 . S
C746 C745 1.379 . S
H747 C741 0.959 . S
H748 C741 0.961 . S
H749 C741 0.960 . S
H750 C742 0.930 . S
H751 C743 0.929 . S
H752 C760 0.929 . S
H753 C762 0.930 . S
H754 C764 0.930 . S
H755 C767 0.929 . S
H756 C770 0.930 . S
H757 C772 0.960 . S
H758 C772 0.960 . S
H759 C772 0.960 . S
C760 H752 0.929 . S
C760 C761 1.377 . S
C760 C762 1.384 . S
C761 C760 1.377 . S
C761 C767 1.390 . S
C762 H753 0.930 . S
C762 C760 1.384 . S
C762 C763 1.372 . S
C763 C762 1.372 . S
C763 C764 1.400 . S
C763 C768 1.490 . S
C764 H754 0.930 . S
C764 C763 1.400 . S
C764 C767 1.386 . S
H765 C781 0.930 . S
H766 C782 0.931 . S
C767 H755 0.929 . S
C767 C761 1.390 . S
C767 C764 1.386 . S
C768 C763 1.490 . S
C768 C770 1.395 . S
C768 C771 1.403 . S
H769 C775 0.930 . S
C770 H756 0.930 . S
C770 C768 1.395 . S
C770 C773 1.403 . S
C771 C768 1.403 . S
C771 C772 1.524 . S
C771 C775 1.400 . S
C772 H757 0.960 . S
C772 H758 0.960 . S
C772 H759 0.960 . S
C772 C771 1.524 . S
C773 C770 1.403 . S
C773 C774 1.392 . S
C773 C777 1.495 . S
C774 C773 1.392 . S
C774 C775 1.385 . S
C774 C776 1.478 . S
C775 H769 0.930 . S
C775 C771 1.400 . S
C775 C774 1.385 . S
C776 C774 1.478 . S
C776 C778 1.381 . S
C776 C782 1.383 . S
C777 C773 1.495 . S
C777 H783 0.959 . S
C777 H784 0.961 . S
C777 H785 0.960 . S
C778 C776 1.381 . S
C778 C779 1.394 . S
C778 H786 0.930 . S
C779 C778 1.394 . S
C779 C780 1.383 . S
C779 H787 0.929 . S
C780 C779 1.383 . S
C780 C781 1.377 . S
C781 H765 0.930 . S
C781 C780 1.377 . S
C781 C782 1.379 . S
C782 H766 0.931 . S
C782 C776 1.383 . S
C782 C781 1.379 . S
H783 C777 0.959 . S
H784 C777 0.961 . S
H785 C777 0.960 . S
H786 C778 0.930 . S
H787 C779 0.929 . S
H788 C796 0.929 . S
H789 C798 0.930 . S
H790 C800 0.930 . S
H791 C803 0.929 . S
H792 C806 0.930 . S
H793 C808 0.960 . S
H794 C808 0.960 . S
H795 C808 0.960 . S
C796 H788 0.929 . S
C796 C797 1.377 . S
C796 C798 1.384 . S
C797 C796 1.377 . S
C797 C803 1.390 . S
C798 H789 0.930 . S
C798 C796 1.384 . S
C798 C799 1.372 . S
C799 C798 1.372 . S
C799 C800 1.400 . S
C799 C804 1.490 . S
C800 H790 0.930 . S
C800 C799 1.400 . S
C800 C803 1.386 . S
H801 C817 0.930 . S
H802 C818 0.931 . S
C803 H791 0.929 . S
C803 C797 1.390 . S
C803 C800 1.386 . S
C804 C799 1.490 . S
C804 C806 1.395 . S
C804 C807 1.403 . S
H805 C811 0.930 . S
C806 H792 0.930 . S
C806 C804 1.395 . S
C806 C809 1.403 . S
C807 C804 1.403 . S
C807 C808 1.524 . S
C807 C811 1.400 . S
C808 H793 0.960 . S
C808 H794 0.960 . S
C808 H795 0.960 . S
C808 C807 1.524 . S
C809 C806 1.403 . S
C809 C810 1.392 . S
C809 C813 1.495 . S
C810 C809 1.392 . S
C810 C811 1.385 . S
C810 C812 1.478 . S
C811 H805 0.930 . S
C811 C807 1.400 . S
C811 C810 1.385 . S
C812 C810 1.478 . S
C812 C814 1.381 . S
C812 C818 1.383 . S
C813 C809 1.495 . S
C813 H819 0.959 . S
C813 H820 0.961 . S
C813 H821 0.960 . S
C814 C812 1.381 . S
C814 C815 1.394 . S
C814 H822 0.930 . S
C815 C814 1.394 . S
C815 C816 1.383 . S
C815 H823 0.929 . S
C816 C815 1.383 . S
C816 C817 1.377 . S
C817 H801 0.930 . S
C817 C816 1.377 . S
C817 C818 1.379 . S
C818 H802 0.931 . S
C818 C812 1.383 . S
C818 C817 1.379 . S
H819 C813 0.959 . S
H820 C813 0.961 . S
H821 C813 0.960 . S
H822 C814 0.930 . S
H823 C815 0.929 . S
H824 C832 0.929 . S
H825 C834 0.930 . S
H826 C836 0.930 . S
H827 C839 0.929 . S
H828 C842 0.930 . S
H829 C844 0.960 . S
H830 C844 0.960 . S
H831 C844 0.960 . S
C832 H824 0.929 . S
C832 C833 1.377 . S
C832 C834 1.384 . S
C833 C832 1.377 . S
C833 C839 1.390 . S
C834 H825 0.930 . S
C834 C832 1.384 . S
C834 C835 1.372 . S
C835 C834 1.372 . S
C835 C836 1.400 . S
C835 C840 1.490 . S
C836 H826 0.930 . S
C836 C835 1.400 . S
C836 C839 1.386 . S
H837 C853 0.930 . S
H838 C854 0.931 1_554 S
C839 H827 0.929 . S
C839 C833 1.390 . S
C839 C836 1.386 . S
C840 C835 1.490 . S
C840 C842 1.395 . S
C840 C843 1.403 . S
H841 C847 0.930 . S
C842 H828 0.930 . S
C842 C840 1.395 . S
C842 C845 1.403 . S
C843 C840 1.403 . S
C843 C844 1.524 . S
C843 C847 1.400 . S
C844 H829 0.960 . S
C844 H830 0.960 . S
C844 H831 0.960 . S
C844 C843 1.524 . S
C845 C842 1.403 . S
C845 C846 1.392 . S
C845 C849 1.495 . S
C846 C845 1.392 . S
C846 C847 1.385 . S
C846 C848 1.478 . S
C847 H841 0.930 . S
C847 C843 1.400 . S
C847 C846 1.385 . S
C848 C846 1.478 . S
C848 C850 1.381 . S
C848 C854 1.383 . S
C849 C845 1.495 . S
C849 H855 0.959 . S
C849 H856 0.961 . S
C849 H857 0.960 . S
C850 C848 1.381 . S
C850 C851 1.394 . S
C850 H858 0.930 . S
C851 C850 1.394 . S
C851 C852 1.383 . S
C851 H859 0.929 . S
C852 C851 1.383 . S
C852 C853 1.377 1_556 S
C853 H837 0.930 . S
C853 C852 1.377 1_554 S
C853 C854 1.379 1_554 S
C854 H838 0.931 1_556 S
C854 C848 1.383 . S
C854 C853 1.379 1_556 S
H855 C849 0.959 . S
H856 C849 0.961 . S
H857 C849 0.960 . S
H858 C850 0.930 . S
H859 C851 0.929 . S
H860 C868 0.929 . S
H861 C870 0.930 . S
H862 C872 0.930 . S
H863 C875 0.929 . S
H864 C878 0.930 . S
H865 C880 0.960 . S
H866 C880 0.960 . S
H867 C880 0.960 . S
C868 H860 0.929 . S
C868 C869 1.377 . S
C868 C870 1.384 . S
C869 C868 1.377 . S
C869 C875 1.390 . S
C870 H861 0.930 . S
C870 C868 1.384 . S
C870 C871 1.372 . S
C871 C870 1.372 . S
C871 C872 1.400 . S
C871 C876 1.490 . S
C872 H862 0.930 . S
C872 C871 1.400 . S
C872 C875 1.386 . S
H873 C889 0.930 . S
H874 C890 0.931 . S
C875 H863 0.929 . S
C875 C869 1.390 . S
C875 C872 1.386 . S
C876 C871 1.490 . S
C876 C878 1.395 . S
C876 C879 1.403 . S
H877 C883 0.930 . S
C878 H864 0.930 . S
C878 C876 1.395 . S
C878 C881 1.403 . S
C879 C876 1.403 . S
C879 C880 1.524 . S
C879 C883 1.400 . S
C880 H865 0.960 . S
C880 H866 0.960 . S
C880 H867 0.960 . S
C880 C879 1.524 . S
C881 C878 1.403 . S
C881 C882 1.392 . S
C881 C885 1.481 1_655 S
C882 C881 1.392 . S
C882 C883 1.385 . S
C882 C884 1.478 . S
C883 H877 0.930 . S
C883 C879 1.400 . S
C883 C882 1.385 . S
C884 C882 1.478 . S
C884 C886 1.381 . S
C884 C890 1.383 . S
C885 C881 1.481 1_455 S
C885 H891 0.963 . S
C885 H892 0.963 . S
C885 H893 0.968 . S
C886 C884 1.381 . S
C886 C887 1.394 . S
C886 H894 0.930 . S
C887 C886 1.394 . S
C887 C888 1.383 . S
C887 H895 0.929 . S
C888 C887 1.383 . S
C888 C889 1.377 . S
C889 H873 0.930 . S
C889 C888 1.377 . S
C889 C890 1.379 . S
C890 H874 0.931 . S
C890 C884 1.383 . S
C890 C889 1.379 . S
H891 C885 0.963 . S
H892 C885 0.963 . S
H893 C885 0.968 . S
H894 C886 0.930 . S
H895 C887 0.929 . S
H896 C904 0.929 . S
H897 C906 0.930 . S
H898 C908 0.930 . S
H899 C911 0.929 . S
H900 C914 0.930 . S
H901 C916 0.960 . S
H902 C916 0.960 . S
H903 C916 0.960 . S
C904 H896 0.929 . S
C904 C905 1.377 . S
C904 C906 1.384 . S
C905 C904 1.377 . S
C905 C911 1.390 . S
C906 H897 0.930 . S
C906 C904 1.384 . S
C906 C907 1.372 . S
C907 C906 1.372 . S
C907 C908 1.400 . S
C907 C912 1.490 . S
C908 H898 0.930 . S
C908 C907 1.400 . S
C908 C911 1.386 . S
H909 C925 0.930 . S
H910 C926 0.931 . S
C911 H899 0.929 . S
C911 C905 1.390 . S
C911 C908 1.386 . S
C912 C907 1.490 . S
C912 C914 1.395 . S
C912 C915 1.403 . S
H913 C919 0.930 . S
C914 H900 0.930 . S
C914 C912 1.395 . S
C914 C917 1.403 . S
C915 C912 1.403 . S
C915 C916 1.524 . S
C915 C919 1.400 . S
C916 H901 0.960 . S
C916 H902 0.960 . S
C916 H903 0.960 . S
C916 C915 1.524 . S
C917 C914 1.403 . S
C917 C918 1.392 . S
C917 C921 1.495 . S
C918 C917 1.392 . S
C918 C919 1.385 . S
C918 C920 1.478 . S
C919 H913 0.930 . S
C919 C915 1.400 . S
C919 C918 1.385 . S
C920 C918 1.478 . S
C920 C922 1.381 . S
C920 C926 1.383 . S
C921 C917 1.495 . S
C921 H927 0.959 . S
C921 H928 0.961 . S
C921 H929 0.960 . S
C922 C920 1.381 . S
C922 C923 1.394 . S
C922 H930 0.930 . S
C923 C922 1.394 . S
C923 C924 1.383 . S
C923 H931 0.929 . S
C924 C923 1.383 . S
C924 C925 1.377 . S
C925 H909 0.930 . S
C925 C924 1.377 . S
C925 C926 1.379 . S
C926 H910 0.931 . S
C926 C920 1.383 . S
C926 C925 1.379 . S
H927 C921 0.959 . S
H928 C921 0.961 . S
H929 C921 0.960 . S
H930 C922 0.930 . S
H931 C923 0.929 . S
H932 C940 0.929 . S
H933 C942 0.930 . S
H934 C944 0.930 . S
H935 C947 0.929 . S
H936 C950 0.930 . S
H937 C952 0.960 . S
H938 C952 0.960 . S
H939 C952 0.960 . S
C940 H932 0.929 . S
C940 C941 1.377 . S
C940 C942 1.384 . S
C941 C940 1.377 . S
C941 C947 1.390 . S
C942 H933 0.930 . S
C942 C940 1.384 . S
C942 C943 1.372 . S
C943 C942 1.372 . S
C943 C944 1.400 . S
C943 C948 1.490 . S
C944 H934 0.930 . S
C944 C943 1.400 . S
C944 C947 1.386 . S
H945 C961 0.930 . S
H946 C962 0.931 . S
C947 H935 0.929 . S
C947 C941 1.390 . S
C947 C944 1.386 . S
C948 C943 1.490 . S
C948 C950 1.395 . S
C948 C951 1.403 . S
H949 C955 0.930 . S
C950 H936 0.930 . S
C950 C948 1.395 . S
C950 C953 1.403 . S
C951 C948 1.403 . S
C951 C952 1.524 . S
C951 C955 1.400 . S
C952 H937 0.960 . S
C952 H938 0.960 . S
C952 H939 0.960 . S
C952 C951 1.524 . S
C953 C950 1.403 . S
C953 C954 1.392 . S
C953 C957 1.495 . S
C954 C953 1.392 . S
C954 C955 1.385 . S
C954 C956 1.478 . S
C955 H949 0.930 . S
C955 C951 1.400 . S
C955 C954 1.385 . S
C956 C954 1.478 . S
C956 C958 1.381 . S
C956 C962 1.383 . S
C957 C953 1.495 . S
C957 H963 0.959 . S
C957 H964 0.961 . S
C957 H965 0.960 . S
C958 C956 1.381 . S
C958 C959 1.394 . S
C958 H966 0.930 . S
C959 C958 1.394 . S
C959 C960 1.383 . S
C959 H967 0.929 . S
C960 C959 1.383 . S
C960 C961 1.377 . S
C961 H945 0.930 . S
C961 C960 1.377 . S
C961 C962 1.379 . S
C962 H946 0.931 . S
C962 C956 1.383 . S
C962 C961 1.379 . S
H963 C957 0.959 . S
H964 C957 0.961 . S
H965 C957 0.960 . S
H966 C958 0.930 . S
H967 C959 0.929 . S
H968 C976 0.929 . S
H969 C978 0.930 . S
H970 C980 0.930 . S
H971 C983 0.929 . S
H972 C986 0.930 . S
H973 C988 0.960 . S
H974 C988 0.960 . S
H975 C988 0.960 . S
C976 H968 0.929 . S
C976 C977 1.377 . S
C976 C978 1.384 . S
C977 C976 1.377 . S
C977 C983 1.390 . S
C978 H969 0.930 . S
C978 C976 1.384 . S
C978 C979 1.372 . S
C979 C978 1.372 . S
C979 C980 1.400 . S
C979 C984 1.490 . S
C980 H970 0.930 . S
C980 C979 1.400 . S
C980 C983 1.386 . S
H981 C997 0.930 . S
H982 C998 0.931 . S
C983 H971 0.929 . S
C983 C977 1.390 . S
C983 C980 1.386 . S
C984 C979 1.490 . S
C984 C986 1.395 . S
C984 C987 1.403 . S
H985 C991 0.930 . S
C986 H972 0.930 . S
C986 C984 1.395 . S
C986 C989 1.403 . S
C987 C984 1.403 . S
C987 C988 1.524 . S
C987 C991 1.400 . S
C988 H973 0.960 . S
C988 H974 0.960 . S
C988 H975 0.960 . S
C988 C987 1.524 . S
C989 C986 1.403 . S
C989 C990 1.392 . S
C989 C993 1.495 . S
C990 C989 1.392 . S
C990 C991 1.385 . S
C990 C992 1.478 . S
C991 H985 0.930 . S
C991 C987 1.400 . S
C991 C990 1.385 . S
C992 C990 1.478 . S
C992 C994 1.381 . S
C992 C998 1.383 . S
C993 C989 1.495 . S
C993 H999 0.959 . S
C993 H1000 0.961 . S
C993 H1001 0.960 . S
C994 C992 1.381 . S
C994 C995 1.394 . S
C994 H1002 0.930 . S
C995 C994 1.394 . S
C995 C996 1.383 . S
C995 H1003 0.929 . S
C996 C995 1.383 . S
C996 C997 1.377 . S
C997 H981 0.930 . S
C997 C996 1.377 . S
C997 C998 1.379 . S
C998 H982 0.931 . S
C998 C992 1.383 . S
C998 C997 1.379 . S
H999 C993 0.959 . S
H1000 C993 0.961 . S
H1001 C993 0.960 . S
H1002 C994 0.930 . S
H1003 C995 0.929 . S
H1004 C1012 0.929 . S
H1005 C1014 0.930 . S
H1006 C1016 0.930 . S
H1007 C1019 0.929 . S
H1008 C1022 0.930 . S
H1009 C1024 0.960 . S
H1010 C1024 0.960 . S
H1011 C1024 0.960 . S
C1012 H1004 0.929 . S
C1012 C1013 1.377 . S
C1012 C1014 1.384 . S
C1013 C1012 1.377 . S
C1013 C1019 1.390 . S
C1014 H1005 0.930 . S
C1014 C1012 1.384 . S
C1014 C1015 1.372 . S
C1015 C1014 1.372 . S
C1015 C1016 1.400 . S
C1015 C1020 1.490 . S
C1016 H1006 0.930 . S
C1016 C1015 1.400 . S
C1016 C1019 1.386 . S
H1017 C1033 0.930 . S
H1018 C1034 0.931 . S
C1019 H1007 0.929 . S
C1019 C1013 1.390 . S
C1019 C1016 1.386 . S
C1020 C1015 1.490 . S
C1020 C1022 1.395 . S
C1020 C1023 1.403 . S
H1021 C1027 0.930 . S
C1022 H1008 0.930 . S
C1022 C1020 1.395 . S
C1022 C1025 1.403 . S
C1023 C1020 1.403 . S
C1023 C1024 1.524 . S
C1023 C1027 1.400 . S
C1024 H1009 0.960 . S
C1024 H1010 0.960 . S
C1024 H1011 0.960 . S
C1024 C1023 1.524 . S
C1025 C1022 1.403 . S
C1025 C1026 1.392 . S
C1025 C1029 1.495 . S
C1026 C1025 1.392 . S
C1026 C1027 1.385 . S
C1026 C1028 1.478 . S
C1027 H1021 0.930 . S
C1027 C1023 1.400 . S
C1027 C1026 1.385 . S
C1028 C1026 1.478 . S
C1028 C1030 1.381 . S
C1028 C1034 1.383 . S
C1029 C1025 1.495 . S
C1029 H1035 0.959 . S
C1029 H1036 0.961 . S
C1029 H1037 0.960 . S
C1030 C1028 1.381 . S
C1030 C1031 1.394 . S
C1030 H1038 0.930 . S
C1031 C1030 1.394 . S
C1031 C1032 1.383 . S
C1031 H1039 0.929 . S
C1032 C1031 1.383 . S
C1032 C1033 1.377 . S
C1033 H1017 0.930 . S
C1033 C1032 1.377 . S
C1033 C1034 1.379 . S
C1034 H1018 0.931 . S
C1034 C1028 1.383 . S
C1034 C1033 1.379 . S
H1035 C1029 0.959 . S
H1036 C1029 0.961 . S
H1037 C1029 0.960 . S
H1038 C1030 0.930 . S
H1039 C1031 0.929 . S
H1040 C1048 0.929 . S
H1041 C1050 0.930 . S
H1042 C1052 0.930 . S
H1043 C1055 0.929 . S
H1044 C1058 0.930 . S
H1045 C1060 0.960 . S
H1046 C1060 0.960 . S
H1047 C1060 0.960 . S
C1048 H1040 0.929 . S
C1048 C1049 1.377 . S
C1048 C1050 1.384 . S
C1049 C1048 1.377 . S
C1049 C1055 1.390 . S
C1050 H1041 0.930 . S
C1050 C1048 1.384 . S
C1050 C1051 1.372 . S
C1051 C1050 1.372 . S
C1051 C1052 1.400 . S
C1051 C1056 1.490 . S
C1052 H1042 0.930 . S
C1052 C1051 1.400 . S
C1052 C1055 1.386 . S
H1053 C1069 0.930 . S
H1054 C1070 0.931 . S
C1055 H1043 0.929 . S
C1055 C1049 1.390 . S
C1055 C1052 1.386 . S
C1056 C1051 1.490 . S
C1056 C1058 1.395 . S
C1056 C1059 1.403 . S
H1057 C1063 0.930 . S
C1058 H1044 0.930 . S
C1058 C1056 1.395 . S
C1058 C1061 1.403 . S
C1059 C1056 1.403 . S
C1059 C1060 1.524 . S
C1059 C1063 1.400 . S
C1060 H1045 0.960 . S
C1060 H1046 0.960 . S
C1060 H1047 0.960 . S
C1060 C1059 1.524 . S
C1061 C1058 1.403 . S
C1061 C1062 1.392 . S
C1061 C1065 1.495 . S
C1062 C1061 1.392 . S
C1062 C1063 1.385 . S
C1062 C1064 1.478 . S
C1063 H1057 0.930 . S
C1063 C1059 1.400 . S
C1063 C1062 1.385 . S
C1064 C1062 1.478 . S
C1064 C1066 1.381 . S
C1064 C1070 1.383 . S
C1065 C1061 1.495 . S
C1065 H1071 0.959 . S
C1065 H1072 0.961 . S
C1065 H1073 0.960 . S
C1066 C1064 1.381 . S
C1066 C1067 1.394 . S
C1066 H1074 0.930 . S
C1067 C1066 1.394 . S
C1067 C1068 1.383 . S
C1067 H1075 0.929 . S
C1068 C1067 1.383 . S
C1068 C1069 1.377 . S
C1069 H1053 0.930 . S
C1069 C1068 1.377 . S
C1069 C1070 1.379 . S
C1070 H1054 0.931 . S
C1070 C1064 1.383 . S
C1070 C1069 1.379 . S
H1071 C1065 0.959 . S
H1072 C1065 0.961 . S
H1073 C1065 0.960 . S
H1074 C1066 0.930 . S
H1075 C1067 0.929 . S
H1076 C1084 0.929 . S
H1077 C1086 0.930 . S
H1078 C1088 0.930 . S
H1079 C1091 0.929 . S
H1080 C1094 0.930 . S
H1081 C1096 0.960 . S
H1082 C1096 0.960 . S
H1083 C1096 0.960 . S
C1084 H1076 0.929 . S
C1084 C1085 1.377 . S
C1084 C1086 1.384 . S
C1085 C1084 1.377 . S
C1085 C1091 1.390 . S
C1086 H1077 0.930 . S
C1086 C1084 1.384 . S
C1086 C1087 1.372 . S
C1087 C1086 1.372 . S
C1087 C1088 1.400 . S
C1087 C1092 1.490 . S
C1088 H1078 0.930 . S
C1088 C1087 1.400 . S
C1088 C1091 1.386 . S
H1089 C1105 0.930 . S
H1090 C1106 0.931 . S
C1091 H1079 0.929 . S
C1091 C1085 1.390 . S
C1091 C1088 1.386 . S
C1092 C1087 1.490 . S
C1092 C1094 1.395 . S
C1092 C1095 1.403 . S
H1093 C1099 0.930 . S
C1094 H1080 0.930 . S
C1094 C1092 1.395 . S
C1094 C1097 1.403 . S
C1095 C1092 1.403 . S
C1095 C1096 1.524 . S
C1095 C1099 1.400 . S
C1096 H1081 0.960 . S
C1096 H1082 0.960 . S
C1096 H1083 0.960 . S
C1096 C1095 1.524 . S
C1097 C1094 1.403 . S
C1097 C1098 1.392 . S
C1097 C1101 1.495 . S
C1098 C1097 1.392 . S
C1098 C1099 1.385 . S
C1098 C1100 1.478 . S
C1099 H1093 0.930 . S
C1099 C1095 1.400 . S
C1099 C1098 1.385 . S
C1100 C1098 1.478 . S
C1100 C1102 1.381 . S
C1100 C1106 1.383 . S
C1101 C1097 1.495 . S
C1101 H1107 0.959 . S
C1101 H1108 0.961 . S
C1101 H1109 0.960 . S
C1102 C1100 1.381 . S
C1102 C1103 1.394 . S
C1102 H1110 0.930 . S
C1103 C1102 1.394 . S
C1103 C1104 1.383 . S
C1103 H1111 0.929 . S
C1104 C1103 1.383 . S
C1104 C1105 1.377 . S
C1105 H1089 0.930 . S
C1105 C1104 1.377 . S
C1105 C1106 1.379 . S
C1106 H1090 0.931 . S
C1106 C1100 1.383 . S
C1106 C1105 1.379 . S
H1107 C1101 0.959 . S
H1108 C1101 0.961 . S
H1109 C1101 0.960 . S
H1110 C1102 0.930 . S
H1111 C1103 0.929 . S
C257 C5 0.978 . S
C276 C105 1.190 . S
C293 C18 1.094 . S
C312 C145 1.147 . S
C348 C170 2.174 . S
C329 C30 2.201 . S
C365 C41 2.046 . S
C384 C210 1.993 . S
C420 C141 1.873 . S
C401 C7 1.759 . S
C456 C101 1.904 . S
C437 C16 1.817 . S
C492 C232 1.639 . S
C473 C29 1.612 . S
C528 C192 1.091 . S
C509 C38 1.002 . S
C545 C8 1.208 . S
C564 C234 1.250 . S
C600 C151 2.337 . S
C581 C27 2.122 . S
C617 C40 2.231 . S
C636 C111 2.215 . S
C653 C19 1.045 . S
C672 C194 1.027 . S
C708 C114 1.152 . S
C689 C51 1.037 . S
C725 C62 1.452 . S
C744 C154 1.455 . S
C761 C74 2.304 . S
C780 C191 2.282 . S
C797 C84 2.024 . S
C816 C231 2.077 . S
C833 C49 1.734 . S
C852 C152 2.178 1_556 S
C888 C112 1.809 . S
C869 C63 1.802 . S
C924 C221 1.457 . S
C905 C71 1.308 . S
C960 C181 1.333 . S
C941 C85 1.319 . S
C977 C52 1.239 . S
C996 C225 1.261 . S
C1032 C130 2.416 . S
C1013 C73 2.417 . S
C1068 C90 1.681 . S
C1049 C82 1.494 . S
C1085 C60 1.184 . S
C1104 C185 1.242 . S
