# Generated by pormake.
# Topology gar, (4,6)-cn, num edge types: 1
# Building blocks:
#     Node 0, Type 0, BuildingBlock: TATPOV_clean_sbu_0, # of connection points: 4
#     Node 1, Type 0, BuildingBlock: TATPOV_clean_sbu_0, # of connection points: 4
#     Node 2, Type 0, BuildingBlock: TATPOV_clean_sbu_0, # of connection points: 4
#     Node 3, Type 0, BuildingBlock: TATPOV_clean_sbu_0, # of connection points: 4
#     Node 4, Type 0, BuildingBlock: TATPOV_clean_sbu_0, # of connection points: 4
#     Node 5, Type 0, BuildingBlock: TATPOV_clean_sbu_0, # of connection points: 4
#     Node 6, Type 0, BuildingBlock: TATPOV_clean_sbu_0, # of connection points: 4
#     Node 7, Type 0, BuildingBlock: TATPOV_clean_sbu_0, # of connection points: 4
#     Node 8, Type 0, BuildingBlock: TATPOV_clean_sbu_0, # of connection points: 4
#     Node 9, Type 0, BuildingBlock: TATPOV_clean_sbu_0, # of connection points: 4
#     Node 10, Type 0, BuildingBlock: TATPOV_clean_sbu_0, # of connection points: 4
#     Node 11, Type 0, BuildingBlock: TATPOV_clean_sbu_0, # of connection points: 4
#     Node 12, Type 0, BuildingBlock: TATPOV_clean_sbu_0, # of connection points: 4
#     Node 13, Type 0, BuildingBlock: TATPOV_clean_sbu_0, # of connection points: 4
#     Node 14, Type 0, BuildingBlock: TATPOV_clean_sbu_0, # of connection points: 4
#     Node 15, Type 0, BuildingBlock: TATPOV_clean_sbu_0, # of connection points: 4
#     Node 16, Type 0, BuildingBlock: TATPOV_clean_sbu_0, # of connection points: 4
#     Node 17, Type 0, BuildingBlock: TATPOV_clean_sbu_0, # of connection points: 4
#     Node 18, Type 0, BuildingBlock: TATPOV_clean_sbu_0, # of connection points: 4
#     Node 19, Type 0, BuildingBlock: TATPOV_clean_sbu_0, # of connection points: 4
#     Node 20, Type 0, BuildingBlock: TATPOV_clean_sbu_0, # of connection points: 4
#     Node 21, Type 0, BuildingBlock: TATPOV_clean_sbu_0, # of connection points: 4
#     Node 22, Type 0, BuildingBlock: TATPOV_clean_sbu_0, # of connection points: 4
#     Node 23, Type 0, BuildingBlock: TATPOV_clean_sbu_0, # of connection points: 4
#     Node 24, Type 1, BuildingBlock: INOVEN_clean_sbu_0, # of connection points: 6
#     Node 25, Type 1, BuildingBlock: INOVEN_clean_sbu_0, # of connection points: 6
#     Node 26, Type 1, BuildingBlock: INOVEN_clean_sbu_0, # of connection points: 6
#     Node 27, Type 1, BuildingBlock: INOVEN_clean_sbu_0, # of connection points: 6
#     Node 28, Type 1, BuildingBlock: INOVEN_clean_sbu_0, # of connection points: 6
#     Node 29, Type 1, BuildingBlock: INOVEN_clean_sbu_0, # of connection points: 6
#     Node 30, Type 1, BuildingBlock: INOVEN_clean_sbu_0, # of connection points: 6
#     Node 31, Type 1, BuildingBlock: INOVEN_clean_sbu_0, # of connection points: 6
#     Node 32, Type 1, BuildingBlock: INOVEN_clean_sbu_0, # of connection points: 6
#     Node 33, Type 1, BuildingBlock: INOVEN_clean_sbu_0, # of connection points: 6
#     Node 34, Type 1, BuildingBlock: INOVEN_clean_sbu_0, # of connection points: 6
#     Node 35, Type 1, BuildingBlock: INOVEN_clean_sbu_0, # of connection points: 6
#     Node 36, Type 1, BuildingBlock: INOVEN_clean_sbu_0, # of connection points: 6
#     Node 37, Type 1, BuildingBlock: INOVEN_clean_sbu_0, # of connection points: 6
#     Node 38, Type 1, BuildingBlock: INOVEN_clean_sbu_0, # of connection points: 6
#     Node 39, Type 1, BuildingBlock: INOVEN_clean_sbu_0, # of connection points: 6
#     Edge 40, Type (0, 1), BuildingBlock: ZUJKAS_clean_linker_0, # of connection points: 2
#     Edge 41, Type (0, 1), BuildingBlock: ZUJKAS_clean_linker_0, # of connection points: 2
#     Edge 42, Type (0, 1), BuildingBlock: ZUJKAS_clean_linker_0, # of connection points: 2
#     Edge 43, Type (0, 1), BuildingBlock: ZUJKAS_clean_linker_0, # of connection points: 2
#     Edge 44, Type (0, 1), BuildingBlock: ZUJKAS_clean_linker_0, # of connection points: 2
#     Edge 45, Type (0, 1), BuildingBlock: ZUJKAS_clean_linker_0, # of connection points: 2
#     Edge 46, Type (0, 1), BuildingBlock: ZUJKAS_clean_linker_0, # of connection points: 2
#     Edge 47, Type (0, 1), BuildingBlock: ZUJKAS_clean_linker_0, # of connection points: 2
#     Edge 48, Type (0, 1), BuildingBlock: ZUJKAS_clean_linker_0, # of connection points: 2
#     Edge 49, Type (0, 1), BuildingBlock: ZUJKAS_clean_linker_0, # of connection points: 2
#     Edge 50, Type (0, 1), BuildingBlock: ZUJKAS_clean_linker_0, # of connection points: 2
#     Edge 51, Type (0, 1), BuildingBlock: ZUJKAS_clean_linker_0, # of connection points: 2
#     Edge 52, Type (0, 1), BuildingBlock: ZUJKAS_clean_linker_0, # of connection points: 2
#     Edge 53, Type (0, 1), BuildingBlock: ZUJKAS_clean_linker_0, # of connection points: 2
#     Edge 54, Type (0, 1), BuildingBlock: ZUJKAS_clean_linker_0, # of connection points: 2
#     Edge 55, Type (0, 1), BuildingBlock: ZUJKAS_clean_linker_0, # of connection points: 2
#     Edge 56, Type (0, 1), BuildingBlock: ZUJKAS_clean_linker_0, # of connection points: 2
#     Edge 57, Type (0, 1), BuildingBlock: ZUJKAS_clean_linker_0, # of connection points: 2
#     Edge 58, Type (0, 1), BuildingBlock: ZUJKAS_clean_linker_0, # of connection points: 2
#     Edge 59, Type (0, 1), BuildingBlock: ZUJKAS_clean_linker_0, # of connection points: 2
#     Edge 60, Type (0, 1), BuildingBlock: ZUJKAS_clean_linker_0, # of connection points: 2
#     Edge 61, Type (0, 1), BuildingBlock: ZUJKAS_clean_linker_0, # of connection points: 2
#     Edge 62, Type (0, 1), BuildingBlock: ZUJKAS_clean_linker_0, # of connection points: 2
#     Edge 63, Type (0, 1), BuildingBlock: ZUJKAS_clean_linker_0, # of connection points: 2
#     Edge 64, Type (0, 1), BuildingBlock: ZUJKAS_clean_linker_0, # of connection points: 2
#     Edge 65, Type (0, 1), BuildingBlock: ZUJKAS_clean_linker_0, # of connection points: 2
#     Edge 66, Type (0, 1), BuildingBlock: ZUJKAS_clean_linker_0, # of connection points: 2
#     Edge 67, Type (0, 1), BuildingBlock: ZUJKAS_clean_linker_0, # of connection points: 2
#     Edge 68, Type (0, 1), BuildingBlock: ZUJKAS_clean_linker_0, # of connection points: 2
#     Edge 69, Type (0, 1), BuildingBlock: ZUJKAS_clean_linker_0, # of connection points: 2
#     Edge 70, Type (0, 1), BuildingBlock: ZUJKAS_clean_linker_0, # of connection points: 2
#     Edge 71, Type (0, 1), BuildingBlock: ZUJKAS_clean_linker_0, # of connection points: 2
#     Edge 72, Type (0, 1), BuildingBlock: ZUJKAS_clean_linker_0, # of connection points: 2
#     Edge 73, Type (0, 1), BuildingBlock: ZUJKAS_clean_linker_0, # of connection points: 2
#     Edge 74, Type (0, 1), BuildingBlock: ZUJKAS_clean_linker_0, # of connection points: 2
#     Edge 75, Type (0, 1), BuildingBlock: ZUJKAS_clean_linker_0, # of connection points: 2
#     Edge 76, Type (0, 1), BuildingBlock: ZUJKAS_clean_linker_0, # of connection points: 2
#     Edge 77, Type (0, 1), BuildingBlock: ZUJKAS_clean_linker_0, # of connection points: 2
#     Edge 78, Type (0, 1), BuildingBlock: ZUJKAS_clean_linker_0, # of connection points: 2
#     Edge 79, Type (0, 1), BuildingBlock: ZUJKAS_clean_linker_0, # of connection points: 2
#     Edge 80, Type (0, 1), BuildingBlock: ZUJKAS_clean_linker_0, # of connection points: 2
#     Edge 81, Type (0, 1), BuildingBlock: ZUJKAS_clean_linker_0, # of connection points: 2
#     Edge 82, Type (0, 1), BuildingBlock: ZUJKAS_clean_linker_0, # of connection points: 2
#     Edge 83, Type (0, 1), BuildingBlock: ZUJKAS_clean_linker_0, # of connection points: 2
#     Edge 84, Type (0, 1), BuildingBlock: ZUJKAS_clean_linker_0, # of connection points: 2
#     Edge 85, Type (0, 1), BuildingBlock: ZUJKAS_clean_linker_0, # of connection points: 2
#     Edge 86, Type (0, 1), BuildingBlock: ZUJKAS_clean_linker_0, # of connection points: 2
#     Edge 87, Type (0, 1), BuildingBlock: ZUJKAS_clean_linker_0, # of connection points: 2
#     Edge 88, Type (0, 1), BuildingBlock: ZUJKAS_clean_linker_0, # of connection points: 2
#     Edge 89, Type (0, 1), BuildingBlock: ZUJKAS_clean_linker_0, # of connection points: 2
#     Edge 90, Type (0, 1), BuildingBlock: ZUJKAS_clean_linker_0, # of connection points: 2
#     Edge 91, Type (0, 1), BuildingBlock: ZUJKAS_clean_linker_0, # of connection points: 2
#     Edge 92, Type (0, 1), BuildingBlock: ZUJKAS_clean_linker_0, # of connection points: 2
#     Edge 93, Type (0, 1), BuildingBlock: ZUJKAS_clean_linker_0, # of connection points: 2
#     Edge 94, Type (0, 1), BuildingBlock: ZUJKAS_clean_linker_0, # of connection points: 2
#     Edge 95, Type (0, 1), BuildingBlock: ZUJKAS_clean_linker_0, # of connection points: 2
#     Edge 96, Type (0, 1), BuildingBlock: ZUJKAS_clean_linker_0, # of connection points: 2
#     Edge 97, Type (0, 1), BuildingBlock: ZUJKAS_clean_linker_0, # of connection points: 2
#     Edge 98, Type (0, 1), BuildingBlock: ZUJKAS_clean_linker_0, # of connection points: 2
#     Edge 99, Type (0, 1), BuildingBlock: ZUJKAS_clean_linker_0, # of connection points: 2
#     Edge 100, Type (0, 1), BuildingBlock: ZUJKAS_clean_linker_0, # of connection points: 2
#     Edge 101, Type (0, 1), BuildingBlock: ZUJKAS_clean_linker_0, # of connection points: 2
#     Edge 102, Type (0, 1), BuildingBlock: ZUJKAS_clean_linker_0, # of connection points: 2
#     Edge 103, Type (0, 1), BuildingBlock: ZUJKAS_clean_linker_0, # of connection points: 2
#     Edge 104, Type (0, 1), BuildingBlock: ZUJKAS_clean_linker_0, # of connection points: 2
#     Edge 105, Type (0, 1), BuildingBlock: ZUJKAS_clean_linker_0, # of connection points: 2
#     Edge 106, Type (0, 1), BuildingBlock: ZUJKAS_clean_linker_0, # of connection points: 2
#     Edge 107, Type (0, 1), BuildingBlock: ZUJKAS_clean_linker_0, # of connection points: 2
#     Edge 108, Type (0, 1), BuildingBlock: ZUJKAS_clean_linker_0, # of connection points: 2
#     Edge 109, Type (0, 1), BuildingBlock: ZUJKAS_clean_linker_0, # of connection points: 2
#     Edge 110, Type (0, 1), BuildingBlock: ZUJKAS_clean_linker_0, # of connection points: 2
#     Edge 111, Type (0, 1), BuildingBlock: ZUJKAS_clean_linker_0, # of connection points: 2
#     Edge 112, Type (0, 1), BuildingBlock: ZUJKAS_clean_linker_0, # of connection points: 2
#     Edge 113, Type (0, 1), BuildingBlock: ZUJKAS_clean_linker_0, # of connection points: 2
#     Edge 114, Type (0, 1), BuildingBlock: ZUJKAS_clean_linker_0, # of connection points: 2
#     Edge 115, Type (0, 1), BuildingBlock: ZUJKAS_clean_linker_0, # of connection points: 2
#     Edge 116, Type (0, 1), BuildingBlock: ZUJKAS_clean_linker_0, # of connection points: 2
#     Edge 117, Type (0, 1), BuildingBlock: ZUJKAS_clean_linker_0, # of connection points: 2
#     Edge 118, Type (0, 1), BuildingBlock: ZUJKAS_clean_linker_0, # of connection points: 2
#     Edge 119, Type (0, 1), BuildingBlock: ZUJKAS_clean_linker_0, # of connection points: 2
#     Edge 120, Type (0, 1), BuildingBlock: ZUJKAS_clean_linker_0, # of connection points: 2
#     Edge 121, Type (0, 1), BuildingBlock: ZUJKAS_clean_linker_0, # of connection points: 2
#     Edge 122, Type (0, 1), BuildingBlock: ZUJKAS_clean_linker_0, # of connection points: 2
#     Edge 123, Type (0, 1), BuildingBlock: ZUJKAS_clean_linker_0, # of connection points: 2
#     Edge 124, Type (0, 1), BuildingBlock: ZUJKAS_clean_linker_0, # of connection points: 2
#     Edge 125, Type (0, 1), BuildingBlock: ZUJKAS_clean_linker_0, # of connection points: 2
#     Edge 126, Type (0, 1), BuildingBlock: ZUJKAS_clean_linker_0, # of connection points: 2
#     Edge 127, Type (0, 1), BuildingBlock: ZUJKAS_clean_linker_0, # of connection points: 2
#     Edge 128, Type (0, 1), BuildingBlock: ZUJKAS_clean_linker_0, # of connection points: 2
#     Edge 129, Type (0, 1), BuildingBlock: ZUJKAS_clean_linker_0, # of connection points: 2
#     Edge 130, Type (0, 1), BuildingBlock: ZUJKAS_clean_linker_0, # of connection points: 2
#     Edge 131, Type (0, 1), BuildingBlock: ZUJKAS_clean_linker_0, # of connection points: 2
#     Edge 132, Type (0, 1), BuildingBlock: ZUJKAS_clean_linker_0, # of connection points: 2
#     Edge 133, Type (0, 1), BuildingBlock: ZUJKAS_clean_linker_0, # of connection points: 2
#     Edge 134, Type (0, 1), BuildingBlock: ZUJKAS_clean_linker_0, # of connection points: 2
#     Edge 135, Type (0, 1), BuildingBlock: ZUJKAS_clean_linker_0, # of connection points: 2
# Relax obj value: 0.167
# Max RMSD: 0.291
# Mean RMSD: 0.169
data_MOF--net-gar--node1-TATPOV_clean_sbu_0--node2-INOVEN_clean_sbu_0--edge1-ZUJKAS_clean_linker_0
_symmetry_space_group_name_H-M    P1
_symmetry_Int_Tables_number       1
_symmetry_cell_setting            triclinic
loop_
_symmetry_equiv_pos_as_xyz
'x, y, z'
_cell_length_a     78.044991
_cell_length_b     72.995416
_cell_length_c     73.508166
_cell_angle_alpha  98.81217
_cell_angle_beta   95.440587
_cell_angle_gamma 104.71133
loop_
_atom_site_label
_atom_site_type_symbol
_atom_site_fract_x
_atom_site_fract_y
_atom_site_fract_z
_atom_type_partial_charge
Zn0 Zn 0.07295 0.32361 0.40264 0.0
Zn1 Zn 0.09759 0.32394 0.38784 0.0
O2 O 0.1057 0.35079 0.40315 0.0
O3 O 0.07774 0.35136 0.40071 0.0
O4 O 0.11673 0.321 0.37354 0.0
O5 O 0.08128 0.3145 0.42506 0.0
O6 O 0.09315 0.30193 0.40212 0.0
C7 C 0.09416 0.36021 0.40385 0.0
C8 C 0.06187 0.30862 0.36712 0.0
O9 O 0.07704 0.32033 0.36728 0.0
O10 O 0.05761 0.30353 0.38207 0.0
C11 C 0.12234 0.33343 0.36368 0.0
O12 O 0.11643 0.3488 0.36437 0.0
C13 C 0.08716 0.30099 0.41755 0.0
Zn14 Zn 0.98862 0.72455 0.66271 0.0
Zn15 Zn 0.99346 0.75638 0.64678 0.0
O16 O 0.9711 0.75529 0.65858 0.0
O17 O 0.96962 0.73174 0.67454 0.0
O18 O 0.9985 0.78012 0.63584 0.0
O19 O 0.0138 0.73482 0.67543 0.0
O20 O 0.01609 0.76149 0.66412 0.0
C21 C 0.9638 0.74516 0.6698 0.0
C22 C 0.98692 0.71681 0.62383 0.0
O23 O 0.99224 0.73497 0.62586 0.0
O24 O 0.98282 0.70866 0.63738 0.0
C25 C 0.9962 0.77964 0.61846 0.0
O26 O 0.98851 0.7632 0.60716 0.0
C27 C 0.02267 0.75152 0.67405 0.0
Zn28 Zn 0.56993 0.81801 0.90049 0.0
Zn29 Zn 0.59759 0.82395 0.88814 0.0
O30 O 0.60207 0.84939 0.90586 0.0
O31 O 0.57326 0.84627 0.90566 0.0
O32 O 0.61972 0.82567 0.87686 0.0
O33 O 0.57767 0.8051 0.9203 0.0
O34 O 0.59377 0.79897 0.8985 0.0
C35 C 0.58924 0.85661 0.90906 0.0
C36 C 0.56323 0.81082 0.86311 0.0
O37 O 0.57875 0.82245 0.86655 0.0
O38 O 0.55686 0.80243 0.87576 0.0
C39 C 0.62217 0.83431 0.86324 0.0
O40 O 0.61047 0.84305 0.8575 0.0
C41 C 0.58683 0.7949 0.91282 0.0
Zn42 Zn 0.48888 0.22643 0.16753 0.0
Zn43 Zn 0.49353 0.25239 0.14424 0.0
O44 O 0.47174 0.25588 0.15571 0.0
O45 O 0.46813 0.23427 0.17414 0.0
O46 O 0.50018 0.27232 0.12871 0.0
O47 O 0.51274 0.23925 0.18156 0.0
O48 O 0.51654 0.25922 0.16172 0.0
C49 C 0.46333 0.2473 0.16733 0.0
C50 C 0.48845 0.21045 0.1297 0.0
O51 O 0.49033 0.22746 0.12667 0.0
O52 O 0.48712 0.20662 0.14577 0.0
C53 C 0.49058 0.28194 0.12201 0.0
O54 O 0.47373 0.27867 0.12463 0.0
C55 C 0.52242 0.25304 0.17555 0.0
Zn56 Zn 0.09693 0.8102 0.0949 0.0
Zn57 Zn 0.07182 0.80524 0.1166 0.0
O58 O 0.06919 0.82884 0.10421 0.0
O59 O 0.09207 0.83422 0.08851 0.0
O60 O 0.05063 0.79894 0.13124 0.0
O61 O 0.08534 0.78462 0.07829 0.0
O62 O 0.06591 0.7797 0.098 0.0
C63 C 0.07844 0.83866 0.09375 0.0
C64 C 0.1113 0.80919 0.13215 0.0
O65 O 0.09524 0.80816 0.13532 0.0
O66 O 0.11533 0.81046 0.11603 0.0
C67 C 0.04021 0.8095 0.13485 0.0
O68 O 0.04364 0.82656 0.13012 0.0
C69 C 0.07217 0.77367 0.08358 0.0
Zn70 Zn 0.48405 0.75681 0.42833 0.0
Zn71 Zn 0.50982 0.76301 0.40719 0.0
O72 O 0.5159 0.78819 0.42644 0.0
O73 O 0.49393 0.78347 0.44331 0.0
O74 O 0.53113 0.76681 0.39175 0.0
O75 O 0.4913 0.73558 0.43814 0.0
O76 O 0.51191 0.73905 0.41945 0.0
C77 C 0.50814 0.79425 0.43965 0.0
C78 C 0.46951 0.7573 0.39143 0.0
O79 O 0.48615 0.76172 0.38941 0.0
O80 O 0.4649 0.75265 0.40651 0.0
C81 C 0.54497 0.78129 0.39628 0.0
O82 O 0.54535 0.79466 0.41056 0.0
C83 C 0.50423 0.73061 0.43173 0.0
Zn84 Zn 0.59473 0.30854 0.59404 0.0
Zn85 Zn 0.57081 0.30594 0.61762 0.0
O86 O 0.56811 0.3285 0.60409 0.0
O87 O 0.59098 0.3334 0.58829 0.0
O88 O 0.55054 0.3021 0.6336 0.0
O89 O 0.58057 0.28313 0.57793 0.0
O90 O 0.5645 0.27934 0.60082 0.0
C91 C 0.57744 0.33804 0.59354 0.0
C92 C 0.6099 0.30909 0.63185 0.0
O93 O 0.59444 0.30996 0.63568 0.0
O94 O 0.61309 0.3078 0.61519 0.0
C95 C 0.53525 0.30382 0.62766 0.0
O96 O 0.533 0.30927 0.61159 0.0
C97 C 0.56877 0.27266 0.58538 0.0
Zn98 Zn 0.98531 0.2587 0.92769 0.0
Zn99 Zn 0.01168 0.26301 0.9069 0.0
O100 O 0.01911 0.28828 0.92567 0.0
O101 O 0.99582 0.28624 0.94073 0.0
O102 O 0.03319 0.26584 0.89194 0.0
O103 O 0.99228 0.23773 0.93853 0.0
O104 O 0.01252 0.23904 0.91947 0.0
C105 C 0.01096 0.29562 0.93771 0.0
C106 C 0.97165 0.25866 0.89059 0.0
O107 O 0.98841 0.26297 0.8891 0.0
O108 O 0.96643 0.25382 0.90539 0.0
C109 C 0.04446 0.2821 0.89238 0.0
O110 O 0.04145 0.29778 0.90121 0.0
C111 C 0.00467 0.23158 0.93218 0.0
Zn112 Zn 0.46386 0.00911 0.27844 0.0
Zn113 Zn 0.43756 0.04173 0.27536 0.0
O114 O 0.43623 0.04386 0.30281 0.0
O115 O 0.4513 0.02349 0.29519 0.0
O116 O 0.42482 0.05954 0.26648 0.0
O117 O 0.48078 0.02839 0.26587 0.0
O118 O 0.46348 0.04666 0.27188 0.0
C119 C 0.44394 0.0316 0.30726 0.0
C120 C 0.42423 0.99695 0.26173 0.0
O121 O 0.42352 0.01439 0.26489 0.0
O122 O 0.43865 0.99212 0.26535 0.0
C123 C 0.40833 0.05521 0.26831 0.0
O124 O 0.40137 0.0396 0.27483 0.0
C125 C 0.4693 0.03631 0.2598 0.0
Zn126 Zn 0.26468 0.20708 0.49492 0.0
Zn127 Zn 0.28666 0.18703 0.49661 0.0
O128 O 0.29123 0.19979 0.4725 0.0
O129 O 0.27398 0.21938 0.4745 0.0
O130 O 0.30514 0.17155 0.49966 0.0
O131 O 0.272 0.22073 0.52117 0.0
O132 O 0.29287 0.20551 0.52255 0.0
C133 C 0.28523 0.21278 0.46628 0.0
C134 C 0.24533 0.16846 0.49138 0.0
O135 O 0.26125 0.16687 0.49487 0.0
O136 O 0.24302 0.18455 0.48921 0.0
C137 C 0.32016 0.17467 0.4935 0.0
O138 O 0.32416 0.18793 0.48319 0.0
C139 C 0.28505 0.21736 0.53031 0.0
Zn140 Zn 0.13752 0.02881 0.76782 0.0
Zn141 Zn 0.15796 0.00595 0.76726 0.0
O142 O 0.14334 0.00536 0.79357 0.0
O143 O 0.12811 0.02679 0.79226 0.0
O144 O 0.17131 0.98072 0.76416 0.0
O145 O 0.12141 0.01795 0.74329 0.0
O146 O 0.14202 1.00265 0.73889 0.0
C147 C 0.13284 0.01488 0.80105 0.0
C148 C 0.17443 0.05112 0.76831 0.0
O149 O 0.17776 0.03476 0.7696 0.0
O150 O 0.15833 0.05185 0.76703 0.0
C151 C 0.18541 0.97792 0.77315 0.0
O152 O 0.1944 0.99178 0.78687 0.0
C153 C 0.12838 0.00794 0.7322 0.0
Zn154 Zn 0.31674 0.87938 0.01139 0.0
Zn155 Zn 0.29513 0.90754 0.01135 0.0
O156 O 0.29571 0.90125 0.98393 0.0
O157 O 0.30648 0.87576 0.98438 0.0
O158 O 0.27801 0.92246 0.0173 0.0
O159 O 0.30417 0.86777 0.03194 0.0
O160 O 0.2873 0.88286 0.01985 0.0
C161 C 0.30053 0.88714 0.97566 0.0
C162 C 0.33444 0.9218 0.02141 0.0
O163 O 0.3192 0.92498 0.02132 0.0
O164 O 0.33612 0.90479 0.018 0.0
C165 C 0.27601 0.93543 0.00834 0.0
O166 O 0.28468 0.93833 0.99412 0.0
C167 C 0.29304 0.87751 0.03421 0.0
Zn168 Zn 0.3143 0.36197 0.02776 0.0
Zn169 Zn 0.29489 0.38505 0.02967 0.0
O170 O 0.28742 0.36772 0.00321 0.0
O171 O 0.30225 0.34587 0.0034 0.0
O172 O 0.27499 0.39918 0.02981 0.0
O173 O 0.30886 0.35173 0.05037 0.0
O174 O 0.29138 0.37102 0.05315 0.0
C175 C 0.29112 0.35273 0.99508 0.0
C176 C 0.33563 0.40097 0.02945 0.0
O177 O 0.32056 0.40492 0.0305 0.0
O178 O 0.3362 0.38367 0.02844 0.0
C179 C 0.27114 0.40755 0.01659 0.0
O180 O 0.28124 0.40883 0.00327 0.0
C181 C 0.29785 0.35819 0.0591 0.0
Zn182 Zn 0.74662 0.1721 0.01829 0.0
Zn183 Zn 0.78837 0.14795 0.02299 0.0
O184 O 0.79191 0.15978 0.99929 0.0
O185 O 0.76947 0.16633 0.01059 0.0
O186 O 0.80865 0.1376 0.02722 0.0
O187 O 0.76128 0.17932 0.04418 0.0
O188 O 0.78548 0.16717 0.04597 0.0
C189 C 0.77892 0.16695 0.99756 0.0
C190 C 0.75391 0.13262 0.0178 0.0
O191 O 0.76625 0.1244 0.01819 0.0
O192 O 0.75857 0.15064 0.01901 0.0
C193 C 0.80754 0.12506 0.01287 0.0
O194 O 0.79421 0.12147 0.99936 0.0
C195 C 0.77553 0.17729 0.05289 0.0
Zn196 Zn 0.13811 0.5728 0.23822 0.0
Zn197 Zn 0.15618 0.53708 0.23309 0.0
O198 O 0.16131 0.54702 0.26034 0.0
O199 O 0.1481 0.57075 0.26421 0.0
O200 O 0.16446 0.51358 0.23118 0.0
O201 O 0.11471 0.55276 0.22665 0.0
O202 O 0.12935 0.5315 0.22831 0.0
C203 C 0.15705 0.56028 0.27066 0.0
C204 C 0.17081 0.57286 0.2237 0.0
O205 O 0.17216 0.55582 0.22041 0.0
O206 O 0.15556 0.57515 0.21929 0.0
C207 C 0.18071 0.51806 0.23857 0.0
O208 O 0.18942 0.53635 0.24389 0.0
C209 C 0.11979 0.53893 0.21839 0.0
Zn210 Zn 0.81436 0.86273 0.52608 0.0
Zn211 Zn 0.79515 0.88639 0.52824 0.0
O212 O 0.78908 0.86946 0.50178 0.0
O213 O 0.8002 0.84488 0.5031 0.0
O214 O 0.77616 0.90184 0.52695 0.0
O215 O 0.81113 0.85596 0.5509 0.0
O216 O 0.79087 0.87213 0.55147 0.0
C217 C 0.79106 0.85339 0.49409 0.0
C218 C 0.83512 0.90161 0.52581 0.0
O219 O 0.82082 0.90592 0.52989 0.0
O220 O 0.83534 0.88412 0.52287 0.0
C221 C 0.76081 0.89372 0.51731 0.0
O222 O 0.75733 0.87561 0.50916 0.0
C223 C 0.79901 0.86122 0.55874 0.0
Zn224 Zn 0.94441 0.0399 0.25327 0.0
Zn225 Zn 0.92484 0.06399 0.25504 0.0
O226 O 0.94126 0.06896 0.28314 0.0
O227 O 0.95892 0.04995 0.2786 0.0
O228 O 0.90904 0.08692 0.25569 0.0
O229 O 0.95621 0.04472 0.23069 0.0
O230 O 0.93982 0.06502 0.22894 0.0
C231 C 0.95383 0.06197 0.28956 0.0
C232 C 0.9081 0.01793 0.25285 0.0
O233 O 0.90566 0.03501 0.25396 0.0
O234 O 0.92365 0.01606 0.25157 0.0
C235 C 0.91203 0.10375 0.26639 0.0
O236 O 0.92616 0.10893 0.27919 0.0
C237 C 0.95136 0.05664 0.22202 0.0
Zn238 Zn 0.26011 0.65659 0.52616 0.0
Zn239 Zn 0.28634 0.64714 0.52662 0.0
O240 O 0.28898 0.66413 0.50727 0.0
O241 O 0.26005 0.65355 0.49854 0.0
O242 O 0.30633 0.63573 0.52611 0.0
O243 O 0.27268 0.68167 0.54172 0.0
O244 O 0.28786 0.6631 0.55235 0.0
C245 C 0.27548 0.66136 0.49512 0.0
C246 C 0.25096 0.62139 0.52534 0.0
O247 O 0.26466 0.62409 0.51715 0.0
O248 O 0.25094 0.63414 0.53898 0.0
C249 C 0.30711 0.62794 0.5097 0.0
O250 O 0.29552 0.62865 0.49584 0.0
C251 C 0.28263 0.67835 0.55465 0.0
Zn252 Zn 0.44663 0.54175 0.75351 0.0
Zn253 Zn 0.42639 0.56472 0.75506 0.0
O254 O 0.44232 0.56903 0.78319 0.0
O255 O 0.46151 0.55183 0.77873 0.0
O256 O 0.41288 0.58967 0.75596 0.0
O257 O 0.45763 0.54512 0.73032 0.0
O258 O 0.44135 0.56555 0.72892 0.0
C259 C 0.4554 0.56285 0.78974 0.0
C260 C 0.4101 0.51881 0.75255 0.0
O261 O 0.40689 0.53556 0.75353 0.0
O262 O 0.42603 0.51794 0.75183 0.0
C263 C 0.40128 0.59501 0.76577 0.0
O264 O 0.39519 0.58435 0.77786 0.0
C265 C 0.45253 0.55687 0.72164 0.0
Zn266 Zn 0.63485 0.04936 0.74922 0.0
Zn267 Zn 0.6542 0.02875 0.74146 0.0
O268 O 0.64633 0.02617 0.76669 0.0
O269 O 0.61935 0.02625 0.75764 0.0
O270 O 0.66865 0.01086 0.73838 0.0
O271 O 0.6324 0.05106 0.72266 0.0
O272 O 0.63694 0.02236 0.71799 0.0
C273 C 0.63072 0.02524 0.77054 0.0
C274 C 0.67107 0.06812 0.75681 0.0
O275 O 0.67088 0.05494 0.74336 0.0
O276 O 0.65752 0.06714 0.76513 0.0
C277 C 0.68553 0.01618 0.74217 0.0
O278 O 0.69413 0.03456 0.7461 0.0
C279 C 0.63242 0.03595 0.71173 0.0
Zn280 Zn 0.76852 0.71073 0.99957 0.0
Zn281 Zn 0.78782 0.68689 0.99719 0.0
O282 O 0.79233 0.7001 0.97356 0.0
O283 O 0.77246 0.71677 0.97449 0.0
O284 O 0.80639 0.67165 1.00055 0.0
O285 O 0.78237 0.72865 0.02284 0.0
O286 O 0.79335 0.70389 0.02369 0.0
C287 C 0.78411 0.7109 0.96627 0.0
C288 C 0.74798 0.67121 0.9983 0.0
O289 O 0.76242 0.66726 0.99435 0.0
O290 O 0.74761 0.68861 0.00214 0.0
C291 C 0.8183 0.66935 0.99039 0.0
O292 O 0.81873 0.67611 0.97483 0.0
C293 C 0.7914 0.71989 0.03164 0.0
Zn294 Zn 0.96266 0.50781 0.77915 0.0
Zn295 Zn 0.93853 0.54213 0.77622 0.0
O296 O 0.93655 0.54347 0.80313 0.0
O297 O 0.95111 0.5222 0.79689 0.0
O298 O 0.92664 0.56111 0.76851 0.0
O299 O 0.98003 0.5262 0.76609 0.0
O300 O 0.96456 0.54603 0.77384 0.0
C301 C 0.94384 0.53124 0.8083 0.0
C302 C 0.92364 0.49809 0.76116 0.0
O303 O 0.92377 0.51575 0.7641 0.0
O304 O 0.93724 0.49236 0.7661 0.0
C305 C 0.90995 0.55574 0.76924 0.0
O306 O 0.90284 0.53927 0.77418 0.0
C307 C 0.97062 0.53684 0.76105 0.0
Zn308 Zn 0.82633 0.3936 0.51287 0.0
Zn309 Zn 0.79553 0.40677 0.51015 0.0
O310 O 0.79688 0.40051 0.48324 0.0
O311 O 0.8216 0.39085 0.48527 0.0
O312 O 0.77474 0.4171 0.51292 0.0
O313 O 0.81302 0.37457 0.52695 0.0
O314 O 0.78862 0.3834 0.52144 0.0
C315 C 0.809 0.39469 0.47577 0.0
C316 C 0.83261 0.43305 0.52859 0.0
O317 O 0.81611 0.42958 0.52261 0.0
O318 O 0.84037 0.41975 0.52687 0.0
C319 C 0.77616 0.4342 0.51056 0.0
O320 O 0.79056 0.44369 0.5046 0.0
C321 C 0.79825 0.37637 0.53159 0.0
Zn322 Zn 0.64031 0.53052 0.2713 0.0
Zn323 Zn 0.65864 0.50654 0.26764 0.0
O324 O 0.64458 0.50517 0.29463 0.0
O325 O 0.62889 0.52621 0.29384 0.0
O326 O 0.67429 0.4833 0.264 0.0
O327 O 0.62545 0.52322 0.2463 0.0
O328 O 0.64131 0.50282 0.23975 0.0
C329 C 0.63376 0.51419 0.30229 0.0
C330 C 0.67601 0.55282 0.27228 0.0
O331 O 0.67828 0.53562 0.26954 0.0
O332 O 0.66059 0.55451 0.27443 0.0
C333 C 0.67522 0.46946 0.2731 0.0
O334 O 0.66591 0.46802 0.28705 0.0
C335 C 0.62937 0.51117 0.23429 0.0
Gd336 Gd 0.02634 0.02732 0.00286 0.0
Gd337 Gd 0.06389 0.04634 0.02389 0.0
C338 C 0.04376 0.07345 0.00604 0.0
C339 C 0.99216 0.01805 0.99421 0.0
C340 C 0.97942 0.02967 0.99404 0.0
C341 C 0.96793 0.02781 0.97761 0.0
C342 C 0.97947 0.04355 0.00958 0.0
C343 C 0.95578 0.0525 0.99263 0.0
C344 C 0.96753 0.05477 0.00893 0.0
C345 C 0.95621 0.03928 0.97686 0.0
C346 C 0.04959 0.02458 0.97688 0.0
C347 C 0.04633 1.00024 0.02083 0.0
C348 C 0.09821 0.05556 0.03241 0.0
C349 C 0.11116 0.04417 0.0325 0.0
C350 C 0.12621 0.05012 0.04614 0.0
C351 C 0.10794 0.02665 0.02005 0.0
C352 C 0.13538 0.02169 0.03432 0.0
C353 C 0.12 0.0155 0.02093 0.0
C354 C 0.13827 0.03901 0.04704 0.0
C355 C 0.04054 0.04857 0.05004 0.0
O356 O 0.0294 0.05861 0.00174 0.0
O357 O 0.05915 0.07241 0.01421 0.0
O358 O 0.00317 0.02068 0.982 0.0
O359 O 0.99991 0.01698 0.01046 0.0
O360 O 0.03253 0.01664 0.97418 0.0
O361 O 0.05382 0.03224 0.99423 0.0
O362 O 0.0609 0.01487 0.02402 0.0
O363 O 0.03076 1.00166 0.01353 0.0
O364 O 0.08719 0.05267 0.04459 0.0
O365 O 0.09033 0.05646 0.01616 0.0
O366 O 0.05772 0.05575 0.05287 0.0
O367 O 0.03634 0.04114 0.03262 0.0
H368 H 0.96798 0.01743 0.9654 0.0
H369 H 0.9886 0.04567 0.02221 0.0
H370 H 0.96723 0.06497 0.0212 0.0
H371 H 0.94702 0.03734 0.96425 0.0
H372 H 0.12867 0.06342 0.05607 0.0
H373 H 0.0961 0.02156 0.00972 0.0
H374 H 0.11727 1.00206 0.01116 0.0
H375 H 0.15008 0.04426 0.05737 0.0
Gd376 Gd 0.29595 0.78732 0.25 0.0
Gd377 Gd 0.28308 0.79607 0.29061 0.0
C378 C 0.29954 0.83098 0.2711 0.0
C379 C 0.30001 0.78482 0.21579 0.0
C380 C 0.30858 0.8003 0.20648 0.0
C381 C 0.32305 0.79872 0.19697 0.0
C382 C 0.30317 0.81735 0.20811 0.0
C383 C 0.32483 0.82981 0.18865 0.0
C384 C 0.31126 0.83201 0.19923 0.0
C385 C 0.33115 0.81345 0.188 0.0
C386 C 0.32271 0.79156 0.27872 0.0
C387 C 0.27421 0.75239 0.26768 0.0
C388 C 0.28216 0.7984 0.32539 0.0
C389 C 0.27222 0.78405 0.33521 0.0
C390 C 0.25492 0.78408 0.33904 0.0
C391 C 0.27942 0.7692 0.33943 0.0
C392 C 0.25236 0.75483 0.3514 0.0
C393 C 0.26956 0.75471 0.3474 0.0
C394 C 0.24504 0.76954 0.34711 0.0
C395 C 0.25665 0.79389 0.2625 0.0
O396 O 0.29876 0.81907 0.25529 0.0
O397 O 0.29689 0.82542 0.28708 0.0
O398 O 0.31086 0.78028 0.22788 0.0
O399 O 0.28485 0.78585 0.22163 0.0
O400 O 0.32473 0.78869 0.26136 0.0
O401 O 0.30687 0.79244 0.27924 0.0
O402 O 0.27421 0.76405 0.28335 0.0
O403 O 0.2812 0.75781 0.25301 0.0
O404 O 0.27243 0.8062 0.31505 0.0
O405 O 0.29518 0.79377 0.31736 0.0
O406 O 0.25528 0.79767 0.28008 0.0
O407 O 0.27196 0.79129 0.26133 0.0
H408 H 0.32768 0.78586 0.19601 0.0
H409 H 0.29234 0.81917 0.21575 0.0
H410 H 0.30611 0.84451 0.19956 0.0
H411 H 0.34143 0.81153 0.17956 0.0
H412 H 0.24901 0.79532 0.33581 0.0
H413 H 0.29271 0.76874 0.33666 0.0
H414 H 0.27576 0.74385 0.35115 0.0
H415 H 0.23188 0.76997 0.35034 0.0
Gd416 Gd 0.55843 0.03586 0.50962 0.0
Gd417 Gd 0.51748 0.03122 0.50995 0.0
C418 C 0.52963 0.99321 0.50283 0.0
C419 C 0.59043 0.0315 0.51336 0.0
C420 C 0.5999 0.01629 0.50939 0.0
C421 C 0.60799 0.01432 0.49311 0.0
C422 C 0.60258 0.00498 0.52271 0.0
C423 C 0.62225 0.99137 0.50432 0.0
C424 C 0.61367 0.99269 0.5202 0.0
C425 C 0.61902 1.00193 0.49058 0.0
C426 C 0.53931 0.03584 0.47767 0.0
C427 C 0.54692 0.07391 0.51762 0.0
C428 C 0.48534 0.03516 0.50655 0.0
C429 C 0.47594 0.0503 0.51108 0.0
C430 C 0.47075 0.05431 0.52878 0.0
C431 C 0.47081 0.05982 0.49718 0.0
C432 C 0.45488 0.07643 0.51823 0.0
C433 C 0.46045 0.07268 0.50069 0.0
C434 C 0.4604 0.06726 0.53233 0.0
C435 C 0.53651 0.03134 0.54185 0.0
O436 O 0.54605 0.00432 0.50893 0.0
O437 O 0.51588 1.0003 0.49949 0.0
O438 O 0.58372 0.03753 0.49914 0.0
O439 O 0.58023 0.03036 0.52657 0.0
O440 O 0.55553 0.04671 0.48275 0.0
O441 O 0.53438 0.02513 0.489 0.0
O442 O 0.53035 0.06318 0.51113 0.0
O443 O 0.56025 0.06634 0.52128 0.0
O444 O 0.4922 0.02888 0.52049 0.0
O445 O 0.49547 0.03673 0.49328 0.0
O446 O 0.52028 0.02048 0.53689 0.0
O447 O 0.54136 0.04185 0.53037 0.0
H448 H 0.60636 0.0229 0.48262 0.0
H449 H 0.5967 0.00617 0.53545 0.0
H450 H 0.6161 0.98474 0.53102 0.0
H451 H 0.62565 1.00124 0.4783 0.0
H452 H 0.47436 0.04717 0.53984 0.0
H453 H 0.47437 0.0569 0.48335 0.0
H454 H 0.45622 0.0791 0.48933 0.0
H455 H 0.45659 0.06993 0.54607 0.0
Gd456 Gd 0.27398 0.2898 0.76243 0.0
Gd457 Gd 0.313 0.28113 0.76694 0.0
C458 C 0.2974 0.29568 0.80346 0.0
C459 C 0.24037 0.28533 0.76523 0.0
C460 C 0.22911 0.28855 0.78008 0.0
C461 C 0.22115 0.30388 0.78123 0.0
C462 C 0.22507 0.27554 0.79236 0.0
C463 C 0.2043 0.29215 0.80546 0.0
C464 C 0.21288 0.27734 0.80488 0.0
C465 C 0.20896 0.30572 0.79381 0.0
C466 C 0.30131 0.32329 0.76439 0.0
C467 C 0.29087 0.27743 0.72568 0.0
C468 C 0.34647 0.28389 0.76486 0.0
C469 C 0.35795 0.28047 0.75037 0.0
C470 C 0.36342 0.26343 0.74775 0.0
C471 C 0.36461 0.29469 0.73997 0.0
C472 C 0.38282 0.27544 0.72555 0.0
C473 C 0.37687 0.29221 0.72773 0.0
C474 C 0.37562 0.26091 0.73544 0.0
C475 C 0.28532 0.24794 0.76569 0.0
O476 O 0.2821 0.29452 0.79329 0.0
O477 O 0.31163 0.29226 0.79669 0.0
O478 O 0.25038 0.30049 0.76016 0.0
O479 O 0.24832 0.27159 0.76579 0.0
O480 O 0.28431 0.32216 0.76273 0.0
O481 O 0.30247 0.30626 0.76502 0.0
O482 O 0.30581 0.27829 0.73633 0.0
O483 O 0.27613 0.27981 0.73229 0.0
O484 O 0.33544 0.26875 0.76886 0.0
O485 O 0.33951 0.29842 0.76476 0.0
O486 O 0.30227 0.24916 0.76868 0.0
O487 O 0.28459 0.26483 0.76392 0.0
H488 H 0.2239 0.31413 0.77195 0.0
H489 H 0.23095 0.26357 0.79201 0.0
H490 H 0.20989 0.26683 0.81386 0.0
H491 H 0.20255 0.31724 0.79376 0.0
H492 H 0.35858 0.25219 0.75556 0.0
H493 H 0.36079 0.30805 0.74167 0.0
H494 H 0.38224 0.30385 0.72058 0.0
H495 H 0.37962 0.24766 0.73392 0.0
Gd496 Gd 0.03983 0.05436 0.51784 0.0
Gd497 Gd 0.04239 0.01324 0.50185 0.0
C498 C 0.02888 0.03684 0.47211 0.0
C499 C 0.04272 0.09056 0.52226 0.0
C500 C 0.04138 0.10341 0.50898 0.0
C501 C 0.02728 0.11206 0.50864 0.0
C502 C 0.0537 0.10673 0.49628 0.0
C503 C 0.03841 0.12817 0.48391 0.0
C504 C 0.05228 0.1191 0.48393 0.0
C505 C 0.02574 0.12425 0.49613 0.0
C506 C 0.0112 0.02532 0.52005 0.0
C507 C 0.05513 0.03137 0.54688 0.0
C508 C 0.03514 0.97648 0.49686 0.0
C509 C 0.03999 0.96389 0.50911 0.0
C510 C 0.05203 0.9532 0.5043 0.0
C511 C 0.03293 0.96279 0.52595 0.0
C512 C 0.04888 0.93954 0.53227 0.0
C513 C 0.03733 0.95072 0.5374 0.0
C514 C 0.05643 0.94107 0.5158 0.0
C515 C 0.07468 0.03974 0.50396 0.0
O516 O 0.03141 0.05141 0.48637 0.0
O517 O 0.03197 0.02018 0.47442 0.0
O518 O 0.02779 0.07784 0.52327 0.0
O519 O 0.05664 0.08359 0.52255 0.0
O520 O 0.01762 0.04068 0.53286 0.0
O521 O 0.02013 0.02635 0.50652 0.0
O522 O 0.04893 0.01584 0.53351 0.0
O523 O 0.05488 0.04875 0.54367 0.0
O524 O 0.04821 0.98684 0.48972 0.0
O525 O 0.02399 0.98602 0.50269 0.0
O526 O 0.07206 0.02149 0.49777 0.0
O527 O 0.06019 0.04209 0.50839 0.0
H528 H 0.0175 0.10947 0.51814 0.0
H529 H 0.0646 0.10005 0.49604 0.0
H530 H 0.06242 0.12206 0.47488 0.0
H531 H 0.01476 0.13083 0.49622 0.0
H532 H 0.0578 0.95401 0.49151 0.0
H533 H 0.02375 0.97098 0.53024 0.0
H534 H 0.03108 0.94954 0.54988 0.0
H535 H 0.0654 0.93256 0.51163 0.0
Gd536 Gd 0.31072 0.80241 0.76794 0.0
Gd537 Gd 0.2771 0.77097 0.76462 0.0
C538 C 0.31329 0.75678 0.76742 0.0
C539 C 0.34221 0.82516 0.77828 0.0
C540 C 0.35965 0.8214 0.78235 0.0
C541 C 0.3717 0.82316 0.76928 0.0
C542 C 0.36417 0.81541 0.799 0.0
C543 C 0.39285 0.81415 0.78992 0.0
C544 C 0.38067 0.81183 0.80275 0.0
C545 C 0.38819 0.81943 0.773 0.0
C546 C 0.29475 0.78728 0.73335 0.0
C547 C 0.27444 0.81649 0.76455 0.0
C548 C 0.24584 0.74809 0.75342 0.0
C549 C 0.22877 0.7526 0.74955 0.0
C550 C 0.22038 0.75955 0.76417 0.0
C551 C 0.22194 0.75226 0.73112 0.0
C552 C 0.19922 0.76666 0.74201 0.0
C553 C 0.20731 0.7593 0.72738 0.0
C554 C 0.20572 0.76657 0.76041 0.0
C555 C 0.2928 0.78648 0.79941 0.0
O556 O 0.32172 0.77568 0.77077 0.0
O557 O 0.29557 0.75117 0.76339 0.0
O558 O 0.33487 0.82021 0.76086 0.0
O559 O 0.33079 0.8207 0.78993 0.0
O560 O 0.30291 0.80544 0.7387 0.0
O561 O 0.29676 0.77805 0.74609 0.0
O562 O 0.26609 0.79755 0.76085 0.0
O563 O 0.29211 0.82216 0.76936 0.0
O564 O 0.25312 0.75215 0.77087 0.0
O565 O 0.25735 0.75322 0.74204 0.0
O566 O 0.28429 0.76839 0.79432 0.0
O567 O 0.29098 0.79546 0.78645 0.0
H568 H 0.36847 0.82765 0.75629 0.0
H569 H 0.35513 0.81373 0.8093 0.0
H570 H 0.38411 0.80768 0.81586 0.0
H571 H 0.39757 0.82143 0.76303 0.0
H572 H 0.22538 0.76007 0.77855 0.0
H573 H 0.22816 0.74695 0.71961 0.0
H574 H 0.20218 0.75872 0.71302 0.0
H575 H 0.19959 0.7721 0.77188 0.0
Gd576 Gd 0.53928 0.04018 0.02716 0.0
Gd577 Gd 0.53473 0.03629 0.98584 0.0
C578 C 0.50047 0.02807 0.00332 0.0
C579 C 0.53484 0.04459 0.06143 0.0
C580 C 0.52027 0.03384 0.07016 0.0
C581 C 0.52393 0.02216 0.08264 0.0
C582 C 0.50253 0.03442 0.06554 0.0
C583 C 0.49281 0.0139 0.08766 0.0
C584 C 0.48893 0.02451 0.07421 0.0
C585 C 0.5103 0.01222 0.09131 0.0
C586 C 0.53823 0.00495 0.00856 0.0
C587 C 0.5736 0.04928 0.0093 0.0
C588 C 0.5391 0.0345 0.9519 0.0
C589 C 0.55023 0.05026 0.94439 0.0
C590 C 0.54221 0.06193 0.93495 0.0
C591 C 0.56901 0.05461 0.94764 0.0
C592 C 0.57118 0.07882 0.92839 0.0
C593 C 0.57944 0.06904 0.93991 0.0
C594 C 0.55267 0.07623 0.92705 0.0
C595 C 0.53517 0.07123 0.00416 0.0
O596 O 0.51075 0.03888 0.0183 0.0
O597 O 0.50722 0.02076 0.98909 0.0
O598 O 0.54553 0.03482 0.05485 0.0
O599 O 0.53052 0.05559 0.05033 0.0
O600 O 0.54844 0.01319 0.02405 0.0
O601 O 0.5286 0.01527 0.004 0.0
O602 O 0.56319 0.03722 0.99499 0.0
O603 O 0.5668 0.05571 0.02389 0.0
O604 O 0.52465 0.03771 0.95781 0.0
O605 O 0.54766 0.0264 0.96304 0.0
O606 O 0.52539 0.06305 0.9885 0.0
O607 O 0.54502 0.06117 0.00878 0.0
H608 H 0.53743 0.02116 0.08609 0.0
H609 H 0.49914 0.04286 0.05555 0.0
H610 H 0.47551 0.02584 0.071 0.0
H611 H 0.51372 0.00428 0.10175 0.0
H612 H 0.52781 0.05931 0.93277 0.0
H613 H 0.57565 0.04623 0.95527 0.0
H614 H 0.59372 0.07067 0.94083 0.0
H615 H 0.54613 0.08352 0.91795 0.0
Gd616 Gd 0.29183 0.30297 0.26666 0.0
Gd617 Gd 0.28269 0.26092 0.25532 0.0
C618 C 0.25203 0.28126 0.26372 0.0
C619 C 0.30033 0.33998 0.2724 0.0
C620 C 0.28937 0.35353 0.27389 0.0
C621 C 0.29304 0.36822 0.28956 0.0
C622 C 0.27455 0.35118 0.26048 0.0
C623 C 0.26767 0.37868 0.27802 0.0
C624 C 0.26388 0.36376 0.26245 0.0
C625 C 0.28223 0.38071 0.29165 0.0
C626 C 0.28992 0.2837 0.29531 0.0
C627 C 0.32279 0.28388 0.25771 0.0
C628 C 0.27501 0.22399 0.25036 0.0
C629 C 0.28623 0.21089 0.24622 0.0
C630 C 0.28101 0.19631 0.23038 0.0
C631 C 0.30254 0.21334 0.25748 0.0
C632 C 0.30756 0.18588 0.23783 0.0
C633 C 0.31306 0.20088 0.25337 0.0
C634 C 0.2916 0.18388 0.2262 0.0
C635 C 0.28493 0.27987 0.22645 0.0
O636 O 0.26265 0.29646 0.25927 0.0
O637 O 0.25744 0.26579 0.26515 0.0
O638 O 0.3002 0.33022 0.28586 0.0
O639 O 0.29915 0.32945 0.256 0.0
O640 O 0.28334 0.29814 0.29432 0.0
O641 O 0.29728 0.28004 0.28116 0.0
O642 O 0.31232 0.26742 0.25992 0.0
O643 O 0.31709 0.29921 0.25728 0.0
O644 O 0.27168 0.23316 0.23711 0.0
O645 O 0.27877 0.23493 0.26686 0.0
O646 O 0.29087 0.265 0.22745 0.0
O647 O 0.27758 0.28387 0.24055 0.0
H648 H 0.30421 0.36996 0.30022 0.0
H649 H 0.27123 0.33969 0.24843 0.0
H650 H 0.2529 0.36204 0.25157 0.0
H651 H 0.28529 0.39195 0.30389 0.0
H652 H 0.26867 0.19444 0.22132 0.0
H653 H 0.30709 0.22472 0.26961 0.0
H654 H 0.32519 0.2026 0.26272 0.0
H655 H 0.2872 0.17255 0.21402 0.0
Gd656 Gd 0.54118 0.55425 0.01777 0.0
Gd657 Gd 0.54415 0.51429 0.00163 0.0
C658 C 0.52813 0.53661 0.97287 0.0
C659 C 0.54887 0.59106 0.02285 0.0
C660 C 0.54436 0.60391 0.01072 0.0
C661 C 0.53085 0.61299 0.01425 0.0
C662 C 0.55348 0.60709 0.99536 0.0
C663 C 0.53666 0.62922 0.98827 0.0
C664 C 0.5496 0.61964 0.98421 0.0
C665 C 0.52709 0.6257 0.00311 0.0
C666 C 0.50844 0.5286 0.01588 0.0
C667 C 0.55432 0.53071 0.04755 0.0
C668 C 0.54364 0.47861 0.99619 0.0
C669 C 0.54454 0.46571 0.00937 0.0
C670 C 0.55414 0.45204 0.00619 0.0
C671 C 0.53653 0.46758 0.02562 0.0
C672 C 0.54623 0.4408 0.03447 0.0
C673 C 0.53739 0.45522 0.03808 0.0
C674 C 0.55497 0.4396 0.01865 0.0
C675 C 0.57225 0.54395 0.99915 0.0
O676 O 0.53428 0.55209 0.98623 0.0
O677 O 0.52862 0.51932 0.97596 0.0
O678 O 0.5357 0.58083 0.02995 0.0
O679 O 0.55981 0.58131 0.01692 0.0
O680 O 0.51194 0.54694 0.02219 0.0
O681 O 0.52256 0.52511 0.01112 0.0
O682 O 0.55139 0.51623 0.03315 0.0
O683 O 0.55164 0.54751 0.04523 0.0
O684 O 0.55826 0.49245 0.9971 0.0
O685 O 0.52905 0.48434 0.99468 0.0
O686 O 0.56545 0.5291 0.98591 0.0
O687 O 0.56384 0.54213 0.01295 0.0
H688 H 0.52356 0.61067 0.0259 0.0
H689 H 0.56392 0.60028 0.99215 0.0
H690 H 0.55732 0.6226 0.97297 0.0
H691 H 0.51726 0.63336 0.00649 0.0
H692 H 0.56071 0.45076 0.9939 0.0
H693 H 0.52946 0.47844 0.02859 0.0
H694 H 0.53088 0.45673 0.0504 0.0
H695 H 0.56181 0.42857 0.0155 0.0
Gd696 Gd 0.81296 0.30386 0.26805 0.0
Gd697 Gd 0.77822 0.27228 0.26204 0.0
C698 C 0.8141 0.25752 0.26695 0.0
C699 C 0.84389 0.32573 0.28276 0.0
C700 C 0.86154 0.32213 0.28509 0.0
C701 C 0.8718 0.3221 0.27038 0.0
C702 C 0.86778 0.31756 0.3019 0.0
C703 C 0.89422 0.31306 0.28932 0.0
C704 C 0.88394 0.31293 0.30395 0.0
C705 C 0.88806 0.31759 0.27251 0.0
C706 C 0.8012 0.28756 0.23277 0.0
C707 C 0.77666 0.31822 0.262 0.0
C708 C 0.74726 0.24996 0.24833 0.0
C709 C 0.7297 0.25364 0.246 0.0
C710 C 0.71822 0.25049 0.2595 0.0
C711 C 0.72478 0.26159 0.23073 0.0
C712 C 0.69746 0.26341 0.2426 0.0
C713 C 0.70885 0.2666 0.22916 0.0
C714 C 0.70207 0.25528 0.25774 0.0
C715 C 0.79057 0.28897 0.29723 0.0
O716 O 0.82282 0.27638 0.27132 0.0
O717 O 0.79655 0.2523 0.26146 0.0
O718 O 0.83695 0.32549 0.26574 0.0
O719 O 0.83234 0.31669 0.2924 0.0
O720 O 0.81006 0.3056 0.23769 0.0
O721 O 0.80055 0.27907 0.24639 0.0
O722 O 0.76797 0.2994 0.25898 0.0
O723 O 0.79439 0.32377 0.26668 0.0
O724 O 0.75442 0.25095 0.26545 0.0
O725 O 0.75864 0.25846 0.23822 0.0
O726 O 0.78234 0.27072 0.29255 0.0
O727 O 0.7906 0.29716 0.28348 0.0
H728 H 0.86729 0.32549 0.25723 0.0
H729 H 0.86016 0.31752 0.31348 0.0
H730 H 0.88866 0.30983 0.31718 0.0
H731 H 0.89588 0.31776 0.26108 0.0
H732 H 0.72172 0.24436 0.27137 0.0
H733 H 0.73326 0.26407 0.22 0.0
H734 H 0.70515 0.27243 0.21714 0.0
H735 H 0.69312 0.25251 0.26802 0.0
Gd736 Gd 0.0393 0.53791 0.52421 0.0
Gd737 Gd 0.03155 0.54072 0.48401 0.0
C738 C 0.99889 0.52269 0.50122 0.0
C739 C 0.03711 0.5371 0.55858 0.0
C740 C 0.02202 0.52814 0.56761 0.0
C741 C 0.02315 0.51303 0.57696 0.0
C742 C 0.00632 0.53425 0.56673 0.0
C743 C 0.99431 0.51229 0.5867 0.0
C744 C 0.99258 0.52641 0.57632 0.0
C745 C 0.00931 0.5051 0.58646 0.0
C746 C 0.043 0.50864 0.50013 0.0
C747 C 0.07192 0.55525 0.50562 0.0
C748 C 0.03323 0.54505 0.45049 0.0
C749 C 0.04755 0.55788 0.44335 0.0
C750 C 0.04357 0.57206 0.43419 0.0
C751 C 0.06527 0.55664 0.4461 0.0
C752 C 0.07355 0.57997 0.42629 0.0
C753 C 0.07827 0.56775 0.43763 0.0
C754 C 0.05659 0.58321 0.4258 0.0
C755 C 0.02787 0.56967 0.50877 0.0
O756 O 0.0092 0.53082 0.51727 0.0
O757 O 0.00548 0.52096 0.48546 0.0
O758 O 0.04364 0.52507 0.54822 0.0
O759 O 0.0357 0.5519 0.55108 0.0
O760 O 0.05336 0.5155 0.51581 0.0
O761 O 0.03061 0.51652 0.49828 0.0
O762 O 0.06137 0.54723 0.48984 0.0
O763 O 0.066 0.55652 0.52179 0.0
O764 O 0.02425 0.55387 0.4612 0.0
O765 O 0.037 0.53042 0.45662 0.0
O766 O 0.01688 0.56219 0.49363 0.0
O767 O 0.0404 0.56195 0.50988 0.0
H768 H 0.03502 0.50791 0.57753 0.0
H769 H 0.00489 0.5456 0.55927 0.0
H770 H 0.98117 0.53231 0.57673 0.0
H771 H 0.01093 0.49446 0.59478 0.0
H772 H 0.03013 0.57373 0.43261 0.0
H773 H 0.06888 0.54634 0.45379 0.0
H774 H 0.09135 0.56508 0.43815 0.0
H775 H 0.05283 0.59269 0.41714 0.0
Gd776 Gd 0.77408 0.78934 0.26396 0.0
Gd777 Gd 0.81351 0.78119 0.26505 0.0
C778 C 0.79967 0.79512 0.30334 0.0
C779 C 0.74059 0.78449 0.26759 0.0
C780 C 0.72881 0.78788 0.28183 0.0
C781 C 0.7228 0.80461 0.2842 0.0
C782 C 0.72193 0.77335 0.29183 0.0
C783 C 0.70227 0.79138 0.30499 0.0
C784 C 0.70887 0.77509 0.30325 0.0
C785 C 0.70975 0.8064 0.29577 0.0
C786 C 0.80121 0.82287 0.26491 0.0
C787 C 0.78889 0.77757 0.22559 0.0
C788 C 0.84698 0.78527 0.26211 0.0
C789 C 0.85828 0.78054 0.2479 0.0
C790 C 0.86772 0.76674 0.24974 0.0
C791 C 0.86099 0.7909 0.2333 0.0
C792 C 0.88359 0.7751 0.22383 0.0
C793 C 0.87345 0.78818 0.22142 0.0
C794 C 0.88019 0.76398 0.23779 0.0
C795 C 0.78643 0.74739 0.26328 0.0
O796 O 0.78364 0.79343 0.29442 0.0
O797 O 0.8135 0.79238 0.29524 0.0
O798 O 0.75011 0.79935 0.26163 0.0
O799 O 0.74914 0.77143 0.26934 0.0
O800 O 0.78423 0.8218 0.26342 0.0
O801 O 0.80219 0.80586 0.2656 0.0
O802 O 0.80489 0.77976 0.23486 0.0
O803 O 0.77448 0.7785 0.23357 0.0
O804 O 0.83731 0.77106 0.26881 0.0
O805 O 0.8387 0.79838 0.25956 0.0
O806 O 0.80328 0.74841 0.26316 0.0
O807 O 0.78533 0.76456 0.26385 0.0
H808 H 0.72769 0.81603 0.27662 0.0
H809 H 0.72615 0.76022 0.29034 0.0
H810 H 0.70357 0.76339 0.31037 0.0
H811 H 0.70489 0.81911 0.29676 0.0
H812 H 0.86596 0.75857 0.26087 0.0
H813 H 0.8539 0.80157 0.23133 0.0
H814 H 0.87541 0.79668 0.21056 0.0
H815 H 0.88779 0.75384 0.2401 0.0
Gd816 Gd 0.79588 0.28732 0.75228 0.0
Gd817 Gd 0.78308 0.29612 0.78574 0.0
C818 C 0.80301 0.33138 0.77196 0.0
C819 C 0.80572 0.28615 0.71987 0.0
C820 C 0.81313 0.30135 0.70986 0.0
C821 C 0.82801 0.30043 0.70092 0.0
C822 C 0.80617 0.31731 0.71007 0.0
C823 C 0.82797 0.33039 0.69102 0.0
C824 C 0.8136 0.33182 0.70066 0.0
C825 C 0.83536 0.31488 0.69138 0.0
C826 C 0.81885 0.28493 0.78137 0.0
C827 C 0.77803 0.25225 0.76765 0.0
C828 C 0.77098 0.29803 0.81713 0.0
C829 C 0.76428 0.2836 0.82806 0.0
C830 C 0.75108 0.28583 0.83914 0.0
C831 C 0.77047 0.26712 0.82683 0.0
C832 C 0.75197 0.25634 0.84959 0.0
C833 C 0.76425 0.25345 0.8375 0.0
C834 C 0.74492 0.27218 0.84998 0.0
C835 C 0.7607 0.29839 0.7561 0.0
O836 O 0.79993 0.31923 0.75608 0.0
O837 O 0.80003 0.32533 0.78745 0.0
O838 O 0.81617 0.28569 0.73458 0.0
O839 O 0.78905 0.28386 0.72254 0.0
O840 O 0.81379 0.2724 0.7661 0.0
O841 O 0.81124 0.29834 0.781 0.0
O842 O 0.78117 0.26475 0.78326 0.0
O843 O 0.77966 0.25792 0.75176 0.0
O844 O 0.76101 0.29591 0.80133 0.0
O845 O 0.78805 0.30176 0.81577 0.0
O846 O 0.76621 0.31148 0.77091 0.0
O847 O 0.76795 0.28484 0.75709 0.0
H848 H 0.83368 0.28834 0.70098 0.0
H849 H 0.79483 0.31841 0.71718 0.0
H850 H 0.80756 0.34358 0.70006 0.0
H851 H 0.84627 0.31358 0.68364 0.0
H852 H 0.74599 0.29838 0.83983 0.0
H853 H 0.78058 0.26519 0.81822 0.0
H854 H 0.76981 0.24124 0.8372 0.0
H855 H 0.73558 0.2746 0.85948 0.0
Gd856 Gd 0.79124 0.79915 0.76652 0.0
Gd857 Gd 0.77882 0.75881 0.75078 0.0
C858 C 0.74949 0.77748 0.76232 0.0
C859 C 0.79816 0.83582 0.77647 0.0
C860 C 0.78762 0.84938 0.77964 0.0
C861 C 0.79367 0.86481 0.7946 0.0
C862 C 0.77158 0.84703 0.76803 0.0
C863 C 0.7686 0.87656 0.78545 0.0
C864 C 0.76211 0.86068 0.7709 0.0
C865 C 0.78419 0.87843 0.79749 0.0
C866 C 0.79513 0.77687 0.79195 0.0
C867 C 0.82021 0.78017 0.75581 0.0
C868 C 0.77462 0.72256 0.74001 0.0
C869 C 0.78697 0.71049 0.7397 0.0
C870 C 0.78922 0.70055 0.72261 0.0
C871 C 0.79704 0.70932 0.75613 0.0
C872 C 0.81072 0.68748 0.73843 0.0
C873 C 0.8087 0.69776 0.75551 0.0
C874 C 0.80111 0.68924 0.72195 0.0
C875 C 0.77604 0.7816 0.72545 0.0
O876 O 0.76133 0.79386 0.76201 0.0
O877 O 0.75371 0.76114 0.76083 0.0
O878 O 0.79752 0.82421 0.78836 0.0
O879 O 0.79705 0.82731 0.75925 0.0
O880 O 0.80718 0.79211 0.79025 0.0
O881 O 0.78155 0.77381 0.7799 0.0
O882 O 0.80858 0.76421 0.75751 0.0
O883 O 0.81563 0.79612 0.75564 0.0
O884 O 0.77698 0.73485 0.72873 0.0
O885 O 0.77149 0.72985 0.75634 0.0
O886 O 0.76351 0.76658 0.72684 0.0
O887 O 0.78924 0.7841 0.73775 0.0
H888 H 0.80591 0.86652 0.80378 0.0
H889 H 0.76661 0.83495 0.75657 0.0
H890 H 0.75016 0.85925 0.76137 0.0
H891 H 0.78925 0.89069 0.80877 0.0
H892 H 0.78177 0.70156 0.70976 0.0
H893 H 0.79577 0.7171 0.7695 0.0
H894 H 0.81572 0.69649 0.76849 0.0
H895 H 0.80268 0.68179 0.70855 0.0
Gd896 Gd 0.52614 0.52654 0.50252 0.0
Gd897 Gd 0.56427 0.54649 0.52382 0.0
C898 C 0.54382 0.57272 0.50486 0.0
C899 C 0.49189 0.51736 0.49423 0.0
C900 C 0.47878 0.5286 0.49378 0.0
C901 C 0.46762 0.52669 0.47709 0.0
C902 C 0.47766 0.54167 0.5095 0.0
C903 C 0.45347 0.54956 0.49213 0.0
C904 C 0.46493 0.55196 0.5087 0.0
C905 C 0.45508 0.53721 0.47622 0.0
C906 C 0.54994 0.52396 0.47715 0.0
C907 C 0.54635 0.50032 0.52169 0.0
C908 C 0.5986 0.55521 0.53216 0.0
C909 C 0.61166 0.54403 0.5343 0.0
C910 C 0.62457 0.54954 0.55018 0.0
C911 C 0.61121 0.52776 0.52104 0.0
C912 C 0.63728 0.5237 0.53893 0.0
C913 C 0.62401 0.51766 0.52336 0.0
C914 C 0.63737 0.53949 0.55244 0.0
C915 C 0.54033 0.54898 0.54917 0.0
O916 O 0.52953 0.55773 0.50075 0.0
O917 O 0.55926 0.57209 0.51337 0.0
O918 O 0.50278 0.51971 0.48184 0.0
O919 O 0.49983 0.51676 0.51057 0.0
O920 O 0.5329 0.51577 0.47405 0.0
O921 O 0.55366 0.53179 0.49446 0.0
O922 O 0.56071 0.51526 0.52559 0.0
O923 O 0.53096 0.50114 0.51329 0.0
O924 O 0.58774 0.55467 0.54463 0.0
O925 O 0.59065 0.55405 0.51536 0.0
O926 O 0.55742 0.55694 0.55237 0.0
O927 O 0.5367 0.54117 0.53186 0.0
H928 H 0.46847 0.51687 0.46477 0.0
H929 H 0.48639 0.54372 0.52244 0.0
H930 H 0.46376 0.56151 0.52107 0.0
H931 H 0.44618 0.53515 0.46338 0.0
H932 H 0.62495 0.56185 0.56067 0.0
H933 H 0.60117 0.52303 0.50882 0.0
H934 H 0.62392 0.50555 0.51274 0.0
H935 H 0.64761 0.5443 0.5645 0.0
Gd936 Gd 0.0593 0.53613 0.01106 0.0
Gd937 Gd 0.01848 0.53039 0.01489 0.0
C938 C 0.03103 0.4931 0.00582 0.0
C939 C 0.0916 0.53261 0.01279 0.0
C940 C 0.10114 0.51741 0.0093 0.0
C941 C 0.11017 0.51606 0.99368 0.0
C942 C 0.10261 0.50522 0.0221 0.0
C943 C 0.12302 0.49175 0.00444 0.0
C944 C 0.1134 0.49257 0.0197 0.0
C945 C 0.12088 0.50336 0.99123 0.0
C946 C 0.03779 0.53594 0.98074 0.0
C947 C 0.0462 0.57348 0.01972 0.0
C948 C 0.98607 0.53346 0.01364 0.0
C949 C 0.97658 0.54862 0.01699 0.0
C950 C 0.96464 0.54766 0.03018 0.0
C951 C 0.97837 0.56335 0.00645 0.0
C952 C 0.95521 0.57474 0.02107 0.0
C953 C 0.96784 0.57627 0.0085 0.0
C954 C 0.95409 0.56056 0.03223 0.0
C955 C 0.0405 0.53104 0.04521 0.0
O956 O 0.04758 0.50438 0.01088 0.0
O957 O 0.017 0.49993 0.00349 0.0
O958 O 0.08329 0.53667 0.99825 0.0
O959 O 0.08284 0.53302 0.02716 0.0
O960 O 0.05427 0.54646 0.98434 0.0
O961 O 0.03404 0.52526 0.9924 0.0
O962 O 0.02971 0.56201 0.01503 0.0
O963 O 0.06049 0.56691 0.02146 0.0
O964 O 0.99474 0.52988 0.02823 0.0
O965 O 0.99456 0.53284 0.99908 0.0
O966 O 0.02429 0.51979 0.04146 0.0
O967 O 0.04378 0.54161 0.03343 0.0
H968 H 0.10934 0.52523 0.98355 0.0
H969 H 0.09591 0.50587 0.03432 0.0
H970 H 0.11479 0.48406 0.03029 0.0
H971 H 0.12773 0.5029 0.9791 0.0
H972 H 0.96301 0.53647 0.03851 0.0
H973 H 0.9876 0.56467 0.9963 0.0
H974 H 0.96943 0.58728 0.99999 0.0
H975 H 0.94448 0.5588 0.04196 0.0
H976 H 0.02084 0.20474 0.91649 0.0
H977 H 0.02875 0.17905 0.9306 0.0
H978 H 0.0109 0.20005 0.98152 0.0
H979 H 1.00199 0.22473 0.96718 0.0
H980 H 0.05114 0.17816 0.95845 0.0
H981 H 0.98372 0.14597 0.97569 0.0
H982 H 0.98761 0.16446 0.96172 0.0
H983 H 0.9924 0.1707 0.98674 0.0
C984 C 0.01849 0.20372 0.93063 0.0
C985 C 0.01045 0.21649 0.94056 0.0
C986 C 0.02303 0.18907 0.93872 0.0
C987 C 0.01988 0.18713 0.95698 0.0
C988 C 0.01272 0.20056 0.96717 0.0
H989 H 0.04212 0.10672 0.0276 0.0
H990 H 0.03762 0.1357 0.01673 0.0
C991 C 0.00777 0.21482 0.95897 0.0
C992 C 0.02432 0.17129 0.96545 0.0
H993 H 0.00733 0.1346 0.98821 0.0
C994 C 0.04148 0.1686 0.96485 0.0
C995 C 0.01182 0.15881 0.97401 0.0
C996 C 0.99282 0.16 0.97443 0.0
C997 C 0.04644 0.15386 0.97246 0.0
C998 C 0.03393 0.14144 0.98087 0.0
C999 C 0.01692 0.14427 0.98183 0.0
C1000 C 0.0378 0.12465 0.98771 0.0
C1001 C 0.06506 0.15169 0.97155 0.0
C1002 C 0.0393 0.10891 0.97498 0.0
C1003 C 0.04161 0.0924 0.98113 0.0
C1004 C 0.04266 0.09147 1.0001 0.0
C1005 C 0.04151 0.1073 0.01292 0.0
C1006 C 0.03892 0.12375 0.00673 0.0
H1007 H 0.07424 0.16475 0.9683 0.0
H1008 H 0.07067 0.14877 0.98492 0.0
H1009 H 0.06449 0.13928 0.96049 0.0
H1010 H 0.03821 0.10921 0.96024 0.0
H1011 H 0.04235 0.08023 0.97104 0.0
H1012 H 0.11809 0.82237 0.17041 0.0
H1013 H 0.14293 0.81926 0.19209 0.0
H1014 H 0.15953 0.78561 0.1471 0.0
H1015 H 0.13565 0.78951 0.12555 0.0
H1016 H 0.15258 0.79001 0.20357 0.0
H1017 H 0.20594 0.82435 0.16537 0.0
H1018 H 0.18304 0.82472 0.15994 0.0
H1019 H 0.19013 0.80385 0.151 0.0
C1020 C 0.12712 0.8144 0.16522 0.0
C1021 C 0.12514 0.80657 0.14619 0.0
C1022 C 0.14133 0.81261 0.17759 0.0
C1023 C 0.15365 0.80277 0.17118 0.0
C1024 C 0.15088 0.79403 0.15237 0.0
H1025 H 0.24956 0.77741 0.22466 0.0
H1026 H 0.22446 0.77868 0.20212 0.0
C1027 C 0.13706 0.79616 0.14004 0.0
C1028 C 0.16926 0.80137 0.184 0.0
H1029 H 0.21476 0.80841 0.18898 0.0
C1030 C 0.16617 0.79418 0.2004 0.0
C1031 C 0.18712 0.80662 0.17994 0.0
C1032 C 0.1918 0.81549 0.1632 0.0
C1033 C 0.18022 0.79185 0.2126 0.0
C1034 C 0.19808 0.79714 0.20856 0.0
C1035 C 0.20116 0.80418 0.1921 0.0
C1036 C 0.21378 0.7966 0.22178 0.0
C1037 C 0.17566 0.78335 0.22956 0.0
C1038 C 0.21664 0.80674 0.24011 0.0
C1039 C 0.23081 0.80598 0.25284 0.0
C1040 C 0.2429 0.79539 0.24765 0.0
C1041 C 0.24062 0.78583 0.22909 0.0
C1042 C 0.22618 0.78646 0.21625 0.0
H1043 H 0.16154 0.77444 0.22753 0.0
H1044 H 0.18453 0.7743 0.23303 0.0
H1045 H 0.17734 0.79521 0.24156 0.0
H1046 H 0.20782 0.81527 0.24468 0.0
H1047 H 0.23224 0.81372 0.26695 0.0
H1048 H 0.49458 0.81116 0.46842 0.0
H1049 H 0.50128 0.8454 0.4811 0.0
H1050 H 0.54273 0.85755 0.44632 0.0
H1051 H 0.53584 0.82318 0.43311 0.0
H1052 H 0.53236 0.87424 0.49888 0.0
H1053 H 0.50734 0.88677 0.42954 0.0
H1054 H 0.50411 0.86289 0.43482 0.0
H1055 H 0.5256 0.87595 0.43023 0.0
C1056 C 0.5053 0.82102 0.4636 0.0
C1057 C 0.51447 0.81446 0.44952 0.0
C1058 C 0.50914 0.84059 0.47094 0.0
C1059 C 0.52224 0.85392 0.46437 0.0
C1060 C 0.53234 0.8474 0.45128 0.0
H1061 H 0.55524 0.97684 0.49243 0.0
H1062 H 0.55309 0.94272 0.48419 0.0
C1063 C 0.52844 0.82777 0.44384 0.0
C1064 C 0.52407 0.87462 0.47016 0.0
H1065 H 0.51635 0.91359 0.45402 0.0
C1066 C 0.52893 0.88288 0.48909 0.0
C1067 C 0.51942 0.88572 0.45729 0.0
C1068 C 0.51369 0.87741 0.43685 0.0
C1069 C 0.52931 0.90209 0.49549 0.0
C1070 C 0.52443 0.91297 0.48265 0.0
C1071 C 0.51976 0.90487 0.46375 0.0
C1072 C 0.52542 0.93334 0.48836 0.0
C1073 C 0.53491 0.91077 0.51585 0.0
C1074 C 0.51038 0.93911 0.49323 0.0
C1075 C 0.51147 0.95872 0.49786 0.0
C1076 C 0.52768 0.97251 0.49779 0.0
C1077 C 0.54262 0.9665 0.49286 0.0
C1078 C 0.54147 0.94707 0.48813 0.0
H1079 H 0.53818 0.90029 0.52412 0.0
H1080 H 0.54682 0.92337 0.51755 0.0
H1081 H 0.52399 0.91608 0.5215 0.0
H1082 H 0.49786 0.92847 0.49332 0.0
H1083 H 0.49981 0.96308 0.50164 0.0
H1084 H 0.53231 0.28424 0.65685 0.0
H1085 H 0.50607 0.27478 0.6728 0.0
H1086 H 0.4771 0.30252 0.63798 0.0
H1087 H 0.50304 0.31176 0.62188 0.0
H1088 H 0.4884 0.2988 0.69234 0.0
H1089 H 0.44187 0.24911 0.63313 0.0
H1090 H 0.46588 0.25578 0.63364 0.0
H1091 H 0.45314 0.27191 0.62774 0.0
C1092 C 0.52035 0.28833 0.6526 0.0
C1093 C 0.51978 0.29871 0.63803 0.0
C1094 C 0.50534 0.28283 0.66166 0.0
C1095 C 0.48947 0.28755 0.6563 0.0
C1096 C 0.489 0.29822 0.64201 0.0
H1097 H 0.38819 0.28758 0.69235 0.0
H1098 H 0.41402 0.28837 0.67576 0.0
C1099 C 0.50393 0.30364 0.63292 0.0
C1100 C 0.47367 0.28236 0.66621 0.0
H1101 H 0.42879 0.25994 0.6593 0.0
C1102 C 0.47542 0.29008 0.6852 0.0
C1103 C 0.45673 0.27093 0.65687 0.0
C1104 C 0.45425 0.26127 0.63676 0.0
C1105 C 0.46055 0.28751 0.69489 0.0
C1106 C 0.44348 0.27662 0.68539 0.0
C1107 C 0.44183 0.26838 0.66653 0.0
C1108 C 0.42709 0.27447 0.69461 0.0
C1109 C 0.46316 0.29721 0.71501 0.0
C1110 C 0.42552 0.26582 0.71037 0.0
C1111 C 0.4109 0.26559 0.72005 0.0
C1112 C 0.39736 0.27381 0.71406 0.0
C1113 C 0.39851 0.28151 0.69764 0.0
C1114 C 0.41321 0.28182 0.68803 0.0
H1115 H 0.47614 0.30848 0.71897 0.0
H1116 H 0.4522 0.30394 0.71789 0.0
H1117 H 0.46301 0.2863 0.72401 0.0
H1118 H 0.43586 0.25965 0.71547 0.0
H1119 H 0.4106 0.25962 0.73266 0.0
H1120 H 0.01617 0.81474 0.63793 0.0
H1121 H 0.02945 0.84338 0.62532 0.0
H1122 H 0.00723 0.81241 0.56981 0.0
H1123 H 0.99374 0.78377 0.58221 0.0
H1124 H 0.05372 0.84778 0.59734 0.0
H1125 H 0.98803 0.86068 0.57664 0.0
H1126 H 0.99104 0.84542 0.59314 0.0
H1127 H 0.98916 0.83656 0.56864 0.0
C1128 C 0.01402 0.81405 0.62304 0.0
C1129 C 0.00373 0.79709 0.61103 0.0
C1130 C 0.02173 0.83035 0.6159 0.0
C1131 C 0.01916 0.82989 0.59673 0.0
C1132 C 0.00915 0.81296 0.5847 0.0
H1133 H 0.04555 0.90204 0.51856 0.0
H1134 H 0.04197 0.87586 0.53617 0.0
C1135 C 1.00144 0.79667 0.59179 0.0
C1136 C 0.02631 0.84732 0.58922 0.0
H1137 H 0.01312 0.87865 0.56497 0.0
C1138 C 0.04492 0.85469 0.5904 0.0
C1139 C 0.01467 0.85628 0.58043 0.0
C1140 C 0.99461 0.84947 0.57975 0.0
C1141 C 0.05219 0.87052 0.58221 0.0
C1142 C 0.04048 0.87889 0.57281 0.0
C1143 C 0.02194 0.8719 0.57213 0.0
C1144 C 0.04697 0.89466 0.56298 0.0
C1145 C 0.07218 0.87802 0.58319 0.0
C1146 C 0.05149 0.91374 0.57248 0.0
C1147 C 0.05355 0.92872 0.56249 0.0
C1148 C 0.05104 0.92464 0.54296 0.0
C1149 C 0.0478 0.90556 0.53361 0.0
C1150 C 0.04569 0.89063 0.5436 0.0
H1151 H 0.0795 0.86942 0.59048 0.0
H1152 H 0.07581 0.87781 0.56892 0.0
H1153 H 0.07662 0.89323 0.5906 0.0
H1154 H 0.05233 0.91692 0.58749 0.0
H1155 H 0.05612 0.94336 0.56995 0.0
H1156 H 0.55231 0.84219 0.86152 0.0
H1157 H 0.52415 0.84293 0.84463 0.0
H1158 H 0.51735 0.78516 0.81487 0.0
H1159 H 0.54494 0.78387 0.83311 0.0
H1160 H 0.50804 0.83923 0.81132 0.0
H1161 H 0.47514 0.7771 0.84234 0.0
H1162 H 0.49854 0.78958 0.84851 0.0
H1163 H 0.4909 0.77146 0.82771 0.0
C1164 C 0.54505 0.82992 0.8509 0.0
C1165 C 0.55052 0.81296 0.84845 0.0
C1166 C 0.52897 0.8303 0.84135 0.0
C1167 C 0.51846 0.81385 0.82898 0.0
C1168 C 0.52506 0.79772 0.82488 0.0
H1169 H 0.41112 0.79225 0.77082 0.0
H1170 H 0.44233 0.79207 0.7795 0.0
C1171 C 0.54086 0.79707 0.83499 0.0
C1172 C 0.49992 0.81295 0.82205 0.0
H1173 H 0.45659 0.78725 0.82099 0.0
C1174 C 0.4968 0.82782 0.81333 0.0
C1175 C 0.48527 0.79839 0.82535 0.0
C1176 C 0.48759 0.78338 0.83669 0.0
C1177 C 0.47938 0.8283 0.80754 0.0
C1178 C 0.46493 0.81323 0.81 0.0
C1179 C 0.46793 0.79842 0.81873 0.0
C1180 C 0.44645 0.81323 0.80472 0.0
C1181 C 0.4764 0.84501 0.79914 0.0
C1182 C 0.43875 0.82489 0.81635 0.0
C1183 C 0.4211 0.82484 0.81159 0.0
C1184 C 0.41108 0.81317 0.79513 0.0
C1185 C 0.41877 0.80136 0.78354 0.0
C1186 C 0.43643 0.80127 0.78843 0.0
H1187 H 0.48909 0.85452 0.7964 0.0
H1188 H 0.46706 0.83965 0.78593 0.0
H1189 H 0.47016 0.85372 0.80883 0.0
H1190 H 0.44641 0.83403 0.82905 0.0
H1191 H 0.41537 0.83419 0.82057 0.0
H1192 H 0.50421 0.18312 0.13615 0.0
H1193 H 0.51228 0.16022 0.11338 0.0
H1194 H 0.48861 0.18222 0.06892 0.0
H1195 H 0.48088 0.20598 0.09194 0.0
H1196 H 0.4877 0.13222 0.08584 0.0
H1197 H 0.54013 0.18322 0.05764 0.0
H1198 H 0.53289 0.18968 0.07977 0.0
H1199 H 0.51891 0.18854 0.05856 0.0
C1200 C 0.50048 0.18295 0.12152 0.0
C1201 C 0.49161 0.19593 0.11563 0.0
C1202 C 0.50524 0.17002 0.10862 0.0
C1203 C 0.50101 0.16976 0.08969 0.0
C1204 C 0.49206 0.18256 0.08362 0.0
H1205 H 0.50881 0.08796 0.99771 0.0
H1206 H 0.50014 0.11146 0.01962 0.0
C1207 C 0.48754 0.19587 0.09664 0.0
C1208 C 0.50567 0.1555 0.07653 0.0
H1209 H 0.53389 0.15019 0.0449 0.0
C1210 C 0.49773 0.13606 0.07679 0.0
C1211 C 0.51897 0.16089 0.06518 0.0
C1212 C 0.52837 0.18171 0.06527 0.0
C1213 C 0.50281 0.12164 0.06577 0.0
C1214 C 0.51592 0.12706 0.0543 0.0
C1215 C 0.52384 0.14643 0.05394 0.0
C1216 C 0.52098 0.11272 0.04174 0.0
C1217 C 0.49433 0.10077 0.06643 0.0
C1218 C 0.53567 0.10621 0.04725 0.0
C1219 C 0.54078 0.09297 0.03475 0.0
C1220 C 0.53107 0.08625 0.01687 0.0
C1221 C 0.51649 0.09305 0.01145 0.0
C1222 C 0.51145 0.10626 0.02388 0.0
H1223 H 0.48458 0.09909 0.07654 0.0
H1224 H 0.48734 0.09308 0.05243 0.0
H1225 H 0.50488 0.09378 0.07031 0.0
H1226 H 0.5431 0.11137 0.0611 0.0
H1227 H 0.55208 0.08783 0.03911 0.0
H1228 H 0.15444 0.35548 0.35834 0.0
H1229 H 0.17473 0.34495 0.33796 0.0
H1230 H 0.13484 0.29062 0.318 0.0
H1231 H 0.11478 0.30098 0.33838 0.0
H1232 H 0.18532 0.31085 0.34227 0.0
H1233 H 0.15334 0.30746 0.27048 0.0
H1234 H 0.1485 0.32175 0.29065 0.0
H1235 H 0.13856 0.29616 0.28531 0.0
C1236 C 0.14998 0.34154 0.3492 0.0
C1237 C 0.13331 0.32891 0.34974 0.0
C1238 C 0.16146 0.33555 0.3377 0.0
C1239 C 0.15606 0.31714 0.32649 0.0
C1240 C 0.13901 0.30498 0.32638 0.0
H1241 H 0.22179 0.25349 0.26688 0.0
H1242 H 0.19649 0.25918 0.28256 0.0
C1243 C 0.12769 0.31082 0.33804 0.0
C1244 C 0.16887 0.30964 0.31659 0.0
H1245 H 0.17717 0.29293 0.27345 0.0
C1246 C 0.18356 0.30688 0.32723 0.0
C1247 C 0.16625 0.30438 0.29704 0.0
C1248 C 0.15089 0.30771 0.28515 0.0
C1249 C 0.196 0.29918 0.31867 0.0
C1250 C 0.19348 0.29412 0.29913 0.0
C1251 C 0.17862 0.29647 0.2885 0.0
C1252 C 0.20786 0.29008 0.28947 0.0
C1253 C 0.21211 0.29713 0.33042 0.0
C1254 C 0.22201 0.30568 0.28813 0.0
C1255 C 0.23598 0.3026 0.27906 0.0
C1256 C 0.23606 0.28381 0.27131 0.0
C1257 C 0.22181 0.26808 0.27261 0.0
C1258 C 0.20754 0.27126 0.28155 0.0
H1259 H 0.21016 0.29775 0.34526 0.0
H1260 H 0.21508 0.28334 0.32517 0.0
H1261 H 0.22394 0.30906 0.32959 0.0
H1262 H 0.22228 0.32026 0.29424 0.0
H1263 H 0.24698 0.31499 0.27865 0.0
H1264 H 0.98479 0.05475 0.21504 0.0
H1265 H 0.99811 0.05438 0.1864 0.0
H1266 H 0.95075 0.0631 0.15814 0.0
H1267 H 0.9375 0.06409 0.18733 0.0
H1268 H 0.99339 0.03252 0.15591 0.0
H1269 H 0.98406 0.09879 0.13464 0.0
H1270 H 0.98008 0.09332 0.15721 0.0
H1271 H 0.96309 0.08302 0.13729 0.0
C1272 C 0.97716 0.05702 0.20289 0.0
C1273 C 0.9599 0.05976 0.20414 0.0
C1274 C 0.98491 0.05663 0.18615 0.0
C1275 C 0.97592 0.05884 0.16935 0.0
C1276 C 0.95867 0.06185 0.17054 0.0
H1277 H 0.0029 0.04256 0.05101 0.0
H1278 H 0.98716 0.04499 0.07869 0.0
C1279 C 0.95091 0.06244 0.18751 0.0
C1280 C 0.98442 0.05711 0.15096 0.0
H1281 H 0.99252 0.07723 0.11176 0.0
C1282 C 0.99311 0.04248 0.14645 0.0
C1283 C 0.98473 0.06992 0.13801 0.0
C1284 C 0.97769 0.08728 0.14209 0.0
C1285 C 1.00139 0.04016 0.12997 0.0
C1286 C 1.0012 0.05259 0.1168 0.0
C1287 C 0.99259 0.06724 0.12124 0.0
C1288 C 0.0107 0.05116 0.09919 0.0
C1289 C 0.01025 0.02409 0.12671 0.0
C1290 C 0.02937 0.05384 0.10069 0.0
C1291 C 0.03838 0.05274 0.08482 0.0
C1292 C 0.02935 0.04863 0.06634 0.0
C1293 C 0.01058 0.0457 0.06468 0.0
C1294 C 1.00151 0.04717 0.08074 0.0
H1295 H 0.00562 0.01296 0.13523 0.0
H1296 H 0.00759 0.01709 0.11182 0.0
H1297 H 0.02493 0.03012 0.13059 0.0
H1298 H 0.0372 0.05714 0.11433 0.0
H1299 H 0.05276 0.05517 0.08715 0.0
H1300 H 0.27472 0.6977 0.49786 0.0
H1301 H 0.26624 0.71252 0.47205 0.0
H1302 H 0.26878 0.66291 0.43304 0.0
H1303 H 0.27645 0.64764 0.45909 0.0
H1304 H 0.28193 0.7218 0.44225 0.0
H1305 H 0.21742 0.665 0.42055 0.0
H1306 H 0.23128 0.66762 0.44241 0.0
H1307 H 0.23686 0.65611 0.42122 0.0
C1308 C 0.27405 0.69035 0.48372 0.0
C1309 C 0.27645 0.67187 0.4801 0.0
C1310 C 0.26902 0.69864 0.4691 0.0
C1311 C 0.26649 0.68847 0.45086 0.0
C1312 C 0.27026 0.6706 0.44717 0.0
H1313 H 0.24816 0.71618 0.34643 0.0
H1314 H 0.24653 0.69812 0.37184 0.0
C1315 C 0.27497 0.66213 0.46187 0.0
C1316 C 0.25949 0.69652 0.4358 0.0
H1317 H 0.22479 0.68809 0.40107 0.0
C1318 C 0.26938 0.71457 0.43331 0.0
C1319 C 0.24301 0.68692 0.42447 0.0
C1320 C 0.23142 0.66792 0.42737 0.0
C1321 C 0.26351 0.72315 0.41921 0.0
C1322 C 0.2472 0.71337 0.40761 0.0
C1323 C 0.23716 0.69544 0.41024 0.0
C1324 C 0.24153 0.72081 0.3915 0.0
C1325 C 0.27512 0.74225 0.41648 0.0
C1326 C 0.23765 0.73862 0.39401 0.0
C1327 C 0.23883 0.74902 0.37967 0.0
C1328 C 0.24373 0.74146 0.36284 0.0
C1329 C 0.24468 0.72232 0.35948 0.0
C1330 C 0.2437 0.71202 0.37389 0.0
H1331 H 0.28865 0.7461 0.42471 0.0
H1332 H 0.27665 0.74196 0.40159 0.0
H1333 H 0.26869 0.75379 0.42099 0.0
H1334 H 0.23572 0.74532 0.40759 0.0
H1335 H 0.23803 0.76376 0.38256 0.0
H1336 H 0.62179 1.00367 0.68488 0.0
H1337 H 0.61105 1.00228 0.65215 0.0
H1338 H 0.62316 0.06431 0.66154 0.0
H1339 H 0.63387 0.06591 0.69408 0.0
H1340 H 0.58167 0.02294 0.64971 0.0
H1341 H 0.63677 0.04601 0.60804 0.0
H1342 H 0.63983 0.03497 0.6281 0.0
H1343 H 0.63826 0.0593 0.63118 0.0
C1344 C 0.62253 0.01698 0.6798 0.0
C1345 C 0.6281 0.03484 0.69189 0.0
C1346 C 0.61663 0.01617 0.66121 0.0
C1347 C 0.6166 0.03322 0.65474 0.0
C1348 C 0.62345 0.05112 0.66645 0.0
H1349 H 0.56256 0.06136 0.56108 0.0
H1350 H 0.58279 0.06141 0.58857 0.0
C1351 C 0.6292 0.05194 0.68501 0.0
C1352 C 0.60566 0.03218 0.6374 0.0
H1353 H 0.60707 0.04136 0.59364 0.0
C1354 C 0.58712 0.0267 0.6373 0.0
C1355 C 0.61314 0.03794 0.62185 0.0
C1356 C 0.63311 0.04486 0.62214 0.0
C1357 C 0.5756 0.02673 0.62172 0.0
C1358 C 0.583 0.03151 0.60574 0.0
C1359 C 0.60161 0.0373 0.60593 0.0
C1360 C 0.57152 0.03113 0.58887 0.0
C1361 C 0.55576 0.02237 0.62275 0.0
C1362 C 0.55874 0.01402 0.58015 0.0
C1363 C 0.54688 0.0141 0.56491 0.0
C1364 C 0.54821 0.03117 0.55811 0.0
C1365 C 0.5614 0.0481 0.56639 0.0
C1366 C 0.57295 0.04813 0.58188 0.0
H1367 H 0.55297 0.0244 0.63736 0.0
H1368 H 0.54957 0.03172 0.61526 0.0
H1369 H 0.54919 0.00713 0.61621 0.0
H1370 H 0.55786 1.00071 0.58527 0.0
H1371 H 0.53695 1.00088 0.55826 0.0
H1372 H 0.28561 0.31587 0.97705 0.0
H1373 H 0.28362 0.30514 0.94351 0.0
H1374 H 0.28218 0.36171 0.93444 0.0
H1375 H 0.28392 0.37251 0.96802 0.0
H1376 H 0.25931 0.30817 0.90926 0.0
H1377 H 0.33081 0.35069 0.91873 0.0
H1378 H 0.31961 0.34352 0.93794 0.0
H1379 H 0.31527 0.36298 0.92775 0.0
C1380 C 0.28427 0.32584 0.96785 0.0
C1381 C 0.28502 0.34505 0.97511 0.0
C1382 C 0.28314 0.31968 0.94873 0.0
C1383 C 0.28298 0.33272 0.93663 0.0
C1384 C 0.28234 0.35149 0.94366 0.0
H1385 H 0.29631 0.33016 0.82162 0.0
H1386 H 0.29321 0.3387 0.85453 0.0
C1387 C 0.28322 0.35759 0.9628 0.0
C1388 C 0.28582 0.32738 0.91718 0.0
H1389 H 0.31761 0.33503 0.88826 0.0
C1390 C 0.27201 0.314 0.90461 0.0
C1391 C 0.30254 0.3349 0.91136 0.0
C1392 C 0.318 0.34872 0.92462 0.0
C1393 C 0.27441 0.30825 0.88612 0.0
C1394 C 0.29109 0.31592 0.88031 0.0
C1395 C 0.30489 0.32919 0.8929 0.0
C1396 C 0.29418 0.311 0.86093 0.0
C1397 C 0.25909 0.29435 0.87276 0.0
C1398 C 0.29629 0.29282 0.85394 0.0
C1399 C 0.29844 0.2881 0.83528 0.0
C1400 C 0.29831 0.30148 0.82352 0.0
C1401 C 0.29662 0.31977 0.83063 0.0
C1402 C 0.29476 0.32459 0.84929 0.0
H1403 H 0.24641 0.29145 0.87889 0.0
H1404 H 0.25697 0.30012 0.85985 0.0
H1405 H 0.2624 0.28049 0.86879 0.0
H1406 H 0.29596 0.28223 0.86283 0.0
H1407 H 0.29944 0.2738 0.82987 0.0
H1408 H 0.93691 0.06109 0.32132 0.0
H1409 H 0.94964 0.05842 0.35253 0.0
H1410 H 1.0016 0.06601 0.33483 0.0
H1411 H 0.98896 0.06849 0.30385 0.0
H1412 H 0.96556 0.03063 0.36203 0.0
H1413 H 0.01552 0.10141 0.38519 0.0
H1414 H 0.99786 0.09712 0.36602 0.0
H1415 H 0.01768 0.08946 0.36265 0.0
C1416 C 0.95117 0.06295 0.32426 0.0
C1417 C 0.96188 0.06555 0.30991 0.0
C1418 C 0.95848 0.06113 0.34217 0.0
C1419 C 0.97682 0.06219 0.34653 0.0
C1420 C 0.98758 0.06551 0.33237 0.0
H1421 H 0.04417 0.03722 0.43956 0.0
H1422 H 0.03182 0.04293 0.40939 0.0
C1423 C 0.98026 0.06701 0.31448 0.0
C1424 C 0.98446 0.05846 0.36515 0.0
H1425 H 0.01793 0.07701 0.40251 0.0
C1426 C 0.97691 0.04094 0.37088 0.0
C1427 C 0.99949 0.07158 0.377 0.0
C1428 C 0.00804 0.09103 0.37254 0.0
C1429 C 0.98395 0.03618 0.38755 0.0
C1430 C 0.99893 0.04929 0.39935 0.0
C1431 C 0.00653 0.06678 0.39366 0.0
C1432 C 0.00652 0.04532 0.41778 0.0
C1433 C 0.97554 0.01681 0.39223 0.0
C1434 C 0.99671 0.04482 0.43294 0.0
C1435 C 0.00395 0.04197 0.45034 0.0
C1436 C 0.02113 0.03911 0.45317 0.0
C1437 C 0.03087 0.03924 0.43795 0.0
C1438 C 0.02379 0.04257 0.42063 0.0
H1439 H 0.96631 0.00691 0.38026 0.0
H1440 H 0.98603 0.00998 0.39669 0.0
H1441 H 0.96782 0.01876 0.40396 0.0
H1442 H 0.98347 0.04701 0.43143 0.0
H1443 H 0.99603 0.042 0.46167 0.0
H1444 H 0.31126 0.68947 0.58213 0.0
H1445 H 0.3123 0.70782 0.61351 0.0
H1446 H 0.2577 0.70919 0.59971 0.0
H1447 H 0.25667 0.69144 0.56857 0.0
H1448 H 0.29973 0.74686 0.61811 0.0
H1449 H 0.26445 0.68693 0.65131 0.0
H1450 H 0.27677 0.68296 0.63212 0.0
H1451 H 0.25558 0.68804 0.62807 0.0
C1452 C 0.29959 0.69379 0.58592 0.0
C1453 C 0.28401 0.68944 0.57312 0.0
C1454 C 0.30015 0.70409 0.60367 0.0
C1455 C 0.28499 0.7095 0.60863 0.0
C1456 C 0.2694 0.70492 0.59594 0.0
H1457 H 0.26342 0.77164 0.71054 0.0
H1458 H 0.25961 0.75246 0.67903 0.0
C1459 C 0.26894 0.69501 0.57822 0.0
C1460 C 0.28558 0.72098 0.62675 0.0
H1461 H 0.27159 0.71857 0.66893 0.0
C1462 C 0.2937 0.74076 0.62932 0.0
C1463 C 0.27718 0.71275 0.64084 0.0
C1464 C 0.26802 0.69148 0.6381 0.0
C1465 C 0.29386 0.75274 0.64604 0.0
C1466 C 0.28607 0.74447 0.66046 0.0
C1467 C 0.27756 0.7247 0.65772 0.0
C1468 C 0.28801 0.75599 0.67894 0.0
C1469 C 0.30228 0.77413 0.64816 0.0
C1470 C 0.30517 0.76401 0.68895 0.0
C1471 C 0.30732 0.77507 0.7065 0.0
C1472 C 0.29231 0.77795 0.7142 0.0
C1473 C 0.27509 0.76977 0.7044 0.0
C1474 C 0.27293 0.75879 0.68667 0.0
H1475 H 0.30296 0.7787 0.63446 0.0
H1476 H 0.2947 0.78249 0.65647 0.0
H1477 H 0.31615 0.77776 0.6555 0.0
H1478 H 0.31685 0.76152 0.68323 0.0
H1479 H 0.32062 0.78093 0.7143 0.0
H1480 H 0.62786 0.06128 0.77685 0.0
H1481 H 0.62978 0.08196 0.80605 0.0
H1482 H 0.63213 0.03513 0.83475 0.0
H1483 H 0.63354 0.01489 0.80499 0.0
H1484 H 0.6004 0.06845 0.8203 0.0
H1485 H 0.65993 0.08325 0.87401 0.0
H1486 H 0.66116 0.07853 0.84933 0.0
H1487 H 0.65214 0.05904 0.86093 0.0
C1488 C 0.62976 0.05552 0.78934 0.0
C1489 C 0.6305 0.03643 0.78869 0.0
C1490 C 0.63096 0.06748 0.80608 0.0
C1491 C 0.63116 0.06012 0.82249 0.0
C1492 C 0.63241 0.04118 0.82218 0.0
H1493 H 0.56634 0.05377 0.89753 0.0
H1494 H 0.5829 0.05629 0.87143 0.0
C1495 C 0.63262 0.02948 0.80526 0.0
C1496 C 0.62475 0.07025 0.83802 0.0
H1497 H 0.63284 0.08763 0.88452 0.0
C1498 C 0.60781 0.07322 0.83423 0.0
C1499 C 0.63446 0.07652 0.85603 0.0
C1500 C 0.65301 0.07436 0.86039 0.0
C1501 C 0.59976 0.08121 0.84824 0.0
C1502 C 0.60869 0.08577 0.86659 0.0
C1503 C 0.62621 0.08426 0.87028 0.0
C1504 C 0.59819 0.08593 0.88193 0.0
C1505 C 0.58103 0.0829 0.84355 0.0
C1506 C 0.60168 0.10174 0.89658 0.0
C1507 C 0.59231 0.10017 0.91185 0.0
C1508 C 0.57951 0.08286 0.9121 0.0
C1509 C 0.5759 0.06738 0.89722 0.0
C1510 C 0.58531 0.06881 0.88237 0.0
H1511 H 0.57871 0.08541 0.8291 0.0
H1512 H 0.57122 0.0692 0.84449 0.0
H1513 H 0.57845 0.09478 0.8533 0.0
H1514 H 0.61185 0.1149 0.89639 0.0
H1515 H 0.59537 0.11203 0.92353 0.0
H1516 H 0.30347 0.32573 0.06893 0.0
H1517 H 0.29857 0.31366 0.09748 0.0
H1518 H 0.27658 0.36047 0.11674 0.0
H1519 H 0.28133 0.37276 0.08767 0.0
H1520 H 0.3146 0.33352 0.1322 0.0
H1521 H 0.24051 0.31306 0.12838 0.0
H1522 H 0.25167 0.31659 0.10825 0.0
H1523 H 0.25064 0.33701 0.12473 0.0
C1524 C 0.29743 0.33349 0.07909 0.0
C1525 C 0.29295 0.35039 0.07602 0.0
C1526 C 0.29461 0.32648 0.09545 0.0
C1527 C 0.28718 0.33608 0.10927 0.0
C1528 C 0.28212 0.35265 0.10614 0.0
H1529 H 0.27433 0.31211 0.22159 0.0
H1530 H 0.27462 0.3267 0.19353 0.0
C1531 C 0.2849 0.35971 0.08957 0.0
C1532 C 0.28609 0.32928 0.12731 0.0
H1533 H 0.25708 0.31008 0.15587 0.0
C1534 C 0.30201 0.32847 0.1374 0.0
C1535 C 0.26967 0.32258 0.13403 0.0
C1536 C 0.25209 0.32215 0.12326 0.0
C1537 C 0.30199 0.32116 0.15397 0.0
C1538 C 0.28557 0.31436 0.16066 0.0
C1539 C 0.26965 0.31543 0.15077 0.0
C1540 C 0.2847 0.30533 0.17744 0.0
C1541 C 0.31958 0.32079 0.16419 0.0
C1542 C 0.28999 0.28837 0.17758 0.0
C1543 C 0.29001 0.28021 0.19355 0.0
C1544 C 0.28449 0.28866 0.20965 0.0
C1545 C 0.27873 0.30536 0.2094 0.0
C1546 C 0.27884 0.31365 0.19339 0.0
H1547 H 0.33112 0.33078 0.15988 0.0
H1548 H 0.31996 0.32472 0.17945 0.0
H1549 H 0.32122 0.30602 0.16104 0.0
H1550 H 0.2942 0.28149 0.16533 0.0
H1551 H 0.29438 0.26723 0.19326 0.0
H1552 H 0.25715 0.95219 0.98619 0.0
H1553 H 0.23415 0.96801 0.99492 0.0
H1554 H 0.24422 0.95984 0.0514 0.0
H1555 H 0.26704 0.94375 0.04278 0.0
H1556 H 0.20386 0.94461 0.01704 0.0
H1557 H 0.24264 0.02019 0.04814 0.0
H1558 H 0.25051 0.006 0.03008 0.0
H1559 H 0.25096 1.00023 0.0529 0.0
C1560 C 0.25464 0.95407 1.00051 0.0
C1561 C 0.26366 0.94668 0.01379 0.0
C1562 C 0.24158 0.96305 0.00545 0.0
C1563 C 0.23771 0.96502 0.02375 0.0
C1564 C 0.24721 0.95843 0.03724 0.0
H1565 H 0.15453 0.01455 0.0644 0.0
H1566 H 0.17925 0.99951 0.0641 0.0
C1567 C 0.26009 0.94921 0.03227 0.0
C1568 C 0.22251 0.97223 0.02826 0.0
H1569 H 0.2111 0.01288 0.04524 0.0
C1570 C 0.20537 0.95947 0.02335 0.0
C1571 C 0.22481 0.99152 0.03674 0.0
C1572 C 0.24319 0.00541 0.04232 0.0
C1573 C 0.19019 0.96577 0.02613 0.0
C1574 C 0.1924 0.98531 0.03372 0.0
C1575 C 0.2096 0.99789 0.0394 0.0
C1576 C 0.177 0.99331 0.03412 0.0
C1577 C 0.17191 0.95163 0.02067 0.0
C1578 C 0.1677 0.99461 0.01733 0.0
C1579 C 0.15378 1.0033 0.01742 0.0
C1580 C 0.14898 0.01084 0.03434 0.0
C1581 C 0.15809 0.00907 0.05116 0.0
C1582 C 0.17212 1.00046 0.05104 0.0
H1583 H 0.17261 0.93647 0.01916 0.0
H1584 H 0.16298 0.9541 0.03115 0.0
H1585 H 0.16579 0.95367 0.00714 0.0
H1586 H 0.17155 0.98937 0.00416 0.0
H1587 H 0.14726 0.00475 0.00426 0.0
H1588 H 0.7281 0.67005 0.02641 0.0
H1589 H 0.69911 0.64776 0.02746 0.0
H1590 H 0.70076 0.617 0.97291 0.0
H1591 H 0.73038 0.63879 0.97238 0.0
H1592 H 0.66876 0.64252 0.00751 0.0
H1593 H 0.68434 0.57222 0.99722 0.0
H1594 H 0.7016 0.59475 0.00212 0.0
H1595 H 0.69023 0.58504 0.97879 0.0
C1596 C 0.72244 0.65823 0.01482 0.0
C1597 C 0.73158 0.656 0.99941 0.0
C1598 C 0.70578 0.64553 0.01538 0.0
C1599 C 0.69761 0.63042 1.00036 0.0
C1600 C 0.70686 0.62809 0.98495 0.0
H1601 H 0.59235 0.5478 0.97089 0.0
H1602 H 0.62216 0.56944 0.9716 0.0
C1603 C 0.7238 0.64059 0.9846 0.0
C1604 C 0.67905 0.61798 1.00054 0.0
H1605 H 0.65342 0.57119 0.99378 0.0
C1606 C 0.6655 0.62691 0.00464 0.0
C1607 C 0.67458 0.59756 0.99689 0.0
C1608 C 0.6885 0.58683 0.99371 0.0
C1609 C 0.64774 0.61613 0.00478 0.0
C1610 C 0.64322 0.59573 1.00073 0.0
C1611 C 0.65676 0.5868 0.99674 0.0
C1612 C 0.62456 0.58333 1.00028 0.0
C1613 C 0.63387 0.62672 0.00882 0.0
C1614 C 0.61578 0.5838 0.01615 0.0
C1615 C 0.59864 0.57137 0.01576 0.0
C1616 C 0.5899 0.55812 0.99951 0.0
C1617 C 0.59864 0.55783 0.98363 0.0
C1618 C 0.61574 0.5702 0.98403 0.0
H1619 H 0.63835 0.64197 0.00704 0.0
H1620 H 0.62102 0.61959 0.99963 0.0
H1621 H 0.63143 0.62666 0.02344 0.0
H1622 H 0.62235 0.59346 0.029 0.0
H1623 H 0.59239 0.57186 0.0283 0.0
H1624 H 0.69798 0.46336 0.24517 0.0
H1625 H 0.71465 0.4386 0.24073 0.0
H1626 H 0.69477 0.41653 0.28787 0.0
H1627 H 0.67828 0.44052 0.29217 0.0
H1628 H 0.74173 0.42864 0.26069 0.0
H1629 H 0.68309 0.3661 0.25345 0.0
H1630 H 0.6809 0.38993 0.2524 0.0
H1631 H 0.68471 0.38282 0.27452 0.0
C1632 C 0.69702 0.45322 0.25459 0.0
C1633 C 0.68628 0.45449 0.26908 0.0
C1634 C 0.70672 0.43883 0.25204 0.0
C1635 C 0.70605 0.42476 0.26365 0.0
C1636 C 0.69551 0.42631 0.27812 0.0
H1637 H 0.7469 0.32284 0.27872 0.0
H1638 H 0.73144 0.34821 0.27853 0.0
C1639 C 0.68599 0.44053 0.28068 0.0
C1640 C 0.71631 0.40887 0.2613 0.0
H1641 H 0.71133 0.36017 0.26012 0.0
C1642 C 0.73494 0.41366 0.26045 0.0
C1643 C 0.70805 0.38889 0.26083 0.0
C1644 C 0.68807 0.38154 0.26014 0.0
C1645 C 0.7453 0.39988 0.26013 0.0
C1646 C 0.73709 0.37987 0.26017 0.0
C1647 C 0.71832 0.3751 0.26046 0.0
C1648 C 0.74732 0.36386 0.26027 0.0
C1649 C 0.76522 0.40749 0.26058 0.0
C1650 C 0.76179 0.36293 0.25005 0.0
C1651 C 0.77124 0.34858 0.25083 0.0
C1652 C 0.76625 0.3336 0.26104 0.0
C1653 C 0.75137 0.33388 0.2706 0.0
C1654 C 0.74235 0.34866 0.27041 0.0
H1655 H 0.76999 0.42316 0.26644 0.0
H1656 H 0.77269 0.39993 0.26902 0.0
H1657 H 0.76849 0.40554 0.24616 0.0
H1658 H 0.76584 0.37315 0.24106 0.0
H1659 H 0.78234 0.34901 0.24297 0.0
H1660 H 0.83282 0.45494 0.50301 0.0
H1661 H 0.86005 0.47649 0.49726 0.0
H1662 H 0.88489 0.47817 0.55278 0.0
H1663 H 0.85818 0.45412 0.55756 0.0
H1664 H 0.88499 0.50668 0.50561 0.0
H1665 H 0.9118 0.4476 0.52469 0.0
H1666 H 0.88865 0.44699 0.52478 0.0
H1667 H 0.90521 0.46058 0.54425 0.0
C1668 C 0.84381 0.46057 0.51432 0.0
C1669 C 0.84377 0.45263 0.53051 0.0
C1670 C 0.85943 0.47287 0.51098 0.0
C1671 C 0.87477 0.47796 0.52423 0.0
C1672 C 0.8734 0.47342 0.54203 0.0
H1673 H 0.98035 0.53595 0.52676 0.0
H1674 H 0.94831 0.52498 0.52751 0.0
C1675 C 0.8581 0.46006 0.54494 0.0
C1676 C 0.89235 0.48434 0.51807 0.0
H1677 H 0.93232 0.4737 0.51638 0.0
C1678 C 0.89527 0.49939 0.50791 0.0
C1679 C 0.90547 0.47416 0.52025 0.0
C1680 C 0.90255 0.45631 0.52888 0.0
C1681 C 0.91133 0.50512 0.50072 0.0
C1682 C 0.92478 0.49605 0.50442 0.0
C1683 C 0.92174 0.48056 0.51379 0.0
C1684 C 0.94309 0.50443 0.50172 0.0
C1685 C 0.91411 0.52099 0.4895 0.0
C1686 C 0.95035 0.49638 0.48684 0.0
C1687 C 0.96867 0.50264 0.48633 0.0
C1688 C 0.97965 0.51658 0.50096 0.0
C1689 C 0.97214 0.52492 0.51552 0.0
C1690 C 0.9539 0.5189 0.51585 0.0
H1691 H 0.90143 0.52451 0.48537 0.0
H1692 H 0.9238 0.53412 0.49785 0.0
H1693 H 0.91988 0.51672 0.47679 0.0
H1694 H 0.94198 0.48496 0.47603 0.0
H1695 H 0.97429 0.49614 0.47493 0.0
H1696 H 0.41978 0.09197 0.26253 0.0
H1697 H 0.40137 0.11308 0.25529 0.0
H1698 H 0.35362 0.06797 0.25633 0.0
H1699 H 0.37196 0.04694 0.26418 0.0
H1700 H 0.37664 0.10707 0.22489 0.0
H1701 H 0.34514 0.11349 0.28943 0.0
H1702 H 0.36411 0.10376 0.28767 0.0
H1703 H 0.34196 0.08912 0.27789 0.0
C1704 C 0.40536 0.08658 0.26129 0.0
C1705 C 0.39726 0.06784 0.26386 0.0
C1706 C 0.3949 0.09864 0.2572 0.0
C1707 C 0.37622 0.09209 0.25553 0.0
C1708 C 0.36805 0.07337 0.25801 0.0
H1709 H 0.29387 0.147 0.22918 0.0
H1710 H 0.31036 0.12278 0.22974 0.0
C1711 C 0.37853 0.06136 0.26233 0.0
C1712 C 0.36532 0.10464 0.25034 0.0
H1713 H 0.3344 0.12697 0.26493 0.0
C1714 C 0.3674 0.11146 0.23363 0.0
C1715 C 0.35329 0.11019 0.26182 0.0
C1716 C 0.35108 0.10391 0.28029 0.0
C1717 C 0.35778 0.12387 0.2281 0.0
C1718 C 0.34588 0.12945 0.23962 0.0
C1719 C 0.34354 0.12241 0.25615 0.0
C1720 C 0.33638 0.14352 0.23547 0.0
C1721 C 0.36035 0.13095 0.21008 0.0
C1722 C 0.34576 0.16302 0.23808 0.0
C1723 C 0.33641 0.1769 0.23778 0.0
C1724 C 0.3176 0.17135 0.23491 0.0
C1725 C 0.30835 0.15167 0.23121 0.0
C1726 C 0.31771 0.13784 0.23158 0.0
H1727 H 0.36739 0.12244 0.20115 0.0
H1728 H 0.34725 0.13026 0.20226 0.0
H1729 H 0.36844 0.14623 0.21315 0.0
H1730 H 0.36021 0.16755 0.24133 0.0
H1731 H 0.34384 0.19198 0.2405 0.0
H1732 H 0.35109 0.17418 0.47899 0.0
H1733 H 0.37376 0.15846 0.48847 0.0
H1734 H 0.34289 0.13692 0.53007 0.0
H1735 H 0.31991 0.15232 0.52043 0.0
H1736 H 0.39414 0.16403 0.52412 0.0
H1737 H 0.35204 0.08825 0.5018 0.0
H1738 H 0.34578 0.10813 0.49378 0.0
H1739 H 0.3433 0.10423 0.51703 0.0
C1740 C 0.34902 0.166 0.49009 0.0
C1741 C 0.33357 0.16442 0.49885 0.0
C1742 C 0.36205 0.15708 0.49553 0.0
C1743 C 0.35999 0.14637 0.50988 0.0
C1744 C 0.34464 0.14482 0.51875 0.0
H1745 H 0.42694 0.07219 0.53895 0.0
H1746 H 0.40503 0.09083 0.541 0.0
C1747 C 0.33152 0.15366 0.51322 0.0
C1748 C 0.37399 0.13693 0.51536 0.0
H1749 H 0.38199 0.09293 0.51403 0.0
C1750 C 0.39147 0.14848 0.52204 0.0
C1751 C 0.37044 0.11666 0.51302 0.0
C1752 C 0.35193 0.10351 0.50592 0.0
C1753 C 0.40558 0.14032 0.526 0.0
C1754 C 0.40226 0.12001 0.5225 0.0
C1755 C 0.38461 0.10848 0.5166 0.0
C1756 C 0.41696 0.11039 0.52346 0.0
C1757 C 0.42384 0.15357 0.534 0.0
C1758 C 0.43123 0.11533 0.51325 0.0
C1759 C 0.44401 0.10496 0.51237 0.0
C1760 C 0.44263 0.08903 0.5213 0.0
C1761 C 0.42862 0.08445 0.53202 0.0
C1762 C 0.41594 0.09502 0.53308 0.0
H1763 H 0.42277 0.16726 0.54219 0.0
H1764 H 0.4315 0.14672 0.54311 0.0
H1765 H 0.4315 0.15731 0.52249 0.0
H1766 H 0.43217 0.12678 0.50531 0.0
H1767 H 0.45475 0.10918 0.50426 0.0
H1768 H 0.68266 0.58658 0.29688 0.0
H1769 H 0.70035 0.61881 0.29468 0.0
H1770 H 0.71857 0.59501 0.24526 0.0
H1771 H 0.70066 0.56247 0.24747 0.0
H1772 H 0.73482 0.63726 0.29576 0.0
H1773 H 0.70053 0.63661 0.22617 0.0
H1774 H 0.69243 0.61842 0.23973 0.0
H1775 H 0.71061 0.61712 0.2267 0.0
C1776 C 0.69076 0.58803 0.28573 0.0
C1777 C 0.69035 0.57152 0.27262 0.0
C1778 C 0.70087 0.6067 0.28439 0.0
C1779 C 0.71081 0.60995 0.26961 0.0
C1780 C 0.71089 0.59339 0.25669 0.0
H1781 H 0.78348 0.71268 0.24161 0.0
H1782 H 0.76449 0.68066 0.24295 0.0
C1783 C 0.70086 0.57454 0.25817 0.0
C1784 C 0.72076 0.63055 0.26789 0.0
H1785 H 0.72565 0.66344 0.23838 0.0
C1786 C 0.73266 0.64288 0.28317 0.0
C1787 C 0.71809 0.63854 0.25169 0.0
C1788 C 0.7046 0.62711 0.23519 0.0
C1789 C 0.7421 0.66221 0.28253 0.0
C1790 C 0.73969 0.67005 0.26623 0.0
C1791 C 0.72772 0.6578 0.25098 0.0
C1792 C 0.75018 0.69043 0.26451 0.0
C1793 C 0.75507 0.67402 0.29925 0.0
C1794 C 0.74846 0.70733 0.27573 0.0
C1795 C 0.75915 0.72603 0.2746 0.0
C1796 C 0.77216 0.72848 0.26239 0.0
C1797 C 0.77354 0.7116 0.25101 0.0
C1798 C 0.76265 0.69309 0.25183 0.0
H1799 H 0.75783 0.66509 0.30953 0.0
H1800 H 0.76792 0.68141 0.29496 0.0
H1801 H 0.74937 0.68527 0.30619 0.0
H1802 H 0.73897 0.70606 0.2856 0.0
H1803 H 0.75782 0.73844 0.28392 0.0
H1804 H 0.91611 0.46149 0.74157 0.0
H1805 H 0.88901 0.43576 0.74183 0.0
H1806 H 0.86609 0.47712 0.77188 0.0
H1807 H 0.89236 0.50264 0.77078 0.0
H1808 H 0.88335 0.42891 0.77524 0.0
H1809 H 0.82225 0.44187 0.74095 0.0
H1810 H 0.8444 0.45434 0.73727 0.0
H1811 H 0.83528 0.46237 0.75768 0.0
C1812 C 0.90488 0.4651 0.74738 0.0
C1813 C 0.90625 0.48393 0.75613 0.0
C1814 C 0.88949 0.4505 0.74755 0.0
C1815 C 0.87563 0.45467 0.75686 0.0
C1816 C 0.87641 0.47371 0.7642 0.0
H1817 H 0.80912 0.36068 0.80173 0.0
H1818 H 0.82444 0.3946 0.80235 0.0
C1819 C 0.89153 0.48831 0.76359 0.0
C1820 C 0.86245 0.43911 0.76229 0.0
H1821 H 0.81787 0.41919 0.76124 0.0
C1822 C 0.86903 0.4268 0.77218 0.0
C1823 C 0.84385 0.43686 0.75875 0.0
C1824 C 0.83604 0.44949 0.74794 0.0
C1825 C 0.8574 0.41145 0.77763 0.0
C1826 C 0.83886 0.40881 0.77341 0.0
C1827 C 0.83222 0.42177 0.76468 0.0
C1828 C 0.82673 0.39013 0.77302 0.0
C1829 C 0.86492 0.3972 0.78635 0.0
C1830 C 0.82275 0.37709 0.75618 0.0
C1831 C 0.8143 0.35798 0.75577 0.0
C1832 C 0.8098 0.35181 0.77222 0.0
C1833 C 0.81273 0.36518 0.78891 0.0
C1834 C 0.82128 0.38443 0.78931 0.0
H1835 H 0.87967 0.40245 0.79033 0.0
H1836 H 0.85867 0.39425 0.79892 0.0
H1837 H 0.86177 0.38338 0.77632 0.0
H1838 H 0.8271 0.38151 0.74357 0.0
H1839 H 0.81205 0.34799 0.74272 0.0
H1840 H 0.04495 0.84459 0.08866 0.0
H1841 H 0.0366 0.86971 0.07391 0.0
H1842 H 0.092 0.89438 0.06896 0.0
H1843 H 0.1002 0.86902 0.08272 0.0
H1844 H 0.04442 0.9071 0.08283 0.0
H1845 H 0.07114 0.89113 0.01714 0.0
H1846 H 0.06924 0.87527 0.03384 0.0
H1847 H 0.08838 0.89596 0.03652 0.0
C1848 C 0.05531 0.85543 0.08444 0.0
C1849 C 0.07322 0.85476 0.08676 0.0
C1850 C 0.05053 0.86972 0.07593 0.0
C1851 C 0.06359 0.88364 0.06974 0.0
C1852 C 0.08155 0.8834 0.07284 0.0
H1853 H 0.07663 0.99051 0.03207 0.0
H1854 H 0.07888 0.96127 0.04313 0.0
C1855 C 0.08626 0.869 0.08097 0.0
C1856 C 0.05873 0.8989 0.0607 0.0
H1857 H 0.06618 0.92247 0.02422 0.0
C1858 C 0.04892 0.91025 0.06985 0.0
C1859 C 0.06447 0.90299 0.04366 0.0
C1860 C 0.07371 0.89053 0.03214 0.0
C1861 C 0.04552 0.9261 0.06296 0.0
C1862 C 0.05206 0.93069 0.04646 0.0
C1863 C 0.06134 0.91902 0.03698 0.0
C1864 C 0.05031 0.94814 0.0393 0.0
C1865 C 0.03557 0.93825 0.07378 0.0
C1866 C 0.03348 0.9503 0.03311 0.0
C1867 C 0.03213 0.96704 0.02669 0.0
C1868 C 0.0476 0.98189 0.02635 0.0
C1869 C 0.06443 0.97943 0.0322 0.0
C1870 C 0.06575 0.96271 0.03854 0.0
H1871 H 0.03437 0.93492 0.08794 0.0
H1872 H 0.04238 0.95381 0.07507 0.0
H1873 H 0.02187 0.93545 0.06627 0.0
H1874 H 0.02142 0.93905 0.03327 0.0
H1875 H 0.01896 0.96846 0.02229 0.0
H1876 H 0.97216 0.29199 0.87786 0.0
H1877 H 0.94706 0.29972 0.86079 0.0
H1878 H 0.91546 0.24085 0.85521 0.0
H1879 H 0.94007 0.23355 0.87331 0.0
H1880 H 0.92811 0.28952 0.828 0.0
H1881 H 0.88136 0.26621 0.87701 0.0
H1882 H 0.90489 0.26807 0.88173 0.0
H1883 H 0.88974 0.24673 0.86739 0.0
C1884 C 0.95995 0.28063 0.87265 0.0
C1885 C 0.95818 0.26208 0.8767 0.0
C1886 C 0.94551 0.2851 0.86302 0.0
C1887 C 0.92898 0.27106 0.85709 0.0
C1888 C 0.92768 0.25222 0.86019 0.0
H1889 H 0.82998 0.25421 0.78774 0.0
H1890 H 0.8571 0.25338 0.80675 0.0
C1891 C 0.94191 0.24791 0.87023 0.0
C1892 C 0.91312 0.27597 0.84778 0.0
H1893 H 0.86802 0.26977 0.84748 0.0
C1894 C 0.91505 0.28543 0.83248 0.0
C1895 C 0.89595 0.27102 0.85364 0.0
C1896 C 0.89291 0.26266 0.87097 0.0
C1897 C 0.90028 0.28906 0.82242 0.0
C1898 C 0.88303 0.28305 0.82767 0.0
C1899 C 0.88119 0.27423 0.84331 0.0
C1900 C 0.86649 0.2842 0.81631 0.0
C1901 C 0.90306 0.29868 0.8058 0.0
C1902 C 0.86239 0.30182 0.81559 0.0
C1903 C 0.84657 0.30231 0.80486 0.0
C1904 C 0.83471 0.28517 0.79452 0.0
C1905 C 0.83882 0.26766 0.79552 0.0
C1906 C 0.85437 0.26716 0.80635 0.0
H1907 H 0.91694 0.30089 0.80245 0.0
H1908 H 0.89359 0.28989 0.79347 0.0
H1909 H 0.90023 0.31293 0.80863 0.0
H1910 H 0.87143 0.31516 0.8233 0.0
H1911 H 0.84387 0.31605 0.80426 0.0
H1912 H 0.55884 0.25527 0.54894 0.0
H1913 H 0.55184 0.22069 0.53635 0.0
H1914 H 0.55947 0.20939 0.5921 0.0
H1915 H 0.56502 0.2436 0.60463 0.0
H1916 H 0.57322 0.19967 0.5377 0.0
H1917 H 0.51656 0.16679 0.57268 0.0
H1918 H 0.52377 0.1924 0.57323 0.0
H1919 H 0.535 0.18148 0.58935 0.0
C1920 C 0.55843 0.24525 0.55844 0.0
C1921 C 0.56218 0.25194 0.57771 0.0
C1922 C 0.55453 0.22555 0.55129 0.0
C1923 C 0.55483 0.21234 0.56328 0.0
C1924 C 0.55844 0.21911 0.58256 0.0
H1925 H 0.56905 0.09793 0.54732 0.0
H1926 H 0.5712 0.13213 0.55789 0.0
C1927 C 0.56173 0.23869 0.58972 0.0
C1928 C 0.55319 0.19189 0.55559 0.0
H1929 H 0.53304 0.14559 0.55953 0.0
C1930 C 0.56423 0.18788 0.54232 0.0
C1931 C 0.5415 0.17643 0.56162 0.0
C1932 C 0.52842 0.17951 0.57486 0.0
C1933 C 0.56414 0.16893 0.53524 0.0
C1934 C 0.55293 0.15372 0.54177 0.0
C1935 C 0.54176 0.15751 0.55481 0.0
C1936 C 0.55243 0.13363 0.53492 0.0
C1937 C 0.57607 0.16516 0.52095 0.0
C1938 C 0.54129 0.12352 0.5185 0.0
C1939 C 0.53993 0.1041 0.51255 0.0
C1940 C 0.54986 0.09471 0.52287 0.0
C1941 C 0.56145 0.10502 0.53903 0.0
C1942 C 0.5626 0.1244 0.54513 0.0
H1943 H 0.5848 0.17869 0.51807 0.0
H1944 H 0.58461 0.1563 0.52579 0.0
H1945 H 0.5677 0.15682 0.50777 0.0
H1946 H 0.5334 0.13057 0.51052 0.0
H1947 H 0.53094 0.09634 0.50003 0.0
H1948 H 0.55085 0.75583 0.36715 0.0
H1949 H 0.57813 0.7588 0.3523 0.0
H1950 H 0.60265 0.81356 0.38836 0.0
H1951 H 0.57572 0.81076 0.40321 0.0
H1952 H 0.59587 0.78934 0.33406 0.0
H1953 H 0.63988 0.78303 0.3955 0.0
H1954 H 0.61576 0.77525 0.39337 0.0
H1955 H 0.62736 0.80043 0.39968 0.0
C1956 C 0.56203 0.76851 0.37189 0.0
C1957 C 0.56103 0.78299 0.38646 0.0
C1958 C 0.57764 0.77018 0.36341 0.0
C1959 C 0.59258 0.78626 0.36944 0.0
C1960 C 0.59148 0.80085 0.38372 0.0
H1961 H 0.6976 0.82101 0.33049 0.0
H1962 H 0.67135 0.82114 0.34664 0.0
C1963 C 0.57595 0.79923 0.39213 0.0
C1964 C 0.60923 0.78807 0.36063 0.0
H1965 H 0.6538 0.79084 0.36943 0.0
C1966 C 0.60851 0.78961 0.34179 0.0
C1967 C 0.62582 0.78868 0.37077 0.0
C1968 C 0.62734 0.78662 0.39092 0.0
C1969 C 0.62387 0.79171 0.33284 0.0
C1970 C 0.64034 0.79197 0.34288 0.0
C1971 C 0.64117 0.79072 0.36178 0.0
C1972 C 0.65645 0.7921 0.33354 0.0
C1973 C 0.62248 0.79379 0.31271 0.0
C1974 C 0.65684 0.77571 0.32103 0.0
C1975 C 0.67176 0.77555 0.31197 0.0
C1976 C 0.68667 0.79182 0.31513 0.0
C1977 C 0.6863 0.80829 0.3277 0.0
C1978 C 0.67136 0.80836 0.33698 0.0
H1979 H 0.6098 0.797 0.30792 0.0
H1980 H 0.63392 0.80546 0.31049 0.0
H1981 H 0.62297 0.78016 0.30398 0.0
H1982 H 0.64553 0.763 0.31825 0.0
H1983 H 0.67151 0.76273 0.30221 0.0
H1984 H 0.09669 0.26882 0.40407 0.0
H1985 H 0.08358 0.23621 0.40904 0.0
H1986 H 0.05175 0.25779 0.44754 0.0
H1987 H 0.06455 0.29044 0.44251 0.0
H1988 H 0.08675 0.22594 0.44333 0.0
H1989 H 0.01522 0.21072 0.41419 0.0
H1990 H 0.03271 0.22924 0.40798 0.0
H1991 H 0.02409 0.23357 0.42959 0.0
C1992 C 0.08703 0.26666 0.41373 0.0
C1993 C 0.08184 0.28218 0.42311 0.0
C1994 C 0.07936 0.24804 0.41629 0.0
C1995 C 0.06639 0.24471 0.42821 0.0
C1996 C 0.06138 0.26014 0.43785 0.0
H1997 H 0.03097 0.16248 0.49383 0.0
H1998 H 0.03521 0.18903 0.47679 0.0
C1999 C 0.06904 0.2788 0.43531 0.0
C2000 C 0.05998 0.22547 0.43254 0.0
H2001 H 0.02242 0.1901 0.43436 0.0
C2002 C 0.07273 0.2179 0.44105 0.0
C2003 C 0.04167 0.21525 0.42955 0.0
C2004 C 0.02762 0.2225 0.41967 0.0
C2005 C 0.06759 0.20059 0.4474 0.0
C2006 C 0.04925 0.19067 0.44498 0.0
C2007 C 0.03647 0.19791 0.43604 0.0
C2008 C 0.04324 0.17354 0.45309 0.0
C2009 C 0.08168 0.19341 0.45734 0.0
C2010 C 0.04583 0.15603 0.4449 0.0
C2011 C 0.04324 0.14073 0.45447 0.0
C2012 C 0.03819 0.14294 0.47237 0.0
C2013 C 0.03462 0.16024 0.47997 0.0
C2014 C 0.03708 0.17543 0.47033 0.0
H2015 H 0.0952 0.20374 0.45929 0.0
H2016 H 0.07816 0.1908 0.47118 0.0
H2017 H 0.08224 0.17951 0.4492 0.0
H2018 H 0.05061 0.15453 0.43154 0.0
H2019 H 0.04578 0.12745 0.44817 0.0
H2020 H 0.54188 0.22849 0.17966 0.0
H2021 H 0.57416 0.23607 0.18801 0.0
H2022 H 0.5784 0.29668 0.19179 0.0
H2023 H 0.54573 0.28905 0.18279 0.0
H2024 H 0.60503 0.26119 0.17241 0.0
H2025 H 0.59378 0.28282 0.24555 0.0
H2026 H 0.57597 0.26839 0.22768 0.0
H2027 H 0.58461 0.29366 0.22789 0.0
C2028 C 0.5497 0.24344 0.18235 0.0
C2029 C 0.54155 0.25833 0.1813 0.0
C2030 C 0.56806 0.24767 0.18671 0.0
C2031 C 0.57836 0.26685 0.1904 0.0
C2032 C 0.5704 0.2818 0.18881 0.0
H2033 H 0.69001 0.29699 0.23928 0.0
H2034 H 0.66105 0.30031 0.22612 0.0
C2035 C 0.55193 0.27751 0.18399 0.0
C2036 C 0.59691 0.27094 0.19855 0.0
H2037 H 0.62256 0.2809 0.24079 0.0
C2038 C 0.60912 0.26598 0.18727 0.0
C2039 C 0.60165 0.27649 0.218 0.0
C2040 C 0.58835 0.28055 0.2306 0.0
C2041 C 0.62613 0.26614 0.1952 0.0
C2042 C 0.63075 0.27159 0.21464 0.0
C2043 C 0.61876 0.27705 0.22583 0.0
C2044 C 0.64745 0.27012 0.22385 0.0
C2045 C 0.63879 0.25968 0.183 0.0
C2046 C 0.64868 0.25223 0.22753 0.0
C2047 C 0.66491 0.2504 0.23528 0.0
C2048 C 0.67989 0.26646 0.23921 0.0
C2049 C 0.6784 0.28458 0.23641 0.0
C2050 C 0.66209 0.28643 0.2288 0.0
H2051 H 0.63383 0.2578 0.16797 0.0
H2052 H 0.65216 0.2703 0.18619 0.0
H2053 H 0.64046 0.24571 0.18594 0.0
H2054 H 0.63725 0.23964 0.22382 0.0
H2055 H 0.66606 0.23629 0.23709 0.0
H2056 H 0.5984 0.87409 0.94487 0.0
H2057 H 0.5921 0.90426 0.95778 0.0
H2058 H 0.57911 0.91394 0.90226 0.0
H2059 H 0.58497 0.88346 0.88939 0.0
H2060 H 0.60254 0.94313 0.95402 0.0
H2061 H 0.53161 0.90628 0.92335 0.0
H2062 H 0.54864 0.8936 0.92393 0.0
H2063 H 0.54776 0.90921 0.90742 0.0
C2064 C 0.59502 0.88318 0.93554 0.0
C2065 C 0.59231 0.87689 0.91629 0.0
C2066 C 0.59129 0.90023 0.94284 0.0
C2067 C 0.58482 0.91095 0.93088 0.0
C2068 C 0.58383 0.9056 0.91161 0.0
H2069 H 0.52863 0.99537 0.97094 0.0
H2070 H 0.54037 0.9738 0.94963 0.0
C2071 C 0.58741 0.88845 0.90431 0.0
C2072 C 0.57713 0.92619 0.93872 0.0
H2073 H 0.53714 0.93574 0.94374 0.0
C2074 C 0.5883 0.94174 0.95159 0.0
C2075 C 0.55851 0.92416 0.93535 0.0
C2076 C 0.54586 0.90737 0.92187 0.0
C2077 C 0.58126 0.9551 0.96183 0.0
C2078 C 0.56254 0.95243 0.95929 0.0
C2079 C 0.55147 0.93752 0.94565 0.0
C2080 C 0.55415 0.96412 0.97169 0.0
C2081 C 0.59393 0.9717 0.97547 0.0
C2082 C 0.55727 0.96487 0.99091 0.0
C2083 C 0.55128 0.97766 0.00297 0.0
C2084 C 0.54153 0.98925 0.99588 0.0
C2085 C 0.5367 0.98698 0.97661 0.0
C2086 C 0.54327 0.97465 0.9645 0.0
H2087 H 0.60758 0.97517 0.97141 0.0
H2088 H 0.58911 0.98484 0.97656 0.0
H2089 H 0.59502 0.96769 0.98942 0.0
H2090 H 0.56494 0.95611 0.99661 0.0
H2091 H 0.55473 0.9789 0.01782 0.0
H2092 H 0.9386 0.7602 0.65465 0.0
H2093 H 0.91312 0.76665 0.66921 0.0
H2094 H 0.93026 0.74551 0.71756 0.0
H2095 H 0.9555 0.73902 0.7033 0.0
H2096 H 0.88638 0.73609 0.68749 0.0
H2097 H 0.92798 0.80471 0.73228 0.0
H2098 H 0.93413 0.79461 0.71066 0.0
H2099 H 0.93708 0.78431 0.73099 0.0
C2100 C 0.93684 0.75702 0.66838 0.0
C2101 C 0.9488 0.74923 0.678 0.0
C2102 C 0.92238 0.76053 0.67651 0.0
C2103 C 0.9202 0.75648 0.69426 0.0
C2104 C 0.93201 0.74859 0.70378 0.0
H2105 H 0.84317 0.76166 0.76917 0.0
H2106 H 0.86884 0.75575 0.7545 0.0
C2107 C 0.94629 0.74494 0.69566 0.0
C2108 C 0.906 0.76115 0.70347 0.0
H2109 H 0.8986 0.79237 0.73906 0.0
C2110 C 0.88887 0.74842 0.69868 0.0
C2111 C 0.90979 0.77719 0.71802 0.0
C2112 C 0.92822 0.79111 0.72328 0.0
C2113 C 0.87514 0.75134 0.70849 0.0
C2114 C 0.87902 0.76729 0.72315 0.0
C2115 C 0.89608 0.78007 0.72784 0.0
C2116 C 0.86506 0.77188 0.7328 0.0
C2117 C 0.85661 0.73765 0.70319 0.0
C2118 C 0.85541 0.78336 0.72547 0.0
C2119 C 0.84132 0.78707 0.73393 0.0
C2120 C 0.83677 0.779 0.7495 0.0
C2121 C 0.84678 0.76797 0.75717 0.0
C2122 C 0.86117 0.76456 0.74887 0.0
H2123 H 0.85632 0.72493 0.69259 0.0
H2124 H 0.85153 0.73258 0.71567 0.0
H2125 H 0.84734 0.74534 0.69751 0.0
H2126 H 0.85852 0.78898 0.71299 0.0
H2127 H 0.83342 0.79534 0.72773 0.0
H2128 H 0.13002 0.04488 0.8268 0.0
H2129 H 0.1171 0.04541 0.8557 0.0
H2130 H 0.10538 0.98359 0.84777 0.0
H2131 H 0.11937 0.98324 0.81907 0.0
H2132 H 0.08785 0.03649 0.86668 0.0
H2133 H 0.12174 0.98988 0.90001 0.0
H2134 H 0.12808 0.99792 0.87904 0.0
H2135 H 0.10885 0.97767 0.87805 0.0
C2136 C 0.12511 0.03129 0.83131 0.0
C2137 C 0.12646 0.01407 0.82032 0.0
C2138 C 0.1174 0.0316 0.84808 0.0
C2139 C 0.1102 0.01466 0.85501 0.0
C2140 C 0.11126 0.99725 0.84387 0.0
H2141 H 0.04591 0.99416 0.94857 0.0
H2142 H 0.06013 0.99216 0.92025 0.0
C2143 C 0.11936 0.99697 0.8271 0.0
C2144 C 0.10151 0.01564 0.87336 0.0
H2145 H 0.09862 0.9986 0.9148 0.0
C2146 C 0.09054 0.02823 0.87713 0.0
C2147 C 0.10435 0.00504 0.88768 0.0
C2148 C 0.11652 0.99201 0.88612 0.0
C2149 C 0.08267 0.03033 0.89394 0.0
C2150 C 0.08561 0.01978 0.90815 0.0
C2151 C 0.09625 0.00699 0.90435 0.0
C2152 C 0.07731 0.02127 0.92653 0.0
C2153 C 0.07074 0.04357 0.89622 0.0
C2154 C 0.0821 0.03819 0.9405 0.0
C2155 C 0.07422 0.03919 0.95736 0.0
C2156 C 0.06097 0.02339 0.96091 0.0
C2157 C 0.05625 0.0066 0.94688 0.0
C2158 C 0.06437 0.00546 0.93036 0.0
H2159 H 0.0675 0.04861 0.88314 0.0
H2160 H 0.05807 0.03615 0.90084 0.0
H2161 H 0.07753 0.05634 0.90712 0.0
H2162 H 0.09199 0.05079 0.93838 0.0
H2163 H 0.07803 0.05262 0.96727 0.0
H2164 H 0.82138 0.40822 0.55135 0.0
H2165 H 0.82912 0.41581 0.58487 0.0
H2166 H 0.78499 0.36811 0.58963 0.0
H2167 H 0.77702 0.36065 0.55565 0.0
H2168 H 0.80263 0.40345 0.62408 0.0
H2169 H 0.84468 0.36241 0.58735 0.0
H2170 H 0.84331 0.38466 0.58048 0.0
H2171 H 0.82392 0.36431 0.57598 0.0
C2172 C 0.81286 0.39995 0.5596 0.0
C2173 C 0.79919 0.38337 0.55126 0.0
C2174 C 0.81709 0.40453 0.57872 0.0
C2175 C 0.80782 0.39223 0.58939 0.0
C2176 C 0.79226 0.37762 0.58131 0.0
H2177 H 0.81966 0.31906 0.65448 0.0
H2178 H 0.82059 0.3397 0.63141 0.0
C2179 C 0.78792 0.37312 0.56204 0.0
C2180 C 0.81768 0.38975 0.60616 0.0
H2181 H 0.84676 0.36506 0.61941 0.0
C2182 C 0.81259 0.39547 0.62333 0.0
C2183 C 0.8306 0.37927 0.60465 0.0
C2184 C 0.83595 0.37218 0.58615 0.0
C2185 C 0.81909 0.38952 0.63912 0.0
C2186 C 0.83123 0.37807 0.63741 0.0
C2187 C 0.83757 0.37399 0.62052 0.0
C2188 C 0.83367 0.36612 0.65108 0.0
C2189 C 0.81166 0.39395 0.65699 0.0
C2190 C 0.84116 0.3742 0.66955 0.0
C2191 C 0.84022 0.3624 0.68282 0.0
C2192 C 0.83233 0.34256 0.67738 0.0
C2193 C 0.82603 0.33438 0.65872 0.0
C2194 C 0.82657 0.34612 0.64563 0.0
H2195 H 0.80105 0.40148 0.65531 0.0
H2196 H 0.80595 0.38046 0.66212 0.0
H2197 H 0.82257 0.40333 0.66776 0.0
H2198 H 0.84692 0.3896 0.67379 0.0
H2199 H 0.84498 0.36875 0.69731 0.0
H2200 H 0.44982 0.99935 0.31655 0.0
H2201 H 0.46241 0.99627 0.34716 0.0
H2202 H 0.45608 0.05181 0.37032 0.0
H2203 H 0.44341 0.05501 0.33961 0.0
H2204 H 0.49427 0.02428 0.36354 0.0
H2205 H 0.44135 0.01855 0.40947 0.0
H2206 H 0.43645 0.01234 0.38442 0.0
H2207 H 0.44252 0.03715 0.39583 0.0
C2208 C 0.45059 0.01062 0.32832 0.0
C2209 C 0.44603 0.0276 0.32592 0.0
C2210 C 0.45775 0.00881 0.34569 0.0
C2211 C 0.46013 0.02384 0.36075 0.0
C2212 C 0.45404 0.04 0.35873 0.0
H2213 H 0.53349 0.06502 0.46165 0.0
H2214 H 0.51357 0.0617 0.43255 0.0
C2215 C 0.44683 0.04183 0.34129 0.0
C2216 C 0.4713 0.02402 0.37782 0.0
H2217 H 0.47169 0.02786 0.42451 0.0
C2218 C 0.48935 0.02485 0.37687 0.0
C2219 C 0.46464 0.02472 0.39497 0.0
C2220 C 0.44513 0.02296 0.39627 0.0
C2221 C 0.50115 0.02697 0.393 0.0
C2222 C 0.49458 0.02837 0.41018 0.0
C2223 C 0.4765 0.02707 0.41112 0.0
C2224 C 0.5063 0.03051 0.42735 0.0
C2225 C 0.52052 0.02783 0.39176 0.0
C2226 C 0.50842 0.01401 0.43361 0.0
C2227 C 0.51945 0.01587 0.45009 0.0
C2228 C 0.52862 0.03425 0.4601 0.0
C2229 C 0.52665 0.05079 0.45376 0.0
C2230 C 0.51531 0.04891 0.43739 0.0
H2231 H 0.5237 0.02762 0.37732 0.0
H2232 H 0.52933 0.0411 0.40085 0.0
H2233 H 0.52365 0.01532 0.39684 0.0
H2234 H 0.50147 0.99978 0.42581 0.0
H2235 H 0.52088 1.00301 0.455 0.0
H2236 H 0.81118 0.75476 0.05211 0.0
H2237 H 0.81358 0.76521 0.08591 0.0
H2238 H 0.78057 0.70911 0.08991 0.0
H2239 H 0.77954 0.69835 0.05668 0.0
H2240 H 0.78912 0.77001 0.10477 0.0
H2241 H 0.81534 0.71569 0.13381 0.0
H2242 H 0.81555 0.71788 0.10974 0.0
H2243 H 0.79581 0.70388 0.1173 0.0
C2244 C 0.80506 0.74455 0.06044 0.0
C2245 C 0.79554 0.72566 0.05199 0.0
C2246 C 0.80629 0.75052 0.07969 0.0
C2247 C 0.79753 0.73787 0.09067 0.0
C2248 C 0.7881 0.71896 0.08207 0.0
H2249 H 0.76324 0.75081 0.20003 0.0
H2250 H 0.76487 0.74183 0.16663 0.0
C2251 C 0.78742 0.71282 0.06301 0.0
C2252 C 0.79673 0.74487 0.11064 0.0
H2253 H 0.79928 0.73261 0.1537 0.0
C2254 C 0.79159 0.76191 0.11545 0.0
C2255 C 0.8 0.73445 0.12476 0.0
C2256 C 0.80718 0.7171 0.12114 0.0
C2257 C 0.78914 0.76843 0.13376 0.0
C2258 C 0.79156 0.75749 0.14753 0.0
C2259 C 0.79699 0.74069 0.14292 0.0
C2260 C 0.78953 0.76384 0.1671 0.0
C2261 C 0.78376 0.78685 0.13828 0.0
C2262 C 0.8027 0.77928 0.17817 0.0
C2263 C 0.80185 0.78427 0.19707 0.0
C2264 C 0.78773 0.77403 0.2052 0.0
C2265 C 0.7741 0.75907 0.19399 0.0
C2266 C 0.77511 0.75387 0.17503 0.0
H2267 H 0.77962 0.79202 0.12557 0.0
H2268 H 0.77259 0.78479 0.14674 0.0
H2269 H 0.79527 0.79819 0.14664 0.0
H2270 H 0.81397 0.78705 0.17232 0.0
H2271 H 0.81254 0.79582 0.20549 0.0
H2272 H 0.14691 0.01884 0.70339 0.0
H2273 H 0.13445 0.02211 0.67238 0.0
H2274 H 0.08152 0.99473 0.68297 0.0
H2275 H 0.09386 0.99272 0.71424 0.0
H2276 H 0.11776 1.00279 0.64094 0.0
H2277 H 0.06872 0.03871 0.66815 0.0
H2278 H 0.0853 0.03312 0.68344 0.0
H2279 H 0.06482 0.01495 0.67331 0.0
C2280 C 0.13265 0.01312 0.69898 0.0
C2281 C 0.12156 0.00519 0.71153 0.0
C2282 C 0.12539 0.01518 0.68112 0.0
C2283 C 0.10671 0.00937 0.67498 0.0
C2284 C 0.09581 1.00029 0.68714 0.0
H2285 H 0.0425 1.00203 0.56578 0.0
H2286 H 0.05453 0.99709 0.59628 0.0
C2287 C 0.103 0.99867 0.7051 0.0
C2288 C 0.09875 0.01297 0.65625 0.0
H2289 H 0.06544 0.0294 0.63529 0.0
C2290 C 0.10639 0.00873 0.63994 0.0
C2291 C 0.08381 0.02086 0.65423 0.0
C2292 C 0.07531 0.02735 0.67074 0.0
C2293 C 0.09954 0.01173 0.62227 0.0
C2294 C 0.08454 0.01927 0.62033 0.0
C2295 C 0.07686 0.02353 0.63648 0.0
C2296 C 0.07677 0.02278 0.60171 0.0
C2297 C 0.10828 0.00659 0.60552 0.0
C2298 C 0.08487 0.03907 0.59426 0.0
C2299 C 0.07768 0.04218 0.57687 0.0
C2300 C 0.06236 0.02888 0.56605 0.0
C2301 C 0.05431 0.01261 0.57353 0.0
C2302 C 0.06122 0.00976 0.5911 0.0
H2303 H 0.11862 0.99908 0.60867 0.0
H2304 H 0.09804 0.99722 0.59407 0.0
H2305 H 0.11468 0.01993 0.6005 0.0
H2306 H 0.09684 0.04944 0.60193 0.0
H2307 H 0.08443 0.05482 0.57168 0.0
H2308 H 0.83617 0.40227 0.45565 0.0
H2309 H 0.83538 0.38783 0.42314 0.0
H2310 H 0.77861 0.36161 0.41948 0.0
H2311 H 0.77924 0.37677 0.45157 0.0
H2312 H 0.82674 0.34941 0.41326 0.0
H2313 H 0.78136 0.37823 0.37034 0.0
H2314 H 0.79119 0.38989 0.39381 0.0
H2315 H 0.7714 0.36982 0.38956 0.0
C2316 C 0.82346 0.39402 0.44755 0.0
C2317 C 0.80774 0.39046 0.45576 0.0
C2318 C 0.82303 0.38579 0.42915 0.0
C2319 C 0.80693 0.37381 0.41906 0.0
C2320 C 0.79104 0.37125 0.42698 0.0
H2321 H 0.7847 0.27616 0.32975 0.0
H2322 H 0.79104 0.29637 0.36096 0.0
C2323 C 0.7914 0.37983 0.44524 0.0
C2324 C 0.80705 0.36186 0.40126 0.0
H2325 H 0.78544 0.34773 0.35705 0.0
C2326 C 0.81792 0.34919 0.40084 0.0
C2327 C 0.79551 0.36172 0.38527 0.0
C2328 C 0.78435 0.3758 0.38471 0.0
C2329 C 0.8172 0.33596 0.38473 0.0
C2330 C 0.80512 0.33534 0.36905 0.0
C2331 C 0.79448 0.34818 0.36938 0.0
C2332 C 0.80399 0.32245 0.35152 0.0
C2333 C 0.82945 0.32297 0.38437 0.0
C2334 C 0.80915 0.33068 0.33629 0.0
C2335 C 0.80496 0.31951 0.31868 0.0
C2336 C 0.79618 0.2998 0.31614 0.0
C2337 C 0.79173 0.2913 0.33152 0.0
C2338 C 0.79545 0.30271 0.34923 0.0
H2339 H 0.83891 0.32619 0.39747 0.0
H2340 H 0.82138 0.30773 0.38223 0.0
H2341 H 0.83723 0.32456 0.37255 0.0
H2342 H 0.81548 0.34599 0.33792 0.0
H2343 H 0.80791 0.3266 0.30701 0.0
H2344 H 0.46367 0.99854 0.2437 0.0
H2345 H 0.45299 0.985 0.21124 0.0
H2346 H 0.43926 0.03712 0.20362 0.0
H2347 H 0.44885 0.05049 0.23676 0.0
H2348 H 0.4237 0.98754 0.1751 0.0
H2349 H 0.49456 0.03315 0.19198 0.0
H2350 H 0.48325 0.0215 0.20906 0.0
H2351 H 0.47764 0.04211 0.20241 0.0
C2352 C 0.45735 0.00674 0.23547 0.0
C2353 C 0.45742 0.0258 0.24263 0.0
C2354 C 0.45103 0.99881 0.21691 0.0
C2355 C 0.4457 0.01023 0.20513 0.0
C2356 C 0.44328 0.02812 0.21268 0.0
H2357 H 0.4722 0.03461 0.1036 0.0
H2358 H 0.45666 0.02871 0.13009 0.0
C2359 C 0.449 0.03584 0.23152 0.0
C2360 C 0.44962 0.00705 0.186 0.0
H2361 H 0.48365 0.02 0.16079 0.0
C2362 C 0.43674 0.99461 0.17185 0.0
C2363 C 0.46692 0.01588 0.18218 0.0
C2364 C 0.48147 0.02884 0.19715 0.0
C2365 C 0.44057 0.99153 0.15352 0.0
C2366 C 0.45756 1.00106 0.14968 0.0
C2367 C 0.47062 0.0128 0.164 0.0
C2368 C 0.46182 1.00109 0.13075 0.0
C2369 C 0.42656 0.9785 0.13827 0.0
C2370 C 0.46928 0.98709 0.12212 0.0
C2371 C 0.47817 0.99036 0.10681 0.0
C2372 C 0.47973 0.00773 0.10023 0.0
C2373 C 0.47096 0.02094 0.10811 0.0
C2374 C 0.46209 0.01763 0.12327 0.0
H2375 H 0.41381 0.97239 0.14346 0.0
H2376 H 0.42389 0.98663 0.12722 0.0
H2377 H 0.43163 0.9665 0.13181 0.0
H2378 H 0.46936 0.97438 0.12801 0.0
H2379 H 0.48477 0.97995 0.10089 0.0
H2380 H 0.81524 0.71741 0.94997 0.0
H2381 H 0.81963 0.72961 0.92076 0.0
H2382 H 0.76378 0.72796 0.9119 0.0
H2383 H 0.7596 0.71677 0.94105 0.0
H2384 H 0.80619 0.71614 0.88513 0.0
H2385 H 0.78504 0.78188 0.90645 0.0
H2386 H 0.7893 0.76687 0.92271 0.0
H2387 H 0.76787 0.76098 0.90836 0.0
C2388 C 0.80396 0.71966 0.94172 0.0
C2389 C 0.78713 0.71637 0.94794 0.0
C2390 C 0.80646 0.72668 0.92507 0.0
C2391 C 0.79215 0.73034 0.91436 0.0
C2392 C 0.77522 0.72608 0.9202 0.0
H2393 H 0.76678 0.75475 0.80516 0.0
H2394 H 0.76708 0.74371 0.83512 0.0
C2395 C 0.77281 0.71947 0.93684 0.0
C2396 C 0.79451 0.7382 0.89688 0.0
H2397 H 0.78429 0.772 0.87349 0.0
C2398 C 0.80163 0.72851 0.88272 0.0
C2399 C 0.78875 0.75452 0.89367 0.0
C2400 C 0.78251 0.76677 0.9087 0.0
C2401 C 0.80235 0.73415 0.86526 0.0
C2402 C 0.79567 0.74973 0.86181 0.0
C2403 C 0.78907 0.7598 0.87607 0.0
C2404 C 0.79557 0.75589 0.84349 0.0
C2405 C 0.80988 0.72321 0.85038 0.0
C2406 C 0.81148 0.76634 0.83832 0.0
C2407 C 0.81131 0.77275 0.82134 0.0
C2408 C 0.79525 0.7687 0.80916 0.0
C2409 C 0.77936 0.75795 0.81421 0.0
C2410 C 0.77951 0.75172 0.83133 0.0
H2411 H 0.81278 0.71018 0.85452 0.0
H2412 H 0.80036 0.7188 0.83726 0.0
H2413 H 0.82249 0.73273 0.84752 0.0
H2414 H 0.82398 0.76978 0.84756 0.0
H2415 H 0.82375 0.78105 0.81783 0.0
H2416 H 0.82998 0.13715 0.98939 0.0
H2417 H 0.85583 0.12556 0.98208 0.0
H2418 H 0.84475 0.08629 0.02054 0.0
H2419 H 0.81893 0.09813 0.02806 0.0
H2420 H 0.88538 0.12553 0.01084 0.0
H2421 H 0.84844 0.05404 0.96815 0.0
H2422 H 0.83869 0.07405 0.97185 0.0
H2423 H 0.84071 0.06044 0.98992 0.0
C2424 C 0.8332 0.12606 0.99622 0.0
C2425 C 0.82288 0.11839 0.00921 0.0
C2426 C 0.84778 0.1195 0.99205 0.0
C2427 C 0.85182 0.10505 1.00067 0.0
C2428 C 0.84149 0.09735 0.01371 0.0
H2429 H 0.92914 0.04683 0.01324 0.0
H2430 H 0.90395 0.06105 0.01257 0.0
C2431 C 0.82699 0.10411 0.01805 0.0
C2432 C 0.86735 0.09855 0.99655 0.0
H2433 H 0.87969 0.05936 0.97739 0.0
C2434 C 0.88427 0.11119 0.00331 0.0
C2435 C 0.86547 0.07992 0.98656 0.0
C2436 C 0.84736 0.06632 0.97854 0.0
C2437 C 0.89967 0.10519 0.00117 0.0
C2438 C 0.89778 0.08627 0.99188 0.0
C2439 C 0.88086 0.07391 0.98441 0.0
C2440 C 0.91298 0.07818 0.99199 0.0
C2441 C 0.91773 0.11865 0.00959 0.0
C2442 C 0.92617 0.08338 0.98065 0.0
C2443 C 0.94047 0.07521 0.98096 0.0
C2444 C 0.94159 0.0621 0.99279 0.0
C2445 C 0.92847 0.05714 0.00423 0.0
C2446 C 0.91414 0.06509 0.00376 0.0
H2447 H 0.91663 0.13228 0.01787 0.0
H2448 H 0.92506 0.11152 0.01872 0.0
H2449 H 0.92581 0.12224 0.99834 0.0
H2450 H 0.92527 0.09352 0.97151 0.0
H2451 H 0.95057 0.07901 0.97201 0.0
H2452 H 0.34118 0.43907 0.02435 0.0
H2453 H 0.36959 0.46126 0.02005 0.0
H2454 H 0.39697 0.41807 0.02761 0.0
H2455 H 0.36917 0.39617 0.03189 0.0
H2456 H 0.40342 0.47537 0.04413 0.0
H2457 H 0.41106 0.43205 0.97816 0.0
H2458 H 0.39003 0.42862 0.98731 0.0
H2459 H 0.40698 0.41847 0.99646 0.0
C2460 C 0.35328 0.43439 0.02523 0.0
C2461 C 0.3527 0.4157 0.02838 0.0
C2462 C 0.36953 0.44704 0.02266 0.0
C2463 C 0.38545 0.44122 0.02304 0.0
C2464 C 0.3849 0.42283 0.02673 0.0
H2465 H 0.49933 0.48911 0.01498 0.0
H2466 H 0.46938 0.46794 0.01604 0.0
C2467 C 0.36886 0.41031 0.02932 0.0
C2468 C 0.40287 0.45423 0.02012 0.0
H2469 H 0.43696 0.45674 0.99356 0.0
C2470 C 0.41064 0.47142 0.03293 0.0
C2471 C 0.41251 0.44902 0.00565 0.0
C2472 C 0.40468 0.43113 0.991 0.0
C2473 C 0.42786 0.48317 0.03204 0.0
C2474 C 0.43759 0.47795 0.01762 0.0
C2475 C 0.42971 0.46083 0.00467 0.0
C2476 C 0.45574 0.49031 0.01566 0.0
C2477 C 0.43573 0.50075 0.04707 0.0
C2478 C 0.45817 0.5098 0.01443 0.0
C2479 C 0.47522 0.52188 0.01413 0.0
C2480 C 0.49038 0.51479 0.01453 0.0
C2481 C 0.48794 0.49504 0.01468 0.0
C2482 C 0.4708 0.48294 0.01531 0.0
H2483 H 0.42928 0.4995 0.05983 0.0
H2484 H 0.45034 0.50313 0.05083 0.0
H2485 H 0.43348 0.51362 0.042 0.0
H2486 H 0.44684 0.51583 0.01398 0.0
H2487 H 0.47655 0.53694 0.01372 0.0
H2488 H 0.36973 0.60088 0.77595 0.0
H2489 H 0.35719 0.62813 0.77587 0.0
H2490 H 0.40328 0.65849 0.75412 0.0
H2491 H 0.41541 0.63039 0.75315 0.0
H2492 H 0.36104 0.66065 0.79176 0.0
H2493 H 0.37192 0.67582 0.72182 0.0
H2494 H 0.37593 0.6547 0.72917 0.0
H2495 H 0.39249 0.67774 0.73597 0.0
C2496 C 0.37726 0.61316 0.77079 0.0
C2497 C 0.39372 0.61264 0.76423 0.0
C2498 C 0.36996 0.62918 0.77089 0.0
C2499 C 0.37864 0.6461 0.76464 0.0
C2500 C 0.39537 0.64585 0.75837 0.0
H2501 H 0.34999 0.75972 0.76679 0.0
H2502 H 0.36576 0.73436 0.76639 0.0
C2503 C 0.40258 0.62951 0.75793 0.0
C2504 C 0.37018 0.66353 0.76529 0.0
H2505 H 0.36176 0.69849 0.74131 0.0
C2506 C 0.36123 0.66862 0.78047 0.0
C2507 C 0.37002 0.67486 0.751 0.0
C2508 C 0.37794 0.67042 0.7335 0.0
C2509 C 0.35259 0.68386 0.78172 0.0
C2510 C 0.35242 0.69502 0.76743 0.0
C2511 C 0.36161 0.69032 0.75245 0.0
C2512 C 0.34257 0.71111 0.76766 0.0
C2513 C 0.34395 0.68817 0.79876 0.0
C2514 C 0.32393 0.70728 0.76834 0.0
C2515 C 0.31476 0.72187 0.76828 0.0
C2516 C 0.32367 0.74129 0.76781 0.0
C2517 C 0.34236 0.74521 0.76726 0.0
C2518 C 0.3515 0.73048 0.76698 0.0
H2519 H 0.34889 0.68203 0.81046 0.0
H2520 H 0.34649 0.70396 0.80338 0.0
H2521 H 0.32927 0.68175 0.7954 0.0
H2522 H 0.31624 0.69274 0.76859 0.0
H2523 H 0.30047 0.71782 0.76866 0.0
H2524 H 0.23014 0.64156 0.51198 0.0
H2525 H 0.19988 0.62941 0.49597 0.0
H2526 H 0.20275 0.57113 0.4956 0.0
H2527 H 0.23394 0.58341 0.51111 0.0
H2528 H 0.17401 0.5944 0.46548 0.0
H2529 H 0.17765 0.59489 0.54192 0.0
H2530 H 0.19588 0.60863 0.53212 0.0
H2531 H 0.19158 0.58295 0.52925 0.0
C2532 C 0.22466 0.62612 0.5078 0.0
C2533 C 0.23399 0.61328 0.51321 0.0
C2534 C 0.20748 0.61924 0.49831 0.0
C2535 C 0.19924 0.59949 0.49478 0.0
C2536 C 0.20917 0.58648 0.49816 0.0
H2537 H 0.09373 0.53609 0.49124 0.0
H2538 H 0.1241 0.55004 0.48499 0.0
C2539 C 0.2267 0.59342 0.50735 0.0
C2540 C 0.17994 0.59381 0.4946 0.0
H2541 H 0.14937 0.5869 0.52463 0.0
C2542 C 0.1685 0.59249 0.47828 0.0
C2543 C 0.17315 0.59239 0.51165 0.0
C2544 C 0.18513 0.59489 0.52979 0.0
C2545 C 0.15001 0.58878 0.4785 0.0
C2546 C 0.14334 0.5866 0.49542 0.0
C2547 C 0.15484 0.58871 0.51178 0.0
C2548 C 0.12442 0.57931 0.49631 0.0
C2549 C 0.13765 0.58714 0.46091 0.0
C2550 C 0.11516 0.59131 0.5053 0.0
C2551 C 0.09809 0.58332 0.50932 0.0
C2552 C 0.09048 0.5634 0.50436 0.0
C2553 C 0.09973 0.55149 0.49533 0.0
C2554 C 0.11674 0.55942 0.49141 0.0
H2555 H 0.14509 0.59177 0.4495 0.0
H2556 H 0.12956 0.57194 0.45628 0.0
H2557 H 0.12819 0.59601 0.46359 0.0
H2558 H 0.12129 0.60667 0.50948 0.0
H2559 H 0.09072 0.59262 0.51587 0.0
H2560 H 0.72134 0.01964 0.74566 0.0
H2561 H 0.73613 0.99614 0.75545 0.0
H2562 H 0.68474 0.9585 0.75979 0.0
H2563 H 0.66993 0.98109 0.74928 0.0
H2564 H 0.73484 0.98222 0.78817 0.0
H2565 H 0.70591 0.92327 0.72732 0.0
H2566 H 0.7048 0.94766 0.72736 0.0
H2567 H 0.68924 0.9318 0.73846 0.0
C2568 C 0.71327 0.00616 0.74836 0.0
C2569 C 0.69457 1.00193 0.74639 0.0
C2570 C 0.72167 0.99292 0.75402 0.0
C2571 C 0.71136 0.97562 0.75788 0.0
C2572 C 0.69276 0.97158 0.75626 0.0
H2573 H 0.73369 0.87443 0.78746 0.0
H2574 H 0.71934 0.90026 0.78463 0.0
C2575 C 0.68437 0.98451 0.75025 0.0
C2576 C 0.71991 0.96176 0.76401 0.0
H2577 H 0.72039 0.91504 0.7535 0.0
C2578 C 0.73183 0.96754 0.78062 0.0
C2579 C 0.71564 0.94271 0.75402 0.0
C2580 C 0.70332 0.93604 0.73572 0.0
C2581 C 0.73957 0.95446 0.78775 0.0
C2582 C 0.73527 0.93541 0.77778 0.0
C2583 C 0.72333 0.92968 0.76118 0.0
C2584 C 0.74408 0.92143 0.78326 0.0
C2585 C 0.75209 0.96107 0.80589 0.0
C2586 C 0.76261 0.92518 0.78365 0.0
C2587 C 0.77074 0.91068 0.78552 0.0
C2588 C 0.76031 0.89229 0.7866 0.0
C2589 C 0.74184 0.88866 0.78675 0.0
C2590 C 0.73373 0.90329 0.78519 0.0
H2591 H 0.74943 0.97369 0.81449 0.0
H2592 H 0.75092 0.94934 0.81408 0.0
H2593 H 0.76608 0.96553 0.80293 0.0
H2594 H 0.77062 0.93893 0.78147 0.0
H2595 H 0.78499 0.91349 0.78499 0.0
H2596 H 0.72774 0.87976 0.49662 0.0
H2597 H 0.70447 0.89614 0.49236 0.0
H2598 H 0.73841 0.94761 0.5279 0.0
H2599 H 0.76202 0.93128 0.53219 0.0
H2600 H 0.68699 0.91208 0.51941 0.0
H2601 H 0.72191 0.96723 0.48135 0.0
H2602 H 0.72885 0.94579 0.48355 0.0
H2603 H 0.73456 0.96586 0.50261 0.0
C2604 C 0.73038 0.8946 0.50355 0.0
C2605 C 0.74684 0.90417 0.51482 0.0
C2606 C 0.71699 0.90394 0.50106 0.0
C2607 C 0.71969 0.92315 0.50965 0.0
C2608 C 0.7361 0.93286 0.52088 0.0
H2609 H 0.6566 0.00425 0.52068 0.0
H2610 H 0.67967 0.98687 0.52038 0.0
C2611 C 0.74957 0.92347 0.52342 0.0
C2612 C 0.70507 0.93269 0.50722 0.0
H2613 H 0.69466 0.97068 0.49127 0.0
C2614 C 0.68863 0.92484 0.51317 0.0
C2615 C 0.7071 0.94917 0.49884 0.0
C2616 C 0.72398 0.95746 0.49104 0.0
C2617 C 0.67444 0.93342 0.51163 0.0
C2618 C 0.67666 0.95022 0.5037 0.0
C2619 C 0.69297 0.95785 0.49741 0.0
C2620 C 0.66265 0.96077 0.50292 0.0
C2621 C 0.65742 0.92478 0.51905 0.0
C2622 C 0.64545 0.95202 0.49292 0.0
C2623 C 0.63225 0.96199 0.49309 0.0
C2624 C 0.63611 0.98083 0.50322 0.0
C2625 C 0.65336 0.98969 0.51284 0.0
C2626 C 0.66652 0.97979 0.51262 0.0
H2627 H 0.65929 0.91456 0.52831 0.0
H2628 H 0.6525 0.93621 0.5269 0.0
H2629 H 0.64694 0.91677 0.50724 0.0
H2630 H 0.64222 0.93748 0.48506 0.0
H2631 H 0.61902 0.95495 0.48551 0.0
H2632 H 0.40812 0.48352 0.73243 0.0
H2633 H 0.39062 0.45158 0.73541 0.0
H2634 H 0.36462 0.47742 0.77739 0.0
H2635 H 0.38192 0.50972 0.77391 0.0
H2636 H 0.38966 0.43137 0.7609 0.0
H2637 H 0.32106 0.43933 0.75031 0.0
H2638 H 0.34008 0.45721 0.74594 0.0
H2639 H 0.3351 0.45661 0.76932 0.0
C2640 C 0.39832 0.48257 0.74199 0.0
C2641 C 0.39631 0.49966 0.75251 0.0
C2642 C 0.38832 0.46401 0.74385 0.0
C2643 C 0.37577 0.46137 0.75648 0.0
C2644 C 0.3736 0.47847 0.76703 0.0
H2645 H 0.30281 0.35809 0.78485 0.0
H2646 H 0.32161 0.39012 0.78378 0.0
C2647 C 0.38356 0.49721 0.765 0.0
C2648 C 0.36572 0.44087 0.75875 0.0
H2649 H 0.32401 0.41077 0.75976 0.0
C2650 C 0.37527 0.42699 0.76057 0.0
C2651 C 0.34685 0.43446 0.75847 0.0
C2652 C 0.33512 0.4476 0.75573 0.0
C2653 C 0.36683 0.40768 0.76239 0.0
C2654 C 0.34791 0.40123 0.76196 0.0
C2655 C 0.33841 0.41514 0.76018 0.0
C2656 C 0.33761 0.38061 0.76375 0.0
C2657 C 0.37859 0.39463 0.76539 0.0
C2658 C 0.34007 0.36361 0.75331 0.0
C2659 C 0.32942 0.34483 0.75439 0.0
C2660 C 0.31562 0.34229 0.76567 0.0
C2661 C 0.31337 0.3592 0.77618 0.0
C2662 C 0.32414 0.37778 0.7754 0.0
H2663 H 0.39251 0.403 0.77133 0.0
H2664 H 0.37334 0.38475 0.77487 0.0
H2665 H 0.37914 0.3859 0.75182 0.0
H2666 H 0.34976 0.36477 0.74367 0.0
H2667 H 0.33135 0.3324 0.74559 0.0
H2668 H 0.20471 0.57344 0.23734 0.0
H2669 H 0.22653 0.6004 0.2579 0.0
H2670 H 0.18521 0.62869 0.26768 0.0
H2671 H 0.16347 0.60228 0.24684 0.0
H2672 H 0.21881 0.63133 0.23605 0.0
H2673 H 0.23016 0.65352 0.31318 0.0
H2674 H 0.22504 0.62853 0.30189 0.0
H2675 H 0.20784 0.64078 0.30186 0.0
C2676 C 0.2001 0.58499 0.24451 0.0
C2677 C 0.18252 0.58605 0.23995 0.0
C2678 C 0.21253 0.6002 0.25656 0.0
C2679 C 0.20745 0.61652 0.26412 0.0
C2680 C 0.18934 0.61612 0.26205 0.0
H2681 H 0.24286 0.73784 0.27943 0.0
H2682 H 0.2281 0.70386 0.2787 0.0
C2683 C 0.17698 0.60115 0.24975 0.0
C2684 C 0.22034 0.63541 0.26588 0.0
H2685 H 0.2411 0.67753 0.29554 0.0
C2686 C 0.22409 0.64134 0.24908 0.0
C2687 C 0.2265 0.64841 0.28287 0.0
C2688 C 0.22229 0.64259 0.30107 0.0
C2689 C 0.23328 0.66025 0.2487 0.0
C2690 C 0.23962 0.67327 0.26568 0.0
C2691 C 0.23634 0.66728 0.28259 0.0
C2692 C 0.24862 0.69353 0.26601 0.0
C2693 C 0.23504 0.66642 0.23011 0.0
C2694 C 0.26484 0.69869 0.25883 0.0
C2695 C 0.27304 0.71798 0.25884 0.0
C2696 C 0.26527 0.73215 0.26649 0.0
C2697 C 0.24907 0.72698 0.27365 0.0
C2698 C 0.24072 0.70771 0.2733 0.0
H2699 H 0.22615 0.65557 0.21853 0.0
H2700 H 0.23176 0.68037 0.23017 0.0
H2701 H 0.24903 0.66836 0.22726 0.0
H2702 H 0.27116 0.68782 0.25336 0.0
H2703 H 0.28563 0.72187 0.25339 0.0
H2704 H 0.51438 0.69986 0.41406 0.0
H2705 H 0.52272 0.67447 0.42836 0.0
H2706 H 0.51916 0.70466 0.48256 0.0
H2707 H 0.5095 0.72899 0.46818 0.0
H2708 H 0.5486 0.67252 0.451 0.0
H2709 H 0.489 0.65464 0.48715 0.0
H2710 H 0.49095 0.67099 0.47097 0.0
H2711 H 0.50176 0.67922 0.4947 0.0
C2712 C 0.51534 0.70094 0.429 0.0
C2713 C 0.51103 0.71615 0.43999 0.0
C2714 C 0.52009 0.68646 0.4372 0.0
C2715 C 0.52099 0.6872 0.45656 0.0
C2716 C 0.51774 0.70312 0.46757 0.0
H2717 H 0.556 0.60984 0.5242 0.0
H2718 H 0.55179 0.63909 0.51362 0.0
C2719 C 0.51244 0.71718 0.45935 0.0
C2720 C 0.52552 0.6715 0.46519 0.0
H2721 H 0.512 0.64008 0.49451 0.0
C2722 C 0.54052 0.66545 0.46047 0.0
C2723 C 0.51508 0.6622 0.47771 0.0
C2724 C 0.49822 0.66698 0.48278 0.0
C2725 C 0.54521 0.65039 0.46768 0.0
C2726 C 0.53478 0.6412 0.48004 0.0
C2727 C 0.52006 0.64738 0.48514 0.0
C2728 C 0.53796 0.62398 0.48645 0.0
C2729 C 0.56116 0.64411 0.46188 0.0
C2730 C 0.5315 0.60598 0.47467 0.0
C2731 C 0.53356 0.58939 0.48077 0.0
C2732 C 0.54238 0.59057 0.49864 0.0
C2733 C 0.54923 0.60865 0.51033 0.0
C2734 C 0.54681 0.62527 0.50434 0.0
H2735 H 0.56942 0.65444 0.45439 0.0
H2736 H 0.56966 0.64256 0.47423 0.0
H2737 H 0.55645 0.62981 0.45256 0.0
H2738 H 0.52461 0.60474 0.46084 0.0
H2739 H 0.52828 0.5756 0.47148 0.0
H2740 H 0.62731 0.33409 0.66415 0.0
H2741 H 0.65221 0.33051 0.68533 0.0
H2742 H 0.64718 0.27442 0.65288 0.0
H2743 H 0.62325 0.27855 0.63129 0.0
H2744 H 0.65608 0.30649 0.70769 0.0
H2745 H 0.69875 0.2969 0.65292 0.0
H2746 H 0.67853 0.30411 0.64864 0.0
H2747 H 0.67756 0.2791 0.64819 0.0
C2748 C 0.63157 0.32103 0.66165 0.0
C2749 C 0.62351 0.30665 0.64605 0.0
C2750 C 0.6458 0.31897 0.67371 0.0
C2751 C 0.65206 0.30241 0.67047 0.0
C2752 C 0.64324 0.28766 0.65537 0.0
H2753 H 0.74048 0.26844 0.72832 0.0
H2754 H 0.71328 0.26807 0.70802 0.0
C2755 C 0.62939 0.28992 0.64314 0.0
C2756 C 0.66772 0.30052 0.68281 0.0
H2757 H 0.70858 0.29118 0.6825 0.0
C2758 C 0.66757 0.30323 0.70214 0.0
C2759 C 0.6828 0.29611 0.67569 0.0
C2760 C 0.68453 0.29407 0.65525 0.0
C2761 C 0.68187 0.30158 0.71443 0.0
C2762 C 0.69696 0.29732 0.70731 0.0
C2763 C 0.69701 0.29431 0.68799 0.0
C2764 C 0.71328 0.29717 0.71969 0.0
C2765 C 0.68053 0.30416 0.73495 0.0
C2766 C 0.72259 0.3137 0.73272 0.0
C2767 C 0.73802 0.31393 0.7442 0.0
C2768 C 0.74474 0.29771 0.74291 0.0
C2769 C 0.73567 0.28119 0.72964 0.0
C2770 C 0.7201 0.28095 0.71809 0.0
H2771 H 0.66638 0.30135 0.73756 0.0
H2772 H 0.68683 0.29442 0.74171 0.0
H2773 H 0.68755 0.31925 0.74162 0.0
H2774 H 0.71803 0.3266 0.73391 0.0
H2775 H 0.74473 0.32695 0.75415 0.0
H2776 H 0.03843 0.31631 0.96511 0.0
H2777 H 0.04501 0.35108 0.97802 0.0
H2778 H 0.00298 0.35563 0.93781 0.0
H2779 H 0.99621 0.32118 0.92532 0.0
H2780 H 0.05183 0.38638 0.95946 0.0
H2781 H 0.98877 0.37036 0.99069 0.0
H2782 H 0.99974 0.3521 0.98315 0.0
H2783 H 0.98648 0.36024 0.96643 0.0
C2784 C 0.03084 0.32493 0.95902 0.0
C2785 C 0.01669 0.31635 0.94452 0.0
C2786 C 0.03461 0.34464 0.96627 0.0
C2787 C 0.02429 0.35567 0.95893 0.0
C2788 C 0.01091 0.34721 0.94373 0.0
H2789 H 0.00585 0.46685 0.97985 0.0
H2790 H 0.00523 0.43315 0.96904 0.0
C2791 C 0.00705 0.32764 0.93667 0.0
C2792 C 0.0261 0.37556 0.96801 0.0
H2793 H 1.0025 0.40324 0.99025 0.0
C2794 C 0.04122 0.39014 0.96644 0.0
C2795 C 0.01214 0.38021 0.977 0.0
C2796 C 0.99592 0.36491 0.97959 0.0
C2797 C 0.04239 0.40953 0.9731 0.0
C2798 C 0.02815 0.41414 0.98163 0.0
C2799 C 0.01328 0.39952 0.98357 0.0
C2800 C 0.02826 0.43413 0.98846 0.0
C2801 C 0.05843 0.42498 0.97033 0.0
C2802 C 0.04104 0.44537 0.00327 0.0
C2803 C 0.04143 0.46447 0.00939 0.0
C2804 C 0.02887 0.47242 0.00095 0.0
C2805 C 0.01555 0.46091 0.98666 0.0
C2806 C 0.01529 0.44182 0.9804 0.0
H2807 H 0.06666 0.41918 0.96062 0.0
H2808 H 0.05411 0.4367 0.96487 0.0
H2809 H 0.06701 0.43137 0.98389 0.0
H2810 H 0.05082 0.43944 0.00994 0.0
H2811 H 0.05173 0.4731 0.02055 0.0
H2812 H 0.02531 0.77269 0.14051 0.0
H2813 H 0.99725 0.76077 0.15292 0.0
H2814 H 0.98987 0.81785 0.16052 0.0
H2815 H 0.01764 0.8298 0.14806 0.0
H2816 H 0.98697 0.77314 0.18814 0.0
H2817 H 0.94218 0.78385 0.13007 0.0
H2818 H 0.96472 0.78241 0.12801 0.0
H2819 H 0.96084 0.80456 0.13883 0.0
C2820 C 0.01774 0.78272 0.14489 0.0
C2821 C 0.02373 0.80222 0.14321 0.0
C2822 C 1.00168 0.77586 0.15193 0.0
C2823 C 0.99128 0.78834 0.15732 0.0
C2824 C 0.99745 0.80785 0.15605 0.0
H2825 H 0.90754 0.80524 0.21439 0.0
H2826 H 0.9324 0.80447 0.19686 0.0
C2827 C 0.01342 0.81469 0.14901 0.0
C2828 C 0.97414 0.78135 0.16467 0.0
H2829 H 0.93023 0.78156 0.15877 0.0
C2830 C 0.97446 0.77457 0.18154 0.0
C2831 C 0.95776 0.78293 0.15593 0.0
C2832 C 0.95624 0.78863 0.1371 0.0
C2833 C 0.95914 0.77076 0.19055 0.0
C2834 C 0.94315 0.7738 0.18245 0.0
C2835 C 0.94256 0.77942 0.16505 0.0
C2836 C 0.92766 0.77355 0.19276 0.0
C2837 C 0.96035 0.76457 0.20916 0.0
C2838 C 0.91661 0.75633 0.19617 0.0
C2839 C 0.90217 0.75668 0.20612 0.0
C2840 C 0.89853 0.77426 0.21276 0.0
C2841 C 0.90966 0.7914 0.20919 0.0
C2842 C 0.92399 0.79102 0.19927 0.0
H2843 H 0.97406 0.764 0.21412 0.0
H2844 H 0.95625 0.77467 0.21966 0.0
H2845 H 0.95101 0.75005 0.2081 0.0
H2846 H 0.91913 0.74266 0.19109 0.0
H2847 H 0.89379 0.74321 0.2085 0.0
H2848 H 0.47554 0.30819 0.10897 0.0
H2849 H 0.49048 0.33563 0.09549 0.0
H2850 H 0.53962 0.31892 0.10087 0.0
H2851 H 0.5249 0.29146 0.11428 0.0
H2852 H 0.52445 0.36531 0.11506 0.0
H2853 H 0.52939 0.3264 0.04504 0.0
H2854 H 0.513 0.31609 0.05907 0.0
H2855 H 0.53612 0.31744 0.0653 0.0
C2856 C 0.48946 0.31024 0.10712 0.0
C2857 C 0.49902 0.29769 0.11269 0.0
C2858 C 0.49796 0.3259 0.09949 0.0
C2859 C 0.51605 0.3291 0.09722 0.0
C2860 C 0.52559 0.31649 0.10244 0.0
H2861 H 0.57246 0.42488 0.04661 0.0
H2862 H 0.56894 0.39826 0.06398 0.0
C2863 C 0.51713 0.30086 0.11011 0.0
C2864 C 0.52504 0.34607 0.08993 0.0
H2865 H 0.53917 0.36024 0.05058 0.0
C2866 C 0.52793 0.36425 0.10107 0.0
C2867 C 0.52975 0.34444 0.0718 0.0
C2868 C 0.52689 0.32508 0.05948 0.0
C2869 C 0.53466 0.38103 0.09414 0.0
C2870 C 0.53828 0.3794 0.07562 0.0
C2871 C 0.53639 0.36126 0.06483 0.0
C2872 C 0.54111 0.39604 0.06634 0.0
C2873 C 0.53725 0.40041 0.10632 0.0
C2874 C 0.52656 0.40325 0.06201 0.0
C2875 C 0.52842 0.41811 0.05202 0.0
C2876 C 0.54491 0.42604 0.04625 0.0
C2877 C 0.55959 0.41893 0.05084 0.0
C2878 C 0.55765 0.40388 0.06078 0.0
H2879 H 0.53776 0.39936 0.12127 0.0
H2880 H 0.54976 0.41075 0.10428 0.0
H2881 H 0.5259 0.40627 0.10244 0.0
H2882 H 0.51362 0.39701 0.06598 0.0
H2883 H 0.51676 0.42295 0.0483 0.0
H2884 H 0.03194 0.27885 0.35921 0.0
H2885 H 0.00428 0.27866 0.34063 0.0
H2886 H 0.03168 0.33047 0.32254 0.0
H2887 H 0.05954 0.33065 0.34091 0.0
H2888 H 0.99203 0.31285 0.35077 0.0
H2889 H 0.99819 0.2957 0.27551 0.0
H2890 H 0.01153 0.28868 0.29324 0.0
H2891 H 0.01651 0.31337 0.29042 0.0
C2892 C 0.03222 0.28975 0.35066 0.0
C2893 C 0.0477 0.30488 0.35154 0.0
C2894 C 0.01646 0.28967 0.3402 0.0
C2895 C 0.01613 0.30462 0.33048 0.0
C2896 C 0.0319 0.31875 0.3299 0.0
H2897 H 0.92502 0.33555 0.28173 0.0
H2898 H 0.95534 0.33382 0.29127 0.0
C2899 C 0.04776 0.31877 0.34029 0.0
C2900 C 0.99887 0.30674 0.32316 0.0
H2901 H 0.9717 0.30311 0.28308 0.0
C2902 C 0.98751 0.31073 0.33598 0.0
C2903 C 0.99343 0.30432 0.30394 0.0
C2904 C 0.00547 0.30018 0.2899 0.0
C2905 C 0.97043 0.31191 0.32993 0.0
C2906 C 0.96468 0.30861 0.31064 0.0
C2907 C 0.97626 0.30531 0.29785 0.0
C2908 C 0.94659 0.30848 0.30348 0.0
C2909 C 0.95873 0.31675 0.34413 0.0
C2910 C 0.93193 0.2943 0.30667 0.0
C2911 C 0.91468 0.29517 0.30118 0.0
C2912 C 0.91206 0.31019 0.29239 0.0
C2913 C 0.92679 0.32374 0.28833 0.0
C2914 C 0.94403 0.32287 0.29386 0.0
H2915 H 0.96663 0.32329 0.35804 0.0
H2916 H 0.95138 0.32687 0.33971 0.0
H2917 H 0.94872 0.30337 0.34549 0.0
H2918 H 0.93386 0.28289 0.31381 0.0
H2919 H 0.90341 0.28448 0.30423 0.0
H2920 H 0.02011 0.71538 0.62283 0.0
H2921 H 0.02972 0.69033 0.60388 0.0
H2922 H 0.97632 0.66757 0.57374 0.0
H2923 H 0.96642 0.69243 0.5933 0.0
H2924 H 1.00151 0.64513 0.60035 0.0
H2925 H 0.02478 0.67723 0.5398 0.0
H2926 H 0.02663 0.69193 0.56242 0.0
H2927 H 0.00509 0.68148 0.54877 0.0
C2928 C 0.01064 0.70543 0.61166 0.0
C2929 C 0.9927 0.70568 0.60903 0.0
C2930 C 0.01608 0.69117 0.60109 0.0
C2931 C 0.00362 0.67744 0.58768 0.0
C2932 C 0.98593 0.67834 0.58416 0.0
H2933 H 0.99776 0.58073 0.51073 0.0
H2934 H 0.99301 0.60586 0.53401 0.0
C2935 C 0.98036 0.69246 0.59505 0.0
C2936 C 0.00879 0.66111 0.57859 0.0
H2937 H 0.02483 0.64496 0.53984 0.0
C2938 C 0.00672 0.64499 0.58717 0.0
C2939 C 0.01579 0.66155 0.56172 0.0
C2940 C 0.01831 0.67896 0.55254 0.0
C2941 C 0.01091 0.6286 0.57862 0.0
C2942 C 0.01726 0.62879 0.56138 0.0
C2943 C 0.01999 0.64521 0.55321 0.0
C2944 C 0.01902 0.61144 0.55024 0.0
C2945 C 0.00801 0.611 0.58753 0.0
C2946 C 0.0351 0.60638 0.55225 0.0
C2947 C 0.03791 0.59215 0.53892 0.0
C2948 C 0.02463 0.58322 0.52366 0.0
C2949 C 0.00821 0.58769 0.52232 0.0
C2950 C 0.00542 0.6018 0.53561 0.0
H2951 H 0.00309 0.61334 0.60116 0.0
H2952 H 0.99815 0.59869 0.57815 0.0
H2953 H 0.02076 0.60697 0.58959 0.0
H2954 H 0.04569 0.61404 0.56352 0.0
H2955 H 0.05063 0.58871 0.54014 0.0
H2956 H 0.6524 0.82495 0.87463 0.0
H2957 H 0.67313 0.81492 0.85495 0.0
H2958 H 0.6435 0.8258 0.80704 0.0
H2959 H 0.62296 0.83631 0.8267 0.0
H2960 H 0.66159 0.78371 0.82563 0.0
H2961 H 0.69557 0.85072 0.8019 0.0
H2962 H 0.68328 0.85093 0.8215 0.0
H2963 H 0.67156 0.84467 0.79819 0.0
C2964 C 0.65057 0.82562 0.85998 0.0
C2965 C 0.63616 0.83141 0.85212 0.0
C2966 C 0.66235 0.81987 0.8488 0.0
C2967 C 0.65979 0.81977 0.82967 0.0
C2968 C 0.6458 0.82617 0.82188 0.0
H2969 H 0.72116 0.78591 0.74471 0.0
H2970 H 0.69584 0.7928 0.75933 0.0
C2971 C 0.63412 0.83215 0.8331 0.0
C2972 C 0.67083 0.8114 0.81769 0.0
H2973 H 0.70107 0.82187 0.78785 0.0
C2974 C 0.67022 0.792 0.81731 0.0
C2975 C 0.68184 0.82231 0.80683 0.0
C2976 C 0.68327 0.84336 0.80719 0.0
C2977 C 0.68056 0.78315 0.80637 0.0
C2978 C 0.69185 0.79416 0.79577 0.0
C2979 C 0.69217 0.81346 0.79585 0.0
C2980 C 0.70481 0.78668 0.78599 0.0
C2981 C 0.67933 0.76218 0.80634 0.0
C2982 C 0.71781 0.78067 0.79614 0.0
C2983 C 0.73174 0.77625 0.78771 0.0
C2984 C 0.73306 0.7784 0.76929 0.0
C2985 C 0.71999 0.78399 0.75891 0.0
C2986 C 0.70571 0.78794 0.76722 0.0
H2987 H 0.6661 0.75442 0.80957 0.0
H2988 H 0.68153 0.75484 0.79273 0.0
H2989 H 0.68969 0.7611 0.81726 0.0
H2990 H 0.71771 0.78036 0.81082 0.0
H2991 H 0.74212 0.77236 0.79591 0.0
H2992 H 0.46586 0.58905 0.7041 0.0
H2993 H 0.47996 0.58913 0.67521 0.0
H2994 H 0.46957 0.52751 0.66738 0.0
H2995 H 0.45582 0.5274 0.69579 0.0
H2996 H 0.51053 0.57527 0.66385 0.0
H2997 H 0.4495 0.53339 0.61588 0.0
H2998 H 0.44861 0.54513 0.63911 0.0
H2999 H 0.45424 0.52257 0.63542 0.0
C3000 C 0.46617 0.57546 0.69604 0.0
C3001 C 0.45905 0.55815 0.70252 0.0
C3002 C 0.47453 0.5755 0.67943 0.0
C3003 C 0.47587 0.55824 0.66837 0.0
C3004 C 0.46867 0.54111 0.67492 0.0
H3005 H 0.5132 0.5205 0.5599 0.0
H3006 H 0.4988 0.52299 0.58834 0.0
C3007 C 0.46065 0.5411 0.69146 0.0
C3008 C 0.48472 0.55769 0.6503 0.0
H3009 H 0.4768 0.53743 0.60353 0.0
C3010 C 0.50301 0.56714 0.65066 0.0
C3011 C 0.47548 0.54682 0.63272 0.0
C3012 C 0.45584 0.53651 0.6306 0.0
C3013 C 0.5121 0.5657 0.63462 0.0
C3014 C 0.50274 0.55504 0.61686 0.0
C3015 C 0.48443 0.54566 0.61661 0.0
C3016 C 0.51144 0.55344 0.59859 0.0
C3017 C 0.53201 0.57498 0.6374 0.0
C3018 C 0.52323 0.56952 0.59361 0.0
C3019 C 0.53169 0.56795 0.57735 0.0
C3020 C 0.52833 0.55044 0.56451 0.0
C3021 C 0.51597 0.53442 0.56889 0.0
C3022 C 0.50776 0.53589 0.58551 0.0
H3023 H 0.53803 0.57611 0.65199 0.0
H3024 H 0.53893 0.56674 0.62809 0.0
H3025 H 0.53454 0.58985 0.63452 0.0
H3026 H 0.52607 0.58356 0.60233 0.0
H3027 H 0.54116 0.58069 0.57487 0.0
H3028 H 0.74528 0.16731 0.98607 0.0
H3029 H 0.73489 0.17884 0.95903 0.0
H3030 H 0.78773 0.18956 0.94282 0.0
H3031 H 0.79854 0.17817 0.9704 0.0
H3032 H 0.75676 0.21985 0.95457 0.0
H3033 H 0.7458 0.15834 0.89543 0.0
H3034 H 0.74358 0.15474 0.91899 0.0
H3035 H 0.76534 0.16371 0.91263 0.0
C3036 C 0.75478 0.17221 0.97686 0.0
C3037 C 0.77285 0.17248 0.98048 0.0
C3038 C 0.74871 0.17847 0.96134 0.0
C3039 C 0.7606 0.18483 0.94923 0.0
C3040 C 0.77849 0.18441 0.95221 0.0
H3041 H 0.77813 0.2538 0.87422 0.0
H3042 H 0.77527 0.23589 0.89961 0.0
C3043 C 0.78462 0.17808 0.96786 0.0
C3044 C 0.75468 0.19407 0.93475 0.0
H3045 H 0.74332 0.1881 0.88813 0.0
C3046 C 0.75351 0.21289 0.94005 0.0
C3047 C 0.7503 0.18457 0.91611 0.0
C3048 C 0.75121 0.16417 0.91031 0.0
C3049 C 0.74902 0.22307 0.92669 0.0
C3050 C 0.74559 0.21394 0.9079 0.0
C3051 C 0.74569 0.19472 0.90273 0.0
C3052 C 0.74642 0.22531 0.89343 0.0
C3053 C 0.74914 0.24383 0.93251 0.0
C3054 C 0.73101 0.22488 0.88179 0.0
C3055 C 0.73261 0.23511 0.86726 0.0
C3056 C 0.74964 0.24527 0.86435 0.0
C3057 C 0.76494 0.24568 0.87617 0.0
C3058 C 0.76333 0.23571 0.89066 0.0
H3059 H 0.74834 0.24744 0.94759 0.0
H3060 H 0.76175 0.25331 0.92959 0.0
H3061 H 0.7378 0.24697 0.92443 0.0
H3062 H 0.71795 0.21663 0.88392 0.0
H3063 H 0.72075 0.23492 0.85821 0.0
H3064 H 0.12406 0.56949 0.2003 0.0
H3065 H 0.12128 0.56774 0.16687 0.0
H3066 H 0.11745 0.50703 0.15899 0.0
H3067 H 0.12146 0.50887 0.19277 0.0
H3068 H 0.13299 0.54167 0.12907 0.0
H3069 H 0.06536 0.52508 0.15205 0.0
H3070 H 0.08473 0.54041 0.1674 0.0
H3071 H 0.08213 0.51498 0.16184 0.0
C3072 C 0.1236 0.55596 0.19155 0.0
C3073 C 0.12273 0.53919 0.19903 0.0
C3074 C 0.12222 0.55507 0.17246 0.0
C3075 C 0.1191 0.53727 0.16068 0.0
C3076 C 0.12011 0.52092 0.16805 0.0
H3077 H 0.04156 0.50128 0.0627 0.0
H3078 H 0.06373 0.50136 0.08864 0.0
C3079 C 0.12215 0.52194 0.18726 0.0
C3080 C 0.10925 0.53478 0.14217 0.0
H3081 H 0.06664 0.52578 0.12075 0.0
C3082 C 0.11849 0.53796 0.12705 0.0
C3083 C 0.09039 0.53039 0.13998 0.0
C3084 C 0.07996 0.52756 0.15612 0.0
C3085 C 0.10912 0.53655 0.10941 0.0
C3086 C 0.09022 0.53192 0.10724 0.0
C3087 C 0.08112 0.52893 0.12249 0.0
C3088 C 0.07925 0.53077 0.08956 0.0
C3089 C 0.11943 0.53999 0.09335 0.0
C3090 C 0.08087 0.54721 0.08154 0.0
C3091 C 0.06837 0.54707 0.0667 0.0
C3092 C 0.05393 0.53068 0.06014 0.0
C3093 C 0.05251 0.51411 0.06783 0.0
C3094 C 0.06522 0.51411 0.08242 0.0
H3095 H 0.13306 0.53808 0.09608 0.0
H3096 H 0.11229 0.53012 0.08031 0.0
H3097 H 0.1209 0.55502 0.09126 0.0
H3098 H 0.09126 0.56037 0.08725 0.0
H3099 H 0.06961 0.56001 0.06082 0.0
H3100 H 0.78891 0.87524 0.46763 0.0
H3101 H 0.78831 0.86524 0.43416 0.0
H3102 H 0.78182 0.8065 0.44139 0.0
H3103 H 0.78287 0.81645 0.47498 0.0
H3104 H 0.81641 0.84354 0.42316 0.0
H3105 H 0.74556 0.80724 0.39259 0.0
H3106 H 0.75159 0.82586 0.41318 0.0
H3107 H 0.75349 0.80215 0.41461 0.0
C3108 C 0.78674 0.86009 0.46202 0.0
C3109 C 0.78597 0.8466 0.47387 0.0
C3110 C 0.7865 0.85444 0.44293 0.0
C3111 C 0.785 0.83517 0.43542 0.0
C3112 C 0.78285 0.82142 0.447 0.0
H3113 H 0.79234 0.7719 0.32845 0.0
H3114 H 0.79032 0.78202 0.36146 0.0
C3115 C 0.78345 0.82711 0.46613 0.0
C3116 C 0.78816 0.82985 0.41611 0.0
H3117 H 0.7677 0.80496 0.37319 0.0
C3118 C 0.80579 0.83522 0.41215 0.0
C3119 C 0.77423 0.8189 0.40198 0.0
C3120 C 0.75509 0.81322 0.40564 0.0
C3121 C 0.80993 0.8296 0.39437 0.0
C3122 C 0.79601 0.81857 0.38021 0.0
C3123 C 0.77834 0.81333 0.38416 0.0
C3124 C 0.79937 0.81254 0.36107 0.0
C3125 C 0.8292 0.83506 0.391 0.0
C3126 C 0.80543 0.82637 0.35012 0.0
C3127 C 0.80674 0.82059 0.33141 0.0
C3128 C 0.80198 0.80095 0.32351 0.0
C3129 C 0.79642 0.78711 0.33452 0.0
C3130 C 0.79514 0.79287 0.35323 0.0
H3131 H 0.8386 0.83968 0.40422 0.0
H3132 H 0.83241 0.82279 0.38243 0.0
H3133 H 0.83143 0.84722 0.38332 0.0
H3134 H 0.80839 0.8416 0.35582 0.0
H3135 H 0.81062 0.83143 0.32291 0.0
H3136 H 0.43679 0.55636 0.8195 0.0
H3137 H 0.44887 0.55314 0.85074 0.0
H3138 H 0.50243 0.57107 0.83746 0.0
H3139 H 0.4904 0.57378 0.80621 0.0
H3140 H 0.47119 0.52775 0.85829 0.0
H3141 H 0.50674 0.60341 0.89043 0.0
H3142 H 0.48932 0.59732 0.87072 0.0
H3143 H 0.51135 0.59535 0.86751 0.0
C3144 C 0.45116 0.5603 0.82343 0.0
C3145 C 0.46254 0.5659 0.81025 0.0
C3146 C 0.45812 0.5582 0.84133 0.0
C3147 C 0.47672 0.562 0.84689 0.0
C3148 C 0.48809 0.5683 0.83397 0.0
H3149 H 0.54564 0.55674 0.94827 0.0
H3150 H 0.53349 0.56166 0.91785 0.0
C3151 C 0.48114 0.56998 0.81599 0.0
C3152 C 0.48418 0.55809 0.86544 0.0
H3153 H 0.51159 0.57942 0.90676 0.0
C3154 C 0.47992 0.53912 0.86892 0.0
C3155 C 0.49594 0.57266 0.87944 0.0
C3156 C 0.50107 0.59338 0.87701 0.0
C3157 C 0.48714 0.53434 0.88549 0.0
C3158 C 0.49859 0.54899 0.89975 0.0
C3159 C 0.50287 0.56798 0.8962 0.0
C3160 C 0.50626 0.54508 0.9183 0.0
C3161 C 0.48294 0.51335 0.887 0.0
C3162 C 0.49537 0.53408 0.92928 0.0
C3163 C 0.50252 0.53084 0.94657 0.0
C3164 C 0.52072 0.53897 0.95386 0.0
C3165 C 0.53159 0.55018 0.94313 0.0
C3166 C 0.52455 0.55306 0.92564 0.0
H3167 H 0.47945 0.50388 0.87307 0.0
H3168 H 0.49442 0.51006 0.89466 0.0
H3169 H 0.47121 0.50971 0.89451 0.0
H3170 H 0.48116 0.52826 0.92472 0.0
H3171 H 0.49363 0.5224 0.95453 0.0
H3172 H 0.80611 0.20286 0.07109 0.0
H3173 H 0.80977 0.22127 0.10289 0.0
H3174 H 0.75684 0.18895 0.10945 0.0
H3175 H 0.75308 0.17078 0.07779 0.0
H3176 H 0.77702 0.24032 0.11301 0.0
H3177 H 0.79705 0.19123 0.15685 0.0
H3178 H 0.80223 0.19081 0.13336 0.0
H3179 H 0.77958 0.18167 0.13729 0.0
C3180 C 0.79556 0.19947 0.07961 0.0
C3181 C 0.77938 0.18565 0.0724 0.0
C3182 C 0.79757 0.20996 0.09752 0.0
C3183 C 0.7835 0.20629 0.10812 0.0
C3184 C 0.76773 0.19177 0.10125 0.0
H3185 H 0.78159 0.25071 0.22153 0.0
H3186 H 0.77342 0.23261 0.19017 0.0
C3187 C 0.76565 0.18148 0.08336 0.0
C3188 C 0.78472 0.21855 0.12594 0.0
H3189 H 0.79453 0.22083 0.1722 0.0
C3190 C 0.78082 0.23623 0.12607 0.0
C3191 C 0.7891 0.21256 0.14259 0.0
C3192 C 0.79227 0.19303 0.14269 0.0
C3193 C 0.78131 0.24839 0.14283 0.0
C3194 C 0.78672 0.24294 0.15962 0.0
C3195 C 0.79044 0.22504 0.15931 0.0
C3196 C 0.7888 0.25543 0.17779 0.0
C3197 C 0.77556 0.26655 0.14231 0.0
C3198 C 0.79958 0.27454 0.18117 0.0
C3199 C 0.80293 0.28553 0.19902 0.0
C3200 C 0.7963 0.27712 0.21371 0.0
C3201 C 0.7859 0.25792 0.21032 0.0
C3202 C 0.78161 0.2474 0.19242 0.0
H3203 H 0.76594 0.26496 0.12964 0.0
H3204 H 0.76921 0.27044 0.15469 0.0
H3205 H 0.78744 0.27856 0.14189 0.0
H3206 H 0.8059 0.28075 0.17022 0.0
H3207 H 0.8114 0.30019 0.20148 0.0
H3208 H 0.14252 0.52985 0.28553 0.0
H3209 H 0.12987 0.53256 0.31463 0.0
H3210 H 0.15909 0.59272 0.32879 0.0
H3211 H 0.17096 0.59029 0.29913 0.0
H3212 H 0.13991 0.54631 0.35312 0.0
H3213 H 0.10567 0.59162 0.31763 0.0
H3214 H 0.11776 0.57645 0.30587 0.0
H3215 H 0.12958 0.59978 0.31926 0.0
C3216 C 0.147 0.54336 0.29536 0.0
C3217 C 0.15756 0.55994 0.29032 0.0
C3218 C 0.13963 0.54492 0.31182 0.0
C3219 C 0.14324 0.56295 0.32336 0.0
C3220 C 0.15598 0.57881 0.31968 0.0
H3221 H 0.10889 0.59835 0.42679 0.0
H3222 H 0.12569 0.59495 0.40033 0.0
C3223 C 0.16294 0.57739 0.30298 0.0
C3224 C 0.13176 0.566 0.33743 0.0
H3225 H 0.103 0.59235 0.34971 0.0
C3226 C 0.13187 0.55639 0.35247 0.0
C3227 C 0.12055 0.57832 0.3358 0.0
C3228 C 0.11816 0.58695 0.31865 0.0
C3229 C 0.12187 0.55989 0.36673 0.0
C3230 C 0.11222 0.57374 0.36599 0.0
C3231 C 0.11119 0.58241 0.35042 0.0
C3232 C 0.10225 0.57855 0.38089 0.0
C3233 C 0.12135 0.54862 0.38232 0.0
C3234 C 0.08368 0.57125 0.37807 0.0
C3235 C 0.07419 0.57352 0.39282 0.0
C3236 C 0.08322 0.58303 0.41053 0.0
C3237 C 0.10176 0.5913 0.41312 0.0
C3238 C 0.11127 0.58919 0.39819 0.0
H3239 H 0.12806 0.53693 0.37973 0.0
H3240 H 0.12809 0.55844 0.39552 0.0
H3241 H 0.10725 0.54216 0.38414 0.0
H3242 H 0.07667 0.56293 0.36474 0.0
H3243 H 0.05994 0.56654 0.3907 0.0
H3244 H 0.76674 0.85345 0.57281 0.0
H3245 H 0.7604 0.83937 0.60076 0.0
H3246 H 0.81553 0.83901 0.61168 0.0
H3247 H 0.82187 0.85271 0.58402 0.0
H3248 H 0.77081 0.80164 0.60987 0.0
H3249 H 0.80157 0.86988 0.66043 0.0
H3250 H 0.79284 0.86957 0.63668 0.0
H3251 H 0.8138 0.86423 0.64175 0.0
C3252 C 0.7775 0.85056 0.58132 0.0
C3253 C 0.79483 0.85434 0.57627 0.0
C3254 C 0.77384 0.84236 0.59715 0.0
C3255 C 0.78753 0.8382 0.60829 0.0
C3256 C 0.80479 0.84214 0.60332 0.0
H3257 H 0.80549 0.80408 0.71447 0.0
H3258 H 0.8074 0.81652 0.68544 0.0
C3259 C 0.80838 0.85003 0.5875 0.0
C3260 C 0.78418 0.82999 0.62534 0.0
H3261 H 0.79386 0.84136 0.67265 0.0
C3262 C 0.77562 0.8103 0.62364 0.0
C3263 C 0.79081 0.84126 0.64322 0.0
C3264 C 0.8002 0.86245 0.64578 0.0
C3265 C 0.77391 0.80148 0.6394 0.0
C3266 C 0.78047 0.81283 0.6574 0.0
C3267 C 0.78881 0.83259 0.65897 0.0
C3268 C 0.77921 0.80464 0.67482 0.0
C3269 C 0.76582 0.77997 0.63645 0.0
C3270 C 0.76273 0.79399 0.6788 0.0
C3271 C 0.76169 0.78661 0.6953 0.0
C3272 C 0.77703 0.79011 0.7084 0.0
C3273 C 0.79343 0.80116 0.70467 0.0
C3274 C 0.79452 0.80826 0.68804 0.0
H3275 H 0.76671 0.77281 0.62223 0.0
H3276 H 0.77256 0.77345 0.64669 0.0
H3277 H 0.75144 0.77695 0.6381 0.0
H3278 H 0.75059 0.79152 0.66925 0.0
H3279 H 0.74884 0.77825 0.69786 0.0
H3280 H 0.74742 0.42027 0.52783 0.0
H3281 H 0.72439 0.43611 0.53606 0.0
H3282 H 0.75113 0.48542 0.51387 0.0
H3283 H 0.7741 0.46968 0.50538 0.0
H3284 H 0.72742 0.4734 0.55859 0.0
H3285 H 0.70005 0.46644 0.48444 0.0
H3286 H 0.71504 0.45297 0.49181 0.0
H3287 H 0.72364 0.47785 0.49013 0.0
C3288 C 0.74836 0.43447 0.52465 0.0
C3289 C 0.76237 0.44366 0.51568 0.0
C3290 C 0.73531 0.44351 0.5295 0.0
C3291 C 0.73608 0.46175 0.52535 0.0
C3292 C 0.7503 0.47119 0.51693 0.0
H3293 H 0.67063 0.53925 0.53238 0.0
H3294 H 0.69531 0.52415 0.53157 0.0
C3295 C 0.76335 0.46219 0.51208 0.0
C3296 C 0.72151 0.47053 0.52889 0.0
H3297 H 0.68849 0.48522 0.50677 0.0
C3298 C 0.7188 0.47593 0.54732 0.0
C3299 C 0.71034 0.4736 0.51405 0.0
C3300 C 0.71226 0.46727 0.49398 0.0
C3301 C 0.70536 0.48489 0.5513 0.0
C3302 C 0.69443 0.48821 0.53644 0.0
C3303 C 0.69701 0.48259 0.51806 0.0
C3304 C 0.68043 0.49797 0.53947 0.0
C3305 C 0.70308 0.49111 0.57124 0.0
C3306 C 0.66405 0.48811 0.54421 0.0
C3307 C 0.6499 0.49659 0.5444 0.0
C3308 C 0.6522 0.515 0.54002 0.0
C3309 C 0.66875 0.52505 0.53587 0.0
C3310 C 0.68277 0.51652 0.53547 0.0
H3311 H 0.71415 0.48977 0.58117 0.0
H3312 H 0.70242 0.5063 0.57366 0.0
H3313 H 0.69027 0.48203 0.57414 0.0
H3314 H 0.66205 0.47365 0.54707 0.0
H3315 H 0.63714 0.48872 0.54762 0.0
H3316 H 0.21387 0.15914 0.46838 0.0
H3317 H 0.18536 0.13714 0.47166 0.0
H3318 H 0.21106 0.12087 0.51876 0.0
H3319 H 0.23984 0.14277 0.51531 0.0
H3320 H 0.17542 0.09638 0.47189 0.0
H3321 H 0.16879 0.14032 0.5383 0.0
H3322 H 0.18415 0.14967 0.5229 0.0
H3323 H 0.18948 0.13379 0.53754 0.0
C3324 C 0.21354 0.15055 0.4792 0.0
C3325 C 0.22915 0.1525 0.49145 0.0
C3326 C 0.1972 0.13806 0.48112 0.0
C3327 C 0.19595 0.12752 0.4956 0.0
C3328 C 0.21163 0.129 0.50758 0.0
H3329 H 0.10619 0.04445 0.52576 0.0
H3330 H 0.1354 0.06679 0.52456 0.0
C3331 C 0.22812 0.1413 0.50545 0.0
C3332 C 0.17813 0.11528 0.49813 0.0
H3333 H 0.14615 0.11107 0.52728 0.0
C3334 C 0.16905 0.09959 0.48401 0.0
C3335 C 0.16968 0.11957 0.51386 0.0
C3336 C 0.17839 0.13683 0.52899 0.0
C3337 C 0.15195 0.08794 0.48532 0.0
C3338 C 0.14352 0.09217 0.50105 0.0
C3339 C 0.15259 0.10784 0.51521 0.0
C3340 C 0.12545 0.08012 0.50306 0.0
C3341 C 0.14303 0.07098 0.46996 0.0
C3342 C 0.11 0.08053 0.49174 0.0
C3343 C 0.09324 0.06809 0.49274 0.0
C3344 C 0.0917 0.05479 0.50483 0.0
C3345 C 0.10705 0.05465 0.5164 0.0
C3346 C 0.12372 0.06738 0.5157 0.0
H3347 H 0.1524 0.06779 0.46023 0.0
H3348 H 0.13754 0.05793 0.47585 0.0
H3349 H 0.13169 0.07414 0.46192 0.0
H3350 H 0.11098 0.09025 0.48189 0.0
H3351 H 0.08162 0.06831 0.48354 0.0
H3352 H 0.21645 0.97234 0.7895 0.0
H3353 H 0.22907 0.94516 0.78552 0.0
H3354 H 0.18413 0.9133 0.74443 0.0
H3355 H 0.17151 0.94126 0.74806 0.0
H3356 H 0.2233 0.9129 0.79289 0.0
H3357 H 0.21854 0.89506 0.71648 0.0
H3358 H 0.21392 0.91662 0.72788 0.0
H3359 H 0.19717 0.89376 0.72409 0.0
C3360 C 0.20904 0.95973 0.7794 0.0
C3361 C 0.19264 0.95976 0.76918 0.0
C3362 C 0.21646 0.94375 0.77714 0.0
C3363 C 0.20812 0.9264 0.76446 0.0
C3364 C 0.19162 0.92621 0.75407 0.0
H3365 H 0.23857 0.81273 0.74992 0.0
H3366 H 0.2226 0.83785 0.74897 0.0
C3367 C 0.18413 0.94245 0.75629 0.0
C3368 C 0.21663 0.90898 0.76319 0.0
H3369 H 0.22785 0.87334 0.73345 0.0
C3370 C 0.22425 0.90452 0.7797 0.0
C3371 C 0.21825 0.89718 0.74629 0.0
C3372 C 0.21171 0.90095 0.72766 0.0
C3373 C 0.23297 0.88946 0.7799 0.0
C3374 C 0.23468 0.8778 0.76311 0.0
C3375 C 0.22683 0.88188 0.74653 0.0
C3376 C 0.24482 0.86188 0.76275 0.0
C3377 C 0.24005 0.88591 0.79845 0.0
C3378 C 0.26304 0.86621 0.77047 0.0
C3379 C 0.27234 0.85174 0.77084 0.0
C3380 C 0.26399 0.83194 0.76369 0.0
C3381 C 0.24577 0.82755 0.75576 0.0
C3382 C 0.2365 0.84214 0.75514 0.0
H3383 H 0.23392 0.89235 0.80996 0.0
H3384 H 0.2375 0.87023 0.79843 0.0
H3385 H 0.25472 0.89255 0.80132 0.0
H3386 H 0.2703 0.88101 0.77624 0.0
H3387 H 0.28625 0.8562 0.77701 0.0
H3388 H 0.33936 0.95973 0.03662 0.0
H3389 H 0.36422 0.9869 0.03311 0.0
H3390 H 0.38792 0.94707 0.00189 0.0
H3391 H 0.36369 0.92024 0.00545 0.0
H3392 H 0.40051 0.98847 0.04609 0.0
H3393 H 0.39107 0.98957 0.97081 0.0
H3394 H 0.37282 0.97918 0.98281 0.0
H3395 H 0.38778 0.96543 0.97493 0.0
C3396 C 0.35001 0.95691 0.02915 0.0
C3397 C 0.34993 0.93797 0.02166 0.0
C3398 C 0.3639 0.97234 0.02691 0.0
C3399 C 0.37741 0.96882 0.0168 0.0
C3400 C 0.37723 0.94998 0.00927 0.0
H3401 H 0.48 0.99146 0.99413 0.0
H3402 H 0.44961 0.9796 0.00155 0.0
C3403 C 0.36365 0.93465 0.01175 0.0
C3404 C 0.3934 0.98405 0.01635 0.0
H3405 H 0.42206 0.99752 0.98586 0.0
C3406 C 0.40515 0.99122 0.03305 0.0
C3407 C 0.3992 0.98717 0.99921 0.0
C3408 C 0.38694 0.98003 0.98096 0.0
C3409 C 0.42327 0.99965 0.03282 0.0
C3410 C 0.42919 1.00131 0.01551 0.0
C3411 C 0.41719 0.99582 0.99903 0.0
C3412 C 0.44793 0.00795 0.01379 0.0
C3413 C 0.43617 0.00519 0.05068 0.0
C3414 C 0.45648 0.02763 0.0182 0.0
C3415 C 0.47351 0.03435 0.0138 0.0
C3416 C 0.48184 0.02137 0.00482 0.0
C3417 C 0.47333 1.00162 1.00049 0.0
C3418 C 0.45635 0.99488 0.00508 0.0
H3419 H 0.42941 1.00171 0.06286 0.0
H3420 H 0.44677 0.99757 0.04948 0.0
H3421 H 0.44282 0.02089 0.05325 0.0
H3422 H 0.44983 0.03776 0.02464 0.0
H3423 H 0.48026 0.04962 0.01753 0.0
H3424 H 0.91279 0.59163 0.78713 0.0
H3425 H 0.89358 0.61221 0.78006 0.0
H3426 H 0.86296 0.56751 0.73468 0.0
H3427 H 0.88156 0.54655 0.74249 0.0
H3428 H 0.89137 0.62387 0.74657 0.0
H3429 H 0.82372 0.58427 0.75909 0.0
H3430 H 0.84391 0.57941 0.76874 0.0
H3431 H 0.83507 0.57055 0.74462 0.0
C3432 C 0.90183 0.58627 0.77579 0.0
C3433 C 0.89859 0.56787 0.7651 0.0
C3434 C 0.89086 0.59786 0.77186 0.0
C3435 C 0.87682 0.59118 0.75701 0.0
C3436 C 0.87346 0.57263 0.74648 0.0
H3437 H 0.8038 0.65203 0.71651 0.0
H3438 H 0.82105 0.62865 0.71776 0.0
C3439 C 0.88416 0.56086 0.75075 0.0
C3440 C 0.86706 0.60448 0.7514 0.0
H3441 H 0.82597 0.61246 0.74667 0.0
C3442 C 0.87706 0.62141 0.74655 0.0
C3443 C 0.84838 0.60085 0.75105 0.0
C3444 C 0.83711 0.58286 0.75627 0.0
C3445 C 0.86891 0.63521 0.74174 0.0
C3446 C 0.85036 0.63203 0.74219 0.0
C3447 C 0.84022 0.61476 0.74638 0.0
C3448 C 0.84138 0.64696 0.73972 0.0
C3449 C 0.88029 0.65298 0.73625 0.0
C3450 C 0.84736 0.66499 0.7515 0.0
C3451 C 0.83788 0.67859 0.75043 0.0
C3452 C 0.82197 0.67408 0.73799 0.0
C3453 C 0.81618 0.65607 0.726 0.0
C3454 C 0.82589 0.64263 0.72681 0.0
H3455 H 0.89199 0.64998 0.73012 0.0
H3456 H 0.8725 0.65859 0.72606 0.0
H3457 H 0.88551 0.66436 0.74882 0.0
H3458 H 0.85905 0.66835 0.7619 0.0
H3459 H 0.84279 0.69244 0.75966 0.0
H3460 H 0.84209 0.65696 0.97 0.0
H3461 H 0.8658 0.64302 0.98037 0.0
H3462 H 0.85072 0.64795 0.03546 0.0
H3463 H 0.82659 0.66146 0.02504 0.0
H3464 H 0.89483 0.65906 0.00769 0.0
H3465 H 0.85215 0.59231 0.02528 0.0
H3466 H 0.84298 0.60723 0.0119 0.0
H3467 H 0.84922 0.61469 0.03661 0.0
C3468 C 0.84368 0.65495 0.98429 0.0
C3469 C 0.8323 0.66021 0.99662 0.0
C3470 C 0.85731 0.64702 0.99023 0.0
C3471 C 0.85996 0.64421 0.00865 0.0
C3472 C 0.84872 0.64955 0.02108 0.0
H3473 H 0.94171 0.59044 0.05136 0.0
H3474 H 0.91932 0.60876 0.05129 0.0
C3475 C 0.83494 0.65734 0.01509 0.0
C3476 C 0.87472 0.63594 0.01463 0.0
H3477 H 0.88322 0.5962 0.02873 0.0
C3478 C 0.89228 0.64539 0.01244 0.0
C3479 C 0.87149 0.61827 0.02117 0.0
C3480 C 0.85295 0.60741 0.0238 0.0
C3481 C 0.90652 0.6373 0.01587 0.0
C3482 C 0.90308 0.6191 0.02126 0.0
C3483 C 0.88576 0.61011 0.02446 0.0
C3484 C 0.91689 0.60839 0.02169 0.0
C3485 C 0.92515 0.64812 0.01348 0.0
C3486 C 0.92282 0.60202 0.00507 0.0
C3487 C 0.93539 0.59141 0.00499 0.0
C3488 C 0.94244 0.58694 0.02158 0.0
C3489 C 0.93651 0.59345 0.03829 0.0
C3490 C 0.92377 0.604 0.03832 0.0
H3491 H 0.92637 0.66366 0.01372 0.0
H3492 H 0.93517 0.64673 0.0246 0.0
H3493 H 0.92839 0.64194 0.9999 0.0
H3494 H 0.91743 0.60496 0.99203 0.0
H3495 H 0.93921 0.58628 0.99179 0.0
H3496 H 0.17357 0.0731 0.74175 0.0
H3497 H 0.19155 0.10569 0.74122 0.0
H3498 H 0.22334 0.10573 0.79244 0.0
H3499 H 0.20558 0.07261 0.79256 0.0
H3500 H 0.19568 0.13869 0.76132 0.0
H3501 H 0.26366 0.12887 0.76745 0.0
H3502 H 0.24394 0.1087 0.76305 0.0
H3503 H 0.25222 0.12191 0.78637 0.0
C3504 C 0.18476 0.07976 0.75266 0.0
C3505 C 0.18829 0.06962 0.76688 0.0
C3506 C 0.19503 0.09872 0.75247 0.0
C3507 C 0.20933 0.10874 0.76661 0.0
C3508 C 0.21296 0.0986 0.78088 0.0
H3509 H 0.28526 0.22534 0.79178 0.0
H3510 H 0.26618 0.19319 0.79195 0.0
C3511 C 0.20274 0.0794 0.78095 0.0
C3512 C 0.21965 0.1298 0.76662 0.0
H3513 H 0.26185 0.16104 0.77138 0.0
C3514 C 0.21018 0.14342 0.76345 0.0
C3515 C 0.23868 0.13665 0.7693 0.0
C3516 C 0.25024 0.12325 0.77154 0.0
C3517 C 0.21887 0.16316 0.76341 0.0
C3518 C 0.23792 0.17005 0.7663 0.0
C3519 C 0.24735 0.15636 0.7693 0.0
C3520 C 0.24848 0.19116 0.76677 0.0
C3521 C 0.20731 0.1765 0.76085 0.0
C3522 C 0.24519 0.20187 0.75286 0.0
C3523 C 0.25605 0.2209 0.75307 0.0
C3524 C 0.27084 0.22988 0.76703 0.0
C3525 C 0.27391 0.21928 0.78095 0.0
C3526 C 0.26297 0.20055 0.78092 0.0
H3527 H 0.19377 0.17082 0.76465 0.0
H3528 H 0.21346 0.19105 0.76938 0.0
H3529 H 0.20561 0.17784 0.746 0.0
H3530 H 0.23465 0.19528 0.74132 0.0
H3531 H 0.25347 0.22811 0.74171 0.0
H3532 H 0.39854 0.99824 0.28291 0.0
H3533 H 0.37204 0.97252 0.28404 0.0
H3534 H 0.38475 0.93703 0.23749 0.0
H3535 H 0.41216 0.96265 0.237 0.0
H3536 H 0.34213 0.95246 0.25988 0.0
H3537 H 0.38454 0.90539 0.27816 0.0
H3538 H 0.39375 0.93062 0.27791 0.0
H3539 H 0.38784 0.91332 0.25652 0.0
C3540 C 0.39549 0.98507 0.27266 0.0
C3541 C 0.4072 0.98229 0.25976 0.0
C3542 C 0.38038 0.97044 0.27335 0.0
C3543 C 0.37661 0.95292 0.26098 0.0
C3544 C 0.38772 0.95044 0.24735 0.0
H3545 H 0.29903 0.84818 0.24091 0.0
H3546 H 0.3129 0.88191 0.24034 0.0
C3547 C 0.40321 0.96499 0.24697 0.0
C3548 C 0.36191 0.93684 0.26353 0.0
H3549 H 0.35327 0.89165 0.27337 0.0
C3550 C 0.34451 0.93914 0.26282 0.0
C3551 C 0.36528 0.91982 0.26799 0.0
C3552 C 0.38388 0.91716 0.2704 0.0
C3553 C 0.33021 0.92436 0.26576 0.0
C3554 C 0.33358 0.90717 0.26931 0.0
C3555 C 0.35096 0.90506 0.27057 0.0
C3556 C 0.31931 0.89022 0.27024 0.0
C3557 C 0.31163 0.92696 0.26504 0.0
C3558 C 0.31768 0.88426 0.28733 0.0
C3559 C 0.30999 0.86497 0.28772 0.0
C3560 C 0.30416 0.85162 0.27096 0.0
C3561 C 0.30396 0.85812 0.25398 0.0
C3562 C 0.31152 0.87741 0.25363 0.0
H3563 H 0.31148 0.94189 0.26377 0.0
H3564 H 0.30283 0.9168 0.25298 0.0
H3565 H 0.30596 0.92345 0.27779 0.0
H3566 H 0.32386 0.8941 0.30022 0.0
H3567 H 0.30997 0.86036 0.30104 0.0
H3568 H 0.5441 0.33941 0.57975 0.0
H3569 H 0.53662 0.36476 0.56475 0.0
H3570 H 0.59183 0.39848 0.5778 0.0
H3571 H 0.59946 0.3726 0.59137 0.0
H3572 H 0.53714 0.39961 0.57538 0.0
H3573 H 0.58544 0.4015 0.52514 0.0
H3574 H 0.58114 0.38307 0.53916 0.0
H3575 H 0.59702 0.40618 0.54827 0.0
C3576 C 0.55457 0.35229 0.57938 0.0
C3577 C 0.57235 0.35411 0.58662 0.0
C3578 C 0.55033 0.36673 0.57076 0.0
C3579 C 0.56376 0.38334 0.56955 0.0
C3580 C 0.58135 0.38549 0.57772 0.0
H3581 H 0.57499 0.49406 0.54148 0.0
H3582 H 0.57719 0.46464 0.552 0.0
C3583 C 0.58567 0.37084 0.58576 0.0
C3584 C 0.55939 0.39871 0.56033 0.0
H3585 H 0.57425 0.42929 0.53085 0.0
C3586 C 0.54509 0.40588 0.56543 0.0
C3587 C 0.56958 0.40682 0.54711 0.0
C3588 C 0.584 0.39881 0.53947 0.0
C3589 C 0.54135 0.42155 0.55849 0.0
C3590 C 0.55225 0.43031 0.54616 0.0
C3591 C 0.56609 0.42272 0.54053 0.0
C3592 C 0.55035 0.44807 0.53976 0.0
C3593 C 0.52623 0.42905 0.56498 0.0
C3594 C 0.53454 0.44847 0.52918 0.0
C3595 C 0.53317 0.46541 0.52317 0.0
C3596 C 0.54769 0.48212 0.52748 0.0
C3597 C 0.56354 0.4815 0.53786 0.0
C3598 C 0.56484 0.46467 0.54393 0.0
H3599 H 0.5216 0.4233 0.57734 0.0
H3600 H 0.53034 0.44503 0.56846 0.0
H3601 H 0.51474 0.42455 0.55365 0.0
H3602 H 0.52334 0.43569 0.52544 0.0
H3603 H 0.52079 0.46537 0.51514 0.0
H3604 H 0.4727 0.78342 0.36769 0.0
H3605 H 0.44824 0.79146 0.34975 0.0
H3606 H 0.40993 0.74533 0.36628 0.0
H3607 H 0.43411 0.73777 0.38464 0.0
H3608 H 0.42252 0.77282 0.32115 0.0
H3609 H 0.38902 0.78874 0.38223 0.0
H3610 H 0.41122 0.78547 0.38439 0.0
H3611 H 0.39184 0.76491 0.37935 0.0
C3612 C 0.45908 0.77479 0.36723 0.0
C3613 C 0.45541 0.75992 0.37761 0.0
C3614 C 0.44505 0.77951 0.35709 0.0
C3615 C 0.42705 0.76942 0.35705 0.0
C3616 C 0.42354 0.75386 0.36656 0.0
H3617 H 0.32105 0.76848 0.30507 0.0
H3618 H 0.34668 0.76401 0.32445 0.0
C3619 C 0.43746 0.74934 0.37686 0.0
C3620 C 0.4119 0.77491 0.34708 0.0
H3621 H 0.37195 0.78511 0.35256 0.0
C3622 C 0.41156 0.77569 0.32808 0.0
C3623 C 0.3975 0.77876 0.35602 0.0
C3624 C 0.39747 0.77964 0.37666 0.0
C3625 C 0.39705 0.7794 0.31769 0.0
C3626 C 0.38242 0.7828 0.32653 0.0
C3627 C 0.38294 0.78235 0.34562 0.0
C3628 C 0.36651 0.78675 0.31623 0.0
C3629 C 0.39734 0.77893 0.29713 0.0
C3630 C 0.36878 0.80158 0.30578 0.0
C3631 C 0.35419 0.80393 0.29457 0.0
C3632 C 0.33679 0.79208 0.29406 0.0
C3633 C 0.33422 0.77813 0.3055 0.0
C3634 C 0.34894 0.77546 0.31644 0.0
H3635 H 0.40648 0.77068 0.29162 0.0
H3636 H 0.38378 0.7724 0.28915 0.0
H3637 H 0.40226 0.79388 0.29466 0.0
H3638 H 0.38196 0.81102 0.3058 0.0
H3639 H 0.35661 0.81468 0.28576 0.0
H3640 H 0.04305 0.7461 0.08956 0.0
H3641 H 0.03564 0.71127 0.07784 0.0
H3642 H 0.07963 0.72022 0.04593 0.0
H3643 H 0.08708 0.75482 0.05731 0.0
H3644 H 0.03074 0.68873 0.03686 0.0
H3645 H 0.08788 0.68467 0.08591 0.0
H3646 H 0.07725 0.70398 0.08941 0.0
H3647 H 0.09266 0.70379 0.07278 0.0
C3648 C 0.05093 0.74068 0.07977 0.0
C3649 C 0.06572 0.75321 0.07445 0.0
C3650 C 0.04666 0.72083 0.07312 0.0
C3651 C 0.05723 0.71336 0.06122 0.0
C3652 C 0.07141 0.72585 0.05519 0.0
H3653 H 0.07429 0.60416 0.01771 0.0
H3654 H 0.076 0.63845 0.02731 0.0
C3655 C 0.0756 0.74561 0.06168 0.0
C3656 C 0.05449 0.69248 0.05605 0.0
H3657 H 0.07461 0.65722 0.0624 0.0
C3658 C 0.04017 0.6817 0.0425 0.0
C3659 C 0.06685 0.68356 0.06362 0.0
C3660 C 0.08197 0.6945 0.07885 0.0
C3661 C 0.03829 0.66217 0.0357 0.0
C3662 C 0.05105 0.65342 0.04285 0.0
C3663 C 0.06507 0.66414 0.05676 0.0
C3664 C 0.04987 0.63299 0.03646 0.0
C3665 C 0.02303 0.65127 0.02057 0.0
C3666 C 0.0348 0.61882 0.03873 0.0
C3667 C 0.0337 0.5995 0.03304 0.0
C3668 C 0.04787 0.59401 0.02538 0.0
C3669 C 0.06321 0.60814 0.02353 0.0
C3670 C 0.06416 0.6276 0.02895 0.0
H3671 H 0.01741 0.66116 0.01331 0.0
H3672 H 0.02741 0.64136 0.01014 0.0
H3673 H 0.01212 0.64252 0.02682 0.0
H3674 H 0.02394 0.62269 0.0451 0.0
H3675 H 0.02186 0.58884 0.03499 0.0
H3676 H 0.07176 0.31454 0.89364 0.0
H3677 H 0.09977 0.31737 0.88062 0.0
H3678 H 0.08415 0.25614 0.85993 0.0
H3679 H 0.05591 0.25315 0.87281 0.0
H3680 H 0.12776 0.30043 0.88698 0.0
H3681 H 0.0956 0.27883 0.81348 0.0
H3682 H 0.08393 0.28589 0.83225 0.0
H3683 H 0.08689 0.26205 0.82803 0.0
C3684 C 0.07417 0.30162 0.88624 0.0
C3685 C 0.06139 0.2836 0.88411 0.0
C3686 C 0.0903 0.30329 0.87889 0.0
C3687 C 0.09404 0.28703 0.86909 0.0
C3688 C 0.08146 0.26897 0.86716 0.0
H3689 H 0.17783 0.26148 0.81051 0.0
H3690 H 0.15251 0.26165 0.82751 0.0
C3691 C 0.0653 0.26726 0.87456 0.0
C3692 C 0.11091 0.28905 0.86062 0.0
H3693 H 0.12658 0.28127 0.81907 0.0
C3694 C 0.12753 0.29633 0.87213 0.0
C3695 C 0.11064 0.284 0.84121 0.0
C3696 C 0.09334 0.27744 0.82797 0.0
C3697 C 0.1438 0.29796 0.86478 0.0
C3698 C 0.14344 0.2923 0.84542 0.0
C3699 C 0.12685 0.28545 0.83393 0.0
C3700 C 0.15996 0.29254 0.83669 0.0
C3701 C 0.16123 0.30518 0.87779 0.0
C3702 C 0.17276 0.30989 0.83626 0.0
C3703 C 0.18739 0.30985 0.8265 0.0
C3704 C 0.18954 0.29245 0.81702 0.0
C3705 C 0.17685 0.27513 0.81786 0.0
C3706 C 0.16225 0.2752 0.8275 0.0
H3707 H 0.15915 0.30573 0.89259 0.0
H3708 H 0.17016 0.29582 0.8745 0.0
H3709 H 0.16816 0.31993 0.876 0.0
H3710 H 0.17117 0.3235 0.84303 0.0
H3711 H 0.19693 0.32345 0.82624 0.0
H3712 H 0.59701 0.7853 0.94535 0.0
H3713 H 0.58504 0.75413 0.95447 0.0
H3714 H 0.55586 0.73152 0.89926 0.0
H3715 H 0.56876 0.76221 0.88989 0.0
H3716 H 0.54966 0.74012 0.95453 0.0
H3717 H 0.57393 0.68691 0.90864 0.0
H3718 H 0.58361 0.71255 0.91122 0.0
H3719 H 0.5625 0.70106 0.89679 0.0
C3720 C 0.58876 0.7733 0.93503 0.0
C3721 C 0.58412 0.77569 0.9169 0.0
C3722 C 0.58178 0.75567 0.94022 0.0
C3723 C 0.56972 0.74054 0.92745 0.0
C3724 C 0.56555 0.74281 0.90912 0.0
H3725 H 0.51929 0.62812 0.95405 0.0
H3726 H 0.52254 0.65537 0.93738 0.0
C3727 C 0.57295 0.76026 0.90379 0.0
C3728 C 0.56016 0.72326 0.93395 0.0
H3729 H 0.55397 0.67481 0.9288 0.0
C3730 C 0.55053 0.72581 0.94885 0.0
C3731 C 0.56085 0.70461 0.92605 0.0
C3732 C 0.57087 0.70107 0.90987 0.0
C3733 C 0.54236 0.71028 0.95683 0.0
C3734 C 0.54415 0.69186 0.94983 0.0
C3735 C 0.55271 0.68905 0.93411 0.0
C3736 C 0.53981 0.67612 0.96028 0.0
C3737 C 0.53229 0.71384 0.97296 0.0
C3738 C 0.54836 0.67898 0.97854 0.0
C3739 C 0.54622 0.66373 0.98803 0.0
C3740 C 0.53582 0.64539 0.97922 0.0
C3741 C 0.52705 0.6424 0.96105 0.0
C3742 C 0.52897 0.65781 0.9516 0.0
H3743 H 0.5265 0.72615 0.97204 0.0
H3744 H 0.52134 0.70091 0.97355 0.0
H3745 H 0.54167 0.71761 0.98614 0.0
H3746 H 0.55735 0.69281 0.98519 0.0
H3747 H 0.55344 0.66601 0.00189 0.0
H3748 H 0.04945 0.7737 0.65975 0.0
H3749 H 0.08154 0.78124 0.6706 0.0
H3750 H 0.07002 0.75244 0.71689 0.0
H3751 H 0.03794 0.74438 0.70586 0.0
H3752 H 0.10216 0.80078 0.7069 0.0
H3753 H 0.10165 0.72399 0.68737 0.0
H3754 H 0.0844 0.73368 0.67779 0.0
H3755 H 0.08433 0.72787 0.70067 0.0
C3756 C 0.05381 0.76931 0.67244 0.0
C3757 C 0.04143 0.75845 0.68205 0.0
C3758 C 0.07203 0.77355 0.67851 0.0
C3759 C 0.0779 0.76713 0.6943 0.0
C3760 C 0.06554 0.7572 0.70448 0.0
H3761 H 0.16858 0.75742 0.75714 0.0
H3762 H 0.13984 0.76169 0.74557 0.0
C3763 C 0.04735 0.75269 0.69826 0.0
C3764 C 0.09696 0.76994 0.69983 0.0
H3765 H 0.12732 0.74485 0.70716 0.0
C3766 C 0.10782 0.78866 0.70682 0.0
C3767 C 0.1041 0.75399 0.69923 0.0
C3768 C 0.09309 0.73375 0.6907 0.0
C3769 C 0.12563 0.79174 0.71453 0.0
C3770 C 0.13239 0.77566 0.71501 0.0
C3771 C 0.12179 0.75706 0.70701 0.0
C3772 C 0.15017 0.77741 0.72448 0.0
C3773 C 0.13687 0.81193 0.72275 0.0
C3774 C 0.16541 0.78571 0.7169 0.0
C3775 C 0.1819 0.78355 0.72365 0.0
C3776 C 0.18308 0.77282 0.73781 0.0
C3777 C 0.16801 0.76585 0.7463 0.0
C3778 C 0.15161 0.76817 0.73966 0.0
H3779 H 0.12872 0.82239 0.72402 0.0
H3780 H 0.14399 0.81238 0.7367 0.0
H3781 H 0.14712 0.81656 0.71368 0.0
H3782 H 0.16438 0.79275 0.70506 0.0
H3783 H 0.19349 0.78927 0.71714 0.0
H3784 H 0.09705 0.39244 0.38924 0.0
H3785 H 0.08902 0.42055 0.40509 0.0
H3786 H 0.08835 0.39682 0.45546 0.0
H3787 H 0.0981 0.3702 0.44026 0.0
H3788 H 0.05786 0.41619 0.41659 0.0
H3789 H 0.10946 0.45087 0.47759 0.0
H3790 H 0.11335 0.4342 0.45871 0.0
H3791 H 0.10162 0.42554 0.47707 0.0
C3792 C 0.09657 0.39422 0.40407 0.0
C3793 C 0.0986 0.37972 0.41383 0.0
C3794 C 0.09159 0.40992 0.41297 0.0
C3795 C 0.08827 0.41079 0.43147 0.0
C3796 C 0.09154 0.39687 0.44145 0.0
H3797 H 0.03589 0.47228 0.50597 0.0
H3798 H 0.04217 0.4451 0.4862 0.0
C3799 C 0.09723 0.38173 0.43281 0.0
C3800 C 0.07925 0.42461 0.43975 0.0
H3801 H 0.08048 0.45593 0.47941 0.0
C3802 C 0.06293 0.42512 0.4302 0.0
C3803 C 0.08579 0.43592 0.45761 0.0
C3804 C 0.1036 0.43672 0.4682 0.0
C3805 C 0.0529 0.43671 0.43825 0.0
C3806 C 0.05937 0.44761 0.45619 0.0
C3807 C 0.07555 0.44708 0.46572 0.0
C3808 C 0.05075 0.4614 0.46488 0.0
C3809 C 0.03551 0.43726 0.42776 0.0
C3810 C 0.05345 0.47916 0.45909 0.0
C3811 C 0.05022 0.49457 0.47043 0.0
C3812 C 0.04411 0.49211 0.48737 0.0
C3813 C 0.0405 0.47413 0.49275 0.0
C3814 C 0.04384 0.45872 0.48147 0.0
H3815 H 0.03092 0.42561 0.4153 0.0
H3816 H 0.02493 0.43595 0.43695 0.0
H3817 H 0.03735 0.45134 0.42316 0.0
H3818 H 0.05942 0.48149 0.44661 0.0
H3819 H 0.05377 0.50861 0.46661 0.0
H3820 H 0.46579 0.26283 0.20269 0.0
H3821 H 0.44148 0.26929 0.21886 0.0
H3822 H 0.40585 0.25248 0.16684 0.0
H3823 H 0.43043 0.24583 0.15049 0.0
H3824 H 0.42081 0.29541 0.20938 0.0
H3825 H 0.38172 0.21902 0.20517 0.0
H3826 H 0.40523 0.22572 0.20282 0.0
H3827 H 0.38891 0.22611 0.18409 0.0
C3828 C 0.45282 0.26089 0.19474 0.0
C3829 C 0.4497 0.25423 0.17552 0.0
C3830 C 0.43904 0.26437 0.20392 0.0
C3831 C 0.42211 0.26105 0.1939 0.0
C3832 C 0.41899 0.25483 0.17458 0.0
H3833 H 0.32527 0.27836 0.22183 0.0
H3834 H 0.35107 0.27342 0.20749 0.0
C3835 C 0.4329 0.25139 0.16531 0.0
C3836 C 0.40797 0.2649 0.20393 0.0
H3837 H 0.36978 0.24328 0.21959 0.0
C3838 C 0.40962 0.28409 0.21168 0.0
C3839 C 0.39381 0.24984 0.20696 0.0
C3840 C 0.39226 0.22896 0.19946 0.0
C3841 C 0.39697 0.28878 0.22222 0.0
C3842 C 0.38262 0.27381 0.22491 0.0
C3843 C 0.38107 0.25456 0.2174 0.0
C3844 C 0.368 0.27801 0.23378 0.0
C3845 C 0.39867 0.30961 0.23002 0.0
C3846 C 0.3695 0.28243 0.25318 0.0
C3847 C 0.35475 0.28505 0.26138 0.0
C3848 C 0.33884 0.28337 0.25001 0.0
C3849 C 0.33762 0.27965 0.23064 0.0
C3850 C 0.35219 0.27682 0.22251 0.0
H3851 H 0.41024 0.31957 0.22572 0.0
H3852 H 0.38626 0.31337 0.22532 0.0
H3853 H 0.40034 0.31183 0.24543 0.0
H3854 H 0.38182 0.28333 0.26185 0.0
H3855 H 0.35559 0.28792 0.27638 0.0
H3856 H 0.62365 0.48294 0.3223 0.0
H3857 H 0.60979 0.48332 0.35134 0.0
H3858 H 0.61516 0.54396 0.35522 0.0
H3859 H 0.6283 0.54354 0.32663 0.0
H3860 H 0.61744 0.49914 0.38737 0.0
H3861 H 0.56466 0.53037 0.36244 0.0
H3862 H 0.57893 0.52212 0.3471 0.0
H3863 H 0.58609 0.54601 0.36111 0.0
C3864 C 0.62206 0.4964 0.32939 0.0
C3865 C 0.62736 0.5132 0.32155 0.0
C3866 C 0.6139 0.49664 0.34616 0.0
C3867 C 0.61055 0.51361 0.35582 0.0
C3868 C 0.61655 0.53035 0.34825 0.0
H3869 H 0.57461 0.55322 0.46466 0.0
H3870 H 0.58863 0.55068 0.43586 0.0
C3871 C 0.62447 0.5301 0.33167 0.0
C3872 C 0.60136 0.51435 0.37375 0.0
H3873 H 0.57019 0.53281 0.39553 0.0
C3874 C 0.60702 0.5064 0.38889 0.0
C3875 C 0.58739 0.52357 0.37649 0.0
C3876 C 0.57877 0.53079 0.36085 0.0
C3877 C 0.59988 0.50799 0.40617 0.0
C3878 C 0.58655 0.51791 0.40913 0.0
C3879 C 0.58062 0.52556 0.39394 0.0
C3880 C 0.57825 0.51974 0.42746 0.0
C3881 C 0.60699 0.49925 0.4215 0.0
C3882 C 0.56747 0.50344 0.43302 0.0
C3883 C 0.55931 0.50495 0.44949 0.0
C3884 C 0.56183 0.52273 0.4617 0.0
C3885 C 0.57277 0.53911 0.45631 0.0
C3886 C 0.58066 0.53765 0.4395 0.0
H3887 H 0.61935 0.49513 0.41862 0.0
H3888 H 0.60986 0.50949 0.43495 0.0
H3889 H 0.59669 0.48613 0.42296 0.0
H3890 H 0.56491 0.4894 0.42429 0.0
H3891 H 0.5506 0.492 0.45254 0.0
H3892 H 0.32157 0.90765 0.04881 0.0
H3893 H 0.33389 0.91512 0.08124 0.0
H3894 H 0.28474 0.88011 0.09392 0.0
H3895 H 0.27207 0.87322 0.06114 0.0
H3896 H 0.31892 0.91556 0.12551 0.0
H3897 H 0.32975 0.85146 0.0807 0.0
H3898 H 0.32938 0.87294 0.07167 0.0
H3899 H 0.30899 0.85749 0.07619 0.0
C3900 C 0.31275 0.90312 0.05856 0.0
C3901 C 0.29591 0.88989 0.05246 0.0
C3902 C 0.3199 0.90731 0.07725 0.0
C3903 C 0.31032 0.89782 0.08974 0.0
C3904 C 0.29226 0.88756 0.08431 0.0
H3905 H 0.30241 0.82725 0.15854 0.0
H3906 H 0.30607 0.8477 0.13524 0.0
C3907 C 0.28504 0.88356 0.06557 0.0
C3908 C 0.32042 0.89213 0.10464 0.0
H3909 H 0.33573 0.8541 0.11286 0.0
C3910 C 0.32306 0.90242 0.12282 0.0
C3911 C 0.32606 0.87514 0.10076 0.0
C3912 C 0.3235 0.86358 0.0813 0.0
C3913 C 0.32968 0.89501 0.13765 0.0
C3914 C 0.33361 0.87709 0.13386 0.0
C3915 C 0.33281 0.86796 0.11552 0.0
C3916 C 0.33268 0.86488 0.14788 0.0
C3917 C 0.33083 0.90528 0.15733 0.0
C3918 C 0.34658 0.86785 0.16249 0.0
C3919 C 0.34444 0.85611 0.17591 0.0
C3920 C 0.32841 0.84162 0.17455 0.0
C3921 C 0.31481 0.8385 0.1597 0.0
C3922 C 0.31691 0.85008 0.14647 0.0
H3923 H 0.32802 0.91951 0.15788 0.0
H3924 H 0.32108 0.8963 0.16468 0.0
H3925 H 0.3444 0.90746 0.16491 0.0
H3926 H 0.35882 0.87924 0.16357 0.0
H3927 H 0.35499 0.85852 0.18743 0.0
H3928 H 0.96447 0.5605 0.83308 0.0
H3929 H 0.97939 0.55818 0.86294 0.0
H3930 H 0.94923 0.49839 0.8557 0.0
H3931 H 0.93519 0.50046 0.82497 0.0
H3932 H 0.96312 0.55051 0.89198 0.0
H3933 H 0.99991 0.4964 0.87078 0.0
H3934 H 0.98972 0.50778 0.85427 0.0
H3935 H 0.97619 0.48841 0.86338 0.0
C3936 C 0.96071 0.54708 0.83822 0.0
C3937 C 0.9483 0.53088 0.82754 0.0
C3938 C 0.96943 0.54564 0.85494 0.0
C3939 C 0.96535 0.52812 0.86131 0.0
C3940 C 0.95263 0.51192 0.85076 0.0
H3941 H 0.00586 0.50976 0.96838 0.0
H3942 H 0.98587 0.50782 0.94003 0.0
C3943 C 0.94431 0.51322 0.83365 0.0
C3944 C 0.97366 0.52764 0.8797 0.0
H3945 H 1.00196 0.50795 0.90305 0.0
C3946 C 0.97157 0.54116 0.89445 0.0
C3947 C 0.98462 0.51538 0.88259 0.0
C3948 C 0.98791 0.50128 0.8669 0.0
C3949 C 0.98067 0.54322 0.91213 0.0
C3950 C 0.99166 0.5311 0.915 0.0
C3951 C 0.9933 0.51706 0.90049 0.0
C3952 C 1.00244 0.5335 0.9328 0.0
C3953 C 0.97885 0.55855 0.92752 0.0
C3954 C 0.018 0.5488 0.93786 0.0
C3955 C 0.02944 0.5499 0.95387 0.0
C3956 C 0.02527 0.53571 0.96479 0.0
C3957 C 0.00929 0.52083 0.96004 0.0
C3958 C 0.99792 0.51968 0.94399 0.0
H3959 H 0.96779 0.56485 0.92359 0.0
H3960 H 0.97645 0.5525 0.94031 0.0
H3961 H 0.99152 0.57031 0.93082 0.0
H3962 H 0.02154 0.55947 0.92911 0.0
H3963 H 0.04167 0.56154 0.95749 0.0
H3964 H 0.31625 0.22242 0.55424 0.0
H3965 H 0.32119 0.23376 0.58827 0.0
H3966 H 0.26777 0.24047 0.58571 0.0
H3967 H 0.26287 0.22971 0.55223 0.0
H3968 H 0.31219 0.27249 0.60951 0.0
H3969 H 0.27575 0.20126 0.62348 0.0
H3970 H 0.28713 0.20393 0.60334 0.0
H3971 H 0.26582 0.20895 0.60392 0.0
C3972 C 0.30569 0.22653 0.56097 0.0
C3973 C 0.28922 0.22528 0.55052 0.0
C3974 C 0.30851 0.23298 0.58033 0.0
C3975 C 0.29478 0.23785 0.58938 0.0
C3976 C 0.27851 0.23678 0.57894 0.0
H3977 H 0.26276 0.26604 0.6968 0.0
H3978 H 0.26474 0.25747 0.66349 0.0
C3979 C 0.27579 0.2307 0.55976 0.0
C3980 C 0.29673 0.24362 0.6098 0.0
H3981 H 0.27964 0.22834 0.64759 0.0
C3982 C 0.30539 0.26282 0.61798 0.0
C3983 C 0.28769 0.23095 0.62066 0.0
C3984 C 0.27865 0.21006 0.61251 0.0
C3985 C 0.3046 0.26989 0.6367 0.0
C3986 C 0.29493 0.25735 0.64738 0.0
C3987 C 0.28677 0.238 0.63929 0.0
C3988 C 0.29364 0.2638 0.6672 0.0
C3989 C 0.31353 0.29086 0.64466 0.0
C3990 C 0.30917 0.27022 0.68017 0.0
C3991 C 0.30809 0.27514 0.69899 0.0
C3992 C 0.2914 0.27355 0.70539 0.0
C3993 C 0.27579 0.26746 0.69234 0.0
C3994 C 0.27691 0.26251 0.67335 0.0
H3995 H 0.3163 0.29953 0.63357 0.0
H3996 H 0.30512 0.29709 0.65384 0.0
H3997 H 0.3265 0.29217 0.6531 0.0
H3998 H 0.32217 0.27097 0.67582 0.0
H3999 H 0.32047 0.27991 0.70855 0.0
H4000 H 0.60363 0.52758 0.22212 0.0
H4001 H 0.59153 0.52897 0.19092 0.0
H4002 H 0.62231 0.49212 0.16808 0.0
H4003 H 0.63516 0.49098 0.19993 0.0
H4004 H 0.61222 0.5434 0.1625 0.0
H4005 H 0.56951 0.46852 0.13772 0.0
H4006 H 0.57577 0.47885 0.16217 0.0
H4007 H 0.5919 0.4717 0.14895 0.0
C4008 C 0.60794 0.5195 0.21066 0.0
C4009 C 0.62066 0.50914 0.21413 0.0
C4010 C 0.60085 0.5204 0.19254 0.0
C4011 C 0.60575 0.51069 0.17671 0.0
C4012 C 0.61801 0.49972 0.17986 0.0
H4013 H 0.56907 0.5021 0.05659 0.0
H4014 H 0.58164 0.49799 0.08698 0.0
C4015 C 0.62541 0.49902 0.19824 0.0
C4016 C 0.59864 0.51319 0.15734 0.0
H4017 H 0.57046 0.48994 0.1169 0.0
C4018 C 0.60316 0.53162 0.15253 0.0
C4019 C 0.58662 0.49808 0.14405 0.0
C4020 C 0.58047 0.47814 0.14836 0.0
C4021 C 0.59652 0.53524 0.1351 0.0
C4022 C 0.58428 0.52016 0.1218 0.0
C4023 C 0.57976 0.5017 0.12668 0.0
C4024 C 0.57632 0.52301 0.10282 0.0
C4025 C 0.6033 0.55525 0.13104 0.0
C4026 C 0.5686 0.53831 0.10085 0.0
C4027 C 0.56159 0.5409 0.08317 0.0
C4028 C 0.56152 0.52801 0.0667 0.0
C4029 C 0.56876 0.51243 0.06873 0.0
C4030 C 0.57601 0.51003 0.08633 0.0
H4031 H 0.61647 0.56298 0.13944 0.0
H4032 H 0.60471 0.55488 0.11613 0.0
H4033 H 0.59373 0.56367 0.13476 0.0
H4034 H 0.56779 0.54827 0.11303 0.0
H4035 H 0.55602 0.55297 0.08246 0.0
H4036 H 0.33167 0.89008 0.96269 0.0
H4037 H 0.33578 0.87961 0.93061 0.0
H4038 H 0.27928 0.86995 0.91328 0.0
H4039 H 0.27521 0.88078 0.9455 0.0
H4040 H 0.31683 0.84132 0.91632 0.0
H4041 H 0.30255 0.88998 0.86943 0.0
H4042 H 0.31035 0.89815 0.89403 0.0
H4043 H 0.28724 0.88559 0.88608 0.0
C4044 C 0.32028 0.88639 0.95184 0.0
C4045 C 0.30308 0.88589 0.95626 0.0
C4046 C 0.32266 0.88052 0.93362 0.0
C4047 C 0.30784 0.87408 0.91972 0.0
C4048 C 0.2909 0.87524 0.92387 0.0
H4049 H 0.26862 0.79349 0.82105 0.0
H4050 H 0.27484 0.81577 0.85099 0.0
C4051 C 0.28853 0.88128 0.94218 0.0
C4052 C 0.30929 0.86245 0.90212 0.0
H4053 H 0.29971 0.8573 0.85519 0.0
C4054 C 0.31349 0.84498 0.90292 0.0
C4055 C 0.30488 0.86734 0.88482 0.0
C4056 C 0.30115 0.88638 0.88345 0.0
C4057 C 0.31239 0.8317 0.88672 0.0
C4058 C 0.30708 0.83619 0.86949 0.0
C4059 C 0.30369 0.85401 0.8686 0.0
C4060 C 0.30361 0.82193 0.85234 0.0
C4061 C 0.31598 0.81258 0.88808 0.0
C4062 C 0.31782 0.81791 0.8437 0.0
C4063 C 0.31426 0.80517 0.82676 0.0
C4064 C 0.29654 0.79637 0.81858 0.0
C4065 C 0.28236 0.79992 0.82752 0.0
C4066 C 0.28589 0.81271 0.84437 0.0
H4067 H 0.31855 0.81073 0.90273 0.0
H4068 H 0.3044 0.80062 0.88071 0.0
H4069 H 0.32782 0.81145 0.88121 0.0
H4070 H 0.33156 0.82502 0.84979 0.0
H4071 H 0.32528 0.80265 0.81977 0.0
H4072 H 0.95688 0.49951 0.74379 0.0
H4073 H 0.94422 0.48772 0.71168 0.0
H4074 H 0.95265 0.54623 0.70296 0.0
H4075 H 0.96166 0.55805 0.73651 0.0
H4076 H 0.92707 0.51652 0.67402 0.0
H4077 H 0.9926 0.50163 0.69234 0.0
H4078 H 0.97481 0.48988 0.7038 0.0
H4079 H 0.98305 0.51575 0.70864 0.0
C4080 C 0.95418 0.50981 0.73564 0.0
C4081 C 0.95962 0.52968 0.74284 0.0
C4082 C 0.94723 0.50303 0.71708 0.0
C4083 C 0.94801 0.51612 0.70501 0.0
C4084 C 0.95193 0.53592 0.71221 0.0
H4085 H 0.99885 0.53709 0.61817 0.0
H4086 H 0.98303 0.53313 0.64494 0.0
C4087 C 0.95733 0.54267 0.73126 0.0
C4088 C 0.95057 0.50983 0.68579 0.0
H4089 H 0.98126 0.49579 0.66104 0.0
C4090 C 0.93869 0.51162 0.67108 0.0
C4091 C 0.96594 0.50364 0.6822 0.0
C4092 C 0.97993 0.50275 0.69754 0.0
C4093 C 0.94231 0.5082 0.65274 0.0
C4094 C 0.95792 0.50269 0.64935 0.0
C4095 C 0.96911 0.49966 0.6639 0.0
C4096 C 0.96553 0.50506 0.63221 0.0
C4097 C 0.93025 0.51174 0.63719 0.0
C4098 C 0.96077 0.49044 0.61639 0.0
C4099 C 0.9699 0.49268 0.60105 0.0
C4100 C 0.98361 0.50954 0.60171 0.0
C4101 C 0.98811 0.52412 0.61748 0.0
C4102 C 0.97912 0.52189 0.63265 0.0
H4103 H 0.9181 0.51504 0.64196 0.0
H4104 H 0.93768 0.52401 0.63125 0.0
H4105 H 0.92614 0.49886 0.62589 0.0
H4106 H 0.95041 0.47728 0.61613 0.0
H4107 H 0.96649 0.48131 0.5889 0.0
H4108 H 0.27788 0.24351 0.45408 0.0
H4109 H 0.28189 0.25357 0.42453 0.0
H4110 H 0.30773 0.20894 0.40925 0.0
H4111 H 0.30326 0.19822 0.4391 0.0
H4112 H 0.31138 0.26687 0.40905 0.0
H4113 H 0.26868 0.19869 0.36493 0.0
H4114 H 0.26895 0.20393 0.38978 0.0
H4115 H 0.28697 0.19634 0.38035 0.0
C4116 C 0.28448 0.23573 0.44456 0.0
C4117 C 0.29007 0.21985 0.44898 0.0
C4118 C 0.28679 0.24159 0.42759 0.0
C4119 C 0.2948 0.23182 0.41446 0.0
C4120 C 0.30112 0.21642 0.419 0.0
H4121 H 0.30604 0.25547 0.30143 0.0
H4122 H 0.30871 0.24237 0.33015 0.0
C4123 C 0.29875 0.21044 0.43614 0.0
C4124 C 0.29624 0.23803 0.39616 0.0
H4125 H 0.28111 0.22384 0.3496 0.0
C4126 C 0.3049 0.25739 0.39604 0.0
C4127 C 0.28767 0.22571 0.37916 0.0
C4128 C 0.2774 0.20505 0.37844 0.0
C4129 C 0.30501 0.26483 0.37953 0.0
C4130 C 0.29613 0.25262 0.36262 0.0
C4131 C 0.28795 0.23313 0.36258 0.0
C4132 C 0.2943 0.26011 0.34508 0.0
C4133 C 0.31451 0.28577 0.38038 0.0
C4134 C 0.28494 0.27403 0.34382 0.0
C4135 C 0.28339 0.28145 0.32753 0.0
C4136 C 0.29107 0.27503 0.31211 0.0
C4137 C 0.30006 0.26073 0.31316 0.0
C4138 C 0.3016 0.25326 0.32952 0.0
H4139 H 0.32458 0.29165 0.39304 0.0
H4140 H 0.32131 0.28778 0.36794 0.0
H4141 H 0.30457 0.29428 0.38079 0.0
H4142 H 0.27884 0.27918 0.35549 0.0
H4143 H 0.27624 0.29234 0.32706 0.0
H4144 H 0.31916 0.60437 0.52947 0.0
H4145 H 0.34415 0.59048 0.52371 0.0
H4146 H 0.35216 0.61863 0.47647 0.0
H4147 H 0.32692 0.6321 0.48185 0.0
H4148 H 0.34844 0.56909 0.4818 0.0
H4149 H 0.40054 0.63455 0.52032 0.0
H4150 H 0.37812 0.62811 0.52628 0.0
H4151 H 0.38201 0.63737 0.50539 0.0
C4152 C 0.32627 0.60744 0.51784 0.0
C4153 C 0.32141 0.61919 0.50606 0.0
C4154 C 0.34036 0.59954 0.51456 0.0
C4155 C 0.34978 0.60377 0.49978 0.0
C4156 C 0.34485 0.61536 0.48791 0.0
H4157 H 0.44712 0.57569 0.47151 0.0
H4158 H 0.4212 0.58919 0.47106 0.0
C4159 C 0.33055 0.62293 0.49096 0.0
C4160 C 0.36512 0.5964 0.4969 0.0
H4161 H 0.41048 0.60856 0.50648 0.0
C4162 C 0.36204 0.57764 0.48707 0.0
C4163 C 0.38263 0.6079 0.50381 0.0
C4164 C 0.38618 0.62811 0.51462 0.0
C4165 C 0.37632 0.56984 0.48414 0.0
C4166 C 0.39385 0.58118 0.49139 0.0
C4167 C 0.39693 0.60011 0.50087 0.0
C4168 C 0.40902 0.57297 0.49103 0.0
C4169 C 0.37264 0.54953 0.47355 0.0
C4170 C 0.4106 0.55988 0.50269 0.0
C4171 C 0.42535 0.55255 0.50321 0.0
C4172 C 0.43855 0.55819 0.49198 0.0
C4173 C 0.43698 0.57129 0.48026 0.0
C4174 C 0.42229 0.57887 0.47995 0.0
H4175 H 0.35894 0.54428 0.46561 0.0
H4176 H 0.38252 0.54862 0.46377 0.0
H4177 H 0.37392 0.53979 0.48351 0.0
H4178 H 0.40049 0.55548 0.51147 0.0
H4179 H 0.42637 0.5423 0.51219 0.0
H4180 H 0.85718 0.89752 0.50019 0.0
H4181 H 0.88603 0.91915 0.4976 0.0
H4182 H 0.8797 0.96027 0.54342 0.0
H4183 H 0.85041 0.93859 0.54592 0.0
H4184 H 0.8967 0.95934 0.49277 0.0
H4185 H 0.92784 0.94691 0.55925 0.0
H4186 H 0.90687 0.93134 0.54678 0.0
H4187 H 0.90758 0.9543 0.56024 0.0
C4188 C 0.8618 0.91128 0.50963 0.0
C4189 C 0.85152 0.91628 0.52336 0.0
C4190 C 0.87832 0.92366 0.50807 0.0
C4191 C 0.88523 0.94126 0.52044 0.0
C4192 C 0.87474 0.94667 0.53381 0.0
H4193 H 0.98794 0.02701 0.54513 0.0
H4194 H 0.95755 0.00672 0.54372 0.0
C4195 C 0.85795 0.93435 0.53517 0.0
C4196 C 0.90373 0.95334 0.5198 0.0
H4197 H 0.94587 0.96929 0.5443 0.0
C4198 C 0.90746 0.96157 0.50404 0.0
C4199 C 0.91789 0.95598 0.53432 0.0
C4200 C 0.915 0.94657 0.55107 0.0
C4201 C 0.92477 0.97289 0.50275 0.0
C4202 C 0.9389 0.97582 0.51747 0.0
C4203 C 0.93514 0.96725 0.53304 0.0
C4204 C 0.95746 0.98837 0.51761 0.0
C4205 C 0.9276 0.98207 0.48585 0.0
C4206 C 0.96786 0.98491 0.50347 0.0
C4207 C 0.98535 0.99675 0.50416 0.0
C4208 C 0.99295 0.01208 0.51919 0.0
C4209 C 0.98261 0.0153 0.53339 0.0
C4210 C 0.96514 1.00367 0.53258 0.0
H4211 H 0.91475 0.98232 0.47811 0.0
H4212 H 0.93635 0.99705 0.48982 0.0
H4213 H 0.9342 0.97366 0.47632 0.0
H4214 H 0.96255 0.97295 0.49197 0.0
H4215 H 0.99287 0.99393 0.49291 0.0
H4216 H 0.87925 0.10164 0.24352 0.0
H4217 H 0.86259 0.12638 0.24338 0.0
H4218 H 0.90183 0.16424 0.28718 0.0
H4219 H 0.9183 0.14015 0.2873 0.0
H4220 H 0.84576 0.14597 0.26934 0.0
H4221 H 0.90163 0.20186 0.25319 0.0
H4222 H 0.90206 0.17705 0.25109 0.0
H4223 H 0.90743 0.19271 0.2735 0.0
C4224 C 0.88446 0.11523 0.25309 0.0
C4225 C 0.9006 0.11839 0.26529 0.0
C4226 C 0.87478 0.1296 0.25305 0.0
C4227 C 0.88083 0.14797 0.265 0.0
C4228 C 0.89671 0.15085 0.2773 0.0
H4229 H 0.8492 0.25957 0.28256 0.0
H4230 H 0.86416 0.23368 0.28264 0.0
C4231 C 0.90623 0.13663 0.27742 0.0
C4232 C 0.87086 0.164 0.26497 0.0
H4233 H 0.87684 0.21213 0.26228 0.0
C4234 C 0.85264 0.16035 0.2676 0.0
C4235 C 0.87938 0.18332 0.26318 0.0
C4236 C 0.89865 0.189 0.25992 0.0
C4237 C 0.8432 0.17493 0.26889 0.0
C4238 C 0.85161 0.1942 0.26662 0.0
C4239 C 0.86985 0.19778 0.264 0.0
C4240 C 0.842 0.21061 0.26687 0.0
C4241 C 0.82444 0.16948 0.27372 0.0
C4242 C 0.82432 0.2074 0.25786 0.0
C4243 C 0.81554 0.22233 0.25818 0.0
C4244 C 0.82402 0.24163 0.26704 0.0
C4245 C 0.84189 0.24512 0.27561 0.0
C4246 C 0.85059 0.23004 0.27559 0.0
H4247 H 0.8225 0.15752 0.28169 0.0
H4248 H 0.82125 0.18185 0.28213 0.0
H4249 H 0.81479 0.16433 0.26072 0.0
H4250 H 0.81715 0.19328 0.25011 0.0
H4251 H 0.80199 0.21867 0.25107 0.0
H4252 H 0.72823 0.14481 0.03304 0.0
H4253 H 0.69606 0.13141 0.02401 0.0
H4254 H 0.70521 0.08544 0.985 0.0
H4255 H 0.73771 0.09883 0.99421 0.0
H4256 H 0.67514 0.12286 0.98693 0.0
H4257 H 0.6741 0.06063 0.02284 0.0
H4258 H 0.69278 0.08191 0.02712 0.0
H4259 H 0.68944 0.06445 0.00613 0.0
C4260 C 0.72332 0.13174 0.02266 0.0
C4261 C 0.73512 0.12258 0.01436 0.0
C4262 C 0.70509 0.12434 0.01735 0.0
C4263 C 0.69858 0.10776 0.0037 0.0
C4264 C 0.71029 0.09839 0.9955 0.0
H4265 H 0.59156 0.03789 0.98218 0.0
H4266 H 0.61989 0.05586 0.97467 0.0
C4267 C 0.72864 0.10575 0.00094 0.0
C4268 C 0.67939 0.09933 0.99967 0.0
H4269 H 0.64674 0.06332 0.00961 0.0
C4270 C 0.6688 0.10966 0.99153 0.0
C4271 C 0.67151 0.08245 0.00622 0.0
C4272 C 0.68247 0.07174 0.01621 0.0
C4273 C 0.65017 0.10345 0.99003 0.0
C4274 C 0.64246 0.08663 0.99667 0.0
C4275 C 0.65303 0.07613 0.00434 0.0
C4276 C 0.62348 0.07985 0.99725 0.0
C4277 C 0.63883 0.11492 0.98193 0.0
C4278 C 0.61643 0.08768 0.01244 0.0
C4279 C 0.6003 0.07742 0.01689 0.0
C4280 C 0.59134 0.05928 0.00619 0.0
C4281 C 0.59829 0.05183 0.99068 0.0
C4282 C 0.6142 0.0622 0.9861 0.0
H4283 H 0.64681 0.12649 0.97551 0.0
H4284 H 0.62791 0.10526 0.9713 0.0
H4285 H 0.63251 0.12161 0.9931 0.0
H4286 H 0.62391 0.10112 0.02142 0.0
H4287 H 0.59495 0.08362 0.02867 0.0
H4288 H 0.16577 0.47917 0.2324 0.0
H4289 H 0.17911 0.45512 0.24309 0.0
H4290 H 0.22739 0.49968 0.26693 0.0
H4291 H 0.21421 0.52383 0.25653 0.0
H4292 H 0.21107 0.44814 0.23328 0.0
H4293 H 0.21524 0.47058 0.30973 0.0
H4294 H 0.2011 0.47817 0.29319 0.0
H4295 H 0.22477 0.48953 0.29769 0.0
C4296 C 0.17922 0.48383 0.23989 0.0
C4297 C 0.18897 0.50332 0.24365 0.0
C4298 C 0.18673 0.47014 0.24607 0.0
C4299 C 0.20398 0.47586 0.25612 0.0
C4300 C 0.21386 0.49521 0.25961 0.0
H4301 H 0.28016 0.4176 0.28896 0.0
H4302 H 0.26337 0.44128 0.28618 0.0
C4303 C 0.20638 0.50889 0.25346 0.0
C4304 C 0.21218 0.46138 0.26179 0.0
H4305 H 0.23044 0.44731 0.29941 0.0
C4306 C 0.21514 0.44777 0.24772 0.0
C4307 C 0.21762 0.46133 0.28066 0.0
C4308 C 0.21441 0.47559 0.29622 0.0
C4309 C 0.22372 0.43412 0.25202 0.0
C4310 C 0.22901 0.43393 0.27089 0.0
C4311 C 0.22611 0.44754 0.285 0.0
C4312 C 0.23811 0.41992 0.27598 0.0
C4313 C 0.22752 0.42037 0.23636 0.0
C4314 C 0.2291 0.40028 0.27191 0.0
C4315 C 0.23857 0.38675 0.27356 0.0
C4316 C 0.25714 0.39278 0.27929 0.0
C4317 C 0.26584 0.41255 0.28462 0.0
C4318 C 0.25633 0.42607 0.28301 0.0
H4319 H 0.22606 0.42519 0.22282 0.0
H4320 H 0.24127 0.41884 0.23921 0.0
H4321 H 0.21794 0.40596 0.23508 0.0
H4322 H 0.21493 0.39546 0.26668 0.0
H4323 H 0.2315 0.37158 0.26975 0.0
H4324 H 0.24047 0.39629 0.03255 0.0
H4325 H 0.2131 0.40683 0.02836 0.0
H4326 H 0.23796 0.44604 0.99415 0.0
H4327 H 0.26486 0.43495 0.99757 0.0
H4328 H 0.20618 0.43968 0.03771 0.0
H4329 H 0.19212 0.42156 0.96108 0.0
H4330 H 0.20852 0.41335 0.97415 0.0
H4331 H 0.21423 0.43718 0.96857 0.0
C4332 C 0.24007 0.40715 0.02412 0.0
C4333 C 0.25487 0.41473 0.01533 0.0
C4334 C 0.22437 0.41312 0.02166 0.0
C4335 C 0.22315 0.4269 0.01048 0.0
C4336 C 0.23816 0.43487 0.00222 0.0
H4337 H 0.15572 0.50049 0.99188 0.0
H4338 H 0.17815 0.48254 0.99209 0.0
C4339 C 0.25368 0.42868 0.0044 0.0
C4340 C 0.2066 0.43365 0.00817 0.0
H4341 H 0.17725 0.44359 0.9759 0.0
C4342 C 0.19973 0.44023 0.02415 0.0
C4343 C 0.19795 0.43432 0.99049 0.0
C4344 C 0.20347 0.42602 0.97261 0.0
C4345 C 0.18511 0.4482 0.02303 0.0
C4346 C 0.17702 0.44963 0.00543 0.0
C4347 C 0.18354 0.44263 0.9894 0.0
C4348 C 0.16242 0.45929 0.00354 0.0
C4349 C 0.17884 0.45571 0.04076 0.0
C4350 C 0.14581 0.45189 0.00932 0.0
C4351 C 0.13279 0.46206 0.00907 0.0
C4352 C 0.13609 0.47987 0.00301 0.0
C4353 C 0.15251 0.48677 0.99647 0.0
C4354 C 0.16546 0.47656 0.99667 0.0
H4355 H 0.18852 0.4568 0.05323 0.0
H4356 H 0.17669 0.47012 0.04041 0.0
H4357 H 0.1659 0.44575 0.04221 0.0
H4358 H 0.143 0.43837 0.01431 0.0
H4359 H 0.1202 0.45602 0.0138 0.0
H4360 H 0.89674 0.00524 0.28429 0.0
H4361 H 0.87998 0.97256 0.28711 0.0
H4362 H 0.87163 0.95575 0.22749 0.0
H4363 H 0.88887 0.98816 0.22479 0.0
H4364 H 0.84754 0.94836 0.27751 0.0
H4365 H 0.89173 0.91362 0.23918 0.0
H4366 H 0.89693 0.93939 0.2463 0.0
H4367 H 0.88183 0.92741 0.22531 0.0
C4368 C 0.89087 0.99476 0.27172 0.0
C4369 C 0.89378 0.99984 0.25424 0.0
C4370 C 0.88138 0.9758 0.27335 0.0
C4371 C 0.87462 0.96097 0.25758 0.0
C4372 C 0.87695 0.96632 0.24008 0.0
H4373 H 0.8099 0.83878 0.23428 0.0
H4374 H 0.82812 0.87142 0.23326 0.0
C4375 C 0.88655 0.9852 0.23848 0.0
C4376 C 0.86541 0.9401 0.25935 0.0
H4377 H 0.86447 0.8926 0.24432 0.0
C4378 C 0.85144 0.93627 0.27031 0.0
C4379 C 0.87028 0.92379 0.25032 0.0
C4380 C 0.88614 0.92622 0.2398 0.0
C4381 C 0.84201 0.91718 0.27184 0.0
C4382 C 0.84649 0.90088 0.26229 0.0
C4383 C 0.86064 0.90471 0.25158 0.0
C4384 C 0.83648 0.87996 0.26294 0.0
C4385 C 0.82686 0.9146 0.28331 0.0
C4386 C 0.83527 0.87294 0.27982 0.0
C4387 C 0.82502 0.85394 0.28035 0.0
C4388 C 0.81564 0.84107 0.26402 0.0
C4389 C 0.81725 0.8479 0.24712 0.0
C4390 C 0.82762 0.86681 0.24656 0.0
H4391 H 0.8223 0.92786 0.28619 0.0
H4392 H 0.8153 0.90249 0.27619 0.0
H4393 H 0.83144 0.91121 0.29684 0.0
H4394 H 0.84204 0.88229 0.29275 0.0
H4395 H 0.82383 0.84958 0.29371 0.0
H4396 H 0.68469 0.09001 0.79079 0.0
H4397 H 0.7071 0.12154 0.79729 0.0
H4398 H 0.71169 0.11702 0.73883 0.0
H4399 H 0.68971 0.08546 0.73229 0.0
H4400 H 0.74524 0.13123 0.78196 0.0
H4401 H 0.69388 0.16764 0.76125 0.0
H4402 H 0.68832 0.14474 0.76892 0.0
H4403 H 0.69337 0.14585 0.74572 0.0
C4404 C 0.69077 0.09571 0.77946 0.0
C4405 C 0.68573 0.08556 0.76111 0.0
C4406 C 0.70345 0.11353 0.78317 0.0
C4407 C 0.71076 0.12125 0.76848 0.0
C4408 C 0.70606 0.11096 0.75023 0.0
H4409 H 0.76534 0.22268 0.73839 0.0
H4410 H 0.75271 0.189 0.74032 0.0
C4411 C 0.69367 0.09304 0.74655 0.0
C4412 C 0.72267 0.14056 0.77179 0.0
H4413 H 0.72439 0.18493 0.76236 0.0
C4414 C 0.7408 0.14317 0.77799 0.0
C4415 C 0.71646 0.15578 0.76666 0.0
C4416 C 0.69691 0.15348 0.7604 0.0
C4417 C 0.7533 0.16066 0.77803 0.0
C4418 C 0.74717 0.17546 0.77181 0.0
C4419 C 0.72889 0.17317 0.7667 0.0
C4420 C 0.75932 0.19364 0.77026 0.0
C4421 C 0.7729 0.163 0.78391 0.0
C4422 C 0.76789 0.20675 0.78641 0.0
C4423 C 0.77512 0.22587 0.78535 0.0
C4424 C 0.77346 0.23188 0.7682 0.0
C4425 C 0.76643 0.21835 0.75182 0.0
C4426 C 0.75936 0.19919 0.75286 0.0
H4427 H 0.7757 0.14898 0.78491 0.0
H4428 H 0.7811 0.16989 0.77397 0.0
H4429 H 0.77718 0.17251 0.79777 0.0
H4430 H 0.76776 0.20257 0.79991 0.0
H4431 H 0.78106 0.23604 0.79807 0.0
loop_
_geom_bond_atom_site_label_1
_geom_bond_atom_site_label_2
_geom_bond_distance
_geom_bond_site_symmetry_2
_ccdc_geom_bond_type
Zn0 O3 2.031 . S
Zn0 O5 2.049 . S
Zn0 O10 2.067 . S
Zn1 O2 1.962 . S
Zn1 O4 1.986 . S
Zn1 O6 1.996 . S
Zn1 O9 1.943 . S
O2 Zn1 1.962 . S
O2 C7 1.254 . S
O3 Zn0 2.031 . S
O3 C7 1.269 . S
O4 Zn1 1.986 . S
O4 C11 1.262 . S
O5 Zn0 2.049 . S
O5 C13 1.260 . S
O6 Zn1 1.996 . S
O6 C13 1.257 . S
C7 O2 1.254 . S
C7 O3 1.269 . S
C8 O9 1.249 . S
C8 O10 1.270 . S
O9 Zn1 1.943 . S
O9 C8 1.249 . S
O10 Zn0 2.067 . S
O10 C8 1.270 . S
C11 O4 1.262 . S
C11 O12 1.232 . S
O12 C11 1.232 . S
C13 O5 1.260 . S
C13 O6 1.257 . S
Zn14 O17 2.031 1_455 S
Zn14 O19 2.049 . S
Zn14 O24 2.067 . S
Zn15 O16 1.948 1_455 S
Zn15 O18 1.991 . S
Zn15 O20 2.007 . S
Zn15 O23 1.946 1_455 S
O16 Zn15 1.948 1_655 S
O16 C21 1.254 . S
O17 Zn14 2.031 1_655 S
O17 C21 1.269 . S
O18 Zn15 1.991 . S
O18 C25 1.262 . S
O19 Zn14 2.049 . S
O19 C27 1.260 . S
O20 Zn15 2.007 . S
O20 C27 1.257 . S
C21 O16 1.254 . S
C21 O17 1.269 . S
C22 O23 1.249 . S
C22 O24 1.270 1_655 S
O23 Zn15 1.946 1_655 S
O23 C22 1.249 . S
O24 Zn14 2.067 . S
O24 C22 1.270 1_455 S
C25 O18 1.262 . S
C25 O26 1.232 1_455 S
O26 C25 1.232 1_655 S
C27 O19 1.260 . S
C27 O20 1.257 . S
Zn28 O31 2.031 . S
Zn28 O33 2.049 . S
Zn28 O38 2.067 . S
Zn29 O30 1.962 . S
Zn29 O32 1.986 . S
Zn29 O34 1.996 . S
Zn29 O37 1.943 . S
O30 Zn29 1.962 . S
O30 C35 1.254 . S
O31 Zn28 2.031 . S
O31 C35 1.269 . S
O32 Zn29 1.986 . S
O32 C39 1.262 . S
O33 Zn28 2.049 . S
O33 C41 1.260 . S
O34 Zn29 1.996 . S
O34 C41 1.257 . S
C35 O30 1.254 . S
C35 O31 1.269 . S
C36 O37 1.249 . S
C36 O38 1.270 . S
O37 Zn29 1.943 . S
O37 C36 1.249 . S
O38 Zn28 2.067 . S
O38 C36 1.270 . S
C39 O32 1.262 . S
C39 O40 1.232 . S
O40 C39 1.232 . S
C41 O33 1.260 . S
C41 O34 1.257 . S
Zn42 O45 2.031 . S
Zn42 O47 2.049 . S
Zn42 O52 2.067 . S
Zn43 O44 1.962 . S
Zn43 O46 1.986 . S
Zn43 O48 1.996 . S
Zn43 O51 1.943 . S
O44 Zn43 1.962 . S
O44 C49 1.254 . S
O45 Zn42 2.031 . S
O45 C49 1.269 . S
O46 Zn43 1.986 . S
O46 C53 1.262 . S
O47 Zn42 2.049 . S
O47 C55 1.260 . S
O48 Zn43 1.996 . S
O48 C55 1.257 . S
C49 O44 1.254 . S
C49 O45 1.269 . S
C50 O51 1.249 . S
C50 O52 1.270 . S
O51 Zn43 1.943 . S
O51 C50 1.249 . S
O52 Zn42 2.067 . S
O52 C50 1.270 . S
C53 O46 1.262 . S
C53 O54 1.232 . S
O54 C53 1.232 . S
C55 O47 1.260 . S
C55 O48 1.257 . S
Zn56 O59 2.031 . S
Zn56 O61 2.049 . S
Zn56 O66 2.067 . S
Zn57 O58 1.962 . S
Zn57 O60 1.986 . S
Zn57 O62 1.996 . S
Zn57 O65 1.943 . S
O58 Zn57 1.962 . S
O58 C63 1.254 . S
O59 Zn56 2.031 . S
O59 C63 1.269 . S
O60 Zn57 1.986 . S
O60 C67 1.262 . S
O61 Zn56 2.049 . S
O61 C69 1.260 . S
O62 Zn57 1.996 . S
O62 C69 1.257 . S
C63 O58 1.254 . S
C63 O59 1.269 . S
C64 O65 1.249 . S
C64 O66 1.270 . S
O65 Zn57 1.943 . S
O65 C64 1.249 . S
O66 Zn56 2.067 . S
O66 C64 1.270 . S
C67 O60 1.262 . S
C67 O68 1.232 . S
O68 C67 1.232 . S
C69 O61 1.260 . S
C69 O62 1.257 . S
Zn70 O73 2.031 . S
Zn70 O75 2.049 . S
Zn70 O80 2.067 . S
Zn71 O72 1.962 . S
Zn71 O74 1.986 . S
Zn71 O76 1.996 . S
Zn71 O79 1.943 . S
O72 Zn71 1.962 . S
O72 C77 1.254 . S
O73 Zn70 2.031 . S
O73 C77 1.269 . S
O74 Zn71 1.986 . S
O74 C81 1.262 . S
O75 Zn70 2.049 . S
O75 C83 1.260 . S
O76 Zn71 1.996 . S
O76 C83 1.257 . S
C77 O72 1.254 . S
C77 O73 1.269 . S
C78 O79 1.249 . S
C78 O80 1.270 . S
O79 Zn71 1.943 . S
O79 C78 1.249 . S
O80 Zn70 2.067 . S
O80 C78 1.270 . S
C81 O74 1.262 . S
C81 O82 1.232 . S
O82 C81 1.232 . S
C83 O75 1.260 . S
C83 O76 1.257 . S
Zn84 O87 2.031 . S
Zn84 O89 2.049 . S
Zn84 O94 2.067 . S
Zn85 O86 1.962 . S
Zn85 O88 1.986 . S
Zn85 O90 1.996 . S
Zn85 O93 1.943 . S
O86 Zn85 1.962 . S
O86 C91 1.254 . S
O87 Zn84 2.031 . S
O87 C91 1.269 . S
O88 Zn85 1.986 . S
O88 C95 1.262 . S
O89 Zn84 2.049 . S
O89 C97 1.260 . S
O90 Zn85 1.996 . S
O90 C97 1.257 . S
C91 O86 1.254 . S
C91 O87 1.269 . S
C92 O93 1.249 . S
C92 O94 1.270 . S
O93 Zn85 1.943 . S
O93 C92 1.249 . S
O94 Zn84 2.067 . S
O94 C92 1.270 . S
C95 O88 1.262 . S
C95 O96 1.232 . S
O96 C95 1.232 . S
C97 O89 1.260 . S
C97 O90 1.257 . S
Zn98 O101 2.042 . S
Zn98 O103 2.049 . S
Zn98 O108 2.067 . S
Zn99 O100 1.962 . S
Zn99 O102 1.986 . S
Zn99 O104 1.996 . S
Zn99 O107 1.948 1_455 S
O100 Zn99 1.962 . S
O100 C105 1.254 . S
O101 Zn98 2.042 . S
O101 C105 1.218 1_655 S
O102 Zn99 1.986 . S
O102 C109 1.262 . S
O103 Zn98 2.049 . S
O103 C111 1.260 1_655 S
O104 Zn99 1.996 . S
O104 C111 1.257 . S
C105 O100 1.254 . S
C105 O101 1.218 1_455 S
C106 O107 1.243 . S
C106 O108 1.270 . S
O107 Zn99 1.948 1_655 S
O107 C106 1.243 . S
O108 Zn98 2.067 . S
O108 C106 1.270 . S
C109 O102 1.262 . S
C109 O110 1.232 . S
O110 C109 1.232 . S
C111 O103 1.260 1_455 S
C111 O104 1.257 . S
Zn112 O115 2.031 . S
Zn112 O117 2.049 . S
Zn112 O122 2.067 . S
Zn113 O114 1.962 . S
Zn113 O116 1.986 . S
Zn113 O118 1.996 . S
Zn113 O121 1.943 1_545 S
O114 Zn113 1.962 . S
O114 C119 1.254 . S
O115 Zn112 2.031 . S
O115 C119 1.269 1_565 S
O116 Zn113 1.986 . S
O116 C123 1.262 . S
O117 Zn112 2.049 . S
O117 C125 1.260 1_565 S
O118 Zn113 1.996 . S
O118 C125 1.257 . S
C119 O114 1.254 . S
C119 O115 1.269 1_545 S
C120 O121 1.249 . S
C120 O122 1.270 . S
O121 Zn113 1.943 1_565 S
O121 C120 1.249 . S
O122 Zn112 2.067 . S
O122 C120 1.270 . S
C123 O116 1.262 . S
C123 O124 1.232 . S
O124 C123 1.232 . S
C125 O117 1.260 1_545 S
C125 O118 1.257 . S
Zn126 O129 2.031 . S
Zn126 O131 2.049 . S
Zn126 O136 2.067 . S
Zn127 O128 1.962 . S
Zn127 O130 1.986 . S
Zn127 O132 1.996 . S
Zn127 O135 1.943 . S
O128 Zn127 1.962 . S
O128 C133 1.254 . S
O129 Zn126 2.031 . S
O129 C133 1.269 . S
O130 Zn127 1.986 . S
O130 C137 1.262 . S
O131 Zn126 2.049 . S
O131 C139 1.260 . S
O132 Zn127 1.996 . S
O132 C139 1.257 . S
C133 O128 1.254 . S
C133 O129 1.269 . S
C134 O135 1.249 . S
C134 O136 1.270 . S
O135 Zn127 1.943 . S
O135 C134 1.249 . S
O136 Zn126 2.067 . S
O136 C134 1.270 . S
C137 O130 1.262 . S
C137 O138 1.232 . S
O138 C137 1.232 . S
C139 O131 1.260 . S
C139 O132 1.257 . S
Zn140 O143 2.031 . S
Zn140 O145 2.049 . S
Zn140 O150 2.067 . S
Zn141 O142 1.962 . S
Zn141 O144 1.986 . S
Zn141 O146 1.996 . S
Zn141 O149 1.943 1_565 S
O142 Zn141 1.962 . S
O142 C147 1.254 1_565 S
O143 Zn140 2.031 . S
O143 C147 1.269 . S
O144 Zn141 1.986 . S
O144 C151 1.262 . S
O145 Zn140 2.049 . S
O145 C153 1.260 1_545 S
O146 Zn141 1.996 . S
O146 C153 1.257 . S
C147 O142 1.254 1_545 S
C147 O143 1.269 . S
C148 O149 1.249 . S
C148 O150 1.270 . S
O149 Zn141 1.943 1_545 S
O149 C148 1.249 . S
O150 Zn140 2.067 . S
O150 C148 1.270 . S
C151 O144 1.262 . S
C151 O152 1.232 . S
O152 C151 1.232 . S
C153 O145 1.260 1_565 S
C153 O146 1.257 . S
Zn154 O157 2.031 1_554 S
Zn154 O159 2.049 . S
Zn154 O164 2.067 . S
Zn155 O156 1.962 1_554 S
Zn155 O158 1.986 . S
Zn155 O160 1.996 . S
Zn155 O163 1.943 . S
O156 Zn155 1.962 1_556 S
O156 C161 1.254 . S
O157 Zn154 2.031 1_556 S
O157 C161 1.269 . S
O158 Zn155 1.986 . S
O158 C165 1.262 . S
O159 Zn154 2.049 . S
O159 C167 1.260 . S
O160 Zn155 1.996 . S
O160 C167 1.257 . S
C161 O156 1.254 . S
C161 O157 1.269 . S
C162 O163 1.249 . S
C162 O164 1.270 . S
O163 Zn155 1.943 . S
O163 C162 1.249 . S
O164 Zn154 2.067 . S
O164 C162 1.270 . S
C165 O158 1.262 . S
C165 O166 1.183 1_554 S
O166 C165 1.183 1_556 S
C167 O159 1.260 . S
C167 O160 1.257 . S
Zn168 O171 2.031 1_554 S
Zn168 O173 2.049 . S
Zn168 O178 2.067 . S
Zn169 O170 1.962 1_554 S
Zn169 O172 1.986 . S
Zn169 O174 1.996 . S
Zn169 O177 1.943 . S
O170 Zn169 1.962 1_556 S
O170 C175 1.254 . S
O171 Zn168 2.031 1_556 S
O171 C175 1.269 . S
O172 Zn169 1.986 . S
O172 C179 1.262 . S
O173 Zn168 2.049 . S
O173 C181 1.260 . S
O174 Zn169 1.996 . S
O174 C181 1.257 . S
C175 O170 1.254 . S
C175 O171 1.269 . S
C176 O177 1.249 . S
C176 O178 1.270 . S
O177 Zn169 1.943 . S
O177 C176 1.249 . S
O178 Zn168 2.067 . S
O178 C176 1.270 . S
C179 O172 1.262 . S
C179 O180 1.232 . S
O180 C179 1.232 . S
C181 O173 1.260 . S
C181 O174 1.257 . S
Zn182 O185 2.031 1_554 S
Zn182 O187 2.049 . S
Zn182 O192 2.067 . S
Zn183 O184 1.962 1_554 S
Zn183 O186 1.986 . S
Zn183 O188 1.996 . S
Zn183 O191 1.943 . S
O184 Zn183 1.962 1_556 S
O184 C189 1.254 . S
O185 Zn182 2.031 1_556 S
O185 C189 1.269 . S
O186 Zn183 1.986 . S
O186 C193 1.262 . S
O187 Zn182 2.049 . S
O187 C195 1.260 . S
O188 Zn183 1.996 . S
O188 C195 1.257 . S
C189 O184 1.254 . S
C189 O185 1.269 . S
C190 O191 1.249 . S
C190 O192 1.270 . S
O191 Zn183 1.943 . S
O191 C190 1.249 . S
O192 Zn182 2.067 . S
O192 C190 1.270 . S
C193 O186 1.262 . S
C193 O194 1.232 1_554 S
O194 C193 1.232 1_556 S
C195 O187 1.260 . S
C195 O188 1.257 . S
Zn196 O199 2.031 . S
Zn196 O201 2.049 . S
Zn196 O206 2.067 . S
Zn197 O198 1.962 . S
Zn197 O200 1.986 . S
Zn197 O202 1.996 . S
Zn197 O205 1.943 . S
O198 Zn197 1.962 . S
O198 C203 1.254 . S
O199 Zn196 2.031 . S
O199 C203 1.269 . S
O200 Zn197 1.986 . S
O200 C207 1.262 . S
O201 Zn196 2.049 . S
O201 C209 1.260 . S
O202 Zn197 1.996 . S
O202 C209 1.257 . S
C203 O198 1.254 . S
C203 O199 1.269 . S
C204 O205 1.249 . S
C204 O206 1.270 . S
O205 Zn197 1.943 . S
O205 C204 1.249 . S
O206 Zn196 2.067 . S
O206 C204 1.270 . S
C207 O200 1.262 . S
C207 O208 1.232 . S
O208 C207 1.232 . S
C209 O201 1.260 . S
C209 O202 1.257 . S
Zn210 O213 2.031 . S
Zn210 O215 2.049 . S
Zn210 O220 2.067 . S
Zn211 O212 1.962 . S
Zn211 O214 1.986 . S
Zn211 O216 1.996 . S
Zn211 O219 1.943 . S
O212 Zn211 1.962 . S
O212 C217 1.254 . S
O213 Zn210 2.031 . S
O213 C217 1.269 . S
O214 Zn211 1.986 . S
O214 C221 1.262 . S
O215 Zn210 2.049 . S
O215 C223 1.260 . S
O216 Zn211 1.996 . S
O216 C223 1.257 . S
C217 O212 1.254 . S
C217 O213 1.269 . S
C218 O219 1.249 . S
C218 O220 1.270 . S
O219 Zn211 1.943 . S
O219 C218 1.249 . S
O220 Zn210 2.067 . S
O220 C218 1.270 . S
C221 O214 1.262 . S
C221 O222 1.232 . S
O222 C221 1.232 . S
C223 O215 1.260 . S
C223 O216 1.257 . S
Zn224 O227 2.031 . S
Zn224 O229 2.049 . S
Zn224 O234 2.067 . S
Zn225 O226 1.962 . S
Zn225 O228 1.986 . S
Zn225 O230 1.996 . S
Zn225 O233 1.943 . S
O226 Zn225 1.962 . S
O226 C231 1.254 . S
O227 Zn224 2.031 . S
O227 C231 1.269 . S
O228 Zn225 1.986 . S
O228 C235 1.262 . S
O229 Zn224 2.049 . S
O229 C237 1.260 . S
O230 Zn225 1.996 . S
O230 C237 1.257 . S
C231 O226 1.254 . S
C231 O227 1.269 . S
C232 O233 1.249 . S
C232 O234 1.270 . S
O233 Zn225 1.943 . S
O233 C232 1.249 . S
O234 Zn224 2.067 . S
O234 C232 1.270 . S
C235 O228 1.262 . S
C235 O236 1.232 . S
O236 C235 1.232 . S
C237 O229 1.260 . S
C237 O230 1.257 . S
Zn238 O241 2.031 . S
Zn238 O243 2.049 . S
Zn238 O248 2.067 . S
Zn239 O240 1.962 . S
Zn239 O242 1.986 . S
Zn239 O244 1.996 . S
Zn239 O247 1.943 . S
O240 Zn239 1.962 . S
O240 C245 1.254 . S
O241 Zn238 2.031 . S
O241 C245 1.269 . S
O242 Zn239 1.986 . S
O242 C249 1.262 . S
O243 Zn238 2.049 . S
O243 C251 1.260 . S
O244 Zn239 1.996 . S
O244 C251 1.257 . S
C245 O240 1.254 . S
C245 O241 1.269 . S
C246 O247 1.249 . S
C246 O248 1.270 . S
O247 Zn239 1.943 . S
O247 C246 1.249 . S
O248 Zn238 2.067 . S
O248 C246 1.270 . S
C249 O242 1.262 . S
C249 O250 1.232 . S
O250 C249 1.232 . S
C251 O243 1.260 . S
C251 O244 1.257 . S
Zn252 O255 2.031 . S
Zn252 O257 2.049 . S
Zn252 O262 2.067 . S
Zn253 O254 1.962 . S
Zn253 O256 1.986 . S
Zn253 O258 1.996 . S
Zn253 O261 1.943 . S
O254 Zn253 1.962 . S
O254 C259 1.254 . S
O255 Zn252 2.031 . S
O255 C259 1.269 . S
O256 Zn253 1.986 . S
O256 C263 1.262 . S
O257 Zn252 2.049 . S
O257 C265 1.260 . S
O258 Zn253 1.996 . S
O258 C265 1.257 . S
C259 O254 1.254 . S
C259 O255 1.269 . S
C260 O261 1.249 . S
C260 O262 1.270 . S
O261 Zn253 1.943 . S
O261 C260 1.249 . S
O262 Zn252 2.067 . S
O262 C260 1.270 . S
C263 O256 1.262 . S
C263 O264 1.232 . S
O264 C263 1.232 . S
C265 O257 1.260 . S
C265 O258 1.257 . S
Zn266 O269 2.031 . S
Zn266 O271 2.049 . S
Zn266 O276 2.067 . S
Zn267 O268 1.962 . S
Zn267 O270 1.986 . S
Zn267 O272 1.996 . S
Zn267 O275 1.943 . S
O268 Zn267 1.962 . S
O268 C273 1.254 . S
O269 Zn266 2.031 . S
O269 C273 1.269 . S
O270 Zn267 1.986 . S
O270 C277 1.262 . S
O271 Zn266 2.049 . S
O271 C279 1.260 . S
O272 Zn267 1.996 . S
O272 C279 1.257 . S
C273 O268 1.254 . S
C273 O269 1.269 . S
C274 O275 1.249 . S
C274 O276 1.270 . S
O275 Zn267 1.943 . S
O275 C274 1.249 . S
O276 Zn266 2.067 . S
O276 C274 1.270 . S
C277 O270 1.262 . S
C277 O278 1.232 . S
O278 C277 1.232 . S
C279 O271 1.260 . S
C279 O272 1.257 . S
Zn280 O283 2.031 1_554 S
Zn280 O285 2.049 . S
Zn280 O290 2.067 . S
Zn281 O282 1.962 1_554 S
Zn281 O284 1.986 . S
Zn281 O286 1.996 . S
Zn281 O289 1.943 . S
O282 Zn281 1.962 1_556 S
O282 C287 1.254 . S
O283 Zn280 2.031 1_556 S
O283 C287 1.269 . S
O284 Zn281 1.986 . S
O284 C291 1.262 . S
O285 Zn280 2.049 . S
O285 C293 1.260 . S
O286 Zn281 1.996 . S
O286 C293 1.257 . S
C287 O282 1.254 . S
C287 O283 1.269 . S
C288 O289 1.249 . S
C288 O290 1.270 . S
O289 Zn281 1.943 . S
O289 C288 1.249 . S
O290 Zn280 2.067 . S
O290 C288 1.270 . S
C291 O284 1.262 . S
C291 O292 1.232 1_554 S
O292 C291 1.232 1_556 S
C293 O285 1.260 . S
C293 O286 1.257 . S
Zn294 O297 2.031 . S
Zn294 O299 2.049 . S
Zn294 O304 2.067 . S
Zn295 O296 1.962 . S
Zn295 O298 1.986 . S
Zn295 O300 1.996 . S
Zn295 O303 1.943 . S
O296 Zn295 1.962 . S
O296 C301 1.254 . S
O297 Zn294 2.031 . S
O297 C301 1.269 . S
O298 Zn295 1.986 . S
O298 C305 1.262 . S
O299 Zn294 2.049 . S
O299 C307 1.260 . S
O300 Zn295 1.996 . S
O300 C307 1.257 . S
C301 O296 1.254 . S
C301 O297 1.269 . S
C302 O303 1.249 . S
C302 O304 1.270 . S
O303 Zn295 1.943 . S
O303 C302 1.249 . S
O304 Zn294 2.067 . S
O304 C302 1.270 . S
C305 O298 1.262 . S
C305 O306 1.232 . S
O306 C305 1.232 . S
C307 O299 1.260 . S
C307 O300 1.257 . S
Zn308 O311 2.031 . S
Zn308 O313 2.049 . S
Zn308 O318 2.067 . S
Zn309 O310 1.962 . S
Zn309 O312 1.986 . S
Zn309 O314 1.996 . S
Zn309 O317 1.943 . S
O310 Zn309 1.962 . S
O310 C315 1.254 . S
O311 Zn308 2.031 . S
O311 C315 1.269 . S
O312 Zn309 1.986 . S
O312 C319 1.262 . S
O313 Zn308 2.049 . S
O313 C321 1.260 . S
O314 Zn309 1.996 . S
O314 C321 1.257 . S
C315 O310 1.254 . S
C315 O311 1.269 . S
C316 O317 1.249 . S
C316 O318 1.270 . S
O317 Zn309 1.943 . S
O317 C316 1.249 . S
O318 Zn308 2.067 . S
O318 C316 1.270 . S
C319 O312 1.262 . S
C319 O320 1.232 . S
O320 C319 1.232 . S
C321 O313 1.260 . S
C321 O314 1.257 . S
Zn322 O325 2.031 . S
Zn322 O327 2.049 . S
Zn322 O332 2.067 . S
Zn323 O324 1.962 . S
Zn323 O326 1.986 . S
Zn323 O328 1.996 . S
Zn323 O331 1.943 . S
O324 Zn323 1.962 . S
O324 C329 1.254 . S
O325 Zn322 2.031 . S
O325 C329 1.269 . S
O326 Zn323 1.986 . S
O326 C333 1.262 . S
O327 Zn322 2.049 . S
O327 C335 1.260 . S
O328 Zn323 1.996 . S
O328 C335 1.257 . S
C329 O324 1.254 . S
C329 O325 1.269 . S
C330 O331 1.249 . S
C330 O332 1.270 . S
O331 Zn323 1.943 . S
O331 C330 1.249 . S
O332 Zn322 2.067 . S
O332 C330 1.270 . S
C333 O326 1.262 . S
C333 O334 1.232 . S
O334 C333 1.232 . S
C335 O327 1.260 . S
C335 O328 1.257 . S
Gd336 C339 2.818 1_454 S
Gd336 O356 2.361 1_554 S
Gd336 O358 2.448 1_454 S
Gd336 O359 2.506 1_455 S
Gd336 O360 2.435 1_554 S
Gd336 O361 2.717 1_554 S
Gd336 O363 2.395 1_545 S
Gd336 O367 2.327 . S
Gd337 C348 2.818 . S
Gd337 O357 2.395 . S
Gd337 O361 2.327 1_554 S
Gd337 O362 2.377 . S
Gd337 O364 2.448 . S
Gd337 O365 2.506 . S
Gd337 O366 2.435 . S
Gd337 O367 2.717 . S
C338 O356 1.225 1_554 S
C338 O357 1.240 . S
C339 Gd336 2.818 1_656 S
C339 C340 1.510 . S
C339 O358 1.249 . S
C339 O359 1.252 1_556 S
C340 C339 1.510 . S
C340 C341 1.404 . S
C340 C342 1.352 1_556 S
C341 C340 1.404 . S
C341 C345 1.389 . S
C341 H368 0.930 . S
C342 C340 1.352 1_554 S
C342 C344 1.374 . S
C342 H369 0.931 . S
C343 C344 1.359 1_556 S
C343 C345 1.364 . S
C344 C342 1.374 . S
C344 C343 1.359 1_554 S
C344 H370 0.931 . S
C345 C341 1.389 . S
C345 C343 1.364 . S
C345 H371 0.931 . S
C346 O360 1.256 . S
C346 O361 1.257 . S
C347 O362 1.240 1_565 S
C347 O363 1.240 . S
C348 Gd337 2.818 . S
C348 C349 1.510 . S
C348 O364 1.249 . S
C348 O365 1.252 . S
C349 C348 1.510 . S
C349 C350 1.404 . S
C349 C351 1.352 . S
C350 C349 1.404 . S
C350 C354 1.389 . S
C350 H372 0.930 . S
C351 C349 1.352 . S
C351 C353 1.374 . S
C351 H373 0.931 . S
C352 C353 1.359 . S
C352 C354 1.364 . S
C353 C351 1.374 . S
C353 C352 1.359 . S
C353 H374 0.931 1_545 S
C354 C350 1.389 . S
C354 C352 1.364 . S
C354 H375 0.931 . S
C355 O366 1.256 . S
C355 O367 1.257 . S
O356 Gd336 2.361 1_556 S
O356 C338 1.225 1_556 S
O357 Gd337 2.395 . S
O357 C338 1.240 . S
O358 Gd336 2.448 1_656 S
O358 C339 1.249 . S
O359 Gd336 2.506 1_655 S
O359 C339 1.252 1_554 S
O360 Gd336 2.435 1_556 S
O360 C346 1.256 . S
O361 Gd336 2.717 1_556 S
O361 Gd337 2.327 1_556 S
O361 C346 1.257 . S
O362 Gd337 2.377 . S
O362 C347 1.240 1_545 S
O363 Gd336 2.395 1_565 S
O363 C347 1.240 . S
O364 Gd337 2.448 . S
O364 C348 1.249 . S
O365 Gd337 2.506 . S
O365 C348 1.252 . S
O366 Gd337 2.435 . S
O366 C355 1.256 . S
O367 Gd336 2.327 . S
O367 Gd337 2.717 . S
O367 C355 1.257 . S
H368 C341 0.930 . S
H369 C342 0.931 . S
H370 C344 0.931 . S
H371 C345 0.931 . S
H372 C350 0.930 . S
H373 C351 0.931 . S
H374 C353 0.931 1_565 S
H375 C354 0.931 . S
Gd376 C379 2.818 . S
Gd376 O396 2.377 . S
Gd376 O398 2.448 . S
Gd376 O399 2.506 . S
Gd376 O400 2.435 . S
Gd376 O401 2.717 . S
Gd376 O403 2.395 . S
Gd376 O407 2.327 . S
Gd377 C388 2.818 . S
Gd377 O397 2.395 . S
Gd377 O401 2.327 . S
Gd377 O402 2.377 . S
Gd377 O404 2.448 . S
Gd377 O405 2.506 . S
Gd377 O406 2.435 . S
Gd377 O407 2.717 . S
C378 O396 1.240 . S
C378 O397 1.240 . S
C379 Gd376 2.818 . S
C379 C380 1.510 . S
C379 O398 1.249 . S
C379 O399 1.252 . S
C380 C379 1.510 . S
C380 C381 1.404 . S
C380 C382 1.352 . S
C381 C380 1.404 . S
C381 C385 1.389 . S
C381 H408 0.930 . S
C382 C380 1.352 . S
C382 C384 1.374 . S
C382 H409 0.931 . S
C383 C384 1.359 . S
C383 C385 1.364 . S
C384 C382 1.374 . S
C384 C383 1.359 . S
C384 H410 0.931 . S
C385 C381 1.389 . S
C385 C383 1.364 . S
C385 H411 0.931 . S
C386 O400 1.256 . S
C386 O401 1.257 . S
C387 O402 1.240 . S
C387 O403 1.240 . S
C388 Gd377 2.818 . S
C388 C389 1.510 . S
C388 O404 1.249 . S
C388 O405 1.252 . S
C389 C388 1.510 . S
C389 C390 1.404 . S
C389 C391 1.352 . S
C390 C389 1.404 . S
C390 C394 1.389 . S
C390 H412 0.930 . S
C391 C389 1.352 . S
C391 C393 1.374 . S
C391 H413 0.931 . S
C392 C393 1.359 . S
C392 C394 1.364 . S
C393 C391 1.374 . S
C393 C392 1.359 . S
C393 H414 0.931 . S
C394 C390 1.389 . S
C394 C392 1.364 . S
C394 H415 0.931 . S
C395 O406 1.256 . S
C395 O407 1.257 . S
O396 Gd376 2.377 . S
O396 C378 1.240 . S
O397 Gd377 2.395 . S
O397 C378 1.240 . S
O398 Gd376 2.448 . S
O398 C379 1.249 . S
O399 Gd376 2.506 . S
O399 C379 1.252 . S
O400 Gd376 2.435 . S
O400 C386 1.256 . S
O401 Gd376 2.717 . S
O401 Gd377 2.327 . S
O401 C386 1.257 . S
O402 Gd377 2.377 . S
O402 C387 1.240 . S
O403 Gd376 2.395 . S
O403 C387 1.240 . S
O404 Gd377 2.448 . S
O404 C388 1.249 . S
O405 Gd377 2.506 . S
O405 C388 1.252 . S
O406 Gd377 2.435 . S
O406 C395 1.256 . S
O407 Gd376 2.327 . S
O407 Gd377 2.717 . S
O407 C395 1.257 . S
H408 C381 0.930 . S
H409 C382 0.931 . S
H410 C384 0.931 . S
H411 C385 0.931 . S
H412 C390 0.930 . S
H413 C391 0.931 . S
H414 C393 0.931 . S
H415 C394 0.931 . S
Gd416 C419 2.818 . S
Gd416 O436 2.397 . S
Gd416 O438 2.448 . S
Gd416 O439 2.506 . S
Gd416 O440 2.435 . S
Gd416 O441 2.717 . S
Gd416 O443 2.395 . S
Gd416 O447 2.327 . S
Gd417 C428 2.818 . S
Gd417 O437 2.395 1_545 S
Gd417 O441 2.327 . S
Gd417 O442 2.377 . S
Gd417 O444 2.448 . S
Gd417 O445 2.506 . S
Gd417 O446 2.435 . S
Gd417 O447 2.717 . S
C418 O436 1.228 1_565 S
C418 O437 1.240 . S
C419 Gd416 2.818 . S
C419 C420 1.467 1_545 S
C419 O438 1.249 . S
C419 O439 1.252 . S
C420 C419 1.467 1_565 S
C420 C421 1.405 . S
C420 C422 1.395 . S
C421 C420 1.405 . S
C421 C425 1.389 . S
C421 H448 0.930 1_565 S
C422 C420 1.395 . S
C422 C424 1.374 . S
C422 H449 0.931 . S
C423 C424 1.359 . S
C423 C425 1.364 . S
C424 C422 1.374 . S
C424 C423 1.359 . S
C424 H450 0.931 . S
C425 C421 1.389 . S
C425 C423 1.364 . S
C425 H451 0.931 . S
C426 O440 1.256 . S
C426 O441 1.257 . S
C427 O442 1.240 . S
C427 O443 1.240 . S
C428 Gd417 2.818 . S
C428 C429 1.510 . S
C428 O444 1.249 . S
C428 O445 1.252 . S
C429 C428 1.510 . S
C429 C430 1.404 . S
C429 C431 1.352 . S
C430 C429 1.404 . S
C430 C434 1.389 . S
C430 H452 0.930 . S
C431 C429 1.352 . S
C431 C433 1.374 . S
C431 H453 0.931 . S
C432 C433 1.359 . S
C432 C434 1.364 . S
C433 C431 1.374 . S
C433 C432 1.359 . S
C433 H454 0.931 . S
C434 C430 1.389 . S
C434 C432 1.364 . S
C434 H455 0.931 . S
C435 O446 1.256 . S
C435 O447 1.257 . S
O436 Gd416 2.397 . S
O436 C418 1.228 1_545 S
O437 Gd417 2.395 1_565 S
O437 C418 1.240 . S
O438 Gd416 2.448 . S
O438 C419 1.249 . S
O439 Gd416 2.506 . S
O439 C419 1.252 . S
O440 Gd416 2.435 . S
O440 C426 1.256 . S
O441 Gd416 2.717 . S
O441 Gd417 2.327 . S
O441 C426 1.257 . S
O442 Gd417 2.377 . S
O442 C427 1.240 . S
O443 Gd416 2.395 . S
O443 C427 1.240 . S
O444 Gd417 2.448 . S
O444 C428 1.249 . S
O445 Gd417 2.506 . S
O445 C428 1.252 . S
O446 Gd417 2.435 . S
O446 C435 1.256 . S
O447 Gd416 2.327 . S
O447 Gd417 2.717 . S
O447 C435 1.257 . S
H448 C421 0.930 1_545 S
H449 C422 0.931 . S
H450 C424 0.931 . S
H451 C425 0.931 . S
H452 C430 0.930 . S
H453 C431 0.931 . S
H454 C433 0.931 . S
H455 C434 0.931 . S
Gd456 C459 2.818 . S
Gd456 O476 2.377 . S
Gd456 O478 2.448 . S
Gd456 O479 2.506 . S
Gd456 O480 2.435 . S
Gd456 O481 2.717 . S
Gd456 O483 2.395 . S
Gd456 O487 2.327 . S
Gd457 C468 2.818 . S
Gd457 O477 2.395 . S
Gd457 O481 2.327 . S
Gd457 O482 2.377 . S
Gd457 O484 2.448 . S
Gd457 O485 2.506 . S
Gd457 O486 2.435 . S
Gd457 O487 2.717 . S
C458 O476 1.240 . S
C458 O477 1.240 . S
C459 Gd456 2.818 . S
C459 C460 1.510 . S
C459 O478 1.249 . S
C459 O479 1.252 . S
C460 C459 1.510 . S
C460 C461 1.404 . S
C460 C462 1.352 . S
C461 C460 1.404 . S
C461 C465 1.389 . S
C461 H488 0.930 . S
C462 C460 1.352 . S
C462 C464 1.374 . S
C462 H489 0.931 . S
C463 C464 1.359 . S
C463 C465 1.364 . S
C464 C462 1.374 . S
C464 C463 1.359 . S
C464 H490 0.931 . S
C465 C461 1.389 . S
C465 C463 1.364 . S
C465 H491 0.931 . S
C466 O480 1.256 . S
C466 O481 1.257 . S
C467 O482 1.240 . S
C467 O483 1.240 . S
C468 Gd457 2.818 . S
C468 C469 1.510 . S
C468 O484 1.249 . S
C468 O485 1.252 . S
C469 C468 1.510 . S
C469 C470 1.404 . S
C469 C471 1.352 . S
C470 C469 1.404 . S
C470 C474 1.389 . S
C470 H492 0.930 . S
C471 C469 1.352 . S
C471 C473 1.374 . S
C471 H493 0.931 . S
C472 C473 1.359 . S
C472 C474 1.364 . S
C473 C471 1.374 . S
C473 C472 1.359 . S
C473 H494 0.931 . S
C474 C470 1.389 . S
C474 C472 1.364 . S
C474 H495 0.931 . S
C475 O486 1.256 . S
C475 O487 1.257 . S
O476 Gd456 2.377 . S
O476 C458 1.240 . S
O477 Gd457 2.395 . S
O477 C458 1.240 . S
O478 Gd456 2.448 . S
O478 C459 1.249 . S
O479 Gd456 2.506 . S
O479 C459 1.252 . S
O480 Gd456 2.435 . S
O480 C466 1.256 . S
O481 Gd456 2.717 . S
O481 Gd457 2.327 . S
O481 C466 1.257 . S
O482 Gd457 2.377 . S
O482 C467 1.240 . S
O483 Gd456 2.395 . S
O483 C467 1.240 . S
O484 Gd457 2.448 . S
O484 C468 1.249 . S
O485 Gd457 2.506 . S
O485 C468 1.252 . S
O486 Gd457 2.435 . S
O486 C475 1.256 . S
O487 Gd456 2.327 . S
O487 Gd457 2.717 . S
O487 C475 1.257 . S
H488 C461 0.930 . S
H489 C462 0.931 . S
H490 C464 0.931 . S
H491 C465 0.931 . S
H492 C470 0.930 . S
H493 C471 0.931 . S
H494 C473 0.931 . S
H495 C474 0.931 . S
Gd496 C499 2.818 . S
Gd496 O516 2.377 . S
Gd496 O518 2.448 . S
Gd496 O519 2.506 . S
Gd496 O520 2.435 . S
Gd496 O521 2.717 . S
Gd496 O523 2.395 . S
Gd496 O527 2.327 . S
Gd497 C508 2.818 1_545 S
Gd497 O517 2.395 . S
Gd497 O521 2.327 . S
Gd497 O522 2.377 . S
Gd497 O524 2.448 1_545 S
Gd497 O525 2.506 1_545 S
Gd497 O526 2.435 . S
Gd497 O527 2.717 . S
C498 O516 1.240 . S
C498 O517 1.240 . S
C499 Gd496 2.818 . S
C499 C500 1.510 . S
C499 O518 1.249 . S
C499 O519 1.252 . S
C500 C499 1.510 . S
C500 C501 1.404 . S
C500 C502 1.352 . S
C501 C500 1.404 . S
C501 C505 1.389 . S
C501 H528 0.930 . S
C502 C500 1.352 . S
C502 C504 1.374 . S
C502 H529 0.931 . S
C503 C504 1.359 . S
C503 C505 1.364 . S
C504 C502 1.374 . S
C504 C503 1.359 . S
C504 H530 0.931 . S
C505 C501 1.389 . S
C505 C503 1.364 . S
C505 H531 0.931 . S
C506 O520 1.256 . S
C506 O521 1.257 . S
C507 O522 1.240 . S
C507 O523 1.240 . S
C508 Gd497 2.818 1_565 S
C508 C509 1.510 . S
C508 O524 1.249 . S
C508 O525 1.252 . S
C509 C508 1.510 . S
C509 C510 1.404 . S
C509 C511 1.352 . S
C510 C509 1.404 . S
C510 C514 1.389 . S
C510 H532 0.930 . S
C511 C509 1.352 . S
C511 C513 1.374 . S
C511 H533 0.931 . S
C512 C513 1.359 . S
C512 C514 1.364 . S
C513 C511 1.374 . S
C513 C512 1.359 . S
C513 H534 0.931 . S
C514 C510 1.389 . S
C514 C512 1.364 . S
C514 H535 0.931 . S
C515 O526 1.256 . S
C515 O527 1.257 . S
O516 Gd496 2.377 . S
O516 C498 1.240 . S
O517 Gd497 2.395 . S
O517 C498 1.240 . S
O518 Gd496 2.448 . S
O518 C499 1.249 . S
O519 Gd496 2.506 . S
O519 C499 1.252 . S
O520 Gd496 2.435 . S
O520 C506 1.256 . S
O521 Gd496 2.717 . S
O521 Gd497 2.327 . S
O521 C506 1.257 . S
O522 Gd497 2.377 . S
O522 C507 1.240 . S
O523 Gd496 2.395 . S
O523 C507 1.240 . S
O524 Gd497 2.448 1_565 S
O524 C508 1.249 . S
O525 Gd497 2.506 1_565 S
O525 C508 1.252 . S
O526 Gd497 2.435 . S
O526 C515 1.256 . S
O527 Gd496 2.327 . S
O527 Gd497 2.717 . S
O527 C515 1.257 . S
H528 C501 0.930 . S
H529 C502 0.931 . S
H530 C504 0.931 . S
H531 C505 0.931 . S
H532 C510 0.930 . S
H533 C511 0.931 . S
H534 C513 0.931 . S
H535 C514 0.931 . S
Gd536 C539 2.818 . S
Gd536 O556 2.377 . S
Gd536 O558 2.448 . S
Gd536 O559 2.506 . S
Gd536 O560 2.435 . S
Gd536 O561 2.717 . S
Gd536 O563 2.395 . S
Gd536 O567 2.327 . S
Gd537 C548 2.818 . S
Gd537 O557 2.395 . S
Gd537 O561 2.327 . S
Gd537 O562 2.377 . S
Gd537 O564 2.448 . S
Gd537 O565 2.506 . S
Gd537 O566 2.435 . S
Gd537 O567 2.717 . S
C538 O556 1.240 . S
C538 O557 1.240 . S
C539 Gd536 2.818 . S
C539 C540 1.510 . S
C539 O558 1.249 . S
C539 O559 1.252 . S
C540 C539 1.510 . S
C540 C541 1.404 . S
C540 C542 1.352 . S
C541 C540 1.404 . S
C541 C545 1.389 . S
C541 H568 0.930 . S
C542 C540 1.352 . S
C542 C544 1.374 . S
C542 H569 0.931 . S
C543 C544 1.359 . S
C543 C545 1.364 . S
C544 C542 1.374 . S
C544 C543 1.359 . S
C544 H570 0.931 . S
C545 C541 1.389 . S
C545 C543 1.364 . S
C545 H571 0.931 . S
C546 O560 1.256 . S
C546 O561 1.257 . S
C547 O562 1.240 . S
C547 O563 1.240 . S
C548 Gd537 2.818 . S
C548 C549 1.510 . S
C548 O564 1.249 . S
C548 O565 1.252 . S
C549 C548 1.510 . S
C549 C550 1.404 . S
C549 C551 1.352 . S
C550 C549 1.404 . S
C550 C554 1.389 . S
C550 H572 0.930 . S
C551 C549 1.352 . S
C551 C553 1.374 . S
C551 H573 0.931 . S
C552 C553 1.359 . S
C552 C554 1.364 . S
C553 C551 1.374 . S
C553 C552 1.359 . S
C553 H574 0.931 . S
C554 C550 1.389 . S
C554 C552 1.364 . S
C554 H575 0.931 . S
C555 O566 1.256 . S
C555 O567 1.257 . S
O556 Gd536 2.377 . S
O556 C538 1.240 . S
O557 Gd537 2.395 . S
O557 C538 1.240 . S
O558 Gd536 2.448 . S
O558 C539 1.249 . S
O559 Gd536 2.506 . S
O559 C539 1.252 . S
O560 Gd536 2.435 . S
O560 C546 1.256 . S
O561 Gd536 2.717 . S
O561 Gd537 2.327 . S
O561 C546 1.257 . S
O562 Gd537 2.377 . S
O562 C547 1.240 . S
O563 Gd536 2.395 . S
O563 C547 1.240 . S
O564 Gd537 2.448 . S
O564 C548 1.249 . S
O565 Gd537 2.506 . S
O565 C548 1.252 . S
O566 Gd537 2.435 . S
O566 C555 1.256 . S
O567 Gd536 2.327 . S
O567 Gd537 2.717 . S
O567 C555 1.257 . S
H568 C541 0.930 . S
H569 C542 0.931 . S
H570 C544 0.931 . S
H571 C545 0.931 . S
H572 C550 0.930 . S
H573 C551 0.931 . S
H574 C553 0.931 . S
H575 C554 0.931 . S
Gd576 C579 2.818 . S
Gd576 O596 2.377 . S
Gd576 O598 2.448 . S
Gd576 O599 2.506 . S
Gd576 O600 2.435 . S
Gd576 O601 2.717 1_554 S
Gd576 O603 2.395 . S
Gd576 O607 2.327 . S
Gd577 C588 2.818 . S
Gd577 O597 2.395 . S
Gd577 O601 2.327 . S
Gd577 O602 2.377 . S
Gd577 O604 2.448 . S
Gd577 O605 2.506 . S
Gd577 O606 2.435 . S
Gd577 O607 2.717 1_556 S
C578 O596 1.240 . S
C578 O597 1.240 1_554 S
C579 Gd576 2.818 . S
C579 C580 1.510 . S
C579 O598 1.249 . S
C579 O599 1.252 . S
C580 C579 1.510 . S
C580 C581 1.410 1_545 S
C580 C582 1.352 . S
C581 C580 1.410 1_565 S
C581 C585 1.388 . S
C581 H608 0.926 . S
C582 C580 1.352 . S
C582 C584 1.374 . S
C582 H609 0.931 . S
C583 C584 1.359 . S
C583 C585 1.364 1_545 S
C584 C582 1.374 . S
C584 C583 1.359 . S
C584 H610 0.931 . S
C585 C581 1.388 . S
C585 C583 1.364 1_565 S
C585 H611 0.931 . S
C586 O600 1.256 1_556 S
C586 O601 1.257 . S
C587 O602 1.240 1_554 S
C587 O603 1.240 . S
C588 Gd577 2.818 . S
C588 C589 1.510 . S
C588 O604 1.249 . S
C588 O605 1.252 . S
C589 C588 1.510 . S
C589 C590 1.404 . S
C589 C591 1.352 . S
C590 C589 1.404 . S
C590 C594 1.389 . S
C590 H612 0.930 . S
C591 C589 1.352 . S
C591 C593 1.374 . S
C591 H613 0.931 . S
C592 C593 1.359 . S
C592 C594 1.364 . S
C593 C591 1.374 . S
C593 C592 1.359 . S
C593 H614 0.931 . S
C594 C590 1.389 . S
C594 C592 1.364 . S
C594 H615 0.931 . S
C595 O606 1.256 1_554 S
C595 O607 1.257 . S
O596 Gd576 2.377 . S
O596 C578 1.240 . S
O597 Gd577 2.395 . S
O597 C578 1.240 1_556 S
O598 Gd576 2.448 . S
O598 C579 1.249 . S
O599 Gd576 2.506 . S
O599 C579 1.252 . S
O600 Gd576 2.435 . S
O600 C586 1.256 1_554 S
O601 Gd576 2.717 1_556 S
O601 Gd577 2.327 . S
O601 C586 1.257 . S
O602 Gd577 2.377 . S
O602 C587 1.240 1_556 S
O603 Gd576 2.395 . S
O603 C587 1.240 . S
O604 Gd577 2.448 . S
O604 C588 1.249 . S
O605 Gd577 2.506 . S
O605 C588 1.252 . S
O606 Gd577 2.435 . S
O606 C595 1.256 1_556 S
O607 Gd576 2.327 . S
O607 Gd577 2.717 1_554 S
O607 C595 1.257 . S
H608 C581 0.926 . S
H609 C582 0.931 . S
H610 C584 0.931 . S
H611 C585 0.931 . S
H612 C590 0.930 . S
H613 C591 0.931 . S
H614 C593 0.931 . S
H615 C594 0.931 . S
Gd616 C619 2.818 . S
Gd616 O636 2.377 . S
Gd616 O638 2.448 . S
Gd616 O639 2.506 . S
Gd616 O640 2.435 . S
Gd616 O641 2.717 . S
Gd616 O643 2.395 . S
Gd616 O647 2.327 . S
Gd617 C628 2.818 . S
Gd617 O637 2.395 . S
Gd617 O641 2.327 . S
Gd617 O642 2.377 . S
Gd617 O644 2.448 . S
Gd617 O645 2.506 . S
Gd617 O646 2.435 . S
Gd617 O647 2.717 . S
C618 O636 1.240 . S
C618 O637 1.240 . S
C619 Gd616 2.818 . S
C619 C620 1.510 . S
C619 O638 1.249 . S
C619 O639 1.252 . S
C620 C619 1.510 . S
C620 C621 1.404 . S
C620 C622 1.352 . S
C621 C620 1.404 . S
C621 C625 1.389 . S
C621 H648 0.930 . S
C622 C620 1.352 . S
C622 C624 1.374 . S
C622 H649 0.931 . S
C623 C624 1.359 . S
C623 C625 1.364 . S
C624 C622 1.374 . S
C624 C623 1.359 . S
C624 H650 0.931 . S
C625 C621 1.389 . S
C625 C623 1.364 . S
C625 H651 0.931 . S
C626 O640 1.256 . S
C626 O641 1.257 . S
C627 O642 1.240 . S
C627 O643 1.240 . S
C628 Gd617 2.818 . S
C628 C629 1.510 . S
C628 O644 1.249 . S
C628 O645 1.252 . S
C629 C628 1.510 . S
C629 C630 1.404 . S
C629 C631 1.352 . S
C630 C629 1.404 . S
C630 C634 1.389 . S
C630 H652 0.930 . S
C631 C629 1.352 . S
C631 C633 1.374 . S
C631 H653 0.931 . S
C632 C633 1.359 . S
C632 C634 1.364 . S
C633 C631 1.374 . S
C633 C632 1.359 . S
C633 H654 0.931 . S
C634 C630 1.389 . S
C634 C632 1.364 . S
C634 H655 0.931 . S
C635 O646 1.256 . S
C635 O647 1.257 . S
O636 Gd616 2.377 . S
O636 C618 1.240 . S
O637 Gd617 2.395 . S
O637 C618 1.240 . S
O638 Gd616 2.448 . S
O638 C619 1.249 . S
O639 Gd616 2.506 . S
O639 C619 1.252 . S
O640 Gd616 2.435 . S
O640 C626 1.256 . S
O641 Gd616 2.717 . S
O641 Gd617 2.327 . S
O641 C626 1.257 . S
O642 Gd617 2.377 . S
O642 C627 1.240 . S
O643 Gd616 2.395 . S
O643 C627 1.240 . S
O644 Gd617 2.448 . S
O644 C628 1.249 . S
O645 Gd617 2.506 . S
O645 C628 1.252 . S
O646 Gd617 2.435 . S
O646 C635 1.256 . S
O647 Gd616 2.327 . S
O647 Gd617 2.717 . S
O647 C635 1.257 . S
H648 C621 0.930 . S
H649 C622 0.931 . S
H650 C624 0.931 . S
H651 C625 0.931 . S
H652 C630 0.930 . S
H653 C631 0.931 . S
H654 C633 0.931 . S
H655 C634 0.931 . S
Gd656 C659 2.818 1_554 S
Gd656 O676 2.377 1_554 S
Gd656 O678 2.448 . S
Gd656 O679 2.506 1_554 S
Gd656 O680 2.435 . S
Gd656 O681 2.717 . S
Gd656 O683 2.395 . S
Gd656 O687 2.327 . S
Gd657 C668 2.818 1_556 S
Gd657 O677 2.395 . S
Gd657 O681 2.327 1_556 S
Gd657 O682 2.377 1_556 S
Gd657 O684 2.448 1_556 S
Gd657 O685 2.506 1_556 S
Gd657 O686 2.426 . S
Gd657 O687 2.717 1_556 S
C658 O676 1.240 . S
C658 O677 1.240 . S
C659 Gd656 2.818 1_556 S
C659 C660 1.510 . S
C659 O678 1.249 1_556 S
C659 O679 1.252 . S
C660 C659 1.510 . S
C660 C661 1.404 . S
C660 C662 1.352 . S
C661 C660 1.404 . S
C661 C665 1.389 . S
C661 H688 0.957 . S
C662 C660 1.352 . S
C662 C664 1.374 . S
C662 H689 0.931 . S
C663 C664 1.359 . S
C663 C665 1.364 . S
C664 C662 1.374 . S
C664 C663 1.359 . S
C664 H690 0.931 . S
C665 C661 1.389 . S
C665 C663 1.364 . S
C665 H691 0.931 . S
C666 O680 1.256 . S
C666 O681 1.257 . S
C667 O682 1.240 . S
C667 O683 1.240 . S
C668 Gd657 2.818 1_554 S
C668 C669 1.510 . S
C668 O684 1.249 . S
C668 O685 1.252 . S
C669 C668 1.510 . S
C669 C670 1.404 . S
C669 C671 1.352 . S
C670 C669 1.404 . S
C670 C674 1.389 . S
C670 H692 0.930 . S
C671 C669 1.352 . S
C671 C673 1.374 . S
C671 H693 0.931 . S
C672 C673 1.359 . S
C672 C674 1.364 . S
C673 C671 1.374 . S
C673 C672 1.359 . S
C673 H694 0.931 . S
C674 C670 1.389 . S
C674 C672 1.364 . S
C674 H695 0.931 . S
C675 O686 1.257 1_554 S
C675 O687 1.257 . S
O676 Gd656 2.377 1_556 S
O676 C658 1.240 . S
O677 Gd657 2.395 . S
O677 C658 1.240 . S
O678 Gd656 2.448 . S
O678 C659 1.249 1_554 S
O679 Gd656 2.506 1_556 S
O679 C659 1.252 . S
O680 Gd656 2.435 . S
O680 C666 1.256 . S
O681 Gd656 2.717 . S
O681 Gd657 2.327 1_554 S
O681 C666 1.257 . S
O682 Gd657 2.377 1_554 S
O682 C667 1.240 . S
O683 Gd656 2.395 . S
O683 C667 1.240 . S
O684 Gd657 2.448 1_554 S
O684 C668 1.249 . S
O685 Gd657 2.506 1_554 S
O685 C668 1.252 . S
O686 Gd657 2.426 . S
O686 C675 1.257 1_556 S
O687 Gd656 2.327 . S
O687 Gd657 2.717 1_554 S
O687 C675 1.257 . S
H688 C661 0.957 . S
H689 C662 0.931 . S
H690 C664 0.931 . S
H691 C665 0.931 . S
H692 C670 0.930 . S
H693 C671 0.931 . S
H694 C673 0.931 . S
H695 C674 0.931 . S
Gd696 C699 2.818 . S
Gd696 O716 2.377 . S
Gd696 O718 2.448 . S
Gd696 O719 2.506 . S
Gd696 O720 2.435 . S
Gd696 O721 2.717 . S
Gd696 O723 2.395 . S
Gd696 O727 2.327 . S
Gd697 C708 2.818 . S
Gd697 O717 2.395 . S
Gd697 O721 2.327 . S
Gd697 O722 2.377 . S
Gd697 O724 2.448 . S
Gd697 O725 2.506 . S
Gd697 O726 2.435 . S
Gd697 O727 2.717 . S
C698 O716 1.240 . S
C698 O717 1.240 . S
C699 Gd696 2.818 . S
C699 C700 1.510 . S
C699 O718 1.249 . S
C699 O719 1.252 . S
C700 C699 1.510 . S
C700 C701 1.404 . S
C700 C702 1.352 . S
C701 C700 1.404 . S
C701 C705 1.389 . S
C701 H728 0.930 . S
C702 C700 1.352 . S
C702 C704 1.374 . S
C702 H729 0.931 . S
C703 C704 1.359 . S
C703 C705 1.364 . S
C704 C702 1.374 . S
C704 C703 1.359 . S
C704 H730 0.931 . S
C705 C701 1.389 . S
C705 C703 1.364 . S
C705 H731 0.931 . S
C706 O720 1.256 . S
C706 O721 1.257 . S
C707 O722 1.240 . S
C707 O723 1.240 . S
C708 Gd697 2.818 . S
C708 C709 1.510 . S
C708 O724 1.249 . S
C708 O725 1.252 . S
C709 C708 1.510 . S
C709 C710 1.404 . S
C709 C711 1.352 . S
C710 C709 1.404 . S
C710 C714 1.389 . S
C710 H732 0.930 . S
C711 C709 1.352 . S
C711 C713 1.374 . S
C711 H733 0.931 . S
C712 C713 1.359 . S
C712 C714 1.364 . S
C713 C711 1.374 . S
C713 C712 1.359 . S
C713 H734 0.931 . S
C714 C710 1.389 . S
C714 C712 1.364 . S
C714 H735 0.931 . S
C715 O726 1.256 . S
C715 O727 1.257 . S
O716 Gd696 2.377 . S
O716 C698 1.240 . S
O717 Gd697 2.395 . S
O717 C698 1.240 . S
O718 Gd696 2.448 . S
O718 C699 1.249 . S
O719 Gd696 2.506 . S
O719 C699 1.252 . S
O720 Gd696 2.435 . S
O720 C706 1.256 . S
O721 Gd696 2.717 . S
O721 Gd697 2.327 . S
O721 C706 1.257 . S
O722 Gd697 2.377 . S
O722 C707 1.240 . S
O723 Gd696 2.395 . S
O723 C707 1.240 . S
O724 Gd697 2.448 . S
O724 C708 1.249 . S
O725 Gd697 2.506 . S
O725 C708 1.252 . S
O726 Gd697 2.435 . S
O726 C715 1.256 . S
O727 Gd696 2.327 . S
O727 Gd697 2.717 . S
O727 C715 1.257 . S
H728 C701 0.930 . S
H729 C702 0.931 . S
H730 C704 0.931 . S
H731 C705 0.931 . S
H732 C710 0.930 . S
H733 C711 0.931 . S
H734 C713 0.931 . S
H735 C714 0.931 . S
Gd736 C739 2.818 . S
Gd736 O756 2.377 . S
Gd736 O758 2.448 . S
Gd736 O759 2.506 . S
Gd736 O760 2.435 . S
Gd736 O761 2.717 . S
Gd736 O763 2.395 . S
Gd736 O767 2.327 . S
Gd737 C748 2.818 . S
Gd737 O757 2.444 . S
Gd737 O761 2.327 . S
Gd737 O762 2.377 . S
Gd737 O764 2.448 . S
Gd737 O765 2.506 . S
Gd737 O766 2.435 . S
Gd737 O767 2.717 . S
C738 O756 1.240 1_655 S
C738 O757 1.231 1_655 S
C739 Gd736 2.818 . S
C739 C740 1.510 . S
C739 O758 1.249 . S
C739 O759 1.252 . S
C740 C739 1.510 . S
C740 C741 1.404 . S
C740 C742 1.352 1_455 S
C741 C740 1.404 . S
C741 C745 1.389 1_455 S
C741 H768 0.930 . S
C742 C740 1.352 1_655 S
C742 C744 1.374 . S
C742 H769 0.931 . S
C743 C744 1.359 . S
C743 C745 1.364 . S
C744 C742 1.374 . S
C744 C743 1.359 . S
C744 H770 0.931 . S
C745 C741 1.389 1_655 S
C745 C743 1.364 . S
C745 H771 0.931 . S
C746 O760 1.256 . S
C746 O761 1.257 . S
C747 O762 1.240 . S
C747 O763 1.240 . S
C748 Gd737 2.818 . S
C748 C749 1.510 . S
C748 O764 1.249 . S
C748 O765 1.252 . S
C749 C748 1.510 . S
C749 C750 1.404 . S
C749 C751 1.352 . S
C750 C749 1.404 . S
C750 C754 1.389 . S
C750 H772 0.930 . S
C751 C749 1.352 . S
C751 C753 1.374 . S
C751 H773 0.931 . S
C752 C753 1.359 . S
C752 C754 1.364 . S
C753 C751 1.374 . S
C753 C752 1.359 . S
C753 H774 0.931 . S
C754 C750 1.389 . S
C754 C752 1.364 . S
C754 H775 0.931 . S
C755 O766 1.256 . S
C755 O767 1.257 . S
O756 Gd736 2.377 . S
O756 C738 1.240 1_455 S
O757 Gd737 2.444 . S
O757 C738 1.231 1_455 S
O758 Gd736 2.448 . S
O758 C739 1.249 . S
O759 Gd736 2.506 . S
O759 C739 1.252 . S
O760 Gd736 2.435 . S
O760 C746 1.256 . S
O761 Gd736 2.717 . S
O761 Gd737 2.327 . S
O761 C746 1.257 . S
O762 Gd737 2.377 . S
O762 C747 1.240 . S
O763 Gd736 2.395 . S
O763 C747 1.240 . S
O764 Gd737 2.448 . S
O764 C748 1.249 . S
O765 Gd737 2.506 . S
O765 C748 1.252 . S
O766 Gd737 2.435 . S
O766 C755 1.256 . S
O767 Gd736 2.327 . S
O767 Gd737 2.717 . S
O767 C755 1.257 . S
H768 C741 0.930 . S
H769 C742 0.931 . S
H770 C744 0.931 . S
H771 C745 0.931 . S
H772 C750 0.930 . S
H773 C751 0.931 . S
H774 C753 0.931 . S
H775 C754 0.931 . S
Gd776 C779 2.818 . S
Gd776 O796 2.377 . S
Gd776 O798 2.448 . S
Gd776 O799 2.506 . S
Gd776 O800 2.435 . S
Gd776 O801 2.717 . S
Gd776 O803 2.395 . S
Gd776 O807 2.327 . S
Gd777 C788 2.818 . S
Gd777 O797 2.395 . S
Gd777 O801 2.327 . S
Gd777 O802 2.377 . S
Gd777 O804 2.448 . S
Gd777 O805 2.506 . S
Gd777 O806 2.435 . S
Gd777 O807 2.717 . S
C778 O796 1.240 . S
C778 O797 1.240 . S
C779 Gd776 2.818 . S
C779 C780 1.510 . S
C779 O798 1.249 . S
C779 O799 1.252 . S
C780 C779 1.510 . S
C780 C781 1.404 . S
C780 C782 1.352 . S
C781 C780 1.404 . S
C781 C785 1.389 . S
C781 H808 0.930 . S
C782 C780 1.352 . S
C782 C784 1.374 . S
C782 H809 0.931 . S
C783 C784 1.359 . S
C783 C785 1.364 . S
C784 C782 1.374 . S
C784 C783 1.359 . S
C784 H810 0.931 . S
C785 C781 1.389 . S
C785 C783 1.364 . S
C785 H811 0.931 . S
C786 O800 1.256 . S
C786 O801 1.257 . S
C787 O802 1.240 . S
C787 O803 1.240 . S
C788 Gd777 2.818 . S
C788 C789 1.510 . S
C788 O804 1.249 . S
C788 O805 1.252 . S
C789 C788 1.510 . S
C789 C790 1.404 . S
C789 C791 1.352 . S
C790 C789 1.404 . S
C790 C794 1.389 . S
C790 H812 0.930 . S
C791 C789 1.352 . S
C791 C793 1.374 . S
C791 H813 0.931 . S
C792 C793 1.359 . S
C792 C794 1.364 . S
C793 C791 1.374 . S
C793 C792 1.359 . S
C793 H814 0.931 . S
C794 C790 1.389 . S
C794 C792 1.364 . S
C794 H815 0.931 . S
C795 O806 1.256 . S
C795 O807 1.257 . S
O796 Gd776 2.377 . S
O796 C778 1.240 . S
O797 Gd777 2.395 . S
O797 C778 1.240 . S
O798 Gd776 2.448 . S
O798 C779 1.249 . S
O799 Gd776 2.506 . S
O799 C779 1.252 . S
O800 Gd776 2.435 . S
O800 C786 1.256 . S
O801 Gd776 2.717 . S
O801 Gd777 2.327 . S
O801 C786 1.257 . S
O802 Gd777 2.377 . S
O802 C787 1.240 . S
O803 Gd776 2.395 . S
O803 C787 1.240 . S
O804 Gd777 2.448 . S
O804 C788 1.249 . S
O805 Gd777 2.506 . S
O805 C788 1.252 . S
O806 Gd777 2.435 . S
O806 C795 1.256 . S
O807 Gd776 2.327 . S
O807 Gd777 2.717 . S
O807 C795 1.257 . S
H808 C781 0.930 . S
H809 C782 0.931 . S
H810 C784 0.931 . S
H811 C785 0.931 . S
H812 C790 0.930 . S
H813 C791 0.931 . S
H814 C793 0.931 . S
H815 C794 0.931 . S
Gd816 C819 2.818 . S
Gd816 O836 2.377 . S
Gd816 O838 2.448 . S
Gd816 O839 2.506 . S
Gd816 O840 2.435 . S
Gd816 O841 2.717 . S
Gd816 O843 2.395 . S
Gd816 O847 2.327 . S
Gd817 C828 2.818 . S
Gd817 O837 2.395 . S
Gd817 O841 2.327 . S
Gd817 O842 2.377 . S
Gd817 O844 2.448 . S
Gd817 O845 2.506 . S
Gd817 O846 2.435 . S
Gd817 O847 2.717 . S
C818 O836 1.240 . S
C818 O837 1.240 . S
C819 Gd816 2.818 . S
C819 C820 1.510 . S
C819 O838 1.249 . S
C819 O839 1.252 . S
C820 C819 1.510 . S
C820 C821 1.404 . S
C820 C822 1.352 . S
C821 C820 1.404 . S
C821 C825 1.389 . S
C821 H848 0.930 . S
C822 C820 1.352 . S
C822 C824 1.374 . S
C822 H849 0.931 . S
C823 C824 1.359 . S
C823 C825 1.364 . S
C824 C822 1.374 . S
C824 C823 1.359 . S
C824 H850 0.931 . S
C825 C821 1.389 . S
C825 C823 1.364 . S
C825 H851 0.931 . S
C826 O840 1.256 . S
C826 O841 1.257 . S
C827 O842 1.240 . S
C827 O843 1.240 . S
C828 Gd817 2.818 . S
C828 C829 1.510 . S
C828 O844 1.249 . S
C828 O845 1.252 . S
C829 C828 1.510 . S
C829 C830 1.404 . S
C829 C831 1.352 . S
C830 C829 1.404 . S
C830 C834 1.389 . S
C830 H852 0.930 . S
C831 C829 1.352 . S
C831 C833 1.374 . S
C831 H853 0.931 . S
C832 C833 1.359 . S
C832 C834 1.364 . S
C833 C831 1.374 . S
C833 C832 1.359 . S
C833 H854 0.931 . S
C834 C830 1.389 . S
C834 C832 1.364 . S
C834 H855 0.931 . S
C835 O846 1.256 . S
C835 O847 1.257 . S
O836 Gd816 2.377 . S
O836 C818 1.240 . S
O837 Gd817 2.395 . S
O837 C818 1.240 . S
O838 Gd816 2.448 . S
O838 C819 1.249 . S
O839 Gd816 2.506 . S
O839 C819 1.252 . S
O840 Gd816 2.435 . S
O840 C826 1.256 . S
O841 Gd816 2.717 . S
O841 Gd817 2.327 . S
O841 C826 1.257 . S
O842 Gd817 2.377 . S
O842 C827 1.240 . S
O843 Gd816 2.395 . S
O843 C827 1.240 . S
O844 Gd817 2.448 . S
O844 C828 1.249 . S
O845 Gd817 2.506 . S
O845 C828 1.252 . S
O846 Gd817 2.435 . S
O846 C835 1.256 . S
O847 Gd816 2.327 . S
O847 Gd817 2.717 . S
O847 C835 1.257 . S
H848 C821 0.930 . S
H849 C822 0.931 . S
H850 C824 0.931 . S
H851 C825 0.931 . S
H852 C830 0.930 . S
H853 C831 0.931 . S
H854 C833 0.931 . S
H855 C834 0.931 . S
Gd856 C859 2.818 . S
Gd856 O876 2.377 . S
Gd856 O878 2.448 . S
Gd856 O879 2.506 . S
Gd856 O880 2.435 . S
Gd856 O881 2.717 . S
Gd856 O883 2.395 . S
Gd856 O887 2.327 . S
Gd857 C868 2.818 . S
Gd857 O877 2.395 . S
Gd857 O881 2.327 . S
Gd857 O882 2.377 . S
Gd857 O884 2.448 . S
Gd857 O885 2.506 . S
Gd857 O886 2.435 . S
Gd857 O887 2.717 . S
C858 O876 1.240 . S
C858 O877 1.240 . S
C859 Gd856 2.818 . S
C859 C860 1.510 . S
C859 O878 1.249 . S
C859 O879 1.252 . S
C860 C859 1.510 . S
C860 C861 1.404 . S
C860 C862 1.352 . S
C861 C860 1.404 . S
C861 C865 1.389 . S
C861 H888 0.930 . S
C862 C860 1.352 . S
C862 C864 1.374 . S
C862 H889 0.931 . S
C863 C864 1.359 . S
C863 C865 1.364 . S
C864 C862 1.374 . S
C864 C863 1.359 . S
C864 H890 0.931 . S
C865 C861 1.389 . S
C865 C863 1.364 . S
C865 H891 0.931 . S
C866 O880 1.256 . S
C866 O881 1.257 . S
C867 O882 1.240 . S
C867 O883 1.240 . S
C868 Gd857 2.818 . S
C868 C869 1.510 . S
C868 O884 1.249 . S
C868 O885 1.252 . S
C869 C868 1.510 . S
C869 C870 1.404 . S
C869 C871 1.352 . S
C870 C869 1.404 . S
C870 C874 1.389 . S
C870 H892 0.930 . S
C871 C869 1.352 . S
C871 C873 1.374 . S
C871 H893 0.931 . S
C872 C873 1.359 . S
C872 C874 1.364 . S
C873 C871 1.374 . S
C873 C872 1.359 . S
C873 H894 0.931 . S
C874 C870 1.389 . S
C874 C872 1.364 . S
C874 H895 0.931 . S
C875 O886 1.256 . S
C875 O887 1.257 . S
O876 Gd856 2.377 . S
O876 C858 1.240 . S
O877 Gd857 2.395 . S
O877 C858 1.240 . S
O878 Gd856 2.448 . S
O878 C859 1.249 . S
O879 Gd856 2.506 . S
O879 C859 1.252 . S
O880 Gd856 2.435 . S
O880 C866 1.256 . S
O881 Gd856 2.717 . S
O881 Gd857 2.327 . S
O881 C866 1.257 . S
O882 Gd857 2.377 . S
O882 C867 1.240 . S
O883 Gd856 2.395 . S
O883 C867 1.240 . S
O884 Gd857 2.448 . S
O884 C868 1.249 . S
O885 Gd857 2.506 . S
O885 C868 1.252 . S
O886 Gd857 2.435 . S
O886 C875 1.256 . S
O887 Gd856 2.327 . S
O887 Gd857 2.717 . S
O887 C875 1.257 . S
H888 C861 0.930 . S
H889 C862 0.931 . S
H890 C864 0.931 . S
H891 C865 0.931 . S
H892 C870 0.930 . S
H893 C871 0.931 . S
H894 C873 0.931 . S
H895 C874 0.931 . S
Gd896 C899 2.818 . S
Gd896 O916 2.377 . S
Gd896 O918 2.448 . S
Gd896 O919 2.506 . S
Gd896 O920 2.435 . S
Gd896 O921 2.717 . S
Gd896 O923 2.395 . S
Gd896 O927 2.327 . S
Gd897 C908 2.818 . S
Gd897 O917 2.395 . S
Gd897 O921 2.327 . S
Gd897 O922 2.377 . S
Gd897 O924 2.448 . S
Gd897 O925 2.506 . S
Gd897 O926 2.435 . S
Gd897 O927 2.717 . S
C898 O916 1.240 . S
C898 O917 1.240 . S
C899 Gd896 2.818 . S
C899 C900 1.510 . S
C899 O918 1.249 . S
C899 O919 1.252 . S
C900 C899 1.510 . S
C900 C901 1.404 . S
C900 C902 1.352 . S
C901 C900 1.404 . S
C901 C905 1.389 . S
C901 H928 0.930 . S
C902 C900 1.352 . S
C902 C904 1.374 . S
C902 H929 0.931 . S
C903 C904 1.359 . S
C903 C905 1.364 . S
C904 C902 1.374 . S
C904 C903 1.359 . S
C904 H930 0.931 . S
C905 C901 1.389 . S
C905 C903 1.364 . S
C905 H931 0.931 . S
C906 O920 1.256 . S
C906 O921 1.257 . S
C907 O922 1.240 . S
C907 O923 1.240 . S
C908 Gd897 2.818 . S
C908 C909 1.510 . S
C908 O924 1.249 . S
C908 O925 1.252 . S
C909 C908 1.510 . S
C909 C910 1.404 . S
C909 C911 1.352 . S
C910 C909 1.404 . S
C910 C914 1.389 . S
C910 H932 0.930 . S
C911 C909 1.352 . S
C911 C913 1.374 . S
C911 H933 0.931 . S
C912 C913 1.359 . S
C912 C914 1.364 . S
C913 C911 1.374 . S
C913 C912 1.359 . S
C913 H934 0.931 . S
C914 C910 1.389 . S
C914 C912 1.364 . S
C914 H935 0.931 . S
C915 O926 1.256 . S
C915 O927 1.257 . S
O916 Gd896 2.377 . S
O916 C898 1.240 . S
O917 Gd897 2.395 . S
O917 C898 1.240 . S
O918 Gd896 2.448 . S
O918 C899 1.249 . S
O919 Gd896 2.506 . S
O919 C899 1.252 . S
O920 Gd896 2.435 . S
O920 C906 1.256 . S
O921 Gd896 2.717 . S
O921 Gd897 2.327 . S
O921 C906 1.257 . S
O922 Gd897 2.377 . S
O922 C907 1.240 . S
O923 Gd896 2.395 . S
O923 C907 1.240 . S
O924 Gd897 2.448 . S
O924 C908 1.249 . S
O925 Gd897 2.506 . S
O925 C908 1.252 . S
O926 Gd897 2.435 . S
O926 C915 1.256 . S
O927 Gd896 2.327 . S
O927 Gd897 2.717 . S
O927 C915 1.257 . S
H928 C901 0.930 . S
H929 C902 0.931 . S
H930 C904 0.931 . S
H931 C905 0.931 . S
H932 C910 0.930 . S
H933 C911 0.931 . S
H934 C913 0.931 . S
H935 C914 0.931 . S
Gd936 C939 2.811 1_554 S
Gd936 O956 2.377 1_554 S
Gd936 O958 2.448 1_554 S
Gd936 O959 2.506 . S
Gd936 O960 2.435 1_554 S
Gd936 O961 2.717 1_554 S
Gd936 O963 2.395 . S
Gd936 O967 2.327 . S
Gd937 C948 2.818 1_455 S
Gd937 O957 2.395 . S
Gd937 O961 2.327 1_554 S
Gd937 O962 2.377 . S
Gd937 O964 2.448 1_455 S
Gd937 O965 2.506 1_455 S
Gd937 O966 2.435 . S
Gd937 O967 2.717 . S
C938 O956 1.240 1_554 S
C938 O957 1.240 . S
C939 Gd936 2.811 1_556 S
C939 C940 1.520 . S
C939 O958 1.302 . S
C939 O959 1.191 1_556 S
C940 C939 1.520 . S
C940 C941 1.404 . S
C940 C942 1.352 1_556 S
C941 C940 1.404 . S
C941 C945 1.389 . S
C941 H968 0.930 . S
C942 C940 1.352 1_554 S
C942 C944 1.374 . S
C942 H969 0.931 . S
C943 C944 1.359 1_556 S
C943 C945 1.364 . S
C944 C942 1.374 . S
C944 C943 1.359 1_554 S
C944 H970 0.931 . S
C945 C941 1.389 . S
C945 C943 1.364 . S
C945 H971 0.931 . S
C946 O960 1.256 . S
C946 O961 1.257 . S
C947 O962 1.240 . S
C947 O963 1.240 . S
C948 Gd937 2.818 1_655 S
C948 C949 1.510 . S
C948 O964 1.249 . S
C948 O965 1.252 . S
C949 C948 1.510 . S
C949 C950 1.404 . S
C949 C951 1.352 . S
C950 C949 1.404 . S
C950 C954 1.389 . S
C950 H972 0.930 . S
C951 C949 1.352 . S
C951 C953 1.374 . S
C951 H973 0.931 . S
C952 C953 1.359 . S
C952 C954 1.364 . S
C953 C951 1.374 . S
C953 C952 1.359 . S
C953 H974 0.931 . S
C954 C950 1.389 . S
C954 C952 1.364 . S
C954 H975 0.931 . S
C955 O966 1.256 . S
C955 O967 1.257 . S
O956 Gd936 2.377 1_556 S
O956 C938 1.240 1_556 S
O957 Gd937 2.395 . S
O957 C938 1.240 . S
O958 Gd936 2.448 1_556 S
O958 C939 1.302 . S
O959 Gd936 2.506 . S
O959 C939 1.191 1_554 S
O960 Gd936 2.435 1_556 S
O960 C946 1.256 . S
O961 Gd936 2.717 1_556 S
O961 Gd937 2.327 1_556 S
O961 C946 1.257 . S
O962 Gd937 2.377 . S
O962 C947 1.240 . S
O963 Gd936 2.395 . S
O963 C947 1.240 . S
O964 Gd937 2.448 1_655 S
O964 C948 1.249 . S
O965 Gd937 2.506 1_655 S
O965 C948 1.252 . S
O966 Gd937 2.435 . S
O966 C955 1.256 . S
O967 Gd936 2.327 . S
O967 Gd937 2.717 . S
O967 C955 1.257 . S
H968 C941 0.930 . S
H969 C942 0.931 . S
H970 C944 0.931 . S
H971 C945 0.931 . S
H972 C950 0.930 . S
H973 C951 0.931 . S
H974 C953 0.931 . S
H975 C954 0.931 . S
H976 C984 0.929 . S
H977 C986 0.930 . S
H978 C988 0.930 . S
H979 C991 0.929 . S
H980 C994 0.930 . S
H981 C996 0.960 . S
H982 C996 0.960 . S
H983 C996 0.960 . S
C984 H976 0.929 . S
C984 C985 1.377 . S
C984 C986 1.384 . S
C985 C984 1.377 . S
C985 C991 1.390 . S
C986 H977 0.930 . S
C986 C984 1.384 . S
C986 C987 1.372 . S
C987 C986 1.372 . S
C987 C988 1.400 . S
C987 C992 1.490 . S
C988 H978 0.930 . S
C988 C987 1.400 . S
C988 C991 1.386 . S
H989 C1005 0.930 . S
H990 C1006 0.931 . S
C991 H979 0.929 . S
C991 C985 1.390 . S
C991 C988 1.386 . S
C992 C987 1.490 . S
C992 C994 1.395 . S
C992 C995 1.403 . S
H993 C999 0.930 . S
C994 H980 0.930 . S
C994 C992 1.395 . S
C994 C997 1.403 . S
C995 C992 1.403 . S
C995 C996 1.524 1_455 S
C995 C999 1.400 . S
C996 H981 0.960 . S
C996 H982 0.960 . S
C996 H983 0.960 . S
C996 C995 1.524 1_655 S
C997 C994 1.403 . S
C997 C998 1.392 . S
C997 C1001 1.495 . S
C998 C997 1.392 . S
C998 C999 1.385 . S
C998 C1000 1.478 . S
C999 H993 0.930 . S
C999 C995 1.400 . S
C999 C998 1.385 . S
C1000 C998 1.478 . S
C1000 C1002 1.381 . S
C1000 C1006 1.383 1_556 S
C1001 C997 1.495 . S
C1001 H1007 0.959 . S
C1001 H1008 0.961 . S
C1001 H1009 0.960 . S
C1002 C1000 1.381 . S
C1002 C1003 1.394 . S
C1002 H1010 0.930 . S
C1003 C1002 1.394 . S
C1003 C1004 1.383 1_556 S
C1003 H1011 0.929 . S
C1004 C1003 1.383 1_554 S
C1004 C1005 1.377 . S
C1005 H989 0.930 . S
C1005 C1004 1.377 . S
C1005 C1006 1.379 . S
C1006 H990 0.931 . S
C1006 C1000 1.383 1_554 S
C1006 C1005 1.379 . S
H1007 C1001 0.959 . S
H1008 C1001 0.961 . S
H1009 C1001 0.960 . S
H1010 C1002 0.930 . S
H1011 C1003 0.929 . S
H1012 C1020 0.929 . S
H1013 C1022 0.930 . S
H1014 C1024 0.930 . S
H1015 C1027 0.929 . S
H1016 C1030 0.930 . S
H1017 C1032 0.960 . S
H1018 C1032 0.960 . S
H1019 C1032 0.960 . S
C1020 H1012 0.929 . S
C1020 C1021 1.377 . S
C1020 C1022 1.384 . S
C1021 C1020 1.377 . S
C1021 C1027 1.390 . S
C1022 H1013 0.930 . S
C1022 C1020 1.384 . S
C1022 C1023 1.372 . S
C1023 C1022 1.372 . S
C1023 C1024 1.400 . S
C1023 C1028 1.490 . S
C1024 H1014 0.930 . S
C1024 C1023 1.400 . S
C1024 C1027 1.386 . S
H1025 C1041 0.930 . S
H1026 C1042 0.931 . S
C1027 H1015 0.929 . S
C1027 C1021 1.390 . S
C1027 C1024 1.386 . S
C1028 C1023 1.490 . S
C1028 C1030 1.395 . S
C1028 C1031 1.403 . S
H1029 C1035 0.930 . S
C1030 H1016 0.930 . S
C1030 C1028 1.395 . S
C1030 C1033 1.403 . S
C1031 C1028 1.403 . S
C1031 C1032 1.524 . S
C1031 C1035 1.400 . S
C1032 H1017 0.960 . S
C1032 H1018 0.960 . S
C1032 H1019 0.960 . S
C1032 C1031 1.524 . S
C1033 C1030 1.403 . S
C1033 C1034 1.392 . S
C1033 C1037 1.495 . S
C1034 C1033 1.392 . S
C1034 C1035 1.385 . S
C1034 C1036 1.478 . S
C1035 H1029 0.930 . S
C1035 C1031 1.400 . S
C1035 C1034 1.385 . S
C1036 C1034 1.478 . S
C1036 C1038 1.381 . S
C1036 C1042 1.383 . S
C1037 C1033 1.495 . S
C1037 H1043 0.959 . S
C1037 H1044 0.961 . S
C1037 H1045 0.960 . S
C1038 C1036 1.381 . S
C1038 C1039 1.394 . S
C1038 H1046 0.930 . S
C1039 C1038 1.394 . S
C1039 C1040 1.383 . S
C1039 H1047 0.929 . S
C1040 C1039 1.383 . S
C1040 C1041 1.377 . S
C1041 H1025 0.930 . S
C1041 C1040 1.377 . S
C1041 C1042 1.379 . S
C1042 H1026 0.931 . S
C1042 C1036 1.383 . S
C1042 C1041 1.379 . S
H1043 C1037 0.959 . S
H1044 C1037 0.961 . S
H1045 C1037 0.960 . S
H1046 C1038 0.930 . S
H1047 C1039 0.929 . S
H1048 C1056 0.929 . S
H1049 C1058 0.930 . S
H1050 C1060 0.930 . S
H1051 C1063 0.929 . S
H1052 C1066 0.930 . S
H1053 C1068 0.960 . S
H1054 C1068 0.960 . S
H1055 C1068 0.960 . S
C1056 H1048 0.929 . S
C1056 C1057 1.377 . S
C1056 C1058 1.384 . S
C1057 C1056 1.377 . S
C1057 C1063 1.390 . S
C1058 H1049 0.930 . S
C1058 C1056 1.384 . S
C1058 C1059 1.372 . S
C1059 C1058 1.372 . S
C1059 C1060 1.400 . S
C1059 C1064 1.490 . S
C1060 H1050 0.930 . S
C1060 C1059 1.400 . S
C1060 C1063 1.386 . S
H1061 C1077 0.930 . S
H1062 C1078 0.931 . S
C1063 H1051 0.929 . S
C1063 C1057 1.390 . S
C1063 C1060 1.386 . S
C1064 C1059 1.490 . S
C1064 C1066 1.395 . S
C1064 C1067 1.403 . S
H1065 C1071 0.930 . S
C1066 H1052 0.930 . S
C1066 C1064 1.395 . S
C1066 C1069 1.403 . S
C1067 C1064 1.403 . S
C1067 C1068 1.524 . S
C1067 C1071 1.400 . S
C1068 H1053 0.960 . S
C1068 H1054 0.960 . S
C1068 H1055 0.960 . S
C1068 C1067 1.524 . S
C1069 C1066 1.403 . S
C1069 C1070 1.392 . S
C1069 C1073 1.495 . S
C1070 C1069 1.392 . S
C1070 C1071 1.385 . S
C1070 C1072 1.478 . S
C1071 H1065 0.930 . S
C1071 C1067 1.400 . S
C1071 C1070 1.385 . S
C1072 C1070 1.478 . S
C1072 C1074 1.381 . S
C1072 C1078 1.383 . S
C1073 C1069 1.495 . S
C1073 H1079 0.959 . S
C1073 H1080 0.961 . S
C1073 H1081 0.960 . S
C1074 C1072 1.381 . S
C1074 C1075 1.394 . S
C1074 H1082 0.930 . S
C1075 C1074 1.394 . S
C1075 C1076 1.383 . S
C1075 H1083 0.929 . S
C1076 C1075 1.383 . S
C1076 C1077 1.377 . S
C1077 H1061 0.930 . S
C1077 C1076 1.377 . S
C1077 C1078 1.379 . S
C1078 H1062 0.931 . S
C1078 C1072 1.383 . S
C1078 C1077 1.379 . S
H1079 C1073 0.959 . S
H1080 C1073 0.961 . S
H1081 C1073 0.960 . S
H1082 C1074 0.930 . S
H1083 C1075 0.929 . S
H1084 C1092 0.929 . S
H1085 C1094 0.930 . S
H1086 C1096 0.930 . S
H1087 C1099 0.929 . S
H1088 C1102 0.930 . S
H1089 C1104 0.960 . S
H1090 C1104 0.960 . S
H1091 C1104 0.960 . S
C1092 H1084 0.929 . S
C1092 C1093 1.377 . S
C1092 C1094 1.384 . S
C1093 C1092 1.377 . S
C1093 C1099 1.390 . S
C1094 H1085 0.930 . S
C1094 C1092 1.384 . S
C1094 C1095 1.372 . S
C1095 C1094 1.372 . S
C1095 C1096 1.400 . S
C1095 C1100 1.490 . S
C1096 H1086 0.930 . S
C1096 C1095 1.400 . S
C1096 C1099 1.386 . S
H1097 C1113 0.930 . S
H1098 C1114 0.931 . S
C1099 H1087 0.929 . S
C1099 C1093 1.390 . S
C1099 C1096 1.386 . S
C1100 C1095 1.490 . S
C1100 C1102 1.395 . S
C1100 C1103 1.403 . S
H1101 C1107 0.930 . S
C1102 H1088 0.930 . S
C1102 C1100 1.395 . S
C1102 C1105 1.403 . S
C1103 C1100 1.403 . S
C1103 C1104 1.524 . S
C1103 C1107 1.400 . S
C1104 H1089 0.960 . S
C1104 H1090 0.960 . S
C1104 H1091 0.960 . S
C1104 C1103 1.524 . S
C1105 C1102 1.403 . S
C1105 C1106 1.392 . S
C1105 C1109 1.495 . S
C1106 C1105 1.392 . S
C1106 C1107 1.385 . S
C1106 C1108 1.478 . S
C1107 H1101 0.930 . S
C1107 C1103 1.400 . S
C1107 C1106 1.385 . S
C1108 C1106 1.478 . S
C1108 C1110 1.381 . S
C1108 C1114 1.383 . S
C1109 C1105 1.495 . S
C1109 H1115 0.959 . S
C1109 H1116 0.961 . S
C1109 H1117 0.960 . S
C1110 C1108 1.381 . S
C1110 C1111 1.394 . S
C1110 H1118 0.930 . S
C1111 C1110 1.394 . S
C1111 C1112 1.383 . S
C1111 H1119 0.929 . S
C1112 C1111 1.383 . S
C1112 C1113 1.377 . S
C1113 H1097 0.930 . S
C1113 C1112 1.377 . S
C1113 C1114 1.379 . S
C1114 H1098 0.931 . S
C1114 C1108 1.383 . S
C1114 C1113 1.379 . S
H1115 C1109 0.959 . S
H1116 C1109 0.961 . S
H1117 C1109 0.960 . S
H1118 C1110 0.930 . S
H1119 C1111 0.929 . S
H1120 C1128 0.929 . S
H1121 C1130 0.930 . S
H1122 C1132 0.930 . S
H1123 C1135 0.922 1_655 S
H1124 C1138 0.930 . S
H1125 C1140 0.960 . S
H1126 C1140 0.960 . S
H1127 C1140 0.960 . S
C1128 H1120 0.929 . S
C1128 C1129 1.377 . S
C1128 C1130 1.384 . S
C1129 C1128 1.377 . S
C1129 C1135 1.394 . S
C1130 H1121 0.930 . S
C1130 C1128 1.384 . S
C1130 C1131 1.372 . S
C1131 C1130 1.372 . S
C1131 C1132 1.400 . S
C1131 C1136 1.490 . S
C1132 H1122 0.930 . S
C1132 C1131 1.400 . S
C1132 C1135 1.390 . S
H1133 C1149 0.930 . S
H1134 C1150 0.931 . S
C1135 H1123 0.922 1_455 S
C1135 C1129 1.394 . S
C1135 C1132 1.390 . S
C1136 C1131 1.490 . S
C1136 C1138 1.395 . S
C1136 C1139 1.403 . S
H1137 C1143 0.930 . S
C1138 H1124 0.930 . S
C1138 C1136 1.395 . S
C1138 C1141 1.403 . S
C1139 C1136 1.403 . S
C1139 C1140 1.524 1_455 S
C1139 C1143 1.400 . S
C1140 H1125 0.960 . S
C1140 H1126 0.960 . S
C1140 H1127 0.960 . S
C1140 C1139 1.524 1_655 S
C1141 C1138 1.403 . S
C1141 C1142 1.392 . S
C1141 C1145 1.495 . S
C1142 C1141 1.392 . S
C1142 C1143 1.385 . S
C1142 C1144 1.478 . S
C1143 H1137 0.930 . S
C1143 C1139 1.400 . S
C1143 C1142 1.385 . S
C1144 C1142 1.478 . S
C1144 C1146 1.381 . S
C1144 C1150 1.383 . S
C1145 C1141 1.495 . S
C1145 H1151 0.959 . S
C1145 H1152 0.961 . S
C1145 H1153 0.960 . S
C1146 C1144 1.381 . S
C1146 C1147 1.394 . S
C1146 H1154 0.930 . S
C1147 C1146 1.394 . S
C1147 C1148 1.383 . S
C1147 H1155 0.929 . S
C1148 C1147 1.383 . S
C1148 C1149 1.377 . S
C1149 H1133 0.930 . S
C1149 C1148 1.377 . S
C1149 C1150 1.379 . S
C1150 H1134 0.931 . S
C1150 C1144 1.383 . S
C1150 C1149 1.379 . S
H1151 C1145 0.959 . S
H1152 C1145 0.961 . S
H1153 C1145 0.960 . S
H1154 C1146 0.930 . S
H1155 C1147 0.929 . S
H1156 C1164 0.929 . S
H1157 C1166 0.930 . S
H1158 C1168 0.930 . S
H1159 C1171 0.929 . S
H1160 C1174 0.930 . S
H1161 C1176 0.960 . S
H1162 C1176 0.960 . S
H1163 C1176 0.960 . S
C1164 H1156 0.929 . S
C1164 C1165 1.377 . S
C1164 C1166 1.384 . S
C1165 C1164 1.377 . S
C1165 C1171 1.390 . S
C1166 H1157 0.930 . S
C1166 C1164 1.384 . S
C1166 C1167 1.372 . S
C1167 C1166 1.372 . S
C1167 C1168 1.400 . S
C1167 C1172 1.490 . S
C1168 H1158 0.930 . S
C1168 C1167 1.400 . S
C1168 C1171 1.386 . S
H1169 C1185 0.930 . S
H1170 C1186 0.931 . S
C1171 H1159 0.929 . S
C1171 C1165 1.390 . S
C1171 C1168 1.386 . S
C1172 C1167 1.490 . S
C1172 C1174 1.395 . S
C1172 C1175 1.403 . S
H1173 C1179 0.930 . S
C1174 H1160 0.930 . S
C1174 C1172 1.395 . S
C1174 C1177 1.403 . S
C1175 C1172 1.403 . S
C1175 C1176 1.524 . S
C1175 C1179 1.400 . S
C1176 H1161 0.960 . S
C1176 H1162 0.960 . S
C1176 H1163 0.960 . S
C1176 C1175 1.524 . S
C1177 C1174 1.403 . S
C1177 C1178 1.392 . S
C1177 C1181 1.495 . S
C1178 C1177 1.392 . S
C1178 C1179 1.385 . S
C1178 C1180 1.478 . S
C1179 H1173 0.930 . S
C1179 C1175 1.400 . S
C1179 C1178 1.385 . S
C1180 C1178 1.478 . S
C1180 C1182 1.381 . S
C1180 C1186 1.383 . S
C1181 C1177 1.495 . S
C1181 H1187 0.959 . S
C1181 H1188 0.961 . S
C1181 H1189 0.960 . S
C1182 C1180 1.381 . S
C1182 C1183 1.394 . S
C1182 H1190 0.930 . S
C1183 C1182 1.394 . S
C1183 C1184 1.383 . S
C1183 H1191 0.929 . S
C1184 C1183 1.383 . S
C1184 C1185 1.377 . S
C1185 H1169 0.930 . S
C1185 C1184 1.377 . S
C1185 C1186 1.379 . S
C1186 H1170 0.931 . S
C1186 C1180 1.383 . S
C1186 C1185 1.379 . S
H1187 C1181 0.959 . S
H1188 C1181 0.961 . S
H1189 C1181 0.960 . S
H1190 C1182 0.930 . S
H1191 C1183 0.929 . S
H1192 C1200 0.929 . S
H1193 C1202 0.930 . S
H1194 C1204 0.930 . S
H1195 C1207 0.929 . S
H1196 C1210 0.930 . S
H1197 C1212 0.960 . S
H1198 C1212 0.960 . S
H1199 C1212 0.960 . S
C1200 H1192 0.929 . S
C1200 C1201 1.377 . S
C1200 C1202 1.384 . S
C1201 C1200 1.377 . S
C1201 C1207 1.390 . S
C1202 H1193 0.930 . S
C1202 C1200 1.384 . S
C1202 C1203 1.372 . S
C1203 C1202 1.372 . S
C1203 C1204 1.400 . S
C1203 C1208 1.490 . S
C1204 H1194 0.930 . S
C1204 C1203 1.400 . S
C1204 C1207 1.386 . S
H1205 C1221 0.930 . S
H1206 C1222 0.931 . S
C1207 H1195 0.929 . S
C1207 C1201 1.390 . S
C1207 C1204 1.386 . S
C1208 C1203 1.490 . S
C1208 C1210 1.395 . S
C1208 C1211 1.403 . S
H1209 C1215 0.930 . S
C1210 H1196 0.930 . S
C1210 C1208 1.395 . S
C1210 C1213 1.403 . S
C1211 C1208 1.403 . S
C1211 C1212 1.524 . S
C1211 C1215 1.400 . S
C1212 H1197 0.960 . S
C1212 H1198 0.960 . S
C1212 H1199 0.960 . S
C1212 C1211 1.524 . S
C1213 C1210 1.403 . S
C1213 C1214 1.392 . S
C1213 C1217 1.495 . S
C1214 C1213 1.392 . S
C1214 C1215 1.385 . S
C1214 C1216 1.478 . S
C1215 H1209 0.930 . S
C1215 C1211 1.400 . S
C1215 C1214 1.385 . S
C1216 C1214 1.478 . S
C1216 C1218 1.381 . S
C1216 C1222 1.383 . S
C1217 C1213 1.495 . S
C1217 H1223 0.959 . S
C1217 H1224 0.961 . S
C1217 H1225 0.960 . S
C1218 C1216 1.381 . S
C1218 C1219 1.394 . S
C1218 H1226 0.930 . S
C1219 C1218 1.394 . S
C1219 C1220 1.383 . S
C1219 H1227 0.929 . S
C1220 C1219 1.383 . S
C1220 C1221 1.377 . S
C1221 H1205 0.930 . S
C1221 C1220 1.377 . S
C1221 C1222 1.379 . S
C1222 H1206 0.931 . S
C1222 C1216 1.383 . S
C1222 C1221 1.379 . S
H1223 C1217 0.959 . S
H1224 C1217 0.961 . S
H1225 C1217 0.960 . S
H1226 C1218 0.930 . S
H1227 C1219 0.929 . S
H1228 C1236 0.929 . S
H1229 C1238 0.930 . S
H1230 C1240 0.930 . S
H1231 C1243 0.929 . S
H1232 C1246 0.930 . S
H1233 C1248 0.960 . S
H1234 C1248 0.960 . S
H1235 C1248 0.960 . S
C1236 H1228 0.929 . S
C1236 C1237 1.377 . S
C1236 C1238 1.384 . S
C1237 C1236 1.377 . S
C1237 C1243 1.390 . S
C1238 H1229 0.930 . S
C1238 C1236 1.384 . S
C1238 C1239 1.372 . S
C1239 C1238 1.372 . S
C1239 C1240 1.400 . S
C1239 C1244 1.490 . S
C1240 H1230 0.930 . S
C1240 C1239 1.400 . S
C1240 C1243 1.386 . S
H1241 C1257 0.930 . S
H1242 C1258 0.931 . S
C1243 H1231 0.929 . S
C1243 C1237 1.390 . S
C1243 C1240 1.386 . S
C1244 C1239 1.490 . S
C1244 C1246 1.395 . S
C1244 C1247 1.403 . S
H1245 C1251 0.930 . S
C1246 H1232 0.930 . S
C1246 C1244 1.395 . S
C1246 C1249 1.403 . S
C1247 C1244 1.403 . S
C1247 C1248 1.524 . S
C1247 C1251 1.400 . S
C1248 H1233 0.960 . S
C1248 H1234 0.960 . S
C1248 H1235 0.960 . S
C1248 C1247 1.524 . S
C1249 C1246 1.403 . S
C1249 C1250 1.392 . S
C1249 C1253 1.495 . S
C1250 C1249 1.392 . S
C1250 C1251 1.385 . S
C1250 C1252 1.478 . S
C1251 H1245 0.930 . S
C1251 C1247 1.400 . S
C1251 C1250 1.385 . S
C1252 C1250 1.478 . S
C1252 C1254 1.381 . S
C1252 C1258 1.383 . S
C1253 C1249 1.495 . S
C1253 H1259 0.959 . S
C1253 H1260 0.961 . S
C1253 H1261 0.960 . S
C1254 C1252 1.381 . S
C1254 C1255 1.394 . S
C1254 H1262 0.930 . S
C1255 C1254 1.394 . S
C1255 C1256 1.383 . S
C1255 H1263 0.929 . S
C1256 C1255 1.383 . S
C1256 C1257 1.377 . S
C1257 H1241 0.930 . S
C1257 C1256 1.377 . S
C1257 C1258 1.379 . S
C1258 H1242 0.931 . S
C1258 C1252 1.383 . S
C1258 C1257 1.379 . S
H1259 C1253 0.959 . S
H1260 C1253 0.961 . S
H1261 C1253 0.960 . S
H1262 C1254 0.930 . S
H1263 C1255 0.929 . S
H1264 C1272 0.929 . S
H1265 C1274 0.930 1_455 S
H1266 C1276 0.930 . S
H1267 C1279 0.929 . S
H1268 C1282 0.930 . S
H1269 C1284 0.960 . S
H1270 C1284 0.960 . S
H1271 C1284 0.960 . S
C1272 H1264 0.929 . S
C1272 C1273 1.377 . S
C1272 C1274 1.384 . S
C1273 C1272 1.377 . S
C1273 C1279 1.390 . S
C1274 H1265 0.930 1_655 S
C1274 C1272 1.384 . S
C1274 C1275 1.372 . S
C1275 C1274 1.372 . S
C1275 C1276 1.400 . S
C1275 C1280 1.490 . S
C1276 H1266 0.930 . S
C1276 C1275 1.400 . S
C1276 C1279 1.386 . S
H1277 C1293 0.930 1_655 S
H1278 C1294 0.962 . S
C1279 H1267 0.929 . S
C1279 C1273 1.390 . S
C1279 C1276 1.386 . S
C1280 C1275 1.490 . S
C1280 C1282 1.395 . S
C1280 C1283 1.403 . S
H1281 C1287 0.930 . S
C1282 H1268 0.930 . S
C1282 C1280 1.395 . S
C1282 C1285 1.403 1_655 S
C1283 C1280 1.403 . S
C1283 C1284 1.524 . S
C1283 C1287 1.400 . S
C1284 H1269 0.960 . S
C1284 H1270 0.960 . S
C1284 H1271 0.960 . S
C1284 C1283 1.524 . S
C1285 C1282 1.403 1_455 S
C1285 C1286 1.392 . S
C1285 C1289 1.495 . S
C1286 C1285 1.392 . S
C1286 C1287 1.385 1_455 S
C1286 C1288 1.478 . S
C1287 H1281 0.930 . S
C1287 C1283 1.400 . S
C1287 C1286 1.385 1_655 S
C1288 C1286 1.478 . S
C1288 C1290 1.381 . S
C1288 C1294 1.368 1_455 S
C1289 C1285 1.495 . S
C1289 H1295 0.959 . S
C1289 H1296 0.961 . S
C1289 H1297 0.960 . S
C1290 C1288 1.381 . S
C1290 C1291 1.394 . S
C1290 H1298 0.930 . S
C1291 C1290 1.394 . S
C1291 C1292 1.383 . S
C1291 H1299 0.929 . S
C1292 C1291 1.383 . S
C1292 C1293 1.377 . S
C1293 H1277 0.930 1_455 S
C1293 C1292 1.377 . S
C1293 C1294 1.365 1_455 S
C1294 H1278 0.962 . S
C1294 C1288 1.368 1_655 S
C1294 C1293 1.365 1_655 S
H1295 C1289 0.959 . S
H1296 C1289 0.961 . S
H1297 C1289 0.960 . S
H1298 C1290 0.930 . S
H1299 C1291 0.929 . S
H1300 C1308 0.929 . S
H1301 C1310 0.930 . S
H1302 C1312 0.930 . S
H1303 C1315 0.929 . S
H1304 C1318 0.930 . S
H1305 C1320 0.960 . S
H1306 C1320 0.960 . S
H1307 C1320 0.960 . S
C1308 H1300 0.929 . S
C1308 C1309 1.377 . S
C1308 C1310 1.384 . S
C1309 C1308 1.377 . S
C1309 C1315 1.390 . S
C1310 H1301 0.930 . S
C1310 C1308 1.384 . S
C1310 C1311 1.372 . S
C1311 C1310 1.372 . S
C1311 C1312 1.400 . S
C1311 C1316 1.490 . S
C1312 H1302 0.930 . S
C1312 C1311 1.400 . S
C1312 C1315 1.386 . S
H1313 C1329 0.930 . S
H1314 C1330 0.931 . S
C1315 H1303 0.929 . S
C1315 C1309 1.390 . S
C1315 C1312 1.386 . S
C1316 C1311 1.490 . S
C1316 C1318 1.395 . S
C1316 C1319 1.403 . S
H1317 C1323 0.930 . S
C1318 H1304 0.930 . S
C1318 C1316 1.395 . S
C1318 C1321 1.403 . S
C1319 C1316 1.403 . S
C1319 C1320 1.524 . S
C1319 C1323 1.400 . S
C1320 H1305 0.960 . S
C1320 H1306 0.960 . S
C1320 H1307 0.960 . S
C1320 C1319 1.524 . S
C1321 C1318 1.403 . S
C1321 C1322 1.392 . S
C1321 C1325 1.495 . S
C1322 C1321 1.392 . S
C1322 C1323 1.385 . S
C1322 C1324 1.478 . S
C1323 H1317 0.930 . S
C1323 C1319 1.400 . S
C1323 C1322 1.385 . S
C1324 C1322 1.478 . S
C1324 C1326 1.381 . S
C1324 C1330 1.383 . S
C1325 C1321 1.495 . S
C1325 H1331 0.959 . S
C1325 H1332 0.961 . S
C1325 H1333 0.960 . S
C1326 C1324 1.381 . S
C1326 C1327 1.394 . S
C1326 H1334 0.930 . S
C1327 C1326 1.394 . S
C1327 C1328 1.383 . S
C1327 H1335 0.929 . S
C1328 C1327 1.383 . S
C1328 C1329 1.377 . S
C1329 H1313 0.930 . S
C1329 C1328 1.377 . S
C1329 C1330 1.379 . S
C1330 H1314 0.931 . S
C1330 C1324 1.383 . S
C1330 C1329 1.379 . S
H1331 C1325 0.959 . S
H1332 C1325 0.961 . S
H1333 C1325 0.960 . S
H1334 C1326 0.930 . S
H1335 C1327 0.929 . S
H1336 C1344 0.929 . S
H1337 C1346 0.930 . S
H1338 C1348 0.930 . S
H1339 C1351 0.929 . S
H1340 C1354 0.930 . S
H1341 C1356 0.960 . S
H1342 C1356 0.960 . S
H1343 C1356 0.960 . S
C1344 H1336 0.929 . S
C1344 C1345 1.377 . S
C1344 C1346 1.384 . S
C1345 C1344 1.377 . S
C1345 C1351 1.390 . S
C1346 H1337 0.930 . S
C1346 C1344 1.384 . S
C1346 C1347 1.372 . S
C1347 C1346 1.372 . S
C1347 C1348 1.400 . S
C1347 C1352 1.490 . S
C1348 H1338 0.930 . S
C1348 C1347 1.400 . S
C1348 C1351 1.386 . S
H1349 C1365 0.930 . S
H1350 C1366 0.931 . S
C1351 H1339 0.929 . S
C1351 C1345 1.390 . S
C1351 C1348 1.386 . S
C1352 C1347 1.490 . S
C1352 C1354 1.395 . S
C1352 C1355 1.403 . S
H1353 C1359 0.930 . S
C1354 H1340 0.930 . S
C1354 C1352 1.395 . S
C1354 C1357 1.403 . S
C1355 C1352 1.403 . S
C1355 C1356 1.524 . S
C1355 C1359 1.400 . S
C1356 H1341 0.960 . S
C1356 H1342 0.960 . S
C1356 H1343 0.960 . S
C1356 C1355 1.524 . S
C1357 C1354 1.403 . S
C1357 C1358 1.392 . S
C1357 C1361 1.495 . S
C1358 C1357 1.392 . S
C1358 C1359 1.385 . S
C1358 C1360 1.478 . S
C1359 H1353 0.930 . S
C1359 C1355 1.400 . S
C1359 C1358 1.385 . S
C1360 C1358 1.478 . S
C1360 C1362 1.381 . S
C1360 C1366 1.383 . S
C1361 C1357 1.495 . S
C1361 H1367 0.959 . S
C1361 H1368 0.961 . S
C1361 H1369 0.960 . S
C1362 C1360 1.381 . S
C1362 C1363 1.394 . S
C1362 H1370 0.990 . S
C1363 C1362 1.394 . S
C1363 C1364 1.383 . S
C1363 H1371 0.929 1_545 S
C1364 C1363 1.383 . S
C1364 C1365 1.377 . S
C1365 H1349 0.930 . S
C1365 C1364 1.377 . S
C1365 C1366 1.379 . S
C1366 H1350 0.931 . S
C1366 C1360 1.383 . S
C1366 C1365 1.379 . S
H1367 C1361 0.959 . S
H1368 C1361 0.961 . S
H1369 C1361 0.960 . S
H1370 C1362 0.990 . S
H1371 C1363 0.929 1_565 S
H1372 C1380 0.929 . S
H1373 C1382 0.930 . S
H1374 C1384 0.930 . S
H1375 C1387 0.929 . S
H1376 C1390 0.930 . S
H1377 C1392 0.960 . S
H1378 C1392 0.960 . S
H1379 C1392 0.960 . S
C1380 H1372 0.929 . S
C1380 C1381 1.377 . S
C1380 C1382 1.384 . S
C1381 C1380 1.377 . S
C1381 C1387 1.390 . S
C1382 H1373 0.930 . S
C1382 C1380 1.384 . S
C1382 C1383 1.372 . S
C1383 C1382 1.372 . S
C1383 C1384 1.400 . S
C1383 C1388 1.490 . S
C1384 H1374 0.930 . S
C1384 C1383 1.400 . S
C1384 C1387 1.386 . S
H1385 C1401 0.930 . S
H1386 C1402 0.931 . S
C1387 H1375 0.929 . S
C1387 C1381 1.390 . S
C1387 C1384 1.386 . S
C1388 C1383 1.490 . S
C1388 C1390 1.395 . S
C1388 C1391 1.403 . S
H1389 C1395 0.930 . S
C1390 H1376 0.930 . S
C1390 C1388 1.395 . S
C1390 C1393 1.403 . S
C1391 C1388 1.403 . S
C1391 C1392 1.524 . S
C1391 C1395 1.400 . S
C1392 H1377 0.960 . S
C1392 H1378 0.960 . S
C1392 H1379 0.960 . S
C1392 C1391 1.524 . S
C1393 C1390 1.403 . S
C1393 C1394 1.392 . S
C1393 C1397 1.495 . S
C1394 C1393 1.392 . S
C1394 C1395 1.385 . S
C1394 C1396 1.478 . S
C1395 H1389 0.930 . S
C1395 C1391 1.400 . S
C1395 C1394 1.385 . S
C1396 C1394 1.478 . S
C1396 C1398 1.381 . S
C1396 C1402 1.383 . S
C1397 C1393 1.495 . S
C1397 H1403 0.959 . S
C1397 H1404 0.961 . S
C1397 H1405 0.960 . S
C1398 C1396 1.381 . S
C1398 C1399 1.394 . S
C1398 H1406 0.930 . S
C1399 C1398 1.394 . S
C1399 C1400 1.383 . S
C1399 H1407 0.929 . S
C1400 C1399 1.383 . S
C1400 C1401 1.377 . S
C1401 H1385 0.930 . S
C1401 C1400 1.377 . S
C1401 C1402 1.379 . S
C1402 H1386 0.931 . S
C1402 C1396 1.383 . S
C1402 C1401 1.379 . S
H1403 C1397 0.959 . S
H1404 C1397 0.961 . S
H1405 C1397 0.960 . S
H1406 C1398 0.930 . S
H1407 C1399 0.929 . S
H1408 C1416 0.929 . S
H1409 C1418 0.930 . S
H1410 C1420 0.913 1_455 S
H1411 C1423 0.929 . S
H1412 C1426 0.930 . S
H1413 C1428 0.960 . S
H1414 C1428 0.960 1_655 S
H1415 C1428 0.960 . S
C1416 H1408 0.929 . S
C1416 C1417 1.377 . S
C1416 C1418 1.384 . S
C1417 C1416 1.377 . S
C1417 C1423 1.390 . S
C1418 H1409 0.930 . S
C1418 C1416 1.384 . S
C1418 C1419 1.372 . S
C1419 C1418 1.372 . S
C1419 C1420 1.400 . S
C1419 C1424 1.490 . S
C1420 H1410 0.913 1_655 S
C1420 C1419 1.400 . S
C1420 C1423 1.386 . S
H1421 C1437 0.930 . S
H1422 C1438 0.931 . S
C1423 H1411 0.929 . S
C1423 C1417 1.390 . S
C1423 C1420 1.386 . S
C1424 C1419 1.490 . S
C1424 C1426 1.395 . S
C1424 C1427 1.439 . S
H1425 C1431 0.930 . S
C1426 H1412 0.930 . S
C1426 C1424 1.395 . S
C1426 C1429 1.403 . S
C1427 C1424 1.439 . S
C1427 C1428 1.514 1_655 S
C1427 C1431 1.378 1_655 S
C1428 H1413 0.960 . S
C1428 H1414 0.960 1_455 S
C1428 H1415 0.960 . S
C1428 C1427 1.514 1_455 S
C1429 C1426 1.403 . S
C1429 C1430 1.392 . S
C1429 C1433 1.495 . S
C1430 C1429 1.392 . S
C1430 C1431 1.385 1_655 S
C1430 C1432 1.478 1_655 S
C1431 H1425 0.930 . S
C1431 C1427 1.378 1_455 S
C1431 C1430 1.385 1_455 S
C1432 C1430 1.478 1_455 S
C1432 C1434 1.381 1_455 S
C1432 C1438 1.383 . S
C1433 C1429 1.495 . S
C1433 H1439 0.959 . S
C1433 H1440 0.961 . S
C1433 H1441 0.960 . S
C1434 C1432 1.381 1_655 S
C1434 C1435 1.394 1_655 S
C1434 H1442 0.930 . S
C1435 C1434 1.394 1_455 S
C1435 C1436 1.383 . S
C1435 H1443 0.906 1_455 S
C1436 C1435 1.383 . S
C1436 C1437 1.377 . S
C1437 H1421 0.930 . S
C1437 C1436 1.377 . S
C1437 C1438 1.379 . S
C1438 H1422 0.931 . S
C1438 C1432 1.383 . S
C1438 C1437 1.379 . S
H1439 C1433 0.959 . S
H1440 C1433 0.961 . S
H1441 C1433 0.960 . S
H1442 C1434 0.930 . S
H1443 C1435 0.906 1_655 S
H1444 C1452 0.929 . S
H1445 C1454 0.930 . S
H1446 C1456 0.930 . S
H1447 C1459 0.929 . S
H1448 C1462 0.930 . S
H1449 C1464 0.960 . S
H1450 C1464 0.960 . S
H1451 C1464 0.960 . S
C1452 H1444 0.929 . S
C1452 C1453 1.377 . S
C1452 C1454 1.384 . S
C1453 C1452 1.377 . S
C1453 C1459 1.390 . S
C1454 H1445 0.930 . S
C1454 C1452 1.384 . S
C1454 C1455 1.372 . S
C1455 C1454 1.372 . S
C1455 C1456 1.400 . S
C1455 C1460 1.490 . S
C1456 H1446 0.930 . S
C1456 C1455 1.400 . S
C1456 C1459 1.386 . S
H1457 C1473 0.930 . S
H1458 C1474 0.931 . S
C1459 H1447 0.929 . S
C1459 C1453 1.390 . S
C1459 C1456 1.386 . S
C1460 C1455 1.490 . S
C1460 C1462 1.395 . S
C1460 C1463 1.403 . S
H1461 C1467 0.930 . S
C1462 H1448 0.930 . S
C1462 C1460 1.395 . S
C1462 C1465 1.403 . S
C1463 C1460 1.403 . S
C1463 C1464 1.524 . S
C1463 C1467 1.400 . S
C1464 H1449 0.960 . S
C1464 H1450 0.960 . S
C1464 H1451 0.960 . S
C1464 C1463 1.524 . S
C1465 C1462 1.403 . S
C1465 C1466 1.392 . S
C1465 C1469 1.495 . S
C1466 C1465 1.392 . S
C1466 C1467 1.385 . S
C1466 C1468 1.478 . S
C1467 H1461 0.930 . S
C1467 C1463 1.400 . S
C1467 C1466 1.385 . S
C1468 C1466 1.478 . S
C1468 C1470 1.381 . S
C1468 C1474 1.383 . S
C1469 C1465 1.495 . S
C1469 H1475 0.959 . S
C1469 H1476 0.961 . S
C1469 H1477 0.960 . S
C1470 C1468 1.381 . S
C1470 C1471 1.394 . S
C1470 H1478 0.930 . S
C1471 C1470 1.394 . S
C1471 C1472 1.383 . S
C1471 H1479 0.929 . S
C1472 C1471 1.383 . S
C1472 C1473 1.377 . S
C1473 H1457 0.930 . S
C1473 C1472 1.377 . S
C1473 C1474 1.379 . S
C1474 H1458 0.931 . S
C1474 C1468 1.383 . S
C1474 C1473 1.379 . S
H1475 C1469 0.959 . S
H1476 C1469 0.961 . S
H1477 C1469 0.960 . S
H1478 C1470 0.930 . S
H1479 C1471 0.929 . S
H1480 C1488 0.929 . S
H1481 C1490 0.930 . S
H1482 C1492 0.930 . S
H1483 C1495 0.929 . S
H1484 C1498 0.930 . S
H1485 C1500 0.960 . S
H1486 C1500 0.960 . S
H1487 C1500 0.960 . S
C1488 H1480 0.929 . S
C1488 C1489 1.377 . S
C1488 C1490 1.384 . S
C1489 C1488 1.377 . S
C1489 C1495 1.390 . S
C1490 H1481 0.930 . S
C1490 C1488 1.384 . S
C1490 C1491 1.372 . S
C1491 C1490 1.372 . S
C1491 C1492 1.400 . S
C1491 C1496 1.490 . S
C1492 H1482 0.930 . S
C1492 C1491 1.400 . S
C1492 C1495 1.386 . S
H1493 C1509 0.930 . S
H1494 C1510 0.931 . S
C1495 H1483 0.929 . S
C1495 C1489 1.390 . S
C1495 C1492 1.386 . S
C1496 C1491 1.490 . S
C1496 C1498 1.395 . S
C1496 C1499 1.403 . S
H1497 C1503 0.930 . S
C1498 H1484 0.930 . S
C1498 C1496 1.395 . S
C1498 C1501 1.403 . S
C1499 C1496 1.403 . S
C1499 C1500 1.524 . S
C1499 C1503 1.400 . S
C1500 H1485 0.960 . S
C1500 H1486 0.960 . S
C1500 H1487 0.960 . S
C1500 C1499 1.524 . S
C1501 C1498 1.403 . S
C1501 C1502 1.392 . S
C1501 C1505 1.495 . S
C1502 C1501 1.392 . S
C1502 C1503 1.385 . S
C1502 C1504 1.478 . S
C1503 H1497 0.930 . S
C1503 C1499 1.400 . S
C1503 C1502 1.385 . S
C1504 C1502 1.478 . S
C1504 C1506 1.381 . S
C1504 C1510 1.383 . S
C1505 C1501 1.495 . S
C1505 H1511 0.959 . S
C1505 H1512 0.961 . S
C1505 H1513 0.960 . S
C1506 C1504 1.381 . S
C1506 C1507 1.394 . S
C1506 H1514 0.930 . S
C1507 C1506 1.394 . S
C1507 C1508 1.383 . S
C1507 H1515 0.929 . S
C1508 C1507 1.383 . S
C1508 C1509 1.377 . S
C1509 H1493 0.930 . S
C1509 C1508 1.377 . S
C1509 C1510 1.379 . S
C1510 H1494 0.931 . S
C1510 C1504 1.383 . S
C1510 C1509 1.379 . S
H1511 C1505 0.959 . S
H1512 C1505 0.961 . S
H1513 C1505 0.960 . S
H1514 C1506 0.930 . S
H1515 C1507 0.929 . S
H1516 C1524 0.929 . S
H1517 C1526 0.930 . S
H1518 C1528 0.930 . S
H1519 C1531 0.929 . S
H1520 C1534 0.930 . S
H1521 C1536 0.960 . S
H1522 C1536 0.960 . S
H1523 C1536 0.960 . S
C1524 H1516 0.929 . S
C1524 C1525 1.377 . S
C1524 C1526 1.384 . S
C1525 C1524 1.377 . S
C1525 C1531 1.390 . S
C1526 H1517 0.930 . S
C1526 C1524 1.384 . S
C1526 C1527 1.372 . S
C1527 C1526 1.372 . S
C1527 C1528 1.400 . S
C1527 C1532 1.490 . S
C1528 H1518 0.930 . S
C1528 C1527 1.400 . S
C1528 C1531 1.386 . S
H1529 C1545 0.930 . S
H1530 C1546 0.931 . S
C1531 H1519 0.929 . S
C1531 C1525 1.390 . S
C1531 C1528 1.386 . S
C1532 C1527 1.490 . S
C1532 C1534 1.395 . S
C1532 C1535 1.403 . S
H1533 C1539 0.930 . S
C1534 H1520 0.930 . S
C1534 C1532 1.395 . S
C1534 C1537 1.403 . S
C1535 C1532 1.403 . S
C1535 C1536 1.524 . S
C1535 C1539 1.400 . S
C1536 H1521 0.960 . S
C1536 H1522 0.960 . S
C1536 H1523 0.960 . S
C1536 C1535 1.524 . S
C1537 C1534 1.403 . S
C1537 C1538 1.392 . S
C1537 C1541 1.495 . S
C1538 C1537 1.392 . S
C1538 C1539 1.385 . S
C1538 C1540 1.478 . S
C1539 H1533 0.930 . S
C1539 C1535 1.400 . S
C1539 C1538 1.385 . S
C1540 C1538 1.478 . S
C1540 C1542 1.381 . S
C1540 C1546 1.383 . S
C1541 C1537 1.495 . S
C1541 H1547 0.959 . S
C1541 H1548 0.961 . S
C1541 H1549 0.960 . S
C1542 C1540 1.381 . S
C1542 C1543 1.394 . S
C1542 H1550 0.930 . S
C1543 C1542 1.394 . S
C1543 C1544 1.383 . S
C1543 H1551 0.929 . S
C1544 C1543 1.383 . S
C1544 C1545 1.377 . S
C1545 H1529 0.930 . S
C1545 C1544 1.377 . S
C1545 C1546 1.379 . S
C1546 H1530 0.931 . S
C1546 C1540 1.383 . S
C1546 C1545 1.379 . S
H1547 C1541 0.959 . S
H1548 C1541 0.961 . S
H1549 C1541 0.960 . S
H1550 C1542 0.930 . S
H1551 C1543 0.929 . S
H1552 C1560 0.929 1_556 S
H1553 C1562 0.930 1_556 S
H1554 C1564 0.930 . S
H1555 C1567 0.929 . S
H1556 C1570 0.930 . S
H1557 C1572 0.960 . S
H1558 C1572 0.960 . S
H1559 C1572 0.960 1_565 S
C1560 H1552 0.929 1_554 S
C1560 C1561 1.377 . S
C1560 C1562 1.384 . S
C1561 C1560 1.377 . S
C1561 C1567 1.390 . S
C1562 H1553 0.930 1_554 S
C1562 C1560 1.384 . S
C1562 C1563 1.372 . S
C1563 C1562 1.372 . S
C1563 C1564 1.400 . S
C1563 C1568 1.490 . S
C1564 H1554 0.930 . S
C1564 C1563 1.400 . S
C1564 C1567 1.386 . S
H1565 C1581 0.930 1_545 S
H1566 C1582 0.931 . S
C1567 H1555 0.929 . S
C1567 C1561 1.390 . S
C1567 C1564 1.386 . S
C1568 C1563 1.490 . S
C1568 C1570 1.395 . S
C1568 C1571 1.403 . S
H1569 C1575 0.930 1_545 S
C1570 H1556 0.930 . S
C1570 C1568 1.395 . S
C1570 C1573 1.403 . S
C1571 C1568 1.403 . S
C1571 C1572 1.524 1_565 S
C1571 C1575 1.400 . S
C1572 H1557 0.960 . S
C1572 H1558 0.960 . S
C1572 H1559 0.960 1_545 S
C1572 C1571 1.524 1_545 S
C1573 C1570 1.403 . S
C1573 C1574 1.392 . S
C1573 C1577 1.495 . S
C1574 C1573 1.392 . S
C1574 C1575 1.385 . S
C1574 C1576 1.478 . S
C1575 H1569 0.930 1_565 S
C1575 C1571 1.400 . S
C1575 C1574 1.385 . S
C1576 C1574 1.478 . S
C1576 C1578 1.381 . S
C1576 C1582 1.383 . S
C1577 C1573 1.495 . S
C1577 H1583 0.959 . S
C1577 H1584 0.961 . S
C1577 H1585 0.960 . S
C1578 C1576 1.381 . S
C1578 C1579 1.394 . S
C1578 H1586 0.930 . S
C1579 C1578 1.394 . S
C1579 C1580 1.383 1_565 S
C1579 H1587 0.929 . S
C1580 C1579 1.383 1_545 S
C1580 C1581 1.376 1_545 S
C1581 H1565 0.930 1_565 S
C1581 C1580 1.376 1_565 S
C1581 C1582 1.379 . S
C1582 H1566 0.931 . S
C1582 C1576 1.383 . S
C1582 C1581 1.379 . S
H1583 C1577 0.959 . S
H1584 C1577 0.961 . S
H1585 C1577 0.960 . S
H1586 C1578 0.930 . S
H1587 C1579 0.929 . S
H1588 C1596 0.929 . S
H1589 C1598 0.930 . S
H1590 C1600 0.930 . S
H1591 C1603 0.929 . S
H1592 C1606 0.930 . S
H1593 C1608 0.960 . S
H1594 C1608 0.960 1_554 S
H1595 C1608 0.960 . S
C1596 H1588 0.929 . S
C1596 C1597 1.377 1_554 S
C1596 C1598 1.384 . S
C1597 C1596 1.377 1_556 S
C1597 C1603 1.390 . S
C1598 H1589 0.930 . S
C1598 C1596 1.384 . S
C1598 C1599 1.370 1_554 S
C1599 C1598 1.370 1_556 S
C1599 C1600 1.402 . S
C1599 C1604 1.484 1_556 S
C1600 H1590 0.930 . S
C1600 C1599 1.402 . S
C1600 C1603 1.386 . S
H1601 C1617 0.930 . S
H1602 C1618 0.931 . S
C1603 H1591 0.929 . S
C1603 C1597 1.390 . S
C1603 C1600 1.386 . S
C1604 C1599 1.484 1_554 S
C1604 C1606 1.400 . S
C1604 C1607 1.403 1_554 S
H1605 C1611 0.930 . S
C1606 H1592 0.930 . S
C1606 C1604 1.400 . S
C1606 C1609 1.403 . S
C1607 C1604 1.403 1_556 S
C1607 C1608 1.524 . S
C1607 C1611 1.400 . S
C1608 H1593 0.960 . S
C1608 H1594 0.960 1_556 S
C1608 H1595 0.960 . S
C1608 C1607 1.524 . S
C1609 C1606 1.403 . S
C1609 C1610 1.392 . S
C1609 C1613 1.495 . S
C1610 C1609 1.392 . S
C1610 C1611 1.385 1_554 S
C1610 C1612 1.478 . S
C1611 H1605 0.930 . S
C1611 C1607 1.400 . S
C1611 C1610 1.385 1_556 S
C1612 C1610 1.478 . S
C1612 C1614 1.381 . S
C1612 C1618 1.383 1_554 S
C1613 C1609 1.495 . S
C1613 H1619 0.959 . S
C1613 H1620 0.961 1_554 S
C1613 H1621 0.960 . S
C1614 C1612 1.381 . S
C1614 C1615 1.394 . S
C1614 H1622 0.930 . S
C1615 C1614 1.394 . S
C1615 C1616 1.383 . S
C1615 H1623 0.929 . S
C1616 C1615 1.383 . S
C1616 C1617 1.377 1_554 S
C1617 H1601 0.930 . S
C1617 C1616 1.377 1_556 S
C1617 C1618 1.379 . S
C1618 H1602 0.931 . S
C1618 C1612 1.383 1_556 S
C1618 C1617 1.379 . S
H1619 C1613 0.959 . S
H1620 C1613 0.961 1_556 S
H1621 C1613 0.960 . S
H1622 C1614 0.930 . S
H1623 C1615 0.929 . S
H1624 C1632 0.929 . S
H1625 C1634 0.930 . S
H1626 C1636 0.930 . S
H1627 C1639 0.929 . S
H1628 C1642 0.930 . S
H1629 C1644 0.960 . S
H1630 C1644 0.960 . S
H1631 C1644 0.960 . S
C1632 H1624 0.929 . S
C1632 C1633 1.377 . S
C1632 C1634 1.384 . S
C1633 C1632 1.377 . S
C1633 C1639 1.390 . S
C1634 H1625 0.930 . S
C1634 C1632 1.384 . S
C1634 C1635 1.372 . S
C1635 C1634 1.372 . S
C1635 C1636 1.400 . S
C1635 C1640 1.490 . S
C1636 H1626 0.930 . S
C1636 C1635 1.400 . S
C1636 C1639 1.386 . S
H1637 C1653 0.930 . S
H1638 C1654 0.931 . S
C1639 H1627 0.929 . S
C1639 C1633 1.390 . S
C1639 C1636 1.386 . S
C1640 C1635 1.490 . S
C1640 C1642 1.395 . S
C1640 C1643 1.403 . S
H1641 C1647 0.930 . S
C1642 H1628 0.930 . S
C1642 C1640 1.395 . S
C1642 C1645 1.403 . S
C1643 C1640 1.403 . S
C1643 C1644 1.524 . S
C1643 C1647 1.400 . S
C1644 H1629 0.960 . S
C1644 H1630 0.960 . S
C1644 H1631 0.960 . S
C1644 C1643 1.524 . S
C1645 C1642 1.403 . S
C1645 C1646 1.392 . S
C1645 C1649 1.495 . S
C1646 C1645 1.392 . S
C1646 C1647 1.385 . S
C1646 C1648 1.478 . S
C1647 H1641 0.930 . S
C1647 C1643 1.400 . S
C1647 C1646 1.385 . S
C1648 C1646 1.478 . S
C1648 C1650 1.381 . S
C1648 C1654 1.383 . S
C1649 C1645 1.495 . S
C1649 H1655 0.959 . S
C1649 H1656 0.961 . S
C1649 H1657 0.960 . S
C1650 C1648 1.381 . S
C1650 C1651 1.394 . S
C1650 H1658 0.930 . S
C1651 C1650 1.394 . S
C1651 C1652 1.383 . S
C1651 H1659 0.929 . S
C1652 C1651 1.383 . S
C1652 C1653 1.377 . S
C1653 H1637 0.930 . S
C1653 C1652 1.377 . S
C1653 C1654 1.379 . S
C1654 H1638 0.931 . S
C1654 C1648 1.383 . S
C1654 C1653 1.379 . S
H1655 C1649 0.959 . S
H1656 C1649 0.961 . S
H1657 C1649 0.960 . S
H1658 C1650 0.930 . S
H1659 C1651 0.929 . S
H1660 C1668 0.929 . S
H1661 C1670 0.930 . S
H1662 C1672 0.930 . S
H1663 C1675 0.929 . S
H1664 C1678 0.930 . S
H1665 C1680 0.960 . S
H1666 C1680 0.960 . S
H1667 C1680 0.960 . S
C1668 H1660 0.929 . S
C1668 C1669 1.377 . S
C1668 C1670 1.384 . S
C1669 C1668 1.377 . S
C1669 C1675 1.390 . S
C1670 H1661 0.930 . S
C1670 C1668 1.384 . S
C1670 C1671 1.372 . S
C1671 C1670 1.372 . S
C1671 C1672 1.400 . S
C1671 C1676 1.490 . S
C1672 H1662 0.930 . S
C1672 C1671 1.400 . S
C1672 C1675 1.386 . S
H1673 C1689 0.930 . S
H1674 C1690 0.931 . S
C1675 H1663 0.929 . S
C1675 C1669 1.390 . S
C1675 C1672 1.386 . S
C1676 C1671 1.490 . S
C1676 C1678 1.395 . S
C1676 C1679 1.403 . S
H1677 C1683 0.930 . S
C1678 H1664 0.930 . S
C1678 C1676 1.395 . S
C1678 C1681 1.403 . S
C1679 C1676 1.403 . S
C1679 C1680 1.524 . S
C1679 C1683 1.400 . S
C1680 H1665 0.960 . S
C1680 H1666 0.960 . S
C1680 H1667 0.960 . S
C1680 C1679 1.524 . S
C1681 C1678 1.403 . S
C1681 C1682 1.392 . S
C1681 C1685 1.495 . S
C1682 C1681 1.392 . S
C1682 C1683 1.385 . S
C1682 C1684 1.478 . S
C1683 H1677 0.930 . S
C1683 C1679 1.400 . S
C1683 C1682 1.385 . S
C1684 C1682 1.478 . S
C1684 C1686 1.381 . S
C1684 C1690 1.383 . S
C1685 C1681 1.495 . S
C1685 H1691 0.959 . S
C1685 H1692 0.961 . S
C1685 H1693 0.960 . S
C1686 C1684 1.381 . S
C1686 C1687 1.394 . S
C1686 H1694 0.930 . S
C1687 C1686 1.394 . S
C1687 C1688 1.383 . S
C1687 H1695 0.929 . S
C1688 C1687 1.383 . S
C1688 C1689 1.377 . S
C1689 H1673 0.930 . S
C1689 C1688 1.377 . S
C1689 C1690 1.379 . S
C1690 H1674 0.931 . S
C1690 C1684 1.383 . S
C1690 C1689 1.379 . S
H1691 C1685 0.959 . S
H1692 C1685 0.961 . S
H1693 C1685 0.960 . S
H1694 C1686 0.930 . S
H1695 C1687 0.929 . S
H1696 C1704 0.929 . S
H1697 C1706 0.930 . S
H1698 C1708 0.930 . S
H1699 C1711 0.929 . S
H1700 C1714 0.930 . S
H1701 C1716 0.960 . S
H1702 C1716 0.960 . S
H1703 C1716 0.960 . S
C1704 H1696 0.929 . S
C1704 C1705 1.377 . S
C1704 C1706 1.384 . S
C1705 C1704 1.377 . S
C1705 C1711 1.390 . S
C1706 H1697 0.930 . S
C1706 C1704 1.384 . S
C1706 C1707 1.372 . S
C1707 C1706 1.372 . S
C1707 C1708 1.400 . S
C1707 C1712 1.490 . S
C1708 H1698 0.930 . S
C1708 C1707 1.400 . S
C1708 C1711 1.386 . S
H1709 C1725 0.930 . S
H1710 C1726 0.931 . S
C1711 H1699 0.929 . S
C1711 C1705 1.390 . S
C1711 C1708 1.386 . S
C1712 C1707 1.490 . S
C1712 C1714 1.395 . S
C1712 C1715 1.403 . S
H1713 C1719 0.930 . S
C1714 H1700 0.930 . S
C1714 C1712 1.395 . S
C1714 C1717 1.403 . S
C1715 C1712 1.403 . S
C1715 C1716 1.524 . S
C1715 C1719 1.400 . S
C1716 H1701 0.960 . S
C1716 H1702 0.960 . S
C1716 H1703 0.960 . S
C1716 C1715 1.524 . S
C1717 C1714 1.403 . S
C1717 C1718 1.392 . S
C1717 C1721 1.495 . S
C1718 C1717 1.392 . S
C1718 C1719 1.385 . S
C1718 C1720 1.478 . S
C1719 H1713 0.930 . S
C1719 C1715 1.400 . S
C1719 C1718 1.385 . S
C1720 C1718 1.478 . S
C1720 C1722 1.381 . S
C1720 C1726 1.383 . S
C1721 C1717 1.495 . S
C1721 H1727 0.959 . S
C1721 H1728 0.961 . S
C1721 H1729 0.960 . S
C1722 C1720 1.381 . S
C1722 C1723 1.394 . S
C1722 H1730 0.930 . S
C1723 C1722 1.394 . S
C1723 C1724 1.383 . S
C1723 H1731 0.929 . S
C1724 C1723 1.383 . S
C1724 C1725 1.377 . S
C1725 H1709 0.930 . S
C1725 C1724 1.377 . S
C1725 C1726 1.379 . S
C1726 H1710 0.931 . S
C1726 C1720 1.383 . S
C1726 C1725 1.379 . S
H1727 C1721 0.959 . S
H1728 C1721 0.961 . S
H1729 C1721 0.960 . S
H1730 C1722 0.930 . S
H1731 C1723 0.929 . S
H1732 C1740 0.929 . S
H1733 C1742 0.930 . S
H1734 C1744 0.930 . S
H1735 C1747 0.929 . S
H1736 C1750 0.930 . S
H1737 C1752 0.960 . S
H1738 C1752 0.960 . S
H1739 C1752 0.960 . S
C1740 H1732 0.929 . S
C1740 C1741 1.377 . S
C1740 C1742 1.384 . S
C1741 C1740 1.377 . S
C1741 C1747 1.390 . S
C1742 H1733 0.930 . S
C1742 C1740 1.384 . S
C1742 C1743 1.372 . S
C1743 C1742 1.372 . S
C1743 C1744 1.400 . S
C1743 C1748 1.490 . S
C1744 H1734 0.930 . S
C1744 C1743 1.400 . S
C1744 C1747 1.386 . S
H1745 C1761 0.930 . S
H1746 C1762 0.931 . S
C1747 H1735 0.929 . S
C1747 C1741 1.390 . S
C1747 C1744 1.386 . S
C1748 C1743 1.490 . S
C1748 C1750 1.395 . S
C1748 C1751 1.403 . S
H1749 C1755 0.930 . S
C1750 H1736 0.930 . S
C1750 C1748 1.395 . S
C1750 C1753 1.403 . S
C1751 C1748 1.403 . S
C1751 C1752 1.524 . S
C1751 C1755 1.400 . S
C1752 H1737 0.960 . S
C1752 H1738 0.960 . S
C1752 H1739 0.960 . S
C1752 C1751 1.524 . S
C1753 C1750 1.403 . S
C1753 C1754 1.392 . S
C1753 C1757 1.495 . S
C1754 C1753 1.392 . S
C1754 C1755 1.385 . S
C1754 C1756 1.478 . S
C1755 H1749 0.930 . S
C1755 C1751 1.400 . S
C1755 C1754 1.385 . S
C1756 C1754 1.478 . S
C1756 C1758 1.381 . S
C1756 C1762 1.383 . S
C1757 C1753 1.495 . S
C1757 H1763 0.959 . S
C1757 H1764 0.961 . S
C1757 H1765 0.960 . S
C1758 C1756 1.381 . S
C1758 C1759 1.394 . S
C1758 H1766 0.930 . S
C1759 C1758 1.394 . S
C1759 C1760 1.383 . S
C1759 H1767 0.929 . S
C1760 C1759 1.383 . S
C1760 C1761 1.377 . S
C1761 H1745 0.930 . S
C1761 C1760 1.377 . S
C1761 C1762 1.379 . S
C1762 H1746 0.931 . S
C1762 C1756 1.383 . S
C1762 C1761 1.379 . S
H1763 C1757 0.959 . S
H1764 C1757 0.961 . S
H1765 C1757 0.960 . S
H1766 C1758 0.930 . S
H1767 C1759 0.929 . S
H1768 C1776 0.929 . S
H1769 C1778 0.930 . S
H1770 C1780 0.930 . S
H1771 C1783 0.929 . S
H1772 C1786 0.930 . S
H1773 C1788 0.960 . S
H1774 C1788 0.960 . S
H1775 C1788 0.960 . S
C1776 H1768 0.929 . S
C1776 C1777 1.377 . S
C1776 C1778 1.384 . S
C1777 C1776 1.377 . S
C1777 C1783 1.390 . S
C1778 H1769 0.930 . S
C1778 C1776 1.384 . S
C1778 C1779 1.372 . S
C1779 C1778 1.372 . S
C1779 C1780 1.400 . S
C1779 C1784 1.490 . S
C1780 H1770 0.930 . S
C1780 C1779 1.400 . S
C1780 C1783 1.386 . S
H1781 C1797 0.930 . S
H1782 C1798 0.931 . S
C1783 H1771 0.929 . S
C1783 C1777 1.390 . S
C1783 C1780 1.386 . S
C1784 C1779 1.490 . S
C1784 C1786 1.395 . S
C1784 C1787 1.403 . S
H1785 C1791 0.930 . S
C1786 H1772 0.930 . S
C1786 C1784 1.395 . S
C1786 C1789 1.403 . S
C1787 C1784 1.403 . S
C1787 C1788 1.524 . S
C1787 C1791 1.400 . S
C1788 H1773 0.960 . S
C1788 H1774 0.960 . S
C1788 H1775 0.960 . S
C1788 C1787 1.524 . S
C1789 C1786 1.403 . S
C1789 C1790 1.392 . S
C1789 C1793 1.495 . S
C1790 C1789 1.392 . S
C1790 C1791 1.385 . S
C1790 C1792 1.478 . S
C1791 H1785 0.930 . S
C1791 C1787 1.400 . S
C1791 C1790 1.385 . S
C1792 C1790 1.478 . S
C1792 C1794 1.381 . S
C1792 C1798 1.383 . S
C1793 C1789 1.495 . S
C1793 H1799 0.959 . S
C1793 H1800 0.961 . S
C1793 H1801 0.960 . S
C1794 C1792 1.381 . S
C1794 C1795 1.394 . S
C1794 H1802 0.930 . S
C1795 C1794 1.394 . S
C1795 C1796 1.383 . S
C1795 H1803 0.929 . S
C1796 C1795 1.383 . S
C1796 C1797 1.377 . S
C1797 H1781 0.930 . S
C1797 C1796 1.377 . S
C1797 C1798 1.379 . S
C1798 H1782 0.931 . S
C1798 C1792 1.383 . S
C1798 C1797 1.379 . S
H1799 C1793 0.959 . S
H1800 C1793 0.961 . S
H1801 C1793 0.960 . S
H1802 C1794 0.930 . S
H1803 C1795 0.929 . S
H1804 C1812 0.929 . S
H1805 C1814 0.930 . S
H1806 C1816 0.930 . S
H1807 C1819 0.929 . S
H1808 C1822 0.930 . S
H1809 C1824 0.960 . S
H1810 C1824 0.960 . S
H1811 C1824 0.960 . S
C1812 H1804 0.929 . S
C1812 C1813 1.377 . S
C1812 C1814 1.384 . S
C1813 C1812 1.377 . S
C1813 C1819 1.390 . S
C1814 H1805 0.930 . S
C1814 C1812 1.384 . S
C1814 C1815 1.372 . S
C1815 C1814 1.372 . S
C1815 C1816 1.400 . S
C1815 C1820 1.490 . S
C1816 H1806 0.930 . S
C1816 C1815 1.400 . S
C1816 C1819 1.386 . S
H1817 C1833 0.930 . S
H1818 C1834 0.931 . S
C1819 H1807 0.929 . S
C1819 C1813 1.390 . S
C1819 C1816 1.386 . S
C1820 C1815 1.490 . S
C1820 C1822 1.395 . S
C1820 C1823 1.403 . S
H1821 C1827 0.930 . S
C1822 H1808 0.930 . S
C1822 C1820 1.395 . S
C1822 C1825 1.403 . S
C1823 C1820 1.403 . S
C1823 C1824 1.524 . S
C1823 C1827 1.400 . S
C1824 H1809 0.960 . S
C1824 H1810 0.960 . S
C1824 H1811 0.960 . S
C1824 C1823 1.524 . S
C1825 C1822 1.403 . S
C1825 C1826 1.392 . S
C1825 C1829 1.495 . S
C1826 C1825 1.392 . S
C1826 C1827 1.385 . S
C1826 C1828 1.478 . S
C1827 H1821 0.930 . S
C1827 C1823 1.400 . S
C1827 C1826 1.385 . S
C1828 C1826 1.478 . S
C1828 C1830 1.381 . S
C1828 C1834 1.383 . S
C1829 C1825 1.495 . S
C1829 H1835 0.959 . S
C1829 H1836 0.961 . S
C1829 H1837 0.960 . S
C1830 C1828 1.381 . S
C1830 C1831 1.394 . S
C1830 H1838 0.930 . S
C1831 C1830 1.394 . S
C1831 C1832 1.383 . S
C1831 H1839 0.929 . S
C1832 C1831 1.383 . S
C1832 C1833 1.377 . S
C1833 H1817 0.930 . S
C1833 C1832 1.377 . S
C1833 C1834 1.379 . S
C1834 H1818 0.931 . S
C1834 C1828 1.383 . S
C1834 C1833 1.379 . S
H1835 C1829 0.959 . S
H1836 C1829 0.961 . S
H1837 C1829 0.960 . S
H1838 C1830 0.930 . S
H1839 C1831 0.929 . S
H1840 C1848 0.929 . S
H1841 C1850 0.930 . S
H1842 C1852 0.930 . S
H1843 C1855 0.929 . S
H1844 C1858 0.930 . S
H1845 C1860 0.960 . S
H1846 C1860 0.960 . S
H1847 C1860 0.960 . S
C1848 H1840 0.929 . S
C1848 C1849 1.377 . S
C1848 C1850 1.384 . S
C1849 C1848 1.377 . S
C1849 C1855 1.390 . S
C1850 H1841 0.930 . S
C1850 C1848 1.384 . S
C1850 C1851 1.372 . S
C1851 C1850 1.372 . S
C1851 C1852 1.400 . S
C1851 C1856 1.490 . S
C1852 H1842 0.930 . S
C1852 C1851 1.400 . S
C1852 C1855 1.386 . S
H1853 C1869 0.930 . S
H1854 C1870 0.931 . S
C1855 H1843 0.929 . S
C1855 C1849 1.390 . S
C1855 C1852 1.386 . S
C1856 C1851 1.490 . S
C1856 C1858 1.395 . S
C1856 C1859 1.403 . S
H1857 C1863 0.930 . S
C1858 H1844 0.930 . S
C1858 C1856 1.395 . S
C1858 C1861 1.403 . S
C1859 C1856 1.403 . S
C1859 C1860 1.524 . S
C1859 C1863 1.400 . S
C1860 H1845 0.960 . S
C1860 H1846 0.960 . S
C1860 H1847 0.960 . S
C1860 C1859 1.524 . S
C1861 C1858 1.403 . S
C1861 C1862 1.392 . S
C1861 C1865 1.495 . S
C1862 C1861 1.392 . S
C1862 C1863 1.385 . S
C1862 C1864 1.478 . S
C1863 H1857 0.930 . S
C1863 C1859 1.400 . S
C1863 C1862 1.385 . S
C1864 C1862 1.478 . S
C1864 C1866 1.381 . S
C1864 C1870 1.383 . S
C1865 C1861 1.495 . S
C1865 H1871 0.959 . S
C1865 H1872 0.961 . S
C1865 H1873 0.960 . S
C1866 C1864 1.381 . S
C1866 C1867 1.394 . S
C1866 H1874 0.930 . S
C1867 C1866 1.394 . S
C1867 C1868 1.383 . S
C1867 H1875 0.929 . S
C1868 C1867 1.383 . S
C1868 C1869 1.377 . S
C1869 H1853 0.930 . S
C1869 C1868 1.377 . S
C1869 C1870 1.379 . S
C1870 H1854 0.931 . S
C1870 C1864 1.383 . S
C1870 C1869 1.379 . S
H1871 C1865 0.959 . S
H1872 C1865 0.961 . S
H1873 C1865 0.960 . S
H1874 C1866 0.930 . S
H1875 C1867 0.929 . S
H1876 C1884 0.929 . S
H1877 C1886 0.930 . S
H1878 C1888 0.930 . S
H1879 C1891 0.929 . S
H1880 C1894 0.930 . S
H1881 C1896 0.960 . S
H1882 C1896 0.960 . S
H1883 C1896 0.960 . S
C1884 H1876 0.929 . S
C1884 C1885 1.377 . S
C1884 C1886 1.384 . S
C1885 C1884 1.377 . S
C1885 C1891 1.390 . S
C1886 H1877 0.930 . S
C1886 C1884 1.384 . S
C1886 C1887 1.372 . S
C1887 C1886 1.372 . S
C1887 C1888 1.400 . S
C1887 C1892 1.490 . S
C1888 H1878 0.930 . S
C1888 C1887 1.400 . S
C1888 C1891 1.386 . S
H1889 C1905 0.930 . S
H1890 C1906 0.931 . S
C1891 H1879 0.929 . S
C1891 C1885 1.390 . S
C1891 C1888 1.386 . S
C1892 C1887 1.490 . S
C1892 C1894 1.395 . S
C1892 C1895 1.403 . S
H1893 C1899 0.930 . S
C1894 H1880 0.930 . S
C1894 C1892 1.395 . S
C1894 C1897 1.403 . S
C1895 C1892 1.403 . S
C1895 C1896 1.524 . S
C1895 C1899 1.400 . S
C1896 H1881 0.960 . S
C1896 H1882 0.960 . S
C1896 H1883 0.960 . S
C1896 C1895 1.524 . S
C1897 C1894 1.403 . S
C1897 C1898 1.392 . S
C1897 C1901 1.495 . S
C1898 C1897 1.392 . S
C1898 C1899 1.385 . S
C1898 C1900 1.478 . S
C1899 H1893 0.930 . S
C1899 C1895 1.400 . S
C1899 C1898 1.385 . S
C1900 C1898 1.478 . S
C1900 C1902 1.381 . S
C1900 C1906 1.383 . S
C1901 C1897 1.495 . S
C1901 H1907 0.959 . S
C1901 H1908 0.961 . S
C1901 H1909 0.960 . S
C1902 C1900 1.381 . S
C1902 C1903 1.394 . S
C1902 H1910 0.930 . S
C1903 C1902 1.394 . S
C1903 C1904 1.383 . S
C1903 H1911 0.929 . S
C1904 C1903 1.383 . S
C1904 C1905 1.377 . S
C1905 H1889 0.930 . S
C1905 C1904 1.377 . S
C1905 C1906 1.379 . S
C1906 H1890 0.931 . S
C1906 C1900 1.383 . S
C1906 C1905 1.379 . S
H1907 C1901 0.959 . S
H1908 C1901 0.961 . S
H1909 C1901 0.960 . S
H1910 C1902 0.930 . S
H1911 C1903 0.929 . S
H1912 C1920 0.929 . S
H1913 C1922 0.930 . S
H1914 C1924 0.930 . S
H1915 C1927 0.929 . S
H1916 C1930 0.930 . S
H1917 C1932 0.960 . S
H1918 C1932 0.960 . S
H1919 C1932 0.960 . S
C1920 H1912 0.929 . S
C1920 C1921 1.377 . S
C1920 C1922 1.384 . S
C1921 C1920 1.377 . S
C1921 C1927 1.390 . S
C1922 H1913 0.930 . S
C1922 C1920 1.384 . S
C1922 C1923 1.372 . S
C1923 C1922 1.372 . S
C1923 C1924 1.400 . S
C1923 C1928 1.490 . S
C1924 H1914 0.930 . S
C1924 C1923 1.400 . S
C1924 C1927 1.386 . S
H1925 C1941 0.930 . S
H1926 C1942 0.931 . S
C1927 H1915 0.929 . S
C1927 C1921 1.390 . S
C1927 C1924 1.386 . S
C1928 C1923 1.490 . S
C1928 C1930 1.395 . S
C1928 C1931 1.403 . S
H1929 C1935 0.930 . S
C1930 H1916 0.930 . S
C1930 C1928 1.395 . S
C1930 C1933 1.403 . S
C1931 C1928 1.403 . S
C1931 C1932 1.524 . S
C1931 C1935 1.400 . S
C1932 H1917 0.960 . S
C1932 H1918 0.960 . S
C1932 H1919 0.960 . S
C1932 C1931 1.524 . S
C1933 C1930 1.403 . S
C1933 C1934 1.392 . S
C1933 C1937 1.495 . S
C1934 C1933 1.392 . S
C1934 C1935 1.385 . S
C1934 C1936 1.478 . S
C1935 H1929 0.930 . S
C1935 C1931 1.400 . S
C1935 C1934 1.385 . S
C1936 C1934 1.478 . S
C1936 C1938 1.381 . S
C1936 C1942 1.383 . S
C1937 C1933 1.495 . S
C1937 H1943 0.959 . S
C1937 H1944 0.961 . S
C1937 H1945 0.960 . S
C1938 C1936 1.381 . S
C1938 C1939 1.394 . S
C1938 H1946 0.930 . S
C1939 C1938 1.394 . S
C1939 C1940 1.383 . S
C1939 H1947 0.929 . S
C1940 C1939 1.383 . S
C1940 C1941 1.377 . S
C1941 H1925 0.930 . S
C1941 C1940 1.377 . S
C1941 C1942 1.379 . S
C1942 H1926 0.931 . S
C1942 C1936 1.383 . S
C1942 C1941 1.379 . S
H1943 C1937 0.959 . S
H1944 C1937 0.961 . S
H1945 C1937 0.960 . S
H1946 C1938 0.930 . S
H1947 C1939 0.929 . S
H1948 C1956 0.929 . S
H1949 C1958 0.930 . S
H1950 C1960 0.930 . S
H1951 C1963 0.929 . S
H1952 C1966 0.930 . S
H1953 C1968 0.960 . S
H1954 C1968 0.960 . S
H1955 C1968 0.960 . S
C1956 H1948 0.929 . S
C1956 C1957 1.377 . S
C1956 C1958 1.384 . S
C1957 C1956 1.377 . S
C1957 C1963 1.390 . S
C1958 H1949 0.930 . S
C1958 C1956 1.384 . S
C1958 C1959 1.372 . S
C1959 C1958 1.372 . S
C1959 C1960 1.400 . S
C1959 C1964 1.490 . S
C1960 H1950 0.930 . S
C1960 C1959 1.400 . S
C1960 C1963 1.386 . S
H1961 C1977 0.930 . S
H1962 C1978 0.931 . S
C1963 H1951 0.929 . S
C1963 C1957 1.390 . S
C1963 C1960 1.386 . S
C1964 C1959 1.490 . S
C1964 C1966 1.395 . S
C1964 C1967 1.403 . S
H1965 C1971 0.930 . S
C1966 H1952 0.930 . S
C1966 C1964 1.395 . S
C1966 C1969 1.403 . S
C1967 C1964 1.403 . S
C1967 C1968 1.524 . S
C1967 C1971 1.400 . S
C1968 H1953 0.960 . S
C1968 H1954 0.960 . S
C1968 H1955 0.960 . S
C1968 C1967 1.524 . S
C1969 C1966 1.403 . S
C1969 C1970 1.392 . S
C1969 C1973 1.495 . S
C1970 C1969 1.392 . S
C1970 C1971 1.385 . S
C1970 C1972 1.478 . S
C1971 H1965 0.930 . S
C1971 C1967 1.400 . S
C1971 C1970 1.385 . S
C1972 C1970 1.478 . S
C1972 C1974 1.381 . S
C1972 C1978 1.383 . S
C1973 C1969 1.495 . S
C1973 H1979 0.959 . S
C1973 H1980 0.961 . S
C1973 H1981 0.960 . S
C1974 C1972 1.381 . S
C1974 C1975 1.394 . S
C1974 H1982 0.930 . S
C1975 C1974 1.394 . S
C1975 C1976 1.383 . S
C1975 H1983 0.929 . S
C1976 C1975 1.383 . S
C1976 C1977 1.377 . S
C1977 H1961 0.930 . S
C1977 C1976 1.377 . S
C1977 C1978 1.379 . S
C1978 H1962 0.931 . S
C1978 C1972 1.383 . S
C1978 C1977 1.379 . S
H1979 C1973 0.959 . S
H1980 C1973 0.961 . S
H1981 C1973 0.960 . S
H1982 C1974 0.930 . S
H1983 C1975 0.929 . S
H1984 C1992 0.929 . S
H1985 C1994 0.930 . S
H1986 C1996 0.930 . S
H1987 C1999 0.929 . S
H1988 C2002 0.930 . S
H1989 C2004 0.960 . S
H1990 C2004 0.960 . S
H1991 C2004 0.960 . S
C1992 H1984 0.929 . S
C1992 C1993 1.377 . S
C1992 C1994 1.384 . S
C1993 C1992 1.377 . S
C1993 C1999 1.390 . S
C1994 H1985 0.930 . S
C1994 C1992 1.384 . S
C1994 C1995 1.372 . S
C1995 C1994 1.372 . S
C1995 C1996 1.400 . S
C1995 C2000 1.490 . S
C1996 H1986 0.930 . S
C1996 C1995 1.400 . S
C1996 C1999 1.386 . S
H1997 C2013 0.930 . S
H1998 C2014 0.931 . S
C1999 H1987 0.929 . S
C1999 C1993 1.390 . S
C1999 C1996 1.386 . S
C2000 C1995 1.490 . S
C2000 C2002 1.395 . S
C2000 C2003 1.403 . S
H2001 C2007 0.930 . S
C2002 H1988 0.930 . S
C2002 C2000 1.395 . S
C2002 C2005 1.403 . S
C2003 C2000 1.403 . S
C2003 C2004 1.524 . S
C2003 C2007 1.400 . S
C2004 H1989 0.960 . S
C2004 H1990 0.960 . S
C2004 H1991 0.960 . S
C2004 C2003 1.524 . S
C2005 C2002 1.403 . S
C2005 C2006 1.392 . S
C2005 C2009 1.495 . S
C2006 C2005 1.392 . S
C2006 C2007 1.385 . S
C2006 C2008 1.478 . S
C2007 H2001 0.930 . S
C2007 C2003 1.400 . S
C2007 C2006 1.385 . S
C2008 C2006 1.478 . S
C2008 C2010 1.381 . S
C2008 C2014 1.383 . S
C2009 C2005 1.495 . S
C2009 H2015 0.959 . S
C2009 H2016 0.961 . S
C2009 H2017 0.960 . S
C2010 C2008 1.381 . S
C2010 C2011 1.394 . S
C2010 H2018 0.930 . S
C2011 C2010 1.394 . S
C2011 C2012 1.383 . S
C2011 H2019 0.929 . S
C2012 C2011 1.383 . S
C2012 C2013 1.377 . S
C2013 H1997 0.930 . S
C2013 C2012 1.377 . S
C2013 C2014 1.379 . S
C2014 H1998 0.931 . S
C2014 C2008 1.383 . S
C2014 C2013 1.379 . S
H2015 C2009 0.959 . S
H2016 C2009 0.961 . S
H2017 C2009 0.960 . S
H2018 C2010 0.930 . S
H2019 C2011 0.929 . S
H2020 C2028 0.929 . S
H2021 C2030 0.930 . S
H2022 C2032 0.930 . S
H2023 C2035 0.929 . S
H2024 C2038 0.930 . S
H2025 C2040 0.960 . S
H2026 C2040 0.960 . S
H2027 C2040 0.960 . S
C2028 H2020 0.929 . S
C2028 C2029 1.377 . S
C2028 C2030 1.384 . S
C2029 C2028 1.377 . S
C2029 C2035 1.390 . S
C2030 H2021 0.930 . S
C2030 C2028 1.384 . S
C2030 C2031 1.372 . S
C2031 C2030 1.372 . S
C2031 C2032 1.400 . S
C2031 C2036 1.490 . S
C2032 H2022 0.930 . S
C2032 C2031 1.400 . S
C2032 C2035 1.386 . S
H2033 C2049 0.930 . S
H2034 C2050 0.931 . S
C2035 H2023 0.929 . S
C2035 C2029 1.390 . S
C2035 C2032 1.386 . S
C2036 C2031 1.490 . S
C2036 C2038 1.395 . S
C2036 C2039 1.403 . S
H2037 C2043 0.930 . S
C2038 H2024 0.930 . S
C2038 C2036 1.395 . S
C2038 C2041 1.403 . S
C2039 C2036 1.403 . S
C2039 C2040 1.524 . S
C2039 C2043 1.400 . S
C2040 H2025 0.960 . S
C2040 H2026 0.960 . S
C2040 H2027 0.960 . S
C2040 C2039 1.524 . S
C2041 C2038 1.403 . S
C2041 C2042 1.392 . S
C2041 C2045 1.495 . S
C2042 C2041 1.392 . S
C2042 C2043 1.385 . S
C2042 C2044 1.478 . S
C2043 H2037 0.930 . S
C2043 C2039 1.400 . S
C2043 C2042 1.385 . S
C2044 C2042 1.478 . S
C2044 C2046 1.381 . S
C2044 C2050 1.383 . S
C2045 C2041 1.495 . S
C2045 H2051 0.959 . S
C2045 H2052 0.961 . S
C2045 H2053 0.960 . S
C2046 C2044 1.381 . S
C2046 C2047 1.394 . S
C2046 H2054 0.930 . S
C2047 C2046 1.394 . S
C2047 C2048 1.383 . S
C2047 H2055 0.929 . S
C2048 C2047 1.383 . S
C2048 C2049 1.377 . S
C2049 H2033 0.930 . S
C2049 C2048 1.377 . S
C2049 C2050 1.379 . S
C2050 H2034 0.931 . S
C2050 C2044 1.383 . S
C2050 C2049 1.379 . S
H2051 C2045 0.959 . S
H2052 C2045 0.961 . S
H2053 C2045 0.960 . S
H2054 C2046 0.930 . S
H2055 C2047 0.929 . S
H2056 C2064 0.929 . S
H2057 C2066 0.930 . S
H2058 C2068 0.930 . S
H2059 C2071 0.929 . S
H2060 C2074 0.930 . S
H2061 C2076 0.960 . S
H2062 C2076 0.960 . S
H2063 C2076 0.960 . S
C2064 H2056 0.929 . S
C2064 C2065 1.377 . S
C2064 C2066 1.384 . S
C2065 C2064 1.377 . S
C2065 C2071 1.390 . S
C2066 H2057 0.930 . S
C2066 C2064 1.384 . S
C2066 C2067 1.372 . S
C2067 C2066 1.372 . S
C2067 C2068 1.400 . S
C2067 C2072 1.490 . S
C2068 H2058 0.930 . S
C2068 C2067 1.400 . S
C2068 C2071 1.386 . S
H2069 C2085 0.920 1_545 S
H2070 C2086 0.931 . S
C2071 H2059 0.929 . S
C2071 C2065 1.390 . S
C2071 C2068 1.386 . S
C2072 C2067 1.490 . S
C2072 C2074 1.395 . S
C2072 C2075 1.403 . S
H2073 C2079 0.930 . S
C2074 H2060 0.930 . S
C2074 C2072 1.395 . S
C2074 C2077 1.403 . S
C2075 C2072 1.403 . S
C2075 C2076 1.524 . S
C2075 C2079 1.400 . S
C2076 H2061 0.960 . S
C2076 H2062 0.960 . S
C2076 H2063 0.960 . S
C2076 C2075 1.524 . S
C2077 C2074 1.403 . S
C2077 C2078 1.392 . S
C2077 C2081 1.495 . S
C2078 C2077 1.392 . S
C2078 C2079 1.385 . S
C2078 C2080 1.478 . S
C2079 H2073 0.930 . S
C2079 C2075 1.400 . S
C2079 C2078 1.385 . S
C2080 C2078 1.478 . S
C2080 C2082 1.381 . S
C2080 C2086 1.383 . S
C2081 C2077 1.495 . S
C2081 H2087 0.959 . S
C2081 H2088 0.961 . S
C2081 H2089 0.960 . S
C2082 C2080 1.381 . S
C2082 C2083 1.394 . S
C2082 H2090 0.930 . S
C2083 C2082 1.394 . S
C2083 C2084 1.383 . S
C2083 H2091 0.929 1_556 S
C2084 C2083 1.383 . S
C2084 C2085 1.377 . S
C2085 H2069 0.920 1_565 S
C2085 C2084 1.377 . S
C2085 C2086 1.379 . S
C2086 H2070 0.931 . S
C2086 C2080 1.383 . S
C2086 C2085 1.379 . S
H2087 C2081 0.959 . S
H2088 C2081 0.961 . S
H2089 C2081 0.960 . S
H2090 C2082 0.930 . S
H2091 C2083 0.929 1_554 S
H2092 C2100 0.929 . S
H2093 C2102 0.930 . S
H2094 C2104 0.930 . S
H2095 C2107 0.929 . S
H2096 C2110 0.930 . S
H2097 C2112 0.960 . S
H2098 C2112 0.960 . S
H2099 C2112 0.960 . S
C2100 H2092 0.929 . S
C2100 C2101 1.377 . S
C2100 C2102 1.384 . S
C2101 C2100 1.377 . S
C2101 C2107 1.390 . S
C2102 H2093 0.930 . S
C2102 C2100 1.384 . S
C2102 C2103 1.372 . S
C2103 C2102 1.372 . S
C2103 C2104 1.400 . S
C2103 C2108 1.490 . S
C2104 H2094 0.930 . S
C2104 C2103 1.400 . S
C2104 C2107 1.386 . S
H2105 C2121 0.930 . S
H2106 C2122 0.931 . S
C2107 H2095 0.929 . S
C2107 C2101 1.390 . S
C2107 C2104 1.386 . S
C2108 C2103 1.490 . S
C2108 C2110 1.395 . S
C2108 C2111 1.403 . S
H2109 C2115 0.930 . S
C2110 H2096 0.930 . S
C2110 C2108 1.395 . S
C2110 C2113 1.403 . S
C2111 C2108 1.403 . S
C2111 C2112 1.524 . S
C2111 C2115 1.400 . S
C2112 H2097 0.960 . S
C2112 H2098 0.960 . S
C2112 H2099 0.960 . S
C2112 C2111 1.524 . S
C2113 C2110 1.403 . S
C2113 C2114 1.392 . S
C2113 C2117 1.495 . S
C2114 C2113 1.392 . S
C2114 C2115 1.385 . S
C2114 C2116 1.478 . S
C2115 H2109 0.930 . S
C2115 C2111 1.400 . S
C2115 C2114 1.385 . S
C2116 C2114 1.478 . S
C2116 C2118 1.381 . S
C2116 C2122 1.383 . S
C2117 C2113 1.495 . S
C2117 H2123 0.959 . S
C2117 H2124 0.961 . S
C2117 H2125 0.960 . S
C2118 C2116 1.381 . S
C2118 C2119 1.394 . S
C2118 H2126 0.930 . S
C2119 C2118 1.394 . S
C2119 C2120 1.383 . S
C2119 H2127 0.929 . S
C2120 C2119 1.383 . S
C2120 C2121 1.377 . S
C2121 H2105 0.930 . S
C2121 C2120 1.377 . S
C2121 C2122 1.379 . S
C2122 H2106 0.931 . S
C2122 C2116 1.383 . S
C2122 C2121 1.379 . S
H2123 C2117 0.959 . S
H2124 C2117 0.961 . S
H2125 C2117 0.960 . S
H2126 C2118 0.930 . S
H2127 C2119 0.929 . S
H2128 C2136 0.929 . S
H2129 C2138 0.930 . S
H2130 C2140 0.930 . S
H2131 C2143 0.929 . S
H2132 C2146 0.930 . S
H2133 C2148 0.960 . S
H2134 C2148 0.962 1_545 S
H2135 C2148 0.960 . S
C2136 H2128 0.929 . S
C2136 C2137 1.377 . S
C2136 C2138 1.384 . S
C2137 C2136 1.377 . S
C2137 C2143 1.390 1_545 S
C2138 H2129 0.930 . S
C2138 C2136 1.384 . S
C2138 C2139 1.372 . S
C2139 C2138 1.372 . S
C2139 C2140 1.400 1_545 S
C2139 C2144 1.490 . S
C2140 H2130 0.930 . S
C2140 C2139 1.400 1_565 S
C2140 C2143 1.386 . S
H2141 C2157 0.930 1_565 S
H2142 C2158 0.931 1_565 S
C2143 H2131 0.929 . S
C2143 C2137 1.390 1_565 S
C2143 C2140 1.386 . S
C2144 C2139 1.490 . S
C2144 C2146 1.395 . S
C2144 C2147 1.403 . S
H2145 C2151 0.936 . S
C2146 H2132 0.930 . S
C2146 C2144 1.395 . S
C2146 C2149 1.403 . S
C2147 C2144 1.403 . S
C2147 C2148 1.524 1_545 S
C2147 C2151 1.400 . S
C2148 H2133 0.960 . S
C2148 H2134 0.962 1_565 S
C2148 H2135 0.960 . S
C2148 C2147 1.524 1_565 S
C2149 C2146 1.403 . S
C2149 C2150 1.392 . S
C2149 C2153 1.495 . S
C2150 C2149 1.392 . S
C2150 C2151 1.385 . S
C2150 C2152 1.478 . S
C2151 H2145 0.936 . S
C2151 C2147 1.400 . S
C2151 C2150 1.385 . S
C2152 C2150 1.478 . S
C2152 C2154 1.381 . S
C2152 C2158 1.383 . S
C2153 C2149 1.495 . S
C2153 H2159 0.959 . S
C2153 H2160 0.961 . S
C2153 H2161 0.960 . S
C2154 C2152 1.381 . S
C2154 C2155 1.394 . S
C2154 H2162 0.930 . S
C2155 C2154 1.394 . S
C2155 C2156 1.383 . S
C2155 H2163 0.929 . S
C2156 C2155 1.383 . S
C2156 C2157 1.377 . S
C2157 H2141 0.930 1_545 S
C2157 C2156 1.377 . S
C2157 C2158 1.379 . S
C2158 H2142 0.931 1_545 S
C2158 C2152 1.383 . S
C2158 C2157 1.379 . S
H2159 C2153 0.959 . S
H2160 C2153 0.961 . S
H2161 C2153 0.960 . S
H2162 C2154 0.930 . S
H2163 C2155 0.929 . S
H2164 C2172 0.929 . S
H2165 C2174 0.930 . S
H2166 C2176 0.930 . S
H2167 C2179 0.929 . S
H2168 C2182 0.930 . S
H2169 C2184 0.960 . S
H2170 C2184 0.960 . S
H2171 C2184 0.960 . S
C2172 H2164 0.929 . S
C2172 C2173 1.377 . S
C2172 C2174 1.384 . S
C2173 C2172 1.377 . S
C2173 C2179 1.390 . S
C2174 H2165 0.930 . S
C2174 C2172 1.384 . S
C2174 C2175 1.372 . S
C2175 C2174 1.372 . S
C2175 C2176 1.400 . S
C2175 C2180 1.490 . S
C2176 H2166 0.930 . S
C2176 C2175 1.400 . S
C2176 C2179 1.386 . S
H2177 C2193 0.930 . S
H2178 C2194 0.931 . S
C2179 H2167 0.929 . S
C2179 C2173 1.390 . S
C2179 C2176 1.386 . S
C2180 C2175 1.490 . S
C2180 C2182 1.395 . S
C2180 C2183 1.403 . S
H2181 C2187 0.930 . S
C2182 H2168 0.930 . S
C2182 C2180 1.395 . S
C2182 C2185 1.403 . S
C2183 C2180 1.403 . S
C2183 C2184 1.524 . S
C2183 C2187 1.400 . S
C2184 H2169 0.960 . S
C2184 H2170 0.960 . S
C2184 H2171 0.960 . S
C2184 C2183 1.524 . S
C2185 C2182 1.403 . S
C2185 C2186 1.392 . S
C2185 C2189 1.495 . S
C2186 C2185 1.392 . S
C2186 C2187 1.385 . S
C2186 C2188 1.478 . S
C2187 H2181 0.930 . S
C2187 C2183 1.400 . S
C2187 C2186 1.385 . S
C2188 C2186 1.478 . S
C2188 C2190 1.381 . S
C2188 C2194 1.383 . S
C2189 C2185 1.495 . S
C2189 H2195 0.959 . S
C2189 H2196 0.961 . S
C2189 H2197 0.960 . S
C2190 C2188 1.381 . S
C2190 C2191 1.394 . S
C2190 H2198 0.930 . S
C2191 C2190 1.394 . S
C2191 C2192 1.383 . S
C2191 H2199 0.929 . S
C2192 C2191 1.383 . S
C2192 C2193 1.377 . S
C2193 H2177 0.930 . S
C2193 C2192 1.377 . S
C2193 C2194 1.379 . S
C2194 H2178 0.931 . S
C2194 C2188 1.383 . S
C2194 C2193 1.379 . S
H2195 C2189 0.959 . S
H2196 C2189 0.961 . S
H2197 C2189 0.960 . S
H2198 C2190 0.930 . S
H2199 C2191 0.929 . S
H2200 C2208 0.929 1_565 S
H2201 C2210 0.930 1_565 S
H2202 C2212 0.930 . S
H2203 C2215 0.929 . S
H2204 C2218 0.930 . S
H2205 C2220 0.960 . S
H2206 C2220 0.960 . S
H2207 C2220 0.960 . S
C2208 H2200 0.929 1_545 S
C2208 C2209 1.377 . S
C2208 C2210 1.384 . S
C2209 C2208 1.377 . S
C2209 C2215 1.390 . S
C2210 H2201 0.930 1_545 S
C2210 C2208 1.384 . S
C2210 C2211 1.372 . S
C2211 C2210 1.372 . S
C2211 C2212 1.400 . S
C2211 C2216 1.490 . S
C2212 H2202 0.930 . S
C2212 C2211 1.400 . S
C2212 C2215 1.386 . S
H2213 C2229 0.930 . S
H2214 C2230 0.931 . S
C2215 H2203 0.929 . S
C2215 C2209 1.390 . S
C2215 C2212 1.386 . S
C2216 C2211 1.490 . S
C2216 C2218 1.395 . S
C2216 C2219 1.403 . S
H2217 C2223 0.930 . S
C2218 H2204 0.930 . S
C2218 C2216 1.395 . S
C2218 C2221 1.403 . S
C2219 C2216 1.403 . S
C2219 C2220 1.524 . S
C2219 C2223 1.400 . S
C2220 H2205 0.960 . S
C2220 H2206 0.960 . S
C2220 H2207 0.960 . S
C2220 C2219 1.524 . S
C2221 C2218 1.403 . S
C2221 C2222 1.392 . S
C2221 C2225 1.495 . S
C2222 C2221 1.392 . S
C2222 C2223 1.385 . S
C2222 C2224 1.478 . S
C2223 H2217 0.930 . S
C2223 C2219 1.400 . S
C2223 C2222 1.385 . S
C2224 C2222 1.478 . S
C2224 C2226 1.381 . S
C2224 C2230 1.383 . S
C2225 C2221 1.495 . S
C2225 H2231 0.959 . S
C2225 H2232 0.961 . S
C2225 H2233 0.960 . S
C2226 C2224 1.381 . S
C2226 C2227 1.394 . S
C2226 H2234 0.915 1_545 S
C2227 C2226 1.394 . S
C2227 C2228 1.383 . S
C2227 H2235 0.929 . S
C2228 C2227 1.383 . S
C2228 C2229 1.377 . S
C2229 H2213 0.930 . S
C2229 C2228 1.377 . S
C2229 C2230 1.379 . S
C2230 H2214 0.931 . S
C2230 C2224 1.383 . S
C2230 C2229 1.379 . S
H2231 C2225 0.959 . S
H2232 C2225 0.961 . S
H2233 C2225 0.960 . S
H2234 C2226 0.915 1_565 S
H2235 C2227 0.929 . S
H2236 C2244 0.929 . S
H2237 C2246 0.930 . S
H2238 C2248 0.930 . S
H2239 C2251 0.929 . S
H2240 C2254 0.930 . S
H2241 C2256 0.960 . S
H2242 C2256 0.960 . S
H2243 C2256 0.960 . S
C2244 H2236 0.929 . S
C2244 C2245 1.377 . S
C2244 C2246 1.384 . S
C2245 C2244 1.377 . S
C2245 C2251 1.390 . S
C2246 H2237 0.930 . S
C2246 C2244 1.384 . S
C2246 C2247 1.372 . S
C2247 C2246 1.372 . S
C2247 C2248 1.400 . S
C2247 C2252 1.490 . S
C2248 H2238 0.930 . S
C2248 C2247 1.400 . S
C2248 C2251 1.386 . S
H2249 C2265 0.930 . S
H2250 C2266 0.931 . S
C2251 H2239 0.929 . S
C2251 C2245 1.390 . S
C2251 C2248 1.386 . S
C2252 C2247 1.490 . S
C2252 C2254 1.395 . S
C2252 C2255 1.403 . S
H2253 C2259 0.930 . S
C2254 H2240 0.930 . S
C2254 C2252 1.395 . S
C2254 C2257 1.403 . S
C2255 C2252 1.403 . S
C2255 C2256 1.524 . S
C2255 C2259 1.400 . S
C2256 H2241 0.960 . S
C2256 H2242 0.960 . S
C2256 H2243 0.960 . S
C2256 C2255 1.524 . S
C2257 C2254 1.403 . S
C2257 C2258 1.392 . S
C2257 C2261 1.495 . S
C2258 C2257 1.392 . S
C2258 C2259 1.385 . S
C2258 C2260 1.478 . S
C2259 H2253 0.930 . S
C2259 C2255 1.400 . S
C2259 C2258 1.385 . S
C2260 C2258 1.478 . S
C2260 C2262 1.381 . S
C2260 C2266 1.383 . S
C2261 C2257 1.495 . S
C2261 H2267 0.959 . S
C2261 H2268 0.961 . S
C2261 H2269 0.960 . S
C2262 C2260 1.381 . S
C2262 C2263 1.394 . S
C2262 H2270 0.930 . S
C2263 C2262 1.394 . S
C2263 C2264 1.383 . S
C2263 H2271 0.929 . S
C2264 C2263 1.383 . S
C2264 C2265 1.377 . S
C2265 H2249 0.930 . S
C2265 C2264 1.377 . S
C2265 C2266 1.379 . S
C2266 H2250 0.931 . S
C2266 C2260 1.383 . S
C2266 C2265 1.379 . S
H2267 C2261 0.959 . S
H2268 C2261 0.961 . S
H2269 C2261 0.960 . S
H2270 C2262 0.930 . S
H2271 C2263 0.929 . S
H2272 C2280 0.929 . S
H2273 C2282 0.930 . S
H2274 C2284 0.930 . S
H2275 C2287 0.929 . S
H2276 C2290 0.930 1_565 S
H2277 C2292 0.960 . S
H2278 C2292 0.960 . S
H2279 C2292 0.960 . S
C2280 H2272 0.929 . S
C2280 C2281 1.377 1_545 S
C2280 C2282 1.384 . S
C2281 C2280 1.377 1_565 S
C2281 C2287 1.390 . S
C2282 H2273 0.930 . S
C2282 C2280 1.384 . S
C2282 C2283 1.372 . S
C2283 C2282 1.372 . S
C2283 C2284 1.400 1_545 S
C2283 C2288 1.490 . S
C2284 H2274 0.930 . S
C2284 C2283 1.400 1_565 S
C2284 C2287 1.386 . S
H2285 C2301 0.930 . S
H2286 C2302 0.931 1_565 S
C2287 H2275 0.929 . S
C2287 C2281 1.390 . S
C2287 C2284 1.386 . S
C2288 C2283 1.490 . S
C2288 C2290 1.395 . S
C2288 C2291 1.403 . S
H2289 C2295 0.930 . S
C2290 H2276 0.930 1_545 S
C2290 C2288 1.395 . S
C2290 C2293 1.403 . S
C2291 C2288 1.403 . S
C2291 C2292 1.524 . S
C2291 C2295 1.400 . S
C2292 H2277 0.960 . S
C2292 H2278 0.960 . S
C2292 H2279 0.960 . S
C2292 C2291 1.524 . S
C2293 C2290 1.403 . S
C2293 C2294 1.392 . S
C2293 C2297 1.495 1_545 S
C2294 C2293 1.392 . S
C2294 C2295 1.385 . S
C2294 C2296 1.478 . S
C2295 H2289 0.930 . S
C2295 C2291 1.400 . S
C2295 C2294 1.385 . S
C2296 C2294 1.478 . S
C2296 C2298 1.381 . S
C2296 C2302 1.383 . S
C2297 C2293 1.495 1_565 S
C2297 H2303 0.959 . S
C2297 H2304 0.961 . S
C2297 H2305 0.960 1_565 S
C2298 C2296 1.381 . S
C2298 C2299 1.394 . S
C2298 H2306 0.930 . S
C2299 C2298 1.394 . S
C2299 C2300 1.383 . S
C2299 H2307 0.929 . S
C2300 C2299 1.383 . S
C2300 C2301 1.377 . S
C2301 H2285 0.930 . S
C2301 C2300 1.377 . S
C2301 C2302 1.379 . S
C2302 H2286 0.931 1_545 S
C2302 C2296 1.383 . S
C2302 C2301 1.379 . S
H2303 C2297 0.959 . S
H2304 C2297 0.961 . S
H2305 C2297 0.960 1_545 S
H2306 C2298 0.930 . S
H2307 C2299 0.929 . S
H2308 C2316 0.929 . S
H2309 C2318 0.930 . S
H2310 C2320 0.930 . S
H2311 C2323 0.929 . S
H2312 C2326 0.930 . S
H2313 C2328 0.960 . S
H2314 C2328 0.960 . S
H2315 C2328 0.960 . S
C2316 H2308 0.929 . S
C2316 C2317 1.377 . S
C2316 C2318 1.384 . S
C2317 C2316 1.377 . S
C2317 C2323 1.390 . S
C2318 H2309 0.930 . S
C2318 C2316 1.384 . S
C2318 C2319 1.372 . S
C2319 C2318 1.372 . S
C2319 C2320 1.400 . S
C2319 C2324 1.490 . S
C2320 H2310 0.930 . S
C2320 C2319 1.400 . S
C2320 C2323 1.386 . S
H2321 C2337 0.930 . S
H2322 C2338 0.931 . S
C2323 H2311 0.929 . S
C2323 C2317 1.390 . S
C2323 C2320 1.386 . S
C2324 C2319 1.490 . S
C2324 C2326 1.395 . S
C2324 C2327 1.403 . S
H2325 C2331 0.930 . S
C2326 H2312 0.930 . S
C2326 C2324 1.395 . S
C2326 C2329 1.403 . S
C2327 C2324 1.403 . S
C2327 C2328 1.524 . S
C2327 C2331 1.400 . S
C2328 H2313 0.960 . S
C2328 H2314 0.960 . S
C2328 H2315 0.960 . S
C2328 C2327 1.524 . S
C2329 C2326 1.403 . S
C2329 C2330 1.392 . S
C2329 C2333 1.495 . S
C2330 C2329 1.392 . S
C2330 C2331 1.385 . S
C2330 C2332 1.478 . S
C2331 H2325 0.930 . S
C2331 C2327 1.400 . S
C2331 C2330 1.385 . S
C2332 C2330 1.478 . S
C2332 C2334 1.381 . S
C2332 C2338 1.383 . S
C2333 C2329 1.495 . S
C2333 H2339 0.959 . S
C2333 H2340 0.961 . S
C2333 H2341 0.960 . S
C2334 C2332 1.381 . S
C2334 C2335 1.394 . S
C2334 H2342 0.930 . S
C2335 C2334 1.394 . S
C2335 C2336 1.383 . S
C2335 H2343 0.929 . S
C2336 C2335 1.383 . S
C2336 C2337 1.377 . S
C2337 H2321 0.930 . S
C2337 C2336 1.377 . S
C2337 C2338 1.379 . S
C2338 H2322 0.931 . S
C2338 C2332 1.383 . S
C2338 C2337 1.379 . S
H2339 C2333 0.959 . S
H2340 C2333 0.961 . S
H2341 C2333 0.960 . S
H2342 C2334 0.930 . S
H2343 C2335 0.929 . S
H2344 C2352 0.929 . S
H2345 C2354 0.930 . S
H2346 C2356 0.930 . S
H2347 C2359 0.929 . S
H2348 C2362 0.930 . S
H2349 C2364 0.960 . S
H2350 C2364 0.960 . S
H2351 C2364 0.960 . S
C2352 H2344 0.929 . S
C2352 C2353 1.377 1_565 S
C2352 C2354 1.384 . S
C2353 C2352 1.377 1_545 S
C2353 C2359 1.390 . S
C2354 H2345 0.930 . S
C2354 C2352 1.384 . S
C2354 C2355 1.372 1_565 S
C2355 C2354 1.372 1_545 S
C2355 C2356 1.400 . S
C2355 C2360 1.490 . S
C2356 H2346 0.930 . S
C2356 C2355 1.400 . S
C2356 C2359 1.386 . S
H2357 C2373 0.930 . S
H2358 C2374 0.931 . S
C2359 H2347 0.929 . S
C2359 C2353 1.390 . S
C2359 C2356 1.386 . S
C2360 C2355 1.490 . S
C2360 C2362 1.395 1_545 S
C2360 C2363 1.403 . S
H2361 C2367 0.930 . S
C2362 H2348 0.930 . S
C2362 C2360 1.395 1_565 S
C2362 C2365 1.403 . S
C2363 C2360 1.403 . S
C2363 C2364 1.524 . S
C2363 C2367 1.400 . S
C2364 H2349 0.960 . S
C2364 H2350 0.960 . S
C2364 H2351 0.960 . S
C2364 C2363 1.524 . S
C2365 C2362 1.403 . S
C2365 C2366 1.392 1_565 S
C2365 C2369 1.495 . S
C2366 C2365 1.392 1_545 S
C2366 C2367 1.385 . S
C2366 C2368 1.478 . S
C2367 H2361 0.930 . S
C2367 C2363 1.400 . S
C2367 C2366 1.385 . S
C2368 C2366 1.478 . S
C2368 C2370 1.381 1_545 S
C2368 C2374 1.383 . S
C2369 C2365 1.495 . S
C2369 H2375 0.959 . S
C2369 H2376 0.961 . S
C2369 H2377 0.960 . S
C2370 C2368 1.381 1_565 S
C2370 C2371 1.394 . S
C2370 H2378 0.930 . S
C2371 C2370 1.394 . S
C2371 C2372 1.361 1_565 S
C2371 H2379 0.929 . S
C2372 C2371 1.361 1_545 S
C2372 C2373 1.399 . S
C2373 H2357 0.930 . S
C2373 C2372 1.399 . S
C2373 C2374 1.379 . S
C2374 H2358 0.931 . S
C2374 C2368 1.383 . S
C2374 C2373 1.379 . S
H2375 C2369 0.959 . S
H2376 C2369 0.961 . S
H2377 C2369 0.960 . S
H2378 C2370 0.930 . S
H2379 C2371 0.929 . S
H2380 C2388 0.929 . S
H2381 C2390 0.930 . S
H2382 C2392 0.930 . S
H2383 C2395 0.929 . S
H2384 C2398 0.930 . S
H2385 C2400 0.960 . S
H2386 C2400 0.960 . S
H2387 C2400 0.960 . S
C2388 H2380 0.929 . S
C2388 C2389 1.377 . S
C2388 C2390 1.384 . S
C2389 C2388 1.377 . S
C2389 C2395 1.390 . S
C2390 H2381 0.930 . S
C2390 C2388 1.384 . S
C2390 C2391 1.372 . S
C2391 C2390 1.372 . S
C2391 C2392 1.400 . S
C2391 C2396 1.490 . S
C2392 H2382 0.930 . S
C2392 C2391 1.400 . S
C2392 C2395 1.386 . S
H2393 C2409 0.930 . S
H2394 C2410 0.931 . S
C2395 H2383 0.929 . S
C2395 C2389 1.390 . S
C2395 C2392 1.386 . S
C2396 C2391 1.490 . S
C2396 C2398 1.395 . S
C2396 C2399 1.403 . S
H2397 C2403 0.930 . S
C2398 H2384 0.930 . S
C2398 C2396 1.395 . S
C2398 C2401 1.403 . S
C2399 C2396 1.403 . S
C2399 C2400 1.524 . S
C2399 C2403 1.400 . S
C2400 H2385 0.960 . S
C2400 H2386 0.960 . S
C2400 H2387 0.960 . S
C2400 C2399 1.524 . S
C2401 C2398 1.403 . S
C2401 C2402 1.392 . S
C2401 C2405 1.495 . S
C2402 C2401 1.392 . S
C2402 C2403 1.385 . S
C2402 C2404 1.478 . S
C2403 H2397 0.930 . S
C2403 C2399 1.400 . S
C2403 C2402 1.385 . S
C2404 C2402 1.478 . S
C2404 C2406 1.381 . S
C2404 C2410 1.383 . S
C2405 C2401 1.495 . S
C2405 H2411 0.959 . S
C2405 H2412 0.961 . S
C2405 H2413 0.960 . S
C2406 C2404 1.381 . S
C2406 C2407 1.394 . S
C2406 H2414 0.930 . S
C2407 C2406 1.394 . S
C2407 C2408 1.383 . S
C2407 H2415 0.929 . S
C2408 C2407 1.383 . S
C2408 C2409 1.377 . S
C2409 H2393 0.930 . S
C2409 C2408 1.377 . S
C2409 C2410 1.379 . S
C2410 H2394 0.931 . S
C2410 C2404 1.383 . S
C2410 C2409 1.379 . S
H2411 C2405 0.959 . S
H2412 C2405 0.961 . S
H2413 C2405 0.960 . S
H2414 C2406 0.930 . S
H2415 C2407 0.929 . S
H2416 C2424 0.914 1_556 S
H2417 C2426 0.930 . S
H2418 C2428 0.930 . S
H2419 C2431 0.929 . S
H2420 C2434 0.930 . S
H2421 C2436 0.960 . S
H2422 C2436 0.960 . S
H2423 C2436 0.960 . S
C2424 H2416 0.914 1_554 S
C2424 C2425 1.400 . S
C2424 C2426 1.377 1_554 S
C2425 C2424 1.400 . S
C2425 C2431 1.390 . S
C2426 H2417 0.930 . S
C2426 C2424 1.377 1_556 S
C2426 C2427 1.372 1_556 S
C2427 C2426 1.372 1_554 S
C2427 C2428 1.400 . S
C2427 C2432 1.489 1_554 S
C2428 H2418 0.930 . S
C2428 C2427 1.400 . S
C2428 C2431 1.386 . S
H2429 C2445 0.920 1_554 S
H2430 C2446 0.890 1_554 S
C2431 H2419 0.929 . S
C2431 C2425 1.390 . S
C2431 C2428 1.386 . S
C2432 C2427 1.489 1_556 S
C2432 C2434 1.394 1_556 S
C2432 C2435 1.405 . S
H2433 C2439 0.930 . S
C2434 H2420 0.930 . S
C2434 C2432 1.394 1_554 S
C2434 C2437 1.403 . S
C2435 C2432 1.405 . S
C2435 C2436 1.524 . S
C2435 C2439 1.400 . S
C2436 H2421 0.960 . S
C2436 H2422 0.960 . S
C2436 H2423 0.960 . S
C2436 C2435 1.524 . S
C2437 C2434 1.403 . S
C2437 C2438 1.392 1_554 S
C2437 C2441 1.495 . S
C2438 C2437 1.392 1_556 S
C2438 C2439 1.385 . S
C2438 C2440 1.478 . S
C2439 H2433 0.930 . S
C2439 C2435 1.400 . S
C2439 C2438 1.385 . S
C2440 C2438 1.478 . S
C2440 C2442 1.381 . S
C2440 C2446 1.412 . S
C2441 C2437 1.495 . S
C2441 H2447 0.959 . S
C2441 H2448 0.961 . S
C2441 H2449 0.960 . S
C2442 C2440 1.381 . S
C2442 C2443 1.394 . S
C2442 H2450 0.930 . S
C2443 C2442 1.394 . S
C2443 C2444 1.383 . S
C2443 H2451 0.929 . S
C2444 C2443 1.383 . S
C2444 C2445 1.377 . S
C2445 H2429 0.920 1_556 S
C2445 C2444 1.377 . S
C2445 C2446 1.393 . S
C2446 H2430 0.890 1_556 S
C2446 C2440 1.412 . S
C2446 C2445 1.393 . S
H2447 C2441 0.959 . S
H2448 C2441 0.961 . S
H2449 C2441 0.960 . S
H2450 C2442 0.930 . S
H2451 C2443 0.929 . S
H2452 C2460 0.929 . S
H2453 C2462 0.930 . S
H2454 C2464 0.930 . S
H2455 C2467 0.929 . S
H2456 C2470 0.930 . S
H2457 C2472 0.960 . S
H2458 C2472 0.960 . S
H2459 C2472 0.960 . S
C2460 H2452 0.929 . S
C2460 C2461 1.377 . S
C2460 C2462 1.384 . S
C2461 C2460 1.377 . S
C2461 C2467 1.390 . S
C2462 H2453 0.930 . S
C2462 C2460 1.384 . S
C2462 C2463 1.372 . S
C2463 C2462 1.372 . S
C2463 C2464 1.400 . S
C2463 C2468 1.490 . S
C2464 H2454 0.930 . S
C2464 C2463 1.400 . S
C2464 C2467 1.386 . S
H2465 C2481 0.930 . S
H2466 C2482 0.931 . S
C2467 H2455 0.929 . S
C2467 C2461 1.390 . S
C2467 C2464 1.386 . S
C2468 C2463 1.490 . S
C2468 C2470 1.395 . S
C2468 C2471 1.403 . S
H2469 C2475 0.930 1_556 S
C2470 H2456 0.930 . S
C2470 C2468 1.395 . S
C2470 C2473 1.403 . S
C2471 C2468 1.403 . S
C2471 C2472 1.524 1_554 S
C2471 C2475 1.400 . S
C2472 H2457 0.960 . S
C2472 H2458 0.960 . S
C2472 H2459 0.960 . S
C2472 C2471 1.524 1_556 S
C2473 C2470 1.403 . S
C2473 C2474 1.392 . S
C2473 C2477 1.495 . S
C2474 C2473 1.392 . S
C2474 C2475 1.385 . S
C2474 C2476 1.478 . S
C2475 H2469 0.930 1_554 S
C2475 C2471 1.400 . S
C2475 C2474 1.385 . S
C2476 C2474 1.478 . S
C2476 C2478 1.381 . S
C2476 C2482 1.383 . S
C2477 C2473 1.495 . S
C2477 H2483 0.959 . S
C2477 H2484 0.961 . S
C2477 H2485 0.960 . S
C2478 C2476 1.381 . S
C2478 C2479 1.394 . S
C2478 H2486 0.930 . S
C2479 C2478 1.394 . S
C2479 C2480 1.383 . S
C2479 H2487 0.929 . S
C2480 C2479 1.383 . S
C2480 C2481 1.377 . S
C2481 H2465 0.930 . S
C2481 C2480 1.377 . S
C2481 C2482 1.379 . S
C2482 H2466 0.931 . S
C2482 C2476 1.383 . S
C2482 C2481 1.379 . S
H2483 C2477 0.959 . S
H2484 C2477 0.961 . S
H2485 C2477 0.960 . S
H2486 C2478 0.930 . S
H2487 C2479 0.929 . S
H2488 C2496 0.929 . S
H2489 C2498 0.930 . S
H2490 C2500 0.930 . S
H2491 C2503 0.929 . S
H2492 C2506 0.930 . S
H2493 C2508 0.960 . S
H2494 C2508 0.960 . S
H2495 C2508 0.960 . S
C2496 H2488 0.929 . S
C2496 C2497 1.377 . S
C2496 C2498 1.384 . S
C2497 C2496 1.377 . S
C2497 C2503 1.390 . S
C2498 H2489 0.930 . S
C2498 C2496 1.384 . S
C2498 C2499 1.372 . S
C2499 C2498 1.372 . S
C2499 C2500 1.400 . S
C2499 C2504 1.490 . S
C2500 H2490 0.930 . S
C2500 C2499 1.400 . S
C2500 C2503 1.386 . S
H2501 C2517 0.930 . S
H2502 C2518 0.931 . S
C2503 H2491 0.929 . S
C2503 C2497 1.390 . S
C2503 C2500 1.386 . S
C2504 C2499 1.490 . S
C2504 C2506 1.395 . S
C2504 C2507 1.403 . S
H2505 C2511 0.930 . S
C2506 H2492 0.930 . S
C2506 C2504 1.395 . S
C2506 C2509 1.403 . S
C2507 C2504 1.403 . S
C2507 C2508 1.524 . S
C2507 C2511 1.400 . S
C2508 H2493 0.960 . S
C2508 H2494 0.960 . S
C2508 H2495 0.960 . S
C2508 C2507 1.524 . S
C2509 C2506 1.403 . S
C2509 C2510 1.392 . S
C2509 C2513 1.495 . S
C2510 C2509 1.392 . S
C2510 C2511 1.385 . S
C2510 C2512 1.478 . S
C2511 H2505 0.930 . S
C2511 C2507 1.400 . S
C2511 C2510 1.385 . S
C2512 C2510 1.478 . S
C2512 C2514 1.381 . S
C2512 C2518 1.383 . S
C2513 C2509 1.495 . S
C2513 H2519 0.959 . S
C2513 H2520 0.961 . S
C2513 H2521 0.960 . S
C2514 C2512 1.381 . S
C2514 C2515 1.394 . S
C2514 H2522 0.930 . S
C2515 C2514 1.394 . S
C2515 C2516 1.383 . S
C2515 H2523 0.929 . S
C2516 C2515 1.383 . S
C2516 C2517 1.377 . S
C2517 H2501 0.930 . S
C2517 C2516 1.377 . S
C2517 C2518 1.379 . S
C2518 H2502 0.931 . S
C2518 C2512 1.383 . S
C2518 C2517 1.379 . S
H2519 C2513 0.959 . S
H2520 C2513 0.961 . S
H2521 C2513 0.960 . S
H2522 C2514 0.930 . S
H2523 C2515 0.929 . S
H2524 C2532 0.929 . S
H2525 C2534 0.930 . S
H2526 C2536 0.930 . S
H2527 C2539 0.929 . S
H2528 C2542 0.930 . S
H2529 C2544 0.960 . S
H2530 C2544 0.960 . S
H2531 C2544 0.960 . S
C2532 H2524 0.929 . S
C2532 C2533 1.377 . S
C2532 C2534 1.384 . S
C2533 C2532 1.377 . S
C2533 C2539 1.390 . S
C2534 H2525 0.930 . S
C2534 C2532 1.384 . S
C2534 C2535 1.372 . S
C2535 C2534 1.372 . S
C2535 C2536 1.400 . S
C2535 C2540 1.490 . S
C2536 H2526 0.930 . S
C2536 C2535 1.400 . S
C2536 C2539 1.386 . S
H2537 C2553 0.930 . S
H2538 C2554 0.931 . S
C2539 H2527 0.929 . S
C2539 C2533 1.390 . S
C2539 C2536 1.386 . S
C2540 C2535 1.490 . S
C2540 C2542 1.395 . S
C2540 C2543 1.403 . S
H2541 C2547 0.930 . S
C2542 H2528 0.930 . S
C2542 C2540 1.395 . S
C2542 C2545 1.403 . S
C2543 C2540 1.403 . S
C2543 C2544 1.524 . S
C2543 C2547 1.400 . S
C2544 H2529 0.960 . S
C2544 H2530 0.960 . S
C2544 H2531 0.960 . S
C2544 C2543 1.524 . S
C2545 C2542 1.403 . S
C2545 C2546 1.392 . S
C2545 C2549 1.495 . S
C2546 C2545 1.392 . S
C2546 C2547 1.385 . S
C2546 C2548 1.478 . S
C2547 H2541 0.930 . S
C2547 C2543 1.400 . S
C2547 C2546 1.385 . S
C2548 C2546 1.478 . S
C2548 C2550 1.381 . S
C2548 C2554 1.383 . S
C2549 C2545 1.495 . S
C2549 H2555 0.959 . S
C2549 H2556 0.961 . S
C2549 H2557 0.960 . S
C2550 C2548 1.381 . S
C2550 C2551 1.394 . S
C2550 H2558 0.930 . S
C2551 C2550 1.394 . S
C2551 C2552 1.383 . S
C2551 H2559 0.929 . S
C2552 C2551 1.383 . S
C2552 C2553 1.377 . S
C2553 H2537 0.930 . S
C2553 C2552 1.377 . S
C2553 C2554 1.379 . S
C2554 H2538 0.931 . S
C2554 C2548 1.383 . S
C2554 C2553 1.379 . S
H2555 C2549 0.959 . S
H2556 C2549 0.961 . S
H2557 C2549 0.960 . S
H2558 C2550 0.930 . S
H2559 C2551 0.929 . S
H2560 C2568 0.929 . S
H2561 C2570 0.927 . S
H2562 C2572 0.930 . S
H2563 C2575 0.929 . S
H2564 C2578 0.930 . S
H2565 C2580 0.960 . S
H2566 C2580 0.960 . S
H2567 C2580 0.960 . S
C2568 H2560 0.929 . S
C2568 C2569 1.377 . S
C2568 C2570 1.384 1_545 S
C2569 C2568 1.377 . S
C2569 C2575 1.390 1_545 S
C2570 H2561 0.927 . S
C2570 C2568 1.384 1_565 S
C2570 C2571 1.372 . S
C2571 C2570 1.372 . S
C2571 C2572 1.400 . S
C2571 C2576 1.490 . S
C2572 H2562 0.930 . S
C2572 C2571 1.400 . S
C2572 C2575 1.386 . S
H2573 C2589 0.930 . S
H2574 C2590 0.931 . S
C2575 H2563 0.929 . S
C2575 C2569 1.390 1_565 S
C2575 C2572 1.386 . S
C2576 C2571 1.490 . S
C2576 C2578 1.395 . S
C2576 C2579 1.403 . S
H2577 C2583 0.930 . S
C2578 H2564 0.930 . S
C2578 C2576 1.395 . S
C2578 C2581 1.403 . S
C2579 C2576 1.403 . S
C2579 C2580 1.524 . S
C2579 C2583 1.400 . S
C2580 H2565 0.960 . S
C2580 H2566 0.960 . S
C2580 H2567 0.960 . S
C2580 C2579 1.524 . S
C2581 C2578 1.403 . S
C2581 C2582 1.392 . S
C2581 C2585 1.495 . S
C2582 C2581 1.392 . S
C2582 C2583 1.385 . S
C2582 C2584 1.478 . S
C2583 H2577 0.930 . S
C2583 C2579 1.400 . S
C2583 C2582 1.385 . S
C2584 C2582 1.478 . S
C2584 C2586 1.381 . S
C2584 C2590 1.383 . S
C2585 C2581 1.495 . S
C2585 H2591 0.959 . S
C2585 H2592 0.961 . S
C2585 H2593 0.960 . S
C2586 C2584 1.381 . S
C2586 C2587 1.394 . S
C2586 H2594 0.930 . S
C2587 C2586 1.394 . S
C2587 C2588 1.383 . S
C2587 H2595 0.929 . S
C2588 C2587 1.383 . S
C2588 C2589 1.377 . S
C2589 H2573 0.930 . S
C2589 C2588 1.377 . S
C2589 C2590 1.379 . S
C2590 H2574 0.931 . S
C2590 C2584 1.383 . S
C2590 C2589 1.379 . S
H2591 C2585 0.959 . S
H2592 C2585 0.961 . S
H2593 C2585 0.960 . S
H2594 C2586 0.930 . S
H2595 C2587 0.929 . S
H2596 C2604 0.929 . S
H2597 C2606 0.930 . S
H2598 C2608 0.930 . S
H2599 C2611 0.929 . S
H2600 C2614 0.930 . S
H2601 C2616 0.960 . S
H2602 C2616 0.960 . S
H2603 C2616 0.960 . S
C2604 H2596 0.929 . S
C2604 C2605 1.377 . S
C2604 C2606 1.384 . S
C2605 C2604 1.377 . S
C2605 C2611 1.390 . S
C2606 H2597 0.930 . S
C2606 C2604 1.384 . S
C2606 C2607 1.372 . S
C2607 C2606 1.372 . S
C2607 C2608 1.400 . S
C2607 C2612 1.490 . S
C2608 H2598 0.930 . S
C2608 C2607 1.400 . S
C2608 C2611 1.386 . S
H2609 C2625 0.930 . S
H2610 C2626 0.931 . S
C2611 H2599 0.929 . S
C2611 C2605 1.390 . S
C2611 C2608 1.386 . S
C2612 C2607 1.490 . S
C2612 C2614 1.395 . S
C2612 C2615 1.403 . S
H2613 C2619 0.930 . S
C2614 H2600 0.930 . S
C2614 C2612 1.395 . S
C2614 C2617 1.403 . S
C2615 C2612 1.403 . S
C2615 C2616 1.524 . S
C2615 C2619 1.400 . S
C2616 H2601 0.960 . S
C2616 H2602 0.960 . S
C2616 H2603 0.960 . S
C2616 C2615 1.524 . S
C2617 C2614 1.403 . S
C2617 C2618 1.392 . S
C2617 C2621 1.495 . S
C2618 C2617 1.392 . S
C2618 C2619 1.385 . S
C2618 C2620 1.478 . S
C2619 H2613 0.930 . S
C2619 C2615 1.400 . S
C2619 C2618 1.385 . S
C2620 C2618 1.478 . S
C2620 C2622 1.381 . S
C2620 C2626 1.383 . S
C2621 C2617 1.495 . S
C2621 H2627 0.959 . S
C2621 H2628 0.961 . S
C2621 H2629 0.960 . S
C2622 C2620 1.381 . S
C2622 C2623 1.394 . S
C2622 H2630 0.930 . S
C2623 C2622 1.394 . S
C2623 C2624 1.383 . S
C2623 H2631 0.929 . S
C2624 C2623 1.383 . S
C2624 C2625 1.377 . S
C2625 H2609 0.930 . S
C2625 C2624 1.377 . S
C2625 C2626 1.379 . S
C2626 H2610 0.931 . S
C2626 C2620 1.383 . S
C2626 C2625 1.379 . S
H2627 C2621 0.959 . S
H2628 C2621 0.961 . S
H2629 C2621 0.960 . S
H2630 C2622 0.930 . S
H2631 C2623 0.929 . S
H2632 C2640 0.929 . S
H2633 C2642 0.930 . S
H2634 C2644 0.930 . S
H2635 C2647 0.929 . S
H2636 C2650 0.930 . S
H2637 C2652 0.960 . S
H2638 C2652 0.960 . S
H2639 C2652 0.960 . S
C2640 H2632 0.929 . S
C2640 C2641 1.377 . S
C2640 C2642 1.384 . S
C2641 C2640 1.377 . S
C2641 C2647 1.390 . S
C2642 H2633 0.930 . S
C2642 C2640 1.384 . S
C2642 C2643 1.372 . S
C2643 C2642 1.372 . S
C2643 C2644 1.400 . S
C2643 C2648 1.490 . S
C2644 H2634 0.930 . S
C2644 C2643 1.400 . S
C2644 C2647 1.386 . S
H2645 C2661 0.930 . S
H2646 C2662 0.931 . S
C2647 H2635 0.929 . S
C2647 C2641 1.390 . S
C2647 C2644 1.386 . S
C2648 C2643 1.490 . S
C2648 C2650 1.395 . S
C2648 C2651 1.403 . S
H2649 C2655 0.930 . S
C2650 H2636 0.930 . S
C2650 C2648 1.395 . S
C2650 C2653 1.403 . S
C2651 C2648 1.403 . S
C2651 C2652 1.524 . S
C2651 C2655 1.400 . S
C2652 H2637 0.960 . S
C2652 H2638 0.960 . S
C2652 H2639 0.960 . S
C2652 C2651 1.524 . S
C2653 C2650 1.403 . S
C2653 C2654 1.392 . S
C2653 C2657 1.495 . S
C2654 C2653 1.392 . S
C2654 C2655 1.385 . S
C2654 C2656 1.478 . S
C2655 H2649 0.930 . S
C2655 C2651 1.400 . S
C2655 C2654 1.385 . S
C2656 C2654 1.478 . S
C2656 C2658 1.381 . S
C2656 C2662 1.383 . S
C2657 C2653 1.495 . S
C2657 H2663 0.959 . S
C2657 H2664 0.961 . S
C2657 H2665 0.960 . S
C2658 C2656 1.381 . S
C2658 C2659 1.394 . S
C2658 H2666 0.930 . S
C2659 C2658 1.394 . S
C2659 C2660 1.383 . S
C2659 H2667 0.929 . S
C2660 C2659 1.383 . S
C2660 C2661 1.377 . S
C2661 H2645 0.930 . S
C2661 C2660 1.377 . S
C2661 C2662 1.379 . S
C2662 H2646 0.931 . S
C2662 C2656 1.383 . S
C2662 C2661 1.379 . S
H2663 C2657 0.959 . S
H2664 C2657 0.961 . S
H2665 C2657 0.960 . S
H2666 C2658 0.930 . S
H2667 C2659 0.929 . S
H2668 C2676 0.929 . S
H2669 C2678 0.930 . S
H2670 C2680 0.930 . S
H2671 C2683 0.929 . S
H2672 C2686 0.930 . S
H2673 C2688 0.960 . S
H2674 C2688 0.960 . S
H2675 C2688 0.960 . S
C2676 H2668 0.929 . S
C2676 C2677 1.377 . S
C2676 C2678 1.384 . S
C2677 C2676 1.377 . S
C2677 C2683 1.390 . S
C2678 H2669 0.930 . S
C2678 C2676 1.384 . S
C2678 C2679 1.372 . S
C2679 C2678 1.372 . S
C2679 C2680 1.400 . S
C2679 C2684 1.490 . S
C2680 H2670 0.930 . S
C2680 C2679 1.400 . S
C2680 C2683 1.386 . S
H2681 C2697 0.930 . S
H2682 C2698 0.931 . S
C2683 H2671 0.929 . S
C2683 C2677 1.390 . S
C2683 C2680 1.386 . S
C2684 C2679 1.490 . S
C2684 C2686 1.395 . S
C2684 C2687 1.403 . S
H2685 C2691 0.930 . S
C2686 H2672 0.930 . S
C2686 C2684 1.395 . S
C2686 C2689 1.403 . S
C2687 C2684 1.403 . S
C2687 C2688 1.524 . S
C2687 C2691 1.400 . S
C2688 H2673 0.960 . S
C2688 H2674 0.960 . S
C2688 H2675 0.960 . S
C2688 C2687 1.524 . S
C2689 C2686 1.403 . S
C2689 C2690 1.392 . S
C2689 C2693 1.495 . S
C2690 C2689 1.392 . S
C2690 C2691 1.385 . S
C2690 C2692 1.478 . S
C2691 H2685 0.930 . S
C2691 C2687 1.400 . S
C2691 C2690 1.385 . S
C2692 C2690 1.478 . S
C2692 C2694 1.381 . S
C2692 C2698 1.383 . S
C2693 C2689 1.495 . S
C2693 H2699 0.959 . S
C2693 H2700 0.961 . S
C2693 H2701 0.960 . S
C2694 C2692 1.381 . S
C2694 C2695 1.394 . S
C2694 H2702 0.930 . S
C2695 C2694 1.394 . S
C2695 C2696 1.383 . S
C2695 H2703 0.929 . S
C2696 C2695 1.383 . S
C2696 C2697 1.377 . S
C2697 H2681 0.930 . S
C2697 C2696 1.377 . S
C2697 C2698 1.379 . S
C2698 H2682 0.931 . S
C2698 C2692 1.383 . S
C2698 C2697 1.379 . S
H2699 C2693 0.959 . S
H2700 C2693 0.961 . S
H2701 C2693 0.960 . S
H2702 C2694 0.930 . S
H2703 C2695 0.929 . S
H2704 C2712 0.929 . S
H2705 C2714 0.930 . S
H2706 C2716 0.930 . S
H2707 C2719 0.929 . S
H2708 C2722 0.930 . S
H2709 C2724 0.960 . S
H2710 C2724 0.960 . S
H2711 C2724 0.960 . S
C2712 H2704 0.929 . S
C2712 C2713 1.377 . S
C2712 C2714 1.384 . S
C2713 C2712 1.377 . S
C2713 C2719 1.390 . S
C2714 H2705 0.930 . S
C2714 C2712 1.384 . S
C2714 C2715 1.372 . S
C2715 C2714 1.372 . S
C2715 C2716 1.400 . S
C2715 C2720 1.490 . S
C2716 H2706 0.930 . S
C2716 C2715 1.400 . S
C2716 C2719 1.386 . S
H2717 C2733 0.930 . S
H2718 C2734 0.931 . S
C2719 H2707 0.929 . S
C2719 C2713 1.390 . S
C2719 C2716 1.386 . S
C2720 C2715 1.490 . S
C2720 C2722 1.395 . S
C2720 C2723 1.403 . S
H2721 C2727 0.930 . S
C2722 H2708 0.930 . S
C2722 C2720 1.395 . S
C2722 C2725 1.403 . S
C2723 C2720 1.403 . S
C2723 C2724 1.524 . S
C2723 C2727 1.400 . S
C2724 H2709 0.960 . S
C2724 H2710 0.960 . S
C2724 H2711 0.960 . S
C2724 C2723 1.524 . S
C2725 C2722 1.403 . S
C2725 C2726 1.392 . S
C2725 C2729 1.495 . S
C2726 C2725 1.392 . S
C2726 C2727 1.385 . S
C2726 C2728 1.478 . S
C2727 H2721 0.930 . S
C2727 C2723 1.400 . S
C2727 C2726 1.385 . S
C2728 C2726 1.478 . S
C2728 C2730 1.381 . S
C2728 C2734 1.383 . S
C2729 C2725 1.495 . S
C2729 H2735 0.959 . S
C2729 H2736 0.961 . S
C2729 H2737 0.960 . S
C2730 C2728 1.381 . S
C2730 C2731 1.394 . S
C2730 H2738 0.930 . S
C2731 C2730 1.394 . S
C2731 C2732 1.383 . S
C2731 H2739 0.929 . S
C2732 C2731 1.383 . S
C2732 C2733 1.377 . S
C2733 H2717 0.930 . S
C2733 C2732 1.377 . S
C2733 C2734 1.379 . S
C2734 H2718 0.931 . S
C2734 C2728 1.383 . S
C2734 C2733 1.379 . S
H2735 C2729 0.959 . S
H2736 C2729 0.961 . S
H2737 C2729 0.960 . S
H2738 C2730 0.930 . S
H2739 C2731 0.929 . S
H2740 C2748 0.929 . S
H2741 C2750 0.930 . S
H2742 C2752 0.930 . S
H2743 C2755 0.929 . S
H2744 C2758 0.930 . S
H2745 C2760 0.960 . S
H2746 C2760 0.960 . S
H2747 C2760 0.960 . S
C2748 H2740 0.929 . S
C2748 C2749 1.377 . S
C2748 C2750 1.384 . S
C2749 C2748 1.377 . S
C2749 C2755 1.390 . S
C2750 H2741 0.930 . S
C2750 C2748 1.384 . S
C2750 C2751 1.372 . S
C2751 C2750 1.372 . S
C2751 C2752 1.400 . S
C2751 C2756 1.490 . S
C2752 H2742 0.930 . S
C2752 C2751 1.400 . S
C2752 C2755 1.386 . S
H2753 C2769 0.930 . S
H2754 C2770 0.931 . S
C2755 H2743 0.929 . S
C2755 C2749 1.390 . S
C2755 C2752 1.386 . S
C2756 C2751 1.490 . S
C2756 C2758 1.395 . S
C2756 C2759 1.403 . S
H2757 C2763 0.930 . S
C2758 H2744 0.930 . S
C2758 C2756 1.395 . S
C2758 C2761 1.403 . S
C2759 C2756 1.403 . S
C2759 C2760 1.524 . S
C2759 C2763 1.400 . S
C2760 H2745 0.960 . S
C2760 H2746 0.960 . S
C2760 H2747 0.960 . S
C2760 C2759 1.524 . S
C2761 C2758 1.403 . S
C2761 C2762 1.392 . S
C2761 C2765 1.495 . S
C2762 C2761 1.392 . S
C2762 C2763 1.385 . S
C2762 C2764 1.478 . S
C2763 H2757 0.930 . S
C2763 C2759 1.400 . S
C2763 C2762 1.385 . S
C2764 C2762 1.478 . S
C2764 C2766 1.381 . S
C2764 C2770 1.383 . S
C2765 C2761 1.495 . S
C2765 H2771 0.959 . S
C2765 H2772 0.961 . S
C2765 H2773 0.960 . S
C2766 C2764 1.381 . S
C2766 C2767 1.394 . S
C2766 H2774 0.930 . S
C2767 C2766 1.394 . S
C2767 C2768 1.383 . S
C2767 H2775 0.929 . S
C2768 C2767 1.383 . S
C2768 C2769 1.377 . S
C2769 H2753 0.930 . S
C2769 C2768 1.377 . S
C2769 C2770 1.379 . S
C2770 H2754 0.931 . S
C2770 C2764 1.383 . S
C2770 C2769 1.379 . S
H2771 C2765 0.959 . S
H2772 C2765 0.961 . S
H2773 C2765 0.960 . S
H2774 C2766 0.930 . S
H2775 C2767 0.929 . S
H2776 C2784 0.929 . S
H2777 C2786 0.930 . S
H2778 C2788 0.901 1_655 S
H2779 C2791 0.929 1_655 S
H2780 C2794 0.930 . S
H2781 C2796 0.960 . S
H2782 C2796 0.960 . S
H2783 C2796 0.960 . S
C2784 H2776 0.929 . S
C2784 C2785 1.377 . S
C2784 C2786 1.384 . S
C2785 C2784 1.377 . S
C2785 C2791 1.390 . S
C2786 H2777 0.930 . S
C2786 C2784 1.384 . S
C2786 C2787 1.372 . S
C2787 C2786 1.372 . S
C2787 C2788 1.400 . S
C2787 C2792 1.490 . S
C2788 H2778 0.901 1_455 S
C2788 C2787 1.400 . S
C2788 C2791 1.386 . S
H2789 C2805 0.930 . S
H2790 C2806 0.931 . S
C2791 H2779 0.929 1_455 S
C2791 C2785 1.390 . S
C2791 C2788 1.386 . S
C2792 C2787 1.490 . S
C2792 C2794 1.395 . S
C2792 C2795 1.403 . S
H2793 C2799 0.930 . S
C2794 H2780 0.930 . S
C2794 C2792 1.395 . S
C2794 C2797 1.403 . S
C2795 C2792 1.403 . S
C2795 C2796 1.524 1_455 S
C2795 C2799 1.400 . S
C2796 H2781 0.960 . S
C2796 H2782 0.960 . S
C2796 H2783 0.960 . S
C2796 C2795 1.524 1_655 S
C2797 C2794 1.403 . S
C2797 C2798 1.392 . S
C2797 C2801 1.495 . S
C2798 C2797 1.392 . S
C2798 C2799 1.385 . S
C2798 C2800 1.478 . S
C2799 H2793 0.930 . S
C2799 C2795 1.400 . S
C2799 C2798 1.385 . S
C2800 C2798 1.478 . S
C2800 C2802 1.381 1_556 S
C2800 C2806 1.383 . S
C2801 C2797 1.495 . S
C2801 H2807 0.959 . S
C2801 H2808 0.961 . S
C2801 H2809 0.960 . S
C2802 C2800 1.381 1_554 S
C2802 C2803 1.394 . S
C2802 H2810 0.930 . S
C2803 C2802 1.394 . S
C2803 C2804 1.383 . S
C2803 H2811 0.929 . S
C2804 C2803 1.383 . S
C2804 C2805 1.377 1_554 S
C2805 H2789 0.930 . S
C2805 C2804 1.377 1_556 S
C2805 C2806 1.379 . S
C2806 H2790 0.931 . S
C2806 C2800 1.383 . S
C2806 C2805 1.379 . S
H2807 C2801 0.959 . S
H2808 C2801 0.961 . S
H2809 C2801 0.960 . S
H2810 C2802 0.930 . S
H2811 C2803 0.929 . S
H2812 C2820 0.929 . S
H2813 C2822 0.930 . S
H2814 C2824 0.930 . S
H2815 C2827 0.929 . S
H2816 C2830 0.930 . S
H2817 C2832 0.960 . S
H2818 C2832 0.960 . S
H2819 C2832 0.960 . S
C2820 H2812 0.929 . S
C2820 C2821 1.377 . S
C2820 C2822 1.384 1_455 S
C2821 C2820 1.377 . S
C2821 C2827 1.390 . S
C2822 H2813 0.930 . S
C2822 C2820 1.384 1_655 S
C2822 C2823 1.372 . S
C2823 C2822 1.372 . S
C2823 C2824 1.400 . S
C2823 C2828 1.490 . S
C2824 H2814 0.930 . S
C2824 C2823 1.400 . S
C2824 C2827 1.386 1_655 S
H2825 C2841 0.930 . S
H2826 C2842 0.931 . S
C2827 H2815 0.929 . S
C2827 C2821 1.390 . S
C2827 C2824 1.386 1_455 S
C2828 C2823 1.490 . S
C2828 C2830 1.395 . S
C2828 C2831 1.403 . S
H2829 C2835 0.930 . S
C2830 H2816 0.930 . S
C2830 C2828 1.395 . S
C2830 C2833 1.403 . S
C2831 C2828 1.403 . S
C2831 C2832 1.524 . S
C2831 C2835 1.400 . S
C2832 H2817 0.960 . S
C2832 H2818 0.960 . S
C2832 H2819 0.960 . S
C2832 C2831 1.524 . S
C2833 C2830 1.403 . S
C2833 C2834 1.392 . S
C2833 C2837 1.495 . S
C2834 C2833 1.392 . S
C2834 C2835 1.385 . S
C2834 C2836 1.478 . S
C2835 H2829 0.930 . S
C2835 C2831 1.400 . S
C2835 C2834 1.385 . S
C2836 C2834 1.478 . S
C2836 C2838 1.381 . S
C2836 C2842 1.383 . S
C2837 C2833 1.495 . S
C2837 H2843 0.959 . S
C2837 H2844 0.961 . S
C2837 H2845 0.960 . S
C2838 C2836 1.381 . S
C2838 C2839 1.394 . S
C2838 H2846 0.930 . S
C2839 C2838 1.394 . S
C2839 C2840 1.383 . S
C2839 H2847 0.929 . S
C2840 C2839 1.383 . S
C2840 C2841 1.377 . S
C2841 H2825 0.930 . S
C2841 C2840 1.377 . S
C2841 C2842 1.379 . S
C2842 H2826 0.931 . S
C2842 C2836 1.383 . S
C2842 C2841 1.379 . S
H2843 C2837 0.959 . S
H2844 C2837 0.961 . S
H2845 C2837 0.960 . S
H2846 C2838 0.930 . S
H2847 C2839 0.929 . S
H2848 C2856 0.929 . S
H2849 C2858 0.930 . S
H2850 C2860 0.930 . S
H2851 C2863 0.929 . S
H2852 C2866 0.930 . S
H2853 C2868 0.960 . S
H2854 C2868 0.960 . S
H2855 C2868 0.960 . S
C2856 H2848 0.929 . S
C2856 C2857 1.377 . S
C2856 C2858 1.384 . S
C2857 C2856 1.377 . S
C2857 C2863 1.390 . S
C2858 H2849 0.930 . S
C2858 C2856 1.384 . S
C2858 C2859 1.372 . S
C2859 C2858 1.372 . S
C2859 C2860 1.400 . S
C2859 C2864 1.490 . S
C2860 H2850 0.930 . S
C2860 C2859 1.400 . S
C2860 C2863 1.386 . S
H2861 C2877 0.930 . S
H2862 C2878 0.931 . S
C2863 H2851 0.929 . S
C2863 C2857 1.390 . S
C2863 C2860 1.386 . S
C2864 C2859 1.490 . S
C2864 C2866 1.395 . S
C2864 C2867 1.403 . S
H2865 C2871 0.930 . S
C2866 H2852 0.930 . S
C2866 C2864 1.395 . S
C2866 C2869 1.403 . S
C2867 C2864 1.403 . S
C2867 C2868 1.524 . S
C2867 C2871 1.400 . S
C2868 H2853 0.960 . S
C2868 H2854 0.960 . S
C2868 H2855 0.960 . S
C2868 C2867 1.524 . S
C2869 C2866 1.403 . S
C2869 C2870 1.392 . S
C2869 C2873 1.495 . S
C2870 C2869 1.392 . S
C2870 C2871 1.385 . S
C2870 C2872 1.478 . S
C2871 H2865 0.930 . S
C2871 C2867 1.400 . S
C2871 C2870 1.385 . S
C2872 C2870 1.478 . S
C2872 C2874 1.381 . S
C2872 C2878 1.383 . S
C2873 C2869 1.495 . S
C2873 H2879 0.959 . S
C2873 H2880 0.961 . S
C2873 H2881 0.960 . S
C2874 C2872 1.381 . S
C2874 C2875 1.394 . S
C2874 H2882 0.930 . S
C2875 C2874 1.394 . S
C2875 C2876 1.383 . S
C2875 H2883 0.929 . S
C2876 C2875 1.383 . S
C2876 C2877 1.377 . S
C2877 H2861 0.930 . S
C2877 C2876 1.377 . S
C2877 C2878 1.379 . S
C2878 H2862 0.931 . S
C2878 C2872 1.383 . S
C2878 C2877 1.379 . S
H2879 C2873 0.959 . S
H2880 C2873 0.961 . S
H2881 C2873 0.960 . S
H2882 C2874 0.930 . S
H2883 C2875 0.929 . S
H2884 C2892 0.929 . S
H2885 C2894 0.930 . S
H2886 C2896 0.930 . S
H2887 C2899 0.929 . S
H2888 C2902 0.930 . S
H2889 C2904 0.960 1_655 S
H2890 C2904 0.960 . S
H2891 C2904 0.960 . S
C2892 H2884 0.929 . S
C2892 C2893 1.377 . S
C2892 C2894 1.384 . S
C2893 C2892 1.377 . S
C2893 C2899 1.390 . S
C2894 H2885 0.930 . S
C2894 C2892 1.384 . S
C2894 C2895 1.372 . S
C2895 C2894 1.372 . S
C2895 C2896 1.400 . S
C2895 C2900 1.490 1_455 S
C2896 H2886 0.930 . S
C2896 C2895 1.400 . S
C2896 C2899 1.386 . S
H2897 C2913 0.930 . S
H2898 C2914 0.931 . S
C2899 H2887 0.929 . S
C2899 C2893 1.390 . S
C2899 C2896 1.386 . S
C2900 C2895 1.490 1_655 S
C2900 C2902 1.395 . S
C2900 C2903 1.403 . S
H2901 C2907 0.930 . S
C2902 H2888 0.930 . S
C2902 C2900 1.395 . S
C2902 C2905 1.403 . S
C2903 C2900 1.403 . S
C2903 C2904 1.524 1_655 S
C2903 C2907 1.400 . S
C2904 H2889 0.960 1_455 S
C2904 H2890 0.960 . S
C2904 H2891 0.960 . S
C2904 C2903 1.524 1_455 S
C2905 C2902 1.403 . S
C2905 C2906 1.392 . S
C2905 C2909 1.495 . S
C2906 C2905 1.392 . S
C2906 C2907 1.385 . S
C2906 C2908 1.478 . S
C2907 H2901 0.930 . S
C2907 C2903 1.400 . S
C2907 C2906 1.385 . S
C2908 C2906 1.478 . S
C2908 C2910 1.381 . S
C2908 C2914 1.383 . S
C2909 C2905 1.495 . S
C2909 H2915 0.959 . S
C2909 H2916 0.961 . S
C2909 H2917 0.960 . S
C2910 C2908 1.381 . S
C2910 C2911 1.394 . S
C2910 H2918 0.930 . S
C2911 C2910 1.394 . S
C2911 C2912 1.383 . S
C2911 H2919 0.929 . S
C2912 C2911 1.383 . S
C2912 C2913 1.377 . S
C2913 H2897 0.930 . S
C2913 C2912 1.377 . S
C2913 C2914 1.379 . S
C2914 H2898 0.931 . S
C2914 C2908 1.383 . S
C2914 C2913 1.379 . S
H2915 C2909 0.959 . S
H2916 C2909 0.961 . S
H2917 C2909 0.960 . S
H2918 C2910 0.930 . S
H2919 C2911 0.929 . S
H2920 C2928 0.929 . S
H2921 C2930 0.930 . S
H2922 C2932 0.930 . S
H2923 C2935 0.929 . S
H2924 C2938 0.930 . S
H2925 C2940 0.960 . S
H2926 C2940 0.960 . S
H2927 C2940 0.960 . S
C2928 H2920 0.929 . S
C2928 C2929 1.377 1_455 S
C2928 C2930 1.384 . S
C2929 C2928 1.377 1_655 S
C2929 C2935 1.390 . S
C2930 H2921 0.930 . S
C2930 C2928 1.384 . S
C2930 C2931 1.372 . S
C2931 C2930 1.372 . S
C2931 C2932 1.400 1_455 S
C2931 C2936 1.490 . S
C2932 H2922 0.930 . S
C2932 C2931 1.400 1_655 S
C2932 C2935 1.386 . S
H2933 C2949 0.930 . S
H2934 C2950 0.931 1_655 S
C2935 H2923 0.929 . S
C2935 C2929 1.390 . S
C2935 C2932 1.386 . S
C2936 C2931 1.490 . S
C2936 C2938 1.395 . S
C2936 C2939 1.403 . S
H2937 C2943 0.930 . S
C2938 H2924 0.930 . S
C2938 C2936 1.395 . S
C2938 C2941 1.403 . S
C2939 C2936 1.403 . S
C2939 C2940 1.524 . S
C2939 C2943 1.400 . S
C2940 H2925 0.960 . S
C2940 H2926 0.960 . S
C2940 H2927 0.960 . S
C2940 C2939 1.524 . S
C2941 C2938 1.403 . S
C2941 C2942 1.392 . S
C2941 C2945 1.495 . S
C2942 C2941 1.392 . S
C2942 C2943 1.385 . S
C2942 C2944 1.478 . S
C2943 H2937 0.930 . S
C2943 C2939 1.400 . S
C2943 C2942 1.385 . S
C2944 C2942 1.478 . S
C2944 C2946 1.381 . S
C2944 C2950 1.383 . S
C2945 C2941 1.495 . S
C2945 H2951 0.959 . S
C2945 H2952 0.961 1_455 S
C2945 H2953 0.960 . S
C2946 C2944 1.381 . S
C2946 C2947 1.394 . S
C2946 H2954 0.930 . S
C2947 C2946 1.394 . S
C2947 C2948 1.383 . S
C2947 H2955 0.929 . S
C2948 C2947 1.383 . S
C2948 C2949 1.377 . S
C2949 H2933 0.930 . S
C2949 C2948 1.377 . S
C2949 C2950 1.379 . S
C2950 H2934 0.931 1_455 S
C2950 C2944 1.383 . S
C2950 C2949 1.379 . S
H2951 C2945 0.959 . S
H2952 C2945 0.961 1_655 S
H2953 C2945 0.960 . S
H2954 C2946 0.930 . S
H2955 C2947 0.929 . S
H2956 C2964 0.929 . S
H2957 C2966 0.930 . S
H2958 C2968 0.930 . S
H2959 C2971 0.929 . S
H2960 C2974 0.930 . S
H2961 C2976 0.960 . S
H2962 C2976 0.960 . S
H2963 C2976 0.960 . S
C2964 H2956 0.929 . S
C2964 C2965 1.377 . S
C2964 C2966 1.384 . S
C2965 C2964 1.377 . S
C2965 C2971 1.390 . S
C2966 H2957 0.930 . S
C2966 C2964 1.384 . S
C2966 C2967 1.372 . S
C2967 C2966 1.372 . S
C2967 C2968 1.400 . S
C2967 C2972 1.490 . S
C2968 H2958 0.930 . S
C2968 C2967 1.400 . S
C2968 C2971 1.386 . S
H2969 C2985 0.930 . S
H2970 C2986 0.931 . S
C2971 H2959 0.929 . S
C2971 C2965 1.390 . S
C2971 C2968 1.386 . S
C2972 C2967 1.490 . S
C2972 C2974 1.395 . S
C2972 C2975 1.403 . S
H2973 C2979 0.930 . S
C2974 H2960 0.930 . S
C2974 C2972 1.395 . S
C2974 C2977 1.403 . S
C2975 C2972 1.403 . S
C2975 C2976 1.524 . S
C2975 C2979 1.400 . S
C2976 H2961 0.960 . S
C2976 H2962 0.960 . S
C2976 H2963 0.960 . S
C2976 C2975 1.524 . S
C2977 C2974 1.403 . S
C2977 C2978 1.392 . S
C2977 C2981 1.495 . S
C2978 C2977 1.392 . S
C2978 C2979 1.385 . S
C2978 C2980 1.478 . S
C2979 H2973 0.930 . S
C2979 C2975 1.400 . S
C2979 C2978 1.385 . S
C2980 C2978 1.478 . S
C2980 C2982 1.381 . S
C2980 C2986 1.383 . S
C2981 C2977 1.495 . S
C2981 H2987 0.959 . S
C2981 H2988 0.961 . S
C2981 H2989 0.960 . S
C2982 C2980 1.381 . S
C2982 C2983 1.394 . S
C2982 H2990 0.930 . S
C2983 C2982 1.394 . S
C2983 C2984 1.383 . S
C2983 H2991 0.929 . S
C2984 C2983 1.383 . S
C2984 C2985 1.377 . S
C2985 H2969 0.930 . S
C2985 C2984 1.377 . S
C2985 C2986 1.379 . S
C2986 H2970 0.931 . S
C2986 C2980 1.383 . S
C2986 C2985 1.379 . S
H2987 C2981 0.959 . S
H2988 C2981 0.961 . S
H2989 C2981 0.960 . S
H2990 C2982 0.930 . S
H2991 C2983 0.929 . S
H2992 C3000 0.929 . S
H2993 C3002 0.930 . S
H2994 C3004 0.930 . S
H2995 C3007 0.929 . S
H2996 C3010 0.930 . S
H2997 C3012 0.960 . S
H2998 C3012 0.960 . S
H2999 C3012 0.960 . S
C3000 H2992 0.929 . S
C3000 C3001 1.377 . S
C3000 C3002 1.384 . S
C3001 C3000 1.377 . S
C3001 C3007 1.390 . S
C3002 H2993 0.930 . S
C3002 C3000 1.384 . S
C3002 C3003 1.372 . S
C3003 C3002 1.372 . S
C3003 C3004 1.400 . S
C3003 C3008 1.490 . S
C3004 H2994 0.930 . S
C3004 C3003 1.400 . S
C3004 C3007 1.386 . S
H3005 C3021 0.930 . S
H3006 C3022 0.931 . S
C3007 H2995 0.929 . S
C3007 C3001 1.390 . S
C3007 C3004 1.386 . S
C3008 C3003 1.490 . S
C3008 C3010 1.395 . S
C3008 C3011 1.403 . S
H3009 C3015 0.930 . S
C3010 H2996 0.930 . S
C3010 C3008 1.395 . S
C3010 C3013 1.403 . S
C3011 C3008 1.403 . S
C3011 C3012 1.524 . S
C3011 C3015 1.400 . S
C3012 H2997 0.960 . S
C3012 H2998 0.960 . S
C3012 H2999 0.960 . S
C3012 C3011 1.524 . S
C3013 C3010 1.403 . S
C3013 C3014 1.392 . S
C3013 C3017 1.495 . S
C3014 C3013 1.392 . S
C3014 C3015 1.385 . S
C3014 C3016 1.478 . S
C3015 H3009 0.930 . S
C3015 C3011 1.400 . S
C3015 C3014 1.385 . S
C3016 C3014 1.478 . S
C3016 C3018 1.381 . S
C3016 C3022 1.383 . S
C3017 C3013 1.495 . S
C3017 H3023 0.959 . S
C3017 H3024 0.961 . S
C3017 H3025 0.960 . S
C3018 C3016 1.381 . S
C3018 C3019 1.394 . S
C3018 H3026 0.930 . S
C3019 C3018 1.394 . S
C3019 C3020 1.383 . S
C3019 H3027 0.929 . S
C3020 C3019 1.383 . S
C3020 C3021 1.377 . S
C3021 H3005 0.930 . S
C3021 C3020 1.377 . S
C3021 C3022 1.379 . S
C3022 H3006 0.931 . S
C3022 C3016 1.383 . S
C3022 C3021 1.379 . S
H3023 C3017 0.959 . S
H3024 C3017 0.961 . S
H3025 C3017 0.960 . S
H3026 C3018 0.930 . S
H3027 C3019 0.929 . S
H3028 C3036 0.929 . S
H3029 C3038 0.930 . S
H3030 C3040 0.930 . S
H3031 C3043 0.929 . S
H3032 C3046 0.930 . S
H3033 C3048 0.960 . S
H3034 C3048 0.960 . S
H3035 C3048 0.960 . S
C3036 H3028 0.929 . S
C3036 C3037 1.377 . S
C3036 C3038 1.384 . S
C3037 C3036 1.377 . S
C3037 C3043 1.390 . S
C3038 H3029 0.930 . S
C3038 C3036 1.384 . S
C3038 C3039 1.372 . S
C3039 C3038 1.372 . S
C3039 C3040 1.400 . S
C3039 C3044 1.490 . S
C3040 H3030 0.930 . S
C3040 C3039 1.400 . S
C3040 C3043 1.386 . S
H3041 C3057 0.930 . S
H3042 C3058 0.931 . S
C3043 H3031 0.929 . S
C3043 C3037 1.390 . S
C3043 C3040 1.386 . S
C3044 C3039 1.490 . S
C3044 C3046 1.395 . S
C3044 C3047 1.403 . S
H3045 C3051 0.930 . S
C3046 H3032 0.930 . S
C3046 C3044 1.395 . S
C3046 C3049 1.403 . S
C3047 C3044 1.403 . S
C3047 C3048 1.524 . S
C3047 C3051 1.400 . S
C3048 H3033 0.960 . S
C3048 H3034 0.960 . S
C3048 H3035 0.960 . S
C3048 C3047 1.524 . S
C3049 C3046 1.403 . S
C3049 C3050 1.392 . S
C3049 C3053 1.495 . S
C3050 C3049 1.392 . S
C3050 C3051 1.385 . S
C3050 C3052 1.478 . S
C3051 H3045 0.930 . S
C3051 C3047 1.400 . S
C3051 C3050 1.385 . S
C3052 C3050 1.478 . S
C3052 C3054 1.381 . S
C3052 C3058 1.383 . S
C3053 C3049 1.495 . S
C3053 H3059 0.959 . S
C3053 H3060 0.961 . S
C3053 H3061 0.960 . S
C3054 C3052 1.381 . S
C3054 C3055 1.394 . S
C3054 H3062 0.930 . S
C3055 C3054 1.394 . S
C3055 C3056 1.383 . S
C3055 H3063 0.929 . S
C3056 C3055 1.383 . S
C3056 C3057 1.377 . S
C3057 H3041 0.930 . S
C3057 C3056 1.377 . S
C3057 C3058 1.379 . S
C3058 H3042 0.931 . S
C3058 C3052 1.383 . S
C3058 C3057 1.379 . S
H3059 C3053 0.959 . S
H3060 C3053 0.961 . S
H3061 C3053 0.960 . S
H3062 C3054 0.930 . S
H3063 C3055 0.929 . S
H3064 C3072 0.929 . S
H3065 C3074 0.930 . S
H3066 C3076 0.930 . S
H3067 C3079 0.929 . S
H3068 C3082 0.930 . S
H3069 C3084 0.960 . S
H3070 C3084 0.960 . S
H3071 C3084 0.960 . S
C3072 H3064 0.929 . S
C3072 C3073 1.377 . S
C3072 C3074 1.384 . S
C3073 C3072 1.377 . S
C3073 C3079 1.390 . S
C3074 H3065 0.930 . S
C3074 C3072 1.384 . S
C3074 C3075 1.372 . S
C3075 C3074 1.372 . S
C3075 C3076 1.400 . S
C3075 C3080 1.490 . S
C3076 H3066 0.930 . S
C3076 C3075 1.400 . S
C3076 C3079 1.386 . S
H3077 C3093 0.930 . S
H3078 C3094 0.931 . S
C3079 H3067 0.929 . S
C3079 C3073 1.390 . S
C3079 C3076 1.386 . S
C3080 C3075 1.490 . S
C3080 C3082 1.395 . S
C3080 C3083 1.403 . S
H3081 C3087 0.930 . S
C3082 H3068 0.930 . S
C3082 C3080 1.395 . S
C3082 C3085 1.403 . S
C3083 C3080 1.403 . S
C3083 C3084 1.524 . S
C3083 C3087 1.400 . S
C3084 H3069 0.960 . S
C3084 H3070 0.960 . S
C3084 H3071 0.960 . S
C3084 C3083 1.524 . S
C3085 C3082 1.403 . S
C3085 C3086 1.392 . S
C3085 C3089 1.495 . S
C3086 C3085 1.392 . S
C3086 C3087 1.385 . S
C3086 C3088 1.478 . S
C3087 H3081 0.930 . S
C3087 C3083 1.400 . S
C3087 C3086 1.385 . S
C3088 C3086 1.478 . S
C3088 C3090 1.381 . S
C3088 C3094 1.383 . S
C3089 C3085 1.495 . S
C3089 H3095 0.959 . S
C3089 H3096 0.961 . S
C3089 H3097 0.960 . S
C3090 C3088 1.381 . S
C3090 C3091 1.394 . S
C3090 H3098 0.930 . S
C3091 C3090 1.394 . S
C3091 C3092 1.383 . S
C3091 H3099 0.929 . S
C3092 C3091 1.383 . S
C3092 C3093 1.377 . S
C3093 H3077 0.930 . S
C3093 C3092 1.377 . S
C3093 C3094 1.379 . S
C3094 H3078 0.931 . S
C3094 C3088 1.383 . S
C3094 C3093 1.379 . S
H3095 C3089 0.959 . S
H3096 C3089 0.961 . S
H3097 C3089 0.960 . S
H3098 C3090 0.930 . S
H3099 C3091 0.929 . S
H3100 C3108 0.929 . S
H3101 C3110 0.930 . S
H3102 C3112 0.930 . S
H3103 C3115 0.929 . S
H3104 C3118 0.930 . S
H3105 C3120 0.960 . S
H3106 C3120 0.960 . S
H3107 C3120 0.960 . S
C3108 H3100 0.929 . S
C3108 C3109 1.377 . S
C3108 C3110 1.384 . S
C3109 C3108 1.377 . S
C3109 C3115 1.390 . S
C3110 H3101 0.930 . S
C3110 C3108 1.384 . S
C3110 C3111 1.372 . S
C3111 C3110 1.372 . S
C3111 C3112 1.400 . S
C3111 C3116 1.490 . S
C3112 H3102 0.930 . S
C3112 C3111 1.400 . S
C3112 C3115 1.386 . S
H3113 C3129 0.930 . S
H3114 C3130 0.931 . S
C3115 H3103 0.929 . S
C3115 C3109 1.390 . S
C3115 C3112 1.386 . S
C3116 C3111 1.490 . S
C3116 C3118 1.395 . S
C3116 C3119 1.403 . S
H3117 C3123 0.930 . S
C3118 H3104 0.930 . S
C3118 C3116 1.395 . S
C3118 C3121 1.403 . S
C3119 C3116 1.403 . S
C3119 C3120 1.524 . S
C3119 C3123 1.400 . S
C3120 H3105 0.960 . S
C3120 H3106 0.960 . S
C3120 H3107 0.960 . S
C3120 C3119 1.524 . S
C3121 C3118 1.403 . S
C3121 C3122 1.392 . S
C3121 C3125 1.495 . S
C3122 C3121 1.392 . S
C3122 C3123 1.385 . S
C3122 C3124 1.478 . S
C3123 H3117 0.930 . S
C3123 C3119 1.400 . S
C3123 C3122 1.385 . S
C3124 C3122 1.478 . S
C3124 C3126 1.381 . S
C3124 C3130 1.383 . S
C3125 C3121 1.495 . S
C3125 H3131 0.959 . S
C3125 H3132 0.961 . S
C3125 H3133 0.960 . S
C3126 C3124 1.381 . S
C3126 C3127 1.394 . S
C3126 H3134 0.930 . S
C3127 C3126 1.394 . S
C3127 C3128 1.383 . S
C3127 H3135 0.929 . S
C3128 C3127 1.383 . S
C3128 C3129 1.377 . S
C3129 H3113 0.930 . S
C3129 C3128 1.377 . S
C3129 C3130 1.379 . S
C3130 H3114 0.931 . S
C3130 C3124 1.383 . S
C3130 C3129 1.379 . S
H3131 C3125 0.959 . S
H3132 C3125 0.961 . S
H3133 C3125 0.960 . S
H3134 C3126 0.930 . S
H3135 C3127 0.929 . S
H3136 C3144 0.929 . S
H3137 C3146 0.930 . S
H3138 C3148 0.930 . S
H3139 C3151 0.929 . S
H3140 C3154 0.930 . S
H3141 C3156 0.960 . S
H3142 C3156 0.960 . S
H3143 C3156 0.960 . S
C3144 H3136 0.929 . S
C3144 C3145 1.377 . S
C3144 C3146 1.384 . S
C3145 C3144 1.377 . S
C3145 C3151 1.390 . S
C3146 H3137 0.930 . S
C3146 C3144 1.384 . S
C3146 C3147 1.372 . S
C3147 C3146 1.372 . S
C3147 C3148 1.400 . S
C3147 C3152 1.490 . S
C3148 H3138 0.930 . S
C3148 C3147 1.400 . S
C3148 C3151 1.386 . S
H3149 C3165 0.930 . S
H3150 C3166 0.931 . S
C3151 H3139 0.929 . S
C3151 C3145 1.390 . S
C3151 C3148 1.386 . S
C3152 C3147 1.490 . S
C3152 C3154 1.395 . S
C3152 C3155 1.403 . S
H3153 C3159 0.930 . S
C3154 H3140 0.930 . S
C3154 C3152 1.395 . S
C3154 C3157 1.403 . S
C3155 C3152 1.403 . S
C3155 C3156 1.524 . S
C3155 C3159 1.400 . S
C3156 H3141 0.960 . S
C3156 H3142 0.960 . S
C3156 H3143 0.960 . S
C3156 C3155 1.524 . S
C3157 C3154 1.403 . S
C3157 C3158 1.392 . S
C3157 C3161 1.495 . S
C3158 C3157 1.392 . S
C3158 C3159 1.385 . S
C3158 C3160 1.478 . S
C3159 H3153 0.930 . S
C3159 C3155 1.400 . S
C3159 C3158 1.385 . S
C3160 C3158 1.478 . S
C3160 C3162 1.381 . S
C3160 C3166 1.383 . S
C3161 C3157 1.495 . S
C3161 H3167 0.959 . S
C3161 H3168 0.961 . S
C3161 H3169 0.960 . S
C3162 C3160 1.381 . S
C3162 C3163 1.394 . S
C3162 H3170 0.930 . S
C3163 C3162 1.394 . S
C3163 C3164 1.383 . S
C3163 H3171 0.929 . S
C3164 C3163 1.383 . S
C3164 C3165 1.377 . S
C3165 H3149 0.930 . S
C3165 C3164 1.377 . S
C3165 C3166 1.379 . S
C3166 H3150 0.931 . S
C3166 C3160 1.383 . S
C3166 C3165 1.379 . S
H3167 C3161 0.959 . S
H3168 C3161 0.961 . S
H3169 C3161 0.960 . S
H3170 C3162 0.930 . S
H3171 C3163 0.929 . S
H3172 C3180 0.929 . S
H3173 C3182 0.930 . S
H3174 C3184 0.930 . S
H3175 C3187 0.929 . S
H3176 C3190 0.930 . S
H3177 C3192 0.960 . S
H3178 C3192 0.960 . S
H3179 C3192 0.960 . S
C3180 H3172 0.929 . S
C3180 C3181 1.377 . S
C3180 C3182 1.384 . S
C3181 C3180 1.377 . S
C3181 C3187 1.390 . S
C3182 H3173 0.930 . S
C3182 C3180 1.384 . S
C3182 C3183 1.372 . S
C3183 C3182 1.372 . S
C3183 C3184 1.400 . S
C3183 C3188 1.490 . S
C3184 H3174 0.930 . S
C3184 C3183 1.400 . S
C3184 C3187 1.386 . S
H3185 C3201 0.930 . S
H3186 C3202 0.931 . S
C3187 H3175 0.929 . S
C3187 C3181 1.390 . S
C3187 C3184 1.386 . S
C3188 C3183 1.490 . S
C3188 C3190 1.395 . S
C3188 C3191 1.403 . S
H3189 C3195 0.930 . S
C3190 H3176 0.930 . S
C3190 C3188 1.395 . S
C3190 C3193 1.403 . S
C3191 C3188 1.403 . S
C3191 C3192 1.524 . S
C3191 C3195 1.400 . S
C3192 H3177 0.960 . S
C3192 H3178 0.960 . S
C3192 H3179 0.960 . S
C3192 C3191 1.524 . S
C3193 C3190 1.403 . S
C3193 C3194 1.392 . S
C3193 C3197 1.495 . S
C3194 C3193 1.392 . S
C3194 C3195 1.385 . S
C3194 C3196 1.478 . S
C3195 H3189 0.930 . S
C3195 C3191 1.400 . S
C3195 C3194 1.385 . S
C3196 C3194 1.478 . S
C3196 C3198 1.381 . S
C3196 C3202 1.383 . S
C3197 C3193 1.495 . S
C3197 H3203 0.959 . S
C3197 H3204 0.961 . S
C3197 H3205 0.960 . S
C3198 C3196 1.381 . S
C3198 C3199 1.394 . S
C3198 H3206 0.930 . S
C3199 C3198 1.394 . S
C3199 C3200 1.383 . S
C3199 H3207 0.929 . S
C3200 C3199 1.383 . S
C3200 C3201 1.377 . S
C3201 H3185 0.930 . S
C3201 C3200 1.377 . S
C3201 C3202 1.379 . S
C3202 H3186 0.931 . S
C3202 C3196 1.383 . S
C3202 C3201 1.379 . S
H3203 C3197 0.959 . S
H3204 C3197 0.961 . S
H3205 C3197 0.960 . S
H3206 C3198 0.930 . S
H3207 C3199 0.929 . S
H3208 C3216 0.929 . S
H3209 C3218 0.930 . S
H3210 C3220 0.930 . S
H3211 C3223 0.929 . S
H3212 C3226 0.930 . S
H3213 C3228 0.960 . S
H3214 C3228 0.960 . S
H3215 C3228 0.960 . S
C3216 H3208 0.929 . S
C3216 C3217 1.377 . S
C3216 C3218 1.384 . S
C3217 C3216 1.377 . S
C3217 C3223 1.390 . S
C3218 H3209 0.930 . S
C3218 C3216 1.384 . S
C3218 C3219 1.372 . S
C3219 C3218 1.372 . S
C3219 C3220 1.400 . S
C3219 C3224 1.490 . S
C3220 H3210 0.930 . S
C3220 C3219 1.400 . S
C3220 C3223 1.386 . S
H3221 C3237 0.930 . S
H3222 C3238 0.931 . S
C3223 H3211 0.929 . S
C3223 C3217 1.390 . S
C3223 C3220 1.386 . S
C3224 C3219 1.490 . S
C3224 C3226 1.395 . S
C3224 C3227 1.403 . S
H3225 C3231 0.930 . S
C3226 H3212 0.930 . S
C3226 C3224 1.395 . S
C3226 C3229 1.403 . S
C3227 C3224 1.403 . S
C3227 C3228 1.524 . S
C3227 C3231 1.400 . S
C3228 H3213 0.960 . S
C3228 H3214 0.960 . S
C3228 H3215 0.960 . S
C3228 C3227 1.524 . S
C3229 C3226 1.403 . S
C3229 C3230 1.392 . S
C3229 C3233 1.495 . S
C3230 C3229 1.392 . S
C3230 C3231 1.385 . S
C3230 C3232 1.478 . S
C3231 H3225 0.930 . S
C3231 C3227 1.400 . S
C3231 C3230 1.385 . S
C3232 C3230 1.478 . S
C3232 C3234 1.381 . S
C3232 C3238 1.383 . S
C3233 C3229 1.495 . S
C3233 H3239 0.959 . S
C3233 H3240 0.961 . S
C3233 H3241 0.960 . S
C3234 C3232 1.381 . S
C3234 C3235 1.394 . S
C3234 H3242 0.930 . S
C3235 C3234 1.394 . S
C3235 C3236 1.383 . S
C3235 H3243 0.929 . S
C3236 C3235 1.383 . S
C3236 C3237 1.377 . S
C3237 H3221 0.930 . S
C3237 C3236 1.377 . S
C3237 C3238 1.379 . S
C3238 H3222 0.931 . S
C3238 C3232 1.383 . S
C3238 C3237 1.379 . S
H3239 C3233 0.959 . S
H3240 C3233 0.961 . S
H3241 C3233 0.960 . S
H3242 C3234 0.930 . S
H3243 C3235 0.929 . S
H3244 C3252 0.929 . S
H3245 C3254 0.930 . S
H3246 C3256 0.930 . S
H3247 C3259 0.929 . S
H3248 C3262 0.930 . S
H3249 C3264 0.960 . S
H3250 C3264 0.960 . S
H3251 C3264 0.960 . S
C3252 H3244 0.929 . S
C3252 C3253 1.377 . S
C3252 C3254 1.384 . S
C3253 C3252 1.377 . S
C3253 C3259 1.390 . S
C3254 H3245 0.930 . S
C3254 C3252 1.384 . S
C3254 C3255 1.372 . S
C3255 C3254 1.372 . S
C3255 C3256 1.400 . S
C3255 C3260 1.490 . S
C3256 H3246 0.930 . S
C3256 C3255 1.400 . S
C3256 C3259 1.386 . S
H3257 C3273 0.930 . S
H3258 C3274 0.931 . S
C3259 H3247 0.929 . S
C3259 C3253 1.390 . S
C3259 C3256 1.386 . S
C3260 C3255 1.490 . S
C3260 C3262 1.395 . S
C3260 C3263 1.403 . S
H3261 C3267 0.930 . S
C3262 H3248 0.930 . S
C3262 C3260 1.395 . S
C3262 C3265 1.403 . S
C3263 C3260 1.403 . S
C3263 C3264 1.524 . S
C3263 C3267 1.400 . S
C3264 H3249 0.960 . S
C3264 H3250 0.960 . S
C3264 H3251 0.960 . S
C3264 C3263 1.524 . S
C3265 C3262 1.403 . S
C3265 C3266 1.392 . S
C3265 C3269 1.495 . S
C3266 C3265 1.392 . S
C3266 C3267 1.385 . S
C3266 C3268 1.478 . S
C3267 H3261 0.930 . S
C3267 C3263 1.400 . S
C3267 C3266 1.385 . S
C3268 C3266 1.478 . S
C3268 C3270 1.381 . S
C3268 C3274 1.383 . S
C3269 C3265 1.495 . S
C3269 H3275 0.959 . S
C3269 H3276 0.961 . S
C3269 H3277 0.960 . S
C3270 C3268 1.381 . S
C3270 C3271 1.394 . S
C3270 H3278 0.930 . S
C3271 C3270 1.394 . S
C3271 C3272 1.383 . S
C3271 H3279 0.929 . S
C3272 C3271 1.383 . S
C3272 C3273 1.377 . S
C3273 H3257 0.930 . S
C3273 C3272 1.377 . S
C3273 C3274 1.379 . S
C3274 H3258 0.931 . S
C3274 C3268 1.383 . S
C3274 C3273 1.379 . S
H3275 C3269 0.959 . S
H3276 C3269 0.961 . S
H3277 C3269 0.960 . S
H3278 C3270 0.930 . S
H3279 C3271 0.929 . S
H3280 C3288 0.929 . S
H3281 C3290 0.930 . S
H3282 C3292 0.930 . S
H3283 C3295 0.929 . S
H3284 C3298 0.930 . S
H3285 C3300 0.960 . S
H3286 C3300 0.960 . S
H3287 C3300 0.960 . S
C3288 H3280 0.929 . S
C3288 C3289 1.377 . S
C3288 C3290 1.384 . S
C3289 C3288 1.377 . S
C3289 C3295 1.390 . S
C3290 H3281 0.930 . S
C3290 C3288 1.384 . S
C3290 C3291 1.372 . S
C3291 C3290 1.372 . S
C3291 C3292 1.400 . S
C3291 C3296 1.490 . S
C3292 H3282 0.930 . S
C3292 C3291 1.400 . S
C3292 C3295 1.386 . S
H3293 C3309 0.930 . S
H3294 C3310 0.931 . S
C3295 H3283 0.929 . S
C3295 C3289 1.390 . S
C3295 C3292 1.386 . S
C3296 C3291 1.490 . S
C3296 C3298 1.395 . S
C3296 C3299 1.403 . S
H3297 C3303 0.930 . S
C3298 H3284 0.930 . S
C3298 C3296 1.395 . S
C3298 C3301 1.403 . S
C3299 C3296 1.403 . S
C3299 C3300 1.524 . S
C3299 C3303 1.400 . S
C3300 H3285 0.960 . S
C3300 H3286 0.960 . S
C3300 H3287 0.960 . S
C3300 C3299 1.524 . S
C3301 C3298 1.403 . S
C3301 C3302 1.392 . S
C3301 C3305 1.495 . S
C3302 C3301 1.392 . S
C3302 C3303 1.385 . S
C3302 C3304 1.478 . S
C3303 H3297 0.930 . S
C3303 C3299 1.400 . S
C3303 C3302 1.385 . S
C3304 C3302 1.478 . S
C3304 C3306 1.381 . S
C3304 C3310 1.383 . S
C3305 C3301 1.495 . S
C3305 H3311 0.959 . S
C3305 H3312 0.961 . S
C3305 H3313 0.960 . S
C3306 C3304 1.381 . S
C3306 C3307 1.394 . S
C3306 H3314 0.930 . S
C3307 C3306 1.394 . S
C3307 C3308 1.383 . S
C3307 H3315 0.929 . S
C3308 C3307 1.383 . S
C3308 C3309 1.377 . S
C3309 H3293 0.930 . S
C3309 C3308 1.377 . S
C3309 C3310 1.379 . S
C3310 H3294 0.931 . S
C3310 C3304 1.383 . S
C3310 C3309 1.379 . S
H3311 C3305 0.959 . S
H3312 C3305 0.961 . S
H3313 C3305 0.960 . S
H3314 C3306 0.930 . S
H3315 C3307 0.929 . S
H3316 C3324 0.929 . S
H3317 C3326 0.930 . S
H3318 C3328 0.930 . S
H3319 C3331 0.929 . S
H3320 C3334 0.930 . S
H3321 C3336 0.960 . S
H3322 C3336 0.960 . S
H3323 C3336 0.960 . S
C3324 H3316 0.929 . S
C3324 C3325 1.377 . S
C3324 C3326 1.384 . S
C3325 C3324 1.377 . S
C3325 C3331 1.390 . S
C3326 H3317 0.930 . S
C3326 C3324 1.384 . S
C3326 C3327 1.372 . S
C3327 C3326 1.372 . S
C3327 C3328 1.400 . S
C3327 C3332 1.490 . S
C3328 H3318 0.930 . S
C3328 C3327 1.400 . S
C3328 C3331 1.386 . S
H3329 C3345 0.930 . S
H3330 C3346 0.931 . S
C3331 H3319 0.929 . S
C3331 C3325 1.390 . S
C3331 C3328 1.386 . S
C3332 C3327 1.490 . S
C3332 C3334 1.395 . S
C3332 C3335 1.403 . S
H3333 C3339 0.930 . S
C3334 H3320 0.930 . S
C3334 C3332 1.395 . S
C3334 C3337 1.403 . S
C3335 C3332 1.403 . S
C3335 C3336 1.524 . S
C3335 C3339 1.400 . S
C3336 H3321 0.960 . S
C3336 H3322 0.960 . S
C3336 H3323 0.960 . S
C3336 C3335 1.524 . S
C3337 C3334 1.403 . S
C3337 C3338 1.392 . S
C3337 C3341 1.495 . S
C3338 C3337 1.392 . S
C3338 C3339 1.385 . S
C3338 C3340 1.478 . S
C3339 H3333 0.930 . S
C3339 C3335 1.400 . S
C3339 C3338 1.385 . S
C3340 C3338 1.478 . S
C3340 C3342 1.381 . S
C3340 C3346 1.383 . S
C3341 C3337 1.495 . S
C3341 H3347 0.959 . S
C3341 H3348 0.961 . S
C3341 H3349 0.960 . S
C3342 C3340 1.381 . S
C3342 C3343 1.394 . S
C3342 H3350 0.930 . S
C3343 C3342 1.394 . S
C3343 C3344 1.383 . S
C3343 H3351 0.929 . S
C3344 C3343 1.383 . S
C3344 C3345 1.377 . S
C3345 H3329 0.930 . S
C3345 C3344 1.377 . S
C3345 C3346 1.379 . S
C3346 H3330 0.931 . S
C3346 C3340 1.383 . S
C3346 C3345 1.379 . S
H3347 C3341 0.959 . S
H3348 C3341 0.961 . S
H3349 C3341 0.960 . S
H3350 C3342 0.930 . S
H3351 C3343 0.929 . S
H3352 C3360 0.929 . S
H3353 C3362 0.930 . S
H3354 C3364 0.930 . S
H3355 C3367 0.929 . S
H3356 C3370 0.930 . S
H3357 C3372 0.960 . S
H3358 C3372 0.960 . S
H3359 C3372 0.960 . S
C3360 H3352 0.929 . S
C3360 C3361 1.377 . S
C3360 C3362 1.384 . S
C3361 C3360 1.377 . S
C3361 C3367 1.390 . S
C3362 H3353 0.930 . S
C3362 C3360 1.384 . S
C3362 C3363 1.372 . S
C3363 C3362 1.372 . S
C3363 C3364 1.400 . S
C3363 C3368 1.490 . S
C3364 H3354 0.930 . S
C3364 C3363 1.400 . S
C3364 C3367 1.386 . S
H3365 C3381 0.930 . S
H3366 C3382 0.931 . S
C3367 H3355 0.929 . S
C3367 C3361 1.390 . S
C3367 C3364 1.386 . S
C3368 C3363 1.490 . S
C3368 C3370 1.395 . S
C3368 C3371 1.403 . S
H3369 C3375 0.930 . S
C3370 H3356 0.930 . S
C3370 C3368 1.395 . S
C3370 C3373 1.403 . S
C3371 C3368 1.403 . S
C3371 C3372 1.524 . S
C3371 C3375 1.400 . S
C3372 H3357 0.960 . S
C3372 H3358 0.960 . S
C3372 H3359 0.960 . S
C3372 C3371 1.524 . S
C3373 C3370 1.403 . S
C3373 C3374 1.392 . S
C3373 C3377 1.495 . S
C3374 C3373 1.392 . S
C3374 C3375 1.385 . S
C3374 C3376 1.478 . S
C3375 H3369 0.930 . S
C3375 C3371 1.400 . S
C3375 C3374 1.385 . S
C3376 C3374 1.478 . S
C3376 C3378 1.381 . S
C3376 C3382 1.383 . S
C3377 C3373 1.495 . S
C3377 H3383 0.959 . S
C3377 H3384 0.961 . S
C3377 H3385 0.960 . S
C3378 C3376 1.381 . S
C3378 C3379 1.394 . S
C3378 H3386 0.930 . S
C3379 C3378 1.394 . S
C3379 C3380 1.383 . S
C3379 H3387 0.929 . S
C3380 C3379 1.383 . S
C3380 C3381 1.377 . S
C3381 H3365 0.930 . S
C3381 C3380 1.377 . S
C3381 C3382 1.379 . S
C3382 H3366 0.931 . S
C3382 C3376 1.383 . S
C3382 C3381 1.379 . S
H3383 C3377 0.959 . S
H3384 C3377 0.961 . S
H3385 C3377 0.960 . S
H3386 C3378 0.930 . S
H3387 C3379 0.929 . S
H3388 C3396 0.929 . S
H3389 C3398 0.930 . S
H3390 C3400 0.930 . S
H3391 C3403 0.929 . S
H3392 C3406 0.930 . S
H3393 C3408 0.960 . S
H3394 C3408 0.960 . S
H3395 C3408 0.960 . S
C3396 H3388 0.929 . S
C3396 C3397 1.377 . S
C3396 C3398 1.384 . S
C3397 C3396 1.377 . S
C3397 C3403 1.390 . S
C3398 H3389 0.930 . S
C3398 C3396 1.384 . S
C3398 C3399 1.372 . S
C3399 C3398 1.372 . S
C3399 C3400 1.400 . S
C3399 C3404 1.490 . S
C3400 H3390 0.930 . S
C3400 C3399 1.400 . S
C3400 C3403 1.386 . S
H3401 C3417 0.927 1_566 S
H3402 C3418 0.931 . S
C3403 H3391 0.929 . S
C3403 C3397 1.390 . S
C3403 C3400 1.386 . S
C3404 C3399 1.490 . S
C3404 C3406 1.395 . S
C3404 C3407 1.403 1_554 S
H3405 C3411 0.930 . S
C3406 H3392 0.930 . S
C3406 C3404 1.395 . S
C3406 C3409 1.403 . S
C3407 C3404 1.403 1_556 S
C3407 C3408 1.524 . S
C3407 C3411 1.400 . S
C3408 H3393 0.960 . S
C3408 H3394 0.960 . S
C3408 H3395 0.960 . S
C3408 C3407 1.524 . S
C3409 C3406 1.403 . S
C3409 C3410 1.392 . S
C3409 C3413 1.495 1_565 S
C3410 C3409 1.392 . S
C3410 C3411 1.385 1_554 S
C3410 C3412 1.478 1_565 S
C3411 H3405 0.930 . S
C3411 C3407 1.400 . S
C3411 C3410 1.385 1_556 S
C3412 C3410 1.478 1_545 S
C3412 C3414 1.381 . S
C3412 C3418 1.383 1_545 S
C3413 C3409 1.495 1_545 S
C3413 H3419 0.959 . S
C3413 H3420 0.961 1_545 S
C3413 H3421 0.960 . S
C3414 C3412 1.381 . S
C3414 C3415 1.394 . S
C3414 H3422 0.930 . S
C3415 C3414 1.394 . S
C3415 C3416 1.383 . S
C3415 H3423 0.929 . S
C3416 C3415 1.383 . S
C3416 C3417 1.377 . S
C3417 H3401 0.927 1_544 S
C3417 C3416 1.377 . S
C3417 C3418 1.379 1_545 S
C3418 H3402 0.931 . S
C3418 C3412 1.383 1_565 S
C3418 C3417 1.379 1_565 S
H3419 C3413 0.959 . S
H3420 C3413 0.961 1_565 S
H3421 C3413 0.960 . S
H3422 C3414 0.930 . S
H3423 C3415 0.929 . S
H3424 C3432 0.929 . S
H3425 C3434 0.930 . S
H3426 C3436 0.930 . S
H3427 C3439 0.929 . S
H3428 C3442 0.930 . S
H3429 C3444 0.960 . S
H3430 C3444 0.960 . S
H3431 C3444 0.960 . S
C3432 H3424 0.929 . S
C3432 C3433 1.377 . S
C3432 C3434 1.384 . S
C3433 C3432 1.377 . S
C3433 C3439 1.390 . S
C3434 H3425 0.930 . S
C3434 C3432 1.384 . S
C3434 C3435 1.372 . S
C3435 C3434 1.372 . S
C3435 C3436 1.400 . S
C3435 C3440 1.490 . S
C3436 H3426 0.930 . S
C3436 C3435 1.400 . S
C3436 C3439 1.386 . S
H3437 C3453 0.930 . S
H3438 C3454 0.931 . S
C3439 H3427 0.929 . S
C3439 C3433 1.390 . S
C3439 C3436 1.386 . S
C3440 C3435 1.490 . S
C3440 C3442 1.395 . S
C3440 C3443 1.403 . S
H3441 C3447 0.930 . S
C3442 H3428 0.930 . S
C3442 C3440 1.395 . S
C3442 C3445 1.403 . S
C3443 C3440 1.403 . S
C3443 C3444 1.524 . S
C3443 C3447 1.400 . S
C3444 H3429 0.960 . S
C3444 H3430 0.960 . S
C3444 H3431 0.960 . S
C3444 C3443 1.524 . S
C3445 C3442 1.403 . S
C3445 C3446 1.392 . S
C3445 C3449 1.495 . S
C3446 C3445 1.392 . S
C3446 C3447 1.385 . S
C3446 C3448 1.478 . S
C3447 H3441 0.930 . S
C3447 C3443 1.400 . S
C3447 C3446 1.385 . S
C3448 C3446 1.478 . S
C3448 C3450 1.381 . S
C3448 C3454 1.383 . S
C3449 C3445 1.495 . S
C3449 H3455 0.959 . S
C3449 H3456 0.961 . S
C3449 H3457 0.960 . S
C3450 C3448 1.381 . S
C3450 C3451 1.394 . S
C3450 H3458 0.930 . S
C3451 C3450 1.394 . S
C3451 C3452 1.383 . S
C3451 H3459 0.929 . S
C3452 C3451 1.383 . S
C3452 C3453 1.377 . S
C3453 H3437 0.930 . S
C3453 C3452 1.377 . S
C3453 C3454 1.379 . S
C3454 H3438 0.931 . S
C3454 C3448 1.383 . S
C3454 C3453 1.379 . S
H3455 C3449 0.959 . S
H3456 C3449 0.961 . S
H3457 C3449 0.960 . S
H3458 C3450 0.930 . S
H3459 C3451 0.929 . S
H3460 C3468 0.929 . S
H3461 C3470 0.930 . S
H3462 C3472 0.930 . S
H3463 C3475 0.929 . S
H3464 C3478 0.930 . S
H3465 C3480 0.960 . S
H3466 C3480 0.960 . S
H3467 C3480 0.960 . S
C3468 H3460 0.929 . S
C3468 C3469 1.377 1_556 S
C3468 C3470 1.384 . S
C3469 C3468 1.377 1_554 S
C3469 C3475 1.390 . S
C3470 H3461 0.930 . S
C3470 C3468 1.384 . S
C3470 C3471 1.372 1_556 S
C3471 C3470 1.372 1_554 S
C3471 C3472 1.400 . S
C3471 C3476 1.490 . S
C3472 H3462 0.930 . S
C3472 C3471 1.400 . S
C3472 C3475 1.386 . S
H3473 C3489 0.930 . S
H3474 C3490 0.931 . S
C3475 H3463 0.929 . S
C3475 C3469 1.390 . S
C3475 C3472 1.386 . S
C3476 C3471 1.490 . S
C3476 C3478 1.395 . S
C3476 C3479 1.403 . S
H3477 C3483 0.930 . S
C3478 H3464 0.930 . S
C3478 C3476 1.395 . S
C3478 C3481 1.403 . S
C3479 C3476 1.403 . S
C3479 C3480 1.524 . S
C3479 C3483 1.400 . S
C3480 H3465 0.960 . S
C3480 H3466 0.960 . S
C3480 H3467 0.960 . S
C3480 C3479 1.524 . S
C3481 C3478 1.403 . S
C3481 C3482 1.392 . S
C3481 C3485 1.495 . S
C3482 C3481 1.392 . S
C3482 C3483 1.385 . S
C3482 C3484 1.478 . S
C3483 H3477 0.930 . S
C3483 C3479 1.400 . S
C3483 C3482 1.385 . S
C3484 C3482 1.478 . S
C3484 C3486 1.381 . S
C3484 C3490 1.383 . S
C3485 C3481 1.495 . S
C3485 H3491 0.959 . S
C3485 H3492 0.961 . S
C3485 H3493 0.960 . S
C3486 C3484 1.381 . S
C3486 C3487 1.394 . S
C3486 H3494 0.978 . S
C3487 C3486 1.394 . S
C3487 C3488 1.383 . S
C3487 H3495 0.929 . S
C3488 C3487 1.383 . S
C3488 C3489 1.377 . S
C3489 H3473 0.930 . S
C3489 C3488 1.377 . S
C3489 C3490 1.379 . S
C3490 H3474 0.931 . S
C3490 C3484 1.383 . S
C3490 C3489 1.379 . S
H3491 C3485 0.959 . S
H3492 C3485 0.961 . S
H3493 C3485 0.960 . S
H3494 C3486 0.978 . S
H3495 C3487 0.929 . S
H3496 C3504 0.929 . S
H3497 C3506 0.930 . S
H3498 C3508 0.930 . S
H3499 C3511 0.929 . S
H3500 C3514 0.930 . S
H3501 C3516 0.960 . S
H3502 C3516 0.960 . S
H3503 C3516 0.960 . S
C3504 H3496 0.929 . S
C3504 C3505 1.377 . S
C3504 C3506 1.384 . S
C3505 C3504 1.377 . S
C3505 C3511 1.390 . S
C3506 H3497 0.930 . S
C3506 C3504 1.384 . S
C3506 C3507 1.372 . S
C3507 C3506 1.372 . S
C3507 C3508 1.400 . S
C3507 C3512 1.490 . S
C3508 H3498 0.930 . S
C3508 C3507 1.400 . S
C3508 C3511 1.386 . S
H3509 C3525 0.930 . S
H3510 C3526 0.931 . S
C3511 H3499 0.929 . S
C3511 C3505 1.390 . S
C3511 C3508 1.386 . S
C3512 C3507 1.490 . S
C3512 C3514 1.395 . S
C3512 C3515 1.403 . S
H3513 C3519 0.930 . S
C3514 H3500 0.930 . S
C3514 C3512 1.395 . S
C3514 C3517 1.403 . S
C3515 C3512 1.403 . S
C3515 C3516 1.524 . S
C3515 C3519 1.400 . S
C3516 H3501 0.960 . S
C3516 H3502 0.960 . S
C3516 H3503 0.960 . S
C3516 C3515 1.524 . S
C3517 C3514 1.403 . S
C3517 C3518 1.392 . S
C3517 C3521 1.495 . S
C3518 C3517 1.392 . S
C3518 C3519 1.385 . S
C3518 C3520 1.478 . S
C3519 H3513 0.930 . S
C3519 C3515 1.400 . S
C3519 C3518 1.385 . S
C3520 C3518 1.478 . S
C3520 C3522 1.381 . S
C3520 C3526 1.383 . S
C3521 C3517 1.495 . S
C3521 H3527 0.959 . S
C3521 H3528 0.961 . S
C3521 H3529 0.960 . S
C3522 C3520 1.381 . S
C3522 C3523 1.394 . S
C3522 H3530 0.930 . S
C3523 C3522 1.394 . S
C3523 C3524 1.383 . S
C3523 H3531 0.929 . S
C3524 C3523 1.383 . S
C3524 C3525 1.377 . S
C3525 H3509 0.930 . S
C3525 C3524 1.377 . S
C3525 C3526 1.379 . S
C3526 H3510 0.931 . S
C3526 C3520 1.383 . S
C3526 C3525 1.379 . S
H3527 C3521 0.959 . S
H3528 C3521 0.961 . S
H3529 C3521 0.960 . S
H3530 C3522 0.930 . S
H3531 C3523 0.929 . S
H3532 C3540 0.929 . S
H3533 C3542 0.930 . S
H3534 C3544 0.930 . S
H3535 C3547 0.929 . S
H3536 C3550 0.930 . S
H3537 C3552 0.960 . S
H3538 C3552 0.960 . S
H3539 C3552 0.960 . S
C3540 H3532 0.929 . S
C3540 C3541 1.377 . S
C3540 C3542 1.384 . S
C3541 C3540 1.377 . S
C3541 C3547 1.390 . S
C3542 H3533 0.930 . S
C3542 C3540 1.384 . S
C3542 C3543 1.372 . S
C3543 C3542 1.372 . S
C3543 C3544 1.400 . S
C3543 C3548 1.490 . S
C3544 H3534 0.930 . S
C3544 C3543 1.400 . S
C3544 C3547 1.386 . S
H3545 C3561 0.930 . S
H3546 C3562 0.931 . S
C3547 H3535 0.929 . S
C3547 C3541 1.390 . S
C3547 C3544 1.386 . S
C3548 C3543 1.490 . S
C3548 C3550 1.395 . S
C3548 C3551 1.403 . S
H3549 C3555 0.930 . S
C3550 H3536 0.930 . S
C3550 C3548 1.395 . S
C3550 C3553 1.403 . S
C3551 C3548 1.403 . S
C3551 C3552 1.524 . S
C3551 C3555 1.400 . S
C3552 H3537 0.960 . S
C3552 H3538 0.960 . S
C3552 H3539 0.960 . S
C3552 C3551 1.524 . S
C3553 C3550 1.403 . S
C3553 C3554 1.392 . S
C3553 C3557 1.495 . S
C3554 C3553 1.392 . S
C3554 C3555 1.385 . S
C3554 C3556 1.478 . S
C3555 H3549 0.930 . S
C3555 C3551 1.400 . S
C3555 C3554 1.385 . S
C3556 C3554 1.478 . S
C3556 C3558 1.381 . S
C3556 C3562 1.383 . S
C3557 C3553 1.495 . S
C3557 H3563 0.959 . S
C3557 H3564 0.961 . S
C3557 H3565 0.960 . S
C3558 C3556 1.381 . S
C3558 C3559 1.394 . S
C3558 H3566 0.930 . S
C3559 C3558 1.394 . S
C3559 C3560 1.383 . S
C3559 H3567 0.929 . S
C3560 C3559 1.383 . S
C3560 C3561 1.377 . S
C3561 H3545 0.930 . S
C3561 C3560 1.377 . S
C3561 C3562 1.379 . S
C3562 H3546 0.931 . S
C3562 C3556 1.383 . S
C3562 C3561 1.379 . S
H3563 C3557 0.959 . S
H3564 C3557 0.961 . S
H3565 C3557 0.960 . S
H3566 C3558 0.930 . S
H3567 C3559 0.929 . S
H3568 C3576 0.929 . S
H3569 C3578 0.930 . S
H3570 C3580 0.930 . S
H3571 C3583 0.929 . S
H3572 C3586 0.930 . S
H3573 C3588 0.960 . S
H3574 C3588 0.960 . S
H3575 C3588 0.960 . S
C3576 H3568 0.929 . S
C3576 C3577 1.377 . S
C3576 C3578 1.384 . S
C3577 C3576 1.377 . S
C3577 C3583 1.390 . S
C3578 H3569 0.930 . S
C3578 C3576 1.384 . S
C3578 C3579 1.372 . S
C3579 C3578 1.372 . S
C3579 C3580 1.400 . S
C3579 C3584 1.490 . S
C3580 H3570 0.930 . S
C3580 C3579 1.400 . S
C3580 C3583 1.386 . S
H3581 C3597 0.930 . S
H3582 C3598 0.931 . S
C3583 H3571 0.929 . S
C3583 C3577 1.390 . S
C3583 C3580 1.386 . S
C3584 C3579 1.490 . S
C3584 C3586 1.395 . S
C3584 C3587 1.403 . S
H3585 C3591 0.930 . S
C3586 H3572 0.930 . S
C3586 C3584 1.395 . S
C3586 C3589 1.403 . S
C3587 C3584 1.403 . S
C3587 C3588 1.524 . S
C3587 C3591 1.400 . S
C3588 H3573 0.960 . S
C3588 H3574 0.960 . S
C3588 H3575 0.960 . S
C3588 C3587 1.524 . S
C3589 C3586 1.403 . S
C3589 C3590 1.392 . S
C3589 C3593 1.495 . S
C3590 C3589 1.392 . S
C3590 C3591 1.385 . S
C3590 C3592 1.478 . S
C3591 H3585 0.930 . S
C3591 C3587 1.400 . S
C3591 C3590 1.385 . S
C3592 C3590 1.478 . S
C3592 C3594 1.381 . S
C3592 C3598 1.383 . S
C3593 C3589 1.495 . S
C3593 H3599 0.959 . S
C3593 H3600 0.961 . S
C3593 H3601 0.960 . S
C3594 C3592 1.381 . S
C3594 C3595 1.394 . S
C3594 H3602 0.930 . S
C3595 C3594 1.394 . S
C3595 C3596 1.383 . S
C3595 H3603 0.929 . S
C3596 C3595 1.383 . S
C3596 C3597 1.377 . S
C3597 H3581 0.930 . S
C3597 C3596 1.377 . S
C3597 C3598 1.379 . S
C3598 H3582 0.931 . S
C3598 C3592 1.383 . S
C3598 C3597 1.379 . S
H3599 C3593 0.959 . S
H3600 C3593 0.961 . S
H3601 C3593 0.960 . S
H3602 C3594 0.930 . S
H3603 C3595 0.929 . S
H3604 C3612 0.929 . S
H3605 C3614 0.930 . S
H3606 C3616 0.930 . S
H3607 C3619 0.929 . S
H3608 C3622 0.930 . S
H3609 C3624 0.960 . S
H3610 C3624 0.960 . S
H3611 C3624 0.960 . S
C3612 H3604 0.929 . S
C3612 C3613 1.377 . S
C3612 C3614 1.384 . S
C3613 C3612 1.377 . S
C3613 C3619 1.390 . S
C3614 H3605 0.930 . S
C3614 C3612 1.384 . S
C3614 C3615 1.372 . S
C3615 C3614 1.372 . S
C3615 C3616 1.400 . S
C3615 C3620 1.490 . S
C3616 H3606 0.930 . S
C3616 C3615 1.400 . S
C3616 C3619 1.386 . S
H3617 C3633 0.930 . S
H3618 C3634 0.931 . S
C3619 H3607 0.929 . S
C3619 C3613 1.390 . S
C3619 C3616 1.386 . S
C3620 C3615 1.490 . S
C3620 C3622 1.395 . S
C3620 C3623 1.403 . S
H3621 C3627 0.930 . S
C3622 H3608 0.930 . S
C3622 C3620 1.395 . S
C3622 C3625 1.403 . S
C3623 C3620 1.403 . S
C3623 C3624 1.524 . S
C3623 C3627 1.400 . S
C3624 H3609 0.960 . S
C3624 H3610 0.960 . S
C3624 H3611 0.960 . S
C3624 C3623 1.524 . S
C3625 C3622 1.403 . S
C3625 C3626 1.392 . S
C3625 C3629 1.495 . S
C3626 C3625 1.392 . S
C3626 C3627 1.385 . S
C3626 C3628 1.478 . S
C3627 H3621 0.930 . S
C3627 C3623 1.400 . S
C3627 C3626 1.385 . S
C3628 C3626 1.478 . S
C3628 C3630 1.381 . S
C3628 C3634 1.383 . S
C3629 C3625 1.495 . S
C3629 H3635 0.959 . S
C3629 H3636 0.961 . S
C3629 H3637 0.960 . S
C3630 C3628 1.381 . S
C3630 C3631 1.394 . S
C3630 H3638 0.930 . S
C3631 C3630 1.394 . S
C3631 C3632 1.383 . S
C3631 H3639 0.929 . S
C3632 C3631 1.383 . S
C3632 C3633 1.377 . S
C3633 H3617 0.930 . S
C3633 C3632 1.377 . S
C3633 C3634 1.379 . S
C3634 H3618 0.931 . S
C3634 C3628 1.383 . S
C3634 C3633 1.379 . S
H3635 C3629 0.959 . S
H3636 C3629 0.961 . S
H3637 C3629 0.960 . S
H3638 C3630 0.930 . S
H3639 C3631 0.929 . S
H3640 C3648 0.929 . S
H3641 C3650 0.930 . S
H3642 C3652 0.930 . S
H3643 C3655 0.929 . S
H3644 C3658 0.930 . S
H3645 C3660 0.960 . S
H3646 C3660 0.960 . S
H3647 C3660 0.960 . S
C3648 H3640 0.929 . S
C3648 C3649 1.377 . S
C3648 C3650 1.384 . S
C3649 C3648 1.377 . S
C3649 C3655 1.390 . S
C3650 H3641 0.930 . S
C3650 C3648 1.384 . S
C3650 C3651 1.372 . S
C3651 C3650 1.372 . S
C3651 C3652 1.400 . S
C3651 C3656 1.490 . S
C3652 H3642 0.930 . S
C3652 C3651 1.400 . S
C3652 C3655 1.386 . S
H3653 C3669 0.930 . S
H3654 C3670 0.931 . S
C3655 H3643 0.929 . S
C3655 C3649 1.390 . S
C3655 C3652 1.386 . S
C3656 C3651 1.490 . S
C3656 C3658 1.395 . S
C3656 C3659 1.403 . S
H3657 C3663 0.930 . S
C3658 H3644 0.930 . S
C3658 C3656 1.395 . S
C3658 C3661 1.403 . S
C3659 C3656 1.403 . S
C3659 C3660 1.524 . S
C3659 C3663 1.400 . S
C3660 H3645 0.960 . S
C3660 H3646 0.960 . S
C3660 H3647 0.960 . S
C3660 C3659 1.524 . S
C3661 C3658 1.403 . S
C3661 C3662 1.392 . S
C3661 C3665 1.495 . S
C3662 C3661 1.392 . S
C3662 C3663 1.385 . S
C3662 C3664 1.478 . S
C3663 H3657 0.930 . S
C3663 C3659 1.400 . S
C3663 C3662 1.385 . S
C3664 C3662 1.478 . S
C3664 C3666 1.381 . S
C3664 C3670 1.383 . S
C3665 C3661 1.495 . S
C3665 H3671 0.959 . S
C3665 H3672 0.961 . S
C3665 H3673 0.960 . S
C3666 C3664 1.381 . S
C3666 C3667 1.394 . S
C3666 H3674 0.930 . S
C3667 C3666 1.394 . S
C3667 C3668 1.383 . S
C3667 H3675 0.929 . S
C3668 C3667 1.383 . S
C3668 C3669 1.377 . S
C3669 H3653 0.930 . S
C3669 C3668 1.377 . S
C3669 C3670 1.379 . S
C3670 H3654 0.931 . S
C3670 C3664 1.383 . S
C3670 C3669 1.379 . S
H3671 C3665 0.959 . S
H3672 C3665 0.961 . S
H3673 C3665 0.960 . S
H3674 C3666 0.930 . S
H3675 C3667 0.929 . S
H3676 C3684 0.929 . S
H3677 C3686 0.930 . S
H3678 C3688 0.930 . S
H3679 C3691 0.929 . S
H3680 C3694 0.930 . S
H3681 C3696 0.960 . S
H3682 C3696 0.960 . S
H3683 C3696 0.960 . S
C3684 H3676 0.929 . S
C3684 C3685 1.377 . S
C3684 C3686 1.384 . S
C3685 C3684 1.377 . S
C3685 C3691 1.390 . S
C3686 H3677 0.930 . S
C3686 C3684 1.384 . S
C3686 C3687 1.372 . S
C3687 C3686 1.372 . S
C3687 C3688 1.400 . S
C3687 C3692 1.490 . S
C3688 H3678 0.930 . S
C3688 C3687 1.400 . S
C3688 C3691 1.386 . S
H3689 C3705 0.930 . S
H3690 C3706 0.931 . S
C3691 H3679 0.929 . S
C3691 C3685 1.390 . S
C3691 C3688 1.386 . S
C3692 C3687 1.490 . S
C3692 C3694 1.395 . S
C3692 C3695 1.403 . S
H3693 C3699 0.930 . S
C3694 H3680 0.930 . S
C3694 C3692 1.395 . S
C3694 C3697 1.403 . S
C3695 C3692 1.403 . S
C3695 C3696 1.524 . S
C3695 C3699 1.400 . S
C3696 H3681 0.960 . S
C3696 H3682 0.960 . S
C3696 H3683 0.960 . S
C3696 C3695 1.524 . S
C3697 C3694 1.403 . S
C3697 C3698 1.392 . S
C3697 C3701 1.495 . S
C3698 C3697 1.392 . S
C3698 C3699 1.385 . S
C3698 C3700 1.478 . S
C3699 H3693 0.930 . S
C3699 C3695 1.400 . S
C3699 C3698 1.385 . S
C3700 C3698 1.478 . S
C3700 C3702 1.381 . S
C3700 C3706 1.383 . S
C3701 C3697 1.495 . S
C3701 H3707 0.959 . S
C3701 H3708 0.961 . S
C3701 H3709 0.960 . S
C3702 C3700 1.381 . S
C3702 C3703 1.394 . S
C3702 H3710 0.930 . S
C3703 C3702 1.394 . S
C3703 C3704 1.383 . S
C3703 H3711 0.929 . S
C3704 C3703 1.383 . S
C3704 C3705 1.377 . S
C3705 H3689 0.930 . S
C3705 C3704 1.377 . S
C3705 C3706 1.379 . S
C3706 H3690 0.931 . S
C3706 C3700 1.383 . S
C3706 C3705 1.379 . S
H3707 C3701 0.959 . S
H3708 C3701 0.961 . S
H3709 C3701 0.960 . S
H3710 C3702 0.930 . S
H3711 C3703 0.929 . S
H3712 C3720 0.929 . S
H3713 C3722 0.930 . S
H3714 C3724 0.930 . S
H3715 C3727 0.929 . S
H3716 C3730 0.930 . S
H3717 C3732 0.960 . S
H3718 C3732 0.960 . S
H3719 C3732 0.960 . S
C3720 H3712 0.929 . S
C3720 C3721 1.377 . S
C3720 C3722 1.384 . S
C3721 C3720 1.377 . S
C3721 C3727 1.390 . S
C3722 H3713 0.930 . S
C3722 C3720 1.384 . S
C3722 C3723 1.372 . S
C3723 C3722 1.372 . S
C3723 C3724 1.400 . S
C3723 C3728 1.490 . S
C3724 H3714 0.930 . S
C3724 C3723 1.400 . S
C3724 C3727 1.386 . S
H3725 C3741 0.930 . S
H3726 C3742 0.931 . S
C3727 H3715 0.929 . S
C3727 C3721 1.390 . S
C3727 C3724 1.386 . S
C3728 C3723 1.490 . S
C3728 C3730 1.395 . S
C3728 C3731 1.403 . S
H3729 C3735 0.930 . S
C3730 H3716 0.930 . S
C3730 C3728 1.395 . S
C3730 C3733 1.403 . S
C3731 C3728 1.403 . S
C3731 C3732 1.524 . S
C3731 C3735 1.400 . S
C3732 H3717 0.960 . S
C3732 H3718 0.960 . S
C3732 H3719 0.960 . S
C3732 C3731 1.524 . S
C3733 C3730 1.403 . S
C3733 C3734 1.392 . S
C3733 C3737 1.495 . S
C3734 C3733 1.392 . S
C3734 C3735 1.385 . S
C3734 C3736 1.478 . S
C3735 H3729 0.930 . S
C3735 C3731 1.400 . S
C3735 C3734 1.385 . S
C3736 C3734 1.478 . S
C3736 C3738 1.381 . S
C3736 C3742 1.383 . S
C3737 C3733 1.495 . S
C3737 H3743 0.959 . S
C3737 H3744 0.961 . S
C3737 H3745 0.960 . S
C3738 C3736 1.381 . S
C3738 C3739 1.394 . S
C3738 H3746 0.930 . S
C3739 C3738 1.394 . S
C3739 C3740 1.383 . S
C3739 H3747 0.929 . S
C3740 C3739 1.383 . S
C3740 C3741 1.377 . S
C3741 H3725 0.930 . S
C3741 C3740 1.377 . S
C3741 C3742 1.379 . S
C3742 H3726 0.931 . S
C3742 C3736 1.383 . S
C3742 C3741 1.379 . S
H3743 C3737 0.959 . S
H3744 C3737 0.961 . S
H3745 C3737 0.960 . S
H3746 C3738 0.930 . S
H3747 C3739 0.929 . S
H3748 C3756 0.929 . S
H3749 C3758 0.930 . S
H3750 C3760 0.930 . S
H3751 C3763 0.929 . S
H3752 C3766 0.930 . S
H3753 C3768 0.960 . S
H3754 C3768 0.960 . S
H3755 C3768 0.960 . S
C3756 H3748 0.929 . S
C3756 C3757 1.377 . S
C3756 C3758 1.384 . S
C3757 C3756 1.377 . S
C3757 C3763 1.390 . S
C3758 H3749 0.930 . S
C3758 C3756 1.384 . S
C3758 C3759 1.372 . S
C3759 C3758 1.372 . S
C3759 C3760 1.400 . S
C3759 C3764 1.490 . S
C3760 H3750 0.930 . S
C3760 C3759 1.400 . S
C3760 C3763 1.386 . S
H3761 C3777 0.930 . S
H3762 C3778 0.931 . S
C3763 H3751 0.929 . S
C3763 C3757 1.390 . S
C3763 C3760 1.386 . S
C3764 C3759 1.490 . S
C3764 C3766 1.395 . S
C3764 C3767 1.403 . S
H3765 C3771 0.930 . S
C3766 H3752 0.930 . S
C3766 C3764 1.395 . S
C3766 C3769 1.403 . S
C3767 C3764 1.403 . S
C3767 C3768 1.524 . S
C3767 C3771 1.400 . S
C3768 H3753 0.960 . S
C3768 H3754 0.960 . S
C3768 H3755 0.960 . S
C3768 C3767 1.524 . S
C3769 C3766 1.403 . S
C3769 C3770 1.392 . S
C3769 C3773 1.495 . S
C3770 C3769 1.392 . S
C3770 C3771 1.385 . S
C3770 C3772 1.478 . S
C3771 H3765 0.930 . S
C3771 C3767 1.400 . S
C3771 C3770 1.385 . S
C3772 C3770 1.478 . S
C3772 C3774 1.381 . S
C3772 C3778 1.383 . S
C3773 C3769 1.495 . S
C3773 H3779 0.959 . S
C3773 H3780 0.961 . S
C3773 H3781 0.960 . S
C3774 C3772 1.381 . S
C3774 C3775 1.394 . S
C3774 H3782 0.930 . S
C3775 C3774 1.394 . S
C3775 C3776 1.383 . S
C3775 H3783 0.929 . S
C3776 C3775 1.383 . S
C3776 C3777 1.377 . S
C3777 H3761 0.930 . S
C3777 C3776 1.377 . S
C3777 C3778 1.379 . S
C3778 H3762 0.931 . S
C3778 C3772 1.383 . S
C3778 C3777 1.379 . S
H3779 C3773 0.959 . S
H3780 C3773 0.961 . S
H3781 C3773 0.960 . S
H3782 C3774 0.930 . S
H3783 C3775 0.929 . S
H3784 C3792 0.929 . S
H3785 C3794 0.930 . S
H3786 C3796 0.930 . S
H3787 C3799 0.929 . S
H3788 C3802 0.930 . S
H3789 C3804 0.960 . S
H3790 C3804 0.960 . S
H3791 C3804 0.960 . S
C3792 H3784 0.929 . S
C3792 C3793 1.377 . S
C3792 C3794 1.384 . S
C3793 C3792 1.377 . S
C3793 C3799 1.390 . S
C3794 H3785 0.930 . S
C3794 C3792 1.384 . S
C3794 C3795 1.372 . S
C3795 C3794 1.372 . S
C3795 C3796 1.400 . S
C3795 C3800 1.490 . S
C3796 H3786 0.930 . S
C3796 C3795 1.400 . S
C3796 C3799 1.386 . S
H3797 C3813 0.930 . S
H3798 C3814 0.931 . S
C3799 H3787 0.929 . S
C3799 C3793 1.390 . S
C3799 C3796 1.386 . S
C3800 C3795 1.490 . S
C3800 C3802 1.395 . S
C3800 C3803 1.403 . S
H3801 C3807 0.930 . S
C3802 H3788 0.930 . S
C3802 C3800 1.395 . S
C3802 C3805 1.403 . S
C3803 C3800 1.403 . S
C3803 C3804 1.524 . S
C3803 C3807 1.400 . S
C3804 H3789 0.960 . S
C3804 H3790 0.960 . S
C3804 H3791 0.960 . S
C3804 C3803 1.524 . S
C3805 C3802 1.403 . S
C3805 C3806 1.392 . S
C3805 C3809 1.495 . S
C3806 C3805 1.392 . S
C3806 C3807 1.385 . S
C3806 C3808 1.478 . S
C3807 H3801 0.930 . S
C3807 C3803 1.400 . S
C3807 C3806 1.385 . S
C3808 C3806 1.478 . S
C3808 C3810 1.381 . S
C3808 C3814 1.383 . S
C3809 C3805 1.495 . S
C3809 H3815 0.959 . S
C3809 H3816 0.961 . S
C3809 H3817 0.960 . S
C3810 C3808 1.381 . S
C3810 C3811 1.394 . S
C3810 H3818 0.930 . S
C3811 C3810 1.394 . S
C3811 C3812 1.383 . S
C3811 H3819 0.929 . S
C3812 C3811 1.383 . S
C3812 C3813 1.377 . S
C3813 H3797 0.930 . S
C3813 C3812 1.377 . S
C3813 C3814 1.379 . S
C3814 H3798 0.931 . S
C3814 C3808 1.383 . S
C3814 C3813 1.379 . S
H3815 C3809 0.959 . S
H3816 C3809 0.961 . S
H3817 C3809 0.960 . S
H3818 C3810 0.930 . S
H3819 C3811 0.929 . S
H3820 C3828 0.929 . S
H3821 C3830 0.930 . S
H3822 C3832 0.930 . S
H3823 C3835 0.929 . S
H3824 C3838 0.930 . S
H3825 C3840 0.960 . S
H3826 C3840 0.960 . S
H3827 C3840 0.960 . S
C3828 H3820 0.929 . S
C3828 C3829 1.377 . S
C3828 C3830 1.384 . S
C3829 C3828 1.377 . S
C3829 C3835 1.390 . S
C3830 H3821 0.930 . S
C3830 C3828 1.384 . S
C3830 C3831 1.372 . S
C3831 C3830 1.372 . S
C3831 C3832 1.400 . S
C3831 C3836 1.490 . S
C3832 H3822 0.930 . S
C3832 C3831 1.400 . S
C3832 C3835 1.386 . S
H3833 C3849 0.930 . S
H3834 C3850 0.931 . S
C3835 H3823 0.929 . S
C3835 C3829 1.390 . S
C3835 C3832 1.386 . S
C3836 C3831 1.490 . S
C3836 C3838 1.395 . S
C3836 C3839 1.403 . S
H3837 C3843 0.930 . S
C3838 H3824 0.930 . S
C3838 C3836 1.395 . S
C3838 C3841 1.403 . S
C3839 C3836 1.403 . S
C3839 C3840 1.524 . S
C3839 C3843 1.400 . S
C3840 H3825 0.960 . S
C3840 H3826 0.960 . S
C3840 H3827 0.960 . S
C3840 C3839 1.524 . S
C3841 C3838 1.403 . S
C3841 C3842 1.392 . S
C3841 C3845 1.495 . S
C3842 C3841 1.392 . S
C3842 C3843 1.385 . S
C3842 C3844 1.478 . S
C3843 H3837 0.930 . S
C3843 C3839 1.400 . S
C3843 C3842 1.385 . S
C3844 C3842 1.478 . S
C3844 C3846 1.381 . S
C3844 C3850 1.383 . S
C3845 C3841 1.495 . S
C3845 H3851 0.959 . S
C3845 H3852 0.961 . S
C3845 H3853 0.960 . S
C3846 C3844 1.381 . S
C3846 C3847 1.394 . S
C3846 H3854 0.930 . S
C3847 C3846 1.394 . S
C3847 C3848 1.383 . S
C3847 H3855 0.929 . S
C3848 C3847 1.383 . S
C3848 C3849 1.377 . S
C3849 H3833 0.930 . S
C3849 C3848 1.377 . S
C3849 C3850 1.379 . S
C3850 H3834 0.931 . S
C3850 C3844 1.383 . S
C3850 C3849 1.379 . S
H3851 C3845 0.959 . S
H3852 C3845 0.961 . S
H3853 C3845 0.960 . S
H3854 C3846 0.930 . S
H3855 C3847 0.929 . S
H3856 C3864 0.929 . S
H3857 C3866 0.930 . S
H3858 C3868 0.930 . S
H3859 C3871 0.929 . S
H3860 C3874 0.930 . S
H3861 C3876 0.960 . S
H3862 C3876 0.960 . S
H3863 C3876 0.960 . S
C3864 H3856 0.929 . S
C3864 C3865 1.377 . S
C3864 C3866 1.384 . S
C3865 C3864 1.377 . S
C3865 C3871 1.390 . S
C3866 H3857 0.930 . S
C3866 C3864 1.384 . S
C3866 C3867 1.372 . S
C3867 C3866 1.372 . S
C3867 C3868 1.400 . S
C3867 C3872 1.490 . S
C3868 H3858 0.930 . S
C3868 C3867 1.400 . S
C3868 C3871 1.386 . S
H3869 C3885 0.930 . S
H3870 C3886 0.931 . S
C3871 H3859 0.929 . S
C3871 C3865 1.390 . S
C3871 C3868 1.386 . S
C3872 C3867 1.490 . S
C3872 C3874 1.395 . S
C3872 C3875 1.403 . S
H3873 C3879 0.930 . S
C3874 H3860 0.930 . S
C3874 C3872 1.395 . S
C3874 C3877 1.403 . S
C3875 C3872 1.403 . S
C3875 C3876 1.524 . S
C3875 C3879 1.400 . S
C3876 H3861 0.960 . S
C3876 H3862 0.960 . S
C3876 H3863 0.960 . S
C3876 C3875 1.524 . S
C3877 C3874 1.403 . S
C3877 C3878 1.392 . S
C3877 C3881 1.495 . S
C3878 C3877 1.392 . S
C3878 C3879 1.385 . S
C3878 C3880 1.478 . S
C3879 H3873 0.930 . S
C3879 C3875 1.400 . S
C3879 C3878 1.385 . S
C3880 C3878 1.478 . S
C3880 C3882 1.381 . S
C3880 C3886 1.383 . S
C3881 C3877 1.495 . S
C3881 H3887 0.959 . S
C3881 H3888 0.961 . S
C3881 H3889 0.960 . S
C3882 C3880 1.381 . S
C3882 C3883 1.394 . S
C3882 H3890 0.930 . S
C3883 C3882 1.394 . S
C3883 C3884 1.383 . S
C3883 H3891 0.929 . S
C3884 C3883 1.383 . S
C3884 C3885 1.377 . S
C3885 H3869 0.930 . S
C3885 C3884 1.377 . S
C3885 C3886 1.379 . S
C3886 H3870 0.931 . S
C3886 C3880 1.383 . S
C3886 C3885 1.379 . S
H3887 C3881 0.959 . S
H3888 C3881 0.961 . S
H3889 C3881 0.960 . S
H3890 C3882 0.930 . S
H3891 C3883 0.929 . S
H3892 C3900 0.929 . S
H3893 C3902 0.930 . S
H3894 C3904 0.930 . S
H3895 C3907 0.929 . S
H3896 C3910 0.930 . S
H3897 C3912 0.960 . S
H3898 C3912 0.960 . S
H3899 C3912 0.960 . S
C3900 H3892 0.929 . S
C3900 C3901 1.377 . S
C3900 C3902 1.384 . S
C3901 C3900 1.377 . S
C3901 C3907 1.390 . S
C3902 H3893 0.930 . S
C3902 C3900 1.384 . S
C3902 C3903 1.372 . S
C3903 C3902 1.372 . S
C3903 C3904 1.400 . S
C3903 C3908 1.490 . S
C3904 H3894 0.930 . S
C3904 C3903 1.400 . S
C3904 C3907 1.386 . S
H3905 C3921 0.930 . S
H3906 C3922 0.931 . S
C3907 H3895 0.929 . S
C3907 C3901 1.390 . S
C3907 C3904 1.386 . S
C3908 C3903 1.490 . S
C3908 C3910 1.395 . S
C3908 C3911 1.403 . S
H3909 C3915 0.930 . S
C3910 H3896 0.930 . S
C3910 C3908 1.395 . S
C3910 C3913 1.403 . S
C3911 C3908 1.403 . S
C3911 C3912 1.524 . S
C3911 C3915 1.400 . S
C3912 H3897 0.960 . S
C3912 H3898 0.960 . S
C3912 H3899 0.960 . S
C3912 C3911 1.524 . S
C3913 C3910 1.403 . S
C3913 C3914 1.392 . S
C3913 C3917 1.495 . S
C3914 C3913 1.392 . S
C3914 C3915 1.385 . S
C3914 C3916 1.478 . S
C3915 H3909 0.930 . S
C3915 C3911 1.400 . S
C3915 C3914 1.385 . S
C3916 C3914 1.478 . S
C3916 C3918 1.381 . S
C3916 C3922 1.383 . S
C3917 C3913 1.495 . S
C3917 H3923 0.959 . S
C3917 H3924 0.961 . S
C3917 H3925 0.960 . S
C3918 C3916 1.381 . S
C3918 C3919 1.394 . S
C3918 H3926 0.930 . S
C3919 C3918 1.394 . S
C3919 C3920 1.383 . S
C3919 H3927 0.929 . S
C3920 C3919 1.383 . S
C3920 C3921 1.377 . S
C3921 H3905 0.930 . S
C3921 C3920 1.377 . S
C3921 C3922 1.379 . S
C3922 H3906 0.931 . S
C3922 C3916 1.383 . S
C3922 C3921 1.379 . S
H3923 C3917 0.959 . S
H3924 C3917 0.961 . S
H3925 C3917 0.960 . S
H3926 C3918 0.930 . S
H3927 C3919 0.929 . S
H3928 C3936 0.929 . S
H3929 C3938 0.930 . S
H3930 C3940 0.930 . S
H3931 C3943 0.929 . S
H3932 C3946 0.930 . S
H3933 C3948 0.960 . S
H3934 C3948 0.960 . S
H3935 C3948 0.960 . S
C3936 H3928 0.929 . S
C3936 C3937 1.377 . S
C3936 C3938 1.384 . S
C3937 C3936 1.377 . S
C3937 C3943 1.390 . S
C3938 H3929 0.930 . S
C3938 C3936 1.384 . S
C3938 C3939 1.372 . S
C3939 C3938 1.372 . S
C3939 C3940 1.400 . S
C3939 C3944 1.490 . S
C3940 H3930 0.930 . S
C3940 C3939 1.400 . S
C3940 C3943 1.386 . S
H3941 C3957 0.924 1_655 S
H3942 C3958 0.931 . S
C3943 H3931 0.929 . S
C3943 C3937 1.390 . S
C3943 C3940 1.386 . S
C3944 C3939 1.490 . S
C3944 C3946 1.395 . S
C3944 C3947 1.403 . S
H3945 C3951 0.930 . S
C3946 H3932 0.930 . S
C3946 C3944 1.395 . S
C3946 C3949 1.403 . S
C3947 C3944 1.403 . S
C3947 C3948 1.524 . S
C3947 C3951 1.400 . S
C3948 H3933 0.960 . S
C3948 H3934 0.960 . S
C3948 H3935 0.960 . S
C3948 C3947 1.524 . S
C3949 C3946 1.403 . S
C3949 C3950 1.392 . S
C3949 C3953 1.495 . S
C3950 C3949 1.392 . S
C3950 C3951 1.385 . S
C3950 C3952 1.500 . S
C3951 H3945 0.930 . S
C3951 C3947 1.400 . S
C3951 C3950 1.385 . S
C3952 C3950 1.500 . S
C3952 C3954 1.348 1_655 S
C3952 C3958 1.392 . S
C3953 C3949 1.495 . S
C3953 H3959 0.959 . S
C3953 H3960 0.961 . S
C3953 H3961 0.960 . S
C3954 C3952 1.348 1_455 S
C3954 C3955 1.394 . S
C3954 H3962 0.930 . S
C3955 C3954 1.394 . S
C3955 C3956 1.383 . S
C3955 H3963 0.929 . S
C3956 C3955 1.383 . S
C3956 C3957 1.377 . S
C3957 H3941 0.924 1_455 S
C3957 C3956 1.377 . S
C3957 C3958 1.379 1_455 S
C3958 H3942 0.931 . S
C3958 C3952 1.392 . S
C3958 C3957 1.379 1_655 S
H3959 C3953 0.959 . S
H3960 C3953 0.961 . S
H3961 C3953 0.960 . S
H3962 C3954 0.930 . S
H3963 C3955 0.929 . S
H3964 C3972 0.929 . S
H3965 C3974 0.930 . S
H3966 C3976 0.930 . S
H3967 C3979 0.929 . S
H3968 C3982 0.930 . S
H3969 C3984 0.960 . S
H3970 C3984 0.960 . S
H3971 C3984 0.960 . S
C3972 H3964 0.929 . S
C3972 C3973 1.377 . S
C3972 C3974 1.384 . S
C3973 C3972 1.377 . S
C3973 C3979 1.390 . S
C3974 H3965 0.930 . S
C3974 C3972 1.384 . S
C3974 C3975 1.372 . S
C3975 C3974 1.372 . S
C3975 C3976 1.400 . S
C3975 C3980 1.490 . S
C3976 H3966 0.930 . S
C3976 C3975 1.400 . S
C3976 C3979 1.386 . S
H3977 C3993 0.930 . S
H3978 C3994 0.931 . S
C3979 H3967 0.929 . S
C3979 C3973 1.390 . S
C3979 C3976 1.386 . S
C3980 C3975 1.490 . S
C3980 C3982 1.395 . S
C3980 C3983 1.403 . S
H3981 C3987 0.930 . S
C3982 H3968 0.930 . S
C3982 C3980 1.395 . S
C3982 C3985 1.403 . S
C3983 C3980 1.403 . S
C3983 C3984 1.524 . S
C3983 C3987 1.400 . S
C3984 H3969 0.960 . S
C3984 H3970 0.960 . S
C3984 H3971 0.960 . S
C3984 C3983 1.524 . S
C3985 C3982 1.403 . S
C3985 C3986 1.392 . S
C3985 C3989 1.495 . S
C3986 C3985 1.392 . S
C3986 C3987 1.385 . S
C3986 C3988 1.478 . S
C3987 H3981 0.930 . S
C3987 C3983 1.400 . S
C3987 C3986 1.385 . S
C3988 C3986 1.478 . S
C3988 C3990 1.381 . S
C3988 C3994 1.383 . S
C3989 C3985 1.495 . S
C3989 H3995 0.959 . S
C3989 H3996 0.961 . S
C3989 H3997 0.960 . S
C3990 C3988 1.381 . S
C3990 C3991 1.394 . S
C3990 H3998 0.930 . S
C3991 C3990 1.394 . S
C3991 C3992 1.383 . S
C3991 H3999 0.929 . S
C3992 C3991 1.383 . S
C3992 C3993 1.377 . S
C3993 H3977 0.930 . S
C3993 C3992 1.377 . S
C3993 C3994 1.379 . S
C3994 H3978 0.931 . S
C3994 C3988 1.383 . S
C3994 C3993 1.379 . S
H3995 C3989 0.959 . S
H3996 C3989 0.961 . S
H3997 C3989 0.960 . S
H3998 C3990 0.930 . S
H3999 C3991 0.929 . S
H4000 C4008 0.929 . S
H4001 C4010 0.930 . S
H4002 C4012 0.930 . S
H4003 C4015 0.929 . S
H4004 C4018 0.930 . S
H4005 C4020 0.960 . S
H4006 C4020 0.960 . S
H4007 C4020 0.960 . S
C4008 H4000 0.929 . S
C4008 C4009 1.377 . S
C4008 C4010 1.384 . S
C4009 C4008 1.377 . S
C4009 C4015 1.390 . S
C4010 H4001 0.930 . S
C4010 C4008 1.384 . S
C4010 C4011 1.372 . S
C4011 C4010 1.372 . S
C4011 C4012 1.400 . S
C4011 C4016 1.490 . S
C4012 H4002 0.930 . S
C4012 C4011 1.400 . S
C4012 C4015 1.386 . S
H4013 C4029 0.930 . S
H4014 C4030 0.931 . S
C4015 H4003 0.929 . S
C4015 C4009 1.390 . S
C4015 C4012 1.386 . S
C4016 C4011 1.490 . S
C4016 C4018 1.395 . S
C4016 C4019 1.403 . S
H4017 C4023 0.930 . S
C4018 H4004 0.930 . S
C4018 C4016 1.395 . S
C4018 C4021 1.403 . S
C4019 C4016 1.403 . S
C4019 C4020 1.524 . S
C4019 C4023 1.400 . S
C4020 H4005 0.960 . S
C4020 H4006 0.960 . S
C4020 H4007 0.960 . S
C4020 C4019 1.524 . S
C4021 C4018 1.403 . S
C4021 C4022 1.392 . S
C4021 C4025 1.495 . S
C4022 C4021 1.392 . S
C4022 C4023 1.385 . S
C4022 C4024 1.478 . S
C4023 H4017 0.930 . S
C4023 C4019 1.400 . S
C4023 C4022 1.385 . S
C4024 C4022 1.478 . S
C4024 C4026 1.381 . S
C4024 C4030 1.383 . S
C4025 C4021 1.495 . S
C4025 H4031 0.959 . S
C4025 H4032 0.961 . S
C4025 H4033 0.960 . S
C4026 C4024 1.381 . S
C4026 C4027 1.394 . S
C4026 H4034 0.930 . S
C4027 C4026 1.394 . S
C4027 C4028 1.383 . S
C4027 H4035 0.929 . S
C4028 C4027 1.383 . S
C4028 C4029 1.377 . S
C4029 H4013 0.930 . S
C4029 C4028 1.377 . S
C4029 C4030 1.379 . S
C4030 H4014 0.931 . S
C4030 C4024 1.383 . S
C4030 C4029 1.379 . S
H4031 C4025 0.959 . S
H4032 C4025 0.961 . S
H4033 C4025 0.960 . S
H4034 C4026 0.930 . S
H4035 C4027 0.929 . S
H4036 C4044 0.929 . S
H4037 C4046 0.930 . S
H4038 C4048 0.930 . S
H4039 C4051 0.929 . S
H4040 C4054 0.930 . S
H4041 C4056 0.960 . S
H4042 C4056 0.960 . S
H4043 C4056 0.960 . S
C4044 H4036 0.929 . S
C4044 C4045 1.377 . S
C4044 C4046 1.384 . S
C4045 C4044 1.377 . S
C4045 C4051 1.390 . S
C4046 H4037 0.930 . S
C4046 C4044 1.384 . S
C4046 C4047 1.372 . S
C4047 C4046 1.372 . S
C4047 C4048 1.400 . S
C4047 C4052 1.490 . S
C4048 H4038 0.930 . S
C4048 C4047 1.400 . S
C4048 C4051 1.386 . S
H4049 C4065 0.930 . S
H4050 C4066 0.931 . S
C4051 H4039 0.929 . S
C4051 C4045 1.390 . S
C4051 C4048 1.386 . S
C4052 C4047 1.490 . S
C4052 C4054 1.395 . S
C4052 C4055 1.403 . S
H4053 C4059 0.930 . S
C4054 H4040 0.930 . S
C4054 C4052 1.395 . S
C4054 C4057 1.403 . S
C4055 C4052 1.403 . S
C4055 C4056 1.524 . S
C4055 C4059 1.400 . S
C4056 H4041 0.960 . S
C4056 H4042 0.960 . S
C4056 H4043 0.960 . S
C4056 C4055 1.524 . S
C4057 C4054 1.403 . S
C4057 C4058 1.392 . S
C4057 C4061 1.495 . S
C4058 C4057 1.392 . S
C4058 C4059 1.385 . S
C4058 C4060 1.478 . S
C4059 H4053 0.930 . S
C4059 C4055 1.400 . S
C4059 C4058 1.385 . S
C4060 C4058 1.478 . S
C4060 C4062 1.381 . S
C4060 C4066 1.383 . S
C4061 C4057 1.495 . S
C4061 H4067 0.959 . S
C4061 H4068 0.961 . S
C4061 H4069 0.960 . S
C4062 C4060 1.381 . S
C4062 C4063 1.394 . S
C4062 H4070 0.930 . S
C4063 C4062 1.394 . S
C4063 C4064 1.383 . S
C4063 H4071 0.929 . S
C4064 C4063 1.383 . S
C4064 C4065 1.377 . S
C4065 H4049 0.930 . S
C4065 C4064 1.377 . S
C4065 C4066 1.379 . S
C4066 H4050 0.931 . S
C4066 C4060 1.383 . S
C4066 C4065 1.379 . S
H4067 C4061 0.959 . S
H4068 C4061 0.961 . S
H4069 C4061 0.960 . S
H4070 C4062 0.930 . S
H4071 C4063 0.929 . S
H4072 C4080 0.929 . S
H4073 C4082 0.930 . S
H4074 C4084 0.930 . S
H4075 C4087 0.929 . S
H4076 C4090 0.930 . S
H4077 C4092 0.960 . S
H4078 C4092 0.960 . S
H4079 C4092 0.960 . S
C4080 H4072 0.929 . S
C4080 C4081 1.377 . S
C4080 C4082 1.384 . S
C4081 C4080 1.377 . S
C4081 C4087 1.390 . S
C4082 H4073 0.930 . S
C4082 C4080 1.384 . S
C4082 C4083 1.372 . S
C4083 C4082 1.372 . S
C4083 C4084 1.400 . S
C4083 C4088 1.490 . S
C4084 H4074 0.930 . S
C4084 C4083 1.400 . S
C4084 C4087 1.386 . S
H4085 C4101 0.930 1_455 S
H4086 C4102 0.931 . S
C4087 H4075 0.929 . S
C4087 C4081 1.390 . S
C4087 C4084 1.386 . S
C4088 C4083 1.490 . S
C4088 C4090 1.395 . S
C4088 C4091 1.403 . S
H4089 C4095 0.930 . S
C4090 H4076 0.930 . S
C4090 C4088 1.395 . S
C4090 C4093 1.403 . S
C4091 C4088 1.403 . S
C4091 C4092 1.524 . S
C4091 C4095 1.400 . S
C4092 H4077 0.960 . S
C4092 H4078 0.960 . S
C4092 H4079 0.960 . S
C4092 C4091 1.524 . S
C4093 C4090 1.403 . S
C4093 C4094 1.392 . S
C4093 C4097 1.495 . S
C4094 C4093 1.392 . S
C4094 C4095 1.385 . S
C4094 C4096 1.478 . S
C4095 H4089 0.930 . S
C4095 C4091 1.400 . S
C4095 C4094 1.385 . S
C4096 C4094 1.478 . S
C4096 C4098 1.381 . S
C4096 C4102 1.383 . S
C4097 C4093 1.495 . S
C4097 H4103 0.959 . S
C4097 H4104 0.961 . S
C4097 H4105 0.960 . S
C4098 C4096 1.381 . S
C4098 C4099 1.394 . S
C4098 H4106 0.930 . S
C4099 C4098 1.394 . S
C4099 C4100 1.383 . S
C4099 H4107 0.929 . S
C4100 C4099 1.383 . S
C4100 C4101 1.377 . S
C4101 H4085 0.930 1_655 S
C4101 C4100 1.377 . S
C4101 C4102 1.379 . S
C4102 H4086 0.931 . S
C4102 C4096 1.383 . S
C4102 C4101 1.379 . S
H4103 C4097 0.959 . S
H4104 C4097 0.961 . S
H4105 C4097 0.960 . S
H4106 C4098 0.930 . S
H4107 C4099 0.929 . S
H4108 C4116 0.929 . S
H4109 C4118 0.930 . S
H4110 C4120 0.930 . S
H4111 C4123 0.929 . S
H4112 C4126 0.930 . S
H4113 C4128 0.960 . S
H4114 C4128 0.960 . S
H4115 C4128 0.960 . S
C4116 H4108 0.929 . S
C4116 C4117 1.377 . S
C4116 C4118 1.384 . S
C4117 C4116 1.377 . S
C4117 C4123 1.390 . S
C4118 H4109 0.930 . S
C4118 C4116 1.384 . S
C4118 C4119 1.372 . S
C4119 C4118 1.372 . S
C4119 C4120 1.400 . S
C4119 C4124 1.490 . S
C4120 H4110 0.930 . S
C4120 C4119 1.400 . S
C4120 C4123 1.386 . S
H4121 C4137 0.930 . S
H4122 C4138 0.931 . S
C4123 H4111 0.929 . S
C4123 C4117 1.390 . S
C4123 C4120 1.386 . S
C4124 C4119 1.490 . S
C4124 C4126 1.395 . S
C4124 C4127 1.403 . S
H4125 C4131 0.930 . S
C4126 H4112 0.930 . S
C4126 C4124 1.395 . S
C4126 C4129 1.403 . S
C4127 C4124 1.403 . S
C4127 C4128 1.524 . S
C4127 C4131 1.400 . S
C4128 H4113 0.960 . S
C4128 H4114 0.960 . S
C4128 H4115 0.960 . S
C4128 C4127 1.524 . S
C4129 C4126 1.403 . S
C4129 C4130 1.392 . S
C4129 C4133 1.495 . S
C4130 C4129 1.392 . S
C4130 C4131 1.385 . S
C4130 C4132 1.478 . S
C4131 H4125 0.930 . S
C4131 C4127 1.400 . S
C4131 C4130 1.385 . S
C4132 C4130 1.478 . S
C4132 C4134 1.381 . S
C4132 C4138 1.383 . S
C4133 C4129 1.495 . S
C4133 H4139 0.959 . S
C4133 H4140 0.961 . S
C4133 H4141 0.960 . S
C4134 C4132 1.381 . S
C4134 C4135 1.394 . S
C4134 H4142 0.930 . S
C4135 C4134 1.394 . S
C4135 C4136 1.383 . S
C4135 H4143 0.929 . S
C4136 C4135 1.383 . S
C4136 C4137 1.377 . S
C4137 H4121 0.930 . S
C4137 C4136 1.377 . S
C4137 C4138 1.379 . S
C4138 H4122 0.931 . S
C4138 C4132 1.383 . S
C4138 C4137 1.379 . S
H4139 C4133 0.959 . S
H4140 C4133 0.961 . S
H4141 C4133 0.960 . S
H4142 C4134 0.930 . S
H4143 C4135 0.929 . S
H4144 C4152 0.929 . S
H4145 C4154 0.930 . S
H4146 C4156 0.930 . S
H4147 C4159 0.929 . S
H4148 C4162 0.930 . S
H4149 C4164 0.960 . S
H4150 C4164 0.960 . S
H4151 C4164 0.960 . S
C4152 H4144 0.929 . S
C4152 C4153 1.377 . S
C4152 C4154 1.384 . S
C4153 C4152 1.377 . S
C4153 C4159 1.390 . S
C4154 H4145 0.930 . S
C4154 C4152 1.384 . S
C4154 C4155 1.372 . S
C4155 C4154 1.372 . S
C4155 C4156 1.400 . S
C4155 C4160 1.490 . S
C4156 H4146 0.930 . S
C4156 C4155 1.400 . S
C4156 C4159 1.386 . S
H4157 C4173 0.930 . S
H4158 C4174 0.931 . S
C4159 H4147 0.929 . S
C4159 C4153 1.390 . S
C4159 C4156 1.386 . S
C4160 C4155 1.490 . S
C4160 C4162 1.395 . S
C4160 C4163 1.403 . S
H4161 C4167 0.930 . S
C4162 H4148 0.930 . S
C4162 C4160 1.395 . S
C4162 C4165 1.403 . S
C4163 C4160 1.403 . S
C4163 C4164 1.524 . S
C4163 C4167 1.400 . S
C4164 H4149 0.960 . S
C4164 H4150 0.960 . S
C4164 H4151 0.960 . S
C4164 C4163 1.524 . S
C4165 C4162 1.403 . S
C4165 C4166 1.392 . S
C4165 C4169 1.495 . S
C4166 C4165 1.392 . S
C4166 C4167 1.385 . S
C4166 C4168 1.478 . S
C4167 H4161 0.930 . S
C4167 C4163 1.400 . S
C4167 C4166 1.385 . S
C4168 C4166 1.478 . S
C4168 C4170 1.381 . S
C4168 C4174 1.383 . S
C4169 C4165 1.495 . S
C4169 H4175 0.959 . S
C4169 H4176 0.961 . S
C4169 H4177 0.960 . S
C4170 C4168 1.381 . S
C4170 C4171 1.394 . S
C4170 H4178 0.930 . S
C4171 C4170 1.394 . S
C4171 C4172 1.383 . S
C4171 H4179 0.929 . S
C4172 C4171 1.383 . S
C4172 C4173 1.377 . S
C4173 H4157 0.930 . S
C4173 C4172 1.377 . S
C4173 C4174 1.379 . S
C4174 H4158 0.931 . S
C4174 C4168 1.383 . S
C4174 C4173 1.379 . S
H4175 C4169 0.959 . S
H4176 C4169 0.961 . S
H4177 C4169 0.960 . S
H4178 C4170 0.930 . S
H4179 C4171 0.929 . S
H4180 C4188 0.929 . S
H4181 C4190 0.930 . S
H4182 C4192 0.930 . S
H4183 C4195 0.929 . S
H4184 C4198 0.930 . S
H4185 C4200 0.960 . S
H4186 C4200 0.960 . S
H4187 C4200 0.960 . S
C4188 H4180 0.929 . S
C4188 C4189 1.377 . S
C4188 C4190 1.384 . S
C4189 C4188 1.377 . S
C4189 C4195 1.390 . S
C4190 H4181 0.930 . S
C4190 C4188 1.384 . S
C4190 C4191 1.372 . S
C4191 C4190 1.372 . S
C4191 C4192 1.400 . S
C4191 C4196 1.490 . S
C4192 H4182 0.930 . S
C4192 C4191 1.400 . S
C4192 C4195 1.386 . S
H4193 C4209 0.930 . S
H4194 C4210 0.931 1_545 S
C4195 H4183 0.929 . S
C4195 C4189 1.390 . S
C4195 C4192 1.386 . S
C4196 C4191 1.490 . S
C4196 C4198 1.395 . S
C4196 C4199 1.403 . S
H4197 C4203 0.930 . S
C4198 H4184 0.930 . S
C4198 C4196 1.395 . S
C4198 C4201 1.403 . S
C4199 C4196 1.403 . S
C4199 C4200 1.524 . S
C4199 C4203 1.400 . S
C4200 H4185 0.960 . S
C4200 H4186 0.960 . S
C4200 H4187 0.960 . S
C4200 C4199 1.524 . S
C4201 C4198 1.403 . S
C4201 C4202 1.392 . S
C4201 C4205 1.495 . S
C4202 C4201 1.392 . S
C4202 C4203 1.385 . S
C4202 C4204 1.478 . S
C4203 H4197 0.930 . S
C4203 C4199 1.400 . S
C4203 C4202 1.385 . S
C4204 C4202 1.478 . S
C4204 C4206 1.381 . S
C4204 C4210 1.383 . S
C4205 C4201 1.495 . S
C4205 H4211 0.959 . S
C4205 H4212 0.961 . S
C4205 H4213 0.960 . S
C4206 C4204 1.381 . S
C4206 C4207 1.394 . S
C4206 H4214 0.930 . S
C4207 C4206 1.394 . S
C4207 C4208 1.383 1_565 S
C4207 H4215 0.929 . S
C4208 C4207 1.383 1_545 S
C4208 C4209 1.377 . S
C4209 H4193 0.930 . S
C4209 C4208 1.377 . S
C4209 C4210 1.379 1_545 S
C4210 H4194 0.931 1_565 S
C4210 C4204 1.383 . S
C4210 C4209 1.379 1_565 S
H4211 C4205 0.959 . S
H4212 C4205 0.961 . S
H4213 C4205 0.960 . S
H4214 C4206 0.930 . S
H4215 C4207 0.929 . S
H4216 C4224 0.929 . S
H4217 C4226 0.930 . S
H4218 C4228 0.930 . S
H4219 C4231 0.929 . S
H4220 C4234 0.930 . S
H4221 C4236 0.960 . S
H4222 C4236 0.960 . S
H4223 C4236 0.960 . S
C4224 H4216 0.929 . S
C4224 C4225 1.377 . S
C4224 C4226 1.384 . S
C4225 C4224 1.377 . S
C4225 C4231 1.390 . S
C4226 H4217 0.930 . S
C4226 C4224 1.384 . S
C4226 C4227 1.372 . S
C4227 C4226 1.372 . S
C4227 C4228 1.400 . S
C4227 C4232 1.490 . S
C4228 H4218 0.930 . S
C4228 C4227 1.400 . S
C4228 C4231 1.386 . S
H4229 C4245 0.930 . S
H4230 C4246 0.931 . S
C4231 H4219 0.929 . S
C4231 C4225 1.390 . S
C4231 C4228 1.386 . S
C4232 C4227 1.490 . S
C4232 C4234 1.395 . S
C4232 C4235 1.403 . S
H4233 C4239 0.930 . S
C4234 H4220 0.930 . S
C4234 C4232 1.395 . S
C4234 C4237 1.403 . S
C4235 C4232 1.403 . S
C4235 C4236 1.524 . S
C4235 C4239 1.400 . S
C4236 H4221 0.960 . S
C4236 H4222 0.960 . S
C4236 H4223 0.960 . S
C4236 C4235 1.524 . S
C4237 C4234 1.403 . S
C4237 C4238 1.392 . S
C4237 C4241 1.495 . S
C4238 C4237 1.392 . S
C4238 C4239 1.385 . S
C4238 C4240 1.478 . S
C4239 H4233 0.930 . S
C4239 C4235 1.400 . S
C4239 C4238 1.385 . S
C4240 C4238 1.478 . S
C4240 C4242 1.381 . S
C4240 C4246 1.383 . S
C4241 C4237 1.495 . S
C4241 H4247 0.959 . S
C4241 H4248 0.961 . S
C4241 H4249 0.960 . S
C4242 C4240 1.381 . S
C4242 C4243 1.394 . S
C4242 H4250 0.930 . S
C4243 C4242 1.394 . S
C4243 C4244 1.383 . S
C4243 H4251 0.929 . S
C4244 C4243 1.383 . S
C4244 C4245 1.377 . S
C4245 H4229 0.930 . S
C4245 C4244 1.377 . S
C4245 C4246 1.379 . S
C4246 H4230 0.931 . S
C4246 C4240 1.383 . S
C4246 C4245 1.379 . S
H4247 C4241 0.959 . S
H4248 C4241 0.961 . S
H4249 C4241 0.960 . S
H4250 C4242 0.930 . S
H4251 C4243 0.929 . S
H4252 C4260 0.929 . S
H4253 C4262 0.930 . S
H4254 C4264 0.930 . S
H4255 C4267 0.929 . S
H4256 C4270 0.930 . S
H4257 C4272 0.960 . S
H4258 C4272 0.960 . S
H4259 C4272 0.960 . S
C4260 H4252 0.929 . S
C4260 C4261 1.377 . S
C4260 C4262 1.384 . S
C4261 C4260 1.377 . S
C4261 C4267 1.390 1_554 S
C4262 H4253 0.930 . S
C4262 C4260 1.384 . S
C4262 C4263 1.372 . S
C4263 C4262 1.372 . S
C4263 C4264 1.400 1_554 S
C4263 C4268 1.490 . S
C4264 H4254 0.930 . S
C4264 C4263 1.400 1_556 S
C4264 C4267 1.386 . S
H4265 C4281 0.930 . S
H4266 C4282 0.931 . S
C4267 H4255 0.929 . S
C4267 C4261 1.390 1_556 S
C4267 C4264 1.386 . S
C4268 C4263 1.490 . S
C4268 C4270 1.395 1_554 S
C4268 C4271 1.403 . S
H4269 C4275 0.930 . S
C4270 H4256 0.930 . S
C4270 C4268 1.395 1_556 S
C4270 C4273 1.403 . S
C4271 C4268 1.403 . S
C4271 C4272 1.524 . S
C4271 C4275 1.400 . S
C4272 H4257 0.960 . S
C4272 H4258 0.960 . S
C4272 H4259 0.960 . S
C4272 C4271 1.524 . S
C4273 C4270 1.403 . S
C4273 C4274 1.392 1_556 S
C4273 C4277 1.495 . S
C4274 C4273 1.392 1_554 S
C4274 C4275 1.385 . S
C4274 C4276 1.478 . S
C4275 H4269 0.930 . S
C4275 C4271 1.400 . S
C4275 C4274 1.385 . S
C4276 C4274 1.478 . S
C4276 C4278 1.381 . S
C4276 C4282 1.383 1_554 S
C4277 C4273 1.495 . S
C4277 H4283 0.959 . S
C4277 H4284 0.961 . S
C4277 H4285 0.960 . S
C4278 C4276 1.381 . S
C4278 C4279 1.394 . S
C4278 H4286 0.930 . S
C4279 C4278 1.394 . S
C4279 C4280 1.383 . S
C4279 H4287 0.929 . S
C4280 C4279 1.383 . S
C4280 C4281 1.377 1_554 S
C4281 H4265 0.930 . S
C4281 C4280 1.377 1_556 S
C4281 C4282 1.379 . S
C4282 H4266 0.931 . S
C4282 C4276 1.383 1_556 S
C4282 C4281 1.379 . S
H4283 C4277 0.959 . S
H4284 C4277 0.961 . S
H4285 C4277 0.960 . S
H4286 C4278 0.930 . S
H4287 C4279 0.929 . S
H4288 C4296 0.929 . S
H4289 C4298 0.930 . S
H4290 C4300 0.930 . S
H4291 C4303 0.929 . S
H4292 C4306 0.930 . S
H4293 C4308 0.960 . S
H4294 C4308 0.960 . S
H4295 C4308 0.960 . S
C4296 H4288 0.929 . S
C4296 C4297 1.377 . S
C4296 C4298 1.384 . S
C4297 C4296 1.377 . S
C4297 C4303 1.390 . S
C4298 H4289 0.930 . S
C4298 C4296 1.384 . S
C4298 C4299 1.372 . S
C4299 C4298 1.372 . S
C4299 C4300 1.400 . S
C4299 C4304 1.490 . S
C4300 H4290 0.930 . S
C4300 C4299 1.400 . S
C4300 C4303 1.386 . S
H4301 C4317 0.930 . S
H4302 C4318 0.931 . S
C4303 H4291 0.929 . S
C4303 C4297 1.390 . S
C4303 C4300 1.386 . S
C4304 C4299 1.490 . S
C4304 C4306 1.395 . S
C4304 C4307 1.403 . S
H4305 C4311 0.930 . S
C4306 H4292 0.930 . S
C4306 C4304 1.395 . S
C4306 C4309 1.403 . S
C4307 C4304 1.403 . S
C4307 C4308 1.524 . S
C4307 C4311 1.400 . S
C4308 H4293 0.960 . S
C4308 H4294 0.960 . S
C4308 H4295 0.960 . S
C4308 C4307 1.524 . S
C4309 C4306 1.403 . S
C4309 C4310 1.392 . S
C4309 C4313 1.495 . S
C4310 C4309 1.392 . S
C4310 C4311 1.385 . S
C4310 C4312 1.478 . S
C4311 H4305 0.930 . S
C4311 C4307 1.400 . S
C4311 C4310 1.385 . S
C4312 C4310 1.478 . S
C4312 C4314 1.381 . S
C4312 C4318 1.383 . S
C4313 C4309 1.495 . S
C4313 H4319 0.959 . S
C4313 H4320 0.961 . S
C4313 H4321 0.960 . S
C4314 C4312 1.381 . S
C4314 C4315 1.394 . S
C4314 H4322 0.930 . S
C4315 C4314 1.394 . S
C4315 C4316 1.383 . S
C4315 H4323 0.929 . S
C4316 C4315 1.383 . S
C4316 C4317 1.377 . S
C4317 H4301 0.930 . S
C4317 C4316 1.377 . S
C4317 C4318 1.379 . S
C4318 H4302 0.931 . S
C4318 C4312 1.383 . S
C4318 C4317 1.379 . S
H4319 C4313 0.959 . S
H4320 C4313 0.961 . S
H4321 C4313 0.960 . S
H4322 C4314 0.930 . S
H4323 C4315 0.929 . S
H4324 C4332 0.929 . S
H4325 C4334 0.930 . S
H4326 C4336 0.930 1_556 S
H4327 C4339 0.929 . S
H4328 C4342 0.930 . S
H4329 C4344 0.960 . S
H4330 C4344 0.960 . S
H4331 C4344 0.960 . S
C4332 H4324 0.929 . S
C4332 C4333 1.377 . S
C4332 C4334 1.384 . S
C4333 C4332 1.377 . S
C4333 C4339 1.390 . S
C4334 H4325 0.930 . S
C4334 C4332 1.384 . S
C4334 C4335 1.372 . S
C4335 C4334 1.372 . S
C4335 C4336 1.400 . S
C4335 C4340 1.490 . S
C4336 H4326 0.930 1_554 S
C4336 C4335 1.400 . S
C4336 C4339 1.386 . S
H4337 C4353 0.930 . S
H4338 C4354 0.931 . S
C4339 H4327 0.929 . S
C4339 C4333 1.390 . S
C4339 C4336 1.386 . S
C4340 C4335 1.490 . S
C4340 C4342 1.395 . S
C4340 C4343 1.403 1_554 S
H4341 C4347 0.930 . S
C4342 H4328 0.930 . S
C4342 C4340 1.395 . S
C4342 C4345 1.403 . S
C4343 C4340 1.403 1_556 S
C4343 C4344 1.524 . S
C4343 C4347 1.400 . S
C4344 H4329 0.960 . S
C4344 H4330 0.960 . S
C4344 H4331 0.960 . S
C4344 C4343 1.524 . S
C4345 C4342 1.403 . S
C4345 C4346 1.392 . S
C4345 C4349 1.495 . S
C4346 C4345 1.392 . S
C4346 C4347 1.385 1_554 S
C4346 C4348 1.469 1_554 S
C4347 H4341 0.930 . S
C4347 C4343 1.400 . S
C4347 C4346 1.385 1_556 S
C4348 C4346 1.469 1_556 S
C4348 C4350 1.366 1_556 S
C4348 C4354 1.412 . S
C4349 C4345 1.495 . S
C4349 H4355 0.959 . S
C4349 H4356 0.961 . S
C4349 H4357 0.960 . S
C4350 C4348 1.366 1_554 S
C4350 C4351 1.394 1_554 S
C4350 H4358 0.930 . S
C4351 C4350 1.394 1_556 S
C4351 C4352 1.383 . S
C4351 H4359 0.929 . S
C4352 C4351 1.383 . S
C4352 C4353 1.377 . S
C4353 H4337 0.930 . S
C4353 C4352 1.377 . S
C4353 C4354 1.379 . S
C4354 H4338 0.931 . S
C4354 C4348 1.412 . S
C4354 C4353 1.379 . S
H4355 C4349 0.959 . S
H4356 C4349 0.961 . S
H4357 C4349 0.960 . S
H4358 C4350 0.930 . S
H4359 C4351 0.929 . S
H4360 C4368 0.929 1_545 S
H4361 C4370 0.930 . S
H4362 C4372 0.930 . S
H4363 C4375 0.929 . S
H4364 C4378 0.930 . S
H4365 C4380 0.960 . S
H4366 C4380 0.960 . S
H4367 C4380 0.960 . S
C4368 H4360 0.929 1_565 S
C4368 C4369 1.373 1_565 S
C4368 C4370 1.384 . S
C4369 C4368 1.373 1_545 S
C4369 C4375 1.385 1_545 S
C4370 H4361 0.930 . S
C4370 C4368 1.384 . S
C4370 C4371 1.372 . S
C4371 C4370 1.372 . S
C4371 C4372 1.400 . S
C4371 C4376 1.490 . S
C4372 H4362 0.930 . S
C4372 C4371 1.400 . S
C4372 C4375 1.386 . S
H4373 C4389 0.930 . S
H4374 C4390 0.931 . S
C4375 H4363 0.929 . S
C4375 C4369 1.385 1_565 S
C4375 C4372 1.386 . S
C4376 C4371 1.490 . S
C4376 C4378 1.395 . S
C4376 C4379 1.403 . S
H4377 C4383 0.930 . S
C4378 H4364 0.930 . S
C4378 C4376 1.395 . S
C4378 C4381 1.403 . S
C4379 C4376 1.403 . S
C4379 C4380 1.524 . S
C4379 C4383 1.400 . S
C4380 H4365 0.960 . S
C4380 H4366 0.960 . S
C4380 H4367 0.960 . S
C4380 C4379 1.524 . S
C4381 C4378 1.403 . S
C4381 C4382 1.392 . S
C4381 C4385 1.495 . S
C4382 C4381 1.392 . S
C4382 C4383 1.385 . S
C4382 C4384 1.478 . S
C4383 H4377 0.930 . S
C4383 C4379 1.400 . S
C4383 C4382 1.385 . S
C4384 C4382 1.478 . S
C4384 C4386 1.381 . S
C4384 C4390 1.383 . S
C4385 C4381 1.495 . S
C4385 H4391 0.959 . S
C4385 H4392 0.961 . S
C4385 H4393 0.960 . S
C4386 C4384 1.381 . S
C4386 C4387 1.394 . S
C4386 H4394 0.930 . S
C4387 C4386 1.394 . S
C4387 C4388 1.383 . S
C4387 H4395 0.929 . S
C4388 C4387 1.383 . S
C4388 C4389 1.377 . S
C4389 H4373 0.930 . S
C4389 C4388 1.377 . S
C4389 C4390 1.379 . S
C4390 H4374 0.931 . S
C4390 C4384 1.383 . S
C4390 C4389 1.379 . S
H4391 C4385 0.959 . S
H4392 C4385 0.961 . S
H4393 C4385 0.960 . S
H4394 C4386 0.930 . S
H4395 C4387 0.929 . S
H4396 C4404 0.929 . S
H4397 C4406 0.930 . S
H4398 C4408 0.930 . S
H4399 C4411 0.929 . S
H4400 C4414 0.930 . S
H4401 C4416 0.960 . S
H4402 C4416 0.960 . S
H4403 C4416 0.960 . S
C4404 H4396 0.929 . S
C4404 C4405 1.377 . S
C4404 C4406 1.384 . S
C4405 C4404 1.377 . S
C4405 C4411 1.390 . S
C4406 H4397 0.930 . S
C4406 C4404 1.384 . S
C4406 C4407 1.372 . S
C4407 C4406 1.372 . S
C4407 C4408 1.400 . S
C4407 C4412 1.490 . S
C4408 H4398 0.930 . S
C4408 C4407 1.400 . S
C4408 C4411 1.386 . S
H4409 C4425 0.930 . S
H4410 C4426 0.931 . S
C4411 H4399 0.929 . S
C4411 C4405 1.390 . S
C4411 C4408 1.386 . S
C4412 C4407 1.490 . S
C4412 C4414 1.395 . S
C4412 C4415 1.403 . S
H4413 C4419 0.930 . S
C4414 H4400 0.930 . S
C4414 C4412 1.395 . S
C4414 C4417 1.403 . S
C4415 C4412 1.403 . S
C4415 C4416 1.524 . S
C4415 C4419 1.400 . S
C4416 H4401 0.960 . S
C4416 H4402 0.960 . S
C4416 H4403 0.960 . S
C4416 C4415 1.524 . S
C4417 C4414 1.403 . S
C4417 C4418 1.392 . S
C4417 C4421 1.495 . S
C4418 C4417 1.392 . S
C4418 C4419 1.385 . S
C4418 C4420 1.478 . S
C4419 H4413 0.930 . S
C4419 C4415 1.400 . S
C4419 C4418 1.385 . S
C4420 C4418 1.478 . S
C4420 C4422 1.381 . S
C4420 C4426 1.383 . S
C4421 C4417 1.495 . S
C4421 H4427 0.959 . S
C4421 H4428 0.961 . S
C4421 H4429 0.960 . S
C4422 C4420 1.381 . S
C4422 C4423 1.394 . S
C4422 H4430 0.930 . S
C4423 C4422 1.394 . S
C4423 C4424 1.383 . S
C4423 H4431 0.929 . S
C4424 C4423 1.383 . S
C4424 C4425 1.377 . S
C4425 H4409 0.930 . S
C4425 C4424 1.377 . S
C4425 C4426 1.379 . S
C4426 H4410 0.931 . S
C4426 C4420 1.383 . S
C4426 C4425 1.379 . S
H4427 C4421 0.959 . S
H4428 C4421 0.961 . S
H4429 C4421 0.960 . S
H4430 C4422 0.930 . S
H4431 C4423 0.929 . S
C985 C111 2.049 . S
C1004 C338 2.053 . S
C1021 C64 2.048 . S
C1040 C395 2.102 . S
C1057 C77 0.924 . S
C1076 C418 0.945 . S
C1112 C472 1.192 . S
C1093 C95 1.215 . S
C1129 C25 1.004 . S
C1148 C512 1.018 . S
C1184 C543 0.361 . S
C1165 C36 0.399 . S
C1220 C595 1.106 . S
C1201 C50 1.034 . S
C1237 C11 1.595 . S
C1256 C618 1.517 . S
C1292 C355 2.326 . S
C1273 C237 2.228 . S
C1309 C245 0.230 . S
C1328 C392 0.318 . S
C1364 C435 1.188 . S
C1345 C279 1.151 . S
C1400 C458 1.129 . S
C1381 C175 1.121 . S
C1417 C231 1.597 . S
C1436 C498 1.590 . S
C1472 C546 1.341 . S
C1453 C251 1.304 . S
C1508 C592 0.366 . S
C1489 C273 0.169 . S
C1544 C635 1.863 . S
C1525 C181 1.826 . S
C1580 C352 1.297 . S
C1561 C165 1.334 . S
C1597 C288 1.936 1_556 S
C1616 C675 2.002 . S
C1652 C707 2.518 . S
C1633 C333 2.562 . S
C1688 C738 0.434 . S
C1669 C316 0.449 . S
C1705 C123 1.151 . S
C1724 C632 1.140 . S
C1741 C137 1.386 . S
C1760 C432 1.358 . S
C1777 C330 2.238 . S
C1796 C795 2.291 . S
C1832 C818 0.355 . S
C1813 C302 0.400 . S
C1868 C347 2.184 . S
C1849 C63 2.220 . S
C1904 C826 2.148 . S
C1885 C106 2.156 . S
C1921 C97 1.035 . S
C1940 C427 1.061 . S
C1957 C81 1.297 . S
C1976 C783 1.293 . S
C2012 C503 1.088 . S
C1993 C13 1.061 . S
C2029 C55 0.471 . S
C2048 C712 0.271 . S
C2084 C586 1.130 1_565 S
C2065 C35 1.121 . S
C2120 C867 1.739 . S
C2101 C21 1.793 . S
C2156 C346 2.455 . S
C2137 C147 2.485 . S
C2192 C823 0.296 . S
C2173 C321 0.493 . S
C2209 C119 1.300 . S
C2228 C426 1.267 . S
C2245 C293 1.244 . S
C2264 C787 1.298 . S
C2281 C153 1.667 . S
C2300 C507 1.809 . S
C2336 C715 1.409 . S
C2317 C315 1.425 . S
C2353 C125 0.436 . S
C2372 C583 0.383 . S
C2389 C287 2.033 . S
C2408 C866 2.010 . S
C2425 C193 1.371 . S
C2444 C343 1.355 . S
C2461 C176 2.020 . S
C2480 C666 2.028 . S
C2497 C263 2.517 . S
C2516 C538 2.484 . S
C2533 C246 0.671 . S
C2552 C747 0.681 . S
C2588 C863 1.200 . S
C2569 C277 1.188 . S
C2605 C221 1.393 . S
C2624 C423 1.377 . S
C2660 C466 2.376 . S
C2641 C260 2.345 . S
C2696 C387 0.548 . S
C2677 C204 0.604 . S
C2713 C83 2.048 . S
C2732 C898 2.050 . S
C2768 C835 2.103 . S
C2749 C92 2.046 . S
C2785 C105 0.927 . S
C2804 C938 0.915 . S
C2821 C67 1.214 . S
C2840 C792 1.207 . S
C2857 C53 1.006 . S
C2876 C672 0.969 . S
C2912 C703 0.276 . S
C2893 C8 0.412 . S
C2948 C755 1.112 . S
C2929 C22 1.035 . S
C2984 C858 1.536 . S
C2965 C39 1.593 . S
C3020 C915 2.323 . S
C3001 C265 2.232 . S
C3037 C189 0.242 . S
C3056 C832 0.404 . S
C3092 C955 1.219 . S
C3073 C209 1.132 . S
C3128 C778 1.107 . S
C3109 C217 1.123 . S
C3164 C658 1.594 . S
C3145 C259 1.597 . S
C3181 C195 1.303 . S
C3200 C706 1.355 . S
C3236 C752 0.265 . S
C3217 C203 0.166 . S
C3253 C223 1.832 . S
C3272 C875 1.861 . S
C3308 C912 1.327 . S
C3289 C319 1.330 . S
C3325 C134 1.936 . S
C3344 C515 1.987 . S
C3380 C547 2.508 . S
C3361 C151 2.569 . S
C3416 C578 0.427 . S
C3397 C162 0.476 . S
C3452 C872 1.109 . S
C3433 C305 1.151 . S
C3469 C291 1.386 . S
C3488 C952 1.346 . S
C3524 C475 2.305 . S
C3505 C148 2.232 . S
C3560 C378 0.495 . S
C3541 C120 0.410 . S
C3577 C91 2.221 . S
C3596 C907 2.186 . S
C3632 C386 2.147 . S
C3613 C78 2.156 . S
C3649 C69 1.033 . S
C3668 C947 1.074 . S
C3685 C109 1.293 . S
C3704 C463 1.296 . S
C3721 C41 1.066 . S
C3740 C663 1.137 . S
C3776 C552 0.334 . S
C3757 C27 0.491 . S
C3793 C7 1.134 . S
C3812 C746 1.165 . S
C3829 C49 1.787 . S
C3848 C627 1.749 . S
C3884 C906 2.472 . S
C3865 C329 2.485 . S
C3901 C167 0.487 . S
C3920 C383 0.347 . S
C3956 C946 1.300 . S
C3937 C301 1.300 . S
C3973 C139 1.244 . S
C3992 C467 1.304 . S
C4009 C335 1.670 . S
C4028 C667 1.816 . S
C4064 C555 1.399 . S
C4045 C161 1.424 . S
C4081 C307 0.437 . S
C4100 C743 0.295 . S
C4136 C626 1.988 . S
C4117 C133 2.033 . S
C4172 C903 1.378 . S
C4153 C249 1.378 . S
C4208 C506 2.029 1_655 S
C4189 C218 2.016 . S
C4225 C235 2.518 . S
C4244 C698 2.475 . S
C4280 C587 0.666 . S
C4261 C190 0.676 . S
C4297 C207 1.178 . S
C4316 C623 1.141 . S
C4333 C179 1.395 . S
C4352 C943 1.368 . S
C4388 C786 2.356 . S
C4369 C232 2.353 . S
C4424 C827 0.619 . S
C4405 C274 0.592 . S
