# Generated by pormake.
# Topology ibd, (4,6)-cn, num edge types: 1
# Building blocks:
#     Node 0, Type 0, BuildingBlock: QUQFOY_clean_sbu_3, # of connection points: 4
#     Node 1, Type 0, BuildingBlock: QUQFOY_clean_sbu_3, # of connection points: 4
#     Node 2, Type 0, BuildingBlock: QUQFOY_clean_sbu_3, # of connection points: 4
#     Node 3, Type 0, BuildingBlock: QUQFOY_clean_sbu_3, # of connection points: 4
#     Node 4, Type 0, BuildingBlock: QUQFOY_clean_sbu_3, # of connection points: 4
#     Node 5, Type 0, BuildingBlock: QUQFOY_clean_sbu_3, # of connection points: 4
#     Node 6, Type 0, BuildingBlock: QUQFOY_clean_sbu_3, # of connection points: 4
#     Node 7, Type 0, BuildingBlock: QUQFOY_clean_sbu_3, # of connection points: 4
#     Node 8, Type 0, BuildingBlock: QUQFOY_clean_sbu_3, # of connection points: 4
#     Node 9, Type 0, BuildingBlock: QUQFOY_clean_sbu_3, # of connection points: 4
#     Node 10, Type 0, BuildingBlock: QUQFOY_clean_sbu_3, # of connection points: 4
#     Node 11, Type 0, BuildingBlock: QUQFOY_clean_sbu_3, # of connection points: 4
#     Node 12, Type 0, BuildingBlock: QUQFOY_clean_sbu_3, # of connection points: 4
#     Node 13, Type 0, BuildingBlock: QUQFOY_clean_sbu_3, # of connection points: 4
#     Node 14, Type 0, BuildingBlock: QUQFOY_clean_sbu_3, # of connection points: 4
#     Node 15, Type 0, BuildingBlock: QUQFOY_clean_sbu_3, # of connection points: 4
#     Node 16, Type 0, BuildingBlock: QUQFOY_clean_sbu_3, # of connection points: 4
#     Node 17, Type 0, BuildingBlock: QUQFOY_clean_sbu_3, # of connection points: 4
#     Node 18, Type 0, BuildingBlock: QUQFOY_clean_sbu_3, # of connection points: 4
#     Node 19, Type 0, BuildingBlock: QUQFOY_clean_sbu_3, # of connection points: 4
#     Node 20, Type 0, BuildingBlock: QUQFOY_clean_sbu_3, # of connection points: 4
#     Node 21, Type 0, BuildingBlock: QUQFOY_clean_sbu_3, # of connection points: 4
#     Node 22, Type 0, BuildingBlock: QUQFOY_clean_sbu_3, # of connection points: 4
#     Node 23, Type 0, BuildingBlock: QUQFOY_clean_sbu_3, # of connection points: 4
#     Node 24, Type 1, BuildingBlock: IZENUY_clean_sbu_0, # of connection points: 6
#     Node 25, Type 1, BuildingBlock: IZENUY_clean_sbu_0, # of connection points: 6
#     Node 26, Type 1, BuildingBlock: IZENUY_clean_sbu_0, # of connection points: 6
#     Node 27, Type 1, BuildingBlock: IZENUY_clean_sbu_0, # of connection points: 6
#     Node 28, Type 1, BuildingBlock: IZENUY_clean_sbu_0, # of connection points: 6
#     Node 29, Type 1, BuildingBlock: IZENUY_clean_sbu_0, # of connection points: 6
#     Node 30, Type 1, BuildingBlock: IZENUY_clean_sbu_0, # of connection points: 6
#     Node 31, Type 1, BuildingBlock: IZENUY_clean_sbu_0, # of connection points: 6
#     Node 32, Type 1, BuildingBlock: IZENUY_clean_sbu_0, # of connection points: 6
#     Node 33, Type 1, BuildingBlock: IZENUY_clean_sbu_0, # of connection points: 6
#     Node 34, Type 1, BuildingBlock: IZENUY_clean_sbu_0, # of connection points: 6
#     Node 35, Type 1, BuildingBlock: IZENUY_clean_sbu_0, # of connection points: 6
#     Node 36, Type 1, BuildingBlock: IZENUY_clean_sbu_0, # of connection points: 6
#     Node 37, Type 1, BuildingBlock: IZENUY_clean_sbu_0, # of connection points: 6
#     Node 38, Type 1, BuildingBlock: IZENUY_clean_sbu_0, # of connection points: 6
#     Node 39, Type 1, BuildingBlock: IZENUY_clean_sbu_0, # of connection points: 6
#     Edge 40, Type (0, 1), BuildingBlock: XUDNAN_clean_linker_2, # of connection points: 2
#     Edge 41, Type (0, 1), BuildingBlock: XUDNAN_clean_linker_2, # of connection points: 2
#     Edge 42, Type (0, 1), BuildingBlock: XUDNAN_clean_linker_2, # of connection points: 2
#     Edge 43, Type (0, 1), BuildingBlock: XUDNAN_clean_linker_2, # of connection points: 2
#     Edge 44, Type (0, 1), BuildingBlock: XUDNAN_clean_linker_2, # of connection points: 2
#     Edge 45, Type (0, 1), BuildingBlock: XUDNAN_clean_linker_2, # of connection points: 2
#     Edge 46, Type (0, 1), BuildingBlock: XUDNAN_clean_linker_2, # of connection points: 2
#     Edge 47, Type (0, 1), BuildingBlock: XUDNAN_clean_linker_2, # of connection points: 2
#     Edge 48, Type (0, 1), BuildingBlock: XUDNAN_clean_linker_2, # of connection points: 2
#     Edge 49, Type (0, 1), BuildingBlock: XUDNAN_clean_linker_2, # of connection points: 2
#     Edge 50, Type (0, 1), BuildingBlock: XUDNAN_clean_linker_2, # of connection points: 2
#     Edge 51, Type (0, 1), BuildingBlock: XUDNAN_clean_linker_2, # of connection points: 2
#     Edge 52, Type (0, 1), BuildingBlock: XUDNAN_clean_linker_2, # of connection points: 2
#     Edge 53, Type (0, 1), BuildingBlock: XUDNAN_clean_linker_2, # of connection points: 2
#     Edge 54, Type (0, 1), BuildingBlock: XUDNAN_clean_linker_2, # of connection points: 2
#     Edge 55, Type (0, 1), BuildingBlock: XUDNAN_clean_linker_2, # of connection points: 2
#     Edge 56, Type (0, 1), BuildingBlock: XUDNAN_clean_linker_2, # of connection points: 2
#     Edge 57, Type (0, 1), BuildingBlock: XUDNAN_clean_linker_2, # of connection points: 2
#     Edge 58, Type (0, 1), BuildingBlock: XUDNAN_clean_linker_2, # of connection points: 2
#     Edge 59, Type (0, 1), BuildingBlock: XUDNAN_clean_linker_2, # of connection points: 2
#     Edge 60, Type (0, 1), BuildingBlock: XUDNAN_clean_linker_2, # of connection points: 2
#     Edge 61, Type (0, 1), BuildingBlock: XUDNAN_clean_linker_2, # of connection points: 2
#     Edge 62, Type (0, 1), BuildingBlock: XUDNAN_clean_linker_2, # of connection points: 2
#     Edge 63, Type (0, 1), BuildingBlock: XUDNAN_clean_linker_2, # of connection points: 2
#     Edge 64, Type (0, 1), BuildingBlock: XUDNAN_clean_linker_2, # of connection points: 2
#     Edge 65, Type (0, 1), BuildingBlock: XUDNAN_clean_linker_2, # of connection points: 2
#     Edge 66, Type (0, 1), BuildingBlock: XUDNAN_clean_linker_2, # of connection points: 2
#     Edge 67, Type (0, 1), BuildingBlock: XUDNAN_clean_linker_2, # of connection points: 2
#     Edge 68, Type (0, 1), BuildingBlock: XUDNAN_clean_linker_2, # of connection points: 2
#     Edge 69, Type (0, 1), BuildingBlock: XUDNAN_clean_linker_2, # of connection points: 2
#     Edge 70, Type (0, 1), BuildingBlock: XUDNAN_clean_linker_2, # of connection points: 2
#     Edge 71, Type (0, 1), BuildingBlock: XUDNAN_clean_linker_2, # of connection points: 2
#     Edge 72, Type (0, 1), BuildingBlock: XUDNAN_clean_linker_2, # of connection points: 2
#     Edge 73, Type (0, 1), BuildingBlock: XUDNAN_clean_linker_2, # of connection points: 2
#     Edge 74, Type (0, 1), BuildingBlock: XUDNAN_clean_linker_2, # of connection points: 2
#     Edge 75, Type (0, 1), BuildingBlock: XUDNAN_clean_linker_2, # of connection points: 2
#     Edge 76, Type (0, 1), BuildingBlock: XUDNAN_clean_linker_2, # of connection points: 2
#     Edge 77, Type (0, 1), BuildingBlock: XUDNAN_clean_linker_2, # of connection points: 2
#     Edge 78, Type (0, 1), BuildingBlock: XUDNAN_clean_linker_2, # of connection points: 2
#     Edge 79, Type (0, 1), BuildingBlock: XUDNAN_clean_linker_2, # of connection points: 2
#     Edge 80, Type (0, 1), BuildingBlock: XUDNAN_clean_linker_2, # of connection points: 2
#     Edge 81, Type (0, 1), BuildingBlock: XUDNAN_clean_linker_2, # of connection points: 2
#     Edge 82, Type (0, 1), BuildingBlock: XUDNAN_clean_linker_2, # of connection points: 2
#     Edge 83, Type (0, 1), BuildingBlock: XUDNAN_clean_linker_2, # of connection points: 2
#     Edge 84, Type (0, 1), BuildingBlock: XUDNAN_clean_linker_2, # of connection points: 2
#     Edge 85, Type (0, 1), BuildingBlock: XUDNAN_clean_linker_2, # of connection points: 2
#     Edge 86, Type (0, 1), BuildingBlock: XUDNAN_clean_linker_2, # of connection points: 2
#     Edge 87, Type (0, 1), BuildingBlock: XUDNAN_clean_linker_2, # of connection points: 2
#     Edge 88, Type (0, 1), BuildingBlock: XUDNAN_clean_linker_2, # of connection points: 2
#     Edge 89, Type (0, 1), BuildingBlock: XUDNAN_clean_linker_2, # of connection points: 2
#     Edge 90, Type (0, 1), BuildingBlock: XUDNAN_clean_linker_2, # of connection points: 2
#     Edge 91, Type (0, 1), BuildingBlock: XUDNAN_clean_linker_2, # of connection points: 2
#     Edge 92, Type (0, 1), BuildingBlock: XUDNAN_clean_linker_2, # of connection points: 2
#     Edge 93, Type (0, 1), BuildingBlock: XUDNAN_clean_linker_2, # of connection points: 2
#     Edge 94, Type (0, 1), BuildingBlock: XUDNAN_clean_linker_2, # of connection points: 2
#     Edge 95, Type (0, 1), BuildingBlock: XUDNAN_clean_linker_2, # of connection points: 2
#     Edge 96, Type (0, 1), BuildingBlock: XUDNAN_clean_linker_2, # of connection points: 2
#     Edge 97, Type (0, 1), BuildingBlock: XUDNAN_clean_linker_2, # of connection points: 2
#     Edge 98, Type (0, 1), BuildingBlock: XUDNAN_clean_linker_2, # of connection points: 2
#     Edge 99, Type (0, 1), BuildingBlock: XUDNAN_clean_linker_2, # of connection points: 2
#     Edge 100, Type (0, 1), BuildingBlock: XUDNAN_clean_linker_2, # of connection points: 2
#     Edge 101, Type (0, 1), BuildingBlock: XUDNAN_clean_linker_2, # of connection points: 2
#     Edge 102, Type (0, 1), BuildingBlock: XUDNAN_clean_linker_2, # of connection points: 2
#     Edge 103, Type (0, 1), BuildingBlock: XUDNAN_clean_linker_2, # of connection points: 2
#     Edge 104, Type (0, 1), BuildingBlock: XUDNAN_clean_linker_2, # of connection points: 2
#     Edge 105, Type (0, 1), BuildingBlock: XUDNAN_clean_linker_2, # of connection points: 2
#     Edge 106, Type (0, 1), BuildingBlock: XUDNAN_clean_linker_2, # of connection points: 2
#     Edge 107, Type (0, 1), BuildingBlock: XUDNAN_clean_linker_2, # of connection points: 2
#     Edge 108, Type (0, 1), BuildingBlock: XUDNAN_clean_linker_2, # of connection points: 2
#     Edge 109, Type (0, 1), BuildingBlock: XUDNAN_clean_linker_2, # of connection points: 2
#     Edge 110, Type (0, 1), BuildingBlock: XUDNAN_clean_linker_2, # of connection points: 2
#     Edge 111, Type (0, 1), BuildingBlock: XUDNAN_clean_linker_2, # of connection points: 2
#     Edge 112, Type (0, 1), BuildingBlock: XUDNAN_clean_linker_2, # of connection points: 2
#     Edge 113, Type (0, 1), BuildingBlock: XUDNAN_clean_linker_2, # of connection points: 2
#     Edge 114, Type (0, 1), BuildingBlock: XUDNAN_clean_linker_2, # of connection points: 2
#     Edge 115, Type (0, 1), BuildingBlock: XUDNAN_clean_linker_2, # of connection points: 2
#     Edge 116, Type (0, 1), BuildingBlock: XUDNAN_clean_linker_2, # of connection points: 2
#     Edge 117, Type (0, 1), BuildingBlock: XUDNAN_clean_linker_2, # of connection points: 2
#     Edge 118, Type (0, 1), BuildingBlock: XUDNAN_clean_linker_2, # of connection points: 2
#     Edge 119, Type (0, 1), BuildingBlock: XUDNAN_clean_linker_2, # of connection points: 2
#     Edge 120, Type (0, 1), BuildingBlock: XUDNAN_clean_linker_2, # of connection points: 2
#     Edge 121, Type (0, 1), BuildingBlock: XUDNAN_clean_linker_2, # of connection points: 2
#     Edge 122, Type (0, 1), BuildingBlock: XUDNAN_clean_linker_2, # of connection points: 2
#     Edge 123, Type (0, 1), BuildingBlock: XUDNAN_clean_linker_2, # of connection points: 2
#     Edge 124, Type (0, 1), BuildingBlock: XUDNAN_clean_linker_2, # of connection points: 2
#     Edge 125, Type (0, 1), BuildingBlock: XUDNAN_clean_linker_2, # of connection points: 2
#     Edge 126, Type (0, 1), BuildingBlock: XUDNAN_clean_linker_2, # of connection points: 2
#     Edge 127, Type (0, 1), BuildingBlock: XUDNAN_clean_linker_2, # of connection points: 2
#     Edge 128, Type (0, 1), BuildingBlock: XUDNAN_clean_linker_2, # of connection points: 2
#     Edge 129, Type (0, 1), BuildingBlock: XUDNAN_clean_linker_2, # of connection points: 2
#     Edge 130, Type (0, 1), BuildingBlock: XUDNAN_clean_linker_2, # of connection points: 2
#     Edge 131, Type (0, 1), BuildingBlock: XUDNAN_clean_linker_2, # of connection points: 2
#     Edge 132, Type (0, 1), BuildingBlock: XUDNAN_clean_linker_2, # of connection points: 2
#     Edge 133, Type (0, 1), BuildingBlock: XUDNAN_clean_linker_2, # of connection points: 2
#     Edge 134, Type (0, 1), BuildingBlock: XUDNAN_clean_linker_2, # of connection points: 2
#     Edge 135, Type (0, 1), BuildingBlock: XUDNAN_clean_linker_2, # of connection points: 2
# Relax obj value: 0.309
# Max RMSD: 0.289
# Mean RMSD: 0.261
data_MOF--net-ibd--node1-QUQFOY_clean_sbu_3--node2-IZENUY_clean_sbu_0--edge1-XUDNAN_clean_linker_2
_symmetry_space_group_name_H-M    P1
_symmetry_Int_Tables_number       1
_symmetry_cell_setting            triclinic
loop_
_symmetry_equiv_pos_as_xyz
'x, y, z'
_cell_length_a     49.431231
_cell_length_b     49.267924
_cell_length_c     49.263571
_cell_angle_alpha  90.105845
_cell_angle_beta   90.105195
_cell_angle_gamma 91.211399
loop_
_atom_site_label
_atom_site_type_symbol
_atom_site_fract_x
_atom_site_fract_y
_atom_site_fract_z
_atom_type_partial_charge
C0 C 0.97617 0.22027 0.38491 0.0
O1 O 0.95691 0.23575 0.37883 0.0
Cd2 Cd 0.96404 0.28037 0.36286 0.0
O3 O 0.00067 0.2268 0.37934 0.0
Cd4 Cd 0.02433 0.26393 0.35291 0.0
C5 C 0.0139 0.30079 0.40844 0.0
O6 O 0.9881 0.27318 0.32192 0.0
O7 O 0.01677 0.30615 0.32629 0.0
O8 O 0.05023 0.22974 0.32927 0.0
C9 C -0.00376 0.29628 0.31403 0.0
O10 O 0.98947 0.3023 0.40035 0.0
C11 C 0.0725 0.24308 0.33003 0.0
O12 O 0.03099 0.28736 0.39503 0.0
O13 O 0.07248 0.26593 0.34195 0.0
C14 C -5e-05 0.82314 0.59717 0.0
O15 O 0.97519 0.82958 0.59695 0.0
Cd16 Cd 0.93807 0.80814 0.61895 0.0
O17 O 0.00824 0.80333 0.61152 0.0
Cd18 Cd 0.98762 0.77064 0.64531 0.0
C19 C 0.94821 0.74308 0.59553 0.0
O20 O 0.95737 0.80369 0.66231 0.0
O21 O 0.95176 0.76448 0.68062 0.0
O22 O 0.02831 0.77154 0.67393 0.0
C23 C 0.94464 0.78896 0.67902 0.0
O24 O 0.93462 0.76476 0.59501 0.0
C25 C 0.02955 0.74583 0.67567 0.0
O26 O 0.96817 0.74045 0.61152 0.0
O27 O 0.012 0.73202 0.66247 0.0
C28 C 0.43524 0.71765 0.90042 0.0
O29 O 0.4217 0.73924 0.90071 0.0
Cd30 Cd 0.43935 0.7822 0.88565 0.0
O31 O 0.45884 0.71721 0.89021 0.0
Cd32 Cd 0.48858 0.74806 0.86406 0.0
C33 C 0.49993 0.78848 0.91838 0.0
O34 O 0.45396 0.77331 0.84022 0.0
O35 O 0.49545 0.78727 0.8352 0.0
O36 O 0.49805 0.712 0.83221 0.0
C37 C 0.47078 0.78925 0.82872 0.0
O38 O 0.47569 0.79658 0.91709 0.0
C39 C 0.52357 0.71311 0.83534 0.0
O40 O 0.50869 0.77083 0.902 0.0
O41 O 0.53286 0.73005 0.85261 0.0
C42 C 0.52774 0.32097 0.10605 0.0
O43 O 0.50262 0.3259 0.10451 0.0
Cd44 Cd 0.46558 0.30111 0.1241 0.0
O45 O 0.53619 0.30077 0.1196 0.0
Cd46 Cd 0.51662 0.26321 0.14714 0.0
C47 C 0.47886 0.2404 0.09289 0.0
O48 O 0.48388 0.29131 0.16706 0.0
O49 O 0.48084 0.24993 0.18081 0.0
O50 O 0.55509 0.26251 0.17833 0.0
C51 C 0.47188 0.27382 0.18159 0.0
O52 O 0.46305 0.26031 0.09579 0.0
C53 C 0.56037 0.23781 0.17353 0.0
O54 O 0.4995 0.23786 0.10808 0.0
O55 O 0.54573 0.22546 0.15606 0.0
C56 C 0.92076 0.733 0.1658 0.0
O57 O 0.9208 0.75855 0.16945 0.0
Cd58 Cd 0.94704 0.79186 0.14551 0.0
O59 O 0.93637 0.72212 0.14852 0.0
Cd60 Cd 0.97204 0.73702 0.11664 0.0
C61 C 0.0082 0.76816 0.16678 0.0
O62 O 0.94615 0.77422 0.10111 0.0
O63 O 0.98584 0.7727 0.08337 0.0
O64 O 0.96071 0.69822 0.08733 0.0
C65 C 0.96333 0.78442 0.08501 0.0
O66 O 0.99178 0.78771 0.16557 0.0
C67 C 0.98515 0.69115 0.08459 0.0
O68 O 0.00446 0.74665 0.15285 0.0
O69 O 0.00301 0.70503 0.09733 0.0
C70 C 0.5423 0.8041 0.34677 0.0
O71 O 0.52786 0.8242 0.35285 0.0
Cd72 Cd 0.48248 0.81726 0.36945 0.0
O73 O 0.53462 0.78007 0.35268 0.0
Cd74 Cd 0.49852 0.75688 0.37798 0.0
C75 C 0.45998 0.76826 0.32426 0.0
O76 O 0.48271 0.79081 0.40978 0.0
O77 O 0.45452 0.75816 0.39931 0.0
O78 O 0.53214 0.73878 0.40738 0.0
C79 C 0.46014 0.77873 0.41394 0.0
O80 O 0.45759 0.79211 0.33392 0.0
C81 C 0.52475 0.71406 0.40505 0.0
O82 O 0.47567 0.7512 0.33509 0.0
O83 O 0.50523 0.70872 0.38888 0.0
C84 C 0.40819 0.21279 0.64553 0.0
O85 O 0.3966 0.23542 0.6479 0.0
Cd86 Cd 0.41561 0.27743 0.63277 0.0
O87 O 0.43043 0.21107 0.63268 0.0
Cd88 Cd 0.46216 0.241 0.6077 0.0
C89 C 0.47573 0.27274 0.66718 0.0
O90 O 0.4295 0.26997 0.58715 0.0
O91 O 0.47055 0.28561 0.58645 0.0
O92 O 0.47103 0.20854 0.57117 0.0
C93 C 0.44608 0.28817 0.57927 0.0
O94 O 0.45331 0.28481 0.66468 0.0
C95 C 0.49613 0.20713 0.57649 0.0
O96 O 0.48297 0.25528 0.64978 0.0
O97 O 0.50509 0.22134 0.59619 0.0
C98 C 0.9882 0.28309 0.85092 0.0
O99 O 0.96499 0.29356 0.85017 0.0
Cd100 Cd 0.92615 0.26761 0.86425 0.0
O101 O 0.9919 0.26057 0.8628 0.0
Cd102 Cd 0.96618 0.229 0.89252 0.0
C103 C 0.93904 0.20504 0.83545 0.0
O104 O 0.93217 0.25867 0.91116 0.0
O105 O 0.92507 0.21546 0.91643 0.0
O106 O -0.0033 0.23973 0.92894 0.0
C107 C 0.91901 0.23957 0.92269 0.0
O108 O 0.92627 0.22722 0.83564 0.0
C109 C 0.00368 0.21562 0.93384 0.0
O110 O 0.95583 0.19963 0.85418 0.0
O111 O -0.0053 0.19708 0.91802 0.0
C112 C 0.43023 0.93668 0.22474 0.0
O113 O 0.42666 0.92188 0.24553 0.0
Cd114 Cd 0.39519 0.93253 0.28017 0.0
O115 O 0.41584 0.95753 0.22096 0.0
Cd116 Cd 0.37697 0.9792 0.24416 0.0
C117 C 0.41682 -0.00342 0.2973 0.0
O118 O 0.35298 0.9372 0.25593 0.0
O119 O 0.33821 0.97321 0.27529 0.0
O120 O 0.35908 0.98973 0.19895 0.0
C121 C 0.33464 0.94829 0.26965 0.0
O122 O 0.41578 0.97172 0.30427 0.0
C123 C 0.35352 0.01408 0.20483 0.0
O124 O 0.405 0.00437 0.27589 0.0
O125 O 0.35932 0.02209 0.22866 0.0
C126 C 0.27966 0.08195 0.49105 0.0
O127 O 0.28353 0.08702 0.46603 0.0
Cd128 Cd 0.26186 0.11959 0.43825 0.0
O129 O 0.2616 0.09419 0.50466 0.0
Cd130 Cd 0.22686 0.12888 0.49635 0.0
C131 C 0.19786 0.09258 0.44419 0.0
O132 O 0.25851 0.1541 0.47088 0.0
O133 O 0.22025 0.17373 0.47261 0.0
O134 O 0.22905 0.1458 0.54301 0.0
C135 C 0.24445 0.17395 0.46413 0.0
O136 O 0.21743 0.09936 0.42868 0.0
C137 C 0.20376 0.14296 0.54713 0.0
O138 O 0.19773 0.09913 0.46917 0.0
O139 O 0.18962 0.13287 0.52793 0.0
C140 C 0.16121 0.96071 0.76796 0.0
O141 O 0.1646 0.95862 0.79345 0.0
Cd142 Cd 0.14066 0.98673 0.82505 0.0
O143 O 0.14598 0.97868 0.75802 0.0
Cd144 Cd 0.11695 0.01628 0.7703 0.0
C145 C 0.16826 0.04779 0.80493 0.0
O146 O 0.09672 0.98898 0.80516 0.0
O147 O 0.07949 0.02861 0.80089 0.0
O148 O 0.09562 0.00343 0.72756 0.0
C149 C 0.07952 0.0059 0.81296 0.0
O150 O 0.16554 0.0298 0.82329 0.0
C151 C 0.09244 0.02758 0.71941 0.0
O152 O 0.15413 0.04672 0.78333 0.0
O153 O 0.10067 0.04657 0.73506 0.0
C154 C 0.26253 0.84502 0.99212 0.0
O155 O 0.2717 0.84449 0.96805 0.0
Cd156 Cd 0.25789 0.8732 0.93189 0.0
O157 O 0.24354 0.86087 -0.00133 0.0
Cd158 Cd 0.21537 0.89356 0.97344 0.0
C159 C 0.19469 0.84702 0.9257 0.0
O160 O 0.25553 0.91628 0.95491 0.0
O161 O 0.21754 0.93474 0.94534 0.0
O162 O 0.2071 0.91383 0.01786 0.0
C163 C 0.24313 0.93632 0.94536 0.0
O164 O 0.21789 0.84917 0.91477 0.0
C165 C 0.18245 0.91883 0.013 0.0
O166 O 0.18928 0.8604 0.94698 0.0
O167 O 0.17294 0.91063 0.99043 0.0
C168 C 0.28406 0.33326 0.01177 0.0
O169 O 0.30899 0.33117 0.0176 0.0
Cd170 Cd 0.34227 0.36498 0.00452 0.0
O171 O 0.27589 0.35265 -0.00299 0.0
Cd172 Cd 0.2941 0.39195 0.97173 0.0
C173 C 0.33973 0.35535 0.9364 0.0
O174 O 0.31935 0.40644 0.01171 0.0
O175 O 0.32392 0.43235 0.97667 0.0
O176 O 0.24873 0.40866 0.97959 0.0
C177 C 0.32862 0.42828 0.00163 0.0
O178 O 0.35418 0.35566 0.95777 0.0
C179 C 0.24598 0.41951 0.95644 0.0
O180 O 0.31599 0.36486 0.93642 0.0
O181 O 0.26542 0.41691 0.93986 0.0
C182 C 0.6964 0.07086 0.03025 0.0
O183 O 0.7068 0.07889 0.05252 0.0
Cd184 Cd 0.73914 0.11498 0.05744 0.0
O185 O 0.70075 0.08394 0.00834 0.0
Cd186 Cd 0.7249 0.1274 -0.00286 0.0
C187 C 0.7831 0.09543 0.00763 0.0
O188 O 0.71905 0.15415 0.03842 0.0
O189 O 0.75234 0.16606 0.01259 0.0
O190 O 0.68743 0.14474 0.97096 0.0
C191 C 0.73756 0.17136 0.03282 0.0
O192 O 0.77891 0.09869 0.03292 0.0
C193 C 0.70148 0.15046 0.95009 0.0
O194 O 0.76586 0.10305 0.9902 0.0
O195 O 0.72614 0.14376 0.95053 0.0
C196 C 0.15326 0.5449 0.19945 0.0
O197 O 0.15316 0.52893 0.17921 0.0
Cd198 Cd 0.13206 0.48493 0.17774 0.0
O199 O 0.14107 0.53871 0.22138 0.0
Cd200 Cd 0.11158 0.50032 0.23617 0.0
C201 C 0.16103 0.45495 0.23264 0.0
O202 O 0.0875 0.49355 0.19355 0.0
O203 O 0.08077 0.46276 0.22392 0.0
O204 O 0.0854 0.53297 0.2615 0.0
C205 C 0.07462 0.47242 0.201 0.0
O206 O 0.15799 0.4545 0.20696 0.0
C207 C 0.08347 0.51835 0.28264 0.0
O208 O 0.14791 0.47132 0.24723 0.0
O209 O 0.09536 0.49579 0.28236 0.0
C210 C 0.73728 0.82633 0.54035 0.0
O211 O 0.76061 0.83458 0.5479 0.0
Cd212 Cd 0.78773 0.86653 0.5225 0.0
O213 O 0.72592 0.8363 0.51952 0.0
Cd214 Cd 0.7343 0.87199 0.48558 0.0
C215 C 0.78408 0.83561 0.45968 0.0
O216 O 0.75995 0.90377 0.51318 0.0
O217 O 0.76315 0.91003 0.47002 0.0
O218 O 0.68942 0.88909 0.49343 0.0
C219 C 0.76912 0.91804 0.49379 0.0
O220 O 0.79841 0.84428 0.47953 0.0
C221 C 0.68312 0.89065 0.46849 0.0
O222 O 0.75893 0.84036 0.45797 0.0
O223 O 0.70008 0.88167 0.4515 0.0
C224 C 0.93363 0.03465 0.19614 0.0
O225 O 0.93357 0.01189 0.18394 0.0
Cd226 Cd 0.90187 0.97462 0.1885 0.0
O227 O 0.91572 0.03987 0.21384 0.0
Cd228 Cd 0.87834 0.01368 0.23494 0.0
C229 C 0.91674 0.96086 0.25405 0.0
O230 O 0.85869 0.9934 0.1943 0.0
O231 O 0.84445 0.9772 0.23248 0.0
O232 O 0.84709 0.05064 0.24308 0.0
C233 C 0.84272 0.97738 0.20681 0.0
O234 O 0.91447 0.95143 0.23007 0.0
C235 C 0.84813 0.04849 0.26877 0.0
O236 O 0.90812 0.9842 0.26026 0.0
O237 O 0.86424 0.03124 0.27841 0.0
C238 C 0.21726 0.55907 0.53454 0.0
O239 O 0.23661 0.56426 0.55092 0.0
Cd240 Cd 0.26828 0.60136 0.55231 0.0
O241 O 0.21215 0.57479 0.51468 0.0
Cd242 Cd 0.23344 0.61833 0.4993 0.0
C243 C 0.29695 0.59294 0.49085 0.0
O244 O 0.23783 0.63734 0.54473 0.0
O245 O 0.25187 0.66304 0.51221 0.0
O246 O 0.19278 0.6373 0.47895 0.0
C247 C 0.24727 0.66009 0.53727 0.0
O248 O 0.30074 0.59208 0.51636 0.0
C249 C 0.20432 0.6423 0.45637 0.0
O250 O 0.27458 0.60054 0.48109 0.0
O251 O 0.22811 0.63365 0.45337 0.0
C252 C 0.39889 0.50899 0.71455 0.0
O253 O 0.39933 0.48354 0.71051 0.0
Cd254 Cd 0.36891 0.45045 0.72946 0.0
O255 O 0.38214 0.51931 0.73105 0.0
Cd256 Cd 0.34768 0.50117 0.76282 0.0
C257 C 0.38886 0.45778 0.79521 0.0
O258 O 0.32587 0.47117 0.73018 0.0
O259 O 0.31368 0.4651 0.77173 0.0
O260 O 0.31843 0.54058 0.76042 0.0
C261 C 0.31033 0.45922 0.74687 0.0
O262 O 0.38598 0.4419 0.77494 0.0
C263 C 0.32053 0.54627 0.78551 0.0
O264 O 0.37903 0.48141 0.79488 0.0
O265 O 0.33572 0.53141 0.79965 0.0
C266 C 0.67586 0.01228 0.68469 0.0
O267 O 0.67506 0.99095 0.67016 0.0
Cd268 Cd 0.64461 0.95312 0.67523 0.0
O269 O 0.65907 0.01553 0.704 0.0
Cd270 Cd 0.62134 0.98641 0.72181 0.0
C271 C 0.66416 0.93572 0.73748 0.0
O272 O 0.60129 0.97441 0.67849 0.0
O273 O 0.5867 0.95066 0.71232 0.0
O274 O 0.58996 0.02096 0.7377 0.0
C275 C 0.58352 0.95828 0.68796 0.0
O276 O 0.66276 0.92652 0.71339 0.0
C277 C 0.59185 0.01421 0.76252 0.0
O278 O 0.65212 0.95722 0.74391 0.0
O279 O 0.60818 -0.00438 0.76833 0.0
C280 C 0.81633 0.57161 0.97396 0.0
O281 O 0.81684 0.57296 0.94823 0.0
Cd282 Cd 0.7923 0.60535 0.92185 0.0
O283 O 0.80032 0.58587 0.98801 0.0
Cd284 Cd 0.76358 0.61762 0.97983 0.0
C285 C 0.72948 0.5793 0.93282 0.0
O286 O 0.79077 0.64485 0.94947 0.0
O287 O 0.74979 0.65825 0.95468 0.0
O288 O 0.76946 0.64099 0.02344 0.0
C289 C 0.77291 0.66203 0.94414 0.0
O290 O 0.74727 0.58617 0.91539 0.0
C291 C 0.74537 0.63633 0.03137 0.0
O292 O 0.73201 0.58578 0.95772 0.0
O293 O 0.73033 0.62188 0.01594 0.0
C294 C 0.89707 0.44559 0.706 0.0
O295 O 0.891 0.42563 0.72125 0.0
Cd296 Cd 0.8629 0.42925 0.75991 0.0
O297 O 0.88685 0.46878 0.70994 0.0
Cd298 Cd 0.85255 0.48796 0.7407 0.0
C299 C 0.89666 0.48182 0.79219 0.0
O300 O 0.82317 0.44774 0.73976 0.0
O301 O 0.81277 0.47831 0.76901 0.0
O302 O 0.84044 0.51301 0.70021 0.0
C303 C 0.80611 0.45676 0.75638 0.0
O304 O 0.89089 0.45652 0.7916 0.0
C305 C 0.83255 0.53374 0.71303 0.0
O306 O 0.8857 0.49786 0.77549 0.0
O307 O 0.83532 0.53373 0.73864 0.0
C308 C 0.79398 0.33153 0.55955 0.0
O309 O 0.81137 0.33943 0.54221 0.0
Cd310 Cd 0.80158 0.36294 0.50169 0.0
O311 O 0.7692 0.33788 0.55709 0.0
Cd312 Cd 0.74311 0.36684 0.52524 0.0
C313 C 0.75103 0.32044 0.47646 0.0
O314 O 0.77713 0.40151 0.51583 0.0
O315 O 0.74635 0.39639 0.48525 0.0
O316 O 0.71992 0.38978 0.56191 0.0
C317 C 0.76603 0.41038 0.49462 0.0
O318 O 0.77501 0.33016 0.47409 0.0
C319 C 0.69664 0.38798 0.55103 0.0
O320 O 0.73526 0.32913 0.49475 0.0
O321 O 0.69472 0.3746 0.52905 0.0
C322 C 0.65306 0.47985 0.24572 0.0
O323 O 0.65396 0.47131 0.27004 0.0
Cd324 Cd 0.62551 0.48489 0.30655 0.0
O325 O 0.63663 0.49815 0.23863 0.0
Cd326 Cd 0.60236 0.52684 0.25987 0.0
C327 C 0.64646 0.55145 0.30652 0.0
O328 O 0.58362 0.48938 0.28445 0.0
O329 O 0.56572 0.5276 0.29416 0.0
O330 O 0.58058 0.52753 0.2153 0.0
C331 C 0.56641 0.50221 0.29794 0.0
O332 O 0.64356 0.5293 0.31953 0.0
C333 C 0.57437 0.55238 0.21689 0.0
O334 O 0.63601 0.55476 0.28319 0.0
O335 O 0.58198 0.56528 0.23799 0.0
Fe336 Fe 0.16084 0.11489 0.15346 0.0
Fe337 Fe 0.13664 0.16901 0.13762 0.0
O338 O 0.15506 0.14006 0.12876 0.0
Fe339 Fe 0.16758 0.13589 0.09547 0.0
O340 O 0.14815 0.1045 0.09117 0.0
O341 O 0.1619 0.08658 0.12928 0.0
O342 O 0.12491 0.10805 0.15649 0.0
C343 C 0.10789 0.12582 0.16245 0.0
C344 C 0.21004 0.11748 0.12944 0.0
O345 O 0.11422 0.15088 0.16164 0.0
C346 C 0.17774 0.18999 0.10271 0.0
O347 O 0.16056 0.13819 0.18254 0.0
O348 O 0.16089 0.17836 0.16387 0.0
O349 O 0.19813 0.11791 0.10654 0.0
O350 O 0.19695 0.12072 0.15116 0.0
C351 C 0.11601 0.15911 0.08712 0.0
O352 O 0.1553 0.19191 0.11481 0.0
O353 O 0.18754 0.16713 0.0975 0.0
C354 C 0.16486 0.16353 0.1842 0.0
O355 O 0.11135 0.16175 0.11209 0.0
O356 O 0.13936 0.15315 0.07868 0.0
C357 C 0.15073 0.08414 0.1063 0.0
Fe358 Fe 0.08913 0.83748 0.38108 0.0
Fe359 Fe 0.11076 0.88376 0.34555 0.0
O360 O 0.11322 0.86378 0.37498 0.0
Fe361 Fe 0.13976 0.86999 0.3985 0.0
O362 O 0.15244 0.836 0.39306 0.0
O363 O 0.11282 0.81588 0.3991 0.0
O364 O 0.09825 0.81978 0.35008 0.0
C365 C 0.09782 0.83067 0.32689 0.0
C366 C 0.09456 0.85936 0.43153 0.0
O367 O 0.09711 0.85622 0.32446 0.0
C368 C 0.12499 0.92173 0.38641 0.0
O369 O 0.06108 0.85417 0.36406 0.0
O370 O 0.07724 0.89484 0.35478 0.0
O371 O 0.11994 0.85923 0.42831 0.0
O372 O 0.07866 0.85387 0.41216 0.0
C373 C 0.16534 0.87809 0.34781 0.0
O374 O 0.12395 0.91473 0.36169 0.0
O375 O 0.12842 0.90431 0.40485 0.0
C376 C 0.05737 0.87884 0.35848 0.0
O377 O 0.14404 0.87397 0.33423 0.0
O378 O 0.16434 0.88214 0.37314 0.0
C379 C 0.13822 0.81471 0.39662 0.0
Fe380 Fe 0.35486 0.90434 0.64315 0.0
Fe381 Fe 0.32121 0.87461 0.59977 0.0
O382 O 0.34942 0.87586 0.62175 0.0
Fe383 Fe 0.37212 0.84889 0.62229 0.0
O384 O 0.36571 0.84296 0.65782 0.0
O385 O 0.37183 0.88525 0.67023 0.0
O386 O 0.32311 0.89763 0.66035 0.0
C387 C 0.30061 0.89621 0.64824 0.0
C388 C 0.40616 0.89591 0.62587 0.0
O389 O 0.29953 0.89396 0.62262 0.0
C390 C 0.36249 0.85189 0.56806 0.0
O391 O 0.33943 0.92866 0.61966 0.0
O392 O 0.33342 0.90462 0.58248 0.0
O393 O 0.40197 0.87068 0.62934 0.0
O394 O 0.38698 0.91236 0.62696 0.0
C395 C 0.32068 0.82275 0.61802 0.0
O396 O 0.33765 0.85478 0.57312 0.0
O397 O 0.37986 0.85323 0.58675 0.0
C398 C 0.3379 0.92706 0.59404 0.0
O399 O 0.30776 0.84436 0.61573 0.0
O400 O 0.34616 0.82259 0.61534 0.0
C401 C 0.37175 0.86016 0.67579 0.0
Fe402 Fe 0.43042 0.14504 0.86978 0.0
Fe403 Fe 0.39445 0.09555 0.85625 0.0
O404 O 0.39999 0.12619 0.87454 0.0
Fe405 Fe 0.37496 0.13855 0.89671 0.0
O406 O 0.37236 0.16996 0.87776 0.0
O407 O 0.4159 0.17839 0.87578 0.0
O408 O 0.42229 0.14961 0.83414 0.0
C409 C 0.41751 0.13029 0.81786 0.0
C410 C 0.42451 0.1493 0.92449 0.0
O411 O 0.41363 0.10639 0.82633 0.0
C412 C 0.37005 0.08462 0.90757 0.0
O413 O 0.45085 0.1153 0.86276 0.0
O414 O 0.42405 0.08025 0.87118 0.0
O415 O 0.39955 0.15351 0.92065 0.0
O416 O 0.43948 0.1416 0.9053 0.0
C417 C 0.34457 0.11825 0.85217 0.0
O418 O 0.37396 0.07937 0.88276 0.0
O419 O 0.3751 0.10797 0.9171 0.0
C420 C 0.44753 0.09046 0.86861 0.0
O421 O 0.36462 0.10886 0.83977 0.0
O422 O 0.34634 0.12561 0.87671 0.0
C423 C 0.39185 0.1862 0.87335 0.0
Fe424 Fe 0.57672 0.34108 0.88573 0.0
Fe425 Fe 0.58993 0.3884 0.84769 0.0
O426 O 0.59971 0.36622 0.87383 0.0
Fe427 Fe 0.6323 0.36929 0.88834 0.0
O428 O 0.64028 0.33508 0.87786 0.0
O429 O 0.60294 0.31668 0.89422 0.0
O430 O 0.57489 0.3252 0.85256 0.0
C431 C 0.56781 0.33756 0.83142 0.0
C432 C 0.59875 0.35929 0.93329 0.0
O433 O 0.56773 0.36326 0.83059 0.0
C434 C 0.61995 0.42267 0.88339 0.0
O435 O 0.54628 0.36088 0.87921 0.0
O436 O 0.56257 0.40105 0.86817 0.0
O437 O 0.6218 0.35806 0.92229 0.0
O438 O 0.57747 0.35579 0.91943 0.0
C439 C 0.64165 0.37948 0.83251 0.0
O440 O 0.61022 0.41733 0.86015 0.0
O441 O 0.62625 0.40382 0.8994 0.0
C442 C 0.5437 0.38632 0.87749 0.0
O443 O 0.6171 0.37743 0.82567 0.0
O444 O 0.64846 0.38129 0.85721 0.0
C445 C 0.62651 0.31433 0.88458 0.0
Fe446 Fe 0.82669 0.37411 0.10179 0.0
Fe447 Fe 0.85838 0.40789 0.14342 0.0
O448 O 0.85219 0.37651 0.12698 0.0
Fe449 Fe 0.87138 0.34803 0.13592 0.0
O450 O 0.88305 0.34342 0.10155 0.0
O451 O 0.84365 0.34833 0.08151 0.0
O452 O 0.84384 0.39962 0.08101 0.0
C453 C 0.85003 0.42305 0.0896 0.0
C454 C 0.81816 0.32599 0.12763 0.0
O455 O 0.84832 0.42852 0.11457 0.0
C456 C 0.86781 0.37021 0.18583 0.0
O457 O 0.80498 0.39926 0.11789 0.0
O458 O 0.82452 0.40738 0.15735 0.0
O459 O 0.84348 0.32356 0.13052 0.0
O460 O 0.8082 0.34835 0.12087 0.0
C461 C 0.90961 0.39152 0.13376 0.0
O462 O 0.87048 0.39346 0.17532 0.0
O463 O 0.86109 0.35025 0.17114 0.0
C464 C 0.80361 0.40646 0.14257 0.0
O465 O 0.8923 0.40957 0.13 0.0
O466 O 0.90274 0.368 0.14207 0.0
C467 C 0.86766 0.33998 0.08139 0.0
Fe468 Fe 0.85636 0.62053 0.41349 0.0
Fe469 Fe 0.90429 0.63976 0.37873 0.0
O470 O 0.87719 0.61637 0.38466 0.0
Fe471 Fe 0.8711 0.58906 0.36194 0.0
O472 O 0.8341 0.58961 0.3655 0.0
O473 O 0.82669 0.62416 0.39278 0.0
O474 O 0.85908 0.65778 0.41319 0.0
C475 C 0.86468 0.67385 0.39381 0.0
C476 C 0.86053 0.56321 0.4095 0.0
O477 O 0.8813 0.66754 0.37566 0.0
C478 C 0.92803 0.59164 0.36786 0.0
O479 O 0.88497 0.61724 0.4362 0.0
O480 O 0.91032 0.6472 0.41471 0.0
O481 O 0.87471 0.56426 0.3884 0.0
O482 O 0.84919 0.58417 0.41849 0.0
C483 C 0.88372 0.62955 0.32637 0.0
O484 O 0.92881 0.61335 0.3814 0.0
O485 O 0.90709 0.58411 0.35473 0.0
C486 C 0.90473 0.63377 0.43592 0.0
O487 O 0.90304 0.63694 0.34171 0.0
O488 O 0.86686 0.61162 0.33359 0.0
C489 C 0.81876 0.60777 0.37472 0.0
Fe490 Fe 0.88776 0.87099 0.88327 0.0
Fe491 Fe 0.83772 0.89097 0.91274 0.0
O492 O 0.86185 0.89478 0.88656 0.0
Fe493 Fe 0.85995 0.92224 0.86345 0.0
O494 O 0.89674 0.92533 0.85843 0.0
O495 O 0.91338 0.89714 0.88832 0.0
O496 O 0.89031 0.86408 0.91959 0.0
C497 C 0.88406 0.87869 0.93966 0.0
C498 C 0.87149 0.88011 0.82973 0.0
O499 O 0.86363 0.89352 0.93871 0.0
C500 C 0.80593 0.90515 0.86998 0.0
O501 O 0.8635 0.84355 0.87801 0.0
O502 O 0.838 0.85376 0.91283 0.0
O503 O 0.85568 0.89918 0.83487 0.0
O504 O 0.88971 0.87371 0.84642 0.0
C505 C 0.84983 0.94688 0.91177 0.0
O506 O 0.81058 0.88792 0.88812 0.0
O507 O 0.82291 0.92399 0.86471 0.0
C508 C 0.84461 0.83751 0.89416 0.0
O509 O 0.83347 0.92755 0.91728 0.0
O510 O 0.86408 0.94667 0.89062 0.0
C511 C 0.91577 0.9182 0.874 0.0
Fe512 Fe 0.9012 0.08181 0.61878 0.0
Fe513 Fe 0.86999 0.1157 0.57805 0.0
O514 O 0.8979 0.11198 0.59995 0.0
Fe515 Fe 0.9223 0.13854 0.60307 0.0
O516 O 0.91532 0.14195 0.63895 0.0
O517 O 0.91769 0.09837 0.64807 0.0
O518 O 0.86925 0.08709 0.63591 0.0
C519 C 0.84704 0.08972 0.6237 0.0
C520 C 0.95366 0.09083 0.60479 0.0
O521 O 0.84647 0.09505 0.59859 0.0
C522 C 0.91356 0.13791 0.54842 0.0
O523 O 0.88515 0.05986 0.59283 0.0
O524 O 0.87974 0.08687 0.55796 0.0
O525 O 0.95061 0.11587 0.60961 0.0
O526 O 0.93338 0.07496 0.60291 0.0
C527 C 0.87278 0.16574 0.60154 0.0
O528 O 0.88846 0.1369 0.55348 0.0
O529 O 0.93069 0.1364 0.56731 0.0
C530 C 0.88173 0.06335 0.56756 0.0
O531 O 0.85868 0.14463 0.59712 0.0
O532 O 0.8981 0.16592 0.59742 0.0
C533 C 0.91723 0.12287 0.65585 0.0
Fe534 Fe 0.62828 0.08847 0.35345 0.0
Fe535 Fe 0.65151 0.10852 0.40742 0.0
O536 O 0.6294 0.11299 0.37968 0.0
Fe537 Fe 0.6086 0.1417 0.37828 0.0
O538 O 0.62313 0.15247 0.34627 0.0
O539 O 0.62032 0.11258 0.32646 0.0
O540 O 0.66364 0.0947 0.34559 0.0
C541 C 0.6825 0.09248 0.36264 0.0
C542 C 0.57451 0.09832 0.36001 0.0
O543 O 0.67724 0.09075 0.38773 0.0
C544 C 0.60509 0.1301 0.43223 0.0
O545 O 0.63581 0.05977 0.37578 0.0
O546 O 0.63413 0.07718 0.41674 0.0
O547 O 0.58012 0.12356 0.36146 0.0
O548 O 0.59298 0.08107 0.35989 0.0
C549 C 0.65908 0.16249 0.39746 0.0
O550 O 0.6302 0.1257 0.43226 0.0
O551 O 0.59254 0.13303 0.41021 0.0
C552 C 0.63128 0.05715 0.40095 0.0
O553 O 0.66976 0.13957 0.3994 0.0
O554 O 0.63363 0.16463 0.3949 0.0
C555 C 0.62384 0.13806 0.32516 0.0
Fe556 Fe 0.61814 0.81707 0.13084 0.0
Fe557 Fe 0.66602 0.8363 0.09566 0.0
O558 O 0.64363 0.84164 0.12305 0.0
Fe559 Fe 0.6466 0.87161 0.14242 0.0
O560 O 0.6125 0.88127 0.13383 0.0
O561 O 0.59363 0.8417 0.14328 0.0
O562 O 0.603 0.821 0.09747 0.0
C563 C 0.61576 0.81879 0.07545 0.0
C564 C 0.63536 0.83118 0.18169 0.0
O565 O 0.64124 0.81715 0.0754 0.0
C566 C 0.69982 0.86084 0.13552 0.0
O567 O 0.63817 0.78799 0.11984 0.0
O568 O 0.67843 0.80572 0.11131 0.0
O569 O 0.63571 0.85569 0.17407 0.0
O570 O 0.63162 0.81211 0.16481 0.0
C571 C 0.65487 0.88993 0.08884 0.0
O572 O 0.6948 0.85471 0.11105 0.0
O573 O 0.68085 0.86391 0.1522 0.0
C574 C 0.66353 0.78547 0.11727 0.0
O575 O 0.65485 0.86662 0.07819 0.0
O576 O 0.658 0.89284 0.11417 0.0
C577 C 0.59174 0.86691 0.13883 0.0
Fe578 Fe 0.38791 0.6694 0.11007 0.0
Fe579 Fe 0.33379 0.64075 0.09733 0.0
O580 O 0.36171 0.64638 0.11918 0.0
Fe581 Fe 0.36335 0.62877 0.15036 0.0
O582 O 0.40046 0.62825 0.15155 0.0
O583 O 0.41286 0.64298 0.11135 0.0
O584 O 0.38524 0.66243 0.07356 0.0
C585 C 0.37487 0.64246 0.0607 0.0
C586 C 0.37995 0.67924 0.16596 0.0
O587 O 0.3551 0.6291 0.07017 0.0
C588 C 0.30796 0.64088 0.14589 0.0
O589 O 0.36458 0.69732 0.10814 0.0
O590 O 0.33392 0.6753 0.08375 0.0
O591 O 0.36264 0.66035 0.16921 0.0
O592 O 0.39499 0.68014 0.14515 0.0
C593 C 0.34716 0.58898 0.11507 0.0
O594 O 0.31052 0.65214 0.12308 0.0
O595 O 0.32656 0.62612 0.15501 0.0
C596 C 0.34383 0.6972 0.09325 0.0
O597 O 0.32925 0.60507 0.10691 0.0
O598 O 0.36439 0.5965 0.1326 0.0
C599 C 0.41748 0.62946 0.13242 0.0
Fe600 Fe 0.11095 0.59244 0.85078 0.0
Fe601 Fe 0.12371 0.61683 0.90665 0.0
O602 O 0.10222 0.61373 0.87817 0.0
Fe603 Fe 0.072 0.6322 0.87698 0.0
O604 O 0.08349 0.65012 0.8472 0.0
O605 O 0.09529 0.61384 0.82446 0.0
O606 O 0.14206 0.61149 0.84484 0.0
C607 C 0.16037 0.61485 0.86245 0.0
C608 C 0.05691 0.5812 0.85519 0.0
O609 O 0.15511 0.61192 0.88747 0.0
C610 C 0.07105 0.61623 0.92961 0.0
O611 O 0.12834 0.56749 0.87216 0.0
O612 O 0.12019 0.58091 0.91393 0.0
O613 O 0.0531 0.60649 0.85697 0.0
O614 O 0.08049 0.57203 0.8554 0.0
C615 C 0.10972 0.66954 0.89916 0.0
O616 O 0.09609 0.62234 0.93098 0.0
O617 O 0.05911 0.61539 0.907 0.0
C618 C 0.12663 0.56257 0.89739 0.0
O619 O 0.12859 0.65281 0.90063 0.0
O620 O 0.08539 0.66135 0.89664 0.0
C621 C 0.0908 0.63908 0.82547 0.0
Fe622 Fe 0.13746 0.33882 0.6164 0.0
Fe623 Fe 0.08435 0.32574 0.64647 0.0
O624 O 0.113 0.34699 0.64107 0.0
Fe625 Fe 0.11708 0.37681 0.66062 0.0
O626 O 0.14743 0.36392 0.6755 0.0
O627 O 0.16625 0.35266 0.63664 0.0
O628 O 0.14381 0.30657 0.63229 0.0
C629 C 0.12624 0.28837 0.63713 0.0
C630 C 0.13621 0.39345 0.60936 0.0
O631 O 0.10139 0.29399 0.63823 0.0
C632 C 0.06384 0.37867 0.64779 0.0
O633 O 0.11267 0.32382 0.59227 0.0
O634 O 0.07343 0.33023 0.61207 0.0
O635 O 0.13618 0.39587 0.63488 0.0
O636 O 0.13284 0.37052 0.59854 0.0
C637 C 0.09541 0.33959 0.69861 0.0
O638 O 0.06212 0.35393 0.65487 0.0
O639 O 0.08658 0.39071 0.64639 0.0
C640 C 0.08726 0.32699 0.59097 0.0
O641 O 0.09348 0.32032 0.68177 0.0
O642 O 0.09897 0.36367 0.69034 0.0
C643 C 0.16779 0.35685 0.66209 0.0
Fe644 Fe 0.63586 0.60945 0.59151 0.0
Fe645 Fe 0.6159 0.58997 0.64757 0.0
O646 O 0.61439 0.61282 0.61999 0.0
Fe647 Fe 0.5913 0.63978 0.62081 0.0
O648 O 0.58768 0.64219 0.58381 0.0
O649 O 0.60719 0.60578 0.56871 0.0
O650 O 0.63661 0.5723 0.59265 0.0
C651 C 0.62167 0.55507 0.60472 0.0
C652 C 0.63659 0.66562 0.60263 0.0
O653 O 0.60929 0.56086 0.62612 0.0
C654 C 0.60646 0.63589 0.67596 0.0
O655 O 0.66586 0.61272 0.61213 0.0
O656 O 0.65271 0.58593 0.64566 0.0
O657 O 0.61903 0.66428 0.62114 0.0
O658 O 0.63926 0.64637 0.58574 0.0
C659 C 0.55959 0.59801 0.63871 0.0
O660 O 0.62273 0.61711 0.67182 0.0
O661 O 0.59 0.6426 0.65772 0.0
C662 C 0.67099 0.59938 0.63321 0.0
O663 O 0.57912 0.5903 0.6535 0.0
O664 O 0.56279 0.6163 0.62098 0.0
C665 C 0.59043 0.62433 0.56562 0.0
Fe666 Fe 0.38183 0.36133 0.38063 0.0
Fe667 Fe 0.36177 0.40822 0.34627 0.0
O668 O 0.35742 0.38606 0.37407 0.0
Fe669 Fe 0.32898 0.38917 0.39557 0.0
O670 O 0.31758 0.35491 0.38839 0.0
O671 O 0.35737 0.33653 0.39452 0.0
O672 O 0.37613 0.34532 0.34802 0.0
C673 C 0.37792 0.35772 0.32576 0.0
C674 C 0.37192 0.37991 0.43172 0.0
O675 O 0.37896 0.3834 0.325 0.0
C676 C 0.34353 0.44225 0.3875 0.0
O677 O 0.41051 0.38181 0.36792 0.0
O678 O 0.39311 0.42162 0.36005 0.0
O679 O 0.3468 0.37865 0.42659 0.0
O680 O 0.38906 0.3761 0.41336 0.0
C681 C 0.30817 0.3956 0.34273 0.0
O682 O 0.34523 0.43711 0.36241 0.0
O683 O 0.33907 0.42347 0.40427 0.0
C684 C 0.41307 0.40737 0.36609 0.0
O685 O 0.33085 0.39574 0.33126 0.0
O686 O 0.30621 0.40005 0.36805 0.0
C687 C 0.33195 0.33435 0.39147 0.0
H688 H 0.08259 0.1914 0.31384 0.0
H689 H 0.11585 0.27349 0.31245 0.0
H690 H 0.1513 0.25904 0.28061 0.0
H691 H 0.15025 0.15592 0.30514 0.0
H692 H 0.13433 0.13009 0.28423 0.0
H693 H 0.11565 0.14549 0.31142 0.0
H694 H 0.07813 0.1587 0.27727 0.0
H695 H 0.0966 0.14339 0.25019 0.0
H696 H 0.08718 0.17844 0.24773 0.0
H697 H 0.17464 0.23876 0.24078 0.0
H698 H 0.18582 0.21341 0.19901 0.0
H699 H 0.14068 0.14348 0.22924 0.0
C700 C 0.09794 0.20608 0.30756 0.0
C701 C 0.09655 0.23351 0.3155 0.0
C702 C 0.11673 0.25229 0.30673 0.0
C703 C 0.13698 0.24425 0.2887 0.0
C704 C 0.13716 0.21721 0.28029 0.0
C705 C 0.11851 0.19825 0.28997 0.0
C706 C 0.12105 0.17127 0.27562 0.0
C707 C 0.13091 0.1494 0.29528 0.0
C708 C 0.09417 0.16248 0.26189 0.0
C709 C 0.14258 0.17858 0.25497 0.0
C710 C 0.15195 0.20505 0.25816 0.0
C711 C 0.16835 0.21769 0.23868 0.0
C712 C 0.17458 0.20321 0.21501 0.0
C713 C 0.16462 0.17635 0.21125 0.0
C714 C 0.14946 0.16362 0.23205 0.0
H715 H 0.04671 0.80476 0.57408 0.0
H716 H -0.00632 0.87378 0.5768 0.0
H717 H 0.01766 0.89418 0.53798 0.0
H718 H 0.10943 0.84447 0.54886 0.0
H719 H 0.11902 0.81641 0.52767 0.0
H720 H 0.10198 0.81012 0.55945 0.0
H721 H 0.0652 0.78171 0.53405 0.0
H722 H 0.08178 0.78824 0.50224 0.0
H723 H 0.04682 0.79698 0.50657 0.0
H724 H 0.03906 0.9017 0.49363 0.0
H725 H 0.06091 0.89831 0.44861 0.0
H726 H 0.10225 0.82627 0.47478 0.0
C727 C 0.041 0.82471 0.56724 0.0
C728 C 0.01838 0.8377 0.57841 0.0
C729 C 0.01094 0.86345 0.56847 0.0
C730 C 0.0245 0.87528 0.54649 0.0
C731 C 0.04573 0.86131 0.53488 0.0
C732 C 0.05441 0.83686 0.5452 0.0
C733 C 0.0757 0.82466 0.52702 0.0
C734 C 0.10317 0.82388 0.54162 0.0
C735 C 0.06682 0.79623 0.51687 0.0
C736 C 0.07626 0.84516 0.50413 0.0
C737 C 0.05902 0.86631 0.50926 0.0
C738 C 0.05335 0.88583 0.48971 0.0
C739 C 0.0656 0.88368 0.46423 0.0
C740 C 0.08344 0.86238 0.45879 0.0
C741 C 0.08921 0.84316 0.47902 0.0
H742 H 0.42364 0.81625 0.82187 0.0
H743 H 0.49946 0.79726 0.78266 0.0
H744 H 0.48283 0.81679 0.73987 0.0
H745 H 0.38063 0.80081 0.76988 0.0
H746 H 0.35802 0.82877 0.77381 0.0
H747 H 0.37672 0.81675 0.80258 0.0
H748 H 0.39727 0.86489 0.81066 0.0
H749 H 0.37817 0.87726 0.78221 0.0
H750 H 0.41438 0.8823 0.78327 0.0
H751 H 0.45469 0.82698 0.7005 0.0
H752 H 0.42014 0.83882 0.66693 0.0
H753 H 0.36469 0.85958 0.7314 0.0
C754 C 0.43691 0.81701 0.8044 0.0
C755 C 0.4627 0.80531 0.80526 0.0
C756 C 0.47971 0.80639 0.78226 0.0
C757 C 0.47042 0.81732 0.75793 0.0
C758 C 0.44451 0.82782 0.75739 0.0
C759 C 0.4283 0.82876 0.78017 0.0
C760 C 0.40099 0.84065 0.77363 0.0
C761 C 0.37773 0.82053 0.78038 0.0
C762 C 0.39751 0.8679 0.78831 0.0
C763 C 0.40386 0.84462 0.7433 0.0
C764 C 0.4291 0.83676 0.73449 0.0
C765 C 0.43539 0.83451 0.70715 0.0
C766 C 0.41566 0.84125 0.68827 0.0
C767 C 0.39044 0.85123 0.69678 0.0
C768 C 0.38428 0.85287 0.7246 0.0
H769 H 0.43392 0.23526 0.06056 0.0
H770 H 0.51364 0.20223 0.07372 0.0
H771 H 0.50763 0.17316 0.03319 0.0
H772 H 0.40162 0.17212 0.03602 0.0
H773 H 0.38123 0.18966 0.01157 0.0
H774 H 0.39117 0.20632 0.04272 0.0
H775 H 0.41239 0.24615 0.01514 0.0
H776 H 0.40267 0.22956 0.98395 0.0
H777 H 0.43758 0.23916 0.98979 0.0
H778 H 0.49456 0.15099 0.98857 0.0
H779 H 0.47406 0.13548 0.94514 0.0
H780 H 0.40262 0.18209 0.96281 0.0
C781 C 0.44999 0.22165 0.05518 0.0
C782 C 0.47424 0.22104 0.07031 0.0
C783 C 0.49479 0.20296 0.06252 0.0
C784 C 0.49161 0.18639 0.0395 0.0
C785 C 0.46764 0.18791 0.02473 0.0
C786 C 0.44706 0.20485 0.03247 0.0
C787 C 0.42365 0.20337 0.01272 0.0
C788 C 0.3979 0.19219 0.02659 0.0
C789 C 0.41881 0.23121 -0.00037 0.0
C790 C 0.43449 0.18338 0.99237 0.0
C791 C 0.45988 0.17466 -0.00044 0.0
C792 C 0.4745 0.15735 0.98293 0.0
C793 C 0.46278 0.14874 0.9583 0.0
C794 C 0.43669 0.15738 0.95074 0.0
C795 C 0.42242 0.17474 0.96819 0.0
H796 H 0.0369 0.81311 0.18176 0.0
H797 H 0.02776 0.727 0.19774 0.0
H798 H 0.05738 0.73202 0.23809 0.0
H799 H 0.10935 0.82042 0.20797 0.0
H800 H 0.10237 0.85356 0.22147 0.0
H801 H 0.08553 0.84184 0.191 0.0
H802 H 0.03907 0.85084 0.2133 0.0
H803 H 0.05565 0.86227 0.24378 0.0
H804 H 0.03088 0.83494 0.24528 0.0
H805 H 0.07895 0.74866 0.28182 0.0
H806 H 0.09345 0.77476 0.32254 0.0
H807 H 0.09072 0.84917 0.27565 0.0
C808 C 0.042 0.79518 0.19321 0.0
C809 C 0.03024 0.76973 0.1868 0.0
C810 C 0.03696 0.74664 0.20226 0.0
C811 C 0.05371 0.74932 0.22519 0.0
C812 C 0.06409 0.77506 0.23176 0.0
C813 C 0.05901 0.79746 0.21574 0.0
C814 C 0.07009 0.82329 0.22839 0.0
C815 C 0.09322 0.83549 0.21118 0.0
C816 C 0.04758 0.84402 0.23296 0.0
C817 C 0.08055 0.81227 0.25487 0.0
C818 C 0.07732 0.78439 0.25646 0.0
C819 C 0.08236 0.77038 0.28051 0.0
C820 C 0.09046 0.78536 0.30357 0.0
C821 C 0.09325 0.81399 0.30229 0.0
C822 C 0.08908 0.82728 0.27733 0.0
H823 H 0.46995 0.81364 0.45594 0.0
H824 H 0.40581 0.76768 0.41537 0.0
H825 H 0.37268 0.78516 0.44822 0.0
H826 H 0.44728 0.80019 0.52221 0.0
H827 H 0.45692 0.83309 0.53555 0.0
H828 H 0.47491 0.81929 0.50717 0.0
H829 H 0.46472 0.86234 0.47903 0.0
H830 H 0.44659 0.87625 0.50736 0.0
H831 H 0.43018 0.87262 0.47481 0.0
H832 H 0.34701 0.80616 0.48645 0.0
H833 H 0.33135 0.82602 0.5296 0.0
H834 H 0.41281 0.8565 0.54597 0.0
C835 C 0.44886 0.80759 0.45376 0.0
C836 C 0.44032 0.78954 0.4331 0.0
C837 C 0.41269 0.78157 0.43112 0.0
C838 C 0.39373 0.7915 0.44954 0.0
C839 C 0.40284 0.8092 0.46981 0.0
C840 C 0.42978 0.81701 0.47215 0.0
C841 C 0.43473 0.83442 0.49702 0.0
C842 C 0.45462 0.82093 0.51664 0.0
C843 C 0.44464 0.86311 0.48907 0.0
C844 C 0.40645 0.83478 0.50857 0.0
C845 C 0.38824 0.82056 0.49233 0.0
C846 C 0.36103 0.81751 0.49925 0.0
C847 C 0.35232 0.82891 0.52372 0.0
C848 C 0.37093 0.84273 0.54103 0.0
C849 C 0.39819 0.846 0.53309 0.0
H850 H 0.37791 0.2166 0.69098 0.0
H851 H 0.42234 0.15935 0.64226 0.0
H852 H 0.4228 0.12755 0.68086 0.0
H853 H 0.41685 0.2132 0.74337 0.0
H854 H 0.39212 0.21608 0.77 0.0
H855 H 0.38531 0.22986 0.73709 0.0
H856 H 0.34112 0.20095 0.73294 0.0
H857 H 0.34708 0.18778 0.76651 0.0
H858 H 0.34196 0.1648 0.73837 0.0
H859 H 0.42763 0.10706 0.72686 0.0
H860 H 0.43466 0.09892 0.77598 0.0
H861 H 0.39222 0.17257 0.7949 0.0
C862 C 0.38633 0.19672 0.68787 0.0
C863 C 0.39996 0.19034 0.66363 0.0
C864 C 0.41158 0.1645 0.66063 0.0
C865 C 0.41195 0.14633 0.68248 0.0
C866 C 0.40061 0.1544 0.70702 0.0
C867 C 0.38759 0.17886 0.7097 0.0
C868 C 0.38179 0.18534 0.73913 0.0
C869 C 0.39481 0.21272 0.74788 0.0
C870 C 0.35117 0.18466 0.74455 0.0
C871 C 0.39536 0.16182 0.75267 0.0
C872 C 0.40518 0.14364 0.73388 0.0
C873 C 0.41965 0.12095 0.74173 0.0
C874 C 0.42385 0.11666 0.76951 0.0
C875 C 0.41448 0.1355 0.78883 0.0
C876 C 0.40001 0.15822 0.78032 0.0
H877 H 0.04271 0.17717 0.9429 0.0
H878 H -0.00315 0.24049 0.98182 0.0
H879 H 0.01866 0.23049 0.02549 0.0
H880 H 0.04391 0.13012 -0.00035 0.0
H881 H 0.07846 0.12044 -0.00572 0.0
H882 H 0.05812 0.13105 0.96597 0.0
H883 H 0.09407 0.16812 0.95396 0.0
H884 H 0.11458 0.15749 0.9821 0.0
H885 H 0.10461 0.19238 0.97951 0.0
H886 H 0.04372 0.21349 0.06472 0.0
H887 H 0.07596 0.19454 0.09721 0.0
H888 H 0.10955 0.14466 0.03327 0.0
C889 C 0.03732 0.18877 0.96071 0.0
C890 C 0.0181 0.20953 0.95916 0.0
C891 C 0.01168 0.22462 0.98265 0.0
C892 C 0.02378 0.21897 0.00757 0.0
C893 C 0.04262 0.19846 0.00856 0.0
C894 C 0.04984 0.18388 0.98578 0.0
C895 C 0.07217 0.16425 0.99244 0.0
C896 C 0.06258 0.13471 0.98781 0.0
C897 C 0.09788 0.17097 0.97603 0.0
C898 C 0.07626 0.17022 0.02243 0.0
C899 C 0.05853 0.18963 0.03127 0.0
C900 C 0.05784 0.19836 0.0581 0.0
C901 C 0.07616 0.18735 0.07642 0.0
C902 C 0.0953 0.16818 0.06774 0.0
C903 C 0.0952 0.15937 0.0404 0.0
H904 H 0.32938 0.06184 0.21637 0.0
H905 H 0.34379 0.00533 0.15062 0.0
H906 H 0.31427 0.03198 0.12064 0.0
H907 H 0.26212 0.06652 0.2058 0.0
H908 H 0.25949 0.10192 0.21451 0.0
H909 H 0.28631 0.08236 0.2286 0.0
H910 H 0.32177 0.1168 0.20948 0.0
H911 H 0.29492 0.13657 0.1953 0.0
H912 H 0.32167 0.12474 0.17377 0.0
H913 H 0.27813 0.06055 0.10023 0.0
H914 H 0.23657 0.08634 0.09226 0.0
H915 H 0.24492 0.12309 0.172 0.0
C916 C 0.32707 0.05557 0.1954 0.0
C917 C 0.33904 0.03169 0.18571 0.0
C918 C 0.33492 0.0237 0.15838 0.0
C919 C 0.31833 0.0388 0.14117 0.0
C920 C 0.30612 0.06184 0.15163 0.0
C921 C 0.31037 0.07021 0.17814 0.0
C922 C 0.29205 0.09321 0.18573 0.0
C923 C 0.27393 0.08552 0.21008 0.0
C924 C 0.3086 0.11938 0.1914 0.0
C925 C 0.27582 0.09556 0.15985 0.0
C926 C 0.28473 0.07788 0.14011 0.0
C927 C 0.27133 0.07486 0.11532 0.0
C928 C 0.24776 0.08964 0.11095 0.0
C929 C 0.23761 0.10675 0.13152 0.0
C930 C 0.25237 0.11033 0.15584 0.0
H931 H 0.17658 0.0488 0.47017 0.0
H932 H 0.17427 0.09276 0.39417 0.0
H933 H 0.146 0.05599 0.37399 0.0
H934 H 0.18972 0.98892 0.44214 0.0
H935 H 0.17042 0.96765 0.46507 0.0
H936 H 0.18299 0.00023 0.47626 0.0
H937 H 0.13445 0.01429 0.48911 0.0
H938 H 0.12166 0.98149 0.47819 0.0
H939 H 0.10783 0.01197 0.46411 0.0
H940 H 0.1258 0.01221 0.35982 0.0
H941 H 0.11746 0.96364 0.35134 0.0
H942 H 0.13562 0.94612 0.43574 0.0
C943 C 0.16895 0.05118 0.44971 0.0
C944 C 0.17694 0.0737 0.43379 0.0
C945 C 0.1679 0.07574 0.40668 0.0
C946 C 0.15175 0.05504 0.39516 0.0
C947 C 0.14513 0.03244 0.41101 0.0
C948 C 0.15344 0.03034 0.43774 0.0
C949 C 0.14806 0.00203 0.44874 0.0
C950 C 0.17436 0.98896 0.4586 0.0
C951 C 0.12672 0.00248 0.47138 0.0
C952 C 0.13699 0.98811 0.42355 0.0
C953 C 0.13461 0.00627 0.40234 0.0
C954 C 0.12711 -0.00212 0.37638 0.0
C955 C 0.12261 0.97016 0.37175 0.0
C956 C 0.12611 0.95102 0.39286 0.0
C957 C 0.1326 0.96027 0.41927 0.0
H958 H 0.21241 0.94193 0.77409 0.0
H959 H 0.14404 0.94234 0.71883 0.0
H960 H 0.17133 0.91989 0.68383 0.0
H961 H 0.25947 0.96128 0.72711 0.0
H962 H 0.28676 0.94098 0.7395 0.0
H963 H 0.26067 0.95152 0.76234 0.0
H964 H 0.25052 0.90144 0.77549 0.0
H965 H 0.27687 0.8907 0.75288 0.0
H966 H 0.24302 0.87682 0.74928 0.0
H967 H 0.20696 0.90381 0.65315 0.0
H968 H 0.24901 0.89494 0.62829 0.0
H969 H 0.29513 0.90634 0.70277 0.0
C970 C 0.20298 0.93629 0.75498 0.0
C971 C 0.17613 0.94344 0.74914 0.0
C972 C 0.16459 0.93678 0.72362 0.0
C973 C 0.17987 0.92395 0.7037 0.0
C974 C 0.20664 0.91805 0.70966 0.0
C975 C 0.21813 0.92385 0.73469 0.0
C976 C 0.24821 0.91862 0.73463 0.0
C977 C 0.26473 0.94465 0.74127 0.0
C978 C 0.25505 0.89551 0.75423 0.0
C979 C 0.25195 0.91006 0.70538 0.0
C980 C 0.22763 0.90937 0.69152 0.0
C981 C 0.2261 0.90383 0.66384 0.0
C982 C 0.25014 0.89899 0.64988 0.0
C983 C 0.27537 0.90003 0.66357 0.0
C984 C 0.27615 0.90526 0.69177 0.0
H985 H 0.29477 0.94288 0.92723 0.0
H986 H 0.22476 0.9877 0.95311 0.0
H987 H 0.25182 0.03054 0.95117 0.0
H988 H 0.34547 0.98151 0.96251 0.0
H989 H 0.36981 0.98049 0.93534 0.0
H990 H 0.3452 0.95328 0.93917 0.0
H991 H 0.32852 0.96026 0.88975 0.0
H992 H 0.35359 0.98693 0.88558 0.0
H993 H 0.31844 0.99355 0.87908 0.0
H994 H 0.28737 0.06797 0.94865 0.0
H995 H 0.32562 0.0986 0.93629 0.0
H996 H 0.37121 0.02948 0.90911 0.0
C997 C 0.28512 0.96177 0.93227 0.0
C998 C 0.2578 0.96212 0.9404 0.0
C999 C 0.24567 0.98714 0.94664 0.0
C1000 C 0.26095 0.01146 0.94592 0.0
C1001 C 0.28813 0.01032 0.93857 0.0
C1002 C 0.29988 0.98622 0.93113 0.0
C1003 C 0.32892 0.99068 0.92228 0.0
C1004 C 0.3485 0.97559 0.94095 0.0
C1005 C 0.33257 0.98238 0.8924 0.0
C1006 C 0.33174 0.02108 0.92599 0.0
C1007 C 0.3082 0.03196 0.93599 0.0
C1008 C 0.30592 0.05969 0.94086 0.0
C1009 C 0.32787 0.07687 0.93415 0.0
C1010 C 0.35143 0.06624 0.9222 0.0
C1011 C 0.35358 0.03797 0.91871 0.0
H1012 H 0.30151 0.95931 0.31259 0.0
H1013 H 0.31311 0.90251 0.24644 0.0
H1014 H 0.27134 0.87749 0.25974 0.0
H1015 H 0.27681 0.90883 0.36089 0.0
H1016 H 0.25304 0.93146 0.3762 0.0
H1017 H 0.2838 0.94489 0.36139 0.0
H1018 H 0.2558 0.9765 0.33068 0.0
H1019 H 0.22499 0.96315 0.34538 0.0
H1020 H 0.22973 0.96202 0.30913 0.0
H1021 H 0.22644 0.86093 0.27811 0.0
H1022 H 0.18383 0.85141 0.30316 0.0
H1023 H 0.20392 0.91649 0.35952 0.0
C1024 C 0.29526 0.94156 0.30099 0.0
C1025 C 0.31036 0.93286 0.27843 0.0
C1026 C 0.30178 0.90942 0.26385 0.0
C1027 C 0.27809 0.89514 0.27119 0.0
C1028 C 0.26355 0.90431 0.29346 0.0
C1029 C 0.272 0.92673 0.3084 0.0
C1030 C 0.25298 0.93205 0.33176 0.0
C1031 C 0.26753 0.92912 0.35918 0.0
C1032 C 0.24012 0.96009 0.32906 0.0
C1033 C 0.23231 0.90937 0.32735 0.0
C1034 C 0.23859 0.89376 0.305 0.0
C1035 C 0.22153 0.87271 0.29593 0.0
C1036 C 0.19742 0.86748 0.31017 0.0
C1037 C 0.191 0.88292 0.33342 0.0
C1038 C 0.20876 0.90398 0.34216 0.0
H1039 H 0.27804 0.06548 0.54428 0.0
H1040 H 0.3176 0.05027 0.46719 0.0
H1041 H 0.34181 0.01235 0.48768 0.0
H1042 H 0.33652 0.04631 0.58824 0.0
H1043 H 0.31452 0.03078 0.61316 0.0
H1044 H 0.30313 0.05929 0.59365 0.0
H1045 H 0.26117 0.03103 0.57779 0.0
H1046 H 0.27241 0.0025 0.59715 0.0
H1047 H 0.26593 -0.00122 0.5613 0.0
H1048 H 0.35594 0.97241 0.5136 0.0
H1049 H 0.36051 0.93339 0.54451 0.0
H1050 H 0.31396 0.97509 0.60568 0.0
C1051 C 0.29222 0.05455 0.53186 0.0
C1052 C 0.29588 0.06084 0.50413 0.0
C1053 C 0.31445 0.04587 0.48849 0.0
C1054 C 0.32843 0.02436 0.49996 0.0
C1055 C 0.32393 0.01832 0.52717 0.0
C1056 C 0.30652 0.0331 0.54305 0.0
C1057 C 0.30368 0.02096 0.57113 0.0
C1058 C 0.31516 0.0405 0.59283 0.0
C1059 C 0.27405 0.01283 0.57717 0.0
C1060 C 0.32119 -0.00368 0.56807 0.0
C1061 C 0.3329 -0.00461 0.54261 0.0
C1062 C 0.34751 0.97319 0.53384 0.0
C1063 C 0.34988 0.95113 0.55141 0.0
C1064 C 0.33788 0.95163 0.57742 0.0
C1065 C 0.32392 0.9747 0.58611 0.0
H1066 H 0.19415 0.06427 0.85116 0.0
H1067 H 0.19388 0.07522 0.7638 0.0
H1068 H 0.23747 0.10044 0.76688 0.0
H1069 H 0.22878 0.13143 0.8681 0.0
H1070 H 0.24716 0.11616 0.89556 0.0
H1071 H 0.21372 0.10362 0.88687 0.0
H1072 H 0.23262 0.05521 0.88131 0.0
H1073 H 0.26604 0.06765 0.88956 0.0
H1074 H 0.26012 0.04983 0.85805 0.0
H1075 H 0.28513 0.11518 0.77841 0.0
H1076 H 0.33061 0.12352 0.79854 0.0
H1077 H 0.2981 0.10551 0.87834 0.0
C1078 C 0.20281 0.07278 0.83279 0.0
C1079 C 0.19071 0.06782 0.80727 0.0
C1080 C 0.20272 0.07903 0.78361 0.0
C1081 C 0.2275 0.09332 0.78515 0.0
C1082 C 0.23959 0.09672 0.81054 0.0
C1083 C 0.22729 0.08735 0.83403 0.0
C1084 C 0.24536 0.09158 0.85852 0.0
C1085 C 0.23302 0.11192 0.87843 0.0
C1086 C 0.25138 0.06446 0.87266 0.0
C1087 C 0.27025 0.10348 0.84494 0.0
C1088 C 0.26661 0.10642 0.81728 0.0
C1089 C 0.28799 0.11383 0.80014 0.0
C1090 C 0.31371 0.11832 0.81164 0.0
C1091 C 0.31755 0.11562 0.83995 0.0
C1092 C 0.29546 0.10854 0.85672 0.0
H1093 H 0.19779 0.94007 0.06208 0.0
H1094 H 0.13274 0.93978 0.00284 0.0
H1095 H 0.1125 0.97871 0.026 0.0
H1096 H 0.15524 0.96549 0.12195 0.0
H1097 H 0.18366 0.98545 0.13436 0.0
H1098 H 0.18917 0.95359 0.11737 0.0
H1099 H 0.2213 0.9782 0.0835 0.0
H1100 H 0.21558 0.01008 0.09995 0.0
H1101 H 0.20898 0.00641 0.06412 0.0
H1102 H 0.10634 0.02378 0.04753 0.0
H1103 H 0.11174 0.06869 0.0697 0.0
H1104 H 0.17896 0.03868 0.11673 0.0
C1105 C 0.17866 0.94746 0.0547 0.0
C1106 C 0.16687 0.93696 0.03068 0.0
C1107 C 0.14207 0.94742 0.02132 0.0
C1108 C 0.13039 0.96955 0.03436 0.0
C1109 C 0.14341 0.98055 0.05707 0.0
C1110 C 0.16663 0.9694 0.06765 0.0
C1111 C 0.1784 0.98683 0.09027 0.0
C1112 C 0.17649 0.97195 0.11761 0.0
C1113 C 0.20778 -0.00409 0.08406 0.0
C1114 C 0.15938 0.01045 0.08936 0.0
C1115 C 0.13909 0.00632 0.07034 0.0
C1116 C 0.12149 0.02689 0.06317 0.0
C1117 C 0.12482 0.05236 0.07564 0.0
C1118 C 0.14547 0.05685 0.09513 0.0
C1119 C 0.16249 0.03545 0.10247 0.0
H1120 H 0.29255 0.28225 0.03231 0.0
H1121 H 0.23025 0.34158 0.01849 0.0
H1122 H 0.19689 0.31162 0.04123 0.0
H1123 H 0.24891 0.22308 0.02001 0.0
H1124 H 0.2649 0.20283 0.04565 0.0
H1125 H 0.28409 0.22899 0.0283 0.0
H1126 H 0.29693 0.25081 0.07459 0.0
H1127 H 0.27758 0.22487 0.09207 0.0
H1128 H 0.27053 0.26016 0.09779 0.0
H1129 H 0.17103 0.27706 0.06741 0.0
H1130 H 0.15234 0.237 0.09113 0.0
H1131 H 0.23037 0.19836 0.08599 0.0
C1132 C 0.27186 0.28885 0.034 0.0
C1133 C 0.26399 0.31427 0.02375 0.0
C1134 C 0.2367 0.32214 0.0261 0.0
C1135 C 0.21762 0.30535 0.0391 0.0
C1136 C 0.22609 0.28062 0.04929 0.0
C1137 C 0.2524 0.27211 0.04654 0.0
C1138 C 0.25587 0.24417 0.05873 0.0
C1139 C 0.26391 0.22355 0.03687 0.0
C1140 C 0.27645 0.24507 0.08219 0.0
C1141 C 0.22744 0.23851 0.069 0.0
C1142 C 0.21074 0.25998 0.06357 0.0
C1143 C 0.1838 0.25999 0.07162 0.0
C1144 C 0.17345 0.2372 0.08524 0.0
C1145 C 0.18992 0.21457 0.09036 0.0
C1146 C 0.21731 0.21533 0.08222 0.0
H1147 H 0.65052 0.16998 0.94588 0.0
H1148 H 0.72919 0.17235 0.90702 0.0
H1149 H 0.71514 0.21127 0.87936 0.0
H1150 H 0.6101 0.19585 0.88497 0.0
H1151 H 0.58886 0.21498 0.90736 0.0
H1152 H 0.60239 0.18313 0.91843 0.0
H1153 H 0.62307 0.20728 0.96061 0.0
H1154 H 0.61021 0.23918 0.94952 0.0
H1155 H 0.64591 0.23592 0.95595 0.0
H1156 H 0.69693 0.25576 0.86458 0.0
H1157 H 0.67437 0.29989 0.86088 0.0
H1158 H 0.60744 0.26816 0.90902 0.0
C1159 C 0.66436 0.1779 0.93068 0.0
C1160 C 0.6909 0.16817 0.92858 0.0
C1161 C 0.70866 0.17937 0.90884 0.0
C1162 C 0.70085 0.20151 0.89302 0.0
C1163 C 0.6751 0.21182 0.89689 0.0
C1164 C 0.65686 0.19997 0.9148 0.0
C1165 C 0.63188 0.21689 0.91795 0.0
C1166 C 0.60682 0.20181 0.90648 0.0
C1167 C 0.62755 0.22531 0.94776 0.0
C1168 C 0.6397 0.24098 0.90049 0.0
C1169 C 0.66445 0.23752 0.88809 0.0
C1170 C 0.67718 0.2584 0.87353 0.0
C1171 C 0.66434 0.28346 0.87174 0.0
C1172 C 0.63913 0.28743 0.8846 0.0
C1173 C 0.62651 0.26566 0.89861 0.0
H1174 H 0.04369 0.42716 0.21208 0.0
H1175 H 0.05916 0.48836 0.15041 0.0
H1176 H 0.02243 0.46857 0.12235 0.0
H1177 H 0.0235 0.37082 0.16419 0.0
H1178 H -0.00228 0.35826 0.18705 0.0
H1179 H 0.02805 0.37435 0.20035 0.0
H1180 H -0.001 0.40855 0.22707 0.0
H1181 H 0.96884 0.39231 0.21397 0.0
H1182 H 0.97443 0.42823 0.20905 0.0
H1183 H 0.98006 0.44776 0.10498 0.0
H1184 H 0.93466 0.4266 0.09918 0.0
H1185 H 0.94753 0.37739 0.17072 0.0
C1186 C 0.03975 0.43598 0.19238 0.0
C1187 C 0.05423 0.45923 0.18335 0.0
C1188 C 0.0483 0.47049 0.15767 0.0
C1189 C 0.02761 0.4593 0.14151 0.0
C1190 C 0.01333 0.43669 0.15122 0.0
C1191 C 0.01922 0.42499 0.17597 0.0
C1192 C -0.00089 0.40247 0.18288 0.0
C1193 C 0.01293 0.37483 0.18365 0.0
C1194 C 0.98448 0.40827 0.20982 0.0
C1195 C 0.9802 0.40436 0.15883 0.0
C1196 C 0.98901 0.42396 0.1406 0.0
C1197 C 0.97329 0.43181 0.11859 0.0
C1198 C 0.94759 0.41979 0.11549 0.0
C1199 C 0.93811 0.4001 0.1342 0.0
C1200 C 0.95487 0.39172 0.15563 0.0
H1201 H 0.76598 0.78539 0.44642 0.0
H1202 H 0.83089 0.84382 0.43167 0.0
H1203 H 0.8554 0.80944 0.4051 0.0
H1204 H 0.80746 0.73444 0.46248 0.0
H1205 H 0.78722 0.70706 0.44825 0.0
H1206 H 0.77132 0.73762 0.45918 0.0
H1207 H 0.75038 0.74366 0.41133 0.0
H1208 H 0.76606 0.71284 0.40028 0.0
H1209 H 0.77202 0.744 0.38191 0.0
H1210 H 0.87528 0.76754 0.38568 0.0
H1211 H 0.89108 0.72069 0.3789 0.0
H1212 H 0.81521 0.68892 0.41097 0.0
C1213 C 0.78478 0.79115 0.43649 0.0
C1214 C 0.79639 0.81719 0.44023 0.0
C1215 C 0.82163 0.82395 0.42838 0.0
C1216 C 0.83554 0.80464 0.41322 0.0
C1217 C 0.82402 0.77868 0.41062 0.0
C1218 C 0.79924 0.77187 0.42208 0.0
C1219 C 0.79357 0.74162 0.42078 0.0
C1220 C 0.78969 0.7295 0.44937 0.0
C1221 C 0.76905 0.73516 0.40248 0.0
C1222 C 0.8195 0.73236 0.4079 0.0
C1223 C 0.8364 0.75407 0.40129 0.0
C1224 C 0.86209 0.7504 0.39043 0.0
C1225 C 0.8709 0.7238 0.3867 0.0
C1226 C 0.85431 0.70147 0.3946 0.0
C1227 C 0.8282 0.70581 0.40485 0.0
H1228 H 0.98063 0.02541 0.16902 0.0
H1229 H 0.93819 0.08753 0.21363 0.0
H1230 H 0.97817 0.11827 0.20948 0.0
H1231 H 0.04399 0.03696 0.19979 0.0
H1232 H 0.06327 0.03063 0.1695 0.0
H1233 H 0.03062 0.01441 0.17396 0.0
H1234 H 0.01426 0.03436 0.12825 0.0
H1235 H 0.047 0.05035 0.12347 0.0
H1236 H 0.01698 0.07047 0.12263 0.0
H1237 H 0.02363 0.14152 0.20168 0.0
H1238 H 0.07064 0.15551 0.19031 0.0
H1239 H 0.08293 0.07706 0.15255 0.0
C1240 C 0.97948 0.04563 0.17754 0.0
C1241 C 0.95623 0.05414 0.19151 0.0
C1242 C 0.95578 0.08063 0.20274 0.0
C1243 C 0.97837 0.09821 0.20051 0.0
C1244 C 0.00118 0.08889 0.1871 0.0
C1245 C 0.00183 0.06325 0.17574 0.0
C1246 C 0.0291 0.05759 0.16342 0.0
C1247 C 0.04253 0.03347 0.17752 0.0
C1248 C 0.02668 0.05293 0.13262 0.0
C1249 C 0.04382 0.08399 0.16979 0.0
C1250 C 0.0274 0.1019 0.18328 0.0
C1251 C 0.03666 0.12768 0.19107 0.0
C1252 C 0.06334 0.13542 0.18457 0.0
C1253 C 0.08039 0.11729 0.1707 0.0
C1254 C 0.07047 0.09123 0.16345 0.0
H1255 H 0.24334 0.7143 0.53014 0.0
H1256 H 0.2676 0.6534 0.58816 0.0
H1257 H 0.28415 0.68964 0.61931 0.0
H1258 H 0.2973 0.75812 0.53762 0.0
H1259 H 0.27849 0.78895 0.53503 0.0
H1260 H 0.26579 0.7584 0.51913 0.0
H1261 H 0.22074 0.76237 0.54566 0.0
H1262 H 0.23337 0.79303 0.5617 0.0
H1263 H 0.22146 0.76496 0.58217 0.0
H1264 H 0.30589 0.73172 0.63913 0.0
H1265 H 0.32666 0.77709 0.64854 0.0
H1266 H 0.28313 0.81043 0.58039 0.0
C1267 C 0.25167 0.70873 0.54966 0.0
C1268 C 0.25446 0.68134 0.5569 0.0
C1269 C 0.2653 0.67447 0.58249 0.0
C1270 C 0.27467 0.69485 0.60025 0.0
C1271 C 0.27214 0.72181 0.59231 0.0
C1272 C 0.26033 0.72877 0.56788 0.0
C1273 C 0.26116 0.75908 0.56346 0.0
C1274 C 0.27661 0.76655 0.53728 0.0
C1275 C 0.23247 0.77053 0.56325 0.0
C1276 C 0.2766 0.76799 0.5885 0.0
C1277 C 0.28279 0.74626 0.60496 0.0
C1278 C 0.30034 0.74907 0.62706 0.0
C1279 C 0.31207 0.77474 0.63222 0.0
C1280 C 0.30565 0.79705 0.61565 0.0
C1281 C 0.28731 0.79376 0.59398 0.0
H1282 H 0.06705 0.56897 0.29649 0.0
H1283 H 0.05849 0.48399 0.31824 0.0
H1284 H 0.02084 0.4949 0.34888 0.0
H1285 H 0.0469 0.59635 0.36641 0.0
H1286 H 0.0299 0.62436 0.35083 0.0
H1287 H 0.05961 0.61066 0.33516 0.0
H1288 H 0.03259 0.60321 0.29056 0.0
H1289 H 0.00278 0.61639 0.3061 0.0
H1290 H 0.00176 0.58297 0.29114 0.0
H1291 H 0.97792 0.51285 0.36698 0.0
H1292 H 0.93643 0.53826 0.37734 0.0
H1293 H 0.97498 0.61221 0.34792 0.0
C1294 C 0.05787 0.55288 0.30851 0.0
C1295 C 0.0655 0.5257 0.30507 0.0
C1296 C 0.05301 0.505 0.32083 0.0
C1297 C 0.03161 0.511 0.33826 0.0
C1298 C 0.02364 0.53787 0.34025 0.0
C1299 C 0.03692 0.55864 0.32647 0.0
C1300 C 0.02296 0.58539 0.33032 0.0
C1301 C 0.04091 0.60537 0.34666 0.0
C1302 C 0.01452 0.59768 0.30291 0.0
C1303 C -0.00133 0.57603 0.34665 0.0
C1304 C -0.00049 0.54857 0.35237 0.0
C1305 C 0.97746 0.53454 0.36365 0.0
C1306 C 0.954 0.54897 0.36925 0.0
C1307 C 0.9531 0.57706 0.36388 0.0
C1308 C 0.97577 0.59084 0.35295 0.0
H1309 H 0.40682 0.407 0.80598 0.0
H1310 H 0.41 0.48987 0.83591 0.0
H1311 H 0.44491 0.47724 0.86914 0.0
H1312 H 0.42331 0.37188 0.87267 0.0
H1313 H 0.44352 0.34764 0.85476 0.0
H1314 H 0.41413 0.36159 0.83869 0.0
H1315 H 0.44432 0.37612 0.79849 0.0
H1316 H 0.47457 0.36479 0.81477 0.0
H1317 H 0.47237 0.39951 0.80413 0.0
H1318 H 0.48676 0.459 0.88966 0.0
H1319 H 0.52992 0.43571 0.89767 0.0
H1320 H 0.49773 0.36392 0.85728 0.0
C1321 C 0.4141 0.42227 0.82021 0.0
C1322 C 0.40574 0.44939 0.81834 0.0
C1323 C 0.41602 0.4689 0.83706 0.0
C1324 C 0.43579 0.46188 0.8561 0.0
C1325 C 0.44456 0.43518 0.85654 0.0
C1326 C 0.43361 0.41554 0.83941 0.0
C1327 C 0.44911 0.38951 0.84088 0.0
C1328 C 0.43146 0.36628 0.85244 0.0
C1329 C 0.46073 0.38207 0.81289 0.0
C1330 C 0.47128 0.39785 0.86051 0.0
C1331 C 0.46826 0.42424 0.86952 0.0
C1332 C 0.48881 0.43799 0.88373 0.0
C1333 C 0.51324 0.4247 0.88814 0.0
C1334 C 0.51664 0.39789 0.87866 0.0
C1335 C 0.49507 0.38402 0.86569 0.0
H1336 H 0.92922 0.77337 0.72971 0.0
H1337 H 0.91245 0.83092 0.66581 0.0
H1338 H 0.88212 0.85555 0.69644 0.0
H1339 H 0.86062 0.77789 0.76659 0.0
H1340 H 0.87736 0.77608 0.79905 0.0
H1341 H 0.89068 0.75812 0.77024 0.0
H1342 H 0.93714 0.78249 0.77729 0.0
H1343 H 0.92402 0.80054 0.80585 0.0
H1344 H 0.93891 0.81909 0.77791 0.0
H1345 H 0.86181 0.87911 0.73562 0.0
H1346 H 0.85524 0.9005 0.78059 0.0
H1347 H 0.8869 0.82894 0.81944 0.0
C1348 C 0.91811 0.7904 0.72192 0.0
C1349 C 0.92282 0.80018 0.6955 0.0
C1350 C 0.90889 0.82312 0.68607 0.0
C1351 C 0.89146 0.83709 0.70323 0.0
C1352 C 0.88822 0.82783 0.72974 0.0
C1353 C 0.90104 0.80486 0.73903 0.0
C1354 C 0.89833 0.80203 0.76947 0.0
C1355 C 0.88069 0.77704 0.77676 0.0
C1356 C 0.92625 0.80101 0.78342 0.0
C1357 C 0.88395 0.82801 0.77599 0.0
C1358 C 0.8773 0.84212 0.75279 0.0
C1359 C 0.86632 0.86799 0.75394 0.0
C1360 C 0.86275 0.88004 0.77948 0.0
C1361 C 0.87084 0.86638 0.80325 0.0
C1362 C 0.88065 0.83977 0.80145 0.0
H1363 H 0.00104 0.20593 0.43174 0.0
H1364 H 0.93497 0.18391 0.37768 0.0
H1365 H 0.91577 0.15336 0.4126 0.0
H1366 H 0.00347 0.13803 0.47071 0.0
H1367 H 0.01004 0.1559 0.50207 0.0
H1368 H 0.0229 0.16941 0.47052 0.0
H1369 H -0.00082 0.21468 0.48048 0.0
H1370 H 0.9857 0.20125 0.51161 0.0
H1371 H 0.96317 0.21445 0.48628 0.0
H1372 H 0.89835 0.13452 0.45528 0.0
H1373 H 0.88514 0.1256 0.50265 0.0
H1374 H 0.96181 0.16013 0.53047 0.0
C1375 C 0.98345 0.19338 0.42683 0.0
C1376 C 0.96973 0.19661 0.40195 0.0
C1377 C 0.94594 0.18116 0.39651 0.0
C1378 C 0.93491 0.16381 0.41622 0.0
C1379 C 0.94794 0.16227 0.44126 0.0
C1380 C 0.97194 0.17629 0.44656 0.0
C1381 C 0.97943 0.17451 0.47638 0.0
C1382 C 0.00551 0.1585 0.48014 0.0
C1383 C 0.982 0.20291 0.48943 0.0
C1384 C 0.9551 0.1588 0.48721 0.0
C1385 C 0.93748 0.15151 0.46649 0.0
C1386 C 0.91228 0.13946 0.47161 0.0
C1387 C 0.90483 0.13477 0.4986 0.0
C1388 C 0.92248 0.14217 0.52017 0.0
C1389 C 0.94812 0.1539 0.51433 0.0
H1390 H 0.58039 0.25148 0.2234 0.0
H1391 H 0.58385 0.18994 0.16057 0.0
H1392 H 0.60955 0.1606 0.19133 0.0
H1393 H 0.64785 0.23555 0.25786 0.0
H1394 H 0.63338 0.24151 0.29084 0.0
H1395 H 0.62209 0.26059 0.26189 0.0
H1396 H 0.57267 0.24509 0.27175 0.0
H1397 H 0.58375 0.22582 0.30041 0.0
H1398 H 0.5645 0.2093 0.27376 0.0
H1399 H 0.62573 0.13461 0.23072 0.0
H1400 H 0.63138 0.11392 0.27582 0.0
H1401 H 0.61691 0.19186 0.31374 0.0
C1402 C 0.58766 0.23236 0.21576 0.0
C1403 C 0.58043 0.22303 0.1896 0.0
C1404 C 0.58939 0.19749 0.18053 0.0
C1405 C 0.60412 0.18075 0.19781 0.0
C1406 C 0.60978 0.18993 0.22402 0.0
C1407 C 0.60209 0.21528 0.23292 0.0
C1408 C 0.60681 0.21859 0.26314 0.0
C1409 C 0.62885 0.24035 0.26876 0.0
C1410 C 0.58036 0.22506 0.27812 0.0
C1411 C 0.61662 0.19056 0.27012 0.0
C1412 C 0.61889 0.17458 0.24717 0.0
C1413 C 0.62469 0.14708 0.24878 0.0
C1414 C 0.62768 0.13547 0.27451 0.0
C1415 C 0.62459 0.15129 0.29829 0.0
C1416 C 0.61981 0.17935 0.29594 0.0
H1417 H 0.49183 0.79651 0.97284 0.0
H1418 H 0.55115 0.80487 0.90848 0.0
H1419 H 0.58609 0.81798 0.942 0.0
H1420 H 0.52033 0.85184 0.0182 0.0
H1421 H 0.51344 0.83242 0.04848 0.0
H1422 H 0.49178 0.82847 0.01919 0.0
H1423 H 0.49993 0.77671 0.01946 0.0
H1424 H 0.52188 0.78051 0.04845 0.0
H1425 H 0.53408 0.76465 0.01796 0.0
H1426 H 0.61536 0.82409 0.98139 0.0
H1427 H 0.63824 0.82471 0.02559 0.0
H1428 H 0.56095 0.81154 0.06597 0.0
C1429 C 0.51198 0.80205 0.96591 0.0
C1430 C 0.51895 0.80008 0.93824 0.0
C1431 C 0.5456 0.80649 0.92969 0.0
C1432 C 0.56549 0.81401 0.94851 0.0
C1433 C 0.55836 0.81486 0.97578 0.0
C1434 C 0.53229 0.80925 0.9846 0.0
C1435 C 0.53096 0.80893 0.01537 0.0
C1436 C 0.51307 0.83178 0.02593 0.0
C1437 C 0.52114 0.78104 0.02592 0.0
C1438 C 0.56048 0.81433 0.02228 0.0
C1439 C 0.57574 0.81799 -0.00095 0.0
C1440 C 0.60366 0.82165 -0.0002 0.0
C1441 C 0.61648 0.8217 0.02504 0.0
C1442 C 0.60139 0.81803 0.04923 0.0
C1443 C 0.57297 0.81451 0.04782 0.0
H1444 H 0.91565 0.21655 0.78685 0.0
H1445 H 0.95576 0.15237 0.83062 0.0
H1446 H 0.95281 0.12322 0.78969 0.0
H1447 H 0.87011 0.17365 0.74661 0.0
H1448 H 0.87347 0.19493 0.71702 0.0
H1449 H 0.87679 0.20957 0.75043 0.0
H1450 H 0.92398 0.22955 0.73749 0.0
H1451 H 0.92089 0.21483 0.70415 0.0
H1452 H 0.94964 0.20721 0.72514 0.0
H1453 H 0.94671 0.10189 0.7433 0.0
H1454 H 0.9391 0.09049 0.69495 0.0
H1455 H 0.90474 0.16979 0.68194 0.0
C1456 C 0.92342 0.1962 0.78808 0.0
C1457 C 0.93572 0.18661 0.81199 0.0
C1458 C 0.94613 0.16005 0.81251 0.0
C1459 C 0.94452 0.14337 0.78941 0.0
C1460 C 0.93258 0.15368 0.76604 0.0
C1461 C 0.92226 0.1795 0.76524 0.0
C1462 C 0.91185 0.18647 0.7373 0.0
C1463 C 0.88124 0.19144 0.73789 0.0
C1464 C 0.92753 0.21096 0.72532 0.0
C1465 C 0.91812 0.16059 0.72236 0.0
C1466 C 0.92982 0.14179 0.73929 0.0
C1467 C 0.93748 0.11641 0.72989 0.0
C1468 C 0.93306 0.11013 0.70245 0.0
C1469 C 0.9214 0.12932 0.68477 0.0
C1470 C 0.91384 0.1548 0.69496 0.0
H1471 H 0.48796 0.18822 0.52476 0.0
H1472 H 0.54601 0.18962 0.59096 0.0
H1473 H 0.57848 0.1652 0.56237 0.0
H1474 H 0.50625 0.12139 0.49584 0.0
H1475 H 0.50212 0.13299 0.46143 0.0
H1476 H 0.48197 0.14711 0.48823 0.0
H1477 H 0.49885 0.19549 0.47508 0.0
H1478 H 0.51904 0.18153 0.44834 0.0
H1479 H 0.53471 0.20287 0.47391 0.0
H1480 H 0.60588 0.14438 0.52584 0.0
H1481 H 0.62731 0.13025 0.48313 0.0
H1482 H 0.55198 0.14357 0.44003 0.0
C1483 C 0.50726 0.18278 0.53341 0.0
C1484 C 0.51445 0.19055 0.5601 0.0
C1485 C 0.54012 0.18374 0.57055 0.0
C1486 C 0.55862 0.16977 0.55453 0.0
C1487 C 0.55114 0.16285 0.52811 0.0
C1488 C 0.52611 0.16913 0.51757 0.0
C1489 C 0.52412 0.1617 0.48777 0.0
C1490 C 0.50232 0.13947 0.48305 0.0
C1491 C 0.51888 0.1869 0.47026 0.0
C1492 C 0.5522 0.15096 0.48307 0.0
C1493 C 0.56728 0.15138 0.50671 0.0
C1494 C 0.59421 0.14368 0.50723 0.0
C1495 C 0.6062 0.13573 0.48283 0.0
C1496 C 0.59136 0.13584 0.45819 0.0
C1497 C 0.56385 0.14312 0.45852 0.0
H1498 H 0.5587 0.77088 0.30665 0.0
H1499 H 0.57804 0.84728 0.3466 0.0
H1500 H 0.61347 0.85684 0.31234 0.0
H1501 H 0.62849 0.75647 0.27785 0.0
H1502 H 0.61364 0.74409 0.24664 0.0
H1503 H 0.59589 0.73938 0.27829 0.0
H1504 H 0.55415 0.76322 0.2581 0.0
H1505 H 0.5717 0.76801 0.22659 0.0
H1506 H 0.55824 0.79687 0.24414 0.0
H1507 H 0.64012 0.86192 0.27044 0.0
H1508 H 0.65244 0.8649 0.2222 0.0
H1509 H 0.6136 0.78646 0.20741 0.0
C1510 C 0.57129 0.78902 0.30883 0.0
C1511 C 0.56621 0.80812 0.32946 0.0
C1512 C 0.58202 0.83229 0.33108 0.0
C1513 C 0.60226 0.83773 0.31185 0.0
C1514 C 0.60616 0.8189 0.29108 0.0
C1515 C 0.591 0.79504 0.28938 0.0
C1516 C 0.59517 0.78083 0.26246 0.0
C1517 C 0.60914 0.75358 0.26657 0.0
C1518 C 0.56823 0.77705 0.24693 0.0
C1519 C 0.61384 0.80118 0.24863 0.0
C1520 C 0.62069 0.82247 0.26587 0.0
C1521 C 0.63533 0.84515 0.25692 0.0
C1522 C 0.64212 0.8467 0.22943 0.0
C1523 C 0.63387 0.82592 0.2111 0.0
C1524 C 0.62059 0.80238 0.22107 0.0
H1525 H 0.97973 0.7968 0.03382 0.0
H1526 H 0.93108 0.82537 0.10064 0.0
H1527 H 0.91256 0.86103 0.07141 0.0
H1528 H 0.98869 0.86568 -0.00292 0.0
H1529 H 0.98502 0.84904 0.96462 0.0
H1530 H 0.00094 0.83178 0.99247 0.0
H1531 H 0.96675 0.79156 0.98677 0.0
H1532 H 0.95061 0.8087 0.95927 0.0
H1533 H 0.93098 0.79791 0.98826 0.0
H1534 H 0.89197 0.88596 0.0337 0.0
H1535 H 0.8703 0.89752 0.9902 0.0
H1536 H 0.931 0.85188 0.94716 0.0
C1537 C 0.96621 0.81149 0.0425 0.0
C1538 C 0.95698 0.80873 0.06936 0.0
C1539 C 0.93844 0.82742 0.08003 0.0
C1540 C 0.92799 0.84784 0.06365 0.0
C1541 C 0.93629 0.84921 0.03669 0.0
C1542 C 0.95519 0.83166 0.02618 0.0
C1543 C 0.95688 0.83397 -0.00438 0.0
C1544 C 0.98453 0.84583 0.98694 0.0
C1545 C 0.95093 0.80641 0.9817 0.0
C1546 C 0.93461 0.8539 0.9905 0.0
C1547 C 0.92362 0.8632 0.01446 0.0
C1548 C 0.90082 0.8794 0.01478 0.0
C1549 C 0.88854 0.88572 0.99 0.0
C1550 C 0.89886 0.87539 0.96538 0.0
C1551 C 0.92268 0.86008 0.96569 0.0
H1552 H 0.69235 0.96344 0.77549 0.0
H1553 H 0.67796 0.88202 0.74439 0.0
H1554 H 0.70965 0.86416 0.77905 0.0
H1555 H 0.76214 0.95673 0.78413 0.0
H1556 H 0.76393 0.97797 0.81394 0.0
H1557 H 0.73795 0.98317 0.78902 0.0
H1558 H 0.70129 0.97754 0.82634 0.0
H1559 H 0.72722 0.97213 0.85139 0.0
H1560 H 0.70035 0.94723 0.8468 0.0
H1561 H 0.74373 0.85608 0.81734 0.0
H1562 H 0.78148 0.85899 0.85055 0.0
H1563 H 0.7751 0.94655 0.85252 0.0
C1564 C 0.69543 0.94174 0.77625 0.0
C1565 C 0.68241 0.92395 0.75772 0.0
C1566 C 0.68765 0.89586 0.75866 0.0
C1567 C 0.70543 0.88562 0.77833 0.0
C1568 C 0.71792 0.90388 0.79641 0.0
C1569 C 0.71337 0.93141 0.79514 0.0
C1570 C 0.73108 0.94735 0.81471 0.0
C1571 C 0.74989 0.96747 0.79954 0.0
C1572 C 0.71395 0.96191 0.83607 0.0
C1573 C 0.74667 0.92456 0.82718 0.0
C1574 C 0.73843 0.89953 0.81694 0.0
C1575 C 0.75027 0.87556 0.82548 0.0
C1576 C 0.77152 0.87738 0.84441 0.0
C1577 C 0.78096 0.90301 0.85393 0.0
C1578 C 0.76812 0.92675 0.8455 0.0
H1579 H 0.79241 0.93204 0.54205 0.0
H1580 H 0.79175 0.95291 0.45649 0.0
H1581 H 0.82596 0.9893 0.4652 0.0
H1582 H 0.79615 -0.00195 0.56653 0.0
H1583 H 0.81789 0.99077 0.5949 0.0
H1584 H 0.79566 0.96469 0.58147 0.0
H1585 H 0.83635 0.9333 0.57379 0.0
H1586 H 0.85895 0.95915 0.58731 0.0
H1587 H 0.8648 0.9453 0.55399 0.0
H1588 H 0.85672 0.02596 0.48416 0.0
H1589 H 0.88018 0.06097 0.51206 0.0
H1590 H 0.86161 0.01448 0.58467 0.0
C1591 C 0.79963 0.94407 0.52506 0.0
C1592 C 0.78949 0.93973 0.49861 0.0
C1593 C 0.79934 0.95595 0.47694 0.0
C1594 C 0.81885 0.97651 0.48165 0.0
C1595 C 0.82845 0.98024 0.50805 0.0
C1596 C 0.81917 0.96441 0.52936 0.0
C1597 C 0.83121 0.97362 0.55611 0.0
C1598 C 0.80891 0.9823 0.57592 0.0
C1599 C 0.84888 0.95152 0.56852 0.0
C1600 C 0.84818 -0.00238 0.54668 0.0
C1601 C 0.84656 0.001 0.51887 0.0
C1602 C 0.85855 0.02327 0.50588 0.0
C1603 C 0.87181 0.04301 0.52186 0.0
C1604 C 0.87289 0.04027 0.55047 0.0
C1605 C 0.86168 0.01683 0.56281 0.0
H1606 H 0.79923 0.06911 0.25488 0.0
H1607 H 0.85333 0.05766 0.32313 0.0
H1608 H 0.81772 0.07277 0.35445 0.0
H1609 H 0.76141 0.12825 0.2836 0.0
H1610 H 0.72984 0.11562 0.26964 0.0
H1611 H 0.76115 0.10928 0.25227 0.0
H1612 H 0.74994 0.05768 0.25304 0.0
H1613 H 0.7189 0.06376 0.27077 0.0
H1614 H 0.74333 0.04118 0.28506 0.0
H1615 H 0.77485 0.0825 0.37858 0.0
H1616 H 0.72785 0.0877 0.39402 0.0
H1617 H 0.70103 0.09156 0.31011 0.0
C1618 C 0.80391 0.07084 0.2763 0.0
C1619 C 0.82908 0.06257 0.28662 0.0
C1620 C 0.83421 0.06415 0.31485 0.0
C1621 C 0.81413 0.07273 0.33277 0.0
C1622 C 0.78909 0.07961 0.32209 0.0
C1623 C 0.78395 0.07902 0.29449 0.0
C1624 C 0.75447 0.08441 0.28852 0.0
C1625 C 0.75155 0.11098 0.27257 0.0
C1626 C 0.74088 0.06032 0.27347 0.0
C1627 C 0.74368 0.08712 0.3171 0.0
C1628 C 0.76405 0.08468 0.33613 0.0
C1629 C 0.75878 0.08486 0.36388 0.0
C1630 C 0.73198 0.08764 0.37244 0.0
C1631 C 0.71072 0.08996 0.35328 0.0
C1632 C 0.71681 0.08993 0.32527 0.0
H1633 H 0.66942 0.04736 0.07207 0.0
H1634 H 0.69185 0.03442 0.98813 0.0
H1635 H 0.67651 0.98636 0.99162 0.0
H1636 H 0.69461 0.99013 0.09672 0.0
H1637 H 0.66863 0.98326 0.12154 0.0
H1638 H 0.67526 0.01747 0.11064 0.0
H1639 H 0.62504 0.02222 0.0964 0.0
H1640 H 0.6181 0.98797 0.10764 0.0
H1641 H 0.60983 -0.00223 0.07343 0.0
H1642 H 0.66711 0.93781 0.00746 0.0
H1643 H 0.66276 0.89483 0.03343 0.0
H1644 H 0.64615 0.94103 0.10635 0.0
C1645 C 0.67018 0.03466 0.05413 0.0
C1646 C 0.68169 0.04451 0.02985 0.0
C1647 C 0.68271 0.02729 0.00684 0.0
C1648 C 0.67411 -4e-05 0.00867 0.0
C1649 C 0.66408 0.99049 0.03346 0.0
C1650 C 0.66158 0.00759 0.0556 0.0
C1651 C 0.65316 0.99223 0.08079 0.0
C1652 C 0.67417 -0.004 0.10374 0.0
C1653 C 0.62484 0.00054 0.0901 0.0
C1654 C 0.65278 0.96362 0.06984 0.0
C1655 C 0.65864 0.96285 0.04244 0.0
C1656 C 0.66189 0.93824 0.02878 0.0
C1657 C 0.65948 0.91395 0.04367 0.0
C1658 C 0.65428 0.91463 0.07192 0.0
C1659 C 0.65017 0.9398 0.08478 0.0
H1660 H 0.69969 0.02542 0.63677 0.0
H1661 H 0.70336 0.04202 0.72315 0.0
H1662 H 0.74671 0.06732 0.71668 0.0
H1663 H 0.76661 0.0125 0.62674 0.0
H1664 H 0.76938 0.02892 0.59417 0.0
H1665 H 0.73724 0.01536 0.60523 0.0
H1666 H 0.71596 0.0626 0.5984 0.0
H1667 H 0.74822 0.07603 0.58716 0.0
H1668 H 0.73093 0.09193 0.61496 0.0
H1669 H 0.79328 0.08357 0.70151 0.0
H1670 H 0.83635 0.09489 0.67801 0.0
H1671 H 0.80029 0.06988 0.60138 0.0
C1672 C 0.70925 0.03508 0.65419 0.0
C1673 C 0.6983 0.03192 0.68042 0.0
C1674 C 0.71135 0.04458 0.70283 0.0
C1675 C 0.73601 0.05883 0.69936 0.0
C1676 C 0.74685 0.06069 0.67328 0.0
C1677 C 0.73349 0.04973 0.65099 0.0
C1678 C 0.74984 0.0534 0.62531 0.0
C1679 C 0.75613 0.02589 0.61213 0.0
C1680 C 0.73537 0.07211 0.60528 0.0
C1681 C 0.77506 0.06697 0.63677 0.0
C1682 C 0.77303 0.07107 0.66445 0.0
C1683 C 0.79485 0.08107 0.67974 0.0
C1684 C 0.81925 0.08722 0.66631 0.0
C1685 C 0.82145 0.08351 0.6379 0.0
C1686 C 0.79898 0.07346 0.62304 0.0
H1687 H 0.67142 0.90684 0.41707 0.0
H1688 H 0.64473 0.9136 0.50051 0.0
H1689 H 0.61807 0.95338 0.48844 0.0
H1690 H 0.68715 0.96919 0.40799 0.0
H1691 H 0.67596 0.97384 0.3735 0.0
H1692 H 0.68417 0.94061 0.38515 0.0
H1693 H 0.63656 0.92218 0.37177 0.0
H1694 H 0.62826 0.95539 0.35929 0.0
H1695 H 0.60691 0.93888 0.38416 0.0
H1696 H 0.60781 -0.001 0.47193 0.0
H1697 H 0.61027 0.04429 0.4507 0.0
H1698 H 0.64264 0.00859 0.37743 0.0
C1699 C 0.6587 0.91576 0.43242 0.0
C1700 C 0.66022 0.90727 0.4597 0.0
C1701 C 0.64382 0.91975 0.47944 0.0
C1702 C 0.62853 0.94238 0.47273 0.0
C1703 C 0.62947 0.95191 0.44612 0.0
C1704 C 0.64349 0.9385 0.426 0.0
C1705 C 0.64529 0.95531 0.40032 0.0
C1706 C 0.67488 0.96001 0.39126 0.0
C1707 C 0.62823 0.94216 0.37754 0.0
C1708 C 0.63275 0.9813 0.41011 0.0
C1709 C 0.62301 0.97868 0.43629 0.0
C1710 C 0.61441 0.00106 0.45109 0.0
C1711 C 0.61617 0.02675 0.439 0.0
C1712 C 0.62657 0.02985 0.41242 0.0
C1713 C 0.63411 0.0067 0.39758 0.0
H1714 H 0.80033 0.94739 0.2268 0.0
H1715 H 0.84803 0.96118 0.15406 0.0
H1716 H 0.8204 0.92657 0.12969 0.0
H1717 H 0.78723 0.87377 0.2169 0.0
H1718 H 0.75304 0.87578 0.22928 0.0
H1719 H 0.77888 0.89881 0.24209 0.0
H1720 H 0.74989 0.9399 0.2284 0.0
H1721 H 0.72395 0.91702 0.21588 0.0
H1722 H 0.7382 0.94273 0.19385 0.0
H1723 H 0.7857 0.8934 0.11249 0.0
H1724 H 0.74345 0.86812 0.10194 0.0
H1725 H 0.71773 0.87685 0.18572 0.0
C1726 C 0.80523 0.94277 0.20583 0.0
C1727 C 0.82635 0.95675 0.19228 0.0
C1728 C 0.83189 0.95066 0.16475 0.0
C1729 C 0.81648 0.93086 0.15089 0.0
C1730 C 0.79571 0.91746 0.16484 0.0
C1731 C 0.7899 0.92331 0.19165 0.0
C1732 C 0.7647 0.90825 0.20111 0.0
C1733 C 0.77138 0.88795 0.22368 0.0
C1734 C 0.74291 0.92816 0.21033 0.0
C1735 C 0.75667 0.89377 0.17516 0.0
C1736 C 0.77518 0.89879 0.15469 0.0
C1737 C 0.77119 0.88906 0.12841 0.0
C1738 C 0.74712 0.87469 0.12264 0.0
C1739 C 0.72722 0.87065 0.14299 0.0
C1740 C 0.7326 0.8795 0.16977 0.0
H1741 H 0.80092 0.089 0.95572 0.0
H1742 H 0.81567 0.06356 0.0386 0.0
H1743 H 0.84409 0.02678 0.0218 0.0
H1744 H 0.78863 0.02952 0.93003 0.0
H1745 H 0.80504 0.03343 0.89758 0.0
H1746 H 0.79354 0.06277 0.91535 0.0
H1747 H 0.84171 0.08441 0.91412 0.0
H1748 H 0.8534 0.05526 0.89568 0.0
H1749 H 0.86998 0.06563 0.92674 0.0
H1750 H 0.8575 0.986 -0.00297 0.0
H1751 H 0.86059 0.94714 0.96548 0.0
H1752 H 0.83995 -0.00088 0.89815 0.0
C1753 C 0.81117 0.07645 0.97036 0.0
C1754 C 0.80596 0.07899 -0.00158 0.0
C1755 C 0.81945 0.06207 0.017 0.0
C1756 C 0.83569 0.04111 0.00763 0.0
C1757 C 0.83875 0.03782 0.9797 0.0
C1758 C 0.82754 0.05554 0.96128 0.0
C1759 C 0.83045 0.04536 0.93242 0.0
C1760 C 0.80278 0.04259 0.91805 0.0
C1761 C 0.85006 0.06376 0.91629 0.0
C1762 C 0.8426 0.01796 0.93769 0.0
C1763 C 0.84776 0.01424 0.96506 0.0
C1764 C 0.85468 0.98901 0.97546 0.0
C1765 C 0.8561 0.96704 0.95753 0.0
C1766 C 0.85089 0.97058 0.9296 0.0
C1767 C 0.8448 -0.00361 0.91941 0.0
H1768 H 0.75887 0.71415 0.95354 0.0
H1769 H 0.80337 0.66297 0.89857 0.0
H1770 H 0.82092 0.70362 0.87455 0.0
H1771 H 0.74555 0.77189 0.90494 0.0
H1772 H 0.75166 0.79677 0.93124 0.0
H1773 H 0.73725 0.76394 0.93969 0.0
H1774 H 0.77573 0.75691 0.97459 0.0
H1775 H 0.79041 0.78945 0.96608 0.0
H1776 H 0.81045 0.75941 0.96352 0.0
H1777 H 0.83882 0.74883 0.86112 0.0
H1778 H 0.85742 0.79562 0.86018 0.0
H1779 H 0.80343 0.81754 0.92581 0.0
C1780 C 0.77138 0.71164 0.93571 0.0
C1781 C 0.77946 0.68571 0.92739 0.0
C1782 C 0.79681 0.68286 0.90485 0.0
C1783 C 0.80673 0.70576 0.89107 0.0
C1784 C 0.79926 0.73125 0.90035 0.0
C1785 C 0.78197 0.73436 0.92217 0.0
C1786 C 0.78062 0.76378 0.93082 0.0
C1787 C 0.75207 0.77474 0.92639 0.0
C1788 C 0.78987 0.76759 0.96049 0.0
C1789 C 0.80066 0.77649 0.9112 0.0
C1790 C 0.81066 0.7575 0.89337 0.0
C1791 C 0.83086 0.76401 0.87467 0.0
C1792 C 0.84141 0.7906 0.87441 0.0
C1793 C 0.832 0.81016 0.89306 0.0
C1794 C 0.811 0.80305 0.91127 0.0
H1795 H 0.28211 0.79488 0.98292 0.0
H1796 H 0.26829 0.85354 0.04687 0.0
H1797 H 0.28932 0.82268 0.08021 0.0
H1798 H 0.26549 0.73624 0.02299 0.0
H1799 H 0.29038 0.71543 0.00686 0.0
H1800 H 0.27533 0.74274 0.98834 0.0
H1801 H 0.32309 0.76309 0.97833 0.0
H1802 H 0.33827 0.73592 -0.00303 0.0
H1803 H 0.34578 0.77071 0.00614 0.0
H1804 H 0.31417 0.78569 0.10586 0.0
H1805 H 0.33515 0.74345 0.12259 0.0
H1806 H 0.32853 0.70858 0.04196 0.0
C1807 C 0.28362 0.80128 0.00393 0.0
C1808 C 0.27393 0.8266 0.0124 0.0
C1809 C 0.27569 0.83414 0.0401 0.0
C1810 C 0.2877 0.81685 0.05907 0.0
C1811 C 0.2973 0.79202 0.04996 0.0
C1812 C 0.29493 0.78411 0.0231 0.0
C1813 C 0.30548 0.75594 0.01856 0.0
C1814 C 0.28282 0.73644 0.00861 0.0
C1815 C 0.32959 0.75647 -0.00117 0.0
C1816 C 0.31432 0.74919 0.04704 0.0
C1817 C 0.30991 0.77034 0.06486 0.0
C1818 C 0.31745 0.76891 0.09213 0.0
C1819 C 0.32941 0.74502 0.10143 0.0
C1820 C 0.33306 0.72292 0.08354 0.0
C1821 C 0.32554 0.72515 0.05607 0.0
H1822 H 0.91178 0.5349 0.80098 0.0
H1823 H 0.93238 0.45236 0.82225 0.0
H1824 H 0.97415 0.46951 0.84443 0.0
H1825 H 0.97529 0.55658 0.78274 0.0
H1826 H 0.97326 0.59042 0.79646 0.0
H1827 H 0.94292 0.57245 0.7861 0.0
H1828 H 0.92235 0.57874 0.83398 0.0
H1829 H 0.95251 0.59716 0.84443 0.0
H1830 H 0.94094 0.56792 0.86342 0.0
H1831 H 0.01675 0.49468 0.8576 0.0
H1832 H 0.05522 0.52666 0.86489 0.0
H1833 H 0.00631 0.59293 0.83621 0.0
C1834 C 0.92466 0.52046 0.81096 0.0
C1835 C 0.91878 0.49227 0.80986 0.0
C1836 C 0.93633 0.47406 0.82296 0.0
C1837 C 0.96016 0.4836 0.83558 0.0
C1838 C 0.96589 0.51142 0.83527 0.0
C1839 C 0.9484 0.52965 0.82376 0.0
C1840 C 0.9601 0.5583 0.82454 0.0
C1841 C 0.96307 0.57011 0.79575 0.0
C1842 C 0.94295 0.57661 0.84268 0.0
C1843 C 0.98739 0.55318 0.83725 0.0
C1844 C 0.99028 0.52603 0.84343 0.0
C1845 C 0.01452 0.51606 0.85337 0.0
C1846 C 0.03631 0.53434 0.85722 0.0
C1847 C 0.03368 0.56227 0.85121 0.0
C1848 C 0.00879 0.57176 0.84134 0.0
H1849 H 0.22437 0.18168 0.58112 0.0
H1850 H 0.15305 0.13118 0.5663 0.0
H1851 H 0.12749 0.1582 0.59926 0.0
H1852 H 0.20782 0.20105 0.65567 0.0
H1853 H 0.22078 0.23499 0.64976 0.0
H1854 H 0.23582 0.20657 0.6328 0.0
H1855 H 0.22784 0.22979 0.58642 0.0
H1856 H 0.21263 0.25796 0.60306 0.0
H1857 H 0.19406 0.23949 0.5772 0.0
H1858 H 0.10703 0.19647 0.62357 0.0
H1859 H 0.09346 0.24268 0.63602 0.0
H1860 H 0.17764 0.2694 0.63454 0.0
C1861 C 0.20378 0.17549 0.58592 0.0
C1862 C 0.19072 0.15428 0.57142 0.0
C1863 C 0.16347 0.14728 0.57739 0.0
C1864 C 0.14884 0.16244 0.59621 0.0
C1865 C 0.16179 0.18443 0.60895 0.0
C1866 C 0.18882 0.19076 0.60431 0.0
C1867 C 0.19663 0.21817 0.61623 0.0
C1868 C 0.21643 0.21499 0.64004 0.0
C1869 C 0.20844 0.23746 0.59442 0.0
C1870 C 0.16932 0.22729 0.62611 0.0
C1871 C 0.14967 0.20717 0.6227 0.0
C1872 C 0.12234 0.21212 0.62706 0.0
C1873 C 0.11479 0.23851 0.63404 0.0
C1874 C 0.13449 0.2597 0.63611 0.0
C1875 C 0.16214 0.25359 0.6333 0.0
H1876 H 0.02607 0.01758 0.81032 0.0
H1877 H 0.08521 0.97356 0.85684 0.0
H1878 H 0.04851 0.95152 0.88325 0.0
H1879 H 0.97254 0.02304 0.86563 0.0
H1880 H 0.94578 0.01704 0.84131 0.0
H1881 H 0.97645 0.03468 0.83116 0.0
H1882 H 0.98268 -0.00032 0.79248 0.0
H1883 H 0.9524 0.98172 0.8027 0.0
H1884 H 0.9839 0.96406 0.80064 0.0
H1885 H 0.00645 0.92873 0.89874 0.0
H1886 H 0.96165 0.90626 0.90233 0.0
H1887 H 0.92941 0.96327 0.84404 0.0
C1888 C 0.03119 0.00429 0.82696 0.0
C1889 C 0.05828 -0.00245 0.83208 0.0
C1890 C 0.06446 0.97914 0.85304 0.0
C1891 C 0.04379 0.96663 0.86815 0.0
C1892 C 0.01711 0.97269 0.86183 0.0
C1893 C 0.01071 0.99119 0.84183 0.0
C1894 C 0.98059 0.99083 0.83611 0.0
C1895 C 0.96811 0.01802 0.84404 0.0
C1896 C 0.97457 0.98363 0.80622 0.0
C1897 C 0.97133 0.96833 0.855 0.0
C1898 C -0.0074 0.95862 0.87012 0.0
C1899 C 0.9895 0.93647 0.88742 0.0
C1900 C 0.964 0.92373 0.88916 0.0
C1901 C 0.94205 0.93295 0.87337 0.0
C1902 C 0.94575 0.95583 0.85646 0.0
H1903 H 0.699 0.30176 0.46898 0.0
H1904 H 0.78174 0.28848 0.44355 0.0
H1905 H 0.76625 0.24886 0.4165 0.0
H1906 H 0.68015 0.2342 0.47795 0.0
H1907 H 0.64619 0.23731 0.46513 0.0
H1908 H 0.66331 0.26624 0.48008 0.0
H1909 H 0.65545 0.29394 0.43618 0.0
H1910 H 0.63821 0.26504 0.42108 0.0
H1911 H 0.6667 0.28078 0.40405 0.0
H1912 H 0.74275 0.20766 0.3972 0.0
H1913 H 0.71248 0.1689 0.3852 0.0
H1914 H 0.64475 0.21024 0.4213 0.0
C1915 C 0.71383 0.29078 0.45741 0.0
C1916 C 0.74159 0.29817 0.45842 0.0
C1917 C 0.76035 0.28326 0.44299 0.0
C1918 C 0.75175 0.26074 0.42755 0.0
C1919 C 0.72429 0.25373 0.4274 0.0
C1920 C 0.70556 0.2685 0.44166 0.0
C1921 C 0.67743 0.25594 0.43922 0.0
C1922 C 0.66613 0.24795 0.46726 0.0
C1923 C 0.65832 0.27507 0.42423 0.0
C1924 C 0.68344 0.2312 0.42221 0.0
C1925 C 0.71056 0.23038 0.41547 0.0
C1926 C 0.72138 0.20833 0.40186 0.0
C1927 C 0.70409 0.18641 0.39523 0.0
C1928 C 0.6763 0.18681 0.40209 0.0
C1929 C 0.66579 0.20973 0.41527 0.0
H1930 H 0.91277 0.3984 0.68321 0.0
H1931 H 0.92996 0.48502 0.68375 0.0
H1932 H 0.97223 0.47749 0.65848 0.0
H1933 H 0.97298 0.37891 0.70002 0.0
H1934 H 0.97472 0.3489 0.67916 0.0
H1935 H 0.94245 0.36129 0.68925 0.0
H1936 H 0.92744 0.36429 0.63893 0.0
H1937 H 0.95973 0.35147 0.62856 0.0
H1938 H 0.94804 0.38312 0.61506 0.0
H1939 H 0.01699 0.45986 0.64471 0.0
H1940 H 0.05904 0.43387 0.6416 0.0
H1941 H 0.01225 0.35878 0.64937 0.0
C1942 C 0.9249 0.41585 0.67699 0.0
C1943 C 0.91828 0.44222 0.68542 0.0
C1944 C 0.93463 0.46464 0.67724 0.0
C1945 C 0.95865 0.46055 0.66284 0.0
C1946 C 0.96554 0.43402 0.6563 0.0
C1947 C 0.94876 0.41207 0.66258 0.0
C1948 C 0.96237 0.38542 0.65721 0.0
C1949 C 0.96318 0.36764 0.68294 0.0
C1950 C 0.94857 0.37018 0.63352 0.0
C1951 C 0.99021 0.39575 0.64932 0.0
C1952 C 0.99151 0.42379 0.64811 0.0
C1953 C 0.01605 0.43789 0.64476 0.0
C1954 C 0.03985 0.42298 0.64321 0.0
C1955 C 0.03887 0.39432 0.64544 0.0
C1956 C 0.01362 0.38066 0.64751 0.0
H1957 H 0.54267 0.59591 0.22454 0.0
H1958 H 0.56503 0.53618 0.16433 0.0
H1959 H 0.53061 0.5541 0.13287 0.0
H1960 H 0.47481 0.58761 0.2157 0.0
H1961 H 0.46611 0.62255 0.22098 0.0
H1962 H 0.49614 0.60951 0.23633 0.0
H1963 H 0.52521 0.64713 0.21347 0.0
H1964 H 0.49547 0.66072 0.19775 0.0
H1965 H 0.52385 0.65134 0.17715 0.0
H1966 H 0.49074 0.57594 0.10983 0.0
H1967 H 0.44673 0.59695 0.09906 0.0
H1968 H 0.44881 0.63876 0.17648 0.0
C1969 C 0.54097 0.58721 0.20438 0.0
C1970 C 0.55672 0.56499 0.19661 0.0
C1971 C 0.55328 0.55344 0.17048 0.0
C1972 C 0.53389 0.56355 0.15249 0.0
C1973 C 0.51808 0.58504 0.1611 0.0
C1974 C 0.52141 0.59665 0.18652 0.0
C1975 C 0.49962 0.61686 0.19252 0.0
C1976 C 0.48321 0.60862 0.21787 0.0
C1977 C 0.51177 0.64572 0.19539 0.0
C1978 C 0.4829 0.61407 0.16697 0.0
C1979 C 0.49424 0.5963 0.14868 0.0
C1980 C 0.4818 0.59004 0.12392 0.0
C1981 C 0.45692 0.60196 0.11796 0.0
C1982 C 0.44464 0.61916 0.1371 0.0
C1983 C 0.45793 0.62553 0.16165 0.0
H1984 H 0.50875 0.68131 0.79251 0.0
H1985 H 0.57901 0.71024 0.83777 0.0
H1986 H 0.60894 0.68888 0.80402 0.0
H1987 H 0.53776 0.61672 0.76734 0.0
H1988 H 0.52107 0.62015 0.735 0.0
H1989 H 0.50565 0.63329 0.76529 0.0
H1990 H 0.503 0.68068 0.74269 0.0
H1991 H 0.51864 0.66778 0.71256 0.0
H1992 H 0.53348 0.69675 0.72985 0.0
H1993 H 0.63109 0.66798 0.76224 0.0
H1994 H 0.64266 0.65119 0.71607 0.0
H1995 H 0.5573 0.63913 0.69857 0.0
C1996 C 0.53041 0.68252 0.79581 0.0
C1997 C 0.54157 0.69725 0.81781 0.0
C1998 C 0.57005 0.69885 0.82109 0.0
C1999 C 0.58719 0.68673 0.80208 0.0
C2000 C 0.57547 0.67309 0.78004 0.0
C2001 C 0.54767 0.67085 0.77698 0.0
C2002 C 0.53991 0.65782 0.75026 0.0
C2003 C 0.52524 0.63036 0.75475 0.0
C2004 C 0.52276 0.67691 0.73283 0.0
C2005 C 0.5676 0.65407 0.73823 0.0
C2006 C 0.588 0.66231 0.75581 0.0
C2007 C 0.61526 0.6613 0.74841 0.0
C2008 C 0.62167 0.65186 0.72226 0.0
C2009 C 0.60081 0.64437 0.7039 0.0
C2010 C 0.5736 0.64515 0.7122 0.0
H2011 H 0.51473 0.35687 0.06659 0.0
H2012 H 0.58316 0.31781 0.10405 0.0
H2013 H 0.61232 0.33353 0.06644 0.0
H2014 H 0.52493 0.33366 0.00591 0.0
H2015 H 0.51489 0.3628 0.98657 0.0
H2016 H 0.50166 0.35758 0.02002 0.0
H2017 H 0.51955 0.40508 0.03503 0.0
H2018 H 0.53247 0.41081 0.00126 0.0
H2019 H 0.55472 0.4142 0.03015 0.0
H2020 H 0.6309 0.34338 0.02063 0.0
H2021 H 0.63704 0.34612 0.97098 0.0
H2022 H 0.55563 0.37611 0.96245 0.0
C2023 C 0.53612 0.3527 0.0676 0.0
C2024 C 0.54667 0.33614 0.08824 0.0
C2025 C 0.57465 0.33059 0.08848 0.0
C2026 C 0.59141 0.33955 0.06724 0.0
C2027 C 0.57988 0.35416 0.04609 0.0
C2028 C 0.55288 0.36103 0.04633 0.0
C2029 C 0.54402 0.37213 0.01919 0.0
C2030 C 0.51999 0.35553 0.00725 0.0
C2031 C 0.53731 0.40236 0.02156 0.0
C2032 C 0.56955 0.36829 0.00301 0.0
C2033 C 0.59035 0.35894 0.01907 0.0
C2034 C 0.61501 0.35134 0.008 0.0
C2035 C 0.61826 0.35283 0.97978 0.0
C2036 C 0.59669 0.36116 0.96301 0.0
C2037 C 0.5724 0.36968 0.97489 0.0
H2038 H 0.95515 0.2782 0.28159 0.0
H2039 H -0.00246 0.35172 0.30781 0.0
H2040 H 0.96497 0.37922 0.28198 0.0
H2041 H 0.94198 0.30074 0.21407 0.0
H2042 H 0.90949 0.28352 0.21213 0.0
H2043 H 0.93559 0.27035 0.23357 0.0
H2044 H 0.90276 0.272 0.27457 0.0
H2045 H 0.87678 0.28583 0.2533 0.0
H2046 H 0.88748 0.30367 0.28357 0.0
H2047 H 0.92756 0.39837 0.25355 0.0
H2048 H 0.89334 0.40772 0.21864 0.0
H2049 H 0.87613 0.32124 0.21063 0.0
C2050 C 0.95758 0.3001 0.28194 0.0
C2051 C 0.97868 0.3129 0.29682 0.0
C2052 C 0.98147 0.34155 0.2965 0.0
C2053 C 0.96293 0.3573 0.28214 0.0
C2054 C 0.9419 0.34401 0.26824 0.0
C2055 C 0.93945 0.31604 0.26764 0.0
C2056 C 0.9162 0.30658 0.24975 0.0
C2057 C 0.92643 0.28929 0.22597 0.0
C2058 C 0.89453 0.29111 0.2663 0.0
C2059 C 0.906 0.33362 0.24013 0.0
C2060 C 0.92079 0.35497 0.25138 0.0
C2061 C 0.91581 0.38182 0.24467 0.0
C2062 C 0.89616 0.38691 0.2249 0.0
C2063 C 0.88204 0.36519 0.21175 0.0
C2064 C 0.88633 0.33831 0.2204 0.0
H2065 H 0.9327 0.74994 0.54336 0.0
H2066 H 0.95156 0.6882 0.60263 0.0
H2067 H 0.94349 0.65244 0.56783 0.0
H2068 H 0.88074 0.71334 0.50686 0.0
H2069 H 0.89153 0.72613 0.4743 0.0
H2070 H 0.89735 0.74617 0.50441 0.0
H2071 H 0.94859 0.74912 0.49313 0.0
H2072 H 0.94293 0.72882 0.46314 0.0
H2073 H 0.96704 0.7183 0.48831 0.0
H2074 H 0.93072 0.62362 0.52649 0.0
H2075 H 0.91774 0.60462 0.4814 0.0
H2076 H 0.9128 0.68625 0.44934 0.0
C2077 C 0.93476 0.72886 0.54908 0.0
C2078 C 0.94224 0.72161 0.57562 0.0
C2079 C 0.94557 0.69396 0.58232 0.0
C2080 C 0.94107 0.67361 0.56274 0.0
C2081 C 0.93392 0.68148 0.53657 0.0
C2082 C 0.93111 0.70849 0.5297 0.0
C2083 C 0.92457 0.71187 0.5 0.0
C2084 C 0.89691 0.72515 0.49618 0.0
C2085 C 0.94713 0.72797 0.48529 0.0
C2086 C 0.92375 0.68251 0.49124 0.0
C2087 C 0.92885 0.66517 0.51258 0.0
C2088 C 0.9272 0.637 0.50952 0.0
C2089 C 0.9199 0.6264 0.48397 0.0
C2090 C 0.91506 0.64403 0.46196 0.0
C2091 C 0.91732 0.67233 0.46566 0.0
H2092 H 0.46733 0.309 0.70846 0.0
H2093 H 0.52342 0.24846 0.68017 0.0
H2094 H 0.55175 0.25645 0.7208 0.0
H2095 H 0.51513 0.35607 0.73513 0.0
H2096 H 0.4951 0.36466 0.76431 0.0
H2097 H 0.47873 0.35329 0.73358 0.0
H2098 H 0.45384 0.31568 0.76038 0.0
H2099 H 0.47064 0.32483 0.79162 0.0
H2100 H 0.47289 0.29088 0.77876 0.0
H2101 H 0.57398 0.27105 0.76469 0.0
H2102 H 0.59037 0.2943 0.8065 0.0
H2103 H 0.52083 0.34633 0.8046 0.0
C2104 C 0.4856 0.29746 0.71071 0.0
C2105 C 0.49315 0.27816 0.69108 0.0
C2106 C 0.5172 0.26342 0.69491 0.0
C2107 C 0.53339 0.26771 0.71797 0.0
C2108 C 0.52525 0.28678 0.73699 0.0
C2109 C 0.50203 0.30154 0.7335 0.0
C2110 C 0.49785 0.32096 0.75681 0.0
C2111 C 0.49664 0.35049 0.74686 0.0
C2112 C 0.4723 0.31263 0.77282 0.0
C2113 C 0.52319 0.31601 0.77315 0.0
C2114 C 0.53831 0.29559 0.76187 0.0
C2115 C 0.56237 0.28712 0.77367 0.0
C2116 C 0.57148 0.30032 0.79734 0.0
C2117 C 0.55688 0.32209 0.80832 0.0
C2118 C 0.53236 0.32983 0.79627 0.0
H2119 H 0.88737 0.28283 0.93263 0.0
H2120 H 0.91943 0.21036 0.96938 0.0
H2121 H 0.90639 0.22708 0.01465 0.0
H2122 H 0.90966 0.3282 0.97789 0.0
H2123 H 0.88043 0.34941 0.9794 0.0
H2124 H 0.88683 0.32982 0.94937 0.0
H2125 H 0.8395 0.30637 0.95262 0.0
H2126 H 0.8325 0.32666 0.98218 0.0
H2127 H 0.82933 0.29019 0.9839 0.0
H2128 H 0.90021 0.25619 0.05537 0.0
H2129 H 0.89164 0.29173 0.08956 0.0
H2130 H 0.85974 0.34371 0.02677 0.0
C2131 C 0.89046 0.26999 0.95015 0.0
C2132 C 0.90419 0.24533 0.94771 0.0
C2133 C 0.90849 0.22912 0.97091 0.0
C2134 C 0.90133 0.23854 -0.00331 0.0
C2135 C 0.88922 0.26374 -0.00138 0.0
C2136 C 0.8828 0.27879 0.97592 0.0
C2137 C 0.8712 0.30591 0.9837 0.0
C2138 C 0.88805 0.32972 0.97188 0.0
C2139 C 0.84135 0.30735 0.97509 0.0
C2140 C 0.87391 0.30453 0.01421 0.0
C2141 C 0.88437 0.28005 0.0224 0.0
C2142 C 0.89133 0.27514 0.04932 0.0
C2143 C 0.8868 0.29554 0.06847 0.0
C2144 C 0.87515 0.3203 0.06057 0.0
C2145 C 0.86851 0.3248 0.03318 0.0
H2146 H 0.90948 0.74403 0.21819 0.0
H2147 H 0.89981 0.68193 0.15629 0.0
H2148 H 0.88177 0.64995 0.19082 0.0
H2149 H 0.93749 0.70305 0.26409 0.0
H2150 H 0.92281 0.71796 0.29392 0.0
H2151 H 0.92763 0.73808 0.26391 0.0
H2152 H 0.87666 0.74941 0.26317 0.0
H2153 H 0.87169 0.72962 0.29357 0.0
H2154 H 0.85166 0.72225 0.26375 0.0
H2155 H 0.87059 0.62331 0.2329 0.0
H2156 H 0.87046 0.60341 0.27909 0.0
H2157 H 0.89239 0.68208 0.31299 0.0
C2158 C 0.90243 0.72408 0.2117 0.0
C2159 C 0.90547 0.71548 0.18462 0.0
C2160 C 0.89724 0.68888 0.17698 0.0
C2161 C 0.88689 0.67068 0.1964 0.0
C2162 C 0.88522 0.67946 0.22326 0.0
C2163 C 0.89282 0.70557 0.2309 0.0
C2164 C 0.89361 0.70875 0.26139 0.0
C2165 C 0.92207 0.71745 0.27139 0.0
C2166 C 0.87212 0.72868 0.27103 0.0
C2167 C 0.88647 0.68007 0.26977 0.0
C2168 C 0.88078 0.66365 0.24759 0.0
C2169 C 0.87472 0.63603 0.25041 0.0
C2170 C 0.87479 0.6249 0.27659 0.0
C2171 C 0.88172 0.64131 0.29924 0.0
C2172 C 0.88726 0.6692 0.29581 0.0
H2173 H 0.56363 0.72224 0.44322 0.0
H2174 H 0.51187 0.65942 0.40766 0.0
H2175 H 0.52714 0.62709 0.44268 0.0
H2176 H 0.61879 0.67748 0.46637 0.0
H2177 H 0.62377 0.69659 0.49723 0.0
H2178 H 0.61291 0.71347 0.46678 0.0
H2179 H 0.57116 0.73189 0.49173 0.0
H2180 H 0.58174 0.7156 0.52244 0.0
H2181 H 0.54842 0.70854 0.50887 0.0
H2182 H 0.54477 0.60319 0.48493 0.0
H2183 H 0.56189 0.59094 0.53077 0.0
H2184 H 0.59859 0.67115 0.53886 0.0
C2185 C 0.55604 0.70148 0.44224 0.0
C2186 C 0.53669 0.69327 0.42266 0.0
C2187 C 0.52691 0.66604 0.42239 0.0
C2188 C 0.53549 0.64756 0.44217 0.0
C2189 C 0.55385 0.6567 0.46188 0.0
C2190 C 0.56411 0.68304 0.46187 0.0
C2191 C 0.58123 0.68897 0.48668 0.0
C2192 C 0.61093 0.69445 0.47878 0.0
C2193 C 0.56994 0.71263 0.5034 0.0
C2194 C 0.57794 0.66232 0.50138 0.0
C2195 C 0.56279 0.64359 0.48655 0.0
C2196 C 0.55679 0.61766 0.49661 0.0
C2197 C 0.56642 0.6109 0.52256 0.0
C2198 C 0.58106 0.63033 0.53814 0.0
C2199 C 0.58708 0.65613 0.52731 0.0
H2200 H 0.78735 0.55605 0.73256 0.0
H2201 H 0.83942 0.55429 0.66203 0.0
H2202 H 0.80541 0.57942 0.63575 0.0
H2203 H 0.73174 0.53718 0.69882 0.0
H2204 H 0.70775 0.55683 0.71761 0.0
H2205 H 0.73875 0.54698 0.73346 0.0
H2206 H 0.75091 0.59723 0.74439 0.0
H2207 H 0.71957 0.60732 0.72901 0.0
H2208 H 0.75121 0.62202 0.71752 0.0
H2209 H 0.7634 0.59743 0.61542 0.0
H2210 H 0.71607 0.60451 0.60164 0.0
H2211 H 0.68974 0.58971 0.68435 0.0
C2212 C 0.79213 0.5623 0.71202 0.0
C2213 C 0.81616 0.55407 0.6994 0.0
C2214 C 0.82128 0.56108 0.67207 0.0
C2215 C 0.80212 0.57534 0.65708 0.0
C2216 C 0.77789 0.58199 0.66971 0.0
C2217 C 0.77283 0.57568 0.69661 0.0
C2218 C 0.74353 0.58012 0.70395 0.0
C2219 C 0.72965 0.55371 0.71403 0.0
C2220 C 0.74118 0.60305 0.72496 0.0
C2221 C 0.73259 0.58861 0.67668 0.0
C2222 C 0.75288 0.59048 0.65744 0.0
C2223 C 0.74742 0.59646 0.63039 0.0
C2224 C 0.72049 0.60035 0.62275 0.0
C2225 C 0.69935 0.5975 0.64197 0.0
C2226 C 0.70556 0.59194 0.6693 0.0
H2227 H 0.70724 0.53605 0.95956 0.0
H2228 H 0.70133 0.58319 0.88566 0.0
H2229 H 0.66636 0.55107 0.86824 0.0
H2230 H 0.7063 0.47427 0.92755 0.0
H2231 H 0.68731 0.45596 0.95307 0.0
H2232 H 0.70724 0.48545 0.96242 0.0
H2233 H 0.66484 0.50746 0.98324 0.0
H2234 H 0.64474 0.47789 0.97402 0.0
H2235 H 0.63486 0.51104 0.96278 0.0
H2236 H 0.6368 0.51186 0.85661 0.0
H2237 H 0.61669 0.46637 0.84972 0.0
H2238 H 0.64365 0.44269 0.93011 0.0
C2239 C 0.6978 0.54004 0.94015 0.0
C2240 C 0.70643 0.5622 0.92406 0.0
C2241 C 0.69464 0.56637 0.89829 0.0
C2242 C 0.6747 0.54837 0.88835 0.0
C2243 C 0.66707 0.52624 0.90437 0.0
C2244 C 0.67831 0.52189 0.92968 0.0
C2245 C 0.66952 0.49454 0.94101 0.0
C2246 C 0.69405 0.4765 0.9463 0.0
C2247 C 0.65247 0.49795 0.96679 0.0
C2248 C 0.65243 0.48381 0.91767 0.0
C2249 C 0.65075 0.50273 0.89709 0.0
C2250 C 0.63759 0.49699 0.87272 0.0
C2251 C 0.62628 0.47102 0.86901 0.0
C2252 C 0.62861 0.45091 0.88939 0.0
C2253 C 0.64135 0.45767 0.91426 0.0
H2254 H 0.70048 0.45433 0.25562 0.0
H2255 H 0.64814 0.48092 0.19042 0.0
H2256 H 0.6803 0.46317 0.15673 0.0
H2257 H 0.76215 0.4731 0.22365 0.0
H2258 H 0.78051 0.44462 0.23651 0.0
H2259 H 0.7525 0.45766 0.25543 0.0
H2260 H 0.72942 0.40989 0.25533 0.0
H2261 H 0.75742 0.39668 0.23644 0.0
H2262 H 0.72344 0.39265 0.2235 0.0
H2263 H 0.7182 0.44294 0.13041 0.0
H2264 H 0.76061 0.42401 0.11298 0.0
H2265 H 0.78892 0.41272 0.19562 0.0
C2266 C 0.69561 0.45614 0.23426 0.0
C2267 C 0.67179 0.4688 0.22556 0.0
C2268 C 0.66634 0.47126 0.19745 0.0
C2269 C 0.68439 0.46116 0.17821 0.0
C2270 C 0.70779 0.44893 0.18751 0.0
C2271 C 0.71353 0.44653 0.21485 0.0
C2272 C 0.74072 0.43384 0.21951 0.0
C2273 C 0.76011 0.45349 0.23466 0.0
C2274 C 0.73755 0.40665 0.23458 0.0
C2275 C 0.7495 0.42965 0.19048 0.0
C2276 C 0.73008 0.43817 0.17234 0.0
C2277 C 0.73358 0.43622 0.14439 0.0
C2278 C 0.75769 0.42542 0.13472 0.0
C2279 C 0.77805 0.41707 0.153 0.0
C2280 C 0.77378 0.41916 0.1812 0.0
H2281 H 0.7833 0.46105 0.5092 0.0
H2282 H 0.78151 0.40366 0.44239 0.0
H2283 H 0.80973 0.4353 0.41493 0.0
H2284 H 0.77611 0.52009 0.46685 0.0
H2285 H 0.79739 0.54153 0.48796 0.0
H2286 H 0.77864 0.51357 0.50276 0.0
H2287 H 0.82325 0.49486 0.52234 0.0
H2288 H 0.84218 0.52255 0.50719 0.0
H2289 H 0.85094 0.488 0.49975 0.0
H2290 H 0.8391 0.47204 0.39571 0.0
H2291 H 0.86078 0.51526 0.38195 0.0
H2292 H 0.84002 0.55079 0.45974 0.0
C2293 C 0.78887 0.45533 0.48875 0.0
C2294 C 0.7805 0.43015 0.4777 0.0
C2295 C 0.78773 0.4231 0.45091 0.0
C2296 C 0.80392 0.44075 0.43536 0.0
C2297 C 0.81217 0.46541 0.44689 0.0
C2298 C 0.80437 0.47304 0.47269 0.0
C2299 C 0.81415 0.5016 0.47937 0.0
C2300 C 0.79014 0.5203 0.48452 0.0
C2301 C 0.8338 0.50174 0.5036 0.0
C2302 C 0.82864 0.50882 0.45326 0.0
C2303 C 0.82778 0.48739 0.4351 0.0
C2304 C 0.83982 0.48904 0.40966 0.0
C2305 C 0.85224 0.51363 0.40213 0.0
C2306 C 0.85198 0.53637 0.41979 0.0
C2307 C 0.84049 0.53372 0.44588 0.0
H2308 H 0.76624 0.47139 0.79133 0.0
H2309 H 0.78724 0.40992 0.73224 0.0
H2310 H 0.74389 0.38565 0.74112 0.0
H2311 H 0.73812 0.42735 0.83907 0.0
H2312 H 0.7117 0.44983 0.84937 0.0
H2313 H 0.74286 0.4636 0.83597 0.0
H2314 H 0.71592 0.48946 0.79927 0.0
H2315 H 0.68467 0.47548 0.81256 0.0
H2316 H 0.69297 0.47089 0.77725 0.0
H2317 H 0.69959 0.36621 0.75933 0.0
H2318 H 0.65985 0.35242 0.78748 0.0
H2319 H 0.66905 0.42671 0.83404 0.0
C2320 C 0.7616 0.453 0.78001 0.0
C2321 C 0.78003 0.44253 0.76112 0.0
C2322 C 0.77333 0.4183 0.74684 0.0
C2323 C 0.74871 0.40446 0.75161 0.0
C2324 C 0.73102 0.41527 0.77054 0.0
C2325 C 0.73721 0.43901 0.78451 0.0
C2326 C 0.71583 0.4454 0.80524 0.0
C2327 C 0.72785 0.44659 0.83411 0.0
C2328 C 0.7015 0.47188 0.79814 0.0
C2329 C 0.69716 0.42105 0.80149 0.0
C2330 C 0.70583 0.40408 0.78106 0.0
C2331 C 0.69239 0.37951 0.77513 0.0
C2332 C 0.6699 0.37186 0.79103 0.0
C2333 C 0.66168 0.38865 0.8126 0.0
C2334 C 0.67505 0.4137 0.81742 0.0
H2335 H 0.81595 0.51721 0.96644 0.0
H2336 H 0.85209 0.58215 0.01443 0.0
H2337 H 0.87386 0.54848 0.04391 0.0
H2338 H 0.79531 0.48038 0.0193 0.0
H2339 H 0.8007 0.44707 0.00538 0.0
H2340 H 0.79507 0.47513 0.98306 0.0
H2341 H 0.84017 0.46598 0.9583 0.0
H2342 H 0.84587 0.43758 0.98049 0.0
H2343 H 0.87114 0.46433 0.97755 0.0
H2344 H 0.8836 0.50981 0.07279 0.0
H2345 H 0.87894 0.46888 0.10098 0.0
H2346 H 0.8345 0.42797 0.03623 0.0
C2347 C 0.82957 0.52411 0.9824 0.0
C2348 C 0.8331 0.55199 0.988 0.0
C2349 C 0.84974 0.56073 0.00974 0.0
C2350 C 0.86225 0.54177 0.02641 0.0
C2351 C 0.85758 0.51425 0.02114 0.0
C2352 C 0.84163 0.50535 -0.00036 0.0
C2353 C 0.83557 0.47511 0.00151 0.0
C2354 C 0.80485 0.4691 0.00239 0.0
C2355 C 0.849 0.45985 0.97807 0.0
C2356 C 0.84901 0.46881 0.02834 0.0
C2357 C 0.86235 0.49151 0.03878 0.0
C2358 C 0.87376 0.49174 0.06461 0.0
C2359 C 0.87079 0.46848 0.08054 0.0
C2360 C 0.85628 0.4454 0.07072 0.0
C2361 C 0.84607 0.44523 0.04397 0.0
H2362 H 0.69456 0.56253 0.28399 0.0
H2363 H 0.64412 0.58143 0.35285 0.0
H2364 H 0.68262 0.60626 0.37445 0.0
H2365 H 0.74693 0.54327 0.32135 0.0
H2366 H 0.77369 0.55548 0.29945 0.0
H2367 H 0.74105 0.54703 0.28542 0.0
H2368 H 0.73762 0.59529 0.26506 0.0
H2369 H 0.77062 0.60384 0.27864 0.0
H2370 H 0.74211 0.62455 0.28675 0.0
H2371 H 0.72755 0.62215 0.39142 0.0
H2372 H 0.77582 0.62515 0.40423 0.0
H2373 H 0.79773 0.59118 0.3262 0.0
C2374 C 0.69143 0.57321 0.30294 0.0
C2375 C 0.66649 0.57114 0.31652 0.0
C2376 C 0.66308 0.58369 0.34201 0.0
C2377 C 0.68477 0.59779 0.3543 0.0
C2378 C 0.70963 0.59857 0.34091 0.0
C2379 C 0.71308 0.58654 0.31577 0.0
C2380 C 0.74265 0.5855 0.30807 0.0
C2381 C 0.75158 0.55608 0.30332 0.0
C2382 C 0.74859 0.60337 0.28315 0.0
C2383 C 0.75538 0.59751 0.33337 0.0
C2384 C 0.73601 0.60582 0.35164 0.0
C2385 C 0.74291 0.61611 0.37713 0.0
C2386 C 0.77032 0.61762 0.38425 0.0
C2387 C 0.79031 0.60817 0.36621 0.0
C2388 C 0.78275 0.59841 0.34034 0.0
H2389 H 0.69401 0.41583 0.59882 0.0
H2390 H 0.64984 0.39944 0.52423 0.0
H2391 H 0.6197 0.43735 0.53425 0.0
H2392 H 0.63297 0.44181 0.63929 0.0
H2393 H 0.65446 0.46671 0.656 0.0
H2394 H 0.66774 0.43419 0.64664 0.0
H2395 H 0.70619 0.4587 0.62002 0.0
H2396 H 0.69283 0.49115 0.6287 0.0
H2397 H 0.69768 0.4823 0.59355 0.0
H2398 H 0.60315 0.48337 0.54561 0.0
H2399 H 0.59729 0.53081 0.5612 0.0
H2400 H 0.65014 0.5163 0.62953 0.0
C2401 C 0.67721 0.41944 0.58526 0.0
C2402 C 0.67426 0.40477 0.56077 0.0
C2403 C 0.65234 0.4103 0.54324 0.0
C2404 C 0.63511 0.43185 0.54874 0.0
C2405 C 0.63969 0.44715 0.57219 0.0
C2406 C 0.65971 0.4407 0.59062 0.0
C2407 C 0.66254 0.4621 0.6126 0.0
C2408 C 0.6539 0.45051 0.64027 0.0
C2409 C 0.69151 0.47427 0.61375 0.0
C2410 C 0.64253 0.48255 0.60247 0.0
C2411 C 0.62923 0.47343 0.57934 0.0
C2412 C 0.6126 0.49034 0.56426 0.0
C2413 C 0.60953 0.5172 0.57306 0.0
C2414 C 0.62289 0.52658 0.59671 0.0
C2415 C 0.63917 0.50903 0.6118 0.0
H2416 H 0.70259 0.78805 0.51958 0.0
H2417 H 0.74132 0.81464 0.59441 0.0
H2418 H 0.71817 0.77708 0.61908 0.0
H2419 H 0.63867 0.7661 0.54825 0.0
H2420 H 0.63509 0.73683 0.52649 0.0
H2421 H 0.65336 0.76657 0.51478 0.0
H2422 H 0.69555 0.73792 0.50497 0.0
H2423 H 0.67743 0.70792 0.51616 0.0
H2424 H 0.70941 0.71727 0.53156 0.0
H2425 H 0.68979 0.7374 0.63553 0.0
H2426 H 0.66206 0.69537 0.64178 0.0
H2427 H 0.64565 0.69268 0.55534 0.0
C2428 C 0.70596 0.78611 0.54122 0.0
C2429 C 0.72341 0.8043 0.55526 0.0
C2430 C 0.72789 0.80086 0.58341 0.0
C2431 C 0.71479 0.77972 0.59754 0.0
C2432 C 0.6977 0.76206 0.58306 0.0
C2433 C 0.69355 0.76483 0.55546 0.0
C2434 C 0.67548 0.74227 0.54434 0.0
C2435 C 0.64909 0.75362 0.53279 0.0
C2436 C 0.69037 0.72534 0.52301 0.0
C2437 C 0.67028 0.72623 0.56998 0.0
C2438 C 0.6828 0.73827 0.5922 0.0
C2439 C 0.68008 0.72766 0.61827 0.0
C2440 C 0.66432 0.70393 0.62165 0.0
C2441 C 0.65215 0.69093 0.59897 0.0
C2442 C 0.65515 0.70219 0.57288 0.0
H2443 H 0.15619 0.66862 0.45947 0.0
H2444 H 0.22873 0.66194 0.4106 0.0
H2445 H 0.21759 0.70417 0.38686 0.0
H2446 H 0.11351 0.70135 0.40421 0.0
H2447 H 0.09713 0.72222 0.42909 0.0
H2448 H 0.1079 0.68867 0.43809 0.0
H2449 H 0.13535 0.70938 0.47821 0.0
H2450 H 0.12543 0.74299 0.46892 0.0
H2451 H 0.16081 0.73526 0.47158 0.0
H2452 H 0.20442 0.75175 0.37618 0.0
H2453 H 0.18493 0.79758 0.37299 0.0
H2454 H 0.12002 0.77219 0.427 0.0
C2455 C 0.16907 0.67537 0.44295 0.0
C2456 C 0.19335 0.66206 0.43698 0.0
C2457 C 0.20995 0.67176 0.4155 0.0
C2458 C 0.20386 0.69582 0.40193 0.0
C2459 C 0.18078 0.70953 0.40963 0.0
C2460 C 0.16313 0.69922 0.429 0.0
C2461 C 0.14084 0.71891 0.43502 0.0
C2462 C 0.11321 0.70708 0.42606 0.0
C2463 C 0.14063 0.7271 0.46521 0.0
C2464 C 0.14961 0.74243 0.4172 0.0
C2465 C 0.17264 0.73665 0.40264 0.0
C2466 C 0.18594 0.75627 0.38685 0.0
C2467 C 0.17499 0.78228 0.38544 0.0
C2468 C 0.15096 0.7882 0.39959 0.0
C2469 C 0.1382 0.768 0.41562 0.0
H2470 H 0.54869 0.91527 0.69684 0.0
H2471 H 0.56429 0.98332 0.64289 0.0
H2472 H 0.52184 0.97276 0.61824 0.0
H2473 H 0.51827 0.86992 0.64445 0.0
H2474 H 0.49399 0.85562 0.66796 0.0
H2475 H 0.52667 0.86733 0.67997 0.0
H2476 H 0.50329 0.89862 0.71475 0.0
H2477 H 0.47065 0.88709 0.70274 0.0
H2478 H 0.47912 0.92285 0.70293 0.0
H2479 H 0.47465 0.95872 0.60385 0.0
H2480 H 0.42838 0.93892 0.59795 0.0
H2481 H 0.44612 0.87808 0.65838 0.0
C2482 C 0.54336 0.92764 0.67956 0.0
C2483 C 0.55965 0.9501 0.67176 0.0
C2484 C 0.55209 0.9659 0.64909 0.0
C2485 C 0.52803 0.9601 0.63498 0.0
C2486 C 0.51212 0.9381 0.64347 0.0
C2487 C 0.5197 0.9218 0.66492 0.0
C2488 C 0.49865 0.89984 0.67046 0.0
C2489 C 0.51009 0.8715 0.66539 0.0
C2490 C 0.48726 0.90227 0.69943 0.0
C2491 C 0.47774 0.90687 0.64934 0.0
C2492 C 0.48572 0.92907 0.63403 0.0
C2493 C 0.46843 0.94087 0.61518 0.0
C2494 C 0.44227 0.92962 0.61201 0.0
C2495 C 0.43406 0.90664 0.62729 0.0
C2496 C 0.45217 0.89505 0.64583 0.0
H2497 H 0.31155 0.31541 0.91078 0.0
H2498 H 0.38968 0.35654 0.91345 0.0
H2499 H 0.40912 0.32009 0.8857 0.0
H2500 H 0.33435 0.25611 0.92618 0.0
H2501 H 0.31215 0.235 0.90568 0.0
H2502 H 0.30158 0.26798 0.91605 0.0
H2503 H 0.29361 0.28154 0.86595 0.0
H2504 H 0.30379 0.24822 0.85532 0.0
H2505 H 0.32045 0.27803 0.84155 0.0
H2506 H 0.42244 0.27594 0.86808 0.0
H2507 H 0.42934 0.22679 0.8646 0.0
H2508 H 0.34324 0.21204 0.87597 0.0
C2509 C 0.33228 0.31751 0.90388 0.0
C2510 C 0.34901 0.33902 0.9134 0.0
C2511 C 0.37649 0.3405 0.90564 0.0
C2512 C 0.38763 0.31994 0.88979 0.0
C2513 C 0.37104 0.29801 0.88204 0.0
C2514 C 0.34383 0.2967 0.8887 0.0
C2515 C 0.33192 0.26854 0.88346 0.0
C2516 C 0.3193 0.25621 0.90938 0.0
C2517 C 0.31122 0.26913 0.86017 0.0
C2518 C 0.35709 0.25375 0.875 0.0
C2519 C 0.37917 0.27136 0.87322 0.0
C2520 C 0.40521 0.26205 0.86878 0.0
C2521 C 0.40894 0.23402 0.86702 0.0
C2522 C 0.38683 0.21554 0.8702 0.0
C2523 C 0.36048 0.22566 0.8732 0.0
H2524 H 0.44996 0.49592 0.7002 0.0
H2525 H 0.39305 0.56172 0.69856 0.0
H2526 H 0.42732 0.59105 0.67563 0.0
H2527 H 0.50706 0.53746 0.71696 0.0
H2528 H 0.53042 0.51799 0.6972 0.0
H2529 H 0.50064 0.50175 0.71119 0.0
H2530 H 0.48655 0.48514 0.6631 0.0
H2531 H 0.51626 0.50146 0.64895 0.0
H2532 H 0.48323 0.50949 0.63609 0.0
H2533 H 0.46794 0.61284 0.65283 0.0
H2534 H 0.51338 0.62729 0.63669 0.0
H2535 H 0.54417 0.54802 0.6568 0.0
C2536 C 0.4446 0.51639 0.69466 0.0
C2537 C 0.41886 0.52656 0.70071 0.0
C2538 C 0.41272 0.55363 0.69391 0.0
C2539 C 0.43195 0.57032 0.6808 0.0
C2540 C 0.45722 0.55964 0.67512 0.0
C2541 C 0.46368 0.53342 0.68219 0.0
C2542 C 0.49285 0.52744 0.67584 0.0
C2543 C 0.50867 0.52078 0.70185 0.0
C2544 C 0.49482 0.50453 0.65473 0.0
C2545 C 0.50187 0.55442 0.6641 0.0
C2546 C 0.48094 0.57259 0.6634 0.0
C2547 C 0.48448 0.59881 0.65328 0.0
C2548 C 0.51025 0.60677 0.64405 0.0
C2549 C 0.53208 0.58868 0.64556 0.0
C2550 C 0.52774 0.56218 0.65551 0.0
H2551 H 0.78622 0.1977 0.03749 0.0
H2552 H 0.70479 0.19532 0.07022 0.0
H2553 H 0.717 0.23333 0.10126 0.0
H2554 H 0.82082 0.21158 0.10072 0.0
H2555 H 0.84583 0.23365 0.08512 0.0
H2556 H 0.83046 0.2063 0.06586 0.0
H2557 H 0.81599 0.24059 0.02919 0.0
H2558 H 0.83066 0.26827 0.04842 0.0
H2559 H 0.79559 0.26899 0.03867 0.0
H2560 H 0.73755 0.2748 0.12541 0.0
H2561 H 0.76564 0.31373 0.14247 0.0
H2562 H 0.83407 0.2843 0.09708 0.0
C2563 C 0.77094 0.20513 0.0512 0.0
C2564 C 0.74454 0.1938 0.05144 0.0
C2565 C 0.72516 0.20386 0.06981 0.0
C2566 C 0.73191 0.22536 0.08748 0.0
C2567 C 0.75822 0.23608 0.08676 0.0
C2568 C 0.77747 0.22607 0.06925 0.0
C2569 C 0.80425 0.24105 0.07215 0.0
C2570 C 0.82665 0.222 0.08154 0.0
C2571 C 0.81206 0.25557 0.04553 0.0
C2572 C 0.79712 0.26108 0.09406 0.0
C2573 C 0.77041 0.25833 0.10202 0.0
C2574 C 0.75869 0.27669 0.11991 0.0
C2575 C 0.7747 0.2986 0.12957 0.0
C2576 C 0.80213 0.30129 0.1218 0.0
C2577 C 0.81345 0.28202 0.10426 0.0
H2578 H 0.53824 0.02379 0.75772 0.0
H2579 H 0.60517 0.02805 0.81457 0.0
H2580 H 0.57418 0.04395 0.85055 0.0
H2581 H 0.50227 0.08133 0.78033 0.0
H2582 H 0.46963 0.065 0.77555 0.0
H2583 H 0.49782 0.05494 0.7552 0.0
H2584 H 0.48916 0.00519 0.77111 0.0
H2585 H 0.46164 0.01579 0.79232 0.0
H2586 H 0.48937 -0.00241 0.80689 0.0
H2587 H 0.53632 0.06357 0.87863 0.0
H2588 H 0.49445 0.08382 0.89675 0.0
H2589 H 0.45175 0.06086 0.82319 0.0
C2590 C 0.54634 0.02838 0.77769 0.0
C2591 C 0.57404 0.02534 0.78342 0.0
C2592 C 0.58396 0.03066 0.80989 0.0
C2593 C 0.56653 0.03951 0.8304 0.0
C2594 C 0.53916 0.04203 0.8242 0.0
C2595 C 0.5291 0.03632 0.79855 0.0
C2596 C 0.49888 0.04017 0.79716 0.0
C2597 C 0.49176 0.06166 0.77581 0.0
C2598 C 0.48389 0.01307 0.79154 0.0
C2599 C 0.49361 0.05004 0.82571 0.0
C2600 C 0.51706 0.05096 0.84108 0.0
C2601 C 0.51767 0.06218 0.86712 0.0
C2602 C 0.49387 0.07342 0.87735 0.0
C2603 C 0.46986 0.07271 0.86176 0.0
C2604 C 0.46961 0.06035 0.83596 0.0
H2605 H 0.95599 0.97882 0.28855 0.0
H2606 H 0.90997 0.90697 0.2643 0.0
H2607 H 0.93664 0.87928 0.29606 0.0
H2608 H 0.01737 0.948 0.28698 0.0
H2609 H 0.03231 0.96631 0.31516 0.0
H2610 H 0.00585 0.9814 0.29564 0.0
H2611 H 0.97771 0.98789 0.33945 0.0
H2612 H 0.00418 0.97273 0.35915 0.0
H2613 H 0.97012 0.95905 0.36079 0.0
H2614 H 0.97083 0.85895 0.32616 0.0
H2615 H 0.01349 0.84596 0.34783 0.0
H2616 H 0.03992 0.93058 0.3497 0.0
C2617 C 0.95103 0.95741 0.29072 0.0
C2618 C 0.93074 0.94492 0.2746 0.0
C2619 C 0.92534 0.91675 0.27685 0.0
C2620 C 0.9402 0.90099 0.29494 0.0
C2621 C 0.96054 0.91377 0.31025 0.0
C2622 C 0.96618 0.94131 0.30811 0.0
C2623 C 0.99178 0.94925 0.32333 0.0
C2624 C 0.01307 0.96197 0.30413 0.0
C2625 C 0.98557 0.96836 0.3471 0.0
C2626 C 0.00025 0.92171 0.33342 0.0
C2627 C 0.98146 0.90171 0.32642 0.0
C2628 C 0.98555 0.87444 0.33206 0.0
C2629 C 0.00988 0.86729 0.34439 0.0
C2630 C 0.03008 0.88728 0.35035 0.0
C2631 C 0.0248 0.9149 0.34548 0.0
H2632 H 0.45913 0.25834 0.23324 0.0
H2633 H 0.43261 0.30766 0.16594 0.0
H2634 H 0.39801 0.32804 0.19496 0.0
H2635 H 0.39008 0.25197 0.26934 0.0
H2636 H 0.40621 0.25522 0.30206 0.0
H2637 H 0.4234 0.23872 0.27452 0.0
H2638 H 0.46429 0.27191 0.28079 0.0
H2639 H 0.44721 0.28865 0.30801 0.0
H2640 H 0.459 0.30798 0.27917 0.0
H2641 H 0.37455 0.35023 0.23199 0.0
H2642 H 0.36262 0.37234 0.27513 0.0
H2643 H 0.40371 0.30952 0.31971 0.0
C2644 C 0.44508 0.27245 0.22446 0.0
C2645 C 0.44808 0.28125 0.19742 0.0
C2646 C 0.43032 0.30059 0.18663 0.0
C2647 C 0.41053 0.31213 0.20291 0.0
C2648 C 0.40884 0.30413 0.22994 0.0
C2649 C 0.42543 0.28454 0.24069 0.0
C2650 C 0.42252 0.28298 0.27128 0.0
C2651 C 0.40978 0.25559 0.2798 0.0
C2652 C 0.44987 0.28821 0.28563 0.0
C2653 C 0.4032 0.30595 0.2761 0.0
C2654 C 0.39507 0.3174 0.25189 0.0
C2655 C 0.38008 0.34101 0.25108 0.0
C2656 C 0.37362 0.35356 0.27562 0.0
C2657 C 0.38215 0.34246 0.30056 0.0
C2658 C 0.39644 0.31798 0.30085 0.0
H2659 H 0.46132 0.69173 0.94007 0.0
H2660 H 0.3855 0.69311 0.89628 0.0
H2661 H 0.36547 0.66022 0.92876 0.0
H2662 H 0.45408 0.61944 0.97103 0.0
H2663 H 0.46803 0.63194 0.0026 0.0
H2664 H 0.47965 0.64606 0.97083 0.0
H2665 H 0.46792 0.69421 0.98784 0.0
H2666 H 0.45625 0.68032 0.01935 0.0
H2667 H 0.43397 0.70065 -0.00084 0.0
H2668 H 0.3509 0.63631 0.97015 0.0
H2669 H 0.34096 0.62973 0.01875 0.0
H2670 H 0.42465 0.64863 0.03853 0.0
C2671 C 0.44099 0.6838 0.93663 0.0
C2672 C 0.42503 0.69408 0.91553 0.0
C2673 C 0.39804 0.68481 0.91216 0.0
C2674 C 0.38665 0.66602 0.93038 0.0
C2675 C 0.40246 0.65719 0.95202 0.0
C2676 C 0.42911 0.66595 0.9553 0.0
C2677 C 0.43962 0.65941 0.98335 0.0
C2678 C 0.46165 0.63793 0.98185 0.0
C2679 C 0.45 0.68518 -0.00172 0.0
C2680 C 0.41411 0.64783 -0.00391 0.0
C2681 C 0.39336 0.64523 0.97729 0.0
C2682 C 0.36712 0.63767 0.98491 0.0
C2683 C 0.36163 0.634 0.01255 0.0
C2684 C 0.38214 0.63883 0.03211 0.0
C2685 C 0.40883 0.64465 0.02373 0.0
H2686 H 0.03261 0.69163 0.68688 0.0
H2687 H 0.06849 0.77013 0.70762 0.0
H2688 H 0.09459 0.74875 0.74425 0.0
H2689 H 0.02116 0.67046 0.7511 0.0
H2690 H 0.02884 0.6352 0.74604 0.0
H2691 H 0.01748 0.6552 0.71796 0.0
H2692 H 0.06037 0.64311 0.69071 0.0
H2693 H 0.07183 0.62282 0.71873 0.0
H2694 H 0.09334 0.64957 0.70534 0.0
H2695 H 0.10938 0.72132 0.78337 0.0
H2696 H 0.11331 0.68922 0.82149 0.0
H2697 H 0.06926 0.62776 0.77528 0.0
C2698 C 0.04667 0.70418 0.69852 0.0
C2699 C 0.04863 0.73254 0.69432 0.0
C2700 C 0.06679 0.74835 0.71035 0.0
C2701 C 0.08177 0.73636 0.73116 0.0
C2702 C 0.07858 0.7085 0.73544 0.0
C2703 C 0.06175 0.69251 0.71936 0.0
C2704 C 0.05958 0.66371 0.7301 0.0
C2705 C 0.03002 0.6557 0.73669 0.0
C2706 C 0.07203 0.64361 0.71002 0.0
C2707 C 0.07657 0.66639 0.75561 0.0
C2708 C 0.0877 0.69232 0.75803 0.0
C2709 C 0.10148 0.70077 0.78134 0.0
C2710 C 0.10351 0.68247 0.8029 0.0
C2711 C 0.09197 0.65602 0.80096 0.0
C2712 C 0.07896 0.64762 0.77679 0.0
H2713 H 0.06322 0.29745 0.43355 0.0
H2714 H 0.98234 0.32864 0.44421 0.0
H2715 H -0.00622 0.34131 0.49135 0.0
H2716 H 0.06816 0.26701 0.49646 0.0
H2717 H 0.10348 0.27514 0.50194 0.0
H2718 H 0.09054 0.27175 0.46792 0.0
H2719 H 0.10842 0.32014 0.45625 0.0
H2720 H 0.12181 0.32358 0.49017 0.0
H2721 H 0.09887 0.3484 0.4772 0.0
H2722 H 0.01181 0.34564 0.53815 0.0
H2723 H 0.03627 0.34435 0.58152 0.0
H2724 H 0.1059 0.31054 0.54084 0.0
C2725 C 0.04808 0.30755 0.44554 0.0
C2726 C 0.02186 0.31211 0.43514 0.0
C2727 C 0.00257 0.32505 0.45166 0.0
C2728 C 0.00887 0.33231 0.47847 0.0
C2729 C 0.03459 0.32667 0.48832 0.0
C2730 C 0.05402 0.31492 0.47231 0.0
C2731 C 0.07954 0.30952 0.48837 0.0
C2732 C 0.08578 0.27905 0.48869 0.0
C2733 C 0.10358 0.32643 0.47734 0.0
C2734 C 0.07109 0.31937 0.51614 0.0
C2735 C 0.04514 0.3293 0.51554 0.0
C2736 C 0.03226 0.33825 0.53883 0.0
C2737 C 0.04631 0.33721 0.56342 0.0
C2738 C 0.07303 0.32725 0.5646 0.0
C2739 C 0.0856 0.31838 0.54055 0.0
H2740 H 0.47571 0.73573 0.28284 0.0
H2741 H 0.40826 0.78224 0.31234 0.0
H2742 H 0.38018 0.76556 0.27383 0.0
H2743 H 0.46282 0.74807 0.21072 0.0
H2744 H 0.47336 0.71466 0.20087 0.0
H2745 H 0.48803 0.73089 0.23038 0.0
H2746 H 0.47397 0.68917 0.25931 0.0
H2747 H 0.45858 0.67298 0.2302 0.0
H2748 H 0.43891 0.67834 0.26039 0.0
H2749 H 0.35833 0.73961 0.23505 0.0
H2750 H 0.34605 0.71084 0.19524 0.0
H2751 H 0.42923 0.68557 0.18895 0.0
C2752 C 0.45508 0.74251 0.28102 0.0
C2753 C 0.44393 0.76002 0.30046 0.0
C2754 C 0.41703 0.76882 0.29746 0.0
C2755 C 0.40098 0.75942 0.27578 0.0
C2756 C 0.41247 0.74184 0.25708 0.0
C2757 C 0.43907 0.73393 0.25918 0.0
C2758 C 0.44668 0.71513 0.2363 0.0
C2759 C 0.46904 0.72797 0.21851 0.0
C2760 C 0.45502 0.68727 0.24722 0.0
C2761 C 0.42003 0.71322 0.22132 0.0
C2762 C 0.40042 0.72848 0.23375 0.0
C2763 C 0.37363 0.72805 0.22477 0.0
C2764 C 0.36681 0.71169 0.20234 0.0
C2765 C 0.38688 0.69663 0.18908 0.0
C2766 C 0.41376 0.69752 0.19854 0.0
H2767 H 0.03616 0.67552 0.07224 0.0
H2768 H 0.95177 0.65942 0.05258 0.0
H2769 H 0.96559 0.62987 0.01474 0.0
H2770 H 0.05727 0.68511 0.00862 0.0
H2771 H 0.08984 0.66965 0.01198 0.0
H2772 H 0.07369 0.6836 0.04129 0.0
H2773 H 0.07668 0.6373 0.06591 0.0
H2774 H 0.09308 0.62317 0.03659 0.0
H2775 H 0.06284 0.60711 0.04995 0.0
H2776 H 0.98815 0.61011 0.97429 0.0
H2777 H 0.01735 0.60205 0.93468 0.0
H2778 H 0.08712 0.63113 0.9807 0.0
C2779 C 0.02057 0.66498 0.06062 0.0
C2780 C -0.00709 0.66965 0.06538 0.0
C2781 C 0.97309 0.65597 0.04938 0.0
C2782 C 0.98076 0.63906 0.02791 0.0
C2783 C 0.00829 0.63583 0.02298 0.0
C2784 C 0.0279 0.64819 0.03911 0.0
C2785 C 0.05591 0.64472 0.02744 0.0
C2786 C 0.06997 0.67241 0.022 0.0
C2787 C 0.07314 0.62701 0.04608 0.0
C2788 C 0.04887 0.63001 0.00133 0.0
C2789 C 0.02139 0.62445 -0.00058 0.0
C2790 C 0.00977 0.61375 0.97582 0.0
C2791 C 0.02652 0.60937 0.95337 0.0
C2792 C 0.05454 0.61596 0.9546 0.0
C2793 C 0.06588 0.62548 0.97924 0.0
H2794 H 0.02156 0.25821 0.81577 0.0
H2795 H 0.00302 0.33662 0.85009 0.0
H2796 H 0.03652 0.35861 0.81951 0.0
H2797 H 0.095 0.27237 0.79823 0.0
H2798 H 0.09164 0.25415 0.76661 0.0
H2799 H 0.07173 0.24381 0.79558 0.0
H2800 H 0.02792 0.24813 0.76705 0.0
H2801 H 0.04761 0.25852 0.73813 0.0
H2802 H 0.0211 0.27986 0.75044 0.0
H2803 H 0.06701 0.37245 0.78208 0.0
H2804 H 0.08806 0.37841 0.73732 0.0
H2805 H 0.08384 0.29118 0.72432 0.0
C2806 C 0.02546 0.27987 0.8175 0.0
C2807 C 0.01042 0.29581 0.83556 0.0
C2808 C 0.01481 0.3242 0.83657 0.0
C2809 C 0.03388 0.33675 0.81944 0.0
C2810 C 0.04796 0.32057 0.80125 0.0
C2811 C 0.04382 0.29274 0.79999 0.0
C2812 C 0.05782 0.28064 0.7756 0.0
C2813 C 0.08039 0.26162 0.78455 0.0
C2814 C 0.03739 0.26595 0.7567 0.0
C2815 C 0.06943 0.30615 0.76266 0.0
C2816 C 0.0643 0.32879 0.77831 0.0
C2817 C 0.07144 0.35486 0.7698 0.0
C2818 C 0.08334 0.358 0.74425 0.0
C2819 C 0.08743 0.33524 0.72719 0.0
C2820 C 0.0811 0.30893 0.73693 0.0
H2821 H 0.39498 0.29724 0.56159 0.0
H2822 H 0.47646 0.3317 0.56137 0.0
H2823 H 0.4615 0.3681 0.53083 0.0
H2824 H 0.38383 0.30231 0.49558 0.0
H2825 H 0.34854 0.3107 0.4971 0.0
H2826 H 0.36354 0.29234 0.52442 0.0
H2827 H 0.34821 0.32917 0.55844 0.0
H2828 H 0.33319 0.34779 0.53097 0.0
H2829 H 0.35781 0.36421 0.55286 0.0
H2830 H 0.44123 0.39334 0.49337 0.0
H2831 H 0.41803 0.40393 0.45048 0.0
H2832 H 0.34913 0.3541 0.47492 0.0
C2833 C 0.40947 0.31298 0.55582 0.0
C2834 C 0.43684 0.31176 0.5638 0.0
C2835 C 0.45535 0.33235 0.55551 0.0
C2836 C 0.44696 0.35324 0.53839 0.0
C2837 C 0.41996 0.35336 0.5301 0.0
C2838 C 0.40141 0.33384 0.53871 0.0
C2839 C 0.37487 0.33573 0.52354 0.0
C2840 C 0.3673 0.30869 0.50931 0.0
C2841 C 0.35218 0.34477 0.54259 0.0
C2842 C 0.38216 0.3578 0.50338 0.0
C2843 C 0.40794 0.36837 0.50816 0.0
C2844 C 0.42075 0.38592 0.4899 0.0
C2845 C 0.40749 0.39175 0.46558 0.0
C2846 C 0.38179 0.37999 0.45979 0.0
C2847 C 0.36841 0.36397 0.47943 0.0
H2848 H 0.17222 0.4521 0.28671 0.0
H2849 H 0.19424 0.41782 0.20873 0.0
H2850 H 0.2299 0.39158 0.2312 0.0
H2851 H 0.23572 0.46428 0.30922 0.0
H2852 H 0.22961 0.45613 0.34437 0.0
H2853 H 0.20234 0.46747 0.32343 0.0
H2854 H 0.17435 0.42397 0.33515 0.0
H2855 H 0.20163 0.41248 0.35628 0.0
H2856 H 0.18863 0.39111 0.32931 0.0
H2857 H 0.26722 0.37559 0.26016 0.0
H2858 H 0.30443 0.37183 0.29312 0.0
H2859 H 0.25824 0.41658 0.35243 0.0
C2860 C 0.18403 0.43854 0.27438 0.0
C2861 C 0.18047 0.43697 0.24596 0.0
C2862 C 0.1966 0.41927 0.23055 0.0
C2863 C 0.21675 0.40415 0.24317 0.0
C2864 C 0.22021 0.40679 0.27116 0.0
C2865 C 0.20417 0.42342 0.28662 0.0
C2866 C 0.2141 0.42542 0.31564 0.0
C2867 C 0.22085 0.45507 0.3236 0.0
C2868 C 0.19344 0.41246 0.33525 0.0
C2869 C 0.23926 0.40867 0.31372 0.0
C2870 C 0.24202 0.39754 0.28806 0.0
C2871 C 0.26502 0.38367 0.28046 0.0
C2872 C 0.28609 0.38182 0.29926 0.0
C2873 C 0.28407 0.39395 0.32526 0.0
C2874 C 0.26001 0.40671 0.33287 0.0
H2875 H 0.32393 0.48288 -0.00424 0.0
H2876 H 0.35669 0.42139 0.04856 0.0
H2877 H 0.36841 0.45664 0.08266 0.0
H2878 H 0.37109 0.53995 0.0154 0.0
H2879 H 0.34434 0.5642 0.01405 0.0
H2880 H 0.3434 0.53502 0.99191 0.0
H2881 H 0.29575 0.52193 0.0102 0.0
H2882 H 0.29671 0.55071 0.0327 0.0
H2883 H 0.29106 0.51708 0.04617 0.0
H2884 H 0.373 0.49819 0.11254 0.0
H2885 H 0.36918 0.5426 0.13592 0.0
H2886 H 0.32976 0.57521 0.06467 0.0
C2887 C 0.3345 0.47705 0.01406 0.0
C2888 C 0.33988 0.44963 0.01946 0.0
C2889 C 0.35273 0.44245 0.04405 0.0
C2890 C 0.35945 0.46229 0.06348 0.0
C2891 C 0.35293 0.4891 0.05803 0.0
C2892 C 0.34079 0.4965 0.03387 0.0
C2893 C 0.33306 0.52602 0.0342 0.0
C2894 C 0.34893 0.54225 0.01261 0.0
C2895 C 0.30233 0.52909 0.03062 0.0
C2896 C 0.34206 0.53382 0.06253 0.0
C2897 C 0.35399 0.5125 0.07581 0.0
C2898 C 0.36375 0.51507 0.10232 0.0
C2899 C 0.36139 0.54023 0.11547 0.0
C2900 C 0.34878 0.56208 0.10224 0.0
C2901 C 0.33905 0.5587 0.07548 0.0
H2902 H 0.27514 0.56906 0.76498 0.0
H2903 H 0.32737 0.56889 0.83576 0.0
H2904 H 0.29448 0.59637 0.86072 0.0
H2905 H 0.24376 0.63846 0.7774 0.0
H2906 H 0.21127 0.62571 0.76588 0.0
H2907 H 0.24188 0.61285 0.75124 0.0
H2908 H 0.22628 0.56382 0.76347 0.0
H2909 H 0.19587 0.57647 0.7782 0.0
H2910 H 0.21798 0.55581 0.79822 0.0
H2911 H 0.25278 0.61478 0.8807 0.0
H2912 H 0.2055 0.62183 0.89428 0.0
H2913 H 0.17978 0.60969 0.81076 0.0
C2914 C 0.28018 0.57587 0.78532 0.0
C2915 C 0.30384 0.56712 0.79839 0.0
C2916 C 0.30939 0.57557 0.82534 0.0
C2917 C 0.29089 0.59131 0.83962 0.0
C2918 C 0.26705 0.59854 0.8266 0.0
C2919 C 0.26175 0.5913 0.79993 0.0
C2920 C 0.23295 0.59763 0.79203 0.0
C2921 C 0.23245 0.62 0.77035 0.0
C2922 C 0.21738 0.57191 0.78245 0.0
C2923 C 0.22239 0.60783 0.8189 0.0
C2924 C 0.24255 0.60894 0.83838 0.0
C2925 C 0.23696 0.61467 0.86549 0.0
C2926 C 0.20999 0.61852 0.87303 0.0
C2927 C 0.18892 0.6163 0.85359 0.0
C2928 C 0.19544 0.61192 0.82604 0.0
H2929 H 0.20674 0.53637 0.58329 0.0
H2930 H 0.18993 0.52683 0.49735 0.0
H2931 H 0.16502 0.48356 0.50691 0.0
H2932 H 0.21883 0.46838 0.59837 0.0
H2933 H 0.20272 0.46948 0.63114 0.0
H2934 H 0.2177 0.49986 0.61703 0.0
H2935 H 0.17177 0.52405 0.62228 0.0
H2936 H 0.15682 0.49348 0.63622 0.0
H2937 H 0.14176 0.5092 0.60701 0.0
H2938 H 0.14569 0.43898 0.5264 0.0
H2939 H 0.13097 0.39933 0.55403 0.0
H2940 H 0.15955 0.44078 0.62677 0.0
C2941 C 0.19765 0.5253 0.56646 0.0
C2942 C 0.20034 0.53468 0.53959 0.0
C2943 C 0.18794 0.51988 0.51811 0.0
C2944 C 0.17388 0.49533 0.52336 0.0
C2945 C 0.17208 0.48638 0.55019 0.0
C2946 C 0.18334 0.50122 0.57136 0.0
C2947 C 0.17904 0.4874 0.59835 0.0
C2948 C 0.2062 0.48089 0.61199 0.0
C2949 C 0.16128 0.50455 0.61706 0.0
C2950 C 0.16426 0.46196 0.5891 0.0
C2951 C 0.16034 0.46159 0.5613 0.0
C2952 C 0.14833 0.43927 0.54821 0.0
C2953 C 0.14015 0.41684 0.56402 0.0
C2954 C 0.14396 0.41709 0.59254 0.0
C2955 C 0.15599 0.44008 0.60508 0.0
H2956 H 0.20011 0.55697 0.22523 0.0
H2957 H 0.14272 0.58782 0.16725 0.0
H2958 H 0.17445 0.62553 0.15597 0.0
H2959 H 0.23574 0.62579 0.24349 0.0
H2960 H 0.26801 0.60944 0.2443 0.0
H2961 H 0.23785 0.59115 0.2549 0.0
H2962 H 0.24812 0.55307 0.22031 0.0
H2963 H 0.27801 0.57118 0.20955 0.0
H2964 H 0.25245 0.56165 0.18497 0.0
H2965 H 0.21489 0.65214 0.14316 0.0
H2966 H 0.26105 0.66349 0.1277 0.0
H2967 H 0.29375 0.61434 0.19247 0.0
C2968 C 0.19385 0.57265 0.21131 0.0
C2969 C 0.16896 0.57027 0.19757 0.0
C2970 C 0.1616 0.58996 0.17833 0.0
C2971 C 0.17943 0.61145 0.17195 0.0
C2972 C 0.20456 0.61269 0.18488 0.0
C2973 C 0.21176 0.59384 0.20431 0.0
C2974 C 0.24165 0.59608 0.21093 0.0
C2975 C 0.24606 0.60623 0.24014 0.0
C2976 C 0.25586 0.5689 0.20612 0.0
C2977 C 0.25051 0.61742 0.19057 0.0
C2978 C 0.22868 0.62756 0.17655 0.0
C2979 C 0.2321 0.6449 0.15444 0.0
C2980 C 0.25844 0.65114 0.1457 0.0
C2981 C 0.28099 0.63961 0.15877 0.0
C2982 C 0.27691 0.62362 0.18222 0.0
H2983 H 0.23557 0.44727 0.90935 0.0
H2984 H 0.20276 0.42948 0.9892 0.0
H2985 H 0.16542 0.46076 0.9806 0.0
H2986 H 0.22357 0.51635 0.91006 0.0
H2987 H 0.21442 0.51894 0.87474 0.0
H2988 H 0.23665 0.49267 0.88568 0.0
H2989 H 0.2044 0.45616 0.86464 0.0
H2990 H 0.18206 0.4824 0.85355 0.0
H2991 H 0.16926 0.45501 0.87442 0.0
H2992 H 0.13533 0.49819 0.96597 0.0
H2993 H 0.11359 0.53796 0.9454 0.0
H2994 H 0.16471 0.53031 0.87442 0.0
C2995 C 0.2202 0.44949 0.92478 0.0
C2996 C 0.22205 0.43587 0.94992 0.0
C2997 C 0.20172 0.43961 0.96974 0.0
C2998 C 0.18039 0.4573 0.96503 0.0
C2999 C 0.17948 0.47089 0.94029 0.0
C3000 C 0.19867 0.46699 0.92036 0.0
C3001 C 0.19401 0.48541 0.89627 0.0
C3002 C 0.21862 0.50447 0.89142 0.0
C3003 C 0.18701 0.46874 0.87071 0.0
C3004 C 0.16979 0.5009 0.90618 0.0
C3005 C 0.1616 0.4921 0.93155 0.0
C3006 C 0.14116 0.50489 0.94586 0.0
C3007 C 0.12899 0.52749 0.93408 0.0
C3008 C 0.13721 0.53694 0.9082 0.0
C3009 C 0.15752 0.5231 0.89393 0.0
H3010 H 0.29468 0.44731 0.69506 0.0
H3011 H 0.28442 0.42131 0.77859 0.0
H3012 H 0.25293 0.38476 0.76341 0.0
H3013 H 0.22768 0.44064 0.67693 0.0
H3014 H 0.23373 0.42902 0.64279 0.0
H3015 H 0.25875 0.44983 0.65981 0.0
H3016 H 0.29439 0.41286 0.65118 0.0
H3017 H 0.2691 0.39181 0.6345 0.0
H3018 H 0.2879 0.37866 0.66279 0.0
H3019 H 0.21849 0.35584 0.74059 0.0
H3020 H 0.18024 0.33941 0.71238 0.0
H3021 H 0.21273 0.38348 0.64335 0.0
C3022 C 0.28624 0.43354 0.71008 0.0
C3023 C 0.29206 0.43695 0.73796 0.0
C3024 C 0.28022 0.41898 0.75712 0.0
C3025 C 0.26257 0.39801 0.74865 0.0
C3026 C 0.2571 0.39529 0.72099 0.0
C3027 C 0.26847 0.41266 0.70199 0.0
C3028 C 0.25668 0.40759 0.67399 0.0
C3029 C 0.24342 0.43329 0.66276 0.0
C3030 C 0.27831 0.3971 0.65447 0.0
C3031 C 0.23586 0.3856 0.68048 0.0
C3032 C 0.23698 0.37831 0.70759 0.0
C3033 C 0.21781 0.36082 0.71921 0.0
C3034 C 0.19622 0.35156 0.70308 0.0
C3035 C 0.19404 0.35984 0.67571 0.0
C3036 C 0.21464 0.3761 0.66395 0.0
H3037 H 0.32924 0.55058 0.50146 0.0
H3038 H 0.30599 0.60604 0.4379 0.0
H3039 H 0.32632 0.57623 0.40367 0.0
H3040 H 0.39229 0.5209 0.46492 0.0
H3041 H 0.38346 0.48777 0.47808 0.0
H3042 H 0.37705 0.5177 0.49801 0.0
H3043 H 0.32681 0.50238 0.50219 0.0
H3044 H 0.33274 0.47298 0.48181 0.0
H3045 H 0.30714 0.49649 0.47178 0.0
H3046 H 0.33692 0.53591 0.37619 0.0
H3047 H 0.33832 0.48915 0.35807 0.0
H3048 H 0.35247 0.45882 0.43936 0.0
C3049 C 0.32999 0.5572 0.48052 0.0
C3050 C 0.3164 0.58061 0.47224 0.0
C3051 C 0.31661 0.58822 0.44457 0.0
C3052 C 0.32818 0.57144 0.42501 0.0
C3053 C 0.33947 0.54721 0.43352 0.0
C3054 C 0.34091 0.54029 0.46074 0.0
C3055 C 0.3488 0.511 0.46429 0.0
C3056 C 0.37709 0.50925 0.47707 0.0
C3057 C 0.3276 0.49479 0.48097 0.0
C3058 C 0.3491 0.50194 0.43498 0.0
C3059 C 0.34471 0.52327 0.41746 0.0
C3060 C 0.34113 0.51917 0.38963 0.0
C3061 C 0.34172 0.49255 0.37954 0.0
C3062 C 0.34522 0.47045 0.39739 0.0
C3063 C 0.34966 0.47538 0.42527 0.0
H3064 H 0.23066 0.22746 0.45839 0.0
H3065 H 0.284 0.16582 0.42745 0.0
H3066 H 0.30797 0.20003 0.39995 0.0
H3067 H 0.23036 0.2709 0.39467 0.0
H3068 H 0.23096 0.30183 0.41429 0.0
H3069 H 0.21415 0.27178 0.4274 0.0
H3070 H 0.2435 0.27516 0.47097 0.0
H3071 H 0.26052 0.30498 0.45793 0.0
H3072 H 0.27987 0.27607 0.468 0.0
H3073 H 0.3314 0.24056 0.38301 0.0
H3074 H 0.35157 0.28611 0.37512 0.0
H3075 H 0.28333 0.32256 0.41545 0.0
C3076 C 0.24673 0.22115 0.44502 0.0
C3077 C 0.25539 0.19406 0.44486 0.0
C3078 C 0.27701 0.1865 0.42781 0.0
C3079 C 0.2907 0.20575 0.41199 0.0
C3080 C 0.28248 0.23249 0.41334 0.0
C3081 C 0.26085 0.24029 0.42914 0.0
C3082 C 0.25837 0.2709 0.42925 0.0
C3083 C 0.23188 0.27935 0.41558 0.0
C3084 C 0.26072 0.28244 0.45826 0.0
C3085 C 0.28271 0.27894 0.41218 0.0
C3086 C 0.29611 0.25639 0.40297 0.0
C3087 C 0.32076 0.25844 0.38941 0.0
C3088 C 0.33217 0.28428 0.38522 0.0
C3089 C 0.31878 0.3076 0.39444 0.0
C3090 C 0.29355 0.30495 0.40764 0.0
H3091 H 0.84532 0.31762 0.57256 0.0
H3092 H 0.76129 0.29907 0.59139 0.0
H3093 H 0.77505 0.25744 0.61486 0.0
H3094 H 0.86088 0.25768 0.55161 0.0
H3095 H 0.89482 0.25601 0.5649 0.0
H3096 H 0.88035 0.28836 0.55825 0.0
H3097 H 0.88894 0.30335 0.60799 0.0
H3098 H 0.90403 0.27104 0.61479 0.0
H3099 H 0.87643 0.28248 0.63544 0.0
H3100 H 0.79555 0.21316 0.62404 0.0
H3101 H 0.82131 0.17105 0.62052 0.0
H3102 H 0.89233 0.2177 0.59547 0.0
C3103 C 0.82993 0.30544 0.58271 0.0
C3104 C 0.80225 0.3115 0.58007 0.0
C3105 C 0.78264 0.29494 0.5933 0.0
C3106 C 0.79031 0.27123 0.60673 0.0
C3107 C 0.81765 0.26472 0.60714 0.0
C3108 C 0.83728 0.2817 0.59598 0.0
C3109 C 0.86448 0.26816 0.59486 0.0
C3110 C 0.87574 0.26751 0.56568 0.0
C3111 C 0.88466 0.28209 0.61445 0.0
C3112 C 0.85656 0.24008 0.60473 0.0
C3113 C 0.82967 0.23874 0.61253 0.0
C3114 C 0.8168 0.21413 0.61881 0.0
C3115 C 0.83154 0.19029 0.61648 0.0
C3116 C 0.85881 0.19119 0.60769 0.0
C3117 C 0.87166 0.21649 0.60269 0.0
H3118 H 0.4618 0.98629 0.32757 0.0
H3119 H 0.41119 0.0515 0.29974 0.0
H3120 H 0.44376 0.08519 0.31872 0.0
H3121 H 0.48917 0.02108 0.3903 0.0
H3122 H 0.52222 0.00719 0.38514 0.0
H3123 H 0.49242 0.9883 0.37443 0.0
H3124 H 0.51199 0.98518 0.32578 0.0
H3125 H 0.54162 0.00421 0.33623 0.0
H3126 H 0.5216 0.01593 0.30815 0.0
H3127 H 0.48442 0.11168 0.33518 0.0
H3128 H 0.53037 0.12872 0.34689 0.0
H3129 H 0.555 0.0461 0.3624 0.0
C3130 C 0.45711 0.00763 0.3264 0.0
C3131 C 0.43386 0.01632 0.31252 0.0
C3132 C 0.42883 0.04445 0.31049 0.0
C3133 C 0.44716 0.06372 0.32129 0.0
C3134 C 0.47042 0.05452 0.334 0.0
C3135 C 0.4754 0.02712 0.33671 0.0
C3136 C 0.50338 0.02258 0.34815 0.0
C3137 C 0.50168 0.00899 0.37618 0.0
C3138 C 0.52065 0.00601 0.32839 0.0
C3139 C 0.51371 0.05162 0.35042 0.0
C3140 C 0.49425 0.0698 0.34273 0.0
C3141 C 0.49972 0.09767 0.34163 0.0
C3142 C 0.52588 0.10716 0.34826 0.0
C3143 C 0.54631 0.08875 0.35544 0.0
C3144 C 0.53985 0.06071 0.35698 0.0
H3145 H 0.76487 0.68244 0.05554 0.0
H3146 H 0.69918 0.62292 0.05912 0.0
H3147 H 0.67481 0.65222 0.09109 0.0
H3148 H 0.75684 0.71113 0.12785 0.0
H3149 H 0.76434 0.74493 0.11568 0.0
H3150 H 0.78015 0.71615 0.10013 0.0
H3151 H 0.76221 0.73127 0.05319 0.0
H3152 H 0.74613 0.75974 0.06852 0.0
H3153 H 0.72638 0.7358 0.04861 0.0
H3154 H 0.65353 0.69126 0.11383 0.0
H3155 H 0.6368 0.73674 0.12471 0.0
H3156 H 0.71566 0.77185 0.10525 0.0
C3157 C 0.74599 0.67501 0.06414 0.0
C3158 C 0.73403 0.65032 0.05517 0.0
C3159 C 0.70879 0.64167 0.06598 0.0
C3160 C 0.69487 0.65815 0.08424 0.0
C3161 C 0.70649 0.68316 0.09153 0.0
C3162 C 0.73167 0.69145 0.08203 0.0
C3163 C 0.73764 0.72094 0.08901 0.0
C3164 C 0.76114 0.72342 0.10939 0.0
C3165 C 0.7434 0.73791 0.06331 0.0
C3166 C 0.71115 0.72847 0.10209 0.0
C3167 C 0.69379 0.7062 0.10417 0.0
C3168 C 0.66715 0.70871 0.11291 0.0
C3169 C 0.65779 0.7347 0.11892 0.0
C3170 C 0.67489 0.75792 0.11576 0.0
C3171 C 0.70216 0.75452 0.10815 0.0
H3172 H 0.51743 0.51755 0.3171 0.0
H3173 H 0.57737 0.45491 0.32342 0.0
H3174 H 0.54636 0.42759 0.35188 0.0
H3175 H 0.48378 0.50487 0.38674 0.0
H3176 H 0.45089 0.51083 0.37234 0.0
H3177 H 0.48024 0.52908 0.35964 0.0
H3178 H 0.46903 0.51216 0.31098 0.0
H3179 H 0.43992 0.49383 0.32347 0.0
H3180 H 0.46545 0.47618 0.3047 0.0
H3181 H 0.50688 0.40314 0.37009 0.0
H3182 H 0.4613 0.38289 0.37589 0.0
H3183 H 0.42609 0.46074 0.35742 0.0
C3184 C 0.52431 0.4986 0.3255 0.0
C3185 C 0.54964 0.48829 0.31831 0.0
C3186 C 0.55792 0.46308 0.3288 0.0
C3187 C 0.54057 0.44756 0.34521 0.0
C3188 C 0.51511 0.45762 0.35096 0.0
C3189 C 0.50702 0.48269 0.34162 0.0
C3190 C 0.47717 0.48667 0.34652 0.0
C3191 C 0.47277 0.5092 0.36757 0.0
C3192 C 0.46203 0.49252 0.31983 0.0
C3193 C 0.46941 0.45912 0.35792 0.0
C3194 C 0.49173 0.44303 0.36123 0.0
C3195 C 0.48928 0.41572 0.3683 0.0
C3196 C 0.46331 0.40434 0.37133 0.0
C3197 C 0.4402 0.42022 0.36689 0.0
C3198 C 0.4434 0.44815 0.36111 0.0
H3199 H 0.2068 0.79972 0.90041 0.0
H3200 H 0.13967 0.84522 0.93214 0.0
H3201 H 0.10909 0.80553 0.92447 0.0
H3202 H 0.16802 0.75751 0.84984 0.0
H3203 H 0.18781 0.72812 0.85729 0.0
H3204 H 0.20289 0.76164 0.86015 0.0
H3205 H 0.21647 0.75127 0.90985 0.0
H3206 H 0.20106 0.71798 0.90734 0.0
H3207 H 0.19071 0.74087 0.93376 0.0
H3208 H 0.08707 0.75932 0.91789 0.0
H3209 H 0.07563 0.71034 0.91364 0.0
H3210 H 0.15822 0.69487 0.8893 0.0
C3211 C 0.18546 0.8017 0.90473 0.0
C3212 C 0.17545 0.82565 0.91641 0.0
C3213 C 0.14761 0.82712 0.92285 0.0
C3214 C 0.13013 0.8047 0.91856 0.0
C3215 C 0.14089 0.78098 0.90801 0.0
C3216 C 0.16792 0.77939 0.90109 0.0
C3217 C 0.17523 0.75076 0.89324 0.0
C3218 C 0.184 0.74944 0.86335 0.0
C3219 C 0.19715 0.73958 0.91218 0.0
C3220 C 0.1483 0.73634 0.89753 0.0
C3221 C 0.12859 0.75414 0.90553 0.0
C3222 C 0.10228 0.74524 0.91141 0.0
C3223 C 0.096 0.71741 0.90903 0.0
C3224 C 0.11611 0.69885 0.90137 0.0
C3225 C 0.14249 0.70857 0.89544 0.0
H3226 H 0.45599 0.88849 0.21995 0.0
H3227 H 0.45361 0.9697 0.18615 0.0
H3228 H 0.49259 0.95924 0.15679 0.0
H3229 H 0.52576 0.88379 0.22397 0.0
H3230 H 0.52684 0.84843 0.21469 0.0
H3231 H 0.49722 0.86147 0.23084 0.0
H3232 H 0.46753 0.84386 0.19081 0.0
H3233 H 0.49714 0.8307 0.17453 0.0
H3234 H 0.47585 0.85395 0.15662 0.0
H3235 H 0.53515 0.94157 0.1354 0.0
H3236 H 0.57649 0.9174 0.12219 0.0
H3237 H 0.54927 0.84731 0.16872 0.0
C3238 C 0.46339 0.90398 0.2061 0.0
C3239 C 0.45184 0.92993 0.20536 0.0
C3240 C 0.4621 0.94963 0.18695 0.0
C3241 C 0.48421 0.94388 0.1702 0.0
C3242 C 0.49545 0.91821 0.17184 0.0
C3243 C 0.48515 0.89848 0.18909 0.0
C3244 C 0.50154 0.87293 0.18801 0.0
C3245 C 0.51355 0.86629 0.21603 0.0
C3246 C 0.48449 0.84895 0.17682 0.0
C3247 C 0.52328 0.88167 0.16815 0.0
C3248 C 0.5194 0.90779 0.15891 0.0
C3249 C 0.53812 0.92093 0.14208 0.0
C3250 C 0.56155 0.9071 0.13476 0.0
C3251 C 0.56593 0.88041 0.14422 0.0
C3252 C 0.54624 0.86747 0.16071 0.0
H3253 H 0.0777 0.07699 0.69998 0.0
H3254 H 0.07443 0.99089 0.68138 0.0
H3255 H 0.04534 -0.00012 0.64183 0.0
H3256 H 0.01183 0.08827 0.68957 0.0
H3257 H 0.01567 0.12158 0.67484 0.0
H3258 H 0.04117 0.10926 0.69734 0.0
H3259 H 0.07758 0.1175 0.66019 0.0
H3260 H 0.05196 0.12976 0.63745 0.0
H3261 H 0.07314 0.10225 0.62714 0.0
H3262 H 0.00971 0.01656 0.61094 0.0
H3263 H 0.96987 0.03942 0.59223 0.0
H3264 H -0.00292 0.11492 0.62976 0.0
C3265 C 0.07162 0.06015 0.68703 0.0
C3266 C 0.07835 0.03328 0.69367 0.0
C3267 C 0.06956 0.01168 0.67661 0.0
C3268 C 0.05319 0.01661 0.65397 0.0
C3269 C 0.04609 0.04327 0.64849 0.0
C3270 C 0.05524 0.06475 0.66442 0.0
C3271 C 0.04172 0.09088 0.65666 0.0
C3272 C 0.02671 0.10318 0.68104 0.0
C3273 C 0.06233 0.1113 0.64464 0.0
C3274 C 0.02224 0.08042 0.63514 0.0
C3275 C 0.02552 0.05305 0.63022 0.0
C3276 C 0.00742 0.03814 0.61401 0.0
C3277 C 0.9848 0.05127 0.6035 0.0
C3278 C 0.98046 0.07897 0.60941 0.0
C3279 C 0.00015 0.0939 0.62434 0.0
loop_
_geom_bond_atom_site_label_1
_geom_bond_atom_site_label_2
_geom_bond_distance
_geom_bond_site_symmetry_2
_ccdc_geom_bond_type
C0 O1 1.306 . S
C0 O3 1.160 . S
O1 C0 1.306 . S
O1 Cd2 2.228 . S
Cd2 O1 2.228 . S
Cd2 O6 2.273 . S
Cd2 O10 2.277 . S
O3 C0 1.160 . S
O3 Cd4 2.203 1_655 S
Cd4 O3 2.203 1_455 S
Cd4 O6 2.411 1_455 S
Cd4 O7 2.333 . S
Cd4 O8 2.352 . S
Cd4 O12 2.277 . S
Cd4 O13 2.356 . S
C5 O10 1.209 1_455 S
C5 O12 1.226 . S
O6 Cd2 2.273 . S
O6 Cd4 2.411 1_655 S
O6 C9 1.320 . S
O7 Cd4 2.333 . S
O7 C9 1.214 1_455 S
O8 Cd4 2.352 . S
O8 C11 1.258 . S
C9 O6 1.320 . S
C9 O7 1.214 1_655 S
O10 Cd2 2.277 . S
O10 C5 1.209 1_655 S
C11 O8 1.258 . S
C11 O13 1.282 . S
O12 Cd4 2.277 . S
O12 C5 1.226 . S
O13 Cd4 2.356 . S
O13 C11 1.282 . S
C14 O15 1.306 . S
C14 O17 1.160 . S
O15 C14 1.306 . S
O15 Cd16 2.228 1_455 S
Cd16 O15 2.228 1_655 S
Cd16 O20 2.273 . S
Cd16 O24 2.277 . S
O17 C14 1.160 . S
O17 Cd18 2.203 . S
Cd18 O17 2.203 . S
Cd18 O20 2.411 1_455 S
Cd18 O21 2.333 1_455 S
Cd18 O22 2.352 . S
Cd18 O26 2.277 1_455 S
Cd18 O27 2.356 . S
C19 O24 1.209 . S
C19 O26 1.226 . S
O20 Cd16 2.273 . S
O20 Cd18 2.411 1_655 S
O20 C23 1.320 . S
O21 Cd18 2.333 1_655 S
O21 C23 1.214 . S
O22 Cd18 2.352 . S
O22 C25 1.258 . S
C23 O20 1.320 . S
C23 O21 1.214 . S
O24 Cd16 2.277 . S
O24 C19 1.209 . S
C25 O22 1.258 . S
C25 O27 1.282 . S
O26 Cd18 2.277 1_655 S
O26 C19 1.226 . S
O27 Cd18 2.356 . S
O27 C25 1.282 . S
C28 O29 1.306 . S
C28 O31 1.160 . S
O29 C28 1.306 . S
O29 Cd30 2.228 . S
Cd30 O29 2.228 . S
Cd30 O34 2.273 . S
Cd30 O38 2.277 . S
O31 C28 1.160 . S
O31 Cd32 2.203 . S
Cd32 O31 2.203 . S
Cd32 O34 2.411 . S
Cd32 O35 2.333 . S
Cd32 O36 2.352 . S
Cd32 O40 2.277 . S
Cd32 O41 2.356 . S
C33 O38 1.209 . S
C33 O40 1.226 . S
O34 Cd30 2.273 . S
O34 Cd32 2.411 . S
O34 C37 1.320 . S
O35 Cd32 2.333 . S
O35 C37 1.214 . S
O36 Cd32 2.352 . S
O36 C39 1.258 . S
C37 O34 1.320 . S
C37 O35 1.214 . S
O38 Cd30 2.277 . S
O38 C33 1.209 . S
C39 O36 1.258 . S
C39 O41 1.282 . S
O40 Cd32 2.277 . S
O40 C33 1.226 . S
O41 Cd32 2.356 . S
O41 C39 1.282 . S
C42 O43 1.306 . S
C42 O45 1.160 . S
O43 C42 1.306 . S
O43 Cd44 2.228 . S
Cd44 O43 2.228 . S
Cd44 O48 2.273 . S
Cd44 O52 2.277 . S
O45 C42 1.160 . S
O45 Cd46 2.203 . S
Cd46 O45 2.203 . S
Cd46 O48 2.411 . S
Cd46 O49 2.333 . S
Cd46 O50 2.352 . S
Cd46 O54 2.277 . S
Cd46 O55 2.356 . S
C47 O52 1.209 . S
C47 O54 1.226 . S
O48 Cd44 2.273 . S
O48 Cd46 2.411 . S
O48 C51 1.320 . S
O49 Cd46 2.333 . S
O49 C51 1.214 . S
O50 Cd46 2.352 . S
O50 C53 1.258 . S
C51 O48 1.320 . S
C51 O49 1.214 . S
O52 Cd44 2.277 . S
O52 C47 1.209 . S
C53 O50 1.258 . S
C53 O55 1.282 . S
O54 Cd46 2.277 . S
O54 C47 1.226 . S
O55 Cd46 2.356 . S
O55 C53 1.282 . S
C56 O57 1.306 . S
C56 O59 1.160 . S
O57 C56 1.306 . S
O57 Cd58 2.228 . S
Cd58 O57 2.228 . S
Cd58 O62 2.273 . S
Cd58 O66 2.277 . S
O59 C56 1.160 . S
O59 Cd60 2.203 1_655 S
Cd60 O59 2.203 1_455 S
Cd60 O62 2.411 1_455 S
Cd60 O63 2.333 . S
Cd60 O64 2.352 . S
Cd60 O68 2.277 . S
Cd60 O69 2.356 . S
C61 O66 1.209 1_455 S
C61 O68 1.226 . S
O62 Cd58 2.273 . S
O62 Cd60 2.411 1_655 S
O62 C65 1.320 . S
O63 Cd60 2.333 . S
O63 C65 1.214 1_455 S
O64 Cd60 2.352 . S
O64 C67 1.258 . S
C65 O62 1.320 . S
C65 O63 1.214 1_655 S
O66 Cd58 2.277 . S
O66 C61 1.209 1_655 S
C67 O64 1.258 . S
C67 O69 1.282 . S
O68 Cd60 2.277 . S
O68 C61 1.226 . S
O69 Cd60 2.356 . S
O69 C67 1.282 . S
C70 O71 1.306 . S
C70 O73 1.160 . S
O71 C70 1.306 . S
O71 Cd72 2.228 . S
Cd72 O71 2.228 . S
Cd72 O76 2.273 . S
Cd72 O80 2.277 . S
O73 C70 1.160 . S
O73 Cd74 2.203 . S
Cd74 O73 2.203 . S
Cd74 O76 2.411 . S
Cd74 O77 2.333 . S
Cd74 O78 2.352 . S
Cd74 O82 2.277 . S
Cd74 O83 2.356 . S
C75 O80 1.209 . S
C75 O82 1.226 . S
O76 Cd72 2.273 . S
O76 Cd74 2.411 . S
O76 C79 1.320 . S
O77 Cd74 2.333 . S
O77 C79 1.214 . S
O78 Cd74 2.352 . S
O78 C81 1.258 . S
C79 O76 1.320 . S
C79 O77 1.214 . S
O80 Cd72 2.277 . S
O80 C75 1.209 . S
C81 O78 1.258 . S
C81 O83 1.282 . S
O82 Cd74 2.277 . S
O82 C75 1.226 . S
O83 Cd74 2.356 . S
O83 C81 1.282 . S
C84 O85 1.306 . S
C84 O87 1.160 . S
O85 C84 1.306 . S
O85 Cd86 2.228 . S
Cd86 O85 2.228 . S
Cd86 O90 2.273 . S
Cd86 O94 2.277 . S
O87 C84 1.160 . S
O87 Cd88 2.203 . S
Cd88 O87 2.203 . S
Cd88 O90 2.411 . S
Cd88 O91 2.333 . S
Cd88 O92 2.352 . S
Cd88 O96 2.277 . S
Cd88 O97 2.356 . S
C89 O94 1.209 . S
C89 O96 1.226 . S
O90 Cd86 2.273 . S
O90 Cd88 2.411 . S
O90 C93 1.320 . S
O91 Cd88 2.333 . S
O91 C93 1.214 . S
O92 Cd88 2.352 . S
O92 C95 1.258 . S
C93 O90 1.320 . S
C93 O91 1.214 . S
O94 Cd86 2.277 . S
O94 C89 1.209 . S
C95 O92 1.258 . S
C95 O97 1.282 . S
O96 Cd88 2.277 . S
O96 C89 1.226 . S
O97 Cd88 2.356 . S
O97 C95 1.282 . S
C98 O99 1.306 . S
C98 O101 1.160 . S
O99 C98 1.306 . S
O99 Cd100 2.228 1_455 S
Cd100 O99 2.228 1_655 S
Cd100 O104 2.273 . S
Cd100 O108 2.277 . S
O101 C98 1.160 . S
O101 Cd102 2.203 . S
Cd102 O101 2.203 . S
Cd102 O104 2.411 1_455 S
Cd102 O105 2.333 1_455 S
Cd102 O106 2.352 . S
Cd102 O110 2.277 1_455 S
Cd102 O111 2.356 . S
C103 O108 1.209 . S
C103 O110 1.226 . S
O104 Cd100 2.273 . S
O104 Cd102 2.411 1_655 S
O104 C107 1.320 . S
O105 Cd102 2.333 1_655 S
O105 C107 1.214 . S
O106 Cd102 2.352 . S
O106 C109 1.258 . S
C107 O104 1.320 . S
C107 O105 1.214 . S
O108 Cd100 2.277 . S
O108 C103 1.209 . S
C109 O106 1.258 . S
C109 O111 1.282 . S
O110 Cd102 2.277 1_655 S
O110 C103 1.226 . S
O111 Cd102 2.356 . S
O111 C109 1.282 . S
C112 O113 1.306 . S
C112 O115 1.160 . S
O113 C112 1.306 . S
O113 Cd114 2.228 . S
Cd114 O113 2.228 . S
Cd114 O118 2.273 . S
Cd114 O122 2.277 . S
O115 C112 1.160 . S
O115 Cd116 2.203 1_565 S
Cd116 O115 2.203 1_545 S
Cd116 O118 2.411 1_545 S
Cd116 O119 2.333 . S
Cd116 O120 2.352 . S
Cd116 O124 2.277 . S
Cd116 O125 2.356 . S
C117 O122 1.209 1_545 S
C117 O124 1.226 . S
O118 Cd114 2.273 . S
O118 Cd116 2.411 1_565 S
O118 C121 1.320 . S
O119 Cd116 2.333 . S
O119 C121 1.214 1_545 S
O120 Cd116 2.352 . S
O120 C123 1.258 . S
C121 O118 1.320 . S
C121 O119 1.214 1_565 S
O122 Cd114 2.277 . S
O122 C117 1.209 1_565 S
C123 O120 1.258 . S
C123 O125 1.282 . S
O124 Cd116 2.277 . S
O124 C117 1.226 . S
O125 Cd116 2.356 . S
O125 C123 1.282 . S
C126 O127 1.306 . S
C126 O129 1.160 . S
O127 C126 1.306 . S
O127 Cd128 2.228 . S
Cd128 O127 2.228 . S
Cd128 O132 2.273 . S
Cd128 O136 2.277 . S
O129 C126 1.160 . S
O129 Cd130 2.203 . S
Cd130 O129 2.203 . S
Cd130 O132 2.411 . S
Cd130 O133 2.333 . S
Cd130 O134 2.352 . S
Cd130 O138 2.277 . S
Cd130 O139 2.356 . S
C131 O136 1.209 . S
C131 O138 1.226 . S
O132 Cd128 2.273 . S
O132 Cd130 2.411 . S
O132 C135 1.320 . S
O133 Cd130 2.333 . S
O133 C135 1.214 . S
O134 Cd130 2.352 . S
O134 C137 1.258 . S
C135 O132 1.320 . S
C135 O133 1.214 . S
O136 Cd128 2.277 . S
O136 C131 1.209 . S
C137 O134 1.258 . S
C137 O139 1.282 . S
O138 Cd130 2.277 . S
O138 C131 1.226 . S
O139 Cd130 2.356 . S
O139 C137 1.282 . S
C140 O141 1.306 . S
C140 O143 1.160 . S
O141 C140 1.306 . S
O141 Cd142 2.228 . S
Cd142 O141 2.228 . S
Cd142 O146 2.273 . S
Cd142 O150 2.277 . S
O143 C140 1.160 . S
O143 Cd144 2.203 1_565 S
Cd144 O143 2.203 1_545 S
Cd144 O146 2.411 1_545 S
Cd144 O147 2.333 . S
Cd144 O148 2.352 . S
Cd144 O152 2.277 . S
Cd144 O153 2.356 . S
C145 O150 1.209 1_545 S
C145 O152 1.226 . S
O146 Cd142 2.273 . S
O146 Cd144 2.411 1_565 S
O146 C149 1.320 . S
O147 Cd144 2.333 . S
O147 C149 1.214 1_545 S
O148 Cd144 2.352 . S
O148 C151 1.258 . S
C149 O146 1.320 . S
C149 O147 1.214 1_565 S
O150 Cd142 2.277 . S
O150 C145 1.209 1_565 S
C151 O148 1.258 . S
C151 O153 1.282 . S
O152 Cd144 2.277 . S
O152 C145 1.226 . S
O153 Cd144 2.356 . S
O153 C151 1.282 . S
C154 O155 1.306 . S
C154 O157 1.160 . S
O155 C154 1.306 . S
O155 Cd156 2.228 1_554 S
Cd156 O155 2.228 1_556 S
Cd156 O160 2.273 . S
Cd156 O164 2.277 . S
O157 C154 1.160 . S
O157 Cd158 2.203 . S
Cd158 O157 2.203 . S
Cd158 O160 2.411 1_554 S
Cd158 O161 2.333 1_554 S
Cd158 O162 2.352 . S
Cd158 O166 2.277 1_554 S
Cd158 O167 2.356 . S
C159 O164 1.209 . S
C159 O166 1.226 . S
O160 Cd156 2.273 . S
O160 Cd158 2.411 1_556 S
O160 C163 1.320 . S
O161 Cd158 2.333 1_556 S
O161 C163 1.214 . S
O162 Cd158 2.352 . S
O162 C165 1.258 . S
C163 O160 1.320 . S
C163 O161 1.214 . S
O164 Cd156 2.277 . S
O164 C159 1.209 . S
C165 O162 1.258 . S
C165 O167 1.282 . S
O166 Cd158 2.277 1_556 S
O166 C159 1.226 . S
O167 Cd158 2.356 . S
O167 C165 1.282 . S
C168 O169 1.306 . S
C168 O171 1.160 . S
O169 C168 1.306 . S
O169 Cd170 2.228 . S
Cd170 O169 2.228 . S
Cd170 O174 2.273 . S
Cd170 O178 2.277 . S
O171 C168 1.160 . S
O171 Cd172 2.203 1_554 S
Cd172 O171 2.203 1_556 S
Cd172 O174 2.411 1_556 S
Cd172 O175 2.337 . S
Cd172 O176 2.349 1_556 S
Cd172 O180 2.277 . S
Cd172 O181 2.356 . S
C173 O178 1.209 1_556 S
C173 O180 1.226 . S
O174 Cd170 2.273 . S
O174 Cd172 2.411 1_554 S
O174 C177 1.320 . S
O175 Cd172 2.337 . S
O175 C177 1.172 1_556 S
O176 Cd172 2.349 1_554 S
O176 C179 1.237 1_554 S
C177 O174 1.320 . S
C177 O175 1.172 1_554 S
O178 Cd170 2.277 . S
O178 C173 1.209 1_554 S
C179 O176 1.237 1_556 S
C179 O181 1.282 . S
O180 Cd172 2.277 . S
O180 C173 1.226 . S
O181 Cd172 2.356 . S
O181 C179 1.282 . S
C182 O183 1.306 . S
C182 O185 1.160 . S
O183 C182 1.306 . S
O183 Cd184 2.228 . S
Cd184 O183 2.228 . S
Cd184 O188 2.273 . S
Cd184 O192 2.277 . S
O185 C182 1.160 . S
O185 Cd186 2.203 1_554 S
Cd186 O185 2.203 1_556 S
Cd186 O188 2.411 1_556 S
Cd186 O189 2.333 . S
Cd186 O190 2.352 . S
Cd186 O194 2.277 . S
Cd186 O195 2.356 . S
C187 O192 1.209 1_556 S
C187 O194 1.226 . S
O188 Cd184 2.273 . S
O188 Cd186 2.411 1_554 S
O188 C191 1.320 . S
O189 Cd186 2.333 . S
O189 C191 1.214 1_556 S
O190 Cd186 2.352 . S
O190 C193 1.258 . S
C191 O188 1.320 . S
C191 O189 1.214 1_554 S
O192 Cd184 2.277 . S
O192 C187 1.209 1_554 S
C193 O190 1.258 . S
C193 O195 1.282 . S
O194 Cd186 2.277 . S
O194 C187 1.226 . S
O195 Cd186 2.356 . S
O195 C193 1.282 . S
C196 O197 1.306 . S
C196 O199 1.160 . S
O197 C196 1.306 . S
O197 Cd198 2.228 . S
Cd198 O197 2.228 . S
Cd198 O202 2.273 . S
Cd198 O206 2.277 . S
O199 C196 1.160 . S
O199 Cd200 2.203 . S
Cd200 O199 2.203 . S
Cd200 O202 2.411 . S
Cd200 O203 2.333 . S
Cd200 O204 2.352 . S
Cd200 O208 2.277 . S
Cd200 O209 2.356 . S
C201 O206 1.209 . S
C201 O208 1.226 . S
O202 Cd198 2.273 . S
O202 Cd200 2.411 . S
O202 C205 1.320 . S
O203 Cd200 2.333 . S
O203 C205 1.214 . S
O204 Cd200 2.352 . S
O204 C207 1.258 . S
C205 O202 1.320 . S
C205 O203 1.214 . S
O206 Cd198 2.277 . S
O206 C201 1.209 . S
C207 O204 1.258 . S
C207 O209 1.282 . S
O208 Cd200 2.277 . S
O208 C201 1.226 . S
O209 Cd200 2.356 . S
O209 C207 1.282 . S
C210 O211 1.306 . S
C210 O213 1.160 . S
O211 C210 1.306 . S
O211 Cd212 2.228 . S
Cd212 O211 2.228 . S
Cd212 O216 2.273 . S
Cd212 O220 2.277 . S
O213 C210 1.160 . S
O213 Cd214 2.203 . S
Cd214 O213 2.203 . S
Cd214 O216 2.411 . S
Cd214 O217 2.333 . S
Cd214 O218 2.352 . S
Cd214 O222 2.277 . S
Cd214 O223 2.356 . S
C215 O220 1.209 . S
C215 O222 1.226 . S
O216 Cd212 2.273 . S
O216 Cd214 2.411 . S
O216 C219 1.320 . S
O217 Cd214 2.333 . S
O217 C219 1.214 . S
O218 Cd214 2.352 . S
O218 C221 1.258 . S
C219 O216 1.320 . S
C219 O217 1.214 . S
O220 Cd212 2.277 . S
O220 C215 1.209 . S
C221 O218 1.258 . S
C221 O223 1.282 . S
O222 Cd214 2.277 . S
O222 C215 1.226 . S
O223 Cd214 2.356 . S
O223 C221 1.282 . S
C224 O225 1.306 . S
C224 O227 1.160 . S
O225 C224 1.306 . S
O225 Cd226 2.228 1_545 S
Cd226 O225 2.228 1_565 S
Cd226 O230 2.273 . S
Cd226 O234 2.277 . S
O227 C224 1.160 . S
O227 Cd228 2.203 . S
Cd228 O227 2.203 . S
Cd228 O230 2.411 1_545 S
Cd228 O231 2.333 1_545 S
Cd228 O232 2.352 . S
Cd228 O236 2.277 1_545 S
Cd228 O237 2.356 . S
C229 O234 1.209 . S
C229 O236 1.226 . S
O230 Cd226 2.273 . S
O230 Cd228 2.411 1_565 S
O230 C233 1.320 . S
O231 Cd228 2.333 1_565 S
O231 C233 1.214 . S
O232 Cd228 2.352 . S
O232 C235 1.258 . S
C233 O230 1.320 . S
C233 O231 1.214 . S
O234 Cd226 2.277 . S
O234 C229 1.209 . S
C235 O232 1.258 . S
C235 O237 1.282 . S
O236 Cd228 2.277 1_565 S
O236 C229 1.226 . S
O237 Cd228 2.356 . S
O237 C235 1.282 . S
C238 O239 1.306 . S
C238 O241 1.160 . S
O239 C238 1.306 . S
O239 Cd240 2.228 . S
Cd240 O239 2.228 . S
Cd240 O244 2.273 . S
Cd240 O248 2.277 . S
O241 C238 1.160 . S
O241 Cd242 2.203 . S
Cd242 O241 2.203 . S
Cd242 O244 2.411 . S
Cd242 O245 2.333 . S
Cd242 O246 2.352 . S
Cd242 O250 2.277 . S
Cd242 O251 2.356 . S
C243 O248 1.209 . S
C243 O250 1.226 . S
O244 Cd240 2.273 . S
O244 Cd242 2.411 . S
O244 C247 1.320 . S
O245 Cd242 2.333 . S
O245 C247 1.214 . S
O246 Cd242 2.352 . S
O246 C249 1.258 . S
C247 O244 1.320 . S
C247 O245 1.214 . S
O248 Cd240 2.277 . S
O248 C243 1.209 . S
C249 O246 1.258 . S
C249 O251 1.282 . S
O250 Cd242 2.277 . S
O250 C243 1.226 . S
O251 Cd242 2.356 . S
O251 C249 1.282 . S
C252 O253 1.306 . S
C252 O255 1.160 . S
O253 C252 1.306 . S
O253 Cd254 2.228 . S
Cd254 O253 2.228 . S
Cd254 O258 2.273 . S
Cd254 O262 2.277 . S
O255 C252 1.160 . S
O255 Cd256 2.203 . S
Cd256 O255 2.203 . S
Cd256 O258 2.411 . S
Cd256 O259 2.333 . S
Cd256 O260 2.352 . S
Cd256 O264 2.277 . S
Cd256 O265 2.356 . S
C257 O262 1.209 . S
C257 O264 1.226 . S
O258 Cd254 2.273 . S
O258 Cd256 2.411 . S
O258 C261 1.320 . S
O259 Cd256 2.333 . S
O259 C261 1.214 . S
O260 Cd256 2.352 . S
O260 C263 1.258 . S
C261 O258 1.320 . S
C261 O259 1.214 . S
O262 Cd254 2.277 . S
O262 C257 1.209 . S
C263 O260 1.258 . S
C263 O265 1.282 . S
O264 Cd256 2.277 . S
O264 C257 1.226 . S
O265 Cd256 2.356 . S
O265 C263 1.282 . S
C266 O267 1.306 . S
C266 O269 1.160 . S
O267 C266 1.306 . S
O267 Cd268 2.228 1_545 S
Cd268 O267 2.228 1_565 S
Cd268 O272 2.273 . S
Cd268 O276 2.277 . S
O269 C266 1.160 . S
O269 Cd270 2.203 . S
Cd270 O269 2.203 . S
Cd270 O272 2.411 1_545 S
Cd270 O273 2.333 1_545 S
Cd270 O274 2.352 . S
Cd270 O278 2.277 1_545 S
Cd270 O279 2.356 . S
C271 O276 1.209 . S
C271 O278 1.226 . S
O272 Cd268 2.273 . S
O272 Cd270 2.411 1_565 S
O272 C275 1.320 . S
O273 Cd270 2.333 1_565 S
O273 C275 1.214 . S
O274 Cd270 2.352 . S
O274 C277 1.258 . S
C275 O272 1.320 . S
C275 O273 1.214 . S
O276 Cd268 2.277 . S
O276 C271 1.209 . S
C277 O274 1.258 . S
C277 O279 1.282 . S
O278 Cd270 2.277 1_565 S
O278 C271 1.226 . S
O279 Cd270 2.356 . S
O279 C277 1.282 . S
C280 O281 1.306 . S
C280 O283 1.160 . S
O281 C280 1.306 . S
O281 Cd282 2.228 1_554 S
Cd282 O281 2.228 1_556 S
Cd282 O286 2.273 . S
Cd282 O290 2.277 . S
O283 C280 1.160 . S
O283 Cd284 2.203 . S
Cd284 O283 2.203 . S
Cd284 O286 2.411 1_554 S
Cd284 O287 2.333 1_554 S
Cd284 O288 2.352 . S
Cd284 O292 2.277 1_554 S
Cd284 O293 2.356 . S
C285 O290 1.209 . S
C285 O292 1.226 . S
O286 Cd282 2.273 . S
O286 Cd284 2.411 1_556 S
O286 C289 1.320 . S
O287 Cd284 2.333 1_556 S
O287 C289 1.214 . S
O288 Cd284 2.352 . S
O288 C291 1.258 . S
C289 O286 1.320 . S
C289 O287 1.214 . S
O290 Cd282 2.277 . S
O290 C285 1.209 . S
C291 O288 1.258 . S
C291 O293 1.282 . S
O292 Cd284 2.277 1_556 S
O292 C285 1.226 . S
O293 Cd284 2.356 . S
O293 C291 1.282 . S
C294 O295 1.306 . S
C294 O297 1.160 . S
O295 C294 1.306 . S
O295 Cd296 2.228 . S
Cd296 O295 2.228 . S
Cd296 O300 2.273 . S
Cd296 O304 2.277 . S
O297 C294 1.160 . S
O297 Cd298 2.203 . S
Cd298 O297 2.203 . S
Cd298 O300 2.411 . S
Cd298 O301 2.333 . S
Cd298 O302 2.352 . S
Cd298 O306 2.277 . S
Cd298 O307 2.356 . S
C299 O304 1.209 . S
C299 O306 1.226 . S
O300 Cd296 2.273 . S
O300 Cd298 2.411 . S
O300 C303 1.320 . S
O301 Cd298 2.333 . S
O301 C303 1.214 . S
O302 Cd298 2.352 . S
O302 C305 1.258 . S
C303 O300 1.320 . S
C303 O301 1.214 . S
O304 Cd296 2.277 . S
O304 C299 1.209 . S
C305 O302 1.258 . S
C305 O307 1.282 . S
O306 Cd298 2.277 . S
O306 C299 1.226 . S
O307 Cd298 2.356 . S
O307 C305 1.282 . S
C308 O309 1.306 . S
C308 O311 1.160 . S
O309 C308 1.306 . S
O309 Cd310 2.228 . S
Cd310 O309 2.228 . S
Cd310 O314 2.273 . S
Cd310 O318 2.277 . S
O311 C308 1.160 . S
O311 Cd312 2.203 . S
Cd312 O311 2.203 . S
Cd312 O314 2.411 . S
Cd312 O315 2.333 . S
Cd312 O316 2.352 . S
Cd312 O320 2.277 . S
Cd312 O321 2.356 . S
C313 O318 1.209 . S
C313 O320 1.226 . S
O314 Cd310 2.273 . S
O314 Cd312 2.411 . S
O314 C317 1.320 . S
O315 Cd312 2.333 . S
O315 C317 1.214 . S
O316 Cd312 2.352 . S
O316 C319 1.258 . S
C317 O314 1.320 . S
C317 O315 1.214 . S
O318 Cd310 2.277 . S
O318 C313 1.209 . S
C319 O316 1.258 . S
C319 O321 1.282 . S
O320 Cd312 2.277 . S
O320 C313 1.226 . S
O321 Cd312 2.356 . S
O321 C319 1.282 . S
C322 O323 1.306 . S
C322 O325 1.160 . S
O323 C322 1.306 . S
O323 Cd324 2.228 . S
Cd324 O323 2.228 . S
Cd324 O328 2.273 . S
Cd324 O332 2.277 . S
O325 C322 1.160 . S
O325 Cd326 2.203 . S
Cd326 O325 2.203 . S
Cd326 O328 2.411 . S
Cd326 O329 2.333 . S
Cd326 O330 2.352 . S
Cd326 O334 2.277 . S
Cd326 O335 2.356 . S
C327 O332 1.209 . S
C327 O334 1.226 . S
O328 Cd324 2.273 . S
O328 Cd326 2.411 . S
O328 C331 1.320 . S
O329 Cd326 2.333 . S
O329 C331 1.214 . S
O330 Cd326 2.352 . S
O330 C333 1.258 . S
C331 O328 1.320 . S
C331 O329 1.214 . S
O332 Cd324 2.277 . S
O332 C327 1.209 . S
C333 O330 1.258 . S
C333 O335 1.282 . S
O334 Cd326 2.277 . S
O334 C327 1.226 . S
O335 Cd326 2.356 . S
O335 C333 1.282 . S
Fe336 O338 1.918 . S
Fe336 O341 1.997 . S
Fe336 O342 2.002 . S
Fe336 O347 1.976 . S
Fe336 O350 1.996 . S
Fe337 O338 1.918 . S
Fe337 O345 1.997 . S
Fe337 O348 1.996 . S
Fe337 O352 1.976 . S
Fe337 O355 2.002 . S
O338 Fe336 1.918 . S
O338 Fe337 1.918 . S
O338 Fe339 1.918 . S
Fe339 O338 1.918 . S
Fe339 O340 2.002 . S
Fe339 O349 1.976 . S
Fe339 O353 1.996 . S
Fe339 O356 1.997 . S
O340 Fe339 2.002 . S
O340 C357 1.295 . S
O341 Fe336 1.997 . S
O341 C357 1.235 . S
O342 Fe336 2.002 . S
O342 C343 1.295 . S
C343 O342 1.295 . S
C343 O345 1.235 . S
C344 O349 1.287 . S
C344 O350 1.255 . S
O345 Fe337 1.997 . S
O345 C343 1.235 . S
C346 O352 1.287 . S
C346 O353 1.255 . S
O347 Fe336 1.976 . S
O347 C354 1.287 . S
O348 Fe337 1.996 . S
O348 C354 1.255 . S
O349 Fe339 1.976 . S
O349 C344 1.287 . S
O350 Fe336 1.996 . S
O350 C344 1.255 . S
C351 O355 1.295 . S
C351 O356 1.235 . S
O352 Fe337 1.976 . S
O352 C346 1.287 . S
O353 Fe339 1.996 . S
O353 C346 1.255 . S
C354 O347 1.287 . S
C354 O348 1.255 . S
O355 Fe337 2.002 . S
O355 C351 1.295 . S
O356 Fe339 1.997 . S
O356 C351 1.235 . S
C357 O340 1.295 . S
C357 O341 1.235 . S
Fe358 O360 1.918 . S
Fe358 O363 1.997 . S
Fe358 O364 2.002 . S
Fe358 O369 1.976 . S
Fe358 O372 1.996 . S
Fe359 O360 1.918 . S
Fe359 O367 1.997 . S
Fe359 O370 1.996 . S
Fe359 O374 1.976 . S
Fe359 O377 2.002 . S
O360 Fe358 1.918 . S
O360 Fe359 1.918 . S
O360 Fe361 1.918 . S
Fe361 O360 1.918 . S
Fe361 O362 2.002 . S
Fe361 O371 1.976 . S
Fe361 O375 1.996 . S
Fe361 O378 1.997 . S
O362 Fe361 2.002 . S
O362 C379 1.295 . S
O363 Fe358 1.997 . S
O363 C379 1.235 . S
O364 Fe358 2.002 . S
O364 C365 1.295 . S
C365 O364 1.295 . S
C365 O367 1.235 . S
C366 O371 1.287 . S
C366 O372 1.255 . S
O367 Fe359 1.997 . S
O367 C365 1.235 . S
C368 O374 1.287 . S
C368 O375 1.255 . S
O369 Fe358 1.976 . S
O369 C376 1.287 . S
O370 Fe359 1.996 . S
O370 C376 1.255 . S
O371 Fe361 1.976 . S
O371 C366 1.287 . S
O372 Fe358 1.996 . S
O372 C366 1.255 . S
C373 O377 1.295 . S
C373 O378 1.235 . S
O374 Fe359 1.976 . S
O374 C368 1.287 . S
O375 Fe361 1.996 . S
O375 C368 1.255 . S
C376 O369 1.287 . S
C376 O370 1.255 . S
O377 Fe359 2.002 . S
O377 C373 1.295 . S
O378 Fe361 1.997 . S
O378 C373 1.235 . S
C379 O362 1.295 . S
C379 O363 1.235 . S
Fe380 O382 1.918 . S
Fe380 O385 1.997 . S
Fe380 O386 2.002 . S
Fe380 O391 1.976 . S
Fe380 O394 1.996 . S
Fe381 O382 1.918 . S
Fe381 O389 1.997 . S
Fe381 O392 1.996 . S
Fe381 O396 1.976 . S
Fe381 O399 2.002 . S
O382 Fe380 1.918 . S
O382 Fe381 1.918 . S
O382 Fe383 1.918 . S
Fe383 O382 1.918 . S
Fe383 O384 2.002 . S
Fe383 O393 1.976 . S
Fe383 O397 1.996 . S
Fe383 O400 1.997 . S
O384 Fe383 2.002 . S
O384 C401 1.295 . S
O385 Fe380 1.997 . S
O385 C401 1.235 . S
O386 Fe380 2.002 . S
O386 C387 1.295 . S
C387 O386 1.295 . S
C387 O389 1.235 . S
C388 O393 1.287 . S
C388 O394 1.255 . S
O389 Fe381 1.997 . S
O389 C387 1.235 . S
C390 O396 1.287 . S
C390 O397 1.255 . S
O391 Fe380 1.976 . S
O391 C398 1.287 . S
O392 Fe381 1.996 . S
O392 C398 1.255 . S
O393 Fe383 1.976 . S
O393 C388 1.287 . S
O394 Fe380 1.996 . S
O394 C388 1.255 . S
C395 O399 1.295 . S
C395 O400 1.235 . S
O396 Fe381 1.976 . S
O396 C390 1.287 . S
O397 Fe383 1.996 . S
O397 C390 1.255 . S
C398 O391 1.287 . S
C398 O392 1.255 . S
O399 Fe381 2.002 . S
O399 C395 1.295 . S
O400 Fe383 1.997 . S
O400 C395 1.235 . S
C401 O384 1.295 . S
C401 O385 1.235 . S
Fe402 O404 1.918 . S
Fe402 O407 1.997 . S
Fe402 O408 2.002 . S
Fe402 O413 1.976 . S
Fe402 O416 1.996 . S
Fe403 O404 1.918 . S
Fe403 O411 1.997 . S
Fe403 O414 1.996 . S
Fe403 O418 1.976 . S
Fe403 O421 2.002 . S
O404 Fe402 1.918 . S
O404 Fe403 1.918 . S
O404 Fe405 1.918 . S
Fe405 O404 1.918 . S
Fe405 O406 2.002 . S
Fe405 O415 1.976 . S
Fe405 O419 1.996 . S
Fe405 O422 1.997 . S
O406 Fe405 2.002 . S
O406 C423 1.295 . S
O407 Fe402 1.997 . S
O407 C423 1.235 . S
O408 Fe402 2.002 . S
O408 C409 1.295 . S
C409 O408 1.295 . S
C409 O411 1.235 . S
C410 O415 1.287 . S
C410 O416 1.255 . S
O411 Fe403 1.997 . S
O411 C409 1.235 . S
C412 O418 1.287 . S
C412 O419 1.255 . S
O413 Fe402 1.976 . S
O413 C420 1.287 . S
O414 Fe403 1.996 . S
O414 C420 1.255 . S
O415 Fe405 1.976 . S
O415 C410 1.287 . S
O416 Fe402 1.996 . S
O416 C410 1.255 . S
C417 O421 1.295 . S
C417 O422 1.235 . S
O418 Fe403 1.976 . S
O418 C412 1.287 . S
O419 Fe405 1.996 . S
O419 C412 1.255 . S
C420 O413 1.287 . S
C420 O414 1.255 . S
O421 Fe403 2.002 . S
O421 C417 1.295 . S
O422 Fe405 1.997 . S
O422 C417 1.235 . S
C423 O406 1.295 . S
C423 O407 1.235 . S
Fe424 O426 1.918 . S
Fe424 O429 1.997 . S
Fe424 O430 2.002 . S
Fe424 O435 1.976 . S
Fe424 O438 1.996 . S
Fe425 O426 1.918 . S
Fe425 O433 1.997 . S
Fe425 O436 1.996 . S
Fe425 O440 1.976 . S
Fe425 O443 2.002 . S
O426 Fe424 1.918 . S
O426 Fe425 1.918 . S
O426 Fe427 1.918 . S
Fe427 O426 1.918 . S
Fe427 O428 2.002 . S
Fe427 O437 1.976 . S
Fe427 O441 1.996 . S
Fe427 O444 1.997 . S
O428 Fe427 2.002 . S
O428 C445 1.295 . S
O429 Fe424 1.997 . S
O429 C445 1.235 . S
O430 Fe424 2.002 . S
O430 C431 1.295 . S
C431 O430 1.295 . S
C431 O433 1.235 . S
C432 O437 1.287 . S
C432 O438 1.255 . S
O433 Fe425 1.997 . S
O433 C431 1.235 . S
C434 O440 1.287 . S
C434 O441 1.255 . S
O435 Fe424 1.976 . S
O435 C442 1.287 . S
O436 Fe425 1.996 . S
O436 C442 1.255 . S
O437 Fe427 1.976 . S
O437 C432 1.287 . S
O438 Fe424 1.996 . S
O438 C432 1.255 . S
C439 O443 1.295 . S
C439 O444 1.235 . S
O440 Fe425 1.976 . S
O440 C434 1.287 . S
O441 Fe427 1.996 . S
O441 C434 1.255 . S
C442 O435 1.287 . S
C442 O436 1.255 . S
O443 Fe425 2.002 . S
O443 C439 1.295 . S
O444 Fe427 1.997 . S
O444 C439 1.235 . S
C445 O428 1.295 . S
C445 O429 1.235 . S
Fe446 O448 1.918 . S
Fe446 O451 1.997 . S
Fe446 O452 2.002 . S
Fe446 O457 1.976 . S
Fe446 O460 1.996 . S
Fe447 O448 1.918 . S
Fe447 O455 1.997 . S
Fe447 O458 1.996 . S
Fe447 O462 1.976 . S
Fe447 O465 2.002 . S
O448 Fe446 1.918 . S
O448 Fe447 1.918 . S
O448 Fe449 1.918 . S
Fe449 O448 1.918 . S
Fe449 O450 2.002 . S
Fe449 O459 1.976 . S
Fe449 O463 1.996 . S
Fe449 O466 1.997 . S
O450 Fe449 2.002 . S
O450 C467 1.295 . S
O451 Fe446 1.997 . S
O451 C467 1.235 . S
O452 Fe446 2.002 . S
O452 C453 1.295 . S
C453 O452 1.295 . S
C453 O455 1.235 . S
C454 O459 1.287 . S
C454 O460 1.255 . S
O455 Fe447 1.997 . S
O455 C453 1.235 . S
C456 O462 1.287 . S
C456 O463 1.255 . S
O457 Fe446 1.976 . S
O457 C464 1.287 . S
O458 Fe447 1.996 . S
O458 C464 1.255 . S
O459 Fe449 1.976 . S
O459 C454 1.287 . S
O460 Fe446 1.996 . S
O460 C454 1.255 . S
C461 O465 1.295 . S
C461 O466 1.235 . S
O462 Fe447 1.976 . S
O462 C456 1.287 . S
O463 Fe449 1.996 . S
O463 C456 1.255 . S
C464 O457 1.287 . S
C464 O458 1.255 . S
O465 Fe447 2.002 . S
O465 C461 1.295 . S
O466 Fe449 1.997 . S
O466 C461 1.235 . S
C467 O450 1.295 . S
C467 O451 1.235 . S
Fe468 O470 1.918 . S
Fe468 O473 1.997 . S
Fe468 O474 2.002 . S
Fe468 O479 1.976 . S
Fe468 O482 1.996 . S
Fe469 O470 1.918 . S
Fe469 O477 1.997 . S
Fe469 O480 1.996 . S
Fe469 O484 1.976 . S
Fe469 O487 2.002 . S
O470 Fe468 1.918 . S
O470 Fe469 1.918 . S
O470 Fe471 1.918 . S
Fe471 O470 1.918 . S
Fe471 O472 2.002 . S
Fe471 O481 1.976 . S
Fe471 O485 1.996 . S
Fe471 O488 1.997 . S
O472 Fe471 2.002 . S
O472 C489 1.295 . S
O473 Fe468 1.997 . S
O473 C489 1.235 . S
O474 Fe468 2.002 . S
O474 C475 1.295 . S
C475 O474 1.295 . S
C475 O477 1.235 . S
C476 O481 1.287 . S
C476 O482 1.255 . S
O477 Fe469 1.997 . S
O477 C475 1.235 . S
C478 O484 1.287 . S
C478 O485 1.255 . S
O479 Fe468 1.976 . S
O479 C486 1.287 . S
O480 Fe469 1.996 . S
O480 C486 1.255 . S
O481 Fe471 1.976 . S
O481 C476 1.287 . S
O482 Fe468 1.996 . S
O482 C476 1.255 . S
C483 O487 1.295 . S
C483 O488 1.235 . S
O484 Fe469 1.976 . S
O484 C478 1.287 . S
O485 Fe471 1.996 . S
O485 C478 1.255 . S
C486 O479 1.287 . S
C486 O480 1.255 . S
O487 Fe469 2.002 . S
O487 C483 1.295 . S
O488 Fe471 1.997 . S
O488 C483 1.235 . S
C489 O472 1.295 . S
C489 O473 1.235 . S
Fe490 O492 1.918 . S
Fe490 O495 1.997 . S
Fe490 O496 2.002 . S
Fe490 O501 1.976 . S
Fe490 O504 1.996 . S
Fe491 O492 1.918 . S
Fe491 O499 1.997 . S
Fe491 O502 1.996 . S
Fe491 O506 1.976 . S
Fe491 O509 2.002 . S
O492 Fe490 1.918 . S
O492 Fe491 1.918 . S
O492 Fe493 1.918 . S
Fe493 O492 1.918 . S
Fe493 O494 2.002 . S
Fe493 O503 1.976 . S
Fe493 O507 1.996 . S
Fe493 O510 1.997 . S
O494 Fe493 2.002 . S
O494 C511 1.295 . S
O495 Fe490 1.997 . S
O495 C511 1.235 . S
O496 Fe490 2.002 . S
O496 C497 1.295 . S
C497 O496 1.295 . S
C497 O499 1.235 . S
C498 O503 1.287 . S
C498 O504 1.255 . S
O499 Fe491 1.997 . S
O499 C497 1.235 . S
C500 O506 1.287 . S
C500 O507 1.255 . S
O501 Fe490 1.976 . S
O501 C508 1.287 . S
O502 Fe491 1.996 . S
O502 C508 1.255 . S
O503 Fe493 1.976 . S
O503 C498 1.287 . S
O504 Fe490 1.996 . S
O504 C498 1.255 . S
C505 O509 1.295 . S
C505 O510 1.235 . S
O506 Fe491 1.976 . S
O506 C500 1.287 . S
O507 Fe493 1.996 . S
O507 C500 1.255 . S
C508 O501 1.287 . S
C508 O502 1.255 . S
O509 Fe491 2.002 . S
O509 C505 1.295 . S
O510 Fe493 1.997 . S
O510 C505 1.235 . S
C511 O494 1.295 . S
C511 O495 1.235 . S
Fe512 O514 1.918 . S
Fe512 O517 1.997 . S
Fe512 O518 2.002 . S
Fe512 O523 1.976 . S
Fe512 O526 1.996 . S
Fe513 O514 1.918 . S
Fe513 O521 1.997 . S
Fe513 O524 1.996 . S
Fe513 O528 1.976 . S
Fe513 O531 2.002 . S
O514 Fe512 1.918 . S
O514 Fe513 1.918 . S
O514 Fe515 1.918 . S
Fe515 O514 1.918 . S
Fe515 O516 2.002 . S
Fe515 O525 1.976 . S
Fe515 O529 1.996 . S
Fe515 O532 1.997 . S
O516 Fe515 2.002 . S
O516 C533 1.295 . S
O517 Fe512 1.997 . S
O517 C533 1.235 . S
O518 Fe512 2.002 . S
O518 C519 1.295 . S
C519 O518 1.295 . S
C519 O521 1.235 . S
C520 O525 1.287 . S
C520 O526 1.255 . S
O521 Fe513 1.997 . S
O521 C519 1.235 . S
C522 O528 1.287 . S
C522 O529 1.255 . S
O523 Fe512 1.976 . S
O523 C530 1.287 . S
O524 Fe513 1.996 . S
O524 C530 1.255 . S
O525 Fe515 1.976 . S
O525 C520 1.287 . S
O526 Fe512 1.996 . S
O526 C520 1.255 . S
C527 O531 1.295 . S
C527 O532 1.235 . S
O528 Fe513 1.976 . S
O528 C522 1.287 . S
O529 Fe515 1.996 . S
O529 C522 1.255 . S
C530 O523 1.287 . S
C530 O524 1.255 . S
O531 Fe513 2.002 . S
O531 C527 1.295 . S
O532 Fe515 1.997 . S
O532 C527 1.235 . S
C533 O516 1.295 . S
C533 O517 1.235 . S
Fe534 O536 1.918 . S
Fe534 O539 1.997 . S
Fe534 O540 2.002 . S
Fe534 O545 1.976 . S
Fe534 O548 1.996 . S
Fe535 O536 1.918 . S
Fe535 O543 1.997 . S
Fe535 O546 1.996 . S
Fe535 O550 1.976 . S
Fe535 O553 2.002 . S
O536 Fe534 1.918 . S
O536 Fe535 1.918 . S
O536 Fe537 1.918 . S
Fe537 O536 1.918 . S
Fe537 O538 2.002 . S
Fe537 O547 1.976 . S
Fe537 O551 1.996 . S
Fe537 O554 1.997 . S
O538 Fe537 2.002 . S
O538 C555 1.295 . S
O539 Fe534 1.997 . S
O539 C555 1.235 . S
O540 Fe534 2.002 . S
O540 C541 1.295 . S
C541 O540 1.295 . S
C541 O543 1.235 . S
C542 O547 1.287 . S
C542 O548 1.255 . S
O543 Fe535 1.997 . S
O543 C541 1.235 . S
C544 O550 1.287 . S
C544 O551 1.255 . S
O545 Fe534 1.976 . S
O545 C552 1.287 . S
O546 Fe535 1.996 . S
O546 C552 1.255 . S
O547 Fe537 1.976 . S
O547 C542 1.287 . S
O548 Fe534 1.996 . S
O548 C542 1.255 . S
C549 O553 1.295 . S
C549 O554 1.235 . S
O550 Fe535 1.976 . S
O550 C544 1.287 . S
O551 Fe537 1.996 . S
O551 C544 1.255 . S
C552 O545 1.287 . S
C552 O546 1.255 . S
O553 Fe535 2.002 . S
O553 C549 1.295 . S
O554 Fe537 1.997 . S
O554 C549 1.235 . S
C555 O538 1.295 . S
C555 O539 1.235 . S
Fe556 O558 1.918 . S
Fe556 O561 1.997 . S
Fe556 O562 2.002 . S
Fe556 O567 1.976 . S
Fe556 O570 1.996 . S
Fe557 O558 1.918 . S
Fe557 O565 1.997 . S
Fe557 O568 1.996 . S
Fe557 O572 1.976 . S
Fe557 O575 2.002 . S
O558 Fe556 1.918 . S
O558 Fe557 1.918 . S
O558 Fe559 1.918 . S
Fe559 O558 1.918 . S
Fe559 O560 2.002 . S
Fe559 O569 1.976 . S
Fe559 O573 1.996 . S
Fe559 O576 1.997 . S
O560 Fe559 2.002 . S
O560 C577 1.295 . S
O561 Fe556 1.997 . S
O561 C577 1.235 . S
O562 Fe556 2.002 . S
O562 C563 1.295 . S
C563 O562 1.295 . S
C563 O565 1.235 . S
C564 O569 1.287 . S
C564 O570 1.255 . S
O565 Fe557 1.997 . S
O565 C563 1.235 . S
C566 O572 1.287 . S
C566 O573 1.255 . S
O567 Fe556 1.976 . S
O567 C574 1.287 . S
O568 Fe557 1.996 . S
O568 C574 1.255 . S
O569 Fe559 1.976 . S
O569 C564 1.287 . S
O570 Fe556 1.996 . S
O570 C564 1.255 . S
C571 O575 1.295 . S
C571 O576 1.235 . S
O572 Fe557 1.976 . S
O572 C566 1.287 . S
O573 Fe559 1.996 . S
O573 C566 1.255 . S
C574 O567 1.287 . S
C574 O568 1.255 . S
O575 Fe557 2.002 . S
O575 C571 1.295 . S
O576 Fe559 1.997 . S
O576 C571 1.235 . S
C577 O560 1.295 . S
C577 O561 1.235 . S
Fe578 O580 1.918 . S
Fe578 O583 1.997 . S
Fe578 O584 2.002 . S
Fe578 O589 1.976 . S
Fe578 O592 1.996 . S
Fe579 O580 1.918 . S
Fe579 O587 1.997 . S
Fe579 O590 1.996 . S
Fe579 O594 1.976 . S
Fe579 O597 2.002 . S
O580 Fe578 1.918 . S
O580 Fe579 1.918 . S
O580 Fe581 1.918 . S
Fe581 O580 1.918 . S
Fe581 O582 2.002 . S
Fe581 O591 1.976 . S
Fe581 O595 1.996 . S
Fe581 O598 1.997 . S
O582 Fe581 2.002 . S
O582 C599 1.295 . S
O583 Fe578 1.997 . S
O583 C599 1.235 . S
O584 Fe578 2.002 . S
O584 C585 1.295 . S
C585 O584 1.295 . S
C585 O587 1.235 . S
C586 O591 1.287 . S
C586 O592 1.255 . S
O587 Fe579 1.997 . S
O587 C585 1.235 . S
C588 O594 1.287 . S
C588 O595 1.255 . S
O589 Fe578 1.976 . S
O589 C596 1.287 . S
O590 Fe579 1.996 . S
O590 C596 1.255 . S
O591 Fe581 1.976 . S
O591 C586 1.287 . S
O592 Fe578 1.996 . S
O592 C586 1.255 . S
C593 O597 1.295 . S
C593 O598 1.235 . S
O594 Fe579 1.976 . S
O594 C588 1.287 . S
O595 Fe581 1.996 . S
O595 C588 1.255 . S
C596 O589 1.287 . S
C596 O590 1.255 . S
O597 Fe579 2.002 . S
O597 C593 1.295 . S
O598 Fe581 1.997 . S
O598 C593 1.235 . S
C599 O582 1.295 . S
C599 O583 1.235 . S
Fe600 O602 1.918 . S
Fe600 O605 1.997 . S
Fe600 O606 2.002 . S
Fe600 O611 1.976 . S
Fe600 O614 1.996 . S
Fe601 O602 1.918 . S
Fe601 O609 1.997 . S
Fe601 O612 1.996 . S
Fe601 O616 1.976 . S
Fe601 O619 2.002 . S
O602 Fe600 1.918 . S
O602 Fe601 1.918 . S
O602 Fe603 1.918 . S
Fe603 O602 1.918 . S
Fe603 O604 2.002 . S
Fe603 O613 1.976 . S
Fe603 O617 1.996 . S
Fe603 O620 1.997 . S
O604 Fe603 2.002 . S
O604 C621 1.295 . S
O605 Fe600 1.997 . S
O605 C621 1.235 . S
O606 Fe600 2.002 . S
O606 C607 1.295 . S
C607 O606 1.295 . S
C607 O609 1.235 . S
C608 O613 1.287 . S
C608 O614 1.255 . S
O609 Fe601 1.997 . S
O609 C607 1.235 . S
C610 O616 1.287 . S
C610 O617 1.255 . S
O611 Fe600 1.976 . S
O611 C618 1.287 . S
O612 Fe601 1.996 . S
O612 C618 1.255 . S
O613 Fe603 1.976 . S
O613 C608 1.287 . S
O614 Fe600 1.996 . S
O614 C608 1.255 . S
C615 O619 1.295 . S
C615 O620 1.235 . S
O616 Fe601 1.976 . S
O616 C610 1.287 . S
O617 Fe603 1.996 . S
O617 C610 1.255 . S
C618 O611 1.287 . S
C618 O612 1.255 . S
O619 Fe601 2.002 . S
O619 C615 1.295 . S
O620 Fe603 1.997 . S
O620 C615 1.235 . S
C621 O604 1.295 . S
C621 O605 1.235 . S
Fe622 O624 1.918 . S
Fe622 O627 1.997 . S
Fe622 O628 2.002 . S
Fe622 O633 1.976 . S
Fe622 O636 1.996 . S
Fe623 O624 1.918 . S
Fe623 O631 1.997 . S
Fe623 O634 1.996 . S
Fe623 O638 1.976 . S
Fe623 O641 2.002 . S
O624 Fe622 1.918 . S
O624 Fe623 1.918 . S
O624 Fe625 1.918 . S
Fe625 O624 1.918 . S
Fe625 O626 2.002 . S
Fe625 O635 1.976 . S
Fe625 O639 1.996 . S
Fe625 O642 1.997 . S
O626 Fe625 2.002 . S
O626 C643 1.295 . S
O627 Fe622 1.997 . S
O627 C643 1.235 . S
O628 Fe622 2.002 . S
O628 C629 1.295 . S
C629 O628 1.295 . S
C629 O631 1.235 . S
C630 O635 1.287 . S
C630 O636 1.255 . S
O631 Fe623 1.997 . S
O631 C629 1.235 . S
C632 O638 1.287 . S
C632 O639 1.255 . S
O633 Fe622 1.976 . S
O633 C640 1.287 . S
O634 Fe623 1.996 . S
O634 C640 1.255 . S
O635 Fe625 1.976 . S
O635 C630 1.287 . S
O636 Fe622 1.996 . S
O636 C630 1.255 . S
C637 O641 1.295 . S
C637 O642 1.235 . S
O638 Fe623 1.976 . S
O638 C632 1.287 . S
O639 Fe625 1.996 . S
O639 C632 1.255 . S
C640 O633 1.287 . S
C640 O634 1.255 . S
O641 Fe623 2.002 . S
O641 C637 1.295 . S
O642 Fe625 1.997 . S
O642 C637 1.235 . S
C643 O626 1.295 . S
C643 O627 1.235 . S
Fe644 O646 1.918 . S
Fe644 O649 1.997 . S
Fe644 O650 2.002 . S
Fe644 O655 1.976 . S
Fe644 O658 1.996 . S
Fe645 O646 1.918 . S
Fe645 O653 1.997 . S
Fe645 O656 1.996 . S
Fe645 O660 1.976 . S
Fe645 O663 2.002 . S
O646 Fe644 1.918 . S
O646 Fe645 1.918 . S
O646 Fe647 1.918 . S
Fe647 O646 1.918 . S
Fe647 O648 2.002 . S
Fe647 O657 1.976 . S
Fe647 O661 1.996 . S
Fe647 O664 1.997 . S
O648 Fe647 2.002 . S
O648 C665 1.295 . S
O649 Fe644 1.997 . S
O649 C665 1.235 . S
O650 Fe644 2.002 . S
O650 C651 1.295 . S
C651 O650 1.295 . S
C651 O653 1.235 . S
C652 O657 1.287 . S
C652 O658 1.255 . S
O653 Fe645 1.997 . S
O653 C651 1.235 . S
C654 O660 1.287 . S
C654 O661 1.255 . S
O655 Fe644 1.976 . S
O655 C662 1.287 . S
O656 Fe645 1.996 . S
O656 C662 1.255 . S
O657 Fe647 1.976 . S
O657 C652 1.287 . S
O658 Fe644 1.996 . S
O658 C652 1.255 . S
C659 O663 1.295 . S
C659 O664 1.235 . S
O660 Fe645 1.976 . S
O660 C654 1.287 . S
O661 Fe647 1.996 . S
O661 C654 1.255 . S
C662 O655 1.287 . S
C662 O656 1.255 . S
O663 Fe645 2.002 . S
O663 C659 1.295 . S
O664 Fe647 1.997 . S
O664 C659 1.235 . S
C665 O648 1.295 . S
C665 O649 1.235 . S
Fe666 O668 1.918 . S
Fe666 O671 1.997 . S
Fe666 O672 2.002 . S
Fe666 O677 1.976 . S
Fe666 O680 1.996 . S
Fe667 O668 1.918 . S
Fe667 O675 1.997 . S
Fe667 O678 1.996 . S
Fe667 O682 1.976 . S
Fe667 O685 2.002 . S
O668 Fe666 1.918 . S
O668 Fe667 1.918 . S
O668 Fe669 1.918 . S
Fe669 O668 1.918 . S
Fe669 O670 2.002 . S
Fe669 O679 1.976 . S
Fe669 O683 1.996 . S
Fe669 O686 1.997 . S
O670 Fe669 2.002 . S
O670 C687 1.295 . S
O671 Fe666 1.997 . S
O671 C687 1.235 . S
O672 Fe666 2.002 . S
O672 C673 1.295 . S
C673 O672 1.295 . S
C673 O675 1.235 . S
C674 O679 1.287 . S
C674 O680 1.255 . S
O675 Fe667 1.997 . S
O675 C673 1.235 . S
C676 O682 1.287 . S
C676 O683 1.255 . S
O677 Fe666 1.976 . S
O677 C684 1.287 . S
O678 Fe667 1.996 . S
O678 C684 1.255 . S
O679 Fe669 1.976 . S
O679 C674 1.287 . S
O680 Fe666 1.996 . S
O680 C674 1.255 . S
C681 O685 1.295 . S
C681 O686 1.235 . S
O682 Fe667 1.976 . S
O682 C676 1.287 . S
O683 Fe669 1.996 . S
O683 C676 1.255 . S
C684 O677 1.287 . S
C684 O678 1.255 . S
O685 Fe667 2.002 . S
O685 C681 1.295 . S
O686 Fe669 1.997 . S
O686 C681 1.235 . S
C687 O670 1.295 . S
C687 O671 1.235 . S
H688 C700 0.930 . S
H689 C702 0.930 . S
H690 C703 0.930 . S
H691 C707 0.959 . S
H692 C707 0.959 . S
H693 C707 0.961 . S
H694 C708 0.960 . S
H695 C708 0.961 . S
H696 C708 0.959 . S
H697 C711 0.929 . S
H698 C712 0.931 . S
H699 C714 0.930 . S
C700 H688 0.930 . S
C700 C701 1.399 . S
C700 C705 1.399 . S
C701 C700 1.399 . S
C701 C702 1.376 . S
C702 H689 0.930 . S
C702 C701 1.376 . S
C702 C703 1.388 . S
C703 H690 0.930 . S
C703 C702 1.388 . S
C703 C704 1.390 . S
C704 C703 1.390 . S
C704 C705 1.394 . S
C704 C710 1.465 . S
C705 C700 1.399 . S
C705 C704 1.394 . S
C705 C706 1.516 . S
C706 C705 1.516 . S
C706 C707 1.502 . S
C706 C708 1.561 . S
C706 C709 1.526 . S
C707 H691 0.959 . S
C707 H692 0.959 . S
C707 H693 0.961 . S
C707 C706 1.502 . S
C708 H694 0.960 . S
C708 H695 0.961 . S
C708 H696 0.959 . S
C708 C706 1.561 . S
C709 C706 1.526 . S
C709 C710 1.396 . S
C709 C714 1.390 . S
C710 C704 1.465 . S
C710 C709 1.396 . S
C710 C711 1.399 . S
C711 H697 0.929 . S
C711 C710 1.399 . S
C711 C712 1.385 . S
C712 H698 0.931 . S
C712 C711 1.385 . S
C712 C713 1.389 . S
C713 C712 1.389 . S
C713 C714 1.387 . S
C714 H699 0.930 . S
C714 C709 1.390 . S
C714 C713 1.387 . S
H715 C727 0.930 . S
H716 C729 0.930 . S
H717 C730 0.930 . S
H718 C734 0.959 . S
H719 C734 0.959 . S
H720 C734 0.961 . S
H721 C735 0.960 . S
H722 C735 0.961 . S
H723 C735 0.959 . S
H724 C738 0.929 . S
H725 C739 0.931 . S
H726 C741 0.930 . S
C727 H715 0.930 . S
C727 C728 1.399 . S
C727 C732 1.399 . S
C728 C727 1.399 . S
C728 C729 1.376 . S
C729 H716 0.930 . S
C729 C728 1.376 . S
C729 C730 1.388 . S
C730 H717 0.930 . S
C730 C729 1.388 . S
C730 C731 1.390 . S
C731 C730 1.390 . S
C731 C732 1.394 . S
C731 C737 1.465 . S
C732 C727 1.399 . S
C732 C731 1.394 . S
C732 C733 1.516 . S
C733 C732 1.516 . S
C733 C734 1.502 . S
C733 C735 1.561 . S
C733 C736 1.526 . S
C734 H718 0.959 . S
C734 H719 0.959 . S
C734 H720 0.961 . S
C734 C733 1.502 . S
C735 H721 0.960 . S
C735 H722 0.961 . S
C735 H723 0.959 . S
C735 C733 1.561 . S
C736 C733 1.526 . S
C736 C737 1.396 . S
C736 C741 1.390 . S
C737 C731 1.465 . S
C737 C736 1.396 . S
C737 C738 1.399 . S
C738 H724 0.929 . S
C738 C737 1.399 . S
C738 C739 1.385 . S
C739 H725 0.931 . S
C739 C738 1.385 . S
C739 C740 1.389 . S
C740 C739 1.389 . S
C740 C741 1.387 . S
C741 H726 0.930 . S
C741 C736 1.390 . S
C741 C740 1.387 . S
H742 C754 0.930 . S
H743 C756 0.930 . S
H744 C757 0.930 . S
H745 C761 0.959 . S
H746 C761 0.959 . S
H747 C761 0.961 . S
H748 C762 0.960 . S
H749 C762 0.961 . S
H750 C762 0.959 . S
H751 C765 0.929 . S
H752 C766 0.931 . S
H753 C768 0.930 . S
C754 H742 0.930 . S
C754 C755 1.399 . S
C754 C759 1.399 . S
C755 C754 1.399 . S
C755 C756 1.376 . S
C756 H743 0.930 . S
C756 C755 1.376 . S
C756 C757 1.388 . S
C757 H744 0.930 . S
C757 C756 1.388 . S
C757 C758 1.390 . S
C758 C757 1.390 . S
C758 C759 1.394 . S
C758 C764 1.465 . S
C759 C754 1.399 . S
C759 C758 1.394 . S
C759 C760 1.516 . S
C760 C759 1.516 . S
C760 C761 1.502 . S
C760 C762 1.561 . S
C760 C763 1.526 . S
C761 H745 0.959 . S
C761 H746 0.959 . S
C761 H747 0.961 . S
C761 C760 1.502 . S
C762 H748 0.960 . S
C762 H749 0.961 . S
C762 H750 0.959 . S
C762 C760 1.561 . S
C763 C760 1.526 . S
C763 C764 1.396 . S
C763 C768 1.390 . S
C764 C758 1.465 . S
C764 C763 1.396 . S
C764 C765 1.399 . S
C765 H751 0.929 . S
C765 C764 1.399 . S
C765 C766 1.385 . S
C766 H752 0.931 . S
C766 C765 1.385 . S
C766 C767 1.389 . S
C767 C766 1.389 . S
C767 C768 1.387 . S
C768 H753 0.930 . S
C768 C763 1.390 . S
C768 C767 1.387 . S
H769 C781 0.930 . S
H770 C783 0.930 . S
H771 C784 0.930 . S
H772 C788 0.959 . S
H773 C788 0.959 . S
H774 C788 0.961 . S
H775 C789 0.960 . S
H776 C789 0.961 . S
H777 C789 0.959 . S
H778 C792 0.929 . S
H779 C793 0.931 . S
H780 C795 0.930 . S
C781 H769 0.930 . S
C781 C782 1.399 . S
C781 C786 1.399 . S
C782 C781 1.399 . S
C782 C783 1.376 . S
C783 H770 0.930 . S
C783 C782 1.376 . S
C783 C784 1.388 . S
C784 H771 0.930 . S
C784 C783 1.388 . S
C784 C785 1.390 . S
C785 C784 1.390 . S
C785 C786 1.394 . S
C785 C791 1.465 . S
C786 C781 1.399 . S
C786 C785 1.394 . S
C786 C787 1.516 . S
C787 C786 1.516 . S
C787 C788 1.502 . S
C787 C789 1.561 . S
C787 C790 1.526 . S
C788 H772 0.959 . S
C788 H773 0.959 . S
C788 H774 0.961 . S
C788 C787 1.502 . S
C789 H775 0.960 . S
C789 H776 0.961 . S
C789 H777 0.959 . S
C789 C787 1.561 . S
C790 C787 1.526 . S
C790 C791 1.396 . S
C790 C795 1.390 1_554 S
C791 C785 1.465 . S
C791 C790 1.396 . S
C791 C792 1.399 1_554 S
C792 H778 0.929 . S
C792 C791 1.399 1_556 S
C792 C793 1.385 . S
C793 H779 0.931 . S
C793 C792 1.385 . S
C793 C794 1.389 . S
C794 C793 1.389 . S
C794 C795 1.387 . S
C795 H780 0.930 . S
C795 C790 1.390 1_556 S
C795 C794 1.387 . S
H796 C808 0.930 . S
H797 C810 0.930 . S
H798 C811 0.930 . S
H799 C815 0.959 . S
H800 C815 0.959 . S
H801 C815 0.961 . S
H802 C816 0.960 . S
H803 C816 0.961 . S
H804 C816 0.959 . S
H805 C819 0.929 . S
H806 C820 0.931 . S
H807 C822 0.930 . S
C808 H796 0.930 . S
C808 C809 1.399 . S
C808 C813 1.399 . S
C809 C808 1.399 . S
C809 C810 1.376 . S
C810 H797 0.930 . S
C810 C809 1.376 . S
C810 C811 1.388 . S
C811 H798 0.930 . S
C811 C810 1.388 . S
C811 C812 1.390 . S
C812 C811 1.390 . S
C812 C813 1.394 . S
C812 C818 1.465 . S
C813 C808 1.399 . S
C813 C812 1.394 . S
C813 C814 1.516 . S
C814 C813 1.516 . S
C814 C815 1.502 . S
C814 C816 1.561 . S
C814 C817 1.526 . S
C815 H799 0.959 . S
C815 H800 0.959 . S
C815 H801 0.961 . S
C815 C814 1.502 . S
C816 H802 0.960 . S
C816 H803 0.961 . S
C816 H804 0.959 . S
C816 C814 1.561 . S
C817 C814 1.526 . S
C817 C818 1.396 . S
C817 C822 1.390 . S
C818 C812 1.465 . S
C818 C817 1.396 . S
C818 C819 1.399 . S
C819 H805 0.929 . S
C819 C818 1.399 . S
C819 C820 1.385 . S
C820 H806 0.931 . S
C820 C819 1.385 . S
C820 C821 1.389 . S
C821 C820 1.389 . S
C821 C822 1.387 . S
C822 H807 0.930 . S
C822 C817 1.390 . S
C822 C821 1.387 . S
H823 C835 0.930 . S
H824 C837 0.930 . S
H825 C838 0.930 . S
H826 C842 0.959 . S
H827 C842 0.959 . S
H828 C842 0.961 . S
H829 C843 0.960 . S
H830 C843 0.961 . S
H831 C843 0.959 . S
H832 C846 0.929 . S
H833 C847 0.931 . S
H834 C849 0.930 . S
C835 H823 0.930 . S
C835 C836 1.399 . S
C835 C840 1.399 . S
C836 C835 1.399 . S
C836 C837 1.376 . S
C837 H824 0.930 . S
C837 C836 1.376 . S
C837 C838 1.388 . S
C838 H825 0.930 . S
C838 C837 1.388 . S
C838 C839 1.390 . S
C839 C838 1.390 . S
C839 C840 1.394 . S
C839 C845 1.465 . S
C840 C835 1.399 . S
C840 C839 1.394 . S
C840 C841 1.516 . S
C841 C840 1.516 . S
C841 C842 1.502 . S
C841 C843 1.561 . S
C841 C844 1.526 . S
C842 H826 0.959 . S
C842 H827 0.959 . S
C842 H828 0.961 . S
C842 C841 1.502 . S
C843 H829 0.960 . S
C843 H830 0.961 . S
C843 H831 0.959 . S
C843 C841 1.561 . S
C844 C841 1.526 . S
C844 C845 1.396 . S
C844 C849 1.390 . S
C845 C839 1.465 . S
C845 C844 1.396 . S
C845 C846 1.399 . S
C846 H832 0.929 . S
C846 C845 1.399 . S
C846 C847 1.385 . S
C847 H833 0.931 . S
C847 C846 1.385 . S
C847 C848 1.389 . S
C848 C847 1.389 . S
C848 C849 1.387 . S
C849 H834 0.930 . S
C849 C844 1.390 . S
C849 C848 1.387 . S
H850 C862 0.930 . S
H851 C864 0.930 . S
H852 C865 0.930 . S
H853 C869 0.959 . S
H854 C869 0.959 . S
H855 C869 0.961 . S
H856 C870 0.960 . S
H857 C870 0.961 . S
H858 C870 0.959 . S
H859 C873 0.929 . S
H860 C874 0.931 . S
H861 C876 0.930 . S
C862 H850 0.930 . S
C862 C863 1.399 . S
C862 C867 1.399 . S
C863 C862 1.399 . S
C863 C864 1.376 . S
C864 H851 0.930 . S
C864 C863 1.376 . S
C864 C865 1.388 . S
C865 H852 0.930 . S
C865 C864 1.388 . S
C865 C866 1.390 . S
C866 C865 1.390 . S
C866 C867 1.394 . S
C866 C872 1.465 . S
C867 C862 1.399 . S
C867 C866 1.394 . S
C867 C868 1.516 . S
C868 C867 1.516 . S
C868 C869 1.502 . S
C868 C870 1.561 . S
C868 C871 1.526 . S
C869 H853 0.959 . S
C869 H854 0.959 . S
C869 H855 0.961 . S
C869 C868 1.502 . S
C870 H856 0.960 . S
C870 H857 0.961 . S
C870 H858 0.959 . S
C870 C868 1.561 . S
C871 C868 1.526 . S
C871 C872 1.396 . S
C871 C876 1.390 . S
C872 C866 1.465 . S
C872 C871 1.396 . S
C872 C873 1.399 . S
C873 H859 0.929 . S
C873 C872 1.399 . S
C873 C874 1.385 . S
C874 H860 0.931 . S
C874 C873 1.385 . S
C874 C875 1.389 . S
C875 C874 1.389 . S
C875 C876 1.387 . S
C876 H861 0.930 . S
C876 C871 1.390 . S
C876 C875 1.387 . S
H877 C889 0.930 . S
H878 C891 0.930 . S
H879 C892 0.930 . S
H880 C896 0.959 . S
H881 C896 0.959 . S
H882 C896 0.961 . S
H883 C897 0.960 . S
H884 C897 0.961 . S
H885 C897 0.959 . S
H886 C900 0.929 . S
H887 C901 0.931 . S
H888 C903 0.930 . S
C889 H877 0.930 . S
C889 C890 1.399 . S
C889 C894 1.399 . S
C890 C889 1.399 . S
C890 C891 1.376 . S
C891 H878 0.930 . S
C891 C890 1.376 . S
C891 C892 1.388 . S
C892 H879 0.930 . S
C892 C891 1.388 . S
C892 C893 1.390 . S
C893 C892 1.390 . S
C893 C894 1.394 . S
C893 C899 1.465 1_556 S
C894 C889 1.399 . S
C894 C893 1.394 . S
C894 C895 1.516 . S
C895 C894 1.516 . S
C895 C896 1.502 . S
C895 C897 1.561 . S
C895 C898 1.526 1_556 S
C896 H880 0.959 . S
C896 H881 0.959 . S
C896 H882 0.961 . S
C896 C895 1.502 . S
C897 H883 0.960 . S
C897 H884 0.961 . S
C897 H885 0.959 . S
C897 C895 1.561 . S
C898 C895 1.526 1_554 S
C898 C899 1.396 . S
C898 C903 1.390 . S
C899 C893 1.465 1_554 S
C899 C898 1.396 . S
C899 C900 1.399 . S
C900 H886 0.929 . S
C900 C899 1.399 . S
C900 C901 1.385 . S
C901 H887 0.931 . S
C901 C900 1.385 . S
C901 C902 1.389 . S
C902 C901 1.389 . S
C902 C903 1.387 . S
C903 H888 0.930 . S
C903 C898 1.390 . S
C903 C902 1.387 . S
H904 C916 0.930 . S
H905 C918 0.930 . S
H906 C919 0.930 . S
H907 C923 0.959 . S
H908 C923 0.959 . S
H909 C923 0.961 . S
H910 C924 0.960 . S
H911 C924 0.961 . S
H912 C924 0.959 . S
H913 C927 0.929 . S
H914 C928 0.931 . S
H915 C930 0.930 . S
C916 H904 0.930 . S
C916 C917 1.399 . S
C916 C921 1.399 . S
C917 C916 1.399 . S
C917 C918 1.376 . S
C918 H905 0.930 . S
C918 C917 1.376 . S
C918 C919 1.388 . S
C919 H906 0.930 . S
C919 C918 1.388 . S
C919 C920 1.390 . S
C920 C919 1.390 . S
C920 C921 1.394 . S
C920 C926 1.465 . S
C921 C916 1.399 . S
C921 C920 1.394 . S
C921 C922 1.516 . S
C922 C921 1.516 . S
C922 C923 1.502 . S
C922 C924 1.561 . S
C922 C925 1.526 . S
C923 H907 0.959 . S
C923 H908 0.959 . S
C923 H909 0.961 . S
C923 C922 1.502 . S
C924 H910 0.960 . S
C924 H911 0.961 . S
C924 H912 0.959 . S
C924 C922 1.561 . S
C925 C922 1.526 . S
C925 C926 1.396 . S
C925 C930 1.390 . S
C926 C920 1.465 . S
C926 C925 1.396 . S
C926 C927 1.399 . S
C927 H913 0.929 . S
C927 C926 1.399 . S
C927 C928 1.385 . S
C928 H914 0.931 . S
C928 C927 1.385 . S
C928 C929 1.389 . S
C929 C928 1.389 . S
C929 C930 1.387 . S
C930 H915 0.930 . S
C930 C925 1.390 . S
C930 C929 1.387 . S
H931 C943 0.930 . S
H932 C945 0.930 . S
H933 C946 0.930 . S
H934 C950 0.959 . S
H935 C950 0.959 . S
H936 C950 0.961 . S
H937 C951 0.960 . S
H938 C951 0.961 1_565 S
H939 C951 0.959 . S
H940 C954 0.929 . S
H941 C955 0.931 . S
H942 C957 0.930 . S
C943 H931 0.930 . S
C943 C944 1.399 . S
C943 C948 1.399 . S
C944 C943 1.399 . S
C944 C945 1.376 . S
C945 H932 0.930 . S
C945 C944 1.376 . S
C945 C946 1.388 . S
C946 H933 0.930 . S
C946 C945 1.388 . S
C946 C947 1.390 . S
C947 C946 1.390 . S
C947 C948 1.394 . S
C947 C953 1.465 . S
C948 C943 1.399 . S
C948 C947 1.394 . S
C948 C949 1.516 . S
C949 C948 1.516 . S
C949 C950 1.502 1_545 S
C949 C951 1.561 . S
C949 C952 1.526 1_545 S
C950 H934 0.959 . S
C950 H935 0.959 . S
C950 H936 0.961 . S
C950 C949 1.502 1_565 S
C951 H937 0.960 . S
C951 H938 0.961 1_545 S
C951 H939 0.959 . S
C951 C949 1.561 . S
C952 C949 1.526 1_565 S
C952 C953 1.396 1_565 S
C952 C957 1.390 . S
C953 C947 1.465 . S
C953 C952 1.396 1_545 S
C953 C954 1.399 . S
C954 H940 0.929 . S
C954 C953 1.399 . S
C954 C955 1.385 1_545 S
C955 H941 0.931 . S
C955 C954 1.385 1_565 S
C955 C956 1.389 . S
C956 C955 1.389 . S
C956 C957 1.387 . S
C957 H942 0.930 . S
C957 C952 1.390 . S
C957 C956 1.387 . S
H958 C970 0.930 . S
H959 C972 0.930 . S
H960 C973 0.930 . S
H961 C977 0.959 . S
H962 C977 0.959 . S
H963 C977 0.961 . S
H964 C978 0.960 . S
H965 C978 0.961 . S
H966 C978 0.959 . S
H967 C981 0.929 . S
H968 C982 0.931 . S
H969 C984 0.930 . S
C970 H958 0.930 . S
C970 C971 1.399 . S
C970 C975 1.399 . S
C971 C970 1.399 . S
C971 C972 1.376 . S
C972 H959 0.930 . S
C972 C971 1.376 . S
C972 C973 1.388 . S
C973 H960 0.930 . S
C973 C972 1.388 . S
C973 C974 1.390 . S
C974 C973 1.390 . S
C974 C975 1.394 . S
C974 C980 1.465 . S
C975 C970 1.399 . S
C975 C974 1.394 . S
C975 C976 1.516 . S
C976 C975 1.516 . S
C976 C977 1.502 . S
C976 C978 1.561 . S
C976 C979 1.526 . S
C977 H961 0.959 . S
C977 H962 0.959 . S
C977 H963 0.961 . S
C977 C976 1.502 . S
C978 H964 0.960 . S
C978 H965 0.961 . S
C978 H966 0.959 . S
C978 C976 1.561 . S
C979 C976 1.526 . S
C979 C980 1.396 . S
C979 C984 1.390 . S
C980 C974 1.465 . S
C980 C979 1.396 . S
C980 C981 1.399 . S
C981 H967 0.929 . S
C981 C980 1.399 . S
C981 C982 1.385 . S
C982 H968 0.931 . S
C982 C981 1.385 . S
C982 C983 1.389 . S
C983 C982 1.389 . S
C983 C984 1.387 . S
C984 H969 0.930 . S
C984 C979 1.390 . S
C984 C983 1.387 . S
H985 C997 0.930 . S
H986 C999 0.930 . S
H987 C1000 0.930 . S
H988 C1004 0.959 . S
H989 C1004 0.959 . S
H990 C1004 0.961 . S
H991 C1005 0.960 . S
H992 C1005 0.961 . S
H993 C1005 0.959 . S
H994 C1008 0.929 . S
H995 C1009 0.931 . S
H996 C1011 0.930 . S
C997 H985 0.930 . S
C997 C998 1.399 . S
C997 C1002 1.399 . S
C998 C997 1.399 . S
C998 C999 1.376 . S
C999 H986 0.930 . S
C999 C998 1.376 . S
C999 C1000 1.388 . S
C1000 H987 0.930 . S
C1000 C999 1.388 . S
C1000 C1001 1.390 . S
C1001 C1000 1.390 . S
C1001 C1002 1.394 . S
C1001 C1007 1.465 1_565 S
C1002 C997 1.399 . S
C1002 C1001 1.394 . S
C1002 C1003 1.516 . S
C1003 C1002 1.516 . S
C1003 C1004 1.502 . S
C1003 C1005 1.561 . S
C1003 C1006 1.526 1_565 S
C1004 H988 0.959 . S
C1004 H989 0.959 . S
C1004 H990 0.961 . S
C1004 C1003 1.502 . S
C1005 H991 0.960 . S
C1005 H992 0.961 . S
C1005 H993 0.959 . S
C1005 C1003 1.561 . S
C1006 C1003 1.526 1_545 S
C1006 C1007 1.396 . S
C1006 C1011 1.390 . S
C1007 C1001 1.465 1_545 S
C1007 C1006 1.396 . S
C1007 C1008 1.399 . S
C1008 H994 0.929 . S
C1008 C1007 1.399 . S
C1008 C1009 1.385 . S
C1009 H995 0.931 . S
C1009 C1008 1.385 . S
C1009 C1010 1.389 . S
C1010 C1009 1.389 . S
C1010 C1011 1.387 . S
C1011 H996 0.930 . S
C1011 C1006 1.390 . S
C1011 C1010 1.387 . S
H1012 C1024 0.930 . S
H1013 C1026 0.930 . S
H1014 C1027 0.930 . S
H1015 C1031 0.959 . S
H1016 C1031 0.959 . S
H1017 C1031 0.961 . S
H1018 C1032 0.960 . S
H1019 C1032 0.961 . S
H1020 C1032 0.959 . S
H1021 C1035 0.929 . S
H1022 C1036 0.931 . S
H1023 C1038 0.930 . S
C1024 H1012 0.930 . S
C1024 C1025 1.399 . S
C1024 C1029 1.399 . S
C1025 C1024 1.399 . S
C1025 C1026 1.376 . S
C1026 H1013 0.930 . S
C1026 C1025 1.376 . S
C1026 C1027 1.388 . S
C1027 H1014 0.930 . S
C1027 C1026 1.388 . S
C1027 C1028 1.390 . S
C1028 C1027 1.390 . S
C1028 C1029 1.394 . S
C1028 C1034 1.465 . S
C1029 C1024 1.399 . S
C1029 C1028 1.394 . S
C1029 C1030 1.516 . S
C1030 C1029 1.516 . S
C1030 C1031 1.502 . S
C1030 C1032 1.561 . S
C1030 C1033 1.526 . S
C1031 H1015 0.959 . S
C1031 H1016 0.959 . S
C1031 H1017 0.961 . S
C1031 C1030 1.502 . S
C1032 H1018 0.960 . S
C1032 H1019 0.961 . S
C1032 H1020 0.959 . S
C1032 C1030 1.561 . S
C1033 C1030 1.526 . S
C1033 C1034 1.396 . S
C1033 C1038 1.390 . S
C1034 C1028 1.465 . S
C1034 C1033 1.396 . S
C1034 C1035 1.399 . S
C1035 H1021 0.929 . S
C1035 C1034 1.399 . S
C1035 C1036 1.385 . S
C1036 H1022 0.931 . S
C1036 C1035 1.385 . S
C1036 C1037 1.389 . S
C1037 C1036 1.389 . S
C1037 C1038 1.387 . S
C1038 H1023 0.930 . S
C1038 C1033 1.390 . S
C1038 C1037 1.387 . S
H1039 C1051 0.930 . S
H1040 C1053 0.930 . S
H1041 C1054 0.930 . S
H1042 C1058 0.959 . S
H1043 C1058 0.959 . S
H1044 C1058 0.961 . S
H1045 C1059 0.960 . S
H1046 C1059 0.961 . S
H1047 C1059 0.959 . S
H1048 C1062 0.929 . S
H1049 C1063 0.931 . S
H1050 C1065 0.930 . S
C1051 H1039 0.930 . S
C1051 C1052 1.399 . S
C1051 C1056 1.399 . S
C1052 C1051 1.399 . S
C1052 C1053 1.376 . S
C1053 H1040 0.930 . S
C1053 C1052 1.376 . S
C1053 C1054 1.388 . S
C1054 H1041 0.930 . S
C1054 C1053 1.388 . S
C1054 C1055 1.390 . S
C1055 C1054 1.390 . S
C1055 C1056 1.394 . S
C1055 C1061 1.465 1_545 S
C1056 C1051 1.399 . S
C1056 C1055 1.394 . S
C1056 C1057 1.516 . S
C1057 C1056 1.516 . S
C1057 C1058 1.502 . S
C1057 C1059 1.561 . S
C1057 C1060 1.526 . S
C1058 H1042 0.959 . S
C1058 H1043 0.959 . S
C1058 H1044 0.961 . S
C1058 C1057 1.502 . S
C1059 H1045 0.960 . S
C1059 H1046 0.961 . S
C1059 H1047 0.959 . S
C1059 C1057 1.561 . S
C1060 C1057 1.526 . S
C1060 C1061 1.396 1_545 S
C1060 C1065 1.390 1_545 S
C1061 C1055 1.465 1_565 S
C1061 C1060 1.396 1_565 S
C1061 C1062 1.399 . S
C1062 H1048 0.929 . S
C1062 C1061 1.399 . S
C1062 C1063 1.385 . S
C1063 H1049 0.931 . S
C1063 C1062 1.385 . S
C1063 C1064 1.389 . S
C1064 C1063 1.389 . S
C1064 C1065 1.387 . S
C1065 H1050 0.930 . S
C1065 C1060 1.390 1_565 S
C1065 C1064 1.387 . S
H1066 C1078 0.930 . S
H1067 C1080 0.930 . S
H1068 C1081 0.930 . S
H1069 C1085 0.959 . S
H1070 C1085 0.959 . S
H1071 C1085 0.961 . S
H1072 C1086 0.960 . S
H1073 C1086 0.961 . S
H1074 C1086 0.959 . S
H1075 C1089 0.929 . S
H1076 C1090 0.931 . S
H1077 C1092 0.930 . S
C1078 H1066 0.930 . S
C1078 C1079 1.399 . S
C1078 C1083 1.399 . S
C1079 C1078 1.399 . S
C1079 C1080 1.376 . S
C1080 H1067 0.930 . S
C1080 C1079 1.376 . S
C1080 C1081 1.388 . S
C1081 H1068 0.930 . S
C1081 C1080 1.388 . S
C1081 C1082 1.390 . S
C1082 C1081 1.390 . S
C1082 C1083 1.394 . S
C1082 C1088 1.465 . S
C1083 C1078 1.399 . S
C1083 C1082 1.394 . S
C1083 C1084 1.516 . S
C1084 C1083 1.516 . S
C1084 C1085 1.502 . S
C1084 C1086 1.561 . S
C1084 C1087 1.526 . S
C1085 H1069 0.959 . S
C1085 H1070 0.959 . S
C1085 H1071 0.961 . S
C1085 C1084 1.502 . S
C1086 H1072 0.960 . S
C1086 H1073 0.961 . S
C1086 H1074 0.959 . S
C1086 C1084 1.561 . S
C1087 C1084 1.526 . S
C1087 C1088 1.396 . S
C1087 C1092 1.390 . S
C1088 C1082 1.465 . S
C1088 C1087 1.396 . S
C1088 C1089 1.399 . S
C1089 H1075 0.929 . S
C1089 C1088 1.399 . S
C1089 C1090 1.385 . S
C1090 H1076 0.931 . S
C1090 C1089 1.385 . S
C1090 C1091 1.389 . S
C1091 C1090 1.389 . S
C1091 C1092 1.387 . S
C1092 H1077 0.930 . S
C1092 C1087 1.390 . S
C1092 C1091 1.387 . S
H1093 C1105 0.930 . S
H1094 C1107 0.930 . S
H1095 C1108 0.930 . S
H1096 C1112 0.959 1_565 S
H1097 C1112 0.959 . S
H1098 C1112 0.961 1_565 S
H1099 C1113 0.960 . S
H1100 C1113 0.961 . S
H1101 C1113 0.959 . S
H1102 C1116 0.929 1_565 S
H1103 C1117 0.931 . S
H1104 C1119 0.930 . S
C1105 H1093 0.930 . S
C1105 C1106 1.399 . S
C1105 C1110 1.399 . S
C1106 C1105 1.399 . S
C1106 C1107 1.376 . S
C1107 H1094 0.930 . S
C1107 C1106 1.376 . S
C1107 C1108 1.388 . S
C1108 H1095 0.930 . S
C1108 C1107 1.388 . S
C1108 C1109 1.390 . S
C1109 C1108 1.390 . S
C1109 C1110 1.394 . S
C1109 C1115 1.478 . S
C1110 C1105 1.399 . S
C1110 C1109 1.394 . S
C1110 C1111 1.516 1_565 S
C1111 C1110 1.516 1_545 S
C1111 C1112 1.502 . S
C1111 C1113 1.561 . S
C1111 C1114 1.526 . S
C1112 H1096 0.959 1_545 S
C1112 H1097 0.959 . S
C1112 H1098 0.961 1_545 S
C1112 C1111 1.502 . S
C1113 H1099 0.960 . S
C1113 H1100 0.961 . S
C1113 H1101 0.959 . S
C1113 C1111 1.561 . S
C1114 C1111 1.526 . S
C1114 C1115 1.387 1_545 S
C1114 C1119 1.390 . S
C1115 C1109 1.478 . S
C1115 C1114 1.387 1_565 S
C1115 C1116 1.395 1_565 S
C1116 H1102 0.929 1_545 S
C1116 C1115 1.395 1_545 S
C1116 C1117 1.385 . S
C1117 H1103 0.931 . S
C1117 C1116 1.385 . S
C1117 C1118 1.389 . S
C1118 C1117 1.389 . S
C1118 C1119 1.387 . S
C1119 H1104 0.930 . S
C1119 C1114 1.390 . S
C1119 C1118 1.387 . S
H1120 C1132 0.930 . S
H1121 C1134 0.930 1_556 S
H1122 C1135 0.930 . S
H1123 C1139 0.959 . S
H1124 C1139 0.959 . S
H1125 C1139 0.961 . S
H1126 C1140 0.960 . S
H1127 C1140 0.961 . S
H1128 C1140 0.959 . S
H1129 C1143 0.929 . S
H1130 C1144 0.931 . S
H1131 C1146 0.930 . S
C1132 H1120 0.930 . S
C1132 C1133 1.399 . S
C1132 C1137 1.399 . S
C1133 C1132 1.399 . S
C1133 C1134 1.376 . S
C1134 H1121 0.930 1_554 S
C1134 C1133 1.376 . S
C1134 C1135 1.388 . S
C1135 H1122 0.930 . S
C1135 C1134 1.388 . S
C1135 C1136 1.390 . S
C1136 C1135 1.390 . S
C1136 C1137 1.394 . S
C1136 C1142 1.465 . S
C1137 C1132 1.399 . S
C1137 C1136 1.394 . S
C1137 C1138 1.516 . S
C1138 C1137 1.516 . S
C1138 C1139 1.502 . S
C1138 C1140 1.561 . S
C1138 C1141 1.526 . S
C1139 H1123 0.959 . S
C1139 H1124 0.959 . S
C1139 H1125 0.961 . S
C1139 C1138 1.502 . S
C1140 H1126 0.960 . S
C1140 H1127 0.961 . S
C1140 H1128 0.959 . S
C1140 C1138 1.561 . S
C1141 C1138 1.526 . S
C1141 C1142 1.396 . S
C1141 C1146 1.390 . S
C1142 C1136 1.465 . S
C1142 C1141 1.396 . S
C1142 C1143 1.399 . S
C1143 H1129 0.929 . S
C1143 C1142 1.399 . S
C1143 C1144 1.385 . S
C1144 H1130 0.931 . S
C1144 C1143 1.385 . S
C1144 C1145 1.389 . S
C1145 C1144 1.389 . S
C1145 C1146 1.387 . S
C1146 H1131 0.930 . S
C1146 C1141 1.390 . S
C1146 C1145 1.387 . S
H1147 C1159 0.930 . S
H1148 C1161 0.930 . S
H1149 C1162 0.930 . S
H1150 C1166 0.959 . S
H1151 C1166 0.959 . S
H1152 C1166 0.961 . S
H1153 C1167 0.960 . S
H1154 C1167 0.961 . S
H1155 C1167 0.959 . S
H1156 C1170 0.929 . S
H1157 C1171 0.931 . S
H1158 C1173 0.930 . S
C1159 H1147 0.930 . S
C1159 C1160 1.399 . S
C1159 C1164 1.399 . S
C1160 C1159 1.399 . S
C1160 C1161 1.376 . S
C1161 H1148 0.930 . S
C1161 C1160 1.376 . S
C1161 C1162 1.388 . S
C1162 H1149 0.930 . S
C1162 C1161 1.388 . S
C1162 C1163 1.390 . S
C1163 C1162 1.390 . S
C1163 C1164 1.394 . S
C1163 C1169 1.465 . S
C1164 C1159 1.399 . S
C1164 C1163 1.394 . S
C1164 C1165 1.516 . S
C1165 C1164 1.516 . S
C1165 C1166 1.502 . S
C1165 C1167 1.561 . S
C1165 C1168 1.526 . S
C1166 H1150 0.959 . S
C1166 H1151 0.959 . S
C1166 H1152 0.961 . S
C1166 C1165 1.502 . S
C1167 H1153 0.960 . S
C1167 H1154 0.961 . S
C1167 H1155 0.959 . S
C1167 C1165 1.561 . S
C1168 C1165 1.526 . S
C1168 C1169 1.396 . S
C1168 C1173 1.390 . S
C1169 C1163 1.465 . S
C1169 C1168 1.396 . S
C1169 C1170 1.399 . S
C1170 H1156 0.929 . S
C1170 C1169 1.399 . S
C1170 C1171 1.385 . S
C1171 H1157 0.931 . S
C1171 C1170 1.385 . S
C1171 C1172 1.389 . S
C1172 C1171 1.389 . S
C1172 C1173 1.387 . S
C1173 H1158 0.930 . S
C1173 C1168 1.390 . S
C1173 C1172 1.387 . S
H1174 C1186 0.930 . S
H1175 C1188 0.930 . S
H1176 C1189 0.930 . S
H1177 C1193 0.959 . S
H1178 C1193 0.959 . S
H1179 C1193 0.961 . S
H1180 C1194 0.960 . S
H1181 C1194 0.961 1_655 S
H1182 C1194 0.959 1_655 S
H1183 C1197 0.929 . S
H1184 C1198 0.931 . S
H1185 C1200 0.930 . S
C1186 H1174 0.930 . S
C1186 C1187 1.399 . S
C1186 C1191 1.399 . S
C1187 C1186 1.399 . S
C1187 C1188 1.376 . S
C1188 H1175 0.930 . S
C1188 C1187 1.376 . S
C1188 C1189 1.388 . S
C1189 H1176 0.930 . S
C1189 C1188 1.388 . S
C1189 C1190 1.390 . S
C1190 C1189 1.390 . S
C1190 C1191 1.394 . S
C1190 C1196 1.465 . S
C1191 C1186 1.399 . S
C1191 C1190 1.394 . S
C1191 C1192 1.516 . S
C1192 C1191 1.516 . S
C1192 C1193 1.502 . S
C1192 C1194 1.561 . S
C1192 C1195 1.526 1_455 S
C1193 H1177 0.959 . S
C1193 H1178 0.959 . S
C1193 H1179 0.961 . S
C1193 C1192 1.502 . S
C1194 H1180 0.960 . S
C1194 H1181 0.961 1_455 S
C1194 H1182 0.959 1_455 S
C1194 C1192 1.561 . S
C1195 C1192 1.526 1_655 S
C1195 C1196 1.396 1_655 S
C1195 C1200 1.390 . S
C1196 C1190 1.465 . S
C1196 C1195 1.396 1_455 S
C1196 C1197 1.399 1_455 S
C1197 H1183 0.929 . S
C1197 C1196 1.399 1_655 S
C1197 C1198 1.385 . S
C1198 H1184 0.931 . S
C1198 C1197 1.385 . S
C1198 C1199 1.389 . S
C1199 C1198 1.389 . S
C1199 C1200 1.387 . S
C1200 H1185 0.930 . S
C1200 C1195 1.390 . S
C1200 C1199 1.387 . S
H1201 C1213 0.930 . S
H1202 C1215 0.930 . S
H1203 C1216 0.930 . S
H1204 C1220 0.959 . S
H1205 C1220 0.959 . S
H1206 C1220 0.961 . S
H1207 C1221 0.960 . S
H1208 C1221 0.961 . S
H1209 C1221 0.959 . S
H1210 C1224 0.929 . S
H1211 C1225 0.931 . S
H1212 C1227 0.930 . S
C1213 H1201 0.930 . S
C1213 C1214 1.399 . S
C1213 C1218 1.399 . S
C1214 C1213 1.399 . S
C1214 C1215 1.376 . S
C1215 H1202 0.930 . S
C1215 C1214 1.376 . S
C1215 C1216 1.388 . S
C1216 H1203 0.930 . S
C1216 C1215 1.388 . S
C1216 C1217 1.390 . S
C1217 C1216 1.390 . S
C1217 C1218 1.394 . S
C1217 C1223 1.465 . S
C1218 C1213 1.399 . S
C1218 C1217 1.394 . S
C1218 C1219 1.516 . S
C1219 C1218 1.516 . S
C1219 C1220 1.502 . S
C1219 C1221 1.561 . S
C1219 C1222 1.526 . S
C1220 H1204 0.959 . S
C1220 H1205 0.959 . S
C1220 H1206 0.961 . S
C1220 C1219 1.502 . S
C1221 H1207 0.960 . S
C1221 H1208 0.961 . S
C1221 H1209 0.959 . S
C1221 C1219 1.561 . S
C1222 C1219 1.526 . S
C1222 C1223 1.396 . S
C1222 C1227 1.390 . S
C1223 C1217 1.465 . S
C1223 C1222 1.396 . S
C1223 C1224 1.399 . S
C1224 H1210 0.929 . S
C1224 C1223 1.399 . S
C1224 C1225 1.385 . S
C1225 H1211 0.931 . S
C1225 C1224 1.385 . S
C1225 C1226 1.389 . S
C1226 C1225 1.389 . S
C1226 C1227 1.387 . S
C1227 H1212 0.930 . S
C1227 C1222 1.390 . S
C1227 C1226 1.387 . S
H1228 C1240 0.930 . S
H1229 C1242 0.930 . S
H1230 C1243 0.930 . S
H1231 C1247 0.959 . S
H1232 C1247 0.959 . S
H1233 C1247 0.961 1_655 S
H1234 C1248 0.960 . S
H1235 C1248 0.961 . S
H1236 C1248 0.959 . S
H1237 C1251 0.929 . S
H1238 C1252 0.931 . S
H1239 C1254 0.930 . S
C1240 H1228 0.930 . S
C1240 C1241 1.399 . S
C1240 C1245 1.399 . S
C1241 C1240 1.399 . S
C1241 C1242 1.376 . S
C1242 H1229 0.930 . S
C1242 C1241 1.376 . S
C1242 C1243 1.388 . S
C1243 H1230 0.930 . S
C1243 C1242 1.388 . S
C1243 C1244 1.390 . S
C1244 C1243 1.390 . S
C1244 C1245 1.394 . S
C1244 C1250 1.465 . S
C1245 C1240 1.399 . S
C1245 C1244 1.394 . S
C1245 C1246 1.516 . S
C1246 C1245 1.516 . S
C1246 C1247 1.502 1_655 S
C1246 C1248 1.561 . S
C1246 C1249 1.526 1_655 S
C1247 H1231 0.959 . S
C1247 H1232 0.959 . S
C1247 H1233 0.961 1_455 S
C1247 C1246 1.502 1_455 S
C1248 H1234 0.960 . S
C1248 H1235 0.961 . S
C1248 H1236 0.959 . S
C1248 C1246 1.561 . S
C1249 C1246 1.526 1_455 S
C1249 C1250 1.396 1_455 S
C1249 C1254 1.390 . S
C1250 C1244 1.465 . S
C1250 C1249 1.396 1_655 S
C1250 C1251 1.399 1_655 S
C1251 H1237 0.929 . S
C1251 C1250 1.399 1_455 S
C1251 C1252 1.385 . S
C1252 H1238 0.931 . S
C1252 C1251 1.385 . S
C1252 C1253 1.389 . S
C1253 C1252 1.389 . S
C1253 C1254 1.387 . S
C1254 H1239 0.930 . S
C1254 C1249 1.390 . S
C1254 C1253 1.387 . S
H1255 C1267 0.930 . S
H1256 C1269 0.930 . S
H1257 C1270 0.930 . S
H1258 C1274 0.959 . S
H1259 C1274 0.959 . S
H1260 C1274 0.961 . S
H1261 C1275 0.960 . S
H1262 C1275 0.961 . S
H1263 C1275 0.959 . S
H1264 C1278 0.929 . S
H1265 C1279 0.931 . S
H1266 C1281 0.930 . S
C1267 H1255 0.930 . S
C1267 C1268 1.399 . S
C1267 C1272 1.399 . S
C1268 C1267 1.399 . S
C1268 C1269 1.376 . S
C1269 H1256 0.930 . S
C1269 C1268 1.376 . S
C1269 C1270 1.388 . S
C1270 H1257 0.930 . S
C1270 C1269 1.388 . S
C1270 C1271 1.390 . S
C1271 C1270 1.390 . S
C1271 C1272 1.394 . S
C1271 C1277 1.465 . S
C1272 C1267 1.399 . S
C1272 C1271 1.394 . S
C1272 C1273 1.516 . S
C1273 C1272 1.516 . S
C1273 C1274 1.502 . S
C1273 C1275 1.561 . S
C1273 C1276 1.526 . S
C1274 H1258 0.959 . S
C1274 H1259 0.959 . S
C1274 H1260 0.961 . S
C1274 C1273 1.502 . S
C1275 H1261 0.960 . S
C1275 H1262 0.961 . S
C1275 H1263 0.959 . S
C1275 C1273 1.561 . S
C1276 C1273 1.526 . S
C1276 C1277 1.396 . S
C1276 C1281 1.390 . S
C1277 C1271 1.465 . S
C1277 C1276 1.396 . S
C1277 C1278 1.399 . S
C1278 H1264 0.929 . S
C1278 C1277 1.399 . S
C1278 C1279 1.385 . S
C1279 H1265 0.931 . S
C1279 C1278 1.385 . S
C1279 C1280 1.389 . S
C1280 C1279 1.389 . S
C1280 C1281 1.387 . S
C1281 H1266 0.930 . S
C1281 C1276 1.390 . S
C1281 C1280 1.387 . S
H1282 C1294 0.930 . S
H1283 C1296 0.930 . S
H1284 C1297 0.930 . S
H1285 C1301 0.959 . S
H1286 C1301 0.959 . S
H1287 C1301 0.961 . S
H1288 C1302 0.960 . S
H1289 C1302 0.961 . S
H1290 C1302 0.959 . S
H1291 C1305 0.929 . S
H1292 C1306 0.931 . S
H1293 C1308 0.930 . S
C1294 H1282 0.930 . S
C1294 C1295 1.399 . S
C1294 C1299 1.399 . S
C1295 C1294 1.399 . S
C1295 C1296 1.376 . S
C1296 H1283 0.930 . S
C1296 C1295 1.376 . S
C1296 C1297 1.388 . S
C1297 H1284 0.930 . S
C1297 C1296 1.388 . S
C1297 C1298 1.390 . S
C1298 C1297 1.390 . S
C1298 C1299 1.394 . S
C1298 C1304 1.465 1_455 S
C1299 C1294 1.399 . S
C1299 C1298 1.394 . S
C1299 C1300 1.516 . S
C1300 C1299 1.516 . S
C1300 C1301 1.502 . S
C1300 C1302 1.561 . S
C1300 C1303 1.526 1_455 S
C1301 H1285 0.959 . S
C1301 H1286 0.959 . S
C1301 H1287 0.961 . S
C1301 C1300 1.502 . S
C1302 H1288 0.960 . S
C1302 H1289 0.961 . S
C1302 H1290 0.959 . S
C1302 C1300 1.561 . S
C1303 C1300 1.526 1_655 S
C1303 C1304 1.396 . S
C1303 C1308 1.390 . S
C1304 C1298 1.465 1_655 S
C1304 C1303 1.396 . S
C1304 C1305 1.399 . S
C1305 H1291 0.929 . S
C1305 C1304 1.399 . S
C1305 C1306 1.385 . S
C1306 H1292 0.931 . S
C1306 C1305 1.385 . S
C1306 C1307 1.389 . S
C1307 C1306 1.389 . S
C1307 C1308 1.387 . S
C1308 H1293 0.930 . S
C1308 C1303 1.390 . S
C1308 C1307 1.387 . S
H1309 C1321 0.930 . S
H1310 C1323 0.930 . S
H1311 C1324 0.930 . S
H1312 C1328 0.959 . S
H1313 C1328 0.959 . S
H1314 C1328 0.961 . S
H1315 C1329 0.960 . S
H1316 C1329 0.961 . S
H1317 C1329 0.959 . S
H1318 C1332 0.929 . S
H1319 C1333 0.931 . S
H1320 C1335 0.930 . S
C1321 H1309 0.930 . S
C1321 C1322 1.399 . S
C1321 C1326 1.399 . S
C1322 C1321 1.399 . S
C1322 C1323 1.376 . S
C1323 H1310 0.930 . S
C1323 C1322 1.376 . S
C1323 C1324 1.388 . S
C1324 H1311 0.930 . S
C1324 C1323 1.388 . S
C1324 C1325 1.390 . S
C1325 C1324 1.390 . S
C1325 C1326 1.394 . S
C1325 C1331 1.465 . S
C1326 C1321 1.399 . S
C1326 C1325 1.394 . S
C1326 C1327 1.516 . S
C1327 C1326 1.516 . S
C1327 C1328 1.502 . S
C1327 C1329 1.561 . S
C1327 C1330 1.526 . S
C1328 H1312 0.959 . S
C1328 H1313 0.959 . S
C1328 H1314 0.961 . S
C1328 C1327 1.502 . S
C1329 H1315 0.960 . S
C1329 H1316 0.961 . S
C1329 H1317 0.959 . S
C1329 C1327 1.561 . S
C1330 C1327 1.526 . S
C1330 C1331 1.396 . S
C1330 C1335 1.390 . S
C1331 C1325 1.465 . S
C1331 C1330 1.396 . S
C1331 C1332 1.399 . S
C1332 H1318 0.929 . S
C1332 C1331 1.399 . S
C1332 C1333 1.385 . S
C1333 H1319 0.931 . S
C1333 C1332 1.385 . S
C1333 C1334 1.389 . S
C1334 C1333 1.389 . S
C1334 C1335 1.387 . S
C1335 H1320 0.930 . S
C1335 C1330 1.390 . S
C1335 C1334 1.387 . S
H1336 C1348 0.930 . S
H1337 C1350 0.930 . S
H1338 C1351 0.930 . S
H1339 C1355 0.959 . S
H1340 C1355 0.959 . S
H1341 C1355 0.961 . S
H1342 C1356 0.960 . S
H1343 C1356 0.961 . S
H1344 C1356 0.959 . S
H1345 C1359 0.929 . S
H1346 C1360 0.931 . S
H1347 C1362 0.930 . S
C1348 H1336 0.930 . S
C1348 C1349 1.399 . S
C1348 C1353 1.399 . S
C1349 C1348 1.399 . S
C1349 C1350 1.376 . S
C1350 H1337 0.930 . S
C1350 C1349 1.376 . S
C1350 C1351 1.388 . S
C1351 H1338 0.930 . S
C1351 C1350 1.388 . S
C1351 C1352 1.390 . S
C1352 C1351 1.390 . S
C1352 C1353 1.394 . S
C1352 C1358 1.465 . S
C1353 C1348 1.399 . S
C1353 C1352 1.394 . S
C1353 C1354 1.516 . S
C1354 C1353 1.516 . S
C1354 C1355 1.502 . S
C1354 C1356 1.561 . S
C1354 C1357 1.526 . S
C1355 H1339 0.959 . S
C1355 H1340 0.959 . S
C1355 H1341 0.961 . S
C1355 C1354 1.502 . S
C1356 H1342 0.960 . S
C1356 H1343 0.961 . S
C1356 H1344 0.959 . S
C1356 C1354 1.561 . S
C1357 C1354 1.526 . S
C1357 C1358 1.396 . S
C1357 C1362 1.390 . S
C1358 C1352 1.465 . S
C1358 C1357 1.396 . S
C1358 C1359 1.399 . S
C1359 H1345 0.929 . S
C1359 C1358 1.399 . S
C1359 C1360 1.385 . S
C1360 H1346 0.931 . S
C1360 C1359 1.385 . S
C1360 C1361 1.389 . S
C1361 C1360 1.389 . S
C1361 C1362 1.387 . S
C1362 H1347 0.930 . S
C1362 C1357 1.390 . S
C1362 C1361 1.387 . S
H1363 C1375 0.930 . S
H1364 C1377 0.930 . S
H1365 C1378 0.930 . S
H1366 C1382 0.959 . S
H1367 C1382 0.959 . S
H1368 C1382 0.980 . S
H1369 C1383 0.960 . S
H1370 C1383 0.961 . S
H1371 C1383 0.959 . S
H1372 C1386 0.929 . S
H1373 C1387 0.931 . S
H1374 C1389 0.930 . S
C1375 H1363 0.930 . S
C1375 C1376 1.399 . S
C1375 C1380 1.399 . S
C1376 C1375 1.399 . S
C1376 C1377 1.376 . S
C1377 H1364 0.930 . S
C1377 C1376 1.376 . S
C1377 C1378 1.388 . S
C1378 H1365 0.930 . S
C1378 C1377 1.388 . S
C1378 C1379 1.390 . S
C1379 C1378 1.390 . S
C1379 C1380 1.394 . S
C1379 C1385 1.465 . S
C1380 C1375 1.399 . S
C1380 C1379 1.394 . S
C1380 C1381 1.516 . S
C1381 C1380 1.516 . S
C1381 C1382 1.502 . S
C1381 C1383 1.561 . S
C1381 C1384 1.526 . S
C1382 H1366 0.959 . S
C1382 H1367 0.959 . S
C1382 H1368 0.980 . S
C1382 C1381 1.502 . S
C1383 H1369 0.960 . S
C1383 H1370 0.961 . S
C1383 H1371 0.959 . S
C1383 C1381 1.561 . S
C1384 C1381 1.526 . S
C1384 C1385 1.396 . S
C1384 C1389 1.390 . S
C1385 C1379 1.465 . S
C1385 C1384 1.396 . S
C1385 C1386 1.399 . S
C1386 H1372 0.929 . S
C1386 C1385 1.399 . S
C1386 C1387 1.385 . S
C1387 H1373 0.931 . S
C1387 C1386 1.385 . S
C1387 C1388 1.389 . S
C1388 C1387 1.389 . S
C1388 C1389 1.387 . S
C1389 H1374 0.930 . S
C1389 C1384 1.390 . S
C1389 C1388 1.387 . S
H1390 C1402 0.930 . S
H1391 C1404 0.930 . S
H1392 C1405 0.930 . S
H1393 C1409 0.959 . S
H1394 C1409 0.959 . S
H1395 C1409 0.961 . S
H1396 C1410 0.960 . S
H1397 C1410 0.961 . S
H1398 C1410 0.959 . S
H1399 C1413 0.929 . S
H1400 C1414 0.931 . S
H1401 C1416 0.930 . S
C1402 H1390 0.930 . S
C1402 C1403 1.399 . S
C1402 C1407 1.399 . S
C1403 C1402 1.399 . S
C1403 C1404 1.376 . S
C1404 H1391 0.930 . S
C1404 C1403 1.376 . S
C1404 C1405 1.388 . S
C1405 H1392 0.930 . S
C1405 C1404 1.388 . S
C1405 C1406 1.390 . S
C1406 C1405 1.390 . S
C1406 C1407 1.394 . S
C1406 C1412 1.465 . S
C1407 C1402 1.399 . S
C1407 C1406 1.394 . S
C1407 C1408 1.516 . S
C1408 C1407 1.516 . S
C1408 C1409 1.502 . S
C1408 C1410 1.561 . S
C1408 C1411 1.526 . S
C1409 H1393 0.959 . S
C1409 H1394 0.959 . S
C1409 H1395 0.961 . S
C1409 C1408 1.502 . S
C1410 H1396 0.960 . S
C1410 H1397 0.961 . S
C1410 H1398 0.959 . S
C1410 C1408 1.561 . S
C1411 C1408 1.526 . S
C1411 C1412 1.396 . S
C1411 C1416 1.390 . S
C1412 C1406 1.465 . S
C1412 C1411 1.396 . S
C1412 C1413 1.399 . S
C1413 H1399 0.929 . S
C1413 C1412 1.399 . S
C1413 C1414 1.385 . S
C1414 H1400 0.931 . S
C1414 C1413 1.385 . S
C1414 C1415 1.389 . S
C1415 C1414 1.389 . S
C1415 C1416 1.387 . S
C1416 H1401 0.930 . S
C1416 C1411 1.390 . S
C1416 C1415 1.387 . S
H1417 C1429 0.930 . S
H1418 C1431 0.930 . S
H1419 C1432 0.930 . S
H1420 C1436 0.959 . S
H1421 C1436 0.959 . S
H1422 C1436 0.961 . S
H1423 C1437 0.960 . S
H1424 C1437 0.961 . S
H1425 C1437 0.959 . S
H1426 C1440 0.926 1_556 S
H1427 C1441 0.931 . S
H1428 C1443 0.930 . S
C1429 H1417 0.930 . S
C1429 C1430 1.399 . S
C1429 C1434 1.399 . S
C1430 C1429 1.399 . S
C1430 C1431 1.376 . S
C1431 H1418 0.930 . S
C1431 C1430 1.376 . S
C1431 C1432 1.388 . S
C1432 H1419 0.930 . S
C1432 C1431 1.388 . S
C1432 C1433 1.390 . S
C1433 C1432 1.390 . S
C1433 C1434 1.394 . S
C1433 C1439 1.465 . S
C1434 C1429 1.399 . S
C1434 C1433 1.394 . S
C1434 C1435 1.516 1_556 S
C1435 C1434 1.516 1_554 S
C1435 C1436 1.502 . S
C1435 C1437 1.561 . S
C1435 C1438 1.526 . S
C1436 H1420 0.959 . S
C1436 H1421 0.959 . S
C1436 H1422 0.961 . S
C1436 C1435 1.502 . S
C1437 H1423 0.960 . S
C1437 H1424 0.961 . S
C1437 H1425 0.959 . S
C1437 C1435 1.561 . S
C1438 C1435 1.526 . S
C1438 C1439 1.396 1_554 S
C1438 C1443 1.390 . S
C1439 C1433 1.465 . S
C1439 C1438 1.396 1_556 S
C1439 C1440 1.398 1_556 S
C1440 H1426 0.926 1_554 S
C1440 C1439 1.398 1_554 S
C1440 C1441 1.389 . S
C1441 H1427 0.931 . S
C1441 C1440 1.389 . S
C1441 C1442 1.389 . S
C1442 C1441 1.389 . S
C1442 C1443 1.387 . S
C1443 H1428 0.930 . S
C1443 C1438 1.390 . S
C1443 C1442 1.387 . S
H1444 C1456 0.930 . S
H1445 C1458 0.930 . S
H1446 C1459 0.930 . S
H1447 C1463 0.959 . S
H1448 C1463 0.959 . S
H1449 C1463 0.961 . S
H1450 C1464 0.960 . S
H1451 C1464 0.961 . S
H1452 C1464 0.959 . S
H1453 C1467 0.929 . S
H1454 C1468 0.931 . S
H1455 C1470 0.930 . S
C1456 H1444 0.930 . S
C1456 C1457 1.399 . S
C1456 C1461 1.399 . S
C1457 C1456 1.399 . S
C1457 C1458 1.376 . S
C1458 H1445 0.930 . S
C1458 C1457 1.376 . S
C1458 C1459 1.388 . S
C1459 H1446 0.930 . S
C1459 C1458 1.388 . S
C1459 C1460 1.390 . S
C1460 C1459 1.390 . S
C1460 C1461 1.394 . S
C1460 C1466 1.465 . S
C1461 C1456 1.399 . S
C1461 C1460 1.394 . S
C1461 C1462 1.516 . S
C1462 C1461 1.516 . S
C1462 C1463 1.502 . S
C1462 C1464 1.561 . S
C1462 C1465 1.526 . S
C1463 H1447 0.959 . S
C1463 H1448 0.959 . S
C1463 H1449 0.961 . S
C1463 C1462 1.502 . S
C1464 H1450 0.960 . S
C1464 H1451 0.961 . S
C1464 H1452 0.959 . S
C1464 C1462 1.561 . S
C1465 C1462 1.526 . S
C1465 C1466 1.396 . S
C1465 C1470 1.390 . S
C1466 C1460 1.465 . S
C1466 C1465 1.396 . S
C1466 C1467 1.399 . S
C1467 H1453 0.929 . S
C1467 C1466 1.399 . S
C1467 C1468 1.385 . S
C1468 H1454 0.931 . S
C1468 C1467 1.385 . S
C1468 C1469 1.389 . S
C1469 C1468 1.389 . S
C1469 C1470 1.387 . S
C1470 H1455 0.930 . S
C1470 C1465 1.390 . S
C1470 C1469 1.387 . S
H1471 C1483 0.930 . S
H1472 C1485 0.930 . S
H1473 C1486 0.930 . S
H1474 C1490 0.959 . S
H1475 C1490 0.959 . S
H1476 C1490 0.961 . S
H1477 C1491 0.960 . S
H1478 C1491 0.961 . S
H1479 C1491 0.959 . S
H1480 C1494 0.929 . S
H1481 C1495 0.931 . S
H1482 C1497 0.930 . S
C1483 H1471 0.930 . S
C1483 C1484 1.399 . S
C1483 C1488 1.399 . S
C1484 C1483 1.399 . S
C1484 C1485 1.376 . S
C1485 H1472 0.930 . S
C1485 C1484 1.376 . S
C1485 C1486 1.388 . S
C1486 H1473 0.930 . S
C1486 C1485 1.388 . S
C1486 C1487 1.390 . S
C1487 C1486 1.390 . S
C1487 C1488 1.394 . S
C1487 C1493 1.465 . S
C1488 C1483 1.399 . S
C1488 C1487 1.394 . S
C1488 C1489 1.516 . S
C1489 C1488 1.516 . S
C1489 C1490 1.502 . S
C1489 C1491 1.561 . S
C1489 C1492 1.526 . S
C1490 H1474 0.959 . S
C1490 H1475 0.959 . S
C1490 H1476 0.961 . S
C1490 C1489 1.502 . S
C1491 H1477 0.960 . S
C1491 H1478 0.961 . S
C1491 H1479 0.959 . S
C1491 C1489 1.561 . S
C1492 C1489 1.526 . S
C1492 C1493 1.396 . S
C1492 C1497 1.390 . S
C1493 C1487 1.465 . S
C1493 C1492 1.396 . S
C1493 C1494 1.399 . S
C1494 H1480 0.929 . S
C1494 C1493 1.399 . S
C1494 C1495 1.385 . S
C1495 H1481 0.931 . S
C1495 C1494 1.385 . S
C1495 C1496 1.389 . S
C1496 C1495 1.389 . S
C1496 C1497 1.387 . S
C1497 H1482 0.930 . S
C1497 C1492 1.390 . S
C1497 C1496 1.387 . S
H1498 C1510 0.930 . S
H1499 C1512 0.930 . S
H1500 C1513 0.930 . S
H1501 C1517 0.959 . S
H1502 C1517 0.959 . S
H1503 C1517 0.961 . S
H1504 C1518 0.960 . S
H1505 C1518 0.961 . S
H1506 C1518 0.959 . S
H1507 C1521 0.929 . S
H1508 C1522 0.931 . S
H1509 C1524 0.930 . S
C1510 H1498 0.930 . S
C1510 C1511 1.399 . S
C1510 C1515 1.399 . S
C1511 C1510 1.399 . S
C1511 C1512 1.376 . S
C1512 H1499 0.930 . S
C1512 C1511 1.376 . S
C1512 C1513 1.388 . S
C1513 H1500 0.930 . S
C1513 C1512 1.388 . S
C1513 C1514 1.390 . S
C1514 C1513 1.390 . S
C1514 C1515 1.394 . S
C1514 C1520 1.465 . S
C1515 C1510 1.399 . S
C1515 C1514 1.394 . S
C1515 C1516 1.516 . S
C1516 C1515 1.516 . S
C1516 C1517 1.502 . S
C1516 C1518 1.561 . S
C1516 C1519 1.526 . S
C1517 H1501 0.959 . S
C1517 H1502 0.959 . S
C1517 H1503 0.961 . S
C1517 C1516 1.502 . S
C1518 H1504 0.960 . S
C1518 H1505 0.961 . S
C1518 H1506 0.959 . S
C1518 C1516 1.561 . S
C1519 C1516 1.526 . S
C1519 C1520 1.396 . S
C1519 C1524 1.390 . S
C1520 C1514 1.465 . S
C1520 C1519 1.396 . S
C1520 C1521 1.399 . S
C1521 H1507 0.929 . S
C1521 C1520 1.399 . S
C1521 C1522 1.385 . S
C1522 H1508 0.931 . S
C1522 C1521 1.385 . S
C1522 C1523 1.389 . S
C1523 C1522 1.389 . S
C1523 C1524 1.387 . S
C1524 H1509 0.930 . S
C1524 C1519 1.390 . S
C1524 C1523 1.387 . S
H1525 C1537 0.930 . S
H1526 C1539 0.930 . S
H1527 C1540 0.930 . S
H1528 C1544 0.959 . S
H1529 C1544 0.959 . S
H1530 C1544 0.961 . S
H1531 C1545 0.960 1_454 S
H1532 C1545 0.961 . S
H1533 C1545 0.959 . S
H1534 C1548 0.929 1_554 S
H1535 C1549 0.931 . S
H1536 C1551 0.930 . S
C1537 H1525 0.930 . S
C1537 C1538 1.399 . S
C1537 C1542 1.399 . S
C1538 C1537 1.399 . S
C1538 C1539 1.376 . S
C1539 H1526 0.930 . S
C1539 C1538 1.376 . S
C1539 C1540 1.388 . S
C1540 H1527 0.930 . S
C1540 C1539 1.388 . S
C1540 C1541 1.390 . S
C1541 C1540 1.390 . S
C1541 C1542 1.394 . S
C1541 C1547 1.465 . S
C1542 C1537 1.399 . S
C1542 C1541 1.394 . S
C1542 C1543 1.516 . S
C1543 C1542 1.516 . S
C1543 C1544 1.502 . S
C1543 C1545 1.561 1_554 S
C1543 C1546 1.526 1_554 S
C1544 H1528 0.959 . S
C1544 H1529 0.959 . S
C1544 H1530 0.961 . S
C1544 C1543 1.502 . S
C1545 H1531 0.960 1_656 S
C1545 H1532 0.961 . S
C1545 H1533 0.959 . S
C1545 C1543 1.561 1_556 S
C1546 C1543 1.526 1_556 S
C1546 C1547 1.396 1_556 S
C1546 C1551 1.390 . S
C1547 C1541 1.465 . S
C1547 C1546 1.396 1_554 S
C1547 C1548 1.399 1_554 S
C1548 H1534 0.929 1_556 S
C1548 C1547 1.399 1_556 S
C1548 C1549 1.385 . S
C1549 H1535 0.931 . S
C1549 C1548 1.385 . S
C1549 C1550 1.389 . S
C1550 C1549 1.389 . S
C1550 C1551 1.387 . S
C1551 H1536 0.930 . S
C1551 C1546 1.390 . S
C1551 C1550 1.387 . S
H1552 C1564 0.930 . S
H1553 C1566 0.930 . S
H1554 C1567 0.930 . S
H1555 C1571 0.959 . S
H1556 C1571 0.959 . S
H1557 C1571 0.961 . S
H1558 C1572 0.960 . S
H1559 C1572 0.961 . S
H1560 C1572 0.959 . S
H1561 C1575 0.929 . S
H1562 C1576 0.931 . S
H1563 C1578 0.930 . S
C1564 H1552 0.930 . S
C1564 C1565 1.399 . S
C1564 C1569 1.399 . S
C1565 C1564 1.399 . S
C1565 C1566 1.376 . S
C1566 H1553 0.930 . S
C1566 C1565 1.376 . S
C1566 C1567 1.388 . S
C1567 H1554 0.930 . S
C1567 C1566 1.388 . S
C1567 C1568 1.390 . S
C1568 C1567 1.390 . S
C1568 C1569 1.394 . S
C1568 C1574 1.465 . S
C1569 C1564 1.399 . S
C1569 C1568 1.394 . S
C1569 C1570 1.516 . S
C1570 C1569 1.516 . S
C1570 C1571 1.502 . S
C1570 C1572 1.561 . S
C1570 C1573 1.526 . S
C1571 H1555 0.959 . S
C1571 H1556 0.959 . S
C1571 H1557 0.961 . S
C1571 C1570 1.502 . S
C1572 H1558 0.960 . S
C1572 H1559 0.961 . S
C1572 H1560 0.959 . S
C1572 C1570 1.561 . S
C1573 C1570 1.526 . S
C1573 C1574 1.396 . S
C1573 C1578 1.390 . S
C1574 C1568 1.465 . S
C1574 C1573 1.396 . S
C1574 C1575 1.399 . S
C1575 H1561 0.929 . S
C1575 C1574 1.399 . S
C1575 C1576 1.385 . S
C1576 H1562 0.931 . S
C1576 C1575 1.385 . S
C1576 C1577 1.389 . S
C1577 C1576 1.389 . S
C1577 C1578 1.387 . S
C1578 H1563 0.930 . S
C1578 C1573 1.390 . S
C1578 C1577 1.387 . S
H1579 C1591 0.930 . S
H1580 C1593 0.930 . S
H1581 C1594 0.930 . S
H1582 C1598 0.959 . S
H1583 C1598 0.959 . S
H1584 C1598 0.961 . S
H1585 C1599 0.960 . S
H1586 C1599 0.961 . S
H1587 C1599 0.959 . S
H1588 C1602 0.929 . S
H1589 C1603 0.931 . S
H1590 C1605 0.930 . S
C1591 H1579 0.930 . S
C1591 C1592 1.399 . S
C1591 C1596 1.399 . S
C1592 C1591 1.399 . S
C1592 C1593 1.376 . S
C1593 H1580 0.930 . S
C1593 C1592 1.376 . S
C1593 C1594 1.388 . S
C1594 H1581 0.930 . S
C1594 C1593 1.388 . S
C1594 C1595 1.390 . S
C1595 C1594 1.390 . S
C1595 C1596 1.394 . S
C1595 C1601 1.448 1_565 S
C1596 C1591 1.399 . S
C1596 C1595 1.394 . S
C1596 C1597 1.516 . S
C1597 C1596 1.516 . S
C1597 C1598 1.502 . S
C1597 C1599 1.561 . S
C1597 C1600 1.526 1_565 S
C1598 H1582 0.959 . S
C1598 H1583 0.959 . S
C1598 H1584 0.961 . S
C1598 C1597 1.502 . S
C1599 H1585 0.960 . S
C1599 H1586 0.961 . S
C1599 H1587 0.959 . S
C1599 C1597 1.561 . S
C1600 C1597 1.526 1_545 S
C1600 C1601 1.397 . S
C1600 C1605 1.390 . S
C1601 C1595 1.448 1_545 S
C1601 C1600 1.397 . S
C1601 C1602 1.414 . S
C1602 H1588 0.929 . S
C1602 C1601 1.414 . S
C1602 C1603 1.385 . S
C1603 H1589 0.931 . S
C1603 C1602 1.385 . S
C1603 C1604 1.389 . S
C1604 C1603 1.389 . S
C1604 C1605 1.387 . S
C1605 H1590 0.930 . S
C1605 C1600 1.390 . S
C1605 C1604 1.387 . S
H1606 C1618 0.930 . S
H1607 C1620 0.930 . S
H1608 C1621 0.930 . S
H1609 C1625 0.959 . S
H1610 C1625 0.959 . S
H1611 C1625 0.961 . S
H1612 C1626 0.960 . S
H1613 C1626 0.961 . S
H1614 C1626 0.959 . S
H1615 C1629 0.929 . S
H1616 C1630 0.931 . S
H1617 C1632 0.930 . S
C1618 H1606 0.930 . S
C1618 C1619 1.399 . S
C1618 C1623 1.399 . S
C1619 C1618 1.399 . S
C1619 C1620 1.376 . S
C1620 H1607 0.930 . S
C1620 C1619 1.376 . S
C1620 C1621 1.388 . S
C1621 H1608 0.930 . S
C1621 C1620 1.388 . S
C1621 C1622 1.390 . S
C1622 C1621 1.390 . S
C1622 C1623 1.394 . S
C1622 C1628 1.465 . S
C1623 C1618 1.399 . S
C1623 C1622 1.394 . S
C1623 C1624 1.516 . S
C1624 C1623 1.516 . S
C1624 C1625 1.502 . S
C1624 C1626 1.561 . S
C1624 C1627 1.526 . S
C1625 H1609 0.959 . S
C1625 H1610 0.959 . S
C1625 H1611 0.961 . S
C1625 C1624 1.502 . S
C1626 H1612 0.960 . S
C1626 H1613 0.961 . S
C1626 H1614 0.959 . S
C1626 C1624 1.561 . S
C1627 C1624 1.526 . S
C1627 C1628 1.396 . S
C1627 C1632 1.390 . S
C1628 C1622 1.465 . S
C1628 C1627 1.396 . S
C1628 C1629 1.399 . S
C1629 H1615 0.929 . S
C1629 C1628 1.399 . S
C1629 C1630 1.385 . S
C1630 H1616 0.931 . S
C1630 C1629 1.385 . S
C1630 C1631 1.389 . S
C1631 C1630 1.389 . S
C1631 C1632 1.387 . S
C1632 H1617 0.930 . S
C1632 C1627 1.390 . S
C1632 C1631 1.387 . S
H1633 C1645 0.930 . S
H1634 C1647 0.918 1_556 S
H1635 C1648 0.930 . S
H1636 C1652 0.985 . S
H1637 C1652 0.959 . S
H1638 C1652 0.961 . S
H1639 C1653 0.960 . S
H1640 C1653 0.961 . S
H1641 C1653 0.959 . S
H1642 C1656 0.929 . S
H1643 C1657 0.931 . S
H1644 C1659 0.930 . S
C1645 H1633 0.930 . S
C1645 C1646 1.399 . S
C1645 C1650 1.399 . S
C1646 C1645 1.399 . S
C1646 C1647 1.376 . S
C1647 H1634 0.918 1_554 S
C1647 C1646 1.376 . S
C1647 C1648 1.388 . S
C1648 H1635 0.930 . S
C1648 C1647 1.388 . S
C1648 C1649 1.390 . S
C1649 C1648 1.390 . S
C1649 C1650 1.394 . S
C1649 C1655 1.465 . S
C1650 C1645 1.399 . S
C1650 C1649 1.394 . S
C1650 C1651 1.516 . S
C1651 C1650 1.516 . S
C1651 C1652 1.502 . S
C1651 C1653 1.561 . S
C1651 C1654 1.514 1_545 S
C1652 H1636 0.985 . S
C1652 H1637 0.959 . S
C1652 H1638 0.961 . S
C1652 C1651 1.502 . S
C1653 H1639 0.960 . S
C1653 H1640 0.961 . S
C1653 H1641 0.959 . S
C1653 C1651 1.561 . S
C1654 C1651 1.514 1_565 S
C1654 C1655 1.394 1_565 S
C1654 C1659 1.402 . S
C1655 C1649 1.465 . S
C1655 C1654 1.394 1_545 S
C1655 C1656 1.399 1_545 S
C1656 H1642 0.929 . S
C1656 C1655 1.399 1_565 S
C1656 C1657 1.385 . S
C1657 H1643 0.931 . S
C1657 C1656 1.385 . S
C1657 C1658 1.389 . S
C1658 C1657 1.389 . S
C1658 C1659 1.387 . S
C1659 H1644 0.930 . S
C1659 C1654 1.402 . S
C1659 C1658 1.387 . S
H1660 C1672 0.930 . S
H1661 C1674 0.930 . S
H1662 C1675 0.930 . S
H1663 C1679 0.959 . S
H1664 C1679 0.959 . S
H1665 C1679 0.961 . S
H1666 C1680 0.960 . S
H1667 C1680 0.961 . S
H1668 C1680 0.959 . S
H1669 C1683 0.929 . S
H1670 C1684 0.931 . S
H1671 C1686 0.930 . S
C1672 H1660 0.930 . S
C1672 C1673 1.399 . S
C1672 C1677 1.399 . S
C1673 C1672 1.399 . S
C1673 C1674 1.376 . S
C1674 H1661 0.930 . S
C1674 C1673 1.376 . S
C1674 C1675 1.388 . S
C1675 H1662 0.930 . S
C1675 C1674 1.388 . S
C1675 C1676 1.390 . S
C1676 C1675 1.390 . S
C1676 C1677 1.394 . S
C1676 C1682 1.465 . S
C1677 C1672 1.399 . S
C1677 C1676 1.394 . S
C1677 C1678 1.516 . S
C1678 C1677 1.516 . S
C1678 C1679 1.502 . S
C1678 C1680 1.561 . S
C1678 C1681 1.526 . S
C1679 H1663 0.959 . S
C1679 H1664 0.959 . S
C1679 H1665 0.961 . S
C1679 C1678 1.502 . S
C1680 H1666 0.960 . S
C1680 H1667 0.961 . S
C1680 H1668 0.959 . S
C1680 C1678 1.561 . S
C1681 C1678 1.526 . S
C1681 C1682 1.396 . S
C1681 C1686 1.390 . S
C1682 C1676 1.465 . S
C1682 C1681 1.396 . S
C1682 C1683 1.399 . S
C1683 H1669 0.929 . S
C1683 C1682 1.399 . S
C1683 C1684 1.385 . S
C1684 H1670 0.931 . S
C1684 C1683 1.385 . S
C1684 C1685 1.389 . S
C1685 C1684 1.389 . S
C1685 C1686 1.387 . S
C1686 H1671 0.930 . S
C1686 C1681 1.390 . S
C1686 C1685 1.387 . S
H1687 C1699 0.930 . S
H1688 C1701 0.930 . S
H1689 C1702 0.930 . S
H1690 C1706 0.959 . S
H1691 C1706 0.959 . S
H1692 C1706 0.961 1_565 S
H1693 C1707 0.960 . S
H1694 C1707 0.961 . S
H1695 C1707 0.959 . S
H1696 C1710 0.929 . S
H1697 C1711 0.931 . S
H1698 C1713 0.930 . S
C1699 H1687 0.930 . S
C1699 C1700 1.399 . S
C1699 C1704 1.399 . S
C1700 C1699 1.399 . S
C1700 C1701 1.376 . S
C1701 H1688 0.930 . S
C1701 C1700 1.376 . S
C1701 C1702 1.388 . S
C1702 H1689 0.930 . S
C1702 C1701 1.388 . S
C1702 C1703 1.390 . S
C1703 C1702 1.390 . S
C1703 C1704 1.394 . S
C1703 C1709 1.465 . S
C1704 C1699 1.399 . S
C1704 C1703 1.394 . S
C1704 C1705 1.516 . S
C1705 C1704 1.516 . S
C1705 C1706 1.502 1_565 S
C1705 C1707 1.561 . S
C1705 C1708 1.526 1_565 S
C1706 H1690 0.959 . S
C1706 H1691 0.959 . S
C1706 H1692 0.961 1_545 S
C1706 C1705 1.502 1_545 S
C1707 H1693 0.960 . S
C1707 H1694 0.961 . S
C1707 H1695 0.959 . S
C1707 C1705 1.561 . S
C1708 C1705 1.526 1_545 S
C1708 C1709 1.396 1_545 S
C1708 C1713 1.390 . S
C1709 C1703 1.465 . S
C1709 C1708 1.396 1_565 S
C1709 C1710 1.399 1_565 S
C1710 H1696 0.929 . S
C1710 C1709 1.399 1_545 S
C1710 C1711 1.385 . S
C1711 H1697 0.931 . S
C1711 C1710 1.385 . S
C1711 C1712 1.389 . S
C1712 C1711 1.389 . S
C1712 C1713 1.387 . S
C1713 H1698 0.930 . S
C1713 C1708 1.390 . S
C1713 C1712 1.387 . S
H1714 C1726 0.930 . S
H1715 C1728 0.930 . S
H1716 C1729 0.930 . S
H1717 C1733 0.959 . S
H1718 C1733 0.959 . S
H1719 C1733 0.961 . S
H1720 C1734 0.960 . S
H1721 C1734 0.961 . S
H1722 C1734 0.959 . S
H1723 C1737 0.929 . S
H1724 C1738 0.931 . S
H1725 C1740 0.930 . S
C1726 H1714 0.930 . S
C1726 C1727 1.399 . S
C1726 C1731 1.399 . S
C1727 C1726 1.399 . S
C1727 C1728 1.376 . S
C1728 H1715 0.930 . S
C1728 C1727 1.376 . S
C1728 C1729 1.388 . S
C1729 H1716 0.930 . S
C1729 C1728 1.388 . S
C1729 C1730 1.390 . S
C1730 C1729 1.390 . S
C1730 C1731 1.394 . S
C1730 C1736 1.465 . S
C1731 C1726 1.399 . S
C1731 C1730 1.394 . S
C1731 C1732 1.516 . S
C1732 C1731 1.516 . S
C1732 C1733 1.502 . S
C1732 C1734 1.561 . S
C1732 C1735 1.526 . S
C1733 H1717 0.959 . S
C1733 H1718 0.959 . S
C1733 H1719 0.961 . S
C1733 C1732 1.502 . S
C1734 H1720 0.960 . S
C1734 H1721 0.961 . S
C1734 H1722 0.959 . S
C1734 C1732 1.561 . S
C1735 C1732 1.526 . S
C1735 C1736 1.396 . S
C1735 C1740 1.390 . S
C1736 C1730 1.465 . S
C1736 C1735 1.396 . S
C1736 C1737 1.399 . S
C1737 H1723 0.929 . S
C1737 C1736 1.399 . S
C1737 C1738 1.385 . S
C1738 H1724 0.931 . S
C1738 C1737 1.385 . S
C1738 C1739 1.389 . S
C1739 C1738 1.389 . S
C1739 C1740 1.387 . S
C1740 H1725 0.930 . S
C1740 C1735 1.390 . S
C1740 C1739 1.387 . S
H1741 C1753 0.930 . S
H1742 C1755 0.930 1_554 S
H1743 C1756 0.930 . S
H1744 C1760 0.959 1_565 S
H1745 C1760 0.959 1_565 S
H1746 C1760 0.961 . S
H1747 C1761 0.960 . S
H1748 C1761 0.961 . S
H1749 C1761 0.959 . S
H1750 C1764 0.929 . S
H1751 C1765 0.931 . S
H1752 C1767 0.930 . S
C1753 H1741 0.930 . S
C1753 C1754 1.399 . S
C1753 C1758 1.399 . S
C1754 C1753 1.399 . S
C1754 C1755 1.376 . S
C1755 H1742 0.930 1_556 S
C1755 C1754 1.376 . S
C1755 C1756 1.388 . S
C1756 H1743 0.930 . S
C1756 C1755 1.388 . S
C1756 C1757 1.390 . S
C1757 C1756 1.390 . S
C1757 C1758 1.394 . S
C1757 C1763 1.465 . S
C1758 C1753 1.399 . S
C1758 C1757 1.394 . S
C1758 C1759 1.516 . S
C1759 C1758 1.516 . S
C1759 C1760 1.502 . S
C1759 C1761 1.561 . S
C1759 C1762 1.526 1_545 S
C1760 H1744 0.959 1_545 S
C1760 H1745 0.959 1_545 S
C1760 H1746 0.961 . S
C1760 C1759 1.502 . S
C1761 H1747 0.960 . S
C1761 H1748 0.961 . S
C1761 H1749 0.959 . S
C1761 C1759 1.561 . S
C1762 C1759 1.526 1_565 S
C1762 C1763 1.396 1_565 S
C1762 C1767 1.390 . S
C1763 C1757 1.465 . S
C1763 C1762 1.396 1_545 S
C1763 C1764 1.399 1_545 S
C1764 H1750 0.929 . S
C1764 C1763 1.399 1_565 S
C1764 C1765 1.385 . S
C1765 H1751 0.931 . S
C1765 C1764 1.385 . S
C1765 C1766 1.389 . S
C1766 C1765 1.389 . S
C1766 C1767 1.387 . S
C1767 H1752 0.930 . S
C1767 C1762 1.390 . S
C1767 C1766 1.387 . S
H1768 C1780 0.930 . S
H1769 C1782 0.930 . S
H1770 C1783 0.930 . S
H1771 C1787 0.959 . S
H1772 C1787 0.959 . S
H1773 C1787 0.961 . S
H1774 C1788 0.960 . S
H1775 C1788 0.961 . S
H1776 C1788 0.959 . S
H1777 C1791 0.929 . S
H1778 C1792 0.931 . S
H1779 C1794 0.930 . S
C1780 H1768 0.930 . S
C1780 C1781 1.399 . S
C1780 C1785 1.399 . S
C1781 C1780 1.399 . S
C1781 C1782 1.376 . S
C1782 H1769 0.930 . S
C1782 C1781 1.376 . S
C1782 C1783 1.388 . S
C1783 H1770 0.930 . S
C1783 C1782 1.388 . S
C1783 C1784 1.390 . S
C1784 C1783 1.390 . S
C1784 C1785 1.394 . S
C1784 C1790 1.465 . S
C1785 C1780 1.399 . S
C1785 C1784 1.394 . S
C1785 C1786 1.516 . S
C1786 C1785 1.516 . S
C1786 C1787 1.502 . S
C1786 C1788 1.561 . S
C1786 C1789 1.526 . S
C1787 H1771 0.959 . S
C1787 H1772 0.959 . S
C1787 H1773 0.961 . S
C1787 C1786 1.502 . S
C1788 H1774 0.960 . S
C1788 H1775 0.961 . S
C1788 H1776 0.959 . S
C1788 C1786 1.561 . S
C1789 C1786 1.526 . S
C1789 C1790 1.396 . S
C1789 C1794 1.390 . S
C1790 C1784 1.465 . S
C1790 C1789 1.396 . S
C1790 C1791 1.399 . S
C1791 H1777 0.929 . S
C1791 C1790 1.399 . S
C1791 C1792 1.385 . S
C1792 H1778 0.931 . S
C1792 C1791 1.385 . S
C1792 C1793 1.389 . S
C1793 C1792 1.389 . S
C1793 C1794 1.387 . S
C1794 H1779 0.930 . S
C1794 C1789 1.390 . S
C1794 C1793 1.387 . S
H1795 C1807 0.930 . S
H1796 C1809 0.930 . S
H1797 C1810 0.930 . S
H1798 C1814 0.959 . S
H1799 C1814 0.959 . S
H1800 C1814 0.961 . S
H1801 C1815 0.960 . S
H1802 C1815 0.961 . S
H1803 C1815 0.959 . S
H1804 C1818 0.929 . S
H1805 C1819 0.931 . S
H1806 C1821 0.930 . S
C1807 H1795 0.930 . S
C1807 C1808 1.399 . S
C1807 C1812 1.399 . S
C1808 C1807 1.399 . S
C1808 C1809 1.376 . S
C1809 H1796 0.930 . S
C1809 C1808 1.376 . S
C1809 C1810 1.388 . S
C1810 H1797 0.930 . S
C1810 C1809 1.388 . S
C1810 C1811 1.390 . S
C1811 C1810 1.390 . S
C1811 C1812 1.394 . S
C1811 C1817 1.465 . S
C1812 C1807 1.399 . S
C1812 C1811 1.394 . S
C1812 C1813 1.516 . S
C1813 C1812 1.516 . S
C1813 C1814 1.502 . S
C1813 C1815 1.561 . S
C1813 C1816 1.526 . S
C1814 H1798 0.959 . S
C1814 H1799 0.959 . S
C1814 H1800 0.961 . S
C1814 C1813 1.502 . S
C1815 H1801 0.960 . S
C1815 H1802 0.961 . S
C1815 H1803 0.959 . S
C1815 C1813 1.561 . S
C1816 C1813 1.526 . S
C1816 C1817 1.396 . S
C1816 C1821 1.390 . S
C1817 C1811 1.465 . S
C1817 C1816 1.396 . S
C1817 C1818 1.399 . S
C1818 H1804 0.929 . S
C1818 C1817 1.399 . S
C1818 C1819 1.385 . S
C1819 H1805 0.931 . S
C1819 C1818 1.385 . S
C1819 C1820 1.389 . S
C1820 C1819 1.389 . S
C1820 C1821 1.387 . S
C1821 H1806 0.930 . S
C1821 C1816 1.390 . S
C1821 C1820 1.387 . S
H1822 C1834 0.930 . S
H1823 C1836 0.930 . S
H1824 C1837 0.930 . S
H1825 C1841 0.959 1_455 S
H1826 C1841 0.959 1_455 S
H1827 C1841 0.961 . S
H1828 C1842 0.960 . S
H1829 C1842 0.961 . S
H1830 C1842 0.959 . S
H1831 C1845 0.929 . S
H1832 C1846 0.931 . S
H1833 C1848 0.930 . S
C1834 H1822 0.930 . S
C1834 C1835 1.399 . S
C1834 C1839 1.399 . S
C1835 C1834 1.399 . S
C1835 C1836 1.376 . S
C1836 H1823 0.930 . S
C1836 C1835 1.376 . S
C1836 C1837 1.388 . S
C1837 H1824 0.930 . S
C1837 C1836 1.388 . S
C1837 C1838 1.390 . S
C1838 C1837 1.390 . S
C1838 C1839 1.394 . S
C1838 C1844 1.465 . S
C1839 C1834 1.399 . S
C1839 C1838 1.394 . S
C1839 C1840 1.516 . S
C1840 C1839 1.516 . S
C1840 C1841 1.502 . S
C1840 C1842 1.561 . S
C1840 C1843 1.526 1_655 S
C1841 H1825 0.959 1_655 S
C1841 H1826 0.959 1_655 S
C1841 H1827 0.961 . S
C1841 C1840 1.502 . S
C1842 H1828 0.960 . S
C1842 H1829 0.961 . S
C1842 H1830 0.959 . S
C1842 C1840 1.561 . S
C1843 C1840 1.526 1_455 S
C1843 C1844 1.396 1_455 S
C1843 C1848 1.390 . S
C1844 C1838 1.465 . S
C1844 C1843 1.396 1_655 S
C1844 C1845 1.399 1_655 S
C1845 H1831 0.929 . S
C1845 C1844 1.399 1_455 S
C1845 C1846 1.385 . S
C1846 H1832 0.931 . S
C1846 C1845 1.385 . S
C1846 C1847 1.389 . S
C1847 C1846 1.389 . S
C1847 C1848 1.387 . S
C1848 H1833 0.930 . S
C1848 C1843 1.390 . S
C1848 C1847 1.387 . S
H1849 C1861 0.930 . S
H1850 C1863 0.930 . S
H1851 C1864 0.930 . S
H1852 C1868 0.959 . S
H1853 C1868 0.959 . S
H1854 C1868 0.961 . S
H1855 C1869 0.960 . S
H1856 C1869 0.961 . S
H1857 C1869 0.959 . S
H1858 C1872 0.929 . S
H1859 C1873 0.931 . S
H1860 C1875 0.930 . S
C1861 H1849 0.930 . S
C1861 C1862 1.399 . S
C1861 C1866 1.399 . S
C1862 C1861 1.399 . S
C1862 C1863 1.376 . S
C1863 H1850 0.930 . S
C1863 C1862 1.376 . S
C1863 C1864 1.388 . S
C1864 H1851 0.930 . S
C1864 C1863 1.388 . S
C1864 C1865 1.390 . S
C1865 C1864 1.390 . S
C1865 C1866 1.394 . S
C1865 C1871 1.465 . S
C1866 C1861 1.399 . S
C1866 C1865 1.394 . S
C1866 C1867 1.516 . S
C1867 C1866 1.516 . S
C1867 C1868 1.502 . S
C1867 C1869 1.561 . S
C1867 C1870 1.526 . S
C1868 H1852 0.959 . S
C1868 H1853 0.959 . S
C1868 H1854 0.961 . S
C1868 C1867 1.502 . S
C1869 H1855 0.960 . S
C1869 H1856 0.961 . S
C1869 H1857 0.959 . S
C1869 C1867 1.561 . S
C1870 C1867 1.526 . S
C1870 C1871 1.396 . S
C1870 C1875 1.390 . S
C1871 C1865 1.465 . S
C1871 C1870 1.396 . S
C1871 C1872 1.399 . S
C1872 H1858 0.929 . S
C1872 C1871 1.399 . S
C1872 C1873 1.385 . S
C1873 H1859 0.931 . S
C1873 C1872 1.385 . S
C1873 C1874 1.389 . S
C1874 C1873 1.389 . S
C1874 C1875 1.387 . S
C1875 H1860 0.930 . S
C1875 C1870 1.390 . S
C1875 C1874 1.387 . S
H1876 C1888 0.930 . S
H1877 C1890 0.930 . S
H1878 C1891 0.930 . S
H1879 C1895 0.959 . S
H1880 C1895 0.959 . S
H1881 C1895 0.961 . S
H1882 C1896 0.960 1_445 S
H1883 C1896 0.961 . S
H1884 C1896 0.959 . S
H1885 C1899 0.929 . S
H1886 C1900 0.931 . S
H1887 C1902 0.930 . S
C1888 H1876 0.930 . S
C1888 C1889 1.399 . S
C1888 C1893 1.399 . S
C1889 C1888 1.399 . S
C1889 C1890 1.376 . S
C1890 H1877 0.930 . S
C1890 C1889 1.376 . S
C1890 C1891 1.388 . S
C1891 H1878 0.930 . S
C1891 C1890 1.388 . S
C1891 C1892 1.390 . S
C1892 C1891 1.390 . S
C1892 C1893 1.394 . S
C1892 C1898 1.465 . S
C1893 C1888 1.399 . S
C1893 C1892 1.394 . S
C1893 C1894 1.516 . S
C1894 C1893 1.516 . S
C1894 C1895 1.502 . S
C1894 C1896 1.561 1_455 S
C1894 C1897 1.526 1_455 S
C1895 H1879 0.959 . S
C1895 H1880 0.959 . S
C1895 H1881 0.961 . S
C1895 C1894 1.502 . S
C1896 H1882 0.960 1_665 S
C1896 H1883 0.961 . S
C1896 H1884 0.959 . S
C1896 C1894 1.561 1_655 S
C1897 C1894 1.526 1_655 S
C1897 C1898 1.396 1_655 S
C1897 C1902 1.390 . S
C1898 C1892 1.465 . S
C1898 C1897 1.396 1_455 S
C1898 C1899 1.399 1_455 S
C1899 H1885 0.929 . S
C1899 C1898 1.399 1_655 S
C1899 C1900 1.385 . S
C1900 H1886 0.931 . S
C1900 C1899 1.385 . S
C1900 C1901 1.389 . S
C1901 C1900 1.389 . S
C1901 C1902 1.387 . S
C1902 H1887 0.930 . S
C1902 C1897 1.390 . S
C1902 C1901 1.387 . S
H1903 C1915 0.930 . S
H1904 C1917 0.930 . S
H1905 C1918 0.930 . S
H1906 C1922 0.959 . S
H1907 C1922 0.959 . S
H1908 C1922 0.961 . S
H1909 C1923 0.960 . S
H1910 C1923 0.961 . S
H1911 C1923 0.959 . S
H1912 C1926 0.929 . S
H1913 C1927 0.931 . S
H1914 C1929 0.930 . S
C1915 H1903 0.930 . S
C1915 C1916 1.399 . S
C1915 C1920 1.399 . S
C1916 C1915 1.399 . S
C1916 C1917 1.376 . S
C1917 H1904 0.930 . S
C1917 C1916 1.376 . S
C1917 C1918 1.388 . S
C1918 H1905 0.930 . S
C1918 C1917 1.388 . S
C1918 C1919 1.390 . S
C1919 C1918 1.390 . S
C1919 C1920 1.394 . S
C1919 C1925 1.465 . S
C1920 C1915 1.399 . S
C1920 C1919 1.394 . S
C1920 C1921 1.516 . S
C1921 C1920 1.516 . S
C1921 C1922 1.502 . S
C1921 C1923 1.561 . S
C1921 C1924 1.526 . S
C1922 H1906 0.959 . S
C1922 H1907 0.959 . S
C1922 H1908 0.961 . S
C1922 C1921 1.502 . S
C1923 H1909 0.960 . S
C1923 H1910 0.961 . S
C1923 H1911 0.959 . S
C1923 C1921 1.561 . S
C1924 C1921 1.526 . S
C1924 C1925 1.396 . S
C1924 C1929 1.390 . S
C1925 C1919 1.465 . S
C1925 C1924 1.396 . S
C1925 C1926 1.399 . S
C1926 H1912 0.929 . S
C1926 C1925 1.399 . S
C1926 C1927 1.385 . S
C1927 H1913 0.931 . S
C1927 C1926 1.385 . S
C1927 C1928 1.389 . S
C1928 C1927 1.389 . S
C1928 C1929 1.387 . S
C1929 H1914 0.930 . S
C1929 C1924 1.390 . S
C1929 C1928 1.387 . S
H1930 C1942 0.930 . S
H1931 C1944 0.930 . S
H1932 C1945 0.930 . S
H1933 C1949 0.959 . S
H1934 C1949 0.959 . S
H1935 C1949 0.961 . S
H1936 C1950 0.960 . S
H1937 C1950 0.961 . S
H1938 C1950 0.959 . S
H1939 C1953 0.929 . S
H1940 C1954 0.931 . S
H1941 C1956 0.930 . S
C1942 H1930 0.930 . S
C1942 C1943 1.399 . S
C1942 C1947 1.399 . S
C1943 C1942 1.399 . S
C1943 C1944 1.376 . S
C1944 H1931 0.930 . S
C1944 C1943 1.376 . S
C1944 C1945 1.388 . S
C1945 H1932 0.930 . S
C1945 C1944 1.388 . S
C1945 C1946 1.390 . S
C1946 C1945 1.390 . S
C1946 C1947 1.394 . S
C1946 C1952 1.465 1_655 S
C1947 C1942 1.399 . S
C1947 C1946 1.394 . S
C1947 C1948 1.516 . S
C1948 C1947 1.516 . S
C1948 C1949 1.502 . S
C1948 C1950 1.561 . S
C1948 C1951 1.526 . S
C1949 H1933 0.959 . S
C1949 H1934 0.959 . S
C1949 H1935 0.961 . S
C1949 C1948 1.502 . S
C1950 H1936 0.960 . S
C1950 H1937 0.961 . S
C1950 H1938 0.959 . S
C1950 C1948 1.561 . S
C1951 C1948 1.526 . S
C1951 C1952 1.396 1_655 S
C1951 C1956 1.390 1_655 S
C1952 C1946 1.465 1_455 S
C1952 C1951 1.396 1_455 S
C1952 C1953 1.399 . S
C1953 H1939 0.929 . S
C1953 C1952 1.399 . S
C1953 C1954 1.385 . S
C1954 H1940 0.931 . S
C1954 C1953 1.385 . S
C1954 C1955 1.389 . S
C1955 C1954 1.389 . S
C1955 C1956 1.387 . S
C1956 H1941 0.930 . S
C1956 C1951 1.390 1_455 S
C1956 C1955 1.387 . S
H1957 C1969 0.930 . S
H1958 C1971 0.930 . S
H1959 C1972 0.930 . S
H1960 C1976 0.959 . S
H1961 C1976 0.959 . S
H1962 C1976 0.961 . S
H1963 C1977 0.960 . S
H1964 C1977 0.961 . S
H1965 C1977 0.959 . S
H1966 C1980 0.929 . S
H1967 C1981 0.931 . S
H1968 C1983 0.930 . S
C1969 H1957 0.930 . S
C1969 C1970 1.399 . S
C1969 C1974 1.399 . S
C1970 C1969 1.399 . S
C1970 C1971 1.376 . S
C1971 H1958 0.930 . S
C1971 C1970 1.376 . S
C1971 C1972 1.388 . S
C1972 H1959 0.930 . S
C1972 C1971 1.388 . S
C1972 C1973 1.390 . S
C1973 C1972 1.390 . S
C1973 C1974 1.394 . S
C1973 C1979 1.465 . S
C1974 C1969 1.399 . S
C1974 C1973 1.394 . S
C1974 C1975 1.516 . S
C1975 C1974 1.516 . S
C1975 C1976 1.502 . S
C1975 C1977 1.561 . S
C1975 C1978 1.526 . S
C1976 H1960 0.959 . S
C1976 H1961 0.959 . S
C1976 H1962 0.961 . S
C1976 C1975 1.502 . S
C1977 H1963 0.960 . S
C1977 H1964 0.961 . S
C1977 H1965 0.959 . S
C1977 C1975 1.561 . S
C1978 C1975 1.526 . S
C1978 C1979 1.396 . S
C1978 C1983 1.390 . S
C1979 C1973 1.465 . S
C1979 C1978 1.396 . S
C1979 C1980 1.399 . S
C1980 H1966 0.929 . S
C1980 C1979 1.399 . S
C1980 C1981 1.385 . S
C1981 H1967 0.931 . S
C1981 C1980 1.385 . S
C1981 C1982 1.389 . S
C1982 C1981 1.389 . S
C1982 C1983 1.387 . S
C1983 H1968 0.930 . S
C1983 C1978 1.390 . S
C1983 C1982 1.387 . S
H1984 C1996 0.930 . S
H1985 C1998 0.930 . S
H1986 C1999 0.930 . S
H1987 C2003 0.959 . S
H1988 C2003 0.959 . S
H1989 C2003 0.961 . S
H1990 C2004 0.960 . S
H1991 C2004 0.961 . S
H1992 C2004 0.959 . S
H1993 C2007 0.929 . S
H1994 C2008 0.931 . S
H1995 C2010 0.930 . S
C1996 H1984 0.930 . S
C1996 C1997 1.399 . S
C1996 C2001 1.399 . S
C1997 C1996 1.399 . S
C1997 C1998 1.376 . S
C1998 H1985 0.930 . S
C1998 C1997 1.376 . S
C1998 C1999 1.388 . S
C1999 H1986 0.930 . S
C1999 C1998 1.388 . S
C1999 C2000 1.390 . S
C2000 C1999 1.390 . S
C2000 C2001 1.394 . S
C2000 C2006 1.465 . S
C2001 C1996 1.399 . S
C2001 C2000 1.394 . S
C2001 C2002 1.516 . S
C2002 C2001 1.516 . S
C2002 C2003 1.502 . S
C2002 C2004 1.561 . S
C2002 C2005 1.526 . S
C2003 H1987 0.959 . S
C2003 H1988 0.959 . S
C2003 H1989 0.961 . S
C2003 C2002 1.502 . S
C2004 H1990 0.960 . S
C2004 H1991 0.961 . S
C2004 H1992 0.959 . S
C2004 C2002 1.561 . S
C2005 C2002 1.526 . S
C2005 C2006 1.396 . S
C2005 C2010 1.390 . S
C2006 C2000 1.465 . S
C2006 C2005 1.396 . S
C2006 C2007 1.399 . S
C2007 H1993 0.929 . S
C2007 C2006 1.399 . S
C2007 C2008 1.385 . S
C2008 H1994 0.931 . S
C2008 C2007 1.385 . S
C2008 C2009 1.389 . S
C2009 C2008 1.389 . S
C2009 C2010 1.387 . S
C2010 H1995 0.930 . S
C2010 C2005 1.390 . S
C2010 C2009 1.387 . S
H2011 C2023 0.930 . S
H2012 C2025 0.930 . S
H2013 C2026 0.930 . S
H2014 C2030 0.959 . S
H2015 C2030 0.959 . S
H2016 C2030 0.961 . S
H2017 C2031 0.960 . S
H2018 C2031 0.961 . S
H2019 C2031 0.959 . S
H2020 C2034 0.929 . S
H2021 C2035 0.931 . S
H2022 C2037 0.930 . S
C2023 H2011 0.930 . S
C2023 C2024 1.399 . S
C2023 C2028 1.399 . S
C2024 C2023 1.399 . S
C2024 C2025 1.376 . S
C2025 H2012 0.930 . S
C2025 C2024 1.376 . S
C2025 C2026 1.388 . S
C2026 H2013 0.930 . S
C2026 C2025 1.388 . S
C2026 C2027 1.390 . S
C2027 C2026 1.390 . S
C2027 C2028 1.394 . S
C2027 C2033 1.465 . S
C2028 C2023 1.399 . S
C2028 C2027 1.394 . S
C2028 C2029 1.516 . S
C2029 C2028 1.516 . S
C2029 C2030 1.502 . S
C2029 C2031 1.561 . S
C2029 C2032 1.526 . S
C2030 H2014 0.959 . S
C2030 H2015 0.959 . S
C2030 H2016 0.961 . S
C2030 C2029 1.502 . S
C2031 H2017 0.960 . S
C2031 H2018 0.961 . S
C2031 H2019 0.959 . S
C2031 C2029 1.561 . S
C2032 C2029 1.526 . S
C2032 C2033 1.396 . S
C2032 C2037 1.390 1_554 S
C2033 C2027 1.465 . S
C2033 C2032 1.396 . S
C2033 C2034 1.399 1_554 S
C2034 H2020 0.929 . S
C2034 C2033 1.399 1_556 S
C2034 C2035 1.385 . S
C2035 H2021 0.931 . S
C2035 C2034 1.385 . S
C2035 C2036 1.389 . S
C2036 C2035 1.389 . S
C2036 C2037 1.387 . S
C2037 H2022 0.930 . S
C2037 C2032 1.390 1_556 S
C2037 C2036 1.387 . S
H2038 C2050 0.930 . S
H2039 C2052 0.930 . S
H2040 C2053 0.930 . S
H2041 C2057 0.959 . S
H2042 C2057 0.959 . S
H2043 C2057 0.961 . S
H2044 C2058 0.960 . S
H2045 C2058 0.961 . S
H2046 C2058 0.959 . S
H2047 C2061 0.929 . S
H2048 C2062 0.931 . S
H2049 C2064 0.930 . S
C2050 H2038 0.930 . S
C2050 C2051 1.399 . S
C2050 C2055 1.399 . S
C2051 C2050 1.399 . S
C2051 C2052 1.376 . S
C2052 H2039 0.930 . S
C2052 C2051 1.376 . S
C2052 C2053 1.388 . S
C2053 H2040 0.930 . S
C2053 C2052 1.388 . S
C2053 C2054 1.390 . S
C2054 C2053 1.390 . S
C2054 C2055 1.394 . S
C2054 C2060 1.465 . S
C2055 C2050 1.399 . S
C2055 C2054 1.394 . S
C2055 C2056 1.516 . S
C2056 C2055 1.516 . S
C2056 C2057 1.502 . S
C2056 C2058 1.561 . S
C2056 C2059 1.526 . S
C2057 H2041 0.959 . S
C2057 H2042 0.959 . S
C2057 H2043 0.961 . S
C2057 C2056 1.502 . S
C2058 H2044 0.960 . S
C2058 H2045 0.961 . S
C2058 H2046 0.959 . S
C2058 C2056 1.561 . S
C2059 C2056 1.526 . S
C2059 C2060 1.396 . S
C2059 C2064 1.390 . S
C2060 C2054 1.465 . S
C2060 C2059 1.396 . S
C2060 C2061 1.399 . S
C2061 H2047 0.929 . S
C2061 C2060 1.399 . S
C2061 C2062 1.385 . S
C2062 H2048 0.931 . S
C2062 C2061 1.385 . S
C2062 C2063 1.389 . S
C2063 C2062 1.389 . S
C2063 C2064 1.387 . S
C2064 H2049 0.930 . S
C2064 C2059 1.390 . S
C2064 C2063 1.387 . S
H2065 C2077 0.930 . S
H2066 C2079 0.930 . S
H2067 C2080 0.930 . S
H2068 C2084 0.959 . S
H2069 C2084 0.959 . S
H2070 C2084 0.961 . S
H2071 C2085 0.960 . S
H2072 C2085 0.961 . S
H2073 C2085 0.959 . S
H2074 C2088 0.929 . S
H2075 C2089 0.931 . S
H2076 C2091 0.930 . S
C2077 H2065 0.930 . S
C2077 C2078 1.399 . S
C2077 C2082 1.399 . S
C2078 C2077 1.399 . S
C2078 C2079 1.376 . S
C2079 H2066 0.930 . S
C2079 C2078 1.376 . S
C2079 C2080 1.388 . S
C2080 H2067 0.930 . S
C2080 C2079 1.388 . S
C2080 C2081 1.390 . S
C2081 C2080 1.390 . S
C2081 C2082 1.394 . S
C2081 C2087 1.465 . S
C2082 C2077 1.399 . S
C2082 C2081 1.394 . S
C2082 C2083 1.516 . S
C2083 C2082 1.516 . S
C2083 C2084 1.502 . S
C2083 C2085 1.561 . S
C2083 C2086 1.526 . S
C2084 H2068 0.959 . S
C2084 H2069 0.959 . S
C2084 H2070 0.961 . S
C2084 C2083 1.502 . S
C2085 H2071 0.960 . S
C2085 H2072 0.961 . S
C2085 H2073 0.959 . S
C2085 C2083 1.561 . S
C2086 C2083 1.526 . S
C2086 C2087 1.396 . S
C2086 C2091 1.390 . S
C2087 C2081 1.465 . S
C2087 C2086 1.396 . S
C2087 C2088 1.399 . S
C2088 H2074 0.929 . S
C2088 C2087 1.399 . S
C2088 C2089 1.385 . S
C2089 H2075 0.931 . S
C2089 C2088 1.385 . S
C2089 C2090 1.389 . S
C2090 C2089 1.389 . S
C2090 C2091 1.387 . S
C2091 H2076 0.930 . S
C2091 C2086 1.390 . S
C2091 C2090 1.387 . S
H2092 C2104 0.930 . S
H2093 C2106 0.930 . S
H2094 C2107 0.930 . S
H2095 C2111 0.959 . S
H2096 C2111 0.959 . S
H2097 C2111 0.961 . S
H2098 C2112 0.960 . S
H2099 C2112 0.961 . S
H2100 C2112 0.959 . S
H2101 C2115 0.929 . S
H2102 C2116 0.931 . S
H2103 C2118 0.930 . S
C2104 H2092 0.930 . S
C2104 C2105 1.399 . S
C2104 C2109 1.399 . S
C2105 C2104 1.399 . S
C2105 C2106 1.376 . S
C2106 H2093 0.930 . S
C2106 C2105 1.376 . S
C2106 C2107 1.388 . S
C2107 H2094 0.930 . S
C2107 C2106 1.388 . S
C2107 C2108 1.390 . S
C2108 C2107 1.390 . S
C2108 C2109 1.394 . S
C2108 C2114 1.465 . S
C2109 C2104 1.399 . S
C2109 C2108 1.394 . S
C2109 C2110 1.516 . S
C2110 C2109 1.516 . S
C2110 C2111 1.502 . S
C2110 C2112 1.561 . S
C2110 C2113 1.526 . S
C2111 H2095 0.959 . S
C2111 H2096 0.959 . S
C2111 H2097 0.961 . S
C2111 C2110 1.502 . S
C2112 H2098 0.960 . S
C2112 H2099 0.961 . S
C2112 H2100 0.959 . S
C2112 C2110 1.561 . S
C2113 C2110 1.526 . S
C2113 C2114 1.396 . S
C2113 C2118 1.390 . S
C2114 C2108 1.465 . S
C2114 C2113 1.396 . S
C2114 C2115 1.399 . S
C2115 H2101 0.929 . S
C2115 C2114 1.399 . S
C2115 C2116 1.385 . S
C2116 H2102 0.931 . S
C2116 C2115 1.385 . S
C2116 C2117 1.389 . S
C2117 C2116 1.389 . S
C2117 C2118 1.387 . S
C2118 H2103 0.930 . S
C2118 C2113 1.390 . S
C2118 C2117 1.387 . S
H2119 C2131 0.930 . S
H2120 C2133 0.930 . S
H2121 C2134 0.930 . S
H2122 C2138 0.959 . S
H2123 C2138 0.959 . S
H2124 C2138 0.961 . S
H2125 C2139 0.960 . S
H2126 C2139 0.961 . S
H2127 C2139 0.959 . S
H2128 C2142 0.929 . S
H2129 C2143 0.931 . S
H2130 C2145 0.930 . S
C2131 H2119 0.930 . S
C2131 C2132 1.399 . S
C2131 C2136 1.399 . S
C2132 C2131 1.399 . S
C2132 C2133 1.376 . S
C2133 H2120 0.930 . S
C2133 C2132 1.376 . S
C2133 C2134 1.388 . S
C2134 H2121 0.930 . S
C2134 C2133 1.388 . S
C2134 C2135 1.390 . S
C2135 C2134 1.390 . S
C2135 C2136 1.394 . S
C2135 C2141 1.465 1_556 S
C2136 C2131 1.399 . S
C2136 C2135 1.394 . S
C2136 C2137 1.516 . S
C2137 C2136 1.516 . S
C2137 C2138 1.502 . S
C2137 C2139 1.561 . S
C2137 C2140 1.526 1_556 S
C2138 H2122 0.959 . S
C2138 H2123 0.959 . S
C2138 H2124 0.961 . S
C2138 C2137 1.502 . S
C2139 H2125 0.960 . S
C2139 H2126 0.961 . S
C2139 H2127 0.959 . S
C2139 C2137 1.561 . S
C2140 C2137 1.526 1_554 S
C2140 C2141 1.396 . S
C2140 C2145 1.390 . S
C2141 C2135 1.465 1_554 S
C2141 C2140 1.396 . S
C2141 C2142 1.399 . S
C2142 H2128 0.929 . S
C2142 C2141 1.399 . S
C2142 C2143 1.385 . S
C2143 H2129 0.931 . S
C2143 C2142 1.385 . S
C2143 C2144 1.389 . S
C2144 C2143 1.389 . S
C2144 C2145 1.387 . S
C2145 H2130 0.930 . S
C2145 C2140 1.390 . S
C2145 C2144 1.387 . S
H2146 C2158 0.930 . S
H2147 C2160 0.930 . S
H2148 C2161 0.930 . S
H2149 C2165 0.959 . S
H2150 C2165 0.959 . S
H2151 C2165 0.961 . S
H2152 C2166 0.960 . S
H2153 C2166 0.961 . S
H2154 C2166 0.959 . S
H2155 C2169 0.929 . S
H2156 C2170 0.931 . S
H2157 C2172 0.930 . S
C2158 H2146 0.930 . S
C2158 C2159 1.399 . S
C2158 C2163 1.399 . S
C2159 C2158 1.399 . S
C2159 C2160 1.376 . S
C2160 H2147 0.930 . S
C2160 C2159 1.376 . S
C2160 C2161 1.388 . S
C2161 H2148 0.930 . S
C2161 C2160 1.388 . S
C2161 C2162 1.390 . S
C2162 C2161 1.390 . S
C2162 C2163 1.394 . S
C2162 C2168 1.465 . S
C2163 C2158 1.399 . S
C2163 C2162 1.394 . S
C2163 C2164 1.516 . S
C2164 C2163 1.516 . S
C2164 C2165 1.502 . S
C2164 C2166 1.561 . S
C2164 C2167 1.526 . S
C2165 H2149 0.959 . S
C2165 H2150 0.959 . S
C2165 H2151 0.961 . S
C2165 C2164 1.502 . S
C2166 H2152 0.960 . S
C2166 H2153 0.961 . S
C2166 H2154 0.959 . S
C2166 C2164 1.561 . S
C2167 C2164 1.526 . S
C2167 C2168 1.396 . S
C2167 C2172 1.390 . S
C2168 C2162 1.465 . S
C2168 C2167 1.396 . S
C2168 C2169 1.399 . S
C2169 H2155 0.929 . S
C2169 C2168 1.399 . S
C2169 C2170 1.385 . S
C2170 H2156 0.931 . S
C2170 C2169 1.385 . S
C2170 C2171 1.389 . S
C2171 C2170 1.389 . S
C2171 C2172 1.387 . S
C2172 H2157 0.930 . S
C2172 C2167 1.390 . S
C2172 C2171 1.387 . S
H2173 C2185 0.930 . S
H2174 C2187 0.930 . S
H2175 C2188 0.930 . S
H2176 C2192 0.959 . S
H2177 C2192 0.959 . S
H2178 C2192 0.961 . S
H2179 C2193 0.960 . S
H2180 C2193 0.961 . S
H2181 C2193 0.959 . S
H2182 C2196 0.929 . S
H2183 C2197 0.931 . S
H2184 C2199 0.930 . S
C2185 H2173 0.930 . S
C2185 C2186 1.399 . S
C2185 C2190 1.399 . S
C2186 C2185 1.399 . S
C2186 C2187 1.376 . S
C2187 H2174 0.930 . S
C2187 C2186 1.376 . S
C2187 C2188 1.388 . S
C2188 H2175 0.930 . S
C2188 C2187 1.388 . S
C2188 C2189 1.390 . S
C2189 C2188 1.390 . S
C2189 C2190 1.394 . S
C2189 C2195 1.465 . S
C2190 C2185 1.399 . S
C2190 C2189 1.394 . S
C2190 C2191 1.516 . S
C2191 C2190 1.516 . S
C2191 C2192 1.502 . S
C2191 C2193 1.561 . S
C2191 C2194 1.526 . S
C2192 H2176 0.959 . S
C2192 H2177 0.959 . S
C2192 H2178 0.961 . S
C2192 C2191 1.502 . S
C2193 H2179 0.960 . S
C2193 H2180 0.961 . S
C2193 H2181 0.959 . S
C2193 C2191 1.561 . S
C2194 C2191 1.526 . S
C2194 C2195 1.396 . S
C2194 C2199 1.390 . S
C2195 C2189 1.465 . S
C2195 C2194 1.396 . S
C2195 C2196 1.399 . S
C2196 H2182 0.929 . S
C2196 C2195 1.399 . S
C2196 C2197 1.385 . S
C2197 H2183 0.931 . S
C2197 C2196 1.385 . S
C2197 C2198 1.389 . S
C2198 C2197 1.389 . S
C2198 C2199 1.387 . S
C2199 H2184 0.930 . S
C2199 C2194 1.390 . S
C2199 C2198 1.387 . S
H2200 C2212 0.930 . S
H2201 C2214 0.930 . S
H2202 C2215 0.930 . S
H2203 C2219 0.959 . S
H2204 C2219 0.959 . S
H2205 C2219 0.961 . S
H2206 C2220 0.960 . S
H2207 C2220 0.961 . S
H2208 C2220 0.959 . S
H2209 C2223 0.929 . S
H2210 C2224 0.931 . S
H2211 C2226 0.930 . S
C2212 H2200 0.930 . S
C2212 C2213 1.399 . S
C2212 C2217 1.399 . S
C2213 C2212 1.399 . S
C2213 C2214 1.376 . S
C2214 H2201 0.930 . S
C2214 C2213 1.376 . S
C2214 C2215 1.388 . S
C2215 H2202 0.930 . S
C2215 C2214 1.388 . S
C2215 C2216 1.390 . S
C2216 C2215 1.390 . S
C2216 C2217 1.394 . S
C2216 C2222 1.465 . S
C2217 C2212 1.399 . S
C2217 C2216 1.394 . S
C2217 C2218 1.516 . S
C2218 C2217 1.516 . S
C2218 C2219 1.502 . S
C2218 C2220 1.561 . S
C2218 C2221 1.526 . S
C2219 H2203 0.959 . S
C2219 H2204 0.959 . S
C2219 H2205 0.961 . S
C2219 C2218 1.502 . S
C2220 H2206 0.960 . S
C2220 H2207 0.961 . S
C2220 H2208 0.959 . S
C2220 C2218 1.561 . S
C2221 C2218 1.526 . S
C2221 C2222 1.396 . S
C2221 C2226 1.390 . S
C2222 C2216 1.465 . S
C2222 C2221 1.396 . S
C2222 C2223 1.399 . S
C2223 H2209 0.929 . S
C2223 C2222 1.399 . S
C2223 C2224 1.385 . S
C2224 H2210 0.931 . S
C2224 C2223 1.385 . S
C2224 C2225 1.389 . S
C2225 C2224 1.389 . S
C2225 C2226 1.387 . S
C2226 H2211 0.930 . S
C2226 C2221 1.390 . S
C2226 C2225 1.387 . S
H2227 C2239 0.930 . S
H2228 C2241 0.930 . S
H2229 C2242 0.930 . S
H2230 C2246 0.959 . S
H2231 C2246 0.959 . S
H2232 C2246 0.961 1_554 S
H2233 C2247 0.960 . S
H2234 C2247 0.961 . S
H2235 C2247 0.959 . S
H2236 C2250 0.929 . S
H2237 C2251 0.931 . S
H2238 C2253 0.930 . S
C2239 H2227 0.930 . S
C2239 C2240 1.399 . S
C2239 C2244 1.399 . S
C2240 C2239 1.399 . S
C2240 C2241 1.376 . S
C2241 H2228 0.930 . S
C2241 C2240 1.376 . S
C2241 C2242 1.388 . S
C2242 H2229 0.930 . S
C2242 C2241 1.388 . S
C2242 C2243 1.390 . S
C2243 C2242 1.390 . S
C2243 C2244 1.394 . S
C2243 C2249 1.465 . S
C2244 C2239 1.399 . S
C2244 C2243 1.394 . S
C2244 C2245 1.516 . S
C2245 C2244 1.516 . S
C2245 C2246 1.502 . S
C2245 C2247 1.561 . S
C2245 C2248 1.526 . S
C2246 H2230 0.959 . S
C2246 H2231 0.959 . S
C2246 H2232 0.961 1_556 S
C2246 C2245 1.502 . S
C2247 H2233 0.960 . S
C2247 H2234 0.961 . S
C2247 H2235 0.959 . S
C2247 C2245 1.561 . S
C2248 C2245 1.526 . S
C2248 C2249 1.396 . S
C2248 C2253 1.390 . S
C2249 C2243 1.465 . S
C2249 C2248 1.396 . S
C2249 C2250 1.399 . S
C2250 H2236 0.929 . S
C2250 C2249 1.399 . S
C2250 C2251 1.385 . S
C2251 H2237 0.931 . S
C2251 C2250 1.385 . S
C2251 C2252 1.389 . S
C2252 C2251 1.389 . S
C2252 C2253 1.387 . S
C2253 H2238 0.930 . S
C2253 C2248 1.390 . S
C2253 C2252 1.387 . S
H2254 C2266 0.930 . S
H2255 C2268 0.930 . S
H2256 C2269 0.930 . S
H2257 C2273 0.959 . S
H2258 C2273 0.959 . S
H2259 C2273 0.961 . S
H2260 C2274 0.960 . S
H2261 C2274 0.961 . S
H2262 C2274 0.959 . S
H2263 C2277 0.929 . S
H2264 C2278 0.931 . S
H2265 C2280 0.930 . S
C2266 H2254 0.930 . S
C2266 C2267 1.399 . S
C2266 C2271 1.399 . S
C2267 C2266 1.399 . S
C2267 C2268 1.376 . S
C2268 H2255 0.930 . S
C2268 C2267 1.376 . S
C2268 C2269 1.388 . S
C2269 H2256 0.930 . S
C2269 C2268 1.388 . S
C2269 C2270 1.390 . S
C2270 C2269 1.390 . S
C2270 C2271 1.394 . S
C2270 C2276 1.465 . S
C2271 C2266 1.399 . S
C2271 C2270 1.394 . S
C2271 C2272 1.516 . S
C2272 C2271 1.516 . S
C2272 C2273 1.502 . S
C2272 C2274 1.561 . S
C2272 C2275 1.526 . S
C2273 H2257 0.959 . S
C2273 H2258 0.959 . S
C2273 H2259 0.961 . S
C2273 C2272 1.502 . S
C2274 H2260 0.960 . S
C2274 H2261 0.961 . S
C2274 H2262 0.959 . S
C2274 C2272 1.561 . S
C2275 C2272 1.526 . S
C2275 C2276 1.396 . S
C2275 C2280 1.390 . S
C2276 C2270 1.465 . S
C2276 C2275 1.396 . S
C2276 C2277 1.399 . S
C2277 H2263 0.929 . S
C2277 C2276 1.399 . S
C2277 C2278 1.385 . S
C2278 H2264 0.931 . S
C2278 C2277 1.385 . S
C2278 C2279 1.389 . S
C2279 C2278 1.389 . S
C2279 C2280 1.387 . S
C2280 H2265 0.930 . S
C2280 C2275 1.390 . S
C2280 C2279 1.387 . S
H2281 C2293 0.930 . S
H2282 C2295 0.930 . S
H2283 C2296 0.930 . S
H2284 C2300 0.959 . S
H2285 C2300 0.959 . S
H2286 C2300 0.961 . S
H2287 C2301 0.960 . S
H2288 C2301 0.961 . S
H2289 C2301 0.959 . S
H2290 C2304 0.929 . S
H2291 C2305 0.931 . S
H2292 C2307 0.930 . S
C2293 H2281 0.930 . S
C2293 C2294 1.399 . S
C2293 C2298 1.399 . S
C2294 C2293 1.399 . S
C2294 C2295 1.376 . S
C2295 H2282 0.930 . S
C2295 C2294 1.376 . S
C2295 C2296 1.388 . S
C2296 H2283 0.930 . S
C2296 C2295 1.388 . S
C2296 C2297 1.390 . S
C2297 C2296 1.390 . S
C2297 C2298 1.394 . S
C2297 C2303 1.465 . S
C2298 C2293 1.399 . S
C2298 C2297 1.394 . S
C2298 C2299 1.516 . S
C2299 C2298 1.516 . S
C2299 C2300 1.502 . S
C2299 C2301 1.561 . S
C2299 C2302 1.526 . S
C2300 H2284 0.959 . S
C2300 H2285 0.959 . S
C2300 H2286 0.961 . S
C2300 C2299 1.502 . S
C2301 H2287 0.960 . S
C2301 H2288 0.961 . S
C2301 H2289 0.959 . S
C2301 C2299 1.561 . S
C2302 C2299 1.526 . S
C2302 C2303 1.396 . S
C2302 C2307 1.390 . S
C2303 C2297 1.465 . S
C2303 C2302 1.396 . S
C2303 C2304 1.399 . S
C2304 H2290 0.929 . S
C2304 C2303 1.399 . S
C2304 C2305 1.385 . S
C2305 H2291 0.931 . S
C2305 C2304 1.385 . S
C2305 C2306 1.389 . S
C2306 C2305 1.389 . S
C2306 C2307 1.387 . S
C2307 H2292 0.930 . S
C2307 C2302 1.390 . S
C2307 C2306 1.387 . S
H2308 C2320 0.930 . S
H2309 C2322 0.930 . S
H2310 C2323 0.930 . S
H2311 C2327 0.959 . S
H2312 C2327 0.959 . S
H2313 C2327 0.961 . S
H2314 C2328 0.960 . S
H2315 C2328 0.961 . S
H2316 C2328 0.959 . S
H2317 C2331 0.929 . S
H2318 C2332 0.931 . S
H2319 C2334 0.930 . S
C2320 H2308 0.930 . S
C2320 C2321 1.399 . S
C2320 C2325 1.399 . S
C2321 C2320 1.399 . S
C2321 C2322 1.376 . S
C2322 H2309 0.930 . S
C2322 C2321 1.376 . S
C2322 C2323 1.388 . S
C2323 H2310 0.930 . S
C2323 C2322 1.388 . S
C2323 C2324 1.390 . S
C2324 C2323 1.390 . S
C2324 C2325 1.394 . S
C2324 C2330 1.465 . S
C2325 C2320 1.399 . S
C2325 C2324 1.394 . S
C2325 C2326 1.516 . S
C2326 C2325 1.516 . S
C2326 C2327 1.502 . S
C2326 C2328 1.561 . S
C2326 C2329 1.526 . S
C2327 H2311 0.959 . S
C2327 H2312 0.959 . S
C2327 H2313 0.961 . S
C2327 C2326 1.502 . S
C2328 H2314 0.960 . S
C2328 H2315 0.961 . S
C2328 H2316 0.959 . S
C2328 C2326 1.561 . S
C2329 C2326 1.526 . S
C2329 C2330 1.396 . S
C2329 C2334 1.390 . S
C2330 C2324 1.465 . S
C2330 C2329 1.396 . S
C2330 C2331 1.399 . S
C2331 H2317 0.929 . S
C2331 C2330 1.399 . S
C2331 C2332 1.385 . S
C2332 H2318 0.931 . S
C2332 C2331 1.385 . S
C2332 C2333 1.389 . S
C2333 C2332 1.389 . S
C2333 C2334 1.387 . S
C2334 H2319 0.930 . S
C2334 C2329 1.390 . S
C2334 C2333 1.387 . S
H2335 C2347 0.930 . S
H2336 C2349 0.930 . S
H2337 C2350 0.930 . S
H2338 C2354 0.959 . S
H2339 C2354 0.959 . S
H2340 C2354 0.961 . S
H2341 C2355 0.960 . S
H2342 C2355 0.961 . S
H2343 C2355 0.959 . S
H2344 C2358 0.929 . S
H2345 C2359 0.931 . S
H2346 C2361 0.930 . S
C2347 H2335 0.930 . S
C2347 C2348 1.399 . S
C2347 C2352 1.399 . S
C2348 C2347 1.399 . S
C2348 C2349 1.376 . S
C2349 H2336 0.930 . S
C2349 C2348 1.376 . S
C2349 C2350 1.388 . S
C2350 H2337 0.930 . S
C2350 C2349 1.388 . S
C2350 C2351 1.390 . S
C2351 C2350 1.390 . S
C2351 C2352 1.394 . S
C2351 C2357 1.465 . S
C2352 C2347 1.399 . S
C2352 C2351 1.394 . S
C2352 C2353 1.516 . S
C2353 C2352 1.516 . S
C2353 C2354 1.502 . S
C2353 C2355 1.561 . S
C2353 C2356 1.526 . S
C2354 H2338 0.959 . S
C2354 H2339 0.959 . S
C2354 H2340 0.961 . S
C2354 C2353 1.502 . S
C2355 H2341 0.960 . S
C2355 H2342 0.961 . S
C2355 H2343 0.959 . S
C2355 C2353 1.561 . S
C2356 C2353 1.526 . S
C2356 C2357 1.396 . S
C2356 C2361 1.390 . S
C2357 C2351 1.465 . S
C2357 C2356 1.396 . S
C2357 C2358 1.399 . S
C2358 H2344 0.929 . S
C2358 C2357 1.399 . S
C2358 C2359 1.385 . S
C2359 H2345 0.931 . S
C2359 C2358 1.385 . S
C2359 C2360 1.389 . S
C2360 C2359 1.389 . S
C2360 C2361 1.387 . S
C2361 H2346 0.930 . S
C2361 C2356 1.390 . S
C2361 C2360 1.387 . S
H2362 C2374 0.930 . S
H2363 C2376 0.930 . S
H2364 C2377 0.930 . S
H2365 C2381 0.959 . S
H2366 C2381 0.959 . S
H2367 C2381 0.961 . S
H2368 C2382 0.960 . S
H2369 C2382 0.961 . S
H2370 C2382 0.959 . S
H2371 C2385 0.929 . S
H2372 C2386 0.931 . S
H2373 C2388 0.930 . S
C2374 H2362 0.930 . S
C2374 C2375 1.399 . S
C2374 C2379 1.399 . S
C2375 C2374 1.399 . S
C2375 C2376 1.376 . S
C2376 H2363 0.930 . S
C2376 C2375 1.376 . S
C2376 C2377 1.388 . S
C2377 H2364 0.930 . S
C2377 C2376 1.388 . S
C2377 C2378 1.390 . S
C2378 C2377 1.390 . S
C2378 C2379 1.394 . S
C2378 C2384 1.465 . S
C2379 C2374 1.399 . S
C2379 C2378 1.394 . S
C2379 C2380 1.516 . S
C2380 C2379 1.516 . S
C2380 C2381 1.502 . S
C2380 C2382 1.561 . S
C2380 C2383 1.526 . S
C2381 H2365 0.959 . S
C2381 H2366 0.959 . S
C2381 H2367 0.961 . S
C2381 C2380 1.502 . S
C2382 H2368 0.960 . S
C2382 H2369 0.961 . S
C2382 H2370 0.959 . S
C2382 C2380 1.561 . S
C2383 C2380 1.526 . S
C2383 C2384 1.396 . S
C2383 C2388 1.390 . S
C2384 C2378 1.465 . S
C2384 C2383 1.396 . S
C2384 C2385 1.399 . S
C2385 H2371 0.929 . S
C2385 C2384 1.399 . S
C2385 C2386 1.385 . S
C2386 H2372 0.931 . S
C2386 C2385 1.385 . S
C2386 C2387 1.389 . S
C2387 C2386 1.389 . S
C2387 C2388 1.387 . S
C2388 H2373 0.930 . S
C2388 C2383 1.390 . S
C2388 C2387 1.387 . S
H2389 C2401 0.930 . S
H2390 C2403 0.930 . S
H2391 C2404 0.930 . S
H2392 C2408 0.959 . S
H2393 C2408 0.959 . S
H2394 C2408 0.961 . S
H2395 C2409 0.960 . S
H2396 C2409 0.961 . S
H2397 C2409 0.959 . S
H2398 C2412 0.929 . S
H2399 C2413 0.931 . S
H2400 C2415 0.930 . S
C2401 H2389 0.930 . S
C2401 C2402 1.399 . S
C2401 C2406 1.399 . S
C2402 C2401 1.399 . S
C2402 C2403 1.376 . S
C2403 H2390 0.930 . S
C2403 C2402 1.376 . S
C2403 C2404 1.388 . S
C2404 H2391 0.930 . S
C2404 C2403 1.388 . S
C2404 C2405 1.390 . S
C2405 C2404 1.390 . S
C2405 C2406 1.394 . S
C2405 C2411 1.465 . S
C2406 C2401 1.399 . S
C2406 C2405 1.394 . S
C2406 C2407 1.516 . S
C2407 C2406 1.516 . S
C2407 C2408 1.502 . S
C2407 C2409 1.561 . S
C2407 C2410 1.526 . S
C2408 H2392 0.959 . S
C2408 H2393 0.959 . S
C2408 H2394 0.961 . S
C2408 C2407 1.502 . S
C2409 H2395 0.960 . S
C2409 H2396 0.961 . S
C2409 H2397 0.959 . S
C2409 C2407 1.561 . S
C2410 C2407 1.526 . S
C2410 C2411 1.396 . S
C2410 C2415 1.390 . S
C2411 C2405 1.465 . S
C2411 C2410 1.396 . S
C2411 C2412 1.399 . S
C2412 H2398 0.929 . S
C2412 C2411 1.399 . S
C2412 C2413 1.385 . S
C2413 H2399 0.931 . S
C2413 C2412 1.385 . S
C2413 C2414 1.389 . S
C2414 C2413 1.389 . S
C2414 C2415 1.387 . S
C2415 H2400 0.930 . S
C2415 C2410 1.390 . S
C2415 C2414 1.387 . S
H2416 C2428 0.930 . S
H2417 C2430 0.930 . S
H2418 C2431 0.930 . S
H2419 C2435 0.959 . S
H2420 C2435 0.959 . S
H2421 C2435 0.961 . S
H2422 C2436 0.960 . S
H2423 C2436 0.961 . S
H2424 C2436 0.959 . S
H2425 C2439 0.929 . S
H2426 C2440 0.931 . S
H2427 C2442 0.930 . S
C2428 H2416 0.930 . S
C2428 C2429 1.399 . S
C2428 C2433 1.399 . S
C2429 C2428 1.399 . S
C2429 C2430 1.376 . S
C2430 H2417 0.930 . S
C2430 C2429 1.376 . S
C2430 C2431 1.388 . S
C2431 H2418 0.930 . S
C2431 C2430 1.388 . S
C2431 C2432 1.390 . S
C2432 C2431 1.390 . S
C2432 C2433 1.394 . S
C2432 C2438 1.465 . S
C2433 C2428 1.399 . S
C2433 C2432 1.394 . S
C2433 C2434 1.516 . S
C2434 C2433 1.516 . S
C2434 C2435 1.502 . S
C2434 C2436 1.561 . S
C2434 C2437 1.526 . S
C2435 H2419 0.959 . S
C2435 H2420 0.959 . S
C2435 H2421 0.961 . S
C2435 C2434 1.502 . S
C2436 H2422 0.960 . S
C2436 H2423 0.961 . S
C2436 H2424 0.959 . S
C2436 C2434 1.561 . S
C2437 C2434 1.526 . S
C2437 C2438 1.396 . S
C2437 C2442 1.390 . S
C2438 C2432 1.465 . S
C2438 C2437 1.396 . S
C2438 C2439 1.399 . S
C2439 H2425 0.929 . S
C2439 C2438 1.399 . S
C2439 C2440 1.385 . S
C2440 H2426 0.931 . S
C2440 C2439 1.385 . S
C2440 C2441 1.389 . S
C2441 C2440 1.389 . S
C2441 C2442 1.387 . S
C2442 H2427 0.930 . S
C2442 C2437 1.390 . S
C2442 C2441 1.387 . S
H2443 C2455 0.930 . S
H2444 C2457 0.930 . S
H2445 C2458 0.930 . S
H2446 C2462 0.959 . S
H2447 C2462 0.959 . S
H2448 C2462 0.961 . S
H2449 C2463 0.960 . S
H2450 C2463 0.961 . S
H2451 C2463 0.959 . S
H2452 C2466 0.929 . S
H2453 C2467 0.931 . S
H2454 C2469 0.930 . S
C2455 H2443 0.930 . S
C2455 C2456 1.399 . S
C2455 C2460 1.399 . S
C2456 C2455 1.399 . S
C2456 C2457 1.376 . S
C2457 H2444 0.930 . S
C2457 C2456 1.376 . S
C2457 C2458 1.388 . S
C2458 H2445 0.930 . S
C2458 C2457 1.388 . S
C2458 C2459 1.390 . S
C2459 C2458 1.390 . S
C2459 C2460 1.394 . S
C2459 C2465 1.465 . S
C2460 C2455 1.399 . S
C2460 C2459 1.394 . S
C2460 C2461 1.516 . S
C2461 C2460 1.516 . S
C2461 C2462 1.502 . S
C2461 C2463 1.561 . S
C2461 C2464 1.526 . S
C2462 H2446 0.959 . S
C2462 H2447 0.959 . S
C2462 H2448 0.961 . S
C2462 C2461 1.502 . S
C2463 H2449 0.960 . S
C2463 H2450 0.961 . S
C2463 H2451 0.959 . S
C2463 C2461 1.561 . S
C2464 C2461 1.526 . S
C2464 C2465 1.396 . S
C2464 C2469 1.390 . S
C2465 C2459 1.465 . S
C2465 C2464 1.396 . S
C2465 C2466 1.399 . S
C2466 H2452 0.929 . S
C2466 C2465 1.399 . S
C2466 C2467 1.385 . S
C2467 H2453 0.931 . S
C2467 C2466 1.385 . S
C2467 C2468 1.389 . S
C2468 C2467 1.389 . S
C2468 C2469 1.387 . S
C2469 H2454 0.930 . S
C2469 C2464 1.390 . S
C2469 C2468 1.387 . S
H2470 C2482 0.930 . S
H2471 C2484 0.930 . S
H2472 C2485 0.930 . S
H2473 C2489 0.959 . S
H2474 C2489 0.959 . S
H2475 C2489 0.961 . S
H2476 C2490 0.960 . S
H2477 C2490 0.961 . S
H2478 C2490 0.959 . S
H2479 C2493 0.929 . S
H2480 C2494 0.931 . S
H2481 C2496 0.930 . S
C2482 H2470 0.930 . S
C2482 C2483 1.399 . S
C2482 C2487 1.399 . S
C2483 C2482 1.399 . S
C2483 C2484 1.376 . S
C2484 H2471 0.930 . S
C2484 C2483 1.376 . S
C2484 C2485 1.388 . S
C2485 H2472 0.930 . S
C2485 C2484 1.388 . S
C2485 C2486 1.390 . S
C2486 C2485 1.390 . S
C2486 C2487 1.394 . S
C2486 C2492 1.465 . S
C2487 C2482 1.399 . S
C2487 C2486 1.394 . S
C2487 C2488 1.516 . S
C2488 C2487 1.516 . S
C2488 C2489 1.502 . S
C2488 C2490 1.561 . S
C2488 C2491 1.526 . S
C2489 H2473 0.959 . S
C2489 H2474 0.959 . S
C2489 H2475 0.961 . S
C2489 C2488 1.502 . S
C2490 H2476 0.960 . S
C2490 H2477 0.961 . S
C2490 H2478 0.959 . S
C2490 C2488 1.561 . S
C2491 C2488 1.526 . S
C2491 C2492 1.396 . S
C2491 C2496 1.390 . S
C2492 C2486 1.465 . S
C2492 C2491 1.396 . S
C2492 C2493 1.399 . S
C2493 H2479 0.929 . S
C2493 C2492 1.399 . S
C2493 C2494 1.385 . S
C2494 H2480 0.931 . S
C2494 C2493 1.385 . S
C2494 C2495 1.389 . S
C2495 C2494 1.389 . S
C2495 C2496 1.387 . S
C2496 H2481 0.930 . S
C2496 C2491 1.390 . S
C2496 C2495 1.387 . S
H2497 C2509 0.930 . S
H2498 C2511 0.930 . S
H2499 C2512 0.930 . S
H2500 C2516 0.959 . S
H2501 C2516 0.959 . S
H2502 C2516 0.961 . S
H2503 C2517 0.960 . S
H2504 C2517 0.961 . S
H2505 C2517 0.959 . S
H2506 C2520 0.929 . S
H2507 C2521 0.931 . S
H2508 C2523 0.930 . S
C2509 H2497 0.930 . S
C2509 C2510 1.399 . S
C2509 C2514 1.399 . S
C2510 C2509 1.399 . S
C2510 C2511 1.376 . S
C2511 H2498 0.930 . S
C2511 C2510 1.376 . S
C2511 C2512 1.388 . S
C2512 H2499 0.930 . S
C2512 C2511 1.388 . S
C2512 C2513 1.390 . S
C2513 C2512 1.390 . S
C2513 C2514 1.394 . S
C2513 C2519 1.465 . S
C2514 C2509 1.399 . S
C2514 C2513 1.394 . S
C2514 C2515 1.516 . S
C2515 C2514 1.516 . S
C2515 C2516 1.502 . S
C2515 C2517 1.561 . S
C2515 C2518 1.526 . S
C2516 H2500 0.959 . S
C2516 H2501 0.959 . S
C2516 H2502 0.961 . S
C2516 C2515 1.502 . S
C2517 H2503 0.960 . S
C2517 H2504 0.961 . S
C2517 H2505 0.959 . S
C2517 C2515 1.561 . S
C2518 C2515 1.526 . S
C2518 C2519 1.396 . S
C2518 C2523 1.390 . S
C2519 C2513 1.465 . S
C2519 C2518 1.396 . S
C2519 C2520 1.399 . S
C2520 H2506 0.929 . S
C2520 C2519 1.399 . S
C2520 C2521 1.385 . S
C2521 H2507 0.931 . S
C2521 C2520 1.385 . S
C2521 C2522 1.389 . S
C2522 C2521 1.389 . S
C2522 C2523 1.387 . S
C2523 H2508 0.930 . S
C2523 C2518 1.390 . S
C2523 C2522 1.387 . S
H2524 C2536 0.930 . S
H2525 C2538 0.930 . S
H2526 C2539 0.930 . S
H2527 C2543 0.959 . S
H2528 C2543 0.959 . S
H2529 C2543 0.961 . S
H2530 C2544 0.960 . S
H2531 C2544 0.961 . S
H2532 C2544 0.959 . S
H2533 C2547 0.929 . S
H2534 C2548 0.931 . S
H2535 C2550 0.930 . S
C2536 H2524 0.930 . S
C2536 C2537 1.399 . S
C2536 C2541 1.399 . S
C2537 C2536 1.399 . S
C2537 C2538 1.376 . S
C2538 H2525 0.930 . S
C2538 C2537 1.376 . S
C2538 C2539 1.388 . S
C2539 H2526 0.930 . S
C2539 C2538 1.388 . S
C2539 C2540 1.390 . S
C2540 C2539 1.390 . S
C2540 C2541 1.394 . S
C2540 C2546 1.465 . S
C2541 C2536 1.399 . S
C2541 C2540 1.394 . S
C2541 C2542 1.516 . S
C2542 C2541 1.516 . S
C2542 C2543 1.502 . S
C2542 C2544 1.561 . S
C2542 C2545 1.526 . S
C2543 H2527 0.959 . S
C2543 H2528 0.959 . S
C2543 H2529 0.961 . S
C2543 C2542 1.502 . S
C2544 H2530 0.960 . S
C2544 H2531 0.961 . S
C2544 H2532 0.959 . S
C2544 C2542 1.561 . S
C2545 C2542 1.526 . S
C2545 C2546 1.396 . S
C2545 C2550 1.390 . S
C2546 C2540 1.465 . S
C2546 C2545 1.396 . S
C2546 C2547 1.399 . S
C2547 H2533 0.929 . S
C2547 C2546 1.399 . S
C2547 C2548 1.385 . S
C2548 H2534 0.931 . S
C2548 C2547 1.385 . S
C2548 C2549 1.389 . S
C2549 C2548 1.389 . S
C2549 C2550 1.387 . S
C2550 H2535 0.930 . S
C2550 C2545 1.390 . S
C2550 C2549 1.387 . S
H2551 C2563 0.930 . S
H2552 C2565 0.930 . S
H2553 C2566 0.930 . S
H2554 C2570 0.959 . S
H2555 C2570 0.959 . S
H2556 C2570 0.961 . S
H2557 C2571 0.960 . S
H2558 C2571 0.961 . S
H2559 C2571 0.959 . S
H2560 C2574 0.929 . S
H2561 C2575 0.931 . S
H2562 C2577 0.930 . S
C2563 H2551 0.930 . S
C2563 C2564 1.399 . S
C2563 C2568 1.399 . S
C2564 C2563 1.399 . S
C2564 C2565 1.376 . S
C2565 H2552 0.930 . S
C2565 C2564 1.376 . S
C2565 C2566 1.388 . S
C2566 H2553 0.930 . S
C2566 C2565 1.388 . S
C2566 C2567 1.390 . S
C2567 C2566 1.390 . S
C2567 C2568 1.394 . S
C2567 C2573 1.465 . S
C2568 C2563 1.399 . S
C2568 C2567 1.394 . S
C2568 C2569 1.516 . S
C2569 C2568 1.516 . S
C2569 C2570 1.502 . S
C2569 C2571 1.561 . S
C2569 C2572 1.526 . S
C2570 H2554 0.959 . S
C2570 H2555 0.959 . S
C2570 H2556 0.961 . S
C2570 C2569 1.502 . S
C2571 H2557 0.960 . S
C2571 H2558 0.961 . S
C2571 H2559 0.959 . S
C2571 C2569 1.561 . S
C2572 C2569 1.526 . S
C2572 C2573 1.396 . S
C2572 C2577 1.390 . S
C2573 C2567 1.465 . S
C2573 C2572 1.396 . S
C2573 C2574 1.399 . S
C2574 H2560 0.929 . S
C2574 C2573 1.399 . S
C2574 C2575 1.385 . S
C2575 H2561 0.931 . S
C2575 C2574 1.385 . S
C2575 C2576 1.389 . S
C2576 C2575 1.389 . S
C2576 C2577 1.387 . S
C2577 H2562 0.930 . S
C2577 C2572 1.390 . S
C2577 C2576 1.387 . S
H2578 C2590 0.930 . S
H2579 C2592 0.930 . S
H2580 C2593 0.930 . S
H2581 C2597 0.959 . S
H2582 C2597 0.959 . S
H2583 C2597 0.961 . S
H2584 C2598 0.960 . S
H2585 C2598 0.961 . S
H2586 C2598 0.959 . S
H2587 C2601 0.929 . S
H2588 C2602 0.931 . S
H2589 C2604 0.930 . S
C2590 H2578 0.930 . S
C2590 C2591 1.399 . S
C2590 C2595 1.399 . S
C2591 C2590 1.399 . S
C2591 C2592 1.376 . S
C2592 H2579 0.930 . S
C2592 C2591 1.376 . S
C2592 C2593 1.388 . S
C2593 H2580 0.930 . S
C2593 C2592 1.388 . S
C2593 C2594 1.390 . S
C2594 C2593 1.390 . S
C2594 C2595 1.394 . S
C2594 C2600 1.465 . S
C2595 C2590 1.399 . S
C2595 C2594 1.394 . S
C2595 C2596 1.516 . S
C2596 C2595 1.516 . S
C2596 C2597 1.502 . S
C2596 C2598 1.561 . S
C2596 C2599 1.526 . S
C2597 H2581 0.959 . S
C2597 H2582 0.959 . S
C2597 H2583 0.961 . S
C2597 C2596 1.502 . S
C2598 H2584 0.960 . S
C2598 H2585 0.961 . S
C2598 H2586 0.959 . S
C2598 C2596 1.561 . S
C2599 C2596 1.526 . S
C2599 C2600 1.396 . S
C2599 C2604 1.390 . S
C2600 C2594 1.465 . S
C2600 C2599 1.396 . S
C2600 C2601 1.399 . S
C2601 H2587 0.929 . S
C2601 C2600 1.399 . S
C2601 C2602 1.385 . S
C2602 H2588 0.931 . S
C2602 C2601 1.385 . S
C2602 C2603 1.389 . S
C2603 C2602 1.389 . S
C2603 C2604 1.387 . S
C2604 H2589 0.930 . S
C2604 C2599 1.390 . S
C2604 C2603 1.387 . S
H2605 C2617 0.930 . S
H2606 C2619 0.930 . S
H2607 C2620 0.930 . S
H2608 C2624 0.959 . S
H2609 C2624 0.959 . S
H2610 C2624 0.961 1_645 S
H2611 C2625 0.960 . S
H2612 C2625 0.961 . S
H2613 C2625 0.959 . S
H2614 C2628 0.929 . S
H2615 C2629 0.931 . S
H2616 C2631 0.930 . S
C2617 H2605 0.930 . S
C2617 C2618 1.399 . S
C2617 C2622 1.399 . S
C2618 C2617 1.399 . S
C2618 C2619 1.376 . S
C2619 H2606 0.930 . S
C2619 C2618 1.376 . S
C2619 C2620 1.388 . S
C2620 H2607 0.930 . S
C2620 C2619 1.388 . S
C2620 C2621 1.390 . S
C2621 C2620 1.390 . S
C2621 C2622 1.394 . S
C2621 C2627 1.465 . S
C2622 C2617 1.399 . S
C2622 C2621 1.394 . S
C2622 C2623 1.516 . S
C2623 C2622 1.516 . S
C2623 C2624 1.502 1_655 S
C2623 C2625 1.561 . S
C2623 C2626 1.526 1_655 S
C2624 H2608 0.959 . S
C2624 H2609 0.959 . S
C2624 H2610 0.961 1_465 S
C2624 C2623 1.502 1_455 S
C2625 H2611 0.960 . S
C2625 H2612 0.961 . S
C2625 H2613 0.959 . S
C2625 C2623 1.561 . S
C2626 C2623 1.526 1_455 S
C2626 C2627 1.396 1_455 S
C2626 C2631 1.390 . S
C2627 C2621 1.465 . S
C2627 C2626 1.396 1_655 S
C2627 C2628 1.399 1_655 S
C2628 H2614 0.929 . S
C2628 C2627 1.399 1_455 S
C2628 C2629 1.385 . S
C2629 H2615 0.931 . S
C2629 C2628 1.385 . S
C2629 C2630 1.389 . S
C2630 C2629 1.389 . S
C2630 C2631 1.387 . S
C2631 H2616 0.930 . S
C2631 C2626 1.390 . S
C2631 C2630 1.387 . S
H2632 C2644 0.930 . S
H2633 C2646 0.930 . S
H2634 C2647 0.930 . S
H2635 C2651 0.959 . S
H2636 C2651 0.959 . S
H2637 C2651 0.961 . S
H2638 C2652 0.960 . S
H2639 C2652 0.961 . S
H2640 C2652 0.959 . S
H2641 C2655 0.929 . S
H2642 C2656 0.931 . S
H2643 C2658 0.930 . S
C2644 H2632 0.930 . S
C2644 C2645 1.399 . S
C2644 C2649 1.399 . S
C2645 C2644 1.399 . S
C2645 C2646 1.376 . S
C2646 H2633 0.930 . S
C2646 C2645 1.376 . S
C2646 C2647 1.388 . S
C2647 H2634 0.930 . S
C2647 C2646 1.388 . S
C2647 C2648 1.390 . S
C2648 C2647 1.390 . S
C2648 C2649 1.394 . S
C2648 C2654 1.465 . S
C2649 C2644 1.399 . S
C2649 C2648 1.394 . S
C2649 C2650 1.516 . S
C2650 C2649 1.516 . S
C2650 C2651 1.502 . S
C2650 C2652 1.561 . S
C2650 C2653 1.526 . S
C2651 H2635 0.959 . S
C2651 H2636 0.959 . S
C2651 H2637 0.961 . S
C2651 C2650 1.502 . S
C2652 H2638 0.960 . S
C2652 H2639 0.961 . S
C2652 H2640 0.959 . S
C2652 C2650 1.561 . S
C2653 C2650 1.526 . S
C2653 C2654 1.396 . S
C2653 C2658 1.390 . S
C2654 C2648 1.465 . S
C2654 C2653 1.396 . S
C2654 C2655 1.399 . S
C2655 H2641 0.929 . S
C2655 C2654 1.399 . S
C2655 C2656 1.385 . S
C2656 H2642 0.931 . S
C2656 C2655 1.385 . S
C2656 C2657 1.389 . S
C2657 C2656 1.389 . S
C2657 C2658 1.387 . S
C2658 H2643 0.930 . S
C2658 C2653 1.390 . S
C2658 C2657 1.387 . S
H2659 C2671 0.930 . S
H2660 C2673 0.930 . S
H2661 C2674 0.930 . S
H2662 C2678 0.959 . S
H2663 C2678 0.959 . S
H2664 C2678 0.961 . S
H2665 C2679 0.960 . S
H2666 C2679 0.961 . S
H2667 C2679 0.959 . S
H2668 C2682 0.929 . S
H2669 C2683 0.931 . S
H2670 C2685 0.930 . S
C2671 H2659 0.930 . S
C2671 C2672 1.399 . S
C2671 C2676 1.399 . S
C2672 C2671 1.399 . S
C2672 C2673 1.376 . S
C2673 H2660 0.930 . S
C2673 C2672 1.376 . S
C2673 C2674 1.388 . S
C2674 H2661 0.930 . S
C2674 C2673 1.388 . S
C2674 C2675 1.390 . S
C2675 C2674 1.390 . S
C2675 C2676 1.394 . S
C2675 C2681 1.465 . S
C2676 C2671 1.399 . S
C2676 C2675 1.394 . S
C2676 C2677 1.516 1_556 S
C2677 C2676 1.516 1_554 S
C2677 C2678 1.502 . S
C2677 C2679 1.561 . S
C2677 C2680 1.526 . S
C2678 H2662 0.959 . S
C2678 H2663 0.959 . S
C2678 H2664 0.961 . S
C2678 C2677 1.502 . S
C2679 H2665 0.960 . S
C2679 H2666 0.961 . S
C2679 H2667 0.959 . S
C2679 C2677 1.561 . S
C2680 C2677 1.526 . S
C2680 C2681 1.396 1_554 S
C2680 C2685 1.390 . S
C2681 C2675 1.465 . S
C2681 C2680 1.396 1_556 S
C2681 C2682 1.399 . S
C2682 H2668 0.929 . S
C2682 C2681 1.399 . S
C2682 C2683 1.385 1_556 S
C2683 H2669 0.931 . S
C2683 C2682 1.385 1_554 S
C2683 C2684 1.389 . S
C2684 C2683 1.389 . S
C2684 C2685 1.387 . S
C2685 H2670 0.930 . S
C2685 C2680 1.390 . S
C2685 C2684 1.387 . S
H2686 C2698 0.930 . S
H2687 C2700 0.930 . S
H2688 C2701 0.930 . S
H2689 C2705 0.959 . S
H2690 C2705 0.959 . S
H2691 C2705 0.961 . S
H2692 C2706 0.960 . S
H2693 C2706 0.961 . S
H2694 C2706 0.959 . S
H2695 C2709 0.929 . S
H2696 C2710 0.931 . S
H2697 C2712 0.930 . S
C2698 H2686 0.930 . S
C2698 C2699 1.399 . S
C2698 C2703 1.399 . S
C2699 C2698 1.399 . S
C2699 C2700 1.376 . S
C2700 H2687 0.930 . S
C2700 C2699 1.376 . S
C2700 C2701 1.388 . S
C2701 H2688 0.930 . S
C2701 C2700 1.388 . S
C2701 C2702 1.390 . S
C2702 C2701 1.390 . S
C2702 C2703 1.394 . S
C2702 C2708 1.465 . S
C2703 C2698 1.399 . S
C2703 C2702 1.394 . S
C2703 C2704 1.516 . S
C2704 C2703 1.516 . S
C2704 C2705 1.502 . S
C2704 C2706 1.561 . S
C2704 C2707 1.526 . S
C2705 H2689 0.959 . S
C2705 H2690 0.959 . S
C2705 H2691 0.961 . S
C2705 C2704 1.502 . S
C2706 H2692 0.960 . S
C2706 H2693 0.961 . S
C2706 H2694 0.959 . S
C2706 C2704 1.561 . S
C2707 C2704 1.526 . S
C2707 C2708 1.396 . S
C2707 C2712 1.390 . S
C2708 C2702 1.465 . S
C2708 C2707 1.396 . S
C2708 C2709 1.399 . S
C2709 H2695 0.929 . S
C2709 C2708 1.399 . S
C2709 C2710 1.385 . S
C2710 H2696 0.931 . S
C2710 C2709 1.385 . S
C2710 C2711 1.389 . S
C2711 C2710 1.389 . S
C2711 C2712 1.387 . S
C2712 H2697 0.930 . S
C2712 C2707 1.390 . S
C2712 C2711 1.387 . S
H2713 C2725 0.930 . S
H2714 C2727 0.930 . S
H2715 C2728 0.930 . S
H2716 C2732 0.959 . S
H2717 C2732 0.959 . S
H2718 C2732 0.961 . S
H2719 C2733 0.960 . S
H2720 C2733 0.961 . S
H2721 C2733 0.959 . S
H2722 C2736 0.929 . S
H2723 C2737 0.931 . S
H2724 C2739 0.930 . S
C2725 H2713 0.930 . S
C2725 C2726 1.399 . S
C2725 C2730 1.399 . S
C2726 C2725 1.399 . S
C2726 C2727 1.376 . S
C2727 H2714 0.930 . S
C2727 C2726 1.376 . S
C2727 C2728 1.388 . S
C2728 H2715 0.930 . S
C2728 C2727 1.388 . S
C2728 C2729 1.390 . S
C2729 C2728 1.390 . S
C2729 C2730 1.394 . S
C2729 C2735 1.465 . S
C2730 C2725 1.399 . S
C2730 C2729 1.394 . S
C2730 C2731 1.516 . S
C2731 C2730 1.516 . S
C2731 C2732 1.502 . S
C2731 C2733 1.561 . S
C2731 C2734 1.526 . S
C2732 H2716 0.959 . S
C2732 H2717 0.959 . S
C2732 H2718 0.961 . S
C2732 C2731 1.502 . S
C2733 H2719 0.960 . S
C2733 H2720 0.961 . S
C2733 H2721 0.959 . S
C2733 C2731 1.561 . S
C2734 C2731 1.526 . S
C2734 C2735 1.396 . S
C2734 C2739 1.390 . S
C2735 C2729 1.465 . S
C2735 C2734 1.396 . S
C2735 C2736 1.399 . S
C2736 H2722 0.929 . S
C2736 C2735 1.399 . S
C2736 C2737 1.385 . S
C2737 H2723 0.931 . S
C2737 C2736 1.385 . S
C2737 C2738 1.389 . S
C2738 C2737 1.389 . S
C2738 C2739 1.387 . S
C2739 H2724 0.930 . S
C2739 C2734 1.390 . S
C2739 C2738 1.387 . S
H2740 C2752 0.930 . S
H2741 C2754 0.930 . S
H2742 C2755 0.930 . S
H2743 C2759 0.959 . S
H2744 C2759 0.959 . S
H2745 C2759 0.961 . S
H2746 C2760 0.960 . S
H2747 C2760 0.961 . S
H2748 C2760 0.959 . S
H2749 C2763 0.929 . S
H2750 C2764 0.931 . S
H2751 C2766 0.930 . S
C2752 H2740 0.930 . S
C2752 C2753 1.399 . S
C2752 C2757 1.399 . S
C2753 C2752 1.399 . S
C2753 C2754 1.376 . S
C2754 H2741 0.930 . S
C2754 C2753 1.376 . S
C2754 C2755 1.388 . S
C2755 H2742 0.930 . S
C2755 C2754 1.388 . S
C2755 C2756 1.390 . S
C2756 C2755 1.390 . S
C2756 C2757 1.394 . S
C2756 C2762 1.465 . S
C2757 C2752 1.399 . S
C2757 C2756 1.394 . S
C2757 C2758 1.516 . S
C2758 C2757 1.516 . S
C2758 C2759 1.502 . S
C2758 C2760 1.561 . S
C2758 C2761 1.526 . S
C2759 H2743 0.959 . S
C2759 H2744 0.959 . S
C2759 H2745 0.961 . S
C2759 C2758 1.502 . S
C2760 H2746 0.960 . S
C2760 H2747 0.961 . S
C2760 H2748 0.959 . S
C2760 C2758 1.561 . S
C2761 C2758 1.526 . S
C2761 C2762 1.396 . S
C2761 C2766 1.390 . S
C2762 C2756 1.465 . S
C2762 C2761 1.396 . S
C2762 C2763 1.399 . S
C2763 H2749 0.929 . S
C2763 C2762 1.399 . S
C2763 C2764 1.385 . S
C2764 H2750 0.931 . S
C2764 C2763 1.385 . S
C2764 C2765 1.389 . S
C2765 C2764 1.389 . S
C2765 C2766 1.387 . S
C2766 H2751 0.930 . S
C2766 C2761 1.390 . S
C2766 C2765 1.387 . S
H2767 C2779 0.930 . S
H2768 C2781 0.930 1_655 S
H2769 C2782 0.930 . S
H2770 C2786 0.959 . S
H2771 C2786 0.959 . S
H2772 C2786 0.961 . S
H2773 C2787 0.960 . S
H2774 C2787 0.961 . S
H2775 C2787 0.959 . S
H2776 C2790 0.929 . S
H2777 C2791 0.931 . S
H2778 C2793 0.930 . S
C2779 H2767 0.930 . S
C2779 C2780 1.399 . S
C2779 C2784 1.399 . S
C2780 C2779 1.399 . S
C2780 C2781 1.376 . S
C2781 H2768 0.930 1_455 S
C2781 C2780 1.376 . S
C2781 C2782 1.388 . S
C2782 H2769 0.930 . S
C2782 C2781 1.388 . S
C2782 C2783 1.390 . S
C2783 C2782 1.390 . S
C2783 C2784 1.394 . S
C2783 C2789 1.453 1_554 S
C2784 C2779 1.399 . S
C2784 C2783 1.394 . S
C2784 C2785 1.516 . S
C2785 C2784 1.516 . S
C2785 C2786 1.502 . S
C2785 C2787 1.561 . S
C2785 C2788 1.526 . S
C2786 H2770 0.959 . S
C2786 H2771 0.959 . S
C2786 H2772 0.961 . S
C2786 C2785 1.502 . S
C2787 H2773 0.960 . S
C2787 H2774 0.961 . S
C2787 H2775 0.959 . S
C2787 C2785 1.561 . S
C2788 C2785 1.526 . S
C2788 C2789 1.393 1_554 S
C2788 C2793 1.390 1_554 S
C2789 C2783 1.453 1_556 S
C2789 C2788 1.393 1_556 S
C2789 C2790 1.412 . S
C2790 H2776 0.929 . S
C2790 C2789 1.412 . S
C2790 C2791 1.385 . S
C2791 H2777 0.931 . S
C2791 C2790 1.385 . S
C2791 C2792 1.389 . S
C2792 C2791 1.389 . S
C2792 C2793 1.387 . S
C2793 H2778 0.930 . S
C2793 C2788 1.390 1_556 S
C2793 C2792 1.387 . S
H2794 C2806 0.930 . S
H2795 C2808 0.930 . S
H2796 C2809 0.930 . S
H2797 C2813 0.959 . S
H2798 C2813 0.959 . S
H2799 C2813 0.961 . S
H2800 C2814 0.960 . S
H2801 C2814 0.961 . S
H2802 C2814 0.959 . S
H2803 C2817 0.929 . S
H2804 C2818 0.931 . S
H2805 C2820 0.930 . S
C2806 H2794 0.930 . S
C2806 C2807 1.399 . S
C2806 C2811 1.399 . S
C2807 C2806 1.399 . S
C2807 C2808 1.376 . S
C2808 H2795 0.930 . S
C2808 C2807 1.376 . S
C2808 C2809 1.388 . S
C2809 H2796 0.930 . S
C2809 C2808 1.388 . S
C2809 C2810 1.390 . S
C2810 C2809 1.390 . S
C2810 C2811 1.394 . S
C2810 C2816 1.465 . S
C2811 C2806 1.399 . S
C2811 C2810 1.394 . S
C2811 C2812 1.516 . S
C2812 C2811 1.516 . S
C2812 C2813 1.502 . S
C2812 C2814 1.561 . S
C2812 C2815 1.526 . S
C2813 H2797 0.959 . S
C2813 H2798 0.959 . S
C2813 H2799 0.961 . S
C2813 C2812 1.502 . S
C2814 H2800 0.960 . S
C2814 H2801 0.961 . S
C2814 H2802 0.959 . S
C2814 C2812 1.561 . S
C2815 C2812 1.526 . S
C2815 C2816 1.396 . S
C2815 C2820 1.390 . S
C2816 C2810 1.465 . S
C2816 C2815 1.396 . S
C2816 C2817 1.399 . S
C2817 H2803 0.929 . S
C2817 C2816 1.399 . S
C2817 C2818 1.385 . S
C2818 H2804 0.931 . S
C2818 C2817 1.385 . S
C2818 C2819 1.389 . S
C2819 C2818 1.389 . S
C2819 C2820 1.387 . S
C2820 H2805 0.930 . S
C2820 C2815 1.390 . S
C2820 C2819 1.387 . S
H2821 C2833 0.930 . S
H2822 C2835 0.930 . S
H2823 C2836 0.930 . S
H2824 C2840 0.959 . S
H2825 C2840 0.959 . S
H2826 C2840 0.961 . S
H2827 C2841 0.960 . S
H2828 C2841 0.961 . S
H2829 C2841 0.959 . S
H2830 C2844 0.929 . S
H2831 C2845 0.931 . S
H2832 C2847 0.930 . S
C2833 H2821 0.930 . S
C2833 C2834 1.399 . S
C2833 C2838 1.399 . S
C2834 C2833 1.399 . S
C2834 C2835 1.376 . S
C2835 H2822 0.930 . S
C2835 C2834 1.376 . S
C2835 C2836 1.388 . S
C2836 H2823 0.930 . S
C2836 C2835 1.388 . S
C2836 C2837 1.390 . S
C2837 C2836 1.390 . S
C2837 C2838 1.394 . S
C2837 C2843 1.465 . S
C2838 C2833 1.399 . S
C2838 C2837 1.394 . S
C2838 C2839 1.516 . S
C2839 C2838 1.516 . S
C2839 C2840 1.502 . S
C2839 C2841 1.561 . S
C2839 C2842 1.526 . S
C2840 H2824 0.959 . S
C2840 H2825 0.959 . S
C2840 H2826 0.961 . S
C2840 C2839 1.502 . S
C2841 H2827 0.960 . S
C2841 H2828 0.961 . S
C2841 H2829 0.959 . S
C2841 C2839 1.561 . S
C2842 C2839 1.526 . S
C2842 C2843 1.396 . S
C2842 C2847 1.390 . S
C2843 C2837 1.465 . S
C2843 C2842 1.396 . S
C2843 C2844 1.399 . S
C2844 H2830 0.929 . S
C2844 C2843 1.399 . S
C2844 C2845 1.385 . S
C2845 H2831 0.931 . S
C2845 C2844 1.385 . S
C2845 C2846 1.389 . S
C2846 C2845 1.389 . S
C2846 C2847 1.387 . S
C2847 H2832 0.930 . S
C2847 C2842 1.390 . S
C2847 C2846 1.387 . S
H2848 C2860 0.930 . S
H2849 C2862 0.930 . S
H2850 C2863 0.930 . S
H2851 C2867 0.959 . S
H2852 C2867 0.959 . S
H2853 C2867 0.961 . S
H2854 C2868 0.960 . S
H2855 C2868 0.961 . S
H2856 C2868 0.959 . S
H2857 C2871 0.929 . S
H2858 C2872 0.931 . S
H2859 C2874 0.930 . S
C2860 H2848 0.930 . S
C2860 C2861 1.399 . S
C2860 C2865 1.399 . S
C2861 C2860 1.399 . S
C2861 C2862 1.376 . S
C2862 H2849 0.930 . S
C2862 C2861 1.376 . S
C2862 C2863 1.388 . S
C2863 H2850 0.930 . S
C2863 C2862 1.388 . S
C2863 C2864 1.390 . S
C2864 C2863 1.390 . S
C2864 C2865 1.394 . S
C2864 C2870 1.465 . S
C2865 C2860 1.399 . S
C2865 C2864 1.394 . S
C2865 C2866 1.516 . S
C2866 C2865 1.516 . S
C2866 C2867 1.502 . S
C2866 C2868 1.561 . S
C2866 C2869 1.526 . S
C2867 H2851 0.959 . S
C2867 H2852 0.959 . S
C2867 H2853 0.961 . S
C2867 C2866 1.502 . S
C2868 H2854 0.960 . S
C2868 H2855 0.961 . S
C2868 H2856 0.959 . S
C2868 C2866 1.561 . S
C2869 C2866 1.526 . S
C2869 C2870 1.396 . S
C2869 C2874 1.390 . S
C2870 C2864 1.465 . S
C2870 C2869 1.396 . S
C2870 C2871 1.399 . S
C2871 H2857 0.929 . S
C2871 C2870 1.399 . S
C2871 C2872 1.385 . S
C2872 H2858 0.931 . S
C2872 C2871 1.385 . S
C2872 C2873 1.389 . S
C2873 C2872 1.389 . S
C2873 C2874 1.387 . S
C2874 H2859 0.930 . S
C2874 C2869 1.390 . S
C2874 C2873 1.387 . S
H2875 C2887 0.930 . S
H2876 C2889 0.930 . S
H2877 C2890 0.930 . S
H2878 C2894 0.959 . S
H2879 C2894 0.959 . S
H2880 C2894 0.961 1_556 S
H2881 C2895 0.960 . S
H2882 C2895 0.961 . S
H2883 C2895 0.959 . S
H2884 C2898 0.929 . S
H2885 C2899 0.931 . S
H2886 C2901 0.930 . S
C2887 H2875 0.930 . S
C2887 C2888 1.399 . S
C2887 C2892 1.399 . S
C2888 C2887 1.399 . S
C2888 C2889 1.376 . S
C2889 H2876 0.930 . S
C2889 C2888 1.376 . S
C2889 C2890 1.388 . S
C2890 H2877 0.930 . S
C2890 C2889 1.388 . S
C2890 C2891 1.390 . S
C2891 C2890 1.390 . S
C2891 C2892 1.394 . S
C2891 C2897 1.465 . S
C2892 C2887 1.399 . S
C2892 C2891 1.394 . S
C2892 C2893 1.516 . S
C2893 C2892 1.516 . S
C2893 C2894 1.502 . S
C2893 C2895 1.561 . S
C2893 C2896 1.526 . S
C2894 H2878 0.959 . S
C2894 H2879 0.959 . S
C2894 H2880 0.961 1_554 S
C2894 C2893 1.502 . S
C2895 H2881 0.960 . S
C2895 H2882 0.961 . S
C2895 H2883 0.959 . S
C2895 C2893 1.561 . S
C2896 C2893 1.526 . S
C2896 C2897 1.396 . S
C2896 C2901 1.390 . S
C2897 C2891 1.465 . S
C2897 C2896 1.396 . S
C2897 C2898 1.399 . S
C2898 H2884 0.929 . S
C2898 C2897 1.399 . S
C2898 C2899 1.385 . S
C2899 H2885 0.931 . S
C2899 C2898 1.385 . S
C2899 C2900 1.389 . S
C2900 C2899 1.389 . S
C2900 C2901 1.387 . S
C2901 H2886 0.930 . S
C2901 C2896 1.390 . S
C2901 C2900 1.387 . S
H2902 C2914 0.930 . S
H2903 C2916 0.930 . S
H2904 C2917 0.930 . S
H2905 C2921 0.959 . S
H2906 C2921 0.959 . S
H2907 C2921 0.961 . S
H2908 C2922 0.960 . S
H2909 C2922 0.961 . S
H2910 C2922 0.959 . S
H2911 C2925 0.929 . S
H2912 C2926 0.931 . S
H2913 C2928 0.930 . S
C2914 H2902 0.930 . S
C2914 C2915 1.399 . S
C2914 C2919 1.399 . S
C2915 C2914 1.399 . S
C2915 C2916 1.376 . S
C2916 H2903 0.930 . S
C2916 C2915 1.376 . S
C2916 C2917 1.388 . S
C2917 H2904 0.930 . S
C2917 C2916 1.388 . S
C2917 C2918 1.390 . S
C2918 C2917 1.390 . S
C2918 C2919 1.394 . S
C2918 C2924 1.465 . S
C2919 C2914 1.399 . S
C2919 C2918 1.394 . S
C2919 C2920 1.516 . S
C2920 C2919 1.516 . S
C2920 C2921 1.502 . S
C2920 C2922 1.561 . S
C2920 C2923 1.526 . S
C2921 H2905 0.959 . S
C2921 H2906 0.959 . S
C2921 H2907 0.961 . S
C2921 C2920 1.502 . S
C2922 H2908 0.960 . S
C2922 H2909 0.961 . S
C2922 H2910 0.959 . S
C2922 C2920 1.561 . S
C2923 C2920 1.526 . S
C2923 C2924 1.396 . S
C2923 C2928 1.390 . S
C2924 C2918 1.465 . S
C2924 C2923 1.396 . S
C2924 C2925 1.399 . S
C2925 H2911 0.929 . S
C2925 C2924 1.399 . S
C2925 C2926 1.385 . S
C2926 H2912 0.931 . S
C2926 C2925 1.385 . S
C2926 C2927 1.389 . S
C2927 C2926 1.389 . S
C2927 C2928 1.387 . S
C2928 H2913 0.930 . S
C2928 C2923 1.390 . S
C2928 C2927 1.387 . S
H2929 C2941 0.930 . S
H2930 C2943 0.930 . S
H2931 C2944 0.930 . S
H2932 C2948 0.959 . S
H2933 C2948 0.959 . S
H2934 C2948 0.961 . S
H2935 C2949 0.960 . S
H2936 C2949 0.961 . S
H2937 C2949 0.959 . S
H2938 C2952 0.929 . S
H2939 C2953 0.931 . S
H2940 C2955 0.930 . S
C2941 H2929 0.930 . S
C2941 C2942 1.399 . S
C2941 C2946 1.399 . S
C2942 C2941 1.399 . S
C2942 C2943 1.376 . S
C2943 H2930 0.930 . S
C2943 C2942 1.376 . S
C2943 C2944 1.388 . S
C2944 H2931 0.930 . S
C2944 C2943 1.388 . S
C2944 C2945 1.390 . S
C2945 C2944 1.390 . S
C2945 C2946 1.394 . S
C2945 C2951 1.465 . S
C2946 C2941 1.399 . S
C2946 C2945 1.394 . S
C2946 C2947 1.516 . S
C2947 C2946 1.516 . S
C2947 C2948 1.502 . S
C2947 C2949 1.561 . S
C2947 C2950 1.526 . S
C2948 H2932 0.959 . S
C2948 H2933 0.959 . S
C2948 H2934 0.961 . S
C2948 C2947 1.502 . S
C2949 H2935 0.960 . S
C2949 H2936 0.961 . S
C2949 H2937 0.959 . S
C2949 C2947 1.561 . S
C2950 C2947 1.526 . S
C2950 C2951 1.396 . S
C2950 C2955 1.390 . S
C2951 C2945 1.465 . S
C2951 C2950 1.396 . S
C2951 C2952 1.399 . S
C2952 H2938 0.929 . S
C2952 C2951 1.399 . S
C2952 C2953 1.385 . S
C2953 H2939 0.931 . S
C2953 C2952 1.385 . S
C2953 C2954 1.389 . S
C2954 C2953 1.389 . S
C2954 C2955 1.387 . S
C2955 H2940 0.930 . S
C2955 C2950 1.390 . S
C2955 C2954 1.387 . S
H2956 C2968 0.930 . S
H2957 C2970 0.930 . S
H2958 C2971 0.930 . S
H2959 C2975 0.959 . S
H2960 C2975 0.959 . S
H2961 C2975 0.961 . S
H2962 C2976 0.960 . S
H2963 C2976 0.961 . S
H2964 C2976 0.959 . S
H2965 C2979 0.929 . S
H2966 C2980 0.931 . S
H2967 C2982 0.930 . S
C2968 H2956 0.930 . S
C2968 C2969 1.399 . S
C2968 C2973 1.399 . S
C2969 C2968 1.399 . S
C2969 C2970 1.376 . S
C2970 H2957 0.930 . S
C2970 C2969 1.376 . S
C2970 C2971 1.388 . S
C2971 H2958 0.930 . S
C2971 C2970 1.388 . S
C2971 C2972 1.390 . S
C2972 C2971 1.390 . S
C2972 C2973 1.394 . S
C2972 C2978 1.465 . S
C2973 C2968 1.399 . S
C2973 C2972 1.394 . S
C2973 C2974 1.516 . S
C2974 C2973 1.516 . S
C2974 C2975 1.502 . S
C2974 C2976 1.561 . S
C2974 C2977 1.526 . S
C2975 H2959 0.959 . S
C2975 H2960 0.959 . S
C2975 H2961 0.961 . S
C2975 C2974 1.502 . S
C2976 H2962 0.960 . S
C2976 H2963 0.961 . S
C2976 H2964 0.959 . S
C2976 C2974 1.561 . S
C2977 C2974 1.526 . S
C2977 C2978 1.396 . S
C2977 C2982 1.390 . S
C2978 C2972 1.465 . S
C2978 C2977 1.396 . S
C2978 C2979 1.399 . S
C2979 H2965 0.929 . S
C2979 C2978 1.399 . S
C2979 C2980 1.385 . S
C2980 H2966 0.931 . S
C2980 C2979 1.385 . S
C2980 C2981 1.389 . S
C2981 C2980 1.389 . S
C2981 C2982 1.387 . S
C2982 H2967 0.930 . S
C2982 C2977 1.390 . S
C2982 C2981 1.387 . S
H2983 C2995 0.930 . S
H2984 C2997 0.930 1_554 S
H2985 C2998 0.930 . S
H2986 C3002 0.959 . S
H2987 C3002 0.959 . S
H2988 C3002 0.961 . S
H2989 C3003 0.960 . S
H2990 C3003 0.961 . S
H2991 C3003 0.959 . S
H2992 C3006 0.929 . S
H2993 C3007 0.931 . S
H2994 C3009 0.930 . S
C2995 H2983 0.930 . S
C2995 C2996 1.399 . S
C2995 C3000 1.399 . S
C2996 C2995 1.399 . S
C2996 C2997 1.376 . S
C2997 H2984 0.930 1_556 S
C2997 C2996 1.376 . S
C2997 C2998 1.388 . S
C2998 H2985 0.930 . S
C2998 C2997 1.388 . S
C2998 C2999 1.390 . S
C2999 C2998 1.390 . S
C2999 C3000 1.394 . S
C2999 C3005 1.465 . S
C3000 C2995 1.399 . S
C3000 C2999 1.394 . S
C3000 C3001 1.516 . S
C3001 C3000 1.516 . S
C3001 C3002 1.502 . S
C3001 C3003 1.561 . S
C3001 C3004 1.526 . S
C3002 H2986 0.959 . S
C3002 H2987 0.959 . S
C3002 H2988 0.961 . S
C3002 C3001 1.502 . S
C3003 H2989 0.960 . S
C3003 H2990 0.961 . S
C3003 H2991 0.959 . S
C3003 C3001 1.561 . S
C3004 C3001 1.526 . S
C3004 C3005 1.396 . S
C3004 C3009 1.390 . S
C3005 C2999 1.465 . S
C3005 C3004 1.396 . S
C3005 C3006 1.399 . S
C3006 H2992 0.929 . S
C3006 C3005 1.399 . S
C3006 C3007 1.385 . S
C3007 H2993 0.931 . S
C3007 C3006 1.385 . S
C3007 C3008 1.389 . S
C3008 C3007 1.389 . S
C3008 C3009 1.387 . S
C3009 H2994 0.930 . S
C3009 C3004 1.390 . S
C3009 C3008 1.387 . S
H3010 C3022 0.930 . S
H3011 C3024 0.930 . S
H3012 C3025 0.930 . S
H3013 C3029 0.959 . S
H3014 C3029 0.959 . S
H3015 C3029 0.961 . S
H3016 C3030 0.960 . S
H3017 C3030 0.961 . S
H3018 C3030 0.959 . S
H3019 C3033 0.929 . S
H3020 C3034 0.931 . S
H3021 C3036 0.930 . S
C3022 H3010 0.930 . S
C3022 C3023 1.399 . S
C3022 C3027 1.399 . S
C3023 C3022 1.399 . S
C3023 C3024 1.376 . S
C3024 H3011 0.930 . S
C3024 C3023 1.376 . S
C3024 C3025 1.388 . S
C3025 H3012 0.930 . S
C3025 C3024 1.388 . S
C3025 C3026 1.390 . S
C3026 C3025 1.390 . S
C3026 C3027 1.394 . S
C3026 C3032 1.465 . S
C3027 C3022 1.399 . S
C3027 C3026 1.394 . S
C3027 C3028 1.516 . S
C3028 C3027 1.516 . S
C3028 C3029 1.502 . S
C3028 C3030 1.561 . S
C3028 C3031 1.526 . S
C3029 H3013 0.959 . S
C3029 H3014 0.959 . S
C3029 H3015 0.961 . S
C3029 C3028 1.502 . S
C3030 H3016 0.960 . S
C3030 H3017 0.961 . S
C3030 H3018 0.959 . S
C3030 C3028 1.561 . S
C3031 C3028 1.526 . S
C3031 C3032 1.396 . S
C3031 C3036 1.390 . S
C3032 C3026 1.465 . S
C3032 C3031 1.396 . S
C3032 C3033 1.399 . S
C3033 H3019 0.929 . S
C3033 C3032 1.399 . S
C3033 C3034 1.385 . S
C3034 H3020 0.931 . S
C3034 C3033 1.385 . S
C3034 C3035 1.389 . S
C3035 C3034 1.389 . S
C3035 C3036 1.387 . S
C3036 H3021 0.930 . S
C3036 C3031 1.390 . S
C3036 C3035 1.387 . S
H3037 C3049 0.930 . S
H3038 C3051 0.930 . S
H3039 C3052 0.930 . S
H3040 C3056 0.959 . S
H3041 C3056 0.959 . S
H3042 C3056 0.961 . S
H3043 C3057 0.960 . S
H3044 C3057 0.961 . S
H3045 C3057 0.959 . S
H3046 C3060 0.929 . S
H3047 C3061 0.931 . S
H3048 C3063 0.930 . S
C3049 H3037 0.930 . S
C3049 C3050 1.399 . S
C3049 C3054 1.399 . S
C3050 C3049 1.399 . S
C3050 C3051 1.376 . S
C3051 H3038 0.930 . S
C3051 C3050 1.376 . S
C3051 C3052 1.388 . S
C3052 H3039 0.930 . S
C3052 C3051 1.388 . S
C3052 C3053 1.390 . S
C3053 C3052 1.390 . S
C3053 C3054 1.394 . S
C3053 C3059 1.465 . S
C3054 C3049 1.399 . S
C3054 C3053 1.394 . S
C3054 C3055 1.516 . S
C3055 C3054 1.516 . S
C3055 C3056 1.502 . S
C3055 C3057 1.561 . S
C3055 C3058 1.526 . S
C3056 H3040 0.959 . S
C3056 H3041 0.959 . S
C3056 H3042 0.961 . S
C3056 C3055 1.502 . S
C3057 H3043 0.960 . S
C3057 H3044 0.961 . S
C3057 H3045 0.959 . S
C3057 C3055 1.561 . S
C3058 C3055 1.526 . S
C3058 C3059 1.396 . S
C3058 C3063 1.390 . S
C3059 C3053 1.465 . S
C3059 C3058 1.396 . S
C3059 C3060 1.399 . S
C3060 H3046 0.929 . S
C3060 C3059 1.399 . S
C3060 C3061 1.385 . S
C3061 H3047 0.931 . S
C3061 C3060 1.385 . S
C3061 C3062 1.389 . S
C3062 C3061 1.389 . S
C3062 C3063 1.387 . S
C3063 H3048 0.930 . S
C3063 C3058 1.390 . S
C3063 C3062 1.387 . S
H3064 C3076 0.930 . S
H3065 C3078 0.930 . S
H3066 C3079 0.930 . S
H3067 C3083 0.959 . S
H3068 C3083 0.959 . S
H3069 C3083 0.961 . S
H3070 C3084 0.960 . S
H3071 C3084 0.961 . S
H3072 C3084 0.959 . S
H3073 C3087 0.929 . S
H3074 C3088 0.931 . S
H3075 C3090 0.930 . S
C3076 H3064 0.930 . S
C3076 C3077 1.399 . S
C3076 C3081 1.399 . S
C3077 C3076 1.399 . S
C3077 C3078 1.376 . S
C3078 H3065 0.930 . S
C3078 C3077 1.376 . S
C3078 C3079 1.388 . S
C3079 H3066 0.930 . S
C3079 C3078 1.388 . S
C3079 C3080 1.390 . S
C3080 C3079 1.390 . S
C3080 C3081 1.394 . S
C3080 C3086 1.465 . S
C3081 C3076 1.399 . S
C3081 C3080 1.394 . S
C3081 C3082 1.516 . S
C3082 C3081 1.516 . S
C3082 C3083 1.502 . S
C3082 C3084 1.561 . S
C3082 C3085 1.526 . S
C3083 H3067 0.959 . S
C3083 H3068 0.959 . S
C3083 H3069 0.961 . S
C3083 C3082 1.502 . S
C3084 H3070 0.960 . S
C3084 H3071 0.961 . S
C3084 H3072 0.959 . S
C3084 C3082 1.561 . S
C3085 C3082 1.526 . S
C3085 C3086 1.396 . S
C3085 C3090 1.390 . S
C3086 C3080 1.465 . S
C3086 C3085 1.396 . S
C3086 C3087 1.399 . S
C3087 H3073 0.929 . S
C3087 C3086 1.399 . S
C3087 C3088 1.385 . S
C3088 H3074 0.931 . S
C3088 C3087 1.385 . S
C3088 C3089 1.389 . S
C3089 C3088 1.389 . S
C3089 C3090 1.387 . S
C3090 H3075 0.930 . S
C3090 C3085 1.390 . S
C3090 C3089 1.387 . S
H3091 C3103 0.930 . S
H3092 C3105 0.930 . S
H3093 C3106 0.930 . S
H3094 C3110 0.959 . S
H3095 C3110 0.959 . S
H3096 C3110 0.961 . S
H3097 C3111 0.960 . S
H3098 C3111 0.961 . S
H3099 C3111 0.959 . S
H3100 C3114 0.929 . S
H3101 C3115 0.931 . S
H3102 C3117 0.930 . S
C3103 H3091 0.930 . S
C3103 C3104 1.399 . S
C3103 C3108 1.399 . S
C3104 C3103 1.399 . S
C3104 C3105 1.376 . S
C3105 H3092 0.930 . S
C3105 C3104 1.376 . S
C3105 C3106 1.388 . S
C3106 H3093 0.930 . S
C3106 C3105 1.388 . S
C3106 C3107 1.390 . S
C3107 C3106 1.390 . S
C3107 C3108 1.394 . S
C3107 C3113 1.465 . S
C3108 C3103 1.399 . S
C3108 C3107 1.394 . S
C3108 C3109 1.516 . S
C3109 C3108 1.516 . S
C3109 C3110 1.502 . S
C3109 C3111 1.561 . S
C3109 C3112 1.526 . S
C3110 H3094 0.959 . S
C3110 H3095 0.959 . S
C3110 H3096 0.961 . S
C3110 C3109 1.502 . S
C3111 H3097 0.960 . S
C3111 H3098 0.961 . S
C3111 H3099 0.959 . S
C3111 C3109 1.561 . S
C3112 C3109 1.526 . S
C3112 C3113 1.396 . S
C3112 C3117 1.390 . S
C3113 C3107 1.465 . S
C3113 C3112 1.396 . S
C3113 C3114 1.399 . S
C3114 H3100 0.929 . S
C3114 C3113 1.399 . S
C3114 C3115 1.385 . S
C3115 H3101 0.931 . S
C3115 C3114 1.385 . S
C3115 C3116 1.389 . S
C3116 C3115 1.389 . S
C3116 C3117 1.387 . S
C3117 H3102 0.930 . S
C3117 C3112 1.390 . S
C3117 C3116 1.387 . S
H3118 C3130 0.930 . S
H3119 C3132 0.930 . S
H3120 C3133 0.930 . S
H3121 C3137 0.959 . S
H3122 C3137 0.959 . S
H3123 C3137 0.961 . S
H3124 C3138 0.960 . S
H3125 C3138 0.961 . S
H3126 C3138 0.959 . S
H3127 C3141 0.929 . S
H3128 C3142 0.931 . S
H3129 C3144 0.930 . S
C3130 H3118 0.930 . S
C3130 C3131 1.399 . S
C3130 C3135 1.399 . S
C3131 C3130 1.399 . S
C3131 C3132 1.376 . S
C3132 H3119 0.930 . S
C3132 C3131 1.376 . S
C3132 C3133 1.388 . S
C3133 H3120 0.930 . S
C3133 C3132 1.388 . S
C3133 C3134 1.390 . S
C3134 C3133 1.390 . S
C3134 C3135 1.394 . S
C3134 C3140 1.465 . S
C3135 C3130 1.399 . S
C3135 C3134 1.394 . S
C3135 C3136 1.516 . S
C3136 C3135 1.516 . S
C3136 C3137 1.502 . S
C3136 C3138 1.561 . S
C3136 C3139 1.526 . S
C3137 H3121 0.959 . S
C3137 H3122 0.959 . S
C3137 H3123 0.961 . S
C3137 C3136 1.502 . S
C3138 H3124 0.960 . S
C3138 H3125 0.961 . S
C3138 H3126 0.959 . S
C3138 C3136 1.561 . S
C3139 C3136 1.526 . S
C3139 C3140 1.396 . S
C3139 C3144 1.390 . S
C3140 C3134 1.465 . S
C3140 C3139 1.396 . S
C3140 C3141 1.399 . S
C3141 H3127 0.929 . S
C3141 C3140 1.399 . S
C3141 C3142 1.385 . S
C3142 H3128 0.931 . S
C3142 C3141 1.385 . S
C3142 C3143 1.389 . S
C3143 C3142 1.389 . S
C3143 C3144 1.387 . S
C3144 H3129 0.930 . S
C3144 C3139 1.390 . S
C3144 C3143 1.387 . S
H3145 C3157 0.930 . S
H3146 C3159 0.930 . S
H3147 C3160 0.930 . S
H3148 C3164 0.959 . S
H3149 C3164 0.959 . S
H3150 C3164 0.961 . S
H3151 C3165 0.960 . S
H3152 C3165 0.961 . S
H3153 C3165 0.959 . S
H3154 C3168 0.929 . S
H3155 C3169 0.931 . S
H3156 C3171 0.930 . S
C3157 H3145 0.930 . S
C3157 C3158 1.399 . S
C3157 C3162 1.399 . S
C3158 C3157 1.399 . S
C3158 C3159 1.376 . S
C3159 H3146 0.930 . S
C3159 C3158 1.376 . S
C3159 C3160 1.388 . S
C3160 H3147 0.930 . S
C3160 C3159 1.388 . S
C3160 C3161 1.390 . S
C3161 C3160 1.390 . S
C3161 C3162 1.394 . S
C3161 C3167 1.465 . S
C3162 C3157 1.399 . S
C3162 C3161 1.394 . S
C3162 C3163 1.516 . S
C3163 C3162 1.516 . S
C3163 C3164 1.502 . S
C3163 C3165 1.561 . S
C3163 C3166 1.526 . S
C3164 H3148 0.959 . S
C3164 H3149 0.959 . S
C3164 H3150 0.961 . S
C3164 C3163 1.502 . S
C3165 H3151 0.960 . S
C3165 H3152 0.961 . S
C3165 H3153 0.959 . S
C3165 C3163 1.561 . S
C3166 C3163 1.526 . S
C3166 C3167 1.396 . S
C3166 C3171 1.390 . S
C3167 C3161 1.465 . S
C3167 C3166 1.396 . S
C3167 C3168 1.399 . S
C3168 H3154 0.929 . S
C3168 C3167 1.399 . S
C3168 C3169 1.385 . S
C3169 H3155 0.931 . S
C3169 C3168 1.385 . S
C3169 C3170 1.389 . S
C3170 C3169 1.389 . S
C3170 C3171 1.387 . S
C3171 H3156 0.930 . S
C3171 C3166 1.390 . S
C3171 C3170 1.387 . S
H3172 C3184 0.930 . S
H3173 C3186 0.930 . S
H3174 C3187 0.930 . S
H3175 C3191 0.959 . S
H3176 C3191 0.959 . S
H3177 C3191 0.961 . S
H3178 C3192 0.960 . S
H3179 C3192 0.961 . S
H3180 C3192 0.959 . S
H3181 C3195 0.929 . S
H3182 C3196 0.931 . S
H3183 C3198 0.930 . S
C3184 H3172 0.930 . S
C3184 C3185 1.399 . S
C3184 C3189 1.399 . S
C3185 C3184 1.399 . S
C3185 C3186 1.376 . S
C3186 H3173 0.930 . S
C3186 C3185 1.376 . S
C3186 C3187 1.388 . S
C3187 H3174 0.930 . S
C3187 C3186 1.388 . S
C3187 C3188 1.390 . S
C3188 C3187 1.390 . S
C3188 C3189 1.394 . S
C3188 C3194 1.465 . S
C3189 C3184 1.399 . S
C3189 C3188 1.394 . S
C3189 C3190 1.516 . S
C3190 C3189 1.516 . S
C3190 C3191 1.502 . S
C3190 C3192 1.561 . S
C3190 C3193 1.526 . S
C3191 H3175 0.959 . S
C3191 H3176 0.959 . S
C3191 H3177 0.961 . S
C3191 C3190 1.502 . S
C3192 H3178 0.960 . S
C3192 H3179 0.961 . S
C3192 H3180 0.959 . S
C3192 C3190 1.561 . S
C3193 C3190 1.526 . S
C3193 C3194 1.396 . S
C3193 C3198 1.390 . S
C3194 C3188 1.465 . S
C3194 C3193 1.396 . S
C3194 C3195 1.399 . S
C3195 H3181 0.929 . S
C3195 C3194 1.399 . S
C3195 C3196 1.385 . S
C3196 H3182 0.931 . S
C3196 C3195 1.385 . S
C3196 C3197 1.389 . S
C3197 C3196 1.389 . S
C3197 C3198 1.387 . S
C3198 H3183 0.930 . S
C3198 C3193 1.390 . S
C3198 C3197 1.387 . S
H3199 C3211 0.930 . S
H3200 C3213 0.930 . S
H3201 C3214 0.930 . S
H3202 C3218 0.959 . S
H3203 C3218 0.959 . S
H3204 C3218 0.961 . S
H3205 C3219 0.960 . S
H3206 C3219 0.961 . S
H3207 C3219 0.959 . S
H3208 C3222 0.929 . S
H3209 C3223 0.931 . S
H3210 C3225 0.930 . S
C3211 H3199 0.930 . S
C3211 C3212 1.399 . S
C3211 C3216 1.399 . S
C3212 C3211 1.399 . S
C3212 C3213 1.376 . S
C3213 H3200 0.930 . S
C3213 C3212 1.376 . S
C3213 C3214 1.388 . S
C3214 H3201 0.930 . S
C3214 C3213 1.388 . S
C3214 C3215 1.390 . S
C3215 C3214 1.390 . S
C3215 C3216 1.394 . S
C3215 C3221 1.465 . S
C3216 C3211 1.399 . S
C3216 C3215 1.394 . S
C3216 C3217 1.516 . S
C3217 C3216 1.516 . S
C3217 C3218 1.502 . S
C3217 C3219 1.561 . S
C3217 C3220 1.526 . S
C3218 H3202 0.959 . S
C3218 H3203 0.959 . S
C3218 H3204 0.961 . S
C3218 C3217 1.502 . S
C3219 H3205 0.960 . S
C3219 H3206 0.961 . S
C3219 H3207 0.959 . S
C3219 C3217 1.561 . S
C3220 C3217 1.526 . S
C3220 C3221 1.396 . S
C3220 C3225 1.390 . S
C3221 C3215 1.465 . S
C3221 C3220 1.396 . S
C3221 C3222 1.399 . S
C3222 H3208 0.929 . S
C3222 C3221 1.399 . S
C3222 C3223 1.385 . S
C3223 H3209 0.931 . S
C3223 C3222 1.385 . S
C3223 C3224 1.389 . S
C3224 C3223 1.389 . S
C3224 C3225 1.387 . S
C3225 H3210 0.930 . S
C3225 C3220 1.390 . S
C3225 C3224 1.387 . S
H3226 C3238 0.930 . S
H3227 C3240 0.930 1_545 S
H3228 C3241 0.930 . S
H3229 C3245 0.959 . S
H3230 C3245 0.959 . S
H3231 C3245 0.961 . S
H3232 C3246 0.960 . S
H3233 C3246 0.961 . S
H3234 C3246 0.959 . S
H3235 C3249 0.929 . S
H3236 C3250 0.931 . S
H3237 C3252 0.930 . S
C3238 H3226 0.930 . S
C3238 C3239 1.399 . S
C3238 C3243 1.399 . S
C3239 C3238 1.399 . S
C3239 C3240 1.376 . S
C3240 H3227 0.930 1_565 S
C3240 C3239 1.376 . S
C3240 C3241 1.388 . S
C3241 H3228 0.930 . S
C3241 C3240 1.388 . S
C3241 C3242 1.390 . S
C3242 C3241 1.390 . S
C3242 C3243 1.394 . S
C3242 C3248 1.465 . S
C3243 C3238 1.399 . S
C3243 C3242 1.394 . S
C3243 C3244 1.516 . S
C3244 C3243 1.516 . S
C3244 C3245 1.502 . S
C3244 C3246 1.561 . S
C3244 C3247 1.526 . S
C3245 H3229 0.959 . S
C3245 H3230 0.959 . S
C3245 H3231 0.961 . S
C3245 C3244 1.502 . S
C3246 H3232 0.960 . S
C3246 H3233 0.961 . S
C3246 H3234 0.959 . S
C3246 C3244 1.561 . S
C3247 C3244 1.526 . S
C3247 C3248 1.396 . S
C3247 C3252 1.390 . S
C3248 C3242 1.465 . S
C3248 C3247 1.396 . S
C3248 C3249 1.399 . S
C3249 H3235 0.929 . S
C3249 C3248 1.399 . S
C3249 C3250 1.385 . S
C3250 H3236 0.931 . S
C3250 C3249 1.385 . S
C3250 C3251 1.389 . S
C3251 C3250 1.389 . S
C3251 C3252 1.387 . S
C3252 H3237 0.930 . S
C3252 C3247 1.390 . S
C3252 C3251 1.387 . S
H3253 C3265 0.930 . S
H3254 C3267 0.930 1_565 S
H3255 C3268 0.930 . S
H3256 C3272 0.959 . S
H3257 C3272 0.959 . S
H3258 C3272 0.961 . S
H3259 C3273 0.960 . S
H3260 C3273 0.961 . S
H3261 C3273 0.959 . S
H3262 C3276 0.929 . S
H3263 C3277 0.931 . S
H3264 C3279 0.930 . S
C3265 H3253 0.930 . S
C3265 C3266 1.399 . S
C3265 C3270 1.399 . S
C3266 C3265 1.399 . S
C3266 C3267 1.376 . S
C3267 H3254 0.930 1_545 S
C3267 C3266 1.376 . S
C3267 C3268 1.388 . S
C3268 H3255 0.930 . S
C3268 C3267 1.388 . S
C3268 C3269 1.390 . S
C3269 C3268 1.390 . S
C3269 C3270 1.394 . S
C3269 C3275 1.465 1_455 S
C3270 C3265 1.399 . S
C3270 C3269 1.394 . S
C3270 C3271 1.516 . S
C3271 C3270 1.516 . S
C3271 C3272 1.502 . S
C3271 C3273 1.561 . S
C3271 C3274 1.556 . S
C3272 H3256 0.959 . S
C3272 H3257 0.959 . S
C3272 H3258 0.961 . S
C3272 C3271 1.502 . S
C3273 H3259 0.960 . S
C3273 H3260 0.961 . S
C3273 H3261 0.959 . S
C3273 C3271 1.561 . S
C3274 C3271 1.556 . S
C3274 C3275 1.395 1_455 S
C3274 C3279 1.363 1_455 S
C3275 C3269 1.465 1_655 S
C3275 C3274 1.395 1_655 S
C3275 C3276 1.399 . S
C3276 H3262 0.929 . S
C3276 C3275 1.399 . S
C3276 C3277 1.385 . S
C3277 H3263 0.931 . S
C3277 C3276 1.385 . S
C3277 C3278 1.389 . S
C3278 C3277 1.389 . S
C3278 C3279 1.387 . S
C3279 H3264 0.930 . S
C3279 C3274 1.363 1_655 S
C3279 C3278 1.387 . S
C713 C354 1.009 . S
C701 C11 1.035 . S
C728 C14 1.109 . S
C740 C366 1.195 . S
C767 C401 1.203 . S
C755 C37 1.217 . S
C794 C410 1.117 . S
C782 C47 1.145 . S
C821 C365 1.170 . S
C809 C61 1.154 . S
C836 C79 1.234 . S
C848 C390 1.188 . S
C875 C409 1.154 . S
C863 C84 1.151 . S
C890 C109 1.119 . S
C902 C351 1.025 . S
C917 C123 1.116 . S
C929 C344 1.084 . S
C956 C368 1.166 . S
C944 C131 1.169 . S
C983 C387 1.247 . S
C971 C140 1.280 . S
C1010 C412 1.159 . S
C998 C163 1.113 . S
C1037 C373 1.177 . S
C1025 C121 1.120 . S
C1064 C398 1.204 . S
C1052 C126 1.190 . S
C1079 C145 1.130 . S
C1091 C417 1.124 . S
C1118 C357 1.123 . S
C1106 C165 1.047 . S
C1133 C168 1.124 . S
C1145 C346 1.066 . S
C1160 C193 1.107 . S
C1172 C445 1.174 . S
C1199 C461 1.204 . S
C1187 C205 1.146 . S
C1226 C475 1.143 . S
C1214 C215 1.231 . S
C1241 C224 1.163 . S
C1253 C343 1.087 . S
C1268 C247 1.209 . S
C1280 C395 1.241 . S
C1307 C478 1.117 . S
C1295 C207 1.096 . S
C1334 C442 1.251 . S
C1322 C257 1.205 . S
C1361 C498 1.168 . S
C1349 C23 1.154 . S
C1388 C522 1.118 . S
C1376 C0 1.096 . S
C1403 C53 1.033 . S
C1415 C555 1.040 . S
C1430 C33 1.234 . S
C1442 C563 1.233 . S
C1457 C103 1.200 . S
C1469 C533 1.184 . S
C1484 C95 1.011 . S
C1496 C544 1.008 . S
C1523 C564 1.131 . S
C1511 C70 1.106 . S
C1538 C65 1.193 . S
C1550 C497 1.184 . S
C1565 C271 1.215 . S
C1577 C500 1.217 . S
C1604 C530 1.166 . S
C1592 C219 1.155 . S
C1631 C541 1.030 . S
C1619 C235 1.040 . S
C1658 C571 1.151 . S
C1646 C182 1.161 . S
C1685 C519 1.160 . S
C1673 C266 1.161 . S
C1712 C552 1.065 . S
C1700 C221 1.072 . S
C1739 C566 1.181 . S
C1727 C233 1.180 . S
C1754 C187 1.261 . S
C1766 C505 1.254 . S
C1793 C508 1.145 . S
C1781 C289 1.146 . S
C1808 C154 1.197 . S
C1820 C596 1.207 . S
C1847 C608 1.133 . S
C1835 C299 1.140 . S
C1862 C137 1.114 . S
C1874 C629 1.100 . S
C1901 C511 1.142 . S
C1889 C149 1.157 . S
C1928 C549 1.137 . S
C1916 C313 1.138 . S
C1955 C632 1.112 . S
C1943 C294 1.106 . S
C1970 C333 1.152 . S
C1982 C599 1.141 . S
C1997 C39 1.022 . S
C2009 C654 1.060 . S
C2024 C42 1.190 . S
C2036 C432 1.137 . S
C2063 C456 1.213 . S
C2051 C9 1.226 . S
C2078 C19 1.146 . S
C2090 C486 1.191 . S
C2105 C89 1.138 . S
C2117 C431 1.151 . S
C2132 C107 1.215 . S
C2144 C467 1.200 . S
C2171 C483 1.168 . S
C2159 C56 1.240 . S
C2198 C665 1.112 . S
C2186 C81 1.042 . S
C2225 C662 1.063 . S
C2213 C305 1.099 . S
C2252 C434 1.132 . S
C2240 C285 1.178 . S
C2279 C464 1.273 . S
C2267 C322 1.234 . S
C2294 C317 1.214 . S
C2306 C476 1.203 . S
C2333 C439 1.173 . S
C2321 C303 1.191 . S
C2348 C280 1.242 . S
C2360 C453 1.211 . S
C2387 C489 1.100 . S
C2375 C327 1.182 . S
C2402 C319 1.070 . S
C2414 C651 1.082 . S
C2441 C652 1.135 . S
C2429 C210 1.051 . S
C2456 C249 1.093 . S
C2468 C379 1.162 . S
C2495 C388 1.183 . S
C2483 C275 1.116 . S
C2510 C173 1.223 . S
C2522 C423 1.179 . S
C2549 C659 1.063 . S
C2537 C252 1.154 . S
C2576 C454 1.218 . S
C2564 C191 1.154 . S
C2603 C420 1.149 . S
C2591 C277 1.116 . S
C2630 C376 1.181 . S
C2618 C229 1.236 . S
C2645 C51 1.194 . S
C2657 C673 1.182 . S
C2672 C28 1.132 . S
C2684 C585 1.139 . S
C2699 C25 1.085 . S
C2711 C621 1.073 . S
C2738 C640 1.142 . S
C2726 C5 1.149 . S
C2765 C586 1.196 . S
C2753 C75 1.191 . S
C2780 C67 1.057 . S
C2792 C610 1.036 . S
C2819 C637 1.096 . S
C2807 C98 1.099 . S
C2834 C93 1.222 . S
C2846 C674 1.228 . S
C2873 C681 1.193 . S
C2861 C201 1.213 . S
C2888 C177 1.160 . S
C2900 C593 1.154 . S
C2915 C263 1.037 . S
C2927 C607 1.021 . S
C2954 C630 1.117 . S
C2942 C238 1.129 . S
C2981 C588 1.081 . S
C2969 C196 1.059 . S
C2996 C179 1.058 . S
C3008 C618 1.044 . S
C3035 C643 1.201 . S
C3023 C261 1.191 . S
C3062 C676 1.225 . S
C3050 C243 1.222 . S
C3089 C687 1.157 . S
C3077 C135 1.169 . S
C3116 C527 1.177 . S
C3104 C308 1.179 . S
C3131 C117 1.123 . S
C3143 C542 1.129 . S
C3158 C291 1.117 . S
C3170 C574 1.145 . S
C3197 C684 1.129 . S
C3185 C331 1.119 . S
C3224 C615 1.051 . S
C3212 C159 1.075 . S
C3251 C577 1.185 . S
C3239 C112 1.191 . S
C3278 C520 1.109 . S
C3266 C151 1.125 . S
