# Generated by pormake.
# Topology ocu, (6,8)-cn, num edge types: 1
# Building blocks:
#     Node 0, Type 0, BuildingBlock: JUFBIX_clean_sbu_0, # of connection points: 6
#     Node 1, Type 0, BuildingBlock: JUFBIX_clean_sbu_0, # of connection points: 6
#     Node 2, Type 0, BuildingBlock: JUFBIX_clean_sbu_0, # of connection points: 6
#     Node 3, Type 0, BuildingBlock: JUFBIX_clean_sbu_0, # of connection points: 6
#     Node 4, Type 0, BuildingBlock: JUFBIX_clean_sbu_0, # of connection points: 6
#     Node 5, Type 0, BuildingBlock: JUFBIX_clean_sbu_0, # of connection points: 6
#     Node 6, Type 0, BuildingBlock: JUFBIX_clean_sbu_0, # of connection points: 6
#     Node 7, Type 0, BuildingBlock: JUFBIX_clean_sbu_0, # of connection points: 6
#     Node 8, Type 1, BuildingBlock: GIZVER_clean_sbu_0, # of connection points: 8
#     Node 9, Type 1, BuildingBlock: GIZVER_clean_sbu_0, # of connection points: 8
#     Node 10, Type 1, BuildingBlock: GIZVER_clean_sbu_0, # of connection points: 8
#     Node 11, Type 1, BuildingBlock: GIZVER_clean_sbu_0, # of connection points: 8
#     Node 12, Type 1, BuildingBlock: GIZVER_clean_sbu_0, # of connection points: 8
#     Node 13, Type 1, BuildingBlock: GIZVER_clean_sbu_0, # of connection points: 8
#     Edge 14, Type (0, 1), BuildingBlock: MIFKUJ_clean_linker_0, # of connection points: 2
#     Edge 15, Type (0, 1), BuildingBlock: MIFKUJ_clean_linker_0, # of connection points: 2
#     Edge 16, Type (0, 1), BuildingBlock: MIFKUJ_clean_linker_0, # of connection points: 2
#     Edge 17, Type (0, 1), BuildingBlock: MIFKUJ_clean_linker_0, # of connection points: 2
#     Edge 18, Type (0, 1), BuildingBlock: MIFKUJ_clean_linker_0, # of connection points: 2
#     Edge 19, Type (0, 1), BuildingBlock: MIFKUJ_clean_linker_0, # of connection points: 2
#     Edge 20, Type (0, 1), BuildingBlock: MIFKUJ_clean_linker_0, # of connection points: 2
#     Edge 21, Type (0, 1), BuildingBlock: MIFKUJ_clean_linker_0, # of connection points: 2
#     Edge 22, Type (0, 1), BuildingBlock: MIFKUJ_clean_linker_0, # of connection points: 2
#     Edge 23, Type (0, 1), BuildingBlock: MIFKUJ_clean_linker_0, # of connection points: 2
#     Edge 24, Type (0, 1), BuildingBlock: MIFKUJ_clean_linker_0, # of connection points: 2
#     Edge 25, Type (0, 1), BuildingBlock: MIFKUJ_clean_linker_0, # of connection points: 2
#     Edge 26, Type (0, 1), BuildingBlock: MIFKUJ_clean_linker_0, # of connection points: 2
#     Edge 27, Type (0, 1), BuildingBlock: MIFKUJ_clean_linker_0, # of connection points: 2
#     Edge 28, Type (0, 1), BuildingBlock: MIFKUJ_clean_linker_0, # of connection points: 2
#     Edge 29, Type (0, 1), BuildingBlock: MIFKUJ_clean_linker_0, # of connection points: 2
#     Edge 30, Type (0, 1), BuildingBlock: MIFKUJ_clean_linker_0, # of connection points: 2
#     Edge 31, Type (0, 1), BuildingBlock: MIFKUJ_clean_linker_0, # of connection points: 2
#     Edge 32, Type (0, 1), BuildingBlock: MIFKUJ_clean_linker_0, # of connection points: 2
#     Edge 33, Type (0, 1), BuildingBlock: MIFKUJ_clean_linker_0, # of connection points: 2
#     Edge 34, Type (0, 1), BuildingBlock: MIFKUJ_clean_linker_0, # of connection points: 2
#     Edge 35, Type (0, 1), BuildingBlock: MIFKUJ_clean_linker_0, # of connection points: 2
#     Edge 36, Type (0, 1), BuildingBlock: MIFKUJ_clean_linker_0, # of connection points: 2
#     Edge 37, Type (0, 1), BuildingBlock: MIFKUJ_clean_linker_0, # of connection points: 2
#     Edge 38, Type (0, 1), BuildingBlock: MIFKUJ_clean_linker_0, # of connection points: 2
#     Edge 39, Type (0, 1), BuildingBlock: MIFKUJ_clean_linker_0, # of connection points: 2
#     Edge 40, Type (0, 1), BuildingBlock: MIFKUJ_clean_linker_0, # of connection points: 2
#     Edge 41, Type (0, 1), BuildingBlock: MIFKUJ_clean_linker_0, # of connection points: 2
#     Edge 42, Type (0, 1), BuildingBlock: MIFKUJ_clean_linker_0, # of connection points: 2
#     Edge 43, Type (0, 1), BuildingBlock: MIFKUJ_clean_linker_0, # of connection points: 2
#     Edge 44, Type (0, 1), BuildingBlock: MIFKUJ_clean_linker_0, # of connection points: 2
#     Edge 45, Type (0, 1), BuildingBlock: MIFKUJ_clean_linker_0, # of connection points: 2
#     Edge 46, Type (0, 1), BuildingBlock: MIFKUJ_clean_linker_0, # of connection points: 2
#     Edge 47, Type (0, 1), BuildingBlock: MIFKUJ_clean_linker_0, # of connection points: 2
#     Edge 48, Type (0, 1), BuildingBlock: MIFKUJ_clean_linker_0, # of connection points: 2
#     Edge 49, Type (0, 1), BuildingBlock: MIFKUJ_clean_linker_0, # of connection points: 2
#     Edge 50, Type (0, 1), BuildingBlock: MIFKUJ_clean_linker_0, # of connection points: 2
#     Edge 51, Type (0, 1), BuildingBlock: MIFKUJ_clean_linker_0, # of connection points: 2
#     Edge 52, Type (0, 1), BuildingBlock: MIFKUJ_clean_linker_0, # of connection points: 2
#     Edge 53, Type (0, 1), BuildingBlock: MIFKUJ_clean_linker_0, # of connection points: 2
#     Edge 54, Type (0, 1), BuildingBlock: MIFKUJ_clean_linker_0, # of connection points: 2
#     Edge 55, Type (0, 1), BuildingBlock: MIFKUJ_clean_linker_0, # of connection points: 2
#     Edge 56, Type (0, 1), BuildingBlock: MIFKUJ_clean_linker_0, # of connection points: 2
#     Edge 57, Type (0, 1), BuildingBlock: MIFKUJ_clean_linker_0, # of connection points: 2
#     Edge 58, Type (0, 1), BuildingBlock: MIFKUJ_clean_linker_0, # of connection points: 2
#     Edge 59, Type (0, 1), BuildingBlock: MIFKUJ_clean_linker_0, # of connection points: 2
#     Edge 60, Type (0, 1), BuildingBlock: MIFKUJ_clean_linker_0, # of connection points: 2
#     Edge 61, Type (0, 1), BuildingBlock: MIFKUJ_clean_linker_0, # of connection points: 2
# Relax obj value: 0.240
# Max RMSD: 0.317
# Mean RMSD: 0.221
data_MOF--net-ocu--node1-JUFBIX_clean_sbu_0--node2-GIZVER_clean_sbu_0--edge1-MIFKUJ_clean_linker_0
_symmetry_space_group_name_H-M    P1
_symmetry_Int_Tables_number       1
_symmetry_cell_setting            triclinic
loop_
_symmetry_equiv_pos_as_xyz
'x, y, z'
_cell_length_a     51.808116
_cell_length_b     54.705569
_cell_length_c     39.140812
_cell_angle_alpha  92.141256
_cell_angle_beta   93.650908
_cell_angle_gamma 98.826537
loop_
_atom_site_label
_atom_site_type_symbol
_atom_site_fract_x
_atom_site_fract_y
_atom_site_fract_z
_atom_type_partial_charge
Co0 Co 0.24979 0.25017 0.25175 0.0
C1 C 0.24366 0.29078 0.29593 0.0
Co2 Co 0.28353 0.28004 0.25526 0.0
C3 C 0.21946 0.20201 0.25895 0.0
C4 C 0.19588 0.22839 0.24091 0.0
N5 N 0.22086 0.2256 0.24935 0.0
N6 N 0.19457 0.19008 0.25726 0.0
C7 C 0.17972 0.20663 0.24566 0.0
H8 H 0.23628 0.19402 0.26819 0.0
H9 H 0.1896 0.24553 0.23356 0.0
C10 C 0.28955 0.23932 0.21098 0.0
N11 N 0.31242 0.3048 0.25794 0.0
C12 C 0.31361 0.32878 0.25011 0.0
C13 C 0.3373 0.30238 0.26783 0.0
N14 N 0.33817 0.34135 0.25496 0.0
C15 C 0.35312 0.32481 0.26615 0.0
C16 C 0.28909 0.24239 0.30129 0.0
O17 O 0.26654 0.23119 0.21946 0.0
O18 O 0.30019 0.26095 0.22238 0.0
O19 O 0.29987 0.26327 0.29172 0.0
O20 O 0.26619 0.23378 0.28837 0.0
O21 O 0.26682 0.29888 0.288 0.0
H22 H 0.34372 0.28527 0.27501 0.0
H23 H 0.29687 0.33686 0.24073 0.0
O24 O 0.23303 0.2693 0.2841 0.0
O25 O 0.23361 0.2666 0.21522 0.0
O26 O 0.2668 0.29664 0.21886 0.0
C27 C 0.24397 0.28768 0.20591 0.0
H28 H 0.15854 0.20383 0.24308 0.0
H29 H 0.37418 0.32842 0.27122 0.0
Co30 Co 0.77541 0.26435 0.23742 0.0
C31 C 0.79026 0.30059 0.29051 0.0
Co32 Co 0.7497 0.26205 0.27999 0.0
C33 C 0.80649 0.29015 0.18965 0.0
C34 C 0.81114 0.25195 0.18785 0.0
N35 N 0.79766 0.26824 0.20258 0.0
N36 N 0.8253 0.28847 0.16794 0.0
C37 C 0.82842 0.26444 0.16668 0.0
H38 H 0.80065 0.30744 0.19809 0.0
H39 H 0.80952 0.2326 0.19356 0.0
C40 C 0.73514 0.22582 0.2267 0.0
N41 N 0.72753 0.25863 0.31491 0.0
C42 C 0.71695 0.23699 0.32707 0.0
C43 C 0.71657 0.276 0.33162 0.0
N44 N 0.69952 0.23992 0.35039 0.0
C45 C 0.69914 0.26449 0.3534 0.0
C46 C 0.73365 0.2917 0.22866 0.0
O47 O 0.75536 0.23653 0.21352 0.0
O48 O 0.72911 0.23413 0.25539 0.0
O49 O 0.72838 0.28345 0.25778 0.0
O50 O 0.75356 0.28568 0.21494 0.0
O51 O 0.77025 0.28986 0.30414 0.0
H52 H 0.7203 0.2956 0.32731 0.0
H53 H 0.7209 0.2192 0.31745 0.0
O54 O 0.79576 0.2923 0.26159 0.0
O55 O 0.79687 0.24294 0.25997 0.0
O56 O 0.77107 0.24044 0.30223 0.0
C57 C 0.79101 0.2343 0.28874 0.0
H58 H 0.84289 0.25673 0.15268 0.0
H59 H 0.68669 0.27339 0.3694 0.0
Co60 Co 0.7588 0.74984 0.27228 0.0
C61 C 0.80198 0.78765 0.2846 0.0
Co62 Co 0.76475 0.77617 0.23148 0.0
C63 C 0.77536 0.71774 0.32117 0.0
C64 C 0.73625 0.72364 0.32895 0.0
N65 N 0.75578 0.72873 0.3078 0.0
N66 N 0.76908 0.70626 0.34993 0.0
C67 C 0.74453 0.70993 0.35524 0.0
H68 H 0.79454 0.71941 0.31117 0.0
H69 H 0.71768 0.73036 0.32629 0.0
C70 C 0.72153 0.73835 0.21922 0.0
N71 N 0.76785 0.7974 0.19597 0.0
C72 C 0.74827 0.80834 0.18248 0.0
C73 C 0.78787 0.80357 0.17588 0.0
N74 N 0.75505 0.82099 0.15476 0.0
C75 C 0.77992 0.81799 0.15019 0.0
C76 C 0.79045 0.73508 0.22137 0.0
O77 O 0.72832 0.73176 0.24882 0.0
O78 O 0.73477 0.7572 0.20717 0.0
O79 O 0.78681 0.75569 0.20937 0.0
O80 O 0.77988 0.72873 0.24888 0.0
O81 O 0.79448 0.79489 0.25568 0.0
H82 H 0.80669 0.79739 0.17907 0.0
H83 H 0.72887 0.80607 0.19184 0.0
O84 O 0.7895 0.76815 0.29594 0.0
O85 O 0.73776 0.77081 0.29514 0.0
O86 O 0.74269 0.79673 0.25412 0.0
C87 C 0.7331 0.79087 0.28241 0.0
H88 H 0.73368 0.70361 0.37682 0.0
H89 H 0.79132 0.82541 0.12964 0.0
Co90 Co 0.24488 0.77674 0.24383 0.0
C91 C 0.27937 0.79301 0.29965 0.0
Co92 Co 0.27428 0.75266 0.25241 0.0
C93 C 0.2054 0.80591 0.25679 0.0
C94 C 0.21462 0.8066 0.2043 0.0
N95 N 0.22039 0.79671 0.23441 0.0
N96 N 0.19064 0.82135 0.24204 0.0
C97 C 0.1964 0.82204 0.20902 0.0
H98 H 0.20624 0.80227 0.28381 0.0
H99 H 0.22363 0.80332 0.18071 0.0
C100 C 0.23948 0.73673 0.19647 0.0
N101 N 0.29889 0.73241 0.26166 0.0
C102 C 0.30816 0.71745 0.23903 0.0
C103 C 0.31073 0.72841 0.2923 0.0
N104 N 0.32512 0.7043 0.25423 0.0
C105 C 0.32722 0.71125 0.28769 0.0
C106 C 0.22714 0.73641 0.28531 0.0
O107 O 0.23058 0.75617 0.20525 0.0
O108 O 0.25971 0.73168 0.2131 0.0
O109 O 0.25014 0.73197 0.28038 0.0
O110 O 0.22054 0.75596 0.27257 0.0
O111 O 0.28839 0.77352 0.29125 0.0
H112 H 0.30741 0.73716 0.31652 0.0
H113 H 0.30283 0.71632 0.21175 0.0
O114 O 0.25917 0.79788 0.28276 0.0
O115 O 0.269 0.79719 0.21551 0.0
O116 O 0.29881 0.77354 0.22416 0.0
C117 C 0.2921 0.79292 0.211 0.0
H118 H 0.1884 0.83321 0.19 0.0
H119 H 0.33941 0.70414 0.30724 0.0
Co120 Co 0.27539 0.75898 0.72871 0.0
C121 C 0.28969 0.79511 0.7822 0.0
Co122 Co 0.24946 0.75662 0.7711 0.0
C123 C 0.31119 0.783 0.68338 0.0
C124 C 0.31124 0.74386 0.68238 0.0
N125 N 0.29881 0.76181 0.69505 0.0
N126 N 0.33117 0.77906 0.66466 0.0
C127 C 0.33151 0.75453 0.66406 0.0
H128 H 0.3073 0.80121 0.69122 0.0
H129 H 0.30721 0.72458 0.68843 0.0
C130 C 0.23491 0.72095 0.71696 0.0
N131 N 0.226 0.75294 0.80472 0.0
C132 C 0.21546 0.73095 0.81611 0.0
C133 C 0.2123 0.76952 0.81834 0.0
N134 N 0.19536 0.73291 0.83561 0.0
C135 C 0.19317 0.75714 0.83714 0.0
C136 C 0.23504 0.78698 0.71916 0.0
O137 O 0.25598 0.73075 0.70489 0.0
O138 O 0.22843 0.72971 0.74509 0.0
O139 O 0.22997 0.77946 0.74873 0.0
O140 O 0.25398 0.77973 0.7045 0.0
O141 O 0.27037 0.78363 0.79657 0.0
H142 H 0.21487 0.78898 0.81307 0.0
H143 H 0.22094 0.71347 0.80776 0.0
O144 O 0.29477 0.7874 0.75274 0.0
O145 O 0.29667 0.73841 0.75314 0.0
O146 O 0.26931 0.73386 0.7935 0.0
C147 C 0.29011 0.72893 0.78108 0.0
H148 H 0.34638 0.74532 0.65322 0.0
H149 H 0.17806 0.7651 0.84946 0.0
Co150 Co 0.26208 0.24868 0.76903 0.0
C151 C 0.30469 0.28705 0.779 0.0
Co152 Co 0.26687 0.2738 0.72655 0.0
C153 C 0.27766 0.22397 0.82823 0.0
C154 C 0.23603 0.21793 0.81838 0.0
N155 N 0.25845 0.22891 0.80601 0.0
N156 N 0.26818 0.21055 0.85406 0.0
C157 C 0.242 0.20637 0.84787 0.0
H158 H 0.29829 0.23001 0.82546 0.0
H159 H 0.21658 0.21866 0.80707 0.0
C160 C 0.22452 0.23528 0.7163 0.0
N161 N 0.26912 0.29344 0.68906 0.0
C162 C 0.24901 0.30404 0.67628 0.0
C163 C 0.28632 0.29525 0.66438 0.0
N164 N 0.25261 0.31193 0.64462 0.0
C165 C 0.27596 0.30637 0.63665 0.0
C166 C 0.29363 0.2327 0.71977 0.0
O167 O 0.23235 0.22907 0.74561 0.0
O168 O 0.23657 0.25447 0.70382 0.0
O169 O 0.28841 0.25217 0.7057 0.0
O170 O 0.28426 0.22753 0.74845 0.0
O171 O 0.2973 0.29317 0.74931 0.0
H172 H 0.30418 0.28725 0.66525 0.0
H173 H 0.23075 0.30367 0.68838 0.0
O174 O 0.2919 0.26834 0.79185 0.0
O175 O 0.24023 0.2698 0.78989 0.0
O176 O 0.24517 0.29514 0.74814 0.0
C177 C 0.23555 0.28963 0.77649 0.0
H178 H 0.22824 0.19612 0.8638 0.0
H179 H 0.28418 0.30892 0.61206 0.0
Co180 Co 0.75288 0.26832 0.74432 0.0
C181 C 0.78856 0.28196 0.80015 0.0
Co182 Co 0.78183 0.24358 0.74995 0.0
C183 C 0.7127 0.29439 0.76262 0.0
C184 C 0.72052 0.29984 0.71024 0.0
N185 N 0.72838 0.28882 0.7385 0.0
N186 N 0.695 0.3081 0.75067 0.0
C187 C 0.69994 0.31194 0.71777 0.0
H188 H 0.71426 0.28842 0.78863 0.0
H189 H 0.72881 0.29869 0.68566 0.0
C190 C 0.74628 0.22999 0.69413 0.0
N191 N 0.80567 0.22251 0.75646 0.0
C192 C 0.79994 0.19766 0.75364 0.0
C193 C 0.83133 0.22748 0.76656 0.0
N194 N 0.82099 0.18669 0.7612 0.0
C195 C 0.84086 0.20544 0.7694 0.0
C196 C 0.73496 0.22651 0.78343 0.0
O197 O 0.7374 0.24908 0.70464 0.0
O198 O 0.7668 0.22453 0.70955 0.0
O199 O 0.75766 0.22188 0.77737 0.0
O200 O 0.72881 0.24666 0.77235 0.0
O201 O 0.7969 0.26247 0.79009 0.0
H202 H 0.8424 0.24588 0.7711 0.0
H203 H 0.78061 0.18784 0.74571 0.0
O204 O 0.76841 0.28787 0.78427 0.0
O205 O 0.77667 0.28971 0.71652 0.0
O206 O 0.80611 0.26529 0.72223 0.0
C207 C 0.79951 0.28521 0.71062 0.0
H208 H 0.6891 0.32219 0.70033 0.0
H209 H 0.86112 0.20349 0.7752 0.0
Co210 Co 0.7486 0.74142 0.74824 0.0
C211 C 0.74223 0.78158 0.79332 0.0
Co212 Co 0.78261 0.77095 0.75374 0.0
C213 C 0.71778 0.69282 0.75227 0.0
C214 C 0.69499 0.71941 0.73288 0.0
N215 N 0.71954 0.71677 0.7441 0.0
N216 N 0.69318 0.68049 0.7464 0.0
C217 C 0.6788 0.69715 0.73413 0.0
H218 H 0.73409 0.68461 0.76278 0.0
H219 H 0.68896 0.73658 0.72521 0.0
C220 C 0.7895 0.73115 0.70868 0.0
N221 N 0.81126 0.79556 0.75761 0.0
C222 C 0.81146 0.81984 0.75271 0.0
C223 C 0.83663 0.79299 0.76292 0.0
N224 N 0.83599 0.83257 0.7541 0.0
C225 C 0.85188 0.81569 0.76074 0.0
C226 C 0.78691 0.73292 0.799 0.0
O227 O 0.76611 0.72286 0.71562 0.0
O228 O 0.79992 0.75241 0.72149 0.0
O229 O 0.79811 0.75392 0.79035 0.0
O230 O 0.76433 0.72441 0.78483 0.0
O231 O 0.76553 0.78934 0.78585 0.0
H232 H 0.84361 0.77556 0.76659 0.0
H233 H 0.79389 0.82781 0.74717 0.0
O234 O 0.73124 0.76031 0.78092 0.0
O235 O 0.73322 0.75855 0.71177 0.0
O236 O 0.7668 0.78811 0.71709 0.0
C237 C 0.74412 0.77964 0.70324 0.0
H238 H 0.65782 0.69378 0.72817 0.0
H239 H 0.87305 0.81912 0.76187 0.0
Co240 Co 0.04725 0.96343 0.50871 0.0
Co241 Co 0.04792 0.98585 0.56655 0.0
Co242 Co 1.01075 0.00981 0.50864 0.0
O243 O 0.04314 0.99608 0.52273 0.0
H244 H 0.05841 1.00783 0.51835 0.0
O245 O 0.97813 0.02331 0.49422 0.0
Co246 Co 0.97366 0.05457 0.51278 0.0
Co247 Co 0.97433 0.03755 0.45335 0.0
H248 H 0.9629 0.01098 0.49651 0.0
O249 O 0.08085 0.98365 0.5884 0.0
O250 O 0.05434 0.95378 0.55677 0.0
O251 O 0.01758 0.98598 0.59139 0.0
O252 O 0.99101 0.99698 0.54903 0.0
O253 O 0.02634 0.04022 0.53676 0.0
O254 O 0.96664 0.08156 0.53352 0.0
O255 O 0.94015 0.04508 0.52067 0.0
O256 O 1.00894 0.06809 0.50767 0.0
O257 O 0.03051 0.02294 0.46843 0.0
O258 O 1.00587 0.04067 0.43016 0.0
O259 O 0.96431 0.06766 0.46701 0.0
O260 O 0.94178 0.03812 0.43026 0.0
C261 C 0.07736 0.94855 0.49159 0.0
C262 C 0.99387 0.95726 0.49008 0.0
C263 C 0.99524 0.98991 0.57952 0.0
C264 C 0.07546 0.96072 0.57689 0.0
C265 C 0.94486 0.06669 0.5368 0.0
C266 C 0.02732 0.06223 0.52708 0.0
C267 C 0.02738 0.03384 0.44033 0.0
C268 C 0.9447 0.06037 0.44438 0.0
O269 O 0.05473 0.93473 0.49361 0.0
O270 O 0.08125 0.97152 0.5031 0.0
O271 O 0.99549 0.97938 0.48055 0.0
O272 O 1.01101 0.95121 0.51149 0.0
Co273 Co 0.55 0.96731 0.95691 0.0
Co274 Co 0.52686 0.95926 0.00742 0.0
Co275 Co 0.51245 0.01109 0.99767 0.0
O276 O 0.54172 0.98996 0.99505 0.0
H277 H 0.55692 0.99648 0.01012 0.0
O278 O 0.48257 0.03069 1.00088 0.0
Co279 Co 0.48214 0.05957 0.03118 0.0
Co280 Co 0.48159 0.05242 0.96626 0.0
H281 H 0.46597 0.01979 1.00021 0.0
O282 O 0.5454 0.94809 0.04157 0.0
O283 O 0.54244 0.93738 0.98449 0.0
O284 O 0.48997 0.95039 0.00883 0.0
O285 O 0.49037 0.98791 0.03175 0.0
O286 O 0.53291 0.03168 0.03687 0.0
O287 O 0.47959 0.08574 0.05914 0.0
O288 O 0.44691 0.05571 0.03989 0.0
O289 O 0.51862 0.06761 0.02738 0.0
O290 O 0.5354 0.03466 0.96497 0.0
O291 O 0.51255 0.06262 0.94379 0.0
O292 O 0.47425 0.07915 0.99109 0.0
O293 O 0.44977 0.0565 0.94758 0.0
C294 C 0.58233 0.95189 0.93942 0.0
C295 C 0.49376 0.97296 0.93966 0.0
C296 C 0.48033 0.96448 0.02899 0.0
C297 C 0.55136 0.93462 0.01602 0.0
C298 C 0.45481 0.07667 0.05761 0.0
C299 C 0.53633 0.05546 0.03854 0.0
C300 C 0.53383 0.05398 0.94684 0.0
C301 C 0.45299 0.07475 0.9705 0.0
O302 O 0.55927 0.94791 0.92341 0.0
O303 O 0.58583 0.96684 0.96703 0.0
O304 O 0.49139 0.99207 0.95812 0.0
O305 O 0.51471 0.9635 0.94023 0.0
Co306 Co 0.04583 0.45892 0.9812 0.0
Co307 Co 0.05611 0.47911 0.04113 0.0
Co308 Co 0.0123 0.50884 0.00345 0.0
O309 O 0.04497 0.4922 1.00081 0.0
H310 H 0.05932 0.50372 0.99334 0.0
O311 O 0.97967 0.52566 0.00616 0.0
Co312 Co 0.97898 0.55974 0.02378 0.0
Co313 Co 0.96853 0.53731 0.96479 0.0
H314 H 0.96539 0.51444 0.01438 0.0
O315 O 0.09072 0.47615 0.05226 0.0
O316 O 0.05937 0.44681 0.02662 0.0
O317 O 0.03208 0.47771 0.07627 0.0
O318 O 1.00011 0.49199 0.04578 0.0
O319 O 0.03389 0.53665 0.03191 0.0
O320 O 0.9758 0.58974 0.04224 0.0
O321 O 0.94489 0.55599 0.03672 0.0
O322 O 0.01512 0.5687 0.01454 0.0
O323 O 0.02466 0.52588 0.96123 0.0
O324 O 0.99168 0.53672 0.92884 0.0
O325 O 0.96629 0.57027 0.97721 0.0
O326 O 0.93424 0.54066 0.95362 0.0
C327 C 0.07256 0.44107 0.95523 0.0
C328 C 0.99009 0.45759 0.97908 0.0
C329 C 1.00874 0.48207 0.07238 0.0
C330 C 0.08262 0.45308 0.04273 0.0
C331 C 0.95215 0.57922 0.04722 0.0
C332 C 0.03463 0.55987 0.02812 0.0
C333 C 0.01553 0.53418 0.93361 0.0
C334 C 0.94284 0.56389 0.96166 0.0
O335 O 0.04932 0.42971 0.96075 0.0
O336 O 0.07939 0.46405 0.96702 0.0
O337 O 0.99058 0.4808 0.97508 0.0
O338 O 1.01013 0.44899 0.99149 0.0
Co339 Co 0.54027 0.45802 0.00398 0.0
Co340 Co 0.5519 0.48772 0.05619 0.0
Co341 Co 0.51401 0.51069 1.00046 0.0
O342 O 0.54456 0.49323 0.01085 0.0
H343 H 0.56015 0.50144 1.0013 0.0
O344 O 0.48325 0.52764 0.98999 0.0
Co345 Co 0.4853 0.5622 0.99881 0.0
Co346 Co 0.47557 0.53372 0.945 0.0
H347 H 0.46774 0.51856 0.99867 0.0
O348 O 0.58508 0.48319 0.07288 0.0
O349 O 0.55192 0.45347 0.05314 0.0
O350 O 0.52614 0.49564 0.0859 0.0
O351 O 0.49645 0.50117 0.04398 0.0
O352 O 0.53426 0.54087 0.02481 0.0
O353 O 0.48407 0.59362 0.00987 0.0
O354 O 0.45241 0.56028 0.00983 0.0
O355 O 0.52122 0.5681 0.98991 0.0
O356 O 0.53147 0.52039 0.95695 0.0
O357 O 0.50203 0.52746 0.91544 0.0
O358 O 0.47459 0.56767 0.94976 0.0
O359 O 0.44196 0.53795 0.92863 0.0
C360 C 0.56252 0.43411 0.98611 0.0
C361 C 0.48969 0.45953 0.98879 0.0
C362 C 0.50303 0.49829 0.07554 0.0
C363 C 0.57555 0.45984 0.06791 0.0
C364 C 0.46063 0.58374 0.01685 0.0
C365 C 0.53759 0.56233 0.01268 0.0
C366 C 0.52504 0.52435 0.92567 0.0
C367 C 0.45109 0.56128 0.9348 0.0
O368 O 0.53904 0.42615 0.99487 0.0
O369 O 0.57261 0.45738 0.99152 0.0
O370 O 0.49399 0.48067 0.97597 0.0
O371 O 0.50455 0.45455 0.01391 0.0
Co372 Co 0.05946 0.46975 0.50617 0.0
Co373 Co 0.05092 0.48324 0.44644 0.0
Co374 Co 0.01564 0.5107 0.50059 0.0
O375 O 0.02992 0.48064 0.48284 0.0
H376 H 0.0158 0.46697 0.47789 0.0
O377 O 1.00146 0.54077 0.51856 0.0
Co378 Co 0.97223 0.55178 0.49493 0.0
Co379 Co 0.97994 0.53792 0.55454 0.0
H380 H 0.0156 0.55437 0.52384 0.0
O381 O 0.05334 0.45587 0.41686 0.0
O382 O 0.07972 0.46958 0.46367 0.0
O383 O 0.06189 0.51671 0.43488 0.0
O384 O 0.04064 0.53654 0.4728 0.0
O385 O 0.98909 0.50507 0.46072 0.0
O386 O 0.94757 0.56455 0.47238 0.0
O387 O 0.98416 0.58457 0.50175 0.0
O388 O 0.95604 0.51863 0.48453 0.0
O389 O 0.99051 0.48486 0.52808 0.0
O390 O 0.96785 0.50436 0.56463 0.0
O391 O 0.95186 0.55257 0.53729 0.0
O392 O 0.97782 0.5649 0.58491 0.0
C393 C 0.0692 0.43637 0.51819 0.0
C394 C 0.06654 0.51745 0.53801 0.0
C395 C 0.057 0.53681 0.44857 0.0
C396 C 0.07442 0.4548 0.43622 0.0
C397 C 0.9626 0.58504 0.48288 0.0
C398 C 0.96466 0.50358 0.46428 0.0
C399 C 0.97324 0.4844 0.55116 0.0
C400 C 0.95725 0.56699 0.56511 0.0
O401 O 0.08435 0.45688 0.52841 0.0
O402 O 0.04773 0.43699 0.49915 0.0
O403 O 0.04203 0.5163 0.5406 0.0
O404 O 0.07537 0.50291 0.51719 0.0
Co405 Co 0.56573 0.97503 0.51952 0.0
Co406 Co 0.54473 0.97319 0.45941 0.0
Co407 Co 0.51267 1.00882 0.50544 0.0
O408 O 0.53028 0.97783 0.50064 0.0
H409 H 0.51816 0.96312 0.50478 0.0
O410 O 0.49505 0.03982 0.51068 0.0
Co411 Co 0.46035 0.04342 0.48975 0.0
Co412 Co 0.47891 0.04357 0.55128 0.0
H413 H 0.50748 0.05457 0.50781 0.0
O414 O 0.54509 0.94199 0.44036 0.0
O415 O 0.57771 0.96586 0.47288 0.0
O416 O 0.54846 1.00128 0.43178 0.0
O417 O 0.52804 0.02544 0.46473 0.0
O418 O 0.48192 0.99098 0.47596 0.0
O419 O 0.43012 0.04917 0.46899 0.0
O420 O 0.46652 0.0768 0.4814 0.0
O421 O 0.44882 1.00888 0.4939 0.0
O422 O 0.49731 0.99226 0.54606 0.0
O423 O 0.47522 0.015 0.57876 0.0
O424 O 0.44651 0.0514 0.53563 0.0
O425 O 0.47751 0.0743 0.57182 0.0
C426 C 0.5851 0.94749 0.54111 0.0
C427 C 0.56782 0.02754 0.52888 0.0
C428 C 0.54087 0.02176 0.43869 0.0
C429 C 0.56941 0.94621 0.45245 0.0
C430 C 0.44234 0.07172 0.46797 0.0
C431 C 0.45751 0.99066 0.47974 0.0
C432 C 0.48393 0.99506 0.57184 0.0
C433 C 0.4539 0.07049 0.55726 0.0
O434 O 0.59684 0.97008 0.53859 0.0
O435 O 0.56051 0.9419 0.52945 0.0
O436 O 0.54362 0.02649 0.53474 0.0
O437 O 0.57629 1.00964 0.51349 0.0
H438 H 0.21807 0.16745 0.30874 0.0
H439 H 0.19752 0.13252 0.33991 0.0
H440 H 0.12865 0.12556 0.27027 0.0
H441 H 0.14923 0.15992 0.23837 0.0
H442 H 0.12536 0.13883 0.34605 0.0
H443 H 0.15751 0.08182 0.2656 0.0
H444 H 0.19251 0.06444 0.23783 0.0
H445 H 0.22463 0.04655 0.33594 0.0
H446 H 0.19004 0.06422 0.36437 0.0
H447 H 0.02713 0.04717 0.37408 0.0
H448 H 0.06443 0.06611 0.34432 0.0
H449 H 0.11678 0.05553 0.43071 0.0
H450 H 0.0794 0.03632 0.46098 0.0
H451 H 0.13578 0.0506 0.35621 0.0
H452 H 0.10689 0.10601 0.43791 0.0
H453 H 0.07367 0.12336 0.46943 0.0
H454 H 0.03936 0.14565 0.37512 0.0
H455 H 0.07232 0.12819 0.34296 0.0
C456 C 0.19895 0.15795 0.29926 0.0
C457 C 0.18505 0.16674 0.27138 0.0
C458 C 0.18725 0.13802 0.31718 0.0
C459 C 0.16162 0.12669 0.30737 0.0
C460 C 0.14849 0.1342 0.27814 0.0
C461 C 0.16018 0.15393 0.26013 0.0
C462 C 0.14673 0.11 0.33031 0.0
C463 C 0.12767 0.11955 0.34825 0.0
C464 C 0.15066 0.08523 0.33432 0.0
C465 C 0.1714 0.07467 0.31714 0.0
C466 C 0.17222 0.07447 0.2813 0.0
C467 C 0.19194 0.06449 0.26543 0.0
C468 C 0.21085 0.05449 0.28512 0.0
C469 C 0.21002 0.05437 0.32072 0.0
C470 C 0.19035 0.06435 0.33672 0.0
C471 C 0.04659 0.04832 0.38654 0.0
C472 C 0.05027 0.04069 0.42012 0.0
C473 C 0.06788 0.05896 0.36938 0.0
C474 C 0.09319 0.06229 0.3855 0.0
C475 C 0.09734 0.05291 0.41787 0.0
C476 C 0.07594 0.0421 0.43513 0.0
C477 C 0.11388 0.07933 0.37068 0.0
C478 C 0.13396 0.07002 0.35449 0.0
C479 C 0.1115 0.10462 0.36888 0.0
C480 C 0.09194 0.11564 0.38803 0.0
C481 C 0.09216 0.11448 0.42388 0.0
C482 C 0.07339 0.12434 0.44187 0.0
C483 C 0.05434 0.13552 0.42429 0.0
C484 C 0.05412 0.13697 0.3887 0.0
C485 C 0.07288 0.12714 0.37058 0.0
H486 H 0.03979 0.14311 0.43827 0.0
H487 H 0.22609 0.04675 0.27278 0.0
H488 H 0.78503 0.21422 0.35167 0.0
H489 H 0.81082 0.18595 0.38007 0.0
H490 H 0.85826 0.18604 0.29344 0.0
H491 H 0.83294 0.21481 0.26531 0.0
H492 H 0.81837 0.14105 0.36769 0.0
H493 H 0.91955 0.17631 0.31721 0.0
H494 H 0.94468 0.21531 0.29965 0.0
H495 H 0.90097 0.25703 0.36335 0.0
H496 H 0.8758 0.21835 0.38152 0.0
H497 H 0.90384 0.0522 0.39484 0.0
H498 H 0.87782 0.08205 0.37117 0.0
H499 H 0.9207 0.13944 0.44035 0.0
H500 H 0.94709 0.10967 0.46394 0.0
H501 H 0.91546 0.15718 0.37901 0.0
H502 H 0.85674 0.11316 0.45234 0.0
H503 H 0.83161 0.07661 0.47639 0.0
H504 H 0.79029 0.05654 0.37832 0.0
H505 H 0.81546 0.0928 0.35354 0.0
C506 C 0.80105 0.20836 0.33867 0.0
C507 C 0.80692 0.21705 0.30617 0.0
C508 C 0.81578 0.19202 0.35495 0.0
C509 C 0.83686 0.18386 0.3393 0.0
C510 C 0.84254 0.1923 0.30662 0.0
C511 C 0.8279 0.20875 0.2904 0.0
C512 C 0.85266 0.16644 0.35701 0.0
C513 C 0.8396 0.14463 0.37003 0.0
C514 C 0.88044 0.17107 0.36101 0.0
C515 C 0.89562 0.19443 0.35042 0.0
C516 C 0.91537 0.19382 0.32752 0.0
C517 C 0.9296 0.21588 0.31744 0.0
C518 C 0.92436 0.23865 0.33026 0.0
C519 C 0.90494 0.23941 0.35328 0.0
C520 C 0.89066 0.21743 0.36345 0.0
C521 C 0.9077 0.07112 0.40528 0.0
C522 C 0.92769 0.07839 0.43143 0.0
C523 C 0.89266 0.08824 0.3917 0.0
C524 C 0.897 0.11315 0.40398 0.0
C525 C 0.91687 0.12043 0.43024 0.0
C526 C 0.93192 0.10329 0.44388 0.0
C527 C 0.88118 0.13158 0.38901 0.0
C528 C 0.89423 0.15356 0.37653 0.0
C529 C 0.85339 0.12738 0.38621 0.0
C530 C 0.83817 0.10558 0.40101 0.0
C531 C 0.84244 0.10085 0.43583 0.0
C532 C 0.82816 0.0802 0.44961 0.0
C533 C 0.80941 0.06423 0.42888 0.0
C534 C 0.80485 0.06891 0.39434 0.0
C535 C 0.8191 0.08952 0.38042 0.0
H536 H 0.79837 0.04825 0.43959 0.0
H537 H 0.93541 0.2557 0.32241 0.0
H538 H 0.82475 0.83513 0.2758 0.0
H539 H 0.85832 0.8609 0.31334 0.0
H540 H 0.86232 0.79996 0.37929 0.0
H541 H 0.82793 0.77421 0.34236 0.0
H542 H 0.86354 0.83937 0.41722 0.0
H543 H 0.91144 0.81956 0.32315 0.0
H544 H 0.92123 0.81475 0.26266 0.0
H545 H 0.92469 0.89298 0.25183 0.0
H546 H 0.91457 0.89822 0.31215 0.0
H547 H 0.98362 0.90763 0.5025 0.0
H548 H 0.95174 0.87576 0.4705 0.0
H549 H 0.92643 0.93145 0.40684 0.0
H550 H 0.95781 0.96328 0.43853 0.0
H551 H 0.93943 0.89044 0.37008 0.0
H552 H 0.88906 0.90823 0.46599 0.0
H553 H 0.88185 0.91146 0.52758 0.0
H554 H 0.88618 0.83414 0.53589 0.0
H555 H 0.89386 0.83052 0.47444 0.0
C556 C 0.83297 0.82709 0.29807 0.0
C557 C 0.82381 0.80257 0.30595 0.0
C558 C 0.85226 0.84183 0.31951 0.0
C559 C 0.8633 0.83223 0.34886 0.0
C560 C 0.85424 0.8077 0.35671 0.0
C561 C 0.83466 0.79301 0.3355 0.0
C562 C 0.88381 0.84807 0.37165 0.0
C563 C 0.88037 0.8502 0.40695 0.0
C564 C 0.90582 0.86228 0.35841 0.0
C565 C 0.91206 0.85925 0.32213 0.0
C566 C 0.91412 0.83571 0.30782 0.0
C567 C 0.91975 0.83291 0.27356 0.0
C568 C 0.92353 0.85354 0.2534 0.0
C569 C 0.92175 0.87702 0.26748 0.0
C570 C 0.9161 0.87992 0.30171 0.0
C571 C 0.97109 0.91311 0.4819 0.0
C572 C 0.9734 0.938 0.47297 0.0
C573 C 0.95289 0.89489 0.4637 0.0
C574 C 0.93683 0.90129 0.43627 0.0
C575 C 0.93874 0.92614 0.42783 0.0
C576 C 0.95668 0.94432 0.44608 0.0
C577 C 0.91867 0.88219 0.41519 0.0
C578 C 0.92269 0.87939 0.38026 0.0
C579 C 0.89753 0.8671 0.42891 0.0
C580 C 0.89241 0.86919 0.4657 0.0
C581 C 0.8887 0.89196 0.481 0.0
C582 C 0.88449 0.89385 0.51587 0.0
C583 C 0.88371 0.87306 0.53566 0.0
C584 C 0.8869 0.85026 0.52055 0.0
C585 C 0.89117 0.84827 0.4857 0.0
H586 H 0.88066 0.87462 0.56268 0.0
H587 H 0.92788 0.85133 0.22688 0.0
H588 H 0.16051 0.80738 0.2931 0.0
H589 H 0.14067 0.83452 0.33079 0.0
H590 H 0.16596 0.89643 0.26923 0.0
H591 H 0.18639 0.86914 0.23162 0.0
H592 H 0.18125 0.90581 0.337 0.0
H593 H 0.10176 0.87691 0.27137 0.0
H594 H 0.0674 0.8465 0.2403 0.0
H595 H 0.05124 0.81038 0.33385 0.0
H596 H 0.08575 0.84033 0.36542 0.0
H597 H 0.11264 0.97452 0.45326 0.0
H598 H 0.13493 0.95705 0.40744 0.0
H599 H 0.10919 0.88353 0.4411 0.0
H600 H 0.08597 0.90095 0.48608 0.0
H601 H 0.09223 0.88715 0.3784 0.0
H602 H 0.17759 0.91283 0.44124 0.0
H603 H 0.21223 0.94339 0.47143 0.0
H604 H 0.21707 0.98648 0.3819 0.0
H605 H 0.18219 0.95621 0.35141 0.0
C606 C 0.16137 0.82668 0.28731 0.0
C607 C 0.175 0.8363 0.25978 0.0
C608 C 0.14993 0.84212 0.30862 0.0
C609 C 0.15179 0.86741 0.30258 0.0
C610 C 0.1643 0.87691 0.27409 0.0
C611 C 0.17571 0.86134 0.25258 0.0
C612 C 0.1429 0.88391 0.32831 0.0
C613 C 0.16162 0.90217 0.34572 0.0
C614 C 0.1174 0.8789 0.3396 0.0
C615 C 0.09644 0.86087 0.32076 0.0
C616 C 0.09099 0.8624 0.2853 0.0
C617 C 0.07147 0.84525 0.2676 0.0
C618 C 0.05716 0.82651 0.28508 0.0
C619 C 0.06233 0.82492 0.32033 0.0
C620 C 0.08184 0.84201 0.33816 0.0
C621 C 0.11265 0.9547 0.45167 0.0
C622 C 0.09732 0.93894 0.47262 0.0
C623 C 0.12543 0.94474 0.42549 0.0
C624 C 0.12356 0.91898 0.42072 0.0
C625 C 0.11064 0.90347 0.44419 0.0
C626 C 0.09747 0.91338 0.46989 0.0
C627 C 0.13107 0.9079 0.38862 0.0
C628 C 0.11184 0.89097 0.36966 0.0
C629 C 0.15605 0.91425 0.37593 0.0
C630 C 0.17705 0.93239 0.39426 0.0
C631 C 0.18585 0.92892 0.42817 0.0
C632 C 0.20559 0.94616 0.44528 0.0
C633 C 0.21679 0.96692 0.42864 0.0
C634 C 0.20834 0.97041 0.3948 0.0
C635 C 0.18861 0.95319 0.37758 0.0
H636 H 0.23207 0.98027 0.44192 0.0
H637 H 0.04206 0.81325 0.27133 0.0
H638 H 0.2277 0.83217 0.74441 0.0
H639 H 0.20149 0.86102 0.71832 0.0
H640 H 0.17865 0.80897 0.63199 0.0
H641 H 0.20701 0.78124 0.65691 0.0
H642 H 0.18143 0.8489 0.60706 0.0
H643 H 0.13741 0.82164 0.70417 0.0
H644 H 0.13126 0.81246 0.76459 0.0
H645 H 0.15292 0.88963 0.79417 0.0
H646 H 0.15956 0.89924 0.73396 0.0
H647 H 0.07258 0.9117 0.5552 0.0
H648 H 0.09916 0.88136 0.57676 0.0
H649 H 0.14265 0.93726 0.64762 0.0
H650 H 0.11629 0.9676 0.62624 0.0
H651 H 0.12681 0.89374 0.67888 0.0
H652 H 0.16706 0.91677 0.57197 0.0
H653 H 0.16707 0.91955 0.50913 0.0
H654 H 0.1422 0.84103 0.49587 0.0
H655 H 0.14156 0.83782 0.55845 0.0
C656 C 0.21717 0.82704 0.71974 0.0
C657 C 0.21933 0.80447 0.70271 0.0
C658 C 0.20183 0.84343 0.70492 0.0
C659 C 0.18709 0.83716 0.6734 0.0
C660 C 0.18956 0.81455 0.65626 0.0
C661 C 0.20574 0.79857 0.67054 0.0
C662 C 0.16948 0.85421 0.65824 0.0
C663 C 0.16924 0.85832 0.62291 0.0
C664 C 0.1532 0.86677 0.67832 0.0
C665 C 0.14923 0.86112 0.71458 0.0
C666 C 0.14103 0.83663 0.72359 0.0
C667 C 0.13744 0.83135 0.75779 0.0
C668 C 0.14177 0.85044 0.78321 0.0
C669 C 0.14962 0.87486 0.77445 0.0
C670 C 0.15328 0.88024 0.74029 0.0
C671 C 0.08789 0.91761 0.57524 0.0
C672 C 0.09218 0.94223 0.58891 0.0
C673 C 0.10319 0.9002 0.58751 0.0
C674 C 0.12314 0.90693 0.61381 0.0
C675 C 0.12745 0.93149 0.62737 0.0
C676 C 0.11234 0.94891 0.61498 0.0
C677 C 0.13913 0.88846 0.62806 0.0
C678 C 0.13901 0.88414 0.66324 0.0
C679 C 0.15402 0.87481 0.60753 0.0
C680 C 0.15411 0.87708 0.5699 0.0
C681 C 0.16137 0.90014 0.55564 0.0
C682 C 0.16154 0.90178 0.52006 0.0
C683 C 0.15472 0.88045 0.4986 0.0
C684 C 0.14753 0.8575 0.51256 0.0
C685 C 0.14725 0.85577 0.54804 0.0
H686 H 0.15499 0.88158 0.47113 0.0
H687 H 0.13897 0.84632 0.80967 0.0
H688 H 0.19548 0.24804 0.66097 0.0
H689 H 0.16194 0.2209 0.62432 0.0
H690 H 0.17225 0.15966 0.68733 0.0
H691 H 0.20536 0.18674 0.72456 0.0
H692 H 0.17415 0.1516 0.61134 0.0
H693 H 0.12181 0.18203 0.6983 0.0
H694 H 0.10606 0.2153 0.73149 0.0
H695 H 0.07664 0.24358 0.63836 0.0
H696 H 0.09255 0.21062 0.60458 0.0
H697 H 0.06899 0.05649 0.57064 0.0
H698 H 0.10279 0.08867 0.59714 0.0
H699 H 0.06859 0.14409 0.54213 0.0
H700 H 0.0342 0.11195 0.51592 0.0
H701 H 0.07973 0.159 0.60734 0.0
H702 H 0.12577 0.12778 0.51983 0.0
H703 H 0.14164 0.09637 0.48329 0.0
H704 H 0.184 0.07266 0.5706 0.0
H705 H 0.16803 0.10364 0.60786 0.0
C706 C 0.19041 0.22884 0.6672 0.0
C707 C 0.20296 0.2195 0.69569 0.0
C708 C 0.17133 0.2134 0.64622 0.0
C709 C 0.16481 0.18832 0.65312 0.0
C710 C 0.17716 0.17898 0.68161 0.0
C711 C 0.19589 0.19449 0.70295 0.0
C712 C 0.14512 0.17171 0.63061 0.0
C713 C 0.15346 0.153 0.61059 0.0
C714 C 0.11839 0.17441 0.62859 0.0
C715 C 0.10863 0.19405 0.64891 0.0
C716 C 0.11219 0.19547 0.68489 0.0
C717 C 0.10318 0.21424 0.70381 0.0
C718 C 0.09042 0.23159 0.68704 0.0
C719 C 0.08656 0.23015 0.65131 0.0
C720 C 0.09555 0.21142 0.63227 0.0
C721 C 0.06868 0.07549 0.56395 0.0
C722 C 0.04882 0.08164 0.54123 0.0
C723 C 0.08814 0.09388 0.57901 0.0
C724 C 0.08838 0.11878 0.57138 0.0
C725 C 0.06877 0.12499 0.54839 0.0
C726 C 0.04919 0.10658 0.53336 0.0
C727 C 0.10857 0.13824 0.58867 0.0
C728 C 0.10041 0.15762 0.60764 0.0
C729 C 0.13557 0.13648 0.58909 0.0
C730 C 0.14554 0.11797 0.56674 0.0
C731 C 0.13832 0.11577 0.53133 0.0
C732 C 0.14735 0.09804 0.51046 0.0
C733 C 0.16377 0.08251 0.52463 0.0
C734 C 0.17126 0.08471 0.55968 0.0
C735 C 0.16225 0.10237 0.58069 0.0
H736 H 0.17073 0.06879 0.50843 0.0
H737 H 0.08347 0.24611 0.70173 0.0
H738 H 0.85738 0.16104 0.78867 0.0
H739 H 0.87092 0.1252 0.76002 0.0
H740 H 0.8032 0.11854 0.68848 0.0
H741 H 0.78957 0.15409 0.71654 0.0
H742 H 0.83014 0.07319 0.69381 0.0
H743 H 0.84402 0.162 0.66718 0.0
H744 H 0.85527 0.20621 0.68574 0.0
H745 H 0.92845 0.19272 0.73329 0.0
H746 H 0.91743 0.14836 0.71526 0.0
H747 H 0.89117 0.05713 0.53401 0.0
H748 H 0.86326 0.0671 0.57959 0.0
H749 H 0.93252 0.09708 0.64415 0.0
H750 H 0.95986 0.08891 0.59828 0.0
H751 H 0.90138 0.12812 0.64269 0.0
H752 H 0.89036 0.03932 0.6541 0.0
H753 H 0.87692 0.99522 0.63585 0.0
H754 H 0.79779 1.00766 0.61547 0.0
H755 H 0.8107 0.05177 0.63348 0.0
C756 C 0.8448 0.15131 0.76775 0.0
C757 C 0.82323 0.1612 0.75376 0.0
C758 C 0.8523 0.13056 0.75181 0.0
C759 C 0.83842 0.11989 0.72159 0.0
C760 C 0.81422 0.12672 0.71166 0.0
C761 C 0.80663 0.14738 0.72766 0.0
C762 C 0.85292 0.10958 0.69492 0.0
C763 C 0.84585 0.08495 0.68257 0.0
C764 C 0.87291 0.12528 0.67999 0.0
C765 C 0.87983 0.15196 0.69017 0.0
C766 C 0.86247 0.1685 0.68166 0.0
C767 C 0.86881 0.19356 0.69204 0.0
C768 C 0.89256 0.20226 0.71068 0.0
C769 C 0.91006 0.18594 0.71887 0.0
C770 C 0.90379 0.16087 0.70856 0.0
C771 C 0.90017 0.0661 0.55792 0.0
C772 C 0.92744 0.07296 0.56255 0.0
C773 C 0.88434 0.0714 0.58404 0.0
C774 C 0.89584 0.08271 0.61536 0.0
C775 C 0.92319 0.08858 0.62012 0.0
C776 C 0.93879 0.08413 0.59382 0.0
C777 C 0.87993 0.09097 0.64226 0.0
C778 C 0.8862 0.1158 0.65414 0.0
C779 C 0.85925 0.0753 0.65631 0.0
C780 C 0.85159 0.04887 0.6449 0.0
C781 C 0.87015 0.03265 0.64551 0.0
C782 C 0.86263 1.00766 0.63526 0.0
C783 C 0.83659 0.99867 0.62441 0.0
C784 C 0.81797 0.01464 0.62384 0.0
C785 C 0.82537 0.03962 0.63413 0.0
H786 H 0.83084 0.97932 0.61653 0.0
H787 H 0.89739 0.22165 0.71881 0.0
H788 H 0.80755 0.86036 0.71465 0.0
H789 H 0.82387 0.89966 0.69043 0.0
H790 H 0.89882 0.90061 0.74565 0.0
H791 H 0.88227 0.86201 0.77138 0.0
H792 H 0.88855 0.94674 0.73944 0.0
H793 H 0.88331 0.8719 0.66397 0.0
H794 H 0.85929 0.83504 0.63123 0.0
H795 H 0.81235 0.88085 0.57619 0.0
H796 H 0.83593 0.91795 0.60895 0.0
H797 H 0.99648 0.97501 0.64524 0.0
H798 H 0.95956 0.9611 0.67845 0.0
H799 H 0.90639 0.9789 0.59699 0.0
H800 H 0.94346 0.9926 0.56306 0.0
H801 H 0.89275 0.9338 0.61395 0.0
H802 H 0.91451 1.00957 0.67675 0.0
H803 H 0.94097 0.04515 0.70911 0.0
H804 H 0.96082 0.99752 0.78813 0.0
H805 H 0.93463 0.9616 0.75608 0.0
C806 C 0.82723 0.86924 0.7226 0.0
C807 C 0.84384 0.85765 0.74441 0.0
C808 C 0.83656 0.89172 0.70852 0.0
C809 C 0.86272 0.90275 0.71561 0.0
C810 C 0.87859 0.89234 0.73962 0.0
C811 C 0.86922 0.87005 0.75396 0.0
C812 C 0.87494 0.92292 0.69494 0.0
C813 C 0.88951 0.94412 0.71197 0.0
C814 C 0.87518 0.91987 0.65889 0.0
C815 C 0.86104 0.89759 0.63927 0.0
C816 C 0.86772 0.87405 0.64508 0.0
C817 C 0.85419 0.85313 0.62653 0.0
C818 C 0.83418 0.85558 0.60181 0.0
C819 C 0.82774 0.87897 0.59548 0.0
C820 C 0.84116 0.89994 0.61404 0.0
C821 C 0.977 0.97642 0.6345 0.0
C822 C 0.97294 0.98462 0.60126 0.0
C823 C 0.95585 0.96872 0.65378 0.0
C824 C 0.93017 0.96932 0.64051 0.0
C825 C 0.92606 0.97853 0.60792 0.0
C826 C 0.94728 0.98625 0.58851 0.0
C827 C 0.90798 0.95694 0.65875 0.0
C828 C 0.8913 0.9372 0.64121 0.0
C829 C 0.90623 0.96121 0.69441 0.0
C830 C 0.92226 0.98282 0.71394 0.0
C831 C 0.92442 1.00664 0.70101 0.0
C832 C 0.93945 0.0269 0.71931 0.0
C833 C 0.95252 0.02362 0.75072 0.0
C834 C 0.9506 1.00006 0.76384 0.0
C835 C 0.93556 0.97974 0.74563 0.0
H836 H 0.96418 0.03932 0.76486 0.0
H837 H 0.82378 0.83937 0.58741 0.0
H838 H 0.34031 0.24952 0.19174 0.0
H839 H 0.36619 0.22143 0.16449 0.0
H840 H 0.29966 0.16312 0.15842 0.0
H841 H 0.2738 0.19106 0.1862 0.0
H842 H 0.34039 0.14377 0.17814 0.0
H843 H 0.32319 0.19348 0.0852 0.0
H844 H 0.3208 0.23139 0.05374 0.0
H845 H 0.40413 0.25239 0.07009 0.0
H846 H 0.40698 0.21471 0.10196 0.0
H847 H 0.40173 0.06357 0.06747 0.0
H848 H 0.37244 0.0895 0.09274 0.0
H849 H 0.43625 0.15027 0.10763 0.0
H850 H 0.46556 0.12444 0.0837 0.0
H851 H 0.39477 0.16717 0.08128 0.0
H852 H 0.40972 0.11469 0.17522 0.0
H853 H 0.40941 0.07463 0.20223 0.0
H854 H 0.32643 0.05658 0.17847 0.0
H855 H 0.32631 0.09645 0.15102 0.0
C856 C 0.33099 0.23082 0.18424 0.0
C857 C 0.30472 0.22282 0.19112 0.0
C858 C 0.3459 0.21465 0.16847 0.0
C859 C 0.33508 0.18991 0.15884 0.0
C860 C 0.30875 0.18196 0.16544 0.0
C861 C 0.29383 0.19813 0.18121 0.0
C862 C 0.35134 0.17226 0.1429 0.0
C863 C 0.35198 0.14889 0.15666 0.0
C864 C 0.36688 0.17855 0.11495 0.0
C865 C 0.36525 0.20144 0.09634 0.0
C866 C 0.34097 0.20632 0.0824 0.0
C867 C 0.33954 0.22772 0.0644 0.0
C868 C 0.36228 0.24433 0.06003 0.0
C869 C 0.38652 0.23953 0.07356 0.0
C870 C 0.38806 0.21814 0.09156 0.0
C871 C 0.40956 0.08239 0.07636 0.0
C872 C 0.43622 0.09165 0.07366 0.0
C873 C 0.39269 0.09736 0.09074 0.0
C874 C 0.40183 0.12218 0.10216 0.0
C875 C 0.4284 0.13137 0.09912 0.0
C876 C 0.44529 0.11636 0.08549 0.0
C877 C 0.38409 0.13889 0.1168 0.0
C878 C 0.38325 0.16214 0.10286 0.0
C879 C 0.368 0.13226 0.14409 0.0
C880 C 0.36806 0.10842 0.16079 0.0
C881 C 0.39145 0.1021 0.17557 0.0
C882 C 0.39134 0.07945 0.191 0.0
C883 C 0.36793 0.06304 0.19199 0.0
C884 C 0.34456 0.06929 0.17765 0.0
C885 C 0.34456 0.09192 0.16219 0.0
H886 H 0.36789 0.04551 0.20393 0.0
H887 H 0.36114 0.26088 0.04607 0.0
H888 H 0.81049 0.33054 0.14579 0.0
H889 H 0.83947 0.36867 0.13426 0.0
H890 H 0.90659 0.33168 0.15175 0.0
H891 H 0.87765 0.29358 0.16348 0.0
H892 H 0.90917 0.37696 0.19039 0.0
H893 H 0.88785 0.34397 0.07323 0.0
H894 H 0.85798 0.32874 0.02291 0.0
H895 H 0.8284 0.39785 0.02205 0.0
H896 H 0.85767 0.41332 0.07297 0.0
H897 H 0.0151 0.44749 0.11942 0.0
H898 H 0.98027 0.42066 0.14438 0.0
H899 H 0.92389 0.46461 0.10421 0.0
H900 H 0.95868 0.49116 0.07798 0.0
H901 H 0.91074 0.41994 0.0811 0.0
H902 H 0.9338 0.45575 0.19228 0.0
H903 H 0.96164 0.47271 0.24372 0.0
H904 H 0.98552 0.40182 0.25805 0.0
H905 H 0.95818 0.38449 0.20638 0.0
C906 C 0.83141 0.33051 0.14661 0.0
C907 C 0.84189 0.3092 0.15549 0.0
C908 C 0.84789 0.35222 0.14004 0.0
C909 C 0.8751 0.35293 0.14237 0.0
C910 C 0.88559 0.33143 0.14998 0.0
C911 C 0.86908 0.30964 0.15625 0.0
C912 C 0.89274 0.37636 0.13839 0.0
C913 C 0.9098 0.38635 0.16645 0.0
C914 C 0.89239 0.38912 0.10771 0.0
C915 C 0.87468 0.37967 0.07724 0.0
C916 C 0.87476 0.35582 0.06258 0.0
C917 C 0.85799 0.34717 0.03385 0.0
C918 C 0.84126 0.3623 0.0193 0.0
C919 C 0.84132 0.38614 0.0334 0.0
C920 C 0.85797 0.39484 0.06222 0.0
C921 C 0.99546 0.45203 0.11684 0.0
C922 C 0.98955 0.47111 0.09603 0.0
C923 C 0.97549 0.43669 0.13137 0.0
C924 C 0.94938 0.44048 0.12597 0.0
C925 C 0.94388 0.46121 0.10842 0.0
C926 C 0.9638 0.47639 0.09348 0.0
C927 C 0.92792 0.42049 0.1329 0.0
C928 C 0.91 0.411 0.10538 0.0
C929 C 0.92722 0.40847 0.16429 0.0
C930 C 0.94402 0.41885 0.19524 0.0
C931 C 0.94518 0.44381 0.20618 0.0
C932 C 0.96084 0.45349 0.23544 0.0
C933 C 0.97537 0.43836 0.25411 0.0
C934 C 0.97426 0.41352 0.24356 0.0
C935 C 0.95865 0.40375 0.2143 0.0
H936 H 0.98746 0.44588 0.27678 0.0
H937 H 0.82822 0.3556 0.99714 0.0
H938 H 0.75094 0.82097 0.08533 0.0
H939 H 0.71599 0.83594 0.05003 0.0
H940 H 0.6855 0.86293 0.14185 0.0
H941 H 0.71997 0.84798 0.17671 0.0
H942 H 0.64875 0.83226 0.10216 0.0
H943 H 0.71786 0.90026 0.08922 0.0
H944 H 0.76015 0.92089 0.07128 0.0
H945 H 0.7357 0.89931 0.96618 0.0
H946 H 0.69341 0.87826 0.98354 0.0
H947 H 0.5719 0.92448 0.07853 0.0
H948 H 0.60541 0.89903 0.09102 0.0
H949 H 0.60602 0.87937 0.98352 0.0
H950 H 0.57114 0.90394 0.97058 0.0
H951 H 0.6557 0.89672 0.0161 0.0
H952 H 0.57999 0.83905 0.03503 0.0
H953 H 0.53813 0.82308 0.05846 0.0
H954 H 0.57501 0.83226 0.16044 0.0
H955 H 0.61711 0.84854 0.13768 0.0
C956 C 0.73705 0.83062 0.09769 0.0
C957 C 0.73782 0.83317 0.13363 0.0
C958 C 0.71711 0.83901 0.07762 0.0
C959 C 0.69801 0.8502 0.09344 0.0
C960 C 0.69983 0.854 0.1292 0.0
C961 C 0.7195 0.84554 0.14907 0.0
C962 C 0.675 0.85678 0.07372 0.0
C963 C 0.6502 0.84638 0.08333 0.0
C964 C 0.67706 0.87448 0.04822 0.0
C965 C 0.7027 0.88692 0.03783 0.0
C966 C 0.72166 0.89946 0.06235 0.0
C967 C 0.74561 0.91138 0.05226 0.0
C968 C 0.75072 0.91122 0.01764 0.0
C969 C 0.73182 0.89925 0.99302 0.0
C970 C 0.70786 0.88726 0.003 0.0
C971 C 0.57867 0.91439 0.05742 0.0
C972 C 0.56915 0.91659 0.0234 0.0
C973 C 0.59785 0.89981 0.06469 0.0
C974 C 0.6079 0.88711 0.03815 0.0
C975 C 0.59808 0.88871 0.00426 0.0
C976 C 0.57839 0.90294 0.99696 0.0
C977 C 0.62967 0.87338 0.04633 0.0
C978 C 0.65416 0.88214 0.03424 0.0
C979 C 0.62745 0.85477 0.07056 0.0
C980 C 0.60196 0.84485 0.08441 0.0
C981 C 0.57931 0.83761 0.0624 0.0
C982 C 0.55545 0.82855 0.07562 0.0
C983 C 0.55392 0.82657 0.11092 0.0
C984 C 0.57624 0.8337 0.13307 0.0
C985 C 0.60014 0.84279 0.11997 0.0
H986 H 0.53542 0.81957 0.12111 0.0
H987 H 0.76925 0.92051 0.00987 0.0
H988 H 0.24761 0.68958 0.17753 0.0
H989 H 0.2166 0.65777 0.14388 0.0
H990 H 0.16455 0.71097 0.12556 0.0
H991 H 0.19526 0.74274 0.1584 0.0
H992 H 0.14233 0.66718 0.15742 0.0
H993 H 0.19294 0.69231 0.0614 0.0
H994 H 0.23316 0.69956 0.03036 0.0
H995 H 0.24135 0.62289 0.0364 0.0
H996 H 0.20134 0.61525 0.06793 0.0
H997 H 0.03898 0.60957 0.04389 0.0
H998 H 0.07737 0.63755 0.06894 0.0
H999 H 0.12247 0.57753 0.06865 0.0
H1000 H 0.08408 0.54935 0.04321 0.0
H1001 H 0.15093 0.62099 0.0483 0.0
H1002 H 0.10139 0.59455 0.14194 0.0
H1003 H 0.0626 0.58578 0.17548 0.0
H1004 H 0.05439 0.66273 0.17768 0.0
H1005 H 0.09293 0.67191 0.14372 0.0
C1006 C 0.22988 0.69465 0.16556 0.0
C1007 C 0.22387 0.7187 0.1709 0.0
C1008 C 0.21217 0.67644 0.14641 0.0
C1009 C 0.18819 0.682 0.13246 0.0
C1010 C 0.18287 0.70627 0.13624 0.0
C1011 C 0.20055 0.72445 0.155 0.0
C1012 C 0.16742 0.6623 0.11679 0.0
C1013 C 0.14411 0.65726 0.13337 0.0
C1014 C 0.1702 0.64866 0.08618 0.0
C1015 C 0.19433 0.65328 0.06742 0.0
C1016 C 0.20347 0.67705 0.05646 0.0
C1017 C 0.22619 0.68122 0.03869 0.0
C1018 C 0.23985 0.66172 0.03151 0.0
C1019 C 0.23078 0.63799 0.04203 0.0
C1020 C 0.20807 0.63373 0.05984 0.0
C1021 C 0.05713 0.60233 0.04869 0.0
C1022 C 0.05841 0.57718 0.04148 0.0
C1023 C 0.07904 0.61834 0.06328 0.0
C1024 C 0.10276 0.6096 0.07104 0.0
C1025 C 0.10438 0.58468 0.06296 0.0
C1026 C 0.08237 0.56858 0.04855 0.0
C1027 C 0.12549 0.62646 0.08844 0.0
C1028 C 0.14919 0.63083 0.07241 0.0
C1029 C 0.12329 0.63933 0.11992 0.0
C1030 C 0.09986 0.63386 0.13992 0.0
C1031 C 0.09114 0.60956 0.14925 0.0
C1032 C 0.06925 0.60452 0.16842 0.0
C1033 C 0.05599 0.62367 0.17861 0.0
C1034 C 0.06464 0.6479 0.16971 0.0
C1035 C 0.08652 0.65304 0.15052 0.0
H1036 H 0.03905 0.61973 0.19348 0.0
H1037 H 0.25742 0.66498 0.01771 0.0
H1038 H 0.28744 0.81516 0.84709 0.0
H1039 H 0.31616 0.85116 0.87495 0.0
H1040 H 0.3579 0.86087 0.78327 0.0
H1041 H 0.32946 0.82518 0.75537 0.0
H1042 H 0.36719 0.85662 0.88995 0.0
H1043 H 0.38044 0.92322 0.77517 0.0
H1044 H 0.35354 0.93742 0.72797 0.0
H1045 H 0.28385 0.91325 0.77902 0.0
H1046 H 0.31033 0.89961 0.82707 0.0
H1047 H 0.48944 0.92886 0.9031 0.0
H1048 H 0.44966 0.90401 0.87675 0.0
H1049 H 0.40528 0.96166 0.90318 0.0
H1050 H 0.44511 0.98684 0.93006 0.0
H1051 H 0.39007 0.93754 0.8372 0.0
H1052 H 0.40385 0.9203 0.95244 0.0
H1053 H 0.42712 0.91076 0.00544 0.0
H1054 H 0.43674 0.84011 0.96083 0.0
H1055 H 0.41362 0.84941 0.90695 0.0
C1056 C 0.30261 0.8251 0.83282 0.0
C1057 C 0.30622 0.81726 0.79908 0.0
C1058 C 0.31897 0.84566 0.84874 0.0
C1059 C 0.33897 0.85886 0.83105 0.0
C1060 C 0.34231 0.85126 0.79722 0.0
C1061 C 0.32613 0.83069 0.78139 0.0
C1062 C 0.3578 0.87934 0.84853 0.0
C1063 C 0.37207 0.87433 0.87846 0.0
C1064 C 0.36361 0.90279 0.83415 0.0
C1065 C 0.34744 0.9102 0.80471 0.0
C1066 C 0.35939 0.92104 0.77647 0.0
C1067 C 0.34422 0.92912 0.74963 0.0
C1068 C 0.31702 0.92632 0.75057 0.0
C1069 C 0.30493 0.9154 0.77832 0.0
C1070 C 0.32002 0.90748 0.80539 0.0
C1071 C 0.47137 0.93655 0.9029 0.0
C1072 C 0.47045 0.95976 0.9191 0.0
C1073 C 0.44865 0.92227 0.88781 0.0
C1074 C 0.42458 0.93092 0.88847 0.0
C1075 C 0.42374 0.95471 0.90253 0.0
C1076 C 0.4465 0.969 0.91796 0.0
C1077 C 0.40022 0.91406 0.87707 0.0
C1078 C 0.38497 0.91981 0.84855 0.0
C1079 C 0.39308 0.89152 0.89316 0.0
C1080 C 0.4072 0.8857 0.92539 0.0
C1081 C 0.41132 0.9029 0.95358 0.0
C1082 C 0.42449 0.8975 0.9839 0.0
C1083 C 0.43368 0.87491 0.98655 0.0
C1084 C 0.42964 0.85764 0.95876 0.0
C1085 C 0.41642 0.86294 0.9283 0.0
H1086 H 0.44378 0.87075 0.01017 0.0
H1087 H 0.3053 0.93252 0.7297 0.0
H1088 H 0.20272 0.3197 0.74821 0.0
H1089 H 0.17637 0.34619 0.77791 0.0
H1090 H 0.20826 0.32547 0.87532 0.0
H1091 H 0.23278 0.29748 0.8455 0.0
H1092 H 0.16367 0.32854 0.88558 0.0
H1093 H 0.22554 0.38645 0.83401 0.0
H1094 H 0.25056 0.40556 0.7877 0.0
H1095 H 0.17932 0.41938 0.73509 0.0
H1096 H 0.15383 0.40009 0.78092 0.0
H1097 H 0.12382 0.45719 0.93983 0.0
H1098 H 0.15308 0.43374 0.90955 0.0
H1099 H 0.09152 0.37081 0.89644 0.0
H1100 H 0.06259 0.39379 0.92682 0.0
H1101 H 0.15438 0.41238 0.84744 0.0
H1102 H 0.11723 0.31654 0.90529 0.0
H1103 H 0.0993 0.30191 0.95914 0.0
H1104 H 0.13338 0.371 0.01113 0.0
H1105 H 0.15272 0.38528 0.95857 0.0
C1106 C 0.20404 0.3208 0.77598 0.0
C1107 C 0.21987 0.30639 0.79441 0.0
C1108 C 0.18911 0.33624 0.79312 0.0
C1109 C 0.19041 0.33861 0.82929 0.0
C1110 C 0.20647 0.32421 0.84757 0.0
C1111 C 0.22068 0.30817 0.83044 0.0
C1112 C 0.17475 0.35544 0.84812 0.0
C1113 C 0.16176 0.34682 0.87697 0.0
C1114 C 0.17254 0.37986 0.83823 0.0
C1115 C 0.18777 0.39163 0.81074 0.0
C1116 C 0.2152 0.39345 0.81247 0.0
C1117 C 0.22947 0.40432 0.78632 0.0
C1118 C 0.21653 0.41362 0.75843 0.0
C1119 C 0.1893 0.41214 0.75669 0.0
C1120 C 0.17494 0.40127 0.78277 0.0
C1121 C 0.11651 0.43836 0.93047 0.0
C1122 C 0.09077 0.42745 0.93617 0.0
C1123 C 0.13326 0.42496 0.91292 0.0
C1124 C 0.12479 0.40025 0.90078 0.0
C1125 C 0.09889 0.38963 0.90582 0.0
C1126 C 0.08225 0.40292 0.92331 0.0
C1127 C 0.14298 0.38509 0.88401 0.0
C1128 C 0.15637 0.39403 0.85576 0.0
C1129 C 0.14664 0.36144 0.89542 0.0
C1130 C 0.13606 0.35217 0.92772 0.0
C1131 C 0.12117 0.32845 0.92837 0.0
C1132 C 0.11085 0.32013 0.9588 0.0
C1133 C 0.1152 0.33542 0.98868 0.0
C1134 C 0.13012 0.35894 0.98826 0.0
C1135 C 0.14085 0.36714 0.95815 0.0
H1136 H 0.10699 0.32905 0.01211 0.0
H1137 H 0.2276 0.42202 0.7382 0.0
H1138 H 0.73821 0.17787 0.79904 0.0
H1139 H 0.70677 0.1477 0.82608 0.0
H1140 H 0.65573 0.20227 0.83634 0.0
H1141 H 0.68707 0.23247 0.80891 0.0
H1142 H 0.65537 0.17758 0.89361 0.0
H1143 H 0.64232 0.152 0.77606 0.0
H1144 H 0.65309 0.13889 0.71856 0.0
H1145 H 0.68041 0.07493 0.75922 0.0
H1146 H 0.67022 0.08792 0.81728 0.0
H1147 H 0.53644 0.10024 0.92159 0.0
H1148 H 0.5715 0.12617 0.89603 0.0
H1149 H 0.62042 0.06977 0.90755 0.0
H1150 H 0.58474 0.04313 0.93421 0.0
H1151 H 0.62387 0.09359 0.84093 0.0
H1152 H 0.63143 0.11913 0.95928 0.0
H1153 H 0.61494 0.13194 0.01354 0.0
H1154 H 0.59465 0.19748 0.96874 0.0
H1155 H 0.6099 0.18445 0.91348 0.0
C1156 C 0.72035 0.18363 0.80705 0.0
C1157 C 0.71563 0.20804 0.80151 0.0
C1158 C 0.70207 0.16608 0.82251 0.0
C1159 C 0.67821 0.17209 0.83348 0.0
C1160 C 0.67368 0.19662 0.82845 0.0
C1161 C 0.6918 0.21409 0.81255 0.0
C1162 C 0.6583 0.1531 0.85023 0.0
C1163 C 0.64846 0.15935 0.8817 0.0
C1164 C 0.64902 0.12875 0.83575 0.0
C1165 C 0.65586 0.12114 0.80113 0.0
C1166 C 0.65095 0.1353 0.77285 0.0
C1167 C 0.65688 0.12785 0.74012 0.0
C1168 C 0.6675 0.10611 0.73519 0.0
C1169 C 0.67224 0.0918 0.76307 0.0
C1170 C 0.6664 0.09921 0.79593 0.0
C1171 C 0.55447 0.09286 0.91885 0.0
C1172 C 0.55707 0.06898 0.93037 0.0
C1173 C 0.57486 0.10811 0.90403 0.0
C1174 C 0.59917 0.10048 0.8995 0.0
C1175 C 0.60204 0.07649 0.91039 0.0
C1176 C 0.58149 0.06113 0.9259 0.0
C1177 C 0.62113 0.11811 0.88427 0.0
C1178 C 0.63115 0.1117 0.85301 0.0
C1179 C 0.63034 0.14246 0.8987 0.0
C1180 C 0.62162 0.15067 0.93207 0.0
C1181 C 0.62324 0.13617 0.96084 0.0
C1182 C 0.61413 0.14349 0.99184 0.0
C1183 C 0.60388 0.16559 0.99473 0.0
C1184 C 0.60262 0.18036 0.96649 0.0
C1185 C 0.61141 0.17297 0.93525 0.0
H1186 H 0.59691 0.17124 0.01883 0.0
H1187 H 0.67197 0.10034 0.70977 0.0
H1188 H 0.83298 0.74673 0.83901 0.0
H1189 H 0.85855 0.72031 0.8717 0.0
H1190 H 0.80008 0.65684 0.8421 0.0
H1191 H 0.77394 0.68339 0.81071 0.0
H1192 H 0.81693 0.65039 0.90263 0.0
H1193 H 0.86127 0.67185 0.80266 0.0
H1194 H 0.88243 0.69949 0.76078 0.0
H1195 H 0.94044 0.73263 0.83905 0.0
H1196 H 0.91936 0.70541 0.88155 0.0
H1197 H 0.8961 0.55572 0.92323 0.0
H1198 H 0.87019 0.58567 0.90045 0.0
H1199 H 0.92588 0.64533 0.9493 0.0
H1200 H 0.9525 0.61514 0.97193 0.0
H1201 H 0.91118 0.6554 0.88326 0.0
H1202 H 0.86686 0.62113 0.97897 0.0
H1203 H 0.8433 0.58924 0.01287 0.0
H1204 H 0.78246 0.5726 0.93209 0.0
H1205 H 0.80575 0.6042 0.89722 0.0
C1206 C 0.82535 0.7272 0.83983 0.0
C1207 C 0.80127 0.71733 0.82205 0.0
C1208 C 0.8402 0.71195 0.85835 0.0
C1209 C 0.83181 0.6862 0.85901 0.0
C1210 C 0.8073 0.6765 0.84221 0.0
C1211 C 0.79226 0.6918 0.82413 0.0
C1212 C 0.84872 0.66931 0.87623 0.0
C1213 C 0.83746 0.65132 0.89799 0.0
C1214 C 0.87574 0.67047 0.87083 0.0
C1215 C 0.88856 0.6868 0.84538 0.0
C1216 C 0.87843 0.68516 0.811 0.0
C1217 C 0.89041 0.70073 0.78714 0.0
C1218 C 0.91272 0.71785 0.79728 0.0
C1219 C 0.92313 0.71939 0.83126 0.0
C1220 C 0.91117 0.70389 0.85525 0.0
C1221 C 0.90295 0.57517 0.92946 0.0
C1222 C 0.92656 0.58284 0.94967 0.0
C1223 C 0.88794 0.59239 0.91633 0.0
C1224 C 0.8957 0.61793 0.92332 0.0
C1225 C 0.91929 0.62577 0.94349 0.0
C1226 C 0.9345 0.60846 0.95658 0.0
C1227 C 0.87927 0.6362 0.90919 0.0
C1228 C 0.89067 0.65452 0.88804 0.0
C1229 C 0.85207 0.63453 0.91404 0.0
C1230 C 0.83814 0.61535 0.93532 0.0
C1231 C 0.84849 0.61079 0.96823 0.0
C1232 C 0.83517 0.59267 0.9877 0.0
C1233 C 0.81138 0.57896 0.97472 0.0
C1234 C 0.80087 0.5833 0.94218 0.0
C1235 C 0.81413 0.60136 0.92255 0.0
H1236 H 0.80111 0.56494 0.98986 0.0
H1237 H 0.92198 0.72989 0.77877 0.0
H1238 H 0.19365 0.27466 0.17696 0.0
H1239 H 0.16596 0.30082 0.14751 0.0
H1240 H 0.22986 0.36176 0.15667 0.0
H1241 H 0.2576 0.33573 0.18667 0.0
H1242 H 0.18682 0.3779 0.17332 0.0
H1243 H 0.20748 0.32808 0.07879 0.0
H1244 H 0.21055 0.29008 0.04443 0.0
H1245 H 0.12708 0.26913 0.04154 0.0
H1246 H 0.12353 0.30678 0.07644 0.0
H1247 H 0.13417 0.46066 0.06647 0.0
H1248 H 0.15999 0.43134 0.09142 0.0
H1249 H 0.0942 0.37275 0.07259 0.0
H1250 H 0.06831 0.40218 0.04637 0.0
H1251 H 0.13535 0.35361 0.06312 0.0
H1252 H 0.11411 0.40244 0.15586 0.0
H1253 H 0.10949 0.43995 0.19037 0.0
H1254 H 0.19285 0.46243 0.19663 0.0
H1255 H 0.19795 0.4252 0.16173 0.0
C1256 C 0.20205 0.29351 0.17227 0.0
C1257 C 0.22813 0.30286 0.18405 0.0
C1258 C 0.18608 0.30854 0.15528 0.0
C1259 C 0.19566 0.33341 0.1493 0.0
C1260 C 0.2218 0.34271 0.16073 0.0
C1261 C 0.2378 0.32767 0.17773 0.0
C1262 C 0.17828 0.34993 0.13235 0.0
C1263 C 0.17602 0.37273 0.14883 0.0
C1264 C 0.16314 0.34308 0.10094 0.0
C1265 C 0.16529 0.32009 0.0807 0.0
C1266 C 0.18981 0.31521 0.07124 0.0
C1267 C 0.19163 0.29376 0.05157 0.0
C1268 C 0.16904 0.27714 0.04093 0.0
C1269 C 0.14457 0.28196 0.04991 0.0
C1270 C 0.14265 0.30335 0.06966 0.0
C1271 C 0.12509 0.44152 0.06737 0.0
C1272 C 0.0989 0.43401 0.05456 0.0
C1273 C 0.13993 0.42467 0.08208 0.0
C1274 C 0.12905 0.39971 0.08523 0.0
C1275 C 0.1032 0.39186 0.07109 0.0
C1276 C 0.08834 0.40875 0.05594 0.0
C1277 C 0.1448 0.38216 0.10314 0.0
C1278 C 0.14648 0.35902 0.08721 0.0
C1279 C 0.15933 0.38862 0.1351 0.0
C1280 C 0.15638 0.41116 0.15585 0.0
C1281 C 0.13144 0.41549 0.16433 0.0
C1282 C 0.12874 0.43668 0.18402 0.0
C1283 C 0.15085 0.4536 0.1956 0.0
C1284 C 0.17573 0.44933 0.18758 0.0
C1285 C 0.17854 0.42818 0.16787 0.0
H1286 H 0.14872 0.46999 0.21086 0.0
H1287 H 0.17049 0.26058 0.02564 0.0
H1288 H 0.20676 0.69072 0.86163 0.0
H1289 H 0.17568 0.65362 0.87151 0.0
H1290 H 0.11155 0.69126 0.83902 0.0
H1291 H 0.14266 0.72861 0.83052 0.0
H1292 H 0.09811 0.66574 0.88959 0.0
H1293 H 0.13709 0.64847 0.7867 0.0
H1294 H 0.17237 0.6442 0.74876 0.0
H1295 H 0.19624 0.58676 0.80932 0.0
H1296 H 0.16174 0.59132 0.84861 0.0
H1297 H 1.00479 0.55998 0.87717 0.0
H1298 H 0.03598 0.59009 0.85052 0.0
H1299 H 0.09975 0.56625 0.90982 0.0
H1300 H 0.06879 0.53604 0.93684 0.0
H1301 H 0.11124 0.58389 0.84049 0.0
H1302 H 0.07336 0.60705 0.94669 0.0
H1303 H 0.03497 0.61 0.97981 0.0
H1304 H 1.0057 0.65603 0.90482 0.0
H1305 H 0.04364 0.65285 0.8707 0.0
C1306 C 0.18598 0.69105 0.85711 0.0
C1307 C 0.17701 0.71242 0.84545 0.0
C1308 C 0.16826 0.66983 0.86237 0.0
C1309 C 0.14128 0.66941 0.85516 0.0
C1310 C 0.13227 0.69108 0.84462 0.0
C1311 C 0.14999 0.71246 0.83997 0.0
C1312 C 0.12245 0.64646 0.85883 0.0
C1313 C 0.10089 0.64798 0.87834 0.0
C1314 C 0.12599 0.62312 0.84432 0.0
C1315 C 0.14694 0.62044 0.82087 0.0
C1316 C 0.15002 0.63511 0.79221 0.0
C1317 C 0.16987 0.63261 0.77039 0.0
C1318 C 0.18647 0.61518 0.77649 0.0
C1319 C 0.18336 0.60027 0.8046 0.0
C1320 C 0.1637 0.60286 0.82674 0.0
C1321 C 0.02549 0.56045 0.88374 0.0
C1322 C 0.03424 0.54608 0.90991 0.0
C1323 C 0.04328 0.57768 0.86839 0.0
C1324 C 0.07 0.58066 0.87883 0.0
C1325 C 0.07913 0.56424 0.90163 0.0
C1326 C 0.06135 0.54705 0.91715 0.0
C1327 C 0.08745 0.60345 0.87128 0.0
C1328 C 0.10863 0.60183 0.8513 0.0
C1329 C 0.08338 0.6268 0.88474 0.0
C1330 C 0.06119 0.62952 0.90599 0.0
C1331 C 0.05868 0.6177 0.93717 0.0
C1332 C 0.037 0.6194 0.95612 0.0
C1333 C 0.0179 0.63317 0.94446 0.0
C1334 C 0.0205 0.64535 0.91382 0.0
C1335 C 0.04207 0.64359 0.89464 0.0
H1336 H 1.00113 0.63443 0.95918 0.0
H1337 H 0.20175 0.61323 0.75942 0.0
H1338 H 0.31204 0.23513 0.88765 0.0
H1339 H 0.34235 0.21735 0.92644 0.0
H1340 H 0.28922 0.1481 0.92012 0.0
H1341 H 0.25864 0.16609 0.88203 0.0
H1342 H 0.31626 0.15521 0.98191 0.0
H1343 H 0.33405 0.15787 0.86243 0.0
H1344 H 0.34085 0.17976 0.80895 0.0
H1345 H 0.40837 0.22639 0.85774 0.0
H1346 H 0.40173 0.20495 0.9117 0.0
H1347 H 0.40522 0.06702 0.9358 0.0
H1348 H 0.37219 0.09405 0.93444 0.0
H1349 H 0.4197 0.14485 0.00846 0.0
H1350 H 0.45394 0.11827 0.00883 0.0
H1351 H 0.39817 0.15264 0.9237 0.0
H1352 H 0.33966 0.15538 0.04453 0.0
H1353 H 0.32172 0.12976 0.09053 0.0
H1354 H 0.32835 0.06379 0.0311 0.0
H1355 H 0.34482 0.08889 0.98408 0.0
C1356 C 0.30667 0.2163 0.89523 0.0
C1357 C 0.2834 0.20171 0.88143 0.0
C1358 C 0.32385 0.20624 0.91748 0.0
C1359 C 0.31821 0.1813 0.92551 0.0
C1360 C 0.2939 0.1674 0.9142 0.0
C1361 C 0.27652 0.17761 0.89235 0.0
C1362 C 0.33904 0.16853 0.94051 0.0
C1363 C 0.33443 0.15489 0.96969 0.0
C1364 C 0.36241 0.16789 0.92392 0.0
C1365 C 0.36722 0.18005 0.89116 0.0
C1366 C 0.35032 0.17283 0.86175 0.0
C1367 C 0.35411 0.18516 0.83139 0.0
C1368 C 0.37491 0.20456 0.83005 0.0
C1369 C 0.39219 0.21143 0.85891 0.0
C1370 C 0.38843 0.1992 0.88937 0.0
C1371 C 0.40869 0.08375 0.9522 0.0
C1372 C 0.43231 0.09052 0.97238 0.0
C1373 C 0.38953 0.09897 0.95178 0.0
C1374 C 0.39314 0.12092 0.97224 0.0
C1375 C 0.41628 0.12753 0.99332 0.0
C1376 C 0.43584 0.11243 0.9933 0.0
C1377 C 0.37539 0.13896 0.96513 0.0
C1378 C 0.38059 0.15367 0.93703 0.0
C1379 C 0.35211 0.13965 0.98199 0.0
C1380 C 0.34466 0.12416 0.01123 0.0
C1381 C 0.33767 0.13541 0.04147 0.0
C1382 C 0.32738 0.12095 0.06757 0.0
C1383 C 0.32413 0.09517 0.06389 0.0
C1384 C 0.33112 0.08379 0.03406 0.0
C1385 C 0.34107 0.09816 0.00767 0.0
H1386 H 0.31617 0.084 0.08413 0.0
H1387 H 0.37763 0.21427 0.80664 0.0
H1388 H 0.83334 0.27502 0.83685 0.0
H1389 H 0.86307 0.30535 0.87351 0.0
H1390 H 0.81016 0.35844 0.86003 0.0
H1391 H 0.78037 0.32819 0.82266 0.0
H1392 H 0.85905 0.37859 0.84889 0.0
H1393 H 0.81926 0.3301 0.936 0.0
H1394 H 0.80458 0.29196 0.96548 0.0
H1395 H 0.88413 0.27919 0.98084 0.0
H1396 H 0.89929 0.31708 0.95101 0.0
H1397 H 0.9412 0.46792 0.95913 0.0
H1398 H 0.9028 0.43885 0.93618 0.0
H1399 H 0.94633 0.37816 0.9481 0.0
H1400 H 0.98446 0.40694 0.97196 0.0
H1401 H 0.89818 0.36364 0.96372 0.0
H1402 H 0.93729 0.40597 0.86937 0.0
H1403 H 0.95379 0.44237 0.83719 0.0
H1404 H 0.87765 0.46443 0.83287 0.0
H1405 H 0.86077 0.4283 0.86541 0.0
C1406 C 0.82771 0.29298 0.84213 0.0
C1407 C 0.80436 0.29909 0.82677 0.0
C1408 C 0.84478 0.31035 0.86324 0.0
C1409 C 0.83887 0.33423 0.86983 0.0
C1410 C 0.81519 0.34016 0.85539 0.0
C1411 C 0.79807 0.32277 0.83419 0.0
C1412 C 0.85822 0.35336 0.88988 0.0
C1413 C 0.86719 0.3755 0.87431 0.0
C1414 C 0.86948 0.34912 0.92268 0.0
C1415 C 0.86041 0.32641 0.941 0.0
C1416 C 0.83363 0.31906 0.94536 0.0
C1417 C 0.82521 0.29749 0.9622 0.0
C1418 C 0.8434 0.28311 0.97492 0.0
C1419 C 0.87005 0.29032 0.97093 0.0
C1420 C 0.87857 0.31189 0.95413 0.0
C1421 C 0.94257 0.44837 0.95709 0.0
C1422 C 0.9661 0.43988 0.96713 0.0
C1423 C 0.92057 0.43173 0.94383 0.0
C1424 C 0.92169 0.40626 0.93972 0.0
C1425 C 0.94486 0.39767 0.95088 0.0
C1426 C 0.96676 0.41423 0.96446 0.0
C1427 C 0.8993 0.38865 0.92243 0.0
C1428 C 0.88978 0.36683 0.93849 0.0
C1429 C 0.88778 0.39293 0.88979 0.0
C1430 C 0.89786 0.41461 0.87016 0.0
C1431 C 0.92412 0.41869 0.86177 0.0
C1432 C 0.93353 0.43925 0.84344 0.0
C1433 C 0.9168 0.45575 0.83309 0.0
C1434 C 0.8906 0.45167 0.84097 0.0
C1435 C 0.8811 0.43115 0.85933 0.0
H1436 H 0.92412 0.47166 0.8189 0.0
H1437 H 0.83685 0.26642 0.98797 0.0
H1438 H 0.69147 0.77232 0.81347 0.0
H1439 H 0.66651 0.80144 0.84073 0.0
H1440 H 0.73413 0.85848 0.84477 0.0
H1441 H 0.75906 0.8296 0.81753 0.0
H1442 H 0.66836 0.82716 0.89887 0.0
H1443 H 0.71318 0.9158 0.82967 0.0
H1444 H 0.73147 0.92572 0.77422 0.0
H1445 H 0.69181 0.85602 0.72962 0.0
H1446 H 0.67243 0.84624 0.78408 0.0
H1447 H 0.626 0.93759 0.97469 0.0
H1448 H 0.6539 0.90816 0.95379 0.0
H1449 H 0.61249 0.9038 0.85428 0.0
H1450 H 0.58442 0.93222 0.87497 0.0
H1451 H 0.66487 0.90837 0.8482 0.0
H1452 H 0.59918 0.85644 0.89799 0.0
H1453 H 0.56905 0.83383 0.93638 0.0
H1454 H 0.63439 0.81972 1.00169 0.0
H1455 H 0.66491 0.84191 0.96339 0.0
C1456 C 0.70117 0.79097 0.82051 0.0
C1457 C 0.72744 0.7984 0.81317 0.0
C1458 C 0.68682 0.8077 0.83621 0.0
C1459 C 0.69815 0.83248 0.84471 0.0
C1460 C 0.7246 0.8397 0.83823 0.0
C1461 C 0.73897 0.82299 0.82273 0.0
C1462 C 0.68223 0.85092 0.85929 0.0
C1463 C 0.66804 0.84512 0.88814 0.0
C1464 C 0.68046 0.87397 0.84442 0.0
C1465 C 0.69174 0.88008 0.81126 0.0
C1466 C 0.70824 0.90268 0.80795 0.0
C1467 C 0.71871 0.90834 0.7766 0.0
C1468 C 0.71285 0.89153 0.74837 0.0
C1469 C 0.69633 0.86912 0.75137 0.0
C1470 C 0.68558 0.86351 0.78249 0.0
C1471 C 0.62308 0.93063 0.94824 0.0
C1472 C 0.60276 0.93746 0.92666 0.0
C1473 C 0.63889 0.91351 0.93638 0.0
C1474 C 0.63528 0.90332 0.90238 0.0
C1475 C 0.6158 0.91107 0.88059 0.0
C1476 C 0.59973 0.92755 0.89256 0.0
C1477 C 0.65182 0.88507 0.88882 0.0
C1478 C 0.66598 0.89084 0.85982 0.0
C1479 C 0.65239 0.86142 0.90244 0.0
C1480 C 0.63437 0.8515 0.92829 0.0
C1481 C 0.60714 0.8491 0.921 0.0
C1482 C 0.58997 0.83599 0.94245 0.0
C1483 C 0.59981 0.82525 0.97134 0.0
C1484 C 0.6268 0.82802 0.97925 0.0
C1485 C 0.64405 0.8409 0.95771 0.0
H1486 H 0.58651 0.81458 0.98738 0.0
H1487 H 0.72107 0.89589 0.72418 0.0
H1488 H 0.79212 0.68549 0.22936 0.0
H1489 H 0.81745 0.65849 0.19889 0.0
H1490 H 0.85123 0.72028 0.14243 0.0
H1491 H 0.82484 0.74696 0.17159 0.0
H1492 H 0.84412 0.68387 0.1008 0.0
H1493 H 0.88436 0.69387 0.21477 0.0
H1494 H 0.88585 0.69296 0.27783 0.0
H1495 H 0.85871 0.61461 0.27051 0.0
H1496 H 0.85673 0.61511 0.20737 0.0
H1497 H 0.96566 0.61697 0.0955 0.0
H1498 H 0.93756 0.64251 0.12355 0.0
H1499 H 0.86991 0.6021 0.06575 0.0
H1500 H 0.89805 0.57576 0.03804 0.0
H1501 H 0.8947 0.62796 0.16411 0.0
H1502 H 0.83084 0.65617 0.04664 0.0
H1503 H 0.83482 0.66702 0.98642 0.0
H1504 H 0.91861 0.67786 1.00218 0.0
H1505 H 0.91522 0.6683 0.0628 0.0
C1506 C 0.80497 0.69337 0.21049 0.0
C1507 C 0.80645 0.71857 0.20324 0.0
C1508 C 0.81968 0.67786 0.19308 0.0
C1509 C 0.83696 0.68716 0.1685 0.0
C1510 C 0.83823 0.71233 0.16109 0.0
C1511 C 0.82314 0.72772 0.17801 0.0
C1512 C 0.85363 0.67086 0.15055 0.0
C1513 C 0.85494 0.67148 0.11471 0.0
C1514 C 0.86858 0.65501 0.1684 0.0
C1515 C 0.87015 0.65458 0.20635 0.0
C1516 C 0.87859 0.67647 0.22662 0.0
C1517 C 0.87952 0.67603 0.26237 0.0
C1518 C 0.8723 0.65376 0.27816 0.0
C1519 C 0.86425 0.63186 0.25823 0.0
C1520 C 0.86324 0.6322 0.22246 0.0
C1521 C 0.94477 0.61334 0.08877 0.0
C1522 C 0.93419 0.59408 0.06461 0.0
C1523 C 0.92867 0.62802 0.10494 0.0
C1524 C 0.90149 0.62448 0.09677 0.0
C1525 C 0.89079 0.60539 0.07239 0.0
C1526 C 0.90689 0.59019 0.05675 0.0
C1527 C 0.88462 0.64056 0.11431 0.0
C1528 C 0.88342 0.63997 0.15011 0.0
C1529 C 0.87043 0.65697 0.09647 0.0
C1530 C 0.87273 0.66095 0.05932 0.0
C1531 C 0.85014 0.66081 0.0373 0.0
C1532 C 0.85229 0.66705 0.00315 0.0
C1533 C 0.87695 0.67317 0.99051 0.0
C1534 C 0.89951 0.67303 0.01198 0.0
C1535 C 0.89747 0.6672 0.04628 0.0
H1536 H 0.87859 0.67796 0.96407 0.0
H1537 H 0.87298 0.65346 0.30584 0.0
H1538 H 0.34622 0.79633 0.20761 0.0
H1539 H 0.37655 0.82727 0.17984 0.0
H1540 H 0.31182 0.86254 0.14392 0.0
H1541 H 0.28156 0.83186 0.17184 0.0
H1542 H 0.34399 0.86185 0.09357 0.0
H1543 H 0.3564 0.88766 0.21179 0.0
H1544 H 0.36584 0.88333 0.27363 0.0
H1545 H 0.44257 0.86779 0.25486 0.0
H1546 H 0.43343 0.87158 0.19277 0.0
H1547 H 0.4364 0.97949 0.05936 0.0
H1548 H 0.4034 0.95375 0.09146 0.0
H1549 H 0.44627 0.89266 0.08304 0.0
H1550 H 0.47914 0.918 0.0523 0.0
H1551 H 0.423 0.90941 0.15651 0.0
H1552 H 0.37473 0.85462 0.03845 0.0
H1553 H 0.35997 0.85813 0.97786 0.0
H1554 H 0.35119 0.93392 0.99865 0.0
H1555 H 0.36512 0.93059 0.05951 0.0
C1556 C 0.33831 0.81057 0.19369 0.0
C1557 C 0.31106 0.81117 0.19224 0.0
C1558 C 0.35587 0.82856 0.17785 0.0
C1559 C 0.34698 0.8479 0.15959 0.0
C1560 C 0.3197 0.84817 0.15758 0.0
C1561 C 0.30221 0.83041 0.17377 0.0
C1562 C 0.36579 0.86762 0.14259 0.0
C1563 C 0.36111 0.87227 0.10768 0.0
C1564 C 0.38844 0.8818 0.16024 0.0
C1565 C 0.39411 0.87962 0.19754 0.0
C1566 C 0.37521 0.88311 0.22079 0.0
C1567 C 0.38051 0.88078 0.25589 0.0
C1568 C 0.40474 0.87519 0.26811 0.0
C1569 C 0.42378 0.87205 0.2453 0.0
C1570 C 0.41855 0.87429 0.21015 0.0
C1571 C 0.43905 0.96073 0.06474 0.0
C1572 C 0.46081 0.95117 0.05265 0.0
C1573 C 0.41984 0.94574 0.08283 0.0
C1574 C 0.42159 0.92064 0.08927 0.0
C1575 C 0.4438 0.91159 0.07837 0.0
C1576 C 0.46284 0.9264 0.06062 0.0
C1577 C 0.40105 0.90364 0.10761 0.0
C1578 C 0.40571 0.89912 0.14261 0.0
C1579 C 0.37818 0.88977 0.0902 0.0
C1580 C 0.37156 0.89253 0.05334 0.0
C1581 C 0.36977 0.87207 0.03002 0.0
C1582 C 0.36128 0.87393 0.99572 0.0
C1583 C 0.35454 0.89621 0.98445 0.0
C1584 C 0.35646 0.91669 0.00741 0.0
C1585 C 0.36475 0.91485 0.0418 0.0
H1586 H 0.34804 0.89764 0.95786 0.0
H1587 H 0.40874 0.87329 0.29524 0.0
H1588 H 0.74644 0.19856 0.17122 0.0
H1589 H 0.71757 0.16487 0.13884 0.0
H1590 H 0.65697 0.17153 0.20778 0.0
H1591 H 0.68603 0.20459 0.24093 0.0
H1592 H 0.65585 0.12488 0.19095 0.0
H1593 H 0.6604 0.1999 0.13053 0.0
H1594 H 0.68136 0.23625 0.10166 0.0
H1595 H 0.70885 0.18857 0.0272 0.0
H1596 H 0.68872 0.15188 0.05625 0.0
H1597 H 0.54975 0.10561 0.04341 0.0
H1598 H 0.58809 0.12998 0.07329 0.0
H1599 H 0.61809 0.06313 0.09895 0.0
H1600 H 0.57895 0.03822 0.06956 0.0
H1601 H 0.63837 0.13653 0.06707 0.0
H1602 H 0.64914 0.07219 0.17731 0.0
H1603 H 0.62178 0.03846 0.20469 0.0
H1604 H 0.5534 0.07169 0.18033 0.0
H1605 H 0.58037 0.10564 0.15301 0.0
C1606 C 0.72704 0.19269 0.17965 0.0
C1607 C 0.71838 0.20442 0.20838 0.0
C1608 C 0.71056 0.17344 0.1611 0.0
C1609 C 0.68494 0.16592 0.17053 0.0
C1610 C 0.67664 0.17699 0.2 0.0
C1611 C 0.69323 0.196 0.21883 0.0
C1612 C 0.66618 0.14773 0.14862 0.0
C1613 C 0.65221 0.12734 0.16378 0.0
C1614 C 0.66106 0.15105 0.11322 0.0
C1615 C 0.67341 0.17313 0.09592 0.0
C1616 C 0.67118 0.19715 0.10825 0.0
C1617 C 0.68286 0.21783 0.0918 0.0
C1618 C 0.69644 0.21474 0.06263 0.0
C1619 C 0.69839 0.19094 0.04986 0.0
C1620 C 0.68691 0.1702 0.06637 0.0
C1621 C 0.56443 0.09591 0.05526 0.0
C1622 C 0.56101 0.06986 0.05451 0.0
C1623 C 0.58652 0.10998 0.07219 0.0
C1624 C 0.60587 0.09844 0.08867 0.0
C1625 C 0.60319 0.07243 0.08678 0.0
C1626 C 0.58086 0.05823 0.06993 0.0
C1627 C 0.62783 0.11394 0.10937 0.0
C1628 C 0.64241 0.1338 0.09402 0.0
C1629 C 0.63275 0.11074 0.14475 0.0
C1630 C 0.61671 0.09123 0.16284 0.0
C1631 C 0.62829 0.07234 0.17801 0.0
C1632 C 0.61284 0.05315 0.19338 0.0
C1633 C 0.58583 0.05282 0.19394 0.0
C1634 C 0.57428 0.07188 0.17964 0.0
C1635 C 0.58963 0.09107 0.16421 0.0
H1636 H 0.57386 0.03786 0.2056 0.0
H1637 H 0.70539 0.23078 0.04989 0.0
H1638 H 0.65498 0.64812 0.71234 0.0
H1639 H 0.63114 0.61078 0.735 0.0
H1640 H 0.68389 0.62078 0.826 0.0
H1641 H 0.70813 0.65787 0.80297 0.0
H1642 H 0.66473 0.57071 0.80963 0.0
H1643 H 0.63182 0.64791 0.82514 0.0
H1644 H 0.61688 0.68612 0.80582 0.0
H1645 H 0.55472 0.64292 0.74173 0.0
H1646 H 0.56961 0.60443 0.76024 0.0
H1647 H 0.57805 0.53465 0.94054 0.0
H1648 H 0.61094 0.55095 0.90182 0.0
H1649 H 0.55206 0.54066 0.8173 0.0
H1650 H 0.51896 0.5248 0.85591 0.0
H1651 H 0.57468 0.58732 0.82576 0.0
H1652 H 0.60471 0.50908 0.81912 0.0
H1653 H 0.61994 0.47197 0.84194 0.0
H1654 H 0.68718 0.51739 0.89335 0.0
H1655 H 0.67216 0.55483 0.87129 0.0
C1656 C 0.66186 0.64192 0.73674 0.0
C1657 C 0.68303 0.65603 0.75622 0.0
C1658 C 0.64835 0.62058 0.74959 0.0
C1659 C 0.65545 0.61335 0.78247 0.0
C1660 C 0.6781 0.62607 0.80059 0.0
C1661 C 0.69187 0.64728 0.78747 0.0
C1662 C 0.63691 0.59557 0.80009 0.0
C1663 C 0.64504 0.57425 0.81328 0.0
C1664 C 0.61119 0.60021 0.80461 0.0
C1665 C 0.60202 0.62332 0.79375 0.0
C1666 C 0.61509 0.64657 0.80673 0.0
C1667 C 0.60663 0.66827 0.79594 0.0
C1668 C 0.58491 0.66695 0.77248 0.0
C1669 C 0.57157 0.64391 0.75984 0.0
C1670 C 0.58002 0.62215 0.77046 0.0
C1671 C 0.57222 0.53519 0.91353 0.0
C1672 C 0.5458 0.52886 0.90139 0.0
C1673 C 0.59111 0.54441 0.89137 0.0
C1674 C 0.58393 0.54709 0.85668 0.0
C1675 C 0.55798 0.53884 0.84402 0.0
C1676 C 0.53908 0.52984 0.86615 0.0
C1677 C 0.60219 0.56207 0.83509 0.0
C1678 C 0.59411 0.58325 0.82152 0.0
C1679 C 0.62791 0.55732 0.83071 0.0
C1680 C 0.63719 0.53481 0.84372 0.0
C1681 C 0.62265 0.51119 0.83549 0.0
C1682 C 0.63126 0.49008 0.84826 0.0
C1683 C 0.65448 0.49232 0.86913 0.0
C1684 C 0.66919 0.51568 0.87719 0.0
C1685 C 0.66065 0.53685 0.86451 0.0
H1686 H 0.6611 0.47596 0.87902 0.0
H1687 H 0.57838 0.68377 0.76417 0.0
H1688 H 0.27521 0.6917 0.82429 0.0
H1689 H 0.3025 0.66448 0.85228 0.0
H1690 H 0.37046 0.70336 0.80821 0.0
H1691 H 0.34278 0.72927 0.77825 0.0
H1692 H 0.37644 0.66005 0.80532 0.0
H1693 H 0.35385 0.70837 0.89981 0.0
H1694 H 0.32534 0.72695 0.93803 0.0
H1695 H 0.28846 0.65449 0.9621 0.0
H1696 H 0.31654 0.63546 0.92367 0.0
H1697 H 0.46776 0.60983 0.92027 0.0
H1698 H 0.44112 0.63969 0.89685 0.0
H1699 H 0.37143 0.58586 0.90054 0.0
H1700 H 0.39791 0.55579 0.92292 0.0
H1701 H 0.36807 0.63756 0.92612 0.0
H1702 H 0.39287 0.59103 0.82829 0.0
H1703 H 0.42507 0.57512 0.79313 0.0
H1704 H 0.46246 0.64946 0.7797 0.0
H1705 H 0.43068 0.66579 0.81523 0.0
C1706 C 0.29599 0.69443 0.82063 0.0
C1707 C 0.30678 0.71271 0.79903 0.0
C1708 C 0.31175 0.67896 0.83699 0.0
C1709 C 0.33896 0.68195 0.8333 0.0
C1710 C 0.34966 0.70037 0.81174 0.0
C1711 C 0.33379 0.71533 0.7946 0.0
C1712 C 0.35614 0.66553 0.85083 0.0
C1713 C 0.37473 0.65563 0.83194 0.0
C1714 C 0.35416 0.65913 0.88559 0.0
C1715 C 0.33712 0.6705 0.90856 0.0
C1716 C 0.33953 0.6964 0.91304 0.0
C1717 C 0.32346 0.70701 0.93479 0.0
C1718 C 0.30505 0.69191 0.95241 0.0
C1719 C 0.3027 0.66616 0.94839 0.0
C1720 C 0.3187 0.65545 0.92665 0.0
C1721 C 0.44674 0.60441 0.91631 0.0
C1722 C 0.43503 0.58031 0.92325 0.0
C1723 C 0.43153 0.62149 0.90287 0.0
C1724 C 0.40422 0.61503 0.89679 0.0
C1725 C 0.39241 0.59133 0.90498 0.0
C1726 C 0.40764 0.5741 0.91766 0.0
C1727 C 0.38802 0.63247 0.88052 0.0
C1728 C 0.36968 0.64237 0.89962 0.0
C1729 C 0.39066 0.63941 0.84631 0.0
C1730 C 0.40959 0.6296 0.82472 0.0
C1731 C 0.4081 0.60396 0.81809 0.0
C1732 C 0.42624 0.59488 0.79804 0.0
C1733 C 0.44585 0.61127 0.78427 0.0
C1734 C 0.44729 0.63679 0.79043 0.0
C1735 C 0.42921 0.64596 0.81049 0.0
H1736 H 0.45988 0.6042 0.76876 0.0
H1737 H 0.29264 0.70015 0.96924 0.0
H1738 H 0.325 0.27762 0.84225 0.0
H1739 H 0.35897 0.3038 0.87871 0.0
H1740 H 0.36894 0.35649 0.79952 0.0
H1741 H 0.33486 0.33024 0.76253 0.0
H1742 H 0.41652 0.349 0.83288 0.0
H1743 H 0.33226 0.36702 0.86215 0.0
H1744 H 0.2869 0.35612 0.87857 0.0
H1745 H 0.31485 0.32636 0.97138 0.0
H1746 H 0.36039 0.33672 0.95522 0.0
H1747 H 0.46657 0.46101 0.92467 0.0
H1748 H 0.43805 0.42792 0.89133 0.0
H1749 H 0.44177 0.37977 0.97562 0.0
H1750 H 0.47106 0.41291 0.00938 0.0
H1751 H 0.38925 0.38168 0.94276 0.0
H1752 H 0.47405 0.367 0.91572 0.0
H1753 H 0.51928 0.37763 0.89885 0.0
H1754 H 0.49065 0.40116 0.80212 0.0
H1755 H 0.4452 0.39104 0.8186 0.0
C1756 C 0.33452 0.29466 0.83235 0.0
C1757 C 0.327 0.30198 0.79956 0.0
C1758 C 0.35395 0.30961 0.8533 0.0
C1759 C 0.36621 0.33222 0.84199 0.0
C1760 C 0.35965 0.3391 0.80872 0.0
C1761 C 0.34013 0.32414 0.78768 0.0
C1762 C 0.38473 0.34929 0.86567 0.0
C1763 C 0.41053 0.35631 0.85676 0.0
C1764 C 0.37704 0.35829 0.89726 0.0
C1765 C 0.34971 0.35241 0.90731 0.0
C1766 C 0.32873 0.35799 0.88595 0.0
C1767 C 0.30299 0.35193 0.89521 0.0
C1768 C 0.298 0.3405 0.92595 0.0
C1769 C 0.31875 0.33518 0.94755 0.0
C1770 C 0.34453 0.34116 0.93836 0.0
C1771 C 0.46134 0.44346 0.93635 0.0
C1772 C 0.47115 0.43959 0.96976 0.0
C1773 C 0.44511 0.42452 0.91712 0.0
C1774 C 0.43805 0.40139 0.93092 0.0
C1775 C 0.44716 0.39753 0.96454 0.0
C1776 C 0.46384 0.41643 0.98374 0.0
C1777 C 0.42095 0.38155 0.90981 0.0
C1778 C 0.39535 0.37411 0.9191 0.0
C1779 C 0.42884 0.3722 0.87858 0.0
C1780 C 0.45618 0.37846 0.86855 0.0
C1781 C 0.47738 0.37469 0.89099 0.0
C1782 C 0.50307 0.38057 0.88147 0.0
C1783 C 0.50785 0.39012 0.84947 0.0
C1784 C 0.48692 0.39378 0.82691 0.0
C1785 C 0.46118 0.38795 0.83632 0.0
H1786 H 0.52776 0.39461 0.84213 0.0
H1787 H 0.27806 0.33581 0.93308 0.0
H1788 H 0.66988 0.2843 0.80082 0.0
H1789 H 0.64281 0.3018 0.84103 0.0
H1790 H 0.64785 0.36837 0.7845 0.0
H1791 H 0.67571 0.3511 0.7444 0.0
H1792 H 0.66374 0.34622 0.87948 0.0
H1793 H 0.58686 0.38983 0.7984 0.0
H1794 H 0.56089 0.38222 0.74295 0.0
H1795 H 0.56508 0.30454 0.74596 0.0
H1796 H 0.59068 0.31161 0.80168 0.0
H1797 H 0.61192 0.44385 0.96432 0.0
H1798 H 0.63193 0.4177 0.92505 0.0
H1799 H 0.56485 0.36034 0.92617 0.0
H1800 H 0.54469 0.38618 0.96538 0.0
H1801 H 0.57762 0.37442 0.86028 0.0
H1802 H 0.61883 0.35059 0.96491 0.0
H1803 H 0.64385 0.35915 0.02084 0.0
H1804 H 0.7099 0.3956 0.97157 0.0
H1805 H 0.68506 0.38767 0.91534 0.0
C1806 C 0.66509 0.3026 0.79681 0.0
C1807 C 0.67534 0.31666 0.77006 0.0
C1808 C 0.64953 0.31246 0.81962 0.0
C1809 C 0.64366 0.33635 0.81573 0.0
C1810 C 0.65222 0.34981 0.78766 0.0
C1811 C 0.66801 0.33996 0.76483 0.0
C1812 C 0.63108 0.34807 0.84313 0.0
C1813 C 0.64486 0.35232 0.87538 0.0
C1814 C 0.60649 0.35585 0.83749 0.0
C1815 C 0.591 0.35133 0.80403 0.0
C1816 C 0.5822 0.37112 0.78727 0.0
C1817 C 0.56753 0.3669 0.75579 0.0
C1818 C 0.56144 0.34293 0.74087 0.0
C1819 C 0.56993 0.32312 0.75746 0.0
C1820 C 0.58457 0.32723 0.78896 0.0
C1821 C 0.60168 0.42548 0.95676 0.0
C1822 C 0.5767 0.4171 0.9677 0.0
C1823 C 0.6131 0.41063 0.93434 0.0
C1824 C 0.59967 0.38728 0.92275 0.0
C1825 C 0.57532 0.37841 0.93484 0.0
C1826 C 0.56397 0.39315 0.95737 0.0
C1827 C 0.61038 0.37269 0.89646 0.0
C1828 C 0.5964 0.36812 0.8644 0.0
C1829 C 0.63476 0.36454 0.90225 0.0
C1830 C 0.65 0.36871 0.93593 0.0
C1831 C 0.63864 0.36055 0.96601 0.0
C1832 C 0.6528 0.36529 0.99778 0.0
C1833 C 0.67844 0.37797 0.99979 0.0
C1834 C 0.69003 0.38581 0.96999 0.0
C1835 C 0.67592 0.38118 0.93815 0.0
H1836 H 0.68936 0.38174 0.0244 0.0
H1837 H 0.55009 0.3397 0.71649 0.0
H1838 H 0.68899 0.30679 0.25044 0.0
H1839 H 0.66091 0.33287 0.22154 0.0
H1840 H 0.71162 0.33995 0.1381 0.0
H1841 H 0.73955 0.31346 0.16663 0.0
H1842 H 0.66766 0.37858 0.20529 0.0
H1843 H 0.67993 0.34858 0.06548 0.0
H1844 H 0.68584 0.31129 0.03118 0.0
H1845 H 0.64757 0.26504 0.10515 0.0
H1846 H 0.64126 0.30209 0.13957 0.0
H1847 H 0.6248 0.46787 0.1 0.0
H1848 H 0.64993 0.43792 0.12476 0.0
H1849 H 0.58749 0.37863 0.09194 0.0
H1850 H 0.56216 0.40872 0.06638 0.0
H1851 H 0.63386 0.36378 0.08363 0.0
H1852 H 0.59598 0.40135 0.17595 0.0
H1853 H 0.58487 0.43563 0.21206 0.0
H1854 H 0.66657 0.46146 0.23777 0.0
H1855 H 0.67818 0.42752 0.20142 0.0
C1856 C 0.69419 0.3138 0.22587 0.0
C1857 C 0.71662 0.30787 0.21094 0.0
C1858 C 0.67806 0.32883 0.20933 0.0
C1859 C 0.68377 0.33834 0.17727 0.0
C1860 C 0.70629 0.33257 0.16241 0.0
C1861 C 0.72243 0.31748 0.17893 0.0
C1862 C 0.66656 0.35474 0.16001 0.0
C1863 C 0.66037 0.37528 0.17866 0.0
C1864 C 0.65634 0.35042 0.12544 0.0
C1865 C 0.66017 0.32808 0.10501 0.0
C1866 C 0.67265 0.33044 0.07422 0.0
C1867 C 0.67614 0.30935 0.05484 0.0
C1868 C 0.66717 0.28579 0.06602 0.0
C1869 C 0.65464 0.28329 0.09658 0.0
C1870 C 0.65113 0.30432 0.11604 0.0
C1871 C 0.61629 0.44847 0.09784 0.0
C1872 C 0.59116 0.44088 0.08142 0.0
C1873 C 0.63076 0.43128 0.11222 0.0
C1874 C 0.62056 0.4059 0.11098 0.0
C1875 C 0.59585 0.39807 0.09354 0.0
C1876 C 0.58129 0.41534 0.07901 0.0
C1877 C 0.63552 0.38791 0.12872 0.0
C1878 C 0.64126 0.3671 0.1102 0.0
C1879 C 0.64483 0.39163 0.16372 0.0
C1880 C 0.63795 0.41202 0.18572 0.0
C1881 C 0.61158 0.41445 0.18911 0.0
C1882 C 0.60519 0.4338 0.20965 0.0
C1883 C 0.625 0.45074 0.22713 0.0
C1884 C 0.65124 0.44834 0.22418 0.0
C1885 C 0.65774 0.42903 0.20364 0.0
H1886 H 0.62002 0.46571 0.24303 0.0
H1887 H 0.66989 0.26948 0.05101 0.0
H1888 H 0.68484 0.70106 0.23914 0.0
H1889 H 0.65224 0.67316 0.20215 0.0
H1890 H 0.67726 0.71294 0.114 0.0
H1891 H 0.70958 0.74111 0.15069 0.0
H1892 H 0.61011 0.68168 0.15267 0.0
H1893 H 0.68367 0.66598 0.05321 0.0
H1894 H 0.73144 0.6687 0.04993 0.0
H1895 H 0.73988 0.65299 0.15637 0.0
H1896 H 0.69214 0.64972 0.1601 0.0
H1897 H 0.54236 0.61266 0.00771 0.0
H1898 H 0.57365 0.64438 0.04052 0.0
H1899 H 0.61075 0.58747 0.08758 0.0
H1900 H 0.57959 0.55564 0.055 0.0
H1901 H 0.64662 0.62752 0.06977 0.0
H1902 H 0.56737 0.61164 0.1295 0.0
H1903 H 0.51962 0.60796 0.13354 0.0
H1904 H 0.52254 0.68436 0.11019 0.0
H1905 H 0.57029 0.68839 0.10549 0.0
C1906 C 0.68312 0.7041 0.21196 0.0
C1907 C 0.6999 0.72319 0.19782 0.0
C1908 C 0.66443 0.68822 0.19092 0.0
C1909 C 0.66252 0.69094 0.15539 0.0
C1910 C 0.67854 0.71053 0.14137 0.0
C1911 C 0.69697 0.7266 0.16241 0.0
C1912 C 0.64525 0.67222 0.13266 0.0
C1913 C 0.61804 0.66992 0.13443 0.0
C1914 C 0.6557 0.65672 0.10917 0.0
C1915 C 0.68436 0.65791 0.10699 0.0
C1916 C 0.69571 0.66299 0.07585 0.0
C1917 C 0.72278 0.66463 0.07392 0.0
C1918 C 0.73869 0.66112 0.10295 0.0
C1919 C 0.72755 0.6558 0.13393 0.0
C1920 C 0.70048 0.65407 0.13597 0.0
C1921 C 0.55742 0.60689 0.02464 0.0
C1922 C 0.55835 0.58162 0.02898 0.0
C1923 C 0.57521 0.62504 0.04345 0.0
C1924 C 0.5943 0.61823 0.06673 0.0
C1925 C 0.59612 0.59309 0.06978 0.0
C1926 C 0.57823 0.57493 0.05123 0.0
C1927 C 0.61141 0.63715 0.08943 0.0
C1928 C 0.63864 0.63945 0.08774 0.0
C1929 C 0.60096 0.65247 0.1132 0.0
C1930 C 0.57236 0.65025 0.11684 0.0
C1931 C 0.55781 0.62762 0.12504 0.0
C1932 C 0.53075 0.62547 0.12745 0.0
C1933 C 0.51805 0.6459 0.12205 0.0
C1934 C 0.53241 0.66854 0.11434 0.0
C1935 C 0.55947 0.67078 0.11182 0.0
H1936 H 0.49711 0.6442 0.12394 0.0
H1937 H 0.75965 0.66246 0.10143 0.0
H1938 H 0.30353 0.6676 0.20948 0.0
H1939 H 0.32712 0.64361 0.17144 0.0
H1940 H 0.40062 0.67964 0.22099 0.0
H1941 H 0.37686 0.70323 0.25972 0.0
H1942 H 0.38906 0.68585 0.14578 0.0
H1943 H 0.39135 0.62372 0.23006 0.0
H1944 H 0.37263 0.59315 0.27008 0.0
H1945 H 0.32369 0.55307 0.18736 0.0
H1946 H 0.34172 0.58369 0.14698 0.0
H1947 H 0.47635 0.62744 0.05274 0.0
H1948 H 0.45127 0.64738 0.09289 0.0
H1949 H 0.38281 0.59347 0.06296 0.0
H1950 H 0.40813 0.57289 0.02334 0.0
H1951 H 0.39119 0.59588 0.12906 0.0
H1952 H 0.38593 0.65545 0.04461 0.0
H1953 H 0.40183 0.68507 1.00183 0.0
H1954 H 0.45127 0.72962 0.08023 0.0
H1955 H 0.43589 0.7001 0.12345 0.0
C1956 C 0.32469 0.66973 0.21278 0.0
C1957 C 0.33859 0.68712 0.23711 0.0
C1958 C 0.33807 0.65607 0.19128 0.0
C1959 C 0.36547 0.66 0.19362 0.0
C1960 C 0.37941 0.67638 0.21917 0.0
C1961 C 0.36595 0.68969 0.2412 0.0
C1962 C 0.37925 0.64983 0.16618 0.0
C1963 C 0.39002 0.66624 0.14232 0.0
C1964 C 0.37909 0.62417 0.1611 0.0
C1965 C 0.36775 0.60611 0.18555 0.0
C1966 C 0.37636 0.60856 0.22048 0.0
C1967 C 0.36591 0.59119 0.24322 0.0
C1968 C 0.34694 0.57121 0.23129 0.0
C1969 C 0.33834 0.56858 0.1966 0.0
C1970 C 0.34867 0.58594 0.17378 0.0
C1971 C 0.45577 0.62021 0.05403 0.0
C1972 C 0.44417 0.59854 0.03519 0.0
C1973 C 0.44145 0.63165 0.07697 0.0
C1974 C 0.41519 0.62189 0.08084 0.0
C1975 C 0.40311 0.60116 0.06042 0.0
C1976 C 0.41754 0.58951 0.03777 0.0
C1977 C 0.40125 0.63191 0.10849 0.0
C1978 C 0.3903 0.61551 0.13235 0.0
C1979 C 0.40064 0.65755 0.11312 0.0
C1980 C 0.4099 0.67544 0.08724 0.0
C1981 C 0.40033 0.67147 0.0527 0.0
C1982 C 0.40923 0.68826 0.02837 0.0
C1983 C 0.42759 0.70918 0.03829 0.0
C1984 C 0.43705 0.71339 0.07258 0.0
C1985 C 0.42822 0.69666 0.09702 0.0
H1986 H 0.43446 0.72216 0.01942 0.0
H1987 H 0.33893 0.55774 0.24892 0.0
H1988 H 0.32142 0.36455 0.19985 0.0
H1989 H 0.34449 0.40231 0.177 0.0
H1990 H 0.39922 0.41176 0.26602 0.0
H1991 H 0.37655 0.37381 0.28848 0.0
H1992 H 0.36438 0.45294 0.19454 0.0
H1993 H 0.45947 0.41653 0.23772 0.0
H1994 H 0.47382 0.37718 0.2534 0.0
H1995 H 0.40986 0.33648 0.1896 0.0
H1996 H 0.39545 0.37557 0.17308 0.0
H1997 H 0.50945 0.49802 0.14532 0.0
H1998 H 0.47644 0.48261 0.18425 0.0
H1999 H 0.417 0.47338 0.10047 0.0
H2000 H 0.44984 0.48912 0.06133 0.0
H2001 H 0.45339 0.43553 0.17339 0.0
H2002 H 0.35608 0.47004 0.13349 0.0
H2003 H 0.34127 0.50808 0.11326 0.0
H2004 H 0.40945 0.55213 0.16447 0.0
H2005 H 0.42457 0.51438 0.18536 0.0
C2006 C 0.33785 0.37517 0.21501 0.0
C2007 C 0.34762 0.36609 0.24555 0.0
C2008 C 0.35094 0.39678 0.20202 0.0
C2009 C 0.3738 0.40955 0.21956 0.0
C2010 C 0.38179 0.40197 0.25191 0.0
C2011 C 0.36897 0.38026 0.26461 0.0
C2012 C 0.39192 0.42747 0.20156 0.0
C2013 C 0.38385 0.44924 0.1898 0.0
C2014 C 0.4173 0.42256 0.19548 0.0
C2015 C 0.42621 0.39896 0.20456 0.0
C2016 C 0.44856 0.39918 0.22695 0.0
C2017 C 0.4567 0.37692 0.23597 0.0
C2018 C 0.4427 0.35434 0.22262 0.0
C2019 C 0.42063 0.35397 0.20003 0.0
C2020 C 0.41247 0.37617 0.19084 0.0
C2021 C 0.48925 0.49334 0.13528 0.0
C2022 C 0.48237 0.49431 0.10008 0.0
C2023 C 0.47038 0.48463 0.15763 0.0
C2024 C 0.4443 0.47673 0.14524 0.0
C2025 C 0.43695 0.47962 0.11067 0.0
C2026 C 0.45582 0.48849 0.08827 0.0
C2027 C 0.42624 0.46145 0.16672 0.0
C2028 C 0.43421 0.43976 0.17874 0.0
C2029 C 0.40078 0.4664 0.17241 0.0
C2030 C 0.39158 0.48931 0.16071 0.0
C2031 C 0.36786 0.48784 0.1406 0.0
C2032 C 0.35943 0.50935 0.12897 0.0
C2033 C 0.3745 0.53248 0.1374 0.0
C2034 C 0.3979 0.53418 0.15777 0.0
C2035 C 0.40643 0.51272 0.16945 0.0
H2036 H 0.36804 0.54906 0.12811 0.0
H2037 H 0.449 0.33714 0.2297 0.0
H2038 H 0.84296 0.73661 0.70734 0.0
H2039 H 0.86954 0.70954 0.67989 0.0
H2040 H 0.79945 0.66267 0.63712 0.0
H2041 H 0.77272 0.68915 0.66644 0.0
H2042 H 0.82993 0.6337 0.65342 0.0
H2043 H 0.84563 0.70476 0.58718 0.0
H2044 H 0.85715 0.74878 0.57451 0.0
H2045 H 0.93344 0.75092 0.62537 0.0
H2046 H 0.92234 0.70693 0.63846 0.0
H2047 H 0.90558 0.56739 0.54314 0.0
H2048 H 0.87591 0.59529 0.56267 0.0
H2049 H 0.93824 0.6343 0.63134 0.0
H2050 H 0.9677 0.6064 0.61216 0.0
H2051 H 0.90997 0.66675 0.59663 0.0
H2052 H 0.89034 0.59265 0.66129 0.0
H2053 H 0.87691 0.54773 0.66619 0.0
H2054 H 0.80439 0.5512 0.60837 0.0
H2055 H 0.81755 0.5961 0.60278 0.0
C2056 C 0.83309 0.72072 0.69174 0.0
C2057 C 0.8055 0.7154 0.68893 0.0
C2058 C 0.84846 0.70517 0.67569 0.0
C2059 C 0.83689 0.684 0.65534 0.0
C2060 C 0.80925 0.67874 0.65239 0.0
C2061 C 0.79384 0.69407 0.66907 0.0
C2062 C 0.85357 0.66703 0.63847 0.0
C2063 C 0.84714 0.64114 0.64055 0.0
C2064 C 0.87637 0.6761 0.62148 0.0
C2065 C 0.88305 0.70263 0.61409 0.0
C2066 C 0.86479 0.71468 0.59589 0.0
C2067 C 0.87127 0.7396 0.58856 0.0
C2068 C 0.89597 0.75266 0.59924 0.0
C2069 C 0.9143 0.74079 0.61716 0.0
C2070 C 0.90795 0.71585 0.62447 0.0
C2071 C 0.91299 0.582 0.56221 0.0
C2072 C 0.93911 0.58446 0.57597 0.0
C2073 C 0.89595 0.59795 0.57354 0.0
C2074 C 0.9046 0.61704 0.59879 0.0
C2075 C 0.93086 0.61985 0.61193 0.0
C2076 C 0.94774 0.60371 0.60098 0.0
C2077 C 0.88641 0.63376 0.61214 0.0
C2078 C 0.89262 0.65953 0.60938 0.0
C2079 C 0.86304 0.62455 0.62758 0.0
C2080 C 0.85502 0.59766 0.63138 0.0
C2081 C 0.8716 0.58379 0.64946 0.0
C2082 C 0.86403 0.55835 0.65238 0.0
C2083 C 0.83984 0.54661 0.63753 0.0
C2084 C 0.82313 0.56031 0.61982 0.0
C2085 C 0.83062 0.58576 0.61681 0.0
H2086 H 0.83402 0.5269 0.6398 0.0
H2087 H 0.90094 0.77195 0.59355 0.0
H2088 H 0.38013 0.78677 0.69374 0.0
H2089 H 0.41295 0.82377 0.68878 0.0
H2090 H 0.36125 0.85036 0.6127 0.0
H2091 H 0.32804 0.81409 0.61943 0.0
H2092 H 0.44086 0.84577 0.64302 0.0
H2093 H 0.3616 0.91007 0.62216 0.0
H2094 H 0.31606 0.91032 0.63681 0.0
H2095 H 0.32861 0.8671 0.72384 0.0
H2096 H 0.37445 0.8671 0.71035 0.0
H2097 H 0.48248 0.94707 0.551 0.0
H2098 H 0.46352 0.91056 0.57887 0.0
H2099 H 0.44837 0.95608 0.66563 0.0
H2100 H 0.46625 0.99328 0.6366 0.0
H2101 H 0.40756 0.92607 0.64948 0.0
H2102 H 0.49443 0.91336 0.67117 0.0
H2103 H 0.54047 0.91191 0.65991 0.0
H2104 H 0.51596 0.85312 0.58359 0.0
H2105 H 0.46975 0.8544 0.594 0.0
C2106 C 0.37621 0.80042 0.67556 0.0
C2107 C 0.35189 0.79791 0.65682 0.0
C2108 C 0.39482 0.82148 0.67279 0.0
C2109 C 0.38928 0.8401 0.65101 0.0
C2110 C 0.36563 0.83656 0.63041 0.0
C2111 C 0.34683 0.81585 0.63387 0.0
C2112 C 0.40744 0.86381 0.6509 0.0
C2113 C 0.43373 0.86338 0.64469 0.0
C2114 C 0.39842 0.88683 0.65504 0.0
C2115 C 0.37146 0.88842 0.665 0.0
C2116 C 0.35478 0.90089 0.64469 0.0
C2117 C 0.32887 0.9009 0.65273 0.0
C2118 C 0.31939 0.88849 0.68102 0.0
C2119 C 0.33593 0.87644 0.70173 0.0
C2120 C 0.36191 0.87655 0.694 0.0
C2121 C 0.47566 0.9494 0.57635 0.0
C2122 C 0.47589 0.97309 0.59164 0.0
C2123 C 0.46497 0.92838 0.59246 0.0
C2124 C 0.45496 0.93041 0.62475 0.0
C2125 C 0.45609 0.95402 0.64078 0.0
C2126 C 0.46632 0.97524 0.62424 0.0
C2127 C 0.4407 0.90802 0.63935 0.0
C2128 C 0.41506 0.90862 0.64864 0.0
C2129 C 0.45068 0.88529 0.63937 0.0
C2130 C 0.47853 0.88401 0.63339 0.0
C2131 C 0.49882 0.90016 0.6519 0.0
C2132 C 0.52497 0.89938 0.64566 0.0
C2133 C 0.53113 0.88244 0.62105 0.0
C2134 C 0.51116 0.8662 0.6027 0.0
C2135 C 0.48497 0.8669 0.60883 0.0
H2136 H 0.55139 0.88189 0.61624 0.0
H2137 H 0.29928 0.88839 0.68707 0.0
H2138 H 0.23257 0.29053 0.58341 0.0
H2139 H 0.19143 0.2976 0.55296 0.0
H2140 H 0.1859 0.35658 0.62735 0.0
H2141 H 0.22624 0.34887 0.65794 0.0
H2142 H 0.14136 0.32476 0.61983 0.0
H2143 H 0.20494 0.36477 0.54402 0.0
H2144 H 0.23918 0.36556 0.50299 0.0
H2145 H 0.18761 0.3138 0.43508 0.0
H2146 H 0.15317 0.31236 0.47609 0.0
H2147 H 0.0969 0.42827 0.57594 0.0
H2148 H 0.11577 0.39166 0.5896 0.0
H2149 H 0.07953 0.35442 0.49543 0.0
H2150 H 0.06037 0.39171 0.48148 0.0
H2151 H 0.13035 0.35208 0.50137 0.0
H2152 H 0.06324 0.32863 0.57195 0.0
H2153 H 0.02962 0.33241 0.6128 0.0
H2154 H 0.08949 0.36015 0.69163 0.0
H2155 H 0.12347 0.35696 0.65123 0.0
C2156 C 0.22279 0.30542 0.59243 0.0
C2157 C 0.23244 0.31943 0.62262 0.0
C2158 C 0.19927 0.30928 0.57533 0.0
C2159 C 0.18547 0.32744 0.58812 0.0
C2160 C 0.19601 0.34223 0.61729 0.0
C2161 C 0.21915 0.33812 0.63449 0.0
C2162 C 0.15966 0.33111 0.5724 0.0
C2163 C 0.139 0.33098 0.59399 0.0
C2164 C 0.15588 0.33734 0.53788 0.0
C2165 C 0.17673 0.33795 0.51353 0.0
C2166 C 0.20106 0.3532 0.52064 0.0
C2167 C 0.22048 0.35381 0.49735 0.0
C2168 C 0.2157 0.33947 0.46667 0.0
C2169 C 0.19138 0.32467 0.45906 0.0
C2170 C 0.17192 0.32394 0.48232 0.0
C2171 C 0.09245 0.41213 0.55845 0.0
C2172 C 0.07723 0.41275 0.52771 0.0
C2173 C 0.10297 0.39102 0.56648 0.0
C2174 C 0.09859 0.37 0.54394 0.0
C2175 C 0.08275 0.37027 0.51347 0.0
C2176 C 0.07184 0.39149 0.50557 0.0
C2177 C 0.11419 0.34991 0.55061 0.0
C2178 C 0.13257 0.34577 0.5271 0.0
C2179 C 0.11633 0.34058 0.58368 0.0
C2180 C 0.09598 0.34238 0.60845 0.0
C2181 C 0.06927 0.33561 0.59796 0.0
C2182 C 0.05013 0.33767 0.62107 0.0
C2183 C 0.05742 0.34647 0.65481 0.0
C2184 C 0.08387 0.35324 0.66551 0.0
C2185 C 0.1031 0.35123 0.64253 0.0
H2186 H 0.0426 0.34804 0.67269 0.0
H2187 H 0.23073 0.34004 0.44861 0.0
H2188 H 0.76009 0.18858 0.66262 0.0
H2189 H 0.73111 0.15606 0.62763 0.0
H2190 H 0.66764 0.19819 0.63369 0.0
H2191 H 0.69643 0.23096 0.66775 0.0
H2192 H 0.66048 0.14687 0.65937 0.0
H2193 H 0.68631 0.19403 0.56232 0.0
H2194 H 0.7175 0.21486 0.52369 0.0
H2195 H 0.74449 0.14607 0.50095 0.0
H2196 H 0.71376 0.12488 0.53996 0.0
H2197 H 0.55785 0.06978 0.56229 0.0
H2198 H 0.58942 0.10518 0.58565 0.0
H2199 H 0.65262 0.07086 0.54889 0.0
H2200 H 0.62117 0.03554 0.52497 0.0
H2201 H 0.66132 0.1184 0.53777 0.0
H2202 H 0.63991 0.07101 0.63438 0.0
H2203 H 0.61302 0.04848 0.67638 0.0
H2204 H 0.5824 0.11464 0.70352 0.0
H2205 H 0.60885 0.13749 0.66132 0.0
C2206 C 0.74016 0.19123 0.65572 0.0
C2207 C 0.73061 0.2124 0.66805 0.0
C2208 C 0.72364 0.17263 0.63574 0.0
C2209 C 0.69724 0.17475 0.62814 0.0
C2210 C 0.68797 0.19626 0.63921 0.0
C2211 C 0.70453 0.21501 0.65862 0.0
C2212 C 0.67857 0.15352 0.61204 0.0
C2213 C 0.66037 0.1408 0.63267 0.0
C2214 C 0.67922 0.14514 0.57755 0.0
C2215 C 0.69796 0.15794 0.55446 0.0
C2216 C 0.69916 0.1834 0.54951 0.0
C2217 C 0.7167 0.19526 0.52743 0.0
C2218 C 0.73304 0.18182 0.50996 0.0
C2219 C 0.73186 0.15647 0.51453 0.0
C2220 C 0.71437 0.14453 0.53662 0.0
C2221 C 0.57845 0.06973 0.55906 0.0
C2222 C 0.5869 0.04963 0.54189 0.0
C2223 C 0.59653 0.08998 0.57261 0.0
C2224 C 0.62351 0.09059 0.56955 0.0
C2225 C 0.63195 0.07085 0.5517 0.0
C2226 C 0.61389 0.0506 0.53808 0.0
C2227 C 0.64288 0.11172 0.58512 0.0
C2228 C 0.6613 0.12439 0.5645 0.0
C2229 C 0.64288 0.11978 0.61995 0.0
C2230 C 0.62609 0.10587 0.64433 0.0
C2231 C 0.62716 0.08067 0.64895 0.0
C2232 C 0.61208 0.06786 0.67289 0.0
C2233 C 0.59594 0.0801 0.69252 0.0
C2234 C 0.59483 0.10516 0.68821 0.0
C2235 C 0.60986 0.11804 0.66427 0.0
H2236 H 0.58436 0.07017 0.71114 0.0
H2237 H 0.74656 0.19102 0.49282 0.0
H2238 H 0.83535 0.32594 0.26882 0.0
H2239 H 0.86404 0.36114 0.29792 0.0
H2240 H 0.81266 0.35966 0.38056 0.0
H2241 H 0.78364 0.32438 0.35148 0.0
H2242 H 0.82907 0.40726 0.35936 0.0
H2243 H 0.86816 0.33589 0.39118 0.0
H2244 H 0.88636 0.29756 0.37988 0.0
H2245 H 0.9451 0.33737 0.32151 0.0
H2246 H 0.92701 0.37591 0.33213 0.0
H2247 H 0.91504 0.48513 0.47974 0.0
H2248 H 0.88478 0.45148 0.44958 0.0
H2249 H 0.94166 0.44395 0.37546 0.0
H2250 H 0.97246 0.47691 0.40647 0.0
H2251 H 0.92184 0.40084 0.39183 0.0
H2252 H 0.88467 0.47178 0.35839 0.0
H2253 H 0.86665 0.51067 0.36583 0.0
H2254 H 0.80504 0.4733 0.42203 0.0
H2255 H 0.8229 0.43424 0.41534 0.0
C2256 C 0.83008 0.33307 0.29318 0.0
C2257 C 0.80727 0.32225 0.30796 0.0
C2258 C 0.84655 0.35317 0.3098 0.0
C2259 C 0.84061 0.36281 0.34156 0.0
C2260 C 0.8176 0.35242 0.35608 0.0
C2261 C 0.80111 0.33223 0.3395 0.0
C2262 C 0.85862 0.38358 0.35972 0.0
C2263 C 0.84927 0.40582 0.36692 0.0
C2264 C 0.88517 0.38188 0.36852 0.0
C2265 C 0.89609 0.35873 0.36222 0.0
C2266 C 0.88483 0.33643 0.37572 0.0
C2267 C 0.89516 0.31467 0.36947 0.0
C2268 C 0.91685 0.31501 0.34992 0.0
C2269 C 0.92829 0.33713 0.33662 0.0
C2270 C 0.91802 0.35894 0.34279 0.0
C2271 C 0.92103 0.4764 0.45688 0.0
C2272 C 0.94608 0.48374 0.44535 0.0
C2273 C 0.90365 0.45724 0.43953 0.0
C2274 C 0.9107 0.44542 0.40983 0.0
C2275 C 0.93572 0.45278 0.39827 0.0
C2276 C 0.9533 0.47165 0.41597 0.0
C2277 C 0.89241 0.42477 0.39151 0.0
C2278 C 0.90167 0.40246 0.3843 0.0
C2279 C 0.8659 0.42658 0.38222 0.0
C2280 C 0.85527 0.45012 0.38661 0.0
C2281 C 0.86741 0.4719 0.37258 0.0
C2282 C 0.85719 0.49396 0.3766 0.0
C2283 C 0.83471 0.49445 0.39438 0.0
C2284 C 0.82244 0.47288 0.40825 0.0
C2285 C 0.8326 0.45077 0.40433 0.0
H2286 H 0.82678 0.51153 0.39739 0.0
H2287 H 0.92487 0.29818 0.34513 0.0
H2288 H 0.72346 0.83743 0.26621 0.0
H2289 H 0.69848 0.8646 0.29709 0.0
H2290 H 0.68075 0.80868 0.37054 0.0
H2291 H 0.70638 0.78184 0.3404 0.0
H2292 H 0.65079 0.8636 0.30921 0.0
H2293 H 0.6692 0.83376 0.44822 0.0
H2294 H 0.70347 0.81822 0.48401 0.0
H2295 H 0.76203 0.85136 0.41979 0.0
H2296 H 0.72816 0.86742 0.38385 0.0
H2297 H 0.5572 0.90381 0.4115 0.0
H2298 H 0.58645 0.87897 0.3853 0.0
H2299 H 0.65315 0.92648 0.43565 0.0
H2300 H 0.62366 0.95148 0.46267 0.0
H2301 H 0.66181 0.8794 0.43531 0.0
H2302 H 0.63459 0.93152 0.34959 0.0
H2303 H 0.60329 0.95081 0.3135 0.0
H2304 H 0.56817 0.87923 0.27021 0.0
H2305 H 0.59904 0.85948 0.3064 0.0
C2306 C 0.71433 0.83091 0.28901 0.0
C2307 C 0.71717 0.80736 0.30074 0.0
C2308 C 0.69992 0.84652 0.30673 0.0
C2309 C 0.68782 0.83912 0.33675 0.0
C2310 C 0.69027 0.81538 0.34811 0.0
C2311 C 0.70487 0.79985 0.33058 0.0
C2312 C 0.67223 0.85594 0.35552 0.0
C2313 C 0.65332 0.86694 0.33679 0.0
C2314 C 0.6755 0.861 0.3916 0.0
C2315 C 0.69608 0.85157 0.41313 0.0
C2316 C 0.6894 0.83781 0.44179 0.0
C2317 C 0.70876 0.82889 0.46211 0.0
C2318 C 0.73491 0.83372 0.45414 0.0
C2319 C 0.74176 0.84755 0.42587 0.0
C2320 C 0.72248 0.85654 0.40549 0.0
C2321 C 0.57807 0.90907 0.41731 0.0
C2322 C 0.58791 0.93001 0.43909 0.0
C2323 C 0.5949 0.89479 0.40202 0.0
C2324 C 0.62224 0.90097 0.40764 0.0
C2325 C 0.6322 0.92127 0.43051 0.0
C2326 C 0.61527 0.93564 0.44598 0.0
C2327 C 0.64009 0.88647 0.38902 0.0
C2328 C 0.65936 0.87596 0.40774 0.0
C2329 C 0.63753 0.8822 0.35284 0.0
C2330 C 0.61899 0.89401 0.33093 0.0
C2331 C 0.62008 0.91988 0.33254 0.0
C2332 C 0.60243 0.9309 0.31205 0.0
C2333 C 0.58372 0.91625 0.28964 0.0
C2334 C 0.58266 0.89055 0.28761 0.0
C2335 C 0.60024 0.87944 0.30809 0.0
H2336 H 0.57007 0.92481 0.27379 0.0
H2337 H 0.74986 0.82678 0.4699 0.0
H2338 H 0.23018 0.68769 0.29911 0.0
H2339 H 0.19931 0.65736 0.32658 0.0
H2340 H 0.14949 0.71233 0.34208 0.0
H2341 H 0.18016 0.74275 0.31359 0.0
H2342 H 0.15359 0.68385 0.4009 0.0
H2343 H 0.12955 0.66747 0.28254 0.0
H2344 H 0.13511 0.65906 0.22134 0.0
H2345 H 0.16562 0.59262 0.24548 0.0
H2346 H 0.16038 0.60071 0.30692 0.0
H2347 H 0.05018 0.58765 0.45508 0.0
H2348 H 0.07551 0.62358 0.42928 0.0
H2349 H 0.12512 0.57567 0.38662 0.0
H2350 H 0.10017 0.54049 0.41115 0.0
H2351 H 0.11722 0.60388 0.33975 0.0
H2352 H 0.14122 0.62222 0.46052 0.0
H2353 H 0.13382 0.63196 0.52062 0.0
H2354 H 0.10194 0.69659 0.49134 0.0
H2355 H 0.10845 0.68688 0.4307 0.0
C2356 C 0.21273 0.69354 0.30836 0.0
C2357 C 0.20808 0.71808 0.30384 0.0
C2358 C 0.19484 0.67594 0.32413 0.0
C2359 C 0.17157 0.68205 0.33674 0.0
C2360 C 0.16707 0.70671 0.3329 0.0
C2361 C 0.18476 0.72425 0.3164 0.0
C2362 C 0.15217 0.66264 0.3533 0.0
C2363 C 0.14539 0.66651 0.38725 0.0
C2364 C 0.14117 0.63964 0.33622 0.0
C2365 C 0.14483 0.63484 0.29941 0.0
C2366 C 0.13769 0.65119 0.27485 0.0
C2367 C 0.14071 0.64645 0.2401 0.0
C2368 C 0.1508 0.62537 0.22952 0.0
C2369 C 0.15784 0.60896 0.25371 0.0
C2370 C 0.15481 0.61359 0.28851 0.0
C2371 C 0.06655 0.58476 0.44037 0.0
C2372 C 0.07252 0.56053 0.43545 0.0
C2373 C 0.0813 0.60554 0.4255 0.0
C2374 C 0.10281 0.603 0.40544 0.0
C2375 C 0.10879 0.57886 0.40124 0.0
C2376 C 0.09419 0.55837 0.41572 0.0
C2377 C 0.11908 0.62456 0.38806 0.0
C2378 C 0.12531 0.62115 0.35365 0.0
C2379 C 0.12934 0.64803 0.40471 0.0
C2380 C 0.12497 0.65361 0.44101 0.0
C2381 C 0.13234 0.63835 0.46681 0.0
C2382 C 0.12834 0.64389 0.50101 0.0
C2383 C 0.11742 0.66485 0.50988 0.0
C2384 C 0.11035 0.68031 0.48446 0.0
C2385 C 0.11412 0.67477 0.45014 0.0
H2386 H 0.11449 0.66913 0.53645 0.0
H2387 H 0.15309 0.62172 0.20259 0.0
H2388 H 0.2744 0.19427 0.31913 0.0
H2389 H 0.30088 0.1675 0.34936 0.0
H2390 H 0.36502 0.22808 0.36409 0.0
H2391 H 0.33879 0.25478 0.33288 0.0
H2392 H 0.38427 0.18914 0.34633 0.0
H2393 H 0.32522 0.2035 0.43163 0.0
H2394 H 0.28275 0.20475 0.4562 0.0
H2395 H 0.26088 0.12652 0.43453 0.0
H2396 H 0.30308 0.12485 0.40943 0.0
H2397 H 0.45982 0.12183 0.46043 0.0
H2398 H 0.43514 0.15255 0.43525 0.0
H2399 H 0.36768 0.09592 0.4148 0.0
H2400 H 0.39184 0.06558 0.44024 0.0
H2401 H 0.35144 0.13478 0.43768 0.0
H2402 H 0.40934 0.12071 0.35057 0.0
H2403 H 0.45197 0.1189 0.32672 0.0
H2404 H 0.47611 0.19633 0.3528 0.0
H2405 H 0.43371 0.19854 0.37718 0.0
C2406 C 0.294 0.20209 0.32922 0.0
C2407 C 0.30422 0.22692 0.32363 0.0
C2408 C 0.30924 0.18667 0.34672 0.0
C2409 C 0.33513 0.19558 0.35971 0.0
C2410 C 0.34522 0.22049 0.35454 0.0
C2411 C 0.33005 0.2359 0.33682 0.0
C2412 C 0.35187 0.17879 0.37746 0.0
C2413 C 0.37716 0.17764 0.36678 0.0
C2414 C 0.34277 0.1631 0.40372 0.0
C2415 C 0.3172 0.16412 0.41828 0.0
C2416 C 0.31125 0.18661 0.43179 0.0
C2417 C 0.28724 0.18738 0.44589 0.0
C2418 C 0.26909 0.16575 0.44683 0.0
C2419 C 0.27493 0.14328 0.43371 0.0
C2420 C 0.29888 0.14241 0.41955 0.0
C2421 C 0.43976 0.11592 0.45046 0.0
C2422 C 0.42804 0.09103 0.45235 0.0
C2423 C 0.42561 0.13353 0.43585 0.0
C2424 C 0.39939 0.12673 0.4225 0.0
C2425 C 0.38774 0.10193 0.42472 0.0
C2426 C 0.40177 0.08444 0.43928 0.0
C2427 C 0.38374 0.14514 0.40663 0.0
C2428 C 0.35862 0.14652 0.41756 0.0
C2429 C 0.393 0.161 0.38067 0.0
C2430 C 0.41848 0.15972 0.36605 0.0
C2431 C 0.42382 0.13731 0.35146 0.0
C2432 C 0.44793 0.13622 0.3378 0.0
C2433 C 0.46677 0.15747 0.33835 0.0
C2434 C 0.46152 0.17987 0.35246 0.0
C2435 C 0.43745 0.18106 0.36618 0.0
H2436 H 0.48542 0.15658 0.32776 0.0
H2437 H 0.25054 0.16638 0.45779 0.0
H2438 H 0.69526 0.76696 0.66968 0.0
H2439 H 0.66842 0.79387 0.64024 0.0
H2440 H 0.73116 0.85544 0.65838 0.0
H2441 H 0.75804 0.82861 0.68822 0.0
H2442 H 0.6874 0.86999 0.67338 0.0
H2443 H 0.71235 0.82574 0.57682 0.0
H2444 H 0.7178 0.78914 0.54092 0.0
H2445 H 0.63452 0.76607 0.53199 0.0
H2446 H 0.62859 0.80228 0.56846 0.0
H2447 H 0.63604 0.95508 0.56734 0.0
H2448 H 0.66165 0.92568 0.59246 0.0
H2449 H 0.59522 0.86762 0.57555 0.0
H2450 H 0.56921 0.89724 0.54985 0.0
H2451 H 0.63981 0.85054 0.55941 0.0
H2452 H 0.61447 0.89477 0.65548 0.0
H2453 H 0.60897 0.93056 0.69292 0.0
H2454 H 0.69236 0.95258 0.70464 0.0
H2455 H 0.69837 0.91722 0.66666 0.0
C2456 C 0.70361 0.78612 0.66694 0.0
C2457 C 0.72908 0.79539 0.68124 0.0
C2458 C 0.68814 0.80159 0.64993 0.0
C2459 C 0.69761 0.82688 0.64653 0.0
C2460 C 0.7232 0.83609 0.66038 0.0
C2461 C 0.73872 0.8206 0.67731 0.0
C2462 C 0.68049 0.84389 0.63014 0.0
C2463 C 0.67725 0.86574 0.64834 0.0
C2464 C 0.66655 0.83841 0.59761 0.0
C2465 C 0.67005 0.81659 0.57574 0.0
C2466 C 0.69521 0.81273 0.56753 0.0
C2467 C 0.69839 0.79205 0.54707 0.0
C2468 C 0.67653 0.77525 0.53427 0.0
C2469 C 0.65144 0.77909 0.54195 0.0
C2470 C 0.64816 0.79967 0.56255 0.0
C2471 C 0.62665 0.93609 0.56891 0.0
C2472 C 0.60031 0.92875 0.55654 0.0
C2473 C 0.64145 0.9192 0.58353 0.0
C2474 C 0.63051 0.89428 0.58654 0.0
C2475 C 0.60429 0.88668 0.57374 0.0
C2476 C 0.58934 0.9037 0.5591 0.0
C2477 C 0.64664 0.87649 0.60293 0.0
C2478 C 0.64977 0.85459 0.58466 0.0
C2479 C 0.66042 0.88182 0.63557 0.0
C2480 C 0.65685 0.90348 0.6578 0.0
C2481 C 0.63163 0.90741 0.66565 0.0
C2482 C 0.62842 0.92761 0.68705 0.0
C2483 C 0.65029 0.94389 0.70104 0.0
C2484 C 0.67543 0.94 0.69369 0.0
C2485 C 0.67874 0.9199 0.67219 0.0
H2486 H 0.64777 0.95947 0.71768 0.0
H2487 H 0.67902 0.7593 0.51833 0.0
H2488 H 0.64955 0.24054 0.36697 0.0
H2489 H 0.61824 0.20465 0.38104 0.0
H2490 H 0.67883 0.1588 0.37789 0.0
H2491 H 0.71025 0.19456 0.36458 0.0
H2492 H 0.63437 0.14086 0.33522 0.0
H2493 H 0.65776 0.17228 0.45141 0.0
H2494 H 0.6634 0.20358 0.49935 0.0
H2495 H 0.58118 0.20754 0.48991 0.0
H2496 H 0.5751 0.17672 0.44126 0.0
H2497 H 0.58584 0.02875 0.40606 0.0
H2498 H 0.60832 0.06776 0.38773 0.0
H2499 H 0.54206 0.10327 0.4104 0.0
H2500 H 0.51997 0.06429 0.43087 0.0
H2501 H 0.5844 0.12901 0.43886 0.0
H2502 H 0.56123 0.09283 0.32497 0.0
H2503 H 0.55727 0.05824 0.28168 0.0
H2504 H 0.64076 0.0615 0.28891 0.0
H2505 H 0.64524 0.09585 0.33254 0.0
C2506 C 0.65634 0.22296 0.3702 0.0
C2507 C 0.68225 0.22024 0.36423 0.0
C2508 C 0.63842 0.20249 0.37802 0.0
C2509 C 0.64625 0.17912 0.38003 0.0
C2510 C 0.67241 0.17667 0.37597 0.0
C2511 C 0.69029 0.19707 0.36835 0.0
C2512 C 0.62698 0.15681 0.38411 0.0
C2513 C 0.62343 0.13817 0.35789 0.0
C2514 C 0.61235 0.15376 0.41328 0.0
C2515 C 0.61604 0.17245 0.44235 0.0
C2516 C 0.64093 0.18004 0.45926 0.0
C2517 C 0.6442 0.19763 0.48665 0.0
C2518 C 0.62269 0.20754 0.49767 0.0
C2519 C 0.59784 0.19988 0.4813 0.0
C2520 C 0.59447 0.18238 0.45379 0.0
C2521 C 0.57567 0.04464 0.40617 0.0
C2522 C 0.55113 0.04349 0.4198 0.0
C2523 C 0.58856 0.06701 0.39559 0.0
C2524 C 0.57676 0.08844 0.39724 0.0
C2525 C 0.55152 0.08696 0.40889 0.0
C2526 C 0.53886 0.06468 0.42032 0.0
C2527 C 0.59195 0.11271 0.39013 0.0
C2528 C 0.59477 0.13182 0.41575 0.0
C2529 C 0.60606 0.11615 0.36043 0.0
C2530 C 0.60353 0.09681 0.33224 0.0
C2531 C 0.57875 0.0862 0.31727 0.0
C2532 C 0.57641 0.06661 0.29274 0.0
C2533 C 0.59874 0.05755 0.28285 0.0
C2534 C 0.62349 0.06847 0.29677 0.0
C2535 C 0.62594 0.08805 0.32133 0.0
H2536 H 0.59687 0.04198 0.26456 0.0
H2537 H 0.62527 0.22112 0.51893 0.0
H2538 H 0.7768 0.71164 0.41897 0.0
H2539 H 0.81114 0.69596 0.45457 0.0
H2540 H 0.83521 0.66016 0.36444 0.0
H2541 H 0.80136 0.67593 0.32918 0.0
H2542 H 0.8298 0.63022 0.42191 0.0
H2543 H 0.86838 0.7127 0.39025 0.0
H2544 H 0.87091 0.75798 0.38926 0.0
H2545 H 0.87715 0.76345 0.49936 0.0
H2546 H 0.87441 0.71803 0.50091 0.0
H2547 H 0.94879 0.60019 0.4209 0.0
H2548 H 0.91773 0.62875 0.40995 0.0
H2549 H 0.92098 0.64841 0.51811 0.0
H2550 H 0.95367 0.62091 0.52878 0.0
H2551 H 0.90886 0.6876 0.46897 0.0
H2552 H 0.87719 0.60329 0.49798 0.0
H2553 H 0.87678 0.55801 0.49431 0.0
H2554 H 0.85875 0.55656 0.38572 0.0
H2555 H 0.8588 0.6017 0.38869 0.0
C2556 C 0.7892 0.70003 0.40712 0.0
C2557 C 0.78658 0.6948 0.37154 0.0
C2558 C 0.80883 0.69132 0.42729 0.0
C2559 C 0.82564 0.67705 0.41198 0.0
C2560 C 0.82235 0.67114 0.37665 0.0
C2561 C 0.80311 0.6801 0.35658 0.0
C2562 C 0.84721 0.66833 0.43197 0.0
C2563 C 0.84693 0.64275 0.43264 0.0
C2564 C 0.86928 0.68477 0.44653 0.0
C2565 C 0.87078 0.71199 0.44569 0.0
C2566 C 0.87 0.72354 0.41424 0.0
C2567 C 0.87154 0.74924 0.41358 0.0
C2568 C 0.87405 0.76362 0.44424 0.0
C2569 C 0.87512 0.7523 0.47563 0.0
C2570 C 0.87359 0.72657 0.47641 0.0
C2571 C 0.94399 0.61167 0.44203 0.0
C2572 C 0.95316 0.60827 0.47565 0.0
C2573 C 0.92618 0.62784 0.43584 0.0
C2574 C 0.91665 0.64007 0.46336 0.0
C2575 C 0.92809 0.63899 0.49661 0.0
C2576 C 0.94664 0.62327 0.50268 0.0
C2577 C 0.89167 0.64954 0.45755 0.0
C2578 C 0.8913 0.67511 0.4596 0.0
C2579 C 0.86887 0.63312 0.4453 0.0
C2580 C 0.86807 0.60585 0.44359 0.0
C2581 C 0.87318 0.59329 0.47335 0.0
C2582 C 0.87304 0.56769 0.4714 0.0
C2583 C 0.86798 0.5545 0.43984 0.0
C2584 C 0.86272 0.56681 0.41016 0.0
C2585 C 0.86265 0.59237 0.41198 0.0
H2586 H 0.8681 0.53473 0.43844 0.0
H2587 H 0.87526 0.78354 0.44367 0.0
H2588 H 0.32513 0.78908 0.33617 0.0
H2589 H 0.35373 0.82138 0.37118 0.0
H2590 H 0.29745 0.87106 0.35558 0.0
H2591 H 0.26857 0.83874 0.32038 0.0
H2592 H 0.37598 0.86569 0.34866 0.0
H2593 H 0.30461 0.91284 0.4256 0.0
H2594 H 0.26215 0.90219 0.45094 0.0
H2595 H 0.27618 0.8274 0.46149 0.0
H2596 H 0.31883 0.83767 0.43658 0.0
H2597 H 0.40521 0.9891 0.46281 0.0
H2598 H 0.37428 0.95473 0.43541 0.0
H2599 H 0.43509 0.90889 0.43734 0.0
H2600 H 0.46642 0.94362 0.46341 0.0
H2601 H 0.35389 0.91177 0.45154 0.0
H2602 H 0.42686 0.86673 0.37381 0.0
H2603 H 0.46748 0.87859 0.34464 0.0
H2604 H 0.448 0.95131 0.33128 0.0
H2605 H 0.40719 0.9398 0.36013 0.0
C2606 C 0.31853 0.8067 0.34064 0.0
C2607 C 0.2945 0.81128 0.32536 0.0
C2608 C 0.33502 0.82521 0.36057 0.0
C2609 C 0.32781 0.84867 0.36603 0.0
C2610 C 0.30336 0.85303 0.35201 0.0
C2611 C 0.28684 0.83451 0.33189 0.0
C2612 C 0.34666 0.86892 0.38445 0.0
C2613 C 0.3713 0.8755 0.3715 0.0
C2614 C 0.34027 0.88234 0.41351 0.0
C2615 C 0.3148 0.87599 0.4289 0.0
C2616 C 0.29867 0.89415 0.43344 0.0
C2617 C 0.27456 0.88817 0.4477 0.0
C2618 C 0.26644 0.86412 0.45772 0.0
C2619 C 0.28244 0.846 0.45359 0.0
C2620 C 0.30656 0.85188 0.43933 0.0
C2621 C 0.41203 0.97169 0.45745 0.0
C2622 C 0.43839 0.9692 0.46506 0.0
C2623 C 0.39426 0.95199 0.44177 0.0
C2624 C 0.40232 0.92922 0.4336 0.0
C2625 C 0.42845 0.92642 0.44236 0.0
C2626 C 0.44635 0.94626 0.45751 0.0
C2627 C 0.38338 0.90855 0.41585 0.0
C2628 C 0.35868 0.90192 0.42881 0.0
C2629 C 0.38953 0.89529 0.38642 0.0
C2630 C 0.41414 0.90247 0.36939 0.0
C2631 C 0.43128 0.88525 0.36466 0.0
C2632 C 0.45432 0.89191 0.34819 0.0
C2633 C 0.46035 0.91571 0.3362 0.0
C2634 C 0.44335 0.9329 0.34066 0.0
C2635 C 0.42029 0.92634 0.35713 0.0
H2636 H 0.47816 0.92081 0.3234 0.0
H2637 H 0.24777 0.85952 0.46875 0.0
H2638 H 0.19107 0.28255 0.30637 0.0
H2639 H 0.1647 0.31093 0.33197 0.0
H2640 H 0.23395 0.36505 0.35447 0.0
H2641 H 0.26052 0.33674 0.32857 0.0
H2642 H 0.20183 0.36426 0.40727 0.0
H2643 H 0.19356 0.37102 0.2878 0.0
H2644 H 0.18564 0.35648 0.22723 0.0
H2645 H 0.10565 0.32829 0.24383 0.0
H2646 H 0.11334 0.34188 0.30496 0.0
H2647 H 0.1284 0.46244 0.44491 0.0
H2648 H 0.15883 0.43674 0.42218 0.0
H2649 H 0.09339 0.38321 0.38059 0.0
H2650 H 0.06316 0.40981 0.40108 0.0
H2651 H 0.12663 0.38585 0.33646 0.0
H2652 H 0.13696 0.38251 0.45947 0.0
H2653 H 0.14798 0.3999 0.51855 0.0
H2654 H 0.22718 0.42419 0.49451 0.0
H2655 H 0.21644 0.4079 0.43492 0.0
C2656 C 0.20086 0.30035 0.31712 0.0
C2657 C 0.22811 0.30717 0.31526 0.0
C2658 C 0.18563 0.31671 0.33165 0.0
C2659 C 0.19708 0.34046 0.34498 0.0
C2660 C 0.22444 0.34697 0.34442 0.0
C2661 C 0.23968 0.33068 0.32953 0.0
C2662 C 0.18036 0.35863 0.35821 0.0
C2663 C 0.1854 0.36902 0.39183 0.0
C2664 C 0.15901 0.36527 0.33801 0.0
C2665 C 0.15413 0.35723 0.30115 0.0
C2666 C 0.17434 0.3615 0.27867 0.0
C2667 C 0.16988 0.35346 0.24419 0.0
C2668 C 0.14514 0.34151 0.23163 0.0
C2669 C 0.12482 0.33754 0.25359 0.0
C2670 C 0.12923 0.34535 0.28821 0.0
C2671 C 0.12052 0.44511 0.43109 0.0
C2672 C 0.09323 0.43821 0.42505 0.0
C2673 C 0.13801 0.43024 0.4181 0.0
C2674 C 0.12878 0.40743 0.39995 0.0
C2675 C 0.10142 0.40054 0.3943 0.0
C2676 C 0.08401 0.41576 0.4063 0.0
C2677 C 0.14721 0.39078 0.38649 0.0
C2678 C 0.14268 0.38082 0.35244 0.0
C2679 C 0.16923 0.38477 0.40635 0.0
C2680 C 0.17578 0.39412 0.44251 0.0
C2681 C 0.15669 0.39168 0.46668 0.0
C2682 C 0.16286 0.40143 0.50026 0.0
C2683 C 0.18824 0.41311 0.51028 0.0
C2684 C 0.20749 0.41519 0.4867 0.0
C2685 C 0.20134 0.40578 0.45297 0.0
H2686 H 0.193 0.42048 0.53635 0.0
H2687 H 0.14173 0.33536 0.20488 0.0
H2688 H 0.31238 0.19174 0.74469 0.0
H2689 H 0.33852 0.16451 0.71597 0.0
H2690 H 0.33841 0.20861 0.62698 0.0
H2691 H 0.31213 0.23577 0.65545 0.0
H2692 H 0.33023 0.16129 0.60665 0.0
H2693 H 0.39367 0.21145 0.68368 0.0
H2694 H 0.41358 0.23098 0.7389 0.0
H2695 H 0.41483 0.15929 0.77944 0.0
H2696 H 0.39468 0.13931 0.72453 0.0
H2697 H 0.43029 0.10626 0.52536 0.0
H2698 H 0.40272 0.13384 0.55073 0.0
H2699 H 0.40661 0.09609 0.64537 0.0
H2700 H 0.43507 0.06947 0.62033 0.0
H2701 H 0.41282 0.14146 0.66168 0.0
H2702 H 0.35009 0.09152 0.5806 0.0
H2703 H 0.33157 0.07408 0.52366 0.0
H2704 H 0.32914 0.14738 0.4893 0.0
H2705 H 0.34841 0.16525 0.54551 0.0
C2706 C 0.31792 0.19572 0.71902 0.0
C2707 C 0.31005 0.21613 0.70256 0.0
C2708 C 0.33306 0.18012 0.70258 0.0
C2709 C 0.34084 0.18443 0.66918 0.0
C2710 C 0.33281 0.2047 0.65265 0.0
C2711 C 0.31779 0.22036 0.66911 0.0
C2712 C 0.3571 0.1678 0.65142 0.0
C2713 C 0.34845 0.15717 0.61857 0.0
C2714 C 0.38079 0.16197 0.66682 0.0
C2715 C 0.39247 0.17389 0.70007 0.0
C2716 C 0.39799 0.19985 0.70446 0.0
C2717 C 0.40939 0.211 0.73566 0.0
C2718 C 0.41553 0.19637 0.76261 0.0
C2719 C 0.41014 0.17058 0.75849 0.0
C2720 C 0.39874 0.15933 0.72733 0.0
C2721 C 0.42481 0.1036 0.55131 0.0
C2722 C 0.4345 0.08538 0.57061 0.0
C2723 C 0.40895 0.11942 0.56596 0.0
C2724 C 0.40195 0.11711 0.60015 0.0
C2725 C 0.41148 0.09856 0.61908 0.0
C2726 C 0.42765 0.08312 0.60465 0.0
C2727 C 0.38579 0.13443 0.61694 0.0
C2728 C 0.39452 0.14534 0.64968 0.0
C2729 C 0.36227 0.14063 0.60123 0.0
C2730 C 0.35102 0.12974 0.56721 0.0
C2731 C 0.34592 0.10393 0.56075 0.0
C2732 C 0.3353 0.09395 0.52856 0.0
C2733 C 0.32933 0.10959 0.50276 0.0
C2734 C 0.33394 0.13524 0.50913 0.0
C2735 C 0.34477 0.14531 0.54114 0.0
H2736 H 0.32104 0.10185 0.47788 0.0
H2737 H 0.42445 0.20504 0.78671 0.0
H2738 H 0.79419 0.33267 0.69234 0.0
H2739 H 0.82424 0.36299 0.66415 0.0
H2740 H 0.8781 0.31067 0.65656 0.0
H2741 H 0.84834 0.28052 0.68641 0.0
H2742 H 0.90729 0.35208 0.66649 0.0
H2743 H 0.83533 0.32961 0.58425 0.0
H2744 H 0.78928 0.32207 0.56102 0.0
H2745 H 0.78305 0.39842 0.58246 0.0
H2746 H 0.82898 0.40635 0.60623 0.0
H2747 H 0.98311 0.4345 0.5517 0.0
H2748 H 0.95606 0.39848 0.57512 0.0
H2749 H 0.89907 0.44454 0.60073 0.0
H2750 H 0.92533 0.47976 0.57758 0.0
H2751 H 0.87299 0.4028 0.57715 0.0
H2752 H 0.94718 0.42321 0.66136 0.0
H2753 H 0.99407 0.4286 0.6807 0.0
H2754 H 0.99679 0.35299 0.64953 0.0
H2755 H 0.95007 0.34727 0.62962 0.0
C2756 C 0.81233 0.32737 0.68459 0.0
C2757 C 0.81829 0.30363 0.69174 0.0
C2758 C 0.82971 0.34493 0.66796 0.0
C2759 C 0.85378 0.33955 0.65679 0.0
C2760 C 0.85992 0.31587 0.6643 0.0
C2761 C 0.84263 0.29835 0.68142 0.0
C2762 C 0.87227 0.35855 0.63782 0.0
C2763 C 0.89958 0.36281 0.64663 0.0
C2764 C 0.86315 0.37317 0.61155 0.0
C2765 C 0.83552 0.36851 0.59732 0.0
C2766 C 0.82408 0.34475 0.58422 0.0
C2767 C 0.79801 0.34041 0.57093 0.0
C2768 C 0.78323 0.35974 0.57034 0.0
C2769 C 0.79451 0.38346 0.58297 0.0
C2770 C 0.82057 0.3879 0.59633 0.0
C2771 C 0.96475 0.43693 0.56208 0.0
C2772 C 0.95693 0.46061 0.56262 0.0
C2773 C 0.9492 0.4162 0.57592 0.0
C2774 C 0.92514 0.41828 0.59057 0.0
C2775 C 0.91723 0.44177 0.59003 0.0
C2776 C 0.93265 0.46225 0.57666 0.0
C2777 C 0.90781 0.39673 0.60639 0.0
C2778 C 0.88066 0.39199 0.59695 0.0
C2779 C 0.91719 0.38142 0.63154 0.0
C2780 C 0.94522 0.3849 0.64366 0.0
C2781 C 0.95785 0.4078 0.65842 0.0
C2782 C 0.9844 0.4109 0.66951 0.0
C2783 C 0.99846 0.39118 0.66623 0.0
C2784 C 0.98596 0.36828 0.65198 0.0
C2785 C 0.95944 0.36509 0.6408 0.0
H2786 H 0.01901 0.39361 0.67482 0.0
H2787 H 0.76305 0.35634 0.56004 0.0
H2788 H 0.24666 0.69243 0.66301 0.0
H2789 H 0.21859 0.65704 0.63311 0.0
H2790 H 0.15641 0.66712 0.69801 0.0
H2791 H 0.18466 0.70189 0.72886 0.0
H2792 H 0.16209 0.62004 0.69362 0.0
H2793 H 0.15369 0.68277 0.61417 0.0
H2794 H 0.16683 0.71608 0.57514 0.0
H2795 H 0.20466 0.66675 0.51482 0.0
H2796 H 0.19209 0.63323 0.55382 0.0
H2797 H 0.05575 0.5472 0.59138 0.0
H2798 H 0.08608 0.57952 0.62441 0.0
H2799 H 0.14923 0.56263 0.56554 0.0
H2800 H 0.11915 0.53025 0.53244 0.0
H2801 H 0.14486 0.61149 0.56755 0.0
H2802 H 0.14656 0.54755 0.64654 0.0
H2803 H 0.12971 0.51528 0.68524 0.0
H2804 H 0.09953 0.56936 0.74715 0.0
H2805 H 0.1156 0.60188 0.70836 0.0
C2806 C 0.227 0.68711 0.67089 0.0
C2807 C 0.2179 0.69986 0.69837 0.0
C2808 C 0.21093 0.66698 0.65365 0.0
C2809 C 0.18536 0.65951 0.66324 0.0
C2810 C 0.17613 0.67247 0.69034 0.0
C2811 C 0.19229 0.69235 0.70791 0.0
C2812 C 0.16853 0.63762 0.64593 0.0
C2813 C 0.15783 0.61842 0.66609 0.0
C2814 C 0.16367 0.63518 0.6099 0.0
C2815 C 0.17227 0.65558 0.58723 0.0
C2816 C 0.16516 0.67913 0.59289 0.0
C2817 C 0.17242 0.69802 0.5707 0.0
C2818 C 0.18667 0.69356 0.5426 0.0
C2819 C 0.19372 0.67021 0.53668 0.0
C2820 C 0.18655 0.65126 0.55884 0.0
C2821 C 0.07615 0.5502 0.58566 0.0
C2822 C 0.08503 0.53619 0.5592 0.0
C2823 C 0.09347 0.56855 0.60473 0.0
C2824 C 0.11992 0.57329 0.5976 0.0
C2825 C 0.12891 0.55914 0.57154 0.0
C2826 C 0.11167 0.54066 0.55266 0.0
C2827 C 0.1377 0.5944 0.61522 0.0
C2828 C 0.14882 0.61336 0.59508 0.0
C2829 C 0.14231 0.59687 0.65129 0.0
C2830 C 0.13195 0.57713 0.67412 0.0
C2831 C 0.13594 0.55252 0.66804 0.0
C2832 C 0.12659 0.53418 0.69009 0.0
C2833 C 0.11344 0.54024 0.71853 0.0
C2834 C 0.10961 0.56466 0.72501 0.0
C2835 C 0.11881 0.58305 0.70297 0.0
H2836 H 0.1063 0.52602 0.73563 0.0
H2837 H 0.19215 0.70818 0.52535 0.0
loop_
_geom_bond_atom_site_label_1
_geom_bond_atom_site_label_2
_geom_bond_distance
_geom_bond_site_symmetry_2
_ccdc_geom_bond_type
Co0 N5 2.057 . S
Co0 O17 2.021 . S
Co0 O20 2.062 . S
Co0 O24 2.117 . S
Co0 O25 2.020 . S
C1 O21 1.259 . S
C1 O24 1.258 . S
Co2 N11 2.057 . S
Co2 O18 2.117 . S
Co2 O19 2.020 . S
Co2 O21 2.021 . S
Co2 O26 2.062 . S
C3 N5 1.316 . S
C3 N6 1.347 . S
C3 H8 0.931 . S
C4 N5 1.375 . S
C4 C7 1.350 . S
C4 H9 0.930 . S
N5 Co0 2.057 . S
N5 C3 1.316 . S
N5 C4 1.375 . S
N6 C3 1.347 . S
N6 C7 1.373 . S
C7 C4 1.350 . S
C7 N6 1.373 . S
C7 H28 0.931 . S
H8 C3 0.931 . S
H9 C4 0.930 . S
C10 O17 1.259 . S
C10 O18 1.258 . S
N11 Co2 2.057 . S
N11 C12 1.316 . S
N11 C13 1.375 . S
C12 N11 1.316 . S
C12 N14 1.347 . S
C12 H23 0.931 . S
C13 N11 1.375 . S
C13 C15 1.350 . S
C13 H22 0.930 . S
N14 C12 1.347 . S
N14 C15 1.373 . S
C15 C13 1.350 . S
C15 N14 1.373 . S
C15 H29 0.931 . S
C16 O19 1.256 . S
C16 O20 1.255 . S
O17 Co0 2.021 . S
O17 C10 1.259 . S
O18 Co2 2.117 . S
O18 C10 1.258 . S
O19 Co2 2.020 . S
O19 C16 1.256 . S
O20 Co0 2.062 . S
O20 C16 1.255 . S
O21 C1 1.259 . S
O21 Co2 2.021 . S
H22 C13 0.930 . S
H23 C12 0.931 . S
O24 Co0 2.117 . S
O24 C1 1.258 . S
O25 Co0 2.020 . S
O25 C27 1.256 . S
O26 Co2 2.062 . S
O26 C27 1.255 . S
C27 O25 1.256 . S
C27 O26 1.255 . S
H28 C7 0.931 . S
H29 C15 0.931 . S
Co30 N35 2.057 . S
Co30 O47 2.021 . S
Co30 O50 2.062 . S
Co30 O54 2.117 . S
Co30 O55 2.020 . S
C31 O51 1.259 . S
C31 O54 1.258 . S
Co32 N41 2.057 . S
Co32 O48 2.117 . S
Co32 O49 2.020 . S
Co32 O51 2.021 . S
Co32 O56 2.062 . S
C33 N35 1.316 . S
C33 N36 1.347 . S
C33 H38 0.931 . S
C34 N35 1.375 . S
C34 C37 1.350 . S
C34 H39 0.930 . S
N35 Co30 2.057 . S
N35 C33 1.316 . S
N35 C34 1.375 . S
N36 C33 1.347 . S
N36 C37 1.373 . S
C37 C34 1.350 . S
C37 N36 1.373 . S
C37 H58 0.931 . S
H38 C33 0.931 . S
H39 C34 0.930 . S
C40 O47 1.259 . S
C40 O48 1.258 . S
N41 Co32 2.057 . S
N41 C42 1.316 . S
N41 C43 1.375 . S
C42 N41 1.316 . S
C42 N44 1.347 . S
C42 H53 0.931 . S
C43 N41 1.375 . S
C43 C45 1.350 . S
C43 H52 0.930 . S
N44 C42 1.347 . S
N44 C45 1.373 . S
C45 C43 1.350 . S
C45 N44 1.373 . S
C45 H59 0.931 . S
C46 O49 1.256 . S
C46 O50 1.255 . S
O47 Co30 2.021 . S
O47 C40 1.259 . S
O48 Co32 2.117 . S
O48 C40 1.258 . S
O49 Co32 2.020 . S
O49 C46 1.256 . S
O50 Co30 2.062 . S
O50 C46 1.255 . S
O51 C31 1.259 . S
O51 Co32 2.021 . S
H52 C43 0.930 . S
H53 C42 0.931 . S
O54 Co30 2.117 . S
O54 C31 1.258 . S
O55 Co30 2.020 . S
O55 C57 1.256 . S
O56 Co32 2.062 . S
O56 C57 1.255 . S
C57 O55 1.256 . S
C57 O56 1.255 . S
H58 C37 0.931 . S
H59 C45 0.931 . S
Co60 N65 2.057 . S
Co60 O77 2.021 . S
Co60 O80 2.062 . S
Co60 O84 2.117 . S
Co60 O85 2.020 . S
C61 O81 1.259 . S
C61 O84 1.258 . S
Co62 N71 2.057 . S
Co62 O78 2.117 . S
Co62 O79 2.020 . S
Co62 O81 2.021 . S
Co62 O86 2.062 . S
C63 N65 1.316 . S
C63 N66 1.347 . S
C63 H68 0.931 . S
C64 N65 1.375 . S
C64 C67 1.350 . S
C64 H69 0.930 . S
N65 Co60 2.057 . S
N65 C63 1.316 . S
N65 C64 1.375 . S
N66 C63 1.347 . S
N66 C67 1.373 . S
C67 C64 1.350 . S
C67 N66 1.373 . S
C67 H88 0.931 . S
H68 C63 0.931 . S
H69 C64 0.930 . S
C70 O77 1.259 . S
C70 O78 1.258 . S
N71 Co62 2.057 . S
N71 C72 1.316 . S
N71 C73 1.375 . S
C72 N71 1.316 . S
C72 N74 1.347 . S
C72 H83 0.931 . S
C73 N71 1.375 . S
C73 C75 1.350 . S
C73 H82 0.930 . S
N74 C72 1.347 . S
N74 C75 1.373 . S
C75 C73 1.350 . S
C75 N74 1.373 . S
C75 H89 0.931 . S
C76 O79 1.256 . S
C76 O80 1.255 . S
O77 Co60 2.021 . S
O77 C70 1.259 . S
O78 Co62 2.117 . S
O78 C70 1.258 . S
O79 Co62 2.020 . S
O79 C76 1.256 . S
O80 Co60 2.062 . S
O80 C76 1.255 . S
O81 C61 1.259 . S
O81 Co62 2.021 . S
H82 C73 0.930 . S
H83 C72 0.931 . S
O84 Co60 2.117 . S
O84 C61 1.258 . S
O85 Co60 2.020 . S
O85 C87 1.256 . S
O86 Co62 2.062 . S
O86 C87 1.255 . S
C87 O85 1.256 . S
C87 O86 1.255 . S
H88 C67 0.931 . S
H89 C75 0.931 . S
Co90 N95 2.057 . S
Co90 O107 2.021 . S
Co90 O110 2.062 . S
Co90 O114 2.117 . S
Co90 O115 2.020 . S
C91 O111 1.259 . S
C91 O114 1.258 . S
Co92 N101 2.057 . S
Co92 O108 2.117 . S
Co92 O109 2.020 . S
Co92 O111 2.021 . S
Co92 O116 2.062 . S
C93 N95 1.316 . S
C93 N96 1.347 . S
C93 H98 0.931 . S
C94 N95 1.375 . S
C94 C97 1.350 . S
C94 H99 0.930 . S
N95 Co90 2.057 . S
N95 C93 1.316 . S
N95 C94 1.375 . S
N96 C93 1.347 . S
N96 C97 1.373 . S
C97 C94 1.350 . S
C97 N96 1.373 . S
C97 H118 0.931 . S
H98 C93 0.931 . S
H99 C94 0.930 . S
C100 O107 1.259 . S
C100 O108 1.258 . S
N101 Co92 2.057 . S
N101 C102 1.316 . S
N101 C103 1.375 . S
C102 N101 1.316 . S
C102 N104 1.347 . S
C102 H113 0.931 . S
C103 N101 1.375 . S
C103 C105 1.350 . S
C103 H112 0.930 . S
N104 C102 1.347 . S
N104 C105 1.373 . S
C105 C103 1.350 . S
C105 N104 1.373 . S
C105 H119 0.931 . S
C106 O109 1.256 . S
C106 O110 1.255 . S
O107 Co90 2.021 . S
O107 C100 1.259 . S
O108 Co92 2.117 . S
O108 C100 1.258 . S
O109 Co92 2.020 . S
O109 C106 1.256 . S
O110 Co90 2.062 . S
O110 C106 1.255 . S
O111 C91 1.259 . S
O111 Co92 2.021 . S
H112 C103 0.930 . S
H113 C102 0.931 . S
O114 Co90 2.117 . S
O114 C91 1.258 . S
O115 Co90 2.020 . S
O115 C117 1.256 . S
O116 Co92 2.062 . S
O116 C117 1.255 . S
C117 O115 1.256 . S
C117 O116 1.255 . S
H118 C97 0.931 . S
H119 C105 0.931 . S
Co120 N125 2.057 . S
Co120 O137 2.021 . S
Co120 O140 2.062 . S
Co120 O144 2.117 . S
Co120 O145 2.020 . S
C121 O141 1.259 . S
C121 O144 1.258 . S
Co122 N131 2.057 . S
Co122 O138 2.117 . S
Co122 O139 2.020 . S
Co122 O141 2.021 . S
Co122 O146 2.062 . S
C123 N125 1.316 . S
C123 N126 1.347 . S
C123 H128 0.931 . S
C124 N125 1.375 . S
C124 C127 1.350 . S
C124 H129 0.930 . S
N125 Co120 2.057 . S
N125 C123 1.316 . S
N125 C124 1.375 . S
N126 C123 1.347 . S
N126 C127 1.373 . S
C127 C124 1.350 . S
C127 N126 1.373 . S
C127 H148 0.931 . S
H128 C123 0.931 . S
H129 C124 0.930 . S
C130 O137 1.259 . S
C130 O138 1.258 . S
N131 Co122 2.057 . S
N131 C132 1.316 . S
N131 C133 1.375 . S
C132 N131 1.316 . S
C132 N134 1.347 . S
C132 H143 0.931 . S
C133 N131 1.375 . S
C133 C135 1.350 . S
C133 H142 0.930 . S
N134 C132 1.347 . S
N134 C135 1.373 . S
C135 C133 1.350 . S
C135 N134 1.373 . S
C135 H149 0.931 . S
C136 O139 1.256 . S
C136 O140 1.255 . S
O137 Co120 2.021 . S
O137 C130 1.259 . S
O138 Co122 2.117 . S
O138 C130 1.258 . S
O139 Co122 2.020 . S
O139 C136 1.256 . S
O140 Co120 2.062 . S
O140 C136 1.255 . S
O141 C121 1.259 . S
O141 Co122 2.021 . S
H142 C133 0.930 . S
H143 C132 0.931 . S
O144 Co120 2.117 . S
O144 C121 1.258 . S
O145 Co120 2.020 . S
O145 C147 1.256 . S
O146 Co122 2.062 . S
O146 C147 1.255 . S
C147 O145 1.256 . S
C147 O146 1.255 . S
H148 C127 0.931 . S
H149 C135 0.931 . S
Co150 N155 2.057 . S
Co150 O167 2.021 . S
Co150 O170 2.062 . S
Co150 O174 2.117 . S
Co150 O175 2.020 . S
C151 O171 1.259 . S
C151 O174 1.258 . S
Co152 N161 2.057 . S
Co152 O168 2.117 . S
Co152 O169 2.020 . S
Co152 O171 2.021 . S
Co152 O176 2.062 . S
C153 N155 1.316 . S
C153 N156 1.347 . S
C153 H158 0.931 . S
C154 N155 1.375 . S
C154 C157 1.350 . S
C154 H159 0.930 . S
N155 Co150 2.057 . S
N155 C153 1.316 . S
N155 C154 1.375 . S
N156 C153 1.347 . S
N156 C157 1.373 . S
C157 C154 1.350 . S
C157 N156 1.373 . S
C157 H178 0.931 . S
H158 C153 0.931 . S
H159 C154 0.930 . S
C160 O167 1.259 . S
C160 O168 1.258 . S
N161 Co152 2.057 . S
N161 C162 1.316 . S
N161 C163 1.375 . S
C162 N161 1.316 . S
C162 N164 1.347 . S
C162 H173 0.931 . S
C163 N161 1.375 . S
C163 C165 1.350 . S
C163 H172 0.930 . S
N164 C162 1.347 . S
N164 C165 1.373 . S
C165 C163 1.350 . S
C165 N164 1.373 . S
C165 H179 0.931 . S
C166 O169 1.256 . S
C166 O170 1.255 . S
O167 Co150 2.021 . S
O167 C160 1.259 . S
O168 Co152 2.117 . S
O168 C160 1.258 . S
O169 Co152 2.020 . S
O169 C166 1.256 . S
O170 Co150 2.062 . S
O170 C166 1.255 . S
O171 C151 1.259 . S
O171 Co152 2.021 . S
H172 C163 0.930 . S
H173 C162 0.931 . S
O174 Co150 2.117 . S
O174 C151 1.258 . S
O175 Co150 2.020 . S
O175 C177 1.256 . S
O176 Co152 2.062 . S
O176 C177 1.255 . S
C177 O175 1.256 . S
C177 O176 1.255 . S
H178 C157 0.931 . S
H179 C165 0.931 . S
Co180 N185 2.057 . S
Co180 O197 2.021 . S
Co180 O200 2.062 . S
Co180 O204 2.117 . S
Co180 O205 2.020 . S
C181 O201 1.259 . S
C181 O204 1.258 . S
Co182 N191 2.057 . S
Co182 O198 2.117 . S
Co182 O199 2.020 . S
Co182 O201 2.021 . S
Co182 O206 2.062 . S
C183 N185 1.316 . S
C183 N186 1.347 . S
C183 H188 0.931 . S
C184 N185 1.375 . S
C184 C187 1.350 . S
C184 H189 0.930 . S
N185 Co180 2.057 . S
N185 C183 1.316 . S
N185 C184 1.375 . S
N186 C183 1.347 . S
N186 C187 1.373 . S
C187 C184 1.350 . S
C187 N186 1.373 . S
C187 H208 0.931 . S
H188 C183 0.931 . S
H189 C184 0.930 . S
C190 O197 1.259 . S
C190 O198 1.258 . S
N191 Co182 2.057 . S
N191 C192 1.316 . S
N191 C193 1.375 . S
C192 N191 1.316 . S
C192 N194 1.347 . S
C192 H203 0.931 . S
C193 N191 1.375 . S
C193 C195 1.350 . S
C193 H202 0.930 . S
N194 C192 1.347 . S
N194 C195 1.373 . S
C195 C193 1.350 . S
C195 N194 1.373 . S
C195 H209 0.931 . S
C196 O199 1.256 . S
C196 O200 1.255 . S
O197 Co180 2.021 . S
O197 C190 1.259 . S
O198 Co182 2.117 . S
O198 C190 1.258 . S
O199 Co182 2.020 . S
O199 C196 1.256 . S
O200 Co180 2.062 . S
O200 C196 1.255 . S
O201 C181 1.259 . S
O201 Co182 2.021 . S
H202 C193 0.930 . S
H203 C192 0.931 . S
O204 Co180 2.117 . S
O204 C181 1.258 . S
O205 Co180 2.020 . S
O205 C207 1.256 . S
O206 Co182 2.062 . S
O206 C207 1.255 . S
C207 O205 1.256 . S
C207 O206 1.255 . S
H208 C187 0.931 . S
H209 C195 0.931 . S
Co210 N215 2.057 . S
Co210 O227 2.021 . S
Co210 O230 2.062 . S
Co210 O234 2.117 . S
Co210 O235 2.020 . S
C211 O231 1.259 . S
C211 O234 1.258 . S
Co212 N221 2.057 . S
Co212 O228 2.117 . S
Co212 O229 2.020 . S
Co212 O231 2.021 . S
Co212 O236 2.062 . S
C213 N215 1.316 . S
C213 N216 1.347 . S
C213 H218 0.931 . S
C214 N215 1.375 . S
C214 C217 1.350 . S
C214 H219 0.930 . S
N215 Co210 2.057 . S
N215 C213 1.316 . S
N215 C214 1.375 . S
N216 C213 1.347 . S
N216 C217 1.373 . S
C217 C214 1.350 . S
C217 N216 1.373 . S
C217 H238 0.931 . S
H218 C213 0.931 . S
H219 C214 0.930 . S
C220 O227 1.259 . S
C220 O228 1.258 . S
N221 Co212 2.057 . S
N221 C222 1.316 . S
N221 C223 1.375 . S
C222 N221 1.316 . S
C222 N224 1.347 . S
C222 H233 0.931 . S
C223 N221 1.375 . S
C223 C225 1.350 . S
C223 H232 0.930 . S
N224 C222 1.347 . S
N224 C225 1.373 . S
C225 C223 1.350 . S
C225 N224 1.373 . S
C225 H239 0.931 . S
C226 O229 1.256 . S
C226 O230 1.255 . S
O227 Co210 2.021 . S
O227 C220 1.259 . S
O228 Co212 2.117 . S
O228 C220 1.258 . S
O229 Co212 2.020 . S
O229 C226 1.256 . S
O230 Co210 2.062 . S
O230 C226 1.255 . S
O231 C211 1.259 . S
O231 Co212 2.021 . S
H232 C223 0.930 . S
H233 C222 0.931 . S
O234 Co210 2.117 . S
O234 C211 1.258 . S
O235 Co210 2.020 . S
O235 C237 1.256 . S
O236 Co212 2.062 . S
O236 C237 1.255 . S
C237 O235 1.256 . S
C237 O236 1.255 . S
H238 C217 0.931 . S
H239 C225 0.931 . S
Co240 O243 2.042 . S
Co240 O250 2.264 . S
Co240 O269 2.286 . S
Co240 O270 2.069 . S
Co240 O272 2.015 1_455 S
Co241 O243 2.122 . S
Co241 O249 2.073 . S
Co241 O250 2.327 . S
Co241 O251 1.976 1_455 S
Co242 O243 2.086 1_545 S
Co242 O245 2.088 1_455 S
Co242 O252 2.107 1_445 S
Co242 O253 2.148 . S
Co242 O257 2.116 . S
Co242 O271 2.139 1_445 S
O243 Co240 2.042 . S
O243 Co241 2.122 . S
O243 Co242 2.086 1_565 S
O243 H244 0.980 . S
H244 O243 0.980 . S
O245 Co242 2.088 1_655 S
O245 Co246 2.042 . S
O245 Co247 2.122 . S
O245 H248 0.980 . S
Co246 O245 2.042 . S
Co246 O254 2.286 . S
Co246 O255 2.069 . S
Co246 O256 2.015 1_655 S
Co246 O259 2.264 . S
Co247 O245 2.122 . S
Co247 O258 1.976 1_655 S
Co247 O259 2.327 . S
Co247 O260 2.073 . S
H248 O245 0.980 . S
O249 Co241 2.073 . S
O249 C264 1.245 . S
O250 Co240 2.264 . S
O250 Co241 2.327 . S
O250 C264 1.257 . S
O251 Co241 1.976 1_655 S
O251 C263 1.251 . S
O252 Co242 2.107 1_665 S
O252 C263 1.274 . S
O253 Co242 2.148 . S
O253 C266 1.246 . S
O254 Co246 2.286 . S
O254 C265 1.259 . S
O255 Co246 2.069 . S
O255 C265 1.289 . S
O256 Co246 2.015 1_455 S
O256 C266 1.257 . S
O257 Co242 2.116 . S
O257 C267 1.274 . S
O258 Co247 1.976 1_455 S
O258 C267 1.251 . S
O259 Co246 2.264 . S
O259 Co247 2.327 . S
O259 C268 1.257 . S
O260 Co247 2.073 . S
O260 C268 1.245 . S
C261 O269 1.259 . S
C261 O270 1.289 . S
C262 O271 1.246 . S
C262 O272 1.257 . S
C263 O251 1.251 . S
C263 O252 1.274 . S
C264 O249 1.245 . S
C264 O250 1.257 . S
C265 O254 1.259 . S
C265 O255 1.289 . S
C266 O253 1.246 . S
C266 O256 1.257 . S
C267 O257 1.274 . S
C267 O258 1.251 . S
C268 O259 1.257 . S
C268 O260 1.245 . S
O269 Co240 2.286 . S
O269 C261 1.259 . S
O270 Co240 2.069 . S
O270 C261 1.289 . S
O271 Co242 2.139 1_665 S
O271 C262 1.246 . S
O272 Co240 2.015 1_655 S
O272 C262 1.257 . S
Co273 O276 2.042 1_556 S
Co273 O283 2.264 1_556 S
Co273 O302 2.286 . S
Co273 O303 2.069 . S
Co273 O305 2.015 . S
Co274 O276 2.122 . S
Co274 O282 2.073 . S
Co274 O283 2.327 . S
Co274 O284 1.976 . S
Co275 O276 2.082 1_545 S
Co275 O278 2.091 1_554 S
Co275 O285 2.109 1_545 S
Co275 O286 2.147 . S
Co275 O290 2.113 1_554 S
Co275 O304 2.140 1_544 S
O276 Co273 2.042 1_554 S
O276 Co274 2.122 . S
O276 Co275 2.082 1_565 S
O276 H277 0.980 . S
H277 O276 0.980 . S
O278 Co275 2.091 1_556 S
O278 Co279 2.042 1_556 S
O278 Co280 2.122 . S
O278 H281 0.980 . S
Co279 O278 2.042 1_554 S
Co279 O287 2.286 . S
Co279 O288 2.069 . S
Co279 O289 2.015 . S
Co279 O292 2.264 1_554 S
Co280 O278 2.122 . S
Co280 O291 1.976 . S
Co280 O292 2.327 . S
Co280 O293 2.073 . S
H281 O278 0.980 . S
O282 Co274 2.073 . S
O282 C297 1.245 . S
O283 Co273 2.264 1_554 S
O283 Co274 2.327 . S
O283 C297 1.257 . S
O284 Co274 1.976 . S
O284 C296 1.251 . S
O285 Co275 2.109 1_565 S
O285 C296 1.274 . S
O286 Co275 2.147 . S
O286 C299 1.246 . S
O287 Co279 2.286 . S
O287 C298 1.259 . S
O288 Co279 2.069 . S
O288 C298 1.289 . S
O289 Co279 2.015 . S
O289 C299 1.257 . S
O290 Co275 2.113 1_556 S
O290 C300 1.274 . S
O291 Co280 1.976 . S
O291 C300 1.251 . S
O292 Co279 2.264 1_556 S
O292 Co280 2.327 . S
O292 C301 1.257 . S
O293 Co280 2.073 . S
O293 C301 1.245 . S
C294 O302 1.259 . S
C294 O303 1.289 . S
C295 O304 1.246 . S
C295 O305 1.257 . S
C296 O284 1.251 . S
C296 O285 1.274 . S
C297 O282 1.245 . S
C297 O283 1.257 . S
C298 O287 1.259 . S
C298 O288 1.289 . S
C299 O286 1.246 . S
C299 O289 1.257 . S
C300 O290 1.274 . S
C300 O291 1.251 . S
C301 O292 1.257 . S
C301 O293 1.245 . S
O302 Co273 2.286 . S
O302 C294 1.259 . S
O303 Co273 2.069 . S
O303 C294 1.289 . S
O304 Co275 2.140 1_566 S
O304 C295 1.246 . S
O305 Co273 2.015 . S
O305 C295 1.257 . S
Co306 O309 2.042 1_556 S
Co306 O316 2.264 1_556 S
Co306 O335 2.286 . S
Co306 O336 2.069 . S
Co306 O338 2.015 1_455 S
Co307 O309 2.122 . S
Co307 O315 2.073 . S
Co307 O316 2.327 . S
Co307 O317 1.976 1_455 S
Co308 O309 2.090 . S
Co308 O311 2.084 1_454 S
Co308 O318 2.109 1_455 S
Co308 O319 2.145 . S
Co308 O323 2.114 1_554 S
Co308 O337 2.142 1_454 S
O309 Co306 2.042 1_554 S
O309 Co307 2.122 . S
O309 Co308 2.090 . S
O309 H310 0.980 . S
H310 O309 0.980 . S
O311 Co308 2.084 1_656 S
O311 Co312 2.042 1_556 S
O311 Co313 2.122 . S
O311 H314 0.980 . S
Co312 O311 2.042 1_554 S
Co312 O320 2.286 . S
Co312 O321 2.069 . S
Co312 O322 2.015 1_655 S
Co312 O325 2.264 1_554 S
Co313 O311 2.122 . S
Co313 O324 1.976 1_655 S
Co313 O325 2.327 . S
Co313 O326 2.073 . S
H314 O311 0.980 . S
O315 Co307 2.073 . S
O315 C330 1.245 . S
O316 Co306 2.264 1_554 S
O316 Co307 2.327 . S
O316 C330 1.257 . S
O317 Co307 1.976 1_655 S
O317 C329 1.251 . S
O318 Co308 2.109 1_655 S
O318 C329 1.274 . S
O319 Co308 2.145 . S
O319 C332 1.246 . S
O320 Co312 2.286 . S
O320 C331 1.259 . S
O321 Co312 2.069 . S
O321 C331 1.289 . S
O322 Co312 2.015 1_455 S
O322 C332 1.257 . S
O323 Co308 2.114 1_556 S
O323 C333 1.274 . S
O324 Co313 1.976 1_455 S
O324 C333 1.251 . S
O325 Co312 2.264 1_556 S
O325 Co313 2.327 . S
O325 C334 1.257 . S
O326 Co313 2.073 . S
O326 C334 1.245 . S
C327 O335 1.259 . S
C327 O336 1.289 . S
C328 O337 1.246 . S
C328 O338 1.257 . S
C329 O317 1.251 . S
C329 O318 1.274 . S
C330 O315 1.245 . S
C330 O316 1.257 . S
C331 O320 1.259 . S
C331 O321 1.289 . S
C332 O319 1.246 . S
C332 O322 1.257 . S
C333 O323 1.274 . S
C333 O324 1.251 . S
C334 O325 1.257 . S
C334 O326 1.245 . S
O335 Co306 2.286 . S
O335 C327 1.259 . S
O336 Co306 2.069 . S
O336 C327 1.289 . S
O337 Co308 2.142 1_656 S
O337 C328 1.246 . S
O338 Co306 2.015 1_655 S
O338 C328 1.257 . S
Co339 O342 2.042 1_556 S
Co339 O349 2.264 1_556 S
Co339 O368 2.286 . S
Co339 O369 2.069 . S
Co339 O371 2.015 . S
Co340 O342 2.122 . S
Co340 O348 2.073 . S
Co340 O349 2.327 . S
Co340 O350 1.976 . S
Co341 O342 2.087 . S
Co341 O344 2.087 1_554 S
Co341 O351 2.111 . S
Co341 O352 2.143 . S
Co341 O356 2.111 1_554 S
Co341 O370 2.143 1_554 S
O342 Co339 2.042 1_554 S
O342 Co340 2.122 . S
O342 Co341 2.087 . S
O342 H343 0.980 . S
H343 O342 0.980 . S
O344 Co341 2.087 1_556 S
O344 Co345 2.042 1_556 S
O344 Co346 2.122 . S
O344 H347 0.980 . S
Co345 O344 2.042 1_554 S
Co345 O353 2.286 . S
Co345 O354 2.069 . S
Co345 O355 2.015 . S
Co345 O358 2.264 1_554 S
Co346 O344 2.122 . S
Co346 O357 1.976 . S
Co346 O358 2.327 . S
Co346 O359 2.073 . S
H347 O344 0.980 . S
O348 Co340 2.073 . S
O348 C363 1.245 . S
O349 Co339 2.264 1_554 S
O349 Co340 2.327 . S
O349 C363 1.257 . S
O350 Co340 1.976 . S
O350 C362 1.251 . S
O351 Co341 2.111 . S
O351 C362 1.274 . S
O352 Co341 2.143 . S
O352 C365 1.246 . S
O353 Co345 2.286 . S
O353 C364 1.259 . S
O354 Co345 2.069 . S
O354 C364 1.289 . S
O355 Co345 2.015 . S
O355 C365 1.257 . S
O356 Co341 2.111 1_556 S
O356 C366 1.274 . S
O357 Co346 1.976 . S
O357 C366 1.251 . S
O358 Co345 2.264 1_556 S
O358 Co346 2.327 . S
O358 C367 1.257 . S
O359 Co346 2.073 . S
O359 C367 1.245 . S
C360 O368 1.259 . S
C360 O369 1.289 . S
C361 O370 1.246 . S
C361 O371 1.257 . S
C362 O350 1.251 . S
C362 O351 1.274 . S
C363 O348 1.245 . S
C363 O349 1.257 . S
C364 O353 1.259 . S
C364 O354 1.289 . S
C365 O352 1.246 . S
C365 O355 1.257 . S
C366 O356 1.274 . S
C366 O357 1.251 . S
C367 O358 1.257 . S
C367 O359 1.245 . S
O368 Co339 2.286 . S
O368 C360 1.259 . S
O369 Co339 2.069 . S
O369 C360 1.289 . S
O370 Co341 2.143 1_556 S
O370 C361 1.246 . S
O371 Co339 2.015 . S
O371 C361 1.257 . S
Co372 O375 2.042 . S
Co372 O382 2.264 . S
Co372 O401 2.286 . S
Co372 O402 2.069 . S
Co372 O404 2.015 . S
Co373 O375 2.122 . S
Co373 O381 2.073 . S
Co373 O382 2.327 . S
Co373 O383 1.976 . S
Co374 O375 2.090 . S
Co374 O377 2.084 1_455 S
Co374 O384 2.113 . S
Co374 O385 2.141 1_455 S
Co374 O389 2.110 1_455 S
Co374 O403 2.146 . S
O375 Co372 2.042 . S
O375 Co373 2.122 . S
O375 Co374 2.090 . S
O375 H376 0.980 . S
H376 O375 0.980 . S
O377 Co374 2.084 1_655 S
O377 Co378 2.042 . S
O377 Co379 2.122 . S
O377 H380 0.980 . S
Co378 O377 2.042 . S
Co378 O386 2.286 . S
Co378 O387 2.069 . S
Co378 O388 2.015 . S
Co378 O391 2.264 . S
Co379 O377 2.122 . S
Co379 O390 1.976 . S
Co379 O391 2.327 . S
Co379 O392 2.073 . S
H380 O377 0.980 . S
O381 Co373 2.073 . S
O381 C396 1.245 . S
O382 Co372 2.264 . S
O382 Co373 2.327 . S
O382 C396 1.257 . S
O383 Co373 1.976 . S
O383 C395 1.251 . S
O384 Co374 2.113 . S
O384 C395 1.274 . S
O385 Co374 2.141 1_655 S
O385 C398 1.246 . S
O386 Co378 2.286 . S
O386 C397 1.259 . S
O387 Co378 2.069 . S
O387 C397 1.289 . S
O388 Co378 2.015 . S
O388 C398 1.257 . S
O389 Co374 2.110 1_655 S
O389 C399 1.274 . S
O390 Co379 1.976 . S
O390 C399 1.251 . S
O391 Co378 2.264 . S
O391 Co379 2.327 . S
O391 C400 1.257 . S
O392 Co379 2.073 . S
O392 C400 1.245 . S
C393 O401 1.259 . S
C393 O402 1.289 . S
C394 O403 1.246 . S
C394 O404 1.257 . S
C395 O383 1.251 . S
C395 O384 1.274 . S
C396 O381 1.245 . S
C396 O382 1.257 . S
C397 O386 1.259 . S
C397 O387 1.289 . S
C398 O385 1.246 . S
C398 O388 1.257 . S
C399 O389 1.274 . S
C399 O390 1.251 . S
C400 O391 1.257 . S
C400 O392 1.245 . S
O401 Co372 2.286 . S
O401 C393 1.259 . S
O402 Co372 2.069 . S
O402 C393 1.289 . S
O403 Co374 2.146 . S
O403 C394 1.246 . S
O404 Co372 2.015 . S
O404 C394 1.257 . S
Co405 O408 2.042 . S
Co405 O415 2.264 . S
Co405 O434 2.286 . S
Co405 O435 2.069 . S
Co405 O437 2.015 1_565 S
Co406 O408 2.122 . S
Co406 O414 2.073 . S
Co406 O415 2.327 . S
Co406 O416 1.976 1_565 S
Co407 O408 2.082 1_545 S
Co407 O410 2.091 . S
Co407 O417 2.115 . S
Co407 O418 2.141 1_545 S
Co407 O422 2.108 1_545 S
Co407 O436 2.146 . S
O408 Co405 2.042 . S
O408 Co406 2.122 . S
O408 Co407 2.082 1_565 S
O408 H409 0.980 . S
H409 O408 0.980 . S
O410 Co407 2.091 . S
O410 Co411 2.042 . S
O410 Co412 2.122 . S
O410 H413 0.980 . S
Co411 O410 2.042 . S
Co411 O419 2.286 . S
Co411 O420 2.069 . S
Co411 O421 2.015 1_545 S
Co411 O424 2.264 . S
Co412 O410 2.122 . S
Co412 O423 1.976 1_545 S
Co412 O424 2.327 . S
Co412 O425 2.073 . S
H413 O410 0.980 . S
O414 Co406 2.073 . S
O414 C429 1.245 . S
O415 Co405 2.264 . S
O415 Co406 2.327 . S
O415 C429 1.257 . S
O416 Co406 1.976 1_545 S
O416 C428 1.251 . S
O417 Co407 2.115 . S
O417 C428 1.274 . S
O418 Co407 2.141 1_565 S
O418 C431 1.246 . S
O419 Co411 2.286 . S
O419 C430 1.259 . S
O420 Co411 2.069 . S
O420 C430 1.289 . S
O421 Co411 2.015 1_565 S
O421 C431 1.257 . S
O422 Co407 2.108 1_565 S
O422 C432 1.274 . S
O423 Co412 1.976 1_565 S
O423 C432 1.251 . S
O424 Co411 2.264 . S
O424 Co412 2.327 . S
O424 C433 1.257 . S
O425 Co412 2.073 . S
O425 C433 1.245 . S
C426 O434 1.259 . S
C426 O435 1.289 . S
C427 O436 1.246 . S
C427 O437 1.257 . S
C428 O416 1.251 . S
C428 O417 1.274 . S
C429 O414 1.245 . S
C429 O415 1.257 . S
C430 O419 1.259 . S
C430 O420 1.289 . S
C431 O418 1.246 . S
C431 O421 1.257 . S
C432 O422 1.274 . S
C432 O423 1.251 . S
C433 O424 1.257 . S
C433 O425 1.245 . S
O434 Co405 2.286 . S
O434 C426 1.259 . S
O435 Co405 2.069 . S
O435 C426 1.289 . S
O436 Co407 2.146 . S
O436 C427 1.246 . S
O437 Co405 2.015 1_545 S
O437 C427 1.257 . S
H438 C456 0.951 . S
H439 C458 0.951 . S
H440 C460 0.950 . S
H441 C461 0.950 . S
H442 C463 0.950 . S
H443 C466 0.950 . S
H444 C467 0.950 . S
H445 C469 0.950 . S
H446 C470 0.950 . S
H447 C471 0.951 . S
H448 C473 0.951 . S
H449 C475 0.950 . S
H450 C476 0.950 . S
H451 C478 0.950 . S
H452 C481 0.950 . S
H453 C482 0.950 . S
H454 C484 0.950 . S
H455 C485 0.950 . S
C456 H438 0.951 . S
C456 C457 1.366 . S
C456 C458 1.388 . S
C457 C456 1.366 . S
C457 C461 1.385 . S
C458 H439 0.951 . S
C458 C456 1.388 . S
C458 C459 1.366 . S
C459 C458 1.366 . S
C459 C460 1.414 . S
C459 C462 1.499 . S
C460 H440 0.950 . S
C460 C459 1.414 . S
C460 C461 1.374 . S
C461 H441 0.950 . S
C461 C457 1.385 . S
C461 C460 1.374 . S
C462 C459 1.499 . S
C462 C463 1.373 . S
C462 C464 1.389 . S
C463 H442 0.950 . S
C463 C462 1.373 . S
C463 C479 1.377 . S
C464 C462 1.389 . S
C464 C465 1.524 . S
C464 C478 1.377 . S
C465 C464 1.524 . S
C465 C466 1.397 . S
C465 C470 1.363 . S
C466 H443 0.950 . S
C466 C465 1.397 . S
C466 C467 1.334 . S
C467 H444 0.950 . S
C467 C466 1.334 . S
C467 C468 1.287 . S
C468 C467 1.287 . S
C468 C469 1.524 . S
C468 H487 0.913 . S
C469 H445 0.950 . S
C469 C468 1.524 . S
C469 C470 1.415 . S
C470 H446 0.950 . S
C470 C465 1.363 . S
C470 C469 1.415 . S
C471 H447 0.951 . S
C471 C472 1.366 . S
C471 C473 1.388 . S
C472 C471 1.366 . S
C472 C476 1.385 . S
C473 H448 0.951 . S
C473 C471 1.388 . S
C473 C474 1.366 . S
C474 C473 1.366 . S
C474 C475 1.414 . S
C474 C477 1.499 . S
C475 H449 0.950 . S
C475 C474 1.414 . S
C475 C476 1.374 . S
C476 H450 0.950 . S
C476 C472 1.385 . S
C476 C475 1.374 . S
C477 C474 1.499 . S
C477 C478 1.373 . S
C477 C479 1.389 . S
C478 H451 0.950 . S
C478 C464 1.377 . S
C478 C477 1.373 . S
C479 C463 1.377 . S
C479 C477 1.389 . S
C479 C480 1.524 . S
C480 C479 1.524 . S
C480 C481 1.397 . S
C480 C485 1.363 . S
C481 H452 0.950 . S
C481 C480 1.397 . S
C481 C482 1.334 . S
C482 H453 0.950 . S
C482 C481 1.334 . S
C482 C483 1.287 . S
C483 C482 1.287 . S
C483 C484 1.524 . S
C483 H486 0.999 . S
C484 H454 0.950 . S
C484 C483 1.524 . S
C484 C485 1.415 . S
C485 H455 0.950 . S
C485 C480 1.363 . S
C485 C484 1.415 . S
H486 C483 0.999 . S
H487 C468 0.913 . S
H488 C506 0.951 . S
H489 C508 0.951 . S
H490 C510 0.950 . S
H491 C511 0.950 . S
H492 C513 0.950 . S
H493 C516 0.950 . S
H494 C517 0.950 . S
H495 C519 0.950 . S
H496 C520 0.950 . S
H497 C521 0.951 . S
H498 C523 0.951 . S
H499 C525 0.950 . S
H500 C526 0.950 . S
H501 C528 0.950 . S
H502 C531 0.950 . S
H503 C532 0.950 . S
H504 C534 0.950 . S
H505 C535 0.950 . S
C506 H488 0.951 . S
C506 C507 1.366 . S
C506 C508 1.388 . S
C507 C506 1.366 . S
C507 C511 1.385 . S
C508 H489 0.951 . S
C508 C506 1.388 . S
C508 C509 1.366 . S
C509 C508 1.366 . S
C509 C510 1.414 . S
C509 C512 1.499 . S
C510 H490 0.950 . S
C510 C509 1.414 . S
C510 C511 1.374 . S
C511 H491 0.950 . S
C511 C507 1.385 . S
C511 C510 1.374 . S
C512 C509 1.499 . S
C512 C513 1.373 . S
C512 C514 1.389 . S
C513 H492 0.950 . S
C513 C512 1.373 . S
C513 C529 1.377 . S
C514 C512 1.389 . S
C514 C515 1.524 . S
C514 C528 1.377 . S
C515 C514 1.524 . S
C515 C516 1.397 . S
C515 C520 1.363 . S
C516 H493 0.950 . S
C516 C515 1.397 . S
C516 C517 1.334 . S
C517 H494 0.950 . S
C517 C516 1.334 . S
C517 C518 1.287 . S
C518 C517 1.287 . S
C518 C519 1.524 . S
C518 H537 0.913 . S
C519 H495 0.950 . S
C519 C518 1.524 . S
C519 C520 1.415 . S
C520 H496 0.950 . S
C520 C515 1.363 . S
C520 C519 1.415 . S
C521 H497 0.951 . S
C521 C522 1.366 . S
C521 C523 1.388 . S
C522 C521 1.366 . S
C522 C526 1.385 . S
C523 H498 0.951 . S
C523 C521 1.388 . S
C523 C524 1.366 . S
C524 C523 1.366 . S
C524 C525 1.414 . S
C524 C527 1.499 . S
C525 H499 0.950 . S
C525 C524 1.414 . S
C525 C526 1.374 . S
C526 H500 0.950 . S
C526 C522 1.385 . S
C526 C525 1.374 . S
C527 C524 1.499 . S
C527 C528 1.373 . S
C527 C529 1.389 . S
C528 H501 0.950 . S
C528 C514 1.377 . S
C528 C527 1.373 . S
C529 C513 1.377 . S
C529 C527 1.389 . S
C529 C530 1.524 . S
C530 C529 1.524 . S
C530 C531 1.397 . S
C530 C535 1.363 . S
C531 H502 0.950 . S
C531 C530 1.397 . S
C531 C532 1.334 . S
C532 H503 0.950 . S
C532 C531 1.334 . S
C532 C533 1.287 . S
C533 C532 1.287 . S
C533 C534 1.524 . S
C533 H536 0.999 . S
C534 H504 0.950 . S
C534 C533 1.524 . S
C534 C535 1.415 . S
C535 H505 0.950 . S
C535 C530 1.363 . S
C535 C534 1.415 . S
H536 C533 0.999 . S
H537 C518 0.913 . S
H538 C556 0.951 . S
H539 C558 0.951 . S
H540 C560 0.950 . S
H541 C561 0.950 . S
H542 C563 0.950 . S
H543 C566 0.950 . S
H544 C567 0.950 . S
H545 C569 0.950 . S
H546 C570 0.950 . S
H547 C571 0.951 . S
H548 C573 0.951 . S
H549 C575 0.950 . S
H550 C576 0.950 . S
H551 C578 0.950 . S
H552 C581 0.950 . S
H553 C582 0.950 . S
H554 C584 0.950 . S
H555 C585 0.950 . S
C556 H538 0.951 . S
C556 C557 1.366 . S
C556 C558 1.388 . S
C557 C556 1.366 . S
C557 C561 1.385 . S
C558 H539 0.951 . S
C558 C556 1.388 . S
C558 C559 1.366 . S
C559 C558 1.366 . S
C559 C560 1.414 . S
C559 C562 1.499 . S
C560 H540 0.950 . S
C560 C559 1.414 . S
C560 C561 1.374 . S
C561 H541 0.950 . S
C561 C557 1.385 . S
C561 C560 1.374 . S
C562 C559 1.499 . S
C562 C563 1.373 . S
C562 C564 1.389 . S
C563 H542 0.950 . S
C563 C562 1.373 . S
C563 C579 1.377 . S
C564 C562 1.389 . S
C564 C565 1.524 . S
C564 C578 1.377 . S
C565 C564 1.524 . S
C565 C566 1.397 . S
C565 C570 1.363 . S
C566 H543 0.950 . S
C566 C565 1.397 . S
C566 C567 1.334 . S
C567 H544 0.950 . S
C567 C566 1.334 . S
C567 C568 1.287 . S
C568 C567 1.287 . S
C568 C569 1.524 . S
C568 H587 0.913 . S
C569 H545 0.950 . S
C569 C568 1.524 . S
C569 C570 1.415 . S
C570 H546 0.950 . S
C570 C565 1.363 . S
C570 C569 1.415 . S
C571 H547 0.951 . S
C571 C572 1.366 . S
C571 C573 1.388 . S
C572 C571 1.366 . S
C572 C576 1.385 . S
C573 H548 0.951 . S
C573 C571 1.388 . S
C573 C574 1.366 . S
C574 C573 1.366 . S
C574 C575 1.414 . S
C574 C577 1.499 . S
C575 H549 0.950 . S
C575 C574 1.414 . S
C575 C576 1.374 . S
C576 H550 0.950 . S
C576 C572 1.385 . S
C576 C575 1.374 . S
C577 C574 1.499 . S
C577 C578 1.373 . S
C577 C579 1.389 . S
C578 H551 0.950 . S
C578 C564 1.377 . S
C578 C577 1.373 . S
C579 C563 1.377 . S
C579 C577 1.389 . S
C579 C580 1.524 . S
C580 C579 1.524 . S
C580 C581 1.397 . S
C580 C585 1.363 . S
C581 H552 0.950 . S
C581 C580 1.397 . S
C581 C582 1.334 . S
C582 H553 0.950 . S
C582 C581 1.334 . S
C582 C583 1.287 . S
C583 C582 1.287 . S
C583 C584 1.524 . S
C583 H586 0.999 . S
C584 H554 0.950 . S
C584 C583 1.524 . S
C584 C585 1.415 . S
C585 H555 0.950 . S
C585 C580 1.363 . S
C585 C584 1.415 . S
H586 C583 0.999 . S
H587 C568 0.913 . S
H588 C606 0.951 . S
H589 C608 0.951 . S
H590 C610 0.950 . S
H591 C611 0.950 . S
H592 C613 0.950 . S
H593 C616 0.950 . S
H594 C617 0.950 . S
H595 C619 0.950 . S
H596 C620 0.950 . S
H597 C621 0.951 . S
H598 C623 0.951 . S
H599 C625 0.950 . S
H600 C626 0.950 . S
H601 C628 0.950 . S
H602 C631 0.950 . S
H603 C632 0.950 . S
H604 C634 0.950 . S
H605 C635 0.950 . S
C606 H588 0.951 . S
C606 C607 1.366 . S
C606 C608 1.388 . S
C607 C606 1.366 . S
C607 C611 1.385 . S
C608 H589 0.951 . S
C608 C606 1.388 . S
C608 C609 1.366 . S
C609 C608 1.366 . S
C609 C610 1.414 . S
C609 C612 1.499 . S
C610 H590 0.950 . S
C610 C609 1.414 . S
C610 C611 1.374 . S
C611 H591 0.950 . S
C611 C607 1.385 . S
C611 C610 1.374 . S
C612 C609 1.499 . S
C612 C613 1.373 . S
C612 C614 1.389 . S
C613 H592 0.950 . S
C613 C612 1.373 . S
C613 C629 1.377 . S
C614 C612 1.389 . S
C614 C615 1.524 . S
C614 C628 1.377 . S
C615 C614 1.524 . S
C615 C616 1.397 . S
C615 C620 1.363 . S
C616 H593 0.950 . S
C616 C615 1.397 . S
C616 C617 1.334 . S
C617 H594 0.950 . S
C617 C616 1.334 . S
C617 C618 1.287 . S
C618 C617 1.287 . S
C618 C619 1.524 . S
C618 H637 0.913 . S
C619 H595 0.950 . S
C619 C618 1.524 . S
C619 C620 1.415 . S
C620 H596 0.950 . S
C620 C615 1.363 . S
C620 C619 1.415 . S
C621 H597 0.951 . S
C621 C622 1.366 . S
C621 C623 1.388 . S
C622 C621 1.366 . S
C622 C626 1.385 . S
C623 H598 0.951 . S
C623 C621 1.388 . S
C623 C624 1.366 . S
C624 C623 1.366 . S
C624 C625 1.414 . S
C624 C627 1.499 . S
C625 H599 0.950 . S
C625 C624 1.414 . S
C625 C626 1.374 . S
C626 H600 0.950 . S
C626 C622 1.385 . S
C626 C625 1.374 . S
C627 C624 1.499 . S
C627 C628 1.373 . S
C627 C629 1.389 . S
C628 H601 0.950 . S
C628 C614 1.377 . S
C628 C627 1.373 . S
C629 C613 1.377 . S
C629 C627 1.389 . S
C629 C630 1.524 . S
C630 C629 1.524 . S
C630 C631 1.397 . S
C630 C635 1.363 . S
C631 H602 0.950 . S
C631 C630 1.397 . S
C631 C632 1.334 . S
C632 H603 0.950 . S
C632 C631 1.334 . S
C632 C633 1.287 . S
C633 C632 1.287 . S
C633 C634 1.524 . S
C633 H636 0.999 . S
C634 H604 0.950 . S
C634 C633 1.524 . S
C634 C635 1.415 . S
C635 H605 0.950 . S
C635 C630 1.363 . S
C635 C634 1.415 . S
H636 C633 0.999 . S
H637 C618 0.913 . S
H638 C656 0.951 . S
H639 C658 0.951 . S
H640 C660 0.950 . S
H641 C661 0.950 . S
H642 C663 0.950 . S
H643 C666 0.950 . S
H644 C667 0.950 . S
H645 C669 0.950 . S
H646 C670 0.950 . S
H647 C671 0.951 . S
H648 C673 0.951 . S
H649 C675 0.950 . S
H650 C676 0.950 . S
H651 C678 0.950 . S
H652 C681 0.950 . S
H653 C682 0.950 . S
H654 C684 0.950 . S
H655 C685 0.950 . S
C656 H638 0.951 . S
C656 C657 1.366 . S
C656 C658 1.388 . S
C657 C656 1.366 . S
C657 C661 1.385 . S
C658 H639 0.951 . S
C658 C656 1.388 . S
C658 C659 1.366 . S
C659 C658 1.366 . S
C659 C660 1.414 . S
C659 C662 1.499 . S
C660 H640 0.950 . S
C660 C659 1.414 . S
C660 C661 1.374 . S
C661 H641 0.950 . S
C661 C657 1.385 . S
C661 C660 1.374 . S
C662 C659 1.499 . S
C662 C663 1.373 . S
C662 C664 1.389 . S
C663 H642 0.950 . S
C663 C662 1.373 . S
C663 C679 1.377 . S
C664 C662 1.389 . S
C664 C665 1.524 . S
C664 C678 1.377 . S
C665 C664 1.524 . S
C665 C666 1.397 . S
C665 C670 1.363 . S
C666 H643 0.950 . S
C666 C665 1.397 . S
C666 C667 1.334 . S
C667 H644 0.950 . S
C667 C666 1.334 . S
C667 C668 1.287 . S
C668 C667 1.287 . S
C668 C669 1.524 . S
C668 H687 0.913 . S
C669 H645 0.950 . S
C669 C668 1.524 . S
C669 C670 1.415 . S
C670 H646 0.950 . S
C670 C665 1.363 . S
C670 C669 1.415 . S
C671 H647 0.951 . S
C671 C672 1.366 . S
C671 C673 1.388 . S
C672 C671 1.366 . S
C672 C676 1.385 . S
C673 H648 0.951 . S
C673 C671 1.388 . S
C673 C674 1.366 . S
C674 C673 1.366 . S
C674 C675 1.414 . S
C674 C677 1.499 . S
C675 H649 0.950 . S
C675 C674 1.414 . S
C675 C676 1.374 . S
C676 H650 0.950 . S
C676 C672 1.385 . S
C676 C675 1.374 . S
C677 C674 1.499 . S
C677 C678 1.373 . S
C677 C679 1.389 . S
C678 H651 0.950 . S
C678 C664 1.377 . S
C678 C677 1.373 . S
C679 C663 1.377 . S
C679 C677 1.389 . S
C679 C680 1.524 . S
C680 C679 1.524 . S
C680 C681 1.397 . S
C680 C685 1.363 . S
C681 H652 0.950 . S
C681 C680 1.397 . S
C681 C682 1.334 . S
C682 H653 0.950 . S
C682 C681 1.334 . S
C682 C683 1.287 . S
C683 C682 1.287 . S
C683 C684 1.524 . S
C683 H686 0.999 . S
C684 H654 0.950 . S
C684 C683 1.524 . S
C684 C685 1.415 . S
C685 H655 0.950 . S
C685 C680 1.363 . S
C685 C684 1.415 . S
H686 C683 0.999 . S
H687 C668 0.913 . S
H688 C706 0.951 . S
H689 C708 0.951 . S
H690 C710 0.950 . S
H691 C711 0.950 . S
H692 C713 0.950 . S
H693 C716 0.950 . S
H694 C717 0.950 . S
H695 C719 0.950 . S
H696 C720 0.950 . S
H697 C721 0.951 . S
H698 C723 0.951 . S
H699 C725 0.950 . S
H700 C726 0.950 . S
H701 C728 0.950 . S
H702 C731 0.950 . S
H703 C732 0.950 . S
H704 C734 0.950 . S
H705 C735 0.950 . S
C706 H688 0.951 . S
C706 C707 1.366 . S
C706 C708 1.388 . S
C707 C706 1.366 . S
C707 C711 1.385 . S
C708 H689 0.951 . S
C708 C706 1.388 . S
C708 C709 1.366 . S
C709 C708 1.366 . S
C709 C710 1.414 . S
C709 C712 1.499 . S
C710 H690 0.950 . S
C710 C709 1.414 . S
C710 C711 1.374 . S
C711 H691 0.950 . S
C711 C707 1.385 . S
C711 C710 1.374 . S
C712 C709 1.499 . S
C712 C713 1.373 . S
C712 C714 1.389 . S
C713 H692 0.950 . S
C713 C712 1.373 . S
C713 C729 1.377 . S
C714 C712 1.389 . S
C714 C715 1.524 . S
C714 C728 1.377 . S
C715 C714 1.524 . S
C715 C716 1.397 . S
C715 C720 1.363 . S
C716 H693 0.950 . S
C716 C715 1.397 . S
C716 C717 1.334 . S
C717 H694 0.950 . S
C717 C716 1.334 . S
C717 C718 1.287 . S
C718 C717 1.287 . S
C718 C719 1.524 . S
C718 H737 0.913 . S
C719 H695 0.950 . S
C719 C718 1.524 . S
C719 C720 1.415 . S
C720 H696 0.950 . S
C720 C715 1.363 . S
C720 C719 1.415 . S
C721 H697 0.951 . S
C721 C722 1.366 . S
C721 C723 1.388 . S
C722 C721 1.366 . S
C722 C726 1.385 . S
C723 H698 0.951 . S
C723 C721 1.388 . S
C723 C724 1.366 . S
C724 C723 1.366 . S
C724 C725 1.414 . S
C724 C727 1.499 . S
C725 H699 0.950 . S
C725 C724 1.414 . S
C725 C726 1.374 . S
C726 H700 0.950 . S
C726 C722 1.385 . S
C726 C725 1.374 . S
C727 C724 1.499 . S
C727 C728 1.373 . S
C727 C729 1.389 . S
C728 H701 0.950 . S
C728 C714 1.377 . S
C728 C727 1.373 . S
C729 C713 1.377 . S
C729 C727 1.389 . S
C729 C730 1.524 . S
C730 C729 1.524 . S
C730 C731 1.397 . S
C730 C735 1.363 . S
C731 H702 0.950 . S
C731 C730 1.397 . S
C731 C732 1.334 . S
C732 H703 0.950 . S
C732 C731 1.334 . S
C732 C733 1.287 . S
C733 C732 1.287 . S
C733 C734 1.524 . S
C733 H736 0.999 . S
C734 H704 0.950 . S
C734 C733 1.524 . S
C734 C735 1.415 . S
C735 H705 0.950 . S
C735 C730 1.363 . S
C735 C734 1.415 . S
H736 C733 0.999 . S
H737 C718 0.913 . S
H738 C756 0.951 . S
H739 C758 0.951 . S
H740 C760 0.950 . S
H741 C761 0.950 . S
H742 C763 0.950 . S
H743 C766 0.950 . S
H744 C767 0.950 . S
H745 C769 0.950 . S
H746 C770 0.950 . S
H747 C771 0.951 . S
H748 C773 0.951 . S
H749 C775 0.950 . S
H750 C776 0.950 . S
H751 C778 0.950 . S
H752 C781 0.950 . S
H753 C782 0.950 . S
H754 C784 0.950 . S
H755 C785 0.950 . S
C756 H738 0.951 . S
C756 C757 1.366 . S
C756 C758 1.388 . S
C757 C756 1.366 . S
C757 C761 1.385 . S
C758 H739 0.951 . S
C758 C756 1.388 . S
C758 C759 1.366 . S
C759 C758 1.366 . S
C759 C760 1.414 . S
C759 C762 1.499 . S
C760 H740 0.950 . S
C760 C759 1.414 . S
C760 C761 1.374 . S
C761 H741 0.950 . S
C761 C757 1.385 . S
C761 C760 1.374 . S
C762 C759 1.499 . S
C762 C763 1.373 . S
C762 C764 1.389 . S
C763 H742 0.950 . S
C763 C762 1.373 . S
C763 C779 1.377 . S
C764 C762 1.389 . S
C764 C765 1.524 . S
C764 C778 1.377 . S
C765 C764 1.524 . S
C765 C766 1.397 . S
C765 C770 1.363 . S
C766 H743 0.950 . S
C766 C765 1.397 . S
C766 C767 1.334 . S
C767 H744 0.950 . S
C767 C766 1.334 . S
C767 C768 1.287 . S
C768 C767 1.287 . S
C768 C769 1.524 . S
C768 H787 0.913 . S
C769 H745 0.950 . S
C769 C768 1.524 . S
C769 C770 1.415 . S
C770 H746 0.950 . S
C770 C765 1.363 . S
C770 C769 1.415 . S
C771 H747 0.951 . S
C771 C772 1.366 . S
C771 C773 1.388 . S
C772 C771 1.366 . S
C772 C776 1.385 . S
C773 H748 0.951 . S
C773 C771 1.388 . S
C773 C774 1.366 . S
C774 C773 1.366 . S
C774 C775 1.414 . S
C774 C777 1.499 . S
C775 H749 0.950 . S
C775 C774 1.414 . S
C775 C776 1.374 . S
C776 H750 0.950 . S
C776 C772 1.385 . S
C776 C775 1.374 . S
C777 C774 1.499 . S
C777 C778 1.373 . S
C777 C779 1.389 . S
C778 H751 0.950 . S
C778 C764 1.377 . S
C778 C777 1.373 . S
C779 C763 1.377 . S
C779 C777 1.389 . S
C779 C780 1.524 . S
C780 C779 1.524 . S
C780 C781 1.397 . S
C780 C785 1.363 . S
C781 H752 0.950 . S
C781 C780 1.397 . S
C781 C782 1.334 . S
C782 H753 0.950 . S
C782 C781 1.334 . S
C782 C783 1.287 . S
C783 C782 1.287 . S
C783 C784 1.524 . S
C783 H786 0.999 . S
C784 H754 0.950 . S
C784 C783 1.524 . S
C784 C785 1.415 . S
C785 H755 0.950 . S
C785 C780 1.363 . S
C785 C784 1.415 . S
H786 C783 0.999 . S
H787 C768 0.913 . S
H788 C806 0.951 . S
H789 C808 0.951 . S
H790 C810 0.950 . S
H791 C811 0.950 . S
H792 C813 0.950 . S
H793 C816 0.950 . S
H794 C817 0.950 . S
H795 C819 0.950 . S
H796 C820 0.950 . S
H797 C821 0.951 . S
H798 C823 0.951 . S
H799 C825 0.950 . S
H800 C826 0.950 . S
H801 C828 0.950 . S
H802 C831 0.950 . S
H803 C832 0.950 . S
H804 C834 0.950 . S
H805 C835 0.950 . S
C806 H788 0.951 . S
C806 C807 1.366 . S
C806 C808 1.388 . S
C807 C806 1.366 . S
C807 C811 1.385 . S
C808 H789 0.951 . S
C808 C806 1.388 . S
C808 C809 1.366 . S
C809 C808 1.366 . S
C809 C810 1.414 . S
C809 C812 1.499 . S
C810 H790 0.950 . S
C810 C809 1.414 . S
C810 C811 1.374 . S
C811 H791 0.950 . S
C811 C807 1.385 . S
C811 C810 1.374 . S
C812 C809 1.499 . S
C812 C813 1.373 . S
C812 C814 1.389 . S
C813 H792 0.950 . S
C813 C812 1.373 . S
C813 C829 1.377 . S
C814 C812 1.389 . S
C814 C815 1.524 . S
C814 C828 1.377 . S
C815 C814 1.524 . S
C815 C816 1.397 . S
C815 C820 1.363 . S
C816 H793 0.950 . S
C816 C815 1.397 . S
C816 C817 1.334 . S
C817 H794 0.950 . S
C817 C816 1.334 . S
C817 C818 1.287 . S
C818 C817 1.287 . S
C818 C819 1.524 . S
C818 H837 0.913 . S
C819 H795 0.950 . S
C819 C818 1.524 . S
C819 C820 1.415 . S
C820 H796 0.950 . S
C820 C815 1.363 . S
C820 C819 1.415 . S
C821 H797 0.951 . S
C821 C822 1.366 . S
C821 C823 1.388 . S
C822 C821 1.366 . S
C822 C826 1.385 . S
C823 H798 0.951 . S
C823 C821 1.388 . S
C823 C824 1.366 . S
C824 C823 1.366 . S
C824 C825 1.414 . S
C824 C827 1.499 . S
C825 H799 0.950 . S
C825 C824 1.414 . S
C825 C826 1.374 . S
C826 H800 0.950 . S
C826 C822 1.385 . S
C826 C825 1.374 . S
C827 C824 1.499 . S
C827 C828 1.373 . S
C827 C829 1.389 . S
C828 H801 0.950 . S
C828 C814 1.377 . S
C828 C827 1.373 . S
C829 C813 1.377 . S
C829 C827 1.389 . S
C829 C830 1.524 . S
C830 C829 1.524 . S
C830 C831 1.397 . S
C830 C835 1.363 . S
C831 H802 0.950 . S
C831 C830 1.397 . S
C831 C832 1.334 . S
C832 H803 0.950 . S
C832 C831 1.334 . S
C832 C833 1.287 . S
C833 C832 1.287 . S
C833 C834 1.524 . S
C833 H836 0.999 . S
C834 H804 0.950 . S
C834 C833 1.524 . S
C834 C835 1.415 . S
C835 H805 0.950 . S
C835 C830 1.363 . S
C835 C834 1.415 . S
H836 C833 0.999 . S
H837 C818 0.913 . S
H838 C856 0.951 . S
H839 C858 0.951 . S
H840 C860 0.950 . S
H841 C861 0.950 . S
H842 C863 0.950 . S
H843 C866 0.950 . S
H844 C867 0.950 . S
H845 C869 0.950 . S
H846 C870 0.950 . S
H847 C871 0.951 . S
H848 C873 0.951 . S
H849 C875 0.950 . S
H850 C876 0.950 . S
H851 C878 0.950 . S
H852 C881 0.950 . S
H853 C882 0.950 . S
H854 C884 0.950 . S
H855 C885 0.950 . S
C856 H838 0.951 . S
C856 C857 1.366 . S
C856 C858 1.388 . S
C857 C856 1.366 . S
C857 C861 1.385 . S
C858 H839 0.951 . S
C858 C856 1.388 . S
C858 C859 1.366 . S
C859 C858 1.366 . S
C859 C860 1.414 . S
C859 C862 1.499 . S
C860 H840 0.950 . S
C860 C859 1.414 . S
C860 C861 1.374 . S
C861 H841 0.950 . S
C861 C857 1.385 . S
C861 C860 1.374 . S
C862 C859 1.499 . S
C862 C863 1.373 . S
C862 C864 1.389 . S
C863 H842 0.950 . S
C863 C862 1.373 . S
C863 C879 1.377 . S
C864 C862 1.389 . S
C864 C865 1.524 . S
C864 C878 1.377 . S
C865 C864 1.524 . S
C865 C866 1.397 . S
C865 C870 1.363 . S
C866 H843 0.950 . S
C866 C865 1.397 . S
C866 C867 1.334 . S
C867 H844 0.950 . S
C867 C866 1.334 . S
C867 C868 1.287 . S
C868 C867 1.287 . S
C868 C869 1.524 . S
C868 H887 0.913 . S
C869 H845 0.950 . S
C869 C868 1.524 . S
C869 C870 1.415 . S
C870 H846 0.950 . S
C870 C865 1.363 . S
C870 C869 1.415 . S
C871 H847 0.951 . S
C871 C872 1.366 . S
C871 C873 1.388 . S
C872 C871 1.366 . S
C872 C876 1.385 . S
C873 H848 0.951 . S
C873 C871 1.388 . S
C873 C874 1.366 . S
C874 C873 1.366 . S
C874 C875 1.414 . S
C874 C877 1.499 . S
C875 H849 0.950 . S
C875 C874 1.414 . S
C875 C876 1.374 . S
C876 H850 0.950 . S
C876 C872 1.385 . S
C876 C875 1.374 . S
C877 C874 1.499 . S
C877 C878 1.373 . S
C877 C879 1.389 . S
C878 H851 0.950 . S
C878 C864 1.377 . S
C878 C877 1.373 . S
C879 C863 1.377 . S
C879 C877 1.389 . S
C879 C880 1.524 . S
C880 C879 1.524 . S
C880 C881 1.397 . S
C880 C885 1.363 . S
C881 H852 0.950 . S
C881 C880 1.397 . S
C881 C882 1.334 . S
C882 H853 0.950 . S
C882 C881 1.334 . S
C882 C883 1.287 . S
C883 C882 1.287 . S
C883 C884 1.524 . S
C883 H886 0.999 . S
C884 H854 0.950 . S
C884 C883 1.524 . S
C884 C885 1.415 . S
C885 H855 0.950 . S
C885 C880 1.363 . S
C885 C884 1.415 . S
H886 C883 0.999 . S
H887 C868 0.913 . S
H888 C906 0.951 . S
H889 C908 0.951 . S
H890 C910 0.950 . S
H891 C911 0.950 . S
H892 C913 0.950 . S
H893 C916 0.950 . S
H894 C917 0.950 . S
H895 C919 0.950 . S
H896 C920 0.950 . S
H897 C921 0.951 . S
H898 C923 0.951 . S
H899 C925 0.950 . S
H900 C926 0.950 . S
H901 C928 0.950 . S
H902 C931 0.950 . S
H903 C932 0.950 . S
H904 C934 0.950 . S
H905 C935 0.950 . S
C906 H888 0.951 . S
C906 C907 1.366 . S
C906 C908 1.388 . S
C907 C906 1.366 . S
C907 C911 1.385 . S
C908 H889 0.951 . S
C908 C906 1.388 . S
C908 C909 1.366 . S
C909 C908 1.366 . S
C909 C910 1.414 . S
C909 C912 1.499 . S
C910 H890 0.950 . S
C910 C909 1.414 . S
C910 C911 1.374 . S
C911 H891 0.950 . S
C911 C907 1.385 . S
C911 C910 1.374 . S
C912 C909 1.499 . S
C912 C913 1.373 . S
C912 C914 1.389 . S
C913 H892 0.950 . S
C913 C912 1.373 . S
C913 C929 1.377 . S
C914 C912 1.389 . S
C914 C915 1.524 . S
C914 C928 1.377 . S
C915 C914 1.524 . S
C915 C916 1.397 . S
C915 C920 1.363 . S
C916 H893 0.950 . S
C916 C915 1.397 . S
C916 C917 1.334 . S
C917 H894 0.950 . S
C917 C916 1.334 . S
C917 C918 1.287 . S
C918 C917 1.287 . S
C918 C919 1.524 . S
C918 H937 0.913 . S
C919 H895 0.950 . S
C919 C918 1.524 . S
C919 C920 1.415 . S
C920 H896 0.950 . S
C920 C915 1.363 . S
C920 C919 1.415 . S
C921 H897 0.951 . S
C921 C922 1.366 . S
C921 C923 1.388 . S
C922 C921 1.366 . S
C922 C926 1.385 . S
C923 H898 0.951 . S
C923 C921 1.388 . S
C923 C924 1.366 . S
C924 C923 1.366 . S
C924 C925 1.414 . S
C924 C927 1.499 . S
C925 H899 0.950 . S
C925 C924 1.414 . S
C925 C926 1.374 . S
C926 H900 0.950 . S
C926 C922 1.385 . S
C926 C925 1.374 . S
C927 C924 1.499 . S
C927 C928 1.373 . S
C927 C929 1.389 . S
C928 H901 0.950 . S
C928 C914 1.377 . S
C928 C927 1.373 . S
C929 C913 1.377 . S
C929 C927 1.389 . S
C929 C930 1.524 . S
C930 C929 1.524 . S
C930 C931 1.397 . S
C930 C935 1.363 . S
C931 H902 0.950 . S
C931 C930 1.397 . S
C931 C932 1.334 . S
C932 H903 0.950 . S
C932 C931 1.334 . S
C932 C933 1.287 . S
C933 C932 1.287 . S
C933 C934 1.524 . S
C933 H936 0.999 . S
C934 H904 0.950 . S
C934 C933 1.524 . S
C934 C935 1.415 . S
C935 H905 0.950 . S
C935 C930 1.363 . S
C935 C934 1.415 . S
H936 C933 0.999 . S
H937 C918 0.913 . S
H938 C956 0.951 . S
H939 C958 0.951 . S
H940 C960 0.950 . S
H941 C961 0.950 . S
H942 C963 0.950 . S
H943 C966 0.950 . S
H944 C967 0.950 . S
H945 C969 0.950 1_556 S
H946 C970 0.950 . S
H947 C971 0.951 . S
H948 C973 0.951 . S
H949 C975 0.950 . S
H950 C976 0.950 1_556 S
H951 C978 0.950 . S
H952 C981 0.950 . S
H953 C982 0.950 . S
H954 C984 0.950 . S
H955 C985 0.950 . S
C956 H938 0.951 . S
C956 C957 1.366 . S
C956 C958 1.388 . S
C957 C956 1.366 . S
C957 C961 1.385 . S
C958 H939 0.951 . S
C958 C956 1.388 . S
C958 C959 1.366 . S
C959 C958 1.366 . S
C959 C960 1.414 . S
C959 C962 1.499 . S
C960 H940 0.950 . S
C960 C959 1.414 . S
C960 C961 1.374 . S
C961 H941 0.950 . S
C961 C957 1.385 . S
C961 C960 1.374 . S
C962 C959 1.499 . S
C962 C963 1.373 . S
C962 C964 1.389 . S
C963 H942 0.950 . S
C963 C962 1.373 . S
C963 C979 1.377 . S
C964 C962 1.389 . S
C964 C965 1.524 . S
C964 C978 1.377 . S
C965 C964 1.524 . S
C965 C966 1.397 . S
C965 C970 1.363 . S
C966 H943 0.950 . S
C966 C965 1.397 . S
C966 C967 1.334 . S
C967 H944 0.950 . S
C967 C966 1.334 . S
C967 C968 1.287 . S
C968 C967 1.287 . S
C968 C969 1.524 . S
C968 H987 0.913 . S
C969 H945 0.950 1_554 S
C969 C968 1.524 . S
C969 C970 1.415 . S
C970 H946 0.950 . S
C970 C965 1.363 . S
C970 C969 1.415 . S
C971 H947 0.951 . S
C971 C972 1.366 . S
C971 C973 1.388 . S
C972 C971 1.366 . S
C972 C976 1.385 . S
C973 H948 0.951 . S
C973 C971 1.388 . S
C973 C974 1.366 . S
C974 C973 1.366 . S
C974 C975 1.414 . S
C974 C977 1.499 . S
C975 H949 0.950 . S
C975 C974 1.414 . S
C975 C976 1.374 . S
C976 H950 0.950 1_554 S
C976 C972 1.385 . S
C976 C975 1.374 . S
C977 C974 1.499 . S
C977 C978 1.373 . S
C977 C979 1.389 . S
C978 H951 0.950 . S
C978 C964 1.377 . S
C978 C977 1.373 . S
C979 C963 1.377 . S
C979 C977 1.389 . S
C979 C980 1.524 . S
C980 C979 1.524 . S
C980 C981 1.397 . S
C980 C985 1.363 . S
C981 H952 0.950 . S
C981 C980 1.397 . S
C981 C982 1.334 . S
C982 H953 0.950 . S
C982 C981 1.334 . S
C982 C983 1.287 . S
C983 C982 1.287 . S
C983 C984 1.524 . S
C983 H986 0.999 . S
C984 H954 0.950 . S
C984 C983 1.524 . S
C984 C985 1.415 . S
C985 H955 0.950 . S
C985 C980 1.363 . S
C985 C984 1.415 . S
H986 C983 0.999 . S
H987 C968 0.913 . S
H988 C1006 0.951 . S
H989 C1008 0.951 . S
H990 C1010 0.950 . S
H991 C1011 0.950 . S
H992 C1013 0.950 . S
H993 C1016 0.950 . S
H994 C1017 0.950 . S
H995 C1019 0.950 . S
H996 C1020 0.950 . S
H997 C1021 0.951 . S
H998 C1023 0.951 . S
H999 C1025 0.950 . S
H1000 C1026 0.950 . S
H1001 C1028 0.950 . S
H1002 C1031 0.950 . S
H1003 C1032 0.950 . S
H1004 C1034 0.950 . S
H1005 C1035 0.950 . S
C1006 H988 0.951 . S
C1006 C1007 1.366 . S
C1006 C1008 1.388 . S
C1007 C1006 1.366 . S
C1007 C1011 1.385 . S
C1008 H989 0.951 . S
C1008 C1006 1.388 . S
C1008 C1009 1.366 . S
C1009 C1008 1.366 . S
C1009 C1010 1.414 . S
C1009 C1012 1.499 . S
C1010 H990 0.950 . S
C1010 C1009 1.414 . S
C1010 C1011 1.374 . S
C1011 H991 0.950 . S
C1011 C1007 1.385 . S
C1011 C1010 1.374 . S
C1012 C1009 1.499 . S
C1012 C1013 1.373 . S
C1012 C1014 1.389 . S
C1013 H992 0.950 . S
C1013 C1012 1.373 . S
C1013 C1029 1.377 . S
C1014 C1012 1.389 . S
C1014 C1015 1.524 . S
C1014 C1028 1.377 . S
C1015 C1014 1.524 . S
C1015 C1016 1.397 . S
C1015 C1020 1.363 . S
C1016 H993 0.950 . S
C1016 C1015 1.397 . S
C1016 C1017 1.334 . S
C1017 H994 0.950 . S
C1017 C1016 1.334 . S
C1017 C1018 1.287 . S
C1018 C1017 1.287 . S
C1018 C1019 1.524 . S
C1018 H1037 0.913 . S
C1019 H995 0.950 . S
C1019 C1018 1.524 . S
C1019 C1020 1.415 . S
C1020 H996 0.950 . S
C1020 C1015 1.363 . S
C1020 C1019 1.415 . S
C1021 H997 0.951 . S
C1021 C1022 1.366 . S
C1021 C1023 1.388 . S
C1022 C1021 1.366 . S
C1022 C1026 1.385 . S
C1023 H998 0.951 . S
C1023 C1021 1.388 . S
C1023 C1024 1.366 . S
C1024 C1023 1.366 . S
C1024 C1025 1.414 . S
C1024 C1027 1.499 . S
C1025 H999 0.950 . S
C1025 C1024 1.414 . S
C1025 C1026 1.374 . S
C1026 H1000 0.950 . S
C1026 C1022 1.385 . S
C1026 C1025 1.374 . S
C1027 C1024 1.499 . S
C1027 C1028 1.373 . S
C1027 C1029 1.389 . S
C1028 H1001 0.950 . S
C1028 C1014 1.377 . S
C1028 C1027 1.373 . S
C1029 C1013 1.377 . S
C1029 C1027 1.389 . S
C1029 C1030 1.524 . S
C1030 C1029 1.524 . S
C1030 C1031 1.397 . S
C1030 C1035 1.363 . S
C1031 H1002 0.950 . S
C1031 C1030 1.397 . S
C1031 C1032 1.334 . S
C1032 H1003 0.950 . S
C1032 C1031 1.334 . S
C1032 C1033 1.287 . S
C1033 C1032 1.287 . S
C1033 C1034 1.524 . S
C1033 H1036 0.999 . S
C1034 H1004 0.950 . S
C1034 C1033 1.524 . S
C1034 C1035 1.415 . S
C1035 H1005 0.950 . S
C1035 C1030 1.363 . S
C1035 C1034 1.415 . S
H1036 C1033 0.999 . S
H1037 C1018 0.913 . S
H1038 C1056 0.951 . S
H1039 C1058 0.951 . S
H1040 C1060 0.950 . S
H1041 C1061 0.950 . S
H1042 C1063 0.950 . S
H1043 C1066 0.950 . S
H1044 C1067 0.950 . S
H1045 C1069 0.950 . S
H1046 C1070 0.950 . S
H1047 C1071 0.951 . S
H1048 C1073 0.951 . S
H1049 C1075 0.950 . S
H1050 C1076 0.950 . S
H1051 C1078 0.950 . S
H1052 C1081 0.950 . S
H1053 C1082 0.950 1_554 S
H1054 C1084 0.950 . S
H1055 C1085 0.950 . S
C1056 H1038 0.951 . S
C1056 C1057 1.366 . S
C1056 C1058 1.388 . S
C1057 C1056 1.366 . S
C1057 C1061 1.385 . S
C1058 H1039 0.951 . S
C1058 C1056 1.388 . S
C1058 C1059 1.366 . S
C1059 C1058 1.366 . S
C1059 C1060 1.414 . S
C1059 C1062 1.499 . S
C1060 H1040 0.950 . S
C1060 C1059 1.414 . S
C1060 C1061 1.374 . S
C1061 H1041 0.950 . S
C1061 C1057 1.385 . S
C1061 C1060 1.374 . S
C1062 C1059 1.499 . S
C1062 C1063 1.373 . S
C1062 C1064 1.389 . S
C1063 H1042 0.950 . S
C1063 C1062 1.373 . S
C1063 C1079 1.377 . S
C1064 C1062 1.389 . S
C1064 C1065 1.524 . S
C1064 C1078 1.377 . S
C1065 C1064 1.524 . S
C1065 C1066 1.397 . S
C1065 C1070 1.363 . S
C1066 H1043 0.950 . S
C1066 C1065 1.397 . S
C1066 C1067 1.334 . S
C1067 H1044 0.950 . S
C1067 C1066 1.334 . S
C1067 C1068 1.287 . S
C1068 C1067 1.287 . S
C1068 C1069 1.524 . S
C1068 H1087 0.913 . S
C1069 H1045 0.950 . S
C1069 C1068 1.524 . S
C1069 C1070 1.415 . S
C1070 H1046 0.950 . S
C1070 C1065 1.363 . S
C1070 C1069 1.415 . S
C1071 H1047 0.951 . S
C1071 C1072 1.366 . S
C1071 C1073 1.388 . S
C1072 C1071 1.366 . S
C1072 C1076 1.385 . S
C1073 H1048 0.951 . S
C1073 C1071 1.388 . S
C1073 C1074 1.366 . S
C1074 C1073 1.366 . S
C1074 C1075 1.414 . S
C1074 C1077 1.499 . S
C1075 H1049 0.950 . S
C1075 C1074 1.414 . S
C1075 C1076 1.374 . S
C1076 H1050 0.950 . S
C1076 C1072 1.385 . S
C1076 C1075 1.374 . S
C1077 C1074 1.499 . S
C1077 C1078 1.373 . S
C1077 C1079 1.389 . S
C1078 H1051 0.950 . S
C1078 C1064 1.377 . S
C1078 C1077 1.373 . S
C1079 C1063 1.377 . S
C1079 C1077 1.389 . S
C1079 C1080 1.524 . S
C1080 C1079 1.524 . S
C1080 C1081 1.397 . S
C1080 C1085 1.363 . S
C1081 H1052 0.950 . S
C1081 C1080 1.397 . S
C1081 C1082 1.334 . S
C1082 H1053 0.950 1_556 S
C1082 C1081 1.334 . S
C1082 C1083 1.287 . S
C1083 C1082 1.287 . S
C1083 C1084 1.524 . S
C1083 H1086 0.999 1_556 S
C1084 H1054 0.950 . S
C1084 C1083 1.524 . S
C1084 C1085 1.415 . S
C1085 H1055 0.950 . S
C1085 C1080 1.363 . S
C1085 C1084 1.415 . S
H1086 C1083 0.999 1_554 S
H1087 C1068 0.913 . S
H1088 C1106 0.951 . S
H1089 C1108 0.951 . S
H1090 C1110 0.950 . S
H1091 C1111 0.950 . S
H1092 C1113 0.950 . S
H1093 C1116 0.950 . S
H1094 C1117 0.950 . S
H1095 C1119 0.950 . S
H1096 C1120 0.950 . S
H1097 C1121 0.951 . S
H1098 C1123 0.951 . S
H1099 C1125 0.950 . S
H1100 C1126 0.950 . S
H1101 C1128 0.950 . S
H1102 C1131 0.950 . S
H1103 C1132 0.950 . S
H1104 C1134 0.955 . S
H1105 C1135 0.950 . S
C1106 H1088 0.951 . S
C1106 C1107 1.366 . S
C1106 C1108 1.388 . S
C1107 C1106 1.366 . S
C1107 C1111 1.385 . S
C1108 H1089 0.951 . S
C1108 C1106 1.388 . S
C1108 C1109 1.366 . S
C1109 C1108 1.366 . S
C1109 C1110 1.414 . S
C1109 C1112 1.499 . S
C1110 H1090 0.950 . S
C1110 C1109 1.414 . S
C1110 C1111 1.374 . S
C1111 H1091 0.950 . S
C1111 C1107 1.385 . S
C1111 C1110 1.374 . S
C1112 C1109 1.499 . S
C1112 C1113 1.373 . S
C1112 C1114 1.389 . S
C1113 H1092 0.950 . S
C1113 C1112 1.373 . S
C1113 C1129 1.377 . S
C1114 C1112 1.389 . S
C1114 C1115 1.524 . S
C1114 C1128 1.377 . S
C1115 C1114 1.524 . S
C1115 C1116 1.397 . S
C1115 C1120 1.363 . S
C1116 H1093 0.950 . S
C1116 C1115 1.397 . S
C1116 C1117 1.334 . S
C1117 H1094 0.950 . S
C1117 C1116 1.334 . S
C1117 C1118 1.287 . S
C1118 C1117 1.287 . S
C1118 C1119 1.524 . S
C1118 H1137 0.913 . S
C1119 H1095 0.950 . S
C1119 C1118 1.524 . S
C1119 C1120 1.415 . S
C1120 H1096 0.950 . S
C1120 C1115 1.363 . S
C1120 C1119 1.415 . S
C1121 H1097 0.951 . S
C1121 C1122 1.366 . S
C1121 C1123 1.388 . S
C1122 C1121 1.366 . S
C1122 C1126 1.385 . S
C1123 H1098 0.951 . S
C1123 C1121 1.388 . S
C1123 C1124 1.366 . S
C1124 C1123 1.366 . S
C1124 C1125 1.414 . S
C1124 C1127 1.499 . S
C1125 H1099 0.950 . S
C1125 C1124 1.414 . S
C1125 C1126 1.374 . S
C1126 H1100 0.950 . S
C1126 C1122 1.385 . S
C1126 C1125 1.374 . S
C1127 C1124 1.499 . S
C1127 C1128 1.373 . S
C1127 C1129 1.389 . S
C1128 H1101 0.950 . S
C1128 C1114 1.377 . S
C1128 C1127 1.373 . S
C1129 C1113 1.377 . S
C1129 C1127 1.389 . S
C1129 C1130 1.524 . S
C1130 C1129 1.524 . S
C1130 C1131 1.397 . S
C1130 C1135 1.363 . S
C1131 H1102 0.950 . S
C1131 C1130 1.397 . S
C1131 C1132 1.334 . S
C1132 H1103 0.950 . S
C1132 C1131 1.334 . S
C1132 C1133 1.287 . S
C1133 C1132 1.287 . S
C1133 C1134 1.524 1_556 S
C1133 H1136 0.999 1_556 S
C1134 H1104 0.955 . S
C1134 C1133 1.524 1_554 S
C1134 C1135 1.408 1_554 S
C1135 H1105 0.950 . S
C1135 C1130 1.363 . S
C1135 C1134 1.408 1_556 S
H1136 C1133 0.999 1_554 S
H1137 C1118 0.913 . S
H1138 C1156 0.951 . S
H1139 C1158 0.951 . S
H1140 C1160 0.950 . S
H1141 C1161 0.950 . S
H1142 C1163 0.950 . S
H1143 C1166 0.950 . S
H1144 C1167 0.950 . S
H1145 C1169 0.950 . S
H1146 C1170 0.950 . S
H1147 C1171 0.951 . S
H1148 C1173 0.951 . S
H1149 C1175 0.950 . S
H1150 C1176 0.950 . S
H1151 C1178 0.950 . S
H1152 C1181 0.950 . S
H1153 C1182 0.950 . S
H1154 C1184 0.950 . S
H1155 C1185 0.950 . S
C1156 H1138 0.951 . S
C1156 C1157 1.366 . S
C1156 C1158 1.388 . S
C1157 C1156 1.366 . S
C1157 C1161 1.385 . S
C1158 H1139 0.951 . S
C1158 C1156 1.388 . S
C1158 C1159 1.366 . S
C1159 C1158 1.366 . S
C1159 C1160 1.414 . S
C1159 C1162 1.499 . S
C1160 H1140 0.950 . S
C1160 C1159 1.414 . S
C1160 C1161 1.374 . S
C1161 H1141 0.950 . S
C1161 C1157 1.385 . S
C1161 C1160 1.374 . S
C1162 C1159 1.499 . S
C1162 C1163 1.373 . S
C1162 C1164 1.389 . S
C1163 H1142 0.950 . S
C1163 C1162 1.373 . S
C1163 C1179 1.377 . S
C1164 C1162 1.389 . S
C1164 C1165 1.524 . S
C1164 C1178 1.377 . S
C1165 C1164 1.524 . S
C1165 C1166 1.397 . S
C1165 C1170 1.363 . S
C1166 H1143 0.950 . S
C1166 C1165 1.397 . S
C1166 C1167 1.334 . S
C1167 H1144 0.950 . S
C1167 C1166 1.334 . S
C1167 C1168 1.287 . S
C1168 C1167 1.287 . S
C1168 C1169 1.524 . S
C1168 H1187 0.913 . S
C1169 H1145 0.950 . S
C1169 C1168 1.524 . S
C1169 C1170 1.415 . S
C1170 H1146 0.950 . S
C1170 C1165 1.363 . S
C1170 C1169 1.415 . S
C1171 H1147 0.951 . S
C1171 C1172 1.366 . S
C1171 C1173 1.388 . S
C1172 C1171 1.366 . S
C1172 C1176 1.385 . S
C1173 H1148 0.951 . S
C1173 C1171 1.388 . S
C1173 C1174 1.366 . S
C1174 C1173 1.366 . S
C1174 C1175 1.414 . S
C1174 C1177 1.499 . S
C1175 H1149 0.950 . S
C1175 C1174 1.414 . S
C1175 C1176 1.374 . S
C1176 H1150 0.950 . S
C1176 C1172 1.385 . S
C1176 C1175 1.374 . S
C1177 C1174 1.499 . S
C1177 C1178 1.373 . S
C1177 C1179 1.389 . S
C1178 H1151 0.950 . S
C1178 C1164 1.377 . S
C1178 C1177 1.373 . S
C1179 C1163 1.377 . S
C1179 C1177 1.389 . S
C1179 C1180 1.524 . S
C1180 C1179 1.524 . S
C1180 C1181 1.397 . S
C1180 C1185 1.363 . S
C1181 H1152 0.950 . S
C1181 C1180 1.397 . S
C1181 C1182 1.334 . S
C1182 H1153 0.950 . S
C1182 C1181 1.334 . S
C1182 C1183 1.287 . S
C1183 C1182 1.287 . S
C1183 C1184 1.524 . S
C1183 H1186 0.999 . S
C1184 H1154 0.950 . S
C1184 C1183 1.524 . S
C1184 C1185 1.415 . S
C1185 H1155 0.950 . S
C1185 C1180 1.363 . S
C1185 C1184 1.415 . S
H1186 C1183 0.999 . S
H1187 C1168 0.913 . S
H1188 C1206 0.951 . S
H1189 C1208 0.951 . S
H1190 C1210 0.950 . S
H1191 C1211 0.950 . S
H1192 C1213 0.950 . S
H1193 C1216 0.950 . S
H1194 C1217 0.950 . S
H1195 C1219 0.950 . S
H1196 C1220 0.950 . S
H1197 C1221 0.951 . S
H1198 C1223 0.951 . S
H1199 C1225 0.950 . S
H1200 C1226 0.950 . S
H1201 C1228 0.950 . S
H1202 C1231 0.950 . S
H1203 C1232 0.950 . S
H1204 C1234 0.950 . S
H1205 C1235 0.950 . S
C1206 H1188 0.951 . S
C1206 C1207 1.366 . S
C1206 C1208 1.388 . S
C1207 C1206 1.366 . S
C1207 C1211 1.385 . S
C1208 H1189 0.951 . S
C1208 C1206 1.388 . S
C1208 C1209 1.366 . S
C1209 C1208 1.366 . S
C1209 C1210 1.414 . S
C1209 C1212 1.499 . S
C1210 H1190 0.950 . S
C1210 C1209 1.414 . S
C1210 C1211 1.374 . S
C1211 H1191 0.950 . S
C1211 C1207 1.385 . S
C1211 C1210 1.374 . S
C1212 C1209 1.499 . S
C1212 C1213 1.373 . S
C1212 C1214 1.389 . S
C1213 H1192 0.950 . S
C1213 C1212 1.373 . S
C1213 C1229 1.377 . S
C1214 C1212 1.389 . S
C1214 C1215 1.524 . S
C1214 C1228 1.377 . S
C1215 C1214 1.524 . S
C1215 C1216 1.397 . S
C1215 C1220 1.363 . S
C1216 H1193 0.950 . S
C1216 C1215 1.397 . S
C1216 C1217 1.334 . S
C1217 H1194 0.950 . S
C1217 C1216 1.334 . S
C1217 C1218 1.287 . S
C1218 C1217 1.287 . S
C1218 C1219 1.524 . S
C1218 H1237 0.913 . S
C1219 H1195 0.950 . S
C1219 C1218 1.524 . S
C1219 C1220 1.415 . S
C1220 H1196 0.950 . S
C1220 C1215 1.363 . S
C1220 C1219 1.415 . S
C1221 H1197 0.951 . S
C1221 C1222 1.366 . S
C1221 C1223 1.388 . S
C1222 C1221 1.366 . S
C1222 C1226 1.385 . S
C1223 H1198 0.951 . S
C1223 C1221 1.388 . S
C1223 C1224 1.366 . S
C1224 C1223 1.366 . S
C1224 C1225 1.414 . S
C1224 C1227 1.499 . S
C1225 H1199 0.950 . S
C1225 C1224 1.414 . S
C1225 C1226 1.374 . S
C1226 H1200 0.950 . S
C1226 C1222 1.385 . S
C1226 C1225 1.374 . S
C1227 C1224 1.499 . S
C1227 C1228 1.373 . S
C1227 C1229 1.389 . S
C1228 H1201 0.950 . S
C1228 C1214 1.377 . S
C1228 C1227 1.373 . S
C1229 C1213 1.377 . S
C1229 C1227 1.389 . S
C1229 C1230 1.524 . S
C1230 C1229 1.524 . S
C1230 C1231 1.397 . S
C1230 C1235 1.363 . S
C1231 H1202 0.950 . S
C1231 C1230 1.397 . S
C1231 C1232 1.334 1_556 S
C1232 H1203 0.950 . S
C1232 C1231 1.334 1_554 S
C1232 C1233 1.287 . S
C1233 C1232 1.287 . S
C1233 C1234 1.524 . S
C1233 H1236 0.999 . S
C1234 H1204 0.950 . S
C1234 C1233 1.524 . S
C1234 C1235 1.415 1_554 S
C1235 H1205 0.950 . S
C1235 C1230 1.363 . S
C1235 C1234 1.415 1_556 S
H1236 C1233 0.999 . S
H1237 C1218 0.913 . S
H1238 C1256 0.951 . S
H1239 C1258 0.951 . S
H1240 C1260 0.950 . S
H1241 C1261 0.950 . S
H1242 C1263 0.950 . S
H1243 C1266 0.950 . S
H1244 C1267 0.950 . S
H1245 C1269 0.950 . S
H1246 C1270 0.950 . S
H1247 C1271 0.951 . S
H1248 C1273 0.951 . S
H1249 C1275 0.950 . S
H1250 C1276 0.950 . S
H1251 C1278 0.950 . S
H1252 C1281 0.950 . S
H1253 C1282 0.950 . S
H1254 C1284 0.950 . S
H1255 C1285 0.950 . S
C1256 H1238 0.951 . S
C1256 C1257 1.366 . S
C1256 C1258 1.388 . S
C1257 C1256 1.366 . S
C1257 C1261 1.385 . S
C1258 H1239 0.951 . S
C1258 C1256 1.388 . S
C1258 C1259 1.366 . S
C1259 C1258 1.366 . S
C1259 C1260 1.414 . S
C1259 C1262 1.499 . S
C1260 H1240 0.950 . S
C1260 C1259 1.414 . S
C1260 C1261 1.374 . S
C1261 H1241 0.950 . S
C1261 C1257 1.385 . S
C1261 C1260 1.374 . S
C1262 C1259 1.499 . S
C1262 C1263 1.373 . S
C1262 C1264 1.389 . S
C1263 H1242 0.950 . S
C1263 C1262 1.373 . S
C1263 C1279 1.377 . S
C1264 C1262 1.389 . S
C1264 C1265 1.524 . S
C1264 C1278 1.377 . S
C1265 C1264 1.524 . S
C1265 C1266 1.397 . S
C1265 C1270 1.363 . S
C1266 H1243 0.950 . S
C1266 C1265 1.397 . S
C1266 C1267 1.334 . S
C1267 H1244 0.950 . S
C1267 C1266 1.334 . S
C1267 C1268 1.287 . S
C1268 C1267 1.287 . S
C1268 C1269 1.524 . S
C1268 H1287 0.913 . S
C1269 H1245 0.950 . S
C1269 C1268 1.524 . S
C1269 C1270 1.415 . S
C1270 H1246 0.950 . S
C1270 C1265 1.363 . S
C1270 C1269 1.415 . S
C1271 H1247 0.951 . S
C1271 C1272 1.366 . S
C1271 C1273 1.388 . S
C1272 C1271 1.366 . S
C1272 C1276 1.385 . S
C1273 H1248 0.951 . S
C1273 C1271 1.388 . S
C1273 C1274 1.366 . S
C1274 C1273 1.366 . S
C1274 C1275 1.414 . S
C1274 C1277 1.499 . S
C1275 H1249 0.950 . S
C1275 C1274 1.414 . S
C1275 C1276 1.374 . S
C1276 H1250 0.950 . S
C1276 C1272 1.385 . S
C1276 C1275 1.374 . S
C1277 C1274 1.499 . S
C1277 C1278 1.373 . S
C1277 C1279 1.389 . S
C1278 H1251 0.950 . S
C1278 C1264 1.377 . S
C1278 C1277 1.373 . S
C1279 C1263 1.377 . S
C1279 C1277 1.389 . S
C1279 C1280 1.524 . S
C1280 C1279 1.524 . S
C1280 C1281 1.397 . S
C1280 C1285 1.363 . S
C1281 H1252 0.950 . S
C1281 C1280 1.397 . S
C1281 C1282 1.334 . S
C1282 H1253 0.950 . S
C1282 C1281 1.334 . S
C1282 C1283 1.287 . S
C1283 C1282 1.287 . S
C1283 C1284 1.524 . S
C1283 H1286 0.999 . S
C1284 H1254 0.950 . S
C1284 C1283 1.524 . S
C1284 C1285 1.415 . S
C1285 H1255 0.950 . S
C1285 C1280 1.363 . S
C1285 C1284 1.415 . S
H1286 C1283 0.999 . S
H1287 C1268 0.913 . S
H1288 C1306 0.951 . S
H1289 C1308 0.951 . S
H1290 C1310 0.950 . S
H1291 C1311 0.950 . S
H1292 C1313 0.950 . S
H1293 C1316 0.950 . S
H1294 C1317 0.950 . S
H1295 C1319 0.950 . S
H1296 C1320 0.950 . S
H1297 C1321 0.951 . S
H1298 C1323 0.951 . S
H1299 C1325 0.950 . S
H1300 C1326 0.950 . S
H1301 C1328 0.950 . S
H1302 C1331 0.950 . S
H1303 C1332 0.950 . S
H1304 C1334 0.950 . S
H1305 C1335 0.950 . S
C1306 H1288 0.951 . S
C1306 C1307 1.366 . S
C1306 C1308 1.388 . S
C1307 C1306 1.366 . S
C1307 C1311 1.385 . S
C1308 H1289 0.951 . S
C1308 C1306 1.388 . S
C1308 C1309 1.366 . S
C1309 C1308 1.366 . S
C1309 C1310 1.414 . S
C1309 C1312 1.499 . S
C1310 H1290 0.950 . S
C1310 C1309 1.414 . S
C1310 C1311 1.374 . S
C1311 H1291 0.950 . S
C1311 C1307 1.385 . S
C1311 C1310 1.374 . S
C1312 C1309 1.499 . S
C1312 C1313 1.373 . S
C1312 C1314 1.389 . S
C1313 H1292 0.950 . S
C1313 C1312 1.373 . S
C1313 C1329 1.377 . S
C1314 C1312 1.389 . S
C1314 C1315 1.524 . S
C1314 C1328 1.377 . S
C1315 C1314 1.524 . S
C1315 C1316 1.397 . S
C1315 C1320 1.363 . S
C1316 H1293 0.950 . S
C1316 C1315 1.397 . S
C1316 C1317 1.334 . S
C1317 H1294 0.950 . S
C1317 C1316 1.334 . S
C1317 C1318 1.287 . S
C1318 C1317 1.287 . S
C1318 C1319 1.524 . S
C1318 H1337 0.913 . S
C1319 H1295 0.950 . S
C1319 C1318 1.524 . S
C1319 C1320 1.415 . S
C1320 H1296 0.950 . S
C1320 C1315 1.363 . S
C1320 C1319 1.415 . S
C1321 H1297 0.951 . S
C1321 C1322 1.366 . S
C1321 C1323 1.388 . S
C1322 C1321 1.366 . S
C1322 C1326 1.385 . S
C1323 H1298 0.951 . S
C1323 C1321 1.388 . S
C1323 C1324 1.366 . S
C1324 C1323 1.366 . S
C1324 C1325 1.414 . S
C1324 C1327 1.499 . S
C1325 H1299 0.950 . S
C1325 C1324 1.414 . S
C1325 C1326 1.374 . S
C1326 H1300 0.950 . S
C1326 C1322 1.385 . S
C1326 C1325 1.374 . S
C1327 C1324 1.499 . S
C1327 C1328 1.373 . S
C1327 C1329 1.389 . S
C1328 H1301 0.950 . S
C1328 C1314 1.377 . S
C1328 C1327 1.373 . S
C1329 C1313 1.377 . S
C1329 C1327 1.389 . S
C1329 C1330 1.524 . S
C1330 C1329 1.524 . S
C1330 C1331 1.397 . S
C1330 C1335 1.363 . S
C1331 H1302 0.950 . S
C1331 C1330 1.397 . S
C1331 C1332 1.334 . S
C1332 H1303 0.950 . S
C1332 C1331 1.334 . S
C1332 C1333 1.287 . S
C1333 C1332 1.287 . S
C1333 C1334 1.524 . S
C1333 H1336 0.999 . S
C1334 H1304 0.950 . S
C1334 C1333 1.524 . S
C1334 C1335 1.415 . S
C1335 H1305 0.950 . S
C1335 C1330 1.363 . S
C1335 C1334 1.415 . S
H1336 C1333 0.999 . S
H1337 C1318 0.913 . S
H1338 C1356 0.951 . S
H1339 C1358 0.951 . S
H1340 C1360 0.950 . S
H1341 C1361 0.950 . S
H1342 C1363 0.950 . S
H1343 C1366 0.950 . S
H1344 C1367 0.950 . S
H1345 C1369 0.950 . S
H1346 C1370 0.950 . S
H1347 C1371 0.951 . S
H1348 C1373 0.951 . S
H1349 C1375 0.950 . S
H1350 C1376 0.950 . S
H1351 C1378 0.950 . S
H1352 C1381 0.950 . S
H1353 C1382 0.950 . S
H1354 C1384 0.950 . S
H1355 C1385 0.950 . S
C1356 H1338 0.951 . S
C1356 C1357 1.366 . S
C1356 C1358 1.388 . S
C1357 C1356 1.366 . S
C1357 C1361 1.385 . S
C1358 H1339 0.951 . S
C1358 C1356 1.388 . S
C1358 C1359 1.366 . S
C1359 C1358 1.366 . S
C1359 C1360 1.414 . S
C1359 C1362 1.499 . S
C1360 H1340 0.950 . S
C1360 C1359 1.414 . S
C1360 C1361 1.374 . S
C1361 H1341 0.950 . S
C1361 C1357 1.385 . S
C1361 C1360 1.374 . S
C1362 C1359 1.499 . S
C1362 C1363 1.373 . S
C1362 C1364 1.389 . S
C1363 H1342 0.950 . S
C1363 C1362 1.373 . S
C1363 C1379 1.377 . S
C1364 C1362 1.389 . S
C1364 C1365 1.524 . S
C1364 C1378 1.377 . S
C1365 C1364 1.524 . S
C1365 C1366 1.397 . S
C1365 C1370 1.363 . S
C1366 H1343 0.950 . S
C1366 C1365 1.397 . S
C1366 C1367 1.334 . S
C1367 H1344 0.950 . S
C1367 C1366 1.334 . S
C1367 C1368 1.287 . S
C1368 C1367 1.287 . S
C1368 C1369 1.524 . S
C1368 H1387 0.913 . S
C1369 H1345 0.950 . S
C1369 C1368 1.524 . S
C1369 C1370 1.415 . S
C1370 H1346 0.950 . S
C1370 C1365 1.363 . S
C1370 C1369 1.415 . S
C1371 H1347 0.951 . S
C1371 C1372 1.366 . S
C1371 C1373 1.388 . S
C1372 C1371 1.366 . S
C1372 C1376 1.385 . S
C1373 H1348 0.951 . S
C1373 C1371 1.388 . S
C1373 C1374 1.366 . S
C1374 C1373 1.366 . S
C1374 C1375 1.414 . S
C1374 C1377 1.499 . S
C1375 H1349 0.950 . S
C1375 C1374 1.414 . S
C1375 C1376 1.374 . S
C1376 H1350 0.950 . S
C1376 C1372 1.385 . S
C1376 C1375 1.374 . S
C1377 C1374 1.499 . S
C1377 C1378 1.373 . S
C1377 C1379 1.389 . S
C1378 H1351 0.950 . S
C1378 C1364 1.377 . S
C1378 C1377 1.373 . S
C1379 C1363 1.377 . S
C1379 C1377 1.389 . S
C1379 C1380 1.524 . S
C1380 C1379 1.524 . S
C1380 C1381 1.397 . S
C1380 C1385 1.363 . S
C1381 H1352 0.950 . S
C1381 C1380 1.397 . S
C1381 C1382 1.334 1_556 S
C1382 H1353 0.950 . S
C1382 C1381 1.334 1_554 S
C1382 C1383 1.287 . S
C1383 C1382 1.287 . S
C1383 C1384 1.524 . S
C1383 H1386 0.999 . S
C1384 H1354 0.950 . S
C1384 C1383 1.524 . S
C1384 C1385 1.415 1_554 S
C1385 H1355 0.950 . S
C1385 C1380 1.363 . S
C1385 C1384 1.415 1_556 S
H1386 C1383 0.999 . S
H1387 C1368 0.913 . S
H1388 C1406 0.951 . S
H1389 C1408 0.951 . S
H1390 C1410 0.950 . S
H1391 C1411 0.950 . S
H1392 C1413 0.950 . S
H1393 C1416 0.950 . S
H1394 C1417 0.950 . S
H1395 C1419 0.950 . S
H1396 C1420 0.950 . S
H1397 C1421 0.951 . S
H1398 C1423 0.951 . S
H1399 C1425 0.950 . S
H1400 C1426 0.950 . S
H1401 C1428 0.950 . S
H1402 C1431 0.950 . S
H1403 C1432 0.950 . S
H1404 C1434 0.950 . S
H1405 C1435 0.950 . S
C1406 H1388 0.951 . S
C1406 C1407 1.366 . S
C1406 C1408 1.388 . S
C1407 C1406 1.366 . S
C1407 C1411 1.385 . S
C1408 H1389 0.951 . S
C1408 C1406 1.388 . S
C1408 C1409 1.366 . S
C1409 C1408 1.366 . S
C1409 C1410 1.414 . S
C1409 C1412 1.499 . S
C1410 H1390 0.950 . S
C1410 C1409 1.414 . S
C1410 C1411 1.374 . S
C1411 H1391 0.950 . S
C1411 C1407 1.385 . S
C1411 C1410 1.374 . S
C1412 C1409 1.499 . S
C1412 C1413 1.373 . S
C1412 C1414 1.389 . S
C1413 H1392 0.950 . S
C1413 C1412 1.373 . S
C1413 C1429 1.377 . S
C1414 C1412 1.389 . S
C1414 C1415 1.524 . S
C1414 C1428 1.377 . S
C1415 C1414 1.524 . S
C1415 C1416 1.397 . S
C1415 C1420 1.363 . S
C1416 H1393 0.950 . S
C1416 C1415 1.397 . S
C1416 C1417 1.334 . S
C1417 H1394 0.950 . S
C1417 C1416 1.334 . S
C1417 C1418 1.287 . S
C1418 C1417 1.287 . S
C1418 C1419 1.524 . S
C1418 H1437 0.913 . S
C1419 H1395 0.950 . S
C1419 C1418 1.524 . S
C1419 C1420 1.415 . S
C1420 H1396 0.950 . S
C1420 C1415 1.363 . S
C1420 C1419 1.415 . S
C1421 H1397 0.951 . S
C1421 C1422 1.366 . S
C1421 C1423 1.388 . S
C1422 C1421 1.366 . S
C1422 C1426 1.385 . S
C1423 H1398 0.951 . S
C1423 C1421 1.388 . S
C1423 C1424 1.366 . S
C1424 C1423 1.366 . S
C1424 C1425 1.414 . S
C1424 C1427 1.499 . S
C1425 H1399 0.950 . S
C1425 C1424 1.414 . S
C1425 C1426 1.374 . S
C1426 H1400 0.950 . S
C1426 C1422 1.385 . S
C1426 C1425 1.374 . S
C1427 C1424 1.499 . S
C1427 C1428 1.373 . S
C1427 C1429 1.389 . S
C1428 H1401 0.950 . S
C1428 C1414 1.377 . S
C1428 C1427 1.373 . S
C1429 C1413 1.377 . S
C1429 C1427 1.389 . S
C1429 C1430 1.524 . S
C1430 C1429 1.524 . S
C1430 C1431 1.397 . S
C1430 C1435 1.363 . S
C1431 H1402 0.950 . S
C1431 C1430 1.397 . S
C1431 C1432 1.334 . S
C1432 H1403 0.950 . S
C1432 C1431 1.334 . S
C1432 C1433 1.287 . S
C1433 C1432 1.287 . S
C1433 C1434 1.524 . S
C1433 H1436 0.999 . S
C1434 H1404 0.950 . S
C1434 C1433 1.524 . S
C1434 C1435 1.415 . S
C1435 H1405 0.950 . S
C1435 C1430 1.363 . S
C1435 C1434 1.415 . S
H1436 C1433 0.999 . S
H1437 C1418 0.913 . S
H1438 C1456 0.951 . S
H1439 C1458 0.951 . S
H1440 C1460 0.950 . S
H1441 C1461 0.950 . S
H1442 C1463 0.950 . S
H1443 C1466 0.950 . S
H1444 C1467 0.950 . S
H1445 C1469 0.950 . S
H1446 C1470 0.950 . S
H1447 C1471 0.951 . S
H1448 C1473 0.951 . S
H1449 C1475 0.950 . S
H1450 C1476 0.950 . S
H1451 C1478 0.950 . S
H1452 C1481 0.950 . S
H1453 C1482 0.943 1_554 S
H1454 C1484 0.950 . S
H1455 C1485 0.950 . S
C1456 H1438 0.951 . S
C1456 C1457 1.366 . S
C1456 C1458 1.388 . S
C1457 C1456 1.366 . S
C1457 C1461 1.385 . S
C1458 H1439 0.951 . S
C1458 C1456 1.388 . S
C1458 C1459 1.366 . S
C1459 C1458 1.366 . S
C1459 C1460 1.414 . S
C1459 C1462 1.499 . S
C1460 H1440 0.950 . S
C1460 C1459 1.414 . S
C1460 C1461 1.374 . S
C1461 H1441 0.950 . S
C1461 C1457 1.385 . S
C1461 C1460 1.374 . S
C1462 C1459 1.499 . S
C1462 C1463 1.373 . S
C1462 C1464 1.389 . S
C1463 H1442 0.950 . S
C1463 C1462 1.373 . S
C1463 C1479 1.377 . S
C1464 C1462 1.389 . S
C1464 C1465 1.524 . S
C1464 C1478 1.377 . S
C1465 C1464 1.524 . S
C1465 C1466 1.397 . S
C1465 C1470 1.363 . S
C1466 H1443 0.950 . S
C1466 C1465 1.397 . S
C1466 C1467 1.334 . S
C1467 H1444 0.950 . S
C1467 C1466 1.334 . S
C1467 C1468 1.287 . S
C1468 C1467 1.287 . S
C1468 C1469 1.524 . S
C1468 H1487 0.913 . S
C1469 H1445 0.950 . S
C1469 C1468 1.524 . S
C1469 C1470 1.415 . S
C1470 H1446 0.950 . S
C1470 C1465 1.363 . S
C1470 C1469 1.415 . S
C1471 H1447 0.951 . S
C1471 C1472 1.366 . S
C1471 C1473 1.388 . S
C1472 C1471 1.366 . S
C1472 C1476 1.385 . S
C1473 H1448 0.951 . S
C1473 C1471 1.388 . S
C1473 C1474 1.366 . S
C1474 C1473 1.366 . S
C1474 C1475 1.414 . S
C1474 C1477 1.499 . S
C1475 H1449 0.950 . S
C1475 C1474 1.414 . S
C1475 C1476 1.374 . S
C1476 H1450 0.950 . S
C1476 C1472 1.385 . S
C1476 C1475 1.374 . S
C1477 C1474 1.499 . S
C1477 C1478 1.373 . S
C1477 C1479 1.389 . S
C1478 H1451 0.950 . S
C1478 C1464 1.377 . S
C1478 C1477 1.373 . S
C1479 C1463 1.377 . S
C1479 C1477 1.389 . S
C1479 C1480 1.524 . S
C1480 C1479 1.524 . S
C1480 C1481 1.397 . S
C1480 C1485 1.363 . S
C1481 H1452 0.950 . S
C1481 C1480 1.397 . S
C1481 C1482 1.348 . S
C1482 H1453 0.943 1_556 S
C1482 C1481 1.348 . S
C1482 C1483 1.280 1_556 S
C1483 C1482 1.280 1_554 S
C1483 C1484 1.524 . S
C1483 H1486 0.999 . S
C1484 H1454 0.950 . S
C1484 C1483 1.524 . S
C1484 C1485 1.415 1_554 S
C1485 H1455 0.950 . S
C1485 C1480 1.363 . S
C1485 C1484 1.415 1_556 S
H1486 C1483 0.999 . S
H1487 C1468 0.913 . S
H1488 C1506 0.951 . S
H1489 C1508 0.951 . S
H1490 C1510 0.950 . S
H1491 C1511 0.950 . S
H1492 C1513 0.950 . S
H1493 C1516 0.950 . S
H1494 C1517 0.950 . S
H1495 C1519 0.950 . S
H1496 C1520 0.950 . S
H1497 C1521 0.951 . S
H1498 C1523 0.951 . S
H1499 C1525 0.950 . S
H1500 C1526 0.950 . S
H1501 C1528 0.950 . S
H1502 C1531 0.950 . S
H1503 C1532 0.950 1_556 S
H1504 C1534 0.950 . S
H1505 C1535 0.950 . S
C1506 H1488 0.951 . S
C1506 C1507 1.366 . S
C1506 C1508 1.388 . S
C1507 C1506 1.366 . S
C1507 C1511 1.385 . S
C1508 H1489 0.951 . S
C1508 C1506 1.388 . S
C1508 C1509 1.366 . S
C1509 C1508 1.366 . S
C1509 C1510 1.414 . S
C1509 C1512 1.499 . S
C1510 H1490 0.950 . S
C1510 C1509 1.414 . S
C1510 C1511 1.374 . S
C1511 H1491 0.950 . S
C1511 C1507 1.385 . S
C1511 C1510 1.374 . S
C1512 C1509 1.499 . S
C1512 C1513 1.373 . S
C1512 C1514 1.389 . S
C1513 H1492 0.950 . S
C1513 C1512 1.373 . S
C1513 C1529 1.377 . S
C1514 C1512 1.389 . S
C1514 C1515 1.524 . S
C1514 C1528 1.377 . S
C1515 C1514 1.524 . S
C1515 C1516 1.397 . S
C1515 C1520 1.363 . S
C1516 H1493 0.950 . S
C1516 C1515 1.397 . S
C1516 C1517 1.334 . S
C1517 H1494 0.950 . S
C1517 C1516 1.334 . S
C1517 C1518 1.287 . S
C1518 C1517 1.287 . S
C1518 C1519 1.524 . S
C1518 H1537 0.913 . S
C1519 H1495 0.950 . S
C1519 C1518 1.524 . S
C1519 C1520 1.415 . S
C1520 H1496 0.950 . S
C1520 C1515 1.363 . S
C1520 C1519 1.415 . S
C1521 H1497 0.951 . S
C1521 C1522 1.366 . S
C1521 C1523 1.388 . S
C1522 C1521 1.366 . S
C1522 C1526 1.385 . S
C1523 H1498 0.951 . S
C1523 C1521 1.388 . S
C1523 C1524 1.366 . S
C1524 C1523 1.366 . S
C1524 C1525 1.414 . S
C1524 C1527 1.499 . S
C1525 H1499 0.950 . S
C1525 C1524 1.414 . S
C1525 C1526 1.374 . S
C1526 H1500 0.950 . S
C1526 C1522 1.385 . S
C1526 C1525 1.374 . S
C1527 C1524 1.499 . S
C1527 C1528 1.373 . S
C1527 C1529 1.389 . S
C1528 H1501 0.950 . S
C1528 C1514 1.377 . S
C1528 C1527 1.373 . S
C1529 C1513 1.377 . S
C1529 C1527 1.389 . S
C1529 C1530 1.524 . S
C1530 C1529 1.524 . S
C1530 C1531 1.397 . S
C1530 C1535 1.363 . S
C1531 H1502 0.950 . S
C1531 C1530 1.397 . S
C1531 C1532 1.334 . S
C1532 H1503 0.950 1_554 S
C1532 C1531 1.334 . S
C1532 C1533 1.287 . S
C1533 C1532 1.287 . S
C1533 C1534 1.524 . S
C1533 H1536 0.999 1_554 S
C1534 H1504 0.950 . S
C1534 C1533 1.524 . S
C1534 C1535 1.415 . S
C1535 H1505 0.950 . S
C1535 C1530 1.363 . S
C1535 C1534 1.415 . S
H1536 C1533 0.999 1_556 S
H1537 C1518 0.913 . S
H1538 C1556 0.951 . S
H1539 C1558 0.951 . S
H1540 C1560 0.950 . S
H1541 C1561 0.950 . S
H1542 C1563 0.950 . S
H1543 C1566 0.950 . S
H1544 C1567 0.950 . S
H1545 C1569 0.950 . S
H1546 C1570 0.950 . S
H1547 C1571 0.951 . S
H1548 C1573 0.951 . S
H1549 C1575 0.950 . S
H1550 C1576 0.950 . S
H1551 C1578 0.950 . S
H1552 C1581 0.950 . S
H1553 C1582 0.950 . S
H1554 C1584 0.950 . S
H1555 C1585 0.950 . S
C1556 H1538 0.951 . S
C1556 C1557 1.366 . S
C1556 C1558 1.388 . S
C1557 C1556 1.366 . S
C1557 C1561 1.385 . S
C1558 H1539 0.951 . S
C1558 C1556 1.388 . S
C1558 C1559 1.366 . S
C1559 C1558 1.366 . S
C1559 C1560 1.414 . S
C1559 C1562 1.499 . S
C1560 H1540 0.950 . S
C1560 C1559 1.414 . S
C1560 C1561 1.374 . S
C1561 H1541 0.950 . S
C1561 C1557 1.385 . S
C1561 C1560 1.374 . S
C1562 C1559 1.499 . S
C1562 C1563 1.373 . S
C1562 C1564 1.389 . S
C1563 H1542 0.950 . S
C1563 C1562 1.373 . S
C1563 C1579 1.377 . S
C1564 C1562 1.389 . S
C1564 C1565 1.524 . S
C1564 C1578 1.377 . S
C1565 C1564 1.524 . S
C1565 C1566 1.397 . S
C1565 C1570 1.363 . S
C1566 H1543 0.950 . S
C1566 C1565 1.397 . S
C1566 C1567 1.334 . S
C1567 H1544 0.950 . S
C1567 C1566 1.334 . S
C1567 C1568 1.287 . S
C1568 C1567 1.287 . S
C1568 C1569 1.524 . S
C1568 H1587 0.913 . S
C1569 H1545 0.950 . S
C1569 C1568 1.524 . S
C1569 C1570 1.415 . S
C1570 H1546 0.950 . S
C1570 C1565 1.363 . S
C1570 C1569 1.415 . S
C1571 H1547 0.951 . S
C1571 C1572 1.366 . S
C1571 C1573 1.388 . S
C1572 C1571 1.366 . S
C1572 C1576 1.385 . S
C1573 H1548 0.951 . S
C1573 C1571 1.388 . S
C1573 C1574 1.366 . S
C1574 C1573 1.366 . S
C1574 C1575 1.414 . S
C1574 C1577 1.499 . S
C1575 H1549 0.950 . S
C1575 C1574 1.414 . S
C1575 C1576 1.374 . S
C1576 H1550 0.950 . S
C1576 C1572 1.385 . S
C1576 C1575 1.374 . S
C1577 C1574 1.499 . S
C1577 C1578 1.373 . S
C1577 C1579 1.389 . S
C1578 H1551 0.950 . S
C1578 C1564 1.377 . S
C1578 C1577 1.373 . S
C1579 C1563 1.377 . S
C1579 C1577 1.389 . S
C1579 C1580 1.524 . S
C1580 C1579 1.524 . S
C1580 C1581 1.397 . S
C1580 C1585 1.363 . S
C1581 H1552 0.950 . S
C1581 C1580 1.397 . S
C1581 C1582 1.334 1_554 S
C1582 H1553 0.950 . S
C1582 C1581 1.334 1_556 S
C1582 C1583 1.287 . S
C1583 C1582 1.287 . S
C1583 C1584 1.524 . S
C1583 H1586 0.999 . S
C1584 H1554 0.950 . S
C1584 C1583 1.524 . S
C1584 C1585 1.415 1_556 S
C1585 H1555 0.950 . S
C1585 C1580 1.363 . S
C1585 C1584 1.415 1_554 S
H1586 C1583 0.999 . S
H1587 C1568 0.913 . S
H1588 C1606 0.951 . S
H1589 C1608 0.951 . S
H1590 C1610 0.950 . S
H1591 C1611 0.950 . S
H1592 C1613 0.950 . S
H1593 C1616 0.950 . S
H1594 C1617 0.950 . S
H1595 C1619 0.950 . S
H1596 C1620 0.950 . S
H1597 C1621 0.951 . S
H1598 C1623 0.951 . S
H1599 C1625 0.950 . S
H1600 C1626 0.950 . S
H1601 C1628 0.950 . S
H1602 C1631 0.950 . S
H1603 C1632 0.950 . S
H1604 C1634 0.950 . S
H1605 C1635 0.950 . S
C1606 H1588 0.951 . S
C1606 C1607 1.366 . S
C1606 C1608 1.388 . S
C1607 C1606 1.366 . S
C1607 C1611 1.385 . S
C1608 H1589 0.951 . S
C1608 C1606 1.388 . S
C1608 C1609 1.366 . S
C1609 C1608 1.366 . S
C1609 C1610 1.414 . S
C1609 C1612 1.499 . S
C1610 H1590 0.950 . S
C1610 C1609 1.414 . S
C1610 C1611 1.374 . S
C1611 H1591 0.950 . S
C1611 C1607 1.385 . S
C1611 C1610 1.374 . S
C1612 C1609 1.499 . S
C1612 C1613 1.373 . S
C1612 C1614 1.389 . S
C1613 H1592 0.950 . S
C1613 C1612 1.373 . S
C1613 C1629 1.377 . S
C1614 C1612 1.389 . S
C1614 C1615 1.524 . S
C1614 C1628 1.377 . S
C1615 C1614 1.524 . S
C1615 C1616 1.397 . S
C1615 C1620 1.363 . S
C1616 H1593 0.950 . S
C1616 C1615 1.397 . S
C1616 C1617 1.334 . S
C1617 H1594 0.950 . S
C1617 C1616 1.334 . S
C1617 C1618 1.287 . S
C1618 C1617 1.287 . S
C1618 C1619 1.524 . S
C1618 H1637 0.913 . S
C1619 H1595 0.950 . S
C1619 C1618 1.524 . S
C1619 C1620 1.415 . S
C1620 H1596 0.950 . S
C1620 C1615 1.363 . S
C1620 C1619 1.415 . S
C1621 H1597 0.951 . S
C1621 C1622 1.366 . S
C1621 C1623 1.388 . S
C1622 C1621 1.366 . S
C1622 C1626 1.385 . S
C1623 H1598 0.951 . S
C1623 C1621 1.388 . S
C1623 C1624 1.366 . S
C1624 C1623 1.366 . S
C1624 C1625 1.414 . S
C1624 C1627 1.499 . S
C1625 H1599 0.950 . S
C1625 C1624 1.414 . S
C1625 C1626 1.374 . S
C1626 H1600 0.950 . S
C1626 C1622 1.385 . S
C1626 C1625 1.374 . S
C1627 C1624 1.499 . S
C1627 C1628 1.373 . S
C1627 C1629 1.389 . S
C1628 H1601 0.950 . S
C1628 C1614 1.377 . S
C1628 C1627 1.373 . S
C1629 C1613 1.377 . S
C1629 C1627 1.389 . S
C1629 C1630 1.524 . S
C1630 C1629 1.524 . S
C1630 C1631 1.397 . S
C1630 C1635 1.363 . S
C1631 H1602 0.950 . S
C1631 C1630 1.397 . S
C1631 C1632 1.334 . S
C1632 H1603 0.950 . S
C1632 C1631 1.334 . S
C1632 C1633 1.287 . S
C1633 C1632 1.287 . S
C1633 C1634 1.524 . S
C1633 H1636 0.999 . S
C1634 H1604 0.950 . S
C1634 C1633 1.524 . S
C1634 C1635 1.415 . S
C1635 H1605 0.950 . S
C1635 C1630 1.363 . S
C1635 C1634 1.415 . S
H1636 C1633 0.999 . S
H1637 C1618 0.913 . S
H1638 C1656 0.951 . S
H1639 C1658 0.951 . S
H1640 C1660 0.950 . S
H1641 C1661 0.950 . S
H1642 C1663 0.950 . S
H1643 C1666 0.950 . S
H1644 C1667 0.950 . S
H1645 C1669 0.950 . S
H1646 C1670 0.950 . S
H1647 C1671 0.951 . S
H1648 C1673 0.951 . S
H1649 C1675 0.950 . S
H1650 C1676 0.950 . S
H1651 C1678 0.950 . S
H1652 C1681 0.950 . S
H1653 C1682 0.950 . S
H1654 C1684 0.950 . S
H1655 C1685 0.950 . S
C1656 H1638 0.951 . S
C1656 C1657 1.366 . S
C1656 C1658 1.388 . S
C1657 C1656 1.366 . S
C1657 C1661 1.385 . S
C1658 H1639 0.951 . S
C1658 C1656 1.388 . S
C1658 C1659 1.366 . S
C1659 C1658 1.366 . S
C1659 C1660 1.414 . S
C1659 C1662 1.499 . S
C1660 H1640 0.950 . S
C1660 C1659 1.414 . S
C1660 C1661 1.374 . S
C1661 H1641 0.950 . S
C1661 C1657 1.385 . S
C1661 C1660 1.374 . S
C1662 C1659 1.499 . S
C1662 C1663 1.373 . S
C1662 C1664 1.389 . S
C1663 H1642 0.950 . S
C1663 C1662 1.373 . S
C1663 C1679 1.377 . S
C1664 C1662 1.389 . S
C1664 C1665 1.524 . S
C1664 C1678 1.377 . S
C1665 C1664 1.524 . S
C1665 C1666 1.397 . S
C1665 C1670 1.363 . S
C1666 H1643 0.950 . S
C1666 C1665 1.397 . S
C1666 C1667 1.334 . S
C1667 H1644 0.950 . S
C1667 C1666 1.334 . S
C1667 C1668 1.287 . S
C1668 C1667 1.287 . S
C1668 C1669 1.524 . S
C1668 H1687 0.913 . S
C1669 H1645 0.950 . S
C1669 C1668 1.524 . S
C1669 C1670 1.415 . S
C1670 H1646 0.950 . S
C1670 C1665 1.363 . S
C1670 C1669 1.415 . S
C1671 H1647 0.951 . S
C1671 C1672 1.366 . S
C1671 C1673 1.388 . S
C1672 C1671 1.366 . S
C1672 C1676 1.385 . S
C1673 H1648 0.951 . S
C1673 C1671 1.388 . S
C1673 C1674 1.366 . S
C1674 C1673 1.366 . S
C1674 C1675 1.414 . S
C1674 C1677 1.499 . S
C1675 H1649 0.950 . S
C1675 C1674 1.414 . S
C1675 C1676 1.374 . S
C1676 H1650 0.950 . S
C1676 C1672 1.385 . S
C1676 C1675 1.374 . S
C1677 C1674 1.499 . S
C1677 C1678 1.373 . S
C1677 C1679 1.389 . S
C1678 H1651 0.950 . S
C1678 C1664 1.377 . S
C1678 C1677 1.373 . S
C1679 C1663 1.377 . S
C1679 C1677 1.389 . S
C1679 C1680 1.524 . S
C1680 C1679 1.524 . S
C1680 C1681 1.397 . S
C1680 C1685 1.363 . S
C1681 H1652 0.950 . S
C1681 C1680 1.397 . S
C1681 C1682 1.334 . S
C1682 H1653 0.950 . S
C1682 C1681 1.334 . S
C1682 C1683 1.287 . S
C1683 C1682 1.287 . S
C1683 C1684 1.524 . S
C1683 H1686 0.999 . S
C1684 H1654 0.950 . S
C1684 C1683 1.524 . S
C1684 C1685 1.415 . S
C1685 H1655 0.950 . S
C1685 C1680 1.363 . S
C1685 C1684 1.415 . S
H1686 C1683 0.999 . S
H1687 C1668 0.913 . S
H1688 C1706 0.951 . S
H1689 C1708 0.951 . S
H1690 C1710 0.950 . S
H1691 C1711 0.950 . S
H1692 C1713 0.950 . S
H1693 C1716 0.950 . S
H1694 C1717 0.950 . S
H1695 C1719 0.950 . S
H1696 C1720 0.950 . S
H1697 C1721 0.951 . S
H1698 C1723 0.951 . S
H1699 C1725 0.950 . S
H1700 C1726 0.950 . S
H1701 C1728 0.950 . S
H1702 C1731 0.950 . S
H1703 C1732 0.950 . S
H1704 C1734 0.950 . S
H1705 C1735 0.950 . S
C1706 H1688 0.951 . S
C1706 C1707 1.366 . S
C1706 C1708 1.388 . S
C1707 C1706 1.366 . S
C1707 C1711 1.385 . S
C1708 H1689 0.951 . S
C1708 C1706 1.388 . S
C1708 C1709 1.366 . S
C1709 C1708 1.366 . S
C1709 C1710 1.414 . S
C1709 C1712 1.499 . S
C1710 H1690 0.950 . S
C1710 C1709 1.414 . S
C1710 C1711 1.374 . S
C1711 H1691 0.950 . S
C1711 C1707 1.385 . S
C1711 C1710 1.374 . S
C1712 C1709 1.499 . S
C1712 C1713 1.373 . S
C1712 C1714 1.389 . S
C1713 H1692 0.950 . S
C1713 C1712 1.373 . S
C1713 C1729 1.377 . S
C1714 C1712 1.389 . S
C1714 C1715 1.524 . S
C1714 C1728 1.377 . S
C1715 C1714 1.524 . S
C1715 C1716 1.397 . S
C1715 C1720 1.363 . S
C1716 H1693 0.950 . S
C1716 C1715 1.397 . S
C1716 C1717 1.334 . S
C1717 H1694 0.950 . S
C1717 C1716 1.334 . S
C1717 C1718 1.287 . S
C1718 C1717 1.287 . S
C1718 C1719 1.524 . S
C1718 H1737 0.913 . S
C1719 H1695 0.950 . S
C1719 C1718 1.524 . S
C1719 C1720 1.415 . S
C1720 H1696 0.950 . S
C1720 C1715 1.363 . S
C1720 C1719 1.415 . S
C1721 H1697 0.951 . S
C1721 C1722 1.366 . S
C1721 C1723 1.388 . S
C1722 C1721 1.366 . S
C1722 C1726 1.385 . S
C1723 H1698 0.951 . S
C1723 C1721 1.388 . S
C1723 C1724 1.366 . S
C1724 C1723 1.366 . S
C1724 C1725 1.414 . S
C1724 C1727 1.499 . S
C1725 H1699 0.950 . S
C1725 C1724 1.414 . S
C1725 C1726 1.374 . S
C1726 H1700 0.950 . S
C1726 C1722 1.385 . S
C1726 C1725 1.374 . S
C1727 C1724 1.499 . S
C1727 C1728 1.373 . S
C1727 C1729 1.389 . S
C1728 H1701 0.950 . S
C1728 C1714 1.377 . S
C1728 C1727 1.373 . S
C1729 C1713 1.377 . S
C1729 C1727 1.389 . S
C1729 C1730 1.524 . S
C1730 C1729 1.524 . S
C1730 C1731 1.397 . S
C1730 C1735 1.363 . S
C1731 H1702 0.950 . S
C1731 C1730 1.397 . S
C1731 C1732 1.334 . S
C1732 H1703 0.950 . S
C1732 C1731 1.334 . S
C1732 C1733 1.287 . S
C1733 C1732 1.287 . S
C1733 C1734 1.524 . S
C1733 H1736 0.999 . S
C1734 H1704 0.950 . S
C1734 C1733 1.524 . S
C1734 C1735 1.415 . S
C1735 H1705 0.950 . S
C1735 C1730 1.363 . S
C1735 C1734 1.415 . S
H1736 C1733 0.999 . S
H1737 C1718 0.913 . S
H1738 C1756 0.951 . S
H1739 C1758 0.951 . S
H1740 C1760 0.950 . S
H1741 C1761 0.950 . S
H1742 C1763 0.950 . S
H1743 C1766 0.950 . S
H1744 C1767 0.950 . S
H1745 C1769 0.950 . S
H1746 C1770 0.950 . S
H1747 C1771 0.951 . S
H1748 C1773 0.951 . S
H1749 C1775 0.950 . S
H1750 C1776 0.950 . S
H1751 C1778 0.950 . S
H1752 C1781 0.950 . S
H1753 C1782 0.950 . S
H1754 C1784 0.950 . S
H1755 C1785 0.950 . S
C1756 H1738 0.951 . S
C1756 C1757 1.366 . S
C1756 C1758 1.388 . S
C1757 C1756 1.366 . S
C1757 C1761 1.385 . S
C1758 H1739 0.951 . S
C1758 C1756 1.388 . S
C1758 C1759 1.366 . S
C1759 C1758 1.366 . S
C1759 C1760 1.414 . S
C1759 C1762 1.499 . S
C1760 H1740 0.950 . S
C1760 C1759 1.414 . S
C1760 C1761 1.374 . S
C1761 H1741 0.950 . S
C1761 C1757 1.385 . S
C1761 C1760 1.374 . S
C1762 C1759 1.499 . S
C1762 C1763 1.373 . S
C1762 C1764 1.389 . S
C1763 H1742 0.950 . S
C1763 C1762 1.373 . S
C1763 C1779 1.377 . S
C1764 C1762 1.389 . S
C1764 C1765 1.524 . S
C1764 C1778 1.377 . S
C1765 C1764 1.524 . S
C1765 C1766 1.397 . S
C1765 C1770 1.363 . S
C1766 H1743 0.950 . S
C1766 C1765 1.397 . S
C1766 C1767 1.334 . S
C1767 H1744 0.950 . S
C1767 C1766 1.334 . S
C1767 C1768 1.287 . S
C1768 C1767 1.287 . S
C1768 C1769 1.524 . S
C1768 H1787 0.913 . S
C1769 H1745 0.950 . S
C1769 C1768 1.524 . S
C1769 C1770 1.415 . S
C1770 H1746 0.950 . S
C1770 C1765 1.363 . S
C1770 C1769 1.415 . S
C1771 H1747 0.951 . S
C1771 C1772 1.366 . S
C1771 C1773 1.388 . S
C1772 C1771 1.366 . S
C1772 C1776 1.385 . S
C1773 H1748 0.951 . S
C1773 C1771 1.388 . S
C1773 C1774 1.366 . S
C1774 C1773 1.366 . S
C1774 C1775 1.414 . S
C1774 C1777 1.499 . S
C1775 H1749 0.950 . S
C1775 C1774 1.414 . S
C1775 C1776 1.374 . S
C1776 H1750 0.950 . S
C1776 C1772 1.385 . S
C1776 C1775 1.374 . S
C1777 C1774 1.499 . S
C1777 C1778 1.373 . S
C1777 C1779 1.389 . S
C1778 H1751 0.950 . S
C1778 C1764 1.377 . S
C1778 C1777 1.373 . S
C1779 C1763 1.377 . S
C1779 C1777 1.389 . S
C1779 C1780 1.524 . S
C1780 C1779 1.524 . S
C1780 C1781 1.397 . S
C1780 C1785 1.363 . S
C1781 H1752 0.950 . S
C1781 C1780 1.397 . S
C1781 C1782 1.334 . S
C1782 H1753 0.950 . S
C1782 C1781 1.334 . S
C1782 C1783 1.287 . S
C1783 C1782 1.287 . S
C1783 C1784 1.524 . S
C1783 H1786 0.999 . S
C1784 H1754 0.950 . S
C1784 C1783 1.524 . S
C1784 C1785 1.415 . S
C1785 H1755 0.950 . S
C1785 C1780 1.363 . S
C1785 C1784 1.415 . S
H1786 C1783 0.999 . S
H1787 C1768 0.913 . S
H1788 C1806 0.951 . S
H1789 C1808 0.951 . S
H1790 C1810 0.950 . S
H1791 C1811 0.950 . S
H1792 C1813 0.950 . S
H1793 C1816 0.950 . S
H1794 C1817 0.950 . S
H1795 C1819 0.950 . S
H1796 C1820 0.950 . S
H1797 C1821 0.951 . S
H1798 C1823 0.951 . S
H1799 C1825 0.950 . S
H1800 C1826 0.950 . S
H1801 C1828 0.950 . S
H1802 C1831 0.950 . S
H1803 C1832 0.950 . S
H1804 C1834 0.950 . S
H1805 C1835 0.950 . S
C1806 H1788 0.951 . S
C1806 C1807 1.366 . S
C1806 C1808 1.388 . S
C1807 C1806 1.366 . S
C1807 C1811 1.385 . S
C1808 H1789 0.951 . S
C1808 C1806 1.388 . S
C1808 C1809 1.366 . S
C1809 C1808 1.366 . S
C1809 C1810 1.414 . S
C1809 C1812 1.499 . S
C1810 H1790 0.950 . S
C1810 C1809 1.414 . S
C1810 C1811 1.374 . S
C1811 H1791 0.950 . S
C1811 C1807 1.385 . S
C1811 C1810 1.374 . S
C1812 C1809 1.499 . S
C1812 C1813 1.373 . S
C1812 C1814 1.389 . S
C1813 H1792 0.950 . S
C1813 C1812 1.373 . S
C1813 C1829 1.377 . S
C1814 C1812 1.389 . S
C1814 C1815 1.524 . S
C1814 C1828 1.377 . S
C1815 C1814 1.524 . S
C1815 C1816 1.397 . S
C1815 C1820 1.363 . S
C1816 H1793 0.950 . S
C1816 C1815 1.397 . S
C1816 C1817 1.334 . S
C1817 H1794 0.950 . S
C1817 C1816 1.334 . S
C1817 C1818 1.287 . S
C1818 C1817 1.287 . S
C1818 C1819 1.524 . S
C1818 H1837 0.913 . S
C1819 H1795 0.950 . S
C1819 C1818 1.524 . S
C1819 C1820 1.415 . S
C1820 H1796 0.950 . S
C1820 C1815 1.363 . S
C1820 C1819 1.415 . S
C1821 H1797 0.951 . S
C1821 C1822 1.366 . S
C1821 C1823 1.388 . S
C1822 C1821 1.366 . S
C1822 C1826 1.385 . S
C1823 H1798 0.951 . S
C1823 C1821 1.388 . S
C1823 C1824 1.366 . S
C1824 C1823 1.366 . S
C1824 C1825 1.414 . S
C1824 C1827 1.499 . S
C1825 H1799 0.950 . S
C1825 C1824 1.414 . S
C1825 C1826 1.374 . S
C1826 H1800 0.950 . S
C1826 C1822 1.385 . S
C1826 C1825 1.374 . S
C1827 C1824 1.499 . S
C1827 C1828 1.373 . S
C1827 C1829 1.389 . S
C1828 H1801 0.950 . S
C1828 C1814 1.377 . S
C1828 C1827 1.373 . S
C1829 C1813 1.377 . S
C1829 C1827 1.389 . S
C1829 C1830 1.524 . S
C1830 C1829 1.524 . S
C1830 C1831 1.397 . S
C1830 C1835 1.363 . S
C1831 H1802 0.950 . S
C1831 C1830 1.397 . S
C1831 C1832 1.334 1_556 S
C1832 H1803 0.950 . S
C1832 C1831 1.334 1_554 S
C1832 C1833 1.287 . S
C1833 C1832 1.287 . S
C1833 C1834 1.524 1_554 S
C1833 H1836 0.999 . S
C1834 H1804 0.950 . S
C1834 C1833 1.524 1_556 S
C1834 C1835 1.415 . S
C1835 H1805 0.950 . S
C1835 C1830 1.363 . S
C1835 C1834 1.415 . S
H1836 C1833 0.999 . S
H1837 C1818 0.913 . S
H1838 C1856 0.951 . S
H1839 C1858 0.951 . S
H1840 C1860 0.950 . S
H1841 C1861 0.950 . S
H1842 C1863 0.950 . S
H1843 C1866 0.950 . S
H1844 C1867 0.950 . S
H1845 C1869 0.950 . S
H1846 C1870 0.950 . S
H1847 C1871 0.951 . S
H1848 C1873 0.951 . S
H1849 C1875 0.950 . S
H1850 C1876 0.950 . S
H1851 C1878 0.950 . S
H1852 C1881 0.950 . S
H1853 C1882 0.950 . S
H1854 C1884 0.950 . S
H1855 C1885 0.950 . S
C1856 H1838 0.951 . S
C1856 C1857 1.366 . S
C1856 C1858 1.388 . S
C1857 C1856 1.366 . S
C1857 C1861 1.385 . S
C1858 H1839 0.951 . S
C1858 C1856 1.388 . S
C1858 C1859 1.366 . S
C1859 C1858 1.366 . S
C1859 C1860 1.414 . S
C1859 C1862 1.499 . S
C1860 H1840 0.950 . S
C1860 C1859 1.414 . S
C1860 C1861 1.374 . S
C1861 H1841 0.950 . S
C1861 C1857 1.385 . S
C1861 C1860 1.374 . S
C1862 C1859 1.499 . S
C1862 C1863 1.373 . S
C1862 C1864 1.389 . S
C1863 H1842 0.950 . S
C1863 C1862 1.373 . S
C1863 C1879 1.377 . S
C1864 C1862 1.389 . S
C1864 C1865 1.524 . S
C1864 C1878 1.377 . S
C1865 C1864 1.524 . S
C1865 C1866 1.397 . S
C1865 C1870 1.363 . S
C1866 H1843 0.950 . S
C1866 C1865 1.397 . S
C1866 C1867 1.334 . S
C1867 H1844 0.950 . S
C1867 C1866 1.334 . S
C1867 C1868 1.287 . S
C1868 C1867 1.287 . S
C1868 C1869 1.524 . S
C1868 H1887 0.913 . S
C1869 H1845 0.950 . S
C1869 C1868 1.524 . S
C1869 C1870 1.415 . S
C1870 H1846 0.950 . S
C1870 C1865 1.363 . S
C1870 C1869 1.415 . S
C1871 H1847 0.951 . S
C1871 C1872 1.366 . S
C1871 C1873 1.388 . S
C1872 C1871 1.366 . S
C1872 C1876 1.385 . S
C1873 H1848 0.951 . S
C1873 C1871 1.388 . S
C1873 C1874 1.366 . S
C1874 C1873 1.366 . S
C1874 C1875 1.414 . S
C1874 C1877 1.499 . S
C1875 H1849 0.950 . S
C1875 C1874 1.414 . S
C1875 C1876 1.374 . S
C1876 H1850 0.950 . S
C1876 C1872 1.385 . S
C1876 C1875 1.374 . S
C1877 C1874 1.499 . S
C1877 C1878 1.373 . S
C1877 C1879 1.389 . S
C1878 H1851 0.950 . S
C1878 C1864 1.377 . S
C1878 C1877 1.373 . S
C1879 C1863 1.377 . S
C1879 C1877 1.389 . S
C1879 C1880 1.524 . S
C1880 C1879 1.524 . S
C1880 C1881 1.397 . S
C1880 C1885 1.363 . S
C1881 H1852 0.950 . S
C1881 C1880 1.397 . S
C1881 C1882 1.334 . S
C1882 H1853 0.950 . S
C1882 C1881 1.334 . S
C1882 C1883 1.287 . S
C1883 C1882 1.287 . S
C1883 C1884 1.524 . S
C1883 H1886 0.999 . S
C1884 H1854 0.950 . S
C1884 C1883 1.524 . S
C1884 C1885 1.415 . S
C1885 H1855 0.950 . S
C1885 C1880 1.363 . S
C1885 C1884 1.415 . S
H1886 C1883 0.999 . S
H1887 C1868 0.913 . S
H1888 C1906 0.951 . S
H1889 C1908 0.951 . S
H1890 C1910 0.950 . S
H1891 C1911 0.950 . S
H1892 C1913 0.950 . S
H1893 C1916 0.950 . S
H1894 C1917 0.950 . S
H1895 C1919 0.950 . S
H1896 C1920 0.950 . S
H1897 C1921 0.951 . S
H1898 C1923 0.951 . S
H1899 C1925 0.950 . S
H1900 C1926 0.950 . S
H1901 C1928 0.950 . S
H1902 C1931 0.950 . S
H1903 C1932 0.950 . S
H1904 C1934 0.950 . S
H1905 C1935 0.950 . S
C1906 H1888 0.951 . S
C1906 C1907 1.366 . S
C1906 C1908 1.388 . S
C1907 C1906 1.366 . S
C1907 C1911 1.385 . S
C1908 H1889 0.951 . S
C1908 C1906 1.388 . S
C1908 C1909 1.366 . S
C1909 C1908 1.366 . S
C1909 C1910 1.414 . S
C1909 C1912 1.499 . S
C1910 H1890 0.950 . S
C1910 C1909 1.414 . S
C1910 C1911 1.374 . S
C1911 H1891 0.950 . S
C1911 C1907 1.385 . S
C1911 C1910 1.374 . S
C1912 C1909 1.499 . S
C1912 C1913 1.373 . S
C1912 C1914 1.389 . S
C1913 H1892 0.950 . S
C1913 C1912 1.373 . S
C1913 C1929 1.377 . S
C1914 C1912 1.389 . S
C1914 C1915 1.524 . S
C1914 C1928 1.377 . S
C1915 C1914 1.524 . S
C1915 C1916 1.397 . S
C1915 C1920 1.363 . S
C1916 H1893 0.950 . S
C1916 C1915 1.397 . S
C1916 C1917 1.334 . S
C1917 H1894 0.950 . S
C1917 C1916 1.334 . S
C1917 C1918 1.287 . S
C1918 C1917 1.287 . S
C1918 C1919 1.524 . S
C1918 H1937 0.913 . S
C1919 H1895 0.950 . S
C1919 C1918 1.524 . S
C1919 C1920 1.415 . S
C1920 H1896 0.950 . S
C1920 C1915 1.363 . S
C1920 C1919 1.415 . S
C1921 H1897 0.951 . S
C1921 C1922 1.366 . S
C1921 C1923 1.388 . S
C1922 C1921 1.366 . S
C1922 C1926 1.385 . S
C1923 H1898 0.951 . S
C1923 C1921 1.388 . S
C1923 C1924 1.366 . S
C1924 C1923 1.366 . S
C1924 C1925 1.414 . S
C1924 C1927 1.499 . S
C1925 H1899 0.950 . S
C1925 C1924 1.414 . S
C1925 C1926 1.374 . S
C1926 H1900 0.950 . S
C1926 C1922 1.385 . S
C1926 C1925 1.374 . S
C1927 C1924 1.499 . S
C1927 C1928 1.373 . S
C1927 C1929 1.389 . S
C1928 H1901 0.950 . S
C1928 C1914 1.377 . S
C1928 C1927 1.373 . S
C1929 C1913 1.377 . S
C1929 C1927 1.389 . S
C1929 C1930 1.524 . S
C1930 C1929 1.524 . S
C1930 C1931 1.397 . S
C1930 C1935 1.363 . S
C1931 H1902 0.950 . S
C1931 C1930 1.397 . S
C1931 C1932 1.334 . S
C1932 H1903 0.950 . S
C1932 C1931 1.334 . S
C1932 C1933 1.287 . S
C1933 C1932 1.287 . S
C1933 C1934 1.524 . S
C1933 H1936 0.999 . S
C1934 H1904 0.950 . S
C1934 C1933 1.524 . S
C1934 C1935 1.415 . S
C1935 H1905 0.950 . S
C1935 C1930 1.363 . S
C1935 C1934 1.415 . S
H1936 C1933 0.999 . S
H1937 C1918 0.913 . S
H1938 C1956 0.951 . S
H1939 C1958 0.951 . S
H1940 C1960 0.950 . S
H1941 C1961 0.950 . S
H1942 C1963 0.950 . S
H1943 C1966 0.950 . S
H1944 C1967 0.950 . S
H1945 C1969 0.950 . S
H1946 C1970 0.950 . S
H1947 C1971 0.951 . S
H1948 C1973 0.951 . S
H1949 C1975 0.950 . S
H1950 C1976 0.950 . S
H1951 C1978 0.950 . S
H1952 C1981 0.950 . S
H1953 C1982 0.950 . S
H1954 C1984 0.950 . S
H1955 C1985 0.950 . S
C1956 H1938 0.951 . S
C1956 C1957 1.366 . S
C1956 C1958 1.388 . S
C1957 C1956 1.366 . S
C1957 C1961 1.385 . S
C1958 H1939 0.951 . S
C1958 C1956 1.388 . S
C1958 C1959 1.366 . S
C1959 C1958 1.366 . S
C1959 C1960 1.414 . S
C1959 C1962 1.499 . S
C1960 H1940 0.950 . S
C1960 C1959 1.414 . S
C1960 C1961 1.374 . S
C1961 H1941 0.950 . S
C1961 C1957 1.385 . S
C1961 C1960 1.374 . S
C1962 C1959 1.499 . S
C1962 C1963 1.373 . S
C1962 C1964 1.389 . S
C1963 H1942 0.950 . S
C1963 C1962 1.373 . S
C1963 C1979 1.377 . S
C1964 C1962 1.389 . S
C1964 C1965 1.524 . S
C1964 C1978 1.377 . S
C1965 C1964 1.524 . S
C1965 C1966 1.397 . S
C1965 C1970 1.363 . S
C1966 H1943 0.950 . S
C1966 C1965 1.397 . S
C1966 C1967 1.334 . S
C1967 H1944 0.950 . S
C1967 C1966 1.334 . S
C1967 C1968 1.287 . S
C1968 C1967 1.287 . S
C1968 C1969 1.524 . S
C1968 H1987 0.913 . S
C1969 H1945 0.950 . S
C1969 C1968 1.524 . S
C1969 C1970 1.415 . S
C1970 H1946 0.950 . S
C1970 C1965 1.363 . S
C1970 C1969 1.415 . S
C1971 H1947 0.951 . S
C1971 C1972 1.366 . S
C1971 C1973 1.388 . S
C1972 C1971 1.366 . S
C1972 C1976 1.385 . S
C1973 H1948 0.951 . S
C1973 C1971 1.388 . S
C1973 C1974 1.366 . S
C1974 C1973 1.366 . S
C1974 C1975 1.414 . S
C1974 C1977 1.499 . S
C1975 H1949 0.950 . S
C1975 C1974 1.414 . S
C1975 C1976 1.374 . S
C1976 H1950 0.950 . S
C1976 C1972 1.385 . S
C1976 C1975 1.374 . S
C1977 C1974 1.499 . S
C1977 C1978 1.373 . S
C1977 C1979 1.389 . S
C1978 H1951 0.950 . S
C1978 C1964 1.377 . S
C1978 C1977 1.373 . S
C1979 C1963 1.377 . S
C1979 C1977 1.389 . S
C1979 C1980 1.524 . S
C1980 C1979 1.524 . S
C1980 C1981 1.397 . S
C1980 C1985 1.363 . S
C1981 H1952 0.950 . S
C1981 C1980 1.397 . S
C1981 C1982 1.334 . S
C1982 H1953 0.950 . S
C1982 C1981 1.334 . S
C1982 C1983 1.287 . S
C1983 C1982 1.287 . S
C1983 C1984 1.524 . S
C1983 H1986 0.999 . S
C1984 H1954 0.950 . S
C1984 C1983 1.524 . S
C1984 C1985 1.415 . S
C1985 H1955 0.950 . S
C1985 C1980 1.363 . S
C1985 C1984 1.415 . S
H1986 C1983 0.999 . S
H1987 C1968 0.913 . S
H1988 C2006 0.951 . S
H1989 C2008 0.951 . S
H1990 C2010 0.950 . S
H1991 C2011 0.950 . S
H1992 C2013 0.950 . S
H1993 C2016 0.950 . S
H1994 C2017 0.950 . S
H1995 C2019 0.950 . S
H1996 C2020 0.950 . S
H1997 C2021 0.951 . S
H1998 C2023 0.951 . S
H1999 C2025 0.950 . S
H2000 C2026 0.950 . S
H2001 C2028 0.950 . S
H2002 C2031 0.950 . S
H2003 C2032 0.950 . S
H2004 C2034 0.950 . S
H2005 C2035 0.950 . S
C2006 H1988 0.951 . S
C2006 C2007 1.366 . S
C2006 C2008 1.388 . S
C2007 C2006 1.366 . S
C2007 C2011 1.385 . S
C2008 H1989 0.951 . S
C2008 C2006 1.388 . S
C2008 C2009 1.366 . S
C2009 C2008 1.366 . S
C2009 C2010 1.414 . S
C2009 C2012 1.499 . S
C2010 H1990 0.950 . S
C2010 C2009 1.414 . S
C2010 C2011 1.374 . S
C2011 H1991 0.950 . S
C2011 C2007 1.385 . S
C2011 C2010 1.374 . S
C2012 C2009 1.499 . S
C2012 C2013 1.373 . S
C2012 C2014 1.389 . S
C2013 H1992 0.950 . S
C2013 C2012 1.373 . S
C2013 C2029 1.377 . S
C2014 C2012 1.389 . S
C2014 C2015 1.524 . S
C2014 C2028 1.377 . S
C2015 C2014 1.524 . S
C2015 C2016 1.397 . S
C2015 C2020 1.363 . S
C2016 H1993 0.950 . S
C2016 C2015 1.397 . S
C2016 C2017 1.334 . S
C2017 H1994 0.950 . S
C2017 C2016 1.334 . S
C2017 C2018 1.287 . S
C2018 C2017 1.287 . S
C2018 C2019 1.524 . S
C2018 H2037 0.913 . S
C2019 H1995 0.950 . S
C2019 C2018 1.524 . S
C2019 C2020 1.415 . S
C2020 H1996 0.950 . S
C2020 C2015 1.363 . S
C2020 C2019 1.415 . S
C2021 H1997 0.951 . S
C2021 C2022 1.366 . S
C2021 C2023 1.388 . S
C2022 C2021 1.366 . S
C2022 C2026 1.385 . S
C2023 H1998 0.951 . S
C2023 C2021 1.388 . S
C2023 C2024 1.366 . S
C2024 C2023 1.366 . S
C2024 C2025 1.414 . S
C2024 C2027 1.499 . S
C2025 H1999 0.950 . S
C2025 C2024 1.414 . S
C2025 C2026 1.374 . S
C2026 H2000 0.950 . S
C2026 C2022 1.385 . S
C2026 C2025 1.374 . S
C2027 C2024 1.499 . S
C2027 C2028 1.373 . S
C2027 C2029 1.389 . S
C2028 H2001 0.950 . S
C2028 C2014 1.377 . S
C2028 C2027 1.373 . S
C2029 C2013 1.377 . S
C2029 C2027 1.389 . S
C2029 C2030 1.524 . S
C2030 C2029 1.524 . S
C2030 C2031 1.397 . S
C2030 C2035 1.363 . S
C2031 H2002 0.950 . S
C2031 C2030 1.397 . S
C2031 C2032 1.334 . S
C2032 H2003 0.950 . S
C2032 C2031 1.334 . S
C2032 C2033 1.287 . S
C2033 C2032 1.287 . S
C2033 C2034 1.524 . S
C2033 H2036 0.999 . S
C2034 H2004 0.950 . S
C2034 C2033 1.524 . S
C2034 C2035 1.415 . S
C2035 H2005 0.950 . S
C2035 C2030 1.363 . S
C2035 C2034 1.415 . S
H2036 C2033 0.999 . S
H2037 C2018 0.913 . S
H2038 C2056 0.951 . S
H2039 C2058 0.951 . S
H2040 C2060 0.950 . S
H2041 C2061 0.950 . S
H2042 C2063 0.950 . S
H2043 C2066 0.950 . S
H2044 C2067 0.950 . S
H2045 C2069 0.950 . S
H2046 C2070 0.950 . S
H2047 C2071 0.951 . S
H2048 C2073 0.951 . S
H2049 C2075 0.950 . S
H2050 C2076 0.950 . S
H2051 C2078 0.950 . S
H2052 C2081 0.950 . S
H2053 C2082 0.950 . S
H2054 C2084 0.950 . S
H2055 C2085 0.950 . S
C2056 H2038 0.951 . S
C2056 C2057 1.366 . S
C2056 C2058 1.388 . S
C2057 C2056 1.366 . S
C2057 C2061 1.385 . S
C2058 H2039 0.951 . S
C2058 C2056 1.388 . S
C2058 C2059 1.366 . S
C2059 C2058 1.366 . S
C2059 C2060 1.414 . S
C2059 C2062 1.499 . S
C2060 H2040 0.950 . S
C2060 C2059 1.414 . S
C2060 C2061 1.374 . S
C2061 H2041 0.950 . S
C2061 C2057 1.385 . S
C2061 C2060 1.374 . S
C2062 C2059 1.499 . S
C2062 C2063 1.373 . S
C2062 C2064 1.389 . S
C2063 H2042 0.950 . S
C2063 C2062 1.373 . S
C2063 C2079 1.377 . S
C2064 C2062 1.389 . S
C2064 C2065 1.524 . S
C2064 C2078 1.377 . S
C2065 C2064 1.524 . S
C2065 C2066 1.397 . S
C2065 C2070 1.363 . S
C2066 H2043 0.950 . S
C2066 C2065 1.397 . S
C2066 C2067 1.334 . S
C2067 H2044 0.950 . S
C2067 C2066 1.334 . S
C2067 C2068 1.287 . S
C2068 C2067 1.287 . S
C2068 C2069 1.524 . S
C2068 H2087 0.913 . S
C2069 H2045 0.950 . S
C2069 C2068 1.524 . S
C2069 C2070 1.415 . S
C2070 H2046 0.950 . S
C2070 C2065 1.363 . S
C2070 C2069 1.415 . S
C2071 H2047 0.951 . S
C2071 C2072 1.366 . S
C2071 C2073 1.388 . S
C2072 C2071 1.366 . S
C2072 C2076 1.385 . S
C2073 H2048 0.951 . S
C2073 C2071 1.388 . S
C2073 C2074 1.366 . S
C2074 C2073 1.366 . S
C2074 C2075 1.414 . S
C2074 C2077 1.499 . S
C2075 H2049 0.950 . S
C2075 C2074 1.414 . S
C2075 C2076 1.374 . S
C2076 H2050 0.950 . S
C2076 C2072 1.385 . S
C2076 C2075 1.374 . S
C2077 C2074 1.499 . S
C2077 C2078 1.373 . S
C2077 C2079 1.389 . S
C2078 H2051 0.950 . S
C2078 C2064 1.377 . S
C2078 C2077 1.373 . S
C2079 C2063 1.377 . S
C2079 C2077 1.389 . S
C2079 C2080 1.524 . S
C2080 C2079 1.524 . S
C2080 C2081 1.397 . S
C2080 C2085 1.363 . S
C2081 H2052 0.950 . S
C2081 C2080 1.397 . S
C2081 C2082 1.334 . S
C2082 H2053 0.950 . S
C2082 C2081 1.334 . S
C2082 C2083 1.287 . S
C2083 C2082 1.287 . S
C2083 C2084 1.524 . S
C2083 H2086 0.999 . S
C2084 H2054 0.950 . S
C2084 C2083 1.524 . S
C2084 C2085 1.415 . S
C2085 H2055 0.950 . S
C2085 C2080 1.363 . S
C2085 C2084 1.415 . S
H2086 C2083 0.999 . S
H2087 C2068 0.913 . S
H2088 C2106 0.951 . S
H2089 C2108 0.951 . S
H2090 C2110 0.950 . S
H2091 C2111 0.950 . S
H2092 C2113 0.950 . S
H2093 C2116 0.950 . S
H2094 C2117 0.950 . S
H2095 C2119 0.950 . S
H2096 C2120 0.950 . S
H2097 C2121 0.951 . S
H2098 C2123 0.951 . S
H2099 C2125 0.950 . S
H2100 C2126 0.950 . S
H2101 C2128 0.950 . S
H2102 C2131 0.950 . S
H2103 C2132 0.950 . S
H2104 C2134 0.950 . S
H2105 C2135 0.950 . S
C2106 H2088 0.951 . S
C2106 C2107 1.366 . S
C2106 C2108 1.388 . S
C2107 C2106 1.366 . S
C2107 C2111 1.385 . S
C2108 H2089 0.951 . S
C2108 C2106 1.388 . S
C2108 C2109 1.366 . S
C2109 C2108 1.366 . S
C2109 C2110 1.414 . S
C2109 C2112 1.499 . S
C2110 H2090 0.950 . S
C2110 C2109 1.414 . S
C2110 C2111 1.374 . S
C2111 H2091 0.950 . S
C2111 C2107 1.385 . S
C2111 C2110 1.374 . S
C2112 C2109 1.499 . S
C2112 C2113 1.373 . S
C2112 C2114 1.389 . S
C2113 H2092 0.950 . S
C2113 C2112 1.373 . S
C2113 C2129 1.377 . S
C2114 C2112 1.389 . S
C2114 C2115 1.524 . S
C2114 C2128 1.377 . S
C2115 C2114 1.524 . S
C2115 C2116 1.397 . S
C2115 C2120 1.363 . S
C2116 H2093 0.950 . S
C2116 C2115 1.397 . S
C2116 C2117 1.334 . S
C2117 H2094 0.950 . S
C2117 C2116 1.334 . S
C2117 C2118 1.287 . S
C2118 C2117 1.287 . S
C2118 C2119 1.524 . S
C2118 H2137 0.913 . S
C2119 H2095 0.950 . S
C2119 C2118 1.524 . S
C2119 C2120 1.415 . S
C2120 H2096 0.950 . S
C2120 C2115 1.363 . S
C2120 C2119 1.415 . S
C2121 H2097 0.951 . S
C2121 C2122 1.366 . S
C2121 C2123 1.388 . S
C2122 C2121 1.366 . S
C2122 C2126 1.385 . S
C2123 H2098 0.951 . S
C2123 C2121 1.388 . S
C2123 C2124 1.366 . S
C2124 C2123 1.366 . S
C2124 C2125 1.414 . S
C2124 C2127 1.499 . S
C2125 H2099 0.950 . S
C2125 C2124 1.414 . S
C2125 C2126 1.374 . S
C2126 H2100 0.950 . S
C2126 C2122 1.385 . S
C2126 C2125 1.374 . S
C2127 C2124 1.499 . S
C2127 C2128 1.373 . S
C2127 C2129 1.389 . S
C2128 H2101 0.950 . S
C2128 C2114 1.377 . S
C2128 C2127 1.373 . S
C2129 C2113 1.377 . S
C2129 C2127 1.389 . S
C2129 C2130 1.524 . S
C2130 C2129 1.524 . S
C2130 C2131 1.397 . S
C2130 C2135 1.363 . S
C2131 H2102 0.950 . S
C2131 C2130 1.397 . S
C2131 C2132 1.334 . S
C2132 H2103 0.950 . S
C2132 C2131 1.334 . S
C2132 C2133 1.287 . S
C2133 C2132 1.287 . S
C2133 C2134 1.524 . S
C2133 H2136 0.999 . S
C2134 H2104 0.950 . S
C2134 C2133 1.524 . S
C2134 C2135 1.415 . S
C2135 H2105 0.950 . S
C2135 C2130 1.363 . S
C2135 C2134 1.415 . S
H2136 C2133 0.999 . S
H2137 C2118 0.913 . S
H2138 C2156 0.951 . S
H2139 C2158 0.951 . S
H2140 C2160 0.950 . S
H2141 C2161 0.950 . S
H2142 C2163 0.950 . S
H2143 C2166 0.950 . S
H2144 C2167 0.950 . S
H2145 C2169 0.950 . S
H2146 C2170 0.950 . S
H2147 C2171 0.951 . S
H2148 C2173 0.951 . S
H2149 C2175 0.950 . S
H2150 C2176 0.950 . S
H2151 C2178 0.950 . S
H2152 C2181 0.950 . S
H2153 C2182 0.950 . S
H2154 C2184 0.950 . S
H2155 C2185 0.950 . S
C2156 H2138 0.951 . S
C2156 C2157 1.366 . S
C2156 C2158 1.388 . S
C2157 C2156 1.366 . S
C2157 C2161 1.385 . S
C2158 H2139 0.951 . S
C2158 C2156 1.388 . S
C2158 C2159 1.366 . S
C2159 C2158 1.366 . S
C2159 C2160 1.414 . S
C2159 C2162 1.499 . S
C2160 H2140 0.950 . S
C2160 C2159 1.414 . S
C2160 C2161 1.374 . S
C2161 H2141 0.950 . S
C2161 C2157 1.385 . S
C2161 C2160 1.374 . S
C2162 C2159 1.499 . S
C2162 C2163 1.373 . S
C2162 C2164 1.389 . S
C2163 H2142 0.950 . S
C2163 C2162 1.373 . S
C2163 C2179 1.377 . S
C2164 C2162 1.389 . S
C2164 C2165 1.524 . S
C2164 C2178 1.377 . S
C2165 C2164 1.524 . S
C2165 C2166 1.397 . S
C2165 C2170 1.363 . S
C2166 H2143 0.950 . S
C2166 C2165 1.397 . S
C2166 C2167 1.334 . S
C2167 H2144 0.950 . S
C2167 C2166 1.334 . S
C2167 C2168 1.287 . S
C2168 C2167 1.287 . S
C2168 C2169 1.524 . S
C2168 H2187 0.913 . S
C2169 H2145 0.950 . S
C2169 C2168 1.524 . S
C2169 C2170 1.415 . S
C2170 H2146 0.950 . S
C2170 C2165 1.363 . S
C2170 C2169 1.415 . S
C2171 H2147 0.951 . S
C2171 C2172 1.366 . S
C2171 C2173 1.388 . S
C2172 C2171 1.366 . S
C2172 C2176 1.385 . S
C2173 H2148 0.951 . S
C2173 C2171 1.388 . S
C2173 C2174 1.366 . S
C2174 C2173 1.366 . S
C2174 C2175 1.414 . S
C2174 C2177 1.499 . S
C2175 H2149 0.950 . S
C2175 C2174 1.414 . S
C2175 C2176 1.374 . S
C2176 H2150 0.950 . S
C2176 C2172 1.385 . S
C2176 C2175 1.374 . S
C2177 C2174 1.499 . S
C2177 C2178 1.373 . S
C2177 C2179 1.389 . S
C2178 H2151 0.950 . S
C2178 C2164 1.377 . S
C2178 C2177 1.373 . S
C2179 C2163 1.377 . S
C2179 C2177 1.389 . S
C2179 C2180 1.524 . S
C2180 C2179 1.524 . S
C2180 C2181 1.397 . S
C2180 C2185 1.363 . S
C2181 H2152 0.950 . S
C2181 C2180 1.397 . S
C2181 C2182 1.334 . S
C2182 H2153 0.950 . S
C2182 C2181 1.334 . S
C2182 C2183 1.287 . S
C2183 C2182 1.287 . S
C2183 C2184 1.524 . S
C2183 H2186 0.999 . S
C2184 H2154 0.950 . S
C2184 C2183 1.524 . S
C2184 C2185 1.415 . S
C2185 H2155 0.950 . S
C2185 C2180 1.363 . S
C2185 C2184 1.415 . S
H2186 C2183 0.999 . S
H2187 C2168 0.913 . S
H2188 C2206 0.951 . S
H2189 C2208 0.951 . S
H2190 C2210 0.950 . S
H2191 C2211 0.950 . S
H2192 C2213 0.950 . S
H2193 C2216 0.950 . S
H2194 C2217 0.950 . S
H2195 C2219 0.950 . S
H2196 C2220 0.950 . S
H2197 C2221 0.951 . S
H2198 C2223 0.951 . S
H2199 C2225 0.950 . S
H2200 C2226 0.950 . S
H2201 C2228 0.950 . S
H2202 C2231 0.950 . S
H2203 C2232 0.950 . S
H2204 C2234 0.950 . S
H2205 C2235 0.950 . S
C2206 H2188 0.951 . S
C2206 C2207 1.366 . S
C2206 C2208 1.388 . S
C2207 C2206 1.366 . S
C2207 C2211 1.385 . S
C2208 H2189 0.951 . S
C2208 C2206 1.388 . S
C2208 C2209 1.366 . S
C2209 C2208 1.366 . S
C2209 C2210 1.414 . S
C2209 C2212 1.499 . S
C2210 H2190 0.950 . S
C2210 C2209 1.414 . S
C2210 C2211 1.374 . S
C2211 H2191 0.950 . S
C2211 C2207 1.385 . S
C2211 C2210 1.374 . S
C2212 C2209 1.499 . S
C2212 C2213 1.373 . S
C2212 C2214 1.389 . S
C2213 H2192 0.950 . S
C2213 C2212 1.373 . S
C2213 C2229 1.377 . S
C2214 C2212 1.389 . S
C2214 C2215 1.524 . S
C2214 C2228 1.377 . S
C2215 C2214 1.524 . S
C2215 C2216 1.397 . S
C2215 C2220 1.363 . S
C2216 H2193 0.950 . S
C2216 C2215 1.397 . S
C2216 C2217 1.334 . S
C2217 H2194 0.950 . S
C2217 C2216 1.334 . S
C2217 C2218 1.287 . S
C2218 C2217 1.287 . S
C2218 C2219 1.524 . S
C2218 H2237 0.913 . S
C2219 H2195 0.950 . S
C2219 C2218 1.524 . S
C2219 C2220 1.415 . S
C2220 H2196 0.950 . S
C2220 C2215 1.363 . S
C2220 C2219 1.415 . S
C2221 H2197 0.951 . S
C2221 C2222 1.366 . S
C2221 C2223 1.388 . S
C2222 C2221 1.366 . S
C2222 C2226 1.385 . S
C2223 H2198 0.951 . S
C2223 C2221 1.388 . S
C2223 C2224 1.366 . S
C2224 C2223 1.366 . S
C2224 C2225 1.414 . S
C2224 C2227 1.499 . S
C2225 H2199 0.950 . S
C2225 C2224 1.414 . S
C2225 C2226 1.374 . S
C2226 H2200 0.950 . S
C2226 C2222 1.385 . S
C2226 C2225 1.374 . S
C2227 C2224 1.499 . S
C2227 C2228 1.373 . S
C2227 C2229 1.389 . S
C2228 H2201 0.950 . S
C2228 C2214 1.377 . S
C2228 C2227 1.373 . S
C2229 C2213 1.377 . S
C2229 C2227 1.389 . S
C2229 C2230 1.524 . S
C2230 C2229 1.524 . S
C2230 C2231 1.397 . S
C2230 C2235 1.363 . S
C2231 H2202 0.950 . S
C2231 C2230 1.397 . S
C2231 C2232 1.334 . S
C2232 H2203 0.950 . S
C2232 C2231 1.334 . S
C2232 C2233 1.287 . S
C2233 C2232 1.287 . S
C2233 C2234 1.524 . S
C2233 H2236 0.999 . S
C2234 H2204 0.950 . S
C2234 C2233 1.524 . S
C2234 C2235 1.415 . S
C2235 H2205 0.950 . S
C2235 C2230 1.363 . S
C2235 C2234 1.415 . S
H2236 C2233 0.999 . S
H2237 C2218 0.913 . S
H2238 C2256 0.951 . S
H2239 C2258 0.951 . S
H2240 C2260 0.950 . S
H2241 C2261 0.950 . S
H2242 C2263 0.950 . S
H2243 C2266 0.950 . S
H2244 C2267 0.950 . S
H2245 C2269 0.950 . S
H2246 C2270 0.950 . S
H2247 C2271 0.951 . S
H2248 C2273 0.951 . S
H2249 C2275 0.950 . S
H2250 C2276 0.950 . S
H2251 C2278 0.950 . S
H2252 C2281 0.950 . S
H2253 C2282 0.950 . S
H2254 C2284 0.950 . S
H2255 C2285 0.950 . S
C2256 H2238 0.951 . S
C2256 C2257 1.366 . S
C2256 C2258 1.388 . S
C2257 C2256 1.366 . S
C2257 C2261 1.385 . S
C2258 H2239 0.951 . S
C2258 C2256 1.388 . S
C2258 C2259 1.366 . S
C2259 C2258 1.366 . S
C2259 C2260 1.414 . S
C2259 C2262 1.499 . S
C2260 H2240 0.950 . S
C2260 C2259 1.414 . S
C2260 C2261 1.374 . S
C2261 H2241 0.950 . S
C2261 C2257 1.385 . S
C2261 C2260 1.374 . S
C2262 C2259 1.499 . S
C2262 C2263 1.373 . S
C2262 C2264 1.389 . S
C2263 H2242 0.950 . S
C2263 C2262 1.373 . S
C2263 C2279 1.377 . S
C2264 C2262 1.389 . S
C2264 C2265 1.524 . S
C2264 C2278 1.377 . S
C2265 C2264 1.524 . S
C2265 C2266 1.397 . S
C2265 C2270 1.363 . S
C2266 H2243 0.950 . S
C2266 C2265 1.397 . S
C2266 C2267 1.334 . S
C2267 H2244 0.950 . S
C2267 C2266 1.334 . S
C2267 C2268 1.287 . S
C2268 C2267 1.287 . S
C2268 C2269 1.524 . S
C2268 H2287 0.913 . S
C2269 H2245 0.950 . S
C2269 C2268 1.524 . S
C2269 C2270 1.415 . S
C2270 H2246 0.950 . S
C2270 C2265 1.363 . S
C2270 C2269 1.415 . S
C2271 H2247 0.951 . S
C2271 C2272 1.366 . S
C2271 C2273 1.388 . S
C2272 C2271 1.366 . S
C2272 C2276 1.385 . S
C2273 H2248 0.951 . S
C2273 C2271 1.388 . S
C2273 C2274 1.366 . S
C2274 C2273 1.366 . S
C2274 C2275 1.414 . S
C2274 C2277 1.499 . S
C2275 H2249 0.950 . S
C2275 C2274 1.414 . S
C2275 C2276 1.374 . S
C2276 H2250 0.950 . S
C2276 C2272 1.385 . S
C2276 C2275 1.374 . S
C2277 C2274 1.499 . S
C2277 C2278 1.373 . S
C2277 C2279 1.389 . S
C2278 H2251 0.950 . S
C2278 C2264 1.377 . S
C2278 C2277 1.373 . S
C2279 C2263 1.377 . S
C2279 C2277 1.389 . S
C2279 C2280 1.524 . S
C2280 C2279 1.524 . S
C2280 C2281 1.397 . S
C2280 C2285 1.363 . S
C2281 H2252 0.950 . S
C2281 C2280 1.397 . S
C2281 C2282 1.334 . S
C2282 H2253 0.950 . S
C2282 C2281 1.334 . S
C2282 C2283 1.287 . S
C2283 C2282 1.287 . S
C2283 C2284 1.524 . S
C2283 H2286 0.999 . S
C2284 H2254 0.950 . S
C2284 C2283 1.524 . S
C2284 C2285 1.415 . S
C2285 H2255 0.950 . S
C2285 C2280 1.363 . S
C2285 C2284 1.415 . S
H2286 C2283 0.999 . S
H2287 C2268 0.913 . S
H2288 C2306 0.951 . S
H2289 C2308 0.951 . S
H2290 C2310 0.950 . S
H2291 C2311 0.950 . S
H2292 C2313 0.950 . S
H2293 C2316 0.950 . S
H2294 C2317 0.950 . S
H2295 C2319 0.950 . S
H2296 C2320 0.950 . S
H2297 C2321 0.951 . S
H2298 C2323 0.951 . S
H2299 C2325 0.950 . S
H2300 C2326 0.950 . S
H2301 C2328 0.950 . S
H2302 C2331 0.950 . S
H2303 C2332 0.950 . S
H2304 C2334 0.950 . S
H2305 C2335 0.950 . S
C2306 H2288 0.951 . S
C2306 C2307 1.366 . S
C2306 C2308 1.388 . S
C2307 C2306 1.366 . S
C2307 C2311 1.385 . S
C2308 H2289 0.951 . S
C2308 C2306 1.388 . S
C2308 C2309 1.366 . S
C2309 C2308 1.366 . S
C2309 C2310 1.414 . S
C2309 C2312 1.499 . S
C2310 H2290 0.950 . S
C2310 C2309 1.414 . S
C2310 C2311 1.374 . S
C2311 H2291 0.950 . S
C2311 C2307 1.385 . S
C2311 C2310 1.374 . S
C2312 C2309 1.499 . S
C2312 C2313 1.373 . S
C2312 C2314 1.389 . S
C2313 H2292 0.950 . S
C2313 C2312 1.373 . S
C2313 C2329 1.377 . S
C2314 C2312 1.389 . S
C2314 C2315 1.524 . S
C2314 C2328 1.377 . S
C2315 C2314 1.524 . S
C2315 C2316 1.397 . S
C2315 C2320 1.363 . S
C2316 H2293 0.950 . S
C2316 C2315 1.397 . S
C2316 C2317 1.334 . S
C2317 H2294 0.950 . S
C2317 C2316 1.334 . S
C2317 C2318 1.287 . S
C2318 C2317 1.287 . S
C2318 C2319 1.524 . S
C2318 H2337 0.913 . S
C2319 H2295 0.950 . S
C2319 C2318 1.524 . S
C2319 C2320 1.415 . S
C2320 H2296 0.950 . S
C2320 C2315 1.363 . S
C2320 C2319 1.415 . S
C2321 H2297 0.951 . S
C2321 C2322 1.366 . S
C2321 C2323 1.388 . S
C2322 C2321 1.366 . S
C2322 C2326 1.385 . S
C2323 H2298 0.951 . S
C2323 C2321 1.388 . S
C2323 C2324 1.366 . S
C2324 C2323 1.366 . S
C2324 C2325 1.414 . S
C2324 C2327 1.499 . S
C2325 H2299 0.950 . S
C2325 C2324 1.414 . S
C2325 C2326 1.374 . S
C2326 H2300 0.950 . S
C2326 C2322 1.385 . S
C2326 C2325 1.374 . S
C2327 C2324 1.499 . S
C2327 C2328 1.373 . S
C2327 C2329 1.389 . S
C2328 H2301 0.950 . S
C2328 C2314 1.377 . S
C2328 C2327 1.373 . S
C2329 C2313 1.377 . S
C2329 C2327 1.389 . S
C2329 C2330 1.524 . S
C2330 C2329 1.524 . S
C2330 C2331 1.397 . S
C2330 C2335 1.363 . S
C2331 H2302 0.950 . S
C2331 C2330 1.397 . S
C2331 C2332 1.334 . S
C2332 H2303 0.950 . S
C2332 C2331 1.334 . S
C2332 C2333 1.287 . S
C2333 C2332 1.287 . S
C2333 C2334 1.524 . S
C2333 H2336 0.999 . S
C2334 H2304 0.950 . S
C2334 C2333 1.524 . S
C2334 C2335 1.415 . S
C2335 H2305 0.950 . S
C2335 C2330 1.363 . S
C2335 C2334 1.415 . S
H2336 C2333 0.999 . S
H2337 C2318 0.913 . S
H2338 C2356 0.951 . S
H2339 C2358 0.951 . S
H2340 C2360 0.950 . S
H2341 C2361 0.950 . S
H2342 C2363 0.950 . S
H2343 C2366 0.950 . S
H2344 C2367 0.950 . S
H2345 C2369 0.950 . S
H2346 C2370 0.950 . S
H2347 C2371 0.951 . S
H2348 C2373 0.951 . S
H2349 C2375 0.950 . S
H2350 C2376 0.950 . S
H2351 C2378 0.950 . S
H2352 C2381 0.950 . S
H2353 C2382 0.950 . S
H2354 C2384 0.950 . S
H2355 C2385 0.950 . S
C2356 H2338 0.951 . S
C2356 C2357 1.366 . S
C2356 C2358 1.388 . S
C2357 C2356 1.366 . S
C2357 C2361 1.385 . S
C2358 H2339 0.951 . S
C2358 C2356 1.388 . S
C2358 C2359 1.366 . S
C2359 C2358 1.366 . S
C2359 C2360 1.414 . S
C2359 C2362 1.499 . S
C2360 H2340 0.950 . S
C2360 C2359 1.414 . S
C2360 C2361 1.374 . S
C2361 H2341 0.950 . S
C2361 C2357 1.385 . S
C2361 C2360 1.374 . S
C2362 C2359 1.499 . S
C2362 C2363 1.373 . S
C2362 C2364 1.389 . S
C2363 H2342 0.950 . S
C2363 C2362 1.373 . S
C2363 C2379 1.377 . S
C2364 C2362 1.389 . S
C2364 C2365 1.524 . S
C2364 C2378 1.377 . S
C2365 C2364 1.524 . S
C2365 C2366 1.397 . S
C2365 C2370 1.363 . S
C2366 H2343 0.950 . S
C2366 C2365 1.397 . S
C2366 C2367 1.334 . S
C2367 H2344 0.950 . S
C2367 C2366 1.334 . S
C2367 C2368 1.287 . S
C2368 C2367 1.287 . S
C2368 C2369 1.524 . S
C2368 H2387 0.913 . S
C2369 H2345 0.950 . S
C2369 C2368 1.524 . S
C2369 C2370 1.415 . S
C2370 H2346 0.950 . S
C2370 C2365 1.363 . S
C2370 C2369 1.415 . S
C2371 H2347 0.951 . S
C2371 C2372 1.366 . S
C2371 C2373 1.388 . S
C2372 C2371 1.366 . S
C2372 C2376 1.385 . S
C2373 H2348 0.951 . S
C2373 C2371 1.388 . S
C2373 C2374 1.366 . S
C2374 C2373 1.366 . S
C2374 C2375 1.414 . S
C2374 C2377 1.499 . S
C2375 H2349 0.950 . S
C2375 C2374 1.414 . S
C2375 C2376 1.374 . S
C2376 H2350 0.950 . S
C2376 C2372 1.385 . S
C2376 C2375 1.374 . S
C2377 C2374 1.499 . S
C2377 C2378 1.373 . S
C2377 C2379 1.389 . S
C2378 H2351 0.950 . S
C2378 C2364 1.377 . S
C2378 C2377 1.373 . S
C2379 C2363 1.377 . S
C2379 C2377 1.389 . S
C2379 C2380 1.524 . S
C2380 C2379 1.524 . S
C2380 C2381 1.397 . S
C2380 C2385 1.363 . S
C2381 H2352 0.950 . S
C2381 C2380 1.397 . S
C2381 C2382 1.334 . S
C2382 H2353 0.950 . S
C2382 C2381 1.334 . S
C2382 C2383 1.287 . S
C2383 C2382 1.287 . S
C2383 C2384 1.524 . S
C2383 H2386 0.999 . S
C2384 H2354 0.950 . S
C2384 C2383 1.524 . S
C2384 C2385 1.415 . S
C2385 H2355 0.950 . S
C2385 C2380 1.363 . S
C2385 C2384 1.415 . S
H2386 C2383 0.999 . S
H2387 C2368 0.913 . S
H2388 C2406 0.951 . S
H2389 C2408 0.951 . S
H2390 C2410 0.950 . S
H2391 C2411 0.950 . S
H2392 C2413 0.950 . S
H2393 C2416 0.950 . S
H2394 C2417 0.950 . S
H2395 C2419 0.950 . S
H2396 C2420 0.950 . S
H2397 C2421 0.951 . S
H2398 C2423 0.951 . S
H2399 C2425 0.950 . S
H2400 C2426 0.950 . S
H2401 C2428 0.950 . S
H2402 C2431 0.950 . S
H2403 C2432 0.950 . S
H2404 C2434 0.950 . S
H2405 C2435 0.950 . S
C2406 H2388 0.951 . S
C2406 C2407 1.366 . S
C2406 C2408 1.388 . S
C2407 C2406 1.366 . S
C2407 C2411 1.385 . S
C2408 H2389 0.951 . S
C2408 C2406 1.388 . S
C2408 C2409 1.366 . S
C2409 C2408 1.366 . S
C2409 C2410 1.414 . S
C2409 C2412 1.499 . S
C2410 H2390 0.950 . S
C2410 C2409 1.414 . S
C2410 C2411 1.374 . S
C2411 H2391 0.950 . S
C2411 C2407 1.385 . S
C2411 C2410 1.374 . S
C2412 C2409 1.499 . S
C2412 C2413 1.373 . S
C2412 C2414 1.389 . S
C2413 H2392 0.950 . S
C2413 C2412 1.373 . S
C2413 C2429 1.377 . S
C2414 C2412 1.389 . S
C2414 C2415 1.524 . S
C2414 C2428 1.377 . S
C2415 C2414 1.524 . S
C2415 C2416 1.397 . S
C2415 C2420 1.363 . S
C2416 H2393 0.950 . S
C2416 C2415 1.397 . S
C2416 C2417 1.334 . S
C2417 H2394 0.950 . S
C2417 C2416 1.334 . S
C2417 C2418 1.287 . S
C2418 C2417 1.287 . S
C2418 C2419 1.524 . S
C2418 H2437 0.913 . S
C2419 H2395 0.950 . S
C2419 C2418 1.524 . S
C2419 C2420 1.415 . S
C2420 H2396 0.950 . S
C2420 C2415 1.363 . S
C2420 C2419 1.415 . S
C2421 H2397 0.951 . S
C2421 C2422 1.366 . S
C2421 C2423 1.388 . S
C2422 C2421 1.366 . S
C2422 C2426 1.385 . S
C2423 H2398 0.951 . S
C2423 C2421 1.388 . S
C2423 C2424 1.366 . S
C2424 C2423 1.366 . S
C2424 C2425 1.414 . S
C2424 C2427 1.499 . S
C2425 H2399 0.950 . S
C2425 C2424 1.414 . S
C2425 C2426 1.374 . S
C2426 H2400 0.950 . S
C2426 C2422 1.385 . S
C2426 C2425 1.374 . S
C2427 C2424 1.499 . S
C2427 C2428 1.373 . S
C2427 C2429 1.389 . S
C2428 H2401 0.950 . S
C2428 C2414 1.377 . S
C2428 C2427 1.373 . S
C2429 C2413 1.377 . S
C2429 C2427 1.389 . S
C2429 C2430 1.524 . S
C2430 C2429 1.524 . S
C2430 C2431 1.397 . S
C2430 C2435 1.363 . S
C2431 H2402 0.950 . S
C2431 C2430 1.397 . S
C2431 C2432 1.334 . S
C2432 H2403 0.950 . S
C2432 C2431 1.334 . S
C2432 C2433 1.287 . S
C2433 C2432 1.287 . S
C2433 C2434 1.524 . S
C2433 H2436 0.999 . S
C2434 H2404 0.950 . S
C2434 C2433 1.524 . S
C2434 C2435 1.415 . S
C2435 H2405 0.950 . S
C2435 C2430 1.363 . S
C2435 C2434 1.415 . S
H2436 C2433 0.999 . S
H2437 C2418 0.913 . S
H2438 C2456 0.951 . S
H2439 C2458 0.951 . S
H2440 C2460 0.950 . S
H2441 C2461 0.950 . S
H2442 C2463 0.950 . S
H2443 C2466 0.950 . S
H2444 C2467 0.950 . S
H2445 C2469 0.950 . S
H2446 C2470 0.950 . S
H2447 C2471 0.951 . S
H2448 C2473 0.951 . S
H2449 C2475 0.950 . S
H2450 C2476 0.950 . S
H2451 C2478 0.950 . S
H2452 C2481 0.950 . S
H2453 C2482 0.950 . S
H2454 C2484 0.950 . S
H2455 C2485 0.950 . S
C2456 H2438 0.951 . S
C2456 C2457 1.366 . S
C2456 C2458 1.388 . S
C2457 C2456 1.366 . S
C2457 C2461 1.385 . S
C2458 H2439 0.951 . S
C2458 C2456 1.388 . S
C2458 C2459 1.366 . S
C2459 C2458 1.366 . S
C2459 C2460 1.414 . S
C2459 C2462 1.499 . S
C2460 H2440 0.950 . S
C2460 C2459 1.414 . S
C2460 C2461 1.374 . S
C2461 H2441 0.950 . S
C2461 C2457 1.385 . S
C2461 C2460 1.374 . S
C2462 C2459 1.499 . S
C2462 C2463 1.373 . S
C2462 C2464 1.389 . S
C2463 H2442 0.950 . S
C2463 C2462 1.373 . S
C2463 C2479 1.377 . S
C2464 C2462 1.389 . S
C2464 C2465 1.524 . S
C2464 C2478 1.377 . S
C2465 C2464 1.524 . S
C2465 C2466 1.397 . S
C2465 C2470 1.363 . S
C2466 H2443 0.950 . S
C2466 C2465 1.397 . S
C2466 C2467 1.334 . S
C2467 H2444 0.950 . S
C2467 C2466 1.334 . S
C2467 C2468 1.287 . S
C2468 C2467 1.287 . S
C2468 C2469 1.524 . S
C2468 H2487 0.913 . S
C2469 H2445 0.950 . S
C2469 C2468 1.524 . S
C2469 C2470 1.415 . S
C2470 H2446 0.950 . S
C2470 C2465 1.363 . S
C2470 C2469 1.415 . S
C2471 H2447 0.951 . S
C2471 C2472 1.366 . S
C2471 C2473 1.388 . S
C2472 C2471 1.366 . S
C2472 C2476 1.385 . S
C2473 H2448 0.951 . S
C2473 C2471 1.388 . S
C2473 C2474 1.366 . S
C2474 C2473 1.366 . S
C2474 C2475 1.414 . S
C2474 C2477 1.499 . S
C2475 H2449 0.950 . S
C2475 C2474 1.414 . S
C2475 C2476 1.374 . S
C2476 H2450 0.950 . S
C2476 C2472 1.385 . S
C2476 C2475 1.374 . S
C2477 C2474 1.499 . S
C2477 C2478 1.373 . S
C2477 C2479 1.389 . S
C2478 H2451 0.950 . S
C2478 C2464 1.377 . S
C2478 C2477 1.373 . S
C2479 C2463 1.377 . S
C2479 C2477 1.389 . S
C2479 C2480 1.524 . S
C2480 C2479 1.524 . S
C2480 C2481 1.397 . S
C2480 C2485 1.363 . S
C2481 H2452 0.950 . S
C2481 C2480 1.397 . S
C2481 C2482 1.334 . S
C2482 H2453 0.950 . S
C2482 C2481 1.334 . S
C2482 C2483 1.287 . S
C2483 C2482 1.287 . S
C2483 C2484 1.524 . S
C2483 H2486 0.999 . S
C2484 H2454 0.950 . S
C2484 C2483 1.524 . S
C2484 C2485 1.415 . S
C2485 H2455 0.950 . S
C2485 C2480 1.363 . S
C2485 C2484 1.415 . S
H2486 C2483 0.999 . S
H2487 C2468 0.913 . S
H2488 C2506 0.951 . S
H2489 C2508 0.951 . S
H2490 C2510 0.950 . S
H2491 C2511 0.950 . S
H2492 C2513 0.950 . S
H2493 C2516 0.950 . S
H2494 C2517 0.950 . S
H2495 C2519 0.950 . S
H2496 C2520 0.950 . S
H2497 C2521 0.951 . S
H2498 C2523 0.951 . S
H2499 C2525 0.950 . S
H2500 C2526 0.950 . S
H2501 C2528 0.950 . S
H2502 C2531 0.950 . S
H2503 C2532 0.950 . S
H2504 C2534 0.950 . S
H2505 C2535 0.950 . S
C2506 H2488 0.951 . S
C2506 C2507 1.366 . S
C2506 C2508 1.388 . S
C2507 C2506 1.366 . S
C2507 C2511 1.385 . S
C2508 H2489 0.951 . S
C2508 C2506 1.388 . S
C2508 C2509 1.366 . S
C2509 C2508 1.366 . S
C2509 C2510 1.414 . S
C2509 C2512 1.499 . S
C2510 H2490 0.950 . S
C2510 C2509 1.414 . S
C2510 C2511 1.374 . S
C2511 H2491 0.950 . S
C2511 C2507 1.385 . S
C2511 C2510 1.374 . S
C2512 C2509 1.499 . S
C2512 C2513 1.373 . S
C2512 C2514 1.389 . S
C2513 H2492 0.950 . S
C2513 C2512 1.373 . S
C2513 C2529 1.377 . S
C2514 C2512 1.389 . S
C2514 C2515 1.524 . S
C2514 C2528 1.377 . S
C2515 C2514 1.524 . S
C2515 C2516 1.397 . S
C2515 C2520 1.363 . S
C2516 H2493 0.950 . S
C2516 C2515 1.397 . S
C2516 C2517 1.334 . S
C2517 H2494 0.950 . S
C2517 C2516 1.334 . S
C2517 C2518 1.287 . S
C2518 C2517 1.287 . S
C2518 C2519 1.524 . S
C2518 H2537 0.913 . S
C2519 H2495 0.950 . S
C2519 C2518 1.524 . S
C2519 C2520 1.415 . S
C2520 H2496 0.950 . S
C2520 C2515 1.363 . S
C2520 C2519 1.415 . S
C2521 H2497 0.951 . S
C2521 C2522 1.366 . S
C2521 C2523 1.388 . S
C2522 C2521 1.366 . S
C2522 C2526 1.385 . S
C2523 H2498 0.951 . S
C2523 C2521 1.388 . S
C2523 C2524 1.366 . S
C2524 C2523 1.366 . S
C2524 C2525 1.414 . S
C2524 C2527 1.499 . S
C2525 H2499 0.950 . S
C2525 C2524 1.414 . S
C2525 C2526 1.374 . S
C2526 H2500 0.950 . S
C2526 C2522 1.385 . S
C2526 C2525 1.374 . S
C2527 C2524 1.499 . S
C2527 C2528 1.373 . S
C2527 C2529 1.389 . S
C2528 H2501 0.950 . S
C2528 C2514 1.377 . S
C2528 C2527 1.373 . S
C2529 C2513 1.377 . S
C2529 C2527 1.389 . S
C2529 C2530 1.524 . S
C2530 C2529 1.524 . S
C2530 C2531 1.397 . S
C2530 C2535 1.363 . S
C2531 H2502 0.950 . S
C2531 C2530 1.397 . S
C2531 C2532 1.334 . S
C2532 H2503 0.950 . S
C2532 C2531 1.334 . S
C2532 C2533 1.287 . S
C2533 C2532 1.287 . S
C2533 C2534 1.524 . S
C2533 H2536 0.999 . S
C2534 H2504 0.950 . S
C2534 C2533 1.524 . S
C2534 C2535 1.415 . S
C2535 H2505 0.950 . S
C2535 C2530 1.363 . S
C2535 C2534 1.415 . S
H2536 C2533 0.999 . S
H2537 C2518 0.913 . S
H2538 C2556 0.951 . S
H2539 C2558 0.951 . S
H2540 C2560 0.950 . S
H2541 C2561 0.950 . S
H2542 C2563 0.950 . S
H2543 C2566 0.950 . S
H2544 C2567 0.950 . S
H2545 C2569 0.950 . S
H2546 C2570 0.950 . S
H2547 C2571 0.951 . S
H2548 C2573 0.951 . S
H2549 C2575 0.950 . S
H2550 C2576 0.950 . S
H2551 C2578 0.950 . S
H2552 C2581 0.950 . S
H2553 C2582 0.950 . S
H2554 C2584 0.950 . S
H2555 C2585 0.950 . S
C2556 H2538 0.951 . S
C2556 C2557 1.366 . S
C2556 C2558 1.388 . S
C2557 C2556 1.366 . S
C2557 C2561 1.385 . S
C2558 H2539 0.951 . S
C2558 C2556 1.388 . S
C2558 C2559 1.366 . S
C2559 C2558 1.366 . S
C2559 C2560 1.414 . S
C2559 C2562 1.499 . S
C2560 H2540 0.950 . S
C2560 C2559 1.414 . S
C2560 C2561 1.374 . S
C2561 H2541 0.950 . S
C2561 C2557 1.385 . S
C2561 C2560 1.374 . S
C2562 C2559 1.499 . S
C2562 C2563 1.373 . S
C2562 C2564 1.389 . S
C2563 H2542 0.950 . S
C2563 C2562 1.373 . S
C2563 C2579 1.377 . S
C2564 C2562 1.389 . S
C2564 C2565 1.524 . S
C2564 C2578 1.377 . S
C2565 C2564 1.524 . S
C2565 C2566 1.397 . S
C2565 C2570 1.363 . S
C2566 H2543 0.950 . S
C2566 C2565 1.397 . S
C2566 C2567 1.334 . S
C2567 H2544 0.950 . S
C2567 C2566 1.334 . S
C2567 C2568 1.287 . S
C2568 C2567 1.287 . S
C2568 C2569 1.524 . S
C2568 H2587 0.913 . S
C2569 H2545 0.950 . S
C2569 C2568 1.524 . S
C2569 C2570 1.415 . S
C2570 H2546 0.950 . S
C2570 C2565 1.363 . S
C2570 C2569 1.415 . S
C2571 H2547 0.951 . S
C2571 C2572 1.366 . S
C2571 C2573 1.388 . S
C2572 C2571 1.366 . S
C2572 C2576 1.385 . S
C2573 H2548 0.951 . S
C2573 C2571 1.388 . S
C2573 C2574 1.366 . S
C2574 C2573 1.366 . S
C2574 C2575 1.414 . S
C2574 C2577 1.499 . S
C2575 H2549 0.950 . S
C2575 C2574 1.414 . S
C2575 C2576 1.374 . S
C2576 H2550 0.950 . S
C2576 C2572 1.385 . S
C2576 C2575 1.374 . S
C2577 C2574 1.499 . S
C2577 C2578 1.373 . S
C2577 C2579 1.389 . S
C2578 H2551 0.950 . S
C2578 C2564 1.377 . S
C2578 C2577 1.373 . S
C2579 C2563 1.377 . S
C2579 C2577 1.389 . S
C2579 C2580 1.524 . S
C2580 C2579 1.524 . S
C2580 C2581 1.397 . S
C2580 C2585 1.363 . S
C2581 H2552 0.950 . S
C2581 C2580 1.397 . S
C2581 C2582 1.334 . S
C2582 H2553 0.950 . S
C2582 C2581 1.334 . S
C2582 C2583 1.287 . S
C2583 C2582 1.287 . S
C2583 C2584 1.524 . S
C2583 H2586 0.999 . S
C2584 H2554 0.950 . S
C2584 C2583 1.524 . S
C2584 C2585 1.415 . S
C2585 H2555 0.950 . S
C2585 C2580 1.363 . S
C2585 C2584 1.415 . S
H2586 C2583 0.999 . S
H2587 C2568 0.913 . S
H2588 C2606 0.951 . S
H2589 C2608 0.951 . S
H2590 C2610 0.950 . S
H2591 C2611 0.950 . S
H2592 C2613 0.950 . S
H2593 C2616 0.950 . S
H2594 C2617 0.950 . S
H2595 C2619 0.950 . S
H2596 C2620 0.950 . S
H2597 C2621 0.951 . S
H2598 C2623 0.951 . S
H2599 C2625 0.950 . S
H2600 C2626 0.950 . S
H2601 C2628 0.950 . S
H2602 C2631 0.950 . S
H2603 C2632 0.950 . S
H2604 C2634 0.950 . S
H2605 C2635 0.950 . S
C2606 H2588 0.951 . S
C2606 C2607 1.366 . S
C2606 C2608 1.388 . S
C2607 C2606 1.366 . S
C2607 C2611 1.385 . S
C2608 H2589 0.951 . S
C2608 C2606 1.388 . S
C2608 C2609 1.366 . S
C2609 C2608 1.366 . S
C2609 C2610 1.414 . S
C2609 C2612 1.499 . S
C2610 H2590 0.950 . S
C2610 C2609 1.414 . S
C2610 C2611 1.374 . S
C2611 H2591 0.950 . S
C2611 C2607 1.385 . S
C2611 C2610 1.374 . S
C2612 C2609 1.499 . S
C2612 C2613 1.373 . S
C2612 C2614 1.389 . S
C2613 H2592 0.950 . S
C2613 C2612 1.373 . S
C2613 C2629 1.377 . S
C2614 C2612 1.389 . S
C2614 C2615 1.524 . S
C2614 C2628 1.377 . S
C2615 C2614 1.524 . S
C2615 C2616 1.397 . S
C2615 C2620 1.363 . S
C2616 H2593 0.950 . S
C2616 C2615 1.397 . S
C2616 C2617 1.334 . S
C2617 H2594 0.950 . S
C2617 C2616 1.334 . S
C2617 C2618 1.287 . S
C2618 C2617 1.287 . S
C2618 C2619 1.524 . S
C2618 H2637 0.913 . S
C2619 H2595 0.950 . S
C2619 C2618 1.524 . S
C2619 C2620 1.415 . S
C2620 H2596 0.950 . S
C2620 C2615 1.363 . S
C2620 C2619 1.415 . S
C2621 H2597 0.951 . S
C2621 C2622 1.366 . S
C2621 C2623 1.388 . S
C2622 C2621 1.366 . S
C2622 C2626 1.385 . S
C2623 H2598 0.951 . S
C2623 C2621 1.388 . S
C2623 C2624 1.366 . S
C2624 C2623 1.366 . S
C2624 C2625 1.414 . S
C2624 C2627 1.499 . S
C2625 H2599 0.950 . S
C2625 C2624 1.414 . S
C2625 C2626 1.374 . S
C2626 H2600 0.950 . S
C2626 C2622 1.385 . S
C2626 C2625 1.374 . S
C2627 C2624 1.499 . S
C2627 C2628 1.373 . S
C2627 C2629 1.389 . S
C2628 H2601 0.950 . S
C2628 C2614 1.377 . S
C2628 C2627 1.373 . S
C2629 C2613 1.377 . S
C2629 C2627 1.389 . S
C2629 C2630 1.524 . S
C2630 C2629 1.524 . S
C2630 C2631 1.397 . S
C2630 C2635 1.363 . S
C2631 H2602 0.950 . S
C2631 C2630 1.397 . S
C2631 C2632 1.334 . S
C2632 H2603 0.950 . S
C2632 C2631 1.334 . S
C2632 C2633 1.287 . S
C2633 C2632 1.287 . S
C2633 C2634 1.524 . S
C2633 H2636 0.999 . S
C2634 H2604 0.950 . S
C2634 C2633 1.524 . S
C2634 C2635 1.415 . S
C2635 H2605 0.950 . S
C2635 C2630 1.363 . S
C2635 C2634 1.415 . S
H2636 C2633 0.999 . S
H2637 C2618 0.913 . S
H2638 C2656 0.951 . S
H2639 C2658 0.951 . S
H2640 C2660 0.950 . S
H2641 C2661 0.950 . S
H2642 C2663 0.950 . S
H2643 C2666 0.950 . S
H2644 C2667 0.950 . S
H2645 C2669 0.950 . S
H2646 C2670 0.950 . S
H2647 C2671 0.951 . S
H2648 C2673 0.951 . S
H2649 C2675 0.950 . S
H2650 C2676 0.950 . S
H2651 C2678 0.950 . S
H2652 C2681 0.950 . S
H2653 C2682 0.950 . S
H2654 C2684 0.950 . S
H2655 C2685 0.950 . S
C2656 H2638 0.951 . S
C2656 C2657 1.366 . S
C2656 C2658 1.388 . S
C2657 C2656 1.366 . S
C2657 C2661 1.385 . S
C2658 H2639 0.951 . S
C2658 C2656 1.388 . S
C2658 C2659 1.366 . S
C2659 C2658 1.366 . S
C2659 C2660 1.414 . S
C2659 C2662 1.499 . S
C2660 H2640 0.950 . S
C2660 C2659 1.414 . S
C2660 C2661 1.374 . S
C2661 H2641 0.950 . S
C2661 C2657 1.385 . S
C2661 C2660 1.374 . S
C2662 C2659 1.499 . S
C2662 C2663 1.373 . S
C2662 C2664 1.389 . S
C2663 H2642 0.950 . S
C2663 C2662 1.373 . S
C2663 C2679 1.377 . S
C2664 C2662 1.389 . S
C2664 C2665 1.524 . S
C2664 C2678 1.377 . S
C2665 C2664 1.524 . S
C2665 C2666 1.397 . S
C2665 C2670 1.363 . S
C2666 H2643 0.950 . S
C2666 C2665 1.397 . S
C2666 C2667 1.334 . S
C2667 H2644 0.950 . S
C2667 C2666 1.334 . S
C2667 C2668 1.287 . S
C2668 C2667 1.287 . S
C2668 C2669 1.524 . S
C2668 H2687 0.913 . S
C2669 H2645 0.950 . S
C2669 C2668 1.524 . S
C2669 C2670 1.415 . S
C2670 H2646 0.950 . S
C2670 C2665 1.363 . S
C2670 C2669 1.415 . S
C2671 H2647 0.951 . S
C2671 C2672 1.366 . S
C2671 C2673 1.388 . S
C2672 C2671 1.366 . S
C2672 C2676 1.385 . S
C2673 H2648 0.951 . S
C2673 C2671 1.388 . S
C2673 C2674 1.366 . S
C2674 C2673 1.366 . S
C2674 C2675 1.414 . S
C2674 C2677 1.499 . S
C2675 H2649 0.950 . S
C2675 C2674 1.414 . S
C2675 C2676 1.374 . S
C2676 H2650 0.950 . S
C2676 C2672 1.385 . S
C2676 C2675 1.374 . S
C2677 C2674 1.499 . S
C2677 C2678 1.373 . S
C2677 C2679 1.389 . S
C2678 H2651 0.950 . S
C2678 C2664 1.377 . S
C2678 C2677 1.373 . S
C2679 C2663 1.377 . S
C2679 C2677 1.389 . S
C2679 C2680 1.524 . S
C2680 C2679 1.524 . S
C2680 C2681 1.397 . S
C2680 C2685 1.363 . S
C2681 H2652 0.950 . S
C2681 C2680 1.397 . S
C2681 C2682 1.334 . S
C2682 H2653 0.950 . S
C2682 C2681 1.334 . S
C2682 C2683 1.287 . S
C2683 C2682 1.287 . S
C2683 C2684 1.524 . S
C2683 H2686 0.999 . S
C2684 H2654 0.950 . S
C2684 C2683 1.524 . S
C2684 C2685 1.415 . S
C2685 H2655 0.950 . S
C2685 C2680 1.363 . S
C2685 C2684 1.415 . S
H2686 C2683 0.999 . S
H2687 C2668 0.913 . S
H2688 C2706 0.951 . S
H2689 C2708 0.951 . S
H2690 C2710 0.950 . S
H2691 C2711 0.950 . S
H2692 C2713 0.950 . S
H2693 C2716 0.950 . S
H2694 C2717 0.950 . S
H2695 C2719 0.950 . S
H2696 C2720 0.950 . S
H2697 C2721 0.951 . S
H2698 C2723 0.951 . S
H2699 C2725 0.950 . S
H2700 C2726 0.950 . S
H2701 C2728 0.950 . S
H2702 C2731 0.950 . S
H2703 C2732 0.950 . S
H2704 C2734 0.950 . S
H2705 C2735 0.950 . S
C2706 H2688 0.951 . S
C2706 C2707 1.366 . S
C2706 C2708 1.388 . S
C2707 C2706 1.366 . S
C2707 C2711 1.385 . S
C2708 H2689 0.951 . S
C2708 C2706 1.388 . S
C2708 C2709 1.366 . S
C2709 C2708 1.366 . S
C2709 C2710 1.414 . S
C2709 C2712 1.499 . S
C2710 H2690 0.950 . S
C2710 C2709 1.414 . S
C2710 C2711 1.374 . S
C2711 H2691 0.950 . S
C2711 C2707 1.385 . S
C2711 C2710 1.374 . S
C2712 C2709 1.499 . S
C2712 C2713 1.373 . S
C2712 C2714 1.389 . S
C2713 H2692 0.950 . S
C2713 C2712 1.373 . S
C2713 C2729 1.377 . S
C2714 C2712 1.389 . S
C2714 C2715 1.524 . S
C2714 C2728 1.377 . S
C2715 C2714 1.524 . S
C2715 C2716 1.397 . S
C2715 C2720 1.363 . S
C2716 H2693 0.950 . S
C2716 C2715 1.397 . S
C2716 C2717 1.334 . S
C2717 H2694 0.950 . S
C2717 C2716 1.334 . S
C2717 C2718 1.287 . S
C2718 C2717 1.287 . S
C2718 C2719 1.524 . S
C2718 H2737 0.913 . S
C2719 H2695 0.950 . S
C2719 C2718 1.524 . S
C2719 C2720 1.415 . S
C2720 H2696 0.950 . S
C2720 C2715 1.363 . S
C2720 C2719 1.415 . S
C2721 H2697 0.951 . S
C2721 C2722 1.366 . S
C2721 C2723 1.388 . S
C2722 C2721 1.366 . S
C2722 C2726 1.385 . S
C2723 H2698 0.951 . S
C2723 C2721 1.388 . S
C2723 C2724 1.366 . S
C2724 C2723 1.366 . S
C2724 C2725 1.414 . S
C2724 C2727 1.499 . S
C2725 H2699 0.950 . S
C2725 C2724 1.414 . S
C2725 C2726 1.374 . S
C2726 H2700 0.950 . S
C2726 C2722 1.385 . S
C2726 C2725 1.374 . S
C2727 C2724 1.499 . S
C2727 C2728 1.373 . S
C2727 C2729 1.389 . S
C2728 H2701 0.950 . S
C2728 C2714 1.377 . S
C2728 C2727 1.373 . S
C2729 C2713 1.377 . S
C2729 C2727 1.389 . S
C2729 C2730 1.524 . S
C2730 C2729 1.524 . S
C2730 C2731 1.397 . S
C2730 C2735 1.363 . S
C2731 H2702 0.950 . S
C2731 C2730 1.397 . S
C2731 C2732 1.334 . S
C2732 H2703 0.950 . S
C2732 C2731 1.334 . S
C2732 C2733 1.287 . S
C2733 C2732 1.287 . S
C2733 C2734 1.524 . S
C2733 H2736 0.999 . S
C2734 H2704 0.950 . S
C2734 C2733 1.524 . S
C2734 C2735 1.415 . S
C2735 H2705 0.950 . S
C2735 C2730 1.363 . S
C2735 C2734 1.415 . S
H2736 C2733 0.999 . S
H2737 C2718 0.913 . S
H2738 C2756 0.951 . S
H2739 C2758 0.951 . S
H2740 C2760 0.950 . S
H2741 C2761 0.950 . S
H2742 C2763 0.950 . S
H2743 C2766 0.950 . S
H2744 C2767 0.950 . S
H2745 C2769 0.950 . S
H2746 C2770 0.950 . S
H2747 C2771 0.951 . S
H2748 C2773 0.951 . S
H2749 C2775 0.950 . S
H2750 C2776 0.950 . S
H2751 C2778 0.950 . S
H2752 C2781 0.950 . S
H2753 C2782 0.950 . S
H2754 C2784 0.950 . S
H2755 C2785 0.950 . S
C2756 H2738 0.951 . S
C2756 C2757 1.366 . S
C2756 C2758 1.388 . S
C2757 C2756 1.366 . S
C2757 C2761 1.385 . S
C2758 H2739 0.951 . S
C2758 C2756 1.388 . S
C2758 C2759 1.366 . S
C2759 C2758 1.366 . S
C2759 C2760 1.414 . S
C2759 C2762 1.499 . S
C2760 H2740 0.950 . S
C2760 C2759 1.414 . S
C2760 C2761 1.374 . S
C2761 H2741 0.950 . S
C2761 C2757 1.385 . S
C2761 C2760 1.374 . S
C2762 C2759 1.499 . S
C2762 C2763 1.373 . S
C2762 C2764 1.389 . S
C2763 H2742 0.950 . S
C2763 C2762 1.373 . S
C2763 C2779 1.377 . S
C2764 C2762 1.389 . S
C2764 C2765 1.524 . S
C2764 C2778 1.377 . S
C2765 C2764 1.524 . S
C2765 C2766 1.397 . S
C2765 C2770 1.363 . S
C2766 H2743 0.950 . S
C2766 C2765 1.397 . S
C2766 C2767 1.334 . S
C2767 H2744 0.950 . S
C2767 C2766 1.334 . S
C2767 C2768 1.287 . S
C2768 C2767 1.287 . S
C2768 C2769 1.524 . S
C2768 H2787 0.913 . S
C2769 H2745 0.950 . S
C2769 C2768 1.524 . S
C2769 C2770 1.415 . S
C2770 H2746 0.950 . S
C2770 C2765 1.363 . S
C2770 C2769 1.415 . S
C2771 H2747 0.951 . S
C2771 C2772 1.366 . S
C2771 C2773 1.388 . S
C2772 C2771 1.366 . S
C2772 C2776 1.385 . S
C2773 H2748 0.951 . S
C2773 C2771 1.388 . S
C2773 C2774 1.366 . S
C2774 C2773 1.366 . S
C2774 C2775 1.414 . S
C2774 C2777 1.499 . S
C2775 H2749 0.950 . S
C2775 C2774 1.414 . S
C2775 C2776 1.374 . S
C2776 H2750 0.950 . S
C2776 C2772 1.385 . S
C2776 C2775 1.374 . S
C2777 C2774 1.499 . S
C2777 C2778 1.373 . S
C2777 C2779 1.389 . S
C2778 H2751 0.950 . S
C2778 C2764 1.377 . S
C2778 C2777 1.373 . S
C2779 C2763 1.377 . S
C2779 C2777 1.389 . S
C2779 C2780 1.524 . S
C2780 C2779 1.524 . S
C2780 C2781 1.397 . S
C2780 C2785 1.363 . S
C2781 H2752 0.950 . S
C2781 C2780 1.397 . S
C2781 C2782 1.334 . S
C2782 H2753 0.950 . S
C2782 C2781 1.334 . S
C2782 C2783 1.287 . S
C2783 C2782 1.287 . S
C2783 C2784 1.524 . S
C2783 H2786 0.999 . S
C2784 H2754 0.950 . S
C2784 C2783 1.524 . S
C2784 C2785 1.415 . S
C2785 H2755 0.950 . S
C2785 C2780 1.363 . S
C2785 C2784 1.415 . S
H2786 C2783 0.999 . S
H2787 C2768 0.913 . S
H2788 C2806 0.951 . S
H2789 C2808 0.951 . S
H2790 C2810 0.950 . S
H2791 C2811 0.950 . S
H2792 C2813 0.950 . S
H2793 C2816 0.950 . S
H2794 C2817 0.950 . S
H2795 C2819 0.950 . S
H2796 C2820 0.950 . S
H2797 C2821 0.951 . S
H2798 C2823 0.951 . S
H2799 C2825 0.950 . S
H2800 C2826 0.950 . S
H2801 C2828 0.950 . S
H2802 C2831 0.950 . S
H2803 C2832 0.950 . S
H2804 C2834 0.950 . S
H2805 C2835 0.950 . S
C2806 H2788 0.951 . S
C2806 C2807 1.366 . S
C2806 C2808 1.388 . S
C2807 C2806 1.366 . S
C2807 C2811 1.385 . S
C2808 H2789 0.951 . S
C2808 C2806 1.388 . S
C2808 C2809 1.366 . S
C2809 C2808 1.366 . S
C2809 C2810 1.414 . S
C2809 C2812 1.499 . S
C2810 H2790 0.950 . S
C2810 C2809 1.414 . S
C2810 C2811 1.374 . S
C2811 H2791 0.950 . S
C2811 C2807 1.385 . S
C2811 C2810 1.374 . S
C2812 C2809 1.499 . S
C2812 C2813 1.373 . S
C2812 C2814 1.389 . S
C2813 H2792 0.950 . S
C2813 C2812 1.373 . S
C2813 C2829 1.377 . S
C2814 C2812 1.389 . S
C2814 C2815 1.524 . S
C2814 C2828 1.377 . S
C2815 C2814 1.524 . S
C2815 C2816 1.397 . S
C2815 C2820 1.363 . S
C2816 H2793 0.950 . S
C2816 C2815 1.397 . S
C2816 C2817 1.334 . S
C2817 H2794 0.950 . S
C2817 C2816 1.334 . S
C2817 C2818 1.287 . S
C2818 C2817 1.287 . S
C2818 C2819 1.524 . S
C2818 H2837 0.913 . S
C2819 H2795 0.950 . S
C2819 C2818 1.524 . S
C2819 C2820 1.415 . S
C2820 H2796 0.950 . S
C2820 C2815 1.363 . S
C2820 C2819 1.415 . S
C2821 H2797 0.951 . S
C2821 C2822 1.366 . S
C2821 C2823 1.388 . S
C2822 C2821 1.366 . S
C2822 C2826 1.385 . S
C2823 H2798 0.951 . S
C2823 C2821 1.388 . S
C2823 C2824 1.366 . S
C2824 C2823 1.366 . S
C2824 C2825 1.414 . S
C2824 C2827 1.499 . S
C2825 H2799 0.950 . S
C2825 C2824 1.414 . S
C2825 C2826 1.374 . S
C2826 H2800 0.950 . S
C2826 C2822 1.385 . S
C2826 C2825 1.374 . S
C2827 C2824 1.499 . S
C2827 C2828 1.373 . S
C2827 C2829 1.389 . S
C2828 H2801 0.950 . S
C2828 C2814 1.377 . S
C2828 C2827 1.373 . S
C2829 C2813 1.377 . S
C2829 C2827 1.389 . S
C2829 C2830 1.524 . S
C2830 C2829 1.524 . S
C2830 C2831 1.397 . S
C2830 C2835 1.363 . S
C2831 H2802 0.950 . S
C2831 C2830 1.397 . S
C2831 C2832 1.334 . S
C2832 H2803 0.950 . S
C2832 C2831 1.334 . S
C2832 C2833 1.287 . S
C2833 C2832 1.287 . S
C2833 C2834 1.524 . S
C2833 H2836 0.999 . S
C2834 H2804 0.950 . S
C2834 C2833 1.524 . S
C2834 C2835 1.415 . S
C2835 H2805 0.950 . S
C2835 C2830 1.363 . S
C2835 C2834 1.415 . S
H2836 C2833 0.999 . S
H2837 C2818 0.913 . S
C472 C267 0.680 . S
C457 N6 0.663 . S
C522 C268 2.167 . S
C507 C57 2.282 . S
C572 C262 1.212 . S
C557 C61 1.246 . S
C607 N96 0.482 . S
C622 C261 0.310 . S
C657 C136 2.282 . S
C672 C264 2.167 . S
C722 C266 1.212 . S
C707 C160 1.246 . S
C757 N194 0.484 . S
C772 C265 0.312 . S
C807 N224 0.666 . S
C822 C263 0.681 . S
C872 C298 1.964 . S
C857 C10 1.947 . S
C907 N36 0.832 . S
C922 C329 0.844 . S
C972 C297 0.573 . S
C957 N74 0.580 . S
C1022 C332 1.103 . S
C1007 C100 1.128 . S
C1057 C121 1.394 . S
C1072 C295 1.363 . S
C1122 C327 1.900 . S
C1107 C177 1.894 . S
C1157 C196 1.958 . S
C1172 C300 1.902 . S
C1207 C226 1.923 . S
C1222 C334 1.873 . S
C1257 C27 1.922 . S
C1272 C330 1.873 . S
C1307 N134 0.834 . S
C1322 C333 0.844 . S
C1372 C301 0.570 . S
C1357 N156 0.583 . S
C1422 C328 1.103 . S
C1407 C181 1.132 . S
C1457 C211 1.949 . S
C1472 C294 1.965 . S
C1507 C76 1.892 . S
C1522 C331 1.898 . S
C1572 C296 1.900 . S
C1557 C117 1.956 . S
C1607 C40 1.393 . S
C1622 C299 1.361 . S
C1657 N216 0.681 . S
C1672 C366 0.690 . S
C1707 C147 1.759 . S
C1722 C367 1.663 . S
C1772 C361 1.133 . S
C1757 C151 1.164 . S
C1822 C360 0.606 . S
C1807 N186 0.629 . S
C1857 C46 1.759 . S
C1872 C363 1.661 . S
C1922 C365 1.133 . S
C1907 C70 1.161 . S
C1957 N104 0.630 . S
C1972 C364 0.606 . S
C2007 N14 0.681 . S
C2022 C362 0.689 . S
C2057 C220 2.072 . S
C2072 C400 2.000 . S
C2122 C432 0.746 . S
C2107 N126 0.748 . S
C2157 N164 0.496 . S
C2172 C393 0.445 . S
C2207 C190 1.416 . S
C2222 C427 1.402 . S
C2272 C398 1.139 . S
C2257 C31 1.155 . S
C2307 C87 2.075 . S
C2322 C429 2.020 . S
C2372 C395 2.121 . S
C2357 C106 2.206 . S
C2422 C430 1.858 . S
C2407 C16 1.816 . S
C2472 C426 1.858 . S
C2457 C237 1.816 . S
C2507 N44 0.746 . S
C2522 C428 0.748 . S
C2557 N66 0.498 . S
C2572 C397 0.445 . S
C2622 C431 1.401 . S
C2607 C91 1.417 . S
C2657 C1 2.073 . S
C2672 C396 2.000 . S
C2707 C166 2.074 . S
C2722 C433 2.019 . S
C2772 C399 2.122 . S
C2757 C207 2.206 . S
C2822 C394 1.139 . S
C2807 C130 1.154 . S
