# Generated by pormake.
# Topology gar, (4,6)-cn, num edge types: 1
# Building blocks:
#     Node 0, Type 0, BuildingBlock: QUQFOY_clean_sbu_3, # of connection points: 4
#     Node 1, Type 0, BuildingBlock: QUQFOY_clean_sbu_3, # of connection points: 4
#     Node 2, Type 0, BuildingBlock: QUQFOY_clean_sbu_3, # of connection points: 4
#     Node 3, Type 0, BuildingBlock: QUQFOY_clean_sbu_3, # of connection points: 4
#     Node 4, Type 0, BuildingBlock: QUQFOY_clean_sbu_3, # of connection points: 4
#     Node 5, Type 0, BuildingBlock: QUQFOY_clean_sbu_3, # of connection points: 4
#     Node 6, Type 0, BuildingBlock: QUQFOY_clean_sbu_3, # of connection points: 4
#     Node 7, Type 0, BuildingBlock: QUQFOY_clean_sbu_3, # of connection points: 4
#     Node 8, Type 0, BuildingBlock: QUQFOY_clean_sbu_3, # of connection points: 4
#     Node 9, Type 0, BuildingBlock: QUQFOY_clean_sbu_3, # of connection points: 4
#     Node 10, Type 0, BuildingBlock: QUQFOY_clean_sbu_3, # of connection points: 4
#     Node 11, Type 0, BuildingBlock: QUQFOY_clean_sbu_3, # of connection points: 4
#     Node 12, Type 0, BuildingBlock: QUQFOY_clean_sbu_3, # of connection points: 4
#     Node 13, Type 0, BuildingBlock: QUQFOY_clean_sbu_3, # of connection points: 4
#     Node 14, Type 0, BuildingBlock: QUQFOY_clean_sbu_3, # of connection points: 4
#     Node 15, Type 0, BuildingBlock: QUQFOY_clean_sbu_3, # of connection points: 4
#     Node 16, Type 0, BuildingBlock: QUQFOY_clean_sbu_3, # of connection points: 4
#     Node 17, Type 0, BuildingBlock: QUQFOY_clean_sbu_3, # of connection points: 4
#     Node 18, Type 0, BuildingBlock: QUQFOY_clean_sbu_3, # of connection points: 4
#     Node 19, Type 0, BuildingBlock: QUQFOY_clean_sbu_3, # of connection points: 4
#     Node 20, Type 0, BuildingBlock: QUQFOY_clean_sbu_3, # of connection points: 4
#     Node 21, Type 0, BuildingBlock: QUQFOY_clean_sbu_3, # of connection points: 4
#     Node 22, Type 0, BuildingBlock: QUQFOY_clean_sbu_3, # of connection points: 4
#     Node 23, Type 0, BuildingBlock: QUQFOY_clean_sbu_3, # of connection points: 4
#     Node 24, Type 1, BuildingBlock: NUHQIS_clean_sbu_0, # of connection points: 6
#     Node 25, Type 1, BuildingBlock: NUHQIS_clean_sbu_0, # of connection points: 6
#     Node 26, Type 1, BuildingBlock: NUHQIS_clean_sbu_0, # of connection points: 6
#     Node 27, Type 1, BuildingBlock: NUHQIS_clean_sbu_0, # of connection points: 6
#     Node 28, Type 1, BuildingBlock: NUHQIS_clean_sbu_0, # of connection points: 6
#     Node 29, Type 1, BuildingBlock: NUHQIS_clean_sbu_0, # of connection points: 6
#     Node 30, Type 1, BuildingBlock: NUHQIS_clean_sbu_0, # of connection points: 6
#     Node 31, Type 1, BuildingBlock: NUHQIS_clean_sbu_0, # of connection points: 6
#     Node 32, Type 1, BuildingBlock: NUHQIS_clean_sbu_0, # of connection points: 6
#     Node 33, Type 1, BuildingBlock: NUHQIS_clean_sbu_0, # of connection points: 6
#     Node 34, Type 1, BuildingBlock: NUHQIS_clean_sbu_0, # of connection points: 6
#     Node 35, Type 1, BuildingBlock: NUHQIS_clean_sbu_0, # of connection points: 6
#     Node 36, Type 1, BuildingBlock: NUHQIS_clean_sbu_0, # of connection points: 6
#     Node 37, Type 1, BuildingBlock: NUHQIS_clean_sbu_0, # of connection points: 6
#     Node 38, Type 1, BuildingBlock: NUHQIS_clean_sbu_0, # of connection points: 6
#     Node 39, Type 1, BuildingBlock: NUHQIS_clean_sbu_0, # of connection points: 6
#     Edge 40, Type (0, 1), BuildingBlock: OJICUG_clean_linker_0, # of connection points: 2
#     Edge 41, Type (0, 1), BuildingBlock: OJICUG_clean_linker_0, # of connection points: 2
#     Edge 42, Type (0, 1), BuildingBlock: OJICUG_clean_linker_0, # of connection points: 2
#     Edge 43, Type (0, 1), BuildingBlock: OJICUG_clean_linker_0, # of connection points: 2
#     Edge 44, Type (0, 1), BuildingBlock: OJICUG_clean_linker_0, # of connection points: 2
#     Edge 45, Type (0, 1), BuildingBlock: OJICUG_clean_linker_0, # of connection points: 2
#     Edge 46, Type (0, 1), BuildingBlock: OJICUG_clean_linker_0, # of connection points: 2
#     Edge 47, Type (0, 1), BuildingBlock: OJICUG_clean_linker_0, # of connection points: 2
#     Edge 48, Type (0, 1), BuildingBlock: OJICUG_clean_linker_0, # of connection points: 2
#     Edge 49, Type (0, 1), BuildingBlock: OJICUG_clean_linker_0, # of connection points: 2
#     Edge 50, Type (0, 1), BuildingBlock: OJICUG_clean_linker_0, # of connection points: 2
#     Edge 51, Type (0, 1), BuildingBlock: OJICUG_clean_linker_0, # of connection points: 2
#     Edge 52, Type (0, 1), BuildingBlock: OJICUG_clean_linker_0, # of connection points: 2
#     Edge 53, Type (0, 1), BuildingBlock: OJICUG_clean_linker_0, # of connection points: 2
#     Edge 54, Type (0, 1), BuildingBlock: OJICUG_clean_linker_0, # of connection points: 2
#     Edge 55, Type (0, 1), BuildingBlock: OJICUG_clean_linker_0, # of connection points: 2
#     Edge 56, Type (0, 1), BuildingBlock: OJICUG_clean_linker_0, # of connection points: 2
#     Edge 57, Type (0, 1), BuildingBlock: OJICUG_clean_linker_0, # of connection points: 2
#     Edge 58, Type (0, 1), BuildingBlock: OJICUG_clean_linker_0, # of connection points: 2
#     Edge 59, Type (0, 1), BuildingBlock: OJICUG_clean_linker_0, # of connection points: 2
#     Edge 60, Type (0, 1), BuildingBlock: OJICUG_clean_linker_0, # of connection points: 2
#     Edge 61, Type (0, 1), BuildingBlock: OJICUG_clean_linker_0, # of connection points: 2
#     Edge 62, Type (0, 1), BuildingBlock: OJICUG_clean_linker_0, # of connection points: 2
#     Edge 63, Type (0, 1), BuildingBlock: OJICUG_clean_linker_0, # of connection points: 2
#     Edge 64, Type (0, 1), BuildingBlock: OJICUG_clean_linker_0, # of connection points: 2
#     Edge 65, Type (0, 1), BuildingBlock: OJICUG_clean_linker_0, # of connection points: 2
#     Edge 66, Type (0, 1), BuildingBlock: OJICUG_clean_linker_0, # of connection points: 2
#     Edge 67, Type (0, 1), BuildingBlock: OJICUG_clean_linker_0, # of connection points: 2
#     Edge 68, Type (0, 1), BuildingBlock: OJICUG_clean_linker_0, # of connection points: 2
#     Edge 69, Type (0, 1), BuildingBlock: OJICUG_clean_linker_0, # of connection points: 2
#     Edge 70, Type (0, 1), BuildingBlock: OJICUG_clean_linker_0, # of connection points: 2
#     Edge 71, Type (0, 1), BuildingBlock: OJICUG_clean_linker_0, # of connection points: 2
#     Edge 72, Type (0, 1), BuildingBlock: OJICUG_clean_linker_0, # of connection points: 2
#     Edge 73, Type (0, 1), BuildingBlock: OJICUG_clean_linker_0, # of connection points: 2
#     Edge 74, Type (0, 1), BuildingBlock: OJICUG_clean_linker_0, # of connection points: 2
#     Edge 75, Type (0, 1), BuildingBlock: OJICUG_clean_linker_0, # of connection points: 2
#     Edge 76, Type (0, 1), BuildingBlock: OJICUG_clean_linker_0, # of connection points: 2
#     Edge 77, Type (0, 1), BuildingBlock: OJICUG_clean_linker_0, # of connection points: 2
#     Edge 78, Type (0, 1), BuildingBlock: OJICUG_clean_linker_0, # of connection points: 2
#     Edge 79, Type (0, 1), BuildingBlock: OJICUG_clean_linker_0, # of connection points: 2
#     Edge 80, Type (0, 1), BuildingBlock: OJICUG_clean_linker_0, # of connection points: 2
#     Edge 81, Type (0, 1), BuildingBlock: OJICUG_clean_linker_0, # of connection points: 2
#     Edge 82, Type (0, 1), BuildingBlock: OJICUG_clean_linker_0, # of connection points: 2
#     Edge 83, Type (0, 1), BuildingBlock: OJICUG_clean_linker_0, # of connection points: 2
#     Edge 84, Type (0, 1), BuildingBlock: OJICUG_clean_linker_0, # of connection points: 2
#     Edge 85, Type (0, 1), BuildingBlock: OJICUG_clean_linker_0, # of connection points: 2
#     Edge 86, Type (0, 1), BuildingBlock: OJICUG_clean_linker_0, # of connection points: 2
#     Edge 87, Type (0, 1), BuildingBlock: OJICUG_clean_linker_0, # of connection points: 2
#     Edge 88, Type (0, 1), BuildingBlock: OJICUG_clean_linker_0, # of connection points: 2
#     Edge 89, Type (0, 1), BuildingBlock: OJICUG_clean_linker_0, # of connection points: 2
#     Edge 90, Type (0, 1), BuildingBlock: OJICUG_clean_linker_0, # of connection points: 2
#     Edge 91, Type (0, 1), BuildingBlock: OJICUG_clean_linker_0, # of connection points: 2
#     Edge 92, Type (0, 1), BuildingBlock: OJICUG_clean_linker_0, # of connection points: 2
#     Edge 93, Type (0, 1), BuildingBlock: OJICUG_clean_linker_0, # of connection points: 2
#     Edge 94, Type (0, 1), BuildingBlock: OJICUG_clean_linker_0, # of connection points: 2
#     Edge 95, Type (0, 1), BuildingBlock: OJICUG_clean_linker_0, # of connection points: 2
#     Edge 96, Type (0, 1), BuildingBlock: OJICUG_clean_linker_0, # of connection points: 2
#     Edge 97, Type (0, 1), BuildingBlock: OJICUG_clean_linker_0, # of connection points: 2
#     Edge 98, Type (0, 1), BuildingBlock: OJICUG_clean_linker_0, # of connection points: 2
#     Edge 99, Type (0, 1), BuildingBlock: OJICUG_clean_linker_0, # of connection points: 2
#     Edge 100, Type (0, 1), BuildingBlock: OJICUG_clean_linker_0, # of connection points: 2
#     Edge 101, Type (0, 1), BuildingBlock: OJICUG_clean_linker_0, # of connection points: 2
#     Edge 102, Type (0, 1), BuildingBlock: OJICUG_clean_linker_0, # of connection points: 2
#     Edge 103, Type (0, 1), BuildingBlock: OJICUG_clean_linker_0, # of connection points: 2
#     Edge 104, Type (0, 1), BuildingBlock: OJICUG_clean_linker_0, # of connection points: 2
#     Edge 105, Type (0, 1), BuildingBlock: OJICUG_clean_linker_0, # of connection points: 2
#     Edge 106, Type (0, 1), BuildingBlock: OJICUG_clean_linker_0, # of connection points: 2
#     Edge 107, Type (0, 1), BuildingBlock: OJICUG_clean_linker_0, # of connection points: 2
#     Edge 108, Type (0, 1), BuildingBlock: OJICUG_clean_linker_0, # of connection points: 2
#     Edge 109, Type (0, 1), BuildingBlock: OJICUG_clean_linker_0, # of connection points: 2
#     Edge 110, Type (0, 1), BuildingBlock: OJICUG_clean_linker_0, # of connection points: 2
#     Edge 111, Type (0, 1), BuildingBlock: OJICUG_clean_linker_0, # of connection points: 2
#     Edge 112, Type (0, 1), BuildingBlock: OJICUG_clean_linker_0, # of connection points: 2
#     Edge 113, Type (0, 1), BuildingBlock: OJICUG_clean_linker_0, # of connection points: 2
#     Edge 114, Type (0, 1), BuildingBlock: OJICUG_clean_linker_0, # of connection points: 2
#     Edge 115, Type (0, 1), BuildingBlock: OJICUG_clean_linker_0, # of connection points: 2
#     Edge 116, Type (0, 1), BuildingBlock: OJICUG_clean_linker_0, # of connection points: 2
#     Edge 117, Type (0, 1), BuildingBlock: OJICUG_clean_linker_0, # of connection points: 2
#     Edge 118, Type (0, 1), BuildingBlock: OJICUG_clean_linker_0, # of connection points: 2
#     Edge 119, Type (0, 1), BuildingBlock: OJICUG_clean_linker_0, # of connection points: 2
#     Edge 120, Type (0, 1), BuildingBlock: OJICUG_clean_linker_0, # of connection points: 2
#     Edge 121, Type (0, 1), BuildingBlock: OJICUG_clean_linker_0, # of connection points: 2
#     Edge 122, Type (0, 1), BuildingBlock: OJICUG_clean_linker_0, # of connection points: 2
#     Edge 123, Type (0, 1), BuildingBlock: OJICUG_clean_linker_0, # of connection points: 2
#     Edge 124, Type (0, 1), BuildingBlock: OJICUG_clean_linker_0, # of connection points: 2
#     Edge 125, Type (0, 1), BuildingBlock: OJICUG_clean_linker_0, # of connection points: 2
#     Edge 126, Type (0, 1), BuildingBlock: OJICUG_clean_linker_0, # of connection points: 2
#     Edge 127, Type (0, 1), BuildingBlock: OJICUG_clean_linker_0, # of connection points: 2
#     Edge 128, Type (0, 1), BuildingBlock: OJICUG_clean_linker_0, # of connection points: 2
#     Edge 129, Type (0, 1), BuildingBlock: OJICUG_clean_linker_0, # of connection points: 2
#     Edge 130, Type (0, 1), BuildingBlock: OJICUG_clean_linker_0, # of connection points: 2
#     Edge 131, Type (0, 1), BuildingBlock: OJICUG_clean_linker_0, # of connection points: 2
#     Edge 132, Type (0, 1), BuildingBlock: OJICUG_clean_linker_0, # of connection points: 2
#     Edge 133, Type (0, 1), BuildingBlock: OJICUG_clean_linker_0, # of connection points: 2
#     Edge 134, Type (0, 1), BuildingBlock: OJICUG_clean_linker_0, # of connection points: 2
#     Edge 135, Type (0, 1), BuildingBlock: OJICUG_clean_linker_0, # of connection points: 2
# Relax obj value: 0.289
# Max RMSD: 0.363
# Mean RMSD: 0.146
data_MOF--net-gar--node1-QUQFOY_clean_sbu_3--node2-NUHQIS_clean_sbu_0--edge1-OJICUG_clean_linker_0
_symmetry_space_group_name_H-M    P1
_symmetry_Int_Tables_number       1
_symmetry_cell_setting            triclinic
loop_
_symmetry_equiv_pos_as_xyz
'x, y, z'
_cell_length_a     42.772182
_cell_length_b     46.075198
_cell_length_c     42.786444
_cell_angle_alpha  93.426831
_cell_angle_beta   97.170981
_cell_angle_gamma 100.62253
loop_
_atom_site_label
_atom_site_type_symbol
_atom_site_fract_x
_atom_site_fract_y
_atom_site_fract_z
_atom_type_partial_charge
C0 C 0.04035 0.3305 0.3743 0.0
O1 O 0.06355 0.3446 0.36214 0.0
Cd2 Cd 0.10707 0.35211 0.40667 0.0
O3 O 0.04782 0.31925 0.40031 0.0
Cd4 Cd 0.10825 0.321 0.42889 0.0
C5 C 0.10702 0.40342 0.45215 0.0
O6 O 0.16176 0.34565 0.40526 0.0
O7 O 0.13999 0.30373 0.38258 0.0
O8 O 0.09133 0.2628 0.43448 0.0
C9 C 0.16439 0.3247 0.38579 0.0
O10 O 0.10877 0.40309 0.42291 0.0
C11 C 0.10399 0.26018 0.46247 0.0
O12 O 0.10674 0.37781 0.46403 0.0
O13 O 0.11849 0.2853 0.47655 0.0
C14 C 1.01713 0.82437 0.70624 0.0
O15 O 1.03022 0.80221 0.71085 0.0
Cd16 Cd 0.07519 0.80886 0.68018 0.0
O17 O 1.03041 0.843 0.6879 0.0
Cd18 Cd 0.08491 0.84246 0.65593 0.0
C19 C 0.08074 0.76024 0.6308 0.0
O20 O 0.12463 0.83836 0.70831 0.0
O21 O 0.14602 0.84695 0.66642 0.0
O22 O 0.08964 0.90129 0.65452 0.0
C23 C 0.1504 0.84399 0.69586 0.0
O24 O 0.08364 0.76069 0.66065 0.0
C25 C 0.09022 0.90473 0.62526 0.0
O26 O 0.07766 0.78542 0.61932 0.0
O27 O 0.08781 0.87998 0.60901 0.0
C28 C 0.53799 0.83124 0.87457 0.0
O29 O 0.56086 0.84722 0.86365 0.0
Cd30 Cd 0.60482 0.85436 0.90758 0.0
O31 O 0.54574 0.81892 0.89984 0.0
Cd32 Cd 0.60645 0.82233 0.92978 0.0
C33 C 0.60476 0.90452 0.95491 0.0
O34 O 0.65946 0.84768 0.90498 0.0
O35 O 0.63955 0.80427 0.88519 0.0
O36 O 0.59059 0.76428 0.93587 0.0
C37 C 0.66305 0.82597 0.88699 0.0
O38 O 0.60574 0.90492 0.92558 0.0
C39 C 0.60253 0.76211 0.96421 0.0
O40 O 0.6052 0.87868 0.96606 0.0
O41 O 0.61627 0.78744 0.97827 0.0
C42 C 0.51903 0.32715 0.20647 0.0
O43 O 0.53197 0.30488 0.2108 0.0
Cd44 Cd 0.57677 0.31205 0.18032 0.0
O45 O 0.53258 0.34609 0.18859 0.0
Cd46 Cd 0.58747 0.34575 0.15722 0.0
C47 C 0.58279 0.26335 0.13169 0.0
O48 O 0.62613 0.34024 0.20969 0.0
O49 O 0.6486 0.35138 0.16889 0.0
O50 O 0.5948 0.40488 0.15656 0.0
C51 C 0.65224 0.34709 0.19805 0.0
O52 O 0.58394 0.26345 0.16139 0.0
C53 C 0.59334 0.40832 0.12712 0.0
O54 O 0.58139 0.28892 0.12033 0.0
O55 O 0.58866 0.38348 0.1105 0.0
C56 C 0.14765 0.91554 0.24611 0.0
O57 O 0.17369 0.91806 0.26475 0.0
Cd58 Cd 0.22107 0.91075 0.24511 0.0
O59 O 0.14746 0.91434 0.2162 0.0
Cd60 Cd 0.18047 0.91818 0.17225 0.0
C61 C 0.18527 0.84929 0.1914 0.0
O62 O 0.22794 0.94315 0.20489 0.0
O63 O 0.23618 0.9265 0.15961 0.0
O64 O 0.1468 0.95135 0.15364 0.0
C65 C 0.24774 0.93524 0.18813 0.0
O66 O 0.20242 0.86097 0.21727 0.0
C67 C 0.14189 0.94119 0.1248 0.0
O68 O 0.17376 0.86509 0.17116 0.0
O69 O 0.15656 0.92082 0.11706 0.0
C70 C 0.48312 0.7339 0.33638 0.0
O71 O 0.50451 0.74205 0.31892 0.0
Cd72 Cd 0.55848 0.76486 0.33754 0.0
O73 O 0.49039 0.73471 0.36637 0.0
Cd74 Cd 0.53862 0.74562 0.40763 0.0
C75 C 0.54319 0.81726 0.3934 0.0
O76 O 0.57473 0.73248 0.37388 0.0
O77 O 0.59717 0.75675 0.41761 0.0
O78 O 0.5185 0.70123 0.43095 0.0
C79 C 0.60045 0.74488 0.39109 0.0
O80 O 0.55299 0.81082 0.36733 0.0
C81 C 0.52975 0.7114 0.45918 0.0
O82 O 0.53502 0.7974 0.41192 0.0
O83 O 0.54305 0.73857 0.46385 0.0
C84 C 0.64692 0.42071 0.74301 0.0
O85 O 0.67258 0.42211 0.76193 0.0
Cd86 Cd 0.71933 0.41123 0.74362 0.0
O87 O 0.64693 0.41817 0.71316 0.0
Cd88 Cd 0.68022 0.41749 0.6698 0.0
C89 C 0.68152 0.34887 0.69238 0.0
O90 O 0.72845 0.44156 0.70191 0.0
O91 O 0.73601 0.4217 0.65781 0.0
O92 O 0.64971 0.4518 0.64763 0.0
C93 C 0.74775 0.43162 0.68599 0.0
O94 O 0.69907 0.36069 0.71799 0.0
C95 C 0.64239 0.43831 0.62014 0.0
O96 O 0.67094 0.36459 0.67155 0.0
O97 O 0.65484 0.41586 0.61449 0.0
C98 C 0.97501 0.23349 0.84486 0.0
O99 O 0.99555 0.24092 0.82633 0.0
Cd100 Cd 0.04931 0.26546 0.84264 0.0
O101 O 0.98325 0.23625 0.87482 0.0
Cd102 Cd 1.03237 0.25023 0.9147 0.0
C103 C 1.03494 0.32058 0.8959 0.0
O104 O 0.06737 0.23525 0.88061 0.0
O105 O 0.09101 0.2622 0.92239 0.0
O106 O 1.01335 0.20709 0.94106 0.0
C107 C 0.09347 0.2484 0.89663 0.0
O108 O 0.04361 0.31271 0.8697 0.0
C109 C 1.02615 0.21835 0.96854 0.0
O110 O 1.02816 0.30197 0.91611 0.0
O111 O 0.03956 0.24551 0.97143 0.0
C112 C 0.58616 0.16712 0.40673 0.0
O113 O 0.60138 0.16061 0.38438 0.0
Cd114 Cd 0.5877 0.15005 0.32845 0.0
O115 O 0.55639 0.16863 0.40154 0.0
Cd116 Cd 0.51533 0.15935 0.35373 0.0
C117 C 0.53069 0.08908 0.33245 0.0
O118 O 0.55112 0.18208 0.32008 0.0
O119 O 0.503 0.16854 0.29745 0.0
O120 O 0.47313 0.18502 0.36798 0.0
C121 C 0.53218 0.17742 0.29453 0.0
O122 O 0.55742 0.09866 0.32282 0.0
C123 C 0.4514 0.16156 0.36253 0.0
O124 O 0.51501 0.10687 0.34436 0.0
O125 O 0.46049 0.13742 0.35617 0.0
C126 C 0.43198 0.15901 0.55269 0.0
O127 O 0.4147 0.15203 0.57406 0.0
Cd128 Cd 0.37187 0.18026 0.5642 0.0
O129 O 0.42209 0.17716 0.53342 0.0
Cd130 Cd 0.36753 0.2042 0.53247 0.0
C131 C 0.36735 0.22948 0.61374 0.0
O132 O 0.32304 0.15528 0.5315 0.0
O133 O 0.30813 0.19569 0.54311 0.0
O134 O 0.35636 0.21012 0.47128 0.0
C135 C 0.29988 0.16778 0.53699 0.0
O136 O 0.35921 0.20159 0.61348 0.0
C137 C 0.36505 0.23804 0.47091 0.0
O138 O 0.37604 0.23958 0.58798 0.0
O139 O 0.37507 0.25106 0.49842 0.0
C140 C 0.2104 0.09943 0.92095 0.0
O141 O 0.19596 0.10547 0.89512 0.0
Cd142 Cd 0.20939 0.10655 0.84382 0.0
O143 O 0.2387 0.09369 0.92276 0.0
Cd144 Cd 0.27737 0.09392 0.88249 0.0
C145 C 0.27541 0.16311 0.85979 0.0
O146 O 0.23689 0.06697 0.84212 0.0
O147 O 0.28007 0.08555 0.82481 0.0
O148 O 0.30309 0.05437 0.90257 0.0
C149 C 0.25171 0.07071 0.81859 0.0
O150 O 0.24741 0.15271 0.84517 0.0
C151 C 0.33157 0.06835 0.90215 0.0
O152 O 0.29074 0.14726 0.87698 0.0
O153 O 0.33465 0.09518 0.89577 0.0
C154 C 0.40282 0.99158 0.04873 0.0
O155 O 0.38131 1.00318 0.03384 0.0
Cd156 Cd 0.32623 0.98385 0.02343 0.0
O157 O 0.39576 0.96605 0.05926 0.0
Cd158 Cd 0.34398 0.92864 0.06019 0.0
C159 C 0.33035 0.92097 0.97758 0.0
O160 O 0.32268 0.97069 0.07597 0.0
O161 O 0.28673 0.93117 0.06995 0.0
O162 O 0.37269 0.91684 0.11053 0.0
C163 C 0.29486 0.95837 0.07983 0.0
O164 O 0.3234 0.94663 0.97963 0.0
C165 C 0.35745 0.89036 0.10986 0.0
O166 O 0.33879 0.90895 1.00269 0.0
O167 O 0.33746 0.88093 0.08521 0.0
C168 C 0.39945 0.50518 0.03957 0.0
O169 O 0.37817 0.51081 0.01866 0.0
Cd170 Cd 0.33156 0.47034 0.0179 0.0
O171 O 0.3902 0.48441 0.05712 0.0
Cd172 Cd 0.32979 0.45263 0.05422 0.0
C173 C 0.33041 0.42209 0.97028 0.0
O174 O 0.27778 0.47219 0.02823 0.0
O175 O 0.29832 0.49422 0.07281 0.0
O176 O 0.34445 0.443 0.11364 0.0
C177 C 0.27479 0.49027 0.05065 0.0
O178 O 0.32495 0.44758 0.96551 0.0
C179 C 0.32755 0.41733 0.11446 0.0
O180 O 0.33427 0.41596 0.99961 0.0
O181 O 0.31157 0.40685 0.08766 0.0
C182 C 0.87827 0.1797 0.04193 0.0
O183 O 0.86562 0.16819 0.06477 0.0
Cd184 Cd 0.81891 0.1784 0.08431 0.0
O185 O 0.86864 0.20163 0.0294 0.0
Cd186 Cd 0.82733 0.2341 0.03521 0.0
C187 C 0.84177 0.25084 0.11798 0.0
O188 O 0.79179 0.18809 0.03589 0.0
O189 O 0.76756 0.2249 0.03393 0.0
O190 O 0.82724 0.23417 0.97821 0.0
C191 C 0.76568 0.19714 0.03445 0.0
O192 O 0.83359 0.22305 0.11955 0.0
C193 C 0.82632 0.2612 0.9753 0.0
O194 O 0.84299 0.26156 0.091 0.0
O195 O 0.82759 0.27723 1.0009 0.0
C196 C 1.03364 0.48329 0.26608 0.0
O197 O 1.02321 0.49323 0.24045 0.0
Cd198 Cd 0.04503 0.49978 0.19156 0.0
O199 O 0.06093 0.4754 0.26979 0.0
Cd200 Cd 0.10629 0.47447 0.23912 0.0
C201 C 0.11321 0.54898 0.2205 0.0
O202 O 0.07109 0.4588 0.1916 0.0
O203 O 0.11883 0.45352 0.1877 0.0
O204 O 0.13708 0.44413 0.27215 0.0
C205 C 0.09117 0.45435 0.17356 0.0
O206 O 0.08636 0.54529 0.20264 0.0
C207 C 0.16181 0.46498 0.27778 0.0
O208 O 0.12203 0.52751 0.23425 0.0
O209 O 0.15995 0.48908 0.26544 0.0
C210 C 0.89719 1.00505 0.54512 0.0
O211 O 0.8752 1.0161 0.53036 0.0
Cd212 Cd 0.83067 0.97232 0.52145 0.0
O213 O 0.88824 0.9799 0.55604 0.0
Cd214 Cd 0.82711 0.95102 0.55519 0.0
C215 C 0.83127 0.92336 0.47221 0.0
O216 O 0.77541 0.97087 0.52957 0.0
O217 O 0.79589 0.9929 0.57409 0.0
O218 O 0.84183 0.94159 0.6144 0.0
C219 C 0.77223 0.98883 0.55204 0.0
O220 O 0.83013 0.95025 0.46891 0.0
C221 C 0.82504 0.91586 0.6152 0.0
O222 O 0.83083 0.91518 0.50068 0.0
O223 O 0.80909 0.90525 0.58843 0.0
C224 C 1.01491 0.05809 0.24598 0.0
O225 O 1.0224 0.04712 0.22069 0.0
Cd226 Cd 0.98226 0.03214 0.17697 0.0
O227 O 0.98615 0.0614 0.24784 0.0
Cd228 Cd 0.93143 0.05617 0.21746 0.0
C229 C 0.92842 0.98271 0.21124 0.0
O230 O 0.95885 0.07588 0.1783 0.0
O231 O 0.90884 0.06118 0.16107 0.0
O232 O 0.9305 0.09662 0.25542 0.0
C233 C 0.93618 0.07477 0.15627 0.0
O234 O 0.9516 0.98677 0.19496 0.0
C235 C 0.90026 0.09149 0.25482 0.0
O236 O 0.91673 1.00419 0.22148 0.0
O237 O 0.88417 0.06975 0.23646 0.0
C238 C 0.36132 0.66964 0.53725 0.0
O239 O 0.34538 0.66043 0.55909 0.0
Cd240 Cd 0.30178 0.67716 0.57721 0.0
O241 O 0.35795 0.69373 0.52467 0.0
Cd242 Cd 0.32345 0.73385 0.52792 0.0
C243 C 0.33509 0.74875 0.61109 0.0
O244 O 0.28573 0.69083 0.52726 0.0
O245 O 0.2619 0.72691 0.51884 0.0
O246 O 0.33523 0.73607 0.4734 0.0
C247 C 0.25967 0.69939 0.52164 0.0
O248 O 0.3225 0.72157 0.61174 0.0
C249 C 0.33157 0.76238 0.46959 0.0
O250 O 0.33938 0.75965 0.58462 0.0
O251 O 0.32623 0.77707 0.49383 0.0
C252 C 0.48044 0.55399 0.74639 0.0
O253 O 0.49444 0.54854 0.72286 0.0
Cd254 Cd 0.46414 0.5335 0.67361 0.0
O255 O 0.45035 0.55418 0.74301 0.0
Cd256 Cd 0.40209 0.55036 0.70218 0.0
C257 C 0.40718 0.47909 0.69904 0.0
O258 O 0.43726 0.57454 0.67126 0.0
O259 O 0.39235 0.55542 0.64351 0.0
O260 O 0.39334 0.58779 0.73946 0.0
C261 C 0.42012 0.57137 0.64479 0.0
O262 O 0.43373 0.48658 0.68833 0.0
C263 C 0.36308 0.58325 0.73237 0.0
O264 O 0.3899 0.49794 0.70455 0.0
O265 O 0.35037 0.56322 0.71039 0.0
C266 C 0.53152 0.9791 0.76848 0.0
O267 O 0.52092 0.98837 0.74252 0.0
Cd268 Cd 0.54324 0.9945 0.69381 0.0
O269 O 0.55915 0.97191 0.77263 0.0
Cd270 Cd 0.60512 0.97152 0.74279 0.0
C271 C 0.6102 0.04539 0.7225 0.0
O272 O 0.57083 0.95452 0.69498 0.0
O273 O 0.61923 0.95081 0.69215 0.0
O274 O 0.63648 0.94215 0.77644 0.0
C275 C 0.59162 0.95092 0.67744 0.0
O276 O 0.58347 0.04082 0.70432 0.0
C277 C 0.66074 0.96346 0.7823 0.0
O278 O 0.61953 1.0245 0.73693 0.0
O279 O 0.65834 0.98745 0.76992 0.0
C280 C 0.93546 0.66069 0.05241 0.0
O281 O 0.9187 0.65297 0.07394 0.0
Cd282 Cd 0.87684 0.68189 0.06682 0.0
O283 O 0.92497 0.67913 0.03381 0.0
Cd284 Cd 0.86934 0.70521 0.03327 0.0
C285 C 0.87346 0.73238 0.11578 0.0
O286 O 0.8262 0.65591 0.03707 0.0
O287 O 0.80909 0.69654 0.03785 0.0
O288 O 0.86099 0.71008 0.97184 0.0
C289 C 0.80206 0.66848 0.03719 0.0
O290 O 0.8727 0.70504 0.11835 0.0
C291 C 0.86705 0.73817 0.97145 0.0
O292 O 0.87446 0.74128 0.08778 0.0
O293 O 0.87446 0.75163 0.99903 0.0
C294 C 0.0912 0.66652 0.9073 0.0
O295 O 0.10637 0.65823 0.88573 0.0
Cd296 Cd 0.08827 0.63635 0.83327 0.0
O297 O 0.06073 0.66444 0.90234 0.0
Cd298 Cd 1.01791 0.64565 0.8572 0.0
C299 C 0.03742 0.57661 0.85523 0.0
O300 O 0.04793 0.66221 0.81572 0.0
O301 O 1.0039 0.63165 0.80049 0.0
O302 O 0.9797 0.67839 0.86316 0.0
C303 C 1.02961 0.64631 0.79323 0.0
O304 O 0.06113 0.58561 0.84057 0.0
C305 C 0.95596 0.65706 0.8629 0.0
O306 O 1.02084 0.59449 0.86549 0.0
O307 O 0.96204 0.63114 0.86323 0.0
C308 C 0.91454 0.48516 0.56328 0.0
O309 O 0.89567 0.50072 0.55058 0.0
Cd310 Cd 0.84035 0.48429 0.53411 0.0
O311 O 0.90443 0.45845 0.56935 0.0
Cd312 Cd 0.85072 0.42399 0.56829 0.0
C313 C 0.84016 0.42026 0.48593 0.0
O314 O 0.82964 0.46674 0.58332 0.0
O315 O 0.79362 0.42718 0.5753 0.0
O316 O 0.87653 0.41263 0.61995 0.0
C317 C 0.80108 0.45451 0.58469 0.0
O318 O 0.83745 0.4473 0.48946 0.0
C319 C 0.86184 0.38594 0.61875 0.0
O320 O 0.84494 0.40577 0.51016 0.0
O321 O 0.84338 0.37607 0.59319 0.0
C322 C 0.70497 0.59841 0.41702 0.0
O323 O 0.69095 0.60434 0.39091 0.0
Cd324 Cd 0.70522 0.6046 0.3399 0.0
O325 O 0.73349 0.59311 0.4195 0.0
Cd326 Cd 0.77336 0.59407 0.38046 0.0
C327 C 0.76942 0.66254 0.35467 0.0
O328 O 0.7332 0.56513 0.34151 0.0
O329 O 0.77643 0.58159 0.32336 0.0
O330 O 0.80115 0.55685 0.40338 0.0
C331 C 0.74797 0.56689 0.31786 0.0
O332 O 0.74181 0.65148 0.33957 0.0
C333 C 0.82918 0.57151 0.40218 0.0
O334 O 0.78464 0.64725 0.37275 0.0
O335 O 0.83101 0.59777 0.39415 0.0
Tb336 Tb 0.04434 0.05235 1.00722 0.0
Eu337 Eu 0.09487 0.0799 0.07031 0.0
C338 C 0.11723 0.07167 1.00436 0.0
C339 C 0.07239 1.01207 0.0521 0.0
C340 C 0.97313 0.05318 0.95879 0.0
C341 C 0.95813 0.10158 0.95447 0.0
C342 C 0.9757 0.08051 0.94516 0.0
C343 C 0.94898 0.04578 0.97806 0.0
C344 C 0.93164 0.06686 0.98751 0.0
C345 C 0.93767 0.09565 0.97753 0.0
C346 C 1.00095 0.03782 0.96148 0.0
O347 O 1.01635 0.05229 0.0465 0.0
O348 O 0.04781 0.08908 0.08184 0.0
O349 O 0.08479 0.12039 0.04684 0.0
O350 O 0.03741 0.09733 0.01631 0.0
C351 C 1.01977 0.07254 0.07034 0.0
O352 O 0.11134 0.07612 0.12004 0.0
O353 O 0.14102 0.10557 0.09321 0.0
O354 O 0.12224 0.06421 0.03322 0.0
O355 O 0.0884 0.07382 0.99164 0.0
O356 O 0.06922 1.0169 0.02207 0.0
O357 O 0.0707 0.03314 0.07315 0.0
C358 C 0.05768 0.12136 0.02895 0.0
O359 O 1.02854 0.05451 0.95895 0.0
O360 O 1.00354 1.02164 0.98542 0.0
C361 C 0.16644 0.07297 0.12343 0.0
C362 C 0.21092 0.03486 0.11869 0.0
C363 C 0.18191 1.02516 0.13048 0.0
C364 C 0.15989 0.04391 0.13277 0.0
C365 C 0.1965 0.0834 0.11395 0.0
C366 C 0.21838 0.06454 0.11142 0.0
C367 C 0.14037 0.09015 0.11789 0.0
H368 H 0.96293 0.12339 0.94592 0.0
H369 H 0.99376 0.0869 0.92992 0.0
H370 H 0.94578 1.02481 0.9886 0.0
H371 H 0.91509 0.06123 1.0044 0.0
H372 H 0.17582 1.00277 0.13711 0.0
H373 H 0.13706 0.03503 0.14035 0.0
H374 H 0.20232 0.1056 0.10654 0.0
H375 H 0.24039 0.07286 0.10207 0.0
Tb376 Tb 0.37107 0.84099 0.30112 0.0
Eu377 Eu 0.30812 0.78985 0.2671 0.0
C378 C 0.31029 0.86092 0.26603 0.0
C379 C 0.32709 0.80314 0.34281 0.0
C380 C 0.43791 0.9065 0.32156 0.0
C381 C 0.43811 0.95644 0.30653 0.0
C382 C 0.42171 0.92757 0.30813 0.0
C383 C 0.47114 0.91411 0.33129 0.0
C384 C 0.48769 0.94296 0.32924 0.0
C385 C 0.47104 0.9647 0.31806 0.0
C386 C 0.42015 0.87728 0.32738 0.0
O387 O 0.38137 0.79758 0.30972 0.0
O388 O 0.35044 0.76737 0.26816 0.0
O389 O 0.32675 0.8123 0.2262 0.0
O390 O 0.37549 0.84001 0.25029 0.0
C391 C 0.37419 0.77274 0.29145 0.0
O392 O 0.28349 0.75371 0.2325 0.0
O393 O 0.25774 0.77035 0.2683 0.0
O394 O 0.29289 0.83424 0.26661 0.0
O395 O 0.34089 0.86796 0.27721 0.0
O396 O 0.34049 0.83027 0.33798 0.0
O397 O 0.31691 0.78292 0.319 0.0
C398 C 0.35425 0.83016 0.2249 0.0
O399 O 0.39123 0.87659 0.33455 0.0
O400 O 0.42133 0.85508 0.30744 0.0
C401 C 0.23931 0.71993 0.24748 0.0
C402 C 0.1993 0.66327 0.24196 0.0
C403 C 0.2299 0.66695 0.23225 0.0
C404 C 0.24959 0.69506 0.23466 0.0
C405 C 0.20961 0.71582 0.25906 0.0
C406 C 0.18964 0.68788 0.25598 0.0
C407 C 0.25681 0.75041 0.24498 0.0
H408 H 0.4248 0.97258 0.2971 0.0
H409 H 0.39614 0.92202 0.29993 0.0
H410 H 0.48409 0.89803 0.34146 0.0
H411 H 0.51313 0.94861 0.33788 0.0
H412 H 0.23793 0.64834 0.22129 0.0
H413 H 0.27226 0.69741 0.22537 0.0
H414 H 0.20108 0.73454 0.26916 0.0
H415 H 0.1664 0.68558 0.26414 0.0
Tb416 Tb 0.58935 0.05966 0.51964 0.0
Eu417 Eu 0.62113 0.09739 0.58552 0.0
C418 C 0.5907 0.02818 0.58285 0.0
C419 C 0.54933 0.10336 0.55287 0.0
C420 C 0.55967 1.00043 0.45571 0.0
C421 C 0.56959 0.95103 0.46314 0.0
C422 C 0.57417 0.98089 0.47381 0.0
C423 C 0.54042 0.98987 0.42691 0.0
C424 C 0.53576 0.95991 0.41624 0.0
C425 C 0.55032 0.94023 0.43425 0.0
C426 C 0.56382 0.03156 0.46747 0.0
O427 O 0.62488 0.09723 0.51048 0.0
O428 O 0.61724 0.12971 0.54892 0.0
O429 O 0.66134 0.07504 0.56891 0.0
O430 O 0.63177 0.03874 0.5322 0.0
C431 C 0.6244 0.12437 0.52077 0.0
O432 O 0.66228 0.12806 0.61116 0.0
O433 O 0.62118 0.11191 0.63502 0.0
O434 O 0.6116 0.05061 0.5976 0.0
O435 O 0.57484 0.02936 0.55481 0.0
O436 O 0.55718 0.09223 0.52628 0.0
O437 O 0.56784 0.10224 0.5799 0.0
C438 C 0.6592 0.05028 0.55049 0.0
O439 O 0.54801 0.03645 0.49072 0.0
O440 O 0.59335 0.04616 0.4728 0.0
C441 C 0.64992 0.16104 0.64913 0.0
C442 C 0.65609 0.22175 0.66699 0.0
C443 C 0.68257 0.20775 0.67241 0.0
C444 C 0.67948 0.17767 0.66354 0.0
C445 C 0.62318 0.17472 0.64414 0.0
C446 C 0.62625 0.2049 0.65308 0.0
C447 C 0.64856 0.13049 0.63654 0.0
H448 H 0.5814 0.93644 0.47734 0.0
H449 H 0.58899 0.98874 0.49623 0.0
H450 H 0.52884 1.0047 0.41283 0.0
H451 H 0.52038 0.95203 0.39424 0.0
H452 H 0.70601 0.22033 0.68236 0.0
H453 H 0.70047 0.16756 0.66692 0.0
H454 H 0.60022 0.16232 0.63258 0.0
H455 H 0.60545 0.21514 0.64874 0.0
Tb456 Tb 0.31765 0.32639 0.78023 0.0
Eu457 Eu 0.39028 0.32479 0.8069 0.0
C458 C 0.37205 0.37372 0.76141 0.0
C459 C 0.36011 0.29637 0.73557 0.0
C460 C 0.23409 0.32011 0.7835 0.0
C461 C 0.18011 0.29686 0.78989 0.0
C462 C 0.20239 0.30825 0.77036 0.0
C463 C 0.24313 0.32151 0.8163 0.0
C464 C 0.22111 0.30992 0.83569 0.0
C465 C 0.18957 0.2969 0.82263 0.0
C466 C 0.25925 0.32564 0.76343 0.0
O467 O 0.31475 0.29548 0.81632 0.0
O468 O 0.36211 0.28003 0.81414 0.0
O469 O 0.36849 0.33807 0.85081 0.0
O470 O 0.32812 0.35687 0.82445 0.0
C471 C 0.33284 0.27579 0.82137 0.0
O472 O 0.4335 0.30581 0.80807 0.0
O473 O 0.43308 0.34413 0.83975 0.0
O474 O 0.39105 0.36881 0.78623 0.0
O475 O 0.34432 0.35635 0.75202 0.0
O476 O 0.33179 0.29527 0.74534 0.0
O477 O 0.38622 0.31096 0.75368 0.0
C478 C 0.34602 0.35413 0.85135 0.0
O479 O 0.28044 0.35009 0.77115 0.0
O480 O 0.27272 0.30287 0.75889 0.0
C481 C 0.47875 0.34394 0.81586 0.0
C482 C 0.53168 0.37814 0.79401 0.0
C483 C 0.53611 0.36135 0.82013 0.0
C484 C 0.50973 0.34446 0.8311 0.0
C485 C 0.47421 0.36058 0.78989 0.0
C486 C 0.50038 0.37775 0.77921 0.0
C487 C 0.45068 0.32744 0.82749 0.0
H488 H 0.15573 0.28744 0.77929 0.0
H489 H 0.19527 0.30664 0.74501 0.0
H490 H 0.26773 0.33005 0.82677 0.0
H491 H 0.22926 0.30995 0.8607 0.0
H492 H 0.55996 0.3607 0.83167 0.0
H493 H 0.51349 0.33176 0.85128 0.0
H494 H 0.4503 0.36029 0.77794 0.0
H495 H 0.49607 0.39065 0.75932 0.0
Tb496 Tb 0.09802 0.06752 0.51275 0.0
Eu497 Eu 0.10053 0.09947 0.57996 0.0
C498 C 0.16655 0.10497 0.54591 0.0
C499 C 0.10264 1.02642 0.57212 0.0
C500 C 0.09862 0.0516 0.42669 0.0
C501 C 0.09452 0.03643 0.37111 0.0
C502 C 0.0967 0.02942 0.4024 0.0
C503 C 0.10197 0.08134 0.41991 0.0
C504 C 0.09961 0.08838 0.38857 0.0
C505 C 0.09392 0.06572 0.36389 0.0
C506 C 0.09197 0.04292 0.45776 0.0
O507 O 0.05163 0.04922 0.52904 0.0
O508 O 0.04688 0.08881 0.56066 0.0
O509 O 0.09774 0.1392 0.55003 0.0
O510 O 0.09441 0.11467 0.50121 0.0
C511 C 1.03356 0.0633 0.54473 0.0
O512 O 0.08071 0.10153 0.62453 0.0
O513 O 0.12342 0.13262 0.61857 0.0
O514 O 0.15326 0.1097 0.57149 0.0
O515 O 0.14948 0.08867 0.52105 0.0
O516 O 0.10379 0.02915 0.54155 0.0
O517 O 0.10216 0.05046 0.59067 0.0
C518 C 0.09634 0.14002 0.51903 0.0
O519 O 0.11678 0.04324 0.47893 0.0
O520 O 0.06966 0.05452 0.46912 0.0
C521 C 0.12362 0.11116 0.66659 0.0
C522 C 0.16694 0.09274 0.71277 0.0
C523 C 0.16816 0.12307 0.70921 0.0
C524 C 0.14666 0.13219 0.6863 0.0
C525 C 0.12166 0.08088 0.67088 0.0
C526 C 0.14306 0.07177 0.69382 0.0
C527 C 0.10563 0.12051 0.63863 0.0
H528 H 0.08995 1.01847 0.3526 0.0
H529 H 0.09428 1.00639 0.40742 0.0
H530 H 0.10384 0.09876 0.4386 0.0
H531 H 0.09953 0.11114 0.38355 0.0
H532 H 0.18592 0.13974 0.72397 0.0
H533 H 0.14879 0.15561 0.68317 0.0
H534 H 0.10438 0.06412 0.65576 0.0
H535 H 0.14158 0.04827 0.69602 0.0
Tb536 Tb 0.32716 0.81025 0.80399 0.0
Eu537 Eu 0.35654 0.87402 0.78142 0.0
C538 C 0.33547 0.86678 0.85164 0.0
C539 C 0.28156 0.84643 0.76375 0.0
C540 C 0.29792 0.72975 0.80578 0.0
C541 C 0.30239 0.67953 0.81649 0.0
C542 C 0.29916 0.70793 0.82708 0.0
C543 C 0.29811 0.72248 0.77347 0.0
C544 C 0.30105 0.69408 0.76285 0.0
C545 C 0.30422 0.67264 0.78441 0.0
C546 C 0.29895 0.76042 0.81775 0.0
O547 O 0.33707 0.79898 0.75622 0.0
O548 O 0.35847 0.84376 0.73854 0.0
O549 O 0.3989 0.85988 0.81025 0.0
O550 O 0.37958 0.81061 0.81443 0.0
C551 C 0.34881 0.81484 0.73415 0.0
O552 O 0.35105 0.91866 0.77107 0.0
O553 O 0.39735 0.90608 0.7706 0.0
O554 O 0.33787 0.88339 0.82777 0.0
O555 O 0.33514 0.83832 0.84795 0.0
O556 O 0.28608 0.83242 0.78955 0.0
O557 O 0.30681 0.86067 0.75262 0.0
C558 C 0.40369 0.83373 0.81835 0.0
O559 O 0.32653 0.77449 0.83244 0.0
O560 O 0.28598 0.77673 0.79814 0.0
C561 C 0.39569 0.95259 0.79571 0.0
C562 C 0.40214 0.99645 0.84589 0.0
C563 C 0.39599 1.0033 0.81432 0.0
C564 C 0.39275 0.98147 0.7894 0.0
C565 C 0.40514 0.9465 0.82693 0.0
C566 C 0.40841 0.96831 0.85185 0.0
C567 C 0.38187 0.92794 0.77173 0.0
H568 H 0.3048 0.66332 0.83352 0.0
H569 H 0.299 0.71321 0.85208 0.0
H570 H 0.29735 0.73904 0.7566 0.0
H571 H 0.30298 0.68951 0.7381 0.0
H572 H 0.39066 1.02469 0.80895 0.0
H573 H 0.38517 0.98648 0.76554 0.0
H574 H 0.40724 0.9242 0.83235 0.0
H575 H 0.41317 0.96246 0.8759 0.0
Tb576 Tb 0.60547 0.07655 0.07254 0.0
Eu577 Eu 0.57155 0.09145 1.00706 0.0
C578 C 0.59692 1.02568 1.01594 0.0
C579 C 0.64632 0.11399 0.02861 0.0
C580 C 0.61236 0.08685 0.15455 0.0
C581 C 0.61717 0.11493 0.20523 0.0
C582 C 0.63034 0.09813 0.18375 0.0
C583 C 0.58124 0.09244 0.1471 0.0
C584 C 0.56849 0.10964 0.16796 0.0
C585 C 0.58616 0.12112 0.19733 0.0
C586 C 0.62659 0.07351 0.12924 0.0
O587 O 0.58994 0.12047 0.08273 0.0
O588 O 0.57909 0.13739 0.03422 0.0
O589 O 0.53313 0.08153 0.0377 0.0
O590 O 0.55683 0.05044 0.06711 0.0
C591 C 0.58436 0.14259 0.06531 0.0
O592 O 0.57113 0.09605 0.95666 0.0
O593 O 0.52835 0.09859 0.97828 0.0
O594 O 0.58015 0.04269 0.99923 0.0
O595 O 0.61164 0.03599 0.04469 0.0
O596 O 0.64507 0.09181 0.04654 0.0
O597 O 0.6203 0.12011 1.01327 0.0
C598 C 0.53101 0.05953 0.05551 0.0
O599 O 0.60745 0.0515 0.11201 0.0
O600 O 0.64059 0.09266 0.11173 0.0
C601 C 0.52165 0.0742 0.92761 0.0
C602 C 0.49847 0.03 0.8779 0.0
C603 C 0.50254 0.06021 0.87226 0.0
C604 C 0.51419 0.08215 0.89698 0.0
C605 C 0.51459 0.04433 0.93393 0.0
C606 C 0.50292 1.02234 0.90922 0.0
C607 C 0.54043 0.0964 0.95194 0.0
H608 H 0.63127 0.12305 0.2279 0.0
H609 H 0.65461 0.09448 0.18964 0.0
H610 H 0.56706 0.08443 0.12444 0.0
H611 H 0.54497 0.11447 0.16059 0.0
H612 H 0.49968 0.06697 0.84843 0.0
H613 H 0.51944 0.10514 0.89182 0.0
H614 H 0.52005 0.0379 0.95765 0.0
H615 H 0.49964 0.99931 0.91432 0.0
Tb616 Tb 0.35437 0.35795 0.31117 0.0
Eu617 Eu 0.32471 0.29481 0.27331 0.0
C618 C 0.35482 0.29904 0.34963 0.0
C619 C 0.40082 0.32853 0.26995 0.0
C620 C 0.3439 0.42814 0.34405 0.0
C621 C 0.29189 0.43129 0.36016 0.0
C622 C 0.32058 0.42065 0.36424 0.0
C623 C 0.33968 0.4495 0.3226 0.0
C624 C 0.31095 0.46 0.31844 0.0
C625 C 0.28603 0.4496 0.3359 0.0
C626 C 0.3677 0.40904 0.33979 0.0
O627 O 0.34215 0.36986 0.26176 0.0
O628 O 0.31574 0.32611 0.23445 0.0
O629 O 0.28332 0.30263 0.30031 0.0
O630 O 0.30278 0.35081 0.31933 0.0
C631 C 0.32754 0.35481 0.23486 0.0
O632 O 0.33472 0.25536 0.24935 0.0
O633 O 0.28556 0.25792 0.2536 0.0
O634 O 0.33895 0.28297 0.32396 0.0
O635 O 0.36617 0.32769 0.34822 0.0
O636 O 0.39834 0.34952 0.29167 0.0
O637 O 0.37624 0.30643 0.26077 0.0
C638 C 0.27985 0.32674 0.31667 0.0
O639 O 0.36466 0.38485 0.35424 0.0
O640 O 0.37224 0.40363 0.31073 0.0
C641 C 0.30357 0.21291 0.26327 0.0
C642 C 0.3303 0.17659 0.30501 0.0
C643 C 0.33312 0.17341 0.27268 0.0
C644 C 0.31966 0.19143 0.25184 0.0
C645 C 0.29607 0.21234 0.29434 0.0
C646 C 0.30911 0.19392 0.31501 0.0
C647 C 0.30543 0.24062 0.24755 0.0
H648 H 0.27345 0.42368 0.37462 0.0
H649 H 0.3232 0.40462 0.38143 0.0
H650 H 0.3573 0.45597 0.30693 0.0
H651 H 0.3073 0.4743 0.29967 0.0
H652 H 0.34921 0.16003 0.26429 0.0
H653 H 0.32573 0.19147 0.228 0.0
H654 H 0.28355 0.22855 0.30379 0.0
H655 H 0.3057 0.19571 0.33964 0.0
Tb656 Tb 0.60168 0.57142 1.01477 0.0
Eu657 Eu 0.60469 0.60237 0.08199 0.0
C658 C 0.66823 0.60778 0.0473 0.0
C659 C 0.60638 0.53016 0.07423 0.0
C660 C 0.58445 0.55158 0.92899 0.0
C661 C 0.57299 0.53773 0.87287 0.0
C662 C 0.58912 0.53461 0.90244 0.0
C663 C 0.56377 0.57189 0.92595 0.0
C664 C 0.54759 0.57502 0.89638 0.0
C665 C 0.55204 0.5579 0.86962 0.0
C666 C 0.60097 0.54786 0.95985 0.0
O667 O 0.54978 0.56859 0.01867 0.0
O668 O 0.55337 0.57577 0.07228 0.0
O669 O 0.5928 0.63985 0.05131 0.0
O670 O 0.59965 0.6186 1.00353 0.0
C671 C 0.5361 0.56612 0.04475 0.0
O672 O 0.58525 0.61525 0.12474 0.0
O673 O 0.63593 0.62804 0.12164 0.0
O674 O 0.65127 0.62214 0.06382 0.0
O675 O 0.65393 0.58185 0.03281 0.0
O676 O 0.5998 0.53195 0.04337 0.0
O677 O 0.61392 0.55524 0.09295 0.0
C678 C 0.59587 0.64236 0.02102 0.0
O679 O 0.62213 0.57072 0.97275 0.0
O680 O 0.58252 0.53669 0.9798 0.0
C681 C 0.62337 0.61435 0.16988 0.0
C682 C 0.66165 0.59116 0.21626 0.0
C683 C 0.66357 0.62192 0.21615 0.0
C684 C 0.64451 0.63344 0.19312 0.0
C685 C 0.61933 0.58355 0.17159 0.0
C686 C 0.6383 0.57198 0.19482 0.0
C687 C 0.61377 0.62618 0.14001 0.0
H688 H 0.57642 0.52394 0.85265 0.0
H689 H 0.60499 0.5188 0.90462 0.0
H690 H 0.56008 0.58517 0.94645 0.0
H691 H 0.53175 0.59084 0.89441 0.0
H692 H 0.6809 0.63711 0.23301 0.0
H693 H 0.64823 0.65723 0.19187 0.0
H694 H 0.60338 0.56848 0.15356 0.0
H695 H 0.63623 0.54818 0.19469 0.0
Tb696 Tb 0.8295 0.31306 0.30878 0.0
Eu697 Eu 0.85922 0.37723 0.2862 0.0
C698 C 0.83763 0.36915 0.3569 0.0
C699 C 0.78192 0.34873 0.26831 0.0
C700 C 0.82138 0.23441 0.32063 0.0
C701 C 0.81403 0.18086 0.31725 0.0
C702 C 0.802 0.2067 0.32244 0.0
C703 C 0.85302 0.23624 0.3144 0.0
C704 C 0.86503 0.21059 0.30932 0.0
C705 C 0.84556 0.18261 0.31026 0.0
C706 C 0.80826 0.2614 0.32287 0.0
O707 O 0.84857 0.30383 0.26449 0.0
O708 O 0.85238 0.34774 0.24116 0.0
O709 O 0.90308 0.35687 0.30042 0.0
O710 O 0.88111 0.31965 0.32894 0.0
C711 C 0.85114 0.31904 0.23939 0.0
O712 O 0.85328 0.42192 0.27688 0.0
O713 O 0.89957 0.4098 0.27507 0.0
O714 O 0.85501 0.38482 0.33831 0.0
O715 O 0.8217 0.34228 0.34766 0.0
O716 O 0.78572 0.32785 0.28754 0.0
O717 O 0.80673 0.36868 0.26321 0.0
C718 C 0.90658 0.3365 0.32024 0.0
O719 O 0.82498 0.28248 0.34313 0.0
O720 O 0.79998 0.27132 0.29582 0.0
C721 C 0.89786 0.45667 0.29978 0.0
C722 C 0.90321 0.50135 0.34893 0.0
C723 C 0.89642 0.50731 0.31715 0.0
C724 C 0.89375 0.4851 0.29277 0.0
C725 C 0.90805 0.45153 0.33115 0.0
C726 C 0.91072 0.47375 0.35559 0.0
C727 C 0.88386 0.43147 0.27651 0.0
H728 H 0.79857 0.15956 0.31813 0.0
H729 H 0.77743 0.20505 0.32707 0.0
H730 H 0.86813 0.25752 0.31251 0.0
H731 H 0.88915 0.21269 0.30326 0.0
H732 H 0.89012 0.52823 0.31125 0.0
H733 H 0.88557 0.48937 0.26878 0.0
H734 H 0.9111 0.4296 0.3371 0.0
H735 H 0.91598 0.46858 0.37983 0.0
Tb736 Tb 0.11001 0.57642 0.56981 0.0
Eu737 Eu 0.06885 0.58718 0.50553 0.0
C738 C 0.09837 0.52515 0.51104 0.0
C739 C 0.14283 0.61408 0.52154 0.0
C740 C 0.12568 0.5735 0.65274 0.0
C741 C 0.12883 0.60443 0.70139 0.0
C742 C 0.14371 0.5939 0.67691 0.0
C743 C 0.0931 0.56242 0.65446 0.0
C744 C 0.07825 0.57314 0.67848 0.0
C745 C 0.09565 0.59489 0.70174 0.0
C746 C 0.13818 0.56884 0.62277 0.0
O747 O 0.10236 0.62279 0.5806 0.0
O748 O 0.06512 0.62796 0.53891 0.0
O749 O 0.04117 0.54947 0.52716 0.0
O750 O 0.05992 0.56753 0.57754 0.0
C751 C 0.08294 0.6389 0.56624 0.0
O752 O 0.06315 0.59465 0.45567 0.0
O753 O 1.02205 0.59136 0.48156 0.0
O754 O 0.08888 0.54489 0.49226 0.0
O755 O 0.10507 0.5325 0.54197 0.0
O756 O 0.1443 0.59112 0.53796 0.0
O757 O 0.11516 0.6197 0.50981 0.0
C758 C 0.03851 0.54993 0.5571 0.0
O759 O 0.12136 0.54715 0.60328 0.0
O760 O 0.14575 0.59278 0.60843 0.0
C761 C 1.01355 0.57042 0.42895 0.0
C762 C 0.99478 0.52818 0.37679 0.0
C763 C 0.99594 0.55853 0.37301 0.0
C764 C 1.00536 0.57949 0.39895 0.0
C765 C 1.00899 0.54008 0.43345 0.0
C766 C 0.99938 0.51905 0.40752 0.0
C767 C 1.032 0.59221 0.45387 0.0
H768 H 0.14306 0.62073 0.71937 0.0
H769 H 0.16878 0.60293 0.67587 0.0
H770 H 0.07832 0.54691 0.63604 0.0
H771 H 0.05262 0.56554 0.6776 0.0
H772 H 0.99277 0.5665 0.34975 0.0
H773 H 1.00878 0.60284 0.39516 0.0
H774 H 1.01519 0.53273 0.45661 0.0
H775 H 0.99809 0.49584 0.41126 0.0
Tb776 Tb 0.82102 0.83143 0.28055 0.0
Eu777 Eu 0.8915 0.82387 0.31113 0.0
C778 C 0.88023 0.87569 0.26566 0.0
C779 C 0.8635 0.7992 0.2366 0.0
C780 C 0.73838 0.83033 0.28268 0.0
C781 C 0.68508 0.80412 0.2877 0.0
C782 C 0.70721 0.81722 0.26886 0.0
C783 C 0.74674 0.83162 0.31558 0.0
C784 C 0.72491 0.81831 0.33427 0.0
C785 C 0.69418 0.80365 0.32043 0.0
C786 C 0.76414 0.83589 0.26325 0.0
O787 O 0.81241 0.79534 0.31094 0.0
O788 O 0.86093 0.78051 0.31769 0.0
O789 O 0.86726 0.83662 0.35354 0.0
O790 O 0.83247 0.86059 0.32575 0.0
C791 C 0.83012 0.77596 0.31941 0.0
O792 O 0.93287 0.80213 0.31547 0.0
O793 O 0.93401 0.84225 0.34491 0.0
O794 O 0.89752 0.86809 0.2902 0.0
O795 O 0.85122 0.86132 0.25525 0.0
O796 O 0.83541 0.80573 0.24102 0.0
O797 O 0.88829 0.80559 0.25936 0.0
C798 C 0.84719 0.85516 0.3533 0.0
O799 O 0.78695 0.85874 0.27314 0.0
O800 O 0.77553 0.81227 0.25655 0.0
C801 C 0.97947 0.83858 0.32178 0.0
C802 C 1.03316 0.86983 0.2983 0.0
C803 C 1.03699 0.85547 0.32634 0.0
C804 C 1.01021 0.84007 0.33813 0.0
C805 C 0.9756 0.85264 0.29381 0.0
C806 C 1.00209 0.8684 0.28236 0.0
C807 C 0.9508 0.824 0.33404 0.0
H808 H 0.66126 0.7935 0.27652 0.0
H809 H 0.70062 0.81561 0.24344 0.0
H810 H 0.77092 0.84104 0.32667 0.0
H811 H 0.73282 0.81807 0.35929 0.0
H812 H 0.06065 0.8557 0.3389 0.0
H813 H 1.01348 0.82936 0.35984 0.0
H814 H 0.95193 0.85157 0.2809 0.0
H815 H 0.99815 0.87953 0.26105 0.0
Tb816 Tb 0.86254 0.33796 0.81036 0.0
Eu817 Eu 0.8008 0.28779 0.77258 0.0
C818 C 0.80545 0.35896 0.77014 0.0
C819 C 0.81475 0.30067 0.84815 0.0
C820 C 0.93326 0.39924 0.84549 0.0
C821 C 0.96868 0.4396 0.87865 0.0
C822 C 0.94758 0.41235 0.87546 0.0
C823 C 0.94103 0.4132 0.81849 0.0
C824 C 0.96248 0.44047 0.82165 0.0
C825 C 0.97615 0.45418 0.85184 0.0
C826 C 0.9099 0.37137 0.84364 0.0
O827 O 0.87087 0.29396 0.81944 0.0
O828 O 0.84257 0.26459 0.77609 0.0
O829 O 0.8239 0.30963 0.73352 0.0
O830 O 0.87138 0.33748 0.7606 0.0
C831 C 0.86478 0.26942 0.80073 0.0
O832 O 0.77745 0.25259 0.73641 0.0
O833 O 0.74986 0.2686 0.77085 0.0
O834 O 0.78704 0.33281 0.77115 0.0
O835 O 0.83567 0.36551 0.78293 0.0
O836 O 0.82732 0.32789 0.84304 0.0
O837 O 0.80636 0.28017 0.82444 0.0
C838 C 0.85195 0.32726 0.73402 0.0
O839 O 0.88006 0.37352 0.84481 0.0
O840 O 0.91248 0.34995 0.8233 0.0
C841 C 0.73253 0.21833 0.74914 0.0
C842 C 0.69341 0.16119 0.74276 0.0
C843 C 0.72436 0.16543 0.73384 0.0
C844 C 0.74361 0.19377 0.73668 0.0
C845 C 0.70234 0.2137 0.75978 0.0
C846 C 0.68282 0.18551 0.75625 0.0
C847 C 0.75001 0.249 0.74751 0.0
H848 H 0.97876 0.44948 0.90217 0.0
H849 H 0.94196 0.40173 0.89655 0.0
H850 H 0.93011 0.40334 0.79513 0.0
H851 H 0.96736 0.45136 0.80055 0.0
H852 H 0.7331 0.14705 0.72329 0.0
H853 H 0.76667 0.19651 0.72811 0.0
H854 H 0.69321 0.23215 0.76964 0.0
H855 H 0.65927 0.18278 0.7638 0.0
Tb856 Tb 0.85326 0.85765 0.81177 0.0
Eu857 Eu 0.82341 0.79423 0.77455 0.0
C858 C 0.85512 0.79865 0.85024 0.0
C859 C 0.89948 0.8274 0.77059 0.0
C860 C 0.8437 0.92807 0.84529 0.0
C861 C 0.79244 0.93129 0.8631 0.0
C862 C 0.82108 0.92052 0.86618 0.0
C863 C 0.83893 0.9496 0.82421 0.0
C864 C 0.81021 0.96017 0.821 0.0
C865 C 0.78589 0.94967 0.83911 0.0
C866 C 0.86723 0.90894 0.84003 0.0
O867 O 0.84095 0.86912 0.76232 0.0
O868 O 0.81362 0.82535 0.73573 0.0
O869 O 0.78254 0.80243 0.80232 0.0
O870 O 0.80165 0.85098 0.81998 0.0
C871 C 0.82575 0.85394 0.73574 0.0
O872 O 0.83182 0.75577 0.74724 0.0
O873 O 0.78415 0.75639 0.75823 0.0
O874 O 0.84069 0.78215 0.8243 0.0
O875 O 0.86417 0.8277 0.84934 0.0
O876 O 0.89705 0.84874 0.79198 0.0
O877 O 0.87489 0.80523 0.76183 0.0
C878 C 0.7789 0.82683 0.8181 0.0
O879 O 0.86499 0.88486 0.85465 0.0
O880 O 0.87048 0.90335 0.81063 0.0
C881 C 0.80539 0.71249 0.76455 0.0
C882 C 0.83638 0.67737 0.80448 0.0
C883 C 0.83866 0.67546 0.77202 0.0
C884 C 0.82303 0.69282 0.75207 0.0
C885 C 0.79909 0.71074 0.79596 0.0
C886 C 0.81434 0.69298 0.81575 0.0
C887 C 0.80369 0.73999 0.74905 0.0
H888 H 0.77448 0.92363 0.87806 0.0
H889 H 0.82414 0.90436 0.8831 0.0
H890 H 0.85603 0.95612 0.80804 0.0
H891 H 0.80603 0.97453 0.80242 0.0
H892 H 0.85556 0.66345 0.76284 0.0
H893 H 0.82827 0.69381 0.72797 0.0
H894 H 0.78549 0.72555 0.80628 0.0
H895 H 0.81163 0.69393 0.84059 0.0
Tb896 Tb 0.53892 0.54527 0.50457 0.0
Eu897 Eu 0.59145 0.57306 0.56634 0.0
C898 C 0.61107 0.56535 0.49885 0.0
C899 C 0.56914 0.50504 0.54748 0.0
C900 C 0.46378 0.54285 0.46218 0.0
C901 C 0.43877 0.58562 0.45244 0.0
C902 C 0.45854 0.56623 0.44371 0.0
C903 C 0.44638 0.53771 0.48773 0.0
C904 C 0.42729 0.55729 0.4968 0.0
C905 C 0.42403 0.58221 0.48003 0.0
C906 C 0.49325 0.53025 0.46114 0.0
O907 O 0.51319 0.54449 0.54559 0.0
O908 O 0.54495 0.58198 0.57985 0.0
O909 O 0.58078 0.61328 0.5425 0.0
O910 O 0.53196 0.58991 0.51513 0.0
C911 C 0.51692 0.56489 0.56938 0.0
O912 O 0.60982 0.56941 0.61568 0.0
O913 O 0.63886 0.5977 0.58741 0.0
O914 O 0.61711 0.55785 0.52756 0.0
O915 O 0.58175 0.56655 0.48674 0.0
O916 O 0.56497 0.51015 0.51759 0.0
O917 O 0.56808 0.52593 0.56904 0.0
C918 C 0.55307 0.61407 0.52553 0.0
O919 O 0.5188 0.54964 0.45801 0.0
O920 O 0.49951 0.5128 0.48315 0.0
C921 C 0.66269 0.56298 0.61446 0.0
C922 C 0.70856 0.52615 0.61244 0.0
C923 C 0.71445 0.55146 0.63424 0.0
C924 C 0.69166 0.56987 0.63514 0.0
C925 C 0.65675 0.53753 0.59329 0.0
C926 C 0.67944 0.51962 0.59202 0.0
C927 C 0.63885 0.58241 0.61216 0.0
H928 H 0.43623 0.60396 0.4383 0.0
H929 H 0.47169 0.5709 0.42394 0.0
H930 H 0.44969 0.52005 0.50268 0.0
H931 H 0.41693 0.5537 0.51838 0.0
H932 H 0.73671 0.55714 0.65034 0.0
H933 H 0.69681 0.58954 0.65153 0.0
H934 H 0.63474 0.53188 0.57695 0.0
H935 H 0.67459 0.50121 0.57409 0.0
Tb936 Tb 0.09358 0.56362 0.01643 0.0
Eu937 Eu 0.12431 0.59894 0.08395 0.0
C938 C 0.09187 0.53003 0.0782 0.0
C939 C 0.05338 0.60635 0.05082 0.0
C940 C 0.05801 0.50629 0.95061 0.0
C941 C 1.03105 0.45591 0.95559 0.0
C942 C 0.03838 0.48584 0.96638 0.0
C943 C 0.06916 0.49641 0.9232 0.0
C944 C 0.06212 0.46633 0.91257 0.0
C945 C 0.04355 0.4456 0.92908 0.0
C946 C 0.06801 0.53756 0.96319 0.0
O947 O 0.12956 0.60161 1.00895 0.0
O948 O 0.12196 0.63275 0.04881 0.0
O949 O 0.16453 0.57682 0.06734 0.0
O950 O 0.13521 0.54167 0.02931 0.0
C951 C 0.12973 0.62851 0.0207 0.0
O952 O 0.16571 0.62792 0.11128 0.0
O953 O 0.1233 0.61251 0.13353 0.0
O954 O 0.11313 0.55166 0.09398 0.0
O955 O 0.07688 0.53238 0.05003 0.0
O956 O 0.06196 0.59648 0.02404 0.0
O957 O 0.0712 0.60404 0.07789 0.0
C958 C 0.16241 0.55249 0.04831 0.0
O959 O 0.052 0.54658 0.98459 0.0
O960 O 0.09879 0.54729 0.97068 0.0
C961 C 0.1531 0.66113 0.14873 0.0
C962 C 0.16049 0.72213 0.1658 0.0
C963 C 0.18667 0.70774 0.17112 0.0
C964 C 0.18298 0.67752 0.16264 0.0
C965 C 0.12665 0.67522 0.14391 0.0
C966 C 0.13032 0.70553 0.15247 0.0
C967 C 0.15118 0.63049 0.13609 0.0
H968 H 1.01588 0.44078 0.96835 0.0
H969 H 1.02915 0.4928 0.98746 0.0
H970 H 0.0841 0.51186 0.91052 0.0
H971 H 0.07229 0.45926 0.89215 0.0
H972 H 0.21034 0.72009 0.18069 0.0
H973 H 0.20376 0.66711 0.16585 0.0
H974 H 0.10344 0.66304 0.13271 0.0
H975 H 0.10971 0.71606 0.14826 0.0
C976 C 1.00789 0.17422 0.9963 0.0
C977 C 1.03163 0.19886 0.99361 0.0
H978 H 0.99764 0.1307 1.0115 0.0
C979 C 0.06306 0.20043 1.0089 0.0
H980 H 0.9835 0.17272 0.98487 0.0
C981 C 0.07151 0.17587 0.0231 0.0
C982 C 0.04841 0.14986 0.02241 0.0
H983 H 0.08181 0.21928 1.00688 0.0
H984 H 0.09646 0.1764 0.03206 0.0
C985 C 1.01615 0.15009 1.01108 0.0
C986 C 0.26959 0.88939 0.19438 0.0
C987 C 0.27117 0.91932 0.20435 0.0
H988 H 0.27915 0.84737 0.20698 0.0
C989 C 0.28806 0.93061 0.23428 0.0
H990 H 0.25646 0.87979 0.1717 0.0
C991 C 0.30141 0.91187 0.25451 0.0
C992 C 0.29695 0.88144 0.24548 0.0
H993 H 0.28922 0.95348 0.24271 0.0
H994 H 0.31386 0.92082 0.27766 0.0
C995 C 0.28184 0.87059 0.21493 0.0
C996 C 0.53817 0.85683 0.43405 0.0
C997 C 0.54255 0.84849 0.40299 0.0
H998 H 0.53697 0.89236 0.46815 0.0
C999 C 0.54753 0.87045 0.38169 0.0
H1000 H 0.53413 0.84048 0.45102 0.0
C1001 C 0.54905 0.9002 0.39155 0.0
C1002 C 0.54591 0.90856 0.42294 0.0
H1003 H 0.55077 0.86473 0.35754 0.0
H1004 H 0.55373 0.91675 0.37489 0.0
C1005 C 0.53996 0.88655 0.44394 0.0
C1006 C 0.61555 0.41932 0.78851 0.0
C1007 C 0.61608 0.41649 0.7557 0.0
H1008 H 0.58807 0.40995 0.82643 0.0
C1009 C 0.58745 0.40486 0.73553 0.0
H1010 H 0.63718 0.42855 0.80464 0.0
C1011 C 0.55958 0.39367 0.74802 0.0
C1012 C 0.55968 0.39429 0.78092 0.0
H1013 H 0.58704 0.40239 0.71013 0.0
H1014 H 0.53859 0.38285 0.73183 0.0
C1015 C 0.58754 0.40839 0.801 0.0
C1016 C 0.09598 0.96263 0.63068 0.0
C1017 C 0.09374 0.93586 0.61139 0.0
H1018 H 0.10046 1.01042 0.63467 0.0
C1019 C 0.09516 0.93982 0.57883 0.0
H1020 H 0.09513 0.96157 0.65578 0.0
C1021 C 0.09843 0.96847 0.56648 0.0
C1022 C 0.10054 0.99524 0.58579 0.0
H1023 H 0.09365 0.92055 0.56254 0.0
H1024 H 0.09906 0.96953 0.54136 0.0
C1025 C 0.09919 0.99124 0.61835 0.0
C1026 C 0.49616 0.85112 0.83859 0.0
C1027 C 0.50326 0.82986 0.8595 0.0
H1028 H 0.46059 0.86916 0.81011 0.0
C1029 C 0.47678 0.80889 0.86614 0.0
H1030 H 0.51534 0.86788 0.83274 0.0
C1031 C 0.44471 0.80927 0.85231 0.0
C1032 C 0.43779 0.83112 0.83198 0.0
H1033 H 0.4808 0.79215 0.88208 0.0
H1034 H 0.42523 0.79288 0.85823 0.0
C1035 C 0.46434 0.85193 0.82551 0.0
C1036 C 0.57951 0.22772 0.07943 0.0
C1037 C 0.58316 0.23313 0.11286 0.0
H1038 H 0.57677 0.19641 0.03859 0.0
C1039 C 0.58707 0.20794 0.12969 0.0
H1040 H 0.57637 0.24569 0.0649 0.0
C1041 C 0.58738 0.17953 0.11458 0.0
C1042 C 0.58361 0.1739 0.08132 0.0
H1043 H 0.59005 0.21004 0.15528 0.0
H1044 H 0.59064 0.16174 0.12934 0.0
C1045 C 0.57967 0.19895 0.06416 0.0
C1046 C 0.19658 0.30117 0.34656 0.0
C1047 C 0.19364 0.32524 0.36754 0.0
H1048 H 0.22459 0.28247 0.31464 0.0
C1049 C 0.21936 0.35001 0.37077 0.0
H1050 H 0.17781 0.28152 0.34296 0.0
C1051 C 0.24645 0.3506 0.3542 0.0
C1052 C 0.24955 0.32655 0.33334 0.0
H1053 H 0.21871 0.36921 0.38639 0.0
H1054 H 0.2654 0.37 0.35818 0.0
C1055 C 0.22377 0.30177 0.33003 0.0
C1056 C 0.94182 0.05423 0.1035 0.0
C1057 C 0.94504 0.07921 0.12488 0.0
H1058 H 0.96394 0.03231 0.06925 0.0
C1059 C 0.96822 0.10447 0.12234 0.0
H1060 H 0.92422 0.03443 0.1053 0.0
C1061 C 0.99154 0.10296 0.10271 0.0
C1062 C 0.9914 0.07635 0.085 0.0
H1063 H 0.97097 0.12397 0.13868 0.0
H1064 H 1.01098 0.12184 0.10328 0.0
C1065 C 0.965 0.05282 0.08347 0.0
C1066 C 0.32673 0.7537 0.41075 0.0
C1067 C 0.33099 0.77387 0.43763 0.0
H1068 H 0.32144 0.74692 0.36043 0.0
C1069 C 0.33331 0.80421 0.43316 0.0
H1070 H 0.32457 0.73016 0.41312 0.0
C1071 C 0.33192 0.81404 0.40248 0.0
C1072 C 0.32732 0.79363 0.37564 0.0
H1073 H 0.33648 0.82034 0.45333 0.0
H1074 H 0.33429 0.83753 0.39978 0.0
C1075 C 0.32461 0.76336 0.38034 0.0
C1076 C 0.5592 0.96779 0.63177 0.0
C1077 C 0.58843 0.96076 0.64515 0.0
H1078 H 0.53688 0.99534 0.6007 0.0
C1079 C 0.6162 0.97013 0.63124 0.0
H1080 H 0.53725 0.96037 0.64162 0.0
C1081 C 0.61587 0.99008 0.60805 0.0
C1082 C 0.58769 1.00036 0.59801 0.0
H1083 H 0.63897 0.96475 0.64058 0.0
H1084 H 0.63832 0.99945 0.59996 0.0
C1085 C 0.55886 0.98769 0.60832 0.0
C1086 C 0.31664 0.40612 0.91127 0.0
C1087 C 0.33251 0.4016 0.9412 0.0
H1088 H 0.30781 0.39533 0.86087 0.0
C1089 C 0.35233 0.38018 0.94126 0.0
H1090 H 0.30119 0.42229 0.9096 0.0
C1091 C 0.35666 0.36479 0.91255 0.0
C1092 C 0.34105 0.36984 0.88259 0.0
H1093 H 0.36543 0.37602 0.96334 0.0
H1094 H 0.37258 0.34903 0.91386 0.0
C1095 C 0.32055 0.39055 0.88288 0.0
C1096 C 1.03312 0.08234 0.30037 0.0
C1097 C 0.03923 0.06551 0.2742 0.0
H1098 H 0.04643 0.09618 0.34938 0.0
C1099 C 0.06746 0.0538 0.27629 0.0
H1100 H 1.01183 0.09205 0.29927 0.0
C1101 C 0.0875 0.05632 0.30507 0.0
C1102 C 0.07969 0.07082 0.33198 0.0
H1103 H 0.07298 0.04101 0.25633 0.0
H1104 H 0.10786 0.04528 0.3068 0.0
C1105 C 0.05325 0.08508 0.32898 0.0
C1106 C 0.3483 0.79823 0.64501 0.0
C1107 C 0.34307 0.76704 0.64226 0.0
H1108 H 0.35438 0.83799 0.67616 0.0
C1109 C 0.3427 0.75242 0.67031 0.0
H1110 H 0.34869 0.81028 0.62405 0.0
C1111 C 0.34571 0.76808 0.69984 0.0
C1112 C 0.34946 0.79908 0.70267 0.0
H1113 H 0.33916 0.72848 0.66952 0.0
H1114 H 0.34439 0.75566 0.72051 0.0
C1115 C 0.35153 0.81409 0.67492 0.0
C1116 C 0.52753 0.97564 0.82589 0.0
C1117 C 0.51443 0.98236 0.79606 0.0
H1118 H 0.53219 0.98532 0.87574 0.0
C1119 C 0.48886 0.99779 0.79405 0.0
H1120 H 0.54674 0.9632 0.82824 0.0
C1121 C 0.48048 1.01057 0.8214 0.0
C1122 C 0.49718 1.00771 0.8511 0.0
H1123 H 0.47761 1.00273 0.77139 0.0
H1124 H 0.46328 1.02511 0.81909 0.0
C1125 C 0.51893 0.98818 0.85323 0.0
C1126 C 0.34248 0.41515 0.17475 0.0
C1127 C 0.32666 0.40104 0.14515 0.0
H1128 H 0.35494 0.41273 0.22489 0.0
C1129 C 0.31025 0.3714 0.14578 0.0
H1130 H 0.35544 0.43781 0.17603 0.0
C1131 C 0.31008 0.35666 0.17433 0.0
C1132 C 0.32601 0.37084 0.20394 0.0
H1133 H 0.29765 0.3593 0.12399 0.0
H1134 H 0.29746 0.33389 0.17307 0.0
C1135 C 0.34208 0.40056 0.20324 0.0
C1136 C 0.23969 0.96591 0.0892 0.0
C1137 C 0.273 0.97623 0.09237 0.0
H1138 H 0.19394 0.97654 0.09473 0.0
C1139 C 0.28584 1.00493 0.10676 0.0
H1140 H 0.2291 0.94388 0.07835 0.0
C1141 C 0.26584 1.02341 0.11651 0.0
C1142 C 0.23237 1.01382 0.11194 0.0
H1143 H 0.3115 1.01342 0.11009 0.0
H1144 H 0.27666 0.04545 0.12719 0.0
C1145 C 0.21958 0.98459 0.0988 0.0
C1146 C 0.74466 0.66777 0.04822 0.0
C1147 C 0.76784 0.65209 0.03886 0.0
H1148 H 0.69659 0.66661 0.05857 0.0
C1149 C 0.75771 0.62106 0.03204 0.0
H1150 H 0.75103 0.69153 0.05387 0.0
C1151 C 0.72567 0.60652 0.03423 0.0
C1152 C 0.70274 0.62235 0.04413 0.0
H1153 H 0.77452 0.60794 0.02477 0.0
H1154 H 0.71902 0.58279 0.02858 0.0
C1155 C 0.71311 0.65327 0.05109 0.0
C1156 C 0.85275 0.52609 0.40629 0.0
C1157 C 0.8567 0.55632 0.40133 0.0
H1158 H 0.86534 0.4847 0.39357 0.0
C1159 C 0.88331 0.56946 0.3873 0.0
H1160 H 0.83279 0.51539 0.41744 0.0
C1161 C 0.90199 0.55176 0.37347 0.0
C1162 C 0.89452 0.52083 0.37392 0.0
H1163 H 0.88736 0.59283 0.38358 0.0
H1164 H 0.91994 0.56187 0.35959 0.0
C1165 C 0.8716 0.50847 0.39271 0.0
C1166 C 0.95844 0.52748 0.58426 0.0
C1167 C 0.94881 0.49855 0.56949 0.0
H1168 H 0.99564 0.56643 0.59297 0.0
C1169 C 0.97106 0.48507 0.55561 0.0
H1170 H 0.94143 0.53825 0.59496 0.0
C1171 C 1.00159 0.50142 0.55373 0.0
C1172 C 1.01042 0.53104 0.56656 0.0
H1173 H 0.96397 0.46292 0.54381 0.0
H1174 H 1.01765 0.49151 0.54064 0.0
C1175 C 0.98932 0.54353 0.58323 0.0
C1176 C 0.40694 0.18997 0.36124 0.0
C1177 C 0.41688 0.16284 0.35695 0.0
H1178 H 0.37126 0.21532 0.34778 0.0
C1179 C 0.39473 0.13832 0.34108 0.0
H1180 H 0.42339 0.20925 0.37327 0.0
C1181 C 0.36472 0.14184 0.32641 0.0
C1182 C 0.35613 0.16974 0.32807 0.0
H1183 H 0.4016 0.11702 0.33744 0.0
H1184 H 0.34928 0.12339 0.31186 0.0
C1185 C 0.37683 0.19336 0.3469 0.0
C1186 C 0.47769 0.14257 0.5243 0.0
C1187 C 0.46294 0.14613 0.55179 0.0
H1188 H 0.51506 0.12627 0.5026 0.0
C1189 C 0.47757 0.13563 0.57941 0.0
H1190 H 0.46765 0.14994 0.50236 0.0
C1191 C 0.50523 0.12249 0.57974 0.0
C1192 C 0.51962 0.11825 0.55225 0.0
H1193 H 0.46757 0.13765 0.6013 0.0
H1194 H 0.51509 0.11513 0.60177 0.0
C1195 C 0.50508 0.12867 0.52445 0.0
C1196 C 0.76626 0.71216 0.33526 0.0
C1197 C 0.78485 0.69284 0.34899 0.0
H1198 H 0.76593 0.75365 0.31552 0.0
C1199 C 0.81841 0.70192 0.35482 0.0
H1200 H 0.74033 0.70586 0.33062 0.0
C1201 C 0.83316 0.72919 0.34576 0.0
C1202 C 0.8146 0.74809 0.33111 0.0
H1203 H 0.83338 0.68748 0.36528 0.0
H1204 H 0.85913 0.73523 0.34979 0.0
C1205 C 0.78096 0.73957 0.32662 0.0
C1206 C 1.00539 0.53523 0.87945 0.0
C1207 C 1.02641 0.54459 0.85772 0.0
H1208 H 0.97303 0.49952 0.89452 0.0
C1209 C 1.03365 0.52333 0.83623 0.0
H1210 H 0.99958 0.55103 0.89653 0.0
C1211 C 1.01831 0.49361 0.83503 0.0
C1212 C 0.99576 0.48464 0.85552 0.0
H1213 H 0.04982 0.52988 0.81923 0.0
H1214 H 1.02342 0.47782 0.81752 0.0
C1215 C 0.9903 0.50561 0.87841 0.0
C1216 C 0.12552 0.9572 0.07085 0.0
C1217 C 0.11954 0.95275 0.10198 0.0
H1218 H 0.1146 0.98007 0.02963 0.0
C1219 C 0.09312 0.96209 0.11272 0.0
H1220 H 0.14552 0.9497 0.06191 0.0
C1221 C 0.07485 0.97814 0.09401 0.0
C1222 C 0.08314 0.98593 0.06447 0.0
H1223 H 0.08754 0.9583 0.13635 0.0
H1224 H 0.05595 0.98678 0.1039 0.0
C1225 C 0.10756 0.97411 0.05221 0.0
C1226 C 0.91815 0.23244 0.85225 0.0
C1227 C 0.94069 0.22893 0.83181 0.0
H1228 H 0.87503 0.24826 0.85761 0.0
C1229 C 0.93178 0.22923 0.799 0.0
H1230 H 0.92392 0.23171 0.87754 0.0
C1231 C 0.9035 0.23847 0.78758 0.0
C1232 C 0.88413 0.24727 0.80895 0.0
H1233 H 0.94836 0.22589 0.78255 0.0
H1234 H 0.89909 0.24235 0.76283 0.0
C1235 C 0.89011 0.24189 0.84086 0.0
C1236 C 0.65437 0.30273 0.65843 0.0
C1237 C 0.6735 0.31628 0.68654 0.0
H1238 H 0.6339 0.26213 0.63019 0.0
C1239 C 0.68525 0.29837 0.70881 0.0
H1240 H 0.64485 0.31589 0.64078 0.0
C1241 C 0.67864 0.26767 0.70276 0.0
C1242 C 0.66034 0.25413 0.67441 0.0
H1243 H 0.69988 0.30801 0.73078 0.0
H1244 H 0.68802 0.25448 0.7202 0.0
C1245 C 0.64785 0.27193 0.65243 0.0
C1246 C 0.6315 0.74425 0.34592 0.0
C1247 C 0.62858 0.75643 0.37601 0.0
H1248 H 0.6549 0.74958 0.30478 0.0
C1249 C 0.64922 0.78291 0.38882 0.0
H1250 H 0.61589 0.72378 0.33561 0.0
C1251 C 0.67071 0.79813 0.37084 0.0
C1252 C 0.67238 0.78685 0.33999 0.0
H1253 H 0.64735 0.79293 0.41189 0.0
H1254 H 0.68503 0.81934 0.38066 0.0
C1255 C 0.65335 0.75929 0.32809 0.0
C1256 C 0.1098 0.22658 0.50993 0.0
C1257 C 0.10193 0.2294 0.47712 0.0
H1258 H 0.11386 0.19819 0.5483 0.0
C1259 C 0.09192 0.20181 0.45836 0.0
H1260 H 0.11763 0.24647 0.52587 0.0
C1261 C 0.09024 0.17351 0.47137 0.0
C1262 C 0.09775 0.17071 0.50425 0.0
H1263 H 0.08557 0.20199 0.43308 0.0
H1264 H 0.08273 0.15363 0.45538 0.0
C1265 C 0.1075 0.19831 0.52302 0.0
C1266 C 0.6893 0.33481 0.2454 0.0
C1267 C 0.6853 0.34875 0.21702 0.0
H1268 H 0.72196 0.32335 0.28325 0.0
C1269 C 0.71358 0.36324 0.20628 0.0
H1270 H 0.66844 0.32322 0.25457 0.0
C1271 C 0.74445 0.36384 0.22317 0.0
C1272 C 0.74853 0.34936 0.25119 0.0
H1273 H 0.7119 0.37421 0.18461 0.0
H1274 H 0.76528 0.37519 0.21376 0.0
C1275 C 0.72024 0.33481 0.26191 0.0
C1276 C 0.58907 0.95601 0.95575 0.0
C1277 C 0.60166 0.93425 0.97305 0.0
H1278 H 0.57736 0.9996 0.95446 0.0
C1279 C 0.61252 0.94322 1.00555 0.0
H1280 H 0.58024 0.95097 0.93081 0.0
C1281 C 0.61133 0.97234 0.01938 0.0
C1282 C 0.59879 0.994 1.00168 0.0
H1283 H 0.62272 0.92807 0.02028 0.0
H1284 H 0.62033 0.97785 0.04422 0.0
C1285 C 0.58742 0.98458 0.96952 0.0
C1286 C 0.97852 0.85364 0.73279 0.0
C1287 C 0.98664 0.82669 0.72176 0.0
H1288 H 0.94638 0.87539 0.75725 0.0
C1289 C 0.96584 0.80052 0.72784 0.0
H1290 H 0.99359 0.87446 0.72924 0.0
C1291 C 0.93839 0.80104 0.74341 0.0
C1292 C 0.93043 0.82776 0.755 0.0
H1293 H 0.97064 0.77913 0.72021 0.0
H1294 H 0.9234 0.78009 0.74668 0.0
C1295 C 0.95135 0.85415 0.74936 0.0
C1296 C 0.19531 0.07582 0.96995 0.0
C1297 C 0.19166 0.09661 0.94766 0.0
H1298 H 0.17405 0.05134 1.00587 0.0
C1299 C 0.16573 0.11143 0.94735 0.0
H1300 H 0.21504 0.06404 0.9706 0.0
C1301 C 0.14224 0.1037 0.96657 0.0
C1302 C 0.14438 0.08136 0.98707 0.0
H1303 H 0.16256 0.12794 0.93083 0.0
H1304 H 0.12186 0.11473 0.96474 0.0
C1305 C 0.17177 0.06836 0.9898 0.0
C1306 C 0.88335 0.38048 0.67532 0.0
C1307 C 0.86353 0.36846 0.64697 0.0
H1308 H 0.89577 0.37678 0.72492 0.0
C1309 C 0.84293 0.34091 0.64691 0.0
H1310 H 0.89954 0.40167 0.67628 0.0
C1311 C 0.84075 0.32665 0.67482 0.0
C1312 C 0.85924 0.33944 0.7036 0.0
H1313 H 0.82732 0.33095 0.62559 0.0
H1314 H 0.8235 0.30612 0.67404 0.0
C1315 C 0.88131 0.36611 0.70326 0.0
C1316 C 0.58463 0.16953 0.46514 0.0
C1317 C 0.60176 0.1668 0.43948 0.0
H1318 H 0.5795 0.15871 0.51243 0.0
C1319 C 0.63149 0.15763 0.44459 0.0
H1320 H 0.56191 0.17692 0.46211 0.0
C1321 C 0.64114 0.1467 0.47311 0.0
C1322 C 0.62179 0.1458 0.4972 0.0
H1323 H 0.6457 0.15583 0.42556 0.0
H1324 H 0.66214 0.13653 0.47527 0.0
C1325 C 0.5948 0.15927 0.49403 0.0
C1326 C 0.89184 0.74907 0.17419 0.0
C1327 C 0.87308 0.75244 0.14546 0.0
H1328 H 0.90441 0.76117 0.22429 0.0
C1329 C 0.85156 0.7722 0.14699 0.0
H1330 H 0.90842 0.7339 0.17441 0.0
C1331 C 0.84837 0.78719 0.17621 0.0
C1332 C 0.86721 0.78374 0.20495 0.0
H1333 H 0.83619 0.77517 0.1258 0.0
H1334 H 0.83099 0.80156 0.17626 0.0
C1335 C 0.88944 0.76475 0.20307 0.0
C1336 C 0.24407 0.09053 0.76569 0.0
C1337 C 0.23284 0.07069 0.78732 0.0
H1338 H 0.23177 0.11315 0.72499 0.0
C1339 C 0.20085 0.05525 0.78171 0.0
H1340 H 0.26859 0.10278 0.76939 0.0
C1341 C 0.17974 0.0614 0.75653 0.0
C1342 C 0.19027 0.08314 0.73653 0.0
H1343 H 0.19158 0.03982 0.79801 0.0
H1344 H 0.15476 0.05046 0.75393 0.0
C1345 C 0.22289 0.0968 0.74057 0.0
C1346 C 0.83121 0.3757 0.4455 0.0
C1347 C 0.83899 0.40656 0.45303 0.0
H1348 H 0.82391 0.33971 0.40928 0.0
C1349 C 0.8457 0.42484 0.42846 0.0
H1350 H 0.82585 0.36094 0.46371 0.0
C1351 C 0.84512 0.41274 0.39746 0.0
C1352 C 0.83707 0.38194 0.38979 0.0
H1353 H 0.85195 0.44869 0.4333 0.0
H1354 H 0.85088 0.4276 0.37943 0.0
C1355 C 0.8299 0.36357 0.41421 0.0
C1356 C 0.52494 0.1464 0.24378 0.0
C1357 C 0.54431 0.16846 0.26548 0.0
H1358 H 0.52316 0.11311 0.20669 0.0
C1359 C 0.57701 0.17709 0.26261 0.0
H1360 H 0.49971 0.13901 0.24555 0.0
C1361 C 0.59054 0.16249 0.23975 0.0
C1362 C 0.57164 0.13878 0.21964 0.0
H1363 H 0.59246 0.19408 0.27911 0.0
H1364 H 0.61593 0.16926 0.23844 0.0
C1365 C 0.53851 0.13146 0.22143 0.0
C1366 C 0.85423 0.73816 0.91069 0.0
C1367 C 0.86514 0.7541 0.94057 0.0
H1368 H 0.84247 0.73919 0.86036 0.0
C1369 C 0.87371 0.78535 0.94014 0.0
H1370 H 0.84724 0.71425 0.90921 0.0
C1371 C 0.87134 0.79975 0.9114 0.0
C1372 C 0.86005 0.78369 0.88155 0.0
H1373 H 0.88222 0.79888 0.96219 0.0
H1374 H 0.87794 0.82368 0.91274 0.0
C1375 C 0.85157 0.75258 0.88221 0.0
C1376 C 0.91412 0.14271 0.043 0.0
C1377 C 0.89949 0.16314 0.02629 0.0
H1378 H 0.93766 0.10575 0.04076 0.0
C1379 C 0.90027 0.16316 0.99349 0.0
H1380 H 0.91422 0.14223 0.0683 0.0
C1381 C 0.91328 0.14171 0.97748 0.0
C1382 C 0.92569 0.11991 0.99402 0.0
H1383 H 0.889 0.17846 0.97988 0.0
H1384 H 0.91232 0.14138 0.95205 0.0
C1385 C 0.92708 0.12145 0.02711 0.0
C1386 C 0.4458 0.53499 1.01528 0.0
C1387 C 0.43439 0.52132 0.04158 0.0
H1388 H 0.48579 0.55888 0.99513 0.0
C1389 C 0.45699 0.52302 0.06898 0.0
H1390 H 0.42958 0.5342 0.99355 0.0
C1391 C 0.48935 0.53802 0.0701 0.0
C1392 C 0.50084 0.55128 0.04361 0.0
H1393 H 0.44963 0.51291 0.08976 0.0
H1394 H 0.50565 0.53868 0.09175 0.0
C1395 C 0.47833 0.54924 0.01611 0.0
C1396 C 0.31517 0.60708 0.73262 0.0
C1397 C 0.34425 0.60181 0.7481 0.0
H1398 H 0.27924 0.63401 0.73231 0.0
C1399 C 0.35711 0.6168 0.77773 0.0
H1400 H 0.30479 0.59569 0.70976 0.0
C1401 C 0.34238 0.63824 0.79073 0.0
C1402 C 0.31475 0.64532 0.77412 0.0
H1403 H 0.37937 0.61288 0.79027 0.0
H1404 H 0.35394 0.65073 0.81271 0.0
C1405 C 0.30063 0.62894 0.74545 0.0
C1406 C 0.23042 0.64896 0.52852 0.0
C1407 C 0.22924 0.67805 0.52078 0.0
H1408 H 0.20422 0.60598 0.53449 0.0
C1409 C 0.19934 0.68562 0.51173 0.0
H1410 H 0.25312 0.64228 0.53541 0.0
C1411 C 0.1711 0.66444 0.51083 0.0
C1412 C 0.17244 0.63551 0.51921 0.0
H1413 H 0.19777 0.70778 0.50545 0.0
H1414 H 0.14824 0.67094 0.50433 0.0
C1415 C 0.20239 0.628 0.52787 0.0
C1416 C 0.69619 0.93337 0.81183 0.0
C1417 C 0.69138 0.9606 0.80107 0.0
H1418 H 0.73 0.90865 0.83251 0.0
C1419 C 0.71706 0.98511 0.80652 0.0
H1420 H 0.67689 0.91412 0.80808 0.0
C1421 C 0.74737 0.98204 0.82063 0.0
C1422 C 0.75271 0.95444 0.82977 0.0
H1423 H 0.7141 1.00654 0.79885 0.0
H1424 H 0.76692 1.00106 0.82344 0.0
C1425 C 0.72658 0.93032 0.82607 0.0
C1426 C 0.74263 0.02818 0.57445 0.0
C1427 C 0.74326 1.00457 0.55188 0.0
H1428 H 0.7171 0.06086 0.59173 0.0
C1429 C 0.71563 0.99638 0.52884 0.0
H1430 H 0.763 0.03554 0.59267 0.0
C1431 C 0.68883 1.01084 0.52849 0.0
C1432 C 0.6883 0.03465 0.55086 0.0
H1433 H 0.71455 0.97847 0.51093 0.0
H1434 H 0.66842 1.00334 0.51033 0.0
C1435 C 0.716 0.04293 0.57383 0.0
C1436 C 0.42253 0.43676 0.72668 0.0
C1437 C 0.39863 0.44962 0.71042 0.0
H1438 H 0.4328 0.40307 0.75658 0.0
C1439 C 0.36624 0.43654 0.70978 0.0
H1440 H 0.44769 0.44681 0.72795 0.0
C1441 C 0.35778 0.4114 0.72576 0.0
C1442 C 0.38155 0.39938 0.74339 0.0
H1443 H 0.34742 0.44626 0.69764 0.0
H1444 H 0.33253 0.40205 0.72526 0.0
C1445 C 0.41402 0.41203 0.7434 0.0
C1446 C 0.12418 0.60423 0.21719 0.0
C1447 C 0.13504 0.57835 0.22545 0.0
H1448 H 0.13599 0.65146 0.21629 0.0
C1449 C 0.16723 0.5807 0.23904 0.0
H1450 H 0.09958 0.60319 0.20665 0.0
C1451 C 0.18805 0.60821 0.24426 0.0
C1452 C 0.17711 0.63408 0.23645 0.0
H1453 H 0.17648 0.56123 0.24558 0.0
H1454 H 0.21266 0.60929 0.25483 0.0
C1455 C 0.14495 0.63185 0.22289 0.0
C1456 C 0.56113 0.69323 0.50428 0.0
C1457 C 0.53215 0.691 0.48393 0.0
H1458 H 0.59101 0.66999 0.53354 0.0
C1459 C 0.50833 0.66561 0.48246 0.0
H1460 H 0.57999 0.71267 0.50549 0.0
C1461 C 0.51423 0.64167 0.4989 0.0
C1462 C 0.54466 0.64226 0.51617 0.0
H1463 H 0.48608 0.6635 0.46666 0.0
H1464 H 0.49568 0.62186 0.49589 0.0
C1465 C 0.56751 0.66879 0.52016 0.0
C1466 C 0.76793 0.38532 0.69542 0.0
C1467 C 0.7703 0.4157 0.70371 0.0
H1468 H 0.77571 0.34359 0.71073 0.0
C1469 C 0.78698 0.42795 0.73344 0.0
H1470 H 0.75494 0.37501 0.67294 0.0
C1471 C 0.79918 0.40977 0.75515 0.0
C1472 C 0.79385 0.37901 0.74777 0.0
H1473 H 0.78876 0.45122 0.74058 0.0
H1474 H 0.81131 0.41948 0.77816 0.0
C1475 C 0.77909 0.36714 0.71739 0.0
C1476 C 1.03663 0.36301 0.9355 0.0
C1477 C 1.03453 0.35216 0.90381 0.0
H1478 H 0.04216 0.40082 0.96833 0.0
C1479 C 1.03363 0.37198 0.88013 0.0
H1480 H 0.03763 0.34835 0.95432 0.0
C1481 C 1.03551 0.4022 0.88812 0.0
C1482 C 0.0388 0.41325 0.91999 0.0
H1483 H 1.03167 0.36418 0.85545 0.0
H1484 H 1.0346 0.4169 0.86934 0.0
C1485 C 0.03902 0.39318 0.94351 0.0
C1486 C 0.089 0.89501 0.23915 0.0
C1487 C 0.11703 0.90894 0.25904 0.0
H1488 H 0.04111 0.87078 0.23597 0.0
C1489 C 0.1164 0.91247 0.29179 0.0
H1490 H 0.08877 0.89174 0.21383 0.0
C1491 C 0.08876 0.90078 0.30455 0.0
C1492 C 0.06139 0.88509 0.28481 0.0
H1493 H 0.13761 0.92332 0.30768 0.0
H1494 H 0.08911 0.90344 0.32992 0.0
C1495 C 0.06159 0.88298 0.25191 0.0
C1496 C 0.60437 0.46662 0.13315 0.0
C1497 C 0.59709 0.43955 0.11342 0.0
H1498 H 0.6132 0.51474 0.13752 0.0
C1499 C 0.5936 0.44324 0.08049 0.0
H1500 H 0.60744 0.46576 0.15856 0.0
C1501 C 0.59688 0.4719 0.0682 0.0
C1502 C 0.60414 0.49898 0.08792 0.0
H1503 H 0.58805 0.42376 0.06386 0.0
H1504 H 0.59352 0.47272 0.04279 0.0
C1505 C 0.60783 0.49528 0.12086 0.0
C1506 C 0.97876 0.31428 0.37181 0.0
C1507 C 1.0057 0.32985 0.35966 0.0
H1508 H 0.92703 0.30364 0.36918 0.0
C1509 C 0.99921 0.34669 0.3339 0.0
H1510 H 0.98232 0.30114 0.39163 0.0
C1511 C 0.96751 0.34843 0.32126 0.0
C1512 C 0.94052 0.33319 0.33347 0.0
H1513 H 1.01885 0.35923 0.32369 0.0
H1514 H 0.96424 0.36209 0.30183 0.0
C1515 C 0.94682 0.31576 0.35884 0.0
C1516 C 0.09514 0.70814 0.62794 0.0
C1517 C 0.08171 0.73019 0.61197 0.0
H1518 H 0.10637 0.66431 0.62731 0.0
C1519 C 0.06841 0.72143 0.57991 0.0
H1520 H 0.10575 0.71297 0.65246 0.0
C1521 C 0.06827 0.69231 0.56523 0.0
C1522 C 0.08185 0.67042 0.58154 0.0
H1523 H 0.05746 0.73683 0.56619 0.0
H1524 H 0.05756 0.68703 0.54079 0.0
C1525 C 0.09548 0.67956 0.61328 0.0
C1526 C 0.71794 0.85119 0.87128 0.0
C1527 C 0.69248 0.82624 0.8689 0.0
H1528 H 0.76384 0.871 0.85813 0.0
C1529 C 0.69585 0.80163 0.84886 0.0
H1530 H 0.71703 0.87079 0.88615 0.0
C1531 C 0.72307 0.80193 0.83239 0.0
C1532 C 0.74858 0.82689 0.83483 0.0
H1533 H 0.67733 0.78181 0.84591 0.0
H1534 H 0.72412 0.78225 0.81772 0.0
C1535 C 0.74512 0.85143 0.85482 0.0
C1536 C 0.46376 0.59786 0.6193 0.0
C1537 C 0.43728 0.57442 0.61733 0.0
H1538 H 0.51018 0.61293 0.60613 0.0
C1539 C 0.43478 0.54981 0.59561 0.0
H1540 H 0.46615 0.61701 0.63605 0.0
C1541 C 0.46031 0.54718 0.57892 0.0
C1542 C 0.48845 0.56915 0.58378 0.0
H1543 H 0.4148 0.53128 0.59403 0.0
H1544 H 0.45881 0.52708 0.56387 0.0
C1545 C 0.48925 0.5952 0.60278 0.0
C1546 C 0.82733 0.30276 0.93861 0.0
C1547 C 0.82242 0.27234 0.94325 0.0
H1548 H 0.82887 0.3358 0.90498 0.0
C1549 C 0.81323 0.25181 0.91651 0.0
H1550 H 0.83431 0.31917 0.95867 0.0
C1551 C 0.80949 0.26122 0.88606 0.0
C1552 C 0.81522 0.29154 0.88113 0.0
H1553 H 0.80893 0.22821 0.91904 0.0
H1554 H 0.80291 0.24449 0.86626 0.0
C1555 C 0.82405 0.31227 0.90784 0.0
C1556 C 0.11462 0.47059 0.12563 0.0
C1557 C 0.0874 0.46342 0.14095 0.0
H1558 H 0.13695 0.49783 0.09273 0.0
C1559 C 0.05865 0.47186 0.12839 0.0
H1560 H 0.13698 0.46406 0.13433 0.0
C1561 C 0.05867 0.49123 0.10441 0.0
C1562 C 0.08732 0.50184 0.09263 0.0
H1563 H 1.03705 0.46609 0.13929 0.0
H1564 H 0.03739 0.50025 0.0976 0.0
C1565 C 0.11463 0.48992 0.1018 0.0
C1566 C 0.82219 0.91122 0.41229 0.0
C1567 C 0.83335 0.9034 0.44266 0.0
H1568 H 0.81705 0.90276 0.36165 0.0
C1569 C 0.84848 0.87855 0.4432 0.0
H1570 H 0.81043 0.93005 0.41023 0.0
C1571 C 0.85293 0.86296 0.41466 0.0
C1572 C 0.84199 0.87117 0.38431 0.0
H1573 H 0.85782 0.87167 0.46568 0.0
H1574 H 0.8652 0.84444 0.41644 0.0
C1575 C 0.82607 0.89542 0.384 0.0
C1576 C 0.48371 0.55946 0.80521 0.0
C1577 C 0.49912 0.55846 0.77815 0.0
H1578 H 0.48853 0.55982 0.85561 0.0
C1579 C 0.53247 0.55981 0.78163 0.0
H1580 H 0.45804 0.5585 0.80326 0.0
C1581 C 0.54985 0.56071 0.8115 0.0
C1582 C 0.53421 0.56025 0.83843 0.0
H1583 H 0.54512 0.55942 0.76125 0.0
H1584 H 0.57545 0.5612 0.8135 0.0
C1585 C 0.50115 0.56033 0.83516 0.0
C1586 C 0.84803 0.30055 0.15018 0.0
C1587 C 0.84812 0.26997 0.1486 0.0
H1588 H 0.8489 0.34013 0.17994 0.0
C1589 C 0.85165 0.25654 0.1773 0.0
H1590 H 0.84525 0.31167 0.1287 0.0
C1591 C 0.85359 0.27266 0.20647 0.0
C1592 C 0.85219 0.30291 0.20818 0.0
H1593 H 0.85215 0.23312 0.17732 0.0
H1594 H 0.8555 0.26108 0.22772 0.0
C1595 C 0.85004 0.31683 0.17964 0.0
C1596 C 0.99008 0.50035 0.2917 0.0
C1597 C 1.01639 0.48588 0.29368 0.0
H1598 H 0.96223 0.52512 0.31687 0.0
C1599 C 1.02941 0.47882 0.32339 0.0
H1600 H 0.97896 0.50557 0.26912 0.0
C1601 C 1.0194 0.48972 0.35081 0.0
C1602 C 0.99629 0.50794 0.34895 0.0
H1603 H 0.0493 0.4672 0.32571 0.0
H1604 H 1.03234 0.48647 0.37334 0.0
C1605 C 0.9803 0.51147 0.31912 0.0
C1606 C 0.84027 0.9139 0.67537 0.0
C1607 C 0.82428 0.89968 0.6459 0.0
H1608 H 0.85304 0.91168 0.72546 0.0
C1609 C 0.80785 0.87007 0.64668 0.0
H1610 H 0.85325 0.93654 0.67651 0.0
C1611 C 0.80782 0.85546 0.67529 0.0
C1612 C 0.82396 0.86976 0.70476 0.0
H1613 H 0.79512 0.85792 0.62496 0.0
H1614 H 0.7952 0.83271 0.67419 0.0
C1615 C 0.84004 0.89944 0.7039 0.0
C1616 C 0.74544 0.45907 0.59432 0.0
C1617 C 0.7777 0.47217 0.59423 0.0
H1618 H 0.69858 0.46574 0.60095 0.0
C1619 C 0.78763 0.50278 0.6029 0.0
H1620 H 0.7371 0.43553 0.58811 0.0
C1621 C 0.76552 0.52013 0.61026 0.0
C1622 C 0.73295 0.50727 0.60913 0.0
H1623 H 0.81243 0.51357 0.60326 0.0
H1624 H 0.77376 0.5438 0.61548 0.0
C1625 C 0.72337 0.47642 0.60174 0.0
C1626 C 0.2463 0.16271 0.55896 0.0
C1627 C 0.26596 0.15101 0.53925 0.0
H1628 H 0.20102 0.15752 0.57726 0.0
C1629 C 0.25265 0.12329 0.52227 0.0
H1630 H 0.25533 0.18381 0.57263 0.0
C1631 C 0.22078 0.10839 0.52433 0.0
C1632 C 0.20129 0.12002 0.54436 0.0
H1633 H 0.26667 0.11332 0.50682 0.0
H1634 H 0.21146 0.08755 0.51029 0.0
C1635 C 0.21495 0.1474 0.56182 0.0
C1636 C 0.35309 1.02173 0.90441 0.0
C1637 C 0.35818 0.05217 0.90035 0.0
H1638 H 0.36398 0.97991 0.89041 0.0
C1639 C 0.38498 0.0649 0.88635 0.0
H1640 H 0.33296 1.01135 0.91552 0.0
C1641 C 0.40272 0.04679 0.87172 0.0
C1642 C 0.39413 1.01585 0.87136 0.0
H1643 H 0.3899 0.0884 0.88331 0.0
H1644 H 0.42089 0.05672 0.85797 0.0
C1645 C 0.37103 1.00369 0.89007 0.0
C1646 C 0.46269 0.99642 0.06422 0.0
C1647 C 0.43603 1.00901 0.05405 0.0
H1648 H 0.51418 1.00278 0.073 0.0
C1649 C 0.44113 0.03905 0.04791 0.0
H1650 H 0.4595 0.97342 0.06937 0.0
C1651 C 0.472 0.0557 0.05015 0.0
C1652 C 0.49876 0.04285 0.05859 0.0
H1653 H 0.4212 0.04976 0.04065 0.0
H1654 H 0.47488 0.07851 0.04428 0.0
C1655 C 0.49391 1.01326 0.06647 0.0
C1656 C 0.898 0.63726 0.84326 0.0
C1657 C 0.9225 0.66142 0.85596 0.0
H1658 H 0.85105 0.62338 0.81643 0.0
C1659 C 0.91592 0.69013 0.85617 0.0
H1660 H 0.90241 0.61484 0.84257 0.0
C1661 C 0.88642 0.69481 0.84161 0.0
C1662 C 0.86304 0.67092 0.82658 0.0
H1663 H 0.93431 0.70916 0.86557 0.0
H1664 H 0.88299 0.71737 0.83973 0.0
C1665 C 0.86862 0.64202 0.82825 0.0
C1666 C 0.98143 0.63748 0.07818 0.0
C1667 C 0.96664 0.64836 0.0509 0.0
H1668 H 1.0191 0.61686 0.09989 0.0
C1669 C 0.98141 0.64554 0.02329 0.0
H1670 H 0.97146 0.63894 0.10014 0.0
C1671 C 1.00899 0.63194 0.02303 0.0
C1672 C 1.0236 0.62107 0.05051 0.0
H1673 H 0.97125 0.65324 1.00159 0.0
H1674 H 1.019 0.63009 1.00113 0.0
C1675 C 1.00919 0.62459 0.07809 0.0
C1676 C 0.32442 0.20095 0.85515 0.0
C1677 C 0.29095 0.19333 0.85433 0.0
H1678 H 0.36412 0.23307 0.84488 0.0
C1679 C 0.2719 0.21387 0.84497 0.0
H1680 H 0.33962 0.1854 0.8621 0.0
C1681 C 0.28583 0.24107 0.83545 0.0
C1682 C 0.3191 0.24816 0.83459 0.0
H1683 H 0.24604 0.20862 0.84427 0.0
H1684 H 0.27024 0.25605 0.82767 0.0
C1685 C 0.33839 0.2281 0.84508 0.0
C1686 C 0.48554 0.04754 0.33719 0.0
C1687 C 0.51636 0.05702 0.32888 0.0
H1688 H 0.44747 1.01125 0.34044 0.0
C1689 C 0.53252 0.03573 0.31693 0.0
H1690 H 0.47234 0.06319 0.34659 0.0
C1691 C 0.51798 1.00561 0.3133 0.0
C1692 C 0.48695 0.99639 0.32124 0.0
H1693 H 0.55629 0.0423 0.31036 0.0
H1694 H 0.5308 0.98961 0.30395 0.0
C1695 C 0.47107 1.0177 0.3334 0.0
C1696 C 0.59158 0.45554 0.60744 0.0
C1697 C 0.61884 0.44779 0.5969 0.0
H1698 H 0.55269 0.47817 0.59834 0.0
C1699 C 0.62447 0.45221 0.5657 0.0
H1700 H 0.58634 0.45164 0.63115 0.0
C1701 C 0.60538 0.4681 0.54688 0.0
C1702 C 0.58024 0.47878 0.55909 0.0
H1703 H 0.6453 0.44604 0.55709 0.0
H1704 H 0.61232 0.47458 0.52442 0.0
C1705 C 0.57215 0.47043 0.58851 0.0
C1706 C 0.42607 0.73382 0.34244 0.0
C1707 C 0.44916 0.73072 0.32249 0.0
H1708 H 0.38301 0.74987 0.34745 0.0
C1709 C 0.44132 0.73253 0.28976 0.0
H1710 H 0.43105 0.73209 0.36764 0.0
C1711 C 0.41348 0.74243 0.27817 0.0
C1712 C 0.39343 0.75041 0.29926 0.0
H1713 H 0.45837 0.72966 0.27366 0.0
H1714 H 0.40985 0.74728 0.25365 0.0
C1715 C 0.3985 0.74396 0.3309 0.0
C1716 C 0.1906 0.7989 0.20698 0.0
C1717 C 0.17821 0.81675 0.18501 0.0
H1718 H 0.19379 0.75507 0.21828 0.0
C1719 C 0.15887 0.80315 0.15705 0.0
H1720 H 0.20544 0.80857 0.22884 0.0
C1721 C 0.15245 0.77235 0.15106 0.0
C1722 C 0.16527 0.7546 0.17289 0.0
H1723 H 0.14888 0.81628 0.13963 0.0
H1724 H 0.13812 0.76249 0.12901 0.0
C1725 C 0.18409 0.7682 0.20096 0.0
C1726 C 0.14414 0.28323 0.89215 0.0
C1727 C 0.1216 0.25749 0.88059 0.0
H1728 H 0.18245 0.31658 0.88226 0.0
C1729 C 0.12324 0.2434 0.85102 0.0
H1730 H 0.14333 0.29467 0.91482 0.0
C1731 C 0.14585 0.25585 0.83244 0.0
C1732 C 0.167 0.28268 0.84309 0.0
H1733 H 0.1062 0.22343 0.84168 0.0
H1734 H 0.14638 0.24474 0.80953 0.0
C1735 C 0.16648 0.29586 0.87344 0.0
C1736 C 0.59314 0.70398 0.96031 0.0
C1737 C 0.60059 0.73154 0.97919 0.0
H1738 H 0.5863 0.65595 0.95739 0.0
C1739 C 0.6059 0.72884 1.01228 0.0
H1740 H 0.58881 0.70409 0.93485 0.0
C1741 C 0.6036 0.7006 0.0255 0.0
C1742 C 0.59657 0.67306 1.00656 0.0
H1743 H 0.61166 0.74876 0.0283 0.0
H1744 H 0.60799 0.70046 0.05095 0.0
C1745 C 0.59162 0.67582 0.97347 0.0
C1746 C 0.18856 0.8359 0.74479 0.0
C1747 C 0.18387 0.84577 0.71418 0.0
H1748 H 0.22203 0.82796 0.78406 0.0
C1749 C 0.21184 0.85628 0.7006 0.0
H1750 H 0.16797 0.82744 0.75624 0.0
C1751 C 0.24301 0.85692 0.71678 0.0
C1752 C 0.24779 0.84665 0.74717 0.0
H1753 H 0.2097 0.86404 0.67717 0.0
H1754 H 0.26351 0.86511 0.70507 0.0
C1755 C 0.21982 0.83613 0.76084 0.0
C1756 C 0.10868 0.44105 0.50252 0.0
C1757 C 0.10439 0.43374 0.46934 0.0
H1758 H 0.11069 0.47428 0.54145 0.0
C1759 C 0.09803 0.45728 0.45083 0.0
H1760 H 0.11367 0.42443 0.51825 0.0
C1761 C 0.09613 0.48594 0.46412 0.0
C1762 C 0.10079 0.49357 0.49708 0.0
H1763 H 0.09429 0.45362 0.42529 0.0
H1764 H 0.09103 0.50236 0.44814 0.0
C1765 C 0.10707 0.47017 0.51596 0.0
C1766 C 0.46727 0.30273 0.22667 0.0
C1767 C 0.48834 0.32911 0.22165 0.0
H1768 H 0.42449 0.28175 0.24454 0.0
C1769 C 0.48034 0.35583 0.2335 0.0
H1770 H 0.47202 0.28151 0.21837 0.0
C1771 C 0.45298 0.35589 0.24987 0.0
C1772 C 0.43182 0.32929 0.25447 0.0
H1773 H 0.49564 0.37677 0.23079 0.0
H1774 H 0.4481 0.37695 0.25846 0.0
C1775 C 0.43967 0.30283 0.24205 0.0
C1776 C 0.69027 0.57439 0.46587 0.0
C1777 C 0.68527 0.59429 0.44293 0.0
H1778 H 0.67018 0.54927 0.50191 0.0
C1779 C 0.65748 0.60664 0.4412 0.0
H1780 H 0.71143 0.56447 0.46763 0.0
C1781 C 0.63383 0.59739 0.45982 0.0
C1782 C 0.63763 0.576 0.48115 0.0
H1783 H 0.65314 0.62242 0.42415 0.0
H1784 H 0.61221 0.60664 0.45705 0.0
C1785 C 0.66657 0.56544 0.48512 0.0
C1786 C 0.33917 0.84547 0.13848 0.0
C1787 C 0.36036 0.87258 0.13776 0.0
H1788 H 0.32087 0.81069 0.1662 0.0
C1789 C 0.38214 0.88383 0.16512 0.0
H1790 H 0.32204 0.83612 0.11793 0.0
C1791 C 0.38164 0.86909 0.19292 0.0
C1792 C 0.35918 0.84281 0.19414 0.0
H1793 H 0.3988 0.90467 0.16547 0.0
H1794 H 0.39777 0.87914 0.21389 0.0
C1795 C 0.33852 0.83086 0.16628 0.0
C1796 C 0.09039 0.67354 0.96549 0.0
C1797 C 0.10786 0.67073 0.94011 0.0
H1798 H 0.08481 0.66274 1.01266 0.0
C1799 C 0.13854 0.66352 0.94613 0.0
H1800 H 0.06701 0.67965 0.96183 0.0
C1801 C 0.14827 0.65314 0.97494 0.0
C1802 C 0.12809 0.65115 0.99836 0.0
H1803 H 0.15311 0.66195 0.92736 0.0
H1804 H 0.16973 0.64364 0.97758 0.0
C1805 C 0.10065 0.66394 0.99469 0.0
C1806 C 0.38864 0.27396 0.65591 0.0
C1807 C 0.36529 0.24866 0.64359 0.0
H1808 H 0.40611 0.30816 0.69436 0.0
C1809 C 0.34036 0.23984 0.66187 0.0
H1810 H 0.40848 0.28146 0.64306 0.0
C1811 C 0.33857 0.25549 0.69089 0.0
C1812 C 0.36225 0.28025 0.70379 0.0
H1813 H 0.32189 0.22052 0.65363 0.0
H1814 H 0.31877 0.24765 0.70367 0.0
C1815 C 0.3874 0.28918 0.68565 0.0
C1816 C 0.69669 0.55069 0.28177 0.0
C1817 C 0.72888 0.5658 0.28656 0.0
H1818 H 0.64983 0.54717 0.25561 0.0
C1819 C 0.73976 0.58531 0.26455 0.0
H1820 H 0.68775 0.53542 0.29837 0.0
C1821 C 0.71799 0.59228 0.24046 0.0
C1822 C 0.68518 0.57957 0.23782 0.0
H1823 H 0.76441 0.59722 0.26753 0.0
H1824 H 0.7265 0.60881 0.22491 0.0
C1825 C 0.67496 0.55751 0.25749 0.0
C1826 C 0.32778 0.92258 0.91851 0.0
C1827 C 0.33052 0.90638 0.94537 0.0
H1828 H 0.32754 0.92323 0.86838 0.0
C1829 C 0.3345 0.87686 0.94094 0.0
H1830 H 0.32485 0.94543 0.92083 0.0
C1831 C 0.3357 0.86398 0.91057 0.0
C1832 C 0.33335 0.88035 0.8838 0.0
H1833 H 0.33678 0.8637 0.96094 0.0
H1834 H 0.33889 0.84122 0.90818 0.0
C1835 C 0.32939 0.90985 0.88826 0.0
C1836 C 1.03508 0.60417 0.7569 0.0
C1837 C 0.04393 0.63445 0.76703 0.0
H1838 H 0.04568 0.56764 0.73015 0.0
C1839 C 0.06992 0.65181 0.75565 0.0
H1840 H 1.01572 0.59001 0.76601 0.0
C1841 C 0.08686 0.63904 0.73447 0.0
C1842 C 0.07849 0.60853 0.72492 0.0
H1843 H 0.07742 0.67514 0.76353 0.0
H1844 H 0.10638 0.65309 0.72554 0.0
C1845 C 0.05242 0.59129 0.73644 0.0
C1846 C 0.3461 0.23961 0.41127 0.0
C1847 C 0.36316 0.2542 0.44012 0.0
H1848 H 0.32937 0.24201 0.36204 0.0
C1849 C 0.37791 0.28429 0.4387 0.0
H1850 H 0.33401 0.21671 0.41062 0.0
C1851 C 0.3759 0.29875 0.40992 0.0
C1852 C 0.35875 0.28397 0.38106 0.0
H1853 H 0.39127 0.29681 0.45994 0.0
H1854 H 0.3877 0.3217 0.41044 0.0
C1855 C 0.34364 0.25419 0.38288 0.0
C1856 C 0.36877 0.618 0.52611 0.0
C1857 C 0.3785 0.64837 0.52253 0.0
H1858 H 0.37325 0.57374 0.51406 0.0
C1859 C 0.4021 0.65692 0.50307 0.0
H1860 H 0.34984 0.61029 0.53999 0.0
C1861 C 0.41643 0.63551 0.48857 0.0
C1862 C 0.40706 0.60509 0.49276 0.0
H1863 H 0.4097 0.68006 0.49935 0.0
H1864 H 0.43514 0.64293 0.47454 0.0
C1865 C 0.38239 0.59678 0.51114 0.0
C1866 C 0.94171 0.05138 0.54782 0.0
C1867 C 0.93242 1.0202 0.5473 0.0
H1868 H 0.9801 0.08934 0.54841 0.0
C1869 C 0.95708 1.00369 0.54657 0.0
H1870 H 0.92371 0.06507 0.54822 0.0
C1871 C 0.98937 1.01763 0.54547 0.0
C1872 C 0.99871 0.04879 0.54615 0.0
H1873 H 0.95125 0.97974 0.54581 0.0
H1874 H 1.00723 1.00385 0.54432 0.0
C1875 C 0.97425 0.06541 0.54789 0.0
C1876 C 0.85182 0.11148 0.26532 0.0
C1877 C 0.88465 0.11132 0.27307 0.0
H1878 H 0.81357 0.13453 0.27107 0.0
C1879 C 0.90321 0.13207 0.29668 0.0
H1880 H 0.83696 0.0956 0.24728 0.0
C1881 C 0.88974 0.15399 0.31064 0.0
C1882 C 0.85759 0.15575 0.30098 0.0
H1883 H 0.92848 0.1321 0.3035 0.0
H1884 H 0.9049 0.17042 0.32795 0.0
C1885 C 0.83839 0.13363 0.2791 0.0
C1886 C 0.73506 0.14691 0.04114 0.0
C1887 C 0.73506 0.17604 0.03299 0.0
H1888 H 0.70693 0.10431 0.04609 0.0
C1889 C 0.70586 0.18425 0.02235 0.0
H1890 H 0.75731 0.13998 0.04939 0.0
C1891 C 0.67712 0.16363 0.01985 0.0
C1892 C 0.67705 0.13459 0.02842 0.0
H1893 H 0.70524 0.20648 1.01571 0.0
H1894 H 0.65489 0.17072 1.01191 0.0
C1895 C 0.70629 0.12644 0.03914 0.0
C1896 C 0.21827 0.48579 0.3021 0.0
C1897 C 0.19227 0.46158 0.29651 0.0
H1898 H 0.26808 0.50118 0.31955 0.0
C1899 C 0.19653 0.43422 0.30734 0.0
H1900 H 0.21575 0.50732 0.2944 0.0
C1901 C 0.22667 0.43079 0.3219 0.0
C1902 C 0.25309 0.45465 0.32585 0.0
H1903 H 0.17696 0.4152 0.30349 0.0
H1904 H 0.22966 0.40903 0.32851 0.0
C1905 C 0.24831 0.48235 0.31653 0.0
C1906 C 0.24516 0.52953 0.07312 0.0
C1907 C 0.24595 0.50616 0.05034 0.0
H1908 H 0.21962 0.56218 0.09039 0.0
C1909 C 0.21863 0.49837 0.02688 0.0
H1910 H 0.2653 0.53658 0.09166 0.0
C1911 C 0.19197 0.51302 0.0263 0.0
C1912 C 0.19128 0.53658 0.04889 0.0
H1913 H 0.21771 0.48066 1.00878 0.0
H1914 H 0.17181 0.50587 1.00779 0.0
C1915 C 0.21865 0.54444 0.07231 0.0
C1916 C 0.88321 0.94398 0.22111 0.0
C1917 C 0.9163 0.95327 0.22104 0.0
H1918 H 0.84592 0.91183 0.23497 0.0
C1919 C 0.93766 0.93624 0.23451 0.0
H1920 H 0.86639 0.957 0.21108 0.0
C1921 C 0.92605 0.91089 0.24919 0.0
C1922 C 0.89293 0.90188 0.24972 0.0
H1923 H 0.96334 0.94335 0.23513 0.0
H1924 H 0.94294 0.89853 0.26028 0.0
C1925 C 0.87158 0.91826 0.2349 0.0
C1926 C 0.61985 0.10045 0.71769 0.0
C1927 C 0.63131 0.07514 0.727 0.0
H1928 H 0.63052 0.14762 0.71567 0.0
C1929 C 0.66341 0.07843 0.74123 0.0
H1930 H 0.5953 0.09869 0.70662 0.0
C1931 C 0.68355 0.1063 0.74613 0.0
C1932 C 0.67198 0.13161 0.73731 0.0
H1933 H 0.67313 0.05942 0.74858 0.0
H1934 H 0.70808 0.1081 0.75727 0.0
C1935 C 0.63993 0.12846 0.72304 0.0
loop_
_geom_bond_atom_site_label_1
_geom_bond_atom_site_label_2
_geom_bond_distance
_geom_bond_site_symmetry_2
_ccdc_geom_bond_type
C0 O1 1.306 1_655 S
C0 O3 1.160 1_655 S
O1 C0 1.306 1_455 S
O1 Cd2 2.228 . S
Cd2 O1 2.228 . S
Cd2 O6 2.273 . S
Cd2 O10 2.277 . S
O3 C0 1.160 1_455 S
O3 Cd4 2.203 . S
Cd4 O3 2.203 . S
Cd4 O6 2.411 . S
Cd4 O7 2.333 . S
Cd4 O8 2.352 . S
Cd4 O12 2.277 . S
Cd4 O13 2.356 . S
C5 O10 1.209 . S
C5 O12 1.226 . S
O6 Cd2 2.273 . S
O6 Cd4 2.411 . S
O6 C9 1.320 . S
O7 Cd4 2.333 . S
O7 C9 1.214 . S
O8 Cd4 2.352 . S
O8 C11 1.258 . S
C9 O6 1.320 . S
C9 O7 1.214 . S
O10 Cd2 2.277 . S
O10 C5 1.209 . S
C11 O8 1.258 . S
C11 O13 1.282 . S
O12 Cd4 2.277 . S
O12 C5 1.226 . S
O13 Cd4 2.356 . S
O13 C11 1.282 . S
C14 O15 1.306 1_655 S
C14 O17 1.160 1_655 S
O15 C14 1.306 1_455 S
O15 Cd16 2.228 . S
Cd16 O15 2.228 . S
Cd16 O20 2.273 . S
Cd16 O24 2.277 . S
O17 C14 1.160 1_455 S
O17 Cd18 2.203 . S
Cd18 O17 2.203 . S
Cd18 O20 2.411 . S
Cd18 O21 2.333 . S
Cd18 O22 2.352 . S
Cd18 O26 2.277 . S
Cd18 O27 2.356 . S
C19 O24 1.209 . S
C19 O26 1.226 . S
O20 Cd16 2.273 . S
O20 Cd18 2.411 . S
O20 C23 1.320 . S
O21 Cd18 2.333 . S
O21 C23 1.214 . S
O22 Cd18 2.352 . S
O22 C25 1.258 . S
C23 O20 1.320 . S
C23 O21 1.214 . S
O24 Cd16 2.277 . S
O24 C19 1.209 . S
C25 O22 1.258 . S
C25 O27 1.282 . S
O26 Cd18 2.277 . S
O26 C19 1.226 . S
O27 Cd18 2.356 . S
O27 C25 1.282 . S
C28 O29 1.306 . S
C28 O31 1.160 . S
O29 C28 1.306 . S
O29 Cd30 2.228 . S
Cd30 O29 2.228 . S
Cd30 O34 2.273 . S
Cd30 O38 2.277 . S
O31 C28 1.160 . S
O31 Cd32 2.203 . S
Cd32 O31 2.203 . S
Cd32 O34 2.411 . S
Cd32 O35 2.333 . S
Cd32 O36 2.352 . S
Cd32 O40 2.277 . S
Cd32 O41 2.356 . S
C33 O38 1.209 . S
C33 O40 1.226 . S
O34 Cd30 2.273 . S
O34 Cd32 2.411 . S
O34 C37 1.320 . S
O35 Cd32 2.333 . S
O35 C37 1.214 . S
O36 Cd32 2.352 . S
O36 C39 1.258 . S
C37 O34 1.320 . S
C37 O35 1.214 . S
O38 Cd30 2.277 . S
O38 C33 1.209 . S
C39 O36 1.258 . S
C39 O41 1.282 . S
O40 Cd32 2.277 . S
O40 C33 1.226 . S
O41 Cd32 2.356 . S
O41 C39 1.282 . S
C42 O43 1.306 . S
C42 O45 1.160 . S
O43 C42 1.306 . S
O43 Cd44 2.228 . S
Cd44 O43 2.228 . S
Cd44 O48 2.273 . S
Cd44 O52 2.277 . S
O45 C42 1.160 . S
O45 Cd46 2.203 . S
Cd46 O45 2.203 . S
Cd46 O48 2.411 . S
Cd46 O49 2.333 . S
Cd46 O50 2.352 . S
Cd46 O54 2.277 . S
Cd46 O55 2.356 . S
C47 O52 1.209 . S
C47 O54 1.226 . S
O48 Cd44 2.273 . S
O48 Cd46 2.411 . S
O48 C51 1.320 . S
O49 Cd46 2.333 . S
O49 C51 1.214 . S
O50 Cd46 2.352 . S
O50 C53 1.258 . S
C51 O48 1.320 . S
C51 O49 1.214 . S
O52 Cd44 2.277 . S
O52 C47 1.209 . S
C53 O50 1.258 . S
C53 O55 1.282 . S
O54 Cd46 2.277 . S
O54 C47 1.226 . S
O55 Cd46 2.356 . S
O55 C53 1.282 . S
C56 O57 1.306 . S
C56 O59 1.160 . S
O57 C56 1.306 . S
O57 Cd58 2.228 . S
Cd58 O57 2.228 . S
Cd58 O62 2.273 . S
Cd58 O66 2.277 . S
O59 C56 1.160 . S
O59 Cd60 2.203 . S
Cd60 O59 2.203 . S
Cd60 O62 2.411 . S
Cd60 O63 2.333 . S
Cd60 O64 2.352 . S
Cd60 O68 2.277 . S
Cd60 O69 2.356 . S
C61 O66 1.209 . S
C61 O68 1.226 . S
O62 Cd58 2.273 . S
O62 Cd60 2.411 . S
O62 C65 1.320 . S
O63 Cd60 2.333 . S
O63 C65 1.214 . S
O64 Cd60 2.352 . S
O64 C67 1.258 . S
C65 O62 1.320 . S
C65 O63 1.214 . S
O66 Cd58 2.277 . S
O66 C61 1.209 . S
C67 O64 1.258 . S
C67 O69 1.282 . S
O68 Cd60 2.277 . S
O68 C61 1.226 . S
O69 Cd60 2.356 . S
O69 C67 1.282 . S
C70 O71 1.306 . S
C70 O73 1.160 . S
O71 C70 1.306 . S
O71 Cd72 2.228 . S
Cd72 O71 2.228 . S
Cd72 O76 2.273 . S
Cd72 O80 2.277 . S
O73 C70 1.160 . S
O73 Cd74 2.203 . S
Cd74 O73 2.203 . S
Cd74 O76 2.411 . S
Cd74 O77 2.333 . S
Cd74 O78 2.352 . S
Cd74 O82 2.277 . S
Cd74 O83 2.356 . S
C75 O80 1.209 . S
C75 O82 1.226 . S
O76 Cd72 2.273 . S
O76 Cd74 2.411 . S
O76 C79 1.320 . S
O77 Cd74 2.333 . S
O77 C79 1.214 . S
O78 Cd74 2.352 . S
O78 C81 1.258 . S
C79 O76 1.320 . S
C79 O77 1.214 . S
O80 Cd72 2.277 . S
O80 C75 1.209 . S
C81 O78 1.258 . S
C81 O83 1.282 . S
O82 Cd74 2.277 . S
O82 C75 1.226 . S
O83 Cd74 2.356 . S
O83 C81 1.282 . S
C84 O85 1.306 . S
C84 O87 1.160 . S
O85 C84 1.306 . S
O85 Cd86 2.228 . S
Cd86 O85 2.228 . S
Cd86 O90 2.273 . S
Cd86 O94 2.277 . S
O87 C84 1.160 . S
O87 Cd88 2.203 . S
Cd88 O87 2.203 . S
Cd88 O90 2.411 . S
Cd88 O91 2.333 . S
Cd88 O92 2.352 . S
Cd88 O96 2.277 . S
Cd88 O97 2.356 . S
C89 O94 1.209 . S
C89 O96 1.226 . S
O90 Cd86 2.273 . S
O90 Cd88 2.411 . S
O90 C93 1.320 . S
O91 Cd88 2.333 . S
O91 C93 1.214 . S
O92 Cd88 2.352 . S
O92 C95 1.258 . S
C93 O90 1.320 . S
C93 O91 1.214 . S
O94 Cd86 2.277 . S
O94 C89 1.209 . S
C95 O92 1.258 . S
C95 O97 1.282 . S
O96 Cd88 2.277 . S
O96 C89 1.226 . S
O97 Cd88 2.356 . S
O97 C95 1.282 . S
C98 O99 1.306 . S
C98 O101 1.160 . S
O99 C98 1.306 . S
O99 Cd100 2.228 1_655 S
Cd100 O99 2.228 1_455 S
Cd100 O104 2.273 . S
Cd100 O108 2.277 . S
O101 C98 1.160 . S
O101 Cd102 2.203 1_655 S
Cd102 O101 2.203 1_455 S
Cd102 O104 2.411 . S
Cd102 O105 2.333 . S
Cd102 O106 2.352 1_455 S
Cd102 O110 2.277 . S
Cd102 O111 2.356 . S
C103 O108 1.209 . S
C103 O110 1.226 . S
O104 Cd100 2.273 . S
O104 Cd102 2.411 . S
O104 C107 1.320 . S
O105 Cd102 2.333 . S
O105 C107 1.214 . S
O106 Cd102 2.352 1_655 S
O106 C109 1.260 . S
C107 O104 1.320 . S
C107 O105 1.214 . S
O108 Cd100 2.277 . S
O108 C103 1.209 . S
C109 O106 1.260 . S
C109 O111 1.282 1_655 S
O110 Cd102 2.277 . S
O110 C103 1.226 . S
O111 Cd102 2.356 . S
O111 C109 1.282 1_455 S
C112 O113 1.306 . S
C112 O115 1.160 . S
O113 C112 1.306 . S
O113 Cd114 2.228 . S
Cd114 O113 2.228 . S
Cd114 O118 2.273 . S
Cd114 O122 2.277 . S
O115 C112 1.160 . S
O115 Cd116 2.203 . S
Cd116 O115 2.203 . S
Cd116 O118 2.411 . S
Cd116 O119 2.333 . S
Cd116 O120 2.352 . S
Cd116 O124 2.277 . S
Cd116 O125 2.356 . S
C117 O122 1.209 . S
C117 O124 1.226 . S
O118 Cd114 2.273 . S
O118 Cd116 2.411 . S
O118 C121 1.320 . S
O119 Cd116 2.333 . S
O119 C121 1.214 . S
O120 Cd116 2.352 . S
O120 C123 1.258 . S
C121 O118 1.320 . S
C121 O119 1.214 . S
O122 Cd114 2.277 . S
O122 C117 1.209 . S
C123 O120 1.258 . S
C123 O125 1.282 . S
O124 Cd116 2.277 . S
O124 C117 1.226 . S
O125 Cd116 2.356 . S
O125 C123 1.282 . S
C126 O127 1.306 . S
C126 O129 1.160 . S
O127 C126 1.306 . S
O127 Cd128 2.228 . S
Cd128 O127 2.228 . S
Cd128 O132 2.273 . S
Cd128 O136 2.277 . S
O129 C126 1.160 . S
O129 Cd130 2.203 . S
Cd130 O129 2.203 . S
Cd130 O132 2.411 . S
Cd130 O133 2.333 . S
Cd130 O134 2.352 . S
Cd130 O138 2.277 . S
Cd130 O139 2.356 . S
C131 O136 1.209 . S
C131 O138 1.226 . S
O132 Cd128 2.273 . S
O132 Cd130 2.411 . S
O132 C135 1.320 . S
O133 Cd130 2.333 . S
O133 C135 1.214 . S
O134 Cd130 2.352 . S
O134 C137 1.258 . S
C135 O132 1.320 . S
C135 O133 1.214 . S
O136 Cd128 2.277 . S
O136 C131 1.209 . S
C137 O134 1.258 . S
C137 O139 1.282 . S
O138 Cd130 2.277 . S
O138 C131 1.226 . S
O139 Cd130 2.356 . S
O139 C137 1.282 . S
C140 O141 1.306 . S
C140 O143 1.160 . S
O141 C140 1.306 . S
O141 Cd142 2.228 . S
Cd142 O141 2.228 . S
Cd142 O146 2.273 . S
Cd142 O150 2.277 . S
O143 C140 1.160 . S
O143 Cd144 2.203 . S
Cd144 O143 2.203 . S
Cd144 O146 2.411 . S
Cd144 O147 2.333 . S
Cd144 O148 2.352 . S
Cd144 O152 2.277 . S
Cd144 O153 2.356 . S
C145 O150 1.209 . S
C145 O152 1.226 . S
O146 Cd142 2.273 . S
O146 Cd144 2.411 . S
O146 C149 1.320 . S
O147 Cd144 2.333 . S
O147 C149 1.214 . S
O148 Cd144 2.352 . S
O148 C151 1.258 . S
C149 O146 1.320 . S
C149 O147 1.214 . S
O150 Cd142 2.277 . S
O150 C145 1.209 . S
C151 O148 1.258 . S
C151 O153 1.282 . S
O152 Cd144 2.277 . S
O152 C145 1.226 . S
O153 Cd144 2.356 . S
O153 C151 1.282 . S
C154 O155 1.306 . S
C154 O157 1.160 . S
O155 C154 1.306 . S
O155 Cd156 2.228 . S
Cd156 O155 2.228 . S
Cd156 O160 2.273 . S
Cd156 O164 2.277 . S
O157 C154 1.160 . S
O157 Cd158 2.203 . S
Cd158 O157 2.203 . S
Cd158 O160 2.411 . S
Cd158 O161 2.333 . S
Cd158 O162 2.352 . S
Cd158 O166 2.277 . S
Cd158 O167 2.356 . S
C159 O164 1.209 1_556 S
C159 O166 1.226 1_556 S
O160 Cd156 2.273 . S
O160 Cd158 2.411 . S
O160 C163 1.320 . S
O161 Cd158 2.333 . S
O161 C163 1.214 . S
O162 Cd158 2.352 . S
O162 C165 1.258 . S
C163 O160 1.320 . S
C163 O161 1.214 . S
O164 Cd156 2.277 . S
O164 C159 1.209 1_554 S
C165 O162 1.258 . S
C165 O167 1.282 . S
O166 Cd158 2.277 . S
O166 C159 1.226 1_554 S
O167 Cd158 2.356 . S
O167 C165 1.282 . S
C168 O169 1.306 . S
C168 O171 1.160 . S
O169 C168 1.306 . S
O169 Cd170 2.228 1_554 S
Cd170 O169 2.228 1_556 S
Cd170 O174 2.273 1_556 S
Cd170 O178 2.277 . S
O171 C168 1.160 . S
O171 Cd172 2.203 . S
Cd172 O171 2.203 . S
Cd172 O174 2.411 . S
Cd172 O175 2.333 . S
Cd172 O176 2.352 . S
Cd172 O180 2.277 1_554 S
Cd172 O181 2.356 . S
C173 O178 1.209 . S
C173 O180 1.226 . S
O174 Cd170 2.273 1_554 S
O174 Cd172 2.411 . S
O174 C177 1.320 . S
O175 Cd172 2.333 . S
O175 C177 1.214 . S
O176 Cd172 2.352 . S
O176 C179 1.258 . S
C177 O174 1.320 . S
C177 O175 1.214 . S
O178 Cd170 2.277 . S
O178 C173 1.209 . S
C179 O176 1.258 . S
C179 O181 1.282 . S
O180 Cd172 2.277 1_556 S
O180 C173 1.226 . S
O181 Cd172 2.356 . S
O181 C179 1.282 . S
C182 O183 1.306 . S
C182 O185 1.173 . S
O183 C182 1.306 . S
O183 Cd184 2.228 . S
Cd184 O183 2.228 . S
Cd184 O188 2.273 1_554 S
Cd184 O192 2.277 . S
O185 C182 1.173 . S
O185 Cd186 2.205 1_554 S
Cd186 O185 2.205 1_556 S
Cd186 O188 2.411 . S
Cd186 O189 2.333 . S
Cd186 O190 2.352 . S
Cd186 O194 2.277 1_556 S
Cd186 O195 2.356 . S
C187 O192 1.209 . S
C187 O194 1.226 . S
O188 Cd184 2.273 1_556 S
O188 Cd186 2.411 . S
O188 C191 1.320 . S
O189 Cd186 2.333 . S
O189 C191 1.214 . S
O190 Cd186 2.352 . S
O190 C193 1.258 . S
C191 O188 1.320 . S
C191 O189 1.214 . S
O192 Cd184 2.277 . S
O192 C187 1.209 . S
C193 O190 1.258 . S
C193 O195 1.282 . S
O194 Cd186 2.277 1_554 S
O194 C187 1.226 . S
O195 Cd186 2.356 . S
O195 C193 1.282 . S
C196 O197 1.306 . S
C196 O199 1.160 . S
O197 C196 1.306 . S
O197 Cd198 2.228 . S
Cd198 O197 2.228 . S
Cd198 O202 2.273 . S
Cd198 O206 2.277 . S
O199 C196 1.160 . S
O199 Cd200 2.203 . S
Cd200 O199 2.203 . S
Cd200 O202 2.411 . S
Cd200 O203 2.333 . S
Cd200 O204 2.352 . S
Cd200 O208 2.277 . S
Cd200 O209 2.356 . S
C201 O206 1.209 . S
C201 O208 1.226 . S
O202 Cd198 2.273 . S
O202 Cd200 2.411 . S
O202 C205 1.320 . S
O203 Cd200 2.333 . S
O203 C205 1.214 . S
O204 Cd200 2.352 . S
O204 C207 1.258 . S
C205 O202 1.320 . S
C205 O203 1.214 . S
O206 Cd198 2.277 . S
O206 C201 1.209 . S
C207 O204 1.258 . S
C207 O209 1.282 . S
O208 Cd200 2.277 . S
O208 C201 1.226 . S
O209 Cd200 2.356 . S
O209 C207 1.282 . S
C210 O211 1.306 . S
C210 O213 1.160 . S
O211 C210 1.306 . S
O211 Cd212 2.228 . S
Cd212 O211 2.228 . S
Cd212 O216 2.273 . S
Cd212 O220 2.277 . S
O213 C210 1.160 . S
O213 Cd214 2.203 . S
Cd214 O213 2.203 . S
Cd214 O216 2.411 . S
Cd214 O217 2.333 . S
Cd214 O218 2.352 . S
Cd214 O222 2.277 . S
Cd214 O223 2.356 . S
C215 O220 1.209 . S
C215 O222 1.226 . S
O216 Cd212 2.273 . S
O216 Cd214 2.411 . S
O216 C219 1.320 . S
O217 Cd214 2.333 . S
O217 C219 1.214 . S
O218 Cd214 2.352 . S
O218 C221 1.258 . S
C219 O216 1.320 . S
C219 O217 1.214 . S
O220 Cd212 2.277 . S
O220 C215 1.209 . S
C221 O218 1.258 . S
C221 O223 1.282 . S
O222 Cd214 2.277 . S
O222 C215 1.226 . S
O223 Cd214 2.356 . S
O223 C221 1.282 . S
C224 O225 1.306 1_545 S
C224 O227 1.160 . S
O225 C224 1.306 1_565 S
O225 Cd226 2.228 . S
Cd226 O225 2.228 . S
Cd226 O230 2.273 1_565 S
Cd226 O234 2.277 . S
O227 C224 1.160 . S
O227 Cd228 2.203 . S
Cd228 O227 2.203 . S
Cd228 O230 2.411 . S
Cd228 O231 2.333 . S
Cd228 O232 2.352 . S
Cd228 O236 2.277 1_545 S
Cd228 O237 2.356 . S
C229 O234 1.209 . S
C229 O236 1.226 . S
O230 Cd226 2.273 1_545 S
O230 Cd228 2.411 . S
O230 C233 1.320 . S
O231 Cd228 2.333 . S
O231 C233 1.214 . S
O232 Cd228 2.352 . S
O232 C235 1.258 . S
C233 O230 1.320 . S
C233 O231 1.214 . S
O234 Cd226 2.277 . S
O234 C229 1.209 . S
C235 O232 1.258 . S
C235 O237 1.282 . S
O236 Cd228 2.277 1_565 S
O236 C229 1.226 . S
O237 Cd228 2.356 . S
O237 C235 1.282 . S
C238 O239 1.306 . S
C238 O241 1.160 . S
O239 C238 1.306 . S
O239 Cd240 2.228 . S
Cd240 O239 2.228 . S
Cd240 O244 2.273 . S
Cd240 O248 2.277 . S
O241 C238 1.160 . S
O241 Cd242 2.203 . S
Cd242 O241 2.203 . S
Cd242 O244 2.411 . S
Cd242 O245 2.333 . S
Cd242 O246 2.352 . S
Cd242 O250 2.277 . S
Cd242 O251 2.356 . S
C243 O248 1.209 . S
C243 O250 1.226 . S
O244 Cd240 2.273 . S
O244 Cd242 2.411 . S
O244 C247 1.320 . S
O245 Cd242 2.333 . S
O245 C247 1.214 . S
O246 Cd242 2.352 . S
O246 C249 1.258 . S
C247 O244 1.320 . S
C247 O245 1.214 . S
O248 Cd240 2.277 . S
O248 C243 1.209 . S
C249 O246 1.258 . S
C249 O251 1.282 . S
O250 Cd242 2.277 . S
O250 C243 1.226 . S
O251 Cd242 2.356 . S
O251 C249 1.282 . S
C252 O253 1.306 . S
C252 O255 1.160 . S
O253 C252 1.306 . S
O253 Cd254 2.228 . S
Cd254 O253 2.228 . S
Cd254 O258 2.273 . S
Cd254 O262 2.277 . S
O255 C252 1.160 . S
O255 Cd256 2.203 . S
Cd256 O255 2.203 . S
Cd256 O258 2.411 . S
Cd256 O259 2.333 . S
Cd256 O260 2.352 . S
Cd256 O264 2.277 . S
Cd256 O265 2.356 . S
C257 O262 1.209 . S
C257 O264 1.226 . S
O258 Cd254 2.273 . S
O258 Cd256 2.411 . S
O258 C261 1.320 . S
O259 Cd256 2.333 . S
O259 C261 1.214 . S
O260 Cd256 2.352 . S
O260 C263 1.258 . S
C261 O258 1.320 . S
C261 O259 1.214 . S
O262 Cd254 2.277 . S
O262 C257 1.209 . S
C263 O260 1.258 . S
C263 O265 1.282 . S
O264 Cd256 2.277 . S
O264 C257 1.226 . S
O265 Cd256 2.356 . S
O265 C263 1.282 . S
C266 O267 1.306 . S
C266 O269 1.160 . S
O267 C266 1.306 . S
O267 Cd268 2.228 . S
Cd268 O267 2.228 . S
Cd268 O272 2.273 . S
Cd268 O276 2.277 . S
O269 C266 1.160 . S
O269 Cd270 2.203 . S
Cd270 O269 2.203 . S
Cd270 O272 2.411 . S
Cd270 O273 2.333 . S
Cd270 O274 2.352 1_545 S
Cd270 O278 2.277 . S
Cd270 O279 2.356 1_545 S
C271 O276 1.209 . S
C271 O278 1.226 . S
O272 Cd268 2.273 . S
O272 Cd270 2.411 . S
O272 C275 1.320 . S
O273 Cd270 2.333 . S
O273 C275 1.214 . S
O274 Cd270 2.352 1_565 S
O274 C277 1.258 . S
C275 O272 1.320 . S
C275 O273 1.214 . S
O276 Cd268 2.277 . S
O276 C271 1.209 . S
C277 O274 1.258 . S
C277 O279 1.282 . S
O278 Cd270 2.277 . S
O278 C271 1.226 . S
O279 Cd270 2.356 1_565 S
O279 C277 1.282 . S
C280 O281 1.306 . S
C280 O283 1.160 . S
O281 C280 1.306 . S
O281 Cd282 2.228 . S
Cd282 O281 2.228 . S
Cd282 O286 2.273 . S
Cd282 O290 2.277 . S
O283 C280 1.160 . S
O283 Cd284 2.203 . S
Cd284 O283 2.203 . S
Cd284 O286 2.411 . S
Cd284 O287 2.333 . S
Cd284 O288 2.352 1_554 S
Cd284 O292 2.277 . S
Cd284 O293 2.356 1_554 S
C285 O290 1.209 . S
C285 O292 1.226 . S
O286 Cd282 2.273 . S
O286 Cd284 2.411 . S
O286 C289 1.320 . S
O287 Cd284 2.333 . S
O287 C289 1.214 . S
O288 Cd284 2.352 1_556 S
O288 C291 1.258 . S
C289 O286 1.320 . S
C289 O287 1.214 . S
O290 Cd282 2.277 . S
O290 C285 1.209 . S
C291 O288 1.258 . S
C291 O293 1.282 . S
O292 Cd284 2.277 . S
O292 C285 1.226 . S
O293 Cd284 2.356 1_556 S
O293 C291 1.282 . S
C294 O295 1.306 . S
C294 O297 1.160 . S
O295 C294 1.306 . S
O295 Cd296 2.228 . S
Cd296 O295 2.228 . S
Cd296 O300 2.273 . S
Cd296 O304 2.274 1_455 S
O297 C294 1.160 . S
O297 Cd298 2.203 1_455 S
Cd298 O297 2.203 1_655 S
Cd298 O300 2.411 1_655 S
Cd298 O301 2.333 . S
Cd298 O302 2.352 1_655 S
Cd298 O306 2.277 . S
Cd298 O307 2.356 . S
C299 O304 1.212 . S
C299 O306 1.226 . S
O300 Cd296 2.273 . S
O300 Cd298 2.411 1_455 S
O300 C303 1.320 . S
O301 Cd298 2.333 . S
O301 C303 1.214 1_655 S
O302 Cd298 2.352 1_455 S
O302 C305 1.258 1_455 S
C303 O300 1.320 . S
C303 O301 1.214 1_455 S
O304 Cd296 2.274 1_655 S
O304 C299 1.212 . S
C305 O302 1.258 1_655 S
C305 O307 1.282 . S
O306 Cd298 2.277 . S
O306 C299 1.226 . S
O307 Cd298 2.356 . S
O307 C305 1.282 . S
C308 O309 1.306 . S
C308 O311 1.160 . S
O309 C308 1.306 . S
O309 Cd310 2.228 . S
Cd310 O309 2.228 . S
Cd310 O314 2.273 . S
Cd310 O318 2.277 . S
O311 C308 1.160 . S
O311 Cd312 2.203 . S
Cd312 O311 2.203 . S
Cd312 O314 2.411 . S
Cd312 O315 2.333 . S
Cd312 O316 2.352 . S
Cd312 O320 2.277 . S
Cd312 O321 2.356 . S
C313 O318 1.209 . S
C313 O320 1.226 . S
O314 Cd310 2.273 . S
O314 Cd312 2.411 . S
O314 C317 1.320 . S
O315 Cd312 2.333 . S
O315 C317 1.214 . S
O316 Cd312 2.352 . S
O316 C319 1.258 . S
C317 O314 1.320 . S
C317 O315 1.214 . S
O318 Cd310 2.277 . S
O318 C313 1.209 . S
C319 O316 1.258 . S
C319 O321 1.282 . S
O320 Cd312 2.277 . S
O320 C313 1.226 . S
O321 Cd312 2.356 . S
O321 C319 1.282 . S
C322 O323 1.306 . S
C322 O325 1.160 . S
O323 C322 1.306 . S
O323 Cd324 2.228 . S
Cd324 O323 2.228 . S
Cd324 O328 2.273 . S
Cd324 O332 2.277 . S
O325 C322 1.160 . S
O325 Cd326 2.203 . S
Cd326 O325 2.203 . S
Cd326 O328 2.411 . S
Cd326 O329 2.333 . S
Cd326 O330 2.352 . S
Cd326 O334 2.277 . S
Cd326 O335 2.356 . S
C327 O332 1.209 . S
C327 O334 1.226 . S
O328 Cd324 2.273 . S
O328 Cd326 2.411 . S
O328 C331 1.320 . S
O329 Cd326 2.333 . S
O329 C331 1.214 . S
O330 Cd326 2.352 . S
O330 C333 1.258 . S
C331 O328 1.320 . S
C331 O329 1.214 . S
O332 Cd324 2.277 . S
O332 C327 1.209 . S
C333 O330 1.258 . S
C333 O335 1.282 . S
O334 Cd326 2.277 . S
O334 C327 1.226 . S
O335 Cd326 2.356 . S
O335 C333 1.282 . S
Tb336 C346 2.825 1_454 S
Tb336 O347 2.347 . S
Tb336 O350 2.366 . S
Tb336 O355 2.418 1_554 S
Tb336 O356 2.384 . S
Tb336 O359 2.479 1_454 S
Tb336 O360 2.471 1_455 S
Eu337 O348 2.418 . S
Eu337 O349 2.384 . S
Eu337 O352 2.479 . S
Eu337 O353 2.471 . S
Eu337 O354 2.347 . S
Eu337 O357 2.366 . S
Eu337 C367 2.825 . S
C338 O354 1.259 1_556 S
C338 O355 1.265 . S
C339 O356 1.263 . S
C339 O357 1.282 . S
C340 C342 1.380 . S
C340 C343 1.374 . S
C340 C346 1.507 . S
C341 C342 1.384 . S
C341 C345 1.387 . S
C341 H368 0.930 . S
C342 C340 1.380 . S
C342 C341 1.384 . S
C342 H369 0.931 . S
C343 C340 1.374 . S
C343 C344 1.390 . S
C343 H370 0.930 1_556 S
C344 C343 1.390 . S
C344 C345 1.391 . S
C344 H371 0.930 . S
C345 C341 1.387 . S
C345 C344 1.391 . S
C346 Tb336 2.825 1_656 S
C346 C340 1.507 . S
C346 O359 1.238 . S
C346 O360 1.247 1_556 S
O347 Tb336 2.347 . S
O347 C351 1.259 . S
O348 Eu337 2.418 . S
O348 C351 1.265 . S
O349 Eu337 2.384 . S
O349 C358 1.255 . S
O350 Tb336 2.366 . S
O350 C358 1.265 . S
C351 O347 1.259 . S
C351 O348 1.265 . S
O352 Eu337 2.479 . S
O352 C367 1.238 . S
O353 Eu337 2.471 . S
O353 C367 1.247 . S
O354 Eu337 2.347 . S
O354 C338 1.259 1_554 S
O355 Tb336 2.418 1_556 S
O355 C338 1.265 . S
O356 Tb336 2.384 . S
O356 C339 1.263 . S
O357 Eu337 2.366 . S
O357 C339 1.282 . S
C358 O349 1.255 . S
C358 O350 1.265 . S
O359 Tb336 2.479 1_656 S
O359 C346 1.238 . S
O360 Tb336 2.471 1_655 S
O360 C346 1.247 1_554 S
C361 C364 1.380 . S
C361 C365 1.374 . S
C361 C367 1.507 . S
C362 C363 1.387 . S
C362 C366 1.391 . S
C363 C362 1.387 . S
C363 C364 1.384 . S
C363 H372 0.930 . S
C364 C361 1.380 . S
C364 C363 1.384 . S
C364 H373 0.931 . S
C365 C361 1.374 . S
C365 C366 1.390 . S
C365 H374 0.930 . S
C366 C362 1.391 . S
C366 C365 1.390 . S
C366 H375 0.930 . S
C367 Eu337 2.825 . S
C367 O352 1.238 . S
C367 O353 1.247 . S
C367 C361 1.507 . S
H368 C341 0.930 . S
H369 C342 0.931 . S
H370 C343 0.930 1_554 S
H371 C344 0.930 . S
H372 C363 0.930 . S
H373 C364 0.931 . S
H374 C365 0.930 . S
H375 C366 0.930 . S
Tb376 C386 2.825 . S
Tb376 O387 2.347 . S
Tb376 O390 2.366 . S
Tb376 O395 2.418 . S
Tb376 O396 2.384 . S
Tb376 O399 2.479 . S
Tb376 O400 2.471 . S
Eu377 O388 2.418 . S
Eu377 O389 2.384 . S
Eu377 O392 2.479 . S
Eu377 O393 2.471 . S
Eu377 O394 2.347 . S
Eu377 O397 2.366 . S
Eu377 C407 2.825 . S
C378 O394 1.259 . S
C378 O395 1.265 . S
C379 O396 1.255 . S
C379 O397 1.265 . S
C380 C382 1.380 . S
C380 C383 1.374 . S
C380 C386 1.507 . S
C381 C382 1.384 . S
C381 C385 1.387 . S
C381 H408 0.930 . S
C382 C380 1.380 . S
C382 C381 1.384 . S
C382 H409 0.931 . S
C383 C380 1.374 . S
C383 C384 1.390 . S
C383 H410 0.930 . S
C384 C383 1.390 . S
C384 C385 1.391 . S
C384 H411 0.930 . S
C385 C381 1.387 . S
C385 C384 1.391 . S
C386 Tb376 2.825 . S
C386 C380 1.507 . S
C386 O399 1.238 . S
C386 O400 1.247 . S
O387 Tb376 2.347 . S
O387 C391 1.259 . S
O388 Eu377 2.418 . S
O388 C391 1.265 . S
O389 Eu377 2.384 . S
O389 C398 1.255 . S
O390 Tb376 2.366 . S
O390 C398 1.265 . S
C391 O387 1.259 . S
C391 O388 1.265 . S
O392 Eu377 2.479 . S
O392 C407 1.238 . S
O393 Eu377 2.471 . S
O393 C407 1.247 . S
O394 Eu377 2.347 . S
O394 C378 1.259 . S
O395 Tb376 2.418 . S
O395 C378 1.265 . S
O396 Tb376 2.384 . S
O396 C379 1.255 . S
O397 Eu377 2.366 . S
O397 C379 1.265 . S
C398 O389 1.255 . S
C398 O390 1.265 . S
O399 Tb376 2.479 . S
O399 C386 1.238 . S
O400 Tb376 2.471 . S
O400 C386 1.247 . S
C401 C404 1.380 . S
C401 C405 1.374 . S
C401 C407 1.507 . S
C402 C403 1.387 . S
C402 C406 1.391 . S
C403 C402 1.387 . S
C403 C404 1.384 . S
C403 H412 0.930 . S
C404 C401 1.380 . S
C404 C403 1.384 . S
C404 H413 0.931 . S
C405 C401 1.374 . S
C405 C406 1.390 . S
C405 H414 0.930 . S
C406 C402 1.391 . S
C406 C405 1.390 . S
C406 H415 0.930 . S
C407 Eu377 2.825 . S
C407 O392 1.238 . S
C407 O393 1.247 . S
C407 C401 1.507 . S
H408 C381 0.930 . S
H409 C382 0.931 . S
H410 C383 0.930 . S
H411 C384 0.930 . S
H412 C403 0.930 . S
H413 C404 0.931 . S
H414 C405 0.930 . S
H415 C406 0.930 . S
Tb416 C426 2.825 1_545 S
Tb416 O427 2.347 . S
Tb416 O430 2.366 . S
Tb416 O435 2.418 . S
Tb416 O436 2.384 . S
Tb416 O439 2.479 1_545 S
Tb416 O440 2.471 1_545 S
Eu417 O428 2.418 . S
Eu417 O429 2.384 . S
Eu417 O432 2.479 . S
Eu417 O433 2.471 . S
Eu417 O434 2.347 . S
Eu417 O437 2.366 . S
Eu417 C447 2.825 . S
C418 O434 1.259 . S
C418 O435 1.265 . S
C419 O436 1.255 . S
C419 O437 1.265 . S
C420 C422 1.380 . S
C420 C423 1.374 . S
C420 C426 1.507 . S
C421 C422 1.384 . S
C421 C425 1.387 . S
C421 H448 0.930 . S
C422 C420 1.380 . S
C422 C421 1.384 . S
C422 H449 0.931 . S
C423 C420 1.374 . S
C423 C424 1.390 . S
C423 H450 0.930 . S
C424 C423 1.390 . S
C424 C425 1.391 . S
C424 H451 0.930 . S
C425 C421 1.387 . S
C425 C424 1.391 . S
C426 Tb416 2.825 1_565 S
C426 C420 1.507 . S
C426 O439 1.238 . S
C426 O440 1.247 . S
O427 Tb416 2.347 . S
O427 C431 1.259 . S
O428 Eu417 2.418 . S
O428 C431 1.265 . S
O429 Eu417 2.384 . S
O429 C438 1.255 . S
O430 Tb416 2.366 . S
O430 C438 1.265 . S
C431 O427 1.259 . S
C431 O428 1.265 . S
O432 Eu417 2.479 . S
O432 C447 1.238 . S
O433 Eu417 2.471 . S
O433 C447 1.247 . S
O434 Eu417 2.347 . S
O434 C418 1.259 . S
O435 Tb416 2.418 . S
O435 C418 1.265 . S
O436 Tb416 2.384 . S
O436 C419 1.255 . S
O437 Eu417 2.366 . S
O437 C419 1.265 . S
C438 O429 1.255 . S
C438 O430 1.265 . S
O439 Tb416 2.479 1_565 S
O439 C426 1.238 . S
O440 Tb416 2.471 1_565 S
O440 C426 1.247 . S
C441 C444 1.380 . S
C441 C445 1.374 . S
C441 C447 1.507 . S
C442 C443 1.387 . S
C442 C446 1.391 . S
C443 C442 1.387 . S
C443 C444 1.384 . S
C443 H452 0.930 . S
C444 C441 1.380 . S
C444 C443 1.384 . S
C444 H453 0.931 . S
C445 C441 1.374 . S
C445 C446 1.390 . S
C445 H454 0.930 . S
C446 C442 1.391 . S
C446 C445 1.390 . S
C446 H455 0.930 . S
C447 Eu417 2.825 . S
C447 O432 1.238 . S
C447 O433 1.247 . S
C447 C441 1.507 . S
H448 C421 0.930 . S
H449 C422 0.931 . S
H450 C423 0.930 . S
H451 C424 0.930 . S
H452 C443 0.930 . S
H453 C444 0.931 . S
H454 C445 0.930 . S
H455 C446 0.930 . S
Tb456 C466 2.825 . S
Tb456 O467 2.347 . S
Tb456 O470 2.366 . S
Tb456 O475 2.418 . S
Tb456 O476 2.384 . S
Tb456 O479 2.479 . S
Tb456 O480 2.471 . S
Eu457 O468 2.418 . S
Eu457 O469 2.384 . S
Eu457 O472 2.479 . S
Eu457 O473 2.471 . S
Eu457 O474 2.347 . S
Eu457 O477 2.366 . S
Eu457 C487 2.825 . S
C458 O474 1.259 . S
C458 O475 1.265 . S
C459 O476 1.255 . S
C459 O477 1.265 . S
C460 C462 1.380 . S
C460 C463 1.374 . S
C460 C466 1.507 . S
C461 C462 1.384 . S
C461 C465 1.387 . S
C461 H488 0.930 . S
C462 C460 1.380 . S
C462 C461 1.384 . S
C462 H489 0.931 . S
C463 C460 1.374 . S
C463 C464 1.390 . S
C463 H490 0.930 . S
C464 C463 1.390 . S
C464 C465 1.391 . S
C464 H491 0.930 . S
C465 C461 1.387 . S
C465 C464 1.391 . S
C466 Tb456 2.825 . S
C466 C460 1.507 . S
C466 O479 1.238 . S
C466 O480 1.247 . S
O467 Tb456 2.347 . S
O467 C471 1.259 . S
O468 Eu457 2.418 . S
O468 C471 1.265 . S
O469 Eu457 2.384 . S
O469 C478 1.255 . S
O470 Tb456 2.366 . S
O470 C478 1.265 . S
C471 O467 1.259 . S
C471 O468 1.265 . S
O472 Eu457 2.479 . S
O472 C487 1.238 . S
O473 Eu457 2.471 . S
O473 C487 1.247 . S
O474 Eu457 2.347 . S
O474 C458 1.259 . S
O475 Tb456 2.418 . S
O475 C458 1.265 . S
O476 Tb456 2.384 . S
O476 C459 1.255 . S
O477 Eu457 2.366 . S
O477 C459 1.265 . S
C478 O469 1.255 . S
C478 O470 1.265 . S
O479 Tb456 2.479 . S
O479 C466 1.238 . S
O480 Tb456 2.471 . S
O480 C466 1.247 . S
C481 C484 1.380 . S
C481 C485 1.374 . S
C481 C487 1.507 . S
C482 C483 1.387 . S
C482 C486 1.391 . S
C483 C482 1.387 . S
C483 C484 1.384 . S
C483 H492 0.930 . S
C484 C481 1.380 . S
C484 C483 1.384 . S
C484 H493 0.931 . S
C485 C481 1.374 . S
C485 C486 1.390 . S
C485 H494 0.930 . S
C486 C482 1.391 . S
C486 C485 1.390 . S
C486 H495 0.930 . S
C487 Eu457 2.825 . S
C487 O472 1.238 . S
C487 O473 1.247 . S
C487 C481 1.507 . S
H488 C461 0.930 . S
H489 C462 0.931 . S
H490 C463 0.930 . S
H491 C464 0.930 . S
H492 C483 0.930 . S
H493 C484 0.931 . S
H494 C485 0.930 . S
H495 C486 0.930 . S
Tb496 C506 2.825 . S
Tb496 O507 2.347 . S
Tb496 O510 2.366 . S
Tb496 O515 2.418 . S
Tb496 O516 2.384 . S
Tb496 O519 2.479 . S
Tb496 O520 2.471 . S
Eu497 O508 2.418 . S
Eu497 O509 2.384 . S
Eu497 O512 2.479 . S
Eu497 O513 2.471 . S
Eu497 O514 2.347 . S
Eu497 O517 2.366 . S
Eu497 C527 2.825 . S
C498 O514 1.259 . S
C498 O515 1.265 . S
C499 O516 1.255 . S
C499 O517 1.265 . S
C500 C502 1.380 . S
C500 C503 1.374 1_455 S
C500 C506 1.507 . S
C501 C502 1.384 . S
C501 C505 1.387 1_455 S
C501 H528 0.930 . S
C502 C500 1.380 . S
C502 C501 1.384 . S
C502 H529 0.931 . S
C503 C500 1.374 1_655 S
C503 C504 1.390 . S
C503 H530 0.930 . S
C504 C503 1.390 . S
C504 C505 1.391 . S
C504 H531 0.930 . S
C505 C501 1.387 1_655 S
C505 C504 1.391 . S
C506 Tb496 2.825 . S
C506 C500 1.507 . S
C506 O519 1.238 . S
C506 O520 1.247 . S
O507 Tb496 2.347 . S
O507 C511 1.259 1_455 S
O508 Eu497 2.418 . S
O508 C511 1.265 1_455 S
O509 Eu497 2.384 . S
O509 C518 1.255 . S
O510 Tb496 2.366 . S
O510 C518 1.265 . S
C511 O507 1.259 1_655 S
C511 O508 1.265 1_655 S
O512 Eu497 2.479 . S
O512 C527 1.238 . S
O513 Eu497 2.471 . S
O513 C527 1.247 . S
O514 Eu497 2.347 . S
O514 C498 1.259 . S
O515 Tb496 2.418 . S
O515 C498 1.265 . S
O516 Tb496 2.384 . S
O516 C499 1.255 . S
O517 Eu497 2.366 . S
O517 C499 1.265 . S
C518 O509 1.255 . S
C518 O510 1.265 . S
O519 Tb496 2.479 . S
O519 C506 1.238 . S
O520 Tb496 2.471 . S
O520 C506 1.247 . S
C521 C524 1.380 . S
C521 C525 1.374 . S
C521 C527 1.507 . S
C522 C523 1.387 . S
C522 C526 1.391 . S
C523 C522 1.387 . S
C523 C524 1.384 . S
C523 H532 0.930 . S
C524 C521 1.380 . S
C524 C523 1.384 . S
C524 H533 0.931 . S
C525 C521 1.374 . S
C525 C526 1.390 . S
C525 H534 0.930 . S
C526 C522 1.391 . S
C526 C525 1.390 . S
C526 H535 0.930 . S
C527 Eu497 2.825 . S
C527 O512 1.238 . S
C527 O513 1.247 . S
C527 C521 1.507 . S
H528 C501 0.930 . S
H529 C502 0.931 . S
H530 C503 0.930 . S
H531 C504 0.930 . S
H532 C523 0.930 . S
H533 C524 0.931 . S
H534 C525 0.930 . S
H535 C526 0.930 . S
Tb536 C546 2.825 . S
Tb536 O547 2.347 . S
Tb536 O550 2.366 . S
Tb536 O555 2.418 . S
Tb536 O556 2.384 . S
Tb536 O559 2.479 . S
Tb536 O560 2.471 . S
Eu537 O548 2.418 . S
Eu537 O549 2.384 . S
Eu537 O552 2.479 . S
Eu537 O553 2.471 . S
Eu537 O554 2.347 . S
Eu537 O557 2.366 . S
Eu537 C567 2.825 . S
C538 O554 1.259 . S
C538 O555 1.265 . S
C539 O556 1.255 . S
C539 O557 1.265 . S
C540 C542 1.380 . S
C540 C543 1.374 . S
C540 C546 1.507 . S
C541 C542 1.384 . S
C541 C545 1.387 . S
C541 H568 0.930 . S
C542 C540 1.380 . S
C542 C541 1.384 . S
C542 H569 0.931 . S
C543 C540 1.374 . S
C543 C544 1.390 . S
C543 H570 0.930 . S
C544 C543 1.390 . S
C544 C545 1.391 . S
C544 H571 0.930 . S
C545 C541 1.387 . S
C545 C544 1.391 . S
C546 Tb536 2.825 . S
C546 C540 1.507 . S
C546 O559 1.238 . S
C546 O560 1.247 . S
O547 Tb536 2.347 . S
O547 C551 1.259 . S
O548 Eu537 2.418 . S
O548 C551 1.265 . S
O549 Eu537 2.384 . S
O549 C558 1.255 . S
O550 Tb536 2.366 . S
O550 C558 1.265 . S
C551 O547 1.259 . S
C551 O548 1.265 . S
O552 Eu537 2.479 . S
O552 C567 1.238 . S
O553 Eu537 2.471 . S
O553 C567 1.247 . S
O554 Eu537 2.347 . S
O554 C538 1.259 . S
O555 Tb536 2.418 . S
O555 C538 1.265 . S
O556 Tb536 2.384 . S
O556 C539 1.255 . S
O557 Eu537 2.366 . S
O557 C539 1.265 . S
C558 O549 1.255 . S
C558 O550 1.265 . S
O559 Tb536 2.479 . S
O559 C546 1.238 . S
O560 Tb536 2.471 . S
O560 C546 1.247 . S
C561 C564 1.380 . S
C561 C565 1.374 . S
C561 C567 1.507 . S
C562 C563 1.387 . S
C562 C566 1.391 . S
C563 C562 1.387 . S
C563 C564 1.384 . S
C563 H572 0.930 . S
C564 C561 1.380 . S
C564 C563 1.384 . S
C564 H573 0.931 . S
C565 C561 1.374 . S
C565 C566 1.390 . S
C565 H574 0.930 . S
C566 C562 1.391 . S
C566 C565 1.390 . S
C566 H575 0.930 . S
C567 Eu537 2.825 . S
C567 O552 1.238 . S
C567 O553 1.247 . S
C567 C561 1.507 . S
H568 C541 0.930 . S
H569 C542 0.931 . S
H570 C543 0.930 . S
H571 C544 0.930 . S
H572 C563 0.930 . S
H573 C564 0.931 . S
H574 C565 0.930 . S
H575 C566 0.930 . S
Tb576 C586 2.825 . S
Tb576 O587 2.347 . S
Tb576 O590 2.366 . S
Tb576 O595 2.431 . S
Tb576 O596 2.384 . S
Tb576 O599 2.479 . S
Tb576 O600 2.471 . S
Eu577 O588 2.418 1_556 S
Eu577 O589 2.384 1_556 S
Eu577 O592 2.479 . S
Eu577 O593 2.471 . S
Eu577 O594 2.347 1_556 S
Eu577 O597 2.366 . S
Eu577 C607 2.825 . S
C578 O594 1.279 . S
C578 O595 1.264 . S
C579 O596 1.255 . S
C579 O597 1.265 1_554 S
C580 C582 1.380 . S
C580 C583 1.374 . S
C580 C586 1.507 . S
C581 C582 1.384 . S
C581 C585 1.387 . S
C581 H608 0.930 1_545 S
C582 C580 1.380 . S
C582 C581 1.384 . S
C582 H609 0.931 . S
C583 C580 1.374 . S
C583 C584 1.390 . S
C583 H610 0.930 . S
C584 C583 1.390 . S
C584 C585 1.391 . S
C584 H611 0.930 . S
C585 C581 1.387 . S
C585 C584 1.391 . S
C586 Tb576 2.825 . S
C586 C580 1.507 . S
C586 O599 1.238 . S
C586 O600 1.247 . S
O587 Tb576 2.347 . S
O587 C591 1.259 . S
O588 Eu577 2.418 1_554 S
O588 C591 1.265 . S
O589 Eu577 2.384 1_554 S
O589 C598 1.255 . S
O590 Tb576 2.366 . S
O590 C598 1.265 . S
C591 O587 1.259 . S
C591 O588 1.265 . S
O592 Eu577 2.479 . S
O592 C607 1.238 . S
O593 Eu577 2.471 . S
O593 C607 1.247 . S
O594 Eu577 2.347 1_554 S
O594 C578 1.279 . S
O595 Tb576 2.431 . S
O595 C578 1.264 . S
O596 Tb576 2.384 . S
O596 C579 1.255 . S
O597 Eu577 2.366 . S
O597 C579 1.265 1_556 S
C598 O589 1.255 . S
C598 O590 1.265 . S
O599 Tb576 2.479 . S
O599 C586 1.238 . S
O600 Tb576 2.471 . S
O600 C586 1.247 . S
C601 C604 1.380 . S
C601 C605 1.374 . S
C601 C607 1.507 . S
C602 C603 1.387 . S
C602 C606 1.391 . S
C603 C602 1.387 . S
C603 C604 1.384 . S
C603 H612 0.930 . S
C604 C601 1.380 . S
C604 C603 1.384 . S
C604 H613 0.931 . S
C605 C601 1.374 . S
C605 C606 1.390 . S
C605 H614 0.930 . S
C606 C602 1.391 . S
C606 C605 1.390 . S
C606 H615 0.930 . S
C607 Eu577 2.825 . S
C607 O592 1.238 . S
C607 O593 1.247 . S
C607 C601 1.507 . S
H608 C581 0.930 1_565 S
H609 C582 0.931 . S
H610 C583 0.930 . S
H611 C584 0.930 . S
H612 C603 0.930 . S
H613 C604 0.931 . S
H614 C605 0.930 . S
H615 C606 0.930 . S
Tb616 C626 2.825 . S
Tb616 O627 2.347 . S
Tb616 O630 2.366 . S
Tb616 O635 2.418 . S
Tb616 O636 2.384 . S
Tb616 O639 2.479 . S
Tb616 O640 2.471 . S
Eu617 O628 2.418 . S
Eu617 O629 2.384 . S
Eu617 O632 2.479 . S
Eu617 O633 2.471 . S
Eu617 O634 2.347 . S
Eu617 O637 2.366 . S
Eu617 C647 2.825 . S
C618 O634 1.259 . S
C618 O635 1.265 . S
C619 O636 1.255 . S
C619 O637 1.265 . S
C620 C622 1.380 . S
C620 C623 1.374 . S
C620 C626 1.507 . S
C621 C622 1.384 . S
C621 C625 1.387 . S
C621 H648 0.930 . S
C622 C620 1.380 . S
C622 C621 1.384 . S
C622 H649 0.931 . S
C623 C620 1.374 . S
C623 C624 1.390 . S
C623 H650 0.930 . S
C624 C623 1.390 . S
C624 C625 1.391 . S
C624 H651 0.930 . S
C625 C621 1.387 . S
C625 C624 1.391 . S
C626 Tb616 2.825 . S
C626 C620 1.507 . S
C626 O639 1.238 . S
C626 O640 1.247 . S
O627 Tb616 2.347 . S
O627 C631 1.259 . S
O628 Eu617 2.418 . S
O628 C631 1.265 . S
O629 Eu617 2.384 . S
O629 C638 1.255 . S
O630 Tb616 2.366 . S
O630 C638 1.265 . S
C631 O627 1.259 . S
C631 O628 1.265 . S
O632 Eu617 2.479 . S
O632 C647 1.238 . S
O633 Eu617 2.471 . S
O633 C647 1.247 . S
O634 Eu617 2.347 . S
O634 C618 1.259 . S
O635 Tb616 2.418 . S
O635 C618 1.265 . S
O636 Tb616 2.384 . S
O636 C619 1.255 . S
O637 Eu617 2.366 . S
O637 C619 1.265 . S
C638 O629 1.255 . S
C638 O630 1.265 . S
O639 Tb616 2.479 . S
O639 C626 1.238 . S
O640 Tb616 2.471 . S
O640 C626 1.247 . S
C641 C644 1.380 . S
C641 C645 1.374 . S
C641 C647 1.507 . S
C642 C643 1.387 . S
C642 C646 1.391 . S
C643 C642 1.387 . S
C643 C644 1.384 . S
C643 H652 0.930 . S
C644 C641 1.380 . S
C644 C643 1.384 . S
C644 H653 0.931 . S
C645 C641 1.374 . S
C645 C646 1.390 . S
C645 H654 0.930 . S
C646 C642 1.391 . S
C646 C645 1.390 . S
C646 H655 0.930 . S
C647 Eu617 2.825 . S
C647 O632 1.238 . S
C647 O633 1.247 . S
C647 C641 1.507 . S
H648 C621 0.930 . S
H649 C622 0.931 . S
H650 C623 0.930 . S
H651 C624 0.930 . S
H652 C643 0.930 . S
H653 C644 0.931 . S
H654 C645 0.930 . S
H655 C646 0.930 . S
Tb656 C666 2.825 . S
Tb656 O667 2.347 1_556 S
Tb656 O670 2.366 . S
Tb656 O675 2.418 . S
Tb656 O676 2.384 1_556 S
Tb656 O679 2.479 . S
Tb656 O680 2.471 . S
Eu657 O668 2.418 . S
Eu657 O669 2.384 . S
Eu657 O672 2.479 . S
Eu657 O673 2.471 . S
Eu657 O674 2.347 . S
Eu657 O677 2.366 . S
Eu657 C687 2.825 . S
C658 O674 1.259 . S
C658 O675 1.265 1_554 S
C659 O676 1.255 . S
C659 O677 1.265 . S
C660 C662 1.380 . S
C660 C663 1.374 . S
C660 C666 1.507 . S
C661 C662 1.384 . S
C661 C665 1.387 . S
C661 H688 0.930 . S
C662 C660 1.380 . S
C662 C661 1.384 . S
C662 H689 0.931 . S
C663 C660 1.374 . S
C663 C664 1.390 . S
C663 H690 0.930 . S
C664 C663 1.390 . S
C664 C665 1.391 . S
C664 H691 0.930 . S
C665 C661 1.387 . S
C665 C664 1.391 . S
C666 Tb656 2.825 . S
C666 C660 1.507 . S
C666 O679 1.238 . S
C666 O680 1.247 . S
O667 Tb656 2.347 1_554 S
O667 C671 1.259 . S
O668 Eu657 2.418 . S
O668 C671 1.265 . S
O669 Eu657 2.384 . S
O669 C678 1.228 1_554 S
O670 Tb656 2.366 . S
O670 C678 1.279 . S
C671 O667 1.259 . S
C671 O668 1.265 . S
O672 Eu657 2.479 . S
O672 C687 1.238 . S
O673 Eu657 2.471 . S
O673 C687 1.247 . S
O674 Eu657 2.347 . S
O674 C658 1.259 . S
O675 Tb656 2.418 . S
O675 C658 1.265 1_556 S
O676 Tb656 2.384 1_554 S
O676 C659 1.255 . S
O677 Eu657 2.366 . S
O677 C659 1.265 . S
C678 O669 1.228 1_556 S
C678 O670 1.279 . S
O679 Tb656 2.479 . S
O679 C666 1.238 . S
O680 Tb656 2.471 . S
O680 C666 1.247 . S
C681 C684 1.380 . S
C681 C685 1.374 . S
C681 C687 1.507 . S
C682 C683 1.387 . S
C682 C686 1.391 . S
C683 C682 1.387 . S
C683 C684 1.384 . S
C683 H692 0.930 . S
C684 C681 1.380 . S
C684 C683 1.384 . S
C684 H693 0.931 . S
C685 C681 1.374 . S
C685 C686 1.390 . S
C685 H694 0.930 . S
C686 C682 1.391 . S
C686 C685 1.390 . S
C686 H695 0.930 . S
C687 Eu657 2.825 . S
C687 O672 1.238 . S
C687 O673 1.247 . S
C687 C681 1.507 . S
H688 C661 0.930 . S
H689 C662 0.931 . S
H690 C663 0.930 . S
H691 C664 0.930 . S
H692 C683 0.930 . S
H693 C684 0.931 . S
H694 C685 0.930 . S
H695 C686 0.930 . S
Tb696 C706 2.825 . S
Tb696 O707 2.347 . S
Tb696 O710 2.366 . S
Tb696 O715 2.418 . S
Tb696 O716 2.384 . S
Tb696 O719 2.479 . S
Tb696 O720 2.471 . S
Eu697 O708 2.418 . S
Eu697 O709 2.384 . S
Eu697 O712 2.479 . S
Eu697 O713 2.471 . S
Eu697 O714 2.347 . S
Eu697 O717 2.366 . S
Eu697 C727 2.825 . S
C698 O714 1.259 . S
C698 O715 1.265 . S
C699 O716 1.255 . S
C699 O717 1.265 . S
C700 C702 1.380 . S
C700 C703 1.374 . S
C700 C706 1.507 . S
C701 C702 1.384 . S
C701 C705 1.387 . S
C701 H728 0.930 . S
C702 C700 1.380 . S
C702 C701 1.384 . S
C702 H729 0.931 . S
C703 C700 1.374 . S
C703 C704 1.390 . S
C703 H730 0.930 . S
C704 C703 1.390 . S
C704 C705 1.391 . S
C704 H731 0.930 . S
C705 C701 1.387 . S
C705 C704 1.391 . S
C706 Tb696 2.825 . S
C706 C700 1.507 . S
C706 O719 1.238 . S
C706 O720 1.247 . S
O707 Tb696 2.347 . S
O707 C711 1.259 . S
O708 Eu697 2.418 . S
O708 C711 1.265 . S
O709 Eu697 2.384 . S
O709 C718 1.255 . S
O710 Tb696 2.366 . S
O710 C718 1.265 . S
C711 O707 1.259 . S
C711 O708 1.265 . S
O712 Eu697 2.479 . S
O712 C727 1.238 . S
O713 Eu697 2.471 . S
O713 C727 1.247 . S
O714 Eu697 2.347 . S
O714 C698 1.259 . S
O715 Tb696 2.418 . S
O715 C698 1.265 . S
O716 Tb696 2.384 . S
O716 C699 1.255 . S
O717 Eu697 2.366 . S
O717 C699 1.265 . S
C718 O709 1.255 . S
C718 O710 1.265 . S
O719 Tb696 2.479 . S
O719 C706 1.238 . S
O720 Tb696 2.471 . S
O720 C706 1.247 . S
C721 C724 1.380 . S
C721 C725 1.374 . S
C721 C727 1.507 . S
C722 C723 1.387 . S
C722 C726 1.391 . S
C723 C722 1.387 . S
C723 C724 1.384 . S
C723 H732 0.930 . S
C724 C721 1.380 . S
C724 C723 1.384 . S
C724 H733 0.931 . S
C725 C721 1.374 . S
C725 C726 1.390 . S
C725 H734 0.930 . S
C726 C722 1.391 . S
C726 C725 1.390 . S
C726 H735 0.930 . S
C727 Eu697 2.825 . S
C727 O712 1.238 . S
C727 O713 1.247 . S
C727 C721 1.507 . S
H728 C701 0.930 . S
H729 C702 0.931 . S
H730 C703 0.930 . S
H731 C704 0.930 . S
H732 C723 0.930 . S
H733 C724 0.931 . S
H734 C725 0.930 . S
H735 C726 0.930 . S
Tb736 C746 2.825 . S
Tb736 O747 2.347 . S
Tb736 O750 2.366 . S
Tb736 O755 2.418 . S
Tb736 O756 2.384 . S
Tb736 O759 2.479 . S
Tb736 O760 2.471 . S
Eu737 O748 2.418 . S
Eu737 O749 2.384 1_455 S
Eu737 O752 2.479 . S
Eu737 O753 2.471 . S
Eu737 O754 2.347 . S
Eu737 O757 2.366 . S
Eu737 C767 2.825 . S
C738 O754 1.259 . S
C738 O755 1.265 . S
C739 O756 1.255 . S
C739 O757 1.265 . S
C740 C742 1.380 . S
C740 C743 1.374 . S
C740 C746 1.507 . S
C741 C742 1.384 . S
C741 C745 1.387 . S
C741 H768 0.930 . S
C742 C740 1.380 . S
C742 C741 1.384 . S
C742 H769 0.931 . S
C743 C740 1.374 . S
C743 C744 1.390 . S
C743 H770 0.930 . S
C744 C743 1.390 . S
C744 C745 1.391 . S
C744 H771 0.919 1_455 S
C745 C741 1.387 . S
C745 C744 1.391 . S
C746 Tb736 2.825 . S
C746 C740 1.507 . S
C746 O759 1.238 . S
C746 O760 1.247 . S
O747 Tb736 2.347 . S
O747 C751 1.259 . S
O748 Eu737 2.418 . S
O748 C751 1.265 . S
O749 Eu737 2.384 1_655 S
O749 C758 1.255 . S
O750 Tb736 2.366 . S
O750 C758 1.265 1_455 S
C751 O747 1.259 . S
C751 O748 1.265 . S
O752 Eu737 2.479 . S
O752 C767 1.238 . S
O753 Eu737 2.471 . S
O753 C767 1.247 . S
O754 Eu737 2.347 . S
O754 C738 1.259 . S
O755 Tb736 2.418 . S
O755 C738 1.265 . S
O756 Tb736 2.384 . S
O756 C739 1.255 . S
O757 Eu737 2.366 . S
O757 C739 1.265 . S
C758 O749 1.255 . S
C758 O750 1.265 1_655 S
O759 Tb736 2.479 . S
O759 C746 1.238 . S
O760 Tb736 2.471 . S
O760 C746 1.247 . S
C761 C764 1.380 . S
C761 C765 1.374 . S
C761 C767 1.507 . S
C762 C763 1.387 . S
C762 C766 1.391 . S
C763 C762 1.387 . S
C763 C764 1.384 . S
C763 H772 0.930 . S
C764 C761 1.380 . S
C764 C763 1.384 . S
C764 H773 0.931 . S
C765 C761 1.374 . S
C765 C766 1.390 . S
C765 H774 0.930 . S
C766 C762 1.391 . S
C766 C765 1.390 . S
C766 H775 0.930 . S
C767 Eu737 2.825 . S
C767 O752 1.238 . S
C767 O753 1.247 . S
C767 C761 1.507 . S
H768 C741 0.930 . S
H769 C742 0.931 . S
H770 C743 0.930 . S
H771 C744 0.919 1_655 S
H772 C763 0.930 . S
H773 C764 0.931 . S
H774 C765 0.930 . S
H775 C766 0.930 . S
Tb776 C786 2.825 . S
Tb776 O787 2.347 . S
Tb776 O790 2.366 . S
Tb776 O795 2.418 . S
Tb776 O796 2.384 . S
Tb776 O799 2.479 . S
Tb776 O800 2.471 . S
Eu777 O788 2.418 . S
Eu777 O789 2.384 . S
Eu777 O792 2.479 . S
Eu777 O793 2.471 . S
Eu777 O794 2.347 . S
Eu777 O797 2.366 . S
Eu777 C807 2.825 . S
C778 O794 1.259 . S
C778 O795 1.265 . S
C779 O796 1.255 . S
C779 O797 1.265 . S
C780 C782 1.380 . S
C780 C783 1.374 . S
C780 C786 1.507 . S
C781 C782 1.384 . S
C781 C785 1.387 . S
C781 H808 0.930 . S
C782 C780 1.380 . S
C782 C781 1.384 . S
C782 H809 0.931 . S
C783 C780 1.374 . S
C783 C784 1.390 . S
C783 H810 0.930 . S
C784 C783 1.390 . S
C784 C785 1.391 . S
C784 H811 0.930 . S
C785 C781 1.387 . S
C785 C784 1.391 . S
C786 Tb776 2.825 . S
C786 C780 1.507 . S
C786 O799 1.238 . S
C786 O800 1.247 . S
O787 Tb776 2.347 . S
O787 C791 1.259 . S
O788 Eu777 2.418 . S
O788 C791 1.265 . S
O789 Eu777 2.384 . S
O789 C798 1.255 . S
O790 Tb776 2.366 . S
O790 C798 1.265 . S
C791 O787 1.259 . S
C791 O788 1.265 . S
O792 Eu777 2.479 . S
O792 C807 1.238 . S
O793 Eu777 2.471 . S
O793 C807 1.247 . S
O794 Eu777 2.347 . S
O794 C778 1.259 . S
O795 Tb776 2.418 . S
O795 C778 1.265 . S
O796 Tb776 2.384 . S
O796 C779 1.255 . S
O797 Eu777 2.366 . S
O797 C779 1.265 . S
C798 O789 1.255 . S
C798 O790 1.265 . S
O799 Tb776 2.479 . S
O799 C786 1.238 . S
O800 Tb776 2.471 . S
O800 C786 1.247 . S
C801 C804 1.380 . S
C801 C805 1.374 . S
C801 C807 1.507 . S
C802 C803 1.387 . S
C802 C806 1.391 . S
C803 C802 1.387 . S
C803 C804 1.384 . S
C803 H812 0.930 . S
C804 C801 1.380 . S
C804 C803 1.384 . S
C804 H813 0.931 . S
C805 C801 1.374 . S
C805 C806 1.390 . S
C805 H814 0.930 . S
C806 C802 1.391 . S
C806 C805 1.390 . S
C806 H815 0.930 . S
C807 Eu777 2.825 . S
C807 O792 1.238 . S
C807 O793 1.247 . S
C807 C801 1.507 . S
H808 C781 0.930 . S
H809 C782 0.931 . S
H810 C783 0.930 . S
H811 C784 0.930 . S
H812 C803 0.930 . S
H813 C804 0.931 . S
H814 C805 0.930 . S
H815 C806 0.930 . S
Tb816 C826 2.825 . S
Tb816 O827 2.347 . S
Tb816 O830 2.366 . S
Tb816 O835 2.418 . S
Tb816 O836 2.384 . S
Tb816 O839 2.479 . S
Tb816 O840 2.471 . S
Eu817 O828 2.418 . S
Eu817 O829 2.384 . S
Eu817 O832 2.479 . S
Eu817 O833 2.471 . S
Eu817 O834 2.347 . S
Eu817 O837 2.366 . S
Eu817 C847 2.825 . S
C818 O834 1.259 . S
C818 O835 1.265 . S
C819 O836 1.255 . S
C819 O837 1.265 . S
C820 C822 1.380 . S
C820 C823 1.374 . S
C820 C826 1.507 . S
C821 C822 1.384 . S
C821 C825 1.387 . S
C821 H848 0.930 . S
C822 C820 1.380 . S
C822 C821 1.384 . S
C822 H849 0.931 . S
C823 C820 1.374 . S
C823 C824 1.390 . S
C823 H850 0.930 . S
C824 C823 1.390 . S
C824 C825 1.391 . S
C824 H851 0.930 . S
C825 C821 1.387 . S
C825 C824 1.391 . S
C826 Tb816 2.825 . S
C826 C820 1.507 . S
C826 O839 1.238 . S
C826 O840 1.247 . S
O827 Tb816 2.347 . S
O827 C831 1.259 . S
O828 Eu817 2.418 . S
O828 C831 1.265 . S
O829 Eu817 2.384 . S
O829 C838 1.255 . S
O830 Tb816 2.366 . S
O830 C838 1.265 . S
C831 O827 1.259 . S
C831 O828 1.265 . S
O832 Eu817 2.479 . S
O832 C847 1.238 . S
O833 Eu817 2.471 . S
O833 C847 1.247 . S
O834 Eu817 2.347 . S
O834 C818 1.259 . S
O835 Tb816 2.418 . S
O835 C818 1.265 . S
O836 Tb816 2.384 . S
O836 C819 1.255 . S
O837 Eu817 2.366 . S
O837 C819 1.265 . S
C838 O829 1.255 . S
C838 O830 1.265 . S
O839 Tb816 2.479 . S
O839 C826 1.238 . S
O840 Tb816 2.471 . S
O840 C826 1.247 . S
C841 C844 1.380 . S
C841 C845 1.374 . S
C841 C847 1.507 . S
C842 C843 1.387 . S
C842 C846 1.391 . S
C843 C842 1.387 . S
C843 C844 1.384 . S
C843 H852 0.930 . S
C844 C841 1.380 . S
C844 C843 1.384 . S
C844 H853 0.931 . S
C845 C841 1.374 . S
C845 C846 1.390 . S
C845 H854 0.930 . S
C846 C842 1.391 . S
C846 C845 1.390 . S
C846 H855 0.930 . S
C847 Eu817 2.825 . S
C847 O832 1.238 . S
C847 O833 1.247 . S
C847 C841 1.507 . S
H848 C821 0.930 . S
H849 C822 0.931 . S
H850 C823 0.930 . S
H851 C824 0.930 . S
H852 C843 0.930 . S
H853 C844 0.931 . S
H854 C845 0.930 . S
H855 C846 0.930 . S
Tb856 C866 2.825 . S
Tb856 O867 2.347 . S
Tb856 O870 2.366 . S
Tb856 O875 2.418 . S
Tb856 O876 2.384 . S
Tb856 O879 2.479 . S
Tb856 O880 2.471 . S
Eu857 O868 2.418 . S
Eu857 O869 2.384 . S
Eu857 O872 2.479 . S
Eu857 O873 2.471 . S
Eu857 O874 2.347 . S
Eu857 O877 2.366 . S
Eu857 C887 2.825 . S
C858 O874 1.259 . S
C858 O875 1.265 . S
C859 O876 1.255 . S
C859 O877 1.265 . S
C860 C862 1.380 . S
C860 C863 1.374 . S
C860 C866 1.507 . S
C861 C862 1.384 . S
C861 C865 1.387 . S
C861 H888 0.930 . S
C862 C860 1.380 . S
C862 C861 1.384 . S
C862 H889 0.931 . S
C863 C860 1.374 . S
C863 C864 1.390 . S
C863 H890 0.930 . S
C864 C863 1.390 . S
C864 C865 1.391 . S
C864 H891 0.930 . S
C865 C861 1.387 . S
C865 C864 1.391 . S
C866 Tb856 2.825 . S
C866 C860 1.507 . S
C866 O879 1.238 . S
C866 O880 1.247 . S
O867 Tb856 2.347 . S
O867 C871 1.259 . S
O868 Eu857 2.418 . S
O868 C871 1.265 . S
O869 Eu857 2.384 . S
O869 C878 1.255 . S
O870 Tb856 2.366 . S
O870 C878 1.265 . S
C871 O867 1.259 . S
C871 O868 1.265 . S
O872 Eu857 2.479 . S
O872 C887 1.238 . S
O873 Eu857 2.471 . S
O873 C887 1.247 . S
O874 Eu857 2.347 . S
O874 C858 1.259 . S
O875 Tb856 2.418 . S
O875 C858 1.265 . S
O876 Tb856 2.384 . S
O876 C859 1.255 . S
O877 Eu857 2.366 . S
O877 C859 1.265 . S
C878 O869 1.255 . S
C878 O870 1.265 . S
O879 Tb856 2.479 . S
O879 C866 1.238 . S
O880 Tb856 2.471 . S
O880 C866 1.247 . S
C881 C884 1.380 . S
C881 C885 1.374 . S
C881 C887 1.507 . S
C882 C883 1.387 . S
C882 C886 1.391 . S
C883 C882 1.387 . S
C883 C884 1.384 . S
C883 H892 0.930 . S
C884 C881 1.380 . S
C884 C883 1.384 . S
C884 H893 0.931 . S
C885 C881 1.374 . S
C885 C886 1.390 . S
C885 H894 0.930 . S
C886 C882 1.391 . S
C886 C885 1.390 . S
C886 H895 0.930 . S
C887 Eu857 2.825 . S
C887 O872 1.238 . S
C887 O873 1.247 . S
C887 C881 1.507 . S
H888 C861 0.930 . S
H889 C862 0.931 . S
H890 C863 0.930 . S
H891 C864 0.930 . S
H892 C883 0.930 . S
H893 C884 0.931 . S
H894 C885 0.930 . S
H895 C886 0.930 . S
Tb896 C906 2.825 . S
Tb896 O907 2.347 . S
Tb896 O910 2.366 . S
Tb896 O915 2.418 . S
Tb896 O916 2.384 . S
Tb896 O919 2.479 . S
Tb896 O920 2.471 . S
Eu897 O908 2.418 . S
Eu897 O909 2.384 . S
Eu897 O912 2.479 . S
Eu897 O913 2.471 . S
Eu897 O914 2.347 . S
Eu897 O917 2.366 . S
Eu897 C927 2.825 . S
C898 O914 1.259 . S
C898 O915 1.265 . S
C899 O916 1.255 . S
C899 O917 1.265 . S
C900 C902 1.380 . S
C900 C903 1.374 . S
C900 C906 1.507 . S
C901 C902 1.384 . S
C901 C905 1.387 . S
C901 H928 0.930 . S
C902 C900 1.380 . S
C902 C901 1.384 . S
C902 H929 0.931 . S
C903 C900 1.374 . S
C903 C904 1.390 . S
C903 H930 0.930 . S
C904 C903 1.390 . S
C904 C905 1.391 . S
C904 H931 0.930 . S
C905 C901 1.387 . S
C905 C904 1.391 . S
C906 Tb896 2.825 . S
C906 C900 1.507 . S
C906 O919 1.238 . S
C906 O920 1.247 . S
O907 Tb896 2.347 . S
O907 C911 1.259 . S
O908 Eu897 2.418 . S
O908 C911 1.265 . S
O909 Eu897 2.384 . S
O909 C918 1.255 . S
O910 Tb896 2.366 . S
O910 C918 1.265 . S
C911 O907 1.259 . S
C911 O908 1.265 . S
O912 Eu897 2.479 . S
O912 C927 1.238 . S
O913 Eu897 2.471 . S
O913 C927 1.247 . S
O914 Eu897 2.347 . S
O914 C898 1.259 . S
O915 Tb896 2.418 . S
O915 C898 1.265 . S
O916 Tb896 2.384 . S
O916 C899 1.255 . S
O917 Eu897 2.366 . S
O917 C899 1.265 . S
C918 O909 1.255 . S
C918 O910 1.265 . S
O919 Tb896 2.479 . S
O919 C906 1.238 . S
O920 Tb896 2.471 . S
O920 C906 1.247 . S
C921 C924 1.380 . S
C921 C925 1.374 . S
C921 C927 1.507 . S
C922 C923 1.387 . S
C922 C926 1.391 . S
C923 C922 1.387 . S
C923 C924 1.384 . S
C923 H932 0.930 . S
C924 C921 1.380 . S
C924 C923 1.384 . S
C924 H933 0.931 . S
C925 C921 1.374 . S
C925 C926 1.390 . S
C925 H934 0.930 . S
C926 C922 1.391 . S
C926 C925 1.390 . S
C926 H935 0.930 . S
C927 Eu897 2.825 . S
C927 O912 1.238 . S
C927 O913 1.247 . S
C927 C921 1.507 . S
H928 C901 0.930 . S
H929 C902 0.931 . S
H930 C903 0.930 . S
H931 C904 0.930 . S
H932 C923 0.930 . S
H933 C924 0.931 . S
H934 C925 0.930 . S
H935 C926 0.930 . S
Tb936 C946 2.825 1_554 S
Tb936 O947 2.347 1_554 S
Tb936 O950 2.366 . S
Tb936 O955 2.418 . S
Tb936 O956 2.384 . S
Tb936 O959 2.479 . S
Tb936 O960 2.471 1_554 S
Eu937 O948 2.418 1_554 S
Eu937 O949 2.384 . S
Eu937 O952 2.479 . S
Eu937 O953 2.471 . S
Eu937 O954 2.347 . S
Eu937 O957 2.366 . S
Eu937 C967 2.825 . S
C938 O954 1.259 . S
C938 O955 1.265 . S
C939 O956 1.255 . S
C939 O957 1.265 . S
C940 C942 1.402 . S
C940 C943 1.374 . S
C940 C946 1.507 . S
C941 C942 1.398 . S
C941 C945 1.387 . S
C941 H968 0.930 . S
C942 C940 1.402 . S
C942 C941 1.398 . S
C942 H969 0.894 1_556 S
C943 C940 1.374 . S
C943 C944 1.390 . S
C943 H970 0.930 . S
C944 C943 1.390 . S
C944 C945 1.391 . S
C944 H971 0.930 . S
C945 C941 1.387 . S
C945 C944 1.391 . S
C946 Tb936 2.825 1_556 S
C946 C940 1.507 . S
C946 O959 1.238 1_556 S
C946 O960 1.247 . S
O947 Tb936 2.347 1_556 S
O947 C951 1.259 . S
O948 Eu937 2.418 1_556 S
O948 C951 1.265 . S
O949 Eu937 2.384 . S
O949 C958 1.255 . S
O950 Tb936 2.366 . S
O950 C958 1.265 . S
C951 O947 1.259 . S
C951 O948 1.265 . S
O952 Eu937 2.479 . S
O952 C967 1.238 . S
O953 Eu937 2.471 . S
O953 C967 1.247 . S
O954 Eu937 2.347 . S
O954 C938 1.259 . S
O955 Tb936 2.418 . S
O955 C938 1.265 . S
O956 Tb936 2.384 . S
O956 C939 1.255 . S
O957 Eu937 2.366 . S
O957 C939 1.265 . S
C958 O949 1.255 . S
C958 O950 1.265 . S
O959 Tb936 2.479 . S
O959 C946 1.238 1_554 S
O960 Tb936 2.471 1_556 S
O960 C946 1.247 . S
C961 C964 1.380 . S
C961 C965 1.374 . S
C961 C967 1.507 . S
C962 C963 1.387 . S
C962 C966 1.391 . S
C963 C962 1.387 . S
C963 C964 1.384 . S
C963 H972 0.930 . S
C964 C961 1.380 . S
C964 C963 1.384 . S
C964 H973 0.931 . S
C965 C961 1.374 . S
C965 C966 1.390 . S
C965 H974 0.930 . S
C966 C962 1.391 . S
C966 C965 1.390 . S
C966 H975 0.930 . S
C967 Eu937 2.825 . S
C967 O952 1.238 . S
C967 O953 1.247 . S
C967 C961 1.507 . S
H968 C941 0.930 . S
H969 C942 0.894 1_554 S
H970 C943 0.930 . S
H971 C944 0.930 . S
H972 C963 0.930 . S
H973 C964 0.931 . S
H974 C965 0.930 . S
H975 C966 0.930 . S
C976 C977 1.387 . S
C976 H980 0.950 1_455 S
C976 C985 1.390 1_556 S
C977 C976 1.387 . S
C977 C979 1.387 . S
H978 C985 0.950 . S
C979 C977 1.387 . S
C979 C981 1.390 . S
C979 H983 0.950 . S
H980 C976 0.950 1_655 S
C981 C979 1.390 . S
C981 C982 1.364 1_556 S
C981 H984 0.950 . S
C982 C981 1.364 1_554 S
C982 C985 1.393 . S
H983 C979 0.950 . S
H984 C981 0.950 . S
C985 C976 1.390 1_554 S
C985 H978 0.950 . S
C985 C982 1.393 . S
C986 C987 1.387 . S
C986 H990 0.950 . S
C986 C995 1.390 . S
C987 C986 1.387 . S
C987 C989 1.387 . S
H988 C995 0.950 . S
C989 C987 1.387 . S
C989 C991 1.390 . S
C989 H993 0.950 . S
H990 C986 0.950 . S
C991 C989 1.390 . S
C991 C992 1.387 . S
C991 H994 0.950 . S
C992 C991 1.387 . S
C992 C995 1.387 . S
H993 C989 0.950 . S
H994 C991 0.950 . S
C995 C986 1.390 . S
C995 H988 0.950 . S
C995 C992 1.387 . S
C996 C997 1.387 . S
C996 H1000 0.950 . S
C996 C1005 1.390 . S
C997 C996 1.387 . S
C997 C999 1.387 . S
H998 C1005 0.950 . S
C999 C997 1.387 . S
C999 C1001 1.390 . S
C999 H1003 0.950 . S
H1000 C996 0.950 . S
C1001 C999 1.390 . S
C1001 C1002 1.387 . S
C1001 H1004 0.950 . S
C1002 C1001 1.387 . S
C1002 C1005 1.387 . S
H1003 C999 0.950 . S
H1004 C1001 0.950 . S
C1005 C996 1.390 . S
C1005 H998 0.950 . S
C1005 C1002 1.387 . S
C1006 C1007 1.387 . S
C1006 H1010 0.950 . S
C1006 C1015 1.390 . S
C1007 C1006 1.387 . S
C1007 C1009 1.387 . S
H1008 C1015 0.950 . S
C1009 C1007 1.387 . S
C1009 C1011 1.390 . S
C1009 H1013 0.950 . S
H1010 C1006 0.950 . S
C1011 C1009 1.390 . S
C1011 C1012 1.387 . S
C1011 H1014 0.950 . S
C1012 C1011 1.387 . S
C1012 C1015 1.387 . S
H1013 C1009 0.950 . S
H1014 C1011 0.950 . S
C1015 C1006 1.390 . S
C1015 H1008 0.950 . S
C1015 C1012 1.387 . S
C1016 C1017 1.387 . S
C1016 H1020 0.950 . S
C1016 C1025 1.390 . S
C1017 C1016 1.387 . S
C1017 C1019 1.387 . S
H1018 C1025 0.950 . S
C1019 C1017 1.387 . S
C1019 C1021 1.390 . S
C1019 H1023 0.950 . S
H1020 C1016 0.950 . S
C1021 C1019 1.390 . S
C1021 C1022 1.387 . S
C1021 H1024 0.950 . S
C1022 C1021 1.387 . S
C1022 C1025 1.387 . S
H1023 C1019 0.950 . S
H1024 C1021 0.950 . S
C1025 C1016 1.390 . S
C1025 H1018 0.950 . S
C1025 C1022 1.387 . S
C1026 C1027 1.387 . S
C1026 H1030 0.950 . S
C1026 C1035 1.390 . S
C1027 C1026 1.387 . S
C1027 C1029 1.387 . S
H1028 C1035 0.950 . S
C1029 C1027 1.387 . S
C1029 C1031 1.390 . S
C1029 H1033 0.950 . S
H1030 C1026 0.950 . S
C1031 C1029 1.390 . S
C1031 C1032 1.387 . S
C1031 H1034 0.950 . S
C1032 C1031 1.387 . S
C1032 C1035 1.387 . S
H1033 C1029 0.950 . S
H1034 C1031 0.950 . S
C1035 C1026 1.390 . S
C1035 H1028 0.950 . S
C1035 C1032 1.387 . S
C1036 C1037 1.387 . S
C1036 H1040 0.950 . S
C1036 C1045 1.390 . S
C1037 C1036 1.387 . S
C1037 C1039 1.387 . S
H1038 C1045 0.950 . S
C1039 C1037 1.387 . S
C1039 C1041 1.390 . S
C1039 H1043 0.950 . S
H1040 C1036 0.950 . S
C1041 C1039 1.390 . S
C1041 C1042 1.387 . S
C1041 H1044 0.950 . S
C1042 C1041 1.387 . S
C1042 C1045 1.387 . S
H1043 C1039 0.950 . S
H1044 C1041 0.950 . S
C1045 C1036 1.390 . S
C1045 H1038 0.950 . S
C1045 C1042 1.387 . S
C1046 C1047 1.387 . S
C1046 H1050 0.950 . S
C1046 C1055 1.390 . S
C1047 C1046 1.387 . S
C1047 C1049 1.387 . S
H1048 C1055 0.950 . S
C1049 C1047 1.387 . S
C1049 C1051 1.390 . S
C1049 H1053 0.950 . S
H1050 C1046 0.950 . S
C1051 C1049 1.390 . S
C1051 C1052 1.387 . S
C1051 H1054 0.950 . S
C1052 C1051 1.387 . S
C1052 C1055 1.387 . S
H1053 C1049 0.950 . S
H1054 C1051 0.950 . S
C1055 C1046 1.390 . S
C1055 H1048 0.950 . S
C1055 C1052 1.387 . S
C1056 C1057 1.387 . S
C1056 H1060 0.950 1_545 S
C1056 C1065 1.390 . S
C1057 C1056 1.387 . S
C1057 C1059 1.387 . S
H1058 C1065 0.950 . S
C1059 C1057 1.387 . S
C1059 C1061 1.390 . S
C1059 H1063 0.950 . S
H1060 C1056 0.950 1_565 S
C1061 C1059 1.390 . S
C1061 C1062 1.387 1_655 S
C1061 H1064 0.950 1_655 S
C1062 C1061 1.387 1_455 S
C1062 C1065 1.387 1_455 S
H1063 C1059 0.950 . S
H1064 C1061 0.950 1_455 S
C1065 C1056 1.390 . S
C1065 H1058 0.950 . S
C1065 C1062 1.387 1_655 S
C1066 C1067 1.387 . S
C1066 H1070 0.950 . S
C1066 C1075 1.390 . S
C1067 C1066 1.387 . S
C1067 C1069 1.387 . S
H1068 C1075 0.950 . S
C1069 C1067 1.387 . S
C1069 C1071 1.390 . S
C1069 H1073 0.950 . S
H1070 C1066 0.950 . S
C1071 C1069 1.390 . S
C1071 C1072 1.387 . S
C1071 H1074 0.950 . S
C1072 C1071 1.387 . S
C1072 C1075 1.387 . S
H1073 C1069 0.950 . S
H1074 C1071 0.950 . S
C1075 C1066 1.390 . S
C1075 H1068 0.950 . S
C1075 C1072 1.387 . S
C1076 C1077 1.387 . S
C1076 H1080 0.950 1_545 S
C1076 C1085 1.390 . S
C1077 C1076 1.387 . S
C1077 C1079 1.387 . S
H1078 C1085 0.950 . S
C1079 C1077 1.387 . S
C1079 C1081 1.390 . S
C1079 H1083 0.950 . S
H1080 C1076 0.950 1_565 S
C1081 C1079 1.390 . S
C1081 C1082 1.387 . S
C1081 H1084 0.950 . S
C1082 C1081 1.387 . S
C1082 C1085 1.387 . S
H1083 C1079 0.950 . S
H1084 C1081 0.950 . S
C1085 C1076 1.390 . S
C1085 H1078 0.950 . S
C1085 C1082 1.387 . S
C1086 C1087 1.387 . S
C1086 H1090 0.950 . S
C1086 C1095 1.390 . S
C1087 C1086 1.387 . S
C1087 C1089 1.387 . S
H1088 C1095 0.950 . S
C1089 C1087 1.387 . S
C1089 C1091 1.390 . S
C1089 H1093 0.950 . S
H1090 C1086 0.950 . S
C1091 C1089 1.390 . S
C1091 C1092 1.387 . S
C1091 H1094 0.950 . S
C1092 C1091 1.387 . S
C1092 C1095 1.387 . S
H1093 C1089 0.950 . S
H1094 C1091 0.950 . S
C1095 C1086 1.390 . S
C1095 H1088 0.950 . S
C1095 C1092 1.387 . S
C1096 C1097 1.387 1_565 S
C1096 H1100 0.950 . S
C1096 C1105 1.390 1_565 S
C1097 C1096 1.387 1_545 S
C1097 C1099 1.387 . S
H1098 C1105 0.950 . S
C1099 C1097 1.387 . S
C1099 C1101 1.390 . S
C1099 H1103 0.950 . S
H1100 C1096 0.950 . S
C1101 C1099 1.390 . S
C1101 C1102 1.387 . S
C1101 H1104 0.950 . S
C1102 C1101 1.387 . S
C1102 C1105 1.387 . S
H1103 C1099 0.950 . S
H1104 C1101 0.950 . S
C1105 C1096 1.390 1_545 S
C1105 H1098 0.950 . S
C1105 C1102 1.387 . S
C1106 C1107 1.387 . S
C1106 H1110 0.950 . S
C1106 C1115 1.390 . S
C1107 C1106 1.387 . S
C1107 C1109 1.387 . S
H1108 C1115 0.950 . S
C1109 C1107 1.387 . S
C1109 C1111 1.390 . S
C1109 H1113 0.950 . S
H1110 C1106 0.950 . S
C1111 C1109 1.390 . S
C1111 C1112 1.387 . S
C1111 H1114 0.950 . S
C1112 C1111 1.387 . S
C1112 C1115 1.387 . S
H1113 C1109 0.950 . S
H1114 C1111 0.950 . S
C1115 C1106 1.390 . S
C1115 H1108 0.950 . S
C1115 C1112 1.387 . S
C1116 C1117 1.387 . S
C1116 H1120 0.950 . S
C1116 C1125 1.390 . S
C1117 C1116 1.387 . S
C1117 C1119 1.387 . S
H1118 C1125 0.950 . S
C1119 C1117 1.387 . S
C1119 C1121 1.390 . S
C1119 H1123 0.950 . S
H1120 C1116 0.950 . S
C1121 C1119 1.390 . S
C1121 C1122 1.387 . S
C1121 H1124 0.950 . S
C1122 C1121 1.387 . S
C1122 C1125 1.387 . S
H1123 C1119 0.950 . S
H1124 C1121 0.950 . S
C1125 C1116 1.390 . S
C1125 H1118 0.950 . S
C1125 C1122 1.387 . S
C1126 C1127 1.387 . S
C1126 H1130 0.950 . S
C1126 C1135 1.390 . S
C1127 C1126 1.387 . S
C1127 C1129 1.387 . S
H1128 C1135 0.950 . S
C1129 C1127 1.387 . S
C1129 C1131 1.390 . S
C1129 H1133 0.950 . S
H1130 C1126 0.950 . S
C1131 C1129 1.390 . S
C1131 C1132 1.387 . S
C1131 H1134 0.950 . S
C1132 C1131 1.387 . S
C1132 C1135 1.387 . S
H1133 C1129 0.950 . S
H1134 C1131 0.950 . S
C1135 C1126 1.390 . S
C1135 H1128 0.950 . S
C1135 C1132 1.387 . S
C1136 C1137 1.387 . S
C1136 H1140 0.950 . S
C1136 C1145 1.390 . S
C1137 C1136 1.387 . S
C1137 C1139 1.387 . S
H1138 C1145 0.950 . S
C1139 C1137 1.387 . S
C1139 C1141 1.390 . S
C1139 H1143 0.950 . S
H1140 C1136 0.950 . S
C1141 C1139 1.390 . S
C1141 C1142 1.387 . S
C1141 H1144 0.978 . S
C1142 C1141 1.387 . S
C1142 C1145 1.387 . S
H1143 C1139 0.950 . S
H1144 C1141 0.978 . S
C1145 C1136 1.390 . S
C1145 H1138 0.950 . S
C1145 C1142 1.387 . S
C1146 C1147 1.387 . S
C1146 H1150 0.950 . S
C1146 C1155 1.390 . S
C1147 C1146 1.387 . S
C1147 C1149 1.387 1_554 S
H1148 C1155 0.950 . S
C1149 C1147 1.387 1_556 S
C1149 C1151 1.390 . S
C1149 H1153 0.950 . S
H1150 C1146 0.950 . S
C1151 C1149 1.390 . S
C1151 C1152 1.387 1_556 S
C1151 H1154 0.950 . S
C1152 C1151 1.387 1_554 S
C1152 C1155 1.387 . S
H1153 C1149 0.950 . S
H1154 C1151 0.950 . S
C1155 C1146 1.390 . S
C1155 H1148 0.950 . S
C1155 C1152 1.387 . S
C1156 C1157 1.387 . S
C1156 H1160 0.950 . S
C1156 C1165 1.390 . S
C1157 C1156 1.387 . S
C1157 C1159 1.387 . S
H1158 C1165 0.950 . S
C1159 C1157 1.387 . S
C1159 C1161 1.390 . S
C1159 H1163 0.950 . S
H1160 C1156 0.950 . S
C1161 C1159 1.390 . S
C1161 C1162 1.387 . S
C1161 H1164 0.950 . S
C1162 C1161 1.387 . S
C1162 C1165 1.387 . S
H1163 C1159 0.950 . S
H1164 C1161 0.950 . S
C1165 C1156 1.390 . S
C1165 H1158 0.950 . S
C1165 C1162 1.387 . S
C1166 C1167 1.387 . S
C1166 H1170 0.950 . S
C1166 C1175 1.390 . S
C1167 C1166 1.387 . S
C1167 C1169 1.387 . S
H1168 C1175 0.950 . S
C1169 C1167 1.387 . S
C1169 C1171 1.390 . S
C1169 H1173 0.950 . S
H1170 C1166 0.950 . S
C1171 C1169 1.390 . S
C1171 C1172 1.387 . S
C1171 H1174 0.950 . S
C1172 C1171 1.387 . S
C1172 C1175 1.387 . S
H1173 C1169 0.950 . S
H1174 C1171 0.950 . S
C1175 C1166 1.390 . S
C1175 H1168 0.950 . S
C1175 C1172 1.387 . S
C1176 C1177 1.387 . S
C1176 H1180 0.950 . S
C1176 C1185 1.390 . S
C1177 C1176 1.387 . S
C1177 C1179 1.387 . S
H1178 C1185 0.950 . S
C1179 C1177 1.387 . S
C1179 C1181 1.390 . S
C1179 H1183 0.950 . S
H1180 C1176 0.950 . S
C1181 C1179 1.390 . S
C1181 C1182 1.387 . S
C1181 H1184 0.950 . S
C1182 C1181 1.387 . S
C1182 C1185 1.387 . S
H1183 C1179 0.950 . S
H1184 C1181 0.950 . S
C1185 C1176 1.390 . S
C1185 H1178 0.950 . S
C1185 C1182 1.387 . S
C1186 C1187 1.387 . S
C1186 H1190 0.950 . S
C1186 C1195 1.390 . S
C1187 C1186 1.387 . S
C1187 C1189 1.387 . S
H1188 C1195 0.950 . S
C1189 C1187 1.387 . S
C1189 C1191 1.390 . S
C1189 H1193 0.950 . S
H1190 C1186 0.950 . S
C1191 C1189 1.390 . S
C1191 C1192 1.387 . S
C1191 H1194 0.950 . S
C1192 C1191 1.387 . S
C1192 C1195 1.387 . S
H1193 C1189 0.950 . S
H1194 C1191 0.950 . S
C1195 C1186 1.390 . S
C1195 H1188 0.950 . S
C1195 C1192 1.387 . S
C1196 C1197 1.387 . S
C1196 H1200 0.950 . S
C1196 C1205 1.390 . S
C1197 C1196 1.387 . S
C1197 C1199 1.387 . S
H1198 C1205 0.950 . S
C1199 C1197 1.387 . S
C1199 C1201 1.390 . S
C1199 H1203 0.950 . S
H1200 C1196 0.950 . S
C1201 C1199 1.390 . S
C1201 C1202 1.387 . S
C1201 H1204 0.950 . S
C1202 C1201 1.387 . S
C1202 C1205 1.387 . S
H1203 C1199 0.950 . S
H1204 C1201 0.950 . S
C1205 C1196 1.390 . S
C1205 H1198 0.950 . S
C1205 C1202 1.387 . S
C1206 C1207 1.387 . S
C1206 H1210 0.950 . S
C1206 C1215 1.390 . S
C1207 C1206 1.387 . S
C1207 C1209 1.387 . S
H1208 C1215 0.950 . S
C1209 C1207 1.387 . S
C1209 C1211 1.390 . S
C1209 H1213 0.950 . S
H1210 C1206 0.950 . S
C1211 C1209 1.390 . S
C1211 C1212 1.387 . S
C1211 H1214 0.950 . S
C1212 C1211 1.387 . S
C1212 C1215 1.387 . S
H1213 C1209 0.950 . S
H1214 C1211 0.950 . S
C1215 C1206 1.390 . S
C1215 H1208 0.950 . S
C1215 C1212 1.387 . S
C1216 C1217 1.387 . S
C1216 H1220 0.950 . S
C1216 C1225 1.390 . S
C1217 C1216 1.387 . S
C1217 C1219 1.387 . S
H1218 C1225 0.950 . S
C1219 C1217 1.387 . S
C1219 C1221 1.390 . S
C1219 H1223 0.950 . S
H1220 C1216 0.950 . S
C1221 C1219 1.390 . S
C1221 C1222 1.387 . S
C1221 H1224 0.950 1_565 S
C1222 C1221 1.387 . S
C1222 C1225 1.387 . S
H1223 C1219 0.950 . S
H1224 C1221 0.950 1_545 S
C1225 C1216 1.390 . S
C1225 H1218 0.950 . S
C1225 C1222 1.387 . S
C1226 C1227 1.387 . S
C1226 H1230 0.950 . S
C1226 C1235 1.390 . S
C1227 C1226 1.387 . S
C1227 C1229 1.387 . S
H1228 C1235 0.950 . S
C1229 C1227 1.387 . S
C1229 C1231 1.390 . S
C1229 H1233 0.950 . S
H1230 C1226 0.950 . S
C1231 C1229 1.390 . S
C1231 C1232 1.387 . S
C1231 H1234 0.950 . S
C1232 C1231 1.387 . S
C1232 C1235 1.387 . S
H1233 C1229 0.950 . S
H1234 C1231 0.950 . S
C1235 C1226 1.390 . S
C1235 H1228 0.950 . S
C1235 C1232 1.387 . S
C1236 C1237 1.387 . S
C1236 H1240 0.950 . S
C1236 C1245 1.390 . S
C1237 C1236 1.387 . S
C1237 C1239 1.387 . S
H1238 C1245 0.950 . S
C1239 C1237 1.387 . S
C1239 C1241 1.390 . S
C1239 H1243 0.950 . S
H1240 C1236 0.950 . S
C1241 C1239 1.390 . S
C1241 C1242 1.387 . S
C1241 H1244 0.950 . S
C1242 C1241 1.387 . S
C1242 C1245 1.387 . S
H1243 C1239 0.950 . S
H1244 C1241 0.950 . S
C1245 C1236 1.390 . S
C1245 H1238 0.950 . S
C1245 C1242 1.387 . S
C1246 C1247 1.387 . S
C1246 H1250 0.950 . S
C1246 C1255 1.390 . S
C1247 C1246 1.387 . S
C1247 C1249 1.387 . S
H1248 C1255 0.950 . S
C1249 C1247 1.387 . S
C1249 C1251 1.390 . S
C1249 H1253 0.950 . S
H1250 C1246 0.950 . S
C1251 C1249 1.390 . S
C1251 C1252 1.387 . S
C1251 H1254 0.950 . S
C1252 C1251 1.387 . S
C1252 C1255 1.387 . S
H1253 C1249 0.950 . S
H1254 C1251 0.950 . S
C1255 C1246 1.390 . S
C1255 H1248 0.950 . S
C1255 C1252 1.387 . S
C1256 C1257 1.387 . S
C1256 H1260 0.950 . S
C1256 C1265 1.390 . S
C1257 C1256 1.387 . S
C1257 C1259 1.387 . S
H1258 C1265 0.950 . S
C1259 C1257 1.387 . S
C1259 C1261 1.390 . S
C1259 H1263 0.950 . S
H1260 C1256 0.950 . S
C1261 C1259 1.390 . S
C1261 C1262 1.387 . S
C1261 H1264 0.950 1_455 S
C1262 C1261 1.387 . S
C1262 C1265 1.387 . S
H1263 C1259 0.950 . S
H1264 C1261 0.950 1_655 S
C1265 C1256 1.390 . S
C1265 H1258 0.950 . S
C1265 C1262 1.387 . S
C1266 C1267 1.387 . S
C1266 H1270 0.950 . S
C1266 C1275 1.390 . S
C1267 C1266 1.387 . S
C1267 C1269 1.387 . S
H1268 C1275 0.950 . S
C1269 C1267 1.387 . S
C1269 C1271 1.390 . S
C1269 H1273 0.950 . S
H1270 C1266 0.950 . S
C1271 C1269 1.390 . S
C1271 C1272 1.387 . S
C1271 H1274 0.950 . S
C1272 C1271 1.387 . S
C1272 C1275 1.387 . S
H1273 C1269 0.950 . S
H1274 C1271 0.950 . S
C1275 C1266 1.390 . S
C1275 H1268 0.950 . S
C1275 C1272 1.387 . S
C1276 C1277 1.387 . S
C1276 H1280 0.950 . S
C1276 C1285 1.390 . S
C1277 C1276 1.387 . S
C1277 C1279 1.387 . S
H1278 C1285 0.950 . S
C1279 C1277 1.387 . S
C1279 C1281 1.390 . S
C1279 H1283 0.950 . S
H1280 C1276 0.950 . S
C1281 C1279 1.390 . S
C1281 C1282 1.387 . S
C1281 H1284 0.950 . S
C1282 C1281 1.387 . S
C1282 C1285 1.387 . S
H1283 C1279 0.950 . S
H1284 C1281 0.950 . S
C1285 C1276 1.390 . S
C1285 H1278 0.950 . S
C1285 C1282 1.387 . S
C1286 C1287 1.387 . S
C1286 H1290 0.950 . S
C1286 C1295 1.390 . S
C1287 C1286 1.387 . S
C1287 C1289 1.387 . S
H1288 C1295 0.950 . S
C1289 C1287 1.387 . S
C1289 C1291 1.390 . S
C1289 H1293 0.950 . S
H1290 C1286 0.950 . S
C1291 C1289 1.390 . S
C1291 C1292 1.387 . S
C1291 H1294 0.950 . S
C1292 C1291 1.387 . S
C1292 C1295 1.387 . S
H1293 C1289 0.950 . S
H1294 C1291 0.950 . S
C1295 C1286 1.390 . S
C1295 H1288 0.950 . S
C1295 C1292 1.387 . S
C1296 C1297 1.387 . S
C1296 H1300 0.950 . S
C1296 C1305 1.390 . S
C1297 C1296 1.387 . S
C1297 C1299 1.387 . S
H1298 C1305 0.950 . S
C1299 C1297 1.387 . S
C1299 C1301 1.390 . S
C1299 H1303 0.950 . S
H1300 C1296 0.950 . S
C1301 C1299 1.390 . S
C1301 C1302 1.387 . S
C1301 H1304 0.950 . S
C1302 C1301 1.387 . S
C1302 C1305 1.387 . S
H1303 C1299 0.950 . S
H1304 C1301 0.950 . S
C1305 C1296 1.390 . S
C1305 H1298 0.950 . S
C1305 C1302 1.387 . S
C1306 C1307 1.387 . S
C1306 H1310 0.950 . S
C1306 C1315 1.390 . S
C1307 C1306 1.387 . S
C1307 C1309 1.387 . S
H1308 C1315 0.950 . S
C1309 C1307 1.387 . S
C1309 C1311 1.390 . S
C1309 H1313 0.950 . S
H1310 C1306 0.950 . S
C1311 C1309 1.390 . S
C1311 C1312 1.387 . S
C1311 H1314 0.950 . S
C1312 C1311 1.387 . S
C1312 C1315 1.387 . S
H1313 C1309 0.950 . S
H1314 C1311 0.950 . S
C1315 C1306 1.390 . S
C1315 H1308 0.950 . S
C1315 C1312 1.387 . S
C1316 C1317 1.387 . S
C1316 H1320 0.950 . S
C1316 C1325 1.390 . S
C1317 C1316 1.387 . S
C1317 C1319 1.387 . S
H1318 C1325 0.950 . S
C1319 C1317 1.387 . S
C1319 C1321 1.390 . S
C1319 H1323 0.950 . S
H1320 C1316 0.950 . S
C1321 C1319 1.390 . S
C1321 C1322 1.387 . S
C1321 H1324 0.950 . S
C1322 C1321 1.387 . S
C1322 C1325 1.387 . S
H1323 C1319 0.950 . S
H1324 C1321 0.950 . S
C1325 C1316 1.390 . S
C1325 H1318 0.950 . S
C1325 C1322 1.387 . S
C1326 C1327 1.387 . S
C1326 H1330 0.950 . S
C1326 C1335 1.390 . S
C1327 C1326 1.387 . S
C1327 C1329 1.387 . S
H1328 C1335 0.950 . S
C1329 C1327 1.387 . S
C1329 C1331 1.390 . S
C1329 H1333 0.950 . S
H1330 C1326 0.950 . S
C1331 C1329 1.390 . S
C1331 C1332 1.387 . S
C1331 H1334 0.950 . S
C1332 C1331 1.387 . S
C1332 C1335 1.387 . S
H1333 C1329 0.950 . S
H1334 C1331 0.950 . S
C1335 C1326 1.390 . S
C1335 H1328 0.950 . S
C1335 C1332 1.387 . S
C1336 C1337 1.387 . S
C1336 H1340 0.950 . S
C1336 C1345 1.390 . S
C1337 C1336 1.387 . S
C1337 C1339 1.387 . S
H1338 C1345 0.950 . S
C1339 C1337 1.387 . S
C1339 C1341 1.390 . S
C1339 H1343 0.950 . S
H1340 C1336 0.950 . S
C1341 C1339 1.390 . S
C1341 C1342 1.387 . S
C1341 H1344 0.950 . S
C1342 C1341 1.387 . S
C1342 C1345 1.387 . S
H1343 C1339 0.950 . S
H1344 C1341 0.950 . S
C1345 C1336 1.390 . S
C1345 H1338 0.950 . S
C1345 C1342 1.387 . S
C1346 C1347 1.387 . S
C1346 H1350 0.950 . S
C1346 C1355 1.390 . S
C1347 C1346 1.387 . S
C1347 C1349 1.387 . S
H1348 C1355 0.950 . S
C1349 C1347 1.387 . S
C1349 C1351 1.390 . S
C1349 H1353 0.950 . S
H1350 C1346 0.950 . S
C1351 C1349 1.390 . S
C1351 C1352 1.387 . S
C1351 H1354 0.950 . S
C1352 C1351 1.387 . S
C1352 C1355 1.387 . S
H1353 C1349 0.950 . S
H1354 C1351 0.950 . S
C1355 C1346 1.390 . S
C1355 H1348 0.950 . S
C1355 C1352 1.387 . S
C1356 C1357 1.387 . S
C1356 H1360 0.950 . S
C1356 C1365 1.390 . S
C1357 C1356 1.387 . S
C1357 C1359 1.387 . S
H1358 C1365 0.950 . S
C1359 C1357 1.387 . S
C1359 C1361 1.390 . S
C1359 H1363 0.950 . S
H1360 C1356 0.950 . S
C1361 C1359 1.390 . S
C1361 C1362 1.387 . S
C1361 H1364 0.950 . S
C1362 C1361 1.387 . S
C1362 C1365 1.387 . S
H1363 C1359 0.950 . S
H1364 C1361 0.950 . S
C1365 C1356 1.390 . S
C1365 H1358 0.950 . S
C1365 C1362 1.387 . S
C1366 C1367 1.387 . S
C1366 H1370 0.950 . S
C1366 C1375 1.390 . S
C1367 C1366 1.387 . S
C1367 C1369 1.387 . S
H1368 C1375 0.950 . S
C1369 C1367 1.387 . S
C1369 C1371 1.390 . S
C1369 H1373 0.950 . S
H1370 C1366 0.950 . S
C1371 C1369 1.390 . S
C1371 C1372 1.387 . S
C1371 H1374 0.950 . S
C1372 C1371 1.387 . S
C1372 C1375 1.387 . S
H1373 C1369 0.950 . S
H1374 C1371 0.950 . S
C1375 C1366 1.390 . S
C1375 H1368 0.950 . S
C1375 C1372 1.387 . S
C1376 C1377 1.385 1_554 S
C1376 H1380 0.964 . S
C1376 C1385 1.379 1_554 S
C1377 C1376 1.385 1_556 S
C1377 C1379 1.387 . S
H1378 C1385 0.950 . S
C1379 C1377 1.387 . S
C1379 C1381 1.390 . S
C1379 H1383 0.950 . S
H1380 C1376 0.964 . S
C1381 C1379 1.390 . S
C1381 C1382 1.387 . S
C1381 H1384 0.950 . S
C1382 C1381 1.387 . S
C1382 C1385 1.387 . S
H1383 C1379 0.950 . S
H1384 C1381 0.950 . S
C1385 C1376 1.379 1_556 S
C1385 H1378 0.950 . S
C1385 C1382 1.387 . S
C1386 C1387 1.387 . S
C1386 H1390 0.950 1_554 S
C1386 C1395 1.390 . S
C1387 C1386 1.387 . S
C1387 C1389 1.387 . S
H1388 C1395 0.950 1_556 S
C1389 C1387 1.387 . S
C1389 C1391 1.390 . S
C1389 H1393 0.950 . S
H1390 C1386 0.950 1_556 S
C1391 C1389 1.390 . S
C1391 C1392 1.387 . S
C1391 H1394 0.950 . S
C1392 C1391 1.387 . S
C1392 C1395 1.387 . S
H1393 C1389 0.950 . S
H1394 C1391 0.950 . S
C1395 C1386 1.390 . S
C1395 H1388 0.950 1_554 S
C1395 C1392 1.387 . S
C1396 C1397 1.387 . S
C1396 H1400 0.950 . S
C1396 C1405 1.390 . S
C1397 C1396 1.387 . S
C1397 C1399 1.387 . S
H1398 C1405 0.950 . S
C1399 C1397 1.387 . S
C1399 C1401 1.390 . S
C1399 H1403 0.950 . S
H1400 C1396 0.950 . S
C1401 C1399 1.390 . S
C1401 C1402 1.387 . S
C1401 H1404 0.950 . S
C1402 C1401 1.387 . S
C1402 C1405 1.387 . S
H1403 C1399 0.950 . S
H1404 C1401 0.950 . S
C1405 C1396 1.390 . S
C1405 H1398 0.950 . S
C1405 C1402 1.387 . S
C1406 C1407 1.387 . S
C1406 H1410 0.950 . S
C1406 C1415 1.390 . S
C1407 C1406 1.387 . S
C1407 C1409 1.387 . S
H1408 C1415 0.950 . S
C1409 C1407 1.387 . S
C1409 C1411 1.390 . S
C1409 H1413 0.950 . S
H1410 C1406 0.950 . S
C1411 C1409 1.390 . S
C1411 C1412 1.387 . S
C1411 H1414 0.950 . S
C1412 C1411 1.387 . S
C1412 C1415 1.387 . S
H1413 C1409 0.950 . S
H1414 C1411 0.950 . S
C1415 C1406 1.390 . S
C1415 H1408 0.950 . S
C1415 C1412 1.387 . S
C1416 C1417 1.387 . S
C1416 H1420 0.950 . S
C1416 C1425 1.390 . S
C1417 C1416 1.387 . S
C1417 C1419 1.387 . S
H1418 C1425 0.950 . S
C1419 C1417 1.387 . S
C1419 C1421 1.390 . S
C1419 H1423 0.950 . S
H1420 C1416 0.950 . S
C1421 C1419 1.390 . S
C1421 C1422 1.387 . S
C1421 H1424 0.950 . S
C1422 C1421 1.387 . S
C1422 C1425 1.387 . S
H1423 C1419 0.950 . S
H1424 C1421 0.950 . S
C1425 C1416 1.390 . S
C1425 H1418 0.950 . S
C1425 C1422 1.387 . S
C1426 C1427 1.387 . S
C1426 H1430 0.950 . S
C1426 C1435 1.390 . S
C1427 C1426 1.387 . S
C1427 C1429 1.387 . S
H1428 C1435 0.967 . S
C1429 C1427 1.387 . S
C1429 C1431 1.390 . S
C1429 H1433 0.950 . S
H1430 C1426 0.950 . S
C1431 C1429 1.390 . S
C1431 C1432 1.387 . S
C1431 H1434 0.950 . S
C1432 C1431 1.387 . S
C1432 C1435 1.387 . S
H1433 C1429 0.950 . S
H1434 C1431 0.950 . S
C1435 C1426 1.390 . S
C1435 H1428 0.967 . S
C1435 C1432 1.387 . S
C1436 C1437 1.387 . S
C1436 H1440 0.950 . S
C1436 C1445 1.390 . S
C1437 C1436 1.387 . S
C1437 C1439 1.387 . S
H1438 C1445 0.950 . S
C1439 C1437 1.387 . S
C1439 C1441 1.390 . S
C1439 H1443 0.950 . S
H1440 C1436 0.950 . S
C1441 C1439 1.390 . S
C1441 C1442 1.387 . S
C1441 H1444 0.950 . S
C1442 C1441 1.387 . S
C1442 C1445 1.387 . S
H1443 C1439 0.950 . S
H1444 C1441 0.950 . S
C1445 C1436 1.390 . S
C1445 H1438 0.950 . S
C1445 C1442 1.387 . S
C1446 C1447 1.387 . S
C1446 H1450 0.950 . S
C1446 C1455 1.390 . S
C1447 C1446 1.387 . S
C1447 C1449 1.387 . S
H1448 C1455 0.950 . S
C1449 C1447 1.387 . S
C1449 C1451 1.390 . S
C1449 H1453 0.950 . S
H1450 C1446 0.950 . S
C1451 C1449 1.390 . S
C1451 C1452 1.387 . S
C1451 H1454 0.950 . S
C1452 C1451 1.387 . S
C1452 C1455 1.387 . S
H1453 C1449 0.950 . S
H1454 C1451 0.950 . S
C1455 C1446 1.390 . S
C1455 H1448 0.950 . S
C1455 C1452 1.387 . S
C1456 C1457 1.387 . S
C1456 H1460 0.950 . S
C1456 C1465 1.390 . S
C1457 C1456 1.387 . S
C1457 C1459 1.387 . S
H1458 C1465 0.950 . S
C1459 C1457 1.387 . S
C1459 C1461 1.390 . S
C1459 H1463 0.950 . S
H1460 C1456 0.950 . S
C1461 C1459 1.390 . S
C1461 C1462 1.387 . S
C1461 H1464 0.950 . S
C1462 C1461 1.387 . S
C1462 C1465 1.387 . S
H1463 C1459 0.950 . S
H1464 C1461 0.950 . S
C1465 C1456 1.390 . S
C1465 H1458 0.950 . S
C1465 C1462 1.387 . S
C1466 C1467 1.387 . S
C1466 H1470 0.950 . S
C1466 C1475 1.390 . S
C1467 C1466 1.387 . S
C1467 C1469 1.387 . S
H1468 C1475 0.950 . S
C1469 C1467 1.387 . S
C1469 C1471 1.390 . S
C1469 H1473 0.950 . S
H1470 C1466 0.950 . S
C1471 C1469 1.390 . S
C1471 C1472 1.387 . S
C1471 H1474 0.950 . S
C1472 C1471 1.387 . S
C1472 C1475 1.387 . S
H1473 C1469 0.950 . S
H1474 C1471 0.950 . S
C1475 C1466 1.390 . S
C1475 H1468 0.950 . S
C1475 C1472 1.387 . S
C1476 C1477 1.387 . S
C1476 H1480 0.950 . S
C1476 C1485 1.390 . S
C1477 C1476 1.387 . S
C1477 C1479 1.387 . S
H1478 C1485 0.950 . S
C1479 C1477 1.387 . S
C1479 C1481 1.390 . S
C1479 H1483 0.950 . S
H1480 C1476 0.950 . S
C1481 C1479 1.390 . S
C1481 C1482 1.387 . S
C1481 H1484 0.950 . S
C1482 C1481 1.387 . S
C1482 C1485 1.387 . S
H1483 C1479 0.950 . S
H1484 C1481 0.950 . S
C1485 C1476 1.390 . S
C1485 H1478 0.950 . S
C1485 C1482 1.387 . S
C1486 C1487 1.387 . S
C1486 H1490 0.950 . S
C1486 C1495 1.390 . S
C1487 C1486 1.387 . S
C1487 C1489 1.387 . S
H1488 C1495 0.950 1_655 S
C1489 C1487 1.387 . S
C1489 C1491 1.390 . S
C1489 H1493 0.950 . S
H1490 C1486 0.950 . S
C1491 C1489 1.390 . S
C1491 C1492 1.387 . S
C1491 H1494 0.950 . S
C1492 C1491 1.387 . S
C1492 C1495 1.387 . S
H1493 C1489 0.950 . S
H1494 C1491 0.950 . S
C1495 C1486 1.390 . S
C1495 H1488 0.950 1_455 S
C1495 C1492 1.387 . S
C1496 C1497 1.387 . S
C1496 H1500 0.950 . S
C1496 C1505 1.390 . S
C1497 C1496 1.387 . S
C1497 C1499 1.387 . S
H1498 C1505 0.950 . S
C1499 C1497 1.387 . S
C1499 C1501 1.390 . S
C1499 H1503 0.950 . S
H1500 C1496 0.950 . S
C1501 C1499 1.390 . S
C1501 C1502 1.387 . S
C1501 H1504 0.950 . S
C1502 C1501 1.387 . S
C1502 C1505 1.387 . S
H1503 C1499 0.950 . S
H1504 C1501 0.950 . S
C1505 C1496 1.390 . S
C1505 H1498 0.950 . S
C1505 C1502 1.387 . S
C1506 C1507 1.387 . S
C1506 H1510 0.950 . S
C1506 C1515 1.390 . S
C1507 C1506 1.387 . S
C1507 C1509 1.387 . S
H1508 C1515 0.950 . S
C1509 C1507 1.387 . S
C1509 C1511 1.390 . S
C1509 H1513 0.950 . S
H1510 C1506 0.950 . S
C1511 C1509 1.390 . S
C1511 C1512 1.387 . S
C1511 H1514 0.950 . S
C1512 C1511 1.387 . S
C1512 C1515 1.387 . S
H1513 C1509 0.950 . S
H1514 C1511 0.950 . S
C1515 C1506 1.390 . S
C1515 H1508 0.950 . S
C1515 C1512 1.387 . S
C1516 C1517 1.387 . S
C1516 H1520 0.950 1_455 S
C1516 C1525 1.390 . S
C1517 C1516 1.387 . S
C1517 C1519 1.387 . S
H1518 C1525 0.950 1_655 S
C1519 C1517 1.387 . S
C1519 C1521 1.390 . S
C1519 H1523 0.950 . S
H1520 C1516 0.950 1_655 S
C1521 C1519 1.390 . S
C1521 C1522 1.387 . S
C1521 H1524 0.950 . S
C1522 C1521 1.387 . S
C1522 C1525 1.387 . S
H1523 C1519 0.950 . S
H1524 C1521 0.950 . S
C1525 C1516 1.390 . S
C1525 H1518 0.950 1_455 S
C1525 C1522 1.387 . S
C1526 C1527 1.387 . S
C1526 H1530 0.950 . S
C1526 C1535 1.390 . S
C1527 C1526 1.387 . S
C1527 C1529 1.387 . S
H1528 C1535 0.950 . S
C1529 C1527 1.387 . S
C1529 C1531 1.390 . S
C1529 H1533 0.950 . S
H1530 C1526 0.950 . S
C1531 C1529 1.390 . S
C1531 C1532 1.387 . S
C1531 H1534 0.950 . S
C1532 C1531 1.387 . S
C1532 C1535 1.387 . S
H1533 C1529 0.950 . S
H1534 C1531 0.950 . S
C1535 C1526 1.390 . S
C1535 H1528 0.950 . S
C1535 C1532 1.387 . S
C1536 C1537 1.387 . S
C1536 H1540 0.950 . S
C1536 C1545 1.390 . S
C1537 C1536 1.387 . S
C1537 C1539 1.387 . S
H1538 C1545 0.950 . S
C1539 C1537 1.387 . S
C1539 C1541 1.390 . S
C1539 H1543 0.950 . S
H1540 C1536 0.950 . S
C1541 C1539 1.390 . S
C1541 C1542 1.387 . S
C1541 H1544 0.950 . S
C1542 C1541 1.387 . S
C1542 C1545 1.387 . S
H1543 C1539 0.950 . S
H1544 C1541 0.950 . S
C1545 C1536 1.390 . S
C1545 H1538 0.950 . S
C1545 C1542 1.387 . S
C1546 C1547 1.387 . S
C1546 H1550 0.950 . S
C1546 C1555 1.390 . S
C1547 C1546 1.387 . S
C1547 C1549 1.387 . S
H1548 C1555 0.950 . S
C1549 C1547 1.387 . S
C1549 C1551 1.390 . S
C1549 H1553 0.950 . S
H1550 C1546 0.950 . S
C1551 C1549 1.390 . S
C1551 C1552 1.387 . S
C1551 H1554 0.950 . S
C1552 C1551 1.387 . S
C1552 C1555 1.387 . S
H1553 C1549 0.950 . S
H1554 C1551 0.950 . S
C1555 C1546 1.390 . S
C1555 H1548 0.950 . S
C1555 C1552 1.387 . S
C1556 C1557 1.387 . S
C1556 H1560 0.950 . S
C1556 C1565 1.390 . S
C1557 C1556 1.387 . S
C1557 C1559 1.387 . S
H1558 C1565 0.950 . S
C1559 C1557 1.387 . S
C1559 C1561 1.390 . S
C1559 H1563 0.950 . S
H1560 C1556 0.950 . S
C1561 C1559 1.390 . S
C1561 C1562 1.387 . S
C1561 H1564 0.950 . S
C1562 C1561 1.387 . S
C1562 C1565 1.387 . S
H1563 C1559 0.950 . S
H1564 C1561 0.950 . S
C1565 C1556 1.390 . S
C1565 H1558 0.950 . S
C1565 C1562 1.387 . S
C1566 C1567 1.387 . S
C1566 H1570 0.950 . S
C1566 C1575 1.390 . S
C1567 C1566 1.387 . S
C1567 C1569 1.387 . S
H1568 C1575 0.950 . S
C1569 C1567 1.387 . S
C1569 C1571 1.390 . S
C1569 H1573 0.950 . S
H1570 C1566 0.950 . S
C1571 C1569 1.390 . S
C1571 C1572 1.387 . S
C1571 H1574 0.950 . S
C1572 C1571 1.387 . S
C1572 C1575 1.387 . S
H1573 C1569 0.950 . S
H1574 C1571 0.950 . S
C1575 C1566 1.390 . S
C1575 H1568 0.950 . S
C1575 C1572 1.387 . S
C1576 C1577 1.387 . S
C1576 H1580 0.950 . S
C1576 C1585 1.390 . S
C1577 C1576 1.387 . S
C1577 C1579 1.387 . S
H1578 C1585 0.950 . S
C1579 C1577 1.387 . S
C1579 C1581 1.390 . S
C1579 H1583 0.950 . S
H1580 C1576 0.950 . S
C1581 C1579 1.390 . S
C1581 C1582 1.387 . S
C1581 H1584 0.950 . S
C1582 C1581 1.387 . S
C1582 C1585 1.387 . S
H1583 C1579 0.950 . S
H1584 C1581 0.950 . S
C1585 C1576 1.390 . S
C1585 H1578 0.950 . S
C1585 C1582 1.387 . S
C1586 C1587 1.387 . S
C1586 H1590 0.950 . S
C1586 C1595 1.390 . S
C1587 C1586 1.387 . S
C1587 C1589 1.387 . S
H1588 C1595 0.950 . S
C1589 C1587 1.387 . S
C1589 C1591 1.390 . S
C1589 H1593 0.950 . S
H1590 C1586 0.950 . S
C1591 C1589 1.390 . S
C1591 C1592 1.387 . S
C1591 H1594 0.950 . S
C1592 C1591 1.387 . S
C1592 C1595 1.387 . S
H1593 C1589 0.950 . S
H1594 C1591 0.950 . S
C1595 C1586 1.390 . S
C1595 H1588 0.950 . S
C1595 C1592 1.387 . S
C1596 C1597 1.387 . S
C1596 H1600 0.950 . S
C1596 C1605 1.390 . S
C1597 C1596 1.387 . S
C1597 C1599 1.387 . S
H1598 C1605 0.950 . S
C1599 C1597 1.387 . S
C1599 C1601 1.390 . S
C1599 H1603 0.950 . S
H1600 C1596 0.950 . S
C1601 C1599 1.390 . S
C1601 C1602 1.387 . S
C1601 H1604 0.950 . S
C1602 C1601 1.387 . S
C1602 C1605 1.387 . S
H1603 C1599 0.950 . S
H1604 C1601 0.950 . S
C1605 C1596 1.390 . S
C1605 H1598 0.950 . S
C1605 C1602 1.387 . S
C1606 C1607 1.387 . S
C1606 H1610 0.950 . S
C1606 C1615 1.390 . S
C1607 C1606 1.387 . S
C1607 C1609 1.387 . S
H1608 C1615 0.950 . S
C1609 C1607 1.387 . S
C1609 C1611 1.390 . S
C1609 H1613 0.950 . S
H1610 C1606 0.950 . S
C1611 C1609 1.390 . S
C1611 C1612 1.387 . S
C1611 H1614 0.950 . S
C1612 C1611 1.387 . S
C1612 C1615 1.387 . S
H1613 C1609 0.950 . S
H1614 C1611 0.950 . S
C1615 C1606 1.390 . S
C1615 H1608 0.950 . S
C1615 C1612 1.387 . S
C1616 C1617 1.387 . S
C1616 H1620 0.950 . S
C1616 C1625 1.390 . S
C1617 C1616 1.387 . S
C1617 C1619 1.387 . S
H1618 C1625 0.950 . S
C1619 C1617 1.387 . S
C1619 C1621 1.390 . S
C1619 H1623 0.950 . S
H1620 C1616 0.950 . S
C1621 C1619 1.390 . S
C1621 C1622 1.387 . S
C1621 H1624 0.950 . S
C1622 C1621 1.387 . S
C1622 C1625 1.387 . S
H1623 C1619 0.950 . S
H1624 C1621 0.950 . S
C1625 C1616 1.390 . S
C1625 H1618 0.950 . S
C1625 C1622 1.387 . S
C1626 C1627 1.387 . S
C1626 H1630 0.950 . S
C1626 C1635 1.390 . S
C1627 C1626 1.387 . S
C1627 C1629 1.387 . S
H1628 C1635 0.950 . S
C1629 C1627 1.387 . S
C1629 C1631 1.390 . S
C1629 H1633 0.950 . S
H1630 C1626 0.950 . S
C1631 C1629 1.390 . S
C1631 C1632 1.387 . S
C1631 H1634 0.950 . S
C1632 C1631 1.387 . S
C1632 C1635 1.387 . S
H1633 C1629 0.950 . S
H1634 C1631 0.950 . S
C1635 C1626 1.390 . S
C1635 H1628 0.950 . S
C1635 C1632 1.387 . S
C1636 C1637 1.387 1_565 S
C1636 H1640 0.950 . S
C1636 C1645 1.390 . S
C1637 C1636 1.387 1_545 S
C1637 C1639 1.387 . S
H1638 C1645 0.950 . S
C1639 C1637 1.387 . S
C1639 C1641 1.390 . S
C1639 H1643 0.950 . S
H1640 C1636 0.950 . S
C1641 C1639 1.390 . S
C1641 C1642 1.387 1_545 S
C1641 H1644 0.950 . S
C1642 C1641 1.387 1_565 S
C1642 C1645 1.387 . S
H1643 C1639 0.950 . S
H1644 C1641 0.950 . S
C1645 C1636 1.390 . S
C1645 H1638 0.950 . S
C1645 C1642 1.387 . S
C1646 C1647 1.387 . S
C1646 H1650 0.950 . S
C1646 C1655 1.390 . S
C1647 C1646 1.387 . S
C1647 C1649 1.387 . S
H1648 C1655 0.950 1_545 S
C1649 C1647 1.387 . S
C1649 C1651 1.390 . S
C1649 H1653 0.950 . S
H1650 C1646 0.950 . S
C1651 C1649 1.390 . S
C1651 C1652 1.387 . S
C1651 H1654 0.950 . S
C1652 C1651 1.387 . S
C1652 C1655 1.387 . S
H1653 C1649 0.950 . S
H1654 C1651 0.950 . S
C1655 C1646 1.390 . S
C1655 H1648 0.950 1_565 S
C1655 C1652 1.387 . S
C1656 C1657 1.387 . S
C1656 H1660 0.950 . S
C1656 C1665 1.390 . S
C1657 C1656 1.387 . S
C1657 C1659 1.387 . S
H1658 C1665 0.950 . S
C1659 C1657 1.387 . S
C1659 C1661 1.390 . S
C1659 H1663 0.950 . S
H1660 C1656 0.950 . S
C1661 C1659 1.390 . S
C1661 C1662 1.387 . S
C1661 H1664 0.950 . S
C1662 C1661 1.387 . S
C1662 C1665 1.387 . S
H1663 C1659 0.950 . S
H1664 C1661 0.950 . S
C1665 C1656 1.390 . S
C1665 H1658 0.950 . S
C1665 C1662 1.387 . S
C1666 C1667 1.387 . S
C1666 H1670 0.950 . S
C1666 C1675 1.390 . S
C1667 C1666 1.387 . S
C1667 C1669 1.387 . S
H1668 C1675 0.950 . S
C1669 C1667 1.387 . S
C1669 C1671 1.390 . S
C1669 H1673 0.950 1_554 S
H1670 C1666 0.950 . S
C1671 C1669 1.390 . S
C1671 C1672 1.387 . S
C1671 H1674 0.950 1_554 S
C1672 C1671 1.387 . S
C1672 C1675 1.387 . S
H1673 C1669 0.950 1_556 S
H1674 C1671 0.950 1_556 S
C1675 C1666 1.390 . S
C1675 H1668 0.950 . S
C1675 C1672 1.387 . S
C1676 C1677 1.387 . S
C1676 H1680 0.950 . S
C1676 C1685 1.390 . S
C1677 C1676 1.387 . S
C1677 C1679 1.387 . S
H1678 C1685 0.950 . S
C1679 C1677 1.387 . S
C1679 C1681 1.390 . S
C1679 H1683 0.950 . S
H1680 C1676 0.950 . S
C1681 C1679 1.390 . S
C1681 C1682 1.387 . S
C1681 H1684 0.950 . S
C1682 C1681 1.387 . S
C1682 C1685 1.387 . S
H1683 C1679 0.950 . S
H1684 C1681 0.950 . S
C1685 C1676 1.390 . S
C1685 H1678 0.950 . S
C1685 C1682 1.387 . S
C1686 C1687 1.387 1_565 S
C1686 H1690 0.950 . S
C1686 C1695 1.390 . S
C1687 C1686 1.387 1_545 S
C1687 C1689 1.387 . S
H1688 C1695 0.950 . S
C1689 C1687 1.387 . S
C1689 C1691 1.390 1_545 S
C1689 H1693 0.950 . S
H1690 C1686 0.950 . S
C1691 C1689 1.390 1_565 S
C1691 C1692 1.387 . S
C1691 H1694 0.950 . S
C1692 C1691 1.387 . S
C1692 C1695 1.387 . S
H1693 C1689 0.950 . S
H1694 C1691 0.950 . S
C1695 C1686 1.390 . S
C1695 H1688 0.950 . S
C1695 C1692 1.387 . S
C1696 C1697 1.387 . S
C1696 H1700 0.950 . S
C1696 C1705 1.390 . S
C1697 C1696 1.387 . S
C1697 C1699 1.387 . S
H1698 C1705 0.950 . S
C1699 C1697 1.387 . S
C1699 C1701 1.390 . S
C1699 H1703 0.950 . S
H1700 C1696 0.950 . S
C1701 C1699 1.390 . S
C1701 C1702 1.387 . S
C1701 H1704 0.950 . S
C1702 C1701 1.387 . S
C1702 C1705 1.387 . S
H1703 C1699 0.950 . S
H1704 C1701 0.950 . S
C1705 C1696 1.390 . S
C1705 H1698 0.950 . S
C1705 C1702 1.387 . S
C1706 C1707 1.387 . S
C1706 H1710 0.950 . S
C1706 C1715 1.390 . S
C1707 C1706 1.387 . S
C1707 C1709 1.387 . S
H1708 C1715 0.950 . S
C1709 C1707 1.387 . S
C1709 C1711 1.390 . S
C1709 H1713 0.950 . S
H1710 C1706 0.950 . S
C1711 C1709 1.390 . S
C1711 C1712 1.387 . S
C1711 H1714 0.950 . S
C1712 C1711 1.387 . S
C1712 C1715 1.387 . S
H1713 C1709 0.950 . S
H1714 C1711 0.950 . S
C1715 C1706 1.390 . S
C1715 H1708 0.950 . S
C1715 C1712 1.387 . S
C1716 C1717 1.387 . S
C1716 H1720 0.950 . S
C1716 C1725 1.390 . S
C1717 C1716 1.387 . S
C1717 C1719 1.387 . S
H1718 C1725 0.950 . S
C1719 C1717 1.387 . S
C1719 C1721 1.390 . S
C1719 H1723 0.950 . S
H1720 C1716 0.950 . S
C1721 C1719 1.390 . S
C1721 C1722 1.387 . S
C1721 H1724 0.950 . S
C1722 C1721 1.387 . S
C1722 C1725 1.387 . S
H1723 C1719 0.950 . S
H1724 C1721 0.950 . S
C1725 C1716 1.390 . S
C1725 H1718 0.950 . S
C1725 C1722 1.387 . S
C1726 C1727 1.387 . S
C1726 H1730 0.950 . S
C1726 C1735 1.390 . S
C1727 C1726 1.387 . S
C1727 C1729 1.387 . S
H1728 C1735 0.950 . S
C1729 C1727 1.387 . S
C1729 C1731 1.390 . S
C1729 H1733 0.950 . S
H1730 C1726 0.950 . S
C1731 C1729 1.390 . S
C1731 C1732 1.387 . S
C1731 H1734 0.950 . S
C1732 C1731 1.387 . S
C1732 C1735 1.387 . S
H1733 C1729 0.950 . S
H1734 C1731 0.950 . S
C1735 C1726 1.390 . S
C1735 H1728 0.950 . S
C1735 C1732 1.387 . S
C1736 C1737 1.387 . S
C1736 H1740 0.950 . S
C1736 C1745 1.390 . S
C1737 C1736 1.387 . S
C1737 C1739 1.387 . S
H1738 C1745 0.950 . S
C1739 C1737 1.387 . S
C1739 C1741 1.390 . S
C1739 H1743 0.950 . S
H1740 C1736 0.950 . S
C1741 C1739 1.390 . S
C1741 C1742 1.387 . S
C1741 H1744 0.950 . S
C1742 C1741 1.387 . S
C1742 C1745 1.387 . S
H1743 C1739 0.950 . S
H1744 C1741 0.950 . S
C1745 C1736 1.390 . S
C1745 H1738 0.950 . S
C1745 C1742 1.387 . S
C1746 C1747 1.387 . S
C1746 H1750 0.950 . S
C1746 C1755 1.390 . S
C1747 C1746 1.387 . S
C1747 C1749 1.387 . S
H1748 C1755 0.950 . S
C1749 C1747 1.387 . S
C1749 C1751 1.390 . S
C1749 H1753 0.950 . S
H1750 C1746 0.950 . S
C1751 C1749 1.390 . S
C1751 C1752 1.387 . S
C1751 H1754 0.950 . S
C1752 C1751 1.387 . S
C1752 C1755 1.387 . S
H1753 C1749 0.950 . S
H1754 C1751 0.950 . S
C1755 C1746 1.390 . S
C1755 H1748 0.950 . S
C1755 C1752 1.387 . S
C1756 C1757 1.387 . S
C1756 H1760 0.950 . S
C1756 C1765 1.390 . S
C1757 C1756 1.387 . S
C1757 C1759 1.387 . S
H1758 C1765 0.950 . S
C1759 C1757 1.387 . S
C1759 C1761 1.390 . S
C1759 H1763 0.950 . S
H1760 C1756 0.950 . S
C1761 C1759 1.390 . S
C1761 C1762 1.387 . S
C1761 H1764 0.950 . S
C1762 C1761 1.387 . S
C1762 C1765 1.387 . S
H1763 C1759 0.950 . S
H1764 C1761 0.950 . S
C1765 C1756 1.390 . S
C1765 H1758 0.950 . S
C1765 C1762 1.387 . S
C1766 C1767 1.387 . S
C1766 H1770 0.950 . S
C1766 C1775 1.390 . S
C1767 C1766 1.387 . S
C1767 C1769 1.387 . S
H1768 C1775 0.950 . S
C1769 C1767 1.387 . S
C1769 C1771 1.390 . S
C1769 H1773 0.950 . S
H1770 C1766 0.950 . S
C1771 C1769 1.390 . S
C1771 C1772 1.387 . S
C1771 H1774 0.950 . S
C1772 C1771 1.387 . S
C1772 C1775 1.387 . S
H1773 C1769 0.950 . S
H1774 C1771 0.950 . S
C1775 C1766 1.390 . S
C1775 H1768 0.950 . S
C1775 C1772 1.387 . S
C1776 C1777 1.387 . S
C1776 H1780 0.950 . S
C1776 C1785 1.390 . S
C1777 C1776 1.387 . S
C1777 C1779 1.387 . S
H1778 C1785 0.950 . S
C1779 C1777 1.387 . S
C1779 C1781 1.390 . S
C1779 H1783 0.950 . S
H1780 C1776 0.950 . S
C1781 C1779 1.390 . S
C1781 C1782 1.387 . S
C1781 H1784 0.950 . S
C1782 C1781 1.387 . S
C1782 C1785 1.387 . S
H1783 C1779 0.950 . S
H1784 C1781 0.950 . S
C1785 C1776 1.390 . S
C1785 H1778 0.950 . S
C1785 C1782 1.387 . S
C1786 C1787 1.387 . S
C1786 H1790 0.950 . S
C1786 C1795 1.390 . S
C1787 C1786 1.387 . S
C1787 C1789 1.387 . S
H1788 C1795 0.950 . S
C1789 C1787 1.387 . S
C1789 C1791 1.390 . S
C1789 H1793 0.950 . S
H1790 C1786 0.950 . S
C1791 C1789 1.390 . S
C1791 C1792 1.387 . S
C1791 H1794 0.950 . S
C1792 C1791 1.387 . S
C1792 C1795 1.387 . S
H1793 C1789 0.950 . S
H1794 C1791 0.950 . S
C1795 C1786 1.390 . S
C1795 H1788 0.950 . S
C1795 C1792 1.387 . S
C1796 C1797 1.387 . S
C1796 H1800 0.950 . S
C1796 C1805 1.390 . S
C1797 C1796 1.387 . S
C1797 C1799 1.387 . S
H1798 C1805 0.950 . S
C1799 C1797 1.387 . S
C1799 C1801 1.390 . S
C1799 H1803 0.950 . S
H1800 C1796 0.950 . S
C1801 C1799 1.390 . S
C1801 C1802 1.387 . S
C1801 H1804 0.950 . S
C1802 C1801 1.387 . S
C1802 C1805 1.387 . S
H1803 C1799 0.950 . S
H1804 C1801 0.950 . S
C1805 C1796 1.390 . S
C1805 H1798 0.950 . S
C1805 C1802 1.387 . S
C1806 C1807 1.387 . S
C1806 H1810 0.950 . S
C1806 C1815 1.390 . S
C1807 C1806 1.387 . S
C1807 C1809 1.387 . S
H1808 C1815 0.950 . S
C1809 C1807 1.387 . S
C1809 C1811 1.390 . S
C1809 H1813 0.950 . S
H1810 C1806 0.950 . S
C1811 C1809 1.390 . S
C1811 C1812 1.387 . S
C1811 H1814 0.950 . S
C1812 C1811 1.387 . S
C1812 C1815 1.387 . S
H1813 C1809 0.950 . S
H1814 C1811 0.950 . S
C1815 C1806 1.390 . S
C1815 H1808 0.950 . S
C1815 C1812 1.387 . S
C1816 C1817 1.387 . S
C1816 H1820 0.950 . S
C1816 C1825 1.390 . S
C1817 C1816 1.387 . S
C1817 C1819 1.387 . S
H1818 C1825 0.950 . S
C1819 C1817 1.387 . S
C1819 C1821 1.390 . S
C1819 H1823 0.950 . S
H1820 C1816 0.950 . S
C1821 C1819 1.390 . S
C1821 C1822 1.387 . S
C1821 H1824 0.950 . S
C1822 C1821 1.387 . S
C1822 C1825 1.387 . S
H1823 C1819 0.950 . S
H1824 C1821 0.950 . S
C1825 C1816 1.390 . S
C1825 H1818 0.950 . S
C1825 C1822 1.387 . S
C1826 C1827 1.387 . S
C1826 H1830 0.950 . S
C1826 C1835 1.390 . S
C1827 C1826 1.387 . S
C1827 C1829 1.387 . S
H1828 C1835 0.950 . S
C1829 C1827 1.387 . S
C1829 C1831 1.390 . S
C1829 H1833 0.950 . S
H1830 C1826 0.950 . S
C1831 C1829 1.390 . S
C1831 C1832 1.387 . S
C1831 H1834 0.950 . S
C1832 C1831 1.387 . S
C1832 C1835 1.387 . S
H1833 C1829 0.950 . S
H1834 C1831 0.950 . S
C1835 C1826 1.390 . S
C1835 H1828 0.950 . S
C1835 C1832 1.387 . S
C1836 C1837 1.387 1_655 S
C1836 H1840 0.950 . S
C1836 C1845 1.390 . S
C1837 C1836 1.387 1_455 S
C1837 C1839 1.387 . S
H1838 C1845 0.950 . S
C1839 C1837 1.387 . S
C1839 C1841 1.390 . S
C1839 H1843 0.950 . S
H1840 C1836 0.950 . S
C1841 C1839 1.390 . S
C1841 C1842 1.387 . S
C1841 H1844 0.950 . S
C1842 C1841 1.387 . S
C1842 C1845 1.387 1_455 S
H1843 C1839 0.950 . S
H1844 C1841 0.950 . S
C1845 C1836 1.390 . S
C1845 H1838 0.950 . S
C1845 C1842 1.387 1_655 S
C1846 C1847 1.387 . S
C1846 H1850 0.950 . S
C1846 C1855 1.390 . S
C1847 C1846 1.387 . S
C1847 C1849 1.387 . S
H1848 C1855 0.950 . S
C1849 C1847 1.387 . S
C1849 C1851 1.390 . S
C1849 H1853 0.950 . S
H1850 C1846 0.950 . S
C1851 C1849 1.390 . S
C1851 C1852 1.387 . S
C1851 H1854 0.950 . S
C1852 C1851 1.387 . S
C1852 C1855 1.387 . S
H1853 C1849 0.950 . S
H1854 C1851 0.950 . S
C1855 C1846 1.390 . S
C1855 H1848 0.950 . S
C1855 C1852 1.387 . S
C1856 C1857 1.387 . S
C1856 H1860 0.950 . S
C1856 C1865 1.390 . S
C1857 C1856 1.387 . S
C1857 C1859 1.387 . S
H1858 C1865 0.950 . S
C1859 C1857 1.387 . S
C1859 C1861 1.390 . S
C1859 H1863 0.950 . S
H1860 C1856 0.950 . S
C1861 C1859 1.390 . S
C1861 C1862 1.387 . S
C1861 H1864 0.950 . S
C1862 C1861 1.387 . S
C1862 C1865 1.387 . S
H1863 C1859 0.950 . S
H1864 C1861 0.950 . S
C1865 C1856 1.390 . S
C1865 H1858 0.950 . S
C1865 C1862 1.387 . S
C1866 C1867 1.387 1_545 S
C1866 H1870 0.950 . S
C1866 C1875 1.390 . S
C1867 C1866 1.387 1_565 S
C1867 C1869 1.387 . S
H1868 C1875 0.950 . S
C1869 C1867 1.387 . S
C1869 C1871 1.390 . S
C1869 H1873 0.950 . S
H1870 C1866 0.950 . S
C1871 C1869 1.390 . S
C1871 C1872 1.387 1_565 S
C1871 H1874 0.950 . S
C1872 C1871 1.387 1_545 S
C1872 C1875 1.387 . S
H1873 C1869 0.950 . S
H1874 C1871 0.950 . S
C1875 C1866 1.390 . S
C1875 H1868 0.950 . S
C1875 C1872 1.387 . S
C1876 C1877 1.387 . S
C1876 H1880 0.950 . S
C1876 C1885 1.390 . S
C1877 C1876 1.387 . S
C1877 C1879 1.387 . S
H1878 C1885 0.950 . S
C1879 C1877 1.387 . S
C1879 C1881 1.390 . S
C1879 H1883 0.950 . S
H1880 C1876 0.950 . S
C1881 C1879 1.390 . S
C1881 C1882 1.387 . S
C1881 H1884 0.950 . S
C1882 C1881 1.387 . S
C1882 C1885 1.387 . S
H1883 C1879 0.950 . S
H1884 C1881 0.950 . S
C1885 C1876 1.390 . S
C1885 H1878 0.950 . S
C1885 C1882 1.387 . S
C1886 C1887 1.387 . S
C1886 H1890 0.950 . S
C1886 C1895 1.390 . S
C1887 C1886 1.387 . S
C1887 C1889 1.387 1_556 S
H1888 C1895 0.950 . S
C1889 C1887 1.387 1_554 S
C1889 C1891 1.390 . S
C1889 H1893 0.950 . S
H1890 C1886 0.950 . S
C1891 C1889 1.390 . S
C1891 C1892 1.387 . S
C1891 H1894 0.950 . S
C1892 C1891 1.387 . S
C1892 C1895 1.387 1_554 S
H1893 C1889 0.950 . S
H1894 C1891 0.950 . S
C1895 C1886 1.390 . S
C1895 H1888 0.950 . S
C1895 C1892 1.387 1_556 S
C1896 C1897 1.387 . S
C1896 H1900 0.950 . S
C1896 C1905 1.390 . S
C1897 C1896 1.387 . S
C1897 C1899 1.387 . S
H1898 C1905 0.950 . S
C1899 C1897 1.387 . S
C1899 C1901 1.390 . S
C1899 H1903 0.950 . S
H1900 C1896 0.950 . S
C1901 C1899 1.390 . S
C1901 C1902 1.387 . S
C1901 H1904 0.950 . S
C1902 C1901 1.387 . S
C1902 C1905 1.387 . S
H1903 C1899 0.950 . S
H1904 C1901 0.950 . S
C1905 C1896 1.390 . S
C1905 H1898 0.950 . S
C1905 C1902 1.387 . S
C1906 C1907 1.387 . S
C1906 H1910 0.950 . S
C1906 C1915 1.390 . S
C1907 C1906 1.387 . S
C1907 C1909 1.385 . S
H1908 C1915 0.950 . S
C1909 C1907 1.385 . S
C1909 C1911 1.390 1_554 S
C1909 H1913 0.953 1_554 S
H1910 C1906 0.950 . S
C1911 C1909 1.390 1_556 S
C1911 C1912 1.387 1_556 S
C1911 H1914 0.950 . S
C1912 C1911 1.387 1_554 S
C1912 C1915 1.387 . S
H1913 C1909 0.953 1_556 S
H1914 C1911 0.950 . S
C1915 C1906 1.390 . S
C1915 H1908 0.950 . S
C1915 C1912 1.387 . S
C1916 C1917 1.387 . S
C1916 H1920 0.950 . S
C1916 C1925 1.390 . S
C1917 C1916 1.387 . S
C1917 C1919 1.387 . S
H1918 C1925 0.950 . S
C1919 C1917 1.387 . S
C1919 C1921 1.390 . S
C1919 H1923 0.950 . S
H1920 C1916 0.950 . S
C1921 C1919 1.390 . S
C1921 C1922 1.387 . S
C1921 H1924 0.950 . S
C1922 C1921 1.387 . S
C1922 C1925 1.387 . S
H1923 C1919 0.950 . S
H1924 C1921 0.950 . S
C1925 C1916 1.390 . S
C1925 H1918 0.950 . S
C1925 C1922 1.387 . S
C1926 C1927 1.387 . S
C1926 H1930 0.950 . S
C1926 C1935 1.390 . S
C1927 C1926 1.387 . S
C1927 C1929 1.387 . S
H1928 C1935 0.950 . S
C1929 C1927 1.387 . S
C1929 C1931 1.390 . S
C1929 H1933 0.950 . S
H1930 C1926 0.950 . S
C1931 C1929 1.390 . S
C1931 C1932 1.387 . S
C1931 H1934 0.950 . S
C1932 C1931 1.387 . S
C1932 C1935 1.387 . S
H1933 C1929 0.950 . S
H1934 C1931 0.950 . S
C1935 C1926 1.390 . S
C1935 H1928 0.950 . S
C1935 C1932 1.387 . S
C977 C109 1.849 1_455 S
C982 C358 1.873 . S
C987 C65 1.447 . S
C992 C378 1.414 . S
C997 C75 0.869 . S
C1002 C425 0.864 . S
C1012 C482 1.224 . S
C1007 C84 1.222 . S
C1017 C25 2.616 . S
C1022 C499 2.596 1_565 S
C1032 C558 1.893 . S
C1027 C28 1.890 . S
C1042 C591 2.753 . S
C1037 C47 2.751 . S
C1047 C9 2.599 . S
C1052 C638 2.551 . S
C1062 C351 1.951 . S
C1057 C233 1.880 . S
C1067 C249 1.574 . S
C1072 C379 1.561 . S
C1082 C418 0.701 . S
C1077 C275 0.703 . S
C1092 C478 2.276 . S
C1087 C173 2.256 . S
C1097 C224 0.706 . S
C1102 C505 0.711 . S
C1112 C551 2.252 . S
C1107 C243 2.262 . S
C1122 C602 0.928 . S
C1117 C266 0.936 . S
C1132 C631 2.343 . S
C1127 C179 2.309 . S
C1142 C362 2.140 1_565 S
C1137 C163 2.226 . S
C1147 C289 2.204 . S
C1152 C658 2.161 . S
C1162 C722 1.582 . S
C1157 C333 1.571 . S
C1172 C758 1.560 . S
C1167 C308 1.511 . S
C1177 C123 1.850 . S
C1182 C642 1.934 . S
C1187 C126 2.638 . S
C1192 C419 2.651 . S
C1197 C327 1.593 . S
C1202 C791 1.667 . S
C1212 C825 0.602 . S
C1207 C299 0.575 . S
C1222 C339 1.936 1_565 S
C1217 C67 1.955 . S
C1232 C831 1.619 . S
C1227 C98 1.566 . S
C1237 C89 0.893 . S
C1242 C442 0.884 . S
C1247 C79 1.350 . S
C1252 C785 1.296 . S
C1262 C518 2.618 . S
C1257 C11 2.641 . S
C1267 C51 1.953 . S
C1272 C699 1.931 . S
C1282 C578 2.747 1_566 S
C1277 C33 2.765 . S
C1292 C859 2.551 . S
C1287 C14 2.584 . S
C1302 C338 1.843 . S
C1297 C140 1.774 . S
C1312 C838 1.585 . S
C1307 C319 1.598 . S
C1317 C112 0.703 . S
C1322 C431 0.698 . S
C1327 C285 2.257 . S
C1332 C779 2.276 . S
C1337 C149 0.754 . S
C1342 C522 0.754 . S
C1352 C698 2.293 . S
C1347 C313 2.304 . S
C1357 C121 0.958 . S
C1362 C585 0.924 . S
C1367 C291 2.316 . S
C1372 C858 2.347 . S
C1377 C182 2.100 1_556 S
C1382 C345 2.020 . S
C1387 C168 2.151 . S
C1392 C671 2.138 . S
C1397 C263 1.618 . S
C1402 C545 1.600 . S
C1407 C247 1.641 . S
C1412 C739 1.621 . S
C1422 C865 1.869 . S
C1417 C277 1.822 . S
C1427 C219 2.662 . S
C1432 C438 2.657 1_565 S
C1442 C458 1.689 . S
C1437 C257 1.618 . S
C1452 C402 0.711 . S
C1447 C201 0.707 . S
C1457 C81 1.983 . S
C1462 C918 2.004 . S
C1472 C818 1.420 . S
C1467 C93 1.463 . S
C1477 C103 0.792 . S
C1482 C945 0.793 . S
C1487 C56 1.273 . S
C1492 C802 1.274 1_455 S
C1497 C53 2.605 . S
C1502 C659 2.583 . S
C1512 C718 1.925 . S
C1507 C0 1.922 . S
C1522 C751 2.762 . S
C1517 C19 2.760 . S
C1532 C878 2.484 . S
C1527 C37 2.537 . S
C1542 C911 1.897 . S
C1537 C261 1.831 . S
C1547 C193 1.549 . S
C1552 C819 1.537 . S
C1562 C938 0.707 . S
C1557 C205 0.706 . S
C1572 C798 2.268 . S
C1567 C215 2.251 . S
C1582 C665 0.701 . S
C1577 C252 0.694 . S
C1587 C187 2.297 . S
C1592 C711 2.284 . S
C1602 C762 0.913 . S
C1597 C196 0.924 . S
C1607 C221 2.286 . S
C1612 C871 2.318 . S
C1622 C922 2.159 . S
C1617 C317 2.246 . S
C1627 C135 2.239 . S
C1632 C498 2.194 . S
C1642 C562 1.542 . S
C1637 C151 1.533 . S
C1652 C598 1.557 1_565 S
C1647 C154 1.506 . S
C1662 C882 1.693 . S
C1657 C305 1.638 . S
C1667 C280 2.661 . S
C1672 C939 2.672 1_655 S
C1682 C471 1.700 . S
C1677 C145 1.629 . S
C1692 C385 0.697 . S
C1687 C117 0.699 . S
C1697 C95 1.988 . S
C1702 C899 1.997 . S
C1712 C391 1.425 . S
C1707 C70 1.361 . S
C1717 C61 0.904 . S
C1722 C962 0.897 . S
C1727 C107 1.229 . S
C1732 C465 1.170 . S
C1737 C39 2.632 . S
C1742 C678 2.625 . S
C1752 C539 1.953 . S
C1747 C23 1.977 . S
C1757 C5 2.795 . S
C1762 C738 2.796 . S
C1767 C42 2.540 . S
C1772 C619 2.500 . S
C1782 C898 1.878 . S
C1777 C322 1.804 . S
C1787 C165 1.582 . S
C1792 C398 1.572 . S
C1802 C951 0.628 . S
C1797 C294 0.628 . S
C1807 C131 2.275 . S
C1812 C459 2.290 . S
C1817 C331 0.731 . S
C1822 C682 0.734 . S
C1832 C538 2.324 . S
C1827 C159 2.335 . S
C1837 C303 0.911 . S
C1842 C745 0.876 . S
C1852 C618 2.339 . S
C1847 C137 2.311 . S
C1862 C905 2.087 . S
C1857 C238 2.173 . S
C1872 C511 2.184 . S
C1867 C210 2.196 . S
C1877 C235 1.584 . S
C1882 C705 1.565 . S
C1892 C579 1.578 . S
C1887 C191 1.597 . S
C1897 C207 1.823 . S
C1902 C625 1.863 . S
C1907 C177 2.699 . S
C1912 C958 2.691 . S
C1922 C778 1.709 . S
C1917 C229 1.637 . S
C1932 C842 0.744 . S
C1927 C271 0.743 . S
