# Generated by pormake.
# Topology gar, (4,6)-cn, num edge types: 1
# Building blocks:
#     Node 0, Type 0, BuildingBlock: GALJAG_clean_sbu_0, # of connection points: 4
#     Node 1, Type 0, BuildingBlock: GALJAG_clean_sbu_0, # of connection points: 4
#     Node 2, Type 0, BuildingBlock: GALJAG_clean_sbu_0, # of connection points: 4
#     Node 3, Type 0, BuildingBlock: GALJAG_clean_sbu_0, # of connection points: 4
#     Node 4, Type 0, BuildingBlock: GALJAG_clean_sbu_0, # of connection points: 4
#     Node 5, Type 0, BuildingBlock: GALJAG_clean_sbu_0, # of connection points: 4
#     Node 6, Type 0, BuildingBlock: GALJAG_clean_sbu_0, # of connection points: 4
#     Node 7, Type 0, BuildingBlock: GALJAG_clean_sbu_0, # of connection points: 4
#     Node 8, Type 0, BuildingBlock: GALJAG_clean_sbu_0, # of connection points: 4
#     Node 9, Type 0, BuildingBlock: GALJAG_clean_sbu_0, # of connection points: 4
#     Node 10, Type 0, BuildingBlock: GALJAG_clean_sbu_0, # of connection points: 4
#     Node 11, Type 0, BuildingBlock: GALJAG_clean_sbu_0, # of connection points: 4
#     Node 12, Type 0, BuildingBlock: GALJAG_clean_sbu_0, # of connection points: 4
#     Node 13, Type 0, BuildingBlock: GALJAG_clean_sbu_0, # of connection points: 4
#     Node 14, Type 0, BuildingBlock: GALJAG_clean_sbu_0, # of connection points: 4
#     Node 15, Type 0, BuildingBlock: GALJAG_clean_sbu_0, # of connection points: 4
#     Node 16, Type 0, BuildingBlock: GALJAG_clean_sbu_0, # of connection points: 4
#     Node 17, Type 0, BuildingBlock: GALJAG_clean_sbu_0, # of connection points: 4
#     Node 18, Type 0, BuildingBlock: GALJAG_clean_sbu_0, # of connection points: 4
#     Node 19, Type 0, BuildingBlock: GALJAG_clean_sbu_0, # of connection points: 4
#     Node 20, Type 0, BuildingBlock: GALJAG_clean_sbu_0, # of connection points: 4
#     Node 21, Type 0, BuildingBlock: GALJAG_clean_sbu_0, # of connection points: 4
#     Node 22, Type 0, BuildingBlock: GALJAG_clean_sbu_0, # of connection points: 4
#     Node 23, Type 0, BuildingBlock: GALJAG_clean_sbu_0, # of connection points: 4
#     Node 24, Type 1, BuildingBlock: PAMTOO_clean_sbu_0, # of connection points: 6
#     Node 25, Type 1, BuildingBlock: PAMTOO_clean_sbu_0, # of connection points: 6
#     Node 26, Type 1, BuildingBlock: PAMTOO_clean_sbu_0, # of connection points: 6
#     Node 27, Type 1, BuildingBlock: PAMTOO_clean_sbu_0, # of connection points: 6
#     Node 28, Type 1, BuildingBlock: PAMTOO_clean_sbu_0, # of connection points: 6
#     Node 29, Type 1, BuildingBlock: PAMTOO_clean_sbu_0, # of connection points: 6
#     Node 30, Type 1, BuildingBlock: PAMTOO_clean_sbu_0, # of connection points: 6
#     Node 31, Type 1, BuildingBlock: PAMTOO_clean_sbu_0, # of connection points: 6
#     Node 32, Type 1, BuildingBlock: PAMTOO_clean_sbu_0, # of connection points: 6
#     Node 33, Type 1, BuildingBlock: PAMTOO_clean_sbu_0, # of connection points: 6
#     Node 34, Type 1, BuildingBlock: PAMTOO_clean_sbu_0, # of connection points: 6
#     Node 35, Type 1, BuildingBlock: PAMTOO_clean_sbu_0, # of connection points: 6
#     Node 36, Type 1, BuildingBlock: PAMTOO_clean_sbu_0, # of connection points: 6
#     Node 37, Type 1, BuildingBlock: PAMTOO_clean_sbu_0, # of connection points: 6
#     Node 38, Type 1, BuildingBlock: PAMTOO_clean_sbu_0, # of connection points: 6
#     Node 39, Type 1, BuildingBlock: PAMTOO_clean_sbu_0, # of connection points: 6
#     Edge 40, Type (0, 1), BuildingBlock: XUDNAN_clean_linker_2, # of connection points: 2
#     Edge 41, Type (0, 1), BuildingBlock: XUDNAN_clean_linker_2, # of connection points: 2
#     Edge 42, Type (0, 1), BuildingBlock: XUDNAN_clean_linker_2, # of connection points: 2
#     Edge 43, Type (0, 1), BuildingBlock: XUDNAN_clean_linker_2, # of connection points: 2
#     Edge 44, Type (0, 1), BuildingBlock: XUDNAN_clean_linker_2, # of connection points: 2
#     Edge 45, Type (0, 1), BuildingBlock: XUDNAN_clean_linker_2, # of connection points: 2
#     Edge 46, Type (0, 1), BuildingBlock: XUDNAN_clean_linker_2, # of connection points: 2
#     Edge 47, Type (0, 1), BuildingBlock: XUDNAN_clean_linker_2, # of connection points: 2
#     Edge 48, Type (0, 1), BuildingBlock: XUDNAN_clean_linker_2, # of connection points: 2
#     Edge 49, Type (0, 1), BuildingBlock: XUDNAN_clean_linker_2, # of connection points: 2
#     Edge 50, Type (0, 1), BuildingBlock: XUDNAN_clean_linker_2, # of connection points: 2
#     Edge 51, Type (0, 1), BuildingBlock: XUDNAN_clean_linker_2, # of connection points: 2
#     Edge 52, Type (0, 1), BuildingBlock: XUDNAN_clean_linker_2, # of connection points: 2
#     Edge 53, Type (0, 1), BuildingBlock: XUDNAN_clean_linker_2, # of connection points: 2
#     Edge 54, Type (0, 1), BuildingBlock: XUDNAN_clean_linker_2, # of connection points: 2
#     Edge 55, Type (0, 1), BuildingBlock: XUDNAN_clean_linker_2, # of connection points: 2
#     Edge 56, Type (0, 1), BuildingBlock: XUDNAN_clean_linker_2, # of connection points: 2
#     Edge 57, Type (0, 1), BuildingBlock: XUDNAN_clean_linker_2, # of connection points: 2
#     Edge 58, Type (0, 1), BuildingBlock: XUDNAN_clean_linker_2, # of connection points: 2
#     Edge 59, Type (0, 1), BuildingBlock: XUDNAN_clean_linker_2, # of connection points: 2
#     Edge 60, Type (0, 1), BuildingBlock: XUDNAN_clean_linker_2, # of connection points: 2
#     Edge 61, Type (0, 1), BuildingBlock: XUDNAN_clean_linker_2, # of connection points: 2
#     Edge 62, Type (0, 1), BuildingBlock: XUDNAN_clean_linker_2, # of connection points: 2
#     Edge 63, Type (0, 1), BuildingBlock: XUDNAN_clean_linker_2, # of connection points: 2
#     Edge 64, Type (0, 1), BuildingBlock: XUDNAN_clean_linker_2, # of connection points: 2
#     Edge 65, Type (0, 1), BuildingBlock: XUDNAN_clean_linker_2, # of connection points: 2
#     Edge 66, Type (0, 1), BuildingBlock: XUDNAN_clean_linker_2, # of connection points: 2
#     Edge 67, Type (0, 1), BuildingBlock: XUDNAN_clean_linker_2, # of connection points: 2
#     Edge 68, Type (0, 1), BuildingBlock: XUDNAN_clean_linker_2, # of connection points: 2
#     Edge 69, Type (0, 1), BuildingBlock: XUDNAN_clean_linker_2, # of connection points: 2
#     Edge 70, Type (0, 1), BuildingBlock: XUDNAN_clean_linker_2, # of connection points: 2
#     Edge 71, Type (0, 1), BuildingBlock: XUDNAN_clean_linker_2, # of connection points: 2
#     Edge 72, Type (0, 1), BuildingBlock: XUDNAN_clean_linker_2, # of connection points: 2
#     Edge 73, Type (0, 1), BuildingBlock: XUDNAN_clean_linker_2, # of connection points: 2
#     Edge 74, Type (0, 1), BuildingBlock: XUDNAN_clean_linker_2, # of connection points: 2
#     Edge 75, Type (0, 1), BuildingBlock: XUDNAN_clean_linker_2, # of connection points: 2
#     Edge 76, Type (0, 1), BuildingBlock: XUDNAN_clean_linker_2, # of connection points: 2
#     Edge 77, Type (0, 1), BuildingBlock: XUDNAN_clean_linker_2, # of connection points: 2
#     Edge 78, Type (0, 1), BuildingBlock: XUDNAN_clean_linker_2, # of connection points: 2
#     Edge 79, Type (0, 1), BuildingBlock: XUDNAN_clean_linker_2, # of connection points: 2
#     Edge 80, Type (0, 1), BuildingBlock: XUDNAN_clean_linker_2, # of connection points: 2
#     Edge 81, Type (0, 1), BuildingBlock: XUDNAN_clean_linker_2, # of connection points: 2
#     Edge 82, Type (0, 1), BuildingBlock: XUDNAN_clean_linker_2, # of connection points: 2
#     Edge 83, Type (0, 1), BuildingBlock: XUDNAN_clean_linker_2, # of connection points: 2
#     Edge 84, Type (0, 1), BuildingBlock: XUDNAN_clean_linker_2, # of connection points: 2
#     Edge 85, Type (0, 1), BuildingBlock: XUDNAN_clean_linker_2, # of connection points: 2
#     Edge 86, Type (0, 1), BuildingBlock: XUDNAN_clean_linker_2, # of connection points: 2
#     Edge 87, Type (0, 1), BuildingBlock: XUDNAN_clean_linker_2, # of connection points: 2
#     Edge 88, Type (0, 1), BuildingBlock: XUDNAN_clean_linker_2, # of connection points: 2
#     Edge 89, Type (0, 1), BuildingBlock: XUDNAN_clean_linker_2, # of connection points: 2
#     Edge 90, Type (0, 1), BuildingBlock: XUDNAN_clean_linker_2, # of connection points: 2
#     Edge 91, Type (0, 1), BuildingBlock: XUDNAN_clean_linker_2, # of connection points: 2
#     Edge 92, Type (0, 1), BuildingBlock: XUDNAN_clean_linker_2, # of connection points: 2
#     Edge 93, Type (0, 1), BuildingBlock: XUDNAN_clean_linker_2, # of connection points: 2
#     Edge 94, Type (0, 1), BuildingBlock: XUDNAN_clean_linker_2, # of connection points: 2
#     Edge 95, Type (0, 1), BuildingBlock: XUDNAN_clean_linker_2, # of connection points: 2
#     Edge 96, Type (0, 1), BuildingBlock: XUDNAN_clean_linker_2, # of connection points: 2
#     Edge 97, Type (0, 1), BuildingBlock: XUDNAN_clean_linker_2, # of connection points: 2
#     Edge 98, Type (0, 1), BuildingBlock: XUDNAN_clean_linker_2, # of connection points: 2
#     Edge 99, Type (0, 1), BuildingBlock: XUDNAN_clean_linker_2, # of connection points: 2
#     Edge 100, Type (0, 1), BuildingBlock: XUDNAN_clean_linker_2, # of connection points: 2
#     Edge 101, Type (0, 1), BuildingBlock: XUDNAN_clean_linker_2, # of connection points: 2
#     Edge 102, Type (0, 1), BuildingBlock: XUDNAN_clean_linker_2, # of connection points: 2
#     Edge 103, Type (0, 1), BuildingBlock: XUDNAN_clean_linker_2, # of connection points: 2
#     Edge 104, Type (0, 1), BuildingBlock: XUDNAN_clean_linker_2, # of connection points: 2
#     Edge 105, Type (0, 1), BuildingBlock: XUDNAN_clean_linker_2, # of connection points: 2
#     Edge 106, Type (0, 1), BuildingBlock: XUDNAN_clean_linker_2, # of connection points: 2
#     Edge 107, Type (0, 1), BuildingBlock: XUDNAN_clean_linker_2, # of connection points: 2
#     Edge 108, Type (0, 1), BuildingBlock: XUDNAN_clean_linker_2, # of connection points: 2
#     Edge 109, Type (0, 1), BuildingBlock: XUDNAN_clean_linker_2, # of connection points: 2
#     Edge 110, Type (0, 1), BuildingBlock: XUDNAN_clean_linker_2, # of connection points: 2
#     Edge 111, Type (0, 1), BuildingBlock: XUDNAN_clean_linker_2, # of connection points: 2
#     Edge 112, Type (0, 1), BuildingBlock: XUDNAN_clean_linker_2, # of connection points: 2
#     Edge 113, Type (0, 1), BuildingBlock: XUDNAN_clean_linker_2, # of connection points: 2
#     Edge 114, Type (0, 1), BuildingBlock: XUDNAN_clean_linker_2, # of connection points: 2
#     Edge 115, Type (0, 1), BuildingBlock: XUDNAN_clean_linker_2, # of connection points: 2
#     Edge 116, Type (0, 1), BuildingBlock: XUDNAN_clean_linker_2, # of connection points: 2
#     Edge 117, Type (0, 1), BuildingBlock: XUDNAN_clean_linker_2, # of connection points: 2
#     Edge 118, Type (0, 1), BuildingBlock: XUDNAN_clean_linker_2, # of connection points: 2
#     Edge 119, Type (0, 1), BuildingBlock: XUDNAN_clean_linker_2, # of connection points: 2
#     Edge 120, Type (0, 1), BuildingBlock: XUDNAN_clean_linker_2, # of connection points: 2
#     Edge 121, Type (0, 1), BuildingBlock: XUDNAN_clean_linker_2, # of connection points: 2
#     Edge 122, Type (0, 1), BuildingBlock: XUDNAN_clean_linker_2, # of connection points: 2
#     Edge 123, Type (0, 1), BuildingBlock: XUDNAN_clean_linker_2, # of connection points: 2
#     Edge 124, Type (0, 1), BuildingBlock: XUDNAN_clean_linker_2, # of connection points: 2
#     Edge 125, Type (0, 1), BuildingBlock: XUDNAN_clean_linker_2, # of connection points: 2
#     Edge 126, Type (0, 1), BuildingBlock: XUDNAN_clean_linker_2, # of connection points: 2
#     Edge 127, Type (0, 1), BuildingBlock: XUDNAN_clean_linker_2, # of connection points: 2
#     Edge 128, Type (0, 1), BuildingBlock: XUDNAN_clean_linker_2, # of connection points: 2
#     Edge 129, Type (0, 1), BuildingBlock: XUDNAN_clean_linker_2, # of connection points: 2
#     Edge 130, Type (0, 1), BuildingBlock: XUDNAN_clean_linker_2, # of connection points: 2
#     Edge 131, Type (0, 1), BuildingBlock: XUDNAN_clean_linker_2, # of connection points: 2
#     Edge 132, Type (0, 1), BuildingBlock: XUDNAN_clean_linker_2, # of connection points: 2
#     Edge 133, Type (0, 1), BuildingBlock: XUDNAN_clean_linker_2, # of connection points: 2
#     Edge 134, Type (0, 1), BuildingBlock: XUDNAN_clean_linker_2, # of connection points: 2
#     Edge 135, Type (0, 1), BuildingBlock: XUDNAN_clean_linker_2, # of connection points: 2
# Relax obj value: 0.159
# Max RMSD: 0.269
# Mean RMSD: 0.174
data_MOF--net-gar--node1-GALJAG_clean_sbu_0--node2-PAMTOO_clean_sbu_0--edge1-XUDNAN_clean_linker_2
_symmetry_space_group_name_H-M    P1
_symmetry_Int_Tables_number       1
_symmetry_cell_setting            triclinic
loop_
_symmetry_equiv_pos_as_xyz
'x, y, z'
_cell_length_a     59.301912
_cell_length_b     60.136817
_cell_length_c     57.818497
_cell_angle_alpha  96.197344
_cell_angle_beta   95.883867
_cell_angle_gamma 102.57769
loop_
_atom_site_label
_atom_site_type_symbol
_atom_site_fract_x
_atom_site_fract_y
_atom_site_fract_z
_atom_type_partial_charge
In0 In 0.05784 0.32851 0.36837 0.0
O1 O 0.08936 0.34423 0.34839 0.0
O2 O 0.08638 0.31005 0.35393 0.0
C3 C 1.01206 0.32031 0.34488 0.0
C4 C 0.05759 0.29676 0.39908 0.0
C5 C 0.06313 0.37174 0.39308 0.0
O6 O 0.02861 0.31406 0.33572 0.0
O7 O 0.01856 0.33069 0.36535 0.0
O8 O 0.06218 0.35385 0.40292 0.0
O9 O 0.06223 0.36798 0.371 0.0
C10 C 0.09836 0.32701 0.34624 0.0
O11 O 0.07062 0.31677 0.4029 0.0
O12 O 0.04438 0.29266 0.37979 0.0
In13 In 0.02876 0.7569 0.69965 0.0
O14 O 0.02629 0.77618 0.66717 0.0
O15 O 0.03137 0.79561 0.70095 0.0
C16 C 0.02698 0.7148 0.67443 0.0
C17 C 0.07579 0.76559 0.71864 0.0
C18 C 0.98544 0.75445 0.71674 0.0
O19 O 0.02759 0.73289 0.66498 0.0
O20 O 0.02651 0.71776 0.69638 0.0
O21 O 1.00468 0.76367 0.72944 0.0
O22 O 0.98835 0.7459 0.69664 0.0
C23 C 0.02908 0.79578 0.67899 0.0
O24 O 0.05976 0.7555 0.72946 0.0
O25 O 0.06783 0.77151 0.69982 0.0
In26 In 0.55956 0.82406 0.87119 0.0
O27 O 0.59683 0.83938 0.86158 0.0
O28 O 0.58292 0.80494 0.84797 0.0
C29 C 0.51459 0.81727 0.84656 0.0
C30 C 0.56177 0.79305 0.90206 0.0
C31 C 0.5617 0.86651 0.89653 0.0
O32 O 0.51918 0.80806 0.86443 0.0
O33 O 0.53273 0.82896 0.84007 0.0
O34 O 0.55538 0.84776 0.90461 0.0
O35 O 0.56709 0.86388 0.87599 0.0
C36 C 0.60042 0.8217 0.85013 0.0
O37 O 0.57154 0.81418 0.90698 0.0
O38 O 0.55115 0.78743 0.88146 0.0
In39 In 0.52502 0.25613 0.19579 0.0
O40 O 0.5111 0.2317 0.16148 0.0
O41 O 0.52884 0.21769 0.18762 0.0
C42 C 0.52753 0.28893 0.16582 0.0
C43 C 0.48657 0.2588 0.2212 0.0
C44 C 0.57225 0.26616 0.21523 0.0
O45 O 0.526 0.26788 0.15945 0.0
O46 O 0.52781 0.29389 0.18768 0.0
O47 O 0.56238 0.27938 0.20453 0.0
O48 O 0.55808 0.24771 0.21759 0.0
C49 C 0.51868 0.21464 0.16677 0.0
O50 O 0.48464 0.25134 0.19973 0.0
O51 O 0.50767 0.26385 0.23035 0.0
In52 In 0.07611 0.80274 0.11324 0.0
O53 O 0.0601 0.76243 0.10588 0.0
O54 O 0.08154 0.77619 0.08193 0.0
C55 C 0.07397 0.84446 0.09389 0.0
C56 C 0.04407 0.80198 0.14437 0.0
C57 C 0.1194 0.80466 0.1384 0.0
O58 O 0.0915 0.84061 0.10565 0.0
O59 O 0.05728 0.82682 0.09041 0.0
O60 O 0.11598 0.80444 0.11641 0.0
O61 O 0.10112 0.80426 0.14796 0.0
C62 C 0.06976 0.75805 0.08806 0.0
O63 O 0.06554 0.81117 0.14973 0.0
O64 O 0.03849 0.79321 0.12311 0.0
In65 In 0.50807 0.78136 0.45532 0.0
O66 O 0.51896 0.77248 0.41885 0.0
O67 O 0.54585 0.78944 0.44599 0.0
C68 C 0.46448 0.77932 0.43075 0.0
C69 C 0.51198 0.74188 0.47813 0.0
C70 C 0.51933 0.82815 0.47614 0.0
O71 O 0.48325 0.78315 0.42178 0.0
O72 O 0.46746 0.77612 0.45205 0.0
O73 O 0.50018 0.81449 0.47775 0.0
O74 O 0.53265 0.81795 0.46574 0.0
C75 C 0.54053 0.78091 0.42469 0.0
O76 O 0.51725 0.76243 0.48833 0.0
O77 O 0.50384 0.74102 0.45696 0.0
In78 In 0.58119 0.31185 0.61612 0.0
O79 O 0.56368 0.27218 0.60659 0.0
O80 O 0.59403 0.28441 0.59158 0.0
C81 C 0.57652 0.34978 0.59134 0.0
C82 C 0.54526 0.31052 0.64242 0.0
C83 C 0.6201 0.31541 0.64887 0.0
O84 O 0.59112 0.3512 0.60921 0.0
O85 O 0.56561 0.32913 0.58473 0.0
O86 O 0.60021 0.31673 0.65388 0.0
O87 O 0.62101 0.31284 0.62701 0.0
C88 C 0.57857 0.26692 0.5942 0.0
O89 O 0.56379 0.32609 0.64614 0.0
O90 O 0.54459 0.29537 0.62528 0.0
In91 In 1.0092 0.27385 0.95202 0.0
O92 O 0.02275 0.25566 0.98371 0.0
O93 O 0.99945 0.234 0.95699 0.0
C94 C 0.01331 0.31968 0.97275 0.0
C95 C 0.04428 0.2733 0.92458 0.0
C96 C 0.96858 0.26989 0.92173 0.0
O97 O 0.99984 0.30228 0.97853 0.0
O98 O 0.02552 0.31402 0.95746 0.0
O99 O 0.98826 0.26957 0.91551 0.0
O100 O 0.96875 0.27185 0.94376 0.0
C101 C 1.01246 0.23505 0.97591 0.0
O102 O 0.0234 0.26247 0.91856 0.0
O103 O 0.04793 0.28474 0.94484 0.0
In104 In 0.4107 0.03768 0.32164 0.0
O105 O 0.42904 0.04377 0.28952 0.0
O106 O 0.39997 0.01519 0.28647 0.0
C107 C 0.44703 0.06039 0.35348 0.0
C108 C 0.37755 0.06101 0.31378 0.0
C109 C 0.39906 0.99675 0.33695 0.0
O110 O 0.44959 0.05038 0.33399 0.0
O111 O 0.42615 0.05921 0.35678 0.0
O112 O 0.39063 0.01342 0.34395 0.0
O113 O 0.41424 0.0012 0.32331 0.0
C114 C 0.41585 0.02657 0.27666 0.0
O115 O 0.37372 0.04227 0.32212 0.0
O116 O 0.3983 0.0684 0.31017 0.0
In117 In 0.28061 0.19813 0.52375 0.0
O118 O 0.27819 0.22638 0.55463 0.0
O119 O 0.28344 0.19431 0.56268 0.0
C120 C 0.28532 0.22494 0.48784 0.0
C121 C 0.31641 0.17694 0.51839 0.0
C122 C 0.23955 0.16599 0.51823 0.0
O123 O 0.2977 0.23057 0.50765 0.0
O124 O 0.26974 0.20673 0.48668 0.0
O125 O 0.25924 0.16136 0.5179 0.0
O126 O 0.24015 0.18729 0.52083 0.0
C127 C 0.28049 0.21371 0.57045 0.0
O128 O 0.2974 0.17194 0.50499 0.0
O129 O 0.31793 0.19326 0.5346 0.0
In130 In 0.13268 0.05576 0.79677 0.0
O131 O 0.10637 0.06863 0.77182 0.0
O132 O 0.12246 0.0437 0.75666 0.0
C133 C 0.11074 0.05185 0.83676 0.0
C134 C 0.15098 0.01786 0.79301 0.0
C135 C 0.16682 0.09534 0.8038 0.0
O136 O 0.10123 0.04257 0.81645 0.0
O137 O 0.131 0.06396 0.83697 0.0
O138 O 0.17033 0.07612 0.80795 0.0
O139 O 0.14589 0.09485 0.79645 0.0
C140 C 0.10867 0.05661 0.75327 0.0
O141 O 0.16188 0.03734 0.78921 0.0
O142 O 0.13076 0.0174 0.79831 0.0
In143 In 0.30543 0.92579 0.01308 0.0
O144 O 0.32351 0.90357 0.03445 0.0
O145 O 0.32567 0.93795 0.0495 0.0
C146 C 0.28635 0.89083 0.97874 0.0
C147 C 0.26838 0.94009 0.02661 0.0
C148 C 0.33925 0.95581 0.99761 0.0
O149 O 0.29141 0.88766 0.99965 0.0
O150 O 0.2906 0.91159 0.9753 0.0
O151 O 0.33838 0.93453 0.99561 0.0
O152 O 0.32286 0.96178 0.00701 0.0
C153 C 0.33105 0.91907 0.05173 0.0
O154 O 0.27839 0.94689 0.00962 0.0
O155 O 0.27653 0.92528 0.03641 0.0
In156 In 0.30648 0.37687 0.04565 0.0
O157 O 0.29367 0.34588 0.06548 0.0
O158 O 0.31279 0.37642 0.08612 0.0
C159 C 0.30959 0.35322 0.0029 0.0
C160 C 0.26755 0.39393 0.04232 0.0
C161 C 0.3451 0.41161 0.04749 0.0
O162 O 0.32264 0.35279 0.02147 0.0
O163 O 0.29465 0.36487 0.00599 0.0
O164 O 0.34649 0.39173 0.05172 0.0
O165 O 0.32454 0.4138 0.04274 0.0
C166 C 0.30165 0.356 0.08589 0.0
O167 O 0.28744 0.40606 0.05079 0.0
O168 O 0.26717 0.37308 0.03589 0.0
In169 In 0.78928 0.15828 0.0586 0.0
O170 O 0.81631 0.13699 0.05773 0.0
O171 O 0.79611 0.13802 0.02541 0.0
C172 C 0.75102 0.13069 0.06973 0.0
C173 C 0.81364 0.18544 0.09732 0.0
C174 C 0.77566 0.18673 0.03022 0.0
O175 O 0.76775 0.12306 0.06288 0.0
O176 O 0.75377 0.15224 0.07124 0.0
O177 O 0.79677 0.18642 0.03542 0.0
O178 O 0.76132 0.17221 0.03883 0.0
C179 C 0.81167 0.13014 0.03601 0.0
O180 O 0.81625 0.19005 0.07693 0.0
O181 O 0.79937 0.16676 0.09814 0.0
In182 In 0.18142 0.5435 0.2482 0.0
O183 O 0.21297 0.53118 0.2622 0.0
O184 O 0.19434 0.51448 0.22926 0.0
C185 C 0.207 0.5858 0.2458 0.0
C186 C 0.14524 0.54134 0.21545 0.0
C187 C 0.16126 0.53313 0.28648 0.0
O188 O 0.2086 0.56844 0.23233 0.0
O189 O 0.1925 0.58176 0.26014 0.0
O190 O 0.15411 0.52155 0.26656 0.0
O191 O 0.17915 0.54908 0.28717 0.0
C192 C 0.21143 0.51614 0.24477 0.0
O193 O 0.15036 0.55625 0.23337 0.0
O194 O 0.15851 0.52758 0.21393 0.0
In195 In 0.81097 0.87926 0.54796 0.0
O196 O 0.79281 0.84937 0.5666 0.0
O197 O 0.82008 0.87415 0.58712 0.0
C198 C 0.81419 0.8569 0.50463 0.0
C199 C 0.77253 0.89703 0.54368 0.0
C200 C 0.84999 0.91408 0.55311 0.0
O201 O 0.82149 0.85072 0.52369 0.0
O202 O 0.80537 0.87411 0.50746 0.0
O203 O 0.82977 0.91717 0.55422 0.0
O204 O 0.85087 0.89317 0.54975 0.0
C205 C 0.80439 0.85615 0.5866 0.0
O206 O 0.79149 0.90765 0.55575 0.0
O207 O 0.77274 0.87721 0.53405 0.0
In208 In 0.94819 0.02833 0.27595 0.0
O209 O 0.97656 0.04084 0.25124 0.0
O210 O 0.94186 0.02677 0.23598 0.0
C211 C 0.97648 0.03235 0.31817 0.0
C212 C 0.91838 0.05684 0.27914 0.0
C213 C 0.92454 0.9835 0.2727 0.0
O214 O 0.97885 0.02042 0.29964 0.0
O215 O 0.9609 0.04344 0.31517 0.0
O216 O 0.91733 -2e-05 0.28225 0.0
O217 O 0.94378 0.98951 0.26496 0.0
C218 C 0.96237 0.03533 0.23253 0.0
O219 O 0.91232 0.03522 0.27747 0.0
O220 O 0.94009 0.06468 0.27951 0.0
In221 In 0.30046 0.67361 0.55016 0.0
O222 O 0.31261 0.64686 0.52645 0.0
O223 O 0.33759 0.66904 0.55263 0.0
C224 C 0.26108 0.64167 0.55201 0.0
C225 C 0.31086 0.70213 0.59095 0.0
C226 C 0.29735 0.70418 0.52027 0.0
O227 O 0.27759 0.64724 0.56865 0.0
O228 O 0.26453 0.65206 0.53443 0.0
O229 O 0.2801 0.69469 0.5297 0.0
O230 O 0.31585 0.69761 0.52533 0.0
C231 C 0.33358 0.6531 0.53568 0.0
O232 O 0.31267 0.68152 0.58979 0.0
O233 O 0.30338 0.70791 0.57193 0.0
In234 In 0.45053 0.52294 0.77702 0.0
O235 O 0.41716 0.53231 0.7618 0.0
O236 O 0.43994 0.55736 0.78707 0.0
C237 C 0.42462 0.47915 0.77418 0.0
C238 C 0.47069 0.52429 0.73562 0.0
C239 C 0.47706 0.52903 0.82069 0.0
O240 O 0.41678 0.49647 0.78053 0.0
O241 O 0.44542 0.48397 0.76967 0.0
O242 O 0.48504 0.53697 0.80304 0.0
O243 O 0.45615 0.51809 0.8163 0.0
C244 C 0.42101 0.55201 0.77343 0.0
O245 O 0.47061 0.54235 0.74895 0.0
O246 O 0.46206 0.50623 0.74383 0.0
In247 In 0.69584 0.03299 0.76128 0.0
O248 O 0.73261 0.02764 0.76135 0.0
O249 O 0.70474 0.00076 0.74371 0.0
C250 C 0.70632 0.07931 0.76926 0.0
C251 C 0.66161 0.02644 0.72529 0.0
C252 C 0.6867 0.02048 0.80328 0.0
O253 O 0.71777 0.06833 0.75702 0.0
O254 O 0.68958 0.06698 0.77704 0.0
O255 O 0.67196 0.01446 0.78509 0.0
O256 O 0.7064 0.0317 0.79993 0.0
C257 C 0.72642 0.00794 0.74957 0.0
O258 O 0.68279 0.03388 0.7231 0.0
O259 O 0.65775 0.02197 0.74554 0.0
In260 In 0.77621 0.70232 0.0276 0.0
O261 O 0.79461 0.67345 0.03406 0.0
O262 O 0.81568 0.70589 0.03002 0.0
C263 C 0.73384 0.67403 0.0293 0.0
C264 C 0.7793 0.72956 0.06969 0.0
C265 C 0.7775 0.71458 0.98295 0.0
O266 O 0.75088 0.6664 0.02334 0.0
O267 O 0.73794 0.69564 0.03353 0.0
O268 O 0.78354 0.72939 0.00104 0.0
O269 O 0.77014 0.69448 0.98753 0.0
C270 C 0.81486 0.68531 0.03337 0.0
O271 O 0.76889 0.73336 0.05079 0.0
O272 O 0.78901 0.71293 0.06709 0.0
In273 In 0.89719 0.54241 0.80266 0.0
O274 O 0.86038 0.54139 0.81109 0.0
O275 O 0.88209 0.57414 0.80985 0.0
C276 C 0.88262 0.49694 0.80224 0.0
C277 C 0.91168 0.54735 0.76036 0.0
C278 C 0.93409 0.55307 0.83649 0.0
O279 O 0.88324 0.50598 0.78353 0.0
O280 O 0.88854 0.51087 0.82095 0.0
O281 O 0.92528 0.53308 0.82618 0.0
O282 O 0.92442 0.56841 0.82965 0.0
C283 C 0.86232 0.56275 0.81283 0.0
O284 O 0.92552 0.55069 0.77907 0.0
O285 O 0.89045 0.54275 0.76312 0.0
In286 In 0.7991 0.42571 0.51254 0.0
O287 O 0.79616 0.3883 0.51713 0.0
O288 O 0.81154 0.41365 0.54641 0.0
C289 C 0.7866 0.40362 0.46866 0.0
C290 C 0.76748 0.44557 0.5316 0.0
C291 C 0.83969 0.45675 0.51412 0.0
O292 O 0.80686 0.40699 0.47943 0.0
O293 O 0.77258 0.4123 0.47964 0.0
O294 O 0.83705 0.44077 0.5267 0.0
O295 O 0.82174 0.45725 0.50063 0.0
C296 C 0.80562 0.39259 0.53816 0.0
O297 O 0.78191 0.45574 0.51947 0.0
O298 O 0.76861 0.42521 0.53367 0.0
In299 In 0.63414 0.55604 0.29609 0.0
O300 O 0.66501 0.53899 0.29358 0.0
O301 O 0.63134 0.51701 0.29114 0.0
C302 C 0.66058 0.59982 0.29915 0.0
C303 C 0.6066 0.55356 0.25384 0.0
C304 C 0.62212 0.55292 0.34087 0.0
O305 O 0.66781 0.5824 0.29201 0.0
O306 O 0.64018 0.59516 0.30461 0.0
O307 O 0.6069 0.5491 0.32297 0.0
O308 O 0.64271 0.55809 0.33603 0.0
C309 C 0.65296 0.5186 0.29106 0.0
O310 O 0.60006 0.55878 0.27345 0.0
O311 O 0.62643 0.54909 0.25562 0.0
Dy312 Dy 0.06593 0.05293 0.04962 0.0
Dy313 Dy 0.01672 0.02674 0.02259 0.0
C314 C 0.05953 0.035 0.99432 0.0
O315 O 0.04767 0.08192 0.04626 0.0
O316 O 0.02069 0.06441 0.01502 0.0
O317 O 0.09856 0.07794 0.05139 0.0
O318 O 0.09164 0.05846 0.08018 0.0
O319 O 1.00792 0.04175 0.05677 0.0
O320 O 0.04332 0.04662 0.07858 0.0
O321 O 0.02945 0.99822 0.03998 0.0
O322 O 0.06818 0.01544 0.04528 0.0
O323 O 0.98334 0.00299 0.02033 0.0
O324 O 0.99321 0.01942 0.99022 0.0
C325 C 0.03256 0.08353 0.02847 0.0
O326 O 0.06965 0.05217 0.01074 0.0
O327 O 0.04232 0.01917 0.99902 0.0
C328 C 0.12877 0.06328 0.06909 0.0
C329 C 0.16375 0.0385 0.0679 0.0
C330 C 0.14993 0.03993 0.04713 0.0
C331 C 0.13255 0.05212 0.04773 0.0
C332 C 0.14324 0.06284 0.08972 0.0
C333 C 0.16063 0.05048 0.08914 0.0
C334 C 0.1074 0.07155 0.07046 0.0
C335 C 0.02072 0.04482 0.0773 0.0
C336 C 0.05134 0.99698 0.04542 0.0
C337 C 0.95483 0.01536 0.99773 0.0
C338 C 0.914 0.03168 0.99539 0.0
C339 C 0.93374 0.04337 0.01106 0.0
C340 C 0.95397 0.0353 0.01219 0.0
C341 C 0.93539 0.00377 0.98169 0.0
C342 C 0.915 0.01199 0.98044 0.0
C343 C 0.97635 0.00729 0.99951 0.0
H344 H 0.15165 0.03057 0.03057 0.0
H345 H 0.12127 0.05174 0.03164 0.0
H346 H 0.14031 0.07107 0.1064 0.0
H347 H 0.17119 0.04975 0.10536 0.0
H348 H 0.93356 0.05888 0.02241 0.0
H349 H 0.96899 0.04461 0.02442 0.0
H350 H 0.93598 0.98844 0.97029 0.0
H351 H 0.89997 0.00281 0.96818 0.0
Dy352 Dy 0.31357 0.7979 0.2666 0.0
Dy353 Dy 0.2732 0.79287 0.30174 0.0
C354 C 0.30855 0.83986 0.30097 0.0
O355 O 0.33317 0.79491 0.30127 0.0
O356 O 0.30336 0.78368 0.32315 0.0
O357 O 0.34877 0.81321 0.26167 0.0
O358 O 0.32577 0.79022 0.2333 0.0
O359 O 0.26587 0.76045 0.27707 0.0
O360 O 0.30289 0.76054 0.26915 0.0
O361 O 0.25611 0.80419 0.26986 0.0
O362 O 0.28023 0.79657 0.24287 0.0
O363 O 0.25024 0.77273 0.3222 0.0
O364 O 0.24884 0.80817 0.31939 0.0
C365 C 0.32574 0.78778 0.32051 0.0
O366 O 0.30937 0.83292 0.27889 0.0
O367 O 0.299 0.82559 0.31458 0.0
C368 C 0.35269 0.82155 0.22353 0.0
C369 C 0.36451 0.85293 0.19162 0.0
C370 C 0.35099 0.85771 0.20931 0.0
C371 C 0.34506 0.8421 0.22509 0.0
C372 C 0.36669 0.81697 0.20638 0.0
C373 C 0.37256 0.83254 0.19048 0.0
C374 C 0.34582 0.80478 0.23956 0.0
C375 C 0.2814 0.74963 0.27005 0.0
C376 C 0.26042 0.80132 0.24799 0.0
C377 C 0.24461 0.79476 0.35592 0.0
C378 C 0.25745 0.79569 0.40416 0.0
C379 C 0.23866 0.77856 0.39193 0.0
C380 C 0.23226 0.77817 0.368 0.0
C381 C 0.26182 0.81314 0.36846 0.0
C382 C 0.26802 0.81372 0.39247 0.0
C383 C 0.24242 0.79034 0.33028 0.0
H384 H 0.3442 0.87307 0.21037 0.0
H385 H 0.33418 0.84587 0.23825 0.0
H386 H 0.37279 0.80121 0.20506 0.0
H387 H 0.38308 0.82849 0.17709 0.0
H388 H 0.23024 0.76423 0.40022 0.0
H389 H 0.219 0.76383 0.35857 0.0
H390 H 0.27163 0.82619 0.35948 0.0
H391 H 0.28224 0.82737 0.40151 0.0
Dy392 Dy 0.52626 0.04534 0.54446 0.0
Dy393 Dy 0.58019 0.05011 0.53206 0.0
C394 C 0.54208 0.06252 0.49627 0.0
O395 O 0.53012 0.0079 0.53718 0.0
O396 O 0.56012 0.01488 0.51501 0.0
O397 O 0.48916 0.0318 0.5342 0.0
O398 O 0.50174 0.0537 0.56725 0.0
O399 O 0.57693 0.03199 0.56343 0.0
O400 O 0.54743 0.04514 0.57853 0.0
O401 O 0.58011 0.08596 0.54904 0.0
O402 O 0.5408 0.0842 0.54788 0.0
O403 O 0.617 0.05793 0.54481 0.0
O404 O 0.60489 0.04503 0.50817 0.0
C405 C 0.54369 0.00015 0.52288 0.0
O406 O 0.52582 0.05114 0.50712 0.0
O407 O 0.5643 0.06655 0.50406 0.0
C408 C 0.46655 0.05793 0.54628 0.0
C409 C 0.43359 0.0839 0.53409 0.0
C410 C 0.45603 0.09492 0.54535 0.0
C411 C 0.4724 0.08209 0.55125 0.0
C412 C 0.44408 0.04693 0.53533 0.0
C413 C 0.42782 0.05974 0.52925 0.0
C414 C 0.48364 0.04395 0.55192 0.0
C415 C 0.56573 0.03636 0.58107 0.0
C416 C 0.56267 0.09625 0.55124 0.0
C417 C 0.63638 0.03152 0.52605 0.0
C418 C 0.66162 0.99659 0.52785 0.0
C419 C 0.66051 0.01101 0.54835 0.0
C420 C 0.64801 0.02825 0.54747 0.0
C421 C 0.63795 0.01741 0.50552 0.0
C422 C 0.65031 0.00012 0.50643 0.0
C423 C 0.62235 0.04919 0.52498 0.0
H424 H 0.46111 0.1135 0.54911 0.0
H425 H 0.48966 0.09112 0.55952 0.0
H426 H 0.43912 0.02836 0.53134 0.0
H427 H 0.41061 0.05068 0.52084 0.0
H428 H 0.6689 0.00867 0.56516 0.0
H429 H 0.64728 0.03883 0.56364 0.0
H430 H 0.62945 0.0196 0.4887 0.0
H431 H 0.65115 0.98959 0.49025 0.0
Dy432 Dy 0.32186 0.2767 0.78613 0.0
Dy433 Dy 0.27287 0.29526 0.7861 0.0
C434 C 0.31989 0.32673 0.77417 0.0
O435 O 0.32341 0.29488 0.82265 0.0
O436 O 0.28454 0.29347 0.82385 0.0
O437 O 0.35915 0.28398 0.79575 0.0
O438 O 0.3416 0.2523 0.77389 0.0
O439 O 0.26323 0.25731 0.78802 0.0
O440 O 0.29828 0.24971 0.80182 0.0
O441 O 0.27729 0.28749 0.74762 0.0
O442 O 0.29908 0.26075 0.75264 0.0
O443 O 0.23639 0.29166 0.77365 0.0
O444 O 0.25387 0.31919 0.80099 0.0
C445 C 0.30595 0.29703 0.83445 0.0
O446 O 0.32558 0.30744 0.76732 0.0
O447 O 0.30172 0.32667 0.78547 0.0
C448 C 0.37906 0.27069 0.76581 0.0
C449 C 0.41444 0.28263 0.7369 0.0
C450 C 0.39553 0.2933 0.73651 0.0
C451 C 0.37798 0.28727 0.75067 0.0
C452 C 0.3975 0.25947 0.76576 0.0
C453 C 0.41497 0.26527 0.75131 0.0
C454 C 0.36165 0.26602 0.78235 0.0
C455 C 0.27538 0.24377 0.79726 0.0
C456 C 0.28591 0.2703 0.73903 0.0
C457 C 0.21442 0.30167 0.80393 0.0
C458 C 0.17635 0.29054 0.83018 0.0
C459 C 0.1869 0.27338 0.82065 0.0
C460 C 0.20572 0.27887 0.80779 0.0
C461 C 0.20433 0.31893 0.81388 0.0
C462 C 0.18559 0.31346 0.82692 0.0
C463 C 0.23388 0.30768 0.78966 0.0
H464 H 0.39447 0.30655 0.72542 0.0
H465 H 0.36378 0.2959 0.75019 0.0
H466 H 0.39867 0.24659 0.77728 0.0
H467 H 0.42936 0.25683 0.75209 0.0
H468 H 0.18056 0.2556 0.82308 0.0
H469 H 0.21332 0.2652 0.8007 0.0
H470 H 0.21079 0.33666 0.81132 0.0
H471 H 0.17786 0.3271 0.83382 0.0
Dy472 Dy 0.05002 0.01752 0.53529 0.0
Dy473 Dy 0.03488 0.06876 0.53515 0.0
C474 C 0.99817 0.02316 0.54324 0.0
O475 O 0.04688 0.02348 0.49721 0.0
O476 O 0.02384 0.04975 0.49875 0.0
O477 O 0.04186 0.98071 0.52425 0.0
O478 O 0.07295 0.99674 0.54812 0.0
O479 O 0.07033 0.07451 0.52374 0.0
O480 O 0.08341 0.04295 0.53388 0.0
O481 O 0.04895 0.06829 0.57284 0.0
O482 O 0.05016 0.0302 0.5733 0.0
O483 O 0.04223 0.10539 0.54616 0.0
O484 O 1.01164 0.08914 0.52157 0.0
C485 C 0.03322 0.03509 0.48672 0.0
O486 O 1.01146 0.01057 0.53426 0.0
O487 O 1.00504 0.04571 0.54823 0.0
C488 C 0.05354 0.9593 0.55369 0.0
C489 C 0.04495 0.9257 0.5848 0.0
C490 C 0.03422 0.94451 0.58601 0.0
C491 C 0.03849 0.9611 0.57068 0.0
C492 C 0.06392 0.94041 0.55207 0.0
C493 C 0.05965 0.92378 0.56738 0.0
C494 C 0.05916 0.97737 0.53823 0.0
C495 C 0.08704 0.06358 0.52727 0.0
C496 C 0.05208 0.05104 0.58419 0.0
C497 C 0.03086 0.12742 0.51695 0.0
C498 C 0.04148 0.16577 0.49177 0.0
C499 C 0.05914 0.15553 0.50081 0.0
C500 C 0.05391 0.13659 0.51316 0.0
C501 C 0.01311 0.13715 0.50735 0.0
C502 C 0.01832 0.15602 0.49483 0.0
C503 C 0.02521 0.10857 0.53168 0.0
H504 H 0.02251 0.94647 0.59888 0.0
H505 H 0.03022 0.97549 0.57225 0.0
H506 H 0.07565 0.93869 0.53916 0.0
H507 H 0.06843 0.90977 0.566 0.0
H508 H 0.07713 0.16228 0.49851 0.0
H509 H 0.06802 0.1294 0.52008 0.0
H510 H 0.99519 0.13046 0.50998 0.0
H511 H 1.00428 0.16349 0.48828 0.0
Dy512 Dy 0.29699 0.81797 0.7829 0.0
Dy513 Dy 0.29126 0.76345 0.79212 0.0
C514 C 0.28086 0.80047 0.83003 0.0
O515 O 0.33287 0.81679 0.7994 0.0
O516 O 0.33059 0.77772 0.79603 0.0
O517 O 0.30441 0.85385 0.79782 0.0
O518 O 0.2928 0.84381 0.76065 0.0
O519 O 0.29747 0.7647 0.75503 0.0
O520 O 0.31367 0.80305 0.75415 0.0
O521 O 0.25382 0.76829 0.7844 0.0
O522 O 0.26274 0.79829 0.76318 0.0
O523 O 0.27707 0.72709 0.78041 0.0
O524 O 0.29883 0.73821 0.8138 0.0
C525 C 0.34291 0.79925 0.80045 0.0
O526 O 0.27692 0.81251 0.81313 0.0
O527 O 0.29055 0.78304 0.82673 0.0
C528 C 0.27932 0.87442 0.77969 0.0
C529 C 0.24594 0.90161 0.78342 0.0
C530 C 0.26992 0.91148 0.78972 0.0
C531 C 0.2864 0.89802 0.78785 0.0
C532 C 0.25545 0.86446 0.7734 0.0
C533 C 0.23899 0.8779 0.77513 0.0
C534 C 0.29686 0.86034 0.77822 0.0
C535 C 0.30905 0.78136 0.74496 0.0
C536 C 0.24711 0.78192 0.76983 0.0
C537 C 0.30109 0.70268 0.79298 0.0
C538 C 0.32479 0.66719 0.78344 0.0
C539 C 0.33693 0.69044 0.78695 0.0
C540 C 0.32517 0.70803 0.79158 0.0
C541 C 0.28901 0.67956 0.78963 0.0
C542 C 0.30069 0.66203 0.78491 0.0
C543 C 0.28824 0.72077 0.79824 0.0
H544 H 0.27599 0.92954 0.79652 0.0
H545 H 0.30471 0.90604 0.79296 0.0
H546 H 0.24949 0.84626 0.76715 0.0
H547 H 0.22078 0.86968 0.76976 0.0
H548 H 0.35543 0.69505 0.78573 0.0
H549 H 0.33488 0.72578 0.79404 0.0
H550 H 0.27048 0.67502 0.79074 0.0
H551 H 0.29081 0.64436 0.78264 0.0
Dy552 Dy 0.54965 0.06009 0.00944 0.0
Dy553 Dy 0.53785 0.02652 0.04876 0.0
C554 C 0.55273 0.00756 0.99993 0.0
O555 O 0.51292 0.04077 0.9986 0.0
O556 O 0.50403 0.03354 0.03506 0.0
O557 O 0.54542 0.06635 0.97334 0.0
O558 O 0.5698 0.09111 0.99915 0.0
O559 O 0.53887 0.06255 0.06671 0.0
O560 O 0.53199 0.07998 0.03404 0.0
O561 O 0.5763 0.03333 0.04876 0.0
O562 O 0.57914 0.06904 0.03833 0.0
O563 O 0.54495 0.01754 0.08342 0.0
O564 O 0.51761 0.99524 0.05816 0.0
C565 C 0.49774 0.03528 0.0131 0.0
O566 O 0.56335 0.02897 0.99895 0.0
O567 O 0.53844 0.00294 0.01564 0.0
C568 C 0.58225 0.0804 0.96314 0.0
C569 C 0.61313 0.06499 0.93484 0.0
C570 C 0.61557 0.06356 0.95899 0.0
C571 C 0.60022 0.07111 0.97299 0.0
C572 C 0.5803 0.08271 0.93923 0.0
C573 C 0.59568 0.07511 0.92516 0.0
C574 C 0.56349 0.08365 0.97689 0.0
C575 C 0.53314 0.07982 0.05694 0.0
C576 C 0.5886 0.05403 0.04801 0.0
C577 C 0.51087 0.99929 0.09722 0.0
C578 C 0.47954 0.99862 0.13043 0.0
C579 C 0.48551 0.01788 0.11864 0.0
C580 C 0.50101 0.01818 0.10208 0.0
C581 C 0.50461 0.97983 0.10852 0.0
C582 C 0.48896 0.97946 0.12504 0.0
C583 C 0.52723 -0.0002 0.07996 0.0
H584 H 0.62864 0.05562 0.9669 0.0
H585 H 0.60173 0.06865 0.99133 0.0
H586 H 0.56632 0.08948 0.93127 0.0
H587 H 0.59361 0.0767 0.90662 0.0
H588 H 0.47829 0.03276 0.12234 0.0
H589 H 0.50544 0.0332 0.09318 0.0
H590 H 0.51198 0.96507 0.10472 0.0
H591 H 0.48476 0.96451 0.13407 0.0
Dy592 Dy 0.28129 0.26956 0.27863 0.0
Dy593 Dy 0.30932 0.32087 0.29829 0.0
C594 C 0.30095 0.28273 0.33388 0.0
O595 O 0.25339 0.28501 0.29392 0.0
O596 O 0.27114 0.323 0.29537 0.0
O597 O 0.25737 0.23782 0.28207 0.0
O598 O 0.27222 0.24193 0.2498 0.0
O599 O 0.30566 0.31951 0.25903 0.0
O600 O 0.27299 0.29062 0.25049 0.0
O601 O 0.33737 0.30071 0.2975 0.0
O602 O 0.3184 0.27144 0.26926 0.0
O603 O 0.3399 0.34808 0.29869 0.0
O604 O 0.313 0.35355 0.31968 0.0
C605 C 0.25252 0.30683 0.29722 0.0
O606 O 0.29536 0.26643 0.31572 0.0
O607 O 0.30494 0.30458 0.33107 0.0
C608 C 0.26792 0.20625 0.26319 0.0
C609 C 0.28266 0.16557 0.26793 0.0
C610 C 0.29809 0.18707 0.27526 0.0
C611 C 0.29078 0.20722 0.2729 0.0
C612 C 0.25238 0.18495 0.25573 0.0
C613 C 0.25971 0.16463 0.25813 0.0
C614 C 0.26039 0.22765 0.26198 0.0
C615 C 0.28801 0.30754 0.24401 0.0
C616 C 0.33814 0.28403 0.28105 0.0
C617 C 0.32988 0.38407 0.30025 0.0
C618 C 0.31715 0.41942 0.27748 0.0
C619 C 0.32729 0.4033 0.26552 0.0
C620 C 0.33347 0.38569 0.27674 0.0
C621 C 0.32163 0.40125 0.31275 0.0
C622 C 0.31518 0.41868 0.30147 0.0
C623 C 0.33145 0.36315 0.31079 0.0
H624 H 0.3157 0.18835 0.28338 0.0
H625 H 0.30287 0.22361 0.279 0.0
H626 H 0.23462 0.18405 0.24833 0.0
H627 H 0.24752 0.14826 0.25236 0.0
H628 H 0.32944 0.40364 0.24717 0.0
H629 H 0.33992 0.37274 0.26661 0.0
H630 H 0.31872 0.40034 0.33087 0.0
H631 H 0.30717 0.43059 0.31122 0.0
Dy632 Dy 0.54847 0.51868 0.03631 0.0
Dy633 Dy 0.531 0.56767 0.03846 0.0
C634 C 0.49546 0.51965 0.04159 0.0
O635 O 0.53331 0.52138 0.99932 0.0
O636 O 0.54219 0.56051 0.00304 0.0
O637 O 0.54201 0.48237 0.02354 0.0
O638 O 0.57341 0.49892 0.04683 0.0
O639 O 0.56919 0.57674 0.04861 0.0
O640 O 0.57958 0.54567 0.02967 0.0
O641 O 0.53142 0.55954 0.07581 0.0
O642 O 0.55565 0.5343 0.07417 0.0
O643 O 0.53345 0.60321 0.05211 0.0
O644 O 0.50869 0.58706 0.0217 0.0
C645 C 0.53605 0.54053 0.98974 0.0
O646 O 0.51309 0.51079 0.04813 0.0
O647 O 0.4986 0.53956 0.0335 0.0
C648 C 0.55717 0.45955 0.04947 0.0
C649 C 0.54979 0.4197 0.07267 0.0
C650 C 0.53964 0.43815 0.07934 0.0
C651 C 0.54322 0.45786 0.06778 0.0
C652 C 0.56782 0.44151 0.04331 0.0
C653 C 0.56421 0.42189 0.05473 0.0
C654 C 0.56044 0.47948 0.03609 0.0
C655 C 0.58496 0.56712 0.04015 0.0
C656 C 0.54527 0.54805 0.08628 0.0
C657 C 0.52644 0.62658 0.02241 0.0
C658 C 0.53979 0.66558 0.9988 0.0
C659 C 0.55665 0.6568 0.01161 0.0
C660 C 0.55008 0.63751 0.02318 0.0
C661 C 0.50961 0.63512 0.00943 0.0
C662 C 0.51619 0.65432 0.99771 0.0
C663 C 0.51897 0.60633 0.03484 0.0
H664 H 0.52835 0.43705 0.09296 0.0
H665 H 0.53482 0.4716 0.07286 0.0
H666 H 0.57875 0.44245 0.02937 0.0
H667 H 0.57266 0.40828 0.04935 0.0
H668 H 0.57501 0.66479 0.01258 0.0
H669 H 0.56352 0.63121 0.03278 0.0
H670 H 0.49128 0.627 0.00849 0.0
H671 H 0.50271 0.66066 0.98823 0.0
Dy672 Dy 0.79699 0.31959 0.27449 0.0
Dy673 Dy 0.78759 0.26661 0.28765 0.0
C674 C 0.77798 0.30707 0.3212 0.0
O675 O 0.83157 0.31708 0.29455 0.0
O676 O 0.82651 0.27792 0.28747 0.0
O677 O 0.80648 0.35593 0.28778 0.0
O678 O 0.79553 0.34471 0.25062 0.0
O679 O 0.79193 0.26458 0.24985 0.0
O680 O 0.81257 0.30109 0.2471 0.0
O681 O 0.7508 0.27196 0.27849 0.0
O682 O 0.76089 0.30141 0.25656 0.0
O683 O 0.77301 0.22996 0.27941 0.0
O684 O 0.79454 0.24374 0.31251 0.0
C685 C 0.8403 0.29855 0.29385 0.0
O686 O 0.77412 0.31669 0.30253 0.0
O687 O 0.78872 0.29024 0.32058 0.0
C688 C 0.7826 0.3768 0.26806 0.0
C689 C 0.74925 0.40418 0.27153 0.0
C690 C 0.77131 0.41107 0.28513 0.0
C691 C 0.78775 0.39753 0.28342 0.0
C692 C 0.76078 0.37016 0.25407 0.0
C693 C 0.74435 0.38365 0.25578 0.0
C694 C 0.79957 0.36184 0.26763 0.0
C695 C 0.80582 0.27907 0.2392 0.0
C696 C 0.74474 0.28565 0.26367 0.0
C697 C 0.79675 0.20685 0.29551 0.0
C698 C 0.82061 0.17088 0.29067 0.0
C699 C 0.82654 0.1902 0.27882 0.0
C700 C 0.81466 0.20803 0.28119 0.0
C701 C 0.79116 0.18788 0.30765 0.0
C702 C 0.80293 0.17014 0.30529 0.0
C703 C 0.78387 0.22524 0.29838 0.0
H704 H 0.77568 0.42662 0.2976 0.0
H705 H 0.8044 0.40307 0.29445 0.0
H706 H 0.75623 0.35438 0.24193 0.0
H707 H 0.72776 0.37793 0.2447 0.0
H708 H 0.83993 0.19129 0.26732 0.0
H709 H 0.81934 0.22262 0.27174 0.0
H710 H 0.77759 0.18674 0.31897 0.0
H711 H 0.79815 0.15577 0.31501 0.0
Dy712 Dy 0.05131 0.56352 0.51459 0.0
Dy713 Dy 0.05103 0.52796 0.55339 0.0
C714 C 0.05697 0.51093 0.50064 0.0
O715 O 0.01474 0.55498 0.52253 0.0
O716 O 0.01577 0.51964 0.53274 0.0
O717 O 0.03512 0.57127 0.48224 0.0
O718 O 0.06651 0.59454 0.50079 0.0
O719 O 0.03811 0.55781 0.56985 0.0
O720 O 0.05369 0.58621 0.54882 0.0
O721 O 0.08775 0.54817 0.55761 0.0
O722 O 0.08799 0.56014 0.52133 0.0
O723 O 0.0598 0.52226 0.58914 0.0
O724 O 0.03924 0.49431 0.56375 0.0
C725 C 1.00405 0.53446 0.52614 0.0
O726 O 0.04856 0.52838 0.49456 0.0
O727 O 0.06303 0.50931 0.52284 0.0
C728 C 0.0639 0.58571 0.45963 0.0
C729 C 0.08151 0.57054 0.41895 0.0
C730 C 0.09521 0.5743 0.44091 0.0
C731 C 0.08646 0.58171 0.46108 0.0
C732 C 0.05067 0.58316 0.43756 0.0
C733 C 0.05938 0.57557 0.41735 0.0
C734 C 0.05268 0.58825 0.48096 0.0
C735 C 0.04441 0.57977 0.56745 0.0
C736 C 0.09897 0.55716 0.54121 0.0
C737 C 0.02649 0.50016 0.60044 0.0
C738 C 0.99261 0.50427 0.63025 0.0
C739 C 0.98996 0.50997 0.6074 0.0
C740 C 1.00679 0.50805 0.59273 0.0
C741 C 0.02891 0.49365 0.62292 0.0
C742 C 1.01202 0.49568 0.63778 0.0
C743 C 0.04554 0.50205 0.58596 0.0
H744 H 0.11224 0.57037 0.44269 0.0
H745 H 0.09694 0.58314 0.47789 0.0
H746 H 0.03314 0.5859 0.4361 0.0
H747 H 0.0486 0.57308 0.40056 0.0
H748 H 0.97553 0.51711 0.60124 0.0
H749 H 1.00496 0.51383 0.57572 0.0
H750 H 0.04418 0.48786 0.62926 0.0
H751 H 0.01441 0.49107 0.65531 0.0
Dy752 Dy 0.81805 0.77796 0.28588 0.0
Dy753 Dy 0.77253 0.80298 0.28927 0.0
C754 C 0.82193 0.83212 0.27941 0.0
O755 O 0.81385 0.78342 0.32444 0.0
O756 O 0.79506 0.81307 0.32399 0.0
O757 O 0.8535 0.777 0.29821 0.0
O758 O 0.83466 0.75333 0.26816 0.0
O759 O 0.76456 0.7698 0.30387 0.0
O760 O 0.78668 0.74869 0.28501 0.0
O761 O 0.76987 0.78794 0.25119 0.0
O762 O 0.80705 0.783 0.24914 0.0
O763 O 0.73613 0.8008 0.27816 0.0
O764 O 0.75471 0.82718 0.30609 0.0
C765 C 0.80674 0.80055 0.3355 0.0
O766 O 0.83161 0.81558 0.28564 0.0
O767 O 0.79923 0.83045 0.27732 0.0
C768 C 0.87513 0.76863 0.26692 0.0
C769 C 0.91438 0.78007 0.24211 0.0
C770 C 0.90736 0.7971 0.25651 0.0
C771 C 0.88802 0.79149 0.26867 0.0
C772 C 0.88175 0.75166 0.25213 0.0
C773 C 0.90105 0.7573 0.23982 0.0
C774 C 0.85498 0.76232 0.28038 0.0
C775 C 0.76851 0.74991 0.29598 0.0
C776 C 0.78637 0.78345 0.23898 0.0
C777 C 0.71465 0.81049 0.30899 0.0
C778 C 0.67468 0.79977 0.33289 0.0
C779 C 0.68251 0.78233 0.31999 0.0
C780 C 0.70221 0.78758 0.30829 0.0
C781 C 0.70732 0.82788 0.32246 0.0
C782 C 0.68766 0.82259 0.33436 0.0
C783 C 0.73436 0.81647 0.29489 0.0
H784 H 0.91687 0.81488 0.25845 0.0
H785 H 0.8833 0.80511 0.27961 0.0
H786 H 0.87211 0.73392 0.25032 0.0
H787 H 0.90595 0.74369 0.22903 0.0
H788 H 0.67324 0.76452 0.31874 0.0
H789 H 0.70741 0.77366 0.2983 0.0
H790 H 0.71651 0.84568 0.32336 0.0
H791 H 0.68213 0.83649 0.34401 0.0
Dy792 Dy 0.80196 0.2819 0.76372 0.0
Dy793 Dy 0.78131 0.2988 0.81095 0.0
C794 C 0.81877 0.33248 0.78841 0.0
O795 O 0.82943 0.28208 0.79369 0.0
O796 O 0.80939 0.28209 0.82577 0.0
O797 O 0.83055 0.2843 0.74323 0.0
O798 O 0.79797 0.25946 0.73111 0.0
O799 O 0.76211 0.26246 0.79987 0.0
O800 O 0.78869 0.24996 0.77895 0.0
O801 O 0.76265 0.31195 0.78116 0.0
O802 O 0.76617 0.2861 0.75052 0.0
O803 O 0.75244 0.29719 0.83113 0.0
O804 O 0.78443 0.32287 0.8423 0.0
C805 C 0.82811 0.27982 0.81601 0.0
O806 O 0.81063 0.32038 0.76788 0.0
O807 O 0.81331 0.32449 0.8077 0.0
C808 C 0.81783 0.2778 0.7031 0.0
C809 C 0.81838 0.29533 0.66017 0.0
C810 C 0.80759 0.30476 0.67811 0.0
C811 C 0.80732 0.29606 0.69942 0.0
C812 C 0.82823 0.26797 0.68518 0.0
C813 C 0.82843 0.27665 0.6637 0.0
C814 C 0.81824 0.26954 0.7259 0.0
C815 C 0.77026 0.2458 0.78988 0.0
C816 C 0.75564 0.30144 0.75957 0.0
C817 C 0.7643 0.30637 0.87135 0.0
C818 C 0.7613 0.28938 0.91455 0.0
C819 C 0.77806 0.28464 0.90039 0.0
C820 C 0.77953 0.29306 0.87898 0.0
C821 C 0.74798 0.31173 0.8856 0.0
C822 C 0.74648 0.30329 0.90712 0.0
C823 C 0.76424 0.31299 0.84777 0.0
H824 H 0.79936 0.3189 0.67565 0.0
H825 H 0.7991 0.30369 0.71313 0.0
H826 H 0.83637 0.25382 0.68788 0.0
H827 H 0.83686 0.26916 0.65011 0.0
H828 H 0.78942 0.2736 0.90535 0.0
H829 H 0.79207 0.28856 0.86804 0.0
H830 H 0.73604 0.32193 0.87981 0.0
H831 H 0.73349 0.30728 0.91773 0.0
Dy832 Dy 0.77605 0.759 0.77248 0.0
Dy833 Dy 0.80723 0.80809 0.79601 0.0
C834 C 0.79695 0.7664 0.82683 0.0
O835 O 0.75166 0.77465 0.79353 0.0
O836 O 0.76968 0.81204 0.79317 0.0
O837 O 0.74286 0.73422 0.76544 0.0
O838 O 0.77325 0.72572 0.75271 0.0
O839 O 0.80281 0.81097 0.75716 0.0
O840 O 0.77083 0.7814 0.74489 0.0
O841 O 0.83407 0.78721 0.78868 0.0
O842 O 0.81114 0.76203 0.75884 0.0
O843 O 0.84018 0.83311 0.80178 0.0
O844 O 0.81087 0.8407 0.8176 0.0
C845 C 0.75118 0.79653 0.79655 0.0
O846 O 0.79277 0.75264 0.80686 0.0
O847 O 0.80044 0.78879 0.82702 0.0
C848 C 0.7486 0.69704 0.76805 0.0
C849 C 0.75494 0.6589 0.78967 0.0
C850 C 0.75651 0.68005 0.80333 0.0
C851 C 0.75323 0.69898 0.79259 0.0
C852 C 0.7451 0.67549 0.75457 0.0
C853 C 0.7481 0.65643 0.76536 0.0
C854 C 0.75194 0.71789 0.7566 0.0
C855 C 0.78591 0.79962 0.74078 0.0
C856 C 0.83212 0.77201 0.76994 0.0
C857 C 0.83344 0.87027 0.80093 0.0
C858 C 0.8256 0.90659 0.7767 0.0
C859 C 0.8332 0.88828 0.76527 0.0
C860 C 0.83695 0.8702 0.77723 0.0
C861 C 0.82797 0.88952 0.81292 0.0
C862 C 0.82403 0.90753 0.80091 0.0
C863 C 0.8314 0.84906 0.8119 0.0
H864 H 0.7618 0.68228 0.82209 0.0
H865 H 0.75597 0.7155 0.8033 0.0
H866 H 0.74173 0.67376 0.73561 0.0
H867 H 0.74708 0.64031 0.75448 0.0
H868 H 0.83493 0.88727 0.74675 0.0
H869 H 0.84116 0.85556 0.76747 0.0
H870 H 0.82507 0.88986 0.83114 0.0
H871 H 0.81797 0.92125 0.81022 0.0
Dy872 Dy 0.5658 0.55711 0.55313 0.0
Dy873 Dy 0.51762 0.5335 0.52066 0.0
C874 C 0.56419 0.54536 0.49663 0.0
O875 O 0.55387 0.58836 0.54179 0.0
O876 O 0.51803 0.57182 0.52084 0.0
O877 O 0.5996 0.58066 0.55822 0.0
O878 O 0.58828 0.56109 0.58587 0.0
O879 O 0.51318 0.52762 0.55804 0.0
O880 O 0.53895 0.55913 0.57759 0.0
O881 O 0.53368 0.50282 0.5254 0.0
O882 O 0.56225 0.51875 0.55615 0.0
O883 O 0.48039 0.52427 0.51946 0.0
O884 O 0.49628 0.51463 0.48895 0.0
C885 C 0.53464 0.59036 0.5292 0.0
O886 O 0.57588 0.54643 0.51756 0.0
O887 O 0.54164 0.54363 0.49419 0.0
C888 C 0.62731 0.56509 0.57959 0.0
C889 C 0.66289 0.54084 0.58078 0.0
C890 C 0.65583 0.54925 0.56016 0.0
C891 C 0.63818 0.56121 0.55954 0.0
C892 C 0.6353 0.55788 0.60059 0.0
C893 C 0.65289 0.54574 0.60116 0.0
C894 C 0.60585 0.57372 0.57799 0.0
C895 C 0.52114 0.54185 0.57749 0.0
C896 C 0.54946 0.50038 0.54234 0.0
C897 C 0.46159 0.52791 0.48356 0.0
C898 C 0.43487 0.56014 0.47566 0.0
C899 C 0.42446 0.53865 0.48187 0.0
C900 C 0.43779 0.52262 0.4858 0.0
C901 C 0.4712 0.54798 0.4743 0.0
C902 C 0.45784 0.56392 0.47018 0.0
C903 C 0.47698 0.51663 0.49711 0.0
H904 H 0.66301 0.5455 0.54409 0.0
H905 H 0.63235 0.5664 0.54301 0.0
H906 H 0.62717 0.56068 0.61627 0.0
H907 H 0.65819 0.53962 0.61734 0.0
H908 H 0.40683 0.5352 0.48629 0.0
H909 H 0.43015 0.5073 0.49312 0.0
H910 H 0.48961 0.55247 0.47256 0.0
H911 H 0.46617 0.58016 0.46494 0.0
Dy912 Dy 0.01349 0.53885 0.02585 0.0
Dy913 Dy 0.06806 0.54039 0.01936 0.0
C914 C 0.03282 0.5456 0.97826 0.0
O915 O 0.01606 0.50148 0.02476 0.0
O916 O 0.04897 0.50309 0.00658 0.0
O917 O 0.98074 0.54238 0.00865 0.0
O918 O 0.98284 0.53327 0.04392 0.0
O919 O 0.06075 0.52722 0.05293 0.0
O920 O 0.03301 0.54649 0.0618 0.0
O921 O 0.06868 0.57761 0.03345 0.0
O922 O 0.02947 0.57729 0.03022 0.0
O923 O 0.10427 0.54774 0.03425 0.0
O924 O 0.09391 0.53317 0.99774 0.0
C925 C 0.0302 0.49092 0.01378 0.0
O926 O 0.01808 0.53146 0.98824 0.0
O927 O 0.05324 0.55573 0.98964 0.0
C928 C 0.95642 0.55621 0.03319 0.0
C929 C 0.93091 0.59059 0.0394 0.0
C930 C 0.95457 0.59489 0.04887 0.0
C931 C 0.96724 0.57789 0.04569 0.0
C932 C 0.93277 0.55164 0.0243 0.0
C933 C 0.92014 0.56861 0.02733 0.0
C934 C 0.96996 0.53912 0.02696 0.0
C935 C 0.04952 0.53632 0.06835 0.0
C936 C 0.05157 0.58859 0.03477 0.0
C937 C 0.12447 0.52109 0.01849 0.0
C938 C 0.15083 0.4875 0.02366 0.0
C939 C 0.12744 0.48333 0.02811 0.0
C940 C 0.11441 0.49995 0.02555 0.0
C941 C 0.14776 0.52544 0.0142 0.0
C942 C 0.16082 0.50885 0.01677 0.0
C943 C 0.11071 0.53849 0.01527 0.0
H944 H 0.96341 0.61148 0.0585 0.0
H945 H 0.98558 0.58184 0.05248 0.0
H946 H 0.92423 0.53513 0.01428 0.0
H947 H 0.90214 0.5647 0.01939 0.0
H948 H 0.11922 0.46726 0.03374 0.0
H949 H 0.09644 0.49628 0.029 0.0
H950 H 0.1558 0.54163 0.00866 0.0
H951 H 0.17863 0.51258 0.01287 0.0
H952 H 0.99683 0.18715 0.95959 0.0
H953 H 0.03734 0.23467 0.01859 0.0
H954 H 0.04545 0.20194 0.03767 0.0
H955 H 0.97179 0.14158 0.99371 0.0
H956 H 0.97367 0.1182 0.97225 0.0
H957 H 0.9703 0.14515 0.96308 0.0
H958 H 1.00735 0.14799 0.94259 0.0
H959 H 1.01082 0.12106 0.9517 0.0
H960 H 0.03426 0.14636 0.95918 0.0
H961 H 0.05006 0.16384 0.05079 0.0
H962 H 0.05129 0.1243 0.05672 0.0
H963 H 1.00826 0.09884 0.98974 0.0
C964 C 1.00726 0.1907 0.97663 0.0
C965 C 0.01626 0.21406 0.98748 0.0
C966 C 0.03005 0.2174 0.0097 0.0
C967 C 0.0348 0.19872 0.02077 0.0
C968 C 0.02584 0.17616 0.00967 0.0
C969 C 1.01234 0.17199 0.98804 0.0
C970 C 1.0053 0.14586 0.97993 0.0
C971 C 0.97868 0.13718 0.97707 0.0
C972 C 0.01501 0.13997 0.95698 0.0
C973 C 0.01694 0.13605 1.0003 0.0
C974 C 0.02863 0.15403 0.01722 0.0
C975 C 0.0409 0.14975 0.03757 0.0
C976 C 0.04147 0.1269 0.04079 0.0
C977 C 0.0299 0.10771 0.02393 0.0
C978 C 0.01728 0.11268 0.00328 0.0
H979 H 0.13209 0.80553 0.18656 0.0
H980 H 0.16014 0.80417 0.12016 0.0
H981 H 0.19866 0.8038 0.14069 0.0
H982 H 0.184 0.84275 0.22153 0.0
H983 H 0.18097 0.82791 0.24691 0.0
H984 H 0.15553 0.82824 0.22715 0.0
H985 H 0.14405 0.78377 0.22152 0.0
H986 H 0.16945 0.78331 0.24127 0.0
H987 H 0.16467 0.76782 0.21205 0.0
H988 H 0.23455 0.80276 0.16848 0.0
H989 H 0.26452 0.80157 0.201 0.0
H990 H 0.21421 0.80416 0.25012 0.0
C991 C 0.14635 0.80523 0.17633 0.0
C992 C 0.14283 0.8049 0.15154 0.0
C993 C 0.16214 0.80446 0.13903 0.0
C994 C 0.18421 0.80424 0.1506 0.0
C995 C 0.18707 0.80452 0.17492 0.0
C996 C 0.16868 0.80506 0.18769 0.0
C997 C 0.17655 0.80519 0.21371 0.0
C998 C 0.17412 0.82734 0.22818 0.0
C999 C 0.16287 0.78375 0.22266 0.0
C1000 C 0.20214 0.80454 0.21355 0.0
C1001 C 0.20781 0.80414 0.19095 0.0
C1002 C 0.23024 0.80315 0.18624 0.0
C1003 C 0.24726 0.80247 0.20494 0.0
C1004 C 0.24208 0.80286 0.22839 0.0
C1005 C 0.21904 0.80401 0.23256 0.0
H1006 H 0.49339 0.85876 0.49649 0.0
H1007 H 0.56056 0.85744 0.47344 0.0
H1008 H 0.57281 0.89938 0.48314 0.0
H1009 H 0.48792 0.91241 0.47501 0.0
H1010 H 0.47518 0.92319 0.49962 0.0
H1011 H 0.47104 0.89263 0.49152 0.0
H1012 H 0.4879 0.88874 0.53349 0.0
H1013 H 0.49205 0.91929 0.54173 0.0
H1014 H 0.51631 0.90592 0.54583 0.0
H1015 H 0.57833 0.94165 0.49368 0.0
H1016 H 0.57749 0.98164 0.50577 0.0
H1017 H 0.50756 0.95949 0.52406 0.0
C1018 C 0.51075 0.86728 0.49369 0.0
C1019 C 0.52595 0.85414 0.48408 0.0
C1020 C 0.54842 0.86648 0.4807 0.0
C1021 C 0.55563 0.89057 0.48617 0.0
C1022 C 0.54041 0.9029 0.49531 0.0
C1023 C 0.51845 0.89181 0.49927 0.0
C1024 C 0.50585 0.90984 0.50933 0.0
C1025 C 0.48367 0.90949 0.49289 0.0
C1026 C 0.50019 0.90569 0.53407 0.0
C1027 C 0.52408 0.93261 0.51016 0.0
C1028 C 0.54379 0.92786 0.50185 0.0
C1029 C 0.56297 0.94548 0.50026 0.0
C1030 C 0.56221 0.96845 0.50719 0.0
C1031 C 0.54248 0.97448 0.51598 0.0
C1032 C 0.52307 0.95593 0.51758 0.0
H1033 H 0.51166 0.27345 0.65072 0.0
H1034 H 0.53577 0.34748 0.66746 0.0
H1035 H 0.50451 0.34826 0.69243 0.0
H1036 H 0.44969 0.27026 0.64974 0.0
H1037 H 0.44417 0.24463 0.66382 0.0
H1038 H 0.46771 0.24984 0.64625 0.0
H1039 H 0.49671 0.24607 0.68145 0.0
H1040 H 0.47327 0.24087 0.69913 0.0
H1041 H 0.49858 0.26393 0.70902 0.0
H1042 H 0.4705 0.34136 0.71506 0.0
H1043 H 0.43743 0.32693 0.73629 0.0
H1044 H 0.43625 0.25695 0.70751 0.0
C1045 C 0.51018 0.28981 0.65951 0.0
C1046 C 0.52603 0.31047 0.65699 0.0
C1047 C 0.52382 0.33148 0.6691 0.0
C1048 C 0.50608 0.3321 0.68329 0.0
C1049 C 0.49082 0.3115 0.68554 0.0
C1050 C 0.49279 0.29069 0.67422 0.0
C1051 C 0.47471 0.27098 0.68065 0.0
C1052 C 0.45809 0.25818 0.65881 0.0
C1053 C 0.48653 0.25449 0.69332 0.0
C1054 C 0.46223 0.28401 0.69719 0.0
C1055 C 0.47171 0.30739 0.69952 0.0
C1056 C 0.46298 0.32309 0.71343 0.0
C1057 C 0.44411 0.31474 0.72535 0.0
C1058 C 0.43422 0.29084 0.72358 0.0
C1059 C 0.44354 0.2753 0.70933 0.0
H1060 H 0.03078 0.80249 0.63235 0.0
H1061 H 0.03042 0.83839 0.70152 0.0
H1062 H 0.03359 0.87486 0.68488 0.0
H1063 H 0.07286 0.84728 0.61346 0.0
H1064 H 0.05902 0.84285 0.58355 0.0
H1065 H 0.05585 0.81923 0.60058 0.0
H1066 H 1.01095 0.81237 0.59245 0.0
H1067 H 0.01399 0.83594 0.57534 0.0
H1068 H 0.99724 0.83574 0.59967 0.0
H1069 H 0.03752 0.90775 0.66107 0.0
H1070 H 0.04241 0.93482 0.6319 0.0
H1071 H 0.04035 0.87828 0.57762 0.0
C1072 C 0.0312 0.818 0.64394 0.0
C1073 C 0.03025 0.81747 0.66831 0.0
C1074 C 0.03108 0.83825 0.68285 0.0
C1075 C 0.03287 0.85911 0.67355 0.0
C1076 C 0.03391 0.85909 0.64957 0.0
C1077 C 0.03313 0.83912 0.63492 0.0
C1078 C 0.03508 0.84409 0.60984 0.0
C1079 C 0.05701 0.838 0.60136 0.0
C1080 C 0.013 0.83127 0.59335 0.0
C1081 C 0.03717 0.86994 0.61274 0.0
C1082 C 0.03634 0.87818 0.63581 0.0
C1083 C 0.03804 0.90145 0.64293 0.0
C1084 C 0.04066 0.91672 0.62611 0.0
C1085 C 0.04161 0.90885 0.60227 0.0
C1086 C 0.03984 0.88502 0.59565 0.0
H1087 H 0.47271 0.78657 0.85101 0.0
H1088 H 0.50015 0.84645 0.8181 0.0
H1089 H 0.46003 0.84799 0.80313 0.0
H1090 H 0.42489 0.76072 0.80297 0.0
H1091 H 0.40464 0.74954 0.82242 0.0
H1092 H 0.43548 0.75291 0.83058 0.0
H1093 H 0.43341 0.77796 0.86922 0.0
H1094 H 0.4026 0.77476 0.86113 0.0
H1095 H 0.42156 0.80306 0.86808 0.0
H1096 H 0.41649 0.84502 0.79415 0.0
H1097 H 0.37353 0.83538 0.78799 0.0
H1098 H 0.37264 0.77515 0.82325 0.0
C1099 C 0.47029 0.79988 0.84045 0.0
C1100 C 0.48995 0.81646 0.83582 0.0
C1101 C 0.48571 0.83348 0.82187 0.0
C1102 C 0.46284 0.83455 0.81335 0.0
C1103 C 0.44394 0.8182 0.81841 0.0
C1104 C 0.44739 0.80088 0.83127 0.0
C1105 C 0.42388 0.78516 0.83363 0.0
C1106 C 0.42212 0.76062 0.82169 0.0
C1107 C 0.42015 0.78525 0.85956 0.0
C1108 C 0.4067 0.79657 0.8205 0.0
C1109 C 0.41878 0.81576 0.8121 0.0
C1110 C 0.40697 0.82985 0.80043 0.0
C1111 C 0.38239 0.82425 0.79708 0.0
C1112 C 0.36931 0.80442 0.80493 0.0
C1113 C 0.38188 0.79031 0.81673 0.0
H1114 H 0.53902 0.17643 0.16924 0.0
H1115 H 0.49422 0.20577 0.12324 0.0
H1116 H 0.49226 0.17425 0.0918 0.0
H1117 H 0.57164 0.15753 0.12501 0.0
H1118 H 0.57361 0.13094 0.13588 0.0
H1119 H 0.57091 0.15516 0.15576 0.0
H1120 H 0.53443 0.13025 0.16905 0.0
H1121 H 0.53707 0.10593 0.14924 0.0
H1122 H 0.51024 0.11547 0.14742 0.0
H1123 H 0.49658 0.14129 0.06412 0.0
H1124 H 0.50582 0.10776 0.04219 0.0
H1125 H 0.54711 0.09713 0.10473 0.0
C1126 C 0.52854 0.17601 0.15265 0.0
C1127 C 0.51668 0.19381 0.14896 0.0
C1128 C 0.50344 0.19256 0.12678 0.0
C1129 C 0.5022 0.17462 0.10867 0.0
C1130 C 0.51423 0.15763 0.11268 0.0
C1131 C 0.52704 0.15794 0.13412 0.0
C1132 C 0.53859 0.13749 0.13322 0.0
C1133 C 0.56527 0.14578 0.13774 0.0
C1134 C 0.52954 0.12133 0.15078 0.0
C1135 C 0.53049 0.12597 0.10792 0.0
C1136 C 0.51645 0.13805 0.09653 0.0
C1137 C 0.50741 0.13161 0.07293 0.0
C1138 C 0.51286 0.11247 0.06054 0.0
C1139 C 0.52715 0.09953 0.07154 0.0
C1140 C 0.53591 0.10638 0.09576 0.0
H1141 H 0.12269 0.29163 0.33967 0.0
H1142 H 0.12781 0.36342 0.33198 0.0
H1143 H 0.16645 0.3658 0.31872 0.0
H1144 H 0.18365 0.29711 0.36086 0.0
H1145 H 0.18562 0.27021 0.34507 0.0
H1146 H 0.15814 0.27379 0.35371 0.0
H1147 H 0.13895 0.2625 0.31062 0.0
H1148 H 0.16637 0.25885 0.30186 0.0
H1149 H 0.15134 0.27803 0.2882 0.0
H1150 H 0.20607 0.36099 0.30727 0.0
H1151 H 0.24164 0.34914 0.29741 0.0
H1152 H 0.21188 0.27995 0.31087 0.0
C1153 C 0.13184 0.30784 0.33504 0.0
C1154 C 0.12168 0.32738 0.33696 0.0
C1155 C 0.13471 0.34814 0.33073 0.0
C1156 C 0.15689 0.34968 0.32316 0.0
C1157 C 0.16639 0.33028 0.3216 0.0
C1158 C 0.1542 0.30966 0.32723 0.0
C1159 C 0.16853 0.29141 0.32391 0.0
C1160 C 0.17432 0.28261 0.34728 0.0
C1161 C 0.15552 0.27151 0.30503 0.0
C1162 C 0.19064 0.30496 0.31567 0.0
C1163 C 0.189 0.32741 0.31458 0.0
C1164 C 0.20733 0.34339 0.30798 0.0
C1165 C 0.22767 0.33643 0.30237 0.0
C1166 C 0.23004 0.31349 0.30306 0.0
C1167 C 0.21093 0.29759 0.30984 0.0
H1168 H 1.00582 0.04193 0.2154 0.0
H1169 H 0.93209 0.03563 0.19427 0.0
H1170 H 0.93953 0.03901 0.15361 0.0
H1171 H 0.02734 0.08284 0.17514 0.0
H1172 H 0.05097 0.06983 0.16845 0.0
H1173 H 0.04046 0.06817 0.19653 0.0
H1174 H 0.03328 0.02383 0.18952 0.0
H1175 H 0.04377 0.02536 0.16143 0.0
H1176 H 0.01522 0.00813 0.16332 0.0
H1177 H 0.95405 0.04204 0.11492 0.0
H1178 H 0.97473 0.04345 0.08018 0.0
H1179 H 0.03966 0.04698 0.12423 0.0
C1180 C 0.99133 0.04154 0.20224 0.0
C1181 C 0.96829 0.03862 0.20828 0.0
C1182 C 0.94984 0.03785 0.19032 0.0
C1183 C 0.9539 0.03981 0.16705 0.0
C1184 C 0.97658 0.04242 0.1616 0.0
C1185 C 0.99506 0.04324 0.17856 0.0
C1186 C 0.01757 0.04526 0.16739 0.0
C1187 C 0.03512 0.06787 0.17749 0.0
C1188 C 0.02808 0.0244 0.17061 0.0
C1189 C 1.00874 0.04533 0.14162 0.0
C1190 C 0.98502 0.04382 0.13886 0.0
C1191 C 0.97264 0.04328 0.11688 0.0
C1192 C 0.98464 0.0441 0.09715 0.0
C1193 C 1.00896 0.04538 0.09917 0.0
C1194 C 0.02113 0.04614 0.12192 0.0
H1195 H 0.25933 0.72022 0.50573 0.0
H1196 H 0.33361 0.73006 0.50258 0.0
H1197 H 0.33236 0.76132 0.47851 0.0
H1198 H 0.24412 0.72583 0.44809 0.0
H1199 H 0.22138 0.74064 0.45326 0.0
H1200 H 0.22895 0.72186 0.47336 0.0
H1201 H 0.23636 0.75528 0.50761 0.0
H1202 H 0.22909 0.77428 0.48743 0.0
H1203 H 0.25675 0.7819 0.5059 0.0
H1204 H 0.32243 0.78722 0.45094 0.0
H1205 H 0.30409 0.80314 0.41869 0.0
H1206 H 0.23622 0.77819 0.44052 0.0
C1207 C 0.27539 0.72924 0.50029 0.0
C1208 C 0.29656 0.72284 0.50599 0.0
C1209 C 0.31719 0.73475 0.49835 0.0
C1210 C 0.31671 0.75268 0.48492 0.0
C1211 C 0.29552 0.75857 0.47951 0.0
C1212 C 0.2752 0.74717 0.48687 0.0
C1213 C 0.25429 0.75497 0.47635 0.0
C1214 C 0.23614 0.73462 0.4619 0.0
C1215 C 0.24349 0.76735 0.49547 0.0
C1216 C 0.26587 0.77158 0.46089 0.0
C1217 C 0.28973 0.77387 0.46348 0.0
C1218 C 0.30386 0.78611 0.44915 0.0
C1219 C 0.29323 0.79529 0.43093 0.0
C1220 C 0.26865 0.79204 0.42712 0.0
C1221 C 0.25502 0.78103 0.44306 0.0
H1222 H 0.66552 0.02613 0.67871 0.0
H1223 H 0.61531 0.02242 0.72853 0.0
H1224 H 0.58422 0.02227 0.69649 0.0
H1225 H 0.64435 0.06369 0.64482 0.0
H1226 H 0.64932 0.04998 0.61711 0.0
H1227 H 0.6671 0.04815 0.64366 0.0
H1228 H 0.65599 0.00363 0.63487 0.0
H1229 H 0.63825 0.00543 0.60821 0.0
H1230 H 0.62568 0.98879 0.62979 0.0
H1231 H 0.55965 0.02663 0.65958 0.0
H1232 H 0.54305 0.03233 0.62014 0.0
H1233 H 0.60923 0.03107 0.59476 0.0
C1234 C 0.64791 0.02497 0.6828 0.0
C1235 C 0.64273 0.02432 0.706 0.0
C1236 C 0.61954 0.02282 0.71077 0.0
C1237 C 0.60181 0.02276 0.69273 0.0
C1238 C 0.60756 0.0238 0.67004 0.0
C1239 C 0.63 0.02454 0.66499 0.0
C1240 C 0.6318 0.02613 0.63932 0.0
C1241 C 0.64916 0.04831 0.63605 0.0
C1242 C 0.6383 0.00472 0.62734 0.0
C1243 C 0.60704 0.02682 0.63084 0.0
C1244 C 0.59327 0.02546 0.64875 0.0
C1245 C 0.57015 0.0273 0.64531 0.0
C1246 C 0.5609 0.03061 0.62293 0.0
C1247 C 0.57477 0.03187 0.60438 0.0
C1248 C 0.59803 0.02974 0.60846 0.0
H1249 H 0.28018 0.34746 0.96132 0.0
H1250 H 0.34556 0.33435 0.99069 0.0
H1251 H 0.35164 0.31832 0.95118 0.0
H1252 H 0.26293 0.2954 0.91866 0.0
H1253 H 0.24992 0.30935 0.89653 0.0
H1254 H 0.25061 0.31947 0.92714 0.0
H1255 H 0.27155 0.36031 0.9204 0.0
H1256 H 0.27099 0.35029 0.8898 0.0
H1257 H 0.29829 0.36422 0.90744 0.0
H1258 H 0.3516 0.30554 0.90764 0.0
H1259 H 0.34417 0.29476 0.86457 0.0
H1260 H 0.27793 0.31444 0.86359 0.0
C1261 C 0.29571 0.34106 0.95948 0.0
C1262 C 0.31242 0.3422 0.97924 0.0
C1263 C 0.33247 0.33362 0.97595 0.0
C1264 C 0.3361 0.32452 0.95351 0.0
C1265 C 0.31942 0.32384 0.93439 0.0
C1266 C 0.29947 0.33166 0.9372 0.0
C1267 C 0.28419 0.32887 0.91379 0.0
C1268 C 0.26051 0.31228 0.91405 0.0
C1269 C 0.28108 0.35232 0.90749 0.0
C1270 C 0.29873 0.3185 0.89734 0.0
C1271 C 0.31906 0.31586 0.90955 0.0
C1272 C 0.33562 0.30736 0.89799 0.0
C1273 C 0.33127 0.30132 0.87345 0.0
C1274 C 0.3104 0.30354 0.86053 0.0
C1275 C 0.29395 0.31224 0.87285 0.0
H1276 H 0.97157 0.05393 0.36164 0.0
H1277 H 1.00989 0.00844 0.32843 0.0
H1278 H 0.02882 0.0044 0.36741 0.0
H1279 H 0.01819 0.08281 0.40871 0.0
H1280 H 0.99849 0.08465 0.43023 0.0
H1281 H 0.98871 0.08464 0.39967 0.0
H1282 H 0.95465 0.04981 0.40113 0.0
H1283 H 0.96441 0.04963 0.43164 0.0
H1284 H 0.96084 0.02406 0.41096 0.0
H1285 H 0.04264 0.00407 0.41085 0.0
H1286 H 0.05086 0.00863 0.45416 0.0
H1287 H 1.00374 0.05448 0.45918 0.0
C1288 C 0.98417 0.04335 0.36253 0.0
C1289 C 0.98928 0.03161 0.34176 0.0
C1290 C 1.00571 0.01774 0.34391 0.0
C1291 C 0.01655 0.01528 0.36606 0.0
C1292 C 1.01091 0.02682 0.38615 0.0
C1293 C 0.99519 0.04072 0.38457 0.0
C1294 C 0.99188 0.05095 0.40888 0.0
C1295 C 0.99979 0.07733 0.41206 0.0
C1296 C 0.96643 0.04314 0.41341 0.0
C1297 C 1.00802 0.04056 0.42438 0.0
C1298 C 0.01885 0.02668 0.41097 0.0
C1299 C 0.03428 0.01501 0.42146 0.0
C1300 C 0.03883 0.01766 0.44617 0.0
C1301 C 0.02805 0.03192 0.46038 0.0
C1302 C 1.01241 0.04345 0.44907 0.0
H1303 H 0.31403 0.69218 0.63603 0.0
H1304 H 0.3197 0.74871 0.59466 0.0
H1305 H 0.32577 0.77622 0.63085 0.0
H1306 H 0.28023 0.71244 0.67435 0.0
H1307 H 0.29296 0.70291 0.70005 0.0
H1308 H 0.29342 0.68811 0.67145 0.0
H1309 H 0.33837 0.6948 0.67963 0.0
H1310 H 0.33801 0.70964 0.70835 0.0
H1311 H 0.35587 0.7236 0.68827 0.0
H1312 H 0.32678 0.79706 0.67078 0.0
H1313 H 0.32033 0.80929 0.71133 0.0
H1314 H 0.31286 0.73905 0.72634 0.0
C1315 C 0.31721 0.7104 0.63471 0.0
C1316 C 0.3166 0.71841 0.6127 0.0
C1317 C 0.32018 0.74229 0.61147 0.0
C1318 C 0.3238 0.75805 0.6319 0.0
C1319 C 0.32377 0.74961 0.65338 0.0
C1320 C 0.32055 0.72634 0.65494 0.0
C1321 C 0.31848 0.7215 0.67984 0.0
C1322 C 0.29487 0.7053 0.68151 0.0
C1323 C 0.33891 0.71182 0.6896 0.0
C1324 C 0.32009 0.74554 0.69179 0.0
C1325 C 0.32369 0.7616 0.67639 0.0
C1326 C 0.32429 0.78472 0.68314 0.0
C1327 C 0.32062 0.79151 0.70616 0.0
C1328 C 0.31601 0.7751 0.72187 0.0
C1329 C 0.31632 0.75198 0.71468 0.0
H1330 H 0.64283 0.00936 0.81514 0.0
H1331 H 0.71559 0.03058 0.8448 0.0
H1332 H 0.70399 0.03895 0.884 0.0
H1333 H 0.62605 0.0527 0.84301 0.0
H1334 H 0.59777 0.03743 0.84838 0.0
H1335 H 0.61086 0.02675 0.82416 0.0
H1336 H 0.60745 0.98749 0.83972 0.0
H1337 H 0.59369 0.9978 0.86378 0.0
H1338 H 0.61923 0.98659 0.86952 0.0
H1339 H 0.68512 0.0527 0.91755 0.0
H1340 H 0.6602 0.06854 0.94351 0.0
H1341 H 0.59972 0.03892 0.89187 0.0
C1342 C 0.65628 0.01467 0.83008 0.0
C1343 C 0.68008 0.01917 0.82704 0.0
C1344 C 0.69724 0.02684 0.84684 0.0
C1345 C 0.69081 0.03163 0.86917 0.0
C1346 C 0.66717 0.02847 0.87135 0.0
C1347 C 0.65013 0.01975 0.8524 0.0
C1348 C 0.62621 0.02101 0.85861 0.0
C1349 C 0.61457 0.03533 0.84259 0.0
C1350 C 0.61073 0.99678 0.85787 0.0
C1351 C 0.63263 0.03311 0.88348 0.0
C1352 C 0.65625 0.0368 0.89071 0.0
C1353 C 0.66651 0.04939 0.91232 0.0
C1354 C 0.65226 0.05838 0.9269 0.0
C1355 C 0.62806 0.05498 0.91966 0.0
C1356 C 0.61819 0.04193 0.89779 0.0
H1357 H 0.32021 0.37273 0.1323 0.0
H1358 H 0.27243 0.31479 0.08889 0.0
H1359 H 0.263 0.29713 0.12435 0.0
H1360 H 0.34229 0.33934 0.17434 0.0
H1361 H 0.34464 0.36086 0.19927 0.0
H1362 H 0.34741 0.36931 0.17054 0.0
H1363 H 0.31427 0.39073 0.1746 0.0
H1364 H 0.31137 0.38219 0.20328 0.0
H1365 H 0.28643 0.37535 0.18099 0.0
H1366 H 0.25782 0.28593 0.16461 0.0
H1367 H 0.25964 0.28048 0.20637 0.0
H1368 H 0.31189 0.34467 0.22451 0.0
C1369 C 0.30781 0.3563 0.13027 0.0
C1370 C 0.29705 0.34519 0.10763 0.0
C1371 C 0.28097 0.32367 0.10587 0.0
C1372 C 0.27541 0.31351 0.12599 0.0
C1373 C 0.28615 0.32491 0.14797 0.0
C1374 C 0.3022 0.34574 0.15027 0.0
C1375 C 0.31164 0.354 0.17603 0.0
C1376 C 0.33807 0.35599 0.18029 0.0
C1377 C 0.30556 0.37693 0.1842 0.0
C1378 C 0.29842 0.33456 0.18777 0.0
C1379 C 0.28364 0.31811 0.17122 0.0
C1380 C 0.26941 0.29868 0.17769 0.0
C1381 C 0.2705 0.29579 0.20157 0.0
C1382 C 0.28589 0.31207 0.21895 0.0
C1383 C 0.29994 0.33182 0.21179 0.0
H1384 H 0.25112 0.97414 0.00952 0.0
H1385 H 0.24573 0.9304 0.06465 0.0
H1386 H 0.21881 0.95157 0.08219 0.0
H1387 H 0.25241 0.02585 0.04527 0.0
H1388 H 0.23549 0.03687 0.02344 0.0
H1389 H 0.25311 0.01741 0.01452 0.0
H1390 H 0.21692 0.98974 0.98974 0.0
H1391 H 0.19925 0.0093 0.99827 0.0
H1392 H 0.19129 0.97974 0.00343 0.0
H1393 H 0.19353 0.97864 0.09419 0.0
H1394 H 0.16982 0.00764 0.09818 0.0
H1395 H 0.19361 0.03402 0.03578 0.0
C1396 C 0.24404 0.96877 0.0251 0.0
C1397 C 0.25038 0.95064 0.03574 0.0
C1398 C 0.24093 0.94422 0.05621 0.0
C1399 C 0.22575 0.95619 0.06632 0.0
C1400 C 0.22035 0.97443 0.05568 0.0
C1401 C 0.22907 0.98054 0.03542 0.0
C1402 C 0.22101 0.00099 0.02758 0.0
C1403 C 0.24174 0.02149 0.02773 0.0
C1404 C 0.20623 0.99455 0.00332 0.0
C1405 C 0.20639 0.00552 0.04664 0.0
C1406 C 0.2062 0.9901 0.06273 0.0
C1407 C 0.1936 0.99085 0.08173 0.0
C1408 C 0.18039 0.0075 0.08399 0.0
C1409 C 0.17999 0.02307 0.06731 0.0
C1410 C 0.19351 0.02225 0.0487 0.0
H1411 H 0.70898 0.63156 0.0057 0.0
H1412 H 0.70945 0.68309 0.0645 0.0
H1413 H 0.674 0.65886 0.07525 0.0
H1414 H 0.64644 0.61835 0.98993 0.0
H1415 H 0.64364 0.5881 0.98104 0.0
H1416 H 0.67033 0.60839 0.97883 0.0
H1417 H 0.69341 0.58576 0.00417 0.0
H1418 H 0.66672 0.56552 0.00665 0.0
H1419 H 0.68551 0.58049 0.03272 0.0
H1420 H 0.63954 0.63003 0.08025 0.0
H1421 H 0.60324 0.6005 0.07612 0.0
H1422 H 0.62107 0.56749 0.01213 0.0
C1423 C 0.70159 0.63756 0.02089 0.0
C1424 C 0.71203 0.65915 0.03443 0.0
C1425 C 0.70172 0.66668 0.0539 0.0
C1426 C 0.68169 0.65294 0.06026 0.0
C1427 C 0.67183 0.6318 0.04671 0.0
C1428 C 0.68101 0.62423 0.02715 0.0
C1429 C 0.66544 0.60159 0.01468 0.0
C1430 C 0.65589 0.60428 0.98963 0.0
C1431 C 0.67856 0.58219 0.01455 0.0
C1432 C 0.64612 0.59781 0.0303 0.0
C1433 C 0.65066 0.61536 0.04888 0.0
C1434 C 0.63568 0.61627 0.06572 0.0
C1435 C 0.61504 0.59934 0.06315 0.0
C1436 C 0.6091 0.5817 0.0437 0.0
C1437 C 0.62519 0.58058 0.0273 0.0
H1438 H 0.69912 0.51798 0.28959 0.0
H1439 H 0.63038 0.47313 0.28564 0.0
H1440 H 0.64748 0.43921 0.28037 0.0
H1441 H 0.72022 0.48314 0.24591 0.0
H1442 H 0.74944 0.48924 0.26109 0.0
H1443 H 0.73185 0.50999 0.26474 0.0
H1444 H 0.73797 0.51017 0.30978 0.0
H1445 H 0.75556 0.48941 0.30626 0.0
H1446 H 0.73051 0.48344 0.32175 0.0
H1447 H 0.6721 0.41007 0.27548 0.0
H1448 H 0.70222 0.3879 0.27142 0.0
H1449 H 0.75511 0.45157 0.27794 0.0
C1450 C 0.68766 0.50102 0.28766 0.0
C1451 C 0.66336 0.49824 0.28806 0.0
C1452 C 0.64901 0.47573 0.28541 0.0
C1453 C 0.65858 0.45634 0.28241 0.0
C1454 C 0.68256 0.45968 0.28207 0.0
C1455 C 0.69693 0.48145 0.28462 0.0
C1456 C 0.72213 0.48027 0.28352 0.0
C1457 C 0.73145 0.49131 0.26257 0.0
C1458 C 0.73744 0.49149 0.30671 0.0
C1459 C 0.71971 0.45444 0.27996 0.0
C1460 C 0.69673 0.44289 0.27916 0.0
C1461 C 0.69013 0.41895 0.27598 0.0
C1462 C 0.7074 0.40649 0.27352 0.0
C1463 C 0.73114 0.41787 0.27418 0.0
C1464 C 0.73723 0.44224 0.27753 0.0
H1465 H 0.8815 0.45349 0.53566 0.0
H1466 H 0.84891 0.49618 0.49347 0.0
H1467 H 0.88751 0.52232 0.49351 0.0
H1468 H 0.92627 0.49945 0.57102 0.0
H1469 H 0.94769 0.4823 0.57082 0.0
H1470 H 0.91726 0.4686 0.56907 0.0
H1471 H 0.92035 0.44322 0.53071 0.0
H1472 H 0.95067 0.45718 0.53236 0.0
H1473 H 0.93094 0.45684 0.50637 0.0
H1474 H 0.93017 0.54317 0.49758 0.0
H1475 H 0.97324 0.55575 0.50364 0.0
H1476 H 0.97687 0.49765 0.54123 0.0
C1477 C 0.88241 0.46851 0.52668 0.0
C1478 C 0.8623 0.47297 0.51469 0.0
C1479 C 0.8642 0.49256 0.50282 0.0
C1480 C 0.88599 0.5075 0.50281 0.0
C1481 C 0.90557 0.50246 0.51467 0.0
C1482 C 0.90393 0.48337 0.52632 0.0
C1483 C 0.9276 0.48089 0.53651 0.0
C1484 C 0.92982 0.48295 0.56345 0.0
C1485 C 0.93268 0.45819 0.52584 0.0
C1486 C 0.94288 0.5014 0.52854 0.0
C1487 C 0.92994 0.51387 0.51627 0.0
C1488 C 0.94047 0.53354 0.50719 0.0
C1489 C 0.9649 0.54055 0.51071 0.0
C1490 C 0.97838 0.52766 0.52287 0.0
C1491 C 0.96711 0.5079 0.53187 0.0
H1492 H 0.38074 0.09763 0.28956 0.0
H1493 H 0.33243 0.05034 0.32309 0.0
H1494 H 0.30104 0.06956 0.31113 0.0
H1495 H 0.36068 0.14706 0.30604 0.0
H1496 H 0.36466 0.1586 0.27885 0.0
H1497 H 0.38259 0.14012 0.28893 0.0
H1498 H 0.36979 0.11302 0.24951 0.0
H1499 H 0.35161 0.13135 0.2394 0.0
H1500 H 0.33921 0.10126 0.23983 0.0
H1501 H 0.27586 0.09573 0.29775 0.0
H1502 H 0.25952 0.12783 0.28563 0.0
H1503 H 0.32414 0.15629 0.25935 0.0
C1504 C 0.36354 0.09127 0.29434 0.0
C1505 C 0.35894 0.07262 0.30729 0.0
C1506 C 0.33624 0.0647 0.31318 0.0
C1507 C 0.31831 0.07539 0.30636 0.0
C1508 C 0.32342 0.09371 0.29346 0.0
C1509 C 0.34549 0.10155 0.28751 0.0
C1510 C 0.34681 0.12212 0.27447 0.0
C1511 C 0.36474 0.14321 0.28788 0.0
C1512 C 0.35217 0.11659 0.24931 0.0
C1513 C 0.3222 0.12509 0.27462 0.0
C1514 C 0.30886 0.10843 0.2854 0.0
C1515 C 0.28601 0.10867 0.28896 0.0
C1516 C 0.27684 0.12686 0.28191 0.0
C1517 C 0.29062 0.14447 0.2716 0.0
C1518 C 0.31327 0.14308 0.26728 0.0
H1519 H 0.35433 0.17595 0.55024 0.0
H1520 H 0.31895 0.14713 0.48051 0.0
H1521 H 0.34643 0.12203 0.47631 0.0
H1522 H 0.41384 0.17402 0.5376 0.0
H1523 H 0.42212 0.16594 0.56581 0.0
H1524 H 0.40092 0.18319 0.56278 0.0
H1525 H 0.3715 0.15327 0.58037 0.0
H1526 H 0.39256 0.13591 0.58338 0.0
H1527 H 0.36416 0.12365 0.5671 0.0
H1528 H 0.37577 0.09827 0.48029 0.0
H1529 H 0.40566 0.07745 0.49219 0.0
H1530 H 0.42243 0.1208 0.55955 0.0
C1531 C 0.35269 0.16466 0.53394 0.0
C1532 C 0.33454 0.16362 0.51563 0.0
C1533 C 0.33271 0.1483 0.49474 0.0
C1534 C 0.34827 0.13397 0.49216 0.0
C1535 C 0.36568 0.13508 0.51063 0.0
C1536 C 0.3681 0.15005 0.5311 0.0
C1537 C 0.38768 0.14685 0.54864 0.0
C1538 C 0.4073 0.16881 0.55402 0.0
C1539 C 0.37841 0.13948 0.5712 0.0
C1540 C 0.39556 0.12752 0.53493 0.0
C1541 C 0.38267 0.12113 0.513 0.0
C1542 C 0.38607 0.10319 0.49738 0.0
C1543 C 0.40298 0.09135 0.50436 0.0
C1544 C 0.41635 0.09739 0.52682 0.0
C1545 C 0.41268 0.11593 0.54218 0.0
H1546 H 0.70225 0.61571 0.28191 0.0
H1547 H 0.65104 0.63813 0.3216 0.0
H1548 H 0.67409 0.67807 0.32612 0.0
H1549 H 0.75353 0.65555 0.31479 0.0
H1550 H 0.76804 0.66089 0.28935 0.0
H1551 H 0.74808 0.63367 0.28967 0.0
H1552 H 0.7242 0.63922 0.25153 0.0
H1553 H 0.74412 0.66641 0.25105 0.0
H1554 H 0.71339 0.66493 0.25052 0.0
H1555 H 0.70192 0.71518 0.32654 0.0
H1556 H 0.73208 0.74842 0.32125 0.0
H1557 H 0.76593 0.70364 0.28002 0.0
C1558 C 0.69599 0.62905 0.29163 0.0
C1559 C 0.67483 0.62375 0.30151 0.0
C1560 C 0.66712 0.64171 0.31389 0.0
C1561 C 0.68015 0.66447 0.31661 0.0
C1562 C 0.70084 0.66914 0.30672 0.0
C1563 C 0.70873 0.65206 0.29433 0.0
C1564 C 0.73126 0.66216 0.28486 0.0
C1565 C 0.75142 0.65249 0.29529 0.0
C1566 C 0.72804 0.65793 0.25789 0.0
C1567 C 0.73469 0.68757 0.29385 0.0
C1568 C 0.71694 0.69099 0.30655 0.0
C1569 C 0.7159 0.71273 0.31661 0.0
C1570 C 0.73326 0.73159 0.31344 0.0
C1571 C 0.75156 0.72886 0.30013 0.0
C1572 C 0.75232 0.7064 0.29036 0.0
H1573 H 0.85688 0.46329 0.76787 0.0
H1574 H 0.89662 0.47453 0.83715 0.0
H1575 H 0.88876 0.43271 0.83798 0.0
H1576 H 0.81209 0.4188 0.78005 0.0
H1577 H 0.80757 0.40224 0.75137 0.0
H1578 H 0.81871 0.43289 0.75476 0.0
H1579 H 0.85445 0.427 0.73463 0.0
H1580 H 0.84347 0.39626 0.73136 0.0
H1581 H 0.87237 0.40908 0.74625 0.0
H1582 H 0.8751 0.39099 0.83294 0.0
H1583 H 0.85266 0.35094 0.82427 0.0
H1584 H 0.82013 0.36549 0.75861 0.0
C1585 C 0.86412 0.45682 0.78303 0.0
C1586 C 0.87742 0.47197 0.80242 0.0
C1587 C 0.88632 0.46311 0.82219 0.0
C1588 C 0.88216 0.43942 0.82271 0.0
C1589 C 0.86896 0.42489 0.80339 0.0
C1590 C 0.8598 0.43314 0.78401 0.0
C1591 C 0.84421 0.41373 0.76674 0.0
C1592 C 0.81916 0.41712 0.76303 0.0
C1593 C 0.85423 0.41138 0.74336 0.0
C1594 C 0.84557 0.39343 0.77982 0.0
C1595 C 0.86039 0.40035 0.80067 0.0
C1596 C 0.8636 0.38526 0.8166 0.0
C1597 C 0.85072 0.36259 0.81154 0.0
C1598 C 0.83471 0.35525 0.79079 0.0
C1599 C 0.83257 0.37065 0.77437 0.0
H1600 H 0.0361 0.86342 0.07634 0.0
H1601 H 0.11132 0.87999 0.09335 0.0
H1602 H 0.11316 0.91875 0.08246 0.0
H1603 H 0.03409 0.89649 0.02619 0.0
H1604 H 1.00875 0.90661 0.03297 0.0
H1605 H 1.01284 0.87959 0.04135 0.0
H1606 H 1.00952 0.89367 0.0844 0.0
H1607 H 1.00544 0.92073 0.07615 0.0
H1608 H 0.02852 0.92023 0.09881 0.0
H1609 H 0.10757 0.95668 0.07001 0.0
H1610 H 0.09509 0.99051 0.0579 0.0
H1611 H 0.02292 0.95243 0.04894 0.0
C1612 C 0.053 0.87511 0.07757 0.0
C1613 C 0.07369 0.86797 0.08573 0.0
C1614 C 0.09519 0.88441 0.08722 0.0
C1615 C 0.09643 0.90673 0.08101 0.0
C1616 C 0.07598 0.91321 0.07327 0.0
C1617 C 0.05457 0.89794 0.07154 0.0
C1618 C 0.03531 0.90993 0.06316 0.0
C1619 C 0.02195 0.8974 0.03951 0.0
C1620 C 0.01871 0.91121 0.08173 0.0
C1621 C 0.04922 0.93414 0.06044 0.0
C1622 C 0.07269 0.93543 0.06635 0.0
C1623 C 0.0892 0.95571 0.06537 0.0
C1624 C 0.08181 0.97508 0.05835 0.0
C1625 C 0.05788 0.97483 0.0522 0.0
C1626 C 0.04137 0.95368 0.05334 0.0
H1627 H 0.92558 0.28162 0.92716 0.0
H1628 H 0.96411 0.25409 0.87554 0.0
H1629 H 0.93185 0.25202 0.84458 0.0
H1630 H 0.86694 0.24797 0.90041 0.0
H1631 H 0.85282 0.27126 0.90644 0.0
H1632 H 0.87827 0.26955 0.92547 0.0
H1633 H 0.89871 0.31062 0.91912 0.0
H1634 H 0.87333 0.31244 0.90008 0.0
H1635 H 0.9014 0.31718 0.88968 0.0
H1636 H 0.89696 0.25402 0.81856 0.0
H1637 H 0.8611 0.2606 0.79832 0.0
H1638 H 0.84281 0.28738 0.86491 0.0
C1639 C 0.92702 0.27487 0.90939 0.0
C1640 C 0.94758 0.26787 0.90397 0.0
C1641 C 0.94877 0.25954 0.88034 0.0
C1642 C 0.93043 0.25824 0.86252 0.0
C1643 C 0.91067 0.26542 0.86827 0.0
C1644 C 0.90868 0.27362 0.89105 0.0
C1645 C 0.88561 0.28107 0.89179 0.0
C1646 C 0.86999 0.2666 0.90693 0.0
C1647 C 0.89003 0.30686 0.9007 0.0
C1648 C 0.87521 0.27589 0.86589 0.0
C1649 C 0.89011 0.26678 0.85285 0.0
C1650 C 0.88512 0.26107 0.8286 0.0
C1651 C 0.86457 0.26496 0.81721 0.0
C1652 C 0.84884 0.27453 0.8298 0.0
C1653 C 0.85421 0.27982 0.85468 0.0
H1654 H 0.54482 0.22552 0.59349 0.0
H1655 H 0.61373 0.2517 0.57487 0.0
H1656 H 0.61678 0.21198 0.56247 0.0
H1657 H 0.55614 0.17439 0.61554 0.0
H1658 H 0.52822 0.156 0.60348 0.0
H1659 H 0.53101 0.18646 0.61087 0.0
H1660 H 0.51377 0.18886 0.56856 0.0
H1661 H 0.51084 0.15839 0.56108 0.0
H1662 H 0.52698 0.17831 0.5442 0.0
H1663 H 0.6135 0.16885 0.55368 0.0
H1664 H 0.60316 0.12655 0.54638 0.0
H1665 H 0.53518 0.12627 0.56806 0.0
C1666 C 0.5605 0.22293 0.58663 0.0
C1667 C 0.57909 0.24224 0.58525 0.0
C1668 C 0.59918 0.23765 0.57613 0.0
C1669 C 0.60111 0.21495 0.56907 0.0
C1670 C 0.5827 0.19644 0.57081 0.0
C1671 C 0.56259 0.20014 0.57909 0.0
C1672 C 0.54529 0.17697 0.57873 0.0
C1673 C 0.53984 0.17324 0.60364 0.0
C1674 C 0.52289 0.17555 0.56216 0.0
C1675 C 0.55885 0.15975 0.56919 0.0
C1676 C 0.58048 0.1715 0.56495 0.0
C1677 C 0.59651 0.1596 0.55681 0.0
C1678 C 0.59044 0.13532 0.55276 0.0
C1679 C 0.56828 0.12248 0.55647 0.0
C1680 C 0.55225 0.13519 0.56481 0.0
H1681 H 0.58693 0.8044 0.43062 0.0
H1682 H 0.53374 0.75744 0.38043 0.0
H1683 H 0.56216 0.75701 0.3521 0.0
H1684 H 0.61397 0.83771 0.38808 0.0
H1685 H 0.6432 0.84188 0.40274 0.0
H1686 H 0.61892 0.83815 0.41944 0.0
H1687 H 0.63171 0.80402 0.43632 0.0
H1688 H 0.65603 0.80765 0.41969 0.0
H1689 H 0.63553 0.78022 0.41653 0.0
H1690 H 0.59641 0.76116 0.32923 0.0
H1691 H 0.63352 0.77079 0.31276 0.0
H1692 H 0.66495 0.81613 0.37686 0.0
C1693 C 0.5813 0.79397 0.41369 0.0
C1694 C 0.55802 0.78084 0.40783 0.0
C1695 C 0.55138 0.76761 0.38539 0.0
C1696 C 0.56745 0.76724 0.36916 0.0
C1697 C 0.59019 0.78034 0.37544 0.0
C1698 C 0.59713 0.79359 0.39711 0.0
C1699 C 0.62255 0.80647 0.39915 0.0
C1700 C 0.62478 0.83261 0.40255 0.0
C1701 C 0.63732 0.79915 0.41911 0.0
C1702 C 0.62881 0.79834 0.37529 0.0
C1703 C 0.60987 0.78316 0.36199 0.0
C1704 C 0.61133 0.77304 0.33951 0.0
C1705 C 0.63259 0.77853 0.33034 0.0
C1706 C 0.65233 0.79415 0.34345 0.0
C1707 C 0.65023 0.80424 0.36626 0.0
H1708 H 0.02834 0.2536 0.39757 0.0
H1709 H 0.08874 0.30081 0.4383 0.0
H1710 H 0.09118 0.27253 0.4658 0.0
H1711 H 1.00273 0.23168 0.44738 0.0
H1712 H 0.99231 0.20266 0.43273 0.0
H1713 H 0.99531 0.22645 0.41593 0.0
H1714 H 0.02188 0.20841 0.39047 0.0
H1715 H 0.01899 0.18458 0.40721 0.0
H1716 H 0.04751 0.20134 0.40448 0.0
H1717 H 0.08774 0.239 0.48865 0.0
H1718 H 0.07761 0.2032 0.50631 0.0
H1719 H 0.01881 0.17732 0.45179 0.0
C1720 C 0.04206 0.25798 0.41229 0.0
C1721 C 0.0584 0.27951 0.4157 0.0
C1722 C 0.07601 0.28453 0.43526 0.0
C1723 C 0.07758 0.26852 0.451 0.0
C1724 C 0.0613 0.24749 0.44714 0.0
C1725 C 0.04377 0.24219 0.42837 0.0
C1726 C 0.02835 0.21841 0.42856 0.0
C1727 C 1.00318 0.2199 0.43132 0.0
C1728 C 0.02924 0.20223 0.40636 0.0
C1729 C 0.04 0.21119 0.4503 0.0
C1730 C 0.05906 0.22822 0.46063 0.0
C1731 C 0.07284 0.22555 0.48069 0.0
C1732 C 0.06702 0.20503 0.49053 0.0
C1733 C 0.04747 0.18726 0.48047 0.0
C1734 C 0.03377 0.19055 0.46005 0.0
H1735 H 0.60166 0.24098 0.23803 0.0
H1736 H 0.60311 0.30488 0.20906 0.0
H1737 H 0.6457 0.31563 0.21822 0.0
H1738 H 0.64954 0.26554 0.28627 0.0
H1739 H 0.66196 0.24068 0.28452 0.0
H1740 H 0.63117 0.2374 0.27602 0.0
H1741 H 0.63457 0.21681 0.23536 0.0
H1742 H 0.66537 0.2201 0.24371 0.0
H1743 H 0.65518 0.23089 0.21766 0.0
H1744 H 0.68823 0.31974 0.22879 0.0
H1745 H 0.72824 0.31797 0.24204 0.0
H1746 H 0.70273 0.25243 0.26649 0.0
C1747 C 0.61094 0.2573 0.23378 0.0
C1748 C 0.59849 0.27204 0.22269 0.0
C1749 C 0.61171 0.29316 0.21748 0.0
C1750 C 0.63614 0.29949 0.22261 0.0
C1751 C 0.6478 0.28471 0.23325 0.0
C1752 C 0.63577 0.26411 0.23901 0.0
C1753 C 0.6532 0.25174 0.25056 0.0
C1754 C 0.64869 0.24865 0.27585 0.0
C1755 C 0.652 0.2285 0.23595 0.0
C1756 C 0.67671 0.26857 0.25019 0.0
C1757 C 0.67288 0.28736 0.23993 0.0
C1758 C 0.69137 0.30512 0.23693 0.0
C1759 C 0.7143 0.30387 0.24456 0.0
C1760 C 0.71929 0.2851 0.25547 0.0
C1761 C 0.6999 0.26714 0.25834 0.0
H1762 H 0.54271 0.87757 0.93731 0.0
H1763 H 0.58344 0.90831 0.88585 0.0
H1764 H 0.586 0.94691 0.90693 0.0
H1765 H 0.50955 0.92154 0.94412 0.0
H1766 H 0.50888 0.92091 0.97514 0.0
H1767 H 0.51069 0.8955 0.95652 0.0
H1768 H 0.54801 0.89332 0.98274 0.0
H1769 H 0.54632 0.91874 0.00143 0.0
H1770 H 0.57244 0.91786 0.98828 0.0
H1771 H 0.58467 0.98245 0.93371 0.0
H1772 H 0.57809 0.0124 0.96305 0.0
H1773 H 0.53685 0.9598 0.99722 0.0
C1774 C 0.55225 0.89243 0.93055 0.0
C1775 C 0.563 0.88973 0.90985 0.0
C1776 C 0.57507 0.90975 0.90157 0.0
C1777 C 0.57666 0.93183 0.91349 0.0
C1778 C 0.5659 0.93391 0.93373 0.0
C1779 C 0.55377 0.91478 0.94215 0.0
C1780 C 0.54325 0.92205 0.96397 0.0
C1781 C 0.5165 0.91455 0.95968 0.0
C1782 C 0.5531 0.91242 0.98538 0.0
C1783 C 0.55151 0.94817 0.96656 0.0
C1784 C 0.56464 0.95455 0.94893 0.0
C1785 C 0.57436 0.9776 0.94754 0.0
C1786 C 0.57052 0.99458 0.96443 0.0
C1787 C 0.55691 0.98872 0.98267 0.0
C1788 C 0.54732 0.96503 0.98362 0.0
H1789 H 0.97022 0.78028 0.75414 0.0
H1790 H 0.94462 0.72706 0.69462 0.0
H1791 H 0.90438 0.72558 0.70242 0.0
H1792 H 0.92603 0.75797 0.79182 0.0
H1793 H 0.92281 0.78594 0.8036 0.0
H1794 H 0.95013 0.78263 0.79428 0.0
H1795 H 0.94842 0.81338 0.76661 0.0
H1796 H 0.92108 0.81675 0.77582 0.0
H1797 H 0.92317 0.80979 0.74512 0.0
H1798 H 0.86614 0.72985 0.71559 0.0
H1799 H 0.83289 0.73974 0.73299 0.0
H1800 H 0.88058 0.79088 0.78455 0.0
C1801 C 0.95616 0.76813 0.74292 0.0
C1802 C 0.96111 0.75361 0.72368 0.0
C1803 C 0.94181 0.73833 0.70942 0.0
C1804 C 0.91865 0.73734 0.71374 0.0
C1805 C 0.91436 0.75184 0.73248 0.0
C1806 C 0.93251 0.76701 0.74692 0.0
C1807 C 0.92253 0.78103 0.7655 0.0
C1808 C 0.93088 0.77663 0.79027 0.0
C1809 C 0.9292 0.80677 0.76312 0.0
C1810 C 0.89611 0.77137 0.75917 0.0
C1811 C 0.89199 0.75449 0.74004 0.0
C1812 C 0.86927 0.74303 0.73061 0.0
C1813 C 0.8503 0.74885 0.74073 0.0
C1814 C 0.85355 0.76614 0.76037 0.0
C1815 C 0.8771 0.7775 0.76968 0.0
H1816 H 0.12523 0.07301 0.88302 0.0
H1817 H 0.07133 0.01979 0.84003 0.0
H1818 H 0.05376 0.00964 0.87541 0.0
H1819 H 0.13145 0.04264 0.93305 0.0
H1820 H 0.13507 0.06746 0.95475 0.0
H1821 H 0.14385 0.0709 0.92617 0.0
H1822 H 0.1174 0.09942 0.92049 0.0
H1823 H 0.10868 0.09618 0.94913 0.0
H1824 H 0.08694 0.09077 0.92374 0.0
H1825 H 0.04267 0.00386 0.91514 0.0
H1826 H 0.03627 0.00491 0.95642 0.0
H1827 H 0.09571 0.06309 0.97546 0.0
C1828 C 0.10965 0.05931 0.88107 0.0
C1829 C 0.09971 0.04718 0.85852 0.0
C1830 C 0.07929 0.02941 0.85689 0.0
C1831 C 0.0692 0.02344 0.87698 0.0
C1832 C 0.07947 0.03549 0.89884 0.0
C1833 C 0.09906 0.05327 0.90109 0.0
C1834 C 0.1061 0.06367 0.92682 0.0
C1835 C 0.13057 0.06101 0.93572 0.0
C1836 C 0.1047 0.08902 0.93024 0.0
C1837 C 0.08751 0.04884 0.93862 0.0
C1838 C 0.07253 0.0326 0.922 0.0
C1839 C 0.05421 0.0166 0.92826 0.0
C1840 C 0.05079 0.01733 0.95196 0.0
C1841 C 0.0654 0.03408 0.96956 0.0
C1842 C 0.08416 0.05003 0.96263 0.0
H1843 H 0.82236 0.39756 0.58452 0.0
H1844 H 0.79658 0.34646 0.52321 0.0
H1845 H 0.80095 0.31567 0.54721 0.0
H1846 H 0.86456 0.36843 0.61198 0.0
H1847 H 0.85849 0.37697 0.64111 0.0
H1848 H 0.8557 0.39501 0.61853 0.0
H1849 H 0.81303 0.39389 0.62573 0.0
H1850 H 0.81569 0.3759 0.64829 0.0
H1851 H 0.79271 0.36649 0.624 0.0
H1852 H 0.80525 0.29043 0.57859 0.0
H1853 H 0.80769 0.27276 0.61528 0.0
H1854 H 0.83064 0.34066 0.65548 0.0
C1855 C 0.81798 0.37992 0.57607 0.0
C1856 C 0.80922 0.37432 0.55208 0.0
C1857 C 0.80338 0.35106 0.54164 0.0
C1858 C 0.8059 0.33349 0.55507 0.0
C1859 C 0.81436 0.33958 0.5788 0.0
C1860 C 0.82033 0.36224 0.58919 0.0
C1861 C 0.82738 0.36418 0.61529 0.0
C1862 C 0.85306 0.3769 0.62212 0.0
C1863 C 0.81123 0.37579 0.62913 0.0
C1864 C 0.82381 0.33903 0.61809 0.0
C1865 C 0.81664 0.32508 0.59684 0.0
C1866 C 0.81113 0.30116 0.59531 0.0
C1867 C 0.81262 0.2913 0.61615 0.0
C1868 C 0.81928 0.30542 0.63807 0.0
C1869 C 0.82538 0.32951 0.63891 0.0
H1870 H 0.44453 0.07282 0.39948 0.0
H1871 H 0.49356 0.06789 0.34956 0.0
H1872 H 0.52579 0.07617 0.38217 0.0
H1873 H 0.48601 0.11677 0.44643 0.0
H1874 H 0.47334 0.1021 0.46926 0.0
H1875 H 0.45552 0.10256 0.44218 0.0
H1876 H 0.44327 0.05804 0.43669 0.0
H1877 H 0.46116 0.05747 0.46346 0.0
H1878 H 0.46546 0.04176 0.43652 0.0
H1879 H 0.55101 0.07717 0.41978 0.0
H1880 H 0.56652 0.0697 0.45887 0.0
H1881 H 0.50053 0.07243 0.48379 0.0
C1882 C 0.46219 0.07449 0.39539 0.0
C1883 C 0.46667 0.06992 0.37211 0.0
C1884 C 0.48986 0.07152 0.36735 0.0
C1885 C 0.50827 0.07633 0.38575 0.0
C1886 C 0.50314 0.0796 0.40869 0.0
C1887 C 0.48063 0.07895 0.41354 0.0
C1888 C 0.47896 0.07914 0.43947 0.0
C1889 C 0.47312 0.10148 0.44995 0.0
C1890 C 0.46118 0.05783 0.44429 0.0
C1891 C 0.50363 0.07837 0.44821 0.0
C1892 C 0.51756 0.07943 0.43041 0.0
C1893 C 0.54043 0.07685 0.43397 0.0
C1894 C 0.54908 0.07255 0.45616 0.0
C1895 C 0.53461 0.07037 0.47415 0.0
C1896 C 0.51192 0.074 0.47026 0.0
H1897 H 0.8058 0.72894 0.11156 0.0
H1898 H 0.75016 0.75755 0.08156 0.0
H1899 H 0.74586 0.77478 0.12129 0.0
H1900 H 0.78186 0.71463 0.16328 0.0
H1901 H 0.80933 0.72257 0.18208 0.0
H1902 H 0.80848 0.71316 0.1513 0.0
H1903 H 0.83785 0.75086 0.14726 0.0
H1904 H 0.83891 0.76031 0.17808 0.0
H1905 H 0.83146 0.77813 0.15672 0.0
H1906 H 0.74585 0.78661 0.16542 0.0
H1907 H 0.75264 0.7948 0.20886 0.0
H1908 H 0.80968 0.76024 0.20956 0.0
C1909 C 0.79288 0.73907 0.1133 0.0
C1910 C 0.77833 0.7419 0.09332 0.0
C1911 C 0.76163 0.75524 0.09649 0.0
C1912 C 0.75899 0.76502 0.11905 0.0
C1913 C 0.77338 0.76161 0.13841 0.0
C1914 C 0.79026 0.74923 0.13567 0.0
C1915 C 0.8036 0.74815 0.15924 0.0
C1916 C 0.80063 0.72314 0.16427 0.0
C1917 C 0.82949 0.76008 0.16039 0.0
C1918 C 0.79144 0.76157 0.17572 0.0
C1919 C 0.77393 0.76907 0.16344 0.0
C1920 C 0.75972 0.78101 0.17512 0.0
C1921 C 0.76364 0.78553 0.19985 0.0
C1922 C 0.78182 0.77841 0.21277 0.0
C1923 C 0.79583 0.76626 0.20033 0.0
H1924 H 0.10596 0.02843 0.71125 0.0
H1925 H 0.08584 0.08944 0.74099 0.0
H1926 H 0.06896 0.09441 0.70151 0.0
H1927 H 0.1216 0.04838 0.65764 0.0
H1928 H 0.10985 0.02108 0.63963 0.0
H1929 H 0.12006 0.02202 0.67023 0.0
H1930 H 0.07988 0.99779 0.67639 0.0
H1931 H 0.06958 0.99672 0.64577 0.0
H1932 H 0.05391 0.00749 0.66791 0.0
H1933 H 0.05606 0.09403 0.65803 0.0
H1934 H 0.04589 0.08681 0.61491 0.0
H1935 H 0.07232 0.02489 0.61314 0.0
C1936 C 0.09786 0.04275 0.70948 0.0
C1937 C 0.09729 0.05857 0.7294 0.0
C1938 C 0.08647 0.07704 0.72617 0.0
C1939 C 0.07686 0.08004 0.70373 0.0
C1940 C 0.07786 0.06429 0.68447 0.0
C1941 C 0.08784 0.04583 0.68715 0.0
C1942 C 0.08645 0.03128 0.66355 0.0
C1943 C 0.11095 0.03066 0.6574 0.0
C1944 C 0.07157 0.00687 0.6634 0.0
C1945 C 0.07441 0.04458 0.64717 0.0
C1946 C 0.06973 0.06365 0.6596 0.0
C1947 C 0.05946 0.07901 0.64821 0.0
C1948 C 0.05378 0.07479 0.62361 0.0
C1949 C 0.05807 0.0552 0.61042 0.0
C1950 C 0.06849 0.0399 0.62258 0.0
H1951 H 0.81004 0.37399 0.44912 0.0
H1952 H 0.74724 0.39935 0.43761 0.0
H1953 H 0.73572 0.37352 0.39985 0.0
H1954 H 0.8225 0.36991 0.3911 0.0
H1955 H 0.83276 0.3439 0.39217 0.0
H1956 H 0.83504 0.36342 0.4186 0.0
H1957 H 0.81201 0.33027 0.43811 0.0
H1958 H 0.80943 0.31067 0.41158 0.0
H1959 H 0.78366 0.31432 0.42413 0.0
H1960 H 0.73333 0.34794 0.36202 0.0
H1961 H 0.74006 0.32442 0.32675 0.0
H1962 H 0.80307 0.31387 0.36449 0.0
C1963 C 0.79383 0.37409 0.43867 0.0
C1964 C 0.77957 0.38873 0.44605 0.0
C1965 C 0.75839 0.38826 0.43211 0.0
C1966 C 0.75169 0.3736 0.41078 0.0
C1967 C 0.76618 0.35931 0.40404 0.0
C1968 C 0.78673 0.35935 0.41766 0.0
C1969 C 0.79962 0.34296 0.4062 0.0
C1970 C 0.8239 0.35582 0.40175 0.0
C1971 C 0.80127 0.3234 0.42088 0.0
C1972 C 0.78351 0.33421 0.38355 0.0
C1973 C 0.76423 0.34374 0.3827 0.0
C1974 C 0.74804 0.33998 0.36265 0.0
C1975 C 0.752 0.32664 0.34277 0.0
C1976 C 0.77183 0.31711 0.34323 0.0
C1977 C 0.7874 0.3204 0.36403 0.0
H1978 H 0.44697 0.04981 0.25117 0.0
H1979 H 0.39335 0.9872 0.2479 0.0
H1980 H 0.40197 0.97396 0.20848 0.0
H1981 H 0.43738 0.05657 0.18877 0.0
H1982 H 0.46804 0.06711 0.18753 0.0
H1983 H 0.45614 0.07236 0.21451 0.0
H1984 H 0.48602 0.05343 0.23612 0.0
H1985 H 0.49792 0.04805 0.20924 0.0
H1986 H 0.48749 0.0246 0.22525 0.0
H1987 H 0.41904 0.96615 0.17106 0.0
H1988 H 0.44233 0.96523 0.13788 0.0
H1989 H 0.48406 0.0332 0.16605 0.0
C1990 C 0.4368 0.03348 0.24201 0.0
C1991 C 0.41951 0.01953 0.25246 0.0
C1992 C 0.40663 0.99819 0.24006 0.0
C1993 C 0.41138 0.99054 0.2177 0.0
C1994 C 0.42887 0.00457 0.20803 0.0
C1995 C 0.44122 0.02568 0.21971 0.0
C1996 C 0.45985 0.03704 0.20605 0.0
C1997 C 0.45505 0.0596 0.19878 0.0
C1998 C 0.48425 0.041 0.22 0.0
C1999 C 0.45643 0.0188 0.18509 0.0
C2000 C 0.43844 0.00022 0.18644 0.0
C2001 C 0.43297 0.98074 0.16965 0.0
C2002 C 0.44631 0.9803 0.151 0.0
C2003 C 0.46476 0.99925 0.14939 0.0
C2004 C 0.4697 0.01871 0.1666 0.0
H2005 H 0.7854 0.7566 0.96445 0.0
H2006 H 0.77643 0.68306 0.94546 0.0
H2007 H 0.78232 0.68898 0.90493 0.0
H2008 H 0.75436 0.76548 0.90965 0.0
H2009 H 0.77319 0.79305 0.90813 0.0
H2010 H 0.76909 0.78351 0.93621 0.0
H2011 H 0.81369 0.78924 0.94623 0.0
H2012 H 0.81791 0.79866 0.9181 0.0
H2013 H 0.82947 0.77498 0.92663 0.0
H2014 H 0.78984 0.70211 0.86665 0.0
H2015 H 0.79504 0.72145 0.83167 0.0
H2016 H 0.79723 0.78691 0.87287 0.0
C2017 C 0.7847 0.74179 0.95173 0.0
C2018 C 0.78048 0.7193 0.95836 0.0
C2019 C 0.77954 0.70042 0.94102 0.0
C2020 C 0.78298 0.7036 0.91786 0.0
C2021 C 0.78715 0.72582 0.91189 0.0
C2022 C 0.78775 0.74463 0.92814 0.0
C2023 C 0.79165 0.76651 0.91644 0.0
C2024 C 0.77083 0.7778 0.91768 0.0
C2025 C 0.81454 0.78335 0.92752 0.0
C2026 C 0.79318 0.75696 0.89122 0.0
C2027 C 0.79075 0.73343 0.88922 0.0
C2028 C 0.7916 0.72052 0.86797 0.0
C2029 C 0.79456 0.73175 0.84808 0.0
C2030 C 0.7964 0.75578 0.84918 0.0
C2031 C 0.79598 0.76857 0.87128 0.0
H2032 H 0.83674 0.10367 0.05716 0.0
H2033 H 0.81117 0.11822 0.98875 0.0
H2034 H 0.83057 0.08982 0.96981 0.0
H2035 H 0.89163 0.09937 0.04516 0.0
H2036 H 0.89329 0.07635 0.06235 0.0
H2037 H 0.87546 0.09599 0.06982 0.0
H2038 H 0.83966 0.06165 0.06681 0.0
H2039 H 0.85743 0.04188 0.05909 0.0
H2040 H 0.8313 0.04173 0.0401 0.0
H2041 H 0.85648 0.06282 0.95899 0.0
H2042 H 0.88736 0.0409 0.95752 0.0
H2043 H 0.89353 0.04317 0.03311 0.0
C2044 C 0.83505 0.10076 0.03818 0.0
C2045 C 0.82265 0.11313 0.02436 0.0
C2046 C 0.82068 0.10883 0.99959 0.0
C2047 C 0.83149 0.09268 0.98873 0.0
C2048 C 0.84373 0.08079 0.00295 0.0
C2049 C 0.84539 0.08458 0.02715 0.0
C2050 C 0.8606 0.07077 0.03868 0.0
C2051 C 0.88148 0.08656 0.05494 0.0
C2052 C 0.84639 0.05295 0.05195 0.0
C2053 C 0.86815 0.05933 0.01726 0.0
C2054 C 0.85805 0.06497 0.99673 0.0
C2055 C 0.86415 0.05793 0.9749 0.0
C2056 C 0.88157 0.04543 0.97419 0.0
C2057 C 0.89265 0.04044 0.99521 0.0
C2058 C 0.88521 0.04676 0.0168 0.0
H2059 H 0.39213 0.41146 0.05396 0.0
H2060 H 0.34444 0.45546 0.04056 0.0
H2061 H 0.37762 0.48766 0.03881 0.0
H2062 H 0.43802 0.45568 0.09049 0.0
H2063 H 0.46143 0.44528 0.07885 0.0
H2064 H 0.434 0.42558 0.07988 0.0
H2065 H 0.43074 0.41258 0.03524 0.0
H2066 H 0.45813 0.43225 0.0341 0.0
H2067 H 0.43247 0.43378 0.0153 0.0
H2068 H 0.41537 0.51481 0.03704 0.0
H2069 H 0.45575 0.53559 0.0358 0.0
H2070 H 0.48007 0.47483 0.05063 0.0
C2071 C 0.38873 0.42793 0.05084 0.0
C2072 C 0.36561 0.4309 0.04744 0.0
C2073 C 0.36192 0.4527 0.04325 0.0
C2074 C 0.38068 0.47116 0.04223 0.0
C2075 C 0.40318 0.46767 0.04548 0.0
C2076 C 0.40738 0.44667 0.04976 0.0
C2077 C 0.43337 0.44763 0.05215 0.0
C2078 C 0.44223 0.44329 0.07681 0.0
C2079 C 0.439 0.43055 0.03306 0.0
C2080 C 0.443 0.47236 0.04834 0.0
C2081 C 0.4252 0.48354 0.04456 0.0
C2082 C 0.42949 0.50628 0.04009 0.0
C2083 C 0.45255 0.51794 0.03938 0.0
C2084 C 0.47123 0.50696 0.04316 0.0
C2085 C 0.46627 0.48383 0.04783 0.0
H2086 H 0.42407 0.5952 0.79761 0.0
H2087 H 0.38017 0.5431 0.74418 0.0
H2088 H 0.35178 0.56734 0.74027 0.0
H2089 H 0.37756 0.61154 0.82539 0.0
H2090 H 0.39149 0.64173 0.83121 0.0
H2091 H 0.40891 0.62068 0.82945 0.0
H2092 H 0.42978 0.64042 0.79729 0.0
H2093 H 0.41238 0.66152 0.79893 0.0
H2094 H 0.41272 0.64476 0.77123 0.0
H2095 H 0.32765 0.59654 0.74249 0.0
H2096 H 0.30906 0.62887 0.75092 0.0
H2097 H 0.36792 0.66255 0.80317 0.0
C2098 C 0.40853 0.58897 0.78502 0.0
C2099 C 0.4044 0.5672 0.77116 0.0
C2100 C 0.38379 0.55966 0.75497 0.0
C2101 C 0.36753 0.57334 0.75259 0.0
C2102 C 0.37205 0.59462 0.7665 0.0
C2103 C 0.39202 0.60247 0.7824 0.0
C2104 C 0.39231 0.6259 0.79546 0.0
C2105 C 0.39258 0.62489 0.82195 0.0
C2106 C 0.41303 0.64423 0.79042 0.0
C2107 C 0.3693 0.62984 0.78454 0.0
C2108 C 0.35799 0.61156 0.76783 0.0
C2109 C 0.33634 0.61094 0.75556 0.0
C2110 C 0.32584 0.62936 0.76059 0.0
C2111 C 0.33688 0.64827 0.77782 0.0
C2112 C 0.35907 0.6485 0.78976 0.0
H2113 H 0.22216 0.62978 0.51953 0.0
H2114 H 0.25015 0.61651 0.58768 0.0
H2115 H 0.21235 0.59063 0.59093 0.0
H2116 H 0.16696 0.63286 0.53404 0.0
H2117 H 0.15132 0.61911 0.50594 0.0
H2118 H 0.18117 0.63469 0.50796 0.0
H2119 H 0.19195 0.59844 0.48788 0.0
H2120 H 0.16206 0.58277 0.48578 0.0
H2121 H 0.185 0.57183 0.50013 0.0
H2122 H 0.17069 0.56867 0.58804 0.0
H2123 H 0.12827 0.55251 0.57942 0.0
H2124 H 0.12776 0.58027 0.5131 0.0
C2125 C 0.22046 0.62114 0.53497 0.0
C2126 C 0.23907 0.62504 0.55332 0.0
C2127 C 0.2361 0.61367 0.57338 0.0
C2128 C 0.21473 0.59891 0.57535 0.0
C2129 C 0.1966 0.59568 0.55707 0.0
C2130 C 0.19927 0.60641 0.53722 0.0
C2131 C 0.1767 0.60115 0.52071 0.0
C2132 C 0.16856 0.62327 0.51696 0.0
C2133 C 0.17908 0.58774 0.49724 0.0
C2134 C 0.16078 0.58621 0.53463 0.0
C2135 C 0.17261 0.58307 0.55543 0.0
C2136 C 0.16128 0.5708 0.57168 0.0
C2137 C 0.13717 0.56172 0.56663 0.0
C2138 C 0.12465 0.56506 0.54555 0.0
C2139 C 0.13679 0.57721 0.52927 0.0
H2140 H 0.76974 0.01251 0.77275 0.0
H2141 H 0.72001 0.97082 0.71595 0.0
H2142 H 0.7461 0.94423 0.71099 0.0
H2143 H 0.82482 0.00062 0.75065 0.0
H2144 H 0.83741 0.99928 0.78006 0.0
H2145 H 0.81807 0.01815 0.77511 0.0
H2146 H 0.79187 0.99897 0.80409 0.0
H2147 H 0.81103 0.98015 0.80908 0.0
H2148 H 0.7805 0.96826 0.79925 0.0
H2149 H 0.77338 0.91902 0.71674 0.0
H2150 H 0.79749 0.89547 0.73474 0.0
H2151 H 0.82972 0.95291 0.78849 0.0
C2152 C 0.7648 0.99825 0.7587 0.0
C2153 C 0.74309 0.99377 0.74452 0.0
C2154 C 0.73671 0.97455 0.72686 0.0
C2155 C 0.7515 0.9595 0.7238 0.0
C2156 C 0.77255 0.96396 0.73858 0.0
C2157 C 0.7792 0.98288 0.75572 0.0
C2158 C 0.80057 0.98173 0.77186 0.0
C2159 C 0.82146 0.0011 0.76925 0.0
C2160 C 0.79568 0.98229 0.79757 0.0
C2161 C 0.80403 0.95853 0.76204 0.0
C2162 C 0.78819 0.94893 0.74236 0.0
C2163 C 0.78628 0.92657 0.73175 0.0
C2164 C 0.80019 0.91334 0.74207 0.0
C2165 C 0.81565 0.92242 0.76296 0.0
C2166 C 0.81819 0.9456 0.77244 0.0
H2167 H 0.76896 0.94011 0.56163 0.0
H2168 H 0.7303 0.87776 0.51743 0.0
H2169 H 0.69717 0.89594 0.50976 0.0
H2170 H 0.71926 0.95481 0.58694 0.0
H2171 H 0.73 0.98526 0.58699 0.0
H2172 H 0.75019 0.96694 0.58989 0.0
H2173 H 0.76874 0.98159 0.55408 0.0
H2174 H 0.74861 -9e-05 0.55104 0.0
H2175 H 0.7505 0.97938 0.5266 0.0
H2176 H 0.66897 0.92157 0.50545 0.0
H2177 H 0.64752 0.95246 0.50529 0.0
H2178 H 0.70455 0.99822 0.55224 0.0
C2179 C 0.75342 0.93019 0.55053 0.0
C2180 C 0.75218 0.90747 0.54017 0.0
C2181 C 0.73162 0.89514 0.52561 0.0
C2182 C 0.71271 0.90533 0.52116 0.0
C2183 C 0.71459 0.92784 0.53145 0.0
C2184 C 0.73439 0.94009 0.54592 0.0
C2185 C 0.73221 0.96423 0.5543 0.0
C2186 C 0.73296 0.96802 0.58112 0.0
C2187 C 0.75114 0.98234 0.546 0.0
C2188 C 0.70822 0.96376 0.54204 0.0
C2189 C 0.69834 0.94259 0.529 0.0
C2190 C 0.67652 0.93819 0.51566 0.0
C2191 C 0.66453 0.9559 0.51556 0.0
C2192 C 0.67433 0.97781 0.52871 0.0
C2193 C 0.69644 0.98162 0.54224 0.0
H2194 H 0.38403 0.46172 0.79275 0.0
H2195 H 0.43331 0.44214 0.74854 0.0
H2196 H 0.4102 0.40215 0.74203 0.0
H2197 H 0.3749 0.41015 0.82069 0.0
H2198 H 0.34435 0.40835 0.82218 0.0
H2199 H 0.36392 0.4359 0.82249 0.0
H2200 H 0.33808 0.44351 0.78668 0.0
H2201 H 0.3185 0.41589 0.78618 0.0
H2202 H 0.33153 0.42307 0.76033 0.0
H2203 H 0.38207 0.36479 0.73951 0.0
H2204 H 0.3528 0.33064 0.74447 0.0
H2205 H 0.32205 0.37226 0.79266 0.0
C2206 C 0.38983 0.44899 0.78162 0.0
C2207 C 0.41045 0.45512 0.771 0.0
C2208 C 0.41764 0.43791 0.75683 0.0
C2209 C 0.40454 0.41514 0.75293 0.0
C2210 C 0.38434 0.40965 0.76352 0.0
C2211 C 0.37709 0.42591 0.77784 0.0
C2212 C 0.3553 0.41485 0.78802 0.0
C2213 C 0.3599 0.41747 0.81494 0.0
C2214 C 0.33463 0.42494 0.77981 0.0
C2215 C 0.3516 0.38986 0.77726 0.0
C2216 C 0.36844 0.38751 0.76292 0.0
C2217 C 0.36891 0.36638 0.75085 0.0
C2218 C 0.35215 0.34698 0.7539 0.0
C2219 C 0.33518 0.34849 0.76925 0.0
C2220 C 0.33469 0.37043 0.78077 0.0
H2221 H 0.20052 0.62568 0.26765 0.0
H2222 H 0.24524 0.5982 0.22298 0.0
H2223 H 0.26967 0.6375 0.22402 0.0
H2224 H 0.20211 0.6777 0.24173 0.0
H2225 H 0.20191 0.69469 0.26934 0.0
H2226 H 0.18818 0.66448 0.26474 0.0
H2227 H 0.21359 0.65867 0.30188 0.0
H2228 H 0.22745 0.68885 0.30653 0.0
H2229 H 0.24487 0.66781 0.30416 0.0
H2230 H 0.29004 0.67997 0.23174 0.0
H2231 H 0.30307 0.72212 0.24332 0.0
H2232 H 0.24362 0.72065 0.2816 0.0
C2233 C 0.21542 0.62791 0.25802 0.0
C2234 C 0.22112 0.60903 0.2453 0.0
C2235 C 0.24063 0.61257 0.2328 0.0
C2236 C 0.25459 0.63476 0.23334 0.0
C2237 C 0.24857 0.65305 0.24628 0.0
C2238 C 0.2293 0.64982 0.2582 0.0
C2239 C 0.22635 0.67215 0.27069 0.0
C2240 C 0.20327 0.67757 0.26103 0.0
C2241 C 0.22819 0.67184 0.29739 0.0
C2242 C 0.24704 0.68852 0.26407 0.0
C2243 C 0.2598 0.67728 0.25013 0.0
C2244 C 0.28008 0.68898 0.2425 0.0
C2245 C 0.28738 0.71284 0.24921 0.0
C2246 C 0.27423 0.72459 0.26317 0.0
C2247 C 0.25387 0.71219 0.27065 0.0
H2248 H 0.49959 0.69416 0.46046 0.0
H2249 H 0.53442 0.74134 0.52214 0.0
H2250 H 0.54318 0.7087 0.54106 0.0
H2251 H 0.47349 0.64706 0.49197 0.0
H2252 H 0.47746 0.62479 0.47026 0.0
H2253 H 0.474 0.65192 0.4618 0.0
H2254 H 0.51283 0.65618 0.4441 0.0
H2255 H 0.51637 0.62926 0.45317 0.0
H2256 H 0.53894 0.65502 0.4624 0.0
H2257 H 0.55022 0.67049 0.55317 0.0
H2258 H 0.55251 0.63081 0.55835 0.0
H2259 H 0.51102 0.60597 0.49058 0.0
C2260 C 0.50898 0.69768 0.47801 0.0
C2261 C 0.51621 0.72092 0.48962 0.0
C2262 C 0.52849 0.72417 0.51262 0.0
C2263 C 0.53365 0.70553 0.52359 0.0
C2264 C 0.52639 0.68306 0.51173 0.0
C2265 C 0.51413 0.679 0.48946 0.0
C2266 C 0.5082 0.653 0.48081 0.0
C2267 C 0.4817 0.64363 0.47593 0.0
C2268 C 0.51977 0.64808 0.45881 0.0
C2269 C 0.51884 0.64306 0.50167 0.0
C2270 C 0.52955 0.66091 0.51915 0.0
C2271 C 0.54162 0.6565 0.53962 0.0
C2272 C 0.54286 0.63365 0.54242 0.0
C2273 C 0.53182 0.61463 0.52521 0.0
C2274 C 0.51944 0.61971 0.50447 0.0
H2275 H 0.66042 0.29829 0.64648 0.0
H2276 H 0.62504 0.33527 0.69408 0.0
H2277 H 0.65615 0.3368 0.72632 0.0
H2278 H 0.67866 0.26332 0.6884 0.0
H2279 H 0.70651 0.26355 0.6784 0.0
H2280 H 0.68239 0.26655 0.65829 0.0
H2281 H 0.70717 0.30461 0.64859 0.0
H2282 H 0.73137 0.3017 0.66867 0.0
H2283 H 0.72044 0.32742 0.67205 0.0
H2284 H 0.69072 0.33426 0.75392 0.0
H2285 H 0.72535 0.32614 0.77551 0.0
H2286 H 0.73877 0.2889 0.7117 0.0
C2287 C 0.65943 0.30697 0.66363 0.0
C2288 C 0.64021 0.3169 0.66756 0.0
C2289 C 0.63946 0.32763 0.69045 0.0
C2290 C 0.65714 0.32862 0.70896 0.0
C2291 C 0.67564 0.31855 0.70465 0.0
C2292 C 0.67693 0.30779 0.68261 0.0
C2293 C 0.6983 0.29739 0.6833 0.0
C2294 C 0.69103 0.27114 0.6767 0.0
C2295 C 0.71533 0.30844 0.66719 0.0
C2296 C 0.70867 0.30395 0.7091 0.0
C2297 C 0.69535 0.31637 0.72094 0.0
C2298 C 0.70125 0.32453 0.7448 0.0
C2299 C 0.72111 0.31983 0.75697 0.0
C2300 C 0.73505 0.30682 0.74555 0.0
C2301 C 0.7286 0.29884 0.72113 0.0
H2302 H 0.04258 0.36127 0.96471 0.0
H2303 H 0.98444 0.33515 0.00169 0.0
H2304 H 0.9827 0.37495 0.01567 0.0
H2305 H 0.07007 0.41083 0.00953 0.0
H2306 H 0.0793 0.42988 0.98855 0.0
H2307 H 0.07635 0.39937 0.98142 0.0
H2308 H 0.04823 0.39907 0.94409 0.0
H2309 H 0.05106 0.42957 0.95112 0.0
H2310 H 0.02262 0.41028 0.9466 0.0
H2311 H 0.9862 0.41827 0.02498 0.0
H2312 H 0.99558 0.46063 0.03016 0.0
H2313 H 0.05246 0.46064 0.98854 0.0
C2314 C 0.02955 0.36389 0.97588 0.0
C2315 C 0.0136 0.34454 0.98201 0.0
C2316 C 0.99693 0.34921 0.99666 0.0
C2317 C 0.99577 0.37197 0.00471 0.0
C2318 C 1.01152 0.39049 0.99828 0.0
C2319 C 0.02828 0.38675 0.98434 0.0
C2320 C 0.0432 0.40994 0.98022 0.0
C2321 C 0.06875 0.41266 0.99054 0.0
C2322 C 0.04115 0.41235 0.95394 0.0
C2323 C 0.03208 0.42721 0.99377 0.0
C2324 C 0.01379 0.4155 0.00399 0.0
C2325 C 1.00057 0.42748 0.01708 0.0
C2326 C 1.00608 0.4518 0.01991 0.0
C2327 C 0.02483 0.4646 0.00988 0.0
C2328 C 0.038 0.45178 0.99659 0.0
H2329 H 0.9976 0.77826 0.13962 0.0
H2330 H 0.05216 0.82456 0.18898 0.0
H2331 H 0.02506 0.82407 0.21864 0.0
H2332 H 0.94958 0.80199 0.15709 0.0
H2333 H 0.9292 0.77448 0.15392 0.0
H2334 H 0.95266 0.77867 0.13619 0.0
H2335 H 0.96627 0.74408 0.15112 0.0
H2336 H 0.94287 0.73981 0.16892 0.0
H2337 H 0.97255 0.74374 0.18224 0.0
H2338 H 0.99223 0.81889 0.24315 0.0
H2339 H 0.95618 0.80859 0.26125 0.0
H2340 H 0.9222 0.7649 0.19693 0.0
C2341 C 1.00379 0.78836 0.15664 0.0
C2342 C 0.02711 0.80155 0.16187 0.0
C2343 C 0.03449 0.81435 0.18446 0.0
C2344 C 0.01917 0.8142 0.20147 0.0
C2345 C 0.99641 0.80104 0.19584 0.0
C2346 C 0.98869 0.78827 0.17402 0.0
C2347 C 0.96338 0.77529 0.1728 0.0
C2348 C 0.94778 0.78308 0.15388 0.0
C2349 C 0.96114 0.74918 0.16852 0.0
C2350 C 0.95813 0.7828 0.1973 0.0
C2351 C 0.97745 0.79775 0.2102 0.0
C2352 C 0.97698 0.80723 0.23318 0.0
C2353 C 0.9563 0.80136 0.24329 0.0
C2354 C 0.93614 0.78602 0.2306 0.0
C2355 C 0.93725 0.77656 0.20724 0.0
H2356 H 0.53477 0.33674 0.17428 0.0
H2357 H 0.52429 0.2797 0.11842 0.0
H2358 H 0.52775 0.30674 0.08925 0.0
H2359 H 0.50271 0.37156 0.14172 0.0
H2360 H 0.52255 0.3985 0.1537 0.0
H2361 H 0.51869 0.37477 0.1706 0.0
H2362 H 0.5631 0.37736 0.17494 0.0
H2363 H 0.56709 0.4011 0.15807 0.0
H2364 H 0.57752 0.37594 0.14902 0.0
H2365 H 0.53298 0.33938 0.06589 0.0
H2366 H 0.54001 0.37602 0.04955 0.0
H2367 H 0.54758 0.41324 0.11961 0.0
C2368 C 0.53307 0.32998 0.15589 0.0
C2369 C 0.5292 0.30596 0.14872 0.0
C2370 C 0.52724 0.2979 0.12447 0.0
C2371 C 0.52915 0.31317 0.10769 0.0
C2372 C 0.53305 0.33662 0.11525 0.0
C2373 C 0.53499 0.34511 0.13874 0.0
C2374 C 0.53963 0.37128 0.14191 0.0
C2375 C 0.5197 0.37951 0.15262 0.0
C2376 C 0.56324 0.38205 0.15687 0.0
C2377 C 0.5401 0.37607 0.11658 0.0
C2378 C 0.53621 0.35573 0.10159 0.0
C2379 C 0.5361 0.35543 0.07746 0.0
C2380 C 0.54027 0.37641 0.06834 0.0
C2381 C 0.5446 0.39767 0.0832 0.0
C2382 C 0.54423 0.39737 0.10771 0.0
H2383 H 0.97513 0.33929 0.3575 0.0
H2384 H 0.99156 0.28942 0.30585 0.0
H2385 H 0.95042 0.27926 0.2876 0.0
H2386 H 0.91763 0.30722 0.36407 0.0
H2387 H 0.90484 0.33182 0.36638 0.0
H2388 H 0.93551 0.3353 0.37557 0.0
H2389 H 0.94517 0.36577 0.34756 0.0
H2390 H 0.91451 0.36241 0.3383 0.0
H2391 H 0.93386 0.35861 0.31686 0.0
H2392 H 0.9065 0.27264 0.27609 0.0
H2393 H 0.86462 0.27222 0.27025 0.0
H2394 H 0.87552 0.32833 0.32702 0.0
C2395 C 0.97011 0.32628 0.34227 0.0
C2396 C 0.98697 0.31513 0.33325 0.0
C2397 C 0.97936 0.29831 0.3132 0.0
C2398 C 0.95586 0.29236 0.3027 0.0
C2399 C 0.93977 0.30354 0.31205 0.0
C2400 C 0.94662 0.32039 0.33123 0.0
C2401 C 0.92577 0.33003 0.33745 0.0
C2402 C 0.92064 0.32584 0.36235 0.0
C2403 C 0.93009 0.35574 0.33489 0.0
C2404 C 0.90608 0.31584 0.31898 0.0
C2405 C 0.91463 0.3005 0.30469 0.0
C2406 C 0.89981 0.2848 0.28706 0.0
C2407 C 0.87586 0.28466 0.28389 0.0
C2408 C 0.86641 0.30034 0.29789 0.0
C2409 C 0.88201 0.31632 0.31565 0.0
H2410 H 0.03732 0.70531 0.62904 0.0
H2411 H 0.01824 0.67269 0.68982 0.0
H2412 H 0.02003 0.63515 0.669 0.0
H2413 H 1.0056 0.65825 0.5845 0.0
H2414 H 0.02783 0.662 0.56528 0.0
H2415 H 0.02426 0.68627 0.58455 0.0
H2416 H 0.06761 0.69422 0.60219 0.0
H2417 H 0.0713 0.66996 0.58302 0.0
H2418 H 0.0786 0.67167 0.6143 0.0
H2419 H 0.02385 0.60082 0.64158 0.0
H2420 H 0.03059 0.57264 0.61038 0.0
H2421 H 0.04875 0.62698 0.56718 0.0
C2422 C 0.03334 0.69023 0.63789 0.0
C2423 C 0.02746 0.69207 0.66115 0.0
C2424 C 0.0227 0.67187 0.6721 0.0
C2425 C 0.02367 0.65039 0.66036 0.0
C2426 C 0.02962 0.64918 0.63759 0.0
C2427 C 0.03448 0.66857 0.62646 0.0
C2428 C 0.0411 0.66251 0.60215 0.0
C2429 C 0.02366 0.66756 0.58299 0.0
C2430 C 0.06614 0.67536 0.60031 0.0
C2431 C 0.0392 0.63674 0.60135 0.0
C2432 C 0.03241 0.62944 0.62197 0.0
C2433 C 0.02923 0.60641 0.62541 0.0
C2434 C 0.03312 0.59046 0.60746 0.0
C2435 C 0.04032 0.59737 0.58614 0.0
C2436 C 0.04338 0.62098 0.5832 0.0
H2437 H 0.61987 0.78406 0.83535 0.0
H2438 H 0.63437 0.85855 0.84426 0.0
H2439 H 0.67289 0.85991 0.83124 0.0
H2440 H 0.67887 0.78064 0.85666 0.0
H2441 H 0.67898 0.7558 0.83626 0.0
H2442 H 0.65191 0.76021 0.84532 0.0
H2443 H 0.6348 0.75799 0.80196 0.0
H2444 H 0.66181 0.75353 0.79278 0.0
H2445 H 0.65005 0.77685 0.78354 0.0
H2446 H 0.71081 0.85371 0.81748 0.0
H2447 H 0.74477 0.8405 0.80497 0.0
H2448 H 0.70806 0.76977 0.80532 0.0
C2449 C 0.63104 0.80066 0.83432 0.0
C2450 C 0.62354 0.82128 0.84079 0.0
C2451 C 0.63923 0.84249 0.83945 0.0
C2452 C 0.66135 0.84345 0.83201 0.0
C2453 C 0.66825 0.82303 0.82597 0.0
C2454 C 0.65362 0.80196 0.8271 0.0
C2455 C 0.66591 0.78269 0.82025 0.0
C2456 C 0.6691 0.76902 0.84085 0.0
C2457 C 0.65233 0.76682 0.79833 0.0
C2458 C 0.68954 0.79619 0.81499 0.0
C2459 C 0.69038 0.81946 0.8184 0.0
C2460 C 0.71022 0.83549 0.81479 0.0
C2461 C 0.72961 0.82775 0.8076 0.0
C2462 C 0.72961 0.804 0.80396 0.0
C2463 C 0.70899 0.78806 0.8078 0.0
H2464 H 0.49651 0.55946 0.7138 0.0
H2465 H 0.46037 0.48741 0.70183 0.0
H2466 H 0.4688 0.4849 0.66102 0.0
H2467 H 0.479 0.57353 0.6564 0.0
H2468 H 0.50675 0.59187 0.6537 0.0
H2469 H 0.49797 0.58864 0.68231 0.0
H2470 H 0.53576 0.57584 0.69504 0.0
H2471 H 0.54471 0.57915 0.6665 0.0
H2472 H 0.54277 0.55208 0.67774 0.0
H2473 H 0.47907 0.48993 0.62099 0.0
H2474 H 0.49399 0.50117 0.58485 0.0
H2475 H 0.52646 0.56949 0.6212 0.0
C2476 C 0.49049 0.54315 0.7026 0.0
C2477 C 0.47766 0.5236 0.71129 0.0
C2478 C 0.47025 0.50262 0.6959 0.0
C2479 C 0.47488 0.50102 0.67252 0.0
C2480 C 0.48734 0.52045 0.66447 0.0
C2481 C 0.4954 0.54108 0.67902 0.0
C2482 C 0.50903 0.55902 0.66566 0.0
C2483 C 0.4975 0.57948 0.66445 0.0
C2484 C 0.53458 0.56699 0.67691 0.0
C2485 C 0.50704 0.54528 0.64138 0.0
C2486 C 0.49421 0.52312 0.64123 0.0
C2487 C 0.48929 0.50719 0.62097 0.0
C2488 C 0.49783 0.51384 0.60037 0.0
C2489 C 0.51152 0.53625 0.59986 0.0
C2490 C 0.51615 0.5522 0.62084 0.0
H2491 H 0.80387 0.22108 0.01255 0.0
H2492 H 0.73121 0.18933 0.01497 0.0
H2493 H 0.71934 0.21643 0.98955 0.0
H2494 H 0.79657 0.28054 0.01159 0.0
H2495 H 0.81792 0.28672 0.9917 0.0
H2496 H 0.82058 0.26657 0.01218 0.0
H2497 H 0.82166 0.23542 0.97785 0.0
H2498 H 0.81916 0.25548 0.95736 0.0
H2499 H 0.79838 0.22818 0.95375 0.0
H2500 H 0.71563 0.24407 0.96068 0.0
H2501 H 0.72035 0.26884 0.92932 0.0
H2502 H 0.79546 0.28349 0.94722 0.0
C2503 C 0.78546 0.22001 0.00798 0.0
C2504 C 0.76843 0.20316 0.01565 0.0
C2505 C 0.74451 0.20218 0.00924 0.0
C2506 C 0.73762 0.21757 0.99496 0.0
C2507 C 0.75489 0.23392 0.98755 0.0
C2508 C 0.77832 0.23527 0.9939 0.0
C2509 C 0.79345 0.25322 0.98225 0.0
C2510 C 0.80798 0.27293 0.00053 0.0
C2511 C 0.80906 0.24242 0.96689 0.0
C2512 C 0.77487 0.26109 0.96756 0.0
C2513 C 0.75274 0.25006 0.97113 0.0
C2514 C 0.73285 0.25317 0.95806 0.0
C2515 C 0.7357 0.26738 0.94038 0.0
C2516 C 0.75827 0.27812 0.93591 0.0
C2517 C 0.77799 0.27549 0.95025 0.0
H2518 H 0.13492 0.51494 0.17278 0.0
H2519 H 0.11195 0.56635 0.21712 0.0
H2520 H 0.08082 0.56686 0.18542 0.0
H2521 H 0.1292 0.53941 0.12186 0.0
H2522 H 0.11948 0.51265 0.10251 0.0
H2523 H 0.13746 0.51383 0.12979 0.0
H2524 H 0.10627 0.48112 0.14168 0.0
H2525 H 0.08815 0.47988 0.11436 0.0
H2526 H 0.07674 0.48429 0.14178 0.0
H2527 H 0.05502 0.56466 0.14757 0.0
H2528 H 0.0379 0.5612 0.10613 0.0
H2529 H 0.07838 0.51155 0.08701 0.0
C2530 C 0.12301 0.52593 0.176 0.0
C2531 C 0.12567 0.5405 0.19735 0.0
C2532 C 0.11009 0.55498 0.20083 0.0
C2533 C 0.09231 0.5553 0.18301 0.0
C2534 C 0.09038 0.54097 0.16195 0.0
C2535 C 0.10533 0.52654 0.1584 0.0
C2536 C 0.10114 0.51453 0.13351 0.0
C2537 C 0.12312 0.52048 0.12121 0.0
C2538 C 0.09256 0.4884 0.1328 0.0
C2539 C 0.08206 0.52505 0.12338 0.0
C2540 C 0.07575 0.53993 0.1401 0.0
C2541 C 0.05954 0.55279 0.13438 0.0
C2542 C 0.04992 0.55071 0.11084 0.0
C2543 C 0.05684 0.53612 0.09341 0.0
C2544 C 0.07267 0.52278 0.09995 0.0
H2545 H 0.79793 0.86683 0.46146 0.0
H2546 H 0.83398 0.82032 0.49377 0.0
H2547 H 0.83665 0.80105 0.45437 0.0
H2548 H 0.76405 0.82528 0.41411 0.0
H2549 H 0.76606 0.84538 0.39301 0.0
H2550 H 0.76728 0.85547 0.4237 0.0
H2551 H 0.80675 0.88386 0.42259 0.0
H2552 H 0.80566 0.87383 0.39191 0.0
H2553 H 0.83053 0.87308 0.41229 0.0
H2554 H 0.83517 0.78668 0.41047 0.0
H2555 H 0.8292 0.77848 0.36707 0.0
H2556 H 0.79401 0.83446 0.36384 0.0
C2557 C 0.80642 0.8526 0.4603 0.0
C2558 C 0.81578 0.84514 0.48086 0.0
C2559 C 0.82667 0.82639 0.47839 0.0
C2560 C 0.82828 0.81534 0.45602 0.0
C2561 C 0.81888 0.82314 0.43612 0.0
C2562 C 0.80812 0.84135 0.43811 0.0
C2563 C 0.79924 0.84637 0.41408 0.0
C2564 C 0.77258 0.84291 0.41105 0.0
C2565 C 0.81127 0.87073 0.40998 0.0
C2566 C 0.80667 0.82819 0.39821 0.0
C2567 C 0.818 0.81494 0.41118 0.0
C2568 C 0.82632 0.79701 0.40021 0.0
C2569 C 0.82287 0.79248 0.37547 0.0
C2570 C 0.81117 0.80577 0.36177 0.0
C2571 C 0.80309 0.82391 0.37356 0.0
H2572 H 0.4661 0.50674 0.85894 0.0
H2573 H 0.51853 0.55987 0.83719 0.0
H2574 H 0.53987 0.56751 0.87741 0.0
H2575 H 0.46549 0.53474 0.91661 0.0
H2576 H 0.46213 0.50889 0.93033 0.0
H2577 H 0.45119 0.50735 0.89983 0.0
H2578 H 0.47559 0.47791 0.88874 0.0
H2579 H 0.48662 0.47937 0.91923 0.0
H2580 H 0.50658 0.48512 0.89794 0.0
H2581 H 0.554 0.57138 0.92108 0.0
H2582 H 0.56128 0.56934 0.9636 0.0
H2583 H 0.50158 0.51171 0.95698 0.0
C2584 C 0.48216 0.5199 0.86259 0.0
C2585 C 0.49058 0.53276 0.84475 0.0
C2586 C 0.51171 0.54975 0.85039 0.0
C2587 C 0.52394 0.55423 0.87326 0.0
C2588 C 0.51511 0.54137 0.89044 0.0
C2589 C 0.49483 0.52434 0.8853 0.0
C2590 C 0.48917 0.51291 0.90697 0.0
C2591 C 0.4656 0.51617 0.91383 0.0
C2592 C 0.48952 0.48731 0.90297 0.0
C2593 C 0.50925 0.52634 0.92519 0.0
C2594 C 0.5239 0.54282 0.91528 0.0
C2595 C 0.54283 0.55829 0.92885 0.0
C2596 C 0.54684 0.557 0.95306 0.0
C2597 C 0.53233 0.54011 0.96365 0.0
C2598 C 0.51338 0.52443 0.94935 0.0
H2599 H 0.81029 0.17866 0.14258 0.0
H2600 H 0.83707 0.23027 0.09921 0.0
H2601 H 0.84397 0.26032 0.13349 0.0
H2602 H 0.77771 0.20806 0.17025 0.0
H2603 H 0.78245 0.19909 0.19876 0.0
H2604 H 0.78547 0.18099 0.17304 0.0
H2605 H 0.82761 0.1809 0.19008 0.0
H2606 H 0.82458 0.1987 0.21621 0.0
H2607 H 0.84843 0.20781 0.19981 0.0
H2608 H 0.84009 0.2853 0.17003 0.0
H2609 H 0.82785 0.30246 0.20623 0.0
H2610 H 0.80343 0.23409 0.22486 0.0
C2611 C 0.81853 0.19614 0.14054 0.0
C2612 C 0.8232 0.2022 0.11837 0.0
C2613 C 0.83356 0.22529 0.11618 0.0
C2614 C 0.83754 0.24247 0.13554 0.0
C2615 C 0.83142 0.23613 0.15695 0.0
C2616 C 0.82259 0.2134 0.15965 0.0
C2617 C 0.81453 0.21127 0.18342 0.0
C2618 C 0.78851 0.19916 0.18121 0.0
C2619 C 0.8297 0.19895 0.19826 0.0
C2620 C 0.81877 0.23636 0.19305 0.0
C2621 C 0.82898 0.25051 0.17787 0.0
C2622 C 0.83258 0.27439 0.18232 0.0
C2623 C 0.82545 0.28398 0.20279 0.0
C2624 C 0.81452 0.26961 0.21821 0.0
C2625 C 0.81162 0.24558 0.21338 0.0
H2626 H 0.1726 0.55809 0.32985 0.0
H2627 H 0.11898 0.50407 0.2876 0.0
H2628 H 0.09323 0.50599 0.31843 0.0
H2629 H 0.15965 0.54156 0.38828 0.0
H2630 H 0.16562 0.57122 0.4012 0.0
H2631 H 0.18089 0.5629 0.37751 0.0
H2632 H 0.16714 0.59298 0.35406 0.0
H2633 H 0.15148 0.60108 0.3774 0.0
H2634 H 0.1364 0.5917 0.34812 0.0
H2635 H 0.07171 0.51746 0.35138 0.0
H2636 H 0.05715 0.53544 0.38557 0.0
H2637 H 0.12487 0.58232 0.40548 0.0
C2638 C 0.15572 0.54615 0.32739 0.0
C2639 C 0.14778 0.53085 0.30644 0.0
C2640 C 0.12544 0.51578 0.30366 0.0
C2641 C 0.1107 0.51679 0.32102 0.0
C2642 C 0.11871 0.53282 0.34106 0.0
C2643 C 0.14084 0.54698 0.34447 0.0
C2644 C 0.14469 0.5639 0.36663 0.0
C2645 C 0.16384 0.55963 0.38446 0.0
C2646 C 0.15024 0.58888 0.36121 0.0
C2647 C 0.12102 0.55754 0.37478 0.0
C2648 C 0.1063 0.53949 0.35992 0.0
C2649 C 0.08317 0.5314 0.3633 0.0
C2650 C 0.07499 0.54188 0.38257 0.0
C2651 C 0.08992 0.56025 0.39809 0.0
C2652 C 0.11319 0.56811 0.39405 0.0
H2653 H 0.8258 0.86811 0.63292 0.0
H2654 H 0.77014 0.81812 0.58834 0.0
H2655 H 0.75908 0.79952 0.62278 0.0
H2656 H 0.84199 0.82853 0.67141 0.0
H2657 H 0.8478 0.84914 0.6976 0.0
H2658 H 0.85151 0.85879 0.6695 0.0
H2659 H 0.82326 0.88548 0.67655 0.0
H2660 H 0.81959 0.87581 0.70463 0.0
H2661 H 0.79449 0.87344 0.68335 0.0
H2662 H 0.75334 0.78641 0.66184 0.0
H2663 H 0.7546 0.77817 0.70261 0.0
H2664 H 0.81426 0.83589 0.72325 0.0
C2665 C 0.81137 0.85317 0.63041 0.0
C2666 C 0.79888 0.8446 0.60773 0.0
C2667 C 0.78005 0.82505 0.60536 0.0
C2668 C 0.77356 0.81437 0.62489 0.0
C2669 C 0.78603 0.8233 0.64693 0.0
C2670 C 0.80463 0.84217 0.64987 0.0
C2671 C 0.81512 0.84803 0.67562 0.0
C2672 C 0.84062 0.84599 0.67871 0.0
C2673 C 0.81298 0.87212 0.68561 0.0
C2674 C 0.7996 0.82943 0.6866 0.0
C2675 C 0.78284 0.81551 0.66965 0.0
C2676 C 0.76643 0.79718 0.67524 0.0
C2677 C 0.76728 0.79267 0.69861 0.0
C2678 C 0.78452 0.80628 0.71644 0.0
C2679 C 0.8008 0.8251 0.71021 0.0
H2680 H 0.76238 0.48933 0.52953 0.0
H2681 H 0.73559 0.42719 0.55939 0.0
H2682 H 0.70814 0.4463 0.57862 0.0
H2683 H 0.75813 0.53008 0.57955 0.0
H2684 H 0.74938 0.54998 0.56127 0.0
H2685 H 0.76789 0.53189 0.55114 0.0
H2686 H 0.73839 0.51611 0.5136 0.0
H2687 H 0.7199 0.53424 0.52353 0.0
H2688 H 0.70842 0.50366 0.51639 0.0
H2689 H 0.68224 0.47147 0.59265 0.0
H2690 H 0.65852 0.50013 0.59879 0.0
H2691 H 0.70296 0.54589 0.56031 0.0
C2692 C 0.75084 0.47979 0.54024 0.0
C2693 C 0.75106 0.45683 0.54303 0.0
C2694 C 0.73565 0.44484 0.55707 0.0
C2695 C 0.72012 0.45556 0.56813 0.0
C2696 C 0.72036 0.47827 0.56504 0.0
C2697 C 0.7353 0.49022 0.55141 0.0
C2698 C 0.73132 0.51403 0.5499 0.0
C2699 C 0.75297 0.53259 0.56114 0.0
C2700 C 0.72407 0.51718 0.52434 0.0
C2701 C 0.71144 0.51344 0.56437 0.0
C2702 C 0.70553 0.49278 0.5732 0.0
C2703 C 0.68691 0.48784 0.58612 0.0
C2704 C 0.67365 0.50428 0.58966 0.0
C2705 C 0.67904 0.52527 0.58015 0.0
C2706 C 0.69848 0.53001 0.5678 0.0
H2707 H 0.19401 0.17003 0.52084 0.0
H2708 H 0.23649 0.11998 0.5129 0.0
H2709 H 0.20206 0.08868 0.51302 0.0
H2710 H 0.15819 0.14184 0.55986 0.0
H2711 H 0.13168 0.14845 0.54742 0.0
H2712 H 0.15942 0.16723 0.54561 0.0
H2713 H 0.14962 0.16295 0.50042 0.0
H2714 H 0.12182 0.1442 0.50216 0.0
H2715 H 0.14158 0.13463 0.48378 0.0
H2716 H 0.16394 0.06276 0.51642 0.0
H2717 H 0.12375 0.04368 0.52119 0.0
H2718 H 0.1049 0.10973 0.52581 0.0
C2719 C 0.19596 0.15247 0.51885 0.0
C2720 C 0.21802 0.14752 0.51683 0.0
C2721 C 0.21985 0.12428 0.51444 0.0
C2722 C 0.20036 0.10631 0.51449 0.0
C2723 C 0.17898 0.11171 0.51679 0.0
C2724 C 0.17653 0.13416 0.51874 0.0
C2725 C 0.15149 0.13505 0.52145 0.0
C2726 C 0.15013 0.14897 0.54499 0.0
C2727 C 0.14048 0.14478 0.50071 0.0
C2728 C 0.14047 0.10967 0.521 0.0
C2729 C 0.15669 0.09656 0.51832 0.0
C2730 C 0.151 0.0728 0.5183 0.0
C2731 C 0.12811 0.06212 0.5211 0.0
C2732 C 0.11106 0.07511 0.52374 0.0
C2733 C 0.11741 0.09923 0.52353 0.0
H2734 H 0.19404 0.01439 0.78109 0.0
H2735 H 0.13126 0.97505 0.80295 0.0
H2736 H 0.14854 0.94118 0.80265 0.0
H2737 H 0.20524 0.96772 0.74197 0.0
H2738 H 0.23643 0.97656 0.74948 0.0
H2739 H 0.21901 0.99763 0.75115 0.0
H2740 H 0.23653 0.0112 0.7946 0.0
H2741 H 0.25393 0.99012 0.7931 0.0
H2742 H 0.23461 0.99059 0.81518 0.0
H2743 H 0.17307 0.91185 0.80107 0.0
H2744 H 0.20254 0.88889 0.7974 0.0
H2745 H 0.24913 0.94674 0.7753 0.0
C2746 C 0.18389 0.99862 0.78572 0.0
C2747 C 0.16125 0.99738 0.79204 0.0
C2748 C 0.14859 0.97642 0.79801 0.0
C2749 C 0.15828 0.95708 0.79792 0.0
C2750 C 0.18066 0.9589 0.79174 0.0
C2751 C 0.19329 0.97909 0.78564 0.0
C2752 C 0.21702 0.97644 0.77974 0.0
C2753 C 0.21956 0.97978 0.75406 0.0
C2754 C 0.23668 0.99308 0.79667 0.0
C2755 C 0.21581 0.95166 0.78361 0.0
C2756 C 0.19469 0.94188 0.79054 0.0
C2757 C 0.18959 0.91928 0.79545 0.0
C2758 C 0.20645 0.90629 0.79314 0.0
C2759 C 0.22823 0.9158 0.78585 0.0
C2760 C 0.23283 0.93889 0.78109 0.0
H2761 H 0.37813 0.94715 0.98068 0.0
H2762 H 0.34614 0.00253 0.00396 0.0
H2763 H 0.38301 0.03068 0.00318 0.0
H2764 H 0.42826 0.96589 0.0157 0.0
H2765 H 0.44733 0.95785 0.9956 0.0
H2766 H 0.41733 0.94269 0.99202 0.0
H2767 H 0.41184 0.95201 0.94937 0.0
H2768 H 0.44206 0.96705 0.9527 0.0
H2769 H 0.41959 0.98144 0.94374 0.0
H2770 H 0.42456 0.0512 0.00904 0.0
H2771 H 0.46757 0.06281 0.01844 0.0
H2772 H 0.47264 0.99472 0.99023 0.0
C2773 C 0.37865 0.96528 0.98468 0.0
C2774 C 0.35938 0.97272 0.99234 0.0
C2775 C 0.36074 0.99651 0.99793 0.0
C2776 C 0.38158 0.01263 0.99745 0.0
C2777 C 0.4007 0.00467 0.99097 0.0
C2778 C 0.39931 0.98157 0.98425 0.0
C2779 C 0.42302 0.97712 0.98103 0.0
C2780 C 0.42934 0.95989 0.99705 0.0
C2781 C 0.42419 0.96892 0.95517 0.0
C2782 C 0.43812 0.00102 0.98861 0.0
C2783 C 0.4249 0.01679 0.99384 0.0
C2784 C 0.4351 0.03928 0.00419 0.0
C2785 C 0.45941 0.04571 0.00955 0.0
C2786 C 0.47298 0.0297 0.00443 0.0
C2787 C 0.46237 0.00732 0.99348 0.0
H2788 H 0.863 0.60841 0.82267 0.0
H2789 H 0.81654 0.54061 0.80872 0.0
H2790 H 0.78261 0.55819 0.80753 0.0
H2791 H 0.82416 0.63609 0.85888 0.0
H2792 H 0.83254 0.6627 0.84692 0.0
H2793 H 0.85301 0.64475 0.85073 0.0
H2794 H 0.85846 0.64378 0.80674 0.0
H2795 H 0.83809 0.66162 0.80282 0.0
H2796 H 0.83328 0.63421 0.78478 0.0
H2797 H 0.75454 0.58289 0.79967 0.0
H2798 H 0.73454 0.6132 0.78887 0.0
H2799 H 0.79876 0.66475 0.81096 0.0
C2800 C 0.84567 0.5973 0.82006 0.0
C2801 C 0.84234 0.57321 0.81577 0.0
C2802 C 0.81945 0.55914 0.81217 0.0
C2803 C 0.80007 0.56896 0.81152 0.0
C2804 C 0.8039 0.59283 0.81506 0.0
C2805 C 0.82615 0.60682 0.81974 0.0
C2806 C 0.82562 0.63194 0.82094 0.0
C2807 C 0.83435 0.64461 0.84585 0.0
C2808 C 0.83968 0.64355 0.80273 0.0
C2809 C 0.79976 0.62982 0.8148 0.0
C2810 C 0.78745 0.60715 0.81168 0.0
C2811 C 0.7638 0.60077 0.80285 0.0
C2812 C 0.75259 0.61799 0.79672 0.0
C2813 C 0.76504 0.6412 0.79974 0.0
C2814 C 0.7887 0.64718 0.8094 0.0
H2815 H 0.817 0.64139 0.04041 0.0
H2816 H 0.86011 0.70742 0.03174 0.0
H2817 H 0.89493 0.691 0.0345 0.0
H2818 H 0.85926 0.62531 0.08203 0.0
H2819 H 0.85118 0.5954 0.06975 0.0
H2820 H 0.82992 0.61269 0.06823 0.0
H2821 H 0.82199 0.60173 0.02307 0.0
H2822 H 0.84323 0.58444 0.02444 0.0
H2823 H 0.84593 0.60694 0.00598 0.0
H2824 H 0.92478 0.6667 0.03624 0.0
H2825 H 0.94712 0.63659 0.03645 0.0
H2826 H 0.88461 0.58669 0.0452 0.0
C2827 C 0.8338 0.65246 0.0393 0.0
C2828 C 0.83585 0.67572 0.0359 0.0
C2829 C 0.85813 0.68958 0.03439 0.0
C2830 C 0.87801 0.68041 0.03597 0.0
C2831 C 0.87535 0.65737 0.03916 0.0
C2832 C 0.8538 0.6436 0.04087 0.0
C2833 C 0.85554 0.61922 0.04359 0.0
C2834 C 0.84856 0.61279 0.06731 0.0
C2835 C 0.84081 0.60208 0.02304 0.0
C2836 C 0.88137 0.62131 0.04275 0.0
C2837 C 0.89252 0.64346 0.04032 0.0
C2838 C 0.91626 0.64935 0.0384 0.0
C2839 C 0.92886 0.6321 0.03871 0.0
C2840 C 0.91775 0.60916 0.04093 0.0
C2841 C 0.89369 0.60393 0.04327 0.0
H2842 H 0.16477 0.13829 0.79216 0.0
H2843 H 0.21238 0.09991 0.82123 0.0
H2844 H 0.24493 0.13401 0.82418 0.0
H2845 H 0.20352 0.16859 0.757 0.0
H2846 H 0.19414 0.19509 0.76187 0.0
H2847 H 0.17426 0.16812 0.76324 0.0
H2848 H 0.16756 0.18302 0.80514 0.0
H2849 H 0.18744 0.21007 0.80387 0.0
H2850 H 0.19223 0.19373 0.82753 0.0
H2851 H 0.27276 0.17185 0.82254 0.0
H2852 H 0.29368 0.21056 0.81637 0.0
H2853 H 0.22815 0.22453 0.78829 0.0
C2854 C 0.182 0.13715 0.79938 0.0
C2855 C 0.18598 0.1164 0.80655 0.0
C2856 C 0.20885 0.11559 0.81568 0.0
C2857 C 0.22748 0.13489 0.81745 0.0
C2858 C 0.22304 0.155 0.81004 0.0
C2859 C 0.20085 0.15631 0.80125 0.0
C2860 C 0.20099 0.17981 0.79383 0.0
C2861 C 0.19274 0.17777 0.76742 0.0
C2862 C 0.18617 0.1924 0.80847 0.0
C2863 C 0.22672 0.19135 0.79958 0.0
C2864 C 0.23911 0.17679 0.80902 0.0
C2865 C 0.2632 0.18344 0.81526 0.0
C2866 C 0.27496 0.20551 0.81167 0.0
C2867 C 0.26268 0.22074 0.80186 0.0
C2868 C 0.23816 0.21345 0.79591 0.0
H2869 H 0.40105 0.95812 0.30937 0.0
H2870 H 0.37153 0.98235 0.37016 0.0
H2871 H 0.34686 0.9433 0.36943 0.0
H2872 H 0.34955 0.92698 0.27938 0.0
H2873 H 0.36063 0.90376 0.26601 0.0
H2874 H 0.37958 0.93185 0.27415 0.0
H2875 H 0.40848 0.91505 0.29984 0.0
H2876 H 0.38987 0.88675 0.2913 0.0
H2877 H 0.39805 0.89789 0.32194 0.0
H2878 H 0.3225 0.90293 0.35926 0.0
H2879 H 0.30061 0.86416 0.3408 0.0
H2880 H 0.34424 0.86808 0.28483 0.0
C2881 C 0.39011 0.95499 0.32313 0.0
C2882 C 0.38839 0.97303 0.34008 0.0
C2883 C 0.37325 0.96857 0.35725 0.0
C2884 C 0.35918 0.9465 0.35693 0.0
C2885 C 0.36046 0.92932 0.33921 0.0
C2886 C 0.37565 0.9333 0.32271 0.0
C2887 C 0.37178 0.91288 0.30385 0.0
C2888 C 0.36498 0.91926 0.27942 0.0
C2889 C 0.39332 0.90253 0.30427 0.0
C2890 C 0.35159 0.89701 0.31195 0.0
C2891 C 0.34558 0.90658 0.33259 0.0
C2892 C 0.32716 0.89519 0.3432 0.0
C2893 C 0.31478 0.87329 0.33254 0.0
C2894 C 0.32064 0.86335 0.31131 0.0
C2895 C 0.3392 0.87543 0.3009 0.0
H2896 H 0.59386 0.39787 0.60558 0.0
H2897 H 0.54671 0.34931 0.55152 0.0
H2898 H 0.53589 0.38159 0.53354 0.0
H2899 H 0.55739 0.43895 0.61156 0.0
H2900 H 0.58105 0.46416 0.61584 0.0
H2901 H 0.58598 0.43746 0.62431 0.0
H2902 H 0.61906 0.43938 0.59826 0.0
H2903 H 0.61422 0.4661 0.58973 0.0
H2904 H 0.61318 0.44221 0.56764 0.0
H2905 H 0.52903 0.41963 0.52128 0.0
H2906 H 0.52682 0.45921 0.51594 0.0
H2907 H 0.578 0.48524 0.57745 0.0
C2908 C 0.58142 0.39398 0.5898 0.0
C2909 C 0.57135 0.37047 0.58004 0.0
C2910 C 0.55493 0.36671 0.55951 0.0
C2911 C 0.54859 0.38513 0.54909 0.0
C2912 C 0.55864 0.40786 0.55914 0.0
C2913 C 0.57479 0.41242 0.57906 0.0
C2914 C 0.58257 0.43861 0.5864 0.0
C2915 C 0.57638 0.44518 0.611 0.0
C2916 C 0.60882 0.44707 0.58546 0.0
C2917 C 0.56824 0.44801 0.56766 0.0
C2918 C 0.55461 0.42983 0.5521 0.0
C2919 C 0.53974 0.43387 0.53342 0.0
C2920 C 0.5386 0.45671 0.5305 0.0
C2921 C 0.55217 0.47603 0.54604 0.0
C2922 C 0.56732 0.47127 0.56497 0.0
H2923 H 0.454 0.78804 0.38497 0.0
H2924 H 0.42153 0.77012 0.44637 0.0
H2925 H 0.38302 0.76997 0.42522 0.0
H2926 H 0.41756 0.82615 0.36781 0.0
H2927 H 0.41636 0.81754 0.33678 0.0
H2928 H 0.44128 0.81596 0.35661 0.0
H2929 H 0.43535 0.77283 0.34099 0.0
H2930 H 0.41041 0.7743 0.32112 0.0
H2931 H 0.40757 0.75349 0.3415 0.0
H2932 H 0.34726 0.77196 0.39684 0.0
H2933 H 0.31837 0.77607 0.36453 0.0
H2934 H 0.37375 0.79298 0.32132 0.0
C2935 C 0.43879 0.78401 0.39398 0.0
C2936 C 0.44103 0.77901 0.41751 0.0
C2937 C 0.42051 0.77397 0.42847 0.0
C2938 C 0.39845 0.77384 0.41653 0.0
C2939 C 0.39686 0.77885 0.39343 0.0
C2940 C 0.41655 0.78387 0.38228 0.0
C2941 C 0.41009 0.78886 0.35744 0.0
C2942 C 0.42203 0.8136 0.35449 0.0
C2943 C 0.41622 0.77133 0.33918 0.0
C2944 C 0.38376 0.78585 0.3563 0.0
C2945 C 0.37646 0.78005 0.37726 0.0
C2946 C 0.35291 0.77644 0.38039 0.0
C2947 C 0.33652 0.7788 0.36181 0.0
C2948 C 0.34345 0.78479 0.34007 0.0
C2949 C 0.36758 0.78833 0.33752 0.0
H2950 H 0.03797 0.71589 0.08987 0.0
H2951 H 0.10105 0.74439 0.06114 0.0
H2952 H 0.10328 0.70521 0.0452 0.0
H2953 H 0.0533 0.66405 0.1055 0.0
H2954 H 0.02469 0.64565 0.09654 0.0
H2955 H 0.02786 0.67585 0.10598 0.0
H2956 H 1.00468 0.67972 0.06684 0.0
H2957 H 1.00137 0.6495 0.05735 0.0
H2958 H 0.01413 0.67045 0.03951 0.0
H2959 H 0.10036 0.66193 0.03444 0.0
H2960 H 0.09013 0.61951 0.02588 0.0
H2961 H 0.02675 0.61764 0.05767 0.0
C2962 C 0.05217 0.71392 0.08007 0.0
C2963 C 0.06942 0.73372 0.07694 0.0
C2964 C 0.08755 0.72994 0.06385 0.0
C2965 C 0.08902 0.70755 0.05476 0.0
C2966 C 0.07197 0.68853 0.05828 0.0
C2967 C 0.05359 0.69149 0.07025 0.0
C2968 C 0.03718 0.66801 0.07081 0.0
C2969 C 0.03567 0.6631 0.09622 0.0
C2970 C 0.0129 0.66686 0.05786 0.0
C2971 C 0.04935 0.65144 0.05764 0.0
C2972 C 0.06957 0.66372 0.05086 0.0
C2973 C 0.08438 0.6523 0.03947 0.0
C2974 C 0.07843 0.628 0.03471 0.0
C2975 C 0.05751 0.61475 0.04078 0.0
C2976 C 0.04276 0.62696 0.05242 0.0
H2977 H 0.08846 0.30216 0.92683 0.0
H2978 H 0.04124 0.24205 0.8862 0.0
H2979 H 0.07001 0.23969 0.85875 0.0
H2980 H 0.10978 0.32725 0.87699 0.0
H2981 H 0.13932 0.33809 0.89102 0.0
H2982 H 0.11557 0.33473 0.90842 0.0
H2983 H 0.13493 0.30903 0.93337 0.0
H2984 H 0.15876 0.31236 0.91606 0.0
H2985 H 0.14246 0.28401 0.91901 0.0
H2986 H 0.10338 0.24354 0.83538 0.0
H2987 H 0.13893 0.25426 0.81661 0.0
H2988 H 0.16517 0.31269 0.87088 0.0
C2989 C 0.08431 0.28842 0.91226 0.0
C2990 C 0.06254 0.27219 0.9088 0.0
C2991 C 0.05771 0.25467 0.8893 0.0
C2992 C 0.07399 0.25314 0.87358 0.0
C2993 C 0.09514 0.26939 0.87733 0.0
C2994 C 0.10038 0.28679 0.89608 0.0
C2995 C 0.12421 0.30242 0.89539 0.0
C2996 C 0.12208 0.32709 0.8928 0.0
C2997 C 0.14109 0.30192 0.91726 0.0
C2998 C 0.13141 0.29107 0.87335 0.0
C2999 C 0.11438 0.27194 0.86339 0.0
C3000 C 0.11688 0.25846 0.84307 0.0
C3001 C 0.13726 0.26463 0.83258 0.0
C3002 C 0.15505 0.28425 0.84222 0.0
C3003 C 0.15192 0.29766 0.86293 0.0
H3004 H 0.53606 0.74831 0.89847 0.0
H3005 H 0.58846 0.80015 0.94482 0.0
H3006 H 0.58907 0.77308 0.974 0.0
H3007 H 0.50417 0.72587 0.94376 0.0
H3008 H 0.49748 0.69644 0.92998 0.0
H3009 H 0.50175 0.71952 0.91228 0.0
H3010 H 0.53385 0.70354 0.89361 0.0
H3011 H 0.52965 0.68038 0.91122 0.0
H3012 H 0.55819 0.69889 0.9123 0.0
H3013 H 0.58391 0.74039 0.99836 0.0
H3014 H 0.57251 0.70506 0.01662 0.0
H3015 H 0.52279 0.67434 0.95504 0.0
C3016 C 0.54778 0.75391 0.9147 0.0
C3017 C 0.56233 0.77638 0.91928 0.0
C3018 C 0.5772 0.78307 0.94086 0.0
C3019 C 0.57768 0.76778 0.95756 0.0
C3020 C 0.56308 0.74582 0.95256 0.0
C3021 C 0.54833 0.73889 0.9317 0.0
C3022 C 0.53395 0.71453 0.93101 0.0
C3023 C 0.50779 0.71407 0.92915 0.0
C3024 C 0.53923 0.69838 0.91083 0.0
C3025 C 0.54288 0.70886 0.95473 0.0
C3026 C 0.55979 0.72711 0.9668 0.0
C3027 C 0.57073 0.72598 0.98903 0.0
C3028 C 0.56421 0.70574 0.99922 0.0
C3029 C 0.54679 0.68678 0.98733 0.0
C3030 C 0.53603 0.68852 0.96473 0.0
H3031 H 0.10307 0.74809 0.75333 0.0
H3032 H 0.10863 0.79413 0.70012 0.0
H3033 H 0.1511 0.80175 0.70753 0.0
H3034 H 0.15486 0.78225 0.79351 0.0
H3035 H 0.16461 0.75763 0.80214 0.0
H3036 H 0.13403 0.7555 0.79354 0.0
H3037 H 0.13284 0.72107 0.76219 0.0
H3038 H 0.16344 0.72319 0.77061 0.0
H3039 H 0.15271 0.72428 0.74053 0.0
H3040 H 0.19254 0.80431 0.71866 0.0
H3041 H 0.23192 0.80342 0.73455 0.0
H3042 H 0.20406 0.7565 0.78237 0.0
C3043 C 0.11326 0.75995 0.74345 0.0
C3044 C 0.10195 0.77047 0.72598 0.0
C3045 C 0.11632 0.78569 0.71347 0.0
C3046 C 0.14071 0.7902 0.71754 0.0
C3047 C 0.15123 0.77948 0.73436 0.0
C3048 C 0.1382 0.76478 0.74735 0.0
C3049 C 0.1548 0.75578 0.76432 0.0
C3050 C 0.1519 0.76323 0.7899 0.0
C3051 C 0.15069 0.72951 0.7591 0.0
C3052 C 0.17893 0.76769 0.75862 0.0
C3053 C 0.17603 0.78118 0.74117 0.0
C3054 C 0.19502 0.79389 0.73242 0.0
C3055 C 0.21759 0.7932 0.74173 0.0
C3056 C 0.22178 0.77995 0.75998 0.0
C3057 C 0.20185 0.76678 0.76842 0.0
H3058 H 0.06431 0.38469 0.44109 0.0
H3059 H 0.06323 0.41168 0.37446 0.0
H3060 H 0.06245 0.44975 0.39471 0.0
H3061 H 0.02558 0.41622 0.46595 0.0
H3062 H 0.04096 0.42149 0.49529 0.0
H3063 H 0.04212 0.39639 0.47581 0.0
H3064 H 0.08717 0.40852 0.48174 0.0
H3065 H 0.08614 0.43364 0.50128 0.0
H3066 H 0.10149 0.43668 0.47603 0.0
H3067 H 0.06013 0.48479 0.42188 0.0
H3068 H 0.05764 0.51436 0.45391 0.0
H3069 H 0.06116 0.46591 0.50389 0.0
C3070 C 0.0641 0.39866 0.43078 0.0
C3071 C 0.06389 0.39502 0.40603 0.0
C3072 C 0.06348 0.41386 0.39333 0.0
C3073 C 0.06301 0.43563 0.40473 0.0
C3074 C 0.06305 0.4386 0.42901 0.0
C3075 C 0.06373 0.42069 0.44197 0.0
C3076 C 0.06343 0.4286 0.4679 0.0
C3077 C 0.04173 0.41485 0.47675 0.0
C3078 C 0.0859 0.42675 0.48261 0.0
C3079 C 0.06231 0.45365 0.46746 0.0
C3080 C 0.06206 0.45898 0.44479 0.0
C3081 C 0.06044 0.48078 0.4397 0.0
C3082 C 0.05896 0.49753 0.45811 0.0
C3083 C 0.05924 0.4927 0.48162 0.0
C3084 C 0.06111 0.47036 0.48624 0.0
H3085 H 0.43816 0.24861 0.20527 0.0
H3086 H 0.48821 0.27828 0.26677 0.0
H3087 H 0.45637 0.2867 0.28811 0.0
H3088 H 0.4009 0.28874 0.21192 0.0
H3089 H 0.37395 0.26765 0.20254 0.0
H3090 H 0.40045 0.26343 0.19193 0.0
H3091 H 0.39454 0.22394 0.20708 0.0
H3092 H 0.36801 0.22805 0.21773 0.0
H3093 H 0.39091 0.22216 0.23745 0.0
H3094 H 0.4189 0.2937 0.30286 0.0
H3095 H 0.37956 0.29739 0.31011 0.0
H3096 H 0.35165 0.26216 0.24022 0.0
C3097 C 0.44244 0.25674 0.2233 0.0
C3098 C 0.46619 0.26266 0.23417 0.0
C3099 C 0.47056 0.27338 0.25782 0.0
C3100 C 0.45241 0.27831 0.27017 0.0
C3101 C 0.42942 0.2724 0.25899 0.0
C3102 C 0.4243 0.26168 0.23608 0.0
C3103 C 0.39794 0.25722 0.22832 0.0
C3104 C 0.39302 0.27002 0.20743 0.0
C3105 C 0.38721 0.2313 0.22228 0.0
C3106 C 0.38908 0.26723 0.25029 0.0
C3107 C 0.40769 0.27596 0.2677 0.0
C3108 C 0.40429 0.28672 0.28932 0.0
C3109 C 0.38164 0.28876 0.2933 0.0
C3110 C 0.36193 0.27997 0.27602 0.0
C3111 C 0.36597 0.26885 0.25413 0.0
H3112 H 0.57923 0.54687 0.35877 0.0
H3113 H 0.65344 0.55609 0.3796 0.0
H3114 H 0.64664 0.55459 0.42075 0.0
H3115 H 0.56878 0.58193 0.40991 0.0
H3116 H 0.5408 0.56381 0.4122 0.0
H3117 H 0.55115 0.56506 0.38403 0.0
H3118 H 0.5459 0.52086 0.37835 0.0
H3119 H 0.53553 0.5195 0.40651 0.0
H3120 H 0.55993 0.50748 0.40034 0.0
H3121 H 0.6322 0.5523 0.46014 0.0
H3122 H 0.61111 0.55004 0.49476 0.0
H3123 H 0.54594 0.54279 0.44975 0.0
C3124 C 0.59401 0.54847 0.37199 0.0
C3125 C 0.61695 0.55155 0.36569 0.0
C3126 C 0.63574 0.55372 0.38372 0.0
C3127 C 0.63205 0.55287 0.40728 0.0
C3128 C 0.60939 0.54991 0.41293 0.0
C3129 C 0.59064 0.54779 0.39585 0.0
C3130 C 0.56811 0.54514 0.40698 0.0
C3131 C 0.55653 0.56518 0.40304 0.0
C3132 C 0.55138 0.52186 0.39747 0.0
C3133 C 0.57717 0.54609 0.43283 0.0
C3134 C 0.60106 0.54879 0.4358 0.0
C3135 C 0.61348 0.55018 0.45798 0.0
C3136 C 0.60128 0.54885 0.47764 0.0
C3137 C 0.57676 0.5462 0.47527 0.0
C3138 C 0.56465 0.54478 0.45237 0.0
H3139 H 0.33945 0.87835 0.06229 0.0
H3140 H 0.35018 0.95019 0.0906 0.0
H3141 H 0.36666 0.94193 0.12888 0.0
H3142 H 0.3186 0.85655 0.10955 0.0
H3143 H 0.33189 0.83226 0.10809 0.0
H3144 H 0.3256 0.84461 0.08195 0.0
H3145 H 0.36889 0.85072 0.07493 0.0
H3146 H 0.37533 0.8383 0.10115 0.0
H3147 H 0.39146 0.86658 0.09774 0.0
H3148 H 0.37579 0.9248 0.16531 0.0
H3149 H 0.37643 0.90015 0.19684 0.0
H3150 H 0.35929 0.83962 0.14455 0.0
C3151 C 0.34593 0.89247 0.07634 0.0
C3152 C 0.34367 0.9149 0.07354 0.0
C3153 C 0.35187 0.93287 0.09242 0.0
C3154 C 0.36135 0.92836 0.11417 0.0
C3155 C 0.36265 0.90585 0.11661 0.0
C3156 C 0.35531 0.88823 0.09812 0.0
C3157 C 0.3559 0.86514 0.10591 0.0
C3158 C 0.33156 0.84869 0.1011 0.0
C3159 C 0.37398 0.85457 0.09424 0.0
C3160 C 0.36356 0.87236 0.13188 0.0
C3161 C 0.36785 0.89594 0.13768 0.0
C3162 C 0.37294 0.90636 0.16093 0.0
C3163 C 0.37312 0.89225 0.17871 0.0
C3164 C 0.36809 0.86802 0.17308 0.0
C3165 C 0.36386 0.8581 0.14935 0.0
H3166 H 0.94805 0.52103 0.85999 0.0
H3167 H 0.96296 0.59446 0.85707 0.0
H3168 H 0.99427 0.6003 0.89069 0.0
H3169 H 0.95271 0.52508 0.92064 0.0
H3170 H 0.96505 0.50036 0.92243 0.0
H3171 H 0.94648 0.50214 0.89645 0.0
H3172 H 0.97909 0.4967 0.87119 0.0
H3173 H 0.99786 0.49504 0.89719 0.0
H3174 H 1.00751 0.51593 0.87804 0.0
H3175 H 0.02275 0.59764 0.92619 0.0
H3176 H 0.04194 0.58752 0.96251 0.0
H3177 H 1.00563 0.51622 0.94241 0.0
C3178 C 0.95817 0.53834 0.86609 0.0
C3179 C 0.95335 0.5573 0.85583 0.0
C3180 C 0.96656 0.57972 0.86468 0.0
C3181 C 0.98441 0.58314 0.88363 0.0
C3182 C 0.9886 0.56395 0.89345 0.0
C3183 C 0.97563 0.54203 0.88503 0.0
C3184 C 0.98161 0.52444 0.89987 0.0
C3185 C 0.9602 0.51231 0.91048 0.0
C3186 C 0.99215 0.507 0.88572 0.0
C3187 C 0.99965 0.53988 0.91841 0.0
C3188 C 1.00397 0.56255 0.91419 0.0
C3189 C 0.01959 0.57994 0.92954 0.0
C3190 C 0.03049 0.57405 0.95 0.0
C3191 C 0.02521 0.55111 0.95503 0.0
C3192 C 1.00999 0.53385 0.93882 0.0
H3193 H 0.28623 0.25692 0.59783 0.0
H3194 H 0.26973 0.18343 0.60102 0.0
H3195 H 0.26617 0.19057 0.6429 0.0
H3196 H 0.3217 0.27212 0.65439 0.0
H3197 H 0.31238 0.2982 0.6623 0.0
H3198 H 0.31217 0.28778 0.63185 0.0
H3199 H 0.26847 0.28789 0.62375 0.0
H3200 H 0.26854 0.2982 0.65423 0.0
H3201 H 0.24806 0.2722 0.64063 0.0
H3202 H 0.26579 0.20455 0.68436 0.0
H3203 H 0.27079 0.22507 0.72439 0.0
H3204 H 0.28808 0.29036 0.69734 0.0
C3205 C 0.28164 0.24239 0.60736 0.0
C3206 C 0.27817 0.21951 0.59587 0.0
C3207 C 0.27254 0.20106 0.60918 0.0
C3208 C 0.27035 0.20493 0.63308 0.0
C3209 C 0.27398 0.22746 0.6439 0.0
C3210 C 0.27967 0.24599 0.63168 0.0
C3211 C 0.28388 0.26844 0.6484 0.0
C3212 C 0.30903 0.28246 0.64928 0.0
C3213 C 0.26618 0.28252 0.64132 0.0
C3214 C 0.27982 0.2595 0.67177 0.0
C3215 C 0.27393 0.23574 0.66847 0.0
C3216 C 0.2702 0.22315 0.68714 0.0
C3217 C 0.27303 0.23499 0.70987 0.0
C3218 C 0.27945 0.25931 0.71409 0.0
C3219 C 0.28255 0.27179 0.69465 0.0
H3220 H 0.61538 0.53788 0.20984 0.0
H3221 H 0.56695 0.56975 0.24492 0.0
H3222 H 0.54569 0.57183 0.20627 0.0
H3223 H 0.61842 0.57035 0.16158 0.0
H3224 H 0.6197 0.54654 0.14035 0.0
H3225 H 0.63071 0.5473 0.1707 0.0
H3226 H 0.60351 0.50742 0.1715 0.0
H3227 H 0.59247 0.50651 0.14112 0.0
H3228 H 0.57263 0.50316 0.16278 0.0
H3229 H 0.53061 0.57186 0.16265 0.0
H3230 H 0.52218 0.56779 0.11928 0.0
H3231 H 0.57976 0.53463 0.1132 0.0
C3232 C 0.60022 0.54519 0.20944 0.0
C3233 C 0.59289 0.55367 0.23058 0.0
C3234 C 0.57291 0.56306 0.2291 0.0
C3235 C 0.56075 0.56437 0.20716 0.0
C3236 C 0.56856 0.55603 0.18667 0.0
C3237 C 0.58775 0.54641 0.1877 0.0
C3238 C 0.5926 0.53852 0.16322 0.0
C3239 C 0.61679 0.55146 0.15871 0.0
C3240 C 0.59015 0.51235 0.15944 0.0
C3241 C 0.57332 0.54535 0.14818 0.0
C3242 C 0.55966 0.55553 0.16195 0.0
C3243 C 0.54116 0.56374 0.15179 0.0
C3244 C 0.5365 0.5614 0.12707 0.0
C3245 C 0.55011 0.55075 0.11258 0.0
C3246 C 0.56876 0.54266 0.12355 0.0
H3247 H 0.27346 0.89411 0.93294 0.0
H3248 H 0.28247 0.84493 0.98072 0.0
H3249 H 0.27573 0.8142 0.94708 0.0
H3250 H 0.22891 0.85285 0.88764 0.0
H3251 H 0.24144 0.86635 0.86408 0.0
H3252 H 0.2422 0.88321 0.89202 0.0
H3253 H 0.28707 0.89693 0.89445 0.0
H3254 H 0.28646 0.88003 0.86673 0.0
H3255 H 0.30451 0.87587 0.89221 0.0
H3256 H 0.27549 0.79096 0.90847 0.0
H3257 H 0.28002 0.77665 0.86793 0.0
H3258 H 0.27024 0.84089 0.84553 0.0
C3259 C 0.27325 0.87672 0.93636 0.0
C3260 C 0.27842 0.87182 0.95935 0.0
C3261 C 0.27838 0.84897 0.9632 0.0
C3262 C 0.27452 0.83141 0.94421 0.0
C3263 C 0.27037 0.83699 0.92163 0.0
C3264 C 0.26934 0.85904 0.91766 0.0
C3265 C 0.26713 0.86119 0.89175 0.0
C3266 C 0.24351 0.86619 0.88338 0.0
C3267 C 0.28751 0.87958 0.88597 0.0
C3268 C 0.2684 0.83726 0.88184 0.0
C3269 C 0.2699 0.82342 0.89927 0.0
C3270 C 0.27373 0.80141 0.89459 0.0
C3271 C 0.27642 0.79349 0.87155 0.0
C3272 C 0.27532 0.80761 0.85358 0.0
C3273 C 0.27071 0.82952 0.85879 0.0
H3274 H 0.95648 0.55309 0.75081 0.0
H3275 H 0.88467 0.53439 0.71774 0.0
H3276 H 0.89771 0.52235 0.68012 0.0
H3277 H 0.98276 0.57346 0.69881 0.0
H3278 H 1.00791 0.56198 0.70573 0.0
H3279 H 0.993 0.57202 0.72894 0.0
H3280 H 0.98808 0.53233 0.74387 0.0
H3281 H 1.0024 0.52195 0.7204 0.0
H3282 H 0.97357 0.50671 0.7242 0.0
H3283 H 0.91816 0.5081 0.64757 0.0
H3284 H 0.94499 0.49617 0.62131 0.0
H3285 H 1.00328 0.52441 0.67591 0.0
C3286 C 0.94355 0.54712 0.73549 0.0
C3287 C 0.91959 0.54474 0.73711 0.0
C3288 C 0.90315 0.53652 0.71679 0.0
C3289 C 0.91038 0.52954 0.69539 0.0
C3290 C 0.93408 0.53113 0.69466 0.0
C3291 C 0.95046 0.5401 0.71406 0.0
C3292 C 0.9747 0.53879 0.70903 0.0
C3293 C 0.99052 0.563 0.71072 0.0
C3294 C 0.98529 0.52407 0.72535 0.0
C3295 C 0.96931 0.52704 0.684 0.0
C3296 C 0.94582 0.52288 0.67596 0.0
C3297 C 0.93664 0.51158 0.65356 0.0
C3298 C 0.95198 0.50482 0.63882 0.0
C3299 C 0.97619 0.50934 0.6466 0.0
C3300 C 0.98483 0.52043 0.66957 0.0
H3301 H 0.26789 0.21063 0.44094 0.0
H3302 H 0.31357 0.26756 0.48762 0.0
H3303 H 0.32284 0.28779 0.45353 0.0
H3304 H 0.30418 0.212 0.39438 0.0
H3305 H 0.28019 0.20484 0.371 0.0
H3306 H 0.27637 0.19502 0.39902 0.0
H3307 H 0.24163 0.21433 0.40215 0.0
H3308 H 0.24524 0.22406 0.37407 0.0
H3309 H 0.24558 0.24447 0.39942 0.0
H3310 H 0.32694 0.30219 0.41432 0.0
H3311 H 0.32594 0.30964 0.37317 0.0
H3312 H 0.27902 0.24283 0.35077 0.0
C3313 C 0.27968 0.22746 0.44402 0.0
C3314 C 0.28984 0.23757 0.46716 0.0
C3315 C 0.30545 0.25947 0.47023 0.0
C3316 C 0.31086 0.27109 0.4509 0.0
C3317 C 0.30074 0.26059 0.42838 0.0
C3318 C 0.2855 0.23923 0.4248 0.0
C3319 C 0.27742 0.23163 0.39867 0.0
C3320 C 0.28499 0.20956 0.39028 0.0
C3321 C 0.25089 0.22844 0.39326 0.0
C3322 C 0.2904 0.25208 0.38811 0.0
C3323 C 0.30366 0.2686 0.40565 0.0
C3324 C 0.31669 0.28929 0.40049 0.0
C3325 C 0.316 0.29337 0.37695 0.0
C3326 C 0.30257 0.27682 0.3585 0.0
C3327 C 0.28977 0.25574 0.3643 0.0
H3328 H 0.32899 0.61477 0.50368 0.0
H3329 H 0.38027 0.67022 0.54693 0.0
H3330 H 0.41185 0.6551 0.53118 0.0
H3331 H 0.35934 0.57174 0.51239 0.0
H3332 H 0.35099 0.55654 0.48308 0.0
H3333 H 0.33242 0.57319 0.49569 0.0
H3334 H 0.33378 0.59619 0.46022 0.0
H3335 H 0.35261 0.57972 0.44762 0.0
H3336 H 0.36156 0.61065 0.45285 0.0
H3337 H 0.43752 0.63269 0.51383 0.0
H3338 H 0.4561 0.60252 0.49851 0.0
H3339 H 0.38869 0.56136 0.46558 0.0
C3340 C 0.34688 0.62383 0.5096 0.0
C3341 C 0.35226 0.64368 0.52643 0.0
C3342 C 0.37582 0.65495 0.53406 0.0
C3343 C 0.39385 0.64663 0.52507 0.0
C3344 C 0.38799 0.62704 0.50847 0.0
C3345 C 0.36512 0.61565 0.50092 0.0
C3346 C 0.36372 0.59381 0.48455 0.0
C3347 C 0.35087 0.57257 0.49453 0.0
C3348 C 0.35224 0.59519 0.45984 0.0
C3349 C 0.38939 0.59436 0.48472 0.0
C3350 C 0.40304 0.61394 0.49826 0.0
C3351 C 0.42712 0.61756 0.50268 0.0
C3352 C 0.43756 0.60039 0.49363 0.0
C3353 C 0.42393 0.57982 0.48028 0.0
C3354 C 0.39957 0.57707 0.47534 0.0
H3355 H 0.89499 0.91283 0.54561 0.0
H3356 H 0.85143 0.9597 0.56391 0.0
H3357 H 0.88471 0.99271 0.5648 0.0
H3358 H 0.94868 0.94624 0.58129 0.0
H3359 H 0.96701 0.93947 0.55982 0.0
H3360 H 0.94009 0.91943 0.5619 0.0
H3361 H 0.92668 0.91964 0.51785 0.0
H3362 H 0.95352 0.93968 0.51566 0.0
H3363 H 0.92603 0.94659 0.50714 0.0
H3364 H 0.9227 0.02099 0.56243 0.0
H3365 H 0.96213 0.04187 0.55657 0.0
H3366 H 0.9806 0.97656 0.53941 0.0
C3367 C 0.89255 0.93003 0.55007 0.0
C3368 C 0.87059 0.93364 0.55479 0.0
C3369 C 0.86807 0.95646 0.56029 0.0
C3370 C 0.8869 0.97536 0.56086 0.0
C3371 C 0.90824 0.97126 0.55588 0.0
C3372 C 0.91118 0.94915 0.55064 0.0
C3373 C 0.93572 0.9495 0.54519 0.0
C3374 C 0.94864 0.93798 0.56312 0.0
C3375 C 0.93546 0.93819 0.51996 0.0
C3376 C 0.94598 0.97521 0.54792 0.0
C3377 C 0.92994 0.9875 0.55425 0.0
C3378 C 0.93543 0.01152 0.55753 0.0
C3379 C 0.95789 0.02326 0.55416 0.0
C3380 C 0.97455 0.01098 0.54743 0.0
C3381 C 0.96835 0.9866 0.54444 0.0
H3382 H 0.92512 0.10461 0.28299 0.0
H3383 H 0.8717 0.04143 0.27762 0.0
H3384 H 0.84163 0.06371 0.27891 0.0
H3385 H 0.8989 0.13851 0.32335 0.0
H3386 H 0.90666 0.16453 0.31023 0.0
H3387 H 0.92445 0.14379 0.30849 0.0
H3388 H 0.91959 0.14158 0.26322 0.0
H3389 H 0.90172 0.16226 0.26483 0.0
H3390 H 0.89073 0.1347 0.2471 0.0
H3391 H 0.81707 0.09199 0.2809 0.0
H3392 H 0.79923 0.12529 0.28445 0.0
H3393 H 0.86751 0.1713 0.28909 0.0
C3394 C 0.90709 0.09553 0.28207 0.0
C3395 C 0.90085 0.07118 0.28018 0.0
C3396 C 0.87703 0.05999 0.27906 0.0
C3397 C 0.85973 0.0725 0.27975 0.0
C3398 C 0.86635 0.09634 0.28156 0.0
C3399 C 0.8894 0.10786 0.28276 0.0
C3400 C 0.89148 0.13372 0.28497 0.0
C3401 C 0.90625 0.14585 0.30814 0.0
C3402 C 0.90148 0.14365 0.26377 0.0
C3403 C 0.86605 0.1348 0.28494 0.0
C3404 C 0.85196 0.11295 0.28287 0.0
C3405 C 0.82792 0.10922 0.28262 0.0
C3406 C 0.81795 0.1283 0.28479 0.0
C3407 C 0.8319 0.151 0.2873 0.0
C3408 C 0.85632 0.15421 0.28708 0.0
H3409 H 0.70991 0.14253 0.07408 0.0
H3410 H 0.74233 0.08442 0.0721 0.0
H3411 H 0.70388 0.05827 0.07232 0.0
H3412 H 0.66263 0.12029 0.10961 0.0
H3413 H 0.642 0.13187 0.09234 0.0
H3414 H 0.67245 0.14621 0.09689 0.0
H3415 H 0.6726 0.14397 0.05184 0.0
H3416 H 0.6423 0.12954 0.04717 0.0
H3417 H 0.6632 0.11638 0.03384 0.0
H3418 H 0.66132 0.03816 0.06742 0.0
H3419 H 0.61853 0.02594 0.05638 0.0
H3420 H 0.61475 0.09745 0.06024 0.0
C3421 C 0.70904 0.1244 0.07449 0.0
C3422 C 0.72901 0.11546 0.07332 0.0
C3423 C 0.72715 0.09158 0.07319 0.0
C3424 C 0.70543 0.07663 0.0734 0.0
C3425 C 0.68587 0.08593 0.07378 0.0
C3426 C 0.68754 0.10931 0.07441 0.0
C3427 C 0.66382 0.11477 0.07166 0.0
C3428 C 0.66 0.12913 0.09396 0.0
C3429 C 0.66029 0.12686 0.04983 0.0
C3430 C 0.64852 0.09079 0.06851 0.0
C3431 C 0.66144 0.07436 0.07028 0.0
C3432 C 0.65099 0.05089 0.06638 0.0
C3433 C 0.62674 0.0441 0.06012 0.0
C3434 C 0.61346 0.06078 0.05745 0.0
C3435 C 0.62449 0.08433 0.0622 0.0
H3436 H 0.25037 0.5185 0.27514 0.0
H3437 H 0.2107 0.48133 0.2099 0.0
H3438 H 0.23838 0.45605 0.20774 0.0
H3439 H 0.30904 0.51356 0.26025 0.0
H3440 H 0.31864 0.5099 0.28991 0.0
H3441 H 0.29781 0.52715 0.28445 0.0
H3442 H 0.26915 0.50219 0.30762 0.0
H3443 H 0.28987 0.485 0.31322 0.0
H3444 H 0.26081 0.47148 0.2992 0.0
H3445 H 0.26669 0.43181 0.21561 0.0
H3446 H 0.29227 0.40951 0.23354 0.0
H3447 H 0.31502 0.46368 0.29269 0.0
C3448 C 0.24776 0.50531 0.26017 0.0
C3449 C 0.22847 0.5018 0.24268 0.0
C3450 C 0.22544 0.48427 0.22347 0.0
C3451 C 0.24115 0.46996 0.22201 0.0
C3452 C 0.25987 0.47368 0.23974 0.0
C3453 C 0.2633 0.491 0.2584 0.0
C3454 C 0.28339 0.49004 0.2763 0.0
C3455 C 0.30341 0.51144 0.2778 0.0
C3456 C 0.27531 0.48698 0.3005 0.0
C3457 C 0.29 0.46877 0.26539 0.0
C3458 C 0.27654 0.45983 0.24409 0.0
C3459 C 0.27777 0.43893 0.23196 0.0
C3460 C 0.29252 0.42644 0.24226 0.0
C3461 C 0.30579 0.43488 0.26453 0.0
C3462 C 0.30512 0.45676 0.27568 0.0
H3463 H 0.26497 0.43901 0.05208 0.0
H3464 H 0.22285 0.37086 0.02516 0.0
H3465 H 0.18825 0.38714 0.01839 0.0
H3466 H 0.22068 0.45965 0.08167 0.0
H3467 H 0.22936 0.48834 0.0742 0.0
H3468 H 0.25054 0.47116 0.07772 0.0
H3469 H 0.26096 0.4768 0.03598 0.0
H3470 H 0.23975 0.49391 0.0323 0.0
H3471 H 0.23823 0.46898 0.01135 0.0
H3472 H 0.15842 0.41114 0.01343 0.0
H3473 H 0.13573 0.44083 0.01062 0.0
H3474 H 0.1972 0.49339 0.04117 0.0
C3475 C 0.24843 0.42747 0.04495 0.0
C3476 C 0.2466 0.40361 0.03922 0.0
C3477 C 0.22466 0.38916 0.02974 0.0
C3478 C 0.20491 0.39826 0.02583 0.0
C3479 C 0.20734 0.42188 0.03149 0.0
C3480 C 0.22854 0.43629 0.04089 0.0
C3481 C 0.22656 0.4611 0.04496 0.0
C3482 C 0.23211 0.47062 0.0712 0.0
C3483 C 0.24231 0.47608 0.03027 0.0
C3484 C 0.201 0.45844 0.03621 0.0
C3485 C 0.1902 0.43567 0.0286 0.0
C3486 C 0.16668 0.429 0.0195 0.0
C3487 C 0.15388 0.44602 0.0181 0.0
C3488 C 0.16456 0.46953 0.02574 0.0
C3489 C 0.18848 0.47566 0.03496 0.0
H3490 H 0.88131 0.96659 0.28588 0.0
H3491 H 0.93814 0.94537 0.25476 0.0
H3492 H 0.91683 0.9048 0.25131 0.0
H3493 H 0.86821 0.92012 0.31981 0.0
H3494 H 0.8371 0.91712 0.31524 0.0
H3495 H 0.85641 0.94462 0.31464 0.0
H3496 H 0.83625 0.94645 0.27321 0.0
H3497 H 0.81693 0.91889 0.27364 0.0
H3498 H 0.83434 0.92327 0.25002 0.0
H3499 H 0.89062 0.86676 0.25275 0.0
H3500 H 0.86096 0.8331 0.25891 0.0
H3501 H 0.81985 0.87801 0.28821 0.0
C3502 C 0.88921 0.95339 0.27826 0.0
C3503 C 0.91145 0.95917 0.27058 0.0
C3504 C 0.92118 0.9414 0.26074 0.0
C3505 C 0.90917 0.91829 0.25867 0.0
C3506 C 0.88734 0.91318 0.26639 0.0
C3507 C 0.87737 0.93016 0.27595 0.0
C3508 C 0.85382 0.91979 0.28325 0.0
C3509 C 0.8539 0.92577 0.30981 0.0
C3510 C 0.83417 0.92757 0.26919 0.0
C3511 C 0.85228 0.89431 0.27659 0.0
C3512 C 0.87186 0.89101 0.26686 0.0
C3513 C 0.87515 0.86914 0.26018 0.0
C3514 C 0.8582 0.85011 0.26382 0.0
C3515 C 0.83804 0.8529 0.27396 0.0
C3516 C 0.83488 0.87535 0.28008 0.0
H3517 H 0.74188 0.10982 0.75489 0.0
H3518 H 0.68443 0.10564 0.79636 0.0
H3519 H 0.69497 0.14782 0.80674 0.0
H3520 H 0.7824 0.15507 0.79346 0.0
H3521 H 0.79481 0.16888 0.77003 0.0
H3522 H 0.78272 0.13833 0.76573 0.0
H3523 H 0.75535 0.14241 0.72926 0.0
H3524 H 0.76743 0.17296 0.7334 0.0
H3525 H 0.73644 0.16205 0.73206 0.0
H3526 H 0.71169 0.19025 0.81265 0.0
H3527 H 0.73305 0.23039 0.81303 0.0
H3528 H 0.77963 0.2068 0.76775 0.0
C3529 C 0.7315 0.1178 0.7661 0.0
C3530 C 0.71234 0.10454 0.77481 0.0
C3531 C 0.69917 0.11554 0.78946 0.0
C3532 C 0.70503 0.13946 0.79549 0.0
C3533 C 0.72409 0.15205 0.78671 0.0
C3534 C 0.73709 0.14165 0.77229 0.0
C3535 C 0.75666 0.15917 0.76513 0.0
C3536 C 0.78056 0.15511 0.77413 0.0
C3537 C 0.75379 0.15915 0.73838 0.0
C3538 C 0.75259 0.18103 0.77778 0.0
C3539 C 0.73375 0.17654 0.79015 0.0
C3540 C 0.72649 0.19401 0.80304 0.0
C3541 C 0.73874 0.21675 0.80314 0.0
C3542 C 0.75801 0.22175 0.79042 0.0
C3543 C 0.76504 0.20357 0.77773 0.0
loop_
_geom_bond_atom_site_label_1
_geom_bond_atom_site_label_2
_geom_bond_distance
_geom_bond_site_symmetry_2
_ccdc_geom_bond_type
In0 O1 2.294 . S
In0 O2 2.326 . S
In0 O6 2.266 . S
In0 O7 2.309 1_455 S
In0 O8 2.266 . S
In0 O9 2.326 . S
In0 O11 2.294 . S
In0 O12 2.326 . S
O1 In0 2.294 . S
O1 C10 1.240 . S
O2 In0 2.326 . S
O2 C10 1.252 . S
C3 O6 1.252 1_655 S
C3 O7 1.262 . S
C4 O11 1.240 . S
C4 O12 1.252 . S
C5 O8 1.252 . S
C5 O9 1.260 . S
O6 In0 2.266 . S
O6 C3 1.252 1_455 S
O7 In0 2.309 1_655 S
O7 C3 1.262 . S
O8 In0 2.266 . S
O8 C5 1.252 . S
O9 In0 2.326 . S
O9 C5 1.260 . S
C10 O1 1.240 . S
C10 O2 1.252 . S
O11 In0 2.294 . S
O11 C4 1.240 . S
O12 In0 2.326 . S
O12 C4 1.252 . S
In13 O14 2.294 . S
In13 O15 2.326 . S
In13 O19 2.266 . S
In13 O20 2.326 . S
In13 O21 2.266 . S
In13 O22 2.326 1_455 S
In13 O24 2.294 . S
In13 O25 2.326 . S
O14 In13 2.294 . S
O14 C23 1.240 . S
O15 In13 2.326 . S
O15 C23 1.252 . S
C16 O19 1.252 . S
C16 O20 1.260 . S
C17 O24 1.240 . S
C17 O25 1.252 . S
C18 O21 1.252 1_655 S
C18 O22 1.260 . S
O19 In13 2.266 . S
O19 C16 1.252 . S
O20 In13 2.326 . S
O20 C16 1.260 . S
O21 In13 2.266 . S
O21 C18 1.252 1_455 S
O22 In13 2.326 1_655 S
O22 C18 1.260 . S
C23 O14 1.240 . S
C23 O15 1.252 . S
O24 In13 2.294 . S
O24 C17 1.240 . S
O25 In13 2.326 . S
O25 C17 1.252 . S
In26 O27 2.294 . S
In26 O28 2.326 . S
In26 O32 2.266 . S
In26 O33 2.326 . S
In26 O34 2.266 . S
In26 O35 2.326 . S
In26 O37 2.294 . S
In26 O38 2.326 . S
O27 In26 2.294 . S
O27 C36 1.240 . S
O28 In26 2.326 . S
O28 C36 1.252 . S
C29 O32 1.252 . S
C29 O33 1.260 . S
C30 O37 1.240 . S
C30 O38 1.252 . S
C31 O34 1.252 . S
C31 O35 1.260 . S
O32 In26 2.266 . S
O32 C29 1.252 . S
O33 In26 2.326 . S
O33 C29 1.260 . S
O34 In26 2.266 . S
O34 C31 1.252 . S
O35 In26 2.326 . S
O35 C31 1.260 . S
C36 O27 1.240 . S
C36 O28 1.252 . S
O37 In26 2.294 . S
O37 C30 1.240 . S
O38 In26 2.326 . S
O38 C30 1.252 . S
In39 O40 2.294 . S
In39 O41 2.326 . S
In39 O45 2.266 . S
In39 O46 2.326 . S
In39 O47 2.266 . S
In39 O48 2.326 . S
In39 O50 2.294 . S
In39 O51 2.326 . S
O40 In39 2.294 . S
O40 C49 1.240 . S
O41 In39 2.326 . S
O41 C49 1.252 . S
C42 O45 1.252 . S
C42 O46 1.260 . S
C43 O50 1.240 . S
C43 O51 1.252 . S
C44 O47 1.252 . S
C44 O48 1.260 . S
O45 In39 2.266 . S
O45 C42 1.252 . S
O46 In39 2.326 . S
O46 C42 1.260 . S
O47 In39 2.266 . S
O47 C44 1.252 . S
O48 In39 2.326 . S
O48 C44 1.260 . S
C49 O40 1.240 . S
C49 O41 1.252 . S
O50 In39 2.294 . S
O50 C43 1.240 . S
O51 In39 2.326 . S
O51 C43 1.252 . S
In52 O53 2.294 . S
In52 O54 2.326 . S
In52 O58 2.266 . S
In52 O59 2.326 . S
In52 O60 2.266 . S
In52 O61 2.326 . S
In52 O63 2.294 . S
In52 O64 2.326 . S
O53 In52 2.294 . S
O53 C62 1.240 . S
O54 In52 2.326 . S
O54 C62 1.252 . S
C55 O58 1.252 . S
C55 O59 1.260 . S
C56 O63 1.240 . S
C56 O64 1.252 . S
C57 O60 1.252 . S
C57 O61 1.260 . S
O58 In52 2.266 . S
O58 C55 1.252 . S
O59 In52 2.326 . S
O59 C55 1.260 . S
O60 In52 2.266 . S
O60 C57 1.252 . S
O61 In52 2.326 . S
O61 C57 1.260 . S
C62 O53 1.240 . S
C62 O54 1.252 . S
O63 In52 2.294 . S
O63 C56 1.240 . S
O64 In52 2.326 . S
O64 C56 1.252 . S
In65 O66 2.294 . S
In65 O67 2.326 . S
In65 O71 2.266 . S
In65 O72 2.326 . S
In65 O73 2.266 . S
In65 O74 2.326 . S
In65 O76 2.294 . S
In65 O77 2.326 . S
O66 In65 2.294 . S
O66 C75 1.240 . S
O67 In65 2.326 . S
O67 C75 1.252 . S
C68 O71 1.252 . S
C68 O72 1.260 . S
C69 O76 1.240 . S
C69 O77 1.252 . S
C70 O73 1.252 . S
C70 O74 1.260 . S
O71 In65 2.266 . S
O71 C68 1.252 . S
O72 In65 2.326 . S
O72 C68 1.260 . S
O73 In65 2.266 . S
O73 C70 1.252 . S
O74 In65 2.326 . S
O74 C70 1.260 . S
C75 O66 1.240 . S
C75 O67 1.252 . S
O76 In65 2.294 . S
O76 C69 1.240 . S
O77 In65 2.326 . S
O77 C69 1.252 . S
In78 O79 2.294 . S
In78 O80 2.326 . S
In78 O84 2.266 . S
In78 O85 2.326 . S
In78 O86 2.266 . S
In78 O87 2.326 . S
In78 O89 2.294 . S
In78 O90 2.326 . S
O79 In78 2.294 . S
O79 C88 1.240 . S
O80 In78 2.326 . S
O80 C88 1.252 . S
C81 O84 1.252 . S
C81 O85 1.260 . S
C82 O89 1.240 . S
C82 O90 1.252 . S
C83 O86 1.252 . S
C83 O87 1.260 . S
O84 In78 2.266 . S
O84 C81 1.252 . S
O85 In78 2.326 . S
O85 C81 1.260 . S
O86 In78 2.266 . S
O86 C83 1.252 . S
O87 In78 2.326 . S
O87 C83 1.260 . S
C88 O79 1.240 . S
C88 O80 1.252 . S
O89 In78 2.294 . S
O89 C82 1.240 . S
O90 In78 2.326 . S
O90 C82 1.252 . S
In91 O92 2.295 . S
In91 O93 2.328 1_455 S
In91 O97 2.265 . S
In91 O98 2.324 . S
In91 O99 2.262 1_455 S
In91 O100 2.319 1_455 S
In91 O102 2.298 . S
In91 O103 2.332 . S
O92 In91 2.295 . S
O92 C101 1.235 . S
O93 In91 2.328 1_655 S
O93 C101 1.251 1_655 S
C94 O97 1.252 . S
C94 O98 1.260 . S
C95 O102 1.240 . S
C95 O103 1.252 . S
C96 O99 1.252 . S
C96 O100 1.260 . S
O97 In91 2.265 . S
O97 C94 1.252 . S
O98 In91 2.324 . S
O98 C94 1.260 . S
O99 In91 2.262 1_655 S
O99 C96 1.252 . S
O100 In91 2.319 1_655 S
O100 C96 1.260 . S
C101 O92 1.235 . S
C101 O93 1.251 1_455 S
O102 In91 2.298 . S
O102 C95 1.240 . S
O103 In91 2.332 . S
O103 C95 1.252 . S
In104 O105 2.294 . S
In104 O106 2.326 . S
In104 O110 2.266 . S
In104 O111 2.326 . S
In104 O112 2.266 1_545 S
In104 O113 2.326 1_545 S
In104 O115 2.294 . S
In104 O116 2.326 . S
O105 In104 2.294 . S
O105 C114 1.240 . S
O106 In104 2.326 . S
O106 C114 1.252 . S
C107 O110 1.252 . S
C107 O111 1.260 . S
C108 O115 1.240 . S
C108 O116 1.252 . S
C109 O112 1.252 . S
C109 O113 1.260 . S
O110 In104 2.266 . S
O110 C107 1.252 . S
O111 In104 2.326 . S
O111 C107 1.260 . S
O112 In104 2.266 1_565 S
O112 C109 1.252 . S
O113 In104 2.326 1_565 S
O113 C109 1.260 . S
C114 O105 1.240 . S
C114 O106 1.252 . S
O115 In104 2.294 . S
O115 C108 1.240 . S
O116 In104 2.326 . S
O116 C108 1.252 . S
In117 O118 2.294 . S
In117 O119 2.326 . S
In117 O123 2.266 . S
In117 O124 2.326 . S
In117 O125 2.266 . S
In117 O126 2.326 . S
In117 O128 2.294 . S
In117 O129 2.326 . S
O118 In117 2.294 . S
O118 C127 1.240 . S
O119 In117 2.326 . S
O119 C127 1.252 . S
C120 O123 1.252 . S
C120 O124 1.260 . S
C121 O128 1.240 . S
C121 O129 1.252 . S
C122 O125 1.252 . S
C122 O126 1.260 . S
O123 In117 2.266 . S
O123 C120 1.252 . S
O124 In117 2.326 . S
O124 C120 1.260 . S
O125 In117 2.266 . S
O125 C122 1.252 . S
O126 In117 2.326 . S
O126 C122 1.260 . S
C127 O118 1.240 . S
C127 O119 1.252 . S
O128 In117 2.294 . S
O128 C121 1.240 . S
O129 In117 2.326 . S
O129 C121 1.252 . S
In130 O131 2.294 . S
In130 O132 2.326 . S
In130 O136 2.266 . S
In130 O137 2.326 . S
In130 O138 2.266 . S
In130 O139 2.326 . S
In130 O141 2.294 . S
In130 O142 2.326 . S
O131 In130 2.294 . S
O131 C140 1.240 . S
O132 In130 2.326 . S
O132 C140 1.252 . S
C133 O136 1.252 . S
C133 O137 1.260 . S
C134 O141 1.240 . S
C134 O142 1.252 . S
C135 O138 1.252 . S
C135 O139 1.260 . S
O136 In130 2.266 . S
O136 C133 1.252 . S
O137 In130 2.326 . S
O137 C133 1.260 . S
O138 In130 2.266 . S
O138 C135 1.252 . S
O139 In130 2.326 . S
O139 C135 1.260 . S
C140 O131 1.240 . S
C140 O132 1.252 . S
O141 In130 2.294 . S
O141 C134 1.240 . S
O142 In130 2.326 . S
O142 C134 1.252 . S
In143 O144 2.296 . S
In143 O145 2.329 . S
In143 O149 2.264 1_554 S
In143 O150 2.322 1_554 S
In143 O151 2.258 1_554 S
In143 O152 2.324 1_554 S
In143 O154 2.294 . S
In143 O155 2.321 . S
O144 In143 2.296 . S
O144 C153 1.240 . S
O145 In143 2.329 . S
O145 C153 1.252 . S
C146 O149 1.252 . S
C146 O150 1.260 . S
C147 O154 1.240 . S
C147 O155 1.254 . S
C148 O151 1.252 . S
C148 O152 1.258 . S
O149 In143 2.264 1_556 S
O149 C146 1.252 . S
O150 In143 2.322 1_556 S
O150 C146 1.260 . S
O151 In143 2.258 1_556 S
O151 C148 1.252 . S
O152 In143 2.324 1_556 S
O152 C148 1.258 . S
C153 O144 1.240 . S
C153 O145 1.252 . S
O154 In143 2.294 . S
O154 C147 1.240 . S
O155 In143 2.321 . S
O155 C147 1.254 . S
In156 O157 2.294 . S
In156 O158 2.326 . S
In156 O162 2.266 . S
In156 O163 2.326 1_554 S
In156 O164 2.266 . S
In156 O165 2.326 . S
In156 O167 2.294 . S
In156 O168 2.326 . S
O157 In156 2.294 . S
O157 C166 1.240 . S
O158 In156 2.326 . S
O158 C166 1.252 . S
C159 O162 1.252 1_556 S
C159 O163 1.260 . S
C160 O167 1.240 . S
C160 O168 1.252 . S
C161 O164 1.252 . S
C161 O165 1.260 . S
O162 In156 2.266 . S
O162 C159 1.252 1_554 S
O163 In156 2.326 1_556 S
O163 C159 1.260 . S
O164 In156 2.266 . S
O164 C161 1.252 . S
O165 In156 2.326 . S
O165 C161 1.260 . S
C166 O157 1.240 . S
C166 O158 1.252 . S
O167 In156 2.294 . S
O167 C160 1.240 . S
O168 In156 2.326 . S
O168 C160 1.252 . S
In169 O170 2.294 . S
In169 O171 2.326 . S
In169 O175 2.266 . S
In169 O176 2.326 . S
In169 O177 2.266 . S
In169 O178 2.326 . S
In169 O180 2.294 . S
In169 O181 2.326 . S
O170 In169 2.294 . S
O170 C179 1.240 . S
O171 In169 2.326 . S
O171 C179 1.252 . S
C172 O175 1.252 . S
C172 O176 1.260 . S
C173 O180 1.240 . S
C173 O181 1.252 . S
C174 O177 1.252 . S
C174 O178 1.260 . S
O175 In169 2.266 . S
O175 C172 1.252 . S
O176 In169 2.326 . S
O176 C172 1.260 . S
O177 In169 2.266 . S
O177 C174 1.252 . S
O178 In169 2.326 . S
O178 C174 1.260 . S
C179 O170 1.240 . S
C179 O171 1.252 . S
O180 In169 2.294 . S
O180 C173 1.240 . S
O181 In169 2.326 . S
O181 C173 1.252 . S
In182 O183 2.294 . S
In182 O184 2.326 . S
In182 O188 2.266 . S
In182 O189 2.326 . S
In182 O190 2.266 . S
In182 O191 2.326 . S
In182 O193 2.294 . S
In182 O194 2.326 . S
O183 In182 2.294 . S
O183 C192 1.240 . S
O184 In182 2.326 . S
O184 C192 1.252 . S
C185 O188 1.252 . S
C185 O189 1.260 . S
C186 O193 1.240 . S
C186 O194 1.252 . S
C187 O190 1.252 . S
C187 O191 1.260 . S
O188 In182 2.266 . S
O188 C185 1.252 . S
O189 In182 2.326 . S
O189 C185 1.260 . S
O190 In182 2.266 . S
O190 C187 1.252 . S
O191 In182 2.326 . S
O191 C187 1.260 . S
C192 O183 1.240 . S
C192 O184 1.252 . S
O193 In182 2.294 . S
O193 C186 1.240 . S
O194 In182 2.326 . S
O194 C186 1.252 . S
In195 O196 2.294 . S
In195 O197 2.326 . S
In195 O201 2.266 . S
In195 O202 2.326 . S
In195 O203 2.266 . S
In195 O204 2.326 . S
In195 O206 2.294 . S
In195 O207 2.326 . S
O196 In195 2.294 . S
O196 C205 1.240 . S
O197 In195 2.326 . S
O197 C205 1.252 . S
C198 O201 1.252 . S
C198 O202 1.260 . S
C199 O206 1.240 . S
C199 O207 1.252 . S
C200 O203 1.252 . S
C200 O204 1.260 . S
O201 In195 2.266 . S
O201 C198 1.252 . S
O202 In195 2.326 . S
O202 C198 1.260 . S
O203 In195 2.266 . S
O203 C200 1.252 . S
O204 In195 2.326 . S
O204 C200 1.260 . S
C205 O196 1.240 . S
C205 O197 1.252 . S
O206 In195 2.294 . S
O206 C199 1.240 . S
O207 In195 2.326 . S
O207 C199 1.252 . S
In208 O209 2.294 . S
In208 O210 2.326 . S
In208 O214 2.266 . S
In208 O215 2.326 . S
In208 O216 2.250 1_545 S
In208 O217 2.326 1_545 S
In208 O219 2.294 . S
In208 O220 2.326 . S
O209 In208 2.294 . S
O209 C218 1.240 . S
O210 In208 2.326 . S
O210 C218 1.252 . S
C211 O214 1.252 . S
C211 O215 1.260 . S
C212 O219 1.240 . S
C212 O220 1.252 . S
C213 O216 1.276 . S
C213 O217 1.260 . S
O214 In208 2.266 . S
O214 C211 1.252 . S
O215 In208 2.326 . S
O215 C211 1.260 . S
O216 In208 2.250 1_565 S
O216 C213 1.276 . S
O217 In208 2.326 1_565 S
O217 C213 1.260 . S
C218 O209 1.240 . S
C218 O210 1.252 . S
O219 In208 2.294 . S
O219 C212 1.240 . S
O220 In208 2.326 . S
O220 C212 1.252 . S
In221 O222 2.294 . S
In221 O223 2.326 . S
In221 O227 2.266 . S
In221 O228 2.326 . S
In221 O229 2.266 . S
In221 O230 2.326 . S
In221 O232 2.294 . S
In221 O233 2.326 . S
O222 In221 2.294 . S
O222 C231 1.240 . S
O223 In221 2.326 . S
O223 C231 1.252 . S
C224 O227 1.252 . S
C224 O228 1.260 . S
C225 O232 1.240 . S
C225 O233 1.252 . S
C226 O229 1.252 . S
C226 O230 1.260 . S
O227 In221 2.266 . S
O227 C224 1.252 . S
O228 In221 2.326 . S
O228 C224 1.260 . S
O229 In221 2.266 . S
O229 C226 1.252 . S
O230 In221 2.326 . S
O230 C226 1.260 . S
C231 O222 1.240 . S
C231 O223 1.252 . S
O232 In221 2.294 . S
O232 C225 1.240 . S
O233 In221 2.326 . S
O233 C225 1.252 . S
In234 O235 2.294 . S
In234 O236 2.326 . S
In234 O240 2.266 . S
In234 O241 2.326 . S
In234 O242 2.266 . S
In234 O243 2.326 . S
In234 O245 2.294 . S
In234 O246 2.326 . S
O235 In234 2.294 . S
O235 C244 1.240 . S
O236 In234 2.326 . S
O236 C244 1.252 . S
C237 O240 1.252 . S
C237 O241 1.260 . S
C238 O245 1.240 . S
C238 O246 1.252 . S
C239 O242 1.252 . S
C239 O243 1.260 . S
O240 In234 2.266 . S
O240 C237 1.252 . S
O241 In234 2.326 . S
O241 C237 1.260 . S
O242 In234 2.266 . S
O242 C239 1.252 . S
O243 In234 2.326 . S
O243 C239 1.260 . S
C244 O235 1.240 . S
C244 O236 1.252 . S
O245 In234 2.294 . S
O245 C238 1.240 . S
O246 In234 2.326 . S
O246 C238 1.252 . S
In247 O248 2.294 . S
In247 O249 2.326 . S
In247 O253 2.266 . S
In247 O254 2.326 . S
In247 O255 2.266 . S
In247 O256 2.326 . S
In247 O258 2.294 . S
In247 O259 2.326 . S
O248 In247 2.294 . S
O248 C257 1.240 . S
O249 In247 2.326 . S
O249 C257 1.252 . S
C250 O253 1.252 . S
C250 O254 1.260 . S
C251 O258 1.240 . S
C251 O259 1.252 . S
C252 O255 1.252 . S
C252 O256 1.260 . S
O253 In247 2.266 . S
O253 C250 1.252 . S
O254 In247 2.326 . S
O254 C250 1.260 . S
O255 In247 2.266 . S
O255 C252 1.252 . S
O256 In247 2.326 . S
O256 C252 1.260 . S
C257 O248 1.240 . S
C257 O249 1.252 . S
O258 In247 2.294 . S
O258 C251 1.240 . S
O259 In247 2.326 . S
O259 C251 1.252 . S
In260 O261 2.294 . S
In260 O262 2.326 . S
In260 O266 2.266 . S
In260 O267 2.326 . S
In260 O268 2.266 . S
In260 O269 2.326 1_554 S
In260 O271 2.294 . S
In260 O272 2.326 . S
O261 In260 2.294 . S
O261 C270 1.240 . S
O262 In260 2.326 . S
O262 C270 1.252 . S
C263 O266 1.252 . S
C263 O267 1.260 . S
C264 O271 1.240 . S
C264 O272 1.252 . S
C265 O268 1.252 1_556 S
C265 O269 1.260 . S
O266 In260 2.266 . S
O266 C263 1.252 . S
O267 In260 2.326 . S
O267 C263 1.260 . S
O268 In260 2.266 . S
O268 C265 1.252 1_554 S
O269 In260 2.326 1_556 S
O269 C265 1.260 . S
C270 O261 1.240 . S
C270 O262 1.252 . S
O271 In260 2.294 . S
O271 C264 1.240 . S
O272 In260 2.326 . S
O272 C264 1.252 . S
In273 O274 2.294 . S
In273 O275 2.326 . S
In273 O279 2.266 . S
In273 O280 2.326 . S
In273 O281 2.266 . S
In273 O282 2.326 . S
In273 O284 2.294 . S
In273 O285 2.326 . S
O274 In273 2.294 . S
O274 C283 1.240 . S
O275 In273 2.326 . S
O275 C283 1.252 . S
C276 O279 1.252 . S
C276 O280 1.260 . S
C277 O284 1.240 . S
C277 O285 1.252 . S
C278 O281 1.252 . S
C278 O282 1.260 . S
O279 In273 2.266 . S
O279 C276 1.252 . S
O280 In273 2.326 . S
O280 C276 1.260 . S
O281 In273 2.266 . S
O281 C278 1.252 . S
O282 In273 2.326 . S
O282 C278 1.260 . S
C283 O274 1.240 . S
C283 O275 1.252 . S
O284 In273 2.294 . S
O284 C277 1.240 . S
O285 In273 2.326 . S
O285 C277 1.252 . S
In286 O287 2.294 . S
In286 O288 2.326 . S
In286 O292 2.266 . S
In286 O293 2.326 . S
In286 O294 2.266 . S
In286 O295 2.326 . S
In286 O297 2.294 . S
In286 O298 2.326 . S
O287 In286 2.294 . S
O287 C296 1.240 . S
O288 In286 2.326 . S
O288 C296 1.252 . S
C289 O292 1.252 . S
C289 O293 1.260 . S
C290 O297 1.240 . S
C290 O298 1.252 . S
C291 O294 1.252 . S
C291 O295 1.260 . S
O292 In286 2.266 . S
O292 C289 1.252 . S
O293 In286 2.326 . S
O293 C289 1.260 . S
O294 In286 2.266 . S
O294 C291 1.252 . S
O295 In286 2.326 . S
O295 C291 1.260 . S
C296 O287 1.240 . S
C296 O288 1.252 . S
O297 In286 2.294 . S
O297 C290 1.240 . S
O298 In286 2.326 . S
O298 C290 1.252 . S
In299 O300 2.294 . S
In299 O301 2.326 . S
In299 O305 2.266 . S
In299 O306 2.326 . S
In299 O307 2.266 . S
In299 O308 2.326 . S
In299 O310 2.294 . S
In299 O311 2.326 . S
O300 In299 2.294 . S
O300 C309 1.240 . S
O301 In299 2.326 . S
O301 C309 1.252 . S
C302 O305 1.252 . S
C302 O306 1.260 . S
C303 O310 1.240 . S
C303 O311 1.252 . S
C304 O307 1.252 . S
C304 O308 1.260 . S
O305 In299 2.266 . S
O305 C302 1.252 . S
O306 In299 2.326 . S
O306 C302 1.260 . S
O307 In299 2.266 . S
O307 C304 1.252 . S
O308 In299 2.326 . S
O308 C304 1.260 . S
C309 O300 1.240 . S
C309 O301 1.252 . S
O310 In299 2.294 . S
O310 C303 1.240 . S
O311 In299 2.326 . S
O311 C303 1.252 . S
Dy312 O315 2.307 . S
Dy312 O317 2.395 . S
Dy312 O318 2.379 . S
Dy312 O320 2.339 . S
Dy312 O322 2.298 . S
Dy312 O326 2.275 . S
Dy312 C334 2.738 . S
Dy313 O316 2.298 . S
Dy313 O319 2.275 . S
Dy313 O321 2.307 . S
Dy313 O323 2.395 1_455 S
Dy313 O324 2.379 1_455 S
Dy313 O327 2.339 1_554 S
Dy313 C343 2.738 1_455 S
C314 O326 1.254 . S
C314 O327 1.257 1_554 S
O315 Dy312 2.307 . S
O315 C325 1.266 . S
O316 Dy313 2.298 . S
O316 C325 1.236 . S
O317 Dy312 2.395 . S
O317 C334 1.255 . S
O318 Dy312 2.379 . S
O318 C334 1.249 . S
O319 Dy313 2.275 . S
O319 C335 1.254 . S
O320 Dy312 2.339 . S
O320 C335 1.257 . S
O321 Dy313 2.307 . S
O321 C336 1.266 . S
O322 Dy312 2.298 . S
O322 C336 1.236 . S
O323 Dy313 2.395 1_655 S
O323 C343 1.255 . S
O324 Dy313 2.379 1_655 S
O324 C343 1.249 . S
C325 O315 1.266 . S
C325 O316 1.236 . S
O326 Dy312 2.275 . S
O326 C314 1.254 . S
O327 Dy313 2.339 1_556 S
O327 C314 1.257 1_556 S
C328 C331 1.344 . S
C328 C332 1.328 . S
C328 C334 1.516 . S
C329 C330 1.304 . S
C329 C333 1.323 . S
C330 C329 1.304 . S
C330 C331 1.371 . S
C330 H344 0.930 . S
C331 C328 1.344 . S
C331 C330 1.371 . S
C331 H345 0.931 . S
C332 C328 1.328 . S
C332 C333 1.433 . S
C332 H346 0.931 . S
C333 C329 1.323 . S
C333 C332 1.433 . S
C333 H347 0.933 . S
C334 Dy312 2.738 . S
C334 O317 1.255 . S
C334 O318 1.249 . S
C334 C328 1.516 . S
C335 O319 1.254 . S
C335 O320 1.257 . S
C336 O321 1.266 . S
C336 O322 1.236 . S
C337 C340 1.344 . S
C337 C341 1.328 . S
C337 C343 1.516 . S
C338 C339 1.304 . S
C338 C342 1.323 . S
C339 C338 1.304 . S
C339 C340 1.371 . S
C339 H348 0.930 . S
C340 C337 1.344 . S
C340 C339 1.371 . S
C340 H349 0.931 . S
C341 C337 1.328 . S
C341 C342 1.433 . S
C341 H350 0.931 1_554 S
C342 C338 1.323 . S
C342 C341 1.433 . S
C342 H351 0.933 1_554 S
C343 Dy313 2.738 1_655 S
C343 O323 1.255 . S
C343 O324 1.249 . S
C343 C337 1.516 . S
H344 C330 0.930 . S
H345 C331 0.931 . S
H346 C332 0.931 . S
H347 C333 0.933 . S
H348 C339 0.930 . S
H349 C340 0.931 . S
H350 C341 0.931 1_556 S
H351 C342 0.933 1_556 S
Dy352 O355 2.307 . S
Dy352 O357 2.395 . S
Dy352 O358 2.379 . S
Dy352 O360 2.339 . S
Dy352 O362 2.298 . S
Dy352 O366 2.275 . S
Dy352 C374 2.738 . S
Dy353 O356 2.298 . S
Dy353 O359 2.275 . S
Dy353 O361 2.307 . S
Dy353 O363 2.395 . S
Dy353 O364 2.379 . S
Dy353 O367 2.339 . S
Dy353 C383 2.738 . S
C354 O366 1.254 . S
C354 O367 1.257 . S
O355 Dy352 2.307 . S
O355 C365 1.266 . S
O356 Dy353 2.298 . S
O356 C365 1.236 . S
O357 Dy352 2.395 . S
O357 C374 1.255 . S
O358 Dy352 2.379 . S
O358 C374 1.249 . S
O359 Dy353 2.275 . S
O359 C375 1.254 . S
O360 Dy352 2.339 . S
O360 C375 1.257 . S
O361 Dy353 2.307 . S
O361 C376 1.266 . S
O362 Dy352 2.298 . S
O362 C376 1.236 . S
O363 Dy353 2.395 . S
O363 C383 1.255 . S
O364 Dy353 2.379 . S
O364 C383 1.249 . S
C365 O355 1.266 . S
C365 O356 1.236 . S
O366 Dy352 2.275 . S
O366 C354 1.254 . S
O367 Dy353 2.339 . S
O367 C354 1.257 . S
C368 C371 1.344 . S
C368 C372 1.328 . S
C368 C374 1.516 . S
C369 C370 1.304 . S
C369 C373 1.323 . S
C370 C369 1.304 . S
C370 C371 1.371 . S
C370 H384 0.930 . S
C371 C368 1.344 . S
C371 C370 1.371 . S
C371 H385 0.931 . S
C372 C368 1.328 . S
C372 C373 1.433 . S
C372 H386 0.931 . S
C373 C369 1.323 . S
C373 C372 1.433 . S
C373 H387 0.933 . S
C374 Dy352 2.738 . S
C374 O357 1.255 . S
C374 O358 1.249 . S
C374 C368 1.516 . S
C375 O359 1.254 . S
C375 O360 1.257 . S
C376 O361 1.266 . S
C376 O362 1.236 . S
C377 C380 1.344 . S
C377 C381 1.328 . S
C377 C383 1.516 . S
C378 C379 1.304 . S
C378 C382 1.323 . S
C379 C378 1.304 . S
C379 C380 1.371 . S
C379 H388 0.930 . S
C380 C377 1.344 . S
C380 C379 1.371 . S
C380 H389 0.931 . S
C381 C377 1.328 . S
C381 C382 1.433 . S
C381 H390 0.931 . S
C382 C378 1.323 . S
C382 C381 1.433 . S
C382 H391 0.933 . S
C383 Dy353 2.738 . S
C383 O363 1.255 . S
C383 O364 1.249 . S
C383 C377 1.516 . S
H384 C370 0.930 . S
H385 C371 0.931 . S
H386 C372 0.931 . S
H387 C373 0.933 . S
H388 C379 0.930 . S
H389 C380 0.931 . S
H390 C381 0.931 . S
H391 C382 0.933 . S
Dy392 O395 2.307 1_545 S
Dy392 O397 2.395 . S
Dy392 O398 2.379 . S
Dy392 O400 2.339 . S
Dy392 O402 2.298 . S
Dy392 O406 2.275 . S
Dy392 C414 2.738 . S
Dy393 O396 2.298 1_545 S
Dy393 O399 2.275 . S
Dy393 O401 2.307 . S
Dy393 O403 2.395 . S
Dy393 O404 2.379 . S
Dy393 O407 2.339 . S
Dy393 C423 2.738 . S
C394 O406 1.254 . S
C394 O407 1.257 . S
O395 Dy392 2.307 1_565 S
O395 C405 1.266 . S
O396 Dy393 2.298 1_565 S
O396 C405 1.236 . S
O397 Dy392 2.395 . S
O397 C414 1.255 . S
O398 Dy392 2.379 . S
O398 C414 1.249 . S
O399 Dy393 2.275 . S
O399 C415 1.254 . S
O400 Dy392 2.339 . S
O400 C415 1.257 . S
O401 Dy393 2.307 . S
O401 C416 1.266 . S
O402 Dy392 2.298 . S
O402 C416 1.236 . S
O403 Dy393 2.395 . S
O403 C423 1.255 . S
O404 Dy393 2.379 . S
O404 C423 1.249 . S
C405 O395 1.266 . S
C405 O396 1.236 . S
O406 Dy392 2.275 . S
O406 C394 1.254 . S
O407 Dy393 2.339 . S
O407 C394 1.257 . S
C408 C411 1.344 . S
C408 C412 1.328 . S
C408 C414 1.516 . S
C409 C410 1.304 . S
C409 C413 1.323 . S
C410 C409 1.304 . S
C410 C411 1.371 . S
C410 H424 0.930 . S
C411 C408 1.344 . S
C411 C410 1.371 . S
C411 H425 0.931 . S
C412 C408 1.328 . S
C412 C413 1.433 . S
C412 H426 0.931 . S
C413 C409 1.323 . S
C413 C412 1.433 . S
C413 H427 0.933 . S
C414 Dy392 2.738 . S
C414 O397 1.255 . S
C414 O398 1.249 . S
C414 C408 1.516 . S
C415 O399 1.254 . S
C415 O400 1.257 . S
C416 O401 1.266 . S
C416 O402 1.236 . S
C417 C420 1.344 . S
C417 C421 1.328 . S
C417 C423 1.516 1_565 S
C418 C419 1.304 . S
C418 C422 1.323 . S
C419 C418 1.304 . S
C419 C420 1.371 . S
C419 H428 0.930 . S
C420 C417 1.344 . S
C420 C419 1.371 . S
C420 H429 0.931 . S
C421 C417 1.328 . S
C421 C422 1.433 . S
C421 H430 0.956 . S
C422 C418 1.323 . S
C422 C421 1.433 . S
C422 H431 0.933 . S
C423 Dy393 2.738 . S
C423 O403 1.255 . S
C423 O404 1.249 . S
C423 C417 1.516 1_545 S
H424 C410 0.930 . S
H425 C411 0.931 . S
H426 C412 0.931 . S
H427 C413 0.933 . S
H428 C419 0.930 . S
H429 C420 0.931 . S
H430 C421 0.956 . S
H431 C422 0.933 . S
Dy432 O435 2.307 . S
Dy432 O437 2.395 . S
Dy432 O438 2.379 . S
Dy432 O440 2.339 . S
Dy432 O442 2.298 . S
Dy432 O446 2.275 . S
Dy432 C454 2.738 . S
Dy433 O436 2.298 . S
Dy433 O439 2.275 . S
Dy433 O441 2.307 . S
Dy433 O443 2.395 . S
Dy433 O444 2.379 . S
Dy433 O447 2.339 . S
Dy433 C463 2.738 . S
C434 O446 1.254 . S
C434 O447 1.257 . S
O435 Dy432 2.307 . S
O435 C445 1.266 . S
O436 Dy433 2.298 . S
O436 C445 1.236 . S
O437 Dy432 2.395 . S
O437 C454 1.255 . S
O438 Dy432 2.379 . S
O438 C454 1.249 . S
O439 Dy433 2.275 . S
O439 C455 1.254 . S
O440 Dy432 2.339 . S
O440 C455 1.257 . S
O441 Dy433 2.307 . S
O441 C456 1.266 . S
O442 Dy432 2.298 . S
O442 C456 1.236 . S
O443 Dy433 2.395 . S
O443 C463 1.255 . S
O444 Dy433 2.379 . S
O444 C463 1.249 . S
C445 O435 1.266 . S
C445 O436 1.236 . S
O446 Dy432 2.275 . S
O446 C434 1.254 . S
O447 Dy433 2.339 . S
O447 C434 1.257 . S
C448 C451 1.344 . S
C448 C452 1.328 . S
C448 C454 1.516 . S
C449 C450 1.304 . S
C449 C453 1.323 . S
C450 C449 1.304 . S
C450 C451 1.371 . S
C450 H464 0.930 . S
C451 C448 1.344 . S
C451 C450 1.371 . S
C451 H465 0.931 . S
C452 C448 1.328 . S
C452 C453 1.433 . S
C452 H466 0.931 . S
C453 C449 1.323 . S
C453 C452 1.433 . S
C453 H467 0.933 . S
C454 Dy432 2.738 . S
C454 O437 1.255 . S
C454 O438 1.249 . S
C454 C448 1.516 . S
C455 O439 1.254 . S
C455 O440 1.257 . S
C456 O441 1.266 . S
C456 O442 1.236 . S
C457 C460 1.344 . S
C457 C461 1.328 . S
C457 C463 1.516 . S
C458 C459 1.304 . S
C458 C462 1.323 . S
C459 C458 1.304 . S
C459 C460 1.371 . S
C459 H468 0.930 . S
C460 C457 1.344 . S
C460 C459 1.371 . S
C460 H469 0.931 . S
C461 C457 1.328 . S
C461 C462 1.433 . S
C461 H470 0.931 . S
C462 C458 1.323 . S
C462 C461 1.433 . S
C462 H471 0.933 . S
C463 Dy433 2.738 . S
C463 O443 1.255 . S
C463 O444 1.249 . S
C463 C457 1.516 . S
H464 C450 0.930 . S
H465 C451 0.931 . S
H466 C452 0.931 . S
H467 C453 0.933 . S
H468 C459 0.930 . S
H469 C460 0.931 . S
H470 C461 0.931 . S
H471 C462 0.933 . S
Dy472 O475 2.307 . S
Dy472 O477 2.395 1_545 S
Dy472 O478 2.379 1_545 S
Dy472 O480 2.339 . S
Dy472 O482 2.298 . S
Dy472 O486 2.275 . S
Dy472 C494 2.738 1_545 S
Dy473 O476 2.298 . S
Dy473 O479 2.275 . S
Dy473 O481 2.307 . S
Dy473 O483 2.395 . S
Dy473 O484 2.379 . S
Dy473 O487 2.339 1_455 S
Dy473 C503 2.738 . S
C474 O486 1.209 1_655 S
C474 O487 1.276 . S
O475 Dy472 2.307 . S
O475 C485 1.266 . S
O476 Dy473 2.298 . S
O476 C485 1.236 . S
O477 Dy472 2.395 1_565 S
O477 C494 1.255 . S
O478 Dy472 2.379 1_565 S
O478 C494 1.249 . S
O479 Dy473 2.275 . S
O479 C495 1.254 . S
O480 Dy472 2.339 . S
O480 C495 1.257 . S
O481 Dy473 2.307 . S
O481 C496 1.266 . S
O482 Dy472 2.298 . S
O482 C496 1.236 . S
O483 Dy473 2.395 . S
O483 C503 1.255 . S
O484 Dy473 2.379 . S
O484 C503 1.249 . S
C485 O475 1.266 . S
C485 O476 1.236 . S
O486 Dy472 2.275 . S
O486 C474 1.209 1_455 S
O487 Dy473 2.339 1_655 S
O487 C474 1.276 . S
C488 C491 1.344 . S
C488 C492 1.328 . S
C488 C494 1.516 . S
C489 C490 1.304 . S
C489 C493 1.323 . S
C490 C489 1.304 . S
C490 C491 1.371 . S
C490 H504 0.930 . S
C491 C488 1.344 . S
C491 C490 1.371 . S
C491 H505 0.931 . S
C492 C488 1.328 . S
C492 C493 1.433 . S
C492 H506 0.931 . S
C493 C489 1.323 . S
C493 C492 1.433 . S
C493 H507 0.933 . S
C494 Dy472 2.738 1_565 S
C494 O477 1.255 . S
C494 O478 1.249 . S
C494 C488 1.516 . S
C495 O479 1.254 . S
C495 O480 1.257 . S
C496 O481 1.266 . S
C496 O482 1.236 . S
C497 C500 1.344 . S
C497 C501 1.328 . S
C497 C503 1.516 . S
C498 C499 1.304 . S
C498 C502 1.323 . S
C499 C498 1.304 . S
C499 C500 1.371 . S
C499 H508 0.930 . S
C500 C497 1.344 . S
C500 C499 1.371 . S
C500 H509 0.931 . S
C501 C497 1.328 . S
C501 C502 1.433 . S
C501 H510 0.931 1_455 S
C502 C498 1.323 . S
C502 C501 1.433 . S
C502 H511 0.933 1_455 S
C503 Dy473 2.738 . S
C503 O483 1.255 . S
C503 O484 1.249 . S
C503 C497 1.516 . S
H504 C490 0.930 . S
H505 C491 0.931 . S
H506 C492 0.931 . S
H507 C493 0.933 . S
H508 C499 0.930 . S
H509 C500 0.931 . S
H510 C501 0.931 1_655 S
H511 C502 0.933 1_655 S
Dy512 O515 2.307 . S
Dy512 O517 2.395 . S
Dy512 O518 2.379 . S
Dy512 O520 2.339 . S
Dy512 O522 2.298 . S
Dy512 O526 2.275 . S
Dy512 C534 2.738 . S
Dy513 O516 2.298 . S
Dy513 O519 2.275 . S
Dy513 O521 2.307 . S
Dy513 O523 2.395 . S
Dy513 O524 2.379 . S
Dy513 O527 2.339 . S
Dy513 C543 2.738 . S
C514 O526 1.254 . S
C514 O527 1.257 . S
O515 Dy512 2.307 . S
O515 C525 1.266 . S
O516 Dy513 2.298 . S
O516 C525 1.236 . S
O517 Dy512 2.395 . S
O517 C534 1.255 . S
O518 Dy512 2.379 . S
O518 C534 1.249 . S
O519 Dy513 2.275 . S
O519 C535 1.254 . S
O520 Dy512 2.339 . S
O520 C535 1.257 . S
O521 Dy513 2.307 . S
O521 C536 1.266 . S
O522 Dy512 2.298 . S
O522 C536 1.236 . S
O523 Dy513 2.395 . S
O523 C543 1.255 . S
O524 Dy513 2.379 . S
O524 C543 1.249 . S
C525 O515 1.266 . S
C525 O516 1.236 . S
O526 Dy512 2.275 . S
O526 C514 1.254 . S
O527 Dy513 2.339 . S
O527 C514 1.257 . S
C528 C531 1.344 . S
C528 C532 1.328 . S
C528 C534 1.516 . S
C529 C530 1.304 . S
C529 C533 1.323 . S
C530 C529 1.304 . S
C530 C531 1.371 . S
C530 H544 0.930 . S
C531 C528 1.344 . S
C531 C530 1.371 . S
C531 H545 0.931 . S
C532 C528 1.328 . S
C532 C533 1.433 . S
C532 H546 0.931 . S
C533 C529 1.323 . S
C533 C532 1.433 . S
C533 H547 0.933 . S
C534 Dy512 2.738 . S
C534 O517 1.255 . S
C534 O518 1.249 . S
C534 C528 1.516 . S
C535 O519 1.254 . S
C535 O520 1.257 . S
C536 O521 1.266 . S
C536 O522 1.236 . S
C537 C540 1.344 . S
C537 C541 1.328 . S
C537 C543 1.516 . S
C538 C539 1.304 . S
C538 C542 1.323 . S
C539 C538 1.304 . S
C539 C540 1.371 . S
C539 H548 0.930 . S
C540 C537 1.344 . S
C540 C539 1.371 . S
C540 H549 0.931 . S
C541 C537 1.328 . S
C541 C542 1.433 . S
C541 H550 0.931 . S
C542 C538 1.323 . S
C542 C541 1.433 . S
C542 H551 0.933 . S
C543 Dy513 2.738 . S
C543 O523 1.255 . S
C543 O524 1.249 . S
C543 C537 1.516 . S
H544 C530 0.930 . S
H545 C531 0.931 . S
H546 C532 0.931 . S
H547 C533 0.933 . S
H548 C539 0.930 . S
H549 C540 0.931 . S
H550 C541 0.931 . S
H551 C542 0.933 . S
Dy552 O555 2.307 1_556 S
Dy552 O557 2.395 . S
Dy552 O558 2.379 . S
Dy552 O560 2.339 1_556 S
Dy552 O562 2.298 1_556 S
Dy552 O566 2.275 1_556 S
Dy552 C574 2.738 . S
Dy553 O556 2.298 . S
Dy553 O559 2.275 . S
Dy553 O561 2.307 . S
Dy553 O563 2.395 . S
Dy553 O564 2.379 . S
Dy553 O567 2.339 . S
Dy553 C583 2.738 . S
C554 O566 1.254 . S
C554 O567 1.257 . S
O555 Dy552 2.307 1_554 S
O555 C565 1.266 . S
O556 Dy553 2.298 . S
O556 C565 1.236 . S
O557 Dy552 2.395 . S
O557 C574 1.255 . S
O558 Dy552 2.379 . S
O558 C574 1.249 . S
O559 Dy553 2.275 . S
O559 C575 1.254 . S
O560 Dy552 2.339 1_554 S
O560 C575 1.257 . S
O561 Dy553 2.307 . S
O561 C576 1.266 . S
O562 Dy552 2.298 1_554 S
O562 C576 1.236 . S
O563 Dy553 2.395 . S
O563 C583 1.255 . S
O564 Dy553 2.379 . S
O564 C583 1.249 . S
C565 O555 1.266 . S
C565 O556 1.236 . S
O566 Dy552 2.275 1_554 S
O566 C554 1.254 . S
O567 Dy553 2.339 . S
O567 C554 1.257 . S
C568 C571 1.344 . S
C568 C572 1.328 . S
C568 C574 1.516 . S
C569 C570 1.304 . S
C569 C573 1.323 . S
C570 C569 1.304 . S
C570 C571 1.371 . S
C570 H584 0.930 . S
C571 C568 1.344 . S
C571 C570 1.371 . S
C571 H585 0.931 . S
C572 C568 1.328 . S
C572 C573 1.433 . S
C572 H586 0.931 . S
C573 C569 1.323 . S
C573 C572 1.433 . S
C573 H587 0.933 . S
C574 Dy552 2.738 . S
C574 O557 1.255 . S
C574 O558 1.249 . S
C574 C568 1.516 . S
C575 O559 1.254 . S
C575 O560 1.257 . S
C576 O561 1.266 . S
C576 O562 1.236 . S
C577 C580 1.344 . S
C577 C581 1.328 1_545 S
C577 C583 1.516 . S
C578 C579 1.304 . S
C578 C582 1.323 1_545 S
C579 C578 1.304 . S
C579 C580 1.371 . S
C579 H588 0.930 . S
C580 C577 1.344 . S
C580 C579 1.371 . S
C580 H589 0.931 . S
C581 C577 1.328 1_565 S
C581 C582 1.433 . S
C581 H590 0.931 . S
C582 C578 1.323 1_565 S
C582 C581 1.433 . S
C582 H591 0.933 . S
C583 Dy553 2.738 . S
C583 O563 1.255 . S
C583 O564 1.249 . S
C583 C577 1.516 . S
H584 C570 0.930 . S
H585 C571 0.931 . S
H586 C572 0.931 . S
H587 C573 0.933 . S
H588 C579 0.930 . S
H589 C580 0.931 . S
H590 C581 0.931 . S
H591 C582 0.933 . S
Dy592 O595 2.307 . S
Dy592 O597 2.395 . S
Dy592 O598 2.379 . S
Dy592 O600 2.339 . S
Dy592 O602 2.298 . S
Dy592 O606 2.275 . S
Dy592 C614 2.738 . S
Dy593 O596 2.298 . S
Dy593 O599 2.275 . S
Dy593 O601 2.307 . S
Dy593 O603 2.395 . S
Dy593 O604 2.379 . S
Dy593 O607 2.339 . S
Dy593 C623 2.738 . S
C594 O606 1.254 . S
C594 O607 1.257 . S
O595 Dy592 2.307 . S
O595 C605 1.266 . S
O596 Dy593 2.298 . S
O596 C605 1.236 . S
O597 Dy592 2.395 . S
O597 C614 1.255 . S
O598 Dy592 2.379 . S
O598 C614 1.249 . S
O599 Dy593 2.275 . S
O599 C615 1.254 . S
O600 Dy592 2.339 . S
O600 C615 1.257 . S
O601 Dy593 2.307 . S
O601 C616 1.266 . S
O602 Dy592 2.298 . S
O602 C616 1.236 . S
O603 Dy593 2.395 . S
O603 C623 1.255 . S
O604 Dy593 2.379 . S
O604 C623 1.249 . S
C605 O595 1.266 . S
C605 O596 1.236 . S
O606 Dy592 2.275 . S
O606 C594 1.254 . S
O607 Dy593 2.339 . S
O607 C594 1.257 . S
C608 C611 1.344 . S
C608 C612 1.328 . S
C608 C614 1.516 . S
C609 C610 1.304 . S
C609 C613 1.323 . S
C610 C609 1.304 . S
C610 C611 1.371 . S
C610 H624 0.930 . S
C611 C608 1.344 . S
C611 C610 1.371 . S
C611 H625 0.931 . S
C612 C608 1.328 . S
C612 C613 1.433 . S
C612 H626 0.931 . S
C613 C609 1.323 . S
C613 C612 1.433 . S
C613 H627 0.933 . S
C614 Dy592 2.738 . S
C614 O597 1.255 . S
C614 O598 1.249 . S
C614 C608 1.516 . S
C615 O599 1.254 . S
C615 O600 1.257 . S
C616 O601 1.266 . S
C616 O602 1.236 . S
C617 C620 1.344 . S
C617 C621 1.328 . S
C617 C623 1.516 . S
C618 C619 1.304 . S
C618 C622 1.323 . S
C619 C618 1.304 . S
C619 C620 1.371 . S
C619 H628 0.930 . S
C620 C617 1.344 . S
C620 C619 1.371 . S
C620 H629 0.931 . S
C621 C617 1.328 . S
C621 C622 1.433 . S
C621 H630 0.931 . S
C622 C618 1.323 . S
C622 C621 1.433 . S
C622 H631 0.933 . S
C623 Dy593 2.738 . S
C623 O603 1.255 . S
C623 O604 1.249 . S
C623 C617 1.516 . S
H624 C610 0.930 . S
H625 C611 0.931 . S
H626 C612 0.931 . S
H627 C613 0.933 . S
H628 C619 0.930 . S
H629 C620 0.931 . S
H630 C621 0.931 . S
H631 C622 0.933 . S
Dy632 O635 2.307 1_554 S
Dy632 O637 2.395 . S
Dy632 O638 2.379 . S
Dy632 O640 2.339 . S
Dy632 O642 2.298 . S
Dy632 O646 2.275 . S
Dy632 C654 2.738 . S
Dy633 O636 2.298 1_554 S
Dy633 O639 2.275 . S
Dy633 O641 2.307 . S
Dy633 O643 2.395 . S
Dy633 O644 2.379 . S
Dy633 O647 2.339 . S
Dy633 C663 2.738 . S
C634 O646 1.254 . S
C634 O647 1.257 . S
O635 Dy632 2.307 1_556 S
O635 C645 1.266 . S
O636 Dy633 2.298 1_556 S
O636 C645 1.236 . S
O637 Dy632 2.395 . S
O637 C654 1.255 . S
O638 Dy632 2.379 . S
O638 C654 1.249 . S
O639 Dy633 2.275 . S
O639 C655 1.254 . S
O640 Dy632 2.339 . S
O640 C655 1.257 . S
O641 Dy633 2.307 . S
O641 C656 1.266 . S
O642 Dy632 2.298 . S
O642 C656 1.236 . S
O643 Dy633 2.395 . S
O643 C663 1.255 . S
O644 Dy633 2.379 . S
O644 C663 1.249 . S
C645 O635 1.266 . S
C645 O636 1.236 . S
O646 Dy632 2.275 . S
O646 C634 1.254 . S
O647 Dy633 2.339 . S
O647 C634 1.257 . S
C648 C651 1.344 . S
C648 C652 1.328 . S
C648 C654 1.516 . S
C649 C650 1.304 . S
C649 C653 1.323 . S
C650 C649 1.304 . S
C650 C651 1.371 . S
C650 H664 0.930 . S
C651 C648 1.344 . S
C651 C650 1.371 . S
C651 H665 0.931 . S
C652 C648 1.328 . S
C652 C653 1.433 . S
C652 H666 0.931 . S
C653 C649 1.323 . S
C653 C652 1.433 . S
C653 H667 0.933 . S
C654 Dy632 2.738 . S
C654 O637 1.255 . S
C654 O638 1.249 . S
C654 C648 1.516 . S
C655 O639 1.254 . S
C655 O640 1.257 . S
C656 O641 1.266 . S
C656 O642 1.236 . S
C657 C660 1.344 . S
C657 C661 1.328 . S
C657 C663 1.516 1_556 S
C658 C659 1.304 . S
C658 C662 1.323 . S
C659 C658 1.304 . S
C659 C660 1.371 . S
C659 H668 0.930 . S
C660 C657 1.344 . S
C660 C659 1.371 . S
C660 H669 0.931 . S
C661 C657 1.328 . S
C661 C662 1.433 . S
C661 H670 0.931 . S
C662 C658 1.323 . S
C662 C661 1.433 . S
C662 H671 0.933 . S
C663 Dy633 2.738 . S
C663 O643 1.255 . S
C663 O644 1.249 . S
C663 C657 1.516 1_554 S
H664 C650 0.930 . S
H665 C651 0.931 . S
H666 C652 0.931 . S
H667 C653 0.933 . S
H668 C659 0.930 . S
H669 C660 0.931 . S
H670 C661 0.931 . S
H671 C662 0.933 . S
Dy672 O675 2.307 . S
Dy672 O677 2.395 . S
Dy672 O678 2.379 . S
Dy672 O680 2.339 . S
Dy672 O682 2.298 . S
Dy672 O686 2.275 . S
Dy672 C694 2.738 . S
Dy673 O676 2.298 . S
Dy673 O679 2.275 . S
Dy673 O681 2.307 . S
Dy673 O683 2.395 . S
Dy673 O684 2.379 . S
Dy673 O687 2.339 . S
Dy673 C703 2.738 . S
C674 O686 1.254 . S
C674 O687 1.257 . S
O675 Dy672 2.307 . S
O675 C685 1.266 . S
O676 Dy673 2.298 . S
O676 C685 1.236 . S
O677 Dy672 2.395 . S
O677 C694 1.255 . S
O678 Dy672 2.379 . S
O678 C694 1.249 . S
O679 Dy673 2.275 . S
O679 C695 1.254 . S
O680 Dy672 2.339 . S
O680 C695 1.257 . S
O681 Dy673 2.307 . S
O681 C696 1.266 . S
O682 Dy672 2.298 . S
O682 C696 1.236 . S
O683 Dy673 2.395 . S
O683 C703 1.255 . S
O684 Dy673 2.379 . S
O684 C703 1.249 . S
C685 O675 1.266 . S
C685 O676 1.236 . S
O686 Dy672 2.275 . S
O686 C674 1.254 . S
O687 Dy673 2.339 . S
O687 C674 1.257 . S
C688 C691 1.344 . S
C688 C692 1.328 . S
C688 C694 1.516 . S
C689 C690 1.304 . S
C689 C693 1.323 . S
C690 C689 1.304 . S
C690 C691 1.371 . S
C690 H704 0.930 . S
C691 C688 1.344 . S
C691 C690 1.371 . S
C691 H705 0.931 . S
C692 C688 1.328 . S
C692 C693 1.433 . S
C692 H706 0.931 . S
C693 C689 1.323 . S
C693 C692 1.433 . S
C693 H707 0.933 . S
C694 Dy672 2.738 . S
C694 O677 1.255 . S
C694 O678 1.249 . S
C694 C688 1.516 . S
C695 O679 1.254 . S
C695 O680 1.257 . S
C696 O681 1.266 . S
C696 O682 1.236 . S
C697 C700 1.344 . S
C697 C701 1.328 . S
C697 C703 1.516 . S
C698 C699 1.304 . S
C698 C702 1.323 . S
C699 C698 1.304 . S
C699 C700 1.371 . S
C699 H708 0.930 . S
C700 C697 1.344 . S
C700 C699 1.371 . S
C700 H709 0.931 . S
C701 C697 1.328 . S
C701 C702 1.433 . S
C701 H710 0.931 . S
C702 C698 1.323 . S
C702 C701 1.433 . S
C702 H711 0.933 . S
C703 Dy673 2.738 . S
C703 O683 1.255 . S
C703 O684 1.249 . S
C703 C697 1.516 . S
H704 C690 0.930 . S
H705 C691 0.931 . S
H706 C692 0.931 . S
H707 C693 0.933 . S
H708 C699 0.930 . S
H709 C700 0.931 . S
H710 C701 0.931 . S
H711 C702 0.933 . S
Dy712 O715 2.307 1_455 S
Dy712 O717 2.395 . S
Dy712 O718 2.379 . S
Dy712 O720 2.339 . S
Dy712 O722 2.298 . S
Dy712 O726 2.275 . S
Dy712 C734 2.738 . S
Dy713 O716 2.298 1_455 S
Dy713 O719 2.275 . S
Dy713 O721 2.307 . S
Dy713 O723 2.359 1_455 S
Dy713 O724 2.379 . S
Dy713 O727 2.339 . S
Dy713 C743 2.738 1_455 S
C714 O726 1.254 . S
C714 O727 1.257 . S
O715 Dy712 2.307 1_655 S
O715 C725 1.266 . S
O716 Dy713 2.298 1_655 S
O716 C725 1.236 . S
O717 Dy712 2.395 . S
O717 C734 1.255 . S
O718 Dy712 2.379 . S
O718 C734 1.249 . S
O719 Dy713 2.275 . S
O719 C735 1.254 . S
O720 Dy712 2.339 . S
O720 C735 1.257 . S
O721 Dy713 2.307 . S
O721 C736 1.266 . S
O722 Dy712 2.298 . S
O722 C736 1.236 . S
O723 Dy713 2.359 1_655 S
O723 C743 1.251 . S
O724 Dy713 2.379 . S
O724 C743 1.249 1_455 S
C725 O715 1.266 . S
C725 O716 1.236 . S
O726 Dy712 2.275 . S
O726 C714 1.254 . S
O727 Dy713 2.339 . S
O727 C714 1.257 . S
C728 C731 1.344 . S
C728 C732 1.328 . S
C728 C734 1.516 . S
C729 C730 1.304 . S
C729 C733 1.323 . S
C730 C729 1.304 . S
C730 C731 1.371 . S
C730 H744 0.930 . S
C731 C728 1.344 . S
C731 C730 1.371 . S
C731 H745 0.931 . S
C732 C728 1.328 . S
C732 C733 1.433 . S
C732 H746 0.931 . S
C733 C729 1.323 . S
C733 C732 1.433 . S
C733 H747 0.933 . S
C734 Dy712 2.738 . S
C734 O717 1.255 . S
C734 O718 1.249 . S
C734 C728 1.516 . S
C735 O719 1.254 . S
C735 O720 1.257 . S
C736 O721 1.266 . S
C736 O722 1.236 . S
C737 C740 1.344 . S
C737 C741 1.328 . S
C737 C743 1.516 . S
C738 C739 1.304 . S
C738 C742 1.323 . S
C739 C738 1.304 . S
C739 C740 1.371 . S
C739 H748 0.930 . S
C740 C737 1.344 . S
C740 C739 1.371 . S
C740 H749 0.931 . S
C741 C737 1.328 . S
C741 C742 1.433 . S
C741 H750 0.931 . S
C742 C738 1.323 . S
C742 C741 1.433 . S
C742 H751 0.933 . S
C743 Dy713 2.738 1_655 S
C743 O723 1.251 . S
C743 O724 1.249 1_655 S
C743 C737 1.516 . S
H744 C730 0.930 . S
H745 C731 0.931 . S
H746 C732 0.931 . S
H747 C733 0.933 . S
H748 C739 0.930 . S
H749 C740 0.931 . S
H750 C741 0.931 . S
H751 C742 0.933 . S
Dy752 O755 2.307 . S
Dy752 O757 2.395 . S
Dy752 O758 2.379 . S
Dy752 O760 2.339 . S
Dy752 O762 2.298 . S
Dy752 O766 2.275 . S
Dy752 C774 2.738 . S
Dy753 O756 2.298 . S
Dy753 O759 2.275 . S
Dy753 O761 2.307 . S
Dy753 O763 2.395 . S
Dy753 O764 2.379 . S
Dy753 O767 2.339 . S
Dy753 C783 2.738 . S
C754 O766 1.254 . S
C754 O767 1.257 . S
O755 Dy752 2.307 . S
O755 C765 1.266 . S
O756 Dy753 2.298 . S
O756 C765 1.236 . S
O757 Dy752 2.395 . S
O757 C774 1.255 . S
O758 Dy752 2.379 . S
O758 C774 1.249 . S
O759 Dy753 2.275 . S
O759 C775 1.254 . S
O760 Dy752 2.339 . S
O760 C775 1.257 . S
O761 Dy753 2.307 . S
O761 C776 1.266 . S
O762 Dy752 2.298 . S
O762 C776 1.236 . S
O763 Dy753 2.395 . S
O763 C783 1.255 . S
O764 Dy753 2.379 . S
O764 C783 1.249 . S
C765 O755 1.266 . S
C765 O756 1.236 . S
O766 Dy752 2.275 . S
O766 C754 1.254 . S
O767 Dy753 2.339 . S
O767 C754 1.257 . S
C768 C771 1.344 . S
C768 C772 1.328 . S
C768 C774 1.516 . S
C769 C770 1.304 . S
C769 C773 1.323 . S
C770 C769 1.304 . S
C770 C771 1.371 . S
C770 H784 0.930 . S
C771 C768 1.344 . S
C771 C770 1.371 . S
C771 H785 0.931 . S
C772 C768 1.328 . S
C772 C773 1.433 . S
C772 H786 0.931 . S
C773 C769 1.323 . S
C773 C772 1.433 . S
C773 H787 0.933 . S
C774 Dy752 2.738 . S
C774 O757 1.255 . S
C774 O758 1.249 . S
C774 C768 1.516 . S
C775 O759 1.254 . S
C775 O760 1.257 . S
C776 O761 1.266 . S
C776 O762 1.236 . S
C777 C780 1.344 . S
C777 C781 1.328 . S
C777 C783 1.516 . S
C778 C779 1.304 . S
C778 C782 1.323 . S
C779 C778 1.304 . S
C779 C780 1.371 . S
C779 H788 0.930 . S
C780 C777 1.344 . S
C780 C779 1.371 . S
C780 H789 0.931 . S
C781 C777 1.328 . S
C781 C782 1.433 . S
C781 H790 0.931 . S
C782 C778 1.323 . S
C782 C781 1.433 . S
C782 H791 0.933 . S
C783 Dy753 2.738 . S
C783 O763 1.255 . S
C783 O764 1.249 . S
C783 C777 1.516 . S
H784 C770 0.930 . S
H785 C771 0.931 . S
H786 C772 0.931 . S
H787 C773 0.933 . S
H788 C779 0.930 . S
H789 C780 0.931 . S
H790 C781 0.931 . S
H791 C782 0.933 . S
Dy792 O795 2.307 . S
Dy792 O797 2.395 . S
Dy792 O798 2.379 . S
Dy792 O800 2.339 . S
Dy792 O802 2.298 . S
Dy792 O806 2.275 . S
Dy792 C814 2.738 . S
Dy793 O796 2.298 . S
Dy793 O799 2.275 . S
Dy793 O801 2.307 . S
Dy793 O803 2.395 . S
Dy793 O804 2.379 . S
Dy793 O807 2.339 . S
Dy793 C823 2.738 . S
C794 O806 1.254 . S
C794 O807 1.257 . S
O795 Dy792 2.307 . S
O795 C805 1.266 . S
O796 Dy793 2.298 . S
O796 C805 1.236 . S
O797 Dy792 2.395 . S
O797 C814 1.255 . S
O798 Dy792 2.379 . S
O798 C814 1.249 . S
O799 Dy793 2.275 . S
O799 C815 1.254 . S
O800 Dy792 2.339 . S
O800 C815 1.257 . S
O801 Dy793 2.307 . S
O801 C816 1.266 . S
O802 Dy792 2.298 . S
O802 C816 1.236 . S
O803 Dy793 2.395 . S
O803 C823 1.255 . S
O804 Dy793 2.379 . S
O804 C823 1.249 . S
C805 O795 1.266 . S
C805 O796 1.236 . S
O806 Dy792 2.275 . S
O806 C794 1.254 . S
O807 Dy793 2.339 . S
O807 C794 1.257 . S
C808 C811 1.344 . S
C808 C812 1.328 . S
C808 C814 1.516 . S
C809 C810 1.304 . S
C809 C813 1.323 . S
C810 C809 1.304 . S
C810 C811 1.371 . S
C810 H824 0.930 . S
C811 C808 1.344 . S
C811 C810 1.371 . S
C811 H825 0.931 . S
C812 C808 1.328 . S
C812 C813 1.433 . S
C812 H826 0.931 . S
C813 C809 1.323 . S
C813 C812 1.433 . S
C813 H827 0.933 . S
C814 Dy792 2.738 . S
C814 O797 1.255 . S
C814 O798 1.249 . S
C814 C808 1.516 . S
C815 O799 1.254 . S
C815 O800 1.257 . S
C816 O801 1.266 . S
C816 O802 1.236 . S
C817 C820 1.344 . S
C817 C821 1.328 . S
C817 C823 1.516 . S
C818 C819 1.304 . S
C818 C822 1.323 . S
C819 C818 1.304 . S
C819 C820 1.371 . S
C819 H828 0.930 . S
C820 C817 1.344 . S
C820 C819 1.371 . S
C820 H829 0.931 . S
C821 C817 1.328 . S
C821 C822 1.433 . S
C821 H830 0.931 . S
C822 C818 1.323 . S
C822 C821 1.433 . S
C822 H831 0.933 . S
C823 Dy793 2.738 . S
C823 O803 1.255 . S
C823 O804 1.249 . S
C823 C817 1.516 . S
H824 C810 0.930 . S
H825 C811 0.931 . S
H826 C812 0.931 . S
H827 C813 0.933 . S
H828 C819 0.930 . S
H829 C820 0.931 . S
H830 C821 0.931 . S
H831 C822 0.933 . S
Dy832 O835 2.307 . S
Dy832 O837 2.395 . S
Dy832 O838 2.379 . S
Dy832 O840 2.339 . S
Dy832 O842 2.298 . S
Dy832 O846 2.275 . S
Dy832 C854 2.738 . S
Dy833 O836 2.298 . S
Dy833 O839 2.275 . S
Dy833 O841 2.307 . S
Dy833 O843 2.395 . S
Dy833 O844 2.379 . S
Dy833 O847 2.339 . S
Dy833 C863 2.738 . S
C834 O846 1.254 . S
C834 O847 1.257 . S
O835 Dy832 2.307 . S
O835 C845 1.266 . S
O836 Dy833 2.298 . S
O836 C845 1.236 . S
O837 Dy832 2.395 . S
O837 C854 1.255 . S
O838 Dy832 2.379 . S
O838 C854 1.249 . S
O839 Dy833 2.275 . S
O839 C855 1.254 . S
O840 Dy832 2.339 . S
O840 C855 1.257 . S
O841 Dy833 2.307 . S
O841 C856 1.266 . S
O842 Dy832 2.298 . S
O842 C856 1.236 . S
O843 Dy833 2.395 . S
O843 C863 1.255 . S
O844 Dy833 2.379 . S
O844 C863 1.249 . S
C845 O835 1.266 . S
C845 O836 1.236 . S
O846 Dy832 2.275 . S
O846 C834 1.254 . S
O847 Dy833 2.339 . S
O847 C834 1.257 . S
C848 C851 1.344 . S
C848 C852 1.328 . S
C848 C854 1.516 . S
C849 C850 1.304 . S
C849 C853 1.323 . S
C850 C849 1.304 . S
C850 C851 1.371 . S
C850 H864 0.930 . S
C851 C848 1.344 . S
C851 C850 1.371 . S
C851 H865 0.931 . S
C852 C848 1.328 . S
C852 C853 1.433 . S
C852 H866 0.931 . S
C853 C849 1.323 . S
C853 C852 1.433 . S
C853 H867 0.933 . S
C854 Dy832 2.738 . S
C854 O837 1.255 . S
C854 O838 1.249 . S
C854 C848 1.516 . S
C855 O839 1.254 . S
C855 O840 1.257 . S
C856 O841 1.266 . S
C856 O842 1.236 . S
C857 C860 1.344 . S
C857 C861 1.328 . S
C857 C863 1.516 . S
C858 C859 1.304 . S
C858 C862 1.323 . S
C859 C858 1.304 . S
C859 C860 1.371 . S
C859 H868 0.930 . S
C860 C857 1.344 . S
C860 C859 1.371 . S
C860 H869 0.931 . S
C861 C857 1.328 . S
C861 C862 1.433 . S
C861 H870 0.931 . S
C862 C858 1.323 . S
C862 C861 1.433 . S
C862 H871 0.933 . S
C863 Dy833 2.738 . S
C863 O843 1.255 . S
C863 O844 1.249 . S
C863 C857 1.516 . S
H864 C850 0.930 . S
H865 C851 0.931 . S
H866 C852 0.931 . S
H867 C853 0.933 . S
H868 C859 0.930 . S
H869 C860 0.931 . S
H870 C861 0.931 . S
H871 C862 0.933 . S
Dy872 O875 2.307 . S
Dy872 O877 2.395 . S
Dy872 O878 2.379 . S
Dy872 O880 2.339 . S
Dy872 O882 2.298 . S
Dy872 O886 2.275 . S
Dy872 C894 2.738 . S
Dy873 O876 2.298 . S
Dy873 O879 2.275 . S
Dy873 O881 2.307 . S
Dy873 O883 2.395 . S
Dy873 O884 2.379 . S
Dy873 O887 2.339 . S
Dy873 C903 2.738 . S
C874 O886 1.254 . S
C874 O887 1.257 . S
O875 Dy872 2.307 . S
O875 C885 1.266 . S
O876 Dy873 2.298 . S
O876 C885 1.236 . S
O877 Dy872 2.395 . S
O877 C894 1.255 . S
O878 Dy872 2.379 . S
O878 C894 1.249 . S
O879 Dy873 2.275 . S
O879 C895 1.254 . S
O880 Dy872 2.339 . S
O880 C895 1.257 . S
O881 Dy873 2.307 . S
O881 C896 1.266 . S
O882 Dy872 2.298 . S
O882 C896 1.236 . S
O883 Dy873 2.395 . S
O883 C903 1.255 . S
O884 Dy873 2.379 . S
O884 C903 1.249 . S
C885 O875 1.266 . S
C885 O876 1.236 . S
O886 Dy872 2.275 . S
O886 C874 1.254 . S
O887 Dy873 2.339 . S
O887 C874 1.257 . S
C888 C891 1.344 . S
C888 C892 1.328 . S
C888 C894 1.516 . S
C889 C890 1.304 . S
C889 C893 1.323 . S
C890 C889 1.304 . S
C890 C891 1.371 . S
C890 H904 0.930 . S
C891 C888 1.344 . S
C891 C890 1.371 . S
C891 H905 0.931 . S
C892 C888 1.328 . S
C892 C893 1.433 . S
C892 H906 0.931 . S
C893 C889 1.323 . S
C893 C892 1.433 . S
C893 H907 0.933 . S
C894 Dy872 2.738 . S
C894 O877 1.255 . S
C894 O878 1.249 . S
C894 C888 1.516 . S
C895 O879 1.254 . S
C895 O880 1.257 . S
C896 O881 1.266 . S
C896 O882 1.236 . S
C897 C900 1.344 . S
C897 C901 1.328 . S
C897 C903 1.516 . S
C898 C899 1.304 . S
C898 C902 1.323 . S
C899 C898 1.304 . S
C899 C900 1.371 . S
C899 H908 0.930 . S
C900 C897 1.344 . S
C900 C899 1.371 . S
C900 H909 0.931 . S
C901 C897 1.328 . S
C901 C902 1.433 . S
C901 H910 0.931 . S
C902 C898 1.323 . S
C902 C901 1.433 . S
C902 H911 0.933 . S
C903 Dy873 2.738 . S
C903 O883 1.255 . S
C903 O884 1.249 . S
C903 C897 1.516 . S
H904 C890 0.930 . S
H905 C891 0.931 . S
H906 C892 0.931 . S
H907 C893 0.933 . S
H908 C899 0.930 . S
H909 C900 0.931 . S
H910 C901 0.931 . S
H911 C902 0.933 . S
Dy912 O915 2.307 1_655 S
Dy912 O917 2.395 . S
Dy912 O918 2.379 . S
Dy912 O920 2.339 1_655 S
Dy912 O922 2.298 1_655 S
Dy912 O926 2.275 1_655 S
Dy912 C934 2.738 . S
Dy913 O916 2.298 . S
Dy913 O919 2.275 . S
Dy913 O921 2.307 . S
Dy913 O923 2.395 . S
Dy913 O924 2.379 . S
Dy913 O927 2.339 1_554 S
Dy913 C943 2.738 . S
C914 O926 1.254 . S
C914 O927 1.257 1_554 S
O915 Dy912 2.307 1_455 S
O915 C925 1.266 . S
O916 Dy913 2.298 . S
O916 C925 1.236 . S
O917 Dy912 2.395 . S
O917 C934 1.255 . S
O918 Dy912 2.379 . S
O918 C934 1.249 . S
O919 Dy913 2.275 . S
O919 C935 1.254 . S
O920 Dy912 2.339 1_455 S
O920 C935 1.257 . S
O921 Dy913 2.307 . S
O921 C936 1.266 . S
O922 Dy912 2.298 1_455 S
O922 C936 1.236 . S
O923 Dy913 2.395 . S
O923 C943 1.255 . S
O924 Dy913 2.379 . S
O924 C943 1.249 . S
C925 O915 1.266 . S
C925 O916 1.236 . S
O926 Dy912 2.275 1_455 S
O926 C914 1.254 . S
O927 Dy913 2.339 1_556 S
O927 C914 1.257 1_556 S
C928 C931 1.344 . S
C928 C932 1.328 . S
C928 C934 1.516 . S
C929 C930 1.304 . S
C929 C933 1.323 . S
C930 C929 1.304 . S
C930 C931 1.371 . S
C930 H944 0.930 . S
C931 C928 1.344 . S
C931 C930 1.371 . S
C931 H945 0.931 . S
C932 C928 1.328 . S
C932 C933 1.433 . S
C932 H946 0.931 . S
C933 C929 1.323 . S
C933 C932 1.433 . S
C933 H947 0.933 . S
C934 Dy912 2.738 . S
C934 O917 1.255 . S
C934 O918 1.249 . S
C934 C928 1.516 . S
C935 O919 1.254 . S
C935 O920 1.257 . S
C936 O921 1.266 . S
C936 O922 1.236 . S
C937 C940 1.344 . S
C937 C941 1.328 . S
C937 C943 1.516 . S
C938 C939 1.304 . S
C938 C942 1.334 . S
C939 C938 1.304 . S
C939 C940 1.371 . S
C939 H948 0.930 . S
C940 C937 1.344 . S
C940 C939 1.371 . S
C940 H949 0.931 . S
C941 C937 1.328 . S
C941 C942 1.435 . S
C941 H950 0.931 1_554 S
C942 C938 1.334 . S
C942 C941 1.435 . S
C942 H951 0.920 1_554 S
C943 Dy913 2.738 . S
C943 O923 1.255 . S
C943 O924 1.249 . S
C943 C937 1.516 . S
H944 C930 0.930 . S
H945 C931 0.931 . S
H946 C932 0.931 . S
H947 C933 0.933 . S
H948 C939 0.930 . S
H949 C940 0.931 . S
H950 C941 0.931 1_556 S
H951 C942 0.920 1_556 S
H952 C964 0.930 1_655 S
H953 C966 0.930 . S
H954 C967 0.930 . S
H955 C971 0.959 . S
H956 C971 0.959 . S
H957 C971 0.961 . S
H958 C972 0.960 . S
H959 C972 0.961 . S
H960 C972 0.959 . S
H961 C975 0.929 . S
H962 C976 0.931 . S
H963 C978 0.930 . S
C964 H952 0.930 1_455 S
C964 C965 1.399 . S
C964 C969 1.399 . S
C965 C964 1.399 . S
C965 C966 1.376 1_556 S
C966 H953 0.930 . S
C966 C965 1.376 1_554 S
C966 C967 1.388 . S
C967 H954 0.930 . S
C967 C966 1.388 . S
C967 C968 1.390 . S
C968 C967 1.390 . S
C968 C969 1.394 1_554 S
C968 C974 1.465 . S
C969 C964 1.399 . S
C969 C968 1.394 1_556 S
C969 C970 1.516 . S
C970 C969 1.516 . S
C970 C971 1.502 1_455 S
C970 C972 1.561 . S
C970 C973 1.526 1_556 S
C971 H955 0.959 . S
C971 H956 0.959 . S
C971 H957 0.961 . S
C971 C970 1.502 1_655 S
C972 H958 0.960 . S
C972 H959 0.961 . S
C972 H960 0.959 . S
C972 C970 1.561 . S
C973 C970 1.526 1_554 S
C973 C974 1.396 . S
C973 C978 1.390 . S
C974 C968 1.465 . S
C974 C973 1.396 . S
C974 C975 1.399 . S
C975 H961 0.929 . S
C975 C974 1.399 . S
C975 C976 1.385 . S
C976 H962 0.931 . S
C976 C975 1.385 . S
C976 C977 1.389 . S
C977 C976 1.389 . S
C977 C978 1.387 . S
C978 H963 0.930 . S
C978 C973 1.390 . S
C978 C977 1.387 . S
H979 C991 0.930 . S
H980 C993 0.930 . S
H981 C994 0.930 . S
H982 C998 0.959 . S
H983 C998 0.959 . S
H984 C998 0.961 . S
H985 C999 0.960 . S
H986 C999 0.961 . S
H987 C999 0.959 . S
H988 C1002 0.929 . S
H989 C1003 0.931 . S
H990 C1005 0.930 . S
C991 H979 0.930 . S
C991 C992 1.399 . S
C991 C996 1.399 . S
C992 C991 1.399 . S
C992 C993 1.376 . S
C993 H980 0.930 . S
C993 C992 1.376 . S
C993 C994 1.388 . S
C994 H981 0.930 . S
C994 C993 1.388 . S
C994 C995 1.390 . S
C995 C994 1.390 . S
C995 C996 1.394 . S
C995 C1001 1.465 . S
C996 C991 1.399 . S
C996 C995 1.394 . S
C996 C997 1.516 . S
C997 C996 1.516 . S
C997 C998 1.502 . S
C997 C999 1.561 . S
C997 C1000 1.526 . S
C998 H982 0.959 . S
C998 H983 0.959 . S
C998 H984 0.961 . S
C998 C997 1.502 . S
C999 H985 0.960 . S
C999 H986 0.961 . S
C999 H987 0.959 . S
C999 C997 1.561 . S
C1000 C997 1.526 . S
C1000 C1001 1.396 . S
C1000 C1005 1.390 . S
C1001 C995 1.465 . S
C1001 C1000 1.396 . S
C1001 C1002 1.399 . S
C1002 H988 0.929 . S
C1002 C1001 1.399 . S
C1002 C1003 1.385 . S
C1003 H989 0.931 . S
C1003 C1002 1.385 . S
C1003 C1004 1.389 . S
C1004 C1003 1.389 . S
C1004 C1005 1.387 . S
C1005 H990 0.930 . S
C1005 C1000 1.390 . S
C1005 C1004 1.387 . S
H1006 C1018 0.930 . S
H1007 C1020 0.930 . S
H1008 C1021 0.930 . S
H1009 C1025 0.959 . S
H1010 C1025 0.959 . S
H1011 C1025 0.961 . S
H1012 C1026 0.960 . S
H1013 C1026 0.961 . S
H1014 C1026 0.959 . S
H1015 C1029 0.929 . S
H1016 C1030 0.931 . S
H1017 C1032 0.930 . S
C1018 H1006 0.930 . S
C1018 C1019 1.399 . S
C1018 C1023 1.399 . S
C1019 C1018 1.399 . S
C1019 C1020 1.376 . S
C1020 H1007 0.930 . S
C1020 C1019 1.376 . S
C1020 C1021 1.388 . S
C1021 H1008 0.930 . S
C1021 C1020 1.388 . S
C1021 C1022 1.390 . S
C1022 C1021 1.390 . S
C1022 C1023 1.394 . S
C1022 C1028 1.465 . S
C1023 C1018 1.399 . S
C1023 C1022 1.394 . S
C1023 C1024 1.516 . S
C1024 C1023 1.516 . S
C1024 C1025 1.502 . S
C1024 C1026 1.561 . S
C1024 C1027 1.526 . S
C1025 H1009 0.959 . S
C1025 H1010 0.959 . S
C1025 H1011 0.961 . S
C1025 C1024 1.502 . S
C1026 H1012 0.960 . S
C1026 H1013 0.961 . S
C1026 H1014 0.959 . S
C1026 C1024 1.561 . S
C1027 C1024 1.526 . S
C1027 C1028 1.396 . S
C1027 C1032 1.390 . S
C1028 C1022 1.465 . S
C1028 C1027 1.396 . S
C1028 C1029 1.399 . S
C1029 H1015 0.929 . S
C1029 C1028 1.399 . S
C1029 C1030 1.385 . S
C1030 H1016 0.931 . S
C1030 C1029 1.385 . S
C1030 C1031 1.389 . S
C1031 C1030 1.389 . S
C1031 C1032 1.387 . S
C1032 H1017 0.930 . S
C1032 C1027 1.390 . S
C1032 C1031 1.387 . S
H1033 C1045 0.930 . S
H1034 C1047 0.930 . S
H1035 C1048 0.930 . S
H1036 C1052 0.959 . S
H1037 C1052 0.959 . S
H1038 C1052 0.961 . S
H1039 C1053 0.960 . S
H1040 C1053 0.961 . S
H1041 C1053 0.959 . S
H1042 C1056 0.929 . S
H1043 C1057 0.931 . S
H1044 C1059 0.930 . S
C1045 H1033 0.930 . S
C1045 C1046 1.399 . S
C1045 C1050 1.399 . S
C1046 C1045 1.399 . S
C1046 C1047 1.376 . S
C1047 H1034 0.930 . S
C1047 C1046 1.376 . S
C1047 C1048 1.388 . S
C1048 H1035 0.930 . S
C1048 C1047 1.388 . S
C1048 C1049 1.390 . S
C1049 C1048 1.390 . S
C1049 C1050 1.394 . S
C1049 C1055 1.465 . S
C1050 C1045 1.399 . S
C1050 C1049 1.394 . S
C1050 C1051 1.516 . S
C1051 C1050 1.516 . S
C1051 C1052 1.502 . S
C1051 C1053 1.561 . S
C1051 C1054 1.526 . S
C1052 H1036 0.959 . S
C1052 H1037 0.959 . S
C1052 H1038 0.961 . S
C1052 C1051 1.502 . S
C1053 H1039 0.960 . S
C1053 H1040 0.961 . S
C1053 H1041 0.959 . S
C1053 C1051 1.561 . S
C1054 C1051 1.526 . S
C1054 C1055 1.396 . S
C1054 C1059 1.390 . S
C1055 C1049 1.465 . S
C1055 C1054 1.396 . S
C1055 C1056 1.399 . S
C1056 H1042 0.929 . S
C1056 C1055 1.399 . S
C1056 C1057 1.385 . S
C1057 H1043 0.931 . S
C1057 C1056 1.385 . S
C1057 C1058 1.389 . S
C1058 C1057 1.389 . S
C1058 C1059 1.387 . S
C1059 H1044 0.930 . S
C1059 C1054 1.390 . S
C1059 C1058 1.387 . S
H1060 C1072 0.930 . S
H1061 C1074 0.930 . S
H1062 C1075 0.930 . S
H1063 C1079 0.959 . S
H1064 C1079 0.959 . S
H1065 C1079 0.961 . S
H1066 C1080 0.960 . S
H1067 C1080 0.961 . S
H1068 C1080 0.959 . S
H1069 C1083 0.929 . S
H1070 C1084 0.931 . S
H1071 C1086 0.930 . S
C1072 H1060 0.930 . S
C1072 C1073 1.399 . S
C1072 C1077 1.399 . S
C1073 C1072 1.399 . S
C1073 C1074 1.376 . S
C1074 H1061 0.930 . S
C1074 C1073 1.376 . S
C1074 C1075 1.388 . S
C1075 H1062 0.930 . S
C1075 C1074 1.388 . S
C1075 C1076 1.390 . S
C1076 C1075 1.390 . S
C1076 C1077 1.394 . S
C1076 C1082 1.465 . S
C1077 C1072 1.399 . S
C1077 C1076 1.394 . S
C1077 C1078 1.516 . S
C1078 C1077 1.516 . S
C1078 C1079 1.502 . S
C1078 C1080 1.561 . S
C1078 C1081 1.526 . S
C1079 H1063 0.959 . S
C1079 H1064 0.959 . S
C1079 H1065 0.961 . S
C1079 C1078 1.502 . S
C1080 H1066 0.960 . S
C1080 H1067 0.961 . S
C1080 H1068 0.959 . S
C1080 C1078 1.561 . S
C1081 C1078 1.526 . S
C1081 C1082 1.396 . S
C1081 C1086 1.390 . S
C1082 C1076 1.465 . S
C1082 C1081 1.396 . S
C1082 C1083 1.399 . S
C1083 H1069 0.929 . S
C1083 C1082 1.399 . S
C1083 C1084 1.385 . S
C1084 H1070 0.931 . S
C1084 C1083 1.385 . S
C1084 C1085 1.389 . S
C1085 C1084 1.389 . S
C1085 C1086 1.387 . S
C1086 H1071 0.930 . S
C1086 C1081 1.390 . S
C1086 C1085 1.387 . S
H1087 C1099 0.930 . S
H1088 C1101 0.930 . S
H1089 C1102 0.930 . S
H1090 C1106 0.959 . S
H1091 C1106 0.959 . S
H1092 C1106 0.961 . S
H1093 C1107 0.960 . S
H1094 C1107 0.961 . S
H1095 C1107 0.959 . S
H1096 C1110 0.929 . S
H1097 C1111 0.931 . S
H1098 C1113 0.930 . S
C1099 H1087 0.930 . S
C1099 C1100 1.399 . S
C1099 C1104 1.399 . S
C1100 C1099 1.399 . S
C1100 C1101 1.376 . S
C1101 H1088 0.930 . S
C1101 C1100 1.376 . S
C1101 C1102 1.388 . S
C1102 H1089 0.930 . S
C1102 C1101 1.388 . S
C1102 C1103 1.390 . S
C1103 C1102 1.390 . S
C1103 C1104 1.394 . S
C1103 C1109 1.465 . S
C1104 C1099 1.399 . S
C1104 C1103 1.394 . S
C1104 C1105 1.516 . S
C1105 C1104 1.516 . S
C1105 C1106 1.502 . S
C1105 C1107 1.561 . S
C1105 C1108 1.526 . S
C1106 H1090 0.959 . S
C1106 H1091 0.959 . S
C1106 H1092 0.961 . S
C1106 C1105 1.502 . S
C1107 H1093 0.960 . S
C1107 H1094 0.961 . S
C1107 H1095 0.959 . S
C1107 C1105 1.561 . S
C1108 C1105 1.526 . S
C1108 C1109 1.396 . S
C1108 C1113 1.390 . S
C1109 C1103 1.465 . S
C1109 C1108 1.396 . S
C1109 C1110 1.399 . S
C1110 H1096 0.929 . S
C1110 C1109 1.399 . S
C1110 C1111 1.385 . S
C1111 H1097 0.931 . S
C1111 C1110 1.385 . S
C1111 C1112 1.389 . S
C1112 C1111 1.389 . S
C1112 C1113 1.387 . S
C1113 H1098 0.930 . S
C1113 C1108 1.390 . S
C1113 C1112 1.387 . S
H1114 C1126 0.930 . S
H1115 C1128 0.930 . S
H1116 C1129 0.930 . S
H1117 C1133 0.959 . S
H1118 C1133 0.959 . S
H1119 C1133 0.961 . S
H1120 C1134 0.960 . S
H1121 C1134 0.961 . S
H1122 C1134 0.959 . S
H1123 C1137 0.929 . S
H1124 C1138 0.931 . S
H1125 C1140 0.930 . S
C1126 H1114 0.930 . S
C1126 C1127 1.399 . S
C1126 C1131 1.399 . S
C1127 C1126 1.399 . S
C1127 C1128 1.376 . S
C1128 H1115 0.930 . S
C1128 C1127 1.376 . S
C1128 C1129 1.388 . S
C1129 H1116 0.930 . S
C1129 C1128 1.388 . S
C1129 C1130 1.390 . S
C1130 C1129 1.390 . S
C1130 C1131 1.394 . S
C1130 C1136 1.465 . S
C1131 C1126 1.399 . S
C1131 C1130 1.394 . S
C1131 C1132 1.516 . S
C1132 C1131 1.516 . S
C1132 C1133 1.502 . S
C1132 C1134 1.561 . S
C1132 C1135 1.526 . S
C1133 H1117 0.959 . S
C1133 H1118 0.959 . S
C1133 H1119 0.961 . S
C1133 C1132 1.502 . S
C1134 H1120 0.960 . S
C1134 H1121 0.961 . S
C1134 H1122 0.959 . S
C1134 C1132 1.561 . S
C1135 C1132 1.526 . S
C1135 C1136 1.396 . S
C1135 C1140 1.390 . S
C1136 C1130 1.465 . S
C1136 C1135 1.396 . S
C1136 C1137 1.399 . S
C1137 H1123 0.929 . S
C1137 C1136 1.399 . S
C1137 C1138 1.385 . S
C1138 H1124 0.931 . S
C1138 C1137 1.385 . S
C1138 C1139 1.389 . S
C1139 C1138 1.389 . S
C1139 C1140 1.387 . S
C1140 H1125 0.930 . S
C1140 C1135 1.390 . S
C1140 C1139 1.387 . S
H1141 C1153 0.930 . S
H1142 C1155 0.930 . S
H1143 C1156 0.930 . S
H1144 C1160 0.959 . S
H1145 C1160 0.959 . S
H1146 C1160 0.961 . S
H1147 C1161 0.960 . S
H1148 C1161 0.961 . S
H1149 C1161 0.959 . S
H1150 C1164 0.929 . S
H1151 C1165 0.931 . S
H1152 C1167 0.930 . S
C1153 H1141 0.930 . S
C1153 C1154 1.399 . S
C1153 C1158 1.399 . S
C1154 C1153 1.399 . S
C1154 C1155 1.376 . S
C1155 H1142 0.930 . S
C1155 C1154 1.376 . S
C1155 C1156 1.388 . S
C1156 H1143 0.930 . S
C1156 C1155 1.388 . S
C1156 C1157 1.390 . S
C1157 C1156 1.390 . S
C1157 C1158 1.394 . S
C1157 C1163 1.465 . S
C1158 C1153 1.399 . S
C1158 C1157 1.394 . S
C1158 C1159 1.516 . S
C1159 C1158 1.516 . S
C1159 C1160 1.502 . S
C1159 C1161 1.561 . S
C1159 C1162 1.526 . S
C1160 H1144 0.959 . S
C1160 H1145 0.959 . S
C1160 H1146 0.961 . S
C1160 C1159 1.502 . S
C1161 H1147 0.960 . S
C1161 H1148 0.961 . S
C1161 H1149 0.959 . S
C1161 C1159 1.561 . S
C1162 C1159 1.526 . S
C1162 C1163 1.396 . S
C1162 C1167 1.390 . S
C1163 C1157 1.465 . S
C1163 C1162 1.396 . S
C1163 C1164 1.399 . S
C1164 H1150 0.929 . S
C1164 C1163 1.399 . S
C1164 C1165 1.385 . S
C1165 H1151 0.931 . S
C1165 C1164 1.385 . S
C1165 C1166 1.389 . S
C1166 C1165 1.389 . S
C1166 C1167 1.387 . S
C1167 H1152 0.930 . S
C1167 C1162 1.390 . S
C1167 C1166 1.387 . S
H1168 C1180 0.930 . S
H1169 C1182 0.930 . S
H1170 C1183 0.930 . S
H1171 C1187 0.959 . S
H1172 C1187 0.959 . S
H1173 C1187 0.961 . S
H1174 C1188 0.960 1_565 S
H1175 C1188 0.961 1_565 S
H1176 C1188 0.959 . S
H1177 C1191 0.945 . S
H1178 C1192 0.931 . S
H1179 C1194 0.930 . S
C1180 H1168 0.930 . S
C1180 C1181 1.399 . S
C1180 C1185 1.399 . S
C1181 C1180 1.399 . S
C1181 C1182 1.376 . S
C1182 H1169 0.930 . S
C1182 C1181 1.376 . S
C1182 C1183 1.388 . S
C1183 H1170 0.930 . S
C1183 C1182 1.388 . S
C1183 C1184 1.390 . S
C1184 C1183 1.390 . S
C1184 C1185 1.394 . S
C1184 C1190 1.465 . S
C1185 C1180 1.399 . S
C1185 C1184 1.394 . S
C1185 C1186 1.516 1_655 S
C1186 C1185 1.516 1_455 S
C1186 C1187 1.502 . S
C1186 C1188 1.561 1_455 S
C1186 C1189 1.526 . S
C1187 H1171 0.959 . S
C1187 H1172 0.959 . S
C1187 H1173 0.961 . S
C1187 C1186 1.502 . S
C1188 H1174 0.960 1_545 S
C1188 H1175 0.961 1_545 S
C1188 H1176 0.959 . S
C1188 C1186 1.561 1_655 S
C1189 C1186 1.526 . S
C1189 C1190 1.396 1_455 S
C1189 C1194 1.390 . S
C1190 C1184 1.465 . S
C1190 C1189 1.396 1_655 S
C1190 C1191 1.397 . S
C1191 H1177 0.945 . S
C1191 C1190 1.397 . S
C1191 C1192 1.371 1_655 S
C1192 H1178 0.931 . S
C1192 C1191 1.371 1_455 S
C1192 C1193 1.389 . S
C1193 C1192 1.389 . S
C1193 C1194 1.387 . S
C1194 H1179 0.930 . S
C1194 C1189 1.390 . S
C1194 C1193 1.387 . S
H1195 C1207 0.930 . S
H1196 C1209 0.930 . S
H1197 C1210 0.930 . S
H1198 C1214 0.959 . S
H1199 C1214 0.959 . S
H1200 C1214 0.961 . S
H1201 C1215 0.960 . S
H1202 C1215 0.961 . S
H1203 C1215 0.959 . S
H1204 C1218 0.929 . S
H1205 C1219 0.931 . S
H1206 C1221 0.930 . S
C1207 H1195 0.930 . S
C1207 C1208 1.399 . S
C1207 C1212 1.399 . S
C1208 C1207 1.399 . S
C1208 C1209 1.376 . S
C1209 H1196 0.930 . S
C1209 C1208 1.376 . S
C1209 C1210 1.388 . S
C1210 H1197 0.930 . S
C1210 C1209 1.388 . S
C1210 C1211 1.390 . S
C1211 C1210 1.390 . S
C1211 C1212 1.394 . S
C1211 C1217 1.465 . S
C1212 C1207 1.399 . S
C1212 C1211 1.394 . S
C1212 C1213 1.516 . S
C1213 C1212 1.516 . S
C1213 C1214 1.502 . S
C1213 C1215 1.561 . S
C1213 C1216 1.526 . S
C1214 H1198 0.959 . S
C1214 H1199 0.959 . S
C1214 H1200 0.961 . S
C1214 C1213 1.502 . S
C1215 H1201 0.960 . S
C1215 H1202 0.961 . S
C1215 H1203 0.959 . S
C1215 C1213 1.561 . S
C1216 C1213 1.526 . S
C1216 C1217 1.396 . S
C1216 C1221 1.390 . S
C1217 C1211 1.465 . S
C1217 C1216 1.396 . S
C1217 C1218 1.399 . S
C1218 H1204 0.929 . S
C1218 C1217 1.399 . S
C1218 C1219 1.385 . S
C1219 H1205 0.931 . S
C1219 C1218 1.385 . S
C1219 C1220 1.389 . S
C1220 C1219 1.389 . S
C1220 C1221 1.387 . S
C1221 H1206 0.930 . S
C1221 C1216 1.390 . S
C1221 C1220 1.387 . S
H1222 C1234 0.930 . S
H1223 C1236 0.930 . S
H1224 C1237 0.930 . S
H1225 C1241 0.959 . S
H1226 C1241 0.959 1_565 S
H1227 C1241 0.944 1_565 S
H1228 C1242 0.960 . S
H1229 C1242 0.961 . S
H1230 C1242 0.959 . S
H1231 C1245 0.929 . S
H1232 C1246 0.931 . S
H1233 C1248 0.930 . S
C1234 H1222 0.930 . S
C1234 C1235 1.399 . S
C1234 C1239 1.399 . S
C1235 C1234 1.399 . S
C1235 C1236 1.376 . S
C1236 H1223 0.930 . S
C1236 C1235 1.376 . S
C1236 C1237 1.388 . S
C1237 H1224 0.930 . S
C1237 C1236 1.388 . S
C1237 C1238 1.390 . S
C1238 C1237 1.390 . S
C1238 C1239 1.394 . S
C1238 C1244 1.465 . S
C1239 C1234 1.399 . S
C1239 C1238 1.394 . S
C1239 C1240 1.516 . S
C1240 C1239 1.516 . S
C1240 C1241 1.502 . S
C1240 C1242 1.561 . S
C1240 C1243 1.526 . S
C1241 H1225 0.959 . S
C1241 H1226 0.959 1_545 S
C1241 H1227 0.944 1_545 S
C1241 C1240 1.502 . S
C1242 H1228 0.960 . S
C1242 H1229 0.961 . S
C1242 H1230 0.959 . S
C1242 C1240 1.561 . S
C1243 C1240 1.526 . S
C1243 C1244 1.396 . S
C1243 C1248 1.390 . S
C1244 C1238 1.465 . S
C1244 C1243 1.396 . S
C1244 C1245 1.399 . S
C1245 H1231 0.929 . S
C1245 C1244 1.399 . S
C1245 C1246 1.385 . S
C1246 H1232 0.931 . S
C1246 C1245 1.385 . S
C1246 C1247 1.389 . S
C1247 C1246 1.389 . S
C1247 C1248 1.387 . S
C1248 H1233 0.930 . S
C1248 C1243 1.390 . S
C1248 C1247 1.387 . S
H1249 C1261 0.930 . S
H1250 C1263 0.930 . S
H1251 C1264 0.930 . S
H1252 C1268 0.959 . S
H1253 C1268 0.959 . S
H1254 C1268 0.961 . S
H1255 C1269 0.960 . S
H1256 C1269 0.961 . S
H1257 C1269 0.959 . S
H1258 C1272 0.929 . S
H1259 C1273 0.931 . S
H1260 C1275 0.930 . S
C1261 H1249 0.930 . S
C1261 C1262 1.399 . S
C1261 C1266 1.399 . S
C1262 C1261 1.399 . S
C1262 C1263 1.376 . S
C1263 H1250 0.930 . S
C1263 C1262 1.376 . S
C1263 C1264 1.388 . S
C1264 H1251 0.930 . S
C1264 C1263 1.388 . S
C1264 C1265 1.390 . S
C1265 C1264 1.390 . S
C1265 C1266 1.394 . S
C1265 C1271 1.465 . S
C1266 C1261 1.399 . S
C1266 C1265 1.394 . S
C1266 C1267 1.516 . S
C1267 C1266 1.516 . S
C1267 C1268 1.502 . S
C1267 C1269 1.561 . S
C1267 C1270 1.526 . S
C1268 H1252 0.959 . S
C1268 H1253 0.959 . S
C1268 H1254 0.961 . S
C1268 C1267 1.502 . S
C1269 H1255 0.960 . S
C1269 H1256 0.961 . S
C1269 H1257 0.959 . S
C1269 C1267 1.561 . S
C1270 C1267 1.526 . S
C1270 C1271 1.396 . S
C1270 C1275 1.390 . S
C1271 C1265 1.465 . S
C1271 C1270 1.396 . S
C1271 C1272 1.399 . S
C1272 H1258 0.929 . S
C1272 C1271 1.399 . S
C1272 C1273 1.385 . S
C1273 H1259 0.931 . S
C1273 C1272 1.385 . S
C1273 C1274 1.389 . S
C1274 C1273 1.389 . S
C1274 C1275 1.387 . S
C1275 H1260 0.930 . S
C1275 C1270 1.390 . S
C1275 C1274 1.387 . S
H1276 C1288 0.930 . S
H1277 C1290 0.930 . S
H1278 C1291 0.930 . S
H1279 C1295 0.959 1_545 S
H1280 C1295 0.959 . S
H1281 C1295 0.961 . S
H1282 C1296 0.960 . S
H1283 C1296 0.961 . S
H1284 C1296 0.959 1_455 S
H1285 C1299 0.929 . S
H1286 C1300 0.931 . S
H1287 C1302 0.930 . S
C1288 H1276 0.930 . S
C1288 C1289 1.399 . S
C1288 C1293 1.399 . S
C1289 C1288 1.399 . S
C1289 C1290 1.376 . S
C1290 H1277 0.930 . S
C1290 C1289 1.376 . S
C1290 C1291 1.388 1_655 S
C1291 H1278 0.930 . S
C1291 C1290 1.388 1_455 S
C1291 C1292 1.390 . S
C1292 C1291 1.390 . S
C1292 C1293 1.394 1_455 S
C1292 C1298 1.465 . S
C1293 C1288 1.399 . S
C1293 C1292 1.394 1_655 S
C1293 C1294 1.516 . S
C1294 C1293 1.516 . S
C1294 C1295 1.502 1_545 S
C1294 C1296 1.561 1_545 S
C1294 C1297 1.526 1_655 S
C1295 H1279 0.959 1_565 S
C1295 H1280 0.959 . S
C1295 H1281 0.961 . S
C1295 C1294 1.502 1_565 S
C1296 H1282 0.960 . S
C1296 H1283 0.961 . S
C1296 H1284 0.959 1_655 S
C1296 C1294 1.561 1_565 S
C1297 C1294 1.526 1_455 S
C1297 C1298 1.396 . S
C1297 C1302 1.390 . S
C1298 C1292 1.465 . S
C1298 C1297 1.396 . S
C1298 C1299 1.399 . S
C1299 H1285 0.929 . S
C1299 C1298 1.399 . S
C1299 C1300 1.385 . S
C1300 H1286 0.931 . S
C1300 C1299 1.385 . S
C1300 C1301 1.389 . S
C1301 C1300 1.389 . S
C1301 C1302 1.387 . S
C1302 H1287 0.930 . S
C1302 C1297 1.390 . S
C1302 C1301 1.387 . S
H1303 C1315 0.930 . S
H1304 C1317 0.930 . S
H1305 C1318 0.930 . S
H1306 C1322 0.959 . S
H1307 C1322 0.959 . S
H1308 C1322 0.961 . S
H1309 C1323 0.960 . S
H1310 C1323 0.961 . S
H1311 C1323 0.959 . S
H1312 C1326 0.929 . S
H1313 C1327 0.931 . S
H1314 C1329 0.930 . S
C1315 H1303 0.930 . S
C1315 C1316 1.399 . S
C1315 C1320 1.399 . S
C1316 C1315 1.399 . S
C1316 C1317 1.376 . S
C1317 H1304 0.930 . S
C1317 C1316 1.376 . S
C1317 C1318 1.388 . S
C1318 H1305 0.930 . S
C1318 C1317 1.388 . S
C1318 C1319 1.390 . S
C1319 C1318 1.390 . S
C1319 C1320 1.394 . S
C1319 C1325 1.465 . S
C1320 C1315 1.399 . S
C1320 C1319 1.394 . S
C1320 C1321 1.516 . S
C1321 C1320 1.516 . S
C1321 C1322 1.502 . S
C1321 C1323 1.561 . S
C1321 C1324 1.526 . S
C1322 H1306 0.959 . S
C1322 H1307 0.959 . S
C1322 H1308 0.961 . S
C1322 C1321 1.502 . S
C1323 H1309 0.960 . S
C1323 H1310 0.961 . S
C1323 H1311 0.959 . S
C1323 C1321 1.561 . S
C1324 C1321 1.526 . S
C1324 C1325 1.396 . S
C1324 C1329 1.390 . S
C1325 C1319 1.465 . S
C1325 C1324 1.396 . S
C1325 C1326 1.399 . S
C1326 H1312 0.929 . S
C1326 C1325 1.399 . S
C1326 C1327 1.385 . S
C1327 H1313 0.931 . S
C1327 C1326 1.385 . S
C1327 C1328 1.389 . S
C1328 C1327 1.389 . S
C1328 C1329 1.387 . S
C1329 H1314 0.930 . S
C1329 C1324 1.390 . S
C1329 C1328 1.387 . S
H1330 C1342 0.930 . S
H1331 C1344 0.930 . S
H1332 C1345 0.930 . S
H1333 C1349 0.959 . S
H1334 C1349 0.959 . S
H1335 C1349 0.961 . S
H1336 C1350 0.960 . S
H1337 C1350 0.961 . S
H1338 C1350 0.959 . S
H1339 C1353 0.929 . S
H1340 C1354 0.931 . S
H1341 C1356 0.930 . S
C1342 H1330 0.930 . S
C1342 C1343 1.399 . S
C1342 C1347 1.399 . S
C1343 C1342 1.399 . S
C1343 C1344 1.376 . S
C1344 H1331 0.930 . S
C1344 C1343 1.376 . S
C1344 C1345 1.388 . S
C1345 H1332 0.930 . S
C1345 C1344 1.388 . S
C1345 C1346 1.390 . S
C1346 C1345 1.390 . S
C1346 C1347 1.394 . S
C1346 C1352 1.465 . S
C1347 C1342 1.399 . S
C1347 C1346 1.394 . S
C1347 C1348 1.516 . S
C1348 C1347 1.516 . S
C1348 C1349 1.502 . S
C1348 C1350 1.561 . S
C1348 C1351 1.526 . S
C1349 H1333 0.959 . S
C1349 H1334 0.959 . S
C1349 H1335 0.961 . S
C1349 C1348 1.502 . S
C1350 H1336 0.960 . S
C1350 H1337 0.961 . S
C1350 H1338 0.959 . S
C1350 C1348 1.561 . S
C1351 C1348 1.526 . S
C1351 C1352 1.396 . S
C1351 C1356 1.390 . S
C1352 C1346 1.465 . S
C1352 C1351 1.396 . S
C1352 C1353 1.399 . S
C1353 H1339 0.929 . S
C1353 C1352 1.399 . S
C1353 C1354 1.385 . S
C1354 H1340 0.931 . S
C1354 C1353 1.385 . S
C1354 C1355 1.389 . S
C1355 C1354 1.389 . S
C1355 C1356 1.387 . S
C1356 H1341 0.930 . S
C1356 C1351 1.390 . S
C1356 C1355 1.387 . S
H1357 C1369 0.930 . S
H1358 C1371 0.930 . S
H1359 C1372 0.930 . S
H1360 C1376 0.959 . S
H1361 C1376 0.959 . S
H1362 C1376 0.961 . S
H1363 C1377 0.960 . S
H1364 C1377 0.961 . S
H1365 C1377 0.959 . S
H1366 C1380 0.929 . S
H1367 C1381 0.931 . S
H1368 C1383 0.930 . S
C1369 H1357 0.930 . S
C1369 C1370 1.399 . S
C1369 C1374 1.399 . S
C1370 C1369 1.399 . S
C1370 C1371 1.376 . S
C1371 H1358 0.930 . S
C1371 C1370 1.376 . S
C1371 C1372 1.388 . S
C1372 H1359 0.930 . S
C1372 C1371 1.388 . S
C1372 C1373 1.390 . S
C1373 C1372 1.390 . S
C1373 C1374 1.394 . S
C1373 C1379 1.465 . S
C1374 C1369 1.399 . S
C1374 C1373 1.394 . S
C1374 C1375 1.516 . S
C1375 C1374 1.516 . S
C1375 C1376 1.502 . S
C1375 C1377 1.561 . S
C1375 C1378 1.526 . S
C1376 H1360 0.959 . S
C1376 H1361 0.959 . S
C1376 H1362 0.961 . S
C1376 C1375 1.502 . S
C1377 H1363 0.960 . S
C1377 H1364 0.961 . S
C1377 H1365 0.959 . S
C1377 C1375 1.561 . S
C1378 C1375 1.526 . S
C1378 C1379 1.396 . S
C1378 C1383 1.390 . S
C1379 C1373 1.465 . S
C1379 C1378 1.396 . S
C1379 C1380 1.399 . S
C1380 H1366 0.929 . S
C1380 C1379 1.399 . S
C1380 C1381 1.385 . S
C1381 H1367 0.931 . S
C1381 C1380 1.385 . S
C1381 C1382 1.389 . S
C1382 C1381 1.389 . S
C1382 C1383 1.387 . S
C1383 H1368 0.930 . S
C1383 C1378 1.390 . S
C1383 C1382 1.387 . S
H1384 C1396 0.930 . S
H1385 C1398 0.930 . S
H1386 C1399 0.930 . S
H1387 C1403 0.959 . S
H1388 C1403 0.959 . S
H1389 C1403 0.961 . S
H1390 C1404 0.960 1_556 S
H1391 C1404 0.961 . S
H1392 C1404 0.959 1_566 S
H1393 C1407 0.929 . S
H1394 C1408 0.931 . S
H1395 C1410 0.930 . S
C1396 H1384 0.930 . S
C1396 C1397 1.399 . S
C1396 C1401 1.399 . S
C1397 C1396 1.399 . S
C1397 C1398 1.376 . S
C1398 H1385 0.930 . S
C1398 C1397 1.376 . S
C1398 C1399 1.388 . S
C1399 H1386 0.930 . S
C1399 C1398 1.388 . S
C1399 C1400 1.390 . S
C1400 C1399 1.390 . S
C1400 C1401 1.394 . S
C1400 C1406 1.465 . S
C1401 C1396 1.399 . S
C1401 C1400 1.394 . S
C1401 C1402 1.544 . S
C1402 C1401 1.544 . S
C1402 C1403 1.491 1_565 S
C1402 C1404 1.548 1_565 S
C1402 C1405 1.523 . S
C1403 H1387 0.959 . S
C1403 H1388 0.959 . S
C1403 H1389 0.961 . S
C1403 C1402 1.491 1_545 S
C1404 H1390 0.960 1_554 S
C1404 H1391 0.961 . S
C1404 H1392 0.959 1_544 S
C1404 C1402 1.548 1_545 S
C1405 C1402 1.523 . S
C1405 C1406 1.396 . S
C1405 C1410 1.390 1_565 S
C1406 C1400 1.465 . S
C1406 C1405 1.396 . S
C1406 C1407 1.399 . S
C1407 H1393 0.929 . S
C1407 C1406 1.399 . S
C1407 C1408 1.385 . S
C1408 H1394 0.931 . S
C1408 C1407 1.385 . S
C1408 C1409 1.389 1_565 S
C1409 C1408 1.389 1_545 S
C1409 C1410 1.387 . S
C1410 H1395 0.930 . S
C1410 C1405 1.390 1_545 S
C1410 C1409 1.387 . S
H1411 C1423 0.926 . S
H1412 C1425 0.930 . S
H1413 C1426 0.930 . S
H1414 C1430 0.959 . S
H1415 C1430 0.959 . S
H1416 C1430 0.961 . S
H1417 C1431 0.960 . S
H1418 C1431 0.961 . S
H1419 C1431 0.959 . S
H1420 C1434 0.929 . S
H1421 C1435 0.931 . S
H1422 C1437 0.886 1_556 S
C1423 H1411 0.926 . S
C1423 C1424 1.402 1_556 S
C1423 C1428 1.401 1_556 S
C1424 C1423 1.402 1_554 S
C1424 C1425 1.376 . S
C1425 H1412 0.930 . S
C1425 C1424 1.376 . S
C1425 C1426 1.388 . S
C1426 H1413 0.930 . S
C1426 C1425 1.388 . S
C1426 C1427 1.390 . S
C1427 C1426 1.390 . S
C1427 C1428 1.394 . S
C1427 C1433 1.465 . S
C1428 C1423 1.401 1_554 S
C1428 C1427 1.394 . S
C1428 C1429 1.516 1_554 S
C1429 C1428 1.516 1_556 S
C1429 C1430 1.502 . S
C1429 C1431 1.561 . S
C1429 C1432 1.526 1_556 S
C1430 H1414 0.959 . S
C1430 H1415 0.959 . S
C1430 H1416 0.961 . S
C1430 C1429 1.502 . S
C1431 H1417 0.960 . S
C1431 H1418 0.961 . S
C1431 H1419 0.959 . S
C1431 C1429 1.561 . S
C1432 C1429 1.526 1_554 S
C1432 C1433 1.396 . S
C1432 C1437 1.391 . S
C1433 C1427 1.465 . S
C1433 C1432 1.396 . S
C1433 C1434 1.399 . S
C1434 H1420 0.929 . S
C1434 C1433 1.399 . S
C1434 C1435 1.385 . S
C1435 H1421 0.931 . S
C1435 C1434 1.385 . S
C1435 C1436 1.389 . S
C1436 C1435 1.389 . S
C1436 C1437 1.431 . S
C1437 H1422 0.886 1_554 S
C1437 C1432 1.391 . S
C1437 C1436 1.431 . S
H1438 C1450 0.930 . S
H1439 C1452 0.930 . S
H1440 C1453 0.930 . S
H1441 C1457 0.959 . S
H1442 C1457 0.959 . S
H1443 C1457 0.961 . S
H1444 C1458 0.960 . S
H1445 C1458 0.961 . S
H1446 C1458 0.959 . S
H1447 C1461 0.929 . S
H1448 C1462 0.931 . S
H1449 C1464 0.930 . S
C1450 H1438 0.930 . S
C1450 C1451 1.399 . S
C1450 C1455 1.399 . S
C1451 C1450 1.399 . S
C1451 C1452 1.376 . S
C1452 H1439 0.930 . S
C1452 C1451 1.376 . S
C1452 C1453 1.388 . S
C1453 H1440 0.930 . S
C1453 C1452 1.388 . S
C1453 C1454 1.390 . S
C1454 C1453 1.390 . S
C1454 C1455 1.394 . S
C1454 C1460 1.465 . S
C1455 C1450 1.399 . S
C1455 C1454 1.394 . S
C1455 C1456 1.516 . S
C1456 C1455 1.516 . S
C1456 C1457 1.502 . S
C1456 C1458 1.561 . S
C1456 C1459 1.526 . S
C1457 H1441 0.959 . S
C1457 H1442 0.959 . S
C1457 H1443 0.961 . S
C1457 C1456 1.502 . S
C1458 H1444 0.960 . S
C1458 H1445 0.961 . S
C1458 H1446 0.959 . S
C1458 C1456 1.561 . S
C1459 C1456 1.526 . S
C1459 C1460 1.396 . S
C1459 C1464 1.390 . S
C1460 C1454 1.465 . S
C1460 C1459 1.396 . S
C1460 C1461 1.399 . S
C1461 H1447 0.929 . S
C1461 C1460 1.399 . S
C1461 C1462 1.385 . S
C1462 H1448 0.931 . S
C1462 C1461 1.385 . S
C1462 C1463 1.389 . S
C1463 C1462 1.389 . S
C1463 C1464 1.387 . S
C1464 H1449 0.930 . S
C1464 C1459 1.390 . S
C1464 C1463 1.387 . S
H1465 C1477 0.930 . S
H1466 C1479 0.930 . S
H1467 C1480 0.930 . S
H1468 C1484 0.959 . S
H1469 C1484 0.959 . S
H1470 C1484 0.961 . S
H1471 C1485 0.960 . S
H1472 C1485 0.961 . S
H1473 C1485 0.959 . S
H1474 C1488 0.929 . S
H1475 C1489 0.931 . S
H1476 C1491 0.930 . S
C1477 H1465 0.930 . S
C1477 C1478 1.399 . S
C1477 C1482 1.399 . S
C1478 C1477 1.399 . S
C1478 C1479 1.376 . S
C1479 H1466 0.930 . S
C1479 C1478 1.376 . S
C1479 C1480 1.388 . S
C1480 H1467 0.930 . S
C1480 C1479 1.388 . S
C1480 C1481 1.390 . S
C1481 C1480 1.390 . S
C1481 C1482 1.394 . S
C1481 C1487 1.465 . S
C1482 C1477 1.399 . S
C1482 C1481 1.394 . S
C1482 C1483 1.516 . S
C1483 C1482 1.516 . S
C1483 C1484 1.502 . S
C1483 C1485 1.561 . S
C1483 C1486 1.526 . S
C1484 H1468 0.959 . S
C1484 H1469 0.959 . S
C1484 H1470 0.961 . S
C1484 C1483 1.502 . S
C1485 H1471 0.960 . S
C1485 H1472 0.961 . S
C1485 H1473 0.959 . S
C1485 C1483 1.561 . S
C1486 C1483 1.526 . S
C1486 C1487 1.396 . S
C1486 C1491 1.390 . S
C1487 C1481 1.465 . S
C1487 C1486 1.396 . S
C1487 C1488 1.399 . S
C1488 H1474 0.929 . S
C1488 C1487 1.399 . S
C1488 C1489 1.385 . S
C1489 H1475 0.931 . S
C1489 C1488 1.385 . S
C1489 C1490 1.389 . S
C1490 C1489 1.389 . S
C1490 C1491 1.387 . S
C1491 H1476 0.930 . S
C1491 C1486 1.390 . S
C1491 C1490 1.387 . S
H1492 C1504 0.930 . S
H1493 C1506 0.930 . S
H1494 C1507 0.930 . S
H1495 C1511 0.959 . S
H1496 C1511 0.959 . S
H1497 C1511 0.961 . S
H1498 C1512 0.960 . S
H1499 C1512 0.961 . S
H1500 C1512 0.959 . S
H1501 C1515 0.929 . S
H1502 C1516 0.931 . S
H1503 C1518 0.930 . S
C1504 H1492 0.930 . S
C1504 C1505 1.399 . S
C1504 C1509 1.399 . S
C1505 C1504 1.399 . S
C1505 C1506 1.376 . S
C1506 H1493 0.930 . S
C1506 C1505 1.376 . S
C1506 C1507 1.388 . S
C1507 H1494 0.930 . S
C1507 C1506 1.388 . S
C1507 C1508 1.390 . S
C1508 C1507 1.390 . S
C1508 C1509 1.394 . S
C1508 C1514 1.465 . S
C1509 C1504 1.399 . S
C1509 C1508 1.394 . S
C1509 C1510 1.516 . S
C1510 C1509 1.516 . S
C1510 C1511 1.502 . S
C1510 C1512 1.561 . S
C1510 C1513 1.526 . S
C1511 H1495 0.959 . S
C1511 H1496 0.959 . S
C1511 H1497 0.961 . S
C1511 C1510 1.502 . S
C1512 H1498 0.960 . S
C1512 H1499 0.961 . S
C1512 H1500 0.959 . S
C1512 C1510 1.561 . S
C1513 C1510 1.526 . S
C1513 C1514 1.396 . S
C1513 C1518 1.390 . S
C1514 C1508 1.465 . S
C1514 C1513 1.396 . S
C1514 C1515 1.399 . S
C1515 H1501 0.929 . S
C1515 C1514 1.399 . S
C1515 C1516 1.385 . S
C1516 H1502 0.931 . S
C1516 C1515 1.385 . S
C1516 C1517 1.389 . S
C1517 C1516 1.389 . S
C1517 C1518 1.387 . S
C1518 H1503 0.930 . S
C1518 C1513 1.390 . S
C1518 C1517 1.387 . S
H1519 C1531 0.930 . S
H1520 C1533 0.930 . S
H1521 C1534 0.930 . S
H1522 C1538 0.959 . S
H1523 C1538 0.959 . S
H1524 C1538 0.961 . S
H1525 C1539 0.960 . S
H1526 C1539 0.961 . S
H1527 C1539 0.959 . S
H1528 C1542 0.929 . S
H1529 C1543 0.931 . S
H1530 C1545 0.930 . S
C1531 H1519 0.930 . S
C1531 C1532 1.399 . S
C1531 C1536 1.399 . S
C1532 C1531 1.399 . S
C1532 C1533 1.376 . S
C1533 H1520 0.930 . S
C1533 C1532 1.376 . S
C1533 C1534 1.388 . S
C1534 H1521 0.930 . S
C1534 C1533 1.388 . S
C1534 C1535 1.390 . S
C1535 C1534 1.390 . S
C1535 C1536 1.394 . S
C1535 C1541 1.465 . S
C1536 C1531 1.399 . S
C1536 C1535 1.394 . S
C1536 C1537 1.516 . S
C1537 C1536 1.516 . S
C1537 C1538 1.502 . S
C1537 C1539 1.561 . S
C1537 C1540 1.526 . S
C1538 H1522 0.959 . S
C1538 H1523 0.959 . S
C1538 H1524 0.961 . S
C1538 C1537 1.502 . S
C1539 H1525 0.960 . S
C1539 H1526 0.961 . S
C1539 H1527 0.959 . S
C1539 C1537 1.561 . S
C1540 C1537 1.526 . S
C1540 C1541 1.396 . S
C1540 C1545 1.390 . S
C1541 C1535 1.465 . S
C1541 C1540 1.396 . S
C1541 C1542 1.399 . S
C1542 H1528 0.929 . S
C1542 C1541 1.399 . S
C1542 C1543 1.385 . S
C1543 H1529 0.931 . S
C1543 C1542 1.385 . S
C1543 C1544 1.389 . S
C1544 C1543 1.389 . S
C1544 C1545 1.387 . S
C1545 H1530 0.930 . S
C1545 C1540 1.390 . S
C1545 C1544 1.387 . S
H1546 C1558 0.930 . S
H1547 C1560 0.930 . S
H1548 C1561 0.930 . S
H1549 C1565 0.959 . S
H1550 C1565 0.959 . S
H1551 C1565 0.961 . S
H1552 C1566 0.960 . S
H1553 C1566 0.961 . S
H1554 C1566 0.959 . S
H1555 C1569 0.929 . S
H1556 C1570 0.931 . S
H1557 C1572 0.930 . S
C1558 H1546 0.930 . S
C1558 C1559 1.399 . S
C1558 C1563 1.399 . S
C1559 C1558 1.399 . S
C1559 C1560 1.376 . S
C1560 H1547 0.930 . S
C1560 C1559 1.376 . S
C1560 C1561 1.388 . S
C1561 H1548 0.930 . S
C1561 C1560 1.388 . S
C1561 C1562 1.390 . S
C1562 C1561 1.390 . S
C1562 C1563 1.394 . S
C1562 C1568 1.465 . S
C1563 C1558 1.399 . S
C1563 C1562 1.394 . S
C1563 C1564 1.516 . S
C1564 C1563 1.516 . S
C1564 C1565 1.502 . S
C1564 C1566 1.561 . S
C1564 C1567 1.526 . S
C1565 H1549 0.959 . S
C1565 H1550 0.959 . S
C1565 H1551 0.961 . S
C1565 C1564 1.502 . S
C1566 H1552 0.960 . S
C1566 H1553 0.961 . S
C1566 H1554 0.959 . S
C1566 C1564 1.561 . S
C1567 C1564 1.526 . S
C1567 C1568 1.396 . S
C1567 C1572 1.390 . S
C1568 C1562 1.465 . S
C1568 C1567 1.396 . S
C1568 C1569 1.399 . S
C1569 H1555 0.929 . S
C1569 C1568 1.399 . S
C1569 C1570 1.385 . S
C1570 H1556 0.931 . S
C1570 C1569 1.385 . S
C1570 C1571 1.389 . S
C1571 C1570 1.389 . S
C1571 C1572 1.387 . S
C1572 H1557 0.930 . S
C1572 C1567 1.390 . S
C1572 C1571 1.387 . S
H1573 C1585 0.930 . S
H1574 C1587 0.930 . S
H1575 C1588 0.930 . S
H1576 C1592 0.959 . S
H1577 C1592 0.959 . S
H1578 C1592 0.961 . S
H1579 C1593 0.960 . S
H1580 C1593 0.961 . S
H1581 C1593 0.959 . S
H1582 C1596 0.929 . S
H1583 C1597 0.931 . S
H1584 C1599 0.930 . S
C1585 H1573 0.930 . S
C1585 C1586 1.399 . S
C1585 C1590 1.399 . S
C1586 C1585 1.399 . S
C1586 C1587 1.376 . S
C1587 H1574 0.930 . S
C1587 C1586 1.376 . S
C1587 C1588 1.388 . S
C1588 H1575 0.930 . S
C1588 C1587 1.388 . S
C1588 C1589 1.390 . S
C1589 C1588 1.390 . S
C1589 C1590 1.394 . S
C1589 C1595 1.465 . S
C1590 C1585 1.399 . S
C1590 C1589 1.394 . S
C1590 C1591 1.516 . S
C1591 C1590 1.516 . S
C1591 C1592 1.502 . S
C1591 C1593 1.561 . S
C1591 C1594 1.526 . S
C1592 H1576 0.959 . S
C1592 H1577 0.959 . S
C1592 H1578 0.961 . S
C1592 C1591 1.502 . S
C1593 H1579 0.960 . S
C1593 H1580 0.961 . S
C1593 H1581 0.959 . S
C1593 C1591 1.561 . S
C1594 C1591 1.526 . S
C1594 C1595 1.396 . S
C1594 C1599 1.390 . S
C1595 C1589 1.465 . S
C1595 C1594 1.396 . S
C1595 C1596 1.399 . S
C1596 H1582 0.929 . S
C1596 C1595 1.399 . S
C1596 C1597 1.385 . S
C1597 H1583 0.931 . S
C1597 C1596 1.385 . S
C1597 C1598 1.389 . S
C1598 C1597 1.389 . S
C1598 C1599 1.387 . S
C1599 H1584 0.930 . S
C1599 C1594 1.390 . S
C1599 C1598 1.387 . S
H1600 C1612 0.930 . S
H1601 C1614 0.930 . S
H1602 C1615 0.930 . S
H1603 C1619 0.959 . S
H1604 C1619 0.942 1_655 S
H1605 C1619 0.961 . S
H1606 C1620 0.960 . S
H1607 C1620 0.961 . S
H1608 C1620 0.959 . S
H1609 C1623 0.929 . S
H1610 C1624 0.931 . S
H1611 C1626 0.930 . S
C1612 H1600 0.930 . S
C1612 C1613 1.399 . S
C1612 C1617 1.399 . S
C1613 C1612 1.399 . S
C1613 C1614 1.376 . S
C1614 H1601 0.930 . S
C1614 C1613 1.376 . S
C1614 C1615 1.388 . S
C1615 H1602 0.930 . S
C1615 C1614 1.388 . S
C1615 C1616 1.390 . S
C1616 C1615 1.390 . S
C1616 C1617 1.394 . S
C1616 C1622 1.465 . S
C1617 C1612 1.399 . S
C1617 C1616 1.394 . S
C1617 C1618 1.516 . S
C1618 C1617 1.516 . S
C1618 C1619 1.502 . S
C1618 C1620 1.561 . S
C1618 C1621 1.526 . S
C1619 H1603 0.959 . S
C1619 H1604 0.942 1_455 S
C1619 H1605 0.961 . S
C1619 C1618 1.502 . S
C1620 H1606 0.960 . S
C1620 H1607 0.961 . S
C1620 H1608 0.959 . S
C1620 C1618 1.561 . S
C1621 C1618 1.526 . S
C1621 C1622 1.396 . S
C1621 C1626 1.390 . S
C1622 C1616 1.465 . S
C1622 C1621 1.396 . S
C1622 C1623 1.399 . S
C1623 H1609 0.929 . S
C1623 C1622 1.399 . S
C1623 C1624 1.385 . S
C1624 H1610 0.931 . S
C1624 C1623 1.385 . S
C1624 C1625 1.389 . S
C1625 C1624 1.389 . S
C1625 C1626 1.387 . S
C1626 H1611 0.930 . S
C1626 C1621 1.390 . S
C1626 C1625 1.387 . S
H1627 C1639 0.930 . S
H1628 C1641 0.930 . S
H1629 C1642 0.930 . S
H1630 C1646 0.959 . S
H1631 C1646 0.959 . S
H1632 C1646 0.961 . S
H1633 C1647 0.960 . S
H1634 C1647 0.961 . S
H1635 C1647 0.959 . S
H1636 C1650 0.929 . S
H1637 C1651 0.931 . S
H1638 C1653 0.930 . S
C1639 H1627 0.930 . S
C1639 C1640 1.399 . S
C1639 C1644 1.399 . S
C1640 C1639 1.399 . S
C1640 C1641 1.376 . S
C1641 H1628 0.930 . S
C1641 C1640 1.376 . S
C1641 C1642 1.388 . S
C1642 H1629 0.930 . S
C1642 C1641 1.388 . S
C1642 C1643 1.390 . S
C1643 C1642 1.390 . S
C1643 C1644 1.394 . S
C1643 C1649 1.465 . S
C1644 C1639 1.399 . S
C1644 C1643 1.394 . S
C1644 C1645 1.516 . S
C1645 C1644 1.516 . S
C1645 C1646 1.502 . S
C1645 C1647 1.561 . S
C1645 C1648 1.526 . S
C1646 H1630 0.959 . S
C1646 H1631 0.959 . S
C1646 H1632 0.961 . S
C1646 C1645 1.502 . S
C1647 H1633 0.960 . S
C1647 H1634 0.961 . S
C1647 H1635 0.959 . S
C1647 C1645 1.561 . S
C1648 C1645 1.526 . S
C1648 C1649 1.396 . S
C1648 C1653 1.390 . S
C1649 C1643 1.465 . S
C1649 C1648 1.396 . S
C1649 C1650 1.399 . S
C1650 H1636 0.929 . S
C1650 C1649 1.399 . S
C1650 C1651 1.385 . S
C1651 H1637 0.931 . S
C1651 C1650 1.385 . S
C1651 C1652 1.389 . S
C1652 C1651 1.389 . S
C1652 C1653 1.387 . S
C1653 H1638 0.930 . S
C1653 C1648 1.390 . S
C1653 C1652 1.387 . S
H1654 C1666 0.930 . S
H1655 C1668 0.930 . S
H1656 C1669 0.930 . S
H1657 C1673 0.959 . S
H1658 C1673 0.959 . S
H1659 C1673 0.961 . S
H1660 C1674 0.960 . S
H1661 C1674 0.961 . S
H1662 C1674 0.959 . S
H1663 C1677 0.929 . S
H1664 C1678 0.931 . S
H1665 C1680 0.930 . S
C1666 H1654 0.930 . S
C1666 C1667 1.399 . S
C1666 C1671 1.399 . S
C1667 C1666 1.399 . S
C1667 C1668 1.376 . S
C1668 H1655 0.930 . S
C1668 C1667 1.376 . S
C1668 C1669 1.388 . S
C1669 H1656 0.930 . S
C1669 C1668 1.388 . S
C1669 C1670 1.390 . S
C1670 C1669 1.390 . S
C1670 C1671 1.394 . S
C1670 C1676 1.465 . S
C1671 C1666 1.399 . S
C1671 C1670 1.394 . S
C1671 C1672 1.516 . S
C1672 C1671 1.516 . S
C1672 C1673 1.502 . S
C1672 C1674 1.561 . S
C1672 C1675 1.526 . S
C1673 H1657 0.959 . S
C1673 H1658 0.959 . S
C1673 H1659 0.961 . S
C1673 C1672 1.502 . S
C1674 H1660 0.960 . S
C1674 H1661 0.961 . S
C1674 H1662 0.959 . S
C1674 C1672 1.561 . S
C1675 C1672 1.526 . S
C1675 C1676 1.396 . S
C1675 C1680 1.390 . S
C1676 C1670 1.465 . S
C1676 C1675 1.396 . S
C1676 C1677 1.399 . S
C1677 H1663 0.929 . S
C1677 C1676 1.399 . S
C1677 C1678 1.385 . S
C1678 H1664 0.931 . S
C1678 C1677 1.385 . S
C1678 C1679 1.389 . S
C1679 C1678 1.389 . S
C1679 C1680 1.387 . S
C1680 H1665 0.930 . S
C1680 C1675 1.390 . S
C1680 C1679 1.387 . S
H1681 C1693 0.930 . S
H1682 C1695 0.930 . S
H1683 C1696 0.930 . S
H1684 C1700 0.959 . S
H1685 C1700 0.959 . S
H1686 C1700 0.961 . S
H1687 C1701 0.960 . S
H1688 C1701 0.961 . S
H1689 C1701 0.959 . S
H1690 C1704 0.929 . S
H1691 C1705 0.931 . S
H1692 C1707 0.930 . S
C1693 H1681 0.930 . S
C1693 C1694 1.399 . S
C1693 C1698 1.399 . S
C1694 C1693 1.399 . S
C1694 C1695 1.376 . S
C1695 H1682 0.930 . S
C1695 C1694 1.376 . S
C1695 C1696 1.388 . S
C1696 H1683 0.930 . S
C1696 C1695 1.388 . S
C1696 C1697 1.390 . S
C1697 C1696 1.390 . S
C1697 C1698 1.394 . S
C1697 C1703 1.465 . S
C1698 C1693 1.399 . S
C1698 C1697 1.394 . S
C1698 C1699 1.516 . S
C1699 C1698 1.516 . S
C1699 C1700 1.502 . S
C1699 C1701 1.561 . S
C1699 C1702 1.526 . S
C1700 H1684 0.959 . S
C1700 H1685 0.959 . S
C1700 H1686 0.961 . S
C1700 C1699 1.502 . S
C1701 H1687 0.960 . S
C1701 H1688 0.961 . S
C1701 H1689 0.959 . S
C1701 C1699 1.561 . S
C1702 C1699 1.526 . S
C1702 C1703 1.396 . S
C1702 C1707 1.390 . S
C1703 C1697 1.465 . S
C1703 C1702 1.396 . S
C1703 C1704 1.399 . S
C1704 H1690 0.929 . S
C1704 C1703 1.399 . S
C1704 C1705 1.385 . S
C1705 H1691 0.931 . S
C1705 C1704 1.385 . S
C1705 C1706 1.389 . S
C1706 C1705 1.389 . S
C1706 C1707 1.387 . S
C1707 H1692 0.930 . S
C1707 C1702 1.390 . S
C1707 C1706 1.387 . S
H1708 C1720 0.930 . S
H1709 C1722 0.930 . S
H1710 C1723 0.930 . S
H1711 C1727 0.975 . S
H1712 C1727 0.959 . S
H1713 C1727 0.961 . S
H1714 C1728 0.960 . S
H1715 C1728 0.961 . S
H1716 C1728 0.959 . S
H1717 C1731 0.929 . S
H1718 C1732 0.931 . S
H1719 C1734 0.930 1_655 S
C1720 H1708 0.930 . S
C1720 C1721 1.399 . S
C1720 C1725 1.399 . S
C1721 C1720 1.399 . S
C1721 C1722 1.376 . S
C1722 H1709 0.930 . S
C1722 C1721 1.376 . S
C1722 C1723 1.388 . S
C1723 H1710 0.930 . S
C1723 C1722 1.388 . S
C1723 C1724 1.390 . S
C1724 C1723 1.390 . S
C1724 C1725 1.394 . S
C1724 C1730 1.465 . S
C1725 C1720 1.399 . S
C1725 C1724 1.394 . S
C1725 C1726 1.499 1_455 S
C1726 C1725 1.499 1_655 S
C1726 C1727 1.520 . S
C1726 C1728 1.575 . S
C1726 C1729 1.509 1_655 S
C1727 H1711 0.975 . S
C1727 H1712 0.959 . S
C1727 H1713 0.961 . S
C1727 C1726 1.520 . S
C1728 H1714 0.960 . S
C1728 H1715 0.961 . S
C1728 H1716 0.959 . S
C1728 C1726 1.575 . S
C1729 C1726 1.509 1_455 S
C1729 C1730 1.396 . S
C1729 C1734 1.390 . S
C1730 C1724 1.465 . S
C1730 C1729 1.396 . S
C1730 C1731 1.399 . S
C1731 H1717 0.929 . S
C1731 C1730 1.399 . S
C1731 C1732 1.385 . S
C1732 H1718 0.931 . S
C1732 C1731 1.385 . S
C1732 C1733 1.389 . S
C1733 C1732 1.389 . S
C1733 C1734 1.387 . S
C1734 H1719 0.930 1_455 S
C1734 C1729 1.390 . S
C1734 C1733 1.387 . S
H1735 C1747 0.930 . S
H1736 C1749 0.930 . S
H1737 C1750 0.930 . S
H1738 C1754 0.959 . S
H1739 C1754 0.959 . S
H1740 C1754 0.961 . S
H1741 C1755 0.960 . S
H1742 C1755 0.961 . S
H1743 C1755 0.959 . S
H1744 C1758 0.929 . S
H1745 C1759 0.931 . S
H1746 C1761 0.930 . S
C1747 H1735 0.930 . S
C1747 C1748 1.399 . S
C1747 C1752 1.399 . S
C1748 C1747 1.399 . S
C1748 C1749 1.376 . S
C1749 H1736 0.930 . S
C1749 C1748 1.376 . S
C1749 C1750 1.388 . S
C1750 H1737 0.930 . S
C1750 C1749 1.388 . S
C1750 C1751 1.390 . S
C1751 C1750 1.390 . S
C1751 C1752 1.394 . S
C1751 C1757 1.465 . S
C1752 C1747 1.399 . S
C1752 C1751 1.394 . S
C1752 C1753 1.516 . S
C1753 C1752 1.516 . S
C1753 C1754 1.502 . S
C1753 C1755 1.561 . S
C1753 C1756 1.526 . S
C1754 H1738 0.959 . S
C1754 H1739 0.959 . S
C1754 H1740 0.961 . S
C1754 C1753 1.502 . S
C1755 H1741 0.960 . S
C1755 H1742 0.961 . S
C1755 H1743 0.959 . S
C1755 C1753 1.561 . S
C1756 C1753 1.526 . S
C1756 C1757 1.396 . S
C1756 C1761 1.390 . S
C1757 C1751 1.465 . S
C1757 C1756 1.396 . S
C1757 C1758 1.399 . S
C1758 H1744 0.929 . S
C1758 C1757 1.399 . S
C1758 C1759 1.385 . S
C1759 H1745 0.931 . S
C1759 C1758 1.385 . S
C1759 C1760 1.389 . S
C1760 C1759 1.389 . S
C1760 C1761 1.387 . S
C1761 H1746 0.930 . S
C1761 C1756 1.390 . S
C1761 C1760 1.387 . S
H1762 C1774 0.930 . S
H1763 C1776 0.930 . S
H1764 C1777 0.930 . S
H1765 C1781 0.959 . S
H1766 C1781 0.959 . S
H1767 C1781 0.961 . S
H1768 C1782 0.960 . S
H1769 C1782 0.961 . S
H1770 C1782 0.959 . S
H1771 C1785 0.929 . S
H1772 C1786 0.931 1_545 S
H1773 C1788 0.930 . S
C1774 H1762 0.930 . S
C1774 C1775 1.399 . S
C1774 C1779 1.399 . S
C1775 C1774 1.399 . S
C1775 C1776 1.376 . S
C1776 H1763 0.930 . S
C1776 C1775 1.376 . S
C1776 C1777 1.388 . S
C1777 H1764 0.930 . S
C1777 C1776 1.388 . S
C1777 C1778 1.390 . S
C1778 C1777 1.390 . S
C1778 C1779 1.394 . S
C1778 C1784 1.465 . S
C1779 C1774 1.399 . S
C1779 C1778 1.394 . S
C1779 C1780 1.516 . S
C1780 C1779 1.516 . S
C1780 C1781 1.502 . S
C1780 C1782 1.561 . S
C1780 C1783 1.526 . S
C1781 H1765 0.959 . S
C1781 H1766 0.959 . S
C1781 H1767 0.961 . S
C1781 C1780 1.502 . S
C1782 H1768 0.960 . S
C1782 H1769 0.961 . S
C1782 H1770 0.959 . S
C1782 C1780 1.561 . S
C1783 C1780 1.526 . S
C1783 C1784 1.396 . S
C1783 C1788 1.390 . S
C1784 C1778 1.465 . S
C1784 C1783 1.396 . S
C1784 C1785 1.399 . S
C1785 H1771 0.929 . S
C1785 C1784 1.399 . S
C1785 C1786 1.385 . S
C1786 H1772 0.931 1_565 S
C1786 C1785 1.385 . S
C1786 C1787 1.389 . S
C1787 C1786 1.389 . S
C1787 C1788 1.387 . S
C1788 H1773 0.930 . S
C1788 C1783 1.390 . S
C1788 C1787 1.387 . S
H1789 C1801 0.930 . S
H1790 C1803 0.930 . S
H1791 C1804 0.930 . S
H1792 C1808 0.959 . S
H1793 C1808 0.959 . S
H1794 C1808 0.961 . S
H1795 C1809 0.960 . S
H1796 C1809 0.961 . S
H1797 C1809 0.959 . S
H1798 C1812 0.929 . S
H1799 C1813 0.931 . S
H1800 C1815 0.930 . S
C1801 H1789 0.930 . S
C1801 C1802 1.399 . S
C1801 C1806 1.399 . S
C1802 C1801 1.399 . S
C1802 C1803 1.376 . S
C1803 H1790 0.930 . S
C1803 C1802 1.376 . S
C1803 C1804 1.388 . S
C1804 H1791 0.930 . S
C1804 C1803 1.388 . S
C1804 C1805 1.390 . S
C1805 C1804 1.390 . S
C1805 C1806 1.394 . S
C1805 C1811 1.465 . S
C1806 C1801 1.399 . S
C1806 C1805 1.394 . S
C1806 C1807 1.516 . S
C1807 C1806 1.516 . S
C1807 C1808 1.502 . S
C1807 C1809 1.561 . S
C1807 C1810 1.526 . S
C1808 H1792 0.959 . S
C1808 H1793 0.959 . S
C1808 H1794 0.961 . S
C1808 C1807 1.502 . S
C1809 H1795 0.960 . S
C1809 H1796 0.961 . S
C1809 H1797 0.959 . S
C1809 C1807 1.561 . S
C1810 C1807 1.526 . S
C1810 C1811 1.396 . S
C1810 C1815 1.390 . S
C1811 C1805 1.465 . S
C1811 C1810 1.396 . S
C1811 C1812 1.399 . S
C1812 H1798 0.929 . S
C1812 C1811 1.399 . S
C1812 C1813 1.385 . S
C1813 H1799 0.931 . S
C1813 C1812 1.385 . S
C1813 C1814 1.389 . S
C1814 C1813 1.389 . S
C1814 C1815 1.387 . S
C1815 H1800 0.930 . S
C1815 C1810 1.390 . S
C1815 C1814 1.387 . S
H1816 C1828 0.930 . S
H1817 C1830 0.930 . S
H1818 C1831 0.930 . S
H1819 C1835 0.959 . S
H1820 C1835 0.959 . S
H1821 C1835 0.961 . S
H1822 C1836 0.960 . S
H1823 C1836 0.961 . S
H1824 C1836 0.959 . S
H1825 C1839 0.929 . S
H1826 C1840 0.931 . S
H1827 C1842 0.930 . S
C1828 H1816 0.930 . S
C1828 C1829 1.399 . S
C1828 C1833 1.399 . S
C1829 C1828 1.399 . S
C1829 C1830 1.376 . S
C1830 H1817 0.930 . S
C1830 C1829 1.376 . S
C1830 C1831 1.388 . S
C1831 H1818 0.930 . S
C1831 C1830 1.388 . S
C1831 C1832 1.390 . S
C1832 C1831 1.390 . S
C1832 C1833 1.394 . S
C1832 C1838 1.465 . S
C1833 C1828 1.399 . S
C1833 C1832 1.394 . S
C1833 C1834 1.516 . S
C1834 C1833 1.516 . S
C1834 C1835 1.502 . S
C1834 C1836 1.561 . S
C1834 C1837 1.526 . S
C1835 H1819 0.959 . S
C1835 H1820 0.959 . S
C1835 H1821 0.961 . S
C1835 C1834 1.502 . S
C1836 H1822 0.960 . S
C1836 H1823 0.961 . S
C1836 H1824 0.959 . S
C1836 C1834 1.561 . S
C1837 C1834 1.526 . S
C1837 C1838 1.396 . S
C1837 C1842 1.390 . S
C1838 C1832 1.465 . S
C1838 C1837 1.396 . S
C1838 C1839 1.399 . S
C1839 H1825 0.929 . S
C1839 C1838 1.399 . S
C1839 C1840 1.385 . S
C1840 H1826 0.931 . S
C1840 C1839 1.385 . S
C1840 C1841 1.389 . S
C1841 C1840 1.389 . S
C1841 C1842 1.387 . S
C1842 H1827 0.930 . S
C1842 C1837 1.390 . S
C1842 C1841 1.387 . S
H1843 C1855 0.930 . S
H1844 C1857 0.930 . S
H1845 C1858 0.930 . S
H1846 C1862 0.959 . S
H1847 C1862 0.959 . S
H1848 C1862 0.961 . S
H1849 C1863 0.960 . S
H1850 C1863 0.961 . S
H1851 C1863 0.959 . S
H1852 C1866 0.929 . S
H1853 C1867 0.931 . S
H1854 C1869 0.930 . S
C1855 H1843 0.930 . S
C1855 C1856 1.399 . S
C1855 C1860 1.399 . S
C1856 C1855 1.399 . S
C1856 C1857 1.376 . S
C1857 H1844 0.930 . S
C1857 C1856 1.376 . S
C1857 C1858 1.388 . S
C1858 H1845 0.930 . S
C1858 C1857 1.388 . S
C1858 C1859 1.390 . S
C1859 C1858 1.390 . S
C1859 C1860 1.394 . S
C1859 C1865 1.465 . S
C1860 C1855 1.399 . S
C1860 C1859 1.394 . S
C1860 C1861 1.516 . S
C1861 C1860 1.516 . S
C1861 C1862 1.502 . S
C1861 C1863 1.561 . S
C1861 C1864 1.526 . S
C1862 H1846 0.959 . S
C1862 H1847 0.959 . S
C1862 H1848 0.961 . S
C1862 C1861 1.502 . S
C1863 H1849 0.960 . S
C1863 H1850 0.961 . S
C1863 H1851 0.959 . S
C1863 C1861 1.561 . S
C1864 C1861 1.526 . S
C1864 C1865 1.396 . S
C1864 C1869 1.390 . S
C1865 C1859 1.465 . S
C1865 C1864 1.396 . S
C1865 C1866 1.399 . S
C1866 H1852 0.929 . S
C1866 C1865 1.399 . S
C1866 C1867 1.385 . S
C1867 H1853 0.931 . S
C1867 C1866 1.385 . S
C1867 C1868 1.389 . S
C1868 C1867 1.389 . S
C1868 C1869 1.387 . S
C1869 H1854 0.930 . S
C1869 C1864 1.390 . S
C1869 C1868 1.387 . S
H1870 C1882 0.930 . S
H1871 C1884 0.930 . S
H1872 C1885 0.930 . S
H1873 C1889 0.959 . S
H1874 C1889 0.959 . S
H1875 C1889 0.961 . S
H1876 C1890 0.960 . S
H1877 C1890 0.961 . S
H1878 C1890 0.959 . S
H1879 C1893 0.929 . S
H1880 C1894 0.931 . S
H1881 C1896 0.930 1_565 S
C1882 H1870 0.930 . S
C1882 C1883 1.399 1_565 S
C1882 C1887 1.399 1_565 S
C1883 C1882 1.399 1_545 S
C1883 C1884 1.376 . S
C1884 H1871 0.930 . S
C1884 C1883 1.376 . S
C1884 C1885 1.388 . S
C1885 H1872 0.930 . S
C1885 C1884 1.388 . S
C1885 C1886 1.390 . S
C1886 C1885 1.390 . S
C1886 C1887 1.394 . S
C1886 C1892 1.465 . S
C1887 C1882 1.399 1_545 S
C1887 C1886 1.394 . S
C1887 C1888 1.516 1_545 S
C1888 C1887 1.516 1_565 S
C1888 C1889 1.502 . S
C1888 C1890 1.561 . S
C1888 C1891 1.526 1_565 S
C1889 H1873 0.959 . S
C1889 H1874 0.959 . S
C1889 H1875 0.961 . S
C1889 C1888 1.502 . S
C1890 H1876 0.960 . S
C1890 H1877 0.961 . S
C1890 H1878 0.959 . S
C1890 C1888 1.561 . S
C1891 C1888 1.526 1_545 S
C1891 C1892 1.396 . S
C1891 C1896 1.390 . S
C1892 C1886 1.465 . S
C1892 C1891 1.396 . S
C1892 C1893 1.399 . S
C1893 H1879 0.929 . S
C1893 C1892 1.399 . S
C1893 C1894 1.385 . S
C1894 H1880 0.931 . S
C1894 C1893 1.385 . S
C1894 C1895 1.389 . S
C1895 C1894 1.389 . S
C1895 C1896 1.387 . S
C1896 H1881 0.930 1_545 S
C1896 C1891 1.390 . S
C1896 C1895 1.387 . S
H1897 C1909 0.930 . S
H1898 C1911 0.930 . S
H1899 C1912 0.930 . S
H1900 C1916 0.959 . S
H1901 C1916 0.959 . S
H1902 C1916 0.961 . S
H1903 C1917 0.960 . S
H1904 C1917 0.961 . S
H1905 C1917 0.959 . S
H1906 C1920 0.929 . S
H1907 C1921 0.931 . S
H1908 C1923 0.930 . S
C1909 H1897 0.930 . S
C1909 C1910 1.399 . S
C1909 C1914 1.399 . S
C1910 C1909 1.399 . S
C1910 C1911 1.376 . S
C1911 H1898 0.930 . S
C1911 C1910 1.376 . S
C1911 C1912 1.388 . S
C1912 H1899 0.930 . S
C1912 C1911 1.388 . S
C1912 C1913 1.390 . S
C1913 C1912 1.390 . S
C1913 C1914 1.394 . S
C1913 C1919 1.465 . S
C1914 C1909 1.399 . S
C1914 C1913 1.394 . S
C1914 C1915 1.516 . S
C1915 C1914 1.516 . S
C1915 C1916 1.502 . S
C1915 C1917 1.561 . S
C1915 C1918 1.526 . S
C1916 H1900 0.959 . S
C1916 H1901 0.959 . S
C1916 H1902 0.961 . S
C1916 C1915 1.502 . S
C1917 H1903 0.960 . S
C1917 H1904 0.961 . S
C1917 H1905 0.959 . S
C1917 C1915 1.561 . S
C1918 C1915 1.526 . S
C1918 C1919 1.396 . S
C1918 C1923 1.390 . S
C1919 C1913 1.465 . S
C1919 C1918 1.396 . S
C1919 C1920 1.399 . S
C1920 H1906 0.929 . S
C1920 C1919 1.399 . S
C1920 C1921 1.385 . S
C1921 H1907 0.931 . S
C1921 C1920 1.385 . S
C1921 C1922 1.389 . S
C1922 C1921 1.389 . S
C1922 C1923 1.387 . S
C1923 H1908 0.930 . S
C1923 C1918 1.390 . S
C1923 C1922 1.387 . S
H1924 C1936 0.930 . S
H1925 C1938 0.930 . S
H1926 C1939 0.930 . S
H1927 C1943 0.959 . S
H1928 C1943 0.979 . S
H1929 C1943 0.961 . S
H1930 C1944 0.960 . S
H1931 C1944 0.961 . S
H1932 C1944 0.959 . S
H1933 C1947 0.929 . S
H1934 C1948 0.931 . S
H1935 C1950 0.930 . S
C1936 H1924 0.930 . S
C1936 C1937 1.399 . S
C1936 C1941 1.399 . S
C1937 C1936 1.399 . S
C1937 C1938 1.376 . S
C1938 H1925 0.930 . S
C1938 C1937 1.376 . S
C1938 C1939 1.388 . S
C1939 H1926 0.930 . S
C1939 C1938 1.388 . S
C1939 C1940 1.390 . S
C1940 C1939 1.390 . S
C1940 C1941 1.394 . S
C1940 C1946 1.465 . S
C1941 C1936 1.399 . S
C1941 C1940 1.394 . S
C1941 C1942 1.516 . S
C1942 C1941 1.516 . S
C1942 C1943 1.502 . S
C1942 C1944 1.561 1_545 S
C1942 C1945 1.526 . S
C1943 H1927 0.959 . S
C1943 H1928 0.979 . S
C1943 H1929 0.961 . S
C1943 C1942 1.502 . S
C1944 H1930 0.960 . S
C1944 H1931 0.961 . S
C1944 H1932 0.959 . S
C1944 C1942 1.561 1_565 S
C1945 C1942 1.526 . S
C1945 C1946 1.396 . S
C1945 C1950 1.390 . S
C1946 C1940 1.465 . S
C1946 C1945 1.396 . S
C1946 C1947 1.399 . S
C1947 H1933 0.929 . S
C1947 C1946 1.399 . S
C1947 C1948 1.385 . S
C1948 H1934 0.931 . S
C1948 C1947 1.385 . S
C1948 C1949 1.389 . S
C1949 C1948 1.389 . S
C1949 C1950 1.387 . S
C1950 H1935 0.930 . S
C1950 C1945 1.390 . S
C1950 C1949 1.387 . S
H1951 C1963 0.930 . S
H1952 C1965 0.930 . S
H1953 C1966 0.930 . S
H1954 C1970 0.959 . S
H1955 C1970 0.959 . S
H1956 C1970 0.961 . S
H1957 C1971 0.960 . S
H1958 C1971 0.961 . S
H1959 C1971 0.959 . S
H1960 C1974 0.929 . S
H1961 C1975 0.931 . S
H1962 C1977 0.930 . S
C1963 H1951 0.930 . S
C1963 C1964 1.399 . S
C1963 C1968 1.399 . S
C1964 C1963 1.399 . S
C1964 C1965 1.376 . S
C1965 H1952 0.930 . S
C1965 C1964 1.376 . S
C1965 C1966 1.388 . S
C1966 H1953 0.930 . S
C1966 C1965 1.388 . S
C1966 C1967 1.390 . S
C1967 C1966 1.390 . S
C1967 C1968 1.394 . S
C1967 C1973 1.465 . S
C1968 C1963 1.399 . S
C1968 C1967 1.394 . S
C1968 C1969 1.516 . S
C1969 C1968 1.516 . S
C1969 C1970 1.502 . S
C1969 C1971 1.561 . S
C1969 C1972 1.526 . S
C1970 H1954 0.959 . S
C1970 H1955 0.959 . S
C1970 H1956 0.961 . S
C1970 C1969 1.502 . S
C1971 H1957 0.960 . S
C1971 H1958 0.961 . S
C1971 H1959 0.959 . S
C1971 C1969 1.561 . S
C1972 C1969 1.526 . S
C1972 C1973 1.396 . S
C1972 C1977 1.390 . S
C1973 C1967 1.465 . S
C1973 C1972 1.396 . S
C1973 C1974 1.399 . S
C1974 H1960 0.929 . S
C1974 C1973 1.399 . S
C1974 C1975 1.385 . S
C1975 H1961 0.931 . S
C1975 C1974 1.385 . S
C1975 C1976 1.389 . S
C1976 C1975 1.389 . S
C1976 C1977 1.387 . S
C1977 H1962 0.930 . S
C1977 C1972 1.390 . S
C1977 C1976 1.387 . S
H1978 C1990 0.930 . S
H1979 C1992 0.930 . S
H1980 C1993 0.930 . S
H1981 C1997 0.959 . S
H1982 C1997 0.959 . S
H1983 C1997 0.961 . S
H1984 C1998 0.960 . S
H1985 C1998 0.961 . S
H1986 C1998 0.959 1_565 S
H1987 C2001 0.929 . S
H1988 C2002 0.931 . S
H1989 C2004 0.930 . S
C1990 H1978 0.930 . S
C1990 C1991 1.399 . S
C1990 C1995 1.399 . S
C1991 C1990 1.399 . S
C1991 C1992 1.376 1_545 S
C1992 H1979 0.930 . S
C1992 C1991 1.376 1_565 S
C1992 C1993 1.388 . S
C1993 H1980 0.930 . S
C1993 C1992 1.388 . S
C1993 C1994 1.390 . S
C1994 C1993 1.390 . S
C1994 C1995 1.394 1_565 S
C1994 C2000 1.465 . S
C1995 C1990 1.399 . S
C1995 C1994 1.394 1_545 S
C1995 C1996 1.516 . S
C1996 C1995 1.516 . S
C1996 C1997 1.502 . S
C1996 C1998 1.561 . S
C1996 C1999 1.526 . S
C1997 H1981 0.959 . S
C1997 H1982 0.959 . S
C1997 H1983 0.961 . S
C1997 C1996 1.502 . S
C1998 H1984 0.960 . S
C1998 H1985 0.961 . S
C1998 H1986 0.959 1_545 S
C1998 C1996 1.561 . S
C1999 C1996 1.526 . S
C1999 C2000 1.396 1_545 S
C1999 C2004 1.390 . S
C2000 C1994 1.465 . S
C2000 C1999 1.396 1_565 S
C2000 C2001 1.399 . S
C2001 H1987 0.929 . S
C2001 C2000 1.399 . S
C2001 C2002 1.385 . S
C2002 H1988 0.931 . S
C2002 C2001 1.385 . S
C2002 C2003 1.389 . S
C2003 C2002 1.389 . S
C2003 C2004 1.387 1_565 S
C2004 H1989 0.930 . S
C2004 C1999 1.390 . S
C2004 C2003 1.387 1_545 S
H2005 C2017 0.930 . S
H2006 C2019 0.930 . S
H2007 C2020 0.930 . S
H2008 C2024 0.959 . S
H2009 C2024 0.959 . S
H2010 C2024 0.961 . S
H2011 C2025 0.960 . S
H2012 C2025 0.961 . S
H2013 C2025 0.959 . S
H2014 C2028 0.929 . S
H2015 C2029 0.931 . S
H2016 C2031 0.930 . S
C2017 H2005 0.930 . S
C2017 C2018 1.399 . S
C2017 C2022 1.399 . S
C2018 C2017 1.399 . S
C2018 C2019 1.376 . S
C2019 H2006 0.930 . S
C2019 C2018 1.376 . S
C2019 C2020 1.388 . S
C2020 H2007 0.930 . S
C2020 C2019 1.388 . S
C2020 C2021 1.390 . S
C2021 C2020 1.390 . S
C2021 C2022 1.394 . S
C2021 C2027 1.465 . S
C2022 C2017 1.399 . S
C2022 C2021 1.394 . S
C2022 C2023 1.516 . S
C2023 C2022 1.516 . S
C2023 C2024 1.502 . S
C2023 C2025 1.561 . S
C2023 C2026 1.526 . S
C2024 H2008 0.959 . S
C2024 H2009 0.959 . S
C2024 H2010 0.961 . S
C2024 C2023 1.502 . S
C2025 H2011 0.960 . S
C2025 H2012 0.961 . S
C2025 H2013 0.959 . S
C2025 C2023 1.561 . S
C2026 C2023 1.526 . S
C2026 C2027 1.396 . S
C2026 C2031 1.390 . S
C2027 C2021 1.465 . S
C2027 C2026 1.396 . S
C2027 C2028 1.399 . S
C2028 H2014 0.929 . S
C2028 C2027 1.399 . S
C2028 C2029 1.385 . S
C2029 H2015 0.931 . S
C2029 C2028 1.385 . S
C2029 C2030 1.389 . S
C2030 C2029 1.389 . S
C2030 C2031 1.387 . S
C2031 H2016 0.930 . S
C2031 C2026 1.390 . S
C2031 C2030 1.387 . S
H2032 C2044 0.930 . S
H2033 C2046 0.930 . S
H2034 C2047 0.930 . S
H2035 C2051 0.959 . S
H2036 C2051 0.959 . S
H2037 C2051 0.961 . S
H2038 C2052 0.960 . S
H2039 C2052 0.961 . S
H2040 C2052 0.959 . S
H2041 C2055 0.929 1_556 S
H2042 C2056 0.931 1_556 S
H2043 C2058 0.930 . S
C2044 H2032 0.930 . S
C2044 C2045 1.399 . S
C2044 C2049 1.399 . S
C2045 C2044 1.399 . S
C2045 C2046 1.376 . S
C2046 H2033 0.930 . S
C2046 C2045 1.376 . S
C2046 C2047 1.388 . S
C2047 H2034 0.930 . S
C2047 C2046 1.388 . S
C2047 C2048 1.390 . S
C2048 C2047 1.390 . S
C2048 C2049 1.394 . S
C2048 C2054 1.465 . S
C2049 C2044 1.399 . S
C2049 C2048 1.394 . S
C2049 C2050 1.516 . S
C2050 C2049 1.516 . S
C2050 C2051 1.502 . S
C2050 C2052 1.561 . S
C2050 C2053 1.526 . S
C2051 H2035 0.959 . S
C2051 H2036 0.959 . S
C2051 H2037 0.961 . S
C2051 C2050 1.502 . S
C2052 H2038 0.960 . S
C2052 H2039 0.961 . S
C2052 H2040 0.959 . S
C2052 C2050 1.561 . S
C2053 C2050 1.526 . S
C2053 C2054 1.396 . S
C2053 C2058 1.390 . S
C2054 C2048 1.465 . S
C2054 C2053 1.396 . S
C2054 C2055 1.399 . S
C2055 H2041 0.929 1_554 S
C2055 C2054 1.399 . S
C2055 C2056 1.385 . S
C2056 H2042 0.931 1_554 S
C2056 C2055 1.385 . S
C2056 C2057 1.389 . S
C2057 C2056 1.389 . S
C2057 C2058 1.387 . S
C2058 H2043 0.930 . S
C2058 C2053 1.390 . S
C2058 C2057 1.387 . S
H2059 C2071 0.930 . S
H2060 C2073 0.930 . S
H2061 C2074 0.930 1_556 S
H2062 C2078 0.959 . S
H2063 C2078 0.959 . S
H2064 C2078 0.961 . S
H2065 C2079 0.960 . S
H2066 C2079 0.961 . S
H2067 C2079 0.959 . S
H2068 C2082 0.929 1_556 S
H2069 C2083 0.931 1_556 S
H2070 C2085 0.930 . S
C2071 H2059 0.930 . S
C2071 C2072 1.399 . S
C2071 C2076 1.399 . S
C2072 C2071 1.399 . S
C2072 C2073 1.376 . S
C2073 H2060 0.930 . S
C2073 C2072 1.376 . S
C2073 C2074 1.388 . S
C2074 H2061 0.930 1_554 S
C2074 C2073 1.388 . S
C2074 C2075 1.390 . S
C2075 C2074 1.390 . S
C2075 C2076 1.394 . S
C2075 C2081 1.465 . S
C2076 C2071 1.399 . S
C2076 C2075 1.394 . S
C2076 C2077 1.516 . S
C2077 C2076 1.516 . S
C2077 C2078 1.502 . S
C2077 C2079 1.561 . S
C2077 C2080 1.526 . S
C2078 H2062 0.959 . S
C2078 H2063 0.959 . S
C2078 H2064 0.961 . S
C2078 C2077 1.502 . S
C2079 H2065 0.960 . S
C2079 H2066 0.961 . S
C2079 H2067 0.959 . S
C2079 C2077 1.561 . S
C2080 C2077 1.526 . S
C2080 C2081 1.396 . S
C2080 C2085 1.390 . S
C2081 C2075 1.465 . S
C2081 C2080 1.396 . S
C2081 C2082 1.399 . S
C2082 H2068 0.929 1_554 S
C2082 C2081 1.399 . S
C2082 C2083 1.385 . S
C2083 H2069 0.931 1_554 S
C2083 C2082 1.385 . S
C2083 C2084 1.389 . S
C2084 C2083 1.389 . S
C2084 C2085 1.387 . S
C2085 H2070 0.930 . S
C2085 C2080 1.390 . S
C2085 C2084 1.387 . S
H2086 C2098 0.930 . S
H2087 C2100 0.930 . S
H2088 C2101 0.930 . S
H2089 C2105 0.959 . S
H2090 C2105 0.959 . S
H2091 C2105 0.961 . S
H2092 C2106 0.960 . S
H2093 C2106 0.961 . S
H2094 C2106 0.959 . S
H2095 C2109 0.929 . S
H2096 C2110 0.931 . S
H2097 C2112 0.930 . S
C2098 H2086 0.930 . S
C2098 C2099 1.399 . S
C2098 C2103 1.399 . S
C2099 C2098 1.399 . S
C2099 C2100 1.376 . S
C2100 H2087 0.930 . S
C2100 C2099 1.376 . S
C2100 C2101 1.388 . S
C2101 H2088 0.930 . S
C2101 C2100 1.388 . S
C2101 C2102 1.390 . S
C2102 C2101 1.390 . S
C2102 C2103 1.394 . S
C2102 C2108 1.465 . S
C2103 C2098 1.399 . S
C2103 C2102 1.394 . S
C2103 C2104 1.516 . S
C2104 C2103 1.516 . S
C2104 C2105 1.502 . S
C2104 C2106 1.561 . S
C2104 C2107 1.526 . S
C2105 H2089 0.959 . S
C2105 H2090 0.959 . S
C2105 H2091 0.961 . S
C2105 C2104 1.502 . S
C2106 H2092 0.960 . S
C2106 H2093 0.961 . S
C2106 H2094 0.959 . S
C2106 C2104 1.561 . S
C2107 C2104 1.526 . S
C2107 C2108 1.396 . S
C2107 C2112 1.390 . S
C2108 C2102 1.465 . S
C2108 C2107 1.396 . S
C2108 C2109 1.399 . S
C2109 H2095 0.929 . S
C2109 C2108 1.399 . S
C2109 C2110 1.385 . S
C2110 H2096 0.931 . S
C2110 C2109 1.385 . S
C2110 C2111 1.389 . S
C2111 C2110 1.389 . S
C2111 C2112 1.387 . S
C2112 H2097 0.930 . S
C2112 C2107 1.390 . S
C2112 C2111 1.387 . S
H2113 C2125 0.930 . S
H2114 C2127 0.930 . S
H2115 C2128 0.930 . S
H2116 C2132 0.959 . S
H2117 C2132 0.959 . S
H2118 C2132 0.961 . S
H2119 C2133 0.960 . S
H2120 C2133 0.961 . S
H2121 C2133 0.959 . S
H2122 C2136 0.929 . S
H2123 C2137 0.931 . S
H2124 C2139 0.930 . S
C2125 H2113 0.930 . S
C2125 C2126 1.399 . S
C2125 C2130 1.399 . S
C2126 C2125 1.399 . S
C2126 C2127 1.376 . S
C2127 H2114 0.930 . S
C2127 C2126 1.376 . S
C2127 C2128 1.388 . S
C2128 H2115 0.930 . S
C2128 C2127 1.388 . S
C2128 C2129 1.390 . S
C2129 C2128 1.390 . S
C2129 C2130 1.394 . S
C2129 C2135 1.465 . S
C2130 C2125 1.399 . S
C2130 C2129 1.394 . S
C2130 C2131 1.516 . S
C2131 C2130 1.516 . S
C2131 C2132 1.502 . S
C2131 C2133 1.561 . S
C2131 C2134 1.526 . S
C2132 H2116 0.959 . S
C2132 H2117 0.959 . S
C2132 H2118 0.961 . S
C2132 C2131 1.502 . S
C2133 H2119 0.960 . S
C2133 H2120 0.961 . S
C2133 H2121 0.959 . S
C2133 C2131 1.561 . S
C2134 C2131 1.526 . S
C2134 C2135 1.396 . S
C2134 C2139 1.390 . S
C2135 C2129 1.465 . S
C2135 C2134 1.396 . S
C2135 C2136 1.399 . S
C2136 H2122 0.929 . S
C2136 C2135 1.399 . S
C2136 C2137 1.385 . S
C2137 H2123 0.931 . S
C2137 C2136 1.385 . S
C2137 C2138 1.389 . S
C2138 C2137 1.389 . S
C2138 C2139 1.387 . S
C2139 H2124 0.930 . S
C2139 C2134 1.390 . S
C2139 C2138 1.387 . S
H2140 C2152 0.930 . S
H2141 C2154 0.940 . S
H2142 C2155 0.930 . S
H2143 C2159 0.959 . S
H2144 C2159 0.959 . S
H2145 C2159 0.961 . S
H2146 C2160 0.960 . S
H2147 C2160 0.961 . S
H2148 C2160 0.959 . S
H2149 C2163 0.929 . S
H2150 C2164 0.931 . S
H2151 C2166 0.930 . S
C2152 H2140 0.930 . S
C2152 C2153 1.399 . S
C2152 C2157 1.399 . S
C2153 C2152 1.399 . S
C2153 C2154 1.413 . S
C2154 H2141 0.940 . S
C2154 C2153 1.413 . S
C2154 C2155 1.339 1_545 S
C2155 H2142 0.930 . S
C2155 C2154 1.339 1_565 S
C2155 C2156 1.390 . S
C2156 C2155 1.390 . S
C2156 C2157 1.394 1_565 S
C2156 C2162 1.465 . S
C2157 C2152 1.399 . S
C2157 C2156 1.394 1_545 S
C2157 C2158 1.512 1_545 S
C2158 C2157 1.512 1_565 S
C2158 C2159 1.499 1_565 S
C2158 C2160 1.558 1_565 S
C2158 C2161 1.536 . S
C2159 H2143 0.959 . S
C2159 H2144 0.959 . S
C2159 H2145 0.961 . S
C2159 C2158 1.499 1_545 S
C2160 H2146 0.960 . S
C2160 H2147 0.961 . S
C2160 H2148 0.959 . S
C2160 C2158 1.558 1_545 S
C2161 C2158 1.536 . S
C2161 C2162 1.396 . S
C2161 C2166 1.390 . S
C2162 C2156 1.465 . S
C2162 C2161 1.396 . S
C2162 C2163 1.399 . S
C2163 H2149 0.929 . S
C2163 C2162 1.399 . S
C2163 C2164 1.385 . S
C2164 H2150 0.931 . S
C2164 C2163 1.385 . S
C2164 C2165 1.389 . S
C2165 C2164 1.389 . S
C2165 C2166 1.387 . S
C2166 H2151 0.930 . S
C2166 C2161 1.390 . S
C2166 C2165 1.387 . S
H2167 C2179 0.930 . S
H2168 C2181 0.930 . S
H2169 C2182 0.930 . S
H2170 C2186 0.959 . S
H2171 C2186 0.959 . S
H2172 C2186 0.961 . S
H2173 C2187 0.960 . S
H2174 C2187 0.961 . S
H2175 C2187 0.959 . S
H2176 C2190 0.929 . S
H2177 C2191 0.931 . S
H2178 C2193 0.930 . S
C2179 H2167 0.930 . S
C2179 C2180 1.399 . S
C2179 C2184 1.399 . S
C2180 C2179 1.399 . S
C2180 C2181 1.376 . S
C2181 H2168 0.930 . S
C2181 C2180 1.376 . S
C2181 C2182 1.388 . S
C2182 H2169 0.930 . S
C2182 C2181 1.388 . S
C2182 C2183 1.390 . S
C2183 C2182 1.390 . S
C2183 C2184 1.394 . S
C2183 C2189 1.465 . S
C2184 C2179 1.399 . S
C2184 C2183 1.394 . S
C2184 C2185 1.516 . S
C2185 C2184 1.516 . S
C2185 C2186 1.502 . S
C2185 C2187 1.561 . S
C2185 C2188 1.526 . S
C2186 H2170 0.959 . S
C2186 H2171 0.959 . S
C2186 H2172 0.961 . S
C2186 C2185 1.502 . S
C2187 H2173 0.960 . S
C2187 H2174 0.961 . S
C2187 H2175 0.959 . S
C2187 C2185 1.561 . S
C2188 C2185 1.526 . S
C2188 C2189 1.396 . S
C2188 C2193 1.390 . S
C2189 C2183 1.465 . S
C2189 C2188 1.396 . S
C2189 C2190 1.399 . S
C2190 H2176 0.929 . S
C2190 C2189 1.399 . S
C2190 C2191 1.385 . S
C2191 H2177 0.931 . S
C2191 C2190 1.385 . S
C2191 C2192 1.389 . S
C2192 C2191 1.389 . S
C2192 C2193 1.387 . S
C2193 H2178 0.930 . S
C2193 C2188 1.390 . S
C2193 C2192 1.387 . S
H2194 C2206 0.930 . S
H2195 C2208 0.930 . S
H2196 C2209 0.930 . S
H2197 C2213 0.959 . S
H2198 C2213 0.959 . S
H2199 C2213 0.961 . S
H2200 C2214 0.960 . S
H2201 C2214 0.961 . S
H2202 C2214 0.959 . S
H2203 C2217 0.929 . S
H2204 C2218 0.931 . S
H2205 C2220 0.930 . S
C2206 H2194 0.930 . S
C2206 C2207 1.399 . S
C2206 C2211 1.399 . S
C2207 C2206 1.399 . S
C2207 C2208 1.376 . S
C2208 H2195 0.930 . S
C2208 C2207 1.376 . S
C2208 C2209 1.388 . S
C2209 H2196 0.930 . S
C2209 C2208 1.388 . S
C2209 C2210 1.390 . S
C2210 C2209 1.390 . S
C2210 C2211 1.394 . S
C2210 C2216 1.465 . S
C2211 C2206 1.399 . S
C2211 C2210 1.394 . S
C2211 C2212 1.516 . S
C2212 C2211 1.516 . S
C2212 C2213 1.502 . S
C2212 C2214 1.561 . S
C2212 C2215 1.526 . S
C2213 H2197 0.959 . S
C2213 H2198 0.959 . S
C2213 H2199 0.961 . S
C2213 C2212 1.502 . S
C2214 H2200 0.960 . S
C2214 H2201 0.961 . S
C2214 H2202 0.959 . S
C2214 C2212 1.561 . S
C2215 C2212 1.526 . S
C2215 C2216 1.396 . S
C2215 C2220 1.390 . S
C2216 C2210 1.465 . S
C2216 C2215 1.396 . S
C2216 C2217 1.399 . S
C2217 H2203 0.929 . S
C2217 C2216 1.399 . S
C2217 C2218 1.385 . S
C2218 H2204 0.931 . S
C2218 C2217 1.385 . S
C2218 C2219 1.389 . S
C2219 C2218 1.389 . S
C2219 C2220 1.387 . S
C2220 H2205 0.930 . S
C2220 C2215 1.390 . S
C2220 C2219 1.387 . S
H2221 C2233 0.930 . S
H2222 C2235 0.930 . S
H2223 C2236 0.930 . S
H2224 C2240 0.959 . S
H2225 C2240 0.959 . S
H2226 C2240 0.961 . S
H2227 C2241 0.960 . S
H2228 C2241 0.961 . S
H2229 C2241 0.959 . S
H2230 C2244 0.929 . S
H2231 C2245 0.931 . S
H2232 C2247 0.930 . S
C2233 H2221 0.930 . S
C2233 C2234 1.399 . S
C2233 C2238 1.399 . S
C2234 C2233 1.399 . S
C2234 C2235 1.376 . S
C2235 H2222 0.930 . S
C2235 C2234 1.376 . S
C2235 C2236 1.388 . S
C2236 H2223 0.930 . S
C2236 C2235 1.388 . S
C2236 C2237 1.390 . S
C2237 C2236 1.390 . S
C2237 C2238 1.394 . S
C2237 C2243 1.465 . S
C2238 C2233 1.399 . S
C2238 C2237 1.394 . S
C2238 C2239 1.516 . S
C2239 C2238 1.516 . S
C2239 C2240 1.502 . S
C2239 C2241 1.561 . S
C2239 C2242 1.526 . S
C2240 H2224 0.959 . S
C2240 H2225 0.959 . S
C2240 H2226 0.961 . S
C2240 C2239 1.502 . S
C2241 H2227 0.960 . S
C2241 H2228 0.961 . S
C2241 H2229 0.959 . S
C2241 C2239 1.561 . S
C2242 C2239 1.526 . S
C2242 C2243 1.396 . S
C2242 C2247 1.390 . S
C2243 C2237 1.465 . S
C2243 C2242 1.396 . S
C2243 C2244 1.399 . S
C2244 H2230 0.929 . S
C2244 C2243 1.399 . S
C2244 C2245 1.385 . S
C2245 H2231 0.931 . S
C2245 C2244 1.385 . S
C2245 C2246 1.389 . S
C2246 C2245 1.389 . S
C2246 C2247 1.387 . S
C2247 H2232 0.930 . S
C2247 C2242 1.390 . S
C2247 C2246 1.387 . S
H2248 C2260 0.930 . S
H2249 C2262 0.930 . S
H2250 C2263 0.930 . S
H2251 C2267 0.959 . S
H2252 C2267 0.959 . S
H2253 C2267 0.961 . S
H2254 C2268 0.960 . S
H2255 C2268 0.961 . S
H2256 C2268 0.959 . S
H2257 C2271 0.929 . S
H2258 C2272 0.931 . S
H2259 C2274 0.930 . S
C2260 H2248 0.930 . S
C2260 C2261 1.399 . S
C2260 C2265 1.399 . S
C2261 C2260 1.399 . S
C2261 C2262 1.376 . S
C2262 H2249 0.930 . S
C2262 C2261 1.376 . S
C2262 C2263 1.388 . S
C2263 H2250 0.930 . S
C2263 C2262 1.388 . S
C2263 C2264 1.390 . S
C2264 C2263 1.390 . S
C2264 C2265 1.394 . S
C2264 C2270 1.465 . S
C2265 C2260 1.399 . S
C2265 C2264 1.394 . S
C2265 C2266 1.516 . S
C2266 C2265 1.516 . S
C2266 C2267 1.502 . S
C2266 C2268 1.561 . S
C2266 C2269 1.526 . S
C2267 H2251 0.959 . S
C2267 H2252 0.959 . S
C2267 H2253 0.961 . S
C2267 C2266 1.502 . S
C2268 H2254 0.960 . S
C2268 H2255 0.961 . S
C2268 H2256 0.959 . S
C2268 C2266 1.561 . S
C2269 C2266 1.526 . S
C2269 C2270 1.396 . S
C2269 C2274 1.390 . S
C2270 C2264 1.465 . S
C2270 C2269 1.396 . S
C2270 C2271 1.399 . S
C2271 H2257 0.929 . S
C2271 C2270 1.399 . S
C2271 C2272 1.385 . S
C2272 H2258 0.931 . S
C2272 C2271 1.385 . S
C2272 C2273 1.389 . S
C2273 C2272 1.389 . S
C2273 C2274 1.387 . S
C2274 H2259 0.930 . S
C2274 C2269 1.390 . S
C2274 C2273 1.387 . S
H2275 C2287 0.930 . S
H2276 C2289 0.930 . S
H2277 C2290 0.930 . S
H2278 C2294 0.959 . S
H2279 C2294 0.959 . S
H2280 C2294 0.961 . S
H2281 C2295 0.960 . S
H2282 C2295 0.961 . S
H2283 C2295 0.959 . S
H2284 C2298 0.929 . S
H2285 C2299 0.931 . S
H2286 C2301 0.930 . S
C2287 H2275 0.930 . S
C2287 C2288 1.399 . S
C2287 C2292 1.399 . S
C2288 C2287 1.399 . S
C2288 C2289 1.376 . S
C2289 H2276 0.930 . S
C2289 C2288 1.376 . S
C2289 C2290 1.388 . S
C2290 H2277 0.930 . S
C2290 C2289 1.388 . S
C2290 C2291 1.390 . S
C2291 C2290 1.390 . S
C2291 C2292 1.394 . S
C2291 C2297 1.465 . S
C2292 C2287 1.399 . S
C2292 C2291 1.394 . S
C2292 C2293 1.516 . S
C2293 C2292 1.516 . S
C2293 C2294 1.502 . S
C2293 C2295 1.561 . S
C2293 C2296 1.526 . S
C2294 H2278 0.959 . S
C2294 H2279 0.959 . S
C2294 H2280 0.961 . S
C2294 C2293 1.502 . S
C2295 H2281 0.960 . S
C2295 H2282 0.961 . S
C2295 H2283 0.959 . S
C2295 C2293 1.561 . S
C2296 C2293 1.526 . S
C2296 C2297 1.396 . S
C2296 C2301 1.390 . S
C2297 C2291 1.465 . S
C2297 C2296 1.396 . S
C2297 C2298 1.399 . S
C2298 H2284 0.929 . S
C2298 C2297 1.399 . S
C2298 C2299 1.385 . S
C2299 H2285 0.931 . S
C2299 C2298 1.385 . S
C2299 C2300 1.389 . S
C2300 C2299 1.389 . S
C2300 C2301 1.387 . S
C2301 H2286 0.930 . S
C2301 C2296 1.390 . S
C2301 C2300 1.387 . S
H2302 C2314 0.939 . S
H2303 C2316 0.930 . S
H2304 C2317 0.930 . S
H2305 C2321 0.959 . S
H2306 C2321 0.959 . S
H2307 C2321 0.961 . S
H2308 C2322 0.960 . S
H2309 C2322 0.961 . S
H2310 C2322 0.959 1_554 S
H2311 C2325 0.929 . S
H2312 C2326 0.931 . S
H2313 C2328 0.940 . S
C2314 H2302 0.939 . S
C2314 C2315 1.383 1_655 S
C2314 C2319 1.405 1_656 S
C2315 C2314 1.383 1_455 S
C2315 C2316 1.376 1_556 S
C2316 H2303 0.930 . S
C2316 C2315 1.376 1_554 S
C2316 C2317 1.388 . S
C2317 H2304 0.930 . S
C2317 C2316 1.388 . S
C2317 C2318 1.390 . S
C2318 C2317 1.390 . S
C2318 C2319 1.399 . S
C2318 C2324 1.465 . S
C2319 C2314 1.405 1_454 S
C2319 C2318 1.399 . S
C2319 C2320 1.514 1_454 S
C2320 C2319 1.514 1_656 S
C2320 C2321 1.502 1_655 S
C2320 C2322 1.561 . S
C2320 C2323 1.526 1_656 S
C2321 H2305 0.959 . S
C2321 H2306 0.959 . S
C2321 H2307 0.961 . S
C2321 C2320 1.502 1_455 S
C2322 H2308 0.960 . S
C2322 H2309 0.961 . S
C2322 H2310 0.959 1_556 S
C2322 C2320 1.561 . S
C2323 C2320 1.526 1_454 S
C2323 C2324 1.396 . S
C2323 C2328 1.390 . S
C2324 C2318 1.465 . S
C2324 C2323 1.396 . S
C2324 C2325 1.399 . S
C2325 H2311 0.929 . S
C2325 C2324 1.399 . S
C2325 C2326 1.385 . S
C2326 H2312 0.931 . S
C2326 C2325 1.385 . S
C2326 C2327 1.389 . S
C2327 C2326 1.389 . S
C2327 C2328 1.387 . S
C2328 H2313 0.940 . S
C2328 C2323 1.390 . S
C2328 C2327 1.387 . S
H2329 C2341 0.930 . S
H2330 C2343 0.930 . S
H2331 C2344 0.930 . S
H2332 C2348 0.959 . S
H2333 C2348 0.959 . S
H2334 C2348 0.961 . S
H2335 C2349 0.960 . S
H2336 C2349 0.961 . S
H2337 C2349 0.959 . S
H2338 C2352 0.929 . S
H2339 C2353 0.931 . S
H2340 C2355 0.930 . S
C2341 H2329 0.930 . S
C2341 C2342 1.399 1_655 S
C2341 C2346 1.399 . S
C2342 C2341 1.399 1_455 S
C2342 C2343 1.376 . S
C2343 H2330 0.930 . S
C2343 C2342 1.376 . S
C2343 C2344 1.388 1_455 S
C2344 H2331 0.930 . S
C2344 C2343 1.388 1_655 S
C2344 C2345 1.390 . S
C2345 C2344 1.390 . S
C2345 C2346 1.394 . S
C2345 C2351 1.465 . S
C2346 C2341 1.399 . S
C2346 C2345 1.394 . S
C2346 C2347 1.516 . S
C2347 C2346 1.516 . S
C2347 C2348 1.502 . S
C2347 C2349 1.561 . S
C2347 C2350 1.526 . S
C2348 H2332 0.959 . S
C2348 H2333 0.959 . S
C2348 H2334 0.961 . S
C2348 C2347 1.502 . S
C2349 H2335 0.960 . S
C2349 H2336 0.961 . S
C2349 H2337 0.959 . S
C2349 C2347 1.561 . S
C2350 C2347 1.526 . S
C2350 C2351 1.396 . S
C2350 C2355 1.390 . S
C2351 C2345 1.465 . S
C2351 C2350 1.396 . S
C2351 C2352 1.399 . S
C2352 H2338 0.929 . S
C2352 C2351 1.399 . S
C2352 C2353 1.385 . S
C2353 H2339 0.931 . S
C2353 C2352 1.385 . S
C2353 C2354 1.389 . S
C2354 C2353 1.389 . S
C2354 C2355 1.387 . S
C2355 H2340 0.930 . S
C2355 C2350 1.390 . S
C2355 C2354 1.387 . S
H2356 C2368 0.930 . S
H2357 C2370 0.930 . S
H2358 C2371 0.930 . S
H2359 C2375 0.959 . S
H2360 C2375 0.959 . S
H2361 C2375 0.961 . S
H2362 C2376 0.960 . S
H2363 C2376 0.961 . S
H2364 C2376 0.959 . S
H2365 C2379 0.929 . S
H2366 C2380 0.931 . S
H2367 C2382 0.930 . S
C2368 H2356 0.930 . S
C2368 C2369 1.399 . S
C2368 C2373 1.399 . S
C2369 C2368 1.399 . S
C2369 C2370 1.376 . S
C2370 H2357 0.930 . S
C2370 C2369 1.376 . S
C2370 C2371 1.388 . S
C2371 H2358 0.930 . S
C2371 C2370 1.388 . S
C2371 C2372 1.390 . S
C2372 C2371 1.390 . S
C2372 C2373 1.394 . S
C2372 C2378 1.465 . S
C2373 C2368 1.399 . S
C2373 C2372 1.394 . S
C2373 C2374 1.516 . S
C2374 C2373 1.516 . S
C2374 C2375 1.502 . S
C2374 C2376 1.561 . S
C2374 C2377 1.526 . S
C2375 H2359 0.959 . S
C2375 H2360 0.959 . S
C2375 H2361 0.961 . S
C2375 C2374 1.502 . S
C2376 H2362 0.960 . S
C2376 H2363 0.961 . S
C2376 H2364 0.959 . S
C2376 C2374 1.561 . S
C2377 C2374 1.526 . S
C2377 C2378 1.396 . S
C2377 C2382 1.390 . S
C2378 C2372 1.465 . S
C2378 C2377 1.396 . S
C2378 C2379 1.399 . S
C2379 H2365 0.929 . S
C2379 C2378 1.399 . S
C2379 C2380 1.385 . S
C2380 H2366 0.931 . S
C2380 C2379 1.385 . S
C2380 C2381 1.389 . S
C2381 C2380 1.389 . S
C2381 C2382 1.387 . S
C2382 H2367 0.930 . S
C2382 C2377 1.390 . S
C2382 C2381 1.387 . S
H2383 C2395 0.930 . S
H2384 C2397 0.930 . S
H2385 C2398 0.930 . S
H2386 C2402 0.959 . S
H2387 C2402 0.959 . S
H2388 C2402 0.961 . S
H2389 C2403 0.960 . S
H2390 C2403 0.961 . S
H2391 C2403 0.959 . S
H2392 C2406 0.929 . S
H2393 C2407 0.931 . S
H2394 C2409 0.930 . S
C2395 H2383 0.930 . S
C2395 C2396 1.399 . S
C2395 C2400 1.399 . S
C2396 C2395 1.399 . S
C2396 C2397 1.376 . S
C2397 H2384 0.930 . S
C2397 C2396 1.376 . S
C2397 C2398 1.388 . S
C2398 H2385 0.930 . S
C2398 C2397 1.388 . S
C2398 C2399 1.390 . S
C2399 C2398 1.390 . S
C2399 C2400 1.394 . S
C2399 C2405 1.465 . S
C2400 C2395 1.399 . S
C2400 C2399 1.394 . S
C2400 C2401 1.516 . S
C2401 C2400 1.516 . S
C2401 C2402 1.502 . S
C2401 C2403 1.561 . S
C2401 C2404 1.526 . S
C2402 H2386 0.959 . S
C2402 H2387 0.959 . S
C2402 H2388 0.961 . S
C2402 C2401 1.502 . S
C2403 H2389 0.960 . S
C2403 H2390 0.961 . S
C2403 H2391 0.959 . S
C2403 C2401 1.561 . S
C2404 C2401 1.526 . S
C2404 C2405 1.396 . S
C2404 C2409 1.390 . S
C2405 C2399 1.465 . S
C2405 C2404 1.396 . S
C2405 C2406 1.399 . S
C2406 H2392 0.929 . S
C2406 C2405 1.399 . S
C2406 C2407 1.385 . S
C2407 H2393 0.931 . S
C2407 C2406 1.385 . S
C2407 C2408 1.389 . S
C2408 C2407 1.389 . S
C2408 C2409 1.387 . S
C2409 H2394 0.930 . S
C2409 C2404 1.390 . S
C2409 C2408 1.387 . S
H2410 C2422 0.930 1_655 S
H2411 C2424 0.930 . S
H2412 C2425 0.930 . S
H2413 C2429 0.959 . S
H2414 C2429 0.959 . S
H2415 C2429 0.961 . S
H2416 C2430 0.960 . S
H2417 C2430 0.951 1_655 S
H2418 C2430 0.959 . S
H2419 C2433 0.929 . S
H2420 C2434 0.931 . S
H2421 C2436 0.930 1_655 S
C2422 H2410 0.930 1_455 S
C2422 C2423 1.399 . S
C2422 C2427 1.399 . S
C2423 C2422 1.399 . S
C2423 C2424 1.376 . S
C2424 H2411 0.930 . S
C2424 C2423 1.376 . S
C2424 C2425 1.388 . S
C2425 H2412 0.930 . S
C2425 C2424 1.388 . S
C2425 C2426 1.390 . S
C2426 C2425 1.390 . S
C2426 C2427 1.394 . S
C2426 C2432 1.465 . S
C2427 C2422 1.399 . S
C2427 C2426 1.394 . S
C2427 C2428 1.516 1_455 S
C2428 C2427 1.516 1_655 S
C2428 C2429 1.502 . S
C2428 C2430 1.561 1_655 S
C2428 C2431 1.526 1_655 S
C2429 H2413 0.959 . S
C2429 H2414 0.959 . S
C2429 H2415 0.961 . S
C2429 C2428 1.502 . S
C2430 H2416 0.960 . S
C2430 H2417 0.951 1_455 S
C2430 H2418 0.959 . S
C2430 C2428 1.561 1_455 S
C2431 C2428 1.526 1_455 S
C2431 C2432 1.396 . S
C2431 C2436 1.390 . S
C2432 C2426 1.465 . S
C2432 C2431 1.396 . S
C2432 C2433 1.399 . S
C2433 H2419 0.929 . S
C2433 C2432 1.399 . S
C2433 C2434 1.385 . S
C2434 H2420 0.931 . S
C2434 C2433 1.385 . S
C2434 C2435 1.389 . S
C2435 C2434 1.389 . S
C2435 C2436 1.387 . S
C2436 H2421 0.930 1_455 S
C2436 C2431 1.390 . S
C2436 C2435 1.387 . S
H2437 C2449 0.930 . S
H2438 C2451 0.930 . S
H2439 C2452 0.930 . S
H2440 C2456 0.959 . S
H2441 C2456 0.959 . S
H2442 C2456 0.961 . S
H2443 C2457 0.960 . S
H2444 C2457 0.961 . S
H2445 C2457 0.959 . S
H2446 C2460 0.929 . S
H2447 C2461 0.931 . S
H2448 C2463 0.930 . S
C2449 H2437 0.930 . S
C2449 C2450 1.399 . S
C2449 C2454 1.399 . S
C2450 C2449 1.399 . S
C2450 C2451 1.376 . S
C2451 H2438 0.930 . S
C2451 C2450 1.376 . S
C2451 C2452 1.388 . S
C2452 H2439 0.930 . S
C2452 C2451 1.388 . S
C2452 C2453 1.390 . S
C2453 C2452 1.390 . S
C2453 C2454 1.394 . S
C2453 C2459 1.465 . S
C2454 C2449 1.399 . S
C2454 C2453 1.394 . S
C2454 C2455 1.516 . S
C2455 C2454 1.516 . S
C2455 C2456 1.502 . S
C2455 C2457 1.561 . S
C2455 C2458 1.526 . S
C2456 H2440 0.959 . S
C2456 H2441 0.959 . S
C2456 H2442 0.961 . S
C2456 C2455 1.502 . S
C2457 H2443 0.960 . S
C2457 H2444 0.961 . S
C2457 H2445 0.959 . S
C2457 C2455 1.561 . S
C2458 C2455 1.526 . S
C2458 C2459 1.396 . S
C2458 C2463 1.390 . S
C2459 C2453 1.465 . S
C2459 C2458 1.396 . S
C2459 C2460 1.399 . S
C2460 H2446 0.929 . S
C2460 C2459 1.399 . S
C2460 C2461 1.385 . S
C2461 H2447 0.931 . S
C2461 C2460 1.385 . S
C2461 C2462 1.389 . S
C2462 C2461 1.389 . S
C2462 C2463 1.387 . S
C2463 H2448 0.930 . S
C2463 C2458 1.390 . S
C2463 C2462 1.387 . S
H2464 C2476 0.930 . S
H2465 C2478 0.930 . S
H2466 C2479 0.930 . S
H2467 C2483 0.959 . S
H2468 C2483 0.959 . S
H2469 C2483 0.961 . S
H2470 C2484 0.960 . S
H2471 C2484 0.961 . S
H2472 C2484 0.959 . S
H2473 C2487 0.929 . S
H2474 C2488 0.931 . S
H2475 C2490 0.930 . S
C2476 H2464 0.930 . S
C2476 C2477 1.399 . S
C2476 C2481 1.399 . S
C2477 C2476 1.399 . S
C2477 C2478 1.376 . S
C2478 H2465 0.930 . S
C2478 C2477 1.376 . S
C2478 C2479 1.388 . S
C2479 H2466 0.930 . S
C2479 C2478 1.388 . S
C2479 C2480 1.390 . S
C2480 C2479 1.390 . S
C2480 C2481 1.394 . S
C2480 C2486 1.465 . S
C2481 C2476 1.399 . S
C2481 C2480 1.394 . S
C2481 C2482 1.516 . S
C2482 C2481 1.516 . S
C2482 C2483 1.502 . S
C2482 C2484 1.561 . S
C2482 C2485 1.526 . S
C2483 H2467 0.959 . S
C2483 H2468 0.959 . S
C2483 H2469 0.961 . S
C2483 C2482 1.502 . S
C2484 H2470 0.960 . S
C2484 H2471 0.961 . S
C2484 H2472 0.959 . S
C2484 C2482 1.561 . S
C2485 C2482 1.526 . S
C2485 C2486 1.396 . S
C2485 C2490 1.390 . S
C2486 C2480 1.465 . S
C2486 C2485 1.396 . S
C2486 C2487 1.399 . S
C2487 H2473 0.929 . S
C2487 C2486 1.399 . S
C2487 C2488 1.385 . S
C2488 H2474 0.931 . S
C2488 C2487 1.385 . S
C2488 C2489 1.389 . S
C2489 C2488 1.389 . S
C2489 C2490 1.387 . S
C2490 H2475 0.930 . S
C2490 C2485 1.390 . S
C2490 C2489 1.387 . S
H2491 C2503 0.930 . S
H2492 C2505 0.930 . S
H2493 C2506 0.930 . S
H2494 C2510 0.959 . S
H2495 C2510 0.959 . S
H2496 C2510 0.961 . S
H2497 C2511 0.960 . S
H2498 C2511 0.961 . S
H2499 C2511 0.959 . S
H2500 C2514 0.929 . S
H2501 C2515 0.931 . S
H2502 C2517 0.930 . S
C2503 H2491 0.930 . S
C2503 C2504 1.399 . S
C2503 C2508 1.399 . S
C2504 C2503 1.399 . S
C2504 C2505 1.376 1_554 S
C2505 H2492 0.930 . S
C2505 C2504 1.376 1_556 S
C2505 C2506 1.388 . S
C2506 H2493 0.930 . S
C2506 C2505 1.388 . S
C2506 C2507 1.390 . S
C2507 C2506 1.390 . S
C2507 C2508 1.394 1_556 S
C2507 C2513 1.465 . S
C2508 C2503 1.399 . S
C2508 C2507 1.394 1_554 S
C2508 C2509 1.516 . S
C2509 C2508 1.516 . S
C2509 C2510 1.502 . S
C2509 C2511 1.561 . S
C2509 C2512 1.526 1_554 S
C2510 H2494 0.959 . S
C2510 H2495 0.959 . S
C2510 H2496 0.961 . S
C2510 C2509 1.502 . S
C2511 H2497 0.960 . S
C2511 H2498 0.961 . S
C2511 H2499 0.959 . S
C2511 C2509 1.561 . S
C2512 C2509 1.526 1_556 S
C2512 C2513 1.396 . S
C2512 C2517 1.390 . S
C2513 C2507 1.465 . S
C2513 C2512 1.396 . S
C2513 C2514 1.399 . S
C2514 H2500 0.929 . S
C2514 C2513 1.399 . S
C2514 C2515 1.385 . S
C2515 H2501 0.931 . S
C2515 C2514 1.385 . S
C2515 C2516 1.389 . S
C2516 C2515 1.389 . S
C2516 C2517 1.387 . S
C2517 H2502 0.930 . S
C2517 C2512 1.390 . S
C2517 C2516 1.387 . S
H2518 C2530 0.930 . S
H2519 C2532 0.930 . S
H2520 C2533 0.930 . S
H2521 C2537 0.959 . S
H2522 C2537 0.959 . S
H2523 C2537 0.961 . S
H2524 C2538 0.960 . S
H2525 C2538 0.961 . S
H2526 C2538 0.959 . S
H2527 C2541 0.929 . S
H2528 C2542 0.931 . S
H2529 C2544 0.930 . S
C2530 H2518 0.930 . S
C2530 C2531 1.399 . S
C2530 C2535 1.399 . S
C2531 C2530 1.399 . S
C2531 C2532 1.376 . S
C2532 H2519 0.930 . S
C2532 C2531 1.376 . S
C2532 C2533 1.388 . S
C2533 H2520 0.930 . S
C2533 C2532 1.388 . S
C2533 C2534 1.390 . S
C2534 C2533 1.390 . S
C2534 C2535 1.394 . S
C2534 C2540 1.465 . S
C2535 C2530 1.399 . S
C2535 C2534 1.394 . S
C2535 C2536 1.516 . S
C2536 C2535 1.516 . S
C2536 C2537 1.502 . S
C2536 C2538 1.561 . S
C2536 C2539 1.526 . S
C2537 H2521 0.959 . S
C2537 H2522 0.959 . S
C2537 H2523 0.961 . S
C2537 C2536 1.502 . S
C2538 H2524 0.960 . S
C2538 H2525 0.961 . S
C2538 H2526 0.959 . S
C2538 C2536 1.561 . S
C2539 C2536 1.526 . S
C2539 C2540 1.396 . S
C2539 C2544 1.390 . S
C2540 C2534 1.465 . S
C2540 C2539 1.396 . S
C2540 C2541 1.399 . S
C2541 H2527 0.929 . S
C2541 C2540 1.399 . S
C2541 C2542 1.385 . S
C2542 H2528 0.931 . S
C2542 C2541 1.385 . S
C2542 C2543 1.389 . S
C2543 C2542 1.389 . S
C2543 C2544 1.387 . S
C2544 H2529 0.930 . S
C2544 C2539 1.390 . S
C2544 C2543 1.387 . S
H2545 C2557 0.930 . S
H2546 C2559 0.930 . S
H2547 C2560 0.930 . S
H2548 C2564 0.959 . S
H2549 C2564 0.959 . S
H2550 C2564 0.961 . S
H2551 C2565 0.960 . S
H2552 C2565 0.961 . S
H2553 C2565 0.959 . S
H2554 C2568 0.929 . S
H2555 C2569 0.931 . S
H2556 C2571 0.930 . S
C2557 H2545 0.930 . S
C2557 C2558 1.399 . S
C2557 C2562 1.399 . S
C2558 C2557 1.399 . S
C2558 C2559 1.376 . S
C2559 H2546 0.930 . S
C2559 C2558 1.376 . S
C2559 C2560 1.388 . S
C2560 H2547 0.930 . S
C2560 C2559 1.388 . S
C2560 C2561 1.390 . S
C2561 C2560 1.390 . S
C2561 C2562 1.394 . S
C2561 C2567 1.465 . S
C2562 C2557 1.399 . S
C2562 C2561 1.394 . S
C2562 C2563 1.516 . S
C2563 C2562 1.516 . S
C2563 C2564 1.502 . S
C2563 C2565 1.561 . S
C2563 C2566 1.526 . S
C2564 H2548 0.959 . S
C2564 H2549 0.959 . S
C2564 H2550 0.961 . S
C2564 C2563 1.502 . S
C2565 H2551 0.960 . S
C2565 H2552 0.961 . S
C2565 H2553 0.959 . S
C2565 C2563 1.561 . S
C2566 C2563 1.526 . S
C2566 C2567 1.396 . S
C2566 C2571 1.390 . S
C2567 C2561 1.465 . S
C2567 C2566 1.396 . S
C2567 C2568 1.399 . S
C2568 H2554 0.929 . S
C2568 C2567 1.399 . S
C2568 C2569 1.385 . S
C2569 H2555 0.931 . S
C2569 C2568 1.385 . S
C2569 C2570 1.389 . S
C2570 C2569 1.389 . S
C2570 C2571 1.387 . S
C2571 H2556 0.930 . S
C2571 C2566 1.390 . S
C2571 C2570 1.387 . S
H2572 C2584 0.930 . S
H2573 C2586 0.930 . S
H2574 C2587 0.930 . S
H2575 C2591 0.959 . S
H2576 C2591 0.959 . S
H2577 C2591 0.961 . S
H2578 C2592 0.960 . S
H2579 C2592 0.961 . S
H2580 C2592 0.959 . S
H2581 C2595 0.929 . S
H2582 C2596 0.931 . S
H2583 C2598 0.930 . S
C2584 H2572 0.930 . S
C2584 C2585 1.399 . S
C2584 C2589 1.399 . S
C2585 C2584 1.399 . S
C2585 C2586 1.376 . S
C2586 H2573 0.930 . S
C2586 C2585 1.376 . S
C2586 C2587 1.388 . S
C2587 H2574 0.930 . S
C2587 C2586 1.388 . S
C2587 C2588 1.390 . S
C2588 C2587 1.390 . S
C2588 C2589 1.394 . S
C2588 C2594 1.465 . S
C2589 C2584 1.399 . S
C2589 C2588 1.394 . S
C2589 C2590 1.516 . S
C2590 C2589 1.516 . S
C2590 C2591 1.502 . S
C2590 C2592 1.561 . S
C2590 C2593 1.526 . S
C2591 H2575 0.959 . S
C2591 H2576 0.959 . S
C2591 H2577 0.961 . S
C2591 C2590 1.502 . S
C2592 H2578 0.960 . S
C2592 H2579 0.961 . S
C2592 H2580 0.959 . S
C2592 C2590 1.561 . S
C2593 C2590 1.526 . S
C2593 C2594 1.396 . S
C2593 C2598 1.390 . S
C2594 C2588 1.465 . S
C2594 C2593 1.396 . S
C2594 C2595 1.399 . S
C2595 H2581 0.929 . S
C2595 C2594 1.399 . S
C2595 C2596 1.385 . S
C2596 H2582 0.931 . S
C2596 C2595 1.385 . S
C2596 C2597 1.389 . S
C2597 C2596 1.389 . S
C2597 C2598 1.387 . S
C2598 H2583 0.930 . S
C2598 C2593 1.390 . S
C2598 C2597 1.387 . S
H2599 C2611 0.930 . S
H2600 C2613 0.930 . S
H2601 C2614 0.930 . S
H2602 C2618 0.959 . S
H2603 C2618 0.959 . S
H2604 C2618 0.961 . S
H2605 C2619 0.960 . S
H2606 C2619 0.961 . S
H2607 C2619 0.959 . S
H2608 C2622 0.929 . S
H2609 C2623 0.931 . S
H2610 C2625 0.930 . S
C2611 H2599 0.930 . S
C2611 C2612 1.399 . S
C2611 C2616 1.399 . S
C2612 C2611 1.399 . S
C2612 C2613 1.376 . S
C2613 H2600 0.930 . S
C2613 C2612 1.376 . S
C2613 C2614 1.388 . S
C2614 H2601 0.930 . S
C2614 C2613 1.388 . S
C2614 C2615 1.390 . S
C2615 C2614 1.390 . S
C2615 C2616 1.394 . S
C2615 C2621 1.465 . S
C2616 C2611 1.399 . S
C2616 C2615 1.394 . S
C2616 C2617 1.516 . S
C2617 C2616 1.516 . S
C2617 C2618 1.502 . S
C2617 C2619 1.561 . S
C2617 C2620 1.526 . S
C2618 H2602 0.959 . S
C2618 H2603 0.959 . S
C2618 H2604 0.961 . S
C2618 C2617 1.502 . S
C2619 H2605 0.960 . S
C2619 H2606 0.961 . S
C2619 H2607 0.959 . S
C2619 C2617 1.561 . S
C2620 C2617 1.526 . S
C2620 C2621 1.396 . S
C2620 C2625 1.390 . S
C2621 C2615 1.465 . S
C2621 C2620 1.396 . S
C2621 C2622 1.399 . S
C2622 H2608 0.929 . S
C2622 C2621 1.399 . S
C2622 C2623 1.385 . S
C2623 H2609 0.931 . S
C2623 C2622 1.385 . S
C2623 C2624 1.389 . S
C2624 C2623 1.389 . S
C2624 C2625 1.387 . S
C2625 H2610 0.930 . S
C2625 C2620 1.390 . S
C2625 C2624 1.387 . S
H2626 C2638 0.930 . S
H2627 C2640 0.930 . S
H2628 C2641 0.930 . S
H2629 C2645 0.959 . S
H2630 C2645 0.959 . S
H2631 C2645 0.961 . S
H2632 C2646 0.960 . S
H2633 C2646 0.961 . S
H2634 C2646 0.959 . S
H2635 C2649 0.929 . S
H2636 C2650 0.931 . S
H2637 C2652 0.930 . S
C2638 H2626 0.930 . S
C2638 C2639 1.399 . S
C2638 C2643 1.399 . S
C2639 C2638 1.399 . S
C2639 C2640 1.376 . S
C2640 H2627 0.930 . S
C2640 C2639 1.376 . S
C2640 C2641 1.388 . S
C2641 H2628 0.930 . S
C2641 C2640 1.388 . S
C2641 C2642 1.390 . S
C2642 C2641 1.390 . S
C2642 C2643 1.394 . S
C2642 C2648 1.465 . S
C2643 C2638 1.399 . S
C2643 C2642 1.394 . S
C2643 C2644 1.516 . S
C2644 C2643 1.516 . S
C2644 C2645 1.502 . S
C2644 C2646 1.561 . S
C2644 C2647 1.526 . S
C2645 H2629 0.959 . S
C2645 H2630 0.959 . S
C2645 H2631 0.961 . S
C2645 C2644 1.502 . S
C2646 H2632 0.960 . S
C2646 H2633 0.961 . S
C2646 H2634 0.959 . S
C2646 C2644 1.561 . S
C2647 C2644 1.526 . S
C2647 C2648 1.396 . S
C2647 C2652 1.390 . S
C2648 C2642 1.465 . S
C2648 C2647 1.396 . S
C2648 C2649 1.399 . S
C2649 H2635 0.929 . S
C2649 C2648 1.399 . S
C2649 C2650 1.385 . S
C2650 H2636 0.931 . S
C2650 C2649 1.385 . S
C2650 C2651 1.389 . S
C2651 C2650 1.389 . S
C2651 C2652 1.387 . S
C2652 H2637 0.930 . S
C2652 C2647 1.390 . S
C2652 C2651 1.387 . S
H2653 C2665 0.930 . S
H2654 C2667 0.930 . S
H2655 C2668 0.930 . S
H2656 C2672 0.959 . S
H2657 C2672 0.959 . S
H2658 C2672 0.961 . S
H2659 C2673 0.960 . S
H2660 C2673 0.961 . S
H2661 C2673 0.959 . S
H2662 C2676 0.929 . S
H2663 C2677 0.931 . S
H2664 C2679 0.930 . S
C2665 H2653 0.930 . S
C2665 C2666 1.399 . S
C2665 C2670 1.399 . S
C2666 C2665 1.399 . S
C2666 C2667 1.376 . S
C2667 H2654 0.930 . S
C2667 C2666 1.376 . S
C2667 C2668 1.388 . S
C2668 H2655 0.930 . S
C2668 C2667 1.388 . S
C2668 C2669 1.390 . S
C2669 C2668 1.390 . S
C2669 C2670 1.394 . S
C2669 C2675 1.465 . S
C2670 C2665 1.399 . S
C2670 C2669 1.394 . S
C2670 C2671 1.516 . S
C2671 C2670 1.516 . S
C2671 C2672 1.502 . S
C2671 C2673 1.561 . S
C2671 C2674 1.526 . S
C2672 H2656 0.959 . S
C2672 H2657 0.959 . S
C2672 H2658 0.961 . S
C2672 C2671 1.502 . S
C2673 H2659 0.960 . S
C2673 H2660 0.961 . S
C2673 H2661 0.959 . S
C2673 C2671 1.561 . S
C2674 C2671 1.526 . S
C2674 C2675 1.396 . S
C2674 C2679 1.390 . S
C2675 C2669 1.465 . S
C2675 C2674 1.396 . S
C2675 C2676 1.399 . S
C2676 H2662 0.929 . S
C2676 C2675 1.399 . S
C2676 C2677 1.385 . S
C2677 H2663 0.931 . S
C2677 C2676 1.385 . S
C2677 C2678 1.389 . S
C2678 C2677 1.389 . S
C2678 C2679 1.387 . S
C2679 H2664 0.930 . S
C2679 C2674 1.390 . S
C2679 C2678 1.387 . S
H2680 C2692 0.930 . S
H2681 C2694 0.930 . S
H2682 C2695 0.930 . S
H2683 C2699 0.959 . S
H2684 C2699 0.959 . S
H2685 C2699 0.961 . S
H2686 C2700 0.960 . S
H2687 C2700 0.961 . S
H2688 C2700 0.959 . S
H2689 C2703 0.929 . S
H2690 C2704 0.931 . S
H2691 C2706 0.930 . S
C2692 H2680 0.930 . S
C2692 C2693 1.399 . S
C2692 C2697 1.399 . S
C2693 C2692 1.399 . S
C2693 C2694 1.376 . S
C2694 H2681 0.930 . S
C2694 C2693 1.376 . S
C2694 C2695 1.388 . S
C2695 H2682 0.930 . S
C2695 C2694 1.388 . S
C2695 C2696 1.390 . S
C2696 C2695 1.390 . S
C2696 C2697 1.394 . S
C2696 C2702 1.465 . S
C2697 C2692 1.399 . S
C2697 C2696 1.394 . S
C2697 C2698 1.516 . S
C2698 C2697 1.516 . S
C2698 C2699 1.502 . S
C2698 C2700 1.561 . S
C2698 C2701 1.526 . S
C2699 H2683 0.959 . S
C2699 H2684 0.959 . S
C2699 H2685 0.961 . S
C2699 C2698 1.502 . S
C2700 H2686 0.960 . S
C2700 H2687 0.961 . S
C2700 H2688 0.959 . S
C2700 C2698 1.561 . S
C2701 C2698 1.526 . S
C2701 C2702 1.396 . S
C2701 C2706 1.390 . S
C2702 C2696 1.465 . S
C2702 C2701 1.396 . S
C2702 C2703 1.399 . S
C2703 H2689 0.929 . S
C2703 C2702 1.399 . S
C2703 C2704 1.385 . S
C2704 H2690 0.931 . S
C2704 C2703 1.385 . S
C2704 C2705 1.389 . S
C2705 C2704 1.389 . S
C2705 C2706 1.387 . S
C2706 H2691 0.930 . S
C2706 C2701 1.390 . S
C2706 C2705 1.387 . S
H2707 C2719 0.930 . S
H2708 C2721 0.930 . S
H2709 C2722 0.930 . S
H2710 C2726 0.959 . S
H2711 C2726 0.959 . S
H2712 C2726 0.961 . S
H2713 C2727 0.960 . S
H2714 C2727 0.961 . S
H2715 C2727 0.959 . S
H2716 C2730 0.929 . S
H2717 C2731 0.931 . S
H2718 C2733 0.930 . S
C2719 H2707 0.930 . S
C2719 C2720 1.399 . S
C2719 C2724 1.399 . S
C2720 C2719 1.399 . S
C2720 C2721 1.376 . S
C2721 H2708 0.930 . S
C2721 C2720 1.376 . S
C2721 C2722 1.388 . S
C2722 H2709 0.930 . S
C2722 C2721 1.388 . S
C2722 C2723 1.390 . S
C2723 C2722 1.390 . S
C2723 C2724 1.394 . S
C2723 C2729 1.465 . S
C2724 C2719 1.399 . S
C2724 C2723 1.394 . S
C2724 C2725 1.516 . S
C2725 C2724 1.516 . S
C2725 C2726 1.502 . S
C2725 C2727 1.561 . S
C2725 C2728 1.526 . S
C2726 H2710 0.959 . S
C2726 H2711 0.959 . S
C2726 H2712 0.961 . S
C2726 C2725 1.502 . S
C2727 H2713 0.960 . S
C2727 H2714 0.961 . S
C2727 H2715 0.959 . S
C2727 C2725 1.561 . S
C2728 C2725 1.526 . S
C2728 C2729 1.396 . S
C2728 C2733 1.390 . S
C2729 C2723 1.465 . S
C2729 C2728 1.396 . S
C2729 C2730 1.399 . S
C2730 H2716 0.929 . S
C2730 C2729 1.399 . S
C2730 C2731 1.385 . S
C2731 H2717 0.931 . S
C2731 C2730 1.385 . S
C2731 C2732 1.389 . S
C2732 C2731 1.389 . S
C2732 C2733 1.387 . S
C2733 H2718 0.930 . S
C2733 C2728 1.390 . S
C2733 C2732 1.387 . S
H2734 C2746 0.930 . S
H2735 C2748 0.930 . S
H2736 C2749 0.930 . S
H2737 C2753 0.959 . S
H2738 C2753 0.959 . S
H2739 C2753 0.961 . S
H2740 C2754 0.960 . S
H2741 C2754 0.961 . S
H2742 C2754 0.959 . S
H2743 C2757 0.929 . S
H2744 C2758 0.931 . S
H2745 C2760 0.930 . S
C2746 H2734 0.930 . S
C2746 C2747 1.399 . S
C2746 C2751 1.399 . S
C2747 C2746 1.399 . S
C2747 C2748 1.376 . S
C2748 H2735 0.930 . S
C2748 C2747 1.376 . S
C2748 C2749 1.388 . S
C2749 H2736 0.930 . S
C2749 C2748 1.388 . S
C2749 C2750 1.390 . S
C2750 C2749 1.390 . S
C2750 C2751 1.394 . S
C2750 C2756 1.465 . S
C2751 C2746 1.399 . S
C2751 C2750 1.394 . S
C2751 C2752 1.516 . S
C2752 C2751 1.516 . S
C2752 C2753 1.502 . S
C2752 C2754 1.561 . S
C2752 C2755 1.526 . S
C2753 H2737 0.959 . S
C2753 H2738 0.959 . S
C2753 H2739 0.961 . S
C2753 C2752 1.502 . S
C2754 H2740 0.960 . S
C2754 H2741 0.961 . S
C2754 H2742 0.959 . S
C2754 C2752 1.561 . S
C2755 C2752 1.526 . S
C2755 C2756 1.396 . S
C2755 C2760 1.390 . S
C2756 C2750 1.465 . S
C2756 C2755 1.396 . S
C2756 C2757 1.399 . S
C2757 H2743 0.929 . S
C2757 C2756 1.399 . S
C2757 C2758 1.385 . S
C2758 H2744 0.931 . S
C2758 C2757 1.385 . S
C2758 C2759 1.389 . S
C2759 C2758 1.389 . S
C2759 C2760 1.387 . S
C2760 H2745 0.930 . S
C2760 C2755 1.390 . S
C2760 C2759 1.387 . S
H2761 C2773 0.930 . S
H2762 C2775 0.930 . S
H2763 C2776 0.930 . S
H2764 C2780 0.959 . S
H2765 C2780 0.959 . S
H2766 C2780 0.961 . S
H2767 C2781 0.960 1_565 S
H2768 C2781 0.961 . S
H2769 C2781 0.959 . S
H2770 C2784 0.929 . S
H2771 C2785 0.931 . S
H2772 C2787 0.957 . S
C2773 H2761 0.930 . S
C2773 C2774 1.399 1_556 S
C2773 C2778 1.399 . S
C2774 C2773 1.399 1_554 S
C2774 C2775 1.376 . S
C2775 H2762 0.930 . S
C2775 C2774 1.376 . S
C2775 C2776 1.388 . S
C2776 H2763 0.930 . S
C2776 C2775 1.388 . S
C2776 C2777 1.390 . S
C2777 C2776 1.390 . S
C2777 C2778 1.394 1_554 S
C2777 C2783 1.465 1_565 S
C2778 C2773 1.399 . S
C2778 C2777 1.394 1_556 S
C2778 C2779 1.516 . S
C2779 C2778 1.516 . S
C2779 C2780 1.502 . S
C2779 C2781 1.561 1_565 S
C2779 C2782 1.512 1_566 S
C2780 H2764 0.959 . S
C2780 H2765 0.959 . S
C2780 H2766 0.961 . S
C2780 C2779 1.502 . S
C2781 H2767 0.960 1_545 S
C2781 H2768 0.961 . S
C2781 H2769 0.959 . S
C2781 C2779 1.561 1_545 S
C2782 C2779 1.512 1_544 S
C2782 C2783 1.418 . S
C2782 C2787 1.379 1_554 S
C2783 C2777 1.465 1_545 S
C2783 C2782 1.418 . S
C2783 C2784 1.399 . S
C2784 H2770 0.929 . S
C2784 C2783 1.399 . S
C2784 C2785 1.385 . S
C2785 H2771 0.931 . S
C2785 C2784 1.385 . S
C2785 C2786 1.389 . S
C2786 C2785 1.389 . S
C2786 C2787 1.366 1_554 S
C2787 H2772 0.957 . S
C2787 C2782 1.379 1_556 S
C2787 C2786 1.366 1_556 S
H2788 C2800 0.930 . S
H2789 C2802 0.930 . S
H2790 C2803 0.930 . S
H2791 C2807 0.959 . S
H2792 C2807 0.959 . S
H2793 C2807 0.961 . S
H2794 C2808 0.960 . S
H2795 C2808 0.961 . S
H2796 C2808 0.959 . S
H2797 C2811 0.929 . S
H2798 C2812 0.931 . S
H2799 C2814 0.930 . S
C2800 H2788 0.930 . S
C2800 C2801 1.399 . S
C2800 C2805 1.399 . S
C2801 C2800 1.399 . S
C2801 C2802 1.376 . S
C2802 H2789 0.930 . S
C2802 C2801 1.376 . S
C2802 C2803 1.388 . S
C2803 H2790 0.930 . S
C2803 C2802 1.388 . S
C2803 C2804 1.390 . S
C2804 C2803 1.390 . S
C2804 C2805 1.394 . S
C2804 C2810 1.465 . S
C2805 C2800 1.399 . S
C2805 C2804 1.394 . S
C2805 C2806 1.516 . S
C2806 C2805 1.516 . S
C2806 C2807 1.502 . S
C2806 C2808 1.561 . S
C2806 C2809 1.526 . S
C2807 H2791 0.959 . S
C2807 H2792 0.959 . S
C2807 H2793 0.961 . S
C2807 C2806 1.502 . S
C2808 H2794 0.960 . S
C2808 H2795 0.961 . S
C2808 H2796 0.959 . S
C2808 C2806 1.561 . S
C2809 C2806 1.526 . S
C2809 C2810 1.396 . S
C2809 C2814 1.390 . S
C2810 C2804 1.465 . S
C2810 C2809 1.396 . S
C2810 C2811 1.399 . S
C2811 H2797 0.929 . S
C2811 C2810 1.399 . S
C2811 C2812 1.385 . S
C2812 H2798 0.931 . S
C2812 C2811 1.385 . S
C2812 C2813 1.389 . S
C2813 C2812 1.389 . S
C2813 C2814 1.387 . S
C2814 H2799 0.930 . S
C2814 C2809 1.390 . S
C2814 C2813 1.387 . S
H2815 C2827 0.930 . S
H2816 C2829 0.930 . S
H2817 C2830 0.930 . S
H2818 C2834 0.959 . S
H2819 C2834 0.959 . S
H2820 C2834 0.961 . S
H2821 C2835 0.960 . S
H2822 C2835 0.961 . S
H2823 C2835 0.959 . S
H2824 C2838 0.929 . S
H2825 C2839 0.931 . S
H2826 C2841 0.930 . S
C2827 H2815 0.930 . S
C2827 C2828 1.399 . S
C2827 C2832 1.399 . S
C2828 C2827 1.399 . S
C2828 C2829 1.376 . S
C2829 H2816 0.930 . S
C2829 C2828 1.376 . S
C2829 C2830 1.388 . S
C2830 H2817 0.930 . S
C2830 C2829 1.388 . S
C2830 C2831 1.390 . S
C2831 C2830 1.390 . S
C2831 C2832 1.394 . S
C2831 C2837 1.465 . S
C2832 C2827 1.399 . S
C2832 C2831 1.394 . S
C2832 C2833 1.516 . S
C2833 C2832 1.516 . S
C2833 C2834 1.502 . S
C2833 C2835 1.561 . S
C2833 C2836 1.526 . S
C2834 H2818 0.959 . S
C2834 H2819 0.959 . S
C2834 H2820 0.961 . S
C2834 C2833 1.502 . S
C2835 H2821 0.960 . S
C2835 H2822 0.961 . S
C2835 H2823 0.959 . S
C2835 C2833 1.561 . S
C2836 C2833 1.526 . S
C2836 C2837 1.396 . S
C2836 C2841 1.390 . S
C2837 C2831 1.465 . S
C2837 C2836 1.396 . S
C2837 C2838 1.399 . S
C2838 H2824 0.929 . S
C2838 C2837 1.399 . S
C2838 C2839 1.385 . S
C2839 H2825 0.931 . S
C2839 C2838 1.385 . S
C2839 C2840 1.389 . S
C2840 C2839 1.389 . S
C2840 C2841 1.387 . S
C2841 H2826 0.930 . S
C2841 C2836 1.390 . S
C2841 C2840 1.387 . S
H2842 C2854 0.930 . S
H2843 C2856 0.930 . S
H2844 C2857 0.930 . S
H2845 C2861 0.959 . S
H2846 C2861 0.959 . S
H2847 C2861 0.961 . S
H2848 C2862 0.960 . S
H2849 C2862 0.961 . S
H2850 C2862 0.959 . S
H2851 C2865 0.929 . S
H2852 C2866 0.931 . S
H2853 C2868 0.930 . S
C2854 H2842 0.930 . S
C2854 C2855 1.399 . S
C2854 C2859 1.399 . S
C2855 C2854 1.399 . S
C2855 C2856 1.376 . S
C2856 H2843 0.930 . S
C2856 C2855 1.376 . S
C2856 C2857 1.388 . S
C2857 H2844 0.930 . S
C2857 C2856 1.388 . S
C2857 C2858 1.390 . S
C2858 C2857 1.390 . S
C2858 C2859 1.394 . S
C2858 C2864 1.465 . S
C2859 C2854 1.399 . S
C2859 C2858 1.394 . S
C2859 C2860 1.516 . S
C2860 C2859 1.516 . S
C2860 C2861 1.502 . S
C2860 C2862 1.561 . S
C2860 C2863 1.526 . S
C2861 H2845 0.959 . S
C2861 H2846 0.959 . S
C2861 H2847 0.961 . S
C2861 C2860 1.502 . S
C2862 H2848 0.960 . S
C2862 H2849 0.961 . S
C2862 H2850 0.959 . S
C2862 C2860 1.561 . S
C2863 C2860 1.526 . S
C2863 C2864 1.396 . S
C2863 C2868 1.390 . S
C2864 C2858 1.465 . S
C2864 C2863 1.396 . S
C2864 C2865 1.399 . S
C2865 H2851 0.929 . S
C2865 C2864 1.399 . S
C2865 C2866 1.385 . S
C2866 H2852 0.931 . S
C2866 C2865 1.385 . S
C2866 C2867 1.389 . S
C2867 C2866 1.389 . S
C2867 C2868 1.387 . S
C2868 H2853 0.930 . S
C2868 C2863 1.390 . S
C2868 C2867 1.387 . S
H2869 C2881 0.930 . S
H2870 C2883 0.930 . S
H2871 C2884 0.930 . S
H2872 C2888 0.959 . S
H2873 C2888 0.959 . S
H2874 C2888 0.961 . S
H2875 C2889 0.960 . S
H2876 C2889 0.961 . S
H2877 C2889 0.959 . S
H2878 C2892 0.929 . S
H2879 C2893 0.931 . S
H2880 C2895 0.930 . S
C2881 H2869 0.930 . S
C2881 C2882 1.399 . S
C2881 C2886 1.399 . S
C2882 C2881 1.399 . S
C2882 C2883 1.376 . S
C2883 H2870 0.930 . S
C2883 C2882 1.376 . S
C2883 C2884 1.388 . S
C2884 H2871 0.930 . S
C2884 C2883 1.388 . S
C2884 C2885 1.390 . S
C2885 C2884 1.390 . S
C2885 C2886 1.394 . S
C2885 C2891 1.465 . S
C2886 C2881 1.399 . S
C2886 C2885 1.394 . S
C2886 C2887 1.516 . S
C2887 C2886 1.516 . S
C2887 C2888 1.502 . S
C2887 C2889 1.561 . S
C2887 C2890 1.526 . S
C2888 H2872 0.959 . S
C2888 H2873 0.959 . S
C2888 H2874 0.961 . S
C2888 C2887 1.502 . S
C2889 H2875 0.960 . S
C2889 H2876 0.961 . S
C2889 H2877 0.959 . S
C2889 C2887 1.561 . S
C2890 C2887 1.526 . S
C2890 C2891 1.396 . S
C2890 C2895 1.390 . S
C2891 C2885 1.465 . S
C2891 C2890 1.396 . S
C2891 C2892 1.399 . S
C2892 H2878 0.929 . S
C2892 C2891 1.399 . S
C2892 C2893 1.385 . S
C2893 H2879 0.931 . S
C2893 C2892 1.385 . S
C2893 C2894 1.389 . S
C2894 C2893 1.389 . S
C2894 C2895 1.387 . S
C2895 H2880 0.930 . S
C2895 C2890 1.390 . S
C2895 C2894 1.387 . S
H2896 C2908 0.930 . S
H2897 C2910 0.930 . S
H2898 C2911 0.930 . S
H2899 C2915 0.959 . S
H2900 C2915 0.959 . S
H2901 C2915 0.961 . S
H2902 C2916 0.960 . S
H2903 C2916 0.961 . S
H2904 C2916 0.959 . S
H2905 C2919 0.929 . S
H2906 C2920 0.931 . S
H2907 C2922 0.930 . S
C2908 H2896 0.930 . S
C2908 C2909 1.399 . S
C2908 C2913 1.399 . S
C2909 C2908 1.399 . S
C2909 C2910 1.376 . S
C2910 H2897 0.930 . S
C2910 C2909 1.376 . S
C2910 C2911 1.388 . S
C2911 H2898 0.930 . S
C2911 C2910 1.388 . S
C2911 C2912 1.390 . S
C2912 C2911 1.390 . S
C2912 C2913 1.394 . S
C2912 C2918 1.465 . S
C2913 C2908 1.399 . S
C2913 C2912 1.394 . S
C2913 C2914 1.516 . S
C2914 C2913 1.516 . S
C2914 C2915 1.502 . S
C2914 C2916 1.561 . S
C2914 C2917 1.526 . S
C2915 H2899 0.959 . S
C2915 H2900 0.959 . S
C2915 H2901 0.961 . S
C2915 C2914 1.502 . S
C2916 H2902 0.960 . S
C2916 H2903 0.961 . S
C2916 H2904 0.959 . S
C2916 C2914 1.561 . S
C2917 C2914 1.526 . S
C2917 C2918 1.396 . S
C2917 C2922 1.390 . S
C2918 C2912 1.465 . S
C2918 C2917 1.396 . S
C2918 C2919 1.399 . S
C2919 H2905 0.929 . S
C2919 C2918 1.399 . S
C2919 C2920 1.385 . S
C2920 H2906 0.931 . S
C2920 C2919 1.385 . S
C2920 C2921 1.389 . S
C2921 C2920 1.389 . S
C2921 C2922 1.387 . S
C2922 H2907 0.930 . S
C2922 C2917 1.390 . S
C2922 C2921 1.387 . S
H2923 C2935 0.930 . S
H2924 C2937 0.930 . S
H2925 C2938 0.930 . S
H2926 C2942 0.959 . S
H2927 C2942 0.959 . S
H2928 C2942 0.961 . S
H2929 C2943 0.960 . S
H2930 C2943 0.961 . S
H2931 C2943 0.959 . S
H2932 C2946 0.929 . S
H2933 C2947 0.931 . S
H2934 C2949 0.930 . S
C2935 H2923 0.930 . S
C2935 C2936 1.399 . S
C2935 C2940 1.399 . S
C2936 C2935 1.399 . S
C2936 C2937 1.376 . S
C2937 H2924 0.930 . S
C2937 C2936 1.376 . S
C2937 C2938 1.388 . S
C2938 H2925 0.930 . S
C2938 C2937 1.388 . S
C2938 C2939 1.390 . S
C2939 C2938 1.390 . S
C2939 C2940 1.394 . S
C2939 C2945 1.465 . S
C2940 C2935 1.399 . S
C2940 C2939 1.394 . S
C2940 C2941 1.516 . S
C2941 C2940 1.516 . S
C2941 C2942 1.502 . S
C2941 C2943 1.561 . S
C2941 C2944 1.526 . S
C2942 H2926 0.959 . S
C2942 H2927 0.959 . S
C2942 H2928 0.961 . S
C2942 C2941 1.502 . S
C2943 H2929 0.960 . S
C2943 H2930 0.961 . S
C2943 H2931 0.959 . S
C2943 C2941 1.561 . S
C2944 C2941 1.526 . S
C2944 C2945 1.396 . S
C2944 C2949 1.390 . S
C2945 C2939 1.465 . S
C2945 C2944 1.396 . S
C2945 C2946 1.399 . S
C2946 H2932 0.929 . S
C2946 C2945 1.399 . S
C2946 C2947 1.385 . S
C2947 H2933 0.931 . S
C2947 C2946 1.385 . S
C2947 C2948 1.389 . S
C2948 C2947 1.389 . S
C2948 C2949 1.387 . S
C2949 H2934 0.930 . S
C2949 C2944 1.390 . S
C2949 C2948 1.387 . S
H2950 C2962 0.930 . S
H2951 C2964 0.930 . S
H2952 C2965 0.930 . S
H2953 C2969 0.959 . S
H2954 C2969 0.959 . S
H2955 C2969 0.961 . S
H2956 C2970 0.960 . S
H2957 C2970 0.961 . S
H2958 C2970 0.959 . S
H2959 C2973 0.929 . S
H2960 C2974 0.931 . S
H2961 C2976 0.930 . S
C2962 H2950 0.930 . S
C2962 C2963 1.399 . S
C2962 C2967 1.399 . S
C2963 C2962 1.399 . S
C2963 C2964 1.376 . S
C2964 H2951 0.930 . S
C2964 C2963 1.376 . S
C2964 C2965 1.388 . S
C2965 H2952 0.930 . S
C2965 C2964 1.388 . S
C2965 C2966 1.390 . S
C2966 C2965 1.390 . S
C2966 C2967 1.394 . S
C2966 C2972 1.465 . S
C2967 C2962 1.399 . S
C2967 C2966 1.394 . S
C2967 C2968 1.516 . S
C2968 C2967 1.516 . S
C2968 C2969 1.502 1_455 S
C2968 C2970 1.561 . S
C2968 C2971 1.526 . S
C2969 H2953 0.959 . S
C2969 H2954 0.959 . S
C2969 H2955 0.961 . S
C2969 C2968 1.502 1_655 S
C2970 H2956 0.960 . S
C2970 H2957 0.961 . S
C2970 H2958 0.959 . S
C2970 C2968 1.561 . S
C2971 C2968 1.526 . S
C2971 C2972 1.396 . S
C2971 C2976 1.390 . S
C2972 C2966 1.465 . S
C2972 C2971 1.396 . S
C2972 C2973 1.399 . S
C2973 H2959 0.929 . S
C2973 C2972 1.399 . S
C2973 C2974 1.385 . S
C2974 H2960 0.931 . S
C2974 C2973 1.385 . S
C2974 C2975 1.389 . S
C2975 C2974 1.389 . S
C2975 C2976 1.387 . S
C2976 H2961 0.930 . S
C2976 C2971 1.390 . S
C2976 C2975 1.387 . S
H2977 C2989 0.930 . S
H2978 C2991 0.930 . S
H2979 C2992 0.930 . S
H2980 C2996 0.959 . S
H2981 C2996 0.959 . S
H2982 C2996 0.961 . S
H2983 C2997 0.960 . S
H2984 C2997 0.961 . S
H2985 C2997 0.959 . S
H2986 C3000 0.929 . S
H2987 C3001 0.931 . S
H2988 C3003 0.930 . S
C2989 H2977 0.930 . S
C2989 C2990 1.399 . S
C2989 C2994 1.399 . S
C2990 C2989 1.399 . S
C2990 C2991 1.376 . S
C2991 H2978 0.930 . S
C2991 C2990 1.376 . S
C2991 C2992 1.388 . S
C2992 H2979 0.930 . S
C2992 C2991 1.388 . S
C2992 C2993 1.390 . S
C2993 C2992 1.390 . S
C2993 C2994 1.394 . S
C2993 C2999 1.465 . S
C2994 C2989 1.399 . S
C2994 C2993 1.394 . S
C2994 C2995 1.516 . S
C2995 C2994 1.516 . S
C2995 C2996 1.502 . S
C2995 C2997 1.561 . S
C2995 C2998 1.526 . S
C2996 H2980 0.959 . S
C2996 H2981 0.959 . S
C2996 H2982 0.961 . S
C2996 C2995 1.502 . S
C2997 H2983 0.960 . S
C2997 H2984 0.961 . S
C2997 H2985 0.959 . S
C2997 C2995 1.561 . S
C2998 C2995 1.526 . S
C2998 C2999 1.396 . S
C2998 C3003 1.390 . S
C2999 C2993 1.465 . S
C2999 C2998 1.396 . S
C2999 C3000 1.399 . S
C3000 H2986 0.929 . S
C3000 C2999 1.399 . S
C3000 C3001 1.385 . S
C3001 H2987 0.931 . S
C3001 C3000 1.385 . S
C3001 C3002 1.389 . S
C3002 C3001 1.389 . S
C3002 C3003 1.387 . S
C3003 H2988 0.930 . S
C3003 C2998 1.390 . S
C3003 C3002 1.387 . S
H3004 C3016 0.930 . S
H3005 C3018 0.930 . S
H3006 C3019 0.930 . S
H3007 C3023 0.959 . S
H3008 C3023 0.959 . S
H3009 C3023 0.961 . S
H3010 C3024 0.960 . S
H3011 C3024 0.961 . S
H3012 C3024 0.959 . S
H3013 C3027 0.929 . S
H3014 C3028 0.931 . S
H3015 C3030 0.930 . S
C3016 H3004 0.930 . S
C3016 C3017 1.399 . S
C3016 C3021 1.399 . S
C3017 C3016 1.399 . S
C3017 C3018 1.376 . S
C3018 H3005 0.930 . S
C3018 C3017 1.376 . S
C3018 C3019 1.388 . S
C3019 H3006 0.930 . S
C3019 C3018 1.388 . S
C3019 C3020 1.390 . S
C3020 C3019 1.390 . S
C3020 C3021 1.394 . S
C3020 C3026 1.465 . S
C3021 C3016 1.399 . S
C3021 C3020 1.394 . S
C3021 C3022 1.516 . S
C3022 C3021 1.516 . S
C3022 C3023 1.502 . S
C3022 C3024 1.561 . S
C3022 C3025 1.526 . S
C3023 H3007 0.959 . S
C3023 H3008 0.959 . S
C3023 H3009 0.961 . S
C3023 C3022 1.502 . S
C3024 H3010 0.960 . S
C3024 H3011 0.961 . S
C3024 H3012 0.959 . S
C3024 C3022 1.561 . S
C3025 C3022 1.526 . S
C3025 C3026 1.396 . S
C3025 C3030 1.390 . S
C3026 C3020 1.465 . S
C3026 C3025 1.396 . S
C3026 C3027 1.399 . S
C3027 H3013 0.929 . S
C3027 C3026 1.399 . S
C3027 C3028 1.385 . S
C3028 H3014 0.931 . S
C3028 C3027 1.385 . S
C3028 C3029 1.389 . S
C3029 C3028 1.389 . S
C3029 C3030 1.387 . S
C3030 H3015 0.930 . S
C3030 C3025 1.390 . S
C3030 C3029 1.387 . S
H3031 C3043 0.930 . S
H3032 C3045 0.930 . S
H3033 C3046 0.930 . S
H3034 C3050 0.959 . S
H3035 C3050 0.959 . S
H3036 C3050 0.961 . S
H3037 C3051 0.960 . S
H3038 C3051 0.961 . S
H3039 C3051 0.959 . S
H3040 C3054 0.929 . S
H3041 C3055 0.931 . S
H3042 C3057 0.930 . S
C3043 H3031 0.930 . S
C3043 C3044 1.399 . S
C3043 C3048 1.399 . S
C3044 C3043 1.399 . S
C3044 C3045 1.376 . S
C3045 H3032 0.930 . S
C3045 C3044 1.376 . S
C3045 C3046 1.388 . S
C3046 H3033 0.930 . S
C3046 C3045 1.388 . S
C3046 C3047 1.390 . S
C3047 C3046 1.390 . S
C3047 C3048 1.394 . S
C3047 C3053 1.465 . S
C3048 C3043 1.399 . S
C3048 C3047 1.394 . S
C3048 C3049 1.516 . S
C3049 C3048 1.516 . S
C3049 C3050 1.502 . S
C3049 C3051 1.561 . S
C3049 C3052 1.526 . S
C3050 H3034 0.959 . S
C3050 H3035 0.959 . S
C3050 H3036 0.961 . S
C3050 C3049 1.502 . S
C3051 H3037 0.960 . S
C3051 H3038 0.961 . S
C3051 H3039 0.959 . S
C3051 C3049 1.561 . S
C3052 C3049 1.526 . S
C3052 C3053 1.396 . S
C3052 C3057 1.390 . S
C3053 C3047 1.465 . S
C3053 C3052 1.396 . S
C3053 C3054 1.399 . S
C3054 H3040 0.929 . S
C3054 C3053 1.399 . S
C3054 C3055 1.385 . S
C3055 H3041 0.931 . S
C3055 C3054 1.385 . S
C3055 C3056 1.389 . S
C3056 C3055 1.389 . S
C3056 C3057 1.387 . S
C3057 H3042 0.930 . S
C3057 C3052 1.390 . S
C3057 C3056 1.387 . S
H3058 C3070 0.930 . S
H3059 C3072 0.930 . S
H3060 C3073 0.930 . S
H3061 C3077 0.931 1_655 S
H3062 C3077 0.959 . S
H3063 C3077 0.961 . S
H3064 C3078 0.960 . S
H3065 C3078 0.961 . S
H3066 C3078 0.959 . S
H3067 C3081 0.929 . S
H3068 C3082 0.931 . S
H3069 C3084 0.930 . S
C3070 H3058 0.930 . S
C3070 C3071 1.399 . S
C3070 C3075 1.399 . S
C3071 C3070 1.399 . S
C3071 C3072 1.376 . S
C3072 H3059 0.930 . S
C3072 C3071 1.376 . S
C3072 C3073 1.388 . S
C3073 H3060 0.930 . S
C3073 C3072 1.388 . S
C3073 C3074 1.390 . S
C3074 C3073 1.390 . S
C3074 C3075 1.394 . S
C3074 C3080 1.465 . S
C3075 C3070 1.399 . S
C3075 C3074 1.394 . S
C3075 C3076 1.516 . S
C3076 C3075 1.516 . S
C3076 C3077 1.502 . S
C3076 C3078 1.561 . S
C3076 C3079 1.526 . S
C3077 H3061 0.931 1_455 S
C3077 H3062 0.959 . S
C3077 H3063 0.961 . S
C3077 C3076 1.502 . S
C3078 H3064 0.960 . S
C3078 H3065 0.961 . S
C3078 H3066 0.959 . S
C3078 C3076 1.561 . S
C3079 C3076 1.526 . S
C3079 C3080 1.396 . S
C3079 C3084 1.390 . S
C3080 C3074 1.465 . S
C3080 C3079 1.396 . S
C3080 C3081 1.399 . S
C3081 H3067 0.929 . S
C3081 C3080 1.399 . S
C3081 C3082 1.385 . S
C3082 H3068 0.931 . S
C3082 C3081 1.385 . S
C3082 C3083 1.389 . S
C3083 C3082 1.389 . S
C3083 C3084 1.387 . S
C3084 H3069 0.930 . S
C3084 C3079 1.390 . S
C3084 C3083 1.387 . S
H3085 C3097 0.930 . S
H3086 C3099 0.930 . S
H3087 C3100 0.930 . S
H3088 C3104 0.959 . S
H3089 C3104 0.959 . S
H3090 C3104 0.961 . S
H3091 C3105 0.960 . S
H3092 C3105 0.961 . S
H3093 C3105 0.959 . S
H3094 C3108 0.929 . S
H3095 C3109 0.931 . S
H3096 C3111 0.930 . S
C3097 H3085 0.930 . S
C3097 C3098 1.399 . S
C3097 C3102 1.399 . S
C3098 C3097 1.399 . S
C3098 C3099 1.376 . S
C3099 H3086 0.930 . S
C3099 C3098 1.376 . S
C3099 C3100 1.388 . S
C3100 H3087 0.930 . S
C3100 C3099 1.388 . S
C3100 C3101 1.390 . S
C3101 C3100 1.390 . S
C3101 C3102 1.394 . S
C3101 C3107 1.465 . S
C3102 C3097 1.399 . S
C3102 C3101 1.394 . S
C3102 C3103 1.516 . S
C3103 C3102 1.516 . S
C3103 C3104 1.502 . S
C3103 C3105 1.561 . S
C3103 C3106 1.526 . S
C3104 H3088 0.959 . S
C3104 H3089 0.959 . S
C3104 H3090 0.961 . S
C3104 C3103 1.502 . S
C3105 H3091 0.960 . S
C3105 H3092 0.961 . S
C3105 H3093 0.959 . S
C3105 C3103 1.561 . S
C3106 C3103 1.526 . S
C3106 C3107 1.396 . S
C3106 C3111 1.390 . S
C3107 C3101 1.465 . S
C3107 C3106 1.396 . S
C3107 C3108 1.399 . S
C3108 H3094 0.929 . S
C3108 C3107 1.399 . S
C3108 C3109 1.385 . S
C3109 H3095 0.931 . S
C3109 C3108 1.385 . S
C3109 C3110 1.389 . S
C3110 C3109 1.389 . S
C3110 C3111 1.387 . S
C3111 H3096 0.930 . S
C3111 C3106 1.390 . S
C3111 C3110 1.387 . S
H3112 C3124 0.930 . S
H3113 C3126 0.930 . S
H3114 C3127 0.930 . S
H3115 C3131 0.959 . S
H3116 C3131 0.959 . S
H3117 C3131 0.961 . S
H3118 C3132 0.960 . S
H3119 C3132 0.961 . S
H3120 C3132 0.959 . S
H3121 C3135 0.929 . S
H3122 C3136 0.931 . S
H3123 C3138 0.930 . S
C3124 H3112 0.930 . S
C3124 C3125 1.399 . S
C3124 C3129 1.399 . S
C3125 C3124 1.399 . S
C3125 C3126 1.376 . S
C3126 H3113 0.930 . S
C3126 C3125 1.376 . S
C3126 C3127 1.388 . S
C3127 H3114 0.930 . S
C3127 C3126 1.388 . S
C3127 C3128 1.390 . S
C3128 C3127 1.390 . S
C3128 C3129 1.394 . S
C3128 C3134 1.465 . S
C3129 C3124 1.399 . S
C3129 C3128 1.394 . S
C3129 C3130 1.516 . S
C3130 C3129 1.516 . S
C3130 C3131 1.502 . S
C3130 C3132 1.561 . S
C3130 C3133 1.526 . S
C3131 H3115 0.959 . S
C3131 H3116 0.959 . S
C3131 H3117 0.961 . S
C3131 C3130 1.502 . S
C3132 H3118 0.960 . S
C3132 H3119 0.961 . S
C3132 H3120 0.959 . S
C3132 C3130 1.561 . S
C3133 C3130 1.526 . S
C3133 C3134 1.396 . S
C3133 C3138 1.390 . S
C3134 C3128 1.465 . S
C3134 C3133 1.396 . S
C3134 C3135 1.399 . S
C3135 H3121 0.929 . S
C3135 C3134 1.399 . S
C3135 C3136 1.385 . S
C3136 H3122 0.931 . S
C3136 C3135 1.385 . S
C3136 C3137 1.389 . S
C3137 C3136 1.389 . S
C3137 C3138 1.387 . S
C3138 H3123 0.930 . S
C3138 C3133 1.390 . S
C3138 C3137 1.387 . S
H3139 C3151 0.930 . S
H3140 C3153 0.930 . S
H3141 C3154 0.930 . S
H3142 C3158 0.959 . S
H3143 C3158 0.959 . S
H3144 C3158 0.961 . S
H3145 C3159 0.960 . S
H3146 C3159 0.961 . S
H3147 C3159 0.959 . S
H3148 C3162 0.929 . S
H3149 C3163 0.931 . S
H3150 C3165 0.930 . S
C3151 H3139 0.930 . S
C3151 C3152 1.399 . S
C3151 C3156 1.399 . S
C3152 C3151 1.399 . S
C3152 C3153 1.376 . S
C3153 H3140 0.930 . S
C3153 C3152 1.376 . S
C3153 C3154 1.388 . S
C3154 H3141 0.930 . S
C3154 C3153 1.388 . S
C3154 C3155 1.390 . S
C3155 C3154 1.390 . S
C3155 C3156 1.394 . S
C3155 C3161 1.465 . S
C3156 C3151 1.399 . S
C3156 C3155 1.394 . S
C3156 C3157 1.516 . S
C3157 C3156 1.516 . S
C3157 C3158 1.502 . S
C3157 C3159 1.561 . S
C3157 C3160 1.526 . S
C3158 H3142 0.959 . S
C3158 H3143 0.959 . S
C3158 H3144 0.961 . S
C3158 C3157 1.502 . S
C3159 H3145 0.960 . S
C3159 H3146 0.961 . S
C3159 H3147 0.959 . S
C3159 C3157 1.561 . S
C3160 C3157 1.526 . S
C3160 C3161 1.396 . S
C3160 C3165 1.390 . S
C3161 C3155 1.465 . S
C3161 C3160 1.396 . S
C3161 C3162 1.399 . S
C3162 H3148 0.929 . S
C3162 C3161 1.399 . S
C3162 C3163 1.385 . S
C3163 H3149 0.931 . S
C3163 C3162 1.385 . S
C3163 C3164 1.389 . S
C3164 C3163 1.389 . S
C3164 C3165 1.387 . S
C3165 H3150 0.930 . S
C3165 C3160 1.390 . S
C3165 C3164 1.387 . S
H3166 C3178 0.930 . S
H3167 C3180 0.930 . S
H3168 C3181 0.930 . S
H3169 C3185 0.959 . S
H3170 C3185 0.959 . S
H3171 C3185 0.961 . S
H3172 C3186 0.960 . S
H3173 C3186 0.961 . S
H3174 C3186 0.959 . S
H3175 C3189 0.929 . S
H3176 C3190 0.931 . S
H3177 C3192 0.930 . S
C3178 H3166 0.930 . S
C3178 C3179 1.399 . S
C3178 C3183 1.399 . S
C3179 C3178 1.399 . S
C3179 C3180 1.376 . S
C3180 H3167 0.930 . S
C3180 C3179 1.376 . S
C3180 C3181 1.388 . S
C3181 H3168 0.930 . S
C3181 C3180 1.388 . S
C3181 C3182 1.390 . S
C3182 C3181 1.390 . S
C3182 C3183 1.394 . S
C3182 C3188 1.465 . S
C3183 C3178 1.399 . S
C3183 C3182 1.394 . S
C3183 C3184 1.516 . S
C3184 C3183 1.516 . S
C3184 C3185 1.502 . S
C3184 C3186 1.561 . S
C3184 C3187 1.526 . S
C3185 H3169 0.959 . S
C3185 H3170 0.959 . S
C3185 H3171 0.961 . S
C3185 C3184 1.502 . S
C3186 H3172 0.960 . S
C3186 H3173 0.961 . S
C3186 H3174 0.959 . S
C3186 C3184 1.561 . S
C3187 C3184 1.526 . S
C3187 C3188 1.396 . S
C3187 C3192 1.390 . S
C3188 C3182 1.465 . S
C3188 C3187 1.396 . S
C3188 C3189 1.399 . S
C3189 H3175 0.929 . S
C3189 C3188 1.399 . S
C3189 C3190 1.385 . S
C3190 H3176 0.931 . S
C3190 C3189 1.385 . S
C3190 C3191 1.389 . S
C3191 C3190 1.389 . S
C3191 C3192 1.387 . S
C3192 H3177 0.930 . S
C3192 C3187 1.390 . S
C3192 C3191 1.387 . S
H3193 C3205 0.930 . S
H3194 C3207 0.930 . S
H3195 C3208 0.930 . S
H3196 C3212 0.959 . S
H3197 C3212 0.959 . S
H3198 C3212 0.961 . S
H3199 C3213 0.960 . S
H3200 C3213 0.961 . S
H3201 C3213 0.959 . S
H3202 C3216 0.929 . S
H3203 C3217 0.931 . S
H3204 C3219 0.930 . S
C3205 H3193 0.930 . S
C3205 C3206 1.399 . S
C3205 C3210 1.399 . S
C3206 C3205 1.399 . S
C3206 C3207 1.376 . S
C3207 H3194 0.930 . S
C3207 C3206 1.376 . S
C3207 C3208 1.388 . S
C3208 H3195 0.930 . S
C3208 C3207 1.388 . S
C3208 C3209 1.390 . S
C3209 C3208 1.390 . S
C3209 C3210 1.394 . S
C3209 C3215 1.465 . S
C3210 C3205 1.399 . S
C3210 C3209 1.394 . S
C3210 C3211 1.516 . S
C3211 C3210 1.516 . S
C3211 C3212 1.502 . S
C3211 C3213 1.561 . S
C3211 C3214 1.526 . S
C3212 H3196 0.959 . S
C3212 H3197 0.959 . S
C3212 H3198 0.961 . S
C3212 C3211 1.502 . S
C3213 H3199 0.960 . S
C3213 H3200 0.961 . S
C3213 H3201 0.959 . S
C3213 C3211 1.561 . S
C3214 C3211 1.526 . S
C3214 C3215 1.396 . S
C3214 C3219 1.390 . S
C3215 C3209 1.465 . S
C3215 C3214 1.396 . S
C3215 C3216 1.399 . S
C3216 H3202 0.929 . S
C3216 C3215 1.399 . S
C3216 C3217 1.385 . S
C3217 H3203 0.931 . S
C3217 C3216 1.385 . S
C3217 C3218 1.389 . S
C3218 C3217 1.389 . S
C3218 C3219 1.387 . S
C3219 H3204 0.930 . S
C3219 C3214 1.390 . S
C3219 C3218 1.387 . S
H3220 C3232 0.930 . S
H3221 C3234 0.930 . S
H3222 C3235 0.930 . S
H3223 C3239 0.959 . S
H3224 C3239 0.959 . S
H3225 C3239 0.961 . S
H3226 C3240 0.960 . S
H3227 C3240 0.961 . S
H3228 C3240 0.959 . S
H3229 C3243 0.929 . S
H3230 C3244 0.931 . S
H3231 C3246 0.930 . S
C3232 H3220 0.930 . S
C3232 C3233 1.399 . S
C3232 C3237 1.399 . S
C3233 C3232 1.399 . S
C3233 C3234 1.376 . S
C3234 H3221 0.930 . S
C3234 C3233 1.376 . S
C3234 C3235 1.388 . S
C3235 H3222 0.930 . S
C3235 C3234 1.388 . S
C3235 C3236 1.390 . S
C3236 C3235 1.390 . S
C3236 C3237 1.394 . S
C3236 C3242 1.465 . S
C3237 C3232 1.399 . S
C3237 C3236 1.394 . S
C3237 C3238 1.516 . S
C3238 C3237 1.516 . S
C3238 C3239 1.502 . S
C3238 C3240 1.561 . S
C3238 C3241 1.526 . S
C3239 H3223 0.959 . S
C3239 H3224 0.959 . S
C3239 H3225 0.961 . S
C3239 C3238 1.502 . S
C3240 H3226 0.960 . S
C3240 H3227 0.961 . S
C3240 H3228 0.959 . S
C3240 C3238 1.561 . S
C3241 C3238 1.526 . S
C3241 C3242 1.396 . S
C3241 C3246 1.390 . S
C3242 C3236 1.465 . S
C3242 C3241 1.396 . S
C3242 C3243 1.399 . S
C3243 H3229 0.929 . S
C3243 C3242 1.399 . S
C3243 C3244 1.385 . S
C3244 H3230 0.931 . S
C3244 C3243 1.385 . S
C3244 C3245 1.389 . S
C3245 C3244 1.389 . S
C3245 C3246 1.387 . S
C3246 H3231 0.930 . S
C3246 C3241 1.390 . S
C3246 C3245 1.387 . S
H3247 C3259 0.930 . S
H3248 C3261 0.930 . S
H3249 C3262 0.930 . S
H3250 C3266 0.959 . S
H3251 C3266 0.959 . S
H3252 C3266 0.961 . S
H3253 C3267 0.960 . S
H3254 C3267 0.961 . S
H3255 C3267 0.959 . S
H3256 C3270 0.929 . S
H3257 C3271 0.931 . S
H3258 C3273 0.930 . S
C3259 H3247 0.930 . S
C3259 C3260 1.399 . S
C3259 C3264 1.399 . S
C3260 C3259 1.399 . S
C3260 C3261 1.376 . S
C3261 H3248 0.930 . S
C3261 C3260 1.376 . S
C3261 C3262 1.388 . S
C3262 H3249 0.930 . S
C3262 C3261 1.388 . S
C3262 C3263 1.390 . S
C3263 C3262 1.390 . S
C3263 C3264 1.394 . S
C3263 C3269 1.465 . S
C3264 C3259 1.399 . S
C3264 C3263 1.394 . S
C3264 C3265 1.516 . S
C3265 C3264 1.516 . S
C3265 C3266 1.502 . S
C3265 C3267 1.561 . S
C3265 C3268 1.526 . S
C3266 H3250 0.959 . S
C3266 H3251 0.959 . S
C3266 H3252 0.961 . S
C3266 C3265 1.502 . S
C3267 H3253 0.960 . S
C3267 H3254 0.961 . S
C3267 H3255 0.959 . S
C3267 C3265 1.561 . S
C3268 C3265 1.526 . S
C3268 C3269 1.396 . S
C3268 C3273 1.390 . S
C3269 C3263 1.465 . S
C3269 C3268 1.396 . S
C3269 C3270 1.399 . S
C3270 H3256 0.929 . S
C3270 C3269 1.399 . S
C3270 C3271 1.385 . S
C3271 H3257 0.931 . S
C3271 C3270 1.385 . S
C3271 C3272 1.389 . S
C3272 C3271 1.389 . S
C3272 C3273 1.387 . S
C3273 H3258 0.930 . S
C3273 C3268 1.390 . S
C3273 C3272 1.387 . S
H3274 C3286 0.930 . S
H3275 C3288 0.930 . S
H3276 C3289 0.930 . S
H3277 C3293 0.959 . S
H3278 C3293 0.959 . S
H3279 C3293 0.961 . S
H3280 C3294 0.960 . S
H3281 C3294 0.961 . S
H3282 C3294 0.959 . S
H3283 C3297 0.929 . S
H3284 C3298 0.931 . S
H3285 C3300 0.930 . S
C3286 H3274 0.930 . S
C3286 C3287 1.399 . S
C3286 C3291 1.399 . S
C3287 C3286 1.399 . S
C3287 C3288 1.376 . S
C3288 H3275 0.930 . S
C3288 C3287 1.376 . S
C3288 C3289 1.388 . S
C3289 H3276 0.930 . S
C3289 C3288 1.388 . S
C3289 C3290 1.390 . S
C3290 C3289 1.390 . S
C3290 C3291 1.394 . S
C3290 C3296 1.465 . S
C3291 C3286 1.399 . S
C3291 C3290 1.394 . S
C3291 C3292 1.516 . S
C3292 C3291 1.516 . S
C3292 C3293 1.502 . S
C3292 C3294 1.561 . S
C3292 C3295 1.526 . S
C3293 H3277 0.959 . S
C3293 H3278 0.959 . S
C3293 H3279 0.961 . S
C3293 C3292 1.502 . S
C3294 H3280 0.960 . S
C3294 H3281 0.961 . S
C3294 H3282 0.959 . S
C3294 C3292 1.561 . S
C3295 C3292 1.526 . S
C3295 C3296 1.396 . S
C3295 C3300 1.390 . S
C3296 C3290 1.465 . S
C3296 C3295 1.396 . S
C3296 C3297 1.399 . S
C3297 H3283 0.929 . S
C3297 C3296 1.399 . S
C3297 C3298 1.385 . S
C3298 H3284 0.931 . S
C3298 C3297 1.385 . S
C3298 C3299 1.389 . S
C3299 C3298 1.389 . S
C3299 C3300 1.387 . S
C3300 H3285 0.930 . S
C3300 C3295 1.390 . S
C3300 C3299 1.387 . S
H3301 C3313 0.930 . S
H3302 C3315 0.930 . S
H3303 C3316 0.930 . S
H3304 C3320 0.959 . S
H3305 C3320 0.959 . S
H3306 C3320 0.961 . S
H3307 C3321 0.960 . S
H3308 C3321 0.961 . S
H3309 C3321 0.959 . S
H3310 C3324 0.929 . S
H3311 C3325 0.931 . S
H3312 C3327 0.930 . S
C3313 H3301 0.930 . S
C3313 C3314 1.399 . S
C3313 C3318 1.399 . S
C3314 C3313 1.399 . S
C3314 C3315 1.376 . S
C3315 H3302 0.930 . S
C3315 C3314 1.376 . S
C3315 C3316 1.388 . S
C3316 H3303 0.930 . S
C3316 C3315 1.388 . S
C3316 C3317 1.390 . S
C3317 C3316 1.390 . S
C3317 C3318 1.394 . S
C3317 C3323 1.465 . S
C3318 C3313 1.399 . S
C3318 C3317 1.394 . S
C3318 C3319 1.516 . S
C3319 C3318 1.516 . S
C3319 C3320 1.502 . S
C3319 C3321 1.561 . S
C3319 C3322 1.526 . S
C3320 H3304 0.959 . S
C3320 H3305 0.959 . S
C3320 H3306 0.961 . S
C3320 C3319 1.502 . S
C3321 H3307 0.960 . S
C3321 H3308 0.961 . S
C3321 H3309 0.959 . S
C3321 C3319 1.561 . S
C3322 C3319 1.526 . S
C3322 C3323 1.396 . S
C3322 C3327 1.390 . S
C3323 C3317 1.465 . S
C3323 C3322 1.396 . S
C3323 C3324 1.399 . S
C3324 H3310 0.929 . S
C3324 C3323 1.399 . S
C3324 C3325 1.385 . S
C3325 H3311 0.931 . S
C3325 C3324 1.385 . S
C3325 C3326 1.389 . S
C3326 C3325 1.389 . S
C3326 C3327 1.387 . S
C3327 H3312 0.930 . S
C3327 C3322 1.390 . S
C3327 C3326 1.387 . S
H3328 C3340 0.930 . S
H3329 C3342 0.930 . S
H3330 C3343 0.930 . S
H3331 C3347 0.959 . S
H3332 C3347 0.959 . S
H3333 C3347 0.961 . S
H3334 C3348 0.960 . S
H3335 C3348 0.961 . S
H3336 C3348 0.959 . S
H3337 C3351 0.929 . S
H3338 C3352 0.931 . S
H3339 C3354 0.930 . S
C3340 H3328 0.930 . S
C3340 C3341 1.399 . S
C3340 C3345 1.399 . S
C3341 C3340 1.399 . S
C3341 C3342 1.376 . S
C3342 H3329 0.930 . S
C3342 C3341 1.376 . S
C3342 C3343 1.388 . S
C3343 H3330 0.930 . S
C3343 C3342 1.388 . S
C3343 C3344 1.390 . S
C3344 C3343 1.390 . S
C3344 C3345 1.394 . S
C3344 C3350 1.465 . S
C3345 C3340 1.399 . S
C3345 C3344 1.394 . S
C3345 C3346 1.516 . S
C3346 C3345 1.516 . S
C3346 C3347 1.502 . S
C3346 C3348 1.561 . S
C3346 C3349 1.526 . S
C3347 H3331 0.959 . S
C3347 H3332 0.959 . S
C3347 H3333 0.961 . S
C3347 C3346 1.502 . S
C3348 H3334 0.960 . S
C3348 H3335 0.961 . S
C3348 H3336 0.959 . S
C3348 C3346 1.561 . S
C3349 C3346 1.526 . S
C3349 C3350 1.396 . S
C3349 C3354 1.390 . S
C3350 C3344 1.465 . S
C3350 C3349 1.396 . S
C3350 C3351 1.399 . S
C3351 H3337 0.929 . S
C3351 C3350 1.399 . S
C3351 C3352 1.385 . S
C3352 H3338 0.931 . S
C3352 C3351 1.385 . S
C3352 C3353 1.389 . S
C3353 C3352 1.389 . S
C3353 C3354 1.387 . S
C3354 H3339 0.930 . S
C3354 C3349 1.390 . S
C3354 C3353 1.387 . S
H3355 C3367 0.930 . S
H3356 C3369 0.930 . S
H3357 C3370 0.930 . S
H3358 C3374 0.959 . S
H3359 C3374 0.959 . S
H3360 C3374 0.961 . S
H3361 C3375 0.960 . S
H3362 C3375 0.961 . S
H3363 C3375 0.959 . S
H3364 C3378 0.929 . S
H3365 C3379 0.949 . S
H3366 C3381 0.930 . S
C3367 H3355 0.930 . S
C3367 C3368 1.399 . S
C3367 C3372 1.399 . S
C3368 C3367 1.399 . S
C3368 C3369 1.376 . S
C3369 H3356 0.930 . S
C3369 C3368 1.376 . S
C3369 C3370 1.388 . S
C3370 H3357 0.930 . S
C3370 C3369 1.388 . S
C3370 C3371 1.390 . S
C3371 C3370 1.390 . S
C3371 C3372 1.394 . S
C3371 C3377 1.465 . S
C3372 C3367 1.399 . S
C3372 C3371 1.394 . S
C3372 C3373 1.516 . S
C3373 C3372 1.516 . S
C3373 C3374 1.502 . S
C3373 C3375 1.561 . S
C3373 C3376 1.526 . S
C3374 H3358 0.959 . S
C3374 H3359 0.959 . S
C3374 H3360 0.961 . S
C3374 C3373 1.502 . S
C3375 H3361 0.960 . S
C3375 H3362 0.961 . S
C3375 H3363 0.959 . S
C3375 C3373 1.561 . S
C3376 C3373 1.526 . S
C3376 C3377 1.396 . S
C3376 C3381 1.390 . S
C3377 C3371 1.465 . S
C3377 C3376 1.396 . S
C3377 C3378 1.399 . S
C3378 H3364 0.929 . S
C3378 C3377 1.399 . S
C3378 C3379 1.372 1_565 S
C3379 H3365 0.949 . S
C3379 C3378 1.372 1_545 S
C3379 C3380 1.386 1_545 S
C3380 C3379 1.386 1_565 S
C3380 C3381 1.387 . S
C3381 H3366 0.930 . S
C3381 C3376 1.390 . S
C3381 C3380 1.387 . S
H3382 C3394 0.930 . S
H3383 C3396 0.930 . S
H3384 C3397 0.930 . S
H3385 C3401 0.959 . S
H3386 C3401 0.959 . S
H3387 C3401 0.961 . S
H3388 C3402 0.960 . S
H3389 C3402 0.961 . S
H3390 C3402 0.959 . S
H3391 C3405 0.929 . S
H3392 C3406 0.931 . S
H3393 C3408 0.930 . S
C3394 H3382 0.930 . S
C3394 C3395 1.399 . S
C3394 C3399 1.399 . S
C3395 C3394 1.399 . S
C3395 C3396 1.376 . S
C3396 H3383 0.930 . S
C3396 C3395 1.376 . S
C3396 C3397 1.388 . S
C3397 H3384 0.930 . S
C3397 C3396 1.388 . S
C3397 C3398 1.390 . S
C3398 C3397 1.390 . S
C3398 C3399 1.394 . S
C3398 C3404 1.465 . S
C3399 C3394 1.399 . S
C3399 C3398 1.394 . S
C3399 C3400 1.516 . S
C3400 C3399 1.516 . S
C3400 C3401 1.502 . S
C3400 C3402 1.561 . S
C3400 C3403 1.526 . S
C3401 H3385 0.959 . S
C3401 H3386 0.959 . S
C3401 H3387 0.961 . S
C3401 C3400 1.502 . S
C3402 H3388 0.960 . S
C3402 H3389 0.961 . S
C3402 H3390 0.959 . S
C3402 C3400 1.561 . S
C3403 C3400 1.526 . S
C3403 C3404 1.396 . S
C3403 C3408 1.390 . S
C3404 C3398 1.465 . S
C3404 C3403 1.396 . S
C3404 C3405 1.399 . S
C3405 H3391 0.929 . S
C3405 C3404 1.399 . S
C3405 C3406 1.385 . S
C3406 H3392 0.931 . S
C3406 C3405 1.385 . S
C3406 C3407 1.389 . S
C3407 C3406 1.389 . S
C3407 C3408 1.387 . S
C3408 H3393 0.930 . S
C3408 C3403 1.390 . S
C3408 C3407 1.387 . S
H3409 C3421 0.930 . S
H3410 C3423 0.930 . S
H3411 C3424 0.923 1_556 S
H3412 C3428 0.959 . S
H3413 C3428 0.959 . S
H3414 C3428 0.961 . S
H3415 C3429 0.960 . S
H3416 C3429 0.961 . S
H3417 C3429 0.959 . S
H3418 C3432 0.929 1_556 S
H3419 C3433 0.931 1_556 S
H3420 C3435 0.930 . S
C3421 H3409 0.930 . S
C3421 C3422 1.399 . S
C3421 C3426 1.399 . S
C3422 C3421 1.399 . S
C3422 C3423 1.376 . S
C3423 H3410 0.930 . S
C3423 C3422 1.376 . S
C3423 C3424 1.388 . S
C3424 H3411 0.923 1_554 S
C3424 C3423 1.388 . S
C3424 C3425 1.390 . S
C3425 C3424 1.390 . S
C3425 C3426 1.394 . S
C3425 C3431 1.465 . S
C3426 C3421 1.399 . S
C3426 C3425 1.394 . S
C3426 C3427 1.516 . S
C3427 C3426 1.516 . S
C3427 C3428 1.502 . S
C3427 C3429 1.561 . S
C3427 C3430 1.526 . S
C3428 H3412 0.959 . S
C3428 H3413 0.959 . S
C3428 H3414 0.961 . S
C3428 C3427 1.502 . S
C3429 H3415 0.960 . S
C3429 H3416 0.961 . S
C3429 H3417 0.959 . S
C3429 C3427 1.561 . S
C3430 C3427 1.526 . S
C3430 C3431 1.396 . S
C3430 C3435 1.390 . S
C3431 C3425 1.465 . S
C3431 C3430 1.396 . S
C3431 C3432 1.399 . S
C3432 H3418 0.929 1_554 S
C3432 C3431 1.399 . S
C3432 C3433 1.385 . S
C3433 H3419 0.931 1_554 S
C3433 C3432 1.385 . S
C3433 C3434 1.389 . S
C3434 C3433 1.389 . S
C3434 C3435 1.387 . S
C3435 H3420 0.930 . S
C3435 C3430 1.390 . S
C3435 C3434 1.387 . S
H3436 C3448 0.930 . S
H3437 C3450 0.930 . S
H3438 C3451 0.930 . S
H3439 C3455 0.959 . S
H3440 C3455 0.959 . S
H3441 C3455 0.961 . S
H3442 C3456 0.960 . S
H3443 C3456 0.961 . S
H3444 C3456 0.959 . S
H3445 C3459 0.929 . S
H3446 C3460 0.931 . S
H3447 C3462 0.930 . S
C3448 H3436 0.930 . S
C3448 C3449 1.399 . S
C3448 C3453 1.399 . S
C3449 C3448 1.399 . S
C3449 C3450 1.376 . S
C3450 H3437 0.930 . S
C3450 C3449 1.376 . S
C3450 C3451 1.388 . S
C3451 H3438 0.930 . S
C3451 C3450 1.388 . S
C3451 C3452 1.390 . S
C3452 C3451 1.390 . S
C3452 C3453 1.394 . S
C3452 C3458 1.465 . S
C3453 C3448 1.399 . S
C3453 C3452 1.394 . S
C3453 C3454 1.516 . S
C3454 C3453 1.516 . S
C3454 C3455 1.502 . S
C3454 C3456 1.561 . S
C3454 C3457 1.526 . S
C3455 H3439 0.959 . S
C3455 H3440 0.959 . S
C3455 H3441 0.961 . S
C3455 C3454 1.502 . S
C3456 H3442 0.960 . S
C3456 H3443 0.961 . S
C3456 H3444 0.959 . S
C3456 C3454 1.561 . S
C3457 C3454 1.526 . S
C3457 C3458 1.396 . S
C3457 C3462 1.390 . S
C3458 C3452 1.465 . S
C3458 C3457 1.396 . S
C3458 C3459 1.399 . S
C3459 H3445 0.929 . S
C3459 C3458 1.399 . S
C3459 C3460 1.385 . S
C3460 H3446 0.931 . S
C3460 C3459 1.385 . S
C3460 C3461 1.389 . S
C3461 C3460 1.389 . S
C3461 C3462 1.387 . S
C3462 H3447 0.930 . S
C3462 C3457 1.390 . S
C3462 C3461 1.387 . S
H3463 C3475 0.930 . S
H3464 C3477 0.930 . S
H3465 C3478 0.930 . S
H3466 C3482 0.959 . S
H3467 C3482 0.959 . S
H3468 C3482 0.961 . S
H3469 C3483 0.960 . S
H3470 C3483 0.961 . S
H3471 C3483 0.959 . S
H3472 C3486 0.929 . S
H3473 C3487 0.931 . S
H3474 C3489 0.930 . S
C3475 H3463 0.930 . S
C3475 C3476 1.399 . S
C3475 C3480 1.399 . S
C3476 C3475 1.399 . S
C3476 C3477 1.376 . S
C3477 H3464 0.930 . S
C3477 C3476 1.376 . S
C3477 C3478 1.388 . S
C3478 H3465 0.930 . S
C3478 C3477 1.388 . S
C3478 C3479 1.390 . S
C3479 C3478 1.390 . S
C3479 C3480 1.394 . S
C3479 C3485 1.465 . S
C3480 C3475 1.399 . S
C3480 C3479 1.394 . S
C3480 C3481 1.516 . S
C3481 C3480 1.516 . S
C3481 C3482 1.502 . S
C3481 C3483 1.561 1_554 S
C3481 C3484 1.526 . S
C3482 H3466 0.959 . S
C3482 H3467 0.959 . S
C3482 H3468 0.961 . S
C3482 C3481 1.502 . S
C3483 H3469 0.960 . S
C3483 H3470 0.961 . S
C3483 H3471 0.959 . S
C3483 C3481 1.561 1_556 S
C3484 C3481 1.526 . S
C3484 C3485 1.396 . S
C3484 C3489 1.390 . S
C3485 C3479 1.465 . S
C3485 C3484 1.396 . S
C3485 C3486 1.399 . S
C3486 H3472 0.929 . S
C3486 C3485 1.399 . S
C3486 C3487 1.385 . S
C3487 H3473 0.931 . S
C3487 C3486 1.385 . S
C3487 C3488 1.389 . S
C3488 C3487 1.389 . S
C3488 C3489 1.387 . S
C3489 H3474 0.930 . S
C3489 C3484 1.390 . S
C3489 C3488 1.387 . S
H3490 C3502 0.930 . S
H3491 C3504 0.930 . S
H3492 C3505 0.930 . S
H3493 C3509 0.959 . S
H3494 C3509 0.959 . S
H3495 C3509 0.961 . S
H3496 C3510 0.960 . S
H3497 C3510 0.961 . S
H3498 C3510 0.959 . S
H3499 C3513 0.929 . S
H3500 C3514 0.931 . S
H3501 C3516 0.930 . S
C3502 H3490 0.930 . S
C3502 C3503 1.399 . S
C3502 C3507 1.399 . S
C3503 C3502 1.399 . S
C3503 C3504 1.376 . S
C3504 H3491 0.930 . S
C3504 C3503 1.376 . S
C3504 C3505 1.388 . S
C3505 H3492 0.930 . S
C3505 C3504 1.388 . S
C3505 C3506 1.390 . S
C3506 C3505 1.390 . S
C3506 C3507 1.394 . S
C3506 C3512 1.465 . S
C3507 C3502 1.399 . S
C3507 C3506 1.394 . S
C3507 C3508 1.516 . S
C3508 C3507 1.516 . S
C3508 C3509 1.502 . S
C3508 C3510 1.561 . S
C3508 C3511 1.526 . S
C3509 H3493 0.959 . S
C3509 H3494 0.959 . S
C3509 H3495 0.961 . S
C3509 C3508 1.502 . S
C3510 H3496 0.960 . S
C3510 H3497 0.961 . S
C3510 H3498 0.959 . S
C3510 C3508 1.561 . S
C3511 C3508 1.526 . S
C3511 C3512 1.396 . S
C3511 C3516 1.390 . S
C3512 C3506 1.465 . S
C3512 C3511 1.396 . S
C3512 C3513 1.399 . S
C3513 H3499 0.929 . S
C3513 C3512 1.399 . S
C3513 C3514 1.385 . S
C3514 H3500 0.931 . S
C3514 C3513 1.385 . S
C3514 C3515 1.389 . S
C3515 C3514 1.389 . S
C3515 C3516 1.387 . S
C3516 H3501 0.930 . S
C3516 C3511 1.390 . S
C3516 C3515 1.387 . S
H3517 C3529 0.930 . S
H3518 C3531 0.930 . S
H3519 C3532 0.930 . S
H3520 C3536 0.959 . S
H3521 C3536 0.959 . S
H3522 C3536 0.961 . S
H3523 C3537 0.960 . S
H3524 C3537 0.961 . S
H3525 C3537 0.959 . S
H3526 C3540 0.929 . S
H3527 C3541 0.931 . S
H3528 C3543 0.930 . S
C3529 H3517 0.930 . S
C3529 C3530 1.399 . S
C3529 C3534 1.399 . S
C3530 C3529 1.399 . S
C3530 C3531 1.376 . S
C3531 H3518 0.930 . S
C3531 C3530 1.376 . S
C3531 C3532 1.388 . S
C3532 H3519 0.930 . S
C3532 C3531 1.388 . S
C3532 C3533 1.390 . S
C3533 C3532 1.390 . S
C3533 C3534 1.394 . S
C3533 C3539 1.465 . S
C3534 C3529 1.399 . S
C3534 C3533 1.394 . S
C3534 C3535 1.516 . S
C3535 C3534 1.516 . S
C3535 C3536 1.502 . S
C3535 C3537 1.561 . S
C3535 C3538 1.526 . S
C3536 H3520 0.959 . S
C3536 H3521 0.959 . S
C3536 H3522 0.961 . S
C3536 C3535 1.502 . S
C3537 H3523 0.960 . S
C3537 H3524 0.961 . S
C3537 H3525 0.959 . S
C3537 C3535 1.561 . S
C3538 C3535 1.526 . S
C3538 C3539 1.396 . S
C3538 C3543 1.390 . S
C3539 C3533 1.465 . S
C3539 C3538 1.396 . S
C3539 C3540 1.399 . S
C3540 H3526 0.929 . S
C3540 C3539 1.399 . S
C3540 C3541 1.385 . S
C3541 H3527 0.931 . S
C3541 C3540 1.385 . S
C3541 C3542 1.389 . S
C3542 C3541 1.389 . S
C3542 C3543 1.387 . S
C3543 H3528 0.930 . S
C3543 C3538 1.390 . S
C3543 C3542 1.387 . S
C965 C101 2.112 . S
C977 C325 2.088 . S
C992 C57 1.949 . S
C1004 C376 1.981 . S
C1019 C70 1.428 . S
C1031 C405 1.367 . S
C1058 C449 1.429 . S
C1046 C82 1.501 . S
C1073 C23 1.402 . S
C1085 C489 1.296 . S
C1112 C525 1.408 . S
C1100 C29 1.479 . S
C1139 C575 1.805 . S
C1127 C49 1.734 . S
C1154 C10 2.263 . S
C1166 C605 2.238 . S
C1193 C335 1.857 . S
C1181 C218 1.861 . S
C1208 C226 0.778 . S
C1220 C378 0.641 . S
C1247 C415 1.218 . S
C1235 C251 1.218 . S
C1274 C445 1.275 . S
C1262 C159 1.308 . S
C1289 C211 1.363 . S
C1301 C485 1.353 . S
C1328 C535 0.881 . S
C1316 C225 0.925 . S
C1355 C569 0.912 . S
C1343 C252 0.905 . S
C1382 C615 1.839 . S
C1370 C166 1.841 . S
C1409 C329 1.228 . S
C1397 C147 1.348 . S
C1424 C263 1.600 . S
C1436 C655 1.643 . S
C1463 C689 1.530 . S
C1451 C309 1.569 . S
C1490 C725 0.840 . S
C1478 C291 0.851 . S
C1505 C108 1.465 . S
C1517 C609 1.435 . S
C1532 C121 1.604 . S
C1544 C409 1.554 . S
C1559 C302 1.575 . S
C1571 C775 1.587 . S
C1598 C794 0.209 . S
C1586 C276 0.349 . S
C1625 C336 2.293 1_565 S
C1613 C55 2.313 . S
C1652 C805 2.316 . S
C1640 C96 2.288 . S
C1667 C88 1.796 . S
C1679 C416 1.788 . S
C1694 C75 1.638 . S
C1706 C778 1.554 . S
C1733 C498 1.428 . S
C1721 C4 1.513 . S
C1748 C44 1.838 . S
C1760 C696 1.826 . S
C1787 C554 2.077 1_566 S
C1775 C31 2.068 . S
C1814 C856 2.413 . S
C1802 C18 2.442 . S
C1841 C314 2.096 1_556 S
C1829 C133 2.124 . S
C1868 C809 0.787 . S
C1856 C296 0.713 . S
C1883 C107 1.435 . S
C1895 C394 1.452 . S
C1910 C264 1.641 . S
C1922 C776 1.635 . S
C1937 C140 1.706 . S
C1949 C496 1.709 . S
C1976 C674 1.136 . S
C1964 C289 1.132 . S
C1991 C114 0.983 . S
C2003 C578 1.002 1_565 S
C2018 C265 2.110 . S
C2030 C834 2.107 . S
C2045 C179 1.181 . S
C2057 C338 1.236 . S
C2072 C161 1.889 . S
C2084 C634 1.877 . S
C2099 C244 1.514 . S
C2111 C538 1.531 . S
C2126 C224 1.082 . S
C2138 C736 1.061 . S
C2165 C858 1.402 . S
C2153 C257 1.473 . S
C2180 C199 1.575 . S
C2192 C418 1.595 . S
C2219 C434 1.802 . S
C2207 C237 1.813 . S
C2246 C375 0.476 . S
C2234 C185 0.534 . S
C2261 C69 2.098 . S
C2273 C885 2.089 . S
C2300 C816 1.987 . S
C2288 C83 1.946 . S
C2315 C94 1.439 . S
C2327 C925 1.430 . S
C2342 C56 1.494 . S
C2354 C769 1.438 . S
C2369 C42 1.375 . S
C2381 C649 1.385 . S
C2408 C685 1.459 . S
C2396 C3 1.482 . S
C2435 C735 1.799 . S
C2423 C16 1.752 . S
C2462 C845 2.235 . S
C2450 C36 2.265 . S
C2489 C895 1.817 . S
C2477 C238 1.862 . S
C2504 C174 0.800 . S
C2516 C818 0.631 . S
C2543 C935 1.221 . S
C2531 C186 1.202 . S
C2570 C765 1.315 . S
C2558 C198 1.305 . S
C2597 C645 1.357 . S
C2585 C239 1.364 . S
C2612 C173 0.873 . S
C2624 C695 0.919 . S
C2651 C729 0.829 . S
C2639 C187 0.875 . S
C2666 C205 1.840 . S
C2678 C855 1.816 . S
C2705 C889 1.207 . S
C2693 C290 1.357 . S
C2720 C122 1.595 . S
C2732 C495 1.645 . S
C2759 C529 1.532 . S
C2747 C134 1.571 1_565 S
C2786 C565 0.860 . S
C2774 C148 0.801 1_554 S
C2813 C849 1.465 . S
C2801 C283 1.448 . S
C2828 C270 1.629 . S
C2840 C929 1.519 . S
C2867 C455 1.563 . S
C2855 C135 1.516 . S
C2894 C354 0.211 . S
C2882 C109 0.346 . S
C2909 C81 2.281 . S
C2921 C896 2.285 . S
C2948 C365 2.293 . S
C2936 C68 2.303 . S
C2963 C62 1.798 . S
C2975 C936 1.790 . S
C2990 C95 1.639 . S
C3002 C458 1.552 . S
C3017 C30 1.497 . S
C3029 C658 1.454 . S
C3056 C536 1.804 . S
C3044 C17 1.821 . S
C3071 C5 2.071 . S
C3083 C714 2.077 . S
C3098 C43 2.421 . S
C3110 C616 2.415 . S
C3137 C874 2.098 . S
C3125 C304 2.125 . S
C3152 C153 0.760 . S
C3164 C369 0.673 . S
C3191 C914 1.438 1_656 S
C3179 C278 1.470 . S
C3206 C127 1.646 . S
C3218 C456 1.632 . S
C3233 C303 1.704 . S
C3245 C656 1.687 . S
C3272 C514 1.083 . S
C3260 C146 1.120 . S
C3287 C277 0.994 . S
C3299 C738 0.945 . S
C3326 C594 2.079 . S
C3314 C120 2.118 . S
C3353 C898 1.188 . S
C3341 C231 1.197 . S
C3380 C474 1.916 1_565 S
C3368 C200 1.878 . S
C3395 C212 1.520 . S
C3407 C698 1.523 . S
C3434 C576 1.084 . S
C3422 C172 1.077 . S
C3449 C192 1.477 . S
C3461 C618 1.397 . S
C3476 C160 1.616 . S
C3488 C938 1.532 . S
C3515 C754 1.801 . S
C3503 C213 1.813 . S
C3542 C815 0.603 . S
C3530 C250 0.514 . S
