# Generated by pormake.
# Topology ocu, (6,8)-cn, num edge types: 1
# Building blocks:
#     Node 0, Type 0, BuildingBlock: BETDEL_clean_sbu_0, # of connection points: 6
#     Node 1, Type 0, BuildingBlock: BETDEL_clean_sbu_0, # of connection points: 6
#     Node 2, Type 0, BuildingBlock: BETDEL_clean_sbu_0, # of connection points: 6
#     Node 3, Type 0, BuildingBlock: BETDEL_clean_sbu_0, # of connection points: 6
#     Node 4, Type 0, BuildingBlock: BETDEL_clean_sbu_0, # of connection points: 6
#     Node 5, Type 0, BuildingBlock: BETDEL_clean_sbu_0, # of connection points: 6
#     Node 6, Type 0, BuildingBlock: BETDEL_clean_sbu_0, # of connection points: 6
#     Node 7, Type 0, BuildingBlock: BETDEL_clean_sbu_0, # of connection points: 6
#     Node 8, Type 1, BuildingBlock: TAGTUT_clean_sbu_1, # of connection points: 8
#     Node 9, Type 1, BuildingBlock: TAGTUT_clean_sbu_1, # of connection points: 8
#     Node 10, Type 1, BuildingBlock: TAGTUT_clean_sbu_1, # of connection points: 8
#     Node 11, Type 1, BuildingBlock: TAGTUT_clean_sbu_1, # of connection points: 8
#     Node 12, Type 1, BuildingBlock: TAGTUT_clean_sbu_1, # of connection points: 8
#     Node 13, Type 1, BuildingBlock: TAGTUT_clean_sbu_1, # of connection points: 8
#     Edge 14, Type (0, 1), None
#     Edge 15, Type (0, 1), None
#     Edge 16, Type (0, 1), None
#     Edge 17, Type (0, 1), None
#     Edge 18, Type (0, 1), None
#     Edge 19, Type (0, 1), None
#     Edge 20, Type (0, 1), None
#     Edge 21, Type (0, 1), None
#     Edge 22, Type (0, 1), None
#     Edge 23, Type (0, 1), None
#     Edge 24, Type (0, 1), None
#     Edge 25, Type (0, 1), None
#     Edge 26, Type (0, 1), None
#     Edge 27, Type (0, 1), None
#     Edge 28, Type (0, 1), None
#     Edge 29, Type (0, 1), None
#     Edge 30, Type (0, 1), None
#     Edge 31, Type (0, 1), None
#     Edge 32, Type (0, 1), None
#     Edge 33, Type (0, 1), None
#     Edge 34, Type (0, 1), None
#     Edge 35, Type (0, 1), None
#     Edge 36, Type (0, 1), None
#     Edge 37, Type (0, 1), None
#     Edge 38, Type (0, 1), None
#     Edge 39, Type (0, 1), None
#     Edge 40, Type (0, 1), None
#     Edge 41, Type (0, 1), None
#     Edge 42, Type (0, 1), None
#     Edge 43, Type (0, 1), None
#     Edge 44, Type (0, 1), None
#     Edge 45, Type (0, 1), None
#     Edge 46, Type (0, 1), None
#     Edge 47, Type (0, 1), None
#     Edge 48, Type (0, 1), None
#     Edge 49, Type (0, 1), None
#     Edge 50, Type (0, 1), None
#     Edge 51, Type (0, 1), None
#     Edge 52, Type (0, 1), None
#     Edge 53, Type (0, 1), None
#     Edge 54, Type (0, 1), None
#     Edge 55, Type (0, 1), None
#     Edge 56, Type (0, 1), None
#     Edge 57, Type (0, 1), None
#     Edge 58, Type (0, 1), None
#     Edge 59, Type (0, 1), None
#     Edge 60, Type (0, 1), None
#     Edge 61, Type (0, 1), None
# Relax obj value: 0.111
# Max RMSD: 0.271
# Mean RMSD: 0.137
data_MOF--net-ocu--node1-BETDEL_clean_sbu_0--node2-TAGTUT_clean_sbu_1--edge1-none
_symmetry_space_group_name_H-M    P1
_symmetry_Int_Tables_number       1
_symmetry_cell_setting            triclinic
loop_
_symmetry_equiv_pos_as_xyz
'x, y, z'
_cell_length_a     19.458292
_cell_length_b     19.960933
_cell_length_c     19.327906
_cell_angle_alpha  90.576122
_cell_angle_beta   95.222511
_cell_angle_gamma 117.68397
loop_
_atom_site_label
_atom_site_type_symbol
_atom_site_fract_x
_atom_site_fract_y
_atom_site_fract_z
_atom_type_partial_charge
Dy0 Dy 0.3258 0.24734 0.2809 0.0
C1 C 0.08597 0.26247 0.1474 0.0
C2 C 0.40775 0.17892 0.33085 0.0
Dy3 Dy 0.16787 0.19402 0.1974 0.0
O4 O 0.43098 0.25157 0.34304 0.0
O5 O 0.33813 0.14493 0.29856 0.0
O6 O 0.40606 0.34179 0.21852 0.0
O7 O 0.28684 0.27853 0.18395 0.0
C8 C 0.35222 0.32923 0.16728 0.0
C9 C 0.14143 0.11217 0.31105 0.0
O10 O 0.21348 0.13431 0.12403 0.0
O11 O 0.33203 0.17625 0.19169 0.0
O12 O 0.06273 0.18982 0.1352 0.0
O13 O 0.15556 0.29643 0.17974 0.0
O14 O 0.08759 0.09961 0.2598 0.0
O15 O 0.20681 0.16288 0.29439 0.0
O16 O 0.28022 0.30707 0.35425 0.0
O17 O 0.16169 0.26518 0.28657 0.0
C18 C 0.28403 0.13737 0.13609 0.0
C19 C 0.2097 0.30405 0.34216 0.0
Dy20 Dy 0.81017 0.19124 0.23822 0.0
C21 C 0.5881 0.29943 0.17313 0.0
C22 C 0.90544 0.1419 0.30506 0.0
Dy23 Dy 0.68364 0.2504 0.23996 0.0
O24 O 0.84197 0.09988 0.26458 0.0
O25 O 0.92166 0.21266 0.30163 0.0
O26 O 0.76699 0.143 0.12716 0.0
O27 O 0.6938 0.15773 0.19263 0.0
C28 C 0.70105 0.14487 0.1306 0.0
C29 C 0.79288 0.2968 0.34752 0.0
O30 O 0.62256 0.14805 0.30029 0.0
O31 O 0.73113 0.12671 0.31879 0.0
O32 O 0.65151 0.34155 0.21364 0.0
O33 O 0.5721 0.22872 0.1765 0.0
O34 O 0.72698 0.29873 0.35107 0.0
O35 O 0.79982 0.28382 0.28545 0.0
O36 O 0.87143 0.2936 0.17803 0.0
O37 O 0.76289 0.31498 0.15948 0.0
C38 C 0.65938 0.11218 0.33013 0.0
C39 C 0.83466 0.32948 0.14815 0.0
Dy40 Dy 0.67782 0.69345 0.28622 0.0
C41 C 0.87402 0.70071 0.09557 0.0
C42 C 0.61963 0.74064 0.38266 0.0
Dy43 Dy 0.81595 0.74795 0.19208 0.0
O44 O 0.5829 0.67151 0.35399 0.0
O45 O 0.68787 0.77944 0.36247 0.0
O46 O 0.59262 0.61381 0.20009 0.0
O47 O 0.71223 0.64636 0.20524 0.0
C48 C 0.64816 0.61343 0.16704 0.0
C49 C 0.84537 0.8281 0.31129 0.0
O50 O 0.74158 0.79655 0.13581 0.0
O51 O 0.63883 0.75545 0.20601 0.0
O52 O 0.9108 0.76983 0.12427 0.0
O53 O 0.8058 0.66192 0.11579 0.0
O54 O 0.90101 0.82781 0.27832 0.0
O55 O 0.78146 0.7949 0.27292 0.0
O56 O 0.75215 0.64476 0.34243 0.0
O57 O 0.85497 0.68598 0.2723 0.0
C58 C 0.67293 0.7906 0.15098 0.0
C59 C 0.82082 0.65074 0.32728 0.0
Dy60 Dy 0.29896 0.68802 0.23649 0.0
C61 C 0.14245 0.82208 0.32187 0.0
C62 C 0.35067 0.61937 0.15621 0.0
Dy63 Dy 0.19416 0.75338 0.24176 0.0
O64 O 0.3962 0.6721 0.20366 0.0
O65 O 0.27758 0.59737 0.15967 0.0
O66 O 0.34953 0.72488 0.34721 0.0
O67 O 0.3136 0.79223 0.28543 0.0
C68 C 0.339 0.78512 0.34607 0.0
C69 C 0.1543 0.65633 0.13214 0.0
O70 O 0.27197 0.83731 0.17476 0.0
O71 O 0.34965 0.77928 0.16286 0.0
O72 O 0.09689 0.76928 0.2745 0.0
O73 O 0.21555 0.84414 0.31839 0.0
O74 O 0.14389 0.71664 0.1309 0.0
O75 O 0.1794 0.6492 0.19288 0.0
O76 O 0.22139 0.60411 0.30357 0.0
O77 O 0.14374 0.66216 0.31556 0.0
C78 C 0.33025 0.83284 0.14879 0.0
C79 C 0.16319 0.60862 0.32964 0.0
Dy80 Dy 0.31017 0.69124 0.73822 0.0
C81 C 0.0881 0.79943 0.67313 0.0
C82 C 0.40544 0.6419 0.80506 0.0
Dy83 Dy 0.18364 0.7504 0.73996 0.0
O84 O 0.34197 0.59988 0.76458 0.0
O85 O 0.42166 0.71266 0.80163 0.0
O86 O 0.26699 0.643 0.62716 0.0
O87 O 0.1938 0.65773 0.69263 0.0
C88 C 0.20105 0.64487 0.6306 0.0
C89 C 0.29288 0.7968 0.84752 0.0
O90 O 0.12256 0.64805 0.80029 0.0
O91 O 0.23113 0.62671 0.81879 0.0
O92 O 0.15151 0.84155 0.71364 0.0
O93 O 0.0721 0.72872 0.6765 0.0
O94 O 0.22698 0.79873 0.85107 0.0
O95 O 0.29982 0.78382 0.78545 0.0
O96 O 0.37143 0.7936 0.67803 0.0
O97 O 0.26289 0.81498 0.65948 0.0
C98 C 0.15938 0.61218 0.83013 0.0
C99 C 0.33466 0.82948 0.64815 0.0
Dy100 Dy 0.17782 0.19345 0.78622 0.0
C101 C 0.37402 0.20071 0.59557 0.0
C102 C 0.11963 0.24064 0.88266 0.0
Dy103 Dy 0.31595 0.24795 0.69208 0.0
O104 O 0.0829 0.17151 0.85399 0.0
O105 O 0.18787 0.27944 0.86247 0.0
O106 O 0.09262 0.11381 0.70009 0.0
O107 O 0.21223 0.14636 0.70524 0.0
C108 C 0.14816 0.11343 0.66704 0.0
C109 C 0.34537 0.3281 0.81129 0.0
O110 O 0.24158 0.29655 0.63581 0.0
O111 O 0.13883 0.25545 0.70601 0.0
O112 O 0.4108 0.26983 0.62427 0.0
O113 O 0.3058 0.16192 0.61579 0.0
O114 O 0.40101 0.32781 0.77832 0.0
O115 O 0.28146 0.2949 0.77292 0.0
O116 O 0.25215 0.14476 0.84243 0.0
O117 O 0.35497 0.18598 0.7723 0.0
C118 C 0.17293 0.2906 0.65098 0.0
C119 C 0.32082 0.15074 0.82728 0.0
Dy120 Dy 0.79896 0.18802 0.73649 0.0
C121 C 0.64245 0.32208 0.82187 0.0
C122 C 0.85067 0.11937 0.65621 0.0
Dy123 Dy 0.69416 0.25338 0.74176 0.0
O124 O 0.8962 0.1721 0.70366 0.0
O125 O 0.77758 0.09737 0.65967 0.0
O126 O 0.84953 0.22488 0.84721 0.0
O127 O 0.8136 0.29223 0.78543 0.0
C128 C 0.839 0.28512 0.84607 0.0
C129 C 0.6543 0.15633 0.63214 0.0
O130 O 0.77197 0.33731 0.67476 0.0
O131 O 0.84965 0.27928 0.66286 0.0
O132 O 0.59689 0.26928 0.7745 0.0
O133 O 0.71555 0.34414 0.81839 0.0
O134 O 0.64389 0.21664 0.6309 0.0
O135 O 0.6794 0.1492 0.69288 0.0
O136 O 0.72139 0.10411 0.80357 0.0
O137 O 0.64374 0.16216 0.81556 0.0
C138 C 0.83025 0.33284 0.64879 0.0
C139 C 0.66319 0.10862 0.82964 0.0
Dy140 Dy 0.8258 0.74734 0.7809 0.0
C141 C 0.58597 0.76247 0.6474 0.0
C142 C 0.90775 0.67892 0.83085 0.0
Dy143 Dy 0.66787 0.69402 0.6974 0.0
O144 O 0.93098 0.75157 0.84304 0.0
O145 O 0.83813 0.64493 0.79856 0.0
O146 O 0.90606 0.84179 0.71852 0.0
O147 O 0.78684 0.77853 0.68395 0.0
C148 C 0.85222 0.82923 0.66728 0.0
C149 C 0.64143 0.61217 0.81105 0.0
O150 O 0.71348 0.63431 0.62403 0.0
O151 O 0.83203 0.67625 0.69169 0.0
O152 O 0.56273 0.68982 0.6352 0.0
O153 O 0.65556 0.79643 0.67974 0.0
O154 O 0.58759 0.59961 0.7598 0.0
O155 O 0.70681 0.66288 0.79439 0.0
O156 O 0.78022 0.80707 0.85425 0.0
O157 O 0.66169 0.76518 0.78657 0.0
C158 C 0.78403 0.63737 0.63609 0.0
C159 C 0.7097 0.80405 0.84216 0.0
C160 C 0.87713 0.10239 0.59581 0.0
C161 C 0.92489 0.11333 0.3692 0.0
C162 C 0.85307 0.83768 0.3877 0.0
Mg163 Mg 0.01464 0.13386 0.51288 0.0
O164 O 0.9545 0.03036 0.52381 0.0
Mg165 Mg 0.84543 -0.02954 0.47881 0.0
Mg166 Mg -0.00317 -0.02926 0.4892 0.0
O167 O 0.039 0.91104 0.45455 0.0
Mg168 Mg 0.97867 0.8075 0.4654 0.0
Mg169 Mg 0.14807 -0.02916 0.49945 0.0
C170 C 0.1403 0.10371 0.59066 0.0
C171 C 0.12424 0.07312 0.37824 0.0
O172 O 0.82824 0.0459 0.555 0.0
O173 O 0.94794 0.14568 0.58606 0.0
O174 O 0.87113 0.05285 0.39038 0.0
O175 O 0.98816 0.15473 0.40733 0.0
O176 O 0.12941 0.15388 0.55795 0.0
O177 O 0.10518 0.03498 0.56711 0.0
C178 C 0.86939 0.86829 0.60009 0.0
O179 O 0.93721 0.89095 0.5793 0.0
O180 O 0.82048 0.88606 0.56787 0.0
O181 O 0.16503 0.8954 0.42317 0.0
O182 O 0.04526 0.79573 0.39211 0.0
O183 O 0.12234 0.88842 0.58779 0.0
C184 C 0.11605 0.839 0.38232 0.0
O185 O 0.00527 0.78657 0.57091 0.0
O186 O 0.86383 0.78736 0.42027 0.0
C187 C 0.06859 0.82795 0.609 0.0
O188 O 0.88858 0.90637 0.41138 0.0
O189 O 0.05643 0.05051 0.39905 0.0
O190 O 0.1731 0.0553 0.41045 0.0
C191 C 0.32069 0.10693 0.08562 0.0
C192 C 0.36095 0.1174 0.87548 0.0
C193 C 0.36013 0.8292 0.90017 0.0
Mg194 Mg 0.4755 0.13739 0.01752 0.0
O195 O 0.43884 0.0336 0.00884 0.0
Mg196 Mg 0.32471 -0.02969 0.97308 0.0
Mg197 Mg 0.49688 -0.02931 -0.01069 0.0
O198 O 0.55485 0.90774 0.96968 0.0
Mg199 Mg 0.51823 0.80395 0.96074 0.0
Mg200 Mg 0.66898 -0.02896 0.00526 0.0
C201 C 0.63385 0.11228 0.07788 0.0
C202 C 0.62847 0.05937 0.88412 0.0
O203 O 0.28174 0.04652 0.04434 0.0
O204 O 0.39558 0.14296 0.08876 0.0
O205 O 0.32439 0.04608 0.88303 0.0
O206 O 0.42244 0.16108 0.91674 0.0
O207 O 0.59374 0.14918 0.06677 0.0
O208 O 0.6082 0.04233 0.05762 0.0
C209 C 0.36512 0.88212 0.09439 0.0
O210 O 0.43322 0.8974 0.07801 0.0
O211 O 0.32078 0.9041 0.06144 0.0
O212 O 0.71196 0.89494 0.93386 0.0
O213 O 0.59816 0.7984 0.88954 0.0
O214 O 0.66939 0.89521 0.09518 0.0
C215 C 0.67304 0.83449 0.89263 0.0
O216 O 0.57126 0.78022 0.06153 0.0
O217 O 0.40016 0.79221 0.91112 0.0
C218 C 0.63279 0.8239 0.10276 0.0
O219 O 0.38564 0.89891 0.92119 0.0
O220 O 0.56038 0.044 0.90057 0.0
O221 O 0.67285 0.03739 0.91698 0.0
C222 C 0.90725 0.66272 0.05799 0.0
C223 C 0.9393 0.636 0.8683 0.0
C224 C 0.84446 0.33008 0.91002 0.0
Mg225 Mg 0.03593 0.64707 -0.00254 0.0
O226 O 0.96801 0.54577 0.02133 0.0
Mg227 Mg 0.86039 0.49373 0.97516 0.0
Mg228 Mg -0.00285 0.47087 -0.01082 0.0
O229 O 0.02608 0.39592 0.95699 0.0
Mg230 Mg 0.95795 0.29464 0.98077 0.0
Mg231 Mg 0.13369 0.44769 0.00304 0.0
C232 C 0.14909 0.61147 0.06825 0.0
C233 C 0.12324 0.55677 0.8823 0.0
O234 O 0.86022 0.59371 0.03551 0.0
O235 O 0.98107 0.69561 0.05461 0.0
O236 O 0.88793 0.57378 0.88848 0.0
O237 O 0.00823 0.67119 0.89779 0.0
O238 O 0.14485 0.64342 0.01298 0.0
O239 O 0.11371 0.53809 0.06695 0.0
C240 C 0.87085 0.38485 0.09597 0.0
O241 O 0.93662 0.39694 0.07731 0.0
O242 O 0.83204 0.41549 0.06603 0.0
O243 O 0.13352 0.34765 0.94264 0.0
O244 O 0.01261 0.24585 0.92362 0.0
O245 O 0.10601 0.36758 0.08965 0.0
C246 C 0.08642 0.27866 0.9202 0.0
O247 O 0.9856 0.27036 0.08042 0.0
O248 O 0.84876 0.29791 0.96514 0.0
C249 C 0.05455 0.30544 0.10987 0.0
O250 O 0.88088 0.40346 0.91139 0.0
O251 O 0.05753 0.54473 0.90104 0.0
O252 O 0.16204 0.52605 0.91215 0.0
C253 C 0.37713 0.60239 0.09581 0.0
C254 C 0.42489 0.61333 0.8692 0.0
C255 C 0.35307 0.33768 0.8877 0.0
Mg256 Mg 0.51464 0.63386 0.01288 0.0
O257 O 0.4545 0.53036 0.02381 0.0
Mg258 Mg 0.34543 0.47046 0.97881 0.0
Mg259 Mg 0.49683 0.47074 -0.0108 0.0
O260 O 0.539 0.41104 0.95455 0.0
Mg261 Mg 0.47867 0.3075 0.9654 0.0
Mg262 Mg 0.64807 0.47084 -0.00055 0.0
C263 C 0.6403 0.60371 0.09066 0.0
C264 C 0.62424 0.57312 0.87824 0.0
O265 O 0.32824 0.5459 0.055 0.0
O266 O 0.44794 0.64568 0.08606 0.0
O267 O 0.37113 0.55285 0.89038 0.0
O268 O 0.48816 0.65473 0.90733 0.0
O269 O 0.62941 0.65388 0.05795 0.0
O270 O 0.60518 0.53498 0.06711 0.0
C271 C 0.36939 0.36829 0.10009 0.0
O272 O 0.43721 0.39095 0.0793 0.0
O273 O 0.32048 0.38606 0.06787 0.0
O274 O 0.66503 0.3954 0.92317 0.0
O275 O 0.54526 0.29573 0.89211 0.0
O276 O 0.62234 0.38842 0.08779 0.0
C277 C 0.61605 0.339 0.88232 0.0
O278 O 0.50527 0.28657 0.07091 0.0
O279 O 0.36383 0.28736 0.92027 0.0
C280 C 0.56859 0.32795 0.109 0.0
O281 O 0.38858 0.40637 0.91138 0.0
O282 O 0.55643 0.55051 0.89905 0.0
O283 O 0.6731 0.5553 0.91045 0.0
C284 C 0.82069 0.60693 0.58562 0.0
C285 C 0.86095 0.6174 0.37548 0.0
C286 C 0.86013 0.3292 0.40017 0.0
Mg287 Mg 0.9755 0.63739 0.51752 0.0
O288 O 0.93884 0.5336 0.50884 0.0
Mg289 Mg 0.82471 0.47031 0.47308 0.0
Mg290 Mg -0.00312 0.47069 0.48931 0.0
O291 O 0.05485 0.40774 0.46968 0.0
Mg292 Mg 0.01823 0.30395 0.46074 0.0
Mg293 Mg 0.16898 0.47104 0.50526 0.0
C294 C 0.13385 0.61228 0.57788 0.0
C295 C 0.12847 0.55937 0.38412 0.0
O296 O 0.78174 0.54652 0.54434 0.0
O297 O 0.89558 0.64296 0.58876 0.0
O298 O 0.82439 0.54608 0.38303 0.0
O299 O 0.92244 0.66108 0.41674 0.0
O300 O 0.09374 0.64918 0.56677 0.0
O301 O 0.1082 0.54233 0.55762 0.0
C302 C 0.86512 0.38212 0.59439 0.0
O303 O 0.93322 0.3974 0.57801 0.0
O304 O 0.82078 0.4041 0.56144 0.0
O305 O 0.21196 0.39494 0.43386 0.0
O306 O 0.09816 0.2984 0.38954 0.0
O307 O 0.16939 0.39521 0.59518 0.0
C308 C 0.17304 0.33449 0.39263 0.0
O309 O 0.07126 0.28022 0.56153 0.0
O310 O 0.90016 0.29221 0.41112 0.0
C311 C 0.13279 0.3239 0.60276 0.0
O312 O 0.88564 0.39891 0.42119 0.0
O313 O 0.06038 0.544 0.40057 0.0
O314 O 0.17285 0.53739 0.41698 0.0
C315 C 0.40725 0.16272 0.55799 0.0
C316 C 0.4393 0.136 0.3683 0.0
C317 C 0.34446 0.83008 0.41002 0.0
Mg318 Mg 0.53593 0.14707 0.49746 0.0
O319 O 0.46801 0.04577 0.52133 0.0
Mg320 Mg 0.36039 -0.00627 0.47516 0.0
Mg321 Mg 0.49715 -0.02913 0.48918 0.0
O322 O 0.52608 0.89592 0.45699 0.0
Mg323 Mg 0.45795 0.79464 0.48077 0.0
Mg324 Mg 0.63369 0.94769 0.50304 0.0
C325 C 0.64909 0.11147 0.56825 0.0
C326 C 0.62324 0.05677 0.3823 0.0
O327 O 0.36022 0.09371 0.53551 0.0
O328 O 0.48107 0.19561 0.55461 0.0
O329 O 0.38793 0.07378 0.38848 0.0
O330 O 0.50823 0.17119 0.39779 0.0
O331 O 0.64485 0.14342 0.51298 0.0
O332 O 0.61371 0.03809 0.56695 0.0
C333 C 0.37085 0.88485 0.59597 0.0
O334 O 0.43662 0.89694 0.57731 0.0
O335 O 0.33204 0.91549 0.56603 0.0
O336 O 0.63352 0.84765 0.44264 0.0
O337 O 0.51261 0.74585 0.42362 0.0
O338 O 0.60601 0.86758 0.58965 0.0
C339 C 0.58642 0.77866 0.4202 0.0
O340 O 0.4856 0.77036 0.58042 0.0
O341 O 0.34876 0.79791 0.46514 0.0
C342 C 0.55455 0.80544 0.60987 0.0
O343 O 0.38088 0.90346 0.41139 0.0
O344 O 0.55753 0.04473 0.40104 0.0
O345 O 0.66204 0.02605 0.41215 0.0
loop_
_geom_bond_atom_site_label_1
_geom_bond_atom_site_label_2
_geom_bond_distance
_geom_bond_site_symmetry_2
_ccdc_geom_bond_type
Dy0 O4 2.398 . S
Dy0 O5 2.491 . S
Dy0 O6 2.403 . S
Dy0 O7 2.664 . S
Dy0 O11 2.326 . S
Dy0 O15 2.310 . S
Dy0 O16 2.351 . S
C1 O12 1.185 . S
C1 O13 1.355 . S
C2 O4 1.185 . S
C2 O5 1.355 . S
Dy3 O7 2.310 . S
Dy3 O10 2.351 . S
Dy3 O12 2.398 . S
Dy3 O13 2.491 . S
Dy3 O14 2.403 . S
Dy3 O15 2.664 . S
Dy3 O17 2.326 . S
O4 Dy0 2.398 . S
O4 C2 1.185 . S
O5 Dy0 2.491 . S
O5 C2 1.355 . S
O6 Dy0 2.403 . S
O6 C8 1.254 . S
O7 Dy0 2.664 . S
O7 Dy3 2.310 . S
O7 C8 1.268 . S
C8 O6 1.254 . S
C8 O7 1.268 . S
C9 O14 1.254 . S
C9 O15 1.268 . S
O10 Dy3 2.351 . S
O10 C18 1.249 . S
O11 Dy0 2.326 . S
O11 C18 1.267 . S
O12 C1 1.185 . S
O12 Dy3 2.398 . S
O13 C1 1.355 . S
O13 Dy3 2.491 . S
O14 Dy3 2.403 . S
O14 C9 1.254 . S
O15 Dy0 2.310 . S
O15 Dy3 2.664 . S
O15 C9 1.268 . S
O16 Dy0 2.351 . S
O16 C19 1.249 . S
O17 Dy3 2.326 . S
O17 C19 1.267 . S
C18 O10 1.249 . S
C18 O11 1.267 . S
C19 O16 1.249 . S
C19 O17 1.267 . S
Dy20 O24 2.398 . S
Dy20 O25 2.491 . S
Dy20 O26 2.403 . S
Dy20 O27 2.664 . S
Dy20 O31 2.326 . S
Dy20 O35 2.310 . S
Dy20 O36 2.351 . S
C21 O32 1.185 . S
C21 O33 1.355 . S
C22 O24 1.185 . S
C22 O25 1.355 . S
Dy23 O27 2.310 . S
Dy23 O30 2.351 . S
Dy23 O32 2.398 . S
Dy23 O33 2.491 . S
Dy23 O34 2.403 . S
Dy23 O35 2.664 . S
Dy23 O37 2.326 . S
O24 Dy20 2.398 . S
O24 C22 1.185 . S
O25 Dy20 2.491 . S
O25 C22 1.355 . S
O26 Dy20 2.403 . S
O26 C28 1.254 . S
O27 Dy20 2.664 . S
O27 Dy23 2.310 . S
O27 C28 1.268 . S
C28 O26 1.254 . S
C28 O27 1.268 . S
C29 O34 1.254 . S
C29 O35 1.268 . S
O30 Dy23 2.351 . S
O30 C38 1.249 . S
O31 Dy20 2.326 . S
O31 C38 1.267 . S
O32 C21 1.185 . S
O32 Dy23 2.398 . S
O33 C21 1.355 . S
O33 Dy23 2.491 . S
O34 Dy23 2.403 . S
O34 C29 1.254 . S
O35 Dy20 2.310 . S
O35 Dy23 2.664 . S
O35 C29 1.268 . S
O36 Dy20 2.351 . S
O36 C39 1.249 . S
O37 Dy23 2.326 . S
O37 C39 1.267 . S
C38 O30 1.249 . S
C38 O31 1.267 . S
C39 O36 1.249 . S
C39 O37 1.267 . S
Dy40 O44 2.398 . S
Dy40 O45 2.491 . S
Dy40 O46 2.403 . S
Dy40 O47 2.664 . S
Dy40 O51 2.326 . S
Dy40 O55 2.310 . S
Dy40 O56 2.351 . S
C41 O52 1.185 . S
C41 O53 1.355 . S
C42 O44 1.185 . S
C42 O45 1.355 . S
Dy43 O47 2.310 . S
Dy43 O50 2.351 . S
Dy43 O52 2.398 . S
Dy43 O53 2.491 . S
Dy43 O54 2.403 . S
Dy43 O55 2.664 . S
Dy43 O57 2.326 . S
O44 Dy40 2.398 . S
O44 C42 1.185 . S
O45 Dy40 2.491 . S
O45 C42 1.355 . S
O46 Dy40 2.403 . S
O46 C48 1.254 . S
O47 Dy40 2.664 . S
O47 Dy43 2.310 . S
O47 C48 1.268 . S
C48 O46 1.254 . S
C48 O47 1.268 . S
C49 O54 1.254 . S
C49 O55 1.268 . S
O50 Dy43 2.351 . S
O50 C58 1.249 . S
O51 Dy40 2.326 . S
O51 C58 1.267 . S
O52 C41 1.185 . S
O52 Dy43 2.398 . S
O53 C41 1.355 . S
O53 Dy43 2.491 . S
O54 Dy43 2.403 . S
O54 C49 1.254 . S
O55 Dy40 2.310 . S
O55 Dy43 2.664 . S
O55 C49 1.268 . S
O56 Dy40 2.351 . S
O56 C59 1.249 . S
O57 Dy43 2.326 . S
O57 C59 1.267 . S
C58 O50 1.249 . S
C58 O51 1.267 . S
C59 O56 1.249 . S
C59 O57 1.267 . S
Dy60 O64 2.398 . S
Dy60 O65 2.491 . S
Dy60 O66 2.403 . S
Dy60 O67 2.664 . S
Dy60 O71 2.326 . S
Dy60 O75 2.310 . S
Dy60 O76 2.351 . S
C61 O72 1.185 . S
C61 O73 1.355 . S
C62 O64 1.185 . S
C62 O65 1.355 . S
Dy63 O67 2.310 . S
Dy63 O70 2.351 . S
Dy63 O72 2.398 . S
Dy63 O73 2.491 . S
Dy63 O74 2.403 . S
Dy63 O75 2.664 . S
Dy63 O77 2.326 . S
O64 Dy60 2.398 . S
O64 C62 1.185 . S
O65 Dy60 2.491 . S
O65 C62 1.355 . S
O66 Dy60 2.403 . S
O66 C68 1.254 . S
O67 Dy60 2.664 . S
O67 Dy63 2.310 . S
O67 C68 1.268 . S
C68 O66 1.254 . S
C68 O67 1.268 . S
C69 O74 1.254 . S
C69 O75 1.268 . S
O70 Dy63 2.351 . S
O70 C78 1.249 . S
O71 Dy60 2.326 . S
O71 C78 1.267 . S
O72 C61 1.185 . S
O72 Dy63 2.398 . S
O73 C61 1.355 . S
O73 Dy63 2.491 . S
O74 Dy63 2.403 . S
O74 C69 1.254 . S
O75 Dy60 2.310 . S
O75 Dy63 2.664 . S
O75 C69 1.268 . S
O76 Dy60 2.351 . S
O76 C79 1.249 . S
O77 Dy63 2.326 . S
O77 C79 1.267 . S
C78 O70 1.249 . S
C78 O71 1.267 . S
C79 O76 1.249 . S
C79 O77 1.267 . S
Dy80 O84 2.398 . S
Dy80 O85 2.491 . S
Dy80 O86 2.403 . S
Dy80 O87 2.664 . S
Dy80 O91 2.326 . S
Dy80 O95 2.310 . S
Dy80 O96 2.351 . S
C81 O92 1.185 . S
C81 O93 1.355 . S
C82 O84 1.185 . S
C82 O85 1.355 . S
Dy83 O87 2.310 . S
Dy83 O90 2.351 . S
Dy83 O92 2.398 . S
Dy83 O93 2.491 . S
Dy83 O94 2.403 . S
Dy83 O95 2.664 . S
Dy83 O97 2.326 . S
O84 Dy80 2.398 . S
O84 C82 1.185 . S
O85 Dy80 2.491 . S
O85 C82 1.355 . S
O86 Dy80 2.403 . S
O86 C88 1.254 . S
O87 Dy80 2.664 . S
O87 Dy83 2.310 . S
O87 C88 1.268 . S
C88 O86 1.254 . S
C88 O87 1.268 . S
C89 O94 1.254 . S
C89 O95 1.268 . S
O90 Dy83 2.351 . S
O90 C98 1.249 . S
O91 Dy80 2.326 . S
O91 C98 1.267 . S
O92 C81 1.185 . S
O92 Dy83 2.398 . S
O93 C81 1.355 . S
O93 Dy83 2.491 . S
O94 Dy83 2.403 . S
O94 C89 1.254 . S
O95 Dy80 2.310 . S
O95 Dy83 2.664 . S
O95 C89 1.268 . S
O96 Dy80 2.351 . S
O96 C99 1.249 . S
O97 Dy83 2.326 . S
O97 C99 1.267 . S
C98 O90 1.249 . S
C98 O91 1.267 . S
C99 O96 1.249 . S
C99 O97 1.267 . S
Dy100 O104 2.398 . S
Dy100 O105 2.491 . S
Dy100 O106 2.403 . S
Dy100 O107 2.664 . S
Dy100 O111 2.326 . S
Dy100 O115 2.310 . S
Dy100 O116 2.351 . S
C101 O112 1.185 . S
C101 O113 1.355 . S
C102 O104 1.185 . S
C102 O105 1.355 . S
Dy103 O107 2.310 . S
Dy103 O110 2.351 . S
Dy103 O112 2.398 . S
Dy103 O113 2.491 . S
Dy103 O114 2.403 . S
Dy103 O115 2.664 . S
Dy103 O117 2.326 . S
O104 Dy100 2.398 . S
O104 C102 1.185 . S
O105 Dy100 2.491 . S
O105 C102 1.355 . S
O106 Dy100 2.403 . S
O106 C108 1.254 . S
O107 Dy100 2.664 . S
O107 Dy103 2.310 . S
O107 C108 1.268 . S
C108 O106 1.254 . S
C108 O107 1.268 . S
C109 O114 1.254 . S
C109 O115 1.268 . S
O110 Dy103 2.351 . S
O110 C118 1.249 . S
O111 Dy100 2.326 . S
O111 C118 1.267 . S
O112 C101 1.185 . S
O112 Dy103 2.398 . S
O113 C101 1.355 . S
O113 Dy103 2.491 . S
O114 Dy103 2.403 . S
O114 C109 1.254 . S
O115 Dy100 2.310 . S
O115 Dy103 2.664 . S
O115 C109 1.268 . S
O116 Dy100 2.351 . S
O116 C119 1.249 . S
O117 Dy103 2.326 . S
O117 C119 1.267 . S
C118 O110 1.249 . S
C118 O111 1.267 . S
C119 O116 1.249 . S
C119 O117 1.267 . S
Dy120 O124 2.398 . S
Dy120 O125 2.491 . S
Dy120 O126 2.403 . S
Dy120 O127 2.664 . S
Dy120 O131 2.326 . S
Dy120 O135 2.310 . S
Dy120 O136 2.351 . S
C121 O132 1.185 . S
C121 O133 1.355 . S
C122 O124 1.185 . S
C122 O125 1.355 . S
Dy123 O127 2.310 . S
Dy123 O130 2.351 . S
Dy123 O132 2.398 . S
Dy123 O133 2.491 . S
Dy123 O134 2.403 . S
Dy123 O135 2.664 . S
Dy123 O137 2.326 . S
O124 Dy120 2.398 . S
O124 C122 1.185 . S
O125 Dy120 2.491 . S
O125 C122 1.355 . S
O126 Dy120 2.403 . S
O126 C128 1.254 . S
O127 Dy120 2.664 . S
O127 Dy123 2.310 . S
O127 C128 1.268 . S
C128 O126 1.254 . S
C128 O127 1.268 . S
C129 O134 1.254 . S
C129 O135 1.268 . S
O130 Dy123 2.351 . S
O130 C138 1.249 . S
O131 Dy120 2.326 . S
O131 C138 1.267 . S
O132 C121 1.185 . S
O132 Dy123 2.398 . S
O133 C121 1.355 . S
O133 Dy123 2.491 . S
O134 Dy123 2.403 . S
O134 C129 1.254 . S
O135 Dy120 2.310 . S
O135 Dy123 2.664 . S
O135 C129 1.268 . S
O136 Dy120 2.351 . S
O136 C139 1.249 . S
O137 Dy123 2.326 . S
O137 C139 1.267 . S
C138 O130 1.249 . S
C138 O131 1.267 . S
C139 O136 1.249 . S
C139 O137 1.267 . S
Dy140 O144 2.398 . S
Dy140 O145 2.491 . S
Dy140 O146 2.403 . S
Dy140 O147 2.664 . S
Dy140 O151 2.326 . S
Dy140 O155 2.310 . S
Dy140 O156 2.351 . S
C141 O152 1.185 . S
C141 O153 1.355 . S
C142 O144 1.185 . S
C142 O145 1.355 . S
Dy143 O147 2.310 . S
Dy143 O150 2.351 . S
Dy143 O152 2.398 . S
Dy143 O153 2.491 . S
Dy143 O154 2.403 . S
Dy143 O155 2.664 . S
Dy143 O157 2.326 . S
O144 Dy140 2.398 . S
O144 C142 1.185 . S
O145 Dy140 2.491 . S
O145 C142 1.355 . S
O146 Dy140 2.403 . S
O146 C148 1.254 . S
O147 Dy140 2.664 . S
O147 Dy143 2.310 . S
O147 C148 1.268 . S
C148 O146 1.254 . S
C148 O147 1.268 . S
C149 O154 1.254 . S
C149 O155 1.268 . S
O150 Dy143 2.351 . S
O150 C158 1.249 . S
O151 Dy140 2.326 . S
O151 C158 1.267 . S
O152 C141 1.185 . S
O152 Dy143 2.398 . S
O153 C141 1.355 . S
O153 Dy143 2.491 . S
O154 Dy143 2.403 . S
O154 C149 1.254 . S
O155 Dy140 2.310 . S
O155 Dy143 2.664 . S
O155 C149 1.268 . S
O156 Dy140 2.351 . S
O156 C159 1.249 . S
O157 Dy143 2.326 . S
O157 C159 1.267 . S
C158 O150 1.249 . S
C158 O151 1.267 . S
C159 O156 1.249 . S
C159 O157 1.267 . S
C160 O172 1.241 . S
C160 O173 1.280 . S
C161 O174 1.277 . S
C161 O175 1.245 . S
C162 O186 1.247 . S
C162 O188 1.289 . S
Mg163 O164 1.928 1_455 S
Mg163 O173 1.972 1_455 S
Mg163 O175 1.982 1_455 S
Mg163 O176 2.075 . S
O164 Mg163 1.928 1_655 S
O164 Mg165 1.986 1_545 S
O164 Mg166 1.926 1_655 S
Mg165 O164 1.986 1_565 S
Mg165 O172 2.042 1_565 S
Mg165 O174 2.041 1_565 S
Mg165 O180 2.038 . S
Mg165 O188 2.238 . S
Mg166 O164 1.926 1_455 S
Mg166 O167 1.908 1_545 S
Mg166 O177 2.109 . S
Mg166 O179 2.072 1_445 S
Mg166 O188 2.104 1_445 S
Mg166 O189 2.085 . S
O167 Mg166 1.908 1_565 S
O167 Mg168 1.927 1_455 S
O167 Mg169 1.986 1_565 S
Mg168 O167 1.927 1_655 S
Mg168 O182 1.979 1_655 S
Mg168 O185 1.985 1_655 S
Mg168 O186 2.067 . S
Mg169 O167 1.986 1_545 S
Mg169 O177 2.238 . S
Mg169 O181 2.042 1_545 S
Mg169 O183 2.041 1_545 S
Mg169 O190 2.038 . S
C170 O176 1.247 . S
C170 O177 1.289 . S
C171 O189 1.245 . S
C171 O190 1.274 . S
O172 C160 1.241 . S
O172 Mg165 2.042 1_545 S
O173 C160 1.280 . S
O173 Mg163 1.972 1_655 S
O174 C161 1.277 . S
O174 Mg165 2.041 1_545 S
O175 C161 1.245 . S
O175 Mg163 1.982 1_655 S
O176 Mg163 2.075 . S
O176 C170 1.247 . S
O177 Mg166 2.109 . S
O177 Mg169 2.238 . S
O177 C170 1.289 . S
C178 O179 1.245 . S
C178 O180 1.274 . S
O179 Mg166 2.072 1_665 S
O179 C178 1.245 . S
O180 Mg165 2.038 . S
O180 C178 1.274 . S
O181 Mg169 2.042 1_565 S
O181 C184 1.241 . S
O182 Mg168 1.979 1_455 S
O182 C184 1.280 . S
O183 Mg169 2.041 1_565 S
O183 C187 1.277 . S
C184 O181 1.241 . S
C184 O182 1.280 . S
O185 Mg168 1.985 1_455 S
O185 C187 1.245 . S
O186 C162 1.247 . S
O186 Mg168 2.067 . S
C187 O183 1.277 . S
C187 O185 1.245 . S
O188 C162 1.289 . S
O188 Mg165 2.238 . S
O188 Mg166 2.104 1_665 S
O189 Mg166 2.085 . S
O189 C171 1.245 . S
O190 Mg169 2.038 . S
O190 C171 1.274 . S
C191 O203 1.241 . S
C191 O204 1.280 . S
C192 O205 1.277 . S
C192 O206 1.245 . S
C193 O217 1.247 . S
C193 O219 1.289 . S
Mg194 O195 1.926 . S
Mg194 O204 1.984 . S
Mg194 O206 1.988 1_554 S
Mg194 O207 2.061 . S
O195 Mg194 1.926 . S
O195 Mg196 1.986 1_544 S
O195 Mg197 1.929 . S
Mg196 O195 1.986 1_566 S
Mg196 O203 2.042 1_566 S
Mg196 O205 2.041 1_565 S
Mg196 O211 2.038 1_556 S
Mg196 O219 2.238 . S
Mg197 O195 1.929 . S
Mg197 O198 1.905 1_544 S
Mg197 O208 2.109 . S
Mg197 O210 2.075 1_545 S
Mg197 O219 2.104 1_544 S
Mg197 O220 2.083 1_554 S
O198 Mg197 1.905 1_566 S
O198 Mg199 1.926 . S
O198 Mg200 1.986 1_566 S
Mg199 O198 1.926 . S
Mg199 O213 1.984 . S
Mg199 O216 1.988 1_556 S
Mg199 O217 2.061 . S
Mg200 O198 1.986 1_544 S
Mg200 O208 2.238 . S
Mg200 O212 2.042 1_544 S
Mg200 O214 2.041 1_545 S
Mg200 O221 2.038 1_554 S
C201 O207 1.247 . S
C201 O208 1.289 . S
C202 O220 1.245 . S
C202 O221 1.274 . S
O203 C191 1.241 . S
O203 Mg196 2.042 1_544 S
O204 C191 1.280 . S
O204 Mg194 1.984 . S
O205 C192 1.277 . S
O205 Mg196 2.041 1_545 S
O206 C192 1.245 . S
O206 Mg194 1.988 1_556 S
O207 Mg194 2.061 . S
O207 C201 1.247 . S
O208 Mg197 2.109 . S
O208 Mg200 2.238 . S
O208 C201 1.289 . S
C209 O210 1.245 . S
C209 O211 1.274 . S
O210 Mg197 2.075 1_565 S
O210 C209 1.245 . S
O211 Mg196 2.038 1_554 S
O211 C209 1.274 . S
O212 Mg200 2.042 1_566 S
O212 C215 1.241 . S
O213 Mg199 1.984 . S
O213 C215 1.280 . S
O214 Mg200 2.041 1_565 S
O214 C218 1.277 . S
C215 O212 1.241 . S
C215 O213 1.280 . S
O216 Mg199 1.988 1_554 S
O216 C218 1.245 . S
O217 C193 1.247 . S
O217 Mg199 2.061 . S
C218 O214 1.277 . S
C218 O216 1.245 . S
O219 C193 1.289 . S
O219 Mg196 2.238 . S
O219 Mg197 2.104 1_566 S
O220 Mg197 2.083 1_556 S
O220 C202 1.245 . S
O221 Mg200 2.038 1_556 S
O221 C202 1.274 . S
C222 O234 1.241 . S
C222 O235 1.280 . S
C223 O236 1.277 . S
C223 O237 1.245 . S
C224 O248 1.247 . S
C224 O250 1.289 . S
Mg225 O226 1.928 1_455 S
Mg225 O235 1.972 1_455 S
Mg225 O237 1.982 1_454 S
Mg225 O238 2.075 . S
O226 Mg225 1.928 1_655 S
O226 Mg227 1.986 1_554 S
O226 Mg228 1.915 1_655 S
Mg227 O226 1.986 1_556 S
Mg227 O234 2.042 1_556 S
Mg227 O236 2.041 . S
Mg227 O242 2.038 1_556 S
Mg227 O250 2.238 . S
Mg228 O226 1.915 1_455 S
Mg228 O229 1.918 1_554 S
Mg228 O239 2.110 . S
Mg228 O241 2.080 1_455 S
Mg228 O250 2.103 1_454 S
Mg228 O251 2.077 1_554 S
O229 Mg228 1.918 1_556 S
O229 Mg230 1.927 1_455 S
O229 Mg231 1.986 1_556 S
Mg230 O229 1.927 1_655 S
Mg230 O244 1.979 1_655 S
Mg230 O247 1.985 1_656 S
Mg230 O248 2.067 . S
Mg231 O229 1.986 1_554 S
Mg231 O239 2.238 . S
Mg231 O243 2.042 1_554 S
Mg231 O245 2.041 . S
Mg231 O252 2.038 1_554 S
C232 O238 1.247 . S
C232 O239 1.289 . S
C233 O251 1.245 . S
C233 O252 1.274 . S
O234 C222 1.241 . S
O234 Mg227 2.042 1_554 S
O235 C222 1.280 . S
O235 Mg225 1.972 1_655 S
O236 C223 1.277 . S
O236 Mg227 2.041 . S
O237 C223 1.245 . S
O237 Mg225 1.982 1_656 S
O238 Mg225 2.075 . S
O238 C232 1.247 . S
O239 Mg228 2.110 . S
O239 Mg231 2.238 . S
O239 C232 1.289 . S
C240 O241 1.245 . S
C240 O242 1.274 . S
O241 Mg228 2.080 1_655 S
O241 C240 1.245 . S
O242 Mg227 2.038 1_554 S
O242 C240 1.274 . S
O243 Mg231 2.042 1_556 S
O243 C246 1.241 . S
O244 Mg230 1.979 1_455 S
O244 C246 1.280 . S
O245 Mg231 2.041 . S
O245 C249 1.277 . S
C246 O243 1.241 . S
C246 O244 1.280 . S
O247 Mg230 1.985 1_454 S
O247 C249 1.245 . S
O248 C224 1.247 . S
O248 Mg230 2.067 . S
C249 O245 1.277 . S
C249 O247 1.245 . S
O250 C224 1.289 . S
O250 Mg227 2.238 . S
O250 Mg228 2.103 1_656 S
O251 Mg228 2.077 1_556 S
O251 C233 1.245 . S
O252 Mg231 2.038 1_556 S
O252 C233 1.274 . S
C253 O265 1.241 . S
C253 O266 1.280 . S
C254 O267 1.277 . S
C254 O268 1.245 . S
C255 O279 1.247 . S
C255 O281 1.289 . S
Mg256 O257 1.926 . S
Mg256 O266 1.984 . S
Mg256 O268 1.988 1_554 S
Mg256 O269 2.061 . S
O257 Mg256 1.926 . S
O257 Mg258 1.986 1_554 S
O257 Mg259 1.918 . S
Mg258 O257 1.986 1_556 S
Mg258 O265 2.042 1_556 S
Mg258 O267 2.041 . S
Mg258 O273 2.038 1_556 S
Mg258 O281 2.238 . S
Mg259 O257 1.918 . S
Mg259 O260 1.916 1_554 S
Mg259 O270 2.108 . S
Mg259 O272 2.081 . S
Mg259 O281 2.105 1_554 S
Mg259 O282 2.076 1_554 S
O260 Mg259 1.916 1_556 S
O260 Mg261 1.926 . S
O260 Mg262 1.986 1_556 S
Mg261 O260 1.926 . S
Mg261 O275 1.984 . S
Mg261 O278 1.988 1_556 S
Mg261 O279 2.061 . S
Mg262 O260 1.986 1_554 S
Mg262 O270 2.238 . S
Mg262 O274 2.042 1_554 S
Mg262 O276 2.041 . S
Mg262 O283 2.038 1_554 S
C263 O269 1.247 . S
C263 O270 1.289 . S
C264 O282 1.245 . S
C264 O283 1.274 . S
O265 C253 1.241 . S
O265 Mg258 2.042 1_554 S
O266 C253 1.280 . S
O266 Mg256 1.984 . S
O267 C254 1.277 . S
O267 Mg258 2.041 . S
O268 C254 1.245 . S
O268 Mg256 1.988 1_556 S
O269 Mg256 2.061 . S
O269 C263 1.247 . S
O270 Mg259 2.108 . S
O270 Mg262 2.238 . S
O270 C263 1.289 . S
C271 O272 1.245 . S
C271 O273 1.274 . S
O272 Mg259 2.081 . S
O272 C271 1.245 . S
O273 Mg258 2.038 1_554 S
O273 C271 1.274 . S
O274 Mg262 2.042 1_556 S
O274 C277 1.241 . S
O275 Mg261 1.984 . S
O275 C277 1.280 . S
O276 Mg262 2.041 . S
O276 C280 1.277 . S
C277 O274 1.241 . S
C277 O275 1.280 . S
O278 Mg261 1.988 1_554 S
O278 C280 1.245 . S
O279 C255 1.247 . S
O279 Mg261 2.061 . S
C280 O276 1.277 . S
C280 O278 1.245 . S
O281 C255 1.289 . S
O281 Mg258 2.238 . S
O281 Mg259 2.105 1_556 S
O282 Mg259 2.076 1_556 S
O282 C264 1.245 . S
O283 Mg262 2.038 1_556 S
O283 C264 1.274 . S
C284 O296 1.241 . S
C284 O297 1.280 . S
C285 O298 1.277 . S
C285 O299 1.245 . S
C286 O310 1.247 . S
C286 O312 1.289 . S
Mg287 O288 1.928 1_455 S
Mg287 O297 1.972 1_455 S
Mg287 O299 1.982 1_455 S
Mg287 O300 2.075 . S
O288 Mg287 1.928 1_655 S
O288 Mg289 1.986 . S
O288 Mg290 1.915 1_655 S
Mg289 O288 1.986 . S
Mg289 O296 2.042 . S
Mg289 O298 2.041 . S
Mg289 O304 2.038 . S
Mg289 O312 2.238 . S
Mg290 O288 1.915 1_455 S
Mg290 O291 1.919 . S
Mg290 O301 2.108 . S
Mg290 O303 2.078 1_455 S
Mg290 O312 2.105 1_455 S
Mg290 O313 2.079 . S
O291 Mg290 1.919 . S
O291 Mg292 1.927 1_455 S
O291 Mg293 1.986 . S
Mg292 O291 1.927 1_655 S
Mg292 O306 1.979 1_655 S
Mg292 O309 1.985 1_655 S
Mg292 O310 2.067 . S
Mg293 O291 1.986 . S
Mg293 O301 2.238 . S
Mg293 O305 2.042 . S
Mg293 O307 2.041 . S
Mg293 O314 2.038 . S
C294 O300 1.247 . S
C294 O301 1.289 . S
C295 O313 1.245 . S
C295 O314 1.274 . S
O296 C284 1.241 . S
O296 Mg289 2.042 . S
O297 C284 1.280 . S
O297 Mg287 1.972 1_655 S
O298 C285 1.277 . S
O298 Mg289 2.041 . S
O299 C285 1.245 . S
O299 Mg287 1.982 1_655 S
O300 Mg287 2.075 . S
O300 C294 1.247 . S
O301 Mg290 2.108 . S
O301 Mg293 2.238 . S
O301 C294 1.289 . S
C302 O303 1.245 . S
C302 O304 1.274 . S
O303 Mg290 2.078 1_655 S
O303 C302 1.245 . S
O304 Mg289 2.038 . S
O304 C302 1.274 . S
O305 Mg293 2.042 . S
O305 C308 1.241 . S
O306 Mg292 1.979 1_455 S
O306 C308 1.280 . S
O307 Mg293 2.041 . S
O307 C311 1.277 . S
C308 O305 1.241 . S
C308 O306 1.280 . S
O309 Mg292 1.985 1_455 S
O309 C311 1.245 . S
O310 C286 1.247 . S
O310 Mg292 2.067 . S
C311 O307 1.277 . S
C311 O309 1.245 . S
O312 C286 1.289 . S
O312 Mg289 2.238 . S
O312 Mg290 2.105 1_655 S
O313 Mg290 2.079 . S
O313 C295 1.245 . S
O314 Mg293 2.038 . S
O314 C295 1.274 . S
C315 O327 1.241 . S
C315 O328 1.280 . S
C316 O329 1.277 . S
C316 O330 1.245 . S
C317 O341 1.247 . S
C317 O343 1.289 . S
Mg318 O319 1.926 . S
Mg318 O328 1.984 . S
Mg318 O330 1.988 . S
Mg318 O331 2.061 . S
O319 Mg318 1.926 . S
O319 Mg320 1.986 1_545 S
O319 Mg321 1.928 . S
Mg320 O319 1.986 1_565 S
Mg320 O327 2.042 1_565 S
Mg320 O329 2.041 1_565 S
Mg320 O335 2.038 . S
Mg320 O343 2.238 . S
Mg321 O319 1.928 . S
Mg321 O322 1.906 1_545 S
Mg321 O332 2.108 . S
Mg321 O334 2.073 1_545 S
Mg321 O343 2.105 1_545 S
Mg321 O344 2.085 . S
O322 Mg321 1.906 1_565 S
O322 Mg323 1.926 . S
O322 Mg324 1.986 1_565 S
Mg323 O322 1.926 . S
Mg323 O337 1.984 . S
Mg323 O340 1.988 . S
Mg323 O341 2.061 . S
Mg324 O322 1.986 1_545 S
Mg324 O332 2.238 . S
Mg324 O336 2.042 1_545 S
Mg324 O338 2.041 1_545 S
Mg324 O345 2.038 . S
C325 O331 1.247 . S
C325 O332 1.289 . S
C326 O344 1.245 . S
C326 O345 1.274 . S
O327 C315 1.241 . S
O327 Mg320 2.042 1_545 S
O328 C315 1.280 . S
O328 Mg318 1.984 . S
O329 C316 1.277 . S
O329 Mg320 2.041 1_545 S
O330 C316 1.245 . S
O330 Mg318 1.988 . S
O331 Mg318 2.061 . S
O331 C325 1.247 . S
O332 Mg321 2.108 . S
O332 Mg324 2.238 . S
O332 C325 1.289 . S
C333 O334 1.245 . S
C333 O335 1.274 . S
O334 Mg321 2.073 1_565 S
O334 C333 1.245 . S
O335 Mg320 2.038 . S
O335 C333 1.274 . S
O336 Mg324 2.042 1_565 S
O336 C339 1.241 . S
O337 Mg323 1.984 . S
O337 C339 1.280 . S
O338 Mg324 2.041 1_565 S
O338 C342 1.277 . S
C339 O336 1.241 . S
C339 O337 1.280 . S
O340 Mg323 1.988 . S
O340 C342 1.245 . S
O341 C317 1.247 . S
O341 Mg323 2.061 . S
C342 O338 1.277 . S
C342 O340 1.245 . S
O343 C317 1.289 . S
O343 Mg320 2.238 . S
O343 Mg321 2.105 1_565 S
O344 Mg321 2.085 . S
O344 C326 1.245 . S
O345 Mg324 2.038 . S
O345 C326 1.274 . S
C171 C9 2.090 . S
C161 C22 1.304 . S
C162 C49 1.506 . S
C61 C184 1.369 . S
C81 C187 1.304 . S
C170 C108 1.506 . S
C122 C160 1.369 . S
C148 C178 2.090 . S
C191 C18 2.543 . S
C39 C240 1.539 . S
C218 C58 2.740 . S
C232 C69 1.074 . S
C89 C193 1.227 . S
C246 C102 1.642 . S
C139 C202 1.566 . S
C142 C223 1.326 . S
C1 C249 1.326 . S
C98 C233 1.539 . S
C192 C119 2.740 . S
C224 C128 1.075 . S
C159 C215 2.544 . S
C41 C222 1.641 . S
C209 C78 1.566 . S
C28 C201 1.227 . S
C149 C264 2.090 . S
C82 C254 1.304 . S
C255 C109 1.506 . S
C277 C121 1.369 . S
C21 C280 1.304 . S
C263 C48 1.506 . S
C62 C253 1.369 . S
C8 C271 2.090 . S
C158 C284 2.543 . S
C333 C99 1.539 . S
C118 C311 2.740 . S
C129 C325 1.074 . S
C286 C29 1.227 . S
C42 C339 1.642 . S
C295 C79 1.566 . S
C316 C2 1.326 . S
C342 C141 1.326 . S
C38 C326 1.539 . S
C59 C285 2.741 . S
C317 C68 1.075 . S
C19 C308 2.544 . S
C101 C315 1.641 . S
C302 C138 1.566 . S
C294 C88 1.227 . S
