# Generated by pormake.
# Topology gar, (4,6)-cn, num edge types: 1
# Building blocks:
#     Node 0, Type 0, BuildingBlock: CEKHIL_clean_sbu_0, # of connection points: 4
#     Node 1, Type 0, BuildingBlock: CEKHIL_clean_sbu_0, # of connection points: 4
#     Node 2, Type 0, BuildingBlock: CEKHIL_clean_sbu_0, # of connection points: 4
#     Node 3, Type 0, BuildingBlock: CEKHIL_clean_sbu_0, # of connection points: 4
#     Node 4, Type 0, BuildingBlock: CEKHIL_clean_sbu_0, # of connection points: 4
#     Node 5, Type 0, BuildingBlock: CEKHIL_clean_sbu_0, # of connection points: 4
#     Node 6, Type 0, BuildingBlock: CEKHIL_clean_sbu_0, # of connection points: 4
#     Node 7, Type 0, BuildingBlock: CEKHIL_clean_sbu_0, # of connection points: 4
#     Node 8, Type 0, BuildingBlock: CEKHIL_clean_sbu_0, # of connection points: 4
#     Node 9, Type 0, BuildingBlock: CEKHIL_clean_sbu_0, # of connection points: 4
#     Node 10, Type 0, BuildingBlock: CEKHIL_clean_sbu_0, # of connection points: 4
#     Node 11, Type 0, BuildingBlock: CEKHIL_clean_sbu_0, # of connection points: 4
#     Node 12, Type 0, BuildingBlock: CEKHIL_clean_sbu_0, # of connection points: 4
#     Node 13, Type 0, BuildingBlock: CEKHIL_clean_sbu_0, # of connection points: 4
#     Node 14, Type 0, BuildingBlock: CEKHIL_clean_sbu_0, # of connection points: 4
#     Node 15, Type 0, BuildingBlock: CEKHIL_clean_sbu_0, # of connection points: 4
#     Node 16, Type 0, BuildingBlock: CEKHIL_clean_sbu_0, # of connection points: 4
#     Node 17, Type 0, BuildingBlock: CEKHIL_clean_sbu_0, # of connection points: 4
#     Node 18, Type 0, BuildingBlock: CEKHIL_clean_sbu_0, # of connection points: 4
#     Node 19, Type 0, BuildingBlock: CEKHIL_clean_sbu_0, # of connection points: 4
#     Node 20, Type 0, BuildingBlock: CEKHIL_clean_sbu_0, # of connection points: 4
#     Node 21, Type 0, BuildingBlock: CEKHIL_clean_sbu_0, # of connection points: 4
#     Node 22, Type 0, BuildingBlock: CEKHIL_clean_sbu_0, # of connection points: 4
#     Node 23, Type 0, BuildingBlock: CEKHIL_clean_sbu_0, # of connection points: 4
#     Node 24, Type 1, BuildingBlock: BETDIP_clean_sbu_0, # of connection points: 6
#     Node 25, Type 1, BuildingBlock: BETDIP_clean_sbu_0, # of connection points: 6
#     Node 26, Type 1, BuildingBlock: BETDIP_clean_sbu_0, # of connection points: 6
#     Node 27, Type 1, BuildingBlock: BETDIP_clean_sbu_0, # of connection points: 6
#     Node 28, Type 1, BuildingBlock: BETDIP_clean_sbu_0, # of connection points: 6
#     Node 29, Type 1, BuildingBlock: BETDIP_clean_sbu_0, # of connection points: 6
#     Node 30, Type 1, BuildingBlock: BETDIP_clean_sbu_0, # of connection points: 6
#     Node 31, Type 1, BuildingBlock: BETDIP_clean_sbu_0, # of connection points: 6
#     Node 32, Type 1, BuildingBlock: BETDIP_clean_sbu_0, # of connection points: 6
#     Node 33, Type 1, BuildingBlock: BETDIP_clean_sbu_0, # of connection points: 6
#     Node 34, Type 1, BuildingBlock: BETDIP_clean_sbu_0, # of connection points: 6
#     Node 35, Type 1, BuildingBlock: BETDIP_clean_sbu_0, # of connection points: 6
#     Node 36, Type 1, BuildingBlock: BETDIP_clean_sbu_0, # of connection points: 6
#     Node 37, Type 1, BuildingBlock: BETDIP_clean_sbu_0, # of connection points: 6
#     Node 38, Type 1, BuildingBlock: BETDIP_clean_sbu_0, # of connection points: 6
#     Node 39, Type 1, BuildingBlock: BETDIP_clean_sbu_0, # of connection points: 6
#     Edge 40, Type (0, 1), BuildingBlock: MIFKUJ_clean_linker_0, # of connection points: 2
#     Edge 41, Type (0, 1), BuildingBlock: MIFKUJ_clean_linker_0, # of connection points: 2
#     Edge 42, Type (0, 1), BuildingBlock: MIFKUJ_clean_linker_0, # of connection points: 2
#     Edge 43, Type (0, 1), BuildingBlock: MIFKUJ_clean_linker_0, # of connection points: 2
#     Edge 44, Type (0, 1), BuildingBlock: MIFKUJ_clean_linker_0, # of connection points: 2
#     Edge 45, Type (0, 1), BuildingBlock: MIFKUJ_clean_linker_0, # of connection points: 2
#     Edge 46, Type (0, 1), BuildingBlock: MIFKUJ_clean_linker_0, # of connection points: 2
#     Edge 47, Type (0, 1), BuildingBlock: MIFKUJ_clean_linker_0, # of connection points: 2
#     Edge 48, Type (0, 1), BuildingBlock: MIFKUJ_clean_linker_0, # of connection points: 2
#     Edge 49, Type (0, 1), BuildingBlock: MIFKUJ_clean_linker_0, # of connection points: 2
#     Edge 50, Type (0, 1), BuildingBlock: MIFKUJ_clean_linker_0, # of connection points: 2
#     Edge 51, Type (0, 1), BuildingBlock: MIFKUJ_clean_linker_0, # of connection points: 2
#     Edge 52, Type (0, 1), BuildingBlock: MIFKUJ_clean_linker_0, # of connection points: 2
#     Edge 53, Type (0, 1), BuildingBlock: MIFKUJ_clean_linker_0, # of connection points: 2
#     Edge 54, Type (0, 1), BuildingBlock: MIFKUJ_clean_linker_0, # of connection points: 2
#     Edge 55, Type (0, 1), BuildingBlock: MIFKUJ_clean_linker_0, # of connection points: 2
#     Edge 56, Type (0, 1), BuildingBlock: MIFKUJ_clean_linker_0, # of connection points: 2
#     Edge 57, Type (0, 1), BuildingBlock: MIFKUJ_clean_linker_0, # of connection points: 2
#     Edge 58, Type (0, 1), BuildingBlock: MIFKUJ_clean_linker_0, # of connection points: 2
#     Edge 59, Type (0, 1), BuildingBlock: MIFKUJ_clean_linker_0, # of connection points: 2
#     Edge 60, Type (0, 1), BuildingBlock: MIFKUJ_clean_linker_0, # of connection points: 2
#     Edge 61, Type (0, 1), BuildingBlock: MIFKUJ_clean_linker_0, # of connection points: 2
#     Edge 62, Type (0, 1), BuildingBlock: MIFKUJ_clean_linker_0, # of connection points: 2
#     Edge 63, Type (0, 1), BuildingBlock: MIFKUJ_clean_linker_0, # of connection points: 2
#     Edge 64, Type (0, 1), BuildingBlock: MIFKUJ_clean_linker_0, # of connection points: 2
#     Edge 65, Type (0, 1), BuildingBlock: MIFKUJ_clean_linker_0, # of connection points: 2
#     Edge 66, Type (0, 1), BuildingBlock: MIFKUJ_clean_linker_0, # of connection points: 2
#     Edge 67, Type (0, 1), BuildingBlock: MIFKUJ_clean_linker_0, # of connection points: 2
#     Edge 68, Type (0, 1), BuildingBlock: MIFKUJ_clean_linker_0, # of connection points: 2
#     Edge 69, Type (0, 1), BuildingBlock: MIFKUJ_clean_linker_0, # of connection points: 2
#     Edge 70, Type (0, 1), BuildingBlock: MIFKUJ_clean_linker_0, # of connection points: 2
#     Edge 71, Type (0, 1), BuildingBlock: MIFKUJ_clean_linker_0, # of connection points: 2
#     Edge 72, Type (0, 1), BuildingBlock: MIFKUJ_clean_linker_0, # of connection points: 2
#     Edge 73, Type (0, 1), BuildingBlock: MIFKUJ_clean_linker_0, # of connection points: 2
#     Edge 74, Type (0, 1), BuildingBlock: MIFKUJ_clean_linker_0, # of connection points: 2
#     Edge 75, Type (0, 1), BuildingBlock: MIFKUJ_clean_linker_0, # of connection points: 2
#     Edge 76, Type (0, 1), BuildingBlock: MIFKUJ_clean_linker_0, # of connection points: 2
#     Edge 77, Type (0, 1), BuildingBlock: MIFKUJ_clean_linker_0, # of connection points: 2
#     Edge 78, Type (0, 1), BuildingBlock: MIFKUJ_clean_linker_0, # of connection points: 2
#     Edge 79, Type (0, 1), BuildingBlock: MIFKUJ_clean_linker_0, # of connection points: 2
#     Edge 80, Type (0, 1), BuildingBlock: MIFKUJ_clean_linker_0, # of connection points: 2
#     Edge 81, Type (0, 1), BuildingBlock: MIFKUJ_clean_linker_0, # of connection points: 2
#     Edge 82, Type (0, 1), BuildingBlock: MIFKUJ_clean_linker_0, # of connection points: 2
#     Edge 83, Type (0, 1), BuildingBlock: MIFKUJ_clean_linker_0, # of connection points: 2
#     Edge 84, Type (0, 1), BuildingBlock: MIFKUJ_clean_linker_0, # of connection points: 2
#     Edge 85, Type (0, 1), BuildingBlock: MIFKUJ_clean_linker_0, # of connection points: 2
#     Edge 86, Type (0, 1), BuildingBlock: MIFKUJ_clean_linker_0, # of connection points: 2
#     Edge 87, Type (0, 1), BuildingBlock: MIFKUJ_clean_linker_0, # of connection points: 2
#     Edge 88, Type (0, 1), BuildingBlock: MIFKUJ_clean_linker_0, # of connection points: 2
#     Edge 89, Type (0, 1), BuildingBlock: MIFKUJ_clean_linker_0, # of connection points: 2
#     Edge 90, Type (0, 1), BuildingBlock: MIFKUJ_clean_linker_0, # of connection points: 2
#     Edge 91, Type (0, 1), BuildingBlock: MIFKUJ_clean_linker_0, # of connection points: 2
#     Edge 92, Type (0, 1), BuildingBlock: MIFKUJ_clean_linker_0, # of connection points: 2
#     Edge 93, Type (0, 1), BuildingBlock: MIFKUJ_clean_linker_0, # of connection points: 2
#     Edge 94, Type (0, 1), BuildingBlock: MIFKUJ_clean_linker_0, # of connection points: 2
#     Edge 95, Type (0, 1), BuildingBlock: MIFKUJ_clean_linker_0, # of connection points: 2
#     Edge 96, Type (0, 1), BuildingBlock: MIFKUJ_clean_linker_0, # of connection points: 2
#     Edge 97, Type (0, 1), BuildingBlock: MIFKUJ_clean_linker_0, # of connection points: 2
#     Edge 98, Type (0, 1), BuildingBlock: MIFKUJ_clean_linker_0, # of connection points: 2
#     Edge 99, Type (0, 1), BuildingBlock: MIFKUJ_clean_linker_0, # of connection points: 2
#     Edge 100, Type (0, 1), BuildingBlock: MIFKUJ_clean_linker_0, # of connection points: 2
#     Edge 101, Type (0, 1), BuildingBlock: MIFKUJ_clean_linker_0, # of connection points: 2
#     Edge 102, Type (0, 1), BuildingBlock: MIFKUJ_clean_linker_0, # of connection points: 2
#     Edge 103, Type (0, 1), BuildingBlock: MIFKUJ_clean_linker_0, # of connection points: 2
#     Edge 104, Type (0, 1), BuildingBlock: MIFKUJ_clean_linker_0, # of connection points: 2
#     Edge 105, Type (0, 1), BuildingBlock: MIFKUJ_clean_linker_0, # of connection points: 2
#     Edge 106, Type (0, 1), BuildingBlock: MIFKUJ_clean_linker_0, # of connection points: 2
#     Edge 107, Type (0, 1), BuildingBlock: MIFKUJ_clean_linker_0, # of connection points: 2
#     Edge 108, Type (0, 1), BuildingBlock: MIFKUJ_clean_linker_0, # of connection points: 2
#     Edge 109, Type (0, 1), BuildingBlock: MIFKUJ_clean_linker_0, # of connection points: 2
#     Edge 110, Type (0, 1), BuildingBlock: MIFKUJ_clean_linker_0, # of connection points: 2
#     Edge 111, Type (0, 1), BuildingBlock: MIFKUJ_clean_linker_0, # of connection points: 2
#     Edge 112, Type (0, 1), BuildingBlock: MIFKUJ_clean_linker_0, # of connection points: 2
#     Edge 113, Type (0, 1), BuildingBlock: MIFKUJ_clean_linker_0, # of connection points: 2
#     Edge 114, Type (0, 1), BuildingBlock: MIFKUJ_clean_linker_0, # of connection points: 2
#     Edge 115, Type (0, 1), BuildingBlock: MIFKUJ_clean_linker_0, # of connection points: 2
#     Edge 116, Type (0, 1), BuildingBlock: MIFKUJ_clean_linker_0, # of connection points: 2
#     Edge 117, Type (0, 1), BuildingBlock: MIFKUJ_clean_linker_0, # of connection points: 2
#     Edge 118, Type (0, 1), BuildingBlock: MIFKUJ_clean_linker_0, # of connection points: 2
#     Edge 119, Type (0, 1), BuildingBlock: MIFKUJ_clean_linker_0, # of connection points: 2
#     Edge 120, Type (0, 1), BuildingBlock: MIFKUJ_clean_linker_0, # of connection points: 2
#     Edge 121, Type (0, 1), BuildingBlock: MIFKUJ_clean_linker_0, # of connection points: 2
#     Edge 122, Type (0, 1), BuildingBlock: MIFKUJ_clean_linker_0, # of connection points: 2
#     Edge 123, Type (0, 1), BuildingBlock: MIFKUJ_clean_linker_0, # of connection points: 2
#     Edge 124, Type (0, 1), BuildingBlock: MIFKUJ_clean_linker_0, # of connection points: 2
#     Edge 125, Type (0, 1), BuildingBlock: MIFKUJ_clean_linker_0, # of connection points: 2
#     Edge 126, Type (0, 1), BuildingBlock: MIFKUJ_clean_linker_0, # of connection points: 2
#     Edge 127, Type (0, 1), BuildingBlock: MIFKUJ_clean_linker_0, # of connection points: 2
#     Edge 128, Type (0, 1), BuildingBlock: MIFKUJ_clean_linker_0, # of connection points: 2
#     Edge 129, Type (0, 1), BuildingBlock: MIFKUJ_clean_linker_0, # of connection points: 2
#     Edge 130, Type (0, 1), BuildingBlock: MIFKUJ_clean_linker_0, # of connection points: 2
#     Edge 131, Type (0, 1), BuildingBlock: MIFKUJ_clean_linker_0, # of connection points: 2
#     Edge 132, Type (0, 1), BuildingBlock: MIFKUJ_clean_linker_0, # of connection points: 2
#     Edge 133, Type (0, 1), BuildingBlock: MIFKUJ_clean_linker_0, # of connection points: 2
#     Edge 134, Type (0, 1), BuildingBlock: MIFKUJ_clean_linker_0, # of connection points: 2
#     Edge 135, Type (0, 1), BuildingBlock: MIFKUJ_clean_linker_0, # of connection points: 2
# Relax obj value: 0.149
# Max RMSD: 0.269
# Mean RMSD: 0.139
data_MOF--net-gar--node1-CEKHIL_clean_sbu_0--node2-BETDIP_clean_sbu_0--edge1-MIFKUJ_clean_linker_0
_symmetry_space_group_name_H-M    P1
_symmetry_Int_Tables_number       1
_symmetry_cell_setting            triclinic
loop_
_symmetry_equiv_pos_as_xyz
'x, y, z'
_cell_length_a     80.667344
_cell_length_b     73.028747
_cell_length_c     69.750004
_cell_angle_alpha  96.573811
_cell_angle_beta   97.833463
_cell_angle_gamma 100.1456
loop_
_atom_site_label
_atom_site_type_symbol
_atom_site_fract_x
_atom_site_fract_y
_atom_site_fract_z
_atom_type_partial_charge
Co0 Co 0.03102 0.29953 0.38444 0.0
O1 O 0.05457 0.29719 0.38613 0.0
O2 O 0.03684 0.29609 0.35858 0.0
C3 C 0.03495 0.32456 0.40774 0.0
O4 O 1.00635 0.30205 0.37666 0.0
Co5 Co 1.01096 0.29516 0.41929 0.0
O6 O 0.99399 0.30602 0.40341 0.0
C7 C 0.01705 0.26145 0.39553 0.0
C8 C 0.05205 0.29552 0.36716 0.0
C9 C 0.9939 0.30587 0.38512 0.0
O10 O 0.0241 0.2715 0.38376 0.0
O11 O 0.01184 0.26829 0.41082 0.0
O12 O 0.0377 0.32684 0.39015 0.0
O13 O 0.03156 0.30739 0.41107 0.0
Co14 Co 0.04227 0.75946 0.68094 0.0
O15 O 0.01789 0.75536 0.67854 0.0
O16 O 0.03519 0.75074 0.7043 0.0
C17 C 0.04574 0.78775 0.67052 0.0
O18 O 0.06799 0.7629 0.68877 0.0
Co19 Co 0.06005 0.76382 0.64411 0.0
O20 O 0.08096 0.7721 0.66391 0.0
C21 C 0.04296 0.72644 0.65081 0.0
C22 C 0.01971 0.75066 0.69598 0.0
C23 C 0.08147 0.76891 0.68156 0.0
O24 O 0.04097 0.73291 0.66813 0.0
O25 O 0.04881 0.73665 0.6386 0.0
O26 O 0.04391 0.78649 0.68858 0.0
O27 O 0.04376 0.772 0.65926 0.0
Co28 Co 0.52999 0.80119 0.87889 0.0
O29 O 0.55395 0.80114 0.88087 0.0
O30 O 0.53528 0.7939 0.85338 0.0
C31 C 0.53272 0.82893 0.89777 0.0
O32 O 0.50473 0.80036 0.8707 0.0
Co33 Co 0.51132 0.80161 0.9151 0.0
O34 O 0.49199 0.80626 0.8968 0.0
C35 C 0.52108 0.76664 0.89843 0.0
C36 C 0.55096 0.79606 0.86206 0.0
C37 C 0.49172 0.8035 0.87838 0.0
O38 O 0.52555 0.77424 0.8837 0.0
O39 O 0.51635 0.77564 0.91292 0.0
O40 O 0.53437 0.82844 0.87944 0.0
O41 O 0.53081 0.81299 0.90426 0.0
Co42 Co 0.54386 0.26157 0.18256 0.0
O43 O 0.52005 0.26149 0.18185 0.0
O44 O 0.53654 0.25271 0.20579 0.0
C45 C 0.5507 0.29041 0.17397 0.0
O46 O 0.56906 0.26054 0.18839 0.0
Co47 Co 0.55991 0.26465 0.14443 0.0
O48 O 0.58165 0.26884 0.16293 0.0
C49 C 0.53802 0.22928 0.14966 0.0
C50 C 0.52157 0.25556 0.19871 0.0
C51 C 0.5824 0.26484 0.18033 0.0
O52 O 0.53851 0.23523 0.16787 0.0
O53 O 0.54411 0.2396 0.13763 0.0
O54 O 0.54942 0.28863 0.19206 0.0
O55 O 0.54628 0.27511 0.16178 0.0
Co56 Co 0.06445 0.7948 0.14832 0.0
O57 O 0.03964 0.7918 0.14356 0.0
O58 O 0.05433 0.78675 0.17069 0.0
C59 C 0.06885 0.82369 0.13717 0.0
O60 O 0.09003 0.79676 0.15986 0.0
Co61 Co 0.0867 0.79834 0.11635 0.0
O62 O 0.10677 0.80203 0.13714 0.0
C63 C 0.06765 0.7606 0.12005 0.0
C64 C 0.03952 0.78738 0.16104 0.0
C65 C 0.10497 0.79955 0.15456 0.0
O66 O 0.06286 0.76753 0.13586 0.0
O67 O 0.07608 0.77094 0.10963 0.0
O68 O 0.06642 0.8222 0.155 0.0
O69 O 0.06816 0.80782 0.12646 0.0
Co70 Co 0.52103 0.76227 0.41747 0.0
O71 O 0.54584 0.76483 0.42213 0.0
O72 O 0.52976 0.75415 0.39366 0.0
C73 C 0.52077 0.79166 0.43286 0.0
O74 O 0.49514 0.75902 0.40591 0.0
Co75 Co 0.49965 0.76293 0.45039 0.0
O76 O 0.48052 0.7651 0.43033 0.0
C77 C 0.51331 0.72876 0.44067 0.0
C78 C 0.54506 0.75883 0.40372 0.0
C79 C 0.4812 0.76181 0.41217 0.0
O80 O 0.51855 0.73573 0.42576 0.0
O81 O 0.50611 0.73784 0.45283 0.0
O82 O 0.52359 0.789 0.41497 0.0
O83 O 0.51941 0.77678 0.44149 0.0
Co84 Co 0.56272 0.29434 0.6476 0.0
O85 O 0.53795 0.29191 0.64267 0.0
O86 O 0.55228 0.28641 0.66981 0.0
C87 C 0.56802 0.32328 0.63674 0.0
O88 O 0.58814 0.29579 0.65929 0.0
Co89 Co 0.58521 0.2973 0.61569 0.0
O90 O 0.60509 0.3015 0.63685 0.0
C91 C 0.56507 0.26001 0.61901 0.0
C92 C 0.5376 0.28745 0.66012 0.0
C93 C 0.60314 0.29884 0.6542 0.0
O94 O 0.56076 0.26703 0.63509 0.0
O95 O 0.57356 0.27021 0.60851 0.0
O96 O 0.56511 0.32176 0.65442 0.0
O97 O 0.56703 0.30739 0.62593 0.0
Co98 Co 0.01882 0.26207 0.91768 0.0
O99 O 0.0436 0.26472 0.92206 0.0
O100 O 0.02733 0.25349 0.89383 0.0
C101 C 0.0186 0.29169 0.93258 0.0
O102 O 0.99285 0.25857 0.90655 0.0
Co103 Co 0.99808 0.2637 0.95127 0.0
O104 O 0.97925 0.26674 0.93126 0.0
C105 C 0.0111 0.22906 0.94153 0.0
C106 C 0.04269 0.25836 0.90373 0.0
C107 C 0.97933 0.26245 0.91306 0.0
O108 O 0.01644 0.23577 0.92653 0.0
O109 O 1.00407 0.23842 0.95364 0.0
O110 O 0.02118 0.28873 0.91461 0.0
O111 O 0.01751 0.277 0.94148 0.0
Co112 Co 0.41134 0.05182 0.27487 0.0
O113 O 0.41425 0.0803 0.27724 0.0
O114 O 0.39009 0.06194 0.26646 0.0
C115 C 0.42614 0.05057 0.30676 0.0
O116 O 0.40039 0.02249 0.27174 0.0
Co117 Co 0.43859 0.02758 0.27744 0.0
O118 O 0.42063 1.00696 0.28247 0.0
C119 C 0.43292 0.04409 0.2406 0.0
C120 C 0.39803 0.07929 0.27135 0.0
C121 C 0.40495 1.00726 0.27719 0.0
O122 O 0.41949 0.04979 0.24653 0.0
O123 O 0.44258 0.03619 0.25175 0.0
O124 O 0.41053 0.05327 0.30387 0.0
O125 O 0.43257 0.04977 0.29078 0.0
Co126 Co 0.27136 0.14817 0.50608 0.0
O127 O 0.29627 0.1528 0.50949 0.0
O128 O 0.28031 0.12613 0.51298 0.0
C129 C 0.26873 0.16126 0.47749 0.0
O130 O 0.24542 0.13693 0.5034 0.0
Co131 Co 0.24975 0.17898 0.50369 0.0
O132 O 0.2295 0.15841 0.49692 0.0
C133 C 0.26648 0.17275 0.54254 0.0
C134 C 0.29555 0.13564 0.51303 0.0
C135 C 0.23072 0.1417 0.49951 0.0
O136 O 0.27201 0.15849 0.53478 0.0
O137 O 0.25842 0.18296 0.53245 0.0
O138 O 0.27048 0.14388 0.47733 0.0
O139 O 0.26888 0.17011 0.49461 0.0
Co140 Co 0.1484 0.0415 0.80964 0.0
O141 O 0.14176 0.01436 0.80642 0.0
O142 O 0.16597 0.02994 0.79994 0.0
C143 C 0.14054 0.046 0.83979 0.0
O144 O 0.16089 0.06884 0.81178 0.0
Co145 Co 0.12402 0.06873 0.81411 0.0
O146 O 0.14425 0.0894 0.81867 0.0
C147 C 0.12408 0.04856 0.77488 0.0
C148 C 0.15635 0.01386 0.80067 0.0
C149 C 0.15862 0.08582 0.81564 0.0
O150 O 0.13698 0.04179 0.78187 0.0
O151 O 0.11648 0.05867 0.78561 0.0
O152 O 0.15529 0.04186 0.83773 0.0
O153 O 0.13076 0.04668 0.82366 0.0
Co154 Co 0.25188 0.8745 1.00643 0.0
O155 O 0.23318 0.86976 0.02077 0.0
O156 O 0.2537 0.89525 0.02661 0.0
C157 C 0.23657 0.86607 0.97631 0.0
O158 O 0.27248 0.88512 0.99472 0.0
Co159 Co 0.26238 0.84355 0.97909 0.0
O160 O 0.27824 0.86444 0.97142 0.0
C161 C 0.27386 0.84786 0.02174 0.0
C162 C 0.23961 0.88619 0.03084 0.0
C163 C 0.28103 0.88079 0.98123 0.0
O164 O 0.26651 0.86201 0.02449 0.0
O165 O 0.27273 0.83806 1.00502 0.0
O166 O 0.23733 0.88271 0.98569 0.0
O167 O 0.24356 0.85468 0.98606 0.0
Co168 Co 0.30341 0.3991 0.04808 0.0
O169 O 0.27867 0.39506 0.04605 0.0
O170 O 0.29589 0.42197 0.05802 0.0
C171 C 0.30325 0.38539 0.01696 0.0
O172 O 0.32958 0.40933 0.05125 0.0
Co173 Co 0.32255 0.3661 0.04346 0.0
O174 O 0.34178 0.38576 0.03992 0.0
C175 C 0.30713 0.37311 0.07911 0.0
C176 C 0.28029 0.41262 0.05308 0.0
C177 C 0.34252 0.40315 0.04559 0.0
O178 O 0.30504 0.38947 0.07478 0.0
O179 O 0.31251 0.36135 0.06761 0.0
O180 O 0.30155 0.40277 0.0204 0.0
O181 O 0.30385 0.37667 0.03203 0.0
Co182 Co 0.82734 0.17579 0.04966 0.0
O183 O 0.84952 0.17805 0.04192 0.0
O184 O 0.83589 0.1534 0.05322 0.0
C185 C 0.81422 0.18601 0.02378 0.0
O186 O 0.80431 0.16753 0.05767 0.0
Co187 Co 0.80991 0.20996 0.05782 0.0
O188 O 0.789 0.1903 0.0556 0.0
C189 C 0.83821 0.20386 0.08657 0.0
C190 C 0.84906 0.16109 0.0461 0.0
C191 C 0.79015 0.17334 0.05723 0.0
O192 O 0.83773 0.18749 0.07722 0.0
O193 O 0.82931 0.21543 0.08018 0.0
O194 O 0.81655 0.16878 0.02242 0.0
O195 O 0.82148 0.1968 0.03976 0.0
Co196 Co 0.16627 0.50317 0.29736 0.0
O197 O 0.16286 0.47468 0.29613 0.0
O198 O 0.18631 0.49134 0.29166 0.0
C199 C 0.15418 0.50844 0.32709 0.0
O200 O 0.17794 0.5321 0.29816 0.0
Co201 Co 0.14097 0.52954 0.29805 0.0
O202 O 0.15997 0.55178 0.30263 0.0
C203 C 0.14192 0.50772 0.25952 0.0
C204 C 0.17843 0.47457 0.29306 0.0
C205 C 0.17484 0.54918 0.30059 0.0
O206 O 0.15538 0.50158 0.26735 0.0
O207 O 0.13401 0.51766 0.27002 0.0
O208 O 0.16972 0.50568 0.32713 0.0
O209 O 0.14645 0.50781 0.30949 0.0
Co210 Co 0.80548 0.90015 0.54844 0.0
O211 O 0.78073 0.89568 0.54629 0.0
O212 O 0.79755 0.92257 0.55903 0.0
C213 C 0.80549 0.88711 0.5171 0.0
O214 O 0.83164 0.91078 0.55172 0.0
Co215 Co 0.82493 0.86735 0.54317 0.0
O216 O 0.84447 0.88735 0.54143 0.0
C217 C 0.80943 0.87351 0.57885 0.0
C218 C 0.78203 0.91306 0.55376 0.0
C219 C 0.84495 0.90471 0.547 0.0
O220 O 0.80729 0.88996 0.57488 0.0
O221 O 0.81478 0.86196 0.56706 0.0
O222 O 0.8034 0.90431 0.52088 0.0
O223 O 0.80629 0.87812 0.53196 0.0
Co224 Co 0.93164 0.01143 0.26109 0.0
O225 O 0.93587 0.03858 0.26285 0.0
O226 O 0.9116 0.01958 0.24937 0.0
C227 C 0.94294 0.01086 0.29262 0.0
O228 O 0.92128 0.98335 0.25759 0.0
Co229 Co 0.95958 0.98811 0.2671 0.0
O230 O 0.94073 0.96707 0.26876 0.0
C231 C 0.95518 1.00594 0.23125 0.0
C232 C 0.92012 0.03667 0.25449 0.0
C233 C 0.92535 0.96808 0.2626 0.0
O234 O 0.94075 1.00939 0.2352 0.0
O235 O 0.96519 0.999 0.24302 0.0
O236 O 0.92742 0.01338 0.28813 0.0
O237 O 0.95145 1.00986 0.27823 0.0
Co238 Co 0.33075 0.6687 0.54622 0.0
O239 O 0.3545 0.66874 0.54634 0.0
O240 O 0.3353 0.64478 0.55167 0.0
C241 C 0.32514 0.68083 0.51862 0.0
O242 O 0.30527 0.66327 0.54634 0.0
Co243 Co 0.31787 0.70634 0.55051 0.0
O244 O 0.29502 0.68961 0.54284 0.0
C245 C 0.33642 0.69468 0.58471 0.0
C246 C 0.35096 0.65151 0.54987 0.0
C247 C 0.2928 0.67196 0.54331 0.0
O248 O 0.33534 0.67843 0.5749 0.0
O249 O 0.33179 0.70849 0.57713 0.0
O250 O 0.32617 0.66322 0.51793 0.0
O251 O 0.33024 0.69097 0.53557 0.0
Co252 Co 0.42945 0.50806 0.75558 0.0
O253 O 0.43388 0.53522 0.75708 0.0
O254 O 0.40937 0.51653 0.74411 0.0
C255 C 0.44122 0.50797 0.78711 0.0
O256 O 0.41899 0.47986 0.75247 0.0
Co257 Co 0.45739 0.48457 0.76209 0.0
O258 O 0.43844 0.46445 0.76554 0.0
C259 C 0.45266 0.50156 0.72556 0.0
C260 C 0.41807 0.53357 0.74908 0.0
C261 C 0.4231 0.46507 0.75879 0.0
O262 O 0.43839 0.50558 0.72952 0.0
O263 O 0.46252 0.49454 0.73743 0.0
O264 O 0.42565 0.51047 0.78287 0.0
O265 O 0.44937 0.50658 0.77247 0.0
Co266 Co 0.66603 1.0006 0.79774 0.0
O267 O 0.6628 0.97201 0.7957 0.0
O268 O 0.68643 0.9892 0.79257 0.0
C269 C 0.65323 1.00527 0.82715 0.0
O270 O 0.67754 0.0297 0.79942 0.0
Co271 Co 0.6398 0.02621 0.79807 0.0
O272 O 0.6584 0.04853 0.80028 0.0
C273 C 0.64331 1.00691 0.75922 0.0
C274 C 0.67857 0.97224 0.79326 0.0
C275 C 0.67369 0.04646 0.79997 0.0
O276 O 0.65605 0.99984 0.76748 0.0
O277 O 0.63488 0.01635 0.76951 0.0
O278 O 0.66875 1.00239 0.82749 0.0
O279 O 0.64586 1.00478 0.80942 0.0
Co280 Co 0.76796 0.64895 1.0056 0.0
O281 O 0.79287 0.65342 0.00882 0.0
O282 O 0.77683 0.62693 0.01268 0.0
C283 C 0.76514 0.66168 0.97677 0.0
O284 O 0.742 0.63783 1.00322 0.0
Co285 Co 0.74655 0.67987 1.00324 0.0
O286 O 0.72612 0.65949 0.99739 0.0
C287 C 0.76418 0.67445 0.04194 0.0
C288 C 0.79208 0.63632 0.0126 0.0
C289 C 0.7273 0.64273 0.9998 0.0
O290 O 0.76898 0.65965 0.03426 0.0
O291 O 0.75629 0.68473 0.03175 0.0
O292 O 0.76687 0.64431 0.97685 0.0
O293 O 0.76546 0.67076 0.99383 0.0
Co294 Co 0.91075 0.54872 0.77443 0.0
O295 O 0.91392 0.57723 0.77689 0.0
O296 O 0.88968 0.5591 0.76597 0.0
C297 C 0.92545 0.54723 0.80628 0.0
O298 O 0.89944 0.51946 0.7713 0.0
Co299 Co 0.93766 0.52418 0.77665 0.0
O300 O 0.91943 0.50208 0.7771 0.0
C301 C 0.93251 0.54128 0.7403 0.0
C302 C 0.89775 0.5764 0.77088 0.0
C303 C 0.90378 0.50327 0.77366 0.0
O304 O 0.91893 0.54674 0.74608 0.0
O305 O 0.94215 0.53346 0.75152 0.0
O306 O 0.90987 0.55006 0.80338 0.0
O307 O 0.93194 0.54644 0.79033 0.0
Co308 Co 0.7498 0.37803 0.50663 0.0
O309 O 0.73083 0.37331 0.52077 0.0
O310 O 0.7466 0.40127 0.52005 0.0
C311 C 0.73738 0.35982 0.47824 0.0
O312 O 0.76961 0.38905 0.4938 0.0
Co313 Co 0.76811 0.34706 0.49006 0.0
O314 O 0.77864 0.36668 0.47554 0.0
C315 C 0.77745 0.36418 0.53176 0.0
C316 C 0.73396 0.39138 0.52631 0.0
C317 C 0.77891 0.38388 0.48145 0.0
O318 O 0.76634 0.37479 0.52979 0.0
O319 O 0.77948 0.35195 0.51803 0.0
O320 O 0.73429 0.37663 0.4821 0.0
O321 O 0.74635 0.35406 0.49222 0.0
Co322 Co 0.64815 0.5457 0.30362 0.0
O323 O 0.64228 0.5185 0.29896 0.0
O324 O 0.66639 0.53558 0.29394 0.0
C325 C 0.63977 0.5482 0.33349 0.0
O326 O 0.66005 0.57329 0.30737 0.0
Co327 Co 0.62331 0.57209 0.30931 0.0
O328 O 0.64333 0.59304 0.31629 0.0
C329 C 0.62401 0.55372 0.26941 0.0
C330 C 0.65724 0.51904 0.29383 0.0
C331 C 0.65775 0.58997 0.31281 0.0
O332 O 0.63707 0.54704 0.27605 0.0
O333 O 0.61612 0.5631 0.28052 0.0
O334 O 0.65475 0.54479 0.3314 0.0
O335 O 0.63006 0.54948 0.3175 0.0
Tb336 Tb 0.02569 0.01469 0.02334 0.0
Tb337 Tb 0.06238 0.03488 0.04295 0.0
C338 C 0.99455 1.00034 0.01594 0.0
C339 C 0.98027 1.01021 0.01597 0.0
C340 C 0.98332 0.02862 0.02576 0.0
C341 C 0.97051 0.03902 0.02486 0.0
C342 C 0.95437 0.0313 0.01395 0.0
C343 C 0.95124 0.01288 1.00395 0.0
C344 C 0.96417 1.00232 1.00503 0.0
C345 C 0.04869 0.01777 0.99989 0.0
C346 C 0.03765 0.05826 0.0216 0.0
C347 C 0.09423 0.04421 0.04859 0.0
C348 C 0.10693 0.0321 0.04935 0.0
C349 C 0.10168 0.01276 0.04294 0.0
C350 C 0.11288 1.00056 0.04625 0.0
C351 C 0.12968 1.00747 0.05587 0.0
C352 C 0.13506 0.02697 0.0618 0.0
C353 C 0.12371 0.03918 0.05866 0.0
C354 C 0.0397 0.03983 0.06682 0.0
C355 C 0.04938 0.9915 0.04726 0.0
O356 O 1.00388 1.00122 0.03304 0.0
O357 O 1.00385 1.00395 1.00239 0.0
O358 O 0.05127 0.01484 0.01755 0.0
O359 O 0.03256 0.01699 0.9946 0.0
O360 O 0.02456 0.04458 0.0225 0.0
O361 O 0.05372 0.05666 0.02713 0.0
O362 O 0.0848 0.04342 0.03152 0.0
O363 O 0.08515 0.04326 0.06274 0.0
O364 O 0.03739 0.03166 0.04954 0.0
O365 O 0.05588 0.04694 0.07097 0.0
O366 O 0.06187 1.00657 0.05107 0.0
O367 O 0.03462 0.99133 0.0361 0.0
H368 H 0.99575 0.0352 0.03381 0.0
H369 H 0.97339 0.05335 0.03229 0.0
H370 H 0.93888 1.00674 0.99535 0.0
H371 H 0.96174 0.98822 0.99709 0.0
H372 H 0.08873 1.00696 0.03588 0.0
H373 H 0.10818 0.98564 0.04177 0.0
H374 H 0.148 0.03279 0.06897 0.0
H375 H 0.12791 0.05406 0.06389 0.0
Tb376 Tb 0.29311 0.77111 0.26542 0.0
Tb377 Tb 0.2879 0.78437 0.30859 0.0
C378 C 0.29066 0.76394 0.22922 0.0
C379 C 0.30273 0.76969 0.21616 0.0
C380 C 0.30019 0.76076 0.19687 0.0
C381 C 0.31048 0.76782 0.1838 0.0
C382 C 0.32326 0.78402 0.18989 0.0
C383 C 0.32648 0.79218 0.20956 0.0
C384 C 0.31636 0.78495 0.22267 0.0
C385 C 0.32125 0.77192 0.2915 0.0
C386 C 0.30739 0.8146 0.28423 0.0
C387 C 0.29089 0.79146 0.34487 0.0
C388 C 0.27901 0.78603 0.3582 0.0
C389 C 0.2847 0.78918 0.37833 0.0
C390 C 0.27444 0.78109 0.39087 0.0
C391 C 0.25833 0.76966 0.38341 0.0
C392 C 0.25217 0.76781 0.36331 0.0
C393 C 0.26249 0.77588 0.35077 0.0
C394 C 0.25995 0.78447 0.28259 0.0
C395 C 0.27328 0.74087 0.28976 0.0
O396 O 0.28471 0.77774 0.23792 0.0
O397 O 0.29525 0.75243 0.24114 0.0
O398 O 0.30688 0.77525 0.29413 0.0
O399 O 0.32006 0.76788 0.27275 0.0
O400 O 0.30263 0.80203 0.268 0.0
O401 O 0.30431 0.80997 0.30161 0.0
O402 O 0.29638 0.7774 0.33596 0.0
O403 O 0.28634 0.80307 0.33305 0.0
O404 O 0.27396 0.78009 0.27982 0.0
O405 O 0.26149 0.78911 0.30133 0.0
O406 O 0.27759 0.7536 0.3059 0.0
O407 O 0.27693 0.74529 0.27247 0.0
H408 H 0.2898 0.74889 0.19171 0.0
H409 H 0.30763 0.76143 0.16863 0.0
H410 H 0.33624 0.80469 0.21454 0.0
H411 H 0.31865 0.79182 0.23765 0.0
H412 H 0.29745 0.79695 0.38423 0.0
H413 H 0.27977 0.78257 0.4062 0.0
H414 H 0.23982 0.7592 0.35713 0.0
H415 H 0.25793 0.77333 0.33518 0.0
Tb416 Tb 0.55548 0.02535 0.5248 0.0
Tb417 Tb 0.52018 0.02216 0.53714 0.0
C418 C 0.58702 0.02512 0.52586 0.0
C419 C 0.60052 0.01385 0.53077 0.0
C420 C 0.61328 0.02019 0.54724 0.0
C421 C 0.62737 0.01135 0.55059 0.0
C422 C 0.62928 0.99591 0.5375 0.0
C423 C 0.61621 0.98924 0.5213 0.0
C424 C 0.60211 0.99807 0.51797 0.0
C425 C 0.5327 0.03246 0.49486 0.0
C426 C 0.5314 0.98494 0.5185 0.0
C427 C 0.48847 0.01924 0.53824 0.0
C428 C 0.47485 0.03078 0.53703 0.0
C429 C 0.47373 0.04381 0.52372 0.0
C430 C 0.45999 0.05343 0.52207 0.0
C431 C 0.44702 0.05036 0.53372 0.0
C432 C 0.4484 0.03748 0.54719 0.0
C433 C 0.46206 0.02787 0.54878 0.0
C434 C 0.54617 0.02195 0.56631 0.0
C435 C 0.54314 0.06206 0.54155 0.0
O436 O 0.5807 0.03331 0.54016 0.0
O437 O 0.57535 0.01859 0.51047 0.0
O438 O 0.53053 0.02866 0.5118 0.0
O439 O 0.54892 0.0332 0.495 0.0
O440 O 0.54652 0.99511 0.51771 0.0
O441 O 0.51932 0.99233 0.52597 0.0
O442 O 0.49488 0.01523 0.52239 0.0
O443 O 0.50023 0.02309 0.55378 0.0
O444 O 0.54415 0.0141 0.54859 0.0
O445 O 0.5329 0.02947 0.56791 0.0
O446 O 0.52731 0.05238 0.53718 0.0
O447 O 0.5564 0.05379 0.54004 0.0
H448 H 0.61263 0.03237 0.55734 0.0
H449 H 0.63687 0.01679 0.56343 0.0
H450 H 0.61714 0.97758 0.51069 0.0
H451 H 0.59272 0.99284 0.50498 0.0
H452 H 0.48338 0.04648 0.51448 0.0
H453 H 0.45962 0.06336 0.51171 0.0
H454 H 0.43866 0.0344 0.55624 0.0
H455 H 0.46247 0.01783 0.55905 0.0
Tb456 Tb 0.2722 0.27558 0.78039 0.0
Tb457 Tb 0.31008 0.27121 0.78582 0.0
C458 C 0.24067 0.27267 0.78276 0.0
C459 C 0.22733 0.27388 0.79564 0.0
C460 C 0.22543 0.26276 0.81074 0.0
C461 C 0.21117 0.26201 0.82053 0.0
C462 C 0.19827 0.27219 0.8154 0.0
C463 C 0.20053 0.28372 0.80069 0.0
C464 C 0.21478 0.28453 0.791 0.0
C465 C 0.29457 0.30383 0.77277 0.0
C466 C 0.29603 0.287 0.82277 0.0
C467 C 0.34154 0.27462 0.78317 0.0
C468 C 0.3544 0.27295 0.76978 0.0
C469 C 0.35606 0.28402 0.75461 0.0
C470 C 0.36986 0.28428 0.74417 0.0
C471 C 0.38248 0.27356 0.7486 0.0
C472 C 0.38048 0.26217 0.76347 0.0
C473 C 0.36671 0.2619 0.77388 0.0
C474 C 0.28783 0.24301 0.79364 0.0
C475 C 0.28636 0.2594 0.74345 0.0
O476 O 0.24901 0.25889 0.78361 0.0
O477 O 0.25038 0.28815 0.77982 0.0
O478 O 0.29664 0.29376 0.78604 0.0
O479 O 0.27888 0.29905 0.76383 0.0
O480 O 0.28043 0.28192 0.81236 0.0
O481 O 0.30993 0.28582 0.81485 0.0
O482 O 0.33286 0.28808 0.78177 0.0
O483 O 0.33226 0.25929 0.78709 0.0
O484 O 0.28565 0.25301 0.7803 0.0
O485 O 0.30358 0.24777 0.80241 0.0
O486 O 0.30188 0.26412 0.75401 0.0
O487 O 0.27241 0.2612 0.75112 0.0
H488 H 0.23469 0.25417 0.81461 0.0
H489 H 0.20995 0.25285 0.83163 0.0
H490 H 0.19115 0.29206 0.79646 0.0
H491 H 0.21571 0.29308 0.77934 0.0
H492 H 0.34694 0.29286 0.75109 0.0
H493 H 0.37067 0.29304 0.73268 0.0
H494 H 0.38993 0.25391 0.76767 0.0
H495 H 0.36602 0.2535 0.78568 0.0
Tb496 Tb 0.03865 0.04328 0.53402 0.0
Tb497 Tb 0.04271 1.00194 0.52716 0.0
C498 C 0.04447 0.07832 0.53566 0.0
C499 C 0.0457 0.09074 0.52066 0.0
C500 C 0.0473 0.08371 0.50153 0.0
C501 C 0.04515 0.09453 0.48644 0.0
C502 C 0.04105 0.11233 0.49028 0.0
C503 C 0.04017 0.11962 0.50957 0.0
C504 C 0.04251 0.1089 0.52467 0.0
C505 C 1.01054 0.02054 0.5405 0.0
C506 C 0.02519 0.02009 0.49217 0.0
C507 C 0.04086 0.96713 0.52121 0.0
C508 C 0.04982 0.95492 0.53225 0.0
C509 C 0.043 0.93569 0.53023 0.0
C510 C 0.04976 0.92458 0.54311 0.0
C511 C 0.06342 0.9326 0.55824 0.0
C512 C 0.07069 0.95175 0.55961 0.0
C513 C 0.06391 0.96283 0.54675 0.0
C514 C 0.07063 0.02763 0.52745 0.0
C515 C 0.05273 0.0239 0.56986 0.0
O516 O 0.05658 0.06862 0.53859 0.0
O517 O 0.02924 0.06814 0.53462 0.0
O518 O 0.02412 0.01646 0.53575 0.0
O519 O 0.01289 0.03869 0.54241 0.0
O520 O 0.03026 0.03698 0.50256 0.0
O521 O 0.0275 1.00454 0.49942 0.0
O522 O 0.03057 0.97515 0.5308 0.0
O523 O 0.05023 0.97891 0.5123 0.0
O524 O 0.0555 0.02829 0.52017 0.0
O525 O 0.07036 0.01177 0.53412 0.0
O526 O 0.04807 1.0072 0.55896 0.0
O527 O 0.05154 0.03978 0.56269 0.0
H528 H 0.04937 0.06956 0.49808 0.0
H529 H 0.04576 0.0886 0.47165 0.0
H530 H 0.03715 0.13341 0.51286 0.0
H531 H 0.04101 0.11442 0.53929 0.0
H532 H 0.03197 0.92945 0.5193 0.0
H533 H 0.04368 0.90994 0.54184 0.0
H534 H 0.08129 0.95829 0.57098 0.0
H535 H 0.06921 0.97774 0.54866 0.0
Tb536 Tb 0.2849 0.75332 0.77962 0.0
Tb537 Tb 0.28836 0.79608 0.77951 0.0
C538 C 0.28754 0.71922 0.77529 0.0
C539 C 0.30019 0.7072 0.77222 0.0
C540 C 0.31473 0.71306 0.76373 0.0
C541 C 0.32603 0.70082 0.76044 0.0
C542 C 0.3229 0.68248 0.76544 0.0
C543 C 0.30845 0.67693 0.77421 0.0
C544 C 0.29727 0.68913 0.77754 0.0
C545 C 0.2802 0.77328 0.81144 0.0
C546 C 0.32155 0.78083 0.78725 0.0
C547 C 0.28571 0.82998 0.78579 0.0
C548 C 0.27204 0.84098 0.78509 0.0
C549 C 0.25554 0.83342 0.78821 0.0
C550 C 0.24272 0.84413 0.78684 0.0
C551 C 0.24621 0.86267 0.78245 0.0
C552 C 0.26286 0.87008 0.77944 0.0
C553 C 0.27557 0.85934 0.7807 0.0
C554 C 0.29323 0.77669 0.74744 0.0
C555 C 0.25162 0.76867 0.77007 0.0
O556 O 0.2827 0.7281 0.76091 0.0
O557 O 0.28969 0.72963 0.79235 0.0
O558 O 0.2911 0.77787 0.80078 0.0
O559 O 0.27159 0.7565 0.8048 0.0
O560 O 0.31241 0.76367 0.78113 0.0
O561 O 0.31455 0.79571 0.79055 0.0
O562 O 0.28673 0.81919 0.79953 0.0
O563 O 0.28789 0.82173 0.7689 0.0
O564 O 0.28258 0.77161 0.75829 0.0
O565 O 0.30085 0.79393 0.75366 0.0
O566 O 0.2608 0.7858 0.776 0.0
O567 O 0.25857 0.75356 0.76785 0.0
H568 H 0.31723 0.72698 0.75948 0.0
H569 H 0.33698 0.70554 0.75358 0.0
H570 H 0.30577 0.66309 0.77859 0.0
H571 H 0.28619 0.68434 0.78417 0.0
H572 H 0.25258 0.81926 0.79165 0.0
H573 H 0.23007 0.8378 0.78903 0.0
H574 H 0.2663 0.88441 0.77661 0.0
H575 H 0.28825 0.86545 0.77834 0.0
Tb576 Tb 0.5232 0.03076 0.01603 0.0
Tb577 Tb 0.55297 0.02558 0.0445 0.0
C578 C 0.4951 0.02501 0.99354 0.0
C579 C 0.47693 0.01839 0.9938 0.0
C580 C 0.46674 1.00908 0.97637 0.0
C581 C 0.45004 1.00005 0.9764 0.0
C582 C 0.44324 1.00024 0.99389 0.0
C583 C 0.4532 1.01033 0.01125 0.0
C584 C 0.47004 0.01927 0.01124 0.0
C585 C 0.5428 0.06206 0.03477 0.0
C586 C 0.51841 0.02743 0.06202 0.0
C587 C 0.58177 0.03182 0.06548 0.0
C588 C 0.59962 0.03454 0.06236 0.0
C589 C 0.60442 0.04165 0.04564 0.0
C590 C 0.62162 0.04717 0.0443 0.0
C591 C 0.63432 0.04574 0.05968 0.0
C592 C 0.62946 0.0375 0.07585 0.0
C593 C 0.61221 0.03197 0.07718 0.0
C594 C 0.53293 0.9945 0.02631 0.0
C595 C 0.55778 0.02871 0.99836 0.0
O596 O 0.50447 0.01231 0.99587 0.0
O597 O 0.5024 0.04148 1.00337 0.0
O598 O 0.53862 0.04683 0.04119 0.0
O599 O 0.53517 0.06022 0.01677 0.0
O600 O 0.51103 0.02619 0.04325 0.0
O601 O 0.53525 0.02843 0.06605 0.0
O602 O 0.57368 0.04502 0.06043 0.0
O603 O 0.57247 0.01492 0.06015 0.0
O604 O 0.53741 1.00949 0.01959 0.0
O605 O 0.54084 0.99616 0.04417 0.0
O606 O 0.56477 0.02801 0.01684 0.0
O607 O 0.5413 0.02967 0.99455 0.0
H608 H 0.47192 1.0082 0.96282 0.0
H609 H 0.44254 0.99254 0.9628 0.0
H610 H 0.44821 0.01059 0.02492 0.0
H611 H 0.47782 0.02629 0.02487 0.0
H612 H 0.59493 0.04392 0.0341 0.0
H613 H 0.6249 0.05368 0.03177 0.0
H614 H 0.63897 0.03601 0.08782 0.0
H615 H 0.60872 0.02648 0.09017 0.0
Tb616 Tb 0.27045 0.26245 0.27437 0.0
Tb617 Tb 0.30206 0.28825 0.29189 0.0
C618 C 0.2407 0.24352 0.27033 0.0
C619 C 0.22361 0.24787 0.2701 0.0
C620 C 0.21171 0.23635 0.27852 0.0
C621 C 0.19627 0.24152 0.28124 0.0
C622 C 0.19237 0.25833 0.27548 0.0
C623 C 0.20412 0.26953 0.26634 0.0
C624 C 0.21966 0.26439 0.26377 0.0
C625 C 0.2864 0.27932 0.24852 0.0
C626 C 0.26888 0.30713 0.28844 0.0
C627 C 0.33217 0.30626 0.29632 0.0
C628 C 0.34808 0.30032 0.29245 0.0
C629 C 0.34789 0.28704 0.27612 0.0
C630 C 0.36292 0.28167 0.27209 0.0
C631 C 0.37852 0.28951 0.28421 0.0
C632 C 0.37868 0.30245 0.30085 0.0
C633 C 0.36354 0.30783 0.30492 0.0
C634 C 0.28588 0.27108 0.31742 0.0
C635 C 0.30368 0.24381 0.27743 0.0
O636 O 0.25073 0.24871 0.28717 0.0
O637 O 0.24852 0.24736 0.25557 0.0
O638 O 0.28491 0.28642 0.26541 0.0
O639 O 0.27814 0.262 0.24537 0.0
O640 O 0.26053 0.28932 0.28251 0.0
O641 O 0.28591 0.31031 0.29255 0.0
O642 O 0.32083 0.30562 0.28082 0.0
O643 O 0.32531 0.29948 0.3106 0.0
O644 O 0.28769 0.26419 0.3006 0.0
O645 O 0.29391 0.28851 0.32077 0.0
O646 O 0.31191 0.26177 0.28209 0.0
O647 O 0.28665 0.24044 0.27479 0.0
H648 H 0.21466 0.22369 0.28375 0.0
H649 H 0.18776 0.23272 0.28869 0.0
H650 H 0.20147 0.28244 0.26152 0.0
H651 H 0.22878 0.27358 0.25738 0.0
H652 H 0.33615 0.28093 0.26627 0.0
H653 H 0.36234 0.27145 0.25935 0.0
H654 H 0.39055 0.30879 0.31038 0.0
H655 H 0.36393 0.31803 0.31762 0.0
Tb656 Tb 0.53336 0.54275 0.02892 0.0
Tb657 Tb 0.53746 0.50117 0.02369 0.0
C658 C 0.53386 0.57631 0.02453 0.0
C659 C 0.53443 0.5859 0.00714 0.0
C660 C 0.54636 0.60252 0.00796 0.0
C661 C 0.54738 0.61144 0.99138 0.0
C662 C 0.53651 0.6038 0.97366 0.0
C663 C 0.5247 0.58702 0.97284 0.0
C664 C 0.52365 0.57818 0.98943 0.0
C665 C 0.50816 0.51809 0.0376 0.0
C666 C 0.52425 0.51772 0.9864 0.0
C667 C 0.53209 0.46711 0.02727 0.0
C668 C 0.54047 0.45628 0.04099 0.0
C669 C 0.53818 0.45807 0.06071 0.0
C670 C 0.54649 0.44834 0.07381 0.0
C671 C 0.55727 0.43654 0.06756 0.0
C672 C 0.55952 0.43463 0.04783 0.0
C673 C 0.55117 0.4444 0.03466 0.0
C674 C 0.56663 0.52395 0.02046 0.0
C675 C 0.55021 0.52734 0.06519 0.0
O676 O 0.54762 0.57 0.03053 0.0
O677 O 0.5198 0.56422 0.02468 0.0
O678 O 0.5166 0.51577 0.02379 0.0
O679 O 0.51345 0.53512 0.04663 0.0
O680 O 0.52855 0.53466 0.99698 0.0
O681 O 0.52523 0.50215 0.99417 0.0
O682 O 0.52377 0.47918 0.03509 0.0
O683 O 0.54101 0.47393 0.01436 0.0
O684 O 0.55256 0.52786 0.02357 0.0
O685 O 0.56452 0.50579 0.01904 0.0
O686 O 0.54556 0.51017 0.0552 0.0
O687 O 0.54801 0.5426 0.05737 0.0
H688 H 0.55484 0.60865 0.02146 0.0
H689 H 0.55636 0.62459 0.99258 0.0
H690 H 0.51623 0.58076 0.95938 0.0
H691 H 0.51438 0.56527 0.98834 0.0
H692 H 0.52994 0.46699 0.06614 0.0
H693 H 0.54413 0.44977 0.08878 0.0
H694 H 0.56778 0.42565 0.04259 0.0
H695 H 0.55314 0.44273 0.01955 0.0
Tb696 Tb 0.78989 0.25854 0.2727 0.0
Tb697 Tb 0.79174 0.30105 0.27226 0.0
C698 C 0.78991 0.22448 0.26196 0.0
C699 C 0.80218 0.21164 0.26352 0.0
C700 C 0.81873 0.21663 0.25903 0.0
C701 C 0.82954 0.20359 0.25866 0.0
C702 C 0.8241 0.1853 0.26288 0.0
C703 C 0.80773 0.18061 0.26801 0.0
C704 C 0.79689 0.19361 0.26825 0.0
C705 C 0.78785 0.27782 0.30624 0.0
C706 C 0.8238 0.28722 0.29068 0.0
C707 C 0.78798 0.33447 0.27283 0.0
C708 C 0.77492 0.34613 0.27435 0.0
C709 C 0.7634 0.34402 0.28772 0.0
C710 C 0.75185 0.35618 0.28931 0.0
C711 C 0.75159 0.37059 0.27752 0.0
C712 C 0.76282 0.37218 0.26377 0.0
C713 C 0.77437 0.36015 0.26228 0.0
C714 C 0.80512 0.28311 0.24516 0.0
C715 C 0.75563 0.27259 0.26054 0.0
O716 O 0.79323 0.2378 0.25119 0.0
O717 O 0.78441 0.23039 0.27796 0.0
O718 O 0.78193 0.28077 0.28949 0.0
O719 O 0.79388 0.26243 0.3047 0.0
O720 O 0.81703 0.27009 0.28142 0.0
O721 O 0.81512 0.30102 0.29179 0.0
O722 O 0.79359 0.32753 0.28848 0.0
O723 O 0.78585 0.32256 0.25671 0.0
O724 O 0.79175 0.27731 0.25172 0.0
O725 O 0.81146 0.30004 0.25358 0.0
O726 O 0.76427 0.29018 0.26414 0.0
O727 O 0.76303 0.25794 0.26251 0.0
H728 H 0.82319 0.23046 0.25533 0.0
H729 H 0.84196 0.2077 0.25448 0.0
H730 H 0.80321 0.16681 0.27174 0.0
H731 H 0.78422 0.18945 0.27178 0.0
H732 H 0.76346 0.33319 0.2971 0.0
H733 H 0.74345 0.35464 0.3001 0.0
H734 H 0.76273 0.38279 0.25413 0.0
H735 H 0.78305 0.36193 0.25176 0.0
Tb736 Tb 0.02244 0.5237 0.51519 0.0
Tb737 Tb 0.05361 0.52646 0.54448 0.0
C738 C 0.9943 0.51133 0.49343 0.0
C739 C 0.97576 0.50918 0.49245 0.0
C740 C 0.96749 0.5028 0.50759 0.0
C741 C 0.94971 0.49755 0.50469 0.0
C742 C 0.93999 0.49859 0.48664 0.0
C743 C 0.94829 0.50615 0.47204 0.0
C744 C 0.96603 0.51135 0.47493 0.0
C745 C 0.03868 0.55836 0.52828 0.0
C746 C 0.01876 0.52594 0.5621 0.0
C747 C 0.08247 0.53713 0.56505 0.0
C748 C 0.09924 0.54554 0.56073 0.0
C749 C 0.10777 0.56285 0.57139 0.0
C750 C 0.12268 0.57231 0.56615 0.0
C751 C 0.12938 0.56452 0.55026 0.0
C752 C 0.12116 0.5469 0.53996 0.0
C753 C 0.10611 0.53752 0.54506 0.0
C754 C 0.03686 0.49226 0.53115 0.0
C755 C 0.05753 0.52539 0.49804 0.0
O756 O 1.00205 0.50135 0.50488 0.0
O757 O 1.00309 0.5283 0.4939 0.0
O758 O 0.03668 0.54473 0.53778 0.0
O759 O 0.0298 0.55302 0.51095 0.0
O760 O 0.01106 0.52337 0.54334 0.0
O761 O 0.03571 0.52807 0.56602 0.0
O762 O 0.07103 0.54772 0.56324 0.0
O763 O 0.07627 0.51958 0.55761 0.0
O764 O 0.0396 0.50577 0.52163 0.0
O765 O 0.04459 0.49745 0.54904 0.0
O766 O 0.06501 0.53022 0.51679 0.0
O767 O 0.04056 0.52051 0.4941 0.0
H768 H 0.97477 0.50104 0.52127 0.0
H769 H 0.94369 0.49167 0.51617 0.0
H770 H 0.94111 0.50741 0.45811 0.0
H771 H 0.9722 0.51626 0.4631 0.0
H772 H 0.10263 0.56931 0.58345 0.0
H773 H 0.12893 0.58579 0.57446 0.0
H774 H 0.12609 0.54069 0.5276 0.0
H775 H 0.09966 0.52426 0.53644 0.0
Tb776 Tb 0.774 0.77814 0.27939 0.0
Tb777 Tb 0.81189 0.7735 0.28602 0.0
C778 C 0.74244 0.77484 0.2816 0.0
C779 C 0.72933 0.77553 0.29488 0.0
C780 C 0.72699 0.763 0.30868 0.0
C781 C 0.7129 0.76197 0.31876 0.0
C782 C 0.70063 0.77331 0.31527 0.0
C783 C 0.70335 0.78622 0.30191 0.0
C784 C 0.71742 0.78728 0.29189 0.0
C785 C 0.79664 0.806 0.27175 0.0
C786 C 0.79719 0.79025 0.32209 0.0
C787 C 0.84343 0.77688 0.28392 0.0
C788 C 0.85662 0.77378 0.27139 0.0
C789 C 0.85665 0.78005 0.25303 0.0
C790 C 0.8706 0.77942 0.24297 0.0
C791 C 0.88509 0.77283 0.25105 0.0
C792 C 0.88462 0.76589 0.26909 0.0
C793 C 0.87066 0.76641 0.27906 0.0
C794 C 0.78922 0.74582 0.29379 0.0
C795 C 0.78859 0.76111 0.24318 0.0
O796 O 0.75076 0.76099 0.28167 0.0
O797 O 0.75213 0.79055 0.27919 0.0
O798 O 0.79854 0.79615 0.28528 0.0
O799 O 0.78096 0.80132 0.26268 0.0
O800 O 0.78178 0.78558 0.31125 0.0
O801 O 0.8113 0.78833 0.31489 0.0
O802 O 0.83435 0.7896 0.28008 0.0
O803 O 0.83447 0.76236 0.28974 0.0
O804 O 0.78742 0.75563 0.28024 0.0
O805 O 0.80489 0.75037 0.30283 0.0
O806 O 0.80391 0.76477 0.25426 0.0
O807 O 0.77462 0.76409 0.25018 0.0
H808 H 0.73575 0.75356 0.31127 0.0
H809 H 0.71125 0.75172 0.32873 0.0
H810 H 0.69446 0.79545 0.29897 0.0
H811 H 0.71869 0.79694 0.28126 0.0
H812 H 0.84611 0.78593 0.24667 0.0
H813 H 0.87024 0.78475 0.22914 0.0
H814 H 0.89515 0.76016 0.2757 0.0
H815 H 0.8711 0.76154 0.29319 0.0
Tb816 Tb 0.79118 0.26825 0.76413 0.0
Tb817 Tb 0.78524 0.28148 0.80702 0.0
C818 C 0.78834 0.26372 0.72777 0.0
C819 C 0.79852 0.27404 0.71524 0.0
C820 C 0.79065 0.27634 0.69678 0.0
C821 C 0.79845 0.29005 0.68679 0.0
C822 C 0.81419 0.3016 0.69519 0.0
C823 C 0.82266 0.29843 0.71304 0.0
C824 C 0.81478 0.28477 0.72312 0.0
C825 C 0.81902 0.26881 0.7904 0.0
C826 C 0.80551 0.31183 0.78333 0.0
C827 C 0.7865 0.28837 0.84306 0.0
C828 C 0.77338 0.28265 0.85491 0.0
C829 C 0.75869 0.26929 0.8465 0.0
C830 C 0.74727 0.26179 0.85821 0.0
C831 C 0.75038 0.26756 0.8785 0.0
C832 C 0.76426 0.28231 0.88647 0.0
C833 C 0.77576 0.28968 0.87477 0.0
C834 C 0.75754 0.28094 0.78045 0.0
C835 C 0.77183 0.23764 0.78807 0.0
O836 O 0.77979 0.27414 0.73752 0.0
O837 O 0.79598 0.25317 0.73866 0.0
O838 O 0.80486 0.2729 0.79313 0.0
O839 O 0.81756 0.26385 0.77171 0.0
O840 O 0.80197 0.29895 0.76734 0.0
O841 O 0.80115 0.30759 0.80038 0.0
O842 O 0.79258 0.27448 0.83471 0.0
O843 O 0.78289 0.30023 0.8311 0.0
O844 O 0.77188 0.27724 0.77817 0.0
O845 O 0.75849 0.28508 0.79915 0.0
O846 O 0.77584 0.25045 0.80416 0.0
O847 O 0.77554 0.242 0.77079 0.0
H848 H 0.77802 0.26838 0.69066 0.0
H849 H 0.79184 0.29222 0.67288 0.0
H850 H 0.83479 0.30724 0.7197 0.0
H851 H 0.8209 0.28341 0.73757 0.0
H852 H 0.75651 0.26398 0.83104 0.0
H853 H 0.73657 0.25071 0.85156 0.0
H854 H 0.76709 0.28714 0.90203 0.0
H855 H 0.78692 0.30017 0.8814 0.0
Tb856 Tb 0.77256 0.76109 0.77275 0.0
Tb857 Tb 0.80392 0.78695 0.79062 0.0
C858 C 0.74266 0.74268 0.76902 0.0
C859 C 0.7267 0.74842 0.77275 0.0
C860 C 0.72708 0.76345 0.78739 0.0
C861 C 0.71204 0.7688 0.7913 0.0
C862 C 0.69621 0.75896 0.781 0.0
C863 C 0.69583 0.74404 0.76614 0.0
C864 C 0.71101 0.73885 0.76201 0.0
C865 C 0.78874 0.77779 0.74711 0.0
C866 C 0.77089 0.80582 0.78699 0.0
C867 C 0.83412 0.80465 0.79526 0.0
C868 C 0.85029 0.79833 0.79351 0.0
C869 C 0.86067 0.80647 0.78096 0.0
C870 C 0.87439 0.79866 0.77614 0.0
C871 C 0.87809 0.78268 0.78396 0.0
C872 C 0.8683 0.77507 0.79733 0.0
C873 C 0.85437 0.78274 0.80196 0.0
C874 C 0.78753 0.76973 0.81599 0.0
C875 C 0.80575 0.74255 0.77563 0.0
O876 O 0.7541 0.74412 0.7846 0.0
O877 O 0.74929 0.74912 0.75443 0.0
O878 O 0.78707 0.78506 0.7639 0.0
O879 O 0.78065 0.76037 0.74401 0.0
O880 O 0.76271 0.78793 0.78119 0.0
O881 O 0.78791 0.80915 0.79093 0.0
O882 O 0.82356 0.80215 0.77878 0.0
O883 O 0.82639 0.79995 0.80982 0.0
O884 O 0.78954 0.76286 0.79924 0.0
O885 O 0.79553 0.78716 0.81938 0.0
O886 O 0.81394 0.7604 0.78157 0.0
O887 O 0.78874 0.73914 0.77184 0.0
H888 H 0.73898 0.77092 0.7961 0.0
H889 H 0.71285 0.78059 0.80256 0.0
H890 H 0.68381 0.73606 0.75808 0.0
H891 H 0.71047 0.72719 0.7507 0.0
H892 H 0.85768 0.81837 0.77416 0.0
H893 H 0.88188 0.80482 0.76589 0.0
H894 H 0.87092 0.76268 0.80343 0.0
H895 H 0.84641 0.77601 0.81146 0.0
Tb896 Tb 0.53227 0.51276 0.51954 0.0
Tb897 Tb 0.56708 0.53525 0.54211 0.0
C898 C 0.50173 0.50065 0.50445 0.0
C899 C 0.4876 0.5101 0.49894 0.0
C900 C 0.47195 0.50422 0.50507 0.0
C901 C 0.45951 0.51523 0.50357 0.0
C902 C 0.46258 0.53228 0.49589 0.0
C903 C 0.47775 0.53737 0.48837 0.0
C904 C 0.49022 0.5264 0.48995 0.0
C905 C 0.55913 0.51314 0.50152 0.0
C906 C 0.54238 0.55785 0.51962 0.0
C907 C 0.59878 0.5452 0.54961 0.0
C908 C 0.6114 0.53765 0.56197 0.0
C909 C 0.62763 0.53813 0.55686 0.0
C910 C 0.63817 0.52671 0.56477 0.0
C911 C 0.63261 0.51457 0.57792 0.0
C912 C 0.61681 0.51521 0.58408 0.0
C913 C 0.60625 0.52659 0.5761 0.0
C914 C 0.54382 0.53232 0.56589 0.0
C915 C 0.55475 0.49162 0.54613 0.0
O916 O 0.50716 0.50259 0.52327 0.0
O917 O 0.51424 0.5029 0.49428 0.0
O918 O 0.55568 0.52639 0.51243 0.0
O919 O 0.54699 0.49858 0.50025 0.0
O920 O 0.53019 0.54236 0.51662 0.0
O921 O 0.55814 0.55805 0.52843 0.0
O922 O 0.59081 0.53319 0.53433 0.0
O923 O 0.58842 0.55395 0.55849 0.0
O924 O 0.5422 0.52629 0.54797 0.0
O925 O 0.55956 0.54102 0.57115 0.0
O926 O 0.56776 0.50582 0.54683 0.0
O927 O 0.5391 0.49203 0.53773 0.0
H928 H 0.46977 0.49172 0.5121 0.0
H929 H 0.44801 0.51104 0.50968 0.0
H930 H 0.48033 0.55032 0.48216 0.0
H931 H 0.50221 0.53122 0.48507 0.0
H932 H 0.63167 0.5463 0.54571 0.0
H933 H 0.65012 0.52642 0.55943 0.0
H934 H 0.61223 0.50624 0.59435 0.0
H935 H 0.59363 0.52584 0.58003 0.0
Tb936 Tb 0.05447 0.526 0.02466 0.0
Tb937 Tb 0.01807 0.52145 0.03544 0.0
C938 C 0.08519 0.52414 0.02182 0.0
C939 C 0.09882 0.51276 0.02438 0.0
C940 C 0.10095 0.50229 0.03997 0.0
C941 C 0.11511 0.49342 0.04293 0.0
C942 C 0.12757 0.49492 0.03049 0.0
C943 C 0.12507 0.50504 0.01465 0.0
C944 C 0.11094 0.51379 0.01167 0.0
C945 C 0.03017 0.53259 0.99676 0.0
C946 C 0.03084 0.48486 0.02031 0.0
C947 C 0.9869 0.52403 0.02992 0.0
C948 C 0.97355 0.53524 0.03407 0.0
C949 C 0.97331 0.55257 0.02703 0.0
C950 C 0.95913 0.56129 0.02742 0.0
C951 C 0.9446 0.55303 0.03483 0.0
C952 C 0.94516 0.53605 0.04255 0.0
C953 C 0.95935 0.52727 0.04208 0.0
C954 C 0.04108 0.51919 0.06734 0.0
C955 C 0.0431 0.56177 0.04509 0.0
O956 O 0.0803 0.53171 0.03752 0.0
O957 O 0.07243 0.51829 0.00742 0.0
O958 O 0.02866 0.52038 0.00846 0.0
O959 O 0.04613 0.54088 1.00026 0.0
O960 O 0.04639 0.49532 0.02234 0.0
O961 O 0.01734 0.49227 0.02332 0.0
O962 O 0.99837 0.53133 0.01993 0.0
O963 O 0.99323 0.51438 0.04296 0.0
O964 O 0.04342 0.52184 0.05009 0.0
O965 O 0.02464 0.51768 0.06675 0.0
O966 O 0.02748 0.55171 0.04338 0.0
O967 O 0.05599 0.5545 0.03964 0.0
H968 H 0.09188 0.50125 0.05008 0.0
H969 H 0.11655 0.48587 0.05535 0.0
H970 H 0.13409 0.50629 1.00449 0.0
H971 H 0.10969 0.52178 0.99956 0.0
H972 H 0.98381 0.55911 0.02041 0.0
H973 H 0.95935 0.57417 0.02109 0.0
H974 H 0.9345 0.5293 0.04877 0.0
H975 H 0.95893 0.51384 0.04736 0.0
H976 H 0.98702 0.20184 0.95076 0.0
H977 H 0.99057 0.17221 0.96226 0.0
H978 H 0.04364 0.18364 0.95558 0.0
H979 H 0.03967 0.21282 0.94267 0.0
H980 H 0.03428 0.14853 0.94814 0.0
H981 H 0.02584 0.19104 1.00247 0.0
H982 H 0.01115 0.21226 0.02104 0.0
H983 H 0.9677 0.1676 0.01635 0.0
H984 H 0.98199 0.14625 0.99741 0.0
H985 H 0.06102 0.08762 0.0138 0.0
H986 H 0.05583 0.11537 0.99924 0.0
H987 H 1.00167 0.09672 0.99606 0.0
H988 H 1.00676 0.06885 0.0108 0.0
H989 H 0.0111 0.13461 0.00834 0.0
H990 H 0.02039 0.09188 0.95557 0.0
H991 H 0.03641 0.06993 0.94037 0.0
H992 H 0.07932 0.11499 0.94399 0.0
H993 H 0.06369 0.13719 0.95965 0.0
C994 C 0.99939 0.19787 0.95139 0.0
C995 C 0.01304 0.20976 0.94569 0.0
C996 C 1.00152 0.18096 0.95832 0.0
C997 C 0.01758 0.17568 0.96067 0.0
C998 C 0.0311 0.18721 0.9542 0.0
C999 C 0.02883 0.20394 0.9467 0.0
C1000 C 0.02026 0.15843 0.97008 0.0
C1001 C 0.02938 0.14576 0.96146 0.0
C1002 C 0.01364 0.15414 0.98733 0.0
C1003 C 1.00493 0.16709 0.9984 0.0
C1004 C 0.01309 0.1858 1.00526 0.0
C1005 C 1.00484 0.19785 0.01585 0.0
C1006 C 0.98849 0.1913 0.01983 0.0
C1007 C 0.98035 0.17268 0.01323 0.0
C1008 C 0.98852 0.1606 1.00256 0.0
C1009 C 0.04797 0.08938 0.01015 0.0
C1010 C 0.03434 0.07579 0.01356 0.0
C1011 C 0.045 0.10532 1.00167 0.0
C1012 C 0.02831 0.10823 0.99623 0.0
C1013 C 0.01468 0.09493 1.00003 0.0
C1014 C 0.01763 0.0789 0.00846 0.0
C1015 C 0.02517 0.12502 0.98648 0.0
C1016 C 0.01597 0.1375 0.99502 0.0
C1017 C 0.03181 0.1292 0.9693 0.0
C1018 C 0.04093 0.11616 0.95897 0.0
C1019 C 0.03326 0.09711 0.95319 0.0
C1020 C 0.04227 0.08463 0.94452 0.0
C1021 C 0.05888 0.09106 0.94132 0.0
C1022 C 0.06646 0.11004 0.94656 0.0
C1023 C 0.05753 0.12258 0.95533 0.0
H1024 H 0.06586 0.08131 0.93482 0.0
H1025 H 0.98214 0.20065 0.02806 0.0
H1026 H 0.10923 0.79847 0.19473 0.0
H1027 H 0.1352 0.79558 0.21629 0.0
H1028 H 0.16236 0.79476 0.16722 0.0
H1029 H 0.13681 0.79782 0.14582 0.0
H1030 H 0.16895 0.76736 0.18932 0.0
H1031 H 0.16911 0.83368 0.20044 0.0
H1032 H 0.15715 0.86173 0.20937 0.0
H1033 H 0.15308 0.84598 0.26625 0.0
H1034 H 0.16481 0.81768 0.25756 0.0
H1035 H 0.25433 0.77921 0.2417 0.0
H1036 H 0.22842 0.78168 0.21989 0.0
H1037 H 0.20373 0.79222 0.27002 0.0
H1038 H 0.22964 0.79052 0.29158 0.0
H1039 H 0.1956 0.81456 0.24703 0.0
H1040 H 0.19494 0.74839 0.23679 0.0
H1041 H 0.2063 0.71979 0.22845 0.0
H1042 H 0.21031 0.73397 0.17097 0.0
H1043 H 0.19919 0.76281 0.17907 0.0
C1044 C 0.12074 0.79779 0.18854 0.0
C1045 C 0.12075 0.79852 0.16843 0.0
C1046 C 0.13565 0.79614 0.20092 0.0
C1047 C 0.15092 0.79495 0.19349 0.0
C1048 C 0.15087 0.79557 0.17344 0.0
C1049 C 0.13613 0.79746 0.16118 0.0
C1050 C 0.16699 0.79315 0.20639 0.0
C1051 C 0.17485 0.77779 0.20184 0.0
C1052 C 0.17468 0.80646 0.22301 0.0
C1053 C 0.16766 0.82346 0.22827 0.0
C1054 C 0.16553 0.83612 0.21479 0.0
C1055 C 0.15882 0.85208 0.21982 0.0
C1056 C 0.15431 0.85561 0.23834 0.0
C1057 C 0.15655 0.84321 0.2519 0.0
C1058 C 0.16324 0.82722 0.24693 0.0
C1059 C 0.2434 0.78203 0.24802 0.0
C1060 C 0.24422 0.78471 0.26845 0.0
C1061 C 0.22844 0.78333 0.23552 0.0
C1062 C 0.21378 0.78702 0.24311 0.0
C1063 C 0.21467 0.78949 0.26354 0.0
C1064 C 0.22959 0.7884 0.27594 0.0
C1065 C 0.19761 0.78863 0.23013 0.0
C1066 C 0.18972 0.80402 0.2346 0.0
C1067 C 0.18979 0.77521 0.21355 0.0
C1068 C 0.19641 0.75786 0.20861 0.0
C1069 C 0.19836 0.74548 0.22242 0.0
C1070 C 0.20474 0.72921 0.21773 0.0
C1071 C 0.20907 0.72509 0.19921 0.0
C1072 C 0.20698 0.7372 0.18532 0.0
C1073 C 0.20063 0.7535 0.18995 0.0
H1074 H 0.21401 0.71249 0.19561 0.0
H1075 H 0.14912 0.86797 0.24221 0.0
H1076 H 0.50995 0.80158 0.4678 0.0
H1077 H 0.51093 0.83346 0.48444 0.0
H1078 H 0.53369 0.85702 0.43807 0.0
H1079 H 0.5324 0.82539 0.42126 0.0
H1080 H 0.55026 0.87425 0.47658 0.0
H1081 H 0.49408 0.85531 0.43874 0.0
H1082 H 0.46651 0.83357 0.42909 0.0
H1083 H 0.4548 0.84478 0.48702 0.0
H1084 H 0.48289 0.86584 0.49738 0.0
H1085 H 0.54521 0.96901 0.48904 0.0
H1086 H 0.54209 0.93594 0.47639 0.0
H1087 H 0.50837 0.92105 0.51752 0.0
H1088 H 0.51079 0.95463 0.5296 0.0
H1089 H 0.49744 0.89804 0.48535 0.0
H1090 H 0.55254 0.9169 0.52397 0.0
H1091 H 0.58093 0.93699 0.5354 0.0
H1092 H 0.59469 0.9254 0.47855 0.0
H1093 H 0.56629 0.90547 0.46669 0.0
C1094 C 0.51512 0.81356 0.46115 0.0
C1095 C 0.52102 0.81087 0.44313 0.0
C1096 C 0.5157 0.8318 0.47068 0.0
C1097 C 0.52243 0.84774 0.46256 0.0
C1098 C 0.52851 0.84503 0.44472 0.0
C1099 C 0.52765 0.82687 0.43504 0.0
C1100 C 0.52286 0.8673 0.47227 0.0
C1101 C 0.53871 0.87949 0.47839 0.0
C1102 C 0.50784 0.87405 0.47525 0.0
C1103 C 0.49071 0.86196 0.46891 0.0
C1104 C 0.48573 0.853 0.44951 0.0
C1105 C 0.46997 0.8408 0.44389 0.0
C1106 C 0.45881 0.83785 0.45738 0.0
C1107 C 0.46346 0.84707 0.47657 0.0
C1108 C 0.47935 0.85906 0.48236 0.0
C1109 C 0.53708 0.95874 0.49543 0.0
C1110 C 0.52842 0.96454 0.51054 0.0
C1111 C 0.53539 0.93971 0.48823 0.0
C1112 C 0.52545 0.92569 0.49635 0.0
C1113 C 0.51629 0.93144 0.51106 0.0
C1114 C 0.51767 0.95067 0.518 0.0
C1115 C 0.52489 0.90523 0.48944 0.0
C1116 C 0.50904 0.89283 0.48382 0.0
C1117 C 0.53996 0.89815 0.48721 0.0
C1118 C 0.55722 0.90978 0.4944 0.0
C1119 C 0.56159 0.91869 0.51388 0.0
C1120 C 0.57769 0.93006 0.52044 0.0
C1121 C 0.58959 0.9325 0.5077 0.0
C1122 C 0.58545 0.92351 0.4884 0.0
C1123 C 0.56936 0.91215 0.48176 0.0
H1124 H 0.60202 0.94133 0.51279 0.0
H1125 H 0.44658 0.82843 0.45296 0.0
H1126 H 0.53358 0.28262 0.69794 0.0
H1127 H 0.50732 0.27991 0.71239 0.0
H1128 H 0.47875 0.28408 0.65669 0.0
H1129 H 0.50493 0.28679 0.64219 0.0
H1130 H 0.48527 0.3036 0.7171 0.0
H1131 H 0.43816 0.25812 0.65245 0.0
H1132 H 0.43811 0.23404 0.62457 0.0
H1133 H 0.48131 0.21732 0.65589 0.0
H1134 H 0.48147 0.24113 0.68405 0.0
H1135 H 0.40047 0.30427 0.7354 0.0
H1136 H 0.42587 0.30615 0.71969 0.0
H1137 H 0.42567 0.24761 0.72339 0.0
H1138 H 0.39979 0.24536 0.73825 0.0
H1139 H 0.43395 0.25475 0.68964 0.0
H1140 H 0.45381 0.28501 0.75621 0.0
H1141 H 0.4536 0.30809 0.78488 0.0
H1142 H 0.46551 0.35327 0.75161 0.0
H1143 H 0.46567 0.33043 0.72269 0.0
C1144 C 0.5217 0.28283 0.68871 0.0
C1145 C 0.52146 0.28483 0.66882 0.0
C1146 C 0.50665 0.28139 0.69705 0.0
C1147 C 0.49087 0.28167 0.68571 0.0
C1148 C 0.49062 0.28359 0.66582 0.0
C1149 C 0.50567 0.28516 0.65751 0.0
C1150 C 0.47477 0.28003 0.69466 0.0
C1151 C 0.47407 0.29291 0.71103 0.0
C1152 C 0.46003 0.26606 0.68701 0.0
C1153 C 0.45992 0.25154 0.67027 0.0
C1154 C 0.44761 0.24926 0.65341 0.0
C1155 C 0.44757 0.23566 0.63755 0.0
C1156 C 0.45973 0.2242 0.63843 0.0
C1157 C 0.47193 0.22626 0.6552 0.0
C1158 C 0.47202 0.23982 0.6711 0.0
C1159 C 0.40561 0.29166 0.73265 0.0
C1160 C 0.39789 0.27466 0.73831 0.0
C1161 C 0.42038 0.29284 0.72383 0.0
C1162 C 0.42808 0.27712 0.72056 0.0
C1163 C 0.42019 0.26003 0.72577 0.0
C1164 C 0.40538 0.25882 0.73451 0.0
C1165 C 0.44437 0.27844 0.71196 0.0
C1166 C 0.44512 0.2655 0.69566 0.0
C1167 C 0.4592 0.29227 0.71975 0.0
C1168 C 0.45965 0.30602 0.73728 0.0
C1169 C 0.45636 0.29987 0.75501 0.0
C1170 C 0.45625 0.3129 0.7713 0.0
C1171 C 0.45951 0.33213 0.77005 0.0
C1172 C 0.46299 0.33837 0.75255 0.0
C1173 C 0.46313 0.32539 0.73622 0.0
H1174 H 0.45936 0.3422 0.78266 0.0
H1175 H 0.45969 0.2137 0.62613 0.0
H1176 H 0.05193 0.79262 0.63408 0.0
H1177 H 0.0619 0.82183 0.62203 0.0
H1178 H 0.06307 0.85289 0.67883 0.0
H1179 H 0.05294 0.82336 0.69116 0.0
H1180 H 0.04705 0.86799 0.64897 0.0
H1181 H 0.10008 0.84972 0.66388 0.0
H1182 H 0.12025 0.828 0.66528 0.0
H1183 H 0.11438 0.81924 0.6026 0.0
H1184 H 0.09391 0.84062 0.60078 0.0
H1185 H 0.07101 0.94371 0.59774 0.0
H1186 H 0.07556 0.92395 0.62319 0.0
H1187 H 0.07169 0.87629 0.57899 0.0
H1188 H 0.06778 0.89612 0.55345 0.0
H1189 H 0.09501 0.87534 0.61104 0.0
H1190 H 0.03658 0.88586 0.59721 0.0
H1191 H 0.01501 0.90598 0.59502 0.0
H1192 H 0.03087 0.9284 0.65572 0.0
H1193 H 0.05268 0.90855 0.65818 0.0
C1194 C 0.0544 0.80561 0.64412 0.0
C1195 C 0.0517 0.80571 0.66359 0.0
C1196 C 0.06023 0.8223 0.63722 0.0
C1197 C 0.06355 0.83947 0.64965 0.0
C1198 C 0.06074 0.83972 0.6691 0.0
C1199 C 0.05493 0.8229 0.67608 0.0
C1200 C 0.06882 0.85705 0.64154 0.0
C1201 C 0.05786 0.86995 0.64119 0.0
C1202 C 0.08282 0.85943 0.63123 0.0
C1203 C 0.0954 0.84678 0.6322 0.0
C1204 C 0.10301 0.8431 0.65038 0.0
C1205 C 0.1145 0.83084 0.65125 0.0
C1206 C 0.11859 0.82225 0.63404 0.0
C1207 C 0.11121 0.82593 0.61592 0.0
C1208 C 0.09968 0.83814 0.61497 0.0
C1209 C 0.07167 0.92917 0.59342 0.0
C1210 C 0.06883 0.9214 0.57356 0.0
C1211 C 0.07416 0.91787 0.608 0.0
C1212 C 0.07368 0.89862 0.60295 0.0
C1213 C 0.07205 0.89113 0.58319 0.0
C1214 C 0.06963 0.90241 0.56861 0.0
C1215 C 0.07284 0.88575 0.61786 0.0
C1216 C 0.0846 0.87375 0.61943 0.0
C1217 C 0.05955 0.88413 0.62927 0.0
C1218 C 0.04637 0.89592 0.62782 0.0
C1219 C 0.03553 0.89518 0.61004 0.0
C1220 C 0.02326 0.90652 0.60876 0.0
C1221 C 0.02161 0.91851 0.6252 0.0
C1222 C 0.03219 0.91914 0.64299 0.0
C1223 C 0.0445 0.90785 0.64434 0.0
H1224 H 0.0121 0.92727 0.62418 0.0
H1225 H 0.12748 0.81275 0.63474 0.0
H1226 H 0.48639 0.80107 0.83842 0.0
H1227 H 0.4594 0.79947 0.8169 0.0
H1228 H 0.43358 0.8026 0.86708 0.0
H1229 H 0.4604 0.80462 0.88866 0.0
H1230 H 0.43018 0.77449 0.81008 0.0
H1231 H 0.4032 0.82706 0.86129 0.0
H1232 H 0.41402 0.85626 0.88439 0.0
H1233 H 0.45739 0.86867 0.85525 0.0
H1234 H 0.44672 0.83969 0.83179 0.0
H1235 H 0.34085 0.75559 0.79814 0.0
H1236 H 0.37184 0.76126 0.807 0.0
H1237 H 0.37531 0.81731 0.79162 0.0
H1238 H 0.34423 0.81202 0.78387 0.0
H1239 H 0.39289 0.81992 0.82428 0.0
H1240 H 0.39075 0.78107 0.76475 0.0
H1241 H 0.38035 0.7536 0.73923 0.0
H1242 H 0.39666 0.71735 0.77919 0.0
H1243 H 0.40699 0.74456 0.80505 0.0
C1244 C 0.47498 0.80154 0.84488 0.0
C1245 C 0.47558 0.80308 0.86529 0.0
C1246 C 0.45957 0.80055 0.83255 0.0
C1247 C 0.44455 0.80113 0.84041 0.0
C1248 C 0.4451 0.8025 0.86073 0.0
C1249 C 0.46046 0.80362 0.87306 0.0
C1250 C 0.42813 0.80006 0.82757 0.0
C1251 C 0.42204 0.78448 0.81298 0.0
C1252 C 0.41781 0.81349 0.83091 0.0
C1253 C 0.42419 0.83112 0.84483 0.0
C1254 C 0.41499 0.83607 0.85972 0.0
C1255 C 0.42111 0.85258 0.8729 0.0
C1256 C 0.4364 0.86429 0.87131 0.0
C1257 C 0.44557 0.85956 0.8565 0.0
C1258 C 0.4395 0.84308 0.84327 0.0
C1259 C 0.34827 0.76904 0.79647 0.0
C1260 C 0.34023 0.78347 0.79062 0.0
C1261 C 0.366 0.77221 0.80133 0.0
C1262 C 0.37597 0.78967 0.79979 0.0
C1263 C 0.3679 0.80377 0.79302 0.0
C1264 C 0.35017 0.80076 0.78864 0.0
C1265 C 0.39453 0.79387 0.80728 0.0
C1266 C 0.40107 0.81007 0.82094 0.0
C1267 C 0.40539 0.78133 0.80255 0.0
C1268 C 0.3996 0.7649 0.7869 0.0
C1269 C 0.39208 0.76724 0.76813 0.0
C1270 C 0.38619 0.7517 0.7536 0.0
C1271 C 0.38783 0.73374 0.75759 0.0
C1272 C 0.39543 0.73128 0.77611 0.0
C1273 C 0.40134 0.74677 0.79071 0.0
H1274 H 0.38322 0.72172 0.74634 0.0
H1275 H 0.44113 0.87705 0.88155 0.0
H1276 H 0.52254 0.21389 0.11305 0.0
H1277 H 0.52006 0.18154 0.09825 0.0
H1278 H 0.53822 0.16671 0.15441 0.0
H1279 H 0.54083 0.19941 0.16938 0.0
H1280 H 0.55786 0.15844 0.12837 0.0
H1281 H 0.49909 0.1438 0.12975 0.0
H1282 H 0.46917 0.14777 0.12687 0.0
H1283 H 0.46728 0.14949 0.06529 0.0
H1284 H 0.49726 0.14579 0.06784 0.0
H1285 H 0.55362 0.0673 0.07386 0.0
H1286 H 0.55133 0.09379 0.09727 0.0
H1287 H 0.53571 0.12321 0.04981 0.0
H1288 H 0.53784 0.09653 0.02614 0.0
H1289 H 0.51304 0.11972 0.07664 0.0
H1290 H 0.57426 0.13815 0.0782 0.0
H1291 H 0.6038 0.13276 0.0826 0.0
H1292 H 0.59997 0.12165 0.14114 0.0
H1293 H 0.57031 0.12673 0.13699 0.0
C1294 C 0.52546 0.20361 0.12238 0.0
C1295 C 0.53205 0.20915 0.14229 0.0
C1296 C 0.52394 0.18507 0.11392 0.0
C1297 C 0.52898 0.1717 0.12522 0.0
C1298 C 0.53425 0.17684 0.14546 0.0
C1299 C 0.53564 0.19546 0.154 0.0
C1300 C 0.5314 0.15363 0.11513 0.0
C1301 C 0.54792 0.14966 0.11743 0.0
C1302 C 0.51852 0.1423 0.10071 0.0
C1303 C 0.50048 0.14463 0.09902 0.0
C1304 C 0.49234 0.14519 0.11562 0.0
C1305 C 0.47536 0.14735 0.11404 0.0
C1306 C 0.46634 0.14891 0.09592 0.0
C1307 C 0.47428 0.14828 0.07933 0.0
C1308 C 0.49127 0.14611 0.08082 0.0
C1309 C 0.55026 0.07965 0.06835 0.0
C1310 C 0.5459 0.07986 0.04816 0.0
C1311 C 0.54887 0.09473 0.08179 0.0
C1312 C 0.54326 0.11036 0.07524 0.0
C1313 C 0.53997 0.11116 0.05509 0.0
C1314 C 0.54137 0.09604 0.0416 0.0
C1315 C 0.5396 0.1252 0.08937 0.0
C1316 C 0.52285 0.12839 0.08782 0.0
C1317 C 0.55218 0.13557 0.10471 0.0
C1318 C 0.57003 0.13265 0.10722 0.0
C1319 C 0.57968 0.13442 0.09196 0.0
C1320 C 0.59644 0.13145 0.09441 0.0
C1321 C 0.60374 0.12682 0.11212 0.0
C1322 C 0.59429 0.12521 0.12742 0.0
C1323 C 0.57752 0.12815 0.12504 0.0
H1324 H 0.61672 0.12452 0.11399 0.0
H1325 H 0.45318 0.15059 0.09472 0.0
H1326 H 0.08114 0.28302 0.37879 0.0
H1327 H 0.10423 0.27955 0.3602 0.0
H1328 H 0.07774 0.30054 0.31187 0.0
H1329 H 0.05418 0.30305 0.33009 0.0
H1330 H 0.09032 0.27381 0.29779 0.0
H1331 H 0.11387 0.32812 0.34411 0.0
H1332 H 0.12172 0.34754 0.37652 0.0
H1333 H 0.15386 0.31007 0.39596 0.0
H1334 H 0.14604 0.29029 0.36373 0.0
H1335 H 0.18847 0.29422 0.28759 0.0
H1336 H 0.1636 0.30401 0.29878 0.0
H1337 H 0.13649 0.2464 0.28735 0.0
H1338 H 0.16075 0.23674 0.27476 0.0
H1339 H 0.15068 0.29678 0.32866 0.0
H1340 H 0.09455 0.24238 0.27996 0.0
H1341 H 0.08687 0.22694 0.24576 0.0
H1342 H 0.12006 0.27206 0.22748 0.0
H1343 H 0.12776 0.28791 0.26152 0.0
C1344 C 0.08026 0.28688 0.36419 0.0
C1345 C 0.06593 0.29336 0.35588 0.0
C1346 C 0.09352 0.28503 0.35362 0.0
C1347 C 0.09295 0.29019 0.33476 0.0
C1348 C 0.07853 0.29652 0.3264 0.0
C1349 C 0.06508 0.29797 0.33682 0.0
C1350 C 0.10723 0.28857 0.32367 0.0
C1351 C 0.10351 0.27894 0.3045 0.0
C1352 C 0.12447 0.29577 0.33213 0.0
C1353 C 0.12927 0.30765 0.35154 0.0
C1354 C 0.12253 0.32396 0.35533 0.0
C1355 C 0.12699 0.33504 0.37367 0.0
C1356 C 0.13826 0.33002 0.3883 0.0
C1357 C 0.14513 0.31393 0.38461 0.0
C1358 C 0.14071 0.3028 0.3663 0.0
C1359 C 0.17703 0.2837 0.28683 0.0
C1360 C 0.17668 0.26465 0.28031 0.0
C1361 C 0.16287 0.28931 0.29348 0.0
C1362 C 0.1481 0.27599 0.29387 0.0
C1363 C 0.14757 0.25704 0.28689 0.0
C1364 C 0.1616 0.25148 0.27996 0.0
C1365 C 0.13378 0.28156 0.30297 0.0
C1366 C 0.13749 0.29189 0.32181 0.0
C1367 C 0.11655 0.27562 0.29391 0.0
C1368 C 0.11183 0.26626 0.27334 0.0
C1369 C 0.10014 0.24906 0.26864 0.0
C1370 C 0.0958 0.24023 0.24927 0.0
C1371 C 0.10301 0.24849 0.23446 0.0
C1372 C 0.11453 0.26564 0.23897 0.0
C1373 C 0.11891 0.27454 0.25831 0.0
H1374 H 0.09964 0.24162 0.21949 0.0
H1375 H 0.14169 0.33862 0.40248 0.0
H1376 H 0.98787 0.01387 0.22428 0.0
H1377 H 0.99801 0.02071 0.19398 0.0
H1378 H 0.94616 0.01448 0.16524 0.0
H1379 H 0.93577 1.00808 0.19594 0.0
H1380 H 0.97423 0.99324 0.14635 0.0
H1381 H 0.96004 0.05297 0.1691 0.0
H1382 H 0.96021 0.07966 0.19426 0.0
H1383 H 0.01499 0.09198 0.20358 0.0
H1384 H 0.01513 0.06515 0.17869 0.0
H1385 H 1.00539 0.02377 0.06185 0.0
H1386 H 0.98747 0.01918 0.08719 0.0
H1387 H 0.02996 0.04779 0.13099 0.0
H1388 H 0.04764 0.05262 0.1056 0.0
H1389 H 1.0024 0.05792 0.1401 0.0
H1390 H 0.01809 0.99881 0.12125 0.0
H1391 H 0.0204 0.97152 0.09813 0.0
H1392 H 0.96581 0.95702 0.08354 0.0
H1393 H 0.96318 0.98442 0.10638 0.0
C1394 C 0.97854 0.01394 0.21156 0.0
C1395 C 0.96096 1.01037 0.21259 0.0
C1396 C 0.9844 0.01787 0.19423 0.0
C1397 C 0.97286 0.01804 0.17733 0.0
C1398 C 0.95528 0.01437 0.17812 0.0
C1399 C 0.94937 0.0108 0.19568 0.0
C1400 C 0.97954 0.02232 0.15911 0.0
C1401 C 0.98 1.00743 0.14467 0.0
C1402 C 0.98763 0.04072 0.15731 0.0
C1403 C 0.98759 0.05694 0.17217 0.0
C1404 C 0.97212 0.06125 0.17666 0.0
C1405 C 0.97216 0.07644 0.19084 0.0
C1406 C 0.9876 0.08749 0.20055 0.0
C1407 C 1.00304 0.0834 0.19606 0.0
C1408 C 1.00306 0.06822 0.1819 0.0
C1409 C 1.01085 0.02913 0.07677 0.0
C1410 C 0.02798 0.03834 0.08158 0.0
C1411 C 1.00061 0.02647 0.09137 0.0
C1412 C 1.00738 0.03284 0.11118 0.0
C1413 C 0.02434 0.04268 0.1159 0.0
C1414 C 0.03448 0.0454 0.10131 0.0
C1415 C 0.99715 0.02884 0.12714 0.0
C1416 C 0.99624 0.04376 0.14137 0.0
C1417 C 0.98892 1.01039 0.1289 0.0
C1418 C 0.99044 0.99378 0.11535 0.0
C1419 C 1.00658 0.98987 0.11301 0.0
C1420 C 1.00795 0.97438 0.09997 0.0
C1421 C 0.99326 0.96258 0.08933 0.0
C1422 C 0.97717 0.9662 0.09177 0.0
C1423 C 0.97573 0.98171 0.10476 0.0
H1424 H 0.99435 0.9506 0.07924 0.0
H1425 H 0.98761 0.09924 0.21152 0.0
H1426 H 0.30784 0.6599 0.48463 0.0
H1427 H 0.28679 0.66897 0.46079 0.0
H1428 H 0.29602 0.72447 0.49377 0.0
H1429 H 0.31709 0.71552 0.51775 0.0
H1430 H 0.26114 0.70911 0.48175 0.0
H1431 H 0.31393 0.71781 0.45455 0.0
H1432 H 0.33877 0.70756 0.4428 0.0
H1433 H 0.30535 0.66492 0.40049 0.0
H1434 H 0.2803 0.67478 0.41219 0.0
H1435 H 0.25499 0.77752 0.42195 0.0
H1436 H 0.25425 0.7545 0.44449 0.0
H1437 H 0.24172 0.70965 0.39585 0.0
H1438 H 0.24339 0.73256 0.37326 0.0
H1439 H 0.27196 0.71091 0.41367 0.0
H1440 H 0.21918 0.70903 0.43537 0.0
H1441 H 0.19471 0.72054 0.44658 0.0
H1442 H 0.22719 0.75107 0.49844 0.0
H1443 H 0.25194 0.74001 0.48743 0.0
C1444 C 0.30553 0.6741 0.48671 0.0
C1445 C 0.31414 0.68704 0.50303 0.0
C1446 C 0.2934 0.67919 0.47317 0.0
C1447 C 0.28979 0.69731 0.47567 0.0
C1448 C 0.29852 0.71034 0.49178 0.0
C1449 C 0.31068 0.70527 0.50531 0.0
C1450 C 0.27756 0.7031 0.46096 0.0
C1451 C 0.2634 0.70959 0.46682 0.0
C1452 C 0.28021 0.70286 0.44136 0.0
C1453 C 0.29526 0.69684 0.43443 0.0
C1454 C 0.31189 0.70613 0.44288 0.0
C1455 C 0.326 0.70041 0.4362 0.0
C1456 C 0.32364 0.68555 0.42096 0.0
C1457 C 0.30716 0.67639 0.41234 0.0
C1458 C 0.293 0.68204 0.41898 0.0
C1459 C 0.2514 0.76274 0.41604 0.0
C1460 C 0.25003 0.75689 0.39589 0.0
C1461 C 0.25073 0.74952 0.42898 0.0
C1462 C 0.24834 0.7303 0.42184 0.0
C1463 C 0.24378 0.72442 0.40165 0.0
C1464 C 0.24471 0.73763 0.38871 0.0
C1465 C 0.25565 0.71778 0.43447 0.0
C1466 C 0.26909 0.70995 0.42832 0.0
C1467 C 0.2523 0.7169 0.45375 0.0
C1468 C 0.23747 0.72369 0.46051 0.0
C1469 C 0.22116 0.71831 0.4491 0.0
C1470 C 0.20722 0.72474 0.45544 0.0
C1471 C 0.20939 0.73653 0.4732 0.0
C1472 C 0.22552 0.74191 0.48469 0.0
C1473 C 0.23951 0.73552 0.47842 0.0
H1474 H 0.19858 0.74149 0.47808 0.0
H1475 H 0.33458 0.68116 0.4158 0.0
H1476 H 0.6392 0.97783 0.72636 0.0
H1477 H 0.62474 0.97789 0.69256 0.0
H1478 H 0.61894 0.03487 0.70819 0.0
H1479 H 0.63342 0.03505 0.74107 0.0
H1480 H 0.5889 0.01505 0.68978 0.0
H1481 H 0.64683 0.02178 0.67598 0.0
H1482 H 0.67431 0.01167 0.67459 0.0
H1483 H 0.64847 0.96062 0.63784 0.0
H1484 H 0.62082 0.97036 0.63913 0.0
H1485 H 0.55472 0.04388 0.60209 0.0
H1486 H 0.5726 0.03983 0.63179 0.0
H1487 H 0.58321 0.9891 0.60225 0.0
H1488 H 0.56596 0.99396 0.5718 0.0
H1489 H 0.60985 1.00156 0.62714 0.0
H1490 H 0.55282 0.99276 0.63955 0.0
H1491 H 0.52419 0.99976 0.64124 0.0
H1492 H 0.5463 0.05 0.6813 0.0
H1493 H 0.57509 0.04342 0.67967 0.0
C1494 C 0.63531 0.99055 0.72249 0.0
C1495 C 0.63778 1.00645 0.73703 0.0
C1496 C 0.62679 0.99056 0.70298 0.0
C1497 C 0.6203 1.00639 0.69725 0.0
C1498 C 0.62339 0.02229 0.71165 0.0
C1499 C 0.63191 0.02236 0.73077 0.0
C1500 C 0.60971 1.00676 0.67704 0.0
C1501 C 0.5937 0.01225 0.67618 0.0
C1502 C 0.61515 1.00248 0.6587 0.0
C1503 C 0.63175 0.99669 0.65785 0.0
C1504 C 0.647 1.00833 0.66773 0.0
C1505 C 0.66261 1.00269 0.66692 0.0
C1506 C 0.66313 0.98547 0.65621 0.0
C1507 C 0.64805 0.97392 0.64618 0.0
C1508 C 0.63241 0.97951 0.64691 0.0
C1509 C 0.56089 0.03185 0.60172 0.0
C1510 C 0.55854 0.01927 0.58416 0.0
C1511 C 0.57111 0.02933 0.6191 0.0
C1512 C 0.57914 0.01364 0.62027 0.0
C1513 C 0.57727 1.00129 0.60246 0.0
C1514 C 0.56727 1.00407 0.5848 0.0
C1515 C 0.58914 1.01034 0.63991 0.0
C1516 C 0.60498 1.00431 0.6407 0.0
C1517 C 0.58339 0.01367 0.65827 0.0
C1518 C 0.56612 0.01768 0.65934 0.0
C1519 C 0.55158 1.00536 0.64863 0.0
C1520 C 0.53533 1.00925 0.64959 0.0
C1521 C 0.53344 0.02534 0.66133 0.0
C1522 C 0.54779 0.03756 0.67219 0.0
C1523 C 0.56408 0.03374 0.67127 0.0
H1524 H 0.52084 0.02833 0.66204 0.0
H1525 H 0.67522 0.98112 0.65562 0.0
H1526 H 0.30272 0.3482 1.00582 0.0
H1527 H 0.30278 0.33219 0.97314 0.0
H1528 H 0.30596 0.38504 0.95049 0.0
H1529 H 0.30532 0.40106 0.98318 0.0
H1530 H 0.28439 0.35998 0.92613 0.0
H1531 H 0.34095 0.36223 0.95775 0.0
H1532 H 0.36342 0.35799 0.98365 0.0
H1533 H 0.34458 0.29837 0.97359 0.0
H1534 H 0.32182 0.30228 0.94782 0.0
H1535 H 0.32523 0.30603 0.84693 0.0
H1536 H 0.32772 0.32324 0.87973 0.0
H1537 H 0.27366 0.30531 0.8785 0.0
H1538 H 0.27099 0.28851 0.84554 0.0
H1539 H 0.32277 0.31523 0.91408 0.0
H1540 H 0.25738 0.33865 0.90261 0.0
H1541 H 0.23744 0.34589 0.87571 0.0
H1542 H 0.27874 0.35988 0.8438 0.0
H1543 H 0.29894 0.35296 0.87059 0.0
C1544 C 0.30352 0.35646 0.99391 0.0
C1545 C 0.30406 0.37594 0.99715 0.0
C1546 C 0.30364 0.34727 0.97519 0.0
C1547 C 0.30462 0.35737 0.95924 0.0
C1548 C 0.3052 0.37687 0.96247 0.0
C1549 C 0.3049 0.38605 0.9812 0.0
C1550 C 0.30464 0.34749 0.93921 0.0
C1551 C 0.29281 0.35022 0.92355 0.0
C1552 C 0.31585 0.33501 0.93555 0.0
C1553 C 0.32959 0.33257 0.95096 0.0
C1554 C 0.34152 0.34823 0.96115 0.0
C1555 C 0.35432 0.34589 0.9758 0.0
C1556 C 0.35541 0.32793 0.98029 0.0
C1557 C 0.34372 0.31228 0.97011 0.0
C1558 C 0.33087 0.31454 0.95546 0.0
C1559 C 0.31387 0.30562 0.85367 0.0
C1560 C 0.29788 0.29596 0.84346 0.0
C1561 C 0.31532 0.31549 0.87249 0.0
C1562 C 0.30085 0.31593 0.88158 0.0
C1563 C 0.28499 0.30563 0.87171 0.0
C1564 C 0.28349 0.2959 0.85285 0.0
C1565 C 0.30225 0.3274 0.90115 0.0
C1566 C 0.31435 0.32499 0.91669 0.0
C1567 C 0.29165 0.3406 0.90459 0.0
C1568 C 0.27963 0.3451 0.88854 0.0
C1569 C 0.26221 0.34335 0.88989 0.0
C1570 C 0.25086 0.34738 0.87465 0.0
C1571 C 0.25681 0.35328 0.85803 0.0
C1572 C 0.27414 0.35524 0.85665 0.0
C1573 C 0.28554 0.35125 0.87184 0.0
H1574 H 0.248 0.35637 0.84625 0.0
H1575 H 0.36533 0.32614 0.99164 0.0
H1576 H 0.97629 0.01065 0.30635 0.0
H1577 H 0.98956 0.01151 0.34017 0.0
H1578 H 0.94068 1.01056 0.359 0.0
H1579 H 0.92742 1.01026 0.32518 0.0
H1580 H 0.96364 0.03504 0.38328 0.0
H1581 H 0.95995 0.97105 0.35596 0.0
H1582 H 0.96403 0.94518 0.33216 0.0
H1583 H 0.01834 0.96414 0.34568 0.0
H1584 H 0.01458 0.99029 0.36937 0.0
H1585 H 1.00611 0.98872 0.46866 0.0
H1586 H 0.99137 0.98645 0.43519 0.0
H1587 H 1.01071 0.04545 0.43532 0.0
H1588 H 0.02491 0.04796 0.46901 0.0
H1589 H 1.00087 0.99058 0.40201 0.0
H1590 H 0.98452 0.06467 0.40673 0.0
H1591 H 0.97852 0.0886 0.43142 0.0
H1592 H 0.9598 0.04544 0.46444 0.0
H1593 H 0.96559 0.02127 0.43989 0.0
C1594 C 0.96834 1.01051 0.31767 0.0
C1595 C 0.95078 1.01032 0.31304 0.0
C1596 C 0.97594 0.01094 0.33704 0.0
C1597 C 0.96613 0.01088 0.35223 0.0
C1598 C 0.94856 0.01063 0.34761 0.0
C1599 C 0.94097 1.01037 0.32824 0.0
C1600 C 0.97423 0.01137 0.37293 0.0
C1601 C 0.97175 0.02528 0.38734 0.0
C1602 C 0.98465 0.9985 0.37845 0.0
C1603 C 0.98697 0.98272 0.36432 0.0
C1604 C 0.97276 0.96977 0.35376 0.0
C1605 C 0.97502 0.95505 0.3403 0.0
C1606 C 0.99144 0.95304 0.33738 0.0
C1607 C 1.00563 0.96572 0.34795 0.0
C1608 C 1.00345 0.98049 0.3614 0.0
C1609 C 1.00721 1.00123 0.46158 0.0
C1610 C 0.01663 0.01855 0.47161 0.0
C1611 C 0.99879 0.9999 0.44239 0.0
C1612 C 0.99966 0.01582 0.4327 0.0
C1613 C 1.00943 0.03303 0.44254 0.0
C1614 C 0.01764 0.03443 0.46183 0.0
C1615 C 0.99042 0.01437 0.41232 0.0
C1616 C 0.99273 1.00031 0.39795 0.0
C1617 C 0.97951 0.02681 0.40693 0.0
C1618 C 0.9756 0.04119 0.42154 0.0
C1619 C 0.97904 0.06029 0.4192 0.0
C1620 C 0.9757 0.0739 0.43319 0.0
C1621 C 0.96881 0.06855 0.4495 0.0
C1622 C 0.96518 0.04958 0.45183 0.0
C1623 C 0.96851 0.03592 0.4379 0.0
H1624 H 0.96626 0.0791 0.46032 0.0
H1625 H 0.99316 0.94164 0.32695 0.0
H1626 H 0.35178 0.72634 0.6099 0.0
H1627 H 0.3504 0.73158 0.64485 0.0
H1628 H 0.32765 0.67321 0.64257 0.0
H1629 H 0.32962 0.66765 0.60781 0.0
H1630 H 0.30713 0.70574 0.6458 0.0
H1631 H 0.35328 0.68143 0.67427 0.0
H1632 H 0.38257 0.67626 0.68281 0.0
H1633 H 0.39884 0.73376 0.70958 0.0
H1634 H 0.36969 0.73936 0.70095 0.0
H1635 H 0.27665 0.74214 0.72932 0.0
H1636 H 0.28776 0.71992 0.70791 0.0
H1637 H 0.33414 0.76102 0.71171 0.0
H1638 H 0.32361 0.78254 0.7344 0.0
H1639 H 0.34178 0.72785 0.71137 0.0
H1640 H 0.29919 0.75448 0.6737 0.0
H1641 H 0.27062 0.76139 0.66399 0.0
H1642 H 0.24924 0.70232 0.65212 0.0
H1643 H 0.27766 0.69507 0.66209 0.0
C1644 C 0.34725 0.71445 0.61706 0.0
C1645 C 0.34052 0.69669 0.60616 0.0
C1646 C 0.34664 0.71741 0.63704 0.0
C1647 C 0.33896 0.70275 0.64618 0.0
C1648 C 0.33386 0.68458 0.63577 0.0
C1649 C 0.3349 0.6815 0.61589 0.0
C1650 C 0.33151 0.70777 0.66368 0.0
C1651 C 0.31454 0.7101 0.66033 0.0
C1652 C 0.34146 0.71383 0.68233 0.0
C1653 C 0.35924 0.71083 0.68681 0.0
C1654 C 0.36313 0.69304 0.68174 0.0
C1655 C 0.37972 0.69002 0.68666 0.0
C1656 C 0.39258 0.70469 0.69668 0.0
C1657 C 0.38887 0.72241 0.70178 0.0
C1658 C 0.3723 0.7255 0.6969 0.0
C1659 C 0.28937 0.74617 0.72591 0.0
C1660 C 0.29938 0.76385 0.73361 0.0
C1661 C 0.29564 0.73358 0.71357 0.0
C1662 C 0.31173 0.73887 0.70809 0.0
C1663 C 0.32174 0.75659 0.71584 0.0
C1664 C 0.31562 0.76897 0.72854 0.0
C1665 C 0.3177 0.72672 0.69313 0.0
C1666 C 0.33428 0.72307 0.69696 0.0
C1667 C 0.30761 0.71988 0.67462 0.0
C1668 C 0.29048 0.72425 0.66895 0.0
C1669 C 0.28836 0.74298 0.66923 0.0
C1670 C 0.2722 0.74695 0.66365 0.0
C1671 C 0.25811 0.73231 0.65754 0.0
C1672 C 0.26015 0.71365 0.65695 0.0
C1673 C 0.27627 0.7096 0.66259 0.0
H1674 H 0.24562 0.73541 0.65319 0.0
H1675 H 0.40541 0.70231 0.70053 0.0
H1676 H 0.62079 0.01306 0.82909 0.0
H1677 H 0.60566 0.01684 0.857 0.0
H1678 H 0.64907 1.00781 0.89532 0.0
H1679 H 0.66423 1.00382 0.86716 0.0
H1680 H 0.62216 0.99136 0.9089 0.0
H1681 H 0.63508 0.05368 0.89237 0.0
H1682 H 0.63553 0.0783 0.8709 0.0
H1683 H 0.58077 0.06636 0.85892 0.0
H1684 H 0.58001 0.0415 0.88013 0.0
H1685 H 0.59117 0.02199 0.99824 0.0
H1686 H 0.60712 0.01824 0.97089 0.0
H1687 H 0.56461 0.02747 0.93128 0.0
H1688 H 0.54867 0.03126 0.9586 0.0
H1689 H 0.59136 0.04383 0.91861 0.0
H1690 H 0.57795 0.9823 0.93544 0.0
H1691 H 0.57693 0.95743 0.9566 0.0
H1692 H 0.63164 0.96676 0.96712 0.0
H1693 H 0.63304 0.99214 0.94655 0.0
C1694 C 0.62732 0.01196 0.84341 0.0
C1695 C 0.64411 1.0082 0.84529 0.0
C1696 C 0.61852 0.01427 0.85974 0.0
C1697 C 0.62589 0.01303 0.87913 0.0
C1698 C 0.64262 1.00902 0.88099 0.0
C1699 C 0.65149 1.00679 0.86462 0.0
C1700 C 0.61626 0.01581 0.89705 0.0
C1701 C 0.61572 1.00309 0.91101 0.0
C1702 C 0.60709 0.03067 0.90039 0.0
C1703 C 0.6075 0.04561 0.88768 0.0
C1704 C 0.62314 0.05623 0.88505 0.0
C1705 C 0.62345 0.07023 0.87294 0.0
C1706 C 0.60819 0.07386 0.86351 0.0
C1707 C 0.59258 0.06352 0.86621 0.0
C1708 C 0.5922 0.04948 0.87829 0.0
C1709 C 0.58508 0.0233 0.98377 0.0
C1710 C 0.56828 0.02704 0.98124 0.0
C1711 C 0.59434 0.02096 0.96778 0.0
C1712 C 0.58741 0.02222 0.9482 0.0
C1713 C 0.57073 0.02629 0.94577 0.0
C1714 C 0.56144 0.02848 0.96171 0.0
C1715 C 0.5973 0.01944 0.93052 0.0
C1716 C 0.59786 0.03213 0.91657 0.0
C1717 C 0.60639 1.00449 0.92716 0.0
C1718 C 0.6056 0.98931 0.93963 0.0
C1719 C 0.58978 0.97921 0.94244 0.0
C1720 C 0.58913 0.96501 0.95432 0.0
C1721 C 0.6042 0.9605 0.96317 0.0
C1722 C 0.61997 0.97027 0.96025 0.0
C1723 C 0.6207 0.98461 0.94853 0.0
H1724 H 0.60365 0.94943 0.97227 0.0
H1725 H 0.60846 0.08471 0.85414 0.0
H1726 H 0.31016 0.39385 0.11602 0.0
H1727 H 0.3063 0.38131 0.1469 0.0
H1728 H 0.29128 0.32521 0.11521 0.0
H1729 H 0.29513 0.33747 0.08481 0.0
H1730 H 0.27088 0.33054 0.14215 0.0
H1731 H 0.33169 0.3416 0.1401 0.0
H1732 H 0.35961 0.3612 0.13876 0.0
H1733 H 0.35654 0.39575 0.19179 0.0
H1734 H 0.32847 0.37647 0.19329 0.0
H1735 H 0.28271 0.26709 0.20926 0.0
H1736 H 0.28581 0.28603 0.1827 0.0
H1737 H 0.30071 0.33642 0.22471 0.0
H1738 H 0.29761 0.31747 0.25139 0.0
H1739 H 0.32015 0.33802 0.19533 0.0
H1740 H 0.26103 0.32595 0.19949 0.0
H1741 H 0.23306 0.30684 0.20149 0.0
H1742 H 0.23241 0.27546 0.14533 0.0
H1743 H 0.26051 0.29422 0.14312 0.0
C1744 C 0.30581 0.3789 0.11567 0.0
C1745 C 0.30306 0.3667 0.09788 0.0
C1746 C 0.30372 0.37169 0.13335 0.0
C1747 C 0.29862 0.3522 0.13352 0.0
C1748 C 0.29523 0.34024 0.11564 0.0
C1749 C 0.29751 0.34733 0.09818 0.0
C1750 C 0.29716 0.34381 0.15208 0.0
C1751 C 0.28171 0.33215 0.15371 0.0
C1752 C 0.31106 0.34619 0.16757 0.0
C1753 C 0.3279 0.35776 0.16667 0.0
C1754 C 0.3369 0.35348 0.15137 0.0
C1755 C 0.35276 0.36451 0.15061 0.0
C1756 C 0.35982 0.37975 0.16514 0.0
C1757 C 0.35104 0.38396 0.18051 0.0
C1758 C 0.33516 0.37299 0.18133 0.0
C1759 C 0.28679 0.28218 0.21288 0.0
C1760 C 0.28987 0.29072 0.23249 0.0
C1761 C 0.28848 0.29305 0.19764 0.0
C1762 C 0.29329 0.31278 0.20156 0.0
C1763 C 0.29696 0.32128 0.2212 0.0
C1764 C 0.29519 0.3104 0.23647 0.0
C1765 C 0.294 0.32437 0.18511 0.0
C1766 C 0.30927 0.3366 0.18389 0.0
C1767 C 0.27989 0.32265 0.17003 0.0
C1768 C 0.26294 0.31139 0.17121 0.0
C1769 C 0.25498 0.31488 0.18763 0.0
C1770 C 0.23909 0.30413 0.18879 0.0
C1771 C 0.23098 0.28992 0.17356 0.0
C1772 C 0.23872 0.28646 0.15712 0.0
C1773 C 0.25462 0.29717 0.15589 0.0
H1774 H 0.21868 0.2816 0.17449 0.0
H1775 H 0.37211 0.38827 0.16453 0.0
H1776 H 0.20607 0.87596 0.03401 0.0
H1777 H 0.18874 0.8962 0.04863 0.0
H1778 H 0.23414 0.93752 0.07279 0.0
H1779 H 0.25152 0.9176 0.05762 0.0
H1780 H 0.18409 0.91571 0.08169 0.0
H1781 H 0.22786 0.97953 0.06098 0.0
H1782 H 0.24921 0.98614 0.03918 0.0
H1783 H 0.22548 0.93552 1.00045 0.0
H1784 H 0.20386 0.92879 0.02184 0.0
H1785 H 0.15347 1.00888 0.08849 0.0
H1786 H 0.17341 0.98757 0.09396 0.0
H1787 H 0.15175 0.95451 0.03812 0.0
H1788 H 0.13254 0.97622 0.03191 0.0
H1789 H 0.1919 0.9744 0.05163 0.0
H1790 H 0.14972 0.90912 0.06792 0.0
H1791 H 0.12652 0.89877 0.08629 0.0
H1792 H 0.143 0.94909 0.12775 0.0
H1793 H 0.16651 0.95951 0.10988 0.0
C1794 C 0.21242 0.88909 0.04296 0.0
C1795 C 0.23007 0.89548 0.04427 0.0
C1796 C 0.2025 0.90061 0.05138 0.0
C1797 C 0.21014 0.91855 0.06133 0.0
C1798 C 0.22799 0.92387 0.0648 0.0
C1799 C 0.2379 0.91249 0.05613 0.0
C1800 C 0.19941 0.93267 0.06482 0.0
C1801 C 0.18587 0.92864 0.0753 0.0
C1802 C 0.20165 0.94944 0.05628 0.0
C1803 C 0.21443 0.95354 0.04316 0.0
C1804 C 0.2272 0.96986 0.04779 0.0
C1805 C 0.23933 0.97362 0.0355 0.0
C1806 C 0.23875 0.96122 0.01849 0.0
C1807 C 0.22596 0.94508 0.01366 0.0
C1808 C 0.21377 0.94129 0.02586 0.0
C1809 C 0.15297 0.99711 0.07734 0.0
C1810 C 0.14139 0.99428 0.05974 0.0
C1811 C 0.16414 0.98477 0.08068 0.0
C1812 C 0.16359 0.9692 0.06671 0.0
C1813 C 0.15198 0.96621 0.04928 0.0
C1814 C 0.14103 0.97865 0.04578 0.0
C1815 C 0.17668 0.95753 0.06863 0.0
C1816 C 0.19051 0.96186 0.05872 0.0
C1817 C 0.17433 0.94081 0.07715 0.0
C1818 C 0.15969 0.93524 0.08737 0.0
C1819 C 0.14835 0.918 0.08092 0.0
C1820 C 0.13523 0.91205 0.09133 0.0
C1821 C 0.13336 0.92322 0.10824 0.0
C1822 C 0.14448 0.94046 0.11465 0.0
C1823 C 0.15766 0.94643 0.10433 0.0
H1824 H 0.1232 0.91859 0.11628 0.0
H1825 H 0.24817 0.96414 0.00902 0.0
H1826 H 0.72261 0.60613 0.00869 0.0
H1827 H 0.69575 0.58579 0.01212 0.0
H1828 H 0.66802 0.62846 0.99588 0.0
H1829 H 0.69453 0.6487 0.9925 0.0
H1830 H 0.65705 0.61518 0.02677 0.0
H1831 H 0.66703 0.58745 0.96432 0.0
H1832 H 0.68348 0.57283 0.94166 0.0
H1833 H 0.68536 0.52767 0.9758 0.0
H1834 H 0.66909 0.54216 0.9988 0.0
H1835 H 0.57192 0.5609 0.01298 0.0
H1836 H 0.59892 0.58071 0.00924 0.0
H1837 H 0.62523 0.53551 0.02041 0.0
H1838 H 0.59829 0.51573 0.02367 0.0
H1839 H 0.63726 0.55004 0.99251 0.0
H1840 H 0.62793 0.57705 0.05511 0.0
H1841 H 0.61174 0.59113 0.07845 0.0
H1842 H 0.60924 0.63702 0.04546 0.0
H1843 H 0.62526 0.62309 0.02179 0.0
C1844 C 0.71079 0.61111 1.00561 0.0
C1845 C 0.71096 0.62918 1.00025 0.0
C1846 C 0.69535 0.59943 0.0076 0.0
C1847 C 0.67964 0.60546 1.00426 0.0
C1848 C 0.67982 0.62337 0.99868 0.0
C1849 C 0.69514 0.63496 0.99664 0.0
C1850 C 0.66302 0.59346 0.00678 0.0
C1851 C 0.65267 0.601 0.01908 0.0
C1852 C 0.65728 0.57473 0.99723 0.0
C1853 C 0.667 0.56599 0.98339 0.0
C1854 C 0.67106 0.57447 0.96707 0.0
C1855 C 0.68033 0.5662 0.95416 0.0
C1856 C 0.6855 0.54936 0.95732 0.0
C1857 C 0.68137 0.54073 0.97338 0.0
C1858 C 0.67211 0.54896 0.98636 0.0
C1859 C 0.58349 0.55533 0.01494 0.0
C1860 C 0.58291 0.53679 0.01891 0.0
C1861 C 0.59903 0.56667 0.01276 0.0
C1862 C 0.61443 0.55985 0.01477 0.0
C1863 C 0.61372 0.54129 0.01872 0.0
C1864 C 0.59824 0.52996 0.02068 0.0
C1865 C 0.63123 0.57174 0.01252 0.0
C1866 C 0.64162 0.5642 1.00026 0.0
C1867 C 0.6371 0.5904 0.02227 0.0
C1868 C 0.62765 0.59894 0.03659 0.0
C1869 C 0.62384 0.59009 0.05278 0.0
C1870 C 0.61471 0.59805 0.06607 0.0
C1871 C 0.60943 0.61494 0.06341 0.0
C1872 C 0.61332 0.62393 0.04749 0.0
C1873 C 0.62245 0.61602 0.03414 0.0
H1874 H 0.60234 0.62107 0.0737 0.0
H1875 H 0.69268 0.54297 0.9473 0.0
H1876 H 0.64247 0.48257 0.29569 0.0
H1877 H 0.6554 0.45469 0.2915 0.0
H1878 H 0.70083 0.48889 0.2788 0.0
H1879 H 0.68794 0.51663 0.28265 0.0
H1880 H 0.69276 0.45653 0.2548 0.0
H1881 H 0.69822 0.47581 0.32439 0.0
H1882 H 0.68755 0.48339 0.35526 0.0
H1883 H 0.65741 0.42765 0.34795 0.0
H1884 H 0.66774 0.41983 0.31688 0.0
H1885 H 0.75893 0.4084 0.27661 0.0
H1886 H 0.73976 0.43065 0.27799 0.0
H1887 H 0.69899 0.38646 0.28533 0.0
H1888 H 0.71813 0.36384 0.28361 0.0
H1889 H 0.70088 0.42017 0.31012 0.0
H1890 H 0.69849 0.40014 0.24199 0.0
H1891 H 0.71029 0.39301 0.21181 0.0
H1892 H 0.73546 0.45067 0.21683 0.0
H1893 H 0.72402 0.4581 0.24722 0.0
C1894 C 0.65514 0.48409 0.29178 0.0
C1895 C 0.66421 0.50182 0.28957 0.0
C1896 C 0.66255 0.46817 0.28951 0.0
C1897 C 0.67919 0.46973 0.28509 0.0
C1898 C 0.68799 0.48732 0.28223 0.0
C1899 C 0.68061 0.50319 0.28448 0.0
C1900 C 0.68775 0.45329 0.2839 0.0
C1901 C 0.69459 0.44865 0.26694 0.0
C1902 C 0.68977 0.44264 0.29953 0.0
C1903 C 0.68358 0.44732 0.3182 0.0
C1904 C 0.68921 0.46522 0.32929 0.0
C1905 C 0.68324 0.46955 0.34683 0.0
C1906 C 0.67176 0.45603 0.35353 0.0
C1907 C 0.66627 0.43813 0.34272 0.0
C1908 C 0.67218 0.43374 0.32515 0.0
C1909 C 0.74585 0.4033 0.27833 0.0
C1910 C 0.74001 0.38423 0.27965 0.0
C1911 C 0.73492 0.41609 0.2792 0.0
C1912 C 0.71787 0.41015 0.28142 0.0
C1913 C 0.71209 0.3913 0.28351 0.0
C1914 C 0.72306 0.37842 0.28258 0.0
C1915 C 0.7062 0.42378 0.28122 0.0
C1916 C 0.69879 0.42786 0.29787 0.0
C1917 C 0.70371 0.434 0.26536 0.0
C1918 C 0.71047 0.42964 0.24696 0.0
C1919 C 0.70663 0.41127 0.23673 0.0
C1920 C 0.71324 0.40718 0.21958 0.0
C1921 C 0.72364 0.42137 0.21242 0.0
C1922 C 0.72741 0.43969 0.22239 0.0
C1923 C 0.72084 0.44386 0.23957 0.0
H1924 H 0.72875 0.41817 0.19914 0.0
H1925 H 0.66716 0.4594 0.36711 0.0
H1926 H 0.79184 0.41883 0.50131 0.0
H1927 H 0.81699 0.44046 0.49669 0.0
H1928 H 0.82132 0.40367 0.44532 0.0
H1929 H 0.79643 0.38135 0.4505 0.0
H1930 H 0.85025 0.41246 0.46715 0.0
H1931 H 0.81077 0.44932 0.44391 0.0
H1932 H 0.78622 0.4652 0.44405 0.0
H1933 H 0.81092 0.50033 0.4975 0.0
H1934 H 0.83553 0.4845 0.49784 0.0
H1935 H 0.9227 0.47637 0.45336 0.0
H1936 H 0.89312 0.45957 0.44735 0.0
H1937 H 0.88616 0.48389 0.50432 0.0
H1938 H 0.91575 0.50116 0.51031 0.0
H1939 H 0.85793 0.48197 0.4748 0.0
H1940 H 0.89569 0.44189 0.49906 0.0
H1941 H 0.92015 0.4259 0.49832 0.0
H1942 H 0.898 0.39673 0.44109 0.0
H1943 H 0.87353 0.41278 0.44136 0.0
C1944 C 0.79787 0.41549 0.48874 0.0
C1945 C 0.79217 0.39833 0.47629 0.0
C1946 C 0.81226 0.42798 0.48605 0.0
C1947 C 0.82099 0.42388 0.4705 0.0
C1948 C 0.81481 0.40716 0.45743 0.0
C1949 C 0.80057 0.39443 0.46036 0.0
C1950 C 0.83751 0.43606 0.46925 0.0
C1951 C 0.85179 0.42763 0.46831 0.0
C1952 C 0.83968 0.45591 0.4712 0.0
C1953 C 0.82497 0.46564 0.47094 0.0
C1954 C 0.81093 0.46037 0.45575 0.0
C1955 C 0.79701 0.46937 0.45574 0.0
C1956 C 0.797 0.48375 0.47079 0.0
C1957 C 0.81094 0.48919 0.48585 0.0
C1958 C 0.8249 0.48023 0.48594 0.0
C1959 C 0.91478 0.47853 0.46444 0.0
C1960 C 0.92156 0.49008 0.48235 0.0
C1961 C 0.89792 0.46881 0.46102 0.0
C1962 C 0.88756 0.47037 0.47547 0.0
C1963 C 0.894 0.48251 0.49301 0.0
C1964 C 0.91091 0.49224 0.49647 0.0
C1965 C 0.87044 0.45829 0.4729 0.0
C1966 C 0.85617 0.46677 0.47322 0.0
C1967 C 0.86822 0.43847 0.4702 0.0
C1968 C 0.88287 0.42869 0.47014 0.0
C1969 C 0.8961 0.43218 0.48625 0.0
C1970 C 0.90996 0.42309 0.48593 0.0
C1971 C 0.91065 0.41034 0.46965 0.0
C1972 C 0.89746 0.40663 0.45368 0.0
C1973 C 0.88359 0.41571 0.45391 0.0
H1974 H 0.92136 0.40329 0.46943 0.0
H1975 H 0.7862 0.49069 0.47076 0.0
H1976 H 0.41119 0.11792 0.27136 0.0
H1977 H 0.39666 0.14466 0.27111 0.0
H1978 H 0.34904 0.10782 0.27264 0.0
H1979 H 0.36346 0.08093 0.27124 0.0
H1980 H 0.33835 0.13096 0.25577 0.0
H1981 H 0.38113 0.14957 0.31448 0.0
H1982 H 0.41041 0.15701 0.33299 0.0
H1983 H 0.42482 0.19866 0.29642 0.0
H1984 H 0.39565 0.19139 0.27765 0.0
H1985 H 0.29224 0.20531 0.27836 0.0
H1986 H 0.30761 0.17928 0.27799 0.0
H1987 H 0.35371 0.21716 0.27319 0.0
H1988 H 0.33842 0.24348 0.27479 0.0
H1989 H 0.36546 0.19404 0.29116 0.0
H1990 H 0.32323 0.17653 0.23319 0.0
H1991 H 0.29425 0.16947 0.21398 0.0
H1992 H 0.27916 0.12599 0.24824 0.0
H1993 H 0.30801 0.13292 0.26777 0.0
C1994 C 0.3976 0.11534 0.27162 0.0
C1995 C 0.38887 0.0966 0.27133 0.0
C1996 C 0.38906 0.13108 0.27183 0.0
C1997 C 0.37125 0.12941 0.27258 0.0
C1998 C 0.36259 0.11055 0.27214 0.0
C1999 C 0.37104 0.09476 0.27139 0.0
C2000 C 0.36161 0.14665 0.2734 0.0
C2001 C 0.34446 0.14455 0.26392 0.0
C2002 C 0.36885 0.16535 0.28322 0.0
C2003 C 0.38628 0.16981 0.29458 0.0
C2004 C 0.39057 0.16027 0.31038 0.0
C2005 C 0.40714 0.16447 0.32091 0.0
C2006 C 0.41947 0.17826 0.31585 0.0
C2007 C 0.41526 0.18796 0.30031 0.0
C2008 C 0.39871 0.18383 0.28974 0.0
C2009 C 0.30564 0.20829 0.27706 0.0
C2010 C 0.31363 0.22713 0.27636 0.0
C2011 C 0.31465 0.19298 0.27662 0.0
C2012 C 0.33227 0.19517 0.27484 0.0
C2013 C 0.3403 0.21412 0.2744 0.0
C2014 C 0.33134 0.22953 0.27522 0.0
C2015 C 0.34218 0.17821 0.27378 0.0
C2016 C 0.35935 0.18039 0.28314 0.0
C2017 C 0.335 0.1596 0.2638 0.0
C2018 C 0.31771 0.15536 0.25204 0.0
C2019 C 0.3137 0.16552 0.23667 0.0
C2020 C 0.2973 0.16154 0.22573 0.0
C2021 C 0.28486 0.14733 0.22992 0.0
C2022 C 0.2888 0.13702 0.24503 0.0
C2023 C 0.30518 0.14095 0.25602 0.0
H2024 H 0.27217 0.14428 0.22144 0.0
H2025 H 0.4323 0.18147 0.324 0.0
H2026 H 0.29798 0.09967 0.51986 0.0
H2027 H 0.32359 0.08579 0.52386 0.0
H2028 H 0.35431 0.13832 0.51642 0.0
H2029 H 0.32884 0.1523 0.51275 0.0
H2030 H 0.34566 0.07856 0.50109 0.0
H2031 H 0.39462 0.14382 0.54133 0.0
H2032 H 0.3955 0.17258 0.56409 0.0
H2033 H 0.35141 0.14545 0.58548 0.0
H2034 H 0.35041 0.11647 0.56304 0.0
H2035 H 0.42955 0.05961 0.50029 0.0
H2036 H 0.40457 0.07448 0.49712 0.0
H2037 H 0.40483 0.07791 0.55926 0.0
H2038 H 0.4301 0.06366 0.56263 0.0
H2039 H 0.39761 0.10905 0.54817 0.0
H2040 H 0.37615 0.04364 0.5252 0.0
H2041 H 0.37433 0.01322 0.50481 0.0
H2042 H 0.3617 0.03779 0.45301 0.0
H2043 H 0.36366 0.06843 0.47309 0.0
C2044 C 0.3102 0.10833 0.51921 0.0
C2045 C 0.31124 0.1272 0.5161 0.0
C2046 C 0.32489 0.10032 0.52141 0.0
C2047 C 0.34111 0.11094 0.52066 0.0
C2048 C 0.34214 0.12978 0.51744 0.0
C2049 C 0.32746 0.13779 0.51527 0.0
C2050 C 0.35685 0.10231 0.52307 0.0
C2051 C 0.357 0.08532 0.51137 0.0
C2052 C 0.37176 0.11077 0.53665 0.0
C2053 C 0.37235 0.12805 0.55035 0.0
C2054 C 0.38516 0.14398 0.55094 0.0
C2055 C 0.38567 0.16032 0.56378 0.0
C2056 C 0.37348 0.16086 0.57618 0.0
C2057 C 0.3608 0.14504 0.57582 0.0
C2058 C 0.36025 0.12866 0.56303 0.0
C2059 C 0.42447 0.06371 0.51336 0.0
C2060 C 0.43197 0.06018 0.53173 0.0
C2061 C 0.40997 0.07208 0.51149 0.0
C2062 C 0.40245 0.07716 0.52789 0.0
C2063 C 0.41018 0.07411 0.54629 0.0
C2064 C 0.42464 0.06574 0.54817 0.0
C2065 C 0.38651 0.08546 0.52597 0.0
C2066 C 0.38631 0.10237 0.53779 0.0
C2067 C 0.37147 0.07676 0.51274 0.0
C2068 C 0.37021 0.05836 0.50064 0.0
C2069 C 0.3731 0.04258 0.50945 0.0
C2070 C 0.37203 0.0253 0.49796 0.0
C2071 C 0.36795 0.02359 0.47763 0.0
C2072 C 0.36488 0.03914 0.46876 0.0
C2073 C 0.36596 0.05647 0.48019 0.0
H2074 H 0.36712 1.0102 0.46875 0.0
H2075 H 0.37389 0.17353 0.58609 0.0
H2076 H 0.65749 0.62768 0.32077 0.0
H2077 H 0.6803 0.65417 0.31927 0.0
H2078 H 0.71332 0.61571 0.3057 0.0
H2079 H 0.69056 0.58915 0.30686 0.0
H2080 H 0.71213 0.66776 0.33817 0.0
H2081 H 0.73726 0.6321 0.27259 0.0
H2082 H 0.72668 0.60757 0.24401 0.0
H2083 H 0.67583 0.6177 0.24394 0.0
H2084 H 0.68614 0.64245 0.27233 0.0
H2085 H 0.78974 0.72578 0.32465 0.0
H2086 H 0.76805 0.69935 0.32953 0.0
H2087 H 0.73758 0.70389 0.27503 0.0
H2088 H 0.75962 0.72943 0.26964 0.0
H2089 H 0.73695 0.66917 0.27695 0.0
H2090 H 0.72897 0.72065 0.3222 0.0
H2091 H 0.738 0.74663 0.34967 0.0
H2092 H 0.75094 0.70779 0.3883 0.0
H2093 H 0.74235 0.68166 0.36102 0.0
C2094 C 0.66964 0.62482 0.31762 0.0
C2095 C 0.67207 0.6062 0.31375 0.0
C2096 C 0.68271 0.64002 0.31682 0.0
C2097 C 0.69847 0.63697 0.31209 0.0
C2098 C 0.70118 0.61845 0.30904 0.0
C2099 C 0.68813 0.60325 0.30978 0.0
C2100 C 0.71179 0.65307 0.30949 0.0
C2101 C 0.71759 0.66807 0.32481 0.0
C2102 C 0.71876 0.65368 0.29195 0.0
C2103 C 0.71246 0.63897 0.27472 0.0
C2104 C 0.72383 0.62913 0.26643 0.0
C2105 C 0.71788 0.61519 0.25027 0.0
C2106 C 0.70059 0.61104 0.24221 0.0
C2107 C 0.68921 0.62087 0.25024 0.0
C2108 C 0.6951 0.63485 0.26638 0.0
C2109 C 0.7784 0.72108 0.31374 0.0
C2110 C 0.77619 0.72992 0.29696 0.0
C2111 C 0.76594 0.70607 0.3166 0.0
C2112 C 0.75094 0.69977 0.30284 0.0
C2113 C 0.74893 0.70848 0.28595 0.0
C2114 C 0.76146 0.72327 0.28298 0.0
C2115 C 0.73745 0.68392 0.30568 0.0
C2116 C 0.73159 0.66891 0.29039 0.0
C2117 C 0.73019 0.68354 0.32309 0.0
C2118 C 0.73517 0.69923 0.33953 0.0
C2119 C 0.73385 0.71768 0.33653 0.0
C2120 C 0.73888 0.73242 0.35206 0.0
C2121 C 0.74504 0.72885 0.3707 0.0
C2122 C 0.74618 0.71053 0.37385 0.0
C2123 C 0.74124 0.69576 0.35837 0.0
H2124 H 0.74892 0.74025 0.38271 0.0
H2125 H 0.696 0.60023 0.22971 0.0
H2126 H 0.90464 0.46853 0.75441 0.0
H2127 H 0.88703 0.43772 0.75524 0.0
H2128 H 0.85666 0.46391 0.79209 0.0
H2129 H 0.87408 0.49508 0.79074 0.0
H2130 H 0.86649 0.43114 0.80632 0.0
H2131 H 0.84011 0.4456 0.74548 0.0
H2132 H 0.83844 0.45406 0.71216 0.0
H2133 H 0.85789 0.40521 0.69294 0.0
H2134 H 0.86001 0.39664 0.72626 0.0
H2135 H 0.80774 0.3452 0.80827 0.0
H2136 H 0.82203 0.37712 0.806 0.0
H2137 H 0.84001 0.35652 0.7538 0.0
H2138 H 0.82469 0.32476 0.75541 0.0
H2139 H 0.83601 0.38752 0.74747 0.0
H2140 H 0.86576 0.37398 0.80667 0.0
H2141 H 0.86949 0.36466 0.83965 0.0
H2142 H 0.84699 0.41025 0.86156 0.0
H2143 H 0.84299 0.41976 0.82868 0.0
C2144 C 0.89397 0.46793 0.76237 0.0
C2145 C 0.89082 0.48477 0.77216 0.0
C2146 C 0.88383 0.45005 0.76291 0.0
C2147 C 0.8702 0.44791 0.77372 0.0
C2148 C 0.86694 0.46472 0.78353 0.0
C2149 C 0.87687 0.48277 0.78258 0.0
C2150 C 0.85991 0.42824 0.77509 0.0
C2151 C 0.85962 0.42178 0.7934 0.0
C2152 C 0.8513 0.41522 0.75841 0.0
C2153 C 0.85041 0.4206 0.73846 0.0
C2154 C 0.84425 0.43679 0.73423 0.0
C2155 C 0.84318 0.44158 0.71532 0.0
C2156 C 0.84811 0.43021 0.70045 0.0
C2157 C 0.85413 0.41403 0.70448 0.0
C2158 C 0.85527 0.40921 0.72338 0.0
C2159 C 0.81476 0.34734 0.79628 0.0
C2160 C 0.8149 0.33187 0.78213 0.0
C2161 C 0.82326 0.3659 0.79506 0.0
C2162 C 0.83292 0.37 0.77999 0.0
C2163 C 0.83294 0.35447 0.76575 0.0
C2164 C 0.82409 0.33597 0.76672 0.0
C2165 C 0.8426 0.39016 0.77878 0.0
C2166 C 0.84285 0.39676 0.76047 0.0
C2167 C 0.85158 0.40316 0.79543 0.0
C2168 C 0.85391 0.39745 0.81517 0.0
C2169 C 0.86151 0.38194 0.8185 0.0
C2170 C 0.86369 0.37664 0.83717 0.0
C2171 C 0.85842 0.38681 0.85267 0.0
C2172 C 0.85103 0.40236 0.84954 0.0
C2173 C 0.84882 0.40772 0.83089 0.0
H2174 H 0.86012 0.38268 0.86711 0.0
H2175 H 0.84721 0.43391 0.68581 0.0
H2176 H 0.0667 0.85853 0.15547 0.0
H2177 H 0.06458 0.88715 0.14083 0.0
H2178 H 0.06893 0.85845 0.08474 0.0
H2179 H 0.07133 0.8299 0.09939 0.0
H2180 H 0.08623 0.8934 0.08856 0.0
H2181 H 0.02966 0.86553 0.09786 0.0
H2182 H 1.00772 0.85286 0.11686 0.0
H2183 H 0.01636 0.90613 0.15352 0.0
H2184 H 0.03852 0.91904 0.1349 0.0
H2185 H 0.02712 0.95741 0.04363 0.0
H2186 H 0.03127 0.92965 0.05901 0.0
H2187 H 0.08125 0.95882 0.08752 0.0
H2188 H 0.07748 0.98628 0.07173 0.0
H2189 H 0.03652 0.9234 0.0967 0.0
H2190 H 0.10499 0.93726 0.0923 0.0
H2191 H 0.12525 0.94877 0.07079 0.0
H2192 H 0.08913 0.92127 0.02028 0.0
H2193 H 0.06873 0.90965 0.04164 0.0
C2194 C 0.06739 0.85833 0.14006 0.0
C2195 C 0.06913 0.84175 0.12867 0.0
C2196 C 0.06605 0.87475 0.13161 0.0
C2197 C 0.06629 0.8751 0.11148 0.0
C2198 C 0.06865 0.85874 0.10025 0.0
C2199 C 0.07 0.84232 0.10868 0.0
C2200 C 0.06357 0.8922 0.10201 0.0
C2201 C 0.07535 0.89989 0.09049 0.0
C2202 C 0.04932 0.90087 0.10406 0.0
C2203 C 0.03586 0.89319 0.11511 0.0
C2204 C 0.02695 0.8745 0.11005 0.0
C2205 C 0.01447 0.86728 0.12074 0.0
C2206 C 1.01069 0.87867 0.13642 0.0
C2207 C 0.01933 0.89732 0.14139 0.0
C2208 C 0.03184 0.9046 0.13077 0.0
C2209 C 0.03911 0.95788 0.05297 0.0
C2210 C 0.05202 0.97419 0.05615 0.0
C2211 C 0.04144 0.94195 0.06188 0.0
C2212 C 0.05674 0.94178 0.07422 0.0
C2213 C 0.06953 0.95815 0.07763 0.0
C2214 C 0.06727 0.97402 0.06864 0.0
C2215 C 0.05928 0.92464 0.08361 0.0
C2216 C 0.04744 0.91692 0.09499 0.0
C2217 C 0.07331 0.91579 0.0813 0.0
C2218 C 0.08556 0.9224 0.06851 0.0
C2219 C 0.10156 0.93347 0.07661 0.0
C2220 C 0.11298 0.94013 0.06445 0.0
C2221 C 0.10853 0.93565 0.04416 0.0
C2222 C 0.09259 0.92465 0.036 0.0
C2223 C 0.08109 0.91807 0.04812 0.0
H2224 H 0.11738 0.94072 0.03473 0.0
H2225 H 1.00106 0.87305 0.14471 0.0
H2226 H 0.94767 0.26221 0.92298 0.0
H2227 H 0.92111 0.26344 0.90256 0.0
H2228 H 0.94624 0.26311 0.85188 0.0
H2229 H 0.97334 0.26201 0.87255 0.0
H2230 H 0.9254 0.28898 0.85191 0.0
H2231 H 0.91834 0.22404 0.85934 0.0
H2232 H 0.91819 0.19665 0.87701 0.0
H2233 H 0.87969 0.21328 0.90825 0.0
H2234 H 0.87978 0.24094 0.89096 0.0
H2235 H 0.85021 0.26751 0.78115 0.0
H2236 H 0.87673 0.26704 0.80227 0.0
H2237 H 0.85135 0.27083 0.85267 0.0
H2238 H 0.82443 0.27147 0.83128 0.0
H2239 H 0.87212 0.24355 0.85311 0.0
H2240 H 0.87867 0.30811 0.8448 0.0
H2241 H 0.87844 0.33496 0.82641 0.0
H2242 H 0.91785 0.31884 0.79644 0.0
H2243 H 0.91806 0.29161 0.81434 0.0
C2244 C 0.94771 0.26229 0.90747 0.0
C2245 C 0.96289 0.26195 0.89955 0.0
C2246 C 0.93232 0.26292 0.89572 0.0
C2247 C 0.93138 0.26318 0.8755 0.0
C2248 C 0.94648 0.26287 0.86741 0.0
C2249 C 0.962 0.26212 0.87924 0.0
C2250 C 0.91467 0.26409 0.86318 0.0
C2251 C 0.91384 0.27884 0.85196 0.0
C2252 C 0.89928 0.25127 0.86354 0.0
C2253 C 0.8992 0.23467 0.87399 0.0
C2254 C 0.90995 0.22195 0.8701 0.0
C2255 C 0.90985 0.20636 0.88002 0.0
C2256 C 0.89897 0.20326 0.89378 0.0
C2257 C 0.88813 0.21572 0.89761 0.0
C2258 C 0.88819 0.23135 0.88774 0.0
C2259 C 0.85018 0.26839 0.79676 0.0
C2260 C 0.83507 0.2696 0.80445 0.0
C2261 C 0.86548 0.26816 0.80888 0.0
C2262 C 0.86629 0.26903 0.8292 0.0
C2263 C 0.85119 0.27018 0.83706 0.0
C2264 C 0.83578 0.27065 0.82483 0.0
C2265 C 0.88288 0.26841 0.84186 0.0
C2266 C 0.88369 0.2537 0.85311 0.0
C2267 C 0.89824 0.28124 0.84149 0.0
C2268 C 0.89827 0.29769 0.8308 0.0
C2269 C 0.88719 0.31018 0.83417 0.0
C2270 C 0.88708 0.32549 0.82385 0.0
C2271 C 0.89811 0.3286 0.81026 0.0
C2272 C 0.9093 0.3164 0.80697 0.0
C2273 C 0.90942 0.30102 0.8172 0.0
H2274 H 0.89801 0.34047 0.80229 0.0
H2275 H 0.89891 0.19117 0.90144 0.0
H2276 H 0.55367 0.23068 0.63915 0.0
H2277 H 0.54991 0.19671 0.62809 0.0
H2278 H 0.56327 0.20838 0.57236 0.0
H2279 H 0.5672 0.24187 0.5832 0.0
H2280 H 0.5302 0.17132 0.5993 0.0
H2281 H 0.58701 0.17898 0.55537 0.0
H2282 H 0.61511 0.1996 0.55731 0.0
H2283 H 0.61751 0.21425 0.61916 0.0
H2284 H 0.58956 0.19353 0.61765 0.0
H2285 H 0.52121 0.08634 0.53564 0.0
H2286 H 0.52487 0.11921 0.54993 0.0
H2287 H 0.57444 0.11674 0.58066 0.0
H2288 H 0.57118 0.08412 0.56542 0.0
H2289 H 0.57728 0.1486 0.57089 0.0
H2290 H 0.53545 0.11526 0.60277 0.0
H2291 H 0.50893 0.09355 0.60517 0.0
H2292 H 0.4793 0.12832 0.57548 0.0
H2293 H 0.50566 0.15012 0.57268 0.0
C2294 C 0.55567 0.22599 0.62449 0.0
C2295 C 0.56094 0.2392 0.61222 0.0
C2296 C 0.55352 0.20652 0.61816 0.0
C2297 C 0.55665 0.19983 0.59947 0.0
C2298 C 0.56117 0.21301 0.587 0.0
C2299 C 0.56336 0.23231 0.59327 0.0
C2300 C 0.5556 0.17925 0.59286 0.0
C2301 C 0.54051 0.16635 0.59312 0.0
C2302 C 0.56919 0.17246 0.58529 0.0
C2303 C 0.58611 0.18481 0.58634 0.0
C2304 C 0.59357 0.18653 0.56939 0.0
C2305 C 0.60946 0.19825 0.57042 0.0
C2306 C 0.61806 0.20827 0.58833 0.0
C2307 C 0.61081 0.20654 0.60528 0.0
C2308 C 0.59493 0.19483 0.60434 0.0
C2309 C 0.53296 0.09283 0.54534 0.0
C2310 C 0.5459 0.0825 0.54936 0.0
C2311 C 0.53498 0.11167 0.55373 0.0
C2312 C 0.54976 0.12062 0.56694 0.0
C2313 C 0.56285 0.11038 0.57063 0.0
C2314 C 0.56099 0.09164 0.56187 0.0
C2315 C 0.55163 0.1406 0.57671 0.0
C2316 C 0.56693 0.15344 0.57708 0.0
C2317 C 0.53844 0.14716 0.58547 0.0
C2318 C 0.52254 0.13425 0.58739 0.0
C2319 C 0.52328 0.11823 0.59668 0.0
C2320 C 0.50828 0.10591 0.59811 0.0
C2321 C 0.49244 0.10953 0.59044 0.0
C2322 C 0.49158 0.12552 0.5814 0.0
C2323 C 0.50655 0.13788 0.57991 0.0
H2324 H 0.48084 0.09996 0.59154 0.0
H2325 H 0.63036 0.21734 0.5891 0.0
H2326 H 0.54846 0.75774 0.36489 0.0
H2327 H 0.57459 0.75982 0.35043 0.0
H2328 H 0.60379 0.76098 0.40734 0.0
H2329 H 0.57776 0.76002 0.42192 0.0
H2330 H 0.62182 0.78369 0.391 0.0
H2331 H 0.593 0.72054 0.36736 0.0
H2332 H 0.56923 0.69505 0.3512 0.0
H2333 H 0.56936 0.7184 0.29743 0.0
H2334 H 0.593 0.74416 0.31334 0.0
H2335 H 0.69718 0.7667 0.35304 0.0
H2336 H 0.67131 0.76322 0.3682 0.0
H2337 H 0.64214 0.77189 0.31464 0.0
H2338 H 0.66779 0.77497 0.29929 0.0
H2339 H 0.62472 0.74348 0.32975 0.0
H2340 H 0.65462 0.80681 0.35517 0.0
H2341 H 0.67953 0.83047 0.37213 0.0
H2342 H 0.67843 0.80412 0.42403 0.0
H2343 H 0.65364 0.78014 0.40729 0.0
C2344 C 0.56042 0.75827 0.37432 0.0
C2345 C 0.56088 0.75856 0.39461 0.0
C2346 C 0.57547 0.75936 0.36598 0.0
C2347 C 0.59145 0.7602 0.37757 0.0
C2348 C 0.59183 0.76036 0.39787 0.0
C2349 C 0.57684 0.75968 0.40625 0.0
C2350 C 0.60772 0.76137 0.36871 0.0
C2351 C 0.6224 0.77462 0.37776 0.0
C2352 C 0.60884 0.74987 0.35122 0.0
C2353 C 0.59466 0.73437 0.34159 0.0
C2354 C 0.58788 0.7203 0.35212 0.0
C2355 C 0.57445 0.7058 0.34301 0.0
C2356 C 0.56776 0.70513 0.32332 0.0
C2357 C 0.57453 0.71894 0.31269 0.0
C2358 C 0.58796 0.73349 0.32174 0.0
C2359 C 0.68527 0.76779 0.3444 0.0
C2360 C 0.68479 0.77129 0.32487 0.0
C2361 C 0.67042 0.76593 0.35319 0.0
C2362 C 0.65461 0.76748 0.34273 0.0
C2363 C 0.65407 0.77068 0.32317 0.0
C2364 C 0.66889 0.77264 0.31442 0.0
C2365 C 0.63864 0.76576 0.35202 0.0
C2366 C 0.62405 0.75244 0.34303 0.0
C2367 C 0.63771 0.77695 0.36973 0.0
C2368 C 0.65237 0.79159 0.37992 0.0
C2369 C 0.65974 0.806 0.37017 0.0
C2370 C 0.67384 0.81947 0.37975 0.0
C2371 C 0.68059 0.81877 0.39913 0.0
C2372 C 0.6732 0.80464 0.40901 0.0
C2373 C 0.65912 0.79111 0.39949 0.0
H2374 H 0.69152 0.82919 0.40651 0.0
H2375 H 0.55736 0.6939 0.31629 0.0
H2376 H 0.99033 0.23479 0.39933 0.0
H2377 H 0.99178 0.20282 0.40538 0.0
H2378 H 0.04315 0.21036 0.39254 0.0
H2379 H 0.04155 0.24234 0.38586 0.0
H2380 H 0.02282 0.17007 0.3861 0.0
H2381 H 0.04211 0.22622 0.435 0.0
H2382 H 0.03816 0.25635 0.45189 0.0
H2383 H 0.99256 0.2283 0.4697 0.0
H2384 H 0.9961 0.19806 0.45259 0.0
H2385 H 0.05927 0.12158 0.46126 0.0
H2386 H 0.05253 0.14177 0.43658 0.0
H2387 H 1.00548 0.14608 0.45814 0.0
H2388 H 0.01235 0.12638 0.48295 0.0
H2389 H 0.02383 0.17941 0.45792 0.0
H2390 H 1.00584 0.12258 0.41285 0.0
H2391 H 1.00871 0.09221 0.39553 0.0
H2392 H 0.05038 0.12001 0.3706 0.0
H2393 H 0.04793 0.15054 0.38803 0.0
C2394 C 1.00162 0.2293 0.39689 0.0
C2395 C 0.01595 0.24101 0.39251 0.0
C2396 C 1.00241 0.21102 0.40022 0.0
C2397 C 0.01768 0.20444 0.39975 0.0
C2398 C 0.03125 0.21523 0.39292 0.0
C2399 C 0.03036 0.2335 0.38921 0.0
C2400 C 0.02085 0.18923 0.41115 0.0
C2401 C 0.0232 0.17204 0.40181 0.0
C2402 C 0.02114 0.19187 0.43161 0.0
C2403 C 0.01928 0.20995 0.44237 0.0
C2404 C 0.0312 0.22652 0.44242 0.0
C2405 C 0.02903 0.2436 0.45203 0.0
C2406 C 0.0151 0.24425 0.46183 0.0
C2407 C 1.00334 0.22779 0.46209 0.0
C2408 C 1.00542 0.21067 0.45244 0.0
C2409 C 0.0474 0.12668 0.46047 0.0
C2410 C 0.03646 0.12282 0.47415 0.0
C2411 C 0.04351 0.13806 0.44633 0.0
C2412 C 0.0285 0.14541 0.44556 0.0
C2413 C 0.01716 0.14064 0.45857 0.0
C2414 C 0.02113 0.12951 0.47278 0.0
C2415 C 0.0255 0.15986 0.43296 0.0
C2416 C 0.02337 0.17717 0.44219 0.0
C2417 C 0.02537 0.15716 0.41249 0.0
C2418 C 0.02681 0.13884 0.40191 0.0
C2419 C 0.01572 0.12221 0.40381 0.0
C2420 C 0.01725 0.10496 0.39395 0.0
C2421 C 0.02975 0.10417 0.38201 0.0
C2422 C 0.04071 0.12064 0.37987 0.0
C2423 C 0.03925 0.13792 0.38973 0.0
H2424 H 0.03091 0.09081 0.37438 0.0
H2425 H 0.01344 0.25749 0.46925 0.0
H2426 H 0.61354 0.27884 0.1712 0.0
H2427 H 0.6415 0.27689 0.1881 0.0
H2428 H 0.6179 0.24795 0.23098 0.0
H2429 H 0.58972 0.25017 0.21431 0.0
H2430 H 0.64545 0.27281 0.2482 0.0
H2431 H 0.63285 0.22337 0.1951 0.0
H2432 H 0.62359 0.20817 0.16095 0.0
H2433 H 0.66555 0.24358 0.14331 0.0
H2434 H 0.67493 0.25919 0.17731 0.0
H2435 H 0.73348 0.23925 0.24704 0.0
H2436 H 0.70249 0.23425 0.23795 0.0
H2437 H 0.7043 0.29353 0.25373 0.0
H2438 H 0.73519 0.29865 0.26301 0.0
H2439 H 0.68567 0.24723 0.20964 0.0
H2440 H 0.66759 0.30091 0.26848 0.0
H2441 H 0.67401 0.31123 0.30408 0.0
H2442 H 0.691 0.25985 0.31276 0.0
H2443 H 0.68463 0.24918 0.27724 0.0
C2444 C 0.61424 0.27207 0.18424 0.0
C2445 C 0.59936 0.2645 0.19129 0.0
C2446 C 0.63025 0.27092 0.19385 0.0
C2447 C 0.63176 0.26194 0.21056 0.0
C2448 C 0.617 0.25485 0.21803 0.0
C2449 C 0.60092 0.25612 0.20848 0.0
C2450 C 0.64881 0.25994 0.22002 0.0
C2451 C 0.65426 0.26718 0.23983 0.0
C2452 C 0.66006 0.25193 0.20924 0.0
C2453 C 0.65453 0.24253 0.18875 0.0
C2454 C 0.64004 0.228 0.18392 0.0
C2455 C 0.63478 0.2193 0.16459 0.0
C2456 C 0.64396 0.22493 0.14997 0.0
C2457 C 0.65845 0.23924 0.15465 0.0
C2458 C 0.66376 0.248 0.17396 0.0
C2459 C 0.72727 0.25121 0.24872 0.0
C2460 C 0.73683 0.26938 0.25551 0.0
C2461 C 0.70956 0.24831 0.24356 0.0
C2462 C 0.70106 0.26348 0.24528 0.0
C2463 C 0.71054 0.28156 0.25254 0.0
C2464 C 0.72824 0.28449 0.25761 0.0
C2465 C 0.6826 0.26082 0.23768 0.0
C2466 C 0.67687 0.25271 0.21814 0.0
C2467 C 0.67098 0.26752 0.24889 0.0
C2468 C 0.67571 0.2743 0.27016 0.0
C2469 C 0.67271 0.29182 0.27798 0.0
C2470 C 0.6763 0.29771 0.29815 0.0
C2471 C 0.6828 0.28614 0.31068 0.0
C2472 C 0.68591 0.26876 0.30304 0.0
C2473 C 0.68241 0.26284 0.28288 0.0
H2474 H 0.68556 0.29072 0.32629 0.0
H2475 H 0.63987 0.21817 0.13501 0.0
H2476 H 0.53047 0.86345 0.88701 0.0
H2477 H 0.52776 0.8916 0.90822 0.0
H2478 H 0.53025 0.86136 0.95789 0.0
H2479 H 0.53252 0.83324 0.93681 0.0
H2480 H 0.50558 0.88047 0.95814 0.0
H2481 H 0.56505 0.89421 0.95058 0.0
H2482 H 0.58956 0.899 0.93283 0.0
H2483 H 0.56966 0.94211 0.90551 0.0
H2484 H 0.54498 0.93748 0.92301 0.0
H2485 H 0.52996 0.95881 0.03597 0.0
H2486 H 0.52618 0.92969 0.01302 0.0
H2487 H 0.5198 0.96085 0.96447 0.0
H2488 H 0.524 0.98972 0.98701 0.0
H2489 H 0.54513 0.94159 0.9627 0.0
H2490 H 0.48689 0.92966 0.97289 0.0
H2491 H 0.46342 0.92582 0.99222 0.0
H2492 H 0.48144 0.87968 0.01551 0.0
H2493 H 0.50518 0.88342 0.99652 0.0
C2494 C 0.5305 0.86289 0.90246 0.0
C2495 C 0.5317 0.84621 0.91028 0.0
C2496 C 0.529 0.87895 0.91457 0.0
C2497 C 0.52893 0.87858 0.93466 0.0
C2498 C 0.53021 0.86193 0.94243 0.0
C2499 C 0.53157 0.84589 0.93036 0.0
C2500 C 0.52732 0.89541 0.9477 0.0
C2501 C 0.51432 0.8938 0.95929 0.0
C2502 C 0.53849 0.91288 0.94885 0.0
C2503 C 0.55308 0.91534 0.93792 0.0
C2504 C 0.56582 0.90457 0.94063 0.0
C2505 C 0.57977 0.9073 0.93066 0.0
C2506 C 0.58114 0.9208 0.91799 0.0
C2507 C 0.56855 0.93159 0.91525 0.0
C2508 C 0.55459 0.92894 0.92522 0.0
C2509 C 0.5273 0.9593 0.02041 0.0
C2510 C 0.52722 0.9765 0.01329 0.0
C2511 C 0.52513 0.94271 0.00734 0.0
C2512 C 0.52276 0.94321 0.98707 0.0
C2513 C 0.52163 0.9602 0.98004 0.0
C2514 C 0.52386 0.97669 0.993 0.0
C2515 C 0.52344 0.92662 0.97318 0.0
C2516 C 0.5363 0.92829 0.96146 0.0
C2517 C 0.51219 0.90923 0.97199 0.0
C2518 C 0.49792 0.90694 0.98343 0.0
C2519 C 0.48595 0.9188 0.98227 0.0
C2520 C 0.47257 0.91662 0.99314 0.0
C2521 C 0.47097 0.90254 1.00513 0.0
C2522 C 0.48271 0.89059 1.00624 0.0
C2523 C 0.49612 0.89272 0.99541 0.0
H2524 H 0.4606 0.90087 0.01353 0.0
H2525 H 0.59197 0.92294 0.91035 0.0
H2526 H 0.01961 0.74904 0.73511 0.0
H2527 H 0.99507 0.74913 0.75242 0.0
H2528 H 0.96196 0.74486 0.69737 0.0
H2529 H 0.98627 0.74494 0.68012 0.0
H2530 H 0.96015 0.77507 0.72269 0.0
H2531 H 0.95908 0.70903 0.72413 0.0
H2532 H 0.97102 0.68139 0.73176 0.0
H2533 H 0.98028 0.70312 0.79292 0.0
H2534 H 0.9686 0.73104 0.78562 0.0
H2535 H 0.87974 0.7695 0.74664 0.0
H2536 H 0.90361 0.75846 0.7341 0.0
H2537 H 0.93074 0.76466 0.79295 0.0
H2538 H 0.90644 0.77521 0.80563 0.0
H2539 H 0.9371 0.73408 0.7688 0.0
H2540 H 0.93825 0.79979 0.76767 0.0
H2541 H 0.92603 0.82738 0.76045 0.0
H2542 H 0.91745 0.80669 0.69906 0.0
H2543 H 0.92935 0.7788 0.70594 0.0
C2544 C 1.00702 0.74768 0.7267 0.0
C2545 C 1.00487 0.74722 0.70629 0.0
C2546 C 0.99302 0.7477 0.7366 0.0
C2547 C 0.97671 0.74711 0.72617 0.0
C2548 C 0.97445 0.74544 0.7057 0.0
C2549 C 0.98837 0.74549 0.69587 0.0
C2550 C 0.96235 0.75044 0.73641 0.0
C2551 C 0.955 0.76594 0.73258 0.0
C2552 C 0.95608 0.73898 0.74992 0.0
C2553 C 0.96315 0.72224 0.7543 0.0
C2554 C 0.96382 0.70801 0.73919 0.0
C2555 C 0.97051 0.69227 0.74345 0.0
C2556 C 0.97646 0.69053 0.7628 0.0
C2557 C 0.97569 0.7045 0.77793 0.0
C2558 C 0.96903 0.72029 0.77374 0.0
C2559 C 0.89069 0.76819 0.75689 0.0
C2560 C 0.8915 0.77352 0.77702 0.0
C2561 C 0.90428 0.76187 0.74975 0.0
C2562 C 0.9191 0.76119 0.76257 0.0
C2563 C 0.91946 0.76522 0.78283 0.0
C2564 C 0.90566 0.7713 0.79003 0.0
C2565 C 0.93467 0.75832 0.75452 0.0
C2566 C 0.94232 0.74315 0.75891 0.0
C2567 C 0.94139 0.77015 0.74157 0.0
C2568 C 0.93458 0.78713 0.73734 0.0
C2569 C 0.93367 0.80107 0.75264 0.0
C2570 C 0.9268 0.81677 0.74861 0.0
C2571 C 0.92094 0.81877 0.72931 0.0
C2572 C 0.92199 0.80511 0.714 0.0
C2573 C 0.92881 0.78937 0.71796 0.0
H2574 H 0.9156 0.83092 0.72622 0.0
H2575 H 0.98162 0.67832 0.76608 0.0
H2576 H 0.10933 0.05181 0.84722 0.0
H2577 H 0.09752 0.04942 0.87745 0.0
H2578 H 0.14506 0.03865 0.90586 0.0
H2579 H 0.15688 0.04068 0.87539 0.0
H2580 H 0.11888 0.0145 0.91411 0.0
H2581 H 0.13253 0.08196 0.91887 0.0
H2582 H 0.13304 0.11258 0.90695 0.0
H2583 H 0.07827 0.10131 0.89508 0.0
H2584 H 0.0775 0.07045 0.9065 0.0
H2585 H 0.08273 0.01413 1.00309 0.0
H2586 H 0.10236 0.02201 0.97984 0.0
H2587 H 0.06211 0.03932 0.94306 0.0
H2588 H 0.04309 0.0325 0.96651 0.0
H2589 H 0.08932 0.06249 0.9427 0.0
H2590 H 0.07544 0.99414 0.93507 0.0
H2591 H 0.07442 0.9634 0.94679 0.0
H2592 H 0.12892 0.97565 0.9632 0.0
H2593 H 0.13022 1.00655 0.95174 0.0
C2594 C 0.11738 0.04917 0.85995 0.0
C2595 C 0.13409 0.04651 0.85884 0.0
C2596 C 0.11062 0.04787 0.87732 0.0
C2597 C 0.12042 0.04406 0.89414 0.0
C2598 C 0.13721 0.04164 0.89316 0.0
C2599 C 0.144 0.04291 0.87573 0.0
C2600 C 0.11281 0.0419 0.91239 0.0
C2601 C 0.11269 0.02516 0.92058 0.0
C2602 C 0.1045 0.05559 0.9208 0.0
C2603 C 0.10495 0.074 0.91368 0.0
C2604 C 0.12061 0.08601 0.91364 0.0
C2605 C 0.12095 0.10338 0.90695 0.0
C2606 C 0.1057 0.10891 0.9003 0.0
C2607 C 0.09008 0.09705 0.90028 0.0
C2608 C 0.08968 0.07964 0.9069 0.0
C2609 C 0.07825 0.01995 0.99024 0.0
C2610 C 0.06138 0.02279 0.98678 0.0
C2611 C 0.0894 0.02424 0.97677 0.0
C2612 C 0.08374 0.03108 0.95939 0.0
C2613 C 0.06694 0.03412 0.95623 0.0
C2614 C 0.05598 0.03007 0.96968 0.0
C2615 C 0.09483 0.03479 0.94408 0.0
C2616 C 0.09567 0.05188 0.93642 0.0
C2617 C 0.10367 0.02134 0.9361 0.0
C2618 C 0.1029 1.00271 0.94275 0.0
C2619 C 0.08719 0.9903 0.94127 0.0
C2620 C 0.08656 0.97285 0.94785 0.0
C2621 C 0.10159 0.9676 0.95579 0.0
C2622 C 0.11728 0.97975 0.95709 0.0
C2623 C 0.11798 0.99722 0.95053 0.0
H2624 H 0.10108 0.95409 0.9609 0.0
H2625 H 0.10599 0.12237 0.89515 0.0
H2626 H 0.77163 0.37681 0.56832 0.0
H2627 H 0.78966 0.37662 0.59949 0.0
H2628 H 0.82755 0.35719 0.56855 0.0
H2629 H 0.80939 0.35674 0.53751 0.0
H2630 H 0.81849 0.33438 0.59209 0.0
H2631 H 0.83656 0.40015 0.59906 0.0
H2632 H 0.83435 0.43338 0.59912 0.0
H2633 H 0.80475 0.43018 0.64575 0.0
H2634 H 0.80648 0.39684 0.64576 0.0
H2635 H 0.84445 0.30901 0.68141 0.0
H2636 H 0.85127 0.33121 0.65835 0.0
H2637 H 0.80527 0.35222 0.66484 0.0
H2638 H 0.79861 0.33033 0.68784 0.0
H2639 H 0.82966 0.37895 0.65375 0.0
H2640 H 0.80197 0.31204 0.63479 0.0
H2641 H 0.80193 0.27826 0.63489 0.0
H2642 H 0.84828 0.2842 0.6103 0.0
H2643 H 0.84867 0.31812 0.61035 0.0
C2644 C 0.78393 0.37281 0.56821 0.0
C2645 C 0.78894 0.36635 0.55056 0.0
C2646 C 0.79433 0.37293 0.58601 0.0
C2647 C 0.81003 0.36698 0.58635 0.0
C2648 C 0.8155 0.3618 0.56864 0.0
C2649 C 0.80503 0.36138 0.55093 0.0
C2650 C 0.81908 0.3629 0.60484 0.0
C2651 C 0.82153 0.3444 0.60541 0.0
C2652 C 0.82281 0.37583 0.62232 0.0
C2653 C 0.8216 0.3959 0.62234 0.0
C2654 C 0.82945 0.40646 0.60922 0.0
C2655 C 0.82829 0.42534 0.60926 0.0
C2656 C 0.8194 0.43388 0.62241 0.0
C2657 C 0.81164 0.42355 0.63557 0.0
C2658 C 0.81273 0.40466 0.63558 0.0
C2659 C 0.83624 0.31894 0.67844 0.0
C2660 C 0.82081 0.31777 0.68579 0.0
C2661 C 0.84016 0.33165 0.66541 0.0
C2662 C 0.82858 0.34306 0.65963 0.0
C2663 C 0.81435 0.34352 0.66905 0.0
C2664 C 0.81043 0.33086 0.68197 0.0
C2665 C 0.8284 0.35046 0.64079 0.0
C2666 C 0.82746 0.36939 0.64016 0.0
C2667 C 0.82583 0.33796 0.62313 0.0
C2668 C 0.82546 0.31757 0.62278 0.0
C2669 C 0.81217 0.30613 0.62948 0.0
C2670 C 0.81209 0.28698 0.62952 0.0
C2671 C 0.82512 0.27909 0.62265 0.0
C2672 C 0.83822 0.29034 0.61567 0.0
C2673 C 0.83839 0.30952 0.61567 0.0
H2674 H 0.82504 0.26426 0.62269 0.0
H2675 H 0.81853 0.4485 0.62243 0.0
H2676 H 0.46058 0.05045 0.31699 0.0
H2677 H 0.47684 0.04778 0.34842 0.0
H2678 H 0.43086 0.04246 0.37402 0.0
H2679 H 0.41469 0.04615 0.34256 0.0
H2680 H 0.45329 0.05947 0.40183 0.0
H2681 H 0.45516 1.00362 0.36065 0.0
H2682 H 0.45998 0.98392 0.33156 0.0
H2683 H 0.51299 1.0102 0.34224 0.0
H2684 H 0.50844 0.03025 0.37126 0.0
H2685 H 0.49661 0.02915 0.48884 0.0
H2686 H 0.47758 0.03152 0.45875 0.0
H2687 H 0.52111 0.04273 0.42935 0.0
H2688 H 0.53986 0.04008 0.45904 0.0
H2689 H 0.49817 0.02107 0.40413 0.0
H2690 H 0.49449 0.07725 0.44661 0.0
H2691 H 0.48819 0.09423 0.4766 0.0
H2692 H 0.43648 0.06359 0.46435 0.0
H2693 H 0.44253 0.04627 0.4344 0.0
C2694 C 0.45379 0.04866 0.32922 0.0
C2695 C 0.43604 0.04844 0.32668 0.0
C2696 C 0.46322 0.04691 0.34749 0.0
C2697 C 0.45542 0.0443 0.36428 0.0
C2698 C 0.43765 0.04431 0.3618 0.0
C2699 C 0.42823 0.04636 0.34352 0.0
C2700 C 0.4657 0.04173 0.38407 0.0
C2701 C 0.46292 0.05083 0.40212 0.0
C2702 C 0.4786 0.03057 0.38543 0.0
C2703 C 0.48142 0.01856 0.36801 0.0
C2704 C 0.46782 1.00528 0.35672 0.0
C2705 C 0.47051 0.99405 0.34025 0.0
C2706 C 0.48677 0.99584 0.33503 0.0
C2707 C 0.50039 1.00885 0.34629 0.0
C2708 C 0.49777 0.02014 0.36275 0.0
C2709 C 0.50218 0.03224 0.47605 0.0
C2710 C 0.52007 0.03446 0.47687 0.0
C2711 C 0.49118 0.03371 0.45859 0.0
C2712 C 0.49753 0.03758 0.44111 0.0
C2713 C 0.5154 0.03973 0.4421 0.0
C2714 C 0.5263 0.03827 0.45942 0.0
C2715 C 0.48603 0.03911 0.42178 0.0
C2716 C 0.48856 0.02976 0.40381 0.0
C2717 C 0.47271 0.0497 0.42059 0.0
C2718 C 0.469 0.06036 0.43836 0.0
C2719 C 0.48179 0.07408 0.45036 0.0
C2720 C 0.47827 0.08377 0.46735 0.0
C2721 C 0.46195 0.07996 0.47239 0.0
C2722 C 0.44911 0.06651 0.46043 0.0
C2723 C 0.45258 0.05677 0.44344 0.0
H2724 H 0.45925 0.08746 0.48555 0.0
H2725 H 0.48883 0.98713 0.32227 0.0
H2726 H 0.74553 0.69416 0.06282 0.0
H2727 H 0.75147 0.70724 0.09718 0.0
H2728 H 0.79584 0.68183 0.105 0.0
H2729 H 0.78972 0.66821 0.07011 0.0
H2730 H 0.7789 0.68027 0.13672 0.0
H2731 H 0.80067 0.72815 0.10094 0.0
H2732 H 0.8005 0.74824 0.07484 0.0
H2733 H 0.75931 0.77088 0.09503 0.0
H2734 H 0.75905 0.75071 0.12109 0.0
H2735 H 0.8115 0.74326 0.22675 0.0
H2736 H 0.80855 0.72714 0.19337 0.0
H2737 H 0.75941 0.74208 0.17939 0.0
H2738 H 0.76208 0.75797 0.21294 0.0
H2739 H 0.7819 0.74905 0.15115 0.0
H2740 H 0.75984 0.6994 0.18622 0.0
H2741 H 0.76104 0.67962 0.21255 0.0
H2742 H 0.80468 0.66101 0.19399 0.0
H2743 H 0.8039 0.68093 0.16772 0.0
C2744 C 0.75656 0.69121 0.07176 0.0
C2745 C 0.76731 0.68033 0.06354 0.0
C2746 C 0.75996 0.69878 0.09149 0.0
C2747 C 0.77436 0.696 0.10367 0.0
C2748 C 0.78472 0.68435 0.09586 0.0
C2749 C 0.78122 0.67655 0.07594 0.0
C2750 C 0.77855 0.70588 0.12426 0.0
C2751 C 0.77988 0.69535 0.13985 0.0
C2752 C 0.77964 0.72558 0.1285 0.0
C2753 C 0.77976 0.7378 0.11289 0.0
C2754 C 0.79149 0.73731 0.09973 0.0
C2755 C 0.79148 0.74873 0.08496 0.0
C2756 C 0.77988 0.7608 0.08326 0.0
C2757 C 0.76828 0.76151 0.09636 0.0
C2758 C 0.76822 0.7501 0.11115 0.0
C2759 C 0.80005 0.74319 0.2166 0.0
C2760 C 0.78701 0.75196 0.2226 0.0
C2761 C 0.79837 0.73387 0.19751 0.0
C2762 C 0.78372 0.73328 0.18387 0.0
C2763 C 0.77082 0.74231 0.18967 0.0
C2764 C 0.77235 0.75137 0.20887 0.0
C2765 C 0.78191 0.72341 0.16352 0.0
C2766 C 0.78106 0.73399 0.14799 0.0
C2767 C 0.78148 0.70385 0.1594 0.0
C2768 C 0.78194 0.69183 0.17515 0.0
C2769 C 0.7698 0.69124 0.18787 0.0
C2770 C 0.77038 0.67997 0.20276 0.0
C2771 C 0.78296 0.6691 0.20498 0.0
C2772 C 0.79496 0.66946 0.19228 0.0
C2773 C 0.79445 0.68073 0.17738 0.0
H2774 H 0.78339 0.66038 0.21651 0.0
H2775 H 0.77989 0.76963 0.07181 0.0
H2776 H 0.12824 0.01986 0.74773 0.0
H2777 H 0.11633 0.01348 0.71281 0.0
H2778 H 0.09412 0.06305 0.71868 0.0
H2779 H 0.10528 0.06895 0.7535 0.0
H2780 H 0.07189 0.03716 0.69771 0.0
H2781 H 0.13156 0.05938 0.69644 0.0
H2782 H 0.1624 0.05964 0.7036 0.0
H2783 H 0.15438 1.00349 0.67314 0.0
H2784 H 0.12344 1.00282 0.66601 0.0
H2785 H 0.05687 0.05359 0.59903 0.0
H2786 H 0.06913 0.0555 0.63343 0.0
H2787 H 0.07761 0.99883 0.62274 0.0
H2788 H 0.06519 0.99669 0.58826 0.0
H2789 H 0.10622 0.02516 0.64545 0.0
H2790 H 0.0462 1.00482 0.64506 0.0
H2791 H 0.01575 1.00626 0.63724 0.0
H2792 H 0.02525 0.0613 0.67056 0.0
H2793 H 0.05582 0.06031 0.67835 0.0
C2794 C 0.12087 0.02942 0.74153 0.0
C2795 C 0.11768 0.04488 0.75347 0.0
C2796 C 0.11411 0.02582 0.72151 0.0
C2797 C 0.10439 0.03787 0.7129 0.0
C2798 C 0.10144 0.05342 0.72484 0.0
C2799 C 0.1079 0.05682 0.74482 0.0
C2800 C 0.09689 0.03426 0.69164 0.0
C2801 C 0.07953 0.03476 0.68635 0.0
C2802 C 0.10659 0.03059 0.67662 0.0
C2803 C 0.12517 0.03097 0.68089 0.0
C2804 C 0.13636 0.04704 0.6914 0.0
C2805 C 0.15386 0.04727 0.69543 0.0
C2806 C 0.16034 0.03157 0.68888 0.0
C2807 C 0.14934 0.01563 0.67824 0.0
C2808 C 0.13182 0.01532 0.67419 0.0
C2809 C 0.06131 0.04149 0.60395 0.0
C2810 C 0.05995 0.02495 0.59085 0.0
C2811 C 0.0683 0.04261 0.62365 0.0
C2812 C 0.07424 0.02729 0.63069 0.0
C2813 C 0.07311 0.01083 0.61763 0.0
C2814 C 0.06591 1.0096 0.59795 0.0
C2815 C 0.08146 0.02853 0.65173 0.0
C2816 C 0.09868 0.02751 0.65692 0.0
C2817 C 0.07173 0.03197 0.66668 0.0
C2818 C 0.05333 0.03255 0.66215 0.0
C2819 C 0.04182 0.01729 0.6506 0.0
C2820 C 0.02454 0.01802 0.64619 0.0
C2821 C 0.01858 0.03388 0.65336 0.0
C2822 C 0.02989 0.04903 0.665 0.0
C2823 C 0.04719 0.04839 0.66943 0.0
H2824 H 1.00519 0.03441 0.64993 0.0
H2825 H 0.17389 0.03178 0.69201 0.0
H2826 H 0.73422 0.32263 0.46695 0.0
H2827 H 0.73975 0.3076 0.43598 0.0
H2828 H 0.74449 0.36066 0.41367 0.0
H2829 H 0.73853 0.37574 0.44463 0.0
H2830 H 0.7295 0.32984 0.38481 0.0
H2831 H 0.78418 0.34828 0.43165 0.0
H2832 H 0.80258 0.34927 0.46332 0.0
H2833 H 0.78653 0.28966 0.46072 0.0
H2834 H 0.7686 0.28827 0.4287 0.0
H2835 H 0.77949 0.31198 0.31273 0.0
H2836 H 0.76964 0.32587 0.34143 0.0
H2837 H 0.77364 0.276 0.36821 0.0
H2838 H 0.78515 0.26296 0.34008 0.0
H2839 H 0.78266 0.30428 0.39451 0.0
H2840 H 0.73604 0.28595 0.34165 0.0
H2841 H 0.72255 0.28606 0.3078 0.0
H2842 H 0.72123 0.3446 0.32093 0.0
H2843 H 0.73587 0.34523 0.35448 0.0
C2844 C 0.7359 0.33096 0.4552 0.0
C2845 C 0.736 0.35032 0.45814 0.0
C2846 C 0.7392 0.3224 0.4376 0.0
C2847 C 0.74296 0.33313 0.42276 0.0
C2848 C 0.7417 0.35217 0.42502 0.0
C2849 C 0.73819 0.36074 0.44264 0.0
C2850 C 0.74976 0.32485 0.40582 0.0
C2851 C 0.74116 0.32433 0.38681 0.0
C2852 C 0.76477 0.31733 0.40852 0.0
C2853 C 0.77495 0.31822 0.42802 0.0
C2854 C 0.78454 0.33544 0.43794 0.0
C2855 C 0.79493 0.33605 0.45587 0.0
C2856 C 0.79555 0.31958 0.46414 0.0
C2857 C 0.78597 0.30242 0.45435 0.0
C2858 C 0.77581 0.30168 0.43626 0.0
C2859 C 0.77871 0.30426 0.32494 0.0
C2860 C 0.78318 0.28654 0.32426 0.0
C2861 C 0.7728 0.31204 0.34124 0.0
C2862 C 0.77034 0.30173 0.35675 0.0
C2863 C 0.77529 0.28418 0.35635 0.0
C2864 C 0.78184 0.27672 0.3403 0.0
C2865 C 0.76245 0.30913 0.37326 0.0
C2866 C 0.77086 0.30953 0.39229 0.0
C2867 C 0.74717 0.31635 0.37042 0.0
C2868 C 0.7373 0.31569 0.3506 0.0
C2869 C 0.73303 0.29891 0.33731 0.0
C2870 C 0.72531 0.29887 0.3181 0.0
C2871 C 0.72112 0.31535 0.31218 0.0
C2872 C 0.72461 0.33188 0.32549 0.0
C2873 C 0.73276 0.33212 0.34457 0.0
H2874 H 0.71508 0.31526 0.29732 0.0
H2875 H 0.80353 0.32011 0.47806 0.0
H2876 H 0.41489 0.03648 0.20121 0.0
H2877 H 0.427 0.03464 0.17048 0.0
H2878 H 0.47755 0.05304 0.20339 0.0
H2879 H 0.46556 0.05512 0.23363 0.0
H2880 H 0.47956 0.0675 0.17227 0.0
H2881 H 0.4563 1.00339 0.17947 0.0
H2882 H 0.4336 0.97689 0.18245 0.0
H2883 H 0.40551 0.98352 0.12762 0.0
H2884 H 0.42797 1.0102 0.12443 0.0
H2885 H 0.53024 0.03725 0.10201 0.0
H2886 H 0.5147 0.04114 0.12951 0.0
H2887 H 0.46709 0.0259 0.08997 0.0
H2888 H 0.48274 0.02207 0.06219 0.0
H2889 H 0.46188 0.01072 0.12255 0.0
H2890 H 0.48427 0.073 0.11379 0.0
H2891 H 0.50592 0.0999 0.10949 0.0
H2892 H 0.5343 0.09784 0.16568 0.0
H2893 H 0.51285 0.07076 0.17025 0.0
C2894 C 0.42854 0.04064 0.20197 0.0
C2895 C 0.43896 0.04634 0.22055 0.0
C2896 C 0.43568 0.03922 0.18412 0.0
C2897 C 0.45362 0.04332 0.18382 0.0
C2898 C 0.46381 0.04965 0.20236 0.0
C2899 C 0.45676 0.05094 0.22001 0.0
C2900 C 0.46202 0.04092 0.16485 0.0
C2901 C 0.47567 0.05486 0.16168 0.0
C2902 C 0.45718 0.0249 0.14994 0.0
C2903 C 0.44371 1.0089 0.15183 0.0
C2904 C 0.44523 0.99926 0.16812 0.0
C2905 C 0.43242 0.98421 0.16983 0.0
C2906 C 0.4181 0.97857 0.15526 0.0
C2907 C 0.41659 0.98794 0.13891 0.0
C2908 C 0.42936 1.00301 0.13714 0.0
C2909 C 0.51644 0.03463 0.09891 0.0
C2910 C 0.50809 0.02923 0.07927 0.0
C2911 C 0.50738 0.03704 0.11497 0.0
C2912 C 0.48932 0.03412 0.11254 0.0
C2913 C 0.48088 0.02839 0.09293 0.0
C2914 C 0.48999 0.0262 0.07676 0.0
C2915 C 0.47956 0.03712 0.13025 0.0
C2916 C 0.46574 0.02333 0.13318 0.0
C2917 C 0.4841 0.05337 0.14483 0.0
C2918 C 0.49703 0.06971 0.14228 0.0
C2919 C 0.49518 0.07819 0.12518 0.0
C2920 C 0.50741 0.0935 0.1227 0.0
C2921 C 0.52152 0.10055 0.13726 0.0
C2922 C 0.52338 0.09234 0.15439 0.0
C2923 C 0.51117 0.07703 0.15695 0.0
H2924 H 0.53099 0.11239 0.1353 0.0
H2925 H 0.40819 0.96691 0.15661 0.0
H2926 H 0.76498 0.64689 0.93836 0.0
H2927 H 0.76677 0.66386 0.91005 0.0
H2928 H 0.76773 0.71582 0.94683 0.0
H2929 H 0.76534 0.69889 0.97482 0.0
H2930 H 0.74958 0.71684 0.91414 0.0
H2931 H 0.80484 0.70142 0.93071 0.0
H2932 H 0.82533 0.68056 0.93697 0.0
H2933 H 0.80928 0.65093 0.87871 0.0
H2934 H 0.78853 0.67147 0.87218 0.0
H2935 H 0.78588 0.78178 0.85437 0.0
H2936 H 0.78038 0.76258 0.88035 0.0
H2937 H 0.774 0.71221 0.83908 0.0
H2938 H 0.77952 0.73134 0.81312 0.0
H2939 H 0.7939 0.70935 0.87268 0.0
H2940 H 0.73972 0.72665 0.85587 0.0
H2941 H 0.72026 0.74864 0.84986 0.0
H2942 H 0.7353 0.77588 0.90917 0.0
H2943 H 0.75505 0.75424 0.91545 0.0
C2944 C 0.76542 0.6619 0.94037 0.0
C2945 C 0.76505 0.67145 0.95897 0.0
C2946 C 0.7666 0.67168 0.92415 0.0
C2947 C 0.76773 0.69135 0.92615 0.0
C2948 C 0.76691 0.70074 0.94466 0.0
C2949 C 0.76557 0.69097 0.96077 0.0
C2950 C 0.76999 0.70227 0.90923 0.0
C2951 C 0.75943 0.71528 0.90526 0.0
C2952 C 0.78256 0.70019 0.89715 0.0
C2953 C 0.79501 0.68784 0.90104 0.0
C2954 C 0.8056 0.69036 0.91928 0.0
C2955 C 0.81727 0.67861 0.92287 0.0
C2956 C 0.81857 0.66439 0.90827 0.0
C2957 C 0.80823 0.66193 0.89002 0.0
C2958 C 0.79652 0.67362 0.88637 0.0
C2959 C 0.78316 0.76661 0.85079 0.0
C2960 C 0.78309 0.75815 0.8316 0.0
C2961 C 0.77998 0.7556 0.86568 0.0
C2962 C 0.77664 0.73582 0.8618 0.0
C2963 C 0.77652 0.72738 0.84259 0.0
C2964 C 0.77959 0.73837 0.82769 0.0
C2965 C 0.77361 0.72397 0.87777 0.0
C2966 C 0.78402 0.71081 0.88154 0.0
C2967 C 0.761 0.72602 0.88975 0.0
C2968 C 0.74898 0.73892 0.88608 0.0
C2969 C 0.73897 0.73741 0.8676 0.0
C2970 C 0.72787 0.7498 0.86414 0.0
C2971 C 0.72657 0.76367 0.87911 0.0
C2972 C 0.73633 0.76515 0.89758 0.0
C2973 C 0.74747 0.75281 0.9011 0.0
H2974 H 0.71798 0.77326 0.87641 0.0
H2975 H 0.82762 0.65532 0.91107 0.0
H2976 H 0.87489 0.17087 0.02534 0.0
H2977 H 0.89318 0.15042 0.0127 0.0
H2978 H 0.87016 0.10624 0.04242 0.0
H2979 H 0.85181 0.12637 0.05485 0.0
H2980 H 0.91662 0.13249 0.02943 0.0
H2981 H 0.86234 0.06521 0.01363 0.0
H2982 H 0.83125 0.05736 1.00257 0.0
H2983 H 0.83379 0.1074 0.97535 0.0
H2984 H 0.86493 0.11541 0.98595 0.0
H2985 H 0.9451 0.05178 0.04408 0.0
H2986 H 0.9278 0.07592 0.04214 0.0
H2987 H 0.91708 0.062 0.97932 0.0
H2988 H 0.93475 0.0378 0.98116 0.0
H2989 H 0.8886 0.06828 0.9969 0.0
H2990 H 0.94394 0.09953 0.99426 0.0
H2991 H 0.97523 0.10859 1.0023 0.0
H2992 H 0.97112 0.13248 0.06021 0.0
H2993 H 0.93977 0.12331 0.05264 0.0
C2994 C 0.87391 0.15687 0.02937 0.0
C2995 C 0.86184 0.15012 0.04093 0.0
C2996 C 0.8843 0.14522 0.02208 0.0
C2997 C 0.88265 0.12671 0.02623 0.0
C2998 C 0.87127 0.12034 0.03864 0.0
C2999 C 0.8609 0.13191 0.04586 0.0
C3000 C 0.89272 0.11378 0.01776 0.0
C3001 C 0.91055 0.11853 0.02211 0.0
C3002 C 0.88472 0.09589 0.00739 0.0
C3003 C 0.866 0.09095 1.00068 0.0
C3004 C 0.8563 0.07448 1.00516 0.0
C3005 C 0.83865 0.07001 0.999 0.0
C3006 C 0.83055 0.08189 0.98829 0.0
C3007 C 0.84008 0.09824 0.98368 0.0
C3008 C 0.85773 0.10275 0.98979 0.0
C3009 C 0.93892 0.05374 0.02986 0.0
C3010 C 0.94135 0.04314 0.01275 0.0
C3011 C 0.92915 0.06756 0.02877 0.0
C3012 C 0.92161 0.07098 0.01056 0.0
C3013 C 0.92303 0.05962 0.99347 0.0
C3014 C 0.93295 0.04576 0.99455 0.0
C3015 C 0.91236 0.08661 0.00987 0.0
C3016 C 0.89469 0.08239 1.00374 0.0
C3017 C 0.92055 0.10515 0.01807 0.0
C3018 C 0.93945 0.11063 0.02288 0.0
C3019 C 0.94969 0.10656 0.00878 0.0
C3020 C 0.96745 0.11172 0.01325 0.0
C3021 C 0.97517 0.12106 0.03176 0.0
C3022 C 0.96513 0.12525 0.04586 0.0
C3023 C 0.94734 0.12009 0.04148 0.0
H3024 H 0.98893 0.12511 0.03516 0.0
H3025 H 0.81688 0.07842 0.98356 0.0
H3026 H 0.35425 0.4402 0.06352 0.0
H3027 H 0.38218 0.46024 0.06358 0.0
H3028 H 0.39625 0.41572 0.02688 0.0
H3029 H 0.36892 0.39569 0.02727 0.0
H3030 H 0.42232 0.42984 0.05204 0.0
H3031 H 0.38424 0.45728 0.01028 0.0
H3032 H 0.35948 0.47183 1.00113 0.0
H3033 H 0.37923 0.51763 0.04754 0.0
H3034 H 0.40402 0.50321 0.05713 0.0
H3035 H 0.49237 0.48367 0.01652 0.0
H3036 H 0.46448 0.46488 0.01895 0.0
H3037 H 0.45801 0.50696 0.06447 0.0
H3038 H 0.48594 0.52556 0.06235 0.0
H3039 H 0.42859 0.49499 0.03638 0.0
H3040 H 0.46802 0.46714 0.07617 0.0
H3041 H 0.49334 0.45278 0.08246 0.0
H3042 H 0.47098 0.40718 0.03664 0.0
H3043 H 0.44565 0.42146 0.02982 0.0
C3044 C 0.36328 0.43472 0.05543 0.0
C3045 C 0.35918 0.4162 0.04547 0.0
C3046 C 0.37931 0.44624 0.0554 0.0
C3047 C 0.39154 0.43969 0.0451 0.0
C3048 C 0.38731 0.42126 0.03509 0.0
C3049 C 0.3715 0.40976 0.03529 0.0
C3050 C 0.40876 0.45169 0.04467 0.0
C3051 C 0.42356 0.44401 0.0484 0.0
C3052 C 0.41076 0.47039 0.04025 0.0
C3053 C 0.39587 0.47906 0.03456 0.0
C3054 C 0.38323 0.47038 0.01863 0.0
C3055 C 0.36921 0.47861 0.01335 0.0
C3056 C 0.36775 0.49561 0.02379 0.0
C3057 C 0.38035 0.50444 0.0395 0.0
C3058 C 0.3944 0.49625 0.04486 0.0
C3059 C 0.4851 0.48882 0.0272 0.0
C3060 C 0.49153 0.50608 0.03935 0.0
C3061 C 0.46909 0.47808 0.02854 0.0
C3062 C 0.45903 0.48441 0.04195 0.0
C3063 C 0.46541 0.50171 0.05398 0.0
C3064 C 0.48147 0.51231 0.05281 0.0
C3065 C 0.44193 0.47302 0.04353 0.0
C3066 C 0.42724 0.48083 0.04007 0.0
C3067 C 0.44 0.45436 0.04791 0.0
C3068 C 0.45499 0.44546 0.05236 0.0
C3069 C 0.46854 0.45411 0.06735 0.0
C3070 C 0.4829 0.44598 0.07102 0.0
C3071 C 0.48379 0.4291 0.05992 0.0
C3072 C 0.47028 0.42027 0.0452 0.0
C3073 C 0.45592 0.42837 0.04144 0.0
H3074 H 0.49493 0.42286 0.06275 0.0
H3075 H 0.35689 0.50197 0.01967 0.0
H3076 H 0.43309 0.57085 0.75876 0.0
H3077 H 0.41912 0.59803 0.75925 0.0
H3078 H 0.37061 0.56128 0.73713 0.0
H3079 H 0.38456 0.53412 0.73621 0.0
H3080 H 0.37276 0.59208 0.72027 0.0
H3081 H 0.38342 0.57915 0.78665 0.0
H3082 H 0.40129 0.57433 0.81657 0.0
H3083 H 0.43092 0.63001 0.82085 0.0
H3084 H 0.41335 0.63507 0.79079 0.0
H3085 H 0.31359 0.64511 0.7509 0.0
H3086 H 0.33189 0.62227 0.74618 0.0
H3087 H 0.37647 0.66595 0.76571 0.0
H3088 H 0.35809 0.68899 0.77085 0.0
H3089 H 0.37886 0.63426 0.78291 0.0
H3090 H 0.36598 0.64807 0.71799 0.0
H3091 H 0.34751 0.6526 0.68844 0.0
H3092 H 0.32165 0.59505 0.68156 0.0
H3093 H 0.33975 0.59023 0.7113 0.0
C3094 C 0.41948 0.56856 0.75378 0.0
C3095 C 0.40995 0.55026 0.74751 0.0
C3096 C 0.41147 0.58414 0.7542 0.0
C3097 C 0.39371 0.58176 0.74857 0.0
C3098 C 0.3843 0.56355 0.74161 0.0
C3099 C 0.3923 0.54799 0.7411 0.0
C3100 C 0.38481 0.59807 0.7504 0.0
C3101 C 0.37401 0.60119 0.73403 0.0
C3102 C 0.38673 0.61037 0.76819 0.0
C3103 C 0.3972 0.60741 0.78635 0.0
C3104 C 0.39383 0.59032 0.7939 0.0
C3105 C 0.40389 0.58755 0.81089 0.0
C3106 C 0.41727 0.60183 0.82057 0.0
C3107 C 0.42057 0.61895 0.81332 0.0
C3108 C 0.41056 0.62178 0.79631 0.0
C3109 C 0.32728 0.64991 0.75426 0.0
C3110 C 0.33433 0.66891 0.7614 0.0
C3111 C 0.33776 0.63682 0.75138 0.0
C3112 C 0.35561 0.64234 0.75545 0.0
C3113 C 0.36275 0.66133 0.76243 0.0
C3114 C 0.35222 0.67452 0.76523 0.0
C3115 C 0.3666 0.62805 0.75287 0.0
C3116 C 0.37778 0.62529 0.7691 0.0
C3117 C 0.36499 0.61603 0.73498 0.0
C3118 C 0.35415 0.61883 0.71698 0.0
C3119 C 0.35627 0.63641 0.71027 0.0
C3120 C 0.34588 0.63903 0.69346 0.0
C3121 C 0.33341 0.62414 0.68313 0.0
C3122 C 0.33131 0.60658 0.68958 0.0
C3123 C 0.34165 0.60389 0.70641 0.0
H3124 H 0.32538 0.62621 0.67012 0.0
H3125 H 0.42505 0.59966 0.83372 0.0
H3126 H 0.26287 0.68466 0.53629 0.0
H3127 H 0.23386 0.66644 0.53236 0.0
H3128 H 0.25381 0.61613 0.53925 0.0
H3129 H 0.28286 0.63411 0.54303 0.0
H3130 H 0.22555 0.60995 0.51014 0.0
H3131 H 0.24254 0.63909 0.57749 0.0
H3132 H 0.25325 0.66576 0.6039 0.0
H3133 H 0.2113 0.69163 0.58454 0.0
H3134 H 0.20046 0.66521 0.55785 0.0
H3135 H 0.1582 0.55182 0.54368 0.0
H3136 H 0.18475 0.57031 0.53722 0.0
H3137 H 0.16151 0.61923 0.53682 0.0
H3138 H 0.13515 0.60089 0.5438 0.0
H3139 H 0.19057 0.62736 0.56001 0.0
H3140 H 0.17161 0.59613 0.49463 0.0
H3141 H 0.16078 0.56906 0.46873 0.0
H3142 H 0.20586 0.54678 0.48402 0.0
H3143 H 0.21686 0.57358 0.51022 0.0
C3144 C 0.26112 0.66973 0.5369 0.0
C3145 C 0.27521 0.66091 0.54026 0.0
C3146 C 0.24454 0.65932 0.5346 0.0
C3147 C 0.24176 0.63999 0.53569 0.0
C3148 C 0.25573 0.63103 0.53834 0.0
C3149 C 0.27231 0.6414 0.54065 0.0
C3150 C 0.22437 0.6293 0.53541 0.0
C3151 C 0.21788 0.61363 0.52106 0.0
C3152 C 0.21433 0.63443 0.54946 0.0
C3153 C 0.2208 0.65029 0.56555 0.0
C3154 C 0.23568 0.65055 0.57878 0.0
C3155 C 0.24176 0.6656 0.59381 0.0
C3156 C 0.23299 0.68041 0.59587 0.0
C3157 C 0.2181 0.68017 0.58291 0.0
C3158 C 0.21197 0.66516 0.56784 0.0
C3159 C 0.15874 0.56644 0.5419 0.0
C3160 C 0.14478 0.57503 0.5444 0.0
C3161 C 0.17384 0.57697 0.53811 0.0
C3162 C 0.17506 0.59613 0.53641 0.0
C3163 C 0.16085 0.60449 0.53814 0.0
C3164 C 0.14585 0.59405 0.54217 0.0
C3165 C 0.19159 0.60788 0.53471 0.0
C3166 C 0.19802 0.62375 0.54882 0.0
C3167 C 0.20151 0.60289 0.52041 0.0
C3168 C 0.195 0.58682 0.50452 0.0
C3169 C 0.17917 0.5854 0.49257 0.0
C3170 C 0.173 0.57011 0.47781 0.0
C3171 C 0.18261 0.55619 0.47475 0.0
C3172 C 0.19843 0.55757 0.48641 0.0
C3173 C 0.20464 0.57282 0.50121 0.0
H3174 H 0.17781 0.54435 0.46333 0.0
H3175 H 0.23772 0.69205 0.60753 0.0
H3176 H 0.71335 0.97061 0.79694 0.0
H3177 H 0.7278 0.9439 0.79673 0.0
H3178 H 0.6792 0.90593 0.78632 0.0
H3179 H 0.66475 0.93298 0.78787 0.0
H3180 H 0.69654 0.8869 0.80351 0.0
H3181 H 0.71416 0.9169 0.7505 0.0
H3182 H 0.72635 0.9425 0.73331 0.0
H3183 H 0.77411 0.95044 0.77185 0.0
H3184 H 0.76215 0.92501 0.7894 0.0
H3185 H 0.73546 0.8056 0.77893 0.0
H3186 H 0.71997 0.83167 0.77944 0.0
H3187 H 0.76738 0.87108 0.79787 0.0
H3188 H 0.7829 0.84498 0.79691 0.0
H3189 H 0.75002 0.88854 0.77584 0.0
H3190 H 0.73037 0.856 0.82789 0.0
H3191 H 0.71702 0.82839 0.84157 0.0
H3192 H 0.6713 0.82295 0.80012 0.0
H3193 H 0.68442 0.85047 0.78611 0.0
C3194 C 0.70554 0.95663 0.79448 0.0
C3195 C 0.6875 0.95468 0.79226 0.0
C3196 C 0.71402 0.94088 0.79409 0.0
C3197 C 0.70515 0.9218 0.7908 0.0
C3198 C 0.68704 0.91988 0.78877 0.0
C3199 C 0.67854 0.93572 0.78957 0.0
C3200 C 0.71452 0.90433 0.78981 0.0
C3201 C 0.70812 0.88751 0.79716 0.0
C3202 C 0.72998 0.90387 0.78179 0.0
C3203 C 0.7372 0.91921 0.77139 0.0
C3204 C 0.72723 0.92419 0.75538 0.0
C3205 C 0.7341 0.93866 0.74557 0.0
C3206 C 0.75098 0.94813 0.75153 0.0
C3207 C 0.76103 0.94312 0.76728 0.0
C3208 C 0.75422 0.92867 0.77715 0.0
C3209 C 0.74276 0.81975 0.78327 0.0
C3210 C 0.76084 0.82247 0.78802 0.0
C3211 C 0.73367 0.83505 0.78372 0.0
C3212 C 0.74195 0.85426 0.78912 0.0
C3213 C 0.76005 0.85693 0.79367 0.0
C3214 C 0.76913 0.84164 0.79321 0.0
C3215 C 0.73215 0.87132 0.78971 0.0
C3216 C 0.73848 0.88804 0.78226 0.0
C3217 C 0.71643 0.87148 0.7972 0.0
C3218 C 0.70843 0.8552 0.80587 0.0
C3219 C 0.71748 0.84889 0.82167 0.0
C3220 C 0.70996 0.83326 0.82948 0.0
C3221 C 0.69333 0.82391 0.8217 0.0
C3222 C 0.68417 0.83021 0.80614 0.0
C3223 C 0.69163 0.84584 0.79828 0.0
H3224 H 0.68754 0.81182 0.82777 0.0
H3225 H 0.75627 0.95933 0.74391 0.0
H3226 H 0.74847 0.89576 0.54316 0.0
H3227 H 0.7231 0.90985 0.5417 0.0
H3228 H 0.75461 0.96417 0.56405 0.0
H3229 H 0.78017 0.95001 0.56576 0.0
H3230 H 0.72586 0.95996 0.58024 0.0
H3231 H 0.73794 0.95154 0.51479 0.0
H3232 H 0.74381 0.93403 0.48489 0.0
H3233 H 0.69532 0.89673 0.47886 0.0
H3234 H 0.68925 0.91386 0.5089 0.0
H3235 H 0.66262 0.01348 0.55205 0.0
H3236 H 0.68812 0.9997 0.55609 0.0
H3237 H 0.65772 0.94499 0.53304 0.0
H3238 H 0.63207 0.95863 0.52917 0.0
H3239 H 0.68615 0.94976 0.51741 0.0
H3240 H 0.67386 0.95828 0.5826 0.0
H3241 H 0.66773 0.97595 0.61221 0.0
H3242 H 0.71642 0.01299 0.61882 0.0
H3243 H 0.72272 0.99574 0.58898 0.0
C3244 C 0.75007 0.9107 0.54793 0.0
C3245 C 0.7665 0.9217 0.55453 0.0
C3246 C 0.73547 0.9188 0.54696 0.0
C3247 C 0.73677 0.93823 0.55242 0.0
C3248 C 0.75312 0.94918 0.55965 0.0
C3249 C 0.76779 0.94105 0.56062 0.0
C3250 C 0.72115 0.94703 0.55019 0.0
C3251 C 0.71734 0.95793 0.5664 0.0
C3252 C 0.70963 0.94417 0.5323 0.0
C3253 C 0.71321 0.93388 0.5142 0.0
C3254 C 0.72858 0.93952 0.50717 0.0
C3255 C 0.73194 0.92967 0.49019 0.0
C3256 C 0.71996 0.91425 0.48001 0.0
C3257 C 0.70459 0.90866 0.48678 0.0
C3258 C 0.70118 0.91845 0.50377 0.0
C3259 C 0.66121 0.99846 0.5481 0.0
C3260 C 0.64502 0.98727 0.54034 0.0
C3261 C 0.67593 0.99055 0.55038 0.0
C3262 C 0.67502 0.97116 0.54509 0.0
C3263 C 0.65893 0.95997 0.53724 0.0
C3264 C 0.64419 0.96786 0.53496 0.0
C3265 C 0.69081 0.96264 0.54747 0.0
C3266 C 0.69466 0.95181 0.53125 0.0
C3267 C 0.70233 0.96556 0.56536 0.0
C3268 C 0.69868 0.97583 0.58343 0.0
C3269 C 0.68321 0.97028 0.59028 0.0
C3270 C 0.67971 0.98021 0.60713 0.0
C3271 C 0.69166 0.99561 0.61739 0.0
C3272 C 0.70717 1.00107 0.61084 0.0
C3273 C 0.71071 0.99122 0.59396 0.0
H3274 H 0.68893 1.0033 0.63041 0.0
H3275 H 0.72259 0.90664 0.46687 0.0
H3276 H 0.42505 0.43529 0.77892 0.0
H3277 H 0.403 0.40791 0.77922 0.0
H3278 H 0.36853 0.42839 0.7377 0.0
H3279 H 0.39044 0.45637 0.738 0.0
H3280 H 0.35155 0.41567 0.76294 0.0
H3281 H 0.38966 0.38969 0.72619 0.0
H3282 H 0.41669 0.38193 0.71821 0.0
H3283 H 0.42143 0.35257 0.76799 0.0
H3284 H 0.39458 0.36044 0.7765 0.0
H3285 H 0.29265 0.32608 0.74373 0.0
H3286 H 0.31387 0.35335 0.7395 0.0
H3287 H 0.34636 0.3459 0.79128 0.0
H3288 H 0.32498 0.31929 0.79602 0.0
H3289 H 0.36345 0.35109 0.75806 0.0
H3290 H 0.32574 0.37931 0.79516 0.0
H3291 H 0.29781 0.3858 0.80136 0.0
H3292 H 0.29177 0.40971 0.74799 0.0
H3293 H 0.31957 0.4031 0.74133 0.0
C3294 C 0.41282 0.43397 0.76972 0.0
C3295 C 0.40961 0.44807 0.75833 0.0
C3296 C 0.40019 0.41815 0.76981 0.0
C3297 C 0.38408 0.41569 0.75816 0.0
C3298 C 0.38082 0.4298 0.74679 0.0
C3299 C 0.3934 0.44582 0.74693 0.0
C3300 C 0.37052 0.39883 0.75848 0.0
C3301 C 0.35416 0.40155 0.76149 0.0
C3302 C 0.37379 0.38026 0.75693 0.0
C3303 C 0.39016 0.37584 0.7521 0.0
C3304 C 0.39655 0.38176 0.73557 0.0
C3305 C 0.41183 0.37731 0.73093 0.0
C3306 C 0.42079 0.3668 0.74261 0.0
C3307 C 0.41449 0.36074 0.75898 0.0
C3308 C 0.39924 0.3652 0.76371 0.0
C3309 C 0.30431 0.3303 0.75421 0.0
C3310 C 0.30729 0.32029 0.76999 0.0
C3311 C 0.31643 0.34586 0.75177 0.0
C3312 C 0.33178 0.35161 0.76501 0.0
C3313 C 0.33472 0.34163 0.78077 0.0
C3314 C 0.32252 0.32632 0.78338 0.0
C3315 C 0.34478 0.36811 0.76264 0.0
C3316 C 0.36096 0.36527 0.7593 0.0
C3317 C 0.34132 0.38649 0.76363 0.0
C3318 C 0.32463 0.3905 0.76763 0.0
C3319 C 0.31838 0.38578 0.78465 0.0
C3320 C 0.30259 0.38952 0.78827 0.0
C3321 C 0.293 0.39811 0.77504 0.0
C3322 C 0.2992 0.40302 0.7582 0.0
C3323 C 0.31497 0.39929 0.7545 0.0
H3324 H 0.28078 0.401 0.77787 0.0
H3325 H 0.43259 0.36333 0.73897 0.0
H3326 H 0.18499 0.56381 0.26816 0.0
H3327 H 0.20137 0.59498 0.2662 0.0
H3328 H 0.21045 0.60718 0.32908 0.0
H3329 H 0.1932 0.57629 0.33081 0.0
H3330 H 0.20662 0.63762 0.319 0.0
H3331 H 0.24289 0.59827 0.29394 0.0
H3332 H 0.25022 0.57276 0.27227 0.0
H3333 H 0.23474 0.59842 0.22213 0.0
H3334 H 0.22716 0.62398 0.24348 0.0
H3335 H 0.26753 0.7237 0.32272 0.0
H3336 H 0.25286 0.69186 0.32488 0.0
H3337 H 0.24189 0.68004 0.26203 0.0
H3338 H 0.2573 0.71167 0.25988 0.0
H3339 H 0.24699 0.64942 0.27228 0.0
H3340 H 0.21125 0.6893 0.29817 0.0
H3341 H 0.20486 0.71499 0.32043 0.0
H3342 H 0.21997 0.68816 0.36981 0.0
H3343 H 0.2268 0.66252 0.3479 0.0
C3344 C 0.19089 0.57286 0.28164 0.0
C3345 C 0.18814 0.56681 0.2997 0.0
C3346 C 0.20042 0.59102 0.28054 0.0
C3347 C 0.20795 0.60411 0.29748 0.0
C3348 C 0.20518 0.59792 0.31555 0.0
C3349 C 0.1954 0.57987 0.31661 0.0
C3350 C 0.21799 0.62417 0.29645 0.0
C3351 C 0.21562 0.63993 0.30891 0.0
C3352 C 0.2297 0.62821 0.28313 0.0
C3353 C 0.23431 0.61292 0.27029 0.0
C3354 C 0.24097 0.59841 0.27828 0.0
C3355 C 0.24517 0.58395 0.26606 0.0
C3356 C 0.2429 0.58395 0.24583 0.0
C3357 C 0.23647 0.59843 0.23779 0.0
C3358 C 0.23223 0.61291 0.24995 0.0
C3359 C 0.26201 0.71443 0.30925 0.0
C3360 C 0.26381 0.72084 0.29108 0.0
C3361 C 0.25331 0.69594 0.3105 0.0
C3362 C 0.24552 0.68289 0.29366 0.0
C3363 C 0.24748 0.68928 0.27549 0.0
C3364 C 0.25639 0.70769 0.27424 0.0
C3365 C 0.23563 0.66282 0.29483 0.0
C3366 C 0.23801 0.64708 0.28239 0.0
C3367 C 0.224 0.6588 0.30824 0.0
C3368 C 0.21969 0.67409 0.3214 0.0
C3369 C 0.21331 0.68895 0.31379 0.0
C3370 C 0.20963 0.70351 0.32635 0.0
C3371 C 0.21209 0.70326 0.34653 0.0
C3372 C 0.21816 0.6884 0.35419 0.0
C3373 C 0.22194 0.67385 0.34171 0.0
H3374 H 0.20925 0.71456 0.35624 0.0
H3375 H 0.24616 0.57274 0.2364 0.0
H3376 H 0.54262 0.71401 0.44284 0.0
H3377 H 0.54732 0.68498 0.45532 0.0
H3378 H 0.49392 0.67083 0.46011 0.0
H3379 H 0.48968 0.70054 0.44917 0.0
H3380 H 0.50804 0.66163 0.48926 0.0
H3381 H 0.51733 0.6474 0.42344 0.0
H3382 H 0.52994 0.65211 0.39366 0.0
H3383 H 0.57975 0.65302 0.42512 0.0
H3384 H 0.56747 0.64853 0.45517 0.0
H3385 H 0.51119 0.56628 0.50546 0.0
H3386 H 0.5057 0.59399 0.49066 0.0
H3387 H 0.5597 0.61655 0.4999 0.0
H3388 H 0.56526 0.58898 0.51464 0.0
H3389 H 0.54477 0.62034 0.46311 0.0
H3390 H 0.5333 0.63405 0.52909 0.0
H3391 H 0.51888 0.62711 0.55716 0.0
H3392 H 0.47022 0.62435 0.52213 0.0
H3393 H 0.48433 0.63096 0.49371 0.0
C3394 C 0.53184 0.7045 0.4462 0.0
C3395 C 0.51571 0.70955 0.44471 0.0
C3396 C 0.53449 0.68772 0.45334 0.0
C3397 C 0.52096 0.6751 0.45856 0.0
C3398 C 0.50474 0.68003 0.45644 0.0
C3399 C 0.50223 0.69703 0.44991 0.0
C3400 C 0.52369 0.65732 0.467 0.0
C3401 C 0.51586 0.65254 0.48316 0.0
C3402 C 0.53407 0.64517 0.45963 0.0
C3403 C 0.5415 0.64782 0.4416 0.0
C3404 C 0.53099 0.64872 0.42404 0.0
C3405 C 0.53807 0.65133 0.40711 0.0
C3406 C 0.55564 0.65292 0.40751 0.0
C3407 C 0.56615 0.65182 0.42484 0.0
C3408 C 0.55914 0.64923 0.44182 0.0
C3409 C 0.52192 0.57714 0.50442 0.0
C3410 C 0.5387 0.57523 0.51142 0.0
C3411 C 0.51875 0.5931 0.49595 0.0
C3412 C 0.53226 0.60763 0.49411 0.0
C3413 C 0.54899 0.60568 0.50102 0.0
C3414 C 0.55215 0.58985 0.50964 0.0
C3415 C 0.52908 0.62484 0.4851 0.0
C3416 C 0.53686 0.62948 0.46895 0.0
C3417 C 0.51833 0.63659 0.49214 0.0
C3418 C 0.50986 0.63286 0.50925 0.0
C3419 C 0.51951 0.63185 0.52734 0.0
C3420 C 0.51139 0.62797 0.5433 0.0
C3421 C 0.49363 0.62522 0.54139 0.0
C3422 C 0.48396 0.62642 0.52354 0.0
C3423 C 0.492 0.63026 0.50751 0.0
H3424 H 0.48736 0.62221 0.55376 0.0
H3425 H 0.5611 0.65495 0.39439 0.0
H3426 H 0.63632 0.3043 0.64771 0.0
H3427 H 0.66171 0.30047 0.66884 0.0
H3428 H 0.63169 0.28712 0.71375 0.0
H3429 H 0.60592 0.29099 0.6925 0.0
H3430 H 0.66235 0.31016 0.72941 0.0
H3431 H 0.64462 0.25256 0.68577 0.0
H3432 H 0.63561 0.23259 0.65377 0.0
H3433 H 0.68354 0.25402 0.63643 0.0
H3434 H 0.69275 0.27435 0.66825 0.0
H3435 H 0.72495 0.27441 0.78707 0.0
H3436 H 0.69896 0.27672 0.76578 0.0
H3437 H 0.72821 0.28958 0.72006 0.0
H3438 H 0.75438 0.28746 0.74159 0.0
H3439 H 0.69766 0.26625 0.70479 0.0
H3440 H 0.7151 0.32422 0.74841 0.0
H3441 H 0.72387 0.34432 0.78037 0.0
H3442 H 0.67616 0.32205 0.79774 0.0
H3443 H 0.66721 0.30161 0.76597 0.0
C3444 C 0.63497 0.30064 0.6621 0.0
C3445 C 0.61883 0.29791 0.66822 0.0
C3446 C 0.64962 0.29833 0.6742 0.0
C3447 C 0.64875 0.29316 0.69288 0.0
C3448 C 0.6328 0.29101 0.69939 0.0
C3449 C 0.61802 0.29325 0.68719 0.0
C3450 C 0.66448 0.28994 0.70536 0.0
C3451 C 0.66988 0.30032 0.72411 0.0
C3452 C 0.67472 0.27745 0.69843 0.0
C3453 C 0.66931 0.26512 0.67934 0.0
C3454 C 0.65319 0.25312 0.67508 0.0
C3455 C 0.64805 0.24172 0.65698 0.0
C3456 C 0.65897 0.24207 0.64305 0.0
C3457 C 0.67508 0.25378 0.64722 0.0
C3458 C 0.68028 0.26524 0.6653 0.0
C3459 C 0.72588 0.2775 0.77238 0.0
C3460 C 0.74184 0.28033 0.76597 0.0
C3461 C 0.71094 0.27894 0.76021 0.0
C3462 C 0.71145 0.28357 0.74125 0.0
C3463 C 0.72732 0.2859 0.73455 0.0
C3464 C 0.74235 0.28443 0.74681 0.0
C3465 C 0.69553 0.28649 0.72885 0.0
C3466 C 0.6901 0.27606 0.71011 0.0
C3467 C 0.68524 0.29892 0.73579 0.0
C3468 C 0.69056 0.31125 0.75488 0.0
C3469 C 0.70653 0.3235 0.7591 0.0
C3470 C 0.71153 0.33498 0.77717 0.0
C3471 C 0.7006 0.33443 0.7911 0.0
C3472 C 0.68463 0.32244 0.78695 0.0
C3473 C 0.67958 0.31092 0.76891 0.0
H3474 H 0.70448 0.34332 0.80508 0.0
H3475 H 0.65496 0.23324 0.62903 0.0
H3476 H 0.01397 0.30225 0.97039 0.0
H3477 H 0.01423 0.334 0.98658 0.0
H3478 H 0.02313 0.35638 0.93349 0.0
H3479 H 0.02255 0.32476 0.91722 0.0
H3480 H 0.0376 0.36487 0.99553 0.0
H3481 H 1.00606 0.39506 0.92942 0.0
H3482 H 0.9847 0.38397 0.89964 0.0
H3483 H 0.96133 0.3382 0.92657 0.0
H3484 H 0.98239 0.34916 0.9566 0.0
H3485 H 0.05544 0.46459 0.01271 0.0
H3486 H 0.05173 0.43149 0.99946 0.0
H3487 H 0.99745 0.4248 0.99864 0.0
H3488 H 1.00103 0.45815 0.01164 0.0
H3489 H 1.00308 0.40729 0.96574 0.0
H3490 H 0.02356 0.4071 0.03304 0.0
H3491 H 0.04287 0.41742 0.06449 0.0
H3492 H 0.08439 0.40149 0.03838 0.0
H3493 H 0.06538 0.39132 0.00669 0.0
C3494 C 0.01585 0.31392 0.96212 0.0
C3495 C 0.01815 0.31086 0.94244 0.0
C3496 C 0.01608 0.33214 0.97144 0.0
C3497 C 0.01853 0.34776 0.9613 0.0
C3498 C 0.02089 0.34467 0.94165 0.0
C3499 C 0.02061 0.3265 0.93234 0.0
C3500 C 0.0189 0.36727 0.97125 0.0
C3501 C 0.03002 0.3741 0.98898 0.0
C3502 C 1.0088 0.3794 0.96309 0.0
C3503 C 0.99591 0.37285 0.94519 0.0
C3504 C 0.99631 0.38268 0.92902 0.0
C3505 C 0.98426 0.37641 0.91209 0.0
C3506 C 0.9717 0.36036 0.91119 0.0
C3507 C 0.97111 0.35059 0.92726 0.0
C3508 C 0.98311 0.35682 0.94423 0.0
C3509 C 0.04268 0.45613 0.00988 0.0
C3510 C 0.02854 0.46421 0.01339 0.0
C3511 C 0.04058 0.43706 1.00232 0.0
C3512 C 0.02431 0.42539 0.99815 0.0
C3513 C 1.01016 0.43339 1.00169 0.0
C3514 C 0.01224 0.45251 0.00926 0.0
C3515 C 0.0221 0.40503 0.98973 0.0
C3516 C 1.01064 0.39805 0.9723 0.0
C3517 C 0.03163 0.39265 0.99837 0.0
C3518 C 0.04307 0.39858 0.01745 0.0
C3519 C 0.03683 0.4059 0.03397 0.0
C3520 C 0.04772 0.41172 0.05185 0.0
C3521 C 0.06485 0.41015 0.05342 0.0
C3522 C 0.07112 0.40271 0.03714 0.0
C3523 C 0.06029 0.3969 0.01922 0.0
H3524 H 0.07326 0.41467 0.06727 0.0
H3525 H 0.96239 0.35551 0.89807 0.0
H3526 H 1.0065 0.78361 0.14265 0.0
H3527 H 0.98033 0.78023 0.15706 0.0
H3528 H 1.00976 0.78183 0.21391 0.0
H3529 H 0.03592 0.78447 0.19935 0.0
H3530 H 0.98219 0.75749 0.21155 0.0
H3531 H 0.99236 0.82085 0.19718 0.0
H3532 H 0.99756 0.84583 0.17647 0.0
H3533 H 0.94967 0.82274 0.1394 0.0
H3534 H 0.94429 0.79747 0.15972 0.0
H3535 H 0.91899 0.77892 0.26813 0.0
H3536 H 0.94429 0.78029 0.25242 0.0
H3537 H 0.91282 0.77119 0.19582 0.0
H3538 H 0.88726 0.76921 0.21137 0.0
H3539 H 0.94086 0.79899 0.1976 0.0
H3540 H 0.93074 0.73599 0.21278 0.0
H3541 H 0.92569 0.71143 0.23396 0.0
H3542 H 0.97387 0.73475 0.27036 0.0
H3543 H 0.9791 0.75962 0.24954 0.0
C3544 C 1.00743 0.78314 0.15822 0.0
C3545 C 0.02343 0.78437 0.1698 0.0
C3546 C 0.99238 0.78137 0.16653 0.0
C3547 C 0.99287 0.78119 0.18679 0.0
C3548 C 1.00884 0.782 0.1983 0.0
C3549 C 0.02388 0.78353 0.18993 0.0
C3550 C 0.97685 0.78013 0.19594 0.0
C3551 C 0.97334 0.7668 0.20865 0.0
C3552 C 0.96485 0.79189 0.19202 0.0
C3553 C 0.96801 0.80716 0.17986 0.0
C3554 C 0.98299 0.82103 0.18453 0.0
C3555 C 0.98596 0.83525 0.17287 0.0
C3556 C 0.97397 0.83583 0.1566 0.0
C3557 C 0.95896 0.82224 0.15199 0.0
C3558 C 0.95594 0.80798 0.16358 0.0
C3559 C 0.91726 0.77684 0.25232 0.0
C3560 C 0.90077 0.77372 0.24118 0.0
C3561 C 0.9319 0.77776 0.24331 0.0
C3562 C 0.93063 0.77566 0.22283 0.0
C3563 C 0.91427 0.77287 0.21162 0.0
C3564 C 0.89958 0.77181 0.22063 0.0
C3565 C 0.94634 0.77645 0.21322 0.0
C3566 C 0.94976 0.78972 0.20046 0.0
C3567 C 0.95832 0.76474 0.21719 0.0
C3568 C 0.95524 0.74977 0.2297 0.0
C3569 C 0.9402 0.73597 0.22539 0.0
C3570 C 0.93731 0.72198 0.23731 0.0
C3571 C 0.94943 0.72155 0.25352 0.0
C3572 C 0.96448 0.7351 0.25781 0.0
C3573 C 0.96742 0.74914 0.24595 0.0
H3574 H 0.94718 0.71071 0.26274 0.0
H3575 H 0.97628 0.84683 0.14758 0.0
H3576 H 0.56268 0.32496 0.19629 0.0
H3577 H 0.57314 0.35469 0.18456 0.0
H3578 H 0.56482 0.3256 0.12558 0.0
H3579 H 0.55474 0.29616 0.13711 0.0
H3580 H 0.59374 0.35115 0.13216 0.0
H3581 H 0.53476 0.34823 0.14365 0.0
H3582 H 0.51228 0.3464 0.16446 0.0
H3583 H 0.54011 0.39639 0.20161 0.0
H3584 H 0.56285 0.39838 0.18111 0.0
H3585 H 0.56019 0.39978 0.06081 0.0
H3586 H 0.56898 0.38025 0.08485 0.0
H3587 H 0.58048 0.42831 0.12997 0.0
H3588 H 0.57193 0.44811 0.10583 0.0
H3589 H 0.55825 0.39977 0.13893 0.0
H3590 H 0.61245 0.40667 0.11892 0.0
H3591 H 0.6331 0.40791 0.09587 0.0
H3592 H 0.6132 0.34995 0.07272 0.0
H3593 H 0.59225 0.34841 0.09541 0.0
C3594 C 0.56325 0.32496 0.18087 0.0
C3595 C 0.55776 0.3083 0.16759 0.0
C3596 C 0.56925 0.3419 0.1742 0.0
C3597 C 0.56969 0.34234 0.15418 0.0
C3598 C 0.56472 0.32558 0.1411 0.0
C3599 C 0.55882 0.30876 0.14771 0.0
C3600 C 0.57381 0.36022 0.14619 0.0
C3601 C 0.5861 0.36189 0.1337 0.0
C3602 C 0.56421 0.37451 0.14874 0.0
C3603 C 0.55059 0.3733 0.16104 0.0
C3604 C 0.53613 0.35874 0.15635 0.0
C3605 C 0.52334 0.35769 0.16807 0.0
C3606 C 0.5248 0.37123 0.1844 0.0
C3607 C 0.53903 0.38588 0.189 0.0
C3608 C 0.55187 0.38698 0.17734 0.0
C3609 C 0.56512 0.40635 0.07569 0.0
C3610 C 0.56521 0.42545 0.08145 0.0
C3611 C 0.57017 0.39517 0.08945 0.0
C3612 C 0.57547 0.40286 0.10918 0.0
C3613 C 0.57644 0.42212 0.11481 0.0
C3614 C 0.57145 0.43336 0.10103 0.0
C3615 C 0.57755 0.39019 0.12406 0.0
C3616 C 0.56643 0.3895 0.13789 0.0
C3617 C 0.58807 0.37668 0.12251 0.0
C3618 C 0.60074 0.37745 0.10889 0.0
C3619 C 0.6124 0.39421 0.10884 0.0
C3620 C 0.62417 0.39496 0.09585 0.0
C3621 C 0.62446 0.37902 0.08284 0.0
C3622 C 0.61298 0.36228 0.08283 0.0
C3623 C 0.60118 0.36146 0.09579 0.0
H3624 H 0.63358 0.37963 0.07278 0.0
H3625 H 0.51488 0.37039 0.19344 0.0
H3626 H 0.98753 0.30515 0.34532 0.0
H3627 H 0.96049 0.30662 0.32542 0.0
H3628 H 0.93774 0.31364 0.37764 0.0
H3629 H 0.96462 0.31267 0.39757 0.0
H3630 H 0.93144 0.28295 0.32134 0.0
H3631 H 0.90674 0.33774 0.37245 0.0
H3632 H 0.9184 0.36753 0.39437 0.0
H3633 H 0.96045 0.37803 0.36284 0.0
H3634 H 0.94892 0.34845 0.34054 0.0
H3635 H 0.84234 0.26383 0.30725 0.0
H3636 H 0.87286 0.2705 0.3199 0.0
H3637 H 0.87707 0.32613 0.30325 0.0
H3638 H 0.84629 0.31987 0.29187 0.0
H3639 H 0.89507 0.32929 0.33583 0.0
H3640 H 0.89246 0.28795 0.27654 0.0
H3641 H 0.88194 0.25944 0.25237 0.0
H3642 H 0.89608 0.22508 0.29539 0.0
H3643 H 0.90685 0.25338 0.31983 0.0
C3644 C 0.97684 0.30733 0.35259 0.0
C3645 C 0.97824 0.3087 0.37306 0.0
C3646 C 0.9614 0.30812 0.34118 0.0
C3647 C 0.94714 0.31038 0.35004 0.0
C3648 C 0.94865 0.31226 0.37048 0.0
C3649 C 0.96405 0.31156 0.38187 0.0
C3650 C 0.93026 0.30925 0.33808 0.0
C3651 C 0.92354 0.2932 0.32431 0.0
C3652 C 0.9201 0.32282 0.34166 0.0
C3653 C 0.927 0.34079 0.35488 0.0
C3654 C 0.91841 0.34645 0.3701 0.0
C3655 C 0.92502 0.36329 0.38262 0.0
C3656 C 0.94017 0.37464 0.38003 0.0
C3657 C 0.94874 0.3692 0.36487 0.0
C3658 C 0.94218 0.35238 0.3523 0.0
C3659 C 0.84982 0.2775 0.30641 0.0
C3660 C 0.84205 0.29139 0.29875 0.0
C3661 C 0.86729 0.28124 0.3134 0.0
C3662 C 0.87741 0.29868 0.31208 0.0
C3663 C 0.86958 0.31257 0.3044 0.0
C3664 C 0.85201 0.30901 0.29796 0.0
C3665 C 0.89601 0.30266 0.31951 0.0
C3666 C 0.90304 0.31923 0.3325 0.0
C3667 C 0.90661 0.28982 0.31478 0.0
C3668 C 0.90037 0.27279 0.30004 0.0
C3669 C 0.89328 0.27431 0.28086 0.0
C3670 C 0.88728 0.25819 0.26711 0.0
C3671 C 0.88822 0.24046 0.27236 0.0
C3672 C 0.89534 0.23882 0.29135 0.0
C3673 C 0.90148 0.2549 0.30513 0.0
H3674 H 0.88347 0.22801 0.26169 0.0
H3675 H 0.94527 0.38766 0.38974 0.0
H3676 H 0.01543 0.70479 0.62722 0.0
H3677 H 0.01459 0.67369 0.60918 0.0
H3678 H 0.064 0.67243 0.64113 0.0
H3679 H 0.06467 0.7034 0.6594 0.0
H3680 H 0.06297 0.66957 0.60098 0.0
H3681 H 0.03272 0.64064 0.64621 0.0
H3682 H 1.01089 0.63326 0.66711 0.0
H3683 H 0.972 0.61832 0.6164 0.0
H3684 H 0.99356 0.62593 0.59517 0.0
H3685 H 0.06633 0.57832 0.55341 0.0
H3686 H 0.06711 0.60669 0.57617 0.0
H3687 H 0.01665 0.60998 0.54866 0.0
H3688 H 0.01572 0.58128 0.52625 0.0
H3689 H 0.01907 0.61097 0.58821 0.0
H3690 H 0.05058 0.642 0.54351 0.0
H3691 H 0.07349 0.64724 0.52353 0.0
H3692 H 0.11123 0.6566 0.5752 0.0
H3693 H 0.08854 0.65116 0.59548 0.0
C3694 C 0.02569 0.69742 0.63097 0.0
C3695 C 0.03998 0.70615 0.64481 0.0
C3696 C 0.02527 0.67975 0.62064 0.0
C3697 C 0.03927 0.67084 0.62381 0.0
C3698 C 0.05307 0.67909 0.63854 0.0
C3699 C 0.05338 0.69663 0.64906 0.0
C3700 C 0.04049 0.65448 0.60989 0.0
C3701 C 0.05357 0.65658 0.59846 0.0
C3702 C 0.02797 0.6378 0.60634 0.0
C3703 C 0.01477 0.63415 0.61908 0.0
C3704 C 0.01948 0.63615 0.63951 0.0
C3705 C 1.00715 0.63182 0.65143 0.0
C3706 C 0.99006 0.6254 0.6431 0.0
C3707 C 0.98524 0.62334 0.62284 0.0
C3708 C 0.99752 0.62766 0.61085 0.0
C3709 C 0.05552 0.58524 0.55213 0.0
C3710 C 0.04093 0.57761 0.5383 0.0
C3711 C 0.05601 0.6015 0.56501 0.0
C3712 C 0.04188 0.61036 0.56414 0.0
C3713 C 0.02764 0.60329 0.54959 0.0
C3714 C 0.0272 0.58707 0.53667 0.0
C3715 C 0.04146 0.62611 0.5793 0.0
C3716 C 0.02851 0.62391 0.59089 0.0
C3717 C 0.0542 0.64262 0.58316 0.0
C3718 C 0.06786 0.64599 0.571 0.0
C3719 C 0.06377 0.64502 0.5506 0.0
C3720 C 0.07671 0.64806 0.53922 0.0
C3721 C 0.09381 0.6522 0.54808 0.0
C3722 C 0.09798 0.65337 0.56835 0.0
C3723 C 0.08509 0.65033 0.5798 0.0
H3724 H 0.10381 0.65455 0.53924 0.0
H3725 H 0.98054 0.62196 0.65234 0.0
H3726 H 0.58436 0.79824 0.87682 0.0
H3727 H 0.60751 0.79381 0.85876 0.0
H3728 H 0.57233 0.78307 0.80446 0.0
H3729 H 0.54892 0.78719 0.82253 0.0
H3730 H 0.59316 0.7581 0.80575 0.0
H3731 H 0.59997 0.82465 0.81685 0.0
H3732 H 0.60242 0.85593 0.83576 0.0
H3733 H 0.64803 0.84886 0.87133 0.0
H3734 H 0.64572 0.8174 0.85285 0.0
H3735 H 0.66668 0.76029 0.75679 0.0
H3736 H 0.6404 0.76824 0.76645 0.0
H3737 H 0.66366 0.77695 0.82707 0.0
H3738 H 0.6896 0.76857 0.81772 0.0
H3739 H 0.647 0.80553 0.81691 0.0
H3740 H 0.63717 0.73734 0.80921 0.0
H3741 H 0.63474 0.70586 0.79073 0.0
H3742 H 0.59483 0.71649 0.74857 0.0
H3743 H 0.59719 0.74817 0.76668 0.0
C3744 C 0.58152 0.79496 0.86103 0.0
C3745 C 0.56485 0.79314 0.85107 0.0
C3746 C 0.59479 0.79255 0.85073 0.0
C3747 C 0.59167 0.78846 0.83026 0.0
C3748 C 0.57499 0.78635 0.82025 0.0
C3749 C 0.56167 0.78871 0.83058 0.0
C3750 C 0.60588 0.7859 0.81952 0.0
C3751 C 0.60479 0.76864 0.80781 0.0
C3752 C 0.62109 0.79961 0.82239 0.0
C3753 C 0.62259 0.81858 0.83352 0.0
C3754 C 0.61045 0.8297 0.8288 0.0
C3755 C 0.61183 0.84747 0.83943 0.0
C3756 C 0.62535 0.85436 0.85476 0.0
C3757 C 0.63755 0.8435 0.85946 0.0
C3758 C 0.63623 0.8257 0.84889 0.0
C3759 C 0.66612 0.76376 0.77217 0.0
C3760 C 0.68026 0.76387 0.78647 0.0
C3761 C 0.65117 0.76839 0.77764 0.0
C3762 C 0.65018 0.7732 0.79745 0.0
C3763 C 0.66427 0.77344 0.81169 0.0
C3764 C 0.67911 0.76871 0.80629 0.0
C3765 C 0.6344 0.77758 0.80368 0.0
C3766 C 0.63521 0.79519 0.81451 0.0
C3767 C 0.61895 0.76423 0.8 0.0
C3768 C 0.61751 0.7452 0.78914 0.0
C3769 C 0.62799 0.73303 0.79589 0.0
C3770 C 0.6266 0.71514 0.78551 0.0
C3771 C 0.61468 0.7092 0.76844 0.0
C3772 C 0.60409 0.72113 0.76176 0.0
C3773 C 0.60544 0.73905 0.77208 0.0
H3774 H 0.61362 0.69534 0.76043 0.0
H3775 H 0.6264 0.86813 0.86297 0.0
H3776 H 0.48531 0.50687 0.71841 0.0
H3777 H 0.49591 0.51257 0.68819 0.0
H3778 H 0.4447 0.51048 0.65945 0.0
H3779 H 0.4338 0.50501 0.69016 0.0
H3780 H 0.46837 0.48787 0.63838 0.0
H3781 H 0.46454 0.5499 0.6668 0.0
H3782 H 0.46854 0.57604 0.69375 0.0
H3783 H 0.52272 0.57895 0.70161 0.0
H3784 H 0.51902 0.55261 0.6749 0.0
H3785 H 0.50877 0.51938 0.55783 0.0
H3786 H 0.48909 0.51454 0.58164 0.0
H3787 H 0.53149 0.5329 0.62879 0.0
H3788 H 0.55087 0.53798 0.60523 0.0
H3789 H 0.50676 0.54865 0.63721 0.0
H3790 H 0.51134 0.48508 0.6134 0.0
H3791 H 0.5089 0.45787 0.58797 0.0
H3792 H 0.4553 0.45678 0.57271 0.0
H3793 H 0.45746 0.4841 0.59793 0.0
C3794 C 0.47618 0.50756 0.70572 0.0
C3795 C 0.45863 0.50542 0.7068 0.0
C3796 C 0.48232 0.51084 0.68841 0.0
C3797 C 0.47114 0.51189 0.67152 0.0
C3798 C 0.45356 0.50963 0.67231 0.0
C3799 C 0.44737 0.50664 0.68988 0.0
C3800 C 0.4783 0.51587 0.65346 0.0
C3801 C 0.47643 0.5013 0.63784 0.0
C3802 C 0.48918 0.53321 0.65298 0.0
C3803 C 0.49148 0.54919 0.66892 0.0
C3804 C 0.4773 0.55601 0.67437 0.0
C3805 C 0.47951 0.57088 0.68959 0.0
C3806 C 0.49587 0.57913 0.69941 0.0
C3807 C 0.51005 0.57254 0.694 0.0
C3808 C 0.5079 0.55766 0.6788 0.0
C3809 C 0.51384 0.52219 0.57325 0.0
C3810 C 0.53139 0.52893 0.5796 0.0
C3811 C 0.50259 0.51945 0.5869 0.0
C3812 C 0.50875 0.52323 0.60716 0.0
C3813 C 0.5263 0.52995 0.61335 0.0
C3814 C 0.53742 0.5328 0.5998 0.0
C3815 C 0.49723 0.5205 0.62218 0.0
C3816 C 0.49839 0.53532 0.63738 0.0
C3817 C 0.48592 0.50329 0.62236 0.0
C3818 C 0.4846 0.48676 0.60738 0.0
C3819 C 0.49906 0.4791 0.60454 0.0
C3820 C 0.49773 0.46366 0.59018 0.0
C3821 C 0.48197 0.45567 0.57869 0.0
C3822 C 0.4675 0.46303 0.5816 0.0
C3823 C 0.46877 0.47847 0.59593 0.0
H3824 H 0.48095 0.44377 0.56754 0.0
H3825 H 0.49756 0.59064 0.71119 0.0
H3826 H 0.80558 0.22029 0.02562 0.0
H3827 H 0.78483 0.23077 1.00286 0.0
H3828 H 0.77355 0.17617 0.96768 0.0
H3829 H 0.79421 0.16534 0.9908 0.0
H3830 H 0.78903 0.2321 0.9654 0.0
H3831 H 0.73088 0.17086 0.94242 0.0
H3832 H 0.71572 0.14462 0.9566 0.0
H3833 H 0.73211 0.17567 0.01419 0.0
H3834 H 0.74706 0.20225 1.00034 0.0
H3835 H 0.74165 0.22927 0.87407 0.0
H3836 H 0.74061 0.211 0.90093 0.0
H3837 H 0.73993 0.2607 0.94031 0.0
H3838 H 0.74041 0.27917 0.91331 0.0
H3839 H 0.72756 0.20626 0.94137 0.0
H3840 H 0.78031 0.2704 0.96104 0.0
H3841 H 0.79815 0.29422 0.94619 0.0
H3842 H 0.79458 0.25413 0.89498 0.0
H3843 H 0.77685 0.23009 0.90963 0.0
C3844 C 0.7986 0.21041 0.01316 0.0
C3845 C 0.80162 0.19205 0.00985 0.0
C3846 C 0.78667 0.2164 1.00025 0.0
C3847 C 0.77759 0.20419 0.98373 0.0
C3848 C 0.78027 0.18569 0.98054 0.0
C3849 C 0.7922 0.17962 0.99359 0.0
C3850 C 0.76714 0.21176 0.96871 0.0
C3851 C 0.77551 0.22665 0.9605 0.0
C3852 C 0.74965 0.20416 0.96185 0.0
C3853 C 0.74025 0.18849 0.97032 0.0
C3854 C 0.73116 0.17215 0.95809 0.0
C3855 C 0.7226 0.15721 0.96608 0.0
C3856 C 0.72299 0.15845 0.98629 0.0
C3857 C 0.73186 0.1747 0.99854 0.0
C3858 C 0.74039 0.1897 0.99063 0.0
C3859 C 0.74011 0.2362 0.88811 0.0
C3860 C 0.74185 0.25588 0.89175 0.0
C3861 C 0.73945 0.22561 0.90351 0.0
C3862 C 0.74065 0.23464 0.92259 0.0
C3863 C 0.73913 0.25356 0.92562 0.0
C3864 C 0.73965 0.26415 0.91021 0.0
C3865 C 0.74949 0.22683 0.93869 0.0
C3866 C 0.74097 0.21183 0.94675 0.0
C3867 C 0.767 0.23405 0.94544 0.0
C3868 C 0.77711 0.2486 0.93629 0.0
C3869 C 0.78331 0.26674 0.94659 0.0
C3870 C 0.79344 0.28024 0.93825 0.0
C3871 C 0.79755 0.27567 0.91969 0.0
C3872 C 0.79144 0.25763 0.90937 0.0
C3873 C 0.78129 0.2441 0.91765 0.0
H3874 H 0.80539 0.28613 0.91325 0.0
H3875 H 0.7164 0.14685 0.99244 0.0
H3876 H 0.15716 0.5085 0.22488 0.0
H3877 H 0.14286 0.50882 0.19125 0.0
H3878 H 0.09415 0.50114 0.2111 0.0
H3879 H 0.10818 0.50015 0.24396 0.0
H3880 H 0.08742 0.48346 0.17782 0.0
H3881 H 0.12054 0.54648 0.19904 0.0
H3882 H 0.14706 0.57003 0.21031 0.0
H3883 H 0.16694 0.55196 0.15882 0.0
H3884 H 0.1406 0.52816 0.14736 0.0
H3885 H 0.03406 0.51473 0.10401 0.0
H3886 H 0.05254 0.51156 0.13365 0.0
H3887 H 0.0955 0.51609 0.10282 0.0
H3888 H 0.07679 0.51979 0.07288 0.0
H3889 H 0.10729 0.53341 0.13912 0.0
H3890 H 0.07389 0.47222 0.11671 0.0
H3891 H 0.04771 0.44829 0.10505 0.0
H3892 H 0.02893 0.46211 0.15852 0.0
H3893 H 0.05492 0.48629 0.17042 0.0
C3894 C 0.14337 0.50632 0.22201 0.0
C3895 C 0.13404 0.50401 0.23765 0.0
C3896 C 0.13506 0.50692 0.20259 0.0
C3897 C 0.11705 0.50544 0.19794 0.0
C3898 C 0.10788 0.5024 0.21351 0.0
C3899 C 0.11608 0.50177 0.23266 0.0
C3900 C 0.10746 0.5071 0.17744 0.0
C3901 C 0.09185 0.49463 0.16967 0.0
C3902 C 0.11294 0.52108 0.16566 0.0
C3903 C 0.1287 0.53542 0.17247 0.0
C3904 C 0.13061 0.54747 0.19019 0.0
C3905 C 0.1456 0.56087 0.1966 0.0
C3906 C 0.1587 0.56245 0.18532 0.0
C3907 C 0.1568 0.55069 0.16756 0.0
C3908 C 0.14185 0.53725 0.1611 0.0
C3909 C 0.04744 0.51505 0.10331 0.0
C3910 C 0.0536 0.51743 0.08553 0.0
C3911 C 0.05816 0.51306 0.12054 0.0
C3912 C 0.07576 0.51307 0.12107 0.0
C3913 C 0.08212 0.51585 0.10336 0.0
C3914 C 0.07129 0.51792 0.08598 0.0
C3915 C 0.08707 0.51011 0.13994 0.0
C3916 C 0.10293 0.52226 0.14733 0.0
C3917 C 0.08188 0.49578 0.15142 0.0
C3918 C 0.06629 0.48117 0.14439 0.0
C3919 C 0.06413 0.47023 0.12594 0.0
C3920 C 0.04933 0.45661 0.11929 0.0
C3921 C 0.03665 0.45371 0.13102 0.0
C3922 C 0.03876 0.46438 0.14945 0.0
C3923 C 0.05353 0.47803 0.15616 0.0
H3924 H 0.0252 0.44317 0.12584 0.0
H3925 H 0.17029 0.57283 0.19031 0.0
H3926 H 0.81799 0.85559 0.50685 0.0
H3927 H 0.81733 0.83938 0.47388 0.0
H3928 H 0.79271 0.88103 0.44914 0.0
H3929 H 0.79376 0.89765 0.48211 0.0
H3930 H 0.77679 0.8402 0.43531 0.0
H3931 H 0.83046 0.88462 0.44425 0.0
H3932 H 0.85901 0.89974 0.46211 0.0
H3933 H 0.87468 0.84639 0.458 0.0
H3934 H 0.84612 0.8309 0.44037 0.0
H3935 H 0.77766 0.8141 0.3353 0.0
H3936 H 0.77993 0.83068 0.36818 0.0
H3937 H 0.82135 0.80373 0.38808 0.0
H3938 H 0.81991 0.78819 0.35458 0.0
H3939 H 0.82876 0.83641 0.40557 0.0
H3940 H 0.77697 0.79116 0.39665 0.0
H3941 H 0.74853 0.77402 0.3803 0.0
H3942 H 0.72889 0.82493 0.38666 0.0
H3943 H 0.75731 0.84251 0.40267 0.0
C3944 C 0.81257 0.8614 0.49439 0.0
C3945 C 0.80596 0.87794 0.49709 0.0
C3946 C 0.81219 0.8521 0.47556 0.0
C3947 C 0.80493 0.85896 0.45905 0.0
C3948 C 0.79834 0.87548 0.46168 0.0
C3949 C 0.79904 0.88502 0.48051 0.0
C3950 C 0.80405 0.84873 0.43908 0.0
C3951 C 0.78809 0.83953 0.42863 0.0
C3952 C 0.81888 0.84724 0.43077 0.0
C3953 C 0.8361 0.85658 0.44118 0.0
C3954 C 0.83994 0.87609 0.44731 0.0
C3955 C 0.85614 0.88473 0.45736 0.0
C3956 C 0.86863 0.87402 0.46124 0.0
C3957 C 0.86498 0.85466 0.45501 0.0
C3958 C 0.84879 0.84595 0.44498 0.0
C3959 C 0.78722 0.81165 0.34671 0.0
C3960 C 0.7985 0.79969 0.3424 0.0
C3961 C 0.78843 0.82105 0.36562 0.0
C3962 C 0.80048 0.81814 0.381 0.0
C3963 C 0.81186 0.80624 0.37664 0.0
C3964 C 0.81101 0.79728 0.3575 0.0
C3965 C 0.80136 0.82781 0.40141 0.0
C3966 C 0.81735 0.83691 0.41208 0.0
C3967 C 0.78654 0.8288 0.41013 0.0
C3968 C 0.76934 0.8182 0.40073 0.0
C3969 C 0.76662 0.79874 0.39446 0.0
C3970 C 0.7505 0.78894 0.38525 0.0
C3971 C 0.73693 0.79838 0.38241 0.0
C3972 C 0.73943 0.81764 0.38884 0.0
C3973 C 0.75555 0.82754 0.39798 0.0
H3974 H 0.72446 0.79076 0.37526 0.0
H3975 H 0.88116 0.88074 0.46902 0.0
H3976 H 0.42674 0.50815 0.82054 0.0
H3977 H 0.44106 0.50914 0.85409 0.0
H3978 H 0.48893 0.50889 0.83309 0.0
H3979 H 0.47461 0.50728 0.7996 0.0
H3980 H 0.48735 0.4876 0.8598 0.0
H3981 H 0.47791 0.54995 0.85534 0.0
H3982 H 0.46103 0.57422 0.84859 0.0
H3983 H 0.43103 0.5587 0.89262 0.0
H3984 H 0.44759 0.53415 0.89946 0.0
H3985 H 0.52655 0.54539 0.96291 0.0
H3986 H 0.51295 0.54347 0.92901 0.0
H3987 H 0.49172 0.48485 0.92835 0.0
H3988 H 0.50538 0.48668 0.9622 0.0
H3989 H 0.48099 0.53656 0.91228 0.0
H3990 H 0.48769 0.46094 0.88294 0.0
H3991 H 0.5076 0.43933 0.88861 0.0
H3992 H 0.54856 0.48629 0.91045 0.0
H3993 H 0.52896 0.50817 0.90467 0.0
C3994 C 0.4403 0.50819 0.82309 0.0
C3995 C 0.44954 0.5077 0.8074 0.0
C3996 C 0.44851 0.50888 0.8423 0.0
C3997 C 0.46619 0.5094 0.84627 0.0
C3998 C 0.47532 0.50851 0.83052 0.0
C3999 C 0.46709 0.50763 0.81133 0.0
C4000 C 0.47527 0.51106 0.86675 0.0
C4001 C 0.48588 0.49829 0.87126 0.0
C4002 C 0.47378 0.52525 0.88173 0.0
C4003 C 0.46388 0.54009 0.87777 0.0
C4004 C 0.46764 0.55163 0.86349 0.0
C4005 C 0.45814 0.56545 0.85966 0.0
C4006 C 0.44493 0.56796 0.87013 0.0
C4007 C 0.44124 0.55671 0.8845 0.0
C4008 C 0.45069 0.54285 0.88837 0.0
C4009 C 0.51897 0.5321 0.95557 0.0
C4010 C 0.51701 0.51623 0.96536 0.0
C4011 C 0.51119 0.53101 0.93615 0.0
C4012 C 0.50133 0.514 0.92599 0.0
C4013 C 0.49946 0.49808 0.9357 0.0
C4014 C 0.5073 0.49915 0.9551 0.0
C4015 C 0.49286 0.51295 0.90535 0.0
C4016 C 0.48237 0.52583 0.90082 0.0
C4017 C 0.49487 0.49922 0.89022 0.0
C4018 C 0.5068 0.48617 0.89356 0.0
C4019 C 0.50095 0.46664 0.88889 0.0
C4020 C 0.51219 0.45435 0.89213 0.0
C4021 C 0.52932 0.46143 0.89995 0.0
C4022 C 0.53527 0.48082 0.90447 0.0
C4023 C 0.5241 0.49317 0.90124 0.0
H4024 H 0.53799 0.45189 0.90245 0.0
H4025 H 0.43758 0.57866 0.86713 0.0
H4026 H 0.85034 0.18074 0.11141 0.0
H4027 H 0.85808 0.18853 0.14701 0.0
H4028 H 0.85405 0.24615 0.14255 0.0
H4029 H 0.8474 0.23876 0.10743 0.0
H4030 H 0.87423 0.24642 0.17369 0.0
H4031 H 0.81685 0.20646 0.14351 0.0
H4032 H 0.79952 0.17639 0.12598 0.0
H4033 H 0.82326 0.14651 0.16806 0.0
H4034 H 0.84079 0.17642 0.18572 0.0
H4035 H 0.79291 0.25733 0.2132 0.0
H4036 H 0.80893 0.23818 0.19479 0.0
H4037 H 0.85434 0.26078 0.23715 0.0
H4038 H 0.83866 0.28144 0.25427 0.0
H4039 H 0.82453 0.21205 0.19813 0.0
H4040 H 0.88939 0.25932 0.21637 0.0
H4041 H 0.90328 0.29193 0.23027 0.0
H4042 H 0.8591 0.31176 0.20571 0.0
H4043 H 0.845 0.27925 0.19169 0.0
C4044 C 0.85181 0.19521 0.11803 0.0
C4045 C 0.84766 0.20902 0.10671 0.0
C4046 C 0.85613 0.19962 0.1384 0.0
C4047 C 0.856 0.21776 0.14759 0.0
C4048 C 0.85407 0.23197 0.13597 0.0
C4049 C 0.85005 0.22767 0.11577 0.0
C4050 C 0.8544 0.22165 0.16856 0.0
C4051 C 0.86361 0.23868 0.17931 0.0
C4052 C 0.84079 0.21143 0.17621 0.0
C4053 C 0.83022 0.19355 0.16574 0.0
C4054 C 0.81835 0.19344 0.14896 0.0
C4055 C 0.80853 0.17645 0.13901 0.0
C4056 C 0.81034 0.15955 0.14587 0.0
C4057 C 0.82192 0.15961 0.16274 0.0
C4058 C 0.83181 0.17656 0.1727 0.0
C4059 C 0.80635 0.25823 0.21842 0.0
C4060 C 0.81467 0.27095 0.23485 0.0
C4061 C 0.8155 0.24712 0.2081 0.0
C4062 C 0.83303 0.24815 0.21437 0.0
C4063 C 0.84103 0.26007 0.23163 0.0
C4064 C 0.83205 0.27181 0.24145 0.0
C4065 C 0.84285 0.23803 0.2016 0.0
C4066 C 0.83556 0.21951 0.19299 0.0
C4067 C 0.85768 0.24733 0.1953 0.0
C4068 C 0.86609 0.26691 0.2033 0.0
C4069 C 0.88268 0.27067 0.21395 0.0
C4070 C 0.89057 0.28911 0.22185 0.0
C4071 C 0.88205 0.3039 0.21894 0.0
C4072 C 0.86566 0.30029 0.20803 0.0
C4073 C 0.85771 0.28187 0.20012 0.0
H4074 H 0.88817 0.31816 0.2251 0.0
H4075 H 0.80277 0.1464 0.13813 0.0
H4076 H 0.1678 0.51533 0.36741 0.0
H4077 H 0.15326 0.51933 0.39588 0.0
H4078 H 0.10506 0.5103 0.35758 0.0
H4079 H 0.11978 0.50744 0.32923 0.0
H4080 H 0.10028 0.53221 0.38421 0.0
H4081 H 0.1241 0.47691 0.39325 0.0
H4082 H 0.14697 0.45859 0.39741 0.0
H4083 H 0.17265 0.49774 0.4478 0.0
H4084 H 0.15 0.51637 0.44383 0.0
H4085 H 0.04652 0.51608 0.45774 0.0
H4086 H 0.06283 0.51377 0.43074 0.0
H4087 H 0.10968 0.5301 0.47155 0.0
H4088 H 0.09326 0.53218 0.49876 0.0
H4089 H 0.11593 0.50554 0.44474 0.0
H4090 H 0.09167 0.5598 0.43674 0.0
H4091 H 0.06889 0.57826 0.43302 0.0
H4092 H 0.04416 0.54118 0.3808 0.0
H4093 H 0.06669 0.52235 0.38434 0.0
C4094 C 0.15409 0.51418 0.36492 0.0
C4095 C 0.14527 0.51095 0.34544 0.0
C4096 C 0.14553 0.51626 0.38155 0.0
C4097 C 0.12749 0.51472 0.3798 0.0
C4098 C 0.11879 0.51165 0.36024 0.0
C4099 C 0.12737 0.5099 0.34366 0.0
C4100 C 0.11773 0.51656 0.3978 0.0
C4101 C 0.10372 0.52597 0.39718 0.0
C4102 C 0.12187 0.50926 0.41572 0.0
C4103 C 0.13546 0.49811 0.41812 0.0
C4104 C 0.13467 0.48165 0.40515 0.0
C4105 C 0.14759 0.47121 0.40749 0.0
C4106 C 0.16128 0.47702 0.42283 0.0
C4107 C 0.16206 0.49326 0.43591 0.0
C4108 C 0.14918 0.50376 0.43363 0.0
C4109 C 0.06031 0.51934 0.46119 0.0
C4110 C 0.0682 0.5245 0.48102 0.0
C4111 C 0.06984 0.5181 0.4454 0.0
C4112 C 0.08795 0.52203 0.44829 0.0
C4113 C 0.09589 0.52696 0.46817 0.0
C4114 C 0.08633 0.52825 0.48402 0.0
C4115 C 0.09836 0.52084 0.43089 0.0
C4116 C 0.11248 0.51164 0.43167 0.0
C4117 C 0.09432 0.5283 0.4131 0.0
C4118 C 0.08077 0.53956 0.41092 0.0
C4119 C 0.08131 0.55551 0.42454 0.0
C4120 C 0.06845 0.56605 0.42245 0.0
C4121 C 0.05506 0.56087 0.40671 0.0
C4122 C 0.05453 0.54516 0.393 0.0
C4123 C 0.06734 0.53456 0.39503 0.0
H4124 H 0.04513 0.56904 0.40512 0.0
H4125 H 0.17126 0.46893 0.4246 0.0
H4126 H 0.79797 0.83759 0.58409 0.0
H4127 H 0.79434 0.82482 0.61425 0.0
H4128 H 0.80888 0.88058 0.64673 0.0
H4129 H 0.81255 0.89368 0.61607 0.0
H4130 H 0.82554 0.85376 0.66429 0.0
H4131 H 0.76857 0.85936 0.64141 0.0
H4132 H 0.74238 0.8562 0.61749 0.0
H4133 H 0.73718 0.79617 0.60964 0.0
H4134 H 0.76348 0.79897 0.6333 0.0
H4135 H 0.80085 0.81572 0.74987 0.0
H4136 H 0.8044 0.8345 0.72317 0.0
H4137 H 0.78784 0.78423 0.68116 0.0
H4138 H 0.78435 0.76543 0.70779 0.0
H4139 H 0.77161 0.8119 0.67062 0.0
H4140 H 0.82956 0.80641 0.69143 0.0
H4141 H 0.85569 0.8092 0.71535 0.0
H4142 H 0.85902 0.86885 0.72718 0.0
H4143 H 0.83273 0.86637 0.70354 0.0
C4144 C 0.80029 0.84728 0.59757 0.0
C4145 C 0.80556 0.86674 0.59754 0.0
C4146 C 0.79815 0.83989 0.6149 0.0
C4147 C 0.80126 0.85164 0.6329 0.0
C4148 C 0.80638 0.87117 0.63305 0.0
C4149 C 0.80833 0.87868 0.6155 0.0
C4150 C 0.79933 0.84309 0.65127 0.0
C4151 C 0.81363 0.84495 0.66588 0.0
C4152 C 0.78395 0.83117 0.65327 0.0
C4153 C 0.76808 0.82939 0.63904 0.0
C4154 C 0.76192 0.84549 0.63447 0.0
C4155 C 0.74704 0.84376 0.62098 0.0
C4156 C 0.73814 0.826 0.61203 0.0
C4157 C 0.74409 0.80992 0.61658 0.0
C4158 C 0.75898 0.81157 0.63006 0.0
C4159 C 0.79818 0.80863 0.73495 0.0
C4160 C 0.79237 0.78902 0.73101 0.0
C4161 C 0.80021 0.81941 0.71966 0.0
C4162 C 0.79643 0.81087 0.70002 0.0
C4163 C 0.79081 0.79125 0.69611 0.0
C4164 C 0.7889 0.78046 0.71139 0.0
C4165 C 0.79787 0.8223 0.6835 0.0
C4166 C 0.78347 0.82091 0.66919 0.0
C4167 C 0.81315 0.83462 0.68182 0.0
C4168 C 0.82906 0.83618 0.69588 0.0
C4169 C 0.83578 0.8201 0.69925 0.0
C4170 C 0.85063 0.82163 0.71274 0.0
C4171 C 0.85898 0.83918 0.72282 0.0
C4172 C 0.85252 0.85525 0.71938 0.0
C4173 C 0.83765 0.8538 0.70593 0.0
H4174 H 0.87047 0.84033 0.73327 0.0
H4175 H 0.72662 0.82469 0.60159 0.0
H4176 H 0.70473 0.3752 0.53879 0.0
H4177 H 0.68609 0.39128 0.55683 0.0
H4178 H 0.72066 0.44413 0.55948 0.0
H4179 H 0.73933 0.42824 0.54176 0.0
H4180 H 0.70779 0.44144 0.59362 0.0
H4181 H 0.68632 0.4298 0.52316 0.0
H4182 H 0.67515 0.40927 0.49177 0.0
H4183 H 0.63412 0.38065 0.5171 0.0
H4184 H 0.6452 0.40089 0.54872 0.0
H4185 H 0.6673 0.51749 0.58586 0.0
H4186 H 0.68277 0.49178 0.58646 0.0
H4187 H 0.63546 0.45227 0.58269 0.0
H4188 H 0.61977 0.47783 0.5808 0.0
H4189 H 0.65118 0.44142 0.55558 0.0
H4190 H 0.66848 0.45907 0.62341 0.0
H4191 H 0.67914 0.4801 0.65454 0.0
H4192 H 0.72717 0.49729 0.63545 0.0
H4193 H 0.71673 0.47658 0.60408 0.0
C4194 C 0.70845 0.3902 0.54347 0.0
C4195 C 0.72338 0.4005 0.53867 0.0
C4196 C 0.6978 0.39936 0.55376 0.0
C4197 C 0.70193 0.41892 0.55935 0.0
C4198 C 0.71725 0.42902 0.55537 0.0
C4199 C 0.72785 0.41993 0.5451 0.0
C4200 C 0.68978 0.42936 0.56767 0.0
C4201 C 0.69537 0.44146 0.5854 0.0
C4202 C 0.67332 0.42879 0.55731 0.0
C4203 C 0.66671 0.41665 0.53834 0.0
C4204 C 0.675 0.41902 0.52206 0.0
C4205 C 0.66867 0.40746 0.50423 0.0
C4206 C 0.65397 0.39362 0.50247 0.0
C4207 C 0.64554 0.39134 0.51851 0.0
C4208 C 0.65183 0.40284 0.53638 0.0
C4209 C 0.66019 0.50338 0.58544 0.0
C4210 C 0.64227 0.49975 0.58299 0.0
C4211 C 0.66909 0.48866 0.58609 0.0
C4212 C 0.66032 0.47002 0.58472 0.0
C4213 C 0.64252 0.46652 0.58378 0.0
C4214 C 0.63358 0.48122 0.58288 0.0
C4215 C 0.66944 0.45426 0.58121 0.0
C4216 C 0.6633 0.4411 0.56431 0.0
C4217 C 0.68535 0.45384 0.59242 0.0
C4218 C 0.69178 0.46627 0.61133 0.0
C4219 C 0.68128 0.46741 0.62579 0.0
C4220 C 0.68729 0.47927 0.64349 0.0
C4221 C 0.70381 0.49003 0.64696 0.0
C4222 C 0.71438 0.48893 0.63274 0.0
C4223 C 0.70843 0.47709 0.61501 0.0
H4224 H 0.70844 0.49922 0.66068 0.0
H4225 H 0.64909 0.38469 0.48865 0.0
H4226 H 0.19793 0.14617 0.48824 0.0
H4227 H 0.1713 0.12651 0.49225 0.0
H4228 H 0.19913 0.08682 0.51601 0.0
H4229 H 0.22611 0.10653 0.51189 0.0
H4230 H 0.16991 0.06845 0.49256 0.0
H4231 H 0.18375 0.1184 0.5459 0.0
H4232 H 0.19177 0.15122 0.56211 0.0
H4233 H 0.14573 0.16344 0.53215 0.0
H4234 H 0.13755 0.13073 0.51551 0.0
H4235 H 0.10322 0.02313 0.53829 0.0
H4236 H 0.12984 0.04173 0.53235 0.0
H4237 H 0.10164 0.07863 0.50375 0.0
H4238 H 0.07478 0.05966 0.50934 0.0
H4239 H 0.13101 0.09824 0.52973 0.0
H4240 H 0.11728 0.04757 0.47669 0.0
H4241 H 0.1095 0.01446 0.46134 0.0
H4242 H 0.15571 1.0033 0.49204 0.0
H4243 H 0.16365 0.03631 0.50782 0.0
C4244 C 0.19853 0.13319 0.49419 0.0
C4245 C 0.2144 0.12812 0.49983 0.0
C4246 C 0.18316 0.12195 0.49659 0.0
C4247 C 0.18303 0.10527 0.50485 0.0
C4248 C 0.19876 0.09966 0.50971 0.0
C4249 C 0.21425 0.11096 0.5073 0.0
C4250 C 0.16653 0.09409 0.50872 0.0
C4251 C 0.16156 0.07495 0.50093 0.0
C4252 C 0.15527 0.10247 0.51933 0.0
C4253 C 0.16013 0.12215 0.5293 0.0
C4254 C 0.1754 0.12812 0.54264 0.0
C4255 C 0.17997 0.1467 0.55192 0.0
C4256 C 0.16929 0.15942 0.54812 0.0
C4257 C 0.154 0.15357 0.53505 0.0
C4258 C 0.14939 0.13501 0.5257 0.0
C4259 C 0.10261 0.03522 0.53074 0.0
C4260 C 0.08674 0.03988 0.52434 0.0
C4261 C 0.11792 0.04584 0.52729 0.0
C4262 C 0.11791 0.06159 0.51744 0.0
C4263 C 0.1021 0.06657 0.51138 0.0
C4264 C 0.0867 0.05574 0.51461 0.0
C4265 C 0.13439 0.07267 0.5135 0.0
C4266 C 0.13936 0.09177 0.52133 0.0
C4267 C 0.14569 0.06422 0.50306 0.0
C4268 C 0.14097 0.04437 0.49359 0.0
C4269 C 0.12571 0.03802 0.48031 0.0
C4270 C 0.12128 0.01928 0.4715 0.0
C4271 C 0.13208 1.00677 0.47575 0.0
C4272 C 0.14734 0.013 0.48879 0.0
C4273 C 0.15182 0.03173 0.49766 0.0
H4274 H 0.12863 0.99227 0.46891 0.0
H4275 H 0.17284 0.1738 0.55533 0.0
H4276 H 0.14461 0.97986 0.81175 0.0
H4277 H 0.15611 0.95103 0.80676 0.0
H4278 H 0.19256 0.97848 0.77428 0.0
H4279 H 0.18144 1.00749 0.77962 0.0
H4280 H 0.17472 0.9391 0.75759 0.0
H4281 H 0.20702 0.97731 0.81735 0.0
H4282 H 0.20963 0.99512 0.85022 0.0
H4283 H 0.18477 0.94572 0.87055 0.0
H4284 H 0.18179 0.92769 0.83768 0.0
H4285 H 0.24184 0.88948 0.75859 0.0
H4286 H 0.22282 0.91176 0.76026 0.0
H4287 H 0.20045 0.88482 0.80509 0.0
H4288 H 0.22008 0.86294 0.80424 0.0
H4289 H 0.20747 0.92124 0.81573 0.0
H4290 H 0.17856 0.8814 0.75851 0.0
H4291 H 0.17523 0.8625 0.72613 0.0
H4292 H 0.19124 0.91242 0.70105 0.0
H4293 H 0.19503 0.93162 0.73338 0.0
C4294 C 0.15495 0.97968 0.80336 0.0
C4295 C 0.16218 0.99595 0.79614 0.0
C4296 C 0.1615 0.96322 0.80054 0.0
C4297 C 0.17518 0.96265 0.79016 0.0
C4298 C 0.18196 0.97863 0.78226 0.0
C4299 C 0.17564 0.9952 0.7854 0.0
C4300 C 0.1832 0.94585 0.78862 0.0
C4301 C 0.18198 0.9352 0.77023 0.0
C4302 C 0.19212 0.94042 0.80525 0.0
C4303 C 0.19398 0.95123 0.82501 0.0
C4304 C 0.20195 0.9703 0.82878 0.0
C4305 C 0.20353 0.98042 0.84742 0.0
C4306 C 0.19731 0.97158 0.86245 0.0
C4307 C 0.18955 0.95257 0.85888 0.0
C4308 C 0.18791 0.94239 0.84025 0.0
C4309 C 0.233 0.88829 0.76895 0.0
C4310 C 0.23292 0.87461 0.78165 0.0
C4311 C 0.22189 0.90092 0.76966 0.0
C4312 C 0.21012 0.9 0.78277 0.0
C4313 C 0.20945 0.88587 0.79488 0.0
C4314 C 0.22063 0.87324 0.79424 0.0
C4315 C 0.19934 0.91452 0.78457 0.0
C4316 C 0.20003 0.92482 0.80304 0.0
C4317 C 0.18969 0.9194 0.76802 0.0
C4318 C 0.18718 0.90796 0.74844 0.0
C4319 C 0.18148 0.88836 0.74613 0.0
C4320 C 0.17951 0.87758 0.72777 0.0
C4321 C 0.18304 0.88625 0.71154 0.0
C4322 C 0.18852 0.90573 0.71364 0.0
C4323 C 0.19057 0.91657 0.73198 0.0
H4324 H 0.1815 0.87789 0.69734 0.0
H4325 H 0.19856 0.97943 0.87687 0.0
H4326 H 0.30811 0.87506 0.96319 0.0
H4327 H 0.33471 0.89753 0.96449 0.0
H4328 H 0.31382 0.94089 0.99462 0.0
H4329 H 0.28718 0.91857 0.99341 0.0
H4330 H 0.33483 0.95397 0.96759 0.0
H4331 H 0.33548 0.91868 0.02112 0.0
H4332 H 0.33115 0.8896 0.0361 0.0
H4333 H 0.37004 0.87023 0.00752 0.0
H4334 H 0.37424 0.89899 0.99186 0.0
H4335 H 0.41645 0.01129 0.00912 0.0
H4336 H 0.38764 0.99247 0.00721 0.0
H4337 H 0.40315 0.94496 0.977 0.0
H4338 H 0.43177 0.9636 0.97887 0.0
H4339 H 0.38412 0.93555 1.0062 0.0
H4340 H 0.38193 0.97067 0.95131 0.0
H4341 H 0.3853 0.99963 0.936 0.0
H4342 H 0.34914 0.01994 0.9686 0.0
H4343 H 0.34575 0.99119 0.98433 0.0
C4344 C 0.30901 0.88947 0.96967 0.0
C4345 C 0.29567 0.89497 0.9785 0.0
C4346 C 0.32422 0.90227 0.97045 0.0
C4347 C 0.32625 0.92072 0.97994 0.0
C4348 C 0.31248 0.92666 0.98732 0.0
C4349 C 0.29732 0.91385 0.98669 0.0
C4350 C 0.34324 0.93314 0.98402 0.0
C4351 C 0.34558 0.95009 0.97622 0.0
C4352 C 0.35717 0.928 0.99532 0.0
C4353 C 0.35504 0.91091 1.00513 0.0
C4354 C 0.34301 0.90815 0.01788 0.0
C4355 C 0.34056 0.89172 0.02648 0.0
C4356 C 0.35028 0.87805 0.02273 0.0
C4357 C 0.36249 0.88082 0.01038 0.0
C4358 C 0.36489 0.89717 1.00161 0.0
C4359 C 0.41367 0.99678 1.00225 0.0
C4360 C 0.42618 0.9889 0.99396 0.0
C4361 C 0.39728 0.98611 1.0011 0.0
C4362 C 0.3933 0.96741 0.99182 0.0
C4363 C 0.40598 0.95937 0.98417 0.0
C4364 C 0.42225 0.97005 0.98514 0.0
C4365 C 0.37583 0.95622 0.98942 0.0
C4366 C 0.37336 0.9395 0.99766 0.0
C4367 C 0.36177 0.96166 0.97867 0.0
C4368 C 0.36374 0.97889 0.96916 0.0
C4369 C 0.37482 0.98139 0.95534 0.0
C4370 C 0.37671 0.99775 0.94656 0.0
C4371 C 0.36748 0.01164 0.95137 0.0
C4372 C 0.3563 1.00918 0.96492 0.0
C4373 C 0.35439 0.99285 0.97376 0.0
H4374 H 0.36896 0.0243 0.94455 0.0
H4375 H 0.34839 0.86535 0.02944 0.0
H4376 H 0.86309 0.57804 0.76877 0.0
H4377 H 0.84875 0.60485 0.76999 0.0
H4378 H 0.89694 0.6423 0.77305 0.0
H4379 H 0.91143 0.61533 0.77327 0.0
H4380 H 0.8821 0.66327 0.79033 0.0
H4381 H 0.85655 0.62666 0.72903 0.0
H4382 H 0.8415 0.59869 0.70589 0.0
H4383 H 0.79848 0.59509 0.73636 0.0
H4384 H 0.81336 0.62293 0.7598 0.0
H4385 H 0.84066 0.74272 0.77415 0.0
H4386 H 0.85609 0.71669 0.77211 0.0
H4387 H 0.80963 0.67766 0.77323 0.0
H4388 H 0.79407 0.70366 0.77399 0.0
H4389 H 0.82432 0.65817 0.75306 0.0
H4390 H 0.85252 0.69711 0.81474 0.0
H4391 H 0.86826 0.7271 0.83401 0.0
H4392 H 0.9076 0.72806 0.79818 0.0
H4393 H 0.892 0.6982 0.7786 0.0
C4394 C 0.87079 0.59192 0.76958 0.0
C4395 C 0.88875 0.59381 0.7707 0.0
C4396 C 0.86236 0.60769 0.77004 0.0
C4397 C 0.87113 0.62659 0.77094 0.0
C4398 C 0.88918 0.62846 0.77222 0.0
C4399 C 0.89768 0.61267 0.77223 0.0
C4400 C 0.86178 0.64402 0.77092 0.0
C4401 C 0.86951 0.66186 0.7819 0.0
C4402 C 0.8451 0.64348 0.76026 0.0
C4403 C 0.83614 0.62673 0.74628 0.0
C4404 C 0.84392 0.61983 0.73085 0.0
C4405 C 0.83542 0.60401 0.71768 0.0
C4406 C 0.81907 0.59509 0.71969 0.0
C4407 C 0.81116 0.60199 0.73484 0.0
C4408 C 0.81962 0.61779 0.74807 0.0
C4409 C 0.83359 0.72864 0.774 0.0
C4410 C 0.81575 0.72595 0.77432 0.0
C4411 C 0.84266 0.71335 0.77309 0.0
C4412 C 0.83468 0.69428 0.77312 0.0
C4413 C 0.81678 0.69168 0.77324 0.0
C4414 C 0.80765 0.70691 0.77374 0.0
C4415 C 0.84449 0.67724 0.77273 0.0
C4416 C 0.83684 0.65948 0.76162 0.0
C4417 C 0.86139 0.678 0.78289 0.0
C4418 C 0.87105 0.6955 0.79516 0.0
C4419 C 0.86454 0.70372 0.81101 0.0
C4420 C 0.87342 0.72072 0.82195 0.0
C4421 C 0.8889 0.72951 0.81728 0.0
C4422 C 0.8956 0.72127 0.80176 0.0
C4423 C 0.88676 0.70429 0.79076 0.0
H4424 H 0.89571 0.74271 0.82571 0.0
H4425 H 0.8125 0.58285 0.70948 0.0
H4426 H 0.79405 0.59964 0.01661 0.0
H4427 H 0.8195 0.58561 0.02066 0.0
H4428 H 0.85119 0.63965 0.02032 0.0
H4429 H 0.82571 0.65359 0.01567 0.0
H4430 H 0.8633 0.61487 0.99993 0.0
H4431 H 0.847 0.6178 0.06356 0.0
H4432 H 0.82774 0.61235 0.08779 0.0
H4433 H 0.82114 0.55273 0.07129 0.0
H4434 H 0.8402 0.55783 0.04678 0.0
H4435 H 0.94232 0.5907 0.03765 0.0
H4436 H 0.91677 0.60444 0.03421 0.0
H4437 H 0.88519 0.54924 0.02663 0.0
H4438 H 0.91063 0.53525 0.02943 0.0
H4439 H 0.87323 0.57441 0.05113 0.0
H4440 H 0.89047 0.57205 0.98793 0.0
H4441 H 0.91087 0.57803 0.96502 0.0
H4442 H 0.91648 0.63751 0.98178 0.0
H4443 H 0.89636 0.63187 1.00511 0.0
C4444 C 0.80643 0.60858 0.01749 0.0
C4445 C 0.80772 0.62782 0.0159 0.0
C4446 C 0.82108 0.60053 0.01991 0.0
C4447 C 0.83753 0.6115 0.02113 0.0
C4448 C 0.8388 0.63073 0.01947 0.0
C4449 C 0.82414 0.63875 0.0169 0.0
C4450 C 0.85333 0.60298 0.02388 0.0
C4451 C 0.86551 0.60626 0.01133 0.0
C4452 C 0.85634 0.59132 0.03846 0.0
C4453 C 0.84489 0.58821 0.0532 0.0
C4454 C 0.84134 0.60353 0.065 0.0
C4455 C 0.83048 0.60051 0.0788 0.0
C4456 C 0.82318 0.58221 0.08104 0.0
C4457 C 0.82678 0.56689 0.06952 0.0
C4458 C 0.83762 0.56984 0.05568 0.0
C4459 C 0.93 0.58135 0.03505 0.0
C4460 C 0.92882 0.5617 0.03376 0.0
C4461 C 0.9153 0.58932 0.03317 0.0
C4462 C 0.89889 0.57795 0.02998 0.0
C4463 C 0.89762 0.55841 0.02913 0.0
C4464 C 0.91231 0.55041 0.03086 0.0
C4465 C 0.88311 0.58639 0.02725 0.0
C4466 C 0.87097 0.58306 0.03976 0.0
C4467 C 0.8802 0.59809 0.01273 0.0
C4468 C 0.89202 0.60153 0.99841 0.0
C4469 C 0.89614 0.5864 0.98684 0.0
C4470 C 0.90765 0.58973 0.97377 0.0
C4471 C 0.91499 0.60814 0.97197 0.0
C4472 C 0.9108 0.62325 0.98321 0.0
C4473 C 0.89934 0.62 0.99636 0.0
H4474 H 0.92391 0.61069 0.96185 0.0
H4475 H 0.81478 0.57989 0.09174 0.0
H4476 H 0.19278 0.08528 0.81673 0.0
H4477 H 0.21577 0.11147 0.81431 0.0
H4478 H 0.17968 0.14841 0.81033 0.0
H4479 H 0.15674 0.12259 0.81321 0.0
H4480 H 0.21067 0.13873 0.77905 0.0
H4481 H 0.19461 0.1676 0.84217 0.0
H4482 H 0.18946 0.16416 0.87577 0.0
H4483 H 0.23775 0.14745 0.88872 0.0
H4484 H 0.24302 0.15052 0.85505 0.0
H4485 H 0.25677 0.22802 0.77147 0.0
H4486 H 0.23565 0.20162 0.77674 0.0
H4487 H 0.27036 0.19222 0.82585 0.0
H4488 H 0.29086 0.21998 0.82173 0.0
H4489 H 0.24136 0.18588 0.83527 0.0
H4490 H 0.26145 0.16416 0.7772 0.0
H4491 H 0.26872 0.16486 0.74403 0.0
H4492 H 0.21635 0.16385 0.72107 0.0
H4493 H 0.2088 0.16339 0.75414 0.0
C4494 C 0.18975 0.09902 0.81555 0.0
C4495 C 0.17287 0.10179 0.81528 0.0
C4496 C 0.20291 0.11396 0.81416 0.0
C4497 C 0.19945 0.1319 0.81232 0.0
C4498 C 0.18267 0.13473 0.81203 0.0
C4499 C 0.16956 0.11992 0.81368 0.0
C4500 C 0.21317 0.14758 0.80993 0.0
C4501 C 0.21732 0.14918 0.79125 0.0
C4502 C 0.22223 0.16074 0.82595 0.0
C4503 C 0.21908 0.15903 0.8461 0.0
C4504 C 0.20402 0.16299 0.85213 0.0
C4505 C 0.2011 0.16115 0.87119 0.0
C4506 C 0.21324 0.15552 0.88435 0.0
C4507 C 0.22834 0.15176 0.8785 0.0
C4508 C 0.23129 0.15354 0.85944 0.0
C4509 C 0.25973 0.22065 0.78371 0.0
C4510 C 0.27532 0.22641 0.79648 0.0
C4511 C 0.24776 0.2052 0.78647 0.0
C4512 C 0.2514 0.19448 0.80148 0.0
C4513 C 0.26711 0.20014 0.81415 0.0
C4514 C 0.2789 0.21598 0.81173 0.0
C4515 C 0.23876 0.17761 0.80409 0.0
C4516 C 0.23483 0.17559 0.82289 0.0
C4517 C 0.23013 0.16382 0.78813 0.0
C4518 C 0.23459 0.16389 0.76818 0.0
C4519 C 0.2515 0.16419 0.76509 0.0
C4520 C 0.25567 0.16453 0.74631 0.0
C4521 C 0.24301 0.16444 0.73046 0.0
C4522 C 0.22614 0.16394 0.73336 0.0
C4523 C 0.22191 0.16361 0.75212 0.0
H4524 H 0.24627 0.16473 0.71594 0.0
H4525 H 0.21097 0.15412 0.8991 0.0
H4526 H 0.37782 0.9867 0.24869 0.0
H4527 H 0.36123 0.955 0.24848 0.0
H4528 H 0.38667 0.95418 0.30682 0.0
H4529 H 0.40395 0.98504 0.30628 0.0
H4530 H 0.38374 0.92221 0.29312 0.0
H4531 H 0.33867 0.95736 0.28824 0.0
H4532 H 0.32102 0.9785 0.27436 0.0
H4533 H 0.30834 0.94141 0.21986 0.0
H4534 H 0.32606 0.92015 0.23336 0.0
H4535 H 0.32511 0.84273 0.31414 0.0
H4536 H 0.34022 0.87456 0.31222 0.0
H4537 H 0.32617 0.86481 0.24962 0.0
H4538 H 0.31127 0.83276 0.25144 0.0
H4539 H 0.3228 0.90112 0.26422 0.0
H4540 H 0.3672 0.86519 0.27175 0.0
H4541 H 0.38365 0.84411 0.28773 0.0
H4542 H 0.3963 0.88375 0.34044 0.0
H4543 H 0.37971 0.90496 0.32486 0.0
C4544 C 0.37967 0.97994 0.26163 0.0
C4545 C 0.39225 0.989 0.27763 0.0
C4546 C 0.37 0.96152 0.2616 0.0
C4547 C 0.37205 0.95144 0.27781 0.0
C4548 C 0.38445 0.96086 0.29388 0.0
C4549 C 0.39436 0.97893 0.29368 0.0
C4550 C 0.36203 0.9312 0.27812 0.0
C4551 C 0.37032 0.918 0.28702 0.0
C4552 C 0.34444 0.92455 0.26991 0.0
C4553 C 0.33383 0.93729 0.26174 0.0
C4554 C 0.3322 0.95379 0.27326 0.0
C4555 C 0.32217 0.96578 0.26546 0.0
C4556 C 0.31361 0.96133 0.24622 0.0
C4557 C 0.31501 0.94485 0.23475 0.0
C4558 C 0.32503 0.93282 0.24247 0.0
C4559 C 0.32517 0.84721 0.29988 0.0
C4560 C 0.31675 0.83465 0.28297 0.0
C4561 C 0.33398 0.86566 0.29877 0.0
C4562 C 0.33468 0.87266 0.28073 0.0
C4563 C 0.32605 0.86024 0.26384 0.0
C4564 C 0.31747 0.84165 0.26491 0.0
C4565 C 0.3445 0.8926 0.27952 0.0
C4566 C 0.3362 0.90559 0.27039 0.0
C4567 C 0.36196 0.89922 0.28787 0.0
C4568 C 0.37208 0.88658 0.29719 0.0
C4569 C 0.37339 0.86936 0.2868 0.0
C4570 C 0.38276 0.85739 0.29578 0.0
C4571 C 0.39098 0.86257 0.31511 0.0
C4572 C 0.38991 0.87975 0.32548 0.0
C4573 C 0.38054 0.89175 0.31657 0.0
H4574 H 0.39822 0.85329 0.32204 0.0
H4575 H 0.30586 0.97063 0.24021 0.0
H4576 H 0.58004 0.33225 0.60316 0.0
H4577 H 0.57989 0.36137 0.58855 0.0
H4578 H 0.55765 0.38431 0.63633 0.0
H4579 H 0.5583 0.35559 0.65132 0.0
H4580 H 0.54004 0.38464 0.59511 0.0
H4581 H 0.59549 0.40145 0.63646 0.0
H4582 H 0.625 0.39835 0.64796 0.0
H4583 H 0.63759 0.40343 0.59069 0.0
H4584 H 0.60804 0.40609 0.5787 0.0
H4585 H 0.53583 0.47499 0.57113 0.0
H4586 H 0.53986 0.44793 0.58748 0.0
H4587 H 0.58315 0.44253 0.5585 0.0
H4588 H 0.58004 0.47094 0.54374 0.0
H4589 H 0.59058 0.43213 0.58949 0.0
H4590 H 0.53815 0.4121 0.54567 0.0
H4591 H 0.50908 0.41301 0.52987 0.0
H4592 H 0.49113 0.41059 0.58489 0.0
H4593 H 0.52013 0.4098 0.60106 0.0
C4594 C 0.57534 0.3436 0.61071 0.0
C4595 C 0.56924 0.34151 0.62851 0.0
C4596 C 0.57527 0.36028 0.60232 0.0
C4597 C 0.56876 0.37516 0.61128 0.0
C4598 C 0.56277 0.37313 0.6291 0.0
C4599 C 0.56322 0.35667 0.63772 0.0
C4600 C 0.56736 0.3924 0.6017 0.0
C4601 C 0.55109 0.39514 0.59406 0.0
C4602 C 0.58177 0.40575 0.59945 0.0
C4603 C 0.59943 0.40366 0.6066 0.0
C4604 C 0.60445 0.40158 0.62622 0.0
C4605 C 0.62122 0.39997 0.63285 0.0
C4606 C 0.63314 0.4006 0.62004 0.0
C4607 C 0.62833 0.40286 0.60058 0.0
C4608 C 0.61156 0.40439 0.59386 0.0
C4609 C 0.54622 0.46802 0.56828 0.0
C4610 C 0.55748 0.47499 0.55593 0.0
C4611 C 0.54843 0.45227 0.57747 0.0
C4612 C 0.56143 0.44231 0.57382 0.0
C4613 C 0.57289 0.44958 0.56167 0.0
C4614 C 0.57108 0.46584 0.55308 0.0
C4615 C 0.56314 0.42459 0.58277 0.0
C4616 C 0.57945 0.42167 0.59032 0.0
C4617 C 0.5488 0.41061 0.58422 0.0
C4618 C 0.53133 0.41102 0.57459 0.0
C4619 C 0.52801 0.41184 0.55441 0.0
C4620 C 0.51155 0.41232 0.54539 0.0
C4621 C 0.49827 0.41184 0.55637 0.0
C4622 C 0.50143 0.4109 0.5764 0.0
C4623 C 0.51787 0.41042 0.5855 0.0
H4624 H 0.48553 0.41219 0.54935 0.0
H4625 H 0.64613 0.39942 0.62523 0.0
H4626 H 0.47685 0.77273 0.37515 0.0
H4627 H 0.44985 0.7751 0.35509 0.0
H4628 H 0.42178 0.75241 0.39814 0.0
H4629 H 0.4485 0.75034 0.41821 0.0
H4630 H 0.40576 0.7367 0.36135 0.0
H4631 H 0.42198 0.80026 0.39578 0.0
H4632 H 0.44068 0.83096 0.4084 0.0
H4633 H 0.45199 0.83704 0.35078 0.0
H4634 H 0.43267 0.80666 0.33769 0.0
H4635 H 0.32526 0.76368 0.32963 0.0
H4636 H 0.35219 0.7618 0.35022 0.0
H4637 H 0.38032 0.7807 0.30555 0.0
H4638 H 0.35363 0.78214 0.28497 0.0
H4639 H 0.39614 0.79818 0.34328 0.0
H4640 H 0.3732 0.73585 0.30923 0.0
H4641 H 0.3513 0.70696 0.29898 0.0
H4642 H 0.35179 0.69836 0.35892 0.0
H4643 H 0.37352 0.72738 0.36955 0.0
C4644 C 0.46492 0.76801 0.38021 0.0
C4645 C 0.46498 0.76128 0.39835 0.0
C4646 C 0.44943 0.76955 0.36881 0.0
C4647 C 0.43359 0.76409 0.37507 0.0
C4648 C 0.43367 0.75677 0.39285 0.0
C4649 C 0.44907 0.75558 0.40436 0.0
C4650 C 0.41694 0.76604 0.36334 0.0
C4651 C 0.40366 0.7502 0.35756 0.0
C4652 C 0.41392 0.7835 0.35814 0.0
C4653 C 0.42616 0.80116 0.36586 0.0
C4654 C 0.42861 0.80809 0.38587 0.0
C4655 C 0.43926 0.82545 0.39308 0.0
C4656 C 0.44778 0.83582 0.38048 0.0
C4657 C 0.44547 0.82894 0.36055 0.0
C4658 C 0.43456 0.81173 0.35319 0.0
C4659 C 0.33721 0.76778 0.32441 0.0
C4660 C 0.33726 0.77323 0.3057 0.0
C4661 C 0.35264 0.76652 0.3361 0.0
C4662 C 0.36845 0.77099 0.32947 0.0
C4663 C 0.36844 0.77715 0.31112 0.0
C4664 C 0.3531 0.778 0.29934 0.0
C4665 C 0.38499 0.76884 0.34119 0.0
C4666 C 0.39825 0.78464 0.34695 0.0
C4667 C 0.38787 0.75135 0.34654 0.0
C4668 C 0.37484 0.7339 0.3402 0.0
C4669 C 0.36852 0.72789 0.32024 0.0
C4670 C 0.35616 0.71148 0.31435 0.0
C4671 C 0.35012 0.70086 0.32829 0.0
C4672 C 0.35646 0.70661 0.34814 0.0
C4673 C 0.3688 0.72304 0.35411 0.0
H4674 H 0.34056 0.68815 0.32371 0.0
H4675 H 0.45606 0.84924 0.38612 0.0
H4676 H 0.04827 0.73171 0.13502 0.0
H4677 H 0.04321 0.69778 0.12344 0.0
H4678 H 0.07439 0.70844 0.07887 0.0
H4679 H 0.07905 0.7419 0.08982 0.0
H4680 H 0.04861 0.68341 0.06307 0.0
H4681 H 0.08806 0.69072 0.12279 0.0
H4682 H 0.09859 0.69996 0.15807 0.0
H4683 H 0.05536 0.66295 0.17127 0.0
H4684 H 0.04446 0.65366 0.13604 0.0
H4685 H 0.06778 0.59144 0.04005 0.0
H4686 H 0.07122 0.62476 0.05366 0.0
H4687 H 0.02864 0.61101 0.08407 0.0
H4688 H 0.02484 0.57794 0.07017 0.0
H4689 H 0.05883 0.63673 0.10746 0.0
H4690 H 0.02042 0.62905 0.04656 0.0
H4691 H 0.01149 0.6195 0.01105 0.0
H4692 H 0.05511 0.65746 1.00006 0.0
H4693 H 0.06445 0.66702 0.03555 0.0
C4694 C 0.054 0.72682 0.12273 0.0
C4695 C 0.06406 0.73976 0.11344 0.0
C4696 C 0.05118 0.70734 0.11615 0.0
C4697 C 0.05853 0.7003 0.10028 0.0
C4698 C 0.06846 0.71327 0.09103 0.0
C4699 C 0.07116 0.73259 0.09744 0.0
C4700 C 0.056 0.6796 0.09304 0.0
C4701 C 0.05105 0.67332 0.07286 0.0
C4702 C 0.05885 0.66611 0.10562 0.0
C4703 C 0.06535 0.67167 0.12679 0.0
C4704 C 0.08073 0.68467 0.13322 0.0
C4705 C 0.08678 0.6899 0.15321 0.0
C4706 C 0.07762 0.68209 0.16691 0.0
C4707 C 0.06242 0.66901 0.16064 0.0
C4708 C 0.0563 0.66375 0.14067 0.0
C4709 C 0.0592 0.5955 0.0497 0.0
C4710 C 0.04598 0.58196 0.0539 0.0
C4711 C 0.06116 0.61457 0.05746 0.0
C4712 C 0.05018 0.62046 0.06993 0.0
C4713 C 0.0373 0.60688 0.07456 0.0
C4714 C 0.0351 0.58794 0.06648 0.0
C4715 C 0.05172 0.6408 0.07761 0.0
C4716 C 0.05641 0.64693 0.0978 0.0
C4717 C 0.04887 0.65422 0.06505 0.0
C4718 C 0.04323 0.64859 0.04371 0.0
C4719 C 0.02819 0.63523 0.03658 0.0
C4720 C 0.02304 0.62984 0.01646 0.0
C4721 C 0.03276 0.63783 1.00331 0.0
C4722 C 0.04762 0.65126 0.01027 0.0
C4723 C 0.05284 0.65668 0.03038 0.0
H4724 H 0.02874 0.63364 0.98774 0.0
H4725 H 0.08232 0.68615 0.18238 0.0
H4726 H 0.07557 0.26112 0.922 0.0
H4727 H 0.10156 0.26232 0.90743 0.0
H4728 H 0.07191 0.25703 0.85005 0.0
H4729 H 0.04574 0.2549 0.86461 0.0
H4730 H 0.09527 0.23835 0.84638 0.0
H4731 H 0.09786 0.30094 0.87767 0.0
H4732 H 0.09755 0.32562 0.90482 0.0
H4733 H 0.14122 0.31107 0.93757 0.0
H4734 H 0.14166 0.28613 0.9107 0.0
H4735 H 0.16512 0.27109 0.79818 0.0
H4736 H 0.13928 0.26821 0.81315 0.0
H4737 H 0.16882 0.26579 0.86881 0.0
H4738 H 0.19488 0.2691 0.85399 0.0
H4739 H 0.14587 0.28828 0.8734 0.0
H4740 H 0.1432 0.22598 0.84068 0.0
H4741 H 0.14339 0.20225 0.81259 0.0
H4742 H 0.0995 0.21772 0.78132 0.0
H4743 H 0.09918 0.24173 0.80914 0.0
C4744 C 0.07453 0.26009 0.90626 0.0
C4745 C 0.05845 0.25796 0.89454 0.0
C4746 C 0.08952 0.26097 0.89788 0.0
C4747 C 0.08904 0.2603 0.87752 0.0
C4748 C 0.07289 0.2577 0.86576 0.0
C4749 C 0.05784 0.25648 0.87413 0.0
C4750 C 0.10524 0.2623 0.86854 0.0
C4751 C 0.10619 0.24947 0.85221 0.0
C4752 C 0.11988 0.27653 0.87611 0.0
C4753 C 0.11969 0.29155 0.89225 0.0
C4754 C 0.10733 0.30293 0.89072 0.0
C4755 C 0.10714 0.31697 0.90605 0.0
C4756 C 0.11933 0.31988 0.92293 0.0
C4757 C 0.13177 0.30878 0.9245 0.0
C4758 C 0.132 0.2947 0.90922 0.0
C4759 C 0.16625 0.27013 0.81366 0.0
C4760 C 0.18231 0.27038 0.82477 0.0
C4761 C 0.15132 0.26826 0.82221 0.0
C4762 C 0.15186 0.26654 0.84217 0.0
C4763 C 0.16788 0.26701 0.85338 0.0
C4764 C 0.18284 0.26877 0.84481 0.0
C4765 C 0.13581 0.26438 0.85131 0.0
C4766 C 0.13491 0.27717 0.86764 0.0
C4767 C 0.12116 0.25027 0.8436 0.0
C4768 C 0.12126 0.23577 0.82692 0.0
C4769 C 0.13366 0.22441 0.82776 0.0
C4770 C 0.13378 0.2109 0.8119 0.0
C4771 C 0.12149 0.20851 0.79517 0.0
C4772 C 0.10902 0.2196 0.79429 0.0
C4773 C 0.10886 0.23315 0.8101 0.0
H4774 H 0.1216 0.19804 0.7829 0.0
H4775 H 0.11916 0.33076 0.93478 0.0
H4776 H 0.53671 0.74372 0.87572 0.0
H4777 H 0.54071 0.71185 0.88042 0.0
H4778 H 0.51134 0.7129 0.92763 0.0
H4779 H 0.50726 0.74438 0.92315 0.0
H4780 H 0.54381 0.70565 0.93792 0.0
H4781 H 0.49447 0.6862 0.88703 0.0
H4782 H 0.47842 0.68445 0.85394 0.0
H4783 H 0.51647 0.65942 0.82917 0.0
H4784 H 0.53287 0.66127 0.86214 0.0
H4785 H 0.50895 0.60955 0.94947 0.0
H4786 H 0.50881 0.63254 0.92679 0.0
H4787 H 0.56383 0.645 0.93695 0.0
H4788 H 0.5641 0.62181 0.95964 0.0
H4789 H 0.5228 0.64501 0.89417 0.0
H4790 H 0.57437 0.69177 0.95214 0.0
H4791 H 0.58736 0.69283 0.98654 0.0
H4792 H 0.53994 0.66324 0.99884 0.0
H4793 H 0.52663 0.66233 0.96465 0.0
C4794 C 0.53089 0.73701 0.88689 0.0
C4795 C 0.52191 0.7467 0.89928 0.0
C4796 C 0.53317 0.71884 0.88951 0.0
C4797 C 0.52644 0.71021 0.90448 0.0
C4798 C 0.51675 0.71946 0.91612 0.0
C4799 C 0.51448 0.73749 0.91355 0.0
C4800 C 0.53055 0.69227 0.90947 0.0
C4801 C 0.53946 0.69244 0.92821 0.0
C4802 C 0.5248 0.6751 0.89681 0.0
C4803 C 0.51502 0.67412 0.87701 0.0
C4804 C 0.49952 0.68053 0.87451 0.0
C4805 C 0.49033 0.67946 0.85578 0.0
C4806 C 0.49646 0.6719 0.83945 0.0
C4807 C 0.51176 0.66533 0.84183 0.0
C4808 C 0.521 0.66637 0.86053 0.0
C4809 C 0.52104 0.6166 0.9463 0.0
C4810 C 0.53655 0.61424 0.95668 0.0
C4811 C 0.52092 0.62967 0.93323 0.0
C4812 C 0.5363 0.6406 0.93045 0.0
C4813 C 0.55183 0.63674 0.93905 0.0
C4814 C 0.55196 0.62369 0.95217 0.0
C4815 C 0.53586 0.65848 0.92266 0.0
C4816 C 0.52766 0.65833 0.90354 0.0
C4817 C 0.5419 0.67577 0.93509 0.0
C4818 C 0.54962 0.67676 0.95582 0.0
C4819 C 0.56673 0.68557 0.96223 0.0
C4820 C 0.57413 0.68615 0.98168 0.0
C4821 C 0.5645 0.67804 0.99485 0.0
C4822 C 0.5474 0.66946 0.98863 0.0
C4823 C 0.53993 0.66892 0.96923 0.0
H4824 H 0.57027 0.67844 0.00988 0.0
H4825 H 0.48932 0.67107 0.82497 0.0
H4826 H 0.11267 0.78192 0.67181 0.0
H4827 H 0.14061 0.78237 0.69034 0.0
H4828 H 0.11693 0.76174 0.73757 0.0
H4829 H 0.08875 0.76081 0.71892 0.0
H4830 H 0.15799 0.79974 0.72418 0.0
H4831 H 0.14035 0.73144 0.75723 0.0
H4832 H 0.11885 0.70197 0.75037 0.0
H4833 H 0.11263 0.70636 0.68904 0.0
H4834 H 0.13425 0.73569 0.69551 0.0
H4835 H 0.23175 0.7906 0.78608 0.0
H4836 H 0.20184 0.79083 0.77467 0.0
H4837 H 0.19976 0.7436 0.7305 0.0
H4838 H 0.22968 0.74303 0.7423 0.0
H4839 H 0.17104 0.74009 0.74412 0.0
H4840 H 0.20736 0.79012 0.72199 0.0
H4841 H 0.22909 0.81898 0.72446 0.0
H4842 H 0.19909 0.85012 0.75699 0.0
H4843 H 0.17742 0.82132 0.75525 0.0
C4844 C 0.11333 0.77756 0.68619 0.0
C4845 C 0.09841 0.77108 0.69375 0.0
C4846 C 0.12936 0.77793 0.6968 0.0
C4847 C 0.13084 0.77184 0.7152 0.0
C4848 C 0.11604 0.7662 0.72324 0.0
C4849 C 0.09995 0.76576 0.71259 0.0
C4850 C 0.14788 0.77067 0.72542 0.0
C4851 C 0.16084 0.78676 0.72872 0.0
C4852 C 0.15161 0.75362 0.731 0.0
C4853 C 0.13875 0.73587 0.7269 0.0
C4854 C 0.13442 0.72608 0.74228 0.0
C4855 C 0.12221 0.7094 0.73846 0.0
C4856 C 0.11433 0.70233 0.71929 0.0
C4857 C 0.11869 0.71188 0.70389 0.0
C4858 C 0.13091 0.72854 0.70763 0.0
C4859 C 0.22487 0.78017 0.77405 0.0
C4860 C 0.23306 0.76697 0.76485 0.0
C4861 C 0.20778 0.78033 0.76753 0.0
C4862 C 0.19868 0.76754 0.75143 0.0
C4863 C 0.20658 0.75368 0.7429 0.0
C4864 C 0.22364 0.75333 0.74963 0.0
C4865 C 0.18124 0.76917 0.74283 0.0
C4866 C 0.16818 0.75317 0.73988 0.0
C4867 C 0.17753 0.78622 0.73711 0.0
C4868 C 0.19085 0.80346 0.7387 0.0
C4869 C 0.20551 0.80304 0.72993 0.0
C4870 C 0.21781 0.81941 0.73118 0.0
C4871 C 0.21549 0.83636 0.74091 0.0
C4872 C 0.20091 0.83696 0.74953 0.0
C4873 C 0.18863 0.82061 0.74846 0.0
H4874 H 0.22496 0.84903 0.74168 0.0
H4875 H 0.10487 0.68943 0.71637 0.0
H4876 H 0.04562 0.36204 0.407 0.0
H4877 H 0.04325 0.38817 0.43126 0.0
H4878 H 0.01845 0.34886 0.46501 0.0
H4879 H 0.0212 0.3227 0.44122 0.0
H4880 H 1.00236 0.38233 0.45689 0.0
H4881 H 0.05501 0.36413 0.483 0.0
H4882 H 0.08336 0.35663 0.48061 0.0
H4883 H 0.10075 0.41162 0.46615 0.0
H4884 H 0.07241 0.41934 0.46818 0.0
H4885 H 0.04021 0.46046 0.54731 0.0
H4886 H 0.03634 0.42852 0.52968 0.0
H4887 H 0.01877 0.44815 0.47596 0.0
H4888 H 0.02303 0.47998 0.49324 0.0
H4889 H 0.0545 0.4211 0.4982 0.0
H4890 H 0.98929 0.41115 0.44798 0.0
H4891 H 0.96128 0.42002 0.44914 0.0
H4892 H 0.969 0.42234 0.51156 0.0
H4893 H 0.99692 0.41318 0.51078 0.0
C4894 C 0.03968 0.35898 0.41959 0.0
C4895 C 0.03362 0.34036 0.42224 0.0
C4896 C 0.03831 0.37388 0.43338 0.0
C4897 C 0.03063 0.37033 0.4498 0.0
C4898 C 0.02434 0.35179 0.45234 0.0
C4899 C 0.02599 0.3369 0.43878 0.0
C4900 C 0.02962 0.38601 0.46462 0.0
C4901 C 0.0137 0.39078 0.46605 0.0
C4902 C 0.04445 0.3968 0.47658 0.0
C4903 C 0.06155 0.39225 0.47559 0.0
C4904 C 0.06484 0.37457 0.47916 0.0
C4905 C 0.08091 0.37028 0.4779 0.0
C4906 C 0.09384 0.38362 0.47319 0.0
C4907 C 0.09072 0.40129 0.46978 0.0
C4908 C 0.07466 0.40564 0.47101 0.0
C4909 C 0.03518 0.45784 0.53183 0.0
C4910 C 0.03188 0.47264 0.52163 0.0
C4911 C 0.03301 0.43965 0.52181 0.0
C4912 C 0.02719 0.43605 0.50159 0.0
C4913 C 0.02305 0.45063 0.49161 0.0
C4914 C 0.02547 0.4688 0.50153 0.0
C4915 C 0.02725 0.41768 0.49034 0.0
C4916 C 0.04307 0.41248 0.48938 0.0
C4917 C 0.01231 0.40663 0.47873 0.0
C4918 C 0.99529 0.4116 0.47932 0.0
C4919 C 0.98497 0.41341 0.46195 0.0
C4920 C 0.96911 0.41852 0.46254 0.0
C4921 C 0.9634 0.42181 0.48042 0.0
C4922 C 0.97348 0.41986 0.49773 0.0
C4923 C 0.98933 0.41473 0.49722 0.0
H4924 H 0.95117 0.42586 0.48086 0.0
H4925 H 0.10627 0.38028 0.47221 0.0
H4926 H 0.52159 0.25007 0.23712 0.0
H4927 H 0.49846 0.25297 0.25624 0.0
H4928 H 0.4662 0.2607 0.20438 0.0
H4929 H 0.48894 0.25774 0.18532 0.0
H4930 H 0.47172 0.29031 0.23594 0.0
H4931 H 0.45712 0.22246 0.22221 0.0
H4932 H 0.46186 0.19013 0.22314 0.0
H4933 H 0.46995 0.19966 0.2859 0.0
H4934 H 0.46558 0.23221 0.28535 0.0
H4935 H 0.38777 0.28756 0.24815 0.0
H4936 H 0.41391 0.27982 0.23857 0.0
H4937 H 0.43201 0.27354 0.29811 0.0
H4938 H 0.40548 0.28101 0.30784 0.0
H4939 H 0.43734 0.24467 0.26958 0.0
H4940 H 0.44895 0.31156 0.2831 0.0
H4941 H 0.4431 0.34345 0.28182 0.0
H4942 H 0.44041 0.33555 0.21944 0.0
H4943 H 0.44598 0.30349 0.22029 0.0
C4944 C 0.50942 0.25195 0.22975 0.0
C4945 C 0.50714 0.25392 0.20979 0.0
C4946 C 0.49625 0.2536 0.24068 0.0
C4947 C 0.48073 0.25721 0.2317 0.0
C4948 C 0.47815 0.25804 0.21157 0.0
C4949 C 0.49118 0.25634 0.20071 0.0
C4950 C 0.4677 0.26218 0.24327 0.0
C4951 C 0.46419 0.28032 0.24328 0.0
C4952 C 0.45835 0.24933 0.25343 0.0
C4953 C 0.46133 0.2299 0.25374 0.0
C4954 C 0.46018 0.21778 0.23621 0.0
C4955 C 0.46274 0.19938 0.23667 0.0
C4956 C 0.46629 0.19287 0.25457 0.0
C4957 C 0.46727 0.20475 0.27205 0.0
C4958 C 0.46477 0.22318 0.27167 0.0
C4959 C 0.39721 0.28435 0.25921 0.0
C4960 C 0.39457 0.28485 0.27874 0.0
C4961 C 0.41219 0.28006 0.25373 0.0
C4962 C 0.42492 0.27628 0.26767 0.0
C4963 C 0.42231 0.27647 0.28717 0.0
C4964 C 0.40726 0.28087 0.29271 0.0
C4965 C 0.44101 0.27254 0.26155 0.0
C4966 C 0.44515 0.25476 0.26262 0.0
C4967 C 0.45102 0.28571 0.25235 0.0
C4968 C 0.4478 0.30507 0.25176 0.0
C4969 C 0.447 0.31657 0.26909 0.0
C4970 C 0.44375 0.33469 0.26844 0.0
C4971 C 0.44136 0.34151 0.25056 0.0
C4972 C 0.44226 0.33024 0.23328 0.0
C4973 C 0.44549 0.31211 0.23385 0.0
H4974 H 0.43884 0.35554 0.25009 0.0
H4975 H 0.46822 0.17861 0.25489 0.0
H4976 H 0.60928 0.55548 0.34215 0.0
H4977 H 0.59716 0.55081 0.37195 0.0
H4978 H 0.64258 0.53276 0.39659 0.0
H4979 H 0.65493 0.53795 0.3671 0.0
H4980 H 0.58798 0.52094 0.38706 0.0
H4981 H 0.64896 0.54114 0.44603 0.0
H4982 H 0.67653 0.56347 0.45249 0.0
H4983 H 0.65514 0.6003 0.4167 0.0
H4984 H 0.6274 0.57833 0.41025 0.0
H4985 H 0.56536 0.48729 0.47295 0.0
H4986 H 0.58091 0.49364 0.44579 0.0
H4987 H 0.59259 0.55278 0.46837 0.0
H4988 H 0.57773 0.54638 0.49581 0.0
H4989 H 0.61843 0.54494 0.45436 0.0
H4990 H 0.55857 0.53234 0.42998 0.0
H4991 H 0.52908 0.51416 0.42357 0.0
H4992 H 0.54506 0.4693 0.38997 0.0
H4993 H 0.5747 0.48713 0.3964 0.0
C4994 C 0.61679 0.55078 0.35404 0.0
C4995 C 0.6331 0.54715 0.35225 0.0
C4996 C 0.6098 0.548 0.37105 0.0
C4997 C 0.61892 0.54148 0.38667 0.0
C4998 C 0.63534 0.53811 0.38498 0.0
C4999 C 0.64239 0.54105 0.36804 0.0
C5000 C 0.61103 0.53757 0.40434 0.0
C5001 C 0.59468 0.5262 0.40176 0.0
C5002 C 0.61954 0.54463 0.42362 0.0
C5003 C 0.63616 0.55797 0.42748 0.0
C5004 C 0.65013 0.55403 0.43958 0.0
C5005 C 0.66579 0.56662 0.44324 0.0
C5006 C 0.6676 0.58326 0.43495 0.0
C5007 C 0.65375 0.58737 0.42304 0.0
C5008 C 0.63806 0.57484 0.41936 0.0
C5009 C 0.5715 0.50158 0.47225 0.0
C5010 C 0.57023 0.51633 0.48645 0.0
C5011 C 0.58027 0.50524 0.45663 0.0
C5012 C 0.58765 0.52378 0.45469 0.0
C5013 C 0.58701 0.53837 0.4694 0.0
C5014 C 0.57846 0.53469 0.48511 0.0
C5015 C 0.59545 0.52818 0.43707 0.0
C5016 C 0.61178 0.5396 0.43966 0.0
C5017 C 0.58668 0.52171 0.41779 0.0
C5018 C 0.56887 0.51098 0.41384 0.0
C5019 C 0.55581 0.51855 0.42133 0.0
C5020 C 0.53907 0.50831 0.41768 0.0
C5021 C 0.53521 0.49057 0.40642 0.0
C5022 C 0.54808 0.48304 0.39873 0.0
C5023 C 0.56485 0.4932 0.40236 0.0
H5024 H 0.52224 0.48267 0.4036 0.0
H5025 H 0.67974 0.59298 0.4378 0.0
H5026 H 0.27921 0.86386 0.06019 0.0
H5027 H 0.29775 0.8559 0.08743 0.0
H5028 H 0.31281 0.8141 0.04812 0.0
H5029 H 0.2942 0.82168 0.0209 0.0
H5030 H 0.30144 0.80004 0.0785 0.0
H5031 H 0.34282 0.85358 0.07034 0.0
H5032 H 0.35333 0.88664 0.06674 0.0
H5033 H 0.33871 0.90494 0.12157 0.0
H5034 H 0.32832 0.872 0.12566 0.0
H5035 H 0.33881 0.77052 0.16023 0.0
H5036 H 0.34216 0.7847 0.13045 0.0
H5037 H 0.32594 0.834 0.15582 0.0
H5038 H 0.32346 0.82035 0.18572 0.0
H5039 H 0.34416 0.84344 0.12901 0.0
H5040 H 0.29623 0.79385 0.1331 0.0
H5041 H 0.28309 0.76203 0.13835 0.0
H5042 H 0.30613 0.73782 0.09215 0.0
H5043 H 0.31948 0.76955 0.08672 0.0
C5044 C 0.28652 0.85302 0.05731 0.0
C5045 C 0.28501 0.84323 0.03839 0.0
C5046 C 0.2973 0.84869 0.07285 0.0
C5047 C 0.30684 0.83461 0.06971 0.0
C5048 C 0.30563 0.8251 0.0508 0.0
C5049 C 0.29485 0.82936 0.03529 0.0
C5050 C 0.31628 0.82812 0.08646 0.0
C5051 C 0.31117 0.8094 0.08925 0.0
C5052 C 0.32857 0.84049 0.10073 0.0
C5053 C 0.33472 0.86032 0.09825 0.0
C5054 C 0.34176 0.86466 0.08158 0.0
C5055 C 0.34772 0.88337 0.07946 0.0
C5056 C 0.34657 0.89788 0.09383 0.0
C5057 C 0.33958 0.8937 0.11044 0.0
C5058 C 0.33374 0.875 0.11272 0.0
C5059 C 0.33674 0.78472 0.15968 0.0
C5060 C 0.3306 0.79425 0.17503 0.0
C5061 C 0.33861 0.7928 0.14271 0.0
C5062 C 0.33369 0.8101 0.14069 0.0
C5063 C 0.32969 0.82058 0.15697 0.0
C5064 C 0.32823 0.81273 0.17408 0.0
C5065 C 0.3291 0.81545 0.12112 0.0
C5066 C 0.33494 0.83394 0.11786 0.0
C5067 C 0.31708 0.80303 0.10654 0.0
C5068 C 0.30899 0.784 0.10967 0.0
C5069 C 0.29853 0.78172 0.12412 0.0
C5070 C 0.29105 0.76372 0.12712 0.0
C5071 C 0.29383 0.74791 0.11564 0.0
C5072 C 0.30403 0.75008 0.10107 0.0
C5073 C 0.31154 0.76806 0.09801 0.0
H5074 H 0.28805 0.73399 0.118 0.0
H5075 H 0.35116 0.91235 0.09212 0.0
H5076 H 0.96038 0.55277 0.81812 0.0
H5077 H 0.97665 0.55072 0.84971 0.0
H5078 H 0.92979 0.53424 0.87196 0.0
H5079 H 0.91351 0.53781 0.84057 0.0
H5080 H 0.94859 0.55065 0.90146 0.0
H5081 H 0.96259 0.50328 0.8574 0.0
H5082 H 0.97228 0.48916 0.82812 0.0
H5083 H 0.02116 0.52607 0.8445 0.0
H5084 H 0.01169 0.54057 0.87377 0.0
H5085 H 0.99565 0.51498 0.9834 0.0
H5086 H 0.97717 0.51728 0.95283 0.0
H5087 H 0.01891 0.55353 0.93551 0.0
H5088 H 0.03705 0.55196 0.9662 0.0
H5089 H 1.00189 0.5255 0.90434 0.0
H5090 H 0.9859 0.57049 0.95115 0.0
H5091 H 0.97459 0.58093 0.98077 0.0
H5092 H 0.92697 0.54289 0.95938 0.0
H5093 H 0.93812 0.53188 0.92982 0.0
C5094 C 0.95342 0.54866 0.82966 0.0
C5095 C 0.93539 0.54537 0.82625 0.0
C5096 C 0.96289 0.54721 0.84802 0.0
C5097 C 0.9549 0.54159 0.8639 0.0
C5098 C 0.93678 0.53848 0.86051 0.0
C5099 C 0.9273 0.54046 0.84224 0.0
C5100 C 0.9653 0.53925 0.88375 0.0
C5101 C 0.96007 0.54482 0.90179 0.0
C5102 C 0.98061 0.53176 0.88524 0.0
C5103 C 0.98636 0.52313 0.86766 0.0
C5104 C 0.97537 0.50846 0.85469 0.0
C5105 C 0.98083 0.50038 0.8381 0.0
C5106 C 0.99731 0.50675 0.83442 0.0
C5107 C 1.00839 0.52118 0.84735 0.0
C5108 C 1.00298 0.52932 0.86395 0.0
C5109 C 1.00091 0.52368 0.97329 0.0
C5110 C 0.01808 0.53343 0.97786 0.0
C5111 C 0.99022 0.52497 0.95555 0.0
C5112 C 0.99632 0.53569 0.94131 0.0
C5113 C 0.01352 0.54513 0.94581 0.0
C5114 C 0.02402 0.54422 0.96364 0.0
C5115 C 0.98518 0.53696 0.92177 0.0
C5116 C 0.99033 0.53122 0.90384 0.0
C5117 C 0.96956 0.5437 0.92044 0.0
C5118 C 0.96294 0.55019 0.93834 0.0
C5119 C 0.97309 0.56417 0.95285 0.0
C5120 C 0.96669 0.57022 0.96962 0.0
C5121 C 0.95008 0.56255 0.97196 0.0
C5122 C 0.93985 0.54879 0.95756 0.0
C5123 C 0.94621 0.54263 0.9408 0.0
H5124 H 0.94509 0.56732 0.98488 0.0
H5125 H 1.00151 0.50048 0.82157 0.0
H5126 H 0.29371 0.17109 0.57086 0.0
H5127 H 0.29812 0.18447 0.60569 0.0
H5128 H 0.24843 0.19933 0.5975 0.0
H5129 H 0.24426 0.18661 0.56306 0.0
H5130 H 0.26992 0.22816 0.61589 0.0
H5131 H 0.25827 0.16274 0.62352 0.0
H5132 H 0.26244 0.12994 0.61985 0.0
H5133 H 0.31354 0.14774 0.65106 0.0
H5134 H 0.30975 0.1807 0.6547 0.0
H5135 H 0.25796 0.25111 0.71477 0.0
H5136 H 0.25547 0.23518 0.68127 0.0
H5137 H 0.30839 0.23067 0.69202 0.0
H5138 H 0.31107 0.24668 0.72533 0.0
H5139 H 0.28721 0.19708 0.67289 0.0
H5140 H 0.29788 0.2626 0.66593 0.0
H5141 H 0.29291 0.29508 0.66994 0.0
H5142 H 0.24238 0.27637 0.63741 0.0
H5143 H 0.24696 0.24371 0.63345 0.0
C5144 C 0.28366 0.17694 0.57664 0.0
C5145 C 0.26871 0.17792 0.56415 0.0
C5146 C 0.28617 0.18461 0.59655 0.0
C5147 C 0.27363 0.19307 0.60435 0.0
C5148 C 0.25842 0.19318 0.59195 0.0
C5149 C 0.25603 0.1858 0.5722 0.0
C5150 C 0.27637 0.20271 0.62501 0.0
C5151 C 0.2735 0.2212 0.6283 0.0
C5152 C 0.28148 0.19398 0.64137 0.0
C5153 C 0.28379 0.1742 0.63918 0.0
C5154 C 0.27045 0.15968 0.62946 0.0
C5155 C 0.27273 0.14106 0.62741 0.0
C5156 C 0.28826 0.13677 0.63516 0.0
C5157 C 0.30153 0.15109 0.64503 0.0
C5158 C 0.29932 0.16974 0.6471 0.0
C5159 C 0.26909 0.24681 0.71 0.0
C5160 C 0.28473 0.25032 0.72281 0.0
C5161 C 0.26765 0.23768 0.69083 0.0
C5162 C 0.28176 0.23172 0.68407 0.0
C5163 C 0.29732 0.23507 0.69687 0.0
C5164 C 0.29883 0.24437 0.71592 0.0
C5165 C 0.28039 0.22226 0.6636 0.0
C5166 C 0.28362 0.20394 0.6604 0.0
C5167 C 0.27547 0.23105 0.64727 0.0
C5168 C 0.2727 0.25068 0.64956 0.0
C5169 C 0.28565 0.26538 0.65977 0.0
C5170 C 0.28292 0.28383 0.66201 0.0
C5171 C 0.26733 0.28778 0.65398 0.0
C5172 C 0.25445 0.27329 0.64365 0.0
C5173 C 0.25711 0.25481 0.64139 0.0
H5174 H 0.26523 0.30207 0.65573 0.0
H5175 H 0.29 0.12234 0.63357 0.0
H5176 H 0.60335 0.57314 0.24908 0.0
H5177 H 0.59185 0.56759 0.21436 0.0
H5178 H 0.61817 0.52143 0.20623 0.0
H5179 H 0.63029 0.52736 0.24113 0.0
H5180 H 0.61976 0.54001 0.17634 0.0
H5181 H 0.57439 0.5143 0.20817 0.0
H5182 H 0.55464 0.51344 0.23224 0.0
H5183 H 0.5344 0.5587 0.20976 0.0
H5184 H 0.55421 0.56001 0.18571 0.0
H5185 H 0.56538 0.50207 0.08388 0.0
H5186 H 0.57879 0.50574 0.11817 0.0
H5187 H 0.5663 0.56069 0.12804 0.0
H5188 H 0.5532 0.55736 0.09369 0.0
H5189 H 0.55749 0.53515 0.15654 0.0
H5190 H 0.60454 0.56035 0.12489 0.0
H5191 H 0.6236 0.55887 0.10019 0.0
H5192 H 0.63969 0.51107 0.12194 0.0
H5193 H 0.6205 0.51209 0.14657 0.0
C5194 C 0.60674 0.56178 0.23997 0.0
C5195 C 0.61763 0.55057 0.248 0.0
C5196 C 0.60007 0.55857 0.22005 0.0
C5197 C 0.60376 0.54378 0.20764 0.0
C5198 C 0.61502 0.53285 0.21548 0.0
C5199 C 0.62192 0.53624 0.23545 0.0
C5200 C 0.5957 0.53979 0.18661 0.0
C5201 C 0.60611 0.53866 0.17207 0.0
C5202 C 0.57787 0.53812 0.18085 0.0
C5203 C 0.56589 0.53735 0.19525 0.0
C5204 C 0.56581 0.52416 0.20845 0.0
C5205 C 0.55459 0.52358 0.22207 0.0
C5206 C 0.5433 0.53604 0.22256 0.0
C5207 C 0.54317 0.54907 0.20938 0.0
C5208 C 0.55438 0.54972 0.19573 0.0
C5209 C 0.56549 0.51496 0.09332 0.0
C5210 C 0.55823 0.52945 0.08601 0.0
C5211 C 0.5732 0.51704 0.11291 0.0
C5212 C 0.57357 0.5335 0.12563 0.0
C5213 C 0.56616 0.54788 0.11846 0.0
C5214 C 0.55873 0.54597 0.0988 0.0
C5215 C 0.58158 0.53573 0.14647 0.0
C5216 C 0.57113 0.53644 0.16092 0.0
C5217 C 0.59927 0.53668 0.15209 0.0
C5218 C 0.61095 0.53617 0.13743 0.0
C5219 C 0.61203 0.54942 0.12429 0.0
C5220 C 0.62287 0.54868 0.11032 0.0
C5221 C 0.63282 0.53485 0.10946 0.0
C5222 C 0.63197 0.52176 0.1226 0.0
C5223 C 0.62111 0.52242 0.13658 0.0
H5224 H 0.64121 0.5343 0.09864 0.0
H5225 H 0.53462 0.53556 0.23312 0.0
H5226 H 0.21707 0.83588 0.9527 0.0
H5227 H 0.22183 0.82444 0.91996 0.0
H5228 H 0.25833 0.87558 0.92068 0.0
H5229 H 0.25223 0.88768 0.95252 0.0
H5230 H 0.24745 0.86318 0.88569 0.0
H5231 H 0.27139 0.83409 0.93812 0.0
H5232 H 0.27237 0.81708 0.96676 0.0
H5233 H 0.23515 0.77089 0.93393 0.0
H5234 H 0.23424 0.78746 0.90497 0.0
H5235 H 0.30108 0.7987 0.83945 0.0
H5236 H 0.29273 0.82019 0.86445 0.0
H5237 H 0.23982 0.80056 0.83914 0.0
H5238 H 0.24807 0.77794 0.81511 0.0
H5239 H 0.2614 0.79971 0.88594 0.0
H5240 H 0.23648 0.86087 0.8495 0.0
H5241 H 0.24491 0.88398 0.82779 0.0
H5242 H 0.29515 0.87144 0.83341 0.0
H5243 H 0.28766 0.8498 0.8567 0.0
C5244 C 0.22538 0.84502 0.94533 0.0
C5245 C 0.23435 0.86256 0.95498 0.0
C5246 C 0.22837 0.83837 0.92682 0.0
C5247 C 0.24107 0.84876 0.91828 0.0
C5248 C 0.24863 0.86717 0.92703 0.0
C5249 C 0.24508 0.87415 0.9452 0.0
C5250 C 0.2478 0.83968 0.90166 0.0
C5251 C 0.25037 0.84924 0.88562 0.0
C5252 C 0.25246 0.82188 0.90203 0.0
C5253 C 0.25259 0.81209 0.91951 0.0
C5254 C 0.26333 0.82037 0.93709 0.0
C5255 C 0.26391 0.81079 0.95334 0.0
C5256 C 0.25369 0.79302 0.95223 0.0
C5257 C 0.243 0.7847 0.93479 0.0
C5258 C 0.24251 0.79412 0.91843 0.0
C5259 C 0.2877 0.79914 0.83921 0.0
C5260 C 0.27515 0.78669 0.82566 0.0
C5261 C 0.28298 0.8116 0.8532 0.0
C5262 C 0.26573 0.81249 0.85304 0.0
C5263 C 0.25322 0.80045 0.83905 0.0
C5264 C 0.2579 0.78742 0.82557 0.0
C5265 C 0.26051 0.82296 0.86974 0.0
C5266 C 0.25824 0.81355 0.88584 0.0
C5267 C 0.25709 0.8413 0.86977 0.0
C5268 C 0.26125 0.85299 0.85433 0.0
C5269 C 0.24929 0.86286 0.84597 0.0
C5270 C 0.25396 0.87592 0.83355 0.0
C5271 C 0.27043 0.87891 0.82893 0.0
C5272 C 0.28232 0.86895 0.83682 0.0
C5273 C 0.27787 0.85629 0.84971 0.0
H5274 H 0.27404 0.88912 0.81942 0.0
H5275 H 0.25414 0.78566 0.96485 0.0
H5276 H 0.91458 0.5367 0.70083 0.0
H5277 H 0.92678 0.53513 0.67012 0.0
H5278 H 0.97739 0.54741 0.70348 0.0
H5279 H 0.96541 0.54958 0.73356 0.0
H5280 H 0.98186 0.56281 0.67468 0.0
H5281 H 0.95158 0.49973 0.67533 0.0
H5282 H 0.9264 0.47515 0.67566 0.0
H5283 H 0.90158 0.48955 0.62257 0.0
H5284 H 0.92656 0.51435 0.62204 0.0
H5285 H 0.03033 0.53191 0.60235 0.0
H5286 H 0.01475 0.53511 0.62988 0.0
H5287 H 0.96768 0.5272 0.58988 0.0
H5288 H 0.98333 0.52363 0.5621 0.0
H5289 H 0.95972 0.51085 0.62015 0.0
H5290 H 0.99165 0.57171 0.61797 0.0
H5291 H 0.01752 0.59492 0.61708 0.0
H5292 H 0.0393 0.58533 0.67382 0.0
H5293 H 0.01389 0.56125 0.67465 0.0
C5294 C 0.92831 0.53956 0.7017 0.0
C5295 C 0.93875 0.54355 0.72035 0.0
C5296 C 0.93546 0.53826 0.68384 0.0
C5297 C 0.95342 0.54071 0.68364 0.0
C5298 C 0.96365 0.54534 0.70231 0.0
C5299 C 0.95659 0.54662 0.71991 0.0
C5300 C 0.96188 0.53852 0.6647 0.0
C5301 C 0.97696 0.55119 0.66302 0.0
C5302 C 0.95583 0.52387 0.64848 0.0
C5303 C 0.94084 0.50902 0.64877 0.0
C5304 C 0.9407 0.49772 0.6638 0.0
C5305 C 0.92648 0.48374 0.66401 0.0
C5306 C 0.91237 0.48083 0.64918 0.0
C5307 C 0.91249 0.49185 0.63407 0.0
C5308 C 0.92668 0.50586 0.6338 0.0
C5309 C 0.01664 0.5308 0.59915 0.0
C5310 C 1.00845 0.52751 0.57938 0.0
C5311 C 1.00757 0.53281 0.61525 0.0
C5312 C 0.98965 0.53186 0.61272 0.0
C5313 C 0.98135 0.52818 0.59295 0.0
C5314 C 0.99047 0.52615 0.57677 0.0
C5315 C 0.97989 0.53487 0.63046 0.0
C5316 C 0.9646 0.52243 0.63187 0.0
C5317 C 0.98577 0.54971 0.64651 0.0
C5318 C 1.00091 0.56448 0.64627 0.0
C5319 C 1.002 0.5744 0.6302 0.0
C5320 C 0.01661 0.58771 0.62968 0.0
C5321 C 0.03003 0.59168 0.6454 0.0
C5322 C 0.0289 0.58224 0.66164 0.0
C5323 C 0.01443 0.56867 0.66209 0.0
H5324 H 0.04129 0.60208 0.64499 0.0
H5325 H 0.90137 0.47 0.64937 0.0
H5326 H 0.27208 0.19894 0.47669 0.0
H5327 H 0.27363 0.21609 0.44888 0.0
H5328 H 0.26633 0.16385 0.41018 0.0
H5329 H 0.2656 0.14655 0.43842 0.0
H5330 H 0.28859 0.18761 0.39816 0.0
H5331 H 0.23381 0.19202 0.41429 0.0
H5332 H 0.21267 0.19833 0.43535 0.0
H5333 H 0.23787 0.25621 0.44916 0.0
H5334 H 0.2593 0.2502 0.42838 0.0
H5335 H 0.27481 0.23298 0.31351 0.0
H5336 H 0.27004 0.21342 0.33925 0.0
H5337 H 0.28323 0.26292 0.38255 0.0
H5338 H 0.28773 0.28261 0.35673 0.0
H5339 H 0.25643 0.239 0.39054 0.0
H5340 H 0.31184 0.23298 0.3741 0.0
H5341 H 0.33114 0.22594 0.3509 0.0
H5342 H 0.30237 0.16956 0.33548 0.0
H5343 H 0.28276 0.17634 0.35841 0.0
C5344 C 0.27066 0.191 0.46227 0.0
C5345 C 0.26855 0.17127 0.45988 0.0
C5346 C 0.27146 0.2009 0.44623 0.0
C5347 C 0.26971 0.19142 0.42711 0.0
C5348 C 0.26764 0.17165 0.42465 0.0
C5349 C 0.26712 0.1617 0.44083 0.0
C5350 C 0.27042 0.20226 0.40995 0.0
C5351 C 0.28131 0.19862 0.3964 0.0
C5352 C 0.26115 0.21691 0.40745 0.0
C5353 C 0.24825 0.22061 0.4199 0.0
C5354 C 0.23491 0.20607 0.42192 0.0
C5355 C 0.22287 0.20959 0.43379 0.0
C5356 C 0.22395 0.22765 0.44362 0.0
C5357 C 0.23706 0.24223 0.44155 0.0
C5358 C 0.24914 0.23878 0.42971 0.0
C5359 C 0.27655 0.23975 0.3285 0.0
C5360 C 0.28171 0.25941 0.33302 0.0
C5361 C 0.27394 0.22849 0.34327 0.0
C5362 C 0.27655 0.23655 0.36304 0.0
C5363 C 0.28118 0.25626 0.3675 0.0
C5364 C 0.28377 0.26754 0.3527 0.0
C5365 C 0.27473 0.22449 0.37905 0.0
C5366 C 0.26363 0.22792 0.39234 0.0
C5367 C 0.2836 0.2095 0.38111 0.0
C5368 C 0.29575 0.20522 0.36786 0.0
C5369 C 0.3096 0.2191 0.36572 0.0
C5370 C 0.32059 0.21516 0.35261 0.0
C5371 C 0.31795 0.19733 0.34168 0.0
C5372 C 0.30439 0.18337 0.34394 0.0
C5373 C 0.29334 0.18725 0.35701 0.0
H5374 H 0.32643 0.19432 0.33148 0.0
H5375 H 0.21462 0.23035 0.45281 0.0
H5376 H 0.34523 0.61339 0.54422 0.0
H5377 H 0.36581 0.59379 0.53734 0.0
H5378 H 0.40617 0.64298 0.54846 0.0
H5379 H 0.38541 0.66277 0.55449 0.0
H5380 H 0.40678 0.62444 0.51518 0.0
H5381 H 0.4039 0.60747 0.57868 0.0
H5382 H 0.3904 0.5969 0.60619 0.0
H5383 H 0.36714 0.54415 0.57093 0.0
H5384 H 0.38031 0.55449 0.5431 0.0
H5385 H 0.47181 0.56984 0.50846 0.0
H5386 H 0.45335 0.59111 0.51811 0.0
H5387 H 0.40928 0.54653 0.49967 0.0
H5388 H 0.42769 0.52507 0.48974 0.0
H5389 H 0.41206 0.56354 0.53795 0.0
H5390 H 0.4162 0.58211 0.47429 0.0
H5391 H 0.43149 0.59348 0.44835 0.0
H5392 H 0.45454 0.64475 0.48634 0.0
H5393 H 0.43961 0.63357 0.51263 0.0
C5394 C 0.35856 0.61997 0.54565 0.0
C5395 C 0.36376 0.63956 0.5497 0.0
C5396 C 0.37033 0.60874 0.54181 0.0
C5397 C 0.38754 0.61693 0.54246 0.0
C5398 C 0.39292 0.63641 0.54779 0.0
C5399 C 0.38109 0.64768 0.55127 0.0
C5400 C 0.39943 0.60545 0.53544 0.0
C5401 C 0.4082 0.6113 0.52046 0.0
C5402 C 0.40095 0.58813 0.54202 0.0
C5403 C 0.393 0.58183 0.55874 0.0
C5404 C 0.3958 0.59367 0.57673 0.0
C5405 C 0.38823 0.58771 0.5924 0.0
C5406 C 0.37789 0.56988 0.5903 0.0
C5407 C 0.37514 0.55796 0.57254 0.0
C5408 C 0.38268 0.56386 0.55682 0.0
C5409 C 0.45815 0.56469 0.50586 0.0
C5410 C 0.45115 0.54578 0.49836 0.0
C5411 C 0.44764 0.57685 0.51148 0.0
C5412 C 0.43002 0.57033 0.50959 0.0
C5413 C 0.4229 0.55172 0.50129 0.0
C5414 C 0.43339 0.53953 0.49563 0.0
C5415 C 0.4192 0.5825 0.51767 0.0
C5416 C 0.41067 0.57676 0.53284 0.0
C5417 C 0.41814 0.60007 0.5115 0.0
C5418 C 0.42694 0.60688 0.49554 0.0
C5419 C 0.42465 0.59573 0.47719 0.0
C5420 C 0.43323 0.60216 0.4624 0.0
C5421 C 0.44403 0.61979 0.46572 0.0
C5422 C 0.44619 0.63109 0.48379 0.0
C5423 C 0.43765 0.62471 0.49863 0.0
H5424 H 0.45069 0.62473 0.45426 0.0
H5425 H 0.37204 0.56529 0.60245 0.0
H5426 H 0.87567 0.89512 0.54289 0.0
H5427 H 0.90296 0.91518 0.54266 0.0
H5428 H 0.8808 0.96428 0.55269 0.0
H5429 H 0.8529 0.94398 0.55271 0.0
H5430 H 0.90174 0.96799 0.52488 0.0
H5431 H 0.90756 0.95137 0.58937 0.0
H5432 H 0.90631 0.93021 0.61447 0.0
H5433 H 0.94266 0.90198 0.59004 0.0
H5434 H 0.94395 0.92281 0.5646 0.0
H5435 H 0.98145 0.03155 0.54787 0.0
H5436 H 0.95378 0.01246 0.54944 0.0
H5437 H 0.97388 0.96212 0.53789 0.0
H5438 H 1.00183 0.9814 0.53625 0.0
H5439 H 0.95388 0.95969 0.56699 0.0
H5440 H 0.94789 0.97599 0.50237 0.0
H5441 H 0.94955 0.99736 0.47747 0.0
H5442 H 0.91371 0.02622 0.50214 0.0
H5443 H 0.91205 1.00522 0.52742 0.0
C5444 C 0.87641 0.91018 0.54515 0.0
C5445 C 0.86183 0.91779 0.54791 0.0
C5446 C 0.89223 0.92172 0.5451 0.0
C5447 C 0.89422 0.94137 0.54791 0.0
C5448 C 0.87973 0.94916 0.55056 0.0
C5449 C 0.86375 0.93753 0.55068 0.0
C5450 C 0.91142 0.95344 0.54777 0.0
C5451 C 0.91306 0.96639 0.53435 0.0
C5452 C 0.92646 0.9511 0.55968 0.0
C5453 C 0.92573 0.93855 0.57497 0.0
C5454 C 0.91519 0.94056 0.58925 0.0
C5455 C 0.91449 0.92863 0.60356 0.0
C5456 C 0.92437 0.91473 0.60382 0.0
C5457 C 0.935 0.91274 0.5898 0.0
C5458 C 0.93573 0.92462 0.57545 0.0
C5459 C 0.98008 0.0164 0.54566 0.0
C5460 C 0.994 1.00806 0.54188 0.0
C5461 C 0.96412 1.00546 0.54649 0.0
C5462 C 0.96149 0.98574 0.54355 0.0
C5463 C 0.97546 0.97729 0.54015 0.0
C5464 C 0.9915 0.98832 0.53919 0.0
C5465 C 0.94418 0.97419 0.54409 0.0
C5466 C 0.94254 0.96132 0.55756 0.0
C5467 C 0.92916 0.9766 0.53223 0.0
C5468 C 0.92997 0.98913 0.51692 0.0
C5469 C 0.94046 0.98698 0.50259 0.0
C5470 C 0.94139 0.99902 0.48839 0.0
C5471 C 0.93177 0.01316 0.48825 0.0
C5472 C 0.92117 0.01527 0.50228 0.0
C5473 C 0.92022 1.00329 0.51654 0.0
H5474 H 0.93251 0.02247 0.47725 0.0
H5475 H 0.92381 0.90551 0.61492 0.0
H5476 H 0.88673 0.03636 0.24058 0.0
H5477 H 0.87227 0.06302 0.24047 0.0
H5478 H 0.91997 0.10084 0.26389 0.0
H5479 H 0.93449 0.07408 0.26445 0.0
H5480 H 0.89578 0.10914 0.28341 0.0
H5481 H 0.90047 0.09824 0.21565 0.0
H5482 H 0.89768 0.07963 0.18316 0.0
H5483 H 0.84334 0.06577 0.1804 0.0
H5484 H 0.84582 0.08409 0.21299 0.0
H5485 H 0.85899 0.19028 0.27319 0.0
H5486 H 0.87689 0.16668 0.27003 0.0
H5487 H 0.83222 0.12418 0.24641 0.0
H5488 H 0.81436 0.14778 0.24866 0.0
H5489 H 0.85695 0.12011 0.22617 0.0
H5490 H 0.85253 0.12888 0.2948 0.0
H5491 H 0.85518 0.14722 0.32742 0.0
H5492 H 0.90899 0.16494 0.32845 0.0
H5493 H 0.90662 0.14688 0.29572 0.0
C5494 C 0.89421 0.05036 0.24547 0.0
C5495 C 0.91179 0.05308 0.25248 0.0
C5496 C 0.88592 0.06564 0.24534 0.0
C5497 C 0.89502 0.08403 0.25199 0.0
C5498 C 0.91265 0.08681 0.25867 0.0
C5499 C 0.92095 0.0715 0.25889 0.0
C5500 C 0.88596 0.10017 0.25283 0.0
C5501 C 0.88754 0.11174 0.27078 0.0
C5502 C 0.8749 0.10339 0.2365 0.0
C5503 C 0.87336 0.09243 0.21684 0.0
C5504 C 0.88794 0.09112 0.20817 0.0
C5505 C 0.88641 0.08064 0.18973 0.0
C5506 C 0.87035 0.0715 0.17974 0.0
C5507 C 0.85578 0.07285 0.18816 0.0
C5508 C 0.85724 0.0833 0.20661 0.0
C5509 C 0.85296 0.17595 0.26716 0.0
C5510 C 0.83516 0.17096 0.26133 0.0
C5511 C 0.86323 0.16241 0.26554 0.0
C5512 C 0.85591 0.14355 0.25822 0.0
C5513 C 0.83819 0.1386 0.25218 0.0
C5514 C 0.82794 0.15211 0.2537 0.0
C5515 C 0.8666 0.12889 0.2568 0.0
C5516 C 0.86532 0.1176 0.23874 0.0
C5517 C 0.87792 0.12591 0.27303 0.0
C5518 C 0.87937 0.1367 0.29274 0.0
C5519 C 0.8649 0.1368 0.30193 0.0
C5520 C 0.86636 0.14713 0.32044 0.0
C5521 C 0.88223 0.15729 0.32998 0.0
C5522 C 0.8967 0.15709 0.32104 0.0
C5523 C 0.89531 0.1468 0.30251 0.0
H5524 H 0.88333 0.16527 0.34431 0.0
H5525 H 0.8692 0.06339 0.16546 0.0
H5526 H 0.75817 0.17988 0.06091 0.0
H5527 H 0.73248 0.15652 0.06133 0.0
H5528 H 0.76107 0.11216 0.05442 0.0
H5529 H 0.78679 0.13529 0.05455 0.0
H5530 H 0.7148 0.12836 0.03519 0.0
H5531 H 0.74645 0.07699 0.07811 0.0
H5532 H 0.77155 0.07788 0.10302 0.0
H5533 H 0.77071 0.13506 0.12492 0.0
H5534 H 0.74554 0.13444 0.10029 0.0
H5535 H 0.65271 0.04561 0.02933 0.0
H5536 H 0.6805 0.06531 0.02869 0.0
H5537 H 0.6839 0.08679 0.08964 0.0
H5538 H 0.65626 0.06732 0.09039 0.0
H5539 H 0.71431 0.08178 0.08178 0.0
H5540 H 0.66881 0.11021 0.05424 0.0
H5541 H 0.64308 0.11171 0.0314 0.0
H5542 H 0.67005 0.10472 0.9829 0.0
H5543 H 0.69588 0.10286 1.00545 0.0
C5544 C 0.75901 0.16516 0.05964 0.0
C5545 C 0.77459 0.15948 0.05797 0.0
C5546 C 0.74431 0.15183 0.05977 0.0
C5547 C 0.74493 0.13263 0.05816 0.0
C5548 C 0.76038 0.12692 0.0561 0.0
C5549 C 0.77508 0.14021 0.05617 0.0
C5550 C 0.72946 0.11853 0.0587 0.0
C5551 C 0.71469 0.11815 0.04535 0.0
C5552 C 0.7293 0.10533 0.07208 0.0
C5553 C 0.74421 0.10571 0.08725 0.0
C5554 C 0.75158 0.08972 0.08831 0.0
C5555 C 0.76585 0.09019 0.10236 0.0
C5556 C 0.77277 0.10654 0.1155 0.0
C5557 C 0.7654 0.12243 0.11468 0.0
C5558 C 0.75115 0.12204 0.10067 0.0
C5559 C 0.6595 0.05437 0.04264 0.0
C5560 C 0.65225 0.05499 0.05988 0.0
C5561 C 0.67535 0.06559 0.04225 0.0
C5562 C 0.6841 0.07771 0.05905 0.0
C5563 C 0.67736 0.07752 0.07653 0.0
C5564 C 0.66157 0.0663 0.07695 0.0
C5565 C 0.69966 0.09156 0.05823 0.0
C5566 C 0.71446 0.09188 0.07151 0.0
C5567 C 0.69972 0.105 0.0451 0.0
C5568 C 0.68421 0.10614 0.03152 0.0
C5569 C 0.66921 0.10882 0.03869 0.0
C5570 C 0.65461 0.10976 0.0258 0.0
C5571 C 0.65491 0.10825 1.0057 0.0
C5572 C 0.66983 0.10584 0.99846 0.0
C5573 C 0.68445 0.10484 0.0113 0.0
H5574 H 0.6436 0.10899 0.99574 0.0
H5575 H 0.78383 0.10689 0.12634 0.0
H5576 H 0.16477 0.43619 0.29407 0.0
H5577 H 0.17853 0.40873 0.29282 0.0
H5578 H 0.22628 0.44426 0.28929 0.0
H5579 H 0.2123 0.47155 0.2898 0.0
H5580 H 0.22889 0.41458 0.26985 0.0
H5581 H 0.21176 0.4188 0.33315 0.0
H5582 H 0.19212 0.41991 0.35726 0.0
H5583 H 0.1627 0.36623 0.32973 0.0
H5584 H 0.18206 0.36491 0.3053 0.0
H5585 H 0.28149 0.34612 0.29276 0.0
H5586 H 0.26651 0.37261 0.29323 0.0
H5587 H 0.21848 0.33418 0.28656 0.0
H5588 H 0.23351 0.30754 0.28588 0.0
H5589 H 0.21567 0.36454 0.31084 0.0
H5590 H 0.23357 0.35995 0.24843 0.0
H5591 H 0.25392 0.35834 0.22521 0.0
H5592 H 0.28248 0.41267 0.25191 0.0
H5593 H 0.26244 0.41448 0.27551 0.0
C5594 C 0.17822 0.43835 0.29302 0.0
C5595 C 0.18706 0.4568 0.29209 0.0
C5596 C 0.18637 0.4223 0.29253 0.0
C5597 C 0.20407 0.42351 0.29141 0.0
C5598 C 0.2128 0.44198 0.29021 0.0
C5599 C 0.20463 0.45799 0.29057 0.0
C5600 C 0.21334 0.40602 0.29125 0.0
C5601 C 0.22598 0.40396 0.27919 0.0
C5602 C 0.20997 0.39105 0.30275 0.0
C5603 C 0.19823 0.39187 0.31726 0.0
C5604 C 0.20102 0.40731 0.33215 0.0
C5605 C 0.18995 0.40796 0.34588 0.0
C5606 C 0.17614 0.39318 0.34498 0.0
C5607 C 0.17338 0.37769 0.33038 0.0
C5608 C 0.1844 0.37698 0.31659 0.0
C5609 C 0.26772 0.34306 0.29139 0.0
C5610 C 0.25911 0.324 0.2893 0.0
C5611 C 0.25894 0.35856 0.29153 0.0
C5612 C 0.24087 0.35623 0.28973 0.0
C5613 C 0.23226 0.33719 0.28799 0.0
C5614 C 0.24104 0.32162 0.28756 0.0
C5615 C 0.23123 0.37332 0.28962 0.0
C5616 C 0.21855 0.37525 0.30158 0.0
C5617 C 0.23461 0.3882 0.27811 0.0
C5618 C 0.2466 0.38727 0.26387 0.0
C5619 C 0.24426 0.3715 0.24944 0.0
C5620 C 0.25573 0.37055 0.2362 0.0
C5621 C 0.26951 0.38537 0.23712 0.0
C5622 C 0.27182 0.40119 0.25124 0.0
C5623 C 0.2604 0.40219 0.26455 0.0
H5624 H 0.27838 0.38461 0.22686 0.0
H5625 H 0.16759 0.39371 0.35564 0.0
H5626 H 0.24772 0.39592 0.05591 0.0
H5627 H 0.22219 0.40978 0.05425 0.0
H5628 H 0.25232 0.4632 0.04818 0.0
H5629 H 0.27808 0.44956 0.05124 0.0
H5630 H 0.23024 0.47095 0.06767 0.0
H5631 H 0.22406 0.42901 0.00789 0.0
H5632 H 0.22281 0.39891 0.98717 0.0
H5633 H 0.18035 0.37325 0.01229 0.0
H5634 H 0.18148 0.40315 0.03333 0.0
H5635 H 0.16053 0.50972 0.02624 0.0
H5636 H 0.18595 0.49589 0.03133 0.0
H5637 H 0.15625 0.44719 0.04844 0.0
H5638 H 0.13057 0.46081 0.04296 0.0
H5639 H 0.17757 0.43699 0.02375 0.0
H5640 H 0.18383 0.4811 0.08244 0.0
H5641 H 0.18528 0.51228 0.10112 0.0
H5642 H 0.22813 0.53517 0.07502 0.0
H5643 H 0.2268 0.50417 0.05598 0.0
C5644 C 0.24894 0.41069 0.05444 0.0
C5645 C 0.265 0.42159 0.0537 0.0
C5646 C 0.23422 0.41861 0.05323 0.0
C5647 C 0.23495 0.43754 0.05041 0.0
C5648 C 0.25114 0.44857 0.05022 0.0
C5649 C 0.26596 0.44075 0.05199 0.0
C5650 C 0.21895 0.44577 0.04758 0.0
C5651 C 0.21886 0.46353 0.05782 0.0
C5652 C 0.20373 0.43623 0.03501 0.0
C5653 C 0.20297 0.41827 0.02232 0.0
C5654 C 0.21453 0.41692 0.00907 0.0
C5655 C 0.21383 0.3999 0.99727 0.0
C5656 C 0.20153 0.38417 0.99845 0.0
C5657 C 0.18988 0.38544 0.01141 0.0
C5658 C 0.19053 0.40242 0.02327 0.0
C5659 C 0.15928 0.496 0.03095 0.0
C5660 C 0.1433 0.48645 0.03411 0.0
C5661 C 0.17397 0.48815 0.03407 0.0
C5662 C 0.17323 0.4705 0.0405 0.0
C5663 C 0.15729 0.46084 0.04355 0.0
C5664 C 0.14258 0.46874 0.04054 0.0
C5665 C 0.18898 0.46207 0.04376 0.0
C5666 C 0.189 0.44431 0.03359 0.0
C5667 C 0.20421 0.47176 0.05608 0.0
C5668 C 0.20513 0.49035 0.06767 0.0
C5669 C 0.19349 0.49281 0.08059 0.0
C5670 C 0.1943 0.51045 0.09126 0.0
C5671 C 0.20676 0.52571 0.08922 0.0
C5672 C 0.21848 0.52334 0.07656 0.0
C5673 C 0.21771 0.50574 0.06585 0.0
H5674 H 0.20736 0.53935 0.09749 0.0
H5675 H 0.20102 0.371 0.9893 0.0
H5676 H 0.8907 0.96503 0.25262 0.0
H5677 H 0.86821 0.93774 0.25248 0.0
H5678 H 0.90617 0.90564 0.27037 0.0
H5679 H 0.92875 0.93276 0.27039 0.0
H5680 H 0.88178 0.88475 0.24254 0.0
H5681 H 0.88353 0.92415 0.30305 0.0
H5682 H 0.88286 0.95347 0.32406 0.0
H5683 H 0.83229 0.95319 0.29511 0.0
H5684 H 0.83276 0.92399 0.27372 0.0
H5685 H 0.82727 0.8212 0.29479 0.0
H5686 H 0.84828 0.8484 0.29048 0.0
H5687 H 0.81498 0.85685 0.23986 0.0
H5688 H 0.79423 0.82894 0.24346 0.0
H5689 H 0.83604 0.88942 0.28272 0.0
H5690 H 0.83677 0.85146 0.21924 0.0
H5691 H 0.83871 0.82224 0.19885 0.0
H5692 H 0.88567 0.82005 0.23505 0.0
H5693 H 0.88372 0.849 0.25595 0.0
C5694 C 0.89432 0.95215 0.25643 0.0
C5695 C 0.91162 0.9512 0.26156 0.0
C5696 C 0.88139 0.93656 0.25644 0.0
C5697 C 0.88544 0.91964 0.26163 0.0
C5698 C 0.90269 0.91851 0.26633 0.0
C5699 C 0.91562 0.9341 0.26637 0.0
C5700 C 0.87173 0.90318 0.26238 0.0
C5701 C 0.87182 0.88584 0.25137 0.0
C5702 C 0.85859 0.90447 0.27377 0.0
C5703 C 0.85826 0.92199 0.28664 0.0
C5704 C 0.87232 0.93042 0.30105 0.0
C5705 C 0.87197 0.947 0.31305 0.0
C5706 C 0.85756 0.95522 0.31088 0.0
C5707 C 0.84345 0.94683 0.29675 0.0
C5708 C 0.84375 0.93026 0.28469 0.0
C5709 C 0.82458 0.82854 0.28245 0.0
C5710 C 0.80927 0.82261 0.26917 0.0
C5711 C 0.83654 0.84419 0.28011 0.0
C5712 C 0.83332 0.85445 0.26466 0.0
C5713 C 0.81786 0.8489 0.25166 0.0
C5714 C 0.80599 0.83301 0.25378 0.0
C5715 C 0.84601 0.87125 0.26264 0.0
C5716 C 0.84587 0.88853 0.27366 0.0
C5717 C 0.85911 0.86995 0.25131 0.0
C5718 C 0.85992 0.85215 0.23934 0.0
C5719 C 0.8473 0.84451 0.22308 0.0
C5720 C 0.84844 0.82806 0.21138 0.0
C5721 C 0.86227 0.81926 0.21568 0.0
C5722 C 0.87492 0.82683 0.23177 0.0
C5723 C 0.87378 0.84323 0.24358 0.0
H5724 H 0.86321 0.80664 0.20646 0.0
H5725 H 0.85731 0.96805 0.32019 0.0
H5726 H 0.70465 0.06447 0.82415 0.0
H5727 H 0.72203 0.0957 0.82292 0.0
H5728 H 0.68869 0.10084 0.77096 0.0
H5729 H 0.67124 0.07013 0.77249 0.0
H5730 H 0.72222 0.11415 0.76711 0.0
H5731 H 0.68677 0.12436 0.81632 0.0
H5732 H 0.6758 0.11964 0.84708 0.0
H5733 H 0.72644 0.13795 0.87941 0.0
H5734 H 0.73776 0.14251 0.8488 0.0
H5735 H 0.75025 0.2113 0.75922 0.0
H5736 H 0.73476 0.1799 0.76141 0.0
H5737 H 0.7573 0.1858 0.82204 0.0
H5738 H 0.77164 0.21793 0.82014 0.0
H5739 H 0.73038 0.16574 0.82222 0.0
H5740 H 0.76711 0.15475 0.77581 0.0
H5741 H 0.78036 0.15801 0.7462 0.0
H5742 H 0.7313 0.13935 0.71018 0.0
H5743 H 0.71773 0.13618 0.73959 0.0
C5744 C 0.70117 0.07205 0.81224 0.0
C5745 C 0.68649 0.06424 0.79822 0.0
C5746 C 0.7111 0.09021 0.81163 0.0
C5747 C 0.70692 0.10126 0.79684 0.0
C5748 C 0.69255 0.09309 0.78258 0.0
C5749 C 0.68249 0.07526 0.78344 0.0
C5750 C 0.71704 0.1212 0.79615 0.0
C5751 C 0.72383 0.12541 0.77918 0.0
C5752 C 0.71994 0.13628 0.81187 0.0
C5753 C 0.71313 0.13357 0.83025 0.0
C5754 C 0.69559 0.12722 0.82997 0.0
C5755 C 0.6893 0.1246 0.84738 0.0
C5756 C 0.70042 0.12844 0.86518 0.0
C5757 C 0.71785 0.13495 0.86561 0.0
C5758 C 0.7242 0.13755 0.84824 0.0
C5759 C 0.75203 0.20597 0.77306 0.0
C5760 C 0.76256 0.21758 0.78941 0.0
C5761 C 0.74319 0.18757 0.77431 0.0
C5762 C 0.74492 0.17931 0.79178 0.0
C5763 C 0.75539 0.19107 0.80818 0.0
C5764 C 0.76382 0.20973 0.80708 0.0
C5765 C 0.73575 0.15891 0.79307 0.0
C5766 C 0.72901 0.15457 0.81013 0.0
C5767 C 0.73331 0.14353 0.7776 0.0
C5768 C 0.7414 0.14542 0.7599 0.0
C5769 C 0.75914 0.15145 0.76157 0.0
C5770 C 0.76671 0.15327 0.74483 0.0
C5771 C 0.75667 0.14895 0.72633 0.0
C5772 C 0.73905 0.14273 0.72452 0.0
C5773 C 0.73142 0.1409 0.74122 0.0
H5774 H 0.76255 0.15037 0.71339 0.0
H5775 H 0.69553 0.12641 0.87864 0.0
loop_
_geom_bond_atom_site_label_1
_geom_bond_atom_site_label_2
_geom_bond_distance
_geom_bond_site_symmetry_2
_ccdc_geom_bond_type
Co0 O1 2.216 . S
Co0 O2 2.091 . S
Co0 O4 2.004 1_455 S
Co0 O10 2.021 . S
Co0 O12 2.137 . S
Co0 O13 2.244 . S
O1 Co0 2.216 . S
O1 C8 1.247 . S
O2 Co0 2.091 . S
O2 C8 1.261 . S
C3 O12 1.247 . S
C3 O13 1.272 . S
O4 Co0 2.004 1_655 S
O4 C9 1.259 . S
Co5 O6 2.061 . S
Co5 O11 2.052 . S
Co5 O13 2.135 1_655 S
O6 Co5 2.061 . S
O6 C9 1.235 . S
C7 O10 1.238 1_655 S
C7 O11 1.241 . S
C8 O1 1.247 . S
C8 O2 1.261 . S
C9 O4 1.259 . S
C9 O6 1.235 . S
O10 Co0 2.021 . S
O10 C7 1.238 1_455 S
O11 Co5 2.052 . S
O11 C7 1.241 . S
O12 Co0 2.137 . S
O12 C3 1.247 . S
O13 Co0 2.244 . S
O13 C3 1.272 . S
O13 Co5 2.135 1_455 S
Co14 O15 2.216 . S
Co14 O16 2.091 . S
Co14 O18 2.004 . S
Co14 O24 2.021 . S
Co14 O26 2.137 . S
Co14 O27 2.244 . S
O15 Co14 2.216 . S
O15 C22 1.247 . S
O16 Co14 2.091 . S
O16 C22 1.261 . S
C17 O26 1.247 . S
C17 O27 1.272 . S
O18 Co14 2.004 . S
O18 C23 1.259 . S
Co19 O20 2.061 . S
Co19 O25 2.052 . S
Co19 O27 2.135 . S
O20 Co19 2.061 . S
O20 C23 1.235 . S
C21 O24 1.238 . S
C21 O25 1.241 . S
C22 O15 1.247 . S
C22 O16 1.261 . S
C23 O18 1.259 . S
C23 O20 1.235 . S
O24 Co14 2.021 . S
O24 C21 1.238 . S
O25 Co19 2.052 . S
O25 C21 1.241 . S
O26 Co14 2.137 . S
O26 C17 1.247 . S
O27 Co14 2.244 . S
O27 C17 1.272 . S
O27 Co19 2.135 . S
Co28 O29 2.216 . S
Co28 O30 2.091 . S
Co28 O32 2.004 . S
Co28 O38 2.021 . S
Co28 O40 2.137 . S
Co28 O41 2.244 . S
O29 Co28 2.216 . S
O29 C36 1.247 . S
O30 Co28 2.091 . S
O30 C36 1.261 . S
C31 O40 1.247 . S
C31 O41 1.272 . S
O32 Co28 2.004 . S
O32 C37 1.259 . S
Co33 O34 2.061 . S
Co33 O39 2.052 . S
Co33 O41 2.135 . S
O34 Co33 2.061 . S
O34 C37 1.235 . S
C35 O38 1.238 . S
C35 O39 1.241 . S
C36 O29 1.247 . S
C36 O30 1.261 . S
C37 O32 1.259 . S
C37 O34 1.235 . S
O38 Co28 2.021 . S
O38 C35 1.238 . S
O39 Co33 2.052 . S
O39 C35 1.241 . S
O40 Co28 2.137 . S
O40 C31 1.247 . S
O41 Co28 2.244 . S
O41 C31 1.272 . S
O41 Co33 2.135 . S
Co42 O43 2.216 . S
Co42 O44 2.091 . S
Co42 O46 2.004 . S
Co42 O52 2.021 . S
Co42 O54 2.137 . S
Co42 O55 2.244 . S
O43 Co42 2.216 . S
O43 C50 1.247 . S
O44 Co42 2.091 . S
O44 C50 1.261 . S
C45 O54 1.247 . S
C45 O55 1.272 . S
O46 Co42 2.004 . S
O46 C51 1.259 . S
Co47 O48 2.061 . S
Co47 O53 2.052 . S
Co47 O55 2.135 . S
O48 Co47 2.061 . S
O48 C51 1.235 . S
C49 O52 1.238 . S
C49 O53 1.241 . S
C50 O43 1.247 . S
C50 O44 1.261 . S
C51 O46 1.259 . S
C51 O48 1.235 . S
O52 Co42 2.021 . S
O52 C49 1.238 . S
O53 Co47 2.052 . S
O53 C49 1.241 . S
O54 Co42 2.137 . S
O54 C45 1.247 . S
O55 Co42 2.244 . S
O55 C45 1.272 . S
O55 Co47 2.135 . S
Co56 O57 2.216 . S
Co56 O58 2.091 . S
Co56 O60 2.004 . S
Co56 O66 2.021 . S
Co56 O68 2.137 . S
Co56 O69 2.244 . S
O57 Co56 2.216 . S
O57 C64 1.247 . S
O58 Co56 2.091 . S
O58 C64 1.261 . S
C59 O68 1.247 . S
C59 O69 1.272 . S
O60 Co56 2.004 . S
O60 C65 1.259 . S
Co61 O62 2.061 . S
Co61 O67 2.052 . S
Co61 O69 2.135 . S
O62 Co61 2.061 . S
O62 C65 1.235 . S
C63 O66 1.238 . S
C63 O67 1.241 . S
C64 O57 1.247 . S
C64 O58 1.261 . S
C65 O60 1.259 . S
C65 O62 1.235 . S
O66 Co56 2.021 . S
O66 C63 1.238 . S
O67 Co61 2.052 . S
O67 C63 1.241 . S
O68 Co56 2.137 . S
O68 C59 1.247 . S
O69 Co56 2.244 . S
O69 C59 1.272 . S
O69 Co61 2.135 . S
Co70 O71 2.216 . S
Co70 O72 2.091 . S
Co70 O74 2.004 . S
Co70 O80 2.021 . S
Co70 O82 2.137 . S
Co70 O83 2.244 . S
O71 Co70 2.216 . S
O71 C78 1.247 . S
O72 Co70 2.091 . S
O72 C78 1.261 . S
C73 O82 1.247 . S
C73 O83 1.272 . S
O74 Co70 2.004 . S
O74 C79 1.259 . S
Co75 O76 2.061 . S
Co75 O81 2.052 . S
Co75 O83 2.135 . S
O76 Co75 2.061 . S
O76 C79 1.235 . S
C77 O80 1.238 . S
C77 O81 1.241 . S
C78 O71 1.247 . S
C78 O72 1.261 . S
C79 O74 1.259 . S
C79 O76 1.235 . S
O80 Co70 2.021 . S
O80 C77 1.238 . S
O81 Co75 2.052 . S
O81 C77 1.241 . S
O82 Co70 2.137 . S
O82 C73 1.247 . S
O83 Co70 2.244 . S
O83 C73 1.272 . S
O83 Co75 2.135 . S
Co84 O85 2.216 . S
Co84 O86 2.091 . S
Co84 O88 2.004 . S
Co84 O94 2.021 . S
Co84 O96 2.137 . S
Co84 O97 2.244 . S
O85 Co84 2.216 . S
O85 C92 1.247 . S
O86 Co84 2.091 . S
O86 C92 1.261 . S
C87 O96 1.247 . S
C87 O97 1.272 . S
O88 Co84 2.004 . S
O88 C93 1.259 . S
Co89 O90 2.061 . S
Co89 O95 2.052 . S
Co89 O97 2.135 . S
O90 Co89 2.061 . S
O90 C93 1.235 . S
C91 O94 1.238 . S
C91 O95 1.241 . S
C92 O85 1.247 . S
C92 O86 1.261 . S
C93 O88 1.259 . S
C93 O90 1.235 . S
O94 Co84 2.021 . S
O94 C91 1.238 . S
O95 Co89 2.052 . S
O95 C91 1.241 . S
O96 Co84 2.137 . S
O96 C87 1.247 . S
O97 Co84 2.244 . S
O97 C87 1.272 . S
O97 Co89 2.135 . S
Co98 O99 2.216 . S
Co98 O100 2.091 . S
Co98 O102 2.004 1_455 S
Co98 O108 2.021 . S
Co98 O110 2.137 . S
Co98 O111 2.244 . S
O99 Co98 2.216 . S
O99 C106 1.247 . S
O100 Co98 2.091 . S
O100 C106 1.261 . S
C101 O110 1.247 . S
C101 O111 1.272 . S
O102 Co98 2.004 1_655 S
O102 C107 1.259 . S
Co103 O104 2.061 . S
Co103 O109 2.052 1_655 S
Co103 O111 2.135 1_655 S
O104 Co103 2.061 . S
O104 C107 1.235 . S
C105 O108 1.238 . S
C105 O109 1.241 . S
C106 O99 1.247 . S
C106 O100 1.261 . S
C107 O102 1.259 . S
C107 O104 1.235 . S
O108 Co98 2.021 . S
O108 C105 1.238 . S
O109 Co103 2.052 1_455 S
O109 C105 1.241 . S
O110 Co98 2.137 . S
O110 C101 1.247 . S
O111 Co98 2.244 . S
O111 C101 1.272 . S
O111 Co103 2.135 1_455 S
Co112 O113 2.216 . S
Co112 O114 2.091 . S
Co112 O116 2.004 1_545 S
Co112 O122 2.021 . S
Co112 O124 2.137 . S
Co112 O125 2.244 . S
O113 Co112 2.216 . S
O113 C120 1.247 . S
O114 Co112 2.091 . S
O114 C120 1.261 . S
C115 O124 1.247 . S
C115 O125 1.272 . S
O116 Co112 2.004 1_565 S
O116 C121 1.259 . S
Co117 O118 2.061 . S
Co117 O123 2.052 1_565 S
Co117 O125 2.135 1_565 S
O118 Co117 2.061 . S
O118 C121 1.235 . S
C119 O122 1.238 . S
C119 O123 1.241 . S
C120 O113 1.247 . S
C120 O114 1.261 . S
C121 O116 1.259 . S
C121 O118 1.235 . S
O122 Co112 2.021 . S
O122 C119 1.238 . S
O123 Co117 2.052 1_545 S
O123 C119 1.241 . S
O124 Co112 2.137 . S
O124 C115 1.247 . S
O125 Co112 2.244 . S
O125 C115 1.272 . S
O125 Co117 2.135 1_545 S
Co126 O127 2.216 . S
Co126 O128 2.091 . S
Co126 O130 2.004 . S
Co126 O136 2.021 . S
Co126 O138 2.137 . S
Co126 O139 2.244 . S
O127 Co126 2.216 . S
O127 C134 1.247 . S
O128 Co126 2.091 . S
O128 C134 1.261 . S
C129 O138 1.247 . S
C129 O139 1.272 . S
O130 Co126 2.004 . S
O130 C135 1.259 . S
Co131 O132 2.061 . S
Co131 O137 2.052 . S
Co131 O139 2.135 . S
O132 Co131 2.061 . S
O132 C135 1.235 . S
C133 O136 1.238 . S
C133 O137 1.241 . S
C134 O127 1.247 . S
C134 O128 1.261 . S
C135 O130 1.259 . S
C135 O132 1.235 . S
O136 Co126 2.021 . S
O136 C133 1.238 . S
O137 Co131 2.052 . S
O137 C133 1.241 . S
O138 Co126 2.137 . S
O138 C129 1.247 . S
O139 Co126 2.244 . S
O139 C129 1.272 . S
O139 Co131 2.135 . S
Co140 O141 2.216 1_545 S
Co140 O142 2.091 . S
Co140 O144 2.004 . S
Co140 O150 2.021 . S
Co140 O152 2.137 . S
Co140 O153 2.244 . S
O141 Co140 2.216 1_565 S
O141 C148 1.247 . S
O142 Co140 2.091 . S
O142 C148 1.261 1_545 S
C143 O152 1.247 . S
C143 O153 1.272 . S
O144 Co140 2.004 . S
O144 C149 1.259 . S
Co145 O146 2.061 . S
Co145 O151 2.052 . S
Co145 O153 2.135 . S
O146 Co145 2.061 . S
O146 C149 1.235 . S
C147 O150 1.238 . S
C147 O151 1.241 . S
C148 O141 1.247 . S
C148 O142 1.261 1_565 S
C149 O144 1.259 . S
C149 O146 1.235 . S
O150 Co140 2.021 . S
O150 C147 1.238 . S
O151 Co145 2.052 . S
O151 C147 1.241 . S
O152 Co140 2.137 . S
O152 C143 1.247 . S
O153 Co140 2.244 . S
O153 C143 1.272 . S
O153 Co145 2.135 . S
Co154 O155 2.216 . S
Co154 O156 2.091 1_556 S
Co154 O158 2.004 1_556 S
Co154 O164 2.021 1_556 S
Co154 O166 2.137 . S
Co154 O167 2.244 . S
O155 Co154 2.216 . S
O155 C162 1.247 . S
O156 Co154 2.091 1_554 S
O156 C162 1.261 1_554 S
C157 O166 1.247 . S
C157 O167 1.272 . S
O158 Co154 2.004 1_554 S
O158 C163 1.259 . S
Co159 O160 2.061 1_556 S
Co159 O165 2.052 1_556 S
Co159 O167 2.135 . S
O160 Co159 2.061 1_554 S
O160 C163 1.235 . S
C161 O164 1.238 . S
C161 O165 1.241 . S
C162 O155 1.247 . S
C162 O156 1.261 1_556 S
C163 O158 1.259 . S
C163 O160 1.235 . S
O164 Co154 2.021 1_554 S
O164 C161 1.238 . S
O165 Co159 2.052 1_554 S
O165 C161 1.241 . S
O166 Co154 2.137 . S
O166 C157 1.247 . S
O167 Co154 2.244 . S
O167 C157 1.272 . S
O167 Co159 2.135 . S
Co168 O169 2.216 . S
Co168 O170 2.091 . S
Co168 O172 2.004 . S
Co168 O178 2.021 . S
Co168 O180 2.137 1_554 S
Co168 O181 2.244 . S
O169 Co168 2.216 . S
O169 C176 1.247 . S
O170 Co168 2.091 . S
O170 C176 1.261 . S
C171 O180 1.247 . S
C171 O181 1.272 1_556 S
O172 Co168 2.004 . S
O172 C177 1.259 . S
Co173 O174 2.061 . S
Co173 O179 2.052 . S
Co173 O181 2.135 . S
O174 Co173 2.061 . S
O174 C177 1.235 . S
C175 O178 1.238 . S
C175 O179 1.241 . S
C176 O169 1.247 . S
C176 O170 1.261 . S
C177 O172 1.259 . S
C177 O174 1.235 . S
O178 Co168 2.021 . S
O178 C175 1.238 . S
O179 Co173 2.052 . S
O179 C175 1.241 . S
O180 Co168 2.137 1_556 S
O180 C171 1.247 . S
O181 Co168 2.244 . S
O181 C171 1.272 1_554 S
O181 Co173 2.135 . S
Co182 O183 2.216 . S
Co182 O184 2.091 . S
Co182 O186 2.004 . S
Co182 O192 2.021 . S
Co182 O194 2.137 . S
Co182 O195 2.244 . S
O183 Co182 2.216 . S
O183 C190 1.247 . S
O184 Co182 2.091 . S
O184 C190 1.261 . S
C185 O194 1.247 . S
C185 O195 1.272 . S
O186 Co182 2.004 . S
O186 C191 1.259 . S
Co187 O188 2.061 . S
Co187 O193 2.052 . S
Co187 O195 2.135 . S
O188 Co187 2.061 . S
O188 C191 1.235 . S
C189 O192 1.238 . S
C189 O193 1.241 . S
C190 O183 1.247 . S
C190 O184 1.261 . S
C191 O186 1.259 . S
C191 O188 1.235 . S
O192 Co182 2.021 . S
O192 C189 1.238 . S
O193 Co187 2.052 . S
O193 C189 1.241 . S
O194 Co182 2.137 . S
O194 C185 1.247 . S
O195 Co182 2.244 . S
O195 C185 1.272 . S
O195 Co187 2.135 . S
Co196 O197 2.216 . S
Co196 O198 2.091 . S
Co196 O200 2.004 . S
Co196 O206 2.021 . S
Co196 O208 2.137 . S
Co196 O209 2.244 . S
O197 Co196 2.216 . S
O197 C204 1.247 . S
O198 Co196 2.091 . S
O198 C204 1.261 . S
C199 O208 1.247 . S
C199 O209 1.272 . S
O200 Co196 2.004 . S
O200 C205 1.259 . S
Co201 O202 2.061 . S
Co201 O207 2.052 . S
Co201 O209 2.135 . S
O202 Co201 2.061 . S
O202 C205 1.235 . S
C203 O206 1.238 . S
C203 O207 1.241 . S
C204 O197 1.247 . S
C204 O198 1.261 . S
C205 O200 1.259 . S
C205 O202 1.235 . S
O206 Co196 2.021 . S
O206 C203 1.238 . S
O207 Co201 2.052 . S
O207 C203 1.241 . S
O208 Co196 2.137 . S
O208 C199 1.247 . S
O209 Co196 2.244 . S
O209 C199 1.272 . S
O209 Co201 2.135 . S
Co210 O211 2.216 . S
Co210 O212 2.091 . S
Co210 O214 2.004 . S
Co210 O220 2.021 . S
Co210 O222 2.137 . S
Co210 O223 2.244 . S
O211 Co210 2.216 . S
O211 C218 1.247 . S
O212 Co210 2.091 . S
O212 C218 1.261 . S
C213 O222 1.247 . S
C213 O223 1.272 . S
O214 Co210 2.004 . S
O214 C219 1.259 . S
Co215 O216 2.061 . S
Co215 O221 2.052 . S
Co215 O223 2.135 . S
O216 Co215 2.061 . S
O216 C219 1.235 . S
C217 O220 1.238 . S
C217 O221 1.241 . S
C218 O211 1.247 . S
C218 O212 1.261 . S
C219 O214 1.259 . S
C219 O216 1.235 . S
O220 Co210 2.021 . S
O220 C217 1.238 . S
O221 Co215 2.052 . S
O221 C217 1.241 . S
O222 Co210 2.137 . S
O222 C213 1.247 . S
O223 Co210 2.244 . S
O223 C213 1.272 . S
O223 Co215 2.135 . S
Co224 O225 2.216 . S
Co224 O226 2.091 . S
Co224 O228 2.004 1_545 S
Co224 O234 2.021 . S
Co224 O236 2.137 . S
Co224 O237 2.244 . S
O225 Co224 2.216 . S
O225 C232 1.247 . S
O226 Co224 2.091 . S
O226 C232 1.261 . S
C227 O236 1.247 . S
C227 O237 1.272 . S
O228 Co224 2.004 1_565 S
O228 C233 1.259 . S
Co229 O230 2.061 . S
Co229 O235 2.052 . S
Co229 O237 2.135 1_565 S
O230 Co229 2.061 . S
O230 C233 1.235 . S
C231 O234 1.238 . S
C231 O235 1.241 1_545 S
C232 O225 1.247 . S
C232 O226 1.261 . S
C233 O228 1.259 . S
C233 O230 1.235 . S
O234 Co224 2.021 . S
O234 C231 1.238 . S
O235 Co229 2.052 . S
O235 C231 1.241 1_565 S
O236 Co224 2.137 . S
O236 C227 1.247 . S
O237 Co224 2.244 . S
O237 C227 1.272 . S
O237 Co229 2.135 1_545 S
Co238 O239 2.216 . S
Co238 O240 2.091 . S
Co238 O242 2.004 . S
Co238 O248 2.021 . S
Co238 O250 2.137 . S
Co238 O251 2.244 . S
O239 Co238 2.216 . S
O239 C246 1.247 . S
O240 Co238 2.091 . S
O240 C246 1.261 . S
C241 O250 1.247 . S
C241 O251 1.272 . S
O242 Co238 2.004 . S
O242 C247 1.259 . S
Co243 O244 2.061 . S
Co243 O249 2.052 . S
Co243 O251 2.135 . S
O244 Co243 2.061 . S
O244 C247 1.235 . S
C245 O248 1.238 . S
C245 O249 1.241 . S
C246 O239 1.247 . S
C246 O240 1.261 . S
C247 O242 1.259 . S
C247 O244 1.235 . S
O248 Co238 2.021 . S
O248 C245 1.238 . S
O249 Co243 2.052 . S
O249 C245 1.241 . S
O250 Co238 2.137 . S
O250 C241 1.247 . S
O251 Co238 2.244 . S
O251 C241 1.272 . S
O251 Co243 2.135 . S
Co252 O253 2.216 . S
Co252 O254 2.091 . S
Co252 O256 2.004 . S
Co252 O262 2.021 . S
Co252 O264 2.137 . S
Co252 O265 2.244 . S
O253 Co252 2.216 . S
O253 C260 1.247 . S
O254 Co252 2.091 . S
O254 C260 1.261 . S
C255 O264 1.247 . S
C255 O265 1.272 . S
O256 Co252 2.004 . S
O256 C261 1.259 . S
Co257 O258 2.061 . S
Co257 O263 2.052 . S
Co257 O265 2.135 . S
O258 Co257 2.061 . S
O258 C261 1.235 . S
C259 O262 1.238 . S
C259 O263 1.241 . S
C260 O253 1.247 . S
C260 O254 1.261 . S
C261 O256 1.259 . S
C261 O258 1.235 . S
O262 Co252 2.021 . S
O262 C259 1.238 . S
O263 Co257 2.052 . S
O263 C259 1.241 . S
O264 Co252 2.137 . S
O264 C255 1.247 . S
O265 Co252 2.244 . S
O265 C255 1.272 . S
O265 Co257 2.135 . S
Co266 O267 2.216 1_545 S
Co266 O268 2.091 1_545 S
Co266 O270 2.004 . S
Co266 O276 2.021 . S
Co266 O278 2.137 . S
Co266 O279 2.244 . S
O267 Co266 2.216 1_565 S
O267 C274 1.247 . S
O268 Co266 2.091 1_565 S
O268 C274 1.261 . S
C269 O278 1.247 . S
C269 O279 1.272 . S
O270 Co266 2.004 . S
O270 C275 1.259 . S
Co271 O272 2.061 . S
Co271 O277 2.052 . S
Co271 O279 2.135 . S
O272 Co271 2.061 . S
O272 C275 1.235 . S
C273 O276 1.238 . S
C273 O277 1.241 . S
C274 O267 1.247 . S
C274 O268 1.261 . S
C275 O270 1.259 . S
C275 O272 1.235 . S
O276 Co266 2.021 . S
O276 C273 1.238 . S
O277 Co271 2.052 . S
O277 C273 1.241 . S
O278 Co266 2.137 . S
O278 C269 1.247 . S
O279 Co266 2.244 . S
O279 C269 1.272 . S
O279 Co271 2.135 . S
Co280 O281 2.216 . S
Co280 O282 2.091 . S
Co280 O284 2.004 . S
Co280 O290 2.021 . S
Co280 O292 2.137 1_554 S
Co280 O293 2.244 . S
O281 Co280 2.216 . S
O281 C288 1.247 . S
O282 Co280 2.091 . S
O282 C288 1.261 . S
C283 O292 1.247 . S
C283 O293 1.272 1_556 S
O284 Co280 2.004 . S
O284 C289 1.259 . S
Co285 O286 2.061 . S
Co285 O291 2.052 . S
Co285 O293 2.135 . S
O286 Co285 2.061 . S
O286 C289 1.235 . S
C287 O290 1.238 . S
C287 O291 1.241 . S
C288 O281 1.247 . S
C288 O282 1.261 . S
C289 O284 1.259 . S
C289 O286 1.235 . S
O290 Co280 2.021 . S
O290 C287 1.238 . S
O291 Co285 2.052 . S
O291 C287 1.241 . S
O292 Co280 2.137 1_556 S
O292 C283 1.247 . S
O293 Co280 2.244 . S
O293 C283 1.272 1_554 S
O293 Co285 2.135 . S
Co294 O295 2.216 . S
Co294 O296 2.091 . S
Co294 O298 2.004 . S
Co294 O304 2.021 . S
Co294 O306 2.137 . S
Co294 O307 2.244 . S
O295 Co294 2.216 . S
O295 C302 1.247 . S
O296 Co294 2.091 . S
O296 C302 1.261 . S
C297 O306 1.247 . S
C297 O307 1.272 . S
O298 Co294 2.004 . S
O298 C303 1.259 . S
Co299 O300 2.061 . S
Co299 O305 2.052 . S
Co299 O307 2.135 . S
O300 Co299 2.061 . S
O300 C303 1.235 . S
C301 O304 1.238 . S
C301 O305 1.241 . S
C302 O295 1.247 . S
C302 O296 1.261 . S
C303 O298 1.259 . S
C303 O300 1.235 . S
O304 Co294 2.021 . S
O304 C301 1.238 . S
O305 Co299 2.052 . S
O305 C301 1.241 . S
O306 Co294 2.137 . S
O306 C297 1.247 . S
O307 Co294 2.244 . S
O307 C297 1.272 . S
O307 Co299 2.135 . S
Co308 O309 2.216 . S
Co308 O310 2.091 . S
Co308 O312 2.004 . S
Co308 O318 2.021 . S
Co308 O320 2.137 . S
Co308 O321 2.244 . S
O309 Co308 2.216 . S
O309 C316 1.247 . S
O310 Co308 2.091 . S
O310 C316 1.261 . S
C311 O320 1.247 . S
C311 O321 1.272 . S
O312 Co308 2.004 . S
O312 C317 1.259 . S
Co313 O314 2.061 . S
Co313 O319 2.052 . S
Co313 O321 2.135 . S
O314 Co313 2.061 . S
O314 C317 1.235 . S
C315 O318 1.238 . S
C315 O319 1.241 . S
C316 O309 1.247 . S
C316 O310 1.261 . S
C317 O312 1.259 . S
C317 O314 1.235 . S
O318 Co308 2.021 . S
O318 C315 1.238 . S
O319 Co313 2.052 . S
O319 C315 1.241 . S
O320 Co308 2.137 . S
O320 C311 1.247 . S
O321 Co308 2.244 . S
O321 C311 1.272 . S
O321 Co313 2.135 . S
Co322 O323 2.216 . S
Co322 O324 2.091 . S
Co322 O326 2.004 . S
Co322 O332 2.021 . S
Co322 O334 2.137 . S
Co322 O335 2.244 . S
O323 Co322 2.216 . S
O323 C330 1.247 . S
O324 Co322 2.091 . S
O324 C330 1.261 . S
C325 O334 1.247 . S
C325 O335 1.272 . S
O326 Co322 2.004 . S
O326 C331 1.259 . S
Co327 O328 2.061 . S
Co327 O333 2.052 . S
Co327 O335 2.135 . S
O328 Co327 2.061 . S
O328 C331 1.235 . S
C329 O332 1.238 . S
C329 O333 1.241 . S
C330 O323 1.247 . S
C330 O324 1.261 . S
C331 O326 1.259 . S
C331 O328 1.235 . S
O332 Co322 2.021 . S
O332 C329 1.238 . S
O333 Co327 2.052 . S
O333 C329 1.241 . S
O334 Co322 2.137 . S
O334 C325 1.247 . S
O335 Co322 2.244 . S
O335 C325 1.272 . S
O335 Co327 2.135 . S
Tb336 C338 2.809 1_455 S
Tb336 O356 2.484 1_455 S
Tb336 O357 2.440 1_454 S
Tb336 O358 2.658 . S
Tb336 O359 2.409 1_554 S
Tb336 O360 2.378 . S
Tb336 O364 2.325 . S
Tb336 O367 2.341 1_545 S
Tb337 C347 2.809 . S
Tb337 O358 2.325 . S
Tb337 O361 2.341 . S
Tb337 O362 2.484 . S
Tb337 O363 2.440 . S
Tb337 O364 2.658 . S
Tb337 O365 2.409 . S
Tb337 O366 2.378 1_545 S
C338 Tb336 2.809 1_655 S
C338 C339 1.514 . S
C338 O356 1.248 . S
C338 O357 1.266 1_554 S
C339 C338 1.514 . S
C339 C340 1.359 . S
C339 C344 1.348 1_554 S
C340 C339 1.359 . S
C340 C341 1.380 . S
C340 H368 0.929 . S
C341 C340 1.380 . S
C341 C342 1.360 . S
C341 H369 0.931 . S
C342 C341 1.360 . S
C342 C343 1.357 1_554 S
C343 C342 1.357 1_556 S
C343 C344 1.408 . S
C343 H370 0.930 . S
C344 C339 1.348 1_556 S
C344 C343 1.408 . S
C344 H371 0.930 . S
C345 O358 1.281 1_556 S
C345 O359 1.254 . S
C346 O360 1.236 . S
C346 O361 1.266 . S
C347 Tb337 2.809 . S
C347 C348 1.514 1_545 S
C347 O362 1.248 . S
C347 O363 1.266 . S
C348 C347 1.514 1_565 S
C348 C349 1.359 . S
C348 C353 1.348 . S
C349 C348 1.359 . S
C349 C350 1.380 . S
C349 H372 0.929 . S
C350 C349 1.380 . S
C350 C351 1.347 . S
C350 H373 0.931 . S
C351 C350 1.347 . S
C351 C352 1.369 . S
C352 C351 1.369 . S
C352 C353 1.408 . S
C352 H374 0.930 . S
C353 C348 1.348 . S
C353 C352 1.408 . S
C353 H375 0.930 . S
C354 O364 1.281 . S
C354 O365 1.254 . S
C355 O366 1.236 . S
C355 O367 1.266 . S
O356 Tb336 2.484 1_655 S
O356 C338 1.248 . S
O357 Tb336 2.440 1_656 S
O357 C338 1.266 1_556 S
O358 Tb336 2.658 . S
O358 Tb337 2.325 . S
O358 C345 1.281 1_554 S
O359 Tb336 2.409 1_556 S
O359 C345 1.254 . S
O360 Tb336 2.378 . S
O360 C346 1.236 . S
O361 Tb337 2.341 . S
O361 C346 1.266 . S
O362 Tb337 2.484 . S
O362 C347 1.248 . S
O363 Tb337 2.440 . S
O363 C347 1.266 . S
O364 Tb336 2.325 . S
O364 Tb337 2.658 . S
O364 C354 1.281 . S
O365 Tb337 2.409 . S
O365 C354 1.254 . S
O366 Tb337 2.378 1_565 S
O366 C355 1.236 . S
O367 Tb336 2.341 1_565 S
O367 C355 1.266 . S
H368 C340 0.929 . S
H369 C341 0.931 . S
H370 C343 0.930 . S
H371 C344 0.930 . S
H372 C349 0.929 . S
H373 C350 0.931 . S
H374 C352 0.930 . S
H375 C353 0.930 . S
Tb376 C378 2.809 . S
Tb376 O396 2.484 . S
Tb376 O397 2.440 . S
Tb376 O398 2.658 . S
Tb376 O399 2.409 . S
Tb376 O400 2.378 . S
Tb376 O404 2.325 . S
Tb376 O407 2.341 . S
Tb377 C387 2.809 . S
Tb377 O398 2.325 . S
Tb377 O401 2.341 . S
Tb377 O402 2.484 . S
Tb377 O403 2.440 . S
Tb377 O404 2.658 . S
Tb377 O405 2.409 . S
Tb377 O406 2.378 . S
C378 Tb376 2.809 . S
C378 C379 1.514 . S
C378 O396 1.248 . S
C378 O397 1.266 . S
C379 C378 1.514 . S
C379 C380 1.359 . S
C379 C384 1.348 . S
C380 C379 1.359 . S
C380 C381 1.380 . S
C380 H408 0.929 . S
C381 C380 1.380 . S
C381 C382 1.347 . S
C381 H409 0.931 . S
C382 C381 1.347 . S
C382 C383 1.369 . S
C383 C382 1.369 . S
C383 C384 1.408 . S
C383 H410 0.930 . S
C384 C379 1.348 . S
C384 C383 1.408 . S
C384 H411 0.930 . S
C385 O398 1.281 . S
C385 O399 1.254 . S
C386 O400 1.236 . S
C386 O401 1.266 . S
C387 Tb377 2.809 . S
C387 C388 1.514 . S
C387 O402 1.248 . S
C387 O403 1.266 . S
C388 C387 1.514 . S
C388 C389 1.359 . S
C388 C393 1.348 . S
C389 C388 1.359 . S
C389 C390 1.380 . S
C389 H412 0.929 . S
C390 C389 1.380 . S
C390 C391 1.347 . S
C390 H413 0.931 . S
C391 C390 1.347 . S
C391 C392 1.369 . S
C392 C391 1.369 . S
C392 C393 1.408 . S
C392 H414 0.930 . S
C393 C388 1.348 . S
C393 C392 1.408 . S
C393 H415 0.930 . S
C394 O404 1.281 . S
C394 O405 1.254 . S
C395 O406 1.236 . S
C395 O407 1.266 . S
O396 Tb376 2.484 . S
O396 C378 1.248 . S
O397 Tb376 2.440 . S
O397 C378 1.266 . S
O398 Tb376 2.658 . S
O398 Tb377 2.325 . S
O398 C385 1.281 . S
O399 Tb376 2.409 . S
O399 C385 1.254 . S
O400 Tb376 2.378 . S
O400 C386 1.236 . S
O401 Tb377 2.341 . S
O401 C386 1.266 . S
O402 Tb377 2.484 . S
O402 C387 1.248 . S
O403 Tb377 2.440 . S
O403 C387 1.266 . S
O404 Tb376 2.325 . S
O404 Tb377 2.658 . S
O404 C394 1.281 . S
O405 Tb377 2.409 . S
O405 C394 1.254 . S
O406 Tb377 2.378 . S
O406 C395 1.236 . S
O407 Tb376 2.341 . S
O407 C395 1.266 . S
H408 C380 0.929 . S
H409 C381 0.931 . S
H410 C383 0.930 . S
H411 C384 0.930 . S
H412 C389 0.929 . S
H413 C390 0.931 . S
H414 C392 0.930 . S
H415 C393 0.930 . S
Tb416 C418 2.809 1_545 S
Tb416 O436 2.484 1_545 S
Tb416 O437 2.440 . S
Tb416 O438 2.658 . S
Tb416 O439 2.409 . S
Tb416 O440 2.378 1_545 S
Tb416 O444 2.325 . S
Tb416 O447 2.341 . S
Tb417 C427 2.809 . S
Tb417 O438 2.325 . S
Tb417 O441 2.341 1_545 S
Tb417 O442 2.484 . S
Tb417 O443 2.440 . S
Tb417 O444 2.658 . S
Tb417 O445 2.409 . S
Tb417 O446 2.378 . S
C418 Tb416 2.809 1_565 S
C418 C419 1.514 . S
C418 O436 1.248 . S
C418 O437 1.266 1_565 S
C419 C418 1.514 . S
C419 C420 1.359 . S
C419 C424 1.348 . S
C420 C419 1.359 . S
C420 C421 1.380 . S
C420 H448 0.929 . S
C421 C420 1.380 . S
C421 C422 1.347 . S
C421 H449 0.931 . S
C422 C421 1.347 . S
C422 C423 1.369 . S
C423 C422 1.369 . S
C423 C424 1.408 . S
C423 H450 0.930 . S
C424 C419 1.348 . S
C424 C423 1.408 . S
C424 H451 0.930 . S
C425 O438 1.281 . S
C425 O439 1.254 . S
C426 O440 1.236 . S
C426 O441 1.266 . S
C427 Tb417 2.809 . S
C427 C428 1.514 . S
C427 O442 1.248 . S
C427 O443 1.266 . S
C428 C427 1.514 . S
C428 C429 1.359 . S
C428 C433 1.348 . S
C429 C428 1.359 . S
C429 C430 1.380 . S
C429 H452 0.929 . S
C430 C429 1.380 . S
C430 C431 1.347 . S
C430 H453 0.931 . S
C431 C430 1.347 . S
C431 C432 1.369 . S
C432 C431 1.369 . S
C432 C433 1.408 . S
C432 H454 0.930 . S
C433 C428 1.348 . S
C433 C432 1.408 . S
C433 H455 0.930 . S
C434 O444 1.281 . S
C434 O445 1.254 . S
C435 O446 1.236 . S
C435 O447 1.266 . S
O436 Tb416 2.484 1_565 S
O436 C418 1.248 . S
O437 Tb416 2.440 . S
O437 C418 1.266 1_545 S
O438 Tb416 2.658 . S
O438 Tb417 2.325 . S
O438 C425 1.281 . S
O439 Tb416 2.409 . S
O439 C425 1.254 . S
O440 Tb416 2.378 1_565 S
O440 C426 1.236 . S
O441 Tb417 2.341 1_565 S
O441 C426 1.266 . S
O442 Tb417 2.484 . S
O442 C427 1.248 . S
O443 Tb417 2.440 . S
O443 C427 1.266 . S
O444 Tb416 2.325 . S
O444 Tb417 2.658 . S
O444 C434 1.281 . S
O445 Tb417 2.409 . S
O445 C434 1.254 . S
O446 Tb417 2.378 . S
O446 C435 1.236 . S
O447 Tb416 2.341 . S
O447 C435 1.266 . S
H448 C420 0.929 . S
H449 C421 0.931 . S
H450 C423 0.930 . S
H451 C424 0.930 . S
H452 C429 0.929 . S
H453 C430 0.931 . S
H454 C432 0.930 . S
H455 C433 0.930 . S
Tb456 C458 2.809 . S
Tb456 O476 2.484 . S
Tb456 O477 2.440 . S
Tb456 O478 2.658 . S
Tb456 O479 2.409 . S
Tb456 O480 2.378 . S
Tb456 O484 2.325 . S
Tb456 O487 2.341 . S
Tb457 C467 2.809 . S
Tb457 O478 2.325 . S
Tb457 O481 2.341 . S
Tb457 O482 2.484 . S
Tb457 O483 2.440 . S
Tb457 O484 2.658 . S
Tb457 O485 2.409 . S
Tb457 O486 2.378 . S
C458 Tb456 2.809 . S
C458 C459 1.514 . S
C458 O476 1.248 . S
C458 O477 1.266 . S
C459 C458 1.514 . S
C459 C460 1.359 . S
C459 C464 1.348 . S
C460 C459 1.359 . S
C460 C461 1.380 . S
C460 H488 0.929 . S
C461 C460 1.380 . S
C461 C462 1.347 . S
C461 H489 0.931 . S
C462 C461 1.347 . S
C462 C463 1.369 . S
C463 C462 1.369 . S
C463 C464 1.408 . S
C463 H490 0.930 . S
C464 C459 1.348 . S
C464 C463 1.408 . S
C464 H491 0.930 . S
C465 O478 1.281 . S
C465 O479 1.254 . S
C466 O480 1.236 . S
C466 O481 1.266 . S
C467 Tb457 2.809 . S
C467 C468 1.514 . S
C467 O482 1.248 . S
C467 O483 1.266 . S
C468 C467 1.514 . S
C468 C469 1.359 . S
C468 C473 1.348 . S
C469 C468 1.359 . S
C469 C470 1.380 . S
C469 H492 0.929 . S
C470 C469 1.380 . S
C470 C471 1.347 . S
C470 H493 0.931 . S
C471 C470 1.347 . S
C471 C472 1.369 . S
C472 C471 1.369 . S
C472 C473 1.408 . S
C472 H494 0.930 . S
C473 C468 1.348 . S
C473 C472 1.408 . S
C473 H495 0.930 . S
C474 O484 1.281 . S
C474 O485 1.254 . S
C475 O486 1.236 . S
C475 O487 1.266 . S
O476 Tb456 2.484 . S
O476 C458 1.248 . S
O477 Tb456 2.440 . S
O477 C458 1.266 . S
O478 Tb456 2.658 . S
O478 Tb457 2.325 . S
O478 C465 1.281 . S
O479 Tb456 2.409 . S
O479 C465 1.254 . S
O480 Tb456 2.378 . S
O480 C466 1.236 . S
O481 Tb457 2.341 . S
O481 C466 1.266 . S
O482 Tb457 2.484 . S
O482 C467 1.248 . S
O483 Tb457 2.440 . S
O483 C467 1.266 . S
O484 Tb456 2.325 . S
O484 Tb457 2.658 . S
O484 C474 1.281 . S
O485 Tb457 2.409 . S
O485 C474 1.254 . S
O486 Tb457 2.378 . S
O486 C475 1.236 . S
O487 Tb456 2.341 . S
O487 C475 1.266 . S
H488 C460 0.929 . S
H489 C461 0.931 . S
H490 C463 0.930 . S
H491 C464 0.930 . S
H492 C469 0.929 . S
H493 C470 0.931 . S
H494 C472 0.930 . S
H495 C473 0.930 . S
Tb496 C498 2.809 . S
Tb496 O516 2.484 . S
Tb496 O517 2.440 . S
Tb496 O518 2.658 . S
Tb496 O519 2.409 1_455 S
Tb496 O520 2.378 . S
Tb496 O524 2.325 . S
Tb496 O527 2.341 . S
Tb497 C507 2.809 . S
Tb497 O518 2.325 1_565 S
Tb497 O521 2.341 . S
Tb497 O522 2.484 . S
Tb497 O523 2.440 . S
Tb497 O524 2.658 1_565 S
Tb497 O525 2.409 1_565 S
Tb497 O526 2.378 1_565 S
C498 Tb496 2.809 . S
C498 C499 1.514 . S
C498 O516 1.248 . S
C498 O517 1.266 . S
C499 C498 1.514 . S
C499 C500 1.359 . S
C499 C504 1.348 1_455 S
C500 C499 1.359 . S
C500 C501 1.380 . S
C500 H528 0.929 . S
C501 C500 1.380 . S
C501 C502 1.347 . S
C501 H529 0.931 . S
C502 C501 1.347 . S
C502 C503 1.369 1_455 S
C503 C502 1.369 1_655 S
C503 C504 1.408 . S
C503 H530 0.930 . S
C504 C499 1.348 1_655 S
C504 C503 1.408 . S
C504 H531 0.930 . S
C505 O518 1.232 1_655 S
C505 O519 1.273 . S
C506 O520 1.236 . S
C506 O521 1.266 1_545 S
C507 Tb497 2.809 . S
C507 C508 1.514 . S
C507 O522 1.248 . S
C507 O523 1.266 . S
C508 C507 1.514 . S
C508 C509 1.359 . S
C508 C513 1.348 . S
C509 C508 1.359 . S
C509 C510 1.380 . S
C509 H532 0.929 . S
C510 C509 1.380 . S
C510 C511 1.347 . S
C510 H533 0.931 . S
C511 C510 1.347 . S
C511 C512 1.369 . S
C512 C511 1.369 . S
C512 C513 1.408 . S
C512 H534 0.930 . S
C513 C508 1.348 . S
C513 C512 1.408 . S
C513 H535 0.930 . S
C514 O524 1.281 . S
C514 O525 1.254 . S
C515 O526 1.236 . S
C515 O527 1.266 . S
O516 Tb496 2.484 . S
O516 C498 1.248 . S
O517 Tb496 2.440 . S
O517 C498 1.266 . S
O518 Tb496 2.658 . S
O518 Tb497 2.325 1_545 S
O518 C505 1.232 1_455 S
O519 Tb496 2.409 1_655 S
O519 C505 1.273 . S
O520 Tb496 2.378 . S
O520 C506 1.236 . S
O521 Tb497 2.341 . S
O521 C506 1.266 1_565 S
O522 Tb497 2.484 . S
O522 C507 1.248 . S
O523 Tb497 2.440 . S
O523 C507 1.266 . S
O524 Tb496 2.325 . S
O524 Tb497 2.658 1_545 S
O524 C514 1.281 . S
O525 Tb497 2.409 1_545 S
O525 C514 1.254 . S
O526 Tb497 2.378 1_545 S
O526 C515 1.236 . S
O527 Tb496 2.341 . S
O527 C515 1.266 . S
H528 C500 0.929 . S
H529 C501 0.931 . S
H530 C503 0.930 . S
H531 C504 0.930 . S
H532 C509 0.929 . S
H533 C510 0.931 . S
H534 C512 0.930 . S
H535 C513 0.930 . S
Tb536 C538 2.809 . S
Tb536 O556 2.484 . S
Tb536 O557 2.440 . S
Tb536 O558 2.658 . S
Tb536 O559 2.409 . S
Tb536 O560 2.378 . S
Tb536 O564 2.325 . S
Tb536 O567 2.341 . S
Tb537 C547 2.809 . S
Tb537 O558 2.325 . S
Tb537 O561 2.341 . S
Tb537 O562 2.484 . S
Tb537 O563 2.440 . S
Tb537 O564 2.658 . S
Tb537 O565 2.409 . S
Tb537 O566 2.378 . S
C538 Tb536 2.809 . S
C538 C539 1.514 . S
C538 O556 1.248 . S
C538 O557 1.266 . S
C539 C538 1.514 . S
C539 C540 1.359 . S
C539 C544 1.348 . S
C540 C539 1.359 . S
C540 C541 1.380 . S
C540 H568 0.929 . S
C541 C540 1.380 . S
C541 C542 1.347 . S
C541 H569 0.931 . S
C542 C541 1.347 . S
C542 C543 1.369 . S
C543 C542 1.369 . S
C543 C544 1.408 . S
C543 H570 0.930 . S
C544 C539 1.348 . S
C544 C543 1.408 . S
C544 H571 0.930 . S
C545 O558 1.281 . S
C545 O559 1.254 . S
C546 O560 1.236 . S
C546 O561 1.266 . S
C547 Tb537 2.809 . S
C547 C548 1.514 . S
C547 O562 1.248 . S
C547 O563 1.266 . S
C548 C547 1.514 . S
C548 C549 1.359 . S
C548 C553 1.348 . S
C549 C548 1.359 . S
C549 C550 1.380 . S
C549 H572 0.929 . S
C550 C549 1.380 . S
C550 C551 1.347 . S
C550 H573 0.931 . S
C551 C550 1.347 . S
C551 C552 1.369 . S
C552 C551 1.369 . S
C552 C553 1.408 . S
C552 H574 0.930 . S
C553 C548 1.348 . S
C553 C552 1.408 . S
C553 H575 0.930 . S
C554 O564 1.281 . S
C554 O565 1.254 . S
C555 O566 1.236 . S
C555 O567 1.266 . S
O556 Tb536 2.484 . S
O556 C538 1.248 . S
O557 Tb536 2.440 . S
O557 C538 1.266 . S
O558 Tb536 2.658 . S
O558 Tb537 2.325 . S
O558 C545 1.281 . S
O559 Tb536 2.409 . S
O559 C545 1.254 . S
O560 Tb536 2.378 . S
O560 C546 1.236 . S
O561 Tb537 2.341 . S
O561 C546 1.266 . S
O562 Tb537 2.484 . S
O562 C547 1.248 . S
O563 Tb537 2.440 . S
O563 C547 1.266 . S
O564 Tb536 2.325 . S
O564 Tb537 2.658 . S
O564 C554 1.281 . S
O565 Tb537 2.409 . S
O565 C554 1.254 . S
O566 Tb537 2.378 . S
O566 C555 1.236 . S
O567 Tb536 2.341 . S
O567 C555 1.266 . S
H568 C540 0.929 . S
H569 C541 0.931 . S
H570 C543 0.930 . S
H571 C544 0.930 . S
H572 C549 0.929 . S
H573 C550 0.931 . S
H574 C552 0.930 . S
H575 C553 0.930 . S
Tb576 C578 2.809 . S
Tb576 O596 2.484 1_545 S
Tb576 O597 2.440 . S
Tb576 O598 2.658 . S
Tb576 O599 2.409 . S
Tb576 O600 2.378 . S
Tb576 O604 2.325 1_545 S
Tb576 O607 2.341 1_554 S
Tb577 C587 2.809 . S
Tb577 O598 2.325 . S
Tb577 O601 2.341 . S
Tb577 O602 2.484 . S
Tb577 O603 2.440 . S
Tb577 O604 2.658 1_545 S
Tb577 O605 2.409 1_545 S
Tb577 O606 2.378 . S
C578 Tb576 2.809 . S
C578 C579 1.514 1_545 S
C578 O596 1.248 1_545 S
C578 O597 1.266 . S
C579 C578 1.514 1_565 S
C579 C580 1.359 . S
C579 C584 1.348 1_565 S
C580 C579 1.359 . S
C580 C581 1.380 . S
C580 H608 0.929 . S
C581 C580 1.380 . S
C581 C582 1.347 . S
C581 H609 0.931 . S
C582 C581 1.347 . S
C582 C583 1.382 . S
C583 C582 1.382 . S
C583 C584 1.406 1_565 S
C583 H610 0.920 1_565 S
C584 C579 1.348 1_545 S
C584 C583 1.406 1_545 S
C584 H611 0.930 . S
C585 O598 1.281 . S
C585 O599 1.254 . S
C586 O600 1.236 . S
C586 O601 1.266 . S
C587 Tb577 2.809 . S
C587 C588 1.514 . S
C587 O602 1.248 . S
C587 O603 1.266 . S
C588 C587 1.514 . S
C588 C589 1.359 . S
C588 C593 1.348 . S
C589 C588 1.359 . S
C589 C590 1.380 . S
C589 H612 0.929 . S
C590 C589 1.380 . S
C590 C591 1.347 . S
C590 H613 0.931 . S
C591 C590 1.347 . S
C591 C592 1.369 . S
C592 C591 1.369 . S
C592 C593 1.408 . S
C592 H614 0.930 . S
C593 C588 1.348 . S
C593 C592 1.408 . S
C593 H615 0.930 . S
C594 O604 1.281 . S
C594 O605 1.254 . S
C595 O606 1.236 1_556 S
C595 O607 1.266 . S
O596 Tb576 2.484 1_565 S
O596 C578 1.248 1_565 S
O597 Tb576 2.440 . S
O597 C578 1.266 . S
O598 Tb576 2.658 . S
O598 Tb577 2.325 . S
O598 C585 1.281 . S
O599 Tb576 2.409 . S
O599 C585 1.254 . S
O600 Tb576 2.378 . S
O600 C586 1.236 . S
O601 Tb577 2.341 . S
O601 C586 1.266 . S
O602 Tb577 2.484 . S
O602 C587 1.248 . S
O603 Tb577 2.440 . S
O603 C587 1.266 . S
O604 Tb576 2.325 1_565 S
O604 Tb577 2.658 1_565 S
O604 C594 1.281 . S
O605 Tb577 2.409 1_565 S
O605 C594 1.254 . S
O606 Tb577 2.378 . S
O606 C595 1.236 1_554 S
O607 Tb576 2.341 1_556 S
O607 C595 1.266 . S
H608 C580 0.929 . S
H609 C581 0.931 . S
H610 C583 0.920 1_545 S
H611 C584 0.930 . S
H612 C589 0.929 . S
H613 C590 0.931 . S
H614 C592 0.930 . S
H615 C593 0.930 . S
Tb616 C618 2.809 . S
Tb616 O636 2.484 . S
Tb616 O637 2.440 . S
Tb616 O638 2.658 . S
Tb616 O639 2.409 . S
Tb616 O640 2.378 . S
Tb616 O644 2.325 . S
Tb616 O647 2.341 . S
Tb617 C627 2.809 . S
Tb617 O638 2.325 . S
Tb617 O641 2.341 . S
Tb617 O642 2.484 . S
Tb617 O643 2.440 . S
Tb617 O644 2.658 . S
Tb617 O645 2.409 . S
Tb617 O646 2.378 . S
C618 Tb616 2.809 . S
C618 C619 1.514 . S
C618 O636 1.248 . S
C618 O637 1.266 . S
C619 C618 1.514 . S
C619 C620 1.359 . S
C619 C624 1.348 . S
C620 C619 1.359 . S
C620 C621 1.380 . S
C620 H648 0.929 . S
C621 C620 1.380 . S
C621 C622 1.347 . S
C621 H649 0.931 . S
C622 C621 1.347 . S
C622 C623 1.369 . S
C623 C622 1.369 . S
C623 C624 1.408 . S
C623 H650 0.930 . S
C624 C619 1.348 . S
C624 C623 1.408 . S
C624 H651 0.930 . S
C625 O638 1.281 . S
C625 O639 1.254 . S
C626 O640 1.236 . S
C626 O641 1.266 . S
C627 Tb617 2.809 . S
C627 C628 1.514 . S
C627 O642 1.248 . S
C627 O643 1.266 . S
C628 C627 1.514 . S
C628 C629 1.359 . S
C628 C633 1.348 . S
C629 C628 1.359 . S
C629 C630 1.380 . S
C629 H652 0.929 . S
C630 C629 1.380 . S
C630 C631 1.347 . S
C630 H653 0.931 . S
C631 C630 1.347 . S
C631 C632 1.369 . S
C632 C631 1.369 . S
C632 C633 1.408 . S
C632 H654 0.930 . S
C633 C628 1.348 . S
C633 C632 1.408 . S
C633 H655 0.930 . S
C634 O644 1.281 . S
C634 O645 1.254 . S
C635 O646 1.236 . S
C635 O647 1.266 . S
O636 Tb616 2.484 . S
O636 C618 1.248 . S
O637 Tb616 2.440 . S
O637 C618 1.266 . S
O638 Tb616 2.658 . S
O638 Tb617 2.325 . S
O638 C625 1.281 . S
O639 Tb616 2.409 . S
O639 C625 1.254 . S
O640 Tb616 2.378 . S
O640 C626 1.236 . S
O641 Tb617 2.341 . S
O641 C626 1.266 . S
O642 Tb617 2.484 . S
O642 C627 1.248 . S
O643 Tb617 2.440 . S
O643 C627 1.266 . S
O644 Tb616 2.325 . S
O644 Tb617 2.658 . S
O644 C634 1.281 . S
O645 Tb617 2.409 . S
O645 C634 1.254 . S
O646 Tb617 2.378 . S
O646 C635 1.236 . S
O647 Tb616 2.341 . S
O647 C635 1.266 . S
H648 C620 0.929 . S
H649 C621 0.931 . S
H650 C623 0.930 . S
H651 C624 0.930 . S
H652 C629 0.929 . S
H653 C630 0.931 . S
H654 C632 0.930 . S
H655 C633 0.930 . S
Tb656 C658 2.809 . S
Tb656 O676 2.484 . S
Tb656 O677 2.440 . S
Tb656 O678 2.658 . S
Tb656 O679 2.409 . S
Tb656 O680 2.378 1_554 S
Tb656 O684 2.325 . S
Tb656 O687 2.341 . S
Tb657 C667 2.809 . S
Tb657 O678 2.325 . S
Tb657 O681 2.341 1_554 S
Tb657 O682 2.484 . S
Tb657 O683 2.440 . S
Tb657 O684 2.658 . S
Tb657 O685 2.409 . S
Tb657 O686 2.378 . S
C658 Tb656 2.809 . S
C658 C659 1.514 1_554 S
C658 O676 1.248 . S
C658 O677 1.266 . S
C659 C658 1.514 1_556 S
C659 C660 1.359 . S
C659 C664 1.348 . S
C660 C659 1.359 . S
C660 C661 1.380 . S
C660 H688 0.929 . S
C661 C660 1.380 . S
C661 C662 1.347 . S
C661 H689 0.931 . S
C662 C661 1.347 . S
C662 C663 1.369 . S
C663 C662 1.369 . S
C663 C664 1.408 . S
C663 H690 0.930 . S
C664 C659 1.348 . S
C664 C663 1.408 . S
C664 H691 0.930 . S
C665 O678 1.281 . S
C665 O679 1.254 . S
C666 O680 1.236 . S
C666 O681 1.266 . S
C667 Tb657 2.809 . S
C667 C668 1.514 . S
C667 O682 1.248 . S
C667 O683 1.266 . S
C668 C667 1.514 . S
C668 C669 1.359 . S
C668 C673 1.348 . S
C669 C668 1.359 . S
C669 C670 1.380 . S
C669 H692 0.929 . S
C670 C669 1.380 . S
C670 C671 1.347 . S
C670 H693 0.931 . S
C671 C670 1.347 . S
C671 C672 1.369 . S
C672 C671 1.369 . S
C672 C673 1.408 . S
C672 H694 0.930 . S
C673 C668 1.348 . S
C673 C672 1.408 . S
C673 H695 0.930 . S
C674 O684 1.281 . S
C674 O685 1.254 . S
C675 O686 1.236 . S
C675 O687 1.266 . S
O676 Tb656 2.484 . S
O676 C658 1.248 . S
O677 Tb656 2.440 . S
O677 C658 1.266 . S
O678 Tb656 2.658 . S
O678 Tb657 2.325 . S
O678 C665 1.281 . S
O679 Tb656 2.409 . S
O679 C665 1.254 . S
O680 Tb656 2.378 1_556 S
O680 C666 1.236 . S
O681 Tb657 2.341 1_556 S
O681 C666 1.266 . S
O682 Tb657 2.484 . S
O682 C667 1.248 . S
O683 Tb657 2.440 . S
O683 C667 1.266 . S
O684 Tb656 2.325 . S
O684 Tb657 2.658 . S
O684 C674 1.281 . S
O685 Tb657 2.409 . S
O685 C674 1.254 . S
O686 Tb657 2.378 . S
O686 C675 1.236 . S
O687 Tb656 2.341 . S
O687 C675 1.266 . S
H688 C660 0.929 . S
H689 C661 0.931 . S
H690 C663 0.930 . S
H691 C664 0.930 . S
H692 C669 0.929 . S
H693 C670 0.931 . S
H694 C672 0.930 . S
H695 C673 0.930 . S
Tb696 C698 2.809 . S
Tb696 O716 2.484 . S
Tb696 O717 2.440 . S
Tb696 O718 2.658 . S
Tb696 O719 2.409 . S
Tb696 O720 2.378 . S
Tb696 O724 2.325 . S
Tb696 O727 2.341 . S
Tb697 C707 2.809 . S
Tb697 O718 2.325 . S
Tb697 O721 2.341 . S
Tb697 O722 2.484 . S
Tb697 O723 2.440 . S
Tb697 O724 2.658 . S
Tb697 O725 2.409 . S
Tb697 O726 2.378 . S
C698 Tb696 2.809 . S
C698 C699 1.514 . S
C698 O716 1.248 . S
C698 O717 1.266 . S
C699 C698 1.514 . S
C699 C700 1.359 . S
C699 C704 1.348 . S
C700 C699 1.359 . S
C700 C701 1.380 . S
C700 H728 0.929 . S
C701 C700 1.380 . S
C701 C702 1.347 . S
C701 H729 0.931 . S
C702 C701 1.347 . S
C702 C703 1.369 . S
C703 C702 1.369 . S
C703 C704 1.408 . S
C703 H730 0.930 . S
C704 C699 1.348 . S
C704 C703 1.408 . S
C704 H731 0.930 . S
C705 O718 1.281 . S
C705 O719 1.254 . S
C706 O720 1.236 . S
C706 O721 1.266 . S
C707 Tb697 2.809 . S
C707 C708 1.514 . S
C707 O722 1.248 . S
C707 O723 1.266 . S
C708 C707 1.514 . S
C708 C709 1.359 . S
C708 C713 1.348 . S
C709 C708 1.359 . S
C709 C710 1.380 . S
C709 H732 0.929 . S
C710 C709 1.380 . S
C710 C711 1.347 . S
C710 H733 0.931 . S
C711 C710 1.347 . S
C711 C712 1.369 . S
C712 C711 1.369 . S
C712 C713 1.408 . S
C712 H734 0.930 . S
C713 C708 1.348 . S
C713 C712 1.408 . S
C713 H735 0.930 . S
C714 O724 1.281 . S
C714 O725 1.254 . S
C715 O726 1.236 . S
C715 O727 1.266 . S
O716 Tb696 2.484 . S
O716 C698 1.248 . S
O717 Tb696 2.440 . S
O717 C698 1.266 . S
O718 Tb696 2.658 . S
O718 Tb697 2.325 . S
O718 C705 1.281 . S
O719 Tb696 2.409 . S
O719 C705 1.254 . S
O720 Tb696 2.378 . S
O720 C706 1.236 . S
O721 Tb697 2.341 . S
O721 C706 1.266 . S
O722 Tb697 2.484 . S
O722 C707 1.248 . S
O723 Tb697 2.440 . S
O723 C707 1.266 . S
O724 Tb696 2.325 . S
O724 Tb697 2.658 . S
O724 C714 1.281 . S
O725 Tb697 2.409 . S
O725 C714 1.254 . S
O726 Tb697 2.378 . S
O726 C715 1.236 . S
O727 Tb696 2.341 . S
O727 C715 1.266 . S
H728 C700 0.929 . S
H729 C701 0.931 . S
H730 C703 0.930 . S
H731 C704 0.930 . S
H732 C709 0.929 . S
H733 C710 0.931 . S
H734 C712 0.930 . S
H735 C713 0.930 . S
Tb736 C738 2.809 1_455 S
Tb736 O756 2.484 1_455 S
Tb736 O757 2.440 1_455 S
Tb736 O758 2.658 . S
Tb736 O759 2.409 . S
Tb736 O760 2.378 . S
Tb736 O764 2.325 . S
Tb736 O767 2.341 . S
Tb737 C747 2.809 . S
Tb737 O758 2.325 . S
Tb737 O761 2.341 . S
Tb737 O762 2.484 . S
Tb737 O763 2.440 . S
Tb737 O764 2.658 . S
Tb737 O765 2.409 . S
Tb737 O766 2.378 . S
C738 Tb736 2.809 1_655 S
C738 C739 1.514 . S
C738 O756 1.248 . S
C738 O757 1.266 . S
C739 C738 1.514 . S
C739 C740 1.359 . S
C739 C744 1.348 . S
C740 C739 1.359 . S
C740 C741 1.380 . S
C740 H768 0.929 . S
C741 C740 1.380 . S
C741 C742 1.347 . S
C741 H769 0.931 . S
C742 C741 1.347 . S
C742 C743 1.369 . S
C743 C742 1.369 . S
C743 C744 1.408 . S
C743 H770 0.930 . S
C744 C739 1.348 . S
C744 C743 1.408 . S
C744 H771 0.930 . S
C745 O758 1.281 . S
C745 O759 1.254 . S
C746 O760 1.236 . S
C746 O761 1.266 . S
C747 Tb737 2.809 . S
C747 C748 1.514 . S
C747 O762 1.248 . S
C747 O763 1.266 . S
C748 C747 1.514 . S
C748 C749 1.359 . S
C748 C753 1.348 . S
C749 C748 1.359 . S
C749 C750 1.380 . S
C749 H772 0.929 . S
C750 C749 1.380 . S
C750 C751 1.347 . S
C750 H773 0.931 . S
C751 C750 1.347 . S
C751 C752 1.369 . S
C752 C751 1.369 . S
C752 C753 1.408 . S
C752 H774 0.930 . S
C753 C748 1.348 . S
C753 C752 1.408 . S
C753 H775 0.930 . S
C754 O764 1.281 . S
C754 O765 1.254 . S
C755 O766 1.236 . S
C755 O767 1.266 . S
O756 Tb736 2.484 1_655 S
O756 C738 1.248 . S
O757 Tb736 2.440 1_655 S
O757 C738 1.266 . S
O758 Tb736 2.658 . S
O758 Tb737 2.325 . S
O758 C745 1.281 . S
O759 Tb736 2.409 . S
O759 C745 1.254 . S
O760 Tb736 2.378 . S
O760 C746 1.236 . S
O761 Tb737 2.341 . S
O761 C746 1.266 . S
O762 Tb737 2.484 . S
O762 C747 1.248 . S
O763 Tb737 2.440 . S
O763 C747 1.266 . S
O764 Tb736 2.325 . S
O764 Tb737 2.658 . S
O764 C754 1.281 . S
O765 Tb737 2.409 . S
O765 C754 1.254 . S
O766 Tb737 2.378 . S
O766 C755 1.236 . S
O767 Tb736 2.341 . S
O767 C755 1.266 . S
H768 C740 0.929 . S
H769 C741 0.931 . S
H770 C743 0.930 . S
H771 C744 0.930 . S
H772 C749 0.929 . S
H773 C750 0.931 . S
H774 C752 0.930 . S
H775 C753 0.930 . S
Tb776 C778 2.809 . S
Tb776 O796 2.484 . S
Tb776 O797 2.440 . S
Tb776 O798 2.658 . S
Tb776 O799 2.409 . S
Tb776 O800 2.378 . S
Tb776 O804 2.325 . S
Tb776 O807 2.341 . S
Tb777 C787 2.809 . S
Tb777 O798 2.325 . S
Tb777 O801 2.341 . S
Tb777 O802 2.484 . S
Tb777 O803 2.440 . S
Tb777 O804 2.658 . S
Tb777 O805 2.409 . S
Tb777 O806 2.378 . S
C778 Tb776 2.809 . S
C778 C779 1.514 . S
C778 O796 1.248 . S
C778 O797 1.266 . S
C779 C778 1.514 . S
C779 C780 1.359 . S
C779 C784 1.348 . S
C780 C779 1.359 . S
C780 C781 1.380 . S
C780 H808 0.929 . S
C781 C780 1.380 . S
C781 C782 1.347 . S
C781 H809 0.931 . S
C782 C781 1.347 . S
C782 C783 1.369 . S
C783 C782 1.369 . S
C783 C784 1.408 . S
C783 H810 0.930 . S
C784 C779 1.348 . S
C784 C783 1.408 . S
C784 H811 0.930 . S
C785 O798 1.281 . S
C785 O799 1.254 . S
C786 O800 1.236 . S
C786 O801 1.266 . S
C787 Tb777 2.809 . S
C787 C788 1.514 . S
C787 O802 1.248 . S
C787 O803 1.266 . S
C788 C787 1.514 . S
C788 C789 1.359 . S
C788 C793 1.348 . S
C789 C788 1.359 . S
C789 C790 1.380 . S
C789 H812 0.929 . S
C790 C789 1.380 . S
C790 C791 1.347 . S
C790 H813 0.931 . S
C791 C790 1.347 . S
C791 C792 1.369 . S
C792 C791 1.369 . S
C792 C793 1.408 . S
C792 H814 0.930 . S
C793 C788 1.348 . S
C793 C792 1.408 . S
C793 H815 0.930 . S
C794 O804 1.281 . S
C794 O805 1.254 . S
C795 O806 1.236 . S
C795 O807 1.266 . S
O796 Tb776 2.484 . S
O796 C778 1.248 . S
O797 Tb776 2.440 . S
O797 C778 1.266 . S
O798 Tb776 2.658 . S
O798 Tb777 2.325 . S
O798 C785 1.281 . S
O799 Tb776 2.409 . S
O799 C785 1.254 . S
O800 Tb776 2.378 . S
O800 C786 1.236 . S
O801 Tb777 2.341 . S
O801 C786 1.266 . S
O802 Tb777 2.484 . S
O802 C787 1.248 . S
O803 Tb777 2.440 . S
O803 C787 1.266 . S
O804 Tb776 2.325 . S
O804 Tb777 2.658 . S
O804 C794 1.281 . S
O805 Tb777 2.409 . S
O805 C794 1.254 . S
O806 Tb777 2.378 . S
O806 C795 1.236 . S
O807 Tb776 2.341 . S
O807 C795 1.266 . S
H808 C780 0.929 . S
H809 C781 0.931 . S
H810 C783 0.930 . S
H811 C784 0.930 . S
H812 C789 0.929 . S
H813 C790 0.931 . S
H814 C792 0.930 . S
H815 C793 0.930 . S
Tb816 C818 2.809 . S
Tb816 O836 2.484 . S
Tb816 O837 2.440 . S
Tb816 O838 2.658 . S
Tb816 O839 2.409 . S
Tb816 O840 2.378 . S
Tb816 O844 2.325 . S
Tb816 O847 2.341 . S
Tb817 C827 2.809 . S
Tb817 O838 2.325 . S
Tb817 O841 2.341 . S
Tb817 O842 2.484 . S
Tb817 O843 2.440 . S
Tb817 O844 2.658 . S
Tb817 O845 2.409 . S
Tb817 O846 2.378 . S
C818 Tb816 2.809 . S
C818 C819 1.514 . S
C818 O836 1.248 . S
C818 O837 1.266 . S
C819 C818 1.514 . S
C819 C820 1.359 . S
C819 C824 1.348 . S
C820 C819 1.359 . S
C820 C821 1.380 . S
C820 H848 0.929 . S
C821 C820 1.380 . S
C821 C822 1.347 . S
C821 H849 0.931 . S
C822 C821 1.347 . S
C822 C823 1.369 . S
C823 C822 1.369 . S
C823 C824 1.408 . S
C823 H850 0.930 . S
C824 C819 1.348 . S
C824 C823 1.408 . S
C824 H851 0.930 . S
C825 O838 1.281 . S
C825 O839 1.254 . S
C826 O840 1.236 . S
C826 O841 1.266 . S
C827 Tb817 2.809 . S
C827 C828 1.514 . S
C827 O842 1.248 . S
C827 O843 1.266 . S
C828 C827 1.514 . S
C828 C829 1.359 . S
C828 C833 1.348 . S
C829 C828 1.359 . S
C829 C830 1.380 . S
C829 H852 0.929 . S
C830 C829 1.380 . S
C830 C831 1.347 . S
C830 H853 0.931 . S
C831 C830 1.347 . S
C831 C832 1.369 . S
C832 C831 1.369 . S
C832 C833 1.408 . S
C832 H854 0.930 . S
C833 C828 1.348 . S
C833 C832 1.408 . S
C833 H855 0.930 . S
C834 O844 1.281 . S
C834 O845 1.254 . S
C835 O846 1.236 . S
C835 O847 1.266 . S
O836 Tb816 2.484 . S
O836 C818 1.248 . S
O837 Tb816 2.440 . S
O837 C818 1.266 . S
O838 Tb816 2.658 . S
O838 Tb817 2.325 . S
O838 C825 1.281 . S
O839 Tb816 2.409 . S
O839 C825 1.254 . S
O840 Tb816 2.378 . S
O840 C826 1.236 . S
O841 Tb817 2.341 . S
O841 C826 1.266 . S
O842 Tb817 2.484 . S
O842 C827 1.248 . S
O843 Tb817 2.440 . S
O843 C827 1.266 . S
O844 Tb816 2.325 . S
O844 Tb817 2.658 . S
O844 C834 1.281 . S
O845 Tb817 2.409 . S
O845 C834 1.254 . S
O846 Tb817 2.378 . S
O846 C835 1.236 . S
O847 Tb816 2.341 . S
O847 C835 1.266 . S
H848 C820 0.929 . S
H849 C821 0.931 . S
H850 C823 0.930 . S
H851 C824 0.930 . S
H852 C829 0.929 . S
H853 C830 0.931 . S
H854 C832 0.930 . S
H855 C833 0.930 . S
Tb856 C858 2.809 . S
Tb856 O876 2.484 . S
Tb856 O877 2.440 . S
Tb856 O878 2.658 . S
Tb856 O879 2.409 . S
Tb856 O880 2.378 . S
Tb856 O884 2.325 . S
Tb856 O887 2.341 . S
Tb857 C867 2.809 . S
Tb857 O878 2.325 . S
Tb857 O881 2.341 . S
Tb857 O882 2.484 . S
Tb857 O883 2.440 . S
Tb857 O884 2.658 . S
Tb857 O885 2.409 . S
Tb857 O886 2.378 . S
C858 Tb856 2.809 . S
C858 C859 1.514 . S
C858 O876 1.248 . S
C858 O877 1.266 . S
C859 C858 1.514 . S
C859 C860 1.359 . S
C859 C864 1.348 . S
C860 C859 1.359 . S
C860 C861 1.380 . S
C860 H888 0.929 . S
C861 C860 1.380 . S
C861 C862 1.347 . S
C861 H889 0.931 . S
C862 C861 1.347 . S
C862 C863 1.369 . S
C863 C862 1.369 . S
C863 C864 1.408 . S
C863 H890 0.930 . S
C864 C859 1.348 . S
C864 C863 1.408 . S
C864 H891 0.930 . S
C865 O878 1.281 . S
C865 O879 1.254 . S
C866 O880 1.236 . S
C866 O881 1.266 . S
C867 Tb857 2.809 . S
C867 C868 1.514 . S
C867 O882 1.248 . S
C867 O883 1.266 . S
C868 C867 1.514 . S
C868 C869 1.359 . S
C868 C873 1.348 . S
C869 C868 1.359 . S
C869 C870 1.380 . S
C869 H892 0.929 . S
C870 C869 1.380 . S
C870 C871 1.347 . S
C870 H893 0.931 . S
C871 C870 1.347 . S
C871 C872 1.369 . S
C872 C871 1.369 . S
C872 C873 1.408 . S
C872 H894 0.930 . S
C873 C868 1.348 . S
C873 C872 1.408 . S
C873 H895 0.930 . S
C874 O884 1.281 . S
C874 O885 1.254 . S
C875 O886 1.236 . S
C875 O887 1.266 . S
O876 Tb856 2.484 . S
O876 C858 1.248 . S
O877 Tb856 2.440 . S
O877 C858 1.266 . S
O878 Tb856 2.658 . S
O878 Tb857 2.325 . S
O878 C865 1.281 . S
O879 Tb856 2.409 . S
O879 C865 1.254 . S
O880 Tb856 2.378 . S
O880 C866 1.236 . S
O881 Tb857 2.341 . S
O881 C866 1.266 . S
O882 Tb857 2.484 . S
O882 C867 1.248 . S
O883 Tb857 2.440 . S
O883 C867 1.266 . S
O884 Tb856 2.325 . S
O884 Tb857 2.658 . S
O884 C874 1.281 . S
O885 Tb857 2.409 . S
O885 C874 1.254 . S
O886 Tb857 2.378 . S
O886 C875 1.236 . S
O887 Tb856 2.341 . S
O887 C875 1.266 . S
H888 C860 0.929 . S
H889 C861 0.931 . S
H890 C863 0.930 . S
H891 C864 0.930 . S
H892 C869 0.929 . S
H893 C870 0.931 . S
H894 C872 0.930 . S
H895 C873 0.930 . S
Tb896 C898 2.809 . S
Tb896 O916 2.484 . S
Tb896 O917 2.440 . S
Tb896 O918 2.658 . S
Tb896 O919 2.409 . S
Tb896 O920 2.378 . S
Tb896 O924 2.325 . S
Tb896 O927 2.341 . S
Tb897 C907 2.809 . S
Tb897 O918 2.325 . S
Tb897 O921 2.341 . S
Tb897 O922 2.484 . S
Tb897 O923 2.440 . S
Tb897 O924 2.658 . S
Tb897 O925 2.409 . S
Tb897 O926 2.378 . S
C898 Tb896 2.809 . S
C898 C899 1.514 . S
C898 O916 1.248 . S
C898 O917 1.266 . S
C899 C898 1.514 . S
C899 C900 1.359 . S
C899 C904 1.348 . S
C900 C899 1.359 . S
C900 C901 1.380 . S
C900 H928 0.929 . S
C901 C900 1.380 . S
C901 C902 1.347 . S
C901 H929 0.931 . S
C902 C901 1.347 . S
C902 C903 1.369 . S
C903 C902 1.369 . S
C903 C904 1.408 . S
C903 H930 0.930 . S
C904 C899 1.348 . S
C904 C903 1.408 . S
C904 H931 0.930 . S
C905 O918 1.281 . S
C905 O919 1.254 . S
C906 O920 1.236 . S
C906 O921 1.266 . S
C907 Tb897 2.809 . S
C907 C908 1.514 . S
C907 O922 1.248 . S
C907 O923 1.266 . S
C908 C907 1.514 . S
C908 C909 1.359 . S
C908 C913 1.348 . S
C909 C908 1.359 . S
C909 C910 1.380 . S
C909 H932 0.929 . S
C910 C909 1.380 . S
C910 C911 1.347 . S
C910 H933 0.931 . S
C911 C910 1.347 . S
C911 C912 1.369 . S
C912 C911 1.369 . S
C912 C913 1.408 . S
C912 H934 0.930 . S
C913 C908 1.348 . S
C913 C912 1.408 . S
C913 H935 0.930 . S
C914 O924 1.281 . S
C914 O925 1.254 . S
C915 O926 1.236 . S
C915 O927 1.266 . S
O916 Tb896 2.484 . S
O916 C898 1.248 . S
O917 Tb896 2.440 . S
O917 C898 1.266 . S
O918 Tb896 2.658 . S
O918 Tb897 2.325 . S
O918 C905 1.281 . S
O919 Tb896 2.409 . S
O919 C905 1.254 . S
O920 Tb896 2.378 . S
O920 C906 1.236 . S
O921 Tb897 2.341 . S
O921 C906 1.266 . S
O922 Tb897 2.484 . S
O922 C907 1.248 . S
O923 Tb897 2.440 . S
O923 C907 1.266 . S
O924 Tb896 2.325 . S
O924 Tb897 2.658 . S
O924 C914 1.281 . S
O925 Tb897 2.409 . S
O925 C914 1.254 . S
O926 Tb897 2.378 . S
O926 C915 1.236 . S
O927 Tb896 2.341 . S
O927 C915 1.266 . S
H928 C900 0.929 . S
H929 C901 0.931 . S
H930 C903 0.930 . S
H931 C904 0.930 . S
H932 C909 0.929 . S
H933 C910 0.931 . S
H934 C912 0.930 . S
H935 C913 0.930 . S
Tb936 C938 2.809 . S
Tb936 O956 2.484 . S
Tb936 O957 2.434 1_554 S
Tb936 O958 2.658 . S
Tb936 O959 2.409 1_554 S
Tb936 O960 2.378 . S
Tb936 O964 2.325 . S
Tb936 O967 2.341 . S
Tb937 C947 2.809 1_455 S
Tb937 O958 2.325 . S
Tb937 O961 2.341 . S
Tb937 O962 2.484 1_455 S
Tb937 O963 2.440 1_455 S
Tb937 O964 2.658 . S
Tb937 O965 2.409 . S
Tb937 O966 2.378 . S
C938 Tb936 2.809 . S
C938 C939 1.514 . S
C938 O956 1.248 . S
C938 O957 1.258 1_554 S
C939 C938 1.514 . S
C939 C940 1.359 . S
C939 C944 1.348 1_554 S
C940 C939 1.359 . S
C940 C941 1.380 . S
C940 H968 0.929 . S
C941 C940 1.380 . S
C941 C942 1.347 . S
C941 H969 0.931 . S
C942 C941 1.347 . S
C942 C943 1.369 1_554 S
C943 C942 1.369 1_556 S
C943 C944 1.408 . S
C943 H970 0.930 . S
C944 C939 1.348 1_556 S
C944 C943 1.408 . S
C944 H971 0.930 . S
C945 O958 1.281 1_556 S
C945 O959 1.254 . S
C946 O960 1.236 . S
C946 O961 1.266 . S
C947 Tb937 2.809 1_655 S
C947 C948 1.514 . S
C947 O962 1.248 . S
C947 O963 1.266 . S
C948 C947 1.514 . S
C948 C949 1.359 . S
C948 C953 1.348 . S
C949 C948 1.359 . S
C949 C950 1.380 . S
C949 H972 0.929 . S
C950 C949 1.380 . S
C950 C951 1.347 . S
C950 H973 0.931 . S
C951 C950 1.347 . S
C951 C952 1.369 . S
C952 C951 1.369 . S
C952 C953 1.408 . S
C952 H974 0.930 . S
C953 C948 1.348 . S
C953 C952 1.408 . S
C953 H975 0.930 . S
C954 O964 1.281 . S
C954 O965 1.254 . S
C955 O966 1.236 . S
C955 O967 1.266 . S
O956 Tb936 2.484 . S
O956 C938 1.248 . S
O957 Tb936 2.434 1_556 S
O957 C938 1.258 1_556 S
O958 Tb936 2.658 . S
O958 Tb937 2.325 . S
O958 C945 1.281 1_554 S
O959 Tb936 2.409 1_556 S
O959 C945 1.254 . S
O960 Tb936 2.378 . S
O960 C946 1.236 . S
O961 Tb937 2.341 . S
O961 C946 1.266 . S
O962 Tb937 2.484 1_655 S
O962 C947 1.248 . S
O963 Tb937 2.440 1_655 S
O963 C947 1.266 . S
O964 Tb936 2.325 . S
O964 Tb937 2.658 . S
O964 C954 1.281 . S
O965 Tb937 2.409 . S
O965 C954 1.254 . S
O966 Tb937 2.378 . S
O966 C955 1.236 . S
O967 Tb936 2.341 . S
O967 C955 1.266 . S
H968 C940 0.929 . S
H969 C941 0.931 . S
H970 C943 0.930 . S
H971 C944 0.930 . S
H972 C949 0.929 . S
H973 C950 0.931 . S
H974 C952 0.930 . S
H975 C953 0.930 . S
H976 C994 0.956 . S
H977 C996 0.951 1_655 S
H978 C998 0.950 . S
H979 C999 0.950 . S
H980 C1001 0.950 . S
H981 C1004 0.950 1_455 S
H982 C1005 0.950 . S
H983 C1007 0.950 . S
H984 C1008 0.950 . S
H985 C1009 0.951 . S
H986 C1011 0.951 . S
H987 C1013 0.923 1_655 S
H988 C1014 0.950 . S
H989 C1016 0.956 1_554 S
H990 C1019 0.950 . S
H991 C1020 0.950 . S
H992 C1022 0.950 . S
H993 C1023 0.950 . S
C994 H976 0.956 . S
C994 C995 1.362 1_655 S
C994 C996 1.387 1_655 S
C995 C994 1.362 1_455 S
C995 C999 1.385 . S
C996 H977 0.951 1_455 S
C996 C994 1.387 1_455 S
C996 C997 1.366 . S
C997 C996 1.366 . S
C997 C998 1.414 . S
C997 C1000 1.499 . S
C998 H978 0.950 . S
C998 C997 1.414 . S
C998 C999 1.374 . S
C999 H979 0.950 . S
C999 C995 1.385 . S
C999 C998 1.374 . S
C1000 C997 1.499 . S
C1000 C1001 1.373 . S
C1000 C1002 1.389 . S
C1001 H980 0.950 . S
C1001 C1000 1.373 . S
C1001 C1017 1.377 . S
C1002 C1000 1.389 . S
C1002 C1003 1.524 1_455 S
C1002 C1016 1.377 . S
C1003 C1002 1.524 1_655 S
C1003 C1004 1.397 1_556 S
C1003 C1008 1.363 . S
C1004 H981 0.950 1_655 S
C1004 C1003 1.397 1_554 S
C1004 C1005 1.334 . S
C1005 H982 0.950 . S
C1005 C1004 1.334 . S
C1005 C1006 1.287 . S
C1006 C1005 1.287 . S
C1006 C1007 1.524 1_554 S
C1006 H1025 0.913 . S
C1007 H983 0.950 . S
C1007 C1006 1.524 1_556 S
C1007 C1008 1.415 . S
C1008 H984 0.950 . S
C1008 C1003 1.363 . S
C1008 C1007 1.415 . S
C1009 H985 0.951 . S
C1009 C1010 1.366 . S
C1009 C1011 1.388 . S
C1010 C1009 1.366 . S
C1010 C1014 1.385 . S
C1011 H986 0.951 . S
C1011 C1009 1.388 . S
C1011 C1012 1.366 1_554 S
C1012 C1011 1.366 1_556 S
C1012 C1013 1.414 . S
C1012 C1015 1.499 . S
C1013 H987 0.923 1_455 S
C1013 C1012 1.414 . S
C1013 C1014 1.374 1_556 S
C1014 H988 0.950 . S
C1014 C1010 1.385 . S
C1014 C1013 1.374 1_554 S
C1015 C1012 1.499 . S
C1015 C1016 1.373 . S
C1015 C1017 1.389 . S
C1016 H989 0.956 1_556 S
C1016 C1002 1.377 . S
C1016 C1015 1.373 . S
C1017 C1001 1.377 . S
C1017 C1015 1.389 . S
C1017 C1018 1.524 . S
C1018 C1017 1.524 . S
C1018 C1019 1.397 . S
C1018 C1023 1.363 . S
C1019 H990 0.950 . S
C1019 C1018 1.397 . S
C1019 C1020 1.334 . S
C1020 H991 0.950 . S
C1020 C1019 1.334 . S
C1020 C1021 1.287 . S
C1021 C1020 1.287 . S
C1021 C1022 1.524 . S
C1021 H1024 0.999 . S
C1022 H992 0.950 . S
C1022 C1021 1.524 . S
C1022 C1023 1.415 . S
C1023 H993 0.950 . S
C1023 C1018 1.363 . S
C1023 C1022 1.415 . S
H1024 C1021 0.999 . S
H1025 C1006 0.913 . S
H1026 C1044 0.951 . S
H1027 C1046 0.951 . S
H1028 C1048 0.950 . S
H1029 C1049 0.950 . S
H1030 C1051 0.950 . S
H1031 C1054 0.950 . S
H1032 C1055 0.950 . S
H1033 C1057 0.950 . S
H1034 C1058 0.950 . S
H1035 C1059 0.951 . S
H1036 C1061 0.951 . S
H1037 C1063 0.950 . S
H1038 C1064 0.950 . S
H1039 C1066 0.950 . S
H1040 C1069 0.950 . S
H1041 C1070 0.950 . S
H1042 C1072 0.950 . S
H1043 C1073 0.950 . S
C1044 H1026 0.951 . S
C1044 C1045 1.366 . S
C1044 C1046 1.388 . S
C1045 C1044 1.366 . S
C1045 C1049 1.385 . S
C1046 H1027 0.951 . S
C1046 C1044 1.388 . S
C1046 C1047 1.366 . S
C1047 C1046 1.366 . S
C1047 C1048 1.414 . S
C1047 C1050 1.499 . S
C1048 H1028 0.950 . S
C1048 C1047 1.414 . S
C1048 C1049 1.374 . S
C1049 H1029 0.950 . S
C1049 C1045 1.385 . S
C1049 C1048 1.374 . S
C1050 C1047 1.499 . S
C1050 C1051 1.373 . S
C1050 C1052 1.389 . S
C1051 H1030 0.950 . S
C1051 C1050 1.373 . S
C1051 C1067 1.377 . S
C1052 C1050 1.389 . S
C1052 C1053 1.524 . S
C1052 C1066 1.377 . S
C1053 C1052 1.524 . S
C1053 C1054 1.397 . S
C1053 C1058 1.363 . S
C1054 H1031 0.950 . S
C1054 C1053 1.397 . S
C1054 C1055 1.334 . S
C1055 H1032 0.950 . S
C1055 C1054 1.334 . S
C1055 C1056 1.287 . S
C1056 C1055 1.287 . S
C1056 C1057 1.524 . S
C1056 H1075 0.913 . S
C1057 H1033 0.950 . S
C1057 C1056 1.524 . S
C1057 C1058 1.415 . S
C1058 H1034 0.950 . S
C1058 C1053 1.363 . S
C1058 C1057 1.415 . S
C1059 H1035 0.951 . S
C1059 C1060 1.366 . S
C1059 C1061 1.388 . S
C1060 C1059 1.366 . S
C1060 C1064 1.385 . S
C1061 H1036 0.951 . S
C1061 C1059 1.388 . S
C1061 C1062 1.366 . S
C1062 C1061 1.366 . S
C1062 C1063 1.414 . S
C1062 C1065 1.499 . S
C1063 H1037 0.950 . S
C1063 C1062 1.414 . S
C1063 C1064 1.374 . S
C1064 H1038 0.950 . S
C1064 C1060 1.385 . S
C1064 C1063 1.374 . S
C1065 C1062 1.499 . S
C1065 C1066 1.373 . S
C1065 C1067 1.389 . S
C1066 H1039 0.950 . S
C1066 C1052 1.377 . S
C1066 C1065 1.373 . S
C1067 C1051 1.377 . S
C1067 C1065 1.389 . S
C1067 C1068 1.524 . S
C1068 C1067 1.524 . S
C1068 C1069 1.397 . S
C1068 C1073 1.363 . S
C1069 H1040 0.950 . S
C1069 C1068 1.397 . S
C1069 C1070 1.334 . S
C1070 H1041 0.950 . S
C1070 C1069 1.334 . S
C1070 C1071 1.287 . S
C1071 C1070 1.287 . S
C1071 C1072 1.524 . S
C1071 H1074 0.999 . S
C1072 H1042 0.950 . S
C1072 C1071 1.524 . S
C1072 C1073 1.415 . S
C1073 H1043 0.950 . S
C1073 C1068 1.363 . S
C1073 C1072 1.415 . S
H1074 C1071 0.999 . S
H1075 C1056 0.913 . S
H1076 C1094 0.951 . S
H1077 C1096 0.951 . S
H1078 C1098 0.950 . S
H1079 C1099 0.950 . S
H1080 C1101 0.950 . S
H1081 C1104 0.950 . S
H1082 C1105 0.950 . S
H1083 C1107 0.950 . S
H1084 C1108 0.950 . S
H1085 C1109 0.951 . S
H1086 C1111 0.951 . S
H1087 C1113 0.950 . S
H1088 C1114 0.950 . S
H1089 C1116 0.950 . S
H1090 C1119 0.950 . S
H1091 C1120 0.950 . S
H1092 C1122 0.950 . S
H1093 C1123 0.950 . S
C1094 H1076 0.951 . S
C1094 C1095 1.366 . S
C1094 C1096 1.388 . S
C1095 C1094 1.366 . S
C1095 C1099 1.385 . S
C1096 H1077 0.951 . S
C1096 C1094 1.388 . S
C1096 C1097 1.366 . S
C1097 C1096 1.366 . S
C1097 C1098 1.414 . S
C1097 C1100 1.499 . S
C1098 H1078 0.950 . S
C1098 C1097 1.414 . S
C1098 C1099 1.374 . S
C1099 H1079 0.950 . S
C1099 C1095 1.385 . S
C1099 C1098 1.374 . S
C1100 C1097 1.499 . S
C1100 C1101 1.373 . S
C1100 C1102 1.389 . S
C1101 H1080 0.950 . S
C1101 C1100 1.373 . S
C1101 C1117 1.377 . S
C1102 C1100 1.389 . S
C1102 C1103 1.524 . S
C1102 C1116 1.377 . S
C1103 C1102 1.524 . S
C1103 C1104 1.397 . S
C1103 C1108 1.363 . S
C1104 H1081 0.950 . S
C1104 C1103 1.397 . S
C1104 C1105 1.334 . S
C1105 H1082 0.950 . S
C1105 C1104 1.334 . S
C1105 C1106 1.287 . S
C1106 C1105 1.287 . S
C1106 C1107 1.524 . S
C1106 H1125 0.913 . S
C1107 H1083 0.950 . S
C1107 C1106 1.524 . S
C1107 C1108 1.415 . S
C1108 H1084 0.950 . S
C1108 C1103 1.363 . S
C1108 C1107 1.415 . S
C1109 H1085 0.951 . S
C1109 C1110 1.366 . S
C1109 C1111 1.388 . S
C1110 C1109 1.366 . S
C1110 C1114 1.385 . S
C1111 H1086 0.951 . S
C1111 C1109 1.388 . S
C1111 C1112 1.366 . S
C1112 C1111 1.366 . S
C1112 C1113 1.414 . S
C1112 C1115 1.499 . S
C1113 H1087 0.950 . S
C1113 C1112 1.414 . S
C1113 C1114 1.374 . S
C1114 H1088 0.950 . S
C1114 C1110 1.385 . S
C1114 C1113 1.374 . S
C1115 C1112 1.499 . S
C1115 C1116 1.373 . S
C1115 C1117 1.389 . S
C1116 H1089 0.950 . S
C1116 C1102 1.377 . S
C1116 C1115 1.373 . S
C1117 C1101 1.377 . S
C1117 C1115 1.389 . S
C1117 C1118 1.524 . S
C1118 C1117 1.524 . S
C1118 C1119 1.397 . S
C1118 C1123 1.363 . S
C1119 H1090 0.950 . S
C1119 C1118 1.397 . S
C1119 C1120 1.334 . S
C1120 H1091 0.950 . S
C1120 C1119 1.334 . S
C1120 C1121 1.287 . S
C1121 C1120 1.287 . S
C1121 C1122 1.524 . S
C1121 H1124 0.999 . S
C1122 H1092 0.950 . S
C1122 C1121 1.524 . S
C1122 C1123 1.415 . S
C1123 H1093 0.950 . S
C1123 C1118 1.363 . S
C1123 C1122 1.415 . S
H1124 C1121 0.999 . S
H1125 C1106 0.913 . S
H1126 C1144 0.951 . S
H1127 C1146 0.951 . S
H1128 C1148 0.950 . S
H1129 C1149 0.950 . S
H1130 C1151 0.950 . S
H1131 C1154 0.950 . S
H1132 C1155 0.950 . S
H1133 C1157 0.950 . S
H1134 C1158 0.950 . S
H1135 C1159 0.951 . S
H1136 C1161 0.951 . S
H1137 C1163 0.950 . S
H1138 C1164 0.950 . S
H1139 C1166 0.950 . S
H1140 C1169 0.950 . S
H1141 C1170 0.950 . S
H1142 C1172 0.950 . S
H1143 C1173 0.950 . S
C1144 H1126 0.951 . S
C1144 C1145 1.366 . S
C1144 C1146 1.388 . S
C1145 C1144 1.366 . S
C1145 C1149 1.385 . S
C1146 H1127 0.951 . S
C1146 C1144 1.388 . S
C1146 C1147 1.366 . S
C1147 C1146 1.366 . S
C1147 C1148 1.414 . S
C1147 C1150 1.499 . S
C1148 H1128 0.950 . S
C1148 C1147 1.414 . S
C1148 C1149 1.374 . S
C1149 H1129 0.950 . S
C1149 C1145 1.385 . S
C1149 C1148 1.374 . S
C1150 C1147 1.499 . S
C1150 C1151 1.373 . S
C1150 C1152 1.389 . S
C1151 H1130 0.950 . S
C1151 C1150 1.373 . S
C1151 C1167 1.377 . S
C1152 C1150 1.389 . S
C1152 C1153 1.524 . S
C1152 C1166 1.377 . S
C1153 C1152 1.524 . S
C1153 C1154 1.397 . S
C1153 C1158 1.363 . S
C1154 H1131 0.950 . S
C1154 C1153 1.397 . S
C1154 C1155 1.334 . S
C1155 H1132 0.950 . S
C1155 C1154 1.334 . S
C1155 C1156 1.287 . S
C1156 C1155 1.287 . S
C1156 C1157 1.524 . S
C1156 H1175 0.913 . S
C1157 H1133 0.950 . S
C1157 C1156 1.524 . S
C1157 C1158 1.415 . S
C1158 H1134 0.950 . S
C1158 C1153 1.363 . S
C1158 C1157 1.415 . S
C1159 H1135 0.951 . S
C1159 C1160 1.366 . S
C1159 C1161 1.388 . S
C1160 C1159 1.366 . S
C1160 C1164 1.385 . S
C1161 H1136 0.951 . S
C1161 C1159 1.388 . S
C1161 C1162 1.366 . S
C1162 C1161 1.366 . S
C1162 C1163 1.414 . S
C1162 C1165 1.499 . S
C1163 H1137 0.950 . S
C1163 C1162 1.414 . S
C1163 C1164 1.374 . S
C1164 H1138 0.950 . S
C1164 C1160 1.385 . S
C1164 C1163 1.374 . S
C1165 C1162 1.499 . S
C1165 C1166 1.373 . S
C1165 C1167 1.389 . S
C1166 H1139 0.950 . S
C1166 C1152 1.377 . S
C1166 C1165 1.373 . S
C1167 C1151 1.377 . S
C1167 C1165 1.389 . S
C1167 C1168 1.524 . S
C1168 C1167 1.524 . S
C1168 C1169 1.397 . S
C1168 C1173 1.363 . S
C1169 H1140 0.950 . S
C1169 C1168 1.397 . S
C1169 C1170 1.334 . S
C1170 H1141 0.950 . S
C1170 C1169 1.334 . S
C1170 C1171 1.287 . S
C1171 C1170 1.287 . S
C1171 C1172 1.524 . S
C1171 H1174 0.999 . S
C1172 H1142 0.950 . S
C1172 C1171 1.524 . S
C1172 C1173 1.415 . S
C1173 H1143 0.950 . S
C1173 C1168 1.363 . S
C1173 C1172 1.415 . S
H1174 C1171 0.999 . S
H1175 C1156 0.913 . S
H1176 C1194 0.951 . S
H1177 C1196 0.951 . S
H1178 C1198 0.950 . S
H1179 C1199 0.950 . S
H1180 C1201 0.950 . S
H1181 C1204 0.950 . S
H1182 C1205 0.950 . S
H1183 C1207 0.950 . S
H1184 C1208 0.950 . S
H1185 C1209 0.951 . S
H1186 C1211 0.951 . S
H1187 C1213 0.950 . S
H1188 C1214 0.950 . S
H1189 C1216 0.950 . S
H1190 C1219 0.950 . S
H1191 C1220 0.950 . S
H1192 C1222 0.950 . S
H1193 C1223 0.950 . S
C1194 H1176 0.951 . S
C1194 C1195 1.366 . S
C1194 C1196 1.388 . S
C1195 C1194 1.366 . S
C1195 C1199 1.385 . S
C1196 H1177 0.951 . S
C1196 C1194 1.388 . S
C1196 C1197 1.366 . S
C1197 C1196 1.366 . S
C1197 C1198 1.414 . S
C1197 C1200 1.499 . S
C1198 H1178 0.950 . S
C1198 C1197 1.414 . S
C1198 C1199 1.374 . S
C1199 H1179 0.950 . S
C1199 C1195 1.385 . S
C1199 C1198 1.374 . S
C1200 C1197 1.499 . S
C1200 C1201 1.373 . S
C1200 C1202 1.389 . S
C1201 H1180 0.950 . S
C1201 C1200 1.373 . S
C1201 C1217 1.377 . S
C1202 C1200 1.389 . S
C1202 C1203 1.524 . S
C1202 C1216 1.377 . S
C1203 C1202 1.524 . S
C1203 C1204 1.397 . S
C1203 C1208 1.363 . S
C1204 H1181 0.950 . S
C1204 C1203 1.397 . S
C1204 C1205 1.334 . S
C1205 H1182 0.950 . S
C1205 C1204 1.334 . S
C1205 C1206 1.287 . S
C1206 C1205 1.287 . S
C1206 C1207 1.524 . S
C1206 H1225 0.913 . S
C1207 H1183 0.950 . S
C1207 C1206 1.524 . S
C1207 C1208 1.415 . S
C1208 H1184 0.950 . S
C1208 C1203 1.363 . S
C1208 C1207 1.415 . S
C1209 H1185 0.951 . S
C1209 C1210 1.366 . S
C1209 C1211 1.388 . S
C1210 C1209 1.366 . S
C1210 C1214 1.385 . S
C1211 H1186 0.951 . S
C1211 C1209 1.388 . S
C1211 C1212 1.366 . S
C1212 C1211 1.366 . S
C1212 C1213 1.414 . S
C1212 C1215 1.499 . S
C1213 H1187 0.950 . S
C1213 C1212 1.414 . S
C1213 C1214 1.374 . S
C1214 H1188 0.950 . S
C1214 C1210 1.385 . S
C1214 C1213 1.374 . S
C1215 C1212 1.499 . S
C1215 C1216 1.373 . S
C1215 C1217 1.389 . S
C1216 H1189 0.950 . S
C1216 C1202 1.377 . S
C1216 C1215 1.373 . S
C1217 C1201 1.377 . S
C1217 C1215 1.389 . S
C1217 C1218 1.524 . S
C1218 C1217 1.524 . S
C1218 C1219 1.397 . S
C1218 C1223 1.363 . S
C1219 H1190 0.950 . S
C1219 C1218 1.397 . S
C1219 C1220 1.334 . S
C1220 H1191 0.950 . S
C1220 C1219 1.334 . S
C1220 C1221 1.287 . S
C1221 C1220 1.287 . S
C1221 C1222 1.524 . S
C1221 H1224 0.999 . S
C1222 H1192 0.950 . S
C1222 C1221 1.524 . S
C1222 C1223 1.415 . S
C1223 H1193 0.950 . S
C1223 C1218 1.363 . S
C1223 C1222 1.415 . S
H1224 C1221 0.999 . S
H1225 C1206 0.913 . S
H1226 C1244 0.951 . S
H1227 C1246 0.951 . S
H1228 C1248 0.950 . S
H1229 C1249 0.950 . S
H1230 C1251 0.950 . S
H1231 C1254 0.950 . S
H1232 C1255 0.950 . S
H1233 C1257 0.950 . S
H1234 C1258 0.950 . S
H1235 C1259 0.951 . S
H1236 C1261 0.951 . S
H1237 C1263 0.950 . S
H1238 C1264 0.950 . S
H1239 C1266 0.950 . S
H1240 C1269 0.950 . S
H1241 C1270 0.950 . S
H1242 C1272 0.950 . S
H1243 C1273 0.950 . S
C1244 H1226 0.951 . S
C1244 C1245 1.366 . S
C1244 C1246 1.388 . S
C1245 C1244 1.366 . S
C1245 C1249 1.385 . S
C1246 H1227 0.951 . S
C1246 C1244 1.388 . S
C1246 C1247 1.366 . S
C1247 C1246 1.366 . S
C1247 C1248 1.414 . S
C1247 C1250 1.499 . S
C1248 H1228 0.950 . S
C1248 C1247 1.414 . S
C1248 C1249 1.374 . S
C1249 H1229 0.950 . S
C1249 C1245 1.385 . S
C1249 C1248 1.374 . S
C1250 C1247 1.499 . S
C1250 C1251 1.373 . S
C1250 C1252 1.389 . S
C1251 H1230 0.950 . S
C1251 C1250 1.373 . S
C1251 C1267 1.377 . S
C1252 C1250 1.389 . S
C1252 C1253 1.524 . S
C1252 C1266 1.377 . S
C1253 C1252 1.524 . S
C1253 C1254 1.397 . S
C1253 C1258 1.363 . S
C1254 H1231 0.950 . S
C1254 C1253 1.397 . S
C1254 C1255 1.334 . S
C1255 H1232 0.950 . S
C1255 C1254 1.334 . S
C1255 C1256 1.287 . S
C1256 C1255 1.287 . S
C1256 C1257 1.524 . S
C1256 H1275 0.913 . S
C1257 H1233 0.950 . S
C1257 C1256 1.524 . S
C1257 C1258 1.415 . S
C1258 H1234 0.950 . S
C1258 C1253 1.363 . S
C1258 C1257 1.415 . S
C1259 H1235 0.951 . S
C1259 C1260 1.366 . S
C1259 C1261 1.388 . S
C1260 C1259 1.366 . S
C1260 C1264 1.385 . S
C1261 H1236 0.951 . S
C1261 C1259 1.388 . S
C1261 C1262 1.366 . S
C1262 C1261 1.366 . S
C1262 C1263 1.414 . S
C1262 C1265 1.499 . S
C1263 H1237 0.950 . S
C1263 C1262 1.414 . S
C1263 C1264 1.374 . S
C1264 H1238 0.950 . S
C1264 C1260 1.385 . S
C1264 C1263 1.374 . S
C1265 C1262 1.499 . S
C1265 C1266 1.373 . S
C1265 C1267 1.389 . S
C1266 H1239 0.950 . S
C1266 C1252 1.377 . S
C1266 C1265 1.373 . S
C1267 C1251 1.377 . S
C1267 C1265 1.389 . S
C1267 C1268 1.524 . S
C1268 C1267 1.524 . S
C1268 C1269 1.397 . S
C1268 C1273 1.363 . S
C1269 H1240 0.950 . S
C1269 C1268 1.397 . S
C1269 C1270 1.334 . S
C1270 H1241 0.950 . S
C1270 C1269 1.334 . S
C1270 C1271 1.287 . S
C1271 C1270 1.287 . S
C1271 C1272 1.524 . S
C1271 H1274 0.999 . S
C1272 H1242 0.950 . S
C1272 C1271 1.524 . S
C1272 C1273 1.415 . S
C1273 H1243 0.950 . S
C1273 C1268 1.363 . S
C1273 C1272 1.415 . S
H1274 C1271 0.999 . S
H1275 C1256 0.913 . S
H1276 C1294 0.951 . S
H1277 C1296 0.951 . S
H1278 C1298 0.950 . S
H1279 C1299 0.950 . S
H1280 C1301 0.950 . S
H1281 C1304 0.950 . S
H1282 C1305 0.950 . S
H1283 C1307 0.950 . S
H1284 C1308 0.950 . S
H1285 C1309 0.951 . S
H1286 C1311 0.951 . S
H1287 C1313 0.950 . S
H1288 C1314 0.950 . S
H1289 C1316 0.950 . S
H1290 C1319 0.950 . S
H1291 C1320 0.950 . S
H1292 C1322 0.950 . S
H1293 C1323 0.950 . S
C1294 H1276 0.951 . S
C1294 C1295 1.366 . S
C1294 C1296 1.388 . S
C1295 C1294 1.366 . S
C1295 C1299 1.385 . S
C1296 H1277 0.951 . S
C1296 C1294 1.388 . S
C1296 C1297 1.366 . S
C1297 C1296 1.366 . S
C1297 C1298 1.414 . S
C1297 C1300 1.499 . S
C1298 H1278 0.950 . S
C1298 C1297 1.414 . S
C1298 C1299 1.374 . S
C1299 H1279 0.950 . S
C1299 C1295 1.385 . S
C1299 C1298 1.374 . S
C1300 C1297 1.499 . S
C1300 C1301 1.373 . S
C1300 C1302 1.389 . S
C1301 H1280 0.950 . S
C1301 C1300 1.373 . S
C1301 C1317 1.377 . S
C1302 C1300 1.389 . S
C1302 C1303 1.524 . S
C1302 C1316 1.377 . S
C1303 C1302 1.524 . S
C1303 C1304 1.397 . S
C1303 C1308 1.363 . S
C1304 H1281 0.950 . S
C1304 C1303 1.397 . S
C1304 C1305 1.334 . S
C1305 H1282 0.950 . S
C1305 C1304 1.334 . S
C1305 C1306 1.287 . S
C1306 C1305 1.287 . S
C1306 C1307 1.524 . S
C1306 H1325 0.913 . S
C1307 H1283 0.950 . S
C1307 C1306 1.524 . S
C1307 C1308 1.415 . S
C1308 H1284 0.950 . S
C1308 C1303 1.363 . S
C1308 C1307 1.415 . S
C1309 H1285 0.951 . S
C1309 C1310 1.366 . S
C1309 C1311 1.388 . S
C1310 C1309 1.366 . S
C1310 C1314 1.385 . S
C1311 H1286 0.951 . S
C1311 C1309 1.388 . S
C1311 C1312 1.366 . S
C1312 C1311 1.366 . S
C1312 C1313 1.414 . S
C1312 C1315 1.499 . S
C1313 H1287 0.950 . S
C1313 C1312 1.414 . S
C1313 C1314 1.374 . S
C1314 H1288 0.950 . S
C1314 C1310 1.385 . S
C1314 C1313 1.374 . S
C1315 C1312 1.499 . S
C1315 C1316 1.373 . S
C1315 C1317 1.389 . S
C1316 H1289 0.950 . S
C1316 C1302 1.377 . S
C1316 C1315 1.373 . S
C1317 C1301 1.377 . S
C1317 C1315 1.389 . S
C1317 C1318 1.524 . S
C1318 C1317 1.524 . S
C1318 C1319 1.397 . S
C1318 C1323 1.363 . S
C1319 H1290 0.950 . S
C1319 C1318 1.397 . S
C1319 C1320 1.334 . S
C1320 H1291 0.950 . S
C1320 C1319 1.334 . S
C1320 C1321 1.287 . S
C1321 C1320 1.287 . S
C1321 C1322 1.524 . S
C1321 H1324 0.999 . S
C1322 H1292 0.950 . S
C1322 C1321 1.524 . S
C1322 C1323 1.415 . S
C1323 H1293 0.950 . S
C1323 C1318 1.363 . S
C1323 C1322 1.415 . S
H1324 C1321 0.999 . S
H1325 C1306 0.913 . S
H1326 C1344 0.951 . S
H1327 C1346 0.951 . S
H1328 C1348 0.950 . S
H1329 C1349 0.950 . S
H1330 C1351 0.950 . S
H1331 C1354 0.950 . S
H1332 C1355 0.950 . S
H1333 C1357 0.950 . S
H1334 C1358 0.950 . S
H1335 C1359 0.951 . S
H1336 C1361 0.951 . S
H1337 C1363 0.950 . S
H1338 C1364 0.950 . S
H1339 C1366 0.950 . S
H1340 C1369 0.950 . S
H1341 C1370 0.950 . S
H1342 C1372 0.950 . S
H1343 C1373 0.950 . S
C1344 H1326 0.951 . S
C1344 C1345 1.366 . S
C1344 C1346 1.388 . S
C1345 C1344 1.366 . S
C1345 C1349 1.385 . S
C1346 H1327 0.951 . S
C1346 C1344 1.388 . S
C1346 C1347 1.366 . S
C1347 C1346 1.366 . S
C1347 C1348 1.414 . S
C1347 C1350 1.499 . S
C1348 H1328 0.950 . S
C1348 C1347 1.414 . S
C1348 C1349 1.374 . S
C1349 H1329 0.950 . S
C1349 C1345 1.385 . S
C1349 C1348 1.374 . S
C1350 C1347 1.499 . S
C1350 C1351 1.373 . S
C1350 C1352 1.389 . S
C1351 H1330 0.950 . S
C1351 C1350 1.373 . S
C1351 C1367 1.377 . S
C1352 C1350 1.389 . S
C1352 C1353 1.524 . S
C1352 C1366 1.377 . S
C1353 C1352 1.524 . S
C1353 C1354 1.397 . S
C1353 C1358 1.363 . S
C1354 H1331 0.950 . S
C1354 C1353 1.397 . S
C1354 C1355 1.334 . S
C1355 H1332 0.950 . S
C1355 C1354 1.334 . S
C1355 C1356 1.287 . S
C1356 C1355 1.287 . S
C1356 C1357 1.524 . S
C1356 H1375 0.913 . S
C1357 H1333 0.950 . S
C1357 C1356 1.524 . S
C1357 C1358 1.415 . S
C1358 H1334 0.950 . S
C1358 C1353 1.363 . S
C1358 C1357 1.415 . S
C1359 H1335 0.951 . S
C1359 C1360 1.366 . S
C1359 C1361 1.388 . S
C1360 C1359 1.366 . S
C1360 C1364 1.385 . S
C1361 H1336 0.951 . S
C1361 C1359 1.388 . S
C1361 C1362 1.366 . S
C1362 C1361 1.366 . S
C1362 C1363 1.414 . S
C1362 C1365 1.499 . S
C1363 H1337 0.950 . S
C1363 C1362 1.414 . S
C1363 C1364 1.374 . S
C1364 H1338 0.950 . S
C1364 C1360 1.385 . S
C1364 C1363 1.374 . S
C1365 C1362 1.499 . S
C1365 C1366 1.373 . S
C1365 C1367 1.389 . S
C1366 H1339 0.950 . S
C1366 C1352 1.377 . S
C1366 C1365 1.373 . S
C1367 C1351 1.377 . S
C1367 C1365 1.389 . S
C1367 C1368 1.524 . S
C1368 C1367 1.524 . S
C1368 C1369 1.397 . S
C1368 C1373 1.363 . S
C1369 H1340 0.950 . S
C1369 C1368 1.397 . S
C1369 C1370 1.334 . S
C1370 H1341 0.950 . S
C1370 C1369 1.334 . S
C1370 C1371 1.287 . S
C1371 C1370 1.287 . S
C1371 C1372 1.524 . S
C1371 H1374 0.999 . S
C1372 H1342 0.950 . S
C1372 C1371 1.524 . S
C1372 C1373 1.415 . S
C1373 H1343 0.950 . S
C1373 C1368 1.363 . S
C1373 C1372 1.415 . S
H1374 C1371 0.999 . S
H1375 C1356 0.913 . S
H1376 C1394 0.951 . S
H1377 C1396 0.951 . S
H1378 C1398 0.950 . S
H1379 C1399 0.948 1_565 S
H1380 C1401 0.950 . S
H1381 C1404 0.950 . S
H1382 C1405 0.950 . S
H1383 C1407 0.950 . S
H1384 C1408 0.950 . S
H1385 C1409 0.951 . S
H1386 C1411 0.951 . S
H1387 C1413 0.950 . S
H1388 C1414 0.950 . S
H1389 C1416 0.950 1_455 S
H1390 C1419 0.968 . S
H1391 C1420 0.950 . S
H1392 C1422 0.950 . S
H1393 C1423 0.950 . S
C1394 H1376 0.951 . S
C1394 C1395 1.366 . S
C1394 C1396 1.388 . S
C1395 C1394 1.366 . S
C1395 C1399 1.385 . S
C1396 H1377 0.951 . S
C1396 C1394 1.388 . S
C1396 C1397 1.366 . S
C1397 C1396 1.366 . S
C1397 C1398 1.414 . S
C1397 C1400 1.499 . S
C1398 H1378 0.950 . S
C1398 C1397 1.414 . S
C1398 C1399 1.374 . S
C1399 H1379 0.948 1_545 S
C1399 C1395 1.385 . S
C1399 C1398 1.374 . S
C1400 C1397 1.499 . S
C1400 C1401 1.373 1_545 S
C1400 C1402 1.389 . S
C1401 H1380 0.950 . S
C1401 C1400 1.373 1_565 S
C1401 C1417 1.377 . S
C1402 C1400 1.389 . S
C1402 C1403 1.524 . S
C1402 C1416 1.377 . S
C1403 C1402 1.524 . S
C1403 C1404 1.397 . S
C1403 C1408 1.363 1_655 S
C1404 H1381 0.950 . S
C1404 C1403 1.397 . S
C1404 C1405 1.334 . S
C1405 H1382 0.950 . S
C1405 C1404 1.334 . S
C1405 C1406 1.287 . S
C1406 C1405 1.287 . S
C1406 C1407 1.524 1_655 S
C1406 H1425 0.913 . S
C1407 H1383 0.950 . S
C1407 C1406 1.524 1_455 S
C1407 C1408 1.415 . S
C1408 H1384 0.950 . S
C1408 C1403 1.363 1_455 S
C1408 C1407 1.415 . S
C1409 H1385 0.951 . S
C1409 C1410 1.366 1_655 S
C1409 C1411 1.388 . S
C1410 C1409 1.366 1_455 S
C1410 C1414 1.385 . S
C1411 H1386 0.951 . S
C1411 C1409 1.388 . S
C1411 C1412 1.367 1_655 S
C1412 C1411 1.367 1_455 S
C1412 C1413 1.410 . S
C1412 C1415 1.501 1_455 S
C1413 H1387 0.950 . S
C1413 C1412 1.410 . S
C1413 C1414 1.374 . S
C1414 H1388 0.950 . S
C1414 C1410 1.385 . S
C1414 C1413 1.374 . S
C1415 C1412 1.501 1_655 S
C1415 C1416 1.373 . S
C1415 C1417 1.389 1_545 S
C1416 H1389 0.950 1_655 S
C1416 C1402 1.377 . S
C1416 C1415 1.373 . S
C1417 C1401 1.377 . S
C1417 C1415 1.389 1_565 S
C1417 C1418 1.524 . S
C1418 C1417 1.524 . S
C1418 C1419 1.397 . S
C1418 C1423 1.363 . S
C1419 H1390 0.968 . S
C1419 C1418 1.397 . S
C1419 C1420 1.334 . S
C1420 H1391 0.950 . S
C1420 C1419 1.334 . S
C1420 C1421 1.287 . S
C1421 C1420 1.287 . S
C1421 C1422 1.524 . S
C1421 H1424 0.999 . S
C1422 H1392 0.950 . S
C1422 C1421 1.524 . S
C1422 C1423 1.415 . S
C1423 H1393 0.950 . S
C1423 C1418 1.363 . S
C1423 C1422 1.415 . S
H1424 C1421 0.999 . S
H1425 C1406 0.913 . S
H1426 C1444 0.951 . S
H1427 C1446 0.951 . S
H1428 C1448 0.950 . S
H1429 C1449 0.950 . S
H1430 C1451 0.950 . S
H1431 C1454 0.950 . S
H1432 C1455 0.950 . S
H1433 C1457 0.950 . S
H1434 C1458 0.950 . S
H1435 C1459 0.951 . S
H1436 C1461 0.951 . S
H1437 C1463 0.950 . S
H1438 C1464 0.950 . S
H1439 C1466 0.950 . S
H1440 C1469 0.950 . S
H1441 C1470 0.950 . S
H1442 C1472 0.950 . S
H1443 C1473 0.950 . S
C1444 H1426 0.951 . S
C1444 C1445 1.366 . S
C1444 C1446 1.388 . S
C1445 C1444 1.366 . S
C1445 C1449 1.385 . S
C1446 H1427 0.951 . S
C1446 C1444 1.388 . S
C1446 C1447 1.366 . S
C1447 C1446 1.366 . S
C1447 C1448 1.414 . S
C1447 C1450 1.499 . S
C1448 H1428 0.950 . S
C1448 C1447 1.414 . S
C1448 C1449 1.374 . S
C1449 H1429 0.950 . S
C1449 C1445 1.385 . S
C1449 C1448 1.374 . S
C1450 C1447 1.499 . S
C1450 C1451 1.373 . S
C1450 C1452 1.389 . S
C1451 H1430 0.950 . S
C1451 C1450 1.373 . S
C1451 C1467 1.377 . S
C1452 C1450 1.389 . S
C1452 C1453 1.524 . S
C1452 C1466 1.377 . S
C1453 C1452 1.524 . S
C1453 C1454 1.397 . S
C1453 C1458 1.363 . S
C1454 H1431 0.950 . S
C1454 C1453 1.397 . S
C1454 C1455 1.334 . S
C1455 H1432 0.950 . S
C1455 C1454 1.334 . S
C1455 C1456 1.287 . S
C1456 C1455 1.287 . S
C1456 C1457 1.524 . S
C1456 H1475 0.913 . S
C1457 H1433 0.950 . S
C1457 C1456 1.524 . S
C1457 C1458 1.415 . S
C1458 H1434 0.950 . S
C1458 C1453 1.363 . S
C1458 C1457 1.415 . S
C1459 H1435 0.951 . S
C1459 C1460 1.366 . S
C1459 C1461 1.388 . S
C1460 C1459 1.366 . S
C1460 C1464 1.385 . S
C1461 H1436 0.951 . S
C1461 C1459 1.388 . S
C1461 C1462 1.366 . S
C1462 C1461 1.366 . S
C1462 C1463 1.414 . S
C1462 C1465 1.499 . S
C1463 H1437 0.950 . S
C1463 C1462 1.414 . S
C1463 C1464 1.374 . S
C1464 H1438 0.950 . S
C1464 C1460 1.385 . S
C1464 C1463 1.374 . S
C1465 C1462 1.499 . S
C1465 C1466 1.373 . S
C1465 C1467 1.389 . S
C1466 H1439 0.950 . S
C1466 C1452 1.377 . S
C1466 C1465 1.373 . S
C1467 C1451 1.377 . S
C1467 C1465 1.389 . S
C1467 C1468 1.524 . S
C1468 C1467 1.524 . S
C1468 C1469 1.397 . S
C1468 C1473 1.363 . S
C1469 H1440 0.950 . S
C1469 C1468 1.397 . S
C1469 C1470 1.334 . S
C1470 H1441 0.950 . S
C1470 C1469 1.334 . S
C1470 C1471 1.287 . S
C1471 C1470 1.287 . S
C1471 C1472 1.524 . S
C1471 H1474 0.999 . S
C1472 H1442 0.950 . S
C1472 C1471 1.524 . S
C1472 C1473 1.415 . S
C1473 H1443 0.950 . S
C1473 C1468 1.363 . S
C1473 C1472 1.415 . S
H1474 C1471 0.999 . S
H1475 C1456 0.913 . S
H1476 C1494 0.951 . S
H1477 C1496 0.951 . S
H1478 C1498 0.950 . S
H1479 C1499 0.950 . S
H1480 C1501 0.950 . S
H1481 C1504 0.947 1_545 S
H1482 C1505 0.953 . S
H1483 C1507 0.950 . S
H1484 C1508 0.950 . S
H1485 C1509 0.951 . S
H1486 C1511 0.951 . S
H1487 C1513 0.950 . S
H1488 C1514 0.950 . S
H1489 C1516 0.950 . S
H1490 C1519 0.950 . S
H1491 C1520 0.950 . S
H1492 C1522 0.950 . S
H1493 C1523 0.950 . S
C1494 H1476 0.951 . S
C1494 C1495 1.366 1_565 S
C1494 C1496 1.388 . S
C1495 C1494 1.366 1_545 S
C1495 C1499 1.385 . S
C1496 H1477 0.951 . S
C1496 C1494 1.388 . S
C1496 C1497 1.366 1_565 S
C1497 C1496 1.366 1_545 S
C1497 C1498 1.414 . S
C1497 C1500 1.499 . S
C1498 H1478 0.950 . S
C1498 C1497 1.414 . S
C1498 C1499 1.374 . S
C1499 H1479 0.950 . S
C1499 C1495 1.385 . S
C1499 C1498 1.374 . S
C1500 C1497 1.499 . S
C1500 C1501 1.373 . S
C1500 C1502 1.389 1_545 S
C1501 H1480 0.950 . S
C1501 C1500 1.373 . S
C1501 C1517 1.377 . S
C1502 C1500 1.389 1_565 S
C1502 C1503 1.524 . S
C1502 C1516 1.377 . S
C1503 C1502 1.524 . S
C1503 C1504 1.398 . S
C1503 C1508 1.363 . S
C1504 H1481 0.947 1_565 S
C1504 C1503 1.398 . S
C1504 C1505 1.336 . S
C1505 H1482 0.953 . S
C1505 C1504 1.336 . S
C1505 C1506 1.287 . S
C1506 C1505 1.287 . S
C1506 C1507 1.524 . S
C1506 H1525 0.913 . S
C1507 H1483 0.950 . S
C1507 C1506 1.524 . S
C1507 C1508 1.415 . S
C1508 H1484 0.950 . S
C1508 C1503 1.363 . S
C1508 C1507 1.415 . S
C1509 H1485 0.951 . S
C1509 C1510 1.366 . S
C1509 C1511 1.388 . S
C1510 C1509 1.366 . S
C1510 C1514 1.385 1_545 S
C1511 H1486 0.951 . S
C1511 C1509 1.388 . S
C1511 C1512 1.366 . S
C1512 C1511 1.366 . S
C1512 C1513 1.414 1_545 S
C1512 C1515 1.499 . S
C1513 H1487 0.950 . S
C1513 C1512 1.414 1_565 S
C1513 C1514 1.374 . S
C1514 H1488 0.950 . S
C1514 C1510 1.385 1_565 S
C1514 C1513 1.374 . S
C1515 C1512 1.499 . S
C1515 C1516 1.373 1_545 S
C1515 C1517 1.389 . S
C1516 H1489 0.950 . S
C1516 C1502 1.377 . S
C1516 C1515 1.373 1_565 S
C1517 C1501 1.377 . S
C1517 C1515 1.389 . S
C1517 C1518 1.524 . S
C1518 C1517 1.524 . S
C1518 C1519 1.397 . S
C1518 C1523 1.363 . S
C1519 H1490 0.950 . S
C1519 C1518 1.397 . S
C1519 C1520 1.334 . S
C1520 H1491 0.950 . S
C1520 C1519 1.334 . S
C1520 C1521 1.287 . S
C1521 C1520 1.287 . S
C1521 C1522 1.524 . S
C1521 H1524 0.999 . S
C1522 H1492 0.950 . S
C1522 C1521 1.524 . S
C1522 C1523 1.415 . S
C1523 H1493 0.950 . S
C1523 C1518 1.363 . S
C1523 C1522 1.415 . S
H1524 C1521 0.999 . S
H1525 C1506 0.913 . S
H1526 C1544 0.951 . S
H1527 C1546 0.951 . S
H1528 C1548 0.950 . S
H1529 C1549 0.950 . S
H1530 C1551 0.950 . S
H1531 C1554 0.950 . S
H1532 C1555 0.950 . S
H1533 C1557 0.950 . S
H1534 C1558 0.950 . S
H1535 C1559 0.951 . S
H1536 C1561 0.951 . S
H1537 C1563 0.950 . S
H1538 C1564 0.950 . S
H1539 C1566 0.950 . S
H1540 C1569 0.950 . S
H1541 C1570 0.950 . S
H1542 C1572 0.950 . S
H1543 C1573 0.950 . S
C1544 H1526 0.951 . S
C1544 C1545 1.366 . S
C1544 C1546 1.388 . S
C1545 C1544 1.366 . S
C1545 C1549 1.385 . S
C1546 H1527 0.951 . S
C1546 C1544 1.388 . S
C1546 C1547 1.366 . S
C1547 C1546 1.366 . S
C1547 C1548 1.414 . S
C1547 C1550 1.499 . S
C1548 H1528 0.950 . S
C1548 C1547 1.414 . S
C1548 C1549 1.374 . S
C1549 H1529 0.950 . S
C1549 C1545 1.385 . S
C1549 C1548 1.374 . S
C1550 C1547 1.499 . S
C1550 C1551 1.373 . S
C1550 C1552 1.389 . S
C1551 H1530 0.950 . S
C1551 C1550 1.373 . S
C1551 C1567 1.377 . S
C1552 C1550 1.389 . S
C1552 C1553 1.524 . S
C1552 C1566 1.377 . S
C1553 C1552 1.524 . S
C1553 C1554 1.397 . S
C1553 C1558 1.363 . S
C1554 H1531 0.950 . S
C1554 C1553 1.397 . S
C1554 C1555 1.334 . S
C1555 H1532 0.950 . S
C1555 C1554 1.334 . S
C1555 C1556 1.287 . S
C1556 C1555 1.287 . S
C1556 C1557 1.524 . S
C1556 H1575 0.913 . S
C1557 H1533 0.950 . S
C1557 C1556 1.524 . S
C1557 C1558 1.415 . S
C1558 H1534 0.950 . S
C1558 C1553 1.363 . S
C1558 C1557 1.415 . S
C1559 H1535 0.951 . S
C1559 C1560 1.366 . S
C1559 C1561 1.388 . S
C1560 C1559 1.366 . S
C1560 C1564 1.385 . S
C1561 H1536 0.951 . S
C1561 C1559 1.388 . S
C1561 C1562 1.366 . S
C1562 C1561 1.366 . S
C1562 C1563 1.414 . S
C1562 C1565 1.499 . S
C1563 H1537 0.950 . S
C1563 C1562 1.414 . S
C1563 C1564 1.374 . S
C1564 H1538 0.950 . S
C1564 C1560 1.385 . S
C1564 C1563 1.374 . S
C1565 C1562 1.499 . S
C1565 C1566 1.373 . S
C1565 C1567 1.389 . S
C1566 H1539 0.950 . S
C1566 C1552 1.377 . S
C1566 C1565 1.373 . S
C1567 C1551 1.377 . S
C1567 C1565 1.389 . S
C1567 C1568 1.524 . S
C1568 C1567 1.524 . S
C1568 C1569 1.397 . S
C1568 C1573 1.363 . S
C1569 H1540 0.950 . S
C1569 C1568 1.397 . S
C1569 C1570 1.334 . S
C1570 H1541 0.950 . S
C1570 C1569 1.334 . S
C1570 C1571 1.287 . S
C1571 C1570 1.287 . S
C1571 C1572 1.524 . S
C1571 H1574 0.999 . S
C1572 H1542 0.950 . S
C1572 C1571 1.524 . S
C1572 C1573 1.415 . S
C1573 H1543 0.950 . S
C1573 C1568 1.363 . S
C1573 C1572 1.415 . S
H1574 C1571 0.999 . S
H1575 C1556 0.913 . S
H1576 C1594 0.951 . S
H1577 C1596 0.951 . S
H1578 C1598 0.941 1_565 S
H1579 C1599 0.949 1_565 S
H1580 C1601 0.950 . S
H1581 C1604 0.950 . S
H1582 C1605 0.968 . S
H1583 C1607 0.945 1_545 S
H1584 C1608 0.950 . S
H1585 C1609 0.951 1_565 S
H1586 C1611 0.951 1_565 S
H1587 C1613 0.950 . S
H1588 C1614 0.950 . S
H1589 C1616 0.950 1_455 S
H1590 C1619 0.950 . S
H1591 C1620 0.950 . S
H1592 C1622 0.950 . S
H1593 C1623 0.950 . S
C1594 H1576 0.951 . S
C1594 C1595 1.366 . S
C1594 C1596 1.388 . S
C1595 C1594 1.366 . S
C1595 C1599 1.386 . S
C1596 H1577 0.951 . S
C1596 C1594 1.388 . S
C1596 C1597 1.366 . S
C1597 C1596 1.366 . S
C1597 C1598 1.419 . S
C1597 C1600 1.499 . S
C1598 H1578 0.941 1_545 S
C1598 C1597 1.419 . S
C1598 C1599 1.377 . S
C1599 H1579 0.949 1_545 S
C1599 C1595 1.386 . S
C1599 C1598 1.377 . S
C1600 C1597 1.499 . S
C1600 C1601 1.373 . S
C1600 C1602 1.389 . S
C1601 H1580 0.950 . S
C1601 C1600 1.373 . S
C1601 C1617 1.377 . S
C1602 C1600 1.389 . S
C1602 C1603 1.492 1_645 S
C1602 C1616 1.377 . S
C1603 C1602 1.492 1_465 S
C1603 C1604 1.435 1_455 S
C1603 C1608 1.365 1_565 S
C1604 H1581 0.950 . S
C1604 C1603 1.435 1_655 S
C1604 C1605 1.372 . S
C1605 H1582 0.968 . S
C1605 C1604 1.372 . S
C1605 C1606 1.233 1_655 S
C1606 C1605 1.233 1_455 S
C1606 C1607 1.539 . S
C1606 H1625 0.913 . S
C1607 H1583 0.945 1_565 S
C1607 C1606 1.539 . S
C1607 C1608 1.406 1_565 S
C1608 H1584 0.950 . S
C1608 C1603 1.365 1_545 S
C1608 C1607 1.406 1_545 S
C1609 H1585 0.951 1_545 S
C1609 C1610 1.366 1_655 S
C1609 C1611 1.388 . S
C1610 C1609 1.366 1_455 S
C1610 C1614 1.385 . S
C1611 H1586 0.951 1_545 S
C1611 C1609 1.388 . S
C1611 C1612 1.401 . S
C1612 C1611 1.401 . S
C1612 C1613 1.355 1_655 S
C1612 C1615 1.521 . S
C1613 H1587 0.950 . S
C1613 C1612 1.355 1_455 S
C1613 C1614 1.374 . S
C1614 H1588 0.950 . S
C1614 C1610 1.385 . S
C1614 C1613 1.374 . S
C1615 C1612 1.521 . S
C1615 C1616 1.373 . S
C1615 C1617 1.389 . S
C1616 H1589 0.950 1_655 S
C1616 C1602 1.377 . S
C1616 C1615 1.373 . S
C1617 C1601 1.377 . S
C1617 C1615 1.389 . S
C1617 C1618 1.524 . S
C1618 C1617 1.524 . S
C1618 C1619 1.397 . S
C1618 C1623 1.363 . S
C1619 H1590 0.950 . S
C1619 C1618 1.397 . S
C1619 C1620 1.334 . S
C1620 H1591 0.950 . S
C1620 C1619 1.334 . S
C1620 C1621 1.287 . S
C1621 C1620 1.287 . S
C1621 C1622 1.524 . S
C1621 H1624 0.999 . S
C1622 H1592 0.950 . S
C1622 C1621 1.524 . S
C1622 C1623 1.415 . S
C1623 H1593 0.950 . S
C1623 C1618 1.363 . S
C1623 C1622 1.415 . S
H1624 C1621 0.999 . S
H1625 C1606 0.913 . S
H1626 C1644 0.951 . S
H1627 C1646 0.951 . S
H1628 C1648 0.950 . S
H1629 C1649 0.950 . S
H1630 C1651 0.950 . S
H1631 C1654 0.950 . S
H1632 C1655 0.950 . S
H1633 C1657 0.950 . S
H1634 C1658 0.950 . S
H1635 C1659 0.951 . S
H1636 C1661 0.951 . S
H1637 C1663 0.950 . S
H1638 C1664 0.950 . S
H1639 C1666 0.950 . S
H1640 C1669 0.950 . S
H1641 C1670 0.950 . S
H1642 C1672 0.950 . S
H1643 C1673 0.950 . S
C1644 H1626 0.951 . S
C1644 C1645 1.366 . S
C1644 C1646 1.388 . S
C1645 C1644 1.366 . S
C1645 C1649 1.385 . S
C1646 H1627 0.951 . S
C1646 C1644 1.388 . S
C1646 C1647 1.366 . S
C1647 C1646 1.366 . S
C1647 C1648 1.414 . S
C1647 C1650 1.499 . S
C1648 H1628 0.950 . S
C1648 C1647 1.414 . S
C1648 C1649 1.374 . S
C1649 H1629 0.950 . S
C1649 C1645 1.385 . S
C1649 C1648 1.374 . S
C1650 C1647 1.499 . S
C1650 C1651 1.373 . S
C1650 C1652 1.389 . S
C1651 H1630 0.950 . S
C1651 C1650 1.373 . S
C1651 C1667 1.377 . S
C1652 C1650 1.389 . S
C1652 C1653 1.524 . S
C1652 C1666 1.377 . S
C1653 C1652 1.524 . S
C1653 C1654 1.397 . S
C1653 C1658 1.363 . S
C1654 H1631 0.950 . S
C1654 C1653 1.397 . S
C1654 C1655 1.334 . S
C1655 H1632 0.950 . S
C1655 C1654 1.334 . S
C1655 C1656 1.287 . S
C1656 C1655 1.287 . S
C1656 C1657 1.524 . S
C1656 H1675 0.913 . S
C1657 H1633 0.950 . S
C1657 C1656 1.524 . S
C1657 C1658 1.415 . S
C1658 H1634 0.950 . S
C1658 C1653 1.363 . S
C1658 C1657 1.415 . S
C1659 H1635 0.951 . S
C1659 C1660 1.366 . S
C1659 C1661 1.388 . S
C1660 C1659 1.366 . S
C1660 C1664 1.385 . S
C1661 H1636 0.951 . S
C1661 C1659 1.388 . S
C1661 C1662 1.366 . S
C1662 C1661 1.366 . S
C1662 C1663 1.414 . S
C1662 C1665 1.499 . S
C1663 H1637 0.950 . S
C1663 C1662 1.414 . S
C1663 C1664 1.374 . S
C1664 H1638 0.950 . S
C1664 C1660 1.385 . S
C1664 C1663 1.374 . S
C1665 C1662 1.499 . S
C1665 C1666 1.373 . S
C1665 C1667 1.389 . S
C1666 H1639 0.950 . S
C1666 C1652 1.377 . S
C1666 C1665 1.373 . S
C1667 C1651 1.377 . S
C1667 C1665 1.389 . S
C1667 C1668 1.524 . S
C1668 C1667 1.524 . S
C1668 C1669 1.397 . S
C1668 C1673 1.363 . S
C1669 H1640 0.950 . S
C1669 C1668 1.397 . S
C1669 C1670 1.334 . S
C1670 H1641 0.950 . S
C1670 C1669 1.334 . S
C1670 C1671 1.287 . S
C1671 C1670 1.287 . S
C1671 C1672 1.524 . S
C1671 H1674 0.999 . S
C1672 H1642 0.950 . S
C1672 C1671 1.524 . S
C1672 C1673 1.415 . S
C1673 H1643 0.950 . S
C1673 C1668 1.363 . S
C1673 C1672 1.415 . S
H1674 C1671 0.999 . S
H1675 C1656 0.913 . S
H1676 C1694 0.951 . S
H1677 C1696 0.951 . S
H1678 C1698 0.950 . S
H1679 C1699 0.950 . S
H1680 C1701 0.950 . S
H1681 C1704 0.950 . S
H1682 C1705 0.950 . S
H1683 C1707 0.950 . S
H1684 C1708 0.950 . S
H1685 C1709 0.951 . S
H1686 C1711 0.951 . S
H1687 C1713 0.950 . S
H1688 C1714 0.950 . S
H1689 C1716 0.950 . S
H1690 C1719 0.950 . S
H1691 C1720 0.950 . S
H1692 C1722 0.950 . S
H1693 C1723 0.950 1_545 S
C1694 H1676 0.951 . S
C1694 C1695 1.366 . S
C1694 C1696 1.388 . S
C1695 C1694 1.366 . S
C1695 C1699 1.385 . S
C1696 H1677 0.951 . S
C1696 C1694 1.388 . S
C1696 C1697 1.366 . S
C1697 C1696 1.366 . S
C1697 C1698 1.414 . S
C1697 C1700 1.499 . S
C1698 H1678 0.950 . S
C1698 C1697 1.414 . S
C1698 C1699 1.374 . S
C1699 H1679 0.950 . S
C1699 C1695 1.385 . S
C1699 C1698 1.374 . S
C1700 C1697 1.499 . S
C1700 C1701 1.373 . S
C1700 C1702 1.389 . S
C1701 H1680 0.950 . S
C1701 C1700 1.373 . S
C1701 C1717 1.377 . S
C1702 C1700 1.389 . S
C1702 C1703 1.524 . S
C1702 C1716 1.377 . S
C1703 C1702 1.524 . S
C1703 C1704 1.397 . S
C1703 C1708 1.363 . S
C1704 H1681 0.950 . S
C1704 C1703 1.397 . S
C1704 C1705 1.334 . S
C1705 H1682 0.950 . S
C1705 C1704 1.334 . S
C1705 C1706 1.287 . S
C1706 C1705 1.287 . S
C1706 C1707 1.524 . S
C1706 H1725 0.913 . S
C1707 H1683 0.950 . S
C1707 C1706 1.524 . S
C1707 C1708 1.415 . S
C1708 H1684 0.950 . S
C1708 C1703 1.363 . S
C1708 C1707 1.415 . S
C1709 H1685 0.951 . S
C1709 C1710 1.366 . S
C1709 C1711 1.388 . S
C1710 C1709 1.366 . S
C1710 C1714 1.385 . S
C1711 H1686 0.951 . S
C1711 C1709 1.388 . S
C1711 C1712 1.366 . S
C1712 C1711 1.366 . S
C1712 C1713 1.414 . S
C1712 C1715 1.499 . S
C1713 H1687 0.950 . S
C1713 C1712 1.414 . S
C1713 C1714 1.374 . S
C1714 H1688 0.950 . S
C1714 C1710 1.385 . S
C1714 C1713 1.374 . S
C1715 C1712 1.499 . S
C1715 C1716 1.373 . S
C1715 C1717 1.389 . S
C1716 H1689 0.950 . S
C1716 C1702 1.377 . S
C1716 C1715 1.373 . S
C1717 C1701 1.377 . S
C1717 C1715 1.389 . S
C1717 C1718 1.524 1_545 S
C1718 C1717 1.524 1_565 S
C1718 C1719 1.397 . S
C1718 C1723 1.363 . S
C1719 H1690 0.950 . S
C1719 C1718 1.397 . S
C1719 C1720 1.334 . S
C1720 H1691 0.950 . S
C1720 C1719 1.334 . S
C1720 C1721 1.287 . S
C1721 C1720 1.287 . S
C1721 C1722 1.524 . S
C1721 H1724 0.999 . S
C1722 H1692 0.950 . S
C1722 C1721 1.524 . S
C1722 C1723 1.415 . S
C1723 H1693 0.950 1_565 S
C1723 C1718 1.363 . S
C1723 C1722 1.415 . S
H1724 C1721 0.999 . S
H1725 C1706 0.913 . S
H1726 C1744 0.951 . S
H1727 C1746 0.951 . S
H1728 C1748 0.950 . S
H1729 C1749 0.950 . S
H1730 C1751 0.950 . S
H1731 C1754 0.950 . S
H1732 C1755 0.950 . S
H1733 C1757 0.950 . S
H1734 C1758 0.950 . S
H1735 C1759 0.951 . S
H1736 C1761 0.951 . S
H1737 C1763 0.950 . S
H1738 C1764 0.950 . S
H1739 C1766 0.950 . S
H1740 C1769 0.950 . S
H1741 C1770 0.950 . S
H1742 C1772 0.950 . S
H1743 C1773 0.950 . S
C1744 H1726 0.951 . S
C1744 C1745 1.366 . S
C1744 C1746 1.388 . S
C1745 C1744 1.366 . S
C1745 C1749 1.385 . S
C1746 H1727 0.951 . S
C1746 C1744 1.388 . S
C1746 C1747 1.366 . S
C1747 C1746 1.366 . S
C1747 C1748 1.414 . S
C1747 C1750 1.499 . S
C1748 H1728 0.950 . S
C1748 C1747 1.414 . S
C1748 C1749 1.374 . S
C1749 H1729 0.950 . S
C1749 C1745 1.385 . S
C1749 C1748 1.374 . S
C1750 C1747 1.499 . S
C1750 C1751 1.373 . S
C1750 C1752 1.389 . S
C1751 H1730 0.950 . S
C1751 C1750 1.373 . S
C1751 C1767 1.377 . S
C1752 C1750 1.389 . S
C1752 C1753 1.524 . S
C1752 C1766 1.377 . S
C1753 C1752 1.524 . S
C1753 C1754 1.397 . S
C1753 C1758 1.363 . S
C1754 H1731 0.950 . S
C1754 C1753 1.397 . S
C1754 C1755 1.334 . S
C1755 H1732 0.950 . S
C1755 C1754 1.334 . S
C1755 C1756 1.287 . S
C1756 C1755 1.287 . S
C1756 C1757 1.524 . S
C1756 H1775 0.913 . S
C1757 H1733 0.950 . S
C1757 C1756 1.524 . S
C1757 C1758 1.415 . S
C1758 H1734 0.950 . S
C1758 C1753 1.363 . S
C1758 C1757 1.415 . S
C1759 H1735 0.951 . S
C1759 C1760 1.366 . S
C1759 C1761 1.388 . S
C1760 C1759 1.366 . S
C1760 C1764 1.385 . S
C1761 H1736 0.951 . S
C1761 C1759 1.388 . S
C1761 C1762 1.366 . S
C1762 C1761 1.366 . S
C1762 C1763 1.414 . S
C1762 C1765 1.499 . S
C1763 H1737 0.950 . S
C1763 C1762 1.414 . S
C1763 C1764 1.374 . S
C1764 H1738 0.950 . S
C1764 C1760 1.385 . S
C1764 C1763 1.374 . S
C1765 C1762 1.499 . S
C1765 C1766 1.373 . S
C1765 C1767 1.389 . S
C1766 H1739 0.950 . S
C1766 C1752 1.377 . S
C1766 C1765 1.373 . S
C1767 C1751 1.377 . S
C1767 C1765 1.389 . S
C1767 C1768 1.524 . S
C1768 C1767 1.524 . S
C1768 C1769 1.397 . S
C1768 C1773 1.363 . S
C1769 H1740 0.950 . S
C1769 C1768 1.397 . S
C1769 C1770 1.334 . S
C1770 H1741 0.950 . S
C1770 C1769 1.334 . S
C1770 C1771 1.287 . S
C1771 C1770 1.287 . S
C1771 C1772 1.524 . S
C1771 H1774 0.999 . S
C1772 H1742 0.950 . S
C1772 C1771 1.524 . S
C1772 C1773 1.415 . S
C1773 H1743 0.950 . S
C1773 C1768 1.363 . S
C1773 C1772 1.415 . S
H1774 C1771 0.999 . S
H1775 C1756 0.913 . S
H1776 C1794 0.951 . S
H1777 C1796 0.951 . S
H1778 C1798 0.950 . S
H1779 C1799 0.950 . S
H1780 C1801 0.950 . S
H1781 C1804 0.950 . S
H1782 C1805 0.951 1_554 S
H1783 C1807 0.950 . S
H1784 C1808 0.950 . S
H1785 C1809 0.951 . S
H1786 C1811 0.951 . S
H1787 C1813 0.950 . S
H1788 C1814 0.950 . S
H1789 C1816 0.950 . S
H1790 C1819 0.950 . S
H1791 C1820 0.950 . S
H1792 C1822 0.950 . S
H1793 C1823 0.950 . S
C1794 H1776 0.951 . S
C1794 C1795 1.366 1_556 S
C1794 C1796 1.388 . S
C1795 C1794 1.366 1_554 S
C1795 C1799 1.385 . S
C1796 H1777 0.951 . S
C1796 C1794 1.388 . S
C1796 C1797 1.366 1_556 S
C1797 C1796 1.366 1_554 S
C1797 C1798 1.414 . S
C1797 C1800 1.499 . S
C1798 H1778 0.950 . S
C1798 C1797 1.414 . S
C1798 C1799 1.374 . S
C1799 H1779 0.950 . S
C1799 C1795 1.385 . S
C1799 C1798 1.374 . S
C1800 C1797 1.499 . S
C1800 C1801 1.373 . S
C1800 C1802 1.389 . S
C1801 H1780 0.950 . S
C1801 C1800 1.373 . S
C1801 C1817 1.377 . S
C1802 C1800 1.389 . S
C1802 C1803 1.552 . S
C1802 C1816 1.377 . S
C1803 C1802 1.552 . S
C1803 C1804 1.402 . S
C1803 C1808 1.334 1_554 S
C1804 H1781 0.950 . S
C1804 C1803 1.402 . S
C1804 C1805 1.334 1_554 S
C1805 H1782 0.951 1_556 S
C1805 C1804 1.334 1_556 S
C1805 C1806 1.287 . S
C1806 C1805 1.287 . S
C1806 C1807 1.524 . S
C1806 H1825 0.913 . S
C1807 H1783 0.950 . S
C1807 C1806 1.524 . S
C1807 C1808 1.415 . S
C1808 H1784 0.950 . S
C1808 C1803 1.334 1_556 S
C1808 C1807 1.415 . S
C1809 H1785 0.951 . S
C1809 C1810 1.366 . S
C1809 C1811 1.388 . S
C1810 C1809 1.366 . S
C1810 C1814 1.385 . S
C1811 H1786 0.951 . S
C1811 C1809 1.388 . S
C1811 C1812 1.366 . S
C1812 C1811 1.366 . S
C1812 C1813 1.414 . S
C1812 C1815 1.499 . S
C1813 H1787 0.950 . S
C1813 C1812 1.414 . S
C1813 C1814 1.374 . S
C1814 H1788 0.950 . S
C1814 C1810 1.385 . S
C1814 C1813 1.374 . S
C1815 C1812 1.499 . S
C1815 C1816 1.373 . S
C1815 C1817 1.389 . S
C1816 H1789 0.950 . S
C1816 C1802 1.377 . S
C1816 C1815 1.373 . S
C1817 C1801 1.377 . S
C1817 C1815 1.389 . S
C1817 C1818 1.524 . S
C1818 C1817 1.524 . S
C1818 C1819 1.397 . S
C1818 C1823 1.363 . S
C1819 H1790 0.950 . S
C1819 C1818 1.397 . S
C1819 C1820 1.334 . S
C1820 H1791 0.950 . S
C1820 C1819 1.334 . S
C1820 C1821 1.287 . S
C1821 C1820 1.287 . S
C1821 C1822 1.524 . S
C1821 H1824 0.999 . S
C1822 H1792 0.950 . S
C1822 C1821 1.524 . S
C1822 C1823 1.415 . S
C1823 H1793 0.950 . S
C1823 C1818 1.363 . S
C1823 C1822 1.415 . S
H1824 C1821 0.999 . S
H1825 C1806 0.913 . S
H1826 C1844 0.951 . S
H1827 C1846 0.951 . S
H1828 C1848 0.950 . S
H1829 C1849 0.950 . S
H1830 C1851 0.950 . S
H1831 C1854 0.950 . S
H1832 C1855 0.950 . S
H1833 C1857 0.950 . S
H1834 C1858 0.901 1_554 S
H1835 C1859 0.951 . S
H1836 C1861 0.951 . S
H1837 C1863 0.950 . S
H1838 C1864 0.950 . S
H1839 C1866 0.963 . S
H1840 C1869 0.950 . S
H1841 C1870 0.950 . S
H1842 C1872 0.950 . S
H1843 C1873 0.950 . S
C1844 H1826 0.951 . S
C1844 C1845 1.366 . S
C1844 C1846 1.388 . S
C1845 C1844 1.366 . S
C1845 C1849 1.385 . S
C1846 H1827 0.951 . S
C1846 C1844 1.388 . S
C1846 C1847 1.366 . S
C1847 C1846 1.366 . S
C1847 C1848 1.414 . S
C1847 C1850 1.499 . S
C1848 H1828 0.950 . S
C1848 C1847 1.414 . S
C1848 C1849 1.374 . S
C1849 H1829 0.950 . S
C1849 C1845 1.385 . S
C1849 C1848 1.374 . S
C1850 C1847 1.499 . S
C1850 C1851 1.373 . S
C1850 C1852 1.389 . S
C1851 H1830 0.950 . S
C1851 C1850 1.373 . S
C1851 C1867 1.377 . S
C1852 C1850 1.389 . S
C1852 C1853 1.524 1_554 S
C1852 C1866 1.377 . S
C1853 C1852 1.524 1_556 S
C1853 C1854 1.397 . S
C1853 C1858 1.363 . S
C1854 H1831 0.950 . S
C1854 C1853 1.397 . S
C1854 C1855 1.334 . S
C1855 H1832 0.950 . S
C1855 C1854 1.334 . S
C1855 C1856 1.287 . S
C1856 C1855 1.287 . S
C1856 C1857 1.524 . S
C1856 H1875 0.913 . S
C1857 H1833 0.950 . S
C1857 C1856 1.524 . S
C1857 C1858 1.415 . S
C1858 H1834 0.901 1_556 S
C1858 C1853 1.363 . S
C1858 C1857 1.415 . S
C1859 H1835 0.951 . S
C1859 C1860 1.366 . S
C1859 C1861 1.388 . S
C1860 C1859 1.366 . S
C1860 C1864 1.385 . S
C1861 H1836 0.951 . S
C1861 C1859 1.388 . S
C1861 C1862 1.366 . S
C1862 C1861 1.366 . S
C1862 C1863 1.414 . S
C1862 C1865 1.499 . S
C1863 H1837 0.950 . S
C1863 C1862 1.414 . S
C1863 C1864 1.374 . S
C1864 H1838 0.950 . S
C1864 C1860 1.385 . S
C1864 C1863 1.374 . S
C1865 C1862 1.499 . S
C1865 C1866 1.373 . S
C1865 C1867 1.389 . S
C1866 H1839 0.963 . S
C1866 C1852 1.377 . S
C1866 C1865 1.373 . S
C1867 C1851 1.377 . S
C1867 C1865 1.389 . S
C1867 C1868 1.524 . S
C1868 C1867 1.524 . S
C1868 C1869 1.397 . S
C1868 C1873 1.363 . S
C1869 H1840 0.950 . S
C1869 C1868 1.397 . S
C1869 C1870 1.334 . S
C1870 H1841 0.950 . S
C1870 C1869 1.334 . S
C1870 C1871 1.287 . S
C1871 C1870 1.287 . S
C1871 C1872 1.524 . S
C1871 H1874 0.999 . S
C1872 H1842 0.950 . S
C1872 C1871 1.524 . S
C1872 C1873 1.415 . S
C1873 H1843 0.950 . S
C1873 C1868 1.363 . S
C1873 C1872 1.415 . S
H1874 C1871 0.999 . S
H1875 C1856 0.913 . S
H1876 C1894 0.951 . S
H1877 C1896 0.951 . S
H1878 C1898 0.950 . S
H1879 C1899 0.950 . S
H1880 C1901 0.950 . S
H1881 C1904 0.950 . S
H1882 C1905 0.950 . S
H1883 C1907 0.950 . S
H1884 C1908 0.950 . S
H1885 C1909 0.951 . S
H1886 C1911 0.951 . S
H1887 C1913 0.950 . S
H1888 C1914 0.950 . S
H1889 C1916 0.950 . S
H1890 C1919 0.950 . S
H1891 C1920 0.950 . S
H1892 C1922 0.950 . S
H1893 C1923 0.950 . S
C1894 H1876 0.951 . S
C1894 C1895 1.366 . S
C1894 C1896 1.388 . S
C1895 C1894 1.366 . S
C1895 C1899 1.385 . S
C1896 H1877 0.951 . S
C1896 C1894 1.388 . S
C1896 C1897 1.366 . S
C1897 C1896 1.366 . S
C1897 C1898 1.414 . S
C1897 C1900 1.499 . S
C1898 H1878 0.950 . S
C1898 C1897 1.414 . S
C1898 C1899 1.374 . S
C1899 H1879 0.950 . S
C1899 C1895 1.385 . S
C1899 C1898 1.374 . S
C1900 C1897 1.499 . S
C1900 C1901 1.373 . S
C1900 C1902 1.389 . S
C1901 H1880 0.950 . S
C1901 C1900 1.373 . S
C1901 C1917 1.377 . S
C1902 C1900 1.389 . S
C1902 C1903 1.524 . S
C1902 C1916 1.377 . S
C1903 C1902 1.524 . S
C1903 C1904 1.397 . S
C1903 C1908 1.363 . S
C1904 H1881 0.950 . S
C1904 C1903 1.397 . S
C1904 C1905 1.334 . S
C1905 H1882 0.950 . S
C1905 C1904 1.334 . S
C1905 C1906 1.287 . S
C1906 C1905 1.287 . S
C1906 C1907 1.524 . S
C1906 H1925 0.913 . S
C1907 H1883 0.950 . S
C1907 C1906 1.524 . S
C1907 C1908 1.415 . S
C1908 H1884 0.950 . S
C1908 C1903 1.363 . S
C1908 C1907 1.415 . S
C1909 H1885 0.951 . S
C1909 C1910 1.366 . S
C1909 C1911 1.388 . S
C1910 C1909 1.366 . S
C1910 C1914 1.385 . S
C1911 H1886 0.951 . S
C1911 C1909 1.388 . S
C1911 C1912 1.366 . S
C1912 C1911 1.366 . S
C1912 C1913 1.414 . S
C1912 C1915 1.499 . S
C1913 H1887 0.950 . S
C1913 C1912 1.414 . S
C1913 C1914 1.374 . S
C1914 H1888 0.950 . S
C1914 C1910 1.385 . S
C1914 C1913 1.374 . S
C1915 C1912 1.499 . S
C1915 C1916 1.373 . S
C1915 C1917 1.389 . S
C1916 H1889 0.950 . S
C1916 C1902 1.377 . S
C1916 C1915 1.373 . S
C1917 C1901 1.377 . S
C1917 C1915 1.389 . S
C1917 C1918 1.524 . S
C1918 C1917 1.524 . S
C1918 C1919 1.397 . S
C1918 C1923 1.363 . S
C1919 H1890 0.950 . S
C1919 C1918 1.397 . S
C1919 C1920 1.334 . S
C1920 H1891 0.950 . S
C1920 C1919 1.334 . S
C1920 C1921 1.287 . S
C1921 C1920 1.287 . S
C1921 C1922 1.524 . S
C1921 H1924 0.999 . S
C1922 H1892 0.950 . S
C1922 C1921 1.524 . S
C1922 C1923 1.415 . S
C1923 H1893 0.950 . S
C1923 C1918 1.363 . S
C1923 C1922 1.415 . S
H1924 C1921 0.999 . S
H1925 C1906 0.913 . S
H1926 C1944 0.951 . S
H1927 C1946 0.951 . S
H1928 C1948 0.950 . S
H1929 C1949 0.950 . S
H1930 C1951 0.950 . S
H1931 C1954 0.950 . S
H1932 C1955 0.950 . S
H1933 C1957 0.950 . S
H1934 C1958 0.950 . S
H1935 C1959 0.951 . S
H1936 C1961 0.951 . S
H1937 C1963 0.950 . S
H1938 C1964 0.950 . S
H1939 C1966 0.950 . S
H1940 C1969 0.950 . S
H1941 C1970 0.950 . S
H1942 C1972 0.950 . S
H1943 C1973 0.950 . S
C1944 H1926 0.951 . S
C1944 C1945 1.366 . S
C1944 C1946 1.388 . S
C1945 C1944 1.366 . S
C1945 C1949 1.385 . S
C1946 H1927 0.951 . S
C1946 C1944 1.388 . S
C1946 C1947 1.366 . S
C1947 C1946 1.366 . S
C1947 C1948 1.414 . S
C1947 C1950 1.499 . S
C1948 H1928 0.950 . S
C1948 C1947 1.414 . S
C1948 C1949 1.374 . S
C1949 H1929 0.950 . S
C1949 C1945 1.385 . S
C1949 C1948 1.374 . S
C1950 C1947 1.499 . S
C1950 C1951 1.373 . S
C1950 C1952 1.389 . S
C1951 H1930 0.950 . S
C1951 C1950 1.373 . S
C1951 C1967 1.377 . S
C1952 C1950 1.389 . S
C1952 C1953 1.524 . S
C1952 C1966 1.377 . S
C1953 C1952 1.524 . S
C1953 C1954 1.397 . S
C1953 C1958 1.363 . S
C1954 H1931 0.950 . S
C1954 C1953 1.397 . S
C1954 C1955 1.334 . S
C1955 H1932 0.950 . S
C1955 C1954 1.334 . S
C1955 C1956 1.287 . S
C1956 C1955 1.287 . S
C1956 C1957 1.524 . S
C1956 H1975 0.913 . S
C1957 H1933 0.950 . S
C1957 C1956 1.524 . S
C1957 C1958 1.415 . S
C1958 H1934 0.950 . S
C1958 C1953 1.363 . S
C1958 C1957 1.415 . S
C1959 H1935 0.951 . S
C1959 C1960 1.366 . S
C1959 C1961 1.388 . S
C1960 C1959 1.366 . S
C1960 C1964 1.385 . S
C1961 H1936 0.951 . S
C1961 C1959 1.388 . S
C1961 C1962 1.366 . S
C1962 C1961 1.366 . S
C1962 C1963 1.414 . S
C1962 C1965 1.499 . S
C1963 H1937 0.950 . S
C1963 C1962 1.414 . S
C1963 C1964 1.374 . S
C1964 H1938 0.950 . S
C1964 C1960 1.385 . S
C1964 C1963 1.374 . S
C1965 C1962 1.499 . S
C1965 C1966 1.373 . S
C1965 C1967 1.389 . S
C1966 H1939 0.950 . S
C1966 C1952 1.377 . S
C1966 C1965 1.373 . S
C1967 C1951 1.377 . S
C1967 C1965 1.389 . S
C1967 C1968 1.524 . S
C1968 C1967 1.524 . S
C1968 C1969 1.397 . S
C1968 C1973 1.363 . S
C1969 H1940 0.950 . S
C1969 C1968 1.397 . S
C1969 C1970 1.334 . S
C1970 H1941 0.950 . S
C1970 C1969 1.334 . S
C1970 C1971 1.287 . S
C1971 C1970 1.287 . S
C1971 C1972 1.524 . S
C1971 H1974 0.999 . S
C1972 H1942 0.950 . S
C1972 C1971 1.524 . S
C1972 C1973 1.415 . S
C1973 H1943 0.950 . S
C1973 C1968 1.363 . S
C1973 C1972 1.415 . S
H1974 C1971 0.999 . S
H1975 C1956 0.913 . S
H1976 C1994 0.951 . S
H1977 C1996 0.951 . S
H1978 C1998 0.950 . S
H1979 C1999 0.950 . S
H1980 C2001 0.950 . S
H1981 C2004 0.950 . S
H1982 C2005 0.950 . S
H1983 C2007 0.950 . S
H1984 C2008 0.950 . S
H1985 C2009 0.951 . S
H1986 C2011 0.951 . S
H1987 C2013 0.950 . S
H1988 C2014 0.950 . S
H1989 C2016 0.950 . S
H1990 C2019 0.950 . S
H1991 C2020 0.950 . S
H1992 C2022 0.950 . S
H1993 C2023 0.950 . S
C1994 H1976 0.951 . S
C1994 C1995 1.366 . S
C1994 C1996 1.388 . S
C1995 C1994 1.366 . S
C1995 C1999 1.385 . S
C1996 H1977 0.951 . S
C1996 C1994 1.388 . S
C1996 C1997 1.366 . S
C1997 C1996 1.366 . S
C1997 C1998 1.414 . S
C1997 C2000 1.499 . S
C1998 H1978 0.950 . S
C1998 C1997 1.414 . S
C1998 C1999 1.374 . S
C1999 H1979 0.950 . S
C1999 C1995 1.385 . S
C1999 C1998 1.374 . S
C2000 C1997 1.499 . S
C2000 C2001 1.373 . S
C2000 C2002 1.389 . S
C2001 H1980 0.950 . S
C2001 C2000 1.373 . S
C2001 C2017 1.377 . S
C2002 C2000 1.389 . S
C2002 C2003 1.524 . S
C2002 C2016 1.377 . S
C2003 C2002 1.524 . S
C2003 C2004 1.397 . S
C2003 C2008 1.363 . S
C2004 H1981 0.950 . S
C2004 C2003 1.397 . S
C2004 C2005 1.334 . S
C2005 H1982 0.950 . S
C2005 C2004 1.334 . S
C2005 C2006 1.287 . S
C2006 C2005 1.287 . S
C2006 C2007 1.524 . S
C2006 H2025 0.913 . S
C2007 H1983 0.950 . S
C2007 C2006 1.524 . S
C2007 C2008 1.415 . S
C2008 H1984 0.950 . S
C2008 C2003 1.363 . S
C2008 C2007 1.415 . S
C2009 H1985 0.951 . S
C2009 C2010 1.366 . S
C2009 C2011 1.388 . S
C2010 C2009 1.366 . S
C2010 C2014 1.385 . S
C2011 H1986 0.951 . S
C2011 C2009 1.388 . S
C2011 C2012 1.366 . S
C2012 C2011 1.366 . S
C2012 C2013 1.414 . S
C2012 C2015 1.499 . S
C2013 H1987 0.950 . S
C2013 C2012 1.414 . S
C2013 C2014 1.374 . S
C2014 H1988 0.950 . S
C2014 C2010 1.385 . S
C2014 C2013 1.374 . S
C2015 C2012 1.499 . S
C2015 C2016 1.373 . S
C2015 C2017 1.389 . S
C2016 H1989 0.950 . S
C2016 C2002 1.377 . S
C2016 C2015 1.373 . S
C2017 C2001 1.377 . S
C2017 C2015 1.389 . S
C2017 C2018 1.524 . S
C2018 C2017 1.524 . S
C2018 C2019 1.397 . S
C2018 C2023 1.363 . S
C2019 H1990 0.950 . S
C2019 C2018 1.397 . S
C2019 C2020 1.334 . S
C2020 H1991 0.950 . S
C2020 C2019 1.334 . S
C2020 C2021 1.287 . S
C2021 C2020 1.287 . S
C2021 C2022 1.524 . S
C2021 H2024 0.999 . S
C2022 H1992 0.950 . S
C2022 C2021 1.524 . S
C2022 C2023 1.415 . S
C2023 H1993 0.950 . S
C2023 C2018 1.363 . S
C2023 C2022 1.415 . S
H2024 C2021 0.999 . S
H2025 C2006 0.913 . S
H2026 C2044 0.951 . S
H2027 C2046 0.951 . S
H2028 C2048 0.950 . S
H2029 C2049 0.950 . S
H2030 C2051 0.950 . S
H2031 C2054 0.950 . S
H2032 C2055 0.950 . S
H2033 C2057 0.950 . S
H2034 C2058 0.950 . S
H2035 C2059 0.951 . S
H2036 C2061 0.951 . S
H2037 C2063 0.950 . S
H2038 C2064 0.950 . S
H2039 C2066 0.950 . S
H2040 C2069 0.950 . S
H2041 C2070 0.950 . S
H2042 C2072 0.950 . S
H2043 C2073 0.950 . S
C2044 H2026 0.951 . S
C2044 C2045 1.366 . S
C2044 C2046 1.388 . S
C2045 C2044 1.366 . S
C2045 C2049 1.385 . S
C2046 H2027 0.951 . S
C2046 C2044 1.388 . S
C2046 C2047 1.366 . S
C2047 C2046 1.366 . S
C2047 C2048 1.414 . S
C2047 C2050 1.499 . S
C2048 H2028 0.950 . S
C2048 C2047 1.414 . S
C2048 C2049 1.374 . S
C2049 H2029 0.950 . S
C2049 C2045 1.385 . S
C2049 C2048 1.374 . S
C2050 C2047 1.499 . S
C2050 C2051 1.373 . S
C2050 C2052 1.389 . S
C2051 H2030 0.950 . S
C2051 C2050 1.373 . S
C2051 C2067 1.377 . S
C2052 C2050 1.389 . S
C2052 C2053 1.524 . S
C2052 C2066 1.377 . S
C2053 C2052 1.524 . S
C2053 C2054 1.397 . S
C2053 C2058 1.363 . S
C2054 H2031 0.950 . S
C2054 C2053 1.397 . S
C2054 C2055 1.334 . S
C2055 H2032 0.950 . S
C2055 C2054 1.334 . S
C2055 C2056 1.287 . S
C2056 C2055 1.287 . S
C2056 C2057 1.524 . S
C2056 H2075 0.913 . S
C2057 H2033 0.950 . S
C2057 C2056 1.524 . S
C2057 C2058 1.415 . S
C2058 H2034 0.950 . S
C2058 C2053 1.363 . S
C2058 C2057 1.415 . S
C2059 H2035 0.951 . S
C2059 C2060 1.366 . S
C2059 C2061 1.388 . S
C2060 C2059 1.366 . S
C2060 C2064 1.385 . S
C2061 H2036 0.951 . S
C2061 C2059 1.388 . S
C2061 C2062 1.366 . S
C2062 C2061 1.366 . S
C2062 C2063 1.414 . S
C2062 C2065 1.499 . S
C2063 H2037 0.950 . S
C2063 C2062 1.414 . S
C2063 C2064 1.374 . S
C2064 H2038 0.950 . S
C2064 C2060 1.385 . S
C2064 C2063 1.374 . S
C2065 C2062 1.499 . S
C2065 C2066 1.373 . S
C2065 C2067 1.389 . S
C2066 H2039 0.950 . S
C2066 C2052 1.377 . S
C2066 C2065 1.373 . S
C2067 C2051 1.377 . S
C2067 C2065 1.389 . S
C2067 C2068 1.524 . S
C2068 C2067 1.524 . S
C2068 C2069 1.397 . S
C2068 C2073 1.363 . S
C2069 H2040 0.950 . S
C2069 C2068 1.397 . S
C2069 C2070 1.334 . S
C2070 H2041 0.950 . S
C2070 C2069 1.334 . S
C2070 C2071 1.287 . S
C2071 C2070 1.287 . S
C2071 C2072 1.524 . S
C2071 H2074 0.999 . S
C2072 H2042 0.950 . S
C2072 C2071 1.524 . S
C2072 C2073 1.415 . S
C2073 H2043 0.950 . S
C2073 C2068 1.363 . S
C2073 C2072 1.415 . S
H2074 C2071 0.999 . S
H2075 C2056 0.913 . S
H2076 C2094 0.951 . S
H2077 C2096 0.951 . S
H2078 C2098 0.950 . S
H2079 C2099 0.950 . S
H2080 C2101 0.950 . S
H2081 C2104 0.950 . S
H2082 C2105 0.950 . S
H2083 C2107 0.950 . S
H2084 C2108 0.950 . S
H2085 C2109 0.951 . S
H2086 C2111 0.951 . S
H2087 C2113 0.950 . S
H2088 C2114 0.950 . S
H2089 C2116 0.950 . S
H2090 C2119 0.950 . S
H2091 C2120 0.950 . S
H2092 C2122 0.950 . S
H2093 C2123 0.950 . S
C2094 H2076 0.951 . S
C2094 C2095 1.366 . S
C2094 C2096 1.388 . S
C2095 C2094 1.366 . S
C2095 C2099 1.385 . S
C2096 H2077 0.951 . S
C2096 C2094 1.388 . S
C2096 C2097 1.366 . S
C2097 C2096 1.366 . S
C2097 C2098 1.414 . S
C2097 C2100 1.499 . S
C2098 H2078 0.950 . S
C2098 C2097 1.414 . S
C2098 C2099 1.374 . S
C2099 H2079 0.950 . S
C2099 C2095 1.385 . S
C2099 C2098 1.374 . S
C2100 C2097 1.499 . S
C2100 C2101 1.373 . S
C2100 C2102 1.389 . S
C2101 H2080 0.950 . S
C2101 C2100 1.373 . S
C2101 C2117 1.377 . S
C2102 C2100 1.389 . S
C2102 C2103 1.524 . S
C2102 C2116 1.377 . S
C2103 C2102 1.524 . S
C2103 C2104 1.397 . S
C2103 C2108 1.363 . S
C2104 H2081 0.950 . S
C2104 C2103 1.397 . S
C2104 C2105 1.334 . S
C2105 H2082 0.950 . S
C2105 C2104 1.334 . S
C2105 C2106 1.287 . S
C2106 C2105 1.287 . S
C2106 C2107 1.524 . S
C2106 H2125 0.913 . S
C2107 H2083 0.950 . S
C2107 C2106 1.524 . S
C2107 C2108 1.415 . S
C2108 H2084 0.950 . S
C2108 C2103 1.363 . S
C2108 C2107 1.415 . S
C2109 H2085 0.951 . S
C2109 C2110 1.366 . S
C2109 C2111 1.388 . S
C2110 C2109 1.366 . S
C2110 C2114 1.385 . S
C2111 H2086 0.951 . S
C2111 C2109 1.388 . S
C2111 C2112 1.366 . S
C2112 C2111 1.366 . S
C2112 C2113 1.414 . S
C2112 C2115 1.499 . S
C2113 H2087 0.950 . S
C2113 C2112 1.414 . S
C2113 C2114 1.374 . S
C2114 H2088 0.950 . S
C2114 C2110 1.385 . S
C2114 C2113 1.374 . S
C2115 C2112 1.499 . S
C2115 C2116 1.373 . S
C2115 C2117 1.389 . S
C2116 H2089 0.950 . S
C2116 C2102 1.377 . S
C2116 C2115 1.373 . S
C2117 C2101 1.377 . S
C2117 C2115 1.389 . S
C2117 C2118 1.524 . S
C2118 C2117 1.524 . S
C2118 C2119 1.397 . S
C2118 C2123 1.363 . S
C2119 H2090 0.950 . S
C2119 C2118 1.397 . S
C2119 C2120 1.334 . S
C2120 H2091 0.950 . S
C2120 C2119 1.334 . S
C2120 C2121 1.287 . S
C2121 C2120 1.287 . S
C2121 C2122 1.524 . S
C2121 H2124 0.999 . S
C2122 H2092 0.950 . S
C2122 C2121 1.524 . S
C2122 C2123 1.415 . S
C2123 H2093 0.950 . S
C2123 C2118 1.363 . S
C2123 C2122 1.415 . S
H2124 C2121 0.999 . S
H2125 C2106 0.913 . S
H2126 C2144 0.951 . S
H2127 C2146 0.951 . S
H2128 C2148 0.950 . S
H2129 C2149 0.950 . S
H2130 C2151 0.950 . S
H2131 C2154 0.950 . S
H2132 C2155 0.950 . S
H2133 C2157 0.950 . S
H2134 C2158 0.950 . S
H2135 C2159 0.951 . S
H2136 C2161 0.951 . S
H2137 C2163 0.950 . S
H2138 C2164 0.950 . S
H2139 C2166 0.950 . S
H2140 C2169 0.950 . S
H2141 C2170 0.950 . S
H2142 C2172 0.950 . S
H2143 C2173 0.950 . S
C2144 H2126 0.951 . S
C2144 C2145 1.366 . S
C2144 C2146 1.388 . S
C2145 C2144 1.366 . S
C2145 C2149 1.385 . S
C2146 H2127 0.951 . S
C2146 C2144 1.388 . S
C2146 C2147 1.366 . S
C2147 C2146 1.366 . S
C2147 C2148 1.414 . S
C2147 C2150 1.499 . S
C2148 H2128 0.950 . S
C2148 C2147 1.414 . S
C2148 C2149 1.374 . S
C2149 H2129 0.950 . S
C2149 C2145 1.385 . S
C2149 C2148 1.374 . S
C2150 C2147 1.499 . S
C2150 C2151 1.373 . S
C2150 C2152 1.389 . S
C2151 H2130 0.950 . S
C2151 C2150 1.373 . S
C2151 C2167 1.377 . S
C2152 C2150 1.389 . S
C2152 C2153 1.524 . S
C2152 C2166 1.377 . S
C2153 C2152 1.524 . S
C2153 C2154 1.397 . S
C2153 C2158 1.363 . S
C2154 H2131 0.950 . S
C2154 C2153 1.397 . S
C2154 C2155 1.334 . S
C2155 H2132 0.950 . S
C2155 C2154 1.334 . S
C2155 C2156 1.287 . S
C2156 C2155 1.287 . S
C2156 C2157 1.524 . S
C2156 H2175 0.913 . S
C2157 H2133 0.950 . S
C2157 C2156 1.524 . S
C2157 C2158 1.415 . S
C2158 H2134 0.950 . S
C2158 C2153 1.363 . S
C2158 C2157 1.415 . S
C2159 H2135 0.951 . S
C2159 C2160 1.366 . S
C2159 C2161 1.388 . S
C2160 C2159 1.366 . S
C2160 C2164 1.385 . S
C2161 H2136 0.951 . S
C2161 C2159 1.388 . S
C2161 C2162 1.366 . S
C2162 C2161 1.366 . S
C2162 C2163 1.414 . S
C2162 C2165 1.499 . S
C2163 H2137 0.950 . S
C2163 C2162 1.414 . S
C2163 C2164 1.374 . S
C2164 H2138 0.950 . S
C2164 C2160 1.385 . S
C2164 C2163 1.374 . S
C2165 C2162 1.499 . S
C2165 C2166 1.373 . S
C2165 C2167 1.389 . S
C2166 H2139 0.950 . S
C2166 C2152 1.377 . S
C2166 C2165 1.373 . S
C2167 C2151 1.377 . S
C2167 C2165 1.389 . S
C2167 C2168 1.524 . S
C2168 C2167 1.524 . S
C2168 C2169 1.397 . S
C2168 C2173 1.363 . S
C2169 H2140 0.950 . S
C2169 C2168 1.397 . S
C2169 C2170 1.334 . S
C2170 H2141 0.950 . S
C2170 C2169 1.334 . S
C2170 C2171 1.287 . S
C2171 C2170 1.287 . S
C2171 C2172 1.524 . S
C2171 H2174 0.999 . S
C2172 H2142 0.950 . S
C2172 C2171 1.524 . S
C2172 C2173 1.415 . S
C2173 H2143 0.950 . S
C2173 C2168 1.363 . S
C2173 C2172 1.415 . S
H2174 C2171 0.999 . S
H2175 C2156 0.913 . S
H2176 C2194 0.951 . S
H2177 C2196 0.951 . S
H2178 C2198 0.950 . S
H2179 C2199 0.950 . S
H2180 C2201 0.950 . S
H2181 C2204 0.950 . S
H2182 C2205 0.950 . S
H2183 C2207 0.950 . S
H2184 C2208 0.950 . S
H2185 C2209 0.951 . S
H2186 C2211 0.951 . S
H2187 C2213 0.950 . S
H2188 C2214 0.950 . S
H2189 C2216 0.950 . S
H2190 C2219 0.950 . S
H2191 C2220 0.950 . S
H2192 C2222 0.950 . S
H2193 C2223 0.950 . S
C2194 H2176 0.951 . S
C2194 C2195 1.366 . S
C2194 C2196 1.388 . S
C2195 C2194 1.366 . S
C2195 C2199 1.385 . S
C2196 H2177 0.951 . S
C2196 C2194 1.388 . S
C2196 C2197 1.366 . S
C2197 C2196 1.366 . S
C2197 C2198 1.414 . S
C2197 C2200 1.499 . S
C2198 H2178 0.950 . S
C2198 C2197 1.414 . S
C2198 C2199 1.374 . S
C2199 H2179 0.950 . S
C2199 C2195 1.385 . S
C2199 C2198 1.374 . S
C2200 C2197 1.499 . S
C2200 C2201 1.373 . S
C2200 C2202 1.389 . S
C2201 H2180 0.950 . S
C2201 C2200 1.373 . S
C2201 C2217 1.377 . S
C2202 C2200 1.389 . S
C2202 C2203 1.524 . S
C2202 C2216 1.377 . S
C2203 C2202 1.524 . S
C2203 C2204 1.397 . S
C2203 C2208 1.363 . S
C2204 H2181 0.950 . S
C2204 C2203 1.397 . S
C2204 C2205 1.334 . S
C2205 H2182 0.950 . S
C2205 C2204 1.334 . S
C2205 C2206 1.287 . S
C2206 C2205 1.287 . S
C2206 C2207 1.524 . S
C2206 H2225 0.913 . S
C2207 H2183 0.950 . S
C2207 C2206 1.524 . S
C2207 C2208 1.415 . S
C2208 H2184 0.950 . S
C2208 C2203 1.363 . S
C2208 C2207 1.415 . S
C2209 H2185 0.951 . S
C2209 C2210 1.366 . S
C2209 C2211 1.388 . S
C2210 C2209 1.366 . S
C2210 C2214 1.385 . S
C2211 H2186 0.951 . S
C2211 C2209 1.388 . S
C2211 C2212 1.366 . S
C2212 C2211 1.366 . S
C2212 C2213 1.414 . S
C2212 C2215 1.499 . S
C2213 H2187 0.950 . S
C2213 C2212 1.414 . S
C2213 C2214 1.374 . S
C2214 H2188 0.950 . S
C2214 C2210 1.385 . S
C2214 C2213 1.374 . S
C2215 C2212 1.499 . S
C2215 C2216 1.373 . S
C2215 C2217 1.389 . S
C2216 H2189 0.950 . S
C2216 C2202 1.377 . S
C2216 C2215 1.373 . S
C2217 C2201 1.377 . S
C2217 C2215 1.389 . S
C2217 C2218 1.524 . S
C2218 C2217 1.524 . S
C2218 C2219 1.397 . S
C2218 C2223 1.363 . S
C2219 H2190 0.950 . S
C2219 C2218 1.397 . S
C2219 C2220 1.334 . S
C2220 H2191 0.950 . S
C2220 C2219 1.334 . S
C2220 C2221 1.287 1_554 S
C2221 C2220 1.287 1_556 S
C2221 C2222 1.524 . S
C2221 H2224 0.999 . S
C2222 H2192 0.950 . S
C2222 C2221 1.524 . S
C2222 C2223 1.415 1_556 S
C2223 H2193 0.950 . S
C2223 C2218 1.363 . S
C2223 C2222 1.415 1_554 S
H2224 C2221 0.999 . S
H2225 C2206 0.913 . S
H2226 C2244 0.951 . S
H2227 C2246 0.951 . S
H2228 C2248 0.950 . S
H2229 C2249 0.950 . S
H2230 C2251 0.950 . S
H2231 C2254 0.950 . S
H2232 C2255 0.950 . S
H2233 C2257 0.950 . S
H2234 C2258 0.950 . S
H2235 C2259 0.951 . S
H2236 C2261 0.951 . S
H2237 C2263 0.950 . S
H2238 C2264 0.950 . S
H2239 C2266 0.950 . S
H2240 C2269 0.950 . S
H2241 C2270 0.950 . S
H2242 C2272 0.950 . S
H2243 C2273 0.950 . S
C2244 H2226 0.951 . S
C2244 C2245 1.366 . S
C2244 C2246 1.388 . S
C2245 C2244 1.366 . S
C2245 C2249 1.385 . S
C2246 H2227 0.951 . S
C2246 C2244 1.388 . S
C2246 C2247 1.366 . S
C2247 C2246 1.366 . S
C2247 C2248 1.414 . S
C2247 C2250 1.499 . S
C2248 H2228 0.950 . S
C2248 C2247 1.414 . S
C2248 C2249 1.374 . S
C2249 H2229 0.950 . S
C2249 C2245 1.385 . S
C2249 C2248 1.374 . S
C2250 C2247 1.499 . S
C2250 C2251 1.373 . S
C2250 C2252 1.389 . S
C2251 H2230 0.950 . S
C2251 C2250 1.373 . S
C2251 C2267 1.377 . S
C2252 C2250 1.389 . S
C2252 C2253 1.524 . S
C2252 C2266 1.377 . S
C2253 C2252 1.524 . S
C2253 C2254 1.397 . S
C2253 C2258 1.363 . S
C2254 H2231 0.950 . S
C2254 C2253 1.397 . S
C2254 C2255 1.334 . S
C2255 H2232 0.950 . S
C2255 C2254 1.334 . S
C2255 C2256 1.287 . S
C2256 C2255 1.287 . S
C2256 C2257 1.524 . S
C2256 H2275 0.913 . S
C2257 H2233 0.950 . S
C2257 C2256 1.524 . S
C2257 C2258 1.415 . S
C2258 H2234 0.950 . S
C2258 C2253 1.363 . S
C2258 C2257 1.415 . S
C2259 H2235 0.951 . S
C2259 C2260 1.366 . S
C2259 C2261 1.388 . S
C2260 C2259 1.366 . S
C2260 C2264 1.385 . S
C2261 H2236 0.951 . S
C2261 C2259 1.388 . S
C2261 C2262 1.366 . S
C2262 C2261 1.366 . S
C2262 C2263 1.414 . S
C2262 C2265 1.499 . S
C2263 H2237 0.950 . S
C2263 C2262 1.414 . S
C2263 C2264 1.374 . S
C2264 H2238 0.950 . S
C2264 C2260 1.385 . S
C2264 C2263 1.374 . S
C2265 C2262 1.499 . S
C2265 C2266 1.373 . S
C2265 C2267 1.389 . S
C2266 H2239 0.950 . S
C2266 C2252 1.377 . S
C2266 C2265 1.373 . S
C2267 C2251 1.377 . S
C2267 C2265 1.389 . S
C2267 C2268 1.524 . S
C2268 C2267 1.524 . S
C2268 C2269 1.397 . S
C2268 C2273 1.363 . S
C2269 H2240 0.950 . S
C2269 C2268 1.397 . S
C2269 C2270 1.334 . S
C2270 H2241 0.950 . S
C2270 C2269 1.334 . S
C2270 C2271 1.287 . S
C2271 C2270 1.287 . S
C2271 C2272 1.524 . S
C2271 H2274 0.999 . S
C2272 H2242 0.950 . S
C2272 C2271 1.524 . S
C2272 C2273 1.415 . S
C2273 H2243 0.950 . S
C2273 C2268 1.363 . S
C2273 C2272 1.415 . S
H2274 C2271 0.999 . S
H2275 C2256 0.913 . S
H2276 C2294 0.951 . S
H2277 C2296 0.951 . S
H2278 C2298 0.950 . S
H2279 C2299 0.950 . S
H2280 C2301 0.950 . S
H2281 C2304 0.950 . S
H2282 C2305 0.950 . S
H2283 C2307 0.950 . S
H2284 C2308 0.950 . S
H2285 C2309 0.951 . S
H2286 C2311 0.951 . S
H2287 C2313 0.950 . S
H2288 C2314 0.950 . S
H2289 C2316 0.950 . S
H2290 C2319 0.950 . S
H2291 C2320 0.950 . S
H2292 C2322 0.950 . S
H2293 C2323 0.950 . S
C2294 H2276 0.951 . S
C2294 C2295 1.366 . S
C2294 C2296 1.388 . S
C2295 C2294 1.366 . S
C2295 C2299 1.385 . S
C2296 H2277 0.951 . S
C2296 C2294 1.388 . S
C2296 C2297 1.366 . S
C2297 C2296 1.366 . S
C2297 C2298 1.414 . S
C2297 C2300 1.499 . S
C2298 H2278 0.950 . S
C2298 C2297 1.414 . S
C2298 C2299 1.374 . S
C2299 H2279 0.950 . S
C2299 C2295 1.385 . S
C2299 C2298 1.374 . S
C2300 C2297 1.499 . S
C2300 C2301 1.373 . S
C2300 C2302 1.389 . S
C2301 H2280 0.950 . S
C2301 C2300 1.373 . S
C2301 C2317 1.377 . S
C2302 C2300 1.389 . S
C2302 C2303 1.524 . S
C2302 C2316 1.377 . S
C2303 C2302 1.524 . S
C2303 C2304 1.397 . S
C2303 C2308 1.363 . S
C2304 H2281 0.950 . S
C2304 C2303 1.397 . S
C2304 C2305 1.334 . S
C2305 H2282 0.950 . S
C2305 C2304 1.334 . S
C2305 C2306 1.287 . S
C2306 C2305 1.287 . S
C2306 C2307 1.524 . S
C2306 H2325 0.913 . S
C2307 H2283 0.950 . S
C2307 C2306 1.524 . S
C2307 C2308 1.415 . S
C2308 H2284 0.950 . S
C2308 C2303 1.363 . S
C2308 C2307 1.415 . S
C2309 H2285 0.951 . S
C2309 C2310 1.366 . S
C2309 C2311 1.388 . S
C2310 C2309 1.366 . S
C2310 C2314 1.385 . S
C2311 H2286 0.951 . S
C2311 C2309 1.388 . S
C2311 C2312 1.366 . S
C2312 C2311 1.366 . S
C2312 C2313 1.414 . S
C2312 C2315 1.499 . S
C2313 H2287 0.950 . S
C2313 C2312 1.414 . S
C2313 C2314 1.374 . S
C2314 H2288 0.950 . S
C2314 C2310 1.385 . S
C2314 C2313 1.374 . S
C2315 C2312 1.499 . S
C2315 C2316 1.373 . S
C2315 C2317 1.389 . S
C2316 H2289 0.950 . S
C2316 C2302 1.377 . S
C2316 C2315 1.373 . S
C2317 C2301 1.377 . S
C2317 C2315 1.389 . S
C2317 C2318 1.524 . S
C2318 C2317 1.524 . S
C2318 C2319 1.397 . S
C2318 C2323 1.363 . S
C2319 H2290 0.950 . S
C2319 C2318 1.397 . S
C2319 C2320 1.334 . S
C2320 H2291 0.950 . S
C2320 C2319 1.334 . S
C2320 C2321 1.287 . S
C2321 C2320 1.287 . S
C2321 C2322 1.524 . S
C2321 H2324 0.999 . S
C2322 H2292 0.950 . S
C2322 C2321 1.524 . S
C2322 C2323 1.415 . S
C2323 H2293 0.950 . S
C2323 C2318 1.363 . S
C2323 C2322 1.415 . S
H2324 C2321 0.999 . S
H2325 C2306 0.913 . S
H2326 C2344 0.951 . S
H2327 C2346 0.951 . S
H2328 C2348 0.950 . S
H2329 C2349 0.950 . S
H2330 C2351 0.950 . S
H2331 C2354 0.950 . S
H2332 C2355 0.950 . S
H2333 C2357 0.950 . S
H2334 C2358 0.950 . S
H2335 C2359 0.951 . S
H2336 C2361 0.951 . S
H2337 C2363 0.950 . S
H2338 C2364 0.950 . S
H2339 C2366 0.950 . S
H2340 C2369 0.950 . S
H2341 C2370 0.950 . S
H2342 C2372 0.950 . S
H2343 C2373 0.950 . S
C2344 H2326 0.951 . S
C2344 C2345 1.366 . S
C2344 C2346 1.388 . S
C2345 C2344 1.366 . S
C2345 C2349 1.385 . S
C2346 H2327 0.951 . S
C2346 C2344 1.388 . S
C2346 C2347 1.366 . S
C2347 C2346 1.366 . S
C2347 C2348 1.414 . S
C2347 C2350 1.499 . S
C2348 H2328 0.950 . S
C2348 C2347 1.414 . S
C2348 C2349 1.374 . S
C2349 H2329 0.950 . S
C2349 C2345 1.385 . S
C2349 C2348 1.374 . S
C2350 C2347 1.499 . S
C2350 C2351 1.373 . S
C2350 C2352 1.389 . S
C2351 H2330 0.950 . S
C2351 C2350 1.373 . S
C2351 C2367 1.377 . S
C2352 C2350 1.389 . S
C2352 C2353 1.524 . S
C2352 C2366 1.377 . S
C2353 C2352 1.524 . S
C2353 C2354 1.397 . S
C2353 C2358 1.363 . S
C2354 H2331 0.950 . S
C2354 C2353 1.397 . S
C2354 C2355 1.334 . S
C2355 H2332 0.950 . S
C2355 C2354 1.334 . S
C2355 C2356 1.287 . S
C2356 C2355 1.287 . S
C2356 C2357 1.524 . S
C2356 H2375 0.913 . S
C2357 H2333 0.950 . S
C2357 C2356 1.524 . S
C2357 C2358 1.415 . S
C2358 H2334 0.950 . S
C2358 C2353 1.363 . S
C2358 C2357 1.415 . S
C2359 H2335 0.951 . S
C2359 C2360 1.366 . S
C2359 C2361 1.388 . S
C2360 C2359 1.366 . S
C2360 C2364 1.385 . S
C2361 H2336 0.951 . S
C2361 C2359 1.388 . S
C2361 C2362 1.366 . S
C2362 C2361 1.366 . S
C2362 C2363 1.414 . S
C2362 C2365 1.499 . S
C2363 H2337 0.950 . S
C2363 C2362 1.414 . S
C2363 C2364 1.374 . S
C2364 H2338 0.950 . S
C2364 C2360 1.385 . S
C2364 C2363 1.374 . S
C2365 C2362 1.499 . S
C2365 C2366 1.373 . S
C2365 C2367 1.389 . S
C2366 H2339 0.950 . S
C2366 C2352 1.377 . S
C2366 C2365 1.373 . S
C2367 C2351 1.377 . S
C2367 C2365 1.389 . S
C2367 C2368 1.524 . S
C2368 C2367 1.524 . S
C2368 C2369 1.397 . S
C2368 C2373 1.363 . S
C2369 H2340 0.950 . S
C2369 C2368 1.397 . S
C2369 C2370 1.334 . S
C2370 H2341 0.950 . S
C2370 C2369 1.334 . S
C2370 C2371 1.287 . S
C2371 C2370 1.287 . S
C2371 C2372 1.524 . S
C2371 H2374 0.999 . S
C2372 H2342 0.950 . S
C2372 C2371 1.524 . S
C2372 C2373 1.415 . S
C2373 H2343 0.950 . S
C2373 C2368 1.363 . S
C2373 C2372 1.415 . S
H2374 C2371 0.999 . S
H2375 C2356 0.913 . S
H2376 C2394 0.951 . S
H2377 C2396 0.951 . S
H2378 C2398 0.950 . S
H2379 C2399 0.950 . S
H2380 C2401 0.950 . S
H2381 C2404 0.950 1_455 S
H2382 C2405 0.950 . S
H2383 C2407 0.950 . S
H2384 C2408 0.950 . S
H2385 C2409 0.951 . S
H2386 C2411 0.951 . S
H2387 C2413 0.950 . S
H2388 C2414 0.950 . S
H2389 C2416 0.950 . S
H2390 C2419 0.950 . S
H2391 C2420 0.950 . S
H2392 C2422 0.950 . S
H2393 C2423 0.950 . S
C2394 H2376 0.951 . S
C2394 C2395 1.312 1_655 S
C2394 C2396 1.388 . S
C2395 C2394 1.312 1_455 S
C2395 C2399 1.448 . S
C2396 H2377 0.951 . S
C2396 C2394 1.388 . S
C2396 C2397 1.366 1_655 S
C2397 C2396 1.366 1_455 S
C2397 C2398 1.414 . S
C2397 C2400 1.499 . S
C2398 H2378 0.950 . S
C2398 C2397 1.414 . S
C2398 C2399 1.374 . S
C2399 H2379 0.950 . S
C2399 C2395 1.448 . S
C2399 C2398 1.374 . S
C2400 C2397 1.499 . S
C2400 C2401 1.373 . S
C2400 C2402 1.389 1_455 S
C2401 H2380 0.950 . S
C2401 C2400 1.373 . S
C2401 C2417 1.377 . S
C2402 C2400 1.389 1_655 S
C2402 C2403 1.524 . S
C2402 C2416 1.377 . S
C2403 C2402 1.524 . S
C2403 C2404 1.397 . S
C2403 C2408 1.363 . S
C2404 H2381 0.950 1_655 S
C2404 C2403 1.397 . S
C2404 C2405 1.334 . S
C2405 H2382 0.950 . S
C2405 C2404 1.334 . S
C2405 C2406 1.287 . S
C2406 C2405 1.287 . S
C2406 C2407 1.524 . S
C2406 H2425 0.913 . S
C2407 H2383 0.950 . S
C2407 C2406 1.524 . S
C2407 C2408 1.415 . S
C2408 H2384 0.950 . S
C2408 C2403 1.363 . S
C2408 C2407 1.415 . S
C2409 H2385 0.951 . S
C2409 C2410 1.366 . S
C2409 C2411 1.388 . S
C2410 C2409 1.366 . S
C2410 C2414 1.385 1_455 S
C2411 H2386 0.951 . S
C2411 C2409 1.388 . S
C2411 C2412 1.366 . S
C2412 C2411 1.366 . S
C2412 C2413 1.414 1_455 S
C2412 C2415 1.499 . S
C2413 H2387 0.950 . S
C2413 C2412 1.414 1_655 S
C2413 C2414 1.374 . S
C2414 H2388 0.950 . S
C2414 C2410 1.385 1_655 S
C2414 C2413 1.374 . S
C2415 C2412 1.499 . S
C2415 C2416 1.373 1_455 S
C2415 C2417 1.389 . S
C2416 H2389 0.950 . S
C2416 C2402 1.377 . S
C2416 C2415 1.373 1_655 S
C2417 C2401 1.377 . S
C2417 C2415 1.389 . S
C2417 C2418 1.524 . S
C2418 C2417 1.524 . S
C2418 C2419 1.397 . S
C2418 C2423 1.363 . S
C2419 H2390 0.950 . S
C2419 C2418 1.397 . S
C2419 C2420 1.334 . S
C2420 H2391 0.950 . S
C2420 C2419 1.334 . S
C2420 C2421 1.287 . S
C2421 C2420 1.287 . S
C2421 C2422 1.524 . S
C2421 H2424 0.999 . S
C2422 H2392 0.950 . S
C2422 C2421 1.524 . S
C2422 C2423 1.415 . S
C2423 H2393 0.950 . S
C2423 C2418 1.363 . S
C2423 C2422 1.415 . S
H2424 C2421 0.999 . S
H2425 C2406 0.913 . S
H2426 C2444 0.951 . S
H2427 C2446 0.951 . S
H2428 C2448 0.950 . S
H2429 C2449 0.950 . S
H2430 C2451 0.950 . S
H2431 C2454 0.950 . S
H2432 C2455 0.950 . S
H2433 C2457 0.950 . S
H2434 C2458 0.950 . S
H2435 C2459 0.951 . S
H2436 C2461 0.951 . S
H2437 C2463 0.950 . S
H2438 C2464 0.950 . S
H2439 C2466 0.950 . S
H2440 C2469 0.950 . S
H2441 C2470 0.950 . S
H2442 C2472 0.950 . S
H2443 C2473 0.950 . S
C2444 H2426 0.951 . S
C2444 C2445 1.366 . S
C2444 C2446 1.388 . S
C2445 C2444 1.366 . S
C2445 C2449 1.385 . S
C2446 H2427 0.951 . S
C2446 C2444 1.388 . S
C2446 C2447 1.366 . S
C2447 C2446 1.366 . S
C2447 C2448 1.414 . S
C2447 C2450 1.499 . S
C2448 H2428 0.950 . S
C2448 C2447 1.414 . S
C2448 C2449 1.374 . S
C2449 H2429 0.950 . S
C2449 C2445 1.385 . S
C2449 C2448 1.374 . S
C2450 C2447 1.499 . S
C2450 C2451 1.373 . S
C2450 C2452 1.389 . S
C2451 H2430 0.950 . S
C2451 C2450 1.373 . S
C2451 C2467 1.377 . S
C2452 C2450 1.389 . S
C2452 C2453 1.524 . S
C2452 C2466 1.377 . S
C2453 C2452 1.524 . S
C2453 C2454 1.397 . S
C2453 C2458 1.363 . S
C2454 H2431 0.950 . S
C2454 C2453 1.397 . S
C2454 C2455 1.334 . S
C2455 H2432 0.950 . S
C2455 C2454 1.334 . S
C2455 C2456 1.287 . S
C2456 C2455 1.287 . S
C2456 C2457 1.524 . S
C2456 H2475 0.913 . S
C2457 H2433 0.950 . S
C2457 C2456 1.524 . S
C2457 C2458 1.415 . S
C2458 H2434 0.950 . S
C2458 C2453 1.363 . S
C2458 C2457 1.415 . S
C2459 H2435 0.951 . S
C2459 C2460 1.366 . S
C2459 C2461 1.388 . S
C2460 C2459 1.366 . S
C2460 C2464 1.385 . S
C2461 H2436 0.951 . S
C2461 C2459 1.388 . S
C2461 C2462 1.366 . S
C2462 C2461 1.366 . S
C2462 C2463 1.414 . S
C2462 C2465 1.499 . S
C2463 H2437 0.950 . S
C2463 C2462 1.414 . S
C2463 C2464 1.374 . S
C2464 H2438 0.950 . S
C2464 C2460 1.385 . S
C2464 C2463 1.374 . S
C2465 C2462 1.499 . S
C2465 C2466 1.373 . S
C2465 C2467 1.389 . S
C2466 H2439 0.950 . S
C2466 C2452 1.377 . S
C2466 C2465 1.373 . S
C2467 C2451 1.377 . S
C2467 C2465 1.389 . S
C2467 C2468 1.524 . S
C2468 C2467 1.524 . S
C2468 C2469 1.397 . S
C2468 C2473 1.363 . S
C2469 H2440 0.950 . S
C2469 C2468 1.397 . S
C2469 C2470 1.334 . S
C2470 H2441 0.950 . S
C2470 C2469 1.334 . S
C2470 C2471 1.287 . S
C2471 C2470 1.287 . S
C2471 C2472 1.524 . S
C2471 H2474 0.999 . S
C2472 H2442 0.950 . S
C2472 C2471 1.524 . S
C2472 C2473 1.415 . S
C2473 H2443 0.950 . S
C2473 C2468 1.363 . S
C2473 C2472 1.415 . S
H2474 C2471 0.999 . S
H2475 C2456 0.913 . S
H2476 C2494 0.951 . S
H2477 C2496 0.951 . S
H2478 C2498 0.950 . S
H2479 C2499 0.950 . S
H2480 C2501 0.950 . S
H2481 C2504 0.950 . S
H2482 C2505 0.950 . S
H2483 C2507 0.950 . S
H2484 C2508 0.950 . S
H2485 C2509 0.951 . S
H2486 C2511 0.924 1_554 S
H2487 C2513 0.950 . S
H2488 C2514 0.950 . S
H2489 C2516 0.950 . S
H2490 C2519 0.950 . S
H2491 C2520 0.950 . S
H2492 C2522 0.950 1_554 S
H2493 C2523 0.950 . S
C2494 H2476 0.951 . S
C2494 C2495 1.366 . S
C2494 C2496 1.388 . S
C2495 C2494 1.366 . S
C2495 C2499 1.385 . S
C2496 H2477 0.951 . S
C2496 C2494 1.388 . S
C2496 C2497 1.366 . S
C2497 C2496 1.366 . S
C2497 C2498 1.414 . S
C2497 C2500 1.499 . S
C2498 H2478 0.950 . S
C2498 C2497 1.414 . S
C2498 C2499 1.374 . S
C2499 H2479 0.950 . S
C2499 C2495 1.385 . S
C2499 C2498 1.374 . S
C2500 C2497 1.499 . S
C2500 C2501 1.373 . S
C2500 C2502 1.389 . S
C2501 H2480 0.950 . S
C2501 C2500 1.373 . S
C2501 C2517 1.377 . S
C2502 C2500 1.389 . S
C2502 C2503 1.524 . S
C2502 C2516 1.377 . S
C2503 C2502 1.524 . S
C2503 C2504 1.397 . S
C2503 C2508 1.363 . S
C2504 H2481 0.950 . S
C2504 C2503 1.397 . S
C2504 C2505 1.334 . S
C2505 H2482 0.950 . S
C2505 C2504 1.334 . S
C2505 C2506 1.287 . S
C2506 C2505 1.287 . S
C2506 C2507 1.524 . S
C2506 H2525 0.913 . S
C2507 H2483 0.950 . S
C2507 C2506 1.524 . S
C2507 C2508 1.415 . S
C2508 H2484 0.950 . S
C2508 C2503 1.363 . S
C2508 C2507 1.415 . S
C2509 H2485 0.951 . S
C2509 C2510 1.366 . S
C2509 C2511 1.388 1_554 S
C2510 C2509 1.366 . S
C2510 C2514 1.385 1_554 S
C2511 H2486 0.924 1_556 S
C2511 C2509 1.388 1_556 S
C2511 C2512 1.366 . S
C2512 C2511 1.366 . S
C2512 C2513 1.414 . S
C2512 C2515 1.499 . S
C2513 H2487 0.950 . S
C2513 C2512 1.414 . S
C2513 C2514 1.374 . S
C2514 H2488 0.950 . S
C2514 C2510 1.385 1_556 S
C2514 C2513 1.374 . S
C2515 C2512 1.499 . S
C2515 C2516 1.373 . S
C2515 C2517 1.389 . S
C2516 H2489 0.950 . S
C2516 C2502 1.377 . S
C2516 C2515 1.373 . S
C2517 C2501 1.377 . S
C2517 C2515 1.389 . S
C2517 C2518 1.524 . S
C2518 C2517 1.524 . S
C2518 C2519 1.397 . S
C2518 C2523 1.363 . S
C2519 H2490 0.950 . S
C2519 C2518 1.397 . S
C2519 C2520 1.334 . S
C2520 H2491 0.950 . S
C2520 C2519 1.334 . S
C2520 C2521 1.287 . S
C2521 C2520 1.287 . S
C2521 C2522 1.524 . S
C2521 H2524 0.999 . S
C2522 H2492 0.950 1_556 S
C2522 C2521 1.524 . S
C2522 C2523 1.415 . S
C2523 H2493 0.950 . S
C2523 C2518 1.363 . S
C2523 C2522 1.415 . S
H2524 C2521 0.999 . S
H2525 C2506 0.913 . S
H2526 C2544 0.951 . S
H2527 C2546 0.951 . S
H2528 C2548 0.950 . S
H2529 C2549 0.950 . S
H2530 C2551 0.950 . S
H2531 C2554 0.950 . S
H2532 C2555 0.950 . S
H2533 C2557 0.950 . S
H2534 C2558 0.950 . S
H2535 C2559 0.951 . S
H2536 C2561 0.951 . S
H2537 C2563 0.950 . S
H2538 C2564 0.950 . S
H2539 C2566 0.950 . S
H2540 C2569 0.950 . S
H2541 C2570 0.950 . S
H2542 C2572 0.950 . S
H2543 C2573 0.950 . S
C2544 H2526 0.951 . S
C2544 C2545 1.366 . S
C2544 C2546 1.388 1_455 S
C2545 C2544 1.366 . S
C2545 C2549 1.385 1_455 S
C2546 H2527 0.951 . S
C2546 C2544 1.388 1_655 S
C2546 C2547 1.366 . S
C2547 C2546 1.366 . S
C2547 C2548 1.414 . S
C2547 C2550 1.499 . S
C2548 H2528 0.950 . S
C2548 C2547 1.414 . S
C2548 C2549 1.374 . S
C2549 H2529 0.950 . S
C2549 C2545 1.385 1_655 S
C2549 C2548 1.374 . S
C2550 C2547 1.499 . S
C2550 C2551 1.373 . S
C2550 C2552 1.389 . S
C2551 H2530 0.950 . S
C2551 C2550 1.373 . S
C2551 C2567 1.377 . S
C2552 C2550 1.389 . S
C2552 C2553 1.524 . S
C2552 C2566 1.377 . S
C2553 C2552 1.524 . S
C2553 C2554 1.397 . S
C2553 C2558 1.363 . S
C2554 H2531 0.950 . S
C2554 C2553 1.397 . S
C2554 C2555 1.334 . S
C2555 H2532 0.950 . S
C2555 C2554 1.334 . S
C2555 C2556 1.287 . S
C2556 C2555 1.287 . S
C2556 C2557 1.524 . S
C2556 H2575 0.913 . S
C2557 H2533 0.950 . S
C2557 C2556 1.524 . S
C2557 C2558 1.415 . S
C2558 H2534 0.950 . S
C2558 C2553 1.363 . S
C2558 C2557 1.415 . S
C2559 H2535 0.951 . S
C2559 C2560 1.366 . S
C2559 C2561 1.388 . S
C2560 C2559 1.366 . S
C2560 C2564 1.385 . S
C2561 H2536 0.951 . S
C2561 C2559 1.388 . S
C2561 C2562 1.366 . S
C2562 C2561 1.366 . S
C2562 C2563 1.414 . S
C2562 C2565 1.499 . S
C2563 H2537 0.950 . S
C2563 C2562 1.414 . S
C2563 C2564 1.374 . S
C2564 H2538 0.950 . S
C2564 C2560 1.385 . S
C2564 C2563 1.374 . S
C2565 C2562 1.499 . S
C2565 C2566 1.373 . S
C2565 C2567 1.389 . S
C2566 H2539 0.950 . S
C2566 C2552 1.377 . S
C2566 C2565 1.373 . S
C2567 C2551 1.377 . S
C2567 C2565 1.389 . S
C2567 C2568 1.524 . S
C2568 C2567 1.524 . S
C2568 C2569 1.397 . S
C2568 C2573 1.363 . S
C2569 H2540 0.950 . S
C2569 C2568 1.397 . S
C2569 C2570 1.334 . S
C2570 H2541 0.950 . S
C2570 C2569 1.334 . S
C2570 C2571 1.287 . S
C2571 C2570 1.287 . S
C2571 C2572 1.524 . S
C2571 H2574 0.999 . S
C2572 H2542 0.950 . S
C2572 C2571 1.524 . S
C2572 C2573 1.415 . S
C2573 H2543 0.950 . S
C2573 C2568 1.363 . S
C2573 C2572 1.415 . S
H2574 C2571 0.999 . S
H2575 C2556 0.913 . S
H2576 C2594 0.951 . S
H2577 C2596 0.951 . S
H2578 C2598 0.950 . S
H2579 C2599 0.950 . S
H2580 C2601 0.921 1_565 S
H2581 C2604 0.950 . S
H2582 C2605 0.950 . S
H2583 C2607 0.950 . S
H2584 C2608 0.950 . S
H2585 C2609 0.951 . S
H2586 C2611 0.951 . S
H2587 C2613 0.950 . S
H2588 C2614 0.950 . S
H2589 C2616 0.950 . S
H2590 C2619 0.950 . S
H2591 C2620 0.950 . S
H2592 C2622 0.950 . S
H2593 C2623 0.950 . S
C2594 H2576 0.951 . S
C2594 C2595 1.366 . S
C2594 C2596 1.388 . S
C2595 C2594 1.366 . S
C2595 C2599 1.385 . S
C2596 H2577 0.951 . S
C2596 C2594 1.388 . S
C2596 C2597 1.366 . S
C2597 C2596 1.366 . S
C2597 C2598 1.414 . S
C2597 C2600 1.499 . S
C2598 H2578 0.950 . S
C2598 C2597 1.414 . S
C2598 C2599 1.374 . S
C2599 H2579 0.950 . S
C2599 C2595 1.385 . S
C2599 C2598 1.374 . S
C2600 C2597 1.499 . S
C2600 C2601 1.373 . S
C2600 C2602 1.389 . S
C2601 H2580 0.921 1_545 S
C2601 C2600 1.373 . S
C2601 C2617 1.377 . S
C2602 C2600 1.389 . S
C2602 C2603 1.524 . S
C2602 C2616 1.377 . S
C2603 C2602 1.524 . S
C2603 C2604 1.397 . S
C2603 C2608 1.363 . S
C2604 H2581 0.950 . S
C2604 C2603 1.397 . S
C2604 C2605 1.334 . S
C2605 H2582 0.950 . S
C2605 C2604 1.334 . S
C2605 C2606 1.287 . S
C2606 C2605 1.287 . S
C2606 C2607 1.524 . S
C2606 H2625 0.913 . S
C2607 H2583 0.950 . S
C2607 C2606 1.524 . S
C2607 C2608 1.415 . S
C2608 H2584 0.950 . S
C2608 C2603 1.363 . S
C2608 C2607 1.415 . S
C2609 H2585 0.951 . S
C2609 C2610 1.366 . S
C2609 C2611 1.388 . S
C2610 C2609 1.366 . S
C2610 C2614 1.385 . S
C2611 H2586 0.951 . S
C2611 C2609 1.388 . S
C2611 C2612 1.366 . S
C2612 C2611 1.366 . S
C2612 C2613 1.414 . S
C2612 C2615 1.499 . S
C2613 H2587 0.950 . S
C2613 C2612 1.414 . S
C2613 C2614 1.374 . S
C2614 H2588 0.950 . S
C2614 C2610 1.385 . S
C2614 C2613 1.374 . S
C2615 C2612 1.499 . S
C2615 C2616 1.373 . S
C2615 C2617 1.389 . S
C2616 H2589 0.950 . S
C2616 C2602 1.377 . S
C2616 C2615 1.373 . S
C2617 C2601 1.377 . S
C2617 C2615 1.389 . S
C2617 C2618 1.524 1_545 S
C2618 C2617 1.524 1_565 S
C2618 C2619 1.397 . S
C2618 C2623 1.363 . S
C2619 H2590 0.950 . S
C2619 C2618 1.397 . S
C2619 C2620 1.334 . S
C2620 H2591 0.950 . S
C2620 C2619 1.334 . S
C2620 C2621 1.287 . S
C2621 C2620 1.287 . S
C2621 C2622 1.524 . S
C2621 H2624 0.999 . S
C2622 H2592 0.950 . S
C2622 C2621 1.524 . S
C2622 C2623 1.415 . S
C2623 H2593 0.950 . S
C2623 C2618 1.363 . S
C2623 C2622 1.415 . S
H2624 C2621 0.999 . S
H2625 C2606 0.913 . S
H2626 C2644 0.951 . S
H2627 C2646 0.951 . S
H2628 C2648 0.950 . S
H2629 C2649 0.950 . S
H2630 C2651 0.950 . S
H2631 C2654 0.950 . S
H2632 C2655 0.950 . S
H2633 C2657 0.950 . S
H2634 C2658 0.950 . S
H2635 C2659 0.951 . S
H2636 C2661 0.951 . S
H2637 C2663 0.950 . S
H2638 C2664 0.950 . S
H2639 C2666 0.950 . S
H2640 C2669 0.950 . S
H2641 C2670 0.950 . S
H2642 C2672 0.950 . S
H2643 C2673 0.950 . S
C2644 H2626 0.951 . S
C2644 C2645 1.366 . S
C2644 C2646 1.388 . S
C2645 C2644 1.366 . S
C2645 C2649 1.385 . S
C2646 H2627 0.951 . S
C2646 C2644 1.388 . S
C2646 C2647 1.366 . S
C2647 C2646 1.366 . S
C2647 C2648 1.414 . S
C2647 C2650 1.499 . S
C2648 H2628 0.950 . S
C2648 C2647 1.414 . S
C2648 C2649 1.374 . S
C2649 H2629 0.950 . S
C2649 C2645 1.385 . S
C2649 C2648 1.374 . S
C2650 C2647 1.499 . S
C2650 C2651 1.373 . S
C2650 C2652 1.389 . S
C2651 H2630 0.950 . S
C2651 C2650 1.373 . S
C2651 C2667 1.377 . S
C2652 C2650 1.389 . S
C2652 C2653 1.524 . S
C2652 C2666 1.377 . S
C2653 C2652 1.524 . S
C2653 C2654 1.397 . S
C2653 C2658 1.363 . S
C2654 H2631 0.950 . S
C2654 C2653 1.397 . S
C2654 C2655 1.334 . S
C2655 H2632 0.950 . S
C2655 C2654 1.334 . S
C2655 C2656 1.287 . S
C2656 C2655 1.287 . S
C2656 C2657 1.524 . S
C2656 H2675 0.913 . S
C2657 H2633 0.950 . S
C2657 C2656 1.524 . S
C2657 C2658 1.415 . S
C2658 H2634 0.950 . S
C2658 C2653 1.363 . S
C2658 C2657 1.415 . S
C2659 H2635 0.951 . S
C2659 C2660 1.366 . S
C2659 C2661 1.388 . S
C2660 C2659 1.366 . S
C2660 C2664 1.385 . S
C2661 H2636 0.951 . S
C2661 C2659 1.388 . S
C2661 C2662 1.366 . S
C2662 C2661 1.366 . S
C2662 C2663 1.414 . S
C2662 C2665 1.499 . S
C2663 H2637 0.950 . S
C2663 C2662 1.414 . S
C2663 C2664 1.374 . S
C2664 H2638 0.950 . S
C2664 C2660 1.385 . S
C2664 C2663 1.374 . S
C2665 C2662 1.499 . S
C2665 C2666 1.373 . S
C2665 C2667 1.389 . S
C2666 H2639 0.950 . S
C2666 C2652 1.377 . S
C2666 C2665 1.373 . S
C2667 C2651 1.377 . S
C2667 C2665 1.389 . S
C2667 C2668 1.524 . S
C2668 C2667 1.524 . S
C2668 C2669 1.397 . S
C2668 C2673 1.363 . S
C2669 H2640 0.950 . S
C2669 C2668 1.397 . S
C2669 C2670 1.334 . S
C2670 H2641 0.950 . S
C2670 C2669 1.334 . S
C2670 C2671 1.287 . S
C2671 C2670 1.287 . S
C2671 C2672 1.524 . S
C2671 H2674 0.999 . S
C2672 H2642 0.950 . S
C2672 C2671 1.524 . S
C2672 C2673 1.415 . S
C2673 H2643 0.950 . S
C2673 C2668 1.363 . S
C2673 C2672 1.415 . S
H2674 C2671 0.999 . S
H2675 C2656 0.913 . S
H2676 C2694 0.951 . S
H2677 C2696 0.951 . S
H2678 C2698 0.950 . S
H2679 C2699 0.950 . S
H2680 C2701 0.950 . S
H2681 C2704 0.950 . S
H2682 C2705 0.950 . S
H2683 C2707 0.950 . S
H2684 C2708 0.938 1_545 S
H2685 C2709 0.951 . S
H2686 C2711 0.951 . S
H2687 C2713 0.950 . S
H2688 C2714 0.950 . S
H2689 C2716 0.950 . S
H2690 C2719 0.950 . S
H2691 C2720 0.950 . S
H2692 C2722 0.950 . S
H2693 C2723 0.950 . S
C2694 H2676 0.951 . S
C2694 C2695 1.366 . S
C2694 C2696 1.388 . S
C2695 C2694 1.366 . S
C2695 C2699 1.385 . S
C2696 H2677 0.951 . S
C2696 C2694 1.388 . S
C2696 C2697 1.366 . S
C2697 C2696 1.366 . S
C2697 C2698 1.414 . S
C2697 C2700 1.499 . S
C2698 H2678 0.950 . S
C2698 C2697 1.414 . S
C2698 C2699 1.374 . S
C2699 H2679 0.950 . S
C2699 C2695 1.385 . S
C2699 C2698 1.374 . S
C2700 C2697 1.499 . S
C2700 C2701 1.373 . S
C2700 C2702 1.389 . S
C2701 H2680 0.950 . S
C2701 C2700 1.373 . S
C2701 C2717 1.377 . S
C2702 C2700 1.389 . S
C2702 C2703 1.524 1_545 S
C2702 C2716 1.377 . S
C2703 C2702 1.524 1_565 S
C2703 C2704 1.397 . S
C2703 C2708 1.361 . S
C2704 H2681 0.950 . S
C2704 C2703 1.397 . S
C2704 C2705 1.334 . S
C2705 H2682 0.950 . S
C2705 C2704 1.334 . S
C2705 C2706 1.287 . S
C2706 C2705 1.287 . S
C2706 C2707 1.524 . S
C2706 H2725 0.913 . S
C2707 H2683 0.950 . S
C2707 C2706 1.524 . S
C2707 C2708 1.430 . S
C2708 H2684 0.938 1_565 S
C2708 C2703 1.361 . S
C2708 C2707 1.430 . S
C2709 H2685 0.951 . S
C2709 C2710 1.366 . S
C2709 C2711 1.388 . S
C2710 C2709 1.366 . S
C2710 C2714 1.385 . S
C2711 H2686 0.951 . S
C2711 C2709 1.388 . S
C2711 C2712 1.366 . S
C2712 C2711 1.366 . S
C2712 C2713 1.414 . S
C2712 C2715 1.499 . S
C2713 H2687 0.950 . S
C2713 C2712 1.414 . S
C2713 C2714 1.374 . S
C2714 H2688 0.950 . S
C2714 C2710 1.385 . S
C2714 C2713 1.374 . S
C2715 C2712 1.499 . S
C2715 C2716 1.373 . S
C2715 C2717 1.389 . S
C2716 H2689 0.950 . S
C2716 C2702 1.377 . S
C2716 C2715 1.373 . S
C2717 C2701 1.377 . S
C2717 C2715 1.389 . S
C2717 C2718 1.524 . S
C2718 C2717 1.524 . S
C2718 C2719 1.397 . S
C2718 C2723 1.363 . S
C2719 H2690 0.950 . S
C2719 C2718 1.397 . S
C2719 C2720 1.334 . S
C2720 H2691 0.950 . S
C2720 C2719 1.334 . S
C2720 C2721 1.287 . S
C2721 C2720 1.287 . S
C2721 C2722 1.524 . S
C2721 H2724 0.999 . S
C2722 H2692 0.950 . S
C2722 C2721 1.524 . S
C2722 C2723 1.415 . S
C2723 H2693 0.950 . S
C2723 C2718 1.363 . S
C2723 C2722 1.415 . S
H2724 C2721 0.999 . S
H2725 C2706 0.913 . S
H2726 C2744 0.951 . S
H2727 C2746 0.951 . S
H2728 C2748 0.950 . S
H2729 C2749 0.950 . S
H2730 C2751 0.950 . S
H2731 C2754 0.950 . S
H2732 C2755 0.950 . S
H2733 C2757 0.950 . S
H2734 C2758 0.950 . S
H2735 C2759 0.951 . S
H2736 C2761 0.951 . S
H2737 C2763 0.950 . S
H2738 C2764 0.950 . S
H2739 C2766 0.950 . S
H2740 C2769 0.950 . S
H2741 C2770 0.950 . S
H2742 C2772 0.950 . S
H2743 C2773 0.950 . S
C2744 H2726 0.951 . S
C2744 C2745 1.366 . S
C2744 C2746 1.388 . S
C2745 C2744 1.366 . S
C2745 C2749 1.385 . S
C2746 H2727 0.951 . S
C2746 C2744 1.388 . S
C2746 C2747 1.366 . S
C2747 C2746 1.366 . S
C2747 C2748 1.414 . S
C2747 C2750 1.499 . S
C2748 H2728 0.950 . S
C2748 C2747 1.414 . S
C2748 C2749 1.374 . S
C2749 H2729 0.950 . S
C2749 C2745 1.385 . S
C2749 C2748 1.374 . S
C2750 C2747 1.499 . S
C2750 C2751 1.373 . S
C2750 C2752 1.389 . S
C2751 H2730 0.950 . S
C2751 C2750 1.373 . S
C2751 C2767 1.377 . S
C2752 C2750 1.389 . S
C2752 C2753 1.524 . S
C2752 C2766 1.377 . S
C2753 C2752 1.524 . S
C2753 C2754 1.397 . S
C2753 C2758 1.363 . S
C2754 H2731 0.950 . S
C2754 C2753 1.397 . S
C2754 C2755 1.334 . S
C2755 H2732 0.950 . S
C2755 C2754 1.334 . S
C2755 C2756 1.287 . S
C2756 C2755 1.287 . S
C2756 C2757 1.524 . S
C2756 H2775 0.913 . S
C2757 H2733 0.950 . S
C2757 C2756 1.524 . S
C2757 C2758 1.415 . S
C2758 H2734 0.950 . S
C2758 C2753 1.363 . S
C2758 C2757 1.415 . S
C2759 H2735 0.951 . S
C2759 C2760 1.366 . S
C2759 C2761 1.388 . S
C2760 C2759 1.366 . S
C2760 C2764 1.385 . S
C2761 H2736 0.951 . S
C2761 C2759 1.388 . S
C2761 C2762 1.366 . S
C2762 C2761 1.366 . S
C2762 C2763 1.414 . S
C2762 C2765 1.499 . S
C2763 H2737 0.950 . S
C2763 C2762 1.414 . S
C2763 C2764 1.374 . S
C2764 H2738 0.950 . S
C2764 C2760 1.385 . S
C2764 C2763 1.374 . S
C2765 C2762 1.499 . S
C2765 C2766 1.373 . S
C2765 C2767 1.389 . S
C2766 H2739 0.950 . S
C2766 C2752 1.377 . S
C2766 C2765 1.373 . S
C2767 C2751 1.377 . S
C2767 C2765 1.389 . S
C2767 C2768 1.524 . S
C2768 C2767 1.524 . S
C2768 C2769 1.397 . S
C2768 C2773 1.363 . S
C2769 H2740 0.950 . S
C2769 C2768 1.397 . S
C2769 C2770 1.334 . S
C2770 H2741 0.950 . S
C2770 C2769 1.334 . S
C2770 C2771 1.287 . S
C2771 C2770 1.287 . S
C2771 C2772 1.524 . S
C2771 H2774 0.999 . S
C2772 H2742 0.950 . S
C2772 C2771 1.524 . S
C2772 C2773 1.415 . S
C2773 H2743 0.950 . S
C2773 C2768 1.363 . S
C2773 C2772 1.415 . S
H2774 C2771 0.999 . S
H2775 C2756 0.913 . S
H2776 C2794 0.951 1_565 S
H2777 C2796 0.951 1_565 S
H2778 C2798 0.950 . S
H2779 C2799 0.950 . S
H2780 C2801 0.950 . S
H2781 C2804 0.950 . S
H2782 C2805 0.950 . S
H2783 C2807 0.950 . S
H2784 C2808 0.950 . S
H2785 C2809 0.951 . S
H2786 C2811 0.951 . S
H2787 C2813 0.950 . S
H2788 C2814 0.950 . S
H2789 C2816 0.976 . S
H2790 C2819 0.950 . S
H2791 C2820 0.950 . S
H2792 C2822 0.950 . S
H2793 C2823 0.950 . S
C2794 H2776 0.951 1_545 S
C2794 C2795 1.366 . S
C2794 C2796 1.388 . S
C2795 C2794 1.366 . S
C2795 C2799 1.385 . S
C2796 H2777 0.951 1_545 S
C2796 C2794 1.388 . S
C2796 C2797 1.366 . S
C2797 C2796 1.366 . S
C2797 C2798 1.414 . S
C2797 C2800 1.499 . S
C2798 H2778 0.950 . S
C2798 C2797 1.414 . S
C2798 C2799 1.374 . S
C2799 H2779 0.950 . S
C2799 C2795 1.385 . S
C2799 C2798 1.374 . S
C2800 C2797 1.499 . S
C2800 C2801 1.373 . S
C2800 C2802 1.389 . S
C2801 H2780 0.950 . S
C2801 C2800 1.373 . S
C2801 C2817 1.377 . S
C2802 C2800 1.389 . S
C2802 C2803 1.524 . S
C2802 C2816 1.377 . S
C2803 C2802 1.524 . S
C2803 C2804 1.397 . S
C2803 C2808 1.363 1_545 S
C2804 H2781 0.950 . S
C2804 C2803 1.397 . S
C2804 C2805 1.334 . S
C2805 H2782 0.950 . S
C2805 C2804 1.334 . S
C2805 C2806 1.287 1_545 S
C2806 C2805 1.287 1_565 S
C2806 C2807 1.524 . S
C2806 H2825 0.913 . S
C2807 H2783 0.950 . S
C2807 C2806 1.524 . S
C2807 C2808 1.415 . S
C2808 H2784 0.950 . S
C2808 C2803 1.363 1_565 S
C2808 C2807 1.415 . S
C2809 H2785 0.951 . S
C2809 C2810 1.366 . S
C2809 C2811 1.388 . S
C2810 C2809 1.366 . S
C2810 C2814 1.385 1_545 S
C2811 H2786 0.951 . S
C2811 C2809 1.388 . S
C2811 C2812 1.366 . S
C2812 C2811 1.366 . S
C2812 C2813 1.414 1_545 S
C2812 C2815 1.499 . S
C2813 H2787 0.950 . S
C2813 C2812 1.414 1_565 S
C2813 C2814 1.374 . S
C2814 H2788 0.950 . S
C2814 C2810 1.385 1_565 S
C2814 C2813 1.374 . S
C2815 C2812 1.499 . S
C2815 C2816 1.373 . S
C2815 C2817 1.389 . S
C2816 H2789 0.976 . S
C2816 C2802 1.377 . S
C2816 C2815 1.373 . S
C2817 C2801 1.377 . S
C2817 C2815 1.389 . S
C2817 C2818 1.524 . S
C2818 C2817 1.524 . S
C2818 C2819 1.397 . S
C2818 C2823 1.363 . S
C2819 H2790 0.950 . S
C2819 C2818 1.397 . S
C2819 C2820 1.334 . S
C2820 H2791 0.950 . S
C2820 C2819 1.334 . S
C2820 C2821 1.287 . S
C2821 C2820 1.287 . S
C2821 C2822 1.524 . S
C2821 H2824 0.999 . S
C2822 H2792 0.950 . S
C2822 C2821 1.524 . S
C2822 C2823 1.415 . S
C2823 H2793 0.950 . S
C2823 C2818 1.363 . S
C2823 C2822 1.415 . S
H2824 C2821 0.999 . S
H2825 C2806 0.913 . S
H2826 C2844 0.951 . S
H2827 C2846 0.951 . S
H2828 C2848 0.950 . S
H2829 C2849 0.950 . S
H2830 C2851 0.950 . S
H2831 C2854 0.950 . S
H2832 C2855 0.950 . S
H2833 C2857 0.950 . S
H2834 C2858 0.950 . S
H2835 C2859 0.951 . S
H2836 C2861 0.951 . S
H2837 C2863 0.950 . S
H2838 C2864 0.950 . S
H2839 C2866 0.950 . S
H2840 C2869 0.950 . S
H2841 C2870 0.950 . S
H2842 C2872 0.950 . S
H2843 C2873 0.950 . S
C2844 H2826 0.951 . S
C2844 C2845 1.366 . S
C2844 C2846 1.388 . S
C2845 C2844 1.366 . S
C2845 C2849 1.385 . S
C2846 H2827 0.951 . S
C2846 C2844 1.388 . S
C2846 C2847 1.366 . S
C2847 C2846 1.366 . S
C2847 C2848 1.414 . S
C2847 C2850 1.499 . S
C2848 H2828 0.950 . S
C2848 C2847 1.414 . S
C2848 C2849 1.374 . S
C2849 H2829 0.950 . S
C2849 C2845 1.385 . S
C2849 C2848 1.374 . S
C2850 C2847 1.499 . S
C2850 C2851 1.373 . S
C2850 C2852 1.389 . S
C2851 H2830 0.950 . S
C2851 C2850 1.373 . S
C2851 C2867 1.377 . S
C2852 C2850 1.389 . S
C2852 C2853 1.524 . S
C2852 C2866 1.377 . S
C2853 C2852 1.524 . S
C2853 C2854 1.397 . S
C2853 C2858 1.363 . S
C2854 H2831 0.950 . S
C2854 C2853 1.397 . S
C2854 C2855 1.334 . S
C2855 H2832 0.950 . S
C2855 C2854 1.334 . S
C2855 C2856 1.287 . S
C2856 C2855 1.287 . S
C2856 C2857 1.524 . S
C2856 H2875 0.913 . S
C2857 H2833 0.950 . S
C2857 C2856 1.524 . S
C2857 C2858 1.415 . S
C2858 H2834 0.950 . S
C2858 C2853 1.363 . S
C2858 C2857 1.415 . S
C2859 H2835 0.951 . S
C2859 C2860 1.366 . S
C2859 C2861 1.388 . S
C2860 C2859 1.366 . S
C2860 C2864 1.385 . S
C2861 H2836 0.951 . S
C2861 C2859 1.388 . S
C2861 C2862 1.366 . S
C2862 C2861 1.366 . S
C2862 C2863 1.414 . S
C2862 C2865 1.499 . S
C2863 H2837 0.950 . S
C2863 C2862 1.414 . S
C2863 C2864 1.374 . S
C2864 H2838 0.950 . S
C2864 C2860 1.385 . S
C2864 C2863 1.374 . S
C2865 C2862 1.499 . S
C2865 C2866 1.373 . S
C2865 C2867 1.389 . S
C2866 H2839 0.950 . S
C2866 C2852 1.377 . S
C2866 C2865 1.373 . S
C2867 C2851 1.377 . S
C2867 C2865 1.389 . S
C2867 C2868 1.524 . S
C2868 C2867 1.524 . S
C2868 C2869 1.397 . S
C2868 C2873 1.363 . S
C2869 H2840 0.950 . S
C2869 C2868 1.397 . S
C2869 C2870 1.334 . S
C2870 H2841 0.950 . S
C2870 C2869 1.334 . S
C2870 C2871 1.287 . S
C2871 C2870 1.287 . S
C2871 C2872 1.524 . S
C2871 H2874 0.999 . S
C2872 H2842 0.950 . S
C2872 C2871 1.524 . S
C2872 C2873 1.415 . S
C2873 H2843 0.950 . S
C2873 C2868 1.363 . S
C2873 C2872 1.415 . S
H2874 C2871 0.999 . S
H2875 C2856 0.913 . S
H2876 C2894 0.951 . S
H2877 C2896 0.951 . S
H2878 C2898 0.950 . S
H2879 C2899 0.950 . S
H2880 C2901 0.950 . S
H2881 C2904 0.950 . S
H2882 C2905 0.950 . S
H2883 C2907 0.950 . S
H2884 C2908 0.950 1_545 S
H2885 C2909 0.952 1_565 S
H2886 C2911 0.951 1_565 S
H2887 C2913 0.950 . S
H2888 C2914 0.950 . S
H2889 C2916 0.950 1_565 S
H2890 C2919 0.950 . S
H2891 C2920 0.950 . S
H2892 C2922 0.950 . S
H2893 C2923 0.950 . S
C2894 H2876 0.951 . S
C2894 C2895 1.366 . S
C2894 C2896 1.388 . S
C2895 C2894 1.366 . S
C2895 C2899 1.385 . S
C2896 H2877 0.951 . S
C2896 C2894 1.388 . S
C2896 C2897 1.366 . S
C2897 C2896 1.366 . S
C2897 C2898 1.414 . S
C2897 C2900 1.499 . S
C2898 H2878 0.950 . S
C2898 C2897 1.414 . S
C2898 C2899 1.374 . S
C2899 H2879 0.950 . S
C2899 C2895 1.385 . S
C2899 C2898 1.374 . S
C2900 C2897 1.499 . S
C2900 C2901 1.373 . S
C2900 C2902 1.389 . S
C2901 H2880 0.950 . S
C2901 C2900 1.373 . S
C2901 C2917 1.377 . S
C2902 C2900 1.389 . S
C2902 C2903 1.524 1_545 S
C2902 C2916 1.377 . S
C2903 C2902 1.524 1_565 S
C2903 C2904 1.397 . S
C2903 C2908 1.363 . S
C2904 H2881 0.950 . S
C2904 C2903 1.397 . S
C2904 C2905 1.334 . S
C2905 H2882 0.950 . S
C2905 C2904 1.334 . S
C2905 C2906 1.287 . S
C2906 C2905 1.287 . S
C2906 C2907 1.524 . S
C2906 H2925 0.913 . S
C2907 H2883 0.950 . S
C2907 C2906 1.524 . S
C2907 C2908 1.415 . S
C2908 H2884 0.950 1_565 S
C2908 C2903 1.363 . S
C2908 C2907 1.415 . S
C2909 H2885 0.952 1_545 S
C2909 C2910 1.365 . S
C2909 C2911 1.388 . S
C2910 C2909 1.365 . S
C2910 C2914 1.385 . S
C2911 H2886 0.951 1_545 S
C2911 C2909 1.388 . S
C2911 C2912 1.366 . S
C2912 C2911 1.366 . S
C2912 C2913 1.414 . S
C2912 C2915 1.499 . S
C2913 H2887 0.950 . S
C2913 C2912 1.414 . S
C2913 C2914 1.374 . S
C2914 H2888 0.950 . S
C2914 C2910 1.385 . S
C2914 C2913 1.374 . S
C2915 C2912 1.499 . S
C2915 C2916 1.373 . S
C2915 C2917 1.389 . S
C2916 H2889 0.950 1_545 S
C2916 C2902 1.377 . S
C2916 C2915 1.373 . S
C2917 C2901 1.377 . S
C2917 C2915 1.389 . S
C2917 C2918 1.524 . S
C2918 C2917 1.524 . S
C2918 C2919 1.397 . S
C2918 C2923 1.363 . S
C2919 H2890 0.950 . S
C2919 C2918 1.397 . S
C2919 C2920 1.334 . S
C2920 H2891 0.950 . S
C2920 C2919 1.334 . S
C2920 C2921 1.287 . S
C2921 C2920 1.287 . S
C2921 C2922 1.524 . S
C2921 H2924 0.999 . S
C2922 H2892 0.950 . S
C2922 C2921 1.524 . S
C2922 C2923 1.415 . S
C2923 H2893 0.950 . S
C2923 C2918 1.363 . S
C2923 C2922 1.415 . S
H2924 C2921 0.999 . S
H2925 C2906 0.913 . S
H2926 C2944 0.951 . S
H2927 C2946 0.951 . S
H2928 C2948 0.950 . S
H2929 C2949 0.950 . S
H2930 C2951 0.950 . S
H2931 C2954 0.950 . S
H2932 C2955 0.950 . S
H2933 C2957 0.950 . S
H2934 C2958 0.950 . S
H2935 C2959 0.951 . S
H2936 C2961 0.951 . S
H2937 C2963 0.950 . S
H2938 C2964 0.950 . S
H2939 C2966 0.950 . S
H2940 C2969 0.950 . S
H2941 C2970 0.950 . S
H2942 C2972 0.950 . S
H2943 C2973 0.950 . S
C2944 H2926 0.951 . S
C2944 C2945 1.366 . S
C2944 C2946 1.388 . S
C2945 C2944 1.366 . S
C2945 C2949 1.385 . S
C2946 H2927 0.951 . S
C2946 C2944 1.388 . S
C2946 C2947 1.366 . S
C2947 C2946 1.366 . S
C2947 C2948 1.414 . S
C2947 C2950 1.499 . S
C2948 H2928 0.950 . S
C2948 C2947 1.414 . S
C2948 C2949 1.374 . S
C2949 H2929 0.950 . S
C2949 C2945 1.385 . S
C2949 C2948 1.374 . S
C2950 C2947 1.499 . S
C2950 C2951 1.373 . S
C2950 C2952 1.389 . S
C2951 H2930 0.950 . S
C2951 C2950 1.373 . S
C2951 C2967 1.377 . S
C2952 C2950 1.389 . S
C2952 C2953 1.524 . S
C2952 C2966 1.377 . S
C2953 C2952 1.524 . S
C2953 C2954 1.397 . S
C2953 C2958 1.363 . S
C2954 H2931 0.950 . S
C2954 C2953 1.397 . S
C2954 C2955 1.334 . S
C2955 H2932 0.950 . S
C2955 C2954 1.334 . S
C2955 C2956 1.287 . S
C2956 C2955 1.287 . S
C2956 C2957 1.524 . S
C2956 H2975 0.913 . S
C2957 H2933 0.950 . S
C2957 C2956 1.524 . S
C2957 C2958 1.415 . S
C2958 H2934 0.950 . S
C2958 C2953 1.363 . S
C2958 C2957 1.415 . S
C2959 H2935 0.951 . S
C2959 C2960 1.366 . S
C2959 C2961 1.388 . S
C2960 C2959 1.366 . S
C2960 C2964 1.385 . S
C2961 H2936 0.951 . S
C2961 C2959 1.388 . S
C2961 C2962 1.366 . S
C2962 C2961 1.366 . S
C2962 C2963 1.414 . S
C2962 C2965 1.499 . S
C2963 H2937 0.950 . S
C2963 C2962 1.414 . S
C2963 C2964 1.374 . S
C2964 H2938 0.950 . S
C2964 C2960 1.385 . S
C2964 C2963 1.374 . S
C2965 C2962 1.499 . S
C2965 C2966 1.373 . S
C2965 C2967 1.389 . S
C2966 H2939 0.950 . S
C2966 C2952 1.377 . S
C2966 C2965 1.373 . S
C2967 C2951 1.377 . S
C2967 C2965 1.389 . S
C2967 C2968 1.524 . S
C2968 C2967 1.524 . S
C2968 C2969 1.397 . S
C2968 C2973 1.363 . S
C2969 H2940 0.950 . S
C2969 C2968 1.397 . S
C2969 C2970 1.334 . S
C2970 H2941 0.950 . S
C2970 C2969 1.334 . S
C2970 C2971 1.287 . S
C2971 C2970 1.287 . S
C2971 C2972 1.524 . S
C2971 H2974 0.999 . S
C2972 H2942 0.950 . S
C2972 C2971 1.524 . S
C2972 C2973 1.415 . S
C2973 H2943 0.950 . S
C2973 C2968 1.363 . S
C2973 C2972 1.415 . S
H2974 C2971 0.999 . S
H2975 C2956 0.913 . S
H2976 C2994 0.951 . S
H2977 C2996 0.951 . S
H2978 C2998 0.950 . S
H2979 C2999 0.950 . S
H2980 C3001 0.950 . S
H2981 C3004 0.907 1_554 S
H2982 C3005 0.950 . S
H2983 C3007 0.950 . S
H2984 C3008 0.950 . S
H2985 C3009 0.951 . S
H2986 C3011 0.951 . S
H2987 C3013 0.950 . S
H2988 C3014 0.950 . S
H2989 C3016 0.950 1_556 S
H2990 C3019 0.950 . S
H2991 C3020 0.950 . S
H2992 C3022 0.950 . S
H2993 C3023 0.950 . S
C2994 H2976 0.951 . S
C2994 C2995 1.366 . S
C2994 C2996 1.388 . S
C2995 C2994 1.366 . S
C2995 C2999 1.385 . S
C2996 H2977 0.951 . S
C2996 C2994 1.388 . S
C2996 C2997 1.366 . S
C2997 C2996 1.366 . S
C2997 C2998 1.414 . S
C2997 C3000 1.499 . S
C2998 H2978 0.950 . S
C2998 C2997 1.414 . S
C2998 C2999 1.374 . S
C2999 H2979 0.950 . S
C2999 C2995 1.385 . S
C2999 C2998 1.374 . S
C3000 C2997 1.499 . S
C3000 C3001 1.373 . S
C3000 C3002 1.389 . S
C3001 H2980 0.950 . S
C3001 C3000 1.373 . S
C3001 C3017 1.377 . S
C3002 C3000 1.389 . S
C3002 C3003 1.524 1_554 S
C3002 C3016 1.377 . S
C3003 C3002 1.524 1_556 S
C3003 C3004 1.414 . S
C3003 C3008 1.363 . S
C3004 H2981 0.907 1_556 S
C3004 C3003 1.414 . S
C3004 C3005 1.360 . S
C3005 H2982 0.950 . S
C3005 C3004 1.360 . S
C3005 C3006 1.287 . S
C3006 C3005 1.287 . S
C3006 C3007 1.524 . S
C3006 H3025 0.913 . S
C3007 H2983 0.950 . S
C3007 C3006 1.524 . S
C3007 C3008 1.415 . S
C3008 H2984 0.950 . S
C3008 C3003 1.363 . S
C3008 C3007 1.415 . S
C3009 H2985 0.951 . S
C3009 C3010 1.363 1_554 S
C3009 C3011 1.388 . S
C3010 C3009 1.363 1_556 S
C3010 C3014 1.386 . S
C3011 H2986 0.951 . S
C3011 C3009 1.388 . S
C3011 C3012 1.366 . S
C3012 C3011 1.366 . S
C3012 C3013 1.414 1_554 S
C3012 C3015 1.499 . S
C3013 H2987 0.950 . S
C3013 C3012 1.414 1_556 S
C3013 C3014 1.374 . S
C3014 H2988 0.950 . S
C3014 C3010 1.386 . S
C3014 C3013 1.374 . S
C3015 C3012 1.499 . S
C3015 C3016 1.373 . S
C3015 C3017 1.389 . S
C3016 H2989 0.950 1_554 S
C3016 C3002 1.377 . S
C3016 C3015 1.373 . S
C3017 C3001 1.377 . S
C3017 C3015 1.389 . S
C3017 C3018 1.524 . S
C3018 C3017 1.524 . S
C3018 C3019 1.397 . S
C3018 C3023 1.363 . S
C3019 H2990 0.950 . S
C3019 C3018 1.397 . S
C3019 C3020 1.334 . S
C3020 H2991 0.950 . S
C3020 C3019 1.334 . S
C3020 C3021 1.287 . S
C3021 C3020 1.287 . S
C3021 C3022 1.524 . S
C3021 H3024 0.999 . S
C3022 H2992 0.950 . S
C3022 C3021 1.524 . S
C3022 C3023 1.415 . S
C3023 H2993 0.950 . S
C3023 C3018 1.363 . S
C3023 C3022 1.415 . S
H3024 C3021 0.999 . S
H3025 C3006 0.913 . S
H3026 C3044 0.951 . S
H3027 C3046 0.951 . S
H3028 C3048 0.950 . S
H3029 C3049 0.950 . S
H3030 C3051 0.950 . S
H3031 C3054 0.950 . S
H3032 C3055 0.950 . S
H3033 C3057 0.950 . S
H3034 C3058 0.950 . S
H3035 C3059 0.951 . S
H3036 C3061 0.951 . S
H3037 C3063 0.950 . S
H3038 C3064 0.950 . S
H3039 C3066 0.950 . S
H3040 C3069 0.950 . S
H3041 C3070 0.950 . S
H3042 C3072 0.950 . S
H3043 C3073 0.950 . S
C3044 H3026 0.951 . S
C3044 C3045 1.366 . S
C3044 C3046 1.388 . S
C3045 C3044 1.366 . S
C3045 C3049 1.385 . S
C3046 H3027 0.951 . S
C3046 C3044 1.388 . S
C3046 C3047 1.366 . S
C3047 C3046 1.366 . S
C3047 C3048 1.414 . S
C3047 C3050 1.499 . S
C3048 H3028 0.950 . S
C3048 C3047 1.414 . S
C3048 C3049 1.374 . S
C3049 H3029 0.950 . S
C3049 C3045 1.385 . S
C3049 C3048 1.374 . S
C3050 C3047 1.499 . S
C3050 C3051 1.373 . S
C3050 C3052 1.389 . S
C3051 H3030 0.950 . S
C3051 C3050 1.373 . S
C3051 C3067 1.377 . S
C3052 C3050 1.389 . S
C3052 C3053 1.524 . S
C3052 C3066 1.377 . S
C3053 C3052 1.524 . S
C3053 C3054 1.397 1_554 S
C3053 C3058 1.363 . S
C3054 H3031 0.950 . S
C3054 C3053 1.397 1_556 S
C3054 C3055 1.334 . S
C3055 H3032 0.950 . S
C3055 C3054 1.334 . S
C3055 C3056 1.287 . S
C3056 C3055 1.287 . S
C3056 C3057 1.524 1_556 S
C3056 H3075 0.913 . S
C3057 H3033 0.950 . S
C3057 C3056 1.524 1_554 S
C3057 C3058 1.415 . S
C3058 H3034 0.950 . S
C3058 C3053 1.363 . S
C3058 C3057 1.415 . S
C3059 H3035 0.951 . S
C3059 C3060 1.366 . S
C3059 C3061 1.388 . S
C3060 C3059 1.366 . S
C3060 C3064 1.385 . S
C3061 H3036 0.951 . S
C3061 C3059 1.388 . S
C3061 C3062 1.366 . S
C3062 C3061 1.366 . S
C3062 C3063 1.414 . S
C3062 C3065 1.499 . S
C3063 H3037 0.950 . S
C3063 C3062 1.414 . S
C3063 C3064 1.374 . S
C3064 H3038 0.950 . S
C3064 C3060 1.385 . S
C3064 C3063 1.374 . S
C3065 C3062 1.499 . S
C3065 C3066 1.373 . S
C3065 C3067 1.389 . S
C3066 H3039 0.950 . S
C3066 C3052 1.377 . S
C3066 C3065 1.373 . S
C3067 C3051 1.377 . S
C3067 C3065 1.389 . S
C3067 C3068 1.524 . S
C3068 C3067 1.524 . S
C3068 C3069 1.397 . S
C3068 C3073 1.363 . S
C3069 H3040 0.950 . S
C3069 C3068 1.397 . S
C3069 C3070 1.334 . S
C3070 H3041 0.950 . S
C3070 C3069 1.334 . S
C3070 C3071 1.287 . S
C3071 C3070 1.287 . S
C3071 C3072 1.524 . S
C3071 H3074 0.999 . S
C3072 H3042 0.950 . S
C3072 C3071 1.524 . S
C3072 C3073 1.415 . S
C3073 H3043 0.950 . S
C3073 C3068 1.363 . S
C3073 C3072 1.415 . S
H3074 C3071 0.999 . S
H3075 C3056 0.913 . S
H3076 C3094 0.951 . S
H3077 C3096 0.951 . S
H3078 C3098 0.950 . S
H3079 C3099 0.950 . S
H3080 C3101 0.950 . S
H3081 C3104 0.950 . S
H3082 C3105 0.950 . S
H3083 C3107 0.950 . S
H3084 C3108 0.950 . S
H3085 C3109 0.951 . S
H3086 C3111 0.951 . S
H3087 C3113 0.950 . S
H3088 C3114 0.950 . S
H3089 C3116 0.950 . S
H3090 C3119 0.950 . S
H3091 C3120 0.950 . S
H3092 C3122 0.950 . S
H3093 C3123 0.950 . S
C3094 H3076 0.951 . S
C3094 C3095 1.366 . S
C3094 C3096 1.388 . S
C3095 C3094 1.366 . S
C3095 C3099 1.385 . S
C3096 H3077 0.951 . S
C3096 C3094 1.388 . S
C3096 C3097 1.366 . S
C3097 C3096 1.366 . S
C3097 C3098 1.414 . S
C3097 C3100 1.499 . S
C3098 H3078 0.950 . S
C3098 C3097 1.414 . S
C3098 C3099 1.374 . S
C3099 H3079 0.950 . S
C3099 C3095 1.385 . S
C3099 C3098 1.374 . S
C3100 C3097 1.499 . S
C3100 C3101 1.373 . S
C3100 C3102 1.389 . S
C3101 H3080 0.950 . S
C3101 C3100 1.373 . S
C3101 C3117 1.377 . S
C3102 C3100 1.389 . S
C3102 C3103 1.524 . S
C3102 C3116 1.377 . S
C3103 C3102 1.524 . S
C3103 C3104 1.397 . S
C3103 C3108 1.363 . S
C3104 H3081 0.950 . S
C3104 C3103 1.397 . S
C3104 C3105 1.334 . S
C3105 H3082 0.950 . S
C3105 C3104 1.334 . S
C3105 C3106 1.287 . S
C3106 C3105 1.287 . S
C3106 C3107 1.524 . S
C3106 H3125 0.913 . S
C3107 H3083 0.950 . S
C3107 C3106 1.524 . S
C3107 C3108 1.415 . S
C3108 H3084 0.950 . S
C3108 C3103 1.363 . S
C3108 C3107 1.415 . S
C3109 H3085 0.951 . S
C3109 C3110 1.366 . S
C3109 C3111 1.388 . S
C3110 C3109 1.366 . S
C3110 C3114 1.385 . S
C3111 H3086 0.951 . S
C3111 C3109 1.388 . S
C3111 C3112 1.366 . S
C3112 C3111 1.366 . S
C3112 C3113 1.414 . S
C3112 C3115 1.499 . S
C3113 H3087 0.950 . S
C3113 C3112 1.414 . S
C3113 C3114 1.374 . S
C3114 H3088 0.950 . S
C3114 C3110 1.385 . S
C3114 C3113 1.374 . S
C3115 C3112 1.499 . S
C3115 C3116 1.373 . S
C3115 C3117 1.389 . S
C3116 H3089 0.950 . S
C3116 C3102 1.377 . S
C3116 C3115 1.373 . S
C3117 C3101 1.377 . S
C3117 C3115 1.389 . S
C3117 C3118 1.524 . S
C3118 C3117 1.524 . S
C3118 C3119 1.397 . S
C3118 C3123 1.363 . S
C3119 H3090 0.950 . S
C3119 C3118 1.397 . S
C3119 C3120 1.334 . S
C3120 H3091 0.950 . S
C3120 C3119 1.334 . S
C3120 C3121 1.287 . S
C3121 C3120 1.287 . S
C3121 C3122 1.524 . S
C3121 H3124 0.999 . S
C3122 H3092 0.950 . S
C3122 C3121 1.524 . S
C3122 C3123 1.415 . S
C3123 H3093 0.950 . S
C3123 C3118 1.363 . S
C3123 C3122 1.415 . S
H3124 C3121 0.999 . S
H3125 C3106 0.913 . S
H3126 C3144 0.951 . S
H3127 C3146 0.951 . S
H3128 C3148 0.950 . S
H3129 C3149 0.950 . S
H3130 C3151 0.950 . S
H3131 C3154 0.950 . S
H3132 C3155 0.950 . S
H3133 C3157 0.950 . S
H3134 C3158 0.950 . S
H3135 C3159 0.951 . S
H3136 C3161 0.951 . S
H3137 C3163 0.950 . S
H3138 C3164 0.950 . S
H3139 C3166 0.950 . S
H3140 C3169 0.950 . S
H3141 C3170 0.950 . S
H3142 C3172 0.950 . S
H3143 C3173 0.950 . S
C3144 H3126 0.951 . S
C3144 C3145 1.366 . S
C3144 C3146 1.388 . S
C3145 C3144 1.366 . S
C3145 C3149 1.385 . S
C3146 H3127 0.951 . S
C3146 C3144 1.388 . S
C3146 C3147 1.366 . S
C3147 C3146 1.366 . S
C3147 C3148 1.414 . S
C3147 C3150 1.499 . S
C3148 H3128 0.950 . S
C3148 C3147 1.414 . S
C3148 C3149 1.374 . S
C3149 H3129 0.950 . S
C3149 C3145 1.385 . S
C3149 C3148 1.374 . S
C3150 C3147 1.499 . S
C3150 C3151 1.373 . S
C3150 C3152 1.389 . S
C3151 H3130 0.950 . S
C3151 C3150 1.373 . S
C3151 C3167 1.377 . S
C3152 C3150 1.389 . S
C3152 C3153 1.524 . S
C3152 C3166 1.377 . S
C3153 C3152 1.524 . S
C3153 C3154 1.397 . S
C3153 C3158 1.363 . S
C3154 H3131 0.950 . S
C3154 C3153 1.397 . S
C3154 C3155 1.334 . S
C3155 H3132 0.950 . S
C3155 C3154 1.334 . S
C3155 C3156 1.287 . S
C3156 C3155 1.287 . S
C3156 C3157 1.524 . S
C3156 H3175 0.913 . S
C3157 H3133 0.950 . S
C3157 C3156 1.524 . S
C3157 C3158 1.415 . S
C3158 H3134 0.950 . S
C3158 C3153 1.363 . S
C3158 C3157 1.415 . S
C3159 H3135 0.951 . S
C3159 C3160 1.366 . S
C3159 C3161 1.388 . S
C3160 C3159 1.366 . S
C3160 C3164 1.385 . S
C3161 H3136 0.951 . S
C3161 C3159 1.388 . S
C3161 C3162 1.366 . S
C3162 C3161 1.366 . S
C3162 C3163 1.414 . S
C3162 C3165 1.499 . S
C3163 H3137 0.950 . S
C3163 C3162 1.414 . S
C3163 C3164 1.374 . S
C3164 H3138 0.950 . S
C3164 C3160 1.385 . S
C3164 C3163 1.374 . S
C3165 C3162 1.499 . S
C3165 C3166 1.373 . S
C3165 C3167 1.389 . S
C3166 H3139 0.950 . S
C3166 C3152 1.377 . S
C3166 C3165 1.373 . S
C3167 C3151 1.377 . S
C3167 C3165 1.389 . S
C3167 C3168 1.524 . S
C3168 C3167 1.524 . S
C3168 C3169 1.397 . S
C3168 C3173 1.363 . S
C3169 H3140 0.950 . S
C3169 C3168 1.397 . S
C3169 C3170 1.334 . S
C3170 H3141 0.950 . S
C3170 C3169 1.334 . S
C3170 C3171 1.287 . S
C3171 C3170 1.287 . S
C3171 C3172 1.524 . S
C3171 H3174 0.999 . S
C3172 H3142 0.950 . S
C3172 C3171 1.524 . S
C3172 C3173 1.415 . S
C3173 H3143 0.950 . S
C3173 C3168 1.363 . S
C3173 C3172 1.415 . S
H3174 C3171 0.999 . S
H3175 C3156 0.913 . S
H3176 C3194 0.951 . S
H3177 C3196 0.951 . S
H3178 C3198 0.950 . S
H3179 C3199 0.950 . S
H3180 C3201 0.950 . S
H3181 C3204 0.950 . S
H3182 C3205 0.950 . S
H3183 C3207 0.950 . S
H3184 C3208 0.950 . S
H3185 C3209 0.951 . S
H3186 C3211 0.951 . S
H3187 C3213 0.950 . S
H3188 C3214 0.950 . S
H3189 C3216 0.950 . S
H3190 C3219 0.950 . S
H3191 C3220 0.950 . S
H3192 C3222 0.950 . S
H3193 C3223 0.950 . S
C3194 H3176 0.951 . S
C3194 C3195 1.366 . S
C3194 C3196 1.388 . S
C3195 C3194 1.366 . S
C3195 C3199 1.385 . S
C3196 H3177 0.951 . S
C3196 C3194 1.388 . S
C3196 C3197 1.366 . S
C3197 C3196 1.366 . S
C3197 C3198 1.414 . S
C3197 C3200 1.499 . S
C3198 H3178 0.950 . S
C3198 C3197 1.414 . S
C3198 C3199 1.374 . S
C3199 H3179 0.950 . S
C3199 C3195 1.385 . S
C3199 C3198 1.374 . S
C3200 C3197 1.499 . S
C3200 C3201 1.373 . S
C3200 C3202 1.389 . S
C3201 H3180 0.950 . S
C3201 C3200 1.373 . S
C3201 C3217 1.377 . S
C3202 C3200 1.389 . S
C3202 C3203 1.524 . S
C3202 C3216 1.377 . S
C3203 C3202 1.524 . S
C3203 C3204 1.397 . S
C3203 C3208 1.363 . S
C3204 H3181 0.950 . S
C3204 C3203 1.397 . S
C3204 C3205 1.334 . S
C3205 H3182 0.950 . S
C3205 C3204 1.334 . S
C3205 C3206 1.287 . S
C3206 C3205 1.287 . S
C3206 C3207 1.524 . S
C3206 H3225 0.913 . S
C3207 H3183 0.950 . S
C3207 C3206 1.524 . S
C3207 C3208 1.415 . S
C3208 H3184 0.950 . S
C3208 C3203 1.363 . S
C3208 C3207 1.415 . S
C3209 H3185 0.951 . S
C3209 C3210 1.366 . S
C3209 C3211 1.388 . S
C3210 C3209 1.366 . S
C3210 C3214 1.385 . S
C3211 H3186 0.951 . S
C3211 C3209 1.388 . S
C3211 C3212 1.366 . S
C3212 C3211 1.366 . S
C3212 C3213 1.414 . S
C3212 C3215 1.499 . S
C3213 H3187 0.950 . S
C3213 C3212 1.414 . S
C3213 C3214 1.374 . S
C3214 H3188 0.950 . S
C3214 C3210 1.385 . S
C3214 C3213 1.374 . S
C3215 C3212 1.499 . S
C3215 C3216 1.373 . S
C3215 C3217 1.389 . S
C3216 H3189 0.950 . S
C3216 C3202 1.377 . S
C3216 C3215 1.373 . S
C3217 C3201 1.377 . S
C3217 C3215 1.389 . S
C3217 C3218 1.524 . S
C3218 C3217 1.524 . S
C3218 C3219 1.397 . S
C3218 C3223 1.363 . S
C3219 H3190 0.950 . S
C3219 C3218 1.397 . S
C3219 C3220 1.334 . S
C3220 H3191 0.950 . S
C3220 C3219 1.334 . S
C3220 C3221 1.287 . S
C3221 C3220 1.287 . S
C3221 C3222 1.524 . S
C3221 H3224 0.999 . S
C3222 H3192 0.950 . S
C3222 C3221 1.524 . S
C3222 C3223 1.415 . S
C3223 H3193 0.950 . S
C3223 C3218 1.363 . S
C3223 C3222 1.415 . S
H3224 C3221 0.999 . S
H3225 C3206 0.913 . S
H3226 C3244 0.951 . S
H3227 C3246 0.951 . S
H3228 C3248 0.950 . S
H3229 C3249 0.950 . S
H3230 C3251 0.950 . S
H3231 C3254 0.950 . S
H3232 C3255 0.950 . S
H3233 C3257 0.950 . S
H3234 C3258 0.950 . S
H3235 C3259 0.951 . S
H3236 C3261 0.951 . S
H3237 C3263 0.950 . S
H3238 C3264 0.950 . S
H3239 C3266 0.950 . S
H3240 C3269 0.950 . S
H3241 C3270 0.950 . S
H3242 C3272 0.950 . S
H3243 C3273 0.950 . S
C3244 H3226 0.951 . S
C3244 C3245 1.366 . S
C3244 C3246 1.388 . S
C3245 C3244 1.366 . S
C3245 C3249 1.385 . S
C3246 H3227 0.951 . S
C3246 C3244 1.388 . S
C3246 C3247 1.366 . S
C3247 C3246 1.366 . S
C3247 C3248 1.414 . S
C3247 C3250 1.499 . S
C3248 H3228 0.950 . S
C3248 C3247 1.414 . S
C3248 C3249 1.374 . S
C3249 H3229 0.950 . S
C3249 C3245 1.385 . S
C3249 C3248 1.374 . S
C3250 C3247 1.499 . S
C3250 C3251 1.373 . S
C3250 C3252 1.389 . S
C3251 H3230 0.950 . S
C3251 C3250 1.373 . S
C3251 C3267 1.377 . S
C3252 C3250 1.389 . S
C3252 C3253 1.524 . S
C3252 C3266 1.377 . S
C3253 C3252 1.524 . S
C3253 C3254 1.397 . S
C3253 C3258 1.363 . S
C3254 H3231 0.950 . S
C3254 C3253 1.397 . S
C3254 C3255 1.334 . S
C3255 H3232 0.950 . S
C3255 C3254 1.334 . S
C3255 C3256 1.287 . S
C3256 C3255 1.287 . S
C3256 C3257 1.524 . S
C3256 H3275 0.913 . S
C3257 H3233 0.950 . S
C3257 C3256 1.524 . S
C3257 C3258 1.415 . S
C3258 H3234 0.950 . S
C3258 C3253 1.363 . S
C3258 C3257 1.415 . S
C3259 H3235 0.951 . S
C3259 C3260 1.366 . S
C3259 C3261 1.388 . S
C3260 C3259 1.366 . S
C3260 C3264 1.385 . S
C3261 H3236 0.951 . S
C3261 C3259 1.388 . S
C3261 C3262 1.366 . S
C3262 C3261 1.366 . S
C3262 C3263 1.414 . S
C3262 C3265 1.499 . S
C3263 H3237 0.950 . S
C3263 C3262 1.414 . S
C3263 C3264 1.374 . S
C3264 H3238 0.950 . S
C3264 C3260 1.385 . S
C3264 C3263 1.374 . S
C3265 C3262 1.499 . S
C3265 C3266 1.373 . S
C3265 C3267 1.389 . S
C3266 H3239 0.950 . S
C3266 C3252 1.377 . S
C3266 C3265 1.373 . S
C3267 C3251 1.377 . S
C3267 C3265 1.389 . S
C3267 C3268 1.524 . S
C3268 C3267 1.524 . S
C3268 C3269 1.397 . S
C3268 C3273 1.363 . S
C3269 H3240 0.950 . S
C3269 C3268 1.397 . S
C3269 C3270 1.334 . S
C3270 H3241 0.950 . S
C3270 C3269 1.334 . S
C3270 C3271 1.287 . S
C3271 C3270 1.287 . S
C3271 C3272 1.524 . S
C3271 H3274 0.999 . S
C3272 H3242 0.950 . S
C3272 C3271 1.524 . S
C3272 C3273 1.415 . S
C3273 H3243 0.950 . S
C3273 C3268 1.363 . S
C3273 C3272 1.415 . S
H3274 C3271 0.999 . S
H3275 C3256 0.913 . S
H3276 C3294 0.951 . S
H3277 C3296 0.951 . S
H3278 C3298 0.950 . S
H3279 C3299 0.950 . S
H3280 C3301 0.950 . S
H3281 C3304 0.950 . S
H3282 C3305 0.950 . S
H3283 C3307 0.950 . S
H3284 C3308 0.950 . S
H3285 C3309 0.951 . S
H3286 C3311 0.951 . S
H3287 C3313 0.950 . S
H3288 C3314 0.950 . S
H3289 C3316 0.950 . S
H3290 C3319 0.950 . S
H3291 C3320 0.950 . S
H3292 C3322 0.950 . S
H3293 C3323 0.950 . S
C3294 H3276 0.951 . S
C3294 C3295 1.366 . S
C3294 C3296 1.388 . S
C3295 C3294 1.366 . S
C3295 C3299 1.385 . S
C3296 H3277 0.951 . S
C3296 C3294 1.388 . S
C3296 C3297 1.366 . S
C3297 C3296 1.366 . S
C3297 C3298 1.414 . S
C3297 C3300 1.499 . S
C3298 H3278 0.950 . S
C3298 C3297 1.414 . S
C3298 C3299 1.374 . S
C3299 H3279 0.950 . S
C3299 C3295 1.385 . S
C3299 C3298 1.374 . S
C3300 C3297 1.499 . S
C3300 C3301 1.373 . S
C3300 C3302 1.389 . S
C3301 H3280 0.950 . S
C3301 C3300 1.373 . S
C3301 C3317 1.377 . S
C3302 C3300 1.389 . S
C3302 C3303 1.524 . S
C3302 C3316 1.377 . S
C3303 C3302 1.524 . S
C3303 C3304 1.397 . S
C3303 C3308 1.363 . S
C3304 H3281 0.950 . S
C3304 C3303 1.397 . S
C3304 C3305 1.334 . S
C3305 H3282 0.950 . S
C3305 C3304 1.334 . S
C3305 C3306 1.287 . S
C3306 C3305 1.287 . S
C3306 C3307 1.524 . S
C3306 H3325 0.913 . S
C3307 H3283 0.950 . S
C3307 C3306 1.524 . S
C3307 C3308 1.415 . S
C3308 H3284 0.950 . S
C3308 C3303 1.363 . S
C3308 C3307 1.415 . S
C3309 H3285 0.951 . S
C3309 C3310 1.366 . S
C3309 C3311 1.388 . S
C3310 C3309 1.366 . S
C3310 C3314 1.385 . S
C3311 H3286 0.951 . S
C3311 C3309 1.388 . S
C3311 C3312 1.366 . S
C3312 C3311 1.366 . S
C3312 C3313 1.414 . S
C3312 C3315 1.499 . S
C3313 H3287 0.950 . S
C3313 C3312 1.414 . S
C3313 C3314 1.374 . S
C3314 H3288 0.950 . S
C3314 C3310 1.385 . S
C3314 C3313 1.374 . S
C3315 C3312 1.499 . S
C3315 C3316 1.373 . S
C3315 C3317 1.389 . S
C3316 H3289 0.950 . S
C3316 C3302 1.377 . S
C3316 C3315 1.373 . S
C3317 C3301 1.377 . S
C3317 C3315 1.389 . S
C3317 C3318 1.524 . S
C3318 C3317 1.524 . S
C3318 C3319 1.397 . S
C3318 C3323 1.363 . S
C3319 H3290 0.950 . S
C3319 C3318 1.397 . S
C3319 C3320 1.334 . S
C3320 H3291 0.950 . S
C3320 C3319 1.334 . S
C3320 C3321 1.287 . S
C3321 C3320 1.287 . S
C3321 C3322 1.524 . S
C3321 H3324 0.999 . S
C3322 H3292 0.950 . S
C3322 C3321 1.524 . S
C3322 C3323 1.415 . S
C3323 H3293 0.950 . S
C3323 C3318 1.363 . S
C3323 C3322 1.415 . S
H3324 C3321 0.999 . S
H3325 C3306 0.913 . S
H3326 C3344 0.951 . S
H3327 C3346 0.951 . S
H3328 C3348 0.950 . S
H3329 C3349 0.950 . S
H3330 C3351 0.950 . S
H3331 C3354 0.950 . S
H3332 C3355 0.950 . S
H3333 C3357 0.950 . S
H3334 C3358 0.950 . S
H3335 C3359 0.951 . S
H3336 C3361 0.951 . S
H3337 C3363 0.950 . S
H3338 C3364 0.950 . S
H3339 C3366 0.950 . S
H3340 C3369 0.950 . S
H3341 C3370 0.950 . S
H3342 C3372 0.950 . S
H3343 C3373 0.950 . S
C3344 H3326 0.951 . S
C3344 C3345 1.366 . S
C3344 C3346 1.388 . S
C3345 C3344 1.366 . S
C3345 C3349 1.385 . S
C3346 H3327 0.951 . S
C3346 C3344 1.388 . S
C3346 C3347 1.366 . S
C3347 C3346 1.366 . S
C3347 C3348 1.414 . S
C3347 C3350 1.499 . S
C3348 H3328 0.950 . S
C3348 C3347 1.414 . S
C3348 C3349 1.374 . S
C3349 H3329 0.950 . S
C3349 C3345 1.385 . S
C3349 C3348 1.374 . S
C3350 C3347 1.499 . S
C3350 C3351 1.373 . S
C3350 C3352 1.389 . S
C3351 H3330 0.950 . S
C3351 C3350 1.373 . S
C3351 C3367 1.377 . S
C3352 C3350 1.389 . S
C3352 C3353 1.524 . S
C3352 C3366 1.377 . S
C3353 C3352 1.524 . S
C3353 C3354 1.397 . S
C3353 C3358 1.363 . S
C3354 H3331 0.950 . S
C3354 C3353 1.397 . S
C3354 C3355 1.334 . S
C3355 H3332 0.950 . S
C3355 C3354 1.334 . S
C3355 C3356 1.287 . S
C3356 C3355 1.287 . S
C3356 C3357 1.524 . S
C3356 H3375 0.913 . S
C3357 H3333 0.950 . S
C3357 C3356 1.524 . S
C3357 C3358 1.415 . S
C3358 H3334 0.950 . S
C3358 C3353 1.363 . S
C3358 C3357 1.415 . S
C3359 H3335 0.951 . S
C3359 C3360 1.366 . S
C3359 C3361 1.388 . S
C3360 C3359 1.366 . S
C3360 C3364 1.385 . S
C3361 H3336 0.951 . S
C3361 C3359 1.388 . S
C3361 C3362 1.366 . S
C3362 C3361 1.366 . S
C3362 C3363 1.414 . S
C3362 C3365 1.499 . S
C3363 H3337 0.950 . S
C3363 C3362 1.414 . S
C3363 C3364 1.374 . S
C3364 H3338 0.950 . S
C3364 C3360 1.385 . S
C3364 C3363 1.374 . S
C3365 C3362 1.499 . S
C3365 C3366 1.373 . S
C3365 C3367 1.389 . S
C3366 H3339 0.950 . S
C3366 C3352 1.377 . S
C3366 C3365 1.373 . S
C3367 C3351 1.377 . S
C3367 C3365 1.389 . S
C3367 C3368 1.524 . S
C3368 C3367 1.524 . S
C3368 C3369 1.397 . S
C3368 C3373 1.363 . S
C3369 H3340 0.950 . S
C3369 C3368 1.397 . S
C3369 C3370 1.334 . S
C3370 H3341 0.950 . S
C3370 C3369 1.334 . S
C3370 C3371 1.287 . S
C3371 C3370 1.287 . S
C3371 C3372 1.524 . S
C3371 H3374 0.999 . S
C3372 H3342 0.950 . S
C3372 C3371 1.524 . S
C3372 C3373 1.415 . S
C3373 H3343 0.950 . S
C3373 C3368 1.363 . S
C3373 C3372 1.415 . S
H3374 C3371 0.999 . S
H3375 C3356 0.913 . S
H3376 C3394 0.951 . S
H3377 C3396 0.951 . S
H3378 C3398 0.950 . S
H3379 C3399 0.950 . S
H3380 C3401 0.950 . S
H3381 C3404 0.950 . S
H3382 C3405 0.950 . S
H3383 C3407 0.950 . S
H3384 C3408 0.950 . S
H3385 C3409 0.951 . S
H3386 C3411 0.951 . S
H3387 C3413 0.950 . S
H3388 C3414 0.950 . S
H3389 C3416 0.950 . S
H3390 C3419 0.950 . S
H3391 C3420 0.950 . S
H3392 C3422 0.950 . S
H3393 C3423 0.950 . S
C3394 H3376 0.951 . S
C3394 C3395 1.366 . S
C3394 C3396 1.388 . S
C3395 C3394 1.366 . S
C3395 C3399 1.385 . S
C3396 H3377 0.951 . S
C3396 C3394 1.388 . S
C3396 C3397 1.366 . S
C3397 C3396 1.366 . S
C3397 C3398 1.414 . S
C3397 C3400 1.499 . S
C3398 H3378 0.950 . S
C3398 C3397 1.414 . S
C3398 C3399 1.374 . S
C3399 H3379 0.950 . S
C3399 C3395 1.385 . S
C3399 C3398 1.374 . S
C3400 C3397 1.499 . S
C3400 C3401 1.373 . S
C3400 C3402 1.389 . S
C3401 H3380 0.950 . S
C3401 C3400 1.373 . S
C3401 C3417 1.377 . S
C3402 C3400 1.389 . S
C3402 C3403 1.524 . S
C3402 C3416 1.377 . S
C3403 C3402 1.524 . S
C3403 C3404 1.397 . S
C3403 C3408 1.363 . S
C3404 H3381 0.950 . S
C3404 C3403 1.397 . S
C3404 C3405 1.334 . S
C3405 H3382 0.950 . S
C3405 C3404 1.334 . S
C3405 C3406 1.287 . S
C3406 C3405 1.287 . S
C3406 C3407 1.524 . S
C3406 H3425 0.913 . S
C3407 H3383 0.950 . S
C3407 C3406 1.524 . S
C3407 C3408 1.415 . S
C3408 H3384 0.950 . S
C3408 C3403 1.363 . S
C3408 C3407 1.415 . S
C3409 H3385 0.951 . S
C3409 C3410 1.366 . S
C3409 C3411 1.388 . S
C3410 C3409 1.366 . S
C3410 C3414 1.385 . S
C3411 H3386 0.951 . S
C3411 C3409 1.388 . S
C3411 C3412 1.366 . S
C3412 C3411 1.366 . S
C3412 C3413 1.414 . S
C3412 C3415 1.499 . S
C3413 H3387 0.950 . S
C3413 C3412 1.414 . S
C3413 C3414 1.374 . S
C3414 H3388 0.950 . S
C3414 C3410 1.385 . S
C3414 C3413 1.374 . S
C3415 C3412 1.499 . S
C3415 C3416 1.373 . S
C3415 C3417 1.389 . S
C3416 H3389 0.950 . S
C3416 C3402 1.377 . S
C3416 C3415 1.373 . S
C3417 C3401 1.377 . S
C3417 C3415 1.389 . S
C3417 C3418 1.524 . S
C3418 C3417 1.524 . S
C3418 C3419 1.397 . S
C3418 C3423 1.363 . S
C3419 H3390 0.950 . S
C3419 C3418 1.397 . S
C3419 C3420 1.334 . S
C3420 H3391 0.950 . S
C3420 C3419 1.334 . S
C3420 C3421 1.287 . S
C3421 C3420 1.287 . S
C3421 C3422 1.524 . S
C3421 H3424 0.999 . S
C3422 H3392 0.950 . S
C3422 C3421 1.524 . S
C3422 C3423 1.415 . S
C3423 H3393 0.950 . S
C3423 C3418 1.363 . S
C3423 C3422 1.415 . S
H3424 C3421 0.999 . S
H3425 C3406 0.913 . S
H3426 C3444 0.951 . S
H3427 C3446 0.951 . S
H3428 C3448 0.950 . S
H3429 C3449 0.950 . S
H3430 C3451 0.950 . S
H3431 C3454 0.950 . S
H3432 C3455 0.950 . S
H3433 C3457 0.950 . S
H3434 C3458 0.950 . S
H3435 C3459 0.951 . S
H3436 C3461 0.951 . S
H3437 C3463 0.950 . S
H3438 C3464 0.950 . S
H3439 C3466 0.950 . S
H3440 C3469 0.950 . S
H3441 C3470 0.950 . S
H3442 C3472 0.950 . S
H3443 C3473 0.950 . S
C3444 H3426 0.951 . S
C3444 C3445 1.366 . S
C3444 C3446 1.388 . S
C3445 C3444 1.366 . S
C3445 C3449 1.385 . S
C3446 H3427 0.951 . S
C3446 C3444 1.388 . S
C3446 C3447 1.366 . S
C3447 C3446 1.366 . S
C3447 C3448 1.414 . S
C3447 C3450 1.499 . S
C3448 H3428 0.950 . S
C3448 C3447 1.414 . S
C3448 C3449 1.374 . S
C3449 H3429 0.950 . S
C3449 C3445 1.385 . S
C3449 C3448 1.374 . S
C3450 C3447 1.499 . S
C3450 C3451 1.373 . S
C3450 C3452 1.389 . S
C3451 H3430 0.950 . S
C3451 C3450 1.373 . S
C3451 C3467 1.377 . S
C3452 C3450 1.389 . S
C3452 C3453 1.524 . S
C3452 C3466 1.377 . S
C3453 C3452 1.524 . S
C3453 C3454 1.397 . S
C3453 C3458 1.363 . S
C3454 H3431 0.950 . S
C3454 C3453 1.397 . S
C3454 C3455 1.334 . S
C3455 H3432 0.950 . S
C3455 C3454 1.334 . S
C3455 C3456 1.287 . S
C3456 C3455 1.287 . S
C3456 C3457 1.524 . S
C3456 H3475 0.913 . S
C3457 H3433 0.950 . S
C3457 C3456 1.524 . S
C3457 C3458 1.415 . S
C3458 H3434 0.950 . S
C3458 C3453 1.363 . S
C3458 C3457 1.415 . S
C3459 H3435 0.951 . S
C3459 C3460 1.366 . S
C3459 C3461 1.388 . S
C3460 C3459 1.366 . S
C3460 C3464 1.385 . S
C3461 H3436 0.951 . S
C3461 C3459 1.388 . S
C3461 C3462 1.366 . S
C3462 C3461 1.366 . S
C3462 C3463 1.414 . S
C3462 C3465 1.499 . S
C3463 H3437 0.950 . S
C3463 C3462 1.414 . S
C3463 C3464 1.374 . S
C3464 H3438 0.950 . S
C3464 C3460 1.385 . S
C3464 C3463 1.374 . S
C3465 C3462 1.499 . S
C3465 C3466 1.373 . S
C3465 C3467 1.389 . S
C3466 H3439 0.950 . S
C3466 C3452 1.377 . S
C3466 C3465 1.373 . S
C3467 C3451 1.377 . S
C3467 C3465 1.389 . S
C3467 C3468 1.524 . S
C3468 C3467 1.524 . S
C3468 C3469 1.397 . S
C3468 C3473 1.363 . S
C3469 H3440 0.950 . S
C3469 C3468 1.397 . S
C3469 C3470 1.334 . S
C3470 H3441 0.950 . S
C3470 C3469 1.334 . S
C3470 C3471 1.287 . S
C3471 C3470 1.287 . S
C3471 C3472 1.524 . S
C3471 H3474 0.999 . S
C3472 H3442 0.950 . S
C3472 C3471 1.524 . S
C3472 C3473 1.415 . S
C3473 H3443 0.950 . S
C3473 C3468 1.363 . S
C3473 C3472 1.415 . S
H3474 C3471 0.999 . S
H3475 C3456 0.913 . S
H3476 C3494 0.951 1_655 S
H3477 C3496 0.951 1_655 S
H3478 C3498 0.950 . S
H3479 C3499 0.950 . S
H3480 C3501 0.950 . S
H3481 C3504 0.950 . S
H3482 C3505 0.950 . S
H3483 C3507 0.950 . S
H3484 C3508 0.950 . S
H3485 C3509 0.951 . S
H3486 C3511 0.951 . S
H3487 C3513 0.950 1_655 S
H3488 C3514 1.006 . S
H3489 C3516 0.950 . S
H3490 C3519 0.950 . S
H3491 C3520 0.950 . S
H3492 C3522 0.950 . S
H3493 C3523 0.950 . S
C3494 H3476 0.951 1_455 S
C3494 C3495 1.366 . S
C3494 C3496 1.388 . S
C3495 C3494 1.366 . S
C3495 C3499 1.385 . S
C3496 H3477 0.951 1_455 S
C3496 C3494 1.388 . S
C3496 C3497 1.366 . S
C3497 C3496 1.366 . S
C3497 C3498 1.414 . S
C3497 C3500 1.499 . S
C3498 H3478 0.950 . S
C3498 C3497 1.414 . S
C3498 C3499 1.374 . S
C3499 H3479 0.950 . S
C3499 C3495 1.385 . S
C3499 C3498 1.374 . S
C3500 C3497 1.499 . S
C3500 C3501 1.373 . S
C3500 C3502 1.389 . S
C3501 H3480 0.950 . S
C3501 C3500 1.373 . S
C3501 C3517 1.377 . S
C3502 C3500 1.389 . S
C3502 C3503 1.524 . S
C3502 C3516 1.377 . S
C3503 C3502 1.524 . S
C3503 C3504 1.397 . S
C3503 C3508 1.363 1_455 S
C3504 H3481 0.950 . S
C3504 C3503 1.397 . S
C3504 C3505 1.334 . S
C3505 H3482 0.950 . S
C3505 C3504 1.334 . S
C3505 C3506 1.287 1_455 S
C3506 C3505 1.287 1_655 S
C3506 C3507 1.524 . S
C3506 H3525 0.913 . S
C3507 H3483 0.950 . S
C3507 C3506 1.524 . S
C3507 C3508 1.415 . S
C3508 H3484 0.950 . S
C3508 C3503 1.363 1_655 S
C3508 C3507 1.415 . S
C3509 H3485 0.951 . S
C3509 C3510 1.366 . S
C3509 C3511 1.388 . S
C3510 C3509 1.366 . S
C3510 C3514 1.385 . S
C3511 H3486 0.951 . S
C3511 C3509 1.388 . S
C3511 C3512 1.366 1_554 S
C3512 C3511 1.366 1_556 S
C3512 C3513 1.414 . S
C3512 C3515 1.499 . S
C3513 H3487 0.950 1_455 S
C3513 C3512 1.414 . S
C3513 C3514 1.374 1_556 S
C3514 H3488 1.006 . S
C3514 C3510 1.385 . S
C3514 C3513 1.374 1_554 S
C3515 C3512 1.499 . S
C3515 C3516 1.373 . S
C3515 C3517 1.389 . S
C3516 H3489 0.950 . S
C3516 C3502 1.377 . S
C3516 C3515 1.373 . S
C3517 C3501 1.377 . S
C3517 C3515 1.389 . S
C3517 C3518 1.524 1_556 S
C3518 C3517 1.524 1_554 S
C3518 C3519 1.397 . S
C3518 C3523 1.363 . S
C3519 H3490 0.950 . S
C3519 C3518 1.397 . S
C3519 C3520 1.334 . S
C3520 H3491 0.950 . S
C3520 C3519 1.334 . S
C3520 C3521 1.287 . S
C3521 C3520 1.287 . S
C3521 C3522 1.524 . S
C3521 H3524 0.999 . S
C3522 H3492 0.950 . S
C3522 C3521 1.524 . S
C3522 C3523 1.415 . S
C3523 H3493 0.950 . S
C3523 C3518 1.363 . S
C3523 C3522 1.415 . S
H3524 C3521 0.999 . S
H3525 C3506 0.913 . S
H3526 C3544 0.951 . S
H3527 C3546 0.951 . S
H3528 C3548 0.950 . S
H3529 C3549 0.950 1_455 S
H3530 C3551 0.950 . S
H3531 C3554 0.950 . S
H3532 C3555 0.950 . S
H3533 C3557 0.950 . S
H3534 C3558 0.950 . S
H3535 C3559 0.951 . S
H3536 C3561 0.951 . S
H3537 C3563 0.950 . S
H3538 C3564 0.950 . S
H3539 C3566 0.950 . S
H3540 C3569 0.950 . S
H3541 C3570 0.950 . S
H3542 C3572 0.950 . S
H3543 C3573 0.950 . S
C3544 H3526 0.951 . S
C3544 C3545 1.366 . S
C3544 C3546 1.388 . S
C3545 C3544 1.366 . S
C3545 C3549 1.385 . S
C3546 H3527 0.951 . S
C3546 C3544 1.388 . S
C3546 C3547 1.366 . S
C3547 C3546 1.366 . S
C3547 C3548 1.414 . S
C3547 C3550 1.499 . S
C3548 H3528 0.950 . S
C3548 C3547 1.414 . S
C3548 C3549 1.374 . S
C3549 H3529 0.950 1_655 S
C3549 C3545 1.385 . S
C3549 C3548 1.374 . S
C3550 C3547 1.499 . S
C3550 C3551 1.373 . S
C3550 C3552 1.389 . S
C3551 H3530 0.950 . S
C3551 C3550 1.373 . S
C3551 C3567 1.377 . S
C3552 C3550 1.389 . S
C3552 C3553 1.524 . S
C3552 C3566 1.377 . S
C3553 C3552 1.524 . S
C3553 C3554 1.397 . S
C3553 C3558 1.363 . S
C3554 H3531 0.950 . S
C3554 C3553 1.397 . S
C3554 C3555 1.334 . S
C3555 H3532 0.950 . S
C3555 C3554 1.334 . S
C3555 C3556 1.287 . S
C3556 C3555 1.287 . S
C3556 C3557 1.524 . S
C3556 H3575 0.913 . S
C3557 H3533 0.950 . S
C3557 C3556 1.524 . S
C3557 C3558 1.415 . S
C3558 H3534 0.950 . S
C3558 C3553 1.363 . S
C3558 C3557 1.415 . S
C3559 H3535 0.951 . S
C3559 C3560 1.366 . S
C3559 C3561 1.388 . S
C3560 C3559 1.366 . S
C3560 C3564 1.385 . S
C3561 H3536 0.951 . S
C3561 C3559 1.388 . S
C3561 C3562 1.366 . S
C3562 C3561 1.366 . S
C3562 C3563 1.414 . S
C3562 C3565 1.499 . S
C3563 H3537 0.950 . S
C3563 C3562 1.414 . S
C3563 C3564 1.374 . S
C3564 H3538 0.950 . S
C3564 C3560 1.385 . S
C3564 C3563 1.374 . S
C3565 C3562 1.499 . S
C3565 C3566 1.373 . S
C3565 C3567 1.389 . S
C3566 H3539 0.950 . S
C3566 C3552 1.377 . S
C3566 C3565 1.373 . S
C3567 C3551 1.377 . S
C3567 C3565 1.389 . S
C3567 C3568 1.524 . S
C3568 C3567 1.524 . S
C3568 C3569 1.397 . S
C3568 C3573 1.363 . S
C3569 H3540 0.950 . S
C3569 C3568 1.397 . S
C3569 C3570 1.334 . S
C3570 H3541 0.950 . S
C3570 C3569 1.334 . S
C3570 C3571 1.287 . S
C3571 C3570 1.287 . S
C3571 C3572 1.524 . S
C3571 H3574 0.999 . S
C3572 H3542 0.950 . S
C3572 C3571 1.524 . S
C3572 C3573 1.415 . S
C3573 H3543 0.950 . S
C3573 C3568 1.363 . S
C3573 C3572 1.415 . S
H3574 C3571 0.999 . S
H3575 C3556 0.913 . S
H3576 C3594 0.951 . S
H3577 C3596 0.951 . S
H3578 C3598 0.950 . S
H3579 C3599 0.950 . S
H3580 C3601 0.950 . S
H3581 C3604 0.950 . S
H3582 C3605 0.950 . S
H3583 C3607 0.950 . S
H3584 C3608 0.950 . S
H3585 C3609 0.951 . S
H3586 C3611 0.951 . S
H3587 C3613 0.950 . S
H3588 C3614 0.950 . S
H3589 C3616 0.950 . S
H3590 C3619 0.950 . S
H3591 C3620 0.950 . S
H3592 C3622 0.950 . S
H3593 C3623 0.950 . S
C3594 H3576 0.951 . S
C3594 C3595 1.366 . S
C3594 C3596 1.388 . S
C3595 C3594 1.366 . S
C3595 C3599 1.385 . S
C3596 H3577 0.951 . S
C3596 C3594 1.388 . S
C3596 C3597 1.366 . S
C3597 C3596 1.366 . S
C3597 C3598 1.414 . S
C3597 C3600 1.499 . S
C3598 H3578 0.950 . S
C3598 C3597 1.414 . S
C3598 C3599 1.374 . S
C3599 H3579 0.950 . S
C3599 C3595 1.385 . S
C3599 C3598 1.374 . S
C3600 C3597 1.499 . S
C3600 C3601 1.373 . S
C3600 C3602 1.389 . S
C3601 H3580 0.950 . S
C3601 C3600 1.373 . S
C3601 C3617 1.377 . S
C3602 C3600 1.389 . S
C3602 C3603 1.524 . S
C3602 C3616 1.377 . S
C3603 C3602 1.524 . S
C3603 C3604 1.397 . S
C3603 C3608 1.363 . S
C3604 H3581 0.950 . S
C3604 C3603 1.397 . S
C3604 C3605 1.334 . S
C3605 H3582 0.950 . S
C3605 C3604 1.334 . S
C3605 C3606 1.287 . S
C3606 C3605 1.287 . S
C3606 C3607 1.524 . S
C3606 H3625 0.913 . S
C3607 H3583 0.950 . S
C3607 C3606 1.524 . S
C3607 C3608 1.415 . S
C3608 H3584 0.950 . S
C3608 C3603 1.363 . S
C3608 C3607 1.415 . S
C3609 H3585 0.951 . S
C3609 C3610 1.366 . S
C3609 C3611 1.388 . S
C3610 C3609 1.366 . S
C3610 C3614 1.385 . S
C3611 H3586 0.951 . S
C3611 C3609 1.388 . S
C3611 C3612 1.366 . S
C3612 C3611 1.366 . S
C3612 C3613 1.414 . S
C3612 C3615 1.499 . S
C3613 H3587 0.950 . S
C3613 C3612 1.414 . S
C3613 C3614 1.374 . S
C3614 H3588 0.950 . S
C3614 C3610 1.385 . S
C3614 C3613 1.374 . S
C3615 C3612 1.499 . S
C3615 C3616 1.373 . S
C3615 C3617 1.389 . S
C3616 H3589 0.950 . S
C3616 C3602 1.377 . S
C3616 C3615 1.373 . S
C3617 C3601 1.377 . S
C3617 C3615 1.389 . S
C3617 C3618 1.524 . S
C3618 C3617 1.524 . S
C3618 C3619 1.397 . S
C3618 C3623 1.363 . S
C3619 H3590 0.950 . S
C3619 C3618 1.397 . S
C3619 C3620 1.334 . S
C3620 H3591 0.950 . S
C3620 C3619 1.334 . S
C3620 C3621 1.287 . S
C3621 C3620 1.287 . S
C3621 C3622 1.524 . S
C3621 H3624 0.999 . S
C3622 H3592 0.950 . S
C3622 C3621 1.524 . S
C3622 C3623 1.415 . S
C3623 H3593 0.950 . S
C3623 C3618 1.363 . S
C3623 C3622 1.415 . S
H3624 C3621 0.999 . S
H3625 C3606 0.913 . S
H3626 C3644 0.951 . S
H3627 C3646 0.951 . S
H3628 C3648 0.950 . S
H3629 C3649 0.950 . S
H3630 C3651 0.950 . S
H3631 C3654 0.950 . S
H3632 C3655 0.950 . S
H3633 C3657 0.950 . S
H3634 C3658 0.950 . S
H3635 C3659 0.951 . S
H3636 C3661 0.951 . S
H3637 C3663 0.950 . S
H3638 C3664 0.950 . S
H3639 C3666 0.950 . S
H3640 C3669 0.950 . S
H3641 C3670 0.950 . S
H3642 C3672 0.950 . S
H3643 C3673 0.950 . S
C3644 H3626 0.951 . S
C3644 C3645 1.366 . S
C3644 C3646 1.388 . S
C3645 C3644 1.366 . S
C3645 C3649 1.385 . S
C3646 H3627 0.951 . S
C3646 C3644 1.388 . S
C3646 C3647 1.366 . S
C3647 C3646 1.366 . S
C3647 C3648 1.414 . S
C3647 C3650 1.499 . S
C3648 H3628 0.950 . S
C3648 C3647 1.414 . S
C3648 C3649 1.374 . S
C3649 H3629 0.950 . S
C3649 C3645 1.385 . S
C3649 C3648 1.374 . S
C3650 C3647 1.499 . S
C3650 C3651 1.373 . S
C3650 C3652 1.389 . S
C3651 H3630 0.950 . S
C3651 C3650 1.373 . S
C3651 C3667 1.377 . S
C3652 C3650 1.389 . S
C3652 C3653 1.524 . S
C3652 C3666 1.377 . S
C3653 C3652 1.524 . S
C3653 C3654 1.397 . S
C3653 C3658 1.363 . S
C3654 H3631 0.950 . S
C3654 C3653 1.397 . S
C3654 C3655 1.334 . S
C3655 H3632 0.950 . S
C3655 C3654 1.334 . S
C3655 C3656 1.287 . S
C3656 C3655 1.287 . S
C3656 C3657 1.524 . S
C3656 H3675 0.913 . S
C3657 H3633 0.950 . S
C3657 C3656 1.524 . S
C3657 C3658 1.415 . S
C3658 H3634 0.950 . S
C3658 C3653 1.363 . S
C3658 C3657 1.415 . S
C3659 H3635 0.951 . S
C3659 C3660 1.366 . S
C3659 C3661 1.388 . S
C3660 C3659 1.366 . S
C3660 C3664 1.385 . S
C3661 H3636 0.951 . S
C3661 C3659 1.388 . S
C3661 C3662 1.366 . S
C3662 C3661 1.366 . S
C3662 C3663 1.414 . S
C3662 C3665 1.499 . S
C3663 H3637 0.950 . S
C3663 C3662 1.414 . S
C3663 C3664 1.374 . S
C3664 H3638 0.950 . S
C3664 C3660 1.385 . S
C3664 C3663 1.374 . S
C3665 C3662 1.499 . S
C3665 C3666 1.373 . S
C3665 C3667 1.389 . S
C3666 H3639 0.950 . S
C3666 C3652 1.377 . S
C3666 C3665 1.373 . S
C3667 C3651 1.377 . S
C3667 C3665 1.389 . S
C3667 C3668 1.524 . S
C3668 C3667 1.524 . S
C3668 C3669 1.397 . S
C3668 C3673 1.363 . S
C3669 H3640 0.950 . S
C3669 C3668 1.397 . S
C3669 C3670 1.334 . S
C3670 H3641 0.950 . S
C3670 C3669 1.334 . S
C3670 C3671 1.287 . S
C3671 C3670 1.287 . S
C3671 C3672 1.524 . S
C3671 H3674 0.999 . S
C3672 H3642 0.950 . S
C3672 C3671 1.524 . S
C3672 C3673 1.415 . S
C3673 H3643 0.950 . S
C3673 C3668 1.363 . S
C3673 C3672 1.415 . S
H3674 C3671 0.999 . S
H3675 C3656 0.913 . S
H3676 C3694 0.951 . S
H3677 C3696 0.951 . S
H3678 C3698 0.950 . S
H3679 C3699 0.950 . S
H3680 C3701 0.950 . S
H3681 C3704 0.950 . S
H3682 C3705 0.950 . S
H3683 C3707 0.993 . S
H3684 C3708 0.950 . S
H3685 C3709 0.951 . S
H3686 C3711 0.951 . S
H3687 C3713 0.950 . S
H3688 C3714 0.950 . S
H3689 C3716 0.950 . S
H3690 C3719 0.950 . S
H3691 C3720 0.950 . S
H3692 C3722 0.950 . S
H3693 C3723 0.950 . S
C3694 H3676 0.951 . S
C3694 C3695 1.366 . S
C3694 C3696 1.388 . S
C3695 C3694 1.366 . S
C3695 C3699 1.385 . S
C3696 H3677 0.951 . S
C3696 C3694 1.388 . S
C3696 C3697 1.366 . S
C3697 C3696 1.366 . S
C3697 C3698 1.414 . S
C3697 C3700 1.499 . S
C3698 H3678 0.950 . S
C3698 C3697 1.414 . S
C3698 C3699 1.374 . S
C3699 H3679 0.950 . S
C3699 C3695 1.385 . S
C3699 C3698 1.374 . S
C3700 C3697 1.499 . S
C3700 C3701 1.373 . S
C3700 C3702 1.389 . S
C3701 H3680 0.950 . S
C3701 C3700 1.373 . S
C3701 C3717 1.377 . S
C3702 C3700 1.389 . S
C3702 C3703 1.524 . S
C3702 C3716 1.377 . S
C3703 C3702 1.524 . S
C3703 C3704 1.397 . S
C3703 C3708 1.363 . S
C3704 H3681 0.950 . S
C3704 C3703 1.397 . S
C3704 C3705 1.334 . S
C3705 H3682 0.950 . S
C3705 C3704 1.334 . S
C3705 C3706 1.287 . S
C3706 C3705 1.287 . S
C3706 C3707 1.524 . S
C3706 H3725 0.913 . S
C3707 H3683 0.993 . S
C3707 C3706 1.524 . S
C3707 C3708 1.415 . S
C3708 H3684 0.950 . S
C3708 C3703 1.363 . S
C3708 C3707 1.415 . S
C3709 H3685 0.951 . S
C3709 C3710 1.366 . S
C3709 C3711 1.388 . S
C3710 C3709 1.366 . S
C3710 C3714 1.385 . S
C3711 H3686 0.951 . S
C3711 C3709 1.388 . S
C3711 C3712 1.366 . S
C3712 C3711 1.366 . S
C3712 C3713 1.414 . S
C3712 C3715 1.499 . S
C3713 H3687 0.950 . S
C3713 C3712 1.414 . S
C3713 C3714 1.374 . S
C3714 H3688 0.950 . S
C3714 C3710 1.385 . S
C3714 C3713 1.374 . S
C3715 C3712 1.499 . S
C3715 C3716 1.373 . S
C3715 C3717 1.389 . S
C3716 H3689 0.950 . S
C3716 C3702 1.377 . S
C3716 C3715 1.373 . S
C3717 C3701 1.377 . S
C3717 C3715 1.389 . S
C3717 C3718 1.524 . S
C3718 C3717 1.524 . S
C3718 C3719 1.397 . S
C3718 C3723 1.363 . S
C3719 H3690 0.950 . S
C3719 C3718 1.397 . S
C3719 C3720 1.334 . S
C3720 H3691 0.950 . S
C3720 C3719 1.334 . S
C3720 C3721 1.287 . S
C3721 C3720 1.287 . S
C3721 C3722 1.524 . S
C3721 H3724 0.999 . S
C3722 H3692 0.950 . S
C3722 C3721 1.524 . S
C3722 C3723 1.415 . S
C3723 H3693 0.950 . S
C3723 C3718 1.363 . S
C3723 C3722 1.415 . S
H3724 C3721 0.999 . S
H3725 C3706 0.913 . S
H3726 C3744 0.951 . S
H3727 C3746 0.951 . S
H3728 C3748 0.950 . S
H3729 C3749 0.950 . S
H3730 C3751 0.950 . S
H3731 C3754 0.950 . S
H3732 C3755 0.950 . S
H3733 C3757 0.950 . S
H3734 C3758 0.950 . S
H3735 C3759 0.951 . S
H3736 C3761 0.951 . S
H3737 C3763 0.950 . S
H3738 C3764 0.950 . S
H3739 C3766 0.950 . S
H3740 C3769 0.950 . S
H3741 C3770 0.950 . S
H3742 C3772 0.950 . S
H3743 C3773 0.950 . S
C3744 H3726 0.951 . S
C3744 C3745 1.366 . S
C3744 C3746 1.388 . S
C3745 C3744 1.366 . S
C3745 C3749 1.385 . S
C3746 H3727 0.951 . S
C3746 C3744 1.388 . S
C3746 C3747 1.366 . S
C3747 C3746 1.366 . S
C3747 C3748 1.414 . S
C3747 C3750 1.499 . S
C3748 H3728 0.950 . S
C3748 C3747 1.414 . S
C3748 C3749 1.374 . S
C3749 H3729 0.950 . S
C3749 C3745 1.385 . S
C3749 C3748 1.374 . S
C3750 C3747 1.499 . S
C3750 C3751 1.373 . S
C3750 C3752 1.389 . S
C3751 H3730 0.950 . S
C3751 C3750 1.373 . S
C3751 C3767 1.377 . S
C3752 C3750 1.389 . S
C3752 C3753 1.524 . S
C3752 C3766 1.377 . S
C3753 C3752 1.524 . S
C3753 C3754 1.397 . S
C3753 C3758 1.363 . S
C3754 H3731 0.950 . S
C3754 C3753 1.397 . S
C3754 C3755 1.334 . S
C3755 H3732 0.950 . S
C3755 C3754 1.334 . S
C3755 C3756 1.287 . S
C3756 C3755 1.287 . S
C3756 C3757 1.524 . S
C3756 H3775 0.913 . S
C3757 H3733 0.950 . S
C3757 C3756 1.524 . S
C3757 C3758 1.415 . S
C3758 H3734 0.950 . S
C3758 C3753 1.363 . S
C3758 C3757 1.415 . S
C3759 H3735 0.951 . S
C3759 C3760 1.366 . S
C3759 C3761 1.388 . S
C3760 C3759 1.366 . S
C3760 C3764 1.385 . S
C3761 H3736 0.951 . S
C3761 C3759 1.388 . S
C3761 C3762 1.366 . S
C3762 C3761 1.366 . S
C3762 C3763 1.414 . S
C3762 C3765 1.499 . S
C3763 H3737 0.950 . S
C3763 C3762 1.414 . S
C3763 C3764 1.374 . S
C3764 H3738 0.950 . S
C3764 C3760 1.385 . S
C3764 C3763 1.374 . S
C3765 C3762 1.499 . S
C3765 C3766 1.373 . S
C3765 C3767 1.389 . S
C3766 H3739 0.950 . S
C3766 C3752 1.377 . S
C3766 C3765 1.373 . S
C3767 C3751 1.377 . S
C3767 C3765 1.389 . S
C3767 C3768 1.524 . S
C3768 C3767 1.524 . S
C3768 C3769 1.397 . S
C3768 C3773 1.363 . S
C3769 H3740 0.950 . S
C3769 C3768 1.397 . S
C3769 C3770 1.334 . S
C3770 H3741 0.950 . S
C3770 C3769 1.334 . S
C3770 C3771 1.287 . S
C3771 C3770 1.287 . S
C3771 C3772 1.524 . S
C3771 H3774 0.999 . S
C3772 H3742 0.950 . S
C3772 C3771 1.524 . S
C3772 C3773 1.415 . S
C3773 H3743 0.950 . S
C3773 C3768 1.363 . S
C3773 C3772 1.415 . S
H3774 C3771 0.999 . S
H3775 C3756 0.913 . S
H3776 C3794 0.951 . S
H3777 C3796 0.951 . S
H3778 C3798 0.950 . S
H3779 C3799 0.950 . S
H3780 C3801 0.950 . S
H3781 C3804 0.950 . S
H3782 C3805 0.950 . S
H3783 C3807 0.950 . S
H3784 C3808 0.950 . S
H3785 C3809 0.951 . S
H3786 C3811 0.951 . S
H3787 C3813 0.950 . S
H3788 C3814 0.950 . S
H3789 C3816 0.950 . S
H3790 C3819 0.950 . S
H3791 C3820 0.950 . S
H3792 C3822 0.950 . S
H3793 C3823 0.950 . S
C3794 H3776 0.951 . S
C3794 C3795 1.366 . S
C3794 C3796 1.388 . S
C3795 C3794 1.366 . S
C3795 C3799 1.385 . S
C3796 H3777 0.951 . S
C3796 C3794 1.388 . S
C3796 C3797 1.366 . S
C3797 C3796 1.366 . S
C3797 C3798 1.414 . S
C3797 C3800 1.499 . S
C3798 H3778 0.950 . S
C3798 C3797 1.414 . S
C3798 C3799 1.374 . S
C3799 H3779 0.950 . S
C3799 C3795 1.385 . S
C3799 C3798 1.374 . S
C3800 C3797 1.499 . S
C3800 C3801 1.373 . S
C3800 C3802 1.389 . S
C3801 H3780 0.950 . S
C3801 C3800 1.373 . S
C3801 C3817 1.377 . S
C3802 C3800 1.389 . S
C3802 C3803 1.524 . S
C3802 C3816 1.377 . S
C3803 C3802 1.524 . S
C3803 C3804 1.397 . S
C3803 C3808 1.363 . S
C3804 H3781 0.950 . S
C3804 C3803 1.397 . S
C3804 C3805 1.334 . S
C3805 H3782 0.950 . S
C3805 C3804 1.334 . S
C3805 C3806 1.287 . S
C3806 C3805 1.287 . S
C3806 C3807 1.524 . S
C3806 H3825 0.913 . S
C3807 H3783 0.950 . S
C3807 C3806 1.524 . S
C3807 C3808 1.415 . S
C3808 H3784 0.950 . S
C3808 C3803 1.363 . S
C3808 C3807 1.415 . S
C3809 H3785 0.951 . S
C3809 C3810 1.366 . S
C3809 C3811 1.388 . S
C3810 C3809 1.366 . S
C3810 C3814 1.385 . S
C3811 H3786 0.951 . S
C3811 C3809 1.388 . S
C3811 C3812 1.366 . S
C3812 C3811 1.366 . S
C3812 C3813 1.414 . S
C3812 C3815 1.499 . S
C3813 H3787 0.950 . S
C3813 C3812 1.414 . S
C3813 C3814 1.374 . S
C3814 H3788 0.950 . S
C3814 C3810 1.385 . S
C3814 C3813 1.374 . S
C3815 C3812 1.499 . S
C3815 C3816 1.373 . S
C3815 C3817 1.389 . S
C3816 H3789 0.950 . S
C3816 C3802 1.377 . S
C3816 C3815 1.373 . S
C3817 C3801 1.377 . S
C3817 C3815 1.389 . S
C3817 C3818 1.524 . S
C3818 C3817 1.524 . S
C3818 C3819 1.397 . S
C3818 C3823 1.363 . S
C3819 H3790 0.950 . S
C3819 C3818 1.397 . S
C3819 C3820 1.334 . S
C3820 H3791 0.950 . S
C3820 C3819 1.334 . S
C3820 C3821 1.287 . S
C3821 C3820 1.287 . S
C3821 C3822 1.524 . S
C3821 H3824 0.999 . S
C3822 H3792 0.950 . S
C3822 C3821 1.524 . S
C3822 C3823 1.415 . S
C3823 H3793 0.950 . S
C3823 C3818 1.363 . S
C3823 C3822 1.415 . S
H3824 C3821 0.999 . S
H3825 C3806 0.913 . S
H3826 C3844 0.951 . S
H3827 C3846 0.951 . S
H3828 C3848 0.950 . S
H3829 C3849 0.950 . S
H3830 C3851 0.950 . S
H3831 C3854 0.950 . S
H3832 C3855 0.950 . S
H3833 C3857 0.950 . S
H3834 C3858 0.950 . S
H3835 C3859 0.951 . S
H3836 C3861 0.951 . S
H3837 C3863 0.950 . S
H3838 C3864 0.950 . S
H3839 C3866 0.950 . S
H3840 C3869 0.950 . S
H3841 C3870 0.950 . S
H3842 C3872 0.950 . S
H3843 C3873 0.950 . S
C3844 H3826 0.951 . S
C3844 C3845 1.366 . S
C3844 C3846 1.388 1_554 S
C3845 C3844 1.366 . S
C3845 C3849 1.385 . S
C3846 H3827 0.951 . S
C3846 C3844 1.388 1_556 S
C3846 C3847 1.366 . S
C3847 C3846 1.366 . S
C3847 C3848 1.414 . S
C3847 C3850 1.499 . S
C3848 H3828 0.950 . S
C3848 C3847 1.414 . S
C3848 C3849 1.374 1_556 S
C3849 H3829 0.950 . S
C3849 C3845 1.385 . S
C3849 C3848 1.374 1_554 S
C3850 C3847 1.499 . S
C3850 C3851 1.373 . S
C3850 C3852 1.389 . S
C3851 H3830 0.950 . S
C3851 C3850 1.373 . S
C3851 C3867 1.377 . S
C3852 C3850 1.389 . S
C3852 C3853 1.524 . S
C3852 C3866 1.377 . S
C3853 C3852 1.524 . S
C3853 C3854 1.397 . S
C3853 C3858 1.363 . S
C3854 H3831 0.950 . S
C3854 C3853 1.397 . S
C3854 C3855 1.334 . S
C3855 H3832 0.950 . S
C3855 C3854 1.334 . S
C3855 C3856 1.287 . S
C3856 C3855 1.287 . S
C3856 C3857 1.524 . S
C3856 H3875 0.913 . S
C3857 H3833 0.950 . S
C3857 C3856 1.524 . S
C3857 C3858 1.415 . S
C3858 H3834 0.950 . S
C3858 C3853 1.363 . S
C3858 C3857 1.415 . S
C3859 H3835 0.951 . S
C3859 C3860 1.366 . S
C3859 C3861 1.388 . S
C3860 C3859 1.366 . S
C3860 C3864 1.385 . S
C3861 H3836 0.951 . S
C3861 C3859 1.388 . S
C3861 C3862 1.366 . S
C3862 C3861 1.366 . S
C3862 C3863 1.414 . S
C3862 C3865 1.499 . S
C3863 H3837 0.950 . S
C3863 C3862 1.414 . S
C3863 C3864 1.374 . S
C3864 H3838 0.950 . S
C3864 C3860 1.385 . S
C3864 C3863 1.374 . S
C3865 C3862 1.499 . S
C3865 C3866 1.373 . S
C3865 C3867 1.389 . S
C3866 H3839 0.950 . S
C3866 C3852 1.377 . S
C3866 C3865 1.373 . S
C3867 C3851 1.377 . S
C3867 C3865 1.389 . S
C3867 C3868 1.524 . S
C3868 C3867 1.524 . S
C3868 C3869 1.397 . S
C3868 C3873 1.363 . S
C3869 H3840 0.950 . S
C3869 C3868 1.397 . S
C3869 C3870 1.334 . S
C3870 H3841 0.950 . S
C3870 C3869 1.334 . S
C3870 C3871 1.287 . S
C3871 C3870 1.287 . S
C3871 C3872 1.524 . S
C3871 H3874 0.999 . S
C3872 H3842 0.950 . S
C3872 C3871 1.524 . S
C3872 C3873 1.415 . S
C3873 H3843 0.950 . S
C3873 C3868 1.363 . S
C3873 C3872 1.415 . S
H3874 C3871 0.999 . S
H3875 C3856 0.913 . S
H3876 C3894 0.951 . S
H3877 C3896 0.951 . S
H3878 C3898 0.950 . S
H3879 C3899 0.950 . S
H3880 C3901 0.950 . S
H3881 C3904 0.950 . S
H3882 C3905 0.950 . S
H3883 C3907 0.950 . S
H3884 C3908 0.950 . S
H3885 C3909 0.951 . S
H3886 C3911 0.951 . S
H3887 C3913 0.950 . S
H3888 C3914 0.950 . S
H3889 C3916 0.950 . S
H3890 C3919 0.950 . S
H3891 C3920 0.950 . S
H3892 C3922 0.950 . S
H3893 C3923 0.950 . S
C3894 H3876 0.951 . S
C3894 C3895 1.366 . S
C3894 C3896 1.388 . S
C3895 C3894 1.366 . S
C3895 C3899 1.385 . S
C3896 H3877 0.951 . S
C3896 C3894 1.388 . S
C3896 C3897 1.366 . S
C3897 C3896 1.366 . S
C3897 C3898 1.414 . S
C3897 C3900 1.499 . S
C3898 H3878 0.950 . S
C3898 C3897 1.414 . S
C3898 C3899 1.374 . S
C3899 H3879 0.950 . S
C3899 C3895 1.385 . S
C3899 C3898 1.374 . S
C3900 C3897 1.499 . S
C3900 C3901 1.373 . S
C3900 C3902 1.389 . S
C3901 H3880 0.950 . S
C3901 C3900 1.373 . S
C3901 C3917 1.377 . S
C3902 C3900 1.389 . S
C3902 C3903 1.524 . S
C3902 C3916 1.377 . S
C3903 C3902 1.524 . S
C3903 C3904 1.397 . S
C3903 C3908 1.363 . S
C3904 H3881 0.950 . S
C3904 C3903 1.397 . S
C3904 C3905 1.334 . S
C3905 H3882 0.950 . S
C3905 C3904 1.334 . S
C3905 C3906 1.287 . S
C3906 C3905 1.287 . S
C3906 C3907 1.524 . S
C3906 H3925 0.913 . S
C3907 H3883 0.950 . S
C3907 C3906 1.524 . S
C3907 C3908 1.415 . S
C3908 H3884 0.950 . S
C3908 C3903 1.363 . S
C3908 C3907 1.415 . S
C3909 H3885 0.951 . S
C3909 C3910 1.366 . S
C3909 C3911 1.388 . S
C3910 C3909 1.366 . S
C3910 C3914 1.385 . S
C3911 H3886 0.951 . S
C3911 C3909 1.388 . S
C3911 C3912 1.366 . S
C3912 C3911 1.366 . S
C3912 C3913 1.414 . S
C3912 C3915 1.499 . S
C3913 H3887 0.950 . S
C3913 C3912 1.414 . S
C3913 C3914 1.374 . S
C3914 H3888 0.950 . S
C3914 C3910 1.385 . S
C3914 C3913 1.374 . S
C3915 C3912 1.499 . S
C3915 C3916 1.373 . S
C3915 C3917 1.389 . S
C3916 H3889 0.950 . S
C3916 C3902 1.377 . S
C3916 C3915 1.373 . S
C3917 C3901 1.377 . S
C3917 C3915 1.389 . S
C3917 C3918 1.524 . S
C3918 C3917 1.524 . S
C3918 C3919 1.397 . S
C3918 C3923 1.363 . S
C3919 H3890 0.950 . S
C3919 C3918 1.397 . S
C3919 C3920 1.334 . S
C3920 H3891 0.950 . S
C3920 C3919 1.334 . S
C3920 C3921 1.287 . S
C3921 C3920 1.287 . S
C3921 C3922 1.524 . S
C3921 H3924 0.999 . S
C3922 H3892 0.950 . S
C3922 C3921 1.524 . S
C3922 C3923 1.415 . S
C3923 H3893 0.950 . S
C3923 C3918 1.363 . S
C3923 C3922 1.415 . S
H3924 C3921 0.999 . S
H3925 C3906 0.913 . S
H3926 C3944 0.951 . S
H3927 C3946 0.951 . S
H3928 C3948 0.950 . S
H3929 C3949 0.950 . S
H3930 C3951 0.950 . S
H3931 C3954 0.950 . S
H3932 C3955 0.950 . S
H3933 C3957 0.950 . S
H3934 C3958 0.950 . S
H3935 C3959 0.951 . S
H3936 C3961 0.951 . S
H3937 C3963 0.950 . S
H3938 C3964 0.950 . S
H3939 C3966 0.950 . S
H3940 C3969 0.950 . S
H3941 C3970 0.950 . S
H3942 C3972 0.950 . S
H3943 C3973 0.950 . S
C3944 H3926 0.951 . S
C3944 C3945 1.366 . S
C3944 C3946 1.388 . S
C3945 C3944 1.366 . S
C3945 C3949 1.385 . S
C3946 H3927 0.951 . S
C3946 C3944 1.388 . S
C3946 C3947 1.366 . S
C3947 C3946 1.366 . S
C3947 C3948 1.414 . S
C3947 C3950 1.499 . S
C3948 H3928 0.950 . S
C3948 C3947 1.414 . S
C3948 C3949 1.374 . S
C3949 H3929 0.950 . S
C3949 C3945 1.385 . S
C3949 C3948 1.374 . S
C3950 C3947 1.499 . S
C3950 C3951 1.373 . S
C3950 C3952 1.389 . S
C3951 H3930 0.950 . S
C3951 C3950 1.373 . S
C3951 C3967 1.377 . S
C3952 C3950 1.389 . S
C3952 C3953 1.524 . S
C3952 C3966 1.377 . S
C3953 C3952 1.524 . S
C3953 C3954 1.397 . S
C3953 C3958 1.363 . S
C3954 H3931 0.950 . S
C3954 C3953 1.397 . S
C3954 C3955 1.334 . S
C3955 H3932 0.950 . S
C3955 C3954 1.334 . S
C3955 C3956 1.287 . S
C3956 C3955 1.287 . S
C3956 C3957 1.524 . S
C3956 H3975 0.913 . S
C3957 H3933 0.950 . S
C3957 C3956 1.524 . S
C3957 C3958 1.415 . S
C3958 H3934 0.950 . S
C3958 C3953 1.363 . S
C3958 C3957 1.415 . S
C3959 H3935 0.951 . S
C3959 C3960 1.366 . S
C3959 C3961 1.388 . S
C3960 C3959 1.366 . S
C3960 C3964 1.385 . S
C3961 H3936 0.951 . S
C3961 C3959 1.388 . S
C3961 C3962 1.366 . S
C3962 C3961 1.366 . S
C3962 C3963 1.414 . S
C3962 C3965 1.499 . S
C3963 H3937 0.950 . S
C3963 C3962 1.414 . S
C3963 C3964 1.374 . S
C3964 H3938 0.950 . S
C3964 C3960 1.385 . S
C3964 C3963 1.374 . S
C3965 C3962 1.499 . S
C3965 C3966 1.373 . S
C3965 C3967 1.389 . S
C3966 H3939 0.950 . S
C3966 C3952 1.377 . S
C3966 C3965 1.373 . S
C3967 C3951 1.377 . S
C3967 C3965 1.389 . S
C3967 C3968 1.524 . S
C3968 C3967 1.524 . S
C3968 C3969 1.397 . S
C3968 C3973 1.363 . S
C3969 H3940 0.950 . S
C3969 C3968 1.397 . S
C3969 C3970 1.334 . S
C3970 H3941 0.950 . S
C3970 C3969 1.334 . S
C3970 C3971 1.287 . S
C3971 C3970 1.287 . S
C3971 C3972 1.524 . S
C3971 H3974 0.999 . S
C3972 H3942 0.950 . S
C3972 C3971 1.524 . S
C3972 C3973 1.415 . S
C3973 H3943 0.950 . S
C3973 C3968 1.363 . S
C3973 C3972 1.415 . S
H3974 C3971 0.999 . S
H3975 C3956 0.913 . S
H3976 C3994 0.951 . S
H3977 C3996 0.951 . S
H3978 C3998 0.950 . S
H3979 C3999 0.950 . S
H3980 C4001 0.950 . S
H3981 C4004 0.950 . S
H3982 C4005 0.950 . S
H3983 C4007 0.950 . S
H3984 C4008 0.950 . S
H3985 C4009 0.951 . S
H3986 C4011 0.951 . S
H3987 C4013 0.950 . S
H3988 C4014 0.950 . S
H3989 C4016 0.950 . S
H3990 C4019 0.950 . S
H3991 C4020 0.950 . S
H3992 C4022 0.950 . S
H3993 C4023 0.950 . S
C3994 H3976 0.951 . S
C3994 C3995 1.366 . S
C3994 C3996 1.388 . S
C3995 C3994 1.366 . S
C3995 C3999 1.385 . S
C3996 H3977 0.951 . S
C3996 C3994 1.388 . S
C3996 C3997 1.366 . S
C3997 C3996 1.366 . S
C3997 C3998 1.414 . S
C3997 C4000 1.499 . S
C3998 H3978 0.950 . S
C3998 C3997 1.414 . S
C3998 C3999 1.374 . S
C3999 H3979 0.950 . S
C3999 C3995 1.385 . S
C3999 C3998 1.374 . S
C4000 C3997 1.499 . S
C4000 C4001 1.373 . S
C4000 C4002 1.389 . S
C4001 H3980 0.950 . S
C4001 C4000 1.373 . S
C4001 C4017 1.377 . S
C4002 C4000 1.389 . S
C4002 C4003 1.524 . S
C4002 C4016 1.377 . S
C4003 C4002 1.524 . S
C4003 C4004 1.397 . S
C4003 C4008 1.363 . S
C4004 H3981 0.950 . S
C4004 C4003 1.397 . S
C4004 C4005 1.334 . S
C4005 H3982 0.950 . S
C4005 C4004 1.334 . S
C4005 C4006 1.287 . S
C4006 C4005 1.287 . S
C4006 C4007 1.524 . S
C4006 H4025 0.913 . S
C4007 H3983 0.950 . S
C4007 C4006 1.524 . S
C4007 C4008 1.415 . S
C4008 H3984 0.950 . S
C4008 C4003 1.363 . S
C4008 C4007 1.415 . S
C4009 H3985 0.951 . S
C4009 C4010 1.366 . S
C4009 C4011 1.388 . S
C4010 C4009 1.366 . S
C4010 C4014 1.385 . S
C4011 H3986 0.951 . S
C4011 C4009 1.388 . S
C4011 C4012 1.366 . S
C4012 C4011 1.366 . S
C4012 C4013 1.414 . S
C4012 C4015 1.499 . S
C4013 H3987 0.950 . S
C4013 C4012 1.414 . S
C4013 C4014 1.374 . S
C4014 H3988 0.950 . S
C4014 C4010 1.385 . S
C4014 C4013 1.374 . S
C4015 C4012 1.499 . S
C4015 C4016 1.373 . S
C4015 C4017 1.389 . S
C4016 H3989 0.950 . S
C4016 C4002 1.377 . S
C4016 C4015 1.373 . S
C4017 C4001 1.377 . S
C4017 C4015 1.389 . S
C4017 C4018 1.524 . S
C4018 C4017 1.524 . S
C4018 C4019 1.397 . S
C4018 C4023 1.363 . S
C4019 H3990 0.950 . S
C4019 C4018 1.397 . S
C4019 C4020 1.334 . S
C4020 H3991 0.950 . S
C4020 C4019 1.334 . S
C4020 C4021 1.287 . S
C4021 C4020 1.287 . S
C4021 C4022 1.524 . S
C4021 H4024 0.999 . S
C4022 H3992 0.950 . S
C4022 C4021 1.524 . S
C4022 C4023 1.415 . S
C4023 H3993 0.950 . S
C4023 C4018 1.363 . S
C4023 C4022 1.415 . S
H4024 C4021 0.999 . S
H4025 C4006 0.913 . S
H4026 C4044 0.951 . S
H4027 C4046 0.951 . S
H4028 C4048 0.950 . S
H4029 C4049 0.950 . S
H4030 C4051 0.950 . S
H4031 C4054 0.950 . S
H4032 C4055 0.950 . S
H4033 C4057 0.950 . S
H4034 C4058 0.950 . S
H4035 C4059 0.951 . S
H4036 C4061 0.951 . S
H4037 C4063 0.950 . S
H4038 C4064 0.950 . S
H4039 C4066 0.950 . S
H4040 C4069 0.950 . S
H4041 C4070 0.950 . S
H4042 C4072 0.950 . S
H4043 C4073 0.950 . S
C4044 H4026 0.951 . S
C4044 C4045 1.366 . S
C4044 C4046 1.388 . S
C4045 C4044 1.366 . S
C4045 C4049 1.385 . S
C4046 H4027 0.951 . S
C4046 C4044 1.388 . S
C4046 C4047 1.366 . S
C4047 C4046 1.366 . S
C4047 C4048 1.414 . S
C4047 C4050 1.499 . S
C4048 H4028 0.950 . S
C4048 C4047 1.414 . S
C4048 C4049 1.374 . S
C4049 H4029 0.950 . S
C4049 C4045 1.385 . S
C4049 C4048 1.374 . S
C4050 C4047 1.499 . S
C4050 C4051 1.373 . S
C4050 C4052 1.389 . S
C4051 H4030 0.950 . S
C4051 C4050 1.373 . S
C4051 C4067 1.377 . S
C4052 C4050 1.389 . S
C4052 C4053 1.524 . S
C4052 C4066 1.377 . S
C4053 C4052 1.524 . S
C4053 C4054 1.397 . S
C4053 C4058 1.363 . S
C4054 H4031 0.950 . S
C4054 C4053 1.397 . S
C4054 C4055 1.334 . S
C4055 H4032 0.950 . S
C4055 C4054 1.334 . S
C4055 C4056 1.287 . S
C4056 C4055 1.287 . S
C4056 C4057 1.524 . S
C4056 H4075 0.913 . S
C4057 H4033 0.950 . S
C4057 C4056 1.524 . S
C4057 C4058 1.415 . S
C4058 H4034 0.950 . S
C4058 C4053 1.363 . S
C4058 C4057 1.415 . S
C4059 H4035 0.951 . S
C4059 C4060 1.366 . S
C4059 C4061 1.388 . S
C4060 C4059 1.366 . S
C4060 C4064 1.385 . S
C4061 H4036 0.951 . S
C4061 C4059 1.388 . S
C4061 C4062 1.366 . S
C4062 C4061 1.366 . S
C4062 C4063 1.414 . S
C4062 C4065 1.499 . S
C4063 H4037 0.950 . S
C4063 C4062 1.414 . S
C4063 C4064 1.374 . S
C4064 H4038 0.950 . S
C4064 C4060 1.385 . S
C4064 C4063 1.374 . S
C4065 C4062 1.499 . S
C4065 C4066 1.373 . S
C4065 C4067 1.389 . S
C4066 H4039 0.950 . S
C4066 C4052 1.377 . S
C4066 C4065 1.373 . S
C4067 C4051 1.377 . S
C4067 C4065 1.389 . S
C4067 C4068 1.524 . S
C4068 C4067 1.524 . S
C4068 C4069 1.397 . S
C4068 C4073 1.363 . S
C4069 H4040 0.950 . S
C4069 C4068 1.397 . S
C4069 C4070 1.334 . S
C4070 H4041 0.950 . S
C4070 C4069 1.334 . S
C4070 C4071 1.287 . S
C4071 C4070 1.287 . S
C4071 C4072 1.524 . S
C4071 H4074 0.999 . S
C4072 H4042 0.950 . S
C4072 C4071 1.524 . S
C4072 C4073 1.415 . S
C4073 H4043 0.950 . S
C4073 C4068 1.363 . S
C4073 C4072 1.415 . S
H4074 C4071 0.999 . S
H4075 C4056 0.913 . S
H4076 C4094 0.951 . S
H4077 C4096 0.951 . S
H4078 C4098 0.950 . S
H4079 C4099 0.950 . S
H4080 C4101 0.950 . S
H4081 C4104 0.950 . S
H4082 C4105 0.950 . S
H4083 C4107 0.950 . S
H4084 C4108 0.950 . S
H4085 C4109 0.951 . S
H4086 C4111 0.951 . S
H4087 C4113 0.950 . S
H4088 C4114 0.950 . S
H4089 C4116 0.950 . S
H4090 C4119 0.950 . S
H4091 C4120 0.950 . S
H4092 C4122 0.950 . S
H4093 C4123 0.950 . S
C4094 H4076 0.951 . S
C4094 C4095 1.366 . S
C4094 C4096 1.388 . S
C4095 C4094 1.366 . S
C4095 C4099 1.385 . S
C4096 H4077 0.951 . S
C4096 C4094 1.388 . S
C4096 C4097 1.366 . S
C4097 C4096 1.366 . S
C4097 C4098 1.414 . S
C4097 C4100 1.499 . S
C4098 H4078 0.950 . S
C4098 C4097 1.414 . S
C4098 C4099 1.374 . S
C4099 H4079 0.950 . S
C4099 C4095 1.385 . S
C4099 C4098 1.374 . S
C4100 C4097 1.499 . S
C4100 C4101 1.373 . S
C4100 C4102 1.389 . S
C4101 H4080 0.950 . S
C4101 C4100 1.373 . S
C4101 C4117 1.377 . S
C4102 C4100 1.389 . S
C4102 C4103 1.524 . S
C4102 C4116 1.377 . S
C4103 C4102 1.524 . S
C4103 C4104 1.397 . S
C4103 C4108 1.363 . S
C4104 H4081 0.950 . S
C4104 C4103 1.397 . S
C4104 C4105 1.334 . S
C4105 H4082 0.950 . S
C4105 C4104 1.334 . S
C4105 C4106 1.287 . S
C4106 C4105 1.287 . S
C4106 C4107 1.524 . S
C4106 H4125 0.913 . S
C4107 H4083 0.950 . S
C4107 C4106 1.524 . S
C4107 C4108 1.415 . S
C4108 H4084 0.950 . S
C4108 C4103 1.363 . S
C4108 C4107 1.415 . S
C4109 H4085 0.951 . S
C4109 C4110 1.366 . S
C4109 C4111 1.388 . S
C4110 C4109 1.366 . S
C4110 C4114 1.385 . S
C4111 H4086 0.951 . S
C4111 C4109 1.388 . S
C4111 C4112 1.366 . S
C4112 C4111 1.366 . S
C4112 C4113 1.414 . S
C4112 C4115 1.499 . S
C4113 H4087 0.950 . S
C4113 C4112 1.414 . S
C4113 C4114 1.374 . S
C4114 H4088 0.950 . S
C4114 C4110 1.385 . S
C4114 C4113 1.374 . S
C4115 C4112 1.499 . S
C4115 C4116 1.373 . S
C4115 C4117 1.389 . S
C4116 H4089 0.950 . S
C4116 C4102 1.377 . S
C4116 C4115 1.373 . S
C4117 C4101 1.377 . S
C4117 C4115 1.389 . S
C4117 C4118 1.524 . S
C4118 C4117 1.524 . S
C4118 C4119 1.397 . S
C4118 C4123 1.363 . S
C4119 H4090 0.950 . S
C4119 C4118 1.397 . S
C4119 C4120 1.334 . S
C4120 H4091 0.950 . S
C4120 C4119 1.334 . S
C4120 C4121 1.287 . S
C4121 C4120 1.287 . S
C4121 C4122 1.524 . S
C4121 H4124 0.999 . S
C4122 H4092 0.950 . S
C4122 C4121 1.524 . S
C4122 C4123 1.415 . S
C4123 H4093 0.950 . S
C4123 C4118 1.363 . S
C4123 C4122 1.415 . S
H4124 C4121 0.999 . S
H4125 C4106 0.913 . S
H4126 C4144 0.951 . S
H4127 C4146 0.951 . S
H4128 C4148 0.950 . S
H4129 C4149 0.950 . S
H4130 C4151 0.950 . S
H4131 C4154 0.950 . S
H4132 C4155 0.950 . S
H4133 C4157 0.950 . S
H4134 C4158 0.950 . S
H4135 C4159 0.951 . S
H4136 C4161 0.951 . S
H4137 C4163 0.950 . S
H4138 C4164 0.950 . S
H4139 C4166 0.950 . S
H4140 C4169 0.950 . S
H4141 C4170 0.950 . S
H4142 C4172 0.950 . S
H4143 C4173 0.950 . S
C4144 H4126 0.951 . S
C4144 C4145 1.366 . S
C4144 C4146 1.388 . S
C4145 C4144 1.366 . S
C4145 C4149 1.385 . S
C4146 H4127 0.951 . S
C4146 C4144 1.388 . S
C4146 C4147 1.366 . S
C4147 C4146 1.366 . S
C4147 C4148 1.414 . S
C4147 C4150 1.499 . S
C4148 H4128 0.950 . S
C4148 C4147 1.414 . S
C4148 C4149 1.374 . S
C4149 H4129 0.950 . S
C4149 C4145 1.385 . S
C4149 C4148 1.374 . S
C4150 C4147 1.499 . S
C4150 C4151 1.373 . S
C4150 C4152 1.389 . S
C4151 H4130 0.950 . S
C4151 C4150 1.373 . S
C4151 C4167 1.377 . S
C4152 C4150 1.389 . S
C4152 C4153 1.524 . S
C4152 C4166 1.377 . S
C4153 C4152 1.524 . S
C4153 C4154 1.397 . S
C4153 C4158 1.363 . S
C4154 H4131 0.950 . S
C4154 C4153 1.397 . S
C4154 C4155 1.334 . S
C4155 H4132 0.950 . S
C4155 C4154 1.334 . S
C4155 C4156 1.287 . S
C4156 C4155 1.287 . S
C4156 C4157 1.524 . S
C4156 H4175 0.913 . S
C4157 H4133 0.950 . S
C4157 C4156 1.524 . S
C4157 C4158 1.415 . S
C4158 H4134 0.950 . S
C4158 C4153 1.363 . S
C4158 C4157 1.415 . S
C4159 H4135 0.951 . S
C4159 C4160 1.366 . S
C4159 C4161 1.388 . S
C4160 C4159 1.366 . S
C4160 C4164 1.385 . S
C4161 H4136 0.951 . S
C4161 C4159 1.388 . S
C4161 C4162 1.366 . S
C4162 C4161 1.366 . S
C4162 C4163 1.414 . S
C4162 C4165 1.499 . S
C4163 H4137 0.950 . S
C4163 C4162 1.414 . S
C4163 C4164 1.374 . S
C4164 H4138 0.950 . S
C4164 C4160 1.385 . S
C4164 C4163 1.374 . S
C4165 C4162 1.499 . S
C4165 C4166 1.373 . S
C4165 C4167 1.389 . S
C4166 H4139 0.950 . S
C4166 C4152 1.377 . S
C4166 C4165 1.373 . S
C4167 C4151 1.377 . S
C4167 C4165 1.389 . S
C4167 C4168 1.524 . S
C4168 C4167 1.524 . S
C4168 C4169 1.397 . S
C4168 C4173 1.363 . S
C4169 H4140 0.950 . S
C4169 C4168 1.397 . S
C4169 C4170 1.334 . S
C4170 H4141 0.950 . S
C4170 C4169 1.334 . S
C4170 C4171 1.287 . S
C4171 C4170 1.287 . S
C4171 C4172 1.524 . S
C4171 H4174 0.999 . S
C4172 H4142 0.950 . S
C4172 C4171 1.524 . S
C4172 C4173 1.415 . S
C4173 H4143 0.950 . S
C4173 C4168 1.363 . S
C4173 C4172 1.415 . S
H4174 C4171 0.999 . S
H4175 C4156 0.913 . S
H4176 C4194 0.951 . S
H4177 C4196 0.951 . S
H4178 C4198 0.950 . S
H4179 C4199 0.950 . S
H4180 C4201 0.950 . S
H4181 C4204 0.950 . S
H4182 C4205 0.950 . S
H4183 C4207 0.950 . S
H4184 C4208 0.950 . S
H4185 C4209 0.951 . S
H4186 C4211 0.951 . S
H4187 C4213 0.950 . S
H4188 C4214 0.950 . S
H4189 C4216 0.950 . S
H4190 C4219 0.950 . S
H4191 C4220 0.950 . S
H4192 C4222 0.950 . S
H4193 C4223 0.950 . S
C4194 H4176 0.951 . S
C4194 C4195 1.366 . S
C4194 C4196 1.388 . S
C4195 C4194 1.366 . S
C4195 C4199 1.385 . S
C4196 H4177 0.951 . S
C4196 C4194 1.388 . S
C4196 C4197 1.366 . S
C4197 C4196 1.366 . S
C4197 C4198 1.414 . S
C4197 C4200 1.499 . S
C4198 H4178 0.950 . S
C4198 C4197 1.414 . S
C4198 C4199 1.374 . S
C4199 H4179 0.950 . S
C4199 C4195 1.385 . S
C4199 C4198 1.374 . S
C4200 C4197 1.499 . S
C4200 C4201 1.373 . S
C4200 C4202 1.389 . S
C4201 H4180 0.950 . S
C4201 C4200 1.373 . S
C4201 C4217 1.377 . S
C4202 C4200 1.389 . S
C4202 C4203 1.524 . S
C4202 C4216 1.377 . S
C4203 C4202 1.524 . S
C4203 C4204 1.397 . S
C4203 C4208 1.363 . S
C4204 H4181 0.950 . S
C4204 C4203 1.397 . S
C4204 C4205 1.334 . S
C4205 H4182 0.950 . S
C4205 C4204 1.334 . S
C4205 C4206 1.287 . S
C4206 C4205 1.287 . S
C4206 C4207 1.524 . S
C4206 H4225 0.913 . S
C4207 H4183 0.950 . S
C4207 C4206 1.524 . S
C4207 C4208 1.415 . S
C4208 H4184 0.950 . S
C4208 C4203 1.363 . S
C4208 C4207 1.415 . S
C4209 H4185 0.951 . S
C4209 C4210 1.366 . S
C4209 C4211 1.388 . S
C4210 C4209 1.366 . S
C4210 C4214 1.385 . S
C4211 H4186 0.951 . S
C4211 C4209 1.388 . S
C4211 C4212 1.366 . S
C4212 C4211 1.366 . S
C4212 C4213 1.414 . S
C4212 C4215 1.499 . S
C4213 H4187 0.950 . S
C4213 C4212 1.414 . S
C4213 C4214 1.374 . S
C4214 H4188 0.950 . S
C4214 C4210 1.385 . S
C4214 C4213 1.374 . S
C4215 C4212 1.499 . S
C4215 C4216 1.373 . S
C4215 C4217 1.389 . S
C4216 H4189 0.950 . S
C4216 C4202 1.377 . S
C4216 C4215 1.373 . S
C4217 C4201 1.377 . S
C4217 C4215 1.389 . S
C4217 C4218 1.524 . S
C4218 C4217 1.524 . S
C4218 C4219 1.397 . S
C4218 C4223 1.363 . S
C4219 H4190 0.950 . S
C4219 C4218 1.397 . S
C4219 C4220 1.334 . S
C4220 H4191 0.950 . S
C4220 C4219 1.334 . S
C4220 C4221 1.287 . S
C4221 C4220 1.287 . S
C4221 C4222 1.524 . S
C4221 H4224 0.999 . S
C4222 H4192 0.950 . S
C4222 C4221 1.524 . S
C4222 C4223 1.415 . S
C4223 H4193 0.950 . S
C4223 C4218 1.363 . S
C4223 C4222 1.415 . S
H4224 C4221 0.999 . S
H4225 C4206 0.913 . S
H4226 C4244 0.951 . S
H4227 C4246 0.951 . S
H4228 C4248 0.950 . S
H4229 C4249 0.950 . S
H4230 C4251 0.950 . S
H4231 C4254 0.950 . S
H4232 C4255 0.950 . S
H4233 C4257 0.950 . S
H4234 C4258 0.950 . S
H4235 C4259 0.951 . S
H4236 C4261 0.951 . S
H4237 C4263 0.950 . S
H4238 C4264 0.950 . S
H4239 C4266 0.950 . S
H4240 C4269 0.950 . S
H4241 C4270 0.950 . S
H4242 C4272 0.950 . S
H4243 C4273 0.950 . S
C4244 H4226 0.951 . S
C4244 C4245 1.366 . S
C4244 C4246 1.388 . S
C4245 C4244 1.366 . S
C4245 C4249 1.385 . S
C4246 H4227 0.951 . S
C4246 C4244 1.388 . S
C4246 C4247 1.366 . S
C4247 C4246 1.366 . S
C4247 C4248 1.414 . S
C4247 C4250 1.499 . S
C4248 H4228 0.950 . S
C4248 C4247 1.414 . S
C4248 C4249 1.374 . S
C4249 H4229 0.950 . S
C4249 C4245 1.385 . S
C4249 C4248 1.374 . S
C4250 C4247 1.499 . S
C4250 C4251 1.373 . S
C4250 C4252 1.389 . S
C4251 H4230 0.950 . S
C4251 C4250 1.373 . S
C4251 C4267 1.377 . S
C4252 C4250 1.389 . S
C4252 C4253 1.524 . S
C4252 C4266 1.377 . S
C4253 C4252 1.524 . S
C4253 C4254 1.397 . S
C4253 C4258 1.363 . S
C4254 H4231 0.950 . S
C4254 C4253 1.397 . S
C4254 C4255 1.334 . S
C4255 H4232 0.950 . S
C4255 C4254 1.334 . S
C4255 C4256 1.287 . S
C4256 C4255 1.287 . S
C4256 C4257 1.524 . S
C4256 H4275 0.913 . S
C4257 H4233 0.950 . S
C4257 C4256 1.524 . S
C4257 C4258 1.415 . S
C4258 H4234 0.950 . S
C4258 C4253 1.363 . S
C4258 C4257 1.415 . S
C4259 H4235 0.951 . S
C4259 C4260 1.366 . S
C4259 C4261 1.388 . S
C4260 C4259 1.366 . S
C4260 C4264 1.385 . S
C4261 H4236 0.951 . S
C4261 C4259 1.388 . S
C4261 C4262 1.366 . S
C4262 C4261 1.366 . S
C4262 C4263 1.414 . S
C4262 C4265 1.499 . S
C4263 H4237 0.950 . S
C4263 C4262 1.414 . S
C4263 C4264 1.374 . S
C4264 H4238 0.950 . S
C4264 C4260 1.385 . S
C4264 C4263 1.374 . S
C4265 C4262 1.499 . S
C4265 C4266 1.373 . S
C4265 C4267 1.389 . S
C4266 H4239 0.950 . S
C4266 C4252 1.377 . S
C4266 C4265 1.373 . S
C4267 C4251 1.377 . S
C4267 C4265 1.389 . S
C4267 C4268 1.524 . S
C4268 C4267 1.524 . S
C4268 C4269 1.397 . S
C4268 C4273 1.363 . S
C4269 H4240 0.950 . S
C4269 C4268 1.397 . S
C4269 C4270 1.334 . S
C4270 H4241 0.950 . S
C4270 C4269 1.334 . S
C4270 C4271 1.287 . S
C4271 C4270 1.287 . S
C4271 C4272 1.524 . S
C4271 H4274 0.999 . S
C4272 H4242 0.950 . S
C4272 C4271 1.524 . S
C4272 C4273 1.415 . S
C4273 H4243 0.950 . S
C4273 C4268 1.363 . S
C4273 C4272 1.415 . S
H4274 C4271 0.999 . S
H4275 C4256 0.913 . S
H4276 C4294 0.951 . S
H4277 C4296 0.951 . S
H4278 C4298 0.950 . S
H4279 C4299 0.950 . S
H4280 C4301 0.950 . S
H4281 C4304 0.950 . S
H4282 C4305 0.950 . S
H4283 C4307 0.950 . S
H4284 C4308 0.950 . S
H4285 C4309 0.951 . S
H4286 C4311 0.951 . S
H4287 C4313 0.950 . S
H4288 C4314 0.950 . S
H4289 C4316 0.950 . S
H4290 C4319 0.950 . S
H4291 C4320 0.950 . S
H4292 C4322 0.950 . S
H4293 C4323 0.950 . S
C4294 H4276 0.951 . S
C4294 C4295 1.366 . S
C4294 C4296 1.388 . S
C4295 C4294 1.366 . S
C4295 C4299 1.385 . S
C4296 H4277 0.951 . S
C4296 C4294 1.388 . S
C4296 C4297 1.366 . S
C4297 C4296 1.366 . S
C4297 C4298 1.414 . S
C4297 C4300 1.499 . S
C4298 H4278 0.950 . S
C4298 C4297 1.414 . S
C4298 C4299 1.374 . S
C4299 H4279 0.950 . S
C4299 C4295 1.385 . S
C4299 C4298 1.374 . S
C4300 C4297 1.499 . S
C4300 C4301 1.373 . S
C4300 C4302 1.389 . S
C4301 H4280 0.950 . S
C4301 C4300 1.373 . S
C4301 C4317 1.377 . S
C4302 C4300 1.389 . S
C4302 C4303 1.524 . S
C4302 C4316 1.377 . S
C4303 C4302 1.524 . S
C4303 C4304 1.397 . S
C4303 C4308 1.363 . S
C4304 H4281 0.950 . S
C4304 C4303 1.397 . S
C4304 C4305 1.334 . S
C4305 H4282 0.950 . S
C4305 C4304 1.334 . S
C4305 C4306 1.287 . S
C4306 C4305 1.287 . S
C4306 C4307 1.524 . S
C4306 H4325 0.913 . S
C4307 H4283 0.950 . S
C4307 C4306 1.524 . S
C4307 C4308 1.415 . S
C4308 H4284 0.950 . S
C4308 C4303 1.363 . S
C4308 C4307 1.415 . S
C4309 H4285 0.951 . S
C4309 C4310 1.366 . S
C4309 C4311 1.388 . S
C4310 C4309 1.366 . S
C4310 C4314 1.385 . S
C4311 H4286 0.951 . S
C4311 C4309 1.388 . S
C4311 C4312 1.366 . S
C4312 C4311 1.366 . S
C4312 C4313 1.414 . S
C4312 C4315 1.499 . S
C4313 H4287 0.950 . S
C4313 C4312 1.414 . S
C4313 C4314 1.374 . S
C4314 H4288 0.950 . S
C4314 C4310 1.385 . S
C4314 C4313 1.374 . S
C4315 C4312 1.499 . S
C4315 C4316 1.373 . S
C4315 C4317 1.389 . S
C4316 H4289 0.950 . S
C4316 C4302 1.377 . S
C4316 C4315 1.373 . S
C4317 C4301 1.377 . S
C4317 C4315 1.389 . S
C4317 C4318 1.524 . S
C4318 C4317 1.524 . S
C4318 C4319 1.397 . S
C4318 C4323 1.363 . S
C4319 H4290 0.950 . S
C4319 C4318 1.397 . S
C4319 C4320 1.334 . S
C4320 H4291 0.950 . S
C4320 C4319 1.334 . S
C4320 C4321 1.287 . S
C4321 C4320 1.287 . S
C4321 C4322 1.524 . S
C4321 H4324 0.999 . S
C4322 H4292 0.950 . S
C4322 C4321 1.524 . S
C4322 C4323 1.415 . S
C4323 H4293 0.950 . S
C4323 C4318 1.363 . S
C4323 C4322 1.415 . S
H4324 C4321 0.999 . S
H4325 C4306 0.913 . S
H4326 C4344 0.951 . S
H4327 C4346 0.951 . S
H4328 C4348 0.950 . S
H4329 C4349 0.950 . S
H4330 C4351 0.950 . S
H4331 C4354 0.950 . S
H4332 C4355 0.950 . S
H4333 C4357 0.950 . S
H4334 C4358 0.950 . S
H4335 C4359 0.942 1_545 S
H4336 C4361 0.951 . S
H4337 C4363 0.950 . S
H4338 C4364 0.950 . S
H4339 C4366 0.950 . S
H4340 C4369 0.950 . S
H4341 C4370 0.950 . S
H4342 C4372 0.950 . S
H4343 C4373 0.950 . S
C4344 H4326 0.951 . S
C4344 C4345 1.366 . S
C4344 C4346 1.388 . S
C4345 C4344 1.366 . S
C4345 C4349 1.385 . S
C4346 H4327 0.951 . S
C4346 C4344 1.388 . S
C4346 C4347 1.366 . S
C4347 C4346 1.366 . S
C4347 C4348 1.414 . S
C4347 C4350 1.499 . S
C4348 H4328 0.950 . S
C4348 C4347 1.414 . S
C4348 C4349 1.374 . S
C4349 H4329 0.950 . S
C4349 C4345 1.385 . S
C4349 C4348 1.374 . S
C4350 C4347 1.499 . S
C4350 C4351 1.373 1_554 S
C4350 C4352 1.389 . S
C4351 H4330 0.950 . S
C4351 C4350 1.373 1_556 S
C4351 C4367 1.377 . S
C4352 C4350 1.389 . S
C4352 C4353 1.524 . S
C4352 C4366 1.377 . S
C4353 C4352 1.524 . S
C4353 C4354 1.397 . S
C4353 C4358 1.363 . S
C4354 H4331 0.950 . S
C4354 C4353 1.397 . S
C4354 C4355 1.334 . S
C4355 H4332 0.950 . S
C4355 C4354 1.334 . S
C4355 C4356 1.287 . S
C4356 C4355 1.287 . S
C4356 C4357 1.524 . S
C4356 H4375 0.913 . S
C4357 H4333 0.950 . S
C4357 C4356 1.524 . S
C4357 C4358 1.415 . S
C4358 H4334 0.950 . S
C4358 C4353 1.363 . S
C4358 C4357 1.415 . S
C4359 H4335 0.942 1_565 S
C4359 C4360 1.366 . S
C4359 C4361 1.388 . S
C4360 C4359 1.366 . S
C4360 C4364 1.385 . S
C4361 H4336 0.951 . S
C4361 C4359 1.388 . S
C4361 C4362 1.366 . S
C4362 C4361 1.366 . S
C4362 C4363 1.414 . S
C4362 C4365 1.499 . S
C4363 H4337 0.950 . S
C4363 C4362 1.414 . S
C4363 C4364 1.374 . S
C4364 H4338 0.950 . S
C4364 C4360 1.385 . S
C4364 C4363 1.374 . S
C4365 C4362 1.499 . S
C4365 C4366 1.373 . S
C4365 C4367 1.389 1_554 S
C4366 H4339 0.950 . S
C4366 C4352 1.377 . S
C4366 C4365 1.373 . S
C4367 C4351 1.377 . S
C4367 C4365 1.389 1_556 S
C4367 C4368 1.524 . S
C4368 C4367 1.524 . S
C4368 C4369 1.397 . S
C4368 C4373 1.363 . S
C4369 H4340 0.950 . S
C4369 C4368 1.397 . S
C4369 C4370 1.334 . S
C4370 H4341 0.950 . S
C4370 C4369 1.334 . S
C4370 C4371 1.287 . S
C4371 C4370 1.287 . S
C4371 C4372 1.524 . S
C4371 H4374 0.999 . S
C4372 H4342 0.950 . S
C4372 C4371 1.524 . S
C4372 C4373 1.415 . S
C4373 H4343 0.950 . S
C4373 C4368 1.363 . S
C4373 C4372 1.415 . S
H4374 C4371 0.999 . S
H4375 C4356 0.913 . S
H4376 C4394 0.951 . S
H4377 C4396 0.951 . S
H4378 C4398 0.950 . S
H4379 C4399 0.950 . S
H4380 C4401 0.950 . S
H4381 C4404 0.950 . S
H4382 C4405 0.950 . S
H4383 C4407 0.950 . S
H4384 C4408 0.950 . S
H4385 C4409 0.951 . S
H4386 C4411 0.951 . S
H4387 C4413 0.950 . S
H4388 C4414 0.950 . S
H4389 C4416 0.950 . S
H4390 C4419 0.950 . S
H4391 C4420 0.950 . S
H4392 C4422 0.950 . S
H4393 C4423 0.950 . S
C4394 H4376 0.951 . S
C4394 C4395 1.366 . S
C4394 C4396 1.388 . S
C4395 C4394 1.366 . S
C4395 C4399 1.385 . S
C4396 H4377 0.951 . S
C4396 C4394 1.388 . S
C4396 C4397 1.366 . S
C4397 C4396 1.366 . S
C4397 C4398 1.414 . S
C4397 C4400 1.499 . S
C4398 H4378 0.950 . S
C4398 C4397 1.414 . S
C4398 C4399 1.374 . S
C4399 H4379 0.950 . S
C4399 C4395 1.385 . S
C4399 C4398 1.374 . S
C4400 C4397 1.499 . S
C4400 C4401 1.373 . S
C4400 C4402 1.389 . S
C4401 H4380 0.950 . S
C4401 C4400 1.373 . S
C4401 C4417 1.377 . S
C4402 C4400 1.389 . S
C4402 C4403 1.524 . S
C4402 C4416 1.377 . S
C4403 C4402 1.524 . S
C4403 C4404 1.397 . S
C4403 C4408 1.363 . S
C4404 H4381 0.950 . S
C4404 C4403 1.397 . S
C4404 C4405 1.334 . S
C4405 H4382 0.950 . S
C4405 C4404 1.334 . S
C4405 C4406 1.287 . S
C4406 C4405 1.287 . S
C4406 C4407 1.524 . S
C4406 H4425 0.913 . S
C4407 H4383 0.950 . S
C4407 C4406 1.524 . S
C4407 C4408 1.415 . S
C4408 H4384 0.950 . S
C4408 C4403 1.363 . S
C4408 C4407 1.415 . S
C4409 H4385 0.951 . S
C4409 C4410 1.366 . S
C4409 C4411 1.388 . S
C4410 C4409 1.366 . S
C4410 C4414 1.385 . S
C4411 H4386 0.951 . S
C4411 C4409 1.388 . S
C4411 C4412 1.366 . S
C4412 C4411 1.366 . S
C4412 C4413 1.414 . S
C4412 C4415 1.499 . S
C4413 H4387 0.950 . S
C4413 C4412 1.414 . S
C4413 C4414 1.374 . S
C4414 H4388 0.950 . S
C4414 C4410 1.385 . S
C4414 C4413 1.374 . S
C4415 C4412 1.499 . S
C4415 C4416 1.373 . S
C4415 C4417 1.389 . S
C4416 H4389 0.950 . S
C4416 C4402 1.377 . S
C4416 C4415 1.373 . S
C4417 C4401 1.377 . S
C4417 C4415 1.389 . S
C4417 C4418 1.524 . S
C4418 C4417 1.524 . S
C4418 C4419 1.397 . S
C4418 C4423 1.363 . S
C4419 H4390 0.950 . S
C4419 C4418 1.397 . S
C4419 C4420 1.334 . S
C4420 H4391 0.950 . S
C4420 C4419 1.334 . S
C4420 C4421 1.287 . S
C4421 C4420 1.287 . S
C4421 C4422 1.524 . S
C4421 H4424 0.999 . S
C4422 H4392 0.950 . S
C4422 C4421 1.524 . S
C4422 C4423 1.415 . S
C4423 H4393 0.950 . S
C4423 C4418 1.363 . S
C4423 C4422 1.415 . S
H4424 C4421 0.999 . S
H4425 C4406 0.913 . S
H4426 C4444 0.951 . S
H4427 C4446 0.951 . S
H4428 C4448 0.950 . S
H4429 C4449 0.950 . S
H4430 C4451 0.950 . S
H4431 C4454 0.950 . S
H4432 C4455 0.950 . S
H4433 C4457 0.950 . S
H4434 C4458 0.950 . S
H4435 C4459 0.951 . S
H4436 C4461 0.951 . S
H4437 C4463 0.950 . S
H4438 C4464 0.950 . S
H4439 C4466 0.950 . S
H4440 C4469 0.950 . S
H4441 C4470 0.950 1_556 S
H4442 C4472 0.950 . S
H4443 C4473 0.950 . S
C4444 H4426 0.951 . S
C4444 C4445 1.366 . S
C4444 C4446 1.388 . S
C4445 C4444 1.366 . S
C4445 C4449 1.385 . S
C4446 H4427 0.951 . S
C4446 C4444 1.388 . S
C4446 C4447 1.366 . S
C4447 C4446 1.366 . S
C4447 C4448 1.414 . S
C4447 C4450 1.499 . S
C4448 H4428 0.950 . S
C4448 C4447 1.414 . S
C4448 C4449 1.374 . S
C4449 H4429 0.950 . S
C4449 C4445 1.385 . S
C4449 C4448 1.374 . S
C4450 C4447 1.499 . S
C4450 C4451 1.373 . S
C4450 C4452 1.389 . S
C4451 H4430 0.950 . S
C4451 C4450 1.373 . S
C4451 C4467 1.377 . S
C4452 C4450 1.389 . S
C4452 C4453 1.524 . S
C4452 C4466 1.377 . S
C4453 C4452 1.524 . S
C4453 C4454 1.397 . S
C4453 C4458 1.363 . S
C4454 H4431 0.950 . S
C4454 C4453 1.397 . S
C4454 C4455 1.334 . S
C4455 H4432 0.950 . S
C4455 C4454 1.334 . S
C4455 C4456 1.287 . S
C4456 C4455 1.287 . S
C4456 C4457 1.524 . S
C4456 H4475 0.913 . S
C4457 H4433 0.950 . S
C4457 C4456 1.524 . S
C4457 C4458 1.415 . S
C4458 H4434 0.950 . S
C4458 C4453 1.363 . S
C4458 C4457 1.415 . S
C4459 H4435 0.951 . S
C4459 C4460 1.366 . S
C4459 C4461 1.388 . S
C4460 C4459 1.366 . S
C4460 C4464 1.385 . S
C4461 H4436 0.951 . S
C4461 C4459 1.388 . S
C4461 C4462 1.366 . S
C4462 C4461 1.366 . S
C4462 C4463 1.414 . S
C4462 C4465 1.499 . S
C4463 H4437 0.950 . S
C4463 C4462 1.414 . S
C4463 C4464 1.374 . S
C4464 H4438 0.950 . S
C4464 C4460 1.385 . S
C4464 C4463 1.374 . S
C4465 C4462 1.499 . S
C4465 C4466 1.373 . S
C4465 C4467 1.389 . S
C4466 H4439 0.950 . S
C4466 C4452 1.377 . S
C4466 C4465 1.373 . S
C4467 C4451 1.377 . S
C4467 C4465 1.389 . S
C4467 C4468 1.524 . S
C4468 C4467 1.524 . S
C4468 C4469 1.397 . S
C4468 C4473 1.363 . S
C4469 H4440 0.950 . S
C4469 C4468 1.397 . S
C4469 C4470 1.334 . S
C4470 H4441 0.950 1_554 S
C4470 C4469 1.334 . S
C4470 C4471 1.287 . S
C4471 C4470 1.287 . S
C4471 C4472 1.524 . S
C4471 H4474 0.999 . S
C4472 H4442 0.950 . S
C4472 C4471 1.524 . S
C4472 C4473 1.415 . S
C4473 H4443 0.950 . S
C4473 C4468 1.363 . S
C4473 C4472 1.415 . S
H4474 C4471 0.999 . S
H4475 C4456 0.913 . S
H4476 C4494 0.951 . S
H4477 C4496 0.951 . S
H4478 C4498 0.950 . S
H4479 C4499 0.950 . S
H4480 C4501 0.950 . S
H4481 C4504 0.950 . S
H4482 C4505 0.950 . S
H4483 C4507 0.950 . S
H4484 C4508 0.950 . S
H4485 C4509 0.951 . S
H4486 C4511 0.951 . S
H4487 C4513 0.950 . S
H4488 C4514 0.950 . S
H4489 C4516 0.950 . S
H4490 C4519 0.950 . S
H4491 C4520 0.950 . S
H4492 C4522 0.950 . S
H4493 C4523 0.950 . S
C4494 H4476 0.951 . S
C4494 C4495 1.366 . S
C4494 C4496 1.388 . S
C4495 C4494 1.366 . S
C4495 C4499 1.385 . S
C4496 H4477 0.951 . S
C4496 C4494 1.388 . S
C4496 C4497 1.366 . S
C4497 C4496 1.366 . S
C4497 C4498 1.414 . S
C4497 C4500 1.499 . S
C4498 H4478 0.950 . S
C4498 C4497 1.414 . S
C4498 C4499 1.374 . S
C4499 H4479 0.950 . S
C4499 C4495 1.385 . S
C4499 C4498 1.374 . S
C4500 C4497 1.499 . S
C4500 C4501 1.373 . S
C4500 C4502 1.389 . S
C4501 H4480 0.950 . S
C4501 C4500 1.373 . S
C4501 C4517 1.377 . S
C4502 C4500 1.389 . S
C4502 C4503 1.524 . S
C4502 C4516 1.377 . S
C4503 C4502 1.524 . S
C4503 C4504 1.397 . S
C4503 C4508 1.363 . S
C4504 H4481 0.950 . S
C4504 C4503 1.397 . S
C4504 C4505 1.334 . S
C4505 H4482 0.950 . S
C4505 C4504 1.334 . S
C4505 C4506 1.287 . S
C4506 C4505 1.287 . S
C4506 C4507 1.524 . S
C4506 H4525 0.913 . S
C4507 H4483 0.950 . S
C4507 C4506 1.524 . S
C4507 C4508 1.415 . S
C4508 H4484 0.950 . S
C4508 C4503 1.363 . S
C4508 C4507 1.415 . S
C4509 H4485 0.951 . S
C4509 C4510 1.366 . S
C4509 C4511 1.388 . S
C4510 C4509 1.366 . S
C4510 C4514 1.385 . S
C4511 H4486 0.951 . S
C4511 C4509 1.388 . S
C4511 C4512 1.366 . S
C4512 C4511 1.366 . S
C4512 C4513 1.414 . S
C4512 C4515 1.499 . S
C4513 H4487 0.950 . S
C4513 C4512 1.414 . S
C4513 C4514 1.374 . S
C4514 H4488 0.950 . S
C4514 C4510 1.385 . S
C4514 C4513 1.374 . S
C4515 C4512 1.499 . S
C4515 C4516 1.373 . S
C4515 C4517 1.389 . S
C4516 H4489 0.950 . S
C4516 C4502 1.377 . S
C4516 C4515 1.373 . S
C4517 C4501 1.377 . S
C4517 C4515 1.389 . S
C4517 C4518 1.524 . S
C4518 C4517 1.524 . S
C4518 C4519 1.397 . S
C4518 C4523 1.363 . S
C4519 H4490 0.950 . S
C4519 C4518 1.397 . S
C4519 C4520 1.334 . S
C4520 H4491 0.950 . S
C4520 C4519 1.334 . S
C4520 C4521 1.287 . S
C4521 C4520 1.287 . S
C4521 C4522 1.524 . S
C4521 H4524 0.999 . S
C4522 H4492 0.950 . S
C4522 C4521 1.524 . S
C4522 C4523 1.415 . S
C4523 H4493 0.950 . S
C4523 C4518 1.363 . S
C4523 C4522 1.415 . S
H4524 C4521 0.999 . S
H4525 C4506 0.913 . S
H4526 C4544 0.951 . S
H4527 C4546 0.951 . S
H4528 C4548 0.950 . S
H4529 C4549 0.950 . S
H4530 C4551 0.950 . S
H4531 C4554 0.950 . S
H4532 C4555 0.950 . S
H4533 C4557 0.950 . S
H4534 C4558 0.950 . S
H4535 C4559 0.951 . S
H4536 C4561 0.951 . S
H4537 C4563 0.950 . S
H4538 C4564 0.950 . S
H4539 C4566 0.950 . S
H4540 C4569 0.950 . S
H4541 C4570 0.950 . S
H4542 C4572 0.950 . S
H4543 C4573 0.950 . S
C4544 H4526 0.951 . S
C4544 C4545 1.366 . S
C4544 C4546 1.388 . S
C4545 C4544 1.366 . S
C4545 C4549 1.385 . S
C4546 H4527 0.951 . S
C4546 C4544 1.388 . S
C4546 C4547 1.366 . S
C4547 C4546 1.366 . S
C4547 C4548 1.414 . S
C4547 C4550 1.499 . S
C4548 H4528 0.950 . S
C4548 C4547 1.414 . S
C4548 C4549 1.374 . S
C4549 H4529 0.950 . S
C4549 C4545 1.385 . S
C4549 C4548 1.374 . S
C4550 C4547 1.499 . S
C4550 C4551 1.373 . S
C4550 C4552 1.389 . S
C4551 H4530 0.950 . S
C4551 C4550 1.373 . S
C4551 C4567 1.377 . S
C4552 C4550 1.389 . S
C4552 C4553 1.524 . S
C4552 C4566 1.377 . S
C4553 C4552 1.524 . S
C4553 C4554 1.397 . S
C4553 C4558 1.363 . S
C4554 H4531 0.950 . S
C4554 C4553 1.397 . S
C4554 C4555 1.334 . S
C4555 H4532 0.950 . S
C4555 C4554 1.334 . S
C4555 C4556 1.287 . S
C4556 C4555 1.287 . S
C4556 C4557 1.524 . S
C4556 H4575 0.913 . S
C4557 H4533 0.950 . S
C4557 C4556 1.524 . S
C4557 C4558 1.415 . S
C4558 H4534 0.950 . S
C4558 C4553 1.363 . S
C4558 C4557 1.415 . S
C4559 H4535 0.951 . S
C4559 C4560 1.366 . S
C4559 C4561 1.388 . S
C4560 C4559 1.366 . S
C4560 C4564 1.385 . S
C4561 H4536 0.951 . S
C4561 C4559 1.388 . S
C4561 C4562 1.366 . S
C4562 C4561 1.366 . S
C4562 C4563 1.414 . S
C4562 C4565 1.499 . S
C4563 H4537 0.950 . S
C4563 C4562 1.414 . S
C4563 C4564 1.374 . S
C4564 H4538 0.950 . S
C4564 C4560 1.385 . S
C4564 C4563 1.374 . S
C4565 C4562 1.499 . S
C4565 C4566 1.373 . S
C4565 C4567 1.389 . S
C4566 H4539 0.950 . S
C4566 C4552 1.377 . S
C4566 C4565 1.373 . S
C4567 C4551 1.377 . S
C4567 C4565 1.389 . S
C4567 C4568 1.524 . S
C4568 C4567 1.524 . S
C4568 C4569 1.397 . S
C4568 C4573 1.363 . S
C4569 H4540 0.950 . S
C4569 C4568 1.397 . S
C4569 C4570 1.334 . S
C4570 H4541 0.950 . S
C4570 C4569 1.334 . S
C4570 C4571 1.287 . S
C4571 C4570 1.287 . S
C4571 C4572 1.524 . S
C4571 H4574 0.999 . S
C4572 H4542 0.950 . S
C4572 C4571 1.524 . S
C4572 C4573 1.415 . S
C4573 H4543 0.950 . S
C4573 C4568 1.363 . S
C4573 C4572 1.415 . S
H4574 C4571 0.999 . S
H4575 C4556 0.913 . S
H4576 C4594 0.951 . S
H4577 C4596 0.951 . S
H4578 C4598 0.950 . S
H4579 C4599 0.950 . S
H4580 C4601 0.950 . S
H4581 C4604 0.950 . S
H4582 C4605 0.950 . S
H4583 C4607 0.950 . S
H4584 C4608 0.950 . S
H4585 C4609 0.951 . S
H4586 C4611 0.951 . S
H4587 C4613 0.950 . S
H4588 C4614 0.950 . S
H4589 C4616 0.950 . S
H4590 C4619 0.950 . S
H4591 C4620 0.950 . S
H4592 C4622 0.950 . S
H4593 C4623 0.950 . S
C4594 H4576 0.951 . S
C4594 C4595 1.366 . S
C4594 C4596 1.388 . S
C4595 C4594 1.366 . S
C4595 C4599 1.385 . S
C4596 H4577 0.951 . S
C4596 C4594 1.388 . S
C4596 C4597 1.366 . S
C4597 C4596 1.366 . S
C4597 C4598 1.414 . S
C4597 C4600 1.499 . S
C4598 H4578 0.950 . S
C4598 C4597 1.414 . S
C4598 C4599 1.374 . S
C4599 H4579 0.950 . S
C4599 C4595 1.385 . S
C4599 C4598 1.374 . S
C4600 C4597 1.499 . S
C4600 C4601 1.373 . S
C4600 C4602 1.389 . S
C4601 H4580 0.950 . S
C4601 C4600 1.373 . S
C4601 C4617 1.377 . S
C4602 C4600 1.389 . S
C4602 C4603 1.524 . S
C4602 C4616 1.377 . S
C4603 C4602 1.524 . S
C4603 C4604 1.397 . S
C4603 C4608 1.363 . S
C4604 H4581 0.950 . S
C4604 C4603 1.397 . S
C4604 C4605 1.334 . S
C4605 H4582 0.950 . S
C4605 C4604 1.334 . S
C4605 C4606 1.287 . S
C4606 C4605 1.287 . S
C4606 C4607 1.524 . S
C4606 H4625 0.913 . S
C4607 H4583 0.950 . S
C4607 C4606 1.524 . S
C4607 C4608 1.415 . S
C4608 H4584 0.950 . S
C4608 C4603 1.363 . S
C4608 C4607 1.415 . S
C4609 H4585 0.951 . S
C4609 C4610 1.366 . S
C4609 C4611 1.388 . S
C4610 C4609 1.366 . S
C4610 C4614 1.385 . S
C4611 H4586 0.951 . S
C4611 C4609 1.388 . S
C4611 C4612 1.366 . S
C4612 C4611 1.366 . S
C4612 C4613 1.414 . S
C4612 C4615 1.499 . S
C4613 H4587 0.950 . S
C4613 C4612 1.414 . S
C4613 C4614 1.374 . S
C4614 H4588 0.950 . S
C4614 C4610 1.385 . S
C4614 C4613 1.374 . S
C4615 C4612 1.499 . S
C4615 C4616 1.373 . S
C4615 C4617 1.389 . S
C4616 H4589 0.950 . S
C4616 C4602 1.377 . S
C4616 C4615 1.373 . S
C4617 C4601 1.377 . S
C4617 C4615 1.389 . S
C4617 C4618 1.524 . S
C4618 C4617 1.524 . S
C4618 C4619 1.397 . S
C4618 C4623 1.363 . S
C4619 H4590 0.950 . S
C4619 C4618 1.397 . S
C4619 C4620 1.334 . S
C4620 H4591 0.950 . S
C4620 C4619 1.334 . S
C4620 C4621 1.287 . S
C4621 C4620 1.287 . S
C4621 C4622 1.524 . S
C4621 H4624 0.999 . S
C4622 H4592 0.950 . S
C4622 C4621 1.524 . S
C4622 C4623 1.415 . S
C4623 H4593 0.950 . S
C4623 C4618 1.363 . S
C4623 C4622 1.415 . S
H4624 C4621 0.999 . S
H4625 C4606 0.913 . S
H4626 C4644 0.951 . S
H4627 C4646 0.951 . S
H4628 C4648 0.950 . S
H4629 C4649 0.950 . S
H4630 C4651 0.950 . S
H4631 C4654 0.950 . S
H4632 C4655 0.950 . S
H4633 C4657 0.950 . S
H4634 C4658 0.950 . S
H4635 C4659 0.951 . S
H4636 C4661 0.951 . S
H4637 C4663 0.950 . S
H4638 C4664 0.950 . S
H4639 C4666 0.950 . S
H4640 C4669 0.950 . S
H4641 C4670 0.950 . S
H4642 C4672 0.950 . S
H4643 C4673 0.950 . S
C4644 H4626 0.951 . S
C4644 C4645 1.366 . S
C4644 C4646 1.388 . S
C4645 C4644 1.366 . S
C4645 C4649 1.385 . S
C4646 H4627 0.951 . S
C4646 C4644 1.388 . S
C4646 C4647 1.366 . S
C4647 C4646 1.366 . S
C4647 C4648 1.414 . S
C4647 C4650 1.499 . S
C4648 H4628 0.950 . S
C4648 C4647 1.414 . S
C4648 C4649 1.374 . S
C4649 H4629 0.950 . S
C4649 C4645 1.385 . S
C4649 C4648 1.374 . S
C4650 C4647 1.499 . S
C4650 C4651 1.373 . S
C4650 C4652 1.389 . S
C4651 H4630 0.950 . S
C4651 C4650 1.373 . S
C4651 C4667 1.377 . S
C4652 C4650 1.389 . S
C4652 C4653 1.524 . S
C4652 C4666 1.377 . S
C4653 C4652 1.524 . S
C4653 C4654 1.397 . S
C4653 C4658 1.363 . S
C4654 H4631 0.950 . S
C4654 C4653 1.397 . S
C4654 C4655 1.334 . S
C4655 H4632 0.950 . S
C4655 C4654 1.334 . S
C4655 C4656 1.287 . S
C4656 C4655 1.287 . S
C4656 C4657 1.524 . S
C4656 H4675 0.913 . S
C4657 H4633 0.950 . S
C4657 C4656 1.524 . S
C4657 C4658 1.415 . S
C4658 H4634 0.950 . S
C4658 C4653 1.363 . S
C4658 C4657 1.415 . S
C4659 H4635 0.951 . S
C4659 C4660 1.366 . S
C4659 C4661 1.388 . S
C4660 C4659 1.366 . S
C4660 C4664 1.385 . S
C4661 H4636 0.951 . S
C4661 C4659 1.388 . S
C4661 C4662 1.366 . S
C4662 C4661 1.366 . S
C4662 C4663 1.414 . S
C4662 C4665 1.499 . S
C4663 H4637 0.950 . S
C4663 C4662 1.414 . S
C4663 C4664 1.374 . S
C4664 H4638 0.950 . S
C4664 C4660 1.385 . S
C4664 C4663 1.374 . S
C4665 C4662 1.499 . S
C4665 C4666 1.373 . S
C4665 C4667 1.389 . S
C4666 H4639 0.950 . S
C4666 C4652 1.377 . S
C4666 C4665 1.373 . S
C4667 C4651 1.377 . S
C4667 C4665 1.389 . S
C4667 C4668 1.524 . S
C4668 C4667 1.524 . S
C4668 C4669 1.397 . S
C4668 C4673 1.363 . S
C4669 H4640 0.950 . S
C4669 C4668 1.397 . S
C4669 C4670 1.334 . S
C4670 H4641 0.950 . S
C4670 C4669 1.334 . S
C4670 C4671 1.287 . S
C4671 C4670 1.287 . S
C4671 C4672 1.524 . S
C4671 H4674 0.999 . S
C4672 H4642 0.950 . S
C4672 C4671 1.524 . S
C4672 C4673 1.415 . S
C4673 H4643 0.950 . S
C4673 C4668 1.363 . S
C4673 C4672 1.415 . S
H4674 C4671 0.999 . S
H4675 C4656 0.913 . S
H4676 C4694 0.951 . S
H4677 C4696 0.951 . S
H4678 C4698 0.950 . S
H4679 C4699 0.950 . S
H4680 C4701 0.950 . S
H4681 C4704 0.950 . S
H4682 C4705 0.950 . S
H4683 C4707 0.950 . S
H4684 C4708 0.950 . S
H4685 C4709 0.951 . S
H4686 C4711 0.951 . S
H4687 C4713 0.950 . S
H4688 C4714 0.950 . S
H4689 C4716 0.950 . S
H4690 C4719 0.954 . S
H4691 C4720 0.950 . S
H4692 C4722 0.958 . S
H4693 C4723 0.950 . S
C4694 H4676 0.951 . S
C4694 C4695 1.366 . S
C4694 C4696 1.388 . S
C4695 C4694 1.366 . S
C4695 C4699 1.385 . S
C4696 H4677 0.951 . S
C4696 C4694 1.388 . S
C4696 C4697 1.366 . S
C4697 C4696 1.366 . S
C4697 C4698 1.414 . S
C4697 C4700 1.499 . S
C4698 H4678 0.950 . S
C4698 C4697 1.414 . S
C4698 C4699 1.374 . S
C4699 H4679 0.950 . S
C4699 C4695 1.385 . S
C4699 C4698 1.374 . S
C4700 C4697 1.499 . S
C4700 C4701 1.373 . S
C4700 C4702 1.389 . S
C4701 H4680 0.950 . S
C4701 C4700 1.373 . S
C4701 C4717 1.377 . S
C4702 C4700 1.389 . S
C4702 C4703 1.524 . S
C4702 C4716 1.377 . S
C4703 C4702 1.524 . S
C4703 C4704 1.397 . S
C4703 C4708 1.363 . S
C4704 H4681 0.950 . S
C4704 C4703 1.397 . S
C4704 C4705 1.334 . S
C4705 H4682 0.950 . S
C4705 C4704 1.334 . S
C4705 C4706 1.287 . S
C4706 C4705 1.287 . S
C4706 C4707 1.524 . S
C4706 H4725 0.913 . S
C4707 H4683 0.950 . S
C4707 C4706 1.524 . S
C4707 C4708 1.415 . S
C4708 H4684 0.950 . S
C4708 C4703 1.363 . S
C4708 C4707 1.415 . S
C4709 H4685 0.951 . S
C4709 C4710 1.366 . S
C4709 C4711 1.388 . S
C4710 C4709 1.366 . S
C4710 C4714 1.385 . S
C4711 H4686 0.951 . S
C4711 C4709 1.388 . S
C4711 C4712 1.366 . S
C4712 C4711 1.366 . S
C4712 C4713 1.414 . S
C4712 C4715 1.499 . S
C4713 H4687 0.950 . S
C4713 C4712 1.414 . S
C4713 C4714 1.374 . S
C4714 H4688 0.950 . S
C4714 C4710 1.385 . S
C4714 C4713 1.374 . S
C4715 C4712 1.499 . S
C4715 C4716 1.373 . S
C4715 C4717 1.389 . S
C4716 H4689 0.950 . S
C4716 C4702 1.377 . S
C4716 C4715 1.373 . S
C4717 C4701 1.377 . S
C4717 C4715 1.389 . S
C4717 C4718 1.524 . S
C4718 C4717 1.524 . S
C4718 C4719 1.383 1_455 S
C4718 C4723 1.363 . S
C4719 H4690 0.954 . S
C4719 C4718 1.383 1_655 S
C4719 C4720 1.344 . S
C4720 H4691 0.950 . S
C4720 C4719 1.344 . S
C4720 C4721 1.287 . S
C4721 C4720 1.287 . S
C4721 C4722 1.521 1_654 S
C4721 H4724 0.999 1_554 S
C4722 H4692 0.958 . S
C4722 C4721 1.521 1_456 S
C4722 C4723 1.407 1_556 S
C4723 H4693 0.950 . S
C4723 C4718 1.363 . S
C4723 C4722 1.407 1_554 S
H4724 C4721 0.999 1_556 S
H4725 C4706 0.913 . S
H4726 C4744 0.951 . S
H4727 C4746 0.951 . S
H4728 C4748 0.950 . S
H4729 C4749 0.950 . S
H4730 C4751 0.950 . S
H4731 C4754 0.950 . S
H4732 C4755 0.950 . S
H4733 C4757 0.950 . S
H4734 C4758 0.950 . S
H4735 C4759 0.951 . S
H4736 C4761 0.951 . S
H4737 C4763 0.950 . S
H4738 C4764 0.950 . S
H4739 C4766 0.950 . S
H4740 C4769 0.950 . S
H4741 C4770 0.950 . S
H4742 C4772 0.950 . S
H4743 C4773 0.950 . S
C4744 H4726 0.951 . S
C4744 C4745 1.366 . S
C4744 C4746 1.388 . S
C4745 C4744 1.366 . S
C4745 C4749 1.385 . S
C4746 H4727 0.951 . S
C4746 C4744 1.388 . S
C4746 C4747 1.366 . S
C4747 C4746 1.366 . S
C4747 C4748 1.414 . S
C4747 C4750 1.499 . S
C4748 H4728 0.950 . S
C4748 C4747 1.414 . S
C4748 C4749 1.374 . S
C4749 H4729 0.950 . S
C4749 C4745 1.385 . S
C4749 C4748 1.374 . S
C4750 C4747 1.499 . S
C4750 C4751 1.373 . S
C4750 C4752 1.389 . S
C4751 H4730 0.950 . S
C4751 C4750 1.373 . S
C4751 C4767 1.377 . S
C4752 C4750 1.389 . S
C4752 C4753 1.524 . S
C4752 C4766 1.377 . S
C4753 C4752 1.524 . S
C4753 C4754 1.397 . S
C4753 C4758 1.363 . S
C4754 H4731 0.950 . S
C4754 C4753 1.397 . S
C4754 C4755 1.334 . S
C4755 H4732 0.950 . S
C4755 C4754 1.334 . S
C4755 C4756 1.287 . S
C4756 C4755 1.287 . S
C4756 C4757 1.524 . S
C4756 H4775 0.913 . S
C4757 H4733 0.950 . S
C4757 C4756 1.524 . S
C4757 C4758 1.415 . S
C4758 H4734 0.950 . S
C4758 C4753 1.363 . S
C4758 C4757 1.415 . S
C4759 H4735 0.951 . S
C4759 C4760 1.366 . S
C4759 C4761 1.388 . S
C4760 C4759 1.366 . S
C4760 C4764 1.385 . S
C4761 H4736 0.951 . S
C4761 C4759 1.388 . S
C4761 C4762 1.366 . S
C4762 C4761 1.366 . S
C4762 C4763 1.414 . S
C4762 C4765 1.499 . S
C4763 H4737 0.950 . S
C4763 C4762 1.414 . S
C4763 C4764 1.374 . S
C4764 H4738 0.950 . S
C4764 C4760 1.385 . S
C4764 C4763 1.374 . S
C4765 C4762 1.499 . S
C4765 C4766 1.373 . S
C4765 C4767 1.389 . S
C4766 H4739 0.950 . S
C4766 C4752 1.377 . S
C4766 C4765 1.373 . S
C4767 C4751 1.377 . S
C4767 C4765 1.389 . S
C4767 C4768 1.524 . S
C4768 C4767 1.524 . S
C4768 C4769 1.397 . S
C4768 C4773 1.363 . S
C4769 H4740 0.950 . S
C4769 C4768 1.397 . S
C4769 C4770 1.334 . S
C4770 H4741 0.950 . S
C4770 C4769 1.334 . S
C4770 C4771 1.287 . S
C4771 C4770 1.287 . S
C4771 C4772 1.524 . S
C4771 H4774 0.999 . S
C4772 H4742 0.950 . S
C4772 C4771 1.524 . S
C4772 C4773 1.415 . S
C4773 H4743 0.950 . S
C4773 C4768 1.363 . S
C4773 C4772 1.415 . S
H4774 C4771 0.999 . S
H4775 C4756 0.913 . S
H4776 C4794 0.951 . S
H4777 C4796 0.951 . S
H4778 C4798 0.950 . S
H4779 C4799 0.950 . S
H4780 C4801 0.950 . S
H4781 C4804 0.950 . S
H4782 C4805 0.950 . S
H4783 C4807 0.950 . S
H4784 C4808 0.950 . S
H4785 C4809 0.951 . S
H4786 C4811 0.951 . S
H4787 C4813 0.950 . S
H4788 C4814 0.950 . S
H4789 C4816 0.950 . S
H4790 C4819 0.950 . S
H4791 C4820 0.950 . S
H4792 C4822 0.952 1_554 S
H4793 C4823 0.950 . S
C4794 H4776 0.951 . S
C4794 C4795 1.366 . S
C4794 C4796 1.388 . S
C4795 C4794 1.366 . S
C4795 C4799 1.385 . S
C4796 H4777 0.951 . S
C4796 C4794 1.388 . S
C4796 C4797 1.366 . S
C4797 C4796 1.366 . S
C4797 C4798 1.414 . S
C4797 C4800 1.499 . S
C4798 H4778 0.950 . S
C4798 C4797 1.414 . S
C4798 C4799 1.374 . S
C4799 H4779 0.950 . S
C4799 C4795 1.385 . S
C4799 C4798 1.374 . S
C4800 C4797 1.499 . S
C4800 C4801 1.373 . S
C4800 C4802 1.389 . S
C4801 H4780 0.950 . S
C4801 C4800 1.373 . S
C4801 C4817 1.377 . S
C4802 C4800 1.389 . S
C4802 C4803 1.524 . S
C4802 C4816 1.377 . S
C4803 C4802 1.524 . S
C4803 C4804 1.397 . S
C4803 C4808 1.363 . S
C4804 H4781 0.950 . S
C4804 C4803 1.397 . S
C4804 C4805 1.334 . S
C4805 H4782 0.950 . S
C4805 C4804 1.334 . S
C4805 C4806 1.287 . S
C4806 C4805 1.287 . S
C4806 C4807 1.524 . S
C4806 H4825 0.913 . S
C4807 H4783 0.950 . S
C4807 C4806 1.524 . S
C4807 C4808 1.415 . S
C4808 H4784 0.950 . S
C4808 C4803 1.363 . S
C4808 C4807 1.415 . S
C4809 H4785 0.951 . S
C4809 C4810 1.366 . S
C4809 C4811 1.388 . S
C4810 C4809 1.366 . S
C4810 C4814 1.385 . S
C4811 H4786 0.951 . S
C4811 C4809 1.388 . S
C4811 C4812 1.366 . S
C4812 C4811 1.366 . S
C4812 C4813 1.414 . S
C4812 C4815 1.499 . S
C4813 H4787 0.950 . S
C4813 C4812 1.414 . S
C4813 C4814 1.374 . S
C4814 H4788 0.950 . S
C4814 C4810 1.385 . S
C4814 C4813 1.374 . S
C4815 C4812 1.499 . S
C4815 C4816 1.373 . S
C4815 C4817 1.389 . S
C4816 H4789 0.950 . S
C4816 C4802 1.377 . S
C4816 C4815 1.373 . S
C4817 C4801 1.377 . S
C4817 C4815 1.389 . S
C4817 C4818 1.524 . S
C4818 C4817 1.524 . S
C4818 C4819 1.397 . S
C4818 C4823 1.363 . S
C4819 H4790 0.950 . S
C4819 C4818 1.397 . S
C4819 C4820 1.334 . S
C4820 H4791 0.950 . S
C4820 C4819 1.334 . S
C4820 C4821 1.315 . S
C4821 C4820 1.315 . S
C4821 C4822 1.522 . S
C4821 H4824 0.967 1_556 S
C4822 H4792 0.952 1_556 S
C4822 C4821 1.522 . S
C4822 C4823 1.413 . S
C4823 H4793 0.950 . S
C4823 C4818 1.363 . S
C4823 C4822 1.413 . S
H4824 C4821 0.967 1_554 S
H4825 C4806 0.913 . S
H4826 C4844 0.951 . S
H4827 C4846 0.951 . S
H4828 C4848 0.950 . S
H4829 C4849 0.950 . S
H4830 C4851 0.950 . S
H4831 C4854 0.950 . S
H4832 C4855 0.950 . S
H4833 C4857 0.950 . S
H4834 C4858 0.950 . S
H4835 C4859 0.951 . S
H4836 C4861 0.951 . S
H4837 C4863 0.950 . S
H4838 C4864 0.950 . S
H4839 C4866 0.950 . S
H4840 C4869 0.950 . S
H4841 C4870 0.950 . S
H4842 C4872 0.950 . S
H4843 C4873 0.950 . S
C4844 H4826 0.951 . S
C4844 C4845 1.366 . S
C4844 C4846 1.388 . S
C4845 C4844 1.366 . S
C4845 C4849 1.385 . S
C4846 H4827 0.951 . S
C4846 C4844 1.388 . S
C4846 C4847 1.366 . S
C4847 C4846 1.366 . S
C4847 C4848 1.414 . S
C4847 C4850 1.499 . S
C4848 H4828 0.950 . S
C4848 C4847 1.414 . S
C4848 C4849 1.374 . S
C4849 H4829 0.950 . S
C4849 C4845 1.385 . S
C4849 C4848 1.374 . S
C4850 C4847 1.499 . S
C4850 C4851 1.373 . S
C4850 C4852 1.389 . S
C4851 H4830 0.950 . S
C4851 C4850 1.373 . S
C4851 C4867 1.377 . S
C4852 C4850 1.389 . S
C4852 C4853 1.524 . S
C4852 C4866 1.377 . S
C4853 C4852 1.524 . S
C4853 C4854 1.397 . S
C4853 C4858 1.363 . S
C4854 H4831 0.950 . S
C4854 C4853 1.397 . S
C4854 C4855 1.334 . S
C4855 H4832 0.950 . S
C4855 C4854 1.334 . S
C4855 C4856 1.287 . S
C4856 C4855 1.287 . S
C4856 C4857 1.524 . S
C4856 H4875 0.913 . S
C4857 H4833 0.950 . S
C4857 C4856 1.524 . S
C4857 C4858 1.415 . S
C4858 H4834 0.950 . S
C4858 C4853 1.363 . S
C4858 C4857 1.415 . S
C4859 H4835 0.951 . S
C4859 C4860 1.366 . S
C4859 C4861 1.388 . S
C4860 C4859 1.366 . S
C4860 C4864 1.385 . S
C4861 H4836 0.951 . S
C4861 C4859 1.388 . S
C4861 C4862 1.366 . S
C4862 C4861 1.366 . S
C4862 C4863 1.414 . S
C4862 C4865 1.499 . S
C4863 H4837 0.950 . S
C4863 C4862 1.414 . S
C4863 C4864 1.374 . S
C4864 H4838 0.950 . S
C4864 C4860 1.385 . S
C4864 C4863 1.374 . S
C4865 C4862 1.499 . S
C4865 C4866 1.373 . S
C4865 C4867 1.389 . S
C4866 H4839 0.950 . S
C4866 C4852 1.377 . S
C4866 C4865 1.373 . S
C4867 C4851 1.377 . S
C4867 C4865 1.389 . S
C4867 C4868 1.524 . S
C4868 C4867 1.524 . S
C4868 C4869 1.397 . S
C4868 C4873 1.363 . S
C4869 H4840 0.950 . S
C4869 C4868 1.397 . S
C4869 C4870 1.334 . S
C4870 H4841 0.950 . S
C4870 C4869 1.334 . S
C4870 C4871 1.287 . S
C4871 C4870 1.287 . S
C4871 C4872 1.524 . S
C4871 H4874 0.999 . S
C4872 H4842 0.950 . S
C4872 C4871 1.524 . S
C4872 C4873 1.415 . S
C4873 H4843 0.950 . S
C4873 C4868 1.363 . S
C4873 C4872 1.415 . S
H4874 C4871 0.999 . S
H4875 C4856 0.913 . S
H4876 C4894 0.951 . S
H4877 C4896 0.951 . S
H4878 C4898 0.950 1_655 S
H4879 C4899 0.982 . S
H4880 C4901 0.930 1_655 S
H4881 C4904 0.950 . S
H4882 C4905 0.950 . S
H4883 C4907 0.950 . S
H4884 C4908 0.950 . S
H4885 C4909 0.951 . S
H4886 C4911 0.951 . S
H4887 C4913 0.950 . S
H4888 C4914 0.950 . S
H4889 C4916 0.950 . S
H4890 C4919 0.950 . S
H4891 C4920 0.950 . S
H4892 C4922 0.950 . S
H4893 C4923 0.950 . S
C4894 H4876 0.951 . S
C4894 C4895 1.366 . S
C4894 C4896 1.388 . S
C4895 C4894 1.366 . S
C4895 C4899 1.347 1_455 S
C4896 H4877 0.951 . S
C4896 C4894 1.388 . S
C4896 C4897 1.366 . S
C4897 C4896 1.366 . S
C4897 C4898 1.414 . S
C4897 C4900 1.499 . S
C4898 H4878 0.950 1_455 S
C4898 C4897 1.414 . S
C4898 C4899 1.383 1_455 S
C4899 H4879 0.982 . S
C4899 C4895 1.347 1_655 S
C4899 C4898 1.383 1_655 S
C4900 C4897 1.499 . S
C4900 C4901 1.398 . S
C4900 C4902 1.389 . S
C4901 H4880 0.930 1_455 S
C4901 C4900 1.398 . S
C4901 C4917 1.373 . S
C4902 C4900 1.389 . S
C4902 C4903 1.524 . S
C4902 C4916 1.377 . S
C4903 C4902 1.524 . S
C4903 C4904 1.397 . S
C4903 C4908 1.363 . S
C4904 H4881 0.950 . S
C4904 C4903 1.397 . S
C4904 C4905 1.334 . S
C4905 H4882 0.950 . S
C4905 C4904 1.334 . S
C4905 C4906 1.287 . S
C4906 C4905 1.287 . S
C4906 C4907 1.524 . S
C4906 H4925 0.913 . S
C4907 H4883 0.950 . S
C4907 C4906 1.524 . S
C4907 C4908 1.415 . S
C4908 H4884 0.950 . S
C4908 C4903 1.363 . S
C4908 C4907 1.415 . S
C4909 H4885 0.951 . S
C4909 C4910 1.366 . S
C4909 C4911 1.388 . S
C4910 C4909 1.366 . S
C4910 C4914 1.385 . S
C4911 H4886 0.951 . S
C4911 C4909 1.388 . S
C4911 C4912 1.366 . S
C4912 C4911 1.366 . S
C4912 C4913 1.414 . S
C4912 C4915 1.499 . S
C4913 H4887 0.950 . S
C4913 C4912 1.414 . S
C4913 C4914 1.374 . S
C4914 H4888 0.950 . S
C4914 C4910 1.385 . S
C4914 C4913 1.374 . S
C4915 C4912 1.499 . S
C4915 C4916 1.373 . S
C4915 C4917 1.389 . S
C4916 H4889 0.950 . S
C4916 C4902 1.377 . S
C4916 C4915 1.373 . S
C4917 C4901 1.373 . S
C4917 C4915 1.389 . S
C4917 C4918 1.524 1_455 S
C4918 C4917 1.524 1_655 S
C4918 C4919 1.397 . S
C4918 C4923 1.363 . S
C4919 H4890 0.950 . S
C4919 C4918 1.397 . S
C4919 C4920 1.334 . S
C4920 H4891 0.950 . S
C4920 C4919 1.334 . S
C4920 C4921 1.287 . S
C4921 C4920 1.287 . S
C4921 C4922 1.524 . S
C4921 H4924 0.999 . S
C4922 H4892 0.950 . S
C4922 C4921 1.524 . S
C4922 C4923 1.415 . S
C4923 H4893 0.950 . S
C4923 C4918 1.363 . S
C4923 C4922 1.415 . S
H4924 C4921 0.999 . S
H4925 C4906 0.913 . S
H4926 C4944 0.951 . S
H4927 C4946 0.951 . S
H4928 C4948 0.950 . S
H4929 C4949 0.950 . S
H4930 C4951 0.950 . S
H4931 C4954 0.950 . S
H4932 C4955 0.950 . S
H4933 C4957 0.950 . S
H4934 C4958 0.950 . S
H4935 C4959 0.951 . S
H4936 C4961 0.951 . S
H4937 C4963 0.950 . S
H4938 C4964 0.950 . S
H4939 C4966 0.950 . S
H4940 C4969 0.950 . S
H4941 C4970 0.950 . S
H4942 C4972 0.950 . S
H4943 C4973 0.950 . S
C4944 H4926 0.951 . S
C4944 C4945 1.366 . S
C4944 C4946 1.388 . S
C4945 C4944 1.366 . S
C4945 C4949 1.385 . S
C4946 H4927 0.951 . S
C4946 C4944 1.388 . S
C4946 C4947 1.366 . S
C4947 C4946 1.366 . S
C4947 C4948 1.414 . S
C4947 C4950 1.499 . S
C4948 H4928 0.950 . S
C4948 C4947 1.414 . S
C4948 C4949 1.374 . S
C4949 H4929 0.950 . S
C4949 C4945 1.385 . S
C4949 C4948 1.374 . S
C4950 C4947 1.499 . S
C4950 C4951 1.373 . S
C4950 C4952 1.389 . S
C4951 H4930 0.950 . S
C4951 C4950 1.373 . S
C4951 C4967 1.377 . S
C4952 C4950 1.389 . S
C4952 C4953 1.524 . S
C4952 C4966 1.377 . S
C4953 C4952 1.524 . S
C4953 C4954 1.397 . S
C4953 C4958 1.363 . S
C4954 H4931 0.950 . S
C4954 C4953 1.397 . S
C4954 C4955 1.334 . S
C4955 H4932 0.950 . S
C4955 C4954 1.334 . S
C4955 C4956 1.287 . S
C4956 C4955 1.287 . S
C4956 C4957 1.524 . S
C4956 H4975 0.913 . S
C4957 H4933 0.950 . S
C4957 C4956 1.524 . S
C4957 C4958 1.415 . S
C4958 H4934 0.950 . S
C4958 C4953 1.363 . S
C4958 C4957 1.415 . S
C4959 H4935 0.951 . S
C4959 C4960 1.366 . S
C4959 C4961 1.388 . S
C4960 C4959 1.366 . S
C4960 C4964 1.385 . S
C4961 H4936 0.951 . S
C4961 C4959 1.388 . S
C4961 C4962 1.366 . S
C4962 C4961 1.366 . S
C4962 C4963 1.414 . S
C4962 C4965 1.499 . S
C4963 H4937 0.950 . S
C4963 C4962 1.414 . S
C4963 C4964 1.374 . S
C4964 H4938 0.950 . S
C4964 C4960 1.385 . S
C4964 C4963 1.374 . S
C4965 C4962 1.499 . S
C4965 C4966 1.373 . S
C4965 C4967 1.389 . S
C4966 H4939 0.950 . S
C4966 C4952 1.377 . S
C4966 C4965 1.373 . S
C4967 C4951 1.377 . S
C4967 C4965 1.389 . S
C4967 C4968 1.524 . S
C4968 C4967 1.524 . S
C4968 C4969 1.397 . S
C4968 C4973 1.363 . S
C4969 H4940 0.950 . S
C4969 C4968 1.397 . S
C4969 C4970 1.334 . S
C4970 H4941 0.950 . S
C4970 C4969 1.334 . S
C4970 C4971 1.287 . S
C4971 C4970 1.287 . S
C4971 C4972 1.524 . S
C4971 H4974 0.999 . S
C4972 H4942 0.950 . S
C4972 C4971 1.524 . S
C4972 C4973 1.415 . S
C4973 H4943 0.950 . S
C4973 C4968 1.363 . S
C4973 C4972 1.415 . S
H4974 C4971 0.999 . S
H4975 C4956 0.913 . S
H4976 C4994 0.951 . S
H4977 C4996 0.951 . S
H4978 C4998 0.950 . S
H4979 C4999 0.950 . S
H4980 C5001 0.950 . S
H4981 C5004 0.950 . S
H4982 C5005 0.950 . S
H4983 C5007 0.950 . S
H4984 C5008 0.950 . S
H4985 C5009 0.951 . S
H4986 C5011 0.951 . S
H4987 C5013 0.950 . S
H4988 C5014 0.950 . S
H4989 C5016 0.950 . S
H4990 C5019 0.950 . S
H4991 C5020 0.950 . S
H4992 C5022 0.950 . S
H4993 C5023 0.950 . S
C4994 H4976 0.951 . S
C4994 C4995 1.366 . S
C4994 C4996 1.388 . S
C4995 C4994 1.366 . S
C4995 C4999 1.385 . S
C4996 H4977 0.951 . S
C4996 C4994 1.388 . S
C4996 C4997 1.366 . S
C4997 C4996 1.366 . S
C4997 C4998 1.414 . S
C4997 C5000 1.499 . S
C4998 H4978 0.950 . S
C4998 C4997 1.414 . S
C4998 C4999 1.374 . S
C4999 H4979 0.950 . S
C4999 C4995 1.385 . S
C4999 C4998 1.374 . S
C5000 C4997 1.499 . S
C5000 C5001 1.373 . S
C5000 C5002 1.389 . S
C5001 H4980 0.950 . S
C5001 C5000 1.373 . S
C5001 C5017 1.377 . S
C5002 C5000 1.389 . S
C5002 C5003 1.524 . S
C5002 C5016 1.377 . S
C5003 C5002 1.524 . S
C5003 C5004 1.397 . S
C5003 C5008 1.363 . S
C5004 H4981 0.950 . S
C5004 C5003 1.397 . S
C5004 C5005 1.334 . S
C5005 H4982 0.950 . S
C5005 C5004 1.334 . S
C5005 C5006 1.287 . S
C5006 C5005 1.287 . S
C5006 C5007 1.524 . S
C5006 H5025 0.913 . S
C5007 H4983 0.950 . S
C5007 C5006 1.524 . S
C5007 C5008 1.415 . S
C5008 H4984 0.950 . S
C5008 C5003 1.363 . S
C5008 C5007 1.415 . S
C5009 H4985 0.951 . S
C5009 C5010 1.366 . S
C5009 C5011 1.388 . S
C5010 C5009 1.366 . S
C5010 C5014 1.385 . S
C5011 H4986 0.951 . S
C5011 C5009 1.388 . S
C5011 C5012 1.366 . S
C5012 C5011 1.366 . S
C5012 C5013 1.414 . S
C5012 C5015 1.499 . S
C5013 H4987 0.950 . S
C5013 C5012 1.414 . S
C5013 C5014 1.374 . S
C5014 H4988 0.950 . S
C5014 C5010 1.385 . S
C5014 C5013 1.374 . S
C5015 C5012 1.499 . S
C5015 C5016 1.373 . S
C5015 C5017 1.389 . S
C5016 H4989 0.950 . S
C5016 C5002 1.377 . S
C5016 C5015 1.373 . S
C5017 C5001 1.377 . S
C5017 C5015 1.389 . S
C5017 C5018 1.524 . S
C5018 C5017 1.524 . S
C5018 C5019 1.397 . S
C5018 C5023 1.363 . S
C5019 H4990 0.950 . S
C5019 C5018 1.397 . S
C5019 C5020 1.334 . S
C5020 H4991 0.950 . S
C5020 C5019 1.334 . S
C5020 C5021 1.287 . S
C5021 C5020 1.287 . S
C5021 C5022 1.524 . S
C5021 H5024 0.999 . S
C5022 H4992 0.950 . S
C5022 C5021 1.524 . S
C5022 C5023 1.415 . S
C5023 H4993 0.950 . S
C5023 C5018 1.363 . S
C5023 C5022 1.415 . S
H5024 C5021 0.999 . S
H5025 C5006 0.913 . S
H5026 C5044 0.951 . S
H5027 C5046 0.951 . S
H5028 C5048 0.950 . S
H5029 C5049 0.950 . S
H5030 C5051 0.950 . S
H5031 C5054 0.950 . S
H5032 C5055 0.950 . S
H5033 C5057 0.950 . S
H5034 C5058 0.950 . S
H5035 C5059 0.951 . S
H5036 C5061 0.951 . S
H5037 C5063 0.950 . S
H5038 C5064 0.950 . S
H5039 C5066 0.950 . S
H5040 C5069 0.950 . S
H5041 C5070 0.950 . S
H5042 C5072 0.950 . S
H5043 C5073 0.950 . S
C5044 H5026 0.951 . S
C5044 C5045 1.366 . S
C5044 C5046 1.388 . S
C5045 C5044 1.366 . S
C5045 C5049 1.385 . S
C5046 H5027 0.951 . S
C5046 C5044 1.388 . S
C5046 C5047 1.366 . S
C5047 C5046 1.366 . S
C5047 C5048 1.414 . S
C5047 C5050 1.499 . S
C5048 H5028 0.950 . S
C5048 C5047 1.414 . S
C5048 C5049 1.374 . S
C5049 H5029 0.950 . S
C5049 C5045 1.385 . S
C5049 C5048 1.374 . S
C5050 C5047 1.499 . S
C5050 C5051 1.373 . S
C5050 C5052 1.389 . S
C5051 H5030 0.950 . S
C5051 C5050 1.373 . S
C5051 C5067 1.377 . S
C5052 C5050 1.389 . S
C5052 C5053 1.524 . S
C5052 C5066 1.377 . S
C5053 C5052 1.524 . S
C5053 C5054 1.397 . S
C5053 C5058 1.363 . S
C5054 H5031 0.950 . S
C5054 C5053 1.397 . S
C5054 C5055 1.334 . S
C5055 H5032 0.950 . S
C5055 C5054 1.334 . S
C5055 C5056 1.287 . S
C5056 C5055 1.287 . S
C5056 C5057 1.524 . S
C5056 H5075 0.913 . S
C5057 H5033 0.950 . S
C5057 C5056 1.524 . S
C5057 C5058 1.415 . S
C5058 H5034 0.950 . S
C5058 C5053 1.363 . S
C5058 C5057 1.415 . S
C5059 H5035 0.951 . S
C5059 C5060 1.366 . S
C5059 C5061 1.388 . S
C5060 C5059 1.366 . S
C5060 C5064 1.385 . S
C5061 H5036 0.951 . S
C5061 C5059 1.388 . S
C5061 C5062 1.366 . S
C5062 C5061 1.366 . S
C5062 C5063 1.414 . S
C5062 C5065 1.499 . S
C5063 H5037 0.950 . S
C5063 C5062 1.414 . S
C5063 C5064 1.374 . S
C5064 H5038 0.950 . S
C5064 C5060 1.385 . S
C5064 C5063 1.374 . S
C5065 C5062 1.499 . S
C5065 C5066 1.373 . S
C5065 C5067 1.389 . S
C5066 H5039 0.950 . S
C5066 C5052 1.377 . S
C5066 C5065 1.373 . S
C5067 C5051 1.377 . S
C5067 C5065 1.389 . S
C5067 C5068 1.524 . S
C5068 C5067 1.524 . S
C5068 C5069 1.397 . S
C5068 C5073 1.363 . S
C5069 H5040 0.950 . S
C5069 C5068 1.397 . S
C5069 C5070 1.334 . S
C5070 H5041 0.950 . S
C5070 C5069 1.334 . S
C5070 C5071 1.287 . S
C5071 C5070 1.287 . S
C5071 C5072 1.524 . S
C5071 H5074 0.999 . S
C5072 H5042 0.950 . S
C5072 C5071 1.524 . S
C5072 C5073 1.415 . S
C5073 H5043 0.950 . S
C5073 C5068 1.363 . S
C5073 C5072 1.415 . S
H5074 C5071 0.999 . S
H5075 C5056 0.913 . S
H5076 C5094 0.951 . S
H5077 C5096 0.951 . S
H5078 C5098 0.950 . S
H5079 C5099 0.950 . S
H5080 C5101 0.950 . S
H5081 C5104 0.950 . S
H5082 C5105 0.950 . S
H5083 C5107 0.950 . S
H5084 C5108 0.950 1_455 S
H5085 C5109 0.951 . S
H5086 C5111 0.951 . S
H5087 C5113 0.950 1_455 S
H5088 C5114 0.950 . S
H5089 C5116 0.950 . S
H5090 C5119 0.950 . S
H5091 C5120 0.950 . S
H5092 C5122 0.950 . S
H5093 C5123 0.950 . S
C5094 H5076 0.951 . S
C5094 C5095 1.366 . S
C5094 C5096 1.388 . S
C5095 C5094 1.366 . S
C5095 C5099 1.385 . S
C5096 H5077 0.951 . S
C5096 C5094 1.388 . S
C5096 C5097 1.366 . S
C5097 C5096 1.366 . S
C5097 C5098 1.414 . S
C5097 C5100 1.499 . S
C5098 H5078 0.950 . S
C5098 C5097 1.414 . S
C5098 C5099 1.374 . S
C5099 H5079 0.950 . S
C5099 C5095 1.385 . S
C5099 C5098 1.374 . S
C5100 C5097 1.499 . S
C5100 C5101 1.373 . S
C5100 C5102 1.389 . S
C5101 H5080 0.950 . S
C5101 C5100 1.373 . S
C5101 C5117 1.377 . S
C5102 C5100 1.389 . S
C5102 C5103 1.524 . S
C5102 C5116 1.377 . S
C5103 C5102 1.524 . S
C5103 C5104 1.397 . S
C5103 C5108 1.363 . S
C5104 H5081 0.950 . S
C5104 C5103 1.397 . S
C5104 C5105 1.334 . S
C5105 H5082 0.950 . S
C5105 C5104 1.334 . S
C5105 C5106 1.287 1_655 S
C5106 C5105 1.287 1_455 S
C5106 C5107 1.524 . S
C5106 H5125 0.913 . S
C5107 H5083 0.950 . S
C5107 C5106 1.524 . S
C5107 C5108 1.415 1_455 S
C5108 H5084 0.950 1_655 S
C5108 C5103 1.363 . S
C5108 C5107 1.415 1_655 S
C5109 H5085 0.951 . S
C5109 C5110 1.366 1_655 S
C5109 C5111 1.388 . S
C5110 C5109 1.366 1_455 S
C5110 C5114 1.385 . S
C5111 H5086 0.951 . S
C5111 C5109 1.388 . S
C5111 C5112 1.366 . S
C5112 C5111 1.366 . S
C5112 C5113 1.414 . S
C5112 C5115 1.499 . S
C5113 H5087 0.950 1_655 S
C5113 C5112 1.414 . S
C5113 C5114 1.374 1_655 S
C5114 H5088 0.950 . S
C5114 C5110 1.385 . S
C5114 C5113 1.374 1_455 S
C5115 C5112 1.499 . S
C5115 C5116 1.373 . S
C5115 C5117 1.389 . S
C5116 H5089 0.950 . S
C5116 C5102 1.377 . S
C5116 C5115 1.373 . S
C5117 C5101 1.377 . S
C5117 C5115 1.389 . S
C5117 C5118 1.524 . S
C5118 C5117 1.524 . S
C5118 C5119 1.397 . S
C5118 C5123 1.363 . S
C5119 H5090 0.950 . S
C5119 C5118 1.397 . S
C5119 C5120 1.334 . S
C5120 H5091 0.950 . S
C5120 C5119 1.334 . S
C5120 C5121 1.287 . S
C5121 C5120 1.287 . S
C5121 C5122 1.524 . S
C5121 H5124 0.999 . S
C5122 H5092 0.950 . S
C5122 C5121 1.524 . S
C5122 C5123 1.415 . S
C5123 H5093 0.950 . S
C5123 C5118 1.363 . S
C5123 C5122 1.415 . S
H5124 C5121 0.999 . S
H5125 C5106 0.913 . S
H5126 C5144 0.951 . S
H5127 C5146 0.951 . S
H5128 C5148 0.950 . S
H5129 C5149 0.950 . S
H5130 C5151 0.950 . S
H5131 C5154 0.950 . S
H5132 C5155 0.950 . S
H5133 C5157 0.950 . S
H5134 C5158 0.950 . S
H5135 C5159 0.951 . S
H5136 C5161 0.951 . S
H5137 C5163 0.950 . S
H5138 C5164 0.950 . S
H5139 C5166 0.950 . S
H5140 C5169 0.950 . S
H5141 C5170 0.950 . S
H5142 C5172 0.950 . S
H5143 C5173 0.950 . S
C5144 H5126 0.951 . S
C5144 C5145 1.366 . S
C5144 C5146 1.388 . S
C5145 C5144 1.366 . S
C5145 C5149 1.385 . S
C5146 H5127 0.951 . S
C5146 C5144 1.388 . S
C5146 C5147 1.366 . S
C5147 C5146 1.366 . S
C5147 C5148 1.414 . S
C5147 C5150 1.499 . S
C5148 H5128 0.950 . S
C5148 C5147 1.414 . S
C5148 C5149 1.374 . S
C5149 H5129 0.950 . S
C5149 C5145 1.385 . S
C5149 C5148 1.374 . S
C5150 C5147 1.499 . S
C5150 C5151 1.373 . S
C5150 C5152 1.389 . S
C5151 H5130 0.950 . S
C5151 C5150 1.373 . S
C5151 C5167 1.377 . S
C5152 C5150 1.389 . S
C5152 C5153 1.524 . S
C5152 C5166 1.377 . S
C5153 C5152 1.524 . S
C5153 C5154 1.397 . S
C5153 C5158 1.363 . S
C5154 H5131 0.950 . S
C5154 C5153 1.397 . S
C5154 C5155 1.334 . S
C5155 H5132 0.950 . S
C5155 C5154 1.334 . S
C5155 C5156 1.287 . S
C5156 C5155 1.287 . S
C5156 C5157 1.524 . S
C5156 H5175 0.913 . S
C5157 H5133 0.950 . S
C5157 C5156 1.524 . S
C5157 C5158 1.415 . S
C5158 H5134 0.950 . S
C5158 C5153 1.363 . S
C5158 C5157 1.415 . S
C5159 H5135 0.951 . S
C5159 C5160 1.366 . S
C5159 C5161 1.388 . S
C5160 C5159 1.366 . S
C5160 C5164 1.385 . S
C5161 H5136 0.951 . S
C5161 C5159 1.388 . S
C5161 C5162 1.366 . S
C5162 C5161 1.366 . S
C5162 C5163 1.414 . S
C5162 C5165 1.499 . S
C5163 H5137 0.950 . S
C5163 C5162 1.414 . S
C5163 C5164 1.374 . S
C5164 H5138 0.950 . S
C5164 C5160 1.385 . S
C5164 C5163 1.374 . S
C5165 C5162 1.499 . S
C5165 C5166 1.373 . S
C5165 C5167 1.389 . S
C5166 H5139 0.950 . S
C5166 C5152 1.377 . S
C5166 C5165 1.373 . S
C5167 C5151 1.377 . S
C5167 C5165 1.389 . S
C5167 C5168 1.524 . S
C5168 C5167 1.524 . S
C5168 C5169 1.397 . S
C5168 C5173 1.363 . S
C5169 H5140 0.950 . S
C5169 C5168 1.397 . S
C5169 C5170 1.334 . S
C5170 H5141 0.950 . S
C5170 C5169 1.334 . S
C5170 C5171 1.287 . S
C5171 C5170 1.287 . S
C5171 C5172 1.524 . S
C5171 H5174 0.999 . S
C5172 H5142 0.950 . S
C5172 C5171 1.524 . S
C5172 C5173 1.415 . S
C5173 H5143 0.950 . S
C5173 C5168 1.363 . S
C5173 C5172 1.415 . S
H5174 C5171 0.999 . S
H5175 C5156 0.913 . S
H5176 C5194 0.951 . S
H5177 C5196 0.951 . S
H5178 C5198 0.950 . S
H5179 C5199 0.950 . S
H5180 C5201 0.950 . S
H5181 C5204 0.950 . S
H5182 C5205 0.950 . S
H5183 C5207 0.950 . S
H5184 C5208 0.950 . S
H5185 C5209 0.951 . S
H5186 C5211 0.951 . S
H5187 C5213 0.950 . S
H5188 C5214 0.950 . S
H5189 C5216 0.950 . S
H5190 C5219 0.950 . S
H5191 C5220 0.950 . S
H5192 C5222 0.950 . S
H5193 C5223 0.950 . S
C5194 H5176 0.951 . S
C5194 C5195 1.366 . S
C5194 C5196 1.388 . S
C5195 C5194 1.366 . S
C5195 C5199 1.385 . S
C5196 H5177 0.951 . S
C5196 C5194 1.388 . S
C5196 C5197 1.366 . S
C5197 C5196 1.366 . S
C5197 C5198 1.414 . S
C5197 C5200 1.499 . S
C5198 H5178 0.950 . S
C5198 C5197 1.414 . S
C5198 C5199 1.374 . S
C5199 H5179 0.950 . S
C5199 C5195 1.385 . S
C5199 C5198 1.374 . S
C5200 C5197 1.499 . S
C5200 C5201 1.373 . S
C5200 C5202 1.389 . S
C5201 H5180 0.950 . S
C5201 C5200 1.373 . S
C5201 C5217 1.377 . S
C5202 C5200 1.389 . S
C5202 C5203 1.524 . S
C5202 C5216 1.377 . S
C5203 C5202 1.524 . S
C5203 C5204 1.397 . S
C5203 C5208 1.363 . S
C5204 H5181 0.950 . S
C5204 C5203 1.397 . S
C5204 C5205 1.334 . S
C5205 H5182 0.950 . S
C5205 C5204 1.334 . S
C5205 C5206 1.287 . S
C5206 C5205 1.287 . S
C5206 C5207 1.524 . S
C5206 H5225 0.913 . S
C5207 H5183 0.950 . S
C5207 C5206 1.524 . S
C5207 C5208 1.415 . S
C5208 H5184 0.950 . S
C5208 C5203 1.363 . S
C5208 C5207 1.415 . S
C5209 H5185 0.951 . S
C5209 C5210 1.366 . S
C5209 C5211 1.388 . S
C5210 C5209 1.366 . S
C5210 C5214 1.385 . S
C5211 H5186 0.951 . S
C5211 C5209 1.388 . S
C5211 C5212 1.366 . S
C5212 C5211 1.366 . S
C5212 C5213 1.414 . S
C5212 C5215 1.499 . S
C5213 H5187 0.950 . S
C5213 C5212 1.414 . S
C5213 C5214 1.374 . S
C5214 H5188 0.950 . S
C5214 C5210 1.385 . S
C5214 C5213 1.374 . S
C5215 C5212 1.499 . S
C5215 C5216 1.373 . S
C5215 C5217 1.389 . S
C5216 H5189 0.950 . S
C5216 C5202 1.377 . S
C5216 C5215 1.373 . S
C5217 C5201 1.377 . S
C5217 C5215 1.389 . S
C5217 C5218 1.524 . S
C5218 C5217 1.524 . S
C5218 C5219 1.397 . S
C5218 C5223 1.363 . S
C5219 H5190 0.950 . S
C5219 C5218 1.397 . S
C5219 C5220 1.334 . S
C5220 H5191 0.950 . S
C5220 C5219 1.334 . S
C5220 C5221 1.287 . S
C5221 C5220 1.287 . S
C5221 C5222 1.524 . S
C5221 H5224 0.999 . S
C5222 H5192 0.950 . S
C5222 C5221 1.524 . S
C5222 C5223 1.415 . S
C5223 H5193 0.950 . S
C5223 C5218 1.363 . S
C5223 C5222 1.415 . S
H5224 C5221 0.999 . S
H5225 C5206 0.913 . S
H5226 C5244 0.951 . S
H5227 C5246 0.951 . S
H5228 C5248 0.950 . S
H5229 C5249 0.950 . S
H5230 C5251 0.950 . S
H5231 C5254 0.950 . S
H5232 C5255 0.950 . S
H5233 C5257 0.950 . S
H5234 C5258 0.950 . S
H5235 C5259 0.951 . S
H5236 C5261 0.951 . S
H5237 C5263 0.950 . S
H5238 C5264 0.950 . S
H5239 C5266 0.950 . S
H5240 C5269 0.950 . S
H5241 C5270 0.950 . S
H5242 C5272 0.950 . S
H5243 C5273 0.950 . S
C5244 H5226 0.951 . S
C5244 C5245 1.366 . S
C5244 C5246 1.388 . S
C5245 C5244 1.366 . S
C5245 C5249 1.385 . S
C5246 H5227 0.951 . S
C5246 C5244 1.388 . S
C5246 C5247 1.366 . S
C5247 C5246 1.366 . S
C5247 C5248 1.414 . S
C5247 C5250 1.499 . S
C5248 H5228 0.950 . S
C5248 C5247 1.414 . S
C5248 C5249 1.374 . S
C5249 H5229 0.950 . S
C5249 C5245 1.385 . S
C5249 C5248 1.374 . S
C5250 C5247 1.499 . S
C5250 C5251 1.373 . S
C5250 C5252 1.389 . S
C5251 H5230 0.950 . S
C5251 C5250 1.373 . S
C5251 C5267 1.377 . S
C5252 C5250 1.389 . S
C5252 C5253 1.524 . S
C5252 C5266 1.377 . S
C5253 C5252 1.524 . S
C5253 C5254 1.397 . S
C5253 C5258 1.363 . S
C5254 H5231 0.950 . S
C5254 C5253 1.397 . S
C5254 C5255 1.334 . S
C5255 H5232 0.950 . S
C5255 C5254 1.334 . S
C5255 C5256 1.287 . S
C5256 C5255 1.287 . S
C5256 C5257 1.524 . S
C5256 H5275 0.913 . S
C5257 H5233 0.950 . S
C5257 C5256 1.524 . S
C5257 C5258 1.415 . S
C5258 H5234 0.950 . S
C5258 C5253 1.363 . S
C5258 C5257 1.415 . S
C5259 H5235 0.951 . S
C5259 C5260 1.366 . S
C5259 C5261 1.388 . S
C5260 C5259 1.366 . S
C5260 C5264 1.385 . S
C5261 H5236 0.951 . S
C5261 C5259 1.388 . S
C5261 C5262 1.366 . S
C5262 C5261 1.366 . S
C5262 C5263 1.414 . S
C5262 C5265 1.499 . S
C5263 H5237 0.950 . S
C5263 C5262 1.414 . S
C5263 C5264 1.374 . S
C5264 H5238 0.950 . S
C5264 C5260 1.385 . S
C5264 C5263 1.374 . S
C5265 C5262 1.499 . S
C5265 C5266 1.373 . S
C5265 C5267 1.389 . S
C5266 H5239 0.950 . S
C5266 C5252 1.377 . S
C5266 C5265 1.373 . S
C5267 C5251 1.377 . S
C5267 C5265 1.389 . S
C5267 C5268 1.524 . S
C5268 C5267 1.524 . S
C5268 C5269 1.397 . S
C5268 C5273 1.363 . S
C5269 H5240 0.950 . S
C5269 C5268 1.397 . S
C5269 C5270 1.334 . S
C5270 H5241 0.950 . S
C5270 C5269 1.334 . S
C5270 C5271 1.287 . S
C5271 C5270 1.287 . S
C5271 C5272 1.524 . S
C5271 H5274 0.999 . S
C5272 H5242 0.950 . S
C5272 C5271 1.524 . S
C5272 C5273 1.415 . S
C5273 H5243 0.950 . S
C5273 C5268 1.363 . S
C5273 C5272 1.415 . S
H5274 C5271 0.999 . S
H5275 C5256 0.913 . S
H5276 C5294 0.951 . S
H5277 C5296 0.951 . S
H5278 C5298 0.950 . S
H5279 C5299 0.950 . S
H5280 C5301 0.950 . S
H5281 C5304 0.950 . S
H5282 C5305 0.950 . S
H5283 C5307 0.950 . S
H5284 C5308 0.950 . S
H5285 C5309 0.951 . S
H5286 C5311 0.941 1_455 S
H5287 C5313 0.950 . S
H5288 C5314 0.950 . S
H5289 C5316 0.950 . S
H5290 C5319 0.950 . S
H5291 C5320 0.950 . S
H5292 C5322 0.950 . S
H5293 C5323 0.951 . S
C5294 H5276 0.951 . S
C5294 C5295 1.366 . S
C5294 C5296 1.388 . S
C5295 C5294 1.366 . S
C5295 C5299 1.385 . S
C5296 H5277 0.951 . S
C5296 C5294 1.388 . S
C5296 C5297 1.366 . S
C5297 C5296 1.366 . S
C5297 C5298 1.414 . S
C5297 C5300 1.499 . S
C5298 H5278 0.950 . S
C5298 C5297 1.414 . S
C5298 C5299 1.374 . S
C5299 H5279 0.950 . S
C5299 C5295 1.385 . S
C5299 C5298 1.374 . S
C5300 C5297 1.499 . S
C5300 C5301 1.373 . S
C5300 C5302 1.389 . S
C5301 H5280 0.950 . S
C5301 C5300 1.373 . S
C5301 C5317 1.377 . S
C5302 C5300 1.389 . S
C5302 C5303 1.524 . S
C5302 C5316 1.377 . S
C5303 C5302 1.524 . S
C5303 C5304 1.397 . S
C5303 C5308 1.363 . S
C5304 H5281 0.950 . S
C5304 C5303 1.397 . S
C5304 C5305 1.334 . S
C5305 H5282 0.950 . S
C5305 C5304 1.334 . S
C5305 C5306 1.287 . S
C5306 C5305 1.287 . S
C5306 C5307 1.524 . S
C5306 H5325 0.913 . S
C5307 H5283 0.950 . S
C5307 C5306 1.524 . S
C5307 C5308 1.415 . S
C5308 H5284 0.950 . S
C5308 C5303 1.363 . S
C5308 C5307 1.415 . S
C5309 H5285 0.951 . S
C5309 C5310 1.366 1_455 S
C5309 C5311 1.388 1_455 S
C5310 C5309 1.366 1_655 S
C5310 C5314 1.385 . S
C5311 H5286 0.941 1_655 S
C5311 C5309 1.388 1_655 S
C5311 C5312 1.366 . S
C5312 C5311 1.366 . S
C5312 C5313 1.414 . S
C5312 C5315 1.499 . S
C5313 H5287 0.950 . S
C5313 C5312 1.414 . S
C5313 C5314 1.374 . S
C5314 H5288 0.950 . S
C5314 C5310 1.385 . S
C5314 C5313 1.374 . S
C5315 C5312 1.499 . S
C5315 C5316 1.373 . S
C5315 C5317 1.389 . S
C5316 H5289 0.950 . S
C5316 C5302 1.377 . S
C5316 C5315 1.373 . S
C5317 C5301 1.377 . S
C5317 C5315 1.389 . S
C5317 C5318 1.524 . S
C5318 C5317 1.524 . S
C5318 C5319 1.397 . S
C5318 C5323 1.363 1_655 S
C5319 H5290 0.950 . S
C5319 C5318 1.397 . S
C5319 C5320 1.334 1_655 S
C5320 H5291 0.950 . S
C5320 C5319 1.334 1_455 S
C5320 C5321 1.287 . S
C5321 C5320 1.287 . S
C5321 C5322 1.524 . S
C5321 H5324 0.999 . S
C5322 H5292 0.950 . S
C5322 C5321 1.524 . S
C5322 C5323 1.415 . S
C5323 H5293 0.951 . S
C5323 C5318 1.363 1_455 S
C5323 C5322 1.415 . S
H5324 C5321 0.999 . S
H5325 C5306 0.913 . S
H5326 C5344 0.951 . S
H5327 C5346 0.951 . S
H5328 C5348 0.950 . S
H5329 C5349 0.950 . S
H5330 C5351 0.950 . S
H5331 C5354 0.950 . S
H5332 C5355 0.950 . S
H5333 C5357 0.950 . S
H5334 C5358 0.950 . S
H5335 C5359 0.951 . S
H5336 C5361 0.951 . S
H5337 C5363 0.950 . S
H5338 C5364 0.950 . S
H5339 C5366 0.950 . S
H5340 C5369 0.950 . S
H5341 C5370 0.950 . S
H5342 C5372 0.950 . S
H5343 C5373 0.950 . S
C5344 H5326 0.951 . S
C5344 C5345 1.366 . S
C5344 C5346 1.388 . S
C5345 C5344 1.366 . S
C5345 C5349 1.385 . S
C5346 H5327 0.951 . S
C5346 C5344 1.388 . S
C5346 C5347 1.366 . S
C5347 C5346 1.366 . S
C5347 C5348 1.414 . S
C5347 C5350 1.499 . S
C5348 H5328 0.950 . S
C5348 C5347 1.414 . S
C5348 C5349 1.374 . S
C5349 H5329 0.950 . S
C5349 C5345 1.385 . S
C5349 C5348 1.374 . S
C5350 C5347 1.499 . S
C5350 C5351 1.373 . S
C5350 C5352 1.389 . S
C5351 H5330 0.950 . S
C5351 C5350 1.373 . S
C5351 C5367 1.377 . S
C5352 C5350 1.389 . S
C5352 C5353 1.524 . S
C5352 C5366 1.377 . S
C5353 C5352 1.524 . S
C5353 C5354 1.397 . S
C5353 C5358 1.363 . S
C5354 H5331 0.950 . S
C5354 C5353 1.397 . S
C5354 C5355 1.334 . S
C5355 H5332 0.950 . S
C5355 C5354 1.334 . S
C5355 C5356 1.287 . S
C5356 C5355 1.287 . S
C5356 C5357 1.524 . S
C5356 H5375 0.913 . S
C5357 H5333 0.950 . S
C5357 C5356 1.524 . S
C5357 C5358 1.415 . S
C5358 H5334 0.950 . S
C5358 C5353 1.363 . S
C5358 C5357 1.415 . S
C5359 H5335 0.951 . S
C5359 C5360 1.366 . S
C5359 C5361 1.388 . S
C5360 C5359 1.366 . S
C5360 C5364 1.385 . S
C5361 H5336 0.951 . S
C5361 C5359 1.388 . S
C5361 C5362 1.366 . S
C5362 C5361 1.366 . S
C5362 C5363 1.414 . S
C5362 C5365 1.499 . S
C5363 H5337 0.950 . S
C5363 C5362 1.414 . S
C5363 C5364 1.374 . S
C5364 H5338 0.950 . S
C5364 C5360 1.385 . S
C5364 C5363 1.374 . S
C5365 C5362 1.499 . S
C5365 C5366 1.373 . S
C5365 C5367 1.389 . S
C5366 H5339 0.950 . S
C5366 C5352 1.377 . S
C5366 C5365 1.373 . S
C5367 C5351 1.377 . S
C5367 C5365 1.389 . S
C5367 C5368 1.524 . S
C5368 C5367 1.524 . S
C5368 C5369 1.397 . S
C5368 C5373 1.363 . S
C5369 H5340 0.950 . S
C5369 C5368 1.397 . S
C5369 C5370 1.334 . S
C5370 H5341 0.950 . S
C5370 C5369 1.334 . S
C5370 C5371 1.287 . S
C5371 C5370 1.287 . S
C5371 C5372 1.524 . S
C5371 H5374 0.999 . S
C5372 H5342 0.950 . S
C5372 C5371 1.524 . S
C5372 C5373 1.415 . S
C5373 H5343 0.950 . S
C5373 C5368 1.363 . S
C5373 C5372 1.415 . S
H5374 C5371 0.999 . S
H5375 C5356 0.913 . S
H5376 C5394 0.951 . S
H5377 C5396 0.951 . S
H5378 C5398 0.950 . S
H5379 C5399 0.950 . S
H5380 C5401 0.950 . S
H5381 C5404 0.950 . S
H5382 C5405 0.950 . S
H5383 C5407 0.950 . S
H5384 C5408 0.950 . S
H5385 C5409 0.951 . S
H5386 C5411 0.951 . S
H5387 C5413 0.950 . S
H5388 C5414 0.950 . S
H5389 C5416 0.950 . S
H5390 C5419 0.950 . S
H5391 C5420 0.950 . S
H5392 C5422 0.950 . S
H5393 C5423 0.950 . S
C5394 H5376 0.951 . S
C5394 C5395 1.366 . S
C5394 C5396 1.388 . S
C5395 C5394 1.366 . S
C5395 C5399 1.385 . S
C5396 H5377 0.951 . S
C5396 C5394 1.388 . S
C5396 C5397 1.366 . S
C5397 C5396 1.366 . S
C5397 C5398 1.414 . S
C5397 C5400 1.499 . S
C5398 H5378 0.950 . S
C5398 C5397 1.414 . S
C5398 C5399 1.374 . S
C5399 H5379 0.950 . S
C5399 C5395 1.385 . S
C5399 C5398 1.374 . S
C5400 C5397 1.499 . S
C5400 C5401 1.373 . S
C5400 C5402 1.389 . S
C5401 H5380 0.950 . S
C5401 C5400 1.373 . S
C5401 C5417 1.377 . S
C5402 C5400 1.389 . S
C5402 C5403 1.524 . S
C5402 C5416 1.377 . S
C5403 C5402 1.524 . S
C5403 C5404 1.397 . S
C5403 C5408 1.363 . S
C5404 H5381 0.950 . S
C5404 C5403 1.397 . S
C5404 C5405 1.334 . S
C5405 H5382 0.950 . S
C5405 C5404 1.334 . S
C5405 C5406 1.287 . S
C5406 C5405 1.287 . S
C5406 C5407 1.524 . S
C5406 H5425 0.913 . S
C5407 H5383 0.950 . S
C5407 C5406 1.524 . S
C5407 C5408 1.415 . S
C5408 H5384 0.950 . S
C5408 C5403 1.363 . S
C5408 C5407 1.415 . S
C5409 H5385 0.951 . S
C5409 C5410 1.366 . S
C5409 C5411 1.388 . S
C5410 C5409 1.366 . S
C5410 C5414 1.385 . S
C5411 H5386 0.951 . S
C5411 C5409 1.388 . S
C5411 C5412 1.366 . S
C5412 C5411 1.366 . S
C5412 C5413 1.414 . S
C5412 C5415 1.499 . S
C5413 H5387 0.950 . S
C5413 C5412 1.414 . S
C5413 C5414 1.374 . S
C5414 H5388 0.950 . S
C5414 C5410 1.385 . S
C5414 C5413 1.374 . S
C5415 C5412 1.499 . S
C5415 C5416 1.373 . S
C5415 C5417 1.389 . S
C5416 H5389 0.950 . S
C5416 C5402 1.377 . S
C5416 C5415 1.373 . S
C5417 C5401 1.377 . S
C5417 C5415 1.389 . S
C5417 C5418 1.524 . S
C5418 C5417 1.524 . S
C5418 C5419 1.397 . S
C5418 C5423 1.363 . S
C5419 H5390 0.950 . S
C5419 C5418 1.397 . S
C5419 C5420 1.334 . S
C5420 H5391 0.950 . S
C5420 C5419 1.334 . S
C5420 C5421 1.287 . S
C5421 C5420 1.287 . S
C5421 C5422 1.524 . S
C5421 H5424 0.999 . S
C5422 H5392 0.950 . S
C5422 C5421 1.524 . S
C5422 C5423 1.415 . S
C5423 H5393 0.950 . S
C5423 C5418 1.363 . S
C5423 C5422 1.415 . S
H5424 C5421 0.999 . S
H5425 C5406 0.913 . S
H5426 C5444 0.951 . S
H5427 C5446 0.951 . S
H5428 C5448 0.950 . S
H5429 C5449 0.950 . S
H5430 C5451 0.950 . S
H5431 C5454 0.950 . S
H5432 C5455 0.950 . S
H5433 C5457 0.950 . S
H5434 C5458 0.950 . S
H5435 C5459 0.951 1_545 S
H5436 C5461 0.951 . S
H5437 C5463 0.950 . S
H5438 C5464 0.950 . S
H5439 C5466 0.950 . S
H5440 C5469 0.950 . S
H5441 C5470 0.950 . S
H5442 C5472 0.950 . S
H5443 C5473 0.950 . S
C5444 H5426 0.951 . S
C5444 C5445 1.366 . S
C5444 C5446 1.388 . S
C5445 C5444 1.366 . S
C5445 C5449 1.385 . S
C5446 H5427 0.951 . S
C5446 C5444 1.388 . S
C5446 C5447 1.366 . S
C5447 C5446 1.366 . S
C5447 C5448 1.414 . S
C5447 C5450 1.499 . S
C5448 H5428 0.950 . S
C5448 C5447 1.414 . S
C5448 C5449 1.374 . S
C5449 H5429 0.950 . S
C5449 C5445 1.385 . S
C5449 C5448 1.374 . S
C5450 C5447 1.499 . S
C5450 C5451 1.373 . S
C5450 C5452 1.389 . S
C5451 H5430 0.950 . S
C5451 C5450 1.373 . S
C5451 C5467 1.377 . S
C5452 C5450 1.389 . S
C5452 C5453 1.524 . S
C5452 C5466 1.377 . S
C5453 C5452 1.524 . S
C5453 C5454 1.397 . S
C5453 C5458 1.363 . S
C5454 H5431 0.950 . S
C5454 C5453 1.397 . S
C5454 C5455 1.334 . S
C5455 H5432 0.950 . S
C5455 C5454 1.334 . S
C5455 C5456 1.287 . S
C5456 C5455 1.287 . S
C5456 C5457 1.524 . S
C5456 H5475 0.913 . S
C5457 H5433 0.950 . S
C5457 C5456 1.524 . S
C5457 C5458 1.415 . S
C5458 H5434 0.950 . S
C5458 C5453 1.363 . S
C5458 C5457 1.415 . S
C5459 H5435 0.951 1_565 S
C5459 C5460 1.366 . S
C5459 C5461 1.388 . S
C5460 C5459 1.366 . S
C5460 C5464 1.385 . S
C5461 H5436 0.951 . S
C5461 C5459 1.388 . S
C5461 C5462 1.366 . S
C5462 C5461 1.366 . S
C5462 C5463 1.414 . S
C5462 C5465 1.499 . S
C5463 H5437 0.950 . S
C5463 C5462 1.414 . S
C5463 C5464 1.374 . S
C5464 H5438 0.950 . S
C5464 C5460 1.385 . S
C5464 C5463 1.374 . S
C5465 C5462 1.499 . S
C5465 C5466 1.373 . S
C5465 C5467 1.389 . S
C5466 H5439 0.950 . S
C5466 C5452 1.377 . S
C5466 C5465 1.373 . S
C5467 C5451 1.377 . S
C5467 C5465 1.389 . S
C5467 C5468 1.524 . S
C5468 C5467 1.524 . S
C5468 C5469 1.397 . S
C5468 C5473 1.363 . S
C5469 H5440 0.950 . S
C5469 C5468 1.397 . S
C5469 C5470 1.334 . S
C5470 H5441 0.950 . S
C5470 C5469 1.334 . S
C5470 C5471 1.287 . S
C5471 C5470 1.287 . S
C5471 C5472 1.524 . S
C5471 H5474 0.999 . S
C5472 H5442 0.950 . S
C5472 C5471 1.524 . S
C5472 C5473 1.415 . S
C5473 H5443 0.950 . S
C5473 C5468 1.363 . S
C5473 C5472 1.415 . S
H5474 C5471 0.999 . S
H5475 C5456 0.913 . S
H5476 C5494 0.951 . S
H5477 C5496 0.951 . S
H5478 C5498 0.950 . S
H5479 C5499 0.950 . S
H5480 C5501 0.950 . S
H5481 C5504 0.950 . S
H5482 C5505 0.950 . S
H5483 C5507 0.950 . S
H5484 C5508 0.950 . S
H5485 C5509 0.951 . S
H5486 C5511 0.951 . S
H5487 C5513 0.950 . S
H5488 C5514 0.950 . S
H5489 C5516 0.950 . S
H5490 C5519 0.950 . S
H5491 C5520 0.950 . S
H5492 C5522 0.950 . S
H5493 C5523 0.950 . S
C5494 H5476 0.951 . S
C5494 C5495 1.366 . S
C5494 C5496 1.388 . S
C5495 C5494 1.366 . S
C5495 C5499 1.385 . S
C5496 H5477 0.951 . S
C5496 C5494 1.388 . S
C5496 C5497 1.366 . S
C5497 C5496 1.366 . S
C5497 C5498 1.414 . S
C5497 C5500 1.499 . S
C5498 H5478 0.950 . S
C5498 C5497 1.414 . S
C5498 C5499 1.374 . S
C5499 H5479 0.950 . S
C5499 C5495 1.385 . S
C5499 C5498 1.374 . S
C5500 C5497 1.499 . S
C5500 C5501 1.373 . S
C5500 C5502 1.389 . S
C5501 H5480 0.950 . S
C5501 C5500 1.373 . S
C5501 C5517 1.377 . S
C5502 C5500 1.389 . S
C5502 C5503 1.524 . S
C5502 C5516 1.377 . S
C5503 C5502 1.524 . S
C5503 C5504 1.397 . S
C5503 C5508 1.363 . S
C5504 H5481 0.950 . S
C5504 C5503 1.397 . S
C5504 C5505 1.334 . S
C5505 H5482 0.950 . S
C5505 C5504 1.334 . S
C5505 C5506 1.287 . S
C5506 C5505 1.287 . S
C5506 C5507 1.524 . S
C5506 H5525 0.913 . S
C5507 H5483 0.950 . S
C5507 C5506 1.524 . S
C5507 C5508 1.415 . S
C5508 H5484 0.950 . S
C5508 C5503 1.363 . S
C5508 C5507 1.415 . S
C5509 H5485 0.951 . S
C5509 C5510 1.366 . S
C5509 C5511 1.388 . S
C5510 C5509 1.366 . S
C5510 C5514 1.385 . S
C5511 H5486 0.951 . S
C5511 C5509 1.388 . S
C5511 C5512 1.366 . S
C5512 C5511 1.366 . S
C5512 C5513 1.414 . S
C5512 C5515 1.499 . S
C5513 H5487 0.950 . S
C5513 C5512 1.414 . S
C5513 C5514 1.374 . S
C5514 H5488 0.950 . S
C5514 C5510 1.385 . S
C5514 C5513 1.374 . S
C5515 C5512 1.499 . S
C5515 C5516 1.373 . S
C5515 C5517 1.389 . S
C5516 H5489 0.950 . S
C5516 C5502 1.377 . S
C5516 C5515 1.373 . S
C5517 C5501 1.377 . S
C5517 C5515 1.389 . S
C5517 C5518 1.524 . S
C5518 C5517 1.524 . S
C5518 C5519 1.397 . S
C5518 C5523 1.363 . S
C5519 H5490 0.950 . S
C5519 C5518 1.397 . S
C5519 C5520 1.334 . S
C5520 H5491 0.950 . S
C5520 C5519 1.334 . S
C5520 C5521 1.287 . S
C5521 C5520 1.287 . S
C5521 C5522 1.524 . S
C5521 H5524 0.999 . S
C5522 H5492 0.950 . S
C5522 C5521 1.524 . S
C5522 C5523 1.415 . S
C5523 H5493 0.950 . S
C5523 C5518 1.363 . S
C5523 C5522 1.415 . S
H5524 C5521 0.999 . S
H5525 C5506 0.913 . S
H5526 C5544 0.951 . S
H5527 C5546 0.951 . S
H5528 C5548 0.950 . S
H5529 C5549 0.950 . S
H5530 C5551 0.950 . S
H5531 C5554 0.950 . S
H5532 C5555 0.950 . S
H5533 C5557 0.950 . S
H5534 C5558 0.950 . S
H5535 C5559 0.951 . S
H5536 C5561 0.951 . S
H5537 C5563 0.950 . S
H5538 C5564 0.950 . S
H5539 C5566 0.950 . S
H5540 C5569 0.950 . S
H5541 C5570 0.950 . S
H5542 C5572 0.950 . S
H5543 C5573 0.950 . S
C5544 H5526 0.951 . S
C5544 C5545 1.366 . S
C5544 C5546 1.388 . S
C5545 C5544 1.366 . S
C5545 C5549 1.385 . S
C5546 H5527 0.951 . S
C5546 C5544 1.388 . S
C5546 C5547 1.366 . S
C5547 C5546 1.366 . S
C5547 C5548 1.414 . S
C5547 C5550 1.499 . S
C5548 H5528 0.950 . S
C5548 C5547 1.414 . S
C5548 C5549 1.374 . S
C5549 H5529 0.950 . S
C5549 C5545 1.385 . S
C5549 C5548 1.374 . S
C5550 C5547 1.499 . S
C5550 C5551 1.373 . S
C5550 C5552 1.389 . S
C5551 H5530 0.950 . S
C5551 C5550 1.373 . S
C5551 C5567 1.377 . S
C5552 C5550 1.389 . S
C5552 C5553 1.524 . S
C5552 C5566 1.377 . S
C5553 C5552 1.524 . S
C5553 C5554 1.397 . S
C5553 C5558 1.363 . S
C5554 H5531 0.950 . S
C5554 C5553 1.397 . S
C5554 C5555 1.334 . S
C5555 H5532 0.950 . S
C5555 C5554 1.334 . S
C5555 C5556 1.287 . S
C5556 C5555 1.287 . S
C5556 C5557 1.524 . S
C5556 H5575 0.913 . S
C5557 H5533 0.950 . S
C5557 C5556 1.524 . S
C5557 C5558 1.415 . S
C5558 H5534 0.950 . S
C5558 C5553 1.363 . S
C5558 C5557 1.415 . S
C5559 H5535 0.951 . S
C5559 C5560 1.366 . S
C5559 C5561 1.388 . S
C5560 C5559 1.366 . S
C5560 C5564 1.385 . S
C5561 H5536 0.951 . S
C5561 C5559 1.388 . S
C5561 C5562 1.366 . S
C5562 C5561 1.366 . S
C5562 C5563 1.414 . S
C5562 C5565 1.499 . S
C5563 H5537 0.950 . S
C5563 C5562 1.414 . S
C5563 C5564 1.374 . S
C5564 H5538 0.950 . S
C5564 C5560 1.385 . S
C5564 C5563 1.374 . S
C5565 C5562 1.499 . S
C5565 C5566 1.373 . S
C5565 C5567 1.389 . S
C5566 H5539 0.950 . S
C5566 C5552 1.377 . S
C5566 C5565 1.373 . S
C5567 C5551 1.377 . S
C5567 C5565 1.389 . S
C5567 C5568 1.524 . S
C5568 C5567 1.524 . S
C5568 C5569 1.397 . S
C5568 C5573 1.363 1_554 S
C5569 H5540 0.950 . S
C5569 C5568 1.397 . S
C5569 C5570 1.334 . S
C5570 H5541 0.950 . S
C5570 C5569 1.334 . S
C5570 C5571 1.287 1_554 S
C5571 C5570 1.287 1_556 S
C5571 C5572 1.524 . S
C5571 H5574 0.999 . S
C5572 H5542 0.950 . S
C5572 C5571 1.524 . S
C5572 C5573 1.415 . S
C5573 H5543 0.950 . S
C5573 C5568 1.363 1_556 S
C5573 C5572 1.415 . S
H5574 C5571 0.999 . S
H5575 C5556 0.913 . S
H5576 C5594 0.951 . S
H5577 C5596 0.951 . S
H5578 C5598 0.950 . S
H5579 C5599 0.950 . S
H5580 C5601 0.950 . S
H5581 C5604 0.950 . S
H5582 C5605 0.950 . S
H5583 C5607 0.950 . S
H5584 C5608 0.950 . S
H5585 C5609 0.951 . S
H5586 C5611 0.951 . S
H5587 C5613 0.950 . S
H5588 C5614 0.950 . S
H5589 C5616 0.950 . S
H5590 C5619 0.950 . S
H5591 C5620 0.950 . S
H5592 C5622 0.950 . S
H5593 C5623 0.950 . S
C5594 H5576 0.951 . S
C5594 C5595 1.366 . S
C5594 C5596 1.388 . S
C5595 C5594 1.366 . S
C5595 C5599 1.385 . S
C5596 H5577 0.951 . S
C5596 C5594 1.388 . S
C5596 C5597 1.366 . S
C5597 C5596 1.366 . S
C5597 C5598 1.414 . S
C5597 C5600 1.499 . S
C5598 H5578 0.950 . S
C5598 C5597 1.414 . S
C5598 C5599 1.374 . S
C5599 H5579 0.950 . S
C5599 C5595 1.385 . S
C5599 C5598 1.374 . S
C5600 C5597 1.499 . S
C5600 C5601 1.373 . S
C5600 C5602 1.389 . S
C5601 H5580 0.950 . S
C5601 C5600 1.373 . S
C5601 C5617 1.377 . S
C5602 C5600 1.389 . S
C5602 C5603 1.524 . S
C5602 C5616 1.377 . S
C5603 C5602 1.524 . S
C5603 C5604 1.397 . S
C5603 C5608 1.363 . S
C5604 H5581 0.950 . S
C5604 C5603 1.397 . S
C5604 C5605 1.334 . S
C5605 H5582 0.950 . S
C5605 C5604 1.334 . S
C5605 C5606 1.287 . S
C5606 C5605 1.287 . S
C5606 C5607 1.524 . S
C5606 H5625 0.913 . S
C5607 H5583 0.950 . S
C5607 C5606 1.524 . S
C5607 C5608 1.415 . S
C5608 H5584 0.950 . S
C5608 C5603 1.363 . S
C5608 C5607 1.415 . S
C5609 H5585 0.951 . S
C5609 C5610 1.366 . S
C5609 C5611 1.388 . S
C5610 C5609 1.366 . S
C5610 C5614 1.385 . S
C5611 H5586 0.951 . S
C5611 C5609 1.388 . S
C5611 C5612 1.366 . S
C5612 C5611 1.366 . S
C5612 C5613 1.414 . S
C5612 C5615 1.499 . S
C5613 H5587 0.950 . S
C5613 C5612 1.414 . S
C5613 C5614 1.374 . S
C5614 H5588 0.950 . S
C5614 C5610 1.385 . S
C5614 C5613 1.374 . S
C5615 C5612 1.499 . S
C5615 C5616 1.373 . S
C5615 C5617 1.389 . S
C5616 H5589 0.950 . S
C5616 C5602 1.377 . S
C5616 C5615 1.373 . S
C5617 C5601 1.377 . S
C5617 C5615 1.389 . S
C5617 C5618 1.524 . S
C5618 C5617 1.524 . S
C5618 C5619 1.397 . S
C5618 C5623 1.363 . S
C5619 H5590 0.950 . S
C5619 C5618 1.397 . S
C5619 C5620 1.334 . S
C5620 H5591 0.950 . S
C5620 C5619 1.334 . S
C5620 C5621 1.287 . S
C5621 C5620 1.287 . S
C5621 C5622 1.524 . S
C5621 H5624 0.999 . S
C5622 H5592 0.950 . S
C5622 C5621 1.524 . S
C5622 C5623 1.415 . S
C5623 H5593 0.950 . S
C5623 C5618 1.363 . S
C5623 C5622 1.415 . S
H5624 C5621 0.999 . S
H5625 C5606 0.913 . S
H5626 C5644 0.951 . S
H5627 C5646 0.951 . S
H5628 C5648 0.950 1_556 S
H5629 C5649 0.950 1_556 S
H5630 C5651 0.950 . S
H5631 C5654 0.900 1_556 S
H5632 C5655 0.950 . S
H5633 C5657 0.950 . S
H5634 C5658 0.950 . S
H5635 C5659 0.951 . S
H5636 C5661 0.951 . S
H5637 C5663 0.950 . S
H5638 C5664 0.950 . S
H5639 C5666 0.950 . S
H5640 C5669 0.950 . S
H5641 C5670 0.950 . S
H5642 C5672 0.950 . S
H5643 C5673 0.950 . S
C5644 H5626 0.951 . S
C5644 C5645 1.366 . S
C5644 C5646 1.388 . S
C5645 C5644 1.366 . S
C5645 C5649 1.385 . S
C5646 H5627 0.951 . S
C5646 C5644 1.388 . S
C5646 C5647 1.366 . S
C5647 C5646 1.366 . S
C5647 C5648 1.414 . S
C5647 C5650 1.499 . S
C5648 H5628 0.950 1_554 S
C5648 C5647 1.414 . S
C5648 C5649 1.374 . S
C5649 H5629 0.950 1_554 S
C5649 C5645 1.385 . S
C5649 C5648 1.374 . S
C5650 C5647 1.499 . S
C5650 C5651 1.373 . S
C5650 C5652 1.389 . S
C5651 H5630 0.950 . S
C5651 C5650 1.373 . S
C5651 C5667 1.377 . S
C5652 C5650 1.389 . S
C5652 C5653 1.524 . S
C5652 C5666 1.377 . S
C5653 C5652 1.524 . S
C5653 C5654 1.397 . S
C5653 C5658 1.363 . S
C5654 H5631 0.900 1_554 S
C5654 C5653 1.397 . S
C5654 C5655 1.334 . S
C5655 H5632 0.950 . S
C5655 C5654 1.334 . S
C5655 C5656 1.287 . S
C5656 C5655 1.287 . S
C5656 C5657 1.524 . S
C5656 H5675 0.913 . S
C5657 H5633 0.950 . S
C5657 C5656 1.524 . S
C5657 C5658 1.415 . S
C5658 H5634 0.950 . S
C5658 C5653 1.363 . S
C5658 C5657 1.415 . S
C5659 H5635 0.951 . S
C5659 C5660 1.366 1_556 S
C5659 C5661 1.388 . S
C5660 C5659 1.366 1_554 S
C5660 C5664 1.385 . S
C5661 H5636 0.951 . S
C5661 C5659 1.388 . S
C5661 C5662 1.366 1_556 S
C5662 C5661 1.366 1_554 S
C5662 C5663 1.414 . S
C5662 C5665 1.499 . S
C5663 H5637 0.950 . S
C5663 C5662 1.414 . S
C5663 C5664 1.374 . S
C5664 H5638 0.950 . S
C5664 C5660 1.385 . S
C5664 C5663 1.374 . S
C5665 C5662 1.499 . S
C5665 C5666 1.373 . S
C5665 C5667 1.389 . S
C5666 H5639 0.950 . S
C5666 C5652 1.377 . S
C5666 C5665 1.373 . S
C5667 C5651 1.377 . S
C5667 C5665 1.389 . S
C5667 C5668 1.524 . S
C5668 C5667 1.524 . S
C5668 C5669 1.397 . S
C5668 C5673 1.363 1_554 S
C5669 H5640 0.950 . S
C5669 C5668 1.397 . S
C5669 C5670 1.334 . S
C5670 H5641 0.950 . S
C5670 C5669 1.334 . S
C5670 C5671 1.269 1_554 S
C5671 C5670 1.269 1_556 S
C5671 C5672 1.538 . S
C5671 H5674 1.006 . S
C5672 H5642 0.950 . S
C5672 C5671 1.538 . S
C5672 C5673 1.415 . S
C5673 H5643 0.950 . S
C5673 C5668 1.363 1_556 S
C5673 C5672 1.415 . S
H5674 C5671 1.006 . S
H5675 C5656 0.913 . S
H5676 C5694 0.951 . S
H5677 C5696 0.951 . S
H5678 C5698 0.950 . S
H5679 C5699 0.950 . S
H5680 C5701 0.950 . S
H5681 C5704 0.950 . S
H5682 C5705 0.950 . S
H5683 C5707 0.950 . S
H5684 C5708 0.950 . S
H5685 C5709 0.951 . S
H5686 C5711 0.951 . S
H5687 C5713 0.950 . S
H5688 C5714 0.950 . S
H5689 C5716 0.950 . S
H5690 C5719 0.950 . S
H5691 C5720 0.950 . S
H5692 C5722 0.950 . S
H5693 C5723 0.950 . S
C5694 H5676 0.951 . S
C5694 C5695 1.366 . S
C5694 C5696 1.388 . S
C5695 C5694 1.366 . S
C5695 C5699 1.385 . S
C5696 H5677 0.951 . S
C5696 C5694 1.388 . S
C5696 C5697 1.366 . S
C5697 C5696 1.366 . S
C5697 C5698 1.414 . S
C5697 C5700 1.499 . S
C5698 H5678 0.950 . S
C5698 C5697 1.414 . S
C5698 C5699 1.374 . S
C5699 H5679 0.950 . S
C5699 C5695 1.385 . S
C5699 C5698 1.374 . S
C5700 C5697 1.499 . S
C5700 C5701 1.373 . S
C5700 C5702 1.389 . S
C5701 H5680 0.950 . S
C5701 C5700 1.373 . S
C5701 C5717 1.377 . S
C5702 C5700 1.389 . S
C5702 C5703 1.524 . S
C5702 C5716 1.377 . S
C5703 C5702 1.524 . S
C5703 C5704 1.397 . S
C5703 C5708 1.363 . S
C5704 H5681 0.950 . S
C5704 C5703 1.397 . S
C5704 C5705 1.334 . S
C5705 H5682 0.950 . S
C5705 C5704 1.334 . S
C5705 C5706 1.287 . S
C5706 C5705 1.287 . S
C5706 C5707 1.524 . S
C5706 H5725 0.913 . S
C5707 H5683 0.950 . S
C5707 C5706 1.524 . S
C5707 C5708 1.415 . S
C5708 H5684 0.950 . S
C5708 C5703 1.363 . S
C5708 C5707 1.415 . S
C5709 H5685 0.951 . S
C5709 C5710 1.366 . S
C5709 C5711 1.388 . S
C5710 C5709 1.366 . S
C5710 C5714 1.385 . S
C5711 H5686 0.951 . S
C5711 C5709 1.388 . S
C5711 C5712 1.366 . S
C5712 C5711 1.366 . S
C5712 C5713 1.414 . S
C5712 C5715 1.499 . S
C5713 H5687 0.950 . S
C5713 C5712 1.414 . S
C5713 C5714 1.374 . S
C5714 H5688 0.950 . S
C5714 C5710 1.385 . S
C5714 C5713 1.374 . S
C5715 C5712 1.499 . S
C5715 C5716 1.373 . S
C5715 C5717 1.389 . S
C5716 H5689 0.950 . S
C5716 C5702 1.377 . S
C5716 C5715 1.373 . S
C5717 C5701 1.377 . S
C5717 C5715 1.389 . S
C5717 C5718 1.524 . S
C5718 C5717 1.524 . S
C5718 C5719 1.397 . S
C5718 C5723 1.363 . S
C5719 H5690 0.950 . S
C5719 C5718 1.397 . S
C5719 C5720 1.334 . S
C5720 H5691 0.950 . S
C5720 C5719 1.334 . S
C5720 C5721 1.287 . S
C5721 C5720 1.287 . S
C5721 C5722 1.524 . S
C5721 H5724 0.999 . S
C5722 H5692 0.950 . S
C5722 C5721 1.524 . S
C5722 C5723 1.415 . S
C5723 H5693 0.950 . S
C5723 C5718 1.363 . S
C5723 C5722 1.415 . S
H5724 C5721 0.999 . S
H5725 C5706 0.913 . S
H5726 C5744 0.951 . S
H5727 C5746 0.951 . S
H5728 C5748 0.950 . S
H5729 C5749 0.950 . S
H5730 C5751 0.950 . S
H5731 C5754 0.950 . S
H5732 C5755 0.950 . S
H5733 C5757 0.950 . S
H5734 C5758 0.950 . S
H5735 C5759 0.951 . S
H5736 C5761 0.951 . S
H5737 C5763 0.950 . S
H5738 C5764 0.950 . S
H5739 C5766 0.950 . S
H5740 C5769 0.950 . S
H5741 C5770 0.950 . S
H5742 C5772 0.950 . S
H5743 C5773 0.950 . S
C5744 H5726 0.951 . S
C5744 C5745 1.366 . S
C5744 C5746 1.388 . S
C5745 C5744 1.366 . S
C5745 C5749 1.385 . S
C5746 H5727 0.951 . S
C5746 C5744 1.388 . S
C5746 C5747 1.366 . S
C5747 C5746 1.366 . S
C5747 C5748 1.414 . S
C5747 C5750 1.499 . S
C5748 H5728 0.950 . S
C5748 C5747 1.414 . S
C5748 C5749 1.374 . S
C5749 H5729 0.950 . S
C5749 C5745 1.385 . S
C5749 C5748 1.374 . S
C5750 C5747 1.499 . S
C5750 C5751 1.373 . S
C5750 C5752 1.389 . S
C5751 H5730 0.950 . S
C5751 C5750 1.373 . S
C5751 C5767 1.377 . S
C5752 C5750 1.389 . S
C5752 C5753 1.524 . S
C5752 C5766 1.377 . S
C5753 C5752 1.524 . S
C5753 C5754 1.397 . S
C5753 C5758 1.363 . S
C5754 H5731 0.950 . S
C5754 C5753 1.397 . S
C5754 C5755 1.334 . S
C5755 H5732 0.950 . S
C5755 C5754 1.334 . S
C5755 C5756 1.287 . S
C5756 C5755 1.287 . S
C5756 C5757 1.524 . S
C5756 H5775 0.913 . S
C5757 H5733 0.950 . S
C5757 C5756 1.524 . S
C5757 C5758 1.415 . S
C5758 H5734 0.950 . S
C5758 C5753 1.363 . S
C5758 C5757 1.415 . S
C5759 H5735 0.951 . S
C5759 C5760 1.366 . S
C5759 C5761 1.388 . S
C5760 C5759 1.366 . S
C5760 C5764 1.385 . S
C5761 H5736 0.951 . S
C5761 C5759 1.388 . S
C5761 C5762 1.366 . S
C5762 C5761 1.366 . S
C5762 C5763 1.414 . S
C5762 C5765 1.499 . S
C5763 H5737 0.950 . S
C5763 C5762 1.414 . S
C5763 C5764 1.374 . S
C5764 H5738 0.950 . S
C5764 C5760 1.385 . S
C5764 C5763 1.374 . S
C5765 C5762 1.499 . S
C5765 C5766 1.373 . S
C5765 C5767 1.389 . S
C5766 H5739 0.950 . S
C5766 C5752 1.377 . S
C5766 C5765 1.373 . S
C5767 C5751 1.377 . S
C5767 C5765 1.389 . S
C5767 C5768 1.524 . S
C5768 C5767 1.524 . S
C5768 C5769 1.397 . S
C5768 C5773 1.363 . S
C5769 H5740 0.950 . S
C5769 C5768 1.397 . S
C5769 C5770 1.334 . S
C5770 H5741 0.950 . S
C5770 C5769 1.334 . S
C5770 C5771 1.287 . S
C5771 C5770 1.287 . S
C5771 C5772 1.524 . S
C5771 H5774 0.999 . S
C5772 H5742 0.950 . S
C5772 C5771 1.524 . S
C5772 C5773 1.415 . S
C5773 H5743 0.950 . S
C5773 C5768 1.363 . S
C5773 C5772 1.415 . S
H5774 C5771 0.999 . S
H5775 C5756 0.913 . S
C995 C105 2.291 . S
C1010 C346 2.237 . S
C1045 C65 2.071 . S
C1060 C394 2.061 . S
C1095 C73 1.139 . S
C1110 C426 1.127 . S
C1160 C471 1.594 . S
C1145 C92 1.620 . S
C1195 C17 0.938 . S
C1210 C511 0.935 . S
C1260 C546 0.828 . S
C1245 C37 0.829 . S
C1310 C585 1.216 . S
C1295 C49 1.188 . S
C1345 C8 1.209 . S
C1360 C622 1.201 . S
C1410 C354 1.981 . S
C1395 C231 1.961 . S
C1445 C241 0.334 . S
C1460 C391 0.477 . S
C1510 C434 2.448 . S
C1495 C273 2.395 . S
C1560 C466 0.952 . S
C1545 C171 0.962 . S
C1595 C227 1.080 . S
C1610 C506 1.066 . S
C1660 C554 0.451 . S
C1645 C245 0.512 . S
C1710 C595 1.848 . S
C1695 C269 1.925 . S
C1760 C625 1.929 . S
C1745 C175 1.925 . S
C1810 C351 1.112 . S
C1795 C162 1.126 1_554 S
C1845 C289 2.215 . S
C1860 C674 2.193 . S
C1910 C711 1.181 . S
C1895 C330 1.183 . S
C1960 C742 0.351 . S
C1945 C317 0.230 . S
C1995 C120 2.778 . S
C2010 C635 2.739 . S
C2045 C134 1.452 . S
C2060 C431 1.438 . S
C2095 C331 1.766 . S
C2110 C794 1.757 . S
C2160 C826 1.697 . S
C2145 C303 1.709 . S
C2210 C355 2.250 . S
C2195 C59 2.305 . S
C2260 C825 2.126 . S
C2245 C107 2.131 . S
C2295 C91 1.185 . S
C2310 C435 1.189 . S
C2345 C78 1.646 . S
C2360 C782 1.626 . S
C2410 C502 0.982 . S
C2395 C7 0.954 1_455 S
C2445 C51 0.901 . S
C2460 C715 0.901 . S
C2510 C594 1.231 . S
C2495 C31 1.248 . S
C2560 C871 1.229 . S
C2545 C22 1.230 . S
C2610 C345 2.017 . S
C2595 C143 2.027 . S
C2660 C822 0.439 . S
C2645 C315 0.530 . S
C2695 C115 2.515 . S
C2710 C425 2.490 . S
C2745 C287 1.006 . S
C2760 C795 1.014 . S
C2795 C147 1.128 . S
C2810 C515 1.134 . S
C2860 C705 0.514 . S
C2845 C311 0.502 . S
C2895 C119 1.905 . S
C2910 C586 1.907 . S
C2945 C283 1.964 . S
C2960 C874 1.943 . S
C2995 C190 1.100 . S
C3010 C342 1.097 1_556 S
C3045 C177 2.268 . S
C3060 C665 2.250 . S
C3095 C260 1.192 . S
C3110 C542 1.197 . S
C3145 C247 0.230 . S
C3160 C751 0.335 . S
C3210 C866 2.778 . S
C3195 C274 2.822 . S
C3245 C218 1.478 . S
C3260 C422 1.470 . S
C3310 C465 1.804 . S
C3295 C261 1.809 . S
C3360 C395 1.750 . S
C3345 C205 1.767 . S
C3395 C77 2.290 . S
C3410 C906 2.237 . S
C3460 C834 2.062 . S
C3445 C93 2.071 . S
C3495 C101 1.139 . S
C3510 C946 1.127 . S
C3545 C64 1.620 1_655 S
C3560 C791 1.593 . S
C3595 C45 0.938 . S
C3610 C671 0.935 . S
C3660 C706 0.828 . S
C3645 C9 0.829 . S
C3710 C745 1.216 . S
C3695 C21 1.188 . S
C3760 C862 1.201 . S
C3745 C36 1.209 . S
C3810 C914 1.981 . S
C3795 C259 1.962 . S
C3845 C185 0.337 . S
C3860 C831 0.479 . S
C3910 C954 2.447 . S
C3895 C203 2.395 . S
C3960 C786 0.951 . S
C3945 C213 0.962 . S
C4010 C666 1.065 . S
C3995 C255 1.080 . S
C4045 C189 0.515 . S
C4060 C714 0.452 . S
C4110 C755 1.847 . S
C4095 C199 1.925 . S
C4145 C217 1.925 . S
C4160 C865 1.929 . S
C4210 C911 1.112 . S
C4195 C316 1.127 . S
C4245 C135 2.215 . S
C4260 C514 2.193 . S
C4310 C551 1.181 . S
C4295 C148 1.183 . S
C4360 C582 0.349 . S
C4345 C163 0.228 . S
C4410 C875 2.739 . S
C4395 C302 2.778 . S
C4445 C288 1.452 . S
C4460 C951 1.438 . S
C4510 C474 1.757 . S
C4495 C149 1.766 . S
C4560 C386 1.697 . S
C4545 C121 1.709 . S
C4595 C87 2.305 . S
C4610 C915 2.250 . S
C4660 C385 2.127 . S
C4645 C79 2.131 . S
C4695 C63 1.185 . S
C4710 C955 1.189 . S
C4745 C106 1.646 . S
C4760 C462 1.626 . S
C4795 C35 0.973 . S
C4810 C662 0.983 . S
C4860 C555 0.902 . S
C4845 C23 0.900 . S
C4895 C3 1.248 . S
C4910 C754 1.231 . S
C4945 C50 1.230 . S
C4960 C631 1.229 . S
C5010 C905 2.018 . S
C4995 C325 2.028 . S
C5045 C161 0.530 . S
C5060 C382 0.441 . S
C5110 C945 2.490 . S
C5095 C297 2.515 . S
C5145 C133 1.007 . S
C5160 C475 1.013 . S
C5195 C329 1.129 . S
C5210 C675 1.135 . S
C5260 C545 0.513 . S
C5245 C157 0.506 . S
C5295 C301 1.905 . S
C5310 C746 1.907 1_655 S
C5360 C634 1.943 . S
C5345 C129 1.964 . S
C5410 C902 1.096 . S
C5395 C246 1.099 . S
C5460 C505 2.288 1_565 S
C5445 C219 2.268 . S
C5495 C232 1.192 . S
C5510 C702 1.196 . S
C5560 C591 0.338 . S
C5545 C191 0.230 . S
C5595 C204 2.822 . S
C5610 C626 2.778 . S
C5645 C176 1.478 . S
C5660 C942 1.470 . S
C5710 C785 1.804 . S
C5695 C233 1.809 . S
C5760 C835 1.750 . S
C5745 C275 1.767 . S
