# Generated by pormake.
# Topology gar, (4,6)-cn, num edge types: 1
# Building blocks:
#     Node 0, Type 0, BuildingBlock: QUQFOY_clean_sbu_1, # of connection points: 4
#     Node 1, Type 0, BuildingBlock: QUQFOY_clean_sbu_1, # of connection points: 4
#     Node 2, Type 0, BuildingBlock: QUQFOY_clean_sbu_1, # of connection points: 4
#     Node 3, Type 0, BuildingBlock: QUQFOY_clean_sbu_1, # of connection points: 4
#     Node 4, Type 0, BuildingBlock: QUQFOY_clean_sbu_1, # of connection points: 4
#     Node 5, Type 0, BuildingBlock: QUQFOY_clean_sbu_1, # of connection points: 4
#     Node 6, Type 0, BuildingBlock: QUQFOY_clean_sbu_1, # of connection points: 4
#     Node 7, Type 0, BuildingBlock: QUQFOY_clean_sbu_1, # of connection points: 4
#     Node 8, Type 0, BuildingBlock: QUQFOY_clean_sbu_1, # of connection points: 4
#     Node 9, Type 0, BuildingBlock: QUQFOY_clean_sbu_1, # of connection points: 4
#     Node 10, Type 0, BuildingBlock: QUQFOY_clean_sbu_1, # of connection points: 4
#     Node 11, Type 0, BuildingBlock: QUQFOY_clean_sbu_1, # of connection points: 4
#     Node 12, Type 0, BuildingBlock: QUQFOY_clean_sbu_1, # of connection points: 4
#     Node 13, Type 0, BuildingBlock: QUQFOY_clean_sbu_1, # of connection points: 4
#     Node 14, Type 0, BuildingBlock: QUQFOY_clean_sbu_1, # of connection points: 4
#     Node 15, Type 0, BuildingBlock: QUQFOY_clean_sbu_1, # of connection points: 4
#     Node 16, Type 0, BuildingBlock: QUQFOY_clean_sbu_1, # of connection points: 4
#     Node 17, Type 0, BuildingBlock: QUQFOY_clean_sbu_1, # of connection points: 4
#     Node 18, Type 0, BuildingBlock: QUQFOY_clean_sbu_1, # of connection points: 4
#     Node 19, Type 0, BuildingBlock: QUQFOY_clean_sbu_1, # of connection points: 4
#     Node 20, Type 0, BuildingBlock: QUQFOY_clean_sbu_1, # of connection points: 4
#     Node 21, Type 0, BuildingBlock: QUQFOY_clean_sbu_1, # of connection points: 4
#     Node 22, Type 0, BuildingBlock: QUQFOY_clean_sbu_1, # of connection points: 4
#     Node 23, Type 0, BuildingBlock: QUQFOY_clean_sbu_1, # of connection points: 4
#     Node 24, Type 1, BuildingBlock: NUHQIS_clean_sbu_0, # of connection points: 6
#     Node 25, Type 1, BuildingBlock: NUHQIS_clean_sbu_0, # of connection points: 6
#     Node 26, Type 1, BuildingBlock: NUHQIS_clean_sbu_0, # of connection points: 6
#     Node 27, Type 1, BuildingBlock: NUHQIS_clean_sbu_0, # of connection points: 6
#     Node 28, Type 1, BuildingBlock: NUHQIS_clean_sbu_0, # of connection points: 6
#     Node 29, Type 1, BuildingBlock: NUHQIS_clean_sbu_0, # of connection points: 6
#     Node 30, Type 1, BuildingBlock: NUHQIS_clean_sbu_0, # of connection points: 6
#     Node 31, Type 1, BuildingBlock: NUHQIS_clean_sbu_0, # of connection points: 6
#     Node 32, Type 1, BuildingBlock: NUHQIS_clean_sbu_0, # of connection points: 6
#     Node 33, Type 1, BuildingBlock: NUHQIS_clean_sbu_0, # of connection points: 6
#     Node 34, Type 1, BuildingBlock: NUHQIS_clean_sbu_0, # of connection points: 6
#     Node 35, Type 1, BuildingBlock: NUHQIS_clean_sbu_0, # of connection points: 6
#     Node 36, Type 1, BuildingBlock: NUHQIS_clean_sbu_0, # of connection points: 6
#     Node 37, Type 1, BuildingBlock: NUHQIS_clean_sbu_0, # of connection points: 6
#     Node 38, Type 1, BuildingBlock: NUHQIS_clean_sbu_0, # of connection points: 6
#     Node 39, Type 1, BuildingBlock: NUHQIS_clean_sbu_0, # of connection points: 6
#     Edge 40, Type (0, 1), BuildingBlock: XUDNAN_clean_linker_2, # of connection points: 2
#     Edge 41, Type (0, 1), BuildingBlock: XUDNAN_clean_linker_2, # of connection points: 2
#     Edge 42, Type (0, 1), BuildingBlock: XUDNAN_clean_linker_2, # of connection points: 2
#     Edge 43, Type (0, 1), BuildingBlock: XUDNAN_clean_linker_2, # of connection points: 2
#     Edge 44, Type (0, 1), BuildingBlock: XUDNAN_clean_linker_2, # of connection points: 2
#     Edge 45, Type (0, 1), BuildingBlock: XUDNAN_clean_linker_2, # of connection points: 2
#     Edge 46, Type (0, 1), BuildingBlock: XUDNAN_clean_linker_2, # of connection points: 2
#     Edge 47, Type (0, 1), BuildingBlock: XUDNAN_clean_linker_2, # of connection points: 2
#     Edge 48, Type (0, 1), BuildingBlock: XUDNAN_clean_linker_2, # of connection points: 2
#     Edge 49, Type (0, 1), BuildingBlock: XUDNAN_clean_linker_2, # of connection points: 2
#     Edge 50, Type (0, 1), BuildingBlock: XUDNAN_clean_linker_2, # of connection points: 2
#     Edge 51, Type (0, 1), BuildingBlock: XUDNAN_clean_linker_2, # of connection points: 2
#     Edge 52, Type (0, 1), BuildingBlock: XUDNAN_clean_linker_2, # of connection points: 2
#     Edge 53, Type (0, 1), BuildingBlock: XUDNAN_clean_linker_2, # of connection points: 2
#     Edge 54, Type (0, 1), BuildingBlock: XUDNAN_clean_linker_2, # of connection points: 2
#     Edge 55, Type (0, 1), BuildingBlock: XUDNAN_clean_linker_2, # of connection points: 2
#     Edge 56, Type (0, 1), BuildingBlock: XUDNAN_clean_linker_2, # of connection points: 2
#     Edge 57, Type (0, 1), BuildingBlock: XUDNAN_clean_linker_2, # of connection points: 2
#     Edge 58, Type (0, 1), BuildingBlock: XUDNAN_clean_linker_2, # of connection points: 2
#     Edge 59, Type (0, 1), BuildingBlock: XUDNAN_clean_linker_2, # of connection points: 2
#     Edge 60, Type (0, 1), BuildingBlock: XUDNAN_clean_linker_2, # of connection points: 2
#     Edge 61, Type (0, 1), BuildingBlock: XUDNAN_clean_linker_2, # of connection points: 2
#     Edge 62, Type (0, 1), BuildingBlock: XUDNAN_clean_linker_2, # of connection points: 2
#     Edge 63, Type (0, 1), BuildingBlock: XUDNAN_clean_linker_2, # of connection points: 2
#     Edge 64, Type (0, 1), BuildingBlock: XUDNAN_clean_linker_2, # of connection points: 2
#     Edge 65, Type (0, 1), BuildingBlock: XUDNAN_clean_linker_2, # of connection points: 2
#     Edge 66, Type (0, 1), BuildingBlock: XUDNAN_clean_linker_2, # of connection points: 2
#     Edge 67, Type (0, 1), BuildingBlock: XUDNAN_clean_linker_2, # of connection points: 2
#     Edge 68, Type (0, 1), BuildingBlock: XUDNAN_clean_linker_2, # of connection points: 2
#     Edge 69, Type (0, 1), BuildingBlock: XUDNAN_clean_linker_2, # of connection points: 2
#     Edge 70, Type (0, 1), BuildingBlock: XUDNAN_clean_linker_2, # of connection points: 2
#     Edge 71, Type (0, 1), BuildingBlock: XUDNAN_clean_linker_2, # of connection points: 2
#     Edge 72, Type (0, 1), BuildingBlock: XUDNAN_clean_linker_2, # of connection points: 2
#     Edge 73, Type (0, 1), BuildingBlock: XUDNAN_clean_linker_2, # of connection points: 2
#     Edge 74, Type (0, 1), BuildingBlock: XUDNAN_clean_linker_2, # of connection points: 2
#     Edge 75, Type (0, 1), BuildingBlock: XUDNAN_clean_linker_2, # of connection points: 2
#     Edge 76, Type (0, 1), BuildingBlock: XUDNAN_clean_linker_2, # of connection points: 2
#     Edge 77, Type (0, 1), BuildingBlock: XUDNAN_clean_linker_2, # of connection points: 2
#     Edge 78, Type (0, 1), BuildingBlock: XUDNAN_clean_linker_2, # of connection points: 2
#     Edge 79, Type (0, 1), BuildingBlock: XUDNAN_clean_linker_2, # of connection points: 2
#     Edge 80, Type (0, 1), BuildingBlock: XUDNAN_clean_linker_2, # of connection points: 2
#     Edge 81, Type (0, 1), BuildingBlock: XUDNAN_clean_linker_2, # of connection points: 2
#     Edge 82, Type (0, 1), BuildingBlock: XUDNAN_clean_linker_2, # of connection points: 2
#     Edge 83, Type (0, 1), BuildingBlock: XUDNAN_clean_linker_2, # of connection points: 2
#     Edge 84, Type (0, 1), BuildingBlock: XUDNAN_clean_linker_2, # of connection points: 2
#     Edge 85, Type (0, 1), BuildingBlock: XUDNAN_clean_linker_2, # of connection points: 2
#     Edge 86, Type (0, 1), BuildingBlock: XUDNAN_clean_linker_2, # of connection points: 2
#     Edge 87, Type (0, 1), BuildingBlock: XUDNAN_clean_linker_2, # of connection points: 2
#     Edge 88, Type (0, 1), BuildingBlock: XUDNAN_clean_linker_2, # of connection points: 2
#     Edge 89, Type (0, 1), BuildingBlock: XUDNAN_clean_linker_2, # of connection points: 2
#     Edge 90, Type (0, 1), BuildingBlock: XUDNAN_clean_linker_2, # of connection points: 2
#     Edge 91, Type (0, 1), BuildingBlock: XUDNAN_clean_linker_2, # of connection points: 2
#     Edge 92, Type (0, 1), BuildingBlock: XUDNAN_clean_linker_2, # of connection points: 2
#     Edge 93, Type (0, 1), BuildingBlock: XUDNAN_clean_linker_2, # of connection points: 2
#     Edge 94, Type (0, 1), BuildingBlock: XUDNAN_clean_linker_2, # of connection points: 2
#     Edge 95, Type (0, 1), BuildingBlock: XUDNAN_clean_linker_2, # of connection points: 2
#     Edge 96, Type (0, 1), BuildingBlock: XUDNAN_clean_linker_2, # of connection points: 2
#     Edge 97, Type (0, 1), BuildingBlock: XUDNAN_clean_linker_2, # of connection points: 2
#     Edge 98, Type (0, 1), BuildingBlock: XUDNAN_clean_linker_2, # of connection points: 2
#     Edge 99, Type (0, 1), BuildingBlock: XUDNAN_clean_linker_2, # of connection points: 2
#     Edge 100, Type (0, 1), BuildingBlock: XUDNAN_clean_linker_2, # of connection points: 2
#     Edge 101, Type (0, 1), BuildingBlock: XUDNAN_clean_linker_2, # of connection points: 2
#     Edge 102, Type (0, 1), BuildingBlock: XUDNAN_clean_linker_2, # of connection points: 2
#     Edge 103, Type (0, 1), BuildingBlock: XUDNAN_clean_linker_2, # of connection points: 2
#     Edge 104, Type (0, 1), BuildingBlock: XUDNAN_clean_linker_2, # of connection points: 2
#     Edge 105, Type (0, 1), BuildingBlock: XUDNAN_clean_linker_2, # of connection points: 2
#     Edge 106, Type (0, 1), BuildingBlock: XUDNAN_clean_linker_2, # of connection points: 2
#     Edge 107, Type (0, 1), BuildingBlock: XUDNAN_clean_linker_2, # of connection points: 2
#     Edge 108, Type (0, 1), BuildingBlock: XUDNAN_clean_linker_2, # of connection points: 2
#     Edge 109, Type (0, 1), BuildingBlock: XUDNAN_clean_linker_2, # of connection points: 2
#     Edge 110, Type (0, 1), BuildingBlock: XUDNAN_clean_linker_2, # of connection points: 2
#     Edge 111, Type (0, 1), BuildingBlock: XUDNAN_clean_linker_2, # of connection points: 2
#     Edge 112, Type (0, 1), BuildingBlock: XUDNAN_clean_linker_2, # of connection points: 2
#     Edge 113, Type (0, 1), BuildingBlock: XUDNAN_clean_linker_2, # of connection points: 2
#     Edge 114, Type (0, 1), BuildingBlock: XUDNAN_clean_linker_2, # of connection points: 2
#     Edge 115, Type (0, 1), BuildingBlock: XUDNAN_clean_linker_2, # of connection points: 2
#     Edge 116, Type (0, 1), BuildingBlock: XUDNAN_clean_linker_2, # of connection points: 2
#     Edge 117, Type (0, 1), BuildingBlock: XUDNAN_clean_linker_2, # of connection points: 2
#     Edge 118, Type (0, 1), BuildingBlock: XUDNAN_clean_linker_2, # of connection points: 2
#     Edge 119, Type (0, 1), BuildingBlock: XUDNAN_clean_linker_2, # of connection points: 2
#     Edge 120, Type (0, 1), BuildingBlock: XUDNAN_clean_linker_2, # of connection points: 2
#     Edge 121, Type (0, 1), BuildingBlock: XUDNAN_clean_linker_2, # of connection points: 2
#     Edge 122, Type (0, 1), BuildingBlock: XUDNAN_clean_linker_2, # of connection points: 2
#     Edge 123, Type (0, 1), BuildingBlock: XUDNAN_clean_linker_2, # of connection points: 2
#     Edge 124, Type (0, 1), BuildingBlock: XUDNAN_clean_linker_2, # of connection points: 2
#     Edge 125, Type (0, 1), BuildingBlock: XUDNAN_clean_linker_2, # of connection points: 2
#     Edge 126, Type (0, 1), BuildingBlock: XUDNAN_clean_linker_2, # of connection points: 2
#     Edge 127, Type (0, 1), BuildingBlock: XUDNAN_clean_linker_2, # of connection points: 2
#     Edge 128, Type (0, 1), BuildingBlock: XUDNAN_clean_linker_2, # of connection points: 2
#     Edge 129, Type (0, 1), BuildingBlock: XUDNAN_clean_linker_2, # of connection points: 2
#     Edge 130, Type (0, 1), BuildingBlock: XUDNAN_clean_linker_2, # of connection points: 2
#     Edge 131, Type (0, 1), BuildingBlock: XUDNAN_clean_linker_2, # of connection points: 2
#     Edge 132, Type (0, 1), BuildingBlock: XUDNAN_clean_linker_2, # of connection points: 2
#     Edge 133, Type (0, 1), BuildingBlock: XUDNAN_clean_linker_2, # of connection points: 2
#     Edge 134, Type (0, 1), BuildingBlock: XUDNAN_clean_linker_2, # of connection points: 2
#     Edge 135, Type (0, 1), BuildingBlock: XUDNAN_clean_linker_2, # of connection points: 2
# Relax obj value: 0.224
# Max RMSD: 0.326
# Mean RMSD: 0.172
data_MOF--net-gar--node1-QUQFOY_clean_sbu_1--node2-NUHQIS_clean_sbu_0--edge1-XUDNAN_clean_linker_2
_symmetry_space_group_name_H-M    P1
_symmetry_Int_Tables_number       1
_symmetry_cell_setting            triclinic
loop_
_symmetry_equiv_pos_as_xyz
'x, y, z'
_cell_length_a     58.308593
_cell_length_b     61.320572
_cell_length_c     58.401142
_cell_angle_alpha  93.972573
_cell_angle_beta   96.919743
_cell_angle_gamma 102.98439
loop_
_atom_site_label
_atom_site_type_symbol
_atom_site_fract_x
_atom_site_fract_y
_atom_site_fract_z
_atom_type_partial_charge
O0 O 0.08643 0.25615 0.42706 0.0
Cd1 Cd 0.09099 0.27761 0.39792 0.0
Cd2 Cd 0.06391 0.30836 0.4422 0.0
O3 O 0.07153 0.27462 0.4545 0.0
O4 O 0.1081 0.26305 0.37218 0.0
O5 O 0.12622 0.29495 0.39079 0.0
C6 C 0.1271 0.27921 0.37522 0.0
C7 C 0.06454 0.34781 0.46356 0.0
C8 C 0.07867 0.2567 0.44702 0.0
C9 C 0.03853 0.29222 0.38895 0.0
O10 O 0.03985 0.30139 0.4098 0.0
O11 O 0.05587 0.28389 0.38273 0.0
O12 O 0.04982 0.32913 0.46606 0.0
O13 O 0.08012 0.34458 0.45046 0.0
O14 O 0.04198 0.76295 0.64273 0.0
Cd15 Cd 0.04206 0.78837 0.67147 0.0
Cd16 Cd 0.07401 0.81977 0.63226 0.0
O17 O 0.06106 0.7828 0.61666 0.0
O18 O 1.01619 0.77679 0.69462 0.0
O19 O 1.01549 0.80658 0.6772 0.0
C20 C 1.00584 0.79314 0.69137 0.0
C21 C 0.07185 0.85856 0.61621 0.0
C22 C 0.05097 0.76333 0.62343 0.0
C23 C 0.09976 0.8103 0.68169 0.0
O24 O 0.1005 0.81945 0.66235 0.0
O25 O 0.07953 0.79987 0.68736 0.0
O26 O 0.08596 0.84645 0.60975 0.0
O27 O 0.05853 0.84883 0.6306 0.0
O28 O 0.62532 0.79715 0.91376 0.0
Cd29 Cd 0.60354 0.7932 0.94323 0.0
Cd30 Cd 0.57222 0.81941 0.8989 0.0
O31 O 0.60539 0.81278 0.88647 0.0
O32 O 0.61456 0.76965 0.96735 0.0
O33 O 0.5819 0.75919 0.94418 0.0
C34 C 0.59638 0.75319 0.95984 0.0
C35 C 0.53235 0.81739 0.87454 0.0
C36 C 0.62386 0.80503 0.89361 0.0
C37 C 0.58892 0.84504 0.95055 0.0
O38 O 0.57944 0.84346 0.92923 0.0
O39 O 0.59728 0.82807 0.95815 0.0
O40 O 0.55147 0.83265 0.8737 0.0
O41 O 0.53552 0.80226 0.88814 0.0
O42 O 0.55902 0.25465 0.14506 0.0
Cd43 Cd 0.55814 0.28039 0.17339 0.0
Cd44 Cd 0.59031 0.31195 0.13543 0.0
O45 O 0.57851 0.27491 0.11957 0.0
O46 O 0.5346 0.26683 0.19725 0.0
O47 O 0.52857 0.29539 0.18011 0.0
C48 C 0.52148 0.2812 0.19464 0.0
C49 C 0.59073 0.35035 0.11706 0.0
C50 C 0.56854 0.25525 0.12603 0.0
C51 C 0.61587 0.3023 0.18471 0.0
O52 O 0.61689 0.31158 0.16546 0.0
O53 O 0.59545 0.29197 0.19004 0.0
O54 O 0.60409 0.33679 0.11242 0.0
O55 O 0.57634 0.34244 0.13135 0.0
O56 O 0.14302 0.83789 0.18297 0.0
Cd57 Cd 0.148 0.87199 0.19025 0.0
Cd58 Cd 0.1463 0.86515 0.13685 0.0
O59 O 0.13554 0.83194 0.14444 0.0
O60 O 0.14275 0.88009 0.22234 0.0
O61 O 0.11819 0.88222 0.19066 0.0
C62 C 0.12297 0.88403 0.21303 0.0
C63 C 0.12181 0.88521 0.11802 0.0
C64 C 0.13743 0.82459 0.16438 0.0
C65 C 0.18771 0.88223 0.16651 0.0
O66 O 0.18249 0.87844 0.14473 0.0
O67 O 0.17436 0.89238 0.17648 0.0
O68 O 0.13285 0.87308 0.10642 0.0
O69 O 0.12432 0.88546 0.14037 0.0
O70 O 0.58186 0.7388 0.40174 0.0
Cd71 Cd 0.55838 0.74143 0.42499 0.0
Cd72 Cd 0.53724 0.75929 0.38114 0.0
O73 O 0.56591 0.75001 0.36963 0.0
O74 O 0.57708 0.73488 0.4534 0.0
O75 O 0.54213 0.7134 0.43843 0.0
C76 C 0.5604 0.7174 0.45429 0.0
C77 C 0.5027 0.75506 0.35493 0.0
C78 C 0.5822 0.74258 0.38065 0.0
C79 C 0.54833 0.78848 0.42669 0.0
O80 O 0.54309 0.78692 0.40481 0.0
O81 O 0.55341 0.7722 0.43688 0.0
O82 O 0.52199 0.76926 0.35263 0.0
O83 O 0.50303 0.74254 0.3718 0.0
O84 O 0.64071 0.34278 0.63257 0.0
Cd85 Cd 0.6467 0.3704 0.65649 0.0
Cd86 Cd 0.67843 0.38638 0.62754 0.0
O87 O 0.67095 0.35354 0.61338 0.0
O88 O 0.62547 0.35732 0.67877 0.0
O89 O 0.62068 0.38687 0.66111 0.0
C90 C 0.6137 0.37242 0.67534 0.0
C91 C 0.65962 0.41049 0.60808 0.0
C92 C 0.65351 0.33849 0.61751 0.0
C93 C 0.6999 0.38733 0.67551 0.0
O94 O 0.70443 0.39446 0.6562 0.0
O95 O 0.67874 0.37778 0.67802 0.0
O96 O 0.67948 0.40709 0.6026 0.0
O97 O 0.65131 0.4011 0.62547 0.0
O98 O 0.04352 0.21294 0.91489 0.0
Cd99 Cd 0.03371 0.23241 0.8894 0.0
Cd100 Cd 1.00952 0.24365 0.92573 0.0
O101 O 1.02453 0.22168 0.94358 0.0
O102 O 0.0547 0.22901 0.8652 0.0
O103 O 0.05749 0.261 0.88635 0.0
C104 C 0.06541 0.24984 0.87084 0.0
C105 C 1.02427 0.28219 0.93256 0.0
C106 C 0.03835 0.2109 0.93531 0.0
C107 C 0.97961 0.22577 0.8808 0.0
O108 O 0.97973 0.23088 0.90228 0.0
O109 O 0.99894 0.22647 0.87242 0.0
O110 O 1.00868 0.27199 0.94463 0.0
O111 O 0.03138 0.27029 0.91704 0.0
O112 O 0.53478 0.07985 0.28539 0.0
Cd113 Cd 0.5072 0.08429 0.30258 0.0
Cd114 Cd 0.54227 0.08413 0.34139 0.0
O115 O 0.56169 0.07918 0.31517 0.0
O116 O 0.48301 0.08649 0.2762 0.0
O117 O 0.49545 0.11282 0.30562 0.0
C118 C 0.48172 0.10537 0.28633 0.0
C119 C 0.56355 0.10456 0.37565 0.0
C120 C 0.5552 0.07746 0.29347 0.0
C121 C 0.49664 0.04819 0.33497 0.0
O122 O 0.51654 0.05682 0.34723 0.0
O123 O 0.49003 0.05674 0.31686 0.0
O124 O 0.56665 0.08532 0.36839 0.0
O125 O 0.54852 0.11286 0.36305 0.0
O126 O 0.36071 0.18339 0.57775 0.0
Cd127 Cd 0.35868 0.15471 0.55276 0.0
Cd128 Cd 0.33105 0.19377 0.52435 0.0
O129 O 0.34344 0.20876 0.56093 0.0
O130 O 0.37838 0.13339 0.56961 0.0
O131 O 0.3895 0.14744 0.53882 0.0
C132 C 0.39382 0.13525 0.55527 0.0
C133 C 0.33166 0.21293 0.48644 0.0
C134 C 0.35347 0.20184 0.57928 0.0
C135 C 0.30137 0.14497 0.53355 0.0
O136 O 0.30315 0.16456 0.52617 0.0
O137 O 0.32022 0.13844 0.54192 0.0
O138 O 0.3189 0.21653 0.50233 0.0
O139 O 0.34482 0.19912 0.49177 0.0
O140 O 0.24789 0.06263 0.81796 0.0
Cd141 Cd 0.27083 0.07179 0.84864 0.0
Cd142 Cd 0.23619 0.08644 0.86385 0.0
O143 O 0.22317 0.0822 0.82913 0.0
O144 O 0.29799 0.0584 0.84439 0.0
O145 O 0.27547 0.04982 0.87191 0.0
C146 C 0.29356 0.04749 0.86203 0.0
C147 C 0.20947 0.06864 0.88696 0.0
C148 C 0.22977 0.07065 0.8134 0.0
C149 C 0.28134 0.12011 0.86812 0.0
O150 O 0.26144 0.1156 0.87568 0.0
O151 O 0.28754 0.10517 0.85581 0.0
O152 O 0.20786 0.08745 0.87909 0.0
O153 O 0.22718 0.06035 0.8826 0.0
O154 O 0.34227 0.88966 0.08645 0.0
Cd155 Cd 0.34219 0.90903 0.0588 0.0
Cd156 Cd 0.35151 0.86925 0.0386 0.0
O157 O 0.34089 0.85586 0.0699 0.0
O158 O 0.33761 0.93694 0.07541 0.0
O159 O 0.31194 0.91828 0.04605 0.0
C160 C 0.31805 0.93503 0.06191 0.0
C161 C 0.33653 0.85541 0.99879 0.0
C162 C 0.34069 0.8688 0.08805 0.0
C163 C 0.3907 0.91157 0.04527 0.0
O164 O 0.38577 0.89013 0.04318 0.0
O165 O 0.37468 0.92205 0.04842 0.0
O166 O 0.34894 0.845 0.01202 0.0
O167 O 0.33115 0.87291 1.00836 0.0
O168 O 0.31213 0.41251 0.08785 0.0
Cd169 Cd 0.3114 0.4408 0.06648 0.0
Cd170 Cd 0.33697 0.39806 0.03779 0.0
O171 O 0.32668 0.38508 0.07154 0.0
O172 O 0.29529 0.46444 0.08346 0.0
O173 O 0.27761 0.44665 0.05076 0.0
C174 C 0.27686 0.46105 0.06775 0.0
C175 C 0.33699 0.37633 0.99893 0.0
C176 C 0.31809 0.39336 0.08895 0.0
C177 C 0.36552 0.45034 0.05028 0.0
O178 O 0.36314 0.42961 0.04272 0.0
O179 O 0.34797 0.45685 0.05845 0.0
O180 O 0.35157 0.37619 0.01743 0.0
O181 O 0.32107 0.38743 1.00227 0.0
O182 O 0.82655 0.21324 0.06924 0.0
Cd183 Cd 0.82358 0.19193 0.03885 0.0
Cd184 Cd 0.80174 0.22456 0.0201 0.0
O185 O 0.81498 0.24152 0.05351 0.0
O186 O 0.844 0.17022 0.04567 0.0
O187 O 0.85004 0.19394 0.01905 0.0
C188 C 0.85586 0.17762 0.02942 0.0
C189 C 0.80495 0.24168 0.98476 0.0
C190 C 0.82286 0.23296 0.07134 0.0
C191 C 0.77164 0.17723 0.01951 0.0
O192 O 0.77186 0.19784 0.01775 0.0
O193 O 0.79068 0.1713 0.02612 0.0
O194 O 0.79071 0.24588 0.99886 0.0
O195 O 0.8187 0.22876 0.99129 0.0
O196 O 0.10595 0.44809 0.21449 0.0
Cd197 Cd 0.13045 0.46629 0.24173 0.0
Cd198 Cd 0.0918 0.48384 0.24494 0.0
O199 O 0.07386 0.45347 0.22789 0.0
O200 O 0.15827 0.45259 0.24224 0.0
O201 O 0.13862 0.45403 0.27216 0.0
C202 C 0.15609 0.4486 0.26332 0.0
C203 C 0.07535 0.50204 0.27268 0.0
C204 C 0.0834 0.44424 0.21269 0.0
C205 C 0.13296 0.51217 0.2279 0.0
O206 O 0.11048 0.50687 0.22609 0.0
O207 O 0.14502 0.49936 0.23704 0.0
O208 O 0.06616 0.49899 0.2512 0.0
O209 O 0.09306 0.49326 0.27875 0.0
O210 O 0.80726 0.91532 0.59196 0.0
Cd211 Cd 0.80558 0.94302 0.56966 0.0
Cd212 Cd 0.83163 0.9014 0.53828 0.0
O213 O 0.82083 0.88899 0.57212 0.0
O214 O 0.78943 0.96723 0.58532 0.0
O215 O 0.77165 0.94787 0.55335 0.0
C216 C 0.77103 0.96317 0.56951 0.0
C217 C 0.83394 0.87894 0.50025 0.0
C218 C 0.81328 0.89615 0.59085 0.0
C219 C 0.85878 0.95385 0.55165 0.0
O220 O 0.85687 0.93343 0.54332 0.0
O221 O 0.84131 0.95951 0.56072 0.0
O222 O 0.84792 0.87966 0.51939 0.0
O223 O 0.81741 0.88958 0.50242 0.0
O224 O 0.93092 0.03914 0.18102 0.0
Cd225 Cd 0.91392 0.02792 0.2087 0.0
Cd226 Cd 0.95865 0.03132 0.23123 0.0
O227 O 0.96636 0.0399 0.19966 0.0
O228 O 0.88707 0.04194 0.21429 0.0
O229 O 0.92138 0.04861 0.23761 0.0
C230 C 0.90041 0.05218 0.233 0.0
C231 C 0.98748 0.05011 0.26163 0.0
C232 C 0.95332 0.04253 0.18158 0.0
C233 C 0.92297 0.98598 0.22541 0.0
O234 O 0.94317 0.9983 0.23398 0.0
O235 O 0.90763 0.99419 0.2138 0.0
O236 O 0.99099 0.03407 0.24813 0.0
O237 O 0.96728 0.05546 0.25816 0.0
O238 O 0.31666 0.72175 0.56613 0.0
Cd239 Cd 0.30961 0.69745 0.53805 0.0
Cd240 Cd 0.28203 0.72903 0.52162 0.0
O241 O 0.29632 0.74661 0.55537 0.0
O242 O 0.32341 0.67424 0.55341 0.0
O243 O 0.33558 0.68745 0.52191 0.0
C244 C 0.33678 0.67377 0.53757 0.0
C245 C 0.29191 0.73762 0.48397 0.0
C246 C 0.30976 0.73964 0.57084 0.0
C247 C 0.25489 0.68207 0.5251 0.0
O248 O 0.25285 0.70182 0.52131 0.0
O249 O 0.2753 0.6783 0.53057 0.0
O250 O 0.27727 0.747 0.4937 0.0
O251 O 0.30212 0.72474 0.49622 0.0
O252 O 0.40269 0.54421 0.68184 0.0
Cd253 Cd 0.38245 0.53118 0.70626 0.0
Cd254 Cd 0.42531 0.5313 0.7335 0.0
O255 O 0.43592 0.5479 0.70594 0.0
O256 O 0.3571 0.54705 0.71221 0.0
O257 O 0.39005 0.5494 0.73656 0.0
C258 C 0.37032 0.55532 0.73165 0.0
C259 C 0.45112 0.54394 0.76771 0.0
C260 C 0.42507 0.55119 0.68679 0.0
C261 C 0.38762 0.48701 0.71939 0.0
O262 O 0.40773 0.49775 0.73007 0.0
O263 O 0.37399 0.49718 0.70803 0.0
O264 O 0.4561 0.53087 0.7518 0.0
O265 O 0.43114 0.54973 0.7644 0.0
O266 O 0.63378 0.95156 0.72403 0.0
Cd267 Cd 0.64558 0.96502 0.7579 0.0
Cd268 Cd 0.60107 0.96653 0.75982 0.0
O269 O 0.59634 0.95147 0.7266 0.0
O270 O 0.67595 0.95757 0.76959 0.0
O271 O 0.64246 0.94585 0.78435 0.0
C272 C 0.66492 0.94704 0.78493 0.0
C273 C 0.57447 0.95197 0.78457 0.0
C274 C 0.61214 0.94741 0.71486 0.0
C275 C 0.63708 1.01084 0.76613 0.0
O276 O 0.61532 1.00096 0.76528 0.0
O277 O 0.65242 0.99941 0.76373 0.0
O278 O 0.56851 0.96331 0.76802 0.0
O279 O 0.59552 0.94826 0.78665 0.0
O280 O 0.86851 0.68795 0.08011 0.0
Cd281 Cd 0.86658 0.65878 0.05532 0.0
Cd282 Cd 0.8361 0.6986 0.02753 0.0
O283 O 0.84965 0.71289 0.06422 0.0
O284 O 0.88935 0.63778 0.06939 0.0
O285 O 0.89514 0.65275 0.03761 0.0
C286 C 0.90221 0.64034 0.05276 0.0
C287 C 0.83792 0.7169 0.98905 0.0
C288 C 0.86074 0.70616 0.08214 0.0
C289 C 0.8091 0.64798 0.03587 0.0
O290 O 0.80997 0.66769 0.02897 0.0
O291 O 0.82836 0.6421 0.0442 0.0
O292 O 0.82348 0.72025 1.00341 0.0
O293 O 0.85167 0.70421 0.99649 0.0
O294 O 1.00759 0.61706 0.81888 0.0
Cd295 Cd 0.98868 0.60889 0.84602 0.0
Cd296 Cd 0.03056 0.5956 0.86142 0.0
O297 O 0.04014 0.6061 0.83075 0.0
O298 O 0.9576 0.61353 0.83239 0.0
O299 O 0.97817 0.6335 0.86413 0.0
C300 C 0.95936 0.629 0.8489 0.0
C301 C 0.05591 0.61139 0.89497 0.0
C302 C 1.02804 0.61451 0.81576 0.0
C303 C 0.98648 0.56001 0.8564 0.0
O304 O 1.00897 0.56385 0.86071 0.0
O305 O 0.97644 0.57572 0.8513 0.0
O306 O 0.061 0.59659 0.8809 0.0
O307 O 0.03605 0.61722 0.89007 0.0
O308 O 0.82197 0.37274 0.58548 0.0
Cd309 Cd 0.81893 0.39864 0.56571 0.0
Cd310 Cd 0.84323 0.36976 0.53546 0.0
O311 O 0.83762 0.35029 0.56396 0.0
O312 O 0.80476 0.41616 0.58804 0.0
O313 O 0.78681 0.40408 0.5526 0.0
C314 C 0.78669 0.41445 0.57255 0.0
C315 C 0.83823 0.35168 0.49683 0.0
C316 C 0.82963 0.35506 0.58269 0.0
C317 C 0.8681 0.41912 0.553 0.0
O318 O 0.86862 0.4006 0.54187 0.0
O319 O 0.85012 0.42113 0.56259 0.0
O320 O 0.85556 0.35067 0.51234 0.0
O321 O 0.82312 0.36259 0.50314 0.0
O322 O 0.69374 0.55375 0.31953 0.0
Cd323 Cd 0.72582 0.56246 0.34114 0.0
Cd324 Cd 0.70388 0.59009 0.36372 0.0
O325 O 0.67644 0.57695 0.33763 0.0
O326 O 0.74404 0.5416 0.32946 0.0
O327 O 0.73399 0.5419 0.36483 0.0
C328 C 0.74476 0.53384 0.34938 0.0
C329 C 0.6924 0.59122 0.40021 0.0
C330 C 0.67579 0.56194 0.32134 0.0
C331 C 0.74808 0.6123 0.34639 0.0
O332 O 0.73124 0.61522 0.35716 0.0
O333 O 0.74901 0.59268 0.33879 0.0
O334 O 0.68872 0.60563 0.38602 0.0
O335 O 0.7035 0.57629 0.39392 0.0
Tb336 Tb 0.04553 0.03528 1.00867 0.0
Eu337 Eu 0.09888 0.05082 0.04009 0.0
C338 C 0.0903 0.03081 0.98632 0.0
C339 C 0.06909 1.00115 0.03486 0.0
C340 C 0.98679 0.04365 0.99074 0.0
C341 C 0.96639 0.07014 0.97282 0.0
C342 C 0.97951 0.05366 0.97107 0.0
C343 C 0.98015 0.05016 0.01211 0.0
C344 C 0.9672 0.06667 0.01389 0.0
C345 C 0.96028 0.07707 0.99433 0.0
C346 C 1.00322 0.02835 0.98947 0.0
O347 O 0.04387 0.0595 0.03662 0.0
O348 O 0.07098 0.05097 0.06374 0.0
O349 O 0.09034 0.08331 0.03087 0.0
O350 O 0.06208 0.06823 0.9992 0.0
C351 C 0.05182 0.0584 0.05824 0.0
O352 O 0.1216 0.04772 0.07154 0.0
O353 O 0.13645 0.06836 0.04576 0.0
O354 O 0.10363 0.04544 1.0028 0.0
O355 O 0.06784 0.02132 0.98715 0.0
O356 O 0.04983 1.00891 0.03129 0.0
O357 O 0.08976 1.01348 0.03211 0.0
C358 C 0.07673 0.08545 0.01194 0.0
O359 O 1.02143 0.03511 0.97861 0.0
O360 O 1.00944 0.02017 1.00868 0.0
C361 C 0.16091 0.04768 0.06535 0.0
C362 C 0.19963 0.02691 0.06734 0.0
C363 C 0.20344 0.05048 0.07081 0.0
C364 C 0.18427 0.06074 0.06989 0.0
C365 C 0.15694 0.02417 0.06136 0.0
C366 C 0.17612 1.01389 0.06243 0.0
C367 C 0.14092 0.05879 0.06453 0.0
H368 H 0.9611 0.07749 0.95729 0.0
H369 H 0.98441 0.04908 0.9544 0.0
H370 H 0.98553 0.04298 0.02772 0.0
H371 H 0.96323 0.07172 0.03082 0.0
H372 H 0.22129 0.06108 0.07417 0.0
H373 H 0.18769 0.0789 0.07275 0.0
H374 H 0.13903 1.01373 0.0576 0.0
H375 H 0.17252 0.99573 0.0599 0.0
Tb376 Tb 0.31423 0.80994 0.29428 0.0
Eu377 Eu 0.29949 0.76162 0.26276 0.0
C378 C 0.26251 0.79184 0.26607 0.0
C379 C 0.29611 0.76708 0.31795 0.0
C380 C 0.34694 0.86539 0.32582 0.0
C381 C 0.38132 0.89048 0.31475 0.0
C382 C 0.3623 0.8717 0.30946 0.0
C383 C 0.35128 0.87748 0.34777 0.0
C384 C 0.37042 0.89616 0.35314 0.0
C385 C 0.38534 0.90304 0.33653 0.0
C386 C 0.32613 0.8465 0.32025 0.0
O387 O 0.34393 0.79387 0.30055 0.0
O388 O 0.33909 0.77287 0.26573 0.0
O389 O 0.30613 0.78777 0.23726 0.0
O390 O 0.32934 0.81745 0.26195 0.0
C391 C 0.35223 0.78224 0.28516 0.0
O392 O 0.30141 0.72638 0.25846 0.0
O393 O 0.28279 0.7405 0.23102 0.0
O394 O 0.26483 0.77103 0.26577 0.0
O395 O 0.28026 0.80897 0.27406 0.0
O396 O 0.29243 0.78703 0.31458 0.0
O397 O 0.30237 0.7553 0.30103 0.0
C398 C 0.3206 0.80788 0.24069 0.0
O399 O 0.3147 0.84422 0.29933 0.0
O400 O 0.32889 0.82734 0.3269 0.0
C401 C 0.26975 0.7017 0.23381 0.0
C402 C 0.23431 0.66151 0.22394 0.0
C403 C 0.2578 0.66202 0.22027 0.0
C404 C 0.27536 0.68197 0.22516 0.0
C405 C 0.24635 0.70136 0.23752 0.0
C406 C 0.22871 0.68139 0.23255 0.0
C407 C 0.28846 0.72249 0.23814 0.0
H408 H 0.39276 0.89532 0.30176 0.0
H409 H 0.35936 0.86235 0.29251 0.0
H410 H 0.33961 0.87269 0.3606 0.0
H411 H 0.37305 0.90567 0.36997 0.0
H412 H 0.26258 0.64702 0.21344 0.0
H413 H 0.29333 0.68203 0.22207 0.0
H414 H 0.24174 0.7165 0.24422 0.0
H415 H 0.21082 0.68141 0.23581 0.0
Tb416 Tb 0.57398 0.03848 0.53904 0.0
Eu417 Eu 0.59926 0.07439 0.58165 0.0
C418 C 0.5802 0.02255 0.58892 0.0
C419 C 0.5438 0.07141 0.56164 0.0
C420 C 0.5514 0.98673 0.4999 0.0
C421 C 0.56428 0.95313 0.50943 0.0
C422 C 0.56574 0.97604 0.51404 0.0
C423 C 0.53542 0.97431 0.48124 0.0
C424 C 0.53385 0.95132 0.47666 0.0
C425 C 0.5483 0.94051 0.4907 0.0
C426 C 0.55283 1.0107 0.50501 0.0
O427 O 0.59773 0.06543 0.52544 0.0
O428 O 0.59426 0.09359 0.55075 0.0
O429 O 0.62873 0.05715 0.57173 0.0
O430 O 0.60713 0.02577 0.54872 0.0
C431 C 0.59845 0.08666 0.53045 0.0
O432 O 0.63107 0.09974 0.59591 0.0
O433 O 0.60094 0.09355 0.61508 0.0
O434 O 0.59521 0.0416 0.59685 0.0
O435 O 0.56691 0.01976 0.56871 0.0
O436 O 0.5485 0.06138 0.54235 0.0
O437 O 0.55947 0.07385 0.58058 0.0
C438 C 0.6277 0.03709 0.56089 0.0
O439 O 0.54283 0.01578 0.52275 0.0
O440 O 0.57377 0.0239 0.50541 0.0
C441 C 0.62328 0.13102 0.61518 0.0
C442 C 0.63059 0.17708 0.60961 0.0
C443 C 0.64908 0.16848 0.62036 0.0
C444 C 0.64541 0.14562 0.62319 0.0
C445 C 0.60445 0.13972 0.60534 0.0
C446 C 0.60804 0.16267 0.60278 0.0
C447 C 0.6215 0.10673 0.61321 0.0
H448 H 0.57591 0.9454 0.52034 0.0
H449 H 0.57809 0.98543 0.52862 0.0
H450 H 0.52412 0.98236 0.47031 0.0
H451 H 0.52118 0.94198 0.46228 0.0
H452 H 0.66654 0.17936 0.62601 0.0
H453 H 0.6602 0.13912 0.63052 0.0
H454 H 0.58736 0.12865 0.59859 0.0
H455 H 0.59356 0.16895 0.59438 0.0
Tb456 Tb 0.32077 0.29235 0.78077 0.0
Eu457 Eu 0.37787 0.29984 0.7936 0.0
C458 C 0.35476 0.33437 0.76646 0.0
C459 C 0.35082 0.27525 0.74209 0.0
C460 C 0.25581 0.28611 0.78332 0.0
C461 C 0.21298 0.27562 0.78209 0.0
C462 C 0.23315 0.27666 0.77113 0.0
C463 C 0.25818 0.29422 0.80677 0.0
C464 C 0.23799 0.2933 0.81772 0.0
C465 C 0.21517 0.28412 0.80543 0.0
C466 C 0.27658 0.28812 0.77103 0.0
O467 O 0.32468 0.2692 0.80636 0.0
O468 O 0.36306 0.2659 0.80527 0.0
O469 O 0.36574 0.307 0.82854 0.0
O470 O 0.3288 0.31259 0.81625 0.0
C471 C 0.34215 0.25956 0.81206 0.0
O472 O 0.41081 0.28905 0.79138 0.0
O473 O 0.41188 0.32119 0.80981 0.0
O474 O 0.37114 0.33267 0.78313 0.0
O475 O 0.3363 0.31778 0.75976 0.0
O476 O 0.3302 0.2725 0.75054 0.0
O477 O 0.37035 0.28754 0.75482 0.0
C478 C 0.34665 0.3137 0.83333 0.0
O479 O 0.29209 0.30744 0.77479 0.0
O480 O 0.28671 0.27117 0.771 0.0
C481 C 0.44293 0.31913 0.78838 0.0
C482 C 0.47882 0.3397 0.76323 0.0
C483 C 0.48468 0.33163 0.78465 0.0
C484 C 0.46686 0.32141 0.7971 0.0
C485 C 0.43693 0.32745 0.76724 0.0
C486 C 0.45472 0.33765 0.75477 0.0
C487 C 0.42423 0.30813 0.80129 0.0
H488 H 0.19564 0.26864 0.77212 0.0
H489 H 0.23103 0.27039 0.75301 0.0
H490 H 0.27559 0.30147 0.81649 0.0
H491 H 0.24022 0.29971 0.83581 0.0
H492 H 0.50307 0.33323 0.79181 0.0
H493 H 0.47175 0.31521 0.81347 0.0
H494 H 0.41846 0.32584 0.76031 0.0
H495 H 0.44958 0.34343 0.73824 0.0
Tb496 Tb 0.0732 0.04889 0.51506 0.0
Eu497 Eu 0.07927 0.0727 0.5644 0.0
C498 C 0.12682 0.07346 0.53839 0.0
C499 C 0.07862 0.01681 0.55681 0.0
C500 C 0.06896 0.04699 0.45202 0.0
C501 C 0.08721 0.05321 0.41705 0.0
C502 C 0.08503 0.04251 0.43733 0.0
C503 C 0.05601 0.06318 0.44671 0.0
C504 C 0.05793 0.07359 0.42639 0.0
C505 C 0.07305 0.06831 0.41093 0.0
C506 C 0.06573 0.03488 0.47279 0.0
O507 O 0.03838 0.03435 0.52734 0.0
O508 O 0.03874 0.06265 0.5545 0.0
O509 O 0.0723 0.10199 0.54358 0.0
O510 O 0.07447 0.08583 0.50794 0.0
C511 C 1.02692 0.04403 0.54173 0.0
O512 O 0.06973 0.07144 0.59943 0.0
O513 O 0.09588 0.09983 0.59156 0.0
O514 O 0.11774 0.08162 0.55577 0.0
O515 O 0.11271 0.05869 0.52223 0.0
O516 O 0.07633 0.01833 0.53402 0.0
O517 O 0.08078 0.03557 0.57071 0.0
C518 C 0.07319 0.10414 0.52124 0.0
O519 O 0.08501 0.03428 0.48632 0.0
O520 O 0.04931 0.03913 0.48451 0.0
C521 C 0.1025 0.08616 0.62788 0.0
C522 C 0.13237 0.07707 0.66586 0.0
C523 C 0.11015 0.08147 0.66878 0.0
C524 C 0.09537 0.086 0.64993 0.0
C525 C 0.12465 0.08184 0.62487 0.0
C526 C 0.1395 0.07748 0.6437 0.0
C527 C 0.08616 0.08923 0.60782 0.0
H528 H 0.09936 0.04903 0.40577 0.0
H529 H 0.09552 0.03039 0.44128 0.0
H530 H 0.04372 0.06736 0.45784 0.0
H531 H 0.04641 0.08479 0.42227 0.0
H532 H 0.10396 0.08096 0.68553 0.0
H533 H 0.07818 0.08899 0.65248 0.0
H534 H 0.13039 0.08162 0.60791 0.0
H535 H 0.15661 0.07452 0.64088 0.0
Tb536 Tb 0.30704 0.78571 0.78597 0.0
Eu537 Eu 0.3216 0.83699 0.77646 0.0
C538 C 0.30921 0.8221 0.82644 0.0
C539 C 0.26561 0.80934 0.76214 0.0
C540 C 0.30416 0.72507 0.79414 0.0
C541 C 0.29696 0.68453 0.79257 0.0
C542 C 0.28842 0.704 0.79303 0.0
C543 C 0.32864 0.72664 0.79526 0.0
C544 C 0.33724 0.70715 0.79493 0.0
C545 C 0.32141 0.68592 0.79329 0.0
C546 C 0.29455 0.74508 0.79385 0.0
O547 O 0.32272 0.78529 0.75354 0.0
O548 O 0.31578 0.81782 0.74065 0.0
O549 O 0.3574 0.82767 0.78553 0.0
O550 O 0.34564 0.79486 0.80181 0.0
C551 C 0.31993 0.79784 0.73644 0.0
O552 O 0.31451 0.87027 0.77817 0.0
O553 O 0.34682 0.86532 0.76589 0.0
O554 O 0.32324 0.83672 0.81588 0.0
O555 O 0.2959 0.80394 0.81433 0.0
O556 O 0.27236 0.79133 0.76933 0.0
O557 O 0.28126 0.82885 0.76411 0.0
C558 C 0.36293 0.81181 0.79787 0.0
O559 O 0.3047 0.7615 0.80973 0.0
O560 O 0.29041 0.75222 0.77362 0.0
C561 C 0.34869 0.89825 0.79012 0.0
C562 C 0.3617 0.93264 0.82681 0.0
C563 C 0.35577 0.93755 0.80391 0.0
C564 C 0.3492 0.92043 0.78573 0.0
C565 C 0.35685 0.89355 0.81244 0.0
C566 C 0.36327 0.91065 0.83072 0.0
C567 C 0.33531 0.87988 0.773 0.0
H568 H 0.28444 0.66837 0.79145 0.0
H569 H 0.26947 0.70259 0.79225 0.0
H570 H 0.34099 0.74287 0.79608 0.0
H571 H 0.35614 0.70862 0.79521 0.0
H572 H 0.35401 0.95423 0.80029 0.0
H573 H 0.34275 0.92426 0.76864 0.0
H574 H 0.35652 0.87641 0.81608 0.0
H575 H 0.36786 0.9064 0.84812 0.0
Tb576 Tb 0.59533 0.05009 0.06234 0.0
Eu577 Eu 0.56451 0.05101 0.01441 0.0
C578 C 0.58573 1.00541 0.02275 0.0
C579 C 0.61927 0.07181 0.02205 0.0
C580 C 0.62579 0.03727 0.11893 0.0
C581 C 0.64312 0.03986 0.15909 0.0
C582 C 0.64428 0.04666 0.13688 0.0
C583 C 0.60816 0.01855 0.12235 0.0
C584 C 0.60705 1.01163 0.14457 0.0
C585 C 0.62332 0.02366 0.16348 0.0
C586 C 0.6217 0.05098 0.10002 0.0
O587 O 0.58093 0.08125 0.06954 0.0
O588 O 0.56979 0.08767 0.03228 0.0
O589 O 0.53888 0.03978 0.03962 0.0
O590 O 0.5632 0.02436 0.06324 0.0
C591 C 0.57453 0.09523 0.05474 0.0
O592 O 0.55925 0.06191 0.97971 0.0
O593 O 0.52984 0.04098 0.99307 0.0
O594 O 0.5708 1.01466 1.00994 0.0
O595 O 0.59798 0.01738 0.04237 0.0
O596 O 0.61645 0.07475 0.04374 0.0
O597 O 0.6027 0.05801 1.00749 0.0
C598 C 0.54181 0.0249 0.05401 0.0
O599 O 0.6276 0.04567 0.07986 0.0
O600 O 0.60123 0.05646 0.09824 0.0
C601 C 0.53421 0.03187 0.95488 0.0
C602 C 0.52551 0.99566 0.92018 0.0
C603 C 0.50847 1.00843 0.92236 0.0
C604 C 0.51276 0.02636 0.93973 0.0
C605 C 0.5512 0.01919 0.95269 0.0
C606 C 0.54693 1.00131 0.93552 0.0
C607 C 0.53793 0.04884 0.97474 0.0
H608 H 0.65602 0.04942 0.17318 0.0
H609 H 0.65807 0.0611 0.13445 0.0
H610 H 0.5938 1.01103 0.10857 0.0
H611 H 0.59187 0.99875 0.1474 0.0
H612 H 0.49183 1.00446 0.91075 0.0
H613 H 0.49926 0.03571 0.94152 0.0
H614 H 0.56777 0.02298 0.96442 0.0
H615 H 0.56069 0.99223 0.93398 0.0
Tb616 Tb 0.33413 0.31643 0.29317 0.0
Eu617 Eu 0.31592 0.26769 0.26954 0.0
C618 C 0.33168 0.27574 0.32697 0.0
C619 C 0.37182 0.29084 0.27066 0.0
C620 C 0.331 0.37046 0.32024 0.0
C621 C 0.29262 0.37113 0.3323 0.0
C622 C 0.31107 0.36028 0.33035 0.0
C623 C 0.33319 0.39245 0.31414 0.0
C624 C 0.31478 0.40334 0.31615 0.0
C625 C 0.29379 0.39233 0.32415 0.0
C626 C 0.34629 0.35674 0.3112 0.0
O627 O 0.31542 0.32205 0.25935 0.0
O628 O 0.31786 0.2905 0.23847 0.0
O629 O 0.2811 0.27567 0.27908 0.0
O630 O 0.2971 0.3075 0.30359 0.0
C631 C 0.31579 0.31164 0.23885 0.0
O632 O 0.3128 0.24383 0.23905 0.0
O633 O 0.29774 0.23232 0.26912 0.0
O634 O 0.3235 0.2611 0.3084 0.0
O635 O 0.33809 0.29743 0.32411 0.0
O636 O 0.36614 0.31023 0.27648 0.0
O637 O 0.35615 0.27214 0.27244 0.0
C638 C 0.27845 0.29073 0.2954 0.0
O639 O 0.3494 0.33975 0.32232 0.0
O640 O 0.34127 0.35094 0.28907 0.0
C641 C 0.3201 0.21037 0.25154 0.0
C642 C 0.35291 0.18276 0.25296 0.0
C643 C 0.33186 0.17709 0.23689 0.0
C644 C 0.31566 0.19092 0.23608 0.0
C645 C 0.34063 0.21566 0.26798 0.0
C646 C 0.35695 0.20221 0.26853 0.0
C647 C 0.30482 0.22643 0.24983 0.0
H648 H 0.2767 0.36215 0.33848 0.0
H649 H 0.30892 0.34328 0.33518 0.0
H650 H 0.34832 0.40056 0.3062 0.0
H651 H 0.31637 0.41986 0.31014 0.0
H652 H 0.32794 0.16208 0.22485 0.0
H653 H 0.29991 0.18662 0.22324 0.0
H654 H 0.34438 0.23056 0.28015 0.0
H655 H 0.37308 0.20754 0.28081 0.0
Tb656 Tb 0.58438 0.5402 0.01633 0.0
Eu657 Eu 0.59051 0.56326 0.06585 0.0
C658 C 0.63695 0.56712 0.03953 0.0
C659 C 0.59107 0.50757 0.05706 0.0
C660 C 0.57103 0.53469 0.95306 0.0
C661 C 0.57242 0.54106 0.91273 0.0
C662 C 0.58108 0.53252 0.93268 0.0
C663 C 0.55273 0.54609 0.95355 0.0
C664 C 0.5439 0.5544 0.93359 0.0
C665 C 0.55345 0.55177 0.91286 0.0
C666 C 0.58057 0.5262 0.97407 0.0
O667 O 0.54751 0.52728 0.0253 0.0
O668 O 0.54986 0.55082 0.05781 0.0
O669 O 0.59131 0.59488 0.04514 0.0
O670 O 0.57955 0.57525 1.0096 0.0
C671 C 0.53706 0.53473 0.04218 0.0
O672 O 0.57836 0.58141 0.09375 0.0
O673 O 0.61178 0.57123 0.09979 0.0
O674 O 0.6268 0.57751 0.05436 0.0
O675 O 0.62382 0.54893 0.02672 0.0
O676 O 0.5907 0.51079 0.03477 0.0
O677 O 0.59065 0.52512 0.07181 0.0
C678 C 0.58552 0.59512 0.02249 0.0
O679 O 0.59963 0.53942 0.98558 0.0
O680 O 0.56531 0.51828 0.9877 0.0
C681 C 0.58977 0.57119 0.13086 0.0
C682 C 0.585 0.5564 0.17484 0.0
C683 C 0.58458 0.54093 0.1558 0.0
C684 C 0.58684 0.54827 0.1339 0.0
C685 C 0.58865 0.5864 0.14944 0.0
C686 C 0.58619 0.57906 0.17129 0.0
C687 C 0.59597 0.57968 0.10902 0.0
H688 H 0.58045 0.5391 0.89717 0.0
H689 H 0.59558 0.52419 0.93221 0.0
H690 H 0.54507 0.54833 0.9693 0.0
H691 H 0.52907 0.56224 0.93429 0.0
H692 H 0.5836 0.52337 0.15808 0.0
H693 H 0.58742 0.53623 0.11962 0.0
H694 H 0.59081 0.60413 0.14731 0.0
H695 H 0.58688 0.5914 0.18571 0.0
Tb696 Tb 0.81904 0.26813 0.28361 0.0
Eu697 Eu 0.83669 0.32089 0.2829 0.0
C698 C 0.82383 0.30071 0.32914 0.0
C699 C 0.78011 0.29606 0.2661 0.0
C700 C 0.8143 0.20767 0.2929 0.0
C701 C 0.8089 0.16742 0.29388 0.0
C702 C 0.79932 0.18612 0.29092 0.0
C703 C 0.8388 0.21059 0.29965 0.0
C704 C 0.84842 0.19189 0.30252 0.0
C705 C 0.83365 0.17005 0.29869 0.0
C706 C 0.80472 0.22615 0.28432 0.0
O707 O 0.8196 0.27289 0.24685 0.0
O708 O 0.84675 0.3065 0.24976 0.0
O709 O 0.86967 0.31058 0.30145 0.0
O710 O 0.85852 0.27263 0.29113 0.0
C711 C 0.83445 0.28789 0.23745 0.0
O712 O 0.83349 0.35262 0.26943 0.0
O713 O 0.86179 0.35235 0.2968 0.0
O714 O 0.81997 0.31625 0.31585 0.0
O715 O 0.82842 0.28229 0.31989 0.0
O716 O 0.78486 0.27898 0.27706 0.0
O717 O 0.79787 0.31321 0.26405 0.0
C718 C 0.87494 0.29066 0.30089 0.0
O719 O 0.80082 0.24089 0.29964 0.0
O720 O 0.81507 0.23567 0.26782 0.0
C721 C 0.84337 0.38287 0.29859 0.0
C722 C 0.82662 0.4161 0.32289 0.0
C723 C 0.82861 0.41678 0.29913 0.0
C724 C 0.83702 0.40041 0.28717 0.0
C725 C 0.84164 0.38216 0.32236 0.0
C726 C 0.83348 0.39872 0.33442 0.0
C727 C 0.85006 0.36467 0.28515 0.0
H728 H 0.79706 0.15082 0.29119 0.0
H729 H 0.78036 0.18361 0.28573 0.0
H730 H 0.85062 0.22716 0.30118 0.0
H731 H 0.86756 0.19449 0.30605 0.0
H732 H 0.82297 0.42958 0.28951 0.0
H733 H 0.83796 0.40109 0.2688 0.0
H734 H 0.8462 0.36864 0.33157 0.0
H735 H 0.8324 0.39781 0.35272 0.0
Tb736 Tb 0.06741 0.55441 0.56363 0.0
Eu737 Eu 0.04699 0.55923 0.51208 0.0
C738 C 0.06119 0.51107 0.52463 0.0
C739 C 0.10119 0.57622 0.52968 0.0
C740 C 0.08445 0.5662 0.62641 0.0
C741 C 0.07919 0.56741 0.66696 0.0
C742 C 0.08237 0.55557 0.64675 0.0
C743 C 0.08389 0.58902 0.62665 0.0
C744 C 0.08073 0.60087 0.64682 0.0
C745 C 0.07804 0.59012 0.66711 0.0
C746 C 0.08561 0.55311 0.60473 0.0
O747 O 0.06331 0.59035 0.56805 0.0
O748 O 0.04469 0.59318 0.53195 0.0
O749 O 1.01857 0.53488 0.526 0.0
O750 O 1.02909 0.54831 0.56387 0.0
C751 C 0.05323 0.60245 0.55356 0.0
O752 O 1.01993 0.56833 0.4874 0.0
O753 O 0.04726 0.55312 0.47534 0.0
O754 O 0.05916 0.52518 0.50858 0.0
O755 O 0.06205 0.51881 0.54679 0.0
O756 O 0.09701 0.5601 0.54332 0.0
O757 O 0.08349 0.58186 0.51771 0.0
C758 C 1.01364 0.53593 0.54718 0.0
O759 O 0.06569 0.53962 0.59504 0.0
O760 O 0.09677 0.56436 0.58965 0.0
C761 C 0.03064 0.57508 0.44979 0.0
C762 C 0.03825 0.58499 0.40483 0.0
C763 C 1.01533 0.57482 0.40935 0.0
C764 C 1.0116 0.56985 0.43174 0.0
C765 C 0.05258 0.58832 0.44604 0.0
C766 C 0.05635 0.59332 0.42362 0.0
C767 C 1.02905 0.56166 0.46957 0.0
H768 H 0.07677 0.55855 0.68222 0.0
H769 H 0.08258 0.53795 0.64684 0.0
H770 H 0.08549 0.59765 0.61116 0.0
H771 H 0.08013 0.61838 0.64646 0.0
H772 H 1.00099 0.56819 0.39531 0.0
H773 H 0.99453 0.55966 0.43438 0.0
H774 H 0.06747 0.59267 0.45987 0.0
H775 H 0.07407 0.60155 0.42065 0.0
Tb776 Tb 0.82877 0.7972 0.28342 0.0
Eu777 Eu 0.8828 0.79508 0.30081 0.0
C778 C 0.87085 0.83643 0.27502 0.0
C779 C 0.85985 0.7791 0.24589 0.0
C780 C 0.76465 0.7884 0.28379 0.0
C781 C 0.74825 0.77571 0.31812 0.0
C782 C 0.7678 0.78476 0.30729 0.0
C783 C 0.74178 0.78297 0.27124 0.0
C784 C 0.72218 0.77385 0.28204 0.0
C785 C 0.72521 0.76999 0.30558 0.0
C786 C 0.78535 0.79571 0.27189 0.0
O787 O 0.82651 0.76893 0.30434 0.0
O788 O 0.86198 0.75997 0.30098 0.0
O789 O 0.86686 0.8007 0.33427 0.0
O790 O 0.83592 0.81517 0.31978 0.0
C791 C 0.84015 0.75459 0.30549 0.0
O792 O 0.91414 0.78132 0.2998 0.0
O793 O 0.91542 0.80963 0.32449 0.0
O794 O 0.88459 0.82981 0.29107 0.0
O795 O 0.84911 0.82495 0.26754 0.0
O796 O 0.83864 0.77973 0.25187 0.0
O797 O 0.87912 0.7869 0.2613 0.0
C798 C 0.85043 0.81183 0.33798 0.0
O799 O 0.80088 0.81387 0.28131 0.0
O800 O 0.79549 0.77969 0.26609 0.0
C801 C 0.9487 0.81071 0.30575 0.0
C802 C 0.98724 0.83987 0.29049 0.0
C803 C 0.96576 0.83148 0.27557 0.0
C804 C 0.94668 0.81715 0.28315 0.0
C805 C 0.9701 0.81878 0.32069 0.0
C806 C 0.98928 0.83322 0.3131 0.0
C807 C 0.9277 0.79759 0.31426 0.0
H808 H 0.75118 0.77329 0.33634 0.0
H809 H 0.78544 0.78861 0.31717 0.0
H810 H 0.73914 0.78533 0.25298 0.0
H811 H 0.70472 0.76936 0.27183 0.0
H812 H 0.9637 0.83587 0.25791 0.0
H813 H 0.93018 0.81136 0.27143 0.0
H814 H 0.9718 0.81427 0.33832 0.0
H815 H 1.00553 0.8395 0.32506 0.0
Tb816 Tb 0.84627 0.30094 0.7872 0.0
Eu817 Eu 0.79652 0.26342 0.76796 0.0
C818 C 0.79974 0.31693 0.77195 0.0
C819 C 0.81265 0.27766 0.82228 0.0
C820 C 0.89224 0.35335 0.8095 0.0
C821 C 0.88763 0.38726 0.83068 0.0
C822 C 0.87986 0.36424 0.82405 0.0
C823 C 0.91233 0.36597 0.80148 0.0
C824 C 0.91998 0.38914 0.80792 0.0
C825 C 0.90773 0.40005 0.82267 0.0
C826 C 0.88483 0.32882 0.8033 0.0
O827 O 0.85477 0.26942 0.77638 0.0
O828 O 0.82232 0.24585 0.78621 0.0
O829 O 0.81644 0.27082 0.73728 0.0
O830 O 0.83841 0.30628 0.75064 0.0
C831 C 0.84498 0.25048 0.78414 0.0
O832 O 0.77908 0.23188 0.74723 0.0
O833 O 0.75788 0.25129 0.76417 0.0
O834 O 0.78979 0.29709 0.7607 0.0
O835 O 0.81956 0.32075 0.78658 0.0
O836 O 0.83448 0.28484 0.81769 0.0
O837 O 0.79445 0.27244 0.80568 0.0
C838 C 0.82872 0.29067 0.73344 0.0
O839 O 0.8703 0.31759 0.8159 0.0
O840 O 0.87877 0.32179 0.78139 0.0
C841 C 0.74298 0.21184 0.75792 0.0
C842 C 0.71403 0.17066 0.76657 0.0
C843 C 0.70454 0.18534 0.75281 0.0
C844 C 0.71891 0.20571 0.74852 0.0
C845 C 0.75248 0.19755 0.77212 0.0
C846 C 0.73812 0.17708 0.77635 0.0
C847 C 0.75792 0.23271 0.75186 0.0
H848 H 0.87799 0.39496 0.84238 0.0
H849 H 0.86429 0.35497 0.83056 0.0
H850 H 0.92213 0.3579 0.79025 0.0
H851 H 0.93532 0.3985 0.80114 0.0
H852 H 0.68615 0.18078 0.74478 0.0
H853 H 0.71131 0.21652 0.73747 0.0
H854 H 0.77104 0.20208 0.77964 0.0
H855 H 0.74587 0.16625 0.78722 0.0
Tb856 Tb 0.82524 0.82751 0.80129 0.0
Eu857 Eu 0.80391 0.77922 0.77829 0.0
C858 C 0.82603 0.78529 0.8323 0.0
C859 C 0.86005 0.80241 0.77352 0.0
C860 C 0.82958 0.87801 0.83933 0.0
C861 C 0.79745 0.87484 0.86274 0.0
C862 C 0.81524 0.86605 0.85414 0.0
C863 C 0.82776 0.89984 0.83547 0.0
C864 C 0.80964 0.90836 0.84346 0.0
C865 C 0.79318 0.89536 0.85596 0.0
C866 C 0.84066 0.86609 0.82272 0.0
O867 O 0.82031 0.83449 0.76366 0.0
O868 O 0.79731 0.80046 0.74767 0.0
O869 O 0.77342 0.78655 0.79852 0.0
O870 O 0.78698 0.82439 0.8061 0.0
C871 C 0.80796 0.82154 0.74504 0.0
O872 O 0.79724 0.75246 0.74976 0.0
O873 O 0.78224 0.74572 0.78118 0.0
O874 O 0.82538 0.77381 0.81221 0.0
O875 O 0.82296 0.80606 0.83164 0.0
O876 O 0.85708 0.82001 0.78662 0.0
O877 O 0.84229 0.78433 0.769 0.0
C878 C 0.77028 0.80601 0.80746 0.0
O879 O 0.84791 0.84847 0.82904 0.0
O880 O 0.82843 0.86215 0.8021 0.0
C881 C 0.8029 0.72023 0.76759 0.0
C882 C 0.8348 0.69866 0.79148 0.0
C883 C 0.84284 0.71465 0.77648 0.0
C884 C 0.82703 0.72522 0.76448 0.0
C885 C 0.7945 0.70268 0.78094 0.0
C886 C 0.81039 0.69185 0.79276 0.0
C887 C 0.78884 0.73703 0.76283 0.0
H888 H 0.78589 0.86465 0.87309 0.0
H889 H 0.81628 0.84909 0.85739 0.0
H890 H 0.83853 0.90927 0.82393 0.0
H891 H 0.80731 0.92414 0.83755 0.0
H892 H 0.8616 0.71985 0.77502 0.0
H893 H 0.83419 0.73863 0.75436 0.0
H894 H 0.77607 0.69869 0.78381 0.0
H895 H 0.8039 0.67941 0.8042 0.0
Tb896 Tb 0.53352 0.53825 0.52596 0.0
Eu897 Eu 0.58327 0.54875 0.5631 0.0
C898 C 0.58344 0.5457 0.50941 0.0
C899 C 0.55486 0.501 0.54488 0.0
C900 C 0.4752 0.54524 0.50557 0.0
C901 C 0.44132 0.56032 0.49183 0.0
C902 C 0.45788 0.54753 0.48758 0.0
C903 C 0.47604 0.55625 0.52764 0.0
C904 C 0.45951 0.56873 0.53194 0.0
C905 C 0.44184 0.5708 0.51418 0.0
C906 C 0.49368 0.53299 0.50145 0.0
O907 O 0.52505 0.53914 0.56135 0.0
O908 O 0.55815 0.56338 0.58183 0.0
O909 O 0.58188 0.58206 0.54973 0.0
O910 O 0.5416 0.57414 0.53659 0.0
C911 C 0.53525 0.55421 0.57891 0.0
O912 O 0.60086 0.54047 0.59539 0.0
O913 O 0.62167 0.5604 0.57256 0.0
O914 O 0.59095 0.53722 0.52806 0.0
O915 O 0.56233 0.55003 0.50643 0.0
O916 O 0.54757 0.50791 0.52513 0.0
O917 O 0.5588 0.51508 0.5634 0.0
C918 C 0.56259 0.58829 0.54135 0.0
O919 O 0.51325 0.54547 0.49638 0.0
O920 O 0.49813 0.51965 0.51705 0.0
C921 C 0.63775 0.53284 0.59044 0.0
C922 C 0.6669 0.50173 0.59105 0.0
C923 C 0.66889 0.51771 0.61017 0.0
C924 C 0.65445 0.53311 0.60985 0.0
C925 C 0.63561 0.51693 0.57132 0.0
C926 C 0.65017 0.50164 0.57155 0.0
C927 C 0.6221 0.54863 0.59034 0.0
H928 H 0.42789 0.56167 0.47784 0.0
H929 H 0.45721 0.53954 0.4703 0.0
H930 H 0.48967 0.55535 0.5416 0.0
H931 H 0.46066 0.57696 0.54921 0.0
H932 H 0.68184 0.51851 0.62534 0.0
H933 H 0.65629 0.5452 0.62478 0.0
H934 H 0.6226 0.51629 0.55624 0.0
H935 H 0.64806 0.48953 0.5566 0.0
Tb936 Tb 0.08069 0.53545 0.03743 0.0
Eu937 Eu 0.09725 0.5647 0.08691 0.0
C938 C 0.07116 0.51215 0.08351 0.0
C939 C 0.04659 0.56787 0.05792 0.0
C940 C 0.06437 0.49031 0.98939 0.0
C941 C 0.06633 0.45213 0.99619 0.0
C942 C 0.06782 0.47431 1.0047 0.0
C943 C 0.05991 0.48403 0.96547 0.0
C944 C 0.05861 0.46185 0.95691 0.0
C945 C 0.06161 0.44566 0.97222 0.0
C946 C 0.06515 0.51343 0.99837 0.0
O947 O 0.10728 0.56502 0.03249 0.0
O948 O 0.09829 0.58876 0.05946 0.0
O949 O 0.12783 0.54677 0.08052 0.0
O950 O 0.11308 0.52248 0.04773 0.0
C951 C 0.10674 0.58533 0.04022 0.0
O952 O 0.12767 0.58718 0.10816 0.0
O953 O 0.09423 0.5782 0.12186 0.0
O954 O 0.07807 0.53141 0.09644 0.0
O955 O 0.07239 0.51013 0.06124 0.0
O956 O 0.05329 0.55645 0.0405 0.0
O957 O 0.0599 0.57146 0.07844 0.0
C958 C 0.13036 0.53055 0.06523 0.0
O959 O 0.05207 0.51532 0.01464 0.0
O960 O 0.08624 0.52676 1.00339 0.0
C961 C 0.11764 0.61518 0.13198 0.0
C962 C 0.12239 0.66108 0.14632 0.0
C963 C 0.12415 0.65408 0.12327 0.0
C964 C 0.1216 0.63137 0.11614 0.0
C965 C 0.11579 0.62197 0.15494 0.0
C966 C 0.11803 0.6447 0.16205 0.0
C967 C 0.11557 0.59128 0.12468 0.0
H968 H 0.06901 0.44007 1.00834 0.0
H969 H 0.07149 0.47894 0.02325 0.0
H970 H 0.05724 0.49621 0.95344 0.0
H971 H 0.05479 0.45726 0.93837 0.0
H972 H 0.12792 0.66614 0.11074 0.0
H973 H 0.12299 0.62652 0.09826 0.0
H974 H 0.11261 0.60969 0.16738 0.0
H975 H 0.11617 0.64937 0.17983 0.0
H976 H 1.01493 0.17484 0.95456 0.0
H977 H 0.08527 0.21303 0.94706 0.0
H978 H 0.10325 0.18704 0.97002 0.0
H979 H 1.0284 0.15733 0.01263 0.0
H980 H 1.00965 0.12946 1.00502 0.0
H981 H 1.00257 0.15284 0.99097 0.0
H982 H 1.00254 0.13179 0.95087 0.0
H983 H 1.0096 0.10847 0.96494 0.0
H984 H 1.02839 0.12195 0.94516 0.0
H985 H 0.11338 0.15623 0.99288 0.0
H986 H 0.11476 0.12021 1.00937 0.0
H987 H 0.03777 0.1006 0.99832 0.0
C988 C 0.0341 0.17788 0.95822 0.0
C989 C 0.04887 0.19598 0.94958 0.0
C990 C 0.07384 0.19925 0.95387 0.0
C991 C 0.08414 0.18469 0.96694 0.0
C992 C 0.06912 0.16681 0.97516 0.0
C993 C 0.04462 0.16315 0.97067 0.0
C994 C 0.03245 0.14129 0.97907 0.0
C995 C 1.01739 0.1455 0.99806 0.0
C996 C 1.01737 0.12491 0.9588 0.0
C997 C 0.05393 0.13318 0.9888 0.0
C998 C 0.07492 0.14833 0.9869 0.0
C999 C 0.09707 0.14424 0.9945 0.0
C1000 C 0.09773 0.12388 1.00388 0.0
C1001 C 0.0764 0.10785 1.00492 0.0
C1002 C 0.05431 0.11269 0.99758 0.0
H1003 H 0.20271 0.88281 0.21274 0.0
H1004 H 0.19056 0.84051 0.14763 0.0
H1005 H 0.20084 0.80968 0.16843 0.0
H1006 H 0.2542 0.86622 0.2349 0.0
H1007 H 0.2484 0.86761 0.26453 0.0
H1008 H 0.23683 0.88497 0.24475 0.0
H1009 H 0.19439 0.86828 0.25412 0.0
H1010 H 0.20586 0.8504 0.27353 0.0
H1011 H 0.18254 0.83827 0.24997 0.0
H1012 H 0.21386 0.78377 0.19598 0.0
H1013 H 0.23722 0.7683 0.22616 0.0
H1014 H 0.24354 0.82813 0.27284 0.0
C1015 C 0.20203 0.86699 0.2029 0.0
C1016 C 0.19546 0.86406 0.17862 0.0
C1017 C 0.19541 0.84326 0.16627 0.0
C1018 C 0.20095 0.82549 0.17796 0.0
C1019 C 0.20688 0.8288 0.20197 0.0
C1020 C 0.20801 0.84922 0.21423 0.0
C1021 C 0.21784 0.84941 0.23946 0.0
C1022 C 0.24067 0.86815 0.2463 0.0
C1023 C 0.19903 0.85173 0.2552 0.0
C1024 C 0.22292 0.82623 0.23929 0.0
C1025 C 0.2156 0.81427 0.21771 0.0
C1026 C 0.21953 0.7929 0.213 0.0
C1027 C 0.2326 0.78412 0.23035 0.0
C1028 C 0.24204 0.79698 0.25186 0.0
C1029 C 0.23621 0.81783 0.25666 0.0
H1030 H 0.54433 0.82869 0.41091 0.0
H1031 H 0.55203 0.79573 0.47394 0.0
H1032 H 0.5514 0.83073 0.49713 0.0
H1033 H 0.58212 0.88188 0.43379 0.0
H1034 H 0.56434 0.89792 0.41799 0.0
H1035 H 0.56461 0.87003 0.40635 0.0
H1036 H 0.51869 0.85831 0.40352 0.0
H1037 H 0.5183 0.88615 0.41525 0.0
H1038 H 0.50485 0.86202 0.42904 0.0
H1039 H 0.55011 0.86924 0.51342 0.0
H1040 H 0.54983 0.90918 0.52181 0.0
H1041 H 0.54431 0.91706 0.44816 0.0
C1042 C 0.54579 0.82877 0.42958 0.0
C1043 C 0.54818 0.80946 0.4406 0.0
C1044 C 0.55022 0.81033 0.4651 0.0
C1045 C 0.5498 0.8301 0.47842 0.0
C1046 C 0.5474 0.8488 0.46698 0.0
C1047 C 0.54555 0.84835 0.44313 0.0
C1048 C 0.54384 0.87094 0.43515 0.0
C1049 C 0.56499 0.88077 0.42259 0.0
C1050 C 0.52 0.86924 0.41984 0.0
C1051 C 0.54514 0.8842 0.45826 0.0
C1052 C 0.54704 0.8711 0.47639 0.0
C1053 C 0.5487 0.87971 0.49938 0.0
C1054 C 0.54867 0.90242 0.50397 0.0
C1055 C 0.54713 0.91625 0.48564 0.0
C1056 C 0.54518 0.90688 0.46252 0.0
H1057 H 0.59641 0.34374 0.70602 0.0
H1058 H 0.5835 0.40118 0.67153 0.0
H1059 H 0.54786 0.4 0.69115 0.0
H1060 H 0.53622 0.3141 0.7017 0.0
H1061 H 0.5399 0.30351 0.7296 0.0
H1062 H 0.56464 0.30966 0.71351 0.0
H1063 H 0.58967 0.33631 0.74851 0.0
H1064 H 0.56498 0.33026 0.76472 0.0
H1065 H 0.57835 0.35895 0.76061 0.0
H1066 H 0.51281 0.39145 0.71416 0.0
H1067 H 0.48185 0.37652 0.73828 0.0
H1068 H 0.51837 0.32447 0.75654 0.0
C1069 C 0.58623 0.35621 0.70263 0.0
C1070 C 0.59275 0.37259 0.68727 0.0
C1071 C 0.57884 0.38851 0.68329 0.0
C1072 C 0.5586 0.38796 0.69435 0.0
C1073 C 0.55264 0.37143 0.70931 0.0
C1074 C 0.56613 0.35588 0.71343 0.0
C1075 C 0.55585 0.33948 0.72979 0.0
C1076 C 0.54872 0.31526 0.71793 0.0
C1077 C 0.57325 0.34138 0.75223 0.0
C1078 C 0.53431 0.34807 0.7342 0.0
C1079 C 0.53271 0.36654 0.72234 0.0
C1080 C 0.51395 0.37703 0.72354 0.0
C1081 C 0.49639 0.36836 0.73718 0.0
C1082 C 0.49772 0.34937 0.74939 0.0
C1083 C 0.51703 0.33924 0.74781 0.0
H1084 H 0.08666 0.88285 0.57646 0.0
H1085 H 0.05632 0.89184 0.63965 0.0
H1086 H 0.05567 0.93071 0.63178 0.0
H1087 H 0.12304 0.94086 0.57818 0.0
H1088 H 0.11704 0.94309 0.54753 0.0
H1089 H 0.11609 0.91594 0.55796 0.0
H1090 H 0.07335 0.90126 0.53684 0.0
H1091 H 0.0742 0.92835 0.52631 0.0
H1092 H 0.05089 0.91611 0.54246 0.0
H1093 H 0.05983 0.97118 0.61804 0.0
H1094 H 0.06444 1.00601 0.59869 0.0
H1095 H 0.08869 0.97329 0.54118 0.0
C1096 C 0.07986 0.8929 0.58877 0.0
C1097 C 0.07164 0.88314 0.60921 0.0
C1098 C 0.06279 0.89781 0.62406 0.0
C1099 C 0.0624 0.92039 0.61966 0.0
C1100 C 0.07051 0.92931 0.59975 0.0
C1101 C 0.07877 0.91585 0.58424 0.0
C1102 C 0.08546 0.92973 0.56362 0.0
C1103 C 0.11199 0.93256 0.5617 0.0
C1104 C 0.07007 0.91817 0.54095 0.0
C1105 C 0.07996 0.95295 0.56999 0.0
C1106 C 0.07162 0.95219 0.59119 0.0
C1107 C 0.06614 0.97152 0.60136 0.0
C1108 C 0.06895 0.99168 0.59001 0.0
C1109 C 0.07687 0.99359 0.56787 0.0
C1110 C 0.08237 0.97328 0.55785 0.0
H1111 H 0.48492 0.7898 0.87391 0.0
H1112 H 0.52349 0.84711 0.84356 0.0
H1113 H 0.48601 0.85085 0.82169 0.0
H1114 H 0.441 0.76668 0.82186 0.0
H1115 H 0.41626 0.75821 0.83762 0.0
H1116 H 0.44606 0.75932 0.85109 0.0
H1117 H 0.44065 0.78598 0.88516 0.0
H1118 H 0.41084 0.78494 0.87179 0.0
H1119 H 0.43187 0.81165 0.87933 0.0
H1120 H 0.44388 0.84937 0.80269 0.0
H1121 H 0.40138 0.84296 0.78837 0.0
H1122 H 0.38642 0.78636 0.82942 0.0
C1123 C 0.48557 0.80308 0.86257 0.0
C1124 C 0.50804 0.81813 0.86078 0.0
C1125 C 0.50724 0.83522 0.84562 0.0
C1126 C 0.48573 0.83753 0.83295 0.0
C1127 C 0.46421 0.82268 0.83512 0.0
C1128 C 0.46383 0.80571 0.84955 0.0
C1129 C 0.4378 0.79227 0.84858 0.0
C1130 C 0.43512 0.76765 0.83924 0.0
C1131 C 0.42982 0.79379 0.87265 0.0
C1132 C 0.42376 0.80431 0.83147 0.0
C1133 C 0.43962 0.82182 0.82404 0.0
C1134 C 0.43146 0.83564 0.80847 0.0
C1135 C 0.40687 0.83177 0.80032 0.0
C1136 C 0.38957 0.81405 0.8073 0.0
C1137 C 0.39859 0.80005 0.82329 0.0
H1138 H 0.56518 0.20982 0.13938 0.0
H1139 H 0.57392 0.24698 0.07936 0.0
H1140 H 0.57563 0.21211 0.05625 0.0
H1141 H 0.60643 0.17409 0.12683 0.0
H1142 H 0.58951 0.14925 0.13711 0.0
H1143 H 0.58791 0.17673 0.14896 0.0
H1144 H 0.54234 0.16593 0.13821 0.0
H1145 H 0.54381 0.13842 0.12632 0.0
H1146 H 0.5295 0.15585 0.10868 0.0
H1147 H 0.57537 0.17075 0.03797 0.0
H1148 H 0.57606 0.13115 0.02826 0.0
H1149 H 0.57068 0.1185 0.09972 0.0
C1150 C 0.56727 0.21078 0.12129 0.0
C1151 C 0.56901 0.2323 0.11167 0.0
C1152 C 0.57226 0.23165 0.08782 0.0
C1153 C 0.57328 0.21149 0.07431 0.0
C1154 C 0.57152 0.19094 0.08426 0.0
C1155 C 0.56884 0.19052 0.10744 0.0
C1156 C 0.56835 0.16624 0.11406 0.0
C1157 C 0.58929 0.1666 0.13287 0.0
C1158 C 0.54459 0.156 0.12233 0.0
C1159 C 0.57095 0.15299 0.09116 0.0
C1160 C 0.5725 0.16771 0.07416 0.0
C1161 C 0.5743 0.1595 0.05149 0.0
C1162 C 0.57463 0.13644 0.046 0.0
C1163 C 0.57355 0.1204 0.06271 0.0
C1164 C 0.57174 0.12948 0.08596 0.0
H1165 H 0.17433 0.30936 0.37803 0.0
H1166 H 0.12968 0.24854 0.33953 0.0
H1167 H 0.16161 0.24599 0.31618 0.0
H1168 H 0.20338 0.33186 0.32852 0.0
H1169 H 0.23237 0.34266 0.34509 0.0
H1170 H 0.20611 0.34051 0.35905 0.0
H1171 H 0.22234 0.31651 0.38877 0.0
H1172 H 0.24864 0.31864 0.37487 0.0
H1173 H 0.2308 0.29139 0.37866 0.0
H1174 H 0.19906 0.24934 0.29574 0.0
H1175 H 0.23772 0.25752 0.28142 0.0
H1176 H 0.26186 0.31609 0.33186 0.0
C1177 C 0.17113 0.29548 0.36466 0.0
C1178 C 0.14847 0.2791 0.36111 0.0
C1179 C 0.14609 0.26142 0.34318 0.0
C1180 C 0.16445 0.25981 0.32957 0.0
C1181 C 0.18616 0.27594 0.33346 0.0
C1182 C 0.18973 0.29351 0.35065 0.0
C1183 C 0.21524 0.30832 0.35111 0.0
C1184 C 0.21422 0.33226 0.34563 0.0
C1185 C 0.23014 0.30875 0.37477 0.0
C1186 C 0.22536 0.29636 0.33169 0.0
C1187 C 0.20798 0.27774 0.32177 0.0
C1188 C 0.2126 0.26392 0.30357 0.0
C1189 C 0.23505 0.26884 0.29538 0.0
C1190 C 0.25387 0.28761 0.30492 0.0
C1191 C 0.24845 0.3016 0.32362 0.0
H1192 H 0.99707 0.03837 0.17404 0.0
H1193 H 0.93599 0.06088 0.14317 0.0
H1194 H 0.95708 0.07184 0.10974 0.0
H1195 H 0.04316 0.08098 0.15537 0.0
H1196 H 0.06122 0.06137 0.14998 0.0
H1197 H 0.0421 0.05726 0.17214 0.0
H1198 H 1.02173 0.01712 0.1527 0.0
H1199 H 0.04092 0.02102 0.13068 0.0
H1200 H 1.00912 1.01343 0.12255 0.0
H1201 H 0.98465 0.07898 0.07938 0.0
H1202 H 1.01399 0.07787 0.05255 0.0
H1203 H 0.05593 0.04917 0.10352 0.0
C1204 C 0.98815 0.04589 0.16043 0.0
C1205 C 0.96499 0.04902 0.16125 0.0
C1206 C 0.95377 0.05841 0.14285 0.0
C1207 C 0.96568 0.06483 0.12395 0.0
C1208 C 0.98863 0.0616 0.12386 0.0
C1209 C 0.9996 0.05214 0.14155 0.0
C1210 C 1.02346 0.04866 0.13667 0.0
C1211 C 0.04368 0.06293 0.15461 0.0
C1212 C 1.02381 0.02357 0.13558 0.0
C1213 C 1.02415 0.0573 0.11316 0.0
C1214 C 1.00412 0.06506 0.10622 0.0
C1215 C 1.00039 0.073 0.08467 0.0
C1216 C 1.01715 0.07223 0.06955 0.0
C1217 C 0.03711 0.06319 0.0759 0.0
C1218 C 0.04097 0.05631 0.09825 0.0
H1219 H 0.27734 0.76708 0.45373 0.0
H1220 H 0.31443 0.7132 0.4571 0.0
H1221 H 0.31836 0.71435 0.41561 0.0
H1222 H 0.245 0.75 0.39634 0.0
H1223 H 0.2482 0.7781 0.38782 0.0
H1224 H 0.24818 0.77336 0.41793 0.0
H1225 H 0.28886 0.80184 0.42847 0.0
H1226 H 0.28892 0.80679 0.39842 0.0
H1227 H 0.31348 0.79813 0.4139 0.0
H1228 H 0.31684 0.71995 0.37294 0.0
H1229 H 0.31347 0.73201 0.33353 0.0
H1230 H 0.27926 0.78383 0.3569 0.0
C1231 C 0.28644 0.75563 0.44579 0.0
C1232 C 0.29557 0.74 0.45901 0.0
C1233 C 0.30734 0.72539 0.44768 0.0
C1234 C 0.30958 0.72584 0.42396 0.0
C1235 C 0.30021 0.74118 0.41143 0.0
C1236 C 0.28916 0.75606 0.42199 0.0
C1237 C 0.28117 0.7712 0.40448 0.0
C1238 C 0.25402 0.76797 0.40147 0.0
C1239 C 0.29387 0.79596 0.41175 0.0
C1240 C 0.28927 0.76238 0.38246 0.0
C1241 C 0.30002 0.74491 0.3869 0.0
C1242 C 0.30856 0.7337 0.36936 0.0
C1243 C 0.30643 0.74065 0.34686 0.0
C1244 C 0.29603 0.75889 0.34174 0.0
C1245 C 0.28728 0.76981 0.36 0.0
H1246 H 0.64023 0.96268 0.68314 0.0
H1247 H 0.56925 0.92597 0.69017 0.0
H1248 H 0.55462 0.93445 0.65126 0.0
H1249 H 0.62585 1.00602 0.66723 0.0
H1250 H 0.64562 1.01406 0.6462 0.0
H1251 H 0.65343 0.99718 0.66829 0.0
H1252 H 0.6574 0.96629 0.63753 0.0
H1253 H 0.65036 0.98348 0.61508 0.0
H1254 H 0.63329 0.95498 0.61446 0.0
H1255 H 0.54536 0.95628 0.61872 0.0
H1256 H 0.54311 0.98782 0.59479 0.0
H1257 H 0.61938 1.01297 0.61103 0.0
C1258 C 0.622 0.95509 0.67575 0.0
C1259 C 0.60589 0.94359 0.68947 0.0
C1260 C 0.5819 0.93464 0.67975 0.0
C1261 C 0.57344 0.93941 0.65763 0.0
C1262 C 0.58924 0.95305 0.64548 0.0
C1263 C 0.61325 0.96035 0.65397 0.0
C1264 C 0.62545 0.97879 0.64054 0.0
C1265 C 0.63829 1.00025 0.65653 0.0
C1266 C 0.64264 0.97037 0.62604 0.0
C1267 C 0.60419 0.98241 0.62512 0.0
C1268 C 0.58364 0.96676 0.62733 0.0
C1269 C 0.56143 0.96825 0.61641 0.0
C1270 C 0.56023 0.98628 0.60309 0.0
C1271 C 0.58101 1.00287 0.60162 0.0
C1272 C 0.60321 1.00057 0.61227 0.0
H1273 H 0.31156 0.37494 0.95273 0.0
H1274 H 0.36889 0.35134 0.98984 0.0
H1275 H 0.37606 0.33362 0.95316 0.0
H1276 H 0.29011 0.32459 0.90973 0.0
H1277 H 0.28352 0.3401 0.88565 0.0
H1278 H 0.28201 0.35104 0.91476 0.0
H1279 H 0.31152 0.38793 0.90938 0.0
H1280 H 0.31312 0.3771 0.88026 0.0
H1281 H 0.3399 0.38684 0.90066 0.0
H1282 H 0.37844 0.31852 0.91225 0.0
H1283 H 0.37577 0.30691 0.87094 0.0
H1284 H 0.31667 0.33845 0.85616 0.0
C1285 C 0.32554 0.36592 0.95322 0.0
C1286 C 0.33957 0.36481 0.97508 0.0
C1287 C 0.35768 0.35276 0.97409 0.0
C1288 C 0.36197 0.3425 0.95303 0.0
C1289 C 0.34813 0.34397 0.93212 0.0
C1290 C 0.33015 0.35531 0.9319 0.0
C1291 C 0.31819 0.35417 0.90651 0.0
C1292 C 0.29189 0.34174 0.90402 0.0
C1293 C 0.32083 0.37793 0.89874 0.0
C1294 C 0.33229 0.3406 0.89264 0.0
C1295 C 0.34946 0.33503 0.90811 0.0
C1296 C 0.365 0.32287 0.90015 0.0
C1297 C 0.3633 0.31631 0.87618 0.0
C1298 C 0.34611 0.3215 0.85922 0.0
C1299 C 0.33014 0.33388 0.86803 0.0
H1300 H 1.02277 0.03305 0.28208 0.0
H1301 H 0.99249 0.09137 0.28558 0.0
H1302 H 1.02098 0.1076 0.32077 0.0
H1303 H 1.02393 0.02593 0.33817 0.0
H1304 H 0.05089 0.01601 0.34173 0.0
H1305 H 0.03345 1.01253 0.31374 0.0
H1306 H 0.07039 0.03375 0.29682 0.0
H1307 H 0.08788 0.03755 0.32509 0.0
H1308 H 0.08594 0.06158 0.30949 0.0
H1309 H 0.04789 0.11447 0.35836 0.0
H1310 H 0.06509 0.1086 0.39743 0.0
H1311 H 0.07459 0.04393 0.3705 0.0
C1312 C 1.02275 0.04963 0.28978 0.0
C1313 C 1.00575 0.06114 0.28107 0.0
C1314 C 1.00557 0.0824 0.292 0.0
C1315 C 1.02185 0.09183 0.31179 0.0
C1316 C 0.03806 0.07972 0.32039 0.0
C1317 C 0.03846 0.05895 0.30976 0.0
C1318 C 0.05393 0.04719 0.32467 0.0
C1319 C 0.03969 0.02409 0.32989 0.0
C1320 C 0.07584 0.04489 0.31334 0.0
C1321 C 0.06088 0.06385 0.34605 0.0
C1322 C 0.05252 0.08298 0.34287 0.0
C1323 C 0.05472 0.09968 0.36097 0.0
C1324 C 0.06434 0.09609 0.38316 0.0
C1325 C 0.07081 0.07558 0.38718 0.0
C1326 C 0.07029 0.05996 0.36808 0.0
H1327 H 0.28904 0.76946 0.59627 0.0
H1328 H 0.34605 0.7343 0.60201 0.0
H1329 H 0.35507 0.74629 0.64365 0.0
H1330 H 0.32049 0.81761 0.64018 0.0
H1331 H 0.29376 0.81993 0.65178 0.0
H1332 H 0.29222 0.80985 0.62176 0.0
H1333 H 0.2616 0.77377 0.62776 0.0
H1334 H 0.26319 0.78366 0.65782 0.0
H1335 H 0.26902 0.75665 0.65011 0.0
H1336 H 0.35568 0.75809 0.68546 0.0
H1337 H 0.35057 0.7729 0.72443 0.0
H1338 H 0.29548 0.80341 0.69376 0.0
C1339 C 0.30378 0.76476 0.60618 0.0
C1340 C 0.31676 0.75077 0.59542 0.0
C1341 C 0.33566 0.74483 0.60943 0.0
C1342 C 0.34099 0.75157 0.63331 0.0
C1343 C 0.32754 0.76464 0.64346 0.0
C1344 C 0.30958 0.77159 0.6304 0.0
C1345 C 0.29784 0.78542 0.6462 0.0
C1346 C 0.30128 0.80964 0.63958 0.0
C1347 C 0.27134 0.7742 0.64542 0.0
C1348 C 0.31175 0.78473 0.67001 0.0
C1349 C 0.32867 0.77245 0.66788 0.0
C1350 C 0.34277 0.76808 0.68729 0.0
C1351 C 0.33969 0.77652 0.70946 0.0
C1352 C 0.32292 0.78963 0.71235 0.0
C1353 C 0.30883 0.79386 0.69219 0.0
H1354 H 0.53744 0.96973 0.79269 0.0
H1355 H 0.57759 0.92252 0.81741 0.0
H1356 H 0.55775 0.92041 0.85246 0.0
H1357 H 0.5481 1.00196 0.84042 0.0
H1358 H 0.52003 1.0098 0.83972 0.0
H1359 H 0.52933 1.00094 0.81326 0.0
H1360 H 0.49043 0.96976 0.80351 0.0
H1361 H 0.48087 0.97868 0.83013 0.0
H1362 H 0.48221 0.9498 0.82408 0.0
H1363 H 0.54267 0.93085 0.88814 0.0
H1364 H 0.53655 0.95459 0.92155 0.0
H1365 H 0.50867 0.99734 0.87499 0.0
C1366 C 0.54111 0.95806 0.80493 0.0
C1367 C 0.55884 0.94615 0.80234 0.0
C1368 C 0.56388 0.93164 0.81904 0.0
C1369 C 0.55254 0.93023 0.83891 0.0
C1370 C 0.53626 0.94344 0.84178 0.0
C1371 C 0.53042 0.957 0.82508 0.0
C1372 C 0.51693 0.97334 0.83427 0.0
C1373 C 0.52937 0.99793 0.83179 0.0
C1374 C 0.49107 0.96753 0.82229 0.0
C1375 C 0.51818 0.96844 0.85935 0.0
C1376 C 0.5283 0.95038 0.86307 0.0
C1377 C 0.53423 0.94464 0.88533 0.0
C1378 C 0.53092 0.95835 0.90423 0.0
C1379 C 0.52236 0.97789 0.90078 0.0
C1380 C 0.51474 0.98223 0.87808 0.0
H1381 H 0.33125 0.35288 0.10574 0.0
H1382 H 0.29873 0.40685 0.12659 0.0
H1383 H 0.2946 0.39192 0.16409 0.0
H1384 H 0.29393 0.30908 0.1355 0.0
H1385 H 0.31756 0.29576 0.14486 0.0
H1386 H 0.31827 0.31015 0.11894 0.0
H1387 H 0.35971 0.33476 0.13552 0.0
H1388 H 0.35911 0.32044 0.16148 0.0
H1389 H 0.36388 0.35063 0.16348 0.0
H1390 H 0.29451 0.37206 0.20149 0.0
H1391 H 0.29761 0.34888 0.23393 0.0
H1392 H 0.32897 0.30515 0.19233 0.0
C1393 C 0.32309 0.36157 0.11805 0.0
C1394 C 0.31533 0.38161 0.11204 0.0
C1395 C 0.30498 0.39182 0.12961 0.0
C1396 C 0.30249 0.38333 0.15146 0.0
C1397 C 0.31028 0.36401 0.15674 0.0
C1398 C 0.32032 0.35308 0.14052 0.0
C1399 C 0.32712 0.33248 0.15126 0.0
C1400 C 0.31341 0.31056 0.13677 0.0
C1401 C 0.35406 0.3347 0.15303 0.0
C1402 C 0.31938 0.33364 0.17581 0.0
C1403 C 0.3098 0.35219 0.17838 0.0
C1404 C 0.30188 0.35747 0.19936 0.0
C1405 C 0.30374 0.34394 0.21802 0.0
C1406 C 0.31326 0.32449 0.21659 0.0
C1407 C 0.32115 0.31943 0.19462 0.0
H1408 H 0.2743 0.93572 0.03777 0.0
H1409 H 0.32842 0.9716 0.09373 0.0
H1410 H 0.3042 0.99877 0.10071 0.0
H1411 H 0.25816 0.98526 0.01627 0.0
H1412 H 0.22691 0.97204 1.00969 0.0
H1413 H 0.24858 0.9553 1.00864 0.0
H1414 H 0.22819 0.92997 0.03764 0.0
H1415 H 0.20652 0.94669 0.03885 0.0
H1416 H 0.22396 0.9426 0.06515 0.0
H1417 H 0.27422 0.02152 0.10265 0.0
H1418 H 0.24016 0.03915 0.09883 0.0
H1419 H 0.20534 0.98967 0.04104 0.0
C1420 C 0.28107 0.94936 0.0514 0.0
C1421 C 0.3033 0.95149 0.06518 0.0
C1422 C 0.31148 0.96955 0.08291 0.0
C1423 C 0.29785 0.98511 0.08706 0.0
C1424 C 0.27603 0.98249 0.07332 0.0
C1425 C 0.26763 0.96516 0.05581 0.0
C1426 C 0.24342 0.9663 0.04376 0.0
C1427 C 0.24433 0.96995 0.01807 0.0
C1428 C 0.2244 0.94513 0.04652 0.0
C1429 C 0.2396 0.9869 0.05734 0.0
C1430 C 0.25866 0.99592 0.0743 0.0
C1431 C 0.25925 1.01476 0.08929 0.0
C1432 C 0.23985 0.02476 0.08686 0.0
C1433 C 0.22009 0.016 0.06949 0.0
C1434 C 0.22006 0.99674 0.05459 0.0
H1435 H 0.76576 0.65756 0.0447 0.0
H1436 H 0.79584 0.60148 0.02595 0.0
H1437 H 0.75617 0.57551 0.02415 0.0
H1438 H 0.72669 0.62697 0.08256 0.0
H1439 H 0.70304 0.64087 0.07526 0.0
H1440 H 0.73339 0.65512 0.07396 0.0
H1441 H 0.72193 0.6616 0.03127 0.0
H1442 H 0.69156 0.64733 0.03244 0.0
H1443 H 0.70743 0.63788 0.01055 0.0
H1444 H 0.71104 0.55519 0.02243 0.0
H1445 H 0.66812 0.5427 0.02527 0.0
H1446 H 0.66712 0.61088 0.04927 0.0
C1447 C 0.76405 0.63982 0.04007 0.0
C1448 C 0.78448 0.6319 0.03512 0.0
C1449 C 0.78098 0.60833 0.02971 0.0
C1450 C 0.75825 0.59334 0.0286 0.0
C1451 C 0.73864 0.6017 0.03351 0.0
C1452 C 0.74147 0.62444 0.03958 0.0
C1453 C 0.7178 0.62896 0.04534 0.0
C1454 C 0.72039 0.63855 0.07079 0.0
C1455 C 0.70917 0.64489 0.02892 0.0
C1456 C 0.70106 0.60539 0.0412 0.0
C1457 C 0.71341 0.58993 0.03409 0.0
C1458 C 0.70153 0.56728 0.0283 0.0
C1459 C 0.67686 0.56026 0.02992 0.0
C1460 C 0.66363 0.57546 0.03778 0.0
C1461 C 0.67633 0.59848 0.04352 0.0
H1462 H 0.78373 0.52875 0.33105 0.0
H1463 H 0.73516 0.49964 0.3774 0.0
H1464 H 0.75479 0.46773 0.38013 0.0
H1465 H 0.784 0.48062 0.29892 0.0
H1466 H 0.81504 0.48783 0.29553 0.0
H1467 H 0.79967 0.5097 0.30026 0.0
H1468 H 0.83069 0.52736 0.33613 0.0
H1469 H 0.84634 0.50558 0.3314 0.0
H1470 H 0.83657 0.51031 0.35906 0.0
H1471 H 0.77545 0.4363 0.37207 0.0
H1472 H 0.79623 0.40925 0.35574 0.0
H1473 H 0.83316 0.46088 0.31711 0.0
C1474 C 0.77756 0.51589 0.34219 0.0
C1475 C 0.75795 0.51644 0.35394 0.0
C1476 C 0.75031 0.49945 0.36838 0.0
C1477 C 0.76135 0.48135 0.37002 0.0
C1478 C 0.78031 0.48097 0.35759 0.0
C1479 C 0.78861 0.49808 0.34432 0.0
C1480 C 0.80808 0.4932 0.33135 0.0
C1481 C 0.80127 0.4928 0.30497 0.0
C1482 C 0.83183 0.51011 0.34001 0.0
C1483 C 0.80858 0.47005 0.33831 0.0
C1484 C 0.79268 0.46331 0.35365 0.0
C1485 C 0.78841 0.44163 0.36057 0.0
C1486 C 0.80038 0.42639 0.35123 0.0
C1487 C 0.81638 0.43292 0.33512 0.0
C1488 C 0.82095 0.45527 0.32924 0.0
H1489 H 0.90433 0.428 0.52599 0.0
H1490 H 0.87904 0.45459 0.58646 0.0
H1491 H 0.91349 0.48713 0.59191 0.0
H1492 H 0.96711 0.44547 0.54734 0.0
H1493 H 0.97552 0.45294 0.5197 0.0
H1494 H 0.94921 0.43128 0.52088 0.0
H1495 H 0.92403 0.45277 0.49543 0.0
H1496 H 0.95027 0.47448 0.49418 0.0
H1497 H 0.92472 0.48165 0.50449 0.0
H1498 H 0.95166 0.51646 0.59164 0.0
H1499 H 0.98904 0.54144 0.5837 0.0
H1500 H 0.98797 0.49705 0.5222 0.0
C1501 C 0.9061 0.44062 0.54042 0.0
C1502 C 0.88897 0.43864 0.55583 0.0
C1503 C 0.89184 0.45571 0.57435 0.0
C1504 C 0.91142 0.47426 0.57767 0.0
C1505 C 0.92794 0.47575 0.56217 0.0
C1506 C 0.92539 0.4595 0.54378 0.0
C1507 C 0.9453 0.46554 0.52921 0.0
C1508 C 0.96016 0.44775 0.5293 0.0
C1509 C 0.93549 0.46881 0.50436 0.0
C1510 C 0.95939 0.48764 0.5423 0.0
C1511 C 0.94927 0.49314 0.56143 0.0
C1512 C 0.95963 0.51243 0.57658 0.0
C1513 C 0.98085 0.5265 0.57198 0.0
C1514 C 0.99121 0.52138 0.5522 0.0
C1515 C 0.98024 0.50167 0.53725 0.0
H1516 H 0.45981 0.13329 0.30966 0.0
H1517 H 0.46294 0.1032 0.24101 0.0
H1518 H 0.4305 0.11995 0.22475 0.0
H1519 H 0.39688 0.12274 0.30342 0.0
H1520 H 0.39621 0.14852 0.31986 0.0
H1521 H 0.42106 0.13589 0.32586 0.0
H1522 H 0.45003 0.17295 0.31923 0.0
H1523 H 0.42527 0.18575 0.31341 0.0
H1524 H 0.44545 0.18529 0.29241 0.0
H1525 H 0.39732 0.13956 0.21611 0.0
H1526 H 0.36568 0.16034 0.21576 0.0
H1527 H 0.38189 0.17448 0.29067 0.0
C1528 C 0.45397 0.13063 0.29115 0.0
C1529 C 0.46401 0.11722 0.27651 0.0
C1530 C 0.45551 0.11357 0.25247 0.0
C1531 C 0.43712 0.12299 0.24309 0.0
C1532 C 0.42723 0.13576 0.25804 0.0
C1533 C 0.4353 0.13955 0.28157 0.0
C1534 C 0.42074 0.15284 0.29402 0.0
C1535 C 0.40797 0.13917 0.31184 0.0
C1536 C 0.43631 0.17555 0.30544 0.0
C1537 C 0.40329 0.15595 0.27383 0.0
C1538 C 0.40742 0.14614 0.25321 0.0
C1539 C 0.39381 0.1472 0.23218 0.0
C1540 C 0.37567 0.15886 0.2322 0.0
C1541 C 0.37111 0.16911 0.25317 0.0
C1542 C 0.38502 0.16724 0.27423 0.0
H1543 H 0.42753 0.1272 0.52451 0.0
H1544 H 0.41144 0.11859 0.59436 0.0
H1545 H 0.44618 0.10232 0.6026 0.0
H1546 H 0.44728 0.07407 0.51661 0.0
H1547 H 0.47076 0.0853 0.50022 0.0
H1548 H 0.44493 0.09695 0.49937 0.0
H1549 H 0.47189 0.13641 0.51244 0.0
H1550 H 0.49779 0.12487 0.51334 0.0
H1551 H 0.49276 0.14066 0.53868 0.0
H1552 H 0.48471 0.08787 0.60465 0.0
H1553 H 0.52066 0.07441 0.59944 0.0
H1554 H 0.51316 0.08842 0.52752 0.0
C1555 C 0.43123 0.12191 0.54158 0.0
C1556 C 0.41592 0.12465 0.55878 0.0
C1557 C 0.42212 0.11704 0.58067 0.0
C1558 C 0.44217 0.10767 0.5856 0.0
C1559 C 0.45667 0.10526 0.56854 0.0
C1560 C 0.45136 0.11193 0.54679 0.0
C1561 C 0.46985 0.10669 0.53154 0.0
C1562 C 0.45747 0.08975 0.51069 0.0
C1563 C 0.4839 0.12845 0.52351 0.0
C1564 C 0.48633 0.09624 0.54806 0.0
C1565 C 0.47833 0.0959 0.56941 0.0
C1566 C 0.49077 0.08796 0.58785 0.0
C1567 C 0.51153 0.08024 0.58468 0.0
C1568 C 0.52045 0.07972 0.56304 0.0
C1569 C 0.50718 0.08795 0.54436 0.0
H1570 H 0.74486 0.65619 0.34717 0.0
H1571 H 0.79208 0.61234 0.33486 0.0
H1572 H 0.82174 0.64465 0.32516 0.0
H1573 H 0.75666 0.68816 0.30014 0.0
H1574 H 0.75521 0.71447 0.31503 0.0
H1575 H 0.73851 0.68838 0.32303 0.0
H1576 H 0.75879 0.699 0.36557 0.0
H1577 H 0.77547 0.72517 0.35763 0.0
H1578 H 0.79078 0.70622 0.37176 0.0
H1579 H 0.8454 0.681 0.31533 0.0
H1580 H 0.86131 0.7191 0.30472 0.0
H1581 H 0.7981 0.73909 0.3222 0.0
C1582 C 0.7616 0.65347 0.3428 0.0
C1583 C 0.76629 0.63183 0.3419 0.0
C1584 C 0.78818 0.62881 0.33567 0.0
C1585 C 0.80514 0.64705 0.33021 0.0
C1586 C 0.79985 0.6681 0.33096 0.0
C1587 C 0.77861 0.67142 0.33704 0.0
C1588 C 0.77678 0.6955 0.33515 0.0
C1589 C 0.75554 0.69668 0.31727 0.0
C1590 C 0.77538 0.70715 0.35895 0.0
C1591 C 0.80019 0.70507 0.32677 0.0
C1592 C 0.81332 0.68904 0.32473 0.0
C1593 C 0.83537 0.69375 0.31695 0.0
C1594 C 0.84424 0.71544 0.31097 0.0
C1595 C 0.83095 0.73206 0.31263 0.0
C1596 C 0.80869 0.72676 0.32074 0.0
H1597 H 1.00003 0.51968 0.85369 0.0
H1598 H 0.93869 0.54842 0.85676 0.0
H1599 H 0.91236 0.5105 0.8505 0.0
H1600 H 0.97381 0.47787 0.80854 0.0
H1601 H 0.98733 0.45635 0.81969 0.0
H1602 H 1.00205 0.48554 0.82703 0.0
H1603 H 1.00367 0.4802 0.87077 0.0
H1604 H 0.98922 0.45088 0.86357 0.0
H1605 H 0.97665 0.46841 0.8821 0.0
H1606 H 0.89231 0.47049 0.83981 0.0
H1607 H 0.87966 0.42989 0.82774 0.0
H1608 H 0.95364 0.42615 0.8328 0.0
C1609 C 0.98112 0.51794 0.8536 0.0
C1610 C 0.97144 0.53703 0.85573 0.0
C1611 C 0.94654 0.53407 0.85512 0.0
C1612 C 0.9314 0.51258 0.85161 0.0
C1613 C 0.94139 0.49418 0.84885 0.0
C1614 C 0.96566 0.49652 0.85006 0.0
C1615 C 0.97153 0.4739 0.84531 0.0
C1616 C 0.98444 0.4734 0.82387 0.0
C1617 C 0.98613 0.468 0.86672 0.0
C1618 C 0.94674 0.45867 0.8407 0.0
C1619 C 0.92968 0.47076 0.84295 0.0
C1620 C 0.90549 0.46071 0.83845 0.0
C1621 C 0.89849 0.43759 0.83169 0.0
C1622 C 0.91561 0.42466 0.82959 0.0
C1623 C 0.94007 0.43548 0.83416 0.0
H1624 H 0.12964 0.90534 0.0786 0.0
H1625 H 0.08274 0.89768 0.1312 0.0
H1626 H 0.06042 0.92304 0.11222 0.0
H1627 H 0.13486 0.96344 0.07738 0.0
H1628 H 0.13646 0.96324 0.04674 0.0
H1629 H 0.14637 0.94223 0.06269 0.0
H1630 H 0.11745 0.91104 0.03396 0.0
H1631 H 0.10735 0.93216 0.0182 0.0
H1632 H 0.08624 0.91075 0.02936 0.0
H1633 H 0.04444 0.95082 0.0883 0.0
H1634 H 0.03952 0.98203 0.06482 0.0
H1635 H 0.09888 0.97332 0.02994 0.0
C1636 C 0.11433 0.9086 0.08579 0.0
C1637 C 0.10759 0.89927 0.10608 0.0
C1638 C 0.088 0.90453 0.11551 0.0
C1639 C 0.07517 0.91881 0.10478 0.0
C1640 C 0.0824 0.92792 0.08485 0.0
C1641 C 0.10174 0.92323 0.07564 0.0
C1642 C 0.10758 0.93705 0.05571 0.0
C1643 C 0.13281 0.95239 0.06097 0.0
C1644 C 0.10446 0.92183 0.03296 0.0
C1645 C 0.08879 0.95054 0.05536 0.0
C1646 C 0.07405 0.94469 0.07191 0.0
C1647 C 0.05579 0.95542 0.07519 0.0
C1648 C 0.05301 0.97302 0.06169 0.0
C1649 C 0.06874 0.97995 0.04553 0.0
C1650 C 0.0865 0.96823 0.04207 0.0
H1651 H 0.97132 0.23787 0.83712 0.0
H1652 H 0.93641 0.20354 0.89043 0.0
H1653 H 0.89734 0.19968 0.86675 0.0
H1654 H 0.93232 0.27115 0.8277 0.0
H1655 H 0.93279 0.27157 0.79692 0.0
H1656 H 0.95795 0.26689 0.81515 0.0
H1657 H 0.95507 0.22955 0.79006 0.0
H1658 H 0.92979 0.23415 0.77169 0.0
H1659 H 0.9275 0.20838 0.78529 0.0
H1660 H 0.86228 0.20417 0.84027 0.0
H1661 H 0.83402 0.21949 0.81503 0.0
H1662 H 0.89163 0.25277 0.77985 0.0
C1663 C 0.95548 0.22876 0.84332 0.0
C1664 C 0.95678 0.2206 0.86532 0.0
C1665 C 0.93569 0.20966 0.87345 0.0
C1666 C 0.91348 0.20727 0.86007 0.0
C1667 C 0.91268 0.21608 0.83869 0.0
C1668 C 0.93314 0.2267 0.83039 0.0
C1669 C 0.92732 0.23782 0.80878 0.0
C1670 C 0.93823 0.26336 0.81237 0.0
C1671 C 0.9354 0.22681 0.78771 0.0
C1672 C 0.90047 0.23262 0.80678 0.0
C1673 C 0.89234 0.21951 0.82379 0.0
C1674 C 0.86837 0.21406 0.82659 0.0
C1675 C 0.85242 0.22281 0.81211 0.0
C1676 C 0.86061 0.23723 0.79538 0.0
C1677 C 0.88482 0.24157 0.79228 0.0
H1678 H 0.61753 0.30272 0.62239 0.0
H1679 H 0.68188 0.32109 0.59064 0.0
H1680 H 0.68015 0.2809 0.58088 0.0
H1681 H 0.63214 0.26015 0.65 0.0
H1682 H 0.60289 0.24164 0.64599 0.0
H1683 H 0.60611 0.2715 0.64628 0.0
H1684 H 0.58066 0.26607 0.60585 0.0
H1685 H 0.57696 0.23605 0.60556 0.0
H1686 H 0.58878 0.2504 0.58209 0.0
H1687 H 0.67566 0.23949 0.58114 0.0
H1688 H 0.66673 0.19942 0.5884 0.0
H1689 H 0.60514 0.20803 0.61961 0.0
C1690 C 0.63084 0.29835 0.61269 0.0
C1691 C 0.64985 0.31505 0.60727 0.0
C1692 C 0.66707 0.3086 0.59484 0.0
C1693 C 0.66624 0.28581 0.58924 0.0
C1694 C 0.6479 0.26976 0.59588 0.0
C1695 C 0.63024 0.27574 0.60696 0.0
C1696 C 0.61382 0.25539 0.61426 0.0
C1697 C 0.61376 0.2573 0.64069 0.0
C1698 C 0.58856 0.25176 0.60115 0.0
C1699 C 0.62565 0.23714 0.60656 0.0
C1700 C 0.64514 0.24573 0.59578 0.0
C1701 C 0.66015 0.23247 0.58907 0.0
C1702 C 0.6551 0.20985 0.59346 0.0
C1703 C 0.63523 0.20077 0.60446 0.0
C1704 C 0.62019 0.21453 0.6108 0.0
H1705 H 0.59708 0.76202 0.34266 0.0
H1706 H 0.61475 0.71827 0.39394 0.0
H1707 H 0.65188 0.71766 0.37777 0.0
H1708 H 0.62329 0.73846 0.29474 0.0
H1709 H 0.63406 0.76582 0.28532 0.0
H1710 H 0.60738 0.76016 0.29878 0.0
H1711 H 0.62565 0.79426 0.32936 0.0
H1712 H 0.65239 0.79994 0.31611 0.0
H1713 H 0.65395 0.79571 0.34644 0.0
H1714 H 0.68855 0.72445 0.35819 0.0
H1715 H 0.7223 0.73863 0.33716 0.0
H1716 H 0.68124 0.77949 0.30024 0.0
C1717 C 0.60843 0.75181 0.3501 0.0
C1718 C 0.60294 0.74001 0.36941 0.0
C1719 C 0.61858 0.72735 0.37906 0.0
C1720 C 0.63966 0.72685 0.36996 0.0
C1721 C 0.64482 0.73914 0.35127 0.0
C1722 C 0.62963 0.75135 0.34143 0.0
C1723 C 0.64028 0.76478 0.32291 0.0
C1724 C 0.62536 0.75682 0.29902 0.0
C1725 C 0.64325 0.79017 0.32909 0.0
C1726 C 0.66407 0.75861 0.32422 0.0
C1727 C 0.66623 0.74357 0.34044 0.0
C1728 C 0.68701 0.73613 0.34535 0.0
C1729 C 0.70615 0.74445 0.33348 0.0
C1730 C 0.70445 0.76024 0.3171 0.0
C1731 C 0.68299 0.76716 0.31234 0.0
H1732 H 0.08594 0.21168 0.43551 0.0
H1733 H 0.06753 0.25089 0.49209 0.0
H1734 H 0.06433 0.21817 0.51505 0.0
H1735 H 0.04581 0.15743 0.44369 0.0
H1736 H 0.06591 0.14031 0.43675 0.0
H1737 H 0.06725 0.16669 0.42449 0.0
H1738 H 0.11164 0.1799 0.44101 0.0
H1739 H 0.11041 0.15353 0.45326 0.0
H1740 H 0.1208 0.17966 0.47158 0.0
H1741 H 0.06328 0.17936 0.53354 0.0
H1742 H 0.06382 0.14141 0.54432 0.0
H1743 H 0.08179 0.12366 0.47669 0.0
C1744 C 0.0813 0.21364 0.45279 0.0
C1745 C 0.07721 0.23519 0.46141 0.0
C1746 C 0.07098 0.23562 0.48433 0.0
C1747 C 0.06907 0.21666 0.49776 0.0
C1748 C 0.07316 0.19608 0.48879 0.0
C1749 C 0.0791 0.19442 0.46664 0.0
C1750 C 0.08229 0.17004 0.46114 0.0
C1751 C 0.06425 0.1579 0.44026 0.0
C1752 C 0.1078 0.17083 0.45645 0.0
C1753 C 0.07733 0.15824 0.48347 0.0
C1754 C 0.07217 0.17384 0.49917 0.0
C1755 C 0.06728 0.16737 0.52105 0.0
C1756 C 0.06764 0.14519 0.52715 0.0
C1757 C 0.0727 0.12809 0.51192 0.0
C1758 C 0.0776 0.13536 0.48936 0.0
H1759 H 0.66534 0.32181 0.18212 0.0
H1760 H 0.62025 0.27938 0.22343 0.0
H1761 H 0.6558 0.27383 0.2474 0.0
H1762 H 0.71178 0.29072 0.18356 0.0
H1763 H 0.73624 0.31511 0.18643 0.0
H1764 H 0.70739 0.31631 0.17222 0.0
H1765 H 0.70748 0.35058 0.20054 0.0
H1766 H 0.73636 0.34952 0.21478 0.0
H1767 H 0.71205 0.34857 0.23133 0.0
H1768 H 0.6971 0.27058 0.26655 0.0
H1769 H 0.73924 0.2725 0.28045 0.0
H1770 H 0.76035 0.31875 0.22976 0.0
C1771 C 0.66282 0.31152 0.19635 0.0
C1772 C 0.63907 0.30117 0.20045 0.0
C1773 C 0.63751 0.28778 0.21945 0.0
C1774 C 0.65792 0.28439 0.23334 0.0
C1775 C 0.68071 0.29455 0.22874 0.0
C1776 C 0.68336 0.30813 0.21085 0.0
C1777 C 0.71019 0.31723 0.21003 0.0
C1778 C 0.71679 0.30938 0.18667 0.0
C1779 C 0.71692 0.34301 0.21443 0.0
C1780 C 0.72211 0.30657 0.23003 0.0
C1781 C 0.70457 0.29337 0.24038 0.0
C1782 C 0.7108 0.28111 0.25858 0.0
C1783 C 0.73513 0.28229 0.26644 0.0
C1784 C 0.75394 0.29591 0.25675 0.0
C1785 C 0.74691 0.30833 0.23811 0.0
H1786 H 0.57017 0.88349 0.94013 0.0
H1787 H 0.61149 0.86097 0.99647 0.0
H1788 H 0.6152 0.89745 0.01962 0.0
H1789 H 0.60251 0.94236 0.9477 0.0
H1790 H 0.57693 0.9539 0.94136 0.0
H1791 H 0.57666 0.92611 0.92884 0.0
H1792 H 0.53881 0.90948 0.94573 0.0
H1793 H 0.53821 0.93692 0.95859 0.0
H1794 H 0.53805 0.9141 0.97643 0.0
H1795 H 0.61517 0.93969 0.03763 0.0
H1796 H 0.61028 0.97813 0.04745 0.0
H1797 H 0.5679 0.97472 0.98053 0.0
C1798 C 0.58001 0.88595 0.95741 0.0
C1799 C 0.59048 0.86807 0.96588 0.0
C1800 C 0.60305 0.87329 0.98886 0.0
C1801 C 0.60532 0.89446 1.00234 0.0
C1802 C 0.59492 0.91142 0.9934 0.0
C1803 C 0.58232 0.9072 0.97131 0.0
C1804 C 0.57259 0.92816 0.9657 0.0
C1805 C 0.58275 0.93822 0.94463 0.0
C1806 C 0.54529 0.92178 0.96133 0.0
C1807 C 0.58159 0.94493 0.98783 0.0
C1808 C 0.59458 0.9349 1.0036 0.0
C1809 C 0.60489 0.9472 0.02511 0.0
C1810 C 0.602 0.96955 0.03066 0.0
C1811 C 0.58863 0.98074 0.01527 0.0
C1812 C 0.57829 0.96755 0.99329 0.0
H1813 H 0.96754 0.76291 0.70938 0.0
H1814 H 0.995 0.8336 0.7026 0.0
H1815 H 0.96311 0.84288 0.72284 0.0
H1816 H 0.90421 0.76533 0.69885 0.0
H1817 H 0.89449 0.74535 0.71896 0.0
H1818 H 0.92005 0.74383 0.7049 0.0
H1819 H 0.94533 0.7462 0.74481 0.0
H1820 H 0.91983 0.74779 0.75896 0.0
H1821 H 0.94694 0.76938 0.76616 0.0
H1822 H 0.92807 0.84539 0.74614 0.0
H1823 H 0.89214 0.84057 0.76543 0.0
H1824 H 0.8823 0.76819 0.75514 0.0
C1825 C 0.96699 0.7804 0.71219 0.0
C1826 C 0.98481 0.7975 0.70412 0.0
C1827 C 0.98233 0.81997 0.70825 0.0
C1828 C 0.964 0.82549 0.71998 0.0
C1829 C 0.94701 0.8085 0.72761 0.0
C1830 C 0.94805 0.78628 0.72354 0.0
C1831 C 0.92654 0.77131 0.73265 0.0
C1832 C 0.91036 0.75551 0.71265 0.0
C1833 C 0.93518 0.75786 0.75178 0.0
C1834 C 0.9135 0.78846 0.74263 0.0
C1835 C 0.926 0.80987 0.73974 0.0
C1836 C 0.91825 0.82859 0.74815 0.0
C1837 C 0.89752 0.82564 0.75938 0.0
C1838 C 0.88347 0.80405 0.7623 0.0
C1839 C 0.892 0.78513 0.75348 0.0
H1840 H 0.17045 0.08241 0.89765 0.0
H1841 H 0.20639 0.028 0.90517 0.0
H1842 H 0.17468 1.00844 0.92628 0.0
H1843 H 0.15422 0.08438 0.95292 0.0
H1844 H 0.12608 0.09099 0.94398 0.0
H1845 H 0.1502 0.09894 0.9275 0.0
H1846 H 0.12319 0.07729 0.89057 0.0
H1847 H 0.0991 0.0689 0.90717 0.0
H1848 H 0.10924 0.04791 0.89061 0.0
H1849 H 0.14117 0.99696 0.95005 0.0
H1850 H 0.11106 0.99638 0.97675 0.0
H1851 H 0.09711 0.05781 0.95251 0.0
C1852 C 0.17159 0.06625 0.90349 0.0
C1853 C 0.19088 0.05671 0.89976 0.0
C1854 C 0.19176 0.03563 0.90786 0.0
C1855 C 0.17373 0.02432 0.91968 0.0
C1856 C 0.15491 0.03423 0.92301 0.0
C1857 C 0.15382 0.05479 0.91519 0.0
C1858 C 0.13296 0.0629 0.92258 0.0
C1859 C 0.14138 0.08563 0.93764 0.0
C1860 C 0.11507 0.06433 0.90147 0.0
C1861 C 0.12287 0.04409 0.93654 0.0
C1862 C 0.13545 0.02745 0.93628 0.0
C1863 C 0.1308 1.00955 0.94988 0.0
C1864 C 0.11356 1.00919 0.9648 0.0
C1865 C 0.10134 0.0266 0.96584 0.0
C1866 C 0.10556 0.04382 0.95111 0.0
H1867 H 0.82831 0.36769 0.62832 0.0
H1868 H 0.83258 0.31052 0.58231 0.0
H1869 H 0.83299 0.28767 0.61579 0.0
H1870 H 0.86814 0.35779 0.67632 0.0
H1871 H 0.85188 0.36713 0.69791 0.0
H1872 H 0.85124 0.37851 0.67029 0.0
H1873 H 0.80523 0.36651 0.66401 0.0
H1874 H 0.80576 0.3551 0.6916 0.0
H1875 H 0.79065 0.33756 0.6657 0.0
H1876 H 0.83092 0.27063 0.65485 0.0
H1877 H 0.82979 0.26198 0.6956 0.0
H1878 H 0.83001 0.33134 0.71602 0.0
C1879 C 0.82922 0.35031 0.62515 0.0
C1880 C 0.83017 0.34086 0.6025 0.0
C1881 C 0.83176 0.31815 0.59939 0.0
C1882 C 0.83196 0.30505 0.61834 0.0
C1883 C 0.83091 0.31495 0.6404 0.0
C1884 C 0.82983 0.33718 0.64386 0.0
C1885 C 0.82956 0.34418 0.66928 0.0
C1886 C 0.85152 0.36301 0.67902 0.0
C1887 C 0.80643 0.35125 0.67284 0.0
C1888 C 0.83059 0.3224 0.6797 0.0
C1889 C 0.83106 0.30562 0.66277 0.0
C1890 C 0.83086 0.28376 0.6682 0.0
C1891 C 0.83019 0.27898 0.69141 0.0
C1892 C 0.83021 0.29603 0.70908 0.0
C1893 C 0.83052 0.31804 0.70302 0.0
H1894 H 0.60165 0.09521 0.40047 0.0
H1895 H 0.55025 0.13609 0.40372 0.0
H1896 H 0.56267 0.14451 0.446 0.0
H1897 H 0.58818 0.06747 0.44387 0.0
H1898 H 0.61747 0.06508 0.45559 0.0
H1899 H 0.61124 0.06901 0.42562 0.0
H1900 H 0.64593 0.10456 0.43065 0.0
H1901 H 0.65249 0.1006 0.46084 0.0
H1902 H 0.6471 0.12702 0.4527 0.0
H1903 H 0.57261 0.13995 0.48801 0.0
H1904 H 0.57811 0.12235 0.52448 0.0
H1905 H 0.6219 0.08332 0.49368 0.0
C1906 C 0.59379 0.10678 0.40994 0.0
C1907 C 0.57505 0.11502 0.39893 0.0
C1908 C 0.56487 0.12983 0.41182 0.0
C1909 C 0.57186 0.13471 0.43586 0.0
C1910 C 0.58928 0.12493 0.44655 0.0
C1911 C 0.60041 0.11155 0.43383 0.0
C1912 C 0.6151 0.09952 0.44933 0.0
C1913 C 0.60751 0.07378 0.44324 0.0
C1914 C 0.64174 0.10847 0.44832 0.0
C1915 C 0.60876 0.10648 0.47261 0.0
C1916 C 0.59467 0.12188 0.47089 0.0
C1917 C 0.5842 0.12845 0.48969 0.0
C1918 C 0.58742 0.11839 0.51035 0.0
C1919 C 0.60048 0.10157 0.51174 0.0
C1920 C 0.61207 0.09635 0.49302 0.0
H1921 H 0.82963 0.72678 0.10662 0.0
H1922 H 0.90011 0.71393 0.11513 0.0
H1923 H 0.90696 0.73113 0.15558 0.0
H1924 H 0.84408 0.78061 0.14462 0.0
H1925 H 0.81685 0.77469 0.15718 0.0
H1926 H 0.81753 0.7627 0.12826 0.0
H1927 H 0.80157 0.72297 0.1402 0.0
H1928 H 0.8009 0.73485 0.16916 0.0
H1929 H 0.81721 0.71355 0.1647 0.0
H1930 H 0.90687 0.75014 0.19627 0.0
H1931 H 0.89942 0.76704 0.2332 0.0
H1932 H 0.82781 0.76671 0.20231 0.0
C1933 C 0.84671 0.72795 0.11682 0.0
C1934 C 0.86457 0.71909 0.10671 0.0
C1935 C 0.88616 0.72058 0.1216 0.0
C1936 C 0.89023 0.73041 0.14493 0.0
C1937 C 0.87245 0.73872 0.15428 0.0
C1938 C 0.85096 0.73747 0.14075 0.0
C1939 C 0.83455 0.74681 0.15584 0.0
C1940 C 0.82784 0.76743 0.14588 0.0
C1941 C 0.81222 0.72845 0.15757 0.0
C1942 C 0.85013 0.75356 0.17977 0.0
C1943 C 0.87202 0.74883 0.17818 0.0
C1944 C 0.8897 0.75375 0.1975 0.0
C1945 C 0.88521 0.76355 0.21874 0.0
C1946 C 0.86295 0.76857 0.22165 0.0
C1947 C 0.8451 0.76325 0.2014 0.0
H1948 H 0.19597 0.092 0.79641 0.0
H1949 H 0.23408 0.042 0.77668 0.0
H1950 H 0.21247 0.03735 0.73684 0.0
H1951 H 0.13966 0.06603 0.76181 0.0
H1952 H 0.13372 0.09248 0.75442 0.0
H1953 H 0.1515 0.09112 0.78149 0.0
H1954 H 0.18566 0.12214 0.77093 0.0
H1955 H 0.16799 0.12361 0.74385 0.0
H1956 H 0.19716 0.11825 0.74402 0.0
H1957 H 0.18678 0.03854 0.69908 0.0
H1958 H 0.15991 0.04609 0.66615 0.0
H1959 H 0.1403 0.09657 0.71073 0.0
C1960 C 0.19967 0.07991 0.78381 0.0
C1961 C 0.21662 0.06726 0.78968 0.0
C1962 C 0.22113 0.05184 0.77256 0.0
C1963 C 0.20893 0.04906 0.74992 0.0
C1964 C 0.19242 0.06191 0.74473 0.0
C1965 C 0.18786 0.07708 0.76118 0.0
C1966 C 0.1699 0.08942 0.75107 0.0
C1967 C 0.14736 0.08445 0.7629 0.0
C1968 C 0.18084 0.11486 0.75255 0.0
C1969 C 0.16505 0.07886 0.72629 0.0
C1970 C 0.17809 0.06295 0.72298 0.0
C1971 C 0.17656 0.05102 0.70146 0.0
C1972 C 0.16137 0.05556 0.68282 0.0
C1973 C 0.14803 0.07201 0.68579 0.0
C1974 C 0.14996 0.0837 0.7079 0.0
H1975 H 0.81881 0.36371 0.4548 0.0
H1976 H 0.85337 0.3144 0.48442 0.0
H1977 H 0.85175 0.29571 0.4453 0.0
H1978 H 0.78003 0.32623 0.40707 0.0
H1979 H 0.78374 0.34679 0.38637 0.0
H1980 H 0.78609 0.35577 0.41678 0.0
H1981 H 0.82789 0.38101 0.4156 0.0
H1982 H 0.82558 0.37206 0.38521 0.0
H1983 H 0.85043 0.36872 0.40506 0.0
H1984 H 0.84661 0.28208 0.4034 0.0
H1985 H 0.84085 0.27566 0.3609 0.0
H1986 H 0.81182 0.33481 0.35644 0.0
C1987 C 0.82575 0.34881 0.45301 0.0
C1988 C 0.83601 0.34038 0.47284 0.0
C1989 C 0.84537 0.32115 0.46964 0.0
C1990 C 0.84449 0.31037 0.44743 0.0
C1991 C 0.83449 0.31912 0.42829 0.0
C1992 C 0.82548 0.33803 0.43072 0.0
C1993 C 0.81692 0.34449 0.40693 0.0
C1994 C 0.7901 0.34324 0.40413 0.0
C1995 C 0.83105 0.36797 0.40298 0.0
C1996 C 0.82251 0.32623 0.39089 0.0
C1997 C 0.83239 0.3117 0.40374 0.0
C1998 C 0.83892 0.29339 0.39316 0.0
C1999 C 0.83549 0.28985 0.36887 0.0
C2000 C 0.82581 0.30463 0.35503 0.0
C2001 C 0.81922 0.32312 0.36636 0.0
H2002 H 0.54232 0.06267 0.24766 0.0
H2003 H 0.60138 0.07348 0.30334 0.0
H2004 H 0.62425 0.05623 0.27718 0.0
H2005 H 0.54801 1.00881 0.22392 0.0
H2006 H 0.54001 1.0141 0.19439 0.0
H2007 H 0.52839 0.02718 0.21754 0.0
H2008 H 0.54539 0.06669 0.20491 0.0
H2009 H 0.55638 0.05365 0.18137 0.0
H2010 H 0.57645 0.07488 0.20177 0.0
H2011 H 0.64104 0.03895 0.24387 0.0
H2012 H 0.6511 0.02628 0.20591 0.0
H2013 H 0.57984 0.02564 0.17384 0.0
C2014 C 0.56014 0.06164 0.25439 0.0
C2015 C 0.57011 0.06955 0.27751 0.0
C2016 C 0.59342 0.06762 0.28563 0.0
C2017 C 0.60646 0.05768 0.27097 0.0
C2018 C 0.59578 0.04954 0.24841 0.0
C2019 C 0.57319 0.05155 0.2402 0.0
C2020 C 0.56579 0.04208 0.2152 0.0
C2021 C 0.54427 0.02184 0.21263 0.0
C2022 C 0.56073 0.06042 0.19992 0.0
C2023 C 0.58796 0.03483 0.21036 0.0
C2024 C 0.60506 0.03904 0.22971 0.0
C2025 C 0.62767 0.0353 0.2287 0.0
C2026 C 0.6332 0.02802 0.20713 0.0
C2027 C 0.61616 0.0246 0.18696 0.0
C2028 C 0.59304 0.02728 0.18897 0.0
H2029 H 0.8171 0.75106 0.96801 0.0
H2030 H 0.85979 0.70374 0.95308 0.0
H2031 H 0.86115 0.71577 0.91377 0.0
H2032 H 0.78312 0.74551 0.90958 0.0
H2033 H 0.78334 0.77492 0.90929 0.0
H2034 H 0.78499 0.76262 0.93642 0.0
H2035 H 0.82368 0.79236 0.95177 0.0
H2036 H 0.82212 0.80474 0.92468 0.0
H2037 H 0.8484 0.7957 0.93547 0.0
H2038 H 0.85682 0.73189 0.8739 0.0
H2039 H 0.84966 0.75193 0.83955 0.0
H2040 H 0.81201 0.79203 0.87806 0.0
C2041 C 0.82679 0.74317 0.95654 0.0
C2042 C 0.83834 0.72598 0.96458 0.0
C2043 C 0.85076 0.7167 0.94828 0.0
C2044 C 0.8516 0.72351 0.92551 0.0
C2045 C 0.8402 0.74022 0.91826 0.0
C2046 C 0.82817 0.75018 0.9334 0.0
C2047 C 0.81799 0.76825 0.92099 0.0
C2048 C 0.79074 0.76249 0.91896 0.0
C2049 C 0.82868 0.79166 0.93401 0.0
C2050 C 0.82604 0.76684 0.89668 0.0
C2051 C 0.83864 0.75026 0.8956 0.0
C2052 C 0.84718 0.74502 0.87494 0.0
C2053 C 0.84297 0.75667 0.85519 0.0
C2054 C 0.83054 0.77419 0.85529 0.0
C2055 C 0.82202 0.77922 0.87685 0.0
H2056 H 0.86687 0.13912 0.04375 0.0
H2057 H 0.88684 0.19119 0.99834 0.0
H2058 H 0.91637 0.1717 0.98488 0.0
H2059 H 0.92573 0.12955 0.05967 0.0
H2060 H 0.91478 0.09961 0.0596 0.0
H2061 H 0.89626 0.11836 0.06644 0.0
H2062 H 0.86324 0.09676 0.03378 0.0
H2063 H 0.88168 0.07801 0.0268 0.0
H2064 H 0.87011 0.0933 1.00466 0.0
H2065 H 0.94336 0.14569 0.97585 0.0
H2066 H 0.96497 0.11562 0.97187 0.0
H2067 H 0.92573 0.07996 0.02204 0.0
C2068 C 0.87763 0.14662 0.03118 0.0
C2069 C 0.87462 0.16681 0.02222 0.0
C2070 C 0.88888 0.17582 1.00554 0.0
C2071 C 0.9057 0.16485 0.99779 0.0
C2072 C 0.90801 0.14483 1.00681 0.0
C2073 C 0.89433 0.13583 0.02315 0.0
C2074 C 0.89959 0.11374 0.02954 0.0
C2075 C 0.90969 0.11543 0.05534 0.0
C2076 C 0.87733 0.09431 0.02331 0.0
C2077 C 0.91828 0.11161 0.01417 0.0
C2078 C 0.92302 0.12974 1.00127 0.0
C2079 C 0.93967 0.13139 0.98583 0.0
C2080 C 0.95175 0.11409 0.98355 0.0
C2081 C 0.9471 0.09525 0.99655 0.0
C2082 C 0.93004 0.09417 0.01202 0.0
H2083 H 0.40606 0.44405 0.03029 0.0
H2084 H 0.38209 0.49465 0.07038 0.0
H2085 H 0.42165 0.52059 0.07207 0.0
H2086 H 0.4669 0.45663 0.05968 0.0
H2087 H 0.48003 0.45216 0.03386 0.0
H2088 H 0.44991 0.43749 0.03559 0.0
H2089 H 0.43536 0.45325 0.99809 0.0
H2090 H 0.46544 0.46796 0.99623 0.0
H2091 H 0.44239 0.48321 0.9964 0.0
H2092 H 0.4659 0.5414 0.07086 0.0
H2093 H 0.50781 0.55504 0.06537 0.0
H2094 H 0.50457 0.49251 0.02428 0.0
C2095 C 0.40894 0.46063 0.03938 0.0
C2096 C 0.39007 0.46687 0.05022 0.0
C2097 C 0.39547 0.48898 0.0618 0.0
C2098 C 0.41822 0.50398 0.0629 0.0
C2099 C 0.43621 0.49724 0.0522 0.0
C2100 C 0.43173 0.47606 0.04045 0.0
C2101 C 0.45419 0.47311 0.03023 0.0
C2102 C 0.46329 0.45368 0.04044 0.0
C2103 C 0.44903 0.46914 1.00366 0.0
C2104 C 0.47208 0.4958 0.03807 0.0
C2105 C 0.46125 0.50938 0.0509 0.0
C2106 C 0.4742 0.53078 0.06065 0.0
C2107 C 0.49837 0.53849 0.0574 0.0
C2108 C 0.51032 0.52535 0.04413 0.0
C2109 C 0.49647 0.5035 0.03426 0.0
H2110 H 0.33126 0.57309 0.72543 0.0
H2111 H 0.39554 0.57623 0.77284 0.0
H2112 H 0.38763 0.60786 0.79653 0.0
H2113 H 0.33792 0.63006 0.72458 0.0
H2114 H 0.30685 0.6299 0.72342 0.0
H2115 H 0.31552 0.6054 0.71215 0.0
H2116 H 0.29055 0.58111 0.73913 0.0
H2117 H 0.28165 0.60557 0.75041 0.0
H2118 H 0.29561 0.58932 0.7699 0.0
H2119 H 0.37584 0.64223 0.81187 0.0
H2120 H 0.35976 0.67585 0.81861 0.0
H2121 H 0.30319 0.64983 0.76146 0.0
C2122 C 0.34335 0.58005 0.7411 0.0
C2123 C 0.36397 0.57221 0.74731 0.0
C2124 C 0.37957 0.58195 0.76779 0.0
C2125 C 0.37521 0.59989 0.7814 0.0
C2126 C 0.35507 0.60767 0.77443 0.0
C2127 C 0.33924 0.59791 0.75491 0.0
C2128 C 0.31998 0.61052 0.75014 0.0
C2129 C 0.3201 0.6195 0.72616 0.0
C2130 C 0.2955 0.59575 0.75255 0.0
C2131 C 0.32797 0.62939 0.76949 0.0
C2132 C 0.3481 0.62736 0.78347 0.0
C2133 C 0.3598 0.64379 0.80135 0.0
C2134 C 0.35068 0.66285 0.80494 0.0
C2135 C 0.33014 0.66521 0.79071 0.0
C2136 C 0.31857 0.64813 0.77297 0.0
H2137 H 0.2067 0.68142 0.5148 0.0
H2138 H 0.25516 0.63919 0.53425 0.0
H2139 H 0.22134 0.60763 0.53582 0.0
H2140 H 0.16367 0.65994 0.55107 0.0
H2141 H 0.13816 0.66053 0.53056 0.0
H2142 H 0.16616 0.68002 0.52983 0.0
H2143 H 0.165 0.66617 0.48669 0.0
H2144 H 0.13696 0.64664 0.4873 0.0
H2145 H 0.16163 0.63662 0.47842 0.0
H2146 H 0.18291 0.5812 0.53834 0.0
H2147 H 0.14143 0.56088 0.53942 0.0
H2148 H 0.11689 0.61865 0.51664 0.0
C2149 C 0.21017 0.66548 0.51915 0.0
C2150 C 0.23376 0.66299 0.52442 0.0
C2151 C 0.2374 0.64175 0.53012 0.0
C2152 C 0.21825 0.62358 0.53107 0.0
C2153 C 0.19535 0.62663 0.52609 0.0
C2154 C 0.19111 0.64692 0.52002 0.0
C2155 C 0.16456 0.64552 0.51585 0.0
C2156 C 0.15774 0.66251 0.53285 0.0
C2157 C 0.15657 0.64894 0.49056 0.0
C2158 C 0.15474 0.62147 0.52091 0.0
C2159 C 0.17289 0.61094 0.52683 0.0
C2160 C 0.16849 0.58913 0.53343 0.0
C2161 C 0.14488 0.57773 0.53405 0.0
C2162 C 0.12593 0.58805 0.52787 0.0
C2163 C 0.13099 0.61016 0.52104 0.0
H2164 H 0.70825 0.9662 0.80865 0.0
H2165 H 0.65131 0.90606 0.80137 0.0
H2166 H 0.67633 0.88821 0.82802 0.0
H2167 H 0.75376 0.94209 0.80661 0.0
H2168 H 0.77483 0.9613 0.82813 0.0
H2169 H 0.75089 0.97053 0.8126 0.0
H2170 H 0.7374 0.9821 0.85143 0.0
H2171 H 0.76143 0.9728 0.86717 0.0
H2172 H 0.73126 0.96173 0.87206 0.0
H2173 H 0.71044 0.87454 0.84702 0.0
H2174 H 0.7494 0.86627 0.85638 0.0
H2175 H 0.783 0.93733 0.85783 0.0
C2176 C 0.70088 0.9495 0.81326 0.0
C2177 C 0.67808 0.93734 0.80303 0.0
C2178 C 0.6688 0.91558 0.80923 0.0
C2179 C 0.68282 0.90542 0.82442 0.0
C2180 C 0.70563 0.91767 0.83382 0.0
C2181 C 0.71435 0.93948 0.82889 0.0
C2182 C 0.7401 0.9483 0.83931 0.0
C2183 C 0.75579 0.95598 0.82054 0.0
C2184 C 0.74269 0.96736 0.85865 0.0
C2185 C 0.74518 0.92742 0.84911 0.0
C2186 C 0.725 0.91003 0.84615 0.0
C2187 C 0.72622 0.88816 0.85008 0.0
C2188 C 0.74867 0.88367 0.85568 0.0
C2189 C 0.76975 0.90109 0.85762 0.0
C2190 C 0.76753 0.92345 0.85602 0.0
H2191 H 0.72395 0.95602 0.54263 0.0
H2192 H 0.77096 1.00042 0.59842 0.0
H2193 H 0.74076 0.02239 0.60156 0.0
H2194 H 0.69752 0.99911 0.51612 0.0
H2195 H 0.66775 0.98171 0.50958 0.0
H2196 H 0.69287 0.96899 0.51107 0.0
H2197 H 0.67564 0.94399 0.54163 0.0
H2198 H 0.65047 0.95663 0.54015 0.0
H2199 H 0.66839 0.95694 0.56761 0.0
H2200 H 0.70533 0.04103 0.59888 0.0
H2201 H 0.66838 0.05376 0.59156 0.0
H2202 H 0.64036 0.99812 0.53814 0.0
C2203 C 0.728 0.97039 0.55552 0.0
C2204 C 0.75075 0.97611 0.57026 0.0
C2205 C 0.75436 0.99517 0.5868 0.0
C2206 C 0.73703 1.00798 0.58874 0.0
C2207 C 0.71516 1.00198 0.57419 0.0
C2208 C 0.71041 0.9835 0.55792 0.0
C2209 C 0.68497 0.98081 0.54482 0.0
C2210 C 0.68583 0.98276 0.51885 0.0
C2211 C 0.66891 0.95824 0.54878 0.0
C2212 C 0.6764 1.0007 0.55602 0.0
C2213 C 0.69437 1.01259 0.57293 0.0
C2214 C 0.6913 0.03168 0.58565 0.0
C2215 C 0.66983 0.03891 0.58122 0.0
C2216 C 0.65053 0.02746 0.56411 0.0
C2217 C 0.65422 1.00771 0.55139 0.0
H2218 H 0.4102 0.46128 0.74636 0.0
H2219 H 0.3473 0.45769 0.69675 0.0
H2220 H 0.33341 0.4174 0.70168 0.0
H2221 H 0.41812 0.40489 0.72994 0.0
H2222 H 0.42742 0.40043 0.75946 0.0
H2223 H 0.43345 0.42846 0.75051 0.0
H2224 H 0.41184 0.44159 0.78327 0.0
H2225 H 0.40568 0.41363 0.79228 0.0
H2226 H 0.38165 0.42709 0.78499 0.0
H2227 H 0.32525 0.37844 0.71369 0.0
H2228 H 0.32296 0.34331 0.7322 0.0
H2229 H 0.39107 0.37253 0.7744 0.0
C2230 C 0.39367 0.45199 0.73623 0.0
C2231 C 0.37986 0.46262 0.7211 0.0
C2232 C 0.35819 0.44989 0.70842 0.0
C2233 C 0.35019 0.427 0.71105 0.0
C2234 C 0.3641 0.41716 0.72636 0.0
C2235 C 0.3854 0.42922 0.7387 0.0
C2236 C 0.39633 0.41498 0.755 0.0
C2237 C 0.42024 0.41202 0.74832 0.0
C2238 C 0.39902 0.42492 0.78038 0.0
C2239 C 0.37756 0.39314 0.75025 0.0
C2240 C 0.35926 0.3947 0.73351 0.0
C2241 C 0.33955 0.37694 0.72669 0.0
C2242 C 0.33842 0.35707 0.73736 0.0
C2243 C 0.35685 0.35517 0.75478 0.0
C2244 C 0.37674 0.37343 0.76112 0.0
H2245 H 0.18028 0.53286 0.23698 0.0
H2246 H 0.1125 0.54142 0.20393 0.0
H2247 H 0.13175 0.57992 0.19648 0.0
H2248 H 0.19896 0.58615 0.26646 0.0
H2249 H 0.22989 0.58979 0.26312 0.0
H2250 H 0.21153 0.56199 0.26317 0.0
H2251 H 0.22256 0.55025 0.22319 0.0
H2252 H 0.24115 0.57802 0.22308 0.0
H2253 H 0.2179 0.56655 0.19926 0.0
H2254 H 0.15754 0.61878 0.19633 0.0
H2255 H 0.18836 0.65451 0.20234 0.0
H2256 H 0.23876 0.62029 0.23589 0.0
C2257 C 0.16957 0.54262 0.2277 0.0
C2258 C 0.14492 0.53412 0.22101 0.0
C2259 C 0.13145 0.54758 0.20923 0.0
C2260 C 0.14222 0.56946 0.20487 0.0
C2261 C 0.16645 0.57755 0.21231 0.0
C2262 C 0.17999 0.56447 0.22331 0.0
C2263 C 0.20531 0.5776 0.23101 0.0
C2264 C 0.21178 0.57896 0.25751 0.0
C2265 C 0.22276 0.5675 0.21837 0.0
C2266 C 0.20374 0.60025 0.22316 0.0
C2267 C 0.18126 0.59989 0.21224 0.0
C2268 C 0.17529 0.6192 0.2046 0.0
C2269 C 0.19282 0.63943 0.20825 0.0
C2270 C 0.21595 0.6401 0.21946 0.0
C2271 C 0.22138 0.62019 0.22685 0.0
H2272 H 0.52899 0.67836 0.46101 0.0
H2273 H 0.59775 0.722 0.4886 0.0
H2274 H 0.60384 0.6955 0.51724 0.0
H2275 H 0.51348 0.65875 0.51734 0.0
H2276 H 0.49953 0.63064 0.50433 0.0
H2277 H 0.49925 0.65427 0.48767 0.0
H2278 H 0.51865 0.63589 0.45613 0.0
H2279 H 0.51889 0.61227 0.47268 0.0
H2280 H 0.54617 0.62783 0.46431 0.0
H2281 H 0.60484 0.66232 0.53949 0.0
H2282 H 0.59994 0.625 0.55432 0.0
H2283 H 0.53002 0.60369 0.51344 0.0
C2284 C 0.54511 0.68254 0.47337 0.0
C2285 C 0.56287 0.70225 0.47257 0.0
C2286 C 0.58385 0.70701 0.48889 0.0
C2287 C 0.58747 0.6921 0.5053 0.0
C2288 C 0.56983 0.67262 0.50539 0.0
C2289 C 0.54895 0.66788 0.49 0.0
C2290 C 0.53356 0.64507 0.49276 0.0
C2291 C 0.51007 0.64733 0.50102 0.0
C2292 C 0.52907 0.62935 0.47013 0.0
C2293 C 0.54943 0.63747 0.51151 0.0
C2294 C 0.57018 0.65366 0.5187 0.0
C2295 C 0.58844 0.64967 0.53439 0.0
C2296 C 0.58554 0.62843 0.54269 0.0
C2297 C 0.5645 0.61154 0.53529 0.0
C2298 C 0.54609 0.61639 0.51988 0.0
H2299 H 0.69583 0.36377 0.71306 0.0
H2300 H 0.74801 0.40705 0.67898 0.0
H2301 H 0.78022 0.3988 0.70631 0.0
H2302 H 0.72925 0.37281 0.77309 0.0
H2303 H 0.71901 0.34351 0.7771 0.0
H2304 H 0.70047 0.3572 0.75895 0.0
H2305 H 0.69761 0.32678 0.72492 0.0
H2306 H 0.71611 0.3131 0.74285 0.0
H2307 H 0.72454 0.32183 0.7156 0.0
H2308 H 0.80663 0.38168 0.73422 0.0
H2309 H 0.82413 0.35491 0.75639 0.0
H2310 H 0.754 0.32054 0.7687 0.0
C2311 C 0.71397 0.37228 0.7118 0.0
C2312 C 0.71934 0.38638 0.69406 0.0
C2313 C 0.74342 0.39648 0.69264 0.0
C2314 C 0.76182 0.39191 0.70814 0.0
C2315 C 0.75582 0.37719 0.72487 0.0
C2316 C 0.73238 0.36749 0.72665 0.0
C2317 C 0.73032 0.34948 0.74323 0.0
C2318 C 0.7191 0.35616 0.76435 0.0
C2319 C 0.71634 0.32645 0.7309 0.0
C2320 C 0.75625 0.34986 0.74995 0.0
C2321 C 0.7708 0.36643 0.73984 0.0
C2322 C 0.7954 0.36898 0.74253 0.0
C2323 C 0.80521 0.35381 0.75525 0.0
C2324 C 0.79034 0.33602 0.7645 0.0
C2325 C 0.7657 0.33435 0.76221 0.0
H2326 H 1.01472 0.31235 0.96505 0.0
H2327 H 0.05452 0.30781 0.90733 0.0
H2328 H 0.06893 0.34906 0.91162 0.0
H2329 H 0.99651 0.36226 0.95161 0.0
H2330 H 0.99965 0.37372 0.9814 0.0
H2331 H 0.99289 0.34372 0.97424 0.0
H2332 H 0.02979 0.3412 1.00259 0.0
H2333 H 0.03664 0.37121 1.00985 0.0
H2334 H 0.05861 0.35807 0.99938 0.0
H2335 H 0.07777 0.39082 0.92105 0.0
H2336 H 0.08162 0.43036 0.93617 0.0
H2337 H 0.03666 0.40769 0.98801 0.0
C2338 C 1.02656 0.32002 0.95339 0.0
C2339 C 0.03346 0.30686 0.93584 0.0
C2340 C 0.04898 0.31754 0.92093 0.0
C2341 C 0.05728 0.34097 0.9232 0.0
C2342 C 0.05 0.35347 0.94055 0.0
C2343 C 0.03512 0.3434 0.95549 0.0
C2344 C 0.02988 0.36075 0.97256 0.0
C2345 C 1.00315 0.36006 0.96977 0.0
C2346 C 0.0393 0.35762 0.99758 0.0
C2347 C 0.04396 0.38212 0.96473 0.0
C2348 C 0.05541 0.37756 0.94622 0.0
C2349 C 0.069 0.39462 0.93562 0.0
C2350 C 0.07098 0.41699 0.94422 0.0
C2351 C 0.05952 0.42201 0.96327 0.0
C2352 C 0.04589 0.4043 0.97363 0.0
H2353 H 0.11551 0.86732 0.25398 0.0
H2354 H 0.08844 0.90692 0.20321 0.0
H2355 H 0.05324 0.90585 0.22319 0.0
H2356 H 0.06373 0.83015 0.25324 0.0
H2357 H 0.06695 0.82552 0.28349 0.0
H2358 H 0.09289 0.83467 0.26974 0.0
H2359 H 0.1078 0.86915 0.30044 0.0
H2360 H 0.08191 0.85997 0.31451 0.0
H2361 H 0.08871 0.88791 0.30537 0.0
H2362 H 1.01837 0.89509 0.24412 0.0
H2363 H 0.98581 0.87423 0.26306 0.0
H2364 H 0.03434 0.83908 0.29826 0.0
C2365 C 0.10271 0.87667 0.24778 0.0
C2366 C 0.10482 0.8876 0.2274 0.0
C2367 C 0.08723 0.89875 0.21904 0.0
C2368 C 0.06725 0.89829 0.23032 0.0
C2369 C 0.06512 0.88647 0.24982 0.0
C2370 C 0.08243 0.87589 0.25853 0.0
C2371 C 0.0741 0.86111 0.27707 0.0
C2372 C 0.07443 0.83642 0.27047 0.0
C2373 C 0.08902 0.87008 0.30076 0.0
C2374 C 0.04899 0.86408 0.27657 0.0
C2375 C 0.0444 0.8793 0.26125 0.0
C2376 C 1.02186 0.88341 0.25641 0.0
C2377 C 1.00342 0.87129 0.26706 0.0
C2378 C 1.0075 0.85491 0.28205 0.0
C2379 C 0.03075 0.85178 0.28727 0.0
H2380 H 0.5741 0.39109 0.12964 0.0
H2381 H 0.61089 0.36399 0.0784 0.0
H2382 H 0.61446 0.39896 0.05923 0.0
H2383 H 0.54196 0.4229 0.09049 0.0
H2384 H 0.54553 0.44702 0.11122 0.0
H2385 H 0.54497 0.4197 0.12108 0.0
H2386 H 0.5855 0.43564 0.14637 0.0
H2387 H 0.58617 0.463 0.13655 0.0
H2388 H 0.61039 0.44979 0.13318 0.0
H2389 H 0.61335 0.43798 0.04356 0.0
H2390 H 0.6099 0.47594 0.035 0.0
H2391 H 0.5763 0.48251 0.09659 0.0
C2392 C 0.58287 0.39233 0.11432 0.0
C2393 C 0.59202 0.37349 0.10587 0.0
C2394 C 0.60351 0.37714 0.08576 0.0
C2395 C 0.60565 0.39737 0.07452 0.0
C2396 C 0.59662 0.41525 0.08316 0.0
C2397 C 0.58559 0.41307 0.10284 0.0
C2398 C 0.57814 0.4355 0.10869 0.0
C2399 C 0.55104 0.43101 0.10783 0.0
C2400 C 0.59079 0.44664 0.13263 0.0
C2401 C 0.58648 0.45046 0.08932 0.0
C2402 C 0.59691 0.43808 0.07472 0.0
C2403 C 0.60534 0.44757 0.05521 0.0
C2404 C 0.60324 0.46963 0.05038 0.0
C2405 C 0.59307 0.48357 0.0648 0.0
C2406 C 0.58461 0.47327 0.0849 0.0
H2407 H 1.00203 0.31636 0.38971 0.0
H2408 H 1.02055 0.26243 0.34942 0.0
H2409 H 0.98216 0.25625 0.32378 0.0
H2410 H 0.93869 0.29197 0.38542 0.0
H2411 H 0.92983 0.31804 0.38218 0.0
H2412 H 0.95856 0.31824 0.39765 0.0
H2413 H 0.97882 0.34563 0.37047 0.0
H2414 H 0.95013 0.34558 0.35498 0.0
H2415 H 0.97275 0.33824 0.33956 0.0
H2416 H 0.93884 0.25405 0.30313 0.0
H2417 H 0.89904 0.25887 0.28777 0.0
H2418 H 0.90853 0.31653 0.3382 0.0
C2419 C 0.99819 0.30329 0.37541 0.0
C2420 C 1.01513 0.28989 0.37205 0.0
C2421 C 1.00865 0.27314 0.35279 0.0
C2422 C 0.98652 0.2694 0.33802 0.0
C2423 C 0.97037 0.28271 0.34193 0.0
C2424 C 0.97616 0.29964 0.36001 0.0
C2425 C 0.95588 0.31205 0.35992 0.0
C2426 C 0.94511 0.30996 0.38265 0.0
C2427 C 0.96494 0.33685 0.356 0.0
C2428 C 0.9377 0.29944 0.33921 0.0
C2429 C 0.94634 0.28232 0.32931 0.0
C2430 C 0.93233 0.26768 0.31073 0.0
C2431 C 0.90942 0.27055 0.30201 0.0
C2432 C 0.90003 0.28829 0.31114 0.0
C2433 C 0.91483 0.30295 0.3302 0.0
H2434 H 0.05108 0.71907 0.63792 0.0
H2435 H 0.05092 0.75369 0.57577 0.0
H2436 H 0.05072 0.71817 0.55266 0.0
H2437 H 0.09145 0.68395 0.62082 0.0
H2438 H 0.07713 0.65952 0.63367 0.0
H2439 H 0.07616 0.68723 0.64542 0.0
H2440 H 0.03039 0.67532 0.64032 0.0
H2441 H 0.03133 0.6476 0.62859 0.0
H2442 H 1.01419 0.66382 0.61221 0.0
H2443 H 0.04891 0.67633 0.53481 0.0
H2444 H 0.04957 0.63658 0.52559 0.0
H2445 H 0.05485 0.62735 0.59876 0.0
C2446 C 0.05082 0.71931 0.61939 0.0
C2447 C 0.05061 0.74023 0.60912 0.0
C2448 C 0.05086 0.73878 0.58468 0.0
C2449 C 0.05074 0.71826 0.57119 0.0
C2450 C 0.05091 0.69828 0.58178 0.0
C2451 C 0.05133 0.69876 0.60553 0.0
C2452 C 0.05265 0.67505 0.61271 0.0
C2453 C 0.07572 0.67652 0.62914 0.0
C2454 C 0.03084 0.66484 0.62415 0.0
C2455 C 0.05262 0.66106 0.58946 0.0
C2456 C 0.0513 0.67489 0.57182 0.0
C2457 C 0.05017 0.66578 0.54879 0.0
C2458 C 0.05049 0.64268 0.5436 0.0
C2459 C 0.05239 0.62766 0.56098 0.0
C2460 C 0.05356 0.63762 0.58453 0.0
H2461 H 0.66142 0.78053 0.89116 0.0
H2462 H 0.63571 0.83461 0.86086 0.0
H2463 H 0.66861 0.84051 0.83736 0.0
H2464 H 0.72546 0.80474 0.89204 0.0
H2465 H 0.7327 0.77851 0.8837 0.0
H2466 H 0.70766 0.77865 0.89902 0.0
H2467 H 0.68017 0.75119 0.86633 0.0
H2468 H 0.70516 0.75097 0.85095 0.0
H2469 H 0.67912 0.75839 0.83687 0.0
H2470 H 0.70713 0.84221 0.81707 0.0
H2471 H 0.74324 0.83739 0.80105 0.0
H2472 H 0.74404 0.77971 0.83966 0.0
C2473 C 0.66255 0.79365 0.87958 0.0
C2474 C 0.64497 0.80711 0.87855 0.0
C2475 C 0.64804 0.8238 0.86259 0.0
C2476 C 0.66709 0.8274 0.84896 0.0
C2477 C 0.68379 0.81401 0.85037 0.0
C2478 C 0.68151 0.79716 0.86511 0.0
C2479 C 0.70159 0.78463 0.86248 0.0
C2480 C 0.71781 0.78675 0.8857 0.0
C2481 C 0.69087 0.75981 0.85364 0.0
C2482 C 0.71548 0.797 0.84422 0.0
C2483 C 0.70498 0.81417 0.8378 0.0
C2484 C 0.71507 0.8286 0.82207 0.0
C2485 C 0.73591 0.82567 0.81281 0.0
C2486 C 0.74711 0.80788 0.81814 0.0
C2487 C 0.73623 0.7933 0.83435 0.0
H2488 H 0.4208 0.53766 0.64096 0.0
H2489 H 0.46292 0.58676 0.69562 0.0
H2490 H 0.49373 0.59768 0.67041 0.0
H2491 H 0.46511 0.51674 0.62699 0.0
H2492 H 0.45645 0.51158 0.59605 0.0
H2493 H 0.43433 0.51237 0.61475 0.0
H2494 H 0.42057 0.54367 0.593 0.0
H2495 H 0.4423 0.54247 0.57374 0.0
H2496 H 0.44211 0.56886 0.58931 0.0
H2497 H 0.52328 0.59709 0.64365 0.0
H2498 H 0.54866 0.58665 0.61587 0.0
H2499 H 0.48798 0.53674 0.57923 0.0
C2500 C 0.4359 0.55156 0.647 0.0
C2501 C 0.43949 0.56168 0.6699 0.0
C2502 C 0.4599 0.57909 0.6779 0.0
C2503 C 0.47742 0.58541 0.66371 0.0
C2504 C 0.47419 0.5741 0.64164 0.0
C2505 C 0.45377 0.55776 0.63314 0.0
C2506 C 0.4564 0.54556 0.61056 0.0
C2507 C 0.45288 0.52007 0.61222 0.0
C2508 C 0.43933 0.55044 0.59046 0.0
C2509 C 0.48191 0.55656 0.60855 0.0
C2510 C 0.49169 0.57335 0.6263 0.0
C2511 C 0.51567 0.58439 0.62929 0.0
C2512 C 0.53 0.57817 0.6136 0.0
C2513 C 0.52029 0.5609 0.5954 0.0
C2514 C 0.4959 0.55018 0.59281 0.0
H2515 H 0.83618 0.24158 0.95198 0.0
H2516 H 0.77079 0.26039 0.96382 0.0
H2517 H 0.76618 0.27176 0.92427 0.0
H2518 H 0.8567 0.28826 0.91744 0.0
H2519 H 0.8694 0.27165 0.89804 0.0
H2520 H 0.86794 0.26501 0.92749 0.0
H2521 H 0.8451 0.22427 0.91251 0.0
H2522 H 0.8464 0.23085 0.88304 0.0
H2523 H 0.81811 0.21964 0.89235 0.0
H2524 H 0.76661 0.27846 0.88245 0.0
H2525 H 0.77444 0.28378 0.84231 0.0
H2526 H 0.84104 0.2638 0.85726 0.0
C2527 C 0.82102 0.24827 0.9463 0.0
C2528 C 0.80384 0.25003 0.96122 0.0
C2529 C 0.78428 0.25892 0.95297 0.0
C2530 C 0.78142 0.26537 0.9304 0.0
C2531 C 0.79843 0.26323 0.9161 0.0
C2532 C 0.81807 0.25523 0.92376 0.0
C2533 C 0.83383 0.25505 0.90476 0.0
C2534 C 0.85843 0.27094 0.91239 0.0
C2535 C 0.83598 0.23102 0.89775 0.0
C2536 C 0.8198 0.26391 0.88525 0.0
C2537 C 0.7993 0.26826 0.89217 0.0
C2538 C 0.78278 0.27542 0.87695 0.0
C2539 C 0.78734 0.27833 0.85413 0.0
C2540 C 0.80845 0.27452 0.84667 0.0
C2541 C 0.82494 0.26728 0.86257 0.0
H2542 H 0.04531 0.45876 0.19523 0.0
H2543 H 0.09281 0.41741 0.17704 0.0
H2544 H 0.08272 0.42228 0.13583 0.0
H2545 H 1.00404 0.45134 0.13534 0.0
H2546 H 1.00476 0.48092 0.13905 0.0
H2547 H 1.0048 0.46497 0.16387 0.0
H2548 H 0.04286 0.49367 0.1835 0.0
H2549 H 0.04353 0.50925 0.15877 0.0
H2550 H 0.06894 0.49863 0.16904 0.0
H2551 H 0.0788 0.44111 0.10015 0.0
H2552 H 0.08313 0.47226 0.07516 0.0
H2553 H 0.04406 0.50646 0.11827 0.0
C2554 C 0.05232 0.44944 0.18242 0.0
C2555 C 0.06975 0.43762 0.18928 0.0
C2556 C 0.07917 0.4263 0.17211 0.0
C2557 C 0.07355 0.42908 0.14861 0.0
C2558 C 0.05872 0.44343 0.14266 0.0
C2559 C 0.04801 0.4533 0.15919 0.0
C2560 C 0.03877 0.47282 0.15031 0.0
C2561 C 1.01147 0.46716 0.14693 0.0
C2562 C 0.04918 0.49485 0.16634 0.0
C2563 C 0.04803 0.47384 0.12725 0.0
C2564 C 0.05821 0.45599 0.1225 0.0
C2565 C 0.07031 0.45478 0.1034 0.0
C2566 C 0.07276 0.47257 0.08934 0.0
C2567 C 0.06391 0.49162 0.09499 0.0
C2568 C 0.05076 0.49189 0.11364 0.0
H2569 H 0.81129 0.87712 0.45278 0.0
H2570 H 0.86582 0.85304 0.49389 0.0
H2571 H 0.8746 0.83426 0.45848 0.0
H2572 H 0.79087 0.82643 0.41033 0.0
H2573 H 0.78624 0.84172 0.38558 0.0
H2574 H 0.7834 0.85331 0.41405 0.0
H2575 H 0.81443 0.88945 0.40941 0.0
H2576 H 0.81736 0.87795 0.38094 0.0
H2577 H 0.84324 0.8874 0.40252 0.0
H2578 H 0.87859 0.81773 0.41819 0.0
H2579 H 0.87761 0.8051 0.37729 0.0
H2580 H 0.82087 0.83855 0.35841 0.0
C2581 C 0.82499 0.86778 0.45443 0.0
C2582 C 0.8377 0.86685 0.47706 0.0
C2583 C 0.85557 0.85437 0.47753 0.0
C2584 C 0.86078 0.84349 0.45719 0.0
C2585 C 0.84819 0.8448 0.43551 0.0
C2586 C 0.83059 0.85663 0.43387 0.0
C2587 C 0.82011 0.8553 0.40797 0.0
C2588 C 0.79357 0.8435 0.40426 0.0
C2589 C 0.82401 0.87894 0.39972 0.0
C2590 C 0.83454 0.84101 0.39545 0.0
C2591 C 0.85059 0.83522 0.41198 0.0
C2592 C 0.86601 0.82226 0.40528 0.0
C2593 C 0.86527 0.81506 0.38154 0.0
C2594 C 0.84924 0.82043 0.36356 0.0
C2595 C 0.8335 0.83379 0.37108 0.0
H2596 H 0.48581 0.52437 0.78526 0.0
H2597 H 0.45348 0.58027 0.79876 0.0
H2598 H 0.48098 0.59193 0.83554 0.0
H2599 H 0.48952 0.50964 0.84146 0.0
H2600 H 0.51716 0.50117 0.84115 0.0
H2601 H 0.49764 0.49963 0.81453 0.0
H2602 H 0.53197 0.52464 0.79703 0.0
H2603 H 0.55157 0.5264 0.82378 0.0
H2604 H 0.54715 0.55174 0.81187 0.0
H2605 H 0.50997 0.59561 0.87201 0.0
H2606 H 0.53489 0.58888 0.90685 0.0
H2607 H 0.54567 0.52894 0.86977 0.0
C2608 C 0.48486 0.53936 0.79571 0.0
C2609 C 0.46778 0.5516 0.78919 0.0
C2610 C 0.46656 0.57074 0.80354 0.0
C2611 C 0.48221 0.57757 0.8243 0.0
C2612 C 0.49876 0.56496 0.83036 0.0
C2613 C 0.50001 0.54614 0.81653 0.0
C2614 C 0.51727 0.53389 0.82808 0.0
C2615 C 0.50464 0.50966 0.83152 0.0
C2616 C 0.53823 0.5342 0.81437 0.0
C2617 C 0.52509 0.54838 0.85088 0.0
C2618 C 0.51469 0.56652 0.85169 0.0
C2619 C 0.5183 0.58153 0.87153 0.0
C2620 C 0.53233 0.57746 0.89127 0.0
C2621 C 0.54216 0.5583 0.8911 0.0
C2622 C 0.53891 0.544 0.8704 0.0
H2623 H 0.81902 0.2158 0.11352 0.0
H2624 H 0.83528 0.27881 0.08273 0.0
H2625 H 0.84173 0.29967 0.12176 0.0
H2626 H 0.78568 0.23506 0.15553 0.0
H2627 H 0.79558 0.21897 0.17777 0.0
H2628 H 0.79377 0.20912 0.14768 0.0
H2629 H 0.83803 0.20746 0.15437 0.0
H2630 H 0.83999 0.21736 0.18448 0.0
H2631 H 0.86024 0.23228 0.16671 0.0
H2632 H 0.84743 0.31372 0.16506 0.0
H2633 H 0.84762 0.31966 0.20748 0.0
H2634 H 0.82433 0.24761 0.20966 0.0
C2635 C 0.82417 0.234 0.11499 0.0
C2636 C 0.82696 0.24564 0.09495 0.0
C2637 C 0.83315 0.26948 0.09772 0.0
C2638 C 0.83692 0.28148 0.11988 0.0
C2639 C 0.83401 0.26949 0.13926 0.0
C2640 C 0.82743 0.24625 0.13695 0.0
C2641 C 0.82407 0.23739 0.16032 0.0
C2642 C 0.79824 0.22437 0.16032 0.0
C2643 C 0.84163 0.22276 0.16685 0.0
C2644 C 0.82991 0.25921 0.1762 0.0
C2645 C 0.83595 0.27754 0.16378 0.0
C2646 C 0.84257 0.29943 0.17484 0.0
C2647 C 0.84274 0.30266 0.19903 0.0
C2648 C 0.83592 0.28418 0.21205 0.0
C2649 C 0.8295 0.26216 0.2003 0.0
H2650 H 0.09453 0.51637 0.31783 0.0
H2651 H 0.03763 0.52145 0.26469 0.0
H2652 H 1.02539 0.54831 0.29136 0.0
H2653 H 0.06215 0.51721 0.36506 0.0
H2654 H 0.08717 0.53344 0.38497 0.0
H2655 H 0.09196 0.51582 0.36097 0.0
H2656 H 0.12 0.55042 0.34778 0.0
H2657 H 0.11473 0.56823 0.37149 0.0
H2658 H 0.10909 0.57508 0.34214 0.0
H2659 H 1.01783 0.57279 0.32462 0.0
H2660 H 1.01338 0.58986 0.363 0.0
H2661 H 0.0757 0.5692 0.3936 0.0
C2662 C 0.07949 0.52312 0.31179 0.0
C2663 C 0.06702 0.51679 0.28922 0.0
C2664 C 0.04744 0.52603 0.28196 0.0
C2665 C 0.04047 0.54145 0.2969 0.0
C2666 C 0.05339 0.54761 0.31893 0.0
C2667 C 0.07238 0.53861 0.3264 0.0
C2668 C 0.08241 0.54692 0.35134 0.0
C2669 C 0.08081 0.52718 0.36647 0.0
C2670 C 0.10808 0.561 0.35329 0.0
C2671 C 0.06563 0.56146 0.35696 0.0
C2672 C 0.04924 0.56196 0.33797 0.0
C2673 C 0.03077 0.5728 0.33955 0.0
C2674 C 1.02841 0.58249 0.36136 0.0
C2675 C 0.04436 0.58114 0.38123 0.0
C2676 C 0.06368 0.57122 0.37868 0.0
H2677 H 0.81679 0.90883 0.6401 0.0
H2678 H 0.80611 0.84977 0.59127 0.0
H2679 H 0.80279 0.82581 0.62366 0.0
H2680 H 0.85374 0.88816 0.68583 0.0
H2681 H 0.84227 0.90047 0.70959 0.0
H2682 H 0.8428 0.9132 0.68267 0.0
H2683 H 0.79776 0.91058 0.6799 0.0
H2684 H 0.7971 0.8978 0.70678 0.0
H2685 H 0.77773 0.88373 0.68107 0.0
H2686 H 0.79878 0.8069 0.66277 0.0
H2687 H 0.79873 0.79606 0.70266 0.0
H2688 H 0.81577 0.86645 0.7291 0.0
C2689 C 0.81363 0.89083 0.63605 0.0
C2690 C 0.81148 0.88165 0.61212 0.0
C2691 C 0.8078 0.85781 0.60868 0.0
C2692 C 0.80581 0.84385 0.62731 0.0
C2693 C 0.80797 0.85335 0.65034 0.0
C2694 C 0.8122 0.87645 0.65484 0.0
C2695 C 0.81496 0.88232 0.68147 0.0
C2696 C 0.83993 0.89692 0.69042 0.0
C2697 C 0.79575 0.89434 0.68767 0.0
C2698 C 0.8114 0.8591 0.69125 0.0
C2699 C 0.80707 0.84263 0.67278 0.0
C2700 C 0.8024 0.81991 0.6771 0.0
C2701 C 0.80231 0.81379 0.70025 0.0
C2702 C 0.80726 0.82993 0.72008 0.0
C2703 C 0.81196 0.85319 0.71499 0.0
H2704 H 0.75841 0.43508 0.54429 0.0
H2705 H 0.77005 0.41527 0.6138 0.0
H2706 H 0.73827 0.43271 0.62498 0.0
H2707 H 0.75054 0.48908 0.56252 0.0
H2708 H 0.72827 0.48969 0.53847 0.0
H2709 H 0.75003 0.47347 0.53507 0.0
H2710 H 0.71631 0.43853 0.52127 0.0
H2711 H 0.69388 0.45383 0.52552 0.0
H2712 H 0.69436 0.42871 0.5397 0.0
H2713 H 0.70729 0.45408 0.62952 0.0
H2714 H 0.67954 0.47907 0.6275 0.0
H2715 H 0.68914 0.48724 0.55574 0.0
C2716 C 0.75387 0.43408 0.56169 0.0
C2717 C 0.76647 0.42366 0.57816 0.0
C2718 C 0.76055 0.42315 0.60095 0.0
C2719 C 0.74249 0.43294 0.60744 0.0
C2720 C 0.73069 0.44347 0.59101 0.0
C2721 C 0.73616 0.44424 0.56863 0.0
C2722 C 0.72206 0.4583 0.55502 0.0
C2723 C 0.73872 0.47885 0.54733 0.0
C2724 C 0.70567 0.444 0.53415 0.0
C2725 C 0.70795 0.46531 0.57328 0.0
C2726 C 0.71314 0.45643 0.59384 0.0
C2727 C 0.7031 0.46118 0.61352 0.0
C2728 C 0.6875 0.47555 0.61226 0.0
C2729 C 0.68229 0.48534 0.59156 0.0
C2730 C 0.6925 0.47984 0.57175 0.0
H2731 H 0.25921 0.15741 0.54167 0.0
H2732 H 0.28568 0.09835 0.52574 0.0
H2733 H 0.24506 0.07438 0.52479 0.0
H2734 H 0.21887 0.13089 0.58067 0.0
H2735 H 0.19635 0.14583 0.57235 0.0
H2736 H 0.2271 0.15837 0.57068 0.0
H2737 H 0.21627 0.16325 0.52743 0.0
H2738 H 0.1855 0.1507 0.52896 0.0
H2739 H 0.20066 0.13912 0.50772 0.0
H2740 H 0.1993 0.0565 0.52316 0.0
H2741 H 0.15616 0.0466 0.52573 0.0
H2742 H 0.15918 0.11628 0.54743 0.0
C2743 C 0.25653 0.13942 0.53786 0.0
C2744 C 0.27622 0.13006 0.53342 0.0
C2745 C 0.27142 0.10627 0.52907 0.0
C2746 C 0.24815 0.09243 0.52846 0.0
C2747 C 0.22928 0.1022 0.53281 0.0
C2748 C 0.23339 0.12521 0.53789 0.0
C2749 C 0.21029 0.13141 0.54317 0.0
C2750 C 0.21334 0.14227 0.56821 0.0
C2751 C 0.20274 0.14705 0.52579 0.0
C2752 C 0.19242 0.10845 0.54001 0.0
C2753 C 0.20371 0.09184 0.53364 0.0
C2754 C 0.19064 0.06949 0.5285 0.0
C2755 C 0.16587 0.06395 0.52998 0.0
C2756 C 0.15372 0.08034 0.53717 0.0
C2757 C 0.1676 0.10302 0.54232 0.0
H2758 H 0.33699 0.04671 0.85066 0.0
H2759 H 0.28329 1.01331 0.88994 0.0
H2760 H 0.3051 0.98351 0.89585 0.0
H2761 H 0.3403 1.0031 0.81843 0.0
H2762 H 0.37182 1.00993 0.81711 0.0
H2763 H 0.35718 0.03193 0.82308 0.0
H2764 H 0.38642 0.04545 0.86111 0.0
H2765 H 0.40117 0.0232 0.85519 0.0
H2766 H 0.38977 0.02599 0.88233 0.0
H2767 H 0.32513 0.9531 0.88775 0.0
H2768 H 0.33909 0.92493 0.86478 0.0
H2769 H 0.38132 0.97775 0.83159 0.0
C2770 C 0.33033 0.03355 0.86127 0.0
C2771 C 0.30847 0.03217 0.86975 0.0
C2772 C 0.30011 1.0147 0.88339 0.0
C2773 C 0.31251 0.9978 0.88697 0.0
C2774 C 0.33344 0.99895 0.87721 0.0
C2775 C 0.34249 0.01666 0.86492 0.0
C2776 C 0.36249 1.01211 0.85246 0.0
C2777 C 0.35761 1.01437 0.82625 0.0
C2778 C 0.38638 0.02761 0.86344 0.0
C2779 C 0.36141 0.98804 0.85735 0.0
C2780 C 0.34535 0.98107 0.87256 0.0
C2781 C 0.33832 0.95852 0.87649 0.0
C2782 C 0.34646 0.94257 0.86337 0.0
C2783 C 0.36123 0.94925 0.84632 0.0
C2784 C 0.37015 0.97233 0.84463 0.0
H2785 H 0.40593 0.9553 0.03572 0.0
H2786 H 0.43166 0.89784 0.05756 0.0
H2787 H 0.47286 0.92114 0.06371 0.0
H2788 H 0.45554 0.97713 1.00441 0.0
H2789 H 0.45564 1.00607 0.01245 0.0
H2790 H 0.42835 0.98472 1.00961 0.0
H2791 H 0.42284 0.99711 0.05153 0.0
H2792 H 0.45031 0.01826 0.05462 0.0
H2793 H 0.44603 0.99748 0.07505 0.0
H2794 H 0.51088 0.95145 0.07011 0.0
H2795 H 0.54378 0.98476 0.07069 0.0
H2796 H 0.49377 0.02213 0.04237 0.0
C2797 C 0.42026 0.94756 0.04159 0.0
C2798 C 0.41557 0.92473 0.04623 0.0
C2799 C 0.43483 0.91521 0.05375 0.0
C2800 C 0.45827 0.92838 0.05747 0.0
C2801 C 0.46221 0.95094 0.05323 0.0
C2802 C 0.4438 0.96034 0.04497 0.0
C2803 C 0.45294 0.98482 0.04112 0.0
C2804 C 0.44781 0.98839 0.01537 0.0
C2805 C 0.4424 1.00033 0.0565 0.0
C2806 C 0.47934 0.98784 0.0488 0.0
C2807 C 0.48424 0.96816 0.05599 0.0
C2808 C 0.50726 0.96689 0.06434 0.0
C2809 C 0.52584 0.98602 0.06477 0.0
C2810 C 0.52143 1.00616 0.05661 0.0
C2811 C 0.49776 1.00705 0.04876 0.0
H2812 H 0.91385 0.61503 0.82788 0.0
H2813 H 0.96288 0.67132 0.86987 0.0
H2814 H 0.93297 0.69416 0.86417 0.0
H2815 H 0.89389 0.64415 0.78617 0.0
H2816 H 0.86335 0.62844 0.78153 0.0
H2817 H 0.88639 0.61528 0.79262 0.0
H2818 H 0.86518 0.60537 0.82836 0.0
H2819 H 0.84181 0.6183 0.81723 0.0
H2820 H 0.85761 0.6273 0.84601 0.0
H2821 H 0.90143 0.71255 0.84754 0.0
H2822 H 0.86942 0.72448 0.82356 0.0
H2823 H 0.84009 0.65574 0.7938 0.0
C2824 C 0.91804 0.63197 0.83644 0.0
C2825 C 0.94061 0.64151 0.84928 0.0
C2826 C 0.94557 0.66371 0.86013 0.0
C2827 C 0.9287 0.67675 0.85697 0.0
C2828 C 0.9069 0.66709 0.84339 0.0
C2829 C 0.90137 0.64503 0.83367 0.0
C2830 C 0.87772 0.63918 0.81806 0.0
C2831 C 0.88053 0.63132 0.79313 0.0
C2832 C 0.8595 0.62149 0.82802 0.0
C2833 C 0.8714 0.66176 0.81937 0.0
C2834 C 0.88831 0.67758 0.83431 0.0
C2835 C 0.88774 0.7002 0.83636 0.0
C2836 C 0.86961 0.70683 0.82264 0.0
C2837 C 0.85228 0.69089 0.80723 0.0
C2838 C 0.85289 0.66805 0.80592 0.0
H2839 H 0.93463 0.62548 0.08671 0.0
H2840 H 0.91966 0.62932 0.01281 0.0
H2841 H 0.95263 0.6114 1.00651 0.0
H2842 H 1.00001 0.63873 0.08849 0.0
H2843 H 1.00503 0.62025 0.11028 0.0
H2844 H 0.97961 0.63251 0.10932 0.0
H2845 H 0.95187 0.59291 0.10665 0.0
H2846 H 0.97722 0.58055 0.10756 0.0
H2847 H 0.95316 0.57194 0.08394 0.0
H2848 H 0.98761 0.59072 1.00756 0.0
H2849 H 1.02184 0.57366 0.01614 0.0
H2850 H 1.01904 0.58551 0.08964 0.0
C2851 C 0.93813 0.6225 0.06913 0.0
C2852 C 0.92353 0.62902 0.05021 0.0
C2853 C 0.92979 0.62478 0.02776 0.0
C2854 C 0.94877 0.61441 0.02396 0.0
C2855 C 0.96261 0.60827 0.04273 0.0
C2856 C 0.95777 0.61249 0.06501 0.0
C2857 C 0.97632 0.60507 0.08215 0.0
C2858 C 0.99111 0.62535 0.09854 0.0
C2859 C 0.9639 0.58652 0.0959 0.0
C2860 C 0.99208 0.59586 0.06616 0.0
C2861 C 0.98352 0.59767 0.04341 0.0
C2862 C 0.99436 0.5896 0.02543 0.0
C2863 C 1.01414 0.57977 0.03053 0.0
C2864 C 1.02421 0.57807 0.05361 0.0
C2865 C 1.01255 0.58645 0.07167 0.0
H2866 H 0.31962 0.13645 0.84653 0.0
H2867 H 0.27457 0.1567 0.89391 0.0
H2868 H 0.29274 0.19648 0.89042 0.0
H2869 H 0.37271 0.18741 0.86266 0.0
H2870 H 0.37751 0.1877 0.83275 0.0
H2871 H 0.36637 0.16138 0.84417 0.0
H2872 H 0.33041 0.15234 0.81153 0.0
H2873 H 0.34111 0.17863 0.80025 0.0
H2874 H 0.31158 0.17189 0.80819 0.0
H2875 H 0.30775 0.23231 0.8749 0.0
H2876 H 0.31965 0.26204 0.84949 0.0
H2877 H 0.35522 0.2193 0.81173 0.0
C2878 C 0.3143 0.14924 0.85699 0.0
C2879 C 0.29572 0.14349 0.87055 0.0
C2880 C 0.28885 0.16071 0.88351 0.0
C2881 C 0.29916 0.18336 0.8817 0.0
C2882 C 0.31644 0.18846 0.86707 0.0
C2883 C 0.32425 0.17188 0.85517 0.0
C2884 C 0.3401 0.18153 0.83778 0.0
C2885 C 0.3657 0.17938 0.84477 0.0
C2886 C 0.33018 0.17044 0.81299 0.0
C2887 C 0.33852 0.20583 0.84049 0.0
C2888 C 0.32529 0.20955 0.85792 0.0
C2889 C 0.3187 0.2298 0.86171 0.0
C2890 C 0.32533 0.24648 0.84706 0.0
C2891 C 0.33838 0.24281 0.82883 0.0
C2892 C 0.34572 0.22256 0.82594 0.0
H2893 H 0.45742 0.02156 0.30836 0.0
H2894 H 0.50205 0.02705 0.37463 0.0
H2895 H 0.4779 0.99056 0.38292 0.0
H2896 H 0.40166 0.99527 0.32703 0.0
H2897 H 0.39137 0.97746 0.3002 0.0
H2898 H 0.41137 1.00455 0.30041 0.0
H2899 H 0.44065 0.98551 0.28112 0.0
H2900 H 0.42086 0.95835 0.28104 0.0
H2901 H 0.45123 0.96344 0.29475 0.0
H2902 H 0.4491 0.95282 0.38328 0.0
H2903 H 0.41839 0.91695 0.37541 0.0
H2904 H 0.39405 0.93667 0.30856 0.0
C2905 C 0.462 1.0153 0.32478 0.0
C2906 C 0.48154 0.0272 0.34091 0.0
C2907 C 0.48709 0.01822 0.36204 0.0
C2908 C 0.47349 0.99754 0.3669 0.0
C2909 C 0.45453 0.9861 0.3504 0.0
C2910 C 0.44882 0.99472 0.32979 0.0
C2911 C 0.42823 0.97888 0.3145 0.0
C2912 C 0.4069 0.98969 0.3103 0.0
C2913 C 0.43571 0.97109 0.2915 0.0
C2914 C 0.42328 0.95989 0.32965 0.0
C2915 C 0.43848 0.96436 0.35037 0.0
C2916 C 0.4371 0.94916 0.36712 0.0
C2917 C 0.41964 0.92891 0.36255 0.0
C2918 C 0.40408 0.92407 0.34132 0.0
C2919 C 0.406 0.9398 0.32476 0.0
H2920 H 0.62407 0.42906 0.62059 0.0
H2921 H 0.66376 0.42102 0.56371 0.0
H2922 H 0.63819 0.44 0.53909 0.0
H2923 H 0.56653 0.4196 0.58775 0.0
H2924 H 0.5575 0.44091 0.60495 0.0
H2925 H 0.57891 0.42666 0.61787 0.0
H2926 H 0.60911 0.46489 0.63064 0.0
H2927 H 0.58762 0.47927 0.61826 0.0
H2928 H 0.61671 0.4842 0.60934 0.0
H2929 H 0.60744 0.4601 0.52077 0.0
H2930 H 0.57854 0.48372 0.51259 0.0
H2931 H 0.5593 0.47737 0.58162 0.0
C2932 C 0.62739 0.43127 0.60294 0.0
C2933 C 0.64581 0.4235 0.59397 0.0
C2934 C 0.64978 0.42697 0.57091 0.0
C2935 C 0.63518 0.4375 0.55675 0.0
C2936 C 0.61673 0.44447 0.56598 0.0
C2937 C 0.61313 0.44181 0.58871 0.0
C2938 C 0.59302 0.45176 0.59503 0.0
C2939 C 0.5728 0.43364 0.60179 0.0
C2940 C 0.60216 0.47118 0.61445 0.0
C2941 C 0.58559 0.46023 0.57227 0.0
C2942 C 0.59931 0.45584 0.55559 0.0
C2943 C 0.59639 0.46336 0.53361 0.0
C2944 C 0.57973 0.4765 0.52897 0.0
C2945 C 0.56642 0.48198 0.54634 0.0
C2946 C 0.56891 0.47305 0.56787 0.0
H2947 H 0.45951 0.75556 0.36781 0.0
H2948 H 0.49709 0.7558 0.30817 0.0
H2949 H 0.46163 0.76085 0.28312 0.0
H2950 H 0.39905 0.72849 0.33812 0.0
H2951 H 0.38547 0.74654 0.35496 0.0
H2952 H 0.41237 0.73946 0.36732 0.0
H2953 H 0.43264 0.78188 0.37624 0.0
H2954 H 0.40595 0.78909 0.36362 0.0
H2955 H 0.43367 0.79982 0.35301 0.0
H2956 H 0.4226 0.76729 0.26497 0.0
H2957 H 0.38361 0.77668 0.2554 0.0
H2958 H 0.37339 0.77626 0.32772 0.0
C2959 C 0.4599 0.75594 0.34934 0.0
C2960 C 0.48064 0.75473 0.33967 0.0
C2961 C 0.48109 0.75632 0.31568 0.0
C2962 C 0.46109 0.7592 0.30139 0.0
C2963 C 0.44104 0.76092 0.31152 0.0
C2964 C 0.44032 0.75947 0.33497 0.0
C2965 C 0.41757 0.76416 0.34194 0.0
C2966 C 0.40274 0.74342 0.35112 0.0
C2967 C 0.42278 0.78497 0.35975 0.0
C2968 C 0.40572 0.76867 0.31881 0.0
C2969 C 0.41932 0.76631 0.3014 0.0
C2970 C 0.41182 0.76925 0.27847 0.0
C2971 C 0.38975 0.77462 0.2732 0.0
C2972 C 0.3758 0.7775 0.29088 0.0
C2973 C 0.38397 0.77457 0.31395 0.0
H2974 H 0.11798 0.78888 0.13108 0.0
H2975 H 0.15292 0.80545 0.2022 0.0
H2976 H 0.15223 0.76558 0.20548 0.0
H2977 H 0.07907 0.73588 0.14098 0.0
H2978 H 0.08115 0.722 0.11334 0.0
H2979 H 0.08401 0.75197 0.11659 0.0
H2980 H 0.12479 0.75814 0.10152 0.0
H2981 H 0.12212 0.72822 0.09834 0.0
H2982 H 0.1478 0.74645 0.11576 0.0
H2983 H 0.14974 0.72432 0.20062 0.0
H2984 H 0.14402 0.68399 0.18833 0.0
H2985 H 0.10821 0.69353 0.12136 0.0
C2986 C 0.12528 0.78408 0.14738 0.0
C2987 C 0.13539 0.80032 0.16637 0.0
C2988 C 0.14483 0.79334 0.18744 0.0
C2989 C 0.14462 0.7707 0.18949 0.0
C2990 C 0.13462 0.75515 0.17046 0.0
C2991 C 0.1249 0.76144 0.14988 0.0
C2992 C 0.11528 0.74126 0.1321 0.0
C2993 C 0.08827 0.73756 0.12536 0.0
C2994 C 0.12828 0.74367 0.11067 0.0
C2995 C 0.12136 0.72275 0.14585 0.0
C2996 C 0.13258 0.73115 0.16789 0.0
C2997 C 0.14065 0.71745 0.18351 0.0
C2998 C 0.13714 0.69449 0.1764 0.0
C2999 C 0.12547 0.68539 0.15391 0.0
C3000 C 0.1174 0.69985 0.13858 0.0
H3001 H 0.0878 0.22989 0.8396 0.0
H3002 H 0.09237 0.29294 0.88061 0.0
H3003 H 0.13073 0.30902 0.86745 0.0
H3004 H 0.14826 0.22951 0.85123 0.0
H3005 H 0.15029 0.21772 0.8226 0.0
H3006 H 0.12234 0.21166 0.83379 0.0
H3007 H 0.10228 0.22663 0.79809 0.0
H3008 H 0.13015 0.23257 0.78667 0.0
H3009 H 0.11469 0.25457 0.79091 0.0
H3010 H 0.1699 0.31731 0.85199 0.0
H3011 H 0.20602 0.31787 0.83356 0.0
H3012 H 0.17573 0.24941 0.8028 0.0
C3013 C 0.09666 0.24719 0.84553 0.0
C3014 C 0.08706 0.26017 0.86109 0.0
C3015 C 0.09934 0.28269 0.86862 0.0
C3016 C 0.12116 0.29197 0.86126 0.0
C3017 C 0.13037 0.27855 0.84631 0.0
C3018 C 0.11841 0.25672 0.83835 0.0
C3019 C 0.13251 0.24563 0.82296 0.0
C3020 C 0.13871 0.22491 0.83327 0.0
C3021 C 0.1191 0.2395 0.79819 0.0
C3022 C 0.15442 0.26452 0.82377 0.0
C3023 C 0.15285 0.28337 0.83731 0.0
C3024 C 0.17127 0.3027 0.84121 0.0
C3025 C 0.19177 0.3028 0.83084 0.0
C3026 C 0.19364 0.28371 0.81673 0.0
C3027 C 0.17467 0.26436 0.81323 0.0
H3028 H 0.61733 0.7332 0.99968 0.0
H3029 H 0.566 0.71426 0.93739 0.0
H3030 H 0.5586 0.67466 0.94599 0.0
H3031 H 0.64067 0.68178 0.99779 0.0
H3032 H 0.64321 0.67962 0.02856 0.0
H3033 H 0.64536 0.70671 0.01767 0.0
H3034 H 0.61142 0.71317 0.03979 0.0
H3035 H 0.6092 0.68611 0.05078 0.0
H3036 H 0.58339 0.69266 0.03518 0.0
H3037 H 0.55737 0.63428 0.96071 0.0
H3038 H 0.56009 0.60059 0.98073 0.0
H3039 H 0.60947 0.64275 0.03638 0.0
C3040 C 0.60447 0.72084 0.98772 0.0
C3041 C 0.59244 0.72815 0.96731 0.0
C3042 C 0.57575 0.71035 0.95294 0.0
C3043 C 0.57137 0.68728 0.95777 0.0
C3044 C 0.58333 0.68081 0.97765 0.0
C3045 C 0.59942 0.69722 0.99264 0.0
C3046 C 0.60921 0.68545 0.01326 0.0
C3047 C 0.63623 0.68859 0.0144 0.0
C3048 C 0.60295 0.69492 0.03612 0.0
C3049 C 0.59635 0.6601 1.00756 0.0
C3050 C 0.5817 0.65792 0.98665 0.0
C3051 C 0.56869 0.63627 0.97719 0.0
C3052 C 0.57038 0.61679 0.98893 0.0
C3053 C 0.58466 0.6178 0.01082 0.0
C3054 C 0.59788 0.64043 0.02004 0.0
H3055 H 0.14848 0.83389 0.68149 0.0
H3056 H 0.10528 0.78353 0.71697 0.0
H3057 H 0.14147 0.7781 0.73992 0.0
H3058 H 0.19839 0.80755 0.67964 0.0
H3059 H 0.22114 0.83331 0.68561 0.0
H3060 H 0.19196 0.83361 0.67152 0.0
H3061 H 0.18846 0.8636 0.70335 0.0
H3062 H 0.21767 0.86346 0.71748 0.0
H3063 H 0.19264 0.8582 0.73334 0.0
H3064 H 0.18343 0.7758 0.75814 0.0
H3065 H 0.22596 0.77992 0.77242 0.0
H3066 H 0.24432 0.83394 0.72897 0.0
C3067 C 0.14651 0.82184 0.69423 0.0
C3068 C 0.12315 0.80922 0.69701 0.0
C3069 C 0.12225 0.79369 0.71411 0.0
C3070 C 0.14302 0.79033 0.72736 0.0
C3071 C 0.16546 0.80277 0.72409 0.0
C3072 C 0.16738 0.81854 0.70818 0.0
C3073 C 0.19391 0.83003 0.70872 0.0
C3074 C 0.20181 0.82588 0.68496 0.0
C3075 C 0.19844 0.85533 0.71616 0.0
C3076 C 0.20649 0.81819 0.72716 0.0
C3077 C 0.18959 0.80228 0.73551 0.0
C3078 C 0.19662 0.78845 0.7518 0.0
C3079 C 0.22113 0.79089 0.75988 0.0
C3080 C 0.23922 0.80739 0.75236 0.0
C3081 C 0.23138 0.82129 0.73561 0.0
H3082 H 0.07888 0.39389 0.45092 0.0
H3083 H 0.04667 0.3569 0.50404 0.0
H3084 H 0.04334 0.39255 0.52431 0.0
H3085 H 0.11167 0.44515 0.48851 0.0
H3086 H 0.10572 0.46458 0.46807 0.0
H3087 H 0.10672 0.43642 0.45785 0.0
H3088 H 0.06463 0.43025 0.43521 0.0
H3089 H 0.06352 0.45839 0.44536 0.0
H3090 H 0.04062 0.43475 0.4503 0.0
H3091 H 0.04453 0.43418 0.54082 0.0
H3092 H 0.04681 0.47467 0.54924 0.0
H3093 H 0.07474 0.48745 0.48473 0.0
C3094 C 0.07126 0.39315 0.46693 0.0
C3095 C 0.06339 0.37146 0.47563 0.0
C3096 C 0.05313 0.37239 0.49654 0.0
C3097 C 0.05114 0.39297 0.50839 0.0
C3098 C 0.05895 0.41369 0.49948 0.0
C3099 C 0.06855 0.41393 0.47893 0.0
C3100 C 0.07449 0.43867 0.4727 0.0
C3101 C 0.10124 0.44668 0.47171 0.0
C3102 C 0.05996 0.44063 0.4495 0.0
C3103 C 0.06706 0.45226 0.49288 0.0
C3104 C 0.05839 0.43734 0.50825 0.0
C3105 C 0.05117 0.44567 0.52858 0.0
C3106 C 0.05262 0.46918 0.53335 0.0
C3107 C 0.06085 0.48544 0.51803 0.0
C3108 C 0.0681 0.47624 0.4972 0.0
H3109 H 0.4895 0.31157 0.19766 0.0
H3110 H 0.50185 0.24954 0.22232 0.0
H3111 H 0.4675 0.24648 0.24367 0.0
H3112 H 0.47066 0.33259 0.25169 0.0
H3113 H 0.44789 0.34452 0.23739 0.0
H3114 H 0.47337 0.34229 0.22347 0.0
H3115 H 0.44566 0.31995 0.18768 0.0
H3116 H 0.42011 0.32217 0.20148 0.0
H3117 H 0.42384 0.29493 0.1913 0.0
H3118 H 0.43002 0.24892 0.26249 0.0
H3119 H 0.39469 0.25696 0.2772 0.0
H3120 H 0.40418 0.31845 0.2433 0.0
C3121 C 0.48507 0.29728 0.20753 0.0
C3122 C 0.49932 0.2807 0.20776 0.0
C3123 C 0.49207 0.26258 0.22132 0.0
C3124 C 0.47222 0.26067 0.23372 0.0
C3125 C 0.45882 0.27704 0.23315 0.0
C3126 C 0.46497 0.29514 0.22044 0.0
C3127 C 0.44727 0.31039 0.22318 0.0
C3128 C 0.46059 0.33385 0.2346 0.0
C3129 C 0.4334 0.31196 0.1995 0.0
C3130 C 0.43034 0.2981 0.23928 0.0
C3131 C 0.43749 0.27879 0.24458 0.0
C3132 C 0.42463 0.26416 0.25845 0.0
C3133 C 0.40425 0.26899 0.26692 0.0
C3134 C 0.39593 0.28864 0.26229 0.0
C3135 C 0.40971 0.30348 0.24806 0.0
H3136 H 0.68438 0.55665 0.42793 0.0
H3137 H 0.67542 0.62433 0.42045 0.0
H3138 H 0.64953 0.62082 0.45084 0.0
H3139 H 0.62747 0.53264 0.43284 0.0
H3140 H 0.63277 0.51425 0.45464 0.0
H3141 H 0.65466 0.52309 0.43588 0.0
H3142 H 0.68671 0.53907 0.47134 0.0
H3143 H 0.66503 0.5298 0.49033 0.0
H3144 H 0.6811 0.55884 0.49307 0.0
H3145 H 0.61866 0.60772 0.47465 0.0
H3146 H 0.58835 0.58748 0.49638 0.0
H3147 H 0.61803 0.52874 0.49131 0.0
C3148 C 0.67775 0.57102 0.43341 0.0
C3149 C 0.68182 0.59073 0.42185 0.0
C3150 C 0.67245 0.60905 0.42906 0.0
C3151 C 0.65777 0.60725 0.44634 0.0
C3152 C 0.65295 0.58716 0.45648 0.0
C3153 C 0.66308 0.56953 0.45081 0.0
C3154 C 0.65319 0.54914 0.46303 0.0
C3155 C 0.64132 0.52858 0.44555 0.0
C3156 C 0.67267 0.54391 0.48049 0.0
C3157 C 0.63502 0.55773 0.4753 0.0
C3158 C 0.63533 0.57975 0.47127 0.0
C3159 C 0.61863 0.5907 0.47851 0.0
C3160 C 0.60131 0.57898 0.49053 0.0
C3161 C 0.60101 0.55664 0.49538 0.0
C3162 C 0.61818 0.54592 0.48792 0.0
H3163 H 0.3181 0.82767 0.10398 0.0
H3164 H 0.36473 0.89324 0.12724 0.0
H3165 H 0.36539 0.88447 0.16764 0.0
H3166 H 0.28335 0.82661 0.15138 0.0
H3167 H 0.27982 0.79701 0.15431 0.0
H3168 H 0.28375 0.80749 0.12662 0.0
H3169 H 0.31989 0.7898 0.12473 0.0
H3170 H 0.316 0.77922 0.15239 0.0
H3171 H 0.34418 0.79671 0.14824 0.0
H3172 H 0.36057 0.86971 0.2061 0.0
H3173 H 0.35016 0.84961 0.23997 0.0
H3174 H 0.30589 0.79343 0.19373 0.0
C3175 C 0.32869 0.84001 0.11756 0.0
C3176 C 0.34144 0.86123 0.11211 0.0
C3177 C 0.35472 0.87694 0.13067 0.0
C3178 C 0.35528 0.87211 0.15384 0.0
C3179 C 0.34233 0.8514 0.15872 0.0
C3180 C 0.32923 0.83553 0.1412 0.0
C3181 C 0.31626 0.81492 0.15173 0.0
C3182 C 0.28919 0.8113 0.14564 0.0
C3183 C 0.32458 0.79391 0.1438 0.0
C3184 C 0.32418 0.8218 0.17767 0.0
C3185 C 0.33929 0.84292 0.18121 0.0
C3186 C 0.34879 0.85311 0.20353 0.0
C3187 C 0.34276 0.84151 0.22277 0.0
C3188 C 0.32723 0.81981 0.21985 0.0
C3189 C 0.31789 0.80992 0.1968 0.0
H3190 H 0.04376 0.62495 0.93634 0.0
H3191 H 0.10358 0.61554 0.90276 0.0
H3192 H 0.12859 0.62089 0.94066 0.0
H3193 H 0.08207 0.66398 0.99089 0.0
H3194 H 0.0614 0.65052 1.0091 0.0
H3195 H 0.05086 0.65494 0.97985 0.0
H3196 H 0.03115 0.61231 0.97101 0.0
H3197 H 0.04135 0.60839 1.00017 0.0
H3198 H 0.04903 0.59222 0.97649 0.0
H3199 H 0.1425 0.61449 0.97958 0.0
H3200 H 0.1436 0.59636 0.01587 0.0
H3201 H 0.07611 0.6105 0.02662 0.0
C3202 C 0.06247 0.62525 0.93706 0.0
C3203 C 0.07186 0.61998 0.91679 0.0
C3204 C 0.09613 0.61964 0.91817 0.0
C3205 C 0.11053 0.62288 0.93964 0.0
C3206 C 0.10044 0.62654 0.9596 0.0
C3207 C 0.07699 0.62811 0.95853 0.0
C3208 C 0.06912 0.62751 0.98234 0.0
C3209 C 0.06567 0.65062 0.99106 0.0
C3210 C 0.04635 0.60897 0.98246 0.0
C3211 C 0.09062 0.62235 0.99626 0.0
C3212 C 0.10894 0.62301 0.98306 0.0
C3213 C 0.12878 0.61482 0.99045 0.0
C3214 C 0.12931 0.60452 0.01107 0.0
C3215 C 0.11022 0.60266 0.0241 0.0
C3216 C 0.09135 0.61275 0.01734 0.0
H3217 H 0.32132 0.22117 0.60348 0.0
H3218 H 0.39289 0.21094 0.61216 0.0
H3219 H 0.39912 0.22804 0.65261 0.0
H3220 H 0.33382 0.27489 0.6415 0.0
H3221 H 0.3066 0.26801 0.65398 0.0
H3222 H 0.30775 0.25629 0.62507 0.0
H3223 H 0.29317 0.21631 0.63696 0.0
H3224 H 0.29207 0.2279 0.66593 0.0
H3225 H 0.30931 0.20737 0.66147 0.0
H3226 H 0.39837 0.2467 0.69309 0.0
H3227 H 0.39045 0.26352 0.72985 0.0
H3228 H 0.31819 0.26071 0.69904 0.0
C3229 C 0.3385 0.22294 0.61371 0.0
C3230 C 0.35687 0.21488 0.60369 0.0
C3231 C 0.37859 0.21704 0.6186 0.0
C3232 C 0.38229 0.22679 0.64192 0.0
C3233 C 0.36402 0.2343 0.6512 0.0
C3234 C 0.34241 0.23239 0.63763 0.0
C3235 C 0.32551 0.24099 0.65267 0.0
C3236 C 0.31796 0.26125 0.64271 0.0
C3237 C 0.30371 0.22201 0.65435 0.0
C3238 C 0.34097 0.2481 0.67663 0.0
C3239 C 0.3632 0.24416 0.67506 0.0
C3240 C 0.38093 0.24967 0.69432 0.0
C3241 C 0.37616 0.25938 0.71545 0.0
C3242 C 0.35359 0.26367 0.7183 0.0
C3243 C 0.33564 0.25764 0.69818 0.0
H3244 H 0.67148 0.53767 0.27933 0.0
H3245 H 0.63254 0.57192 0.32286 0.0
H3246 H 0.59951 0.56604 0.29084 0.0
H3247 H 0.66009 0.56269 0.23189 0.0
H3248 H 0.6571 0.53891 0.21086 0.0
H3249 H 0.67461 0.5404 0.23859 0.0
H3250 H 0.64916 0.50162 0.24564 0.0
H3251 H 0.63145 0.50005 0.21777 0.0
H3252 H 0.61733 0.49729 0.24357 0.0
H3253 H 0.57529 0.56413 0.25264 0.0
H3254 H 0.56236 0.56671 0.21124 0.0
H3255 H 0.61652 0.53342 0.19243 0.0
C3256 C 0.65562 0.54316 0.2824 0.0
C3257 C 0.65456 0.5552 0.30357 0.0
C3258 C 0.63374 0.56263 0.30676 0.0
C3259 C 0.61478 0.5592 0.28872 0.0
C3260 C 0.61678 0.5481 0.26769 0.0
C3261 C 0.63659 0.53997 0.26451 0.0
C3262 C 0.63605 0.53174 0.23938 0.0
C3263 C 0.65826 0.54419 0.22963 0.0
C3264 C 0.63333 0.50615 0.23642 0.0
C3265 C 0.61376 0.53801 0.22869 0.0
C3266 C 0.60251 0.54685 0.24537 0.0
C3267 C 0.58348 0.55662 0.23945 0.0
C3268 C 0.57631 0.55812 0.21594 0.0
C3269 C 0.58826 0.54998 0.19873 0.0
C3270 C 0.60656 0.53905 0.20521 0.0
H3271 H 0.341 0.87964 0.96015 0.0
H3272 H 0.31592 0.8126 0.98016 0.0
H3273 H 0.30463 0.79791 0.93885 0.0
H3274 H 0.2974 0.87567 0.90816 0.0
H3275 H 0.31865 0.89057 0.89129 0.0
H3276 H 0.32305 0.89649 0.92238 0.0
H3277 H 0.36467 0.88795 0.92438 0.0
H3278 H 0.36033 0.88206 0.8933 0.0
H3279 H 0.36755 0.86128 0.9115 0.0
H3280 H 0.29551 0.79026 0.89555 0.0
H3281 H 0.29288 0.78896 0.85318 0.0
H3282 H 0.32727 0.8601 0.85918 0.0
C3283 C 0.33277 0.86194 0.95576 0.0
C3284 C 0.32887 0.84731 0.97356 0.0
C3285 C 0.31881 0.82415 0.967 0.0
C3286 C 0.31232 0.81567 0.94351 0.0
C3287 C 0.31645 0.83039 0.92644 0.0
C3288 C 0.32678 0.853 0.93216 0.0
C3289 C 0.3308 0.86469 0.91015 0.0
C3290 C 0.31663 0.88294 0.90786 0.0
C3291 C 0.35742 0.87458 0.90982 0.0
C3292 C 0.321 0.84514 0.89124 0.0
C3293 C 0.31252 0.82564 0.90119 0.0
C3294 C 0.30221 0.80542 0.88763 0.0
C3295 C 0.30071 0.80491 0.86338 0.0
C3296 C 0.30979 0.82438 0.85244 0.0
C3297 C 0.32011 0.84485 0.86678 0.0
H3298 H 0.06629 0.60311 0.79981 0.0
H3299 H 1.00923 0.63625 0.7813 0.0
H3300 H 1.02069 0.63932 0.74212 0.0
H3301 H 0.10927 0.63347 0.76258 0.0
H3302 H 0.11889 0.60819 0.75544 0.0
H3303 H 0.10959 0.61304 0.78331 0.0
H3304 H 0.07882 0.57466 0.77579 0.0
H3305 H 0.08781 0.56979 0.74791 0.0
H3306 H 0.05708 0.56906 0.75009 0.0
H3307 H 0.03389 0.6332 0.70362 0.0
H3308 H 0.04723 0.61776 0.6688 0.0
H3309 H 0.09564 0.58854 0.71241 0.0
C3310 C 0.05669 0.61171 0.78779 0.0
C3311 C 0.03695 0.61953 0.79363 0.0
C3312 C 1.02449 0.63019 0.77722 0.0
C3313 C 0.03094 0.63213 0.75496 0.0
C3314 C 0.04997 0.62346 0.74949 0.0
C3315 C 0.06279 0.61361 0.76551 0.0
C3316 C 0.08041 0.60302 0.75456 0.0
C3317 C 0.10606 0.61516 0.76457 0.0
C3318 C 0.07573 0.57764 0.75724 0.0
C3319 C 0.07463 0.60739 0.72962 0.0
C3320 C 0.05744 0.61967 0.72712 0.0
C3321 C 0.04775 0.62404 0.70541 0.0
C3322 C 0.05547 0.61522 0.68574 0.0
C3323 C 0.07251 0.60199 0.68794 0.0
C3324 C 0.08259 0.59859 0.71022 0.0
H3325 H 0.33925 0.19922 0.43992 0.0
H3326 H 0.32322 0.25457 0.48022 0.0
H3327 H 0.32253 0.27545 0.4456 0.0
H3328 H 0.37602 0.23265 0.40173 0.0
H3329 H 0.36422 0.21377 0.37584 0.0
H3330 H 0.36463 0.20309 0.40385 0.0
H3331 H 0.31945 0.1861 0.39505 0.0
H3332 H 0.31893 0.19671 0.367 0.0
H3333 H 0.29979 0.20397 0.38683 0.0
H3334 H 0.32513 0.29201 0.40611 0.0
H3335 H 0.32657 0.30085 0.36576 0.0
H3336 H 0.33688 0.23441 0.34694 0.0
C3337 C 0.33573 0.21581 0.44158 0.0
C3338 C 0.33159 0.22505 0.46375 0.0
C3339 C 0.32661 0.24674 0.46418 0.0
C3340 C 0.32621 0.25891 0.4443 0.0
C3341 C 0.3303 0.24946 0.42302 0.0
C3342 C 0.3346 0.22817 0.42136 0.0
C3343 C 0.33719 0.2217 0.39581 0.0
C3344 C 0.36199 0.21754 0.39421 0.0
C3345 C 0.31768 0.20087 0.38556 0.0
C3346 C 0.33395 0.24262 0.38352 0.0
C3347 C 0.33033 0.25848 0.39986 0.0
C3348 C 0.32776 0.27947 0.39334 0.0
C3349 C 0.32872 0.28445 0.37001 0.0
C3350 C 0.33179 0.26867 0.35222 0.0
C3351 C 0.33433 0.24717 0.3595 0.0
H3352 H 0.36671 0.66605 0.50569 0.0
H3353 H 0.34091 0.64374 0.56893 0.0
H3354 H 0.36377 0.6147 0.5686 0.0
H3355 H 0.36583 0.61097 0.4788 0.0
H3356 H 0.39294 0.61989 0.46654 0.0
H3357 H 0.37465 0.63941 0.47136 0.0
H3358 H 0.41053 0.66718 0.49621 0.0
H3359 H 0.42896 0.64782 0.49132 0.0
H3360 H 0.42641 0.65765 0.5205 0.0
H3361 H 0.38834 0.58772 0.56173 0.0
H3362 H 0.41572 0.5653 0.5496 0.0
H3363 H 0.42718 0.60445 0.49118 0.0
C3364 C 0.366 0.65512 0.5195 0.0
C3365 C 0.35192 0.65725 0.53733 0.0
C3366 C 0.35148 0.64255 0.55506 0.0
C3367 C 0.36438 0.6259 0.55503 0.0
C3368 C 0.37781 0.62405 0.53719 0.0
C3369 C 0.37894 0.63829 0.51981 0.0
C3370 C 0.39516 0.63259 0.50291 0.0
C3371 C 0.38131 0.62528 0.47845 0.0
C3372 C 0.41653 0.65249 0.50273 0.0
C3373 C 0.40283 0.61297 0.51357 0.0
C3374 C 0.39245 0.60838 0.5333 0.0
C3375 C 0.39671 0.59122 0.54639 0.0
C3376 C 0.41236 0.57864 0.53944 0.0
C3377 C 0.42374 0.58327 0.51965 0.0
C3378 C 0.4186 0.60046 0.50632 0.0
H3379 H 0.89996 0.94889 0.53232 0.0
H3380 H 0.87306 0.99856 0.57068 0.0
H3381 H 0.9116 0.02596 0.57184 0.0
H3382 H 0.96061 0.96465 0.56216 0.0
H3383 H 0.97419 0.96017 0.53664 0.0
H3384 H 0.94452 0.94443 0.53853 0.0
H3385 H 0.92907 0.95833 0.50022 0.0
H3386 H 0.9587 0.97411 0.49819 0.0
H3387 H 0.93459 0.98811 0.49752 0.0
H3388 H 0.95493 0.04856 0.56984 0.0
H3389 H 0.99651 0.06377 0.56402 0.0
H3390 H 0.99668 1.00062 0.52585 0.0
C3391 C 0.90199 0.96556 0.54092 0.0
C3392 C 0.88266 0.97113 0.55142 0.0
C3393 C 0.88689 0.99339 0.5624 0.0
C3394 C 0.90902 1.00923 0.56318 0.0
C3395 C 0.9275 1.00313 0.55282 0.0
C3396 C 0.92414 0.98177 0.54175 0.0
C3397 C 0.94697 0.97955 0.53191 0.0
C3398 C 0.95717 0.9611 0.54296 0.0
C3399 C 0.94203 0.97473 0.50538 0.0
C3400 C 0.96375 1.00287 0.53916 0.0
C3401 C 0.95209 0.01616 0.55131 0.0
C3402 C 0.96393 0.03816 0.56022 0.0
C3403 C 0.98788 0.04676 0.55678 0.0
C3404 C 1.00062 0.03384 0.54427 0.0
C3405 C 0.98792 1.01138 0.53531 0.0
H3406 H 0.85922 0.06664 0.22601 0.0
H3407 H 0.92329 0.07364 0.27495 0.0
H3408 H 0.91066 0.10163 0.2999 0.0
H3409 H 0.8593 0.12348 0.22922 0.0
H3410 H 0.82746 0.11932 0.22668 0.0
H3411 H 0.84018 0.09793 0.21427 0.0
H3412 H 0.81642 0.06872 0.23794 0.0
H3413 H 0.80372 0.09013 0.25054 0.0
H3414 H 0.81936 0.07426 0.269 0.0
H3415 H 0.89291 0.13144 0.3176 0.0
H3416 H 0.87195 0.16138 0.32588 0.0
H3417 H 0.81998 0.13482 0.26509 0.0
C3418 C 0.87039 0.07374 0.24218 0.0
C3419 C 0.89217 0.0679 0.24858 0.0
C3420 C 0.90648 0.07783 0.26971 0.0
C3421 C 0.89941 0.09367 0.28407 0.0
C3422 C 0.87795 0.09928 0.2771 0.0
C3423 C 0.86364 0.08959 0.25666 0.0
C3424 C 0.84241 0.09979 0.25216 0.0
C3425 C 0.84236 0.11079 0.22923 0.0
C3426 C 0.8191 0.08217 0.25243 0.0
C3427 C 0.84737 0.11718 0.2729 0.0
C3428 C 0.86776 0.11646 0.28727 0.0
C3429 C 0.87673 0.13197 0.30666 0.0
C3430 C 0.86478 0.14895 0.31118 0.0
C3431 C 0.84419 0.15028 0.29629 0.0
C3432 C 0.83524 0.13388 0.27721 0.0
H3433 H 0.72881 0.17795 0.03384 0.0
H3434 H 0.7642 0.13693 0.9937 0.0
H3435 H 0.72721 0.10674 0.98602 0.0
H3436 H 0.69927 0.13321 0.06208 0.0
H3437 H 0.67272 0.14346 0.06315 0.0
H3438 H 0.70072 0.16293 0.06254 0.0
H3439 H 0.68252 0.17841 0.0262 0.0
H3440 H 0.65445 0.15888 0.02669 0.0
H3441 H 0.66867 0.15932 1.00092 0.0
H3442 H 0.68623 0.08043 0.98373 0.0
H3443 H 0.64702 0.05862 0.99146 0.0
H3444 H 0.64027 0.11555 0.03622 0.0
C3445 C 0.72853 0.16279 0.02302 0.0
C3446 C 0.74912 0.15985 0.01396 0.0
C3447 C 0.74846 0.13951 1.00057 0.0
C3448 C 0.72752 0.12235 0.99605 0.0
C3449 C 0.7075 0.12562 1.00541 0.0
C3450 C 0.70797 0.14523 0.0189 0.0
C3451 C 0.68504 0.14358 0.02913 0.0
C3452 C 0.68973 0.14592 0.0558 0.0
C3453 C 0.6719 0.16109 0.0202 0.0
C3454 C 0.67174 0.11993 0.01953 0.0
C3455 C 0.68468 0.11 1.00541 0.0
C3456 C 0.67594 0.08807 0.99475 0.0
C3457 C 0.65366 0.07584 0.99911 0.0
C3458 C 0.64077 0.08542 0.01443 0.0
C3459 C 0.64984 0.10783 0.02444 0.0
H3460 H 0.19713 0.44119 0.25024 0.0
H3461 H 0.15559 0.43486 0.30732 0.0
H3462 H 0.18666 0.42026 0.33002 0.0
H3463 H 0.21905 0.39146 0.25623 0.0
H3464 H 0.24777 0.40427 0.24869 0.0
H3465 H 0.22194 0.4136 0.23726 0.0
H3466 H 0.2428 0.45448 0.25408 0.0
H3467 H 0.26861 0.44522 0.26577 0.0
H3468 H 0.25385 0.46031 0.2846 0.0
H3469 H 0.22288 0.40575 0.34609 0.0
H3470 H 0.2605 0.39333 0.35392 0.0
H3471 H 0.27748 0.41057 0.28614 0.0
C3472 C 0.19439 0.43663 0.26746 0.0
C3473 C 0.17387 0.43906 0.27697 0.0
C3474 C 0.17117 0.43306 0.29966 0.0
C3475 C 0.18872 0.42479 0.31268 0.0
C3476 C 0.20887 0.42279 0.30276 0.0
C3477 C 0.21171 0.42858 0.28065 0.0
C3478 C 0.23495 0.42523 0.27385 0.0
C3479 C 0.23066 0.40759 0.25277 0.0
C3480 C 0.251 0.44765 0.26932 0.0
C3481 C 0.24487 0.4166 0.29558 0.0
C3482 C 0.22965 0.41517 0.31209 0.0
C3483 C 0.23498 0.40697 0.33331 0.0
C3484 C 0.25635 0.39995 0.33761 0.0
C3485 C 0.27214 0.40136 0.32082 0.0
C3486 C 0.26619 0.40988 0.29963 0.0
H3487 H 0.2316 0.45751 0.03858 0.0
H3488 H 0.27381 0.49306 0.10199 0.0
H3489 H 0.24251 0.51322 0.10759 0.0
H3490 H 0.2068 0.50487 0.01985 0.0
H3491 H 0.17763 0.48785 1.00867 0.0
H3492 H 0.20321 0.47586 1.00909 0.0
H3493 H 0.18334 0.44447 0.03247 0.0
H3494 H 0.15772 0.45639 0.03211 0.0
H3495 H 0.1733 0.4519 0.05931 0.0
H3496 H 0.20572 0.53063 0.10702 0.0
H3497 H 0.16832 0.54298 0.10038 0.0
H3498 H 0.14686 0.49737 0.03739 0.0
C3499 C 0.23439 0.46956 0.05367 0.0
C3500 C 0.25612 0.47328 0.06982 0.0
C3501 C 0.25807 0.48941 0.08917 0.0
C3502 C 0.24006 0.50115 0.09256 0.0
C3503 C 0.21921 0.49712 0.07659 0.0
C3504 C 0.21619 0.48165 0.05743 0.0
C3505 C 0.19173 0.48066 0.04305 0.0
C3506 C 0.19504 0.48772 0.01871 0.0
C3507 C 0.17556 0.45694 0.04164 0.0
C3508 C 0.18158 0.49789 0.05699 0.0
C3509 C 0.19794 0.50711 0.0763 0.0
C3510 C 0.19298 0.52335 0.09188 0.0
C3511 C 0.17128 0.53038 0.08788 0.0
C3512 C 0.15367 0.52157 0.06832 0.0
C3513 C 0.15934 0.50482 0.05265 0.0
H3514 H 0.87973 0.95662 0.22698 0.0
H3515 H 0.95562 0.96117 0.23205 0.0
H3516 H 0.9493 0.922 0.2413 0.0
H3517 H 0.87074 0.92592 0.27458 0.0
H3518 H 0.84217 0.90825 0.26246 0.0
H3519 H 0.85174 0.93572 0.25295 0.0
H3520 H 0.84559 0.91812 0.2104 0.0
H3521 H 0.83586 0.89055 0.21977 0.0
H3522 H 0.86013 0.89612 0.20295 0.0
H3523 H 0.93637 0.88491 0.25413 0.0
H3524 H 0.91694 0.85042 0.26966 0.0
H3525 H 0.84881 0.86809 0.25656 0.0
C3526 C 0.89486 0.94911 0.2295 0.0
C3527 C 0.91816 0.96186 0.22877 0.0
C3528 C 0.93764 0.95172 0.23263 0.0
C3529 C 0.93424 0.92944 0.23775 0.0
C3530 C 0.91123 0.91747 0.23894 0.0
C3531 C 0.89179 0.92677 0.23487 0.0
C3532 C 0.86927 0.91054 0.23922 0.0
C3533 C 0.85782 0.92072 0.25845 0.0
C3534 C 0.85167 0.90341 0.21674 0.0
C3535 C 0.87933 0.89107 0.24707 0.0
C3536 C 0.90356 0.89549 0.24648 0.0
C3537 C 0.91735 0.88105 0.25436 0.0
C3538 C 0.90616 0.86158 0.2633 0.0
C3539 C 0.8814 0.85664 0.26428 0.0
C3540 C 0.86771 0.87137 0.25569 0.0
H3541 H 0.68139 0.03713 0.76423 0.0
H3542 H 0.60976 0.0409 0.77436 0.0
H3543 H 0.62216 0.0824 0.77763 0.0
H3544 H 0.71268 0.08611 0.8036 0.0
H3545 H 0.7351 0.09465 0.78519 0.0
H3546 H 0.72087 0.06532 0.78492 0.0
H3547 H 0.70843 0.06282 0.74051 0.0
H3548 H 0.72263 0.0921 0.74063 0.0
H3549 H 0.69171 0.08192 0.72883 0.0
H3550 H 0.64208 0.12351 0.77812 0.0
H3551 H 0.66784 0.16096 0.77545 0.0
H3552 H 0.72612 0.12995 0.76448 0.0
C3553 C 0.66832 0.04664 0.7674 0.0
C3554 C 0.6446 0.03572 0.76914 0.0
C3555 C 0.62804 0.04886 0.77303 0.0
C3556 C 0.63493 0.07244 0.77494 0.0
C3557 C 0.65842 0.08262 0.77295 0.0
C3558 C 0.67486 0.07012 0.76928 0.0
C3559 C 0.69874 0.08507 0.76684 0.0
C3560 C 0.71798 0.08264 0.7863 0.0
C3561 C 0.70578 0.08019 0.74277 0.0
C3562 C 0.69315 0.10796 0.76954 0.0
C3563 C 0.66984 0.10622 0.77314 0.0
C3564 C 0.66039 0.12508 0.77541 0.0
C3565 C 0.67512 0.14626 0.77376 0.0
C3566 C 0.69901 0.14839 0.76983 0.0
C3567 C 0.70809 0.12893 0.76791 0.0
loop_
_geom_bond_atom_site_label_1
_geom_bond_atom_site_label_2
_geom_bond_distance
_geom_bond_site_symmetry_2
_ccdc_geom_bond_type
O0 Cd1 2.223 . S
O0 C8 1.315 . S
Cd1 O0 2.223 . S
Cd1 O4 2.297 . S
Cd1 O5 2.439 . S
Cd1 O11 2.240 . S
Cd2 O3 2.240 . S
Cd2 O10 2.223 . S
Cd2 O12 2.297 . S
Cd2 O13 2.439 . S
O3 Cd2 2.240 . S
O3 C8 1.279 . S
O4 Cd1 2.297 . S
O4 C6 1.247 . S
O5 Cd1 2.439 . S
O5 C6 1.208 . S
C6 O4 1.247 . S
C6 O5 1.208 . S
C7 O12 1.247 . S
C7 O13 1.208 . S
C8 O0 1.315 . S
C8 O3 1.279 . S
C9 O10 1.315 . S
C9 O11 1.279 . S
O10 Cd2 2.223 . S
O10 C9 1.315 . S
O11 Cd1 2.240 . S
O11 C9 1.279 . S
O12 Cd2 2.297 . S
O12 C7 1.247 . S
O13 Cd2 2.439 . S
O13 C7 1.208 . S
O14 Cd15 2.223 . S
O14 C22 1.315 . S
Cd15 O14 2.223 . S
Cd15 O18 2.297 . S
Cd15 O19 2.439 . S
Cd15 O25 2.240 . S
Cd16 O17 2.240 . S
Cd16 O24 2.223 . S
Cd16 O26 2.297 . S
Cd16 O27 2.439 . S
O17 Cd16 2.240 . S
O17 C22 1.279 . S
O18 Cd15 2.297 . S
O18 C20 1.247 1_455 S
O19 Cd15 2.439 . S
O19 C20 1.208 1_455 S
C20 O18 1.247 1_655 S
C20 O19 1.208 1_655 S
C21 O26 1.247 . S
C21 O27 1.208 . S
C22 O14 1.315 . S
C22 O17 1.279 . S
C23 O24 1.315 . S
C23 O25 1.279 . S
O24 Cd16 2.223 . S
O24 C23 1.315 . S
O25 Cd15 2.240 . S
O25 C23 1.279 . S
O26 Cd16 2.297 . S
O26 C21 1.247 . S
O27 Cd16 2.439 . S
O27 C21 1.208 . S
O28 Cd29 2.223 . S
O28 C36 1.315 . S
Cd29 O28 2.223 . S
Cd29 O32 2.297 . S
Cd29 O33 2.439 . S
Cd29 O39 2.240 . S
Cd30 O31 2.240 . S
Cd30 O38 2.223 . S
Cd30 O40 2.297 . S
Cd30 O41 2.439 . S
O31 Cd30 2.240 . S
O31 C36 1.279 . S
O32 Cd29 2.297 . S
O32 C34 1.247 . S
O33 Cd29 2.439 . S
O33 C34 1.208 . S
C34 O32 1.247 . S
C34 O33 1.208 . S
C35 O40 1.247 . S
C35 O41 1.208 . S
C36 O28 1.315 . S
C36 O31 1.279 . S
C37 O38 1.315 . S
C37 O39 1.279 . S
O38 Cd30 2.223 . S
O38 C37 1.315 . S
O39 Cd29 2.240 . S
O39 C37 1.279 . S
O40 Cd30 2.297 . S
O40 C35 1.247 . S
O41 Cd30 2.439 . S
O41 C35 1.208 . S
O42 Cd43 2.223 . S
O42 C50 1.315 . S
Cd43 O42 2.223 . S
Cd43 O46 2.297 . S
Cd43 O47 2.439 . S
Cd43 O53 2.240 . S
Cd44 O45 2.240 . S
Cd44 O52 2.223 . S
Cd44 O54 2.297 . S
Cd44 O55 2.439 . S
O45 Cd44 2.240 . S
O45 C50 1.279 . S
O46 Cd43 2.297 . S
O46 C48 1.247 . S
O47 Cd43 2.439 . S
O47 C48 1.208 . S
C48 O46 1.247 . S
C48 O47 1.208 . S
C49 O54 1.247 . S
C49 O55 1.208 . S
C50 O42 1.315 . S
C50 O45 1.279 . S
C51 O52 1.315 . S
C51 O53 1.279 . S
O52 Cd44 2.223 . S
O52 C51 1.315 . S
O53 Cd43 2.240 . S
O53 C51 1.279 . S
O54 Cd44 2.297 . S
O54 C49 1.247 . S
O55 Cd44 2.439 . S
O55 C49 1.208 . S
O56 Cd57 2.223 . S
O56 C64 1.315 . S
Cd57 O56 2.223 . S
Cd57 O60 2.297 . S
Cd57 O61 2.439 . S
Cd57 O67 2.240 . S
Cd58 O59 2.240 . S
Cd58 O66 2.223 . S
Cd58 O68 2.297 . S
Cd58 O69 2.439 . S
O59 Cd58 2.240 . S
O59 C64 1.279 . S
O60 Cd57 2.297 . S
O60 C62 1.247 . S
O61 Cd57 2.439 . S
O61 C62 1.208 . S
C62 O60 1.247 . S
C62 O61 1.208 . S
C63 O68 1.247 . S
C63 O69 1.208 . S
C64 O56 1.315 . S
C64 O59 1.279 . S
C65 O66 1.315 . S
C65 O67 1.279 . S
O66 Cd58 2.223 . S
O66 C65 1.315 . S
O67 Cd57 2.240 . S
O67 C65 1.279 . S
O68 Cd58 2.297 . S
O68 C63 1.247 . S
O69 Cd58 2.439 . S
O69 C63 1.208 . S
O70 Cd71 2.223 . S
O70 C78 1.315 . S
Cd71 O70 2.223 . S
Cd71 O74 2.297 . S
Cd71 O75 2.439 . S
Cd71 O81 2.240 . S
Cd72 O73 2.240 . S
Cd72 O80 2.223 . S
Cd72 O82 2.297 . S
Cd72 O83 2.439 . S
O73 Cd72 2.240 . S
O73 C78 1.279 . S
O74 Cd71 2.297 . S
O74 C76 1.247 . S
O75 Cd71 2.439 . S
O75 C76 1.208 . S
C76 O74 1.247 . S
C76 O75 1.208 . S
C77 O82 1.247 . S
C77 O83 1.208 . S
C78 O70 1.315 . S
C78 O73 1.279 . S
C79 O80 1.315 . S
C79 O81 1.279 . S
O80 Cd72 2.223 . S
O80 C79 1.315 . S
O81 Cd71 2.240 . S
O81 C79 1.279 . S
O82 Cd72 2.297 . S
O82 C77 1.247 . S
O83 Cd72 2.439 . S
O83 C77 1.208 . S
O84 Cd85 2.223 . S
O84 C92 1.315 . S
Cd85 O84 2.223 . S
Cd85 O88 2.297 . S
Cd85 O89 2.439 . S
Cd85 O95 2.240 . S
Cd86 O87 2.240 . S
Cd86 O94 2.223 . S
Cd86 O96 2.297 . S
Cd86 O97 2.439 . S
O87 Cd86 2.240 . S
O87 C92 1.279 . S
O88 Cd85 2.297 . S
O88 C90 1.247 . S
O89 Cd85 2.439 . S
O89 C90 1.208 . S
C90 O88 1.247 . S
C90 O89 1.208 . S
C91 O96 1.247 . S
C91 O97 1.208 . S
C92 O84 1.315 . S
C92 O87 1.279 . S
C93 O94 1.315 . S
C93 O95 1.279 . S
O94 Cd86 2.223 . S
O94 C93 1.315 . S
O95 Cd85 2.240 . S
O95 C93 1.279 . S
O96 Cd86 2.297 . S
O96 C91 1.247 . S
O97 Cd86 2.439 . S
O97 C91 1.208 . S
O98 Cd99 2.223 1_655 S
O98 C106 1.315 . S
Cd99 O98 2.223 1_455 S
Cd99 O102 2.297 . S
Cd99 O103 2.439 . S
Cd99 O109 2.240 1_455 S
Cd100 O101 2.240 1_655 S
Cd100 O108 2.223 . S
Cd100 O110 2.297 . S
Cd100 O111 2.439 1_655 S
O101 Cd100 2.240 1_455 S
O101 C106 1.279 1_455 S
O102 Cd99 2.297 . S
O102 C104 1.247 . S
O103 Cd99 2.439 . S
O103 C104 1.208 . S
C104 O102 1.247 . S
C104 O103 1.208 . S
C105 O110 1.222 1_455 S
C105 O111 1.235 . S
C106 O98 1.315 . S
C106 O101 1.279 1_655 S
C107 O108 1.315 . S
C107 O109 1.279 . S
O108 Cd100 2.223 . S
O108 C107 1.315 . S
O109 Cd99 2.240 1_655 S
O109 C107 1.279 . S
O110 Cd100 2.297 . S
O110 C105 1.222 1_655 S
O111 Cd100 2.439 1_455 S
O111 C105 1.235 . S
O112 Cd113 2.223 . S
O112 C120 1.315 . S
Cd113 O112 2.223 . S
Cd113 O116 2.297 . S
Cd113 O117 2.439 . S
Cd113 O123 2.240 . S
Cd114 O115 2.240 . S
Cd114 O122 2.223 . S
Cd114 O124 2.297 . S
Cd114 O125 2.439 . S
O115 Cd114 2.240 . S
O115 C120 1.279 . S
O116 Cd113 2.297 . S
O116 C118 1.247 . S
O117 Cd113 2.439 . S
O117 C118 1.208 . S
C118 O116 1.247 . S
C118 O117 1.208 . S
C119 O124 1.247 . S
C119 O125 1.208 . S
C120 O112 1.315 . S
C120 O115 1.279 . S
C121 O122 1.315 . S
C121 O123 1.279 . S
O122 Cd114 2.223 . S
O122 C121 1.315 . S
O123 Cd113 2.240 . S
O123 C121 1.279 . S
O124 Cd114 2.297 . S
O124 C119 1.247 . S
O125 Cd114 2.439 . S
O125 C119 1.208 . S
O126 Cd127 2.223 . S
O126 C134 1.315 . S
Cd127 O126 2.223 . S
Cd127 O130 2.297 . S
Cd127 O131 2.439 . S
Cd127 O137 2.240 . S
Cd128 O129 2.240 . S
Cd128 O136 2.223 . S
Cd128 O138 2.297 . S
Cd128 O139 2.439 . S
O129 Cd128 2.240 . S
O129 C134 1.279 . S
O130 Cd127 2.297 . S
O130 C132 1.247 . S
O131 Cd127 2.439 . S
O131 C132 1.208 . S
C132 O130 1.247 . S
C132 O131 1.208 . S
C133 O138 1.247 . S
C133 O139 1.208 . S
C134 O126 1.315 . S
C134 O129 1.279 . S
C135 O136 1.315 . S
C135 O137 1.279 . S
O136 Cd128 2.223 . S
O136 C135 1.315 . S
O137 Cd127 2.240 . S
O137 C135 1.279 . S
O138 Cd128 2.297 . S
O138 C133 1.247 . S
O139 Cd128 2.439 . S
O139 C133 1.208 . S
O140 Cd141 2.223 . S
O140 C148 1.315 . S
Cd141 O140 2.223 . S
Cd141 O144 2.297 . S
Cd141 O145 2.439 . S
Cd141 O151 2.240 . S
Cd142 O143 2.240 . S
Cd142 O150 2.223 . S
Cd142 O152 2.297 . S
Cd142 O153 2.439 . S
O143 Cd142 2.240 . S
O143 C148 1.279 . S
O144 Cd141 2.297 . S
O144 C146 1.247 . S
O145 Cd141 2.439 . S
O145 C146 1.208 . S
C146 O144 1.247 . S
C146 O145 1.208 . S
C147 O152 1.247 . S
C147 O153 1.208 . S
C148 O140 1.315 . S
C148 O143 1.279 . S
C149 O150 1.315 . S
C149 O151 1.279 . S
O150 Cd142 2.223 . S
O150 C149 1.315 . S
O151 Cd141 2.240 . S
O151 C149 1.279 . S
O152 Cd142 2.297 . S
O152 C147 1.247 . S
O153 Cd142 2.439 . S
O153 C147 1.208 . S
O154 Cd155 2.223 . S
O154 C162 1.315 . S
Cd155 O154 2.223 . S
Cd155 O158 2.297 . S
Cd155 O159 2.439 . S
Cd155 O165 2.240 . S
Cd156 O157 2.240 . S
Cd156 O164 2.223 . S
Cd156 O166 2.297 1_554 S
Cd156 O167 2.444 . S
O157 Cd156 2.240 . S
O157 C162 1.279 . S
O158 Cd155 2.297 . S
O158 C160 1.247 . S
O159 Cd155 2.439 . S
O159 C160 1.208 . S
C160 O158 1.247 . S
C160 O159 1.208 . S
C161 O166 1.247 . S
C161 O167 1.205 1_556 S
C162 O154 1.315 . S
C162 O157 1.279 . S
C163 O164 1.315 . S
C163 O165 1.279 . S
O164 Cd156 2.223 . S
O164 C163 1.315 . S
O165 Cd155 2.240 . S
O165 C163 1.279 . S
O166 Cd156 2.297 1_556 S
O166 C161 1.247 . S
O167 Cd156 2.444 . S
O167 C161 1.205 1_554 S
O168 Cd169 2.223 . S
O168 C176 1.315 . S
Cd169 O168 2.223 . S
Cd169 O172 2.297 . S
Cd169 O173 2.439 . S
Cd169 O179 2.240 . S
Cd170 O171 2.240 . S
Cd170 O178 2.223 . S
Cd170 O180 2.297 1_554 S
Cd170 O181 2.439 1_554 S
O171 Cd170 2.240 . S
O171 C176 1.279 . S
O172 Cd169 2.297 . S
O172 C174 1.247 . S
O173 Cd169 2.439 . S
O173 C174 1.208 . S
C174 O172 1.247 . S
C174 O173 1.208 . S
C175 O180 1.247 . S
C175 O181 1.208 . S
C176 O168 1.315 . S
C176 O171 1.279 . S
C177 O178 1.315 . S
C177 O179 1.279 . S
O178 Cd170 2.223 . S
O178 C177 1.315 . S
O179 Cd169 2.240 . S
O179 C177 1.279 . S
O180 Cd170 2.297 1_556 S
O180 C175 1.247 . S
O181 Cd170 2.439 1_556 S
O181 C175 1.208 . S
O182 Cd183 2.223 . S
O182 C190 1.315 . S
Cd183 O182 2.223 . S
Cd183 O186 2.297 . S
Cd183 O187 2.439 1_554 S
Cd183 O193 2.240 1_554 S
Cd184 O185 2.240 1_556 S
Cd184 O192 2.206 1_556 S
Cd184 O194 2.297 . S
Cd184 O195 2.439 . S
O185 Cd184 2.240 1_554 S
O185 C190 1.279 . S
O186 Cd183 2.297 . S
O186 C188 1.247 . S
O187 Cd183 2.439 1_556 S
O187 C188 1.208 1_556 S
C188 O186 1.247 . S
C188 O187 1.208 1_554 S
C189 O194 1.247 . S
C189 O195 1.208 . S
C190 O182 1.315 . S
C190 O185 1.279 . S
C191 O192 1.313 1_556 S
C191 O193 1.279 . S
O192 Cd184 2.206 1_554 S
O192 C191 1.313 1_554 S
O193 Cd183 2.240 1_556 S
O193 C191 1.279 . S
O194 Cd184 2.297 . S
O194 C189 1.247 . S
O195 Cd184 2.439 . S
O195 C189 1.208 . S
O196 Cd197 2.223 . S
O196 C204 1.315 . S
Cd197 O196 2.223 . S
Cd197 O200 2.297 . S
Cd197 O201 2.439 . S
Cd197 O207 2.240 . S
Cd198 O199 2.240 . S
Cd198 O206 2.223 . S
Cd198 O208 2.297 . S
Cd198 O209 2.439 . S
O199 Cd198 2.240 . S
O199 C204 1.279 . S
O200 Cd197 2.297 . S
O200 C202 1.247 . S
O201 Cd197 2.439 . S
O201 C202 1.208 . S
C202 O200 1.247 . S
C202 O201 1.208 . S
C203 O208 1.247 . S
C203 O209 1.208 . S
C204 O196 1.315 . S
C204 O199 1.279 . S
C205 O206 1.315 . S
C205 O207 1.279 . S
O206 Cd198 2.223 . S
O206 C205 1.315 . S
O207 Cd197 2.240 . S
O207 C205 1.279 . S
O208 Cd198 2.297 . S
O208 C203 1.247 . S
O209 Cd198 2.439 . S
O209 C203 1.208 . S
O210 Cd211 2.223 . S
O210 C218 1.315 . S
Cd211 O210 2.223 . S
Cd211 O214 2.297 . S
Cd211 O215 2.439 . S
Cd211 O221 2.240 . S
Cd212 O213 2.240 . S
Cd212 O220 2.223 . S
Cd212 O222 2.297 . S
Cd212 O223 2.439 . S
O213 Cd212 2.240 . S
O213 C218 1.279 . S
O214 Cd211 2.297 . S
O214 C216 1.247 . S
O215 Cd211 2.439 . S
O215 C216 1.208 . S
C216 O214 1.247 . S
C216 O215 1.208 . S
C217 O222 1.247 . S
C217 O223 1.208 . S
C218 O210 1.315 . S
C218 O213 1.279 . S
C219 O220 1.315 . S
C219 O221 1.279 . S
O220 Cd212 2.223 . S
O220 C219 1.315 . S
O221 Cd211 2.240 . S
O221 C219 1.279 . S
O222 Cd212 2.297 . S
O222 C217 1.247 . S
O223 Cd212 2.439 . S
O223 C217 1.208 . S
O224 Cd225 2.216 1_565 S
O224 C232 1.315 . S
Cd225 O224 2.216 1_545 S
Cd225 O228 2.322 . S
Cd225 O229 2.459 . S
Cd225 O235 2.219 1_545 S
Cd226 O227 2.240 1_565 S
Cd226 O234 2.223 . S
Cd226 O236 2.297 . S
Cd226 O237 2.439 1_565 S
O227 Cd226 2.240 1_545 S
O227 C232 1.279 1_545 S
O228 Cd225 2.322 . S
O228 C230 1.247 . S
O229 Cd225 2.459 . S
O229 C230 1.208 . S
C230 O228 1.247 . S
C230 O229 1.208 . S
C231 O236 1.247 . S
C231 O237 1.208 1_565 S
C232 O224 1.315 . S
C232 O227 1.279 1_565 S
C233 O234 1.315 . S
C233 O235 1.279 . S
O234 Cd226 2.223 . S
O234 C233 1.315 . S
O235 Cd225 2.219 1_565 S
O235 C233 1.279 . S
O236 Cd226 2.297 . S
O236 C231 1.247 . S
O237 Cd226 2.439 1_545 S
O237 C231 1.208 1_545 S
O238 Cd239 2.223 . S
O238 C246 1.315 . S
Cd239 O238 2.223 . S
Cd239 O242 2.297 . S
Cd239 O243 2.439 . S
Cd239 O249 2.240 . S
Cd240 O241 2.240 . S
Cd240 O248 2.223 . S
Cd240 O250 2.297 . S
Cd240 O251 2.439 . S
O241 Cd240 2.240 . S
O241 C246 1.279 . S
O242 Cd239 2.297 . S
O242 C244 1.247 . S
O243 Cd239 2.439 . S
O243 C244 1.208 . S
C244 O242 1.247 . S
C244 O243 1.208 . S
C245 O250 1.247 . S
C245 O251 1.208 . S
C246 O238 1.315 . S
C246 O241 1.279 . S
C247 O248 1.315 . S
C247 O249 1.279 . S
O248 Cd240 2.223 . S
O248 C247 1.315 . S
O249 Cd239 2.240 . S
O249 C247 1.279 . S
O250 Cd240 2.297 . S
O250 C245 1.247 . S
O251 Cd240 2.439 . S
O251 C245 1.208 . S
O252 Cd253 2.223 . S
O252 C260 1.315 . S
Cd253 O252 2.223 . S
Cd253 O256 2.297 . S
Cd253 O257 2.439 . S
Cd253 O263 2.240 . S
Cd254 O255 2.240 . S
Cd254 O262 2.223 . S
Cd254 O264 2.297 . S
Cd254 O265 2.439 . S
O255 Cd254 2.240 . S
O255 C260 1.279 . S
O256 Cd253 2.297 . S
O256 C258 1.247 . S
O257 Cd253 2.439 . S
O257 C258 1.208 . S
C258 O256 1.247 . S
C258 O257 1.208 . S
C259 O264 1.247 . S
C259 O265 1.208 . S
C260 O252 1.315 . S
C260 O255 1.279 . S
C261 O262 1.315 . S
C261 O263 1.279 . S
O262 Cd254 2.223 . S
O262 C261 1.315 . S
O263 Cd253 2.240 . S
O263 C261 1.279 . S
O264 Cd254 2.297 . S
O264 C259 1.247 . S
O265 Cd254 2.439 . S
O265 C259 1.208 . S
O266 Cd267 2.236 . S
O266 C274 1.316 . S
Cd267 O266 2.236 . S
Cd267 O270 2.264 1_545 S
Cd267 O271 2.409 1_545 S
Cd267 O277 2.269 . S
Cd268 O269 2.240 1_545 S
Cd268 O276 2.223 . S
Cd268 O278 2.297 . S
Cd268 O279 2.439 1_545 S
O269 Cd268 2.240 1_565 S
O269 C274 1.264 1_565 S
O270 Cd267 2.264 1_565 S
O270 C272 1.247 . S
O271 Cd267 2.409 1_565 S
O271 C272 1.208 . S
C272 O270 1.247 . S
C272 O271 1.208 . S
C273 O278 1.247 . S
C273 O279 1.208 1_545 S
C274 O266 1.316 . S
C274 O269 1.264 1_545 S
C275 O276 1.315 . S
C275 O277 1.279 . S
O276 Cd268 2.223 . S
O276 C275 1.315 . S
O277 Cd267 2.269 . S
O277 C275 1.279 . S
O278 Cd268 2.297 . S
O278 C273 1.247 . S
O279 Cd268 2.439 1_565 S
O279 C273 1.208 1_565 S
O280 Cd281 2.223 . S
O280 C288 1.315 . S
Cd281 O280 2.223 . S
Cd281 O284 2.297 . S
Cd281 O285 2.439 . S
Cd281 O291 2.240 . S
Cd282 O283 2.240 . S
Cd282 O290 2.223 . S
Cd282 O292 2.297 1_554 S
Cd282 O293 2.439 1_554 S
O283 Cd282 2.240 . S
O283 C288 1.279 . S
O284 Cd281 2.297 . S
O284 C286 1.247 . S
O285 Cd281 2.439 . S
O285 C286 1.208 . S
C286 O284 1.247 . S
C286 O285 1.208 . S
C287 O292 1.247 . S
C287 O293 1.208 . S
C288 O280 1.315 . S
C288 O283 1.279 . S
C289 O290 1.315 . S
C289 O291 1.279 . S
O290 Cd282 2.223 . S
O290 C289 1.315 . S
O291 Cd281 2.240 . S
O291 C289 1.279 . S
O292 Cd282 2.297 1_556 S
O292 C287 1.247 . S
O293 Cd282 2.439 1_556 S
O293 C287 1.208 . S
O294 Cd295 2.223 . S
O294 C302 1.281 1_655 S
Cd295 O294 2.223 . S
Cd295 O298 2.297 . S
Cd295 O299 2.439 . S
Cd295 O305 2.240 . S
Cd296 O297 2.240 . S
Cd296 O304 2.223 . S
Cd296 O306 2.297 . S
Cd296 O307 2.439 . S
O297 Cd296 2.240 . S
O297 C302 1.287 . S
O298 Cd295 2.297 . S
O298 C300 1.247 . S
O299 Cd295 2.439 . S
O299 C300 1.208 . S
C300 O298 1.247 . S
C300 O299 1.208 . S
C301 O306 1.247 . S
C301 O307 1.208 . S
C302 O294 1.281 1_455 S
C302 O297 1.287 . S
C303 O304 1.315 1_655 S
C303 O305 1.279 . S
O304 Cd296 2.223 . S
O304 C303 1.315 1_455 S
O305 Cd295 2.240 . S
O305 C303 1.279 . S
O306 Cd296 2.297 . S
O306 C301 1.247 . S
O307 Cd296 2.439 . S
O307 C301 1.208 . S
O308 Cd309 2.223 . S
O308 C316 1.315 . S
Cd309 O308 2.223 . S
Cd309 O312 2.297 . S
Cd309 O313 2.439 . S
Cd309 O319 2.240 . S
Cd310 O311 2.240 . S
Cd310 O318 2.223 . S
Cd310 O320 2.297 . S
Cd310 O321 2.439 . S
O311 Cd310 2.240 . S
O311 C316 1.279 . S
O312 Cd309 2.297 . S
O312 C314 1.247 . S
O313 Cd309 2.439 . S
O313 C314 1.208 . S
C314 O312 1.247 . S
C314 O313 1.208 . S
C315 O320 1.247 . S
C315 O321 1.208 . S
C316 O308 1.315 . S
C316 O311 1.279 . S
C317 O318 1.315 . S
C317 O319 1.279 . S
O318 Cd310 2.223 . S
O318 C317 1.315 . S
O319 Cd309 2.240 . S
O319 C317 1.279 . S
O320 Cd310 2.297 . S
O320 C315 1.247 . S
O321 Cd310 2.439 . S
O321 C315 1.208 . S
O322 Cd323 2.223 . S
O322 C330 1.315 . S
Cd323 O322 2.223 . S
Cd323 O326 2.297 . S
Cd323 O327 2.439 . S
Cd323 O333 2.240 . S
Cd324 O325 2.240 . S
Cd324 O332 2.223 . S
Cd324 O334 2.297 . S
Cd324 O335 2.439 . S
O325 Cd324 2.240 . S
O325 C330 1.279 . S
O326 Cd323 2.297 . S
O326 C328 1.247 . S
O327 Cd323 2.439 . S
O327 C328 1.208 . S
C328 O326 1.247 . S
C328 O327 1.208 . S
C329 O334 1.247 . S
C329 O335 1.208 . S
C330 O322 1.315 . S
C330 O325 1.279 . S
C331 O332 1.315 . S
C331 O333 1.279 . S
O332 Cd324 2.223 . S
O332 C331 1.315 . S
O333 Cd323 2.240 . S
O333 C331 1.279 . S
O334 Cd324 2.297 . S
O334 C329 1.247 . S
O335 Cd324 2.439 . S
O335 C329 1.208 . S
Tb336 C346 2.825 1_455 S
Tb336 O347 2.347 . S
Tb336 O350 2.366 . S
Tb336 O355 2.418 1_554 S
Tb336 O356 2.384 . S
Tb336 O359 2.479 1_454 S
Tb336 O360 2.471 1_455 S
Eu337 O348 2.418 . S
Eu337 O349 2.384 . S
Eu337 O352 2.479 . S
Eu337 O353 2.471 . S
Eu337 O354 2.347 . S
Eu337 O357 2.366 . S
Eu337 C367 2.825 . S
C338 O354 1.220 1_556 S
C338 O355 1.277 . S
C339 O356 1.255 . S
C339 O357 1.265 . S
C340 C342 1.380 . S
C340 C343 1.374 1_556 S
C340 C346 1.507 1_556 S
C341 C342 1.384 . S
C341 C345 1.387 . S
C341 H368 0.930 . S
C342 C340 1.380 . S
C342 C341 1.384 . S
C342 H369 0.931 . S
C343 C340 1.374 1_554 S
C343 C344 1.390 . S
C343 H370 0.930 . S
C344 C343 1.390 . S
C344 C345 1.391 1_554 S
C344 H371 0.930 . S
C345 C341 1.387 . S
C345 C344 1.391 1_556 S
C346 Tb336 2.825 1_655 S
C346 C340 1.507 1_554 S
C346 O359 1.238 1_554 S
C346 O360 1.247 . S
O347 Tb336 2.347 . S
O347 C351 1.259 . S
O348 Eu337 2.418 . S
O348 C351 1.265 . S
O349 Eu337 2.384 . S
O349 C358 1.255 . S
O350 Tb336 2.366 . S
O350 C358 1.265 . S
C351 O347 1.259 . S
C351 O348 1.265 . S
O352 Eu337 2.479 . S
O352 C367 1.238 . S
O353 Eu337 2.471 . S
O353 C367 1.247 . S
O354 Eu337 2.347 . S
O354 C338 1.220 1_554 S
O355 Tb336 2.418 1_556 S
O355 C338 1.277 . S
O356 Tb336 2.384 . S
O356 C339 1.255 . S
O357 Eu337 2.366 . S
O357 C339 1.265 . S
C358 O349 1.255 . S
C358 O350 1.265 . S
O359 Tb336 2.479 1_656 S
O359 C346 1.238 1_556 S
O360 Tb336 2.471 1_655 S
O360 C346 1.247 . S
C361 C364 1.380 . S
C361 C365 1.374 . S
C361 C367 1.507 . S
C362 C363 1.387 . S
C362 C366 1.391 . S
C363 C362 1.387 . S
C363 C364 1.384 . S
C363 H372 0.930 . S
C364 C361 1.380 . S
C364 C363 1.384 . S
C364 H373 0.931 . S
C365 C361 1.374 . S
C365 C366 1.390 . S
C365 H374 0.930 . S
C366 C362 1.391 . S
C366 C365 1.390 . S
C366 H375 0.930 . S
C367 Eu337 2.825 . S
C367 O352 1.238 . S
C367 O353 1.247 . S
C367 C361 1.507 . S
H368 C341 0.930 . S
H369 C342 0.931 . S
H370 C343 0.930 . S
H371 C344 0.930 . S
H372 C363 0.930 . S
H373 C364 0.931 . S
H374 C365 0.930 . S
H375 C366 0.930 . S
Tb376 C386 2.825 . S
Tb376 O387 2.347 . S
Tb376 O390 2.366 . S
Tb376 O395 2.418 . S
Tb376 O396 2.384 . S
Tb376 O399 2.479 . S
Tb376 O400 2.471 . S
Eu377 O388 2.418 . S
Eu377 O389 2.384 . S
Eu377 O392 2.479 . S
Eu377 O393 2.471 . S
Eu377 O394 2.347 . S
Eu377 O397 2.366 . S
Eu377 C407 2.825 . S
C378 O394 1.259 . S
C378 O395 1.265 . S
C379 O396 1.255 . S
C379 O397 1.265 . S
C380 C382 1.380 . S
C380 C383 1.374 . S
C380 C386 1.507 . S
C381 C382 1.384 . S
C381 C385 1.387 . S
C381 H408 0.930 . S
C382 C380 1.380 . S
C382 C381 1.384 . S
C382 H409 0.931 . S
C383 C380 1.374 . S
C383 C384 1.390 . S
C383 H410 0.930 . S
C384 C383 1.390 . S
C384 C385 1.391 . S
C384 H411 0.930 . S
C385 C381 1.387 . S
C385 C384 1.391 . S
C386 Tb376 2.825 . S
C386 C380 1.507 . S
C386 O399 1.238 . S
C386 O400 1.247 . S
O387 Tb376 2.347 . S
O387 C391 1.259 . S
O388 Eu377 2.418 . S
O388 C391 1.265 . S
O389 Eu377 2.384 . S
O389 C398 1.255 . S
O390 Tb376 2.366 . S
O390 C398 1.265 . S
C391 O387 1.259 . S
C391 O388 1.265 . S
O392 Eu377 2.479 . S
O392 C407 1.238 . S
O393 Eu377 2.471 . S
O393 C407 1.247 . S
O394 Eu377 2.347 . S
O394 C378 1.259 . S
O395 Tb376 2.418 . S
O395 C378 1.265 . S
O396 Tb376 2.384 . S
O396 C379 1.255 . S
O397 Eu377 2.366 . S
O397 C379 1.265 . S
C398 O389 1.255 . S
C398 O390 1.265 . S
O399 Tb376 2.479 . S
O399 C386 1.238 . S
O400 Tb376 2.471 . S
O400 C386 1.247 . S
C401 C404 1.380 . S
C401 C405 1.374 . S
C401 C407 1.507 . S
C402 C403 1.387 . S
C402 C406 1.391 . S
C403 C402 1.387 . S
C403 C404 1.384 . S
C403 H412 0.930 . S
C404 C401 1.380 . S
C404 C403 1.384 . S
C404 H413 0.931 . S
C405 C401 1.374 . S
C405 C406 1.390 . S
C405 H414 0.930 . S
C406 C402 1.391 . S
C406 C405 1.390 . S
C406 H415 0.930 . S
C407 Eu377 2.825 . S
C407 O392 1.238 . S
C407 O393 1.247 . S
C407 C401 1.507 . S
H408 C381 0.930 . S
H409 C382 0.931 . S
H410 C383 0.930 . S
H411 C384 0.930 . S
H412 C403 0.930 . S
H413 C404 0.931 . S
H414 C405 0.930 . S
H415 C406 0.930 . S
Tb416 C426 2.825 1_545 S
Tb416 O427 2.347 . S
Tb416 O430 2.366 . S
Tb416 O435 2.418 . S
Tb416 O436 2.384 . S
Tb416 O439 2.479 1_545 S
Tb416 O440 2.471 1_545 S
Eu417 O428 2.418 . S
Eu417 O429 2.384 . S
Eu417 O432 2.479 . S
Eu417 O433 2.471 . S
Eu417 O434 2.347 . S
Eu417 O437 2.366 . S
Eu417 C447 2.825 . S
C418 O434 1.259 . S
C418 O435 1.265 . S
C419 O436 1.255 . S
C419 O437 1.265 . S
C420 C422 1.380 . S
C420 C423 1.374 . S
C420 C426 1.507 . S
C421 C422 1.384 . S
C421 C425 1.387 . S
C421 H448 0.930 . S
C422 C420 1.380 . S
C422 C421 1.384 . S
C422 H449 0.931 . S
C423 C420 1.374 . S
C423 C424 1.390 . S
C423 H450 0.930 . S
C424 C423 1.390 . S
C424 C425 1.391 . S
C424 H451 0.930 . S
C425 C421 1.387 . S
C425 C424 1.391 . S
C426 Tb416 2.825 1_565 S
C426 C420 1.507 . S
C426 O439 1.238 . S
C426 O440 1.247 . S
O427 Tb416 2.347 . S
O427 C431 1.259 . S
O428 Eu417 2.418 . S
O428 C431 1.265 . S
O429 Eu417 2.384 . S
O429 C438 1.255 . S
O430 Tb416 2.366 . S
O430 C438 1.265 . S
C431 O427 1.259 . S
C431 O428 1.265 . S
O432 Eu417 2.479 . S
O432 C447 1.238 . S
O433 Eu417 2.471 . S
O433 C447 1.247 . S
O434 Eu417 2.347 . S
O434 C418 1.259 . S
O435 Tb416 2.418 . S
O435 C418 1.265 . S
O436 Tb416 2.384 . S
O436 C419 1.255 . S
O437 Eu417 2.366 . S
O437 C419 1.265 . S
C438 O429 1.255 . S
C438 O430 1.265 . S
O439 Tb416 2.479 1_565 S
O439 C426 1.238 . S
O440 Tb416 2.471 1_565 S
O440 C426 1.247 . S
C441 C444 1.380 . S
C441 C445 1.374 . S
C441 C447 1.507 . S
C442 C443 1.387 . S
C442 C446 1.391 . S
C443 C442 1.387 . S
C443 C444 1.384 . S
C443 H452 0.930 . S
C444 C441 1.380 . S
C444 C443 1.384 . S
C444 H453 0.931 . S
C445 C441 1.374 . S
C445 C446 1.390 . S
C445 H454 0.930 . S
C446 C442 1.391 . S
C446 C445 1.390 . S
C446 H455 0.930 . S
C447 Eu417 2.825 . S
C447 O432 1.238 . S
C447 O433 1.247 . S
C447 C441 1.507 . S
H448 C421 0.930 . S
H449 C422 0.931 . S
H450 C423 0.930 . S
H451 C424 0.930 . S
H452 C443 0.930 . S
H453 C444 0.931 . S
H454 C445 0.930 . S
H455 C446 0.930 . S
Tb456 C466 2.825 . S
Tb456 O467 2.347 . S
Tb456 O470 2.366 . S
Tb456 O475 2.418 . S
Tb456 O476 2.384 . S
Tb456 O479 2.479 . S
Tb456 O480 2.471 . S
Eu457 O468 2.418 . S
Eu457 O469 2.384 . S
Eu457 O472 2.479 . S
Eu457 O473 2.471 . S
Eu457 O474 2.347 . S
Eu457 O477 2.366 . S
Eu457 C487 2.825 . S
C458 O474 1.259 . S
C458 O475 1.265 . S
C459 O476 1.255 . S
C459 O477 1.265 . S
C460 C462 1.380 . S
C460 C463 1.374 . S
C460 C466 1.507 . S
C461 C462 1.384 . S
C461 C465 1.387 . S
C461 H488 0.930 . S
C462 C460 1.380 . S
C462 C461 1.384 . S
C462 H489 0.931 . S
C463 C460 1.374 . S
C463 C464 1.390 . S
C463 H490 0.930 . S
C464 C463 1.390 . S
C464 C465 1.391 . S
C464 H491 0.930 . S
C465 C461 1.387 . S
C465 C464 1.391 . S
C466 Tb456 2.825 . S
C466 C460 1.507 . S
C466 O479 1.238 . S
C466 O480 1.247 . S
O467 Tb456 2.347 . S
O467 C471 1.259 . S
O468 Eu457 2.418 . S
O468 C471 1.265 . S
O469 Eu457 2.384 . S
O469 C478 1.255 . S
O470 Tb456 2.366 . S
O470 C478 1.265 . S
C471 O467 1.259 . S
C471 O468 1.265 . S
O472 Eu457 2.479 . S
O472 C487 1.238 . S
O473 Eu457 2.471 . S
O473 C487 1.247 . S
O474 Eu457 2.347 . S
O474 C458 1.259 . S
O475 Tb456 2.418 . S
O475 C458 1.265 . S
O476 Tb456 2.384 . S
O476 C459 1.255 . S
O477 Eu457 2.366 . S
O477 C459 1.265 . S
C478 O469 1.255 . S
C478 O470 1.265 . S
O479 Tb456 2.479 . S
O479 C466 1.238 . S
O480 Tb456 2.471 . S
O480 C466 1.247 . S
C481 C484 1.380 . S
C481 C485 1.374 . S
C481 C487 1.507 . S
C482 C483 1.387 . S
C482 C486 1.391 . S
C483 C482 1.387 . S
C483 C484 1.384 . S
C483 H492 0.930 . S
C484 C481 1.380 . S
C484 C483 1.384 . S
C484 H493 0.931 . S
C485 C481 1.374 . S
C485 C486 1.390 . S
C485 H494 0.930 . S
C486 C482 1.391 . S
C486 C485 1.390 . S
C486 H495 0.930 . S
C487 Eu457 2.825 . S
C487 O472 1.238 . S
C487 O473 1.247 . S
C487 C481 1.507 . S
H488 C461 0.930 . S
H489 C462 0.931 . S
H490 C463 0.930 . S
H491 C464 0.930 . S
H492 C483 0.930 . S
H493 C484 0.931 . S
H494 C485 0.930 . S
H495 C486 0.930 . S
Tb496 C506 2.825 . S
Tb496 O507 2.347 . S
Tb496 O510 2.366 . S
Tb496 O515 2.418 . S
Tb496 O516 2.384 1_545 S
Tb496 O519 2.479 . S
Tb496 O520 2.471 . S
Eu497 O508 2.418 . S
Eu497 O509 2.384 . S
Eu497 O512 2.479 . S
Eu497 O513 2.471 . S
Eu497 O514 2.347 . S
Eu497 O517 2.366 . S
Eu497 C527 2.825 . S
C498 O514 1.259 . S
C498 O515 1.265 . S
C499 O516 1.255 . S
C499 O517 1.265 1_565 S
C500 C502 1.380 . S
C500 C503 1.374 . S
C500 C506 1.507 . S
C501 C502 1.384 . S
C501 C505 1.387 . S
C501 H528 0.930 . S
C502 C500 1.380 . S
C502 C501 1.384 . S
C502 H529 0.931 . S
C503 C500 1.374 . S
C503 C504 1.390 1_455 S
C503 H530 0.930 1_455 S
C504 C503 1.390 1_655 S
C504 C505 1.391 1_655 S
C504 H531 0.930 . S
C505 C501 1.387 . S
C505 C504 1.391 1_455 S
C506 Tb496 2.825 . S
C506 C500 1.507 . S
C506 O519 1.238 . S
C506 O520 1.247 . S
O507 Tb496 2.347 . S
O507 C511 1.259 . S
O508 Eu497 2.418 . S
O508 C511 1.265 . S
O509 Eu497 2.384 . S
O509 C518 1.255 . S
O510 Tb496 2.366 . S
O510 C518 1.265 . S
C511 O507 1.259 . S
C511 O508 1.265 . S
O512 Eu497 2.479 . S
O512 C527 1.238 . S
O513 Eu497 2.471 . S
O513 C527 1.247 . S
O514 Eu497 2.347 . S
O514 C498 1.259 . S
O515 Tb496 2.418 . S
O515 C498 1.265 . S
O516 Tb496 2.384 1_565 S
O516 C499 1.255 . S
O517 Eu497 2.366 . S
O517 C499 1.265 1_545 S
C518 O509 1.255 . S
C518 O510 1.265 . S
O519 Tb496 2.479 . S
O519 C506 1.238 . S
O520 Tb496 2.471 . S
O520 C506 1.247 . S
C521 C524 1.380 . S
C521 C525 1.374 . S
C521 C527 1.507 . S
C522 C523 1.387 . S
C522 C526 1.391 . S
C523 C522 1.387 . S
C523 C524 1.384 . S
C523 H532 0.930 . S
C524 C521 1.380 . S
C524 C523 1.384 . S
C524 H533 0.931 . S
C525 C521 1.374 . S
C525 C526 1.390 . S
C525 H534 0.930 . S
C526 C522 1.391 . S
C526 C525 1.390 . S
C526 H535 0.930 . S
C527 Eu497 2.825 . S
C527 O512 1.238 . S
C527 O513 1.247 . S
C527 C521 1.507 . S
H528 C501 0.930 . S
H529 C502 0.931 . S
H530 C503 0.930 1_655 S
H531 C504 0.930 . S
H532 C523 0.930 . S
H533 C524 0.931 . S
H534 C525 0.930 . S
H535 C526 0.930 . S
Tb536 C546 2.825 . S
Tb536 O547 2.347 . S
Tb536 O550 2.366 . S
Tb536 O555 2.418 . S
Tb536 O556 2.384 . S
Tb536 O559 2.479 . S
Tb536 O560 2.471 . S
Eu537 O548 2.418 . S
Eu537 O549 2.384 . S
Eu537 O552 2.479 . S
Eu537 O553 2.471 . S
Eu537 O554 2.347 . S
Eu537 O557 2.366 . S
Eu537 C567 2.825 . S
C538 O554 1.259 . S
C538 O555 1.265 . S
C539 O556 1.255 . S
C539 O557 1.265 . S
C540 C542 1.380 . S
C540 C543 1.374 . S
C540 C546 1.507 . S
C541 C542 1.384 . S
C541 C545 1.387 . S
C541 H568 0.930 . S
C542 C540 1.380 . S
C542 C541 1.384 . S
C542 H569 0.931 . S
C543 C540 1.374 . S
C543 C544 1.390 . S
C543 H570 0.930 . S
C544 C543 1.390 . S
C544 C545 1.391 . S
C544 H571 0.930 . S
C545 C541 1.387 . S
C545 C544 1.391 . S
C546 Tb536 2.825 . S
C546 C540 1.507 . S
C546 O559 1.238 . S
C546 O560 1.247 . S
O547 Tb536 2.347 . S
O547 C551 1.259 . S
O548 Eu537 2.418 . S
O548 C551 1.265 . S
O549 Eu537 2.384 . S
O549 C558 1.255 . S
O550 Tb536 2.366 . S
O550 C558 1.265 . S
C551 O547 1.259 . S
C551 O548 1.265 . S
O552 Eu537 2.479 . S
O552 C567 1.238 . S
O553 Eu537 2.471 . S
O553 C567 1.247 . S
O554 Eu537 2.347 . S
O554 C538 1.259 . S
O555 Tb536 2.418 . S
O555 C538 1.265 . S
O556 Tb536 2.384 . S
O556 C539 1.255 . S
O557 Eu537 2.366 . S
O557 C539 1.265 . S
C558 O549 1.255 . S
C558 O550 1.265 . S
O559 Tb536 2.479 . S
O559 C546 1.238 . S
O560 Tb536 2.471 . S
O560 C546 1.247 . S
C561 C564 1.380 . S
C561 C565 1.374 . S
C561 C567 1.507 . S
C562 C563 1.387 . S
C562 C566 1.391 . S
C563 C562 1.387 . S
C563 C564 1.384 . S
C563 H572 0.930 . S
C564 C561 1.380 . S
C564 C563 1.384 . S
C564 H573 0.931 . S
C565 C561 1.374 . S
C565 C566 1.390 . S
C565 H574 0.930 . S
C566 C562 1.391 . S
C566 C565 1.390 . S
C566 H575 0.930 . S
C567 Eu537 2.825 . S
C567 O552 1.238 . S
C567 O553 1.247 . S
C567 C561 1.507 . S
H568 C541 0.930 . S
H569 C542 0.931 . S
H570 C543 0.930 . S
H571 C544 0.930 . S
H572 C563 0.930 . S
H573 C564 0.931 . S
H574 C565 0.930 . S
H575 C566 0.930 . S
Tb576 C586 2.825 . S
Tb576 O587 2.347 . S
Tb576 O590 2.366 . S
Tb576 O595 2.418 1_545 S
Tb576 O596 2.384 . S
Tb576 O599 2.479 . S
Tb576 O600 2.471 . S
Eu577 O588 2.430 . S
Eu577 O589 2.406 . S
Eu577 O592 2.451 1_554 S
Eu577 O593 2.444 1_554 S
Eu577 O594 2.361 . S
Eu577 O597 2.368 . S
Eu577 C607 2.795 1_554 S
C578 O594 1.259 1_565 S
C578 O595 1.265 . S
C579 O596 1.255 . S
C579 O597 1.265 . S
C580 C582 1.377 . S
C580 C583 1.374 . S
C580 C586 1.507 . S
C581 C582 1.385 1_565 S
C581 C585 1.387 1_565 S
C581 H608 0.930 . S
C582 C580 1.377 . S
C582 C581 1.385 1_545 S
C582 H609 0.933 1_545 S
C583 C580 1.374 . S
C583 C584 1.390 . S
C583 H610 0.930 . S
C584 C583 1.390 . S
C584 C585 1.391 . S
C584 H611 0.930 . S
C585 C581 1.387 1_545 S
C585 C584 1.391 . S
C586 Tb576 2.825 . S
C586 C580 1.507 . S
C586 O599 1.238 . S
C586 O600 1.247 . S
O587 Tb576 2.347 . S
O587 C591 1.259 . S
O588 Eu577 2.430 . S
O588 C591 1.265 . S
O589 Eu577 2.406 . S
O589 C598 1.255 . S
O590 Tb576 2.366 . S
O590 C598 1.265 . S
C591 O587 1.259 . S
C591 O588 1.265 . S
O592 Eu577 2.451 1_556 S
O592 C607 1.238 . S
O593 Eu577 2.444 1_556 S
O593 C607 1.247 . S
O594 Eu577 2.361 . S
O594 C578 1.259 1_545 S
O595 Tb576 2.418 1_565 S
O595 C578 1.265 . S
O596 Tb576 2.384 . S
O596 C579 1.255 . S
O597 Eu577 2.368 . S
O597 C579 1.265 . S
C598 O589 1.255 . S
C598 O590 1.265 . S
O599 Tb576 2.479 . S
O599 C586 1.238 . S
O600 Tb576 2.471 . S
O600 C586 1.247 . S
C601 C604 1.380 . S
C601 C605 1.374 . S
C601 C607 1.507 . S
C602 C603 1.387 . S
C602 C606 1.391 . S
C603 C602 1.387 . S
C603 C604 1.384 . S
C603 H612 0.930 . S
C604 C601 1.380 . S
C604 C603 1.384 . S
C604 H613 0.931 . S
C605 C601 1.374 . S
C605 C606 1.390 . S
C605 H614 0.930 . S
C606 C602 1.391 . S
C606 C605 1.390 . S
C606 H615 0.930 . S
C607 Eu577 2.795 1_556 S
C607 O592 1.238 . S
C607 O593 1.247 . S
C607 C601 1.507 . S
H608 C581 0.930 . S
H609 C582 0.933 1_565 S
H610 C583 0.930 . S
H611 C584 0.930 . S
H612 C603 0.930 . S
H613 C604 0.931 . S
H614 C605 0.930 . S
H615 C606 0.930 . S
Tb616 C626 2.825 . S
Tb616 O627 2.347 . S
Tb616 O630 2.366 . S
Tb616 O635 2.418 . S
Tb616 O636 2.384 . S
Tb616 O639 2.479 . S
Tb616 O640 2.471 . S
Eu617 O628 2.418 . S
Eu617 O629 2.384 . S
Eu617 O632 2.479 . S
Eu617 O633 2.471 . S
Eu617 O634 2.347 . S
Eu617 O637 2.366 . S
Eu617 C647 2.825 . S
C618 O634 1.259 . S
C618 O635 1.265 . S
C619 O636 1.255 . S
C619 O637 1.265 . S
C620 C622 1.380 . S
C620 C623 1.374 . S
C620 C626 1.507 . S
C621 C622 1.384 . S
C621 C625 1.387 . S
C621 H648 0.930 . S
C622 C620 1.380 . S
C622 C621 1.384 . S
C622 H649 0.931 . S
C623 C620 1.374 . S
C623 C624 1.390 . S
C623 H650 0.930 . S
C624 C623 1.390 . S
C624 C625 1.391 . S
C624 H651 0.930 . S
C625 C621 1.387 . S
C625 C624 1.391 . S
C626 Tb616 2.825 . S
C626 C620 1.507 . S
C626 O639 1.238 . S
C626 O640 1.247 . S
O627 Tb616 2.347 . S
O627 C631 1.259 . S
O628 Eu617 2.418 . S
O628 C631 1.265 . S
O629 Eu617 2.384 . S
O629 C638 1.255 . S
O630 Tb616 2.366 . S
O630 C638 1.265 . S
C631 O627 1.259 . S
C631 O628 1.265 . S
O632 Eu617 2.479 . S
O632 C647 1.238 . S
O633 Eu617 2.471 . S
O633 C647 1.247 . S
O634 Eu617 2.347 . S
O634 C618 1.259 . S
O635 Tb616 2.418 . S
O635 C618 1.265 . S
O636 Tb616 2.384 . S
O636 C619 1.255 . S
O637 Eu617 2.366 . S
O637 C619 1.265 . S
C638 O629 1.255 . S
C638 O630 1.265 . S
O639 Tb616 2.479 . S
O639 C626 1.238 . S
O640 Tb616 2.471 . S
O640 C626 1.247 . S
C641 C644 1.380 . S
C641 C645 1.374 . S
C641 C647 1.507 . S
C642 C643 1.387 . S
C642 C646 1.391 . S
C643 C642 1.387 . S
C643 C644 1.384 . S
C643 H652 0.930 . S
C644 C641 1.380 . S
C644 C643 1.384 . S
C644 H653 0.931 . S
C645 C641 1.374 . S
C645 C646 1.390 . S
C645 H654 0.930 . S
C646 C642 1.391 . S
C646 C645 1.390 . S
C646 H655 0.930 . S
C647 Eu617 2.825 . S
C647 O632 1.238 . S
C647 O633 1.247 . S
C647 C641 1.507 . S
H648 C621 0.930 . S
H649 C622 0.931 . S
H650 C623 0.930 . S
H651 C624 0.930 . S
H652 C643 0.930 . S
H653 C644 0.931 . S
H654 C645 0.930 . S
H655 C646 0.930 . S
Tb656 C666 2.825 1_554 S
Tb656 O667 2.347 . S
Tb656 O670 2.366 . S
Tb656 O675 2.418 . S
Tb656 O676 2.384 . S
Tb656 O679 2.479 1_554 S
Tb656 O680 2.471 1_554 S
Eu657 O668 2.418 . S
Eu657 O669 2.384 . S
Eu657 O672 2.479 . S
Eu657 O673 2.471 . S
Eu657 O674 2.347 . S
Eu657 O677 2.366 . S
Eu657 C687 2.825 . S
C658 O674 1.259 . S
C658 O675 1.265 . S
C659 O676 1.255 . S
C659 O677 1.265 . S
C660 C662 1.380 . S
C660 C663 1.374 . S
C660 C666 1.507 . S
C661 C662 1.384 . S
C661 C665 1.387 . S
C661 H688 0.930 . S
C662 C660 1.380 . S
C662 C661 1.384 . S
C662 H689 0.931 . S
C663 C660 1.374 . S
C663 C664 1.390 . S
C663 H690 0.930 . S
C664 C663 1.390 . S
C664 C665 1.391 . S
C664 H691 0.930 . S
C665 C661 1.387 . S
C665 C664 1.391 . S
C666 Tb656 2.825 1_556 S
C666 C660 1.507 . S
C666 O679 1.238 . S
C666 O680 1.247 . S
O667 Tb656 2.347 . S
O667 C671 1.259 . S
O668 Eu657 2.418 . S
O668 C671 1.265 . S
O669 Eu657 2.384 . S
O669 C678 1.255 . S
O670 Tb656 2.366 . S
O670 C678 1.265 . S
C671 O667 1.259 . S
C671 O668 1.265 . S
O672 Eu657 2.479 . S
O672 C687 1.238 . S
O673 Eu657 2.471 . S
O673 C687 1.247 . S
O674 Eu657 2.347 . S
O674 C658 1.259 . S
O675 Tb656 2.418 . S
O675 C658 1.265 . S
O676 Tb656 2.384 . S
O676 C659 1.255 . S
O677 Eu657 2.366 . S
O677 C659 1.265 . S
C678 O669 1.255 . S
C678 O670 1.265 . S
O679 Tb656 2.479 1_556 S
O679 C666 1.238 . S
O680 Tb656 2.471 1_556 S
O680 C666 1.247 . S
C681 C684 1.380 . S
C681 C685 1.374 . S
C681 C687 1.507 . S
C682 C683 1.387 . S
C682 C686 1.391 . S
C683 C682 1.387 . S
C683 C684 1.384 . S
C683 H692 0.930 . S
C684 C681 1.380 . S
C684 C683 1.384 . S
C684 H693 0.931 . S
C685 C681 1.374 . S
C685 C686 1.390 . S
C685 H694 0.930 . S
C686 C682 1.391 . S
C686 C685 1.390 . S
C686 H695 0.930 . S
C687 Eu657 2.825 . S
C687 O672 1.238 . S
C687 O673 1.247 . S
C687 C681 1.507 . S
H688 C661 0.930 . S
H689 C662 0.931 . S
H690 C663 0.930 . S
H691 C664 0.930 . S
H692 C683 0.930 . S
H693 C684 0.931 . S
H694 C685 0.930 . S
H695 C686 0.930 . S
Tb696 C706 2.825 . S
Tb696 O707 2.347 . S
Tb696 O710 2.366 . S
Tb696 O715 2.418 . S
Tb696 O716 2.384 . S
Tb696 O719 2.479 . S
Tb696 O720 2.471 . S
Eu697 O708 2.418 . S
Eu697 O709 2.384 . S
Eu697 O712 2.479 . S
Eu697 O713 2.471 . S
Eu697 O714 2.347 . S
Eu697 O717 2.366 . S
Eu697 C727 2.825 . S
C698 O714 1.259 . S
C698 O715 1.265 . S
C699 O716 1.255 . S
C699 O717 1.265 . S
C700 C702 1.380 . S
C700 C703 1.374 . S
C700 C706 1.507 . S
C701 C702 1.384 . S
C701 C705 1.387 . S
C701 H728 0.930 . S
C702 C700 1.380 . S
C702 C701 1.384 . S
C702 H729 0.931 . S
C703 C700 1.374 . S
C703 C704 1.390 . S
C703 H730 0.930 . S
C704 C703 1.390 . S
C704 C705 1.391 . S
C704 H731 0.930 . S
C705 C701 1.387 . S
C705 C704 1.391 . S
C706 Tb696 2.825 . S
C706 C700 1.507 . S
C706 O719 1.238 . S
C706 O720 1.247 . S
O707 Tb696 2.347 . S
O707 C711 1.259 . S
O708 Eu697 2.418 . S
O708 C711 1.265 . S
O709 Eu697 2.384 . S
O709 C718 1.255 . S
O710 Tb696 2.366 . S
O710 C718 1.265 . S
C711 O707 1.259 . S
C711 O708 1.265 . S
O712 Eu697 2.479 . S
O712 C727 1.238 . S
O713 Eu697 2.471 . S
O713 C727 1.247 . S
O714 Eu697 2.347 . S
O714 C698 1.259 . S
O715 Tb696 2.418 . S
O715 C698 1.265 . S
O716 Tb696 2.384 . S
O716 C699 1.255 . S
O717 Eu697 2.366 . S
O717 C699 1.265 . S
C718 O709 1.255 . S
C718 O710 1.265 . S
O719 Tb696 2.479 . S
O719 C706 1.238 . S
O720 Tb696 2.471 . S
O720 C706 1.247 . S
C721 C724 1.380 . S
C721 C725 1.374 . S
C721 C727 1.507 . S
C722 C723 1.387 . S
C722 C726 1.391 . S
C723 C722 1.387 . S
C723 C724 1.384 . S
C723 H732 0.930 . S
C724 C721 1.380 . S
C724 C723 1.384 . S
C724 H733 0.931 . S
C725 C721 1.374 . S
C725 C726 1.390 . S
C725 H734 0.930 . S
C726 C722 1.391 . S
C726 C725 1.390 . S
C726 H735 0.930 . S
C727 Eu697 2.825 . S
C727 O712 1.238 . S
C727 O713 1.247 . S
C727 C721 1.507 . S
H728 C701 0.930 . S
H729 C702 0.931 . S
H730 C703 0.930 . S
H731 C704 0.930 . S
H732 C723 0.930 . S
H733 C724 0.931 . S
H734 C725 0.930 . S
H735 C726 0.930 . S
Tb736 C746 2.825 . S
Tb736 O747 2.347 . S
Tb736 O750 2.366 . S
Tb736 O755 2.418 . S
Tb736 O756 2.384 . S
Tb736 O759 2.479 . S
Tb736 O760 2.471 . S
Eu737 O748 2.418 . S
Eu737 O749 2.384 1_455 S
Eu737 O752 2.479 . S
Eu737 O753 2.471 . S
Eu737 O754 2.347 . S
Eu737 O757 2.366 . S
Eu737 C767 2.825 . S
C738 O754 1.259 . S
C738 O755 1.265 . S
C739 O756 1.255 . S
C739 O757 1.265 . S
C740 C742 1.380 . S
C740 C743 1.374 . S
C740 C746 1.507 . S
C741 C742 1.384 . S
C741 C745 1.387 . S
C741 H768 0.930 . S
C742 C740 1.380 . S
C742 C741 1.384 . S
C742 H769 0.931 . S
C743 C740 1.374 . S
C743 C744 1.390 . S
C743 H770 0.930 . S
C744 C743 1.390 . S
C744 C745 1.391 . S
C744 H771 0.930 1_455 S
C745 C741 1.387 . S
C745 C744 1.391 . S
C746 Tb736 2.825 . S
C746 C740 1.507 . S
C746 O759 1.238 . S
C746 O760 1.247 . S
O747 Tb736 2.347 . S
O747 C751 1.259 . S
O748 Eu737 2.418 . S
O748 C751 1.265 . S
O749 Eu737 2.384 1_655 S
O749 C758 1.255 . S
O750 Tb736 2.366 . S
O750 C758 1.265 1_455 S
C751 O747 1.259 . S
C751 O748 1.265 . S
O752 Eu737 2.479 . S
O752 C767 1.238 . S
O753 Eu737 2.471 . S
O753 C767 1.247 . S
O754 Eu737 2.347 . S
O754 C738 1.259 . S
O755 Tb736 2.418 . S
O755 C738 1.265 . S
O756 Tb736 2.384 . S
O756 C739 1.255 . S
O757 Eu737 2.366 . S
O757 C739 1.265 . S
C758 O749 1.255 . S
C758 O750 1.265 1_655 S
O759 Tb736 2.479 . S
O759 C746 1.238 . S
O760 Tb736 2.471 . S
O760 C746 1.247 . S
C761 C764 1.380 . S
C761 C765 1.374 . S
C761 C767 1.507 . S
C762 C763 1.387 . S
C762 C766 1.391 . S
C763 C762 1.387 . S
C763 C764 1.384 . S
C763 H772 0.930 . S
C764 C761 1.380 . S
C764 C763 1.384 . S
C764 H773 0.931 . S
C765 C761 1.374 . S
C765 C766 1.390 . S
C765 H774 0.930 . S
C766 C762 1.391 . S
C766 C765 1.390 . S
C766 H775 0.930 . S
C767 Eu737 2.825 . S
C767 O752 1.238 . S
C767 O753 1.247 . S
C767 C761 1.507 . S
H768 C741 0.930 . S
H769 C742 0.931 . S
H770 C743 0.930 . S
H771 C744 0.930 1_655 S
H772 C763 0.930 . S
H773 C764 0.931 . S
H774 C765 0.930 . S
H775 C766 0.930 . S
Tb776 C786 2.825 . S
Tb776 O787 2.347 . S
Tb776 O790 2.366 . S
Tb776 O795 2.418 . S
Tb776 O796 2.384 . S
Tb776 O799 2.479 . S
Tb776 O800 2.471 . S
Eu777 O788 2.418 . S
Eu777 O789 2.384 . S
Eu777 O792 2.479 . S
Eu777 O793 2.471 . S
Eu777 O794 2.347 . S
Eu777 O797 2.366 . S
Eu777 C807 2.825 . S
C778 O794 1.259 . S
C778 O795 1.265 . S
C779 O796 1.255 . S
C779 O797 1.265 . S
C780 C782 1.380 . S
C780 C783 1.374 . S
C780 C786 1.507 . S
C781 C782 1.384 . S
C781 C785 1.387 . S
C781 H808 0.930 . S
C782 C780 1.380 . S
C782 C781 1.384 . S
C782 H809 0.931 . S
C783 C780 1.374 . S
C783 C784 1.390 . S
C783 H810 0.930 . S
C784 C783 1.390 . S
C784 C785 1.391 . S
C784 H811 0.930 . S
C785 C781 1.387 . S
C785 C784 1.391 . S
C786 Tb776 2.825 . S
C786 C780 1.507 . S
C786 O799 1.238 . S
C786 O800 1.247 . S
O787 Tb776 2.347 . S
O787 C791 1.259 . S
O788 Eu777 2.418 . S
O788 C791 1.265 . S
O789 Eu777 2.384 . S
O789 C798 1.255 . S
O790 Tb776 2.366 . S
O790 C798 1.265 . S
C791 O787 1.259 . S
C791 O788 1.265 . S
O792 Eu777 2.479 . S
O792 C807 1.238 . S
O793 Eu777 2.471 . S
O793 C807 1.247 . S
O794 Eu777 2.347 . S
O794 C778 1.259 . S
O795 Tb776 2.418 . S
O795 C778 1.265 . S
O796 Tb776 2.384 . S
O796 C779 1.255 . S
O797 Eu777 2.366 . S
O797 C779 1.265 . S
C798 O789 1.255 . S
C798 O790 1.265 . S
O799 Tb776 2.479 . S
O799 C786 1.238 . S
O800 Tb776 2.471 . S
O800 C786 1.247 . S
C801 C804 1.380 . S
C801 C805 1.374 . S
C801 C807 1.507 . S
C802 C803 1.387 . S
C802 C806 1.391 . S
C803 C802 1.387 . S
C803 C804 1.384 . S
C803 H812 0.930 . S
C804 C801 1.380 . S
C804 C803 1.384 . S
C804 H813 0.931 . S
C805 C801 1.374 . S
C805 C806 1.390 . S
C805 H814 0.930 . S
C806 C802 1.391 . S
C806 C805 1.390 . S
C806 H815 0.930 . S
C807 Eu777 2.825 . S
C807 O792 1.238 . S
C807 O793 1.247 . S
C807 C801 1.507 . S
H808 C781 0.930 . S
H809 C782 0.931 . S
H810 C783 0.930 . S
H811 C784 0.930 . S
H812 C803 0.930 . S
H813 C804 0.931 . S
H814 C805 0.930 . S
H815 C806 0.930 . S
Tb816 C826 2.825 . S
Tb816 O827 2.347 . S
Tb816 O830 2.366 . S
Tb816 O835 2.418 . S
Tb816 O836 2.384 . S
Tb816 O839 2.479 . S
Tb816 O840 2.471 . S
Eu817 O828 2.418 . S
Eu817 O829 2.384 . S
Eu817 O832 2.479 . S
Eu817 O833 2.471 . S
Eu817 O834 2.347 . S
Eu817 O837 2.366 . S
Eu817 C847 2.825 . S
C818 O834 1.259 . S
C818 O835 1.265 . S
C819 O836 1.255 . S
C819 O837 1.265 . S
C820 C822 1.380 . S
C820 C823 1.374 . S
C820 C826 1.507 . S
C821 C822 1.384 . S
C821 C825 1.387 . S
C821 H848 0.930 . S
C822 C820 1.380 . S
C822 C821 1.384 . S
C822 H849 0.931 . S
C823 C820 1.374 . S
C823 C824 1.390 . S
C823 H850 0.930 . S
C824 C823 1.390 . S
C824 C825 1.391 . S
C824 H851 0.930 . S
C825 C821 1.387 . S
C825 C824 1.391 . S
C826 Tb816 2.825 . S
C826 C820 1.507 . S
C826 O839 1.238 . S
C826 O840 1.247 . S
O827 Tb816 2.347 . S
O827 C831 1.259 . S
O828 Eu817 2.418 . S
O828 C831 1.265 . S
O829 Eu817 2.384 . S
O829 C838 1.255 . S
O830 Tb816 2.366 . S
O830 C838 1.265 . S
C831 O827 1.259 . S
C831 O828 1.265 . S
O832 Eu817 2.479 . S
O832 C847 1.238 . S
O833 Eu817 2.471 . S
O833 C847 1.247 . S
O834 Eu817 2.347 . S
O834 C818 1.259 . S
O835 Tb816 2.418 . S
O835 C818 1.265 . S
O836 Tb816 2.384 . S
O836 C819 1.255 . S
O837 Eu817 2.366 . S
O837 C819 1.265 . S
C838 O829 1.255 . S
C838 O830 1.265 . S
O839 Tb816 2.479 . S
O839 C826 1.238 . S
O840 Tb816 2.471 . S
O840 C826 1.247 . S
C841 C844 1.380 . S
C841 C845 1.374 . S
C841 C847 1.507 . S
C842 C843 1.387 . S
C842 C846 1.391 . S
C843 C842 1.387 . S
C843 C844 1.384 . S
C843 H852 0.930 . S
C844 C841 1.380 . S
C844 C843 1.384 . S
C844 H853 0.931 . S
C845 C841 1.374 . S
C845 C846 1.390 . S
C845 H854 0.930 . S
C846 C842 1.391 . S
C846 C845 1.390 . S
C846 H855 0.930 . S
C847 Eu817 2.825 . S
C847 O832 1.238 . S
C847 O833 1.247 . S
C847 C841 1.507 . S
H848 C821 0.930 . S
H849 C822 0.931 . S
H850 C823 0.930 . S
H851 C824 0.930 . S
H852 C843 0.930 . S
H853 C844 0.931 . S
H854 C845 0.930 . S
H855 C846 0.930 . S
Tb856 C866 2.825 . S
Tb856 O867 2.347 . S
Tb856 O870 2.366 . S
Tb856 O875 2.418 . S
Tb856 O876 2.384 . S
Tb856 O879 2.479 . S
Tb856 O880 2.471 . S
Eu857 O868 2.418 . S
Eu857 O869 2.384 . S
Eu857 O872 2.479 . S
Eu857 O873 2.471 . S
Eu857 O874 2.347 . S
Eu857 O877 2.366 . S
Eu857 C887 2.825 . S
C858 O874 1.259 . S
C858 O875 1.265 . S
C859 O876 1.255 . S
C859 O877 1.265 . S
C860 C862 1.380 . S
C860 C863 1.374 . S
C860 C866 1.507 . S
C861 C862 1.384 . S
C861 C865 1.387 . S
C861 H888 0.930 . S
C862 C860 1.380 . S
C862 C861 1.384 . S
C862 H889 0.931 . S
C863 C860 1.374 . S
C863 C864 1.390 . S
C863 H890 0.930 . S
C864 C863 1.390 . S
C864 C865 1.391 . S
C864 H891 0.930 . S
C865 C861 1.387 . S
C865 C864 1.391 . S
C866 Tb856 2.825 . S
C866 C860 1.507 . S
C866 O879 1.238 . S
C866 O880 1.247 . S
O867 Tb856 2.347 . S
O867 C871 1.259 . S
O868 Eu857 2.418 . S
O868 C871 1.265 . S
O869 Eu857 2.384 . S
O869 C878 1.255 . S
O870 Tb856 2.366 . S
O870 C878 1.265 . S
C871 O867 1.259 . S
C871 O868 1.265 . S
O872 Eu857 2.479 . S
O872 C887 1.238 . S
O873 Eu857 2.471 . S
O873 C887 1.247 . S
O874 Eu857 2.347 . S
O874 C858 1.259 . S
O875 Tb856 2.418 . S
O875 C858 1.265 . S
O876 Tb856 2.384 . S
O876 C859 1.255 . S
O877 Eu857 2.366 . S
O877 C859 1.265 . S
C878 O869 1.255 . S
C878 O870 1.265 . S
O879 Tb856 2.479 . S
O879 C866 1.238 . S
O880 Tb856 2.471 . S
O880 C866 1.247 . S
C881 C884 1.380 . S
C881 C885 1.374 . S
C881 C887 1.507 . S
C882 C883 1.387 . S
C882 C886 1.391 . S
C883 C882 1.387 . S
C883 C884 1.384 . S
C883 H892 0.930 . S
C884 C881 1.380 . S
C884 C883 1.384 . S
C884 H893 0.931 . S
C885 C881 1.374 . S
C885 C886 1.390 . S
C885 H894 0.930 . S
C886 C882 1.391 . S
C886 C885 1.390 . S
C886 H895 0.930 . S
C887 Eu857 2.825 . S
C887 O872 1.238 . S
C887 O873 1.247 . S
C887 C881 1.507 . S
H888 C861 0.930 . S
H889 C862 0.931 . S
H890 C863 0.930 . S
H891 C864 0.930 . S
H892 C883 0.930 . S
H893 C884 0.931 . S
H894 C885 0.930 . S
H895 C886 0.930 . S
Tb896 C906 2.825 . S
Tb896 O907 2.347 . S
Tb896 O910 2.366 . S
Tb896 O915 2.418 . S
Tb896 O916 2.384 . S
Tb896 O919 2.479 . S
Tb896 O920 2.471 . S
Eu897 O908 2.418 . S
Eu897 O909 2.384 . S
Eu897 O912 2.479 . S
Eu897 O913 2.471 . S
Eu897 O914 2.347 . S
Eu897 O917 2.366 . S
Eu897 C927 2.825 . S
C898 O914 1.259 . S
C898 O915 1.265 . S
C899 O916 1.255 . S
C899 O917 1.265 . S
C900 C902 1.380 . S
C900 C903 1.374 . S
C900 C906 1.507 . S
C901 C902 1.384 . S
C901 C905 1.387 . S
C901 H928 0.930 . S
C902 C900 1.380 . S
C902 C901 1.384 . S
C902 H929 0.931 . S
C903 C900 1.374 . S
C903 C904 1.390 . S
C903 H930 0.930 . S
C904 C903 1.390 . S
C904 C905 1.391 . S
C904 H931 0.930 . S
C905 C901 1.387 . S
C905 C904 1.391 . S
C906 Tb896 2.825 . S
C906 C900 1.507 . S
C906 O919 1.238 . S
C906 O920 1.247 . S
O907 Tb896 2.347 . S
O907 C911 1.259 . S
O908 Eu897 2.418 . S
O908 C911 1.265 . S
O909 Eu897 2.384 . S
O909 C918 1.255 . S
O910 Tb896 2.366 . S
O910 C918 1.265 . S
C911 O907 1.259 . S
C911 O908 1.265 . S
O912 Eu897 2.479 . S
O912 C927 1.238 . S
O913 Eu897 2.471 . S
O913 C927 1.247 . S
O914 Eu897 2.347 . S
O914 C898 1.259 . S
O915 Tb896 2.418 . S
O915 C898 1.265 . S
O916 Tb896 2.384 . S
O916 C899 1.255 . S
O917 Eu897 2.366 . S
O917 C899 1.265 . S
C918 O909 1.255 . S
C918 O910 1.265 . S
O919 Tb896 2.479 . S
O919 C906 1.238 . S
O920 Tb896 2.471 . S
O920 C906 1.247 . S
C921 C924 1.380 . S
C921 C925 1.374 . S
C921 C927 1.507 . S
C922 C923 1.387 . S
C922 C926 1.391 . S
C923 C922 1.387 . S
C923 C924 1.384 . S
C923 H932 0.930 . S
C924 C921 1.380 . S
C924 C923 1.384 . S
C924 H933 0.931 . S
C925 C921 1.374 . S
C925 C926 1.390 . S
C925 H934 0.930 . S
C926 C922 1.391 . S
C926 C925 1.390 . S
C926 H935 0.930 . S
C927 Eu897 2.825 . S
C927 O912 1.238 . S
C927 O913 1.247 . S
C927 C921 1.507 . S
H928 C901 0.930 . S
H929 C902 0.931 . S
H930 C903 0.930 . S
H931 C904 0.930 . S
H932 C923 0.930 . S
H933 C924 0.931 . S
H934 C925 0.930 . S
H935 C926 0.930 . S
Tb936 C946 2.825 . S
Tb936 O947 2.347 . S
Tb936 O950 2.366 . S
Tb936 O955 2.418 . S
Tb936 O956 2.384 . S
Tb936 O959 2.479 . S
Tb936 O960 2.471 . S
Eu937 O948 2.418 . S
Eu937 O949 2.384 . S
Eu937 O952 2.479 . S
Eu937 O953 2.471 . S
Eu937 O954 2.347 . S
Eu937 O957 2.366 . S
Eu937 C967 2.825 . S
C938 O954 1.259 . S
C938 O955 1.265 . S
C939 O956 1.255 . S
C939 O957 1.265 . S
C940 C942 1.380 . S
C940 C943 1.374 1_554 S
C940 C946 1.507 . S
C941 C942 1.384 . S
C941 C945 1.387 1_554 S
C941 H968 0.930 . S
C942 C940 1.380 . S
C942 C941 1.384 . S
C942 H969 0.931 . S
C943 C940 1.374 1_556 S
C943 C944 1.390 . S
C943 H970 0.930 . S
C944 C943 1.390 . S
C944 C945 1.391 . S
C944 H971 0.930 . S
C945 C941 1.387 1_556 S
C945 C944 1.391 . S
C946 Tb936 2.825 . S
C946 C940 1.507 . S
C946 O959 1.238 . S
C946 O960 1.247 . S
O947 Tb936 2.347 . S
O947 C951 1.259 . S
O948 Eu937 2.418 . S
O948 C951 1.265 . S
O949 Eu937 2.384 . S
O949 C958 1.255 . S
O950 Tb936 2.366 . S
O950 C958 1.265 . S
C951 O947 1.259 . S
C951 O948 1.265 . S
O952 Eu937 2.479 . S
O952 C967 1.238 . S
O953 Eu937 2.471 . S
O953 C967 1.247 . S
O954 Eu937 2.347 . S
O954 C938 1.259 . S
O955 Tb936 2.418 . S
O955 C938 1.265 . S
O956 Tb936 2.384 . S
O956 C939 1.255 . S
O957 Eu937 2.366 . S
O957 C939 1.265 . S
C958 O949 1.255 . S
C958 O950 1.265 . S
O959 Tb936 2.479 . S
O959 C946 1.238 . S
O960 Tb936 2.471 . S
O960 C946 1.247 . S
C961 C964 1.380 . S
C961 C965 1.374 . S
C961 C967 1.507 . S
C962 C963 1.387 . S
C962 C966 1.391 . S
C963 C962 1.387 . S
C963 C964 1.384 . S
C963 H972 0.930 . S
C964 C961 1.380 . S
C964 C963 1.384 . S
C964 H973 0.931 . S
C965 C961 1.374 . S
C965 C966 1.390 . S
C965 H974 0.930 . S
C966 C962 1.391 . S
C966 C965 1.390 . S
C966 H975 0.930 . S
C967 Eu937 2.825 . S
C967 O952 1.238 . S
C967 O953 1.247 . S
C967 C961 1.507 . S
H968 C941 0.930 . S
H969 C942 0.931 . S
H970 C943 0.930 . S
H971 C944 0.930 . S
H972 C963 0.930 . S
H973 C964 0.931 . S
H974 C965 0.930 . S
H975 C966 0.930 . S
H976 C988 0.930 . S
H977 C990 0.930 . S
H978 C991 0.930 . S
H979 C995 0.959 . S
H980 C995 0.959 1_554 S
H981 C995 0.961 . S
H982 C996 0.956 1_556 S
H983 C996 0.961 . S
H984 C996 0.959 1_655 S
H985 C999 0.929 . S
H986 C1000 0.931 . S
H987 C1002 0.930 . S
C988 H976 0.930 . S
C988 C989 1.399 1_455 S
C988 C993 1.399 . S
C989 C988 1.399 1_655 S
C989 C990 1.376 . S
C990 H977 0.930 . S
C990 C989 1.376 . S
C990 C991 1.388 . S
C991 H978 0.930 . S
C991 C990 1.388 . S
C991 C992 1.390 1_655 S
C992 C991 1.390 1_455 S
C992 C993 1.394 . S
C992 C998 1.465 . S
C993 C988 1.399 . S
C993 C992 1.394 . S
C993 C994 1.516 . S
C994 C993 1.516 . S
C994 C995 1.502 . S
C994 C996 1.561 1_556 S
C994 C997 1.526 . S
C995 H979 0.959 . S
C995 H980 0.959 1_556 S
C995 H981 0.961 . S
C995 C994 1.502 . S
C996 H982 0.956 1_554 S
C996 H983 0.961 . S
C996 H984 0.959 1_455 S
C996 C994 1.561 1_554 S
C997 C994 1.526 . S
C997 C998 1.396 . S
C997 C1002 1.390 1_556 S
C998 C992 1.465 . S
C998 C997 1.396 . S
C998 C999 1.399 . S
C999 H985 0.929 . S
C999 C998 1.399 . S
C999 C1000 1.385 . S
C1000 H986 0.931 . S
C1000 C999 1.385 . S
C1000 C1001 1.389 1_556 S
C1001 C1000 1.389 1_554 S
C1001 C1002 1.387 . S
C1002 H987 0.930 . S
C1002 C997 1.390 1_554 S
C1002 C1001 1.387 . S
H1003 C1015 0.930 . S
H1004 C1017 0.930 . S
H1005 C1018 0.930 . S
H1006 C1022 0.959 . S
H1007 C1022 0.959 . S
H1008 C1022 0.961 . S
H1009 C1023 0.960 . S
H1010 C1023 0.961 . S
H1011 C1023 0.959 . S
H1012 C1026 0.929 . S
H1013 C1027 0.931 . S
H1014 C1029 0.930 . S
C1015 H1003 0.930 . S
C1015 C1016 1.399 . S
C1015 C1020 1.399 . S
C1016 C1015 1.399 . S
C1016 C1017 1.376 . S
C1017 H1004 0.930 . S
C1017 C1016 1.376 . S
C1017 C1018 1.388 . S
C1018 H1005 0.930 . S
C1018 C1017 1.388 . S
C1018 C1019 1.390 . S
C1019 C1018 1.390 . S
C1019 C1020 1.394 . S
C1019 C1025 1.465 . S
C1020 C1015 1.399 . S
C1020 C1019 1.394 . S
C1020 C1021 1.516 . S
C1021 C1020 1.516 . S
C1021 C1022 1.502 . S
C1021 C1023 1.561 . S
C1021 C1024 1.526 . S
C1022 H1006 0.959 . S
C1022 H1007 0.959 . S
C1022 H1008 0.961 . S
C1022 C1021 1.502 . S
C1023 H1009 0.960 . S
C1023 H1010 0.961 . S
C1023 H1011 0.959 . S
C1023 C1021 1.561 . S
C1024 C1021 1.526 . S
C1024 C1025 1.396 . S
C1024 C1029 1.390 . S
C1025 C1019 1.465 . S
C1025 C1024 1.396 . S
C1025 C1026 1.399 . S
C1026 H1012 0.929 . S
C1026 C1025 1.399 . S
C1026 C1027 1.385 . S
C1027 H1013 0.931 . S
C1027 C1026 1.385 . S
C1027 C1028 1.389 . S
C1028 C1027 1.389 . S
C1028 C1029 1.387 . S
C1029 H1014 0.930 . S
C1029 C1024 1.390 . S
C1029 C1028 1.387 . S
H1030 C1042 0.930 . S
H1031 C1044 0.930 . S
H1032 C1045 0.930 . S
H1033 C1049 0.959 . S
H1034 C1049 0.959 . S
H1035 C1049 0.961 . S
H1036 C1050 0.960 . S
H1037 C1050 0.961 . S
H1038 C1050 0.959 . S
H1039 C1053 0.929 . S
H1040 C1054 0.931 . S
H1041 C1056 0.930 . S
C1042 H1030 0.930 . S
C1042 C1043 1.399 . S
C1042 C1047 1.399 . S
C1043 C1042 1.399 . S
C1043 C1044 1.376 . S
C1044 H1031 0.930 . S
C1044 C1043 1.376 . S
C1044 C1045 1.388 . S
C1045 H1032 0.930 . S
C1045 C1044 1.388 . S
C1045 C1046 1.390 . S
C1046 C1045 1.390 . S
C1046 C1047 1.394 . S
C1046 C1052 1.465 . S
C1047 C1042 1.399 . S
C1047 C1046 1.394 . S
C1047 C1048 1.516 . S
C1048 C1047 1.516 . S
C1048 C1049 1.502 . S
C1048 C1050 1.561 . S
C1048 C1051 1.526 . S
C1049 H1033 0.959 . S
C1049 H1034 0.959 . S
C1049 H1035 0.961 . S
C1049 C1048 1.502 . S
C1050 H1036 0.960 . S
C1050 H1037 0.961 . S
C1050 H1038 0.959 . S
C1050 C1048 1.561 . S
C1051 C1048 1.526 . S
C1051 C1052 1.396 . S
C1051 C1056 1.390 . S
C1052 C1046 1.465 . S
C1052 C1051 1.396 . S
C1052 C1053 1.399 . S
C1053 H1039 0.929 . S
C1053 C1052 1.399 . S
C1053 C1054 1.385 . S
C1054 H1040 0.931 . S
C1054 C1053 1.385 . S
C1054 C1055 1.389 . S
C1055 C1054 1.389 . S
C1055 C1056 1.387 . S
C1056 H1041 0.930 . S
C1056 C1051 1.390 . S
C1056 C1055 1.387 . S
H1057 C1069 0.930 . S
H1058 C1071 0.930 . S
H1059 C1072 0.930 . S
H1060 C1076 0.959 . S
H1061 C1076 0.959 . S
H1062 C1076 0.961 . S
H1063 C1077 0.960 . S
H1064 C1077 0.961 . S
H1065 C1077 0.959 . S
H1066 C1080 0.929 . S
H1067 C1081 0.931 . S
H1068 C1083 0.930 . S
C1069 H1057 0.930 . S
C1069 C1070 1.399 . S
C1069 C1074 1.399 . S
C1070 C1069 1.399 . S
C1070 C1071 1.376 . S
C1071 H1058 0.930 . S
C1071 C1070 1.376 . S
C1071 C1072 1.388 . S
C1072 H1059 0.930 . S
C1072 C1071 1.388 . S
C1072 C1073 1.390 . S
C1073 C1072 1.390 . S
C1073 C1074 1.394 . S
C1073 C1079 1.465 . S
C1074 C1069 1.399 . S
C1074 C1073 1.394 . S
C1074 C1075 1.516 . S
C1075 C1074 1.516 . S
C1075 C1076 1.502 . S
C1075 C1077 1.561 . S
C1075 C1078 1.526 . S
C1076 H1060 0.959 . S
C1076 H1061 0.959 . S
C1076 H1062 0.961 . S
C1076 C1075 1.502 . S
C1077 H1063 0.960 . S
C1077 H1064 0.961 . S
C1077 H1065 0.959 . S
C1077 C1075 1.561 . S
C1078 C1075 1.526 . S
C1078 C1079 1.396 . S
C1078 C1083 1.390 . S
C1079 C1073 1.465 . S
C1079 C1078 1.396 . S
C1079 C1080 1.399 . S
C1080 H1066 0.929 . S
C1080 C1079 1.399 . S
C1080 C1081 1.385 . S
C1081 H1067 0.931 . S
C1081 C1080 1.385 . S
C1081 C1082 1.389 . S
C1082 C1081 1.389 . S
C1082 C1083 1.387 . S
C1083 H1068 0.930 . S
C1083 C1078 1.390 . S
C1083 C1082 1.387 . S
H1084 C1096 0.930 . S
H1085 C1098 0.930 . S
H1086 C1099 0.930 . S
H1087 C1103 0.959 . S
H1088 C1103 0.959 . S
H1089 C1103 0.961 . S
H1090 C1104 0.960 . S
H1091 C1104 0.961 . S
H1092 C1104 0.959 . S
H1093 C1107 0.929 . S
H1094 C1108 0.931 . S
H1095 C1110 0.930 . S
C1096 H1084 0.930 . S
C1096 C1097 1.399 . S
C1096 C1101 1.399 . S
C1097 C1096 1.399 . S
C1097 C1098 1.376 . S
C1098 H1085 0.930 . S
C1098 C1097 1.376 . S
C1098 C1099 1.388 . S
C1099 H1086 0.930 . S
C1099 C1098 1.388 . S
C1099 C1100 1.390 . S
C1100 C1099 1.390 . S
C1100 C1101 1.394 . S
C1100 C1106 1.465 . S
C1101 C1096 1.399 . S
C1101 C1100 1.394 . S
C1101 C1102 1.516 . S
C1102 C1101 1.516 . S
C1102 C1103 1.502 . S
C1102 C1104 1.561 . S
C1102 C1105 1.526 . S
C1103 H1087 0.959 . S
C1103 H1088 0.959 . S
C1103 H1089 0.961 . S
C1103 C1102 1.502 . S
C1104 H1090 0.960 . S
C1104 H1091 0.961 . S
C1104 H1092 0.959 . S
C1104 C1102 1.561 . S
C1105 C1102 1.526 . S
C1105 C1106 1.396 . S
C1105 C1110 1.390 . S
C1106 C1100 1.465 . S
C1106 C1105 1.396 . S
C1106 C1107 1.399 . S
C1107 H1093 0.929 . S
C1107 C1106 1.399 . S
C1107 C1108 1.385 . S
C1108 H1094 0.931 . S
C1108 C1107 1.385 . S
C1108 C1109 1.389 . S
C1109 C1108 1.389 . S
C1109 C1110 1.387 . S
C1110 H1095 0.930 . S
C1110 C1105 1.390 . S
C1110 C1109 1.387 . S
H1111 C1123 0.930 . S
H1112 C1125 0.930 . S
H1113 C1126 0.930 . S
H1114 C1130 0.959 . S
H1115 C1130 0.959 . S
H1116 C1130 0.961 . S
H1117 C1131 0.960 . S
H1118 C1131 0.961 . S
H1119 C1131 0.959 . S
H1120 C1134 0.929 . S
H1121 C1135 0.931 . S
H1122 C1137 0.930 . S
C1123 H1111 0.930 . S
C1123 C1124 1.399 . S
C1123 C1128 1.399 . S
C1124 C1123 1.399 . S
C1124 C1125 1.376 . S
C1125 H1112 0.930 . S
C1125 C1124 1.376 . S
C1125 C1126 1.388 . S
C1126 H1113 0.930 . S
C1126 C1125 1.388 . S
C1126 C1127 1.390 . S
C1127 C1126 1.390 . S
C1127 C1128 1.394 . S
C1127 C1133 1.465 . S
C1128 C1123 1.399 . S
C1128 C1127 1.394 . S
C1128 C1129 1.516 . S
C1129 C1128 1.516 . S
C1129 C1130 1.502 . S
C1129 C1131 1.561 . S
C1129 C1132 1.526 . S
C1130 H1114 0.959 . S
C1130 H1115 0.959 . S
C1130 H1116 0.961 . S
C1130 C1129 1.502 . S
C1131 H1117 0.960 . S
C1131 H1118 0.961 . S
C1131 H1119 0.959 . S
C1131 C1129 1.561 . S
C1132 C1129 1.526 . S
C1132 C1133 1.396 . S
C1132 C1137 1.390 . S
C1133 C1127 1.465 . S
C1133 C1132 1.396 . S
C1133 C1134 1.399 . S
C1134 H1120 0.929 . S
C1134 C1133 1.399 . S
C1134 C1135 1.385 . S
C1135 H1121 0.931 . S
C1135 C1134 1.385 . S
C1135 C1136 1.389 . S
C1136 C1135 1.389 . S
C1136 C1137 1.387 . S
C1137 H1122 0.930 . S
C1137 C1132 1.390 . S
C1137 C1136 1.387 . S
H1138 C1150 0.930 . S
H1139 C1152 0.930 . S
H1140 C1153 0.930 . S
H1141 C1157 0.959 . S
H1142 C1157 0.959 . S
H1143 C1157 0.961 . S
H1144 C1158 0.960 . S
H1145 C1158 0.961 . S
H1146 C1158 0.959 . S
H1147 C1161 0.929 . S
H1148 C1162 0.931 . S
H1149 C1164 0.930 . S
C1150 H1138 0.930 . S
C1150 C1151 1.399 . S
C1150 C1155 1.399 . S
C1151 C1150 1.399 . S
C1151 C1152 1.376 . S
C1152 H1139 0.930 . S
C1152 C1151 1.376 . S
C1152 C1153 1.388 . S
C1153 H1140 0.930 . S
C1153 C1152 1.388 . S
C1153 C1154 1.390 . S
C1154 C1153 1.390 . S
C1154 C1155 1.394 . S
C1154 C1160 1.465 . S
C1155 C1150 1.399 . S
C1155 C1154 1.394 . S
C1155 C1156 1.516 . S
C1156 C1155 1.516 . S
C1156 C1157 1.502 . S
C1156 C1158 1.561 . S
C1156 C1159 1.526 . S
C1157 H1141 0.959 . S
C1157 H1142 0.959 . S
C1157 H1143 0.961 . S
C1157 C1156 1.502 . S
C1158 H1144 0.960 . S
C1158 H1145 0.961 . S
C1158 H1146 0.959 . S
C1158 C1156 1.561 . S
C1159 C1156 1.526 . S
C1159 C1160 1.396 . S
C1159 C1164 1.390 . S
C1160 C1154 1.465 . S
C1160 C1159 1.396 . S
C1160 C1161 1.399 . S
C1161 H1147 0.929 . S
C1161 C1160 1.399 . S
C1161 C1162 1.385 . S
C1162 H1148 0.931 . S
C1162 C1161 1.385 . S
C1162 C1163 1.389 . S
C1163 C1162 1.389 . S
C1163 C1164 1.387 . S
C1164 H1149 0.930 . S
C1164 C1159 1.390 . S
C1164 C1163 1.387 . S
H1165 C1177 0.930 . S
H1166 C1179 0.930 . S
H1167 C1180 0.930 . S
H1168 C1184 0.959 . S
H1169 C1184 0.959 . S
H1170 C1184 0.961 . S
H1171 C1185 0.960 . S
H1172 C1185 0.961 . S
H1173 C1185 0.959 . S
H1174 C1188 0.929 . S
H1175 C1189 0.931 . S
H1176 C1191 0.930 . S
C1177 H1165 0.930 . S
C1177 C1178 1.399 . S
C1177 C1182 1.399 . S
C1178 C1177 1.399 . S
C1178 C1179 1.376 . S
C1179 H1166 0.930 . S
C1179 C1178 1.376 . S
C1179 C1180 1.388 . S
C1180 H1167 0.930 . S
C1180 C1179 1.388 . S
C1180 C1181 1.390 . S
C1181 C1180 1.390 . S
C1181 C1182 1.394 . S
C1181 C1187 1.465 . S
C1182 C1177 1.399 . S
C1182 C1181 1.394 . S
C1182 C1183 1.516 . S
C1183 C1182 1.516 . S
C1183 C1184 1.502 . S
C1183 C1185 1.561 . S
C1183 C1186 1.526 . S
C1184 H1168 0.959 . S
C1184 H1169 0.959 . S
C1184 H1170 0.961 . S
C1184 C1183 1.502 . S
C1185 H1171 0.960 . S
C1185 H1172 0.961 . S
C1185 H1173 0.959 . S
C1185 C1183 1.561 . S
C1186 C1183 1.526 . S
C1186 C1187 1.396 . S
C1186 C1191 1.390 . S
C1187 C1181 1.465 . S
C1187 C1186 1.396 . S
C1187 C1188 1.399 . S
C1188 H1174 0.929 . S
C1188 C1187 1.399 . S
C1188 C1189 1.385 . S
C1189 H1175 0.931 . S
C1189 C1188 1.385 . S
C1189 C1190 1.389 . S
C1190 C1189 1.389 . S
C1190 C1191 1.387 . S
C1191 H1176 0.930 . S
C1191 C1186 1.390 . S
C1191 C1190 1.387 . S
H1192 C1204 0.930 . S
H1193 C1206 0.930 . S
H1194 C1207 0.930 . S
H1195 C1211 0.959 1_445 S
H1196 C1211 0.959 1_455 S
H1197 C1211 0.961 . S
H1198 C1212 0.960 . S
H1199 C1212 0.961 . S
H1200 C1212 0.959 . S
H1201 C1215 0.929 . S
H1202 C1216 0.931 . S
H1203 C1218 0.930 . S
C1204 H1192 0.930 . S
C1204 C1205 1.399 1_565 S
C1204 C1209 1.399 1_565 S
C1205 C1204 1.399 1_545 S
C1205 C1206 1.376 . S
C1206 H1193 0.930 . S
C1206 C1205 1.376 . S
C1206 C1207 1.388 . S
C1207 H1194 0.930 . S
C1207 C1206 1.388 . S
C1207 C1208 1.390 . S
C1208 C1207 1.390 . S
C1208 C1209 1.394 . S
C1208 C1214 1.465 . S
C1209 C1204 1.399 1_545 S
C1209 C1208 1.394 . S
C1209 C1210 1.535 . S
C1210 C1209 1.535 . S
C1210 C1211 1.479 1_545 S
C1210 C1212 1.538 1_545 S
C1210 C1213 1.558 . S
C1211 H1195 0.959 1_665 S
C1211 H1196 0.959 1_655 S
C1211 H1197 0.961 . S
C1211 C1210 1.479 1_565 S
C1212 H1198 0.960 . S
C1212 H1199 0.961 . S
C1212 H1200 0.959 . S
C1212 C1210 1.538 1_565 S
C1213 C1210 1.558 . S
C1213 C1214 1.396 . S
C1213 C1218 1.390 1_655 S
C1214 C1208 1.465 . S
C1214 C1213 1.396 . S
C1214 C1215 1.399 . S
C1215 H1201 0.929 . S
C1215 C1214 1.399 . S
C1215 C1216 1.385 1_655 S
C1216 H1202 0.931 . S
C1216 C1215 1.385 1_455 S
C1216 C1217 1.389 . S
C1217 C1216 1.389 . S
C1217 C1218 1.387 . S
C1218 H1203 0.930 . S
C1218 C1213 1.390 1_455 S
C1218 C1217 1.387 . S
H1219 C1231 0.930 . S
H1220 C1233 0.930 . S
H1221 C1234 0.930 . S
H1222 C1238 0.959 . S
H1223 C1238 0.959 . S
H1224 C1238 0.961 . S
H1225 C1239 0.960 . S
H1226 C1239 0.961 . S
H1227 C1239 0.959 . S
H1228 C1242 0.929 . S
H1229 C1243 0.931 . S
H1230 C1245 0.930 . S
C1231 H1219 0.930 . S
C1231 C1232 1.399 . S
C1231 C1236 1.399 . S
C1232 C1231 1.399 . S
C1232 C1233 1.376 . S
C1233 H1220 0.930 . S
C1233 C1232 1.376 . S
C1233 C1234 1.388 . S
C1234 H1221 0.930 . S
C1234 C1233 1.388 . S
C1234 C1235 1.390 . S
C1235 C1234 1.390 . S
C1235 C1236 1.394 . S
C1235 C1241 1.465 . S
C1236 C1231 1.399 . S
C1236 C1235 1.394 . S
C1236 C1237 1.516 . S
C1237 C1236 1.516 . S
C1237 C1238 1.502 . S
C1237 C1239 1.561 . S
C1237 C1240 1.526 . S
C1238 H1222 0.959 . S
C1238 H1223 0.959 . S
C1238 H1224 0.961 . S
C1238 C1237 1.502 . S
C1239 H1225 0.960 . S
C1239 H1226 0.961 . S
C1239 H1227 0.959 . S
C1239 C1237 1.561 . S
C1240 C1237 1.526 . S
C1240 C1241 1.396 . S
C1240 C1245 1.390 . S
C1241 C1235 1.465 . S
C1241 C1240 1.396 . S
C1241 C1242 1.399 . S
C1242 H1228 0.929 . S
C1242 C1241 1.399 . S
C1242 C1243 1.385 . S
C1243 H1229 0.931 . S
C1243 C1242 1.385 . S
C1243 C1244 1.389 . S
C1244 C1243 1.389 . S
C1244 C1245 1.387 . S
C1245 H1230 0.930 . S
C1245 C1240 1.390 . S
C1245 C1244 1.387 . S
H1246 C1258 0.930 . S
H1247 C1260 0.930 . S
H1248 C1261 0.930 . S
H1249 C1265 0.959 1_545 S
H1250 C1265 0.959 . S
H1251 C1265 0.961 . S
H1252 C1266 0.960 . S
H1253 C1266 0.961 . S
H1254 C1266 0.959 . S
H1255 C1269 0.929 . S
H1256 C1270 0.931 . S
H1257 C1272 0.930 . S
C1258 H1246 0.930 . S
C1258 C1259 1.399 1_565 S
C1258 C1263 1.389 1_565 S
C1259 C1258 1.399 1_545 S
C1259 C1260 1.376 . S
C1260 H1247 0.930 . S
C1260 C1259 1.376 . S
C1260 C1261 1.388 . S
C1261 H1248 0.930 . S
C1261 C1260 1.388 . S
C1261 C1262 1.390 . S
C1262 C1261 1.390 . S
C1262 C1263 1.412 . S
C1262 C1268 1.465 . S
C1263 C1258 1.389 1_545 S
C1263 C1262 1.412 . S
C1263 C1264 1.511 1_545 S
C1264 C1263 1.511 1_565 S
C1264 C1265 1.502 . S
C1264 C1266 1.561 . S
C1264 C1267 1.526 1_565 S
C1265 H1249 0.959 1_565 S
C1265 H1250 0.959 . S
C1265 H1251 0.961 . S
C1265 C1264 1.502 . S
C1266 H1252 0.960 . S
C1266 H1253 0.961 . S
C1266 H1254 0.959 . S
C1266 C1264 1.561 . S
C1267 C1264 1.526 1_545 S
C1267 C1268 1.396 . S
C1267 C1272 1.390 . S
C1268 C1262 1.465 . S
C1268 C1267 1.396 . S
C1268 C1269 1.399 . S
C1269 H1255 0.929 . S
C1269 C1268 1.399 . S
C1269 C1270 1.385 . S
C1270 H1256 0.931 . S
C1270 C1269 1.385 . S
C1270 C1271 1.389 . S
C1271 C1270 1.389 . S
C1271 C1272 1.387 . S
C1272 H1257 0.930 . S
C1272 C1267 1.390 . S
C1272 C1271 1.387 . S
H1273 C1285 0.930 . S
H1274 C1287 0.930 . S
H1275 C1288 0.930 . S
H1276 C1292 0.959 . S
H1277 C1292 0.959 . S
H1278 C1292 0.961 . S
H1279 C1293 0.960 . S
H1280 C1293 0.961 . S
H1281 C1293 0.959 . S
H1282 C1296 0.929 . S
H1283 C1297 0.931 . S
H1284 C1299 0.930 . S
C1285 H1273 0.930 . S
C1285 C1286 1.399 . S
C1285 C1290 1.399 . S
C1286 C1285 1.399 . S
C1286 C1287 1.376 . S
C1287 H1274 0.930 . S
C1287 C1286 1.376 . S
C1287 C1288 1.388 . S
C1288 H1275 0.930 . S
C1288 C1287 1.388 . S
C1288 C1289 1.390 . S
C1289 C1288 1.390 . S
C1289 C1290 1.394 . S
C1289 C1295 1.465 . S
C1290 C1285 1.399 . S
C1290 C1289 1.394 . S
C1290 C1291 1.516 . S
C1291 C1290 1.516 . S
C1291 C1292 1.502 . S
C1291 C1293 1.561 . S
C1291 C1294 1.526 . S
C1292 H1276 0.959 . S
C1292 H1277 0.959 . S
C1292 H1278 0.961 . S
C1292 C1291 1.502 . S
C1293 H1279 0.960 . S
C1293 H1280 0.961 . S
C1293 H1281 0.959 . S
C1293 C1291 1.561 . S
C1294 C1291 1.526 . S
C1294 C1295 1.396 . S
C1294 C1299 1.390 . S
C1295 C1289 1.465 . S
C1295 C1294 1.396 . S
C1295 C1296 1.399 . S
C1296 H1282 0.929 . S
C1296 C1295 1.399 . S
C1296 C1297 1.385 . S
C1297 H1283 0.931 . S
C1297 C1296 1.385 . S
C1297 C1298 1.389 . S
C1298 C1297 1.389 . S
C1298 C1299 1.387 . S
C1299 H1284 0.930 . S
C1299 C1294 1.390 . S
C1299 C1298 1.387 . S
H1300 C1312 0.930 . S
H1301 C1314 0.930 . S
H1302 C1315 0.930 . S
H1303 C1319 0.959 . S
H1304 C1319 0.959 . S
H1305 C1319 0.961 . S
H1306 C1320 0.960 . S
H1307 C1320 0.961 . S
H1308 C1320 0.959 . S
H1309 C1323 0.929 1_455 S
H1310 C1324 0.931 . S
H1311 C1326 0.948 . S
C1312 H1300 0.930 . S
C1312 C1313 1.399 . S
C1312 C1317 1.399 . S
C1313 C1312 1.399 . S
C1313 C1314 1.376 1_565 S
C1314 H1301 0.930 . S
C1314 C1313 1.376 1_545 S
C1314 C1315 1.388 . S
C1315 H1302 0.930 . S
C1315 C1314 1.388 . S
C1315 C1316 1.390 . S
C1316 C1315 1.390 . S
C1316 C1317 1.394 1_545 S
C1316 C1322 1.465 . S
C1317 C1312 1.399 . S
C1317 C1316 1.394 1_565 S
C1317 C1318 1.516 . S
C1318 C1317 1.516 . S
C1318 C1319 1.502 . S
C1318 C1320 1.561 . S
C1318 C1321 1.526 1_565 S
C1319 H1303 0.959 . S
C1319 H1304 0.959 . S
C1319 H1305 0.961 . S
C1319 C1318 1.502 . S
C1320 H1306 0.960 . S
C1320 H1307 0.961 . S
C1320 H1308 0.959 . S
C1320 C1318 1.561 . S
C1321 C1318 1.526 1_545 S
C1321 C1322 1.396 . S
C1321 C1326 1.390 . S
C1322 C1316 1.465 . S
C1322 C1321 1.396 . S
C1322 C1323 1.399 . S
C1323 H1309 0.929 1_655 S
C1323 C1322 1.399 . S
C1323 C1324 1.385 1_655 S
C1324 H1310 0.931 . S
C1324 C1323 1.385 1_455 S
C1324 C1325 1.389 . S
C1325 C1324 1.389 . S
C1325 C1326 1.387 1_455 S
C1326 H1311 0.948 . S
C1326 C1321 1.390 . S
C1326 C1325 1.387 1_655 S
H1327 C1339 0.930 . S
H1328 C1341 0.930 . S
H1329 C1342 0.930 . S
H1330 C1346 0.959 . S
H1331 C1346 0.959 . S
H1332 C1346 0.961 . S
H1333 C1347 0.960 . S
H1334 C1347 0.961 . S
H1335 C1347 0.959 . S
H1336 C1350 0.929 . S
H1337 C1351 0.931 . S
H1338 C1353 0.930 . S
C1339 H1327 0.930 . S
C1339 C1340 1.399 . S
C1339 C1344 1.399 . S
C1340 C1339 1.399 . S
C1340 C1341 1.376 . S
C1341 H1328 0.930 . S
C1341 C1340 1.376 . S
C1341 C1342 1.388 . S
C1342 H1329 0.930 . S
C1342 C1341 1.388 . S
C1342 C1343 1.390 . S
C1343 C1342 1.390 . S
C1343 C1344 1.394 . S
C1343 C1349 1.465 . S
C1344 C1339 1.399 . S
C1344 C1343 1.394 . S
C1344 C1345 1.516 . S
C1345 C1344 1.516 . S
C1345 C1346 1.502 . S
C1345 C1347 1.561 . S
C1345 C1348 1.526 . S
C1346 H1330 0.959 . S
C1346 H1331 0.959 . S
C1346 H1332 0.961 . S
C1346 C1345 1.502 . S
C1347 H1333 0.960 . S
C1347 H1334 0.961 . S
C1347 H1335 0.959 . S
C1347 C1345 1.561 . S
C1348 C1345 1.526 . S
C1348 C1349 1.396 . S
C1348 C1353 1.390 . S
C1349 C1343 1.465 . S
C1349 C1348 1.396 . S
C1349 C1350 1.399 . S
C1350 H1336 0.929 . S
C1350 C1349 1.399 . S
C1350 C1351 1.385 . S
C1351 H1337 0.931 . S
C1351 C1350 1.385 . S
C1351 C1352 1.389 . S
C1352 C1351 1.389 . S
C1352 C1353 1.387 . S
C1353 H1338 0.930 . S
C1353 C1348 1.390 . S
C1353 C1352 1.387 . S
H1354 C1366 0.930 . S
H1355 C1368 0.930 . S
H1356 C1369 0.930 . S
H1357 C1373 0.959 . S
H1358 C1373 0.959 . S
H1359 C1373 0.961 . S
H1360 C1374 0.960 . S
H1361 C1374 0.961 . S
H1362 C1374 0.959 . S
H1363 C1377 0.929 . S
H1364 C1378 0.931 . S
H1365 C1380 0.930 . S
C1366 H1354 0.930 . S
C1366 C1367 1.399 . S
C1366 C1371 1.399 . S
C1367 C1366 1.399 . S
C1367 C1368 1.376 1_545 S
C1368 H1355 0.930 . S
C1368 C1367 1.376 1_565 S
C1368 C1369 1.388 . S
C1369 H1356 0.930 . S
C1369 C1368 1.388 . S
C1369 C1370 1.390 1_565 S
C1370 C1369 1.390 1_545 S
C1370 C1371 1.394 . S
C1370 C1376 1.465 . S
C1371 C1366 1.399 . S
C1371 C1370 1.394 . S
C1371 C1372 1.516 . S
C1372 C1371 1.516 . S
C1372 C1373 1.502 . S
C1372 C1374 1.561 . S
C1372 C1375 1.526 . S
C1373 H1357 0.959 . S
C1373 H1358 0.959 . S
C1373 H1359 0.961 . S
C1373 C1372 1.502 . S
C1374 H1360 0.960 . S
C1374 H1361 0.961 . S
C1374 H1362 0.959 . S
C1374 C1372 1.561 . S
C1375 C1372 1.526 . S
C1375 C1376 1.396 . S
C1375 C1380 1.390 . S
C1376 C1370 1.465 . S
C1376 C1375 1.396 . S
C1376 C1377 1.399 . S
C1377 H1363 0.929 . S
C1377 C1376 1.399 . S
C1377 C1378 1.385 . S
C1378 H1364 0.931 . S
C1378 C1377 1.385 . S
C1378 C1379 1.389 . S
C1379 C1378 1.389 . S
C1379 C1380 1.387 . S
C1380 H1365 0.930 . S
C1380 C1375 1.390 . S
C1380 C1379 1.387 . S
H1381 C1393 0.930 . S
H1382 C1395 0.930 . S
H1383 C1396 0.930 . S
H1384 C1400 0.959 . S
H1385 C1400 0.959 . S
H1386 C1400 0.961 . S
H1387 C1401 0.960 . S
H1388 C1401 0.961 . S
H1389 C1401 0.959 . S
H1390 C1404 0.929 . S
H1391 C1405 0.931 . S
H1392 C1407 0.930 . S
C1393 H1381 0.930 . S
C1393 C1394 1.399 . S
C1393 C1398 1.399 . S
C1394 C1393 1.399 . S
C1394 C1395 1.376 . S
C1395 H1382 0.930 . S
C1395 C1394 1.376 . S
C1395 C1396 1.388 . S
C1396 H1383 0.930 . S
C1396 C1395 1.388 . S
C1396 C1397 1.390 . S
C1397 C1396 1.390 . S
C1397 C1398 1.394 . S
C1397 C1403 1.465 . S
C1398 C1393 1.399 . S
C1398 C1397 1.394 . S
C1398 C1399 1.516 . S
C1399 C1398 1.516 . S
C1399 C1400 1.502 . S
C1399 C1401 1.561 . S
C1399 C1402 1.526 . S
C1400 H1384 0.959 . S
C1400 H1385 0.959 . S
C1400 H1386 0.961 . S
C1400 C1399 1.502 . S
C1401 H1387 0.960 . S
C1401 H1388 0.961 . S
C1401 H1389 0.959 . S
C1401 C1399 1.561 . S
C1402 C1399 1.526 . S
C1402 C1403 1.396 . S
C1402 C1407 1.390 . S
C1403 C1397 1.465 . S
C1403 C1402 1.396 . S
C1403 C1404 1.399 . S
C1404 H1390 0.929 . S
C1404 C1403 1.399 . S
C1404 C1405 1.385 . S
C1405 H1391 0.931 . S
C1405 C1404 1.385 . S
C1405 C1406 1.389 . S
C1406 C1405 1.389 . S
C1406 C1407 1.387 . S
C1407 H1392 0.930 . S
C1407 C1402 1.390 . S
C1407 C1406 1.387 . S
H1408 C1420 0.930 . S
H1409 C1422 0.930 . S
H1410 C1423 0.930 . S
H1411 C1427 0.959 . S
H1412 C1427 0.959 . S
H1413 C1427 0.961 . S
H1414 C1428 0.960 . S
H1415 C1428 0.961 . S
H1416 C1428 0.959 . S
H1417 C1431 0.929 . S
H1418 C1432 0.931 . S
H1419 C1434 0.930 1_545 S
C1420 H1408 0.930 . S
C1420 C1421 1.399 . S
C1420 C1425 1.399 . S
C1421 C1420 1.399 . S
C1421 C1422 1.376 . S
C1422 H1409 0.930 . S
C1422 C1421 1.376 . S
C1422 C1423 1.388 . S
C1423 H1410 0.930 . S
C1423 C1422 1.388 . S
C1423 C1424 1.390 . S
C1424 C1423 1.390 . S
C1424 C1425 1.394 . S
C1424 C1430 1.465 . S
C1425 C1420 1.399 . S
C1425 C1424 1.394 . S
C1425 C1426 1.516 . S
C1426 C1425 1.516 . S
C1426 C1427 1.502 . S
C1426 C1428 1.561 . S
C1426 C1429 1.526 . S
C1427 H1411 0.959 . S
C1427 H1412 0.959 . S
C1427 H1413 0.961 . S
C1427 C1426 1.502 . S
C1428 H1414 0.960 . S
C1428 H1415 0.961 . S
C1428 H1416 0.959 . S
C1428 C1426 1.561 . S
C1429 C1426 1.526 . S
C1429 C1430 1.396 . S
C1429 C1434 1.390 . S
C1430 C1424 1.465 . S
C1430 C1429 1.396 . S
C1430 C1431 1.399 . S
C1431 H1417 0.929 . S
C1431 C1430 1.399 . S
C1431 C1432 1.385 . S
C1432 H1418 0.931 . S
C1432 C1431 1.385 . S
C1432 C1433 1.389 . S
C1433 C1432 1.389 . S
C1433 C1434 1.387 . S
C1434 H1419 0.930 1_565 S
C1434 C1429 1.390 . S
C1434 C1433 1.387 . S
H1435 C1447 0.930 . S
H1436 C1449 0.930 1_556 S
H1437 C1450 0.930 1_556 S
H1438 C1454 0.959 . S
H1439 C1454 0.959 . S
H1440 C1454 0.961 . S
H1441 C1455 0.960 . S
H1442 C1455 0.961 . S
H1443 C1455 0.959 . S
H1444 C1458 0.929 1_556 S
H1445 C1459 0.931 1_556 S
H1446 C1461 0.930 . S
C1447 H1435 0.930 . S
C1447 C1448 1.399 . S
C1447 C1452 1.399 . S
C1448 C1447 1.399 . S
C1448 C1449 1.376 . S
C1449 H1436 0.930 1_554 S
C1449 C1448 1.376 . S
C1449 C1450 1.388 . S
C1450 H1437 0.930 1_554 S
C1450 C1449 1.388 . S
C1450 C1451 1.390 . S
C1451 C1450 1.390 . S
C1451 C1452 1.394 . S
C1451 C1457 1.465 . S
C1452 C1447 1.399 . S
C1452 C1451 1.394 . S
C1452 C1453 1.516 . S
C1453 C1452 1.516 . S
C1453 C1454 1.502 . S
C1453 C1455 1.561 . S
C1453 C1456 1.526 . S
C1454 H1438 0.959 . S
C1454 H1439 0.959 . S
C1454 H1440 0.961 . S
C1454 C1453 1.502 . S
C1455 H1441 0.960 . S
C1455 H1442 0.961 . S
C1455 H1443 0.959 . S
C1455 C1453 1.561 . S
C1456 C1453 1.526 . S
C1456 C1457 1.396 . S
C1456 C1461 1.390 . S
C1457 C1451 1.465 . S
C1457 C1456 1.396 . S
C1457 C1458 1.399 . S
C1458 H1444 0.929 1_554 S
C1458 C1457 1.399 . S
C1458 C1459 1.385 . S
C1459 H1445 0.931 1_554 S
C1459 C1458 1.385 . S
C1459 C1460 1.389 . S
C1460 C1459 1.389 . S
C1460 C1461 1.387 . S
C1461 H1446 0.930 . S
C1461 C1456 1.390 . S
C1461 C1460 1.387 . S
H1462 C1474 0.930 . S
H1463 C1476 0.930 . S
H1464 C1477 0.930 . S
H1465 C1481 0.959 . S
H1466 C1481 0.959 . S
H1467 C1481 0.961 . S
H1468 C1482 0.960 . S
H1469 C1482 0.961 . S
H1470 C1482 0.959 . S
H1471 C1485 0.929 . S
H1472 C1486 0.931 . S
H1473 C1488 0.930 . S
C1474 H1462 0.930 . S
C1474 C1475 1.399 . S
C1474 C1479 1.399 . S
C1475 C1474 1.399 . S
C1475 C1476 1.376 . S
C1476 H1463 0.930 . S
C1476 C1475 1.376 . S
C1476 C1477 1.388 . S
C1477 H1464 0.930 . S
C1477 C1476 1.388 . S
C1477 C1478 1.390 . S
C1478 C1477 1.390 . S
C1478 C1479 1.394 . S
C1478 C1484 1.465 . S
C1479 C1474 1.399 . S
C1479 C1478 1.394 . S
C1479 C1480 1.516 . S
C1480 C1479 1.516 . S
C1480 C1481 1.502 . S
C1480 C1482 1.561 . S
C1480 C1483 1.526 . S
C1481 H1465 0.959 . S
C1481 H1466 0.959 . S
C1481 H1467 0.961 . S
C1481 C1480 1.502 . S
C1482 H1468 0.960 . S
C1482 H1469 0.961 . S
C1482 H1470 0.959 . S
C1482 C1480 1.561 . S
C1483 C1480 1.526 . S
C1483 C1484 1.396 . S
C1483 C1488 1.390 . S
C1484 C1478 1.465 . S
C1484 C1483 1.396 . S
C1484 C1485 1.399 . S
C1485 H1471 0.929 . S
C1485 C1484 1.399 . S
C1485 C1486 1.385 . S
C1486 H1472 0.931 . S
C1486 C1485 1.385 . S
C1486 C1487 1.389 . S
C1487 C1486 1.389 . S
C1487 C1488 1.387 . S
C1488 H1473 0.930 . S
C1488 C1483 1.390 . S
C1488 C1487 1.387 . S
H1489 C1501 0.930 . S
H1490 C1503 0.930 . S
H1491 C1504 0.930 . S
H1492 C1508 0.959 . S
H1493 C1508 0.959 . S
H1494 C1508 0.961 . S
H1495 C1509 0.960 . S
H1496 C1509 0.961 . S
H1497 C1509 0.959 . S
H1498 C1512 0.929 . S
H1499 C1513 0.931 . S
H1500 C1515 0.930 . S
C1501 H1489 0.930 . S
C1501 C1502 1.399 . S
C1501 C1506 1.399 . S
C1502 C1501 1.399 . S
C1502 C1503 1.376 . S
C1503 H1490 0.930 . S
C1503 C1502 1.376 . S
C1503 C1504 1.388 . S
C1504 H1491 0.930 . S
C1504 C1503 1.388 . S
C1504 C1505 1.390 . S
C1505 C1504 1.390 . S
C1505 C1506 1.394 . S
C1505 C1511 1.465 . S
C1506 C1501 1.399 . S
C1506 C1505 1.394 . S
C1506 C1507 1.516 . S
C1507 C1506 1.516 . S
C1507 C1508 1.502 . S
C1507 C1509 1.561 . S
C1507 C1510 1.526 . S
C1508 H1492 0.959 . S
C1508 H1493 0.959 . S
C1508 H1494 0.961 . S
C1508 C1507 1.502 . S
C1509 H1495 0.960 . S
C1509 H1496 0.961 . S
C1509 H1497 0.959 . S
C1509 C1507 1.561 . S
C1510 C1507 1.526 . S
C1510 C1511 1.396 . S
C1510 C1515 1.390 . S
C1511 C1505 1.465 . S
C1511 C1510 1.396 . S
C1511 C1512 1.399 . S
C1512 H1498 0.929 . S
C1512 C1511 1.399 . S
C1512 C1513 1.385 . S
C1513 H1499 0.931 . S
C1513 C1512 1.385 . S
C1513 C1514 1.389 . S
C1514 C1513 1.389 . S
C1514 C1515 1.387 . S
C1515 H1500 0.930 . S
C1515 C1510 1.390 . S
C1515 C1514 1.387 . S
H1516 C1528 0.930 . S
H1517 C1530 0.930 . S
H1518 C1531 0.930 . S
H1519 C1535 0.959 . S
H1520 C1535 0.959 . S
H1521 C1535 0.961 . S
H1522 C1536 0.960 . S
H1523 C1536 0.961 . S
H1524 C1536 0.959 . S
H1525 C1539 0.929 . S
H1526 C1540 0.931 . S
H1527 C1542 0.930 . S
C1528 H1516 0.930 . S
C1528 C1529 1.399 . S
C1528 C1533 1.399 . S
C1529 C1528 1.399 . S
C1529 C1530 1.376 . S
C1530 H1517 0.930 . S
C1530 C1529 1.376 . S
C1530 C1531 1.388 . S
C1531 H1518 0.930 . S
C1531 C1530 1.388 . S
C1531 C1532 1.390 . S
C1532 C1531 1.390 . S
C1532 C1533 1.394 . S
C1532 C1538 1.465 . S
C1533 C1528 1.399 . S
C1533 C1532 1.394 . S
C1533 C1534 1.516 . S
C1534 C1533 1.516 . S
C1534 C1535 1.502 . S
C1534 C1536 1.561 . S
C1534 C1537 1.526 . S
C1535 H1519 0.959 . S
C1535 H1520 0.959 . S
C1535 H1521 0.961 . S
C1535 C1534 1.502 . S
C1536 H1522 0.960 . S
C1536 H1523 0.961 . S
C1536 H1524 0.959 . S
C1536 C1534 1.561 . S
C1537 C1534 1.526 . S
C1537 C1538 1.396 . S
C1537 C1542 1.390 . S
C1538 C1532 1.465 . S
C1538 C1537 1.396 . S
C1538 C1539 1.399 . S
C1539 H1525 0.929 . S
C1539 C1538 1.399 . S
C1539 C1540 1.385 . S
C1540 H1526 0.931 . S
C1540 C1539 1.385 . S
C1540 C1541 1.389 . S
C1541 C1540 1.389 . S
C1541 C1542 1.387 . S
C1542 H1527 0.930 . S
C1542 C1537 1.390 . S
C1542 C1541 1.387 . S
H1543 C1555 0.930 . S
H1544 C1557 0.930 . S
H1545 C1558 0.930 . S
H1546 C1562 0.959 . S
H1547 C1562 0.959 . S
H1548 C1562 0.961 . S
H1549 C1563 0.960 . S
H1550 C1563 0.961 . S
H1551 C1563 0.959 . S
H1552 C1566 0.929 . S
H1553 C1567 0.931 . S
H1554 C1569 0.930 . S
C1555 H1543 0.930 . S
C1555 C1556 1.399 . S
C1555 C1560 1.399 . S
C1556 C1555 1.399 . S
C1556 C1557 1.376 . S
C1557 H1544 0.930 . S
C1557 C1556 1.376 . S
C1557 C1558 1.388 . S
C1558 H1545 0.930 . S
C1558 C1557 1.388 . S
C1558 C1559 1.390 . S
C1559 C1558 1.390 . S
C1559 C1560 1.394 . S
C1559 C1565 1.465 . S
C1560 C1555 1.399 . S
C1560 C1559 1.394 . S
C1560 C1561 1.516 . S
C1561 C1560 1.516 . S
C1561 C1562 1.502 . S
C1561 C1563 1.561 . S
C1561 C1564 1.526 . S
C1562 H1546 0.959 . S
C1562 H1547 0.959 . S
C1562 H1548 0.961 . S
C1562 C1561 1.502 . S
C1563 H1549 0.960 . S
C1563 H1550 0.961 . S
C1563 H1551 0.959 . S
C1563 C1561 1.561 . S
C1564 C1561 1.526 . S
C1564 C1565 1.396 . S
C1564 C1569 1.390 . S
C1565 C1559 1.465 . S
C1565 C1564 1.396 . S
C1565 C1566 1.399 . S
C1566 H1552 0.929 . S
C1566 C1565 1.399 . S
C1566 C1567 1.385 . S
C1567 H1553 0.931 . S
C1567 C1566 1.385 . S
C1567 C1568 1.389 . S
C1568 C1567 1.389 . S
C1568 C1569 1.387 . S
C1569 H1554 0.930 . S
C1569 C1564 1.390 . S
C1569 C1568 1.387 . S
H1570 C1582 0.930 . S
H1571 C1584 0.930 . S
H1572 C1585 0.930 . S
H1573 C1589 0.959 . S
H1574 C1589 0.959 . S
H1575 C1589 0.961 . S
H1576 C1590 0.960 . S
H1577 C1590 0.961 . S
H1578 C1590 0.959 . S
H1579 C1593 0.929 . S
H1580 C1594 0.931 . S
H1581 C1596 0.930 . S
C1582 H1570 0.930 . S
C1582 C1583 1.399 . S
C1582 C1587 1.399 . S
C1583 C1582 1.399 . S
C1583 C1584 1.376 . S
C1584 H1571 0.930 . S
C1584 C1583 1.376 . S
C1584 C1585 1.388 . S
C1585 H1572 0.930 . S
C1585 C1584 1.388 . S
C1585 C1586 1.390 . S
C1586 C1585 1.390 . S
C1586 C1587 1.394 . S
C1586 C1592 1.465 . S
C1587 C1582 1.399 . S
C1587 C1586 1.394 . S
C1587 C1588 1.516 . S
C1588 C1587 1.516 . S
C1588 C1589 1.502 . S
C1588 C1590 1.561 . S
C1588 C1591 1.526 . S
C1589 H1573 0.959 . S
C1589 H1574 0.959 . S
C1589 H1575 0.961 . S
C1589 C1588 1.502 . S
C1590 H1576 0.960 . S
C1590 H1577 0.961 . S
C1590 H1578 0.959 . S
C1590 C1588 1.561 . S
C1591 C1588 1.526 . S
C1591 C1592 1.396 . S
C1591 C1596 1.390 . S
C1592 C1586 1.465 . S
C1592 C1591 1.396 . S
C1592 C1593 1.399 . S
C1593 H1579 0.929 . S
C1593 C1592 1.399 . S
C1593 C1594 1.385 . S
C1594 H1580 0.931 . S
C1594 C1593 1.385 . S
C1594 C1595 1.389 . S
C1595 C1594 1.389 . S
C1595 C1596 1.387 . S
C1596 H1581 0.930 . S
C1596 C1591 1.390 . S
C1596 C1595 1.387 . S
H1597 C1609 0.930 . S
H1598 C1611 0.930 . S
H1599 C1612 0.930 . S
H1600 C1616 0.959 . S
H1601 C1616 0.959 . S
H1602 C1616 0.961 . S
H1603 C1617 0.960 . S
H1604 C1617 0.961 . S
H1605 C1617 0.959 . S
H1606 C1620 0.929 . S
H1607 C1621 0.931 . S
H1608 C1623 0.930 . S
C1609 H1597 0.930 . S
C1609 C1610 1.399 . S
C1609 C1614 1.399 . S
C1610 C1609 1.399 . S
C1610 C1611 1.376 . S
C1611 H1598 0.930 . S
C1611 C1610 1.376 . S
C1611 C1612 1.388 . S
C1612 H1599 0.930 . S
C1612 C1611 1.388 . S
C1612 C1613 1.390 . S
C1613 C1612 1.390 . S
C1613 C1614 1.394 . S
C1613 C1619 1.465 . S
C1614 C1609 1.399 . S
C1614 C1613 1.394 . S
C1614 C1615 1.516 . S
C1615 C1614 1.516 . S
C1615 C1616 1.502 . S
C1615 C1617 1.561 . S
C1615 C1618 1.526 . S
C1616 H1600 0.959 . S
C1616 H1601 0.959 . S
C1616 H1602 0.961 . S
C1616 C1615 1.502 . S
C1617 H1603 0.960 . S
C1617 H1604 0.961 . S
C1617 H1605 0.959 . S
C1617 C1615 1.561 . S
C1618 C1615 1.526 . S
C1618 C1619 1.396 . S
C1618 C1623 1.390 . S
C1619 C1613 1.465 . S
C1619 C1618 1.396 . S
C1619 C1620 1.399 . S
C1620 H1606 0.929 . S
C1620 C1619 1.399 . S
C1620 C1621 1.385 . S
C1621 H1607 0.931 . S
C1621 C1620 1.385 . S
C1621 C1622 1.389 . S
C1622 C1621 1.389 . S
C1622 C1623 1.387 . S
C1623 H1608 0.930 . S
C1623 C1618 1.390 . S
C1623 C1622 1.387 . S
H1624 C1636 0.930 . S
H1625 C1638 0.930 . S
H1626 C1639 0.930 . S
H1627 C1643 0.959 . S
H1628 C1643 0.959 . S
H1629 C1643 0.961 . S
H1630 C1644 0.960 . S
H1631 C1644 0.961 . S
H1632 C1644 0.959 . S
H1633 C1647 0.929 . S
H1634 C1648 0.931 . S
H1635 C1650 0.930 . S
C1636 H1624 0.930 . S
C1636 C1637 1.399 . S
C1636 C1641 1.399 . S
C1637 C1636 1.399 . S
C1637 C1638 1.376 . S
C1638 H1625 0.930 . S
C1638 C1637 1.376 . S
C1638 C1639 1.388 . S
C1639 H1626 0.930 . S
C1639 C1638 1.388 . S
C1639 C1640 1.390 . S
C1640 C1639 1.390 . S
C1640 C1641 1.394 . S
C1640 C1646 1.465 . S
C1641 C1636 1.399 . S
C1641 C1640 1.394 . S
C1641 C1642 1.516 . S
C1642 C1641 1.516 . S
C1642 C1643 1.502 . S
C1642 C1644 1.561 . S
C1642 C1645 1.526 . S
C1643 H1627 0.959 . S
C1643 H1628 0.959 . S
C1643 H1629 0.961 . S
C1643 C1642 1.502 . S
C1644 H1630 0.960 . S
C1644 H1631 0.961 . S
C1644 H1632 0.959 . S
C1644 C1642 1.561 . S
C1645 C1642 1.526 . S
C1645 C1646 1.396 . S
C1645 C1650 1.390 . S
C1646 C1640 1.465 . S
C1646 C1645 1.396 . S
C1646 C1647 1.399 . S
C1647 H1633 0.929 . S
C1647 C1646 1.399 . S
C1647 C1648 1.385 . S
C1648 H1634 0.931 . S
C1648 C1647 1.385 . S
C1648 C1649 1.389 . S
C1649 C1648 1.389 . S
C1649 C1650 1.387 . S
C1650 H1635 0.930 . S
C1650 C1645 1.390 . S
C1650 C1649 1.387 . S
H1651 C1663 0.930 . S
H1652 C1665 0.930 . S
H1653 C1666 0.930 . S
H1654 C1670 0.959 . S
H1655 C1670 0.959 . S
H1656 C1670 0.961 . S
H1657 C1671 0.960 . S
H1658 C1671 0.961 . S
H1659 C1671 0.959 . S
H1660 C1674 0.929 . S
H1661 C1675 0.931 . S
H1662 C1677 0.930 . S
C1663 H1651 0.930 . S
C1663 C1664 1.399 . S
C1663 C1668 1.399 . S
C1664 C1663 1.399 . S
C1664 C1665 1.376 . S
C1665 H1652 0.930 . S
C1665 C1664 1.376 . S
C1665 C1666 1.388 . S
C1666 H1653 0.930 . S
C1666 C1665 1.388 . S
C1666 C1667 1.390 . S
C1667 C1666 1.390 . S
C1667 C1668 1.394 . S
C1667 C1673 1.465 . S
C1668 C1663 1.399 . S
C1668 C1667 1.394 . S
C1668 C1669 1.516 . S
C1669 C1668 1.516 . S
C1669 C1670 1.502 . S
C1669 C1671 1.561 . S
C1669 C1672 1.526 . S
C1670 H1654 0.959 . S
C1670 H1655 0.959 . S
C1670 H1656 0.961 . S
C1670 C1669 1.502 . S
C1671 H1657 0.960 . S
C1671 H1658 0.961 . S
C1671 H1659 0.959 . S
C1671 C1669 1.561 . S
C1672 C1669 1.526 . S
C1672 C1673 1.396 . S
C1672 C1677 1.390 . S
C1673 C1667 1.465 . S
C1673 C1672 1.396 . S
C1673 C1674 1.399 . S
C1674 H1660 0.929 . S
C1674 C1673 1.399 . S
C1674 C1675 1.385 . S
C1675 H1661 0.931 . S
C1675 C1674 1.385 . S
C1675 C1676 1.389 . S
C1676 C1675 1.389 . S
C1676 C1677 1.387 . S
C1677 H1662 0.930 . S
C1677 C1672 1.390 . S
C1677 C1676 1.387 . S
H1678 C1690 0.930 . S
H1679 C1692 0.930 . S
H1680 C1693 0.930 . S
H1681 C1697 0.959 . S
H1682 C1697 0.959 . S
H1683 C1697 0.961 . S
H1684 C1698 0.960 . S
H1685 C1698 0.961 . S
H1686 C1698 0.959 . S
H1687 C1701 0.929 . S
H1688 C1702 0.931 . S
H1689 C1704 0.930 . S
C1690 H1678 0.930 . S
C1690 C1691 1.399 . S
C1690 C1695 1.399 . S
C1691 C1690 1.399 . S
C1691 C1692 1.376 . S
C1692 H1679 0.930 . S
C1692 C1691 1.376 . S
C1692 C1693 1.388 . S
C1693 H1680 0.930 . S
C1693 C1692 1.388 . S
C1693 C1694 1.390 . S
C1694 C1693 1.390 . S
C1694 C1695 1.394 . S
C1694 C1700 1.465 . S
C1695 C1690 1.399 . S
C1695 C1694 1.394 . S
C1695 C1696 1.516 . S
C1696 C1695 1.516 . S
C1696 C1697 1.502 . S
C1696 C1698 1.561 . S
C1696 C1699 1.526 . S
C1697 H1681 0.959 . S
C1697 H1682 0.959 . S
C1697 H1683 0.961 . S
C1697 C1696 1.502 . S
C1698 H1684 0.960 . S
C1698 H1685 0.961 . S
C1698 H1686 0.959 . S
C1698 C1696 1.561 . S
C1699 C1696 1.526 . S
C1699 C1700 1.396 . S
C1699 C1704 1.390 . S
C1700 C1694 1.465 . S
C1700 C1699 1.396 . S
C1700 C1701 1.399 . S
C1701 H1687 0.929 . S
C1701 C1700 1.399 . S
C1701 C1702 1.385 . S
C1702 H1688 0.931 . S
C1702 C1701 1.385 . S
C1702 C1703 1.389 . S
C1703 C1702 1.389 . S
C1703 C1704 1.387 . S
C1704 H1689 0.930 . S
C1704 C1699 1.390 . S
C1704 C1703 1.387 . S
H1705 C1717 0.930 . S
H1706 C1719 0.930 . S
H1707 C1720 0.930 . S
H1708 C1724 0.959 . S
H1709 C1724 0.959 . S
H1710 C1724 0.961 . S
H1711 C1725 0.960 . S
H1712 C1725 0.961 . S
H1713 C1725 0.959 . S
H1714 C1728 0.929 . S
H1715 C1729 0.931 . S
H1716 C1731 0.930 . S
C1717 H1705 0.930 . S
C1717 C1718 1.399 . S
C1717 C1722 1.399 . S
C1718 C1717 1.399 . S
C1718 C1719 1.376 . S
C1719 H1706 0.930 . S
C1719 C1718 1.376 . S
C1719 C1720 1.388 . S
C1720 H1707 0.930 . S
C1720 C1719 1.388 . S
C1720 C1721 1.390 . S
C1721 C1720 1.390 . S
C1721 C1722 1.394 . S
C1721 C1727 1.465 . S
C1722 C1717 1.399 . S
C1722 C1721 1.394 . S
C1722 C1723 1.516 . S
C1723 C1722 1.516 . S
C1723 C1724 1.502 . S
C1723 C1725 1.561 . S
C1723 C1726 1.526 . S
C1724 H1708 0.959 . S
C1724 H1709 0.959 . S
C1724 H1710 0.961 . S
C1724 C1723 1.502 . S
C1725 H1711 0.960 . S
C1725 H1712 0.961 . S
C1725 H1713 0.959 . S
C1725 C1723 1.561 . S
C1726 C1723 1.526 . S
C1726 C1727 1.396 . S
C1726 C1731 1.390 . S
C1727 C1721 1.465 . S
C1727 C1726 1.396 . S
C1727 C1728 1.399 . S
C1728 H1714 0.929 . S
C1728 C1727 1.399 . S
C1728 C1729 1.385 . S
C1729 H1715 0.931 . S
C1729 C1728 1.385 . S
C1729 C1730 1.389 . S
C1730 C1729 1.389 . S
C1730 C1731 1.387 . S
C1731 H1716 0.930 . S
C1731 C1726 1.390 . S
C1731 C1730 1.387 . S
H1732 C1744 0.930 . S
H1733 C1746 0.930 . S
H1734 C1747 0.930 . S
H1735 C1751 0.959 . S
H1736 C1751 0.959 . S
H1737 C1751 0.961 . S
H1738 C1752 0.960 . S
H1739 C1752 0.961 . S
H1740 C1752 0.959 . S
H1741 C1755 0.929 . S
H1742 C1756 0.931 . S
H1743 C1758 0.930 . S
C1744 H1732 0.930 . S
C1744 C1745 1.399 . S
C1744 C1749 1.399 . S
C1745 C1744 1.399 . S
C1745 C1746 1.376 . S
C1746 H1733 0.930 . S
C1746 C1745 1.376 . S
C1746 C1747 1.388 . S
C1747 H1734 0.930 . S
C1747 C1746 1.388 . S
C1747 C1748 1.390 . S
C1748 C1747 1.390 . S
C1748 C1749 1.394 . S
C1748 C1754 1.465 . S
C1749 C1744 1.399 . S
C1749 C1748 1.394 . S
C1749 C1750 1.516 . S
C1750 C1749 1.516 . S
C1750 C1751 1.502 . S
C1750 C1752 1.561 . S
C1750 C1753 1.526 . S
C1751 H1735 0.959 . S
C1751 H1736 0.959 . S
C1751 H1737 0.961 . S
C1751 C1750 1.502 . S
C1752 H1738 0.960 . S
C1752 H1739 0.961 . S
C1752 H1740 0.959 . S
C1752 C1750 1.561 . S
C1753 C1750 1.526 . S
C1753 C1754 1.396 . S
C1753 C1758 1.390 . S
C1754 C1748 1.465 . S
C1754 C1753 1.396 . S
C1754 C1755 1.399 . S
C1755 H1741 0.929 . S
C1755 C1754 1.399 . S
C1755 C1756 1.385 . S
C1756 H1742 0.931 . S
C1756 C1755 1.385 . S
C1756 C1757 1.389 . S
C1757 C1756 1.389 . S
C1757 C1758 1.387 . S
C1758 H1743 0.930 . S
C1758 C1753 1.390 . S
C1758 C1757 1.387 . S
H1759 C1771 0.930 . S
H1760 C1773 0.930 . S
H1761 C1774 0.930 . S
H1762 C1778 0.959 . S
H1763 C1778 0.959 . S
H1764 C1778 0.961 . S
H1765 C1779 0.960 . S
H1766 C1779 0.961 . S
H1767 C1779 0.959 . S
H1768 C1782 0.929 . S
H1769 C1783 0.931 . S
H1770 C1785 0.930 . S
C1771 H1759 0.930 . S
C1771 C1772 1.399 . S
C1771 C1776 1.399 . S
C1772 C1771 1.399 . S
C1772 C1773 1.376 . S
C1773 H1760 0.930 . S
C1773 C1772 1.376 . S
C1773 C1774 1.388 . S
C1774 H1761 0.930 . S
C1774 C1773 1.388 . S
C1774 C1775 1.390 . S
C1775 C1774 1.390 . S
C1775 C1776 1.394 . S
C1775 C1781 1.465 . S
C1776 C1771 1.399 . S
C1776 C1775 1.394 . S
C1776 C1777 1.516 . S
C1777 C1776 1.516 . S
C1777 C1778 1.502 . S
C1777 C1779 1.561 . S
C1777 C1780 1.526 . S
C1778 H1762 0.959 . S
C1778 H1763 0.959 . S
C1778 H1764 0.961 . S
C1778 C1777 1.502 . S
C1779 H1765 0.960 . S
C1779 H1766 0.961 . S
C1779 H1767 0.959 . S
C1779 C1777 1.561 . S
C1780 C1777 1.526 . S
C1780 C1781 1.396 . S
C1780 C1785 1.390 . S
C1781 C1775 1.465 . S
C1781 C1780 1.396 . S
C1781 C1782 1.399 . S
C1782 H1768 0.929 . S
C1782 C1781 1.399 . S
C1782 C1783 1.385 . S
C1783 H1769 0.931 . S
C1783 C1782 1.385 . S
C1783 C1784 1.389 . S
C1784 C1783 1.389 . S
C1784 C1785 1.387 . S
C1785 H1770 0.930 . S
C1785 C1780 1.390 . S
C1785 C1784 1.387 . S
H1786 C1798 0.930 . S
H1787 C1800 0.930 . S
H1788 C1801 0.930 . S
H1789 C1805 0.959 . S
H1790 C1805 0.959 . S
H1791 C1805 0.961 . S
H1792 C1806 0.960 . S
H1793 C1806 0.961 . S
H1794 C1806 0.959 . S
H1795 C1809 0.929 . S
H1796 C1810 0.931 . S
H1797 C1812 0.930 . S
C1798 H1786 0.930 . S
C1798 C1799 1.399 . S
C1798 C1803 1.399 . S
C1799 C1798 1.399 . S
C1799 C1800 1.376 . S
C1800 H1787 0.930 . S
C1800 C1799 1.376 . S
C1800 C1801 1.388 . S
C1801 H1788 0.930 . S
C1801 C1800 1.388 . S
C1801 C1802 1.390 . S
C1802 C1801 1.390 . S
C1802 C1803 1.394 . S
C1802 C1808 1.465 . S
C1803 C1798 1.399 . S
C1803 C1802 1.394 . S
C1803 C1804 1.516 . S
C1804 C1803 1.516 . S
C1804 C1805 1.502 . S
C1804 C1806 1.561 . S
C1804 C1807 1.526 . S
C1805 H1789 0.959 . S
C1805 H1790 0.959 . S
C1805 H1791 0.961 . S
C1805 C1804 1.502 . S
C1806 H1792 0.960 . S
C1806 H1793 0.961 . S
C1806 H1794 0.959 . S
C1806 C1804 1.561 . S
C1807 C1804 1.526 . S
C1807 C1808 1.396 . S
C1807 C1812 1.390 . S
C1808 C1802 1.465 . S
C1808 C1807 1.396 . S
C1808 C1809 1.399 1_556 S
C1809 H1795 0.929 . S
C1809 C1808 1.399 1_554 S
C1809 C1810 1.385 . S
C1810 H1796 0.931 . S
C1810 C1809 1.385 . S
C1810 C1811 1.375 1_554 S
C1811 C1810 1.375 1_556 S
C1811 C1812 1.414 . S
C1812 H1797 0.930 . S
C1812 C1807 1.390 . S
C1812 C1811 1.414 . S
H1813 C1825 0.930 . S
H1814 C1827 0.930 . S
H1815 C1828 0.930 . S
H1816 C1832 0.959 . S
H1817 C1832 0.959 . S
H1818 C1832 0.961 . S
H1819 C1833 0.960 . S
H1820 C1833 0.961 . S
H1821 C1833 0.959 . S
H1822 C1836 0.929 . S
H1823 C1837 0.931 . S
H1824 C1839 0.930 . S
C1825 H1813 0.930 . S
C1825 C1826 1.399 . S
C1825 C1830 1.399 . S
C1826 C1825 1.399 . S
C1826 C1827 1.376 . S
C1827 H1814 0.930 . S
C1827 C1826 1.376 . S
C1827 C1828 1.388 . S
C1828 H1815 0.930 . S
C1828 C1827 1.388 . S
C1828 C1829 1.390 . S
C1829 C1828 1.390 . S
C1829 C1830 1.394 . S
C1829 C1835 1.465 . S
C1830 C1825 1.399 . S
C1830 C1829 1.394 . S
C1830 C1831 1.516 . S
C1831 C1830 1.516 . S
C1831 C1832 1.502 . S
C1831 C1833 1.561 . S
C1831 C1834 1.526 . S
C1832 H1816 0.959 . S
C1832 H1817 0.959 . S
C1832 H1818 0.961 . S
C1832 C1831 1.502 . S
C1833 H1819 0.960 . S
C1833 H1820 0.961 . S
C1833 H1821 0.959 . S
C1833 C1831 1.561 . S
C1834 C1831 1.526 . S
C1834 C1835 1.396 . S
C1834 C1839 1.390 . S
C1835 C1829 1.465 . S
C1835 C1834 1.396 . S
C1835 C1836 1.399 . S
C1836 H1822 0.929 . S
C1836 C1835 1.399 . S
C1836 C1837 1.385 . S
C1837 H1823 0.931 . S
C1837 C1836 1.385 . S
C1837 C1838 1.389 . S
C1838 C1837 1.389 . S
C1838 C1839 1.387 . S
C1839 H1824 0.930 . S
C1839 C1834 1.390 . S
C1839 C1838 1.387 . S
H1840 C1852 0.930 . S
H1841 C1854 0.930 . S
H1842 C1855 0.930 . S
H1843 C1859 0.959 . S
H1844 C1859 0.959 . S
H1845 C1859 0.961 . S
H1846 C1860 0.960 . S
H1847 C1860 0.961 . S
H1848 C1860 0.959 . S
H1849 C1863 0.929 . S
H1850 C1864 0.931 . S
H1851 C1866 0.930 . S
C1852 H1840 0.930 . S
C1852 C1853 1.399 . S
C1852 C1857 1.399 . S
C1853 C1852 1.399 . S
C1853 C1854 1.376 . S
C1854 H1841 0.930 . S
C1854 C1853 1.376 . S
C1854 C1855 1.388 . S
C1855 H1842 0.930 . S
C1855 C1854 1.388 . S
C1855 C1856 1.390 . S
C1856 C1855 1.390 . S
C1856 C1857 1.394 . S
C1856 C1862 1.465 . S
C1857 C1852 1.399 . S
C1857 C1856 1.394 . S
C1857 C1858 1.516 . S
C1858 C1857 1.516 . S
C1858 C1859 1.502 . S
C1858 C1860 1.561 . S
C1858 C1861 1.526 . S
C1859 H1843 0.959 . S
C1859 H1844 0.959 . S
C1859 H1845 0.961 . S
C1859 C1858 1.502 . S
C1860 H1846 0.960 . S
C1860 H1847 0.961 . S
C1860 H1848 0.959 . S
C1860 C1858 1.561 . S
C1861 C1858 1.526 . S
C1861 C1862 1.396 . S
C1861 C1866 1.390 . S
C1862 C1856 1.465 . S
C1862 C1861 1.396 . S
C1862 C1863 1.399 . S
C1863 H1849 0.929 . S
C1863 C1862 1.399 . S
C1863 C1864 1.385 . S
C1864 H1850 0.931 . S
C1864 C1863 1.385 . S
C1864 C1865 1.389 . S
C1865 C1864 1.389 . S
C1865 C1866 1.387 . S
C1866 H1851 0.930 . S
C1866 C1861 1.390 . S
C1866 C1865 1.387 . S
H1867 C1879 0.930 . S
H1868 C1881 0.930 . S
H1869 C1882 0.930 . S
H1870 C1886 0.959 . S
H1871 C1886 0.959 . S
H1872 C1886 0.961 . S
H1873 C1887 0.960 . S
H1874 C1887 0.961 . S
H1875 C1887 0.959 . S
H1876 C1890 0.929 . S
H1877 C1891 0.931 . S
H1878 C1893 0.930 . S
C1879 H1867 0.930 . S
C1879 C1880 1.399 . S
C1879 C1884 1.399 . S
C1880 C1879 1.399 . S
C1880 C1881 1.376 . S
C1881 H1868 0.930 . S
C1881 C1880 1.376 . S
C1881 C1882 1.388 . S
C1882 H1869 0.930 . S
C1882 C1881 1.388 . S
C1882 C1883 1.390 . S
C1883 C1882 1.390 . S
C1883 C1884 1.394 . S
C1883 C1889 1.465 . S
C1884 C1879 1.399 . S
C1884 C1883 1.394 . S
C1884 C1885 1.516 . S
C1885 C1884 1.516 . S
C1885 C1886 1.502 . S
C1885 C1887 1.561 . S
C1885 C1888 1.526 . S
C1886 H1870 0.959 . S
C1886 H1871 0.959 . S
C1886 H1872 0.961 . S
C1886 C1885 1.502 . S
C1887 H1873 0.960 . S
C1887 H1874 0.961 . S
C1887 H1875 0.959 . S
C1887 C1885 1.561 . S
C1888 C1885 1.526 . S
C1888 C1889 1.396 . S
C1888 C1893 1.390 . S
C1889 C1883 1.465 . S
C1889 C1888 1.396 . S
C1889 C1890 1.399 . S
C1890 H1876 0.929 . S
C1890 C1889 1.399 . S
C1890 C1891 1.385 . S
C1891 H1877 0.931 . S
C1891 C1890 1.385 . S
C1891 C1892 1.389 . S
C1892 C1891 1.389 . S
C1892 C1893 1.387 . S
C1893 H1878 0.930 . S
C1893 C1888 1.390 . S
C1893 C1892 1.387 . S
H1894 C1906 0.930 . S
H1895 C1908 0.930 . S
H1896 C1909 0.930 . S
H1897 C1913 0.959 . S
H1898 C1913 0.959 . S
H1899 C1913 0.961 . S
H1900 C1914 0.960 . S
H1901 C1914 0.961 . S
H1902 C1914 0.959 . S
H1903 C1917 0.929 . S
H1904 C1918 0.931 . S
H1905 C1920 0.930 . S
C1906 H1894 0.930 . S
C1906 C1907 1.399 . S
C1906 C1911 1.399 . S
C1907 C1906 1.399 . S
C1907 C1908 1.376 . S
C1908 H1895 0.930 . S
C1908 C1907 1.376 . S
C1908 C1909 1.388 . S
C1909 H1896 0.930 . S
C1909 C1908 1.388 . S
C1909 C1910 1.390 . S
C1910 C1909 1.390 . S
C1910 C1911 1.394 . S
C1910 C1916 1.465 . S
C1911 C1906 1.399 . S
C1911 C1910 1.394 . S
C1911 C1912 1.516 . S
C1912 C1911 1.516 . S
C1912 C1913 1.502 . S
C1912 C1914 1.561 . S
C1912 C1915 1.526 . S
C1913 H1897 0.959 . S
C1913 H1898 0.959 . S
C1913 H1899 0.961 . S
C1913 C1912 1.502 . S
C1914 H1900 0.960 . S
C1914 H1901 0.961 . S
C1914 H1902 0.959 . S
C1914 C1912 1.561 . S
C1915 C1912 1.526 . S
C1915 C1916 1.396 . S
C1915 C1920 1.390 . S
C1916 C1910 1.465 . S
C1916 C1915 1.396 . S
C1916 C1917 1.399 . S
C1917 H1903 0.929 . S
C1917 C1916 1.399 . S
C1917 C1918 1.385 . S
C1918 H1904 0.931 . S
C1918 C1917 1.385 . S
C1918 C1919 1.389 . S
C1919 C1918 1.389 . S
C1919 C1920 1.387 . S
C1920 H1905 0.930 . S
C1920 C1915 1.390 . S
C1920 C1919 1.387 . S
H1921 C1933 0.930 . S
H1922 C1935 0.930 . S
H1923 C1936 0.930 . S
H1924 C1940 0.959 . S
H1925 C1940 0.959 . S
H1926 C1940 0.961 . S
H1927 C1941 0.960 . S
H1928 C1941 0.961 . S
H1929 C1941 0.959 . S
H1930 C1944 0.929 . S
H1931 C1945 0.931 . S
H1932 C1947 0.930 . S
C1933 H1921 0.930 . S
C1933 C1934 1.399 . S
C1933 C1938 1.399 . S
C1934 C1933 1.399 . S
C1934 C1935 1.376 . S
C1935 H1922 0.930 . S
C1935 C1934 1.376 . S
C1935 C1936 1.388 . S
C1936 H1923 0.930 . S
C1936 C1935 1.388 . S
C1936 C1937 1.390 . S
C1937 C1936 1.390 . S
C1937 C1938 1.394 . S
C1937 C1943 1.465 . S
C1938 C1933 1.399 . S
C1938 C1937 1.394 . S
C1938 C1939 1.516 . S
C1939 C1938 1.516 . S
C1939 C1940 1.502 . S
C1939 C1941 1.561 . S
C1939 C1942 1.526 . S
C1940 H1924 0.959 . S
C1940 H1925 0.959 . S
C1940 H1926 0.961 . S
C1940 C1939 1.502 . S
C1941 H1927 0.960 . S
C1941 H1928 0.961 . S
C1941 H1929 0.959 . S
C1941 C1939 1.561 . S
C1942 C1939 1.526 . S
C1942 C1943 1.396 . S
C1942 C1947 1.390 . S
C1943 C1937 1.465 . S
C1943 C1942 1.396 . S
C1943 C1944 1.399 . S
C1944 H1930 0.929 . S
C1944 C1943 1.399 . S
C1944 C1945 1.385 . S
C1945 H1931 0.931 . S
C1945 C1944 1.385 . S
C1945 C1946 1.389 . S
C1946 C1945 1.389 . S
C1946 C1947 1.387 . S
C1947 H1932 0.930 . S
C1947 C1942 1.390 . S
C1947 C1946 1.387 . S
H1948 C1960 0.930 . S
H1949 C1962 0.930 . S
H1950 C1963 0.930 . S
H1951 C1967 0.959 . S
H1952 C1967 0.959 . S
H1953 C1967 0.961 . S
H1954 C1968 0.960 . S
H1955 C1968 0.961 . S
H1956 C1968 0.959 . S
H1957 C1971 0.929 . S
H1958 C1972 0.931 . S
H1959 C1974 0.930 . S
C1960 H1948 0.930 . S
C1960 C1961 1.399 . S
C1960 C1965 1.399 . S
C1961 C1960 1.399 . S
C1961 C1962 1.376 . S
C1962 H1949 0.930 . S
C1962 C1961 1.376 . S
C1962 C1963 1.388 . S
C1963 H1950 0.930 . S
C1963 C1962 1.388 . S
C1963 C1964 1.390 . S
C1964 C1963 1.390 . S
C1964 C1965 1.394 . S
C1964 C1970 1.465 . S
C1965 C1960 1.399 . S
C1965 C1964 1.394 . S
C1965 C1966 1.516 . S
C1966 C1965 1.516 . S
C1966 C1967 1.502 . S
C1966 C1968 1.561 . S
C1966 C1969 1.526 . S
C1967 H1951 0.959 . S
C1967 H1952 0.959 . S
C1967 H1953 0.961 . S
C1967 C1966 1.502 . S
C1968 H1954 0.960 . S
C1968 H1955 0.961 . S
C1968 H1956 0.959 . S
C1968 C1966 1.561 . S
C1969 C1966 1.526 . S
C1969 C1970 1.396 . S
C1969 C1974 1.390 . S
C1970 C1964 1.465 . S
C1970 C1969 1.396 . S
C1970 C1971 1.399 . S
C1971 H1957 0.929 . S
C1971 C1970 1.399 . S
C1971 C1972 1.385 . S
C1972 H1958 0.931 . S
C1972 C1971 1.385 . S
C1972 C1973 1.389 . S
C1973 C1972 1.389 . S
C1973 C1974 1.387 . S
C1974 H1959 0.930 . S
C1974 C1969 1.390 . S
C1974 C1973 1.387 . S
H1975 C1987 0.930 . S
H1976 C1989 0.930 . S
H1977 C1990 0.930 . S
H1978 C1994 0.959 . S
H1979 C1994 0.959 . S
H1980 C1994 0.961 . S
H1981 C1995 0.960 . S
H1982 C1995 0.961 . S
H1983 C1995 0.959 . S
H1984 C1998 0.929 . S
H1985 C1999 0.931 . S
H1986 C2001 0.930 . S
C1987 H1975 0.930 . S
C1987 C1988 1.399 . S
C1987 C1992 1.399 . S
C1988 C1987 1.399 . S
C1988 C1989 1.376 . S
C1989 H1976 0.930 . S
C1989 C1988 1.376 . S
C1989 C1990 1.388 . S
C1990 H1977 0.930 . S
C1990 C1989 1.388 . S
C1990 C1991 1.390 . S
C1991 C1990 1.390 . S
C1991 C1992 1.394 . S
C1991 C1997 1.465 . S
C1992 C1987 1.399 . S
C1992 C1991 1.394 . S
C1992 C1993 1.516 . S
C1993 C1992 1.516 . S
C1993 C1994 1.502 . S
C1993 C1995 1.561 . S
C1993 C1996 1.526 . S
C1994 H1978 0.959 . S
C1994 H1979 0.959 . S
C1994 H1980 0.961 . S
C1994 C1993 1.502 . S
C1995 H1981 0.960 . S
C1995 H1982 0.961 . S
C1995 H1983 0.959 . S
C1995 C1993 1.561 . S
C1996 C1993 1.526 . S
C1996 C1997 1.396 . S
C1996 C2001 1.390 . S
C1997 C1991 1.465 . S
C1997 C1996 1.396 . S
C1997 C1998 1.399 . S
C1998 H1984 0.929 . S
C1998 C1997 1.399 . S
C1998 C1999 1.385 . S
C1999 H1985 0.931 . S
C1999 C1998 1.385 . S
C1999 C2000 1.389 . S
C2000 C1999 1.389 . S
C2000 C2001 1.387 . S
C2001 H1986 0.930 . S
C2001 C1996 1.390 . S
C2001 C2000 1.387 . S
H2002 C2014 0.930 . S
H2003 C2016 0.930 . S
H2004 C2017 0.930 . S
H2005 C2021 0.959 . S
H2006 C2021 0.959 . S
H2007 C2021 0.961 . S
H2008 C2022 0.960 . S
H2009 C2022 0.961 . S
H2010 C2022 0.959 . S
H2011 C2025 0.896 1_565 S
H2012 C2026 0.931 . S
H2013 C2028 0.930 . S
C2014 H2002 0.930 . S
C2014 C2015 1.399 . S
C2014 C2019 1.399 . S
C2015 C2014 1.399 . S
C2015 C2016 1.376 . S
C2016 H2003 0.930 . S
C2016 C2015 1.376 . S
C2016 C2017 1.388 . S
C2017 H2004 0.930 . S
C2017 C2016 1.388 . S
C2017 C2018 1.390 . S
C2018 C2017 1.390 . S
C2018 C2019 1.394 . S
C2018 C2024 1.465 . S
C2019 C2014 1.399 . S
C2019 C2018 1.394 . S
C2019 C2020 1.516 . S
C2020 C2019 1.516 . S
C2020 C2021 1.502 . S
C2020 C2022 1.561 . S
C2020 C2023 1.526 . S
C2021 H2005 0.959 . S
C2021 H2006 0.959 . S
C2021 H2007 0.961 . S
C2021 C2020 1.502 . S
C2022 H2008 0.960 . S
C2022 H2009 0.961 . S
C2022 H2010 0.959 . S
C2022 C2020 1.561 . S
C2023 C2020 1.526 . S
C2023 C2024 1.396 . S
C2023 C2028 1.390 . S
C2024 C2018 1.465 . S
C2024 C2023 1.396 . S
C2024 C2025 1.451 . S
C2025 H2011 0.896 1_545 S
C2025 C2024 1.451 . S
C2025 C2026 1.368 1_545 S
C2026 H2012 0.931 . S
C2026 C2025 1.368 1_565 S
C2026 C2027 1.389 1_565 S
C2027 C2026 1.389 1_545 S
C2027 C2028 1.387 . S
C2028 H2013 0.930 . S
C2028 C2023 1.390 . S
C2028 C2027 1.387 . S
H2029 C2041 0.930 . S
H2030 C2043 0.930 . S
H2031 C2044 0.930 . S
H2032 C2048 0.959 . S
H2033 C2048 0.959 . S
H2034 C2048 0.961 . S
H2035 C2049 0.960 . S
H2036 C2049 0.961 . S
H2037 C2049 0.959 . S
H2038 C2052 0.929 . S
H2039 C2053 0.931 . S
H2040 C2055 0.930 . S
C2041 H2029 0.930 . S
C2041 C2042 1.399 . S
C2041 C2046 1.399 . S
C2042 C2041 1.399 . S
C2042 C2043 1.376 . S
C2043 H2030 0.930 . S
C2043 C2042 1.376 . S
C2043 C2044 1.388 . S
C2044 H2031 0.930 . S
C2044 C2043 1.388 . S
C2044 C2045 1.390 . S
C2045 C2044 1.390 . S
C2045 C2046 1.394 . S
C2045 C2051 1.465 . S
C2046 C2041 1.399 . S
C2046 C2045 1.394 . S
C2046 C2047 1.516 . S
C2047 C2046 1.516 . S
C2047 C2048 1.502 . S
C2047 C2049 1.561 . S
C2047 C2050 1.526 . S
C2048 H2032 0.959 . S
C2048 H2033 0.959 . S
C2048 H2034 0.961 . S
C2048 C2047 1.502 . S
C2049 H2035 0.960 . S
C2049 H2036 0.961 . S
C2049 H2037 0.959 . S
C2049 C2047 1.561 . S
C2050 C2047 1.526 . S
C2050 C2051 1.396 . S
C2050 C2055 1.390 . S
C2051 C2045 1.465 . S
C2051 C2050 1.396 . S
C2051 C2052 1.399 . S
C2052 H2038 0.929 . S
C2052 C2051 1.399 . S
C2052 C2053 1.385 . S
C2053 H2039 0.931 . S
C2053 C2052 1.385 . S
C2053 C2054 1.389 . S
C2054 C2053 1.389 . S
C2054 C2055 1.387 . S
C2055 H2040 0.930 . S
C2055 C2050 1.390 . S
C2055 C2054 1.387 . S
H2056 C2068 0.930 . S
H2057 C2070 0.930 . S
H2058 C2071 0.930 . S
H2059 C2075 0.959 . S
H2060 C2075 0.959 . S
H2061 C2075 0.961 . S
H2062 C2076 0.960 . S
H2063 C2076 0.961 . S
H2064 C2076 0.959 . S
H2065 C2079 0.929 . S
H2066 C2080 0.931 . S
H2067 C2082 0.930 . S
C2068 H2056 0.930 . S
C2068 C2069 1.399 . S
C2068 C2073 1.399 . S
C2069 C2068 1.399 . S
C2069 C2070 1.376 1_554 S
C2070 H2057 0.930 . S
C2070 C2069 1.376 1_556 S
C2070 C2071 1.388 . S
C2071 H2058 0.930 . S
C2071 C2070 1.388 . S
C2071 C2072 1.390 . S
C2072 C2071 1.390 . S
C2072 C2073 1.394 1_556 S
C2072 C2078 1.465 . S
C2073 C2068 1.399 . S
C2073 C2072 1.394 1_554 S
C2073 C2074 1.516 . S
C2074 C2073 1.516 . S
C2074 C2075 1.502 . S
C2074 C2076 1.561 . S
C2074 C2077 1.526 . S
C2075 H2059 0.959 . S
C2075 H2060 0.959 . S
C2075 H2061 0.961 . S
C2075 C2074 1.502 . S
C2076 H2062 0.960 . S
C2076 H2063 0.961 . S
C2076 H2064 0.959 . S
C2076 C2074 1.561 . S
C2077 C2074 1.526 . S
C2077 C2078 1.396 1_554 S
C2077 C2082 1.390 . S
C2078 C2072 1.465 . S
C2078 C2077 1.396 1_556 S
C2078 C2079 1.399 . S
C2079 H2065 0.929 . S
C2079 C2078 1.399 . S
C2079 C2080 1.385 . S
C2080 H2066 0.931 . S
C2080 C2079 1.385 . S
C2080 C2081 1.389 . S
C2081 C2080 1.389 . S
C2081 C2082 1.387 1_556 S
C2082 H2067 0.930 . S
C2082 C2077 1.390 . S
C2082 C2081 1.387 1_554 S
H2083 C2095 0.930 . S
H2084 C2097 0.930 . S
H2085 C2098 0.930 . S
H2086 C2102 0.959 . S
H2087 C2102 0.959 . S
H2088 C2102 0.961 . S
H2089 C2103 0.960 . S
H2090 C2103 0.961 . S
H2091 C2103 0.959 1_556 S
H2092 C2106 0.929 . S
H2093 C2107 0.931 . S
H2094 C2109 0.930 . S
C2095 H2083 0.930 . S
C2095 C2096 1.399 . S
C2095 C2100 1.399 . S
C2096 C2095 1.399 . S
C2096 C2097 1.376 . S
C2097 H2084 0.930 . S
C2097 C2096 1.376 . S
C2097 C2098 1.388 . S
C2098 H2085 0.930 . S
C2098 C2097 1.388 . S
C2098 C2099 1.390 . S
C2099 C2098 1.390 . S
C2099 C2100 1.394 . S
C2099 C2105 1.465 . S
C2100 C2095 1.399 . S
C2100 C2099 1.394 . S
C2100 C2101 1.516 . S
C2101 C2100 1.516 . S
C2101 C2102 1.502 . S
C2101 C2103 1.561 . S
C2101 C2104 1.526 . S
C2102 H2086 0.959 . S
C2102 H2087 0.959 . S
C2102 H2088 0.961 . S
C2102 C2101 1.502 . S
C2103 H2089 0.960 . S
C2103 H2090 0.961 . S
C2103 H2091 0.959 1_554 S
C2103 C2101 1.561 . S
C2104 C2101 1.526 . S
C2104 C2105 1.396 . S
C2104 C2109 1.390 . S
C2105 C2099 1.465 . S
C2105 C2104 1.396 . S
C2105 C2106 1.399 . S
C2106 H2092 0.929 . S
C2106 C2105 1.399 . S
C2106 C2107 1.385 . S
C2107 H2093 0.931 . S
C2107 C2106 1.385 . S
C2107 C2108 1.389 . S
C2108 C2107 1.389 . S
C2108 C2109 1.387 . S
C2109 H2094 0.930 . S
C2109 C2104 1.390 . S
C2109 C2108 1.387 . S
H2110 C2122 0.930 . S
H2111 C2124 0.930 . S
H2112 C2125 0.930 . S
H2113 C2129 0.959 . S
H2114 C2129 0.959 . S
H2115 C2129 0.961 . S
H2116 C2130 0.960 . S
H2117 C2130 0.961 . S
H2118 C2130 0.959 . S
H2119 C2133 0.929 . S
H2120 C2134 0.931 . S
H2121 C2136 0.930 . S
C2122 H2110 0.930 . S
C2122 C2123 1.399 . S
C2122 C2127 1.399 . S
C2123 C2122 1.399 . S
C2123 C2124 1.376 . S
C2124 H2111 0.930 . S
C2124 C2123 1.376 . S
C2124 C2125 1.388 . S
C2125 H2112 0.930 . S
C2125 C2124 1.388 . S
C2125 C2126 1.390 . S
C2126 C2125 1.390 . S
C2126 C2127 1.394 . S
C2126 C2132 1.465 . S
C2127 C2122 1.399 . S
C2127 C2126 1.394 . S
C2127 C2128 1.516 . S
C2128 C2127 1.516 . S
C2128 C2129 1.502 . S
C2128 C2130 1.561 . S
C2128 C2131 1.526 . S
C2129 H2113 0.959 . S
C2129 H2114 0.959 . S
C2129 H2115 0.961 . S
C2129 C2128 1.502 . S
C2130 H2116 0.960 . S
C2130 H2117 0.961 . S
C2130 H2118 0.959 . S
C2130 C2128 1.561 . S
C2131 C2128 1.526 . S
C2131 C2132 1.396 . S
C2131 C2136 1.390 . S
C2132 C2126 1.465 . S
C2132 C2131 1.396 . S
C2132 C2133 1.399 . S
C2133 H2119 0.929 . S
C2133 C2132 1.399 . S
C2133 C2134 1.385 . S
C2134 H2120 0.931 . S
C2134 C2133 1.385 . S
C2134 C2135 1.389 . S
C2135 C2134 1.389 . S
C2135 C2136 1.387 . S
C2136 H2121 0.930 . S
C2136 C2131 1.390 . S
C2136 C2135 1.387 . S
H2137 C2149 0.930 . S
H2138 C2151 0.930 . S
H2139 C2152 0.930 . S
H2140 C2156 0.959 . S
H2141 C2156 0.959 . S
H2142 C2156 0.961 . S
H2143 C2157 0.960 . S
H2144 C2157 0.961 . S
H2145 C2157 0.959 . S
H2146 C2160 0.929 . S
H2147 C2161 0.931 . S
H2148 C2163 0.930 . S
C2149 H2137 0.930 . S
C2149 C2150 1.399 . S
C2149 C2154 1.399 . S
C2150 C2149 1.399 . S
C2150 C2151 1.376 . S
C2151 H2138 0.930 . S
C2151 C2150 1.376 . S
C2151 C2152 1.388 . S
C2152 H2139 0.930 . S
C2152 C2151 1.388 . S
C2152 C2153 1.390 . S
C2153 C2152 1.390 . S
C2153 C2154 1.394 . S
C2153 C2159 1.465 . S
C2154 C2149 1.399 . S
C2154 C2153 1.394 . S
C2154 C2155 1.516 . S
C2155 C2154 1.516 . S
C2155 C2156 1.502 . S
C2155 C2157 1.561 . S
C2155 C2158 1.526 . S
C2156 H2140 0.959 . S
C2156 H2141 0.959 . S
C2156 H2142 0.961 . S
C2156 C2155 1.502 . S
C2157 H2143 0.960 . S
C2157 H2144 0.961 . S
C2157 H2145 0.959 . S
C2157 C2155 1.561 . S
C2158 C2155 1.526 . S
C2158 C2159 1.396 . S
C2158 C2163 1.390 . S
C2159 C2153 1.465 . S
C2159 C2158 1.396 . S
C2159 C2160 1.399 . S
C2160 H2146 0.929 . S
C2160 C2159 1.399 . S
C2160 C2161 1.385 . S
C2161 H2147 0.931 . S
C2161 C2160 1.385 . S
C2161 C2162 1.389 . S
C2162 C2161 1.389 . S
C2162 C2163 1.387 . S
C2163 H2148 0.930 . S
C2163 C2158 1.390 . S
C2163 C2162 1.387 . S
H2164 C2176 0.930 . S
H2165 C2178 0.930 . S
H2166 C2179 0.930 . S
H2167 C2183 0.959 . S
H2168 C2183 0.959 . S
H2169 C2183 0.961 . S
H2170 C2184 0.960 . S
H2171 C2184 0.961 . S
H2172 C2184 0.959 . S
H2173 C2187 0.929 . S
H2174 C2188 0.931 . S
H2175 C2190 0.930 . S
C2176 H2164 0.930 . S
C2176 C2177 1.399 . S
C2176 C2181 1.399 . S
C2177 C2176 1.399 . S
C2177 C2178 1.376 . S
C2178 H2165 0.930 . S
C2178 C2177 1.376 . S
C2178 C2179 1.388 . S
C2179 H2166 0.930 . S
C2179 C2178 1.388 . S
C2179 C2180 1.390 . S
C2180 C2179 1.390 . S
C2180 C2181 1.394 . S
C2180 C2186 1.465 . S
C2181 C2176 1.399 . S
C2181 C2180 1.394 . S
C2181 C2182 1.516 . S
C2182 C2181 1.516 . S
C2182 C2183 1.502 . S
C2182 C2184 1.561 . S
C2182 C2185 1.526 . S
C2183 H2167 0.959 . S
C2183 H2168 0.959 . S
C2183 H2169 0.961 . S
C2183 C2182 1.502 . S
C2184 H2170 0.960 . S
C2184 H2171 0.961 . S
C2184 H2172 0.959 . S
C2184 C2182 1.561 . S
C2185 C2182 1.526 . S
C2185 C2186 1.396 . S
C2185 C2190 1.390 . S
C2186 C2180 1.465 . S
C2186 C2185 1.396 . S
C2186 C2187 1.399 . S
C2187 H2173 0.929 . S
C2187 C2186 1.399 . S
C2187 C2188 1.385 . S
C2188 H2174 0.931 . S
C2188 C2187 1.385 . S
C2188 C2189 1.389 . S
C2189 C2188 1.389 . S
C2189 C2190 1.387 . S
C2190 H2175 0.930 . S
C2190 C2185 1.390 . S
C2190 C2189 1.387 . S
H2191 C2203 0.930 . S
H2192 C2205 0.930 . S
H2193 C2206 0.930 . S
H2194 C2210 0.965 . S
H2195 C2210 0.959 . S
H2196 C2210 0.961 . S
H2197 C2211 0.960 . S
H2198 C2211 0.961 . S
H2199 C2211 0.959 . S
H2200 C2214 0.929 . S
H2201 C2215 0.931 . S
H2202 C2217 0.930 . S
C2203 H2191 0.930 . S
C2203 C2204 1.399 . S
C2203 C2208 1.399 . S
C2204 C2203 1.399 . S
C2204 C2205 1.376 . S
C2205 H2192 0.930 . S
C2205 C2204 1.376 . S
C2205 C2206 1.388 . S
C2206 H2193 0.930 . S
C2206 C2205 1.388 . S
C2206 C2207 1.390 . S
C2207 C2206 1.390 . S
C2207 C2208 1.394 . S
C2207 C2213 1.465 . S
C2208 C2203 1.399 . S
C2208 C2207 1.394 . S
C2208 C2209 1.516 . S
C2209 C2208 1.516 . S
C2209 C2210 1.502 . S
C2209 C2211 1.561 . S
C2209 C2212 1.526 . S
C2210 H2194 0.965 . S
C2210 H2195 0.959 . S
C2210 H2196 0.961 . S
C2210 C2209 1.502 . S
C2211 H2197 0.960 . S
C2211 H2198 0.961 . S
C2211 H2199 0.959 . S
C2211 C2209 1.561 . S
C2212 C2209 1.526 . S
C2212 C2213 1.396 . S
C2212 C2217 1.390 . S
C2213 C2207 1.465 . S
C2213 C2212 1.396 . S
C2213 C2214 1.399 . S
C2214 H2200 0.929 . S
C2214 C2213 1.399 . S
C2214 C2215 1.385 . S
C2215 H2201 0.931 . S
C2215 C2214 1.385 . S
C2215 C2216 1.389 . S
C2216 C2215 1.389 . S
C2216 C2217 1.387 . S
C2217 H2202 0.930 . S
C2217 C2212 1.390 . S
C2217 C2216 1.387 . S
H2218 C2230 0.930 . S
H2219 C2232 0.930 . S
H2220 C2233 0.930 . S
H2221 C2237 0.959 . S
H2222 C2237 0.959 . S
H2223 C2237 0.961 . S
H2224 C2238 0.960 . S
H2225 C2238 0.961 . S
H2226 C2238 0.959 . S
H2227 C2241 0.929 . S
H2228 C2242 0.931 . S
H2229 C2244 0.930 . S
C2230 H2218 0.930 . S
C2230 C2231 1.399 . S
C2230 C2235 1.399 . S
C2231 C2230 1.399 . S
C2231 C2232 1.376 . S
C2232 H2219 0.930 . S
C2232 C2231 1.376 . S
C2232 C2233 1.388 . S
C2233 H2220 0.930 . S
C2233 C2232 1.388 . S
C2233 C2234 1.390 . S
C2234 C2233 1.390 . S
C2234 C2235 1.394 . S
C2234 C2240 1.465 . S
C2235 C2230 1.399 . S
C2235 C2234 1.394 . S
C2235 C2236 1.516 . S
C2236 C2235 1.516 . S
C2236 C2237 1.502 . S
C2236 C2238 1.561 . S
C2236 C2239 1.526 . S
C2237 H2221 0.959 . S
C2237 H2222 0.959 . S
C2237 H2223 0.961 . S
C2237 C2236 1.502 . S
C2238 H2224 0.960 . S
C2238 H2225 0.961 . S
C2238 H2226 0.959 . S
C2238 C2236 1.561 . S
C2239 C2236 1.526 . S
C2239 C2240 1.396 . S
C2239 C2244 1.390 . S
C2240 C2234 1.465 . S
C2240 C2239 1.396 . S
C2240 C2241 1.399 . S
C2241 H2227 0.929 . S
C2241 C2240 1.399 . S
C2241 C2242 1.385 . S
C2242 H2228 0.931 . S
C2242 C2241 1.385 . S
C2242 C2243 1.389 . S
C2243 C2242 1.389 . S
C2243 C2244 1.387 . S
C2244 H2229 0.930 . S
C2244 C2239 1.390 . S
C2244 C2243 1.387 . S
H2245 C2257 0.930 . S
H2246 C2259 0.930 . S
H2247 C2260 0.930 . S
H2248 C2264 0.959 . S
H2249 C2264 0.959 . S
H2250 C2264 0.961 . S
H2251 C2265 0.960 . S
H2252 C2265 0.961 . S
H2253 C2265 0.959 . S
H2254 C2268 0.929 . S
H2255 C2269 0.931 . S
H2256 C2271 0.930 . S
C2257 H2245 0.930 . S
C2257 C2258 1.399 . S
C2257 C2262 1.399 . S
C2258 C2257 1.399 . S
C2258 C2259 1.376 . S
C2259 H2246 0.930 . S
C2259 C2258 1.376 . S
C2259 C2260 1.388 . S
C2260 H2247 0.930 . S
C2260 C2259 1.388 . S
C2260 C2261 1.390 . S
C2261 C2260 1.390 . S
C2261 C2262 1.394 . S
C2261 C2267 1.465 . S
C2262 C2257 1.399 . S
C2262 C2261 1.394 . S
C2262 C2263 1.516 . S
C2263 C2262 1.516 . S
C2263 C2264 1.502 . S
C2263 C2265 1.561 . S
C2263 C2266 1.526 . S
C2264 H2248 0.959 . S
C2264 H2249 0.959 . S
C2264 H2250 0.961 . S
C2264 C2263 1.502 . S
C2265 H2251 0.960 . S
C2265 H2252 0.961 . S
C2265 H2253 0.959 . S
C2265 C2263 1.561 . S
C2266 C2263 1.526 . S
C2266 C2267 1.396 . S
C2266 C2271 1.390 . S
C2267 C2261 1.465 . S
C2267 C2266 1.396 . S
C2267 C2268 1.399 . S
C2268 H2254 0.929 . S
C2268 C2267 1.399 . S
C2268 C2269 1.385 . S
C2269 H2255 0.931 . S
C2269 C2268 1.385 . S
C2269 C2270 1.389 . S
C2270 C2269 1.389 . S
C2270 C2271 1.387 . S
C2271 H2256 0.930 . S
C2271 C2266 1.390 . S
C2271 C2270 1.387 . S
H2272 C2284 0.930 . S
H2273 C2286 0.930 . S
H2274 C2287 0.930 . S
H2275 C2291 0.959 . S
H2276 C2291 0.959 . S
H2277 C2291 0.961 . S
H2278 C2292 0.960 . S
H2279 C2292 0.961 . S
H2280 C2292 0.959 . S
H2281 C2295 0.929 . S
H2282 C2296 0.931 . S
H2283 C2298 0.930 . S
C2284 H2272 0.930 . S
C2284 C2285 1.399 . S
C2284 C2289 1.399 . S
C2285 C2284 1.399 . S
C2285 C2286 1.376 . S
C2286 H2273 0.930 . S
C2286 C2285 1.376 . S
C2286 C2287 1.388 . S
C2287 H2274 0.930 . S
C2287 C2286 1.388 . S
C2287 C2288 1.390 . S
C2288 C2287 1.390 . S
C2288 C2289 1.394 . S
C2288 C2294 1.465 . S
C2289 C2284 1.399 . S
C2289 C2288 1.394 . S
C2289 C2290 1.516 . S
C2290 C2289 1.516 . S
C2290 C2291 1.502 . S
C2290 C2292 1.561 . S
C2290 C2293 1.526 . S
C2291 H2275 0.959 . S
C2291 H2276 0.959 . S
C2291 H2277 0.961 . S
C2291 C2290 1.502 . S
C2292 H2278 0.960 . S
C2292 H2279 0.961 . S
C2292 H2280 0.959 . S
C2292 C2290 1.561 . S
C2293 C2290 1.526 . S
C2293 C2294 1.396 . S
C2293 C2298 1.390 . S
C2294 C2288 1.465 . S
C2294 C2293 1.396 . S
C2294 C2295 1.399 . S
C2295 H2281 0.929 . S
C2295 C2294 1.399 . S
C2295 C2296 1.385 . S
C2296 H2282 0.931 . S
C2296 C2295 1.385 . S
C2296 C2297 1.389 . S
C2297 C2296 1.389 . S
C2297 C2298 1.387 . S
C2298 H2283 0.930 . S
C2298 C2293 1.390 . S
C2298 C2297 1.387 . S
H2299 C2311 0.930 . S
H2300 C2313 0.930 . S
H2301 C2314 0.930 . S
H2302 C2318 0.959 . S
H2303 C2318 0.959 . S
H2304 C2318 0.961 . S
H2305 C2319 0.960 . S
H2306 C2319 0.961 . S
H2307 C2319 0.959 . S
H2308 C2322 0.929 . S
H2309 C2323 0.931 . S
H2310 C2325 0.930 . S
C2311 H2299 0.930 . S
C2311 C2312 1.399 . S
C2311 C2316 1.399 . S
C2312 C2311 1.399 . S
C2312 C2313 1.376 . S
C2313 H2300 0.930 . S
C2313 C2312 1.376 . S
C2313 C2314 1.388 . S
C2314 H2301 0.930 . S
C2314 C2313 1.388 . S
C2314 C2315 1.390 . S
C2315 C2314 1.390 . S
C2315 C2316 1.394 . S
C2315 C2321 1.465 . S
C2316 C2311 1.399 . S
C2316 C2315 1.394 . S
C2316 C2317 1.516 . S
C2317 C2316 1.516 . S
C2317 C2318 1.502 . S
C2317 C2319 1.561 . S
C2317 C2320 1.526 . S
C2318 H2302 0.959 . S
C2318 H2303 0.959 . S
C2318 H2304 0.961 . S
C2318 C2317 1.502 . S
C2319 H2305 0.960 . S
C2319 H2306 0.961 . S
C2319 H2307 0.959 . S
C2319 C2317 1.561 . S
C2320 C2317 1.526 . S
C2320 C2321 1.396 . S
C2320 C2325 1.390 . S
C2321 C2315 1.465 . S
C2321 C2320 1.396 . S
C2321 C2322 1.399 . S
C2322 H2308 0.929 . S
C2322 C2321 1.399 . S
C2322 C2323 1.385 . S
C2323 H2309 0.931 . S
C2323 C2322 1.385 . S
C2323 C2324 1.389 . S
C2324 C2323 1.389 . S
C2324 C2325 1.387 . S
C2325 H2310 0.930 . S
C2325 C2320 1.390 . S
C2325 C2324 1.387 . S
H2326 C2338 0.930 . S
H2327 C2340 0.930 . S
H2328 C2341 0.930 . S
H2329 C2345 0.959 . S
H2330 C2345 0.959 . S
H2331 C2345 0.961 . S
H2332 C2346 0.960 . S
H2333 C2346 0.957 1_554 S
H2334 C2346 0.959 1_455 S
H2335 C2349 0.929 . S
H2336 C2350 0.931 . S
H2337 C2352 0.955 . S
C2338 H2326 0.930 . S
C2338 C2339 1.399 1_655 S
C2338 C2343 1.399 1_655 S
C2339 C2338 1.399 1_455 S
C2339 C2340 1.376 . S
C2340 H2327 0.930 . S
C2340 C2339 1.376 . S
C2340 C2341 1.388 . S
C2341 H2328 0.930 . S
C2341 C2340 1.388 . S
C2341 C2342 1.390 . S
C2342 C2341 1.390 . S
C2342 C2343 1.394 . S
C2342 C2348 1.465 . S
C2343 C2338 1.399 1_455 S
C2343 C2342 1.394 . S
C2343 C2344 1.516 1_455 S
C2344 C2343 1.516 1_655 S
C2344 C2345 1.502 . S
C2344 C2346 1.561 . S
C2344 C2347 1.526 1_655 S
C2345 H2329 0.959 . S
C2345 H2330 0.959 . S
C2345 H2331 0.961 . S
C2345 C2344 1.502 . S
C2346 H2332 0.960 . S
C2346 H2333 0.957 1_556 S
C2346 H2334 0.959 1_655 S
C2346 C2344 1.561 . S
C2347 C2344 1.526 1_455 S
C2347 C2348 1.396 . S
C2347 C2352 1.390 . S
C2348 C2342 1.465 . S
C2348 C2347 1.396 . S
C2348 C2349 1.399 . S
C2349 H2335 0.929 . S
C2349 C2348 1.399 . S
C2349 C2350 1.385 . S
C2350 H2336 0.931 . S
C2350 C2349 1.385 . S
C2350 C2351 1.389 . S
C2351 C2350 1.389 . S
C2351 C2352 1.387 . S
C2352 H2337 0.955 . S
C2352 C2347 1.390 . S
C2352 C2351 1.387 . S
H2353 C2365 0.930 . S
H2354 C2367 0.930 . S
H2355 C2368 0.930 . S
H2356 C2372 0.959 . S
H2357 C2372 0.959 . S
H2358 C2372 0.961 . S
H2359 C2373 0.960 . S
H2360 C2373 0.961 . S
H2361 C2373 0.959 . S
H2362 C2376 0.929 . S
H2363 C2377 0.931 . S
H2364 C2379 0.930 . S
C2365 H2353 0.930 . S
C2365 C2366 1.399 . S
C2365 C2370 1.381 1_455 S
C2366 C2365 1.399 . S
C2366 C2367 1.376 . S
C2367 H2354 0.930 . S
C2367 C2366 1.376 . S
C2367 C2368 1.388 . S
C2368 H2355 0.930 . S
C2368 C2367 1.388 . S
C2368 C2369 1.390 1_455 S
C2369 C2368 1.390 1_655 S
C2369 C2370 1.391 . S
C2369 C2375 1.465 . S
C2370 C2365 1.381 1_655 S
C2370 C2369 1.391 . S
C2370 C2371 1.538 . S
C2371 C2370 1.538 . S
C2371 C2372 1.502 . S
C2371 C2373 1.561 . S
C2371 C2374 1.526 . S
C2372 H2356 0.959 . S
C2372 H2357 0.959 . S
C2372 H2358 0.961 . S
C2372 C2371 1.502 . S
C2373 H2359 0.960 . S
C2373 H2360 0.961 . S
C2373 H2361 0.959 . S
C2373 C2371 1.561 . S
C2374 C2371 1.526 . S
C2374 C2375 1.396 . S
C2374 C2379 1.390 . S
C2375 C2369 1.465 . S
C2375 C2374 1.396 . S
C2375 C2376 1.399 . S
C2376 H2362 0.929 . S
C2376 C2375 1.399 . S
C2376 C2377 1.385 . S
C2377 H2363 0.931 . S
C2377 C2376 1.385 . S
C2377 C2378 1.389 . S
C2378 C2377 1.389 . S
C2378 C2379 1.387 . S
C2379 H2364 0.930 . S
C2379 C2374 1.390 . S
C2379 C2378 1.387 . S
H2380 C2392 0.930 . S
H2381 C2394 0.930 . S
H2382 C2395 0.930 . S
H2383 C2399 0.959 . S
H2384 C2399 0.959 . S
H2385 C2399 0.961 . S
H2386 C2400 0.960 . S
H2387 C2400 0.961 . S
H2388 C2400 0.959 . S
H2389 C2403 0.929 . S
H2390 C2404 0.931 . S
H2391 C2406 0.930 . S
C2392 H2380 0.930 . S
C2392 C2393 1.399 . S
C2392 C2397 1.399 . S
C2393 C2392 1.399 . S
C2393 C2394 1.376 . S
C2394 H2381 0.930 . S
C2394 C2393 1.376 . S
C2394 C2395 1.388 . S
C2395 H2382 0.930 . S
C2395 C2394 1.388 . S
C2395 C2396 1.390 . S
C2396 C2395 1.390 . S
C2396 C2397 1.394 . S
C2396 C2402 1.465 . S
C2397 C2392 1.399 . S
C2397 C2396 1.394 . S
C2397 C2398 1.516 . S
C2398 C2397 1.516 . S
C2398 C2399 1.502 . S
C2398 C2400 1.561 . S
C2398 C2401 1.526 . S
C2399 H2383 0.959 . S
C2399 H2384 0.959 . S
C2399 H2385 0.961 . S
C2399 C2398 1.502 . S
C2400 H2386 0.960 . S
C2400 H2387 0.961 . S
C2400 H2388 0.959 . S
C2400 C2398 1.561 . S
C2401 C2398 1.526 . S
C2401 C2402 1.396 . S
C2401 C2406 1.390 . S
C2402 C2396 1.465 . S
C2402 C2401 1.396 . S
C2402 C2403 1.399 . S
C2403 H2389 0.929 . S
C2403 C2402 1.399 . S
C2403 C2404 1.385 . S
C2404 H2390 0.931 . S
C2404 C2403 1.385 . S
C2404 C2405 1.389 . S
C2405 C2404 1.389 . S
C2405 C2406 1.387 . S
C2406 H2391 0.930 . S
C2406 C2401 1.390 . S
C2406 C2405 1.387 . S
H2407 C2419 0.930 . S
H2408 C2421 0.930 . S
H2409 C2422 0.930 . S
H2410 C2426 0.959 . S
H2411 C2426 0.959 . S
H2412 C2426 0.961 . S
H2413 C2427 0.960 . S
H2414 C2427 0.961 . S
H2415 C2427 0.959 . S
H2416 C2430 0.929 . S
H2417 C2431 0.931 . S
H2418 C2433 0.930 . S
C2419 H2407 0.930 . S
C2419 C2420 1.399 . S
C2419 C2424 1.399 . S
C2420 C2419 1.399 . S
C2420 C2421 1.376 . S
C2421 H2408 0.930 . S
C2421 C2420 1.376 . S
C2421 C2422 1.388 . S
C2422 H2409 0.930 . S
C2422 C2421 1.388 . S
C2422 C2423 1.390 . S
C2423 C2422 1.390 . S
C2423 C2424 1.394 . S
C2423 C2429 1.465 . S
C2424 C2419 1.399 . S
C2424 C2423 1.394 . S
C2424 C2425 1.516 . S
C2425 C2424 1.516 . S
C2425 C2426 1.502 . S
C2425 C2427 1.561 . S
C2425 C2428 1.526 . S
C2426 H2410 0.959 . S
C2426 H2411 0.959 . S
C2426 H2412 0.961 . S
C2426 C2425 1.502 . S
C2427 H2413 0.960 . S
C2427 H2414 0.961 . S
C2427 H2415 0.959 . S
C2427 C2425 1.561 . S
C2428 C2425 1.526 . S
C2428 C2429 1.396 . S
C2428 C2433 1.390 . S
C2429 C2423 1.465 . S
C2429 C2428 1.396 . S
C2429 C2430 1.399 . S
C2430 H2416 0.929 . S
C2430 C2429 1.399 . S
C2430 C2431 1.385 . S
C2431 H2417 0.931 . S
C2431 C2430 1.385 . S
C2431 C2432 1.389 . S
C2432 C2431 1.389 . S
C2432 C2433 1.387 . S
C2433 H2418 0.930 . S
C2433 C2428 1.390 . S
C2433 C2432 1.387 . S
H2434 C2446 0.930 . S
H2435 C2448 0.930 . S
H2436 C2449 0.930 . S
H2437 C2453 0.959 . S
H2438 C2453 0.959 . S
H2439 C2453 0.961 . S
H2440 C2454 0.960 . S
H2441 C2454 0.961 . S
H2442 C2454 0.959 . S
H2443 C2457 0.929 . S
H2444 C2458 0.931 . S
H2445 C2460 0.930 . S
C2446 H2434 0.930 . S
C2446 C2447 1.399 . S
C2446 C2451 1.399 . S
C2447 C2446 1.399 . S
C2447 C2448 1.376 . S
C2448 H2435 0.930 . S
C2448 C2447 1.376 . S
C2448 C2449 1.388 . S
C2449 H2436 0.930 . S
C2449 C2448 1.388 . S
C2449 C2450 1.390 . S
C2450 C2449 1.390 . S
C2450 C2451 1.394 . S
C2450 C2456 1.465 . S
C2451 C2446 1.399 . S
C2451 C2450 1.394 . S
C2451 C2452 1.516 . S
C2452 C2451 1.516 . S
C2452 C2453 1.502 . S
C2452 C2454 1.561 . S
C2452 C2455 1.526 . S
C2453 H2437 0.959 . S
C2453 H2438 0.959 . S
C2453 H2439 0.961 . S
C2453 C2452 1.502 . S
C2454 H2440 0.960 . S
C2454 H2441 0.961 . S
C2454 H2442 0.959 . S
C2454 C2452 1.561 . S
C2455 C2452 1.526 . S
C2455 C2456 1.396 . S
C2455 C2460 1.390 . S
C2456 C2450 1.465 . S
C2456 C2455 1.396 . S
C2456 C2457 1.399 . S
C2457 H2443 0.929 . S
C2457 C2456 1.399 . S
C2457 C2458 1.385 . S
C2458 H2444 0.931 . S
C2458 C2457 1.385 . S
C2458 C2459 1.389 . S
C2459 C2458 1.389 . S
C2459 C2460 1.387 . S
C2460 H2445 0.930 . S
C2460 C2455 1.390 . S
C2460 C2459 1.387 . S
H2461 C2473 0.930 . S
H2462 C2475 0.930 . S
H2463 C2476 0.930 . S
H2464 C2480 0.959 . S
H2465 C2480 0.959 . S
H2466 C2480 0.961 . S
H2467 C2481 0.960 . S
H2468 C2481 0.961 . S
H2469 C2481 0.959 . S
H2470 C2484 0.929 . S
H2471 C2485 0.931 . S
H2472 C2487 0.930 . S
C2473 H2461 0.930 . S
C2473 C2474 1.399 . S
C2473 C2478 1.399 . S
C2474 C2473 1.399 . S
C2474 C2475 1.376 . S
C2475 H2462 0.930 . S
C2475 C2474 1.376 . S
C2475 C2476 1.388 . S
C2476 H2463 0.930 . S
C2476 C2475 1.388 . S
C2476 C2477 1.390 . S
C2477 C2476 1.390 . S
C2477 C2478 1.394 . S
C2477 C2483 1.465 . S
C2478 C2473 1.399 . S
C2478 C2477 1.394 . S
C2478 C2479 1.516 . S
C2479 C2478 1.516 . S
C2479 C2480 1.502 . S
C2479 C2481 1.561 . S
C2479 C2482 1.526 . S
C2480 H2464 0.959 . S
C2480 H2465 0.959 . S
C2480 H2466 0.961 . S
C2480 C2479 1.502 . S
C2481 H2467 0.960 . S
C2481 H2468 0.961 . S
C2481 H2469 0.959 . S
C2481 C2479 1.561 . S
C2482 C2479 1.526 . S
C2482 C2483 1.396 . S
C2482 C2487 1.390 . S
C2483 C2477 1.465 . S
C2483 C2482 1.396 . S
C2483 C2484 1.399 . S
C2484 H2470 0.929 . S
C2484 C2483 1.399 . S
C2484 C2485 1.385 . S
C2485 H2471 0.931 . S
C2485 C2484 1.385 . S
C2485 C2486 1.389 . S
C2486 C2485 1.389 . S
C2486 C2487 1.387 . S
C2487 H2472 0.930 . S
C2487 C2482 1.390 . S
C2487 C2486 1.387 . S
H2488 C2500 0.930 . S
H2489 C2502 0.930 . S
H2490 C2503 0.930 . S
H2491 C2507 0.959 . S
H2492 C2507 0.959 . S
H2493 C2507 0.961 . S
H2494 C2508 0.960 . S
H2495 C2508 0.961 . S
H2496 C2508 0.959 . S
H2497 C2511 0.929 . S
H2498 C2512 0.931 . S
H2499 C2514 0.930 . S
C2500 H2488 0.930 . S
C2500 C2501 1.399 . S
C2500 C2505 1.399 . S
C2501 C2500 1.399 . S
C2501 C2502 1.376 . S
C2502 H2489 0.930 . S
C2502 C2501 1.376 . S
C2502 C2503 1.388 . S
C2503 H2490 0.930 . S
C2503 C2502 1.388 . S
C2503 C2504 1.390 . S
C2504 C2503 1.390 . S
C2504 C2505 1.394 . S
C2504 C2510 1.465 . S
C2505 C2500 1.399 . S
C2505 C2504 1.394 . S
C2505 C2506 1.516 . S
C2506 C2505 1.516 . S
C2506 C2507 1.502 . S
C2506 C2508 1.561 . S
C2506 C2509 1.526 . S
C2507 H2491 0.959 . S
C2507 H2492 0.959 . S
C2507 H2493 0.961 . S
C2507 C2506 1.502 . S
C2508 H2494 0.960 . S
C2508 H2495 0.961 . S
C2508 H2496 0.959 . S
C2508 C2506 1.561 . S
C2509 C2506 1.526 . S
C2509 C2510 1.396 . S
C2509 C2514 1.390 . S
C2510 C2504 1.465 . S
C2510 C2509 1.396 . S
C2510 C2511 1.399 . S
C2511 H2497 0.929 . S
C2511 C2510 1.399 . S
C2511 C2512 1.385 . S
C2512 H2498 0.931 . S
C2512 C2511 1.385 . S
C2512 C2513 1.389 . S
C2513 C2512 1.389 . S
C2513 C2514 1.387 . S
C2514 H2499 0.930 . S
C2514 C2509 1.390 . S
C2514 C2513 1.387 . S
H2515 C2527 0.930 . S
H2516 C2529 0.930 . S
H2517 C2530 0.930 . S
H2518 C2534 0.959 . S
H2519 C2534 0.959 . S
H2520 C2534 0.961 . S
H2521 C2535 0.960 . S
H2522 C2535 0.961 . S
H2523 C2535 0.959 . S
H2524 C2538 0.929 . S
H2525 C2539 0.931 . S
H2526 C2541 0.930 . S
C2527 H2515 0.930 . S
C2527 C2528 1.399 . S
C2527 C2532 1.399 . S
C2528 C2527 1.399 . S
C2528 C2529 1.376 . S
C2529 H2516 0.930 . S
C2529 C2528 1.376 . S
C2529 C2530 1.388 . S
C2530 H2517 0.930 . S
C2530 C2529 1.388 . S
C2530 C2531 1.390 . S
C2531 C2530 1.390 . S
C2531 C2532 1.394 . S
C2531 C2537 1.465 . S
C2532 C2527 1.399 . S
C2532 C2531 1.394 . S
C2532 C2533 1.516 . S
C2533 C2532 1.516 . S
C2533 C2534 1.502 . S
C2533 C2535 1.561 . S
C2533 C2536 1.526 . S
C2534 H2518 0.959 . S
C2534 H2519 0.959 . S
C2534 H2520 0.961 . S
C2534 C2533 1.502 . S
C2535 H2521 0.960 . S
C2535 H2522 0.961 . S
C2535 H2523 0.959 . S
C2535 C2533 1.561 . S
C2536 C2533 1.526 . S
C2536 C2537 1.396 . S
C2536 C2541 1.390 . S
C2537 C2531 1.465 . S
C2537 C2536 1.396 . S
C2537 C2538 1.399 . S
C2538 H2524 0.929 . S
C2538 C2537 1.399 . S
C2538 C2539 1.385 . S
C2539 H2525 0.931 . S
C2539 C2538 1.385 . S
C2539 C2540 1.389 . S
C2540 C2539 1.389 . S
C2540 C2541 1.387 . S
C2541 H2526 0.930 . S
C2541 C2536 1.390 . S
C2541 C2540 1.387 . S
H2542 C2554 0.930 . S
H2543 C2556 0.930 . S
H2544 C2557 0.930 . S
H2545 C2561 0.959 . S
H2546 C2561 0.959 . S
H2547 C2561 0.961 . S
H2548 C2562 0.960 . S
H2549 C2562 0.961 . S
H2550 C2562 0.959 . S
H2551 C2565 0.929 . S
H2552 C2566 0.931 . S
H2553 C2568 0.930 . S
C2554 H2542 0.930 . S
C2554 C2555 1.399 . S
C2554 C2559 1.399 . S
C2555 C2554 1.399 . S
C2555 C2556 1.376 . S
C2556 H2543 0.930 . S
C2556 C2555 1.376 . S
C2556 C2557 1.388 . S
C2557 H2544 0.930 . S
C2557 C2556 1.388 . S
C2557 C2558 1.390 . S
C2558 C2557 1.390 . S
C2558 C2559 1.394 . S
C2558 C2564 1.465 . S
C2559 C2554 1.399 . S
C2559 C2558 1.394 . S
C2559 C2560 1.516 . S
C2560 C2559 1.516 . S
C2560 C2561 1.502 . S
C2560 C2562 1.561 . S
C2560 C2563 1.526 . S
C2561 H2545 0.959 . S
C2561 H2546 0.959 . S
C2561 H2547 0.961 . S
C2561 C2560 1.502 . S
C2562 H2548 0.960 . S
C2562 H2549 0.961 . S
C2562 H2550 0.959 . S
C2562 C2560 1.561 . S
C2563 C2560 1.526 . S
C2563 C2564 1.396 . S
C2563 C2568 1.390 . S
C2564 C2558 1.465 . S
C2564 C2563 1.396 . S
C2564 C2565 1.399 . S
C2565 H2551 0.929 . S
C2565 C2564 1.399 . S
C2565 C2566 1.385 . S
C2566 H2552 0.931 . S
C2566 C2565 1.385 . S
C2566 C2567 1.389 . S
C2567 C2566 1.389 . S
C2567 C2568 1.387 . S
C2568 H2553 0.930 . S
C2568 C2563 1.390 . S
C2568 C2567 1.387 . S
H2569 C2581 0.930 . S
H2570 C2583 0.930 . S
H2571 C2584 0.930 . S
H2572 C2588 0.959 . S
H2573 C2588 0.959 . S
H2574 C2588 0.961 . S
H2575 C2589 0.960 . S
H2576 C2589 0.961 . S
H2577 C2589 0.959 . S
H2578 C2592 0.929 . S
H2579 C2593 0.931 . S
H2580 C2595 0.930 . S
C2581 H2569 0.930 . S
C2581 C2582 1.399 . S
C2581 C2586 1.399 . S
C2582 C2581 1.399 . S
C2582 C2583 1.376 . S
C2583 H2570 0.930 . S
C2583 C2582 1.376 . S
C2583 C2584 1.388 . S
C2584 H2571 0.930 . S
C2584 C2583 1.388 . S
C2584 C2585 1.390 . S
C2585 C2584 1.390 . S
C2585 C2586 1.394 . S
C2585 C2591 1.465 . S
C2586 C2581 1.399 . S
C2586 C2585 1.394 . S
C2586 C2587 1.516 . S
C2587 C2586 1.516 . S
C2587 C2588 1.502 . S
C2587 C2589 1.561 . S
C2587 C2590 1.526 . S
C2588 H2572 0.959 . S
C2588 H2573 0.959 . S
C2588 H2574 0.961 . S
C2588 C2587 1.502 . S
C2589 H2575 0.960 . S
C2589 H2576 0.961 . S
C2589 H2577 0.959 . S
C2589 C2587 1.561 . S
C2590 C2587 1.526 . S
C2590 C2591 1.396 . S
C2590 C2595 1.390 . S
C2591 C2585 1.465 . S
C2591 C2590 1.396 . S
C2591 C2592 1.399 . S
C2592 H2578 0.929 . S
C2592 C2591 1.399 . S
C2592 C2593 1.385 . S
C2593 H2579 0.931 . S
C2593 C2592 1.385 . S
C2593 C2594 1.389 . S
C2594 C2593 1.389 . S
C2594 C2595 1.387 . S
C2595 H2580 0.930 . S
C2595 C2590 1.390 . S
C2595 C2594 1.387 . S
H2596 C2608 0.930 . S
H2597 C2610 0.930 . S
H2598 C2611 0.930 . S
H2599 C2615 0.959 . S
H2600 C2615 0.959 . S
H2601 C2615 0.961 . S
H2602 C2616 0.960 . S
H2603 C2616 0.961 . S
H2604 C2616 0.959 . S
H2605 C2619 0.929 . S
H2606 C2620 0.931 . S
H2607 C2622 0.930 . S
C2608 H2596 0.930 . S
C2608 C2609 1.399 . S
C2608 C2613 1.399 . S
C2609 C2608 1.399 . S
C2609 C2610 1.376 . S
C2610 H2597 0.930 . S
C2610 C2609 1.376 . S
C2610 C2611 1.388 . S
C2611 H2598 0.930 . S
C2611 C2610 1.388 . S
C2611 C2612 1.390 . S
C2612 C2611 1.390 . S
C2612 C2613 1.394 . S
C2612 C2618 1.465 . S
C2613 C2608 1.399 . S
C2613 C2612 1.394 . S
C2613 C2614 1.516 . S
C2614 C2613 1.516 . S
C2614 C2615 1.502 . S
C2614 C2616 1.561 . S
C2614 C2617 1.526 . S
C2615 H2599 0.959 . S
C2615 H2600 0.959 . S
C2615 H2601 0.961 . S
C2615 C2614 1.502 . S
C2616 H2602 0.960 . S
C2616 H2603 0.961 . S
C2616 H2604 0.959 . S
C2616 C2614 1.561 . S
C2617 C2614 1.526 . S
C2617 C2618 1.396 . S
C2617 C2622 1.390 . S
C2618 C2612 1.465 . S
C2618 C2617 1.396 . S
C2618 C2619 1.399 . S
C2619 H2605 0.929 . S
C2619 C2618 1.399 . S
C2619 C2620 1.385 . S
C2620 H2606 0.931 . S
C2620 C2619 1.385 . S
C2620 C2621 1.389 . S
C2621 C2620 1.389 . S
C2621 C2622 1.387 . S
C2622 H2607 0.930 . S
C2622 C2617 1.390 . S
C2622 C2621 1.387 . S
H2623 C2635 0.930 . S
H2624 C2637 0.930 . S
H2625 C2638 0.930 . S
H2626 C2642 0.959 . S
H2627 C2642 0.959 . S
H2628 C2642 0.961 . S
H2629 C2643 0.960 . S
H2630 C2643 0.961 . S
H2631 C2643 0.959 . S
H2632 C2646 0.929 . S
H2633 C2647 0.931 . S
H2634 C2649 0.930 . S
C2635 H2623 0.930 . S
C2635 C2636 1.399 . S
C2635 C2640 1.399 . S
C2636 C2635 1.399 . S
C2636 C2637 1.376 . S
C2637 H2624 0.930 . S
C2637 C2636 1.376 . S
C2637 C2638 1.388 . S
C2638 H2625 0.930 . S
C2638 C2637 1.388 . S
C2638 C2639 1.390 . S
C2639 C2638 1.390 . S
C2639 C2640 1.394 . S
C2639 C2645 1.465 . S
C2640 C2635 1.399 . S
C2640 C2639 1.394 . S
C2640 C2641 1.516 . S
C2641 C2640 1.516 . S
C2641 C2642 1.502 . S
C2641 C2643 1.561 . S
C2641 C2644 1.526 . S
C2642 H2626 0.959 . S
C2642 H2627 0.959 . S
C2642 H2628 0.961 . S
C2642 C2641 1.502 . S
C2643 H2629 0.960 . S
C2643 H2630 0.961 . S
C2643 H2631 0.959 . S
C2643 C2641 1.561 . S
C2644 C2641 1.526 . S
C2644 C2645 1.396 . S
C2644 C2649 1.390 . S
C2645 C2639 1.465 . S
C2645 C2644 1.396 . S
C2645 C2646 1.399 . S
C2646 H2632 0.929 . S
C2646 C2645 1.399 . S
C2646 C2647 1.385 . S
C2647 H2633 0.931 . S
C2647 C2646 1.385 . S
C2647 C2648 1.389 . S
C2648 C2647 1.389 . S
C2648 C2649 1.387 . S
C2649 H2634 0.930 . S
C2649 C2644 1.390 . S
C2649 C2648 1.387 . S
H2650 C2662 0.930 . S
H2651 C2664 0.930 . S
H2652 C2665 0.930 . S
H2653 C2669 0.959 . S
H2654 C2669 0.959 . S
H2655 C2669 0.961 . S
H2656 C2670 0.960 . S
H2657 C2670 0.961 . S
H2658 C2670 0.959 . S
H2659 C2673 0.929 . S
H2660 C2674 0.931 . S
H2661 C2676 0.930 . S
C2662 H2650 0.930 . S
C2662 C2663 1.399 . S
C2662 C2667 1.399 . S
C2663 C2662 1.399 . S
C2663 C2664 1.376 . S
C2664 H2651 0.930 . S
C2664 C2663 1.376 . S
C2664 C2665 1.388 . S
C2665 H2652 0.930 . S
C2665 C2664 1.388 . S
C2665 C2666 1.390 . S
C2666 C2665 1.390 . S
C2666 C2667 1.394 . S
C2666 C2672 1.465 . S
C2667 C2662 1.399 . S
C2667 C2666 1.394 . S
C2667 C2668 1.516 . S
C2668 C2667 1.516 . S
C2668 C2669 1.502 . S
C2668 C2670 1.561 . S
C2668 C2671 1.526 . S
C2669 H2653 0.959 . S
C2669 H2654 0.959 . S
C2669 H2655 0.961 . S
C2669 C2668 1.502 . S
C2670 H2656 0.960 . S
C2670 H2657 0.961 . S
C2670 H2658 0.959 . S
C2670 C2668 1.561 . S
C2671 C2668 1.526 . S
C2671 C2672 1.396 . S
C2671 C2676 1.390 . S
C2672 C2666 1.465 . S
C2672 C2671 1.396 . S
C2672 C2673 1.399 . S
C2673 H2659 0.929 . S
C2673 C2672 1.399 . S
C2673 C2674 1.385 . S
C2674 H2660 0.931 . S
C2674 C2673 1.385 . S
C2674 C2675 1.389 . S
C2675 C2674 1.389 . S
C2675 C2676 1.387 . S
C2676 H2661 0.930 . S
C2676 C2671 1.390 . S
C2676 C2675 1.387 . S
H2677 C2689 0.930 . S
H2678 C2691 0.930 . S
H2679 C2692 0.930 . S
H2680 C2696 0.959 . S
H2681 C2696 0.959 . S
H2682 C2696 0.961 . S
H2683 C2697 0.960 . S
H2684 C2697 0.961 . S
H2685 C2697 0.959 . S
H2686 C2700 0.929 . S
H2687 C2701 0.931 . S
H2688 C2703 0.930 . S
C2689 H2677 0.930 . S
C2689 C2690 1.399 . S
C2689 C2694 1.399 . S
C2690 C2689 1.399 . S
C2690 C2691 1.376 . S
C2691 H2678 0.930 . S
C2691 C2690 1.376 . S
C2691 C2692 1.388 . S
C2692 H2679 0.930 . S
C2692 C2691 1.388 . S
C2692 C2693 1.390 . S
C2693 C2692 1.390 . S
C2693 C2694 1.394 . S
C2693 C2699 1.465 . S
C2694 C2689 1.399 . S
C2694 C2693 1.394 . S
C2694 C2695 1.516 . S
C2695 C2694 1.516 . S
C2695 C2696 1.502 . S
C2695 C2697 1.561 . S
C2695 C2698 1.526 . S
C2696 H2680 0.959 . S
C2696 H2681 0.959 . S
C2696 H2682 0.961 . S
C2696 C2695 1.502 . S
C2697 H2683 0.960 . S
C2697 H2684 0.961 . S
C2697 H2685 0.959 . S
C2697 C2695 1.561 . S
C2698 C2695 1.526 . S
C2698 C2699 1.396 . S
C2698 C2703 1.390 . S
C2699 C2693 1.465 . S
C2699 C2698 1.396 . S
C2699 C2700 1.399 . S
C2700 H2686 0.929 . S
C2700 C2699 1.399 . S
C2700 C2701 1.385 . S
C2701 H2687 0.931 . S
C2701 C2700 1.385 . S
C2701 C2702 1.389 . S
C2702 C2701 1.389 . S
C2702 C2703 1.387 . S
C2703 H2688 0.930 . S
C2703 C2698 1.390 . S
C2703 C2702 1.387 . S
H2704 C2716 0.930 . S
H2705 C2718 0.930 . S
H2706 C2719 0.930 . S
H2707 C2723 0.959 . S
H2708 C2723 0.959 . S
H2709 C2723 0.961 . S
H2710 C2724 0.960 . S
H2711 C2724 0.961 . S
H2712 C2724 0.959 . S
H2713 C2727 0.929 . S
H2714 C2728 0.931 . S
H2715 C2730 0.930 . S
C2716 H2704 0.930 . S
C2716 C2717 1.399 . S
C2716 C2721 1.399 . S
C2717 C2716 1.399 . S
C2717 C2718 1.376 . S
C2718 H2705 0.930 . S
C2718 C2717 1.376 . S
C2718 C2719 1.388 . S
C2719 H2706 0.930 . S
C2719 C2718 1.388 . S
C2719 C2720 1.390 . S
C2720 C2719 1.390 . S
C2720 C2721 1.394 . S
C2720 C2726 1.465 . S
C2721 C2716 1.399 . S
C2721 C2720 1.394 . S
C2721 C2722 1.516 . S
C2722 C2721 1.516 . S
C2722 C2723 1.502 . S
C2722 C2724 1.561 . S
C2722 C2725 1.526 . S
C2723 H2707 0.959 . S
C2723 H2708 0.959 . S
C2723 H2709 0.961 . S
C2723 C2722 1.502 . S
C2724 H2710 0.960 . S
C2724 H2711 0.961 . S
C2724 H2712 0.959 . S
C2724 C2722 1.561 . S
C2725 C2722 1.526 . S
C2725 C2726 1.396 . S
C2725 C2730 1.390 . S
C2726 C2720 1.465 . S
C2726 C2725 1.396 . S
C2726 C2727 1.399 . S
C2727 H2713 0.929 . S
C2727 C2726 1.399 . S
C2727 C2728 1.385 . S
C2728 H2714 0.931 . S
C2728 C2727 1.385 . S
C2728 C2729 1.389 . S
C2729 C2728 1.389 . S
C2729 C2730 1.387 . S
C2730 H2715 0.930 . S
C2730 C2725 1.390 . S
C2730 C2729 1.387 . S
H2731 C2743 0.930 . S
H2732 C2745 0.930 . S
H2733 C2746 0.930 . S
H2734 C2750 0.959 . S
H2735 C2750 0.959 . S
H2736 C2750 0.961 . S
H2737 C2751 0.960 . S
H2738 C2751 0.961 . S
H2739 C2751 0.959 . S
H2740 C2754 0.929 . S
H2741 C2755 0.931 . S
H2742 C2757 0.930 . S
C2743 H2731 0.930 . S
C2743 C2744 1.399 . S
C2743 C2748 1.399 . S
C2744 C2743 1.399 . S
C2744 C2745 1.376 . S
C2745 H2732 0.930 . S
C2745 C2744 1.376 . S
C2745 C2746 1.388 . S
C2746 H2733 0.930 . S
C2746 C2745 1.388 . S
C2746 C2747 1.390 . S
C2747 C2746 1.390 . S
C2747 C2748 1.394 . S
C2747 C2753 1.465 . S
C2748 C2743 1.399 . S
C2748 C2747 1.394 . S
C2748 C2749 1.516 . S
C2749 C2748 1.516 . S
C2749 C2750 1.502 . S
C2749 C2751 1.561 . S
C2749 C2752 1.526 . S
C2750 H2734 0.959 . S
C2750 H2735 0.959 . S
C2750 H2736 0.961 . S
C2750 C2749 1.502 . S
C2751 H2737 0.960 . S
C2751 H2738 0.961 . S
C2751 H2739 0.959 . S
C2751 C2749 1.561 . S
C2752 C2749 1.526 . S
C2752 C2753 1.396 . S
C2752 C2757 1.390 . S
C2753 C2747 1.465 . S
C2753 C2752 1.396 . S
C2753 C2754 1.399 . S
C2754 H2740 0.929 . S
C2754 C2753 1.399 . S
C2754 C2755 1.385 . S
C2755 H2741 0.931 . S
C2755 C2754 1.385 . S
C2755 C2756 1.389 . S
C2756 C2755 1.389 . S
C2756 C2757 1.387 . S
C2757 H2742 0.930 . S
C2757 C2752 1.390 . S
C2757 C2756 1.387 . S
H2758 C2770 0.930 . S
H2759 C2772 0.930 . S
H2760 C2773 0.930 . S
H2761 C2777 0.959 . S
H2762 C2777 0.959 . S
H2763 C2777 0.961 . S
H2764 C2778 0.960 . S
H2765 C2778 0.961 . S
H2766 C2778 0.959 . S
H2767 C2781 0.929 . S
H2768 C2782 0.931 . S
H2769 C2784 0.930 . S
C2770 H2758 0.930 . S
C2770 C2771 1.399 . S
C2770 C2775 1.399 . S
C2771 C2770 1.399 . S
C2771 C2772 1.376 . S
C2772 H2759 0.930 . S
C2772 C2771 1.376 . S
C2772 C2773 1.388 . S
C2773 H2760 0.930 . S
C2773 C2772 1.388 . S
C2773 C2774 1.390 . S
C2774 C2773 1.390 . S
C2774 C2775 1.394 . S
C2774 C2780 1.465 . S
C2775 C2770 1.399 . S
C2775 C2774 1.394 . S
C2775 C2776 1.516 . S
C2776 C2775 1.516 . S
C2776 C2777 1.502 . S
C2776 C2778 1.561 . S
C2776 C2779 1.526 . S
C2777 H2761 0.959 . S
C2777 H2762 0.959 . S
C2777 H2763 0.961 . S
C2777 C2776 1.502 . S
C2778 H2764 0.960 . S
C2778 H2765 0.961 . S
C2778 H2766 0.959 . S
C2778 C2776 1.561 . S
C2779 C2776 1.526 . S
C2779 C2780 1.396 . S
C2779 C2784 1.390 . S
C2780 C2774 1.465 . S
C2780 C2779 1.396 . S
C2780 C2781 1.399 . S
C2781 H2767 0.929 . S
C2781 C2780 1.399 . S
C2781 C2782 1.385 . S
C2782 H2768 0.931 . S
C2782 C2781 1.385 . S
C2782 C2783 1.389 . S
C2783 C2782 1.389 . S
C2783 C2784 1.387 . S
C2784 H2769 0.930 . S
C2784 C2779 1.390 . S
C2784 C2783 1.387 . S
H2785 C2797 0.930 . S
H2786 C2799 0.930 . S
H2787 C2800 0.930 . S
H2788 C2804 0.959 . S
H2789 C2804 0.959 1_556 S
H2790 C2804 0.961 1_556 S
H2791 C2805 0.960 . S
H2792 C2805 0.961 . S
H2793 C2805 0.959 . S
H2794 C2808 0.929 . S
H2795 C2809 0.931 . S
H2796 C2811 0.930 . S
C2797 H2785 0.930 . S
C2797 C2798 1.399 . S
C2797 C2802 1.399 . S
C2798 C2797 1.399 . S
C2798 C2799 1.376 . S
C2799 H2786 0.930 . S
C2799 C2798 1.376 . S
C2799 C2800 1.388 . S
C2800 H2787 0.930 . S
C2800 C2799 1.388 . S
C2800 C2801 1.390 . S
C2801 C2800 1.390 . S
C2801 C2802 1.394 . S
C2801 C2807 1.465 . S
C2802 C2797 1.399 . S
C2802 C2801 1.394 . S
C2802 C2803 1.516 . S
C2803 C2802 1.516 . S
C2803 C2804 1.502 . S
C2803 C2805 1.561 . S
C2803 C2806 1.526 . S
C2804 H2788 0.959 . S
C2804 H2789 0.959 1_554 S
C2804 H2790 0.961 1_554 S
C2804 C2803 1.502 . S
C2805 H2791 0.960 . S
C2805 H2792 0.961 . S
C2805 H2793 0.959 . S
C2805 C2803 1.561 . S
C2806 C2803 1.526 . S
C2806 C2807 1.396 . S
C2806 C2811 1.390 . S
C2807 C2801 1.465 . S
C2807 C2806 1.396 . S
C2807 C2808 1.399 . S
C2808 H2794 0.929 . S
C2808 C2807 1.399 . S
C2808 C2809 1.385 . S
C2809 H2795 0.931 . S
C2809 C2808 1.385 . S
C2809 C2810 1.389 . S
C2810 C2809 1.389 . S
C2810 C2811 1.387 . S
C2811 H2796 0.930 . S
C2811 C2806 1.390 . S
C2811 C2810 1.387 . S
H2812 C2824 0.930 . S
H2813 C2826 0.930 . S
H2814 C2827 0.930 . S
H2815 C2831 0.959 . S
H2816 C2831 0.959 . S
H2817 C2831 0.961 . S
H2818 C2832 0.960 . S
H2819 C2832 0.961 . S
H2820 C2832 0.959 . S
H2821 C2835 0.929 . S
H2822 C2836 0.931 . S
H2823 C2838 0.930 . S
C2824 H2812 0.930 . S
C2824 C2825 1.399 . S
C2824 C2829 1.399 . S
C2825 C2824 1.399 . S
C2825 C2826 1.376 . S
C2826 H2813 0.930 . S
C2826 C2825 1.376 . S
C2826 C2827 1.388 . S
C2827 H2814 0.930 . S
C2827 C2826 1.388 . S
C2827 C2828 1.390 . S
C2828 C2827 1.390 . S
C2828 C2829 1.394 . S
C2828 C2834 1.465 . S
C2829 C2824 1.399 . S
C2829 C2828 1.394 . S
C2829 C2830 1.516 . S
C2830 C2829 1.516 . S
C2830 C2831 1.502 . S
C2830 C2832 1.561 . S
C2830 C2833 1.526 . S
C2831 H2815 0.959 . S
C2831 H2816 0.959 . S
C2831 H2817 0.961 . S
C2831 C2830 1.502 . S
C2832 H2818 0.960 . S
C2832 H2819 0.961 . S
C2832 H2820 0.959 . S
C2832 C2830 1.561 . S
C2833 C2830 1.526 . S
C2833 C2834 1.396 . S
C2833 C2838 1.390 . S
C2834 C2828 1.465 . S
C2834 C2833 1.396 . S
C2834 C2835 1.399 . S
C2835 H2821 0.929 . S
C2835 C2834 1.399 . S
C2835 C2836 1.385 . S
C2836 H2822 0.931 . S
C2836 C2835 1.385 . S
C2836 C2837 1.389 . S
C2837 C2836 1.389 . S
C2837 C2838 1.387 . S
C2838 H2823 0.930 . S
C2838 C2833 1.390 . S
C2838 C2837 1.387 . S
H2839 C2851 0.930 . S
H2840 C2853 0.930 . S
H2841 C2854 0.930 . S
H2842 C2858 0.959 . S
H2843 C2858 0.959 . S
H2844 C2858 0.961 . S
H2845 C2859 0.960 . S
H2846 C2859 0.961 . S
H2847 C2859 0.959 . S
H2848 C2862 0.929 . S
H2849 C2863 0.931 . S
H2850 C2865 0.930 . S
C2851 H2839 0.930 . S
C2851 C2852 1.399 . S
C2851 C2856 1.399 . S
C2852 C2851 1.399 . S
C2852 C2853 1.376 . S
C2853 H2840 0.930 . S
C2853 C2852 1.376 . S
C2853 C2854 1.388 . S
C2854 H2841 0.930 . S
C2854 C2853 1.388 . S
C2854 C2855 1.390 . S
C2855 C2854 1.390 . S
C2855 C2856 1.394 . S
C2855 C2861 1.465 . S
C2856 C2851 1.399 . S
C2856 C2855 1.394 . S
C2856 C2857 1.516 . S
C2857 C2856 1.516 . S
C2857 C2858 1.502 . S
C2857 C2859 1.561 . S
C2857 C2860 1.526 . S
C2858 H2842 0.959 . S
C2858 H2843 0.959 . S
C2858 H2844 0.961 . S
C2858 C2857 1.502 . S
C2859 H2845 0.960 . S
C2859 H2846 0.961 . S
C2859 H2847 0.959 . S
C2859 C2857 1.561 . S
C2860 C2857 1.526 . S
C2860 C2861 1.396 . S
C2860 C2865 1.390 . S
C2861 C2855 1.465 . S
C2861 C2860 1.396 . S
C2861 C2862 1.399 . S
C2862 H2848 0.929 . S
C2862 C2861 1.399 . S
C2862 C2863 1.385 . S
C2863 H2849 0.931 . S
C2863 C2862 1.385 . S
C2863 C2864 1.389 . S
C2864 C2863 1.389 . S
C2864 C2865 1.387 . S
C2865 H2850 0.930 . S
C2865 C2860 1.390 . S
C2865 C2864 1.387 . S
H2866 C2878 0.930 . S
H2867 C2880 0.930 . S
H2868 C2881 0.930 . S
H2869 C2885 0.959 . S
H2870 C2885 0.959 . S
H2871 C2885 0.961 . S
H2872 C2886 0.960 . S
H2873 C2886 0.961 . S
H2874 C2886 0.959 . S
H2875 C2889 0.929 . S
H2876 C2890 0.931 . S
H2877 C2892 0.930 . S
C2878 H2866 0.930 . S
C2878 C2879 1.399 . S
C2878 C2883 1.399 . S
C2879 C2878 1.399 . S
C2879 C2880 1.376 . S
C2880 H2867 0.930 . S
C2880 C2879 1.376 . S
C2880 C2881 1.388 . S
C2881 H2868 0.930 . S
C2881 C2880 1.388 . S
C2881 C2882 1.390 . S
C2882 C2881 1.390 . S
C2882 C2883 1.394 . S
C2882 C2888 1.465 . S
C2883 C2878 1.399 . S
C2883 C2882 1.394 . S
C2883 C2884 1.516 . S
C2884 C2883 1.516 . S
C2884 C2885 1.502 . S
C2884 C2886 1.561 . S
C2884 C2887 1.526 . S
C2885 H2869 0.959 . S
C2885 H2870 0.959 . S
C2885 H2871 0.961 . S
C2885 C2884 1.502 . S
C2886 H2872 0.960 . S
C2886 H2873 0.961 . S
C2886 H2874 0.959 . S
C2886 C2884 1.561 . S
C2887 C2884 1.526 . S
C2887 C2888 1.396 . S
C2887 C2892 1.390 . S
C2888 C2882 1.465 . S
C2888 C2887 1.396 . S
C2888 C2889 1.399 . S
C2889 H2875 0.929 . S
C2889 C2888 1.399 . S
C2889 C2890 1.385 . S
C2890 H2876 0.931 . S
C2890 C2889 1.385 . S
C2890 C2891 1.389 . S
C2891 C2890 1.389 . S
C2891 C2892 1.387 . S
C2892 H2877 0.930 . S
C2892 C2887 1.390 . S
C2892 C2891 1.387 . S
H2893 C2905 0.930 . S
H2894 C2907 0.930 . S
H2895 C2908 0.930 . S
H2896 C2912 0.959 . S
H2897 C2912 0.959 . S
H2898 C2912 0.961 . S
H2899 C2913 0.960 1_545 S
H2900 C2913 0.961 . S
H2901 C2913 0.959 . S
H2902 C2916 0.929 . S
H2903 C2917 0.931 . S
H2904 C2919 0.930 . S
C2905 H2893 0.930 . S
C2905 C2906 1.399 . S
C2905 C2910 1.399 1_545 S
C2906 C2905 1.399 . S
C2906 C2907 1.376 . S
C2907 H2894 0.930 . S
C2907 C2906 1.376 . S
C2907 C2908 1.388 1_545 S
C2908 H2895 0.930 . S
C2908 C2907 1.388 1_565 S
C2908 C2909 1.390 . S
C2909 C2908 1.390 . S
C2909 C2910 1.394 . S
C2909 C2915 1.465 . S
C2910 C2905 1.399 1_565 S
C2910 C2909 1.394 . S
C2910 C2911 1.516 . S
C2911 C2910 1.516 . S
C2911 C2912 1.502 . S
C2911 C2913 1.561 . S
C2911 C2914 1.526 . S
C2912 H2896 0.959 . S
C2912 H2897 0.959 . S
C2912 H2898 0.961 . S
C2912 C2911 1.502 . S
C2913 H2899 0.960 1_565 S
C2913 H2900 0.961 . S
C2913 H2901 0.959 . S
C2913 C2911 1.561 . S
C2914 C2911 1.526 . S
C2914 C2915 1.396 . S
C2914 C2919 1.390 . S
C2915 C2909 1.465 . S
C2915 C2914 1.396 . S
C2915 C2916 1.399 . S
C2916 H2902 0.929 . S
C2916 C2915 1.399 . S
C2916 C2917 1.385 . S
C2917 H2903 0.931 . S
C2917 C2916 1.385 . S
C2917 C2918 1.389 . S
C2918 C2917 1.389 . S
C2918 C2919 1.387 . S
C2919 H2904 0.930 . S
C2919 C2914 1.390 . S
C2919 C2918 1.387 . S
H2920 C2932 0.930 . S
H2921 C2934 0.930 . S
H2922 C2935 0.930 . S
H2923 C2939 0.959 . S
H2924 C2939 0.959 . S
H2925 C2939 0.961 . S
H2926 C2940 0.960 . S
H2927 C2940 0.961 . S
H2928 C2940 0.959 . S
H2929 C2943 0.929 . S
H2930 C2944 0.931 . S
H2931 C2946 0.930 . S
C2932 H2920 0.930 . S
C2932 C2933 1.399 . S
C2932 C2937 1.399 . S
C2933 C2932 1.399 . S
C2933 C2934 1.376 . S
C2934 H2921 0.930 . S
C2934 C2933 1.376 . S
C2934 C2935 1.388 . S
C2935 H2922 0.930 . S
C2935 C2934 1.388 . S
C2935 C2936 1.390 . S
C2936 C2935 1.390 . S
C2936 C2937 1.394 . S
C2936 C2942 1.465 . S
C2937 C2932 1.399 . S
C2937 C2936 1.394 . S
C2937 C2938 1.516 . S
C2938 C2937 1.516 . S
C2938 C2939 1.502 . S
C2938 C2940 1.561 . S
C2938 C2941 1.526 . S
C2939 H2923 0.959 . S
C2939 H2924 0.959 . S
C2939 H2925 0.961 . S
C2939 C2938 1.502 . S
C2940 H2926 0.960 . S
C2940 H2927 0.961 . S
C2940 H2928 0.959 . S
C2940 C2938 1.561 . S
C2941 C2938 1.526 . S
C2941 C2942 1.396 . S
C2941 C2946 1.390 . S
C2942 C2936 1.465 . S
C2942 C2941 1.396 . S
C2942 C2943 1.399 . S
C2943 H2929 0.929 . S
C2943 C2942 1.399 . S
C2943 C2944 1.385 . S
C2944 H2930 0.931 . S
C2944 C2943 1.385 . S
C2944 C2945 1.389 . S
C2945 C2944 1.389 . S
C2945 C2946 1.387 . S
C2946 H2931 0.930 . S
C2946 C2941 1.390 . S
C2946 C2945 1.387 . S
H2947 C2959 0.930 . S
H2948 C2961 0.930 . S
H2949 C2962 0.930 . S
H2950 C2966 0.959 . S
H2951 C2966 0.959 . S
H2952 C2966 0.961 . S
H2953 C2967 0.960 . S
H2954 C2967 0.961 . S
H2955 C2967 0.959 . S
H2956 C2970 0.929 . S
H2957 C2971 0.931 . S
H2958 C2973 0.930 . S
C2959 H2947 0.930 . S
C2959 C2960 1.399 . S
C2959 C2964 1.399 . S
C2960 C2959 1.399 . S
C2960 C2961 1.376 . S
C2961 H2948 0.930 . S
C2961 C2960 1.376 . S
C2961 C2962 1.388 . S
C2962 H2949 0.930 . S
C2962 C2961 1.388 . S
C2962 C2963 1.390 . S
C2963 C2962 1.390 . S
C2963 C2964 1.394 . S
C2963 C2969 1.465 . S
C2964 C2959 1.399 . S
C2964 C2963 1.394 . S
C2964 C2965 1.516 . S
C2965 C2964 1.516 . S
C2965 C2966 1.502 . S
C2965 C2967 1.561 . S
C2965 C2968 1.526 . S
C2966 H2950 0.959 . S
C2966 H2951 0.959 . S
C2966 H2952 0.961 . S
C2966 C2965 1.502 . S
C2967 H2953 0.960 . S
C2967 H2954 0.961 . S
C2967 H2955 0.959 . S
C2967 C2965 1.561 . S
C2968 C2965 1.526 . S
C2968 C2969 1.396 . S
C2968 C2973 1.390 . S
C2969 C2963 1.465 . S
C2969 C2968 1.396 . S
C2969 C2970 1.399 . S
C2970 H2956 0.929 . S
C2970 C2969 1.399 . S
C2970 C2971 1.385 . S
C2971 H2957 0.931 . S
C2971 C2970 1.385 . S
C2971 C2972 1.389 . S
C2972 C2971 1.389 . S
C2972 C2973 1.387 . S
C2973 H2958 0.930 . S
C2973 C2968 1.390 . S
C2973 C2972 1.387 . S
H2974 C2986 0.930 . S
H2975 C2988 0.930 . S
H2976 C2989 0.930 . S
H2977 C2993 0.959 . S
H2978 C2993 0.959 . S
H2979 C2993 0.961 . S
H2980 C2994 0.960 . S
H2981 C2994 0.961 . S
H2982 C2994 0.959 . S
H2983 C2997 0.929 . S
H2984 C2998 0.931 . S
H2985 C3000 0.930 . S
C2986 H2974 0.930 . S
C2986 C2987 1.399 . S
C2986 C2991 1.399 . S
C2987 C2986 1.399 . S
C2987 C2988 1.376 . S
C2988 H2975 0.930 . S
C2988 C2987 1.376 . S
C2988 C2989 1.388 . S
C2989 H2976 0.930 . S
C2989 C2988 1.388 . S
C2989 C2990 1.390 . S
C2990 C2989 1.390 . S
C2990 C2991 1.394 . S
C2990 C2996 1.465 . S
C2991 C2986 1.399 . S
C2991 C2990 1.394 . S
C2991 C2992 1.516 . S
C2992 C2991 1.516 . S
C2992 C2993 1.502 . S
C2992 C2994 1.561 . S
C2992 C2995 1.526 . S
C2993 H2977 0.959 . S
C2993 H2978 0.959 . S
C2993 H2979 0.961 . S
C2993 C2992 1.502 . S
C2994 H2980 0.960 . S
C2994 H2981 0.961 . S
C2994 H2982 0.959 . S
C2994 C2992 1.561 . S
C2995 C2992 1.526 . S
C2995 C2996 1.396 . S
C2995 C3000 1.390 . S
C2996 C2990 1.465 . S
C2996 C2995 1.396 . S
C2996 C2997 1.399 . S
C2997 H2983 0.929 . S
C2997 C2996 1.399 . S
C2997 C2998 1.385 . S
C2998 H2984 0.931 . S
C2998 C2997 1.385 . S
C2998 C2999 1.389 . S
C2999 C2998 1.389 . S
C2999 C3000 1.387 . S
C3000 H2985 0.930 . S
C3000 C2995 1.390 . S
C3000 C2999 1.387 . S
H3001 C3013 0.930 . S
H3002 C3015 0.930 . S
H3003 C3016 0.930 . S
H3004 C3020 0.959 . S
H3005 C3020 0.959 . S
H3006 C3020 0.961 . S
H3007 C3021 0.960 . S
H3008 C3021 0.961 . S
H3009 C3021 0.959 . S
H3010 C3024 0.929 . S
H3011 C3025 0.931 . S
H3012 C3027 0.930 . S
C3013 H3001 0.930 . S
C3013 C3014 1.399 . S
C3013 C3018 1.399 . S
C3014 C3013 1.399 . S
C3014 C3015 1.376 . S
C3015 H3002 0.930 . S
C3015 C3014 1.376 . S
C3015 C3016 1.388 . S
C3016 H3003 0.930 . S
C3016 C3015 1.388 . S
C3016 C3017 1.390 . S
C3017 C3016 1.390 . S
C3017 C3018 1.394 . S
C3017 C3023 1.465 . S
C3018 C3013 1.399 . S
C3018 C3017 1.394 . S
C3018 C3019 1.516 . S
C3019 C3018 1.516 . S
C3019 C3020 1.502 . S
C3019 C3021 1.561 . S
C3019 C3022 1.526 . S
C3020 H3004 0.959 . S
C3020 H3005 0.959 . S
C3020 H3006 0.961 . S
C3020 C3019 1.502 . S
C3021 H3007 0.960 . S
C3021 H3008 0.961 . S
C3021 H3009 0.959 . S
C3021 C3019 1.561 . S
C3022 C3019 1.526 . S
C3022 C3023 1.396 . S
C3022 C3027 1.390 . S
C3023 C3017 1.465 . S
C3023 C3022 1.396 . S
C3023 C3024 1.399 . S
C3024 H3010 0.929 . S
C3024 C3023 1.399 . S
C3024 C3025 1.385 . S
C3025 H3011 0.931 . S
C3025 C3024 1.385 . S
C3025 C3026 1.389 . S
C3026 C3025 1.389 . S
C3026 C3027 1.387 . S
C3027 H3012 0.930 . S
C3027 C3022 1.390 . S
C3027 C3026 1.387 . S
H3028 C3040 0.930 . S
H3029 C3042 0.930 . S
H3030 C3043 0.930 . S
H3031 C3047 0.959 1_556 S
H3032 C3047 0.959 . S
H3033 C3047 0.961 . S
H3034 C3048 0.960 . S
H3035 C3048 0.961 . S
H3036 C3048 0.959 1_556 S
H3037 C3051 0.929 . S
H3038 C3052 0.931 . S
H3039 C3054 0.907 1_554 S
C3040 H3028 0.930 . S
C3040 C3041 1.399 . S
C3040 C3045 1.399 . S
C3041 C3040 1.399 . S
C3041 C3042 1.376 . S
C3042 H3029 0.930 . S
C3042 C3041 1.376 . S
C3042 C3043 1.388 . S
C3043 H3030 0.930 . S
C3043 C3042 1.388 . S
C3043 C3044 1.390 . S
C3044 C3043 1.390 . S
C3044 C3045 1.394 . S
C3044 C3050 1.465 . S
C3045 C3040 1.399 . S
C3045 C3044 1.394 . S
C3045 C3046 1.516 . S
C3046 C3045 1.516 . S
C3046 C3047 1.502 1_556 S
C3046 C3048 1.561 1_556 S
C3046 C3049 1.526 . S
C3047 H3031 0.959 1_554 S
C3047 H3032 0.959 . S
C3047 H3033 0.961 . S
C3047 C3046 1.502 1_554 S
C3048 H3034 0.960 . S
C3048 H3035 0.961 . S
C3048 H3036 0.959 1_554 S
C3048 C3046 1.561 1_554 S
C3049 C3046 1.526 . S
C3049 C3050 1.396 . S
C3049 C3054 1.406 . S
C3050 C3044 1.465 . S
C3050 C3049 1.396 . S
C3050 C3051 1.399 . S
C3051 H3037 0.929 . S
C3051 C3050 1.399 . S
C3051 C3052 1.385 . S
C3052 H3038 0.931 . S
C3052 C3051 1.385 . S
C3052 C3053 1.389 . S
C3053 C3052 1.389 . S
C3053 C3054 1.394 . S
C3054 H3039 0.907 1_556 S
C3054 C3049 1.406 . S
C3054 C3053 1.394 . S
H3055 C3067 0.930 . S
H3056 C3069 0.930 . S
H3057 C3070 0.930 . S
H3058 C3074 0.959 . S
H3059 C3074 0.959 . S
H3060 C3074 0.961 . S
H3061 C3075 0.960 . S
H3062 C3075 0.961 . S
H3063 C3075 0.959 . S
H3064 C3078 0.929 . S
H3065 C3079 0.931 . S
H3066 C3081 0.930 . S
C3067 H3055 0.930 . S
C3067 C3068 1.399 . S
C3067 C3072 1.399 . S
C3068 C3067 1.399 . S
C3068 C3069 1.376 . S
C3069 H3056 0.930 . S
C3069 C3068 1.376 . S
C3069 C3070 1.388 . S
C3070 H3057 0.930 . S
C3070 C3069 1.388 . S
C3070 C3071 1.390 . S
C3071 C3070 1.390 . S
C3071 C3072 1.394 . S
C3071 C3077 1.465 . S
C3072 C3067 1.399 . S
C3072 C3071 1.394 . S
C3072 C3073 1.516 . S
C3073 C3072 1.516 . S
C3073 C3074 1.502 . S
C3073 C3075 1.561 . S
C3073 C3076 1.526 . S
C3074 H3058 0.959 . S
C3074 H3059 0.959 . S
C3074 H3060 0.961 . S
C3074 C3073 1.502 . S
C3075 H3061 0.960 . S
C3075 H3062 0.961 . S
C3075 H3063 0.959 . S
C3075 C3073 1.561 . S
C3076 C3073 1.526 . S
C3076 C3077 1.396 . S
C3076 C3081 1.390 . S
C3077 C3071 1.465 . S
C3077 C3076 1.396 . S
C3077 C3078 1.399 . S
C3078 H3064 0.929 . S
C3078 C3077 1.399 . S
C3078 C3079 1.385 . S
C3079 H3065 0.931 . S
C3079 C3078 1.385 . S
C3079 C3080 1.389 . S
C3080 C3079 1.389 . S
C3080 C3081 1.387 . S
C3081 H3066 0.930 . S
C3081 C3076 1.390 . S
C3081 C3080 1.387 . S
H3082 C3094 0.930 . S
H3083 C3096 0.930 . S
H3084 C3097 0.930 . S
H3085 C3101 0.959 . S
H3086 C3101 0.959 . S
H3087 C3101 0.961 . S
H3088 C3102 0.960 . S
H3089 C3102 0.961 . S
H3090 C3102 0.959 . S
H3091 C3105 0.929 . S
H3092 C3106 0.931 . S
H3093 C3108 0.930 . S
C3094 H3082 0.930 . S
C3094 C3095 1.399 . S
C3094 C3099 1.399 . S
C3095 C3094 1.399 . S
C3095 C3096 1.376 . S
C3096 H3083 0.930 . S
C3096 C3095 1.376 . S
C3096 C3097 1.388 . S
C3097 H3084 0.930 . S
C3097 C3096 1.388 . S
C3097 C3098 1.390 . S
C3098 C3097 1.390 . S
C3098 C3099 1.394 . S
C3098 C3104 1.465 . S
C3099 C3094 1.399 . S
C3099 C3098 1.394 . S
C3099 C3100 1.516 . S
C3100 C3099 1.516 . S
C3100 C3101 1.502 . S
C3100 C3102 1.561 . S
C3100 C3103 1.526 . S
C3101 H3085 0.959 . S
C3101 H3086 0.959 . S
C3101 H3087 0.961 . S
C3101 C3100 1.502 . S
C3102 H3088 0.960 . S
C3102 H3089 0.961 . S
C3102 H3090 0.959 . S
C3102 C3100 1.561 . S
C3103 C3100 1.526 . S
C3103 C3104 1.396 . S
C3103 C3108 1.390 . S
C3104 C3098 1.465 . S
C3104 C3103 1.396 . S
C3104 C3105 1.399 . S
C3105 H3091 0.929 . S
C3105 C3104 1.399 . S
C3105 C3106 1.385 . S
C3106 H3092 0.931 . S
C3106 C3105 1.385 . S
C3106 C3107 1.389 . S
C3107 C3106 1.389 . S
C3107 C3108 1.387 . S
C3108 H3093 0.930 . S
C3108 C3103 1.390 . S
C3108 C3107 1.387 . S
H3109 C3121 0.930 . S
H3110 C3123 0.930 . S
H3111 C3124 0.930 . S
H3112 C3128 0.959 . S
H3113 C3128 0.959 . S
H3114 C3128 0.961 . S
H3115 C3129 0.960 . S
H3116 C3129 0.961 . S
H3117 C3129 0.959 . S
H3118 C3132 0.929 . S
H3119 C3133 0.931 . S
H3120 C3135 0.930 . S
C3121 H3109 0.930 . S
C3121 C3122 1.399 . S
C3121 C3126 1.399 . S
C3122 C3121 1.399 . S
C3122 C3123 1.376 . S
C3123 H3110 0.930 . S
C3123 C3122 1.376 . S
C3123 C3124 1.388 . S
C3124 H3111 0.930 . S
C3124 C3123 1.388 . S
C3124 C3125 1.390 . S
C3125 C3124 1.390 . S
C3125 C3126 1.394 . S
C3125 C3131 1.465 . S
C3126 C3121 1.399 . S
C3126 C3125 1.394 . S
C3126 C3127 1.516 . S
C3127 C3126 1.516 . S
C3127 C3128 1.502 . S
C3127 C3129 1.561 . S
C3127 C3130 1.526 . S
C3128 H3112 0.959 . S
C3128 H3113 0.959 . S
C3128 H3114 0.961 . S
C3128 C3127 1.502 . S
C3129 H3115 0.960 . S
C3129 H3116 0.961 . S
C3129 H3117 0.959 . S
C3129 C3127 1.561 . S
C3130 C3127 1.526 . S
C3130 C3131 1.396 . S
C3130 C3135 1.390 . S
C3131 C3125 1.465 . S
C3131 C3130 1.396 . S
C3131 C3132 1.399 . S
C3132 H3118 0.929 . S
C3132 C3131 1.399 . S
C3132 C3133 1.385 . S
C3133 H3119 0.931 . S
C3133 C3132 1.385 . S
C3133 C3134 1.389 . S
C3134 C3133 1.389 . S
C3134 C3135 1.387 . S
C3135 H3120 0.930 . S
C3135 C3130 1.390 . S
C3135 C3134 1.387 . S
H3136 C3148 0.930 . S
H3137 C3150 0.930 . S
H3138 C3151 0.930 . S
H3139 C3155 0.959 . S
H3140 C3155 0.959 . S
H3141 C3155 0.961 . S
H3142 C3156 0.960 . S
H3143 C3156 0.961 . S
H3144 C3156 0.959 . S
H3145 C3159 0.929 . S
H3146 C3160 0.931 . S
H3147 C3162 0.930 . S
C3148 H3136 0.930 . S
C3148 C3149 1.399 . S
C3148 C3153 1.399 . S
C3149 C3148 1.399 . S
C3149 C3150 1.376 . S
C3150 H3137 0.930 . S
C3150 C3149 1.376 . S
C3150 C3151 1.388 . S
C3151 H3138 0.930 . S
C3151 C3150 1.388 . S
C3151 C3152 1.390 . S
C3152 C3151 1.390 . S
C3152 C3153 1.394 . S
C3152 C3158 1.465 . S
C3153 C3148 1.399 . S
C3153 C3152 1.394 . S
C3153 C3154 1.516 . S
C3154 C3153 1.516 . S
C3154 C3155 1.502 . S
C3154 C3156 1.561 . S
C3154 C3157 1.526 . S
C3155 H3139 0.959 . S
C3155 H3140 0.959 . S
C3155 H3141 0.961 . S
C3155 C3154 1.502 . S
C3156 H3142 0.960 . S
C3156 H3143 0.961 . S
C3156 H3144 0.959 . S
C3156 C3154 1.561 . S
C3157 C3154 1.526 . S
C3157 C3158 1.396 . S
C3157 C3162 1.390 . S
C3158 C3152 1.465 . S
C3158 C3157 1.396 . S
C3158 C3159 1.399 . S
C3159 H3145 0.929 . S
C3159 C3158 1.399 . S
C3159 C3160 1.385 . S
C3160 H3146 0.931 . S
C3160 C3159 1.385 . S
C3160 C3161 1.389 . S
C3161 C3160 1.389 . S
C3161 C3162 1.387 . S
C3162 H3147 0.930 . S
C3162 C3157 1.390 . S
C3162 C3161 1.387 . S
H3163 C3175 0.930 . S
H3164 C3177 0.930 . S
H3165 C3178 0.930 . S
H3166 C3182 0.959 . S
H3167 C3182 0.959 . S
H3168 C3182 0.961 . S
H3169 C3183 0.960 . S
H3170 C3183 0.961 . S
H3171 C3183 0.959 . S
H3172 C3186 0.929 . S
H3173 C3187 0.931 . S
H3174 C3189 0.930 . S
C3175 H3163 0.930 . S
C3175 C3176 1.399 . S
C3175 C3180 1.399 . S
C3176 C3175 1.399 . S
C3176 C3177 1.376 . S
C3177 H3164 0.930 . S
C3177 C3176 1.376 . S
C3177 C3178 1.388 . S
C3178 H3165 0.930 . S
C3178 C3177 1.388 . S
C3178 C3179 1.390 . S
C3179 C3178 1.390 . S
C3179 C3180 1.394 . S
C3179 C3185 1.465 . S
C3180 C3175 1.399 . S
C3180 C3179 1.394 . S
C3180 C3181 1.516 . S
C3181 C3180 1.516 . S
C3181 C3182 1.502 . S
C3181 C3183 1.561 . S
C3181 C3184 1.526 . S
C3182 H3166 0.959 . S
C3182 H3167 0.959 . S
C3182 H3168 0.961 . S
C3182 C3181 1.502 . S
C3183 H3169 0.960 . S
C3183 H3170 0.961 . S
C3183 H3171 0.959 . S
C3183 C3181 1.561 . S
C3184 C3181 1.526 . S
C3184 C3185 1.396 . S
C3184 C3189 1.390 . S
C3185 C3179 1.465 . S
C3185 C3184 1.396 . S
C3185 C3186 1.399 . S
C3186 H3172 0.929 . S
C3186 C3185 1.399 . S
C3186 C3187 1.385 . S
C3187 H3173 0.931 . S
C3187 C3186 1.385 . S
C3187 C3188 1.389 . S
C3188 C3187 1.389 . S
C3188 C3189 1.387 . S
C3189 H3174 0.930 . S
C3189 C3184 1.390 . S
C3189 C3188 1.387 . S
H3190 C3202 0.930 . S
H3191 C3204 0.930 . S
H3192 C3205 0.930 . S
H3193 C3209 0.959 . S
H3194 C3209 0.959 . S
H3195 C3209 0.961 . S
H3196 C3210 0.960 . S
H3197 C3210 0.961 . S
H3198 C3210 0.959 . S
H3199 C3213 0.929 . S
H3200 C3214 0.931 . S
H3201 C3216 0.930 1_554 S
C3202 H3190 0.930 . S
C3202 C3203 1.399 . S
C3202 C3207 1.399 . S
C3203 C3202 1.399 . S
C3203 C3204 1.376 . S
C3204 H3191 0.930 . S
C3204 C3203 1.376 . S
C3204 C3205 1.388 . S
C3205 H3192 0.930 . S
C3205 C3204 1.388 . S
C3205 C3206 1.390 . S
C3206 C3205 1.390 . S
C3206 C3207 1.394 . S
C3206 C3212 1.465 . S
C3207 C3202 1.399 . S
C3207 C3206 1.394 . S
C3207 C3208 1.516 . S
C3208 C3207 1.516 . S
C3208 C3209 1.502 . S
C3208 C3210 1.561 . S
C3208 C3211 1.526 . S
C3209 H3193 0.959 . S
C3209 H3194 0.959 . S
C3209 H3195 0.961 . S
C3209 C3208 1.502 . S
C3210 H3196 0.960 . S
C3210 H3197 0.961 . S
C3210 H3198 0.959 . S
C3210 C3208 1.561 . S
C3211 C3208 1.526 . S
C3211 C3212 1.396 . S
C3211 C3216 1.390 . S
C3212 C3206 1.465 . S
C3212 C3211 1.396 . S
C3212 C3213 1.399 . S
C3213 H3199 0.929 . S
C3213 C3212 1.399 . S
C3213 C3214 1.385 . S
C3214 H3200 0.931 . S
C3214 C3213 1.385 . S
C3214 C3215 1.405 . S
C3215 C3214 1.405 . S
C3215 C3216 1.400 . S
C3216 H3201 0.930 1_556 S
C3216 C3211 1.390 . S
C3216 C3215 1.400 . S
H3217 C3229 0.930 . S
H3218 C3231 0.930 . S
H3219 C3232 0.930 . S
H3220 C3236 0.959 . S
H3221 C3236 0.959 . S
H3222 C3236 0.961 . S
H3223 C3237 0.960 . S
H3224 C3237 0.961 . S
H3225 C3237 0.959 . S
H3226 C3240 0.929 . S
H3227 C3241 0.931 . S
H3228 C3243 0.930 . S
C3229 H3217 0.930 . S
C3229 C3230 1.399 . S
C3229 C3234 1.399 . S
C3230 C3229 1.399 . S
C3230 C3231 1.376 . S
C3231 H3218 0.930 . S
C3231 C3230 1.376 . S
C3231 C3232 1.388 . S
C3232 H3219 0.930 . S
C3232 C3231 1.388 . S
C3232 C3233 1.390 . S
C3233 C3232 1.390 . S
C3233 C3234 1.394 . S
C3233 C3239 1.465 . S
C3234 C3229 1.399 . S
C3234 C3233 1.394 . S
C3234 C3235 1.516 . S
C3235 C3234 1.516 . S
C3235 C3236 1.502 . S
C3235 C3237 1.561 . S
C3235 C3238 1.526 . S
C3236 H3220 0.959 . S
C3236 H3221 0.959 . S
C3236 H3222 0.961 . S
C3236 C3235 1.502 . S
C3237 H3223 0.960 . S
C3237 H3224 0.961 . S
C3237 H3225 0.959 . S
C3237 C3235 1.561 . S
C3238 C3235 1.526 . S
C3238 C3239 1.396 . S
C3238 C3243 1.390 . S
C3239 C3233 1.465 . S
C3239 C3238 1.396 . S
C3239 C3240 1.399 . S
C3240 H3226 0.929 . S
C3240 C3239 1.399 . S
C3240 C3241 1.385 . S
C3241 H3227 0.931 . S
C3241 C3240 1.385 . S
C3241 C3242 1.389 . S
C3242 C3241 1.389 . S
C3242 C3243 1.387 . S
C3243 H3228 0.930 . S
C3243 C3238 1.390 . S
C3243 C3242 1.387 . S
H3244 C3256 0.930 . S
H3245 C3258 0.930 . S
H3246 C3259 0.930 . S
H3247 C3263 0.959 . S
H3248 C3263 0.959 . S
H3249 C3263 0.961 . S
H3250 C3264 0.960 . S
H3251 C3264 0.961 . S
H3252 C3264 0.959 . S
H3253 C3267 0.929 . S
H3254 C3268 0.931 . S
H3255 C3270 0.930 . S
C3256 H3244 0.930 . S
C3256 C3257 1.399 . S
C3256 C3261 1.399 . S
C3257 C3256 1.399 . S
C3257 C3258 1.376 . S
C3258 H3245 0.930 . S
C3258 C3257 1.376 . S
C3258 C3259 1.388 . S
C3259 H3246 0.930 . S
C3259 C3258 1.388 . S
C3259 C3260 1.390 . S
C3260 C3259 1.390 . S
C3260 C3261 1.394 . S
C3260 C3266 1.465 . S
C3261 C3256 1.399 . S
C3261 C3260 1.394 . S
C3261 C3262 1.516 . S
C3262 C3261 1.516 . S
C3262 C3263 1.502 . S
C3262 C3264 1.561 . S
C3262 C3265 1.526 . S
C3263 H3247 0.959 . S
C3263 H3248 0.959 . S
C3263 H3249 0.961 . S
C3263 C3262 1.502 . S
C3264 H3250 0.960 . S
C3264 H3251 0.961 . S
C3264 H3252 0.959 . S
C3264 C3262 1.561 . S
C3265 C3262 1.526 . S
C3265 C3266 1.396 . S
C3265 C3270 1.390 . S
C3266 C3260 1.465 . S
C3266 C3265 1.396 . S
C3266 C3267 1.399 . S
C3267 H3253 0.929 . S
C3267 C3266 1.399 . S
C3267 C3268 1.385 . S
C3268 H3254 0.931 . S
C3268 C3267 1.385 . S
C3268 C3269 1.389 . S
C3269 C3268 1.389 . S
C3269 C3270 1.387 . S
C3270 H3255 0.930 . S
C3270 C3265 1.390 . S
C3270 C3269 1.387 . S
H3271 C3283 0.930 . S
H3272 C3285 0.930 . S
H3273 C3286 0.930 . S
H3274 C3290 0.959 . S
H3275 C3290 0.959 . S
H3276 C3290 0.961 . S
H3277 C3291 0.960 . S
H3278 C3291 0.961 . S
H3279 C3291 0.959 . S
H3280 C3294 0.929 . S
H3281 C3295 0.931 . S
H3282 C3297 0.930 . S
C3283 H3271 0.930 . S
C3283 C3284 1.399 . S
C3283 C3288 1.399 . S
C3284 C3283 1.399 . S
C3284 C3285 1.376 . S
C3285 H3272 0.930 . S
C3285 C3284 1.376 . S
C3285 C3286 1.388 . S
C3286 H3273 0.930 . S
C3286 C3285 1.388 . S
C3286 C3287 1.390 . S
C3287 C3286 1.390 . S
C3287 C3288 1.394 . S
C3287 C3293 1.465 . S
C3288 C3283 1.399 . S
C3288 C3287 1.394 . S
C3288 C3289 1.516 . S
C3289 C3288 1.516 . S
C3289 C3290 1.502 . S
C3289 C3291 1.561 . S
C3289 C3292 1.526 . S
C3290 H3274 0.959 . S
C3290 H3275 0.959 . S
C3290 H3276 0.961 . S
C3290 C3289 1.502 . S
C3291 H3277 0.960 . S
C3291 H3278 0.961 . S
C3291 H3279 0.959 . S
C3291 C3289 1.561 . S
C3292 C3289 1.526 . S
C3292 C3293 1.396 . S
C3292 C3297 1.390 . S
C3293 C3287 1.465 . S
C3293 C3292 1.396 . S
C3293 C3294 1.399 . S
C3294 H3280 0.929 . S
C3294 C3293 1.399 . S
C3294 C3295 1.385 . S
C3295 H3281 0.931 . S
C3295 C3294 1.385 . S
C3295 C3296 1.389 . S
C3296 C3295 1.389 . S
C3296 C3297 1.387 . S
C3297 H3282 0.930 . S
C3297 C3292 1.390 . S
C3297 C3296 1.387 . S
H3298 C3310 0.930 . S
H3299 C3312 0.930 . S
H3300 C3313 0.930 . S
H3301 C3317 0.959 . S
H3302 C3317 0.959 . S
H3303 C3317 0.961 . S
H3304 C3318 0.960 . S
H3305 C3318 0.961 . S
H3306 C3318 0.959 . S
H3307 C3321 0.929 . S
H3308 C3322 0.931 . S
H3309 C3324 0.930 . S
C3310 H3298 0.930 . S
C3310 C3311 1.399 . S
C3310 C3315 1.399 . S
C3311 C3310 1.399 . S
C3311 C3312 1.376 1_455 S
C3312 H3299 0.930 . S
C3312 C3311 1.376 1_655 S
C3312 C3313 1.388 . S
C3313 H3300 0.930 . S
C3313 C3312 1.388 . S
C3313 C3314 1.390 . S
C3314 C3313 1.390 . S
C3314 C3315 1.394 1_655 S
C3314 C3320 1.465 . S
C3315 C3310 1.399 . S
C3315 C3314 1.394 1_455 S
C3315 C3316 1.516 . S
C3316 C3315 1.516 . S
C3316 C3317 1.502 . S
C3316 C3318 1.561 . S
C3316 C3319 1.526 . S
C3317 H3301 0.959 . S
C3317 H3302 0.959 . S
C3317 H3303 0.961 . S
C3317 C3316 1.502 . S
C3318 H3304 0.960 . S
C3318 H3305 0.961 . S
C3318 H3306 0.959 . S
C3318 C3316 1.561 . S
C3319 C3316 1.526 . S
C3319 C3320 1.396 1_455 S
C3319 C3324 1.390 . S
C3320 C3314 1.465 . S
C3320 C3319 1.396 1_655 S
C3320 C3321 1.399 . S
C3321 H3307 0.929 . S
C3321 C3320 1.399 . S
C3321 C3322 1.385 . S
C3322 H3308 0.931 . S
C3322 C3321 1.385 . S
C3322 C3323 1.389 1_655 S
C3323 C3322 1.389 1_455 S
C3323 C3324 1.387 . S
C3324 H3309 0.930 . S
C3324 C3319 1.390 . S
C3324 C3323 1.387 . S
H3325 C3337 0.930 . S
H3326 C3339 0.930 . S
H3327 C3340 0.930 . S
H3328 C3344 0.959 . S
H3329 C3344 0.959 . S
H3330 C3344 0.961 . S
H3331 C3345 0.960 . S
H3332 C3345 0.961 . S
H3333 C3345 0.959 . S
H3334 C3348 0.929 . S
H3335 C3349 0.931 . S
H3336 C3351 0.930 . S
C3337 H3325 0.930 . S
C3337 C3338 1.399 . S
C3337 C3342 1.399 . S
C3338 C3337 1.399 . S
C3338 C3339 1.376 . S
C3339 H3326 0.930 . S
C3339 C3338 1.376 . S
C3339 C3340 1.388 . S
C3340 H3327 0.930 . S
C3340 C3339 1.388 . S
C3340 C3341 1.390 . S
C3341 C3340 1.390 . S
C3341 C3342 1.394 . S
C3341 C3347 1.465 . S
C3342 C3337 1.399 . S
C3342 C3341 1.394 . S
C3342 C3343 1.516 . S
C3343 C3342 1.516 . S
C3343 C3344 1.502 . S
C3343 C3345 1.561 . S
C3343 C3346 1.526 . S
C3344 H3328 0.959 . S
C3344 H3329 0.959 . S
C3344 H3330 0.961 . S
C3344 C3343 1.502 . S
C3345 H3331 0.960 . S
C3345 H3332 0.961 . S
C3345 H3333 0.959 . S
C3345 C3343 1.561 . S
C3346 C3343 1.526 . S
C3346 C3347 1.396 . S
C3346 C3351 1.390 . S
C3347 C3341 1.465 . S
C3347 C3346 1.396 . S
C3347 C3348 1.399 . S
C3348 H3334 0.929 . S
C3348 C3347 1.399 . S
C3348 C3349 1.385 . S
C3349 H3335 0.931 . S
C3349 C3348 1.385 . S
C3349 C3350 1.389 . S
C3350 C3349 1.389 . S
C3350 C3351 1.387 . S
C3351 H3336 0.930 . S
C3351 C3346 1.390 . S
C3351 C3350 1.387 . S
H3352 C3364 0.930 . S
H3353 C3366 0.930 . S
H3354 C3367 0.930 . S
H3355 C3371 0.959 . S
H3356 C3371 0.959 . S
H3357 C3371 0.961 . S
H3358 C3372 0.960 . S
H3359 C3372 0.961 . S
H3360 C3372 0.959 . S
H3361 C3375 0.929 . S
H3362 C3376 0.931 . S
H3363 C3378 0.930 . S
C3364 H3352 0.930 . S
C3364 C3365 1.399 . S
C3364 C3369 1.399 . S
C3365 C3364 1.399 . S
C3365 C3366 1.376 . S
C3366 H3353 0.930 . S
C3366 C3365 1.376 . S
C3366 C3367 1.388 . S
C3367 H3354 0.930 . S
C3367 C3366 1.388 . S
C3367 C3368 1.390 . S
C3368 C3367 1.390 . S
C3368 C3369 1.394 . S
C3368 C3374 1.465 . S
C3369 C3364 1.399 . S
C3369 C3368 1.394 . S
C3369 C3370 1.516 . S
C3370 C3369 1.516 . S
C3370 C3371 1.502 . S
C3370 C3372 1.561 . S
C3370 C3373 1.526 . S
C3371 H3355 0.959 . S
C3371 H3356 0.959 . S
C3371 H3357 0.961 . S
C3371 C3370 1.502 . S
C3372 H3358 0.960 . S
C3372 H3359 0.961 . S
C3372 H3360 0.959 . S
C3372 C3370 1.561 . S
C3373 C3370 1.526 . S
C3373 C3374 1.396 . S
C3373 C3378 1.390 . S
C3374 C3368 1.465 . S
C3374 C3373 1.396 . S
C3374 C3375 1.399 . S
C3375 H3361 0.929 . S
C3375 C3374 1.399 . S
C3375 C3376 1.385 . S
C3376 H3362 0.931 . S
C3376 C3375 1.385 . S
C3376 C3377 1.389 . S
C3377 C3376 1.389 . S
C3377 C3378 1.387 . S
C3378 H3363 0.930 . S
C3378 C3373 1.390 . S
C3378 C3377 1.387 . S
H3379 C3391 0.930 . S
H3380 C3393 0.930 . S
H3381 C3394 0.930 . S
H3382 C3398 0.959 . S
H3383 C3398 0.959 . S
H3384 C3398 0.961 . S
H3385 C3399 0.960 . S
H3386 C3399 0.961 . S
H3387 C3399 0.959 . S
H3388 C3402 0.929 . S
H3389 C3403 0.931 . S
H3390 C3405 0.930 . S
C3391 H3379 0.930 . S
C3391 C3392 1.399 . S
C3391 C3396 1.399 . S
C3392 C3391 1.399 . S
C3392 C3393 1.376 . S
C3393 H3380 0.930 . S
C3393 C3392 1.376 . S
C3393 C3394 1.388 . S
C3394 H3381 0.930 . S
C3394 C3393 1.388 . S
C3394 C3395 1.390 . S
C3395 C3394 1.390 . S
C3395 C3396 1.394 . S
C3395 C3401 1.465 . S
C3396 C3391 1.399 . S
C3396 C3395 1.394 . S
C3396 C3397 1.516 . S
C3397 C3396 1.516 . S
C3397 C3398 1.502 . S
C3397 C3399 1.561 . S
C3397 C3400 1.526 . S
C3398 H3382 0.959 . S
C3398 H3383 0.959 . S
C3398 H3384 0.961 . S
C3398 C3397 1.502 . S
C3399 H3385 0.960 . S
C3399 H3386 0.961 . S
C3399 H3387 0.959 . S
C3399 C3397 1.561 . S
C3400 C3397 1.526 . S
C3400 C3401 1.396 . S
C3400 C3405 1.390 . S
C3401 C3395 1.465 . S
C3401 C3400 1.396 . S
C3401 C3402 1.399 1_565 S
C3402 H3388 0.929 . S
C3402 C3401 1.399 1_545 S
C3402 C3403 1.385 . S
C3403 H3389 0.931 . S
C3403 C3402 1.385 . S
C3403 C3404 1.390 1_545 S
C3404 C3403 1.390 1_565 S
C3404 C3405 1.385 . S
C3405 H3390 0.930 . S
C3405 C3400 1.390 . S
C3405 C3404 1.385 . S
H3406 C3418 0.930 . S
H3407 C3420 0.930 . S
H3408 C3421 0.930 . S
H3409 C3425 0.959 . S
H3410 C3425 0.959 . S
H3411 C3425 0.961 . S
H3412 C3426 0.960 . S
H3413 C3426 0.961 . S
H3414 C3426 0.959 . S
H3415 C3429 0.929 . S
H3416 C3430 0.931 . S
H3417 C3432 0.930 . S
C3418 H3406 0.930 . S
C3418 C3419 1.399 . S
C3418 C3423 1.399 . S
C3419 C3418 1.399 . S
C3419 C3420 1.376 . S
C3420 H3407 0.930 . S
C3420 C3419 1.376 . S
C3420 C3421 1.388 . S
C3421 H3408 0.930 . S
C3421 C3420 1.388 . S
C3421 C3422 1.390 . S
C3422 C3421 1.390 . S
C3422 C3423 1.394 . S
C3422 C3428 1.465 . S
C3423 C3418 1.399 . S
C3423 C3422 1.394 . S
C3423 C3424 1.516 . S
C3424 C3423 1.516 . S
C3424 C3425 1.502 . S
C3424 C3426 1.561 . S
C3424 C3427 1.526 . S
C3425 H3409 0.959 . S
C3425 H3410 0.959 . S
C3425 H3411 0.961 . S
C3425 C3424 1.502 . S
C3426 H3412 0.960 . S
C3426 H3413 0.961 . S
C3426 H3414 0.959 . S
C3426 C3424 1.561 . S
C3427 C3424 1.526 . S
C3427 C3428 1.396 . S
C3427 C3432 1.390 . S
C3428 C3422 1.465 . S
C3428 C3427 1.396 . S
C3428 C3429 1.399 . S
C3429 H3415 0.929 . S
C3429 C3428 1.399 . S
C3429 C3430 1.385 . S
C3430 H3416 0.931 . S
C3430 C3429 1.385 . S
C3430 C3431 1.389 . S
C3431 C3430 1.389 . S
C3431 C3432 1.387 . S
C3432 H3417 0.930 . S
C3432 C3427 1.390 . S
C3432 C3431 1.387 . S
H3433 C3445 0.930 . S
H3434 C3447 0.930 . S
H3435 C3448 0.930 . S
H3436 C3452 0.959 . S
H3437 C3452 0.959 . S
H3438 C3452 0.961 . S
H3439 C3453 0.960 . S
H3440 C3453 0.961 . S
H3441 C3453 0.959 1_556 S
H3442 C3456 0.929 . S
H3443 C3457 0.931 1_556 S
H3444 C3459 0.930 . S
C3445 H3433 0.930 . S
C3445 C3446 1.370 1_554 S
C3445 C3450 1.399 . S
C3446 C3445 1.370 1_556 S
C3446 C3447 1.399 . S
C3447 H3434 0.930 . S
C3447 C3446 1.399 . S
C3447 C3448 1.388 . S
C3448 H3435 0.930 . S
C3448 C3447 1.388 . S
C3448 C3449 1.390 . S
C3449 C3448 1.390 . S
C3449 C3450 1.394 1_556 S
C3449 C3455 1.465 1_556 S
C3450 C3445 1.399 . S
C3450 C3449 1.394 1_554 S
C3450 C3451 1.516 . S
C3451 C3450 1.516 . S
C3451 C3452 1.502 . S
C3451 C3453 1.561 . S
C3451 C3454 1.526 . S
C3452 H3436 0.959 . S
C3452 H3437 0.959 . S
C3452 H3438 0.961 . S
C3452 C3451 1.502 . S
C3453 H3439 0.960 . S
C3453 H3440 0.961 . S
C3453 H3441 0.959 1_554 S
C3453 C3451 1.561 . S
C3454 C3451 1.526 . S
C3454 C3455 1.396 . S
C3454 C3459 1.390 . S
C3455 C3449 1.465 1_554 S
C3455 C3454 1.396 . S
C3455 C3456 1.399 1_554 S
C3456 H3442 0.929 . S
C3456 C3455 1.399 1_556 S
C3456 C3457 1.385 1_556 S
C3457 H3443 0.931 1_554 S
C3457 C3456 1.385 1_554 S
C3457 C3458 1.389 . S
C3458 C3457 1.389 . S
C3458 C3459 1.387 . S
C3459 H3444 0.930 . S
C3459 C3454 1.390 . S
C3459 C3458 1.387 . S
H3460 C3472 0.930 . S
H3461 C3474 0.930 . S
H3462 C3475 0.930 . S
H3463 C3479 0.959 . S
H3464 C3479 0.959 . S
H3465 C3479 0.961 . S
H3466 C3480 0.960 . S
H3467 C3480 0.961 . S
H3468 C3480 0.959 . S
H3469 C3483 0.929 . S
H3470 C3484 0.931 . S
H3471 C3486 0.930 . S
C3472 H3460 0.930 . S
C3472 C3473 1.399 . S
C3472 C3477 1.399 . S
C3473 C3472 1.399 . S
C3473 C3474 1.376 . S
C3474 H3461 0.930 . S
C3474 C3473 1.376 . S
C3474 C3475 1.388 . S
C3475 H3462 0.930 . S
C3475 C3474 1.388 . S
C3475 C3476 1.390 . S
C3476 C3475 1.390 . S
C3476 C3477 1.394 . S
C3476 C3482 1.465 . S
C3477 C3472 1.399 . S
C3477 C3476 1.394 . S
C3477 C3478 1.516 . S
C3478 C3477 1.516 . S
C3478 C3479 1.502 . S
C3478 C3480 1.561 . S
C3478 C3481 1.526 . S
C3479 H3463 0.959 . S
C3479 H3464 0.959 . S
C3479 H3465 0.961 . S
C3479 C3478 1.502 . S
C3480 H3466 0.960 . S
C3480 H3467 0.961 . S
C3480 H3468 0.959 . S
C3480 C3478 1.561 . S
C3481 C3478 1.526 . S
C3481 C3482 1.396 . S
C3481 C3486 1.390 . S
C3482 C3476 1.465 . S
C3482 C3481 1.396 . S
C3482 C3483 1.399 . S
C3483 H3469 0.929 . S
C3483 C3482 1.399 . S
C3483 C3484 1.385 . S
C3484 H3470 0.931 . S
C3484 C3483 1.385 . S
C3484 C3485 1.389 . S
C3485 C3484 1.389 . S
C3485 C3486 1.387 . S
C3486 H3471 0.930 . S
C3486 C3481 1.390 . S
C3486 C3485 1.387 . S
H3487 C3499 0.930 . S
H3488 C3501 0.930 . S
H3489 C3502 0.930 . S
H3490 C3506 0.959 . S
H3491 C3506 0.959 1_556 S
H3492 C3506 0.961 1_556 S
H3493 C3507 0.960 . S
H3494 C3507 0.961 . S
H3495 C3507 0.959 1_554 S
H3496 C3510 0.929 . S
H3497 C3511 0.931 . S
H3498 C3513 0.930 . S
C3499 H3487 0.930 . S
C3499 C3500 1.399 . S
C3499 C3504 1.399 . S
C3500 C3499 1.399 . S
C3500 C3501 1.376 . S
C3501 H3488 0.930 . S
C3501 C3500 1.376 . S
C3501 C3502 1.388 . S
C3502 H3489 0.930 . S
C3502 C3501 1.388 . S
C3502 C3503 1.390 . S
C3503 C3502 1.390 . S
C3503 C3504 1.394 . S
C3503 C3509 1.465 . S
C3504 C3499 1.399 . S
C3504 C3503 1.394 . S
C3504 C3505 1.516 . S
C3505 C3504 1.516 . S
C3505 C3506 1.502 . S
C3505 C3507 1.561 1_554 S
C3505 C3508 1.526 . S
C3506 H3490 0.959 . S
C3506 H3491 0.959 1_554 S
C3506 H3492 0.961 1_554 S
C3506 C3505 1.502 . S
C3507 H3493 0.960 . S
C3507 H3494 0.961 . S
C3507 H3495 0.959 1_556 S
C3507 C3505 1.561 1_556 S
C3508 C3505 1.526 . S
C3508 C3509 1.396 . S
C3508 C3513 1.390 . S
C3509 C3503 1.465 . S
C3509 C3508 1.396 . S
C3509 C3510 1.399 . S
C3510 H3496 0.929 . S
C3510 C3509 1.399 . S
C3510 C3511 1.385 . S
C3511 H3497 0.931 . S
C3511 C3510 1.385 . S
C3511 C3512 1.389 . S
C3512 C3511 1.389 . S
C3512 C3513 1.387 . S
C3513 H3498 0.930 . S
C3513 C3508 1.390 . S
C3513 C3512 1.387 . S
H3514 C3526 0.930 . S
H3515 C3528 0.930 . S
H3516 C3529 0.930 . S
H3517 C3533 0.959 . S
H3518 C3533 0.959 . S
H3519 C3533 0.961 . S
H3520 C3534 0.960 . S
H3521 C3534 0.961 . S
H3522 C3534 0.959 . S
H3523 C3537 0.929 . S
H3524 C3538 0.931 . S
H3525 C3540 0.930 . S
C3526 H3514 0.930 . S
C3526 C3527 1.399 . S
C3526 C3531 1.399 . S
C3527 C3526 1.399 . S
C3527 C3528 1.376 . S
C3528 H3515 0.930 . S
C3528 C3527 1.376 . S
C3528 C3529 1.388 . S
C3529 H3516 0.930 . S
C3529 C3528 1.388 . S
C3529 C3530 1.390 . S
C3530 C3529 1.390 . S
C3530 C3531 1.394 . S
C3530 C3536 1.465 . S
C3531 C3526 1.399 . S
C3531 C3530 1.394 . S
C3531 C3532 1.516 . S
C3532 C3531 1.516 . S
C3532 C3533 1.502 . S
C3532 C3534 1.561 . S
C3532 C3535 1.526 . S
C3533 H3517 0.959 . S
C3533 H3518 0.959 . S
C3533 H3519 0.961 . S
C3533 C3532 1.502 . S
C3534 H3520 0.960 . S
C3534 H3521 0.961 . S
C3534 H3522 0.959 . S
C3534 C3532 1.561 . S
C3535 C3532 1.526 . S
C3535 C3536 1.396 . S
C3535 C3540 1.390 . S
C3536 C3530 1.465 . S
C3536 C3535 1.396 . S
C3536 C3537 1.399 . S
C3537 H3523 0.929 . S
C3537 C3536 1.399 . S
C3537 C3538 1.385 . S
C3538 H3524 0.931 . S
C3538 C3537 1.385 . S
C3538 C3539 1.389 . S
C3539 C3538 1.389 . S
C3539 C3540 1.387 . S
C3540 H3525 0.930 . S
C3540 C3535 1.390 . S
C3540 C3539 1.387 . S
H3541 C3553 0.930 . S
H3542 C3555 0.930 . S
H3543 C3556 0.930 . S
H3544 C3560 0.959 . S
H3545 C3560 0.959 . S
H3546 C3560 0.961 . S
H3547 C3561 0.960 . S
H3548 C3561 0.961 . S
H3549 C3561 0.959 . S
H3550 C3564 0.929 . S
H3551 C3565 0.931 . S
H3552 C3567 0.930 . S
C3553 H3541 0.930 . S
C3553 C3554 1.399 . S
C3553 C3558 1.399 . S
C3554 C3553 1.399 . S
C3554 C3555 1.376 . S
C3555 H3542 0.930 . S
C3555 C3554 1.376 . S
C3555 C3556 1.388 . S
C3556 H3543 0.930 . S
C3556 C3555 1.388 . S
C3556 C3557 1.390 . S
C3557 C3556 1.390 . S
C3557 C3558 1.394 . S
C3557 C3563 1.465 . S
C3558 C3553 1.399 . S
C3558 C3557 1.394 . S
C3558 C3559 1.516 . S
C3559 C3558 1.516 . S
C3559 C3560 1.502 . S
C3559 C3561 1.561 . S
C3559 C3562 1.526 . S
C3560 H3544 0.959 . S
C3560 H3545 0.959 . S
C3560 H3546 0.961 . S
C3560 C3559 1.502 . S
C3561 H3547 0.960 . S
C3561 H3548 0.961 . S
C3561 H3549 0.959 . S
C3561 C3559 1.561 . S
C3562 C3559 1.526 . S
C3562 C3563 1.396 . S
C3562 C3567 1.390 . S
C3563 C3557 1.465 . S
C3563 C3562 1.396 . S
C3563 C3564 1.399 . S
C3564 H3550 0.929 . S
C3564 C3563 1.399 . S
C3564 C3565 1.385 . S
C3565 H3551 0.931 . S
C3565 C3564 1.385 . S
C3565 C3566 1.389 . S
C3566 C3565 1.389 . S
C3566 C3567 1.387 . S
C3567 H3552 0.930 . S
C3567 C3562 1.390 . S
C3567 C3566 1.387 . S
C989 C106 2.260 . S
C1001 C358 2.212 . S
C1016 C65 1.120 . S
C1028 C378 1.164 . S
C1043 C79 1.012 . S
C1055 C425 1.001 . S
C1082 C482 0.800 . S
C1070 C90 0.882 . S
C1097 C21 2.370 . S
C1109 C499 2.382 . S
C1136 C558 1.814 . S
C1124 C35 1.809 . S
C1163 C591 2.745 . S
C1151 C50 2.750 . S
C1178 C6 2.452 . S
C1190 C638 2.524 . S
C1217 C351 1.943 . S
C1205 C232 1.882 1_545 S
C1232 C245 1.511 . S
C1244 C379 1.501 . S
C1271 C418 0.598 . S
C1259 C274 0.599 . S
C1298 C478 2.224 . S
C1286 C175 2.176 . S
C1313 C231 0.340 . S
C1325 C505 0.520 . S
C1352 C551 2.257 . S
C1340 C246 2.232 . S
C1379 C602 0.372 . S
C1367 C273 0.540 . S
C1406 C631 2.529 . S
C1394 C176 2.520 . S
C1433 C362 1.957 1_565 S
C1421 C160 1.894 . S
C1448 C289 2.187 . S
C1460 C658 2.143 . S
C1487 C722 1.320 . S
C1475 C328 1.370 . S
C1514 C758 1.516 . S
C1502 C317 1.492 . S
C1529 C118 1.341 . S
C1541 C642 1.534 . S
C1556 C132 2.603 . S
C1568 C419 2.659 . S
C1583 C331 1.528 . S
C1595 C791 1.500 . S
C1622 C825 0.666 . S
C1610 C303 0.560 . S
C1649 C339 1.796 1_565 S
C1637 C63 1.746 . S
C1676 C831 1.598 . S
C1664 C107 1.619 . S
C1691 C92 0.860 . S
C1703 C442 0.870 . S
C1718 C78 1.202 . S
C1730 C785 1.210 . S
C1757 C518 2.999 . S
C1745 C8 2.984 . S
C1772 C51 1.912 . S
C1784 C699 1.900 . S
C1811 C578 3.040 1_556 S
C1799 C37 3.025 . S
C1838 C859 2.373 . S
C1826 C20 2.334 . S
C1865 C338 1.579 . S
C1853 C147 1.424 . S
C1892 C838 1.605 . S
C1880 C316 1.618 . S
C1907 C119 0.509 . S
C1919 C431 0.620 . S
C1934 C288 2.294 . S
C1946 C779 2.303 . S
C1961 C148 0.489 . S
C1973 C522 0.603 . S
C2000 C698 2.240 . S
C1988 C315 2.221 . S
C2015 C120 0.595 . S
C2027 C585 0.655 . S
C2042 C287 2.335 . S
C2054 C858 2.378 . S
C2069 C188 1.526 . S
C2081 C345 1.615 . S
C2096 C177 2.415 . S
C2108 C671 2.414 . S
C2123 C258 1.328 . S
C2135 C545 1.281 . S
C2150 C247 1.669 . S
C2162 C739 1.656 . S
C2189 C865 1.249 . S
C2177 C272 1.288 . S
C2204 C216 2.340 . S
C2216 C438 2.372 1_565 S
C2243 C458 1.772 . S
C2231 C261 1.739 . S
C2270 C402 0.385 . S
C2258 C205 0.501 . S
C2285 C76 1.753 . S
C2297 C918 1.918 . S
C2324 C818 1.153 . S
C2312 C93 1.255 . S
C2339 C105 0.696 . S
C2351 C945 0.712 . S
C2366 C62 0.830 . S
C2378 C802 0.914 . S
C2393 C49 2.303 . S
C2405 C659 2.344 . S
C2432 C718 2.236 . S
C2420 C9 2.219 1_655 S
C2459 C751 2.658 . S
C2447 C22 2.662 . S
C2486 C878 2.826 . S
C2474 C36 2.869 . S
C2513 C911 1.810 . S
C2501 C260 1.800 . S
C2528 C189 1.407 . S
C2540 C819 1.421 . S
C2567 C938 0.450 . S
C2555 C204 0.304 . S
C2594 C798 1.947 . S
C2582 C217 1.854 . S
C2621 C665 0.550 . S
C2609 C259 0.412 . S
C2636 C190 2.344 . S
C2648 C711 2.355 . S
C2675 C762 0.645 . S
C2663 C203 0.371 . S
C2690 C218 2.537 . S
C2702 C871 2.549 . S
C2729 C922 1.932 . S
C2717 C314 1.901 . S
C2744 C135 2.260 . S
C2756 C498 2.231 . S
C2783 C562 1.339 . S
C2771 C146 1.293 1_565 S
C2810 C598 1.562 1_565 S
C2798 C163 1.581 . S
C2837 C882 1.508 . S
C2825 C300 1.373 . S
C2852 C286 2.472 . S
C2864 C939 2.536 1_655 S
C2891 C471 1.380 . S
C2879 C149 1.398 . S
C2918 C385 0.667 . S
C2906 C121 0.590 . S
C2933 C91 1.751 . S
C2945 C899 1.749 . S
C2972 C391 1.264 . S
C2960 C77 1.124 . S
C2987 C64 0.856 . S
C2999 C962 0.868 . S
C3014 C104 0.973 . S
C3026 C465 0.895 . S
C3041 C34 2.607 . S
C3053 C678 2.634 1_556 S
C3080 C539 1.883 . S
C3068 C23 1.888 . S
C3095 C7 2.568 . S
C3107 C738 2.652 . S
C3122 C48 2.317 . S
C3134 C619 2.320 . S
C3161 C898 1.497 . S
C3149 C329 1.460 . S
C3176 C162 1.622 . S
C3188 C398 1.642 . S
C3215 C951 0.662 1_556 S
C3203 C301 0.546 . S
C3230 C134 2.234 . S
C3242 C459 2.247 . S
C3257 C330 0.643 . S
C3269 C682 0.551 . S
C3296 C538 2.221 . S
C3284 C161 2.209 . S
C3311 C302 0.505 . S
C3323 C745 0.606 . S
C3350 C618 2.326 . S
C3338 C133 2.256 . S
C3377 C905 1.699 . S
C3365 C244 1.717 . S
C3404 C511 2.391 1_665 S
C3392 C219 2.412 . S
C3419 C230 1.193 . S
C3431 C705 1.200 . S
C3458 C579 1.652 . S
C3446 C191 1.665 . S
C3473 C202 1.270 . S
C3485 C625 1.439 . S
C3500 C174 2.651 . S
C3512 C958 2.700 . S
C3539 C778 1.735 . S
C3527 C233 1.633 . S
C3566 C842 0.461 . S
C3554 C275 0.538 . S
