# Generated by pormake.
# Topology wbl, (4,4)-cn, num edge types: 1
# Building blocks:
#     Node 0, Type 0, BuildingBlock: MUDLON_clean_sbu_0, # of connection points: 4
#     Node 1, Type 0, BuildingBlock: MUDLON_clean_sbu_0, # of connection points: 4
#     Node 2, Type 0, BuildingBlock: MUDLON_clean_sbu_0, # of connection points: 4
#     Node 3, Type 0, BuildingBlock: MUDLON_clean_sbu_0, # of connection points: 4
#     Node 4, Type 0, BuildingBlock: MUDLON_clean_sbu_0, # of connection points: 4
#     Node 5, Type 0, BuildingBlock: MUDLON_clean_sbu_0, # of connection points: 4
#     Node 6, Type 0, BuildingBlock: MUDLON_clean_sbu_0, # of connection points: 4
#     Node 7, Type 0, BuildingBlock: MUDLON_clean_sbu_0, # of connection points: 4
#     Node 8, Type 1, BuildingBlock: TATPOV_clean_sbu_0, # of connection points: 4
#     Node 9, Type 1, BuildingBlock: TATPOV_clean_sbu_0, # of connection points: 4
#     Node 10, Type 1, BuildingBlock: TATPOV_clean_sbu_0, # of connection points: 4
#     Node 11, Type 1, BuildingBlock: TATPOV_clean_sbu_0, # of connection points: 4
#     Node 12, Type 1, BuildingBlock: TATPOV_clean_sbu_0, # of connection points: 4
#     Node 13, Type 1, BuildingBlock: TATPOV_clean_sbu_0, # of connection points: 4
#     Node 14, Type 1, BuildingBlock: TATPOV_clean_sbu_0, # of connection points: 4
#     Node 15, Type 1, BuildingBlock: TATPOV_clean_sbu_0, # of connection points: 4
#     Edge 16, Type (0, 1), BuildingBlock: AJUNOK_clean_linker_0, # of connection points: 2
#     Edge 17, Type (0, 1), BuildingBlock: AJUNOK_clean_linker_0, # of connection points: 2
#     Edge 18, Type (0, 1), BuildingBlock: AJUNOK_clean_linker_0, # of connection points: 2
#     Edge 19, Type (0, 1), BuildingBlock: AJUNOK_clean_linker_0, # of connection points: 2
#     Edge 20, Type (0, 1), BuildingBlock: AJUNOK_clean_linker_0, # of connection points: 2
#     Edge 21, Type (0, 1), BuildingBlock: AJUNOK_clean_linker_0, # of connection points: 2
#     Edge 22, Type (0, 1), BuildingBlock: AJUNOK_clean_linker_0, # of connection points: 2
#     Edge 23, Type (0, 1), BuildingBlock: AJUNOK_clean_linker_0, # of connection points: 2
#     Edge 24, Type (0, 1), BuildingBlock: AJUNOK_clean_linker_0, # of connection points: 2
#     Edge 25, Type (0, 1), BuildingBlock: AJUNOK_clean_linker_0, # of connection points: 2
#     Edge 26, Type (0, 1), BuildingBlock: AJUNOK_clean_linker_0, # of connection points: 2
#     Edge 27, Type (0, 1), BuildingBlock: AJUNOK_clean_linker_0, # of connection points: 2
#     Edge 28, Type (0, 1), BuildingBlock: AJUNOK_clean_linker_0, # of connection points: 2
#     Edge 29, Type (0, 1), BuildingBlock: AJUNOK_clean_linker_0, # of connection points: 2
#     Edge 30, Type (0, 1), BuildingBlock: AJUNOK_clean_linker_0, # of connection points: 2
#     Edge 31, Type (0, 1), BuildingBlock: AJUNOK_clean_linker_0, # of connection points: 2
#     Edge 32, Type (0, 1), BuildingBlock: AJUNOK_clean_linker_0, # of connection points: 2
#     Edge 33, Type (0, 1), BuildingBlock: AJUNOK_clean_linker_0, # of connection points: 2
#     Edge 34, Type (0, 1), BuildingBlock: AJUNOK_clean_linker_0, # of connection points: 2
#     Edge 35, Type (0, 1), BuildingBlock: AJUNOK_clean_linker_0, # of connection points: 2
#     Edge 36, Type (0, 1), BuildingBlock: AJUNOK_clean_linker_0, # of connection points: 2
#     Edge 37, Type (0, 1), BuildingBlock: AJUNOK_clean_linker_0, # of connection points: 2
#     Edge 38, Type (0, 1), BuildingBlock: AJUNOK_clean_linker_0, # of connection points: 2
#     Edge 39, Type (0, 1), BuildingBlock: AJUNOK_clean_linker_0, # of connection points: 2
#     Edge 40, Type (0, 1), BuildingBlock: AJUNOK_clean_linker_0, # of connection points: 2
#     Edge 41, Type (0, 1), BuildingBlock: AJUNOK_clean_linker_0, # of connection points: 2
#     Edge 42, Type (0, 1), BuildingBlock: AJUNOK_clean_linker_0, # of connection points: 2
#     Edge 43, Type (0, 1), BuildingBlock: AJUNOK_clean_linker_0, # of connection points: 2
#     Edge 44, Type (0, 1), BuildingBlock: AJUNOK_clean_linker_0, # of connection points: 2
#     Edge 45, Type (0, 1), BuildingBlock: AJUNOK_clean_linker_0, # of connection points: 2
#     Edge 46, Type (0, 1), BuildingBlock: AJUNOK_clean_linker_0, # of connection points: 2
#     Edge 47, Type (0, 1), BuildingBlock: AJUNOK_clean_linker_0, # of connection points: 2
# Relax obj value: 0.244
# Max RMSD: 0.234
# Mean RMSD: 0.173
data_MOF--net-wbl--node1-MUDLON_clean_sbu_0--node2-TATPOV_clean_sbu_0--edge1-AJUNOK_clean_linker_0
_symmetry_space_group_name_H-M    P1
_symmetry_Int_Tables_number       1
_symmetry_cell_setting            triclinic
loop_
_symmetry_equiv_pos_as_xyz
'x, y, z'
_cell_length_a     25.709743
_cell_length_b     25.835032
_cell_length_c     54.623962
_cell_angle_alpha  90.650154
_cell_angle_beta   91.196245
_cell_angle_gamma 90.162704
loop_
_atom_site_label
_atom_site_type_symbol
_atom_site_fract_x
_atom_site_fract_y
_atom_site_fract_z
_atom_type_partial_charge
Mg0 Mg 0.15296 0.17703 0.36018 0.0
C1 C 0.10534 0.106 0.39707 0.0
O2 O 0.08768 0.14996 0.40575 0.0
C3 C 0.04975 0.21727 0.34102 0.0
O4 O 0.03508 0.20296 0.36283 0.0
C5 C 0.20754 0.1142 0.32575 0.0
O6 O 0.15772 0.10416 0.32243 0.0
O7 O 0.22066 0.15014 0.34079 0.0
O8 O 0.12668 0.10565 0.37629 0.0
O9 O 0.16354 0.22641 0.39231 0.0
C10 C 0.13635 0.26727 0.39387 0.0
O11 O 0.11885 0.28801 0.37348 0.0
O12 O 0.09653 0.20978 0.3349 0.0
Mg13 Mg 0.06009 0.60961 0.60943 0.0
C14 C 0.16973 0.60548 0.63319 0.0
O15 O 0.18634 0.60964 0.61072 0.0
C16 C 0.01956 0.52571 0.57405 0.0
O17 O 0.0238 0.56227 0.55769 0.0
C18 C 0.11563 0.69912 0.58583 0.0
O19 O 0.12337 0.71159 0.60901 0.0
O20 O 0.08759 0.65975 0.5805 0.0
O21 O 0.12127 0.60135 0.63665 0.0
O22 O 0.99926 0.63729 0.63318 0.0
C23 C 0.95847 0.60968 0.63466 0.0
O24 O 0.94511 0.58032 0.61576 0.0
O25 O 0.0348 0.53444 0.59598 0.0
Mg26 Mg 0.54422 0.45284 0.86321 0.0
C27 C 0.58616 0.5196 0.90619 0.0
O28 O 0.62229 0.53272 0.89076 0.0
C29 C 0.62185 0.44488 0.82134 0.0
O30 O 0.5823 0.4607 0.80781 0.0
C31 C 0.51811 0.5516 0.83798 0.0
O32 O 0.56647 0.56019 0.84514 0.0
O33 O 0.49748 0.50808 0.84267 0.0
O34 O 0.55202 0.48641 0.89959 0.0
O35 O 0.5046 0.37869 0.86659 0.0
C36 C 0.50673 0.3489 0.88505 0.0
O37 O 0.47695 0.3075 0.88503 0.0
O38 O 0.61683 0.44058 0.84434 0.0
Mg39 Mg 0.65502 0.05515 0.10715 0.0
C40 C 0.76708 0.08294 0.12209 0.0
O41 O 0.76863 0.1033 0.10024 0.0
C42 C 0.61665 0.94844 0.095 0.0
O43 O 0.61161 0.94879 0.11887 0.0
C44 C 0.6826 0.12298 0.0649 0.0
O45 O 0.70476 0.07945 0.05819 0.0
O46 O 0.65585 0.12388 0.08426 0.0
O47 O 0.72929 0.05337 0.12703 0.0
O48 O 0.59639 0.05703 0.13583 0.0
C49 C 0.61229 0.04403 0.15714 0.0
O50 O 0.66155 0.03263 0.16041 0.0
O51 O 0.63737 0.98736 0.08497 0.0
Mg52 Mg 0.07094 0.63781 0.92695 0.0
C53 C 0.12896 0.70689 0.89644 0.0
O54 O 0.16358 0.67844 0.908 0.0
C55 C 1.00183 0.5762 0.95526 0.0
O56 O 0.0461 0.55123 0.95361 0.0
C57 C 0.14665 0.68415 0.96274 0.0
O58 O 0.11609 0.72344 0.95766 0.0
O59 O 0.13583 0.64014 0.95322 0.0
O60 O 0.08129 0.70256 0.90205 0.0
O61 O 0.07551 0.57591 0.90029 0.0
C62 C 0.04382 0.58489 0.88266 0.0
O63 O 0.01453 0.6264 0.88391 0.0
O64 O 0.99812 0.62031 0.94518 0.0
Mg65 Mg 0.49174 0.5384 0.17286 0.0
C66 C 0.38471 0.49897 0.14913 0.0
O67 O 0.34297 0.46971 0.15017 0.0
C68 C 0.58837 0.50636 0.19983 0.0
O69 O 0.59997 0.55366 0.1932 0.0
C70 C 0.44118 0.61676 0.20558 0.0
O71 O 0.40771 0.57835 0.20635 0.0
O72 O 0.48159 0.61112 0.19279 0.0
O73 O 0.41624 0.49995 0.16748 0.0
O74 O 0.53193 0.55019 0.13876 0.0
C75 C 0.52884 0.51567 0.12203 0.0
O76 O 0.50037 0.47425 0.12557 0.0
O77 O 0.54327 0.48885 0.19435 0.0
Mg78 Mg 0.65544 0.99636 0.40649 0.0
C79 C 0.6917 0.06319 0.36649 0.0
O80 O 0.73226 0.06198 0.38151 0.0
C81 C 0.5688 0.96231 0.44033 0.0
O82 O 0.60613 0.9677 0.45697 0.0
C83 C 0.68323 0.08991 0.44011 0.0
O84 O 0.63772 0.10805 0.43306 0.0
O85 O 0.69748 0.04552 0.43264 0.0
O86 O 0.65122 0.03805 0.37212 0.0
O87 O 0.70366 0.92771 0.40343 0.0
C88 C 0.6906 0.88782 0.39095 0.0
O89 O 0.71984 0.84629 0.3919 0.0
O90 O 0.5783 0.97299 0.41819 0.0
Mg91 Mg 0.15885 0.09183 0.67025 0.0
C92 C 0.24593 0.08048 0.63515 0.0
O93 O 0.25594 0.0415 0.64972 0.0
C94 C 0.09939 0.18624 0.68477 0.0
O95 O 0.08546 0.18279 0.66153 0.0
C96 C 0.23084 0.03512 0.705 0.0
O97 O 0.2559 0.07941 0.704 0.0
O98 O 0.18852 0.02939 0.69277 0.0
O99 O 0.21175 0.11306 0.64156 0.0
O100 O 0.08948 0.07073 0.64932 0.0
C101 C 0.09326 0.05392 0.62746 0.0
O102 O 0.13869 0.03748 0.62015 0.0
O103 O 0.13359 0.15526 0.69313 0.0
Zn104 Zn 0.46236 0.75578 0.98934 0.0
Zn105 Zn 0.45688 0.68808 0.02654 0.0
O106 O 0.38117 0.69396 0.01439 0.0
O107 O 0.38359 0.75177 0.98516 0.0
O108 O 0.45032 0.64521 0.0568 0.0
O109 O 0.49705 0.80959 0.01106 0.0
O110 O 0.49346 0.75295 0.04066 0.0
C111 C 0.35802 0.72043 0.99798 0.0
C112 C 0.51756 0.65835 0.98164 0.0
O113 O 0.50044 0.64627 0.00256 0.0
O114 O 0.50744 0.70224 0.97258 0.0
C115 C 0.42515 0.60291 0.05741 0.0
O116 O 0.40525 0.58351 0.03693 0.0
C117 C 0.50702 0.79726 0.03301 0.0
Zn118 Zn 0.40328 0.85833 0.31005 0.0
Zn119 Zn 0.45784 0.91469 0.27813 0.0
O120 O 0.3965 0.96244 0.28635 0.0
O121 O 0.34933 0.91494 0.31081 0.0
O122 O 0.49783 0.95529 0.25346 0.0
O123 O 0.39744 0.79965 0.28554 0.0
O124 O 0.44303 0.8454 0.25986 0.0
C125 C 0.35659 0.95677 0.29949 0.0
C126 C 0.50719 0.88469 0.32741 0.0
O127 O 0.50954 0.90714 0.3068 0.0
O128 O 0.46595 0.86134 0.33327 0.0
C129 C 0.47774 0.97032 0.23329 0.0
O130 O 0.42868 0.95944 0.22829 0.0
C131 C 0.41909 0.80375 0.26505 0.0
Zn132 Zn 0.25723 0.85568 0.46582 0.0
Zn133 Zn 0.26865 0.92862 0.50179 0.0
O134 O 0.34181 0.92408 0.48755 0.0
O135 O 0.3343 0.86547 0.4581 0.0
O136 O 0.27882 0.9758 0.53111 0.0
O137 O 0.22997 0.80353 0.49048 0.0
O138 O 0.23789 0.86505 0.51834 0.0
C139 C 0.36165 0.89845 0.47002 0.0
C140 C 0.19514 0.949 0.45853 0.0
O141 O 0.21668 0.96402 0.47862 0.0
O142 O 0.20571 0.90485 0.44956 0.0
C143 C 0.26595 0.02297 0.5338 0.0
O144 O 0.24413 0.04749 0.51535 0.0
C145 C 0.22407 0.81923 0.5123 0.0
Zn146 Zn 0.37064 0.75383 0.73823 0.0
Zn147 Zn 0.28666 0.73801 0.7659 0.0
O148 O 0.28584 0.81506 0.75699 0.0
O149 O 0.35733 0.83102 0.73701 0.0
O150 O 0.22935 0.7334 0.79071 0.0
O151 O 0.41861 0.7213 0.76337 0.0
O152 O 0.34867 0.70486 0.78443 0.0
C153 C 0.31501 0.84664 0.7459 0.0
C154 C 0.28881 0.68681 0.71612 0.0
O155 O 0.26488 0.69455 0.73606 0.0
O156 O 0.33305 0.70736 0.71306 0.0
C157 C 0.23364 0.76384 0.80914 0.0
O158 O 0.27319 0.79617 0.81032 0.0
C159 C 0.39761 0.70091 0.78167 0.0
Zn160 Zn 0.87067 0.23241 0.55109 0.0
Zn161 Zn 0.94523 0.228 0.51641 0.0
O162 O 0.9486 0.30139 0.53087 0.0
O163 O 0.88959 0.30702 0.55929 0.0
O164 O 0.99959 0.2326 0.49021 0.0
O165 O 0.81617 0.21337 0.52506 0.0
O166 O 0.8782 0.20449 0.49813 0.0
C167 C 0.92614 0.32729 0.54749 0.0
C168 C 0.95366 0.15727 0.56047 0.0
O169 O 0.97224 0.17391 0.54058 0.0
O170 O 0.91132 0.17549 0.56836 0.0
C171 C 1.00062 0.27285 0.47697 0.0
O172 O 0.96529 0.30874 0.48026 0.0
C173 C 0.83035 0.20127 0.50368 0.0
Zn174 Zn 0.92721 0.34944 0.7919 0.0
Zn175 Zn 0.92239 0.42259 0.75748 0.0
O176 O 0.84632 0.41525 0.76805 0.0
O177 O 0.84942 0.35394 0.79561 0.0
O178 O 0.91791 0.47214 0.72902 0.0
O179 O 0.9618 0.29905 0.76948 0.0
O180 O 0.96028 0.36024 0.74182 0.0
C181 C 0.82358 0.3872 0.78364 0.0
C182 C 0.98279 0.44303 0.80525 0.0
O183 O 0.96576 0.45883 0.78455 0.0
O184 O 0.97245 0.39767 0.81226 0.0
C185 C 0.9244 0.52099 0.7297 0.0
O186 O 0.93445 0.54414 0.75081 0.0
C187 C 0.97374 0.31501 0.74853 0.0
Zn188 Zn 0.77904 0.42645 0.0436 0.0
Zn189 Zn 0.7182 0.4265 0.00337 0.0
O190 O 0.71953 0.3508 0.01489 0.0
O191 O 0.77433 0.34841 0.04635 0.0
O192 O 0.67481 0.41888 0.97226 0.0
O193 O 0.83705 0.46012 0.0257 0.0
O194 O 0.78721 0.46247 0.99249 0.0
C195 C 0.74297 0.32559 0.03167 0.0
C196 C 0.68148 0.48201 0.04902 0.0
O197 O 0.67339 0.46882 0.02672 0.0
O198 O 0.72378 0.47004 0.05985 0.0
C199 C 0.63101 0.3959 0.97298 0.0
O200 O 0.61371 0.38113 0.99427 0.0
C201 C 0.83053 0.47241 0.0035 0.0
Zn202 Zn 0.85064 0.31649 0.22496 0.0
Zn203 Zn 0.78463 0.25812 0.2518 0.0
O204 O 0.73896 0.32164 0.24393 0.0
O205 O 0.794 0.37134 0.2245 0.0
O206 O 0.74785 0.21636 0.2772 0.0
O207 O 0.90776 0.31547 0.25108 0.0
O208 O 0.85209 0.26904 0.27139 0.0
C209 C 0.74918 0.36386 0.23309 0.0
C210 C 0.82131 0.21627 0.20301 0.0
O211 O 0.79454 0.21061 0.22219 0.0
O212 O 0.8472 0.25749 0.19994 0.0
C213 C 0.71286 0.18149 0.27685 0.0
O214 O 0.68999 0.16797 0.25601 0.0
C215 C 0.89666 0.29005 0.26994 0.0
C216 C 0.23025 0.02615 0.31064 0.0
C217 C 0.24624 0.07725 0.31612 0.0
C218 C 0.26616 0.98791 0.30443 0.0
C219 C 0.31932 0.99946 0.30279 0.0
H220 H 0.18989 0.01477 0.31223 0.0
H221 H 0.2523 0.94867 0.30137 0.0
S222 S 0.3811 0.12788 0.31334 0.0
N223 N 0.31873 0.1379 0.31834 0.0
N224 N 0.38626 0.066 0.30582 0.0
C225 C 0.33573 0.05084 0.30695 0.0
C226 C 0.29919 0.08973 0.31387 0.0
C227 C 0.16944 0.77452 0.57277 0.0
C228 C 0.14253 0.72857 0.56648 0.0
C229 C 0.19632 0.80273 0.55526 0.0
C230 C 0.19792 0.7862 0.53061 0.0
H231 H 0.16967 0.78918 0.59143 0.0
H232 H 0.21584 0.83807 0.56117 0.0
S233 S 0.13478 0.66771 0.50454 0.0
N234 N 0.11979 0.66731 0.53377 0.0
N235 N 0.17043 0.72019 0.50089 0.0
C236 C 0.17166 0.73995 0.52406 0.0
C237 C 0.14392 0.71129 0.54193 0.0
C238 C 0.43353 0.58936 0.8233 0.0
C239 C 0.48819 0.59201 0.82473 0.0
C240 C 0.40442 0.62633 0.81038 0.0
C241 C 0.42884 0.66698 0.79802 0.0
H242 H 0.41295 0.55827 0.83211 0.0
H243 H 0.36252 0.62182 0.80935 0.0
S244 S 0.57083 0.693 0.79703 0.0
N245 N 0.56549 0.64019 0.81353 0.0
N246 N 0.51082 0.70907 0.78899 0.0
C247 C 0.48338 0.67085 0.79979 0.0
C248 C 0.51301 0.63356 0.8132 0.0
C249 C 0.58636 0.91405 0.05422 0.0
C250 C 0.59184 0.90715 0.07965 0.0
C251 C 0.55889 0.87838 0.03944 0.0
C252 C 0.536 0.83396 0.04938 0.0
H253 H 0.6024 0.94794 0.04561 0.0
H254 H 0.55553 0.88595 0.02 0.0
S255 S 0.54118 0.79618 0.11481 0.0
N256 N 0.5736 0.85138 0.1141 0.0
N257 N 0.52215 0.78412 0.08626 0.0
C258 C 0.54221 0.8258 0.07472 0.0
C259 C 0.57006 0.86238 0.08985 0.0
C260 C 0.22125 0.74276 0.97324 0.0
C261 C 0.19792 0.69358 0.97487 0.0
C262 C 0.27247 0.75152 0.98154 0.0
C263 C 0.30205 0.71179 0.99228 0.0
H264 H 0.20069 0.77429 0.96447 0.0
H265 H 0.2894 0.7895 0.97903 0.0
S266 S 0.25749 0.57717 0.00282 0.0
N267 N 0.20722 0.60535 0.98924 0.0
N268 N 0.30318 0.62208 0.00543 0.0
C269 C 0.2783 0.6631 0.9952 0.0
C270 C 0.22637 0.65391 0.9863 0.0
C271 C 0.46601 0.70812 0.217 0.0
C272 C 0.43234 0.66551 0.21962 0.0
C273 C 0.46006 0.75362 0.23094 0.0
C274 C 0.42047 0.75819 0.24824 0.0
H275 H 0.49781 0.70616 0.20432 0.0
H276 H 0.48788 0.78471 0.22873 0.0
S277 S 0.31914 0.65978 0.26075 0.0
N278 N 0.35572 0.63239 0.23982 0.0
N279 N 0.34483 0.71754 0.26601 0.0
C280 C 0.38539 0.71664 0.25043 0.0
C281 C 0.39124 0.67046 0.23614 0.0
C282 C 0.50206 0.9455 0.47221 0.0
C283 C 0.51631 0.94401 0.44744 0.0
C284 C 0.45237 0.92983 0.47942 0.0
C285 C 0.41527 0.91086 0.46225 0.0
H286 H 0.52913 0.95991 0.48616 0.0
H287 H 0.44289 0.93279 0.49862 0.0
S288 S 0.43275 0.89871 0.39514 0.0
N289 N 0.48882 0.92201 0.40569 0.0
N290 N 0.39611 0.89154 0.41933 0.0
C291 C 0.42926 0.90819 0.43749 0.0
C292 C 0.47951 0.92505 0.43006 0.0
C293 C 0.22057 0.95118 0.72659 0.0
C294 C 0.25337 0.99083 0.7185 0.0
C295 C 0.24096 0.90622 0.73714 0.0
C296 C 0.29504 0.89865 0.73954 0.0
H297 H 0.17876 0.95433 0.72423 0.0
H298 H 0.21405 0.876 0.74218 0.0
S299 S 0.39763 0.99263 0.72319 0.0
N300 N 0.34257 0.02142 0.71537 0.0
N301 N 0.38092 0.93626 0.73467 0.0
C302 C 0.32824 0.93899 0.73257 0.0
C303 C 0.30741 0.98525 0.7222 0.0
C304 C 0.70193 0.39096 0.82153 0.0
C305 C 0.67104 0.42861 0.80997 0.0
C306 C 0.74969 0.37588 0.81203 0.0
C307 C 0.76911 0.39828 0.79065 0.0
H308 H 0.68926 0.373 0.83821 0.0
H309 H 0.77229 0.34761 0.82212 0.0
S310 S 0.70143 0.49652 0.75251 0.0
N311 N 0.6615 0.48605 0.77524 0.0
N312 N 0.75192 0.45836 0.75742 0.0
C313 C 0.73769 0.43478 0.77837 0.0
C314 C 0.68853 0.44975 0.788 0.0
C315 C 0.66059 0.21165 0.05003 0.0
C316 C 0.69747 0.17214 0.05329 0.0
C317 C 0.67529 0.26043 0.04137 0.0
C318 C 0.72762 0.27176 0.03655 0.0
H319 H 0.6203 0.20507 0.05456 0.0
H320 H 0.64596 0.29029 0.03966 0.0
S321 S 0.83893 0.18174 0.04168 0.0
N322 N 0.78825 0.14704 0.04989 0.0
N323 N 0.81603 0.23971 0.03505 0.0
C324 C 0.76466 0.23251 0.03935 0.0
C325 C 0.74951 0.18237 0.04733 0.0
C326 C 0.95839 0.2371 0.32799 0.0
C327 C 0.01195 0.24092 0.32366 0.0
C328 C 0.92152 0.25545 0.31102 0.0
C329 C 0.93665 0.27885 0.2891 0.0
H330 H 0.94459 0.21824 0.34424 0.0
H331 H 0.88073 0.24985 0.31486 0.0
S332 S 0.0724 0.30349 0.27032 0.0
N333 N 0.07855 0.27365 0.29677 0.0
N334 N 0.00921 0.30836 0.26491 0.0
C335 C 0.99017 0.28545 0.28514 0.0
C336 C 0.0278 0.26634 0.30238 0.0
C337 C 0.99539 0.45676 0.54332 0.0
C338 C 0.99412 0.47586 0.5675 0.0
C339 C 0.97241 0.40908 0.53688 0.0
C340 C 0.94616 0.37941 0.55425 0.0
H341 H 0.01528 0.47823 0.52937 0.0
H342 H 0.97545 0.39525 0.51817 0.0
S343 S 0.92954 0.41358 0.61981 0.0
N344 N 0.96335 0.4621 0.60877 0.0
N345 N 0.91915 0.37328 0.59654 0.0
C346 C 0.94333 0.39882 0.57834 0.0
C347 C 0.96764 0.44679 0.585 0.0
C348 C 0.77349 0.1132 0.45401 0.0
C349 C 0.71956 0.12157 0.45552 0.0
C350 C 0.8091 0.14106 0.46882 0.0
C351 C 0.79218 0.17772 0.48611 0.0
H352 H 0.78846 0.08464 0.44132 0.0
H353 H 0.8501 0.13232 0.4673 0.0
S354 S 0.65529 0.21607 0.49651 0.0
N355 N 0.65107 0.17108 0.47482 0.0
N356 N 0.71795 0.22265 0.50314 0.0
C357 C 0.73843 0.18738 0.48745 0.0
C358 C 0.70215 0.15958 0.47202 0.0
C359 C 0.03754 0.25942 0.69187 0.0
C360 C 0.0704 0.22079 0.70151 0.0
C361 C 0.00655 0.28995 0.70715 0.0
C362 C 0.00653 0.28236 0.7326 0.0
H363 H 0.0354 0.26599 0.67233 0.0
H364 H 0.98183 0.31912 0.6989 0.0
S365 S 0.08714 0.18784 0.76723 0.0
N366 N 0.10228 0.17802 0.73835 0.0
N367 N 0.04374 0.23476 0.76692 0.0
C368 C 0.03972 0.24436 0.74253 0.0
C369 C 0.07177 0.21381 0.72704 0.0
C370 C 0.9058 0.56069 0.96096 0.0
C371 C 0.95792 0.55166 0.96813 0.0
C372 C 0.86454 0.53406 0.97195 0.0
C373 C 0.874 0.49831 0.99083 0.0
H374 H 0.89689 0.58763 0.94642 0.0
H375 H 0.82503 0.5421 0.96591 0.0
S376 S 0.0035 0.46146 0.01644 0.0
N377 N 0.01643 0.50458 0.99535 0.0
N378 N 0.9396 0.45539 0.01603 0.0
C379 C 0.92596 0.48943 0.99821 0.0
C380 C 0.96769 0.51587 0.98688 0.0
C381 C 0.61672 0.42091 0.21722 0.0
C382 C 0.62872 0.47248 0.21126 0.0
C383 C 0.65538 0.38666 0.22563 0.0
C384 C 0.70765 0.40249 0.22819 0.0
H385 H 0.57743 0.40627 0.2147 0.0
H386 H 0.64455 0.34688 0.22903 0.0
S387 S 0.75883 0.53484 0.21803 0.0
N388 N 0.6963 0.53876 0.21087 0.0
N389 N 0.76857 0.47436 0.22632 0.0
C390 C 0.71973 0.45454 0.22351 0.0
C391 C 0.68041 0.48952 0.21516 0.0
C392 C 0.13295 0.01472 0.40378 0.0
C393 C 0.11548 0.06193 0.41366 0.0
C394 C 0.15557 0.97693 0.41872 0.0
C395 C 0.16215 0.98504 0.44412 0.0
H396 H 0.13185 0.00799 0.38416 0.0
H397 H 0.17087 0.9425 0.40998 0.0
S398 S 0.11442 0.09782 0.47972 0.0
N399 N 0.0995 0.11143 0.45098 0.0
N400 N 0.14275 0.04059 0.47897 0.0
C401 C 0.14088 0.03008 0.45453 0.0
C402 C 0.11721 0.0684 0.43933 0.0
C403 C 0.18321 0.61947 0.67819 0.0
C404 C 0.20451 0.61678 0.65464 0.0
C405 C 0.21172 0.63963 0.69821 0.0
C406 C 0.26288 0.6578 0.69561 0.0
H407 H 0.14319 0.60825 0.68109 0.0
H408 H 0.19251 0.64297 0.71562 0.0
S409 S 0.33986 0.65115 0.63877 0.0
N410 N 0.28213 0.62803 0.63054 0.0
N411 N 0.33604 0.66562 0.66819 0.0
C412 C 0.28615 0.65153 0.6726 0.0
C413 C 0.25693 0.63106 0.65213 0.0
C414 C 0.59576 0.60221 0.93001 0.0
C415 C 0.57783 0.55076 0.92868 0.0
C416 C 0.57866 0.6362 0.94829 0.0
C417 C 0.5441 0.61963 0.96626 0.0
H418 H 0.62026 0.61747 0.91588 0.0
H419 H 0.59072 0.67638 0.94769 0.0
S420 S 0.49178 0.48688 0.97308 0.0
N421 N 0.52735 0.48377 0.9483 0.0
N422 N 0.49721 0.54707 0.98327 0.0
C423 C 0.52966 0.5672 0.96648 0.0
C424 C 0.54598 0.53292 0.9475 0.0
C425 C 0.52373 0.02045 0.1721 0.0
C426 C 0.57589 0.03384 0.17723 0.0
C427 C 0.49158 0.00179 0.19055 0.0
C428 C 0.51045 0.99581 0.21478 0.0
H429 H 0.50831 0.02193 0.15351 0.0
H430 H 0.45227 0.99009 0.18551 0.0
S431 S 0.64223 0.03269 0.23826 0.0
N432 N 0.64323 0.04542 0.20876 0.0
N433 N 0.58337 0.01002 0.24325 0.0
C434 C 0.56167 0.01209 0.22037 0.0
C435 C 0.5942 0.0312 0.20165 0.0
C436 C 0.19238 0.76176 0.87525 0.0
C437 C 0.14568 0.73345 0.87418 0.0
C438 C 0.21864 0.77441 0.85391 0.0
C439 C 0.19994 0.7579 0.83069 0.0
H440 H 0.21034 0.77162 0.89283 0.0
H441 H 0.25565 0.79434 0.85586 0.0
S442 S 0.07629 0.68731 0.81789 0.0
N443 N 0.0791 0.69339 0.84803 0.0
N444 N 0.12906 0.71602 0.8078 0.0
C445 C 0.15152 0.73233 0.82927 0.0
C446 C 0.12419 0.72043 0.85106 0.0
C447 C 0.38409 0.50251 0.10357 0.0
C448 C 0.39536 0.52676 0.12624 0.0
C449 C 0.39398 0.52734 0.08145 0.0
C450 C 0.41574 0.57737 0.08114 0.0
H451 H 0.36812 0.46365 0.10288 0.0
H452 H 0.385 0.5068 0.06448 0.0
S453 S 0.44595 0.66006 0.13575 0.0
N454 N 0.42405 0.6054 0.1471 0.0
N455 N 0.44475 0.6517 0.10574 0.0
C456 C 0.42595 0.60256 0.10378 0.0
C457 C 0.41516 0.57738 0.12627 0.0
C458 C 0.63827 0.92145 0.35595 0.0
C459 C 0.64289 0.88765 0.37576 0.0
C460 C 0.59408 0.92046 0.34051 0.0
C461 C 0.55299 0.88548 0.34437 0.0
H462 H 0.66966 0.9479 0.35198 0.0
H463 H 0.59235 0.94713 0.32536 0.0
S464 S 0.54763 0.78843 0.394 0.0
N465 N 0.60389 0.8183 0.39864 0.0
N466 N 0.52071 0.81557 0.36964 0.0
C467 C 0.5575 0.85134 0.36427 0.0
C468 C 0.6026 0.8525 0.37992 0.0
C469 C 0.29373 0.03576 0.60185 0.0
C470 C 0.26082 0.07632 0.60905 0.0
C471 C 0.29774 0.02113 0.57724 0.0
C472 C 0.26927 0.04662 0.5587 0.0
H473 H 0.31418 0.01283 0.61544 0.0
H474 H 0.32143 0.98779 0.5729 0.0
S475 S 0.18545 0.16194 0.56724 0.0
N476 N 0.205 0.14673 0.59521 0.0
N477 N 0.21301 0.1194 0.54886 0.0
C478 C 0.24031 0.09058 0.56532 0.0
C479 C 0.23602 0.10544 0.59051 0.0
C480 C 0.51837 0.35647 0.93041 0.0
C481 C 0.53935 0.36131 0.90699 0.0
C482 C 0.54842 0.36728 0.95161 0.0
C483 C 0.60047 0.38404 0.95019 0.0
H484 H 0.47821 0.34468 0.93238 0.0
H485 H 0.53026 0.36343 0.96921 0.0
S486 S 0.67605 0.39386 0.89331 0.0
N487 N 0.61715 0.3763 0.88378 0.0
N488 N 0.67302 0.39975 0.92335 0.0
C489 C 0.62236 0.38727 0.92685 0.0
C490 C 0.59196 0.37514 0.90533 0.0
C491 C 0.81674 0.1586 0.13911 0.0
C492 C 0.79495 0.1093 0.14277 0.0
C493 C 0.82831 0.19179 0.15891 0.0
C494 C 0.81847 0.177 0.18309 0.0
H495 H 0.82123 0.17344 0.12081 0.0
H496 H 0.84176 0.23057 0.15503 0.0
S497 S 0.77615 0.04691 0.20285 0.0
N498 N 0.77482 0.04334 0.17264 0.0
N499 N 0.7956 0.10631 0.20988 0.0
C500 C 0.80228 0.12587 0.18716 0.0
C501 C 0.79099 0.0918 0.16699 0.0
C502 C 0.11737 0.24541 0.43741 0.0
C503 C 0.10927 0.27815 0.41721 0.0
C504 C 0.08302 0.24514 0.45701 0.0
C505 C 0.03968 0.27819 0.45747 0.0
H506 H 0.14863 0.21738 0.43746 0.0
H507 H 0.08969 0.21768 0.47156 0.0
S508 S 0.00683 0.37869 0.41159 0.0
N509 N 0.05877 0.34978 0.40071 0.0
N510 N 0.9947 0.34968 0.43762 0.0
C511 C 0.0339 0.3145 0.43856 0.0
C512 C 0.06867 0.31452 0.41848 0.0
C513 C 0.91071 0.54961 0.66193 0.0
C514 C 0.94 0.59534 0.65935 0.0
C515 C 0.90388 0.52729 0.68489 0.0
C516 C 0.9253 0.55005 0.70636 0.0
H517 H 0.89553 0.5289 0.64596 0.0
H518 H 0.88323 0.49074 0.68566 0.0
S519 S 0.99779 0.6745 0.71024 0.0
N520 N 0.98516 0.666 0.68071 0.0
N521 N 0.97175 0.62429 0.72391 0.0
C522 C 0.95078 0.5981 0.70436 0.0
C523 C 0.95819 0.62069 0.68087 0.0
C524 C 0.73723 0.12597 0.33999 0.0
C525 C 0.69407 0.09359 0.34359 0.0
C526 C 0.74201 0.15466 0.31862 0.0
C527 C 0.70408 0.15212 0.29966 0.0
H528 H 0.768 0.12926 0.35377 0.0
H529 H 0.77653 0.17837 0.31685 0.0
S530 S 0.58202 0.07509 0.3003 0.0
N531 N 0.61145 0.0619 0.32665 0.0
N532 N 0.62063 0.11597 0.2863 0.0
C533 C 0.66021 0.12047 0.30306 0.0
C534 C 0.65514 0.09128 0.32504 0.0
C535 C 0.00642 0.09186 0.61735 0.0
C536 C 0.05225 0.06813 0.60923 0.0
C537 C 0.97303 0.11772 0.6011 0.0
C538 C 0.98415 0.12118 0.57605 0.0
H539 H 0.99765 0.09322 0.63666 0.0
H540 H 0.93991 0.13776 0.6086 0.0
S541 S 0.0927 0.05569 0.54452 0.0
N542 N 0.10229 0.04228 0.57374 0.0
N543 N 0.03962 0.09147 0.54322 0.0
C544 C 0.02716 0.09356 0.56727 0.0
C545 C 0.06107 0.06676 0.58384 0.0
C546 C 0.01027 0.5665 0.84047 0.0
C547 C 0.03696 0.54909 0.86157 0.0
C548 C 0.99649 0.5325 0.82134 0.0
C549 C 0.00808 0.47954 0.82278 0.0
H550 H 0.9981 0.60647 0.83903 0.0
H551 H 0.97376 0.54737 0.80606 0.0
S552 S 0.08353 0.41548 0.87253 0.0
N553 N 0.07946 0.47651 0.88159 0.0
N554 N 0.05275 0.41208 0.84572 0.0
C555 C 0.03774 0.46213 0.84303 0.0
C556 C 0.0524 0.49704 0.86241 0.0
C557 C 0.61351 0.53864 0.10356 0.0
C558 C 0.56321 0.51767 0.10075 0.0
C559 C 0.65086 0.53074 0.08559 0.0
C560 C 0.6388 0.50278 0.06394 0.0
H561 H 0.62535 0.55783 0.12053 0.0
H562 H 0.69028 0.54403 0.08932 0.0
S563 S 0.50956 0.44872 0.04587 0.0
N564 N 0.50133 0.47342 0.07353 0.0
N565 N 0.57081 0.46051 0.03925 0.0
C566 C 0.58709 0.48641 0.05983 0.0
C567 C 0.54947 0.49324 0.07842 0.0
loop_
_geom_bond_atom_site_label_1
_geom_bond_atom_site_label_2
_geom_bond_distance
_geom_bond_site_symmetry_2
_ccdc_geom_bond_type
Mg0 O7 2.141 . S
Mg0 O8 2.048 . S
Mg0 O9 2.048 . S
Mg0 O12 2.141 . S
C1 O2 1.313 . S
C1 O8 1.195 . S
O2 C1 1.313 . S
C3 O4 1.245 . S
C3 O12 1.289 . S
O4 C3 1.245 . S
C5 O6 1.245 . S
C5 O7 1.289 . S
O6 C5 1.245 . S
O7 Mg0 2.141 . S
O7 C5 1.289 . S
O8 Mg0 2.048 . S
O8 C1 1.195 . S
O9 Mg0 2.048 . S
O9 C10 1.195 . S
C10 O9 1.195 . S
C10 O11 1.313 . S
O11 C10 1.313 . S
O12 Mg0 2.141 . S
O12 C3 1.289 . S
Mg13 O20 2.141 . S
Mg13 O21 2.048 . S
Mg13 O22 2.048 1_455 S
Mg13 O25 2.141 1_455 S
C14 O15 1.313 . S
C14 O21 1.195 . S
O15 C14 1.313 . S
C16 O17 1.245 1_655 S
C16 O25 1.289 . S
O17 C16 1.245 1_455 S
C18 O19 1.245 . S
C18 O20 1.289 . S
O19 C18 1.245 . S
O20 Mg13 2.141 . S
O20 C18 1.289 . S
O21 Mg13 2.048 . S
O21 C14 1.195 . S
O22 Mg13 2.048 1_655 S
O22 C23 1.195 . S
C23 O22 1.195 . S
C23 O24 1.313 1_655 S
O24 C23 1.313 1_455 S
O25 Mg13 2.141 1_655 S
O25 C16 1.289 . S
Mg26 O33 2.141 . S
Mg26 O34 2.048 . S
Mg26 O35 2.048 . S
Mg26 O38 2.141 . S
C27 O28 1.313 . S
C27 O34 1.195 . S
O28 C27 1.313 . S
C29 O30 1.245 . S
C29 O38 1.289 . S
O30 C29 1.245 . S
C31 O32 1.245 . S
C31 O33 1.289 . S
O32 C31 1.245 . S
O33 Mg26 2.141 . S
O33 C31 1.289 . S
O34 Mg26 2.048 . S
O34 C27 1.195 . S
O35 Mg26 2.048 . S
O35 C36 1.195 . S
C36 O35 1.195 . S
C36 O37 1.313 . S
O37 C36 1.313 . S
O38 Mg26 2.141 . S
O38 C29 1.289 . S
Mg39 O46 2.141 . S
Mg39 O47 2.048 . S
Mg39 O48 2.048 1_545 S
Mg39 O51 2.141 1_545 S
C40 O41 1.313 . S
C40 O47 1.195 . S
O41 C40 1.313 . S
C42 O43 1.245 . S
C42 O51 1.289 . S
O43 C42 1.245 . S
C44 O45 1.245 . S
C44 O46 1.289 . S
O45 C44 1.245 . S
O46 Mg39 2.141 . S
O46 C44 1.289 . S
O47 Mg39 2.048 . S
O47 C40 1.195 . S
O48 Mg39 2.048 1_565 S
O48 C49 1.195 . S
C49 O48 1.195 . S
C49 O50 1.313 . S
O50 C49 1.313 . S
O51 Mg39 2.141 1_565 S
O51 C42 1.289 . S
Mg52 O59 2.141 . S
Mg52 O60 2.048 . S
Mg52 O61 2.048 1_455 S
Mg52 O64 2.141 1_455 S
C53 O54 1.313 . S
C53 O60 1.195 . S
O54 C53 1.313 . S
C55 O56 1.245 . S
C55 O64 1.289 . S
O56 C55 1.245 . S
C57 O58 1.245 . S
C57 O59 1.289 . S
O58 C57 1.245 . S
O59 Mg52 2.141 . S
O59 C57 1.289 . S
O60 Mg52 2.048 . S
O60 C53 1.195 . S
O61 Mg52 2.048 1_655 S
O61 C62 1.195 . S
C62 O61 1.195 . S
C62 O63 1.313 . S
O63 C62 1.313 . S
O64 Mg52 2.141 1_655 S
O64 C55 1.289 . S
Mg65 O72 2.141 . S
Mg65 O73 2.048 . S
Mg65 O74 2.048 . S
Mg65 O77 2.141 . S
C66 O67 1.313 . S
C66 O73 1.195 . S
O67 C66 1.313 . S
C68 O69 1.245 . S
C68 O77 1.289 . S
O69 C68 1.245 . S
C70 O71 1.245 . S
C70 O72 1.289 . S
O71 C70 1.245 . S
O72 Mg65 2.141 . S
O72 C70 1.289 . S
O73 Mg65 2.048 . S
O73 C66 1.195 . S
O74 Mg65 2.048 . S
O74 C75 1.195 . S
C75 O74 1.195 . S
C75 O76 1.313 . S
O76 C75 1.313 . S
O77 Mg65 2.141 . S
O77 C68 1.289 . S
Mg78 O85 2.141 1_565 S
Mg78 O86 2.048 1_565 S
Mg78 O87 2.048 . S
Mg78 O90 2.141 . S
C79 O80 1.313 . S
C79 O86 1.195 . S
O80 C79 1.313 . S
C81 O82 1.245 1_565 S
C81 O90 1.289 . S
O82 C81 1.245 1_545 S
C83 O84 1.245 . S
C83 O85 1.289 . S
O84 C83 1.245 . S
O85 Mg78 2.141 1_545 S
O85 C83 1.289 . S
O86 Mg78 2.048 1_545 S
O86 C79 1.195 . S
O87 Mg78 2.048 . S
O87 C88 1.195 . S
C88 O87 1.195 . S
C88 O89 1.313 . S
O89 C88 1.313 . S
O90 Mg78 2.141 . S
O90 C81 1.289 . S
Mg91 O98 2.141 . S
Mg91 O99 2.048 . S
Mg91 O100 2.048 . S
Mg91 O103 2.141 . S
C92 O93 1.313 . S
C92 O99 1.195 . S
O93 C92 1.313 . S
C94 O95 1.245 . S
C94 O103 1.289 . S
O95 C94 1.245 . S
C96 O97 1.245 . S
C96 O98 1.289 . S
O97 C96 1.245 . S
O98 Mg91 2.141 . S
O98 C96 1.289 . S
O99 Mg91 2.048 . S
O99 C92 1.195 . S
O100 Mg91 2.048 . S
O100 C101 1.195 . S
C101 O100 1.195 . S
C101 O102 1.313 . S
O102 C101 1.313 . S
O103 Mg91 2.141 . S
O103 C94 1.289 . S
Zn104 O107 2.031 . S
Zn104 O109 2.049 1_556 S
Zn104 O114 2.067 . S
Zn105 O106 1.962 . S
Zn105 O108 1.986 . S
Zn105 O110 1.996 . S
Zn105 O113 1.943 . S
O106 Zn105 1.962 . S
O106 C111 1.254 . S
O107 Zn104 2.031 . S
O107 C111 1.269 1_556 S
O108 Zn105 1.986 . S
O108 C115 1.262 . S
O109 Zn104 2.049 1_554 S
O109 C117 1.260 . S
O110 Zn105 1.996 . S
O110 C117 1.257 . S
C111 O106 1.254 . S
C111 O107 1.269 1_554 S
C112 O113 1.249 1_556 S
C112 O114 1.270 . S
O113 Zn105 1.943 . S
O113 C112 1.249 1_554 S
O114 Zn104 2.067 . S
O114 C112 1.270 . S
C115 O108 1.262 . S
C115 O116 1.232 . S
O116 C115 1.232 . S
C117 O109 1.260 . S
C117 O110 1.257 . S
Zn118 O121 2.031 . S
Zn118 O123 2.049 . S
Zn118 O128 2.067 . S
Zn119 O120 1.962 . S
Zn119 O122 1.986 . S
Zn119 O124 1.996 . S
Zn119 O127 1.943 . S
O120 Zn119 1.962 . S
O120 C125 1.254 . S
O121 Zn118 2.031 . S
O121 C125 1.269 . S
O122 Zn119 1.986 . S
O122 C129 1.262 . S
O123 Zn118 2.049 . S
O123 C131 1.260 . S
O124 Zn119 1.996 . S
O124 C131 1.257 . S
C125 O120 1.254 . S
C125 O121 1.269 . S
C126 O127 1.249 . S
C126 O128 1.270 . S
O127 Zn119 1.943 . S
O127 C126 1.249 . S
O128 Zn118 2.067 . S
O128 C126 1.270 . S
C129 O122 1.262 . S
C129 O130 1.232 . S
O130 C129 1.232 . S
C131 O123 1.260 . S
C131 O124 1.257 . S
Zn132 O135 2.031 . S
Zn132 O137 2.049 . S
Zn132 O142 2.067 . S
Zn133 O134 1.962 . S
Zn133 O136 1.986 . S
Zn133 O138 1.996 . S
Zn133 O141 1.943 . S
O134 Zn133 1.962 . S
O134 C139 1.254 . S
O135 Zn132 2.031 . S
O135 C139 1.269 . S
O136 Zn133 1.986 . S
O136 C143 1.262 1_565 S
O137 Zn132 2.049 . S
O137 C145 1.260 . S
O138 Zn133 1.996 . S
O138 C145 1.257 . S
C139 O134 1.254 . S
C139 O135 1.269 . S
C140 O141 1.249 . S
C140 O142 1.270 . S
O141 Zn133 1.943 . S
O141 C140 1.249 . S
O142 Zn132 2.067 . S
O142 C140 1.270 . S
C143 O136 1.262 1_545 S
C143 O144 1.232 . S
O144 C143 1.232 . S
C145 O137 1.260 . S
C145 O138 1.257 . S
Zn146 O149 2.031 . S
Zn146 O151 2.049 . S
Zn146 O156 2.067 . S
Zn147 O148 1.962 . S
Zn147 O150 1.986 . S
Zn147 O152 1.996 . S
Zn147 O155 1.943 . S
O148 Zn147 1.962 . S
O148 C153 1.254 . S
O149 Zn146 2.031 . S
O149 C153 1.269 . S
O150 Zn147 1.986 . S
O150 C157 1.262 . S
O151 Zn146 2.049 . S
O151 C159 1.260 . S
O152 Zn147 1.996 . S
O152 C159 1.257 . S
C153 O148 1.254 . S
C153 O149 1.269 . S
C154 O155 1.249 . S
C154 O156 1.270 . S
O155 Zn147 1.943 . S
O155 C154 1.249 . S
O156 Zn146 2.067 . S
O156 C154 1.270 . S
C157 O150 1.262 . S
C157 O158 1.232 . S
O158 C157 1.232 . S
C159 O151 1.260 . S
C159 O152 1.257 . S
Zn160 O163 2.031 . S
Zn160 O165 2.049 . S
Zn160 O170 2.067 . S
Zn161 O162 1.962 . S
Zn161 O164 1.986 . S
Zn161 O166 1.996 . S
Zn161 O169 1.943 1_655 S
O162 Zn161 1.962 . S
O162 C167 1.254 . S
O163 Zn160 2.031 . S
O163 C167 1.269 . S
O164 Zn161 1.986 . S
O164 C171 1.262 1_655 S
O165 Zn160 2.049 . S
O165 C173 1.260 . S
O166 Zn161 1.996 . S
O166 C173 1.257 . S
C167 O162 1.254 . S
C167 O163 1.269 . S
C168 O169 1.249 1_655 S
C168 O170 1.270 . S
O169 Zn161 1.943 1_455 S
O169 C168 1.249 1_455 S
O170 Zn160 2.067 . S
O170 C168 1.270 . S
C171 O164 1.262 1_455 S
C171 O172 1.232 . S
O172 C171 1.232 . S
C173 O165 1.260 . S
C173 O166 1.257 . S
Zn174 O177 2.031 . S
Zn174 O179 2.049 . S
Zn174 O184 2.067 . S
Zn175 O176 1.962 . S
Zn175 O178 1.986 . S
Zn175 O180 1.996 . S
Zn175 O183 1.943 . S
O176 Zn175 1.962 . S
O176 C181 1.254 . S
O177 Zn174 2.031 . S
O177 C181 1.269 . S
O178 Zn175 1.986 . S
O178 C185 1.262 . S
O179 Zn174 2.049 . S
O179 C187 1.260 . S
O180 Zn175 1.996 . S
O180 C187 1.257 . S
C181 O176 1.254 . S
C181 O177 1.269 . S
C182 O183 1.249 . S
C182 O184 1.270 . S
O183 Zn175 1.943 . S
O183 C182 1.249 . S
O184 Zn174 2.067 . S
O184 C182 1.270 . S
C185 O178 1.262 . S
C185 O186 1.232 . S
O186 C185 1.232 . S
C187 O179 1.260 . S
C187 O180 1.257 . S
Zn188 O191 2.031 . S
Zn188 O193 2.049 . S
Zn188 O198 2.067 . S
Zn189 O190 1.962 . S
Zn189 O192 1.986 . S
Zn189 O194 1.996 . S
Zn189 O197 1.943 1_556 S
O190 Zn189 1.962 . S
O190 C195 1.254 1_556 S
O191 Zn188 2.031 . S
O191 C195 1.269 . S
O192 Zn189 1.986 . S
O192 C199 1.262 . S
O193 Zn188 2.049 . S
O193 C201 1.247 1_554 S
O194 Zn189 1.996 . S
O194 C201 1.260 . S
C195 O190 1.254 1_554 S
C195 O191 1.269 . S
C196 O197 1.249 . S
C196 O198 1.270 . S
O197 Zn189 1.943 1_554 S
O197 C196 1.249 . S
O198 Zn188 2.067 . S
O198 C196 1.270 . S
C199 O192 1.262 . S
C199 O200 1.232 . S
O200 C199 1.232 . S
C201 O193 1.247 1_556 S
C201 O194 1.260 . S
Zn202 O205 2.031 . S
Zn202 O207 2.049 . S
Zn202 O212 2.067 . S
Zn203 O204 1.962 . S
Zn203 O206 1.986 . S
Zn203 O208 1.996 . S
Zn203 O211 1.943 . S
O204 Zn203 1.962 . S
O204 C209 1.254 . S
O205 Zn202 2.031 . S
O205 C209 1.269 . S
O206 Zn203 1.986 . S
O206 C213 1.262 . S
O207 Zn202 2.049 . S
O207 C215 1.260 . S
O208 Zn203 1.996 . S
O208 C215 1.257 . S
C209 O204 1.254 . S
C209 O205 1.269 . S
C210 O211 1.249 . S
C210 O212 1.270 . S
O211 Zn203 1.943 . S
O211 C210 1.249 . S
O212 Zn202 2.067 . S
O212 C210 1.270 . S
C213 O206 1.262 . S
C213 O214 1.232 . S
O214 C213 1.232 . S
C215 O207 1.260 . S
C215 O208 1.257 . S
C216 C217 1.369 1_565 S
C216 C218 1.419 . S
C216 H220 0.930 . S
C217 C216 1.369 1_545 S
C217 C226 1.429 . S
C218 C216 1.419 . S
C218 C219 1.363 . S
C218 H221 0.929 . S
C219 C218 1.363 . S
C219 C225 1.428 . S
H220 C216 0.930 . S
H221 C218 0.929 . S
S222 N223 1.613 . S
S222 N224 1.610 1_545 S
N223 S222 1.613 . S
N223 C226 1.350 . S
N224 S222 1.610 1_565 S
N224 C225 1.351 . S
C225 C219 1.428 . S
C225 N224 1.351 . S
C225 C226 1.434 1_565 S
C226 C217 1.429 . S
C226 N223 1.350 . S
C226 C225 1.434 1_545 S
C227 C228 1.369 . S
C227 C229 1.419 . S
C227 H231 0.930 . S
C228 C227 1.369 . S
C228 C237 1.429 . S
C229 C227 1.419 . S
C229 C230 1.363 . S
C229 H232 0.929 . S
C230 C229 1.363 . S
C230 C236 1.428 . S
H231 C227 0.930 . S
H232 C229 0.929 . S
S233 N234 1.613 . S
S233 N235 1.610 . S
N234 S233 1.613 . S
N234 C237 1.350 . S
N235 S233 1.610 . S
N235 C236 1.351 . S
C236 C230 1.428 . S
C236 N235 1.351 . S
C236 C237 1.434 . S
C237 C228 1.429 . S
C237 N234 1.350 . S
C237 C236 1.434 . S
C238 C239 1.369 . S
C238 C240 1.419 . S
C238 H242 0.930 . S
C239 C238 1.369 . S
C239 C248 1.429 . S
C240 C238 1.419 . S
C240 C241 1.363 . S
C240 H243 0.929 . S
C241 C240 1.363 . S
C241 C247 1.428 . S
H242 C238 0.930 . S
H243 C240 0.929 . S
S244 N245 1.613 . S
S244 N246 1.610 . S
N245 S244 1.613 . S
N245 C248 1.350 . S
N246 S244 1.610 . S
N246 C247 1.351 . S
C247 C241 1.428 . S
C247 N246 1.351 . S
C247 C248 1.434 . S
C248 C239 1.429 . S
C248 N245 1.350 . S
C248 C247 1.434 . S
C249 C250 1.369 . S
C249 C251 1.419 . S
C249 H253 0.930 . S
C250 C249 1.369 . S
C250 C259 1.429 . S
C251 C249 1.419 . S
C251 C252 1.363 . S
C251 H254 0.929 . S
C252 C251 1.363 . S
C252 C258 1.428 . S
H253 C249 0.930 . S
H254 C251 0.929 . S
S255 N256 1.613 . S
S255 N257 1.610 . S
N256 S255 1.613 . S
N256 C259 1.350 . S
N257 S255 1.610 . S
N257 C258 1.351 . S
C258 C252 1.428 . S
C258 N257 1.351 . S
C258 C259 1.434 . S
C259 C250 1.429 . S
C259 N256 1.350 . S
C259 C258 1.434 . S
C260 C261 1.369 1_554 S
C260 C262 1.419 . S
C260 H264 0.930 . S
C261 C260 1.369 1_556 S
C261 C270 1.429 . S
C262 C260 1.419 . S
C262 C263 1.363 1_554 S
C262 H265 0.929 . S
C263 C262 1.363 1_556 S
C263 C269 1.428 . S
H264 C260 0.930 . S
H265 C262 0.929 . S
S266 N267 1.613 . S
S266 N268 1.610 . S
N267 S266 1.613 . S
N267 C270 1.350 . S
N268 S266 1.610 . S
N268 C269 1.351 . S
C269 C263 1.428 . S
C269 N268 1.351 . S
C269 C270 1.434 . S
C270 C261 1.429 . S
C270 N267 1.350 . S
C270 C269 1.434 . S
C271 C272 1.369 . S
C271 C273 1.419 . S
C271 H275 0.930 . S
C272 C271 1.369 . S
C272 C281 1.429 . S
C273 C271 1.419 . S
C273 C274 1.363 . S
C273 H276 0.929 . S
C274 C273 1.363 . S
C274 C280 1.428 . S
H275 C271 0.930 . S
H276 C273 0.929 . S
S277 N278 1.613 . S
S277 N279 1.610 . S
N278 S277 1.613 . S
N278 C281 1.350 . S
N279 S277 1.610 . S
N279 C280 1.351 . S
C280 C274 1.428 . S
C280 N279 1.351 . S
C280 C281 1.434 . S
C281 C272 1.429 . S
C281 N278 1.350 . S
C281 C280 1.434 . S
C282 C283 1.369 . S
C282 C284 1.419 . S
C282 H286 0.930 1_565 S
C283 C282 1.369 . S
C283 C292 1.429 . S
C284 C282 1.419 . S
C284 C285 1.363 . S
C284 H287 0.929 1_565 S
C285 C284 1.363 . S
C285 C291 1.428 . S
H286 C282 0.930 1_545 S
H287 C284 0.929 1_545 S
S288 N289 1.613 . S
S288 N290 1.610 . S
N289 S288 1.613 . S
N289 C292 1.350 . S
N290 S288 1.610 . S
N290 C291 1.351 . S
C291 C285 1.428 . S
C291 N290 1.351 . S
C291 C292 1.434 . S
C292 C283 1.429 . S
C292 N289 1.350 . S
C292 C291 1.434 . S
C293 C294 1.369 . S
C293 C295 1.419 1_545 S
C293 H297 0.930 . S
C294 C293 1.369 . S
C294 C303 1.429 . S
C295 C293 1.419 1_565 S
C295 C296 1.363 . S
C295 H298 0.929 . S
C296 C295 1.363 . S
C296 C302 1.428 . S
H297 C293 0.930 . S
H298 C295 0.929 . S
S299 N300 1.613 . S
S299 N301 1.610 1_545 S
N300 S299 1.613 . S
N300 C303 1.350 . S
N301 S299 1.610 1_565 S
N301 C302 1.351 . S
C302 C296 1.428 . S
C302 N301 1.351 . S
C302 C303 1.434 1_565 S
C303 C294 1.429 . S
C303 N300 1.350 . S
C303 C302 1.434 1_545 S
C304 C305 1.369 . S
C304 C306 1.419 . S
C304 H308 0.930 . S
C305 C304 1.369 . S
C305 C314 1.429 . S
C306 C304 1.419 . S
C306 C307 1.363 . S
C306 H309 0.929 . S
C307 C306 1.363 . S
C307 C313 1.428 . S
H308 C304 0.930 . S
H309 C306 0.929 . S
S310 N311 1.613 . S
S310 N312 1.610 . S
N311 S310 1.613 . S
N311 C314 1.350 . S
N312 S310 1.610 . S
N312 C313 1.351 . S
C313 C307 1.428 . S
C313 N312 1.351 . S
C313 C314 1.434 . S
C314 C305 1.429 . S
C314 N311 1.350 . S
C314 C313 1.434 . S
C315 C316 1.369 . S
C315 C317 1.419 . S
C315 H319 0.930 . S
C316 C315 1.369 . S
C316 C325 1.429 . S
C317 C315 1.419 . S
C317 C318 1.363 . S
C317 H320 0.929 . S
C318 C317 1.363 . S
C318 C324 1.428 . S
H319 C315 0.930 . S
H320 C317 0.929 . S
S321 N322 1.613 . S
S321 N323 1.610 . S
N322 S321 1.613 . S
N322 C325 1.350 . S
N323 S321 1.610 . S
N323 C324 1.351 . S
C324 C318 1.428 . S
C324 N323 1.351 . S
C324 C325 1.434 . S
C325 C316 1.429 . S
C325 N322 1.350 . S
C325 C324 1.434 . S
C326 C327 1.369 . S
C326 C328 1.419 1_455 S
C326 H330 0.930 . S
C327 C326 1.369 . S
C327 C336 1.429 . S
C328 C326 1.419 1_655 S
C328 C329 1.363 . S
C328 H331 0.929 . S
C329 C328 1.363 . S
C329 C335 1.428 1_655 S
H330 C326 0.930 . S
H331 C328 0.929 . S
S332 N333 1.613 . S
S332 N334 1.610 . S
N333 S332 1.613 . S
N333 C336 1.350 . S
N334 S332 1.610 . S
N334 C335 1.351 . S
C335 C329 1.428 1_455 S
C335 N334 1.351 . S
C335 C336 1.434 . S
C336 C327 1.429 . S
C336 N333 1.350 . S
C336 C335 1.434 . S
C337 C338 1.369 1_455 S
C337 C339 1.419 1_455 S
C337 H341 0.930 . S
C338 C337 1.369 1_655 S
C338 C347 1.429 . S
C339 C337 1.419 1_655 S
C339 C340 1.363 . S
C339 H342 0.929 1_655 S
C340 C339 1.363 . S
C340 C346 1.428 . S
H341 C337 0.930 . S
H342 C339 0.929 1_455 S
S343 N344 1.613 . S
S343 N345 1.610 . S
N344 S343 1.613 . S
N344 C347 1.350 . S
N345 S343 1.610 . S
N345 C346 1.351 . S
C346 C340 1.428 . S
C346 N345 1.351 . S
C346 C347 1.434 . S
C347 C338 1.429 . S
C347 N344 1.350 . S
C347 C346 1.434 . S
C348 C349 1.369 . S
C348 C350 1.419 . S
C348 H352 0.930 . S
C349 C348 1.369 . S
C349 C358 1.429 . S
C350 C348 1.419 . S
C350 C351 1.363 . S
C350 H353 0.929 . S
C351 C350 1.363 . S
C351 C357 1.428 . S
H352 C348 0.930 . S
H353 C350 0.929 . S
S354 N355 1.613 . S
S354 N356 1.610 . S
N355 S354 1.613 . S
N355 C358 1.350 . S
N356 S354 1.610 . S
N356 C357 1.351 . S
C357 C351 1.428 . S
C357 N356 1.351 . S
C357 C358 1.434 . S
C358 C349 1.429 . S
C358 N355 1.350 . S
C358 C357 1.434 . S
C359 C360 1.369 . S
C359 C361 1.424 . S
C359 H363 0.930 . S
C360 C359 1.369 . S
C360 C369 1.429 . S
C361 C359 1.424 . S
C361 C362 1.358 1_455 S
C361 H364 0.929 1_455 S
C362 C361 1.358 1_655 S
C362 C368 1.428 . S
H363 C359 0.930 . S
H364 C361 0.929 1_655 S
S365 N366 1.613 1_655 S
S365 N367 1.610 . S
N366 S365 1.613 1_455 S
N366 C369 1.350 . S
N367 S365 1.610 . S
N367 C368 1.351 . S
C368 C362 1.428 . S
C368 N367 1.351 . S
C368 C369 1.434 1_655 S
C369 C360 1.429 . S
C369 N366 1.350 . S
C369 C368 1.434 1_455 S
C370 C371 1.369 . S
C370 C372 1.419 . S
C370 H374 0.930 . S
C371 C370 1.369 . S
C371 C380 1.429 . S
C372 C370 1.419 . S
C372 C373 1.363 . S
C372 H375 0.929 . S
C373 C372 1.363 . S
C373 C379 1.428 . S
H374 C370 0.930 . S
H375 C372 0.929 . S
S376 N377 1.613 . S
S376 N378 1.610 . S
N377 S376 1.613 . S
N377 C380 1.350 1_554 S
N378 S376 1.610 . S
N378 C379 1.351 1_554 S
C379 C373 1.428 . S
C379 N378 1.351 1_556 S
C379 C380 1.434 . S
C380 C371 1.429 . S
C380 N377 1.350 1_556 S
C380 C379 1.434 . S
C381 C382 1.369 . S
C381 C383 1.419 . S
C381 H385 0.930 . S
C382 C381 1.369 . S
C382 C391 1.429 . S
C383 C381 1.419 . S
C383 C384 1.363 . S
C383 H386 0.929 . S
C384 C383 1.363 . S
C384 C390 1.428 . S
H385 C381 0.930 . S
H386 C383 0.929 . S
S387 N388 1.613 . S
S387 N389 1.610 . S
N388 S387 1.613 . S
N388 C391 1.350 . S
N389 S387 1.610 . S
N389 C390 1.351 . S
C390 C384 1.428 . S
C390 N389 1.351 . S
C390 C391 1.434 . S
C391 C382 1.429 . S
C391 N388 1.350 . S
C391 C390 1.434 . S
C392 C393 1.369 . S
C392 C394 1.419 1_545 S
C392 H396 0.930 . S
C393 C392 1.369 . S
C393 C402 1.429 . S
C394 C392 1.419 1_565 S
C394 C395 1.363 . S
C394 H397 0.929 . S
C395 C394 1.363 . S
C395 C401 1.428 1_565 S
H396 C392 0.930 . S
H397 C394 0.929 . S
S398 N399 1.613 . S
S398 N400 1.610 . S
N399 S398 1.613 . S
N399 C402 1.350 . S
N400 S398 1.610 . S
N400 C401 1.351 . S
C401 C395 1.428 1_545 S
C401 N400 1.351 . S
C401 C402 1.434 . S
C402 C393 1.429 . S
C402 N399 1.350 . S
C402 C401 1.434 . S
C403 C404 1.369 . S
C403 C405 1.419 . S
C403 H407 0.930 . S
C404 C403 1.369 . S
C404 C413 1.429 . S
C405 C403 1.419 . S
C405 C406 1.363 . S
C405 H408 0.929 . S
C406 C405 1.363 . S
C406 C412 1.428 . S
H407 C403 0.930 . S
H408 C405 0.929 . S
S409 N410 1.613 . S
S409 N411 1.610 . S
N410 S409 1.613 . S
N410 C413 1.350 . S
N411 S409 1.610 . S
N411 C412 1.351 . S
C412 C406 1.428 . S
C412 N411 1.351 . S
C412 C413 1.434 . S
C413 C404 1.429 . S
C413 N410 1.350 . S
C413 C412 1.434 . S
C414 C415 1.369 . S
C414 C416 1.419 . S
C414 H418 0.930 . S
C415 C414 1.369 . S
C415 C424 1.429 . S
C416 C414 1.419 . S
C416 C417 1.363 . S
C416 H419 0.929 . S
C417 C416 1.363 . S
C417 C423 1.428 . S
H418 C414 0.930 . S
H419 C416 0.929 . S
S420 N421 1.613 . S
S420 N422 1.610 . S
N421 S420 1.613 . S
N421 C424 1.350 . S
N422 S420 1.610 . S
N422 C423 1.351 . S
C423 C417 1.428 . S
C423 N422 1.351 . S
C423 C424 1.434 . S
C424 C415 1.429 . S
C424 N421 1.350 . S
C424 C423 1.434 . S
C425 C426 1.369 . S
C425 C427 1.419 . S
C425 H429 0.930 . S
C426 C425 1.369 . S
C426 C435 1.429 . S
C427 C425 1.419 . S
C427 C428 1.363 . S
C427 H430 0.929 . S
C428 C427 1.363 . S
C428 C434 1.428 . S
H429 C425 0.930 . S
H430 C427 0.929 . S
S431 N432 1.613 . S
S431 N433 1.610 . S
N432 S431 1.613 . S
N432 C435 1.350 . S
N433 S431 1.610 . S
N433 C434 1.351 . S
C434 C428 1.428 . S
C434 N433 1.351 . S
C434 C435 1.434 . S
C435 C426 1.429 . S
C435 N432 1.350 . S
C435 C434 1.434 . S
C436 C437 1.369 . S
C436 C438 1.419 . S
C436 H440 0.930 . S
C437 C436 1.369 . S
C437 C446 1.429 . S
C438 C436 1.419 . S
C438 C439 1.363 . S
C438 H441 0.929 . S
C439 C438 1.363 . S
C439 C445 1.428 . S
H440 C436 0.930 . S
H441 C438 0.929 . S
S442 N443 1.613 . S
S442 N444 1.610 . S
N443 S442 1.613 . S
N443 C446 1.350 . S
N444 S442 1.610 . S
N444 C445 1.351 . S
C445 C439 1.428 . S
C445 N444 1.351 . S
C445 C446 1.434 . S
C446 C437 1.429 . S
C446 N443 1.350 . S
C446 C445 1.434 . S
C447 C448 1.369 . S
C447 C449 1.419 . S
C447 H451 0.930 . S
C448 C447 1.369 . S
C448 C457 1.429 . S
C449 C447 1.419 . S
C449 C450 1.363 . S
C449 H452 0.929 . S
C450 C449 1.363 . S
C450 C456 1.428 . S
H451 C447 0.930 . S
H452 C449 0.929 . S
S453 N454 1.613 . S
S453 N455 1.610 . S
N454 S453 1.613 . S
N454 C457 1.350 . S
N455 S453 1.610 . S
N455 C456 1.351 . S
C456 C450 1.428 . S
C456 N455 1.351 . S
C456 C457 1.434 . S
C457 C448 1.429 . S
C457 N454 1.350 . S
C457 C456 1.434 . S
C458 C459 1.369 . S
C458 C460 1.419 . S
C458 H462 0.930 . S
C459 C458 1.369 . S
C459 C468 1.429 . S
C460 C458 1.419 . S
C460 C461 1.363 . S
C460 H463 0.929 . S
C461 C460 1.363 . S
C461 C467 1.428 . S
H462 C458 0.930 . S
H463 C460 0.929 . S
S464 N465 1.613 . S
S464 N466 1.610 . S
N465 S464 1.613 . S
N465 C468 1.350 . S
N466 S464 1.610 . S
N466 C467 1.351 . S
C467 C461 1.428 . S
C467 N466 1.351 . S
C467 C468 1.434 . S
C468 C459 1.429 . S
C468 N465 1.350 . S
C468 C467 1.434 . S
C469 C470 1.369 . S
C469 C471 1.419 . S
C469 H473 0.930 . S
C470 C469 1.369 . S
C470 C479 1.429 . S
C471 C469 1.419 . S
C471 C472 1.363 . S
C471 H474 0.929 1_545 S
C472 C471 1.363 . S
C472 C478 1.428 . S
H473 C469 0.930 . S
H474 C471 0.929 1_565 S
S475 N476 1.613 . S
S475 N477 1.610 . S
N476 S475 1.613 . S
N476 C479 1.350 . S
N477 S475 1.610 . S
N477 C478 1.351 . S
C478 C472 1.428 . S
C478 N477 1.351 . S
C478 C479 1.434 . S
C479 C470 1.429 . S
C479 N476 1.350 . S
C479 C478 1.434 . S
C480 C481 1.369 . S
C480 C482 1.419 . S
C480 H484 0.930 . S
C481 C480 1.369 . S
C481 C490 1.429 . S
C482 C480 1.419 . S
C482 C483 1.363 . S
C482 H485 0.929 . S
C483 C482 1.363 . S
C483 C489 1.428 . S
H484 C480 0.930 . S
H485 C482 0.929 . S
S486 N487 1.613 . S
S486 N488 1.610 . S
N487 S486 1.613 . S
N487 C490 1.350 . S
N488 S486 1.610 . S
N488 C489 1.351 . S
C489 C483 1.428 . S
C489 N488 1.351 . S
C489 C490 1.434 . S
C490 C481 1.429 . S
C490 N487 1.350 . S
C490 C489 1.434 . S
C491 C492 1.369 . S
C491 C493 1.419 . S
C491 H495 0.930 . S
C492 C491 1.369 . S
C492 C501 1.429 . S
C493 C491 1.419 . S
C493 C494 1.363 . S
C493 H496 0.929 . S
C494 C493 1.363 . S
C494 C500 1.428 . S
H495 C491 0.930 . S
H496 C493 0.929 . S
S497 N498 1.613 . S
S497 N499 1.610 . S
N498 S497 1.613 . S
N498 C501 1.350 . S
N499 S497 1.610 . S
N499 C500 1.351 . S
C500 C494 1.428 . S
C500 N499 1.351 . S
C500 C501 1.434 . S
C501 C492 1.429 . S
C501 N498 1.350 . S
C501 C500 1.434 . S
C502 C503 1.369 . S
C502 C504 1.419 . S
C502 H506 0.930 . S
C503 C502 1.369 . S
C503 C512 1.429 . S
C504 C502 1.419 . S
C504 C505 1.363 . S
C504 H507 0.929 . S
C505 C504 1.363 . S
C505 C511 1.428 . S
H506 C502 0.930 . S
H507 C504 0.929 . S
S508 N509 1.613 . S
S508 N510 1.610 . S
N509 S508 1.613 . S
N509 C512 1.350 . S
N510 S508 1.610 . S
N510 C511 1.351 . S
C511 C505 1.428 . S
C511 N510 1.351 . S
C511 C512 1.434 . S
C512 C503 1.429 . S
C512 N509 1.350 . S
C512 C511 1.434 . S
C513 C514 1.369 . S
C513 C515 1.419 . S
C513 H517 0.930 . S
C514 C513 1.369 . S
C514 C523 1.429 . S
C515 C513 1.419 . S
C515 C516 1.363 . S
C515 H518 0.929 . S
C516 C515 1.363 . S
C516 C522 1.428 . S
H517 C513 0.930 . S
H518 C515 0.929 . S
S519 N520 1.613 . S
S519 N521 1.610 . S
N520 S519 1.613 . S
N520 C523 1.350 . S
N521 S519 1.610 . S
N521 C522 1.351 . S
C522 C516 1.428 . S
C522 N521 1.351 . S
C522 C523 1.434 . S
C523 C514 1.429 . S
C523 N520 1.350 . S
C523 C522 1.434 . S
C524 C525 1.369 . S
C524 C526 1.419 . S
C524 H528 0.930 . S
C525 C524 1.369 . S
C525 C534 1.429 . S
C526 C524 1.419 . S
C526 C527 1.363 . S
C526 H529 0.929 . S
C527 C526 1.363 . S
C527 C533 1.428 . S
H528 C524 0.930 . S
H529 C526 0.929 . S
S530 N531 1.613 . S
S530 N532 1.610 . S
N531 S530 1.613 . S
N531 C534 1.350 . S
N532 S530 1.610 . S
N532 C533 1.351 . S
C533 C527 1.428 . S
C533 N532 1.351 . S
C533 C534 1.434 . S
C534 C525 1.429 . S
C534 N531 1.350 . S
C534 C533 1.434 . S
C535 C536 1.369 . S
C535 C537 1.419 . S
C535 H539 0.930 . S
C536 C535 1.369 . S
C536 C545 1.429 . S
C537 C535 1.419 . S
C537 C538 1.363 . S
C537 H540 0.929 . S
C538 C537 1.363 . S
C538 C544 1.428 . S
H539 C535 0.930 . S
H540 C537 0.929 . S
S541 N542 1.613 . S
S541 N543 1.610 . S
N542 S541 1.613 . S
N542 C545 1.350 . S
N543 S541 1.610 . S
N543 C544 1.351 . S
C544 C538 1.428 . S
C544 N543 1.351 . S
C544 C545 1.434 . S
C545 C536 1.429 . S
C545 N542 1.350 . S
C545 C544 1.434 . S
C546 C547 1.369 . S
C546 C548 1.419 . S
C546 H550 0.930 . S
C547 C546 1.369 . S
C547 C556 1.429 . S
C548 C546 1.419 . S
C548 C549 1.363 . S
C548 H551 0.929 . S
C549 C548 1.363 . S
C549 C555 1.428 . S
H550 C546 0.930 . S
H551 C548 0.929 . S
S552 N553 1.613 . S
S552 N554 1.610 . S
N553 S552 1.613 . S
N553 C556 1.350 . S
N554 S552 1.610 . S
N554 C555 1.351 . S
C555 C549 1.428 . S
C555 N554 1.351 . S
C555 C556 1.434 . S
C556 C547 1.429 . S
C556 N553 1.350 . S
C556 C555 1.434 . S
C557 C558 1.369 . S
C557 C559 1.419 . S
C557 H561 0.930 . S
C558 C557 1.369 . S
C558 C567 1.429 . S
C559 C557 1.419 . S
C559 C560 1.363 . S
C559 H562 0.929 . S
C560 C559 1.363 . S
C560 C566 1.428 . S
H561 C557 0.930 . S
H562 C559 0.929 . S
S563 N564 1.613 . S
S563 N565 1.610 . S
N564 S563 1.613 . S
N564 C567 1.350 . S
N565 S563 1.610 . S
N565 C566 1.351 . S
C566 C560 1.428 . S
C566 N565 1.351 . S
C566 C567 1.434 . S
C567 C558 1.429 . S
C567 N564 1.350 . S
C567 C566 1.434 . S
C219 C125 1.559 . S
C217 C5 1.511 . S
C230 C145 1.626 . S
C228 C18 1.570 . S
C241 C159 1.615 . S
C239 C31 1.561 . S
C250 C42 1.610 . S
C252 C117 1.593 . S
C261 C57 1.423 . S
C263 C111 1.442 1_556 S
C272 C70 1.433 . S
C274 C131 1.429 . S
C285 C139 1.349 . S
C283 C81 1.322 . S
C296 C153 1.395 . S
C294 C96 1.390 . S
C305 C29 1.333 . S
C307 C181 1.397 . S
C318 C195 1.350 . S
C316 C44 1.363 . S
C327 C3 1.390 . S
C329 C215 1.426 . S
C340 C167 1.444 . S
C338 C16 1.364 . S
C349 C83 1.545 . S
C351 C173 1.592 . S
C360 C94 1.638 . S
C362 C187 1.616 . S
C373 C201 1.633 . S
C371 C55 1.650 . S
C382 C68 1.575 . S
C384 C209 1.561 . S
C395 C140 1.759 . S
C393 C1 1.629 . S
C406 C154 1.757 . S
C404 C14 1.620 . S
C415 C27 1.586 . S
C417 C112 1.708 . S
C426 C49 1.562 . S
C428 C129 1.580 . S
C437 C53 1.281 . S
C439 C157 1.288 . S
C450 C115 1.262 . S
C448 C66 1.254 . S
C461 C126 1.367 . S
C459 C88 1.359 . S
C472 C143 1.325 . S
C470 C92 1.315 . S
C483 C199 1.324 . S
C481 C36 1.317 . S
C494 C210 1.369 . S
C492 C40 1.356 . S
C503 C10 1.255 . S
C505 C171 1.263 . S
C516 C185 1.289 . S
C514 C23 1.277 . S
C527 C213 1.581 . S
C525 C79 1.481 . S
C536 C101 1.674 . S
C538 C168 1.707 1_455 S
C549 C182 1.756 . S
C547 C62 1.714 . S
C560 C196 1.757 . S
C558 C75 1.721 . S
