# Generated by pormake.
# Topology gar, (4,6)-cn, num edge types: 1
# Building blocks:
#     Node 0, Type 0, BuildingBlock: KUFVIS_clean_sbu_0, # of connection points: 4
#     Node 1, Type 0, BuildingBlock: KUFVIS_clean_sbu_0, # of connection points: 4
#     Node 2, Type 0, BuildingBlock: KUFVIS_clean_sbu_0, # of connection points: 4
#     Node 3, Type 0, BuildingBlock: KUFVIS_clean_sbu_0, # of connection points: 4
#     Node 4, Type 0, BuildingBlock: KUFVIS_clean_sbu_0, # of connection points: 4
#     Node 5, Type 0, BuildingBlock: KUFVIS_clean_sbu_0, # of connection points: 4
#     Node 6, Type 0, BuildingBlock: KUFVIS_clean_sbu_0, # of connection points: 4
#     Node 7, Type 0, BuildingBlock: KUFVIS_clean_sbu_0, # of connection points: 4
#     Node 8, Type 0, BuildingBlock: KUFVIS_clean_sbu_0, # of connection points: 4
#     Node 9, Type 0, BuildingBlock: KUFVIS_clean_sbu_0, # of connection points: 4
#     Node 10, Type 0, BuildingBlock: KUFVIS_clean_sbu_0, # of connection points: 4
#     Node 11, Type 0, BuildingBlock: KUFVIS_clean_sbu_0, # of connection points: 4
#     Node 12, Type 0, BuildingBlock: KUFVIS_clean_sbu_0, # of connection points: 4
#     Node 13, Type 0, BuildingBlock: KUFVIS_clean_sbu_0, # of connection points: 4
#     Node 14, Type 0, BuildingBlock: KUFVIS_clean_sbu_0, # of connection points: 4
#     Node 15, Type 0, BuildingBlock: KUFVIS_clean_sbu_0, # of connection points: 4
#     Node 16, Type 0, BuildingBlock: KUFVIS_clean_sbu_0, # of connection points: 4
#     Node 17, Type 0, BuildingBlock: KUFVIS_clean_sbu_0, # of connection points: 4
#     Node 18, Type 0, BuildingBlock: KUFVIS_clean_sbu_0, # of connection points: 4
#     Node 19, Type 0, BuildingBlock: KUFVIS_clean_sbu_0, # of connection points: 4
#     Node 20, Type 0, BuildingBlock: KUFVIS_clean_sbu_0, # of connection points: 4
#     Node 21, Type 0, BuildingBlock: KUFVIS_clean_sbu_0, # of connection points: 4
#     Node 22, Type 0, BuildingBlock: KUFVIS_clean_sbu_0, # of connection points: 4
#     Node 23, Type 0, BuildingBlock: KUFVIS_clean_sbu_0, # of connection points: 4
#     Node 24, Type 1, BuildingBlock: NUHQIS_clean_sbu_0, # of connection points: 6
#     Node 25, Type 1, BuildingBlock: NUHQIS_clean_sbu_0, # of connection points: 6
#     Node 26, Type 1, BuildingBlock: NUHQIS_clean_sbu_0, # of connection points: 6
#     Node 27, Type 1, BuildingBlock: NUHQIS_clean_sbu_0, # of connection points: 6
#     Node 28, Type 1, BuildingBlock: NUHQIS_clean_sbu_0, # of connection points: 6
#     Node 29, Type 1, BuildingBlock: NUHQIS_clean_sbu_0, # of connection points: 6
#     Node 30, Type 1, BuildingBlock: NUHQIS_clean_sbu_0, # of connection points: 6
#     Node 31, Type 1, BuildingBlock: NUHQIS_clean_sbu_0, # of connection points: 6
#     Node 32, Type 1, BuildingBlock: NUHQIS_clean_sbu_0, # of connection points: 6
#     Node 33, Type 1, BuildingBlock: NUHQIS_clean_sbu_0, # of connection points: 6
#     Node 34, Type 1, BuildingBlock: NUHQIS_clean_sbu_0, # of connection points: 6
#     Node 35, Type 1, BuildingBlock: NUHQIS_clean_sbu_0, # of connection points: 6
#     Node 36, Type 1, BuildingBlock: NUHQIS_clean_sbu_0, # of connection points: 6
#     Node 37, Type 1, BuildingBlock: NUHQIS_clean_sbu_0, # of connection points: 6
#     Node 38, Type 1, BuildingBlock: NUHQIS_clean_sbu_0, # of connection points: 6
#     Node 39, Type 1, BuildingBlock: NUHQIS_clean_sbu_0, # of connection points: 6
#     Edge 40, Type (0, 1), BuildingBlock: CIFDUS_clean_linker_0, # of connection points: 2
#     Edge 41, Type (0, 1), BuildingBlock: CIFDUS_clean_linker_0, # of connection points: 2
#     Edge 42, Type (0, 1), BuildingBlock: CIFDUS_clean_linker_0, # of connection points: 2
#     Edge 43, Type (0, 1), BuildingBlock: CIFDUS_clean_linker_0, # of connection points: 2
#     Edge 44, Type (0, 1), BuildingBlock: CIFDUS_clean_linker_0, # of connection points: 2
#     Edge 45, Type (0, 1), BuildingBlock: CIFDUS_clean_linker_0, # of connection points: 2
#     Edge 46, Type (0, 1), BuildingBlock: CIFDUS_clean_linker_0, # of connection points: 2
#     Edge 47, Type (0, 1), BuildingBlock: CIFDUS_clean_linker_0, # of connection points: 2
#     Edge 48, Type (0, 1), BuildingBlock: CIFDUS_clean_linker_0, # of connection points: 2
#     Edge 49, Type (0, 1), BuildingBlock: CIFDUS_clean_linker_0, # of connection points: 2
#     Edge 50, Type (0, 1), BuildingBlock: CIFDUS_clean_linker_0, # of connection points: 2
#     Edge 51, Type (0, 1), BuildingBlock: CIFDUS_clean_linker_0, # of connection points: 2
#     Edge 52, Type (0, 1), BuildingBlock: CIFDUS_clean_linker_0, # of connection points: 2
#     Edge 53, Type (0, 1), BuildingBlock: CIFDUS_clean_linker_0, # of connection points: 2
#     Edge 54, Type (0, 1), BuildingBlock: CIFDUS_clean_linker_0, # of connection points: 2
#     Edge 55, Type (0, 1), BuildingBlock: CIFDUS_clean_linker_0, # of connection points: 2
#     Edge 56, Type (0, 1), BuildingBlock: CIFDUS_clean_linker_0, # of connection points: 2
#     Edge 57, Type (0, 1), BuildingBlock: CIFDUS_clean_linker_0, # of connection points: 2
#     Edge 58, Type (0, 1), BuildingBlock: CIFDUS_clean_linker_0, # of connection points: 2
#     Edge 59, Type (0, 1), BuildingBlock: CIFDUS_clean_linker_0, # of connection points: 2
#     Edge 60, Type (0, 1), BuildingBlock: CIFDUS_clean_linker_0, # of connection points: 2
#     Edge 61, Type (0, 1), BuildingBlock: CIFDUS_clean_linker_0, # of connection points: 2
#     Edge 62, Type (0, 1), BuildingBlock: CIFDUS_clean_linker_0, # of connection points: 2
#     Edge 63, Type (0, 1), BuildingBlock: CIFDUS_clean_linker_0, # of connection points: 2
#     Edge 64, Type (0, 1), BuildingBlock: CIFDUS_clean_linker_0, # of connection points: 2
#     Edge 65, Type (0, 1), BuildingBlock: CIFDUS_clean_linker_0, # of connection points: 2
#     Edge 66, Type (0, 1), BuildingBlock: CIFDUS_clean_linker_0, # of connection points: 2
#     Edge 67, Type (0, 1), BuildingBlock: CIFDUS_clean_linker_0, # of connection points: 2
#     Edge 68, Type (0, 1), BuildingBlock: CIFDUS_clean_linker_0, # of connection points: 2
#     Edge 69, Type (0, 1), BuildingBlock: CIFDUS_clean_linker_0, # of connection points: 2
#     Edge 70, Type (0, 1), BuildingBlock: CIFDUS_clean_linker_0, # of connection points: 2
#     Edge 71, Type (0, 1), BuildingBlock: CIFDUS_clean_linker_0, # of connection points: 2
#     Edge 72, Type (0, 1), BuildingBlock: CIFDUS_clean_linker_0, # of connection points: 2
#     Edge 73, Type (0, 1), BuildingBlock: CIFDUS_clean_linker_0, # of connection points: 2
#     Edge 74, Type (0, 1), BuildingBlock: CIFDUS_clean_linker_0, # of connection points: 2
#     Edge 75, Type (0, 1), BuildingBlock: CIFDUS_clean_linker_0, # of connection points: 2
#     Edge 76, Type (0, 1), BuildingBlock: CIFDUS_clean_linker_0, # of connection points: 2
#     Edge 77, Type (0, 1), BuildingBlock: CIFDUS_clean_linker_0, # of connection points: 2
#     Edge 78, Type (0, 1), BuildingBlock: CIFDUS_clean_linker_0, # of connection points: 2
#     Edge 79, Type (0, 1), BuildingBlock: CIFDUS_clean_linker_0, # of connection points: 2
#     Edge 80, Type (0, 1), BuildingBlock: CIFDUS_clean_linker_0, # of connection points: 2
#     Edge 81, Type (0, 1), BuildingBlock: CIFDUS_clean_linker_0, # of connection points: 2
#     Edge 82, Type (0, 1), BuildingBlock: CIFDUS_clean_linker_0, # of connection points: 2
#     Edge 83, Type (0, 1), BuildingBlock: CIFDUS_clean_linker_0, # of connection points: 2
#     Edge 84, Type (0, 1), BuildingBlock: CIFDUS_clean_linker_0, # of connection points: 2
#     Edge 85, Type (0, 1), BuildingBlock: CIFDUS_clean_linker_0, # of connection points: 2
#     Edge 86, Type (0, 1), BuildingBlock: CIFDUS_clean_linker_0, # of connection points: 2
#     Edge 87, Type (0, 1), BuildingBlock: CIFDUS_clean_linker_0, # of connection points: 2
#     Edge 88, Type (0, 1), BuildingBlock: CIFDUS_clean_linker_0, # of connection points: 2
#     Edge 89, Type (0, 1), BuildingBlock: CIFDUS_clean_linker_0, # of connection points: 2
#     Edge 90, Type (0, 1), BuildingBlock: CIFDUS_clean_linker_0, # of connection points: 2
#     Edge 91, Type (0, 1), BuildingBlock: CIFDUS_clean_linker_0, # of connection points: 2
#     Edge 92, Type (0, 1), BuildingBlock: CIFDUS_clean_linker_0, # of connection points: 2
#     Edge 93, Type (0, 1), BuildingBlock: CIFDUS_clean_linker_0, # of connection points: 2
#     Edge 94, Type (0, 1), BuildingBlock: CIFDUS_clean_linker_0, # of connection points: 2
#     Edge 95, Type (0, 1), BuildingBlock: CIFDUS_clean_linker_0, # of connection points: 2
#     Edge 96, Type (0, 1), BuildingBlock: CIFDUS_clean_linker_0, # of connection points: 2
#     Edge 97, Type (0, 1), BuildingBlock: CIFDUS_clean_linker_0, # of connection points: 2
#     Edge 98, Type (0, 1), BuildingBlock: CIFDUS_clean_linker_0, # of connection points: 2
#     Edge 99, Type (0, 1), BuildingBlock: CIFDUS_clean_linker_0, # of connection points: 2
#     Edge 100, Type (0, 1), BuildingBlock: CIFDUS_clean_linker_0, # of connection points: 2
#     Edge 101, Type (0, 1), BuildingBlock: CIFDUS_clean_linker_0, # of connection points: 2
#     Edge 102, Type (0, 1), BuildingBlock: CIFDUS_clean_linker_0, # of connection points: 2
#     Edge 103, Type (0, 1), BuildingBlock: CIFDUS_clean_linker_0, # of connection points: 2
#     Edge 104, Type (0, 1), BuildingBlock: CIFDUS_clean_linker_0, # of connection points: 2
#     Edge 105, Type (0, 1), BuildingBlock: CIFDUS_clean_linker_0, # of connection points: 2
#     Edge 106, Type (0, 1), BuildingBlock: CIFDUS_clean_linker_0, # of connection points: 2
#     Edge 107, Type (0, 1), BuildingBlock: CIFDUS_clean_linker_0, # of connection points: 2
#     Edge 108, Type (0, 1), BuildingBlock: CIFDUS_clean_linker_0, # of connection points: 2
#     Edge 109, Type (0, 1), BuildingBlock: CIFDUS_clean_linker_0, # of connection points: 2
#     Edge 110, Type (0, 1), BuildingBlock: CIFDUS_clean_linker_0, # of connection points: 2
#     Edge 111, Type (0, 1), BuildingBlock: CIFDUS_clean_linker_0, # of connection points: 2
#     Edge 112, Type (0, 1), BuildingBlock: CIFDUS_clean_linker_0, # of connection points: 2
#     Edge 113, Type (0, 1), BuildingBlock: CIFDUS_clean_linker_0, # of connection points: 2
#     Edge 114, Type (0, 1), BuildingBlock: CIFDUS_clean_linker_0, # of connection points: 2
#     Edge 115, Type (0, 1), BuildingBlock: CIFDUS_clean_linker_0, # of connection points: 2
#     Edge 116, Type (0, 1), BuildingBlock: CIFDUS_clean_linker_0, # of connection points: 2
#     Edge 117, Type (0, 1), BuildingBlock: CIFDUS_clean_linker_0, # of connection points: 2
#     Edge 118, Type (0, 1), BuildingBlock: CIFDUS_clean_linker_0, # of connection points: 2
#     Edge 119, Type (0, 1), BuildingBlock: CIFDUS_clean_linker_0, # of connection points: 2
#     Edge 120, Type (0, 1), BuildingBlock: CIFDUS_clean_linker_0, # of connection points: 2
#     Edge 121, Type (0, 1), BuildingBlock: CIFDUS_clean_linker_0, # of connection points: 2
#     Edge 122, Type (0, 1), BuildingBlock: CIFDUS_clean_linker_0, # of connection points: 2
#     Edge 123, Type (0, 1), BuildingBlock: CIFDUS_clean_linker_0, # of connection points: 2
#     Edge 124, Type (0, 1), BuildingBlock: CIFDUS_clean_linker_0, # of connection points: 2
#     Edge 125, Type (0, 1), BuildingBlock: CIFDUS_clean_linker_0, # of connection points: 2
#     Edge 126, Type (0, 1), BuildingBlock: CIFDUS_clean_linker_0, # of connection points: 2
#     Edge 127, Type (0, 1), BuildingBlock: CIFDUS_clean_linker_0, # of connection points: 2
#     Edge 128, Type (0, 1), BuildingBlock: CIFDUS_clean_linker_0, # of connection points: 2
#     Edge 129, Type (0, 1), BuildingBlock: CIFDUS_clean_linker_0, # of connection points: 2
#     Edge 130, Type (0, 1), BuildingBlock: CIFDUS_clean_linker_0, # of connection points: 2
#     Edge 131, Type (0, 1), BuildingBlock: CIFDUS_clean_linker_0, # of connection points: 2
#     Edge 132, Type (0, 1), BuildingBlock: CIFDUS_clean_linker_0, # of connection points: 2
#     Edge 133, Type (0, 1), BuildingBlock: CIFDUS_clean_linker_0, # of connection points: 2
#     Edge 134, Type (0, 1), BuildingBlock: CIFDUS_clean_linker_0, # of connection points: 2
#     Edge 135, Type (0, 1), BuildingBlock: CIFDUS_clean_linker_0, # of connection points: 2
# Relax obj value: 0.237
# Max RMSD: 0.340
# Mean RMSD: 0.140
data_MOF--net-gar--node1-KUFVIS_clean_sbu_0--node2-NUHQIS_clean_sbu_0--edge1-CIFDUS_clean_linker_0
_symmetry_space_group_name_H-M    P1
_symmetry_Int_Tables_number       1
_symmetry_cell_setting            triclinic
loop_
_symmetry_equiv_pos_as_xyz
'x, y, z'
_cell_length_a     50.186748
_cell_length_b     52.700153
_cell_length_c     51.123112
_cell_angle_alpha  93.748385
_cell_angle_beta   96.027086
_cell_angle_gamma 99.83342
loop_
_atom_site_label
_atom_site_type_symbol
_atom_site_fract_x
_atom_site_fract_y
_atom_site_fract_z
_atom_type_partial_charge
Mn0 Mn 0.09056 0.29338 0.4247 0.0
Mn1 Mn 0.08929 0.33435 0.37441 0.0
C2 C 0.04665 0.29975 0.40012 0.0
C3 C 0.09151 0.24887 0.44599 0.0
C4 C 0.09773 0.35725 0.43278 0.0
O5 O 0.13097 0.29633 0.41019 0.0
O6 O 0.12695 0.32416 0.37896 0.0
C7 C 0.09391 0.29568 0.33097 0.0
N8 N 0.08036 0.31344 0.34153 0.0
C9 C 0.04622 0.30609 0.30373 0.0
C10 C 0.05998 0.28794 0.2924 0.0
C11 C 0.08386 0.28265 0.30613 0.0
C12 C 0.05714 0.31842 0.3286 0.0
H13 H 0.11221 0.29136 0.34138 0.0
C14 C 0.14096 0.30914 0.39103 0.0
O15 O 0.0994 0.2719 0.45779 0.0
O16 O 0.08395 0.2512 0.42122 0.0
N17 N 0.05534 0.34575 0.36581 0.0
C18 C 0.04415 0.36356 0.37949 0.0
C19 C 1.02029 0.37114 0.36828 0.0
C20 C 1.00816 0.36045 0.34309 0.0
C21 C 1.02011 0.34237 0.32926 0.0
C22 C 0.04414 0.33582 0.34126 0.0
H23 H 0.05322 0.37193 0.39885 0.0
O24 O 0.04833 0.29139 0.42349 0.0
O25 O 0.07065 0.3042 0.39174 0.0
O26 O 0.09696 0.3344 0.44201 0.0
O27 O 0.0971 0.35889 0.40775 0.0
C28 C 1.00899 0.33046 0.3041 0.0
C29 C 1.02195 0.31223 0.29141 0.0
H30 H 0.05229 0.27784 0.27325 0.0
H31 H 0.09452 0.26855 0.29759 0.0
H32 H 1.01116 0.38509 0.37911 0.0
H33 H 0.98956 0.36611 0.33465 0.0
H34 H 0.99032 0.335 0.29445 0.0
H35 H 1.01305 0.303 0.27219 0.0
Mn36 Mn 0.07707 0.80272 0.65845 0.0
Mn37 Mn 0.08762 0.84903 0.71055 0.0
C38 C 0.1229 0.81567 0.68517 0.0
C39 C 0.07086 0.75466 0.63817 0.0
C40 C 0.07962 0.86531 0.65241 0.0
O41 O 0.03639 0.80132 0.67316 0.0
O42 O 0.04748 0.83209 0.70732 0.0
C43 C 0.07787 0.81609 0.75471 0.0
N44 N 0.09468 0.83397 0.7431 0.0
C45 C 0.13072 0.83584 0.77858 0.0
C46 C 0.1137 0.81763 0.79097 0.0
C47 C 0.08718 0.8077 0.77895 0.0
C48 C 0.12026 0.84367 0.75452 0.0
H49 H 0.05753 0.80817 0.74554 0.0
C50 C 1.02956 0.81412 0.69393 0.0
O51 O 0.06594 0.77401 0.62513 0.0
O52 O 0.07708 0.76264 0.66297 0.0
N53 N 0.12492 0.86614 0.71705 0.0
C54 C 0.13958 0.88198 0.70162 0.0
C55 C 0.16687 0.89275 0.71039 0.0
C56 C 0.17887 0.88712 0.73488 0.0
C57 C 0.16346 0.87072 0.7504 0.0
C58 C 0.13625 0.86073 0.74076 0.0
H59 H 0.13064 0.88629 0.68267 0.0
O60 O 0.1197 0.80651 0.66066 0.0
O61 O 0.09937 0.81871 0.69256 0.0
O62 O 0.07754 0.84153 0.64165 0.0
O63 O 0.0817 0.86861 0.67782 0.0
C64 C 0.17426 0.86341 0.77475 0.0
C65 C 0.15789 0.846 0.78884 0.0
H66 H 0.12088 0.81093 0.80956 0.0
H67 H 0.07397 0.7935 0.78831 0.0
H68 H 0.17868 0.90526 0.69821 0.0
H69 H 0.20003 0.89522 0.74143 0.0
H70 H 0.19526 0.87074 0.78262 0.0
H71 H 0.16655 0.84023 0.80735 0.0
Mn72 Mn 0.58484 0.79416 0.92484 0.0
Mn73 Mn 0.58363 0.83212 0.87233 0.0
C74 C 0.54045 0.79896 0.89875 0.0
C75 C 0.58583 0.74813 0.94359 0.0
C76 C 0.59223 0.85815 0.9303 0.0
O77 O 0.62626 0.79815 0.91214 0.0
O78 O 0.62073 0.82083 0.8768 0.0
C79 C 0.58613 0.79136 0.83027 0.0
N80 N 0.57365 0.8103 0.84013 0.0
C81 C 0.53935 0.80306 0.80249 0.0
C82 C 0.55216 0.78384 0.79174 0.0
C83 C 0.57557 0.77787 0.80577 0.0
C84 C 0.55083 0.81587 0.827 0.0
H85 H 0.60391 0.78642 0.84108 0.0
C86 C 0.6356 0.8082 0.89121 0.0
O87 O 0.59248 0.7704 0.95731 0.0
O88 O 0.57948 0.75248 0.91918 0.0
N89 N 0.55006 0.84422 0.8637 0.0
C90 C 0.53916 0.86227 0.87732 0.0
C91 C 0.51544 0.87011 0.86612 0.0
C92 C 0.5031 0.85936 0.84102 0.0
C93 C 0.51464 0.84087 0.82732 0.0
C94 C 0.53855 0.83407 0.83931 0.0
H95 H 0.54829 0.87057 0.89667 0.0
O96 O 0.54205 0.79108 0.92231 0.0
O97 O 0.56477 0.80359 0.89108 0.0
O98 O 0.5901 0.83602 0.94141 0.0
O99 O 0.59265 0.8575 0.90506 0.0
C100 C 0.5031 0.82864 0.8024 0.0
C101 C 0.51537 0.80966 0.79005 0.0
H102 H 0.54402 0.77332 0.77288 0.0
H103 H 0.58539 0.76285 0.79775 0.0
H104 H 0.50656 0.88427 0.87691 0.0
H105 H 0.4846 0.8652 0.8326 0.0
H106 H 0.48454 0.8334 0.79275 0.0
H107 H 0.50606 0.80009 0.77108 0.0
Mn108 Mn 0.58297 0.30524 0.16379 0.0
Mn109 Mn 0.53293 0.2939 0.11287 0.0
C110 C 0.57008 0.25974 0.13988 0.0
C111 C 0.63206 0.31299 0.18554 0.0
C112 C 0.51879 0.30184 0.17118 0.0
O113 O 0.58331 0.34462 0.14923 0.0
O114 O 0.55034 0.33277 0.11543 0.0
C115 C 0.56532 0.30449 0.06823 0.0
N116 N 0.54693 0.28828 0.07998 0.0
C117 C 0.54177 0.25568 0.04366 0.0
C118 C 0.56021 0.27225 0.03096 0.0
C119 C 0.57214 0.29671 0.04337 0.0
C120 C 0.53555 0.26458 0.06833 0.0
H121 H 0.57488 0.32315 0.07779 0.0
C122 C 0.56876 0.35088 0.12837 0.0
O123 O 0.61146 0.31656 0.19764 0.0
O124 O 0.62476 0.30693 0.16047 0.0
N125 N 0.51511 0.25851 0.10679 0.0
C126 C 0.50061 0.24362 0.1231 0.0
C127 C 0.48882 0.21795 0.11442 0.0
C128 C 0.49216 0.20777 0.08915 0.0
C129 C 0.50753 0.22329 0.07287 0.0
C130 C 0.51873 0.24879 0.08255 0.0
H131 H 0.49837 0.25113 0.14272 0.0
O132 O 0.58012 0.26496 0.16444 0.0
O133 O 0.56583 0.28169 0.13026 0.0
O134 O 0.5442 0.30479 0.18126 0.0
O135 O 0.51352 0.29841 0.14583 0.0
C136 C 0.51292 0.21418 0.04779 0.0
C137 C 0.52998 0.23038 0.03317 0.0
H138 H 0.56572 0.26623 1.0119 0.0
H139 H 0.58667 0.30949 0.03386 0.0
H140 H 0.47732 0.20597 0.12726 0.0
H141 H 0.48324 0.18787 0.08262 0.0
H142 H 0.50454 0.19456 0.03981 0.0
H143 H 0.53443 0.22298 1.01415 0.0
Mn144 Mn 0.13335 0.87653 0.18961 0.0
Mn145 Mn 0.10037 0.8454 0.13212 0.0
C146 C 0.1422 0.83687 0.17541 0.0
C147 C 0.16942 0.90301 0.21569 0.0
C148 C 0.07555 0.84512 0.18317 0.0
O149 O 0.11825 0.90531 0.17178 0.0
O150 O 0.09694 0.88238 0.13448 0.0
C151 C 0.13682 0.87271 0.09698 0.0
N152 N 0.1245 0.85023 0.1056 0.0
C153 C 0.14451 0.82494 0.07473 0.0
C154 C 0.15731 0.84782 0.06542 0.0
C155 C 0.15353 0.8718 0.07667 0.0
C156 C 0.12831 0.82707 0.09517 0.0
H157 H 0.13395 0.89119 0.10554 0.0
C158 C 0.10387 0.90348 0.14936 0.0
O159 O 0.14537 0.89821 0.22338 0.0
O160 O 0.17152 0.89502 0.19151 0.0
N161 N 0.1016 0.80938 0.12631 0.0
C162 C 0.08734 0.7891 0.13712 0.0
C163 C 0.08837 0.76372 0.12762 0.0
C164 C 0.1037 0.75942 0.10685 0.0
C165 C 0.11774 0.78056 0.09564 0.0
C166 C 0.11573 0.80543 0.10577 0.0
H167 H 0.07524 0.79224 0.15289 0.0
O168 O 0.1474 0.84525 0.20011 0.0
O169 O 0.13227 0.85202 0.15932 0.0
O170 O 0.09562 0.85991 0.19672 0.0
O171 O 0.07453 0.83863 0.15855 0.0
C172 C 0.13372 0.77794 0.07489 0.0
C173 C 0.14725 0.80013 0.06457 0.0
H174 H 0.17013 0.8472 0.0497 0.0
H175 H 0.1634 0.88955 0.06966 0.0
H176 H 0.07739 0.7475 0.1363 0.0
H177 H 0.10459 0.73981 0.0997 0.0
H178 H 0.13586 0.75897 0.06684 0.0
H179 H 0.15963 0.79788 0.04874 0.0
Mn180 Mn 0.52541 0.73462 0.40499 0.0
Mn181 Mn 0.51447 0.73902 0.33883 0.0
C182 C 0.4819 0.73574 0.38531 0.0
C183 C 0.5325 0.71075 0.44113 0.0
C184 C 0.53337 0.78571 0.37772 0.0
O185 O 0.56122 0.7284 0.39304 0.0
O186 O 0.55174 0.73368 0.3502 0.0
C187 C 0.51685 0.68364 0.32762 0.0
N188 N 0.50343 0.70385 0.32455 0.0
C189 C 0.4657 0.67647 0.29794 0.0
C190 C 0.4792 0.65543 0.30067 0.0
C191 C 0.50484 0.65902 0.31569 0.0
C192 C 0.47839 0.70042 0.31084 0.0
H193 H 0.53652 0.68623 0.33919 0.0
C194 C 0.56781 0.72962 0.36982 0.0
O195 O 0.54209 0.73529 0.44226 0.0
O196 O 0.51857 0.69999 0.41917 0.0
N197 N 0.48001 0.74417 0.32235 0.0
C198 C 0.47299 0.76724 0.31662 0.0
C199 C 0.44934 0.76767 0.29945 0.0
C200 C 0.43345 0.74439 0.28775 0.0
C201 C 0.4422 0.72102 0.29221 0.0
C202 C 0.4663 0.72191 0.30909 0.0
H203 H 0.4855 0.78522 0.32496 0.0
O204 O 0.48799 0.7398 0.41069 0.0
O205 O 0.50075 0.72879 0.37211 0.0
O206 O 0.5356 0.77267 0.39789 0.0
O207 O 0.52474 0.77553 0.35415 0.0
C208 C 0.42881 0.69707 0.27936 0.0
C209 C 0.44039 0.67473 0.28249 0.0
H210 H 0.47015 0.63648 0.29119 0.0
H211 H 0.51538 0.64287 0.31796 0.0
H212 H 0.44338 0.78592 0.29529 0.0
H213 H 0.41514 0.74479 0.27464 0.0
H214 H 0.40994 0.69575 0.26652 0.0
H215 H 0.43009 0.65648 0.27228 0.0
Mn216 Mn 0.6611 0.37414 0.66672 0.0
Mn217 Mn 0.61987 0.34187 0.61437 0.0
C218 C 0.65595 0.32998 0.66085 0.0
C219 C 0.70236 0.39566 0.68899 0.0
C220 C 0.59898 0.35683 0.66459 0.0
O221 O 0.65567 0.40298 0.6437 0.0
O222 O 0.62341 0.38015 0.61345 0.0
C223 C 0.6587 0.35889 0.57643 0.0
N224 N 0.64304 0.33948 0.5872 0.0
C225 C 0.65769 0.30721 0.55932 0.0
C226 C 0.67388 0.32687 0.54789 0.0
C227 C 0.67443 0.35282 0.55654 0.0
C228 C 0.6427 0.31444 0.57928 0.0
H229 H 0.65924 0.37888 0.58295 0.0
C230 C 0.63746 0.4016 0.6241 0.0
O231 O 0.67928 0.39901 0.69665 0.0
O232 O 0.7014 0.38157 0.66695 0.0
N233 N 0.6135 0.30485 0.61116 0.0
C234 C 0.59503 0.28831 0.62249 0.0
C235 C 0.59113 0.26166 0.61524 0.0
C236 C 0.60571 0.25229 0.59588 0.0
C237 C 0.62369 0.26975 0.5836 0.0
C238 C 0.62663 0.29613 0.59158 0.0
H239 H 0.5835 0.2954 0.63711 0.0
O240 O 0.66437 0.34216 0.68382 0.0
O241 O 0.65174 0.34404 0.64114 0.0
O242 O 0.62155 0.37076 0.67463 0.0
O243 O 0.59577 0.34324 0.64243 0.0
C244 C 0.63862 0.26202 0.56359 0.0
C245 C 0.65576 0.28073 0.55159 0.0
H246 H 0.68593 0.32226 0.53244 0.0
H247 H 0.68691 0.36811 0.54786 0.0
H248 H 0.57693 0.24836 0.62457 0.0
H249 H 0.6028 0.2317 0.59046 0.0
H250 H 0.637 0.24174 0.55724 0.0
H251 H 0.66714 0.27456 0.53622 0.0
Mn252 Mn 1.00716 0.22433 0.8897 0.0
Mn253 Mn 0.99794 0.25105 0.83183 0.0
C254 C 0.96302 0.22579 0.87182 0.0
C255 C 1.01797 0.19119 0.91429 0.0
C256 C 1.01726 0.28186 0.88455 0.0
O257 O 0.04405 0.22804 0.87571 0.0
O258 O 0.03211 0.23708 0.8342 0.0
C259 C 0.99032 0.20429 0.79457 0.0
N260 N 0.98164 0.226 0.80355 0.0
C261 C 0.94669 0.22152 0.76676 0.0
C262 C 0.95519 0.19907 0.75706 0.0
C263 C 0.97693 0.19028 0.77117 0.0
C264 C 0.96026 0.23417 0.79059 0.0
H265 H 1.00746 0.19791 0.80508 0.0
C266 C 0.04904 0.23107 0.85211 0.0
O267 O 1.0241 0.21515 0.92347 0.0
O268 O 1.00486 0.18601 0.89063 0.0
N269 N 0.96598 0.266 0.8255 0.0
C270 C 0.95995 0.28768 0.83784 0.0
C271 C 0.93888 0.29916 0.82621 0.0
C272 C 0.92479 0.28871 0.80164 0.0
C273 C 0.93147 0.26656 0.78917 0.0
C274 C 0.95239 0.25576 0.80188 0.0
H275 H 0.97138 0.2964 0.85623 0.0
O276 O 0.96841 0.22136 0.89635 0.0
O277 O 0.98337 0.22745 0.85772 0.0
O278 O 1.013 0.2629 0.89854 0.0
O279 O 1.01459 0.27932 0.85935 0.0
C280 C 0.9182 0.25476 0.76461 0.0
C281 C 0.92552 0.23203 0.7536 0.0
H282 H 0.94522 0.18847 0.73878 0.0
H283 H 0.98364 0.173 0.76379 0.0
H284 H 0.93387 0.3163 0.83592 0.0
H285 H 0.90894 0.29788 0.79249 0.0
H286 H 0.90194 0.2627 0.7543 0.0
H287 H 0.91481 0.22284 0.73498 0.0
Mn288 Mn 0.53817 0.12801 0.34932 0.0
Mn289 Mn 0.48984 0.11566 0.38962 0.0
C290 C 0.52992 0.08813 0.36691 0.0
C291 C 0.55124 0.12534 0.30749 0.0
C292 C 0.54365 0.15223 0.40531 0.0
O293 O 0.51409 0.15448 0.34097 0.0
O294 O 0.47969 0.14052 0.36463 0.0
C295 C 0.44391 0.08905 0.35087 0.0
N296 N 0.46122 0.08884 0.37321 0.0
C297 C 0.44122 0.04491 0.37874 0.0
C298 C 0.4231 0.04474 0.35589 0.0
C299 C 0.42449 0.0669 0.34188 0.0
C300 C 0.46016 0.06756 0.38677 0.0
H301 H 0.44502 0.10594 0.33989 0.0
C302 C 0.49006 0.15439 0.34724 0.0
O303 O 0.56524 0.14215 0.32572 0.0
O304 O 0.52892 0.11172 0.31315 0.0
N305 N 0.49781 0.09082 0.41377 0.0
C306 C 0.51801 0.09339 0.43431 0.0
C307 C 0.51983 0.07271 0.44999 0.0
C308 C 0.50086 0.0496 0.44446 0.0
C309 C 0.48024 0.04738 0.42326 0.0
C310 C 0.47936 0.06869 0.40838 0.0
H311 H 0.53267 0.11103 0.43873 0.0
O312 O 0.5535 0.09647 0.35935 0.0
O313 O 0.51337 0.10435 0.36542 0.0
O314 O 0.55417 0.14767 0.38431 0.0
O315 O 0.51906 0.14281 0.40846 0.0
C316 C 0.46096 0.02461 0.41591 0.0
C317 C 0.44157 0.02333 0.39358 0.0
H318 H 0.4082 0.02764 0.3488 0.0
H319 H 0.41068 0.06686 0.32412 0.0
H320 H 0.53585 0.07457 0.46629 0.0
H321 H 0.50245 0.03363 0.45649 0.0
H322 H 0.46125 1.00778 0.42694 0.0
H323 H 0.42724 1.00552 0.38778 0.0
Mn324 Mn 0.34752 0.18428 0.53858 0.0
Mn325 Mn 0.33662 0.13262 0.49266 0.0
C326 C 0.3007 0.15829 0.52706 0.0
C327 C 0.35304 0.20497 0.58655 0.0
C328 C 0.34702 0.18919 0.47477 0.0
O329 O 0.38781 0.17162 0.53917 0.0
O330 O 0.37664 0.13739 0.50888 0.0
C331 C 0.34373 0.09144 0.5283 0.0
N332 N 0.32795 0.10146 0.50973 0.0
C333 C 0.29025 0.06677 0.51132 0.0
C334 C 0.3062 0.05601 0.53027 0.0
C335 C 0.33305 0.06842 0.5388 0.0
C336 C 0.30203 0.0897 0.50146 0.0
H337 H 0.36428 0.10097 0.53521 0.0
C338 C 0.39457 0.15147 0.52634 0.0
O339 O 0.3586 0.21751 0.56623 0.0
O340 O 0.34661 0.18037 0.57959 0.0
N341 N 0.29982 0.12443 0.47589 0.0
C342 C 0.28681 0.13749 0.45786 0.0
C343 C 0.25981 0.12748 0.44725 0.0
C344 C 0.2464 0.10419 0.45531 0.0
C345 C 0.2602 0.091 0.47375 0.0
C346 C 0.28727 0.10168 0.48331 0.0
H347 H 0.29683 0.15547 0.45162 0.0
O348 O 0.30543 0.18237 0.53605 0.0
O349 O 0.3237 0.15055 0.52333 0.0
O350 O 0.34896 0.20004 0.49892 0.0
O351 O 0.34409 0.16431 0.47163 0.0
C352 C 0.24802 0.06785 0.48326 0.0
C353 C 0.26301 0.05579 0.5021 0.0
H354 H 0.29799 0.03833 0.53853 0.0
H355 H 0.34544 0.06032 0.55354 0.0
H356 H 0.24929 0.13781 0.43306 0.0
H357 H 0.22546 0.09672 0.44736 0.0
H358 H 0.22706 0.05928 0.4764 0.0
H359 H 0.25334 0.03812 0.50945 0.0
Mn360 Mn 0.22459 0.10288 0.86927 0.0
Mn361 Mn 0.27308 0.12512 0.91952 0.0
C362 C 0.24123 0.14646 0.87581 0.0
C363 C 0.21075 0.08501 0.82661 0.0
C364 C 0.21394 0.10569 0.92603 0.0
O365 O 0.23975 0.07119 0.87948 0.0
O366 O 0.27661 0.08905 0.90797 0.0
C367 C 0.32323 0.12648 0.89347 0.0
N368 N 0.30668 0.13906 0.907 0.0
C369 C 0.33616 0.17998 0.90573 0.0
C370 C 0.35359 0.16743 0.89195 0.0
C371 C 0.34709 0.14057 0.88579 0.0
C372 C 0.31286 0.16489 0.91322 0.0
H373 H 0.31819 0.10588 0.88841 0.0
C374 C 0.2622 0.06988 0.89317 0.0
O375 O 0.19494 0.08166 0.84507 0.0
O376 O 0.23513 0.09831 0.83312 0.0
N377 N 0.27164 0.16016 0.93104 0.0
C378 C 0.25163 0.16963 0.94249 0.0
C379 C 0.25442 0.19635 0.94884 0.0
C380 C 0.27768 0.21307 0.94328 0.0
C381 C 0.29799 0.20291 0.93145 0.0
C382 C 0.29425 0.17608 0.92584 0.0
H383 H 0.23356 0.15695 0.94659 0.0
O384 O 0.21746 0.13805 0.86258 0.0
O385 O 0.25427 0.12889 0.88472 0.0
O386 O 0.2054 0.10369 0.90171 0.0
O387 O 0.23911 0.1116 0.93515 0.0
C388 C 0.32147 0.21843 0.92441 0.0
C389 C 0.34056 0.20697 0.9116 0.0
H390 H 0.37181 0.17828 0.88566 0.0
H391 H 0.36033 0.13077 0.87498 0.0
H392 H 0.23858 0.20406 0.95783 0.0
H393 H 0.27961 0.2337 0.94793 0.0
H394 H 0.32486 0.23924 0.92843 0.0
H395 H 0.35832 0.21914 0.90592 0.0
Mn396 Mn 0.3601 0.90369 0.05737 0.0
Mn397 Mn 0.36912 0.95549 0.02074 0.0
C398 C 0.40407 0.924 0.05056 0.0
C399 C 0.35586 0.88734 0.10036 0.0
C400 C 0.34853 0.90039 0.99555 0.0
O401 O 0.32346 0.91669 0.05695 0.0
O402 O 0.33396 0.95235 0.03529 0.0
C403 C 0.37337 0.99733 0.06335 0.0
N404 N 0.38392 0.98636 0.04286 0.0
C405 C 0.42111 0.02227 0.04555 0.0
C406 C 0.41063 0.03399 0.06667 0.0
C407 C 0.38676 0.02138 0.07572 0.0
C408 C 0.40714 0.99808 0.03433 0.0
H409 H 0.35482 0.98784 0.0701 0.0
C410 C 0.31781 0.93753 0.04784 0.0
O411 O 0.34697 0.87324 0.07833 0.0
O412 O 0.36685 0.9109 0.0975 0.0
N413 N 0.40256 0.96126 1.00535 0.0
C414 C 0.41046 0.94695 0.98535 0.0
C415 C 0.43431 0.95656 0.97441 0.0
C416 C 0.44949 0.98099 0.98375 0.0
C417 C 0.4407 0.99556 1.00403 0.0
C418 C 0.41689 0.98489 1.0143 0.0
H419 H 0.39861 0.92837 0.97774 0.0
O420 O 0.39977 0.90039 0.0571 0.0
O421 O 0.38274 0.93473 0.04782 0.0
O422 O 0.35037 0.88863 1.01694 0.0
O423 O 0.35431 0.92497 0.99583 0.0
C424 C 0.45472 0.02019 1.01454 0.0
C425 C 0.44497 0.0335 0.03534 0.0
H426 H 0.42081 0.05262 0.07615 0.0
H427 H 0.37858 0.03029 0.09203 0.0
H428 H 0.4409 0.94523 0.95869 0.0
H429 H 0.46787 0.98834 0.97526 0.0
H430 H 0.47322 0.02892 1.00703 0.0
H431 H 0.45617 0.05223 0.04356 0.0
Mn432 Mn 0.325 0.42408 0.04897 0.0
Mn433 Mn 0.33138 0.47412 1.00866 0.0
C434 C 0.3711 0.44846 0.04295 0.0
C435 C 0.32027 0.40212 0.09309 0.0
C436 C 0.32035 0.41702 0.98473 0.0
O437 O 0.28463 0.43659 0.04563 0.0
O438 O 0.29339 0.47008 0.02083 0.0
C439 C 0.32947 0.51659 0.04906 0.0
N440 N 0.3424 0.50618 0.02998 0.0
C441 C 0.37896 0.54289 0.03608 0.0
C442 C 0.36585 0.55412 0.05553 0.0
C443 C 0.34106 0.54085 0.06212 0.0
C444 C 0.36647 0.51863 0.02377 0.0
H445 H 0.31052 0.50645 0.05438 0.0
C446 C 0.27694 0.45649 0.03446 0.0
O447 O 0.3129 0.39102 0.06946 0.0
O448 O 0.32917 0.42664 0.09165 0.0
N449 N 0.36593 0.48209 0.99539 0.0
C450 C 0.37642 0.46844 0.97661 0.0
C451 C 0.4013 0.47899 0.96802 0.0
C452 C 0.41505 0.50357 0.97854 0.0
C453 C 0.40368 0.51748 0.99745 0.0
C454 C 0.37871 0.50606 1.00516 0.0
H455 H 0.36602 0.44959 0.96824 0.0
O456 O 0.36695 0.42534 0.05089 0.0
O457 O 0.34795 0.45682 0.03854 0.0
O458 O 0.32071 0.40744 1.00768 0.0
O459 O 0.32126 0.44149 0.98355 0.0
C460 C 0.41635 0.54208 1.00924 0.0
C461 C 0.40407 0.55472 0.02864 0.0
H462 H 0.37473 0.57282 0.06568 0.0
H463 H 0.33091 0.5493 0.07726 0.0
H464 H 0.40991 0.46815 0.95335 0.0
H465 H 0.43437 0.51154 0.97205 0.0
H466 H 0.43575 0.5513 1.00381 0.0
H467 H 0.41421 0.57347 0.03783 0.0
Mn468 Mn 0.80333 0.22853 0.04459 0.0
Mn469 Mn 0.79112 0.18167 0.99327 0.0
C470 C 0.75996 0.20199 0.03341 0.0
C471 C 0.81573 0.24138 0.09137 0.0
C472 C 0.79769 0.23891 0.98467 0.0
O473 O 0.84185 0.22165 0.03945 0.0
O474 O 0.83027 0.19008 1.006 0.0
C475 C 0.8062 0.13889 0.02314 0.0
N476 N 0.78762 0.1486 1.00716 0.0
C477 C 0.75531 0.10888 1.00479 0.0
C478 C 0.77414 0.09843 0.02114 0.0
C479 C 0.79965 0.11355 0.03043 0.0
C480 C 0.7629 0.13433 0.99838 0.0
H481 H 0.82587 0.1504 0.03028 0.0
C482 C 0.84783 0.20471 0.02287 0.0
O483 O 0.81772 0.25798 0.07366 0.0
O484 O 0.80731 0.21763 0.0819 0.0
N485 N 0.75365 0.1712 0.97921 0.0
C486 C 0.73756 0.18433 0.96413 0.0
C487 C 0.71137 0.17192 0.95318 0.0
C488 C 0.70212 0.14604 0.95756 0.0
C489 C 0.7191 0.13283 0.97299 0.0
C490 C 0.74505 0.14618 0.98327 0.0
H491 H 0.74471 0.20406 0.96033 0.0
O492 O 0.76237 0.22449 0.04631 0.0
O493 O 0.7825 0.19645 0.02673 0.0
O494 O 0.80122 0.24742 1.00927 0.0
O495 O 0.79379 0.21488 0.97696 0.0
C496 C 0.71119 0.10705 0.97879 0.0
C497 C 0.72922 0.09514 0.99483 0.0
H498 H 0.76917 0.07887 0.02677 0.0
H499 H 0.81425 0.10565 0.04313 0.0
H500 H 0.69838 0.18225 0.9413 0.0
H501 H 0.68186 0.13656 0.94919 0.0
H502 H 0.69116 0.09633 0.97132 0.0
H503 H 0.72276 0.07543 0.99947 0.0
Mn504 Mn 0.16037 0.50388 0.26015 0.0
Mn505 Mn 0.2067 0.53925 0.3068 0.0
C506 C 0.17856 0.54607 0.2549 0.0
C507 C 0.14629 0.48116 0.21928 0.0
C508 C 0.14654 0.53202 0.30976 0.0
O509 O 0.17373 0.47542 0.28024 0.0
O510 O 0.19893 0.50209 0.31333 0.0
C511 C 0.25305 0.51464 0.29329 0.0
N512 N 0.24204 0.53631 0.29721 0.0
C513 C 0.28332 0.56346 0.2885 0.0
C514 C 0.29504 0.54143 0.28448 0.0
C515 C 0.27981 0.51692 0.28683 0.0
C516 C 0.25647 0.55999 0.29475 0.0
H517 H 0.24161 0.49573 0.29506 0.0
C518 C 0.1885 0.47942 0.30259 0.0
O519 O 0.13017 0.48019 0.23762 0.0
O520 O 0.17168 0.49112 0.22653 0.0
N521 N 0.21733 0.57554 0.30346 0.0
C522 C 0.2036 0.59505 0.30892 0.0
C523 C 0.21621 0.62083 0.30798 0.0
C524 C 0.24311 0.6264 0.30194 0.0
C525 C 0.2572 0.60611 0.29715 0.0
C526 C 0.24358 0.58077 0.29852 0.0
H527 H 0.18311 0.59098 0.31385 0.0
O528 O 0.15458 0.5358 0.24346 0.0
O529 O 0.19132 0.53179 0.26974 0.0
O530 O 0.14022 0.51421 0.29091 0.0
O531 O 0.17085 0.54395 0.31695 0.0
C532 C 0.28423 0.61006 0.291 0.0
C533 C 0.29722 0.58873 0.28656 0.0
H534 H 0.31572 0.54311 0.27956 0.0
H535 H 0.2887 0.4998 0.28372 0.0
H536 H 0.20522 0.63637 0.31187 0.0
H537 H 0.25273 0.6463 0.30104 0.0
H538 H 0.29516 0.62939 0.28958 0.0
H539 H 0.318 0.592 0.28175 0.0
Mn540 Mn 0.82627 0.92715 0.56051 0.0
Mn541 Mn 0.83062 0.97275 0.51491 0.0
C542 C 0.87157 0.95085 0.55186 0.0
C543 C 0.82337 0.90938 0.6068 0.0
C544 C 0.82165 0.91454 0.49653 0.0
O545 O 0.78618 0.93984 0.5572 0.0
O546 O 0.79225 0.96839 0.52653 0.0
C547 C 0.82616 1.01768 0.5513 0.0
N548 N 0.83993 1.00637 0.53355 0.0
C549 C 0.87489 0.0443 0.53704 0.0
C550 C 0.86092 0.0564 0.55513 0.0
C551 C 0.83651 0.04299 0.56236 0.0
C552 C 0.86364 1.01901 0.52672 0.0
H553 H 0.80745 1.00751 0.55708 0.0
C554 C 0.77714 0.95726 0.54294 0.0
O555 O 0.81558 0.89591 0.58436 0.0
O556 O 0.83146 0.93347 0.60268 0.0
N557 N 0.86518 0.98088 0.50167 0.0
C558 C 0.87665 0.96637 0.48443 0.0
C559 C 0.90132 0.97698 0.47547 0.0
C560 C 0.91383 1.00249 0.48401 0.0
C561 C 0.90145 1.01723 0.50133 0.0
C562 C 0.87678 1.00567 0.50954 0.0
H563 H 0.86722 0.94678 0.4776 0.0
O564 O 0.86805 0.92864 0.56184 0.0
O565 O 0.8482 0.95874 0.54683 0.0
O566 O 0.82144 0.90743 0.52056 0.0
O567 O 0.82247 0.93846 0.49253 0.0
C568 C 0.91288 0.04281 0.51112 0.0
C569 C 0.89968 0.05629 0.52906 0.0
H570 H 0.86884 0.07592 0.56371 0.0
H571 H 0.82568 0.05213 0.57643 0.0
H572 H 0.91071 0.96548 0.46205 0.0
H573 H 0.93298 1.01052 0.47724 0.0
H574 H 0.93202 0.05217 0.50526 0.0
H575 H 0.90886 0.07583 0.53672 0.0
Mn576 Mn 0.93062 0.02725 0.22599 0.0
Mn577 Mn 0.87003 1.00337 0.24718 0.0
C578 C 0.91702 0.98299 0.22661 0.0
C579 C 0.9599 0.04326 0.19652 0.0
C580 C 0.9206 0.02574 0.2841 0.0
O581 O 0.91119 0.05808 0.22432 0.0
O582 O 0.87234 0.03955 0.23865 0.0
C583 C 0.8371 1.00449 0.19579 0.0
N584 N 0.8442 0.99147 0.21684 0.0
C585 C 0.81103 0.95387 0.20008 0.0
C586 C 0.80321 0.96693 0.17832 0.0
C587 C 0.81645 0.99229 0.17607 0.0
C588 C 0.83215 0.96683 0.2188 0.0
H589 H 0.84711 0.02403 0.19406 0.0
C590 C 0.88721 0.05863 0.2301 0.0
O591 O 0.96541 0.04911 0.22162 0.0
O592 O 0.9367 0.02837 0.18791 0.0
N593 N 0.86302 0.96843 0.25646 0.0
C594 C 0.87205 0.95896 0.27928 0.0
C595 C 0.85977 0.93442 0.28544 0.0
C596 C 0.83807 0.91993 0.26824 0.0
C597 C 0.8288 0.93015 0.24506 0.0
C598 C 0.84151 0.95493 0.24023 0.0
H599 H 0.88843 0.97008 0.29281 0.0
O600 O 0.94249 0.99311 0.22682 0.0
O601 O 0.8997 0.9988 0.2254 0.0
O602 O 0.93494 0.03161 0.26569 0.0
O603 O 0.8957 1.0145 0.27995 0.0
C604 C 0.80728 0.91682 0.22667 0.0
C605 C 0.79862 0.92856 0.20403 0.0
H606 H 0.78708 0.95767 0.16322 0.0
H607 H 0.81061 1.00247 0.15929 0.0
H608 H 0.86701 0.9267 0.30341 0.0
H609 H 0.82876 0.90094 0.27297 0.0
H610 H 0.79728 0.89753 0.22973 0.0
H611 H 0.78216 0.91806 0.18994 0.0
Mn612 Mn 0.29782 0.73135 0.53986 0.0
Mn613 Mn 0.28648 0.68428 0.48881 0.0
C614 C 0.25438 0.70457 0.52793 0.0
C615 C 0.3092 0.74459 0.58675 0.0
C616 C 0.2948 0.7416 0.47974 0.0
O617 O 0.33642 0.72406 0.5359 0.0
O618 O 0.32539 0.69205 0.50271 0.0
C619 C 0.29952 0.64095 0.51896 0.0
N620 N 0.28173 0.65112 0.50251 0.0
C621 C 0.24871 0.61177 0.49881 0.0
C622 C 0.26671 0.60085 0.51563 0.0
C623 C 0.29218 0.61555 0.52583 0.0
C624 C 0.25706 0.63724 0.49283 0.0
H625 H 0.31915 0.65215 0.52676 0.0
C626 C 0.34259 0.7068 0.51983 0.0
O627 O 0.31184 0.76098 0.56889 0.0
O628 O 0.30061 0.72081 0.5774 0.0
N629 N 0.24924 0.67461 0.47378 0.0
C630 C 0.23373 0.68842 0.4589 0.0
C631 C 0.20758 0.67657 0.44731 0.0
C632 C 0.19772 0.65061 0.45098 0.0
C633 C 0.21404 0.63678 0.4664 0.0
C634 C 0.23999 0.64958 0.47734 0.0
H635 H 0.24128 0.70832 0.45586 0.0
O636 O 0.25651 0.72723 0.54044 0.0
O637 O 0.27716 0.69922 0.52183 0.0
O638 O 0.29752 0.75015 0.50433 0.0
O639 O 0.29056 0.71747 0.47239 0.0
C640 C 0.2054 0.61096 0.47171 0.0
C641 C 0.22267 0.5985 0.48803 0.0
H642 H 0.26113 0.58125 0.52097 0.0
H643 H 0.30615 0.60729 0.5389 0.0
H644 H 0.19505 0.6874 0.43555 0.0
H645 H 0.17747 0.64158 0.44214 0.0
H646 H 0.18535 0.60064 0.4637 0.0
H647 H 0.21563 0.57879 0.49233 0.0
Mn648 Mn 0.44512 0.53501 0.75001 0.0
Mn649 Mn 0.40235 0.50743 0.7916 0.0
C650 C 0.4287 0.49104 0.74436 0.0
C651 C 0.45706 0.55728 0.714 0.0
C652 C 0.46313 0.51984 0.80502 0.0
O653 O 0.43311 0.56611 0.76749 0.0
O654 O 0.40612 0.54553 0.7946 0.0
C655 C 0.35237 0.52137 0.76462 0.0
N656 N 0.3658 0.50329 0.77499 0.0
C657 C 0.32504 0.47102 0.76821 0.0
C658 C 0.31072 0.48928 0.75746 0.0
C659 C 0.32451 0.51452 0.75546 0.0
C660 C 0.35294 0.47879 0.77627 0.0
H661 H 0.36282 0.5409 0.76351 0.0
C662 C 0.41743 0.56613 0.78549 0.0
O663 O 0.47376 0.55792 0.73517 0.0
O664 O 0.43255 0.54411 0.71382 0.0
N665 N 0.3955 0.47067 0.7925 0.0
C666 C 0.41211 0.45554 0.80394 0.0
C667 C 0.40131 0.43 0.80835 0.0
C668 C 0.37339 0.42044 0.80163 0.0
C669 C 0.35655 0.43646 0.79033 0.0
C670 C 0.3685 0.46171 0.78628 0.0
H671 H 0.43345 0.46295 0.80984 0.0
O672 O 0.45066 0.501 0.73473 0.0
O673 O 0.41589 0.5071 0.75637 0.0
O674 O 0.46771 0.53035 0.78394 0.0
O675 O 0.43935 0.51025 0.81016 0.0
C676 C 0.32835 0.42839 0.783 0.0
C677 C 0.31268 0.44554 0.77157 0.0
H678 H 0.28914 0.48418 0.75078 0.0
H679 H 0.3136 0.52873 0.74721 0.0
H680 H 0.41443 0.41779 0.81716 0.0
H681 H 0.36511 0.40077 0.80518 0.0
H682 H 0.31858 0.40893 0.78576 0.0
H683 H 0.2911 0.43901 0.7657 0.0
Mn684 Mn 0.66391 0.03692 0.72814 0.0
Mn685 Mn 0.70818 0.08662 0.76241 0.0
C686 C 0.6645 0.07839 0.71601 0.0
C687 C 0.65078 1.00422 0.69414 0.0
C688 C 0.65481 0.0639 0.78078 0.0
O689 O 0.69093 1.01831 0.74787 0.0
O690 O 0.71774 0.05277 0.77093 0.0
C691 C 0.75625 0.07877 0.73592 0.0
N692 N 0.73928 0.09457 0.74388 0.0
C693 C 0.76772 0.13193 0.73069 0.0
C694 C 0.78556 0.1161 0.72238 0.0
C695 C 0.77966 0.08936 0.7248 0.0
C696 C 0.74435 0.12016 0.74095 0.0
H697 H 0.75203 0.0583 0.7382 0.0
C698 C 0.71111 0.02844 0.7647 0.0
O699 O 0.63887 1.00399 0.71547 0.0
O700 O 0.67174 0.02233 0.6935 0.0
N701 N 0.70293 0.12114 0.75726 0.0
C702 C 0.68333 0.13364 0.76565 0.0
C703 C 0.68635 0.16056 0.76499 0.0
C704 C 0.70978 0.17443 0.75633 0.0
C705 C 0.72964 0.1612 0.74773 0.0
C706 C 0.72542 0.13434 0.74864 0.0
H707 H 0.6656 0.12315 0.77291 0.0
O708 O 0.6432 0.06055 0.70958 0.0
O709 O 0.68556 0.07159 0.72915 0.0
O710 O 0.64809 0.04572 0.76231 0.0
O711 O 0.67677 0.08049 0.78262 0.0
C712 C 0.75349 0.17362 0.73832 0.0
C713 C 0.77232 0.15895 0.72944 0.0
H714 H 0.80385 0.12425 0.71416 0.0
H715 H 0.79332 0.07701 0.71844 0.0
H716 H 0.67087 0.17066 0.77154 0.0
H717 H 0.71237 0.19523 0.75641 0.0
H718 H 0.75728 0.19439 0.73737 0.0
H719 H 0.79034 0.16865 0.72182 0.0
Mn720 Mn 0.85096 0.68656 0.05066 0.0
Mn721 Mn 0.83964 0.63815 1.00092 0.0
C722 C 0.80381 0.662 0.03708 0.0
C723 C 0.85619 0.70522 0.09932 0.0
C724 C 0.85146 0.69596 0.98771 0.0
O725 O 0.89079 0.67325 0.05049 0.0
O726 O 0.8796 0.64152 1.01741 0.0
C727 C 0.84567 0.59443 0.03351 0.0
N728 N 0.83028 0.60583 1.01581 0.0
C729 C 0.79198 0.57127 1.01532 0.0
C730 C 0.80753 0.55911 0.03333 0.0
C731 C 0.83448 0.57076 0.04247 0.0
C732 C 0.80426 0.5948 1.00698 0.0
H733 H 0.86628 0.60335 0.04093 0.0
C734 C 0.89742 0.65405 0.03604 0.0
O735 O 0.86364 0.71839 0.07994 0.0
O736 O 0.84809 0.68103 0.09102 0.0
N737 N 0.80292 0.63128 0.98385 0.0
C738 C 0.79035 0.64561 0.96681 0.0
C739 C 0.76333 0.63645 0.95572 0.0
C740 C 0.74944 0.61271 0.9623 0.0
C741 C 0.76278 0.59822 0.97974 0.0
C742 C 0.7899 0.6081 0.98981 0.0
H743 H 0.80073 0.66395 0.96171 0.0
O744 O 0.80897 0.68561 0.04767 0.0
O745 O 0.82662 0.65412 0.03284 0.0
O746 O 0.85379 0.70447 1.01268 0.0
O747 O 0.8477 0.67132 0.9818 0.0
C748 C 0.75011 0.57451 0.98775 0.0
C749 C 0.76467 0.56109 1.00559 0.0
H750 H 0.79893 0.54091 0.04041 0.0
H751 H 0.84656 0.56158 0.05651 0.0
H752 H 0.75317 0.64777 0.9423 0.0
H753 H 0.72848 0.60588 0.95398 0.0
H754 H 0.72909 0.56653 0.98046 0.0
H755 H 0.75463 0.54298 1.01178 0.0
Mn756 Mn 1.01144 0.62378 0.83105 0.0
Mn757 Mn 0.96001 0.62859 0.86718 0.0
C758 C 0.98945 0.58775 0.84804 0.0
C759 C 1.02757 0.61615 0.79128 0.0
C760 C 1.01957 0.64451 0.88874 0.0
O761 O 1.00075 0.65727 0.82086 0.0
O762 O 0.96588 0.65855 0.84514 0.0
C763 C 0.91431 0.62317 0.82427 0.0
N764 N 0.92584 0.61481 0.8467 0.0
C765 C 0.88747 0.58045 0.84668 0.0
C766 C 0.87515 0.58882 0.8237 0.0
C767 C 0.88864 0.61026 0.81245 0.0
C768 C 0.91293 0.59429 0.8578 0.0
H769 H 0.92458 0.63952 0.81538 0.0
C770 C 0.98099 0.66732 0.8278 0.0
O771 O 0.04352 0.62901 0.81117 0.0
O772 O 1.00212 0.60895 0.79424 0.0
N773 N 0.95178 0.60016 0.8883 0.0
C774 C 0.96734 0.59319 0.90919 0.0
C775 C 0.95725 0.57142 0.92198 0.0
C776 C 0.93131 0.55698 0.91317 0.0
C777 C 0.91568 0.56446 0.89162 0.0
C778 C 0.92669 0.5865 0.87979 0.0
H779 H 0.98743 0.60395 0.91589 0.0
O780 O 1.01419 0.58899 0.84229 0.0
O781 O 0.97833 0.60795 0.84396 0.0
O782 O 1.02909 0.63964 0.86727 0.0
O783 O 0.9941 0.64223 0.8905 0.0
C784 C 0.88988 0.55054 0.88103 0.0
C785 C 0.87578 0.55854 0.8586 0.0
H786 H 0.85547 0.57876 0.81436 0.0
H787 H 0.87933 0.61676 0.79462 0.0
H788 H 0.96953 0.56568 0.9385 0.0
H789 H 0.92371 0.54004 0.92293 0.0
H790 H 0.88087 0.53341 0.88976 0.0
H791 H 0.85612 0.54746 0.85042 0.0
Mn792 Mn 0.85319 0.40548 0.55959 0.0
Mn793 Mn 0.86061 0.45756 0.52335 0.0
C794 C 0.89689 0.42879 0.55505 0.0
C795 C 0.84836 0.3897 0.60274 0.0
C796 C 0.84389 0.40204 0.49772 0.0
O797 O 0.81554 0.41654 0.55776 0.0
O798 O 0.82442 0.45274 0.53634 0.0
C799 C 0.86084 0.4991 0.56533 0.0
N800 N 0.87312 0.48871 0.54575 0.0
C801 C 0.90998 0.52512 0.55121 0.0
C802 C 0.89767 0.53627 0.57136 0.0
C803 C 0.87306 0.52314 0.57853 0.0
C804 C 0.89693 0.50105 0.53887 0.0
H805 H 0.84185 0.48912 0.5708 0.0
C806 C 0.80889 0.43698 0.5486 0.0
O807 O 0.8408 0.37469 0.58107 0.0
O808 O 0.85822 0.41336 0.59921 0.0
N809 N 0.89505 0.4647 0.50987 0.0
C810 C 0.90509 0.45059 0.49117 0.0
C811 C 0.93001 0.46065 0.48233 0.0
C812 C 0.94417 0.48522 0.49256 0.0
C813 C 0.93337 0.49943 0.51169 0.0
C814 C 0.90847 0.4884 0.51976 0.0
H815 H 0.89416 0.43182 0.48302 0.0
O816 O 0.8939 0.40505 0.56125 0.0
O817 O 0.87442 0.43755 0.55092 0.0
O818 O 0.84577 0.39025 0.5191 0.0
O819 O 0.84824 0.42669 0.49821 0.0
C820 C 0.94654 0.52394 0.52336 0.0
C821 C 0.93492 0.53672 0.54319 0.0
H822 H 0.90704 0.5548 0.5816 0.0
H823 H 0.86349 0.53157 0.59413 0.0
H824 H 0.93826 0.44953 0.46762 0.0
H825 H 0.96346 0.49286 0.48579 0.0
H826 H 0.96587 0.53291 0.51758 0.0
H827 H 0.94549 0.55533 0.55236 0.0
Mn828 Mn 0.72351 0.59966 0.37389 0.0
Mn829 Mn 0.77545 0.62286 0.42069 0.0
C830 C 0.73803 0.64358 0.38151 0.0
C831 C 0.70679 0.58356 0.33124 0.0
C832 C 0.71892 0.59906 0.43217 0.0
O833 O 0.74192 0.56894 0.38028 0.0
O834 O 0.77975 0.58758 0.40721 0.0
C835 C 0.82218 0.62753 0.38937 0.0
N836 N 0.80647 0.63879 0.40517 0.0
C837 C 0.83276 0.68099 0.40222 0.0
C838 C 0.84929 0.66982 0.38605 0.0
C839 C 0.84397 0.64298 0.37961 0.0
C840 C 0.81156 0.66458 0.41168 0.0
H841 H 0.818 0.60694 0.3841 0.0
C842 C 0.76534 0.56836 0.39248 0.0
O843 O 0.69297 0.57808 0.35083 0.0
O844 O 0.73077 0.59792 0.33653 0.0
N845 N 0.77317 0.65719 0.43394 0.0
C846 C 0.75412 0.66516 0.44809 0.0
C847 C 0.75588 0.69162 0.45527 0.0
C848 C 0.77712 0.70962 0.44775 0.0
C849 C 0.79647 0.70098 0.43315 0.0
C850 C 0.79387 0.67434 0.42684 0.0
H851 H 0.73757 0.65147 0.45369 0.0
O852 O 0.71345 0.63448 0.37047 0.0
O853 O 0.75272 0.62645 0.38812 0.0
O854 O 0.70811 0.59711 0.40844 0.0
O855 O 0.74432 0.60727 0.4391 0.0
C856 C 0.81784 0.71782 0.42409 0.0
C857 C 0.83599 0.70783 0.40865 0.0
H858 H 0.86589 0.68171 0.37817 0.0
H859 H 0.85652 0.63424 0.36698 0.0
H860 H 0.74078 0.69815 0.46641 0.0
H861 H 0.77823 0.73004 0.45307 0.0
H862 H 0.82028 0.73852 0.42857 0.0
H863 H 0.85209 0.721 0.40147 0.0
Tb864 Tb 0.04275 0.05352 0.02812 0.0
Eu865 Eu 0.10405 0.07398 0.06239 0.0
C866 C 0.09717 0.04535 1.00802 0.0
C867 C 0.06715 1.01794 0.06683 0.0
C868 C 0.97851 0.06769 1.00359 0.0
C869 C 0.94368 0.0894 0.98311 0.0
C870 C 0.95812 0.06879 0.98299 0.0
C871 C 0.9841 0.08742 0.02428 0.0
C872 C 0.97006 0.10812 0.02428 0.0
C873 C 0.94968 0.10956 1.00364 0.0
C874 C 0.99624 0.04801 1.00263 0.0
O875 O 0.03633 0.06536 0.06806 0.0
O876 O 0.07634 0.09236 0.08659 0.0
O877 O 0.09711 0.10227 0.03172 0.0
O878 O 0.05178 0.09506 0.03386 0.0
C879 C 0.05023 0.08281 0.08631 0.0
O880 O 0.13472 0.07532 0.09642 0.0
O881 O 0.14686 0.08935 0.05982 0.0
O882 O 0.10338 0.04119 0.03245 0.0
O883 O 0.07441 0.0538 1.00178 0.0
O884 O 0.05337 1.01832 0.0434 0.0
O885 O 0.0831 0.03863 0.07909 0.0
C886 C 0.07305 0.10814 0.02525 0.0
O887 O 1.01865 0.05513 0.9922 0.0
O888 O 1.00101 0.03735 0.02459 0.0
C889 C 0.17479 0.06388 0.08157 0.0
C890 C 0.21036 0.02925 0.07077 0.0
C891 C 0.21867 0.0561 0.07015 0.0
C892 C 0.20108 0.07321 0.07552 0.0
C893 C 0.16672 0.03711 0.08312 0.0
C894 C 0.18445 0.01998 0.07799 0.0
C895 C 0.15491 0.08159 0.08255 0.0
H896 H 0.92781 0.08947 0.96707 0.0
H897 H 0.95364 0.05396 0.96666 0.0
H898 H 0.99998 0.08722 0.04021 0.0
H899 H 0.97575 0.1233 0.04019 0.0
H900 H 0.23861 0.06383 0.06483 0.0
H901 H 0.20765 0.09367 0.07391 0.0
H902 H 0.14634 0.0293 0.08727 0.0
H903 H 0.1774 0.99942 0.07839 0.0
Tb904 Tb 0.34696 0.85611 0.31601 0.0
Eu905 Eu 0.31493 0.80508 0.27887 0.0
C906 C 0.29275 0.85843 0.2848 0.0
C907 C 0.31053 0.80949 0.34217 0.0
C908 C 0.40087 0.91002 0.35062 0.0
C909 C 0.43461 0.94025 0.3799 0.0
C910 C 0.41001 0.9228 0.37566 0.0
C911 C 0.41729 0.91361 0.33014 0.0
C912 C 0.44189 0.93115 0.33433 0.0
C913 C 0.45036 0.94519 0.35906 0.0
C914 C 0.37381 0.89372 0.34634 0.0
O915 O 0.37586 0.83144 0.30722 0.0
O916 O 0.34824 0.79226 0.30499 0.0
O917 O 0.34415 0.82537 0.25298 0.0
O918 O 0.35264 0.86596 0.27477 0.0
C919 C 0.37204 0.80701 0.31201 0.0
O920 O 0.31284 0.77072 0.2521 0.0
O921 O 0.27585 0.78552 0.2588 0.0
O922 O 0.29771 0.84013 0.26853 0.0
O923 O 0.30521 0.86242 0.30888 0.0
O924 O 0.32986 0.83023 0.34496 0.0
O925 O 0.29916 0.7992 0.31852 0.0
C926 C 0.35179 0.85051 0.25292 0.0
O927 O 0.35812 0.89625 0.32503 0.0
O928 O 0.37288 0.86962 0.35083 0.0
C929 C 0.27064 0.74136 0.24539 0.0
C930 C 0.2391 0.69172 0.24157 0.0
C931 C 0.26452 0.69721 0.25719 0.0
C932 C 0.28018 0.72195 0.25919 0.0
C933 C 0.24535 0.73588 0.22974 0.0
C934 C 0.2296 0.71123 0.22792 0.0
C935 C 0.28632 0.76756 0.24688 0.0
H936 H 0.44041 0.95105 0.39901 0.0
H937 H 0.39761 0.92002 0.39172 0.0
H938 H 0.41066 0.90357 0.31077 0.0
H939 H 0.45375 0.93458 0.31798 0.0
H940 H 0.27204 0.68247 0.26818 0.0
H941 H 0.29958 0.72591 0.27153 0.0
H942 H 0.23776 0.75072 0.21897 0.0
H943 H 0.21012 0.70737 0.2157 0.0
Tb944 Tb 0.5741 0.03613 0.51362 0.0
Eu945 Eu 0.59695 0.06968 0.56716 0.0
C946 C 0.56937 1.01329 0.56773 0.0
C947 C 0.53703 0.07906 0.53699 0.0
C948 C 0.55377 0.98082 0.46216 0.0
C949 C 0.58027 0.9473 0.45371 0.0
C950 C 0.5787 0.97197 0.46452 0.0
C951 C 0.53053 0.96473 0.4489 0.0
C952 C 0.53209 0.94008 0.43802 0.0
C953 C 0.55695 0.93105 0.44042 0.0
C954 C 0.55151 1.00649 0.47378 0.0
O955 O 0.59423 0.07159 0.49963 0.0
O956 O 0.6059 0.09844 0.53791 0.0
O957 O 0.63016 0.04252 0.56021 0.0
O958 O 0.61636 0.0261 0.51753 0.0
C959 C 0.60432 0.09419 0.51235 0.0
O960 O 0.63308 0.08795 0.59333 0.0
O961 O 0.5935 0.086 0.60692 0.0
O962 O 0.56615 0.03634 0.57573 0.0
O963 O 0.57832 1.01012 0.54489 0.0
O964 O 0.53961 0.05842 0.52113 0.0
O965 O 0.55781 0.0882 0.55566 0.0
C966 C 0.63488 0.02856 0.53874 0.0
O967 O 0.54181 1.00705 0.49647 0.0
O968 O 0.57241 0.02486 0.47332 0.0
C969 C 0.62694 0.12392 0.62022 0.0
C970 C 0.64201 0.17798 0.63118 0.0
C971 C 0.61456 0.16593 0.62964 0.0
C972 C 0.60708 0.13917 0.62413 0.0
C973 C 0.65448 0.13585 0.62294 0.0
C974 C 0.66191 0.16262 0.62807 0.0
C975 C 0.61936 0.09607 0.61143 0.0
H976 H 0.59973 0.94091 0.45579 0.0
H977 H 0.59689 0.98405 0.47486 0.0
H978 H 0.51109 0.97118 0.44719 0.0
H979 H 0.51368 0.92783 0.42836 0.0
H980 H 0.59873 0.17729 0.63176 0.0
H981 H 0.58569 0.1306 0.62224 0.0
H982 H 0.67026 0.12453 0.62038 0.0
H983 H 0.68324 0.1713 0.62957 0.0
Tb984 Tb 0.30936 0.31116 0.78017 0.0
Eu985 Eu 0.37063 0.30443 0.79625 0.0
C986 C 0.35605 0.35074 0.76107 0.0
C987 C 0.34222 0.28236 0.7355 0.0
C988 C 0.23636 0.30166 0.78353 0.0
C989 C 0.22006 0.28699 0.82401 0.0
C990 C 0.24146 0.29707 0.81019 0.0
C991 C 0.20967 0.29666 0.77097 0.0
C992 C 0.18824 0.28668 0.78479 0.0
C993 C 0.19326 0.28137 0.81133 0.0
C994 C 0.25908 0.30914 0.76827 0.0
O995 O 0.30733 0.28197 0.80865 0.0
O996 O 0.3471 0.26726 0.80583 0.0
O997 O 0.35719 0.32271 0.83513 0.0
O998 O 0.31652 0.33388 0.82032 0.0
C999 C 0.32276 0.26468 0.81308 0.0
O1000 O 0.40431 0.28307 0.80018 0.0
O1001 O 0.41046 0.32307 0.81587 0.0
O1002 O 0.37392 0.33696 0.7699 0.0
O1003 O 0.33039 0.34535 0.76494 0.0
O1004 O 0.32089 0.29257 0.74217 0.0
O1005 O 0.36357 0.28393 0.75357 0.0
C1006 C 0.33631 0.33434 0.84 0.0
O1007 O 0.27591 0.33039 0.77708 0.0
O1008 O 0.27186 0.2904 0.76229 0.0
C1009 C 0.44513 0.30962 0.79343 0.0
C1010 C 0.48383 0.31753 0.75736 0.0
C1011 C 0.46864 0.33674 0.76331 0.0
C1012 C 0.44947 0.33282 0.78113 0.0
C1013 C 0.46095 0.29077 0.78823 0.0
C1014 C 0.48013 0.29466 0.77029 0.0
C1015 C 0.42206 0.30372 0.80895 0.0
H1016 H 0.22457 0.28298 0.84435 0.0
H1017 H 0.26206 0.30068 0.82012 0.0
H1018 H 0.20548 0.29998 0.75037 0.0
H1019 H 0.16772 0.28303 0.77466 0.0
H1020 H 0.47087 0.35445 0.75348 0.0
H1021 H 0.43743 0.34765 0.78454 0.0
H1022 H 0.45783 0.27269 0.79739 0.0
H1023 H 0.49185 0.27968 0.76631 0.0
Tb1024 Tb 0.08507 0.03812 0.51468 0.0
Eu1025 Eu 0.08773 0.06791 0.56736 0.0
C1026 C 0.14427 0.07274 0.53889 0.0
C1027 C 0.09061 1.00378 0.56672 0.0
C1028 C 0.07187 1.01974 0.44258 0.0
C1029 C 0.04176 1.00541 0.40224 0.0
C1030 C 0.05776 0.99976 0.42431 0.0
C1031 C 0.07213 0.04555 0.43714 0.0
C1032 C 0.05618 0.05124 0.41494 0.0
C1033 C 0.03974 0.03113 0.39814 0.0
C1034 C 0.07814 1.01344 0.46969 0.0
O1035 O 0.04399 0.02264 0.52754 0.0
O1036 O 0.04102 0.05645 0.55552 0.0
O1037 O 0.0868 0.10236 0.53985 0.0
O1038 O 0.07744 0.07739 0.50102 0.0
C1039 C 1.0289 0.03435 0.54238 0.0
O1040 O 0.06911 0.07545 0.60314 0.0
O1041 O 0.1084 0.09727 0.5982 0.0
O1042 O 0.1338 0.07227 0.56165 0.0
O1043 O 0.12791 0.06164 0.51757 0.0
O1044 O 0.09442 1.00647 0.54135 0.0
O1045 O 0.08729 0.02518 0.58056 0.0
C1046 C 0.08209 0.10122 0.51363 0.0
O1047 O 0.10214 0.02264 0.48234 0.0
O1048 O 0.05888 1.01646 0.484 0.0
C1049 C 0.10155 0.08419 0.64011 0.0
C1050 C 0.12251 0.07051 0.68908 0.0
C1051 C 0.10277 0.08652 0.68761 0.0
C1052 C 0.09238 0.09337 0.6632 0.0
C1053 C 0.12065 0.06758 0.64146 0.0
C1054 C 0.13123 0.06093 0.66583 0.0
C1055 C 0.09061 0.09113 0.61451 0.0
H1056 H 1.02971 0.9896 0.38921 0.0
H1057 H 0.05706 0.97974 0.42837 0.0
H1058 H 0.0827 0.0612 0.4512 0.0
H1059 H 0.05509 0.07124 0.41208 0.0
H1060 H 0.096 0.09434 0.70537 0.0
H1061 H 0.07742 0.10597 0.66236 0.0
H1062 H 0.12756 0.05995 0.62367 0.0
H1063 H 0.14633 0.04847 0.66655 0.0
Tb1064 Tb 0.32245 0.78591 0.79835 0.0
Eu1065 Eu 0.34243 0.84457 0.79098 0.0
C1066 C 0.32703 0.82811 0.84674 0.0
C1067 C 0.27778 0.8179 0.76991 0.0
C1068 C 0.31836 0.71993 0.82026 0.0
C1069 C 0.31725 0.67447 0.82547 0.0
C1070 C 0.30387 0.6946 0.81847 0.0
C1071 C 0.34567 0.72536 0.83151 0.0
C1072 C 0.35915 0.70521 0.83821 0.0
C1073 C 0.34534 0.6795 0.83399 0.0
C1074 C 0.30686 0.73911 0.8054 0.0
O1075 O 0.32427 0.786 0.75551 0.0
O1076 O 0.35207 0.82465 0.75289 0.0
O1077 O 0.38104 0.8329 0.81285 0.0
O1078 O 0.3681 0.789 0.81035 0.0
C1079 C 0.33861 0.80221 0.74158 0.0
O1080 O 0.34149 0.87951 0.77036 0.0
O1081 O 0.36712 0.88158 0.80721 0.0
O1082 O 0.3222 0.84408 0.82892 0.0
O1083 O 0.33185 0.80531 0.83871 0.0
O1084 O 0.28215 0.79788 0.78354 0.0
O1085 O 0.29852 0.83708 0.76945 0.0
C1086 C 0.38715 0.80999 0.81771 0.0
O1087 O 0.29949 0.75813 0.81886 0.0
O1088 O 0.32063 0.74706 0.78634 0.0
C1089 C 0.3416 0.91426 0.80149 0.0
C1090 C 0.31524 0.95048 0.82654 0.0
C1091 C 0.34178 0.95797 0.81977 0.0
C1092 C 0.35488 0.93994 0.80731 0.0
C1093 C 0.31526 0.90672 0.80845 0.0
C1094 C 0.30219 0.92464 0.82079 0.0
C1095 C 0.35549 0.89459 0.79005 0.0
H1096 H 0.30619 0.6548 0.82186 0.0
H1097 H 0.28283 0.69012 0.80967 0.0
H1098 H 0.35712 0.74487 0.83308 0.0
H1099 H 0.38077 0.70953 0.84491 0.0
H1100 H 0.35223 0.97782 0.82378 0.0
H1101 H 0.37535 0.94597 0.80238 0.0
H1102 H 0.30485 0.88684 0.80454 0.0
H1103 H 0.28195 0.91819 0.8261 0.0
Tb1104 Tb 0.5967 0.05486 0.06036 0.0
Eu1105 Eu 0.56445 0.06369 1.00639 0.0
C1106 C 0.58835 1.00789 1.01042 0.0
C1107 C 0.62707 0.09068 0.02116 0.0
C1108 C 0.6141 0.0488 0.13029 0.0
C1109 C 0.6254 0.06656 0.17583 0.0
C1110 C 0.63347 0.06084 0.1511 0.0
C1111 C 0.58676 0.04179 0.13462 0.0
C1112 C 0.57875 0.04737 0.15921 0.0
C1113 C 0.59788 0.06021 0.17991 0.0
C1114 C 0.62166 0.04648 0.10347 0.0
O1115 O 0.5856 0.09412 0.07273 0.0
O1116 O 0.56406 0.10239 0.03335 0.0
O1117 O 0.5359 0.03478 0.02512 0.0
O1118 O 0.55427 0.04464 0.0679 0.0
C1119 C 0.57364 0.11054 0.05859 0.0
O1120 O 0.53348 0.08122 0.98392 0.0
O1121 O 0.55416 0.05394 0.96444 0.0
O1122 O 0.58007 0.02495 0.9947 0.0
O1123 O 0.59437 1.0159 0.03619 0.0
O1124 O 0.62908 0.07393 0.03891 0.0
O1125 O 0.60417 0.09028 1.00631 0.0
C1126 C 0.53486 0.03222 0.0502 0.0
O1127 O 0.60628 0.02849 0.08731 0.0
O1128 O 0.6265 0.06816 0.09262 0.0
C1129 C 0.54376 0.0868 0.93999 0.0
C1130 C 0.56708 0.1002 0.89417 0.0
C1131 C 0.54011 0.08676 0.89239 0.0
C1132 C 0.52859 0.07993 0.91521 0.0
C1133 C 0.56902 0.10343 0.94199 0.0
C1134 C 0.58067 0.11006 0.91919 0.0
C1135 C 0.53773 0.0704 0.96139 0.0
H1136 H 0.64052 0.07634 0.19157 0.0
H1137 H 0.6546 0.0666 0.14798 0.0
H1138 H 0.57133 0.03284 0.11875 0.0
H1139 H 0.55734 0.04264 0.16167 0.0
H1140 H 0.52887 0.07948 0.87336 0.0
H1141 H 0.50909 0.06701 0.91333 0.0
H1142 H 0.58108 0.10877 0.961 0.0
H1143 H 0.60144 0.12047 0.92135 0.0
Tb1144 Tb 0.34691 0.32976 0.30389 0.0
Eu1145 Eu 0.32095 0.27879 0.27286 0.0
C1146 C 0.34303 0.27715 0.33731 0.0
C1147 C 0.38695 0.30346 0.26666 0.0
C1148 C 0.34555 0.38577 0.34769 0.0
C1149 C 0.30082 0.38211 0.36292 0.0
C1150 C 0.32312 0.37093 0.35722 0.0
C1151 C 0.34705 0.41257 0.34762 0.0
C1152 C 0.32509 0.4239 0.35407 0.0
C1153 C 0.30121 0.40846 0.36019 0.0
C1154 C 0.36166 0.37293 0.33026 0.0
O1155 O 0.34242 0.34244 0.26228 0.0
O1156 O 0.3125 0.30837 0.24125 0.0
O1157 O 0.28403 0.28648 0.29548 0.0
O1158 O 0.30279 0.32723 0.31208 0.0
C1159 C 0.32674 0.33203 0.24024 0.0
O1160 O 0.30982 0.25529 0.23502 0.0
O1161 O 0.30032 0.23859 0.27076 0.0
O1162 O 0.33642 0.26379 0.31373 0.0
O1163 O 0.34722 0.30287 0.33716 0.0
O1164 O 0.38472 0.3211 0.28608 0.0
O1165 O 0.36523 0.28503 0.25944 0.0
C1166 C 0.28197 0.30751 0.31039 0.0
O1167 O 0.36955 0.35183 0.3375 0.0
O1168 O 0.35071 0.36998 0.30584 0.0
C1169 C 0.32081 0.21429 0.24201 0.0
C1170 C 0.36146 0.18719 0.26043 0.0
C1171 C 0.33377 0.17643 0.26053 0.0
C1172 C 0.31354 0.19006 0.25159 0.0
C1173 C 0.34787 0.2224 0.23714 0.0
C1174 C 0.36812 0.20915 0.24659 0.0
C1175 C 0.30377 0.23394 0.2462 0.0
H1176 H 0.28263 0.36991 0.36771 0.0
H1177 H 0.32163 0.35024 0.35772 0.0
H1178 H 0.36395 0.42432 0.34003 0.0
H1179 H 0.32573 0.44427 0.35173 0.0
H1180 H 0.32786 0.15886 0.26997 0.0
H1181 H 0.29274 0.18324 0.2552 0.0
H1182 H 0.35405 0.24074 0.22916 0.0
H1183 H 0.38909 0.21794 0.24567 0.0
Tb1184 Tb 0.5882 0.54108 1.01767 0.0
Eu1185 Eu 0.58894 0.56813 0.0713 0.0
C1186 C 0.64619 0.57631 0.04496 0.0
C1187 C 0.58956 0.50445 0.07001 0.0
C1188 C 0.60527 0.52201 0.95068 0.0
C1189 C 0.60657 0.50313 0.90664 0.0
C1190 C 0.60827 0.50098 0.93377 0.0
C1191 C 0.60593 0.5464 0.94106 0.0
C1192 C 0.60402 0.54848 0.9139 0.0
C1193 C 0.60097 0.52608 0.8966 0.0
C1194 C 0.5944 0.51673 0.97555 0.0
O1195 O 0.54392 0.52698 0.02255 0.0
O1196 O 0.54283 0.5505 0.06109 0.0
O1197 O 0.58603 0.60257 0.04433 0.0
O1198 O 0.58232 0.58114 1.00375 0.0
C1199 C 0.52995 0.53316 0.04196 0.0
O1200 O 0.56798 0.57664 0.1053 0.0
O1201 O 0.60893 0.5964 0.1034 0.0
O1202 O 0.63543 0.57321 0.06735 0.0
O1203 O 0.6298 0.56742 0.023 0.0
O1204 O 0.58789 0.50639 0.0438 0.0
O1205 O 0.59256 0.52675 0.08477 0.0
C1206 C 0.58398 0.60381 1.01821 0.0
O1207 O 0.61185 0.5194 0.99678 0.0
O1208 O 0.57259 0.52634 0.9793 0.0
C1209 C 0.59773 0.58379 0.14433 0.0
C1210 C 0.6158 0.5708 0.19455 0.0
C1211 C 0.5981 0.5887 0.19174 0.0
C1212 C 0.58915 0.59521 0.1667 0.0
C1213 C 0.61445 0.5651 0.14703 0.0
C1214 C 0.62353 0.55873 0.172 0.0
C1215 C 0.58943 0.59127 0.11815 0.0
H1216 H 0.60467 0.48572 0.89355 0.0
H1217 H 0.60826 0.48212 0.94105 0.0
H1218 H 0.60417 0.56297 0.95406 0.0
H1219 H 0.6001 0.56649 0.90658 0.0
H1220 H 0.59212 0.59842 0.20893 0.0
H1221 H 0.57606 0.60951 0.16481 0.0
H1222 H 0.62098 0.55588 0.12985 0.0
H1223 H 0.63705 0.54479 0.17375 0.0
Tb1224 Tb 0.83025 0.28377 0.30365 0.0
Eu1225 Eu 0.84659 0.34246 0.29375 0.0
C1226 C 0.83044 0.32714 0.3504 0.0
C1227 C 0.78312 0.31258 0.27439 0.0
C1228 C 0.80662 0.21342 0.29191 0.0
C1229 C 0.80148 0.1669 0.28553 0.0
C1230 C 0.802 0.18922 0.30199 0.0
C1231 C 0.8079 0.21495 0.26473 0.0
C1232 C 0.80806 0.19274 0.2484 0.0
C1233 C 0.80609 0.16874 0.25903 0.0
C1234 C 0.81668 0.23645 0.31013 0.0
O1235 O 0.83219 0.28221 0.26065 0.0
O1236 O 0.85738 0.32191 0.25671 0.0
O1237 O 0.88611 0.33337 0.31658 0.0
O1238 O 0.87567 0.28942 0.31517 0.0
C1239 C 0.84525 0.29878 0.24612 0.0
O1240 O 0.84371 0.37601 0.27139 0.0
O1241 O 0.8705 0.38043 0.30779 0.0
O1242 O 0.8268 0.34294 0.332 0.0
O1243 O 0.8352 0.30398 0.34354 0.0
O1244 O 0.78946 0.29379 0.28886 0.0
O1245 O 0.80238 0.33266 0.27241 0.0
C1246 C 0.89356 0.3111 0.32188 0.0
O1247 O 0.84119 0.24764 0.30711 0.0
O1248 O 0.80059 0.25315 0.31285 0.0
C1249 C 0.84409 0.41217 0.30071 0.0
C1250 C 0.81801 0.44917 0.32463 0.0
C1251 C 0.84414 0.45647 0.31688 0.0
C1252 C 0.85712 0.43804 0.30497 0.0
C1253 C 0.81811 0.40484 0.30857 0.0
C1254 C 0.80516 0.42317 0.32035 0.0
C1255 C 0.85801 0.39222 0.29004 0.0
H1256 H 0.80017 0.14853 0.29413 0.0
H1257 H 0.80118 0.18774 0.32294 0.0
H1258 H 0.81136 0.23352 0.25669 0.0
H1259 H 0.8117 0.19451 0.22802 0.0
H1260 H 0.85441 0.47644 0.31978 0.0
H1261 H 0.87732 0.44391 0.29931 0.0
H1262 H 0.80794 0.38482 0.30587 0.0
H1263 H 0.78522 0.41691 0.32646 0.0
Tb1264 Tb 0.09636 0.55124 0.55518 0.0
Eu1265 Eu 0.06098 0.56221 0.50332 0.0
C1266 C 0.08853 0.50771 0.50323 0.0
C1267 C 0.12349 0.5902 0.51656 0.0
C1268 C 0.11709 0.55321 0.62425 0.0
C1269 C 0.12756 0.56037 0.67186 0.0
C1270 C 0.13401 0.55113 0.64735 0.0
C1271 C 0.09424 0.56492 0.6257 0.0
C1272 C 0.08819 0.57453 0.64973 0.0
C1273 C 0.1043 0.57181 0.67315 0.0
C1274 C 0.12264 0.5441 0.59813 0.0
O1275 O 0.08682 0.59092 0.56857 0.0
O1276 O 0.05914 0.59824 0.53249 0.0
O1277 O 0.035 0.53018 0.52008 0.0
O1278 O 0.05404 0.53745 0.56277 0.0
C1279 C 0.07191 0.60655 0.55657 0.0
O1280 O 1.02645 0.57783 0.48455 0.0
O1281 O 0.04982 0.55598 0.46123 0.0
O1282 O 0.07814 0.52527 0.48962 0.0
O1283 O 0.09632 0.51397 0.52906 0.0
O1284 O 0.12687 0.572 0.53247 0.0
O1285 O 0.09972 0.59044 0.50345 0.0
C1286 C 0.03469 0.52539 0.54467 0.0
O1287 O 0.10317 0.52694 0.58528 0.0
O1288 O 0.13068 0.56246 0.58345 0.0
C1289 C 1.03151 0.5876 0.44027 0.0
C1290 C 0.04948 0.59878 0.39188 0.0
C1291 C 1.0227 0.58584 0.39274 0.0
C1292 C 1.01381 0.58007 0.41698 0.0
C1293 C 0.0556 0.60539 0.43967 0.0
C1294 C 0.06461 0.611 0.41544 0.0
C1295 C 1.03049 0.56965 0.46089 0.0
H1296 H 0.1403 0.55808 0.68969 0.0
H1297 H 0.15185 0.54223 0.64645 0.0
H1298 H 0.08079 0.56649 0.60817 0.0
H1299 H 0.07056 0.58385 0.64994 0.0
H1300 H 1.01033 0.57685 0.3748 0.0
H1301 H 0.99499 0.56651 0.41716 0.0
H1302 H 0.06944 0.61152 0.45756 0.0
H1303 H 0.08519 0.6214 0.41548 0.0
Tb1304 Tb 0.81582 0.81144 0.28925 0.0
Eu1305 Eu 0.87145 0.79984 0.31429 0.0
C1306 C 0.86942 0.84864 0.2809 0.0
C1307 C 0.85117 0.78171 0.25026 0.0
C1308 C 0.74466 0.81152 0.29059 0.0
C1309 C 0.69813 0.79113 0.29369 0.0
C1310 C 0.71861 0.80044 0.2784 0.0
C1311 C 0.74975 0.81398 0.31829 0.0
C1312 C 0.72932 0.80473 0.33357 0.0
C1313 C 0.70349 0.79265 0.32141 0.0
C1314 C 0.76758 0.81579 0.27481 0.0
O1315 O 0.80782 0.78294 0.31795 0.0
O1316 O 0.84188 0.76291 0.30857 0.0
O1317 O 0.8531 0.81628 0.35117 0.0
O1318 O 0.82412 0.83733 0.32747 0.0
C1319 C 0.81853 0.76209 0.31744 0.0
O1320 O 0.89535 0.7716 0.32883 0.0
O1321 O 0.91341 0.81207 0.33227 0.0
O1322 O 0.8813 0.83947 0.30124 0.0
O1323 O 0.84458 0.83827 0.27047 0.0
O1324 O 0.82677 0.78582 0.25584 0.0
O1325 O 0.87226 0.78927 0.26894 0.0
C1326 C 0.83661 0.83359 0.35092 0.0
O1327 O 0.78683 0.83558 0.28281 0.0
O1328 O 0.77743 0.79497 0.26951 0.0
C1329 C 0.94076 0.78306 0.31986 0.0
C1330 C 0.98305 0.78501 0.2878 0.0
C1331 C 0.9882 0.79631 0.31396 0.0
C1332 C 0.96717 0.7953 0.32988 0.0
C1333 C 0.93602 0.76994 0.29452 0.0
C1334 C 0.95707 0.77077 0.27868 0.0
C1335 C 0.91782 0.78853 0.33343 0.0
H1336 H 0.67825 0.78229 0.28381 0.0
H1337 H 0.71444 0.79797 0.25707 0.0
H1338 H 0.7699 0.82192 0.32813 0.0
H1339 H 0.73411 0.80601 0.35482 0.0
H1340 H 1.00792 0.80764 0.32152 0.0
H1341 H 0.9711 0.80575 0.34926 0.0
H1342 H 0.91571 0.76049 0.28628 0.0
H1343 H 0.95263 0.76151 0.25878 0.0
Tb1344 Tb 0.85174 0.33418 0.80479 0.0
Eu1345 Eu 0.78991 0.30253 0.78775 0.0
C1346 C 0.80206 0.36272 0.79917 0.0
C1347 C 0.81454 0.30633 0.84842 0.0
C1348 C 0.91371 0.38455 0.82848 0.0
C1349 C 0.9239 0.42794 0.81477 0.0
C1350 C 0.91122 0.40209 0.80932 0.0
C1351 C 0.92939 0.39288 0.85277 0.0
C1352 C 0.94169 0.41869 0.85839 0.0
C1353 C 0.93876 0.43667 0.83962 0.0
C1354 C 0.89753 0.35847 0.82544 0.0
O1355 O 0.85639 0.29581 0.79002 0.0
O1356 O 0.81544 0.27213 0.79686 0.0
O1357 O 0.80908 0.31087 0.74952 0.0
O1358 O 0.84557 0.34333 0.76357 0.0
C1359 C 0.84151 0.274 0.7948 0.0
O1360 O 0.75117 0.3051 0.76521 0.0
O1361 O 0.75578 0.27046 0.78465 0.0
O1362 O 0.78803 0.34177 0.80654 0.0
O1363 O 0.82738 0.36331 0.79503 0.0
O1364 O 0.8378 0.31683 0.84039 0.0
O1365 O 0.79187 0.30142 0.83211 0.0
C1366 C 0.82819 0.32992 0.74439 0.0
O1367 O 0.87534 0.35637 0.8369 0.0
O1368 O 0.8937 0.34552 0.80225 0.0
C1369 C 0.72516 0.2653 0.74598 0.0
C1370 C 0.70102 0.22443 0.70799 0.0
C1371 C 0.72507 0.24117 0.70386 0.0
C1372 C 0.73733 0.26118 0.72298 0.0
C1373 C 0.69952 0.25118 0.74844 0.0
C1374 C 0.68749 0.23104 0.72969 0.0
C1375 C 0.73997 0.28162 0.76901 0.0
H1376 H 0.92171 0.44112 0.79963 0.0
H1377 H 0.89891 0.396 0.79054 0.0
H1378 H 0.93117 0.37958 0.86791 0.0
H1379 H 0.95259 0.42468 0.87782 0.0
H1380 H 0.73556 0.23783 0.68688 0.0
H1381 H 0.757 0.27236 0.72055 0.0
H1382 H 0.68973 0.25435 0.76598 0.0
H1383 H 0.66905 0.21919 0.73419 0.0
Tb1384 Tb 0.84429 0.82677 0.81166 0.0
Eu1385 Eu 0.82134 0.77547 0.77971 0.0
C1386 C 0.84331 0.77518 0.84521 0.0
C1387 C 0.88672 0.80313 0.77534 0.0
C1388 C 0.83843 0.89196 0.82567 0.0
C1389 C 0.83171 0.93599 0.81983 0.0
C1390 C 0.84821 0.91868 0.82923 0.0
C1391 C 0.81198 0.88292 0.81303 0.0
C1392 C 0.79566 0.89995 0.80381 0.0
C1393 C 0.80542 0.92665 0.80655 0.0
C1394 C 0.85575 0.87276 0.83222 0.0
O1395 O 0.83086 0.84032 0.77086 0.0
O1396 O 0.82006 0.80225 0.74566 0.0
O1397 O 0.78125 0.78502 0.79541 0.0
O1398 O 0.80158 0.81872 0.82459 0.0
C1399 C 0.8246 0.82776 0.74671 0.0
O1400 O 0.7975 0.7502 0.74646 0.0
O1401 O 0.81995 0.73402 0.77763 0.0
O1402 O 0.83044 0.76294 0.82259 0.0
O1403 O 0.85345 0.80041 0.84457 0.0
O1404 O 0.88342 0.81868 0.79616 0.0
O1405 O 0.86536 0.78505 0.76588 0.0
C1406 C 0.77918 0.80174 0.81552 0.0
O1407 O 0.84439 0.85354 0.84422 0.0
O1408 O 0.86731 0.86439 0.81266 0.0
C1409 C 0.82285 0.71767 0.73538 0.0
C1410 C 0.87173 0.70162 0.72702 0.0
C1411 C 0.86686 0.72543 0.71888 0.0
C1412 C 0.84242 0.7335 0.72303 0.0
C1413 C 0.82567 0.692 0.73858 0.0
C1414 C 0.85013 0.68398 0.73442 0.0
C1415 C 0.80737 0.73004 0.75373 0.0
H1416 H 0.83978 0.95653 0.82215 0.0
H1417 H 0.86869 0.92608 0.8386 0.0
H1418 H 0.80403 0.86249 0.80951 0.0
H1419 H 0.77539 0.8921 0.79415 0.0
H1420 H 0.88318 0.73895 0.71261 0.0
H1421 H 0.84064 0.75335 0.72016 0.0
H1422 H 0.81086 0.67951 0.74812 0.0
H1423 H 0.85353 0.66547 0.74082 0.0
Tb1424 Tb 0.54522 0.56021 0.54327 0.0
Eu1425 Eu 0.6054 0.57789 0.57939 0.0
C1426 C 0.59991 0.55816 0.51999 0.0
C1427 C 0.57362 0.52029 0.57186 0.0
C1428 C 0.4782 0.57171 0.51905 0.0
C1429 C 0.46428 0.61202 0.50728 0.0
C1430 C 0.48036 0.59313 0.50388 0.0
C1431 C 0.45841 0.56901 0.53668 0.0
C1432 C 0.44223 0.58792 0.54004 0.0
C1433 C 0.44548 0.61026 0.52601 0.0
C1434 C 0.49827 0.55394 0.5184 0.0
O1435 O 0.53867 0.56567 0.5844 0.0
O1436 O 0.57638 0.59502 0.60305 0.0
O1437 O 0.59957 0.6104 0.55366 0.0
O1438 O 0.55315 0.60204 0.55057 0.0
C1439 C 0.5508 0.58373 0.60287 0.0
O1440 O 0.63273 0.57393 0.61461 0.0
O1441 O 0.64891 0.59381 0.58248 0.0
O1442 O 0.60963 0.55324 0.54342 0.0
O1443 O 0.57599 0.56507 0.51615 0.0
O1444 O 0.55986 0.52389 0.54943 0.0
O1445 O 0.5832 0.53985 0.58932 0.0
C1446 C 0.57586 0.617 0.54671 0.0
O1447 O 0.52043 0.56236 0.50804 0.0
O1448 O 0.50374 0.54302 0.54005 0.0
C1449 C 0.67438 0.564 0.60183 0.0
C1450 C 0.70771 0.52591 0.59552 0.0
C1451 C 0.6932 0.52716 0.61755 0.0
C1452 C 0.67668 0.54587 0.62061 0.0
C1453 C 0.68975 0.56337 0.58036 0.0
C1454 C 0.70601 0.54451 0.57716 0.0
C1455 C 0.65457 0.58206 0.60355 0.0
H1456 H 0.46735 0.62831 0.49555 0.0
H1457 H 0.49519 0.59584 0.48989 0.0
H1458 H 0.45591 0.55259 0.54845 0.0
H1459 H 0.42727 0.58492 0.55381 0.0
H1460 H 0.69408 0.51324 0.63215 0.0
H1461 H 0.66522 0.54577 0.63743 0.0
H1462 H 0.68893 0.57722 0.5657 0.0
H1463 H 0.7174 0.54462 0.5603 0.0
Tb1464 Tb 0.07028 0.53076 0.02856 0.0
Eu1465 Eu 0.10785 0.58264 0.05367 0.0
C1466 C 0.08936 0.53833 0.08922 0.0
C1467 C 0.03929 0.58054 0.04328 0.0
C1468 C 0.04221 0.46347 0.99821 0.0
C1469 C 0.06294 0.43055 0.97679 0.0
C1470 C 0.06428 0.45609 0.98671 0.0
C1471 C 1.01955 0.44468 1.00104 0.0
C1472 C 1.01838 0.41905 0.99144 0.0
C1473 C 0.03973 0.41197 0.97857 0.0
C1474 C 0.0411 0.49086 1.00453 0.0
O1475 O 0.06977 0.561 1.00167 0.0
O1476 O 0.11349 0.57935 1.01097 0.0
O1477 O 0.13939 0.55447 0.05035 0.0
O1478 O 0.11246 0.51943 0.02649 0.0
C1479 C 0.09132 0.57524 0.99474 0.0
O1480 O 0.12435 0.62331 0.05153 0.0
O1481 O 0.13898 0.60309 0.08429 0.0
O1482 O 0.09022 0.56302 0.08704 0.0
O1483 O 0.08452 0.52204 0.06814 0.0
O1484 O 0.03819 0.55486 0.03881 0.0
O1485 O 0.06417 0.59526 0.04814 0.0
C1486 C 0.13724 0.53083 0.03823 0.0
O1487 O 0.03928 0.49836 0.0291 0.0
O1488 O 0.05781 0.50752 0.99345 0.0
C1489 C 0.14138 0.64857 0.09182 0.0
C1490 C 0.14787 0.69455 0.12498 0.0
C1491 C 0.1435 0.69493 0.09741 0.0
C1492 C 0.14046 0.67224 0.08104 0.0
C1493 C 0.14565 0.64805 0.11941 0.0
C1494 C 0.14876 0.67087 0.13587 0.0
C1495 C 0.13996 0.62519 0.07394 0.0
H1496 H 0.07975 0.42542 0.96718 0.0
H1497 H 0.08213 0.47019 0.98444 0.0
H1498 H 1.0023 0.45001 1.00974 0.0
H1499 H 1.00021 0.40503 0.9929 0.0
H1500 H 0.14214 0.71279 0.08842 0.0
H1501 H 0.13755 0.67326 0.05985 0.0
H1502 H 0.14686 0.63012 0.1283 0.0
H1503 H 0.15222 0.67005 0.15704 0.0
H1504 H 0.06567 0.19331 0.94461 0.0
H1505 H 0.98723 0.14495 0.92146 0.0
H1506 H 0.99758 0.11527 0.95452 0.0
H1507 H 1.02777 0.10482 0.99123 0.0
H1508 H 0.10789 0.15057 1.01245 0.0
H1509 H 0.09816 0.17991 0.97862 0.0
C1510 C 0.05107 0.17602 0.9466 0.0
C1511 C 1.0257 0.1712 0.93082 0.0
C1512 C 0.05739 0.15895 0.9653 0.0
C1513 C 1.00693 0.1488 0.93328 0.0
C1514 C 1.01278 0.13202 0.95228 0.0
C1515 C 0.04319 0.12115 0.98852 0.0
C1516 C 0.06834 0.12585 1.00468 0.0
C1517 C 0.03774 0.1372 0.96864 0.0
C1518 C 0.08829 0.14678 1.00045 0.0
C1519 C 0.08272 0.16345 0.98112 0.0
H1520 H 0.22214 0.9108 0.20624 0.0
H1521 H 0.17166 0.90708 0.26961 0.0
H1522 H 0.20887 0.89716 0.29962 0.0
H1523 H 0.25135 0.87874 0.3043 0.0
H1524 H 0.29967 0.87982 0.23932 0.0
H1525 H 0.26811 0.90162 0.21376 0.0
C1526 C 0.21958 0.90879 0.22686 0.0
C1527 C 0.19392 0.90883 0.2354 0.0
C1528 C 0.2406 0.90184 0.24365 0.0
C1529 C 0.19111 0.90672 0.26234 0.0
C1530 C 0.21231 0.90069 0.27949 0.0
C1531 C 0.25529 0.88455 0.28491 0.0
C1532 C 0.27732 0.87724 0.2734 0.0
C1533 C 0.23648 0.89644 0.26986 0.0
C1534 C 0.28242 0.88485 0.24829 0.0
C1535 C 0.26441 0.89732 0.23365 0.0
H1536 H 0.56452 0.81365 0.4197 0.0
H1537 H 0.51503 0.82193 0.34754 0.0
H1538 H 0.51912 0.86813 0.35996 0.0
H1539 H 0.53388 0.90551 0.39312 0.0
H1540 H 0.58259 0.89635 0.46549 0.0
H1541 H 0.58186 0.85121 0.45104 0.0
C1542 C 0.55479 0.82556 0.40652 0.0
C1543 C 0.53918 0.81422 0.38287 0.0
C1544 C 0.557 0.85198 0.4139 0.0
C1545 C 0.52712 0.83007 0.36587 0.0
C1546 C 0.52932 0.8565 0.37305 0.0
C1547 C 0.54438 0.89361 0.40566 0.0
C1548 C 0.55815 0.90424 0.43041 0.0
C1549 C 0.5437 0.86753 0.39731 0.0
C1550 C 0.57204 0.88873 0.44627 0.0
C1551 C 0.5715 0.86286 0.4381 0.0
H1552 H 0.55835 0.31579 0.66562 0.0
H1553 H 0.58942 0.39327 0.70083 0.0
H1554 H 0.55596 0.38811 0.73234 0.0
H1555 H 0.5201 0.36062 0.75172 0.0
H1556 H 0.49003 0.2826 0.71763 0.0
H1557 H 0.52135 0.28872 0.68411 0.0
C1558 C 0.55751 0.33167 0.67989 0.0
C1559 C 0.57631 0.35485 0.6809 0.0
C1560 C 0.5388 0.32829 0.69845 0.0
C1561 C 0.57518 0.37519 0.69973 0.0
C1562 C 0.55615 0.37223 0.71781 0.0
C1563 C 0.52024 0.34505 0.73679 0.0
C1564 C 0.50292 0.32118 0.73719 0.0
C1565 C 0.53825 0.3487 0.71767 0.0
C1566 C 0.50351 0.30104 0.71795 0.0
C1567 C 0.52123 0.30459 0.69867 0.0
H1568 H 0.08893 0.88104 0.59727 0.0
H1569 H 0.0718 0.91316 0.67217 0.0
H1570 H 0.07384 0.95522 0.65513 0.0
H1571 H 0.08062 0.98613 0.61909 0.0
H1572 H 0.0978 0.95549 0.54384 0.0
H1573 H 0.0956 0.91262 0.56045 0.0
C1574 C 0.08532 0.8969 0.61017 0.0
C1575 C 0.07987 0.89167 0.63709 0.0
C1576 C 0.08672 0.9229 0.59987 0.0
C1577 C 0.07594 0.91445 0.6519 0.0
C1578 C 0.07716 0.93943 0.64193 0.0
C1579 C 0.08406 0.97036 0.60594 0.0
C1580 C 0.08968 0.97604 0.57933 0.0
C1581 C 0.08264 0.94444 0.61593 0.0
C1582 C 0.09362 0.9536 0.56404 0.0
C1583 C 0.09227 0.92828 0.57379 0.0
H1584 H 0.49604 0.82595 0.90473 0.0
H1585 H 0.51952 0.76895 0.85198 0.0
H1586 H 0.47606 0.76553 0.82382 0.0
H1587 H 0.42987 0.77912 0.81255 0.0
H1588 H 0.40929 0.83957 0.86333 0.0
H1589 H 0.45155 0.84109 0.89238 0.0
C1590 C 0.49192 0.81273 0.88706 0.0
C1591 C 0.51246 0.79798 0.881 0.0
C1592 C 0.46647 0.81138 0.86995 0.0
C1593 C 0.50529 0.781 0.85769 0.0
C1594 C 0.47993 0.77896 0.84132 0.0
C1595 C 0.43434 0.79262 0.83 0.0
C1596 C 0.41492 0.8091 0.83514 0.0
C1597 C 0.46007 0.79411 0.84692 0.0
C1598 C 0.42272 0.82649 0.8581 0.0
C1599 C 0.44733 0.82737 0.8751 0.0
H1600 H 0.57532 0.23709 0.08527 0.0
H1601 H 0.5625 0.21347 0.16265 0.0
H1602 H 0.56335 0.16885 0.14724 0.0
H1603 H 0.56826 0.13381 0.11174 0.0
H1604 H 0.57597 0.15618 0.03303 0.0
H1605 H 0.57595 0.20121 0.04848 0.0
C1606 C 0.57153 0.2224 0.09885 0.0
C1607 C 0.56781 0.23067 0.12586 0.0
C1608 C 0.57138 0.19512 0.08933 0.0
C1609 C 0.56492 0.20956 0.14206 0.0
C1610 C 0.56549 0.18324 0.13305 0.0
C1611 C 0.56982 0.14822 0.09756 0.0
C1612 C 0.5723 0.13965 0.07037 0.0
C1613 C 0.56882 0.17528 0.10669 0.0
C1614 C 0.57397 0.16038 0.05367 0.0
C1615 C 0.57398 0.1869 0.06275 0.0
H1616 H 0.17499 0.34117 0.3597 0.0
H1617 H 0.17146 0.26851 0.39427 0.0
H1618 H 0.21131 0.26078 0.37275 0.0
H1619 H 0.24853 0.27388 0.34256 0.0
H1620 H 0.25367 0.34831 0.31151 0.0
H1621 H 0.21353 0.35551 0.33249 0.0
C1622 C 0.18284 0.32361 0.36305 0.0
C1623 C 0.16884 0.30566 0.37964 0.0
C1624 C 0.20687 0.31929 0.35054 0.0
C1625 C 0.1807 0.28323 0.38255 0.0
C1626 C 0.20391 0.27864 0.36978 0.0
C1627 C 0.24099 0.29174 0.34006 0.0
C1628 C 0.25529 0.31034 0.32423 0.0
C1629 C 0.21739 0.29634 0.3534 0.0
C1630 C 0.24421 0.3333 0.32277 0.0
C1631 C 0.22076 0.3375 0.33506 0.0
H1632 H 0.95456 0.06996 0.15317 0.0
H1633 H 1.01199 0.03698 0.20296 0.0
H1634 H 0.04805 0.05193 0.176 0.0
H1635 H 0.06178 0.07039 0.13559 0.0
H1636 H 1.00473 0.10375 0.08589 0.0
H1637 H 0.97032 0.09389 0.11598 0.0
C1638 C 0.97498 0.06607 0.1579 0.0
C1639 C 0.98066 0.05188 0.17937 0.0
C1640 C 0.99578 0.07537 0.14275 0.0
C1641 C 1.00726 0.04753 0.18608 0.0
C1642 C 1.02788 0.05624 0.17086 0.0
C1643 C 0.04227 0.07661 0.13214 0.0
C1644 C 0.03571 0.0879 0.10885 0.0
C1645 C 1.02231 0.0699 0.14895 0.0
C1646 C 1.01015 0.09524 0.10397 0.0
C1647 C 0.99035 0.08919 0.1209 0.0
H1648 H 0.27458 0.7314 0.42751 0.0
H1649 H 0.32181 0.79261 0.48185 0.0
H1650 H 0.33036 0.81929 0.44483 0.0
H1651 H 0.32646 0.82433 0.39602 0.0
H1652 H 0.2775 0.76265 0.34307 0.0
H1653 H 0.26776 0.73753 0.38028 0.0
C1654 C 0.28656 0.75069 0.43152 0.0
C1655 C 0.29753 0.75972 0.45787 0.0
C1656 C 0.29129 0.76599 0.41007 0.0
C1657 C 0.31286 0.78496 0.46211 0.0
C1658 C 0.31792 0.80022 0.44077 0.0
C1659 C 0.31342 0.80552 0.39258 0.0
C1660 C 0.30287 0.79567 0.36623 0.0
C1661 C 0.30755 0.79085 0.4145 0.0
C1662 C 0.286 0.7711 0.36269 0.0
C1663 C 0.28041 0.75653 0.38413 0.0
H1664 H 0.59673 0.99037 0.68102 0.0
H1665 H 0.67351 0.98738 0.65139 0.0
H1666 H 0.65056 0.97978 0.60623 0.0
H1667 H 0.61257 0.98927 0.57612 0.0
H1668 H 0.5383 1.00051 0.6068 0.0
H1669 H 0.55594 0.98962 0.6502 0.0
C1670 C 0.60829 0.98712 0.66472 0.0
C1671 C 0.63679 0.98991 0.66937 0.0
C1672 C 0.59541 0.98532 0.63878 0.0
C1673 C 0.65157 0.98567 0.64817 0.0
C1674 C 0.63851 0.98179 0.62233 0.0
C1675 C 0.59979 0.9881 0.592 0.0
C1676 C 0.57435 0.99601 0.58851 0.0
C1677 C 0.61094 0.98383 0.61737 0.0
C1678 C 0.558 0.99459 0.60919 0.0
C1679 C 0.56824 0.98869 0.63407 0.0
H1680 H 0.35147 0.37903 0.96583 0.0
H1681 H 0.28629 0.41796 0.93886 0.0
H1682 H 0.28447 0.39724 0.89429 0.0
H1683 H 0.30176 0.36824 0.86055 0.0
H1684 H 0.36882 0.33131 0.8869 0.0
H1685 H 0.36915 0.35035 0.93189 0.0
C1686 C 0.33636 0.38274 0.95052 0.0
C1687 C 0.31836 0.4002 0.95735 0.0
C1688 C 0.33586 0.37092 0.92362 0.0
C1689 C 0.30012 0.40468 0.93566 0.0
C1690 C 0.29916 0.39272 0.90956 0.0
C1691 C 0.31656 0.36411 0.87594 0.0
C1692 C 0.33531 0.34754 0.86879 0.0
C1693 C 0.31699 0.37581 0.90285 0.0
C1694 C 0.354 0.34349 0.89034 0.0
C1695 C 0.3542 0.35458 0.91671 0.0
H1696 H 0.96722 0.05914 0.30053 0.0
H1697 H 0.90788 1.00081 0.32815 0.0
H1698 H 0.93965 0.99866 0.36732 0.0
H1699 H 0.98646 1.00904 0.39019 0.0
H1700 H 0.046 0.06614 0.36125 0.0
H1701 H 1.01189 0.07303 0.32583 0.0
C1702 C 0.96099 0.0462 0.31531 0.0
C1703 C 0.93551 0.02955 0.311 0.0
C1704 C 0.9796 0.04451 0.3372 0.0
C1705 C 0.9275 1.0135 0.3307 0.0
C1706 C 0.94576 1.01212 0.353 0.0
C1707 C 0.9919 0.02299 0.37608 0.0
C1708 C 1.0188 0.03666 0.37782 0.0
C1709 C 0.97226 0.0267 0.35578 0.0
C1710 C 1.02548 0.05526 0.36006 0.0
C1711 C 1.00601 0.05917 0.33987 0.0
H1712 H 0.33341 0.79204 0.61475 0.0
H1713 H 0.29675 0.71396 0.62623 0.0
H1714 H 0.30305 0.72436 0.67384 0.0
H1715 H 0.3179 0.75551 0.71293 0.0
H1716 H 0.3559 0.83343 0.70279 0.0
H1717 H 0.3504 0.82319 0.6548 0.0
C1718 C 0.32686 0.77725 0.62763 0.0
C1719 C 0.31443 0.75209 0.61633 0.0
C1720 C 0.33086 0.78334 0.65563 0.0
C1721 C 0.30633 0.73341 0.63382 0.0
C1722 C 0.30992 0.73937 0.66131 0.0
C1723 C 0.32522 0.77033 0.70036 0.0
C1724 C 0.33741 0.79536 0.71203 0.0
C1725 C 0.32205 0.76425 0.67254 0.0
C1726 C 0.34663 0.814 0.69487 0.0
C1727 C 0.34334 0.80813 0.6672 0.0
H1728 H 0.65394 0.10648 0.81356 0.0
H1729 H 0.61194 0.02817 0.79159 0.0
H1730 H 0.57962 0.0335 0.82316 0.0
H1731 H 0.56478 0.05957 0.85823 0.0
H1732 H 0.60561 0.13836 0.87921 0.0
H1733 H 0.63683 0.13371 0.84627 0.0
C1734 C 0.6377 0.09056 0.81555 0.0
C1735 C 0.63552 0.06688 0.80029 0.0
C1736 C 0.6189 0.0939 0.83336 0.0
C1737 C 0.61419 0.04656 0.80313 0.0
C1738 C 0.59565 0.04961 0.82112 0.0
C1739 C 0.57996 0.07603 0.85514 0.0
C1740 C 0.58277 0.09934 0.87116 0.0
C1741 C 0.59789 0.07316 0.83637 0.0
C1742 C 0.60309 0.12019 0.86725 0.0
C1743 C 0.62098 0.1175 0.84849 0.0
H1744 H 0.3407 0.41637 0.14923 0.0
H1745 H 0.29682 0.35124 0.0979 0.0
H1746 H 0.29396 0.32492 0.13551 0.0
H1747 H 0.30398 0.31848 0.18452 0.0
H1748 H 0.34886 0.38339 0.23561 0.0
H1749 H 0.35083 0.4099 0.19819 0.0
C1750 C 0.3303 0.39647 0.14591 0.0
C1751 C 0.31885 0.38674 0.11917 0.0
C1752 C 0.32879 0.38054 0.16854 0.0
C1753 C 0.30593 0.36033 0.11711 0.0
C1754 C 0.30425 0.34485 0.13915 0.0
C1755 C 0.31416 0.33845 0.18788 0.0
C1756 C 0.32612 0.34803 0.21453 0.0
C1757 C 0.31559 0.3544 0.16527 0.0
C1758 C 0.3392 0.3744 0.21654 0.0
C1759 C 0.34041 0.39002 0.19459 0.0
H1760 H 0.29293 0.96982 0.01939 0.0
H1761 H 0.28624 0.92758 0.08857 0.0
H1762 H 0.25057 0.95112 0.10111 0.0
H1763 H 0.22492 0.98739 0.09458 0.0
H1764 H 0.23477 0.03025 0.02607 0.0
H1765 H 0.26587 1.00305 1.01135 0.0
C1766 C 0.28352 0.96546 0.03713 0.0
C1767 C 0.2925 0.9471 0.05315 0.0
C1768 C 0.26392 0.97961 0.04459 0.0
C1769 C 0.27969 0.94151 0.0758 0.0
C1770 C 0.2595 0.9552 0.08311 0.0
C1771 C 0.23374 0.99054 0.07634 0.0
C1772 C 0.22793 1.01116 0.06169 0.0
C1773 C 0.25203 0.97487 0.06804 0.0
C1774 C 0.23939 1.01495 0.03801 0.0
C1775 C 0.25704 0.99929 0.02948 0.0
H1776 H 0.77919 0.61736 0.06166 0.0
H1777 H 0.7581 0.67119 1.0067 0.0
H1778 H 0.71023 0.64998 1.00258 0.0
H1779 H 0.6721 0.61633 1.01526 0.0
H1780 H 0.69226 0.5664 0.07481 0.0
H1781 H 0.74068 0.58516 0.07611 0.0
C1782 C 0.76435 0.62436 0.04837 0.0
C1783 C 0.7738 0.64588 0.03358 0.0
C1784 C 0.73561 0.61247 0.04698 0.0
C1785 C 0.75281 0.65459 1.01777 0.0
C1786 C 0.72487 0.64235 1.01552 0.0
C1787 C 0.68692 0.60926 0.02853 0.0
C1788 C 0.67716 0.58903 0.04473 0.0
C1789 C 0.71562 0.62123 0.03006 0.0
C1790 C 0.69789 0.58141 0.0619 0.0
C1791 C 0.72613 0.59236 0.06267 0.0
H1792 H 0.74253 0.52534 0.36043 0.0
H1793 H 0.8164 0.5599 0.41035 0.0
H1794 H 0.83904 0.52544 0.39434 0.0
H1795 H 0.83882 0.4873 0.3636 0.0
H1796 H 0.76521 0.45428 0.31276 0.0
H1797 H 0.74155 0.48646 0.33175 0.0
C1798 C 0.76349 0.52528 0.36815 0.0
C1799 C 0.77774 0.54539 0.38644 0.0
C1800 C 0.77656 0.50583 0.35844 0.0
C1801 C 0.80487 0.54474 0.39623 0.0
C1802 C 0.81793 0.52512 0.38696 0.0
C1803 C 0.81763 0.48725 0.35667 0.0
C1804 C 0.80381 0.46855 0.33673 0.0
C1805 C 0.80416 0.50594 0.36757 0.0
C1806 C 0.77623 0.46839 0.32822 0.0
C1807 C 0.76271 0.48681 0.339 0.0
H1808 H 0.94379 0.42574 0.53295 0.0
H1809 H 0.91009 0.47139 0.5895 0.0
H1810 H 0.95175 0.50404 0.59515 0.0
H1811 H 0.99549 0.52268 0.57917 0.0
H1812 H 1.02758 0.47766 0.52065 0.0
H1813 H 0.98947 0.4421 0.52066 0.0
C1814 C 0.94582 0.44266 0.54677 0.0
C1815 C 0.92366 0.44653 0.56022 0.0
C1816 C 0.96969 0.46173 0.54945 0.0
C1817 C 0.92669 0.46833 0.57842 0.0
C1818 C 0.95057 0.48699 0.58172 0.0
C1819 C 0.9945 0.50477 0.56711 0.0
C1820 C 1.01442 0.5028 0.55001 0.0
C1821 C 0.97191 0.48442 0.56664 0.0
C1822 C 1.01251 0.47963 0.53402 0.0
C1823 C 0.99065 0.45926 0.53393 0.0
H1824 H 0.43875 0.15961 0.35514 0.0
H1825 H 0.49829 0.17572 0.30046 0.0
H1826 H 0.46326 0.18586 0.26792 0.0
H1827 H 0.415 0.1866 0.25382 0.0
H1828 H 0.3563 0.1711 0.30957 0.0
H1829 H 0.39162 0.16268 0.34218 0.0
C1830 C 0.44428 0.1657 0.33627 0.0
C1831 C 0.47113 0.1667 0.33027 0.0
C1832 C 0.42398 0.1706 0.31739 0.0
C1833 C 0.47783 0.17487 0.30574 0.0
C1834 C 0.45772 0.18031 0.28695 0.0
C1835 C 0.4099 0.18146 0.27311 0.0
C1836 C 0.38277 0.17909 0.27886 0.0
C1837 C 0.43057 0.17754 0.29233 0.0
C1838 C 0.37667 0.17222 0.30402 0.0
C1839 C 0.397 0.16789 0.32299 0.0
H1840 H 0.41561 0.10922 0.50205 0.0
H1841 H 0.44187 0.17128 0.56318 0.0
H1842 H 0.48549 0.15609 0.57199 0.0
H1843 H 0.51832 0.12417 0.56306 0.0
H1844 H 0.49055 0.0627 0.50134 0.0
H1845 H 0.4478 0.07842 0.49278 0.0
C1846 C 0.43065 0.11988 0.51737 0.0
C1847 C 0.4237 0.14224 0.5316 0.0
C1848 C 0.45668 0.11073 0.52256 0.0
C1849 C 0.44499 0.1545 0.55132 0.0
C1850 C 0.47058 0.14552 0.55651 0.0
C1851 C 0.50313 0.11393 0.54764 0.0
C1852 C 0.50951 0.09134 0.53308 0.0
C1853 C 0.47709 0.12348 0.54242 0.0
C1854 C 0.48802 0.07963 0.51333 0.0
C1855 C 0.46281 0.08883 0.50828 0.0
H1856 H 0.78117 0.65239 0.35558 0.0
H1857 H 0.72254 0.69064 0.39028 0.0
H1858 H 0.74228 0.73151 0.37329 0.0
H1859 H 0.77576 0.75557 0.34708 0.0
H1860 H 0.83381 0.71542 0.313 0.0
H1861 H 0.81487 0.67602 0.33149 0.0
C1862 C 0.77319 0.66987 0.36004 0.0
C1863 C 0.75117 0.66896 0.37482 0.0
C1864 C 0.78436 0.69279 0.35005 0.0
C1865 C 0.74001 0.69127 0.37941 0.0
C1866 C 0.75119 0.71447 0.36961 0.0
C1867 C 0.78417 0.73816 0.34371 0.0
C1868 C 0.80607 0.73841 0.32856 0.0
C1869 C 0.77325 0.71537 0.35462 0.0
C1870 C 0.81693 0.71578 0.32451 0.0
C1871 C 0.80616 0.6932 0.33509 0.0
H1872 H 1.00548 0.54892 0.87346 0.0
H1873 H 0.93913 0.56845 0.82293 0.0
H1874 H 0.91573 0.52359 0.8187 0.0
H1875 H 0.91672 0.4782 0.82531 0.0
H1876 H 0.98714 0.45779 0.8694 0.0
H1877 H 1.00644 0.50337 0.88013 0.0
C1878 C 0.98558 0.54332 0.86208 0.0
C1879 C 0.97329 0.56205 0.84966 0.0
C1880 C 0.97334 0.51719 0.85806 0.0
C1881 C 0.94809 0.5546 0.83405 0.0
C1882 C 0.93506 0.52884 0.83109 0.0
C1883 C 0.93642 0.48364 0.83704 0.0
C1884 C 0.95047 0.46447 0.84633 0.0
C1885 C 0.94791 0.50987 0.84236 0.0
C1886 C 0.97566 0.47204 0.86214 0.0
C1887 C 0.98683 0.49813 0.86821 0.0
H1888 H 0.07477 0.90708 0.10208 0.0
H1889 H 0.11428 0.95281 0.17329 0.0
H1890 H 0.10365 0.99184 0.15461 0.0
H1891 H 0.08627 1.01312 0.11729 0.0
H1892 H 0.04841 0.96807 0.04526 0.0
H1893 H 0.05483 0.92831 0.06548 0.0
C1894 C 0.08093 0.92552 0.11369 0.0
C1895 C 0.09558 0.92696 0.13904 0.0
C1896 C 0.07504 0.94792 0.10273 0.0
C1897 C 0.10317 0.95108 0.15373 0.0
C1898 C 0.0971 0.97342 0.14305 0.0
C1899 C 0.07922 0.99462 0.10594 0.0
C1900 C 0.06718 0.99358 0.07963 0.0
C1901 C 0.08352 0.97208 0.11744 0.0
C1902 C 0.05778 0.96941 0.06549 0.0
C1903 C 0.0616 0.94672 0.077 0.0
H1904 H 0.92806 0.20588 0.82746 0.0
H1905 H 0.9376 0.25888 0.89709 0.0
H1906 H 0.89634 0.27447 0.88125 0.0
H1907 H 0.86316 0.27864 0.84444 0.0
H1908 H 0.85421 0.22882 0.77291 0.0
H1909 H 0.88888 0.20553 0.79274 0.0
C1910 C 0.92083 0.22069 0.83909 0.0
C1911 C 0.93631 0.23214 0.86278 0.0
C1912 C 0.89716 0.2299 0.82957 0.0
C1913 C 0.92631 0.2504 0.87843 0.0
C1914 C 0.90275 0.25929 0.86941 0.0
C1915 C 0.86823 0.26222 0.8335 0.0
C1916 C 0.85643 0.25546 0.80738 0.0
C1917 C 0.88883 0.25004 0.84452 0.0
C1918 C 0.86311 0.23423 0.79316 0.0
C1919 C 0.88302 0.22111 0.80446 0.0
H1920 H 0.67898 0.29863 0.62935 0.0
H1921 H 0.62506 0.29862 0.68956 0.0
H1922 H 0.61747 0.25137 0.68727 0.0
H1923 H 0.62351 0.21021 0.66576 0.0
H1924 H 0.67778 0.20979 0.60573 0.0
H1925 H 0.68804 0.25701 0.61033 0.0
C1926 C 0.66547 0.28812 0.64175 0.0
C1927 C 0.65157 0.30169 0.65871 0.0
C1928 C 0.66141 0.261 0.64046 0.0
C1929 C 0.6352 0.28826 0.67576 0.0
C1930 C 0.63095 0.26135 0.67452 0.0
C1931 C 0.63766 0.22045 0.65376 0.0
C1932 C 0.64969 0.20653 0.63532 0.0
C1933 C 0.64346 0.24751 0.65652 0.0
C1934 C 0.66835 0.22006 0.62021 0.0
C1935 C 0.67418 0.24706 0.62276 0.0
H1936 H 0.60995 0.76479 0.393 0.0
H1937 H 0.58818 0.69985 0.33452 0.0
H1938 H 0.63095 0.71245 0.31586 0.0
H1939 H 0.67035 0.74589 0.31172 0.0
H1940 H 0.68966 0.81334 0.36745 0.0
H1941 H 0.65223 0.79589 0.39179 0.0
C1942 C 0.61524 0.75284 0.37692 0.0
C1943 C 0.59636 0.73127 0.3653 0.0
C1944 C 0.63901 0.76116 0.36533 0.0
C1945 C 0.60278 0.7163 0.34393 0.0
C1946 C 0.62699 0.72373 0.33305 0.0
C1947 C 0.66638 0.75673 0.32923 0.0
C1948 C 0.68236 0.78109 0.33747 0.0
C1949 C 0.64453 0.74683 0.34277 0.0
C1950 C 0.67754 0.79459 0.36063 0.0
C1951 C 0.65612 0.78464 0.37453 0.0
H1952 H 0.07602 0.19248 0.42873 0.0
H1953 H 0.10526 0.24321 0.49915 0.0
H1954 H 0.10484 0.2058 0.52505 0.0
H1955 H 0.09647 0.15709 0.52978 0.0
H1956 H 0.06795 0.10593 0.45958 0.0
H1957 H 0.06798 0.14332 0.43348 0.0
C1958 C 0.08243 0.19579 0.44974 0.0
C1959 C 0.09079 0.22253 0.46099 0.0
C1960 C 0.08226 0.17308 0.46547 0.0
C1961 C 0.09871 0.22424 0.48874 0.0
C1962 C 0.09845 0.20224 0.50403 0.0
C1963 C 0.09006 0.15365 0.50877 0.0
C1964 C 0.08198 0.1269 0.4977 0.0
C1965 C 0.09027 0.17624 0.49299 0.0
C1966 C 0.07426 0.12496 0.46989 0.0
C1967 C 0.07429 0.14697 0.4545 0.0
H1968 H 0.65214 0.29949 0.23625 0.0
H1969 H 0.68111 0.3306 0.16655 0.0
H1970 H 0.72828 0.33448 0.18695 0.0
H1971 H 0.76303 0.32902 0.22501 0.0
H1972 H 0.73408 0.29303 0.2924 0.0
H1973 H 0.68691 0.29121 0.27296 0.0
C1974 C 0.66865 0.30727 0.22538 0.0
C1975 C 0.66192 0.31511 0.19942 0.0
C1976 C 0.69659 0.30858 0.23713 0.0
C1977 C 0.68458 0.32449 0.18625 0.0
C1978 C 0.71202 0.32673 0.19811 0.0
C1979 C 0.74653 0.32079 0.23566 0.0
C1980 C 0.75327 0.31147 0.26093 0.0
C1981 C 0.71859 0.31887 0.22362 0.0
C1982 C 0.73061 0.30053 0.27336 0.0
C1983 C 0.70317 0.29949 0.26206 0.0
H1984 H 0.59281 0.8817 0.98669 0.0
H1985 H 0.59232 0.90373 0.90676 0.0
H1986 H 0.59042 0.94758 0.92189 0.0
H1987 H 0.58842 0.98292 0.95733 0.0
H1988 H 0.59195 0.96367 0.03793 0.0
H1989 H 0.59313 0.9186 0.02331 0.0
C1990 C 0.59245 0.89578 0.97223 0.0
C1991 C 0.59264 0.88692 0.94454 0.0
C1992 C 0.59182 0.9231 0.98144 0.0
C1993 C 0.59216 0.90762 0.92778 0.0
C1994 C 0.59103 0.93372 0.93659 0.0
C1995 C 0.58954 0.9692 0.9721 0.0
C1996 C 0.59003 0.97865 0.99951 0.0
C1997 C 0.59076 0.94219 0.96335 0.0
C1998 C 0.59159 0.95877 1.01699 0.0
C1999 C 0.59223 0.9322 1.0084 0.0
H2000 H 1.01107 0.83515 0.74055 0.0
H2001 H 0.97956 0.7799 0.67405 0.0
H2002 H 0.93537 0.77158 0.69186 0.0
H2003 H 0.90342 0.78019 0.72685 0.0
H2004 H 0.93658 0.83493 0.7933 0.0
H2005 H 0.9802 0.84282 0.77526 0.0
C2006 C 0.99477 0.8212 0.72949 0.0
C2007 C 1.00033 0.80853 0.70499 0.0
C2008 C 0.96856 0.81619 0.74028 0.0
C2009 C 0.97752 0.79049 0.69238 0.0
C2010 C 0.95163 0.78561 0.70287 0.0
C2011 C 0.92012 0.79356 0.73788 0.0
C2012 C 0.91508 0.80645 0.76254 0.0
C2013 C 0.94649 0.79826 0.72695 0.0
C2014 C 0.9382 0.82419 0.77492 0.0
C2015 C 0.96381 0.82886 0.76432 0.0
H2016 H 0.20918 0.06917 0.96107 0.0
H2017 H 0.17074 0.12912 0.92853 0.0
H2018 H 0.12986 0.11429 0.94933 0.0
H2019 H 0.10433 0.08311 0.9748 0.0
H2020 H 0.14239 0.02331 1.00837 0.0
H2021 H 0.18391 0.0387 0.98858 0.0
C2022 C 0.19208 0.07931 0.95924 0.0
C2023 C 0.1929 0.10037 0.94374 0.0
C2024 C 0.16831 0.07015 0.97059 0.0
C2025 C 0.17048 0.11305 0.94076 0.0
C2026 C 0.14704 0.10439 0.95232 0.0
C2027 C 0.12148 0.07308 0.9773 0.0
C2028 C 0.12009 0.0517 0.9924 0.0
C2029 C 0.14548 0.08257 0.9667 0.0
C2030 C 0.14284 0.03947 0.99627 0.0
C2031 C 0.16667 0.04846 0.98526 0.0
H2032 H 0.82112 0.34366 0.61976 0.0
H2033 H 0.87231 0.41644 0.64889 0.0
H2034 H 0.87131 0.4046 0.69404 0.0
H2035 H 0.85602 0.37391 0.7262 0.0
H2036 H 0.8032 0.30177 0.69824 0.0
H2037 H 0.80477 0.31295 0.6526 0.0
C2038 C 0.83211 0.35691 0.63595 0.0
C2039 C 0.8469 0.38104 0.6304 0.0
C2040 C 0.83122 0.35007 0.6625 0.0
C2041 C 0.86073 0.39782 0.65206 0.0
C2042 C 0.86021 0.39103 0.67814 0.0
C2043 C 0.84496 0.36046 0.71019 0.0
C2044 C 0.82974 0.33677 0.71612 0.0
C2045 C 0.84558 0.36723 0.68373 0.0
C2046 C 0.81525 0.32005 0.6947 0.0
C2047 C 0.81612 0.32648 0.66839 0.0
H2048 H 0.59714 0.15027 0.41325 0.0
H2049 H 0.53234 0.17447 0.45211 0.0
H2050 H 0.55387 0.16505 0.49454 0.0
H2051 H 0.58016 0.13531 0.51579 0.0
H2052 H 0.63654 0.10121 0.47301 0.0
H2053 H 0.62976 0.12879 0.43714 0.0
C2054 C 0.58832 0.1546 0.43115 0.0
C2055 C 0.56248 0.16174 0.42945 0.0
C2056 C 0.59903 0.14623 0.45475 0.0
C2057 C 0.55185 0.1682 0.45286 0.0
C2058 C 0.56393 0.16237 0.47707 0.0
C2059 C 0.59187 0.13493 0.49912 0.0
C2060 C 0.60862 0.11636 0.49663 0.0
C2061 C 0.58588 0.14903 0.47766 0.0
C2062 C 0.62349 0.11544 0.47501 0.0
C2063 C 0.61943 0.13106 0.45451 0.0
H2064 H 0.88776 0.7487 0.13398 0.0
H2065 H 0.81676 0.68932 0.13153 0.0
H2066 H 0.80789 0.70686 0.17466 0.0
H2067 H 0.81935 0.73967 0.2148 0.0
H2068 H 0.89345 0.7956 0.22005 0.0
H2069 H 0.90143 0.77926 0.17603 0.0
C2070 C 0.8703 0.73933 0.1427 0.0
C2071 C 0.85296 0.7171 0.128 0.0
C2072 C 0.86558 0.74927 0.16897 0.0
C2073 C 0.83083 0.70601 0.14116 0.0
C2074 C 0.82558 0.71629 0.16632 0.0
C2075 C 0.83735 0.74851 0.20654 0.0
C2076 C 0.85547 0.76973 0.22199 0.0
C2077 C 0.84264 0.73804 0.18073 0.0
C2078 C 0.87873 0.7797 0.20978 0.0
C2079 C 0.8834 0.77018 0.18406 0.0
H2080 H 0.15935 0.06235 0.80821 0.0
H2081 H 0.2379 0.08962 0.78301 0.0
H2082 H 0.21746 0.08379 0.73696 0.0
H2083 H 0.17632 0.07718 0.70497 0.0
H2084 H 0.09754 0.05343 0.73099 0.0
H2085 H 0.11904 0.05164 0.77588 0.0
C2086 C 0.17213 0.06659 0.79264 0.0
C2087 C 0.19999 0.07677 0.79894 0.0
C2088 C 0.16012 0.06415 0.76648 0.0
C2089 C 0.21633 0.08197 0.77859 0.0
C2090 C 0.20465 0.07876 0.75231 0.0
C2091 C 0.16399 0.07103 0.7204 0.0
C2092 C 0.13549 0.06561 0.71497 0.0
C2093 C 0.17642 0.07081 0.74617 0.0
C2094 C 0.11954 0.05794 0.73499 0.0
C2095 C 0.13181 0.0569 0.76054 0.0
H2096 H 0.85192 0.35293 0.47674 0.0
H2097 H 0.81881 0.4201 0.45518 0.0
H2098 H 0.81153 0.4036 0.40917 0.0
H2099 H 0.81643 0.37146 0.37351 0.0
H2100 H 0.84795 0.30328 0.39375 0.0
H2101 H 0.8536 0.31855 0.44057 0.0
C2102 C 0.84266 0.36375 0.46211 0.0
C2103 C 0.83622 0.38809 0.47014 0.0
C2104 C 0.83833 0.35402 0.43481 0.0
C2105 C 0.8244 0.40156 0.45022 0.0
C2106 C 0.82016 0.39212 0.42355 0.0
C2107 C 0.82431 0.35973 0.38809 0.0
C2108 C 0.83167 0.33607 0.37952 0.0
C2109 C 0.82741 0.3686 0.41538 0.0
C2110 C 0.84187 0.32146 0.39925 0.0
C2111 C 0.84524 0.33028 0.4263 0.0
H2112 H 0.53823 0.0799 0.27884 0.0
H2113 H 0.58962 0.15484 0.28229 0.0
H2114 H 0.60967 0.14081 0.24319 0.0
H2115 H 0.61203 0.10696 0.20814 0.0
H2116 H 0.56219 0.03148 0.20749 0.0
H2117 H 0.54212 0.04602 0.24589 0.0
C2118 C 0.55358 0.09334 0.27088 0.0
C2119 C 0.56217 0.11848 0.283 0.0
C2120 C 0.56545 0.08491 0.24923 0.0
C2121 C 0.58256 0.13545 0.27297 0.0
C2122 C 0.59407 0.12739 0.2508 0.0
C2123 C 0.59714 0.09361 0.21673 0.0
C2124 C 0.58844 0.06825 0.205 0.0
C2125 C 0.58575 0.10208 0.23888 0.0
C2126 C 0.56891 0.05118 0.21605 0.0
C2127 C 0.55743 0.05947 0.23794 0.0
H2128 H 0.8416 0.68547 0.93082 0.0
H2129 H 0.86246 0.75087 0.98872 0.0
H2130 H 0.86292 0.78009 0.95308 0.0
H2131 H 0.85686 0.7887 0.90357 0.0
H2132 H 0.83481 0.72216 0.84686 0.0
H2133 H 0.83555 0.69376 0.88249 0.0
C2134 C 0.84644 0.70611 0.93613 0.0
C2135 C 0.85221 0.71486 0.96403 0.0
C2136 C 0.84647 0.72354 0.91478 0.0
C2137 C 0.858 0.74232 0.96856 0.0
C2138 C 0.85824 0.75948 0.94763 0.0
C2139 C 0.85236 0.76802 0.89859 0.0
C2140 C 0.84588 0.75869 0.87073 0.0
C2141 C 0.85249 0.75065 0.92029 0.0
C2142 C 0.83996 0.7312 0.8668 0.0
C2143 C 0.84036 0.71441 0.88773 0.0
H2144 H 0.87583 0.19353 0.98284 0.0
H2145 H 0.87935 0.19722 0.06757 0.0
H2146 H 0.91321 0.16873 0.06934 0.0
H2147 H 0.93509 0.13687 0.04604 0.0
H2148 H 0.93133 0.13351 0.961 0.0
H2149 H 0.90361 0.16719 0.96011 0.0
C2150 C 0.88485 0.1889 1.00178 0.0
C2151 C 0.87514 0.1975 0.02505 0.0
C2152 C 0.90337 0.1717 1.00249 0.0
C2153 C 0.88679 0.19124 0.04943 0.0
C2154 C 0.90573 0.17448 0.05037 0.0
C2155 C 0.92882 0.14383 0.0273 0.0
C2156 C 0.93487 0.13196 1.00354 0.0
C2157 C 0.91314 0.16362 0.02691 0.0
C2158 C 0.92626 0.14141 0.97954 0.0
C2159 C 0.91066 0.16098 0.97902 0.0
H2160 H 0.40303 0.49744 0.06503 0.0
H2161 H 0.40839 0.43091 1.01372 0.0
H2162 H 0.45522 0.44996 1.00772 0.0
H2163 H 0.4966 0.48586 1.01696 0.0
H2164 H 0.49194 0.55125 0.07035 0.0
H2165 H 0.44467 0.53291 0.07496 0.0
C2166 C 0.41414 0.48708 0.0522 0.0
C2167 C 0.40059 0.46254 0.03911 0.0
C2168 C 0.44218 0.49823 0.0491 0.0
C2169 C 0.41697 0.44975 0.02369 0.0
C2170 C 0.44425 0.46081 0.02023 0.0
C2171 C 0.4854 0.4964 0.02952 0.0
C2172 C 0.49917 0.52071 0.04304 0.0
C2173 C 0.4574 0.48517 0.03273 0.0
C2174 C 0.48311 0.53294 0.05941 0.0
C2175 C 0.45556 0.52223 0.0622 0.0
H2176 H 0.38352 0.57295 0.82234 0.0
H2177 H 0.43584 0.615 0.77175 0.0
H2178 H 0.42078 0.6549 0.78576 0.0
H2179 H 0.38911 0.6766 0.80845 0.0
H2180 H 0.33495 0.63392 0.85677 0.0
H2181 H 0.35475 0.59534 0.84779 0.0
C2182 C 0.39192 0.59084 0.8145 0.0
C2183 C 0.41056 0.59086 0.79572 0.0
C2184 C 0.38284 0.61354 0.82225 0.0
C2185 C 0.42129 0.61433 0.78602 0.0
C2186 C 0.4127 0.63717 0.79403 0.0
C2187 C 0.38221 0.65904 0.81763 0.0
C2188 C 0.36073 0.65801 0.83333 0.0
C2189 C 0.39302 0.63684 0.81164 0.0
C2190 C 0.35151 0.63506 0.84465 0.0
C2191 C 0.36271 0.61304 0.8394 0.0
H2192 H 0.20097 0.69714 0.50489 0.0
H2193 H 0.25652 0.66357 0.55619 0.0
H2194 H 0.22172 0.62525 0.55746 0.0
H2195 H 0.17587 0.6 0.54239 0.0
H2196 H 0.12141 0.63223 0.48823 0.0
H2197 H 0.15511 0.67153 0.48935 0.0
C2198 C 0.20524 0.68155 0.51658 0.0
C2199 C 0.23136 0.68318 0.53032 0.0
C2200 C 0.1853 0.65894 0.51644 0.0
C2201 C 0.2366 0.66276 0.54535 0.0
C2202 C 0.21671 0.64073 0.546 0.0
C2203 C 0.17142 0.61548 0.53062 0.0
C2204 C 0.14595 0.61275 0.51515 0.0
C2205 C 0.19112 0.6383 0.53118 0.0
C2206 C 0.14076 0.63337 0.50023 0.0
C2207 C 0.16 0.65614 0.50103 0.0
H2208 H 0.72108 0.983 0.74343 0.0
H2209 H 0.74196 0.03699 0.81265 0.0
H2210 H 0.77377 1.01087 0.83153 0.0
H2211 H 0.79563 0.9724 0.82839 0.0
H2212 H 0.77613 0.91986 0.75795 0.0
H2213 H 0.74403 0.9457 0.73956 0.0
C2214 C 0.73239 0.98888 0.76277 0.0
C2215 C 0.72898 1.01172 0.77672 0.0
C2216 C 0.75109 0.97412 0.77323 0.0
C2217 C 0.74419 1.01941 0.80154 0.0
C2218 C 0.76243 1.00453 0.81233 0.0
C2219 C 0.78459 0.96683 0.8089 0.0
C2220 C 0.78804 0.94408 0.79474 0.0
C2221 C 0.76618 0.9819 0.79829 0.0
C2222 C 0.77348 0.93704 0.76951 0.0
C2223 C 0.75514 0.95181 0.75891 0.0
H2224 H 0.74116 0.97893 0.50632 0.0
H2225 H 0.74836 0.9615 0.58755 0.0
H2226 H 0.70885 0.98211 0.59443 0.0
H2227 H 0.67105 1.00721 0.57795 0.0
H2228 H 0.66138 1.01912 0.49524 0.0
H2229 H 0.70142 0.99974 0.48916 0.0
C2230 C 0.73417 0.9791 0.52566 0.0
C2231 C 0.74918 0.96763 0.54623 0.0
C2232 C 0.71015 0.99082 0.52951 0.0
C2233 C 0.73834 0.96915 0.57081 0.0
C2234 C 0.7153 0.98142 0.57488 0.0
C2235 C 0.67727 1.00547 0.55841 0.0
C2236 C 0.66161 1.01558 0.53715 0.0
C2237 C 0.70076 0.99266 0.5545 0.0
C2238 C 0.67166 1.01232 0.51238 0.0
C2239 C 0.69513 1.0009 0.50877 0.0
H2240 H 0.37835 0.46359 0.72728 0.0
H2241 H 0.46039 0.45568 0.75483 0.0
H2242 H 0.44572 0.40925 0.75704 0.0
H2243 H 0.40847 0.37335 0.75911 0.0
H2244 H 0.32571 0.38146 0.73414 0.0
H2245 H 0.3418 0.42501 0.72188 0.0
C2246 C 0.39292 0.45151 0.73345 0.0
C2247 C 0.42004 0.46288 0.74209 0.0
C2248 C 0.38424 0.42492 0.73501 0.0
C2249 C 0.4392 0.4472 0.7489 0.0
C2250 C 0.43084 0.42073 0.75013 0.0
C2251 C 0.39393 0.38438 0.75055 0.0
C2252 C 0.36586 0.3745 0.74841 0.0
C2253 C 0.40319 0.40968 0.74452 0.0
C2254 C 0.3474 0.38887 0.73661 0.0
C2255 C 0.35659 0.41377 0.72956 0.0
H2256 H 0.15777 0.58968 0.25303 0.0
H2257 H 0.2283 0.55688 0.23845 0.0
H2258 H 0.25246 0.59924 0.22943 0.0
H2259 H 0.25529 0.64621 0.23155 0.0
H2260 H 0.18549 0.67946 0.24823 0.0
H2261 H 0.15907 0.63633 0.25064 0.0
C2262 C 0.17833 0.59195 0.24762 0.0
C2263 C 0.19189 0.57086 0.24741 0.0
C2264 C 0.19217 0.61636 0.24313 0.0
C2265 C 0.2181 0.57338 0.23963 0.0
C2266 C 0.23177 0.59745 0.23435 0.0
C2267 C 0.23421 0.64391 0.23546 0.0
C2268 C 0.22236 0.66576 0.24007 0.0
C2269 C 0.21937 0.61922 0.23711 0.0
C2270 C 0.19495 0.66275 0.24467 0.0
C2271 C 0.1799 0.63817 0.24612 0.0
H2272 H 0.58057 0.69998 0.46276 0.0
H2273 H 0.49479 0.68838 0.47051 0.0
H2274 H 0.50184 0.66225 0.50769 0.0
H2275 H 0.53074 0.63753 0.53324 0.0
H2276 H 0.61633 0.6467 0.52417 0.0
H2277 H 0.61084 0.67818 0.49178 0.0
C2278 C 0.56348 0.69155 0.47262 0.0
C2279 C 0.53716 0.69569 0.46389 0.0
C2280 C 0.56745 0.67546 0.49311 0.0
C2281 C 0.51511 0.68497 0.47671 0.0
C2282 C 0.51907 0.66986 0.49774 0.0
C2283 C 0.54836 0.64666 0.52454 0.0
C2284 C 0.5739 0.63955 0.53107 0.0
C2285 C 0.54493 0.66423 0.50548 0.0
C2286 C 0.59644 0.65179 0.51961 0.0
C2287 C 0.59327 0.66966 0.50089 0.0
H2288 H 0.70619 0.40452 0.74193 0.0
H2289 H 0.75492 0.39849 0.6779 0.0
H2290 H 0.79393 0.39442 0.70929 0.0
H2291 H 0.81026 0.38293 0.75302 0.0
H2292 H 0.75831 0.38109 0.81514 0.0
H2293 H 0.72472 0.3986 0.78678 0.0
C2294 C 0.72561 0.40324 0.73491 0.0
C2295 C 0.72762 0.40158 0.70761 0.0
C2296 C 0.74728 0.39916 0.75286 0.0
C2297 C 0.75286 0.3997 0.6988 0.0
C2298 C 0.77509 0.39718 0.71675 0.0
C2299 C 0.79205 0.38728 0.76067 0.0
C2300 C 0.78667 0.38076 0.78611 0.0
C2301 C 0.77203 0.39545 0.7436 0.0
C2302 C 0.76282 0.38606 0.79565 0.0
C2303 C 0.74355 0.39582 0.77934 0.0
H2304 H 1.01566 0.29479 0.93642 0.0
H2305 H 0.03471 0.32784 0.86402 0.0
H2306 H 0.04491 0.37104 0.88732 0.0
H2307 H 0.04669 0.39941 0.92796 0.0
H2308 H 1.02562 0.36611 0.99951 0.0
H2309 H 1.01797 0.32273 0.97674 0.0
C2310 C 1.02225 0.31135 0.92567 0.0
C2311 C 1.02449 0.30803 0.89848 0.0
C2312 C 1.02766 0.33603 0.93904 0.0
C2313 C 0.03281 0.32983 0.88493 0.0
C2314 C 0.03865 0.35452 0.89824 0.0
C2315 C 0.04079 0.38258 0.93858 0.0
C2316 C 0.03685 0.38576 0.96534 0.0
C2317 C 0.03595 0.35783 0.92524 0.0
C2318 C 1.0287 0.36398 0.97888 0.0
C2319 C 1.02435 0.33927 0.96589 0.0
H2320 H 0.08374 0.82585 0.22966 0.0
H2321 H 1.02032 0.83458 0.16897 0.0
H2322 H 0.98567 0.81431 0.19544 0.0
H2323 H 0.97398 0.79745 0.2373 0.0
H2324 H 0.03808 0.7872 0.29688 0.0
H2325 H 0.07225 0.80482 0.26912 0.0
C2326 C 0.06229 0.82337 0.22229 0.0
C2327 C 0.05433 0.83221 0.19786 0.0
C2328 C 0.04283 0.81145 0.2373 0.0
C2329 C 1.02669 0.82818 0.18796 0.0
C2330 C 1.00701 0.8166 0.20304 0.0
C2331 C 0.9954 0.79839 0.24395 0.0
C2332 C 1.00351 0.79123 0.26925 0.0
C2333 C 1.01489 0.80852 0.22791 0.0
C2334 C 1.03136 0.79295 0.27768 0.0
C2335 C 0.05087 0.80301 0.26184 0.0
H2336 H 0.59357 0.40666 0.14827 0.0
H2337 H 0.55254 0.36166 0.07752 0.0
H2338 H 0.55552 0.40045 0.05413 0.0
H2339 H 0.56887 0.44919 0.05135 0.0
H2340 H 0.60692 0.49549 0.12218 0.0
H2341 H 0.60575 0.45637 0.14579 0.0
C2342 C 0.58524 0.40481 0.1277 0.0
C2343 C 0.57285 0.3789 0.11568 0.0
C2344 C 0.58641 0.42871 0.11335 0.0
C2345 C 0.56239 0.37958 0.08864 0.0
C2346 C 0.56405 0.40252 0.07468 0.0
C2347 C 0.57722 0.45122 0.07194 0.0
C2348 C 0.58846 0.47727 0.08389 0.0
C2349 C 0.57595 0.42759 0.08643 0.0
C2350 C 0.59825 0.47718 0.11117 0.0
C2351 C 0.59755 0.4541 0.12515 0.0
H2352 H 1.00296 0.32692 0.40734 0.0
H2353 H 1.02555 0.27037 0.35339 0.0
H2354 H 0.98184 0.26733 0.3258 0.0
H2355 H 0.93582 0.28098 0.31567 0.0
H2356 H 0.9163 0.34163 0.36691 0.0
H2357 H 0.95882 0.34278 0.39558 0.0
C2358 C 0.99853 0.31389 0.38953 0.0
C2359 C 1.01872 0.29906 0.3829 0.0
C2360 C 0.97311 0.31292 0.37272 0.0
C2361 C 1.01142 0.28237 0.35945 0.0
C2362 C 0.986 0.28058 0.34344 0.0
C2363 C 0.94068 0.29451 0.33309 0.0
C2364 C 0.92163 0.31112 0.33863 0.0
C2365 C 0.96644 0.29581 0.34959 0.0
C2366 C 0.92965 0.32853 0.36149 0.0
C2367 C 0.95431 0.32915 0.37823 0.0
H2368 H 0.05502 0.72746 0.58516 0.0
H2369 H 0.08899 0.71407 0.66286 0.0
H2370 H 0.09287 0.67023 0.64672 0.0
H2371 H 0.0874 0.63343 0.61001 0.0
H2372 H 0.05151 0.64642 0.53282 0.0
H2373 H 0.048 0.69025 0.54896 0.0
C2374 C 0.06323 0.71518 0.59891 0.0
C2375 C 0.07161 0.72581 0.62604 0.0
C2376 C 0.06528 0.68867 0.58925 0.0
C2377 C 0.08208 0.70797 0.64227 0.0
C2378 C 0.08443 0.68224 0.63281 0.0
C2379 C 0.07868 0.64556 0.59641 0.0
C2380 C 0.06981 0.63483 0.56935 0.0
C2381 C 0.07621 0.67194 0.60623 0.0
C2382 C 0.05865 0.65248 0.55337 0.0
C2383 C 0.05661 0.67827 0.56279 0.0
H2384 H 0.65292 0.8065 0.83953 0.0
H2385 H 0.68633 0.80444 0.92027 0.0
H2386 H 0.73145 0.80364 0.90563 0.0
H2387 H 0.76359 0.80404 0.86926 0.0
H2388 H 0.72794 0.80091 0.78844 0.0
H2389 H 0.68354 0.80313 0.8035 0.0
C2390 C 0.6698 0.80568 0.85429 0.0
C2391 C 0.66461 0.80564 0.88172 0.0
C2392 C 0.69642 0.80439 0.84538 0.0
C2393 C 0.68811 0.80442 0.89936 0.0
C2394 C 0.71454 0.80406 0.89075 0.0
C2395 C 0.74627 0.80383 0.85466 0.0
C2396 C 0.75072 0.80258 0.82694 0.0
C2397 C 0.71937 0.80414 0.86372 0.0
C2398 C 0.72665 0.80193 0.80948 0.0
C2399 C 0.70067 0.80323 0.8183 0.0
H2400 H 0.50557 0.58798 0.71192 0.0
H2401 H 0.43208 0.55079 0.66307 0.0
H2402 H 0.45417 0.56014 0.62344 0.0
H2403 H 0.49634 0.57205 0.60351 0.0
H2404 H 0.57085 0.60595 0.65268 0.0
H2405 H 0.54617 0.60508 0.69153 0.0
C2406 C 0.49417 0.58232 0.6926 0.0
C2407 C 0.46739 0.56823 0.69039 0.0
C2408 C 0.50731 0.58688 0.67007 0.0
C2409 C 0.45275 0.56147 0.66527 0.0
C2410 C 0.46545 0.56664 0.64265 0.0
C2411 C 0.50718 0.57956 0.62269 0.0
C2412 C 0.53555 0.58845 0.62537 0.0
C2413 C 0.49307 0.57823 0.64492 0.0
C2414 C 0.54911 0.59877 0.65016 0.0
C2415 C 0.53502 0.59813 0.67237 0.0
H2416 H 0.84006 0.26605 0.96219 0.0
H2417 H 0.75257 0.24984 0.95656 0.0
H2418 H 0.74941 0.26911 0.91428 0.0
H2419 H 0.77159 0.28774 0.87666 0.0
H2420 H 0.85936 0.30601 0.88388 0.0
H2421 H 0.86217 0.28909 0.92701 0.0
C2422 C 0.82032 0.26751 0.95214 0.0
C2423 C 0.79657 0.25679 0.96299 0.0
C2424 C 0.81864 0.27867 0.92753 0.0
C2425 C 0.7712 0.25819 0.94905 0.0
C2426 C 0.76938 0.26908 0.92464 0.0
C2427 C 0.79135 0.28829 0.88772 0.0
C2428 C 0.8152 0.29795 0.87629 0.0
C2429 C 0.79296 0.2789 0.91328 0.0
C2430 C 0.84051 0.29854 0.89151 0.0
C2431 C 0.84222 0.28885 0.91647 0.0
H2432 H 0.16153 0.52078 0.19164 0.0
H2433 H 0.1039 0.44953 0.18722 0.0
H2434 H 0.08103 0.46045 0.14541 0.0
H2435 H 0.07644 0.49218 0.11139 0.0
H2436 H 0.13047 0.56617 0.12254 0.0
H2437 H 0.15533 0.5526 0.16088 0.0
C2438 C 0.1443 0.50727 0.1813 0.0
C2439 C 0.13492 0.48398 0.192 0.0
C2440 C 0.13019 0.51463 0.15884 0.0
C2441 C 0.1119 0.46725 0.17892 0.0
C2442 C 0.09868 0.47369 0.15526 0.0
C2443 C 0.09348 0.50531 0.12247 0.0
C2444 C 0.10148 0.53022 0.11422 0.0
C2445 C 0.10735 0.49764 0.14529 0.0
C2446 C 0.12359 0.54709 0.12867 0.0
C2447 C 0.13806 0.53925 0.15045 0.0
H2448 H 0.81446 0.92009 0.44107 0.0
H2449 H 0.83424 0.86433 0.49442 0.0
H2450 H 0.84141 0.83576 0.4568 0.0
H2451 H 0.84319 0.82574 0.40722 0.0
H2452 H 0.82022 0.88096 0.3545 0.0
H2453 H 0.81358 0.9092 0.39216 0.0
C2454 C 0.82004 0.90158 0.44483 0.0
C2455 C 0.82339 0.89513 0.47187 0.0
C2456 C 0.82395 0.88455 0.42242 0.0
C2457 C 0.83094 0.87061 0.47479 0.0
C2458 C 0.8353 0.85401 0.45282 0.0
C2459 C 0.83675 0.84393 0.40369 0.0
C2460 C 0.83263 0.8505 0.37666 0.0
C2461 C 0.83209 0.86059 0.42627 0.0
C2462 C 0.82385 0.87451 0.37403 0.0
C2463 C 0.81996 0.89104 0.39601 0.0
H2464 H 0.51531 0.54452 0.80517 0.0
H2465 H 0.46456 0.48939 0.84615 0.0
H2466 H 0.50442 0.48347 0.87498 0.0
H2467 H 0.5526 0.49562 0.89004 0.0
H2468 H 0.60322 0.55373 0.85278 0.0
H2469 H 0.56433 0.55634 0.82014 0.0
C2470 C 0.51294 0.53115 0.82037 0.0
C2471 C 0.48696 0.51738 0.82348 0.0
C2472 C 0.53588 0.5281 0.83711 0.0
C2473 C 0.48424 0.5003 0.84338 0.0
C2474 C 0.50704 0.49677 0.85976 0.0
C2475 C 0.55538 0.50824 0.87421 0.0
C2476 C 0.58079 0.52394 0.87317 0.0
C2477 C 0.53283 0.51063 0.85682 0.0
C2478 C 0.58392 0.54105 0.85339 0.0
C2479 C 0.56166 0.54275 0.83509 0.0
H2480 H 0.83841 0.28907 0.11936 0.0
H2481 H 0.80574 0.20993 0.13083 0.0
H2482 H 0.81258 0.22008 0.17851 0.0
H2483 H 0.82663 0.2514 0.21763 0.0
H2484 H 0.86044 0.33043 0.20721 0.0
H2485 H 0.85467 0.32032 0.15928 0.0
C2486 C 0.83287 0.274 0.13225 0.0
C2487 C 0.82139 0.24863 0.12095 0.0
C2488 C 0.83713 0.27995 0.16024 0.0
C2489 C 0.81456 0.22957 0.13844 0.0
C2490 C 0.81846 0.23537 0.16596 0.0
C2491 C 0.83296 0.26649 0.20503 0.0
C2492 C 0.84403 0.29179 0.21662 0.0
C2493 C 0.82958 0.2605 0.17719 0.0
C2494 C 0.85204 0.31078 0.19937 0.0
C2495 C 0.84858 0.305 0.17172 0.0
H2496 H 0.1414 0.58117 0.3235 0.0
H2497 H 0.10089 0.50215 0.32304 0.0
H2498 H 0.06413 0.5167 0.3446 0.0
H2499 H 0.04652 0.5514 0.3673 0.0
H2500 H 0.08752 0.63053 0.36836 0.0
H2501 H 0.1212 0.61641 0.34206 0.0
C2502 C 0.12474 0.56712 0.32834 0.0
C2503 C 0.12426 0.54061 0.3225 0.0
C2504 C 0.10372 0.57568 0.34038 0.0
C2505 C 0.10186 0.52265 0.32781 0.0
C2506 C 0.08085 0.53097 0.33999 0.0
C2507 C 0.06218 0.56576 0.36098 0.0
C2508 C 0.0645 0.59205 0.36974 0.0
C2509 C 0.08185 0.55741 0.34672 0.0
C2510 C 0.08533 0.61023 0.36183 0.0
C2511 C 0.1047 0.60212 0.34707 0.0
H2512 H 0.80999 0.85719 0.6226 0.0
H2513 H 0.83886 0.93488 0.65747 0.0
H2514 H 0.84152 0.91887 0.70154 0.0
H2515 H 0.83643 0.88203 0.73246 0.0
H2516 H 0.80772 0.80456 0.69634 0.0
H2517 H 0.80454 0.82097 0.65297 0.0
C2518 C 0.81683 0.87095 0.63965 0.0
C2519 C 0.82408 0.89797 0.63514 0.0
C2520 C 0.8185 0.86133 0.66598 0.0
C2521 C 0.83292 0.91432 0.65883 0.0
C2522 C 0.83451 0.90494 0.68466 0.0
C2523 C 0.82928 0.86847 0.71531 0.0
C2524 C 0.82226 0.84122 0.71943 0.0
C2525 C 0.82745 0.87835 0.68893 0.0
C2526 C 0.81336 0.82523 0.6955 0.0
C2527 C 0.8115 0.83479 0.66995 0.0
H2528 H 0.79423 0.45098 0.59626 0.0
H2529 H 0.76779 0.4441 0.51282 0.0
H2530 H 0.73245 0.46965 0.5202 0.0
H2531 H 0.71278 0.49822 0.54972 0.0
H2532 H 0.7412 0.50761 0.63299 0.0
H2533 H 0.77166 0.47678 0.62648 0.0
C2534 C 0.77999 0.45428 0.57988 0.0
C2535 C 0.78314 0.44519 0.55408 0.0
C2536 C 0.76046 0.46999 0.58421 0.0
C2537 C 0.7653 0.45042 0.53288 0.0
C2538 C 0.74535 0.46532 0.53708 0.0
C2539 C 0.72561 0.49353 0.56648 0.0
C2540 C 0.72483 0.50558 0.59178 0.0
C2541 C 0.74339 0.47599 0.56254 0.0
C2542 C 0.74122 0.49869 0.61331 0.0
C2543 C 0.75878 0.48109 0.60958 0.0
H2544 H 0.27699 0.11453 0.55343 0.0
H2545 H 0.25465 0.16598 0.49636 0.0
H2546 H 0.20696 0.14447 0.49321 0.0
H2547 H 0.16938 0.11136 0.50742 0.0
H2548 H 0.19076 0.06365 0.56866 0.0
H2549 H 0.23904 0.08261 0.56909 0.0
C2550 C 0.26192 0.12092 0.53989 0.0
C2551 C 0.27092 0.14187 0.52424 0.0
C2552 C 0.23331 0.10883 0.53898 0.0
C2553 C 0.24967 0.14984 0.5081 0.0
C2554 C 0.22185 0.13742 0.50641 0.0
C2555 C 0.18445 0.10478 0.52082 0.0
C2556 C 0.17512 0.08512 0.53778 0.0
C2557 C 0.21303 0.11686 0.52179 0.0
C2558 C 0.19611 0.07816 0.55514 0.0
C2559 C 0.22424 0.08924 0.55542 0.0
H2560 H 0.23932 0.02673 0.86129 0.0
H2561 H 0.31205 0.06009 0.91341 0.0
H2562 H 0.33462 0.02528 0.89816 0.0
H2563 H 0.33507 0.98761 0.86691 0.0
H2564 H 0.26269 0.95602 0.81371 0.0
H2565 H 0.23871 0.98799 0.83252 0.0
C2566 C 0.25998 0.02629 0.86971 0.0
C2567 C 0.27399 0.04626 0.88831 0.0
C2568 C 0.27308 1.00669 0.86035 0.0
C2569 C 0.30071 0.04508 0.89903 0.0
C2570 C 0.31375 0.02527 0.89015 0.0
C2571 C 0.31407 0.98779 0.85946 0.0
C2572 C 0.30074 0.96956 0.83885 0.0
C2573 C 0.3004 1.00642 0.87023 0.0
C2574 C 0.27336 0.96971 0.82968 0.0
C2575 C 0.25965 0.98804 0.84036 0.0
H2576 H 0.42684 0.96759 0.08151 0.0
H2577 H 0.44398 0.91326 0.02166 0.0
H2578 H 0.48758 0.9413 1.01804 0.0
H2579 H 0.51763 0.98379 0.02785 0.0
H2580 H 0.50224 0.03728 0.08947 0.0
H2581 H 0.46118 1.007 0.09679 0.0
C2582 C 0.44037 0.96182 0.06794 0.0
C2583 C 0.43194 0.93895 0.0511 0.0
C2584 C 0.46551 0.97793 0.06626 0.0
C2585 C 0.4499 0.93107 0.03433 0.0
C2586 C 0.47476 0.94711 0.03227 0.0
C2587 C 0.50544 0.98864 0.04313 0.0
C2588 C 0.51248 1.01293 0.05773 0.0
C2589 C 0.48226 0.97101 0.04742 0.0
C2590 C 0.49704 1.01879 0.0779 0.0
C2591 C 0.47359 1.00148 0.08202 0.0
H2592 H 0.97248 0.65945 0.77535 0.0
H2593 H 0.96223 0.71184 0.84034 0.0
H2594 H 0.93125 0.73164 0.81108 0.0
H2595 H 0.90038 0.72757 0.77001 0.0
H2596 H 0.90375 0.66891 0.70833 0.0
H2597 H 0.94443 0.658 0.73292 0.0
C2598 C 0.9643 0.67592 0.7828 0.0
C2599 C 0.96984 0.68455 0.80979 0.0
C2600 C 0.94487 0.68558 0.76645 0.0
C2601 C 0.95847 0.70523 0.81955 0.0
C2602 C 0.94057 0.71628 0.80289 0.0
C2603 C 0.9107 0.71302 0.76164 0.0
C2604 C 0.89958 0.6992 0.73738 0.0
C2605 C 0.93263 0.70571 0.77672 0.0
C2606 C 0.91235 0.6799 0.72683 0.0
C2607 C 0.93538 0.67359 0.741 0.0
H2608 H 0.91431 0.6066 0.01854 0.0
H2609 H 0.94893 0.67862 0.06375 0.0
H2610 H 0.99331 0.66439 0.06948 0.0
H2611 H 1.02471 0.63082 0.06182 0.0
H2612 H 0.98784 0.55799 0.01894 0.0
H2613 H 0.94439 0.57298 1.01267 0.0
C2614 C 0.93132 0.61957 0.02977 0.0
C2615 C 0.92649 0.6445 0.0404 0.0
C2616 C 0.95769 0.61077 0.03362 0.0
C2617 C 0.95027 0.65969 0.05497 0.0
C2618 C 0.97634 0.65132 0.0583 0.0
C2619 C 1.00736 0.61789 0.05109 0.0
C2620 C 1.01141 0.59238 0.04099 0.0
C2621 C 0.98078 0.62678 0.04777 0.0
C2622 C 0.98712 0.57722 0.02737 0.0
C2623 C 0.96155 0.58602 0.02362 0.0
H2624 H 0.2894 0.15689 0.85738 0.0
H2625 H 0.22367 0.19247 0.88116 0.0
H2626 H 0.24395 0.23329 0.86474 0.0
H2627 H 0.27855 0.2573 0.84033 0.0
H2628 H 0.34441 0.22094 0.81727 0.0
H2629 H 0.32625 0.18203 0.8374 0.0
C2630 C 0.28012 0.1739 0.8599 0.0
C2631 C 0.25564 0.17211 0.87113 0.0
C2632 C 0.29174 0.19696 0.85028 0.0
C2633 C 0.24291 0.19376 0.87306 0.0
C2634 C 0.25441 0.21695 0.86356 0.0
C2635 C 0.28901 0.24092 0.83984 0.0
C2636 C 0.31258 0.2419 0.82695 0.0
C2637 C 0.27851 0.21855 0.85155 0.0
C2638 C 0.32613 0.22066 0.82687 0.0
C2639 C 0.31576 0.19837 0.83835 0.0
H2640 H 0.53639 0.04657 0.3954 0.0
H2641 H 0.49676 0.0689 0.32372 0.0
H2642 H 0.47201 0.02515 0.31279 0.0
H2643 H 0.45712 0.98242 0.32602 0.0
H2644 H 0.49222 0.9594 0.39921 0.0
H2645 H 0.5234 1.00128 0.4072 0.0
C2646 C 0.52266 0.04153 0.37727 0.0
C2647 C 0.51806 0.06077 0.3605 0.0
C2648 C 0.50763 1.01628 0.37145 0.0
C2649 C 0.50034 0.05431 0.33699 0.0
C2650 C 0.48617 0.02933 0.33071 0.0
C2651 C 0.47217 0.98621 0.34333 0.0
C2652 C 0.47261 0.96791 0.36193 0.0
C2653 C 0.48903 1.01039 0.34813 0.0
C2654 C 0.49169 0.97334 0.38464 0.0
C2655 C 0.5094 0.99723 0.38919 0.0
H2656 H 0.59828 0.40745 0.58437 0.0
H2657 H 0.66068 0.45091 0.64296 0.0
H2658 H 0.64577 0.49077 0.63188 0.0
H2659 H 0.61489 0.51325 0.60697 0.0
H2660 H 0.55237 0.47142 0.54779 0.0
H2661 H 0.56786 0.43083 0.55756 0.0
C2662 C 0.60889 0.42567 0.59448 0.0
C2663 C 0.63054 0.42601 0.61465 0.0
C2664 C 0.60023 0.44876 0.58799 0.0
C2665 C 0.64401 0.44989 0.62742 0.0
C2666 C 0.63551 0.47278 0.62111 0.0
C2667 C 0.60436 0.49529 0.59623 0.0
C2668 C 0.5821 0.4953 0.57699 0.0
C2669 C 0.61349 0.47238 0.60174 0.0
C2670 C 0.56935 0.47188 0.56287 0.0
C2671 C 0.57825 0.44874 0.56843 0.0
H2672 H 0.47397 0.78444 0.38386 0.0
H2673 H 0.43519 0.70578 0.36035 0.0
H2674 H 0.39576 0.72087 0.33784 0.0
H2675 H 0.375 0.75681 0.32081 0.0
H2676 H 0.41761 0.8353 0.34015 0.0
H2677 H 0.45309 0.82004 0.36777 0.0
C2678 C 0.45673 0.77069 0.37393 0.0
C2679 C 0.45751 0.74419 0.373 0.0
C2680 C 0.43498 0.77956 0.36009 0.0
C2681 C 0.43505 0.72633 0.36066 0.0
C2682 C 0.41258 0.73497 0.3479 0.0
C2683 C 0.392 0.77055 0.33115 0.0
C2684 C 0.39379 0.79714 0.32806 0.0
C2685 C 0.41274 0.76159 0.34672 0.0
C2686 C 0.41592 0.8147 0.34172 0.0
C2687 C 0.43612 0.80604 0.3578 0.0
H2688 H 0.12792 0.79064 0.19388 0.0
H2689 H 0.17585 0.82991 0.13862 0.0
H2690 H 0.18673 0.78881 0.12156 0.0
H2691 H 0.17657 0.74152 0.11797 0.0
H2692 H 0.12442 0.70197 0.1701 0.0
H2693 H 0.1216 0.74326 0.19326 0.0
C2694 C 0.14093 0.79003 0.17826 0.0
C2695 C 0.1502 0.81268 0.16657 0.0
C2696 C 0.14623 0.76634 0.16806 0.0
C2697 C 0.16774 0.81227 0.14702 0.0
C2698 C 0.17408 0.7889 0.13748 0.0
C2699 C 0.16482 0.74195 0.13458 0.0
C2700 C 0.1503 0.71883 0.142 0.0
C2701 C 0.1624 0.76573 0.14705 0.0
C2702 C 0.13575 0.71953 0.16399 0.0
C2703 C 0.13397 0.74313 0.17712 0.0
H2704 H 0.09628 0.25567 0.87934 0.0
H2705 H 0.06268 0.20708 0.80842 0.0
H2706 H 0.10644 0.21593 0.7908 0.0
H2707 H 0.15168 0.24245 0.79287 0.0
H2708 H 0.18394 0.29462 0.86181 0.0
H2709 H 0.14357 0.27918 0.88316 0.0
C2710 C 0.09894 0.24639 0.86045 0.0
C2711 C 0.07657 0.23071 0.84515 0.0
C2712 C 0.12373 0.25264 0.84991 0.0
C2713 C 0.07983 0.21914 0.82046 0.0
C2714 C 0.10472 0.22437 0.81033 0.0
C2715 C 0.1499 0.25039 0.8126 0.0
C2716 C 0.17047 0.26998 0.82553 0.0
C2717 C 0.12638 0.24198 0.82439 0.0
C2718 C 0.16831 0.27955 0.8514 0.0
C2719 C 0.14519 0.27082 0.86357 0.0
H2720 H 0.59208 0.72898 0.99695 0.0
H2721 H 0.57749 0.6994 0.91526 0.0
H2722 H 0.57565 0.65532 0.9285 0.0
H2723 H 0.578 0.62231 0.96368 0.0
H2724 H 0.59136 0.65248 0.0453 0.0
H2725 H 0.5936 0.69624 0.03184 0.0
C2726 C 0.58851 0.71317 0.98165 0.0
C2727 C 0.58511 0.71954 0.95428 0.0
C2728 C 0.58711 0.68645 0.98968 0.0
C2729 C 0.58037 0.697 0.93618 0.0
C2730 C 0.57926 0.67099 0.94396 0.0
C2731 C 0.58135 0.63817 0.9789 0.0
C2732 C 0.58438 0.63195 1.00641 0.0
C2733 C 0.58255 0.66492 0.97075 0.0
C2734 C 0.58872 0.65462 0.02432 0.0
C2735 C 0.5901 0.68052 1.01644 0.0
H2736 H 0.17888 0.83784 0.68319 0.0
H2737 H 0.12864 0.7902 0.73075 0.0
H2738 H 0.16929 0.78556 0.75995 0.0
H2739 H 0.22092 0.79442 0.77292 0.0
H2740 H 0.27002 0.84491 0.72653 0.0
H2741 H 0.22948 0.84874 0.69748 0.0
C2742 C 0.17654 0.8265 0.69999 0.0
C2743 C 0.14949 0.81471 0.70423 0.0
C2744 C 0.20066 0.82421 0.71757 0.0
C2745 C 0.14827 0.80003 0.72649 0.0
C2746 C 0.17197 0.79721 0.74342 0.0
C2747 C 0.22304 0.80631 0.75651 0.0
C2748 C 0.24997 0.81919 0.75269 0.0
C2749 C 0.19861 0.80912 0.73938 0.0
C2750 C 0.25064 0.83457 0.73089 0.0
C2751 C 0.227 0.83682 0.71383 0.0
H2752 H 0.0926 0.40817 0.41863 0.0
H2753 H 0.10262 0.36824 0.48883 0.0
H2754 H 0.10167 0.40845 0.51591 0.0
H2755 H 0.09731 0.45683 0.52091 0.0
H2756 H 0.08541 0.49479 0.44949 0.0
H2757 H 0.08772 0.45504 0.42332 0.0
C2758 C 0.09473 0.4078 0.43989 0.0
C2759 C 0.09798 0.38357 0.45074 0.0
C2760 C 0.09375 0.43168 0.45591 0.0
C2761 C 0.1003 0.38534 0.47881 0.0
C2762 C 0.09969 0.40891 0.49466 0.0
C2763 C 0.09537 0.45681 0.49962 0.0
C2764 C 0.09132 0.48066 0.48809 0.0
C2765 C 0.09637 0.43258 0.48371 0.0
C2766 C 0.08861 0.4782 0.46003 0.0
C2767 C 0.08994 0.45487 0.44461 0.0
H2768 H 0.51053 0.32218 0.22541 0.0
H2769 H 0.46555 0.27788 0.15593 0.0
H2770 H 0.42419 0.27326 0.17733 0.0
H2771 H 0.39779 0.28152 0.21584 0.0
H2772 H 0.44065 0.32875 0.28427 0.0
H2773 H 0.48318 0.33202 0.26391 0.0
C2774 C 0.4919 0.31132 0.21467 0.0
C2775 C 0.49306 0.30017 0.18803 0.0
C2776 C 0.46645 0.30911 0.22735 0.0
C2777 C 0.46716 0.28678 0.17585 0.0
C2778 C 0.44271 0.28405 0.18837 0.0
C2779 C 0.41628 0.29253 0.22672 0.0
C2780 C 0.41444 0.30457 0.25268 0.0
C2781 C 0.44162 0.29506 0.21419 0.0
C2782 C 0.43987 0.31889 0.26488 0.0
C2783 C 0.46484 0.32084 0.25292 0.0
H2784 H 0.66398 0.58744 0.42458 0.0
H2785 H 0.73259 0.59172 0.48435 0.0
H2786 H 0.70148 0.57648 0.51614 0.0
H2787 H 0.65484 0.56347 0.52696 0.0
H2788 H 0.58664 0.56144 0.4674 0.0
H2789 H 0.61793 0.57369 0.435 0.0
C2790 C 0.67231 0.58503 0.44453 0.0
C2791 C 0.70064 0.59077 0.45208 0.0
C2792 C 0.65443 0.57641 0.46254 0.0
C2793 C 0.71089 0.58761 0.47807 0.0
C2794 C 0.69313 0.57877 0.49618 0.0
C2795 C 0.64681 0.56533 0.5068 0.0
C2796 C 0.61847 0.56153 0.49953 0.0
C2797 C 0.66487 0.57322 0.4886 0.0
C2798 C 0.60836 0.56423 0.47342 0.0
C2799 C 0.62622 0.57138 0.45498 0.0
H2800 H 0.36999 0.9133 0.15052 0.0
H2801 H 0.33769 0.8376 0.11144 0.0
H2802 H 0.33494 0.81977 0.1542 0.0
H2803 H 0.34097 0.82523 0.20295 0.0
H2804 H 0.37171 0.90087 0.24277 0.0
H2805 H 0.37586 0.9188 0.19997 0.0
C2806 C 0.36234 0.89288 0.15129 0.0
C2807 C 0.35407 0.87693 0.12728 0.0
C2808 C 0.36061 0.88258 0.17635 0.0
C2809 C 0.34419 0.85052 0.12916 0.0
C2810 C 0.34264 0.84023 0.1538 0.0
C2811 C 0.34889 0.84564 0.20247 0.0
C2812 C 0.35632 0.86147 0.22661 0.0
C2813 C 0.35077 0.856 0.17757 0.0
C2814 C 0.36603 0.88797 0.22494 0.0
C2815 C 0.36832 0.89831 0.20028 0.0
H2816 H 0.07061 0.63303 0.89431 0.0
H2817 H 1.00947 0.65672 0.93927 0.0
H2818 H 1.02943 0.63929 0.97817 0.0
H2819 H 0.05719 0.60889 0.9958 0.0
H2820 H 0.11689 0.58326 0.95067 0.0
H2821 H 0.10431 0.60969 0.91506 0.0
C2822 C 0.06216 0.63528 0.91282 0.0
C2823 C 0.03792 0.64535 0.91357 0.0
C2824 C 0.0729 0.62404 0.93473 0.0
C2825 C 1.02777 0.64861 0.93795 0.0
C2826 C 0.03895 0.63831 0.96014 0.0
C2827 C 0.06772 0.60949 0.97831 0.0
C2828 C 0.08736 0.59384 0.97526 0.0
C2829 C 0.06029 0.62452 0.95815 0.0
C2830 C 0.10143 0.59501 0.95301 0.0
C2831 C 0.09424 0.61009 0.93279 0.0
H2832 H 0.33264 0.24936 0.60741 0.0
H2833 H 0.37417 0.18905 0.63398 0.0
H2834 H 0.37595 0.20675 0.67988 0.0
H2835 H 0.36568 0.23975 0.7145 0.0
H2836 H 0.31921 0.29674 0.68812 0.0
H2837 H 0.31953 0.2804 0.64217 0.0
C2838 C 0.3423 0.23996 0.62306 0.0
C2839 C 0.35377 0.2175 0.61582 0.0
C2840 C 0.34232 0.24993 0.65049 0.0
C2841 C 0.36532 0.20611 0.63765 0.0
C2842 C 0.36633 0.21642 0.66444 0.0
C2843 C 0.35552 0.2488 0.69888 0.0
C2844 C 0.34253 0.27027 0.70621 0.0
C2845 C 0.35491 0.23841 0.67149 0.0
C2846 C 0.32944 0.28059 0.68444 0.0
C2847 C 0.32967 0.27109 0.65759 0.0
H2848 H 0.65358 0.5665 0.31461 0.0
H2849 H 0.7323 0.58472 0.2867 0.0
H2850 H 0.71065 0.579 0.24107 0.0
H2851 H 0.66924 0.57409 0.20989 0.0
H2852 H 0.5905 0.55945 0.23811 0.0
H2853 H 0.61228 0.55848 0.28312 0.0
C2854 C 0.66604 0.56875 0.29852 0.0
C2855 C 0.69443 0.57618 0.30389 0.0
C2856 C 0.65342 0.56637 0.27254 0.0
C2857 C 0.71036 0.57916 0.28294 0.0
C2858 C 0.69801 0.57597 0.25692 0.0
C2859 C 0.65689 0.57012 0.22585 0.0
C2860 C 0.62842 0.56685 0.22093 0.0
C2861 C 0.66954 0.57036 0.25159 0.0
C2862 C 0.61251 0.56216 0.24167 0.0
C2863 C 0.62493 0.5616 0.26729 0.0
H2864 H 0.35677 0.85224 0.97266 0.0
H2865 H 0.31896 0.9179 0.95567 0.0
H2866 H 0.30884 0.90205 0.90944 0.0
H2867 H 0.31269 0.87106 0.87225 0.0
H2868 H 0.34905 0.80444 0.88813 0.0
H2869 H 0.35739 0.8189 0.9352 0.0
C2870 C 0.3458 0.86279 0.959 0.0
C2871 C 0.33882 0.88651 0.96828 0.0
C2872 C 0.3399 0.85349 0.93163 0.0
C2873 C 0.32488 0.89977 0.94964 0.0
C2874 C 0.31905 0.89073 0.92288 0.0
C2875 C 0.32222 0.8595 0.88596 0.0
C2876 C 0.33012 0.83653 0.8761 0.0
C2877 C 0.32685 0.86787 0.9134 0.0
C2878 C 0.34248 0.82209 0.89468 0.0
C2879 C 0.34739 0.83043 0.92185 0.0
H2880 H 0.08043 0.62306 0.78116 0.0
H2881 H 0.99836 0.58925 0.74766 0.0
H2882 H 1.01555 0.57063 0.70953 0.0
H2883 H 0.05334 0.56333 0.68615 0.0
H2884 H 0.13551 0.59897 0.71684 0.0
H2885 H 0.11891 0.61659 0.75646 0.0
C2886 C 0.06634 0.61184 0.76536 0.0
C2887 C 0.03818 0.60755 0.76718 0.0
C2888 C 0.07637 0.60111 0.7434 0.0
C2889 C 1.02012 0.59288 0.74669 0.0
C2890 C 1.02992 0.58208 0.72496 0.0
C2891 C 0.06766 0.57518 0.70138 0.0
C2892 C 0.09551 0.58021 0.69849 0.0
C2893 C 0.05793 0.58595 0.72324 0.0
C2894 C 0.11394 0.59481 0.71874 0.0
C2895 C 0.10443 0.6051 0.74117 0.0
H2896 H 0.35224 0.24488 0.46216 0.0
H2897 H 0.34094 0.16811 0.42304 0.0
H2898 H 0.33875 0.1858 0.38042 0.0
H2899 H 0.33928 0.22313 0.35108 0.0
H2900 H 0.35151 0.30023 0.38913 0.0
H2901 H 0.35388 0.28279 0.43237 0.0
C2902 C 0.34939 0.23166 0.44457 0.0
C2903 C 0.34688 0.20411 0.4479 0.0
C2904 C 0.34816 0.24238 0.41839 0.0
C2905 C 0.34313 0.1889 0.42315 0.0
C2906 C 0.34178 0.19924 0.39788 0.0
C2907 C 0.34258 0.23651 0.3686 0.0
C2908 C 0.3452 0.26392 0.365 0.0
C2909 C 0.34417 0.22601 0.39473 0.0
C2910 C 0.34941 0.27947 0.38951 0.0
C2911 C 0.35076 0.26924 0.41499 0.0
H2912 H 0.36839 0.68701 0.56077 0.0
H2913 H 0.37607 0.70901 0.4819 0.0
H2914 H 0.40991 0.68134 0.47698 0.0
H2915 H 0.43042 0.64542 0.49201 0.0
H2916 H 0.42499 0.6244 0.57194 0.0
H2917 H 0.39628 0.65636 0.57899 0.0
C2918 C 0.37857 0.68673 0.54307 0.0
C2919 C 0.3701 0.70033 0.52187 0.0
C2920 C 0.3973 0.66993 0.54001 0.0
C2921 C 0.38272 0.69912 0.49866 0.0
C2922 C 0.40165 0.68289 0.49567 0.0
C2923 C 0.42384 0.64807 0.51134 0.0
C2924 C 0.42964 0.63158 0.53107 0.0
C2925 C 0.40808 0.66726 0.51574 0.0
C2926 C 0.42014 0.63569 0.55576 0.0
C2927 C 0.40398 0.6544 0.56007 0.0
H2928 H 0.90253 1.00184 0.56823 0.0
H2929 H 0.90912 0.9304 0.52566 0.0
H2930 H 0.9558 0.94848 0.51843 0.0
H2931 H 0.99658 0.98479 0.52405 0.0
H2932 H 0.99061 0.05593 0.56771 0.0
H2933 H 0.94356 0.03824 0.57403 0.0
C2934 C 0.91386 0.99019 0.55699 0.0
C2935 C 0.90075 0.96448 0.54677 0.0
C2936 C 0.94177 1.00089 0.55304 0.0
C2937 C 0.91738 0.95013 0.53338 0.0
C2938 C 0.94456 0.96061 0.52922 0.0
C2939 C 0.98516 0.9967 0.53489 0.0
C2940 C 0.99844 0.02233 0.54517 0.0
C2941 C 0.95729 0.98605 0.53886 0.0
C2942 C 0.98211 0.03648 0.5593 0.0
C2943 C 0.95471 0.02617 0.56306 0.0
H2944 H 0.83399 0.06175 0.22661 0.0
H2945 H 0.91373 0.10857 0.22811 0.0
H2946 H 0.8938 0.1478 0.2321 0.0
H2947 H 0.85495 0.16811 0.24248 0.0
H2948 H 0.77665 0.12052 0.24554 0.0
H2949 H 0.79469 0.08197 0.23206 0.0
C2950 C 0.84708 0.08052 0.22755 0.0
C2951 C 0.87541 0.0823 0.22774 0.0
C2952 C 0.83567 0.10274 0.2307 0.0
C2953 C 0.89191 0.10672 0.22822 0.0
C2954 C 0.88054 0.12911 0.23061 0.0
C2955 C 0.84172 0.14934 0.23932 0.0
C2956 C 0.81455 0.1469 0.24477 0.0
C2957 C 0.85262 0.12728 0.23289 0.0
C2958 C 0.79756 0.12262 0.24125 0.0
C2959 C 0.80793 0.10069 0.23376 0.0
H2960 H 0.70685 0.1962 1.01071 0.0
H2961 H 0.76139 0.16033 0.06074 0.0
H2962 H 0.72566 0.12266 0.0617 0.0
H2963 H 0.67931 0.09877 0.04669 0.0
H2964 H 0.62594 0.13316 0.99345 0.0
H2965 H 0.66054 0.17184 0.99502 0.0
C2966 C 0.71068 0.18023 0.02202 0.0
C2967 C 0.73672 0.18094 0.0355 0.0
C2968 C 0.69025 0.15804 0.02165 0.0
C2969 C 0.74149 0.16012 0.05009 0.0
C2970 C 0.7211 0.13852 0.05058 0.0
C2971 C 0.67531 0.1146 0.03522 0.0
C2972 C 0.64993 0.1127 0.01985 0.0
C2973 C 0.69552 0.13697 0.03599 0.0
C2974 C 0.64526 0.13368 1.00528 0.0
C2975 C 0.66499 0.15609 1.00638 0.0
H2976 H 0.21535 0.48074 0.35162 0.0
H2977 H 0.18622 0.42959 0.28119 0.0
H2978 H 0.21597 0.39989 0.29629 0.0
H2979 H 0.25699 0.39368 0.32452 0.0
H2980 H 0.28957 0.44796 0.39153 0.0
H2981 H 0.252 0.47155 0.38266 0.0
C2982 C 0.21499 0.46283 0.33974 0.0
C2983 C 0.19899 0.45775 0.31495 0.0
C2984 C 0.23329 0.44674 0.34774 0.0
C2985 C 0.19842 0.43415 0.30022 0.0
C2986 C 0.21571 0.4173 0.30871 0.0
C2987 C 0.25519 0.4101 0.33768 0.0
C2988 C 0.27573 0.41905 0.35875 0.0
C2989 C 0.23424 0.42414 0.33169 0.0
C2990 C 0.27383 0.44077 0.37532 0.0
C2991 C 0.25245 0.45425 0.37015 0.0
H2992 H 0.26108 0.50582 0.02888 0.0
H2993 H 0.2253 0.42917 0.04522 0.0
H2994 H 0.18099 0.44325 0.04641 0.0
H2995 H 0.15019 0.47811 0.04271 0.0
H2996 H 0.18863 0.55533 0.03049 0.0
H2997 H 0.23187 0.54046 0.02792 0.0
C2998 C 0.24383 0.49182 0.03283 0.0
C2999 C 0.24819 0.46571 0.03681 0.0
C3000 C 0.21766 0.50046 0.03415 0.0
C3001 C 0.22422 0.44909 0.04205 0.0
C3002 C 0.19823 0.45736 0.04265 0.0
C3003 C 0.16782 0.49193 0.0393 0.0
C3004 C 0.1644 0.5186 0.0364 0.0
C3005 C 0.19424 0.48311 0.03866 0.0
C3006 C 0.18899 0.53508 0.03267 0.0
C3007 C 0.21438 0.52639 0.0312 0.0
H3008 H 0.93807 0.95579 0.2632 0.0
H3009 H 0.87925 0.94819 0.19429 0.0
H3010 H 0.86174 0.90331 0.20247 0.0
H3011 H 0.85791 0.86955 0.23413 0.0
H3012 H 0.91565 0.8795 0.30456 0.0
H3013 H 0.93855 0.92002 0.29111 0.0
C3014 C 0.92173 0.94406 0.24979 0.0
C3015 C 0.9091 0.95521 0.22889 0.0
C3016 C 0.91121 0.91886 0.25523 0.0
C3017 C 0.88852 0.93995 0.21107 0.0
C3018 C 0.87862 0.91436 0.21571 0.0
C3019 C 0.87571 0.88044 0.24631 0.0
C3020 C 0.88454 0.87178 0.27064 0.0
C3021 C 0.8888 0.90411 0.2386 0.0
C3022 C 0.908 0.88586 0.28595 0.0
C3023 C 0.92127 0.90908 0.27828 0.0
H3024 H 0.70355 0.1082 0.69307 0.0
H3025 H 0.6234 0.10527 0.71697 0.0
H3026 H 0.62404 0.15013 0.70711 0.0
H3027 H 0.65106 0.19171 0.70084 0.0
H3028 H 0.73396 0.1955 0.68304 0.0
H3029 H 0.72747 0.14892 0.67869 0.0
C3030 C 0.68629 0.1175 0.69601 0.0
C3031 C 0.66419 0.10429 0.70721 0.0
C3032 C 0.68707 0.14344 0.69089 0.0
C3033 C 0.64111 0.11567 0.7094 0.0
C3034 C 0.64142 0.14121 0.70365 0.0
C3035 C 0.66791 0.18259 0.69613 0.0
C3036 C 0.69358 0.19769 0.69429 0.0
C3037 C 0.66497 0.15568 0.69595 0.0
C3038 C 0.71404 0.18501 0.6855 0.0
C3039 C 0.71057 0.15805 0.68335 0.0
loop_
_geom_bond_atom_site_label_1
_geom_bond_atom_site_label_2
_geom_bond_distance
_geom_bond_site_symmetry_2
_ccdc_geom_bond_type
Mn0 O5 2.095 . S
Mn0 O15 2.162 . S
Mn0 O16 2.297 . S
Mn0 O24 2.385 . S
Mn0 O25 2.209 . S
Mn0 O26 2.094 . S
Mn1 O6 2.121 . S
Mn1 N8 2.257 . S
Mn1 N17 2.282 . S
Mn1 O25 2.215 . S
Mn1 O27 2.117 . S
C2 O24 1.234 . S
C2 O25 1.283 . S
C3 O15 1.281 . S
C3 O16 1.236 . S
C4 O26 1.240 . S
C4 O27 1.264 . S
O5 Mn0 2.095 . S
O5 C14 1.250 . S
O6 Mn1 2.121 . S
O6 C14 1.258 . S
C7 N8 1.326 . S
C7 C11 1.460 . S
C7 H13 0.929 . S
N8 Mn1 2.257 . S
N8 C7 1.326 . S
N8 C12 1.362 . S
C9 C10 1.258 . S
C9 C12 1.431 . S
C9 C29 1.449 1_455 S
C10 C9 1.258 . S
C10 C11 1.477 . S
C10 H30 0.931 . S
C11 C7 1.460 . S
C11 C10 1.477 . S
C11 H31 0.930 . S
C12 N8 1.362 . S
C12 C9 1.431 . S
C12 C22 1.476 . S
H13 C7 0.929 . S
C14 O5 1.250 . S
C14 O6 1.258 . S
O15 Mn0 2.162 . S
O15 C3 1.281 . S
O16 Mn0 2.297 . S
O16 C3 1.236 . S
N17 Mn1 2.282 . S
N17 C18 1.328 . S
N17 C22 1.318 . S
C18 N17 1.328 . S
C18 C19 1.457 1_455 S
C18 H23 0.929 . S
C19 C18 1.457 1_655 S
C19 C20 1.291 . S
C19 H32 0.931 . S
C20 C19 1.291 . S
C20 C21 1.373 . S
C20 H33 0.929 . S
C21 C20 1.373 . S
C21 C22 1.396 1_655 S
C21 C28 1.403 . S
C22 C12 1.476 . S
C22 N17 1.318 . S
C22 C21 1.396 1_455 S
H23 C18 0.929 . S
O24 Mn0 2.385 . S
O24 C2 1.234 . S
O25 Mn0 2.209 . S
O25 Mn1 2.215 . S
O25 C2 1.283 . S
O26 Mn0 2.094 . S
O26 C4 1.240 . S
O27 Mn1 2.117 . S
O27 C4 1.264 . S
C28 C21 1.403 . S
C28 C29 1.399 . S
C28 H34 0.929 . S
C29 C9 1.449 1_655 S
C29 C28 1.399 . S
C29 H35 0.930 . S
H30 C10 0.931 . S
H31 C11 0.930 . S
H32 C19 0.931 . S
H33 C20 0.929 . S
H34 C28 0.929 . S
H35 C29 0.930 . S
Mn36 O41 2.095 . S
Mn36 O51 2.162 . S
Mn36 O52 2.297 . S
Mn36 O60 2.385 . S
Mn36 O61 2.209 . S
Mn36 O62 2.094 . S
Mn37 O42 2.121 . S
Mn37 N44 2.257 . S
Mn37 N53 2.282 . S
Mn37 O61 2.215 . S
Mn37 O63 2.117 . S
C38 O60 1.234 . S
C38 O61 1.283 . S
C39 O51 1.281 . S
C39 O52 1.236 . S
C40 O62 1.240 . S
C40 O63 1.264 . S
O41 Mn36 2.095 . S
O41 C50 1.250 . S
O42 Mn37 2.121 . S
O42 C50 1.258 . S
C43 N44 1.326 . S
C43 C47 1.460 . S
C43 H49 0.929 . S
N44 Mn37 2.257 . S
N44 C43 1.326 . S
N44 C48 1.362 . S
C45 C46 1.258 . S
C45 C48 1.431 . S
C45 C65 1.449 . S
C46 C45 1.258 . S
C46 C47 1.477 . S
C46 H66 0.931 . S
C47 C43 1.460 . S
C47 C46 1.477 . S
C47 H67 0.930 . S
C48 N44 1.362 . S
C48 C45 1.431 . S
C48 C58 1.476 . S
H49 C43 0.929 . S
C50 O41 1.250 . S
C50 O42 1.258 . S
O51 Mn36 2.162 . S
O51 C39 1.281 . S
O52 Mn36 2.297 . S
O52 C39 1.236 . S
N53 Mn37 2.282 . S
N53 C54 1.328 . S
N53 C58 1.318 . S
C54 N53 1.328 . S
C54 C55 1.457 . S
C54 H59 0.929 . S
C55 C54 1.457 . S
C55 C56 1.291 . S
C55 H68 0.931 . S
C56 C55 1.291 . S
C56 C57 1.373 . S
C56 H69 0.929 . S
C57 C56 1.373 . S
C57 C58 1.396 . S
C57 C64 1.403 . S
C58 C48 1.476 . S
C58 N53 1.318 . S
C58 C57 1.396 . S
H59 C54 0.929 . S
O60 Mn36 2.385 . S
O60 C38 1.234 . S
O61 Mn36 2.209 . S
O61 Mn37 2.215 . S
O61 C38 1.283 . S
O62 Mn36 2.094 . S
O62 C40 1.240 . S
O63 Mn37 2.117 . S
O63 C40 1.264 . S
C64 C57 1.403 . S
C64 C65 1.399 . S
C64 H70 0.929 . S
C65 C45 1.449 . S
C65 C64 1.399 . S
C65 H71 0.930 . S
H66 C46 0.931 . S
H67 C47 0.930 . S
H68 C55 0.931 . S
H69 C56 0.929 . S
H70 C64 0.929 . S
H71 C65 0.930 . S
Mn72 O77 2.095 . S
Mn72 O87 2.162 . S
Mn72 O88 2.297 . S
Mn72 O96 2.385 . S
Mn72 O97 2.209 . S
Mn72 O98 2.094 . S
Mn73 O78 2.121 . S
Mn73 N80 2.257 . S
Mn73 N89 2.282 . S
Mn73 O97 2.215 . S
Mn73 O99 2.117 . S
C74 O96 1.234 . S
C74 O97 1.283 . S
C75 O87 1.281 . S
C75 O88 1.236 . S
C76 O98 1.240 . S
C76 O99 1.264 . S
O77 Mn72 2.095 . S
O77 C86 1.250 . S
O78 Mn73 2.121 . S
O78 C86 1.258 . S
C79 N80 1.326 . S
C79 C83 1.460 . S
C79 H85 0.929 . S
N80 Mn73 2.257 . S
N80 C79 1.326 . S
N80 C84 1.362 . S
C81 C82 1.258 . S
C81 C84 1.431 . S
C81 C101 1.449 . S
C82 C81 1.258 . S
C82 C83 1.477 . S
C82 H102 0.931 . S
C83 C79 1.460 . S
C83 C82 1.477 . S
C83 H103 0.930 . S
C84 N80 1.362 . S
C84 C81 1.431 . S
C84 C94 1.476 . S
H85 C79 0.929 . S
C86 O77 1.250 . S
C86 O78 1.258 . S
O87 Mn72 2.162 . S
O87 C75 1.281 . S
O88 Mn72 2.297 . S
O88 C75 1.236 . S
N89 Mn73 2.282 . S
N89 C90 1.328 . S
N89 C94 1.318 . S
C90 N89 1.328 . S
C90 C91 1.457 . S
C90 H95 0.929 . S
C91 C90 1.457 . S
C91 C92 1.291 . S
C91 H104 0.931 . S
C92 C91 1.291 . S
C92 C93 1.373 . S
C92 H105 0.929 . S
C93 C92 1.373 . S
C93 C94 1.396 . S
C93 C100 1.403 . S
C94 C84 1.476 . S
C94 N89 1.318 . S
C94 C93 1.396 . S
H95 C90 0.929 . S
O96 Mn72 2.385 . S
O96 C74 1.234 . S
O97 Mn72 2.209 . S
O97 Mn73 2.215 . S
O97 C74 1.283 . S
O98 Mn72 2.094 . S
O98 C76 1.240 . S
O99 Mn73 2.117 . S
O99 C76 1.264 . S
C100 C93 1.403 . S
C100 C101 1.399 . S
C100 H106 0.929 . S
C101 C81 1.449 . S
C101 C100 1.399 . S
C101 H107 0.930 . S
H102 C82 0.931 . S
H103 C83 0.930 . S
H104 C91 0.931 . S
H105 C92 0.929 . S
H106 C100 0.929 . S
H107 C101 0.930 . S
Mn108 O113 2.095 . S
Mn108 O123 2.162 . S
Mn108 O124 2.297 . S
Mn108 O132 2.385 . S
Mn108 O133 2.209 . S
Mn108 O134 2.094 . S
Mn109 O114 2.121 . S
Mn109 N116 2.257 . S
Mn109 N125 2.282 . S
Mn109 O133 2.215 . S
Mn109 O135 2.117 . S
C110 O132 1.234 . S
C110 O133 1.283 . S
C111 O123 1.281 . S
C111 O124 1.236 . S
C112 O134 1.240 . S
C112 O135 1.264 . S
O113 Mn108 2.095 . S
O113 C122 1.250 . S
O114 Mn109 2.121 . S
O114 C122 1.258 . S
C115 N116 1.326 . S
C115 C119 1.460 . S
C115 H121 0.929 . S
N116 Mn109 2.257 . S
N116 C115 1.326 . S
N116 C120 1.362 . S
C117 C118 1.258 . S
C117 C120 1.431 . S
C117 C137 1.449 . S
C118 C117 1.258 . S
C118 C119 1.477 . S
C118 H138 0.931 . S
C119 C115 1.460 . S
C119 C118 1.477 . S
C119 H139 0.930 . S
C120 N116 1.362 . S
C120 C117 1.431 . S
C120 C130 1.476 . S
H121 C115 0.929 . S
C122 O113 1.250 . S
C122 O114 1.258 . S
O123 Mn108 2.162 . S
O123 C111 1.281 . S
O124 Mn108 2.297 . S
O124 C111 1.236 . S
N125 Mn109 2.282 . S
N125 C126 1.328 . S
N125 C130 1.318 . S
C126 N125 1.328 . S
C126 C127 1.457 . S
C126 H131 0.929 . S
C127 C126 1.457 . S
C127 C128 1.291 . S
C127 H140 0.931 . S
C128 C127 1.291 . S
C128 C129 1.373 . S
C128 H141 0.929 . S
C129 C128 1.373 . S
C129 C130 1.396 . S
C129 C136 1.403 . S
C130 C120 1.476 . S
C130 N125 1.318 . S
C130 C129 1.396 . S
H131 C126 0.929 . S
O132 Mn108 2.385 . S
O132 C110 1.234 . S
O133 Mn108 2.209 . S
O133 Mn109 2.215 . S
O133 C110 1.283 . S
O134 Mn108 2.094 . S
O134 C112 1.240 . S
O135 Mn109 2.117 . S
O135 C112 1.264 . S
C136 C129 1.403 . S
C136 C137 1.399 . S
C136 H142 0.929 . S
C137 C117 1.449 . S
C137 C136 1.399 . S
C137 H143 0.930 . S
H138 C118 0.931 . S
H139 C119 0.930 . S
H140 C127 0.931 . S
H141 C128 0.929 . S
H142 C136 0.929 . S
H143 C137 0.930 . S
Mn144 O149 2.095 . S
Mn144 O159 2.162 . S
Mn144 O160 2.297 . S
Mn144 O168 2.385 . S
Mn144 O169 2.209 . S
Mn144 O170 2.094 . S
Mn145 O150 2.121 . S
Mn145 N152 2.257 . S
Mn145 N161 2.282 . S
Mn145 O169 2.215 . S
Mn145 O171 2.117 . S
C146 O168 1.234 . S
C146 O169 1.283 . S
C147 O159 1.281 . S
C147 O160 1.236 . S
C148 O170 1.240 . S
C148 O171 1.264 . S
O149 Mn144 2.095 . S
O149 C158 1.250 . S
O150 Mn145 2.121 . S
O150 C158 1.258 . S
C151 N152 1.326 . S
C151 C155 1.460 . S
C151 H157 0.929 . S
N152 Mn145 2.257 . S
N152 C151 1.326 . S
N152 C156 1.362 . S
C153 C154 1.258 . S
C153 C156 1.431 . S
C153 C173 1.449 . S
C154 C153 1.258 . S
C154 C155 1.477 . S
C154 H174 0.931 . S
C155 C151 1.460 . S
C155 C154 1.477 . S
C155 H175 0.930 . S
C156 N152 1.362 . S
C156 C153 1.431 . S
C156 C166 1.476 . S
H157 C151 0.929 . S
C158 O149 1.250 . S
C158 O150 1.258 . S
O159 Mn144 2.162 . S
O159 C147 1.281 . S
O160 Mn144 2.297 . S
O160 C147 1.236 . S
N161 Mn145 2.282 . S
N161 C162 1.328 . S
N161 C166 1.318 . S
C162 N161 1.328 . S
C162 C163 1.457 . S
C162 H167 0.929 . S
C163 C162 1.457 . S
C163 C164 1.291 . S
C163 H176 0.931 . S
C164 C163 1.291 . S
C164 C165 1.373 . S
C164 H177 0.929 . S
C165 C164 1.373 . S
C165 C166 1.396 . S
C165 C172 1.403 . S
C166 C156 1.476 . S
C166 N161 1.318 . S
C166 C165 1.396 . S
H167 C162 0.929 . S
O168 Mn144 2.385 . S
O168 C146 1.234 . S
O169 Mn144 2.209 . S
O169 Mn145 2.215 . S
O169 C146 1.283 . S
O170 Mn144 2.094 . S
O170 C148 1.240 . S
O171 Mn145 2.117 . S
O171 C148 1.264 . S
C172 C165 1.403 . S
C172 C173 1.399 . S
C172 H178 0.929 . S
C173 C153 1.449 . S
C173 C172 1.399 . S
C173 H179 0.930 . S
H174 C154 0.931 . S
H175 C155 0.930 . S
H176 C163 0.931 . S
H177 C164 0.929 . S
H178 C172 0.929 . S
H179 C173 0.930 . S
Mn180 O185 2.095 . S
Mn180 O195 2.162 . S
Mn180 O196 2.297 . S
Mn180 O204 2.385 . S
Mn180 O205 2.209 . S
Mn180 O206 2.094 . S
Mn181 O186 2.121 . S
Mn181 N188 2.257 . S
Mn181 N197 2.282 . S
Mn181 O205 2.215 . S
Mn181 O207 2.117 . S
C182 O204 1.234 . S
C182 O205 1.283 . S
C183 O195 1.281 . S
C183 O196 1.236 . S
C184 O206 1.240 . S
C184 O207 1.264 . S
O185 Mn180 2.095 . S
O185 C194 1.250 . S
O186 Mn181 2.121 . S
O186 C194 1.258 . S
C187 N188 1.326 . S
C187 C191 1.460 . S
C187 H193 0.929 . S
N188 Mn181 2.257 . S
N188 C187 1.326 . S
N188 C192 1.362 . S
C189 C190 1.258 . S
C189 C192 1.431 . S
C189 C209 1.449 . S
C190 C189 1.258 . S
C190 C191 1.477 . S
C190 H210 0.931 . S
C191 C187 1.460 . S
C191 C190 1.477 . S
C191 H211 0.930 . S
C192 N188 1.362 . S
C192 C189 1.431 . S
C192 C202 1.476 . S
H193 C187 0.929 . S
C194 O185 1.250 . S
C194 O186 1.258 . S
O195 Mn180 2.162 . S
O195 C183 1.281 . S
O196 Mn180 2.297 . S
O196 C183 1.236 . S
N197 Mn181 2.282 . S
N197 C198 1.328 . S
N197 C202 1.318 . S
C198 N197 1.328 . S
C198 C199 1.457 . S
C198 H203 0.929 . S
C199 C198 1.457 . S
C199 C200 1.291 . S
C199 H212 0.931 . S
C200 C199 1.291 . S
C200 C201 1.373 . S
C200 H213 0.929 . S
C201 C200 1.373 . S
C201 C202 1.396 . S
C201 C208 1.403 . S
C202 C192 1.476 . S
C202 N197 1.318 . S
C202 C201 1.396 . S
H203 C198 0.929 . S
O204 Mn180 2.385 . S
O204 C182 1.234 . S
O205 Mn180 2.209 . S
O205 Mn181 2.215 . S
O205 C182 1.283 . S
O206 Mn180 2.094 . S
O206 C184 1.240 . S
O207 Mn181 2.117 . S
O207 C184 1.264 . S
C208 C201 1.403 . S
C208 C209 1.399 . S
C208 H214 0.929 . S
C209 C189 1.449 . S
C209 C208 1.399 . S
C209 H215 0.930 . S
H210 C190 0.931 . S
H211 C191 0.930 . S
H212 C199 0.931 . S
H213 C200 0.929 . S
H214 C208 0.929 . S
H215 C209 0.930 . S
Mn216 O221 2.095 . S
Mn216 O231 2.162 . S
Mn216 O232 2.297 . S
Mn216 O240 2.385 . S
Mn216 O241 2.209 . S
Mn216 O242 2.094 . S
Mn217 O222 2.121 . S
Mn217 N224 2.257 . S
Mn217 N233 2.282 . S
Mn217 O241 2.215 . S
Mn217 O243 2.117 . S
C218 O240 1.234 . S
C218 O241 1.283 . S
C219 O231 1.281 . S
C219 O232 1.236 . S
C220 O242 1.240 . S
C220 O243 1.264 . S
O221 Mn216 2.095 . S
O221 C230 1.250 . S
O222 Mn217 2.121 . S
O222 C230 1.258 . S
C223 N224 1.326 . S
C223 C227 1.460 . S
C223 H229 0.929 . S
N224 Mn217 2.257 . S
N224 C223 1.326 . S
N224 C228 1.362 . S
C225 C226 1.258 . S
C225 C228 1.431 . S
C225 C245 1.449 . S
C226 C225 1.258 . S
C226 C227 1.477 . S
C226 H246 0.931 . S
C227 C223 1.460 . S
C227 C226 1.477 . S
C227 H247 0.930 . S
C228 N224 1.362 . S
C228 C225 1.431 . S
C228 C238 1.476 . S
H229 C223 0.929 . S
C230 O221 1.250 . S
C230 O222 1.258 . S
O231 Mn216 2.162 . S
O231 C219 1.281 . S
O232 Mn216 2.297 . S
O232 C219 1.236 . S
N233 Mn217 2.282 . S
N233 C234 1.328 . S
N233 C238 1.318 . S
C234 N233 1.328 . S
C234 C235 1.457 . S
C234 H239 0.929 . S
C235 C234 1.457 . S
C235 C236 1.291 . S
C235 H248 0.931 . S
C236 C235 1.291 . S
C236 C237 1.373 . S
C236 H249 0.929 . S
C237 C236 1.373 . S
C237 C238 1.396 . S
C237 C244 1.403 . S
C238 C228 1.476 . S
C238 N233 1.318 . S
C238 C237 1.396 . S
H239 C234 0.929 . S
O240 Mn216 2.385 . S
O240 C218 1.234 . S
O241 Mn216 2.209 . S
O241 Mn217 2.215 . S
O241 C218 1.283 . S
O242 Mn216 2.094 . S
O242 C220 1.240 . S
O243 Mn217 2.117 . S
O243 C220 1.264 . S
C244 C237 1.403 . S
C244 C245 1.399 . S
C244 H250 0.929 . S
C245 C225 1.449 . S
C245 C244 1.399 . S
C245 H251 0.930 . S
H246 C226 0.931 . S
H247 C227 0.930 . S
H248 C235 0.931 . S
H249 C236 0.929 . S
H250 C244 0.929 . S
H251 C245 0.930 . S
Mn252 O257 2.065 1_655 S
Mn252 O267 2.159 1_655 S
Mn252 O268 2.293 . S
Mn252 O276 2.417 . S
Mn252 O277 2.222 . S
Mn252 O278 2.098 1_655 S
Mn253 O258 2.121 1_655 S
Mn253 N260 2.257 . S
Mn253 N269 2.282 . S
Mn253 O277 2.215 . S
Mn253 O279 2.117 1_655 S
C254 O276 1.234 . S
C254 O277 1.283 . S
C255 O267 1.281 1_655 S
C255 O268 1.236 . S
C256 O278 1.240 . S
C256 O279 1.264 . S
O257 Mn252 2.065 1_455 S
O257 C266 1.250 . S
O258 Mn253 2.121 1_455 S
O258 C266 1.258 . S
C259 N260 1.326 . S
C259 C263 1.460 . S
C259 H265 0.929 1_655 S
N260 Mn253 2.257 . S
N260 C259 1.326 . S
N260 C264 1.362 . S
C261 C262 1.258 . S
C261 C264 1.431 . S
C261 C281 1.449 . S
C262 C261 1.258 . S
C262 C263 1.477 . S
C262 H282 0.931 . S
C263 C259 1.460 . S
C263 C262 1.477 . S
C263 H283 0.930 . S
C264 N260 1.362 . S
C264 C261 1.431 . S
C264 C274 1.476 . S
H265 C259 0.929 1_455 S
C266 O257 1.250 . S
C266 O258 1.258 . S
O267 Mn252 2.159 1_455 S
O267 C255 1.281 1_455 S
O268 Mn252 2.293 . S
O268 C255 1.236 . S
N269 Mn253 2.282 . S
N269 C270 1.328 . S
N269 C274 1.318 . S
C270 N269 1.328 . S
C270 C271 1.457 . S
C270 H275 0.929 . S
C271 C270 1.457 . S
C271 C272 1.291 . S
C271 H284 0.931 . S
C272 C271 1.291 . S
C272 C273 1.373 . S
C272 H285 0.929 . S
C273 C272 1.373 . S
C273 C274 1.396 . S
C273 C280 1.403 . S
C274 C264 1.476 . S
C274 N269 1.318 . S
C274 C273 1.396 . S
H275 C270 0.929 . S
O276 Mn252 2.417 . S
O276 C254 1.234 . S
O277 Mn252 2.222 . S
O277 Mn253 2.215 . S
O277 C254 1.283 . S
O278 Mn252 2.098 1_455 S
O278 C256 1.240 . S
O279 Mn253 2.117 1_455 S
O279 C256 1.264 . S
C280 C273 1.403 . S
C280 C281 1.399 . S
C280 H286 0.929 . S
C281 C261 1.449 . S
C281 C280 1.399 . S
C281 H287 0.930 . S
H282 C262 0.931 . S
H283 C263 0.930 . S
H284 C271 0.931 . S
H285 C272 0.929 . S
H286 C280 0.929 . S
H287 C281 0.930 . S
Mn288 O293 2.095 . S
Mn288 O303 2.162 . S
Mn288 O304 2.297 . S
Mn288 O312 2.385 . S
Mn288 O313 2.209 . S
Mn288 O314 2.094 . S
Mn289 O294 2.121 . S
Mn289 N296 2.257 . S
Mn289 N305 2.282 . S
Mn289 O313 2.215 . S
Mn289 O315 2.117 . S
C290 O312 1.234 . S
C290 O313 1.283 . S
C291 O303 1.281 . S
C291 O304 1.236 . S
C292 O314 1.240 . S
C292 O315 1.264 . S
O293 Mn288 2.095 . S
O293 C302 1.250 . S
O294 Mn289 2.121 . S
O294 C302 1.258 . S
C295 N296 1.326 . S
C295 C299 1.460 . S
C295 H301 0.929 . S
N296 Mn289 2.257 . S
N296 C295 1.326 . S
N296 C300 1.362 . S
C297 C298 1.258 . S
C297 C300 1.431 . S
C297 C317 1.449 1_545 S
C298 C297 1.258 . S
C298 C299 1.477 . S
C298 H318 0.931 . S
C299 C295 1.460 . S
C299 C298 1.477 . S
C299 H319 0.930 . S
C300 N296 1.362 . S
C300 C297 1.431 . S
C300 C310 1.476 . S
H301 C295 0.929 . S
C302 O293 1.250 . S
C302 O294 1.258 . S
O303 Mn288 2.162 . S
O303 C291 1.281 . S
O304 Mn288 2.297 . S
O304 C291 1.236 . S
N305 Mn289 2.282 . S
N305 C306 1.328 . S
N305 C310 1.318 . S
C306 N305 1.328 . S
C306 C307 1.457 1_545 S
C306 H311 0.929 . S
C307 C306 1.457 1_565 S
C307 C308 1.291 . S
C307 H320 0.931 . S
C308 C307 1.291 . S
C308 C309 1.373 . S
C308 H321 0.929 . S
C309 C308 1.373 . S
C309 C310 1.396 1_565 S
C309 C316 1.403 . S
C310 C300 1.476 . S
C310 N305 1.318 . S
C310 C309 1.396 1_545 S
H311 C306 0.929 . S
O312 Mn288 2.385 . S
O312 C290 1.234 . S
O313 Mn288 2.209 . S
O313 Mn289 2.215 . S
O313 C290 1.283 . S
O314 Mn288 2.094 . S
O314 C292 1.240 . S
O315 Mn289 2.117 . S
O315 C292 1.264 . S
C316 C309 1.403 . S
C316 C317 1.399 . S
C316 H322 0.929 . S
C317 C297 1.449 1_565 S
C317 C316 1.399 . S
C317 H323 0.930 . S
H318 C298 0.931 . S
H319 C299 0.930 . S
H320 C307 0.931 . S
H321 C308 0.929 . S
H322 C316 0.929 . S
H323 C317 0.930 . S
Mn324 O329 2.095 . S
Mn324 O339 2.162 . S
Mn324 O340 2.297 . S
Mn324 O348 2.385 . S
Mn324 O349 2.209 . S
Mn324 O350 2.094 . S
Mn325 O330 2.121 . S
Mn325 N332 2.257 . S
Mn325 N341 2.282 . S
Mn325 O349 2.215 . S
Mn325 O351 2.117 . S
C326 O348 1.234 . S
C326 O349 1.283 . S
C327 O339 1.281 . S
C327 O340 1.236 . S
C328 O350 1.240 . S
C328 O351 1.264 . S
O329 Mn324 2.095 . S
O329 C338 1.250 . S
O330 Mn325 2.121 . S
O330 C338 1.258 . S
C331 N332 1.326 . S
C331 C335 1.460 . S
C331 H337 0.929 . S
N332 Mn325 2.257 . S
N332 C331 1.326 . S
N332 C336 1.362 . S
C333 C334 1.258 . S
C333 C336 1.431 . S
C333 C353 1.449 . S
C334 C333 1.258 . S
C334 C335 1.477 . S
C334 H354 0.931 . S
C335 C331 1.460 . S
C335 C334 1.477 . S
C335 H355 0.930 . S
C336 N332 1.362 . S
C336 C333 1.431 . S
C336 C346 1.476 . S
H337 C331 0.929 . S
C338 O329 1.250 . S
C338 O330 1.258 . S
O339 Mn324 2.162 . S
O339 C327 1.281 . S
O340 Mn324 2.297 . S
O340 C327 1.236 . S
N341 Mn325 2.282 . S
N341 C342 1.328 . S
N341 C346 1.318 . S
C342 N341 1.328 . S
C342 C343 1.457 . S
C342 H347 0.929 . S
C343 C342 1.457 . S
C343 C344 1.291 . S
C343 H356 0.931 . S
C344 C343 1.291 . S
C344 C345 1.373 . S
C344 H357 0.929 . S
C345 C344 1.373 . S
C345 C346 1.396 . S
C345 C352 1.403 . S
C346 C336 1.476 . S
C346 N341 1.318 . S
C346 C345 1.396 . S
H347 C342 0.929 . S
O348 Mn324 2.385 . S
O348 C326 1.234 . S
O349 Mn324 2.209 . S
O349 Mn325 2.215 . S
O349 C326 1.283 . S
O350 Mn324 2.094 . S
O350 C328 1.240 . S
O351 Mn325 2.117 . S
O351 C328 1.264 . S
C352 C345 1.403 . S
C352 C353 1.399 . S
C352 H358 0.929 . S
C353 C333 1.449 . S
C353 C352 1.399 . S
C353 H359 0.930 . S
H354 C334 0.931 . S
H355 C335 0.930 . S
H356 C343 0.931 . S
H357 C344 0.929 . S
H358 C352 0.929 . S
H359 C353 0.930 . S
Mn360 O365 2.095 . S
Mn360 O375 2.162 . S
Mn360 O376 2.297 . S
Mn360 O384 2.385 . S
Mn360 O385 2.209 . S
Mn360 O386 2.094 . S
Mn361 O366 2.121 . S
Mn361 N368 2.257 . S
Mn361 N377 2.282 . S
Mn361 O385 2.215 . S
Mn361 O387 2.117 . S
C362 O384 1.234 . S
C362 O385 1.283 . S
C363 O375 1.281 . S
C363 O376 1.236 . S
C364 O386 1.240 . S
C364 O387 1.264 . S
O365 Mn360 2.095 . S
O365 C374 1.250 . S
O366 Mn361 2.121 . S
O366 C374 1.258 . S
C367 N368 1.326 . S
C367 C371 1.460 . S
C367 H373 0.929 . S
N368 Mn361 2.257 . S
N368 C367 1.326 . S
N368 C372 1.362 . S
C369 C370 1.258 . S
C369 C372 1.431 . S
C369 C389 1.449 . S
C370 C369 1.258 . S
C370 C371 1.477 . S
C370 H390 0.931 . S
C371 C367 1.460 . S
C371 C370 1.477 . S
C371 H391 0.930 . S
C372 N368 1.362 . S
C372 C369 1.431 . S
C372 C382 1.476 . S
H373 C367 0.929 . S
C374 O365 1.250 . S
C374 O366 1.258 . S
O375 Mn360 2.162 . S
O375 C363 1.281 . S
O376 Mn360 2.297 . S
O376 C363 1.236 . S
N377 Mn361 2.282 . S
N377 C378 1.328 . S
N377 C382 1.318 . S
C378 N377 1.328 . S
C378 C379 1.457 . S
C378 H383 0.929 . S
C379 C378 1.457 . S
C379 C380 1.291 . S
C379 H392 0.931 . S
C380 C379 1.291 . S
C380 C381 1.373 . S
C380 H393 0.929 . S
C381 C380 1.373 . S
C381 C382 1.396 . S
C381 C388 1.403 . S
C382 C372 1.476 . S
C382 N377 1.318 . S
C382 C381 1.396 . S
H383 C378 0.929 . S
O384 Mn360 2.385 . S
O384 C362 1.234 . S
O385 Mn360 2.209 . S
O385 Mn361 2.215 . S
O385 C362 1.283 . S
O386 Mn360 2.094 . S
O386 C364 1.240 . S
O387 Mn361 2.117 . S
O387 C364 1.264 . S
C388 C381 1.403 . S
C388 C389 1.399 . S
C388 H394 0.929 . S
C389 C369 1.449 . S
C389 C388 1.399 . S
C389 H395 0.930 . S
H390 C370 0.931 . S
H391 C371 0.930 . S
H392 C379 0.931 . S
H393 C380 0.929 . S
H394 C388 0.929 . S
H395 C389 0.930 . S
Mn396 O401 2.095 . S
Mn396 O411 2.162 . S
Mn396 O412 2.297 . S
Mn396 O420 2.385 . S
Mn396 O421 2.209 . S
Mn396 O422 2.094 . S
Mn397 O402 2.121 . S
Mn397 N404 2.257 . S
Mn397 N413 2.282 1_554 S
Mn397 O421 2.215 . S
Mn397 O423 2.117 1_554 S
C398 O420 1.234 . S
C398 O421 1.283 . S
C399 O411 1.281 . S
C399 O412 1.236 . S
C400 O422 1.240 1_556 S
C400 O423 1.264 . S
O401 Mn396 2.095 . S
O401 C410 1.250 . S
O402 Mn397 2.121 . S
O402 C410 1.258 . S
C403 N404 1.326 . S
C403 C407 1.460 1_565 S
C403 H409 0.929 . S
N404 Mn397 2.257 . S
N404 C403 1.326 . S
N404 C408 1.362 . S
C405 C406 1.258 . S
C405 C408 1.431 1_545 S
C405 C425 1.449 . S
C406 C405 1.258 . S
C406 C407 1.477 . S
C406 H426 0.931 . S
C407 C403 1.460 1_545 S
C407 C406 1.477 . S
C407 H427 0.930 . S
C408 N404 1.362 . S
C408 C405 1.431 1_565 S
C408 C418 1.476 . S
H409 C403 0.929 . S
C410 O401 1.250 . S
C410 O402 1.258 . S
O411 Mn396 2.162 . S
O411 C399 1.281 . S
O412 Mn396 2.297 . S
O412 C399 1.236 . S
N413 Mn397 2.282 1_556 S
N413 C414 1.328 . S
N413 C418 1.318 1_556 S
C414 N413 1.328 . S
C414 C415 1.457 . S
C414 H419 0.929 . S
C415 C414 1.457 . S
C415 C416 1.291 . S
C415 H428 0.931 . S
C416 C415 1.291 . S
C416 C417 1.373 . S
C416 H429 0.929 . S
C417 C416 1.373 . S
C417 C418 1.396 1_556 S
C417 C424 1.403 . S
C418 C408 1.476 . S
C418 N413 1.318 1_554 S
C418 C417 1.396 1_554 S
H419 C414 0.929 . S
O420 Mn396 2.385 . S
O420 C398 1.234 . S
O421 Mn396 2.209 . S
O421 Mn397 2.215 . S
O421 C398 1.283 . S
O422 Mn396 2.094 . S
O422 C400 1.240 1_554 S
O423 Mn397 2.117 1_556 S
O423 C400 1.264 . S
C424 C417 1.403 . S
C424 C425 1.399 1_566 S
C424 H430 0.929 . S
C425 C405 1.449 . S
C425 C424 1.399 1_544 S
C425 H431 0.930 . S
H426 C406 0.931 . S
H427 C407 0.930 . S
H428 C415 0.931 . S
H429 C416 0.929 . S
H430 C424 0.929 . S
H431 C425 0.930 . S
Mn432 O437 2.095 . S
Mn432 O447 2.162 . S
Mn432 O448 2.297 . S
Mn432 O456 2.385 . S
Mn432 O457 2.209 . S
Mn432 O458 2.070 1_554 S
Mn433 O438 2.121 1_556 S
Mn433 N440 2.257 1_556 S
Mn433 N449 2.282 . S
Mn433 O457 2.215 1_556 S
Mn433 O459 2.117 . S
C434 O456 1.234 . S
C434 O457 1.283 . S
C435 O447 1.281 . S
C435 O448 1.236 . S
C436 O458 1.266 . S
C436 O459 1.264 . S
O437 Mn432 2.095 . S
O437 C446 1.250 . S
O438 Mn433 2.121 1_554 S
O438 C446 1.258 . S
C439 N440 1.326 . S
C439 C443 1.460 . S
C439 H445 0.929 . S
N440 Mn433 2.257 1_554 S
N440 C439 1.326 . S
N440 C444 1.362 1_554 S
C441 C442 1.258 1_556 S
C441 C444 1.431 . S
C441 C461 1.449 . S
C442 C441 1.258 1_554 S
C442 C443 1.477 . S
C442 H462 0.931 . S
C443 C439 1.460 . S
C443 C442 1.477 . S
C443 H463 0.930 . S
C444 N440 1.362 1_556 S
C444 C441 1.431 . S
C444 C454 1.476 . S
H445 C439 0.929 . S
C446 O437 1.250 . S
C446 O438 1.258 . S
O447 Mn432 2.162 . S
O447 C435 1.281 . S
O448 Mn432 2.297 . S
O448 C435 1.236 . S
N449 Mn433 2.282 . S
N449 C450 1.328 . S
N449 C454 1.318 . S
C450 N449 1.328 . S
C450 C451 1.457 . S
C450 H455 0.929 . S
C451 C450 1.457 . S
C451 C452 1.291 . S
C451 H464 0.931 . S
C452 C451 1.291 . S
C452 C453 1.373 . S
C452 H465 0.929 . S
C453 C452 1.373 . S
C453 C454 1.396 . S
C453 C460 1.403 . S
C454 C444 1.476 . S
C454 N449 1.318 . S
C454 C453 1.396 . S
H455 C450 0.929 . S
O456 Mn432 2.385 . S
O456 C434 1.234 . S
O457 Mn432 2.209 . S
O457 Mn433 2.215 1_554 S
O457 C434 1.283 . S
O458 Mn432 2.070 1_556 S
O458 C436 1.266 . S
O459 Mn433 2.117 . S
O459 C436 1.264 . S
C460 C453 1.403 . S
C460 C461 1.399 . S
C460 H466 0.929 . S
C461 C441 1.449 . S
C461 C460 1.399 . S
C461 H467 0.930 . S
H462 C442 0.931 . S
H463 C443 0.930 . S
H464 C451 0.931 . S
H465 C452 0.929 . S
H466 C460 0.929 . S
H467 C461 0.930 . S
Mn468 O473 2.095 1_554 S
Mn468 O483 2.162 . S
Mn468 O484 2.297 . S
Mn468 O492 2.382 . S
Mn468 O493 2.209 1_554 S
Mn468 O494 2.094 1_554 S
Mn469 O474 2.121 . S
Mn469 N476 2.257 . S
Mn469 N485 2.282 . S
Mn469 O493 2.215 . S
Mn469 O495 2.117 . S
C470 O492 1.229 1_556 S
C470 O493 1.283 . S
C471 O483 1.281 . S
C471 O484 1.236 . S
C472 O494 1.240 . S
C472 O495 1.264 . S
O473 Mn468 2.095 1_556 S
O473 C482 1.250 . S
O474 Mn469 2.121 . S
O474 C482 1.258 . S
C475 N476 1.326 . S
C475 C479 1.460 . S
C475 H481 0.929 . S
N476 Mn469 2.257 . S
N476 C475 1.326 . S
N476 C480 1.362 . S
C477 C478 1.258 . S
C477 C480 1.431 . S
C477 C497 1.449 . S
C478 C477 1.258 . S
C478 C479 1.477 . S
C478 H498 0.931 . S
C479 C475 1.460 . S
C479 C478 1.477 . S
C479 H499 0.930 . S
C480 N476 1.362 . S
C480 C477 1.431 . S
C480 C490 1.476 . S
H481 C475 0.929 . S
C482 O473 1.250 . S
C482 O474 1.258 . S
O483 Mn468 2.162 . S
O483 C471 1.281 . S
O484 Mn468 2.297 . S
O484 C471 1.236 . S
N485 Mn469 2.282 . S
N485 C486 1.328 . S
N485 C490 1.318 . S
C486 N485 1.328 . S
C486 C487 1.457 . S
C486 H491 0.929 . S
C487 C486 1.457 . S
C487 C488 1.291 . S
C487 H500 0.931 . S
C488 C487 1.291 . S
C488 C489 1.373 . S
C488 H501 0.929 . S
C489 C488 1.373 . S
C489 C490 1.396 . S
C489 C496 1.403 . S
C490 C480 1.476 . S
C490 N485 1.318 . S
C490 C489 1.396 . S
H491 C486 0.929 . S
O492 Mn468 2.382 . S
O492 C470 1.229 1_554 S
O493 Mn468 2.209 1_556 S
O493 Mn469 2.215 . S
O493 C470 1.283 . S
O494 Mn468 2.094 1_556 S
O494 C472 1.240 . S
O495 Mn469 2.117 . S
O495 C472 1.264 . S
C496 C489 1.403 . S
C496 C497 1.399 . S
C496 H502 0.929 . S
C497 C477 1.449 . S
C497 C496 1.399 . S
C497 H503 0.930 . S
H498 C478 0.931 . S
H499 C479 0.930 . S
H500 C487 0.931 . S
H501 C488 0.929 . S
H502 C496 0.929 . S
H503 C497 0.930 . S
Mn504 O509 2.095 . S
Mn504 O519 2.162 . S
Mn504 O520 2.297 . S
Mn504 O528 2.385 . S
Mn504 O529 2.209 . S
Mn504 O530 2.094 . S
Mn505 O510 2.121 . S
Mn505 N512 2.257 . S
Mn505 N521 2.282 . S
Mn505 O529 2.215 . S
Mn505 O531 2.117 . S
C506 O528 1.234 . S
C506 O529 1.283 . S
C507 O519 1.281 . S
C507 O520 1.236 . S
C508 O530 1.240 . S
C508 O531 1.264 . S
O509 Mn504 2.095 . S
O509 C518 1.250 . S
O510 Mn505 2.121 . S
O510 C518 1.258 . S
C511 N512 1.326 . S
C511 C515 1.460 . S
C511 H517 0.929 . S
N512 Mn505 2.257 . S
N512 C511 1.326 . S
N512 C516 1.362 . S
C513 C514 1.258 . S
C513 C516 1.431 . S
C513 C533 1.449 . S
C514 C513 1.258 . S
C514 C515 1.477 . S
C514 H534 0.931 . S
C515 C511 1.460 . S
C515 C514 1.477 . S
C515 H535 0.930 . S
C516 N512 1.362 . S
C516 C513 1.431 . S
C516 C526 1.476 . S
H517 C511 0.929 . S
C518 O509 1.250 . S
C518 O510 1.258 . S
O519 Mn504 2.162 . S
O519 C507 1.281 . S
O520 Mn504 2.297 . S
O520 C507 1.236 . S
N521 Mn505 2.282 . S
N521 C522 1.328 . S
N521 C526 1.318 . S
C522 N521 1.328 . S
C522 C523 1.457 . S
C522 H527 0.929 . S
C523 C522 1.457 . S
C523 C524 1.291 . S
C523 H536 0.931 . S
C524 C523 1.291 . S
C524 C525 1.373 . S
C524 H537 0.929 . S
C525 C524 1.373 . S
C525 C526 1.396 . S
C525 C532 1.403 . S
C526 C516 1.476 . S
C526 N521 1.318 . S
C526 C525 1.396 . S
H527 C522 0.929 . S
O528 Mn504 2.385 . S
O528 C506 1.234 . S
O529 Mn504 2.209 . S
O529 Mn505 2.215 . S
O529 C506 1.283 . S
O530 Mn504 2.094 . S
O530 C508 1.240 . S
O531 Mn505 2.117 . S
O531 C508 1.264 . S
C532 C525 1.403 . S
C532 C533 1.399 . S
C532 H538 0.929 . S
C533 C513 1.449 . S
C533 C532 1.399 . S
C533 H539 0.930 . S
H534 C514 0.931 . S
H535 C515 0.930 . S
H536 C523 0.931 . S
H537 C524 0.929 . S
H538 C532 0.929 . S
H539 C533 0.930 . S
Mn540 O545 2.095 . S
Mn540 O555 2.162 . S
Mn540 O556 2.297 . S
Mn540 O564 2.385 . S
Mn540 O565 2.209 . S
Mn540 O566 2.094 . S
Mn541 O546 2.121 . S
Mn541 N548 2.257 . S
Mn541 N557 2.282 . S
Mn541 O565 2.215 . S
Mn541 O567 2.117 . S
C542 O564 1.234 . S
C542 O565 1.283 . S
C543 O555 1.281 . S
C543 O556 1.236 . S
C544 O566 1.240 . S
C544 O567 1.264 . S
O545 Mn540 2.095 . S
O545 C554 1.250 . S
O546 Mn541 2.121 . S
O546 C554 1.258 . S
C547 N548 1.326 1_545 S
C547 C551 1.460 . S
C547 H553 0.929 . S
N548 Mn541 2.257 . S
N548 C547 1.326 1_565 S
N548 C552 1.361 1_565 S
C549 C550 1.258 . S
C549 C552 1.442 . S
C549 C569 1.449 . S
C550 C549 1.258 . S
C550 C551 1.477 . S
C550 H570 0.931 . S
C551 C547 1.460 . S
C551 C550 1.477 . S
C551 H571 0.930 . S
C552 N548 1.361 1_545 S
C552 C549 1.442 . S
C552 C562 1.467 1_545 S
H553 C547 0.929 . S
C554 O545 1.250 . S
C554 O546 1.258 . S
O555 Mn540 2.162 . S
O555 C543 1.281 . S
O556 Mn540 2.297 . S
O556 C543 1.236 . S
N557 Mn541 2.282 . S
N557 C558 1.328 . S
N557 C562 1.318 . S
C558 N557 1.328 . S
C558 C559 1.457 . S
C558 H563 0.929 . S
C559 C558 1.457 . S
C559 C560 1.291 . S
C559 H572 0.931 . S
C560 C559 1.291 . S
C560 C561 1.373 . S
C560 H573 0.929 . S
C561 C560 1.373 . S
C561 C562 1.396 . S
C561 C568 1.403 1_565 S
C562 C552 1.467 1_565 S
C562 N557 1.318 . S
C562 C561 1.396 . S
H563 C558 0.929 . S
O564 Mn540 2.385 . S
O564 C542 1.234 . S
O565 Mn540 2.209 . S
O565 Mn541 2.215 . S
O565 C542 1.283 . S
O566 Mn540 2.094 . S
O566 C544 1.240 . S
O567 Mn541 2.117 . S
O567 C544 1.264 . S
C568 C561 1.403 1_545 S
C568 C569 1.399 . S
C568 H574 0.929 . S
C569 C549 1.449 . S
C569 C568 1.399 . S
C569 H575 0.930 . S
H570 C550 0.931 . S
H571 C551 0.930 . S
H572 C559 0.931 . S
H573 C560 0.929 . S
H574 C568 0.929 . S
H575 C569 0.930 . S
Mn576 O581 2.097 1_565 S
Mn576 O591 2.162 1_565 S
Mn576 O592 2.297 . S
Mn576 O600 2.384 . S
Mn576 O601 2.208 . S
Mn576 O602 2.094 1_565 S
Mn577 O582 2.121 1_565 S
Mn577 N584 2.257 . S
Mn577 N593 2.282 . S
Mn577 O601 2.215 . S
Mn577 O603 2.117 1_565 S
C578 O600 1.234 . S
C578 O601 1.283 . S
C579 O591 1.281 . S
C579 O592 1.236 1_545 S
C580 O602 1.240 . S
C580 O603 1.264 . S
O581 Mn576 2.097 1_545 S
O581 C590 1.250 . S
O582 Mn577 2.121 1_545 S
O582 C590 1.258 . S
C583 N584 1.326 . S
C583 C587 1.460 . S
C583 H589 0.929 1_565 S
N584 Mn577 2.257 . S
N584 C583 1.326 . S
N584 C588 1.362 . S
C585 C586 1.258 . S
C585 C588 1.431 . S
C585 C605 1.449 . S
C586 C585 1.258 . S
C586 C587 1.477 . S
C586 H606 0.931 . S
C587 C583 1.460 . S
C587 C586 1.477 . S
C587 H607 0.930 . S
C588 N584 1.362 . S
C588 C585 1.431 . S
C588 C598 1.476 . S
H589 C583 0.929 1_545 S
C590 O581 1.250 . S
C590 O582 1.258 . S
O591 Mn576 2.162 1_545 S
O591 C579 1.281 . S
O592 Mn576 2.297 . S
O592 C579 1.236 1_565 S
N593 Mn577 2.282 . S
N593 C594 1.328 . S
N593 C598 1.318 . S
C594 N593 1.328 . S
C594 C595 1.457 . S
C594 H599 0.929 . S
C595 C594 1.457 . S
C595 C596 1.291 . S
C595 H608 0.931 . S
C596 C595 1.291 . S
C596 C597 1.373 . S
C596 H609 0.929 . S
C597 C596 1.373 . S
C597 C598 1.396 . S
C597 C604 1.403 . S
C598 C588 1.476 . S
C598 N593 1.318 . S
C598 C597 1.396 . S
H599 C594 0.929 . S
O600 Mn576 2.384 . S
O600 C578 1.234 . S
O601 Mn576 2.208 . S
O601 Mn577 2.215 . S
O601 C578 1.283 . S
O602 Mn576 2.094 1_545 S
O602 C580 1.240 . S
O603 Mn577 2.117 1_545 S
O603 C580 1.264 . S
C604 C597 1.403 . S
C604 C605 1.399 . S
C604 H610 0.929 . S
C605 C585 1.449 . S
C605 C604 1.399 . S
C605 H611 0.930 . S
H606 C586 0.931 . S
H607 C587 0.930 . S
H608 C595 0.931 . S
H609 C596 0.929 . S
H610 C604 0.929 . S
H611 C605 0.930 . S
Mn612 O617 2.095 . S
Mn612 O627 2.162 . S
Mn612 O628 2.297 . S
Mn612 O636 2.385 . S
Mn612 O637 2.209 . S
Mn612 O638 2.094 . S
Mn613 O618 2.121 . S
Mn613 N620 2.257 . S
Mn613 N629 2.282 . S
Mn613 O637 2.215 . S
Mn613 O639 2.117 . S
C614 O636 1.234 . S
C614 O637 1.283 . S
C615 O627 1.281 . S
C615 O628 1.236 . S
C616 O638 1.240 . S
C616 O639 1.264 . S
O617 Mn612 2.095 . S
O617 C626 1.250 . S
O618 Mn613 2.121 . S
O618 C626 1.258 . S
C619 N620 1.326 . S
C619 C623 1.460 . S
C619 H625 0.929 . S
N620 Mn613 2.257 . S
N620 C619 1.326 . S
N620 C624 1.362 . S
C621 C622 1.258 . S
C621 C624 1.431 . S
C621 C641 1.449 . S
C622 C621 1.258 . S
C622 C623 1.477 . S
C622 H642 0.931 . S
C623 C619 1.460 . S
C623 C622 1.477 . S
C623 H643 0.930 . S
C624 N620 1.362 . S
C624 C621 1.431 . S
C624 C634 1.476 . S
H625 C619 0.929 . S
C626 O617 1.250 . S
C626 O618 1.258 . S
O627 Mn612 2.162 . S
O627 C615 1.281 . S
O628 Mn612 2.297 . S
O628 C615 1.236 . S
N629 Mn613 2.282 . S
N629 C630 1.328 . S
N629 C634 1.318 . S
C630 N629 1.328 . S
C630 C631 1.457 . S
C630 H635 0.929 . S
C631 C630 1.457 . S
C631 C632 1.291 . S
C631 H644 0.931 . S
C632 C631 1.291 . S
C632 C633 1.373 . S
C632 H645 0.929 . S
C633 C632 1.373 . S
C633 C634 1.396 . S
C633 C640 1.403 . S
C634 C624 1.476 . S
C634 N629 1.318 . S
C634 C633 1.396 . S
H635 C630 0.929 . S
O636 Mn612 2.385 . S
O636 C614 1.234 . S
O637 Mn612 2.209 . S
O637 Mn613 2.215 . S
O637 C614 1.283 . S
O638 Mn612 2.094 . S
O638 C616 1.240 . S
O639 Mn613 2.117 . S
O639 C616 1.264 . S
C640 C633 1.403 . S
C640 C641 1.399 . S
C640 H646 0.929 . S
C641 C621 1.449 . S
C641 C640 1.399 . S
C641 H647 0.930 . S
H642 C622 0.931 . S
H643 C623 0.930 . S
H644 C631 0.931 . S
H645 C632 0.929 . S
H646 C640 0.929 . S
H647 C641 0.930 . S
Mn648 O653 2.095 . S
Mn648 O663 2.162 . S
Mn648 O664 2.297 . S
Mn648 O672 2.385 . S
Mn648 O673 2.209 . S
Mn648 O674 2.094 . S
Mn649 O654 2.121 . S
Mn649 N656 2.257 . S
Mn649 N665 2.282 . S
Mn649 O673 2.215 . S
Mn649 O675 2.117 . S
C650 O672 1.234 . S
C650 O673 1.283 . S
C651 O663 1.281 . S
C651 O664 1.236 . S
C652 O674 1.240 . S
C652 O675 1.264 . S
O653 Mn648 2.095 . S
O653 C662 1.250 . S
O654 Mn649 2.121 . S
O654 C662 1.258 . S
C655 N656 1.326 . S
C655 C659 1.460 . S
C655 H661 0.929 . S
N656 Mn649 2.257 . S
N656 C655 1.326 . S
N656 C660 1.362 . S
C657 C658 1.258 . S
C657 C660 1.431 . S
C657 C677 1.449 . S
C658 C657 1.258 . S
C658 C659 1.477 . S
C658 H678 0.931 . S
C659 C655 1.460 . S
C659 C658 1.477 . S
C659 H679 0.930 . S
C660 N656 1.362 . S
C660 C657 1.431 . S
C660 C670 1.476 . S
H661 C655 0.929 . S
C662 O653 1.250 . S
C662 O654 1.258 . S
O663 Mn648 2.162 . S
O663 C651 1.281 . S
O664 Mn648 2.297 . S
O664 C651 1.236 . S
N665 Mn649 2.282 . S
N665 C666 1.328 . S
N665 C670 1.318 . S
C666 N665 1.328 . S
C666 C667 1.457 . S
C666 H671 0.929 . S
C667 C666 1.457 . S
C667 C668 1.291 . S
C667 H680 0.931 . S
C668 C667 1.291 . S
C668 C669 1.373 . S
C668 H681 0.929 . S
C669 C668 1.373 . S
C669 C670 1.396 . S
C669 C676 1.403 . S
C670 C660 1.476 . S
C670 N665 1.318 . S
C670 C669 1.396 . S
H671 C666 0.929 . S
O672 Mn648 2.385 . S
O672 C650 1.234 . S
O673 Mn648 2.209 . S
O673 Mn649 2.215 . S
O673 C650 1.283 . S
O674 Mn648 2.094 . S
O674 C652 1.240 . S
O675 Mn649 2.117 . S
O675 C652 1.264 . S
C676 C669 1.403 . S
C676 C677 1.399 . S
C676 H682 0.929 . S
C677 C657 1.449 . S
C677 C676 1.399 . S
C677 H683 0.930 . S
H678 C658 0.931 . S
H679 C659 0.930 . S
H680 C667 0.931 . S
H681 C668 0.929 . S
H682 C676 0.929 . S
H683 C677 0.930 . S
Mn684 O689 2.095 1_545 S
Mn684 O699 2.162 . S
Mn684 O700 2.297 . S
Mn684 O708 2.385 . S
Mn684 O709 2.209 . S
Mn684 O710 2.094 . S
Mn685 O690 2.121 1_545 S
Mn685 N692 2.257 . S
Mn685 N701 2.282 . S
Mn685 O709 2.215 . S
Mn685 O711 2.117 . S
C686 O708 1.234 . S
C686 O709 1.283 . S
C687 O699 1.281 . S
C687 O700 1.236 . S
C688 O710 1.240 . S
C688 O711 1.264 . S
O689 Mn684 2.095 1_565 S
O689 C698 1.250 . S
O690 Mn685 2.121 1_565 S
O690 C698 1.258 . S
C691 N692 1.326 . S
C691 C695 1.460 . S
C691 H697 0.929 . S
N692 Mn685 2.257 . S
N692 C691 1.326 . S
N692 C696 1.362 . S
C693 C694 1.258 . S
C693 C696 1.431 . S
C693 C713 1.449 . S
C694 C693 1.258 . S
C694 C695 1.477 . S
C694 H714 0.931 . S
C695 C691 1.460 . S
C695 C694 1.477 . S
C695 H715 0.930 . S
C696 N692 1.362 . S
C696 C693 1.431 . S
C696 C706 1.476 . S
H697 C691 0.929 . S
C698 O689 1.250 . S
C698 O690 1.258 . S
O699 Mn684 2.162 . S
O699 C687 1.281 . S
O700 Mn684 2.297 . S
O700 C687 1.236 . S
N701 Mn685 2.282 . S
N701 C702 1.328 . S
N701 C706 1.318 . S
C702 N701 1.328 . S
C702 C703 1.457 . S
C702 H707 0.929 . S
C703 C702 1.457 . S
C703 C704 1.291 . S
C703 H716 0.931 . S
C704 C703 1.291 . S
C704 C705 1.373 . S
C704 H717 0.929 . S
C705 C704 1.373 . S
C705 C706 1.396 . S
C705 C712 1.403 . S
C706 C696 1.476 . S
C706 N701 1.318 . S
C706 C705 1.396 . S
H707 C702 0.929 . S
O708 Mn684 2.385 . S
O708 C686 1.234 . S
O709 Mn684 2.209 . S
O709 Mn685 2.215 . S
O709 C686 1.283 . S
O710 Mn684 2.094 . S
O710 C688 1.240 . S
O711 Mn685 2.117 . S
O711 C688 1.264 . S
C712 C705 1.403 . S
C712 C713 1.399 . S
C712 H718 0.929 . S
C713 C693 1.449 . S
C713 C712 1.399 . S
C713 H719 0.930 . S
H714 C694 0.931 . S
H715 C695 0.930 . S
H716 C703 0.931 . S
H717 C704 0.929 . S
H718 C712 0.929 . S
H719 C713 0.930 . S
Mn720 O725 2.095 . S
Mn720 O735 2.162 . S
Mn720 O736 2.297 . S
Mn720 O744 2.385 . S
Mn720 O745 2.209 . S
Mn720 O746 2.094 1_554 S
Mn721 O726 2.121 1_556 S
Mn721 N728 2.257 . S
Mn721 N737 2.282 . S
Mn721 O745 2.215 1_556 S
Mn721 O747 2.117 . S
C722 O744 1.234 . S
C722 O745 1.283 . S
C723 O735 1.281 . S
C723 O736 1.236 . S
C724 O746 1.240 . S
C724 O747 1.264 . S
O725 Mn720 2.095 . S
O725 C734 1.250 . S
O726 Mn721 2.121 1_554 S
O726 C734 1.258 . S
C727 N728 1.326 . S
C727 C731 1.460 . S
C727 H733 0.929 1_556 S
N728 Mn721 2.257 . S
N728 C727 1.326 . S
N728 C732 1.362 . S
C729 C730 1.258 . S
C729 C732 1.431 . S
C729 C749 1.449 . S
C730 C729 1.258 . S
C730 C731 1.477 . S
C730 H750 0.931 . S
C731 C727 1.460 . S
C731 C730 1.477 . S
C731 H751 0.934 . S
C732 N728 1.362 . S
C732 C729 1.431 . S
C732 C742 1.476 . S
H733 C727 0.929 1_554 S
C734 O725 1.250 . S
C734 O726 1.258 . S
O735 Mn720 2.162 . S
O735 C723 1.281 . S
O736 Mn720 2.297 . S
O736 C723 1.236 . S
N737 Mn721 2.282 . S
N737 C738 1.328 . S
N737 C742 1.318 . S
C738 N737 1.328 . S
C738 C739 1.457 . S
C738 H743 0.929 . S
C739 C738 1.457 . S
C739 C740 1.291 . S
C739 H752 0.931 . S
C740 C739 1.291 . S
C740 C741 1.373 . S
C740 H753 0.929 . S
C741 C740 1.373 . S
C741 C742 1.396 . S
C741 C748 1.403 . S
C742 C732 1.476 . S
C742 N737 1.318 . S
C742 C741 1.396 . S
H743 C738 0.929 . S
O744 Mn720 2.385 . S
O744 C722 1.234 . S
O745 Mn720 2.209 . S
O745 Mn721 2.215 1_554 S
O745 C722 1.283 . S
O746 Mn720 2.094 1_556 S
O746 C724 1.240 . S
O747 Mn721 2.117 . S
O747 C724 1.264 . S
C748 C741 1.403 . S
C748 C749 1.399 . S
C748 H754 0.929 . S
C749 C729 1.449 . S
C749 C748 1.399 . S
C749 H755 0.930 . S
H750 C730 0.931 . S
H751 C731 0.934 . S
H752 C739 0.931 . S
H753 C740 0.929 . S
H754 C748 0.929 . S
H755 C749 0.930 . S
Mn756 O761 2.095 1_455 S
Mn756 O771 2.162 . S
Mn756 O772 2.297 1_455 S
Mn756 O780 2.385 . S
Mn756 O781 2.209 1_455 S
Mn756 O782 2.094 . S
Mn757 O762 2.121 . S
Mn757 N764 2.257 . S
Mn757 N773 2.282 . S
Mn757 O781 2.215 . S
Mn757 O783 2.128 . S
C758 O780 1.234 1_655 S
C758 O781 1.283 . S
C759 O771 1.281 . S
C759 O772 1.236 1_455 S
C760 O782 1.240 . S
C760 O783 1.252 1_455 S
O761 Mn756 2.095 1_655 S
O761 C770 1.250 . S
O762 Mn757 2.121 . S
O762 C770 1.258 . S
C763 N764 1.326 . S
C763 C767 1.460 . S
C763 H769 0.929 . S
N764 Mn757 2.257 . S
N764 C763 1.326 . S
N764 C768 1.362 . S
C765 C766 1.258 . S
C765 C768 1.431 . S
C765 C785 1.449 . S
C766 C765 1.258 . S
C766 C767 1.477 . S
C766 H786 0.931 . S
C767 C763 1.460 . S
C767 C766 1.477 . S
C767 H787 0.930 . S
C768 N764 1.362 . S
C768 C765 1.431 . S
C768 C778 1.476 . S
H769 C763 0.929 . S
C770 O761 1.250 . S
C770 O762 1.258 . S
O771 Mn756 2.162 . S
O771 C759 1.281 . S
O772 Mn756 2.297 1_655 S
O772 C759 1.236 1_655 S
N773 Mn757 2.282 . S
N773 C774 1.328 . S
N773 C778 1.318 . S
C774 N773 1.328 . S
C774 C775 1.457 . S
C774 H779 0.929 . S
C775 C774 1.457 . S
C775 C776 1.291 . S
C775 H788 0.931 . S
C776 C775 1.291 . S
C776 C777 1.373 . S
C776 H789 0.929 . S
C777 C776 1.373 . S
C777 C778 1.396 . S
C777 C784 1.403 . S
C778 C768 1.476 . S
C778 N773 1.318 . S
C778 C777 1.396 . S
H779 C774 0.929 . S
O780 Mn756 2.385 . S
O780 C758 1.234 1_455 S
O781 Mn756 2.209 1_655 S
O781 Mn757 2.215 . S
O781 C758 1.283 . S
O782 Mn756 2.094 . S
O782 C760 1.240 . S
O783 Mn757 2.128 . S
O783 C760 1.252 1_655 S
C784 C777 1.403 . S
C784 C785 1.399 . S
C784 H790 0.929 . S
C785 C765 1.449 . S
C785 C784 1.399 . S
C785 H791 0.930 . S
H786 C766 0.931 . S
H787 C767 0.930 . S
H788 C775 0.931 . S
H789 C776 0.929 . S
H790 C784 0.929 . S
H791 C785 0.930 . S
Mn792 O797 2.095 . S
Mn792 O807 2.162 . S
Mn792 O808 2.297 . S
Mn792 O816 2.385 . S
Mn792 O817 2.209 . S
Mn792 O818 2.094 . S
Mn793 O798 2.121 . S
Mn793 N800 2.257 . S
Mn793 N809 2.282 . S
Mn793 O817 2.215 . S
Mn793 O819 2.117 . S
C794 O816 1.234 . S
C794 O817 1.283 . S
C795 O807 1.281 . S
C795 O808 1.236 . S
C796 O818 1.240 . S
C796 O819 1.264 . S
O797 Mn792 2.095 . S
O797 C806 1.250 . S
O798 Mn793 2.121 . S
O798 C806 1.258 . S
C799 N800 1.326 . S
C799 C803 1.460 . S
C799 H805 0.929 . S
N800 Mn793 2.257 . S
N800 C799 1.326 . S
N800 C804 1.362 . S
C801 C802 1.258 . S
C801 C804 1.431 . S
C801 C821 1.449 . S
C802 C801 1.258 . S
C802 C803 1.477 . S
C802 H822 0.931 . S
C803 C799 1.460 . S
C803 C802 1.477 . S
C803 H823 0.930 . S
C804 N800 1.362 . S
C804 C801 1.431 . S
C804 C814 1.476 . S
H805 C799 0.929 . S
C806 O797 1.250 . S
C806 O798 1.258 . S
O807 Mn792 2.162 . S
O807 C795 1.281 . S
O808 Mn792 2.297 . S
O808 C795 1.236 . S
N809 Mn793 2.282 . S
N809 C810 1.328 . S
N809 C814 1.318 . S
C810 N809 1.328 . S
C810 C811 1.457 . S
C810 H815 0.929 . S
C811 C810 1.457 . S
C811 C812 1.291 . S
C811 H824 0.931 . S
C812 C811 1.291 . S
C812 C813 1.373 . S
C812 H825 0.929 . S
C813 C812 1.373 . S
C813 C814 1.396 . S
C813 C820 1.403 . S
C814 C804 1.476 . S
C814 N809 1.318 . S
C814 C813 1.396 . S
H815 C810 0.929 . S
O816 Mn792 2.385 . S
O816 C794 1.234 . S
O817 Mn792 2.209 . S
O817 Mn793 2.215 . S
O817 C794 1.283 . S
O818 Mn792 2.094 . S
O818 C796 1.240 . S
O819 Mn793 2.117 . S
O819 C796 1.264 . S
C820 C813 1.403 . S
C820 C821 1.399 . S
C820 H826 0.929 . S
C821 C801 1.449 . S
C821 C820 1.399 . S
C821 H827 0.930 . S
H822 C802 0.931 . S
H823 C803 0.930 . S
H824 C811 0.931 . S
H825 C812 0.929 . S
H826 C820 0.929 . S
H827 C821 0.930 . S
Mn828 O833 2.095 . S
Mn828 O843 2.162 . S
Mn828 O844 2.297 . S
Mn828 O852 2.385 . S
Mn828 O853 2.209 . S
Mn828 O854 2.094 . S
Mn829 O834 2.121 . S
Mn829 N836 2.257 . S
Mn829 N845 2.282 . S
Mn829 O853 2.215 . S
Mn829 O855 2.117 . S
C830 O852 1.234 . S
C830 O853 1.283 . S
C831 O843 1.281 . S
C831 O844 1.236 . S
C832 O854 1.240 . S
C832 O855 1.264 . S
O833 Mn828 2.095 . S
O833 C842 1.250 . S
O834 Mn829 2.121 . S
O834 C842 1.258 . S
C835 N836 1.326 . S
C835 C839 1.460 . S
C835 H841 0.929 . S
N836 Mn829 2.257 . S
N836 C835 1.326 . S
N836 C840 1.362 . S
C837 C838 1.258 . S
C837 C840 1.431 . S
C837 C857 1.449 . S
C838 C837 1.258 . S
C838 C839 1.477 . S
C838 H858 0.931 . S
C839 C835 1.460 . S
C839 C838 1.477 . S
C839 H859 0.930 . S
C840 N836 1.362 . S
C840 C837 1.431 . S
C840 C850 1.476 . S
H841 C835 0.929 . S
C842 O833 1.250 . S
C842 O834 1.258 . S
O843 Mn828 2.162 . S
O843 C831 1.281 . S
O844 Mn828 2.297 . S
O844 C831 1.236 . S
N845 Mn829 2.282 . S
N845 C846 1.328 . S
N845 C850 1.318 . S
C846 N845 1.328 . S
C846 C847 1.457 . S
C846 H851 0.929 . S
C847 C846 1.457 . S
C847 C848 1.291 . S
C847 H860 0.931 . S
C848 C847 1.291 . S
C848 C849 1.373 . S
C848 H861 0.929 . S
C849 C848 1.373 . S
C849 C850 1.396 . S
C849 C856 1.403 . S
C850 C840 1.476 . S
C850 N845 1.318 . S
C850 C849 1.396 . S
H851 C846 0.929 . S
O852 Mn828 2.385 . S
O852 C830 1.234 . S
O853 Mn828 2.209 . S
O853 Mn829 2.215 . S
O853 C830 1.283 . S
O854 Mn828 2.094 . S
O854 C832 1.240 . S
O855 Mn829 2.117 . S
O855 C832 1.264 . S
C856 C849 1.403 . S
C856 C857 1.399 . S
C856 H862 0.929 . S
C857 C837 1.449 . S
C857 C856 1.399 . S
C857 H863 0.930 . S
H858 C838 0.931 . S
H859 C839 0.930 . S
H860 C847 0.931 . S
H861 C848 0.929 . S
H862 C856 0.929 . S
H863 C857 0.930 . S
Tb864 C874 2.825 1_455 S
Tb864 O875 2.348 1_556 S
Tb864 O878 2.366 . S
Tb864 O883 2.417 . S
Tb864 O884 2.384 1_546 S
Tb864 O887 2.478 1_455 S
Tb864 O888 2.472 1_456 S
Eu865 O876 2.418 . S
Eu865 O877 2.384 . S
Eu865 O880 2.479 . S
Eu865 O881 2.471 . S
Eu865 O882 2.345 1_554 S
Eu865 O885 2.366 . S
Eu865 C895 2.825 . S
C866 O882 1.260 . S
C866 O883 1.265 . S
C867 O884 1.255 . S
C867 O885 1.265 1_565 S
C868 C870 1.380 . S
C868 C871 1.374 . S
C868 C874 1.507 . S
C869 C870 1.384 . S
C869 C873 1.387 . S
C869 H896 0.930 . S
C870 C868 1.380 . S
C870 C869 1.384 . S
C870 H897 0.931 . S
C871 C868 1.374 . S
C871 C872 1.390 . S
C871 H898 0.930 1_556 S
C872 C871 1.390 . S
C872 C873 1.391 . S
C872 H899 0.930 . S
C873 C869 1.387 . S
C873 C872 1.391 . S
C874 Tb864 2.825 1_655 S
C874 C868 1.507 . S
C874 O887 1.238 . S
C874 O888 1.247 1_556 S
O875 Tb864 2.348 1_554 S
O875 C879 1.259 . S
O876 Eu865 2.418 . S
O876 C879 1.265 . S
O877 Eu865 2.384 . S
O877 C886 1.255 . S
O878 Tb864 2.366 . S
O878 C886 1.265 1_556 S
C879 O875 1.259 . S
C879 O876 1.265 . S
O880 Eu865 2.479 . S
O880 C895 1.238 . S
O881 Eu865 2.471 . S
O881 C895 1.247 . S
O882 Eu865 2.345 1_556 S
O882 C866 1.260 . S
O883 Tb864 2.417 . S
O883 C866 1.265 . S
O884 Tb864 2.384 1_564 S
O884 C867 1.255 . S
O885 Eu865 2.366 . S
O885 C867 1.265 1_545 S
C886 O877 1.255 . S
C886 O878 1.265 1_554 S
O887 Tb864 2.478 1_655 S
O887 C874 1.238 . S
O888 Tb864 2.472 1_654 S
O888 C874 1.247 1_554 S
C889 C892 1.380 . S
C889 C893 1.374 . S
C889 C895 1.507 . S
C890 C891 1.359 1_565 S
C890 C894 1.392 . S
C891 C890 1.359 1_545 S
C891 C892 1.384 . S
C891 H900 0.930 . S
C892 C889 1.380 . S
C892 C891 1.384 . S
C892 H901 0.931 . S
C893 C889 1.374 . S
C893 C894 1.390 1_545 S
C893 H902 0.930 . S
C894 C890 1.392 . S
C894 C893 1.390 1_565 S
C894 H903 0.930 . S
C895 Eu865 2.825 . S
C895 O880 1.238 . S
C895 O881 1.247 . S
C895 C889 1.507 . S
H896 C869 0.930 . S
H897 C870 0.931 . S
H898 C871 0.930 1_554 S
H899 C872 0.930 . S
H900 C891 0.930 . S
H901 C892 0.931 . S
H902 C893 0.930 . S
H903 C894 0.930 . S
Tb904 C914 2.825 . S
Tb904 O915 2.347 . S
Tb904 O918 2.366 . S
Tb904 O923 2.418 . S
Tb904 O924 2.384 . S
Tb904 O927 2.479 . S
Tb904 O928 2.471 . S
Eu905 O916 2.418 . S
Eu905 O917 2.384 . S
Eu905 O920 2.479 . S
Eu905 O921 2.471 . S
Eu905 O922 2.347 . S
Eu905 O925 2.366 . S
Eu905 C935 2.825 . S
C906 O922 1.259 . S
C906 O923 1.265 . S
C907 O924 1.255 . S
C907 O925 1.265 . S
C908 C910 1.380 . S
C908 C911 1.374 . S
C908 C914 1.507 . S
C909 C910 1.384 . S
C909 C913 1.387 . S
C909 H936 0.930 . S
C910 C908 1.380 . S
C910 C909 1.384 . S
C910 H937 0.931 . S
C911 C908 1.374 . S
C911 C912 1.390 . S
C911 H938 0.930 . S
C912 C911 1.390 . S
C912 C913 1.391 . S
C912 H939 0.930 . S
C913 C909 1.387 . S
C913 C912 1.391 . S
C914 Tb904 2.825 . S
C914 C908 1.507 . S
C914 O927 1.238 . S
C914 O928 1.247 . S
O915 Tb904 2.347 . S
O915 C919 1.259 . S
O916 Eu905 2.418 . S
O916 C919 1.265 . S
O917 Eu905 2.384 . S
O917 C926 1.255 . S
O918 Tb904 2.366 . S
O918 C926 1.265 . S
C919 O915 1.259 . S
C919 O916 1.265 . S
O920 Eu905 2.479 . S
O920 C935 1.238 . S
O921 Eu905 2.471 . S
O921 C935 1.247 . S
O922 Eu905 2.347 . S
O922 C906 1.259 . S
O923 Tb904 2.418 . S
O923 C906 1.265 . S
O924 Tb904 2.384 . S
O924 C907 1.255 . S
O925 Eu905 2.366 . S
O925 C907 1.265 . S
C926 O917 1.255 . S
C926 O918 1.265 . S
O927 Tb904 2.479 . S
O927 C914 1.238 . S
O928 Tb904 2.471 . S
O928 C914 1.247 . S
C929 C932 1.380 . S
C929 C933 1.374 . S
C929 C935 1.507 . S
C930 C931 1.387 . S
C930 C934 1.391 . S
C931 C930 1.387 . S
C931 C932 1.384 . S
C931 H940 0.930 . S
C932 C929 1.380 . S
C932 C931 1.384 . S
C932 H941 0.931 . S
C933 C929 1.374 . S
C933 C934 1.390 . S
C933 H942 0.930 . S
C934 C930 1.391 . S
C934 C933 1.390 . S
C934 H943 0.930 . S
C935 Eu905 2.825 . S
C935 O920 1.238 . S
C935 O921 1.247 . S
C935 C929 1.507 . S
H936 C909 0.930 . S
H937 C910 0.931 . S
H938 C911 0.930 . S
H939 C912 0.930 . S
H940 C931 0.930 . S
H941 C932 0.931 . S
H942 C933 0.930 . S
H943 C934 0.930 . S
Tb944 C954 2.825 1_545 S
Tb944 O955 2.347 . S
Tb944 O958 2.366 . S
Tb944 O963 2.418 . S
Tb944 O964 2.384 . S
Tb944 O967 2.479 1_545 S
Tb944 O968 2.471 1_545 S
Eu945 O956 2.418 . S
Eu945 O957 2.384 . S
Eu945 O960 2.479 . S
Eu945 O961 2.471 . S
Eu945 O962 2.347 . S
Eu945 O965 2.366 . S
Eu945 C975 2.825 . S
C946 O962 1.259 . S
C946 O963 1.265 . S
C947 O964 1.255 . S
C947 O965 1.265 . S
C948 C950 1.380 . S
C948 C951 1.374 . S
C948 C954 1.507 . S
C949 C950 1.384 . S
C949 C953 1.387 . S
C949 H976 0.930 . S
C950 C948 1.380 . S
C950 C949 1.384 . S
C950 H977 0.931 . S
C951 C948 1.374 . S
C951 C952 1.390 . S
C951 H978 0.930 . S
C952 C951 1.390 . S
C952 C953 1.391 . S
C952 H979 0.930 . S
C953 C949 1.387 . S
C953 C952 1.391 . S
C954 Tb944 2.825 1_565 S
C954 C948 1.507 . S
C954 O967 1.238 . S
C954 O968 1.247 . S
O955 Tb944 2.347 . S
O955 C959 1.259 . S
O956 Eu945 2.418 . S
O956 C959 1.265 . S
O957 Eu945 2.384 . S
O957 C966 1.255 . S
O958 Tb944 2.366 . S
O958 C966 1.265 . S
C959 O955 1.259 . S
C959 O956 1.265 . S
O960 Eu945 2.479 . S
O960 C975 1.238 . S
O961 Eu945 2.471 . S
O961 C975 1.247 . S
O962 Eu945 2.347 . S
O962 C946 1.259 . S
O963 Tb944 2.418 . S
O963 C946 1.265 . S
O964 Tb944 2.384 . S
O964 C947 1.255 . S
O965 Eu945 2.366 . S
O965 C947 1.265 . S
C966 O957 1.255 . S
C966 O958 1.265 . S
O967 Tb944 2.479 1_565 S
O967 C954 1.238 . S
O968 Tb944 2.471 1_565 S
O968 C954 1.247 . S
C969 C972 1.380 . S
C969 C973 1.374 . S
C969 C975 1.507 . S
C970 C971 1.387 . S
C970 C974 1.391 . S
C971 C970 1.387 . S
C971 C972 1.384 . S
C971 H980 0.930 . S
C972 C969 1.380 . S
C972 C971 1.384 . S
C972 H981 0.931 . S
C973 C969 1.374 . S
C973 C974 1.390 . S
C973 H982 0.930 . S
C974 C970 1.391 . S
C974 C973 1.390 . S
C974 H983 0.930 . S
C975 Eu945 2.825 . S
C975 O960 1.238 . S
C975 O961 1.247 . S
C975 C969 1.507 . S
H976 C949 0.930 . S
H977 C950 0.931 . S
H978 C951 0.930 . S
H979 C952 0.930 . S
H980 C971 0.930 . S
H981 C972 0.931 . S
H982 C973 0.930 . S
H983 C974 0.930 . S
Tb984 C994 2.825 . S
Tb984 O995 2.347 . S
Tb984 O998 2.366 . S
Tb984 O1003 2.418 . S
Tb984 O1004 2.384 . S
Tb984 O1007 2.479 . S
Tb984 O1008 2.471 . S
Eu985 O996 2.418 . S
Eu985 O997 2.384 . S
Eu985 O1000 2.479 . S
Eu985 O1001 2.471 . S
Eu985 O1002 2.347 . S
Eu985 O1005 2.366 . S
Eu985 C1015 2.825 . S
C986 O1002 1.259 . S
C986 O1003 1.265 . S
C987 O1004 1.255 . S
C987 O1005 1.265 . S
C988 C990 1.380 . S
C988 C991 1.374 . S
C988 C994 1.507 . S
C989 C990 1.384 . S
C989 C993 1.387 . S
C989 H1016 0.930 . S
C990 C988 1.380 . S
C990 C989 1.384 . S
C990 H1017 0.931 . S
C991 C988 1.374 . S
C991 C992 1.390 . S
C991 H1018 0.930 . S
C992 C991 1.390 . S
C992 C993 1.391 . S
C992 H1019 0.930 . S
C993 C989 1.387 . S
C993 C992 1.391 . S
C994 Tb984 2.825 . S
C994 C988 1.507 . S
C994 O1007 1.238 . S
C994 O1008 1.247 . S
O995 Tb984 2.347 . S
O995 C999 1.259 . S
O996 Eu985 2.418 . S
O996 C999 1.265 . S
O997 Eu985 2.384 . S
O997 C1006 1.255 . S
O998 Tb984 2.366 . S
O998 C1006 1.265 . S
C999 O995 1.259 . S
C999 O996 1.265 . S
O1000 Eu985 2.479 . S
O1000 C1015 1.238 . S
O1001 Eu985 2.471 . S
O1001 C1015 1.247 . S
O1002 Eu985 2.347 . S
O1002 C986 1.259 . S
O1003 Tb984 2.418 . S
O1003 C986 1.265 . S
O1004 Tb984 2.384 . S
O1004 C987 1.255 . S
O1005 Eu985 2.366 . S
O1005 C987 1.265 . S
C1006 O997 1.255 . S
C1006 O998 1.265 . S
O1007 Tb984 2.479 . S
O1007 C994 1.238 . S
O1008 Tb984 2.471 . S
O1008 C994 1.247 . S
C1009 C1012 1.380 . S
C1009 C1013 1.374 . S
C1009 C1015 1.507 . S
C1010 C1011 1.387 . S
C1010 C1014 1.391 . S
C1011 C1010 1.387 . S
C1011 C1012 1.384 . S
C1011 H1020 0.930 . S
C1012 C1009 1.380 . S
C1012 C1011 1.384 . S
C1012 H1021 0.931 . S
C1013 C1009 1.374 . S
C1013 C1014 1.390 . S
C1013 H1022 0.930 . S
C1014 C1010 1.391 . S
C1014 C1013 1.390 . S
C1014 H1023 0.930 . S
C1015 Eu985 2.825 . S
C1015 O1000 1.238 . S
C1015 O1001 1.247 . S
C1015 C1009 1.507 . S
H1016 C989 0.930 . S
H1017 C990 0.931 . S
H1018 C991 0.930 . S
H1019 C992 0.930 . S
H1020 C1011 0.930 . S
H1021 C1012 0.931 . S
H1022 C1013 0.930 . S
H1023 C1014 0.930 . S
Tb1024 C1034 2.825 . S
Tb1024 O1035 2.347 . S
Tb1024 O1038 2.366 . S
Tb1024 O1043 2.418 . S
Tb1024 O1044 2.413 . S
Tb1024 O1047 2.479 . S
Tb1024 O1048 2.471 . S
Eu1025 O1036 2.418 . S
Eu1025 O1037 2.384 . S
Eu1025 O1040 2.479 . S
Eu1025 O1041 2.471 . S
Eu1025 O1042 2.347 . S
Eu1025 O1045 2.366 . S
Eu1025 C1055 2.825 . S
C1026 O1042 1.259 . S
C1026 O1043 1.265 . S
C1027 O1044 1.258 . S
C1027 O1045 1.265 . S
C1028 C1030 1.380 . S
C1028 C1031 1.374 1_455 S
C1028 C1034 1.507 . S
C1029 C1030 1.384 . S
C1029 C1033 1.387 1_455 S
C1029 H1056 0.930 . S
C1030 C1028 1.380 . S
C1030 C1029 1.384 . S
C1030 H1057 0.931 . S
C1031 C1028 1.374 1_655 S
C1031 C1032 1.390 . S
C1031 H1058 0.930 . S
C1032 C1031 1.390 . S
C1032 C1033 1.391 . S
C1032 H1059 0.930 . S
C1033 C1029 1.387 1_655 S
C1033 C1032 1.391 . S
C1034 Tb1024 2.825 . S
C1034 C1028 1.507 . S
C1034 O1047 1.238 . S
C1034 O1048 1.247 . S
O1035 Tb1024 2.347 . S
O1035 C1039 1.259 . S
O1036 Eu1025 2.418 . S
O1036 C1039 1.265 . S
O1037 Eu1025 2.384 . S
O1037 C1046 1.255 . S
O1038 Tb1024 2.366 . S
O1038 C1046 1.265 . S
C1039 O1035 1.259 . S
C1039 O1036 1.265 . S
O1040 Eu1025 2.479 . S
O1040 C1055 1.238 . S
O1041 Eu1025 2.471 . S
O1041 C1055 1.247 . S
O1042 Eu1025 2.347 . S
O1042 C1026 1.259 . S
O1043 Tb1024 2.418 . S
O1043 C1026 1.265 . S
O1044 Tb1024 2.413 . S
O1044 C1027 1.258 . S
O1045 Eu1025 2.366 . S
O1045 C1027 1.265 . S
C1046 O1037 1.255 . S
C1046 O1038 1.265 . S
O1047 Tb1024 2.479 . S
O1047 C1034 1.238 . S
O1048 Tb1024 2.471 . S
O1048 C1034 1.247 . S
C1049 C1052 1.380 . S
C1049 C1053 1.374 . S
C1049 C1055 1.507 . S
C1050 C1051 1.387 . S
C1050 C1054 1.391 . S
C1051 C1050 1.387 . S
C1051 C1052 1.384 . S
C1051 H1060 0.930 . S
C1052 C1049 1.380 . S
C1052 C1051 1.384 . S
C1052 H1061 0.931 . S
C1053 C1049 1.374 . S
C1053 C1054 1.390 . S
C1053 H1062 0.930 . S
C1054 C1050 1.391 . S
C1054 C1053 1.390 . S
C1054 H1063 0.930 . S
C1055 Eu1025 2.825 . S
C1055 O1040 1.238 . S
C1055 O1041 1.247 . S
C1055 C1049 1.507 . S
H1056 C1029 0.930 . S
H1057 C1030 0.931 . S
H1058 C1031 0.930 . S
H1059 C1032 0.930 . S
H1060 C1051 0.930 . S
H1061 C1052 0.931 . S
H1062 C1053 0.930 . S
H1063 C1054 0.930 . S
Tb1064 C1074 2.825 . S
Tb1064 O1075 2.347 . S
Tb1064 O1078 2.366 . S
Tb1064 O1083 2.418 . S
Tb1064 O1084 2.384 . S
Tb1064 O1087 2.479 . S
Tb1064 O1088 2.471 . S
Eu1065 O1076 2.418 . S
Eu1065 O1077 2.384 . S
Eu1065 O1080 2.479 . S
Eu1065 O1081 2.471 . S
Eu1065 O1082 2.347 . S
Eu1065 O1085 2.366 . S
Eu1065 C1095 2.825 . S
C1066 O1082 1.259 . S
C1066 O1083 1.265 . S
C1067 O1084 1.255 . S
C1067 O1085 1.265 . S
C1068 C1070 1.380 . S
C1068 C1071 1.374 . S
C1068 C1074 1.507 . S
C1069 C1070 1.384 . S
C1069 C1073 1.387 . S
C1069 H1096 0.930 . S
C1070 C1068 1.380 . S
C1070 C1069 1.384 . S
C1070 H1097 0.931 . S
C1071 C1068 1.374 . S
C1071 C1072 1.390 . S
C1071 H1098 0.930 . S
C1072 C1071 1.390 . S
C1072 C1073 1.391 . S
C1072 H1099 0.930 . S
C1073 C1069 1.387 . S
C1073 C1072 1.391 . S
C1074 Tb1064 2.825 . S
C1074 C1068 1.507 . S
C1074 O1087 1.238 . S
C1074 O1088 1.247 . S
O1075 Tb1064 2.347 . S
O1075 C1079 1.259 . S
O1076 Eu1065 2.418 . S
O1076 C1079 1.265 . S
O1077 Eu1065 2.384 . S
O1077 C1086 1.255 . S
O1078 Tb1064 2.366 . S
O1078 C1086 1.265 . S
C1079 O1075 1.259 . S
C1079 O1076 1.265 . S
O1080 Eu1065 2.479 . S
O1080 C1095 1.238 . S
O1081 Eu1065 2.471 . S
O1081 C1095 1.247 . S
O1082 Eu1065 2.347 . S
O1082 C1066 1.259 . S
O1083 Tb1064 2.418 . S
O1083 C1066 1.265 . S
O1084 Tb1064 2.384 . S
O1084 C1067 1.255 . S
O1085 Eu1065 2.366 . S
O1085 C1067 1.265 . S
C1086 O1077 1.255 . S
C1086 O1078 1.265 . S
O1087 Tb1064 2.479 . S
O1087 C1074 1.238 . S
O1088 Tb1064 2.471 . S
O1088 C1074 1.247 . S
C1089 C1092 1.380 . S
C1089 C1093 1.374 . S
C1089 C1095 1.507 . S
C1090 C1091 1.387 . S
C1090 C1094 1.391 . S
C1091 C1090 1.387 . S
C1091 C1092 1.384 . S
C1091 H1100 0.930 . S
C1092 C1089 1.380 . S
C1092 C1091 1.384 . S
C1092 H1101 0.931 . S
C1093 C1089 1.374 . S
C1093 C1094 1.390 . S
C1093 H1102 0.930 . S
C1094 C1090 1.391 . S
C1094 C1093 1.390 . S
C1094 H1103 0.930 . S
C1095 Eu1065 2.825 . S
C1095 O1080 1.238 . S
C1095 O1081 1.247 . S
C1095 C1089 1.507 . S
H1096 C1069 0.930 . S
H1097 C1070 0.931 . S
H1098 C1071 0.930 . S
H1099 C1072 0.930 . S
H1100 C1091 0.930 . S
H1101 C1092 0.931 . S
H1102 C1093 0.930 . S
H1103 C1094 0.930 . S
Tb1104 C1114 2.825 . S
Tb1104 O1115 2.347 . S
Tb1104 O1118 2.366 . S
Tb1104 O1123 2.401 1_545 S
Tb1104 O1124 2.384 . S
Tb1104 O1127 2.479 . S
Tb1104 O1128 2.471 . S
Eu1105 O1116 2.418 1_556 S
Eu1105 O1117 2.384 1_556 S
Eu1105 O1120 2.479 . S
Eu1105 O1121 2.471 . S
Eu1105 O1122 2.347 1_556 S
Eu1105 O1125 2.366 . S
Eu1105 C1135 2.825 . S
C1106 O1122 1.287 . S
C1106 O1123 1.257 1_545 S
C1107 O1124 1.255 . S
C1107 O1125 1.265 1_554 S
C1108 C1110 1.380 . S
C1108 C1111 1.374 . S
C1108 C1114 1.507 . S
C1109 C1110 1.384 . S
C1109 C1113 1.387 . S
C1109 H1136 0.930 1_545 S
C1110 C1108 1.380 . S
C1110 C1109 1.384 . S
C1110 H1137 0.931 1_545 S
C1111 C1108 1.374 . S
C1111 C1112 1.390 . S
C1111 H1138 0.930 . S
C1112 C1111 1.390 . S
C1112 C1113 1.391 . S
C1112 H1139 0.930 . S
C1113 C1109 1.387 . S
C1113 C1112 1.391 . S
C1114 Tb1104 2.825 . S
C1114 C1108 1.507 . S
C1114 O1127 1.238 . S
C1114 O1128 1.247 . S
O1115 Tb1104 2.347 . S
O1115 C1119 1.259 . S
O1116 Eu1105 2.418 1_554 S
O1116 C1119 1.265 . S
O1117 Eu1105 2.384 1_554 S
O1117 C1126 1.255 . S
O1118 Tb1104 2.366 . S
O1118 C1126 1.265 . S
C1119 O1115 1.259 . S
C1119 O1116 1.265 . S
O1120 Eu1105 2.479 . S
O1120 C1135 1.238 . S
O1121 Eu1105 2.471 . S
O1121 C1135 1.247 . S
O1122 Eu1105 2.347 1_554 S
O1122 C1106 1.287 . S
O1123 Tb1104 2.401 1_565 S
O1123 C1106 1.257 1_565 S
O1124 Tb1104 2.384 . S
O1124 C1107 1.255 . S
O1125 Eu1105 2.366 . S
O1125 C1107 1.265 1_556 S
C1126 O1117 1.255 . S
C1126 O1118 1.265 . S
O1127 Tb1104 2.479 . S
O1127 C1114 1.238 . S
O1128 Tb1104 2.471 . S
O1128 C1114 1.247 . S
C1129 C1132 1.380 . S
C1129 C1133 1.374 . S
C1129 C1135 1.507 . S
C1130 C1131 1.387 . S
C1130 C1134 1.391 . S
C1131 C1130 1.387 . S
C1131 C1132 1.384 . S
C1131 H1140 0.930 . S
C1132 C1129 1.380 . S
C1132 C1131 1.384 . S
C1132 H1141 0.931 . S
C1133 C1129 1.374 . S
C1133 C1134 1.390 . S
C1133 H1142 0.930 . S
C1134 C1130 1.391 . S
C1134 C1133 1.390 . S
C1134 H1143 0.930 . S
C1135 Eu1105 2.825 . S
C1135 O1120 1.238 . S
C1135 O1121 1.247 . S
C1135 C1129 1.507 . S
H1136 C1109 0.930 1_565 S
H1137 C1110 0.931 1_565 S
H1138 C1111 0.930 . S
H1139 C1112 0.930 . S
H1140 C1131 0.930 . S
H1141 C1132 0.931 . S
H1142 C1133 0.930 . S
H1143 C1134 0.930 . S
Tb1144 C1154 2.825 . S
Tb1144 O1155 2.347 . S
Tb1144 O1158 2.366 . S
Tb1144 O1163 2.418 . S
Tb1144 O1164 2.384 . S
Tb1144 O1167 2.479 . S
Tb1144 O1168 2.471 . S
Eu1145 O1156 2.418 . S
Eu1145 O1157 2.384 . S
Eu1145 O1160 2.479 . S
Eu1145 O1161 2.471 . S
Eu1145 O1162 2.347 . S
Eu1145 O1165 2.366 . S
Eu1145 C1175 2.825 . S
C1146 O1162 1.259 . S
C1146 O1163 1.265 . S
C1147 O1164 1.255 . S
C1147 O1165 1.265 . S
C1148 C1150 1.380 . S
C1148 C1151 1.374 . S
C1148 C1154 1.507 . S
C1149 C1150 1.384 . S
C1149 C1153 1.387 . S
C1149 H1176 0.930 . S
C1150 C1148 1.380 . S
C1150 C1149 1.384 . S
C1150 H1177 0.931 . S
C1151 C1148 1.374 . S
C1151 C1152 1.390 . S
C1151 H1178 0.930 . S
C1152 C1151 1.390 . S
C1152 C1153 1.391 . S
C1152 H1179 0.930 . S
C1153 C1149 1.387 . S
C1153 C1152 1.391 . S
C1154 Tb1144 2.825 . S
C1154 C1148 1.507 . S
C1154 O1167 1.238 . S
C1154 O1168 1.247 . S
O1155 Tb1144 2.347 . S
O1155 C1159 1.259 . S
O1156 Eu1145 2.418 . S
O1156 C1159 1.265 . S
O1157 Eu1145 2.384 . S
O1157 C1166 1.255 . S
O1158 Tb1144 2.366 . S
O1158 C1166 1.265 . S
C1159 O1155 1.259 . S
C1159 O1156 1.265 . S
O1160 Eu1145 2.479 . S
O1160 C1175 1.238 . S
O1161 Eu1145 2.471 . S
O1161 C1175 1.247 . S
O1162 Eu1145 2.347 . S
O1162 C1146 1.259 . S
O1163 Tb1144 2.418 . S
O1163 C1146 1.265 . S
O1164 Tb1144 2.384 . S
O1164 C1147 1.255 . S
O1165 Eu1145 2.366 . S
O1165 C1147 1.265 . S
C1166 O1157 1.255 . S
C1166 O1158 1.265 . S
O1167 Tb1144 2.479 . S
O1167 C1154 1.238 . S
O1168 Tb1144 2.471 . S
O1168 C1154 1.247 . S
C1169 C1172 1.380 . S
C1169 C1173 1.374 . S
C1169 C1175 1.507 . S
C1170 C1171 1.387 . S
C1170 C1174 1.391 . S
C1171 C1170 1.387 . S
C1171 C1172 1.384 . S
C1171 H1180 0.930 . S
C1172 C1169 1.380 . S
C1172 C1171 1.384 . S
C1172 H1181 0.931 . S
C1173 C1169 1.374 . S
C1173 C1174 1.390 . S
C1173 H1182 0.930 . S
C1174 C1170 1.391 . S
C1174 C1173 1.390 . S
C1174 H1183 0.930 . S
C1175 Eu1145 2.825 . S
C1175 O1160 1.238 . S
C1175 O1161 1.247 . S
C1175 C1169 1.507 . S
H1176 C1149 0.930 . S
H1177 C1150 0.931 . S
H1178 C1151 0.930 . S
H1179 C1152 0.930 . S
H1180 C1171 0.930 . S
H1181 C1172 0.931 . S
H1182 C1173 0.930 . S
H1183 C1174 0.930 . S
Tb1184 C1194 2.825 . S
Tb1184 O1195 2.347 1_556 S
Tb1184 O1198 2.366 . S
Tb1184 O1203 2.418 . S
Tb1184 O1204 2.384 1_556 S
Tb1184 O1207 2.479 . S
Tb1184 O1208 2.471 . S
Eu1185 O1196 2.418 . S
Eu1185 O1197 2.384 . S
Eu1185 O1200 2.479 . S
Eu1185 O1201 2.471 . S
Eu1185 O1202 2.347 . S
Eu1185 O1205 2.366 . S
Eu1185 C1215 2.825 . S
C1186 O1202 1.259 . S
C1186 O1203 1.265 1_554 S
C1187 O1204 1.255 . S
C1187 O1205 1.265 . S
C1188 C1190 1.380 . S
C1188 C1191 1.374 . S
C1188 C1194 1.507 . S
C1189 C1190 1.384 . S
C1189 C1193 1.387 . S
C1189 H1216 0.930 . S
C1190 C1188 1.380 . S
C1190 C1189 1.384 . S
C1190 H1217 0.931 . S
C1191 C1188 1.374 . S
C1191 C1192 1.390 . S
C1191 H1218 0.930 . S
C1192 C1191 1.390 . S
C1192 C1193 1.391 . S
C1192 H1219 0.930 . S
C1193 C1189 1.387 . S
C1193 C1192 1.391 . S
C1194 Tb1184 2.825 . S
C1194 C1188 1.507 . S
C1194 O1207 1.238 . S
C1194 O1208 1.247 . S
O1195 Tb1184 2.347 1_554 S
O1195 C1199 1.259 . S
O1196 Eu1185 2.418 . S
O1196 C1199 1.265 . S
O1197 Eu1185 2.384 . S
O1197 C1206 1.299 . S
O1198 Tb1184 2.366 . S
O1198 C1206 1.242 1_556 S
C1199 O1195 1.259 . S
C1199 O1196 1.265 . S
O1200 Eu1185 2.479 . S
O1200 C1215 1.238 . S
O1201 Eu1185 2.471 . S
O1201 C1215 1.247 . S
O1202 Eu1185 2.347 . S
O1202 C1186 1.259 . S
O1203 Tb1184 2.418 . S
O1203 C1186 1.265 1_556 S
O1204 Tb1184 2.384 1_554 S
O1204 C1187 1.255 . S
O1205 Eu1185 2.366 . S
O1205 C1187 1.265 . S
C1206 O1197 1.299 . S
C1206 O1198 1.242 1_554 S
O1207 Tb1184 2.479 . S
O1207 C1194 1.238 . S
O1208 Tb1184 2.471 . S
O1208 C1194 1.247 . S
C1209 C1212 1.380 . S
C1209 C1213 1.374 . S
C1209 C1215 1.507 . S
C1210 C1211 1.387 . S
C1210 C1214 1.391 . S
C1211 C1210 1.387 . S
C1211 C1212 1.384 . S
C1211 H1220 0.930 . S
C1212 C1209 1.380 . S
C1212 C1211 1.384 . S
C1212 H1221 0.931 . S
C1213 C1209 1.374 . S
C1213 C1214 1.390 . S
C1213 H1222 0.930 . S
C1214 C1210 1.391 . S
C1214 C1213 1.390 . S
C1214 H1223 0.930 . S
C1215 Eu1185 2.825 . S
C1215 O1200 1.238 . S
C1215 O1201 1.247 . S
C1215 C1209 1.507 . S
H1216 C1189 0.930 . S
H1217 C1190 0.931 . S
H1218 C1191 0.930 . S
H1219 C1192 0.930 . S
H1220 C1211 0.930 . S
H1221 C1212 0.931 . S
H1222 C1213 0.930 . S
H1223 C1214 0.930 . S
Tb1224 C1234 2.825 . S
Tb1224 O1235 2.347 . S
Tb1224 O1238 2.366 . S
Tb1224 O1243 2.418 . S
Tb1224 O1244 2.384 . S
Tb1224 O1247 2.479 . S
Tb1224 O1248 2.471 . S
Eu1225 O1236 2.418 . S
Eu1225 O1237 2.384 . S
Eu1225 O1240 2.479 . S
Eu1225 O1241 2.471 . S
Eu1225 O1242 2.347 . S
Eu1225 O1245 2.366 . S
Eu1225 C1255 2.825 . S
C1226 O1242 1.259 . S
C1226 O1243 1.265 . S
C1227 O1244 1.255 . S
C1227 O1245 1.265 . S
C1228 C1230 1.380 . S
C1228 C1231 1.374 . S
C1228 C1234 1.507 . S
C1229 C1230 1.384 . S
C1229 C1233 1.387 . S
C1229 H1256 0.930 . S
C1230 C1228 1.380 . S
C1230 C1229 1.384 . S
C1230 H1257 0.931 . S
C1231 C1228 1.374 . S
C1231 C1232 1.390 . S
C1231 H1258 0.930 . S
C1232 C1231 1.390 . S
C1232 C1233 1.391 . S
C1232 H1259 0.930 . S
C1233 C1229 1.387 . S
C1233 C1232 1.391 . S
C1234 Tb1224 2.825 . S
C1234 C1228 1.507 . S
C1234 O1247 1.238 . S
C1234 O1248 1.247 . S
O1235 Tb1224 2.347 . S
O1235 C1239 1.259 . S
O1236 Eu1225 2.418 . S
O1236 C1239 1.265 . S
O1237 Eu1225 2.384 . S
O1237 C1246 1.255 . S
O1238 Tb1224 2.366 . S
O1238 C1246 1.265 . S
C1239 O1235 1.259 . S
C1239 O1236 1.265 . S
O1240 Eu1225 2.479 . S
O1240 C1255 1.238 . S
O1241 Eu1225 2.471 . S
O1241 C1255 1.247 . S
O1242 Eu1225 2.347 . S
O1242 C1226 1.259 . S
O1243 Tb1224 2.418 . S
O1243 C1226 1.265 . S
O1244 Tb1224 2.384 . S
O1244 C1227 1.255 . S
O1245 Eu1225 2.366 . S
O1245 C1227 1.265 . S
C1246 O1237 1.255 . S
C1246 O1238 1.265 . S
O1247 Tb1224 2.479 . S
O1247 C1234 1.238 . S
O1248 Tb1224 2.471 . S
O1248 C1234 1.247 . S
C1249 C1252 1.380 . S
C1249 C1253 1.374 . S
C1249 C1255 1.507 . S
C1250 C1251 1.387 . S
C1250 C1254 1.391 . S
C1251 C1250 1.387 . S
C1251 C1252 1.384 . S
C1251 H1260 0.930 . S
C1252 C1249 1.380 . S
C1252 C1251 1.384 . S
C1252 H1261 0.931 . S
C1253 C1249 1.374 . S
C1253 C1254 1.390 . S
C1253 H1262 0.930 . S
C1254 C1250 1.391 . S
C1254 C1253 1.390 . S
C1254 H1263 0.930 . S
C1255 Eu1225 2.825 . S
C1255 O1240 1.238 . S
C1255 O1241 1.247 . S
C1255 C1249 1.507 . S
H1256 C1229 0.930 . S
H1257 C1230 0.931 . S
H1258 C1231 0.930 . S
H1259 C1232 0.930 . S
H1260 C1251 0.930 . S
H1261 C1252 0.931 . S
H1262 C1253 0.930 . S
H1263 C1254 0.930 . S
Tb1264 C1274 2.825 . S
Tb1264 O1275 2.347 . S
Tb1264 O1278 2.366 . S
Tb1264 O1283 2.418 . S
Tb1264 O1284 2.384 . S
Tb1264 O1287 2.479 . S
Tb1264 O1288 2.471 . S
Eu1265 O1276 2.418 . S
Eu1265 O1277 2.384 . S
Eu1265 O1280 2.479 . S
Eu1265 O1281 2.471 . S
Eu1265 O1282 2.347 . S
Eu1265 O1285 2.366 . S
Eu1265 C1295 2.825 . S
C1266 O1282 1.259 . S
C1266 O1283 1.265 . S
C1267 O1284 1.255 . S
C1267 O1285 1.265 . S
C1268 C1270 1.380 . S
C1268 C1271 1.374 . S
C1268 C1274 1.507 . S
C1269 C1270 1.384 . S
C1269 C1273 1.387 . S
C1269 H1296 0.930 . S
C1270 C1268 1.380 . S
C1270 C1269 1.384 . S
C1270 H1297 0.931 . S
C1271 C1268 1.374 . S
C1271 C1272 1.390 . S
C1271 H1298 0.930 . S
C1272 C1271 1.390 . S
C1272 C1273 1.391 . S
C1272 H1299 0.930 . S
C1273 C1269 1.387 . S
C1273 C1272 1.391 . S
C1274 Tb1264 2.825 . S
C1274 C1268 1.507 . S
C1274 O1287 1.238 . S
C1274 O1288 1.247 . S
O1275 Tb1264 2.347 . S
O1275 C1279 1.259 . S
O1276 Eu1265 2.418 . S
O1276 C1279 1.265 . S
O1277 Eu1265 2.384 . S
O1277 C1286 1.255 . S
O1278 Tb1264 2.366 . S
O1278 C1286 1.265 . S
C1279 O1275 1.259 . S
C1279 O1276 1.265 . S
O1280 Eu1265 2.479 . S
O1280 C1295 1.238 . S
O1281 Eu1265 2.471 . S
O1281 C1295 1.247 . S
O1282 Eu1265 2.347 . S
O1282 C1266 1.259 . S
O1283 Tb1264 2.418 . S
O1283 C1266 1.265 . S
O1284 Tb1264 2.384 . S
O1284 C1267 1.255 . S
O1285 Eu1265 2.366 . S
O1285 C1267 1.265 . S
C1286 O1277 1.255 . S
C1286 O1278 1.265 . S
O1287 Tb1264 2.479 . S
O1287 C1274 1.238 . S
O1288 Tb1264 2.471 . S
O1288 C1274 1.247 . S
C1289 C1292 1.380 . S
C1289 C1293 1.374 . S
C1289 C1295 1.507 . S
C1290 C1291 1.387 . S
C1290 C1294 1.391 . S
C1291 C1290 1.387 . S
C1291 C1292 1.384 . S
C1291 H1300 0.930 . S
C1292 C1289 1.380 . S
C1292 C1291 1.384 . S
C1292 H1301 0.931 . S
C1293 C1289 1.374 . S
C1293 C1294 1.390 . S
C1293 H1302 0.930 . S
C1294 C1290 1.391 . S
C1294 C1293 1.390 . S
C1294 H1303 0.930 . S
C1295 Eu1265 2.825 . S
C1295 O1280 1.238 . S
C1295 O1281 1.247 . S
C1295 C1289 1.507 . S
H1296 C1269 0.930 . S
H1297 C1270 0.931 . S
H1298 C1271 0.930 . S
H1299 C1272 0.930 . S
H1300 C1291 0.930 . S
H1301 C1292 0.931 . S
H1302 C1293 0.930 . S
H1303 C1294 0.930 . S
Tb1304 C1314 2.825 . S
Tb1304 O1315 2.347 . S
Tb1304 O1318 2.366 . S
Tb1304 O1323 2.418 . S
Tb1304 O1324 2.384 . S
Tb1304 O1327 2.479 . S
Tb1304 O1328 2.471 . S
Eu1305 O1316 2.418 . S
Eu1305 O1317 2.384 . S
Eu1305 O1320 2.479 . S
Eu1305 O1321 2.471 . S
Eu1305 O1322 2.347 . S
Eu1305 O1325 2.366 . S
Eu1305 C1335 2.825 . S
C1306 O1322 1.259 . S
C1306 O1323 1.265 . S
C1307 O1324 1.255 . S
C1307 O1325 1.265 . S
C1308 C1310 1.380 . S
C1308 C1311 1.374 . S
C1308 C1314 1.507 . S
C1309 C1310 1.384 . S
C1309 C1313 1.387 . S
C1309 H1336 0.930 . S
C1310 C1308 1.380 . S
C1310 C1309 1.384 . S
C1310 H1337 0.931 . S
C1311 C1308 1.374 . S
C1311 C1312 1.390 . S
C1311 H1338 0.930 . S
C1312 C1311 1.390 . S
C1312 C1313 1.391 . S
C1312 H1339 0.930 . S
C1313 C1309 1.387 . S
C1313 C1312 1.391 . S
C1314 Tb1304 2.825 . S
C1314 C1308 1.507 . S
C1314 O1327 1.238 . S
C1314 O1328 1.247 . S
O1315 Tb1304 2.347 . S
O1315 C1319 1.259 . S
O1316 Eu1305 2.418 . S
O1316 C1319 1.265 . S
O1317 Eu1305 2.384 . S
O1317 C1326 1.255 . S
O1318 Tb1304 2.366 . S
O1318 C1326 1.265 . S
C1319 O1315 1.259 . S
C1319 O1316 1.265 . S
O1320 Eu1305 2.479 . S
O1320 C1335 1.238 . S
O1321 Eu1305 2.471 . S
O1321 C1335 1.247 . S
O1322 Eu1305 2.347 . S
O1322 C1306 1.259 . S
O1323 Tb1304 2.418 . S
O1323 C1306 1.265 . S
O1324 Tb1304 2.384 . S
O1324 C1307 1.255 . S
O1325 Eu1305 2.366 . S
O1325 C1307 1.265 . S
C1326 O1317 1.255 . S
C1326 O1318 1.265 . S
O1327 Tb1304 2.479 . S
O1327 C1314 1.238 . S
O1328 Tb1304 2.471 . S
O1328 C1314 1.247 . S
C1329 C1332 1.380 . S
C1329 C1333 1.374 . S
C1329 C1335 1.507 . S
C1330 C1331 1.387 . S
C1330 C1334 1.391 . S
C1331 C1330 1.387 . S
C1331 C1332 1.384 . S
C1331 H1340 0.930 . S
C1332 C1329 1.380 . S
C1332 C1331 1.384 . S
C1332 H1341 0.931 . S
C1333 C1329 1.374 . S
C1333 C1334 1.390 . S
C1333 H1342 0.930 . S
C1334 C1330 1.391 . S
C1334 C1333 1.390 . S
C1334 H1343 0.930 . S
C1335 Eu1305 2.825 . S
C1335 O1320 1.238 . S
C1335 O1321 1.247 . S
C1335 C1329 1.507 . S
H1336 C1309 0.930 . S
H1337 C1310 0.931 . S
H1338 C1311 0.930 . S
H1339 C1312 0.930 . S
H1340 C1331 0.930 . S
H1341 C1332 0.931 . S
H1342 C1333 0.930 . S
H1343 C1334 0.930 . S
Tb1344 C1354 2.825 . S
Tb1344 O1355 2.347 . S
Tb1344 O1358 2.366 . S
Tb1344 O1363 2.418 . S
Tb1344 O1364 2.384 . S
Tb1344 O1367 2.479 . S
Tb1344 O1368 2.471 . S
Eu1345 O1356 2.418 . S
Eu1345 O1357 2.384 . S
Eu1345 O1360 2.479 . S
Eu1345 O1361 2.471 . S
Eu1345 O1362 2.347 . S
Eu1345 O1365 2.366 . S
Eu1345 C1375 2.825 . S
C1346 O1362 1.259 . S
C1346 O1363 1.265 . S
C1347 O1364 1.255 . S
C1347 O1365 1.265 . S
C1348 C1350 1.380 . S
C1348 C1351 1.374 . S
C1348 C1354 1.507 . S
C1349 C1350 1.384 . S
C1349 C1353 1.387 . S
C1349 H1376 0.930 . S
C1350 C1348 1.380 . S
C1350 C1349 1.384 . S
C1350 H1377 0.931 . S
C1351 C1348 1.374 . S
C1351 C1352 1.390 . S
C1351 H1378 0.930 . S
C1352 C1351 1.390 . S
C1352 C1353 1.391 . S
C1352 H1379 0.930 . S
C1353 C1349 1.387 . S
C1353 C1352 1.391 . S
C1354 Tb1344 2.825 . S
C1354 C1348 1.507 . S
C1354 O1367 1.238 . S
C1354 O1368 1.247 . S
O1355 Tb1344 2.347 . S
O1355 C1359 1.259 . S
O1356 Eu1345 2.418 . S
O1356 C1359 1.265 . S
O1357 Eu1345 2.384 . S
O1357 C1366 1.255 . S
O1358 Tb1344 2.366 . S
O1358 C1366 1.265 . S
C1359 O1355 1.259 . S
C1359 O1356 1.265 . S
O1360 Eu1345 2.479 . S
O1360 C1375 1.238 . S
O1361 Eu1345 2.471 . S
O1361 C1375 1.247 . S
O1362 Eu1345 2.347 . S
O1362 C1346 1.259 . S
O1363 Tb1344 2.418 . S
O1363 C1346 1.265 . S
O1364 Tb1344 2.384 . S
O1364 C1347 1.255 . S
O1365 Eu1345 2.366 . S
O1365 C1347 1.265 . S
C1366 O1357 1.255 . S
C1366 O1358 1.265 . S
O1367 Tb1344 2.479 . S
O1367 C1354 1.238 . S
O1368 Tb1344 2.471 . S
O1368 C1354 1.247 . S
C1369 C1372 1.380 . S
C1369 C1373 1.374 . S
C1369 C1375 1.507 . S
C1370 C1371 1.387 . S
C1370 C1374 1.391 . S
C1371 C1370 1.387 . S
C1371 C1372 1.384 . S
C1371 H1380 0.930 . S
C1372 C1369 1.380 . S
C1372 C1371 1.384 . S
C1372 H1381 0.931 . S
C1373 C1369 1.374 . S
C1373 C1374 1.390 . S
C1373 H1382 0.930 . S
C1374 C1370 1.391 . S
C1374 C1373 1.390 . S
C1374 H1383 0.930 . S
C1375 Eu1345 2.825 . S
C1375 O1360 1.238 . S
C1375 O1361 1.247 . S
C1375 C1369 1.507 . S
H1376 C1349 0.930 . S
H1377 C1350 0.931 . S
H1378 C1351 0.930 . S
H1379 C1352 0.930 . S
H1380 C1371 0.930 . S
H1381 C1372 0.931 . S
H1382 C1373 0.930 . S
H1383 C1374 0.930 . S
Tb1384 C1394 2.825 . S
Tb1384 O1395 2.347 . S
Tb1384 O1398 2.366 . S
Tb1384 O1403 2.418 . S
Tb1384 O1404 2.384 . S
Tb1384 O1407 2.479 . S
Tb1384 O1408 2.471 . S
Eu1385 O1396 2.418 . S
Eu1385 O1397 2.384 . S
Eu1385 O1400 2.479 . S
Eu1385 O1401 2.471 . S
Eu1385 O1402 2.347 . S
Eu1385 O1405 2.366 . S
Eu1385 C1415 2.825 . S
C1386 O1402 1.259 . S
C1386 O1403 1.265 . S
C1387 O1404 1.255 . S
C1387 O1405 1.265 . S
C1388 C1390 1.380 . S
C1388 C1391 1.374 . S
C1388 C1394 1.507 . S
C1389 C1390 1.384 . S
C1389 C1393 1.387 . S
C1389 H1416 0.930 . S
C1390 C1388 1.380 . S
C1390 C1389 1.384 . S
C1390 H1417 0.931 . S
C1391 C1388 1.374 . S
C1391 C1392 1.390 . S
C1391 H1418 0.930 . S
C1392 C1391 1.390 . S
C1392 C1393 1.391 . S
C1392 H1419 0.930 . S
C1393 C1389 1.387 . S
C1393 C1392 1.391 . S
C1394 Tb1384 2.825 . S
C1394 C1388 1.507 . S
C1394 O1407 1.238 . S
C1394 O1408 1.247 . S
O1395 Tb1384 2.347 . S
O1395 C1399 1.259 . S
O1396 Eu1385 2.418 . S
O1396 C1399 1.265 . S
O1397 Eu1385 2.384 . S
O1397 C1406 1.255 . S
O1398 Tb1384 2.366 . S
O1398 C1406 1.265 . S
C1399 O1395 1.259 . S
C1399 O1396 1.265 . S
O1400 Eu1385 2.479 . S
O1400 C1415 1.238 . S
O1401 Eu1385 2.471 . S
O1401 C1415 1.247 . S
O1402 Eu1385 2.347 . S
O1402 C1386 1.259 . S
O1403 Tb1384 2.418 . S
O1403 C1386 1.265 . S
O1404 Tb1384 2.384 . S
O1404 C1387 1.255 . S
O1405 Eu1385 2.366 . S
O1405 C1387 1.265 . S
C1406 O1397 1.255 . S
C1406 O1398 1.265 . S
O1407 Tb1384 2.479 . S
O1407 C1394 1.238 . S
O1408 Tb1384 2.471 . S
O1408 C1394 1.247 . S
C1409 C1412 1.380 . S
C1409 C1413 1.374 . S
C1409 C1415 1.507 . S
C1410 C1411 1.387 . S
C1410 C1414 1.391 . S
C1411 C1410 1.387 . S
C1411 C1412 1.384 . S
C1411 H1420 0.930 . S
C1412 C1409 1.380 . S
C1412 C1411 1.384 . S
C1412 H1421 0.931 . S
C1413 C1409 1.374 . S
C1413 C1414 1.390 . S
C1413 H1422 0.930 . S
C1414 C1410 1.391 . S
C1414 C1413 1.390 . S
C1414 H1423 0.930 . S
C1415 Eu1385 2.825 . S
C1415 O1400 1.238 . S
C1415 O1401 1.247 . S
C1415 C1409 1.507 . S
H1416 C1389 0.930 . S
H1417 C1390 0.931 . S
H1418 C1391 0.930 . S
H1419 C1392 0.930 . S
H1420 C1411 0.930 . S
H1421 C1412 0.931 . S
H1422 C1413 0.930 . S
H1423 C1414 0.930 . S
Tb1424 C1434 2.825 . S
Tb1424 O1435 2.347 . S
Tb1424 O1438 2.366 . S
Tb1424 O1443 2.418 . S
Tb1424 O1444 2.384 . S
Tb1424 O1447 2.479 . S
Tb1424 O1448 2.471 . S
Eu1425 O1436 2.418 . S
Eu1425 O1437 2.384 . S
Eu1425 O1440 2.479 . S
Eu1425 O1441 2.471 . S
Eu1425 O1442 2.347 . S
Eu1425 O1445 2.366 . S
Eu1425 C1455 2.825 . S
C1426 O1442 1.259 . S
C1426 O1443 1.265 . S
C1427 O1444 1.255 . S
C1427 O1445 1.265 . S
C1428 C1430 1.380 . S
C1428 C1431 1.374 . S
C1428 C1434 1.507 . S
C1429 C1430 1.384 . S
C1429 C1433 1.387 . S
C1429 H1456 0.930 . S
C1430 C1428 1.380 . S
C1430 C1429 1.384 . S
C1430 H1457 0.931 . S
C1431 C1428 1.374 . S
C1431 C1432 1.390 . S
C1431 H1458 0.930 . S
C1432 C1431 1.390 . S
C1432 C1433 1.391 . S
C1432 H1459 0.930 . S
C1433 C1429 1.387 . S
C1433 C1432 1.391 . S
C1434 Tb1424 2.825 . S
C1434 C1428 1.507 . S
C1434 O1447 1.238 . S
C1434 O1448 1.247 . S
O1435 Tb1424 2.347 . S
O1435 C1439 1.259 . S
O1436 Eu1425 2.418 . S
O1436 C1439 1.265 . S
O1437 Eu1425 2.384 . S
O1437 C1446 1.255 . S
O1438 Tb1424 2.366 . S
O1438 C1446 1.265 . S
C1439 O1435 1.259 . S
C1439 O1436 1.265 . S
O1440 Eu1425 2.479 . S
O1440 C1455 1.238 . S
O1441 Eu1425 2.471 . S
O1441 C1455 1.247 . S
O1442 Eu1425 2.347 . S
O1442 C1426 1.259 . S
O1443 Tb1424 2.418 . S
O1443 C1426 1.265 . S
O1444 Tb1424 2.384 . S
O1444 C1427 1.255 . S
O1445 Eu1425 2.366 . S
O1445 C1427 1.265 . S
C1446 O1437 1.255 . S
C1446 O1438 1.265 . S
O1447 Tb1424 2.479 . S
O1447 C1434 1.238 . S
O1448 Tb1424 2.471 . S
O1448 C1434 1.247 . S
C1449 C1452 1.380 . S
C1449 C1453 1.374 . S
C1449 C1455 1.507 . S
C1450 C1451 1.387 . S
C1450 C1454 1.391 . S
C1451 C1450 1.387 . S
C1451 C1452 1.384 . S
C1451 H1460 0.930 . S
C1452 C1449 1.380 . S
C1452 C1451 1.384 . S
C1452 H1461 0.931 . S
C1453 C1449 1.374 . S
C1453 C1454 1.390 . S
C1453 H1462 0.930 . S
C1454 C1450 1.391 . S
C1454 C1453 1.390 . S
C1454 H1463 0.930 . S
C1455 Eu1425 2.825 . S
C1455 O1440 1.238 . S
C1455 O1441 1.247 . S
C1455 C1449 1.507 . S
H1456 C1429 0.930 . S
H1457 C1430 0.931 . S
H1458 C1431 0.930 . S
H1459 C1432 0.930 . S
H1460 C1451 0.930 . S
H1461 C1452 0.931 . S
H1462 C1453 0.930 . S
H1463 C1454 0.930 . S
Tb1464 C1474 2.826 1_554 S
Tb1464 O1475 2.347 1_554 S
Tb1464 O1478 2.366 . S
Tb1464 O1483 2.418 . S
Tb1464 O1484 2.384 . S
Tb1464 O1487 2.479 . S
Tb1464 O1488 2.471 1_554 S
Eu1465 O1476 2.418 1_554 S
Eu1465 O1477 2.384 . S
Eu1465 O1480 2.479 . S
Eu1465 O1481 2.471 . S
Eu1465 O1482 2.347 . S
Eu1465 O1485 2.366 . S
Eu1465 C1495 2.825 . S
C1466 O1482 1.259 . S
C1466 O1483 1.265 . S
C1467 O1484 1.255 . S
C1467 O1485 1.265 . S
C1468 C1470 1.380 1_556 S
C1468 C1471 1.374 . S
C1468 C1474 1.506 . S
C1469 C1470 1.384 1_556 S
C1469 C1473 1.387 . S
C1469 H1496 0.939 . S
C1470 C1468 1.380 1_554 S
C1470 C1469 1.384 1_554 S
C1470 H1497 0.931 . S
C1471 C1468 1.374 . S
C1471 C1472 1.390 . S
C1471 H1498 0.930 . S
C1472 C1471 1.390 . S
C1472 C1473 1.391 . S
C1472 H1499 0.930 . S
C1473 C1469 1.387 . S
C1473 C1472 1.391 . S
C1474 Tb1464 2.826 1_556 S
C1474 C1468 1.506 . S
C1474 O1487 1.239 1_556 S
C1474 O1488 1.246 . S
O1475 Tb1464 2.347 1_556 S
O1475 C1479 1.259 . S
O1476 Eu1465 2.418 1_556 S
O1476 C1479 1.265 . S
O1477 Eu1465 2.384 . S
O1477 C1486 1.255 . S
O1478 Tb1464 2.366 . S
O1478 C1486 1.265 . S
C1479 O1475 1.259 . S
C1479 O1476 1.265 . S
O1480 Eu1465 2.479 . S
O1480 C1495 1.238 . S
O1481 Eu1465 2.471 . S
O1481 C1495 1.247 . S
O1482 Eu1465 2.347 . S
O1482 C1466 1.259 . S
O1483 Tb1464 2.418 . S
O1483 C1466 1.265 . S
O1484 Tb1464 2.384 . S
O1484 C1467 1.255 . S
O1485 Eu1465 2.366 . S
O1485 C1467 1.265 . S
C1486 O1477 1.255 . S
C1486 O1478 1.265 . S
O1487 Tb1464 2.479 . S
O1487 C1474 1.239 1_554 S
O1488 Tb1464 2.471 1_556 S
O1488 C1474 1.246 . S
C1489 C1492 1.380 . S
C1489 C1493 1.374 . S
C1489 C1495 1.507 . S
C1490 C1491 1.387 . S
C1490 C1494 1.391 . S
C1491 C1490 1.387 . S
C1491 C1492 1.384 . S
C1491 H1500 0.930 . S
C1492 C1489 1.380 . S
C1492 C1491 1.384 . S
C1492 H1501 0.931 . S
C1493 C1489 1.374 . S
C1493 C1494 1.390 . S
C1493 H1502 0.930 . S
C1494 C1490 1.391 . S
C1494 C1493 1.390 . S
C1494 H1503 0.930 . S
C1495 Eu1465 2.825 . S
C1495 O1480 1.238 . S
C1495 O1481 1.247 . S
C1495 C1489 1.507 . S
H1496 C1469 0.939 . S
H1497 C1470 0.931 . S
H1498 C1471 0.930 . S
H1499 C1472 0.930 . S
H1500 C1491 0.930 . S
H1501 C1492 0.931 . S
H1502 C1493 0.930 . S
H1503 C1494 0.930 . S
H1504 C1510 0.930 . S
H1505 C1513 0.930 . S
H1506 C1514 0.930 . S
H1507 C1515 0.930 1_554 S
H1508 C1518 0.930 . S
H1509 C1519 0.930 . S
C1510 H1504 0.930 . S
C1510 C1511 1.355 1_455 S
C1510 C1512 1.415 . S
C1511 C1510 1.355 1_655 S
C1511 C1513 1.419 . S
C1512 C1510 1.415 . S
C1512 C1517 1.425 . S
C1512 C1519 1.409 . S
C1513 H1505 0.930 . S
C1513 C1511 1.419 . S
C1513 C1514 1.362 . S
C1514 H1506 0.930 . S
C1514 C1513 1.362 . S
C1514 C1517 1.409 1_655 S
C1515 H1507 0.930 1_556 S
C1515 C1516 1.355 . S
C1515 C1517 1.415 . S
C1516 C1515 1.355 . S
C1516 C1518 1.419 . S
C1517 C1512 1.425 . S
C1517 C1514 1.409 1_455 S
C1517 C1515 1.415 . S
C1518 H1508 0.930 . S
C1518 C1516 1.419 . S
C1518 C1519 1.362 . S
C1519 H1509 0.930 . S
C1519 C1512 1.409 . S
C1519 C1518 1.362 . S
H1520 C1526 0.930 . S
H1521 C1529 0.930 . S
H1522 C1530 0.930 . S
H1523 C1531 0.930 . S
H1524 C1534 0.930 . S
H1525 C1535 0.930 . S
C1526 H1520 0.930 . S
C1526 C1527 1.355 . S
C1526 C1528 1.415 . S
C1527 C1526 1.355 . S
C1527 C1529 1.419 . S
C1528 C1526 1.415 . S
C1528 C1533 1.425 . S
C1528 C1535 1.409 . S
C1529 H1521 0.930 . S
C1529 C1527 1.419 . S
C1529 C1530 1.362 . S
C1530 H1522 0.930 . S
C1530 C1529 1.362 . S
C1530 C1533 1.409 . S
C1531 H1523 0.930 . S
C1531 C1532 1.355 . S
C1531 C1533 1.415 . S
C1532 C1531 1.355 . S
C1532 C1534 1.419 . S
C1533 C1528 1.425 . S
C1533 C1530 1.409 . S
C1533 C1531 1.415 . S
C1534 H1524 0.930 . S
C1534 C1532 1.419 . S
C1534 C1535 1.362 . S
C1535 H1525 0.930 . S
C1535 C1528 1.409 . S
C1535 C1534 1.362 . S
H1536 C1542 0.930 . S
H1537 C1545 0.930 . S
H1538 C1546 0.930 . S
H1539 C1547 0.930 . S
H1540 C1550 0.930 . S
H1541 C1551 0.930 . S
C1542 H1536 0.930 . S
C1542 C1543 1.355 . S
C1542 C1544 1.415 . S
C1543 C1542 1.355 . S
C1543 C1545 1.419 . S
C1544 C1542 1.415 . S
C1544 C1549 1.425 . S
C1544 C1551 1.409 . S
C1545 H1537 0.930 . S
C1545 C1543 1.419 . S
C1545 C1546 1.362 . S
C1546 H1538 0.930 . S
C1546 C1545 1.362 . S
C1546 C1549 1.409 . S
C1547 H1539 0.930 . S
C1547 C1548 1.355 . S
C1547 C1549 1.415 . S
C1548 C1547 1.355 . S
C1548 C1550 1.419 . S
C1549 C1544 1.425 . S
C1549 C1546 1.409 . S
C1549 C1547 1.415 . S
C1550 H1540 0.930 . S
C1550 C1548 1.419 . S
C1550 C1551 1.362 . S
C1551 H1541 0.930 . S
C1551 C1544 1.409 . S
C1551 C1550 1.362 . S
H1552 C1558 0.930 . S
H1553 C1561 0.930 . S
H1554 C1562 0.930 . S
H1555 C1563 0.930 . S
H1556 C1566 0.930 . S
H1557 C1567 0.930 . S
C1558 H1552 0.930 . S
C1558 C1559 1.355 . S
C1558 C1560 1.415 . S
C1559 C1558 1.355 . S
C1559 C1561 1.419 . S
C1560 C1558 1.415 . S
C1560 C1565 1.425 . S
C1560 C1567 1.409 . S
C1561 H1553 0.930 . S
C1561 C1559 1.419 . S
C1561 C1562 1.362 . S
C1562 H1554 0.930 . S
C1562 C1561 1.362 . S
C1562 C1565 1.409 . S
C1563 H1555 0.930 . S
C1563 C1564 1.355 . S
C1563 C1565 1.415 . S
C1564 C1563 1.355 . S
C1564 C1566 1.419 . S
C1565 C1560 1.425 . S
C1565 C1562 1.409 . S
C1565 C1563 1.415 . S
C1566 H1556 0.930 . S
C1566 C1564 1.419 . S
C1566 C1567 1.362 . S
C1567 H1557 0.930 . S
C1567 C1560 1.409 . S
C1567 C1566 1.362 . S
H1568 C1574 0.930 . S
H1569 C1577 0.930 . S
H1570 C1578 0.930 . S
H1571 C1579 0.930 . S
H1572 C1582 0.930 . S
H1573 C1583 0.930 . S
C1574 H1568 0.930 . S
C1574 C1575 1.355 . S
C1574 C1576 1.415 . S
C1575 C1574 1.355 . S
C1575 C1577 1.419 . S
C1576 C1574 1.415 . S
C1576 C1581 1.425 . S
C1576 C1583 1.409 . S
C1577 H1569 0.930 . S
C1577 C1575 1.419 . S
C1577 C1578 1.362 . S
C1578 H1570 0.930 . S
C1578 C1577 1.362 . S
C1578 C1581 1.409 . S
C1579 H1571 0.930 . S
C1579 C1580 1.355 . S
C1579 C1581 1.415 . S
C1580 C1579 1.355 . S
C1580 C1582 1.419 . S
C1581 C1576 1.425 . S
C1581 C1578 1.409 . S
C1581 C1579 1.415 . S
C1582 H1572 0.930 . S
C1582 C1580 1.419 . S
C1582 C1583 1.362 . S
C1583 H1573 0.930 . S
C1583 C1576 1.409 . S
C1583 C1582 1.362 . S
H1584 C1590 0.930 . S
H1585 C1593 0.930 . S
H1586 C1594 0.930 . S
H1587 C1595 0.930 . S
H1588 C1598 0.930 . S
H1589 C1599 0.930 . S
C1590 H1584 0.930 . S
C1590 C1591 1.355 . S
C1590 C1592 1.415 . S
C1591 C1590 1.355 . S
C1591 C1593 1.419 . S
C1592 C1590 1.415 . S
C1592 C1597 1.425 . S
C1592 C1599 1.409 . S
C1593 H1585 0.930 . S
C1593 C1591 1.419 . S
C1593 C1594 1.362 . S
C1594 H1586 0.930 . S
C1594 C1593 1.362 . S
C1594 C1597 1.409 . S
C1595 H1587 0.930 . S
C1595 C1596 1.355 . S
C1595 C1597 1.415 . S
C1596 C1595 1.355 . S
C1596 C1598 1.419 . S
C1597 C1592 1.425 . S
C1597 C1594 1.409 . S
C1597 C1595 1.415 . S
C1598 H1588 0.930 . S
C1598 C1596 1.419 . S
C1598 C1599 1.362 . S
C1599 H1589 0.930 . S
C1599 C1592 1.409 . S
C1599 C1598 1.362 . S
H1600 C1606 0.930 . S
H1601 C1609 0.930 . S
H1602 C1610 0.930 . S
H1603 C1611 0.930 . S
H1604 C1614 0.930 . S
H1605 C1615 0.930 . S
C1606 H1600 0.930 . S
C1606 C1607 1.355 . S
C1606 C1608 1.415 . S
C1607 C1606 1.355 . S
C1607 C1609 1.419 . S
C1608 C1606 1.415 . S
C1608 C1613 1.425 . S
C1608 C1615 1.409 . S
C1609 H1601 0.930 . S
C1609 C1607 1.419 . S
C1609 C1610 1.362 . S
C1610 H1602 0.930 . S
C1610 C1609 1.362 . S
C1610 C1613 1.409 . S
C1611 H1603 0.930 . S
C1611 C1612 1.355 . S
C1611 C1613 1.415 . S
C1612 C1611 1.355 . S
C1612 C1614 1.419 . S
C1613 C1608 1.425 . S
C1613 C1610 1.409 . S
C1613 C1611 1.415 . S
C1614 H1604 0.930 . S
C1614 C1612 1.419 . S
C1614 C1615 1.362 . S
C1615 H1605 0.930 . S
C1615 C1608 1.409 . S
C1615 C1614 1.362 . S
H1616 C1622 0.930 . S
H1617 C1625 0.930 . S
H1618 C1626 0.930 . S
H1619 C1627 0.930 . S
H1620 C1630 0.930 . S
H1621 C1631 0.930 . S
C1622 H1616 0.930 . S
C1622 C1623 1.355 . S
C1622 C1624 1.415 . S
C1623 C1622 1.355 . S
C1623 C1625 1.419 . S
C1624 C1622 1.415 . S
C1624 C1629 1.425 . S
C1624 C1631 1.409 . S
C1625 H1617 0.930 . S
C1625 C1623 1.419 . S
C1625 C1626 1.362 . S
C1626 H1618 0.930 . S
C1626 C1625 1.362 . S
C1626 C1629 1.409 . S
C1627 H1619 0.930 . S
C1627 C1628 1.355 . S
C1627 C1629 1.415 . S
C1628 C1627 1.355 . S
C1628 C1630 1.419 . S
C1629 C1624 1.425 . S
C1629 C1626 1.409 . S
C1629 C1627 1.415 . S
C1630 H1620 0.930 . S
C1630 C1628 1.419 . S
C1630 C1631 1.362 . S
C1631 H1621 0.930 . S
C1631 C1624 1.409 . S
C1631 C1630 1.362 . S
H1632 C1638 0.930 . S
H1633 C1641 0.930 . S
H1634 C1642 0.930 1_455 S
H1635 C1643 0.930 . S
H1636 C1646 0.930 . S
H1637 C1647 0.930 . S
C1638 H1632 0.930 . S
C1638 C1639 1.355 . S
C1638 C1640 1.415 . S
C1639 C1638 1.355 . S
C1639 C1641 1.419 1_545 S
C1640 C1638 1.415 . S
C1640 C1645 1.425 . S
C1640 C1647 1.409 . S
C1641 H1633 0.930 . S
C1641 C1639 1.419 1_565 S
C1641 C1642 1.362 1_565 S
C1642 H1634 0.930 1_655 S
C1642 C1641 1.362 1_545 S
C1642 C1645 1.409 . S
C1643 H1635 0.930 . S
C1643 C1644 1.355 . S
C1643 C1645 1.415 1_455 S
C1644 C1643 1.355 . S
C1644 C1646 1.419 1_455 S
C1645 C1640 1.425 . S
C1645 C1642 1.409 . S
C1645 C1643 1.415 1_655 S
C1646 H1636 0.930 . S
C1646 C1644 1.419 1_655 S
C1646 C1647 1.362 . S
C1647 H1637 0.930 . S
C1647 C1640 1.409 . S
C1647 C1646 1.362 . S
H1648 C1654 0.930 . S
H1649 C1657 0.930 . S
H1650 C1658 0.930 . S
H1651 C1659 0.930 . S
H1652 C1662 0.930 . S
H1653 C1663 0.930 . S
C1654 H1648 0.930 . S
C1654 C1655 1.355 . S
C1654 C1656 1.415 . S
C1655 C1654 1.355 . S
C1655 C1657 1.419 . S
C1656 C1654 1.415 . S
C1656 C1661 1.425 . S
C1656 C1663 1.409 . S
C1657 H1649 0.930 . S
C1657 C1655 1.419 . S
C1657 C1658 1.362 . S
C1658 H1650 0.930 . S
C1658 C1657 1.362 . S
C1658 C1661 1.409 . S
C1659 H1651 0.930 . S
C1659 C1660 1.355 . S
C1659 C1661 1.415 . S
C1660 C1659 1.355 . S
C1660 C1662 1.419 . S
C1661 C1656 1.425 . S
C1661 C1658 1.409 . S
C1661 C1659 1.415 . S
C1662 H1652 0.930 . S
C1662 C1660 1.419 . S
C1662 C1663 1.362 . S
C1663 H1653 0.930 . S
C1663 C1656 1.409 . S
C1663 C1662 1.362 . S
H1664 C1670 0.930 . S
H1665 C1673 0.930 . S
H1666 C1674 0.930 . S
H1667 C1675 0.930 . S
H1668 C1678 0.930 . S
H1669 C1679 0.930 . S
C1670 H1664 0.930 . S
C1670 C1671 1.355 . S
C1670 C1672 1.415 . S
C1671 C1670 1.355 . S
C1671 C1673 1.419 1_545 S
C1672 C1670 1.415 . S
C1672 C1677 1.425 . S
C1672 C1679 1.409 . S
C1673 H1665 0.930 . S
C1673 C1671 1.419 1_565 S
C1673 C1674 1.362 . S
C1674 H1666 0.930 . S
C1674 C1673 1.362 . S
C1674 C1677 1.409 1_565 S
C1675 H1667 0.930 . S
C1675 C1676 1.355 . S
C1675 C1677 1.415 . S
C1676 C1675 1.355 . S
C1676 C1678 1.419 . S
C1677 C1672 1.425 . S
C1677 C1674 1.409 1_545 S
C1677 C1675 1.415 . S
C1678 H1668 0.930 . S
C1678 C1676 1.419 . S
C1678 C1679 1.362 . S
C1679 H1669 0.930 . S
C1679 C1672 1.409 . S
C1679 C1678 1.362 . S
H1680 C1686 0.930 . S
H1681 C1689 0.930 . S
H1682 C1690 0.930 . S
H1683 C1691 0.930 . S
H1684 C1694 0.930 . S
H1685 C1695 0.930 . S
C1686 H1680 0.930 . S
C1686 C1687 1.355 . S
C1686 C1688 1.415 . S
C1687 C1686 1.355 . S
C1687 C1689 1.419 . S
C1688 C1686 1.415 . S
C1688 C1693 1.425 . S
C1688 C1695 1.409 . S
C1689 H1681 0.930 . S
C1689 C1687 1.419 . S
C1689 C1690 1.362 . S
C1690 H1682 0.930 . S
C1690 C1689 1.362 . S
C1690 C1693 1.409 . S
C1691 H1683 0.930 . S
C1691 C1692 1.355 . S
C1691 C1693 1.415 . S
C1692 C1691 1.355 . S
C1692 C1694 1.419 . S
C1693 C1688 1.425 . S
C1693 C1690 1.409 . S
C1693 C1691 1.415 . S
C1694 H1684 0.930 . S
C1694 C1692 1.419 . S
C1694 C1695 1.362 . S
C1695 H1685 0.930 . S
C1695 C1688 1.409 . S
C1695 C1694 1.362 . S
H1696 C1702 0.930 . S
H1697 C1705 0.930 . S
H1698 C1706 0.930 . S
H1699 C1707 0.930 . S
H1700 C1710 0.930 . S
H1701 C1711 0.930 . S
C1702 H1696 0.930 . S
C1702 C1703 1.355 . S
C1702 C1704 1.415 . S
C1703 C1702 1.355 . S
C1703 C1705 1.419 1_545 S
C1704 C1702 1.415 . S
C1704 C1709 1.425 . S
C1704 C1711 1.409 . S
C1705 H1697 0.930 . S
C1705 C1703 1.419 1_565 S
C1705 C1706 1.362 . S
C1706 H1698 0.930 . S
C1706 C1705 1.362 . S
C1706 C1709 1.409 1_565 S
C1707 H1699 0.930 . S
C1707 C1708 1.355 . S
C1707 C1709 1.415 . S
C1708 C1707 1.355 . S
C1708 C1710 1.419 . S
C1709 C1704 1.425 . S
C1709 C1706 1.409 1_545 S
C1709 C1707 1.415 . S
C1710 H1700 0.930 . S
C1710 C1708 1.419 . S
C1710 C1711 1.362 . S
C1711 H1701 0.930 . S
C1711 C1704 1.409 . S
C1711 C1710 1.362 . S
H1712 C1718 0.930 . S
H1713 C1721 0.930 . S
H1714 C1722 0.930 . S
H1715 C1723 0.930 . S
H1716 C1726 0.930 . S
H1717 C1727 0.930 . S
C1718 H1712 0.930 . S
C1718 C1719 1.355 . S
C1718 C1720 1.415 . S
C1719 C1718 1.355 . S
C1719 C1721 1.419 . S
C1720 C1718 1.415 . S
C1720 C1725 1.425 . S
C1720 C1727 1.409 . S
C1721 H1713 0.930 . S
C1721 C1719 1.419 . S
C1721 C1722 1.362 . S
C1722 H1714 0.930 . S
C1722 C1721 1.362 . S
C1722 C1725 1.409 . S
C1723 H1715 0.930 . S
C1723 C1724 1.355 . S
C1723 C1725 1.415 . S
C1724 C1723 1.355 . S
C1724 C1726 1.419 . S
C1725 C1720 1.425 . S
C1725 C1722 1.409 . S
C1725 C1723 1.415 . S
C1726 H1716 0.930 . S
C1726 C1724 1.419 . S
C1726 C1727 1.362 . S
C1727 H1717 0.930 . S
C1727 C1720 1.409 . S
C1727 C1726 1.362 . S
H1728 C1734 0.930 . S
H1729 C1737 0.930 . S
H1730 C1738 0.930 . S
H1731 C1739 0.930 . S
H1732 C1742 0.930 . S
H1733 C1743 0.930 . S
C1734 H1728 0.930 . S
C1734 C1735 1.355 . S
C1734 C1736 1.415 . S
C1735 C1734 1.355 . S
C1735 C1737 1.419 . S
C1736 C1734 1.415 . S
C1736 C1741 1.425 . S
C1736 C1743 1.409 . S
C1737 H1729 0.930 . S
C1737 C1735 1.419 . S
C1737 C1738 1.362 . S
C1738 H1730 0.930 . S
C1738 C1737 1.362 . S
C1738 C1741 1.409 . S
C1739 H1731 0.930 . S
C1739 C1740 1.355 . S
C1739 C1741 1.415 . S
C1740 C1739 1.355 . S
C1740 C1742 1.419 . S
C1741 C1736 1.425 . S
C1741 C1738 1.409 . S
C1741 C1739 1.415 . S
C1742 H1732 0.930 . S
C1742 C1740 1.419 . S
C1742 C1743 1.362 . S
C1743 H1733 0.930 . S
C1743 C1736 1.409 . S
C1743 C1742 1.362 . S
H1744 C1750 0.930 . S
H1745 C1753 0.930 . S
H1746 C1754 0.930 . S
H1747 C1755 0.930 . S
H1748 C1758 0.930 . S
H1749 C1759 0.930 . S
C1750 H1744 0.930 . S
C1750 C1751 1.355 . S
C1750 C1752 1.415 . S
C1751 C1750 1.355 . S
C1751 C1753 1.419 . S
C1752 C1750 1.415 . S
C1752 C1757 1.425 . S
C1752 C1759 1.409 . S
C1753 H1745 0.930 . S
C1753 C1751 1.419 . S
C1753 C1754 1.362 . S
C1754 H1746 0.930 . S
C1754 C1753 1.362 . S
C1754 C1757 1.409 . S
C1755 H1747 0.930 . S
C1755 C1756 1.355 . S
C1755 C1757 1.415 . S
C1756 C1755 1.355 . S
C1756 C1758 1.419 . S
C1757 C1752 1.425 . S
C1757 C1754 1.409 . S
C1757 C1755 1.415 . S
C1758 H1748 0.930 . S
C1758 C1756 1.419 . S
C1758 C1759 1.362 . S
C1759 H1749 0.930 . S
C1759 C1752 1.409 . S
C1759 C1758 1.362 . S
H1760 C1766 0.930 . S
H1761 C1769 0.930 . S
H1762 C1770 0.930 . S
H1763 C1771 0.930 . S
H1764 C1774 0.930 . S
H1765 C1775 0.930 . S
C1766 H1760 0.930 . S
C1766 C1767 1.355 . S
C1766 C1768 1.415 . S
C1767 C1766 1.355 . S
C1767 C1769 1.419 . S
C1768 C1766 1.415 . S
C1768 C1773 1.425 . S
C1768 C1775 1.409 . S
C1769 H1761 0.930 . S
C1769 C1767 1.419 . S
C1769 C1770 1.362 . S
C1770 H1762 0.930 . S
C1770 C1769 1.362 . S
C1770 C1773 1.409 . S
C1771 H1763 0.930 . S
C1771 C1772 1.355 . S
C1771 C1773 1.415 . S
C1772 C1771 1.355 . S
C1772 C1774 1.419 . S
C1773 C1768 1.425 . S
C1773 C1770 1.409 . S
C1773 C1771 1.415 . S
C1774 H1764 0.930 . S
C1774 C1772 1.419 . S
C1774 C1775 1.362 . S
C1775 H1765 0.930 . S
C1775 C1768 1.409 . S
C1775 C1774 1.362 . S
H1776 C1782 0.930 . S
H1777 C1785 0.930 . S
H1778 C1786 0.930 . S
H1779 C1787 0.930 1_556 S
H1780 C1790 0.930 . S
H1781 C1791 0.930 . S
C1782 H1776 0.930 . S
C1782 C1783 1.355 . S
C1782 C1784 1.415 . S
C1783 C1782 1.355 . S
C1783 C1785 1.419 1_554 S
C1784 C1782 1.415 . S
C1784 C1789 1.425 . S
C1784 C1791 1.409 . S
C1785 H1777 0.930 . S
C1785 C1783 1.419 1_556 S
C1785 C1786 1.362 . S
C1786 H1778 0.930 . S
C1786 C1785 1.362 . S
C1786 C1789 1.409 1_556 S
C1787 H1779 0.930 1_554 S
C1787 C1788 1.355 . S
C1787 C1789 1.415 . S
C1788 C1787 1.355 . S
C1788 C1790 1.419 . S
C1789 C1784 1.425 . S
C1789 C1786 1.409 1_554 S
C1789 C1787 1.415 . S
C1790 H1780 0.930 . S
C1790 C1788 1.419 . S
C1790 C1791 1.362 . S
C1791 H1781 0.930 . S
C1791 C1784 1.409 . S
C1791 C1790 1.362 . S
H1792 C1798 0.930 . S
H1793 C1801 0.930 . S
H1794 C1802 0.930 . S
H1795 C1803 0.930 . S
H1796 C1806 0.930 . S
H1797 C1807 0.930 . S
C1798 H1792 0.930 . S
C1798 C1799 1.355 . S
C1798 C1800 1.415 . S
C1799 C1798 1.355 . S
C1799 C1801 1.419 . S
C1800 C1798 1.415 . S
C1800 C1805 1.425 . S
C1800 C1807 1.409 . S
C1801 H1793 0.930 . S
C1801 C1799 1.419 . S
C1801 C1802 1.362 . S
C1802 H1794 0.930 . S
C1802 C1801 1.362 . S
C1802 C1805 1.409 . S
C1803 H1795 0.930 . S
C1803 C1804 1.355 . S
C1803 C1805 1.415 . S
C1804 C1803 1.355 . S
C1804 C1806 1.419 . S
C1805 C1800 1.425 . S
C1805 C1802 1.409 . S
C1805 C1803 1.415 . S
C1806 H1796 0.930 . S
C1806 C1804 1.419 . S
C1806 C1807 1.362 . S
C1807 H1797 0.930 . S
C1807 C1800 1.409 . S
C1807 C1806 1.362 . S
H1808 C1814 0.930 . S
H1809 C1817 0.930 . S
H1810 C1818 0.930 . S
H1811 C1819 0.930 . S
H1812 C1822 0.930 1_455 S
H1813 C1823 0.930 . S
C1814 H1808 0.930 . S
C1814 C1815 1.355 . S
C1814 C1816 1.415 . S
C1815 C1814 1.355 . S
C1815 C1817 1.419 . S
C1816 C1814 1.415 . S
C1816 C1821 1.425 . S
C1816 C1823 1.409 . S
C1817 H1809 0.930 . S
C1817 C1815 1.419 . S
C1817 C1818 1.362 . S
C1818 H1810 0.930 . S
C1818 C1817 1.362 . S
C1818 C1821 1.409 . S
C1819 H1811 0.930 . S
C1819 C1820 1.355 . S
C1819 C1821 1.415 . S
C1820 C1819 1.355 . S
C1820 C1822 1.419 . S
C1821 C1816 1.425 . S
C1821 C1818 1.409 . S
C1821 C1819 1.415 . S
C1822 H1812 0.930 1_655 S
C1822 C1820 1.419 . S
C1822 C1823 1.362 . S
C1823 H1813 0.930 . S
C1823 C1816 1.409 . S
C1823 C1822 1.362 . S
H1824 C1830 0.930 . S
H1825 C1833 0.930 . S
H1826 C1834 0.930 . S
H1827 C1835 0.930 . S
H1828 C1838 0.930 . S
H1829 C1839 0.930 . S
C1830 H1824 0.930 . S
C1830 C1831 1.355 . S
C1830 C1832 1.415 . S
C1831 C1830 1.355 . S
C1831 C1833 1.419 . S
C1832 C1830 1.415 . S
C1832 C1837 1.425 . S
C1832 C1839 1.409 . S
C1833 H1825 0.930 . S
C1833 C1831 1.419 . S
C1833 C1834 1.362 . S
C1834 H1826 0.930 . S
C1834 C1833 1.362 . S
C1834 C1837 1.409 . S
C1835 H1827 0.930 . S
C1835 C1836 1.355 . S
C1835 C1837 1.415 . S
C1836 C1835 1.355 . S
C1836 C1838 1.419 . S
C1837 C1832 1.425 . S
C1837 C1834 1.409 . S
C1837 C1835 1.415 . S
C1838 H1828 0.930 . S
C1838 C1836 1.419 . S
C1838 C1839 1.362 . S
C1839 H1829 0.930 . S
C1839 C1832 1.409 . S
C1839 C1838 1.362 . S
H1840 C1846 0.930 . S
H1841 C1849 0.930 . S
H1842 C1850 0.930 . S
H1843 C1851 0.930 . S
H1844 C1854 0.930 . S
H1845 C1855 0.930 . S
C1846 H1840 0.930 . S
C1846 C1847 1.355 . S
C1846 C1848 1.415 . S
C1847 C1846 1.355 . S
C1847 C1849 1.419 . S
C1848 C1846 1.415 . S
C1848 C1853 1.425 . S
C1848 C1855 1.409 . S
C1849 H1841 0.930 . S
C1849 C1847 1.419 . S
C1849 C1850 1.362 . S
C1850 H1842 0.930 . S
C1850 C1849 1.362 . S
C1850 C1853 1.409 . S
C1851 H1843 0.930 . S
C1851 C1852 1.355 . S
C1851 C1853 1.415 . S
C1852 C1851 1.355 . S
C1852 C1854 1.419 . S
C1853 C1848 1.425 . S
C1853 C1850 1.409 . S
C1853 C1851 1.415 . S
C1854 H1844 0.930 . S
C1854 C1852 1.419 . S
C1854 C1855 1.362 . S
C1855 H1845 0.930 . S
C1855 C1848 1.409 . S
C1855 C1854 1.362 . S
H1856 C1862 0.930 . S
H1857 C1865 0.930 . S
H1858 C1866 0.930 . S
H1859 C1867 0.930 . S
H1860 C1870 0.930 . S
H1861 C1871 0.930 . S
C1862 H1856 0.930 . S
C1862 C1863 1.355 . S
C1862 C1864 1.415 . S
C1863 C1862 1.355 . S
C1863 C1865 1.419 . S
C1864 C1862 1.415 . S
C1864 C1869 1.425 . S
C1864 C1871 1.409 . S
C1865 H1857 0.930 . S
C1865 C1863 1.419 . S
C1865 C1866 1.362 . S
C1866 H1858 0.930 . S
C1866 C1865 1.362 . S
C1866 C1869 1.409 . S
C1867 H1859 0.930 . S
C1867 C1868 1.355 . S
C1867 C1869 1.415 . S
C1868 C1867 1.355 . S
C1868 C1870 1.419 . S
C1869 C1864 1.425 . S
C1869 C1866 1.409 . S
C1869 C1867 1.415 . S
C1870 H1860 0.930 . S
C1870 C1868 1.419 . S
C1870 C1871 1.362 . S
C1871 H1861 0.930 . S
C1871 C1864 1.409 . S
C1871 C1870 1.362 . S
H1872 C1878 0.930 . S
H1873 C1881 0.930 . S
H1874 C1882 0.930 . S
H1875 C1883 0.930 . S
H1876 C1886 0.930 . S
H1877 C1887 0.930 . S
C1878 H1872 0.930 . S
C1878 C1879 1.355 . S
C1878 C1880 1.415 . S
C1879 C1878 1.355 . S
C1879 C1881 1.419 . S
C1880 C1878 1.415 . S
C1880 C1885 1.425 . S
C1880 C1887 1.409 . S
C1881 H1873 0.930 . S
C1881 C1879 1.419 . S
C1881 C1882 1.362 . S
C1882 H1874 0.930 . S
C1882 C1881 1.362 . S
C1882 C1885 1.409 . S
C1883 H1875 0.930 . S
C1883 C1884 1.355 . S
C1883 C1885 1.415 . S
C1884 C1883 1.355 . S
C1884 C1886 1.419 . S
C1885 C1880 1.425 . S
C1885 C1882 1.409 . S
C1885 C1883 1.415 . S
C1886 H1876 0.930 . S
C1886 C1884 1.419 . S
C1886 C1887 1.362 . S
C1887 H1877 0.930 . S
C1887 C1880 1.409 . S
C1887 C1886 1.362 . S
H1888 C1894 0.930 . S
H1889 C1897 0.930 . S
H1890 C1898 0.930 . S
H1891 C1899 0.930 . S
H1892 C1902 0.930 . S
H1893 C1903 0.930 . S
C1894 H1888 0.930 . S
C1894 C1895 1.355 . S
C1894 C1896 1.415 . S
C1895 C1894 1.355 . S
C1895 C1897 1.419 . S
C1896 C1894 1.415 . S
C1896 C1901 1.425 . S
C1896 C1903 1.409 . S
C1897 H1889 0.930 . S
C1897 C1895 1.419 . S
C1897 C1898 1.362 . S
C1898 H1890 0.930 . S
C1898 C1897 1.362 . S
C1898 C1901 1.409 . S
C1899 H1891 0.930 . S
C1899 C1900 1.355 . S
C1899 C1901 1.415 . S
C1900 C1899 1.355 . S
C1900 C1902 1.419 . S
C1901 C1896 1.425 . S
C1901 C1898 1.409 . S
C1901 C1899 1.415 . S
C1902 H1892 0.930 . S
C1902 C1900 1.419 . S
C1902 C1903 1.362 . S
C1903 H1893 0.930 . S
C1903 C1896 1.409 . S
C1903 C1902 1.362 . S
H1904 C1910 0.930 . S
H1905 C1913 0.930 . S
H1906 C1914 0.930 . S
H1907 C1915 0.930 . S
H1908 C1918 0.930 . S
H1909 C1919 0.930 . S
C1910 H1904 0.930 . S
C1910 C1911 1.355 . S
C1910 C1912 1.415 . S
C1911 C1910 1.355 . S
C1911 C1913 1.419 . S
C1912 C1910 1.415 . S
C1912 C1917 1.425 . S
C1912 C1919 1.409 . S
C1913 H1905 0.930 . S
C1913 C1911 1.419 . S
C1913 C1914 1.362 . S
C1914 H1906 0.930 . S
C1914 C1913 1.362 . S
C1914 C1917 1.409 . S
C1915 H1907 0.930 . S
C1915 C1916 1.355 . S
C1915 C1917 1.415 . S
C1916 C1915 1.355 . S
C1916 C1918 1.419 . S
C1917 C1912 1.425 . S
C1917 C1914 1.409 . S
C1917 C1915 1.415 . S
C1918 H1908 0.930 . S
C1918 C1916 1.419 . S
C1918 C1919 1.362 . S
C1919 H1909 0.930 . S
C1919 C1912 1.409 . S
C1919 C1918 1.362 . S
H1920 C1926 0.930 . S
H1921 C1929 0.930 . S
H1922 C1930 0.930 . S
H1923 C1931 0.930 . S
H1924 C1934 0.930 . S
H1925 C1935 0.930 . S
C1926 H1920 0.930 . S
C1926 C1927 1.355 . S
C1926 C1928 1.415 . S
C1927 C1926 1.355 . S
C1927 C1929 1.419 . S
C1928 C1926 1.415 . S
C1928 C1933 1.425 . S
C1928 C1935 1.409 . S
C1929 H1921 0.930 . S
C1929 C1927 1.419 . S
C1929 C1930 1.362 . S
C1930 H1922 0.930 . S
C1930 C1929 1.362 . S
C1930 C1933 1.409 . S
C1931 H1923 0.930 . S
C1931 C1932 1.355 . S
C1931 C1933 1.415 . S
C1932 C1931 1.355 . S
C1932 C1934 1.419 . S
C1933 C1928 1.425 . S
C1933 C1930 1.409 . S
C1933 C1931 1.415 . S
C1934 H1924 0.930 . S
C1934 C1932 1.419 . S
C1934 C1935 1.362 . S
C1935 H1925 0.930 . S
C1935 C1928 1.409 . S
C1935 C1934 1.362 . S
H1936 C1942 0.930 . S
H1937 C1945 0.930 . S
H1938 C1946 0.930 . S
H1939 C1947 0.930 . S
H1940 C1950 0.930 . S
H1941 C1951 0.930 . S
C1942 H1936 0.930 . S
C1942 C1943 1.355 . S
C1942 C1944 1.415 . S
C1943 C1942 1.355 . S
C1943 C1945 1.419 . S
C1944 C1942 1.415 . S
C1944 C1949 1.425 . S
C1944 C1951 1.409 . S
C1945 H1937 0.930 . S
C1945 C1943 1.419 . S
C1945 C1946 1.362 . S
C1946 H1938 0.930 . S
C1946 C1945 1.362 . S
C1946 C1949 1.409 . S
C1947 H1939 0.930 . S
C1947 C1948 1.355 . S
C1947 C1949 1.415 . S
C1948 C1947 1.355 . S
C1948 C1950 1.419 . S
C1949 C1944 1.425 . S
C1949 C1946 1.409 . S
C1949 C1947 1.415 . S
C1950 H1940 0.930 . S
C1950 C1948 1.419 . S
C1950 C1951 1.362 . S
C1951 H1941 0.930 . S
C1951 C1944 1.409 . S
C1951 C1950 1.362 . S
H1952 C1958 0.930 . S
H1953 C1961 0.930 . S
H1954 C1962 0.930 . S
H1955 C1963 0.930 . S
H1956 C1966 0.930 . S
H1957 C1967 0.930 . S
C1958 H1952 0.930 . S
C1958 C1959 1.355 . S
C1958 C1960 1.415 . S
C1959 C1958 1.355 . S
C1959 C1961 1.419 . S
C1960 C1958 1.415 . S
C1960 C1965 1.425 . S
C1960 C1967 1.409 . S
C1961 H1953 0.930 . S
C1961 C1959 1.419 . S
C1961 C1962 1.362 . S
C1962 H1954 0.930 . S
C1962 C1961 1.362 . S
C1962 C1965 1.409 . S
C1963 H1955 0.930 . S
C1963 C1964 1.355 . S
C1963 C1965 1.415 . S
C1964 C1963 1.355 . S
C1964 C1966 1.419 . S
C1965 C1960 1.425 . S
C1965 C1962 1.409 . S
C1965 C1963 1.415 . S
C1966 H1956 0.930 . S
C1966 C1964 1.419 . S
C1966 C1967 1.362 . S
C1967 H1957 0.930 . S
C1967 C1960 1.409 . S
C1967 C1966 1.362 . S
H1968 C1974 0.930 . S
H1969 C1977 0.930 . S
H1970 C1978 0.930 . S
H1971 C1979 0.930 . S
H1972 C1982 0.930 . S
H1973 C1983 0.930 . S
C1974 H1968 0.930 . S
C1974 C1975 1.355 . S
C1974 C1976 1.415 . S
C1975 C1974 1.355 . S
C1975 C1977 1.419 . S
C1976 C1974 1.415 . S
C1976 C1981 1.425 . S
C1976 C1983 1.409 . S
C1977 H1969 0.930 . S
C1977 C1975 1.419 . S
C1977 C1978 1.362 . S
C1978 H1970 0.930 . S
C1978 C1977 1.362 . S
C1978 C1981 1.409 . S
C1979 H1971 0.930 . S
C1979 C1980 1.355 . S
C1979 C1981 1.415 . S
C1980 C1979 1.355 . S
C1980 C1982 1.419 . S
C1981 C1976 1.425 . S
C1981 C1978 1.409 . S
C1981 C1979 1.415 . S
C1982 H1972 0.930 . S
C1982 C1980 1.419 . S
C1982 C1983 1.362 . S
C1983 H1973 0.930 . S
C1983 C1976 1.409 . S
C1983 C1982 1.362 . S
H1984 C1990 0.930 . S
H1985 C1993 0.930 . S
H1986 C1994 0.930 . S
H1987 C1995 0.930 . S
H1988 C1998 0.930 . S
H1989 C1999 0.930 1_554 S
C1990 H1984 0.930 . S
C1990 C1991 1.355 . S
C1990 C1992 1.415 . S
C1991 C1990 1.355 . S
C1991 C1993 1.419 . S
C1992 C1990 1.415 . S
C1992 C1997 1.425 . S
C1992 C1999 1.409 . S
C1993 H1985 0.930 . S
C1993 C1991 1.419 . S
C1993 C1994 1.362 . S
C1994 H1986 0.930 . S
C1994 C1993 1.362 . S
C1994 C1997 1.409 . S
C1995 H1987 0.930 . S
C1995 C1996 1.355 . S
C1995 C1997 1.415 . S
C1996 C1995 1.355 . S
C1996 C1998 1.419 1_556 S
C1997 C1992 1.425 . S
C1997 C1994 1.409 . S
C1997 C1995 1.415 . S
C1998 H1988 0.930 . S
C1998 C1996 1.419 1_554 S
C1998 C1999 1.362 1_554 S
C1999 H1989 0.930 1_556 S
C1999 C1992 1.409 . S
C1999 C1998 1.362 1_556 S
H2000 C2006 0.930 . S
H2001 C2009 0.930 . S
H2002 C2010 0.930 . S
H2003 C2011 0.930 . S
H2004 C2014 0.930 . S
H2005 C2015 0.930 . S
C2006 H2000 0.930 . S
C2006 C2007 1.355 . S
C2006 C2008 1.415 . S
C2007 C2006 1.355 . S
C2007 C2009 1.419 . S
C2008 C2006 1.415 . S
C2008 C2013 1.425 . S
C2008 C2015 1.409 . S
C2009 H2001 0.930 . S
C2009 C2007 1.419 . S
C2009 C2010 1.362 . S
C2010 H2002 0.930 . S
C2010 C2009 1.362 . S
C2010 C2013 1.409 . S
C2011 H2003 0.930 . S
C2011 C2012 1.355 . S
C2011 C2013 1.415 . S
C2012 C2011 1.355 . S
C2012 C2014 1.419 . S
C2013 C2008 1.425 . S
C2013 C2010 1.409 . S
C2013 C2011 1.415 . S
C2014 H2004 0.930 . S
C2014 C2012 1.419 . S
C2014 C2015 1.362 . S
C2015 H2005 0.930 . S
C2015 C2008 1.409 . S
C2015 C2014 1.362 . S
H2016 C2022 0.930 . S
H2017 C2025 0.930 . S
H2018 C2026 0.930 . S
H2019 C2027 0.930 . S
H2020 C2030 0.930 . S
H2021 C2031 0.930 . S
C2022 H2016 0.930 . S
C2022 C2023 1.355 . S
C2022 C2024 1.415 . S
C2023 C2022 1.355 . S
C2023 C2025 1.419 . S
C2024 C2022 1.415 . S
C2024 C2029 1.425 . S
C2024 C2031 1.409 . S
C2025 H2017 0.930 . S
C2025 C2023 1.419 . S
C2025 C2026 1.362 . S
C2026 H2018 0.930 . S
C2026 C2025 1.362 . S
C2026 C2029 1.409 . S
C2027 H2019 0.930 . S
C2027 C2028 1.355 . S
C2027 C2029 1.415 . S
C2028 C2027 1.355 . S
C2028 C2030 1.419 . S
C2029 C2024 1.425 . S
C2029 C2026 1.409 . S
C2029 C2027 1.415 . S
C2030 H2020 0.930 . S
C2030 C2028 1.419 . S
C2030 C2031 1.362 . S
C2031 H2021 0.930 . S
C2031 C2024 1.409 . S
C2031 C2030 1.362 . S
H2032 C2038 0.930 . S
H2033 C2041 0.930 . S
H2034 C2042 0.930 . S
H2035 C2043 0.930 . S
H2036 C2046 0.930 . S
H2037 C2047 0.930 . S
C2038 H2032 0.930 . S
C2038 C2039 1.355 . S
C2038 C2040 1.415 . S
C2039 C2038 1.355 . S
C2039 C2041 1.419 . S
C2040 C2038 1.415 . S
C2040 C2045 1.425 . S
C2040 C2047 1.409 . S
C2041 H2033 0.930 . S
C2041 C2039 1.419 . S
C2041 C2042 1.362 . S
C2042 H2034 0.930 . S
C2042 C2041 1.362 . S
C2042 C2045 1.409 . S
C2043 H2035 0.930 . S
C2043 C2044 1.355 . S
C2043 C2045 1.415 . S
C2044 C2043 1.355 . S
C2044 C2046 1.419 . S
C2045 C2040 1.425 . S
C2045 C2042 1.409 . S
C2045 C2043 1.415 . S
C2046 H2036 0.930 . S
C2046 C2044 1.419 . S
C2046 C2047 1.362 . S
C2047 H2037 0.930 . S
C2047 C2040 1.409 . S
C2047 C2046 1.362 . S
H2048 C2054 0.930 . S
H2049 C2057 0.930 . S
H2050 C2058 0.930 . S
H2051 C2059 0.930 . S
H2052 C2062 0.930 . S
H2053 C2063 0.930 . S
C2054 H2048 0.930 . S
C2054 C2055 1.355 . S
C2054 C2056 1.415 . S
C2055 C2054 1.355 . S
C2055 C2057 1.419 . S
C2056 C2054 1.415 . S
C2056 C2061 1.425 . S
C2056 C2063 1.409 . S
C2057 H2049 0.930 . S
C2057 C2055 1.419 . S
C2057 C2058 1.362 . S
C2058 H2050 0.930 . S
C2058 C2057 1.362 . S
C2058 C2061 1.409 . S
C2059 H2051 0.930 . S
C2059 C2060 1.355 . S
C2059 C2061 1.415 . S
C2060 C2059 1.355 . S
C2060 C2062 1.419 . S
C2061 C2056 1.425 . S
C2061 C2058 1.409 . S
C2061 C2059 1.415 . S
C2062 H2052 0.930 . S
C2062 C2060 1.419 . S
C2062 C2063 1.362 . S
C2063 H2053 0.930 . S
C2063 C2056 1.409 . S
C2063 C2062 1.362 . S
H2064 C2070 0.930 . S
H2065 C2073 0.930 . S
H2066 C2074 0.930 . S
H2067 C2075 0.930 . S
H2068 C2078 0.930 . S
H2069 C2079 0.930 . S
C2070 H2064 0.930 . S
C2070 C2071 1.355 . S
C2070 C2072 1.415 . S
C2071 C2070 1.355 . S
C2071 C2073 1.419 . S
C2072 C2070 1.415 . S
C2072 C2077 1.425 . S
C2072 C2079 1.409 . S
C2073 H2065 0.930 . S
C2073 C2071 1.419 . S
C2073 C2074 1.362 . S
C2074 H2066 0.930 . S
C2074 C2073 1.362 . S
C2074 C2077 1.409 . S
C2075 H2067 0.930 . S
C2075 C2076 1.355 . S
C2075 C2077 1.415 . S
C2076 C2075 1.355 . S
C2076 C2078 1.419 . S
C2077 C2072 1.425 . S
C2077 C2074 1.409 . S
C2077 C2075 1.415 . S
C2078 H2068 0.930 . S
C2078 C2076 1.419 . S
C2078 C2079 1.362 . S
C2079 H2069 0.930 . S
C2079 C2072 1.409 . S
C2079 C2078 1.362 . S
H2080 C2086 0.930 . S
H2081 C2089 0.930 . S
H2082 C2090 0.930 . S
H2083 C2091 0.930 . S
H2084 C2094 0.930 . S
H2085 C2095 0.930 . S
C2086 H2080 0.930 . S
C2086 C2087 1.355 . S
C2086 C2088 1.415 . S
C2087 C2086 1.355 . S
C2087 C2089 1.419 . S
C2088 C2086 1.415 . S
C2088 C2093 1.425 . S
C2088 C2095 1.409 . S
C2089 H2081 0.930 . S
C2089 C2087 1.419 . S
C2089 C2090 1.362 . S
C2090 H2082 0.930 . S
C2090 C2089 1.362 . S
C2090 C2093 1.409 . S
C2091 H2083 0.930 . S
C2091 C2092 1.355 . S
C2091 C2093 1.415 . S
C2092 C2091 1.355 . S
C2092 C2094 1.419 . S
C2093 C2088 1.425 . S
C2093 C2090 1.409 . S
C2093 C2091 1.415 . S
C2094 H2084 0.930 . S
C2094 C2092 1.419 . S
C2094 C2095 1.362 . S
C2095 H2085 0.930 . S
C2095 C2088 1.409 . S
C2095 C2094 1.362 . S
H2096 C2102 0.930 . S
H2097 C2105 0.930 . S
H2098 C2106 0.930 . S
H2099 C2107 0.930 . S
H2100 C2110 0.930 . S
H2101 C2111 0.930 . S
C2102 H2096 0.930 . S
C2102 C2103 1.355 . S
C2102 C2104 1.415 . S
C2103 C2102 1.355 . S
C2103 C2105 1.419 . S
C2104 C2102 1.415 . S
C2104 C2109 1.425 . S
C2104 C2111 1.409 . S
C2105 H2097 0.930 . S
C2105 C2103 1.419 . S
C2105 C2106 1.362 . S
C2106 H2098 0.930 . S
C2106 C2105 1.362 . S
C2106 C2109 1.409 . S
C2107 H2099 0.930 . S
C2107 C2108 1.355 . S
C2107 C2109 1.415 . S
C2108 C2107 1.355 . S
C2108 C2110 1.419 . S
C2109 C2104 1.425 . S
C2109 C2106 1.409 . S
C2109 C2107 1.415 . S
C2110 H2100 0.930 . S
C2110 C2108 1.419 . S
C2110 C2111 1.362 . S
C2111 H2101 0.930 . S
C2111 C2104 1.409 . S
C2111 C2110 1.362 . S
H2112 C2118 0.930 . S
H2113 C2121 0.930 . S
H2114 C2122 0.930 . S
H2115 C2123 0.930 . S
H2116 C2126 0.930 . S
H2117 C2127 0.930 . S
C2118 H2112 0.930 . S
C2118 C2119 1.355 . S
C2118 C2120 1.415 . S
C2119 C2118 1.355 . S
C2119 C2121 1.419 . S
C2120 C2118 1.415 . S
C2120 C2125 1.425 . S
C2120 C2127 1.409 . S
C2121 H2113 0.930 . S
C2121 C2119 1.419 . S
C2121 C2122 1.362 . S
C2122 H2114 0.930 . S
C2122 C2121 1.362 . S
C2122 C2125 1.409 . S
C2123 H2115 0.930 . S
C2123 C2124 1.355 . S
C2123 C2125 1.415 . S
C2124 C2123 1.355 . S
C2124 C2126 1.419 . S
C2125 C2120 1.425 . S
C2125 C2122 1.409 . S
C2125 C2123 1.415 . S
C2126 H2116 0.930 . S
C2126 C2124 1.419 . S
C2126 C2127 1.362 . S
C2127 H2117 0.930 . S
C2127 C2120 1.409 . S
C2127 C2126 1.362 . S
H2128 C2134 0.930 . S
H2129 C2137 0.930 . S
H2130 C2138 0.930 . S
H2131 C2139 0.930 . S
H2132 C2142 0.930 . S
H2133 C2143 0.930 . S
C2134 H2128 0.930 . S
C2134 C2135 1.355 . S
C2134 C2136 1.415 . S
C2135 C2134 1.355 . S
C2135 C2137 1.419 . S
C2136 C2134 1.415 . S
C2136 C2141 1.425 . S
C2136 C2143 1.409 . S
C2137 H2129 0.930 . S
C2137 C2135 1.419 . S
C2137 C2138 1.362 . S
C2138 H2130 0.930 . S
C2138 C2137 1.362 . S
C2138 C2141 1.409 . S
C2139 H2131 0.930 . S
C2139 C2140 1.355 . S
C2139 C2141 1.415 . S
C2140 C2139 1.355 . S
C2140 C2142 1.419 . S
C2141 C2136 1.425 . S
C2141 C2138 1.409 . S
C2141 C2139 1.415 . S
C2142 H2132 0.930 . S
C2142 C2140 1.419 . S
C2142 C2143 1.362 . S
C2143 H2133 0.930 . S
C2143 C2136 1.409 . S
C2143 C2142 1.362 . S
H2144 C2150 0.930 . S
H2145 C2153 0.932 1_554 S
H2146 C2154 0.930 . S
H2147 C2155 0.930 . S
H2148 C2158 0.930 . S
H2149 C2159 0.930 . S
C2150 H2144 0.930 . S
C2150 C2151 1.355 . S
C2150 C2152 1.415 . S
C2151 C2150 1.355 . S
C2151 C2153 1.418 . S
C2152 C2150 1.415 . S
C2152 C2157 1.425 . S
C2152 C2159 1.409 . S
C2153 H2145 0.932 1_556 S
C2153 C2151 1.418 . S
C2153 C2154 1.361 . S
C2154 H2146 0.930 . S
C2154 C2153 1.361 . S
C2154 C2157 1.409 . S
C2155 H2147 0.930 . S
C2155 C2156 1.355 . S
C2155 C2157 1.415 . S
C2156 C2155 1.355 . S
C2156 C2158 1.419 . S
C2157 C2152 1.425 . S
C2157 C2154 1.409 . S
C2157 C2155 1.415 . S
C2158 H2148 0.930 . S
C2158 C2156 1.419 . S
C2158 C2159 1.362 . S
C2159 H2149 0.930 . S
C2159 C2152 1.409 . S
C2159 C2158 1.362 . S
H2160 C2166 0.930 . S
H2161 C2169 0.930 . S
H2162 C2170 0.930 . S
H2163 C2171 0.930 . S
H2164 C2174 0.930 . S
H2165 C2175 0.930 . S
C2166 H2160 0.930 . S
C2166 C2167 1.355 . S
C2166 C2168 1.415 . S
C2167 C2166 1.355 . S
C2167 C2169 1.419 . S
C2168 C2166 1.415 . S
C2168 C2173 1.425 . S
C2168 C2175 1.409 . S
C2169 H2161 0.930 . S
C2169 C2167 1.419 . S
C2169 C2170 1.362 . S
C2170 H2162 0.930 . S
C2170 C2169 1.362 . S
C2170 C2173 1.409 . S
C2171 H2163 0.930 . S
C2171 C2172 1.355 . S
C2171 C2173 1.415 . S
C2172 C2171 1.355 . S
C2172 C2174 1.419 . S
C2173 C2168 1.425 . S
C2173 C2170 1.409 . S
C2173 C2171 1.415 . S
C2174 H2164 0.930 . S
C2174 C2172 1.419 . S
C2174 C2175 1.362 . S
C2175 H2165 0.930 . S
C2175 C2168 1.409 . S
C2175 C2174 1.362 . S
H2176 C2182 0.930 . S
H2177 C2185 0.930 . S
H2178 C2186 0.930 . S
H2179 C2187 0.930 . S
H2180 C2190 0.930 . S
H2181 C2191 0.930 . S
C2182 H2176 0.930 . S
C2182 C2183 1.355 . S
C2182 C2184 1.415 . S
C2183 C2182 1.355 . S
C2183 C2185 1.419 . S
C2184 C2182 1.415 . S
C2184 C2189 1.425 . S
C2184 C2191 1.409 . S
C2185 H2177 0.930 . S
C2185 C2183 1.419 . S
C2185 C2186 1.362 . S
C2186 H2178 0.930 . S
C2186 C2185 1.362 . S
C2186 C2189 1.409 . S
C2187 H2179 0.930 . S
C2187 C2188 1.355 . S
C2187 C2189 1.415 . S
C2188 C2187 1.355 . S
C2188 C2190 1.419 . S
C2189 C2184 1.425 . S
C2189 C2186 1.409 . S
C2189 C2187 1.415 . S
C2190 H2180 0.930 . S
C2190 C2188 1.419 . S
C2190 C2191 1.362 . S
C2191 H2181 0.930 . S
C2191 C2184 1.409 . S
C2191 C2190 1.362 . S
H2192 C2198 0.930 . S
H2193 C2201 0.930 . S
H2194 C2202 0.930 . S
H2195 C2203 0.930 . S
H2196 C2206 0.930 . S
H2197 C2207 0.930 . S
C2198 H2192 0.930 . S
C2198 C2199 1.355 . S
C2198 C2200 1.415 . S
C2199 C2198 1.355 . S
C2199 C2201 1.419 . S
C2200 C2198 1.415 . S
C2200 C2205 1.425 . S
C2200 C2207 1.409 . S
C2201 H2193 0.930 . S
C2201 C2199 1.419 . S
C2201 C2202 1.362 . S
C2202 H2194 0.930 . S
C2202 C2201 1.362 . S
C2202 C2205 1.409 . S
C2203 H2195 0.930 . S
C2203 C2204 1.355 . S
C2203 C2205 1.415 . S
C2204 C2203 1.355 . S
C2204 C2206 1.419 . S
C2205 C2200 1.425 . S
C2205 C2202 1.409 . S
C2205 C2203 1.415 . S
C2206 H2196 0.930 . S
C2206 C2204 1.419 . S
C2206 C2207 1.362 . S
C2207 H2197 0.930 . S
C2207 C2200 1.409 . S
C2207 C2206 1.362 . S
H2208 C2214 0.930 . S
H2209 C2217 0.930 . S
H2210 C2218 0.930 . S
H2211 C2219 0.930 . S
H2212 C2222 0.930 . S
H2213 C2223 0.930 . S
C2214 H2208 0.930 . S
C2214 C2215 1.355 . S
C2214 C2216 1.415 . S
C2215 C2214 1.355 . S
C2215 C2217 1.419 . S
C2216 C2214 1.415 . S
C2216 C2221 1.425 . S
C2216 C2223 1.409 . S
C2217 H2209 0.930 . S
C2217 C2215 1.419 . S
C2217 C2218 1.362 . S
C2218 H2210 0.930 . S
C2218 C2217 1.362 . S
C2218 C2221 1.409 . S
C2219 H2211 0.930 . S
C2219 C2220 1.355 . S
C2219 C2221 1.415 . S
C2220 C2219 1.355 . S
C2220 C2222 1.419 . S
C2221 C2216 1.425 . S
C2221 C2218 1.409 . S
C2221 C2219 1.415 . S
C2222 H2212 0.930 . S
C2222 C2220 1.419 . S
C2222 C2223 1.362 . S
C2223 H2213 0.930 . S
C2223 C2216 1.409 . S
C2223 C2222 1.362 . S
H2224 C2230 0.930 . S
H2225 C2233 0.930 . S
H2226 C2234 0.930 1_545 S
H2227 C2235 0.930 . S
H2228 C2238 0.930 . S
H2229 C2239 0.930 . S
C2230 H2224 0.930 . S
C2230 C2231 1.355 . S
C2230 C2232 1.415 . S
C2231 C2230 1.355 . S
C2231 C2233 1.419 . S
C2232 C2230 1.415 . S
C2232 C2237 1.425 . S
C2232 C2239 1.409 . S
C2233 H2225 0.930 . S
C2233 C2231 1.419 . S
C2233 C2234 1.362 . S
C2234 H2226 0.930 1_565 S
C2234 C2233 1.362 . S
C2234 C2237 1.409 . S
C2235 H2227 0.930 . S
C2235 C2236 1.355 1_545 S
C2235 C2237 1.415 1_545 S
C2236 C2235 1.355 1_565 S
C2236 C2238 1.419 . S
C2237 C2232 1.425 . S
C2237 C2234 1.409 . S
C2237 C2235 1.415 1_565 S
C2238 H2228 0.930 . S
C2238 C2236 1.419 . S
C2238 C2239 1.362 . S
C2239 H2229 0.930 . S
C2239 C2232 1.409 . S
C2239 C2238 1.362 . S
H2240 C2246 0.930 . S
H2241 C2249 0.930 . S
H2242 C2250 0.930 . S
H2243 C2251 0.930 . S
H2244 C2254 0.930 . S
H2245 C2255 0.930 . S
C2246 H2240 0.930 . S
C2246 C2247 1.355 . S
C2246 C2248 1.415 . S
C2247 C2246 1.355 . S
C2247 C2249 1.419 . S
C2248 C2246 1.415 . S
C2248 C2253 1.425 . S
C2248 C2255 1.409 . S
C2249 H2241 0.930 . S
C2249 C2247 1.419 . S
C2249 C2250 1.362 . S
C2250 H2242 0.930 . S
C2250 C2249 1.362 . S
C2250 C2253 1.409 . S
C2251 H2243 0.930 . S
C2251 C2252 1.355 . S
C2251 C2253 1.415 . S
C2252 C2251 1.355 . S
C2252 C2254 1.419 . S
C2253 C2248 1.425 . S
C2253 C2250 1.409 . S
C2253 C2251 1.415 . S
C2254 H2244 0.930 . S
C2254 C2252 1.419 . S
C2254 C2255 1.362 . S
C2255 H2245 0.930 . S
C2255 C2248 1.409 . S
C2255 C2254 1.362 . S
H2256 C2262 0.930 . S
H2257 C2265 0.930 . S
H2258 C2266 0.930 . S
H2259 C2267 0.930 . S
H2260 C2270 0.930 . S
H2261 C2271 0.930 . S
C2262 H2256 0.930 . S
C2262 C2263 1.355 . S
C2262 C2264 1.415 . S
C2263 C2262 1.355 . S
C2263 C2265 1.419 . S
C2264 C2262 1.415 . S
C2264 C2269 1.425 . S
C2264 C2271 1.409 . S
C2265 H2257 0.930 . S
C2265 C2263 1.419 . S
C2265 C2266 1.362 . S
C2266 H2258 0.930 . S
C2266 C2265 1.362 . S
C2266 C2269 1.409 . S
C2267 H2259 0.930 . S
C2267 C2268 1.355 . S
C2267 C2269 1.415 . S
C2268 C2267 1.355 . S
C2268 C2270 1.419 . S
C2269 C2264 1.425 . S
C2269 C2266 1.409 . S
C2269 C2267 1.415 . S
C2270 H2260 0.930 . S
C2270 C2268 1.419 . S
C2270 C2271 1.362 . S
C2271 H2261 0.930 . S
C2271 C2264 1.409 . S
C2271 C2270 1.362 . S
H2272 C2278 0.930 . S
H2273 C2281 0.930 . S
H2274 C2282 0.930 . S
H2275 C2283 0.930 . S
H2276 C2286 0.930 . S
H2277 C2287 0.930 . S
C2278 H2272 0.930 . S
C2278 C2279 1.355 . S
C2278 C2280 1.415 . S
C2279 C2278 1.355 . S
C2279 C2281 1.419 . S
C2280 C2278 1.415 . S
C2280 C2285 1.425 . S
C2280 C2287 1.409 . S
C2281 H2273 0.930 . S
C2281 C2279 1.419 . S
C2281 C2282 1.362 . S
C2282 H2274 0.930 . S
C2282 C2281 1.362 . S
C2282 C2285 1.409 . S
C2283 H2275 0.930 . S
C2283 C2284 1.355 . S
C2283 C2285 1.415 . S
C2284 C2283 1.355 . S
C2284 C2286 1.419 . S
C2285 C2280 1.425 . S
C2285 C2282 1.409 . S
C2285 C2283 1.415 . S
C2286 H2276 0.930 . S
C2286 C2284 1.419 . S
C2286 C2287 1.362 . S
C2287 H2277 0.930 . S
C2287 C2280 1.409 . S
C2287 C2286 1.362 . S
H2288 C2294 0.930 . S
H2289 C2297 0.930 . S
H2290 C2298 0.930 . S
H2291 C2299 0.930 . S
H2292 C2302 0.930 . S
H2293 C2303 0.930 . S
C2294 H2288 0.930 . S
C2294 C2295 1.355 . S
C2294 C2296 1.415 . S
C2295 C2294 1.355 . S
C2295 C2297 1.419 . S
C2296 C2294 1.415 . S
C2296 C2301 1.425 . S
C2296 C2303 1.409 . S
C2297 H2289 0.930 . S
C2297 C2295 1.419 . S
C2297 C2298 1.362 . S
C2298 H2290 0.930 . S
C2298 C2297 1.362 . S
C2298 C2301 1.409 . S
C2299 H2291 0.930 . S
C2299 C2300 1.355 . S
C2299 C2301 1.415 . S
C2300 C2299 1.355 . S
C2300 C2302 1.419 . S
C2301 C2296 1.425 . S
C2301 C2298 1.409 . S
C2301 C2299 1.415 . S
C2302 H2292 0.930 . S
C2302 C2300 1.419 . S
C2302 C2303 1.362 . S
C2303 H2293 0.930 . S
C2303 C2296 1.409 . S
C2303 C2302 1.362 . S
H2304 C2310 0.930 . S
H2305 C2313 0.930 . S
H2306 C2314 0.930 . S
H2307 C2315 0.930 . S
H2308 C2318 0.930 1_655 S
H2309 C2319 0.930 . S
C2310 H2304 0.930 . S
C2310 C2311 1.355 1_655 S
C2310 C2312 1.415 1_655 S
C2311 C2310 1.355 1_455 S
C2311 C2313 1.419 . S
C2312 C2310 1.415 1_455 S
C2312 C2317 1.425 . S
C2312 C2319 1.409 1_455 S
C2313 H2305 0.930 . S
C2313 C2311 1.419 . S
C2313 C2314 1.362 . S
C2314 H2306 0.930 . S
C2314 C2313 1.362 . S
C2314 C2317 1.409 . S
C2315 H2307 0.930 . S
C2315 C2316 1.355 . S
C2315 C2317 1.415 . S
C2316 C2315 1.355 . S
C2316 C2318 1.419 . S
C2317 C2312 1.425 . S
C2317 C2314 1.409 . S
C2317 C2315 1.415 . S
C2318 H2308 0.930 1_455 S
C2318 C2316 1.419 . S
C2318 C2319 1.362 1_455 S
C2319 H2309 0.930 . S
C2319 C2312 1.409 1_655 S
C2319 C2318 1.362 1_655 S
H2320 C2326 0.930 . S
H2321 C2329 0.930 . S
H2322 C2330 0.930 . S
H2323 C2331 0.930 . S
H2324 C2334 0.930 . S
H2325 C2335 0.930 . S
C2326 H2320 0.930 . S
C2326 C2327 1.355 . S
C2326 C2328 1.415 . S
C2327 C2326 1.355 . S
C2327 C2329 1.419 . S
C2328 C2326 1.415 . S
C2328 C2333 1.425 1_455 S
C2328 C2335 1.409 . S
C2329 H2321 0.930 . S
C2329 C2327 1.419 . S
C2329 C2330 1.362 1_455 S
C2330 H2322 0.930 . S
C2330 C2329 1.362 1_655 S
C2330 C2333 1.409 . S
C2331 H2323 0.930 . S
C2331 C2332 1.355 . S
C2331 C2333 1.415 . S
C2332 C2331 1.355 . S
C2332 C2334 1.419 . S
C2333 C2328 1.425 1_655 S
C2333 C2330 1.409 . S
C2333 C2331 1.415 . S
C2334 H2324 0.930 . S
C2334 C2332 1.419 . S
C2334 C2335 1.362 1_655 S
C2335 H2325 0.930 . S
C2335 C2328 1.409 . S
C2335 C2334 1.362 1_455 S
H2336 C2342 0.930 . S
H2337 C2345 0.930 . S
H2338 C2346 0.930 . S
H2339 C2347 0.930 . S
H2340 C2350 0.930 . S
H2341 C2351 0.930 . S
C2342 H2336 0.930 . S
C2342 C2343 1.355 . S
C2342 C2344 1.415 . S
C2343 C2342 1.355 . S
C2343 C2345 1.419 . S
C2344 C2342 1.415 . S
C2344 C2349 1.425 . S
C2344 C2351 1.409 . S
C2345 H2337 0.930 . S
C2345 C2343 1.419 . S
C2345 C2346 1.362 . S
C2346 H2338 0.930 . S
C2346 C2345 1.362 . S
C2346 C2349 1.409 . S
C2347 H2339 0.930 . S
C2347 C2348 1.355 . S
C2347 C2349 1.415 . S
C2348 C2347 1.355 . S
C2348 C2350 1.419 . S
C2349 C2344 1.425 . S
C2349 C2346 1.409 . S
C2349 C2347 1.415 . S
C2350 H2340 0.930 . S
C2350 C2348 1.419 . S
C2350 C2351 1.362 . S
C2351 H2341 0.930 . S
C2351 C2344 1.409 . S
C2351 C2350 1.362 . S
H2352 C2358 0.930 . S
H2353 C2361 0.930 . S
H2354 C2362 0.930 . S
H2355 C2363 0.930 . S
H2356 C2366 0.930 . S
H2357 C2367 0.930 . S
C2358 H2352 0.930 . S
C2358 C2359 1.355 . S
C2358 C2360 1.415 . S
C2359 C2358 1.355 . S
C2359 C2361 1.419 . S
C2360 C2358 1.415 . S
C2360 C2365 1.425 . S
C2360 C2367 1.409 . S
C2361 H2353 0.930 . S
C2361 C2359 1.419 . S
C2361 C2362 1.362 . S
C2362 H2354 0.930 . S
C2362 C2361 1.362 . S
C2362 C2365 1.409 . S
C2363 H2355 0.930 . S
C2363 C2364 1.355 . S
C2363 C2365 1.415 . S
C2364 C2363 1.355 . S
C2364 C2366 1.419 . S
C2365 C2360 1.425 . S
C2365 C2362 1.409 . S
C2365 C2363 1.415 . S
C2366 H2356 0.930 . S
C2366 C2364 1.419 . S
C2366 C2367 1.362 . S
C2367 H2357 0.930 . S
C2367 C2360 1.409 . S
C2367 C2366 1.362 . S
H2368 C2374 0.930 . S
H2369 C2377 0.930 . S
H2370 C2378 0.930 . S
H2371 C2379 0.930 . S
H2372 C2382 0.930 . S
H2373 C2383 0.930 1_655 S
C2374 H2368 0.930 . S
C2374 C2375 1.355 . S
C2374 C2376 1.415 . S
C2375 C2374 1.355 . S
C2375 C2377 1.419 . S
C2376 C2374 1.415 . S
C2376 C2381 1.425 . S
C2376 C2383 1.409 . S
C2377 H2369 0.930 . S
C2377 C2375 1.419 . S
C2377 C2378 1.362 . S
C2378 H2370 0.930 . S
C2378 C2377 1.362 . S
C2378 C2381 1.409 . S
C2379 H2371 0.930 . S
C2379 C2380 1.355 . S
C2379 C2381 1.415 . S
C2380 C2379 1.355 . S
C2380 C2382 1.419 . S
C2381 C2376 1.425 . S
C2381 C2378 1.409 . S
C2381 C2379 1.415 . S
C2382 H2372 0.930 . S
C2382 C2380 1.419 . S
C2382 C2383 1.362 . S
C2383 H2373 0.930 1_455 S
C2383 C2376 1.409 . S
C2383 C2382 1.362 . S
H2384 C2390 0.930 . S
H2385 C2393 0.930 . S
H2386 C2394 0.930 . S
H2387 C2395 0.930 . S
H2388 C2398 0.930 . S
H2389 C2399 0.930 . S
C2390 H2384 0.930 . S
C2390 C2391 1.355 . S
C2390 C2392 1.415 . S
C2391 C2390 1.355 . S
C2391 C2393 1.419 . S
C2392 C2390 1.415 . S
C2392 C2397 1.425 . S
C2392 C2399 1.409 . S
C2393 H2385 0.930 . S
C2393 C2391 1.419 . S
C2393 C2394 1.362 . S
C2394 H2386 0.930 . S
C2394 C2393 1.362 . S
C2394 C2397 1.409 . S
C2395 H2387 0.930 . S
C2395 C2396 1.355 . S
C2395 C2397 1.415 . S
C2396 C2395 1.355 . S
C2396 C2398 1.419 . S
C2397 C2392 1.425 . S
C2397 C2394 1.409 . S
C2397 C2395 1.415 . S
C2398 H2388 0.930 . S
C2398 C2396 1.419 . S
C2398 C2399 1.362 . S
C2399 H2389 0.930 . S
C2399 C2392 1.409 . S
C2399 C2398 1.362 . S
H2400 C2406 0.930 . S
H2401 C2409 0.930 . S
H2402 C2410 0.930 . S
H2403 C2411 0.930 . S
H2404 C2414 0.930 . S
H2405 C2415 0.930 . S
C2406 H2400 0.930 . S
C2406 C2407 1.355 . S
C2406 C2408 1.415 . S
C2407 C2406 1.355 . S
C2407 C2409 1.419 . S
C2408 C2406 1.415 . S
C2408 C2413 1.425 . S
C2408 C2415 1.409 . S
C2409 H2401 0.930 . S
C2409 C2407 1.419 . S
C2409 C2410 1.362 . S
C2410 H2402 0.930 . S
C2410 C2409 1.362 . S
C2410 C2413 1.409 . S
C2411 H2403 0.930 . S
C2411 C2412 1.355 . S
C2411 C2413 1.415 . S
C2412 C2411 1.355 . S
C2412 C2414 1.419 . S
C2413 C2408 1.425 . S
C2413 C2410 1.409 . S
C2413 C2411 1.415 . S
C2414 H2404 0.930 . S
C2414 C2412 1.419 . S
C2414 C2415 1.362 . S
C2415 H2405 0.930 . S
C2415 C2408 1.409 . S
C2415 C2414 1.362 . S
H2416 C2422 0.930 . S
H2417 C2425 0.930 . S
H2418 C2426 0.930 . S
H2419 C2427 0.930 . S
H2420 C2430 0.930 . S
H2421 C2431 0.930 . S
C2422 H2416 0.930 . S
C2422 C2423 1.355 . S
C2422 C2424 1.415 . S
C2423 C2422 1.355 . S
C2423 C2425 1.419 . S
C2424 C2422 1.415 . S
C2424 C2429 1.425 . S
C2424 C2431 1.409 . S
C2425 H2417 0.930 . S
C2425 C2423 1.419 . S
C2425 C2426 1.362 . S
C2426 H2418 0.930 . S
C2426 C2425 1.362 . S
C2426 C2429 1.409 . S
C2427 H2419 0.930 . S
C2427 C2428 1.355 . S
C2427 C2429 1.415 . S
C2428 C2427 1.355 . S
C2428 C2430 1.419 . S
C2429 C2424 1.425 . S
C2429 C2426 1.409 . S
C2429 C2427 1.415 . S
C2430 H2420 0.930 . S
C2430 C2428 1.419 . S
C2430 C2431 1.362 . S
C2431 H2421 0.930 . S
C2431 C2424 1.409 . S
C2431 C2430 1.362 . S
H2432 C2438 0.930 . S
H2433 C2441 0.930 . S
H2434 C2442 0.930 . S
H2435 C2443 0.930 . S
H2436 C2446 0.930 . S
H2437 C2447 0.930 . S
C2438 H2432 0.930 . S
C2438 C2439 1.355 . S
C2438 C2440 1.415 . S
C2439 C2438 1.355 . S
C2439 C2441 1.419 . S
C2440 C2438 1.415 . S
C2440 C2445 1.425 . S
C2440 C2447 1.409 . S
C2441 H2433 0.930 . S
C2441 C2439 1.419 . S
C2441 C2442 1.362 . S
C2442 H2434 0.930 . S
C2442 C2441 1.362 . S
C2442 C2445 1.409 . S
C2443 H2435 0.930 . S
C2443 C2444 1.355 . S
C2443 C2445 1.415 . S
C2444 C2443 1.355 . S
C2444 C2446 1.419 . S
C2445 C2440 1.425 . S
C2445 C2442 1.409 . S
C2445 C2443 1.415 . S
C2446 H2436 0.930 . S
C2446 C2444 1.419 . S
C2446 C2447 1.362 . S
C2447 H2437 0.930 . S
C2447 C2440 1.409 . S
C2447 C2446 1.362 . S
H2448 C2454 0.930 . S
H2449 C2457 0.930 . S
H2450 C2458 0.930 . S
H2451 C2459 0.930 . S
H2452 C2462 0.930 . S
H2453 C2463 0.930 . S
C2454 H2448 0.930 . S
C2454 C2455 1.355 . S
C2454 C2456 1.415 . S
C2455 C2454 1.355 . S
C2455 C2457 1.419 . S
C2456 C2454 1.415 . S
C2456 C2461 1.425 . S
C2456 C2463 1.409 . S
C2457 H2449 0.930 . S
C2457 C2455 1.419 . S
C2457 C2458 1.362 . S
C2458 H2450 0.930 . S
C2458 C2457 1.362 . S
C2458 C2461 1.409 . S
C2459 H2451 0.930 . S
C2459 C2460 1.355 . S
C2459 C2461 1.415 . S
C2460 C2459 1.355 . S
C2460 C2462 1.419 . S
C2461 C2456 1.425 . S
C2461 C2458 1.409 . S
C2461 C2459 1.415 . S
C2462 H2452 0.930 . S
C2462 C2460 1.419 . S
C2462 C2463 1.362 . S
C2463 H2453 0.930 . S
C2463 C2456 1.409 . S
C2463 C2462 1.362 . S
H2464 C2470 0.930 . S
H2465 C2473 0.930 . S
H2466 C2474 0.930 . S
H2467 C2475 0.930 . S
H2468 C2478 0.930 . S
H2469 C2479 0.930 . S
C2470 H2464 0.930 . S
C2470 C2471 1.355 . S
C2470 C2472 1.415 . S
C2471 C2470 1.355 . S
C2471 C2473 1.419 . S
C2472 C2470 1.415 . S
C2472 C2477 1.425 . S
C2472 C2479 1.409 . S
C2473 H2465 0.930 . S
C2473 C2471 1.419 . S
C2473 C2474 1.362 . S
C2474 H2466 0.930 . S
C2474 C2473 1.362 . S
C2474 C2477 1.409 . S
C2475 H2467 0.930 . S
C2475 C2476 1.355 . S
C2475 C2477 1.415 . S
C2476 C2475 1.355 . S
C2476 C2478 1.419 . S
C2477 C2472 1.425 . S
C2477 C2474 1.409 . S
C2477 C2475 1.415 . S
C2478 H2468 0.930 . S
C2478 C2476 1.419 . S
C2478 C2479 1.362 . S
C2479 H2469 0.930 . S
C2479 C2472 1.409 . S
C2479 C2478 1.362 . S
H2480 C2486 0.930 . S
H2481 C2489 0.930 . S
H2482 C2490 0.930 . S
H2483 C2491 0.930 . S
H2484 C2494 0.930 . S
H2485 C2495 0.930 . S
C2486 H2480 0.930 . S
C2486 C2487 1.355 . S
C2486 C2488 1.415 . S
C2487 C2486 1.355 . S
C2487 C2489 1.419 . S
C2488 C2486 1.415 . S
C2488 C2493 1.425 . S
C2488 C2495 1.409 . S
C2489 H2481 0.930 . S
C2489 C2487 1.419 . S
C2489 C2490 1.362 . S
C2490 H2482 0.930 . S
C2490 C2489 1.362 . S
C2490 C2493 1.409 . S
C2491 H2483 0.930 . S
C2491 C2492 1.355 . S
C2491 C2493 1.415 . S
C2492 C2491 1.355 . S
C2492 C2494 1.419 . S
C2493 C2488 1.425 . S
C2493 C2490 1.409 . S
C2493 C2491 1.415 . S
C2494 H2484 0.930 . S
C2494 C2492 1.419 . S
C2494 C2495 1.362 . S
C2495 H2485 0.930 . S
C2495 C2488 1.409 . S
C2495 C2494 1.362 . S
H2496 C2502 0.930 . S
H2497 C2505 0.930 . S
H2498 C2506 0.930 . S
H2499 C2507 0.930 . S
H2500 C2510 0.930 . S
H2501 C2511 0.930 . S
C2502 H2496 0.930 . S
C2502 C2503 1.355 . S
C2502 C2504 1.415 . S
C2503 C2502 1.355 . S
C2503 C2505 1.419 . S
C2504 C2502 1.415 . S
C2504 C2509 1.425 . S
C2504 C2511 1.409 . S
C2505 H2497 0.930 . S
C2505 C2503 1.419 . S
C2505 C2506 1.362 . S
C2506 H2498 0.930 . S
C2506 C2505 1.362 . S
C2506 C2509 1.409 . S
C2507 H2499 0.930 . S
C2507 C2508 1.355 . S
C2507 C2509 1.415 . S
C2508 C2507 1.355 . S
C2508 C2510 1.419 . S
C2509 C2504 1.425 . S
C2509 C2506 1.409 . S
C2509 C2507 1.415 . S
C2510 H2500 0.930 . S
C2510 C2508 1.419 . S
C2510 C2511 1.362 . S
C2511 H2501 0.930 . S
C2511 C2504 1.409 . S
C2511 C2510 1.362 . S
H2512 C2518 0.930 . S
H2513 C2521 0.930 . S
H2514 C2522 0.930 . S
H2515 C2523 0.930 . S
H2516 C2526 0.930 . S
H2517 C2527 0.930 . S
C2518 H2512 0.930 . S
C2518 C2519 1.355 . S
C2518 C2520 1.415 . S
C2519 C2518 1.355 . S
C2519 C2521 1.419 . S
C2520 C2518 1.415 . S
C2520 C2525 1.425 . S
C2520 C2527 1.409 . S
C2521 H2513 0.930 . S
C2521 C2519 1.419 . S
C2521 C2522 1.362 . S
C2522 H2514 0.930 . S
C2522 C2521 1.362 . S
C2522 C2525 1.409 . S
C2523 H2515 0.930 . S
C2523 C2524 1.355 . S
C2523 C2525 1.415 . S
C2524 C2523 1.355 . S
C2524 C2526 1.419 . S
C2525 C2520 1.425 . S
C2525 C2522 1.409 . S
C2525 C2523 1.415 . S
C2526 H2516 0.930 . S
C2526 C2524 1.419 . S
C2526 C2527 1.362 . S
C2527 H2517 0.930 . S
C2527 C2520 1.409 . S
C2527 C2526 1.362 . S
H2528 C2534 0.930 . S
H2529 C2537 0.930 . S
H2530 C2538 0.930 . S
H2531 C2539 0.930 . S
H2532 C2542 0.930 . S
H2533 C2543 0.930 . S
C2534 H2528 0.930 . S
C2534 C2535 1.355 . S
C2534 C2536 1.415 . S
C2535 C2534 1.355 . S
C2535 C2537 1.419 . S
C2536 C2534 1.415 . S
C2536 C2541 1.425 . S
C2536 C2543 1.409 . S
C2537 H2529 0.930 . S
C2537 C2535 1.419 . S
C2537 C2538 1.362 . S
C2538 H2530 0.930 . S
C2538 C2537 1.362 . S
C2538 C2541 1.409 . S
C2539 H2531 0.930 . S
C2539 C2540 1.355 . S
C2539 C2541 1.415 . S
C2540 C2539 1.355 . S
C2540 C2542 1.419 . S
C2541 C2536 1.425 . S
C2541 C2538 1.409 . S
C2541 C2539 1.415 . S
C2542 H2532 0.930 . S
C2542 C2540 1.419 . S
C2542 C2543 1.362 . S
C2543 H2533 0.930 . S
C2543 C2536 1.409 . S
C2543 C2542 1.362 . S
H2544 C2550 0.930 . S
H2545 C2553 0.930 . S
H2546 C2554 0.930 . S
H2547 C2555 0.930 . S
H2548 C2558 0.930 . S
H2549 C2559 0.930 . S
C2550 H2544 0.930 . S
C2550 C2551 1.355 . S
C2550 C2552 1.415 . S
C2551 C2550 1.355 . S
C2551 C2553 1.419 . S
C2552 C2550 1.415 . S
C2552 C2557 1.425 . S
C2552 C2559 1.409 . S
C2553 H2545 0.930 . S
C2553 C2551 1.419 . S
C2553 C2554 1.362 . S
C2554 H2546 0.930 . S
C2554 C2553 1.362 . S
C2554 C2557 1.409 . S
C2555 H2547 0.930 . S
C2555 C2556 1.355 . S
C2555 C2557 1.415 . S
C2556 C2555 1.355 . S
C2556 C2558 1.419 . S
C2557 C2552 1.425 . S
C2557 C2554 1.409 . S
C2557 C2555 1.415 . S
C2558 H2548 0.930 . S
C2558 C2556 1.419 . S
C2558 C2559 1.362 . S
C2559 H2549 0.930 . S
C2559 C2552 1.409 . S
C2559 C2558 1.362 . S
H2560 C2566 0.930 . S
H2561 C2569 0.930 . S
H2562 C2570 0.938 . S
H2563 C2571 0.930 . S
H2564 C2574 0.930 . S
H2565 C2575 0.930 . S
C2566 H2560 0.930 . S
C2566 C2567 1.355 . S
C2566 C2568 1.415 1_545 S
C2567 C2566 1.355 . S
C2567 C2569 1.419 . S
C2568 C2566 1.415 1_565 S
C2568 C2573 1.425 . S
C2568 C2575 1.409 . S
C2569 H2561 0.930 . S
C2569 C2567 1.419 . S
C2569 C2570 1.362 . S
C2570 H2562 0.938 . S
C2570 C2569 1.362 . S
C2570 C2573 1.409 1_545 S
C2571 H2563 0.930 . S
C2571 C2572 1.355 . S
C2571 C2573 1.415 . S
C2572 C2571 1.355 . S
C2572 C2574 1.419 . S
C2573 C2568 1.425 . S
C2573 C2570 1.409 1_565 S
C2573 C2571 1.415 . S
C2574 H2564 0.930 . S
C2574 C2572 1.419 . S
C2574 C2575 1.362 . S
C2575 H2565 0.930 . S
C2575 C2568 1.409 . S
C2575 C2574 1.362 . S
H2576 C2582 0.930 . S
H2577 C2585 0.930 . S
H2578 C2586 0.930 . S
H2579 C2587 0.930 . S
H2580 C2590 0.930 . S
H2581 C2591 0.930 1_545 S
C2582 H2576 0.930 . S
C2582 C2583 1.355 . S
C2582 C2584 1.415 . S
C2583 C2582 1.355 . S
C2583 C2585 1.419 . S
C2584 C2582 1.415 . S
C2584 C2589 1.425 . S
C2584 C2591 1.409 . S
C2585 H2577 0.930 . S
C2585 C2583 1.419 . S
C2585 C2586 1.362 . S
C2586 H2578 0.930 . S
C2586 C2585 1.362 . S
C2586 C2589 1.409 . S
C2587 H2579 0.930 . S
C2587 C2588 1.355 1_565 S
C2587 C2589 1.415 . S
C2588 C2587 1.355 1_545 S
C2588 C2590 1.419 . S
C2589 C2584 1.425 . S
C2589 C2586 1.409 . S
C2589 C2587 1.415 . S
C2590 H2580 0.930 . S
C2590 C2588 1.419 . S
C2590 C2591 1.362 1_545 S
C2591 H2581 0.930 1_565 S
C2591 C2584 1.409 . S
C2591 C2590 1.362 1_565 S
H2592 C2598 0.930 . S
H2593 C2601 0.930 . S
H2594 C2602 0.930 . S
H2595 C2603 0.930 . S
H2596 C2606 0.930 . S
H2597 C2607 0.930 . S
C2598 H2592 0.930 . S
C2598 C2599 1.355 . S
C2598 C2600 1.415 . S
C2599 C2598 1.355 . S
C2599 C2601 1.419 . S
C2600 C2598 1.415 . S
C2600 C2605 1.425 . S
C2600 C2607 1.409 . S
C2601 H2593 0.930 . S
C2601 C2599 1.419 . S
C2601 C2602 1.362 . S
C2602 H2594 0.930 . S
C2602 C2601 1.362 . S
C2602 C2605 1.409 . S
C2603 H2595 0.930 . S
C2603 C2604 1.355 . S
C2603 C2605 1.415 . S
C2604 C2603 1.355 . S
C2604 C2606 1.419 . S
C2605 C2600 1.425 . S
C2605 C2602 1.409 . S
C2605 C2603 1.415 . S
C2606 H2596 0.930 . S
C2606 C2604 1.419 . S
C2606 C2607 1.362 . S
C2607 H2597 0.930 . S
C2607 C2600 1.409 . S
C2607 C2606 1.362 . S
H2608 C2614 0.930 . S
H2609 C2617 0.930 . S
H2610 C2618 0.930 . S
H2611 C2619 0.930 . S
H2612 C2622 0.930 . S
H2613 C2623 0.930 . S
C2614 H2608 0.930 . S
C2614 C2615 1.355 . S
C2614 C2616 1.415 . S
C2615 C2614 1.355 . S
C2615 C2617 1.419 . S
C2616 C2614 1.415 . S
C2616 C2621 1.425 . S
C2616 C2623 1.409 . S
C2617 H2609 0.930 . S
C2617 C2615 1.419 . S
C2617 C2618 1.362 . S
C2618 H2610 0.930 . S
C2618 C2617 1.362 . S
C2618 C2621 1.409 . S
C2619 H2611 0.930 . S
C2619 C2620 1.355 . S
C2619 C2621 1.415 . S
C2620 C2619 1.355 . S
C2620 C2622 1.419 . S
C2621 C2616 1.425 . S
C2621 C2618 1.409 . S
C2621 C2619 1.415 . S
C2622 H2612 0.930 . S
C2622 C2620 1.419 . S
C2622 C2623 1.362 . S
C2623 H2613 0.930 . S
C2623 C2616 1.409 . S
C2623 C2622 1.362 . S
H2624 C2630 0.930 . S
H2625 C2633 0.930 . S
H2626 C2634 0.930 . S
H2627 C2635 0.930 . S
H2628 C2638 0.930 . S
H2629 C2639 0.930 . S
C2630 H2624 0.930 . S
C2630 C2631 1.355 . S
C2630 C2632 1.415 . S
C2631 C2630 1.355 . S
C2631 C2633 1.419 . S
C2632 C2630 1.415 . S
C2632 C2637 1.425 . S
C2632 C2639 1.409 . S
C2633 H2625 0.930 . S
C2633 C2631 1.419 . S
C2633 C2634 1.362 . S
C2634 H2626 0.930 . S
C2634 C2633 1.362 . S
C2634 C2637 1.409 . S
C2635 H2627 0.930 . S
C2635 C2636 1.355 . S
C2635 C2637 1.415 . S
C2636 C2635 1.355 . S
C2636 C2638 1.419 . S
C2637 C2632 1.425 . S
C2637 C2634 1.409 . S
C2637 C2635 1.415 . S
C2638 H2628 0.930 . S
C2638 C2636 1.419 . S
C2638 C2639 1.362 . S
C2639 H2629 0.930 . S
C2639 C2632 1.409 . S
C2639 C2638 1.362 . S
H2640 C2646 0.939 . S
H2641 C2649 0.930 . S
H2642 C2650 0.930 . S
H2643 C2651 0.930 . S
H2644 C2654 0.930 . S
H2645 C2655 0.930 . S
C2646 H2640 0.939 . S
C2646 C2647 1.355 . S
C2646 C2648 1.415 1_545 S
C2647 C2646 1.355 . S
C2647 C2649 1.419 . S
C2648 C2646 1.415 1_565 S
C2648 C2653 1.425 . S
C2648 C2655 1.409 . S
C2649 H2641 0.930 . S
C2649 C2647 1.419 . S
C2649 C2650 1.362 . S
C2650 H2642 0.930 . S
C2650 C2649 1.362 . S
C2650 C2653 1.409 1_545 S
C2651 H2643 0.930 . S
C2651 C2652 1.355 . S
C2651 C2653 1.415 . S
C2652 C2651 1.355 . S
C2652 C2654 1.419 . S
C2653 C2648 1.425 . S
C2653 C2650 1.409 1_565 S
C2653 C2651 1.415 . S
C2654 H2644 0.930 . S
C2654 C2652 1.419 . S
C2654 C2655 1.362 . S
C2655 H2645 0.930 . S
C2655 C2648 1.409 . S
C2655 C2654 1.362 . S
H2656 C2662 0.930 . S
H2657 C2665 0.930 . S
H2658 C2666 0.930 . S
H2659 C2667 0.930 . S
H2660 C2670 0.930 . S
H2661 C2671 0.930 . S
C2662 H2656 0.930 . S
C2662 C2663 1.355 . S
C2662 C2664 1.415 . S
C2663 C2662 1.355 . S
C2663 C2665 1.419 . S
C2664 C2662 1.415 . S
C2664 C2669 1.425 . S
C2664 C2671 1.409 . S
C2665 H2657 0.930 . S
C2665 C2663 1.419 . S
C2665 C2666 1.362 . S
C2666 H2658 0.930 . S
C2666 C2665 1.362 . S
C2666 C2669 1.409 . S
C2667 H2659 0.930 . S
C2667 C2668 1.355 . S
C2667 C2669 1.415 . S
C2668 C2667 1.355 . S
C2668 C2670 1.419 . S
C2669 C2664 1.425 . S
C2669 C2666 1.409 . S
C2669 C2667 1.415 . S
C2670 H2660 0.930 . S
C2670 C2668 1.419 . S
C2670 C2671 1.362 . S
C2671 H2661 0.930 . S
C2671 C2664 1.409 . S
C2671 C2670 1.362 . S
H2672 C2678 0.930 . S
H2673 C2681 0.930 . S
H2674 C2682 0.930 . S
H2675 C2683 0.930 . S
H2676 C2686 0.930 . S
H2677 C2687 0.930 . S
C2678 H2672 0.930 . S
C2678 C2679 1.355 . S
C2678 C2680 1.415 . S
C2679 C2678 1.355 . S
C2679 C2681 1.419 . S
C2680 C2678 1.415 . S
C2680 C2685 1.425 . S
C2680 C2687 1.409 . S
C2681 H2673 0.930 . S
C2681 C2679 1.419 . S
C2681 C2682 1.362 . S
C2682 H2674 0.930 . S
C2682 C2681 1.362 . S
C2682 C2685 1.409 . S
C2683 H2675 0.930 . S
C2683 C2684 1.355 . S
C2683 C2685 1.415 . S
C2684 C2683 1.355 . S
C2684 C2686 1.419 . S
C2685 C2680 1.425 . S
C2685 C2682 1.409 . S
C2685 C2683 1.415 . S
C2686 H2676 0.930 . S
C2686 C2684 1.419 . S
C2686 C2687 1.362 . S
C2687 H2677 0.930 . S
C2687 C2680 1.409 . S
C2687 C2686 1.362 . S
H2688 C2694 0.930 . S
H2689 C2697 0.930 . S
H2690 C2698 0.930 . S
H2691 C2699 0.930 . S
H2692 C2702 0.930 . S
H2693 C2703 0.930 . S
C2694 H2688 0.930 . S
C2694 C2695 1.355 . S
C2694 C2696 1.415 . S
C2695 C2694 1.355 . S
C2695 C2697 1.419 . S
C2696 C2694 1.415 . S
C2696 C2701 1.425 . S
C2696 C2703 1.409 . S
C2697 H2689 0.930 . S
C2697 C2695 1.419 . S
C2697 C2698 1.362 . S
C2698 H2690 0.930 . S
C2698 C2697 1.362 . S
C2698 C2701 1.409 . S
C2699 H2691 0.930 . S
C2699 C2700 1.355 . S
C2699 C2701 1.415 . S
C2700 C2699 1.355 . S
C2700 C2702 1.419 . S
C2701 C2696 1.425 . S
C2701 C2698 1.409 . S
C2701 C2699 1.415 . S
C2702 H2692 0.930 . S
C2702 C2700 1.419 . S
C2702 C2703 1.362 . S
C2703 H2693 0.930 . S
C2703 C2696 1.409 . S
C2703 C2702 1.362 . S
H2704 C2710 0.930 . S
H2705 C2713 0.930 . S
H2706 C2714 0.930 . S
H2707 C2715 0.930 . S
H2708 C2718 0.930 . S
H2709 C2719 0.930 . S
C2710 H2704 0.930 . S
C2710 C2711 1.355 . S
C2710 C2712 1.415 . S
C2711 C2710 1.355 . S
C2711 C2713 1.419 . S
C2712 C2710 1.415 . S
C2712 C2717 1.425 . S
C2712 C2719 1.409 . S
C2713 H2705 0.930 . S
C2713 C2711 1.419 . S
C2713 C2714 1.362 . S
C2714 H2706 0.930 . S
C2714 C2713 1.362 . S
C2714 C2717 1.409 . S
C2715 H2707 0.930 . S
C2715 C2716 1.355 . S
C2715 C2717 1.415 . S
C2716 C2715 1.355 . S
C2716 C2718 1.419 . S
C2717 C2712 1.425 . S
C2717 C2714 1.409 . S
C2717 C2715 1.415 . S
C2718 H2708 0.930 . S
C2718 C2716 1.419 . S
C2718 C2719 1.362 . S
C2719 H2709 0.930 . S
C2719 C2712 1.409 . S
C2719 C2718 1.362 . S
H2720 C2726 0.930 . S
H2721 C2729 0.930 . S
H2722 C2730 0.930 . S
H2723 C2731 0.930 . S
H2724 C2734 0.930 . S
H2725 C2735 0.930 . S
C2726 H2720 0.930 . S
C2726 C2727 1.355 . S
C2726 C2728 1.415 . S
C2727 C2726 1.355 . S
C2727 C2729 1.419 . S
C2728 C2726 1.415 . S
C2728 C2733 1.425 . S
C2728 C2735 1.409 . S
C2729 H2721 0.930 . S
C2729 C2727 1.419 . S
C2729 C2730 1.362 . S
C2730 H2722 0.930 . S
C2730 C2729 1.362 . S
C2730 C2733 1.409 . S
C2731 H2723 0.930 . S
C2731 C2732 1.355 . S
C2731 C2733 1.415 . S
C2732 C2731 1.355 . S
C2732 C2734 1.419 . S
C2733 C2728 1.425 . S
C2733 C2730 1.409 . S
C2733 C2731 1.415 . S
C2734 H2724 0.930 . S
C2734 C2732 1.419 . S
C2734 C2735 1.362 . S
C2735 H2725 0.930 . S
C2735 C2728 1.409 . S
C2735 C2734 1.362 . S
H2736 C2742 0.930 . S
H2737 C2745 0.930 . S
H2738 C2746 0.930 . S
H2739 C2747 0.930 . S
H2740 C2750 0.930 . S
H2741 C2751 0.930 . S
C2742 H2736 0.930 . S
C2742 C2743 1.355 . S
C2742 C2744 1.415 . S
C2743 C2742 1.355 . S
C2743 C2745 1.419 . S
C2744 C2742 1.415 . S
C2744 C2749 1.425 . S
C2744 C2751 1.409 . S
C2745 H2737 0.930 . S
C2745 C2743 1.419 . S
C2745 C2746 1.362 . S
C2746 H2738 0.930 . S
C2746 C2745 1.362 . S
C2746 C2749 1.409 . S
C2747 H2739 0.930 . S
C2747 C2748 1.355 . S
C2747 C2749 1.415 . S
C2748 C2747 1.355 . S
C2748 C2750 1.419 . S
C2749 C2744 1.425 . S
C2749 C2746 1.409 . S
C2749 C2747 1.415 . S
C2750 H2740 0.930 . S
C2750 C2748 1.419 . S
C2750 C2751 1.362 . S
C2751 H2741 0.930 . S
C2751 C2744 1.409 . S
C2751 C2750 1.362 . S
H2752 C2758 0.930 . S
H2753 C2761 0.930 . S
H2754 C2762 0.930 . S
H2755 C2763 0.930 . S
H2756 C2766 0.930 . S
H2757 C2767 0.930 . S
C2758 H2752 0.930 . S
C2758 C2759 1.355 . S
C2758 C2760 1.415 . S
C2759 C2758 1.355 . S
C2759 C2761 1.419 . S
C2760 C2758 1.415 . S
C2760 C2765 1.425 . S
C2760 C2767 1.409 . S
C2761 H2753 0.930 . S
C2761 C2759 1.419 . S
C2761 C2762 1.362 . S
C2762 H2754 0.930 . S
C2762 C2761 1.362 . S
C2762 C2765 1.409 . S
C2763 H2755 0.930 . S
C2763 C2764 1.355 . S
C2763 C2765 1.415 . S
C2764 C2763 1.355 . S
C2764 C2766 1.419 . S
C2765 C2760 1.425 . S
C2765 C2762 1.409 . S
C2765 C2763 1.415 . S
C2766 H2756 0.930 . S
C2766 C2764 1.419 . S
C2766 C2767 1.362 . S
C2767 H2757 0.930 . S
C2767 C2760 1.409 . S
C2767 C2766 1.362 . S
H2768 C2774 0.930 . S
H2769 C2777 0.930 . S
H2770 C2778 0.930 . S
H2771 C2779 0.930 . S
H2772 C2782 0.930 . S
H2773 C2783 0.930 . S
C2774 H2768 0.930 . S
C2774 C2775 1.355 . S
C2774 C2776 1.415 . S
C2775 C2774 1.355 . S
C2775 C2777 1.419 . S
C2776 C2774 1.415 . S
C2776 C2781 1.425 . S
C2776 C2783 1.409 . S
C2777 H2769 0.930 . S
C2777 C2775 1.419 . S
C2777 C2778 1.362 . S
C2778 H2770 0.930 . S
C2778 C2777 1.362 . S
C2778 C2781 1.409 . S
C2779 H2771 0.930 . S
C2779 C2780 1.355 . S
C2779 C2781 1.415 . S
C2780 C2779 1.355 . S
C2780 C2782 1.419 . S
C2781 C2776 1.425 . S
C2781 C2778 1.409 . S
C2781 C2779 1.415 . S
C2782 H2772 0.930 . S
C2782 C2780 1.419 . S
C2782 C2783 1.362 . S
C2783 H2773 0.930 . S
C2783 C2776 1.409 . S
C2783 C2782 1.362 . S
H2784 C2790 0.930 . S
H2785 C2793 0.930 . S
H2786 C2794 0.930 . S
H2787 C2795 0.930 . S
H2788 C2798 0.930 . S
H2789 C2799 0.930 . S
C2790 H2784 0.930 . S
C2790 C2791 1.355 . S
C2790 C2792 1.415 . S
C2791 C2790 1.355 . S
C2791 C2793 1.419 . S
C2792 C2790 1.415 . S
C2792 C2797 1.425 . S
C2792 C2799 1.409 . S
C2793 H2785 0.930 . S
C2793 C2791 1.419 . S
C2793 C2794 1.362 . S
C2794 H2786 0.930 . S
C2794 C2793 1.362 . S
C2794 C2797 1.409 . S
C2795 H2787 0.930 . S
C2795 C2796 1.355 . S
C2795 C2797 1.415 . S
C2796 C2795 1.355 . S
C2796 C2798 1.419 . S
C2797 C2792 1.425 . S
C2797 C2794 1.409 . S
C2797 C2795 1.415 . S
C2798 H2788 0.930 . S
C2798 C2796 1.419 . S
C2798 C2799 1.362 . S
C2799 H2789 0.930 . S
C2799 C2792 1.409 . S
C2799 C2798 1.362 . S
H2800 C2806 0.930 . S
H2801 C2809 0.930 . S
H2802 C2810 0.930 . S
H2803 C2811 0.930 . S
H2804 C2814 0.930 . S
H2805 C2815 0.930 . S
C2806 H2800 0.930 . S
C2806 C2807 1.355 . S
C2806 C2808 1.415 . S
C2807 C2806 1.355 . S
C2807 C2809 1.419 . S
C2808 C2806 1.415 . S
C2808 C2813 1.425 . S
C2808 C2815 1.409 . S
C2809 H2801 0.930 . S
C2809 C2807 1.419 . S
C2809 C2810 1.362 . S
C2810 H2802 0.930 . S
C2810 C2809 1.362 . S
C2810 C2813 1.409 . S
C2811 H2803 0.930 . S
C2811 C2812 1.355 . S
C2811 C2813 1.415 . S
C2812 C2811 1.355 . S
C2812 C2814 1.419 . S
C2813 C2808 1.425 . S
C2813 C2810 1.409 . S
C2813 C2811 1.415 . S
C2814 H2804 0.930 . S
C2814 C2812 1.419 . S
C2814 C2815 1.362 . S
C2815 H2805 0.930 . S
C2815 C2808 1.409 . S
C2815 C2814 1.362 . S
H2816 C2822 0.930 . S
H2817 C2825 0.930 . S
H2818 C2826 0.930 . S
H2819 C2827 0.930 . S
H2820 C2830 0.930 . S
H2821 C2831 0.930 . S
C2822 H2816 0.930 . S
C2822 C2823 1.355 . S
C2822 C2824 1.415 . S
C2823 C2822 1.355 . S
C2823 C2825 1.419 . S
C2824 C2822 1.415 . S
C2824 C2829 1.425 . S
C2824 C2831 1.409 . S
C2825 H2817 0.930 . S
C2825 C2823 1.419 . S
C2825 C2826 1.362 . S
C2826 H2818 0.930 . S
C2826 C2825 1.362 . S
C2826 C2829 1.409 . S
C2827 H2819 0.930 . S
C2827 C2828 1.355 . S
C2827 C2829 1.415 . S
C2828 C2827 1.355 . S
C2828 C2830 1.419 . S
C2829 C2824 1.425 . S
C2829 C2826 1.409 . S
C2829 C2827 1.415 . S
C2830 H2820 0.930 . S
C2830 C2828 1.419 . S
C2830 C2831 1.362 . S
C2831 H2821 0.930 . S
C2831 C2824 1.409 . S
C2831 C2830 1.362 . S
H2832 C2838 0.930 . S
H2833 C2841 0.930 . S
H2834 C2842 0.930 . S
H2835 C2843 0.930 . S
H2836 C2846 0.930 . S
H2837 C2847 0.930 . S
C2838 H2832 0.930 . S
C2838 C2839 1.355 . S
C2838 C2840 1.415 . S
C2839 C2838 1.355 . S
C2839 C2841 1.419 . S
C2840 C2838 1.415 . S
C2840 C2845 1.425 . S
C2840 C2847 1.409 . S
C2841 H2833 0.930 . S
C2841 C2839 1.419 . S
C2841 C2842 1.362 . S
C2842 H2834 0.930 . S
C2842 C2841 1.362 . S
C2842 C2845 1.409 . S
C2843 H2835 0.930 . S
C2843 C2844 1.355 . S
C2843 C2845 1.415 . S
C2844 C2843 1.355 . S
C2844 C2846 1.419 . S
C2845 C2840 1.425 . S
C2845 C2842 1.409 . S
C2845 C2843 1.415 . S
C2846 H2836 0.930 . S
C2846 C2844 1.419 . S
C2846 C2847 1.362 . S
C2847 H2837 0.930 . S
C2847 C2840 1.409 . S
C2847 C2846 1.362 . S
H2848 C2854 0.930 . S
H2849 C2857 0.930 . S
H2850 C2858 0.930 . S
H2851 C2859 0.930 . S
H2852 C2862 0.930 . S
H2853 C2863 0.930 . S
C2854 H2848 0.930 . S
C2854 C2855 1.355 . S
C2854 C2856 1.415 . S
C2855 C2854 1.355 . S
C2855 C2857 1.419 . S
C2856 C2854 1.415 . S
C2856 C2861 1.425 . S
C2856 C2863 1.409 . S
C2857 H2849 0.930 . S
C2857 C2855 1.419 . S
C2857 C2858 1.362 . S
C2858 H2850 0.930 . S
C2858 C2857 1.362 . S
C2858 C2861 1.409 . S
C2859 H2851 0.930 . S
C2859 C2860 1.355 . S
C2859 C2861 1.415 . S
C2860 C2859 1.355 . S
C2860 C2862 1.419 . S
C2861 C2856 1.425 . S
C2861 C2858 1.409 . S
C2861 C2859 1.415 . S
C2862 H2852 0.930 . S
C2862 C2860 1.419 . S
C2862 C2863 1.362 . S
C2863 H2853 0.930 . S
C2863 C2856 1.409 . S
C2863 C2862 1.362 . S
H2864 C2870 0.930 . S
H2865 C2873 0.930 . S
H2866 C2874 0.930 . S
H2867 C2875 0.930 . S
H2868 C2878 0.930 . S
H2869 C2879 0.930 . S
C2870 H2864 0.930 . S
C2870 C2871 1.355 . S
C2870 C2872 1.415 . S
C2871 C2870 1.355 . S
C2871 C2873 1.419 . S
C2872 C2870 1.415 . S
C2872 C2877 1.425 . S
C2872 C2879 1.409 . S
C2873 H2865 0.930 . S
C2873 C2871 1.419 . S
C2873 C2874 1.362 . S
C2874 H2866 0.930 . S
C2874 C2873 1.362 . S
C2874 C2877 1.409 . S
C2875 H2867 0.930 . S
C2875 C2876 1.355 . S
C2875 C2877 1.415 . S
C2876 C2875 1.355 . S
C2876 C2878 1.419 . S
C2877 C2872 1.425 . S
C2877 C2874 1.409 . S
C2877 C2875 1.415 . S
C2878 H2868 0.930 . S
C2878 C2876 1.419 . S
C2878 C2879 1.362 . S
C2879 H2869 0.930 . S
C2879 C2872 1.409 . S
C2879 C2878 1.362 . S
H2880 C2886 0.930 . S
H2881 C2889 0.930 . S
H2882 C2890 0.930 . S
H2883 C2891 0.930 1_655 S
H2884 C2894 0.930 . S
H2885 C2895 0.930 . S
C2886 H2880 0.930 . S
C2886 C2887 1.355 . S
C2886 C2888 1.415 . S
C2887 C2886 1.355 . S
C2887 C2889 1.419 1_455 S
C2888 C2886 1.415 . S
C2888 C2893 1.425 . S
C2888 C2895 1.409 . S
C2889 H2881 0.930 . S
C2889 C2887 1.419 1_655 S
C2889 C2890 1.362 . S
C2890 H2882 0.930 . S
C2890 C2889 1.362 . S
C2890 C2893 1.409 1_655 S
C2891 H2883 0.930 1_455 S
C2891 C2892 1.355 . S
C2891 C2893 1.415 . S
C2892 C2891 1.355 . S
C2892 C2894 1.419 . S
C2893 C2888 1.425 . S
C2893 C2890 1.409 1_455 S
C2893 C2891 1.415 . S
C2894 H2884 0.930 . S
C2894 C2892 1.419 . S
C2894 C2895 1.362 . S
C2895 H2885 0.930 . S
C2895 C2888 1.409 . S
C2895 C2894 1.362 . S
H2896 C2902 0.930 . S
H2897 C2905 0.930 . S
H2898 C2906 0.930 . S
H2899 C2907 0.930 . S
H2900 C2910 0.930 . S
H2901 C2911 0.930 . S
C2902 H2896 0.930 . S
C2902 C2903 1.355 . S
C2902 C2904 1.415 . S
C2903 C2902 1.355 . S
C2903 C2905 1.419 . S
C2904 C2902 1.415 . S
C2904 C2909 1.425 . S
C2904 C2911 1.409 . S
C2905 H2897 0.930 . S
C2905 C2903 1.419 . S
C2905 C2906 1.362 . S
C2906 H2898 0.930 . S
C2906 C2905 1.362 . S
C2906 C2909 1.409 . S
C2907 H2899 0.930 . S
C2907 C2908 1.355 . S
C2907 C2909 1.415 . S
C2908 C2907 1.355 . S
C2908 C2910 1.419 . S
C2909 C2904 1.425 . S
C2909 C2906 1.409 . S
C2909 C2907 1.415 . S
C2910 H2900 0.930 . S
C2910 C2908 1.419 . S
C2910 C2911 1.362 . S
C2911 H2901 0.930 . S
C2911 C2904 1.409 . S
C2911 C2910 1.362 . S
H2912 C2918 0.930 . S
H2913 C2921 0.930 . S
H2914 C2922 0.930 . S
H2915 C2923 0.930 . S
H2916 C2926 0.930 . S
H2917 C2927 0.930 . S
C2918 H2912 0.930 . S
C2918 C2919 1.355 . S
C2918 C2920 1.415 . S
C2919 C2918 1.355 . S
C2919 C2921 1.419 . S
C2920 C2918 1.415 . S
C2920 C2925 1.425 . S
C2920 C2927 1.409 . S
C2921 H2913 0.930 . S
C2921 C2919 1.419 . S
C2921 C2922 1.362 . S
C2922 H2914 0.930 . S
C2922 C2921 1.362 . S
C2922 C2925 1.409 . S
C2923 H2915 0.930 . S
C2923 C2924 1.355 . S
C2923 C2925 1.415 . S
C2924 C2923 1.355 . S
C2924 C2926 1.419 . S
C2925 C2920 1.425 . S
C2925 C2922 1.409 . S
C2925 C2923 1.415 . S
C2926 H2916 0.930 . S
C2926 C2924 1.419 . S
C2926 C2927 1.362 . S
C2927 H2917 0.930 . S
C2927 C2920 1.409 . S
C2927 C2926 1.362 . S
H2928 C2934 0.930 . S
H2929 C2937 0.930 . S
H2930 C2938 0.930 . S
H2931 C2939 0.930 . S
H2932 C2942 0.930 . S
H2933 C2943 0.930 . S
C2934 H2928 0.930 . S
C2934 C2935 1.355 . S
C2934 C2936 1.415 . S
C2935 C2934 1.355 . S
C2935 C2937 1.419 . S
C2936 C2934 1.415 . S
C2936 C2941 1.425 . S
C2936 C2943 1.409 1_565 S
C2937 H2929 0.930 . S
C2937 C2935 1.419 . S
C2937 C2938 1.362 . S
C2938 H2930 0.930 . S
C2938 C2937 1.362 . S
C2938 C2941 1.409 . S
C2939 H2931 0.930 . S
C2939 C2940 1.355 1_565 S
C2939 C2941 1.415 . S
C2940 C2939 1.355 1_545 S
C2940 C2942 1.419 . S
C2941 C2936 1.425 . S
C2941 C2938 1.409 . S
C2941 C2939 1.415 . S
C2942 H2932 0.930 . S
C2942 C2940 1.419 . S
C2942 C2943 1.362 . S
C2943 H2933 0.930 . S
C2943 C2936 1.409 1_545 S
C2943 C2942 1.362 . S
H2944 C2950 0.930 . S
H2945 C2953 0.930 . S
H2946 C2954 0.930 . S
H2947 C2955 0.930 . S
H2948 C2958 0.930 . S
H2949 C2959 0.930 . S
C2950 H2944 0.930 . S
C2950 C2951 1.355 . S
C2950 C2952 1.415 . S
C2951 C2950 1.355 . S
C2951 C2953 1.419 . S
C2952 C2950 1.415 . S
C2952 C2957 1.425 . S
C2952 C2959 1.409 . S
C2953 H2945 0.930 . S
C2953 C2951 1.419 . S
C2953 C2954 1.362 . S
C2954 H2946 0.930 . S
C2954 C2953 1.362 . S
C2954 C2957 1.409 . S
C2955 H2947 0.930 . S
C2955 C2956 1.355 . S
C2955 C2957 1.415 . S
C2956 C2955 1.355 . S
C2956 C2958 1.419 . S
C2957 C2952 1.425 . S
C2957 C2954 1.409 . S
C2957 C2955 1.415 . S
C2958 H2948 0.930 . S
C2958 C2956 1.419 . S
C2958 C2959 1.362 . S
C2959 H2949 0.930 . S
C2959 C2952 1.409 . S
C2959 C2958 1.362 . S
H2960 C2966 0.930 . S
H2961 C2969 0.930 . S
H2962 C2970 0.930 . S
H2963 C2971 0.930 . S
H2964 C2974 0.930 . S
H2965 C2975 0.930 . S
C2966 H2960 0.930 . S
C2966 C2967 1.365 . S
C2966 C2968 1.415 . S
C2967 C2966 1.365 . S
C2967 C2969 1.400 1_556 S
C2968 C2966 1.415 . S
C2968 C2973 1.425 1_556 S
C2968 C2975 1.409 . S
C2969 H2961 0.930 . S
C2969 C2967 1.400 1_554 S
C2969 C2970 1.362 . S
C2970 H2962 0.930 . S
C2970 C2969 1.362 . S
C2970 C2973 1.409 . S
C2971 H2963 0.930 . S
C2971 C2972 1.355 . S
C2971 C2973 1.415 . S
C2972 C2971 1.355 . S
C2972 C2974 1.419 1_554 S
C2973 C2968 1.425 1_554 S
C2973 C2970 1.409 . S
C2973 C2971 1.415 . S
C2974 H2964 0.930 . S
C2974 C2972 1.419 1_556 S
C2974 C2975 1.362 . S
C2975 H2965 0.930 . S
C2975 C2968 1.409 . S
C2975 C2974 1.362 . S
H2976 C2982 0.930 . S
H2977 C2985 0.930 . S
H2978 C2986 0.930 . S
H2979 C2987 0.930 . S
H2980 C2990 0.930 . S
H2981 C2991 0.930 . S
C2982 H2976 0.930 . S
C2982 C2983 1.355 . S
C2982 C2984 1.415 . S
C2983 C2982 1.355 . S
C2983 C2985 1.419 . S
C2984 C2982 1.415 . S
C2984 C2989 1.425 . S
C2984 C2991 1.409 . S
C2985 H2977 0.930 . S
C2985 C2983 1.419 . S
C2985 C2986 1.362 . S
C2986 H2978 0.930 . S
C2986 C2985 1.362 . S
C2986 C2989 1.409 . S
C2987 H2979 0.930 . S
C2987 C2988 1.355 . S
C2987 C2989 1.415 . S
C2988 C2987 1.355 . S
C2988 C2990 1.419 . S
C2989 C2984 1.425 . S
C2989 C2986 1.409 . S
C2989 C2987 1.415 . S
C2990 H2980 0.930 . S
C2990 C2988 1.419 . S
C2990 C2991 1.362 . S
C2991 H2981 0.930 . S
C2991 C2984 1.409 . S
C2991 C2990 1.362 . S
H2992 C2998 0.930 . S
H2993 C3001 0.930 . S
H2994 C3002 0.930 . S
H2995 C3003 0.930 . S
H2996 C3006 0.930 . S
H2997 C3007 0.930 . S
C2998 H2992 0.930 . S
C2998 C2999 1.355 . S
C2998 C3000 1.415 . S
C2999 C2998 1.355 . S
C2999 C3001 1.419 . S
C3000 C2998 1.415 . S
C3000 C3005 1.425 . S
C3000 C3007 1.409 . S
C3001 H2993 0.930 . S
C3001 C2999 1.419 . S
C3001 C3002 1.362 . S
C3002 H2994 0.930 . S
C3002 C3001 1.362 . S
C3002 C3005 1.409 . S
C3003 H2995 0.930 . S
C3003 C3004 1.355 . S
C3003 C3005 1.415 . S
C3004 C3003 1.355 . S
C3004 C3006 1.419 . S
C3005 C3000 1.425 . S
C3005 C3002 1.409 . S
C3005 C3003 1.415 . S
C3006 H2996 0.930 . S
C3006 C3004 1.419 . S
C3006 C3007 1.362 . S
C3007 H2997 0.930 . S
C3007 C3000 1.409 . S
C3007 C3006 1.362 . S
H3008 C3014 0.930 . S
H3009 C3017 0.930 . S
H3010 C3018 0.930 . S
H3011 C3019 0.930 . S
H3012 C3022 0.930 . S
H3013 C3023 0.930 . S
C3014 H3008 0.930 . S
C3014 C3015 1.355 . S
C3014 C3016 1.415 . S
C3015 C3014 1.355 . S
C3015 C3017 1.419 . S
C3016 C3014 1.415 . S
C3016 C3021 1.425 . S
C3016 C3023 1.409 . S
C3017 H3009 0.930 . S
C3017 C3015 1.419 . S
C3017 C3018 1.362 . S
C3018 H3010 0.930 . S
C3018 C3017 1.362 . S
C3018 C3021 1.409 . S
C3019 H3011 0.930 . S
C3019 C3020 1.355 . S
C3019 C3021 1.415 . S
C3020 C3019 1.355 . S
C3020 C3022 1.419 . S
C3021 C3016 1.425 . S
C3021 C3018 1.409 . S
C3021 C3019 1.415 . S
C3022 H3012 0.930 . S
C3022 C3020 1.419 . S
C3022 C3023 1.362 . S
C3023 H3013 0.930 . S
C3023 C3016 1.409 . S
C3023 C3022 1.362 . S
H3024 C3030 0.930 . S
H3025 C3033 0.930 . S
H3026 C3034 0.930 . S
H3027 C3035 0.930 . S
H3028 C3038 0.930 . S
H3029 C3039 0.930 . S
C3030 H3024 0.930 . S
C3030 C3031 1.355 . S
C3030 C3032 1.415 . S
C3031 C3030 1.355 . S
C3031 C3033 1.419 . S
C3032 C3030 1.415 . S
C3032 C3037 1.425 . S
C3032 C3039 1.409 . S
C3033 H3025 0.930 . S
C3033 C3031 1.419 . S
C3033 C3034 1.362 . S
C3034 H3026 0.930 . S
C3034 C3033 1.362 . S
C3034 C3037 1.409 . S
C3035 H3027 0.930 . S
C3035 C3036 1.355 . S
C3035 C3037 1.415 . S
C3036 C3035 1.355 . S
C3036 C3038 1.419 . S
C3037 C3032 1.425 . S
C3037 C3034 1.409 . S
C3037 C3035 1.415 . S
C3038 H3028 0.930 . S
C3038 C3036 1.419 . S
C3038 C3039 1.362 . S
C3039 H3029 0.930 . S
C3039 C3032 1.409 . S
C3039 C3038 1.362 . S
C1511 C255 1.759 . S
C1516 C886 1.748 1_556 S
C1527 C147 1.236 . S
C1532 C906 1.216 . S
C1543 C184 0.721 . S
C1548 C953 0.710 . S
C1564 C1010 1.069 . S
C1559 C220 1.078 . S
C1575 C40 2.536 . S
C1580 C1027 2.524 1_565 S
C1596 C1086 1.869 . S
C1591 C74 1.896 . S
C1612 C1119 2.721 . S
C1607 C110 2.706 . S
C1623 C14 2.437 . S
C1628 C1166 2.439 . S
C1644 C879 1.665 . S
C1639 C579 1.603 . S
C1655 C616 1.621 . S
C1660 C907 1.619 . S
C1676 C946 0.673 . S
C1671 C687 0.616 . S
C1692 C1006 2.240 . S
C1687 C436 2.217 . S
C1703 C580 0.554 . S
C1708 C1033 0.589 . S
C1724 C1079 2.296 . S
C1719 C615 2.315 . S
C1740 C1130 0.731 . S
C1735 C688 0.765 . S
C1756 C1159 2.360 . S
C1751 C435 2.345 . S
C1772 C890 1.772 . S
C1767 C410 1.812 . S
C1783 C722 2.237 . S
C1788 C1186 2.225 . S
C1804 C1250 1.469 . S
C1799 C842 1.509 . S
C1820 C1286 1.442 1_655 S
C1815 C794 1.487 . S
C1831 C302 1.591 . S
C1836 C1170 1.529 . S
C1847 C338 2.562 . S
C1852 C947 2.598 . S
C1863 C830 1.467 . S
C1868 C1319 1.523 . S
C1884 C1353 0.535 . S
C1879 C758 0.470 . S
C1900 C867 1.846 . S
C1895 C158 1.702 . S
C1916 C1359 1.350 . S
C1911 C254 1.350 . S
C1927 C218 0.720 . S
C1932 C970 0.705 . S
C1943 C194 1.033 . S
C1948 C1313 1.135 . S
C1964 C1046 2.486 . S
C1959 C3 2.494 . S
C1975 C111 1.821 . S
C1980 C1227 1.810 . S
C1996 C1106 2.586 1_566 S
C1991 C76 2.598 . S
C2012 C1387 2.543 . S
C2007 C50 2.486 1_655 S
C2028 C866 1.668 . S
C2023 C364 1.654 . S
C2044 C1366 1.508 . S
C2039 C795 1.500 . S
C2055 C292 0.675 . S
C2060 C959 0.655 . S
C2071 C723 2.150 . S
C2076 C1307 2.164 . S
C2087 C363 0.575 . S
C2092 C1050 0.596 . S
C2108 C1226 2.278 . S
C2103 C796 2.268 . S
C2119 C291 0.660 . S
C2124 C1113 0.658 . S
C2135 C724 2.335 . S
C2140 C1386 2.322 . S
C2151 C482 1.775 . S
C2156 C873 1.887 . S
C2167 C434 2.198 . S
C2172 C1199 2.185 . S
C2183 C662 1.228 . S
C2188 C1073 1.396 . S
C2199 C614 1.499 . S
C2204 C1267 1.498 . S
C2220 C1393 1.473 . S
C2215 C698 1.264 . S
C2231 C554 2.509 . S
C2236 C966 2.597 1_565 S
C2252 C986 1.446 . S
C2247 C650 1.385 . S
C2268 C930 0.482 . S
C2263 C506 0.459 . S
C2279 C183 1.819 . S
C2284 C1446 1.816 . S
C2300 C1346 1.314 . S
C2295 C219 1.324 . S
C2311 C256 0.682 . S
C2316 C1473 0.686 . S
C2327 C148 1.149 . S
C2332 C1330 1.154 . S
C2343 C122 2.557 . S
C2348 C1187 2.602 . S
C2364 C1246 1.824 . S
C2359 C2 1.854 1_655 S
C2380 C1279 2.593 . S
C2375 C39 2.598 . S
C2396 C1406 2.468 . S
C2391 C86 2.457 . S
C2412 C1439 1.646 . S
C2407 C651 1.624 . S
C2423 C472 1.600 . S
C2428 C1347 1.579 . S
C2444 C1466 0.623 . S
C2439 C507 0.631 . S
C2460 C1326 2.236 . S
C2455 C544 2.206 . S
C2476 C1193 0.610 . S
C2471 C652 0.537 . S
C2487 C471 2.322 . S
C2492 C1239 2.302 . S
C2508 C1290 0.811 . S
C2503 C508 0.798 . S
C2519 C543 2.356 . S
C2524 C1399 2.360 . S
C2540 C1450 1.814 . S
C2535 C806 1.863 . S
C2551 C326 2.230 . S
C2556 C1026 2.225 . S
C2572 C1090 1.440 . S
C2567 C374 1.480 . S
C2588 C1126 1.518 . S
C2583 C398 1.513 . S
C2604 C1410 1.403 . S
C2599 C770 1.470 . S
C2615 C734 2.564 . S
C2620 C1467 2.598 1_655 S
C2636 C999 1.574 . S
C2631 C362 1.545 . S
C2652 C913 0.536 . S
C2647 C290 0.514 . S
C2663 C230 1.655 . S
C2668 C1427 1.840 . S
C2684 C919 1.253 . S
C2679 C182 1.259 . S
C2695 C146 0.784 . S
C2700 C1490 0.795 . S
C2711 C266 1.078 . S
C2716 C993 1.109 . S
C2727 C75 2.542 . S
C2732 C1206 2.517 1_556 S
C2748 C1067 1.924 . S
C2743 C38 1.936 . S
C2759 C4 2.581 . S
C2764 C1266 2.587 . S
C2775 C112 2.463 . S
C2780 C1147 2.437 . S
C2796 C1426 1.669 . S
C2791 C832 1.661 . S
C2807 C399 1.516 . S
C2812 C926 1.474 . S
C2828 C1479 0.636 . S
C2823 C760 0.641 . S
C2839 C327 2.166 . S
C2844 C987 2.168 . S
C2855 C831 0.566 . S
C2860 C1210 0.583 . S
C2876 C1066 2.284 . S
C2871 C400 2.276 . S
C2887 C759 0.683 . S
C2892 C1273 0.716 . S
C2908 C1146 2.322 . S
C2903 C328 2.330 . S
C2924 C1433 1.894 . S
C2919 C626 1.776 . S
C2940 C1039 2.217 1_655 S
C2935 C542 2.223 . S
C2951 C590 1.180 . S
C2956 C1233 1.330 . S
C2972 C1107 1.482 . S
C2967 C470 1.477 . S
C2983 C518 1.318 . S
C2988 C1153 1.513 . S
C2999 C446 2.552 . S
C3004 C1486 2.607 . S
C3020 C1306 1.490 . S
C3015 C578 1.465 . S
C3036 C1370 0.592 . S
C3031 C686 0.541 . S
