# Generated by pormake.
# Topology ocu, (6,8)-cn, num edge types: 1
# Building blocks:
#     Node 0, Type 0, BuildingBlock: CUWYAW_clean_sbu_0, # of connection points: 6
#     Node 1, Type 0, BuildingBlock: CUWYAW_clean_sbu_0, # of connection points: 6
#     Node 2, Type 0, BuildingBlock: CUWYAW_clean_sbu_0, # of connection points: 6
#     Node 3, Type 0, BuildingBlock: CUWYAW_clean_sbu_0, # of connection points: 6
#     Node 4, Type 0, BuildingBlock: CUWYAW_clean_sbu_0, # of connection points: 6
#     Node 5, Type 0, BuildingBlock: CUWYAW_clean_sbu_0, # of connection points: 6
#     Node 6, Type 0, BuildingBlock: CUWYAW_clean_sbu_0, # of connection points: 6
#     Node 7, Type 0, BuildingBlock: CUWYAW_clean_sbu_0, # of connection points: 6
#     Node 8, Type 1, BuildingBlock: TAGTUT_clean_sbu_1, # of connection points: 8
#     Node 9, Type 1, BuildingBlock: TAGTUT_clean_sbu_1, # of connection points: 8
#     Node 10, Type 1, BuildingBlock: TAGTUT_clean_sbu_1, # of connection points: 8
#     Node 11, Type 1, BuildingBlock: TAGTUT_clean_sbu_1, # of connection points: 8
#     Node 12, Type 1, BuildingBlock: TAGTUT_clean_sbu_1, # of connection points: 8
#     Node 13, Type 1, BuildingBlock: TAGTUT_clean_sbu_1, # of connection points: 8
#     Edge 14, Type (0, 1), BuildingBlock: AJUNOK_clean_linker_0, # of connection points: 2
#     Edge 15, Type (0, 1), BuildingBlock: AJUNOK_clean_linker_0, # of connection points: 2
#     Edge 16, Type (0, 1), BuildingBlock: AJUNOK_clean_linker_0, # of connection points: 2
#     Edge 17, Type (0, 1), BuildingBlock: AJUNOK_clean_linker_0, # of connection points: 2
#     Edge 18, Type (0, 1), BuildingBlock: AJUNOK_clean_linker_0, # of connection points: 2
#     Edge 19, Type (0, 1), BuildingBlock: AJUNOK_clean_linker_0, # of connection points: 2
#     Edge 20, Type (0, 1), BuildingBlock: AJUNOK_clean_linker_0, # of connection points: 2
#     Edge 21, Type (0, 1), BuildingBlock: AJUNOK_clean_linker_0, # of connection points: 2
#     Edge 22, Type (0, 1), BuildingBlock: AJUNOK_clean_linker_0, # of connection points: 2
#     Edge 23, Type (0, 1), BuildingBlock: AJUNOK_clean_linker_0, # of connection points: 2
#     Edge 24, Type (0, 1), BuildingBlock: AJUNOK_clean_linker_0, # of connection points: 2
#     Edge 25, Type (0, 1), BuildingBlock: AJUNOK_clean_linker_0, # of connection points: 2
#     Edge 26, Type (0, 1), BuildingBlock: AJUNOK_clean_linker_0, # of connection points: 2
#     Edge 27, Type (0, 1), BuildingBlock: AJUNOK_clean_linker_0, # of connection points: 2
#     Edge 28, Type (0, 1), BuildingBlock: AJUNOK_clean_linker_0, # of connection points: 2
#     Edge 29, Type (0, 1), BuildingBlock: AJUNOK_clean_linker_0, # of connection points: 2
#     Edge 30, Type (0, 1), BuildingBlock: AJUNOK_clean_linker_0, # of connection points: 2
#     Edge 31, Type (0, 1), BuildingBlock: AJUNOK_clean_linker_0, # of connection points: 2
#     Edge 32, Type (0, 1), BuildingBlock: AJUNOK_clean_linker_0, # of connection points: 2
#     Edge 33, Type (0, 1), BuildingBlock: AJUNOK_clean_linker_0, # of connection points: 2
#     Edge 34, Type (0, 1), BuildingBlock: AJUNOK_clean_linker_0, # of connection points: 2
#     Edge 35, Type (0, 1), BuildingBlock: AJUNOK_clean_linker_0, # of connection points: 2
#     Edge 36, Type (0, 1), BuildingBlock: AJUNOK_clean_linker_0, # of connection points: 2
#     Edge 37, Type (0, 1), BuildingBlock: AJUNOK_clean_linker_0, # of connection points: 2
#     Edge 38, Type (0, 1), BuildingBlock: AJUNOK_clean_linker_0, # of connection points: 2
#     Edge 39, Type (0, 1), BuildingBlock: AJUNOK_clean_linker_0, # of connection points: 2
#     Edge 40, Type (0, 1), BuildingBlock: AJUNOK_clean_linker_0, # of connection points: 2
#     Edge 41, Type (0, 1), BuildingBlock: AJUNOK_clean_linker_0, # of connection points: 2
#     Edge 42, Type (0, 1), BuildingBlock: AJUNOK_clean_linker_0, # of connection points: 2
#     Edge 43, Type (0, 1), BuildingBlock: AJUNOK_clean_linker_0, # of connection points: 2
#     Edge 44, Type (0, 1), BuildingBlock: AJUNOK_clean_linker_0, # of connection points: 2
#     Edge 45, Type (0, 1), BuildingBlock: AJUNOK_clean_linker_0, # of connection points: 2
#     Edge 46, Type (0, 1), BuildingBlock: AJUNOK_clean_linker_0, # of connection points: 2
#     Edge 47, Type (0, 1), BuildingBlock: AJUNOK_clean_linker_0, # of connection points: 2
#     Edge 48, Type (0, 1), BuildingBlock: AJUNOK_clean_linker_0, # of connection points: 2
#     Edge 49, Type (0, 1), BuildingBlock: AJUNOK_clean_linker_0, # of connection points: 2
#     Edge 50, Type (0, 1), BuildingBlock: AJUNOK_clean_linker_0, # of connection points: 2
#     Edge 51, Type (0, 1), BuildingBlock: AJUNOK_clean_linker_0, # of connection points: 2
#     Edge 52, Type (0, 1), BuildingBlock: AJUNOK_clean_linker_0, # of connection points: 2
#     Edge 53, Type (0, 1), BuildingBlock: AJUNOK_clean_linker_0, # of connection points: 2
#     Edge 54, Type (0, 1), BuildingBlock: AJUNOK_clean_linker_0, # of connection points: 2
#     Edge 55, Type (0, 1), BuildingBlock: AJUNOK_clean_linker_0, # of connection points: 2
#     Edge 56, Type (0, 1), BuildingBlock: AJUNOK_clean_linker_0, # of connection points: 2
#     Edge 57, Type (0, 1), BuildingBlock: AJUNOK_clean_linker_0, # of connection points: 2
#     Edge 58, Type (0, 1), BuildingBlock: AJUNOK_clean_linker_0, # of connection points: 2
#     Edge 59, Type (0, 1), BuildingBlock: AJUNOK_clean_linker_0, # of connection points: 2
#     Edge 60, Type (0, 1), BuildingBlock: AJUNOK_clean_linker_0, # of connection points: 2
#     Edge 61, Type (0, 1), BuildingBlock: AJUNOK_clean_linker_0, # of connection points: 2
# Relax obj value: 0.206
# Max RMSD: 0.231
# Mean RMSD: 0.132
data_MOF--net-ocu--node1-CUWYAW_clean_sbu_0--node2-TAGTUT_clean_sbu_1--edge1-AJUNOK_clean_linker_0
_symmetry_space_group_name_H-M    P1
_symmetry_Int_Tables_number       1
_symmetry_cell_setting            triclinic
loop_
_symmetry_equiv_pos_as_xyz
'x, y, z'
_cell_length_a     32.509783
_cell_length_b     31.310581
_cell_length_c     30.888459
_cell_angle_alpha  83.034597
_cell_angle_beta   105.08929
_cell_angle_gamma 113.94362
loop_
_atom_site_label
_atom_site_type_symbol
_atom_site_fract_x
_atom_site_fract_y
_atom_site_fract_z
_atom_type_partial_charge
C0 C 0.37121 0.39813 0.38637 0.0
Eu1 Eu 0.32871 0.32569 0.33423 0.0
C2 C 0.3575 0.43052 0.40347 0.0
C3 C 0.37086 0.4387 0.44956 0.0
C4 C 0.34972 0.46029 0.46812 0.0
C5 C 0.31523 0.47398 0.44057 0.0
C6 C 0.30524 0.46992 0.39393 0.0
C7 C 0.32626 0.44821 0.37541 0.0
C8 C 0.3684 0.34156 0.25977 0.0
C9 C 0.23716 0.33793 0.27076 0.0
C10 C 0.23642 0.18834 0.23423 0.0
Eu11 Eu 0.27764 0.25978 0.28781 0.0
C12 C 0.24699 0.17481 0.19619 0.0
C13 C 0.23763 0.12772 0.19102 0.0
C14 C 0.25563 0.11529 0.1605 0.0
C15 C 0.28297 0.14996 0.13483 0.0
C16 C 0.28929 0.1967 0.13773 0.0
C17 C 0.27169 0.20914 0.16847 0.0
C18 C 0.23783 0.24128 0.36273 0.0
C19 C 0.37406 0.25252 0.34758 0.0
O20 O 0.35477 0.3552 0.40114 0.0
O21 O 0.3684 0.40033 0.3435 0.0
O22 O 0.38928 0.341 0.30146 0.0
O23 O 0.32495 0.32748 0.25849 0.0
O24 O 0.26677 0.34947 0.31003 0.0
O25 O 0.23877 0.30474 0.24996 0.0
O26 O 0.22653 0.22519 0.22826 0.0
O27 O 0.26503 0.18865 0.27258 0.0
O28 O 0.21691 0.24147 0.32118 0.0
O29 O 0.28134 0.25662 0.36348 0.0
O30 O 0.34205 0.2392 0.30975 0.0
O31 O 0.37335 0.28573 0.3689 0.0
H32 H 0.39502 0.42529 0.47154 0.0
H33 H 0.35741 0.46249 0.50428 0.0
H34 H 0.27875 0.48042 0.37223 0.0
H35 H 0.31581 0.44263 0.33961 0.0
H36 H 0.21889 0.10096 0.2125 0.0
H37 H 0.25104 0.07915 0.15941 0.0
H38 H 0.3103 0.22394 0.1182 0.0
H39 H 0.27957 0.24579 0.17227 0.0
C40 C 0.92549 0.35538 0.27568 0.0
Eu41 Eu 0.8405 0.31324 0.28332 0.0
C42 C 0.96708 0.37604 0.3113 0.0
C43 C 0.96213 0.3811 0.35414 0.0
C44 C 0.99381 0.42044 0.37918 0.0
C45 C 1.02448 0.45612 0.35718 0.0
C46 C 0.04129 0.44 0.32727 0.0
C47 C 1.00966 0.4021 0.30041 0.0
C48 C 0.77428 0.25099 0.22059 0.0
C49 C 0.75882 0.35006 0.26137 0.0
C50 C 0.68012 0.19449 0.31355 0.0
Eu51 Eu 0.76376 0.25452 0.31735 0.0
C52 C 0.66227 0.14841 0.29415 0.0
C53 C 0.69217 0.1363 0.27748 0.0
C54 C 0.68065 0.09023 0.26742 0.0
C55 C 0.64191 0.0551 0.2799 0.0
C56 C 0.60688 0.06889 0.28528 0.0
C57 C 0.61785 0.11547 0.29422 0.0
C58 C 0.82577 0.31761 0.38092 0.0
C59 C 0.85103 0.22914 0.35068 0.0
O60 O 0.90467 0.31005 0.27724 0.0
O61 O 0.89658 0.3762 0.26848 0.0
O62 O 0.79796 0.29429 0.2123 0.0
O63 O 0.78803 0.24181 0.26152 0.0
O64 O 0.80314 0.36334 0.26158 0.0
O65 O 0.73735 0.3095 0.28007 0.0
O66 O 0.69055 0.22864 0.28442 0.0
O67 O 0.71305 0.20115 0.35022 0.0
O68 O 0.79989 0.27493 0.38961 0.0
O69 O 0.81568 0.32669 0.33926 0.0
O70 O 0.80566 0.20857 0.33659 0.0
O71 O 0.87051 0.27406 0.34173 0.0
H72 H 0.93061 0.35971 0.36457 0.0
H73 H 0.98501 0.42878 0.40757 0.0
H74 H 0.07137 0.46331 0.31516 0.0
H75 H 1.01596 0.39712 0.269 0.0
H76 H 0.72619 0.16178 0.27593 0.0
H77 H 0.70629 0.08177 0.25813 0.0
H78 H 0.57383 0.04344 0.29007 0.0
H79 H 0.59327 0.1248 0.30464 0.0
C80 C 0.82543 0.69133 0.40388 0.0
Eu81 Eu 0.81018 0.75541 0.3513 0.0
C82 C 0.85798 0.67357 0.39443 0.0
C83 C 0.84128 0.6337 0.36833 0.0
C84 C 0.87035 0.62508 0.34724 0.0
C85 C 0.91719 0.65602 0.35163 0.0
C86 C 0.93346 0.6956 0.37858 0.0
C87 C 0.9048 0.70362 0.40011 0.0
C88 C 0.74248 0.74473 0.27624 0.0
C89 C 0.86149 0.74821 0.2707 0.0
C90 C 0.82834 0.89645 0.22846 0.0
Eu91 Eu 0.83686 0.83429 0.28792 0.0
C92 C 0.78324 0.89886 0.2177 0.0
C93 C 0.77662 0.93986 0.20267 0.0
C94 C 0.73489 0.9424 0.20313 0.0
C95 C 0.70055 0.90449 0.22004 0.0
C96 C 0.70734 0.86348 0.23396 0.0
C97 C 0.74797 0.86065 0.23218 0.0
C98 C 0.90643 0.84037 0.35972 0.0
C99 C 0.78294 0.84032 0.36817 0.0
O100 O 0.84392 0.73494 0.41622 0.0
O101 O 0.78644 0.68206 0.37363 0.0
O102 O 0.73459 0.7332 0.31628 0.0
O103 O 0.78537 0.76196 0.27864 0.0
O104 O 0.84602 0.7307 0.30773 0.0
O105 O 0.86192 0.78978 0.25533 0.0
O106 O 0.82713 0.85689 0.21762 0.0
O107 O 0.85088 0.90769 0.26984 0.0
O108 O 0.91261 0.85303 0.3195 0.0
O109 O 0.86414 0.82661 0.35903 0.0
O110 O 0.7939 0.85499 0.32824 0.0
O111 O 0.78787 0.80134 0.38636 0.0
H112 H 0.80513 0.61028 0.3624 0.0
H113 H 0.85571 0.59392 0.32751 0.0
H114 H 0.96884 0.72061 0.38462 0.0
H115 H 0.91922 0.73515 0.41946 0.0
H116 H 0.80381 0.96992 0.19214 0.0
H117 H 0.72975 0.9742 0.19083 0.0
H118 H 0.68212 0.83408 0.24763 0.0
H119 H 0.75318 0.82938 0.24532 0.0
C120 C 0.23106 0.86446 0.28855 0.0
Eu121 Eu 0.27725 0.81256 0.29628 0.0
C122 C 0.22153 0.87998 0.32556 0.0
C123 C 0.18994 0.90123 0.3187 0.0
C124 C 0.18145 0.91479 0.35571 0.0
C125 C 0.20429 0.90646 0.39912 0.0
C126 C 0.23599 0.88548 0.40572 0.0
C127 C 0.24474 0.87248 0.36904 0.0
C128 C 0.25764 0.74568 0.23707 0.0
C129 C 0.2434 0.72652 0.36935 0.0
C130 C 0.37561 0.70507 0.33161 0.0
Eu131 Eu 0.33146 0.75903 0.32593 0.0
C132 C 0.37137 0.67874 0.29393 0.0
C133 C 0.39914 0.65392 0.29598 0.0
C134 C 0.39659 0.63322 0.25722 0.0
C135 C 0.3663 0.63752 0.21667 0.0
C136 C 0.3368 0.6601 0.21561 0.0
C137 C 0.33967 0.68089 0.25394 0.0
C138 C 0.35522 0.8284 0.38434 0.0
C139 C 0.35923 0.8412 0.24648 0.0
O140 O 0.27506 0.88134 0.28902 0.0
O141 O 0.211 0.81934 0.2825 0.0
O142 O 0.25964 0.78745 0.22592 0.0
O143 O 0.26395 0.74062 0.27885 0.0
O144 O 0.24523 0.76912 0.35557 0.0
O145 O 0.27068 0.71142 0.35628 0.0
O146 O 0.33732 0.6921 0.34481 0.0
O147 O 0.39488 0.75034 0.32643 0.0
O148 O 0.35078 0.78595 0.39573 0.0
O149 O 0.34645 0.83199 0.34228 0.0
O150 O 0.36182 0.80133 0.26517 0.0
O151 O 0.33074 0.85619 0.25703 0.0
H152 H 0.17197 0.90704 0.28515 0.0
H153 H 0.15674 0.931 0.35068 0.0
H154 H 0.25391 0.87928 0.43918 0.0
H155 H 0.26973 0.85656 0.37459 0.0
H156 H 0.42376 0.65212 0.32672 0.0
H157 H 0.42002 0.61629 0.25821 0.0
H158 H 0.31346 0.66387 0.18458 0.0
H159 H 0.31848 0.70046 0.25199 0.0
C160 C 0.41418 0.90101 0.80932 0.0
Eu161 Eu 0.34403 0.82203 0.80273 0.0
C162 C 0.42418 0.93608 0.77422 0.0
C163 C 0.40085 0.92233 0.73023 0.0
C164 C 0.41649 0.94999 0.69494 0.0
C165 C 0.45417 0.99338 0.70288 0.0
C166 C 0.4733 1.00981 0.74715 0.0
C167 C 0.45889 0.9807 0.78296 0.0
C168 C 0.30019 0.76397 0.7313 0.0
C169 C 0.24883 0.8431 0.76432 0.0
C170 C 0.17684 0.6706 0.78808 0.0
Eu171 Eu 0.25196 0.74538 0.80852 0.0
C172 C 0.1447 0.62991 0.80671 0.0
C173 C 0.16053 0.60828 0.84602 0.0
C174 C 0.1306 0.58466 0.87383 0.0
C175 C 0.0857 0.58413 0.86271 0.0
C176 C 0.0679 0.59885 0.82016 0.0
C177 C 0.0975 0.6214 0.79177 0.0
C178 C 0.29348 0.8043 0.87894 0.0
C179 C 0.3492 0.72709 0.85084 0.0
O180 O 0.37705 0.8948 0.82245 0.0
O181 O 0.41594 0.86171 0.80121 0.0
O182 O 0.34498 0.78245 0.74459 0.0
O183 O 0.2828 0.78058 0.75288 0.0
O184 O 0.29458 0.86111 0.77921 0.0
O185 O 0.22579 0.79743 0.76589 0.0
O186 O 0.218 0.67192 0.78992 0.0
O187 O 0.17787 0.71031 0.79855 0.0
O188 O 0.24868 0.78326 0.86651 0.0
O189 O 0.31217 0.78808 0.85839 0.0
O190 O 0.3033 0.70782 0.83481 0.0
O191 O 0.37152 0.77288 0.84833 0.0
H192 H 0.37331 0.88802 0.72322 0.0
H193 H 0.4017 0.93452 0.66216 0.0
H194 H 0.50177 0.04342 0.75431 0.0
H195 H 0.47636 0.99189 0.8171 0.0
H196 H 0.19687 0.61441 0.85783 0.0
H197 H 0.14449 0.57323 0.90686 0.0
H198 H 1.03329 0.59862 0.81142 0.0
H199 H 0.085 0.6378 0.76112 0.0
C200 C 0.37378 0.28159 0.7075 0.0
Eu201 Eu 0.34173 0.30696 0.76435 0.0
C202 C 0.39184 0.2668 0.67477 0.0
C203 C 0.43973 0.28466 0.67812 0.0
C204 C 0.45889 0.26332 0.65601 0.0
C205 C 0.4307 0.22408 0.62871 0.0
C206 C 0.38247 0.20718 0.62423 0.0
C207 C 0.36336 0.22801 0.6472 0.0
C208 C 0.38201 0.35899 0.83827 0.0
C209 C 0.34723 0.22845 0.84642 0.0
C210 C 0.25081 0.29623 0.90505 0.0
Eu211 Eu 0.28383 0.28581 0.84018 0.0
C212 C 0.22751 0.32312 0.91855 0.0
C213 C 0.18304 0.29925 0.92656 0.0
C214 C 0.16189 0.32261 0.94338 0.0
C215 C 0.18464 0.3706 0.95276 0.0
C216 C 0.22903 0.39472 0.94437 0.0
C217 C 0.2502 0.37132 0.92736 0.0
C218 C 0.24597 0.23082 0.76859 0.0
C219 C 0.27558 0.36184 0.75725 0.0
O220 O 0.33603 0.25406 0.72024 0.0
O221 O 0.39157 0.32468 0.72211 0.0
O222 O 0.39184 0.37515 0.79955 0.0
O223 O 0.35616 0.31662 0.83605 0.0
O224 O 0.35813 0.25031 0.80913 0.0
O225 O 0.32086 0.23748 0.86726 0.0
O226 O 0.29422 0.31832 0.90284 0.0
O227 O 0.22664 0.26532 0.8734 0.0
O228 O 0.2373 0.21594 0.80783 0.0
O229 O 0.26927 0.27393 0.76863 0.0
O230 O 0.27258 0.34769 0.7991 0.0
O231 O 0.29657 0.34709 0.73417 0.0
H232 H 0.46283 0.31335 0.7003 0.0
H233 H 0.49621 0.27655 0.66208 0.0
H234 H 0.35945 0.17727 0.60354 0.0
H235 H 0.32637 0.21269 0.64462 0.0
H236 H 0.16497 0.26203 0.92088 0.0
H237 H 0.1282 0.30264 0.95041 0.0
H238 H 0.24752 0.43166 0.95124 0.0
H239 H 0.28465 0.39084 0.92194 0.0
C240 C 0.72189 0.36742 0.77527 0.0
Eu241 Eu 0.77202 0.31756 0.79062 0.0
C242 C 0.72361 0.3992 0.80763 0.0
C243 C 0.68609 0.41119 0.80583 0.0
C244 C 0.68673 0.43604 0.84105 0.0
C245 C 0.72475 0.44865 0.87837 0.0
C246 C 0.76281 0.43816 0.879 0.0
C247 C 0.76218 0.4137 0.84397 0.0
C248 C 0.76416 0.25562 0.72772 0.0
C249 C 0.72614 0.22997 0.85593 0.0
C250 C 0.87402 0.22271 0.84629 0.0
Eu251 Eu 0.82237 0.27077 0.82891 0.0
C252 C 0.87812 0.19762 0.81182 0.0
C253 C 0.90713 0.17306 0.82068 0.0
C254 C 0.9109 0.15168 0.78537 0.0
C255 C 0.88568 0.15506 0.74143 0.0
C256 C 0.85557 0.17821 0.73332 0.0
C257 C 0.85191 0.19925 0.76824 0.0
C258 C 0.83 0.33225 0.89179 0.0
C259 C 0.86695 0.35668 0.76161 0.0
O260 O 0.75972 0.37964 0.76143 0.0
O261 O 0.70627 0.32334 0.78692 0.0
O262 O 0.76741 0.29813 0.71985 0.0
O263 O 0.76292 0.24606 0.76869 0.0
O264 O 0.72945 0.27274 0.84237 0.0
O265 O 0.7566 0.21664 0.84717 0.0
O266 O 0.83259 0.20666 0.85339 0.0
O267 O 0.89062 0.26807 0.8411 0.0
O268 O 0.82473 0.28914 0.89901 0.0
O269 O 0.83172 0.34212 0.8509 0.0
O270 O 0.86288 0.31362 0.77489 0.0
O271 O 0.83808 0.37113 0.77222 0.0
H272 H 0.65577 0.39979 0.77832 0.0
H273 H 0.6566 0.44312 0.84033 0.0
H274 H 0.79222 0.44732 0.90753 0.0
H275 H 0.79102 0.40417 0.84599 0.0
H276 H 0.92743 0.17139 0.85427 0.0
H277 H 0.93484 0.13439 0.79192 0.0
H278 H 0.83609 0.18136 0.69964 0.0
H279 H 0.82939 0.21799 0.76113 0.0
C280 C 0.85237 0.89786 0.88611 0.0
Eu281 Eu 0.8294 0.8244 0.83853 0.0
C282 C 0.83548 0.90774 0.92177 0.0
C283 C 0.84187 0.95382 0.92781 0.0
C284 C 0.81722 0.96294 0.95392 0.0
C285 C 0.78584 0.92601 0.97437 0.0
C286 C 0.78166 0.88007 0.97036 0.0
C287 C 0.80618 0.871 0.9441 0.0
C288 C 0.87833 0.83871 0.77127 0.0
C289 C 0.75355 0.83024 0.75292 0.0
C290 C 0.76372 0.67699 0.74217 0.0
Eu291 Eu 0.78555 0.74886 0.7914 0.0
C292 C 0.77685 0.66922 0.7027 0.0
C293 C 0.77378 0.6245 0.69588 0.0
C294 C 0.79591 0.61808 0.66552 0.0
C295 C 0.82163 0.65639 0.64158 0.0
C296 C 0.82169 0.70063 0.64605 0.0
C297 C 0.7998 0.70709 0.67672 0.0
C298 C 0.73532 0.7363 0.85721 0.0
C299 C 0.85987 0.74121 0.87864 0.0
O300 O 0.87382 0.86942 0.89564 0.0
O301 O 0.82228 0.88849 0.84786 0.0
O302 O 0.89639 0.84718 0.8135 0.0
O303 O 0.83449 0.81865 0.76698 0.0
O304 O 0.76819 0.84025 0.79572 0.0
O305 O 0.76229 0.79711 0.73995 0.0
O306 O 0.7384 0.70149 0.73675 0.0
O307 O 0.79769 0.68918 0.7776 0.0
O308 O 0.71795 0.72635 0.81516 0.0
O309 O 0.77934 0.75532 0.86243 0.0
O310 O 0.84317 0.72906 0.83649 0.0
O311 O 0.85455 0.77712 0.89061 0.0
H312 H 0.86368 0.98247 0.91007 0.0
H313 H 0.8204 0.99854 0.95554 0.0
H314 H 0.7577 0.85097 0.98574 0.0
H315 H 0.80026 0.83517 0.93907 0.0
H316 H 0.75671 0.59501 0.71609 0.0
H317 H 0.7954 0.58365 0.66299 0.0
H318 H 0.84046 0.73063 0.6274 0.0
H319 H 0.80292 0.742 0.68188 0.0
C320 C 0.94245 0.10916 0.59897 0.0
C321 C 0.9626 0.13061 0.46879 0.0
C322 C 0.97945 0.94966 0.51522 0.0
Mg323 Mg 1.03048 0.13731 0.56233 0.0
O324 O 1.0118 0.07282 0.56844 0.0
Mg325 Mg 0.94736 0.03119 0.53808 0.0
Mg326 Mg 0.05065 0.03937 0.56305 0.0
O327 O 0.08934 1.00418 0.55917 0.0
Mg328 Mg 0.06698 0.94052 0.57678 0.0
Mg329 Mg 0.15348 0.04497 0.59218 0.0
C330 C 0.12766 0.12849 0.61684 0.0
C331 C 0.13478 0.11133 0.50128 0.0
O332 O 0.92252 0.07106 0.57681 0.0
O333 O 0.98383 0.13828 0.59918 0.0
O334 O 0.94277 0.08682 0.47818 0.0
O335 O 1.00073 0.15632 0.49441 0.0
O336 O 0.10317 0.15278 0.59922 0.0
O337 O 0.11257 0.08416 0.61328 0.0
C338 C 0.97057 0.9661 0.62724 0.0
O339 O 1.01392 0.98389 0.62462 0.0
O340 O 0.94219 0.97864 0.59738 0.0
O341 O 0.17424 0.99782 0.55859 0.0
O342 O 0.10991 0.93118 0.54081 0.0
O343 O 0.15844 0.99375 0.65478 0.0
C344 C 0.15206 0.95746 0.5402 0.0
O345 O 0.09852 0.92554 0.64479 0.0
O346 O 0.99411 0.93242 0.55296 0.0
C347 C 0.13852 0.95117 0.66713 0.0
O348 O 0.98725 0.99352 0.51091 0.0
O349 O 0.0912 0.0964 0.50342 0.0
O350 O 0.16119 0.09601 0.53101 0.0
C351 C 0.40396 0.10261 0.05959 0.0
C352 C 0.44587 0.1169 0.94325 0.0
C353 C 0.45143 0.94305 0.98161 0.0
Mg354 Mg 0.50061 0.13063 0.04054 0.0
O355 O 0.48458 0.06657 0.04819 0.0
Mg356 Mg 0.42265 0.02277 1.01252 0.0
Mg357 Mg 0.52691 0.03882 0.04002 0.0
O358 O 0.56854 1.01111 0.0299 0.0
Mg359 Mg 0.54949 0.94645 0.03477 0.0
Mg360 Mg 0.62697 0.05075 0.07255 0.0
C361 C 0.60033 0.13559 0.09762 0.0
C362 C 0.60968 0.111 0.98127 0.0
O363 O 0.38986 0.063 0.04103 0.0
O364 O 0.44581 0.13256 0.06496 0.0
O365 O 0.4249 0.07397 0.95315 0.0
O366 O 0.4816 0.14424 0.97007 0.0
O367 O 0.57192 0.15562 0.08104 0.0
O368 O 0.58828 0.0917 0.09051 0.0
C369 C 0.44863 0.96337 0.10295 0.0
O370 O 0.49187 0.98199 0.09995 0.0
O371 O 0.41864 0.97385 0.0731 0.0
O372 O 0.66226 1.00733 0.05132 0.0
O373 O 0.6081 0.93943 0.02182 0.0
O374 O 0.60679 0.99806 0.12853 0.0
C375 C 0.65042 0.96811 0.03282 0.0
O376 O 0.54892 0.93134 0.10259 0.0
O377 O 0.48046 0.92333 0.9933 0.0
C378 C 0.57706 0.95725 0.13493 0.0
O379 O 0.46347 0.98659 0.98969 0.0
O380 O 0.56578 0.09484 0.9824 0.0
O381 O 0.63854 0.09976 1.01233 0.0
C382 C 0.92315 0.64156 0.16603 0.0
C383 C 0.92823 0.63114 0.02655 0.0
C384 C 0.91854 0.44403 0.05127 0.0
Mg385 Mg 0.99884 0.64037 0.12047 0.0
O386 O 0.974 0.57519 0.12007 0.0
Mg387 Mg 0.90682 0.54215 0.10521 0.0
Mg388 Mg 1.00096 0.52878 0.11215 0.0
O389 O 1.03438 0.48554 0.10828 0.0
Mg390 Mg 1.0173 0.42388 0.09465 0.0
Mg391 Mg 0.10285 0.52651 0.1177 0.0
C392 C 0.09394 0.61944 0.14706 0.0
C393 C 0.05021 0.57167 0.03138 0.0
O394 O 0.89671 0.60229 0.14528 0.0
O395 O 0.96592 0.66083 0.16425 0.0
O396 O 0.90238 0.5891 0.03703 0.0
O397 O 0.96665 0.65486 0.05305 0.0
O398 O 0.07135 0.64641 0.13901 0.0
O399 O 0.07472 0.57471 0.14643 0.0
C400 C 0.95877 0.5042 0.19828 0.0
O401 O 0.98832 0.50265 0.17899 0.0
O402 O 0.92256 0.51125 0.17666 0.0
O403 O 0.12047 0.48143 0.075 0.0
O404 O 0.05318 0.42546 0.04426 0.0
O405 O 0.11981 0.47472 0.17831 0.0
C406 C 0.09645 0.44807 0.04713 0.0
O407 O 0.06502 0.40484 0.15392 0.0
O408 O 0.94788 0.4242 0.05933 0.0
C409 C 0.10404 0.42934 0.18013 0.0
O410 O 0.92545 0.48028 0.07428 0.0
O411 O 1.01347 0.55833 0.04536 0.0
O412 O 0.08653 0.56611 0.05407 0.0
C413 C 0.42828 0.60088 0.0767 0.0
C414 C 0.46349 0.62637 0.95764 0.0
C415 C 0.48902 0.45389 1.00032 0.0
Mg416 Mg 0.52476 0.63496 0.05454 0.0
O417 O 0.50959 0.57119 0.06225 0.0
Mg418 Mg 0.44897 0.52719 0.02548 0.0
Mg419 Mg 0.55522 0.5435 0.06176 0.0
O420 O 0.60048 0.51596 0.06053 0.0
Mg421 Mg 0.58751 0.45274 0.05964 0.0
Mg422 Mg 0.66257 0.56007 0.0935 0.0
C423 C 0.62208 0.63472 0.12133 0.0
C424 C 0.6378 0.62226 1.00301 0.0
O425 O 0.41353 0.56244 0.05593 0.0
O426 O 0.46981 0.63154 0.08187 0.0
O427 O 0.44607 0.58202 0.96536 0.0
O428 O 0.49936 0.65317 0.98508 0.0
O429 O 0.59475 0.65493 0.10005 0.0
O430 O 0.61353 0.59126 0.11652 0.0
C431 C 0.46981 0.46507 0.11849 0.0
O432 O 0.51426 0.4846 0.11938 0.0
O433 O 0.44211 0.47539 0.08563 0.0
O434 O 0.69574 0.52809 0.05418 0.0
O435 O 0.63863 0.4611 0.02466 0.0
O436 O 0.66787 0.5018 0.15089 0.0
C437 C 0.67954 0.49253 0.0287 0.0
O438 O 0.61546 0.43131 0.12658 0.0
O439 O 0.51641 0.43274 0.01806 0.0
C440 C 0.65042 0.45684 0.1557 0.0
O441 O 0.49886 0.49672 1.00772 0.0
O442 O 0.59377 0.60135 1.00292 0.0
O443 O 0.66665 0.6132 0.03535 0.0
C444 C 0.94555 0.61536 0.56295 0.0
C445 C 1.0099 0.60238 0.45674 0.0
C446 C 0.9908 0.43723 0.50879 0.0
Mg447 Mg 0.04386 0.63038 0.5549 0.0
O448 O 1.02213 0.5669 0.5726 0.0
Mg449 Mg 0.96268 0.52358 0.53338 0.0
Mg450 Mg 0.06269 0.53494 0.56945 0.0
O451 O 0.10519 0.50611 0.56611 0.0
Mg452 Mg 0.09375 0.44483 0.55749 0.0
Mg453 Mg 0.16853 0.55123 0.59679 0.0
C454 C 0.14047 0.63286 0.61899 0.0
C455 C 0.14039 0.60787 0.50539 0.0
O456 O 0.93068 0.57312 0.54962 0.0
O457 O 0.98804 0.64349 0.56754 0.0
O458 O 0.98016 0.56544 0.47016 0.0
O459 O 1.03995 0.63366 0.48408 0.0
O460 O 0.11366 0.65347 0.59812 0.0
O461 O 0.12688 0.58786 0.61907 0.0
C462 C 0.98004 0.47023 0.63058 0.0
O463 O 1.02351 0.4837 0.62901 0.0
O464 O 0.95191 0.48157 0.59862 0.0
O465 O 0.20185 0.51718 0.56304 0.0
O466 O 0.14608 0.45697 0.52238 0.0
O467 O 0.16889 0.49517 0.65475 0.0
C468 C 0.18811 0.48619 0.53329 0.0
O469 O 0.12111 0.42524 0.62388 0.0
O470 O 1.02112 0.4189 0.52048 0.0
C471 C 0.15261 0.45012 0.65585 0.0
O472 O 1.0009 0.47925 0.52091 0.0
O473 O 0.09731 0.58677 0.50802 0.0
O474 O 0.17183 0.60118 0.53631 0.0
C475 C 0.52027 0.13152 0.55062 0.0
C476 C 0.51278 0.16643 0.42956 0.0
C477 C 0.53008 0.9549 0.47262 0.0
Mg478 Mg 0.60079 0.15929 0.50755 0.0
O479 O 0.58744 0.10166 0.48162 0.0
Mg480 Mg 0.51575 0.06109 0.46959 0.0
Mg481 Mg 0.61954 0.05258 0.51033 0.0
O482 O 0.64827 1.00333 0.52837 0.0
Mg483 Mg 0.62892 0.94214 0.50726 0.0
Mg484 Mg 0.71792 0.03665 0.53518 0.0
C485 C 0.69671 0.14048 0.5696 0.0
C486 C 0.67411 0.05439 0.43671 0.0
O487 O 0.49797 0.09929 0.52135 0.0
O488 O 0.56386 0.15211 0.55728 0.0
O489 O 0.49616 0.1215 0.42796 0.0
O490 O 0.55318 0.1887 0.45532 0.0
O491 O 0.66706 0.15972 0.5542 0.0
O492 O 0.69391 0.1032 0.55088 0.0
C493 C 0.55313 0.029 0.56559 0.0
O494 O 0.59686 0.04871 0.57371 0.0
O495 O 0.53115 1.01302 0.52671 0.0
O496 O 0.73499 0.9759 0.49993 0.0
O497 O 0.66624 0.93055 0.46125 0.0
O498 O 0.71607 0.98896 0.60197 0.0
C499 C 0.7103 0.94378 0.46961 0.0
O500 O 0.65897 0.92103 0.57369 0.0
O501 O 0.55511 0.93038 0.48139 0.0
C502 C 0.69217 0.94442 0.60581 0.0
O503 O 0.54641 0.999 0.48119 0.0
O504 O 0.63796 0.05184 0.44698 0.0
O505 O 0.71264 0.06577 0.46513 0.0
C506 C 0.23312 0.19466 0.43975 0.0
C507 C 0.21118 0.21061 0.39905 0.0
C508 C 0.20815 0.16411 0.47128 0.0
C509 C 0.15886 0.14669 0.4655 0.0
H510 H 0.2703 0.2052 0.44725 0.0
H511 H 0.22845 0.15371 0.50102 0.0
S512 S 0.08317 0.17844 0.36563 0.0
N513 N 0.13539 0.20634 0.3559 0.0
N514 N 0.08996 0.15055 0.41424 0.0
C515 C 0.13649 0.1631 0.4253 0.0
C516 C 0.16195 0.19413 0.39284 0.0
C517 C 0.86015 0.15674 0.39266 0.0
C518 C 0.88045 0.20342 0.37806 0.0
C519 C 0.88698 0.13263 0.41929 0.0
C520 C 0.93583 0.1541 0.43343 0.0
H521 H 0.82291 0.1391 0.38445 0.0
H522 H 0.86887 0.09737 0.43055 0.0
S523 S 1.00706 0.27594 0.40383 0.0
N524 N 0.95347 0.26979 0.37923 0.0
N525 N 1.00318 0.22541 0.4293 0.0
C526 C 0.95667 0.20067 0.41845 0.0
C527 C 0.92936 0.22501 0.39103 0.0
C528 C 0.93581 0.84619 0.44108 0.0
C529 C 0.93937 0.86689 0.39867 0.0
C530 C 0.95069 0.87357 0.47884 0.0
C531 C 0.96935 0.92263 0.47533 0.0
H532 H 0.91804 0.80879 0.44459 0.0
H533 H 0.94496 0.85612 0.51054 0.0
S534 S 0.99388 0.99356 0.37284 0.0
N535 N 0.96865 0.93894 0.3559 0.0
N536 N 0.99693 0.99074 0.42723 0.0
C537 C 0.97702 0.94374 0.43376 0.0
C538 C 0.96221 0.9157 0.39529 0.0
C539 C 0.20781 0.96606 0.44655 0.0
C540 C 0.19473 0.91891 0.438 0.0
C541 C 0.19728 0.97858 0.48275 0.0
C542 C 0.17274 0.94407 0.51055 0.0
H543 H 0.22537 0.99319 0.42461 0.0
H544 H 0.20581 1.01526 0.4872 0.0
S545 S 0.13442 0.81581 0.50341 0.0
N546 N 0.15944 0.83773 0.46105 0.0
N547 N 0.13864 0.86118 0.52919 0.0
C548 C 0.16144 0.89681 0.50341 0.0
C549 C 0.17266 0.88419 0.46689 0.0
C550 C 0.1731 0.85289 0.73043 0.0
C551 C 0.22195 0.87343 0.74387 0.0
C552 C 0.14648 0.87893 0.709 0.0
C553 C 0.16692 0.92729 0.6996 0.0
H554 H 0.15488 0.81576 0.73553 0.0
H555 H 0.10939 0.86027 0.69807 0.0
S556 S 0.2935 0.99954 0.73087 0.0
N557 N 0.28947 0.94635 0.74847 0.0
N558 N 0.23998 0.99518 0.70844 0.0
C559 C 0.21573 0.94887 0.71475 0.0
C560 C 0.24294 0.92213 0.73662 0.0
C561 C 0.20144 0.15451 0.73166 0.0
C562 C 0.22586 0.20285 0.72806 0.0
C563 C 0.17373 0.12857 0.69356 0.0
C564 C 0.16934 0.15069 0.65119 0.0
H565 H 0.20126 0.13718 0.76423 0.0
H566 H 0.15209 0.09215 0.69798 0.0
S567 S 0.23537 0.27351 0.62266 0.0
N568 N 0.25127 0.2698 0.67781 0.0
N569 N 0.19794 0.22065 0.6063 0.0
C570 C 0.19779 0.19755 0.64651 0.0
C571 C 0.22643 0.2239 0.68513 0.0
C572 C 0.91273 0.17488 0.67122 0.0
C573 C 0.89516 0.14064 0.7029 0.0
C574 C 0.92528 0.16366 0.63564 0.0
C575 C 0.91979 0.11769 0.63019 0.0
H576 H 0.91847 0.21097 0.67498 0.0
H577 H 0.94086 0.19141 0.61312 0.0
S578 S 0.87207 1.01476 0.7023 0.0
N579 N 0.87066 0.05877 0.72571 0.0
N580 N 0.8935 0.03715 0.65785 0.0
C581 C 0.90003 0.08259 0.66031 0.0
C582 C 0.88805 0.09426 0.69714 0.0
C583 C 0.95146 0.89609 0.74198 0.0
C584 C 0.90289 0.86822 0.73374 0.0
C585 C 0.9739 0.92574 0.70822 0.0
C586 C 0.94934 0.93017 0.66365 0.0
H587 H 0.97261 0.89561 0.77536 0.0
H588 H 1.0107 0.94645 0.71772 0.0
S589 S 0.82176 0.864 0.62281 0.0
N590 N 0.832 0.84708 0.67581 0.0
N591 N 0.87227 0.90104 0.61405 0.0
C592 C 0.90087 0.90164 0.65506 0.0
C593 C 0.87838 0.87148 0.68918 0.0
C594 C 0.35957 0.16474 0.12202 0.0
C595 C 0.31157 0.13889 0.11166 0.0
C596 C 0.38882 0.15285 0.10457 0.0
C597 C 0.37128 0.11448 0.07614 0.0
H598 H 0.37491 0.19359 0.14502 0.0
H599 H 0.42565 0.17351 0.11437 0.0
S600 S 0.24735 0.0377 0.03622 0.0
N601 N 0.24711 0.07496 0.0696 0.0
N602 N 0.30223 0.05206 0.03646 0.0
C603 C 0.32305 0.08889 0.06461 0.0
C604 C 0.29317 0.10118 0.0825 0.0
C605 C 1.03938 0.52949 0.31285 0.0
C606 C 1.01064 0.49632 0.33852 0.0
C607 C 1.02171 0.5331 0.26669 0.0
C608 C 0.97409 0.50945 0.24729 0.0
H609 H 0.07664 0.54275 0.32522 0.0
H610 H 0.04591 0.55167 0.24581 0.0
S611 S 0.8825 0.4576 0.31001 0.0
N612 N 0.93119 0.46591 0.34814 0.0
N613 N 0.89739 0.47646 0.26188 0.0
C614 C 0.9441 0.49159 0.27602 0.0
C615 C 0.96259 0.4862 0.32257 0.0
C616 C 0.65857 0.95059 0.2311 0.0
C617 C 0.65701 0.90759 0.22075 0.0
C618 C 0.62188 0.96379 0.21153 0.0
C619 C 0.58529 0.93518 0.17908 0.0
H620 H 0.69081 0.97682 0.24768 0.0
H621 H 0.62785 1.00023 0.21271 0.0
S622 S 0.55299 0.80958 0.16352 0.0
N623 N 0.60693 0.82879 0.1935 0.0
N624 N 0.5377 0.85466 0.15677 0.0
C625 C 0.57689 0.88747 0.18046 0.0
C626 C 0.61409 0.87358 0.20034 0.0
C627 C 0.20861 0.71676 0.16279 0.0
C628 C 0.22864 0.70666 0.20676 0.0
C629 C 0.16636 0.68477 0.13995 0.0
C630 C 0.14416 0.64181 0.16025 0.0
H631 H 0.22236 0.75147 0.14824 0.0
H632 H 0.14869 0.69567 0.10855 0.0
S633 S 0.19133 0.59269 0.2673 0.0
N634 N 0.23006 0.64644 0.26442 0.0
N635 N 0.15061 0.58569 0.22061 0.0
C636 C 0.16825 0.62789 0.20008 0.0
C637 C 0.21098 0.66071 0.22371 0.0
C638 C 0.34914 0.82915 0.95124 0.0
C639 C 0.32104 0.84072 0.91308 0.0
C640 C 0.38869 0.86363 0.97575 0.0
C641 C 0.40269 0.91126 0.96252 0.0
H642 H 0.34264 0.79279 0.96014 0.0
H643 H 0.41042 0.85229 1.0035 0.0
S644 S 0.33653 0.96055 0.86902 0.0
N645 N 0.30577 0.90354 0.86669 0.0
N646 N 0.38144 0.96863 0.91208 0.0
C647 C 0.37243 0.92388 0.92703 0.0
C648 C 0.33136 0.88846 0.90234 0.0
C649 C 0.18803 0.42168 1.01201 0.0
C650 C 0.16288 0.39448 0.97342 0.0
C651 C 0.16688 0.44048 0.03464 0.0
C652 C 0.11962 0.43278 0.0197 0.0
H653 H 0.22395 0.42702 0.02588 0.0
H654 H 0.18734 0.45965 0.06506 0.0
S655 S 1.04024 0.37017 0.9164 0.0
N656 N 0.08948 0.36539 0.91852 0.0
N657 N 0.04972 0.40011 0.96097 0.0
C658 C 0.09475 0.40764 0.97986 0.0
C659 C 0.11631 0.38867 0.95681 0.0
C660 C 0.6646 0.21438 0.90218 0.0
C661 C 0.69102 0.19808 0.88328 0.0
C662 C 0.63516 0.18568 0.93094 0.0
C663 C 0.62989 0.13875 0.94197 0.0
H664 H 0.668 0.25032 0.89613 0.0
H665 H 0.61825 0.20118 0.94633 0.0
S666 S 0.68816 0.07717 0.89989 0.0
N667 N 0.70698 0.12997 0.87708 0.0
N668 N 0.65285 0.07743 0.92967 0.0
C669 C 0.65475 0.12181 0.92194 0.0
C670 C 0.68466 0.15078 0.89315 0.0
C671 C 0.91136 0.7329 0.95268 0.0
C672 C 0.87919 0.71198 0.91337 0.0
C673 C 0.92753 0.70636 0.98775 0.0
C674 C 0.91157 0.65713 0.9861 0.0
H675 H 0.92406 0.77031 0.95665 0.0
H676 H 0.95194 0.72486 1.01723 0.0
S677 S 0.82707 0.58463 0.89049 0.0
N678 N 0.83226 0.63855 0.8744 0.0
N679 N 0.86162 0.58867 0.94098 0.0
C680 C 0.87938 0.63556 0.94688 0.0
C681 C 0.86359 0.66289 0.91046 0.0
C682 C 0.20812 0.40559 0.26155 0.0
C683 C 0.20171 0.36029 0.25034 0.0
C684 C 0.17637 0.42715 0.24027 0.0
C685 C 0.13537 0.40431 0.20731 0.0
H686 H 0.23875 0.42534 0.28613 0.0
H687 H 0.1845 0.46247 0.24943 0.0
S688 S 0.10031 0.28409 0.16717 0.0
N689 N 0.14964 0.2932 0.20435 0.0
N690 N 0.09057 0.33203 0.16611 0.0
C691 C 0.12803 0.35837 0.19705 0.0
C692 C 0.16073 0.337 0.21792 0.0
C693 C 1.0335 0.54398 0.91368 0.0
C694 C 0.06594 0.58491 0.89959 0.0
C695 C 1.02414 0.54198 0.95564 0.0
C696 C 0.04718 0.58071 0.98396 0.0
H697 H 1.01826 0.51264 0.89392 0.0
H698 H 1.00248 0.50862 0.96784 0.0
S699 S 0.1316 0.69684 0.95977 0.0
N700 N 0.11771 0.6662 0.91443 0.0
N701 N 0.10074 0.66156 0.99421 0.0
C702 C 0.07698 0.6227 0.96877 0.0
C703 C 0.08612 0.62503 0.92603 0.0
C704 C 0.41655 0.2084 0.86598 0.0
C705 C 0.37017 0.19663 0.86718 0.0
C706 C 0.44045 0.1804 0.88779 0.0
C707 C 0.41826 0.13893 0.91022 0.0
H708 H 0.43522 0.24065 0.84985 0.0
H709 H 0.47695 0.19224 0.88873 0.0
S710 S 0.29554 0.09092 0.91944 0.0
N711 N 0.30217 0.14007 0.89024 0.0
N712 N 0.346 0.08623 0.93008 0.0
C713 C 0.37088 0.12547 0.90925 0.0
C714 C 0.34712 0.15473 0.88813 0.0
C715 C 0.83583 0.34696 0.97275 0.0
C716 C 0.84392 0.36561 0.93024 0.0
C717 C 0.85337 0.37484 1.0115 0.0
C718 C 0.87986 0.42349 1.01051 0.0
H719 H 0.81771 0.30962 0.97682 0.0
H720 H 0.84982 0.3572 0.04356 0.0
S721 S 0.9057 0.49192 0.90681 0.0
N722 N 0.87712 0.4376 0.8892 0.0
N723 N 0.90849 0.48968 0.96121 0.0
C724 C 0.88473 0.44328 0.96744 0.0
C725 C 0.86747 0.41468 0.92783 0.0
C726 C 0.70531 0.9081 0.97972 0.0
C727 C 0.75297 0.93468 0.99407 0.0
C728 C 0.67272 0.91856 0.99336 0.0
C729 C 0.68636 0.95618 0.02188 0.0
H730 H 0.69289 0.87998 0.95633 0.0
H731 H 0.63643 0.89763 0.98026 0.0
S732 S 0.80758 0.03327 0.07297 0.0
N733 N 0.81265 0.99773 0.04118 0.0
N734 N 0.75144 1.0178 0.06693 0.0
C735 C 0.73414 0.98197 0.03793 0.0
C736 C 0.76738 0.97117 0.02396 0.0
C737 C 0.91502 0.74129 0.22506 0.0
C738 C 0.87644 0.7197 0.24467 0.0
C739 C 0.92925 0.7159 0.20051 0.0
C740 C 0.90526 0.66713 0.1924 0.0
H741 H 0.93505 0.77847 0.22915 0.0
H742 H 0.95954 0.73526 0.1872 0.0
S743 S 0.79938 0.59335 0.23307 0.0
N744 N 0.81313 0.64573 0.25204 0.0
N745 N 0.839 0.59896 0.20598 0.0
C746 C 0.86593 0.6452 0.21104 0.0
C747 C 0.85192 0.67099 0.23689 0.0
C748 C 0.35872 0.87891 0.16871 0.0
C749 C 0.38414 0.86796 0.20972 0.0
C750 C 0.38025 0.90771 0.13517 0.0
C751 C 0.42914 0.92925 0.14037 0.0
H752 H 0.32132 0.86522 0.1624 0.0
H753 H 0.35755 0.9138 0.10479 0.0
S754 S 0.51208 0.91415 0.24332 0.0
N755 N 0.46128 0.88113 0.25398 0.0
N756 N 0.50178 0.93783 0.19293 0.0
C757 C 0.45503 0.91876 0.18171 0.0
C758 C 0.43273 0.88785 0.21558 0.0
C759 C 0.71866 0.17282 0.18376 0.0
C760 C 0.7312 0.22111 0.18843 0.0
C761 C 0.67718 0.14524 0.15379 0.0
C762 C 0.64683 0.165 0.12658 0.0
H763 H 0.741 0.15616 0.20354 0.0
H764 H 0.66855 0.1081 0.15253 0.0
S765 S 0.66655 0.29132 0.12341 0.0
N766 N 0.71121 0.28777 0.16153 0.0
N767 N 0.63522 0.23772 0.10499 0.0
C768 C 0.66048 0.2139 0.12988 0.0
C769 C 0.70212 0.24144 0.16054 0.0
C770 C 0.66119 0.67976 0.88512 0.0
C771 C 0.70905 0.71031 0.89467 0.0
C772 C 0.63726 0.65346 0.91922 0.0
C773 C 0.65941 0.65584 0.96559 0.0
H774 H 0.64192 0.67516 0.8505 0.0
H775 H 0.60144 0.62975 0.90879 0.0
S776 S 0.78369 0.73226 1.01018 0.0
N777 N 0.77645 0.7415 0.9555 0.0
N778 N 0.73306 0.69463 0.01812 0.0
C779 C 0.70694 0.68744 0.97538 0.0
C780 C 0.73108 0.71372 0.9408 0.0
C781 C 0.42579 0.72141 0.89065 0.0
C782 C 0.3774 0.69856 0.87391 0.0
C783 C 0.45357 0.69738 0.9146 0.0
C784 C 0.43494 0.64878 0.92321 0.0
H785 H 0.4427 0.75886 0.88626 0.0
H786 H 0.48998 0.71768 0.9279 0.0
S787 S 0.31066 0.57092 0.8844 0.0
N788 N 0.31259 0.6233 0.86593 0.0
N789 N 0.36424 0.57817 0.91053 0.0
C790 C 0.38683 0.62494 0.90497 0.0
C791 C 0.35837 0.64966 0.88064 0.0
C792 C 0.4223 0.43263 0.88148 0.0
C793 C 0.40264 0.38367 0.88091 0.0
C794 C 0.44593 0.45608 0.92198 0.0
C795 C 0.45099 0.43097 0.96267 0.0
H796 H 0.42092 0.45279 0.85044 0.0
H797 H 0.46359 0.49378 0.92089 0.0
S798 S 0.40095 0.30277 0.97976 0.0
N799 N 0.38605 0.31108 0.92512 0.0
N800 N 0.43024 0.35552 1.00087 0.0
C801 C 0.42836 0.38234 0.96288 0.0
C802 C 0.40437 0.3585 0.92195 0.0
C803 C 0.7253 0.44026 0.95955 0.0
C804 C 0.72219 0.46647 0.91932 0.0
C805 C 0.71597 0.45178 0.99732 0.0
C806 C 0.70474 0.49069 0.99647 0.0
H807 H 0.73197 0.40885 0.96089 0.0
H808 H 0.71471 0.42851 0.02639 0.0
S809 S 0.69737 0.57359 0.90126 0.0
N810 N 0.71031 0.53479 0.8819 0.0
N811 N 0.69452 0.55755 0.95374 0.0
C812 C 0.705 0.51921 0.95768 0.0
C813 C 0.71322 0.50676 0.91877 0.0
C814 C 0.7524 0.42629 0.22552 0.0
C815 C 0.73103 0.37908 0.23857 0.0
C816 C 0.72618 0.4524 0.20198 0.0
C817 C 0.67716 0.43254 0.18966 0.0
H818 H 0.78978 0.44309 0.23273 0.0
H819 H 0.74469 0.48779 0.19129 0.0
S820 S 0.60353 0.31095 0.21671 0.0
N821 N 0.65685 0.31448 0.23827 0.0
N822 N 0.60867 0.36285 0.1941 0.0
C823 C 0.65546 0.38587 0.20357 0.0
C824 C 0.68195 0.35949 0.22787 0.0
C825 C 0.67758 0.6726 0.24089 0.0
C826 C 0.71094 0.71767 0.23609 0.0
C827 C 0.65144 0.64414 0.20353 0.0
C828 C 0.65728 0.66007 0.1601 0.0
H829 H 0.67207 0.65885 0.27374 0.0
H830 H 0.62514 0.6102 0.20843 0.0
S831 S 0.74033 0.77431 0.12919 0.0
N832 N 0.74958 0.77557 0.18427 0.0
N833 N 0.69832 0.7231 0.11411 0.0
C834 C 0.69038 0.70472 0.15476 0.0
C835 C 0.71778 0.73323 0.19277 0.0
C836 C 0.36577 0.5802 0.16733 0.0
C837 C 0.37124 0.62578 0.17442 0.0
C838 C 0.37929 0.57087 0.13132 0.0
C839 C 0.39951 0.60722 0.10243 0.0
H840 H 0.35341 0.55234 0.19107 0.0
H841 H 0.37793 0.5361 0.12867 0.0
S842 S 0.41627 0.73127 0.10421 0.0
N843 N 0.39364 0.70652 0.14749 0.0
N844 N 0.41978 0.68896 0.08013 0.0
C845 C 0.40168 0.65206 0.10718 0.0
C846 C 0.38744 0.66142 0.14333 0.0
C847 C 0.37246 0.38359 0.18116 0.0
C848 C 0.39499 0.37065 0.22317 0.0
C849 C 0.39699 0.41255 0.14879 0.0
C850 C 0.44635 0.43128 0.15517 0.0
H851 H 0.33513 0.3718 0.17319 0.0
H852 H 0.37627 0.42075 0.118 0.0
S853 S 0.52344 0.40715 0.25861 0.0
N854 N 0.47126 0.37877 0.2683 0.0
N855 N 0.51608 0.43206 0.20845 0.0
C856 C 0.46936 0.41792 0.1968 0.0
C857 C 0.4443 0.38832 0.23003 0.0
C858 C 0.83576 0.61246 0.58791 0.0
C859 C 0.85229 0.65064 0.6164 0.0
C860 C 0.86574 0.60258 0.56902 0.0
C861 C 0.91354 0.63044 0.57792 0.0
H862 H 0.79951 0.58928 0.5811 0.0
H863 H 0.85144 0.572 0.54834 0.0
S864 S 0.97406 0.73522 0.65003 0.0
N865 N 0.91937 0.71683 0.65223 0.0
N866 N 0.97557 0.69906 0.61637 0.0
C867 C 0.93017 0.66989 0.60505 0.0
C868 C 0.89963 0.67976 0.62437 0.0
C869 C 0.52778 0.03004 0.67758 0.0
C870 C 0.4792 1.01478 0.66698 0.0
C871 C 0.55166 0.03609 0.6443 0.0
C872 C 0.52772 0.02588 0.59952 0.0
H873 H 0.54748 0.03402 0.71204 0.0
H874 H 0.58886 0.04643 0.65417 0.0
S875 S 0.40148 0.99315 0.55306 0.0
N876 N 0.4092 0.99861 0.60736 0.0
N877 N 0.45323 1.00431 0.54537 0.0
C878 C 0.47951 1.01345 0.58798 0.0
C879 C 0.45556 1.00967 0.62157 0.0
C880 C 0.22146 0.37428 0.68892 0.0
C881 C 0.24627 0.38709 0.73299 0.0
C882 C 0.18957 0.39322 0.66588 0.0
C883 C 0.1816 0.4268 0.68539 0.0
H884 H 0.22589 0.34853 0.6722 0.0
H885 H 0.17209 0.38236 0.63164 0.0
S886 S 0.23824 0.47278 0.8002 0.0
N887 N 0.26043 0.43477 0.7961 0.0
N888 N 0.20191 0.47264 0.75145 0.0
C889 C 0.20657 0.44051 0.72938 0.0
C890 C 0.23837 0.42 0.75353 0.0
C891 C 0.7289 0.17366 0.69213 0.0
C892 C 0.75555 0.2223 0.69075 0.0
C893 C 0.71569 0.14466 0.65436 0.0
C894 C 0.72932 0.16223 0.61346 0.0
H895 H 0.71549 0.15836 0.72148 0.0
H896 H 0.69112 0.10893 0.65593 0.0
S897 S 0.80514 0.28553 0.59451 0.0
N898 N 0.79932 0.28515 0.64611 0.0
N899 N 0.77501 0.23144 0.5767 0.0
C900 C 0.75903 0.20996 0.6134 0.0
C901 C 0.77191 0.23953 0.65133 0.0
C902 C 0.89594 0.33132 0.44352 0.0
C903 C 0.86477 0.34897 0.41532 0.0
C904 C 0.93486 0.35978 0.47458 0.0
C905 C 0.94453 0.40749 0.47988 0.0
H906 H 0.89121 0.29541 0.44042 0.0
H907 H 0.95826 0.34409 0.49392 0.0
S908 S 0.86739 0.46779 0.42073 0.0
N909 N 0.84185 0.415 0.39906 0.0
N910 N 0.91489 0.46873 0.45746 0.0
C911 C 0.91159 0.42467 0.45392 0.0
C912 C 0.87192 0.39549 0.42168 0.0
C913 C 0.78936 0.88819 0.43652 0.0
C914 C 0.76524 0.86831 0.39328 0.0
C915 C 0.77332 0.91355 0.46012 0.0
C916 C 0.73102 0.92011 0.44302 0.0
H917 H 0.82156 0.88437 0.45255 0.0
H918 H 0.79398 0.92712 0.49283 0.0
S919 S 0.65303 0.8749 0.33183 0.0
N920 N 0.69591 0.85823 0.33522 0.0
N921 N 0.66574 0.9031 0.37843 0.0
C922 C 0.7067 0.90022 0.39986 0.0
C923 C 0.72355 0.87543 0.3756 0.0
C924 C 0.19141 0.71272 0.42582 0.0
C925 C 0.21173 0.69519 0.40036 0.0
C926 C 0.16537 0.68415 0.45732 0.0
C927 C 0.15674 0.63591 0.46433 0.0
H928 H 0.1972 0.74943 0.42281 0.0
H929 H 0.15352 0.70057 0.47766 0.0
S930 S 0.19953 0.57108 0.40574 0.0
N931 N 0.21906 0.62465 0.38465 0.0
N932 N 0.17071 0.57244 0.442 0.0
C933 C 0.17564 0.61788 0.43818 0.0
C934 C 0.20252 0.64678 0.4068 0.0
C935 C 0.40465 0.18687 0.3554 0.0
C936 C 0.41149 0.23245 0.36555 0.0
C937 C 0.43792 0.16692 0.37474 0.0
C938 C 0.48076 0.19145 0.40485 0.0
H939 H 0.37253 0.16566 0.33332 0.0
H940 H 0.42934 0.13121 0.36646 0.0
S941 S 0.5184 0.31393 0.43933 0.0
N942 N 0.46648 0.30256 0.40616 0.0
N943 N 0.52836 0.26598 0.44112 0.0
C944 C 0.48875 0.23781 0.41374 0.0
C945 C 0.45456 0.25786 0.39462 0.0
C946 C 0.70995 0.8414 0.67564 0.0
C947 C 0.73428 0.85958 0.71853 0.0
C948 C 0.69574 0.86895 0.64051 0.0
C949 C 0.70579 0.91658 0.64596 0.0
H950 H 0.70235 0.80552 0.66876 0.0
H951 H 0.67785 0.8528 0.60816 0.0
S952 S 0.76729 0.98134 0.75213 0.0
N953 N 0.76648 0.92826 0.76506 0.0
N954 N 0.74066 0.98033 0.69857 0.0
C955 C 0.7296 0.93528 0.68887 0.0
C956 C 0.74345 0.90676 0.72517 0.0
C957 C 0.61377 0.98814 0.32924 0.0
C958 C 0.6479 1.01287 0.30528 0.0
C959 C 0.62207 1.00245 0.37299 0.0
C960 C 0.66728 0.03185 0.39505 0.0
H961 H 0.57824 0.97073 0.31165 0.0
H962 H 0.5929 0.99264 0.3882 0.0
S963 S 0.7719 0.04357 0.36006 0.0
N964 N 0.72916 0.02533 0.31514 0.0
N965 N 0.74864 0.04944 0.39949 0.0
C966 C 0.70364 0.03507 0.37679 0.0
C967 C 0.69308 0.0218 0.3316 0.0
C968 C 0.94132 0.59434 0.34064 0.0
C969 C 0.95074 0.64248 0.3364 0.0
C970 C 0.96563 0.57876 0.37913 0.0
C971 C 1.00341 0.61157 0.408 0.0
H972 H 0.90913 0.56906 0.32232 0.0
H973 H 0.95102 0.54252 0.38933 0.0
S974 S 0.06766 0.7334 0.37407 0.0
N975 N 1.01784 0.71559 0.33619 0.0
N976 N 0.06588 0.68881 0.40934 0.0
C977 C 1.0239 0.65652 0.39009 0.0
C978 C 0.99804 0.6709 0.35086 0.0
C979 C 0.4137 0.85633 0.45526 0.0
C980 C 0.39122 0.86712 0.41259 0.0
C981 C 0.4578 0.88697 0.47622 0.0
C982 C 0.48017 0.92981 0.45579 0.0
H983 H 0.39919 0.82226 0.47072 0.0
H984 H 0.4757 0.8758 0.50729 0.0
S985 S 0.43137 0.97964 0.3501 0.0
N986 N 0.39085 0.92728 0.35469 0.0
N987 N 0.47392 0.98541 0.39503 0.0
C988 C 0.45572 0.94383 0.41629 0.0
C989 C 0.41091 0.91231 0.39448 0.0
C990 C 0.23619 0.4542 0.44917 0.0
C991 C 0.28352 0.48276 0.46099 0.0
C992 C 0.2057 0.45574 0.47272 0.0
C993 C 0.22145 0.48595 0.50898 0.0
H994 H 0.22287 0.42902 0.42265 0.0
H995 H 0.16964 0.4325 0.46266 0.0
S996 S 0.34221 0.57068 0.55042 0.0
N997 N 0.34474 0.54396 0.50887 0.0
N998 N 0.28756 0.54734 0.55379 0.0
C999 C 0.26869 0.51602 0.52009 0.0
C1000 C 0.29971 0.51427 0.49595 0.0
C1001 C 0.43499 0.15099 0.6047 0.0
C1002 C 0.45186 0.20032 0.60643 0.0
C1003 C 0.45622 0.12847 0.58604 0.0
C1004 C 0.49589 0.15412 0.56936 0.0
H1005 H 0.40565 0.12945 0.61866 0.0
H1006 H 0.44204 0.09087 0.58556 0.0
S1007 S 0.54993 0.28371 0.55957 0.0
N1008 N 0.50741 0.27365 0.58412 0.0
N1009 N 0.54825 0.23181 0.55168 0.0
C1010 C 0.51203 0.20334 0.56949 0.0
C1011 C 0.48994 0.2262 0.58738 0.0
C1012 C 0.92741 0.37057 0.7144 0.0
C1013 C 0.90067 0.38737 0.73228 0.0
C1014 C 0.95588 0.39798 0.68432 0.0
C1015 C 0.95953 0.444 0.67043 0.0
H1016 H 0.92525 0.33522 0.72257 0.0
H1017 H 0.9734 0.38209 0.67026 0.0
S1018 S 0.89952 0.50646 0.70843 0.0
N1019 N 0.88259 0.45508 0.73422 0.0
N1020 N 0.93452 0.50505 0.67884 0.0
C1021 C 0.93408 0.46142 0.68911 0.0
C1022 C 0.90539 0.43384 0.71952 0.0
C1023 C 0.25434 0.68101 0.70732 0.0
C1024 C 0.27131 0.72902 0.69597 0.0
C1025 C 0.21365 0.64876 0.68061 0.0
C1026 C 0.18875 0.66362 0.64159 0.0
H1027 H 0.27047 0.66891 0.73885 0.0
H1028 H 0.19993 0.61284 0.69235 0.0
S1029 S 0.22513 0.78421 0.59275 0.0
N1030 N 0.26415 0.78854 0.64033 0.0
N1031 N 0.18948 0.72864 0.58913 0.0
C1032 C 0.2086 0.71081 0.62766 0.0
C1033 C 0.2494 0.74333 0.65508 0.0
loop_
_geom_bond_atom_site_label_1
_geom_bond_atom_site_label_2
_geom_bond_distance
_geom_bond_site_symmetry_2
_ccdc_geom_bond_type
C0 Eu1 2.835 . S
C0 C2 1.500 . S
C0 O20 1.257 . S
C0 O21 1.260 . S
Eu1 C0 2.835 . S
Eu1 O20 2.473 . S
Eu1 O21 2.480 . S
Eu1 O22 2.430 . S
Eu1 O23 2.670 . S
Eu1 O24 2.394 . S
Eu1 O29 2.355 . S
Eu1 O31 2.374 . S
C2 C0 1.500 . S
C2 C3 1.377 . S
C2 C7 1.377 . S
C3 C2 1.377 . S
C3 C4 1.395 . S
C3 H32 0.931 . S
C4 C3 1.395 . S
C4 C5 1.383 . S
C4 H33 0.931 . S
C5 C4 1.383 . S
C5 C6 1.394 . S
C6 C5 1.394 . S
C6 C7 1.378 . S
C6 H34 0.931 . S
C7 C2 1.377 . S
C7 C6 1.378 . S
C7 H35 0.931 . S
C8 O22 1.259 . S
C8 O23 1.270 . S
C9 O24 1.251 . S
C9 O25 1.251 . S
C10 Eu11 2.835 . S
C10 C12 1.500 . S
C10 O26 1.257 . S
C10 O27 1.260 . S
Eu11 C10 2.835 . S
Eu11 O23 2.355 . S
Eu11 O25 2.374 . S
Eu11 O26 2.473 . S
Eu11 O27 2.480 . S
Eu11 O28 2.430 . S
Eu11 O29 2.670 . S
Eu11 O30 2.394 . S
C12 C10 1.500 . S
C12 C13 1.377 . S
C12 C17 1.377 . S
C13 C12 1.377 . S
C13 C14 1.395 . S
C13 H36 0.931 . S
C14 C13 1.395 . S
C14 C15 1.383 . S
C14 H37 0.931 . S
C15 C14 1.383 . S
C15 C16 1.394 . S
C16 C15 1.394 . S
C16 C17 1.378 . S
C16 H38 0.931 . S
C17 C12 1.377 . S
C17 C16 1.378 . S
C17 H39 0.931 . S
C18 O28 1.259 . S
C18 O29 1.270 . S
C19 O30 1.251 . S
C19 O31 1.251 . S
O20 C0 1.257 . S
O20 Eu1 2.473 . S
O21 C0 1.260 . S
O21 Eu1 2.480 . S
O22 Eu1 2.430 . S
O22 C8 1.259 . S
O23 Eu1 2.670 . S
O23 C8 1.270 . S
O23 Eu11 2.355 . S
O24 Eu1 2.394 . S
O24 C9 1.251 . S
O25 C9 1.251 . S
O25 Eu11 2.374 . S
O26 C10 1.257 . S
O26 Eu11 2.473 . S
O27 C10 1.260 . S
O27 Eu11 2.480 . S
O28 Eu11 2.430 . S
O28 C18 1.259 . S
O29 Eu1 2.355 . S
O29 Eu11 2.670 . S
O29 C18 1.270 . S
O30 Eu11 2.394 . S
O30 C19 1.251 . S
O31 Eu1 2.374 . S
O31 C19 1.251 . S
H32 C3 0.931 . S
H33 C4 0.931 . S
H34 C6 0.931 . S
H35 C7 0.931 . S
H36 C13 0.931 . S
H37 C14 0.931 . S
H38 C16 0.931 . S
H39 C17 0.931 . S
C40 Eu41 2.835 . S
C40 C42 1.500 . S
C40 O60 1.257 . S
C40 O61 1.260 . S
Eu41 C40 2.835 . S
Eu41 O60 2.473 . S
Eu41 O61 2.480 . S
Eu41 O62 2.430 . S
Eu41 O63 2.670 . S
Eu41 O64 2.394 . S
Eu41 O69 2.355 . S
Eu41 O71 2.374 . S
C42 C40 1.500 . S
C42 C43 1.377 . S
C42 C47 1.377 . S
C43 C42 1.377 . S
C43 C44 1.395 . S
C43 H72 0.931 . S
C44 C43 1.395 . S
C44 C45 1.383 . S
C44 H73 0.931 . S
C45 C44 1.383 . S
C45 C46 1.394 . S
C46 C45 1.394 . S
C46 C47 1.378 . S
C46 H74 0.931 . S
C47 C42 1.377 . S
C47 C46 1.378 . S
C47 H75 0.931 . S
C48 O62 1.259 . S
C48 O63 1.270 . S
C49 O64 1.251 . S
C49 O65 1.251 . S
C50 Eu51 2.835 . S
C50 C52 1.500 . S
C50 O66 1.257 . S
C50 O67 1.260 . S
Eu51 C50 2.835 . S
Eu51 O63 2.355 . S
Eu51 O65 2.374 . S
Eu51 O66 2.473 . S
Eu51 O67 2.480 . S
Eu51 O68 2.430 . S
Eu51 O69 2.670 . S
Eu51 O70 2.394 . S
C52 C50 1.500 . S
C52 C53 1.377 . S
C52 C57 1.377 . S
C53 C52 1.377 . S
C53 C54 1.395 . S
C53 H76 0.931 . S
C54 C53 1.395 . S
C54 C55 1.383 . S
C54 H77 0.931 . S
C55 C54 1.383 . S
C55 C56 1.394 . S
C56 C55 1.394 . S
C56 C57 1.378 . S
C56 H78 0.931 . S
C57 C52 1.377 . S
C57 C56 1.378 . S
C57 H79 0.931 . S
C58 O68 1.259 . S
C58 O69 1.270 . S
C59 O70 1.251 . S
C59 O71 1.251 . S
O60 C40 1.257 . S
O60 Eu41 2.473 . S
O61 C40 1.260 . S
O61 Eu41 2.480 . S
O62 Eu41 2.430 . S
O62 C48 1.259 . S
O63 Eu41 2.670 . S
O63 C48 1.270 . S
O63 Eu51 2.355 . S
O64 Eu41 2.394 . S
O64 C49 1.251 . S
O65 C49 1.251 . S
O65 Eu51 2.374 . S
O66 C50 1.257 . S
O66 Eu51 2.473 . S
O67 C50 1.260 . S
O67 Eu51 2.480 . S
O68 Eu51 2.430 . S
O68 C58 1.259 . S
O69 Eu41 2.355 . S
O69 Eu51 2.670 . S
O69 C58 1.270 . S
O70 Eu51 2.394 . S
O70 C59 1.251 . S
O71 Eu41 2.374 . S
O71 C59 1.251 . S
H72 C43 0.931 . S
H73 C44 0.931 . S
H74 C46 0.931 . S
H75 C47 0.931 . S
H76 C53 0.931 . S
H77 C54 0.931 . S
H78 C56 0.931 . S
H79 C57 0.931 . S
C80 Eu81 2.835 . S
C80 C82 1.500 . S
C80 O100 1.257 . S
C80 O101 1.260 . S
Eu81 C80 2.835 . S
Eu81 O100 2.473 . S
Eu81 O101 2.480 . S
Eu81 O102 2.430 . S
Eu81 O103 2.670 . S
Eu81 O104 2.394 . S
Eu81 O109 2.355 . S
Eu81 O111 2.374 . S
C82 C80 1.500 . S
C82 C83 1.377 . S
C82 C87 1.377 . S
C83 C82 1.377 . S
C83 C84 1.395 . S
C83 H112 0.931 . S
C84 C83 1.395 . S
C84 C85 1.383 . S
C84 H113 0.931 . S
C85 C84 1.383 . S
C85 C86 1.394 . S
C86 C85 1.394 . S
C86 C87 1.378 . S
C86 H114 0.931 . S
C87 C82 1.377 . S
C87 C86 1.378 . S
C87 H115 0.931 . S
C88 O102 1.259 . S
C88 O103 1.270 . S
C89 O104 1.251 . S
C89 O105 1.251 . S
C90 Eu91 2.835 . S
C90 C92 1.500 . S
C90 O106 1.257 . S
C90 O107 1.260 . S
Eu91 C90 2.835 . S
Eu91 O103 2.355 . S
Eu91 O105 2.374 . S
Eu91 O106 2.473 . S
Eu91 O107 2.480 . S
Eu91 O108 2.430 . S
Eu91 O109 2.670 . S
Eu91 O110 2.394 . S
C92 C90 1.500 . S
C92 C93 1.377 . S
C92 C97 1.377 . S
C93 C92 1.377 . S
C93 C94 1.395 . S
C93 H116 0.931 . S
C94 C93 1.395 . S
C94 C95 1.383 . S
C94 H117 0.931 . S
C95 C94 1.383 . S
C95 C96 1.394 . S
C96 C95 1.394 . S
C96 C97 1.378 . S
C96 H118 0.931 . S
C97 C92 1.377 . S
C97 C96 1.378 . S
C97 H119 0.931 . S
C98 O108 1.259 . S
C98 O109 1.270 . S
C99 O110 1.251 . S
C99 O111 1.251 . S
O100 C80 1.257 . S
O100 Eu81 2.473 . S
O101 C80 1.260 . S
O101 Eu81 2.480 . S
O102 Eu81 2.430 . S
O102 C88 1.259 . S
O103 Eu81 2.670 . S
O103 C88 1.270 . S
O103 Eu91 2.355 . S
O104 Eu81 2.394 . S
O104 C89 1.251 . S
O105 C89 1.251 . S
O105 Eu91 2.374 . S
O106 C90 1.257 . S
O106 Eu91 2.473 . S
O107 C90 1.260 . S
O107 Eu91 2.480 . S
O108 Eu91 2.430 . S
O108 C98 1.259 . S
O109 Eu81 2.355 . S
O109 Eu91 2.670 . S
O109 C98 1.270 . S
O110 Eu91 2.394 . S
O110 C99 1.251 . S
O111 Eu81 2.374 . S
O111 C99 1.251 . S
H112 C83 0.931 . S
H113 C84 0.931 . S
H114 C86 0.931 . S
H115 C87 0.931 . S
H116 C93 0.931 . S
H117 C94 0.931 . S
H118 C96 0.931 . S
H119 C97 0.931 . S
C120 Eu121 2.835 . S
C120 C122 1.500 . S
C120 O140 1.257 . S
C120 O141 1.260 . S
Eu121 C120 2.835 . S
Eu121 O140 2.473 . S
Eu121 O141 2.480 . S
Eu121 O142 2.430 . S
Eu121 O143 2.670 . S
Eu121 O144 2.394 . S
Eu121 O149 2.355 . S
Eu121 O151 2.374 . S
C122 C120 1.500 . S
C122 C123 1.377 . S
C122 C127 1.377 . S
C123 C122 1.377 . S
C123 C124 1.395 . S
C123 H152 0.931 . S
C124 C123 1.395 . S
C124 C125 1.383 . S
C124 H153 0.931 . S
C125 C124 1.383 . S
C125 C126 1.394 . S
C126 C125 1.394 . S
C126 C127 1.378 . S
C126 H154 0.931 . S
C127 C122 1.377 . S
C127 C126 1.378 . S
C127 H155 0.931 . S
C128 O142 1.259 . S
C128 O143 1.270 . S
C129 O144 1.251 . S
C129 O145 1.251 . S
C130 Eu131 2.835 . S
C130 C132 1.500 . S
C130 O146 1.257 . S
C130 O147 1.260 . S
Eu131 C130 2.835 . S
Eu131 O143 2.355 . S
Eu131 O145 2.374 . S
Eu131 O146 2.473 . S
Eu131 O147 2.480 . S
Eu131 O148 2.430 . S
Eu131 O149 2.670 . S
Eu131 O150 2.394 . S
C132 C130 1.500 . S
C132 C133 1.377 . S
C132 C137 1.377 . S
C133 C132 1.377 . S
C133 C134 1.395 . S
C133 H156 0.931 . S
C134 C133 1.395 . S
C134 C135 1.383 . S
C134 H157 0.931 . S
C135 C134 1.383 . S
C135 C136 1.394 . S
C136 C135 1.394 . S
C136 C137 1.378 . S
C136 H158 0.931 . S
C137 C132 1.377 . S
C137 C136 1.378 . S
C137 H159 0.931 . S
C138 O148 1.259 . S
C138 O149 1.270 . S
C139 O150 1.251 . S
C139 O151 1.251 . S
O140 C120 1.257 . S
O140 Eu121 2.473 . S
O141 C120 1.260 . S
O141 Eu121 2.480 . S
O142 Eu121 2.430 . S
O142 C128 1.259 . S
O143 Eu121 2.670 . S
O143 C128 1.270 . S
O143 Eu131 2.355 . S
O144 Eu121 2.394 . S
O144 C129 1.251 . S
O145 C129 1.251 . S
O145 Eu131 2.374 . S
O146 C130 1.257 . S
O146 Eu131 2.473 . S
O147 C130 1.260 . S
O147 Eu131 2.480 . S
O148 Eu131 2.430 . S
O148 C138 1.259 . S
O149 Eu121 2.355 . S
O149 Eu131 2.670 . S
O149 C138 1.270 . S
O150 Eu131 2.394 . S
O150 C139 1.251 . S
O151 Eu121 2.374 . S
O151 C139 1.251 . S
H152 C123 0.931 . S
H153 C124 0.931 . S
H154 C126 0.931 . S
H155 C127 0.931 . S
H156 C133 0.931 . S
H157 C134 0.931 . S
H158 C136 0.931 . S
H159 C137 0.931 . S
C160 Eu161 2.835 . S
C160 C162 1.500 . S
C160 O180 1.257 . S
C160 O181 1.260 . S
Eu161 C160 2.835 . S
Eu161 O180 2.473 . S
Eu161 O181 2.480 . S
Eu161 O182 2.430 . S
Eu161 O183 2.670 . S
Eu161 O184 2.394 . S
Eu161 O189 2.355 . S
Eu161 O191 2.374 . S
C162 C160 1.500 . S
C162 C163 1.377 . S
C162 C167 1.377 . S
C163 C162 1.377 . S
C163 C164 1.395 . S
C163 H192 0.931 . S
C164 C163 1.395 . S
C164 C165 1.383 . S
C164 H193 0.931 . S
C165 C164 1.383 . S
C165 C166 1.394 . S
C166 C165 1.394 . S
C166 C167 1.378 . S
C166 H194 0.931 . S
C167 C162 1.377 . S
C167 C166 1.378 . S
C167 H195 0.931 . S
C168 O182 1.259 . S
C168 O183 1.270 . S
C169 O184 1.251 . S
C169 O185 1.251 . S
C170 Eu171 2.835 . S
C170 C172 1.500 . S
C170 O186 1.257 . S
C170 O187 1.260 . S
Eu171 C170 2.835 . S
Eu171 O183 2.355 . S
Eu171 O185 2.374 . S
Eu171 O186 2.473 . S
Eu171 O187 2.480 . S
Eu171 O188 2.430 . S
Eu171 O189 2.670 . S
Eu171 O190 2.394 . S
C172 C170 1.500 . S
C172 C173 1.377 . S
C172 C177 1.377 . S
C173 C172 1.377 . S
C173 C174 1.395 . S
C173 H196 0.931 . S
C174 C173 1.395 . S
C174 C175 1.383 . S
C174 H197 0.931 1_556 S
C175 C174 1.383 . S
C175 C176 1.394 . S
C176 C175 1.394 . S
C176 C177 1.378 . S
C176 H198 0.931 . S
C177 C172 1.377 . S
C177 C176 1.378 . S
C177 H199 0.931 . S
C178 O188 1.259 . S
C178 O189 1.270 . S
C179 O190 1.251 . S
C179 O191 1.251 . S
O180 C160 1.257 . S
O180 Eu161 2.473 . S
O181 C160 1.260 . S
O181 Eu161 2.480 . S
O182 Eu161 2.430 . S
O182 C168 1.259 . S
O183 Eu161 2.670 . S
O183 C168 1.270 . S
O183 Eu171 2.355 . S
O184 Eu161 2.394 . S
O184 C169 1.251 . S
O185 C169 1.251 . S
O185 Eu171 2.374 . S
O186 C170 1.257 . S
O186 Eu171 2.473 . S
O187 C170 1.260 . S
O187 Eu171 2.480 . S
O188 Eu171 2.430 . S
O188 C178 1.259 . S
O189 Eu161 2.355 . S
O189 Eu171 2.670 . S
O189 C178 1.270 . S
O190 Eu171 2.394 . S
O190 C179 1.251 . S
O191 Eu161 2.374 . S
O191 C179 1.251 . S
H192 C163 0.931 . S
H193 C164 0.931 . S
H194 C166 0.931 . S
H195 C167 0.931 . S
H196 C173 0.931 . S
H197 C174 0.931 1_554 S
H198 C176 0.931 . S
H199 C177 0.931 . S
C200 Eu201 2.835 . S
C200 C202 1.500 . S
C200 O220 1.257 . S
C200 O221 1.260 . S
Eu201 C200 2.835 . S
Eu201 O220 2.473 . S
Eu201 O221 2.480 . S
Eu201 O222 2.430 . S
Eu201 O223 2.670 . S
Eu201 O224 2.394 . S
Eu201 O229 2.355 . S
Eu201 O231 2.374 . S
C202 C200 1.500 . S
C202 C203 1.377 . S
C202 C207 1.377 . S
C203 C202 1.377 . S
C203 C204 1.395 . S
C203 H232 0.931 . S
C204 C203 1.395 . S
C204 C205 1.383 . S
C204 H233 0.931 . S
C205 C204 1.383 . S
C205 C206 1.394 . S
C206 C205 1.394 . S
C206 C207 1.378 . S
C206 H234 0.931 . S
C207 C202 1.377 . S
C207 C206 1.378 . S
C207 H235 0.931 . S
C208 O222 1.259 . S
C208 O223 1.270 . S
C209 O224 1.251 . S
C209 O225 1.251 . S
C210 Eu211 2.835 . S
C210 C212 1.500 . S
C210 O226 1.257 . S
C210 O227 1.260 . S
Eu211 C210 2.835 . S
Eu211 O223 2.355 . S
Eu211 O225 2.374 . S
Eu211 O226 2.473 . S
Eu211 O227 2.480 . S
Eu211 O228 2.430 . S
Eu211 O229 2.670 . S
Eu211 O230 2.394 . S
C212 C210 1.500 . S
C212 C213 1.377 . S
C212 C217 1.377 . S
C213 C212 1.377 . S
C213 C214 1.395 . S
C213 H236 0.931 . S
C214 C213 1.395 . S
C214 C215 1.383 . S
C214 H237 0.931 . S
C215 C214 1.383 . S
C215 C216 1.394 . S
C216 C215 1.394 . S
C216 C217 1.378 . S
C216 H238 0.931 . S
C217 C212 1.377 . S
C217 C216 1.378 . S
C217 H239 0.931 . S
C218 O228 1.259 . S
C218 O229 1.270 . S
C219 O230 1.251 . S
C219 O231 1.251 . S
O220 C200 1.257 . S
O220 Eu201 2.473 . S
O221 C200 1.260 . S
O221 Eu201 2.480 . S
O222 Eu201 2.430 . S
O222 C208 1.259 . S
O223 Eu201 2.670 . S
O223 C208 1.270 . S
O223 Eu211 2.355 . S
O224 Eu201 2.394 . S
O224 C209 1.251 . S
O225 C209 1.251 . S
O225 Eu211 2.374 . S
O226 C210 1.257 . S
O226 Eu211 2.473 . S
O227 C210 1.260 . S
O227 Eu211 2.480 . S
O228 Eu211 2.430 . S
O228 C218 1.259 . S
O229 Eu201 2.355 . S
O229 Eu211 2.670 . S
O229 C218 1.270 . S
O230 Eu211 2.394 . S
O230 C219 1.251 . S
O231 Eu201 2.374 . S
O231 C219 1.251 . S
H232 C203 0.931 . S
H233 C204 0.931 . S
H234 C206 0.931 . S
H235 C207 0.931 . S
H236 C213 0.931 . S
H237 C214 0.931 . S
H238 C216 0.931 . S
H239 C217 0.931 . S
C240 Eu241 2.835 . S
C240 C242 1.500 . S
C240 O260 1.257 . S
C240 O261 1.260 . S
Eu241 C240 2.835 . S
Eu241 O260 2.473 . S
Eu241 O261 2.480 . S
Eu241 O262 2.430 . S
Eu241 O263 2.670 . S
Eu241 O264 2.394 . S
Eu241 O269 2.355 . S
Eu241 O271 2.374 . S
C242 C240 1.500 . S
C242 C243 1.377 . S
C242 C247 1.377 . S
C243 C242 1.377 . S
C243 C244 1.395 . S
C243 H272 0.931 . S
C244 C243 1.395 . S
C244 C245 1.383 . S
C244 H273 0.931 . S
C245 C244 1.383 . S
C245 C246 1.394 . S
C246 C245 1.394 . S
C246 C247 1.378 . S
C246 H274 0.931 . S
C247 C242 1.377 . S
C247 C246 1.378 . S
C247 H275 0.931 . S
C248 O262 1.259 . S
C248 O263 1.270 . S
C249 O264 1.251 . S
C249 O265 1.251 . S
C250 Eu251 2.835 . S
C250 C252 1.500 . S
C250 O266 1.257 . S
C250 O267 1.260 . S
Eu251 C250 2.835 . S
Eu251 O263 2.355 . S
Eu251 O265 2.374 . S
Eu251 O266 2.473 . S
Eu251 O267 2.480 . S
Eu251 O268 2.430 . S
Eu251 O269 2.670 . S
Eu251 O270 2.394 . S
C252 C250 1.500 . S
C252 C253 1.377 . S
C252 C257 1.377 . S
C253 C252 1.377 . S
C253 C254 1.395 . S
C253 H276 0.931 . S
C254 C253 1.395 . S
C254 C255 1.383 . S
C254 H277 0.931 . S
C255 C254 1.383 . S
C255 C256 1.394 . S
C256 C255 1.394 . S
C256 C257 1.378 . S
C256 H278 0.931 . S
C257 C252 1.377 . S
C257 C256 1.378 . S
C257 H279 0.931 . S
C258 O268 1.259 . S
C258 O269 1.270 . S
C259 O270 1.251 . S
C259 O271 1.251 . S
O260 C240 1.257 . S
O260 Eu241 2.473 . S
O261 C240 1.260 . S
O261 Eu241 2.480 . S
O262 Eu241 2.430 . S
O262 C248 1.259 . S
O263 Eu241 2.670 . S
O263 C248 1.270 . S
O263 Eu251 2.355 . S
O264 Eu241 2.394 . S
O264 C249 1.251 . S
O265 C249 1.251 . S
O265 Eu251 2.374 . S
O266 C250 1.257 . S
O266 Eu251 2.473 . S
O267 C250 1.260 . S
O267 Eu251 2.480 . S
O268 Eu251 2.430 . S
O268 C258 1.259 . S
O269 Eu241 2.355 . S
O269 Eu251 2.670 . S
O269 C258 1.270 . S
O270 Eu251 2.394 . S
O270 C259 1.251 . S
O271 Eu241 2.374 . S
O271 C259 1.251 . S
H272 C243 0.931 . S
H273 C244 0.931 . S
H274 C246 0.931 . S
H275 C247 0.931 . S
H276 C253 0.931 . S
H277 C254 0.931 . S
H278 C256 0.931 . S
H279 C257 0.931 . S
C280 Eu281 2.835 . S
C280 C282 1.500 . S
C280 O300 1.257 . S
C280 O301 1.260 . S
Eu281 C280 2.835 . S
Eu281 O300 2.473 . S
Eu281 O301 2.480 . S
Eu281 O302 2.430 . S
Eu281 O303 2.670 . S
Eu281 O304 2.394 . S
Eu281 O309 2.355 . S
Eu281 O311 2.374 . S
C282 C280 1.500 . S
C282 C283 1.377 . S
C282 C287 1.377 . S
C283 C282 1.377 . S
C283 C284 1.395 . S
C283 H312 0.931 . S
C284 C283 1.395 . S
C284 C285 1.383 . S
C284 H313 0.931 1_565 S
C285 C284 1.383 . S
C285 C286 1.394 . S
C286 C285 1.394 . S
C286 C287 1.378 . S
C286 H314 0.931 . S
C287 C282 1.377 . S
C287 C286 1.378 . S
C287 H315 0.931 . S
C288 O302 1.259 . S
C288 O303 1.270 . S
C289 O304 1.251 . S
C289 O305 1.251 . S
C290 Eu291 2.835 . S
C290 C292 1.500 . S
C290 O306 1.257 . S
C290 O307 1.260 . S
Eu291 C290 2.835 . S
Eu291 O303 2.355 . S
Eu291 O305 2.374 . S
Eu291 O306 2.473 . S
Eu291 O307 2.480 . S
Eu291 O308 2.430 . S
Eu291 O309 2.670 . S
Eu291 O310 2.394 . S
C292 C290 1.500 . S
C292 C293 1.377 . S
C292 C297 1.377 . S
C293 C292 1.377 . S
C293 C294 1.395 . S
C293 H316 0.931 . S
C294 C293 1.395 . S
C294 C295 1.383 . S
C294 H317 0.931 . S
C295 C294 1.383 . S
C295 C296 1.394 . S
C296 C295 1.394 . S
C296 C297 1.378 . S
C296 H318 0.931 . S
C297 C292 1.377 . S
C297 C296 1.378 . S
C297 H319 0.931 . S
C298 O308 1.259 . S
C298 O309 1.270 . S
C299 O310 1.251 . S
C299 O311 1.251 . S
O300 C280 1.257 . S
O300 Eu281 2.473 . S
O301 C280 1.260 . S
O301 Eu281 2.480 . S
O302 Eu281 2.430 . S
O302 C288 1.259 . S
O303 Eu281 2.670 . S
O303 C288 1.270 . S
O303 Eu291 2.355 . S
O304 Eu281 2.394 . S
O304 C289 1.251 . S
O305 C289 1.251 . S
O305 Eu291 2.374 . S
O306 C290 1.257 . S
O306 Eu291 2.473 . S
O307 C290 1.260 . S
O307 Eu291 2.480 . S
O308 Eu291 2.430 . S
O308 C298 1.259 . S
O309 Eu281 2.355 . S
O309 Eu291 2.670 . S
O309 C298 1.270 . S
O310 Eu291 2.394 . S
O310 C299 1.251 . S
O311 Eu281 2.374 . S
O311 C299 1.251 . S
H312 C283 0.931 . S
H313 C284 0.931 1_545 S
H314 C286 0.931 . S
H315 C287 0.931 . S
H316 C293 0.931 . S
H317 C294 0.931 . S
H318 C296 0.931 . S
H319 C297 0.931 . S
C320 O332 1.241 . S
C320 O333 1.280 . S
C321 O334 1.277 . S
C321 O335 1.245 . S
C322 O346 1.247 . S
C322 O348 1.289 . S
Mg323 O324 1.926 1_455 S
Mg323 O333 1.984 1_455 S
Mg323 O335 1.988 1_455 S
Mg323 O336 2.061 . S
O324 Mg323 1.926 1_655 S
O324 Mg325 1.986 . S
O324 Mg326 1.917 1_655 S
Mg325 O324 1.986 . S
Mg325 O332 2.042 . S
Mg325 O334 2.041 . S
Mg325 O340 2.038 1_545 S
Mg325 O348 2.238 1_545 S
Mg326 O324 1.917 1_455 S
Mg326 O327 1.917 1_545 S
Mg326 O337 2.106 . S
Mg326 O339 2.079 1_445 S
Mg326 O348 2.106 1_445 S
Mg326 O349 2.079 . S
O327 Mg326 1.917 1_565 S
O327 Mg328 1.926 . S
O327 Mg329 1.986 1_565 S
Mg328 O327 1.926 . S
Mg328 O342 1.984 . S
Mg328 O345 1.988 . S
Mg328 O346 2.061 1_455 S
Mg329 O327 1.986 1_545 S
Mg329 O337 2.238 . S
Mg329 O341 2.042 1_545 S
Mg329 O343 2.041 1_545 S
Mg329 O350 2.038 . S
C330 O336 1.247 . S
C330 O337 1.289 . S
C331 O349 1.245 . S
C331 O350 1.274 . S
O332 C320 1.241 . S
O332 Mg325 2.042 . S
O333 C320 1.280 . S
O333 Mg323 1.984 1_655 S
O334 C321 1.277 . S
O334 Mg325 2.041 . S
O335 C321 1.245 . S
O335 Mg323 1.988 1_655 S
O336 Mg323 2.061 . S
O336 C330 1.247 . S
O337 Mg326 2.106 . S
O337 Mg329 2.238 . S
O337 C330 1.289 . S
C338 O339 1.245 . S
C338 O340 1.274 . S
O339 Mg326 2.079 1_665 S
O339 C338 1.245 . S
O340 Mg325 2.038 1_565 S
O340 C338 1.274 . S
O341 Mg329 2.042 1_565 S
O341 C344 1.241 . S
O342 Mg328 1.984 . S
O342 C344 1.280 . S
O343 Mg329 2.041 1_565 S
O343 C347 1.277 . S
C344 O341 1.241 . S
C344 O342 1.280 . S
O345 Mg328 1.988 . S
O345 C347 1.245 . S
O346 C322 1.247 . S
O346 Mg328 2.061 1_655 S
C347 O343 1.277 . S
C347 O345 1.245 . S
O348 C322 1.289 . S
O348 Mg325 2.238 1_565 S
O348 Mg326 2.106 1_665 S
O349 Mg326 2.079 . S
O349 C331 1.245 . S
O350 Mg329 2.038 . S
O350 C331 1.274 . S
C351 O363 1.241 . S
C351 O364 1.280 . S
C352 O365 1.277 . S
C352 O366 1.245 . S
C353 O377 1.247 . S
C353 O379 1.269 1_565 S
Mg354 O355 1.926 . S
Mg354 O364 1.984 . S
Mg354 O366 1.988 1_554 S
Mg354 O367 2.061 . S
O355 Mg354 1.926 . S
O355 Mg356 1.986 1_554 S
O355 Mg357 1.920 . S
Mg356 O355 1.986 1_556 S
Mg356 O363 2.042 1_556 S
Mg356 O365 2.041 . S
Mg356 O371 2.038 1_546 S
Mg356 O379 2.254 . S
Mg357 O355 1.920 . S
Mg357 O358 1.935 1_554 S
Mg357 O368 2.110 . S
Mg357 O370 2.085 1_545 S
Mg357 O379 2.107 1_554 S
Mg357 O380 2.072 1_554 S
O358 Mg357 1.935 1_556 S
O358 Mg359 1.903 1_545 S
O358 Mg360 1.991 1_556 S
Mg359 O358 1.903 1_565 S
Mg359 O373 1.984 . S
Mg359 O376 1.988 1_556 S
Mg359 O377 2.061 . S
Mg360 O358 1.991 1_554 S
Mg360 O368 2.238 . S
Mg360 O372 2.042 1_554 S
Mg360 O374 2.041 1_545 S
Mg360 O381 2.038 1_554 S
C361 O367 1.247 . S
C361 O368 1.289 . S
C362 O380 1.245 . S
C362 O381 1.274 . S
O363 C351 1.241 . S
O363 Mg356 2.042 1_554 S
O364 C351 1.280 . S
O364 Mg354 1.984 . S
O365 C352 1.277 . S
O365 Mg356 2.041 . S
O366 C352 1.245 . S
O366 Mg354 1.988 1_556 S
O367 Mg354 2.061 . S
O367 C361 1.247 . S
O368 Mg357 2.110 . S
O368 Mg360 2.238 . S
O368 C361 1.289 . S
C369 O370 1.245 . S
C369 O371 1.274 . S
O370 Mg357 2.085 1_565 S
O370 C369 1.245 . S
O371 Mg356 2.038 1_564 S
O371 C369 1.274 . S
O372 Mg360 2.042 1_556 S
O372 C375 1.241 1_545 S
O373 Mg359 1.984 . S
O373 C375 1.280 . S
O374 Mg360 2.041 1_565 S
O374 C378 1.277 . S
C375 O372 1.241 1_565 S
C375 O373 1.280 . S
O376 Mg359 1.988 1_554 S
O376 C378 1.245 . S
O377 C353 1.247 . S
O377 Mg359 2.061 . S
C378 O374 1.277 . S
C378 O376 1.245 . S
O379 C353 1.269 1_545 S
O379 Mg356 2.254 . S
O379 Mg357 2.107 1_556 S
O380 Mg357 2.072 1_556 S
O380 C362 1.245 . S
O381 Mg360 2.038 1_556 S
O381 C362 1.274 . S
C382 O394 1.241 . S
C382 O395 1.280 . S
C383 O396 1.277 . S
C383 O397 1.245 1_556 S
C384 O408 1.247 1_556 S
C384 O410 1.289 1_556 S
Mg385 O386 1.925 . S
Mg385 O395 2.008 . S
Mg385 O397 1.994 . S
Mg385 O398 2.040 1_655 S
O386 Mg385 1.925 . S
O386 Mg387 1.986 . S
O386 Mg388 1.917 1_655 S
Mg387 O386 1.986 . S
Mg387 O394 2.042 . S
Mg387 O396 2.041 1_554 S
Mg387 O402 2.038 . S
Mg387 O410 2.238 . S
Mg388 O386 1.917 1_455 S
Mg388 O389 1.917 . S
Mg388 O399 2.106 . S
Mg388 O401 2.079 1_455 S
Mg388 O410 2.106 1_455 S
Mg388 O411 2.079 . S
O389 Mg388 1.917 . S
O389 Mg390 1.926 . S
O389 Mg391 1.986 . S
Mg390 O389 1.926 . S
Mg390 O404 1.984 . S
Mg390 O407 1.988 . S
Mg390 O408 2.061 1_455 S
Mg391 O389 1.986 . S
Mg391 O399 2.238 . S
Mg391 O403 2.042 . S
Mg391 O405 2.041 . S
Mg391 O412 2.038 . S
C392 O398 1.247 . S
C392 O399 1.289 . S
C393 O411 1.245 . S
C393 O412 1.274 . S
O394 C382 1.241 . S
O394 Mg387 2.042 . S
O395 C382 1.280 . S
O395 Mg385 2.008 . S
O396 C383 1.277 . S
O396 Mg387 2.041 1_556 S
O397 C383 1.245 1_554 S
O397 Mg385 1.994 . S
O398 Mg385 2.040 1_455 S
O398 C392 1.247 . S
O399 Mg388 2.106 . S
O399 Mg391 2.238 . S
O399 C392 1.289 . S
C400 O401 1.245 . S
C400 O402 1.274 . S
O401 Mg388 2.079 1_655 S
O401 C400 1.245 . S
O402 Mg387 2.038 . S
O402 C400 1.274 . S
O403 Mg391 2.042 . S
O403 C406 1.241 . S
O404 Mg390 1.984 . S
O404 C406 1.280 . S
O405 Mg391 2.041 . S
O405 C409 1.277 . S
C406 O403 1.241 . S
C406 O404 1.280 . S
O407 Mg390 1.988 . S
O407 C409 1.245 . S
O408 C384 1.247 1_554 S
O408 Mg390 2.061 1_655 S
C409 O405 1.277 . S
C409 O407 1.245 . S
O410 C384 1.289 1_554 S
O410 Mg387 2.238 . S
O410 Mg388 2.106 1_655 S
O411 Mg388 2.079 . S
O411 C393 1.245 . S
O412 Mg391 2.038 . S
O412 C393 1.274 . S
C413 O425 1.241 . S
C413 O426 1.280 . S
C414 O427 1.277 . S
C414 O428 1.245 . S
C415 O439 1.247 . S
C415 O441 1.289 . S
Mg416 O417 1.926 . S
Mg416 O426 1.984 . S
Mg416 O428 1.988 1_554 S
Mg416 O429 2.061 . S
O417 Mg416 1.926 . S
O417 Mg418 1.986 . S
O417 Mg419 1.917 . S
Mg418 O417 1.986 . S
Mg418 O425 2.042 . S
Mg418 O427 2.041 1_554 S
Mg418 O433 2.038 . S
Mg418 O441 2.238 1_554 S
Mg419 O417 1.917 . S
Mg419 O420 1.917 . S
Mg419 O430 2.106 . S
Mg419 O432 2.079 . S
Mg419 O441 2.106 1_554 S
Mg419 O442 2.079 1_554 S
O420 Mg419 1.917 . S
O420 Mg421 1.926 . S
O420 Mg422 1.986 . S
Mg421 O420 1.926 . S
Mg421 O435 1.984 1_554 S
Mg421 O438 1.988 . S
Mg421 O439 2.061 1_554 S
Mg422 O420 1.986 . S
Mg422 O430 2.238 . S
Mg422 O434 2.042 . S
Mg422 O436 2.041 . S
Mg422 O443 2.038 . S
C423 O429 1.247 . S
C423 O430 1.289 . S
C424 O442 1.245 . S
C424 O443 1.274 1_556 S
O425 C413 1.241 . S
O425 Mg418 2.042 . S
O426 C413 1.280 . S
O426 Mg416 1.984 . S
O427 C414 1.277 . S
O427 Mg418 2.041 1_556 S
O428 C414 1.245 . S
O428 Mg416 1.988 1_556 S
O429 Mg416 2.061 . S
O429 C423 1.247 . S
O430 Mg419 2.106 . S
O430 Mg422 2.238 . S
O430 C423 1.289 . S
C431 O432 1.245 . S
C431 O433 1.274 . S
O432 Mg419 2.079 . S
O432 C431 1.245 . S
O433 Mg418 2.038 . S
O433 C431 1.274 . S
O434 Mg422 2.042 . S
O434 C437 1.241 1_554 S
O435 Mg421 1.984 1_556 S
O435 C437 1.280 . S
O436 Mg422 2.041 . S
O436 C440 1.277 . S
C437 O434 1.241 1_556 S
C437 O435 1.280 . S
O438 Mg421 1.988 . S
O438 C440 1.245 . S
O439 C415 1.247 . S
O439 Mg421 2.061 1_556 S
C440 O436 1.277 . S
C440 O438 1.245 . S
O441 C415 1.289 . S
O441 Mg418 2.238 1_556 S
O441 Mg419 2.106 1_556 S
O442 Mg419 2.079 1_556 S
O442 C424 1.245 . S
O443 Mg422 2.038 . S
O443 C424 1.274 1_554 S
C444 O456 1.241 . S
C444 O457 1.286 . S
C445 O458 1.277 . S
C445 O459 1.245 1_655 S
C446 O470 1.247 . S
C446 O472 1.289 . S
Mg447 O448 1.926 . S
Mg447 O457 1.977 1_455 S
Mg447 O459 1.988 . S
Mg447 O460 2.061 . S
O448 Mg447 1.926 . S
O448 Mg449 1.986 1_455 S
O448 Mg450 1.917 . S
Mg449 O448 1.986 1_655 S
Mg449 O456 2.042 . S
Mg449 O458 2.041 . S
Mg449 O464 2.038 . S
Mg449 O472 2.238 . S
Mg450 O448 1.917 . S
Mg450 O451 1.917 . S
Mg450 O461 2.106 . S
Mg450 O463 2.079 . S
Mg450 O472 2.106 1_455 S
Mg450 O473 2.079 . S
O451 Mg450 1.917 . S
O451 Mg452 1.926 . S
O451 Mg453 1.986 . S
Mg452 O451 1.926 . S
Mg452 O466 1.984 . S
Mg452 O469 1.988 . S
Mg452 O470 2.061 1_455 S
Mg453 O451 1.986 . S
Mg453 O461 2.238 . S
Mg453 O465 2.042 . S
Mg453 O467 2.041 . S
Mg453 O474 2.038 . S
C454 O460 1.247 . S
C454 O461 1.289 . S
C455 O473 1.245 . S
C455 O474 1.274 . S
O456 C444 1.241 . S
O456 Mg449 2.042 . S
O457 C444 1.286 . S
O457 Mg447 1.977 1_655 S
O458 C445 1.277 . S
O458 Mg449 2.041 . S
O459 C445 1.245 1_455 S
O459 Mg447 1.988 . S
O460 Mg447 2.061 . S
O460 C454 1.247 . S
O461 Mg450 2.106 . S
O461 Mg453 2.238 . S
O461 C454 1.289 . S
C462 O463 1.245 1_655 S
C462 O464 1.274 . S
O463 Mg450 2.079 . S
O463 C462 1.245 1_455 S
O464 Mg449 2.038 . S
O464 C462 1.274 . S
O465 Mg453 2.042 . S
O465 C468 1.241 . S
O466 Mg452 1.984 . S
O466 C468 1.280 . S
O467 Mg453 2.041 . S
O467 C471 1.277 . S
C468 O465 1.241 . S
C468 O466 1.280 . S
O469 Mg452 1.988 . S
O469 C471 1.245 . S
O470 C446 1.247 . S
O470 Mg452 2.061 1_655 S
C471 O467 1.277 . S
C471 O469 1.245 . S
O472 C446 1.289 . S
O472 Mg449 2.238 . S
O472 Mg450 2.106 1_655 S
O473 Mg450 2.079 . S
O473 C455 1.245 . S
O474 Mg453 2.038 . S
O474 C455 1.274 . S
C475 O487 1.241 . S
C475 O488 1.280 . S
C476 O489 1.277 . S
C476 O490 1.245 . S
C477 O501 1.247 . S
C477 O503 1.289 . S
Mg478 O479 1.926 . S
Mg478 O488 1.984 . S
Mg478 O490 1.988 . S
Mg478 O491 2.061 . S
O479 Mg478 1.926 . S
O479 Mg480 1.986 1_545 S
O479 Mg481 1.917 . S
Mg480 O479 1.986 1_565 S
Mg480 O487 2.042 1_565 S
Mg480 O489 2.041 1_565 S
Mg480 O495 2.038 . S
Mg480 O503 2.238 . S
Mg481 O479 1.917 . S
Mg481 O482 1.917 1_545 S
Mg481 O492 2.106 . S
Mg481 O494 2.079 1_545 S
Mg481 O503 2.106 1_545 S
Mg481 O504 2.079 . S
O482 Mg481 1.917 1_565 S
O482 Mg483 1.926 . S
O482 Mg484 1.986 1_565 S
Mg483 O482 1.926 . S
Mg483 O497 1.984 . S
Mg483 O500 1.988 . S
Mg483 O501 2.061 . S
Mg484 O482 1.986 1_545 S
Mg484 O492 2.238 . S
Mg484 O496 2.042 1_545 S
Mg484 O498 2.041 1_545 S
Mg484 O505 2.038 . S
C485 O491 1.247 . S
C485 O492 1.289 . S
C486 O504 1.245 . S
C486 O505 1.274 . S
O487 C475 1.241 . S
O487 Mg480 2.042 1_545 S
O488 C475 1.280 . S
O488 Mg478 1.984 . S
O489 C476 1.277 . S
O489 Mg480 2.041 1_545 S
O490 C476 1.245 . S
O490 Mg478 1.988 . S
O491 Mg478 2.061 . S
O491 C485 1.247 . S
O492 Mg481 2.106 . S
O492 Mg484 2.238 . S
O492 C485 1.289 . S
C493 O494 1.245 . S
C493 O495 1.274 . S
O494 Mg481 2.079 1_565 S
O494 C493 1.245 . S
O495 Mg480 2.038 . S
O495 C493 1.274 . S
O496 Mg484 2.042 1_565 S
O496 C499 1.241 . S
O497 Mg483 1.984 . S
O497 C499 1.280 . S
O498 Mg484 2.041 1_565 S
O498 C502 1.277 . S
C499 O496 1.241 . S
C499 O497 1.280 . S
O500 Mg483 1.988 . S
O500 C502 1.245 . S
O501 C477 1.247 . S
O501 Mg483 2.061 . S
C502 O498 1.277 . S
C502 O500 1.245 . S
O503 C477 1.289 . S
O503 Mg480 2.238 . S
O503 Mg481 2.106 1_565 S
O504 Mg481 2.079 . S
O504 C486 1.245 . S
O505 Mg484 2.038 . S
O505 C486 1.274 . S
C506 C507 1.369 . S
C506 C508 1.419 . S
C506 H510 0.930 . S
C507 C506 1.369 . S
C507 C516 1.429 . S
C508 C506 1.419 . S
C508 C509 1.363 . S
C508 H511 0.929 . S
C509 C508 1.363 . S
C509 C515 1.428 . S
H510 C506 0.930 . S
H511 C508 0.929 . S
S512 N513 1.613 . S
S512 N514 1.610 . S
N513 S512 1.613 . S
N513 C516 1.350 . S
N514 S512 1.610 . S
N514 C515 1.351 . S
C515 C509 1.428 . S
C515 N514 1.351 . S
C515 C516 1.434 . S
C516 C507 1.429 . S
C516 N513 1.350 . S
C516 C515 1.434 . S
C517 C518 1.369 . S
C517 C519 1.419 . S
C517 H521 0.930 . S
C518 C517 1.369 . S
C518 C527 1.429 . S
C519 C517 1.419 . S
C519 C520 1.363 . S
C519 H522 0.929 . S
C520 C519 1.363 . S
C520 C526 1.428 . S
H521 C517 0.930 . S
H522 C519 0.929 . S
S523 N524 1.613 . S
S523 N525 1.610 . S
N524 S523 1.613 . S
N524 C527 1.350 . S
N525 S523 1.610 . S
N525 C526 1.351 . S
C526 C520 1.428 . S
C526 N525 1.351 . S
C526 C527 1.434 . S
C527 C518 1.429 . S
C527 N524 1.350 . S
C527 C526 1.434 . S
C528 C529 1.369 . S
C528 C530 1.419 . S
C528 H532 0.930 . S
C529 C528 1.369 . S
C529 C538 1.429 . S
C530 C528 1.419 . S
C530 C531 1.363 . S
C530 H533 0.929 . S
C531 C530 1.363 . S
C531 C537 1.428 . S
H532 C528 0.930 . S
H533 C530 0.929 . S
S534 N535 1.613 . S
S534 N536 1.610 . S
N535 S534 1.613 . S
N535 C538 1.350 . S
N536 S534 1.610 . S
N536 C537 1.351 . S
C537 C531 1.428 . S
C537 N536 1.351 . S
C537 C538 1.434 . S
C538 C529 1.429 . S
C538 N535 1.350 . S
C538 C537 1.434 . S
C539 C540 1.369 . S
C539 C541 1.419 . S
C539 H543 0.930 . S
C540 C539 1.369 . S
C540 C549 1.429 . S
C541 C539 1.419 . S
C541 C542 1.363 . S
C541 H544 0.929 . S
C542 C541 1.363 . S
C542 C548 1.428 . S
H543 C539 0.930 . S
H544 C541 0.929 . S
S545 N546 1.613 . S
S545 N547 1.610 . S
N546 S545 1.613 . S
N546 C549 1.350 . S
N547 S545 1.610 . S
N547 C548 1.351 . S
C548 C542 1.428 . S
C548 N547 1.351 . S
C548 C549 1.434 . S
C549 C540 1.429 . S
C549 N546 1.350 . S
C549 C548 1.434 . S
C550 C551 1.369 . S
C550 C552 1.419 . S
C550 H554 0.930 . S
C551 C550 1.369 . S
C551 C560 1.429 . S
C552 C550 1.419 . S
C552 C553 1.363 . S
C552 H555 0.929 . S
C553 C552 1.363 . S
C553 C559 1.428 . S
H554 C550 0.930 . S
H555 C552 0.929 . S
S556 N557 1.613 . S
S556 N558 1.610 . S
N557 S556 1.613 . S
N557 C560 1.350 . S
N558 S556 1.610 . S
N558 C559 1.351 . S
C559 C553 1.428 . S
C559 N558 1.351 . S
C559 C560 1.434 . S
C560 C551 1.429 . S
C560 N557 1.350 . S
C560 C559 1.434 . S
C561 C562 1.369 . S
C561 C563 1.419 . S
C561 H565 0.930 . S
C562 C561 1.369 . S
C562 C571 1.429 . S
C563 C561 1.419 . S
C563 C564 1.363 . S
C563 H566 0.929 . S
C564 C563 1.363 . S
C564 C570 1.428 . S
H565 C561 0.930 . S
H566 C563 0.929 . S
S567 N568 1.613 . S
S567 N569 1.610 . S
N568 S567 1.613 . S
N568 C571 1.350 . S
N569 S567 1.610 . S
N569 C570 1.351 . S
C570 C564 1.428 . S
C570 N569 1.351 . S
C570 C571 1.434 . S
C571 C562 1.429 . S
C571 N568 1.350 . S
C571 C570 1.434 . S
C572 C573 1.369 . S
C572 C574 1.419 . S
C572 H576 0.930 . S
C573 C572 1.369 . S
C573 C582 1.429 . S
C574 C572 1.419 . S
C574 C575 1.363 . S
C574 H577 0.929 . S
C575 C574 1.363 . S
C575 C581 1.428 . S
H576 C572 0.930 . S
H577 C574 0.929 . S
S578 N579 1.613 . S
S578 N580 1.610 . S
N579 S578 1.613 . S
N579 C582 1.350 . S
N580 S578 1.610 . S
N580 C581 1.351 . S
C581 C575 1.428 . S
C581 N580 1.351 . S
C581 C582 1.434 . S
C582 C573 1.429 . S
C582 N579 1.350 . S
C582 C581 1.434 . S
C583 C584 1.369 . S
C583 C585 1.419 . S
C583 H587 0.930 . S
C584 C583 1.369 . S
C584 C593 1.429 . S
C585 C583 1.419 . S
C585 C586 1.363 . S
C585 H588 0.929 . S
C586 C585 1.363 . S
C586 C592 1.428 . S
H587 C583 0.930 . S
H588 C585 0.929 . S
S589 N590 1.613 . S
S589 N591 1.610 . S
N590 S589 1.613 . S
N590 C593 1.350 . S
N591 S589 1.610 . S
N591 C592 1.351 . S
C592 C586 1.428 . S
C592 N591 1.351 . S
C592 C593 1.434 . S
C593 C584 1.429 . S
C593 N590 1.350 . S
C593 C592 1.434 . S
C594 C595 1.369 . S
C594 C596 1.419 . S
C594 H598 0.930 . S
C595 C594 1.369 . S
C595 C604 1.429 . S
C596 C594 1.419 . S
C596 C597 1.363 . S
C596 H599 0.929 . S
C597 C596 1.363 . S
C597 C603 1.428 . S
H598 C594 0.930 . S
H599 C596 0.929 . S
S600 N601 1.613 . S
S600 N602 1.610 . S
N601 S600 1.613 . S
N601 C604 1.350 . S
N602 S600 1.610 . S
N602 C603 1.351 . S
C603 C597 1.428 . S
C603 N602 1.351 . S
C603 C604 1.434 . S
C604 C595 1.429 . S
C604 N601 1.350 . S
C604 C603 1.434 . S
C605 C606 1.369 . S
C605 C607 1.419 . S
C605 H609 0.930 . S
C606 C605 1.369 . S
C606 C615 1.429 . S
C607 C605 1.419 . S
C607 C608 1.363 . S
C607 H610 0.929 . S
C608 C607 1.363 . S
C608 C614 1.428 . S
H609 C605 0.930 . S
H610 C607 0.929 . S
S611 N612 1.613 . S
S611 N613 1.610 . S
N612 S611 1.613 . S
N612 C615 1.350 . S
N613 S611 1.610 . S
N613 C614 1.351 . S
C614 C608 1.428 . S
C614 N613 1.351 . S
C614 C615 1.434 . S
C615 C606 1.429 . S
C615 N612 1.350 . S
C615 C614 1.434 . S
C616 C617 1.369 . S
C616 C618 1.419 . S
C616 H620 0.930 . S
C617 C616 1.369 . S
C617 C626 1.429 . S
C618 C616 1.419 . S
C618 C619 1.363 . S
C618 H621 0.929 . S
C619 C618 1.363 . S
C619 C625 1.428 . S
H620 C616 0.930 . S
H621 C618 0.929 . S
S622 N623 1.613 . S
S622 N624 1.610 . S
N623 S622 1.613 . S
N623 C626 1.350 . S
N624 S622 1.610 . S
N624 C625 1.351 . S
C625 C619 1.428 . S
C625 N624 1.351 . S
C625 C626 1.434 . S
C626 C617 1.429 . S
C626 N623 1.350 . S
C626 C625 1.434 . S
C627 C628 1.369 . S
C627 C629 1.419 . S
C627 H631 0.930 . S
C628 C627 1.369 . S
C628 C637 1.429 . S
C629 C627 1.419 . S
C629 C630 1.363 . S
C629 H632 0.929 . S
C630 C629 1.363 . S
C630 C636 1.428 . S
H631 C627 0.930 . S
H632 C629 0.929 . S
S633 N634 1.613 . S
S633 N635 1.610 . S
N634 S633 1.613 . S
N634 C637 1.350 . S
N635 S633 1.610 . S
N635 C636 1.351 . S
C636 C630 1.428 . S
C636 N635 1.351 . S
C636 C637 1.434 . S
C637 C628 1.429 . S
C637 N634 1.350 . S
C637 C636 1.434 . S
C638 C639 1.369 . S
C638 C640 1.419 . S
C638 H642 0.930 . S
C639 C638 1.369 . S
C639 C648 1.429 . S
C640 C638 1.419 . S
C640 C641 1.363 . S
C640 H643 0.929 . S
C641 C640 1.363 . S
C641 C647 1.428 . S
H642 C638 0.930 . S
H643 C640 0.929 . S
S644 N645 1.613 . S
S644 N646 1.610 . S
N645 S644 1.613 . S
N645 C648 1.350 . S
N646 S644 1.610 . S
N646 C647 1.351 . S
C647 C641 1.428 . S
C647 N646 1.351 . S
C647 C648 1.434 . S
C648 C639 1.429 . S
C648 N645 1.350 . S
C648 C647 1.434 . S
C649 C650 1.369 . S
C649 C651 1.419 . S
C649 H653 0.930 . S
C650 C649 1.369 . S
C650 C659 1.429 . S
C651 C649 1.419 . S
C651 C652 1.363 . S
C651 H654 0.929 1_556 S
C652 C651 1.363 . S
C652 C658 1.428 . S
H653 C649 0.930 . S
H654 C651 0.929 1_554 S
S655 N656 1.613 . S
S655 N657 1.610 . S
N656 S655 1.613 . S
N656 C659 1.350 . S
N657 S655 1.610 . S
N657 C658 1.351 . S
C658 C652 1.428 . S
C658 N657 1.351 . S
C658 C659 1.434 . S
C659 C650 1.429 . S
C659 N656 1.350 . S
C659 C658 1.434 . S
C660 C661 1.369 . S
C660 C662 1.419 . S
C660 H664 0.930 . S
C661 C660 1.369 . S
C661 C670 1.429 . S
C662 C660 1.419 . S
C662 C663 1.363 . S
C662 H665 0.929 . S
C663 C662 1.363 . S
C663 C669 1.428 . S
H664 C660 0.930 . S
H665 C662 0.929 . S
S666 N667 1.613 . S
S666 N668 1.610 . S
N667 S666 1.613 . S
N667 C670 1.350 . S
N668 S666 1.610 . S
N668 C669 1.351 . S
C669 C663 1.428 . S
C669 N668 1.351 . S
C669 C670 1.434 . S
C670 C661 1.429 . S
C670 N667 1.350 . S
C670 C669 1.434 . S
C671 C672 1.369 . S
C671 C673 1.419 . S
C671 H675 0.930 . S
C672 C671 1.369 . S
C672 C681 1.429 . S
C673 C671 1.419 . S
C673 C674 1.363 . S
C673 H676 0.929 . S
C674 C673 1.363 . S
C674 C680 1.428 . S
H675 C671 0.930 . S
H676 C673 0.929 . S
S677 N678 1.613 . S
S677 N679 1.610 . S
N678 S677 1.613 . S
N678 C681 1.350 . S
N679 S677 1.610 . S
N679 C680 1.351 . S
C680 C674 1.428 . S
C680 N679 1.351 . S
C680 C681 1.434 . S
C681 C672 1.429 . S
C681 N678 1.350 . S
C681 C680 1.434 . S
C682 C683 1.369 . S
C682 C684 1.419 . S
C682 H686 0.930 . S
C683 C682 1.369 . S
C683 C692 1.429 . S
C684 C682 1.419 . S
C684 C685 1.363 . S
C684 H687 0.929 . S
C685 C684 1.363 . S
C685 C691 1.428 . S
H686 C682 0.930 . S
H687 C684 0.929 . S
S688 N689 1.613 . S
S688 N690 1.610 . S
N689 S688 1.613 . S
N689 C692 1.350 . S
N690 S688 1.610 . S
N690 C691 1.351 . S
C691 C685 1.428 . S
C691 N690 1.351 . S
C691 C692 1.434 . S
C692 C683 1.429 . S
C692 N689 1.350 . S
C692 C691 1.434 . S
C693 C694 1.369 . S
C693 C695 1.419 . S
C693 H697 0.930 . S
C694 C693 1.369 . S
C694 C703 1.429 . S
C695 C693 1.419 . S
C695 C696 1.363 . S
C695 H698 0.929 . S
C696 C695 1.363 . S
C696 C702 1.428 . S
H697 C693 0.930 . S
H698 C695 0.929 . S
S699 N700 1.613 . S
S699 N701 1.610 . S
N700 S699 1.613 . S
N700 C703 1.350 1_554 S
N701 S699 1.610 . S
N701 C702 1.351 1_554 S
C702 C696 1.428 . S
C702 N701 1.351 1_556 S
C702 C703 1.434 . S
C703 C694 1.429 . S
C703 N700 1.350 1_556 S
C703 C702 1.434 . S
C704 C705 1.369 . S
C704 C706 1.419 . S
C704 H708 0.930 . S
C705 C704 1.369 . S
C705 C714 1.429 . S
C706 C704 1.419 . S
C706 C707 1.363 . S
C706 H709 0.929 . S
C707 C706 1.363 . S
C707 C713 1.428 . S
H708 C704 0.930 . S
H709 C706 0.929 . S
S710 N711 1.613 . S
S710 N712 1.610 . S
N711 S710 1.613 . S
N711 C714 1.350 . S
N712 S710 1.610 . S
N712 C713 1.351 . S
C713 C707 1.428 . S
C713 N712 1.351 . S
C713 C714 1.434 . S
C714 C705 1.429 . S
C714 N711 1.350 . S
C714 C713 1.434 . S
C715 C716 1.369 . S
C715 C717 1.419 . S
C715 H719 0.930 . S
C716 C715 1.369 . S
C716 C725 1.429 . S
C717 C715 1.419 . S
C717 C718 1.363 . S
C717 H720 0.929 . S
C718 C717 1.363 . S
C718 C724 1.428 . S
H719 C715 0.930 . S
H720 C717 0.929 . S
S721 N722 1.613 . S
S721 N723 1.610 . S
N722 S721 1.613 . S
N722 C725 1.350 . S
N723 S721 1.610 . S
N723 C724 1.351 . S
C724 C718 1.428 . S
C724 N723 1.351 . S
C724 C725 1.434 . S
C725 C716 1.429 . S
C725 N722 1.350 . S
C725 C724 1.434 . S
C726 C727 1.369 . S
C726 C728 1.419 . S
C726 H730 0.930 . S
C727 C726 1.369 . S
C727 C736 1.429 . S
C728 C726 1.419 . S
C728 C729 1.363 . S
C728 H731 0.929 . S
C729 C728 1.363 . S
C729 C735 1.428 . S
H730 C726 0.930 . S
H731 C728 0.929 . S
S732 N733 1.613 1_554 S
S732 N734 1.610 1_554 S
N733 S732 1.613 1_556 S
N733 C736 1.350 1_545 S
N734 S732 1.610 1_556 S
N734 C735 1.351 1_545 S
C735 C729 1.428 . S
C735 N734 1.351 1_565 S
C735 C736 1.434 . S
C736 C727 1.429 . S
C736 N733 1.350 1_565 S
C736 C735 1.434 . S
C737 C738 1.369 . S
C737 C739 1.419 . S
C737 H741 0.930 . S
C738 C737 1.369 . S
C738 C747 1.429 . S
C739 C737 1.419 . S
C739 C740 1.363 . S
C739 H742 0.929 . S
C740 C739 1.363 . S
C740 C746 1.428 . S
H741 C737 0.930 . S
H742 C739 0.929 . S
S743 N744 1.613 . S
S743 N745 1.610 . S
N744 S743 1.613 . S
N744 C747 1.350 . S
N745 S743 1.610 . S
N745 C746 1.351 . S
C746 C740 1.428 . S
C746 N745 1.351 . S
C746 C747 1.434 . S
C747 C738 1.429 . S
C747 N744 1.350 . S
C747 C746 1.434 . S
C748 C749 1.369 . S
C748 C750 1.419 . S
C748 H752 0.930 . S
C749 C748 1.369 . S
C749 C758 1.429 . S
C750 C748 1.419 . S
C750 C751 1.363 . S
C750 H753 0.929 . S
C751 C750 1.363 . S
C751 C757 1.428 . S
H752 C748 0.930 . S
H753 C750 0.929 . S
S754 N755 1.613 . S
S754 N756 1.610 . S
N755 S754 1.613 . S
N755 C758 1.350 . S
N756 S754 1.610 . S
N756 C757 1.351 . S
C757 C751 1.428 . S
C757 N756 1.351 . S
C757 C758 1.434 . S
C758 C749 1.429 . S
C758 N755 1.350 . S
C758 C757 1.434 . S
C759 C760 1.369 . S
C759 C761 1.419 . S
C759 H763 0.930 . S
C760 C759 1.369 . S
C760 C769 1.429 . S
C761 C759 1.419 . S
C761 C762 1.363 . S
C761 H764 0.929 . S
C762 C761 1.363 . S
C762 C768 1.428 . S
H763 C759 0.930 . S
H764 C761 0.929 . S
S765 N766 1.613 . S
S765 N767 1.610 . S
N766 S765 1.613 . S
N766 C769 1.350 . S
N767 S765 1.610 . S
N767 C768 1.351 . S
C768 C762 1.428 . S
C768 N767 1.351 . S
C768 C769 1.434 . S
C769 C760 1.429 . S
C769 N766 1.350 . S
C769 C768 1.434 . S
C770 C771 1.369 . S
C770 C772 1.419 . S
C770 H774 0.930 . S
C771 C770 1.369 . S
C771 C780 1.429 . S
C772 C770 1.419 . S
C772 C773 1.363 . S
C772 H775 0.929 . S
C773 C772 1.363 . S
C773 C779 1.428 . S
H774 C770 0.930 . S
H775 C772 0.929 . S
S776 N777 1.613 . S
S776 N778 1.610 . S
N777 S776 1.613 . S
N777 C780 1.350 . S
N778 S776 1.610 . S
N778 C779 1.351 . S
C779 C773 1.428 . S
C779 N778 1.351 . S
C779 C780 1.434 . S
C780 C771 1.429 . S
C780 N777 1.350 . S
C780 C779 1.434 . S
C781 C782 1.369 . S
C781 C783 1.419 . S
C781 H785 0.930 . S
C782 C781 1.369 . S
C782 C791 1.429 . S
C783 C781 1.419 . S
C783 C784 1.363 . S
C783 H786 0.929 . S
C784 C783 1.363 . S
C784 C790 1.428 . S
H785 C781 0.930 . S
H786 C783 0.929 . S
S787 N788 1.613 . S
S787 N789 1.610 . S
N788 S787 1.613 . S
N788 C791 1.350 . S
N789 S787 1.610 . S
N789 C790 1.351 . S
C790 C784 1.428 . S
C790 N789 1.351 . S
C790 C791 1.434 . S
C791 C782 1.429 . S
C791 N788 1.350 . S
C791 C790 1.434 . S
C792 C793 1.369 . S
C792 C794 1.419 . S
C792 H796 0.930 . S
C793 C792 1.369 . S
C793 C802 1.429 . S
C794 C792 1.419 . S
C794 C795 1.363 . S
C794 H797 0.929 . S
C795 C794 1.363 . S
C795 C801 1.428 . S
H796 C792 0.930 . S
H797 C794 0.929 . S
S798 N799 1.613 . S
S798 N800 1.610 . S
N799 S798 1.613 . S
N799 C802 1.350 . S
N800 S798 1.610 . S
N800 C801 1.351 . S
C801 C795 1.428 . S
C801 N800 1.351 . S
C801 C802 1.434 . S
C802 C793 1.429 . S
C802 N799 1.350 . S
C802 C801 1.434 . S
C803 C804 1.369 . S
C803 C805 1.419 . S
C803 H807 0.930 . S
C804 C803 1.369 . S
C804 C813 1.429 . S
C805 C803 1.419 . S
C805 C806 1.363 . S
C805 H808 0.929 . S
C806 C805 1.363 . S
C806 C812 1.428 . S
H807 C803 0.930 . S
H808 C805 0.929 . S
S809 N810 1.613 . S
S809 N811 1.610 . S
N810 S809 1.613 . S
N810 C813 1.350 . S
N811 S809 1.610 . S
N811 C812 1.351 . S
C812 C806 1.428 . S
C812 N811 1.351 . S
C812 C813 1.434 . S
C813 C804 1.429 . S
C813 N810 1.350 . S
C813 C812 1.434 . S
C814 C815 1.369 . S
C814 C816 1.419 . S
C814 H818 0.930 . S
C815 C814 1.369 . S
C815 C824 1.429 . S
C816 C814 1.419 . S
C816 C817 1.363 . S
C816 H819 0.929 . S
C817 C816 1.363 . S
C817 C823 1.428 . S
H818 C814 0.930 . S
H819 C816 0.929 . S
S820 N821 1.613 . S
S820 N822 1.610 . S
N821 S820 1.613 . S
N821 C824 1.350 . S
N822 S820 1.610 . S
N822 C823 1.351 . S
C823 C817 1.428 . S
C823 N822 1.351 . S
C823 C824 1.434 . S
C824 C815 1.429 . S
C824 N821 1.350 . S
C824 C823 1.434 . S
C825 C826 1.369 . S
C825 C827 1.419 . S
C825 H829 0.930 . S
C826 C825 1.369 . S
C826 C835 1.429 . S
C827 C825 1.419 . S
C827 C828 1.363 . S
C827 H830 0.929 . S
C828 C827 1.363 . S
C828 C834 1.428 . S
H829 C825 0.930 . S
H830 C827 0.929 . S
S831 N832 1.613 . S
S831 N833 1.610 . S
N832 S831 1.613 . S
N832 C835 1.350 . S
N833 S831 1.610 . S
N833 C834 1.351 . S
C834 C828 1.428 . S
C834 N833 1.351 . S
C834 C835 1.434 . S
C835 C826 1.429 . S
C835 N832 1.350 . S
C835 C834 1.434 . S
C836 C837 1.369 . S
C836 C838 1.419 . S
C836 H840 0.930 . S
C837 C836 1.369 . S
C837 C846 1.429 . S
C838 C836 1.419 . S
C838 C839 1.363 . S
C838 H841 0.929 . S
C839 C838 1.363 . S
C839 C845 1.428 . S
H840 C836 0.930 . S
H841 C838 0.929 . S
S842 N843 1.613 . S
S842 N844 1.610 . S
N843 S842 1.613 . S
N843 C846 1.350 . S
N844 S842 1.610 . S
N844 C845 1.351 . S
C845 C839 1.428 . S
C845 N844 1.351 . S
C845 C846 1.434 . S
C846 C837 1.429 . S
C846 N843 1.350 . S
C846 C845 1.434 . S
C847 C848 1.369 . S
C847 C849 1.419 . S
C847 H851 0.930 . S
C848 C847 1.369 . S
C848 C857 1.429 . S
C849 C847 1.419 . S
C849 C850 1.363 . S
C849 H852 0.929 . S
C850 C849 1.363 . S
C850 C856 1.428 . S
H851 C847 0.930 . S
H852 C849 0.929 . S
S853 N854 1.613 . S
S853 N855 1.610 . S
N854 S853 1.613 . S
N854 C857 1.350 . S
N855 S853 1.610 . S
N855 C856 1.351 . S
C856 C850 1.428 . S
C856 N855 1.351 . S
C856 C857 1.434 . S
C857 C848 1.429 . S
C857 N854 1.350 . S
C857 C856 1.434 . S
C858 C859 1.369 . S
C858 C860 1.419 . S
C858 H862 0.930 . S
C859 C858 1.369 . S
C859 C868 1.429 . S
C860 C858 1.419 . S
C860 C861 1.363 . S
C860 H863 0.929 . S
C861 C860 1.363 . S
C861 C867 1.428 . S
H862 C858 0.930 . S
H863 C860 0.929 . S
S864 N865 1.613 . S
S864 N866 1.610 . S
N865 S864 1.613 . S
N865 C868 1.350 . S
N866 S864 1.610 . S
N866 C867 1.351 . S
C867 C861 1.428 . S
C867 N866 1.351 . S
C867 C868 1.434 . S
C868 C859 1.429 . S
C868 N865 1.350 . S
C868 C867 1.434 . S
C869 C870 1.369 . S
C869 C871 1.419 . S
C869 H873 0.930 . S
C870 C869 1.369 . S
C870 C879 1.429 . S
C871 C869 1.419 . S
C871 C872 1.363 . S
C871 H874 0.929 . S
C872 C871 1.363 . S
C872 C878 1.428 . S
H873 C869 0.930 . S
H874 C871 0.929 . S
S875 N876 1.613 . S
S875 N877 1.610 . S
N876 S875 1.613 . S
N876 C879 1.350 . S
N877 S875 1.610 . S
N877 C878 1.351 . S
C878 C872 1.428 . S
C878 N877 1.351 . S
C878 C879 1.434 . S
C879 C870 1.429 . S
C879 N876 1.350 . S
C879 C878 1.434 . S
C880 C881 1.369 . S
C880 C882 1.419 . S
C880 H884 0.930 . S
C881 C880 1.369 . S
C881 C890 1.429 . S
C882 C880 1.419 . S
C882 C883 1.363 . S
C882 H885 0.929 . S
C883 C882 1.363 . S
C883 C889 1.428 . S
H884 C880 0.930 . S
H885 C882 0.929 . S
S886 N887 1.613 . S
S886 N888 1.610 . S
N887 S886 1.613 . S
N887 C890 1.350 . S
N888 S886 1.610 . S
N888 C889 1.351 . S
C889 C883 1.428 . S
C889 N888 1.351 . S
C889 C890 1.434 . S
C890 C881 1.429 . S
C890 N887 1.350 . S
C890 C889 1.434 . S
C891 C892 1.369 . S
C891 C893 1.419 . S
C891 H895 0.930 . S
C892 C891 1.369 . S
C892 C901 1.429 . S
C893 C891 1.419 . S
C893 C894 1.363 . S
C893 H896 0.929 . S
C894 C893 1.363 . S
C894 C900 1.428 . S
H895 C891 0.930 . S
H896 C893 0.929 . S
S897 N898 1.613 . S
S897 N899 1.610 . S
N898 S897 1.613 . S
N898 C901 1.350 . S
N899 S897 1.610 . S
N899 C900 1.351 . S
C900 C894 1.428 . S
C900 N899 1.351 . S
C900 C901 1.434 . S
C901 C892 1.429 . S
C901 N898 1.350 . S
C901 C900 1.434 . S
C902 C903 1.369 . S
C902 C904 1.419 . S
C902 H906 0.930 . S
C903 C902 1.369 . S
C903 C912 1.429 . S
C904 C902 1.419 . S
C904 C905 1.363 . S
C904 H907 0.929 . S
C905 C904 1.363 . S
C905 C911 1.428 . S
H906 C902 0.930 . S
H907 C904 0.929 . S
S908 N909 1.613 . S
S908 N910 1.610 . S
N909 S908 1.613 . S
N909 C912 1.350 . S
N910 S908 1.610 . S
N910 C911 1.351 . S
C911 C905 1.428 . S
C911 N910 1.351 . S
C911 C912 1.434 . S
C912 C903 1.429 . S
C912 N909 1.350 . S
C912 C911 1.434 . S
C913 C914 1.369 . S
C913 C915 1.419 . S
C913 H917 0.930 . S
C914 C913 1.369 . S
C914 C923 1.429 . S
C915 C913 1.419 . S
C915 C916 1.363 . S
C915 H918 0.929 . S
C916 C915 1.363 . S
C916 C922 1.428 . S
H917 C913 0.930 . S
H918 C915 0.929 . S
S919 N920 1.613 . S
S919 N921 1.610 . S
N920 S919 1.613 . S
N920 C923 1.350 . S
N921 S919 1.610 . S
N921 C922 1.351 . S
C922 C916 1.428 . S
C922 N921 1.351 . S
C922 C923 1.434 . S
C923 C914 1.429 . S
C923 N920 1.350 . S
C923 C922 1.434 . S
C924 C925 1.369 . S
C924 C926 1.419 . S
C924 H928 0.930 . S
C925 C924 1.369 . S
C925 C934 1.429 . S
C926 C924 1.419 . S
C926 C927 1.363 . S
C926 H929 0.929 . S
C927 C926 1.363 . S
C927 C933 1.428 . S
H928 C924 0.930 . S
H929 C926 0.929 . S
S930 N931 1.613 . S
S930 N932 1.610 . S
N931 S930 1.613 . S
N931 C934 1.350 . S
N932 S930 1.610 . S
N932 C933 1.351 . S
C933 C927 1.428 . S
C933 N932 1.351 . S
C933 C934 1.434 . S
C934 C925 1.429 . S
C934 N931 1.350 . S
C934 C933 1.434 . S
C935 C936 1.369 . S
C935 C937 1.419 . S
C935 H939 0.930 . S
C936 C935 1.369 . S
C936 C945 1.429 . S
C937 C935 1.419 . S
C937 C938 1.363 . S
C937 H940 0.929 . S
C938 C937 1.363 . S
C938 C944 1.428 . S
H939 C935 0.930 . S
H940 C937 0.929 . S
S941 N942 1.613 . S
S941 N943 1.610 . S
N942 S941 1.613 . S
N942 C945 1.350 . S
N943 S941 1.610 . S
N943 C944 1.351 . S
C944 C938 1.428 . S
C944 N943 1.351 . S
C944 C945 1.434 . S
C945 C936 1.429 . S
C945 N942 1.350 . S
C945 C944 1.434 . S
C946 C947 1.369 . S
C946 C948 1.419 . S
C946 H950 0.930 . S
C947 C946 1.369 . S
C947 C956 1.429 . S
C948 C946 1.419 . S
C948 C949 1.363 . S
C948 H951 0.929 . S
C949 C948 1.363 . S
C949 C955 1.428 . S
H950 C946 0.930 . S
H951 C948 0.929 . S
S952 N953 1.613 . S
S952 N954 1.610 . S
N953 S952 1.613 . S
N953 C956 1.350 . S
N954 S952 1.610 . S
N954 C955 1.351 . S
C955 C949 1.428 . S
C955 N954 1.351 . S
C955 C956 1.434 . S
C956 C947 1.429 . S
C956 N953 1.350 . S
C956 C955 1.434 . S
C957 C958 1.369 . S
C957 C959 1.419 . S
C957 H961 0.930 . S
C958 C957 1.369 . S
C958 C967 1.429 . S
C959 C957 1.419 . S
C959 C960 1.363 . S
C959 H962 0.929 . S
C960 C959 1.363 . S
C960 C966 1.428 . S
H961 C957 0.930 . S
H962 C959 0.929 . S
S963 N964 1.613 1_565 S
S963 N965 1.610 1_565 S
N964 S963 1.613 1_545 S
N964 C967 1.350 . S
N965 S963 1.610 1_545 S
N965 C966 1.351 . S
C966 C960 1.428 . S
C966 N965 1.351 . S
C966 C967 1.434 . S
C967 C958 1.429 . S
C967 N964 1.350 . S
C967 C966 1.434 . S
C968 C969 1.369 . S
C968 C970 1.419 . S
C968 H972 0.930 . S
C969 C968 1.369 . S
C969 C978 1.429 . S
C970 C968 1.419 . S
C970 C971 1.363 . S
C970 H973 0.929 . S
C971 C970 1.363 . S
C971 C977 1.428 . S
H972 C968 0.930 . S
H973 C970 0.929 . S
S974 N975 1.613 . S
S974 N976 1.610 . S
N975 S974 1.613 . S
N975 C978 1.350 . S
N976 S974 1.610 . S
N976 C977 1.351 . S
C977 C971 1.428 . S
C977 N976 1.351 . S
C977 C978 1.434 . S
C978 C969 1.429 . S
C978 N975 1.350 . S
C978 C977 1.434 . S
C979 C980 1.369 . S
C979 C981 1.419 . S
C979 H983 0.930 . S
C980 C979 1.369 . S
C980 C989 1.429 . S
C981 C979 1.419 . S
C981 C982 1.363 . S
C981 H984 0.929 . S
C982 C981 1.363 . S
C982 C988 1.428 . S
H983 C979 0.930 . S
H984 C981 0.929 . S
S985 N986 1.613 . S
S985 N987 1.610 . S
N986 S985 1.613 . S
N986 C989 1.350 . S
N987 S985 1.610 . S
N987 C988 1.351 . S
C988 C982 1.428 . S
C988 N987 1.351 . S
C988 C989 1.434 . S
C989 C980 1.429 . S
C989 N986 1.350 . S
C989 C988 1.434 . S
C990 C991 1.369 . S
C990 C992 1.419 . S
C990 H994 0.930 . S
C991 C990 1.369 . S
C991 C1000 1.429 . S
C992 C990 1.419 . S
C992 C993 1.363 . S
C992 H995 0.929 . S
C993 C992 1.363 . S
C993 C999 1.428 . S
H994 C990 0.930 . S
H995 C992 0.929 . S
S996 N997 1.613 . S
S996 N998 1.610 . S
N997 S996 1.613 . S
N997 C1000 1.350 . S
N998 S996 1.610 . S
N998 C999 1.351 . S
C999 C993 1.428 . S
C999 N998 1.351 . S
C999 C1000 1.434 . S
C1000 C991 1.429 . S
C1000 N997 1.350 . S
C1000 C999 1.434 . S
C1001 C1002 1.369 . S
C1001 C1003 1.419 . S
C1001 H1005 0.930 . S
C1002 C1001 1.369 . S
C1002 C1011 1.429 . S
C1003 C1001 1.419 . S
C1003 C1004 1.363 . S
C1003 H1006 0.929 . S
C1004 C1003 1.363 . S
C1004 C1010 1.428 . S
H1005 C1001 0.930 . S
H1006 C1003 0.929 . S
S1007 N1008 1.613 . S
S1007 N1009 1.610 . S
N1008 S1007 1.613 . S
N1008 C1011 1.350 . S
N1009 S1007 1.610 . S
N1009 C1010 1.351 . S
C1010 C1004 1.428 . S
C1010 N1009 1.351 . S
C1010 C1011 1.434 . S
C1011 C1002 1.429 . S
C1011 N1008 1.350 . S
C1011 C1010 1.434 . S
C1012 C1013 1.369 . S
C1012 C1014 1.419 . S
C1012 H1016 0.930 . S
C1013 C1012 1.369 . S
C1013 C1022 1.429 . S
C1014 C1012 1.419 . S
C1014 C1015 1.363 . S
C1014 H1017 0.929 . S
C1015 C1014 1.363 . S
C1015 C1021 1.428 . S
H1016 C1012 0.930 . S
H1017 C1014 0.929 . S
S1018 N1019 1.613 . S
S1018 N1020 1.610 . S
N1019 S1018 1.613 . S
N1019 C1022 1.350 . S
N1020 S1018 1.610 . S
N1020 C1021 1.351 . S
C1021 C1015 1.428 . S
C1021 N1020 1.351 . S
C1021 C1022 1.434 . S
C1022 C1013 1.429 . S
C1022 N1019 1.350 . S
C1022 C1021 1.434 . S
C1023 C1024 1.369 . S
C1023 C1025 1.419 . S
C1023 H1027 0.930 . S
C1024 C1023 1.369 . S
C1024 C1033 1.429 . S
C1025 C1023 1.419 . S
C1025 C1026 1.363 . S
C1025 H1028 0.929 . S
C1026 C1025 1.363 . S
C1026 C1032 1.428 . S
H1027 C1023 0.930 . S
H1028 C1025 0.929 . S
S1029 N1030 1.613 . S
S1029 N1031 1.610 . S
N1030 S1029 1.613 . S
N1030 C1033 1.350 . S
N1031 S1029 1.610 . S
N1031 C1032 1.351 . S
C1032 C1026 1.428 . S
C1032 N1031 1.351 . S
C1032 C1033 1.434 . S
C1033 C1024 1.429 . S
C1033 N1030 1.350 . S
C1033 C1032 1.434 . S
C509 C331 2.692 . S
C507 C18 2.759 . S
C520 C321 2.327 . S
C518 C59 2.359 . S
C531 C322 1.141 . S
C529 C98 1.173 . S
C540 C125 0.884 . S
C542 C344 0.856 . S
C551 C169 2.375 . S
C553 C347 2.297 . S
C564 C330 1.171 . S
C562 C218 1.223 . S
C573 C255 1.146 . S
C575 C320 1.184 . S
C584 C288 2.767 . S
C586 C338 2.699 . S
C597 C351 1.183 . S
C595 C15 1.096 . S
C606 C45 1.019 . S
C608 C400 1.245 . S
C619 C378 0.488 . S
C617 C95 0.455 . S
C630 C392 0.858 . S
C628 C128 0.873 . S
C639 C178 0.937 . S
C641 C353 0.893 . S
C652 C406 1.582 1_556 S
C650 C215 1.603 . S
C661 C249 2.430 . S
C663 C362 2.312 . S
C672 C299 2.137 . S
C674 C383 2.163 . S
C683 C9 2.650 . S
C685 C409 2.550 . S
C694 C175 0.706 . S
C696 C393 0.754 1_556 S
C707 C352 1.544 . S
C705 C209 1.619 . S
C718 C384 1.516 . S
C716 C258 1.658 . S
C727 C285 1.315 . S
C729 C375 1.329 . S
C738 C89 3.080 . S
C740 C382 3.094 . S
C751 C369 2.822 . S
C749 C139 2.837 . S
C760 C48 1.560 . S
C762 C361 1.580 . S
C771 C298 2.766 . S
C773 C424 2.698 . S
C782 C179 2.375 . S
C784 C414 2.296 . S
C795 C415 1.168 . S
C793 C208 1.223 . S
C806 C437 1.184 . S
C804 C245 1.143 . S
C815 C49 2.359 . S
C817 C440 2.327 . S
C828 C423 1.137 . S
C826 C88 1.177 . S
C837 C135 0.881 . S
C839 C413 0.855 . S
C848 C8 2.759 . S
C850 C431 2.689 . S
C859 C295 1.306 . S
C861 C444 1.335 . S
C872 C493 0.741 . S
C870 C165 0.725 . S
C881 C219 1.620 . S
C883 C471 1.552 . S
C892 C248 1.657 . S
C894 C485 1.514 . S
C905 C446 1.584 . S
C903 C58 1.559 . S
C914 C99 3.083 . S
C916 C499 3.096 . S
C927 C455 2.820 . S
C925 C129 2.836 . S
C938 C476 2.553 . S
C936 C19 2.651 . S
C949 C502 2.167 . S
C947 C289 2.145 . S
C958 C55 1.042 . S
C960 C486 1.232 . S
C969 C85 0.434 . S
C971 C445 0.499 . S
C982 C477 0.853 . S
C980 C138 0.873 . S
C991 C5 1.105 . S
C993 C468 1.182 . S
C1002 C205 1.603 . S
C1004 C475 1.573 . S
C1015 C462 2.309 . S
C1013 C259 2.434 . S
C1026 C454 0.879 . S
C1024 C168 0.939 . S
