# Generated by pormake.
# Topology ocu, (6,8)-cn, num edge types: 1
# Building blocks:
#     Node 0, Type 0, BuildingBlock: KUMBUR_clean_sbu_0, # of connection points: 6
#     Node 1, Type 0, BuildingBlock: KUMBUR_clean_sbu_0, # of connection points: 6
#     Node 2, Type 0, BuildingBlock: KUMBUR_clean_sbu_0, # of connection points: 6
#     Node 3, Type 0, BuildingBlock: KUMBUR_clean_sbu_0, # of connection points: 6
#     Node 4, Type 0, BuildingBlock: KUMBUR_clean_sbu_0, # of connection points: 6
#     Node 5, Type 0, BuildingBlock: KUMBUR_clean_sbu_0, # of connection points: 6
#     Node 6, Type 0, BuildingBlock: KUMBUR_clean_sbu_0, # of connection points: 6
#     Node 7, Type 0, BuildingBlock: KUMBUR_clean_sbu_0, # of connection points: 6
#     Node 8, Type 1, BuildingBlock: TAGTUT_clean_sbu_1, # of connection points: 8
#     Node 9, Type 1, BuildingBlock: TAGTUT_clean_sbu_1, # of connection points: 8
#     Node 10, Type 1, BuildingBlock: TAGTUT_clean_sbu_1, # of connection points: 8
#     Node 11, Type 1, BuildingBlock: TAGTUT_clean_sbu_1, # of connection points: 8
#     Node 12, Type 1, BuildingBlock: TAGTUT_clean_sbu_1, # of connection points: 8
#     Node 13, Type 1, BuildingBlock: TAGTUT_clean_sbu_1, # of connection points: 8
#     Edge 14, Type (0, 1), BuildingBlock: CIFDUS_clean_linker_0, # of connection points: 2
#     Edge 15, Type (0, 1), BuildingBlock: CIFDUS_clean_linker_0, # of connection points: 2
#     Edge 16, Type (0, 1), BuildingBlock: CIFDUS_clean_linker_0, # of connection points: 2
#     Edge 17, Type (0, 1), BuildingBlock: CIFDUS_clean_linker_0, # of connection points: 2
#     Edge 18, Type (0, 1), BuildingBlock: CIFDUS_clean_linker_0, # of connection points: 2
#     Edge 19, Type (0, 1), BuildingBlock: CIFDUS_clean_linker_0, # of connection points: 2
#     Edge 20, Type (0, 1), BuildingBlock: CIFDUS_clean_linker_0, # of connection points: 2
#     Edge 21, Type (0, 1), BuildingBlock: CIFDUS_clean_linker_0, # of connection points: 2
#     Edge 22, Type (0, 1), BuildingBlock: CIFDUS_clean_linker_0, # of connection points: 2
#     Edge 23, Type (0, 1), BuildingBlock: CIFDUS_clean_linker_0, # of connection points: 2
#     Edge 24, Type (0, 1), BuildingBlock: CIFDUS_clean_linker_0, # of connection points: 2
#     Edge 25, Type (0, 1), BuildingBlock: CIFDUS_clean_linker_0, # of connection points: 2
#     Edge 26, Type (0, 1), BuildingBlock: CIFDUS_clean_linker_0, # of connection points: 2
#     Edge 27, Type (0, 1), BuildingBlock: CIFDUS_clean_linker_0, # of connection points: 2
#     Edge 28, Type (0, 1), BuildingBlock: CIFDUS_clean_linker_0, # of connection points: 2
#     Edge 29, Type (0, 1), BuildingBlock: CIFDUS_clean_linker_0, # of connection points: 2
#     Edge 30, Type (0, 1), BuildingBlock: CIFDUS_clean_linker_0, # of connection points: 2
#     Edge 31, Type (0, 1), BuildingBlock: CIFDUS_clean_linker_0, # of connection points: 2
#     Edge 32, Type (0, 1), BuildingBlock: CIFDUS_clean_linker_0, # of connection points: 2
#     Edge 33, Type (0, 1), BuildingBlock: CIFDUS_clean_linker_0, # of connection points: 2
#     Edge 34, Type (0, 1), BuildingBlock: CIFDUS_clean_linker_0, # of connection points: 2
#     Edge 35, Type (0, 1), BuildingBlock: CIFDUS_clean_linker_0, # of connection points: 2
#     Edge 36, Type (0, 1), BuildingBlock: CIFDUS_clean_linker_0, # of connection points: 2
#     Edge 37, Type (0, 1), BuildingBlock: CIFDUS_clean_linker_0, # of connection points: 2
#     Edge 38, Type (0, 1), BuildingBlock: CIFDUS_clean_linker_0, # of connection points: 2
#     Edge 39, Type (0, 1), BuildingBlock: CIFDUS_clean_linker_0, # of connection points: 2
#     Edge 40, Type (0, 1), BuildingBlock: CIFDUS_clean_linker_0, # of connection points: 2
#     Edge 41, Type (0, 1), BuildingBlock: CIFDUS_clean_linker_0, # of connection points: 2
#     Edge 42, Type (0, 1), BuildingBlock: CIFDUS_clean_linker_0, # of connection points: 2
#     Edge 43, Type (0, 1), BuildingBlock: CIFDUS_clean_linker_0, # of connection points: 2
#     Edge 44, Type (0, 1), BuildingBlock: CIFDUS_clean_linker_0, # of connection points: 2
#     Edge 45, Type (0, 1), BuildingBlock: CIFDUS_clean_linker_0, # of connection points: 2
#     Edge 46, Type (0, 1), BuildingBlock: CIFDUS_clean_linker_0, # of connection points: 2
#     Edge 47, Type (0, 1), BuildingBlock: CIFDUS_clean_linker_0, # of connection points: 2
#     Edge 48, Type (0, 1), BuildingBlock: CIFDUS_clean_linker_0, # of connection points: 2
#     Edge 49, Type (0, 1), BuildingBlock: CIFDUS_clean_linker_0, # of connection points: 2
#     Edge 50, Type (0, 1), BuildingBlock: CIFDUS_clean_linker_0, # of connection points: 2
#     Edge 51, Type (0, 1), BuildingBlock: CIFDUS_clean_linker_0, # of connection points: 2
#     Edge 52, Type (0, 1), BuildingBlock: CIFDUS_clean_linker_0, # of connection points: 2
#     Edge 53, Type (0, 1), BuildingBlock: CIFDUS_clean_linker_0, # of connection points: 2
#     Edge 54, Type (0, 1), BuildingBlock: CIFDUS_clean_linker_0, # of connection points: 2
#     Edge 55, Type (0, 1), BuildingBlock: CIFDUS_clean_linker_0, # of connection points: 2
#     Edge 56, Type (0, 1), BuildingBlock: CIFDUS_clean_linker_0, # of connection points: 2
#     Edge 57, Type (0, 1), BuildingBlock: CIFDUS_clean_linker_0, # of connection points: 2
#     Edge 58, Type (0, 1), BuildingBlock: CIFDUS_clean_linker_0, # of connection points: 2
#     Edge 59, Type (0, 1), BuildingBlock: CIFDUS_clean_linker_0, # of connection points: 2
#     Edge 60, Type (0, 1), BuildingBlock: CIFDUS_clean_linker_0, # of connection points: 2
#     Edge 61, Type (0, 1), BuildingBlock: CIFDUS_clean_linker_0, # of connection points: 2
# Relax obj value: 0.106
# Max RMSD: 0.264
# Mean RMSD: 0.150
data_MOF--net-ocu--node1-KUMBUR_clean_sbu_0--node2-TAGTUT_clean_sbu_1--edge1-CIFDUS_clean_linker_0
_symmetry_space_group_name_H-M    P1
_symmetry_Int_Tables_number       1
_symmetry_cell_setting            triclinic
loop_
_symmetry_equiv_pos_as_xyz
'x, y, z'
_cell_length_a     36.090408
_cell_length_b     34.291907
_cell_length_c     38.755748
_cell_angle_alpha  78.233364
_cell_angle_beta   102.69603
_cell_angle_gamma 117.85691
loop_
_atom_site_label
_atom_site_type_symbol
_atom_site_fract_x
_atom_site_fract_y
_atom_site_fract_z
_atom_type_partial_charge
Tb0 Tb 0.25225 0.21164 0.22116 0.0
C1 C 0.40318 0.36173 0.29311 0.0
C2 C 0.42948 0.32557 0.34635 0.0
C3 C 0.47795 0.39561 0.31778 0.0
C4 C 0.39601 0.32589 0.31952 0.0
C5 C 0.44419 0.39728 0.2924 0.0
C6 C 0.47059 0.35991 0.34474 0.0
C7 C 0.41515 0.4356 0.24348 0.0
N8 N 0.36965 0.3627 0.26916 0.0
C9 C 0.37504 0.39988 0.24524 0.0
C10 C 0.44995 0.43411 0.26685 0.0
Tb11 Tb 0.30619 0.30033 0.27482 0.0
N12 N 0.3558 0.29309 0.3205 0.0
C13 C 0.34649 0.26173 0.34957 0.0
C14 C 0.42039 0.29172 0.37484 0.0
C15 C 0.37859 0.26021 0.37681 0.0
H16 H 0.3491 0.40214 0.22647 0.0
H17 H 0.37105 0.23449 0.39919 0.0
H18 H 0.49671 0.35984 0.36485 0.0
H19 H 0.4192 0.4643 0.22399 0.0
H20 H 0.31469 0.23687 0.35183 0.0
H21 H 0.19495 0.28194 0.09537 0.0
H22 H 0.44518 0.29037 0.39597 0.0
H23 H 0.20523 0.11407 0.26972 0.0
H24 H 0.24825 0.27747 0.14542 0.0
H25 H 0.13404 0.05224 0.27086 0.0
H26 H 0.50967 0.42243 0.31741 0.0
H27 H 0.12017 0.22585 0.09409 0.0
H28 H 0.06579 0.15568 0.12262 0.0
H29 H 0.48095 0.46198 0.26545 0.0
H30 H 0.04913 0.0932 0.17053 0.0
N31 N 0.20456 0.2195 0.17344 0.0
C32 C 0.21599 0.25245 0.14557 0.0
C33 C 0.14356 0.2236 0.1163 0.0
C34 C 0.13228 0.18892 0.14404 0.0
C35 C 0.18572 0.25523 0.1169 0.0
C36 C 0.16399 0.18762 0.17235 0.0
H37 H 0.07446 0.05412 0.22573 0.0
N38 N 0.18674 0.15208 0.22469 0.0
C39 C 0.13935 0.08039 0.25055 0.0
C40 C 0.15467 0.15273 0.19907 0.0
C41 C 0.17987 0.11569 0.24968 0.0
C42 C 0.10579 0.08161 0.22511 0.0
C43 C 0.11331 0.11778 0.19861 0.0
O44 O 0.26586 0.15919 0.21816 0.0
O45 O 0.30658 0.2405 0.26289 0.0
O46 O 0.34808 0.31384 0.23641 0.0
O47 O 0.29945 0.27012 0.19334 0.0
O48 O 0.2743 0.17338 0.26608 0.0
O49 O 0.26996 0.20895 0.17348 0.0
O50 O 0.2586 0.31284 0.28689 0.0
O51 O 0.25334 0.27206 0.23284 0.0
O52 O 0.21063 0.20324 0.25853 0.0
O53 O 0.26411 0.23863 0.30284 0.0
O54 O 0.28527 0.33914 0.2292 0.0
O55 O 0.31907 0.33482 0.31876 0.0
C56 C 0.30654 0.20462 0.28135 0.0
C57 C 0.25679 0.13782 0.16154 0.0
C58 C 0.2704 0.09629 0.125 0.0
C59 C 0.28494 0.13184 0.14549 0.0
C60 C 0.22672 0.06738 0.12061 0.0
C61 C 0.21353 0.1088 0.15635 0.0
C62 C 0.19865 0.07391 0.13589 0.0
C63 C 0.33711 0.30148 0.20414 0.0
C64 C 0.27382 0.17255 0.18557 0.0
C65 C 0.08117 0.11956 0.17124 0.0
C66 C 0.09065 0.1551 0.14397 0.0
C67 C 0.25332 0.30745 0.21372 0.0
C68 C 0.28219 0.3777 0.31411 0.0
C69 C 0.26731 0.38405 0.34234 0.0
C70 C 0.26767 0.42523 0.34342 0.0
C71 C 0.28274 0.45952 0.31568 0.0
C72 C 0.29664 0.41243 0.28673 0.0
C73 C 0.29683 0.45298 0.28754 0.0
C74 C 0.22432 0.21163 0.29207 0.0
C75 C 0.28238 0.33488 0.31327 0.0
H76 H 0.31824 0.15494 0.14926 0.0
H77 H 0.2141 0.03904 0.10598 0.0
H78 H 0.1914 0.11262 0.16858 0.0
H79 H 0.16523 0.05128 0.13234 0.0
H80 H 0.25587 0.35723 0.36349 0.0
H81 H 0.28274 0.49119 0.31534 0.0
H82 H 0.30756 0.40814 0.26461 0.0
H83 H 0.30767 0.47936 0.26608 0.0
Tb84 Tb 0.7889 0.21543 0.25603 0.0
C85 C 0.64537 0.25267 0.26336 0.0
C86 C 0.60618 0.26072 0.2054 0.0
C87 C 0.5696 0.22933 0.25727 0.0
C88 C 0.64453 0.26563 0.22737 0.0
C89 C 0.60808 0.23513 0.27897 0.0
C90 C 0.56864 0.24206 0.22049 0.0
C91 C 0.65019 0.23386 0.33647 0.0
N92 N 0.68317 0.25908 0.28332 0.0
C93 C 0.68621 0.25143 0.31968 0.0
C94 C 0.61078 0.22503 0.31598 0.0
Tb95 Tb 0.74111 0.28706 0.25404 0.0
N96 N 0.6817 0.28389 0.21401 0.0
C97 C 0.68247 0.30014 0.17854 0.0
C98 C 0.60672 0.27486 0.16901 0.0
C99 C 0.64502 0.2945 0.15555 0.0
H100 H 0.71652 0.25854 0.33598 0.0
H101 H 0.64582 0.30571 0.1274 0.0
H102 H 0.53887 0.23791 0.20404 0.0
H103 H 0.65288 0.22708 0.3652 0.0
H104 H 0.71138 0.31572 0.16709 0.0
H105 H 0.94434 0.31896 0.21701 0.0
H106 H 0.5779 0.27131 0.15117 0.0
H107 H 0.71455 0.1144 0.23252 0.0
H108 H 0.88888 0.29344 0.25452 0.0
H109 H 0.69968 0.0688 0.18584 0.0
H110 H 0.54058 0.21569 0.26871 0.0
H111 H 0.93146 0.28078 0.16487 0.0
H112 H 0.88336 0.21808 0.12849 0.0
H113 H 0.5829 0.21143 0.32902 0.0
H114 H 0.81689 0.14987 0.12019 0.0
N115 N 0.84352 0.24176 0.22348 0.0
C116 C 0.88228 0.27636 0.23186 0.0
C117 C 0.90677 0.26931 0.18129 0.0
C118 C 0.86806 0.23231 0.17408 0.0
C119 C 0.91416 0.29092 0.2107 0.0
C120 C 0.83693 0.21876 0.19628 0.0
H121 H 0.74867 0.0937 0.14175 0.0
N122 N 0.77156 0.16708 0.21503 0.0
C123 C 0.72789 0.10014 0.18717 0.0
C124 C 0.79985 0.18006 0.19198 0.0
C125 C 0.73663 0.12657 0.21379 0.0
C126 C 0.7556 0.1143 0.16232 0.0
C127 C 0.79243 0.15434 0.16481 0.0
O128 O 0.78758 0.17625 0.30589 0.0
O129 O 0.74558 0.22702 0.27885 0.0
O130 O 0.77807 0.27743 0.30494 0.0
O131 O 0.8299 0.27451 0.28273 0.0
O132 O 0.72706 0.16407 0.27073 0.0
O133 O 0.83836 0.1973 0.27643 0.0
O134 O 0.77447 0.35678 0.24369 0.0
O135 O 0.79351 0.28124 0.2399 0.0
O136 O 0.74853 0.21368 0.20584 0.0
O137 O 0.70113 0.23613 0.21819 0.0
O138 O 0.77185 0.32194 0.20627 0.0
O139 O 0.74778 0.3275 0.29152 0.0
C140 C 0.71539 0.18832 0.28281 0.0
C141 C 0.85643 0.20154 0.33818 0.0
C142 C 0.93005 0.2402 0.36532 0.0
C143 C 0.89985 0.22354 0.33564 0.0
C144 C 0.91558 0.23862 0.39683 0.0
C145 C 0.84289 0.19923 0.37015 0.0
C146 C 0.87233 0.21882 0.39893 0.0
C147 C 0.81789 0.2856 0.30739 0.0
C148 C 0.82572 0.18156 0.30727 0.0
C149 C 0.82228 0.16895 0.14144 0.0
C150 C 0.86008 0.20782 0.14612 0.0
C151 C 0.79783 0.30511 0.20994 0.0
C152 C 0.74909 0.39593 0.26695 0.0
C153 C 0.71133 0.3868 0.244 0.0
C154 C 0.69839 0.42 0.23016 0.0
C155 C 0.72036 0.46133 0.24335 0.0
C156 C 0.77113 0.43697 0.28062 0.0
C157 C 0.75601 0.46921 0.2695 0.0
C158 C 0.71288 0.21753 0.19854 0.0
C159 C 0.76717 0.36442 0.27235 0.0
H160 H 0.91019 0.22619 0.31072 0.0
H161 H 0.93738 0.25025 0.42069 0.0
H162 H 0.80965 0.18224 0.37301 0.0
H163 H 0.86166 0.21706 0.42346 0.0
H164 H 0.69495 0.35563 0.23295 0.0
H165 H 0.71154 0.48796 0.23209 0.0
H166 H 0.80049 0.44456 0.29874 0.0
H167 H 0.77345 0.50127 0.27942 0.0
Tb168 Tb 0.72681 0.72051 0.28195 0.0
C169 C 0.8563 0.8778 0.19672 0.0
C170 C 0.81421 0.89174 0.14229 0.0
C171 C 0.8807 0.95179 0.16393 0.0
C172 C 0.82032 0.86285 0.17212 0.0
C173 C 0.88743 0.92224 0.19262 0.0
C174 C 0.84412 0.93654 0.13877 0.0
C175 C 0.93106 0.90383 0.2435 0.0
N176 N 0.86171 0.84806 0.22376 0.0
C177 C 0.89926 0.86009 0.24637 0.0
C178 C 0.92489 0.93523 0.21682 0.0
Tb179 Tb 0.80756 0.77723 0.22661 0.0
N180 N 0.79242 0.81934 0.17645 0.0
C181 C 0.75926 0.80182 0.15009 0.0
C182 C 0.77897 0.87441 0.11637 0.0
C183 C 0.75173 0.82909 0.12005 0.0
H184 H 0.9047 0.83649 0.26726 0.0
H185 H 0.7248 0.81511 0.09983 0.0
H186 H 0.83979 0.95935 0.11625 0.0
H187 H 0.96025 0.91331 0.26197 0.0
H188 H 0.73777 0.7669 0.1523 0.0
H189 H 0.80676 0.67863 0.40865 0.0
H190 H 0.77309 0.89546 0.09308 0.0
H191 H 0.63236 0.66166 0.23677 0.0
H192 H 0.79533 0.72838 0.35671 0.0
H193 H 0.57668 0.58479 0.24007 0.0
H194 H 0.90406 0.98615 0.16047 0.0
H195 H 0.75759 0.59849 0.41393 0.0
H196 H 0.69111 0.53563 0.38914 0.0
H197 H 0.9496 0.96905 0.2146 0.0
H198 H 0.62833 0.51009 0.34332 0.0
N199 N 0.7406 0.67702 0.33155 0.0
C200 C 0.77349 0.69356 0.35829 0.0
C201 C 0.75239 0.62021 0.39086 0.0
C202 C 0.71765 0.60379 0.36433 0.0
C203 C 0.78015 0.66541 0.38801 0.0
C204 C 0.71245 0.63349 0.33482 0.0
H205 H 0.58506 0.52833 0.28793 0.0
N206 N 0.67298 0.64951 0.28218 0.0
C207 C 0.60492 0.59398 0.25966 0.0
C208 C 0.67733 0.61918 0.30922 0.0
C209 C 0.63673 0.63776 0.25796 0.0
C210 C 0.6098 0.56218 0.28665 0.0
C211 C 0.64614 0.57469 0.31211 0.0
O212 O 0.67396 0.72942 0.28636 0.0
O213 O 0.7497 0.77404 0.2385 0.0
O214 O 0.81657 0.82655 0.26028 0.0
O215 O 0.78173 0.77598 0.30586 0.0
O216 O 0.68657 0.73609 0.23492 0.0
O217 O 0.72733 0.74457 0.3277 0.0
O218 O 0.80891 0.75569 0.17986 0.0
O219 O 0.78529 0.72451 0.27055 0.0
O220 O 0.72226 0.67098 0.25163 0.0
O221 O 0.75169 0.72065 0.20392 0.0
O222 O 0.84817 0.76372 0.27401 0.0
O223 O 0.85844 0.76409 0.22382 0.0
C224 C 0.71469 0.77022 0.21913 0.0
C225 C 0.66196 0.72603 0.34492 0.0
C226 C 0.62591 0.73902 0.38486 0.0
C227 C 0.65311 0.75525 0.35882 0.0
C228 C 0.60857 0.69339 0.39726 0.0
C229 C 0.64422 0.68076 0.35769 0.0
C230 C 0.61781 0.66461 0.38383 0.0
C231 C 0.8062 0.81686 0.29285 0.0
C232 C 0.69015 0.74348 0.31752 0.0
C233 C 0.65179 0.5445 0.34074 0.0
C234 C 0.68752 0.55903 0.36681 0.0
C235 C 0.82053 0.72937 0.29014 0.0
C236 C 0.83534 0.70251 0.1922 0.0
C237 C 0.8433 0.69113 0.16251 0.0
C238 C 0.83391 0.64658 0.16057 0.0
C239 C 0.81664 0.61396 0.18873 0.0
C240 C 0.81845 0.66911 0.21987 0.0
C241 C 0.80912 0.62526 0.21814 0.0
C242 C 0.73048 0.67956 0.21863 0.0
C243 C 0.84147 0.7481 0.19345 0.0
H244 H 0.6666 0.79027 0.34885 0.0
H245 H 0.58784 0.67993 0.41747 0.0
H246 H 0.65071 0.6579 0.3475 0.0
H247 H 0.60426 0.62959 0.39361 0.0
H248 H 0.85599 0.71659 0.14083 0.0
H249 H 0.80968 0.57969 0.18839 0.0
H250 H 0.81126 0.67664 0.24245 0.0
H251 H 0.79578 0.59987 0.23963 0.0
Tb252 Tb 0.30535 0.723 0.25871 0.0
C253 C 0.23512 0.84722 0.15954 0.0
C254 C 0.29582 0.91436 0.14232 0.0
C255 C 0.22836 0.89207 0.10337 0.0
C256 C 0.27727 0.87625 0.16648 0.0
C257 C 0.20998 0.85474 0.12799 0.0
C258 C 0.27124 0.92189 0.11055 0.0
C259 C 0.15032 0.78862 0.14795 0.0
N260 N 0.2187 0.8116 0.18399 0.0
C261 C 0.17655 0.7827 0.17891 0.0
C262 C 0.16712 0.82469 0.12229 0.0
Tb263 Tb 0.26426 0.80446 0.23376 0.0
N264 N 0.29972 0.86785 0.19755 0.0
C265 C 0.34059 0.89801 0.207 0.0
C266 C 0.33822 0.94415 0.15117 0.0
C267 C 0.36057 0.9361 0.18383 0.0
H268 H 0.16306 0.75439 0.19822 0.0
H269 H 0.39322 0.95927 0.19125 0.0
H270 H 0.28493 0.9509 0.0916 0.0
H271 H 0.11716 0.76528 0.14387 0.0
H272 H 0.35847 0.89267 0.23216 0.0
H273 H 0.16491 0.57156 0.28608 0.0
H274 H 0.35368 0.97379 0.13334 0.0
H275 H 0.4032 0.76176 0.30171 0.0
H276 H 0.20823 0.63866 0.24964 0.0
H277 H 0.44067 0.74512 0.35994 0.0
H278 H 0.20962 0.89841 0.07892 0.0
H279 H 0.19458 0.55216 0.34729 0.0
H280 H 0.25673 0.5704 0.39614 0.0
H281 H 0.14672 0.8292 0.09836 0.0
H282 H 0.33219 0.61705 0.41618 0.0
N283 N 0.26256 0.65825 0.28965 0.0
C284 C 0.22211 0.63082 0.27607 0.0
C285 C 0.214 0.58169 0.33126 0.0
C286 C 0.25597 0.60872 0.34441 0.0
C287 C 0.19719 0.59252 0.29674 0.0
C288 C 0.27977 0.64684 0.32249 0.0
H289 H 0.40129 0.68213 0.40262 0.0
N290 N 0.3431 0.70905 0.31146 0.0
C291 C 0.40708 0.72475 0.35301 0.0
C292 C 0.32159 0.67334 0.33388 0.0
C293 C 0.38578 0.73397 0.31999 0.0
C294 C 0.38475 0.6892 0.37705 0.0
C295 C 0.3415 0.66263 0.36746 0.0
O296 O 0.35319 0.71617 0.24132 0.0
O297 O 0.30874 0.78272 0.22498 0.0
O298 O 0.25011 0.77145 0.18708 0.0
O299 O 0.25045 0.70497 0.21557 0.0
O300 O 0.36426 0.77869 0.2429 0.0
O301 O 0.2873 0.6722 0.22717 0.0
O302 O 0.22046 0.81255 0.2562 0.0
O303 O 0.26187 0.74513 0.2677 0.0
O304 O 0.32424 0.76218 0.30353 0.0
O305 O 0.32303 0.82658 0.27111 0.0
O306 O 0.20673 0.74886 0.25352 0.0
O307 O 0.28697 0.85826 0.26312 0.0
C308 C 0.34801 0.80315 0.2227 0.0
C309 C 0.33667 0.64499 0.22799 0.0
C310 C 0.35632 0.60062 0.20024 0.0
C311 C 0.34701 0.63667 0.19819 0.0
C312 C 0.35535 0.57321 0.23276 0.0
C313 C 0.33585 0.61731 0.26014 0.0
C314 C 0.34528 0.58163 0.26246 0.0
C315 C 0.24134 0.72951 0.18691 0.0
C316 C 0.32618 0.68231 0.22448 0.0
C317 C 0.31771 0.62556 0.39003 0.0
C318 C 0.27489 0.59881 0.37858 0.0
C319 C 0.22359 0.72454 0.27288 0.0
C320 C 0.23923 0.88432 0.26994 0.0
C321 C 0.22805 0.88847 0.30101 0.0
C322 C 0.21988 0.92426 0.30272 0.0
C323 C 0.22302 0.95593 0.27259 0.0
C324 C 0.24199 0.91595 0.24009 0.0
C325 C 0.23385 0.95162 0.24149 0.0
C326 C 0.33315 0.80478 0.30089 0.0
C327 C 0.24968 0.8477 0.27046 0.0
H328 H 0.34729 0.65798 0.17327 0.0
H329 H 0.36314 0.54573 0.23539 0.0
H330 H 0.32795 0.62325 0.28331 0.0
H331 H 0.34497 0.56053 0.28742 0.0
H332 H 0.22658 0.86421 0.32419 0.0
H333 H 0.21656 0.98367 0.2729 0.0
H334 H 0.25074 0.91326 0.21598 0.0
H335 H 0.23603 0.97608 0.21843 0.0
Tb336 Tb 0.26974 0.70962 0.74163 0.0
C337 C 0.22028 0.79589 0.82953 0.0
C338 C 0.14566 0.74761 0.83106 0.0
C339 C 0.1891 0.78667 0.882 0.0
C340 C 0.18161 0.76653 0.81347 0.0
C341 C 0.22424 0.80726 0.86358 0.0
C342 C 0.14986 0.75691 0.86576 0.0
C343 C 0.29573 0.86238 0.85683 0.0
N344 N 0.25342 0.81541 0.81081 0.0
C345 C 0.2901 0.85027 0.82303 0.0
C346 C 0.26292 0.84019 0.87749 0.0
Tb347 Tb 0.24091 0.79226 0.75602 0.0
N348 N 0.17876 0.75836 0.77989 0.0
C349 C 0.14002 0.7339 0.76151 0.0
C350 C 0.10634 0.72109 0.81286 0.0
C351 C 0.10342 0.71488 0.77772 0.0
H352 H 0.31522 0.86799 0.80679 0.0
H353 H 0.07302 0.69504 0.76318 0.0
H354 H 0.12271 0.74223 0.87985 0.0
H355 H 0.32521 0.88903 0.8668 0.0
H356 H 0.13681 0.72822 0.73446 0.0
H357 H 0.42912 0.80444 0.70828 0.0
H358 H 0.07796 0.70606 0.8254 0.0
H359 H 0.19317 0.61608 0.713 0.0
H360 H 0.37351 0.77836 0.74582 0.0
H361 H 0.17656 0.57224 0.66393 0.0
H362 H 0.19161 0.79458 0.90835 0.0
H363 H 0.41284 0.77569 0.6505 0.0
H364 H 0.36066 0.72152 0.60803 0.0
H365 H 0.26724 0.84986 0.90356 0.0
H366 H 0.29123 0.65779 0.59573 0.0
N367 N 0.32486 0.73588 0.70933 0.0
C368 C 0.36549 0.76526 0.72075 0.0
C369 C 0.38806 0.76407 0.66687 0.0
C370 C 0.34736 0.73154 0.65657 0.0
C371 C 0.3974 0.78022 0.69952 0.0
C372 C 0.31626 0.7177 0.67884 0.0
H373 H 0.22287 0.60069 0.61723 0.0
N374 N 0.24954 0.66856 0.69522 0.0
C375 C 0.20443 0.60386 0.66525 0.0
C376 C 0.27728 0.68242 0.67168 0.0
C377 C 0.21408 0.62884 0.69315 0.0
C378 C 0.23076 0.61991 0.63902 0.0
C379 C 0.26819 0.65928 0.64238 0.0
O380 O 0.2528 0.64861 0.7749 0.0
O381 O 0.23425 0.7259 0.76972 0.0
O382 O 0.2765 0.7747 0.80392 0.0
O383 O 0.31725 0.75449 0.77955 0.0
O384 O 0.20621 0.66373 0.75697 0.0
O385 O 0.31691 0.6895 0.7649 0.0
O386 O 0.25841 0.86089 0.74896 0.0
O387 O 0.27663 0.77704 0.72763 0.0
O388 O 0.23098 0.71854 0.69341 0.0
O389 O 0.1998 0.75815 0.70933 0.0
O390 O 0.30268 0.84039 0.73821 0.0
O391 O 0.19903 0.8145 0.72228 0.0
C392 C 0.20143 0.68973 0.77347 0.0
C393 C 0.30716 0.6568 0.82366 0.0
C394 C 0.36605 0.68266 0.87149 0.0
C395 C 0.35009 0.68231 0.83527 0.0
C396 C 0.33795 0.65868 0.89661 0.0
C397 C 0.27935 0.63279 0.84892 0.0
C398 C 0.29473 0.63423 0.88526 0.0
C399 C 0.30998 0.76812 0.80565 0.0
C400 C 0.29218 0.65667 0.78517 0.0
C401 C 0.29786 0.67472 0.6187 0.0
C402 C 0.33739 0.71096 0.62573 0.0
C403 C 0.30818 0.81415 0.72262 0.0
C404 C 0.19626 0.86939 0.74792 0.0
C405 C 0.15511 0.86073 0.73151 0.0
C406 C 0.12875 0.87051 0.74652 0.0
C407 C 0.14431 0.88966 0.77854 0.0
C408 C 0.21165 0.88909 0.7798 0.0
C409 C 0.18561 0.89874 0.79511 0.0
C410 C 0.20313 0.73469 0.6878 0.0
C411 C 0.22062 0.85423 0.73244 0.0
H412 H 0.3717 0.70139 0.81598 0.0
H413 H 0.34948 0.65756 0.92488 0.0
H414 H 0.24589 0.61312 0.84063 0.0
H415 H 0.27325 0.61568 0.90466 0.0
H416 H 0.14397 0.84717 0.70622 0.0
H417 H 0.12494 0.89836 0.79023 0.0
H418 H 0.24352 0.89686 0.79302 0.0
H419 H 0.19766 0.91373 0.81972 0.0
Tb420 Tb 0.23211 0.22411 0.78275 0.0
C421 C 0.35086 0.3821 0.69192 0.0
C422 C 0.30509 0.39254 0.63895 0.0
C423 C 0.36963 0.45568 0.65921 0.0
C424 C 0.31417 0.36503 0.66845 0.0
C425 C 0.37971 0.42739 0.68715 0.0
C426 C 0.3323 0.43826 0.63512 0.0
C427 C 0.42811 0.4121 0.73529 0.0
N428 N 0.35963 0.35342 0.71801 0.0
C429 C 0.39839 0.36743 0.73887 0.0
C430 C 0.41845 0.4424 0.7097 0.0
Tb431 Tb 0.30863 0.28111 0.72267 0.0
N432 N 0.2894 0.32064 0.67278 0.0
C433 C 0.25734 0.301 0.64637 0.0
C434 C 0.27018 0.37293 0.61334 0.0
C435 C 0.24678 0.32682 0.61668 0.0
H436 H 0.40615 0.34451 0.75899 0.0
H437 H 0.22044 0.31111 0.59651 0.0
H438 H 0.3256 0.46007 0.6129 0.0
H439 H 0.45833 0.42316 0.7524 0.0
H440 H 0.23869 0.26544 0.64849 0.0
H441 H 0.32085 0.18616 0.90562 0.0
H442 H 0.26203 0.39285 0.5903 0.0
H443 H 0.13435 0.16358 0.74315 0.0
H444 H 0.30555 0.23438 0.85432 0.0
H445 H 0.07919 0.08684 0.7497 0.0
H446 H 0.39113 0.4907 0.65529 0.0
H447 H 0.27247 0.1059 0.91329 0.0
H448 H 0.20456 0.04204 0.89191 0.0
H449 H 0.44155 0.47693 0.7069 0.0
H450 H 0.13861 0.01501 0.84952 0.0
N451 N 0.24938 0.18202 0.83176 0.0
C452 C 0.28398 0.19949 0.85695 0.0
C453 C 0.26557 0.12694 0.8905 0.0
C454 C 0.22907 0.10961 0.86573 0.0
C455 C 0.29287 0.17221 0.8863 0.0
C456 C 0.22168 0.13845 0.83647 0.0
H457 H 0.09124 0.03165 0.79679 0.0
N458 N 0.17851 0.15287 0.78598 0.0
C459 C 0.10887 0.0966 0.76755 0.0
C460 C 0.18484 0.1233 0.81276 0.0
C461 C 0.1405 0.14037 0.76399 0.0
C462 C 0.11581 0.06551 0.7941 0.0
C463 C 0.15398 0.0788 0.8174 0.0
O464 O 0.18171 0.23637 0.78855 0.0
O465 O 0.25113 0.27559 0.73697 0.0
O466 O 0.31764 0.33055 0.75655 0.0
O467 O 0.28817 0.28043 0.80433 0.0
O468 O 0.18842 0.23685 0.73773 0.0
O469 O 0.23485 0.24719 0.82974 0.0
O470 O 0.36229 0.27574 0.71501 0.0
O471 O 0.2896 0.23012 0.76782 0.0
O472 O 0.22537 0.17362 0.75228 0.0
O473 O 0.25319 0.22159 0.70286 0.0
O474 O 0.35229 0.26754 0.76761 0.0
O475 O 0.30443 0.25145 0.67884 0.0
C476 C 0.21469 0.26991 0.71956 0.0
C477 C 0.17077 0.23235 0.84752 0.0
C478 C 0.13405 0.24671 0.8859 0.0
C479 C 0.16116 0.26202 0.85991 0.0
C480 C 0.11752 0.20155 0.89978 0.0
C481 C 0.15396 0.18756 0.86178 0.0
C482 C 0.12758 0.17234 0.88787 0.0
C483 C 0.30948 0.32147 0.78982 0.0
C484 C 0.19877 0.24887 0.82009 0.0
C485 C 0.16177 0.04941 0.84566 0.0
C486 C 0.1993 0.0648 0.86978 0.0
C487 C 0.32549 0.23409 0.78519 0.0
C488 C 0.36669 0.27153 0.65569 0.0
C489 C 0.37613 0.24176 0.64313 0.0
C490 C 0.39869 0.25573 0.61396 0.0
C491 C 0.41068 0.29949 0.59716 0.0
C492 C 0.37895 0.31489 0.63844 0.0
C493 C 0.40069 0.32866 0.60923 0.0
C494 C 0.23268 0.18093 0.71902 0.0
C495 C 0.34315 0.25651 0.68618 0.0
H496 H 0.17397 0.29666 0.8488 0.0
H497 H 0.09681 0.18883 0.91995 0.0
H498 H 0.16122 0.16442 0.85281 0.0
H499 H 0.11471 0.1377 0.89881 0.0
H500 H 0.36683 0.20824 0.6565 0.0
H501 H 0.42793 0.31117 0.57463 0.0
H502 H 0.37168 0.33801 0.64751 0.0
H503 H 0.41008 0.3622 0.59601 0.0
Tb504 Tb 0.80429 0.21005 0.75653 0.0
C505 C 0.73896 0.34205 0.66983 0.0
C506 C 0.80233 0.40737 0.65484 0.0
C507 C 0.73543 0.39163 0.61592 0.0
C508 C 0.78179 0.36838 0.6775 0.0
C509 C 0.71501 0.35367 0.6393 0.0
C510 C 0.77906 0.41843 0.62366 0.0
C511 C 0.65229 0.29118 0.65866 0.0
N512 N 0.72051 0.30578 0.69315 0.0
C513 C 0.67744 0.28114 0.68865 0.0
C514 C 0.6712 0.32735 0.63367 0.0
Tb515 Tb 0.7643 0.29198 0.74138 0.0
N516 N 0.80292 0.35675 0.70808 0.0
C517 C 0.84443 0.38444 0.71866 0.0
C518 C 0.84534 0.43452 0.66465 0.0
C519 C 0.86635 0.42323 0.6969 0.0
H520 H 0.66245 0.25308 0.70771 0.0
H521 H 0.89946 0.44438 0.70505 0.0
H522 H 0.79431 0.44808 0.60577 0.0
H523 H 0.61834 0.27104 0.65486 0.0
H524 H 0.86125 0.37635 0.74349 0.0
H525 H 0.66853 0.05682 0.7902 0.0
H526 H 0.86235 0.46466 0.64791 0.0
H527 H 0.90525 0.25037 0.79244 0.0
H528 H 0.707 0.12614 0.75323 0.0
H529 H 0.94881 0.23166 0.84547 0.0
H530 H 0.71766 0.40099 0.59217 0.0
H531 H 0.70531 0.03446 0.84661 0.0
H532 H 0.77301 0.04987 0.88901 0.0
H533 H 0.65163 0.33513 0.61054 0.0
H534 H 0.84934 0.0974 0.90403 0.0
N535 N 0.76528 0.14438 0.78865 0.0
C536 C 0.72373 0.11721 0.77772 0.0
C537 C 0.72246 0.06518 0.8305 0.0
C538 C 0.76542 0.09206 0.84078 0.0
C539 C 0.70163 0.07766 0.79867 0.0
C540 C 0.78616 0.13179 0.81891 0.0
H541 H 0.91528 0.1652 0.88784 0.0
N542 N 0.84738 0.19555 0.80496 0.0
C543 C 0.91503 0.21079 0.84074 0.0
C544 C 0.82881 0.1583 0.82734 0.0
C545 C 0.89024 0.22123 0.81066 0.0
C546 C 0.89599 0.17328 0.86462 0.0
C547 C 0.8524 0.1462 0.8579 0.0
O548 O 0.84878 0.20433 0.73302 0.0
O549 O 0.80604 0.27109 0.72655 0.0
O550 O 0.74251 0.25939 0.69342 0.0
O551 O 0.74637 0.19301 0.71695 0.0
O552 O 0.8614 0.26705 0.73811 0.0
O553 O 0.78237 0.15947 0.72388 0.0
O554 O 0.72122 0.29515 0.76829 0.0
O555 O 0.76253 0.23084 0.77172 0.0
O556 O 0.82435 0.24218 0.80502 0.0
O557 O 0.82245 0.30903 0.78048 0.0
O558 O 0.7072 0.23496 0.75945 0.0
O559 O 0.78527 0.34659 0.76957 0.0
C560 C 0.84415 0.29203 0.72084 0.0
C561 C 0.83045 0.13291 0.71865 0.0
C562 C 0.85158 0.09187 0.68837 0.0
C563 C 0.84365 0.12837 0.68868 0.0
C564 C 0.84654 0.06032 0.71876 0.0
C565 C 0.82581 0.10112 0.74862 0.0
C566 C 0.83391 0.06509 0.74863 0.0
C567 C 0.7346 0.21832 0.69072 0.0
C568 C 0.82008 0.17 0.71746 0.0
C569 C 0.83184 0.10722 0.88032 0.0
C570 C 0.78839 0.08018 0.87178 0.0
C571 C 0.72419 0.20982 0.77699 0.0
C572 C 0.73221 0.367 0.77341 0.0
C573 C 0.7117 0.36815 0.79981 0.0
C574 C 0.69373 0.39785 0.79453 0.0
C575 C 0.69683 0.42676 0.76273 0.0
C576 C 0.73566 0.39662 0.74205 0.0
C577 C 0.71802 0.42634 0.73679 0.0
C578 C 0.83246 0.28345 0.80756 0.0
C579 C 0.74824 0.33358 0.77866 0.0
H580 H 0.84685 0.15272 0.66535 0.0
H581 H 0.85287 0.03219 0.71961 0.0
H582 H 0.8156 0.10389 0.77182 0.0
H583 H 0.83025 0.04064 0.77187 0.0
H584 H 0.70884 0.34524 0.82406 0.0
H585 H 0.68317 0.4499 0.75815 0.0
H586 H 0.75176 0.39675 0.72162 0.0
H587 H 0.7206 0.44894 0.71245 0.0
Tb588 Tb 0.75742 0.72285 0.7229 0.0
C589 C 0.90804 0.87725 0.79251 0.0
C590 C 0.94501 0.84376 0.83842 0.0
C591 C 0.9843 0.91717 0.80815 0.0
C592 C 0.90742 0.84185 0.81678 0.0
C593 C 0.94619 0.91592 0.78838 0.0
C594 C 0.98371 0.88105 0.83318 0.0
C595 C 0.90529 0.95042 0.74877 0.0
N596 N 0.87037 0.87458 0.77446 0.0
C597 C 0.86828 0.91126 0.75404 0.0
C598 C 0.94453 0.95255 0.76556 0.0
Tb599 Tb 0.81109 0.8086 0.78331 0.0
N600 N 0.86921 0.8073 0.82147 0.0
C601 C 0.86599 0.77586 0.85017 0.0
C602 C 0.94216 0.80925 0.86577 0.0
C603 C 0.90231 0.77564 0.87218 0.0
H604 H 0.83824 0.91016 0.74093 0.0
H605 H 0.89946 0.74972 0.89417 0.0
H606 H 1.01305 0.88299 0.84923 0.0
H607 H 0.90348 0.97893 0.73178 0.0
H608 H 0.83524 0.75058 0.85601 0.0
H609 H 0.66722 0.77407 0.60868 0.0
H610 H 0.97022 0.80932 0.88302 0.0
H611 H 0.73017 0.62902 0.77912 0.0
H612 H 0.73158 0.77927 0.65005 0.0
H613 H 0.66653 0.55928 0.78867 0.0
H614 H 1.01411 0.94638 0.80515 0.0
H615 H 0.59837 0.70888 0.61655 0.0
H616 H 0.55784 0.63429 0.65007 0.0
H617 H 0.97311 0.98296 0.76161 0.0
H618 H 0.55795 0.57523 0.69845 0.0
N619 N 0.6992 0.71964 0.68275 0.0
C620 C 0.7015 0.75142 0.65444 0.0
C621 C 0.62644 0.71143 0.63512 0.0
C622 C 0.62468 0.67772 0.66295 0.0
C623 C 0.66519 0.74825 0.63061 0.0
C624 C 0.66215 0.68284 0.68639 0.0
H625 H 0.59847 0.54678 0.75008 0.0
N626 N 0.69943 0.65641 0.73458 0.0
C627 C 0.66492 0.5844 0.76719 0.0
C628 C 0.66231 0.64971 0.71309 0.0
C629 C 0.70123 0.62409 0.76134 0.0
C630 C 0.62654 0.57749 0.74542 0.0
C631 C 0.62486 0.61035 0.71791 0.0
O632 O 0.78594 0.68612 0.71234 0.0
O633 O 0.8036 0.74579 0.77061 0.0
O634 O 0.85077 0.82597 0.74176 0.0
O635 O 0.79862 0.7877 0.69725 0.0
O636 O 0.79165 0.68678 0.75743 0.0
O637 O 0.76578 0.72591 0.66989 0.0
O638 O 0.78684 0.84846 0.79587 0.0
O639 O 0.76479 0.78487 0.73617 0.0
O640 O 0.71455 0.71209 0.7599 0.0
O641 O 0.76755 0.74327 0.80585 0.0
O642 O 0.77374 0.84236 0.74969 0.0
O643 O 0.80301 0.80433 0.83653 0.0
C644 C 0.81492 0.71406 0.7803 0.0
C645 C 0.76691 0.66217 0.6559 0.0
C646 C 0.78343 0.62039 0.6221 0.0
C647 C 0.79608 0.65741 0.64031 0.0
C648 C 0.74054 0.58873 0.61947 0.0
C649 C 0.72446 0.63048 0.65251 0.0
C650 C 0.71138 0.59408 0.63422 0.0
C651 C 0.83769 0.81626 0.7085 0.0
C652 C 0.78231 0.69814 0.67828 0.0
C653 C 0.58711 0.60518 0.69516 0.0
C654 C 0.58702 0.63884 0.66769 0.0
C655 C 0.75077 0.81433 0.72728 0.0
C656 C 0.8102 0.87039 0.85351 0.0
C657 C 0.78504 0.87859 0.87153 0.0
C658 C 0.80352 0.91352 0.89323 0.0
C659 C 0.84765 0.94002 0.89623 0.0
C660 C 0.85405 0.89702 0.85743 0.0
C661 C 0.87258 0.93163 0.87862 0.0
C662 C 0.72716 0.72005 0.79359 0.0
C663 C 0.79021 0.83511 0.82973 0.0
H664 H 0.82869 0.68253 0.64277 0.0
H665 H 0.72941 0.55917 0.60671 0.0
H666 H 0.70167 0.63341 0.66455 0.0
H667 H 0.67863 0.56938 0.63207 0.0
H668 H 0.7512 0.85752 0.86879 0.0
H669 H 0.86302 0.96774 0.91185 0.0
H670 H 0.87394 0.89129 0.84396 0.0
H671 H 0.90645 0.95229 0.88121 0.0
C672 C 0.97186 0.09209 0.53861 0.0
C673 C 0.03965 0.12229 0.44562 0.0
C674 C 0.96721 0.94943 0.43879 0.0
Mg675 Mg 0.0554 0.09688 0.525 0.0
O676 O 1.01993 0.03733 0.51824 0.0
Mg677 Mg 0.96773 0.02424 0.4827 0.0
Mg678 Mg 0.04139 1.00119 0.50203 0.0
O679 O 0.06314 0.96536 0.48567 0.0
Mg680 Mg 0.0275 0.905 0.4805 0.0
Mg681 Mg 0.1169 0.98099 0.52002 0.0
C682 C 0.11816 0.05545 0.56319 0.0
C683 C 0.12417 0.0671 0.46376 0.0
O684 O 0.9514 0.06331 0.51616 0.0
O685 O 1.0123 0.10968 0.54604 0.0
O686 O 1.00364 0.08785 0.44553 0.0
O687 O 0.06643 0.1321 0.47373 0.0
O688 O 0.10731 0.08708 0.55821 0.0
O689 O 0.09635 0.01996 0.54777 0.0
C690 C 0.95788 0.93806 0.54059 0.0
O691 O 0.99488 0.94406 0.53717 0.0
O692 O 0.94092 0.96271 0.52213 0.0
O693 O 0.13262 0.94246 0.48619 0.0
O694 O 0.07113 0.89274 0.45958 0.0
O695 O 0.08287 0.91935 0.55837 0.0
C696 C 0.11169 0.91228 0.46502 0.0
O697 O 1.01829 0.87355 0.53369 0.0
O698 O 0.97698 0.91684 0.44478 0.0
C699 C 0.0469 0.8855 0.56052 0.0
O700 O 0.988 0.98377 0.45571 0.0
O701 O 0.08637 0.05808 0.46709 0.0
O702 O 0.14296 0.04373 0.4812 0.0
C703 C 0.40607 0.04807 0.0142 0.0
C704 C 0.44564 0.09283 0.91466 0.0
C705 C 0.46042 0.91851 0.95038 0.0
Mg706 Mg 0.49527 0.08676 0.99299 0.0
O707 O 0.48326 0.02908 0.99028 0.0
Mg708 Mg 0.42653 0.99044 0.96528 0.0
Mg709 Mg 0.52242 1.00004 0.99402 0.0
O710 O 0.561 0.97057 0.9975 0.0
Mg711 Mg 0.54663 0.9115 0.9974 0.0
Mg712 Mg 0.61866 0.00962 0.02093 0.0
C713 C 0.58378 0.08196 0.03713 0.0
C714 C 0.59961 0.06739 0.94482 0.0
O715 O 0.39324 0.01962 0.99186 0.0
O716 O 0.44537 0.07429 0.02197 0.0
O717 O 0.42842 0.04981 0.9165 0.0
O718 O 0.47463 0.11294 0.93955 0.0
O719 O 0.55845 0.09984 0.02328 0.0
O720 O 0.57526 0.04172 0.03425 0.0
C721 C 0.44332 0.93078 0.0403 0.0
O722 O 0.48376 0.94939 0.04042 0.0
O723 O 0.41892 0.93979 0.01425 0.0
O724 O 0.64956 0.97762 0.99412 0.0
O725 O 0.59464 0.92096 0.96785 0.0
O726 O 0.61747 0.95185 0.07176 0.0
C727 C 0.63424 0.94726 0.97309 0.0
O728 O 0.56895 0.88759 0.05171 0.0
O729 O 0.48352 0.89832 0.96555 0.0
C730 C 0.59919 0.90866 0.07558 0.0
O731 O 0.47079 0.95922 0.95325 0.0
O732 O 0.55991 0.04995 0.9475 0.0
O733 O 0.62543 0.05881 0.96975 0.0
C734 C 0.93821 0.58787 0.02898 0.0
C735 C 0.94763 0.59505 0.92296 0.0
C736 C 0.93804 0.41282 0.97519 0.0
Mg737 Mg 1.01247 0.59848 0.99299 0.0
O738 O 0.98831 0.53707 0.0067 0.0
Mg739 Mg 0.92677 0.50224 0.98931 0.0
Mg740 Mg 1.01648 0.49886 0.00375 0.0
O741 O 0.04577 0.46126 0.00127 0.0
Mg742 Mg 0.02502 0.40073 0.01816 0.0
Mg743 Mg 0.1078 0.49915 0.01472 0.0
C744 C 0.09788 0.58536 0.03333 0.0
C745 C 0.07988 0.5537 0.94155 0.0
O746 O 0.9143 0.54978 0.01731 0.0
O747 O 0.97706 0.61034 0.02402 0.0
O748 O 0.92497 0.55459 0.93577 0.0
O749 O 0.98556 0.61687 0.93828 0.0
O750 O 0.07785 0.60887 0.01815 0.0
O751 O 0.08063 0.54272 0.03428 0.0
C752 C 0.94802 0.44181 0.0623 0.0
O753 O 0.98569 0.45348 0.0558 0.0
O754 O 0.92318 0.45589 0.04115 0.0
O755 O 0.11962 0.45038 0.9872 0.0
O756 O 0.05708 0.38906 0.98391 0.0
O757 O 0.11574 0.45399 0.06876 0.0
C758 C 0.09509 0.41162 0.9768 0.0
O759 O 0.06232 0.38605 0.07069 0.0
O760 O 0.95881 0.39072 0.99293 0.0
C761 C 0.09978 0.41344 0.08343 0.0
O762 O 0.95397 0.45575 0.97246 0.0
O763 O 0.04346 0.54165 0.95052 0.0
O764 O 0.10675 0.54176 0.96165 0.0
C765 C 0.46602 0.5909 0.04704 0.0
C766 C 0.53119 0.63154 0.95323 0.0
C767 C 0.45967 0.45617 0.93957 0.0
Mg768 Mg 0.54971 0.59977 0.03006 0.0
O769 O 0.51474 0.54098 0.02051 0.0
Mg770 Mg 0.46171 0.52842 0.98627 0.0
Mg771 Mg 0.53679 0.50886 1.00011 0.0
O772 O 0.55874 0.47578 0.98049 0.0
Mg773 Mg 0.5235 0.41449 0.97828 0.0
Mg774 Mg 0.61464 0.49282 0.01219 0.0
C775 C 0.61498 0.56036 0.06196 0.0
C776 C 0.61729 0.58011 0.96048 0.0
O777 O 0.44518 0.5629 0.02401 0.0
O778 O 0.50651 0.60908 0.0537 0.0
O779 O 0.49608 0.59595 0.95275 0.0
O780 O 0.5592 0.64011 0.98061 0.0
O781 O 0.60314 0.59063 0.06047 0.0
O782 O 0.59352 0.52675 0.04437 0.0
C783 C 0.45398 0.43864 0.03785 0.0
O784 O 0.49223 0.44843 0.03479 0.0
O785 O 0.43548 0.46264 0.02136 0.0
O786 O 0.62881 0.45647 0.97577 0.0
O787 O 0.56574 0.40588 0.95186 0.0
O788 O 0.58721 0.43011 0.04836 0.0
C789 C 0.60634 0.42613 0.95494 0.0
O790 O 0.52121 0.38024 0.03213 0.0
O791 O 0.46942 0.4235 0.94665 0.0
C792 C 0.55487 0.39366 0.0546 0.0
O793 O 0.48207 0.49238 0.95415 0.0
O794 O 0.57963 0.56942 0.96548 0.0
O795 O 0.63696 0.55678 0.97523 0.0
C796 C 0.92021 0.56359 0.51951 0.0
C797 C 0.94842 0.59415 0.41793 0.0
C798 C 0.96312 0.42034 0.46596 0.0
Mg799 Mg 1.0063 0.59726 0.49317 0.0
O800 O 0.99305 0.53801 0.49605 0.0
Mg801 Mg 0.93459 0.49675 0.47588 0.0
Mg802 Mg 0.03141 0.50898 0.49661 0.0
O803 O 0.06892 0.47901 0.49731 0.0
Mg804 Mg 0.0533 0.41846 0.50737 0.0
Mg805 Mg 0.12776 0.52002 0.51631 0.0
C806 C 0.09734 0.59572 0.53357 0.0
C807 C 0.10164 0.57354 0.44046 0.0
O808 O 0.90587 0.53082 0.50121 0.0
O809 O 0.95963 0.59111 0.52385 0.0
O810 O 0.93064 0.55101 0.42361 0.0
O811 O 0.98076 0.61695 0.43943 0.0
O812 O 0.07215 0.61374 0.5193 0.0
O813 O 0.08782 0.55479 0.53187 0.0
C814 C 0.9611 0.4439 0.55189 0.0
O815 O 1.00018 0.46192 0.54696 0.0
O816 O 0.93333 0.4512 0.52842 0.0
O817 O 0.15237 0.48187 0.48826 0.0
O818 O 0.09475 0.41841 0.47547 0.0
O819 O 0.13275 0.46883 0.57022 0.0
C820 C 0.13365 0.44556 0.47336 0.0
O821 O 0.0821 0.40072 0.56113 0.0
O822 O 0.98722 0.4016 0.48203 0.0
C823 C 0.11586 0.42628 0.57981 0.0
O824 O 0.9749 0.46249 0.46249 0.0
O825 O 0.06268 0.55632 0.44568 0.0
O826 O 0.12897 0.56528 0.46372 0.0
C827 C 0.44119 0.08925 0.52717 0.0
C828 C 0.44189 0.0852 0.42154 0.0
C829 C 0.4356 0.90737 0.48063 0.0
Mg830 Mg 0.51239 0.09623 0.4893 0.0
O831 O 0.48942 0.03541 0.506 0.0
Mg832 Mg 0.42748 0.99897 0.49173 0.0
Mg833 Mg 0.51685 0.99561 0.50533 0.0
O834 O 0.54471 0.95624 0.50457 0.0
Mg835 Mg 0.522 0.89597 0.52165 0.0
Mg836 Mg 0.60722 0.99262 0.51793 0.0
C837 C 0.59847 0.08289 0.53078 0.0
C838 C 0.58114 0.04682 0.44316 0.0
O839 O 0.41645 0.05049 0.51682 0.0
O840 O 0.47982 0.11055 0.52144 0.0
O841 O 0.42357 0.04481 0.43633 0.0
O842 O 0.47928 0.11139 0.43526 0.0
O843 O 0.57826 0.10587 0.51411 0.0
O844 O 0.58121 0.04001 0.53408 0.0
C845 C 0.45169 0.94538 0.56703 0.0
O846 O 0.48881 0.95624 0.55979 0.0
O847 O 0.42594 0.95758 0.54532 0.0
O848 O 0.61706 0.94179 0.49152 0.0
O849 O 0.55382 0.88131 0.48897 0.0
O850 O 0.61403 0.94608 0.57302 0.0
C851 C 0.59186 0.90287 0.48174 0.0
O852 O 0.55495 0.88245 0.57556 0.0
O853 O 0.45566 0.88475 0.49837 0.0
C854 C 0.59363 0.90643 0.58827 0.0
O855 O 0.45283 0.95039 0.47649 0.0
O856 O 0.54416 0.03532 0.45093 0.0
O857 O 0.60724 0.03464 0.46441 0.0
H858 H 0.24733 0.21213 0.36314 0.0
H859 H 0.13876 0.15511 0.28377 0.0
H860 H 0.09608 0.10909 0.33111 0.0
H861 H 0.09211 0.08032 0.39502 0.0
H862 H 0.20418 0.13218 0.47218 0.0
H863 H 0.24341 0.18557 0.42551 0.0
C864 C 0.21444 0.18963 0.35586 0.0
C865 C 0.19665 0.18628 0.31982 0.0
C866 C 0.19083 0.16251 0.38293 0.0
C867 C 0.15351 0.15768 0.31128 0.0
C868 C 0.12911 0.13147 0.33833 0.0
C869 C 0.12492 0.10396 0.40149 0.0
C870 C 0.1455 0.10287 0.43674 0.0
C871 C 0.14776 0.13292 0.37423 0.0
C872 C 0.18803 0.13281 0.44511 0.0
C873 C 0.21035 0.16308 0.41849 0.0
H874 H 0.95954 0.20378 0.32768 0.0
H875 H 1.00364 0.29746 0.40413 0.0
H876 H 0.06059 0.27651 0.43052 0.0
H877 H 0.07394 0.21059 0.44639 0.0
H878 H 1.0183 0.1094 0.37552 0.0
H879 H 0.99178 0.15548 0.33129 0.0
C880 C 0.98241 0.22149 0.34903 0.0
C881 C 0.97482 0.24908 0.36615 0.0
C882 C 1.01292 0.20691 0.36552 0.0
C883 C 1.00681 0.2734 0.39223 0.0
C884 C 0.03942 0.26137 0.40739 0.0
C885 C 0.05796 0.19978 0.42045 0.0
C886 C 0.04588 0.15605 0.41459 0.0
C887 C 0.03929 0.22451 0.39684 0.0
C888 C 0.02643 0.14253 0.38079 0.0
C889 C 1.01095 0.16872 0.35573 0.0
H890 H 0.87757 0.89796 0.2907 0.0
H891 H 0.77653 0.8133 0.3527 0.0
H892 H 0.8143 0.85541 0.40238 0.0
H893 H 0.88257 0.90465 0.43302 0.0
H894 H 0.9849 0.98969 0.37309 0.0
H895 H 0.94038 0.96016 0.31813 0.0
C896 C 0.86362 0.88914 0.31482 0.0
C897 C 0.82529 0.85063 0.31836 0.0
C898 C 0.88598 0.9137 0.34403 0.0
C899 C 0.80687 0.84116 0.34944 0.0
C900 C 0.82838 0.86555 0.37811 0.0
C901 C 0.89421 0.91838 0.40758 0.0
C902 C 0.93659 0.94921 0.40687 0.0
C903 C 0.86894 0.90021 0.37645 0.0
C904 C 0.95193 0.96631 0.37399 0.0
C905 C 0.92672 0.94883 0.34267 0.0
H906 H 0.16377 0.85888 0.34406 0.0
H907 H 0.24909 0.99877 0.33561 0.0
H908 H 0.22743 0.00609 0.38856 0.0
H909 H 0.18025 0.97371 0.43461 0.0
H910 H 0.09165 0.83489 0.44034 0.0
H911 H 0.11942 0.82578 0.39189 0.0
C912 C 0.17807 0.89084 0.3541 0.0
C913 C 0.2079 0.92827 0.33579 0.0
C914 C 0.16504 0.89487 0.38429 0.0
C915 C 0.22566 0.96958 0.34891 0.0
C916 C 0.21347 0.97371 0.37932 0.0
C917 C 0.16787 0.94122 0.42588 0.0
C918 C 0.13427 0.90487 0.44129 0.0
C919 C 0.18273 0.9367 0.39695 0.0
C920 C 0.11773 0.86324 0.42907 0.0
C921 C 0.13337 0.85812 0.40119 0.0
H922 H 0.06788 0.80056 0.71298 0.0
H923 H 0.09988 0.93355 0.7303 0.0
H924 H 0.06213 0.9448 0.67181 0.0
H925 H 0.0458 0.92719 0.61058 0.0
H926 H 0.02594 0.79959 0.59002 0.0
H927 H 0.03328 0.77552 0.65426 0.0
C928 C 0.06474 0.83119 0.70442 0.0
C929 C 0.08834 0.867 0.72483 0.0
C930 C 0.04686 0.83893 0.66938 0.0
C931 C 0.08288 0.90589 0.7146 0.0
C932 C 0.06199 0.91265 0.68079 0.0
C933 C 0.04161 0.89358 0.62037 0.0
C934 C 0.03675 0.86543 0.59634 0.0
C935 C 0.04795 0.88113 0.65696 0.0
C936 C 0.03037 0.82173 0.6085 0.0
C937 C 0.03474 0.8082 0.64512 0.0
H938 H 0.25634 0.17845 0.65775 0.0
H939 H 0.17154 0.09599 0.73404 0.0
H940 H 0.13384 0.03879 0.69376 0.0
H941 H 0.11601 0.02134 0.63169 0.0
H942 H 0.20053 0.10542 0.55588 0.0
H943 H 0.24934 0.15145 0.602 0.0
C944 C 0.23002 0.14792 0.66596 0.0
C945 C 0.21513 0.14286 0.69801 0.0
C946 C 0.20903 0.11498 0.64289 0.0
C947 C 0.18224 0.10189 0.70873 0.0
C948 C 0.16096 0.06886 0.68584 0.0
C949 C 0.1464 0.04812 0.62594 0.0
C950 C 0.15463 0.06053 0.59053 0.0
C951 C 0.17276 0.07614 0.65207 0.0
C952 C 0.19381 0.09529 0.58308 0.0
C953 C 0.22112 0.12229 0.60924 0.0
H954 H 0.91234 0.15465 0.64932 0.0
H955 H 0.82188 0.01645 0.65667 0.0
H956 H 0.84773 0.00551 0.60791 0.0
H957 H 0.89964 0.03393 0.56598 0.0
H958 H 0.9933 0.17078 0.56164 0.0
H959 H 0.96214 0.18383 0.60557 0.0
C960 C 0.89784 0.12234 0.63983 0.0
C961 C 0.86529 0.08643 0.65674 0.0
C962 C 0.9134 0.11609 0.61212 0.0
C963 C 0.84727 0.04458 0.64442 0.0
C964 C 0.86194 0.03832 0.61642 0.0
C965 C 0.9125 0.06686 0.57401 0.0
C966 C 0.94841 0.1015 0.56024 0.0
C967 C 0.89543 0.07366 0.60039 0.0
C968 C 0.96549 0.14369 0.57166 0.0
C969 C 0.94782 0.15109 0.59694 0.0
H970 H 0.8774 0.79543 0.66857 0.0
H971 H 0.85249 0.90107 0.6848 0.0
H972 H 0.88756 0.94763 0.63424 0.0
H973 H 0.92228 0.95719 0.58392 0.0
H974 H 0.94942 0.8536 0.56644 0.0
H975 H 0.9167 0.80707 0.61895 0.0
C976 C 0.88054 0.829 0.66126 0.0
C977 C 0.86362 0.84553 0.6809 0.0
C978 C 0.90052 0.85547 0.63171 0.0
C979 C 0.8668 0.88848 0.67099 0.0
C980 C 0.88625 0.91481 0.64169 0.0
C981 C 0.92071 0.92422 0.59142 0.0
C982 C 0.93756 0.90839 0.57119 0.0
C983 C 0.90266 0.89841 0.62165 0.0
C984 C 0.93646 0.86626 0.58166 0.0
C985 C 0.91775 0.83977 0.6116 0.0
H986 H 0.25626 0.06154 0.06249 0.0
H987 H 0.35307 0.1129 0.15172 0.0
H988 H 0.4028 0.10278 0.12541 0.0
H989 H 0.41965 0.08024 0.07686 0.0
H990 H 0.32178 0.02347 0.99004 0.0
H991 H 0.27147 0.03349 0.01633 0.0
C992 C 0.28796 0.06996 0.07666 0.0
C993 C 0.3006 0.08872 0.10905 0.0
C994 C 0.31637 0.06284 0.06186 0.0
C995 C 0.34232 0.09975 0.12634 0.0
C996 C 0.37087 0.09349 0.11148 0.0
C997 C 0.38728 0.06998 0.06367 0.0
C998 C 0.3747 0.05151 0.03128 0.0
C999 C 0.35837 0.07539 0.07914 0.0
C1000 C 0.33241 0.03777 0.01494 0.0
C1001 C 0.30364 0.04367 0.02991 0.0
H1002 H 0.80994 0.28753 0.14856 0.0
H1003 H 0.86974 0.37828 0.22792 0.0
H1004 H 0.92574 0.42735 0.19147 0.0
H1005 H 0.95302 0.44892 0.13316 0.0
H1006 H 0.89461 0.3561 0.0553 0.0
H1007 H 0.84414 0.30321 0.09502 0.0
C1008 C 0.836 0.31735 0.15834 0.0
C1009 C 0.8361 0.32865 0.1914 0.0
C1010 C 0.86855 0.34529 0.13727 0.0
C1011 C 0.86943 0.36822 0.20307 0.0
C1012 C 0.90137 0.39647 0.18205 0.0
C1013 C 0.9304 0.41639 0.12555 0.0
C1014 C 0.92836 0.40629 0.09139 0.0
C1015 C 0.90086 0.38596 0.14864 0.0
C1016 C 0.89767 0.36444 0.08163 0.0
C1017 C 0.86829 0.33434 0.10419 0.0
H1018 H 0.63963 0.75498 0.17602 0.0
H1019 H 0.75879 0.8641 0.20741 0.0
H1020 H 0.73471 0.91647 0.16773 0.0
H1021 H 0.67842 0.93168 0.12221 0.0
H1022 H 0.55808 0.81985 0.09643 0.0
H1023 H 0.58346 0.76978 0.13553 0.0
C1024 C 0.66072 0.79025 0.17424 0.0
C1025 C 0.70206 0.80465 0.19419 0.0
C1026 C 0.64588 0.82045 0.15219 0.0
C1027 C 0.72769 0.85105 0.19175 0.0
C1028 C 0.71347 0.8813 0.16914 0.0
C1029 C 0.65733 0.8965 0.12555 0.0
C1030 C 0.61557 0.88057 0.10552 0.0
C1031 C 0.67242 0.86658 0.14895 0.0
C1032 C 0.58992 0.83422 0.11073 0.0
C1033 C 0.60462 0.80502 0.13328 0.0
H1034 H 0.21732 0.64475 0.17418 0.0
H1035 H 0.22244 0.77112 0.12263 0.0
H1036 H 0.18625 0.73905 0.0674 0.0
H1037 H 0.14565 0.67368 0.036 0.0
H1038 H 0.13732 0.54627 0.08746 0.0
H1039 H 0.18443 0.58088 0.13958 0.0
C1040 C 0.21081 0.66538 0.15083 0.0
C1041 C 0.22149 0.70997 0.153 0.0
C1042 C 0.18995 0.64673 0.11887 0.0
C1043 C 0.21354 0.73638 0.12219 0.0
C1044 C 0.19316 0.71819 0.09037 0.0
C1045 C 0.15484 0.65353 0.05826 0.0
C1046 C 0.137 0.60728 0.05816 0.0
C1047 C 0.18017 0.67317 0.08872 0.0
C1048 C 0.15018 0.58191 0.08688 0.0
C1049 C 0.17667 0.60158 0.11697 0.0
H1050 H 0.37401 0.848 0.80475 0.0
H1051 H 0.31268 0.72744 0.87251 0.0
H1052 H 0.35316 0.76447 0.92551 0.0
H1053 H 0.40217 0.8334 0.95192 0.0
H1054 H 0.45095 0.957 0.88347 0.0
H1055 H 0.41644 0.91764 0.8309 0.0
C1056 C 0.37089 0.82981 0.83125 0.0
C1057 C 0.34261 0.78485 0.83529 0.0
C1058 C 0.38989 0.8526 0.86113 0.0
C1059 C 0.33639 0.76154 0.86928 0.0
C1060 C 0.35839 0.78305 0.89939 0.0
C1061 C 0.40404 0.85161 0.92542 0.0
C1062 C 0.4285 0.89767 0.9212 0.0
C1063 C 0.38416 0.82891 0.89554 0.0
C1064 C 0.43133 0.92144 0.88705 0.0
C1065 C 0.41262 0.89893 0.8571 0.0
H1066 H 0.18442 0.32838 0.91004 0.0
H1067 H 0.05415 0.23187 0.88836 0.0
H1068 H 0.03102 0.27605 0.91217 0.0
H1069 H 0.04743 0.33893 0.94215 0.0
H1070 H 0.17703 0.43584 0.96648 0.0
H1071 H 0.20074 0.39509 0.93822 0.0
C1072 C 0.15099 0.31744 0.91022 0.0
C1073 C 0.12104 0.27661 0.89776 0.0
C1074 C 0.13781 0.34292 0.92455 0.0
C1075 C 0.07783 0.26276 0.89823 0.0
C1076 C 0.06457 0.28807 0.91178 0.0
C1077 C 0.08097 0.35151 0.9413 0.0
C1078 C 0.1104 0.39034 0.95686 0.0
C1079 C 0.09427 0.32769 0.92558 0.0
C1080 C 0.15361 0.4061 0.95484 0.0
C1081 C 0.16718 0.38265 0.93878 0.0
H1082 H 0.64208 0.16501 0.78933 0.0
H1083 H 0.76887 0.19413 0.842 0.0
H1084 H 0.74176 0.15332 0.89719 0.0
H1085 H 0.68212 0.11068 0.9317 0.0
H1086 H 0.55517 0.08493 0.88075 0.0
H1087 H 0.58218 0.12377 0.82454 0.0
C1088 C 0.6638 0.16202 0.8128 0.0
C1089 C 0.70769 0.18158 0.8106 0.0
C1090 C 0.64785 0.13967 0.84527 0.0
C1091 C 0.73511 0.1783 0.84184 0.0
C1092 C 0.71949 0.1553 0.87386 0.0
C1093 C 0.66015 0.11365 0.90845 0.0
C1094 C 0.61634 0.09467 0.91097 0.0
C1095 C 0.67595 0.13608 0.87602 0.0
C1096 C 0.58889 0.09921 0.88012 0.0
C1097 C 0.60438 0.12128 0.84775 0.0
H1098 H 0.89752 0.72238 0.79309 0.0
H1099 H 0.78291 0.66278 0.84015 0.0
H1100 H 0.81119 0.61879 0.88579 0.0
H1101 H 0.86778 0.59384 0.912 0.0
H1102 H 0.98409 0.65607 0.86701 0.0
H1103 H 0.95633 0.70113 0.82189 0.0
C1104 C 0.87926 0.70105 0.8141 0.0
C1105 C 0.83845 0.69837 0.81365 0.0
C1106 C 0.89588 0.67488 0.84057 0.0
C1107 C 0.81493 0.6679 0.84029 0.0
C1108 C 0.831 0.64192 0.8663 0.0
C1109 C 0.88701 0.61679 0.89207 0.0
C1110 C 0.92808 0.61993 0.89293 0.0
C1111 C 0.87122 0.64437 0.86656 0.0
C1112 C 0.95236 0.65157 0.86718 0.0
C1113 C 0.93644 0.67787 0.84128 0.0
H1114 H 0.25912 0.385 0.17425 0.0
H1115 H 0.16437 0.25394 0.20399 0.0
H1116 H 0.10885 0.273 0.16683 0.0
H1117 H 0.08663 0.32875 0.12437 0.0
H1118 H 0.18403 0.46258 0.10435 0.0
H1119 H 0.23728 0.441 0.13913 0.0
C1120 C 0.22635 0.36015 0.17258 0.0
C1121 C 0.21703 0.31682 0.1907 0.0
C1122 C 0.1942 0.3724 0.15283 0.0
C1123 C 0.17364 0.28652 0.18898 0.0
C1124 C 0.14152 0.2979 0.16801 0.0
C1125 C 0.11934 0.3535 0.12794 0.0
C1126 C 0.13007 0.39789 0.11071 0.0
C1127 C 0.15122 0.34096 0.14947 0.0
C1128 C 0.1734 0.42847 0.1165 0.0
C1129 C 0.20456 0.41604 0.13655 0.0
H1130 H 0.11857 0.63249 0.783 0.0
H1131 H 0.24223 0.70331 0.84087 0.0
H1132 H 0.21488 0.67139 0.89698 0.0
H1133 H 0.15709 0.61925 0.93045 0.0
H1134 H 0.0318 0.54901 0.87489 0.0
H1135 H 0.0578 0.58517 0.81753 0.0
C1136 C 0.13925 0.64143 0.80794 0.0
C1137 C 0.18242 0.67176 0.80738 0.0
C1138 C 0.12284 0.62284 0.84073 0.0
C1139 C 0.20882 0.68203 0.84006 0.0
C1140 C 0.19315 0.66319 0.87242 0.0
C1141 C 0.13522 0.61231 0.90581 0.0
C1142 C 0.09255 0.5812 0.90706 0.0
C1143 C 0.15038 0.63325 0.87313 0.0
C1144 C 0.06469 0.57295 0.87482 0.0
C1145 C 0.07973 0.59334 0.84197 0.0
H1146 H 0.40275 0.24845 0.82324 0.0
H1147 H 0.28067 0.14055 0.79646 0.0
H1148 H 0.30617 0.08727 0.83209 0.0
H1149 H 0.36457 0.07101 0.87257 0.0
H1150 H 0.4875 0.18132 0.89363 0.0
H1151 H 0.46084 0.23253 0.85837 0.0
C1152 C 0.38136 0.21325 0.82524 0.0
C1153 C 0.33887 0.19937 0.80805 0.0
C1154 C 0.39697 0.18256 0.84464 0.0
C1155 C 0.31273 0.15312 0.81039 0.0
C1156 C 0.32773 0.12237 0.83053 0.0
C1157 C 0.38589 0.1061 0.86884 0.0
C1158 C 0.42875 0.12143 0.88628 0.0
C1159 C 0.37001 0.13652 0.84798 0.0
C1160 C 0.45481 0.16761 0.88102 0.0
C1161 C 0.43938 0.19739 0.86082 0.0
H1162 H 0.84377 0.36164 0.82531 0.0
H1163 H 0.85578 0.24115 0.86989 0.0
H1164 H 0.87984 0.2667 0.92859 0.0
H1165 H 0.90335 0.32558 0.96578 0.0
H1166 H 0.8951 0.44787 0.92071 0.0
H1167 H 0.86035 0.41747 0.86422 0.0
C1168 C 0.85146 0.34077 0.84777 0.0
C1169 C 0.84867 0.29983 0.84289 0.0
C1170 C 0.86488 0.35545 0.88158 0.0
C1171 C 0.85841 0.27319 0.87259 0.0
C1172 C 0.87173 0.28755 0.9063 0.0
C1173 C 0.89324 0.34547 0.94392 0.0
C1174 C 0.90316 0.38959 0.94732 0.0
C1175 C 0.87572 0.32891 0.91095 0.0
C1176 C 0.88853 0.41408 0.91888 0.0
C1177 C 0.86926 0.39698 0.88631 0.0
H1178 H 0.7237 0.90762 0.8707 0.0
H1179 H 0.82424 0.94032 0.95989 0.0
H1180 H 0.78279 0.95725 0.99116 0.0
H1181 H 0.71658 0.96056 0.99436 0.0
H1182 H 0.61447 0.92238 0.90689 0.0
H1183 H 0.65764 0.90972 0.87418 0.0
C1184 C 0.73647 0.91793 0.89714 0.0
C1185 C 0.77731 0.92272 0.91263 0.0
C1186 C 0.71207 0.92681 0.91545 0.0
C1187 C 0.79331 0.93697 0.94679 0.0
C1188 C 0.76947 0.94647 0.96492 0.0
C1189 C 0.70401 0.94983 0.96803 0.0
C1190 C 0.66235 0.94244 0.95314 0.0
C1191 C 0.72872 0.94142 0.94959 0.0
C1192 C 0.64634 0.92806 0.91911 0.0
C1193 C 0.67101 0.9208 0.90032 0.0
H1194 H 0.9056 0.68909 0.1295 0.0
H1195 H 0.78417 0.57406 0.12446 0.0
H1196 H 0.80453 0.54613 0.0821 0.0
H1197 H 0.85928 0.55162 0.04995 0.0
H1198 H 0.98046 0.66764 0.05555 0.0
H1199 H 0.95754 0.69772 0.09361 0.0
C1200 C 0.88324 0.65841 0.11854 0.0
C1201 C 0.84365 0.63355 0.13048 0.0
C1202 C 0.89528 0.64229 0.09444 0.0
C1203 C 0.81519 0.59357 0.11618 0.0
C1204 C 0.82679 0.57754 0.09192 0.0
C1205 C 0.88054 0.58362 0.05923 0.0
C1206 C 0.92177 0.60681 0.05001 0.0
C1207 C 0.86721 0.60108 0.08148 0.0
C1208 C 0.94867 0.64851 0.06228 0.0
C1209 C 0.93562 0.66599 0.08414 0.0
H1210 H 0.31757 0.80461 0.15104 0.0
H1211 H 0.42807 0.8683 0.22627 0.0
H1212 H 0.46902 0.91172 0.17747 0.0
H1213 H 0.47409 0.93092 0.11259 0.0
H1214 H 0.36361 0.86405 0.03802 0.0
H1215 H 0.32283 0.82257 0.08677 0.0
C1216 C 0.3503 0.82869 0.1567 0.0
C1217 C 0.36937 0.83401 0.19234 0.0
C1218 C 0.37422 0.85247 0.12838 0.0
C1219 C 0.41239 0.86421 0.19908 0.0
C1220 C 0.43598 0.88877 0.17114 0.0
C1221 C 0.44139 0.90662 0.10707 0.0
C1222 C 0.42235 0.9006 0.07139 0.0
C1223 C 0.41751 0.8828 0.13555 0.0
C1224 C 0.37945 0.86945 0.06503 0.0
C1225 C 0.35581 0.8458 0.09298 0.0
H1226 H 0.73305 0.19868 0.14327 0.0
H1227 H 0.6274 0.18774 0.18643 0.0
H1228 H 0.57821 0.14164 0.14052 0.0
H1229 H 0.56575 0.10236 0.09066 0.0
H1230 H 0.67004 0.11104 0.0474 0.0
H1231 H 0.72039 0.15845 0.09312 0.0
C1232 C 0.69923 0.18597 0.14275 0.0
C1233 C 0.68358 0.19583 0.16833 0.0
C1234 C 0.67144 0.15833 0.11733 0.0
C1235 C 0.63995 0.18056 0.16685 0.0
C1236 C 0.61196 0.15382 0.14102 0.0
C1237 C 0.59962 0.11451 0.09148 0.0
C1238 C 0.61483 0.10391 0.0662 0.0
C1239 C 0.62748 0.142 0.11672 0.0
C1240 C 0.65826 0.11894 0.06713 0.0
C1241 C 0.68668 0.14625 0.0928 0.0
H1242 H 0.74527 0.72408 0.86447 0.0
H1243 H 0.64212 0.66291 0.78212 0.0
H1244 H 0.59589 0.61895 0.82742 0.0
H1245 H 0.58776 0.59205 0.89096 0.0
H1246 H 0.69366 0.64977 0.97196 0.0
H1247 H 0.73575 0.70228 0.92652 0.0
C1248 C 0.71259 0.70153 0.85616 0.0
C1249 C 0.69744 0.69618 0.81994 0.0
C1250 C 0.68665 0.6761 0.8822 0.0
C1251 C 0.65481 0.6671 0.80987 0.0
C1252 C 0.62833 0.64209 0.83575 0.0
C1253 C 0.61962 0.61712 0.89848 0.0
C1254 C 0.63782 0.61772 0.93446 0.0
C1255 C 0.64426 0.64555 0.87206 0.0
C1256 C 0.67927 0.64933 0.94428 0.0
C1257 C 0.70332 0.67894 0.91836 0.0
H1258 H 0.42247 0.67714 0.83989 0.0
H1259 H 0.41353 0.73084 0.9276 0.0
H1260 H 0.48422 0.73934 0.95543 0.0
H1261 H 0.53291 0.70622 0.96364 0.0
H1262 H 0.52935 0.63603 0.88186 0.0
H1263 H 0.48239 0.66327 0.841 0.0
C1264 C 0.43663 0.69276 0.86423 0.0
C1265 C 0.41237 0.70191 0.8824 0.0
C1266 C 0.47573 0.69482 0.88088 0.0
C1267 C 0.43122 0.7221 0.91387 0.0
C1268 C 0.47163 0.7271 0.92964 0.0
C1269 C 0.52375 0.69929 0.9361 0.0
C1270 C 0.53262 0.66797 0.92581 0.0
C1271 C 0.49227 0.70984 0.91485 0.0
C1272 C 0.52183 0.65948 0.89024 0.0
C1273 C 0.49421 0.67421 0.86727 0.0
H1274 H 0.3832 0.40084 0.79047 0.0
H1275 H 0.27349 0.32285 0.84384 0.0
H1276 H 0.30763 0.36494 0.89403 0.0
H1277 H 0.37429 0.41263 0.92828 0.0
H1278 H 0.48344 0.4943 0.87523 0.0
H1279 H 0.44397 0.46349 0.81946 0.0
C1280 C 0.36646 0.39371 0.81262 0.0
C1281 C 0.32677 0.35654 0.81411 0.0
C1282 C 0.38637 0.41892 0.84178 0.0
C1283 C 0.30504 0.34914 0.84267 0.0
C1284 C 0.32441 0.37371 0.87149 0.0
C1285 C 0.38858 0.42546 0.90399 0.0
C1286 C 0.43147 0.45568 0.90573 0.0
C1287 C 0.36594 0.40698 0.87223 0.0
C1288 C 0.45007 0.4715 0.87428 0.0
C1289 C 0.42774 0.45323 0.84252 0.0
H1290 H 0.72431 0.41271 0.86357 0.0
H1291 H 0.61209 0.38399 0.78582 0.0
H1292 H 0.57399 0.3863 0.8298 0.0
H1293 H 0.5736 0.39975 0.88933 0.0
H1294 H 0.68735 0.43496 0.96597 0.0
H1295 H 0.7239 0.42659 0.92368 0.0
C1296 C 0.69142 0.40666 0.85652 0.0
C1297 C 0.67083 0.39808 0.82171 0.0
C1298 C 0.67012 0.40922 0.8817 0.0
C1299 C 0.62844 0.3908 0.81251 0.0
C1300 C 0.60671 0.39204 0.83762 0.0
C1301 C 0.60621 0.40496 0.89699 0.0
C1302 C 0.62763 0.41753 0.93084 0.0
C1303 C 0.62733 0.40159 0.87218 0.0
C1304 C 0.67016 0.42512 0.94008 0.0
C1305 C 0.69107 0.42042 0.9159 0.0
H1306 H 0.61372 0.39985 0.21261 0.0
H1307 H 0.72502 0.42476 0.17053 0.0
H1308 H 0.68212 0.39711 0.11524 0.0
H1309 H 0.61483 0.36875 0.07835 0.0
H1310 H 0.50795 0.36911 0.10952 0.0
H1311 H 0.54452 0.3774 0.17116 0.0
C1312 C 0.62828 0.40002 0.19088 0.0
C1313 C 0.67224 0.41442 0.19518 0.0
C1314 C 0.60348 0.38553 0.15835 0.0
C1315 C 0.69121 0.4144 0.16724 0.0
C1316 C 0.66671 0.39784 0.136 0.0
C1317 C 0.59904 0.36909 0.09909 0.0
C1318 C 0.55947 0.3693 0.0896 0.0
C1319 C 0.62291 0.3828 0.13153 0.0
C1320 C 0.53867 0.36912 0.11633 0.0
C1321 C 0.56022 0.37554 0.15114 0.0
H1322 H 0.75122 0.68317 0.15448 0.0
H1323 H 0.67424 0.59215 0.23364 0.0
H1324 H 0.63803 0.53608 0.19222 0.0
H1325 H 0.61797 0.52155 0.12925 0.0
H1326 H 0.69601 0.61337 0.05145 0.0
H1327 H 0.74517 0.65884 0.09774 0.0
C1328 C 0.72731 0.65081 0.16321 0.0
C1329 C 0.71388 0.64279 0.19648 0.0
C1330 C 0.70765 0.61844 0.13971 0.0
C1331 C 0.6837 0.60005 0.20752 0.0
C1332 C 0.66338 0.56771 0.184 0.0
C1333 C 0.64719 0.55002 0.12293 0.0
C1334 C 0.65305 0.56497 0.08709 0.0
C1335 C 0.67358 0.57754 0.14934 0.0
C1336 C 0.69093 0.60154 0.07896 0.0
C1337 C 0.71836 0.62819 0.10528 0.0
H1338 H 0.41146 0.66071 0.15579 0.0
H1339 H 0.3277 0.52118 0.17461 0.0
H1340 H 0.35032 0.50639 0.12562 0.0
H1341 H 0.39805 0.53252 0.08012 0.0
H1342 H 0.48514 0.67132 0.06467 0.0
H1343 H 0.45651 0.68721 0.10881 0.0
C1344 C 0.39767 0.62718 0.1488 0.0
C1345 C 0.36802 0.59213 0.1689 0.0
C1346 C 0.41139 0.61882 0.12101 0.0
C1347 C 0.35093 0.54872 0.15982 0.0
C1348 C 0.36373 0.54026 0.1317 0.0
C1349 C 0.40994 0.56634 0.08588 0.0
C1350 C 0.44333 0.60081 0.06895 0.0
C1351 C 0.39444 0.57495 0.11242 0.0
C1352 C 0.45927 0.64433 0.07725 0.0
C1353 C 0.44307 0.65338 0.10262 0.0
H1354 H 0.32048 0.29727 0.13275 0.0
H1355 H 0.42139 0.35989 0.21602 0.0
H1356 H 0.46886 0.40352 0.17168 0.0
H1357 H 0.47953 0.42894 0.10857 0.0
H1358 H 0.37682 0.36947 0.02587 0.0
H1359 H 0.33239 0.31876 0.07065 0.0
C1360 C 0.3529 0.32019 0.14139 0.0
C1361 C 0.36699 0.32584 0.17772 0.0
C1362 C 0.37981 0.34551 0.11575 0.0
C1363 C 0.40934 0.35551 0.18821 0.0
C1364 C 0.43662 0.38032 0.16287 0.0
C1365 C 0.44784 0.40388 0.10054 0.0
C1366 C 0.43151 0.4021 0.06416 0.0
C1367 C 0.42195 0.37623 0.12648 0.0
C1368 C 0.39006 0.37069 0.05381 0.0
C1369 C 0.36461 0.34208 0.07938 0.0
H1370 H 0.77 0.58066 0.56272 0.0
H1371 H 0.86824 0.64526 0.64708 0.0
H1372 H 0.91909 0.63517 0.62222 0.0
H1373 H 0.93588 0.60665 0.5771 0.0
H1374 H 0.83587 0.53592 0.4965 0.0
H1375 H 0.78552 0.54852 0.52011 0.0
C1376 C 0.80227 0.59199 0.57622 0.0
C1377 C 0.81481 0.61406 0.60681 0.0
C1378 C 0.83124 0.58463 0.56257 0.0
C1379 C 0.85738 0.62917 0.62307 0.0
C1380 C 0.88661 0.62297 0.60908 0.0
C1381 C 0.90306 0.59401 0.56472 0.0
C1382 C 0.88979 0.57047 0.53498 0.0
C1383 C 0.87392 0.60069 0.57885 0.0
C1384 C 0.847 0.55394 0.51951 0.0
C1385 C 0.81815 0.56128 0.53292 0.0
H1386 H 0.3903 0.87724 0.71879 0.0
H1387 H 0.27904 0.78974 0.65542 0.0
H1388 H 0.31519 0.81919 0.60305 0.0
H1389 H 0.37678 0.87339 0.57387 0.0
H1390 H 0.48999 0.95923 0.63629 0.0
H1391 H 0.4556 0.92637 0.69028 0.0
C1392 C 0.37418 0.86449 0.69352 0.0
C1393 C 0.33188 0.83084 0.6913 0.0
C1394 C 0.39578 0.88115 0.6633 0.0
C1395 C 0.31149 0.8149 0.65827 0.0
C1396 C 0.33226 0.83191 0.62815 0.0
C1397 C 0.39435 0.88417 0.59947 0.0
C1398 C 0.43613 0.9186 0.60098 0.0
C1399 C 0.37422 0.86528 0.63023 0.0
C1400 C 0.45821 0.93235 0.63435 0.0
C1401 C 0.43822 0.91393 0.66516 0.0
H1402 H 0.23844 0.36398 0.70426 0.0
H1403 H 0.15019 0.23731 0.66789 0.0
H1404 H 0.11166 0.27222 0.62438 0.0
H1405 H 0.10016 0.3377 0.59644 0.0
H1406 H 0.18707 0.46602 0.63007 0.0
H1407 H 0.22759 0.4321 0.67375 0.0
C1408 C 0.21136 0.34413 0.68634 0.0
C1409 C 0.19832 0.29736 0.68947 0.0
C1410 C 0.18805 0.36484 0.66079 0.0
C1411 C 0.16195 0.27297 0.66627 0.0
C1412 C 0.13942 0.29304 0.64124 0.0
C1413 C 0.12764 0.3586 0.61348 0.0
C1414 C 0.13931 0.40494 0.60964 0.0
C1415 C 0.15158 0.3388 0.63839 0.0
C1416 C 0.17612 0.43047 0.6321 0.0
C1417 C 0.19975 0.41089 0.65722 0.0
H1418 H 0.71644 0.13787 0.67245 0.0
H1419 H 0.70836 0.2609 0.63023 0.0
H1420 H 0.67382 0.23277 0.57326 0.0
H1421 H 0.63927 0.17091 0.53783 0.0
H1422 H 0.64448 0.0466 0.58037 0.0
H1423 H 0.68953 0.07895 0.63389 0.0
C1424 C 0.70737 0.1587 0.65081 0.0
C1425 C 0.71398 0.20101 0.65609 0.0
C1426 C 0.6878 0.14249 0.61786 0.0
C1427 C 0.70261 0.22772 0.62741 0.0
C1428 C 0.68328 0.21188 0.59458 0.0
C1429 C 0.65093 0.151 0.55838 0.0
C1430 C 0.63728 0.10593 0.5555 0.0
C1431 C 0.67486 0.16897 0.58981 0.0
C1432 C 0.65383 0.0812 0.58204 0.0
C1433 C 0.67914 0.09948 0.61294 0.0
H1434 H 0.80408 0.31756 0.35917 0.0
H1435 H 0.90167 0.30894 0.31783 0.0
H1436 H 0.95415 0.34766 0.36546 0.0
H1437 H 0.97244 0.38459 0.41741 0.0
H1438 H 0.87897 0.40206 0.45667 0.0
H1439 H 0.82382 0.35916 0.41052 0.0
C1440 C 0.83683 0.32416 0.3607 0.0
C1441 C 0.84905 0.30965 0.3357 0.0
C1442 C 0.86713 0.34785 0.38742 0.0
C1443 C 0.89152 0.31902 0.33732 0.0
C1444 C 0.92155 0.34134 0.36434 0.0
C1445 C 0.93979 0.37852 0.41604 0.0
C1446 C 0.92885 0.39499 0.44028 0.0
C1447 C 0.90957 0.35567 0.3894 0.0
C1448 C 0.88726 0.38872 0.4381 0.0
C1449 C 0.85614 0.36446 0.41191 0.0
H1450 H 0.67752 0.81954 0.41058 0.0
H1451 H 0.5466 0.72445 0.38945 0.0
H1452 H 0.52494 0.76785 0.41585 0.0
H1453 H 0.54281 0.82995 0.4475 0.0
H1454 H 0.6731 0.92586 0.47052 0.0
H1455 H 0.69532 0.88531 0.44058 0.0
C1456 C 0.64427 0.80873 0.41146 0.0
C1457 C 0.61373 0.7685 0.39837 0.0
C1458 C 0.63194 0.83379 0.4272 0.0
C1459 C 0.57076 0.75484 0.39978 0.0
C1460 C 0.55832 0.77969 0.41483 0.0
C1461 C 0.57619 0.84229 0.44606 0.0
C1462 C 0.60624 0.88083 0.46167 0.0
C1463 C 0.58864 0.81873 0.42914 0.0
C1464 C 0.64921 0.89631 0.45888 0.0
C1465 C 0.66194 0.87302 0.44181 0.0
H1466 H 0.14073 0.67225 0.28398 0.0
H1467 H 0.26817 0.71832 0.33956 0.0
H1468 H 0.242 0.67681 0.39473 0.0
H1469 H 0.18313 0.62715 0.4281 0.0
H1470 H 0.0544 0.58347 0.37516 0.0
H1471 H 0.08049 0.6245 0.31883 0.0
C1472 C 0.16278 0.67288 0.30814 0.0
C1473 C 0.20693 0.69726 0.30677 0.0
C1474 C 0.14704 0.64954 0.34064 0.0
C1475 C 0.23454 0.69878 0.33886 0.0
C1476 C 0.21937 0.67523 0.37082 0.0
C1477 C 0.16048 0.62655 0.40437 0.0
C1478 C 0.11655 0.6018 0.4063 0.0
C1479 C 0.17574 0.65038 0.37209 0.0
C1480 C 0.08822 0.60217 0.37492 0.0
C1481 C 0.10325 0.62553 0.34253 0.0
H1482 H 0.2937 0.12766 0.32384 0.0
H1483 H 0.39643 0.25286 0.29404 0.0
H1484 H 0.44729 0.22854 0.33391 0.0
H1485 H 0.46272 0.16976 0.37866 0.0
H1486 H 0.35709 0.04187 0.39929 0.0
H1487 H 0.30871 0.06876 0.36183 0.0
C1488 C 0.32724 0.15017 0.32608 0.0
C1489 C 0.34033 0.1934 0.30687 0.0
C1490 C 0.35646 0.13482 0.34752 0.0
C1491 C 0.38447 0.22052 0.30952 0.0
C1492 C 0.41381 0.20609 0.33212 0.0
C1493 C 0.42923 0.14741 0.37461 0.0
C1494 C 0.41459 0.10305 0.39274 0.0
C1495 C 0.40032 0.16306 0.35153 0.0
C1496 C 0.37051 0.07565 0.38638 0.0
C1497 C 0.34223 0.0912 0.36479 0.0
H1498 H 0.66416 0.79284 0.71645 0.0
H1499 H 0.77703 0.86914 0.66725 0.0
H1500 H 0.74092 0.90625 0.62259 0.0
H1501 H 0.67758 0.92018 0.59778 0.0
H1502 H 0.5629 0.84152 0.64443 0.0
H1503 H 0.59863 0.80322 0.68879 0.0
C1504 C 0.68049 0.81643 0.69523 0.0
C1505 C 0.72347 0.82624 0.69488 0.0
C1506 C 0.65908 0.83843 0.66919 0.0
C1507 C 0.74396 0.85907 0.66789 0.0
C1508 C 0.72323 0.88096 0.64236 0.0
C1509 C 0.66032 0.89504 0.61786 0.0
C1510 C 0.61724 0.88514 0.61769 0.0
C1511 C 0.68093 0.87162 0.64291 0.0
C1512 C 0.59588 0.85103 0.64369 0.0
C1513 C 0.61645 0.82867 0.66917 0.0
H1514 H 0.63032 0.13465 0.28776 0.0
H1515 H 0.75198 0.19896 0.35097 0.0
H1516 H 0.72079 0.16297 0.40548 0.0
H1517 H 0.66023 0.11024 0.4356 0.0
H1518 H 0.53678 0.04718 0.37475 0.0
H1519 H 0.56671 0.08633 0.31928 0.0
C1520 C 0.64975 0.14103 0.31353 0.0
C1521 C 0.69367 0.16958 0.3152 0.0
C1522 C 0.63115 0.12055 0.34526 0.0
C1523 C 0.71838 0.17721 0.34884 0.0
C1524 C 0.70045 0.15669 0.3801 0.0
C1525 C 0.63962 0.10532 0.41023 0.0
C1526 C 0.59626 0.07539 0.40949 0.0
C1527 C 0.65707 0.12787 0.37868 0.0
C1528 C 0.57014 0.07004 0.37629 0.0
C1529 C 0.58743 0.0922 0.34451 0.0
H1530 H 0.89882 0.74488 0.32601 0.0
H1531 H 0.77661 0.6352 0.30367 0.0
H1532 H 0.80395 0.58344 0.33957 0.0
H1533 H 0.86449 0.56922 0.37913 0.0
H1534 H 0.98768 0.68149 0.3928 0.0
H1535 H 0.9586 0.73074 0.35828 0.0
C1536 C 0.87769 0.70964 0.329 0.0
C1537 C 0.83462 0.69499 0.31315 0.0
C1538 C 0.89445 0.67977 0.34807 0.0
C1539 C 0.80902 0.64857 0.31679 0.0
C1540 C 0.82513 0.61863 0.33699 0.0
C1541 C 0.8853 0.60426 0.37395 0.0
C1542 C 0.92904 0.6207 0.38943 0.0
C1543 C 0.86807 0.63369 0.35302 0.0
C1544 C 0.95436 0.66682 0.38202 0.0
C1545 C 0.93756 0.69557 0.36217 0.0
H1546 H 0.33151 0.77197 0.37139 0.0
H1547 H 0.37657 0.89389 0.30015 0.0
H1548 H 0.40219 0.93708 0.35001 0.0
H1549 H 0.41733 0.94065 0.41362 0.0
H1550 H 0.3775 0.81995 0.48629 0.0
H1551 H 0.34193 0.77604 0.43607 0.0
C1552 C 0.34713 0.80794 0.36689 0.0
C1553 C 0.35241 0.82959 0.33214 0.0
C1554 C 0.36165 0.8329 0.39583 0.0
C1555 C 0.37226 0.8763 0.32666 0.0
C1556 C 0.38663 0.90115 0.35512 0.0
C1557 C 0.39954 0.90485 0.41864 0.0
C1558 C 0.40031 0.88359 0.45361 0.0
C1559 C 0.38178 0.87985 0.3898 0.0
C1560 C 0.3773 0.83709 0.45952 0.0
C1561 C 0.3577 0.81194 0.43082 0.0
H1562 H 0.19358 0.37167 0.37006 0.0
H1563 H 0.305 0.49629 0.38176 0.0
H1564 H 0.2755 0.51256 0.42506 0.0
H1565 H 0.21462 0.49478 0.45534 0.0
H1566 H 0.10324 0.36969 0.44247 0.0
H1567 H 0.13562 0.35114 0.40379 0.0
C1568 C 0.21158 0.40218 0.38236 0.0
C1569 C 0.25133 0.43276 0.37246 0.0
C1570 C 0.19387 0.41201 0.40649 0.0
C1571 C 0.27406 0.47235 0.38853 0.0
C1572 C 0.25707 0.48185 0.41316 0.0
C1573 C 0.19758 0.46332 0.44436 0.0
C1574 C 0.15622 0.4341 0.45185 0.0
C1575 C 0.21644 0.45251 0.42168 0.0
C1576 C 0.1349 0.39333 0.43722 0.0
C1577 C 0.15341 0.38246 0.41493 0.0
H1578 H 0.35021 0.1712 0.59418 0.0
H1579 H 0.47827 0.27502 0.60647 0.0
H1580 H 0.50239 0.23185 0.58248 0.0
H1581 H 0.48732 0.16714 0.55557 0.0
H1582 H 0.35977 0.06265 0.54056 0.0
H1583 H 0.33534 0.10331 0.56815 0.0
C1584 C 0.38341 0.18398 0.5919 0.0
C1585 C 0.41242 0.22647 0.60194 0.0
C1586 C 0.39713 0.15904 0.57739 0.0
C1587 C 0.4553 0.24272 0.59865 0.0
C1588 C 0.46913 0.21802 0.58494 0.0
C1589 C 0.45407 0.15285 0.55829 0.0
C1590 C 0.42548 0.11174 0.54566 0.0
C1591 C 0.4403 0.17653 0.57375 0.0
C1592 C 0.38262 0.09413 0.5499 0.0
C1593 C 0.36861 0.11748 0.56566 0.0
H1594 H 0.92606 0.34286 0.70802 0.0
H1595 H 0.79735 0.30188 0.65591 0.0
H1596 H 0.82207 0.34468 0.60063 0.0
H1597 H 0.87996 0.39307 0.56602 0.0
H1598 H 1.00956 0.43168 0.61551 0.0
H1599 H 0.98499 0.39005 0.6721 0.0
C1600 C 0.90344 0.34364 0.68461 0.0
C1601 C 0.85955 0.32027 0.68701 0.0
C1602 C 0.91818 0.36754 0.65201 0.0
C1603 C 0.83098 0.32065 0.65589 0.0
C1604 C 0.84526 0.34488 0.62383 0.0
C1605 C 0.90309 0.39246 0.58905 0.0
C1606 C 0.9468 0.41584 0.58612 0.0
C1607 C 0.88873 0.36839 0.6215 0.0
C1608 C 0.97583 0.41404 0.61659 0.0
C1609 C 0.96172 0.39034 0.64912 0.0
H1610 H 0.14035 0.65566 0.68144 0.0
H1611 H 0.20407 0.78398 0.62343 0.0
H1612 H 0.1825 0.75007 0.56792 0.0
H1613 H 0.15145 0.68219 0.5379 0.0
H1614 H 0.09793 0.55388 0.59972 0.0
H1615 H 0.11114 0.58914 0.65236 0.0
C1616 C 0.14769 0.67621 0.65621 0.0
C1617 C 0.17298 0.72189 0.65593 0.0
C1618 C 0.13945 0.65615 0.6258 0.0
C1619 C 0.18358 0.74867 0.62371 0.0
C1620 C 0.17258 0.72914 0.5924 0.0
C1621 C 0.14482 0.6622 0.5634 0.0
C1622 C 0.12445 0.61567 0.56516 0.0
C1623 C 0.15247 0.68269 0.59364 0.0
C1624 C 0.11475 0.58979 0.59795 0.0
C1625 C 0.12092 0.60987 0.62776 0.0
loop_
_geom_bond_atom_site_label_1
_geom_bond_atom_site_label_2
_geom_bond_distance
_geom_bond_site_symmetry_2
_ccdc_geom_bond_type
Tb0 N31 2.660 . S
Tb0 N38 2.600 . S
Tb0 O44 2.546 . S
Tb0 O45 2.610 . S
Tb0 O47 2.320 . S
Tb0 O48 2.552 . S
Tb0 O49 2.413 . S
Tb0 O51 2.362 . S
Tb0 O52 2.421 . S
Tb0 C64 2.833 . S
C1 C4 1.432 . S
C1 C5 1.414 . S
C1 N8 1.359 . S
C2 C4 1.417 . S
C2 C6 1.432 . S
C2 C14 1.410 . S
C3 C5 1.444 . S
C3 C6 1.317 . S
C3 H26 0.929 . S
C4 C1 1.432 . S
C4 C2 1.417 . S
C4 N12 1.360 . S
C5 C1 1.414 . S
C5 C3 1.444 . S
C5 C10 1.385 . S
C6 C2 1.432 . S
C6 C3 1.317 . S
C6 H18 0.930 . S
C7 C9 1.392 . S
C7 C10 1.370 . S
C7 H19 0.931 . S
N8 C1 1.359 . S
N8 C9 1.327 . S
N8 Tb11 2.600 . S
C9 C7 1.392 . S
C9 N8 1.327 . S
C9 H16 0.930 . S
C10 C5 1.385 . S
C10 C7 1.370 . S
C10 H29 0.930 . S
Tb11 N8 2.600 . S
Tb11 N12 2.660 . S
Tb11 O45 2.362 . S
Tb11 O46 2.421 . S
Tb11 O50 2.546 . S
Tb11 O51 2.610 . S
Tb11 O53 2.320 . S
Tb11 O54 2.552 . S
Tb11 O55 2.413 . S
Tb11 C75 2.833 . S
N12 C4 1.360 . S
N12 Tb11 2.660 . S
N12 C13 1.305 . S
C13 N12 1.305 . S
C13 C15 1.407 . S
C13 H20 0.930 . S
C14 C2 1.410 . S
C14 C15 1.345 . S
C14 H22 0.930 . S
C15 C13 1.407 . S
C15 C14 1.345 . S
C15 H17 0.930 . S
H16 C9 0.930 . S
H17 C15 0.930 . S
H18 C6 0.930 . S
H19 C7 0.931 . S
H20 C13 0.930 . S
H21 C35 0.930 . S
H22 C14 0.930 . S
H23 C41 0.930 . S
H24 C32 0.930 . S
H25 C39 0.931 . S
H26 C3 0.929 . S
H27 C33 0.930 . S
H28 C66 0.930 . S
H29 C10 0.930 . S
H30 C65 0.929 . S
N31 Tb0 2.660 . S
N31 C32 1.305 . S
N31 C36 1.360 . S
C32 H24 0.930 . S
C32 N31 1.305 . S
C32 C35 1.407 . S
C33 H27 0.930 . S
C33 C34 1.410 . S
C33 C35 1.345 . S
C34 C33 1.410 . S
C34 C36 1.417 . S
C34 C66 1.432 . S
C35 H21 0.930 . S
C35 C32 1.407 . S
C35 C33 1.345 . S
C36 N31 1.360 . S
C36 C34 1.417 . S
C36 C40 1.432 . S
H37 C42 0.930 . S
N38 Tb0 2.600 . S
N38 C40 1.359 . S
N38 C41 1.327 . S
C39 H25 0.931 . S
C39 C41 1.392 . S
C39 C42 1.370 . S
C40 C36 1.432 . S
C40 N38 1.359 . S
C40 C43 1.414 . S
C41 H23 0.930 . S
C41 N38 1.327 . S
C41 C39 1.392 . S
C42 H37 0.930 . S
C42 C39 1.370 . S
C42 C43 1.385 . S
C43 C40 1.414 . S
C43 C42 1.385 . S
C43 C65 1.444 . S
O44 Tb0 2.546 . S
O44 C64 1.251 . S
O45 Tb0 2.610 . S
O45 Tb11 2.362 . S
O45 C56 1.283 . S
O46 Tb11 2.421 . S
O46 C63 1.262 . S
O47 Tb0 2.320 . S
O47 C63 1.260 . S
O48 Tb0 2.552 . S
O48 C56 1.243 . S
O49 Tb0 2.413 . S
O49 C64 1.256 . S
O50 Tb11 2.546 . S
O50 C75 1.251 . S
O51 Tb0 2.362 . S
O51 Tb11 2.610 . S
O51 C67 1.283 . S
O52 Tb0 2.421 . S
O52 C74 1.262 . S
O53 Tb11 2.320 . S
O53 C74 1.260 . S
O54 Tb11 2.552 . S
O54 C67 1.243 . S
O55 Tb11 2.413 . S
O55 C75 1.256 . S
C56 O45 1.283 . S
C56 O48 1.243 . S
C57 C59 1.382 . S
C57 C61 1.393 . S
C57 C64 1.500 . S
C58 C59 1.400 . S
C58 C60 1.384 . S
C59 C57 1.382 . S
C59 C58 1.400 . S
C59 H76 0.930 . S
C60 C58 1.384 . S
C60 C62 1.392 . S
C60 H77 0.931 . S
C61 C57 1.393 . S
C61 C62 1.401 . S
C61 H78 0.930 . S
C62 C60 1.392 . S
C62 C61 1.401 . S
C62 H79 0.930 . S
C63 O46 1.262 . S
C63 O47 1.260 . S
C64 Tb0 2.833 . S
C64 O44 1.251 . S
C64 O49 1.256 . S
C64 C57 1.500 . S
C65 H30 0.929 . S
C65 C43 1.444 . S
C65 C66 1.317 . S
C66 H28 0.930 . S
C66 C34 1.432 . S
C66 C65 1.317 . S
C67 O51 1.283 . S
C67 O54 1.243 . S
C68 C69 1.382 . S
C68 C72 1.393 . S
C68 C75 1.500 . S
C69 C68 1.382 . S
C69 C70 1.400 . S
C69 H80 0.930 . S
C70 C69 1.400 . S
C70 C71 1.384 . S
C71 C70 1.384 . S
C71 C73 1.392 . S
C71 H81 0.931 . S
C72 C68 1.393 . S
C72 C73 1.401 . S
C72 H82 0.930 . S
C73 C71 1.392 . S
C73 C72 1.401 . S
C73 H83 0.930 . S
C74 O52 1.262 . S
C74 O53 1.260 . S
C75 Tb11 2.833 . S
C75 O50 1.251 . S
C75 O55 1.256 . S
C75 C68 1.500 . S
H76 C59 0.930 . S
H77 C60 0.931 . S
H78 C61 0.930 . S
H79 C62 0.930 . S
H80 C69 0.930 . S
H81 C71 0.931 . S
H82 C72 0.930 . S
H83 C73 0.930 . S
Tb84 N115 2.660 . S
Tb84 N122 2.600 . S
Tb84 O128 2.546 . S
Tb84 O129 2.610 . S
Tb84 O131 2.320 . S
Tb84 O132 2.552 . S
Tb84 O133 2.413 . S
Tb84 O135 2.362 . S
Tb84 O136 2.421 . S
Tb84 C148 2.833 . S
C85 C88 1.432 . S
C85 C89 1.414 . S
C85 N92 1.359 . S
C86 C88 1.417 . S
C86 C90 1.432 . S
C86 C98 1.410 . S
C87 C89 1.444 . S
C87 C90 1.317 . S
C87 H110 0.929 . S
C88 C85 1.432 . S
C88 C86 1.417 . S
C88 N96 1.360 . S
C89 C85 1.414 . S
C89 C87 1.444 . S
C89 C94 1.385 . S
C90 C86 1.432 . S
C90 C87 1.317 . S
C90 H102 0.930 . S
C91 C93 1.392 . S
C91 C94 1.370 . S
C91 H103 0.931 . S
N92 C85 1.359 . S
N92 C93 1.327 . S
N92 Tb95 2.600 . S
C93 C91 1.392 . S
C93 N92 1.327 . S
C93 H100 0.930 . S
C94 C89 1.385 . S
C94 C91 1.370 . S
C94 H113 0.930 . S
Tb95 N92 2.600 . S
Tb95 N96 2.660 . S
Tb95 O129 2.362 . S
Tb95 O130 2.421 . S
Tb95 O134 2.546 . S
Tb95 O135 2.610 . S
Tb95 O137 2.320 . S
Tb95 O138 2.552 . S
Tb95 O139 2.413 . S
Tb95 C159 2.833 . S
N96 C88 1.360 . S
N96 Tb95 2.660 . S
N96 C97 1.305 . S
C97 N96 1.305 . S
C97 C99 1.407 . S
C97 H104 0.930 . S
C98 C86 1.410 . S
C98 C99 1.345 . S
C98 H106 0.930 . S
C99 C97 1.407 . S
C99 C98 1.345 . S
C99 H101 0.930 . S
H100 C93 0.930 . S
H101 C99 0.930 . S
H102 C90 0.930 . S
H103 C91 0.931 . S
H104 C97 0.930 . S
H105 C119 0.930 . S
H106 C98 0.930 . S
H107 C125 0.930 . S
H108 C116 0.930 . S
H109 C123 0.931 . S
H110 C87 0.929 . S
H111 C117 0.930 . S
H112 C150 0.930 . S
H113 C94 0.930 . S
H114 C149 0.929 . S
N115 Tb84 2.660 . S
N115 C116 1.305 . S
N115 C120 1.360 . S
C116 H108 0.930 . S
C116 N115 1.305 . S
C116 C119 1.407 . S
C117 H111 0.930 . S
C117 C118 1.410 . S
C117 C119 1.345 . S
C118 C117 1.410 . S
C118 C120 1.417 . S
C118 C150 1.432 . S
C119 H105 0.930 . S
C119 C116 1.407 . S
C119 C117 1.345 . S
C120 N115 1.360 . S
C120 C118 1.417 . S
C120 C124 1.432 . S
H121 C126 0.930 . S
N122 Tb84 2.600 . S
N122 C124 1.359 . S
N122 C125 1.327 . S
C123 H109 0.931 . S
C123 C125 1.392 . S
C123 C126 1.370 . S
C124 C120 1.432 . S
C124 N122 1.359 . S
C124 C127 1.414 . S
C125 H107 0.930 . S
C125 N122 1.327 . S
C125 C123 1.392 . S
C126 H121 0.930 . S
C126 C123 1.370 . S
C126 C127 1.385 . S
C127 C124 1.414 . S
C127 C126 1.385 . S
C127 C149 1.444 . S
O128 Tb84 2.546 . S
O128 C148 1.251 . S
O129 Tb84 2.610 . S
O129 Tb95 2.362 . S
O129 C140 1.283 . S
O130 Tb95 2.421 . S
O130 C147 1.262 . S
O131 Tb84 2.320 . S
O131 C147 1.260 . S
O132 Tb84 2.552 . S
O132 C140 1.243 . S
O133 Tb84 2.413 . S
O133 C148 1.256 . S
O134 Tb95 2.546 . S
O134 C159 1.251 . S
O135 Tb84 2.362 . S
O135 Tb95 2.610 . S
O135 C151 1.283 . S
O136 Tb84 2.421 . S
O136 C158 1.262 . S
O137 Tb95 2.320 . S
O137 C158 1.260 . S
O138 Tb95 2.552 . S
O138 C151 1.243 . S
O139 Tb95 2.413 . S
O139 C159 1.256 . S
C140 O129 1.283 . S
C140 O132 1.243 . S
C141 C143 1.382 . S
C141 C145 1.393 . S
C141 C148 1.500 . S
C142 C143 1.400 . S
C142 C144 1.384 . S
C143 C141 1.382 . S
C143 C142 1.400 . S
C143 H160 0.930 . S
C144 C142 1.384 . S
C144 C146 1.392 . S
C144 H161 0.931 . S
C145 C141 1.393 . S
C145 C146 1.401 . S
C145 H162 0.930 . S
C146 C144 1.392 . S
C146 C145 1.401 . S
C146 H163 0.930 . S
C147 O130 1.262 . S
C147 O131 1.260 . S
C148 Tb84 2.833 . S
C148 O128 1.251 . S
C148 O133 1.256 . S
C148 C141 1.500 . S
C149 H114 0.929 . S
C149 C127 1.444 . S
C149 C150 1.317 . S
C150 H112 0.930 . S
C150 C118 1.432 . S
C150 C149 1.317 . S
C151 O135 1.283 . S
C151 O138 1.243 . S
C152 C153 1.382 . S
C152 C156 1.393 . S
C152 C159 1.500 . S
C153 C152 1.382 . S
C153 C154 1.400 . S
C153 H164 0.930 . S
C154 C153 1.400 . S
C154 C155 1.384 . S
C155 C154 1.384 . S
C155 C157 1.392 . S
C155 H165 0.931 . S
C156 C152 1.393 . S
C156 C157 1.401 . S
C156 H166 0.930 . S
C157 C155 1.392 . S
C157 C156 1.401 . S
C157 H167 0.930 . S
C158 O136 1.262 . S
C158 O137 1.260 . S
C159 Tb95 2.833 . S
C159 O134 1.251 . S
C159 O139 1.256 . S
C159 C152 1.500 . S
H160 C143 0.930 . S
H161 C144 0.931 . S
H162 C145 0.930 . S
H163 C146 0.930 . S
H164 C153 0.930 . S
H165 C155 0.931 . S
H166 C156 0.930 . S
H167 C157 0.930 . S
Tb168 N199 2.660 . S
Tb168 N206 2.600 . S
Tb168 O212 2.546 . S
Tb168 O213 2.610 . S
Tb168 O215 2.320 . S
Tb168 O216 2.552 . S
Tb168 O217 2.413 . S
Tb168 O219 2.362 . S
Tb168 O220 2.421 . S
Tb168 C232 2.833 . S
C169 C172 1.432 . S
C169 C173 1.414 . S
C169 N176 1.359 . S
C170 C172 1.417 . S
C170 C174 1.432 . S
C170 C182 1.410 . S
C171 C173 1.444 . S
C171 C174 1.317 . S
C171 H194 0.929 . S
C172 C169 1.432 . S
C172 C170 1.417 . S
C172 N180 1.360 . S
C173 C169 1.414 . S
C173 C171 1.444 . S
C173 C178 1.385 . S
C174 C170 1.432 . S
C174 C171 1.317 . S
C174 H186 0.930 . S
C175 C177 1.392 . S
C175 C178 1.370 . S
C175 H187 0.931 . S
N176 C169 1.359 . S
N176 C177 1.327 . S
N176 Tb179 2.600 . S
C177 C175 1.392 . S
C177 N176 1.327 . S
C177 H184 0.930 . S
C178 C173 1.385 . S
C178 C175 1.370 . S
C178 H197 0.930 . S
Tb179 N176 2.600 . S
Tb179 N180 2.660 . S
Tb179 O213 2.362 . S
Tb179 O214 2.421 . S
Tb179 O218 2.546 . S
Tb179 O219 2.610 . S
Tb179 O221 2.320 . S
Tb179 O222 2.552 . S
Tb179 O223 2.413 . S
Tb179 C243 2.833 . S
N180 C172 1.360 . S
N180 Tb179 2.660 . S
N180 C181 1.305 . S
C181 N180 1.305 . S
C181 C183 1.407 . S
C181 H188 0.930 . S
C182 C170 1.410 . S
C182 C183 1.345 . S
C182 H190 0.930 . S
C183 C181 1.407 . S
C183 C182 1.345 . S
C183 H185 0.930 . S
H184 C177 0.930 . S
H185 C183 0.930 . S
H186 C174 0.930 . S
H187 C175 0.931 . S
H188 C181 0.930 . S
H189 C203 0.930 . S
H190 C182 0.930 . S
H191 C209 0.930 . S
H192 C200 0.930 . S
H193 C207 0.931 . S
H194 C171 0.929 . S
H195 C201 0.930 . S
H196 C234 0.930 . S
H197 C178 0.930 . S
H198 C233 0.929 . S
N199 Tb168 2.660 . S
N199 C200 1.305 . S
N199 C204 1.360 . S
C200 H192 0.930 . S
C200 N199 1.305 . S
C200 C203 1.407 . S
C201 H195 0.930 . S
C201 C202 1.410 . S
C201 C203 1.345 . S
C202 C201 1.410 . S
C202 C204 1.417 . S
C202 C234 1.432 . S
C203 H189 0.930 . S
C203 C200 1.407 . S
C203 C201 1.345 . S
C204 N199 1.360 . S
C204 C202 1.417 . S
C204 C208 1.432 . S
H205 C210 0.930 . S
N206 Tb168 2.600 . S
N206 C208 1.359 . S
N206 C209 1.327 . S
C207 H193 0.931 . S
C207 C209 1.392 . S
C207 C210 1.370 . S
C208 C204 1.432 . S
C208 N206 1.359 . S
C208 C211 1.414 . S
C209 H191 0.930 . S
C209 N206 1.327 . S
C209 C207 1.392 . S
C210 H205 0.930 . S
C210 C207 1.370 . S
C210 C211 1.385 . S
C211 C208 1.414 . S
C211 C210 1.385 . S
C211 C233 1.444 . S
O212 Tb168 2.546 . S
O212 C232 1.251 . S
O213 Tb168 2.610 . S
O213 Tb179 2.362 . S
O213 C224 1.283 . S
O214 Tb179 2.421 . S
O214 C231 1.262 . S
O215 Tb168 2.320 . S
O215 C231 1.260 . S
O216 Tb168 2.552 . S
O216 C224 1.243 . S
O217 Tb168 2.413 . S
O217 C232 1.256 . S
O218 Tb179 2.546 . S
O218 C243 1.251 . S
O219 Tb168 2.362 . S
O219 Tb179 2.610 . S
O219 C235 1.283 . S
O220 Tb168 2.421 . S
O220 C242 1.262 . S
O221 Tb179 2.320 . S
O221 C242 1.260 . S
O222 Tb179 2.552 . S
O222 C235 1.243 . S
O223 Tb179 2.413 . S
O223 C243 1.256 . S
C224 O213 1.283 . S
C224 O216 1.243 . S
C225 C227 1.382 . S
C225 C229 1.393 . S
C225 C232 1.500 . S
C226 C227 1.400 . S
C226 C228 1.384 . S
C227 C225 1.382 . S
C227 C226 1.400 . S
C227 H244 0.930 . S
C228 C226 1.384 . S
C228 C230 1.392 . S
C228 H245 0.931 . S
C229 C225 1.393 . S
C229 C230 1.401 . S
C229 H246 0.930 . S
C230 C228 1.392 . S
C230 C229 1.401 . S
C230 H247 0.930 . S
C231 O214 1.262 . S
C231 O215 1.260 . S
C232 Tb168 2.833 . S
C232 O212 1.251 . S
C232 O217 1.256 . S
C232 C225 1.500 . S
C233 H198 0.929 . S
C233 C211 1.444 . S
C233 C234 1.317 . S
C234 H196 0.930 . S
C234 C202 1.432 . S
C234 C233 1.317 . S
C235 O219 1.283 . S
C235 O222 1.243 . S
C236 C237 1.382 . S
C236 C240 1.393 . S
C236 C243 1.500 . S
C237 C236 1.382 . S
C237 C238 1.400 . S
C237 H248 0.930 . S
C238 C237 1.400 . S
C238 C239 1.384 . S
C239 C238 1.384 . S
C239 C241 1.392 . S
C239 H249 0.931 . S
C240 C236 1.393 . S
C240 C241 1.401 . S
C240 H250 0.930 . S
C241 C239 1.392 . S
C241 C240 1.401 . S
C241 H251 0.930 . S
C242 O220 1.262 . S
C242 O221 1.260 . S
C243 Tb179 2.833 . S
C243 O218 1.251 . S
C243 O223 1.256 . S
C243 C236 1.500 . S
H244 C227 0.930 . S
H245 C228 0.931 . S
H246 C229 0.930 . S
H247 C230 0.930 . S
H248 C237 0.930 . S
H249 C239 0.931 . S
H250 C240 0.930 . S
H251 C241 0.930 . S
Tb252 N283 2.660 . S
Tb252 N290 2.600 . S
Tb252 O296 2.546 . S
Tb252 O297 2.610 . S
Tb252 O299 2.320 . S
Tb252 O300 2.552 . S
Tb252 O301 2.413 . S
Tb252 O303 2.362 . S
Tb252 O304 2.421 . S
Tb252 C316 2.833 . S
C253 C256 1.432 . S
C253 C257 1.414 . S
C253 N260 1.359 . S
C254 C256 1.417 . S
C254 C258 1.432 . S
C254 C266 1.410 . S
C255 C257 1.444 . S
C255 C258 1.317 . S
C255 H278 0.929 . S
C256 C253 1.432 . S
C256 C254 1.417 . S
C256 N264 1.360 . S
C257 C253 1.414 . S
C257 C255 1.444 . S
C257 C262 1.385 . S
C258 C254 1.432 . S
C258 C255 1.317 . S
C258 H270 0.930 . S
C259 C261 1.392 . S
C259 C262 1.370 . S
C259 H271 0.931 . S
N260 C253 1.359 . S
N260 C261 1.327 . S
N260 Tb263 2.600 . S
C261 C259 1.392 . S
C261 N260 1.327 . S
C261 H268 0.930 . S
C262 C257 1.385 . S
C262 C259 1.370 . S
C262 H281 0.930 . S
Tb263 N260 2.600 . S
Tb263 N264 2.660 . S
Tb263 O297 2.362 . S
Tb263 O298 2.421 . S
Tb263 O302 2.546 . S
Tb263 O303 2.610 . S
Tb263 O305 2.320 . S
Tb263 O306 2.552 . S
Tb263 O307 2.413 . S
Tb263 C327 2.833 . S
N264 C256 1.360 . S
N264 Tb263 2.660 . S
N264 C265 1.305 . S
C265 N264 1.305 . S
C265 C267 1.407 . S
C265 H272 0.930 . S
C266 C254 1.410 . S
C266 C267 1.345 . S
C266 H274 0.930 . S
C267 C265 1.407 . S
C267 C266 1.345 . S
C267 H269 0.930 . S
H268 C261 0.930 . S
H269 C267 0.930 . S
H270 C258 0.930 . S
H271 C259 0.931 . S
H272 C265 0.930 . S
H273 C287 0.930 . S
H274 C266 0.930 . S
H275 C293 0.930 . S
H276 C284 0.930 . S
H277 C291 0.931 . S
H278 C255 0.929 . S
H279 C285 0.930 . S
H280 C318 0.930 . S
H281 C262 0.930 . S
H282 C317 0.929 . S
N283 Tb252 2.660 . S
N283 C284 1.305 . S
N283 C288 1.360 . S
C284 H276 0.930 . S
C284 N283 1.305 . S
C284 C287 1.407 . S
C285 H279 0.930 . S
C285 C286 1.410 . S
C285 C287 1.345 . S
C286 C285 1.410 . S
C286 C288 1.417 . S
C286 C318 1.432 . S
C287 H273 0.930 . S
C287 C284 1.407 . S
C287 C285 1.345 . S
C288 N283 1.360 . S
C288 C286 1.417 . S
C288 C292 1.432 . S
H289 C294 0.930 . S
N290 Tb252 2.600 . S
N290 C292 1.359 . S
N290 C293 1.327 . S
C291 H277 0.931 . S
C291 C293 1.392 . S
C291 C294 1.370 . S
C292 C288 1.432 . S
C292 N290 1.359 . S
C292 C295 1.414 . S
C293 H275 0.930 . S
C293 N290 1.327 . S
C293 C291 1.392 . S
C294 H289 0.930 . S
C294 C291 1.370 . S
C294 C295 1.385 . S
C295 C292 1.414 . S
C295 C294 1.385 . S
C295 C317 1.444 . S
O296 Tb252 2.546 . S
O296 C316 1.251 . S
O297 Tb252 2.610 . S
O297 Tb263 2.362 . S
O297 C308 1.283 . S
O298 Tb263 2.421 . S
O298 C315 1.262 . S
O299 Tb252 2.320 . S
O299 C315 1.260 . S
O300 Tb252 2.552 . S
O300 C308 1.243 . S
O301 Tb252 2.413 . S
O301 C316 1.256 . S
O302 Tb263 2.546 . S
O302 C327 1.251 . S
O303 Tb252 2.362 . S
O303 Tb263 2.610 . S
O303 C319 1.283 . S
O304 Tb252 2.421 . S
O304 C326 1.262 . S
O305 Tb263 2.320 . S
O305 C326 1.260 . S
O306 Tb263 2.552 . S
O306 C319 1.243 . S
O307 Tb263 2.413 . S
O307 C327 1.256 . S
C308 O297 1.283 . S
C308 O300 1.243 . S
C309 C311 1.382 . S
C309 C313 1.393 . S
C309 C316 1.500 . S
C310 C311 1.400 . S
C310 C312 1.384 . S
C311 C309 1.382 . S
C311 C310 1.400 . S
C311 H328 0.930 . S
C312 C310 1.384 . S
C312 C314 1.392 . S
C312 H329 0.931 . S
C313 C309 1.393 . S
C313 C314 1.401 . S
C313 H330 0.930 . S
C314 C312 1.392 . S
C314 C313 1.401 . S
C314 H331 0.930 . S
C315 O298 1.262 . S
C315 O299 1.260 . S
C316 Tb252 2.833 . S
C316 O296 1.251 . S
C316 O301 1.256 . S
C316 C309 1.500 . S
C317 H282 0.929 . S
C317 C295 1.444 . S
C317 C318 1.317 . S
C318 H280 0.930 . S
C318 C286 1.432 . S
C318 C317 1.317 . S
C319 O303 1.283 . S
C319 O306 1.243 . S
C320 C321 1.382 . S
C320 C324 1.393 . S
C320 C327 1.500 . S
C321 C320 1.382 . S
C321 C322 1.400 . S
C321 H332 0.930 . S
C322 C321 1.400 . S
C322 C323 1.384 . S
C323 C322 1.384 . S
C323 C325 1.392 . S
C323 H333 0.931 . S
C324 C320 1.393 . S
C324 C325 1.401 . S
C324 H334 0.930 . S
C325 C323 1.392 . S
C325 C324 1.401 . S
C325 H335 0.930 . S
C326 O304 1.262 . S
C326 O305 1.260 . S
C327 Tb263 2.833 . S
C327 O302 1.251 . S
C327 O307 1.256 . S
C327 C320 1.500 . S
H328 C311 0.930 . S
H329 C312 0.931 . S
H330 C313 0.930 . S
H331 C314 0.930 . S
H332 C321 0.930 . S
H333 C323 0.931 . S
H334 C324 0.930 . S
H335 C325 0.930 . S
Tb336 N367 2.660 . S
Tb336 N374 2.600 . S
Tb336 O380 2.546 . S
Tb336 O381 2.610 . S
Tb336 O383 2.320 . S
Tb336 O384 2.552 . S
Tb336 O385 2.413 . S
Tb336 O387 2.362 . S
Tb336 O388 2.421 . S
Tb336 C400 2.833 . S
C337 C340 1.432 . S
C337 C341 1.414 . S
C337 N344 1.359 . S
C338 C340 1.417 . S
C338 C342 1.432 . S
C338 C350 1.410 . S
C339 C341 1.444 . S
C339 C342 1.317 . S
C339 H362 0.929 . S
C340 C337 1.432 . S
C340 C338 1.417 . S
C340 N348 1.360 . S
C341 C337 1.414 . S
C341 C339 1.444 . S
C341 C346 1.385 . S
C342 C338 1.432 . S
C342 C339 1.317 . S
C342 H354 0.930 . S
C343 C345 1.392 . S
C343 C346 1.370 . S
C343 H355 0.931 . S
N344 C337 1.359 . S
N344 C345 1.327 . S
N344 Tb347 2.600 . S
C345 C343 1.392 . S
C345 N344 1.327 . S
C345 H352 0.930 . S
C346 C341 1.385 . S
C346 C343 1.370 . S
C346 H365 0.930 . S
Tb347 N344 2.600 . S
Tb347 N348 2.660 . S
Tb347 O381 2.362 . S
Tb347 O382 2.421 . S
Tb347 O386 2.546 . S
Tb347 O387 2.610 . S
Tb347 O389 2.320 . S
Tb347 O390 2.552 . S
Tb347 O391 2.413 . S
Tb347 C411 2.833 . S
N348 C340 1.360 . S
N348 Tb347 2.660 . S
N348 C349 1.305 . S
C349 N348 1.305 . S
C349 C351 1.407 . S
C349 H356 0.930 . S
C350 C338 1.410 . S
C350 C351 1.345 . S
C350 H358 0.930 . S
C351 C349 1.407 . S
C351 C350 1.345 . S
C351 H353 0.930 . S
H352 C345 0.930 . S
H353 C351 0.930 . S
H354 C342 0.930 . S
H355 C343 0.931 . S
H356 C349 0.930 . S
H357 C371 0.930 . S
H358 C350 0.930 . S
H359 C377 0.930 . S
H360 C368 0.930 . S
H361 C375 0.931 . S
H362 C339 0.929 . S
H363 C369 0.930 . S
H364 C402 0.930 . S
H365 C346 0.930 . S
H366 C401 0.929 . S
N367 Tb336 2.660 . S
N367 C368 1.305 . S
N367 C372 1.360 . S
C368 H360 0.930 . S
C368 N367 1.305 . S
C368 C371 1.407 . S
C369 H363 0.930 . S
C369 C370 1.410 . S
C369 C371 1.345 . S
C370 C369 1.410 . S
C370 C372 1.417 . S
C370 C402 1.432 . S
C371 H357 0.930 . S
C371 C368 1.407 . S
C371 C369 1.345 . S
C372 N367 1.360 . S
C372 C370 1.417 . S
C372 C376 1.432 . S
H373 C378 0.930 . S
N374 Tb336 2.600 . S
N374 C376 1.359 . S
N374 C377 1.327 . S
C375 H361 0.931 . S
C375 C377 1.392 . S
C375 C378 1.370 . S
C376 C372 1.432 . S
C376 N374 1.359 . S
C376 C379 1.414 . S
C377 H359 0.930 . S
C377 N374 1.327 . S
C377 C375 1.392 . S
C378 H373 0.930 . S
C378 C375 1.370 . S
C378 C379 1.385 . S
C379 C376 1.414 . S
C379 C378 1.385 . S
C379 C401 1.444 . S
O380 Tb336 2.546 . S
O380 C400 1.251 . S
O381 Tb336 2.610 . S
O381 Tb347 2.362 . S
O381 C392 1.283 . S
O382 Tb347 2.421 . S
O382 C399 1.262 . S
O383 Tb336 2.320 . S
O383 C399 1.260 . S
O384 Tb336 2.552 . S
O384 C392 1.243 . S
O385 Tb336 2.413 . S
O385 C400 1.256 . S
O386 Tb347 2.546 . S
O386 C411 1.251 . S
O387 Tb336 2.362 . S
O387 Tb347 2.610 . S
O387 C403 1.283 . S
O388 Tb336 2.421 . S
O388 C410 1.262 . S
O389 Tb347 2.320 . S
O389 C410 1.260 . S
O390 Tb347 2.552 . S
O390 C403 1.243 . S
O391 Tb347 2.413 . S
O391 C411 1.256 . S
C392 O381 1.283 . S
C392 O384 1.243 . S
C393 C395 1.382 . S
C393 C397 1.393 . S
C393 C400 1.500 . S
C394 C395 1.400 . S
C394 C396 1.384 . S
C395 C393 1.382 . S
C395 C394 1.400 . S
C395 H412 0.930 . S
C396 C394 1.384 . S
C396 C398 1.392 . S
C396 H413 0.931 . S
C397 C393 1.393 . S
C397 C398 1.401 . S
C397 H414 0.930 . S
C398 C396 1.392 . S
C398 C397 1.401 . S
C398 H415 0.930 . S
C399 O382 1.262 . S
C399 O383 1.260 . S
C400 Tb336 2.833 . S
C400 O380 1.251 . S
C400 O385 1.256 . S
C400 C393 1.500 . S
C401 H366 0.929 . S
C401 C379 1.444 . S
C401 C402 1.317 . S
C402 H364 0.930 . S
C402 C370 1.432 . S
C402 C401 1.317 . S
C403 O387 1.283 . S
C403 O390 1.243 . S
C404 C405 1.382 . S
C404 C408 1.393 . S
C404 C411 1.500 . S
C405 C404 1.382 . S
C405 C406 1.400 . S
C405 H416 0.930 . S
C406 C405 1.400 . S
C406 C407 1.384 . S
C407 C406 1.384 . S
C407 C409 1.392 . S
C407 H417 0.931 . S
C408 C404 1.393 . S
C408 C409 1.401 . S
C408 H418 0.930 . S
C409 C407 1.392 . S
C409 C408 1.401 . S
C409 H419 0.930 . S
C410 O388 1.262 . S
C410 O389 1.260 . S
C411 Tb347 2.833 . S
C411 O386 1.251 . S
C411 O391 1.256 . S
C411 C404 1.500 . S
H412 C395 0.930 . S
H413 C396 0.931 . S
H414 C397 0.930 . S
H415 C398 0.930 . S
H416 C405 0.930 . S
H417 C407 0.931 . S
H418 C408 0.930 . S
H419 C409 0.930 . S
Tb420 N451 2.660 . S
Tb420 N458 2.600 . S
Tb420 O464 2.546 . S
Tb420 O465 2.610 . S
Tb420 O467 2.320 . S
Tb420 O468 2.552 . S
Tb420 O469 2.413 . S
Tb420 O471 2.362 . S
Tb420 O472 2.421 . S
Tb420 C484 2.833 . S
C421 C424 1.432 . S
C421 C425 1.414 . S
C421 N428 1.359 . S
C422 C424 1.417 . S
C422 C426 1.432 . S
C422 C434 1.410 . S
C423 C425 1.444 . S
C423 C426 1.317 . S
C423 H446 0.929 . S
C424 C421 1.432 . S
C424 C422 1.417 . S
C424 N432 1.360 . S
C425 C421 1.414 . S
C425 C423 1.444 . S
C425 C430 1.385 . S
C426 C422 1.432 . S
C426 C423 1.317 . S
C426 H438 0.930 . S
C427 C429 1.392 . S
C427 C430 1.370 . S
C427 H439 0.931 . S
N428 C421 1.359 . S
N428 C429 1.327 . S
N428 Tb431 2.600 . S
C429 C427 1.392 . S
C429 N428 1.327 . S
C429 H436 0.930 . S
C430 C425 1.385 . S
C430 C427 1.370 . S
C430 H449 0.930 . S
Tb431 N428 2.600 . S
Tb431 N432 2.660 . S
Tb431 O465 2.362 . S
Tb431 O466 2.421 . S
Tb431 O470 2.546 . S
Tb431 O471 2.610 . S
Tb431 O473 2.320 . S
Tb431 O474 2.552 . S
Tb431 O475 2.413 . S
Tb431 C495 2.833 . S
N432 C424 1.360 . S
N432 Tb431 2.660 . S
N432 C433 1.305 . S
C433 N432 1.305 . S
C433 C435 1.407 . S
C433 H440 0.930 . S
C434 C422 1.410 . S
C434 C435 1.345 . S
C434 H442 0.930 . S
C435 C433 1.407 . S
C435 C434 1.345 . S
C435 H437 0.930 . S
H436 C429 0.930 . S
H437 C435 0.930 . S
H438 C426 0.930 . S
H439 C427 0.931 . S
H440 C433 0.930 . S
H441 C455 0.930 . S
H442 C434 0.930 . S
H443 C461 0.930 . S
H444 C452 0.930 . S
H445 C459 0.931 . S
H446 C423 0.929 . S
H447 C453 0.930 . S
H448 C486 0.930 . S
H449 C430 0.930 . S
H450 C485 0.929 . S
N451 Tb420 2.660 . S
N451 C452 1.305 . S
N451 C456 1.360 . S
C452 H444 0.930 . S
C452 N451 1.305 . S
C452 C455 1.407 . S
C453 H447 0.930 . S
C453 C454 1.410 . S
C453 C455 1.345 . S
C454 C453 1.410 . S
C454 C456 1.417 . S
C454 C486 1.432 . S
C455 H441 0.930 . S
C455 C452 1.407 . S
C455 C453 1.345 . S
C456 N451 1.360 . S
C456 C454 1.417 . S
C456 C460 1.432 . S
H457 C462 0.930 . S
N458 Tb420 2.600 . S
N458 C460 1.359 . S
N458 C461 1.327 . S
C459 H445 0.931 . S
C459 C461 1.392 . S
C459 C462 1.370 . S
C460 C456 1.432 . S
C460 N458 1.359 . S
C460 C463 1.414 . S
C461 H443 0.930 . S
C461 N458 1.327 . S
C461 C459 1.392 . S
C462 H457 0.930 . S
C462 C459 1.370 . S
C462 C463 1.385 . S
C463 C460 1.414 . S
C463 C462 1.385 . S
C463 C485 1.444 . S
O464 Tb420 2.546 . S
O464 C484 1.251 . S
O465 Tb420 2.610 . S
O465 Tb431 2.362 . S
O465 C476 1.283 . S
O466 Tb431 2.421 . S
O466 C483 1.262 . S
O467 Tb420 2.320 . S
O467 C483 1.260 . S
O468 Tb420 2.552 . S
O468 C476 1.243 . S
O469 Tb420 2.413 . S
O469 C484 1.256 . S
O470 Tb431 2.546 . S
O470 C495 1.251 . S
O471 Tb420 2.362 . S
O471 Tb431 2.610 . S
O471 C487 1.283 . S
O472 Tb420 2.421 . S
O472 C494 1.262 . S
O473 Tb431 2.320 . S
O473 C494 1.260 . S
O474 Tb431 2.552 . S
O474 C487 1.243 . S
O475 Tb431 2.413 . S
O475 C495 1.256 . S
C476 O465 1.283 . S
C476 O468 1.243 . S
C477 C479 1.382 . S
C477 C481 1.393 . S
C477 C484 1.500 . S
C478 C479 1.400 . S
C478 C480 1.384 . S
C479 C477 1.382 . S
C479 C478 1.400 . S
C479 H496 0.930 . S
C480 C478 1.384 . S
C480 C482 1.392 . S
C480 H497 0.931 . S
C481 C477 1.393 . S
C481 C482 1.401 . S
C481 H498 0.930 . S
C482 C480 1.392 . S
C482 C481 1.401 . S
C482 H499 0.930 . S
C483 O466 1.262 . S
C483 O467 1.260 . S
C484 Tb420 2.833 . S
C484 O464 1.251 . S
C484 O469 1.256 . S
C484 C477 1.500 . S
C485 H450 0.929 . S
C485 C463 1.444 . S
C485 C486 1.317 . S
C486 H448 0.930 . S
C486 C454 1.432 . S
C486 C485 1.317 . S
C487 O471 1.283 . S
C487 O474 1.243 . S
C488 C489 1.382 . S
C488 C492 1.393 . S
C488 C495 1.500 . S
C489 C488 1.382 . S
C489 C490 1.400 . S
C489 H500 0.930 . S
C490 C489 1.400 . S
C490 C491 1.384 . S
C491 C490 1.384 . S
C491 C493 1.392 . S
C491 H501 0.931 . S
C492 C488 1.393 . S
C492 C493 1.401 . S
C492 H502 0.930 . S
C493 C491 1.392 . S
C493 C492 1.401 . S
C493 H503 0.930 . S
C494 O472 1.262 . S
C494 O473 1.260 . S
C495 Tb431 2.833 . S
C495 O470 1.251 . S
C495 O475 1.256 . S
C495 C488 1.500 . S
H496 C479 0.930 . S
H497 C480 0.931 . S
H498 C481 0.930 . S
H499 C482 0.930 . S
H500 C489 0.930 . S
H501 C491 0.931 . S
H502 C492 0.930 . S
H503 C493 0.930 . S
Tb504 N535 2.660 . S
Tb504 N542 2.600 . S
Tb504 O548 2.546 . S
Tb504 O549 2.610 . S
Tb504 O551 2.320 . S
Tb504 O552 2.552 . S
Tb504 O553 2.413 . S
Tb504 O555 2.362 . S
Tb504 O556 2.421 . S
Tb504 C568 2.833 . S
C505 C508 1.432 . S
C505 C509 1.414 . S
C505 N512 1.359 . S
C506 C508 1.417 . S
C506 C510 1.432 . S
C506 C518 1.410 . S
C507 C509 1.444 . S
C507 C510 1.317 . S
C507 H530 0.929 . S
C508 C505 1.432 . S
C508 C506 1.417 . S
C508 N516 1.360 . S
C509 C505 1.414 . S
C509 C507 1.444 . S
C509 C514 1.385 . S
C510 C506 1.432 . S
C510 C507 1.317 . S
C510 H522 0.930 . S
C511 C513 1.392 . S
C511 C514 1.370 . S
C511 H523 0.931 . S
N512 C505 1.359 . S
N512 C513 1.327 . S
N512 Tb515 2.600 . S
C513 C511 1.392 . S
C513 N512 1.327 . S
C513 H520 0.930 . S
C514 C509 1.385 . S
C514 C511 1.370 . S
C514 H533 0.930 . S
Tb515 N512 2.600 . S
Tb515 N516 2.660 . S
Tb515 O549 2.362 . S
Tb515 O550 2.421 . S
Tb515 O554 2.546 . S
Tb515 O555 2.610 . S
Tb515 O557 2.320 . S
Tb515 O558 2.552 . S
Tb515 O559 2.413 . S
Tb515 C579 2.833 . S
N516 C508 1.360 . S
N516 Tb515 2.660 . S
N516 C517 1.305 . S
C517 N516 1.305 . S
C517 C519 1.407 . S
C517 H524 0.930 . S
C518 C506 1.410 . S
C518 C519 1.345 . S
C518 H526 0.930 . S
C519 C517 1.407 . S
C519 C518 1.345 . S
C519 H521 0.930 . S
H520 C513 0.930 . S
H521 C519 0.930 . S
H522 C510 0.930 . S
H523 C511 0.931 . S
H524 C517 0.930 . S
H525 C539 0.930 . S
H526 C518 0.930 . S
H527 C545 0.930 . S
H528 C536 0.930 . S
H529 C543 0.931 . S
H530 C507 0.929 . S
H531 C537 0.930 . S
H532 C570 0.930 . S
H533 C514 0.930 . S
H534 C569 0.929 . S
N535 Tb504 2.660 . S
N535 C536 1.305 . S
N535 C540 1.360 . S
C536 H528 0.930 . S
C536 N535 1.305 . S
C536 C539 1.407 . S
C537 H531 0.930 . S
C537 C538 1.410 . S
C537 C539 1.345 . S
C538 C537 1.410 . S
C538 C540 1.417 . S
C538 C570 1.432 . S
C539 H525 0.930 . S
C539 C536 1.407 . S
C539 C537 1.345 . S
C540 N535 1.360 . S
C540 C538 1.417 . S
C540 C544 1.432 . S
H541 C546 0.930 . S
N542 Tb504 2.600 . S
N542 C544 1.359 . S
N542 C545 1.327 . S
C543 H529 0.931 . S
C543 C545 1.392 . S
C543 C546 1.370 . S
C544 C540 1.432 . S
C544 N542 1.359 . S
C544 C547 1.414 . S
C545 H527 0.930 . S
C545 N542 1.327 . S
C545 C543 1.392 . S
C546 H541 0.930 . S
C546 C543 1.370 . S
C546 C547 1.385 . S
C547 C544 1.414 . S
C547 C546 1.385 . S
C547 C569 1.444 . S
O548 Tb504 2.546 . S
O548 C568 1.251 . S
O549 Tb504 2.610 . S
O549 Tb515 2.362 . S
O549 C560 1.283 . S
O550 Tb515 2.421 . S
O550 C567 1.262 . S
O551 Tb504 2.320 . S
O551 C567 1.260 . S
O552 Tb504 2.552 . S
O552 C560 1.243 . S
O553 Tb504 2.413 . S
O553 C568 1.256 . S
O554 Tb515 2.546 . S
O554 C579 1.251 . S
O555 Tb504 2.362 . S
O555 Tb515 2.610 . S
O555 C571 1.283 . S
O556 Tb504 2.421 . S
O556 C578 1.262 . S
O557 Tb515 2.320 . S
O557 C578 1.260 . S
O558 Tb515 2.552 . S
O558 C571 1.243 . S
O559 Tb515 2.413 . S
O559 C579 1.256 . S
C560 O549 1.283 . S
C560 O552 1.243 . S
C561 C563 1.382 . S
C561 C565 1.393 . S
C561 C568 1.500 . S
C562 C563 1.400 . S
C562 C564 1.384 . S
C563 C561 1.382 . S
C563 C562 1.400 . S
C563 H580 0.930 . S
C564 C562 1.384 . S
C564 C566 1.392 . S
C564 H581 0.931 . S
C565 C561 1.393 . S
C565 C566 1.401 . S
C565 H582 0.930 . S
C566 C564 1.392 . S
C566 C565 1.401 . S
C566 H583 0.930 . S
C567 O550 1.262 . S
C567 O551 1.260 . S
C568 Tb504 2.833 . S
C568 O548 1.251 . S
C568 O553 1.256 . S
C568 C561 1.500 . S
C569 H534 0.929 . S
C569 C547 1.444 . S
C569 C570 1.317 . S
C570 H532 0.930 . S
C570 C538 1.432 . S
C570 C569 1.317 . S
C571 O555 1.283 . S
C571 O558 1.243 . S
C572 C573 1.382 . S
C572 C576 1.393 . S
C572 C579 1.500 . S
C573 C572 1.382 . S
C573 C574 1.400 . S
C573 H584 0.930 . S
C574 C573 1.400 . S
C574 C575 1.384 . S
C575 C574 1.384 . S
C575 C577 1.392 . S
C575 H585 0.931 . S
C576 C572 1.393 . S
C576 C577 1.401 . S
C576 H586 0.930 . S
C577 C575 1.392 . S
C577 C576 1.401 . S
C577 H587 0.930 . S
C578 O556 1.262 . S
C578 O557 1.260 . S
C579 Tb515 2.833 . S
C579 O554 1.251 . S
C579 O559 1.256 . S
C579 C572 1.500 . S
H580 C563 0.930 . S
H581 C564 0.931 . S
H582 C565 0.930 . S
H583 C566 0.930 . S
H584 C573 0.930 . S
H585 C575 0.931 . S
H586 C576 0.930 . S
H587 C577 0.930 . S
Tb588 N619 2.660 . S
Tb588 N626 2.600 . S
Tb588 O632 2.546 . S
Tb588 O633 2.610 . S
Tb588 O635 2.320 . S
Tb588 O636 2.552 . S
Tb588 O637 2.413 . S
Tb588 O639 2.362 . S
Tb588 O640 2.421 . S
Tb588 C652 2.833 . S
C589 C592 1.432 . S
C589 C593 1.414 . S
C589 N596 1.359 . S
C590 C592 1.417 . S
C590 C594 1.432 . S
C590 C602 1.410 . S
C591 C593 1.444 . S
C591 C594 1.317 . S
C591 H614 0.929 . S
C592 C589 1.432 . S
C592 C590 1.417 . S
C592 N600 1.360 . S
C593 C589 1.414 . S
C593 C591 1.444 . S
C593 C598 1.385 . S
C594 C590 1.432 . S
C594 C591 1.317 . S
C594 H606 0.930 . S
C595 C597 1.392 . S
C595 C598 1.370 . S
C595 H607 0.931 . S
N596 C589 1.359 . S
N596 C597 1.327 . S
N596 Tb599 2.600 . S
C597 C595 1.392 . S
C597 N596 1.327 . S
C597 H604 0.930 . S
C598 C593 1.385 . S
C598 C595 1.370 . S
C598 H617 0.930 . S
Tb599 N596 2.600 . S
Tb599 N600 2.660 . S
Tb599 O633 2.362 . S
Tb599 O634 2.421 . S
Tb599 O638 2.546 . S
Tb599 O639 2.610 . S
Tb599 O641 2.320 . S
Tb599 O642 2.552 . S
Tb599 O643 2.413 . S
Tb599 C663 2.833 . S
N600 C592 1.360 . S
N600 Tb599 2.660 . S
N600 C601 1.305 . S
C601 N600 1.305 . S
C601 C603 1.407 . S
C601 H608 0.930 . S
C602 C590 1.410 . S
C602 C603 1.345 . S
C602 H610 0.930 . S
C603 C601 1.407 . S
C603 C602 1.345 . S
C603 H605 0.930 . S
H604 C597 0.930 . S
H605 C603 0.930 . S
H606 C594 0.930 . S
H607 C595 0.931 . S
H608 C601 0.930 . S
H609 C623 0.930 . S
H610 C602 0.930 . S
H611 C629 0.930 . S
H612 C620 0.930 . S
H613 C627 0.931 . S
H614 C591 0.929 . S
H615 C621 0.930 . S
H616 C654 0.930 . S
H617 C598 0.930 . S
H618 C653 0.929 . S
N619 Tb588 2.660 . S
N619 C620 1.305 . S
N619 C624 1.360 . S
C620 H612 0.930 . S
C620 N619 1.305 . S
C620 C623 1.407 . S
C621 H615 0.930 . S
C621 C622 1.410 . S
C621 C623 1.345 . S
C622 C621 1.410 . S
C622 C624 1.417 . S
C622 C654 1.432 . S
C623 H609 0.930 . S
C623 C620 1.407 . S
C623 C621 1.345 . S
C624 N619 1.360 . S
C624 C622 1.417 . S
C624 C628 1.432 . S
H625 C630 0.930 . S
N626 Tb588 2.600 . S
N626 C628 1.359 . S
N626 C629 1.327 . S
C627 H613 0.931 . S
C627 C629 1.392 . S
C627 C630 1.370 . S
C628 C624 1.432 . S
C628 N626 1.359 . S
C628 C631 1.414 . S
C629 H611 0.930 . S
C629 N626 1.327 . S
C629 C627 1.392 . S
C630 H625 0.930 . S
C630 C627 1.370 . S
C630 C631 1.385 . S
C631 C628 1.414 . S
C631 C630 1.385 . S
C631 C653 1.444 . S
O632 Tb588 2.546 . S
O632 C652 1.251 . S
O633 Tb588 2.610 . S
O633 Tb599 2.362 . S
O633 C644 1.283 . S
O634 Tb599 2.421 . S
O634 C651 1.262 . S
O635 Tb588 2.320 . S
O635 C651 1.260 . S
O636 Tb588 2.552 . S
O636 C644 1.243 . S
O637 Tb588 2.413 . S
O637 C652 1.256 . S
O638 Tb599 2.546 . S
O638 C663 1.251 . S
O639 Tb588 2.362 . S
O639 Tb599 2.610 . S
O639 C655 1.283 . S
O640 Tb588 2.421 . S
O640 C662 1.262 . S
O641 Tb599 2.320 . S
O641 C662 1.260 . S
O642 Tb599 2.552 . S
O642 C655 1.243 . S
O643 Tb599 2.413 . S
O643 C663 1.256 . S
C644 O633 1.283 . S
C644 O636 1.243 . S
C645 C647 1.382 . S
C645 C649 1.393 . S
C645 C652 1.500 . S
C646 C647 1.400 . S
C646 C648 1.384 . S
C647 C645 1.382 . S
C647 C646 1.400 . S
C647 H664 0.930 . S
C648 C646 1.384 . S
C648 C650 1.392 . S
C648 H665 0.931 . S
C649 C645 1.393 . S
C649 C650 1.401 . S
C649 H666 0.930 . S
C650 C648 1.392 . S
C650 C649 1.401 . S
C650 H667 0.930 . S
C651 O634 1.262 . S
C651 O635 1.260 . S
C652 Tb588 2.833 . S
C652 O632 1.251 . S
C652 O637 1.256 . S
C652 C645 1.500 . S
C653 H618 0.929 . S
C653 C631 1.444 . S
C653 C654 1.317 . S
C654 H616 0.930 . S
C654 C622 1.432 . S
C654 C653 1.317 . S
C655 O639 1.283 . S
C655 O642 1.243 . S
C656 C657 1.382 . S
C656 C660 1.393 . S
C656 C663 1.500 . S
C657 C656 1.382 . S
C657 C658 1.400 . S
C657 H668 0.930 . S
C658 C657 1.400 . S
C658 C659 1.384 . S
C659 C658 1.384 . S
C659 C661 1.392 . S
C659 H669 0.931 . S
C660 C656 1.393 . S
C660 C661 1.401 . S
C660 H670 0.930 . S
C661 C659 1.392 . S
C661 C660 1.401 . S
C661 H671 0.930 . S
C662 O640 1.262 . S
C662 O641 1.260 . S
C663 Tb599 2.833 . S
C663 O638 1.251 . S
C663 O643 1.256 . S
C663 C656 1.500 . S
H664 C647 0.930 . S
H665 C648 0.931 . S
H666 C649 0.930 . S
H667 C650 0.930 . S
H668 C657 0.930 . S
H669 C659 0.931 . S
H670 C660 0.930 . S
H671 C661 0.930 . S
C672 O684 1.241 . S
C672 O685 1.280 . S
C673 O686 1.277 . S
C673 O687 1.245 . S
C674 O698 1.247 . S
C674 O700 1.289 . S
Mg675 O676 1.927 1_455 S
Mg675 O685 1.977 1_455 S
Mg675 O687 1.985 1_455 S
Mg675 O688 2.069 . S
O676 Mg675 1.927 1_655 S
O676 Mg677 1.986 1_545 S
O676 Mg678 1.919 1_655 S
Mg677 O676 1.986 1_565 S
Mg677 O684 2.042 1_565 S
Mg677 O686 2.041 1_565 S
Mg677 O692 2.038 . S
Mg677 O700 2.238 . S
Mg678 O676 1.919 1_455 S
Mg678 O679 1.915 1_545 S
Mg678 O689 2.113 . S
Mg678 O691 2.073 1_445 S
Mg678 O700 2.100 1_445 S
Mg678 O701 2.084 . S
O679 Mg678 1.915 1_565 S
O679 Mg680 1.925 . S
O679 Mg681 1.986 1_565 S
Mg680 O679 1.925 . S
Mg680 O694 1.990 . S
Mg680 O697 1.990 . S
Mg680 O698 2.055 1_455 S
Mg681 O679 1.986 1_545 S
Mg681 O689 2.238 . S
Mg681 O693 2.042 1_545 S
Mg681 O695 2.041 1_545 S
Mg681 O702 2.038 . S
C682 O688 1.247 . S
C682 O689 1.289 . S
C683 O701 1.245 . S
C683 O702 1.274 . S
O684 C672 1.241 . S
O684 Mg677 2.042 1_545 S
O685 C672 1.280 . S
O685 Mg675 1.977 1_655 S
O686 C673 1.277 . S
O686 Mg677 2.041 1_545 S
O687 C673 1.245 . S
O687 Mg675 1.985 1_655 S
O688 Mg675 2.069 . S
O688 C682 1.247 . S
O689 Mg678 2.113 . S
O689 Mg681 2.238 . S
O689 C682 1.289 . S
C690 O691 1.245 . S
C690 O692 1.274 . S
O691 Mg678 2.073 1_665 S
O691 C690 1.245 . S
O692 Mg677 2.038 . S
O692 C690 1.274 . S
O693 Mg681 2.042 1_565 S
O693 C696 1.241 . S
O694 Mg680 1.990 . S
O694 C696 1.280 . S
O695 Mg681 2.041 1_565 S
O695 C699 1.277 . S
C696 O693 1.241 . S
C696 O694 1.280 . S
O697 Mg680 1.990 . S
O697 C699 1.245 . S
O698 C674 1.247 . S
O698 Mg680 2.055 1_655 S
C699 O695 1.277 . S
C699 O697 1.245 . S
O700 C674 1.289 . S
O700 Mg677 2.238 . S
O700 Mg678 2.100 1_665 S
O701 Mg678 2.084 . S
O701 C683 1.245 . S
O702 Mg681 2.038 . S
O702 C683 1.274 . S
C703 O715 1.241 . S
C703 O716 1.280 . S
C704 O717 1.277 . S
C704 O718 1.245 . S
C705 O729 1.247 . S
C705 O731 1.289 . S
Mg706 O707 1.926 . S
Mg706 O716 1.984 . S
Mg706 O718 1.988 1_554 S
Mg706 O719 2.061 . S
O707 Mg706 1.926 . S
O707 Mg708 1.986 1_544 S
O707 Mg709 1.932 . S
Mg708 O707 1.986 1_566 S
Mg708 O715 2.042 1_566 S
Mg708 O717 2.041 1_565 S
Mg708 O723 2.038 1_556 S
Mg708 O731 2.238 . S
Mg709 O707 1.932 . S
Mg709 O710 1.902 1_544 S
Mg709 O720 2.117 . S
Mg709 O722 2.090 1_545 S
Mg709 O731 2.096 1_544 S
Mg709 O732 2.067 1_554 S
O710 Mg709 1.902 1_566 S
O710 Mg711 1.926 . S
O710 Mg712 1.986 1_566 S
Mg711 O710 1.926 . S
Mg711 O725 1.984 . S
Mg711 O728 1.988 1_556 S
Mg711 O729 2.061 . S
Mg712 O710 1.986 1_544 S
Mg712 O720 2.238 . S
Mg712 O724 2.042 1_544 S
Mg712 O726 2.041 1_545 S
Mg712 O733 2.038 1_554 S
C713 O719 1.247 . S
C713 O720 1.289 . S
C714 O732 1.245 . S
C714 O733 1.274 . S
O715 C703 1.241 . S
O715 Mg708 2.042 1_544 S
O716 C703 1.280 . S
O716 Mg706 1.984 . S
O717 C704 1.277 . S
O717 Mg708 2.041 1_545 S
O718 C704 1.245 . S
O718 Mg706 1.988 1_556 S
O719 Mg706 2.061 . S
O719 C713 1.247 . S
O720 Mg709 2.117 . S
O720 Mg712 2.238 . S
O720 C713 1.289 . S
C721 O722 1.245 . S
C721 O723 1.274 . S
O722 Mg709 2.090 1_565 S
O722 C721 1.245 . S
O723 Mg708 2.038 1_554 S
O723 C721 1.274 . S
O724 Mg712 2.042 1_566 S
O724 C727 1.241 . S
O725 Mg711 1.984 . S
O725 C727 1.280 . S
O726 Mg712 2.041 1_565 S
O726 C730 1.277 . S
C727 O724 1.241 . S
C727 O725 1.280 . S
O728 Mg711 1.988 1_554 S
O728 C730 1.245 . S
O729 C705 1.247 . S
O729 Mg711 2.061 . S
C730 O726 1.277 . S
C730 O728 1.245 . S
O731 C705 1.289 . S
O731 Mg708 2.238 . S
O731 Mg709 2.096 1_566 S
O732 Mg709 2.067 1_556 S
O732 C714 1.245 . S
O733 Mg712 2.038 1_556 S
O733 C714 1.274 . S
C734 O746 1.241 . S
C734 O747 1.280 . S
C735 O748 1.277 . S
C735 O749 1.245 . S
C736 O760 1.247 . S
C736 O762 1.289 . S
Mg737 O738 1.927 1_455 S
Mg737 O747 1.978 1_455 S
Mg737 O749 1.985 1_454 S
Mg737 O750 2.068 . S
O738 Mg737 1.927 1_655 S
O738 Mg739 1.986 1_554 S
O738 Mg740 1.918 1_655 S
Mg739 O738 1.986 1_556 S
Mg739 O746 2.042 1_556 S
Mg739 O748 2.041 . S
Mg739 O754 2.038 1_556 S
Mg739 O762 2.238 . S
Mg740 O738 1.918 1_455 S
Mg740 O741 1.916 1_554 S
Mg740 O751 2.120 . S
Mg740 O753 2.092 1_455 S
Mg740 O762 2.093 1_454 S
Mg740 O763 2.065 1_554 S
O741 Mg740 1.916 1_556 S
O741 Mg742 1.926 . S
O741 Mg743 1.986 1_556 S
Mg742 O741 1.926 . S
Mg742 O756 1.989 . S
Mg742 O759 1.990 1_556 S
Mg742 O760 2.056 1_455 S
Mg743 O741 1.986 1_554 S
Mg743 O751 2.238 . S
Mg743 O755 2.042 1_554 S
Mg743 O757 2.041 . S
Mg743 O764 2.038 1_554 S
C744 O750 1.247 . S
C744 O751 1.289 . S
C745 O763 1.245 . S
C745 O764 1.274 . S
O746 C734 1.241 . S
O746 Mg739 2.042 1_554 S
O747 C734 1.280 . S
O747 Mg737 1.978 1_655 S
O748 C735 1.277 . S
O748 Mg739 2.041 . S
O749 C735 1.245 . S
O749 Mg737 1.985 1_656 S
O750 Mg737 2.068 . S
O750 C744 1.247 . S
O751 Mg740 2.120 . S
O751 Mg743 2.238 . S
O751 C744 1.289 . S
C752 O753 1.245 . S
C752 O754 1.274 . S
O753 Mg740 2.092 1_655 S
O753 C752 1.245 . S
O754 Mg739 2.038 1_554 S
O754 C752 1.274 . S
O755 Mg743 2.042 1_556 S
O755 C758 1.241 . S
O756 Mg742 1.989 . S
O756 C758 1.280 . S
O757 Mg743 2.041 . S
O757 C761 1.277 . S
C758 O755 1.241 . S
C758 O756 1.280 . S
O759 Mg742 1.990 1_554 S
O759 C761 1.245 . S
O760 C736 1.247 . S
O760 Mg742 2.056 1_655 S
C761 O757 1.277 . S
C761 O759 1.245 . S
O762 C736 1.289 . S
O762 Mg739 2.238 . S
O762 Mg740 2.093 1_656 S
O763 Mg740 2.065 1_556 S
O763 C745 1.245 . S
O764 Mg743 2.038 1_556 S
O764 C745 1.274 . S
C765 O777 1.241 . S
C765 O778 1.280 . S
C766 O779 1.277 . S
C766 O780 1.245 . S
C767 O791 1.247 . S
C767 O793 1.289 . S
Mg768 O769 1.926 . S
Mg768 O778 1.984 . S
Mg768 O780 1.988 1_554 S
Mg768 O781 2.061 . S
O769 Mg768 1.926 . S
O769 Mg770 1.986 1_554 S
O769 Mg771 1.924 . S
Mg770 O769 1.986 1_556 S
Mg770 O777 2.042 1_556 S
Mg770 O779 2.041 . S
Mg770 O785 2.038 1_556 S
Mg770 O793 2.238 . S
Mg771 O769 1.924 . S
Mg771 O772 1.910 1_554 S
Mg771 O782 2.116 . S
Mg771 O784 2.093 . S
Mg771 O793 2.097 1_554 S
Mg771 O794 2.064 1_554 S
O772 Mg771 1.910 1_556 S
O772 Mg773 1.926 . S
O772 Mg774 1.986 1_556 S
Mg773 O772 1.926 . S
Mg773 O787 1.984 . S
Mg773 O790 1.988 1_556 S
Mg773 O791 2.061 . S
Mg774 O772 1.986 1_554 S
Mg774 O782 2.238 . S
Mg774 O786 2.042 1_554 S
Mg774 O788 2.041 . S
Mg774 O795 2.038 1_554 S
C775 O781 1.247 . S
C775 O782 1.289 . S
C776 O794 1.245 . S
C776 O795 1.274 . S
O777 C765 1.241 . S
O777 Mg770 2.042 1_554 S
O778 C765 1.280 . S
O778 Mg768 1.984 . S
O779 C766 1.277 . S
O779 Mg770 2.041 . S
O780 C766 1.245 . S
O780 Mg768 1.988 1_556 S
O781 Mg768 2.061 . S
O781 C775 1.247 . S
O782 Mg771 2.116 . S
O782 Mg774 2.238 . S
O782 C775 1.289 . S
C783 O784 1.245 . S
C783 O785 1.274 . S
O784 Mg771 2.093 . S
O784 C783 1.245 . S
O785 Mg770 2.038 1_554 S
O785 C783 1.274 . S
O786 Mg774 2.042 1_556 S
O786 C789 1.241 . S
O787 Mg773 1.984 . S
O787 C789 1.280 . S
O788 Mg774 2.041 . S
O788 C792 1.277 . S
C789 O786 1.241 . S
C789 O787 1.280 . S
O790 Mg773 1.988 1_554 S
O790 C792 1.245 . S
O791 C767 1.247 . S
O791 Mg773 2.061 . S
C792 O788 1.277 . S
C792 O790 1.245 . S
O793 C767 1.289 . S
O793 Mg770 2.238 . S
O793 Mg771 2.097 1_556 S
O794 Mg771 2.064 1_556 S
O794 C776 1.245 . S
O795 Mg774 2.038 1_556 S
O795 C776 1.274 . S
C796 O808 1.241 . S
C796 O809 1.280 . S
C797 O810 1.277 . S
C797 O811 1.245 . S
C798 O822 1.247 . S
C798 O824 1.289 . S
Mg799 O800 1.927 1_455 S
Mg799 O809 1.978 1_455 S
Mg799 O811 1.985 1_455 S
Mg799 O812 2.068 . S
O800 Mg799 1.927 1_655 S
O800 Mg801 1.986 . S
O800 Mg802 1.911 1_655 S
Mg801 O800 1.986 . S
Mg801 O808 2.042 . S
Mg801 O810 2.041 . S
Mg801 O816 2.038 . S
Mg801 O824 2.238 . S
Mg802 O800 1.911 1_455 S
Mg802 O803 1.923 . S
Mg802 O813 2.111 . S
Mg802 O815 2.077 1_455 S
Mg802 O824 2.102 1_455 S
Mg802 O825 2.080 . S
O803 Mg802 1.923 . S
O803 Mg804 1.926 . S
O803 Mg805 1.986 . S
Mg804 O803 1.926 . S
Mg804 O818 1.989 . S
Mg804 O821 1.990 . S
Mg804 O822 2.056 1_455 S
Mg805 O803 1.986 . S
Mg805 O813 2.238 . S
Mg805 O817 2.042 . S
Mg805 O819 2.041 . S
Mg805 O826 2.038 . S
C806 O812 1.247 . S
C806 O813 1.289 . S
C807 O825 1.245 . S
C807 O826 1.274 . S
O808 C796 1.241 . S
O808 Mg801 2.042 . S
O809 C796 1.280 . S
O809 Mg799 1.978 1_655 S
O810 C797 1.277 . S
O810 Mg801 2.041 . S
O811 C797 1.245 . S
O811 Mg799 1.985 1_655 S
O812 Mg799 2.068 . S
O812 C806 1.247 . S
O813 Mg802 2.111 . S
O813 Mg805 2.238 . S
O813 C806 1.289 . S
C814 O815 1.245 . S
C814 O816 1.274 . S
O815 Mg802 2.077 1_655 S
O815 C814 1.245 . S
O816 Mg801 2.038 . S
O816 C814 1.274 . S
O817 Mg805 2.042 . S
O817 C820 1.241 . S
O818 Mg804 1.989 . S
O818 C820 1.280 . S
O819 Mg805 2.041 . S
O819 C823 1.277 . S
C820 O817 1.241 . S
C820 O818 1.280 . S
O821 Mg804 1.990 . S
O821 C823 1.245 . S
O822 C798 1.247 . S
O822 Mg804 2.056 1_655 S
C823 O819 1.277 . S
C823 O821 1.245 . S
O824 C798 1.289 . S
O824 Mg801 2.238 . S
O824 Mg802 2.102 1_655 S
O825 Mg802 2.080 . S
O825 C807 1.245 . S
O826 Mg805 2.038 . S
O826 C807 1.274 . S
C827 O839 1.241 . S
C827 O840 1.280 . S
C828 O841 1.277 . S
C828 O842 1.245 . S
C829 O853 1.247 . S
C829 O855 1.289 . S
Mg830 O831 1.926 . S
Mg830 O840 1.984 . S
Mg830 O842 1.988 . S
Mg830 O843 2.061 . S
O831 Mg830 1.926 . S
O831 Mg832 1.986 1_545 S
O831 Mg833 1.924 . S
Mg832 O831 1.986 1_565 S
Mg832 O839 2.042 1_565 S
Mg832 O841 2.041 1_565 S
Mg832 O847 2.038 . S
Mg832 O855 2.238 . S
Mg833 O831 1.924 . S
Mg833 O834 1.909 1_545 S
Mg833 O844 2.108 . S
Mg833 O846 2.075 1_545 S
Mg833 O855 2.105 1_545 S
Mg833 O856 2.082 . S
O834 Mg833 1.909 1_565 S
O834 Mg835 1.926 . S
O834 Mg836 1.986 1_565 S
Mg835 O834 1.926 . S
Mg835 O849 1.984 . S
Mg835 O852 1.988 . S
Mg835 O853 2.061 . S
Mg836 O834 1.986 1_545 S
Mg836 O844 2.238 . S
Mg836 O848 2.042 1_545 S
Mg836 O850 2.041 1_545 S
Mg836 O857 2.038 . S
C837 O843 1.247 . S
C837 O844 1.289 . S
C838 O856 1.245 . S
C838 O857 1.274 . S
O839 C827 1.241 . S
O839 Mg832 2.042 1_545 S
O840 C827 1.280 . S
O840 Mg830 1.984 . S
O841 C828 1.277 . S
O841 Mg832 2.041 1_545 S
O842 C828 1.245 . S
O842 Mg830 1.988 . S
O843 Mg830 2.061 . S
O843 C837 1.247 . S
O844 Mg833 2.108 . S
O844 Mg836 2.238 . S
O844 C837 1.289 . S
C845 O846 1.245 . S
C845 O847 1.274 . S
O846 Mg833 2.075 1_565 S
O846 C845 1.245 . S
O847 Mg832 2.038 . S
O847 C845 1.274 . S
O848 Mg836 2.042 1_565 S
O848 C851 1.241 . S
O849 Mg835 1.984 . S
O849 C851 1.280 . S
O850 Mg836 2.041 1_565 S
O850 C854 1.277 . S
C851 O848 1.241 . S
C851 O849 1.280 . S
O852 Mg835 1.988 . S
O852 C854 1.245 . S
O853 C829 1.247 . S
O853 Mg835 2.061 . S
C854 O850 1.277 . S
C854 O852 1.245 . S
O855 C829 1.289 . S
O855 Mg832 2.238 . S
O855 Mg833 2.105 1_565 S
O856 Mg833 2.082 . S
O856 C838 1.245 . S
O857 Mg836 2.038 . S
O857 C838 1.274 . S
H858 C864 0.930 . S
H859 C867 0.930 . S
H860 C868 0.930 . S
H861 C869 0.930 . S
H862 C872 0.930 . S
H863 C873 0.930 . S
C864 H858 0.930 . S
C864 C865 1.355 . S
C864 C866 1.415 . S
C865 C864 1.355 . S
C865 C867 1.419 . S
C866 C864 1.415 . S
C866 C871 1.425 . S
C866 C873 1.409 . S
C867 H859 0.930 . S
C867 C865 1.419 . S
C867 C868 1.362 . S
C868 H860 0.930 . S
C868 C867 1.362 . S
C868 C871 1.409 . S
C869 H861 0.930 . S
C869 C870 1.355 . S
C869 C871 1.415 . S
C870 C869 1.355 . S
C870 C872 1.419 . S
C871 C866 1.425 . S
C871 C868 1.409 . S
C871 C869 1.415 . S
C872 H862 0.930 . S
C872 C870 1.419 . S
C872 C873 1.362 . S
C873 H863 0.930 . S
C873 C866 1.409 . S
C873 C872 1.362 . S
H874 C880 0.930 . S
H875 C883 0.930 . S
H876 C884 0.930 . S
H877 C885 0.930 . S
H878 C888 0.930 . S
H879 C889 0.930 . S
C880 H874 0.930 . S
C880 C881 1.355 . S
C880 C882 1.415 . S
C881 C880 1.355 . S
C881 C883 1.419 . S
C882 C880 1.415 . S
C882 C887 1.425 . S
C882 C889 1.409 . S
C883 H875 0.930 . S
C883 C881 1.419 . S
C883 C884 1.362 . S
C884 H876 0.930 . S
C884 C883 1.362 . S
C884 C887 1.409 . S
C885 H877 0.930 . S
C885 C886 1.355 . S
C885 C887 1.415 . S
C886 C885 1.355 . S
C886 C888 1.419 . S
C887 C882 1.425 . S
C887 C884 1.409 . S
C887 C885 1.415 . S
C888 H878 0.930 . S
C888 C886 1.419 . S
C888 C889 1.362 . S
C889 H879 0.930 . S
C889 C882 1.409 . S
C889 C888 1.362 . S
H890 C896 0.930 . S
H891 C899 0.930 . S
H892 C900 0.930 . S
H893 C901 0.930 . S
H894 C904 0.930 . S
H895 C905 0.930 . S
C896 H890 0.930 . S
C896 C897 1.355 . S
C896 C898 1.415 . S
C897 C896 1.355 . S
C897 C899 1.419 . S
C898 C896 1.415 . S
C898 C903 1.425 . S
C898 C905 1.409 . S
C899 H891 0.930 . S
C899 C897 1.419 . S
C899 C900 1.362 . S
C900 H892 0.930 . S
C900 C899 1.362 . S
C900 C903 1.409 . S
C901 H893 0.930 . S
C901 C902 1.355 . S
C901 C903 1.415 . S
C902 C901 1.355 . S
C902 C904 1.419 . S
C903 C898 1.425 . S
C903 C900 1.409 . S
C903 C901 1.415 . S
C904 H894 0.930 . S
C904 C902 1.419 . S
C904 C905 1.362 . S
C905 H895 0.930 . S
C905 C898 1.409 . S
C905 C904 1.362 . S
H906 C912 0.930 . S
H907 C915 0.930 . S
H908 C916 0.930 . S
H909 C917 0.930 . S
H910 C920 0.930 . S
H911 C921 0.930 . S
C912 H906 0.930 . S
C912 C913 1.355 . S
C912 C914 1.415 . S
C913 C912 1.355 . S
C913 C915 1.419 . S
C914 C912 1.415 . S
C914 C919 1.425 . S
C914 C921 1.409 . S
C915 H907 0.930 . S
C915 C913 1.419 . S
C915 C916 1.362 . S
C916 H908 0.930 . S
C916 C915 1.362 . S
C916 C919 1.409 . S
C917 H909 0.930 . S
C917 C918 1.355 . S
C917 C919 1.415 . S
C918 C917 1.355 . S
C918 C920 1.419 . S
C919 C914 1.425 . S
C919 C916 1.409 . S
C919 C917 1.415 . S
C920 H910 0.930 . S
C920 C918 1.419 . S
C920 C921 1.362 . S
C921 H911 0.930 . S
C921 C914 1.409 . S
C921 C920 1.362 . S
H922 C928 0.930 . S
H923 C931 0.930 . S
H924 C932 0.930 . S
H925 C933 0.930 . S
H926 C936 0.930 . S
H927 C937 0.930 . S
C928 H922 0.930 . S
C928 C929 1.355 . S
C928 C930 1.415 . S
C929 C928 1.355 . S
C929 C931 1.419 . S
C930 C928 1.415 . S
C930 C935 1.425 . S
C930 C937 1.409 . S
C931 H923 0.930 . S
C931 C929 1.419 . S
C931 C932 1.362 . S
C932 H924 0.930 . S
C932 C931 1.362 . S
C932 C935 1.409 . S
C933 H925 0.930 . S
C933 C934 1.355 . S
C933 C935 1.415 . S
C934 C933 1.355 . S
C934 C936 1.419 . S
C935 C930 1.425 . S
C935 C932 1.409 . S
C935 C933 1.415 . S
C936 H926 0.930 . S
C936 C934 1.419 . S
C936 C937 1.362 . S
C937 H927 0.930 . S
C937 C930 1.409 . S
C937 C936 1.362 . S
H938 C944 0.930 . S
H939 C947 0.930 . S
H940 C948 0.930 . S
H941 C949 0.930 . S
H942 C952 0.930 . S
H943 C953 0.930 . S
C944 H938 0.930 . S
C944 C945 1.355 . S
C944 C946 1.415 . S
C945 C944 1.355 . S
C945 C947 1.419 . S
C946 C944 1.415 . S
C946 C951 1.425 . S
C946 C953 1.409 . S
C947 H939 0.930 . S
C947 C945 1.419 . S
C947 C948 1.362 . S
C948 H940 0.930 . S
C948 C947 1.362 . S
C948 C951 1.409 . S
C949 H941 0.930 . S
C949 C950 1.355 . S
C949 C951 1.415 . S
C950 C949 1.355 . S
C950 C952 1.419 . S
C951 C946 1.425 . S
C951 C948 1.409 . S
C951 C949 1.415 . S
C952 H942 0.930 . S
C952 C950 1.419 . S
C952 C953 1.362 . S
C953 H943 0.930 . S
C953 C946 1.409 . S
C953 C952 1.362 . S
H954 C960 0.930 . S
H955 C963 0.930 . S
H956 C964 0.930 . S
H957 C965 0.930 . S
H958 C968 0.930 . S
H959 C969 0.930 . S
C960 H954 0.930 . S
C960 C961 1.355 . S
C960 C962 1.415 . S
C961 C960 1.355 . S
C961 C963 1.419 . S
C962 C960 1.415 . S
C962 C967 1.425 . S
C962 C969 1.409 . S
C963 H955 0.930 . S
C963 C961 1.419 . S
C963 C964 1.362 . S
C964 H956 0.930 . S
C964 C963 1.362 . S
C964 C967 1.409 . S
C965 H957 0.930 . S
C965 C966 1.355 . S
C965 C967 1.415 . S
C966 C965 1.355 . S
C966 C968 1.419 . S
C967 C962 1.425 . S
C967 C964 1.409 . S
C967 C965 1.415 . S
C968 H958 0.930 . S
C968 C966 1.419 . S
C968 C969 1.362 . S
C969 H959 0.930 . S
C969 C962 1.409 . S
C969 C968 1.362 . S
H970 C976 0.930 . S
H971 C979 0.930 . S
H972 C980 0.930 . S
H973 C981 0.930 . S
H974 C984 0.930 . S
H975 C985 0.930 . S
C976 H970 0.930 . S
C976 C977 1.355 . S
C976 C978 1.415 . S
C977 C976 1.355 . S
C977 C979 1.419 . S
C978 C976 1.415 . S
C978 C983 1.425 . S
C978 C985 1.409 . S
C979 H971 0.930 . S
C979 C977 1.419 . S
C979 C980 1.362 . S
C980 H972 0.930 . S
C980 C979 1.362 . S
C980 C983 1.409 . S
C981 H973 0.930 . S
C981 C982 1.355 . S
C981 C983 1.415 . S
C982 C981 1.355 . S
C982 C984 1.419 . S
C983 C978 1.425 . S
C983 C980 1.409 . S
C983 C981 1.415 . S
C984 H974 0.930 . S
C984 C982 1.419 . S
C984 C985 1.362 . S
C985 H975 0.930 . S
C985 C978 1.409 . S
C985 C984 1.362 . S
H986 C992 0.930 . S
H987 C995 0.930 . S
H988 C996 0.930 . S
H989 C997 0.930 . S
H990 C1000 0.930 . S
H991 C1001 0.930 . S
C992 H986 0.930 . S
C992 C993 1.355 . S
C992 C994 1.415 . S
C993 C992 1.355 . S
C993 C995 1.419 . S
C994 C992 1.415 . S
C994 C999 1.425 . S
C994 C1001 1.409 . S
C995 H987 0.930 . S
C995 C993 1.419 . S
C995 C996 1.362 . S
C996 H988 0.930 . S
C996 C995 1.362 . S
C996 C999 1.409 . S
C997 H989 0.930 . S
C997 C998 1.355 . S
C997 C999 1.415 . S
C998 C997 1.355 . S
C998 C1000 1.419 . S
C999 C994 1.425 . S
C999 C996 1.409 . S
C999 C997 1.415 . S
C1000 H990 0.930 . S
C1000 C998 1.419 . S
C1000 C1001 1.362 . S
C1001 H991 0.930 . S
C1001 C994 1.409 . S
C1001 C1000 1.362 . S
H1002 C1008 0.930 . S
H1003 C1011 0.930 . S
H1004 C1012 0.930 . S
H1005 C1013 0.930 . S
H1006 C1016 0.930 . S
H1007 C1017 0.930 . S
C1008 H1002 0.930 . S
C1008 C1009 1.355 . S
C1008 C1010 1.415 . S
C1009 C1008 1.355 . S
C1009 C1011 1.419 . S
C1010 C1008 1.415 . S
C1010 C1015 1.425 . S
C1010 C1017 1.409 . S
C1011 H1003 0.930 . S
C1011 C1009 1.419 . S
C1011 C1012 1.362 . S
C1012 H1004 0.930 . S
C1012 C1011 1.362 . S
C1012 C1015 1.409 . S
C1013 H1005 0.930 . S
C1013 C1014 1.355 . S
C1013 C1015 1.415 . S
C1014 C1013 1.355 . S
C1014 C1016 1.419 . S
C1015 C1010 1.425 . S
C1015 C1012 1.409 . S
C1015 C1013 1.415 . S
C1016 H1006 0.930 . S
C1016 C1014 1.419 . S
C1016 C1017 1.362 . S
C1017 H1007 0.930 . S
C1017 C1010 1.409 . S
C1017 C1016 1.362 . S
H1018 C1024 0.930 . S
H1019 C1027 0.930 . S
H1020 C1028 0.930 . S
H1021 C1029 0.930 . S
H1022 C1032 0.930 . S
H1023 C1033 0.930 . S
C1024 H1018 0.930 . S
C1024 C1025 1.355 . S
C1024 C1026 1.415 . S
C1025 C1024 1.355 . S
C1025 C1027 1.419 . S
C1026 C1024 1.415 . S
C1026 C1031 1.425 . S
C1026 C1033 1.409 . S
C1027 H1019 0.930 . S
C1027 C1025 1.419 . S
C1027 C1028 1.362 . S
C1028 H1020 0.930 . S
C1028 C1027 1.362 . S
C1028 C1031 1.409 . S
C1029 H1021 0.930 . S
C1029 C1030 1.355 . S
C1029 C1031 1.415 . S
C1030 C1029 1.355 . S
C1030 C1032 1.419 . S
C1031 C1026 1.425 . S
C1031 C1028 1.409 . S
C1031 C1029 1.415 . S
C1032 H1022 0.930 . S
C1032 C1030 1.419 . S
C1032 C1033 1.362 . S
C1033 H1023 0.930 . S
C1033 C1026 1.409 . S
C1033 C1032 1.362 . S
H1034 C1040 0.930 . S
H1035 C1043 0.930 . S
H1036 C1044 0.930 . S
H1037 C1045 0.930 . S
H1038 C1048 0.930 . S
H1039 C1049 0.930 . S
C1040 H1034 0.930 . S
C1040 C1041 1.355 . S
C1040 C1042 1.415 . S
C1041 C1040 1.355 . S
C1041 C1043 1.419 . S
C1042 C1040 1.415 . S
C1042 C1047 1.425 . S
C1042 C1049 1.409 . S
C1043 H1035 0.930 . S
C1043 C1041 1.419 . S
C1043 C1044 1.362 . S
C1044 H1036 0.930 . S
C1044 C1043 1.362 . S
C1044 C1047 1.409 . S
C1045 H1037 0.930 . S
C1045 C1046 1.355 . S
C1045 C1047 1.415 . S
C1046 C1045 1.355 . S
C1046 C1048 1.419 . S
C1047 C1042 1.425 . S
C1047 C1044 1.409 . S
C1047 C1045 1.415 . S
C1048 H1038 0.930 . S
C1048 C1046 1.419 . S
C1048 C1049 1.362 . S
C1049 H1039 0.930 . S
C1049 C1042 1.409 . S
C1049 C1048 1.362 . S
H1050 C1056 0.930 . S
H1051 C1059 0.930 . S
H1052 C1060 0.930 . S
H1053 C1061 0.930 . S
H1054 C1064 0.930 . S
H1055 C1065 0.930 . S
C1056 H1050 0.930 . S
C1056 C1057 1.355 . S
C1056 C1058 1.415 . S
C1057 C1056 1.355 . S
C1057 C1059 1.419 . S
C1058 C1056 1.415 . S
C1058 C1063 1.425 . S
C1058 C1065 1.409 . S
C1059 H1051 0.930 . S
C1059 C1057 1.419 . S
C1059 C1060 1.362 . S
C1060 H1052 0.930 . S
C1060 C1059 1.362 . S
C1060 C1063 1.409 . S
C1061 H1053 0.930 . S
C1061 C1062 1.355 . S
C1061 C1063 1.415 . S
C1062 C1061 1.355 . S
C1062 C1064 1.419 . S
C1063 C1058 1.425 . S
C1063 C1060 1.409 . S
C1063 C1061 1.415 . S
C1064 H1054 0.930 . S
C1064 C1062 1.419 . S
C1064 C1065 1.362 . S
C1065 H1055 0.930 . S
C1065 C1058 1.409 . S
C1065 C1064 1.362 . S
H1066 C1072 0.930 . S
H1067 C1075 0.930 . S
H1068 C1076 0.930 . S
H1069 C1077 0.930 . S
H1070 C1080 0.930 . S
H1071 C1081 0.930 . S
C1072 H1066 0.930 . S
C1072 C1073 1.355 . S
C1072 C1074 1.415 . S
C1073 C1072 1.355 . S
C1073 C1075 1.419 . S
C1074 C1072 1.415 . S
C1074 C1079 1.425 . S
C1074 C1081 1.409 . S
C1075 H1067 0.930 . S
C1075 C1073 1.419 . S
C1075 C1076 1.362 . S
C1076 H1068 0.930 . S
C1076 C1075 1.362 . S
C1076 C1079 1.409 . S
C1077 H1069 0.930 . S
C1077 C1078 1.355 . S
C1077 C1079 1.415 . S
C1078 C1077 1.355 . S
C1078 C1080 1.419 . S
C1079 C1074 1.425 . S
C1079 C1076 1.409 . S
C1079 C1077 1.415 . S
C1080 H1070 0.930 . S
C1080 C1078 1.419 . S
C1080 C1081 1.362 . S
C1081 H1071 0.930 . S
C1081 C1074 1.409 . S
C1081 C1080 1.362 . S
H1082 C1088 0.930 . S
H1083 C1091 0.930 . S
H1084 C1092 0.930 . S
H1085 C1093 0.930 . S
H1086 C1096 0.930 . S
H1087 C1097 0.930 . S
C1088 H1082 0.930 . S
C1088 C1089 1.355 . S
C1088 C1090 1.415 . S
C1089 C1088 1.355 . S
C1089 C1091 1.419 . S
C1090 C1088 1.415 . S
C1090 C1095 1.425 . S
C1090 C1097 1.409 . S
C1091 H1083 0.930 . S
C1091 C1089 1.419 . S
C1091 C1092 1.362 . S
C1092 H1084 0.930 . S
C1092 C1091 1.362 . S
C1092 C1095 1.409 . S
C1093 H1085 0.930 . S
C1093 C1094 1.355 . S
C1093 C1095 1.415 . S
C1094 C1093 1.355 . S
C1094 C1096 1.419 . S
C1095 C1090 1.425 . S
C1095 C1092 1.409 . S
C1095 C1093 1.415 . S
C1096 H1086 0.930 . S
C1096 C1094 1.419 . S
C1096 C1097 1.362 . S
C1097 H1087 0.930 . S
C1097 C1090 1.409 . S
C1097 C1096 1.362 . S
H1098 C1104 0.930 . S
H1099 C1107 0.930 . S
H1100 C1108 0.930 . S
H1101 C1109 0.930 . S
H1102 C1112 0.930 . S
H1103 C1113 0.930 . S
C1104 H1098 0.930 . S
C1104 C1105 1.355 . S
C1104 C1106 1.415 . S
C1105 C1104 1.355 . S
C1105 C1107 1.419 . S
C1106 C1104 1.415 . S
C1106 C1111 1.425 . S
C1106 C1113 1.409 . S
C1107 H1099 0.930 . S
C1107 C1105 1.419 . S
C1107 C1108 1.362 . S
C1108 H1100 0.930 . S
C1108 C1107 1.362 . S
C1108 C1111 1.409 . S
C1109 H1101 0.930 . S
C1109 C1110 1.355 . S
C1109 C1111 1.415 . S
C1110 C1109 1.355 . S
C1110 C1112 1.419 . S
C1111 C1106 1.425 . S
C1111 C1108 1.409 . S
C1111 C1109 1.415 . S
C1112 H1102 0.930 . S
C1112 C1110 1.419 . S
C1112 C1113 1.362 . S
C1113 H1103 0.930 . S
C1113 C1106 1.409 . S
C1113 C1112 1.362 . S
H1114 C1120 0.930 . S
H1115 C1123 0.930 . S
H1116 C1124 0.930 . S
H1117 C1125 0.930 . S
H1118 C1128 0.930 . S
H1119 C1129 0.930 . S
C1120 H1114 0.930 . S
C1120 C1121 1.355 . S
C1120 C1122 1.415 . S
C1121 C1120 1.355 . S
C1121 C1123 1.419 . S
C1122 C1120 1.415 . S
C1122 C1127 1.425 . S
C1122 C1129 1.409 . S
C1123 H1115 0.930 . S
C1123 C1121 1.419 . S
C1123 C1124 1.362 . S
C1124 H1116 0.930 . S
C1124 C1123 1.362 . S
C1124 C1127 1.409 . S
C1125 H1117 0.930 . S
C1125 C1126 1.355 . S
C1125 C1127 1.415 . S
C1126 C1125 1.355 . S
C1126 C1128 1.419 . S
C1127 C1122 1.425 . S
C1127 C1124 1.409 . S
C1127 C1125 1.415 . S
C1128 H1118 0.930 . S
C1128 C1126 1.419 . S
C1128 C1129 1.362 . S
C1129 H1119 0.930 . S
C1129 C1122 1.409 . S
C1129 C1128 1.362 . S
H1130 C1136 0.930 . S
H1131 C1139 0.930 . S
H1132 C1140 0.930 . S
H1133 C1141 0.930 . S
H1134 C1144 0.930 . S
H1135 C1145 0.930 . S
C1136 H1130 0.930 . S
C1136 C1137 1.355 . S
C1136 C1138 1.415 . S
C1137 C1136 1.355 . S
C1137 C1139 1.419 . S
C1138 C1136 1.415 . S
C1138 C1143 1.425 . S
C1138 C1145 1.409 . S
C1139 H1131 0.930 . S
C1139 C1137 1.419 . S
C1139 C1140 1.362 . S
C1140 H1132 0.930 . S
C1140 C1139 1.362 . S
C1140 C1143 1.409 . S
C1141 H1133 0.930 . S
C1141 C1142 1.355 . S
C1141 C1143 1.415 . S
C1142 C1141 1.355 . S
C1142 C1144 1.419 . S
C1143 C1138 1.425 . S
C1143 C1140 1.409 . S
C1143 C1141 1.415 . S
C1144 H1134 0.930 . S
C1144 C1142 1.419 . S
C1144 C1145 1.362 . S
C1145 H1135 0.930 . S
C1145 C1138 1.409 . S
C1145 C1144 1.362 . S
H1146 C1152 0.930 . S
H1147 C1155 0.930 . S
H1148 C1156 0.930 . S
H1149 C1157 0.930 . S
H1150 C1160 0.930 . S
H1151 C1161 0.930 . S
C1152 H1146 0.930 . S
C1152 C1153 1.355 . S
C1152 C1154 1.415 . S
C1153 C1152 1.355 . S
C1153 C1155 1.419 . S
C1154 C1152 1.415 . S
C1154 C1159 1.425 . S
C1154 C1161 1.409 . S
C1155 H1147 0.930 . S
C1155 C1153 1.419 . S
C1155 C1156 1.362 . S
C1156 H1148 0.930 . S
C1156 C1155 1.362 . S
C1156 C1159 1.409 . S
C1157 H1149 0.930 . S
C1157 C1158 1.355 . S
C1157 C1159 1.415 . S
C1158 C1157 1.355 . S
C1158 C1160 1.419 . S
C1159 C1154 1.425 . S
C1159 C1156 1.409 . S
C1159 C1157 1.415 . S
C1160 H1150 0.930 . S
C1160 C1158 1.419 . S
C1160 C1161 1.362 . S
C1161 H1151 0.930 . S
C1161 C1154 1.409 . S
C1161 C1160 1.362 . S
H1162 C1168 0.930 . S
H1163 C1171 0.930 . S
H1164 C1172 0.930 . S
H1165 C1173 0.930 . S
H1166 C1176 0.930 . S
H1167 C1177 0.930 . S
C1168 H1162 0.930 . S
C1168 C1169 1.355 . S
C1168 C1170 1.415 . S
C1169 C1168 1.355 . S
C1169 C1171 1.419 . S
C1170 C1168 1.415 . S
C1170 C1175 1.425 . S
C1170 C1177 1.409 . S
C1171 H1163 0.930 . S
C1171 C1169 1.419 . S
C1171 C1172 1.362 . S
C1172 H1164 0.930 . S
C1172 C1171 1.362 . S
C1172 C1175 1.409 . S
C1173 H1165 0.930 . S
C1173 C1174 1.355 . S
C1173 C1175 1.415 . S
C1174 C1173 1.355 . S
C1174 C1176 1.419 . S
C1175 C1170 1.425 . S
C1175 C1172 1.409 . S
C1175 C1173 1.415 . S
C1176 H1166 0.930 . S
C1176 C1174 1.419 . S
C1176 C1177 1.362 . S
C1177 H1167 0.930 . S
C1177 C1170 1.409 . S
C1177 C1176 1.362 . S
H1178 C1184 0.930 . S
H1179 C1187 0.930 . S
H1180 C1188 0.930 . S
H1181 C1189 0.930 . S
H1182 C1192 0.930 . S
H1183 C1193 0.930 . S
C1184 H1178 0.930 . S
C1184 C1185 1.355 . S
C1184 C1186 1.415 . S
C1185 C1184 1.355 . S
C1185 C1187 1.419 . S
C1186 C1184 1.415 . S
C1186 C1191 1.425 . S
C1186 C1193 1.409 . S
C1187 H1179 0.930 . S
C1187 C1185 1.419 . S
C1187 C1188 1.362 . S
C1188 H1180 0.930 . S
C1188 C1187 1.362 . S
C1188 C1191 1.409 . S
C1189 H1181 0.930 . S
C1189 C1190 1.355 . S
C1189 C1191 1.415 . S
C1190 C1189 1.355 . S
C1190 C1192 1.419 . S
C1191 C1186 1.425 . S
C1191 C1188 1.409 . S
C1191 C1189 1.415 . S
C1192 H1182 0.930 . S
C1192 C1190 1.419 . S
C1192 C1193 1.362 . S
C1193 H1183 0.930 . S
C1193 C1186 1.409 . S
C1193 C1192 1.362 . S
H1194 C1200 0.930 . S
H1195 C1203 0.930 . S
H1196 C1204 0.930 . S
H1197 C1205 0.930 . S
H1198 C1208 0.930 . S
H1199 C1209 0.930 . S
C1200 H1194 0.930 . S
C1200 C1201 1.355 . S
C1200 C1202 1.415 . S
C1201 C1200 1.355 . S
C1201 C1203 1.419 . S
C1202 C1200 1.415 . S
C1202 C1207 1.425 . S
C1202 C1209 1.409 . S
C1203 H1195 0.930 . S
C1203 C1201 1.419 . S
C1203 C1204 1.362 . S
C1204 H1196 0.930 . S
C1204 C1203 1.362 . S
C1204 C1207 1.409 . S
C1205 H1197 0.930 . S
C1205 C1206 1.355 . S
C1205 C1207 1.415 . S
C1206 C1205 1.355 . S
C1206 C1208 1.419 . S
C1207 C1202 1.425 . S
C1207 C1204 1.409 . S
C1207 C1205 1.415 . S
C1208 H1198 0.930 . S
C1208 C1206 1.419 . S
C1208 C1209 1.362 . S
C1209 H1199 0.930 . S
C1209 C1202 1.409 . S
C1209 C1208 1.362 . S
H1210 C1216 0.930 . S
H1211 C1219 0.930 . S
H1212 C1220 0.930 . S
H1213 C1221 0.930 . S
H1214 C1224 0.930 . S
H1215 C1225 0.930 . S
C1216 H1210 0.930 . S
C1216 C1217 1.355 . S
C1216 C1218 1.415 . S
C1217 C1216 1.355 . S
C1217 C1219 1.419 . S
C1218 C1216 1.415 . S
C1218 C1223 1.425 . S
C1218 C1225 1.409 . S
C1219 H1211 0.930 . S
C1219 C1217 1.419 . S
C1219 C1220 1.362 . S
C1220 H1212 0.930 . S
C1220 C1219 1.362 . S
C1220 C1223 1.409 . S
C1221 H1213 0.930 . S
C1221 C1222 1.355 . S
C1221 C1223 1.415 . S
C1222 C1221 1.355 . S
C1222 C1224 1.419 . S
C1223 C1218 1.425 . S
C1223 C1220 1.409 . S
C1223 C1221 1.415 . S
C1224 H1214 0.930 . S
C1224 C1222 1.419 . S
C1224 C1225 1.362 . S
C1225 H1215 0.930 . S
C1225 C1218 1.409 . S
C1225 C1224 1.362 . S
H1226 C1232 0.930 . S
H1227 C1235 0.930 . S
H1228 C1236 0.930 . S
H1229 C1237 0.930 . S
H1230 C1240 0.930 . S
H1231 C1241 0.930 . S
C1232 H1226 0.930 . S
C1232 C1233 1.355 . S
C1232 C1234 1.415 . S
C1233 C1232 1.355 . S
C1233 C1235 1.419 . S
C1234 C1232 1.415 . S
C1234 C1239 1.425 . S
C1234 C1241 1.409 . S
C1235 H1227 0.930 . S
C1235 C1233 1.419 . S
C1235 C1236 1.362 . S
C1236 H1228 0.930 . S
C1236 C1235 1.362 . S
C1236 C1239 1.409 . S
C1237 H1229 0.930 . S
C1237 C1238 1.355 . S
C1237 C1239 1.415 . S
C1238 C1237 1.355 . S
C1238 C1240 1.419 . S
C1239 C1234 1.425 . S
C1239 C1236 1.409 . S
C1239 C1237 1.415 . S
C1240 H1230 0.930 . S
C1240 C1238 1.419 . S
C1240 C1241 1.362 . S
C1241 H1231 0.930 . S
C1241 C1234 1.409 . S
C1241 C1240 1.362 . S
H1242 C1248 0.930 . S
H1243 C1251 0.930 . S
H1244 C1252 0.930 . S
H1245 C1253 0.930 . S
H1246 C1256 0.930 . S
H1247 C1257 0.930 . S
C1248 H1242 0.930 . S
C1248 C1249 1.355 . S
C1248 C1250 1.415 . S
C1249 C1248 1.355 . S
C1249 C1251 1.419 . S
C1250 C1248 1.415 . S
C1250 C1255 1.425 . S
C1250 C1257 1.409 . S
C1251 H1243 0.930 . S
C1251 C1249 1.419 . S
C1251 C1252 1.362 . S
C1252 H1244 0.930 . S
C1252 C1251 1.362 . S
C1252 C1255 1.409 . S
C1253 H1245 0.930 . S
C1253 C1254 1.355 . S
C1253 C1255 1.415 . S
C1254 C1253 1.355 . S
C1254 C1256 1.419 . S
C1255 C1250 1.425 . S
C1255 C1252 1.409 . S
C1255 C1253 1.415 . S
C1256 H1246 0.930 . S
C1256 C1254 1.419 . S
C1256 C1257 1.362 . S
C1257 H1247 0.930 . S
C1257 C1250 1.409 . S
C1257 C1256 1.362 . S
H1258 C1264 0.930 . S
H1259 C1267 0.930 . S
H1260 C1268 0.930 . S
H1261 C1269 0.930 . S
H1262 C1272 0.930 . S
H1263 C1273 0.930 . S
C1264 H1258 0.930 . S
C1264 C1265 1.355 . S
C1264 C1266 1.415 . S
C1265 C1264 1.355 . S
C1265 C1267 1.419 . S
C1266 C1264 1.415 . S
C1266 C1271 1.425 . S
C1266 C1273 1.409 . S
C1267 H1259 0.930 . S
C1267 C1265 1.419 . S
C1267 C1268 1.362 . S
C1268 H1260 0.930 . S
C1268 C1267 1.362 . S
C1268 C1271 1.409 . S
C1269 H1261 0.930 . S
C1269 C1270 1.355 . S
C1269 C1271 1.415 . S
C1270 C1269 1.355 . S
C1270 C1272 1.419 . S
C1271 C1266 1.425 . S
C1271 C1268 1.409 . S
C1271 C1269 1.415 . S
C1272 H1262 0.930 . S
C1272 C1270 1.419 . S
C1272 C1273 1.362 . S
C1273 H1263 0.930 . S
C1273 C1266 1.409 . S
C1273 C1272 1.362 . S
H1274 C1280 0.930 . S
H1275 C1283 0.930 . S
H1276 C1284 0.930 . S
H1277 C1285 0.930 . S
H1278 C1288 0.930 . S
H1279 C1289 0.930 . S
C1280 H1274 0.930 . S
C1280 C1281 1.355 . S
C1280 C1282 1.415 . S
C1281 C1280 1.355 . S
C1281 C1283 1.419 . S
C1282 C1280 1.415 . S
C1282 C1287 1.425 . S
C1282 C1289 1.409 . S
C1283 H1275 0.930 . S
C1283 C1281 1.419 . S
C1283 C1284 1.362 . S
C1284 H1276 0.930 . S
C1284 C1283 1.362 . S
C1284 C1287 1.409 . S
C1285 H1277 0.930 . S
C1285 C1286 1.355 . S
C1285 C1287 1.415 . S
C1286 C1285 1.355 . S
C1286 C1288 1.419 . S
C1287 C1282 1.425 . S
C1287 C1284 1.409 . S
C1287 C1285 1.415 . S
C1288 H1278 0.930 . S
C1288 C1286 1.419 . S
C1288 C1289 1.362 . S
C1289 H1279 0.930 . S
C1289 C1282 1.409 . S
C1289 C1288 1.362 . S
H1290 C1296 0.930 . S
H1291 C1299 0.930 . S
H1292 C1300 0.930 . S
H1293 C1301 0.930 . S
H1294 C1304 0.930 . S
H1295 C1305 0.930 . S
C1296 H1290 0.930 . S
C1296 C1297 1.355 . S
C1296 C1298 1.415 . S
C1297 C1296 1.355 . S
C1297 C1299 1.419 . S
C1298 C1296 1.415 . S
C1298 C1303 1.425 . S
C1298 C1305 1.409 . S
C1299 H1291 0.930 . S
C1299 C1297 1.419 . S
C1299 C1300 1.362 . S
C1300 H1292 0.930 . S
C1300 C1299 1.362 . S
C1300 C1303 1.409 . S
C1301 H1293 0.930 . S
C1301 C1302 1.355 . S
C1301 C1303 1.415 . S
C1302 C1301 1.355 . S
C1302 C1304 1.419 . S
C1303 C1298 1.425 . S
C1303 C1300 1.409 . S
C1303 C1301 1.415 . S
C1304 H1294 0.930 . S
C1304 C1302 1.419 . S
C1304 C1305 1.362 . S
C1305 H1295 0.930 . S
C1305 C1298 1.409 . S
C1305 C1304 1.362 . S
H1306 C1312 0.930 . S
H1307 C1315 0.930 . S
H1308 C1316 0.930 . S
H1309 C1317 0.930 . S
H1310 C1320 0.930 . S
H1311 C1321 0.930 . S
C1312 H1306 0.930 . S
C1312 C1313 1.355 . S
C1312 C1314 1.415 . S
C1313 C1312 1.355 . S
C1313 C1315 1.419 . S
C1314 C1312 1.415 . S
C1314 C1319 1.425 . S
C1314 C1321 1.409 . S
C1315 H1307 0.930 . S
C1315 C1313 1.419 . S
C1315 C1316 1.362 . S
C1316 H1308 0.930 . S
C1316 C1315 1.362 . S
C1316 C1319 1.409 . S
C1317 H1309 0.930 . S
C1317 C1318 1.355 . S
C1317 C1319 1.415 . S
C1318 C1317 1.355 . S
C1318 C1320 1.419 . S
C1319 C1314 1.425 . S
C1319 C1316 1.409 . S
C1319 C1317 1.415 . S
C1320 H1310 0.930 . S
C1320 C1318 1.419 . S
C1320 C1321 1.362 . S
C1321 H1311 0.930 . S
C1321 C1314 1.409 . S
C1321 C1320 1.362 . S
H1322 C1328 0.930 . S
H1323 C1331 0.930 . S
H1324 C1332 0.930 . S
H1325 C1333 0.930 . S
H1326 C1336 0.930 . S
H1327 C1337 0.930 . S
C1328 H1322 0.930 . S
C1328 C1329 1.355 . S
C1328 C1330 1.415 . S
C1329 C1328 1.355 . S
C1329 C1331 1.419 . S
C1330 C1328 1.415 . S
C1330 C1335 1.425 . S
C1330 C1337 1.409 . S
C1331 H1323 0.930 . S
C1331 C1329 1.419 . S
C1331 C1332 1.362 . S
C1332 H1324 0.930 . S
C1332 C1331 1.362 . S
C1332 C1335 1.409 . S
C1333 H1325 0.930 . S
C1333 C1334 1.355 . S
C1333 C1335 1.415 . S
C1334 C1333 1.355 . S
C1334 C1336 1.419 . S
C1335 C1330 1.425 . S
C1335 C1332 1.409 . S
C1335 C1333 1.415 . S
C1336 H1326 0.930 . S
C1336 C1334 1.419 . S
C1336 C1337 1.362 . S
C1337 H1327 0.930 . S
C1337 C1330 1.409 . S
C1337 C1336 1.362 . S
H1338 C1344 0.930 . S
H1339 C1347 0.930 . S
H1340 C1348 0.930 . S
H1341 C1349 0.930 . S
H1342 C1352 0.930 . S
H1343 C1353 0.930 . S
C1344 H1338 0.930 . S
C1344 C1345 1.355 . S
C1344 C1346 1.415 . S
C1345 C1344 1.355 . S
C1345 C1347 1.419 . S
C1346 C1344 1.415 . S
C1346 C1351 1.425 . S
C1346 C1353 1.409 . S
C1347 H1339 0.930 . S
C1347 C1345 1.419 . S
C1347 C1348 1.362 . S
C1348 H1340 0.930 . S
C1348 C1347 1.362 . S
C1348 C1351 1.409 . S
C1349 H1341 0.930 . S
C1349 C1350 1.355 . S
C1349 C1351 1.415 . S
C1350 C1349 1.355 . S
C1350 C1352 1.419 . S
C1351 C1346 1.425 . S
C1351 C1348 1.409 . S
C1351 C1349 1.415 . S
C1352 H1342 0.930 . S
C1352 C1350 1.419 . S
C1352 C1353 1.362 . S
C1353 H1343 0.930 . S
C1353 C1346 1.409 . S
C1353 C1352 1.362 . S
H1354 C1360 0.930 . S
H1355 C1363 0.930 . S
H1356 C1364 0.930 . S
H1357 C1365 0.930 . S
H1358 C1368 0.930 . S
H1359 C1369 0.930 . S
C1360 H1354 0.930 . S
C1360 C1361 1.355 . S
C1360 C1362 1.415 . S
C1361 C1360 1.355 . S
C1361 C1363 1.419 . S
C1362 C1360 1.415 . S
C1362 C1367 1.425 . S
C1362 C1369 1.409 . S
C1363 H1355 0.930 . S
C1363 C1361 1.419 . S
C1363 C1364 1.362 . S
C1364 H1356 0.930 . S
C1364 C1363 1.362 . S
C1364 C1367 1.409 . S
C1365 H1357 0.930 . S
C1365 C1366 1.355 . S
C1365 C1367 1.415 . S
C1366 C1365 1.355 . S
C1366 C1368 1.419 . S
C1367 C1362 1.425 . S
C1367 C1364 1.409 . S
C1367 C1365 1.415 . S
C1368 H1358 0.930 . S
C1368 C1366 1.419 . S
C1368 C1369 1.362 . S
C1369 H1359 0.930 . S
C1369 C1362 1.409 . S
C1369 C1368 1.362 . S
H1370 C1376 0.930 . S
H1371 C1379 0.930 . S
H1372 C1380 0.930 . S
H1373 C1381 0.930 . S
H1374 C1384 0.930 . S
H1375 C1385 0.930 . S
C1376 H1370 0.930 . S
C1376 C1377 1.355 . S
C1376 C1378 1.415 . S
C1377 C1376 1.355 . S
C1377 C1379 1.419 . S
C1378 C1376 1.415 . S
C1378 C1383 1.425 . S
C1378 C1385 1.409 . S
C1379 H1371 0.930 . S
C1379 C1377 1.419 . S
C1379 C1380 1.362 . S
C1380 H1372 0.930 . S
C1380 C1379 1.362 . S
C1380 C1383 1.409 . S
C1381 H1373 0.930 . S
C1381 C1382 1.355 . S
C1381 C1383 1.415 . S
C1382 C1381 1.355 . S
C1382 C1384 1.419 . S
C1383 C1378 1.425 . S
C1383 C1380 1.409 . S
C1383 C1381 1.415 . S
C1384 H1374 0.930 . S
C1384 C1382 1.419 . S
C1384 C1385 1.362 . S
C1385 H1375 0.930 . S
C1385 C1378 1.409 . S
C1385 C1384 1.362 . S
H1386 C1392 0.930 . S
H1387 C1395 0.930 . S
H1388 C1396 0.930 . S
H1389 C1397 0.930 . S
H1390 C1400 0.930 . S
H1391 C1401 0.930 . S
C1392 H1386 0.930 . S
C1392 C1393 1.355 . S
C1392 C1394 1.415 . S
C1393 C1392 1.355 . S
C1393 C1395 1.419 . S
C1394 C1392 1.415 . S
C1394 C1399 1.425 . S
C1394 C1401 1.409 . S
C1395 H1387 0.930 . S
C1395 C1393 1.419 . S
C1395 C1396 1.362 . S
C1396 H1388 0.930 . S
C1396 C1395 1.362 . S
C1396 C1399 1.409 . S
C1397 H1389 0.930 . S
C1397 C1398 1.355 . S
C1397 C1399 1.415 . S
C1398 C1397 1.355 . S
C1398 C1400 1.419 . S
C1399 C1394 1.425 . S
C1399 C1396 1.409 . S
C1399 C1397 1.415 . S
C1400 H1390 0.930 . S
C1400 C1398 1.419 . S
C1400 C1401 1.362 . S
C1401 H1391 0.930 . S
C1401 C1394 1.409 . S
C1401 C1400 1.362 . S
H1402 C1408 0.930 . S
H1403 C1411 0.930 . S
H1404 C1412 0.930 . S
H1405 C1413 0.930 . S
H1406 C1416 0.930 . S
H1407 C1417 0.930 . S
C1408 H1402 0.930 . S
C1408 C1409 1.355 . S
C1408 C1410 1.415 . S
C1409 C1408 1.355 . S
C1409 C1411 1.419 . S
C1410 C1408 1.415 . S
C1410 C1415 1.425 . S
C1410 C1417 1.409 . S
C1411 H1403 0.930 . S
C1411 C1409 1.419 . S
C1411 C1412 1.362 . S
C1412 H1404 0.930 . S
C1412 C1411 1.362 . S
C1412 C1415 1.409 . S
C1413 H1405 0.930 . S
C1413 C1414 1.355 . S
C1413 C1415 1.415 . S
C1414 C1413 1.355 . S
C1414 C1416 1.419 . S
C1415 C1410 1.425 . S
C1415 C1412 1.409 . S
C1415 C1413 1.415 . S
C1416 H1406 0.930 . S
C1416 C1414 1.419 . S
C1416 C1417 1.362 . S
C1417 H1407 0.930 . S
C1417 C1410 1.409 . S
C1417 C1416 1.362 . S
H1418 C1424 0.930 . S
H1419 C1427 0.930 . S
H1420 C1428 0.930 . S
H1421 C1429 0.930 . S
H1422 C1432 0.930 . S
H1423 C1433 0.930 . S
C1424 H1418 0.930 . S
C1424 C1425 1.355 . S
C1424 C1426 1.415 . S
C1425 C1424 1.355 . S
C1425 C1427 1.419 . S
C1426 C1424 1.415 . S
C1426 C1431 1.425 . S
C1426 C1433 1.409 . S
C1427 H1419 0.930 . S
C1427 C1425 1.419 . S
C1427 C1428 1.362 . S
C1428 H1420 0.930 . S
C1428 C1427 1.362 . S
C1428 C1431 1.409 . S
C1429 H1421 0.930 . S
C1429 C1430 1.355 . S
C1429 C1431 1.415 . S
C1430 C1429 1.355 . S
C1430 C1432 1.419 . S
C1431 C1426 1.425 . S
C1431 C1428 1.409 . S
C1431 C1429 1.415 . S
C1432 H1422 0.930 . S
C1432 C1430 1.419 . S
C1432 C1433 1.362 . S
C1433 H1423 0.930 . S
C1433 C1426 1.409 . S
C1433 C1432 1.362 . S
H1434 C1440 0.930 . S
H1435 C1443 0.930 . S
H1436 C1444 0.930 . S
H1437 C1445 0.930 . S
H1438 C1448 0.930 . S
H1439 C1449 0.930 . S
C1440 H1434 0.930 . S
C1440 C1441 1.355 . S
C1440 C1442 1.415 . S
C1441 C1440 1.355 . S
C1441 C1443 1.419 . S
C1442 C1440 1.415 . S
C1442 C1447 1.425 . S
C1442 C1449 1.409 . S
C1443 H1435 0.930 . S
C1443 C1441 1.419 . S
C1443 C1444 1.362 . S
C1444 H1436 0.930 . S
C1444 C1443 1.362 . S
C1444 C1447 1.409 . S
C1445 H1437 0.930 . S
C1445 C1446 1.355 . S
C1445 C1447 1.415 . S
C1446 C1445 1.355 . S
C1446 C1448 1.419 . S
C1447 C1442 1.425 . S
C1447 C1444 1.409 . S
C1447 C1445 1.415 . S
C1448 H1438 0.930 . S
C1448 C1446 1.419 . S
C1448 C1449 1.362 . S
C1449 H1439 0.930 . S
C1449 C1442 1.409 . S
C1449 C1448 1.362 . S
H1450 C1456 0.930 . S
H1451 C1459 0.930 . S
H1452 C1460 0.930 . S
H1453 C1461 0.930 . S
H1454 C1464 0.930 . S
H1455 C1465 0.930 . S
C1456 H1450 0.930 . S
C1456 C1457 1.355 . S
C1456 C1458 1.415 . S
C1457 C1456 1.355 . S
C1457 C1459 1.419 . S
C1458 C1456 1.415 . S
C1458 C1463 1.425 . S
C1458 C1465 1.409 . S
C1459 H1451 0.930 . S
C1459 C1457 1.419 . S
C1459 C1460 1.362 . S
C1460 H1452 0.930 . S
C1460 C1459 1.362 . S
C1460 C1463 1.409 . S
C1461 H1453 0.930 . S
C1461 C1462 1.355 . S
C1461 C1463 1.415 . S
C1462 C1461 1.355 . S
C1462 C1464 1.419 . S
C1463 C1458 1.425 . S
C1463 C1460 1.409 . S
C1463 C1461 1.415 . S
C1464 H1454 0.930 . S
C1464 C1462 1.419 . S
C1464 C1465 1.362 . S
C1465 H1455 0.930 . S
C1465 C1458 1.409 . S
C1465 C1464 1.362 . S
H1466 C1472 0.930 . S
H1467 C1475 0.930 . S
H1468 C1476 0.930 . S
H1469 C1477 0.930 . S
H1470 C1480 0.930 . S
H1471 C1481 0.930 . S
C1472 H1466 0.930 . S
C1472 C1473 1.355 . S
C1472 C1474 1.415 . S
C1473 C1472 1.355 . S
C1473 C1475 1.419 . S
C1474 C1472 1.415 . S
C1474 C1479 1.425 . S
C1474 C1481 1.409 . S
C1475 H1467 0.930 . S
C1475 C1473 1.419 . S
C1475 C1476 1.362 . S
C1476 H1468 0.930 . S
C1476 C1475 1.362 . S
C1476 C1479 1.409 . S
C1477 H1469 0.930 . S
C1477 C1478 1.355 . S
C1477 C1479 1.415 . S
C1478 C1477 1.355 . S
C1478 C1480 1.419 . S
C1479 C1474 1.425 . S
C1479 C1476 1.409 . S
C1479 C1477 1.415 . S
C1480 H1470 0.930 . S
C1480 C1478 1.419 . S
C1480 C1481 1.362 . S
C1481 H1471 0.930 . S
C1481 C1474 1.409 . S
C1481 C1480 1.362 . S
H1482 C1488 0.930 . S
H1483 C1491 0.930 . S
H1484 C1492 0.930 . S
H1485 C1493 0.930 . S
H1486 C1496 0.930 . S
H1487 C1497 0.930 . S
C1488 H1482 0.930 . S
C1488 C1489 1.355 . S
C1488 C1490 1.415 . S
C1489 C1488 1.355 . S
C1489 C1491 1.419 . S
C1490 C1488 1.415 . S
C1490 C1495 1.425 . S
C1490 C1497 1.409 . S
C1491 H1483 0.930 . S
C1491 C1489 1.419 . S
C1491 C1492 1.362 . S
C1492 H1484 0.930 . S
C1492 C1491 1.362 . S
C1492 C1495 1.409 . S
C1493 H1485 0.930 . S
C1493 C1494 1.355 . S
C1493 C1495 1.415 . S
C1494 C1493 1.355 . S
C1494 C1496 1.419 . S
C1495 C1490 1.425 . S
C1495 C1492 1.409 . S
C1495 C1493 1.415 . S
C1496 H1486 0.930 . S
C1496 C1494 1.419 . S
C1496 C1497 1.362 . S
C1497 H1487 0.930 . S
C1497 C1490 1.409 . S
C1497 C1496 1.362 . S
H1498 C1504 0.930 . S
H1499 C1507 0.930 . S
H1500 C1508 0.930 . S
H1501 C1509 0.930 . S
H1502 C1512 0.930 . S
H1503 C1513 0.930 . S
C1504 H1498 0.930 . S
C1504 C1505 1.355 . S
C1504 C1506 1.415 . S
C1505 C1504 1.355 . S
C1505 C1507 1.419 . S
C1506 C1504 1.415 . S
C1506 C1511 1.425 . S
C1506 C1513 1.409 . S
C1507 H1499 0.930 . S
C1507 C1505 1.419 . S
C1507 C1508 1.362 . S
C1508 H1500 0.930 . S
C1508 C1507 1.362 . S
C1508 C1511 1.409 . S
C1509 H1501 0.930 . S
C1509 C1510 1.355 . S
C1509 C1511 1.415 . S
C1510 C1509 1.355 . S
C1510 C1512 1.419 . S
C1511 C1506 1.425 . S
C1511 C1508 1.409 . S
C1511 C1509 1.415 . S
C1512 H1502 0.930 . S
C1512 C1510 1.419 . S
C1512 C1513 1.362 . S
C1513 H1503 0.930 . S
C1513 C1506 1.409 . S
C1513 C1512 1.362 . S
H1514 C1520 0.930 . S
H1515 C1523 0.930 . S
H1516 C1524 0.930 . S
H1517 C1525 0.930 . S
H1518 C1528 0.930 . S
H1519 C1529 0.930 . S
C1520 H1514 0.930 . S
C1520 C1521 1.355 . S
C1520 C1522 1.415 . S
C1521 C1520 1.355 . S
C1521 C1523 1.419 . S
C1522 C1520 1.415 . S
C1522 C1527 1.425 . S
C1522 C1529 1.409 . S
C1523 H1515 0.930 . S
C1523 C1521 1.419 . S
C1523 C1524 1.362 . S
C1524 H1516 0.930 . S
C1524 C1523 1.362 . S
C1524 C1527 1.409 . S
C1525 H1517 0.930 . S
C1525 C1526 1.355 . S
C1525 C1527 1.415 . S
C1526 C1525 1.355 . S
C1526 C1528 1.419 . S
C1527 C1522 1.425 . S
C1527 C1524 1.409 . S
C1527 C1525 1.415 . S
C1528 H1518 0.930 . S
C1528 C1526 1.419 . S
C1528 C1529 1.362 . S
C1529 H1519 0.930 . S
C1529 C1522 1.409 . S
C1529 C1528 1.362 . S
H1530 C1536 0.930 . S
H1531 C1539 0.930 . S
H1532 C1540 0.930 . S
H1533 C1541 0.930 . S
H1534 C1544 0.930 . S
H1535 C1545 0.930 . S
C1536 H1530 0.930 . S
C1536 C1537 1.355 . S
C1536 C1538 1.415 . S
C1537 C1536 1.355 . S
C1537 C1539 1.419 . S
C1538 C1536 1.415 . S
C1538 C1543 1.425 . S
C1538 C1545 1.409 . S
C1539 H1531 0.930 . S
C1539 C1537 1.419 . S
C1539 C1540 1.362 . S
C1540 H1532 0.930 . S
C1540 C1539 1.362 . S
C1540 C1543 1.409 . S
C1541 H1533 0.930 . S
C1541 C1542 1.355 . S
C1541 C1543 1.415 . S
C1542 C1541 1.355 . S
C1542 C1544 1.419 . S
C1543 C1538 1.425 . S
C1543 C1540 1.409 . S
C1543 C1541 1.415 . S
C1544 H1534 0.930 . S
C1544 C1542 1.419 . S
C1544 C1545 1.362 . S
C1545 H1535 0.930 . S
C1545 C1538 1.409 . S
C1545 C1544 1.362 . S
H1546 C1552 0.930 . S
H1547 C1555 0.930 . S
H1548 C1556 0.930 . S
H1549 C1557 0.930 . S
H1550 C1560 0.930 . S
H1551 C1561 0.930 . S
C1552 H1546 0.930 . S
C1552 C1553 1.355 . S
C1552 C1554 1.415 . S
C1553 C1552 1.355 . S
C1553 C1555 1.419 . S
C1554 C1552 1.415 . S
C1554 C1559 1.425 . S
C1554 C1561 1.409 . S
C1555 H1547 0.930 . S
C1555 C1553 1.419 . S
C1555 C1556 1.362 . S
C1556 H1548 0.930 . S
C1556 C1555 1.362 . S
C1556 C1559 1.409 . S
C1557 H1549 0.930 . S
C1557 C1558 1.355 . S
C1557 C1559 1.415 . S
C1558 C1557 1.355 . S
C1558 C1560 1.419 . S
C1559 C1554 1.425 . S
C1559 C1556 1.409 . S
C1559 C1557 1.415 . S
C1560 H1550 0.930 . S
C1560 C1558 1.419 . S
C1560 C1561 1.362 . S
C1561 H1551 0.930 . S
C1561 C1554 1.409 . S
C1561 C1560 1.362 . S
H1562 C1568 0.930 . S
H1563 C1571 0.930 . S
H1564 C1572 0.930 . S
H1565 C1573 0.930 . S
H1566 C1576 0.930 . S
H1567 C1577 0.930 . S
C1568 H1562 0.930 . S
C1568 C1569 1.355 . S
C1568 C1570 1.415 . S
C1569 C1568 1.355 . S
C1569 C1571 1.419 . S
C1570 C1568 1.415 . S
C1570 C1575 1.425 . S
C1570 C1577 1.409 . S
C1571 H1563 0.930 . S
C1571 C1569 1.419 . S
C1571 C1572 1.362 . S
C1572 H1564 0.930 . S
C1572 C1571 1.362 . S
C1572 C1575 1.409 . S
C1573 H1565 0.930 . S
C1573 C1574 1.355 . S
C1573 C1575 1.415 . S
C1574 C1573 1.355 . S
C1574 C1576 1.419 . S
C1575 C1570 1.425 . S
C1575 C1572 1.409 . S
C1575 C1573 1.415 . S
C1576 H1566 0.930 . S
C1576 C1574 1.419 . S
C1576 C1577 1.362 . S
C1577 H1567 0.930 . S
C1577 C1570 1.409 . S
C1577 C1576 1.362 . S
H1578 C1584 0.930 . S
H1579 C1587 0.930 . S
H1580 C1588 0.930 . S
H1581 C1589 0.930 . S
H1582 C1592 0.930 . S
H1583 C1593 0.930 . S
C1584 H1578 0.930 . S
C1584 C1585 1.355 . S
C1584 C1586 1.415 . S
C1585 C1584 1.355 . S
C1585 C1587 1.419 . S
C1586 C1584 1.415 . S
C1586 C1591 1.425 . S
C1586 C1593 1.409 . S
C1587 H1579 0.930 . S
C1587 C1585 1.419 . S
C1587 C1588 1.362 . S
C1588 H1580 0.930 . S
C1588 C1587 1.362 . S
C1588 C1591 1.409 . S
C1589 H1581 0.930 . S
C1589 C1590 1.355 . S
C1589 C1591 1.415 . S
C1590 C1589 1.355 . S
C1590 C1592 1.419 . S
C1591 C1586 1.425 . S
C1591 C1588 1.409 . S
C1591 C1589 1.415 . S
C1592 H1582 0.930 . S
C1592 C1590 1.419 . S
C1592 C1593 1.362 . S
C1593 H1583 0.930 . S
C1593 C1586 1.409 . S
C1593 C1592 1.362 . S
H1594 C1600 0.930 . S
H1595 C1603 0.930 . S
H1596 C1604 0.930 . S
H1597 C1605 0.930 . S
H1598 C1608 0.930 . S
H1599 C1609 0.930 . S
C1600 H1594 0.930 . S
C1600 C1601 1.355 . S
C1600 C1602 1.415 . S
C1601 C1600 1.355 . S
C1601 C1603 1.419 . S
C1602 C1600 1.415 . S
C1602 C1607 1.425 . S
C1602 C1609 1.409 . S
C1603 H1595 0.930 . S
C1603 C1601 1.419 . S
C1603 C1604 1.362 . S
C1604 H1596 0.930 . S
C1604 C1603 1.362 . S
C1604 C1607 1.409 . S
C1605 H1597 0.930 . S
C1605 C1606 1.355 . S
C1605 C1607 1.415 . S
C1606 C1605 1.355 . S
C1606 C1608 1.419 . S
C1607 C1602 1.425 . S
C1607 C1604 1.409 . S
C1607 C1605 1.415 . S
C1608 H1598 0.930 . S
C1608 C1606 1.419 . S
C1608 C1609 1.362 . S
C1609 H1599 0.930 . S
C1609 C1602 1.409 . S
C1609 C1608 1.362 . S
H1610 C1616 0.930 . S
H1611 C1619 0.930 . S
H1612 C1620 0.930 . S
H1613 C1621 0.930 . S
H1614 C1624 0.930 . S
H1615 C1625 0.930 . S
C1616 H1610 0.930 . S
C1616 C1617 1.355 . S
C1616 C1618 1.415 . S
C1617 C1616 1.355 . S
C1617 C1619 1.419 . S
C1618 C1616 1.415 . S
C1618 C1623 1.425 . S
C1618 C1625 1.409 . S
C1619 H1611 0.930 . S
C1619 C1617 1.419 . S
C1619 C1620 1.362 . S
C1620 H1612 0.930 . S
C1620 C1619 1.362 . S
C1620 C1623 1.409 . S
C1621 H1613 0.930 . S
C1621 C1622 1.355 . S
C1621 C1623 1.415 . S
C1622 C1621 1.355 . S
C1622 C1624 1.419 . S
C1623 C1618 1.425 . S
C1623 C1620 1.409 . S
C1623 C1621 1.415 . S
C1624 H1614 0.930 . S
C1624 C1622 1.419 . S
C1624 C1625 1.362 . S
C1625 H1615 0.930 . S
C1625 C1618 1.409 . S
C1625 C1624 1.362 . S
C870 C683 1.551 . S
C865 C74 1.523 . S
C886 C673 0.728 . S
C881 C142 0.909 . S
C902 C674 1.234 . S
C897 C231 1.236 . S
C913 C322 1.287 . S
C918 C696 1.340 . S
C929 C406 0.856 . S
C934 C699 0.672 . S
C950 C682 1.253 . S
C945 C494 1.207 . S
C961 C562 1.286 . S
C966 C672 1.340 . S
C977 C651 1.449 . S
C982 C690 1.595 . S
C998 C703 1.376 . S
C993 C58 1.366 . S
C1009 C151 1.580 . S
C1014 C752 1.576 . S
C1030 C730 2.625 . S
C1025 C224 2.533 . S
C1046 C744 1.173 . S
C1041 C315 1.183 . S
C1057 C399 1.179 . S
C1062 C705 1.149 . S
C1078 C758 1.383 . S
C1073 C478 1.428 . S
C1089 C571 1.574 . S
C1094 C714 1.599 . S
C1105 C644 2.472 . S
C1110 C735 2.588 . S
C1121 C67 2.519 . S
C1126 C761 2.575 . S
C1137 C392 1.637 . S
C1142 C745 1.563 . S
C1158 C704 2.617 . S
C1153 C487 2.527 . S
C1174 C736 1.130 . S
C1169 C578 1.102 . S
C1185 C658 1.311 . S
C1190 C727 1.420 . S
C1201 C238 1.460 . S
C1206 C734 1.399 . S
C1222 C721 1.546 . S
C1217 C308 1.525 . S
C1233 C158 1.098 . S
C1238 C713 1.089 . S
C1249 C662 1.534 . S
C1254 C776 1.545 . S
C1265 C394 0.941 . S
C1270 C766 0.655 . S
C1286 C767 1.287 . S
C1281 C483 1.120 . S
C1302 C789 1.401 . S
C1297 C574 1.339 . S
C1313 C154 0.893 . S
C1318 C792 0.599 . S
C1334 C775 1.245 . S
C1329 C242 1.224 . S
C1345 C310 1.337 . S
C1350 C765 1.368 . S
C1361 C63 1.474 . S
C1366 C783 1.581 . S
C1377 C646 1.392 . S
C1382 C796 1.387 . S
C1398 C845 1.605 . S
C1393 C403 1.584 . S
C1409 C476 2.473 . S
C1414 C823 2.610 . S
C1425 C567 1.172 . S
C1430 C837 1.119 . S
C1446 C798 1.181 . S
C1441 C147 1.185 . S
C1457 C226 1.455 . S
C1462 C851 1.375 . S
C1478 C807 1.596 . S
C1473 C319 1.575 . S
C1494 C828 2.590 . S
C1489 C56 2.526 . S
C1510 C854 2.604 . S
C1505 C655 2.504 . S
C1521 C140 1.613 . S
C1526 C838 1.538 . S
C1537 C235 2.484 . S
C1542 C797 2.598 . S
C1558 C829 1.134 . S
C1553 C326 1.180 . S
C1569 C70 1.309 . S
C1574 C820 1.394 . S
C1585 C490 1.418 . S
C1590 C827 1.391 . S
C1606 C814 1.573 . S
C1601 C560 1.531 . S
C1622 C806 1.139 . S
C1617 C410 1.173 . S
