# Generated by pormake.
# Topology ocu, (6,8)-cn, num edge types: 1
# Building blocks:
#     Node 0, Type 0, BuildingBlock: KUMBOL_clean_sbu_1, # of connection points: 6
#     Node 1, Type 0, BuildingBlock: KUMBOL_clean_sbu_1, # of connection points: 6
#     Node 2, Type 0, BuildingBlock: KUMBOL_clean_sbu_1, # of connection points: 6
#     Node 3, Type 0, BuildingBlock: KUMBOL_clean_sbu_1, # of connection points: 6
#     Node 4, Type 0, BuildingBlock: KUMBOL_clean_sbu_1, # of connection points: 6
#     Node 5, Type 0, BuildingBlock: KUMBOL_clean_sbu_1, # of connection points: 6
#     Node 6, Type 0, BuildingBlock: KUMBOL_clean_sbu_1, # of connection points: 6
#     Node 7, Type 0, BuildingBlock: KUMBOL_clean_sbu_1, # of connection points: 6
#     Node 8, Type 1, BuildingBlock: GIZVER_clean_sbu_0, # of connection points: 8
#     Node 9, Type 1, BuildingBlock: GIZVER_clean_sbu_0, # of connection points: 8
#     Node 10, Type 1, BuildingBlock: GIZVER_clean_sbu_0, # of connection points: 8
#     Node 11, Type 1, BuildingBlock: GIZVER_clean_sbu_0, # of connection points: 8
#     Node 12, Type 1, BuildingBlock: GIZVER_clean_sbu_0, # of connection points: 8
#     Node 13, Type 1, BuildingBlock: GIZVER_clean_sbu_0, # of connection points: 8
#     Edge 14, Type (0, 1), BuildingBlock: AJUNOK_clean_linker_0, # of connection points: 2
#     Edge 15, Type (0, 1), BuildingBlock: AJUNOK_clean_linker_0, # of connection points: 2
#     Edge 16, Type (0, 1), BuildingBlock: AJUNOK_clean_linker_0, # of connection points: 2
#     Edge 17, Type (0, 1), BuildingBlock: AJUNOK_clean_linker_0, # of connection points: 2
#     Edge 18, Type (0, 1), BuildingBlock: AJUNOK_clean_linker_0, # of connection points: 2
#     Edge 19, Type (0, 1), BuildingBlock: AJUNOK_clean_linker_0, # of connection points: 2
#     Edge 20, Type (0, 1), BuildingBlock: AJUNOK_clean_linker_0, # of connection points: 2
#     Edge 21, Type (0, 1), BuildingBlock: AJUNOK_clean_linker_0, # of connection points: 2
#     Edge 22, Type (0, 1), BuildingBlock: AJUNOK_clean_linker_0, # of connection points: 2
#     Edge 23, Type (0, 1), BuildingBlock: AJUNOK_clean_linker_0, # of connection points: 2
#     Edge 24, Type (0, 1), BuildingBlock: AJUNOK_clean_linker_0, # of connection points: 2
#     Edge 25, Type (0, 1), BuildingBlock: AJUNOK_clean_linker_0, # of connection points: 2
#     Edge 26, Type (0, 1), BuildingBlock: AJUNOK_clean_linker_0, # of connection points: 2
#     Edge 27, Type (0, 1), BuildingBlock: AJUNOK_clean_linker_0, # of connection points: 2
#     Edge 28, Type (0, 1), BuildingBlock: AJUNOK_clean_linker_0, # of connection points: 2
#     Edge 29, Type (0, 1), BuildingBlock: AJUNOK_clean_linker_0, # of connection points: 2
#     Edge 30, Type (0, 1), BuildingBlock: AJUNOK_clean_linker_0, # of connection points: 2
#     Edge 31, Type (0, 1), BuildingBlock: AJUNOK_clean_linker_0, # of connection points: 2
#     Edge 32, Type (0, 1), BuildingBlock: AJUNOK_clean_linker_0, # of connection points: 2
#     Edge 33, Type (0, 1), BuildingBlock: AJUNOK_clean_linker_0, # of connection points: 2
#     Edge 34, Type (0, 1), BuildingBlock: AJUNOK_clean_linker_0, # of connection points: 2
#     Edge 35, Type (0, 1), BuildingBlock: AJUNOK_clean_linker_0, # of connection points: 2
#     Edge 36, Type (0, 1), BuildingBlock: AJUNOK_clean_linker_0, # of connection points: 2
#     Edge 37, Type (0, 1), BuildingBlock: AJUNOK_clean_linker_0, # of connection points: 2
#     Edge 38, Type (0, 1), BuildingBlock: AJUNOK_clean_linker_0, # of connection points: 2
#     Edge 39, Type (0, 1), BuildingBlock: AJUNOK_clean_linker_0, # of connection points: 2
#     Edge 40, Type (0, 1), BuildingBlock: AJUNOK_clean_linker_0, # of connection points: 2
#     Edge 41, Type (0, 1), BuildingBlock: AJUNOK_clean_linker_0, # of connection points: 2
#     Edge 42, Type (0, 1), BuildingBlock: AJUNOK_clean_linker_0, # of connection points: 2
#     Edge 43, Type (0, 1), BuildingBlock: AJUNOK_clean_linker_0, # of connection points: 2
#     Edge 44, Type (0, 1), BuildingBlock: AJUNOK_clean_linker_0, # of connection points: 2
#     Edge 45, Type (0, 1), BuildingBlock: AJUNOK_clean_linker_0, # of connection points: 2
#     Edge 46, Type (0, 1), BuildingBlock: AJUNOK_clean_linker_0, # of connection points: 2
#     Edge 47, Type (0, 1), BuildingBlock: AJUNOK_clean_linker_0, # of connection points: 2
#     Edge 48, Type (0, 1), BuildingBlock: AJUNOK_clean_linker_0, # of connection points: 2
#     Edge 49, Type (0, 1), BuildingBlock: AJUNOK_clean_linker_0, # of connection points: 2
#     Edge 50, Type (0, 1), BuildingBlock: AJUNOK_clean_linker_0, # of connection points: 2
#     Edge 51, Type (0, 1), BuildingBlock: AJUNOK_clean_linker_0, # of connection points: 2
#     Edge 52, Type (0, 1), BuildingBlock: AJUNOK_clean_linker_0, # of connection points: 2
#     Edge 53, Type (0, 1), BuildingBlock: AJUNOK_clean_linker_0, # of connection points: 2
#     Edge 54, Type (0, 1), BuildingBlock: AJUNOK_clean_linker_0, # of connection points: 2
#     Edge 55, Type (0, 1), BuildingBlock: AJUNOK_clean_linker_0, # of connection points: 2
#     Edge 56, Type (0, 1), BuildingBlock: AJUNOK_clean_linker_0, # of connection points: 2
#     Edge 57, Type (0, 1), BuildingBlock: AJUNOK_clean_linker_0, # of connection points: 2
#     Edge 58, Type (0, 1), BuildingBlock: AJUNOK_clean_linker_0, # of connection points: 2
#     Edge 59, Type (0, 1), BuildingBlock: AJUNOK_clean_linker_0, # of connection points: 2
#     Edge 60, Type (0, 1), BuildingBlock: AJUNOK_clean_linker_0, # of connection points: 2
#     Edge 61, Type (0, 1), BuildingBlock: AJUNOK_clean_linker_0, # of connection points: 2
# Relax obj value: 0.197
# Max RMSD: 0.207
# Mean RMSD: 0.175
data_MOF--net-ocu--node1-KUMBOL_clean_sbu_1--node2-GIZVER_clean_sbu_0--edge1-AJUNOK_clean_linker_0
_symmetry_space_group_name_H-M    P1
_symmetry_Int_Tables_number       1
_symmetry_cell_setting            triclinic
loop_
_symmetry_equiv_pos_as_xyz
'x, y, z'
_cell_length_a     33.735882
_cell_length_b     35.36533
_cell_length_c     27.417601
_cell_angle_alpha  101.74482
_cell_angle_beta   78.701414
_cell_angle_gamma 116.99987
loop_
_atom_site_label
_atom_site_type_symbol
_atom_site_fract_x
_atom_site_fract_y
_atom_site_fract_z
_atom_type_partial_charge
C0 C 0.3585 0.38423 0.375 0.0
C1 C 0.312 0.36724 0.4546 0.0
C2 C 0.32529 0.35428 0.40447 0.0
C3 C 0.33164 0.41066 0.47445 0.0
C4 C 0.3782 0.42787 0.39497 0.0
C5 C 0.36439 0.4409 0.44463 0.0
N6 N 0.37177 0.37065 0.32716 0.0
C7 C 0.40599 0.39887 0.29845 0.0
C8 C 0.41173 0.45713 0.3647 0.0
C9 C 0.42584 0.44251 0.31637 0.0
Gd10 Gd 0.25814 0.24996 0.19915 0.0
Gd11 Gd 0.33792 0.29611 0.30356 0.0
N12 N 0.30565 0.31254 0.38384 0.0
C13 C 0.27966 0.33604 0.4835 0.0
C14 C 0.27423 0.28209 0.41196 0.0
C15 C 0.26059 0.29335 0.46202 0.0
H16 H 0.26064 0.24892 0.39665 0.0
H17 H 0.236 0.26895 0.48431 0.0
H18 H 0.32604 0.31192 0.10827 0.0
H19 H 0.41948 0.3879 0.2625 0.0
H20 H 0.3642 0.30215 0.02428 0.0
H21 H 0.26979 0.34434 0.52263 0.0
H22 H 0.32171 0.42119 0.51285 0.0
H23 H 0.19398 0.15096 0.22926 0.0
H24 H 0.42761 0.49092 0.37865 0.0
H25 H 0.45272 0.46472 0.29326 0.0
H26 H 0.305 0.15053 0.98037 0.0
H27 H 0.37923 0.47429 0.46054 0.0
H28 H 0.20196 0.06161 0.10162 0.0
H29 H 0.17105 0.0765 0.18901 0.0
N30 N 0.23993 0.17804 0.16735 0.0
C31 C 0.25676 0.1707 0.11887 0.0
C32 C 0.20917 0.14487 0.19222 0.0
C33 C 0.2128 0.0944 0.1196 0.0
C34 C 0.19548 0.10263 0.16902 0.0
C35 C 0.24384 0.12853 0.0939 0.0
H36 H 0.25235 0.08948 0.02444 0.0
N37 N 0.29748 0.2461 0.11832 0.0
C38 C 0.28703 0.20552 0.09417 0.0
C39 C 0.33386 0.23371 0.01916 0.0
C40 C 0.3048 0.19841 0.04384 0.0
C41 C 0.3226 0.28032 0.09249 0.0
C42 C 0.34269 0.27478 0.04359 0.0
O43 O 0.28641 0.32622 0.31806 0.0
O44 O 0.24013 0.29999 0.25528 0.0
O45 O 0.23067 0.26409 0.14291 0.0
O46 O 0.18749 0.21581 0.19066 0.0
O47 O 0.2841 0.22767 0.30635 0.0
O48 O 0.22575 0.22747 0.27544 0.0
O49 O 0.30179 0.21357 0.20031 0.0
O50 O 0.36591 0.26514 0.23111 0.0
O51 O 0.35325 0.2597 0.34702 0.0
O52 O 0.40347 0.32278 0.32805 0.0
O53 O 0.31127 0.3195 0.19773 0.0
O54 O 0.36886 0.31718 0.22724 0.0
C55 C 0.25316 0.32541 0.29772 0.0
C56 C 0.24088 0.21205 0.30374 0.0
C57 C 0.15212 0.24672 0.15458 0.0
C58 C 0.11771 0.2809 0.11844 0.0
C59 C 0.07295 0.22975 0.17717 0.0
C60 C 0.11029 0.22391 0.18127 0.0
C61 C 0.07654 0.25798 0.14597 0.0
C62 C 0.15562 0.27543 0.12315 0.0
C63 C 0.18993 0.23624 0.15493 0.0
C64 C 0.29215 0.15644 0.01916 0.0
C65 C 0.26191 0.12164 0.04414 0.0
H66 H 0.34848 0.22961 0.98071 0.0
C67 C 0.34504 0.22746 0.20451 0.0
C68 C 0.35441 0.33443 0.20094 0.0
C69 C 0.42645 0.28866 0.37757 0.0
C70 C 0.45383 0.2487 0.4134 0.0
C71 C 0.49802 0.32504 0.41117 0.0
C72 C 0.46525 0.32622 0.38831 0.0
C73 C 0.49254 0.28648 0.4234 0.0
C74 C 0.42049 0.24991 0.39095 0.0
C75 C 0.39359 0.29018 0.3507 0.0
H76 H 1.041 0.21212 0.19803 0.0
H77 H 0.10615 0.20083 0.20468 0.0
H78 H 1.04719 0.26239 0.14388 0.0
H79 H 0.18734 0.29274 0.10155 0.0
H80 H 0.5279 0.35404 0.41911 0.0
H81 H 0.47048 0.35651 0.37868 0.0
H82 H 0.51863 0.28605 0.44059 0.0
H83 H 0.39102 0.22061 0.38229 0.0
C84 C 0.88775 0.26417 0.12797 0.0
C85 C 0.95758 0.3287 0.1314 0.0
C86 C 0.91747 0.29956 0.15543 0.0
C87 C 0.96574 0.32331 0.07885 0.0
C88 C 0.89755 0.25689 0.07547 0.0
C89 C 0.93579 0.28742 0.05088 0.0
N90 N 0.85159 0.23489 0.15306 0.0
C91 C 0.82673 0.19568 0.12835 0.0
C92 C 0.86993 0.21817 0.04956 0.0
C93 C 0.83483 0.18711 0.0762 0.0
Gd94 Gd 0.74716 0.29698 0.28768 0.0
Gd95 Gd 0.83914 0.254 0.24044 0.0
N96 N 0.90851 0.30388 0.20611 0.0
C97 C 0.989 0.36133 0.16104 0.0
C98 C 0.94036 0.33369 0.2353 0.0
C99 C 0.98068 0.36335 0.21325 0.0
H100 H 0.93376 0.33532 0.27561 0.0
H101 H 1.00523 0.38775 0.2365 0.0
H102 H 0.66218 0.22555 0.22064 0.0
H103 H 0.80082 0.17069 0.14877 0.0
H104 H 0.59357 0.1591 0.23274 0.0
H105 H 1.02037 0.38417 0.14403 0.0
H106 H 0.99582 0.34591 0.05963 0.0
H107 H 0.7739 0.3466 0.40218 0.0
H108 H 0.87689 0.21123 0.00941 0.0
H109 H 0.81447 0.1563 0.0567 0.0
H110 H 0.57467 0.15243 0.40991 0.0
H111 H 0.9434 0.28273 0.01045 0.0
H112 H 0.67371 0.27311 0.51078 0.0
H113 H 0.74329 0.33697 0.49022 0.0
N114 N 0.72178 0.28926 0.37268 0.0
C115 C 0.68151 0.25591 0.38303 0.0
C116 C 0.74357 0.31862 0.41047 0.0
C117 C 0.68655 0.27757 0.47191 0.0
C118 C 0.72619 0.31335 0.46052 0.0
C119 C 0.66373 0.24821 0.43295 0.0
H120 H 0.61139 0.2036 0.48024 0.0
N121 N 0.67648 0.23759 0.29561 0.0
C122 C 0.65902 0.22849 0.3433 0.0
C123 C 0.5963 0.16547 0.31202 0.0
C124 C 0.61905 0.19162 0.35266 0.0
C125 C 0.65197 0.21473 0.25681 0.0
C126 C 0.61219 0.17776 0.26406 0.0
O127 O 0.85718 0.32195 0.23091 0.0
O128 O 0.79386 0.32372 0.21622 0.0
O129 O 0.69447 0.3135 0.2792 0.0
O130 O 0.75023 0.35931 0.31897 0.0
O131 O 0.84549 0.29653 0.31687 0.0
O132 O 0.81385 0.34174 0.31446 0.0
O133 O 0.75504 0.25039 0.32907 0.0
O134 O 0.77067 0.20454 0.26706 0.0
O135 O 0.86145 0.2394 0.30015 0.0
O136 O 0.87699 0.21624 0.2229 0.0
O137 O 0.74469 0.26443 0.20718 0.0
O138 O 0.77174 0.21526 0.20734 0.0
C139 C 0.83773 0.336 0.20704 0.0
C140 C 0.84186 0.33298 0.3321 0.0
C141 C 0.7191 0.38721 0.27423 0.0
C142 C 0.69964 0.41115 0.20924 0.0
C143 C 0.75282 0.46291 0.26555 0.0
C144 C 0.74797 0.42993 0.29002 0.0
C145 C 0.72883 0.45366 0.22536 0.0
C146 C 0.69445 0.37807 0.23409 0.0
C147 C 0.71474 0.35278 0.30028 0.0
C148 C 0.60325 0.1821 0.40213 0.0
C149 C 0.62468 0.21093 0.44226 0.0
H150 H 0.56559 0.13675 0.31754 0.0
C151 C 0.74813 0.21078 0.3102 0.0
C152 C 0.74695 0.22791 0.18877 0.0
C153 C 0.87073 0.17624 0.28493 0.0
C154 C 0.89464 0.13665 0.32602 0.0
C155 C 0.82546 0.10032 0.2867 0.0
C156 C 0.83253 0.13884 0.2727 0.0
C157 C 0.8564 0.09906 0.31279 0.0
C158 C 0.90126 0.17528 0.31213 0.0
C159 C 0.87966 0.21675 0.26971 0.0
H160 H 0.77507 0.49571 0.27786 0.0
H161 H 0.76683 0.43787 0.32132 0.0
H162 H 0.73262 0.47982 0.2072 0.0
H163 H 0.67165 0.34543 0.22175 0.0
H164 H 0.79613 0.07131 0.27703 0.0
H165 H 0.80847 0.13946 0.2522 0.0
H166 H 0.8505 0.06853 0.32233 0.0
H167 H 0.92983 0.20475 0.32281 0.0
C168 C 0.91973 0.85335 0.14911 0.0
C169 C 0.92019 0.80316 0.07423 0.0
C170 C 0.89801 0.81478 0.11972 0.0
C171 C 0.96482 0.83063 0.05922 0.0
C172 C 0.9645 0.8811 0.13407 0.0
C173 C 0.98699 0.86938 0.08917 0.0
N174 N 0.89675 0.86423 0.19172 0.0
C175 C 0.91626 0.90272 0.22058 0.0
C176 C 0.98508 0.92011 0.16421 0.0
C177 C 0.96079 0.93102 0.20755 0.0
Gd178 Gd 0.77339 0.73681 0.30679 0.0
Gd179 Gd 0.82253 0.81428 0.2108 0.0
N180 N 0.85492 0.78877 0.13546 0.0
C181 C 0.89656 0.76464 0.0448 0.0
C182 C 0.83105 0.75226 0.10573 0.0
C183 C 0.85168 0.73926 0.06046 0.0
H184 H 0.79624 0.73292 0.11705 0.0
H185 H 0.83287 0.70985 0.0375 0.0
H186 H 0.81871 0.81601 0.39988 0.0
H187 H 0.89728 0.91203 0.25322 0.0
H188 H 0.79344 0.85144 0.4778 0.0
H189 H 0.91235 0.7546 0.00958 0.0
H190 H 0.98232 0.82249 0.02426 0.0
H191 H 0.6804 0.6517 0.26894 0.0
H192 H 1.01945 0.94228 0.15399 0.0
H193 H 0.97618 0.96142 0.23066 0.0
H194 H 0.63372 0.77125 0.4966 0.0
H195 H 1.02135 0.89033 0.07693 0.0
H196 H 0.56799 0.65217 0.37216 0.0
H197 H 0.59921 0.62014 0.29489 0.0
N198 N 0.69535 0.70283 0.32891 0.0
C199 C 0.679 0.72016 0.37245 0.0
C200 C 0.66733 0.66695 0.30167 0.0
C201 C 0.60375 0.66659 0.36053 0.0
C202 C 0.62122 0.64852 0.31679 0.0
C203 C 0.63268 0.70265 0.38918 0.0
H204 H 0.5812 0.70848 0.44722 0.0
N205 N 0.75315 0.77236 0.38295 0.0
C206 C 0.7087 0.75567 0.40045 0.0
C207 C 0.72355 0.80974 0.47314 0.0
C208 C 0.69269 0.7744 0.44563 0.0
C209 C 0.78347 0.80529 0.41111 0.0
C210 C 0.76918 0.82491 0.45606 0.0
O211 O 0.85914 0.77006 0.20238 0.0
O212 O 0.8069 0.70943 0.2356 0.0
O213 O 0.81115 0.72814 0.35591 0.0
O214 O 0.74885 0.67594 0.3348 0.0
O215 O 0.75288 0.75812 0.20054 0.0
O216 O 0.75112 0.70211 0.23096 0.0
O217 O 0.739 0.78276 0.30851 0.0
O218 O 0.79593 0.84447 0.28463 0.0
O219 O 0.77195 0.81026 0.16935 0.0
O220 O 0.83248 0.86924 0.17745 0.0
O221 O 0.84648 0.78573 0.31107 0.0
O222 O 0.84803 0.84424 0.28719 0.0
C223 C 0.84509 0.72908 0.20728 0.0
C224 C 0.73813 0.71647 0.19951 0.0
C225 C 0.80906 0.65936 0.33713 0.0
C226 C 0.8654 0.63738 0.34846 0.0
C227 C 0.82423 0.6059 0.27584 0.0
C228 C 0.80069 0.63085 0.29233 0.0
C229 C 0.85622 0.60892 0.30372 0.0
C230 C 0.84177 0.66273 0.36471 0.0
C231 C 0.7856 0.68718 0.35404 0.0
C232 C 0.64657 0.75722 0.46205 0.0
C233 C 0.61667 0.72147 0.43392 0.0
H234 H 0.71257 0.82501 0.50801 0.0
C235 C 0.75591 0.8251 0.30931 0.0
C236 C 0.86395 0.82751 0.31274 0.0
C237 C 0.76474 0.87398 0.1759 0.0
C238 C 0.70587 0.88889 0.15644 0.0
C239 C 0.7378 0.92052 0.23546 0.0
C240 C 0.76631 0.90039 0.22193 0.0
C241 C 0.70785 0.91492 0.20305 0.0
C242 C 0.73429 0.8681 0.14339 0.0
C243 C 0.7927 0.85045 0.1626 0.0
H244 H 0.8172 0.58361 0.24171 0.0
H245 H 0.77602 0.62782 0.26995 0.0
H246 H 0.87268 0.58795 0.29107 0.0
H247 H 0.84883 0.6851 0.3988 0.0
H248 H 0.73905 0.9407 0.27112 0.0
H249 H 0.78933 0.90527 0.24761 0.0
H250 H 0.68682 0.93172 0.2141 0.0
H251 H 0.73247 0.84701 0.1083 0.0
C252 C 0.33291 0.70814 0.33324 0.0
C253 C 0.27517 0.63515 0.32477 0.0
C254 C 0.2974 0.67628 0.30939 0.0
C255 C 0.2885 0.62699 0.36542 0.0
C256 C 0.34683 0.69998 0.37369 0.0
C257 C 0.32426 0.65935 0.38984 0.0
N258 N 0.35391 0.74709 0.31672 0.0
C259 C 0.3904 0.77863 0.33763 0.0
C260 C 0.38311 0.7329 0.39661 0.0
C261 C 0.40522 0.7723 0.37817 0.0
Gd262 Gd 0.24788 0.81312 0.2688 0.0
Gd263 Gd 0.32445 0.75621 0.25109 0.0
N264 N 0.28465 0.68556 0.27101 0.0
C265 C 0.24042 0.60341 0.29859 0.0
C266 C 0.25278 0.65399 0.24347 0.0
C267 C 0.22967 0.61272 0.25723 0.0
H268 H 0.24596 0.66016 0.21006 0.0
H269 H 0.20389 0.58804 0.23562 0.0
H270 H 0.32203 0.90882 0.3212 0.0
H271 H 0.40855 0.8085 0.32269 0.0
H272 H 0.3664 0.98198 0.30042 0.0
H273 H 0.22242 0.57145 0.30927 0.0
H274 H 0.2715 0.59575 0.37812 0.0
H275 H 0.17269 0.76369 0.18595 0.0
H276 H 0.39468 0.72804 0.42797 0.0
H277 H 0.43391 0.79772 0.39493 0.0
H278 H 0.31786 0.97958 0.14634 0.0
H279 H 0.33426 0.6526 0.42109 0.0
H280 H 0.19828 0.85051 0.08301 0.0
H281 H 0.15429 0.77937 0.11188 0.0
N282 N 0.22762 0.82478 0.19789 0.0
C283 C 0.25067 0.86482 0.1842 0.0
C284 C 0.19268 0.79459 0.17325 0.0
C285 C 0.20672 0.84371 0.11535 0.0
C286 C 0.18185 0.80351 0.13152 0.0
C287 C 0.24138 0.87509 0.14195 0.0
H288 H 0.25989 0.92477 0.09552 0.0
N289 N 0.29128 0.88498 0.25384 0.0
C290 C 0.28352 0.89574 0.21287 0.0
C291 C 0.33867 0.96865 0.23116 0.0
C292 C 0.30766 0.93767 0.19993 0.0
C293 C 0.31933 0.91584 0.28606 0.0
C294 C 0.3438 0.95787 0.27496 0.0
O295 O 0.27613 0.74682 0.32317 0.0
O296 O 0.21591 0.74866 0.30022 0.0
O297 O 0.17696 0.79887 0.28627 0.0
O298 O 0.22692 0.85563 0.32314 0.0
O299 O 0.27653 0.73655 0.19145 0.0
O300 O 0.21486 0.74477 0.23387 0.0
O301 O 0.29774 0.82154 0.19652 0.0
O302 O 0.35689 0.8221 0.2248 0.0
O303 O 0.33695 0.71408 0.18854 0.0
O304 O 0.39309 0.76626 0.22366 0.0
O305 O 0.29425 0.83295 0.33066 0.0
O306 O 0.35554 0.82415 0.28778 0.0
C307 C 0.23259 0.73291 0.32614 0.0
C308 C 0.23318 0.72591 0.197 0.0
C309 C 0.16405 0.81502 0.37368 0.0
C310 C 0.15446 0.8028 0.46999 0.0
C311 C 0.07361 0.77118 0.48262 0.0
C312 C 0.11629 0.78059 0.38439 0.0
C313 C 0.10488 0.79764 0.52043 0.0
C314 C 0.18904 0.83621 0.41719 0.0
C315 C 0.18494 0.82861 0.32449 0.0
C316 C 0.29941 0.94762 0.157 0.0
C317 C 0.26635 0.91642 0.1281 0.0
H318 H 0.35776 1.00123 0.22263 0.0
C319 C 0.34134 0.83573 0.19523 0.0
C320 C 0.33764 0.84287 0.3256 0.0
C321 C 0.39707 0.75318 0.13469 0.0
C322 C 0.41235 0.73093 0.04714 0.0
C323 C 0.43978 0.80664 0.07842 0.0
C324 C 0.42268 0.79629 0.12723 0.0
C325 C 0.43493 0.77397 0.03812 0.0
C326 C 0.38727 0.72165 0.09352 0.0
C327 C 0.37973 0.73865 0.18402 0.0
H328 H 1.03899 0.75266 0.49862 0.0
H329 H 0.10264 0.7671 0.34817 0.0
H330 H 0.09956 0.7903 0.55834 0.0
H331 H 0.22526 0.85379 0.41336 0.0
H332 H 0.46007 0.83969 0.07242 0.0
H333 H 0.42995 0.82159 0.15863 0.0
H334 H 0.45445 0.78208 1.00223 0.0
H335 H 0.36815 0.68847 0.10029 0.0
C336 C 0.40168 0.74623 0.62046 0.0
C337 C 0.46615 0.81565 0.62427 0.0
C338 C 0.42775 0.78445 0.64817 0.0
C339 C 0.47668 0.80883 0.57209 0.0
C340 C 0.41456 0.73798 0.56869 0.0
C341 C 0.45143 0.76989 0.54447 0.0
N342 N 0.36458 0.71671 0.64421 0.0
C343 C 0.34284 0.67636 0.62004 0.0
C344 C 0.39028 0.69771 0.54288 0.0
C345 C 0.35507 0.6664 0.56901 0.0
Gd346 Gd 0.25952 0.78994 0.76939 0.0
Gd347 Gd 0.3463 0.73846 0.72917 0.0
N348 N 0.41498 0.79153 0.69823 0.0
C349 C 0.49234 0.85315 0.6534 0.0
C350 C 0.44146 0.82711 0.72708 0.0
C351 C 0.48033 0.85855 0.70516 0.0
H352 H 0.43264 0.83152 0.7668 0.0
H353 H 0.50076 0.8871 0.72816 0.0
H354 H 0.15432 0.72273 0.75197 0.0
H355 H 0.31548 0.65171 0.63968 0.0
H356 H 0.08431 0.67658 0.8012 0.0
H357 H 0.52209 0.87786 0.63639 0.0
H358 H 0.50417 0.83355 0.55269 0.0
H359 H 0.29597 0.88499 0.84101 0.0
H360 H 0.39922 0.6901 0.50317 0.0
H361 H 0.33692 0.63472 0.54975 0.0
H362 H 0.11548 0.72825 0.97202 0.0
H363 H 0.46087 0.76467 0.50443 0.0
H364 H 0.24006 0.86593 0.99363 0.0
H365 H 0.2922 0.91369 0.93168 0.0
N366 N 0.25194 0.8213 0.85336 0.0
C367 C 0.2197 0.79603 0.88579 0.0
C368 C 0.27517 0.86386 0.86854 0.0
C369 C 0.24295 0.85307 0.95439 0.0
C370 C 0.27236 0.88016 0.9195 0.0
C371 C 0.21444 0.81087 0.93731 0.0
H372 H 0.17404 0.79503 0.00867 0.0
N373 N 0.19022 0.75069 0.81487 0.0
C374 C 0.18703 0.75887 0.86547 0.0
C375 C 0.11133 0.70324 0.87196 0.0
C376 C 0.14783 0.73504 0.89566 0.0
C377 C 0.15299 0.72409 0.79184 0.0
C378 C 0.11336 0.69884 0.81977 0.0
O379 O 0.34814 0.78842 0.684 0.0
O380 O 0.33022 0.83512 0.74328 0.0
O381 O 0.25004 0.80735 0.70259 0.0
O382 O 0.2202 0.8253 0.77524 0.0
O383 O 0.35323 0.77788 0.80582 0.0
O384 O 0.32619 0.82721 0.80583 0.0
O385 O 0.23425 0.7206 0.77928 0.0
O386 O 0.29435 0.71587 0.79871 0.0
O387 O 0.403 0.73448 0.74998 0.0
O388 O 0.34621 0.67666 0.72549 0.0
O389 O 0.24557 0.73907 0.69896 0.0
O390 O 0.28203 0.69604 0.69506 0.0
C391 C 0.35326 0.828 0.70097 0.0
C392 C 0.35319 0.81549 0.822 0.0
C393 C 0.24144 0.87069 0.71434 0.0
C394 C 0.22553 0.91764 0.67573 0.0
C395 C 0.2909 0.94632 0.72101 0.0
C396 C 0.27992 0.90546 0.7311 0.0
C397 C 0.2635 0.95253 0.69439 0.0
C398 C 0.21489 0.87659 0.68598 0.0
C399 C 0.22758 0.82825 0.72756 0.0
C400 C 0.14489 0.74662 0.94794 0.0
C401 C 0.17827 0.78468 0.96882 0.0
H402 H 0.08043 0.68431 0.89367 0.0
C403 C 0.25066 0.70376 0.80361 0.0
C404 C 0.25339 0.70514 0.67909 0.0
C405 C 0.3812 0.67495 0.79084 0.0
C406 C 0.41941 0.66239 0.8479 0.0
C407 C 0.33973 0.64292 0.8662 0.0
C408 C 0.34065 0.65712 0.82202 0.0
C409 C 0.379 0.64613 0.87949 0.0
C410 C 0.42052 0.67714 0.80367 0.0
C411 C 0.38315 0.69288 0.74617 0.0
H412 H 0.32014 0.97338 0.73474 0.0
H413 H 0.30084 0.90107 0.75269 0.0
H414 H 0.27162 0.9848 0.68946 0.0
H415 H 0.18576 0.84919 0.67236 0.0
H416 H 0.30842 0.62857 0.8897 0.0
H417 H 0.30965 0.65398 0.81229 0.0
H418 H 0.37745 0.63392 0.91318 0.0
H419 H 0.45164 0.68956 0.77902 0.0
C420 C 0.42379 0.38102 0.67677 0.0
C421 C 0.45118 0.35919 0.59248 0.0
C422 C 0.41844 0.35077 0.63465 0.0
C423 C 0.49052 0.39763 0.59435 0.0
C424 C 0.46257 0.42031 0.67826 0.0
C425 C 0.49628 0.42808 0.63724 0.0
N426 N 0.39008 0.37286 0.7152 0.0
C427 C 0.39233 0.40346 0.75553 0.0
C428 C 0.4658 0.45103 0.72041 0.0
C429 C 0.43035 0.44267 0.75901 0.0
Gd430 Gd 0.27745 0.22954 0.80371 0.0
Gd431 Gd 0.32918 0.3045 0.70692 0.0
N432 N 0.37989 0.31417 0.63379 0.0
C433 C 0.44263 0.32941 0.54909 0.0
C434 C 0.37084 0.28536 0.59133 0.0
C435 C 0.40196 0.29274 0.54823 0.0
H436 H 0.3394 0.25694 0.59067 0.0
H437 H 0.39443 0.27059 0.51418 0.0
H438 H 0.26632 0.28963 0.91217 0.0
H439 H 0.36541 0.39748 0.78585 0.0
H440 H 0.21017 0.28553 0.98626 0.0
H441 H 0.46665 0.33504 0.51573 0.0
H442 H 0.51622 0.40452 0.56244 0.0
H443 H 0.2402 0.1316 0.73755 0.0
H444 H 0.49508 0.48155 0.72307 0.0
H445 H 0.43227 0.46642 0.7915 0.0
H446 H 0.09154 0.14437 0.95716 0.0
H447 H 0.52641 0.45796 0.63782 0.0
H448 H 0.11384 0.05162 0.81148 0.0
H449 H 0.1752 0.06124 0.74181 0.0
N450 N 0.21698 0.16118 0.80482 0.0
C451 C 0.18395 0.15636 0.84368 0.0
C452 C 0.21432 0.12752 0.76873 0.0
C453 C 0.14264 0.08243 0.81009 0.0
C454 C 0.17727 0.08769 0.77082 0.0
C455 C 0.1457 0.11696 0.84724 0.0
H456 H 0.08238 0.08323 0.89118 0.0
N457 N 0.22739 0.22726 0.87724 0.0
C458 C 0.18918 0.1906 0.88091 0.0
C459 C 0.16372 0.22149 0.96058 0.0
C460 C 0.15623 0.18666 0.92265 0.0
C461 C 0.23564 0.26076 0.91497 0.0
C462 C 0.20381 0.25859 0.95689 0.0
O463 O 0.35798 0.25345 0.68633 0.0
O464 O 0.31033 0.1991 0.73354 0.0
O465 O 0.34309 0.23525 0.8102 0.0
O466 O 0.28494 0.20013 0.86116 0.0
O467 O 0.28386 0.237 0.67287 0.0
O468 O 0.23406 0.20788 0.73985 0.0
O469 O 0.24383 0.27569 0.81651 0.0
O470 O 0.29544 0.33354 0.77798 0.0
O471 O 0.26374 0.29913 0.70041 0.0
O472 O 0.32291 0.33835 0.65343 0.0
O473 O 0.32268 0.29842 0.83459 0.0
O474 O 0.37436 0.31964 0.76695 0.0
C475 C 0.34509 0.21452 0.6985 0.0
C476 C 0.24356 0.21064 0.69131 0.0
C477 C 0.34211 0.1769 0.83994 0.0
C478 C 0.39085 0.14939 0.8595 0.0
C479 C 0.33542 0.10648 0.8016 0.0
C480 C 0.3216 0.13895 0.80797 0.0
C481 C 0.36977 0.11158 0.8271 0.0
C482 C 0.37679 0.18215 0.86573 0.0
C483 C 0.32755 0.21109 0.84625 0.0
C484 C 0.11738 0.14795 0.92558 0.0
C485 C 0.11217 0.11314 0.88801 0.0
H486 H 0.13917 0.21983 0.99316 0.0
C487 C 0.25782 0.31574 0.80844 0.0
C488 C 0.36404 0.32177 0.81587 0.0
C489 C 0.26496 0.36052 0.67792 0.0
C490 C 0.2192 0.39163 0.65897 0.0
C491 C 0.26669 0.42673 0.72615 0.0
C492 C 0.2816 0.39475 0.71595 0.0
C493 C 0.2358 0.42534 0.69783 0.0
C494 C 0.23393 0.35911 0.64932 0.0
C495 C 0.28004 0.3264 0.66761 0.0
H496 H 0.31928 0.07714 0.77711 0.0
H497 H 0.29485 0.13441 0.78806 0.0
H498 H 0.37945 0.08558 0.82203 0.0
H499 H 0.39296 0.21167 0.89007 0.0
H500 H 0.27971 0.45309 0.75553 0.0
H501 H 0.30637 0.39701 0.73748 0.0
H502 H 0.22614 0.45147 0.7052 0.0
H503 H 0.22162 0.33305 0.61933 0.0
C504 C 0.82121 0.16819 0.82146 0.0
C505 C 0.76837 0.09755 0.78899 0.0
C506 C 0.79712 0.14068 0.78278 0.0
C507 C 0.76269 0.08316 0.83511 0.0
C508 C 0.81631 0.15362 0.86742 0.0
C509 C 0.78662 0.11111 0.8742 0.0
N510 N 0.84806 0.20983 0.8148 0.0
C511 C 0.87342 0.23765 0.85117 0.0
C512 C 0.84096 0.18239 0.9055 0.0
C513 C 0.87 0.22446 0.89719 0.0
Gd514 Gd 0.77822 0.29363 0.74759 0.0
Gd515 Gd 0.84936 0.22956 0.73733 0.0
N516 N 0.80259 0.15572 0.7388 0.0
C517 C 0.74695 0.06987 0.74827 0.0
C518 C 0.7855 0.12771 0.69774 0.0
C519 C 0.75643 0.08481 0.70209 0.0
H520 H 0.79537 0.1378 0.66117 0.0
H521 H 0.7421 0.06311 0.66955 0.0
H522 H 0.82946 0.38242 0.83021 0.0
H523 H 0.89597 0.27005 0.84476 0.0
H524 H 0.87752 0.4589 0.82817 0.0
H525 H 0.72462 0.03655 0.7515 0.0
H526 H 0.74036 0.05029 0.84068 0.0
H527 H 0.73473 0.25729 0.63841 0.0
H528 H 0.83783 0.17222 0.94126 0.0
H529 H 0.8896 0.24678 0.92625 0.0
H530 H 0.87783 0.48113 0.66163 0.0
H531 H 0.78208 0.09948 0.90947 0.0
H532 H 0.78997 0.36138 0.55107 0.0
H533 H 0.74129 0.28485 0.55972 0.0
N534 N 0.7796 0.3173 0.67292 0.0
C535 C 0.80472 0.3598 0.66975 0.0
C536 C 0.7557 0.29068 0.63482 0.0
C537 C 0.78655 0.34938 0.58565 0.0
C538 C 0.7593 0.30621 0.59037 0.0
C539 C 0.80911 0.37688 0.62576 0.0
H540 H 0.84015 0.43423 0.58925 0.0
N541 N 0.82232 0.36853 0.75213 0.0
C542 C 0.82702 0.38599 0.71022 0.0
C543 C 0.87256 0.45641 0.75043 0.0
C544 C 0.85295 0.43028 0.70801 0.0
C545 C 0.83809 0.39471 0.79491 0.0
C546 C 0.86433 0.43865 0.79437 0.0
O547 O 0.79986 0.22879 0.80794 0.0
O548 O 0.74193 0.22975 0.77932 0.0
O549 O 0.74371 0.32434 0.80356 0.0
O550 O 0.71014 0.28178 0.74088 0.0
O551 O 0.80631 0.21036 0.67261 0.0
O552 O 0.74705 0.22498 0.71117 0.0
O553 O 0.82657 0.29569 0.67614 0.0
O554 O 0.88471 0.29314 0.70267 0.0
O555 O 0.88359 0.19697 0.68356 0.0
O556 O 0.91672 0.24056 0.74591 0.0
O557 O 0.82347 0.31252 0.81113 0.0
O558 O 0.88056 0.29917 0.76557 0.0
C559 C 0.75656 0.21424 0.8077 0.0
C560 C 0.76395 0.20361 0.67542 0.0
C561 C 0.66977 0.27266 0.8213 0.0
C562 C 0.64319 0.25811 0.90791 0.0
C563 C 0.59354 0.2215 0.8422 0.0
C564 C 0.62719 0.24507 0.80715 0.0
C565 C 0.60096 0.2285 0.89244 0.0
C566 C 0.67846 0.27443 0.86985 0.0
C567 C 0.70543 0.30001 0.78634 0.0
C568 C 0.85777 0.44729 0.66403 0.0
C569 C 0.8361 0.42063 0.62293 0.0
H570 H 0.89275 0.49052 0.75019 0.0
C571 C 0.86982 0.30962 0.67532 0.0
C572 C 0.86601 0.31904 0.80492 0.0
C573 C 0.95692 0.25006 0.66589 0.0
C574 C 0.97959 0.27374 0.58274 0.0
C575 C 1.031 0.30593 0.64682 0.0
C576 C 0.99965 0.27775 0.67951 0.0
C577 C 1.02122 0.30424 0.59888 0.0
C578 C 0.94635 0.25129 0.6195 0.0
C579 C 0.92183 0.22201 0.70074 0.0
H580 H 0.56075 0.19997 0.83109 0.0
H581 H 0.62 0.2418 0.7693 0.0
H582 H 0.57255 0.21288 0.91892 0.0
H583 H 0.71227 0.29303 0.87923 0.0
H584 H 0.0638 0.32761 0.65771 0.0
H585 H 1.00842 0.27809 0.71559 0.0
H586 H 1.04762 0.32446 0.5735 0.0
H587 H 0.91259 0.23157 0.61077 0.0
C588 C 0.86394 0.87731 0.87201 0.0
C589 C 0.8151 0.85809 0.94975 0.0
C590 C 0.83065 0.84609 0.90013 0.0
C591 C 0.83324 0.90132 0.97064 0.0
C592 C 0.88157 0.92082 0.89286 0.0
C593 C 0.86609 0.93257 0.94223 0.0
N594 N 0.87868 0.86524 0.82421 0.0
C595 C 0.91162 0.8948 0.79598 0.0
C596 C 0.91432 0.95136 0.86346 0.0
C597 C 0.92939 0.93827 0.81484 0.0
Gd598 Gd 0.76589 0.74279 0.70151 0.0
Gd599 Gd 0.85027 0.79119 0.7998 0.0
N600 N 0.81399 0.80416 0.87933 0.0
C601 C 0.78236 0.82619 0.97742 0.0
C602 C 0.78394 0.7729 0.9073 0.0
C603 C 0.7669 0.78341 0.95616 0.0
H604 H 0.77451 0.73976 0.8934 0.0
H605 H 0.74277 0.75839 0.97792 0.0
H606 H 0.84147 0.78618 0.60619 0.0
H607 H 0.92563 0.88496 0.75967 0.0
H608 H 0.86739 0.76271 0.52023 0.0
H609 H 0.76965 0.83413 0.01562 0.0
H610 H 0.82221 0.91094 0.00894 0.0
H611 H 0.68148 0.654 0.74602 0.0
H612 H 0.9285 0.98508 0.87811 0.0
H613 H 0.95538 0.96158 0.79222 0.0
H614 H 0.77704 0.61071 0.49757 0.0
H615 H 0.87945 0.9658 0.95888 0.0
H616 H 0.66933 0.54722 0.63391 0.0
H617 H 0.6455 0.57664 0.71811 0.0
N618 N 0.72872 0.6682 0.68046 0.0
C619 C 0.74144 0.65285 0.6333 0.0
C620 C 0.69402 0.64155 0.71034 0.0
C621 C 0.6862 0.5812 0.64649 0.0
C622 C 0.67277 0.59766 0.69414 0.0
C623 C 0.72047 0.60889 0.61515 0.0
H624 H 0.71805 0.56036 0.55161 0.0
N625 N 0.7963 0.72337 0.62178 0.0
C626 C 0.77544 0.68129 0.60277 0.0
C627 C 0.8224 0.69621 0.52391 0.0
C628 C 0.78864 0.66647 0.55353 0.0
C629 C 0.82799 0.7526 0.59246 0.0
C630 C 0.84204 0.73943 0.54336 0.0
O631 O 0.80419 0.82611 0.80262 0.0
O632 O 0.73907 0.77357 0.77482 0.0
O633 O 0.7513 0.77952 0.65863 0.0
O634 O 0.70076 0.71722 0.67583 0.0
O635 O 0.79901 0.72135 0.80431 0.0
O636 O 0.73894 0.72163 0.77831 0.0
O637 O 0.81673 0.71167 0.68575 0.0
O638 O 0.8706 0.74494 0.74016 0.0
O639 O 0.87223 0.77145 0.85603 0.0
O640 O 0.92101 0.82076 0.81013 0.0
O641 O 0.81885 0.8118 0.69723 0.0
O642 O 0.87923 0.81111 0.72206 0.0
C643 C 0.76052 0.81185 0.79995 0.0
C644 C 0.75562 0.70431 0.80182 0.0
C645 C 0.67563 0.76816 0.66917 0.0
C646 C 0.64191 0.80945 0.64713 0.0
C647 C 0.60993 0.77223 0.72062 0.0
C648 C 0.64302 0.75741 0.71109 0.0
C649 C 0.60912 0.79791 0.68863 0.0
C650 C 0.67504 0.79441 0.63749 0.0
C651 C 0.7097 0.75148 0.65696 0.0
C652 C 0.76762 0.62273 0.5354 0.0
C653 C 0.73389 0.59401 0.56621 0.0
H654 H 0.83301 0.68642 0.48574 0.0
C655 C 0.85369 0.71597 0.70157 0.0
C656 C 0.86241 0.82735 0.69712 0.0
C657 C 0.95019 0.80295 0.87219 0.0
C658 C 0.98289 0.77115 0.9144 0.0
C659 C 1.02445 0.84522 0.8984 0.0
C660 C 0.98924 0.84153 0.87527 0.0
C661 C 1.02152 0.81022 0.91756 0.0
C662 C 0.94678 0.76821 0.89286 0.0
C663 C 0.91381 0.79849 0.84596 0.0
H664 H 0.58486 0.76381 0.75288 0.0
H665 H 0.64293 0.73741 0.73628 0.0
H666 H 0.58342 0.8094 0.69671 0.0
H667 H 0.70013 0.80289 0.60513 0.0
H668 H 0.05447 0.87508 0.90063 0.0
H669 H 0.99252 0.86881 0.8598 0.0
H670 H 1.04989 0.8134 0.93371 0.0
H671 H 0.91644 0.73854 0.89103 0.0
Co672 Co 0.0799 0.93753 0.48783 0.0
Co673 Co 0.08031 0.99106 0.57109 0.0
Co674 Co 0.05278 0.02161 0.50083 0.0
O675 O 0.09342 0.99683 0.50255 0.0
H676 H 0.1246 1.01576 0.49442 0.0
O677 O 1.01355 0.0483 0.49888 0.0
Co678 Co 1.03415 0.11019 0.51105 0.0
Co679 Co 1.02679 0.05257 0.42947 0.0
H680 H 0.98215 0.03115 0.50869 0.0
O681 O 0.12565 1.00284 0.60098 0.0
O682 O 0.07664 0.93777 0.56397 0.0
O683 O 1.02823 0.99075 0.61572 0.0
O684 O 1.00031 0.97917 0.54595 0.0
O685 O 0.07949 0.06525 0.55925 0.0
O686 O 1.04874 0.16495 0.5199 0.0
O687 O 0.98043 0.11074 0.51079 0.0
O688 O 0.09566 0.12054 0.52008 0.0
O689 O 0.10437 0.06272 0.45431 0.0
O690 O 0.07325 0.04134 0.38544 0.0
O691 O 1.04172 0.10974 0.43519 0.0
O692 O 0.9858 0.05087 0.39841 0.0
C693 C 0.11332 0.90048 0.47857 0.0
C694 C 1.00569 0.93722 0.44694 0.0
C695 C 0.99473 0.97285 0.59187 0.0
C696 C 0.11113 0.96155 0.59005 0.0
C697 C 1.00709 0.15173 0.51415 0.0
C698 C 0.10252 0.10507 0.55467 0.0
C699 C 0.10766 0.06407 0.40721 0.0
C700 C 1.00698 0.09206 0.40923 0.0
O701 O 0.07078 0.88404 0.47558 0.0
O702 O 0.1363 0.94209 0.48622 0.0
O703 O 1.02557 0.9774 0.44328 0.0
O704 O 1.01668 0.92236 0.47898 0.0
Co705 Co 0.60139 0.93978 0.93696 0.0
Co706 Co 0.56613 0.94377 0.01882 0.0
Co707 Co 0.55389 0.02121 1.00219 0.0
O708 O 0.59766 0.99165 0.98662 0.0
H709 H 0.62556 1.0098 1.00043 0.0
O710 O 0.50977 0.05016 0.01796 0.0
Co711 Co 0.50561 0.10188 0.06673 0.0
Co712 Co 0.54133 0.09804 0.98678 0.0
H713 H 0.48208 0.03205 1.00369 0.0
O714 O 0.59208 0.94719 0.07042 0.0
O715 O 0.58941 0.90557 0.99412 0.0
O716 O 0.50199 0.91987 0.0326 0.0
O717 O 0.51175 0.98626 0.06064 0.0
O718 O 0.59426 0.06868 0.05187 0.0
O719 O 0.49857 0.14714 0.11112 0.0
O720 O 0.44342 0.09256 0.07407 0.0
O721 O 0.569 0.1205 0.07239 0.0
O722 O 0.59556 0.05654 0.94335 0.0
O723 O 0.60504 0.12269 0.97297 0.0
O724 O 0.51695 0.13532 0.00883 0.0
O725 O 0.51639 0.09223 0.93409 0.0
C726 C 0.65042 0.91208 0.89897 0.0
C727 C 0.50831 0.93546 0.93297 0.0
C728 C 0.48731 0.94531 0.05946 0.0
C729 C 0.60037 0.91741 0.04037 0.0
C730 C 0.45643 0.12911 0.10447 0.0
C731 C 0.59897 0.10702 0.07121 0.0
C732 C 0.61895 0.09766 0.94388 0.0
C733 C 0.50699 0.12214 0.96218 0.0
O734 O 0.60834 0.89445 0.89209 0.0
O735 O 0.66353 0.94868 0.92929 0.0
O736 O 0.51363 0.97384 0.95277 0.0
O737 O 0.53788 0.92138 0.93148 0.0
Co738 Co 0.09565 0.43999 0.94641 0.0
Co739 Co 0.07432 0.45155 0.04091 0.0
Co740 Co 1.04738 0.5203 0.00842 0.0
O741 O 0.0914 0.49095 0.99658 0.0
H742 H 0.12137 0.51255 1.00145 0.0
O743 O 1.00383 0.54961 0.0208 0.0
Co744 Co 1.00484 0.60412 0.06567 0.0
Co745 Co 1.01469 0.58184 0.97061 0.0
H746 H 0.97321 0.52797 0.02133 0.0
O747 O 0.11757 0.44718 0.06635 0.0
O748 O 0.07858 0.4046 1.00198 0.0
O749 O 1.01668 0.43418 0.07977 0.0
O750 O 0.99855 0.48183 0.05981 0.0
O751 O 0.08233 0.56405 0.06356 0.0
O752 O 1.00035 0.65216 0.10667 0.0
O753 O 0.94343 0.59627 0.07379 0.0
O754 O 0.06822 0.62178 0.06797 0.0
O755 O 0.09606 0.55932 0.95719 0.0
O756 O 0.06774 0.59314 0.92454 0.0
O757 O 1.01782 0.63323 0.00553 0.0
O758 O 0.96951 0.58705 0.95045 0.0
C759 C 0.14492 0.41199 0.91084 0.0
C760 C 1.00593 0.43788 0.93556 0.0
C761 C 0.98916 0.44988 0.08305 0.0
C762 C 0.10442 0.41146 0.03601 0.0
C763 C 0.95774 0.63399 0.10164 0.0
C764 C 0.09316 0.60465 0.0738 0.0
C765 C 0.09982 0.58452 0.9266 0.0
C766 C 0.98932 0.62529 0.97427 0.0
O767 O 0.10347 0.39518 0.90156 0.0
O768 O 0.15733 0.44783 0.9424 0.0
O769 O 1.01173 0.47662 0.9533 0.0
O770 O 1.03382 0.42298 0.93811 0.0
Co771 Co 0.58031 0.4231 0.9846 0.0
Co772 Co 0.58619 0.47798 0.06807 0.0
Co773 Co 0.56069 0.51124 0.99866 0.0
O774 O 0.59961 0.48426 0.99919 0.0
H775 H 0.63103 0.50184 0.99009 0.0
O776 O 0.51992 0.53589 0.99861 0.0
Co777 Co 0.52968 0.5917 0.02615 0.0
Co778 Co 0.5308 0.55236 0.93709 0.0
H779 H 0.48892 0.51556 1.00422 0.0
O780 O 0.62909 0.47948 0.09659 0.0
O781 O 0.57278 0.42122 0.05978 0.0
O782 O 0.53597 0.48307 0.11353 0.0
O783 O 0.50817 0.4696 0.04327 0.0
O784 O 0.58809 0.55391 0.05865 0.0
O785 O 0.53322 0.64172 0.05215 0.0
O786 O 0.47252 0.58188 0.02947 0.0
O787 O 0.59292 0.60984 0.02949 0.0
O788 O 0.61317 0.5543 0.9541 0.0
O789 O 0.58154 0.55288 0.89038 0.0
O790 O 0.53866 0.60763 0.9557 0.0
O791 O 0.48649 0.55092 0.91101 0.0
C792 C 0.60866 0.38259 0.97951 0.0
C793 C 0.51106 0.42863 0.94341 0.0
C794 C 0.50213 0.46635 0.09008 0.0
C795 C 0.60724 0.43835 0.08583 0.0
C796 C 0.49117 0.62269 0.04537 0.0
C797 C 0.60542 0.5947 0.05913 0.0
C798 C 0.61658 0.56496 0.91062 0.0
C799 C 0.50984 0.59194 0.9224 0.0
O800 O 0.56683 0.36822 0.97361 0.0
O801 O 0.63425 0.42376 0.98375 0.0
O802 O 0.53371 0.46864 0.93931 0.0
O803 O 0.51888 0.41263 0.97669 0.0
Co804 Co 0.12828 0.48054 0.50232 0.0
Co805 Co 0.12499 0.48642 0.41674 0.0
Co806 Co 0.0517 0.51976 0.49857 0.0
O807 O 0.07944 0.47702 0.47087 0.0
H808 H 0.05639 0.44802 0.46641 0.0
O809 O 1.0247 0.56323 0.52586 0.0
Co810 Co 0.97367 0.55765 0.49713 0.0
Co811 Co 0.98227 0.55595 0.58289 0.0
H812 H 1.04787 0.59228 0.52805 0.0
O813 O 0.12705 0.43914 0.36979 0.0
O814 O 0.16708 0.46976 0.43467 0.0
O815 O 0.14635 0.54508 0.39951 0.0
O816 O 0.09313 0.56283 0.44806 0.0
O817 O 1.00466 0.487 0.45137 0.0
O818 O 0.93112 0.55536 0.46746 0.0
O819 O 0.99455 0.61324 0.48773 0.0
O820 O 0.94702 0.49706 0.49765 0.0
O821 O 1.01018 0.47681 0.54915 0.0
O822 O 0.96229 0.49867 0.60314 0.0
O823 O 0.93786 0.57013 0.56633 0.0
O824 O 0.98146 0.60454 0.62777 0.0
C825 C 0.13995 0.43975 0.53295 0.0
C826 C 0.14007 0.56381 0.53915 0.0
C827 C 0.1283 0.57113 0.41492 0.0
C828 C 0.15743 0.44077 0.39402 0.0
C829 C 0.95754 0.59565 0.46669 0.0
C830 C 0.96233 0.47461 0.46373 0.0
C831 C 0.97746 0.47068 0.58529 0.0
C832 C 0.94917 0.60085 0.60514 0.0
O833 O 0.1678 0.47992 0.53476 0.0
O834 O 0.10506 0.42421 0.50859 0.0
O835 O 0.09762 0.5518 0.54677 0.0
O836 O 0.1571 0.54248 0.50555 0.0
Co837 Co 0.62181 0.97239 0.51024 0.0
Co838 Co 0.61504 0.97413 0.42313 0.0
Co839 Co 0.54967 1.019 0.50418 0.0
O840 O 0.57335 0.9723 0.48053 0.0
H841 H 0.54837 0.94425 0.47888 0.0
O842 O 0.52584 0.06559 0.52747 0.0
Co843 Co 0.47603 0.06389 0.49858 0.0
Co844 Co 0.48593 0.06542 0.58648 0.0
H845 H 0.55075 0.09367 0.52758 0.0
O846 O 0.61616 0.92401 0.38103 0.0
O847 O 0.65961 0.96163 0.44182 0.0
O848 O 0.63762 0.02911 0.39918 0.0
O849 O 0.59476 0.05841 0.45109 0.0
O850 O 0.50258 0.98752 0.45608 0.0
O851 O 0.43539 0.06724 0.46865 0.0
O852 O 0.50037 0.11971 0.4939 0.0
O853 O 0.44577 1.00249 0.49592 0.0
O854 O 0.50478 0.97965 0.55735 0.0
O855 O 0.46405 1.01036 0.6109 0.0
O856 O 0.4393 0.07457 0.56727 0.0
O857 O 0.48343 0.11705 0.62577 0.0
C858 C 0.63163 0.92766 0.53687 0.0
C859 C 0.63873 0.05953 0.54532 0.0
C860 C 0.62643 0.05999 0.41449 0.0
C861 C 0.64946 0.93017 0.40364 0.0
C862 C 0.46444 0.10717 0.47238 0.0
C863 C 0.4606 0.97904 0.4631 0.0
C864 C 0.47415 0.97878 0.59496 0.0
C865 C 0.44916 0.10784 0.6031 0.0
O866 O 0.66051 0.96768 0.54122 0.0
O867 O 0.59663 0.9158 0.51375 0.0
O868 O 0.5967 0.05075 0.55237 0.0
O869 O 0.65332 0.03456 0.51483 0.0
C870 C 0.16209 0.15635 0.32712 0.0
C871 C 0.20816 0.175 0.3323 0.0
C872 C 0.13092 0.12046 0.35056 0.0
C873 C 0.14336 0.10197 0.38256 0.0
H874 H 0.14974 0.16905 0.30384 0.0
H875 H 0.09628 0.10745 0.34389 0.0
S876 S 0.25883 0.13978 0.413 0.0
N877 N 0.26434 0.17198 0.37356 0.0
N878 N 0.20499 0.10671 0.42026 0.0
C879 C 0.18886 0.12112 0.39002 0.0
C880 C 0.22124 0.15692 0.36446 0.0
C881 C 0.90966 0.10906 0.39332 0.0
C882 C 0.92676 0.13484 0.35463 0.0
C883 C 0.93748 0.09913 0.41444 0.0
C884 C 0.98387 0.11581 0.39934 0.0
H885 H 0.874 0.09433 0.40551 0.0
H886 H 0.92199 0.07586 0.44079 0.0
S887 S 1.04697 0.19032 0.30536 0.0
N888 N 0.99419 0.18061 0.30538 0.0
N889 N 1.04675 0.16298 0.34768 0.0
C890 C 1.00236 0.14499 0.36443 0.0
C891 C 0.97374 0.15447 0.34162 0.0
C892 C 0.92678 0.84019 0.36267 0.0
C893 C 0.89975 0.85575 0.34735 0.0
C894 C 0.95987 0.86588 0.39562 0.0
C895 C 0.96772 0.90855 0.41518 0.0
H896 H 0.92273 0.80788 0.34861 0.0
H897 H 0.98013 0.85242 0.40495 0.0
S898 S 0.90081 0.96225 0.39458 0.0
N899 N 0.88017 0.91532 0.35967 0.0
N900 N 0.94127 0.96293 0.42084 0.0
C901 C 0.93963 0.92376 0.40173 0.0
C902 C 0.90612 0.8977 0.36821 0.0
C903 C 0.19075 0.85034 0.51427 0.0
C904 C 0.17927 0.80364 0.49283 0.0
C905 C 0.17082 0.88 0.5051 0.0
C906 C 0.13307 0.8706 0.47535 0.0
H907 H 0.21691 0.86507 0.53874 0.0
H908 H 0.18741 0.91242 0.52122 0.0
S909 S 1.0435 0.73003 0.40872 0.0
N910 N 0.10149 0.72967 0.43101 0.0
N911 N 0.0619 0.79845 0.42395 0.0
C912 C 0.11162 0.82888 0.44624 0.0
C913 C 0.1411 0.77864 0.45178 0.0
C914 C 0.14885 0.90221 0.65687 0.0
C915 C 0.19605 0.92448 0.64792 0.0
C916 C 0.12062 0.91157 0.63475 0.0
C917 C 0.1388 0.94428 0.60426 0.0
H918 H 0.1335 0.87863 0.68275 0.0
H919 H 0.08466 0.89509 0.64403 0.0
S920 S 0.25882 1.0049 0.55946 0.0
N921 N 0.25858 0.97414 0.59756 0.0
N922 N 0.20602 0.99565 0.5616 0.0
C923 C 0.18564 0.96593 0.59402 0.0
C924 C 0.21413 0.95475 0.614 0.0
C925 C 0.21523 0.18663 0.60441 0.0
C926 C 0.20737 0.18334 0.6565 0.0
C927 C 0.18146 0.16231 0.57185 0.0
C928 C 0.13822 0.13265 0.58935 0.0
H929 H 0.24779 0.20845 0.58848 0.0
H930 H 0.18961 0.16619 0.53241 0.0
S931 S 0.09797 0.11341 0.72208 0.0
N932 N 0.15046 0.14954 0.72362 0.0
N933 N 0.08913 0.1029 0.66268 0.0
C934 C 0.12983 0.12919 0.64106 0.0
C935 C 0.16361 0.15463 0.67438 0.0
C936 C 1.01615 0.25899 0.49999 0.0
C937 C 0.9753 0.25558 0.52801 0.0
C938 C 1.02638 0.22396 0.49397 0.0
C939 C 0.99303 0.18394 0.5071 0.0
H940 H 1.04337 0.29005 0.49436 0.0
H941 H 0.06081 0.22902 0.48212 0.0
S942 S 0.87142 0.15482 0.52422 0.0
N943 N 0.89598 0.2074 0.52479 0.0
N944 N 0.91222 0.13978 0.51755 0.0
C945 C 0.94837 0.17811 0.51401 0.0
C946 C 0.93967 0.21462 0.51862 0.0
C947 C 0.89031 0.9027 0.67455 0.0
C948 C 0.89333 0.86325 0.6668 0.0
C949 C 0.9216 0.93762 0.64858 0.0
C950 C 0.95596 0.93399 0.61193 0.0
H951 H 0.8648 0.90727 0.70257 0.0
H952 H 0.91953 0.96798 0.65818 0.0
S953 S 0.9759 0.83619 0.57476 0.0
N954 N 0.93305 0.82268 0.61921 0.0
N955 N 0.98855 0.88587 0.56799 0.0
C956 C 0.95762 0.89387 0.6025 0.0
C957 C 0.92723 0.85922 0.63036 0.0
C958 C 0.41942 0.22013 0.17057 0.0
C959 C 0.37182 0.20074 0.17843 0.0
C960 C 0.44536 0.19696 0.14745 0.0
C961 C 0.42608 0.15235 0.12968 0.0
H962 H 0.43732 0.25412 0.18232 0.0
H963 H 0.48147 0.21476 0.14299 0.0
S964 S 0.30329 0.08371 0.14446 0.0
N965 N 0.30711 0.13183 0.16897 0.0
N966 N 0.35501 0.08958 0.12471 0.0
C967 C 0.37856 0.13228 0.13762 0.0
C968 C 0.352 0.15586 0.16185 0.0
C969 C 0.87083 0.36622 0.1237 0.0
C970 C 0.86882 0.37184 0.17649 0.0
C971 C 0.90808 0.39402 0.09361 0.0
C972 C 0.94494 0.42889 0.11487 0.0
H973 H 0.84515 0.33831 0.10524 0.0
H974 H 0.90939 0.38643 0.05318 0.0
S975 S 0.95568 0.45853 0.25104 0.0
N976 N 0.90677 0.41623 0.24832 0.0
N977 N 0.97583 0.46753 0.19242 0.0
C978 C 0.94229 0.4357 0.16756 0.0
C979 C 0.90461 0.40759 0.19804 0.0
C980 C 0.63146 0.88053 0.14014 0.0
C981 C 0.67524 0.88541 0.12143 0.0
C982 C 0.60525 0.88634 0.11108 0.0
C983 C 0.62146 0.89679 0.06193 0.0
H984 H 0.61825 0.87452 0.17855 0.0
H985 H 0.57313 0.88545 0.12844 0.0
S986 S 0.73161 0.90835 0.99335 0.0
N987 N 0.73205 0.89771 0.04905 0.0
N988 N 0.68226 0.90774 0.99442 0.0
C989 C 0.66343 0.89797 0.04127 0.0
C990 C 0.69045 0.89247 0.07103 0.0
C991 C 0.16998 0.65353 0.17709 0.0
C992 C 0.20314 0.69233 0.16095 0.0
C993 C 0.13646 0.62398 0.1471 0.0
C994 C 0.13316 0.63302 0.1008 0.0
H995 H 0.16917 0.64631 0.21384 0.0
H996 H 0.11138 0.59497 0.16166 0.0
S997 S 0.21045 0.73078 0.04203 0.0
N998 N 0.23121 0.73737 0.09458 0.0
N999 N 0.1656 0.68427 0.04072 0.0
C1000 C 0.16593 0.67179 0.08427 0.0
C1001 C 0.20149 0.7008 0.11366 0.0
C1002 C 0.41813 0.83302 0.86995 0.0
C1003 C 0.38916 0.8467 0.85542 0.0
C1004 C 0.45555 0.86145 0.89533 0.0
C1005 C 0.46605 0.90538 0.90894 0.0
H1006 H 0.41291 0.79997 0.8602 0.0
H1007 H 0.47675 0.84867 0.90388 0.0
S1008 S 0.39908 0.958 0.88626 0.0
N1009 N 0.37354 0.90808 0.85996 0.0
N1010 N 0.44163 0.96039 0.90984 0.0
C1011 C 0.43625 0.91927 0.89733 0.0
C1012 C 0.39861 0.89042 0.87024 0.0
C1013 C 0.24814 0.38668 0.84534 0.0
C1014 C 0.23 0.3411 0.83575 0.0
C1015 C 0.22188 0.40945 0.87048 0.0
C1016 C 0.1752 0.38839 0.88689 0.0
H1017 H 0.28332 0.40522 0.83361 0.0
H1018 H 0.2383 0.44409 0.87601 0.0
S1019 S 0.11027 0.26963 0.87265 0.0
N1020 N 0.16125 0.27655 0.84719 0.0
N1021 N 0.11304 0.3181 0.8914 0.0
C1022 C 0.15694 0.34297 0.87748 0.0
C1023 C 0.1837 0.31993 0.8531 0.0
C1024 C 0.72983 0.18255 0.89017 0.0
C1025 C 0.72352 0.18047 0.84018 0.0
C1026 C 0.69751 0.15302 0.92211 0.0
C1027 C 0.65782 0.11893 0.90545 0.0
H1028 H 0.75908 0.2084 0.90549 0.0
H1029 H 0.70273 0.15808 0.96113 0.0
S1030 S 0.62661 0.09697 0.77675 0.0
N1031 N 0.67519 0.13985 0.77492 0.0
N1032 N 0.6154 0.08445 0.83435 0.0
C1033 C 0.65218 0.11535 0.85488 0.0
C1034 C 0.68464 0.14597 0.82259 0.0
C1035 C 0.99623 0.73602 0.9767 0.0
C1036 C 0.98153 0.73292 0.93075 0.0
C1037 C 0.99746 0.70078 0.99129 0.0
C1038 C 0.98395 0.66106 0.96052 0.0
H1039 H 1.00725 0.76599 1.00147 0.0
H1040 H 1.0096 0.70491 0.02666 0.0
S1041 S 0.94546 0.63702 0.83483 0.0
N1042 N 0.95528 0.68753 0.85351 0.0
N1043 N 0.95659 0.62121 0.88102 0.0
C1044 C 0.96892 0.65751 0.91454 0.0
C1045 C 0.96799 0.69343 0.89963 0.0
C1046 C 0.14992 0.35572 0.09863 0.0
C1047 C 0.12084 0.31236 0.08763 0.0
C1048 C 0.14651 0.38736 0.07846 0.0
C1049 C 0.11401 0.37688 0.04631 0.0
H1050 H 0.17343 0.36552 0.12566 0.0
H1051 H 0.16805 0.42052 0.09041 0.0
S1052 S 1.03566 0.26686 0.99865 0.0
N1053 N 0.06278 0.25977 0.03741 0.0
N1054 N 0.05655 0.31915 0.99893 0.0
C1055 C 0.08761 0.33324 0.03132 0.0
C1056 C 0.09088 0.30102 0.05228 0.0
C1057 C 0.17468 0.64194 0.81608 0.0
C1058 C 0.21697 0.66767 0.83302 0.0
C1059 C 0.13862 0.61299 0.84506 0.0
C1060 C 0.14252 0.60704 0.89288 0.0
H1061 H 0.16863 0.64533 0.78046 0.0
H1062 H 0.1065 0.59632 0.83052 0.0
S1063 S 0.24727 0.66226 0.95374 0.0
N1064 N 0.26142 0.6827 0.90037 0.0
N1065 N 0.19415 0.62698 0.95417 0.0
C1066 C 0.18553 0.63009 0.90923 0.0
C1067 C 0.22249 0.66051 0.87962 0.0
C1068 C 0.46009 0.14095 0.86026 0.0
C1069 C 0.4268 0.1532 0.88668 0.0
C1070 C 0.48833 0.13467 0.8855 0.0
C1071 C 0.48458 0.14025 0.93836 0.0
H1072 H 0.46289 0.13406 0.8197 0.0
H1073 H 0.51191 0.12321 0.86311 0.0
S1074 S 0.4082 0.17997 0.02456 0.0
N1075 N 0.39574 0.17671 0.96813 0.0
N1076 N 0.44879 0.16452 0.01582 0.0
C1077 C 0.45435 0.1565 0.96508 0.0
C1078 C 0.42549 0.16309 0.93915 0.0
C1079 C 0.8908 0.37441 0.88395 0.0
C1080 C 0.90096 0.35116 0.83872 0.0
C1081 C 0.92457 0.40362 0.9148 0.0
C1082 C 0.96976 0.41024 0.90217 0.0
H1083 H 0.85652 0.3696 0.89612 0.0
H1084 H 0.91499 0.42013 0.94945 0.0
S1085 S 1.01552 0.35928 0.78807 0.0
N1086 N 0.96154 0.33866 0.7836 0.0
N1087 N 1.02289 0.39254 0.84062 0.0
C1088 C 0.98031 0.38777 0.8571 0.0
C1089 C 0.94662 0.35855 0.82587 0.0
C1090 C 0.68648 0.82024 0.83295 0.0
C1091 C 0.73411 0.83899 0.82596 0.0
C1092 C 0.66091 0.84385 0.85584 0.0
C1093 C 0.68054 0.88835 0.87418 0.0
H1094 H 0.66825 0.78641 0.82073 0.0
H1095 H 0.62475 0.82647 0.85951 0.0
S1096 S 0.80388 0.95531 0.86272 0.0
N1097 N 0.79943 0.90708 0.8378 0.0
N1098 N 0.75223 0.95029 0.8808 0.0
C1099 C 0.72815 0.9078 0.86705 0.0
C1100 C 0.75435 0.88371 0.84334 0.0
C1101 C 0.92022 0.72433 0.16964 0.0
C1102 C 0.87274 0.70408 0.17886 0.0
C1103 C 0.9465 0.70173 0.14535 0.0
C1104 C 0.92748 0.65722 0.12697 0.0
H1105 H 0.93766 0.75821 0.18227 0.0
H1106 H 0.98258 0.71978 0.14072 0.0
S1107 S 0.80446 0.58867 0.1363 0.0
N1108 N 0.80811 0.63598 0.16433 0.0
N1109 N 0.85645 0.59469 0.11826 0.0
C1110 C 0.87993 0.63682 0.13448 0.0
C1111 C 0.85316 0.65968 0.16026 0.0
C1112 C 0.37342 0.86088 0.10933 0.0
C1113 C 0.37418 0.86868 0.16169 0.0
C1114 C 0.40855 0.88788 0.07684 0.0
C1115 C 0.44543 0.92492 0.09505 0.0
H1116 H 0.34708 0.83213 0.09303 0.0
H1117 H 0.40794 0.87846 0.03673 0.0
S1118 S 0.45986 0.96355 0.2294 0.0
N1119 N 0.41324 0.91861 0.23023 0.0
N1120 N 0.47744 0.96983 0.1697 0.0
C1121 C 0.44464 0.93481 0.14744 0.0
C1122 C 0.40964 0.90664 0.18046 0.0
C1123 C 0.70017 0.15277 0.14654 0.0
C1124 C 0.71471 0.19754 0.15158 0.0
C1125 C 0.66417 0.12367 0.11897 0.0
C1126 C 0.64096 0.13792 0.09496 0.0
H1127 H 0.71555 0.13988 0.16556 0.0
H1128 H 0.65328 0.08968 0.11828 0.0
S1129 S 0.67115 0.25188 0.0878 0.0
N1130 N 0.70672 0.25439 0.12337 0.0
N1131 N 0.63963 0.20041 0.07265 0.0
C1132 C 0.65736 0.18263 0.09663 0.0
C1133 C 0.69408 0.21212 0.12427 0.0
C1134 C 0.7279 0.63215 0.83412 0.0
C1135 C 0.72379 0.67024 0.83404 0.0
C1136 C 0.69479 0.59864 0.8612 0.0
C1137 C 0.65713 0.60258 0.89061 0.0
H1138 H 0.75572 0.62736 0.81127 0.0
H1139 H 0.69787 0.569 0.85759 0.0
S1140 S 0.63435 0.6984 0.90815 0.0
N1141 N 0.6805 0.71057 0.86838 0.0
N1142 N 0.62139 0.65032 0.92118 0.0
C1143 C 0.65474 0.64177 0.89285 0.0
C1144 C 0.68715 0.67481 0.86425 0.0
C1145 C 0.4764 0.67502 0.90272 0.0
C1146 C 0.45738 0.65629 0.85754 0.0
C1147 C 0.5001 0.65785 0.9208 0.0
C1148 C 0.50256 0.62012 0.89574 0.0
H1149 H 0.47037 0.70116 0.9255 0.0
H1150 H 0.51328 0.67192 0.95616 0.0
S1151 S 0.47153 0.5683 0.76829 0.0
N1152 N 0.45314 0.6057 0.78198 0.0
N1153 N 0.49565 0.57223 0.81716 0.0
C1154 C 0.48977 0.60546 0.84708 0.0
C1155 C 0.46722 0.62372 0.82787 0.0
C1156 C 0.44624 0.36769 0.82921 0.0
C1157 C 0.4006 0.34975 0.84971 0.0
C1158 C 0.48134 0.39308 0.85947 0.0
C1159 C 0.47294 0.40159 0.91204 0.0
H1160 H 0.45519 0.36195 0.78917 0.0
H1161 H 0.51555 0.40578 0.84149 0.0
S1162 S 0.36009 0.36846 0.98468 0.0
N1163 N 0.34963 0.34681 0.92655 0.0
N1164 N 0.41522 0.39328 0.98277 0.0
C1165 C 0.42769 0.38494 0.93308 0.0
C1166 C 0.39181 0.35945 0.90224 0.0
C1167 C 0.68182 0.32525 0.96368 0.0
C1168 C 0.64759 0.28267 0.96012 0.0
C1169 C 0.66996 0.35937 0.97075 0.0
C1170 C 0.62503 0.35175 0.9849 0.0
H1171 H 0.71644 0.33196 0.95057 0.0
H1172 H 0.69515 0.39053 0.96197 0.0
S1173 S 0.53728 0.25424 0.03656 0.0
N1174 N 0.57779 0.24049 0.00858 0.0
N1175 N 0.55441 0.30448 0.02801 0.0
C1176 C 0.59538 0.3123 1.00196 0.0
C1177 C 0.60785 0.27785 0.9915 0.0
C1178 C 0.6267 0.38525 0.17559 0.0
C1179 C 0.67379 0.40241 0.16741 0.0
C1180 C 0.60271 0.39037 0.14287 0.0
C1181 C 0.62553 0.413 0.10179 0.0
H1182 H 0.60887 0.37195 0.20998 0.0
H1183 H 0.56723 0.38148 0.15331 0.0
S1184 S 0.74752 0.45559 0.0592 0.0
N1185 N 0.74107 0.43487 0.11056 0.0
N1186 N 0.69679 0.44689 0.05088 0.0
C1187 C 0.67186 0.42522 0.09012 0.0
C1188 C 0.6959 0.41935 0.12266 0.0
C1189 C 0.68515 0.69888 0.13404 0.0
C1190 C 0.70488 0.6849 0.16333 0.0
C1191 C 0.65383 0.66993 0.10058 0.0
C1192 C 0.64006 0.62512 0.09444 0.0
H1193 H 0.69373 0.73266 0.13708 0.0
H1194 H 0.63992 0.68297 0.07963 0.0
S1195 S 0.68287 0.57133 0.15997 0.0
N1196 N 0.70933 0.62248 0.18132 0.0
N1197 N 0.65033 0.56886 0.12048 0.0
C1198 C 0.65988 0.61081 0.12312 0.0
C1199 C 0.69212 0.64029 0.15676 0.0
C1200 C 0.47731 0.71887 0.04133 0.0
C1201 C 0.43366 0.70196 0.02787 0.0
C1202 C 0.49286 0.69327 0.05428 0.0
C1203 C 0.46854 0.64948 0.04551 0.0
H1204 H 0.49721 0.75311 0.04928 0.0
H1205 H 0.52519 0.70804 0.06826 0.0
S1206 S 0.35373 0.57582 0.98449 0.0
N1207 N 0.40152 0.61544 0.00857 0.0
N1208 N 0.40275 0.59263 0.00631 0.0
C1209 C 0.42466 0.6323 0.02325 0.0
C1210 C 0.40417 0.65755 0.01778 0.0
C1211 C 0.3929 0.4094 0.17493 0.0
C1212 C 0.38856 0.36711 0.16859 0.0
C1213 C 0.42867 0.44132 0.14825 0.0
C1214 C 0.46034 0.43175 0.11264 0.0
H1215 H 0.3698 0.41837 0.20242 0.0
H1216 H 0.4321 0.47386 0.15632 0.0
S1217 S 0.4617 0.32503 0.07972 0.0
N1218 N 0.41899 0.31768 0.12403 0.0
N1219 N 0.48249 0.37563 0.07083 0.0
C1220 C 0.45474 0.38902 0.10452 0.0
C1221 C 0.41992 0.35731 0.13321 0.0
C1222 C 0.86043 0.65103 0.63768 0.0
C1223 C 0.8781 0.68687 0.67523 0.0
C1224 C 0.8827 0.62394 0.61479 0.0
C1225 C 0.92448 0.6304 0.62767 0.0
H1226 H 0.82847 0.64317 0.62606 0.0
H1227 H 0.86642 0.59716 0.58716 0.0
S1228 S 0.98726 0.72006 0.72235 0.0
N1229 N 0.94192 0.7267 0.72245 0.0
N1230 N 0.98247 0.67766 0.68099 0.0
C1231 C 0.94253 0.66639 0.66477 0.0
C1232 C 0.92002 0.69375 0.68784 0.0
C1233 C 0.4011 0.86133 0.62167 0.0
C1234 C 0.38658 0.86584 0.67375 0.0
C1235 C 0.43119 0.89724 0.59639 0.0
C1236 C 0.4478 0.93948 0.62191 0.0
H1237 H 0.3885 0.82988 0.59997 0.0
H1238 H 0.4401 0.89199 0.55628 0.0
S1239 S 0.42382 0.96909 0.75852 0.0
N1240 N 0.39445 0.91666 0.74976 0.0
N1241 N 0.44935 0.98282 0.70286 0.0
C1242 C 0.43447 0.94407 0.67396 0.0
C1243 C 0.40437 0.90784 0.69956 0.0
C1244 C 0.20311 0.39052 0.57342 0.0
C1245 C 0.1903 0.39311 0.6256 0.0
C1246 C 0.18259 0.40085 0.54171 0.0
C1247 C 0.14826 0.41364 0.56115 0.0
H1248 H 0.23171 0.38414 0.55755 0.0
H1249 H 0.19611 0.40222 0.50252 0.0
S1250 S 0.09962 0.42228 0.69389 0.0
N1251 N 0.13847 0.40619 0.69448 0.0
N1252 N 0.10028 0.42598 0.63463 0.0
C1253 C 0.13293 0.4135 0.61249 0.0
C1254 C 0.1539 0.40318 0.64486 0.0
C1255 C 0.74752 0.14564 0.59863 0.0
C1256 C 0.73231 0.16868 0.64018 0.0
C1257 C 0.71754 0.11092 0.56816 0.0
C1258 C 0.67071 0.09801 0.57668 0.0
H1259 H 0.78299 0.15415 0.58965 0.0
H1260 H 0.73137 0.094 0.53763 0.0
S1261 S 0.61324 0.15093 0.67632 0.0
N1262 N 0.66654 0.1776 0.68506 0.0
N1263 N 0.61129 0.114 0.62799 0.0
C1264 C 0.65529 0.1222 0.61652 0.0
C1265 C 0.68564 0.15705 0.64787 0.0
C1266 C 0.86694 0.40558 0.3843 0.0
C1267 C 0.87193 0.36719 0.36823 0.0
C1268 C 0.89518 0.43928 0.41646 0.0
C1269 C 0.93067 0.43687 0.43315 0.0
H1270 H 0.84112 0.4101 0.37164 0.0
H1271 H 0.89 0.46807 0.427 0.0
S1272 S 0.95773 0.34348 0.40542 0.0
N1273 N 0.9142 0.32836 0.37489 0.0
N1274 N 0.96852 0.39265 0.43311 0.0
C1275 C 0.93607 0.39881 0.4181 0.0
C1276 C 0.90648 0.36383 0.38632 0.0
C1277 C 0.74506 0.88852 0.37086 0.0
C1278 C 0.72836 0.85105 0.33524 0.0
C1279 C 0.72 0.91305 0.39374 0.0
C1280 C 0.67671 0.90279 0.38165 0.0
H1281 H 0.77804 0.89902 0.38167 0.0
H1282 H 0.73528 0.94092 0.42061 0.0
S1283 S 0.61807 0.80938 0.28819 0.0
N1284 N 0.66526 0.80619 0.28892 0.0
N1285 N 0.61985 0.85144 0.3288 0.0
C1286 C 0.6602 0.86557 0.34546 0.0
C1287 C 0.68522 0.84024 0.32334 0.0
C1288 C 0.16326 0.66154 0.33399 0.0
C1289 C 0.20238 0.6944 0.35329 0.0
C1290 C 0.13864 0.62228 0.35456 0.0
C1291 C 0.15141 0.61436 0.39613 0.0
H1292 H 0.15256 0.66543 0.30138 0.0
H1293 H 0.11005 0.59754 0.33697 0.0
S1294 S 0.24632 0.69224 0.46618 0.0
N1295 N 0.24927 0.71748 0.42017 0.0
N1296 N 0.20319 0.64486 0.45871 0.0
C1297 C 0.18877 0.64789 0.41745 0.0
C1298 C 0.21401 0.68751 0.39629 0.0
C1299 C 0.48412 0.19493 0.40016 0.0
C1300 C 0.45064 0.208 0.42361 0.0
C1301 C 0.48654 0.16037 0.41432 0.0
C1302 C 0.45648 0.13857 0.45319 0.0
H1303 H 0.50922 0.21219 0.37143 0.0
H1304 H 0.5122 0.15082 0.39494 0.0
S1305 S 0.35918 0.15646 0.52197 0.0
N1306 N 0.38337 0.19313 0.4833 0.0
N1307 N 0.3894 0.12903 0.51145 0.0
C1308 C 0.42107 0.14931 0.47473 0.0
C1309 C 0.41791 0.18404 0.45961 0.0
C1310 C 0.60549 0.82607 0.58868 0.0
C1311 C 0.64217 0.83829 0.61485 0.0
C1312 C 0.6038 0.85435 0.56088 0.0
C1313 C 0.63777 0.89637 0.55989 0.0
H1314 H 0.57782 0.79454 0.59 0.0
H1315 H 0.57523 0.84345 0.54088 0.0
S1316 S 0.74318 0.94201 0.61874 0.0
N1317 N 0.7151 0.89326 0.63476 0.0
N1318 N 0.71142 0.94718 0.58416 0.0
C1319 C 0.67568 0.90816 0.58421 0.0
C1320 C 0.67786 0.87896 0.61147 0.0
C1321 C 0.70555 0.17625 0.38997 0.0
C1322 C 0.71538 0.17278 0.33709 0.0
C1323 C 0.6748 0.14054 0.41498 0.0
C1324 C 0.65302 0.09944 0.38829 0.0
H1325 H 0.7224 0.20668 0.41239 0.0
H1326 H 0.66938 0.14485 0.45559 0.0
S1327 S 0.6664 0.07253 0.24971 0.0
N1328 N 0.69957 0.12419 0.25947 0.0
N1329 N 0.64358 0.05787 0.3058 0.0
C1330 C 0.66262 0.09566 0.3356 0.0
C1331 C 0.69332 0.13189 0.31029 0.0
C1332 C 0.88003 0.63137 0.43151 0.0
C1333 C 0.89568 0.6369 0.38086 0.0
C1334 C 0.90363 0.62309 0.46137 0.0
C1335 C 0.94369 0.61975 0.44159 0.0
H1336 H 0.84746 0.62983 0.44705 0.0
H1337 H 0.88854 0.61578 0.49899 0.0
S1338 S 1.00068 0.63366 0.31215 0.0
N1339 N 0.9558 0.64152 0.31321 0.0
N1340 N 0.99902 0.62366 0.36902 0.0
C1341 C 0.96099 0.62708 0.39179 0.0
C1342 C 0.93723 0.63615 0.36144 0.0
C1343 C 0.35268 0.89465 0.4073 0.0
C1344 C 0.36887 0.87785 0.36075 0.0
C1345 C 0.38217 0.92702 0.44026 0.0
C1346 C 0.4293 0.94382 0.42853 0.0
H1347 H 0.31692 0.88268 0.41852 0.0
H1348 H 0.36782 0.93876 0.47541 0.0
S1349 S 0.48958 0.91298 0.31036 0.0
N1350 N 0.43614 0.88321 0.30392 0.0
N1351 N 0.49036 0.94163 0.36597 0.0
C1352 C 0.44582 0.92744 0.38206 0.0
C1353 C 0.41604 0.89527 0.34827 0.0
C1354 C 0.24381 0.38774 0.3647 0.0
C1355 C 0.22863 0.3546 0.32362 0.0
C1356 C 0.2215 0.41483 0.38759 0.0
C1357 C 0.18208 0.4111 0.37129 0.0
H1358 H 0.2738 0.39339 0.37932 0.0
H1359 H 0.23579 0.43934 0.41822 0.0
S1360 S 0.12563 0.32838 0.26724 0.0
N1361 N 0.16925 0.31978 0.2698 0.0
N1362 N 0.12857 0.36877 0.31123 0.0
C1363 C 0.16634 0.37761 0.33079 0.0
C1364 C 0.18895 0.35027 0.30767 0.0
C1365 C 0.41598 0.20456 0.65018 0.0
C1366 C 0.37008 0.1864 0.67066 0.0
C1367 C 0.44024 0.17934 0.62794 0.0
C1368 C 0.42037 0.13373 0.6225 0.0
H1369 H 0.4341 0.23906 0.6527 0.0
H1370 H 0.47549 0.19611 0.61495 0.0
S1371 S 0.30113 0.06905 0.66845 0.0
N1372 N 0.30634 0.11852 0.68268 0.0
N1373 N 0.35045 0.07217 0.64072 0.0
C1374 C 0.37431 0.11515 0.64171 0.0
C1375 C 0.3499 0.1409 0.66545 0.0
C1376 C 0.89831 0.3526 0.60109 0.0
C1377 C 0.90144 0.34922 0.65056 0.0
C1378 C 0.92456 0.39109 0.57931 0.0
C1379 C 0.95451 0.42845 0.60634 0.0
H1380 H 0.87468 0.32545 0.57927 0.0
H1381 H 0.91999 0.39209 0.54165 0.0
S1382 S 0.97481 0.43763 0.73729 0.0
N1383 N 0.93762 0.38751 0.72543 0.0
N1384 N 0.98521 0.45929 0.68551 0.0
C1385 C 0.95809 0.42543 0.65555 0.0
C1386 C 0.93222 0.38609 0.67727 0.0
C1387 C 0.24198 0.65885 0.59429 0.0
C1388 C 0.22374 0.67176 0.64193 0.0
C1389 C 0.21542 0.62369 0.56153 0.0
C1390 C 0.16881 0.60092 0.57402 0.0
H1391 H 0.277 0.67643 0.58181 0.0
H1392 H 0.2315 0.61474 0.52587 0.0
S1393 S 0.10399 0.6223 0.69401 0.0
N1394 N 0.15596 0.65845 0.6993 0.0
N1395 N 0.10573 0.59458 0.63813 0.0
C1396 C 0.15 0.61441 0.62105 0.0
C1397 C 0.17735 0.64936 0.6546 0.0
loop_
_geom_bond_atom_site_label_1
_geom_bond_atom_site_label_2
_geom_bond_distance
_geom_bond_site_symmetry_2
_ccdc_geom_bond_type
C0 C2 1.422 . S
C0 C4 1.415 . S
C0 N6 1.369 . S
C1 C2 1.421 . S
C1 C3 1.417 . S
C1 C13 1.422 . S
C2 C0 1.422 . S
C2 C1 1.421 . S
C2 N12 1.359 . S
C3 C1 1.417 . S
C3 C5 1.329 . S
C3 H22 0.930 . S
C4 C0 1.415 . S
C4 C5 1.437 . S
C4 C8 1.413 . S
C5 C3 1.329 . S
C5 C4 1.437 . S
C5 H27 0.929 . S
N6 C0 1.369 . S
N6 C7 1.338 . S
N6 Gd11 2.622 . S
C7 N6 1.338 . S
C7 C9 1.378 . S
C7 H19 0.929 . S
C8 C4 1.413 . S
C8 C9 1.348 . S
C8 H24 0.931 . S
C9 C7 1.378 . S
C9 C8 1.348 . S
C9 H25 0.930 . S
Gd10 N30 2.622 . S
Gd10 N37 2.570 . S
Gd10 O44 2.353 . S
Gd10 O45 2.468 . S
Gd10 O46 2.427 . S
Gd10 O48 2.388 . S
Gd10 O49 2.386 . S
Gd10 O53 2.307 . S
Gd10 C63 2.805 . S
Gd11 N6 2.622 . S
Gd11 N12 2.570 . S
Gd11 O43 2.386 . S
Gd11 O47 2.307 . S
Gd11 O50 2.353 . S
Gd11 O51 2.468 . S
Gd11 O52 2.427 . S
Gd11 O54 2.388 . S
Gd11 C75 2.805 . S
N12 C2 1.359 . S
N12 Gd11 2.570 . S
N12 C14 1.343 . S
C13 C1 1.422 . S
C13 C15 1.321 . S
C13 H21 0.931 . S
C14 N12 1.343 . S
C14 C15 1.390 . S
C14 H16 0.931 . S
C15 C13 1.321 . S
C15 C14 1.390 . S
C15 H17 0.930 . S
H16 C14 0.931 . S
H17 C15 0.930 . S
H18 C41 0.931 . S
H19 C7 0.929 . S
H20 C42 0.930 . S
H21 C13 0.931 . S
H22 C3 0.930 . S
H23 C32 0.929 . S
H24 C8 0.931 . S
H25 C9 0.930 . S
H26 C64 0.930 1_556 S
H27 C5 0.929 . S
H28 C33 0.931 . S
H29 C34 0.930 . S
N30 Gd10 2.622 . S
N30 C31 1.369 . S
N30 C32 1.338 . S
C31 N30 1.369 . S
C31 C35 1.415 . S
C31 C38 1.422 . S
C32 H23 0.929 . S
C32 N30 1.338 . S
C32 C34 1.378 . S
C33 H28 0.931 . S
C33 C34 1.348 . S
C33 C35 1.413 . S
C34 H29 0.930 . S
C34 C32 1.378 . S
C34 C33 1.348 . S
C35 C31 1.415 . S
C35 C33 1.413 . S
C35 C65 1.437 . S
H36 C65 0.929 . S
N37 Gd10 2.570 . S
N37 C38 1.359 . S
N37 C41 1.343 . S
C38 C31 1.422 . S
C38 N37 1.359 . S
C38 C40 1.421 . S
C39 C40 1.422 . S
C39 C42 1.321 . S
C39 H66 0.931 1_554 S
C40 C38 1.421 . S
C40 C39 1.422 . S
C40 C64 1.417 . S
C41 H18 0.931 . S
C41 N37 1.343 . S
C41 C42 1.390 . S
C42 H20 0.930 . S
C42 C39 1.321 . S
C42 C41 1.390 . S
O43 Gd11 2.386 . S
O43 C55 1.265 . S
O44 Gd10 2.353 . S
O44 C55 1.242 . S
O45 Gd10 2.468 . S
O45 C63 1.263 . S
O46 Gd10 2.427 . S
O46 C63 1.252 . S
O47 Gd11 2.307 . S
O47 C56 1.261 . S
O48 Gd10 2.388 . S
O48 C56 1.252 . S
O49 Gd10 2.386 . S
O49 C67 1.265 . S
O50 Gd11 2.353 . S
O50 C67 1.242 . S
O51 Gd11 2.468 . S
O51 C75 1.263 . S
O52 Gd11 2.427 . S
O52 C75 1.252 . S
O53 Gd10 2.307 . S
O53 C68 1.261 . S
O54 Gd11 2.388 . S
O54 C68 1.252 . S
C55 O43 1.265 . S
C55 O44 1.242 . S
C56 O47 1.261 . S
C56 O48 1.252 . S
C57 C60 1.394 . S
C57 C62 1.370 . S
C57 C63 1.500 . S
C58 C61 1.383 . S
C58 C62 1.395 . S
C59 C60 1.396 . S
C59 C61 1.365 . S
C59 H76 0.929 . S
C60 C57 1.394 . S
C60 C59 1.396 . S
C60 H77 0.930 . S
C61 C58 1.383 . S
C61 C59 1.365 . S
C61 H78 0.931 . S
C62 C57 1.370 . S
C62 C58 1.395 . S
C62 H79 0.930 . S
C63 Gd10 2.805 . S
C63 O45 1.263 . S
C63 O46 1.252 . S
C63 C57 1.500 . S
C64 H26 0.930 1_554 S
C64 C40 1.417 . S
C64 C65 1.329 . S
C65 C35 1.437 . S
C65 H36 0.929 . S
C65 C64 1.329 . S
H66 C39 0.931 1_556 S
C67 O49 1.265 . S
C67 O50 1.242 . S
C68 O53 1.261 . S
C68 O54 1.252 . S
C69 C72 1.394 . S
C69 C74 1.370 . S
C69 C75 1.500 . S
C70 C73 1.383 . S
C70 C74 1.395 . S
C71 C72 1.396 . S
C71 C73 1.365 . S
C71 H80 0.929 . S
C72 C69 1.394 . S
C72 C71 1.396 . S
C72 H81 0.930 . S
C73 C70 1.383 . S
C73 C71 1.365 . S
C73 H82 0.931 . S
C74 C69 1.370 . S
C74 C70 1.395 . S
C74 H83 0.930 . S
C75 Gd11 2.805 . S
C75 O51 1.263 . S
C75 O52 1.252 . S
C75 C69 1.500 . S
H76 C59 0.929 . S
H77 C60 0.930 . S
H78 C61 0.931 . S
H79 C62 0.930 . S
H80 C71 0.929 . S
H81 C72 0.930 . S
H82 C73 0.931 . S
H83 C74 0.930 . S
C84 C86 1.422 . S
C84 C88 1.415 . S
C84 N90 1.369 . S
C85 C86 1.421 . S
C85 C87 1.417 . S
C85 C97 1.422 . S
C86 C84 1.422 . S
C86 C85 1.421 . S
C86 N96 1.359 . S
C87 C85 1.417 . S
C87 C89 1.329 . S
C87 H106 0.930 . S
C88 C84 1.415 . S
C88 C89 1.437 . S
C88 C92 1.413 . S
C89 C87 1.329 . S
C89 C88 1.437 . S
C89 H111 0.929 . S
N90 C84 1.369 . S
N90 C91 1.338 . S
N90 Gd95 2.622 . S
C91 N90 1.338 . S
C91 C93 1.378 . S
C91 H103 0.929 . S
C92 C88 1.413 . S
C92 C93 1.348 . S
C92 H108 0.931 . S
C93 C91 1.378 . S
C93 C92 1.348 . S
C93 H109 0.930 . S
Gd94 N114 2.622 . S
Gd94 N121 2.570 . S
Gd94 O128 2.353 . S
Gd94 O129 2.468 . S
Gd94 O130 2.427 . S
Gd94 O132 2.388 . S
Gd94 O133 2.386 . S
Gd94 O137 2.307 . S
Gd94 C147 2.805 . S
Gd95 N90 2.622 . S
Gd95 N96 2.570 . S
Gd95 O127 2.386 . S
Gd95 O131 2.307 . S
Gd95 O134 2.353 . S
Gd95 O135 2.468 . S
Gd95 O136 2.427 . S
Gd95 O138 2.388 . S
Gd95 C159 2.805 . S
N96 C86 1.359 . S
N96 Gd95 2.570 . S
N96 C98 1.343 . S
C97 C85 1.422 . S
C97 C99 1.321 . S
C97 H105 0.931 . S
C98 N96 1.343 . S
C98 C99 1.390 . S
C98 H100 0.931 . S
C99 C97 1.321 . S
C99 C98 1.390 . S
C99 H101 0.930 . S
H100 C98 0.931 . S
H101 C99 0.930 . S
H102 C125 0.931 . S
H103 C91 0.929 . S
H104 C126 0.930 . S
H105 C97 0.931 . S
H106 C87 0.930 . S
H107 C116 0.929 . S
H108 C92 0.931 . S
H109 C93 0.930 . S
H110 C148 0.930 . S
H111 C89 0.929 . S
H112 C117 0.931 . S
H113 C118 0.930 . S
N114 Gd94 2.622 . S
N114 C115 1.369 . S
N114 C116 1.338 . S
C115 N114 1.369 . S
C115 C119 1.415 . S
C115 C122 1.422 . S
C116 H107 0.929 . S
C116 N114 1.338 . S
C116 C118 1.378 . S
C117 H112 0.931 . S
C117 C118 1.348 . S
C117 C119 1.413 . S
C118 H113 0.930 . S
C118 C116 1.378 . S
C118 C117 1.348 . S
C119 C115 1.415 . S
C119 C117 1.413 . S
C119 C149 1.437 . S
H120 C149 0.929 . S
N121 Gd94 2.570 . S
N121 C122 1.359 . S
N121 C125 1.343 . S
C122 C115 1.422 . S
C122 N121 1.359 . S
C122 C124 1.421 . S
C123 C124 1.422 . S
C123 C126 1.321 . S
C123 H150 0.931 . S
C124 C122 1.421 . S
C124 C123 1.422 . S
C124 C148 1.417 . S
C125 H102 0.931 . S
C125 N121 1.343 . S
C125 C126 1.390 . S
C126 H104 0.930 . S
C126 C123 1.321 . S
C126 C125 1.390 . S
O127 Gd95 2.386 . S
O127 C139 1.265 . S
O128 Gd94 2.353 . S
O128 C139 1.242 . S
O129 Gd94 2.468 . S
O129 C147 1.263 . S
O130 Gd94 2.427 . S
O130 C147 1.252 . S
O131 Gd95 2.307 . S
O131 C140 1.261 . S
O132 Gd94 2.388 . S
O132 C140 1.252 . S
O133 Gd94 2.386 . S
O133 C151 1.265 . S
O134 Gd95 2.353 . S
O134 C151 1.242 . S
O135 Gd95 2.468 . S
O135 C159 1.263 . S
O136 Gd95 2.427 . S
O136 C159 1.252 . S
O137 Gd94 2.307 . S
O137 C152 1.261 . S
O138 Gd95 2.388 . S
O138 C152 1.252 . S
C139 O127 1.265 . S
C139 O128 1.242 . S
C140 O131 1.261 . S
C140 O132 1.252 . S
C141 C144 1.394 . S
C141 C146 1.370 . S
C141 C147 1.500 . S
C142 C145 1.383 . S
C142 C146 1.395 . S
C143 C144 1.396 . S
C143 C145 1.365 . S
C143 H160 0.929 . S
C144 C141 1.394 . S
C144 C143 1.396 . S
C144 H161 0.930 . S
C145 C142 1.383 . S
C145 C143 1.365 . S
C145 H162 0.931 . S
C146 C141 1.370 . S
C146 C142 1.395 . S
C146 H163 0.930 . S
C147 Gd94 2.805 . S
C147 O129 1.263 . S
C147 O130 1.252 . S
C147 C141 1.500 . S
C148 H110 0.930 . S
C148 C124 1.417 . S
C148 C149 1.329 . S
C149 C119 1.437 . S
C149 H120 0.929 . S
C149 C148 1.329 . S
H150 C123 0.931 . S
C151 O133 1.265 . S
C151 O134 1.242 . S
C152 O137 1.261 . S
C152 O138 1.252 . S
C153 C156 1.394 . S
C153 C158 1.370 . S
C153 C159 1.500 . S
C154 C157 1.383 . S
C154 C158 1.395 . S
C155 C156 1.396 . S
C155 C157 1.365 . S
C155 H164 0.929 . S
C156 C153 1.394 . S
C156 C155 1.396 . S
C156 H165 0.930 . S
C157 C154 1.383 . S
C157 C155 1.365 . S
C157 H166 0.931 . S
C158 C153 1.370 . S
C158 C154 1.395 . S
C158 H167 0.930 . S
C159 Gd95 2.805 . S
C159 O135 1.263 . S
C159 O136 1.252 . S
C159 C153 1.500 . S
H160 C143 0.929 . S
H161 C144 0.930 . S
H162 C145 0.931 . S
H163 C146 0.930 . S
H164 C155 0.929 . S
H165 C156 0.930 . S
H166 C157 0.931 . S
H167 C158 0.930 . S
C168 C170 1.422 . S
C168 C172 1.415 . S
C168 N174 1.369 . S
C169 C170 1.421 . S
C169 C171 1.417 . S
C169 C181 1.422 . S
C170 C168 1.422 . S
C170 C169 1.421 . S
C170 N180 1.359 . S
C171 C169 1.417 . S
C171 C173 1.329 . S
C171 H190 0.930 1_554 S
C172 C168 1.415 . S
C172 C173 1.437 . S
C172 C176 1.413 . S
C173 C171 1.329 . S
C173 C172 1.437 . S
C173 H195 0.929 . S
N174 C168 1.369 . S
N174 C175 1.338 . S
N174 Gd179 2.622 . S
C175 N174 1.338 . S
C175 C177 1.378 . S
C175 H187 0.929 . S
C176 C172 1.413 . S
C176 C177 1.348 . S
C176 H192 0.931 . S
C177 C175 1.378 . S
C177 C176 1.348 . S
C177 H193 0.930 . S
Gd178 N198 2.622 . S
Gd178 N205 2.570 . S
Gd178 O212 2.353 . S
Gd178 O213 2.468 . S
Gd178 O214 2.427 . S
Gd178 O216 2.388 . S
Gd178 O217 2.386 . S
Gd178 O221 2.307 . S
Gd178 C231 2.805 . S
Gd179 N174 2.622 . S
Gd179 N180 2.570 . S
Gd179 O211 2.386 . S
Gd179 O215 2.307 . S
Gd179 O218 2.353 . S
Gd179 O219 2.468 . S
Gd179 O220 2.427 . S
Gd179 O222 2.388 . S
Gd179 C243 2.805 . S
N180 C170 1.359 . S
N180 Gd179 2.570 . S
N180 C182 1.343 . S
C181 C169 1.422 . S
C181 C183 1.321 . S
C181 H189 0.931 1_554 S
C182 N180 1.343 . S
C182 C183 1.390 . S
C182 H184 0.931 . S
C183 C181 1.321 . S
C183 C182 1.390 . S
C183 H185 0.930 . S
H184 C182 0.931 . S
H185 C183 0.930 . S
H186 C209 0.931 . S
H187 C175 0.929 . S
H188 C210 0.930 . S
H189 C181 0.931 1_556 S
H190 C171 0.930 1_556 S
H191 C200 0.929 . S
H192 C176 0.931 . S
H193 C177 0.930 . S
H194 C232 0.930 . S
H195 C173 0.929 . S
H196 C201 0.931 . S
H197 C202 0.930 . S
N198 Gd178 2.622 . S
N198 C199 1.369 . S
N198 C200 1.338 . S
C199 N198 1.369 . S
C199 C203 1.415 . S
C199 C206 1.422 . S
C200 H191 0.929 . S
C200 N198 1.338 . S
C200 C202 1.378 . S
C201 H196 0.931 . S
C201 C202 1.348 . S
C201 C203 1.413 . S
C202 H197 0.930 . S
C202 C200 1.378 . S
C202 C201 1.348 . S
C203 C199 1.415 . S
C203 C201 1.413 . S
C203 C233 1.437 . S
H204 C233 0.929 . S
N205 Gd178 2.570 . S
N205 C206 1.359 . S
N205 C209 1.343 . S
C206 C199 1.422 . S
C206 N205 1.359 . S
C206 C208 1.421 . S
C207 C208 1.422 . S
C207 C210 1.321 . S
C207 H234 0.931 . S
C208 C206 1.421 . S
C208 C207 1.422 . S
C208 C232 1.417 . S
C209 H186 0.931 . S
C209 N205 1.343 . S
C209 C210 1.390 . S
C210 H188 0.930 . S
C210 C207 1.321 . S
C210 C209 1.390 . S
O211 Gd179 2.386 . S
O211 C223 1.265 . S
O212 Gd178 2.353 . S
O212 C223 1.242 . S
O213 Gd178 2.468 . S
O213 C231 1.263 . S
O214 Gd178 2.427 . S
O214 C231 1.252 . S
O215 Gd179 2.307 . S
O215 C224 1.261 . S
O216 Gd178 2.388 . S
O216 C224 1.252 . S
O217 Gd178 2.386 . S
O217 C235 1.265 . S
O218 Gd179 2.353 . S
O218 C235 1.242 . S
O219 Gd179 2.468 . S
O219 C243 1.263 . S
O220 Gd179 2.427 . S
O220 C243 1.252 . S
O221 Gd178 2.307 . S
O221 C236 1.261 . S
O222 Gd179 2.388 . S
O222 C236 1.252 . S
C223 O211 1.265 . S
C223 O212 1.242 . S
C224 O215 1.261 . S
C224 O216 1.252 . S
C225 C228 1.394 . S
C225 C230 1.370 . S
C225 C231 1.500 . S
C226 C229 1.383 . S
C226 C230 1.395 . S
C227 C228 1.396 . S
C227 C229 1.365 . S
C227 H244 0.929 . S
C228 C225 1.394 . S
C228 C227 1.396 . S
C228 H245 0.930 . S
C229 C226 1.383 . S
C229 C227 1.365 . S
C229 H246 0.931 . S
C230 C225 1.370 . S
C230 C226 1.395 . S
C230 H247 0.930 . S
C231 Gd178 2.805 . S
C231 O213 1.263 . S
C231 O214 1.252 . S
C231 C225 1.500 . S
C232 H194 0.930 . S
C232 C208 1.417 . S
C232 C233 1.329 . S
C233 C203 1.437 . S
C233 H204 0.929 . S
C233 C232 1.329 . S
H234 C207 0.931 . S
C235 O217 1.265 . S
C235 O218 1.242 . S
C236 O221 1.261 . S
C236 O222 1.252 . S
C237 C240 1.394 . S
C237 C242 1.370 . S
C237 C243 1.500 . S
C238 C241 1.383 . S
C238 C242 1.395 . S
C239 C240 1.396 . S
C239 C241 1.365 . S
C239 H248 0.929 . S
C240 C237 1.394 . S
C240 C239 1.396 . S
C240 H249 0.930 . S
C241 C238 1.383 . S
C241 C239 1.365 . S
C241 H250 0.931 . S
C242 C237 1.370 . S
C242 C238 1.395 . S
C242 H251 0.930 . S
C243 Gd179 2.805 . S
C243 O219 1.263 . S
C243 O220 1.252 . S
C243 C237 1.500 . S
H244 C227 0.929 . S
H245 C228 0.930 . S
H246 C229 0.931 . S
H247 C230 0.930 . S
H248 C239 0.929 . S
H249 C240 0.930 . S
H250 C241 0.931 . S
H251 C242 0.930 . S
C252 C254 1.422 . S
C252 C256 1.415 . S
C252 N258 1.369 . S
C253 C254 1.421 . S
C253 C255 1.417 . S
C253 C265 1.422 . S
C254 C252 1.422 . S
C254 C253 1.421 . S
C254 N264 1.359 . S
C255 C253 1.417 . S
C255 C257 1.329 . S
C255 H274 0.930 . S
C256 C252 1.415 . S
C256 C257 1.437 . S
C256 C260 1.413 . S
C257 C255 1.329 . S
C257 C256 1.437 . S
C257 H279 0.929 . S
N258 C252 1.369 . S
N258 C259 1.338 . S
N258 Gd263 2.622 . S
C259 N258 1.338 . S
C259 C261 1.378 . S
C259 H271 0.929 . S
C260 C256 1.413 . S
C260 C261 1.348 . S
C260 H276 0.931 . S
C261 C259 1.378 . S
C261 C260 1.348 . S
C261 H277 0.930 . S
Gd262 N282 2.622 . S
Gd262 N289 2.570 . S
Gd262 O296 2.353 . S
Gd262 O297 2.468 . S
Gd262 O298 2.427 . S
Gd262 O300 2.388 . S
Gd262 O301 2.386 . S
Gd262 O305 2.307 . S
Gd262 C315 2.805 . S
Gd263 N258 2.622 . S
Gd263 N264 2.570 . S
Gd263 O295 2.386 . S
Gd263 O299 2.307 . S
Gd263 O302 2.353 . S
Gd263 O303 2.468 . S
Gd263 O304 2.427 . S
Gd263 O306 2.388 . S
Gd263 C327 2.805 . S
N264 C254 1.359 . S
N264 Gd263 2.570 . S
N264 C266 1.343 . S
C265 C253 1.422 . S
C265 C267 1.321 . S
C265 H273 0.931 . S
C266 N264 1.343 . S
C266 C267 1.390 . S
C266 H268 0.931 . S
C267 C265 1.321 . S
C267 C266 1.390 . S
C267 H269 0.930 . S
H268 C266 0.931 . S
H269 C267 0.930 . S
H270 C293 0.931 . S
H271 C259 0.929 . S
H272 C294 0.930 . S
H273 C265 0.931 . S
H274 C255 0.930 . S
H275 C284 0.929 . S
H276 C260 0.931 . S
H277 C261 0.930 . S
H278 C316 0.930 . S
H279 C257 0.929 . S
H280 C285 0.931 . S
H281 C286 0.930 . S
N282 Gd262 2.622 . S
N282 C283 1.369 . S
N282 C284 1.338 . S
C283 N282 1.369 . S
C283 C287 1.415 . S
C283 C290 1.422 . S
C284 H275 0.929 . S
C284 N282 1.338 . S
C284 C286 1.378 . S
C285 H280 0.931 . S
C285 C286 1.348 . S
C285 C287 1.413 . S
C286 H281 0.930 . S
C286 C284 1.378 . S
C286 C285 1.348 . S
C287 C283 1.415 . S
C287 C285 1.413 . S
C287 C317 1.437 . S
H288 C317 0.929 . S
N289 Gd262 2.570 . S
N289 C290 1.359 . S
N289 C293 1.343 . S
C290 C283 1.422 . S
C290 N289 1.359 . S
C290 C292 1.421 . S
C291 C292 1.422 . S
C291 C294 1.321 . S
C291 H318 0.931 . S
C292 C290 1.421 . S
C292 C291 1.422 . S
C292 C316 1.417 . S
C293 H270 0.931 . S
C293 N289 1.343 . S
C293 C294 1.390 . S
C294 H272 0.930 . S
C294 C291 1.321 . S
C294 C293 1.390 . S
O295 Gd263 2.386 . S
O295 C307 1.265 . S
O296 Gd262 2.353 . S
O296 C307 1.242 . S
O297 Gd262 2.468 . S
O297 C315 1.263 . S
O298 Gd262 2.427 . S
O298 C315 1.252 . S
O299 Gd263 2.307 . S
O299 C308 1.261 . S
O300 Gd262 2.388 . S
O300 C308 1.252 . S
O301 Gd262 2.386 . S
O301 C319 1.265 . S
O302 Gd263 2.353 . S
O302 C319 1.242 . S
O303 Gd263 2.468 . S
O303 C327 1.263 . S
O304 Gd263 2.427 . S
O304 C327 1.252 . S
O305 Gd262 2.307 . S
O305 C320 1.261 . S
O306 Gd263 2.388 . S
O306 C320 1.252 . S
C307 O295 1.265 . S
C307 O296 1.242 . S
C308 O299 1.261 . S
C308 O300 1.252 . S
C309 C312 1.394 . S
C309 C314 1.370 . S
C309 C315 1.500 . S
C310 C313 1.383 . S
C310 C314 1.395 . S
C311 C312 1.396 . S
C311 C313 1.365 . S
C311 H328 0.929 . S
C312 C309 1.394 . S
C312 C311 1.396 . S
C312 H329 0.930 . S
C313 C310 1.383 . S
C313 C311 1.365 . S
C313 H330 0.931 . S
C314 C309 1.370 . S
C314 C310 1.395 . S
C314 H331 0.930 . S
C315 Gd262 2.805 . S
C315 O297 1.263 . S
C315 O298 1.252 . S
C315 C309 1.500 . S
C316 H278 0.930 . S
C316 C292 1.417 . S
C316 C317 1.329 . S
C317 C287 1.437 . S
C317 H288 0.929 . S
C317 C316 1.329 . S
H318 C291 0.931 . S
C319 O301 1.265 . S
C319 O302 1.242 . S
C320 O305 1.261 . S
C320 O306 1.252 . S
C321 C324 1.394 . S
C321 C326 1.370 . S
C321 C327 1.500 . S
C322 C325 1.383 . S
C322 C326 1.395 . S
C323 C324 1.396 . S
C323 C325 1.365 . S
C323 H332 0.929 . S
C324 C321 1.394 . S
C324 C323 1.396 . S
C324 H333 0.930 . S
C325 C322 1.383 . S
C325 C323 1.365 . S
C325 H334 0.931 . S
C326 C321 1.370 . S
C326 C322 1.395 . S
C326 H335 0.930 . S
C327 Gd263 2.805 . S
C327 O303 1.263 . S
C327 O304 1.252 . S
C327 C321 1.500 . S
H328 C311 0.929 . S
H329 C312 0.930 . S
H330 C313 0.931 . S
H331 C314 0.930 . S
H332 C323 0.929 . S
H333 C324 0.930 . S
H334 C325 0.931 . S
H335 C326 0.930 . S
C336 C338 1.422 . S
C336 C340 1.415 . S
C336 N342 1.369 . S
C337 C338 1.421 . S
C337 C339 1.417 . S
C337 C349 1.422 . S
C338 C336 1.422 . S
C338 C337 1.421 . S
C338 N348 1.359 . S
C339 C337 1.417 . S
C339 C341 1.329 . S
C339 H358 0.930 . S
C340 C336 1.415 . S
C340 C341 1.437 . S
C340 C344 1.413 . S
C341 C339 1.329 . S
C341 C340 1.437 . S
C341 H363 0.929 . S
N342 C336 1.369 . S
N342 C343 1.338 . S
N342 Gd347 2.622 . S
C343 N342 1.338 . S
C343 C345 1.378 . S
C343 H355 0.929 . S
C344 C340 1.413 . S
C344 C345 1.348 . S
C344 H360 0.931 . S
C345 C343 1.378 . S
C345 C344 1.348 . S
C345 H361 0.930 . S
Gd346 N366 2.622 . S
Gd346 N373 2.570 . S
Gd346 O380 2.353 . S
Gd346 O381 2.468 . S
Gd346 O382 2.427 . S
Gd346 O384 2.388 . S
Gd346 O385 2.386 . S
Gd346 O389 2.307 . S
Gd346 C399 2.805 . S
Gd347 N342 2.622 . S
Gd347 N348 2.570 . S
Gd347 O379 2.386 . S
Gd347 O383 2.307 . S
Gd347 O386 2.353 . S
Gd347 O387 2.468 . S
Gd347 O388 2.427 . S
Gd347 O390 2.388 . S
Gd347 C411 2.805 . S
N348 C338 1.359 . S
N348 Gd347 2.570 . S
N348 C350 1.343 . S
C349 C337 1.422 . S
C349 C351 1.321 . S
C349 H357 0.931 . S
C350 N348 1.343 . S
C350 C351 1.390 . S
C350 H352 0.931 . S
C351 C349 1.321 . S
C351 C350 1.390 . S
C351 H353 0.930 . S
H352 C350 0.931 . S
H353 C351 0.930 . S
H354 C377 0.931 . S
H355 C343 0.929 . S
H356 C378 0.930 . S
H357 C349 0.931 . S
H358 C339 0.930 . S
H359 C368 0.929 . S
H360 C344 0.931 . S
H361 C345 0.930 . S
H362 C400 0.930 . S
H363 C341 0.929 . S
H364 C369 0.931 . S
H365 C370 0.930 . S
N366 Gd346 2.622 . S
N366 C367 1.369 . S
N366 C368 1.338 . S
C367 N366 1.369 . S
C367 C371 1.415 . S
C367 C374 1.422 . S
C368 H359 0.929 . S
C368 N366 1.338 . S
C368 C370 1.378 . S
C369 H364 0.931 . S
C369 C370 1.348 . S
C369 C371 1.413 . S
C370 H365 0.930 . S
C370 C368 1.378 . S
C370 C369 1.348 . S
C371 C367 1.415 . S
C371 C369 1.413 . S
C371 C401 1.437 . S
H372 C401 0.929 . S
N373 Gd346 2.570 . S
N373 C374 1.359 . S
N373 C377 1.343 . S
C374 C367 1.422 . S
C374 N373 1.359 . S
C374 C376 1.421 . S
C375 C376 1.422 . S
C375 C378 1.321 . S
C375 H402 0.931 . S
C376 C374 1.421 . S
C376 C375 1.422 . S
C376 C400 1.417 . S
C377 H354 0.931 . S
C377 N373 1.343 . S
C377 C378 1.390 . S
C378 H356 0.930 . S
C378 C375 1.321 . S
C378 C377 1.390 . S
O379 Gd347 2.386 . S
O379 C391 1.265 . S
O380 Gd346 2.353 . S
O380 C391 1.242 . S
O381 Gd346 2.468 . S
O381 C399 1.263 . S
O382 Gd346 2.427 . S
O382 C399 1.252 . S
O383 Gd347 2.307 . S
O383 C392 1.261 . S
O384 Gd346 2.388 . S
O384 C392 1.252 . S
O385 Gd346 2.386 . S
O385 C403 1.265 . S
O386 Gd347 2.353 . S
O386 C403 1.242 . S
O387 Gd347 2.468 . S
O387 C411 1.263 . S
O388 Gd347 2.427 . S
O388 C411 1.252 . S
O389 Gd346 2.307 . S
O389 C404 1.261 . S
O390 Gd347 2.388 . S
O390 C404 1.252 . S
C391 O379 1.265 . S
C391 O380 1.242 . S
C392 O383 1.261 . S
C392 O384 1.252 . S
C393 C396 1.394 . S
C393 C398 1.370 . S
C393 C399 1.500 . S
C394 C397 1.383 . S
C394 C398 1.395 . S
C395 C396 1.396 . S
C395 C397 1.365 . S
C395 H412 0.929 . S
C396 C393 1.394 . S
C396 C395 1.396 . S
C396 H413 0.930 . S
C397 C394 1.383 . S
C397 C395 1.365 . S
C397 H414 0.931 . S
C398 C393 1.370 . S
C398 C394 1.395 . S
C398 H415 0.930 . S
C399 Gd346 2.805 . S
C399 O381 1.263 . S
C399 O382 1.252 . S
C399 C393 1.500 . S
C400 H362 0.930 . S
C400 C376 1.417 . S
C400 C401 1.329 . S
C401 C371 1.437 . S
C401 H372 0.929 . S
C401 C400 1.329 . S
H402 C375 0.931 . S
C403 O385 1.265 . S
C403 O386 1.242 . S
C404 O389 1.261 . S
C404 O390 1.252 . S
C405 C408 1.394 . S
C405 C410 1.370 . S
C405 C411 1.500 . S
C406 C409 1.383 . S
C406 C410 1.395 . S
C407 C408 1.396 . S
C407 C409 1.365 . S
C407 H416 0.929 . S
C408 C405 1.394 . S
C408 C407 1.396 . S
C408 H417 0.930 . S
C409 C406 1.383 . S
C409 C407 1.365 . S
C409 H418 0.931 . S
C410 C405 1.370 . S
C410 C406 1.395 . S
C410 H419 0.930 . S
C411 Gd347 2.805 . S
C411 O387 1.263 . S
C411 O388 1.252 . S
C411 C405 1.500 . S
H412 C395 0.929 . S
H413 C396 0.930 . S
H414 C397 0.931 . S
H415 C398 0.930 . S
H416 C407 0.929 . S
H417 C408 0.930 . S
H418 C409 0.931 . S
H419 C410 0.930 . S
C420 C422 1.422 . S
C420 C424 1.415 . S
C420 N426 1.369 . S
C421 C422 1.421 . S
C421 C423 1.417 . S
C421 C433 1.422 . S
C422 C420 1.422 . S
C422 C421 1.421 . S
C422 N432 1.359 . S
C423 C421 1.417 . S
C423 C425 1.329 . S
C423 H442 0.930 . S
C424 C420 1.415 . S
C424 C425 1.437 . S
C424 C428 1.413 . S
C425 C423 1.329 . S
C425 C424 1.437 . S
C425 H447 0.929 . S
N426 C420 1.369 . S
N426 C427 1.338 . S
N426 Gd431 2.622 . S
C427 N426 1.338 . S
C427 C429 1.378 . S
C427 H439 0.929 . S
C428 C424 1.413 . S
C428 C429 1.348 . S
C428 H444 0.931 . S
C429 C427 1.378 . S
C429 C428 1.348 . S
C429 H445 0.930 . S
Gd430 N450 2.622 . S
Gd430 N457 2.570 . S
Gd430 O464 2.353 . S
Gd430 O465 2.468 . S
Gd430 O466 2.427 . S
Gd430 O468 2.388 . S
Gd430 O469 2.386 . S
Gd430 O473 2.307 . S
Gd430 C483 2.805 . S
Gd431 N426 2.622 . S
Gd431 N432 2.570 . S
Gd431 O463 2.386 . S
Gd431 O467 2.307 . S
Gd431 O470 2.353 . S
Gd431 O471 2.468 . S
Gd431 O472 2.427 . S
Gd431 O474 2.388 . S
Gd431 C495 2.805 . S
N432 C422 1.359 . S
N432 Gd431 2.570 . S
N432 C434 1.343 . S
C433 C421 1.422 . S
C433 C435 1.321 . S
C433 H441 0.931 . S
C434 N432 1.343 . S
C434 C435 1.390 . S
C434 H436 0.931 . S
C435 C433 1.321 . S
C435 C434 1.390 . S
C435 H437 0.930 . S
H436 C434 0.931 . S
H437 C435 0.930 . S
H438 C461 0.931 . S
H439 C427 0.929 . S
H440 C462 0.930 . S
H441 C433 0.931 . S
H442 C423 0.930 . S
H443 C452 0.929 . S
H444 C428 0.931 . S
H445 C429 0.930 . S
H446 C484 0.930 1_554 S
H447 C425 0.929 . S
H448 C453 0.931 . S
H449 C454 0.930 . S
N450 Gd430 2.622 . S
N450 C451 1.369 . S
N450 C452 1.338 . S
C451 N450 1.369 . S
C451 C455 1.415 . S
C451 C458 1.422 . S
C452 H443 0.929 . S
C452 N450 1.338 . S
C452 C454 1.378 . S
C453 H448 0.931 . S
C453 C454 1.348 . S
C453 C455 1.413 . S
C454 H449 0.930 . S
C454 C452 1.378 . S
C454 C453 1.348 . S
C455 C451 1.415 . S
C455 C453 1.413 . S
C455 C485 1.437 . S
H456 C485 0.929 . S
N457 Gd430 2.570 . S
N457 C458 1.359 . S
N457 C461 1.343 . S
C458 C451 1.422 . S
C458 N457 1.359 . S
C458 C460 1.421 . S
C459 C460 1.422 . S
C459 C462 1.321 . S
C459 H486 0.931 1_556 S
C460 C458 1.421 . S
C460 C459 1.422 . S
C460 C484 1.417 . S
C461 H438 0.931 . S
C461 N457 1.343 . S
C461 C462 1.390 . S
C462 H440 0.930 . S
C462 C459 1.321 . S
C462 C461 1.390 . S
O463 Gd431 2.386 . S
O463 C475 1.265 . S
O464 Gd430 2.353 . S
O464 C475 1.242 . S
O465 Gd430 2.468 . S
O465 C483 1.263 . S
O466 Gd430 2.427 . S
O466 C483 1.252 . S
O467 Gd431 2.307 . S
O467 C476 1.261 . S
O468 Gd430 2.388 . S
O468 C476 1.252 . S
O469 Gd430 2.386 . S
O469 C487 1.265 . S
O470 Gd431 2.353 . S
O470 C487 1.242 . S
O471 Gd431 2.468 . S
O471 C495 1.263 . S
O472 Gd431 2.427 . S
O472 C495 1.252 . S
O473 Gd430 2.307 . S
O473 C488 1.261 . S
O474 Gd431 2.388 . S
O474 C488 1.252 . S
C475 O463 1.265 . S
C475 O464 1.242 . S
C476 O467 1.261 . S
C476 O468 1.252 . S
C477 C480 1.394 . S
C477 C482 1.370 . S
C477 C483 1.500 . S
C478 C481 1.383 . S
C478 C482 1.395 . S
C479 C480 1.396 . S
C479 C481 1.365 . S
C479 H496 0.929 . S
C480 C477 1.394 . S
C480 C479 1.396 . S
C480 H497 0.930 . S
C481 C478 1.383 . S
C481 C479 1.365 . S
C481 H498 0.931 . S
C482 C477 1.370 . S
C482 C478 1.395 . S
C482 H499 0.930 . S
C483 Gd430 2.805 . S
C483 O465 1.263 . S
C483 O466 1.252 . S
C483 C477 1.500 . S
C484 H446 0.930 1_556 S
C484 C460 1.417 . S
C484 C485 1.329 . S
C485 C455 1.437 . S
C485 H456 0.929 . S
C485 C484 1.329 . S
H486 C459 0.931 1_554 S
C487 O469 1.265 . S
C487 O470 1.242 . S
C488 O473 1.261 . S
C488 O474 1.252 . S
C489 C492 1.394 . S
C489 C494 1.370 . S
C489 C495 1.500 . S
C490 C493 1.383 . S
C490 C494 1.395 . S
C491 C492 1.396 . S
C491 C493 1.365 . S
C491 H500 0.929 . S
C492 C489 1.394 . S
C492 C491 1.396 . S
C492 H501 0.930 . S
C493 C490 1.383 . S
C493 C491 1.365 . S
C493 H502 0.931 . S
C494 C489 1.370 . S
C494 C490 1.395 . S
C494 H503 0.930 . S
C495 Gd431 2.805 . S
C495 O471 1.263 . S
C495 O472 1.252 . S
C495 C489 1.500 . S
H496 C479 0.929 . S
H497 C480 0.930 . S
H498 C481 0.931 . S
H499 C482 0.930 . S
H500 C491 0.929 . S
H501 C492 0.930 . S
H502 C493 0.931 . S
H503 C494 0.930 . S
C504 C506 1.422 . S
C504 C508 1.415 . S
C504 N510 1.369 . S
C505 C506 1.421 . S
C505 C507 1.417 . S
C505 C517 1.422 . S
C506 C504 1.422 . S
C506 C505 1.421 . S
C506 N516 1.359 . S
C507 C505 1.417 . S
C507 C509 1.329 . S
C507 H526 0.930 . S
C508 C504 1.415 . S
C508 C509 1.437 . S
C508 C512 1.413 . S
C509 C507 1.329 . S
C509 C508 1.437 . S
C509 H531 0.929 . S
N510 C504 1.369 . S
N510 C511 1.338 . S
N510 Gd515 2.622 . S
C511 N510 1.338 . S
C511 C513 1.378 . S
C511 H523 0.929 . S
C512 C508 1.413 . S
C512 C513 1.348 . S
C512 H528 0.931 . S
C513 C511 1.378 . S
C513 C512 1.348 . S
C513 H529 0.930 . S
Gd514 N534 2.622 . S
Gd514 N541 2.570 . S
Gd514 O548 2.353 . S
Gd514 O549 2.468 . S
Gd514 O550 2.427 . S
Gd514 O552 2.388 . S
Gd514 O553 2.386 . S
Gd514 O557 2.307 . S
Gd514 C567 2.805 . S
Gd515 N510 2.622 . S
Gd515 N516 2.570 . S
Gd515 O547 2.386 . S
Gd515 O551 2.307 . S
Gd515 O554 2.353 . S
Gd515 O555 2.468 . S
Gd515 O556 2.427 . S
Gd515 O558 2.388 . S
Gd515 C579 2.805 . S
N516 C506 1.359 . S
N516 Gd515 2.570 . S
N516 C518 1.343 . S
C517 C505 1.422 . S
C517 C519 1.321 . S
C517 H525 0.931 . S
C518 N516 1.343 . S
C518 C519 1.390 . S
C518 H520 0.931 . S
C519 C517 1.321 . S
C519 C518 1.390 . S
C519 H521 0.930 . S
H520 C518 0.931 . S
H521 C519 0.930 . S
H522 C545 0.931 . S
H523 C511 0.929 . S
H524 C546 0.930 . S
H525 C517 0.931 . S
H526 C507 0.930 . S
H527 C536 0.929 . S
H528 C512 0.931 . S
H529 C513 0.930 . S
H530 C568 0.930 . S
H531 C509 0.929 . S
H532 C537 0.931 . S
H533 C538 0.930 . S
N534 Gd514 2.622 . S
N534 C535 1.369 . S
N534 C536 1.338 . S
C535 N534 1.369 . S
C535 C539 1.415 . S
C535 C542 1.422 . S
C536 H527 0.929 . S
C536 N534 1.338 . S
C536 C538 1.378 . S
C537 H532 0.931 . S
C537 C538 1.348 . S
C537 C539 1.413 . S
C538 H533 0.930 . S
C538 C536 1.378 . S
C538 C537 1.348 . S
C539 C535 1.415 . S
C539 C537 1.413 . S
C539 C569 1.437 . S
H540 C569 0.929 . S
N541 Gd514 2.570 . S
N541 C542 1.359 . S
N541 C545 1.343 . S
C542 C535 1.422 . S
C542 N541 1.359 . S
C542 C544 1.421 . S
C543 C544 1.422 . S
C543 C546 1.321 . S
C543 H570 0.931 . S
C544 C542 1.421 . S
C544 C543 1.422 . S
C544 C568 1.417 . S
C545 H522 0.931 . S
C545 N541 1.343 . S
C545 C546 1.390 . S
C546 H524 0.930 . S
C546 C543 1.321 . S
C546 C545 1.390 . S
O547 Gd515 2.386 . S
O547 C559 1.265 . S
O548 Gd514 2.353 . S
O548 C559 1.242 . S
O549 Gd514 2.468 . S
O549 C567 1.263 . S
O550 Gd514 2.427 . S
O550 C567 1.252 . S
O551 Gd515 2.307 . S
O551 C560 1.261 . S
O552 Gd514 2.388 . S
O552 C560 1.252 . S
O553 Gd514 2.386 . S
O553 C571 1.265 . S
O554 Gd515 2.353 . S
O554 C571 1.242 . S
O555 Gd515 2.468 . S
O555 C579 1.263 . S
O556 Gd515 2.427 . S
O556 C579 1.252 . S
O557 Gd514 2.307 . S
O557 C572 1.261 . S
O558 Gd515 2.388 . S
O558 C572 1.252 . S
C559 O547 1.265 . S
C559 O548 1.242 . S
C560 O551 1.261 . S
C560 O552 1.252 . S
C561 C564 1.394 . S
C561 C566 1.370 . S
C561 C567 1.500 . S
C562 C565 1.383 . S
C562 C566 1.395 . S
C563 C564 1.396 . S
C563 C565 1.365 . S
C563 H580 0.929 . S
C564 C561 1.394 . S
C564 C563 1.396 . S
C564 H581 0.930 . S
C565 C562 1.383 . S
C565 C563 1.365 . S
C565 H582 0.931 . S
C566 C561 1.370 . S
C566 C562 1.395 . S
C566 H583 0.930 . S
C567 Gd514 2.805 . S
C567 O549 1.263 . S
C567 O550 1.252 . S
C567 C561 1.500 . S
C568 H530 0.930 . S
C568 C544 1.417 . S
C568 C569 1.329 . S
C569 C539 1.437 . S
C569 H540 0.929 . S
C569 C568 1.329 . S
H570 C543 0.931 . S
C571 O553 1.265 . S
C571 O554 1.242 . S
C572 O557 1.261 . S
C572 O558 1.252 . S
C573 C576 1.394 . S
C573 C578 1.370 . S
C573 C579 1.500 . S
C574 C577 1.383 . S
C574 C578 1.395 . S
C575 C576 1.396 . S
C575 C577 1.365 . S
C575 H584 0.929 . S
C576 C573 1.394 . S
C576 C575 1.396 . S
C576 H585 0.930 . S
C577 C574 1.383 . S
C577 C575 1.365 . S
C577 H586 0.931 . S
C578 C573 1.370 . S
C578 C574 1.395 . S
C578 H587 0.930 . S
C579 Gd515 2.805 . S
C579 O555 1.263 . S
C579 O556 1.252 . S
C579 C573 1.500 . S
H580 C563 0.929 . S
H581 C564 0.930 . S
H582 C565 0.931 . S
H583 C566 0.930 . S
H584 C575 0.929 . S
H585 C576 0.930 . S
H586 C577 0.931 . S
H587 C578 0.930 . S
C588 C590 1.422 . S
C588 C592 1.415 . S
C588 N594 1.369 . S
C589 C590 1.421 . S
C589 C591 1.417 . S
C589 C601 1.422 . S
C590 C588 1.422 . S
C590 C589 1.421 . S
C590 N600 1.359 . S
C591 C589 1.417 . S
C591 C593 1.329 . S
C591 H610 0.930 1_556 S
C592 C588 1.415 . S
C592 C593 1.437 . S
C592 C596 1.413 . S
C593 C591 1.329 . S
C593 C592 1.437 . S
C593 H615 0.929 . S
N594 C588 1.369 . S
N594 C595 1.338 . S
N594 Gd599 2.622 . S
C595 N594 1.338 . S
C595 C597 1.378 . S
C595 H607 0.929 . S
C596 C592 1.413 . S
C596 C597 1.348 . S
C596 H612 0.931 . S
C597 C595 1.378 . S
C597 C596 1.348 . S
C597 H613 0.930 . S
Gd598 N618 2.622 . S
Gd598 N625 2.570 . S
Gd598 O632 2.353 . S
Gd598 O633 2.468 . S
Gd598 O634 2.427 . S
Gd598 O636 2.388 . S
Gd598 O637 2.386 . S
Gd598 O641 2.307 . S
Gd598 C651 2.805 . S
Gd599 N594 2.622 . S
Gd599 N600 2.570 . S
Gd599 O631 2.386 . S
Gd599 O635 2.307 . S
Gd599 O638 2.353 . S
Gd599 O639 2.468 . S
Gd599 O640 2.427 . S
Gd599 O642 2.388 . S
Gd599 C663 2.805 . S
N600 C590 1.359 . S
N600 Gd599 2.570 . S
N600 C602 1.343 . S
C601 C589 1.422 . S
C601 C603 1.321 . S
C601 H609 0.931 1_556 S
C602 N600 1.343 . S
C602 C603 1.390 . S
C602 H604 0.931 . S
C603 C601 1.321 . S
C603 C602 1.390 . S
C603 H605 0.930 . S
H604 C602 0.931 . S
H605 C603 0.930 . S
H606 C629 0.931 . S
H607 C595 0.929 . S
H608 C630 0.930 . S
H609 C601 0.931 1_554 S
H610 C591 0.930 1_554 S
H611 C620 0.929 . S
H612 C596 0.931 . S
H613 C597 0.930 . S
H614 C652 0.930 . S
H615 C593 0.929 . S
H616 C621 0.931 . S
H617 C622 0.930 . S
N618 Gd598 2.622 . S
N618 C619 1.369 . S
N618 C620 1.338 . S
C619 N618 1.369 . S
C619 C623 1.415 . S
C619 C626 1.422 . S
C620 H611 0.929 . S
C620 N618 1.338 . S
C620 C622 1.378 . S
C621 H616 0.931 . S
C621 C622 1.348 . S
C621 C623 1.413 . S
C622 H617 0.930 . S
C622 C620 1.378 . S
C622 C621 1.348 . S
C623 C619 1.415 . S
C623 C621 1.413 . S
C623 C653 1.437 . S
H624 C653 0.929 . S
N625 Gd598 2.570 . S
N625 C626 1.359 . S
N625 C629 1.343 . S
C626 C619 1.422 . S
C626 N625 1.359 . S
C626 C628 1.421 . S
C627 C628 1.422 . S
C627 C630 1.321 . S
C627 H654 0.931 . S
C628 C626 1.421 . S
C628 C627 1.422 . S
C628 C652 1.417 . S
C629 H606 0.931 . S
C629 N625 1.343 . S
C629 C630 1.390 . S
C630 H608 0.930 . S
C630 C627 1.321 . S
C630 C629 1.390 . S
O631 Gd599 2.386 . S
O631 C643 1.265 . S
O632 Gd598 2.353 . S
O632 C643 1.242 . S
O633 Gd598 2.468 . S
O633 C651 1.263 . S
O634 Gd598 2.427 . S
O634 C651 1.252 . S
O635 Gd599 2.307 . S
O635 C644 1.261 . S
O636 Gd598 2.388 . S
O636 C644 1.252 . S
O637 Gd598 2.386 . S
O637 C655 1.265 . S
O638 Gd599 2.353 . S
O638 C655 1.242 . S
O639 Gd599 2.468 . S
O639 C663 1.263 . S
O640 Gd599 2.427 . S
O640 C663 1.252 . S
O641 Gd598 2.307 . S
O641 C656 1.261 . S
O642 Gd599 2.388 . S
O642 C656 1.252 . S
C643 O631 1.265 . S
C643 O632 1.242 . S
C644 O635 1.261 . S
C644 O636 1.252 . S
C645 C648 1.394 . S
C645 C650 1.370 . S
C645 C651 1.500 . S
C646 C649 1.383 . S
C646 C650 1.395 . S
C647 C648 1.396 . S
C647 C649 1.365 . S
C647 H664 0.929 . S
C648 C645 1.394 . S
C648 C647 1.396 . S
C648 H665 0.930 . S
C649 C646 1.383 . S
C649 C647 1.365 . S
C649 H666 0.931 . S
C650 C645 1.370 . S
C650 C646 1.395 . S
C650 H667 0.930 . S
C651 Gd598 2.805 . S
C651 O633 1.263 . S
C651 O634 1.252 . S
C651 C645 1.500 . S
C652 H614 0.930 . S
C652 C628 1.417 . S
C652 C653 1.329 . S
C653 C623 1.437 . S
C653 H624 0.929 . S
C653 C652 1.329 . S
H654 C627 0.931 . S
C655 O637 1.265 . S
C655 O638 1.242 . S
C656 O641 1.261 . S
C656 O642 1.252 . S
C657 C660 1.394 . S
C657 C662 1.370 . S
C657 C663 1.500 . S
C658 C661 1.383 . S
C658 C662 1.395 . S
C659 C660 1.396 . S
C659 C661 1.365 . S
C659 H668 0.929 . S
C660 C657 1.394 . S
C660 C659 1.396 . S
C660 H669 0.930 . S
C661 C658 1.383 . S
C661 C659 1.365 . S
C661 H670 0.931 . S
C662 C657 1.370 . S
C662 C658 1.395 . S
C662 H671 0.930 . S
C663 Gd599 2.805 . S
C663 O639 1.263 . S
C663 O640 1.252 . S
C663 C657 1.500 . S
H664 C647 0.929 . S
H665 C648 0.930 . S
H666 C649 0.931 . S
H667 C650 0.930 . S
H668 C659 0.929 . S
H669 C660 0.930 . S
H670 C661 0.931 . S
H671 C662 0.930 . S
Co672 O675 2.042 . S
Co672 O682 2.264 . S
Co672 O701 2.286 . S
Co672 O702 2.069 . S
Co672 O704 2.015 1_455 S
Co673 O675 2.122 . S
Co673 O681 2.073 . S
Co673 O682 2.327 . S
Co673 O683 1.976 1_455 S
Co674 O675 2.086 1_545 S
Co674 O677 2.088 1_455 S
Co674 O684 2.111 1_445 S
Co674 O685 2.144 . S
Co674 O689 2.112 . S
Co674 O703 2.143 1_445 S
O675 Co672 2.042 . S
O675 Co673 2.122 . S
O675 Co674 2.086 1_565 S
O675 H676 0.980 . S
H676 O675 0.980 . S
O677 Co674 2.088 1_655 S
O677 Co678 2.042 . S
O677 Co679 2.122 . S
O677 H680 0.980 . S
Co678 O677 2.042 . S
Co678 O686 2.286 . S
Co678 O687 2.069 . S
Co678 O688 2.015 1_655 S
Co678 O691 2.264 . S
Co679 O677 2.122 . S
Co679 O690 1.976 1_655 S
Co679 O691 2.327 . S
Co679 O692 2.073 . S
H680 O677 0.980 . S
O681 Co673 2.073 . S
O681 C696 1.245 . S
O682 Co672 2.264 . S
O682 Co673 2.327 . S
O682 C696 1.257 . S
O683 Co673 1.976 1_655 S
O683 C695 1.251 . S
O684 Co674 2.111 1_665 S
O684 C695 1.274 . S
O685 Co674 2.144 . S
O685 C698 1.246 . S
O686 Co678 2.286 . S
O686 C697 1.259 . S
O687 Co678 2.069 . S
O687 C697 1.289 . S
O688 Co678 2.015 1_455 S
O688 C698 1.257 . S
O689 Co674 2.112 . S
O689 C699 1.274 . S
O690 Co679 1.976 1_455 S
O690 C699 1.251 . S
O691 Co678 2.264 . S
O691 Co679 2.327 . S
O691 C700 1.257 . S
O692 Co679 2.073 . S
O692 C700 1.245 . S
C693 O701 1.259 . S
C693 O702 1.289 . S
C694 O703 1.246 . S
C694 O704 1.257 . S
C695 O683 1.251 . S
C695 O684 1.274 . S
C696 O681 1.245 . S
C696 O682 1.257 . S
C697 O686 1.259 . S
C697 O687 1.289 . S
C698 O685 1.246 . S
C698 O688 1.257 . S
C699 O689 1.274 . S
C699 O690 1.251 . S
C700 O691 1.257 . S
C700 O692 1.245 . S
O701 Co672 2.286 . S
O701 C693 1.259 . S
O702 Co672 2.069 . S
O702 C693 1.289 . S
O703 Co674 2.143 1_665 S
O703 C694 1.246 . S
O704 Co672 2.015 1_655 S
O704 C694 1.257 . S
Co705 O708 2.042 1_556 S
Co705 O715 2.264 1_556 S
Co705 O734 2.286 . S
Co705 O735 2.069 . S
Co705 O737 2.015 . S
Co706 O708 2.122 . S
Co706 O714 2.073 . S
Co706 O715 2.327 . S
Co706 O716 1.976 . S
Co707 O708 2.086 1_545 S
Co707 O710 2.088 1_554 S
Co707 O717 2.111 1_545 S
Co707 O718 2.144 . S
Co707 O722 2.112 1_554 S
Co707 O736 2.143 1_544 S
O708 Co705 2.042 1_554 S
O708 Co706 2.122 . S
O708 Co707 2.086 1_565 S
O708 H709 0.980 . S
H709 O708 0.980 . S
O710 Co707 2.088 1_556 S
O710 Co711 2.042 1_556 S
O710 Co712 2.122 . S
O710 H713 0.980 . S
Co711 O710 2.042 1_554 S
Co711 O719 2.286 . S
Co711 O720 2.069 . S
Co711 O721 2.015 . S
Co711 O724 2.264 1_554 S
Co712 O710 2.122 . S
Co712 O723 1.976 . S
Co712 O724 2.327 . S
Co712 O725 2.073 . S
H713 O710 0.980 . S
O714 Co706 2.073 . S
O714 C729 1.245 . S
O715 Co705 2.264 1_554 S
O715 Co706 2.327 . S
O715 C729 1.257 . S
O716 Co706 1.976 . S
O716 C728 1.251 . S
O717 Co707 2.111 1_565 S
O717 C728 1.274 . S
O718 Co707 2.144 . S
O718 C731 1.246 . S
O719 Co711 2.286 . S
O719 C730 1.259 . S
O720 Co711 2.069 . S
O720 C730 1.289 . S
O721 Co711 2.015 . S
O721 C731 1.257 . S
O722 Co707 2.112 1_556 S
O722 C732 1.274 . S
O723 Co712 1.976 . S
O723 C732 1.251 . S
O724 Co711 2.264 1_556 S
O724 Co712 2.327 . S
O724 C733 1.257 . S
O725 Co712 2.073 . S
O725 C733 1.245 . S
C726 O734 1.259 . S
C726 O735 1.289 . S
C727 O736 1.246 . S
C727 O737 1.257 . S
C728 O716 1.251 . S
C728 O717 1.274 . S
C729 O714 1.245 . S
C729 O715 1.257 . S
C730 O719 1.259 . S
C730 O720 1.289 . S
C731 O718 1.246 . S
C731 O721 1.257 . S
C732 O722 1.274 . S
C732 O723 1.251 . S
C733 O724 1.257 . S
C733 O725 1.245 . S
O734 Co705 2.286 . S
O734 C726 1.259 . S
O735 Co705 2.069 . S
O735 C726 1.289 . S
O736 Co707 2.143 1_566 S
O736 C727 1.246 . S
O737 Co705 2.015 . S
O737 C727 1.257 . S
Co738 O741 2.042 1_556 S
Co738 O748 2.264 1_556 S
Co738 O767 2.286 . S
Co738 O768 2.069 . S
Co738 O770 2.015 1_455 S
Co739 O741 2.122 . S
Co739 O747 2.073 . S
Co739 O748 2.327 . S
Co739 O749 1.976 1_455 S
Co740 O741 2.087 . S
Co740 O743 2.087 1_454 S
Co740 O750 2.111 1_455 S
Co740 O751 2.144 . S
Co740 O755 2.111 1_554 S
Co740 O769 2.143 1_454 S
O741 Co738 2.042 1_554 S
O741 Co739 2.122 . S
O741 Co740 2.087 . S
O741 H742 0.980 . S
H742 O741 0.980 . S
O743 Co740 2.087 1_656 S
O743 Co744 2.042 1_556 S
O743 Co745 2.122 . S
O743 H746 0.980 . S
Co744 O743 2.042 1_554 S
Co744 O752 2.286 . S
Co744 O753 2.069 . S
Co744 O754 2.015 1_655 S
Co744 O757 2.264 1_554 S
Co745 O743 2.122 . S
Co745 O756 1.976 1_655 S
Co745 O757 2.327 . S
Co745 O758 2.073 . S
H746 O743 0.980 . S
O747 Co739 2.073 . S
O747 C762 1.245 . S
O748 Co738 2.264 1_554 S
O748 Co739 2.327 . S
O748 C762 1.257 . S
O749 Co739 1.976 1_655 S
O749 C761 1.251 . S
O750 Co740 2.111 1_655 S
O750 C761 1.274 . S
O751 Co740 2.144 . S
O751 C764 1.246 . S
O752 Co744 2.286 . S
O752 C763 1.259 . S
O753 Co744 2.069 . S
O753 C763 1.289 . S
O754 Co744 2.015 1_455 S
O754 C764 1.257 . S
O755 Co740 2.111 1_556 S
O755 C765 1.274 . S
O756 Co745 1.976 1_455 S
O756 C765 1.251 . S
O757 Co744 2.264 1_556 S
O757 Co745 2.327 . S
O757 C766 1.257 . S
O758 Co745 2.073 . S
O758 C766 1.245 . S
C759 O767 1.259 . S
C759 O768 1.289 . S
C760 O769 1.246 . S
C760 O770 1.257 . S
C761 O749 1.251 . S
C761 O750 1.274 . S
C762 O747 1.245 . S
C762 O748 1.257 . S
C763 O752 1.259 . S
C763 O753 1.289 . S
C764 O751 1.246 . S
C764 O754 1.257 . S
C765 O755 1.274 . S
C765 O756 1.251 . S
C766 O757 1.257 . S
C766 O758 1.245 . S
O767 Co738 2.286 . S
O767 C759 1.259 . S
O768 Co738 2.069 . S
O768 C759 1.289 . S
O769 Co740 2.143 1_656 S
O769 C760 1.246 . S
O770 Co738 2.015 1_655 S
O770 C760 1.257 . S
Co771 O774 2.042 1_556 S
Co771 O781 2.264 1_556 S
Co771 O800 2.286 . S
Co771 O801 2.069 . S
Co771 O803 2.015 . S
Co772 O774 2.122 . S
Co772 O780 2.073 . S
Co772 O781 2.327 . S
Co772 O782 1.976 . S
Co773 O774 2.087 . S
Co773 O776 2.087 1_554 S
Co773 O783 2.111 . S
Co773 O784 2.143 . S
Co773 O788 2.111 1_554 S
Co773 O802 2.143 1_554 S
O774 Co771 2.042 1_554 S
O774 Co772 2.122 . S
O774 Co773 2.087 . S
O774 H775 0.980 . S
H775 O774 0.980 . S
O776 Co773 2.087 1_556 S
O776 Co777 2.042 1_556 S
O776 Co778 2.122 . S
O776 H779 0.980 . S
Co777 O776 2.042 1_554 S
Co777 O785 2.286 . S
Co777 O786 2.069 . S
Co777 O787 2.015 . S
Co777 O790 2.264 1_554 S
Co778 O776 2.122 . S
Co778 O789 1.976 . S
Co778 O790 2.327 . S
Co778 O791 2.073 . S
H779 O776 0.980 . S
O780 Co772 2.073 . S
O780 C795 1.245 . S
O781 Co771 2.264 1_554 S
O781 Co772 2.327 . S
O781 C795 1.257 . S
O782 Co772 1.976 . S
O782 C794 1.251 . S
O783 Co773 2.111 . S
O783 C794 1.274 . S
O784 Co773 2.143 . S
O784 C797 1.246 . S
O785 Co777 2.286 . S
O785 C796 1.259 . S
O786 Co777 2.069 . S
O786 C796 1.289 . S
O787 Co777 2.015 . S
O787 C797 1.257 . S
O788 Co773 2.111 1_556 S
O788 C798 1.274 . S
O789 Co778 1.976 . S
O789 C798 1.251 . S
O790 Co777 2.264 1_556 S
O790 Co778 2.327 . S
O790 C799 1.257 . S
O791 Co778 2.073 . S
O791 C799 1.245 . S
C792 O800 1.259 . S
C792 O801 1.289 . S
C793 O802 1.246 . S
C793 O803 1.257 . S
C794 O782 1.251 . S
C794 O783 1.274 . S
C795 O780 1.245 . S
C795 O781 1.257 . S
C796 O785 1.259 . S
C796 O786 1.289 . S
C797 O784 1.246 . S
C797 O787 1.257 . S
C798 O788 1.274 . S
C798 O789 1.251 . S
C799 O790 1.257 . S
C799 O791 1.245 . S
O800 Co771 2.286 . S
O800 C792 1.259 . S
O801 Co771 2.069 . S
O801 C792 1.289 . S
O802 Co773 2.143 1_556 S
O802 C793 1.246 . S
O803 Co771 2.015 . S
O803 C793 1.257 . S
Co804 O807 2.042 . S
Co804 O814 2.264 . S
Co804 O833 2.286 . S
Co804 O834 2.069 . S
Co804 O836 2.015 . S
Co805 O807 2.122 . S
Co805 O813 2.073 . S
Co805 O814 2.327 . S
Co805 O815 1.976 . S
Co806 O807 2.087 . S
Co806 O809 2.087 1_455 S
Co806 O816 2.111 . S
Co806 O817 2.143 1_455 S
Co806 O821 2.111 1_455 S
Co806 O835 2.144 . S
O807 Co804 2.042 . S
O807 Co805 2.122 . S
O807 Co806 2.087 . S
O807 H808 0.980 . S
H808 O807 0.980 . S
O809 Co806 2.087 1_655 S
O809 Co810 2.042 . S
O809 Co811 2.122 . S
O809 H812 0.980 . S
Co810 O809 2.042 . S
Co810 O818 2.286 . S
Co810 O819 2.069 . S
Co810 O820 2.015 . S
Co810 O823 2.264 . S
Co811 O809 2.122 . S
Co811 O822 1.976 . S
Co811 O823 2.327 . S
Co811 O824 2.073 . S
H812 O809 0.980 . S
O813 Co805 2.073 . S
O813 C828 1.245 . S
O814 Co804 2.264 . S
O814 Co805 2.327 . S
O814 C828 1.257 . S
O815 Co805 1.976 . S
O815 C827 1.251 . S
O816 Co806 2.111 . S
O816 C827 1.274 . S
O817 Co806 2.143 1_655 S
O817 C830 1.246 . S
O818 Co810 2.286 . S
O818 C829 1.259 . S
O819 Co810 2.069 . S
O819 C829 1.289 . S
O820 Co810 2.015 . S
O820 C830 1.257 . S
O821 Co806 2.111 1_655 S
O821 C831 1.274 . S
O822 Co811 1.976 . S
O822 C831 1.251 . S
O823 Co810 2.264 . S
O823 Co811 2.327 . S
O823 C832 1.257 . S
O824 Co811 2.073 . S
O824 C832 1.245 . S
C825 O833 1.259 . S
C825 O834 1.289 . S
C826 O835 1.246 . S
C826 O836 1.257 . S
C827 O815 1.251 . S
C827 O816 1.274 . S
C828 O813 1.245 . S
C828 O814 1.257 . S
C829 O818 1.259 . S
C829 O819 1.289 . S
C830 O817 1.246 . S
C830 O820 1.257 . S
C831 O821 1.274 . S
C831 O822 1.251 . S
C832 O823 1.257 . S
C832 O824 1.245 . S
O833 Co804 2.286 . S
O833 C825 1.259 . S
O834 Co804 2.069 . S
O834 C825 1.289 . S
O835 Co806 2.144 . S
O835 C826 1.246 . S
O836 Co804 2.015 . S
O836 C826 1.257 . S
Co837 O840 2.042 . S
Co837 O847 2.264 . S
Co837 O866 2.286 . S
Co837 O867 2.069 . S
Co837 O869 2.015 1_565 S
Co838 O840 2.122 . S
Co838 O846 2.073 . S
Co838 O847 2.327 . S
Co838 O848 1.976 1_565 S
Co839 O840 2.086 1_545 S
Co839 O842 2.088 . S
Co839 O849 2.112 . S
Co839 O850 2.143 1_545 S
Co839 O854 2.111 1_545 S
Co839 O868 2.144 . S
O840 Co837 2.042 . S
O840 Co838 2.122 . S
O840 Co839 2.086 1_565 S
O840 H841 0.980 . S
H841 O840 0.980 . S
O842 Co839 2.088 . S
O842 Co843 2.042 . S
O842 Co844 2.122 . S
O842 H845 0.980 . S
Co843 O842 2.042 . S
Co843 O851 2.286 . S
Co843 O852 2.069 . S
Co843 O853 2.015 1_545 S
Co843 O856 2.264 . S
Co844 O842 2.122 . S
Co844 O855 1.976 1_545 S
Co844 O856 2.327 . S
Co844 O857 2.073 . S
H845 O842 0.980 . S
O846 Co838 2.073 . S
O846 C861 1.245 . S
O847 Co837 2.264 . S
O847 Co838 2.327 . S
O847 C861 1.257 . S
O848 Co838 1.976 1_545 S
O848 C860 1.251 . S
O849 Co839 2.112 . S
O849 C860 1.274 . S
O850 Co839 2.143 1_565 S
O850 C863 1.246 . S
O851 Co843 2.286 . S
O851 C862 1.259 . S
O852 Co843 2.069 . S
O852 C862 1.289 . S
O853 Co843 2.015 1_565 S
O853 C863 1.257 . S
O854 Co839 2.111 1_565 S
O854 C864 1.274 . S
O855 Co844 1.976 1_565 S
O855 C864 1.251 . S
O856 Co843 2.264 . S
O856 Co844 2.327 . S
O856 C865 1.257 . S
O857 Co844 2.073 . S
O857 C865 1.245 . S
C858 O866 1.259 . S
C858 O867 1.289 . S
C859 O868 1.246 . S
C859 O869 1.257 . S
C860 O848 1.251 . S
C860 O849 1.274 . S
C861 O846 1.245 . S
C861 O847 1.257 . S
C862 O851 1.259 . S
C862 O852 1.289 . S
C863 O850 1.246 . S
C863 O853 1.257 . S
C864 O854 1.274 . S
C864 O855 1.251 . S
C865 O856 1.257 . S
C865 O857 1.245 . S
O866 Co837 2.286 . S
O866 C858 1.259 . S
O867 Co837 2.069 . S
O867 C858 1.289 . S
O868 Co839 2.144 . S
O868 C859 1.246 . S
O869 Co837 2.015 1_545 S
O869 C859 1.257 . S
C870 C871 1.369 . S
C870 C872 1.419 . S
C870 H874 0.930 . S
C871 C870 1.369 . S
C871 C880 1.429 . S
C872 C870 1.419 . S
C872 C873 1.363 . S
C872 H875 0.929 . S
C873 C872 1.363 . S
C873 C879 1.428 . S
H874 C870 0.930 . S
H875 C872 0.929 . S
S876 N877 1.613 . S
S876 N878 1.610 . S
N877 S876 1.613 . S
N877 C880 1.350 . S
N878 S876 1.610 . S
N878 C879 1.351 . S
C879 C873 1.428 . S
C879 N878 1.351 . S
C879 C880 1.434 . S
C880 C871 1.429 . S
C880 N877 1.350 . S
C880 C879 1.434 . S
C881 C882 1.369 . S
C881 C883 1.419 . S
C881 H885 0.930 . S
C882 C881 1.369 . S
C882 C891 1.429 . S
C883 C881 1.419 . S
C883 C884 1.363 . S
C883 H886 0.929 . S
C884 C883 1.363 . S
C884 C890 1.428 . S
H885 C881 0.930 . S
H886 C883 0.929 . S
S887 N888 1.613 . S
S887 N889 1.610 . S
N888 S887 1.613 . S
N888 C891 1.350 . S
N889 S887 1.610 . S
N889 C890 1.351 . S
C890 C884 1.428 . S
C890 N889 1.351 . S
C890 C891 1.434 . S
C891 C882 1.429 . S
C891 N888 1.350 . S
C891 C890 1.434 . S
C892 C893 1.369 . S
C892 C894 1.419 . S
C892 H896 0.930 . S
C893 C892 1.369 . S
C893 C902 1.429 . S
C894 C892 1.419 . S
C894 C895 1.363 . S
C894 H897 0.929 . S
C895 C894 1.363 . S
C895 C901 1.428 . S
H896 C892 0.930 . S
H897 C894 0.929 . S
S898 N899 1.613 . S
S898 N900 1.610 . S
N899 S898 1.613 . S
N899 C902 1.350 . S
N900 S898 1.610 . S
N900 C901 1.351 . S
C901 C895 1.428 . S
C901 N900 1.351 . S
C901 C902 1.434 . S
C902 C893 1.429 . S
C902 N899 1.350 . S
C902 C901 1.434 . S
C903 C904 1.369 . S
C903 C905 1.419 . S
C903 H907 0.930 . S
C904 C903 1.369 . S
C904 C913 1.429 . S
C905 C903 1.419 . S
C905 C906 1.363 . S
C905 H908 0.929 . S
C906 C905 1.363 . S
C906 C912 1.428 . S
H907 C903 0.930 . S
H908 C905 0.929 . S
S909 N910 1.613 . S
S909 N911 1.610 . S
N910 S909 1.613 . S
N910 C913 1.350 . S
N911 S909 1.610 . S
N911 C912 1.351 . S
C912 C906 1.428 . S
C912 N911 1.351 . S
C912 C913 1.434 . S
C913 C904 1.429 . S
C913 N910 1.350 . S
C913 C912 1.434 . S
C914 C915 1.369 . S
C914 C916 1.419 . S
C914 H918 0.930 . S
C915 C914 1.369 . S
C915 C924 1.429 . S
C916 C914 1.419 . S
C916 C917 1.363 . S
C916 H919 0.929 . S
C917 C916 1.363 . S
C917 C923 1.428 . S
H918 C914 0.930 . S
H919 C916 0.929 . S
S920 N921 1.613 . S
S920 N922 1.610 . S
N921 S920 1.613 . S
N921 C924 1.350 . S
N922 S920 1.610 . S
N922 C923 1.351 . S
C923 C917 1.428 . S
C923 N922 1.351 . S
C923 C924 1.434 . S
C924 C915 1.429 . S
C924 N921 1.350 . S
C924 C923 1.434 . S
C925 C926 1.369 . S
C925 C927 1.419 . S
C925 H929 0.930 . S
C926 C925 1.369 . S
C926 C935 1.429 . S
C927 C925 1.419 . S
C927 C928 1.363 . S
C927 H930 0.929 . S
C928 C927 1.363 . S
C928 C934 1.428 . S
H929 C925 0.930 . S
H930 C927 0.929 . S
S931 N932 1.613 . S
S931 N933 1.610 . S
N932 S931 1.613 . S
N932 C935 1.350 . S
N933 S931 1.610 . S
N933 C934 1.351 . S
C934 C928 1.428 . S
C934 N933 1.351 . S
C934 C935 1.434 . S
C935 C926 1.429 . S
C935 N932 1.350 . S
C935 C934 1.434 . S
C936 C937 1.369 . S
C936 C938 1.419 . S
C936 H940 0.930 . S
C937 C936 1.369 . S
C937 C946 1.429 . S
C938 C936 1.419 . S
C938 C939 1.363 . S
C938 H941 0.929 . S
C939 C938 1.363 . S
C939 C945 1.428 . S
H940 C936 0.930 . S
H941 C938 0.929 . S
S942 N943 1.613 . S
S942 N944 1.610 . S
N943 S942 1.613 . S
N943 C946 1.350 . S
N944 S942 1.610 . S
N944 C945 1.351 . S
C945 C939 1.428 . S
C945 N944 1.351 . S
C945 C946 1.434 . S
C946 C937 1.429 . S
C946 N943 1.350 . S
C946 C945 1.434 . S
C947 C948 1.369 . S
C947 C949 1.419 . S
C947 H951 0.930 . S
C948 C947 1.369 . S
C948 C957 1.429 . S
C949 C947 1.419 . S
C949 C950 1.363 . S
C949 H952 0.929 . S
C950 C949 1.363 . S
C950 C956 1.428 . S
H951 C947 0.930 . S
H952 C949 0.929 . S
S953 N954 1.613 . S
S953 N955 1.610 . S
N954 S953 1.613 . S
N954 C957 1.350 . S
N955 S953 1.610 . S
N955 C956 1.351 . S
C956 C950 1.428 . S
C956 N955 1.351 . S
C956 C957 1.434 . S
C957 C948 1.429 . S
C957 N954 1.350 . S
C957 C956 1.434 . S
C958 C959 1.369 . S
C958 C960 1.419 . S
C958 H962 0.930 . S
C959 C958 1.369 . S
C959 C968 1.429 . S
C960 C958 1.419 . S
C960 C961 1.363 . S
C960 H963 0.929 . S
C961 C960 1.363 . S
C961 C967 1.428 . S
H962 C958 0.930 . S
H963 C960 0.929 . S
S964 N965 1.613 . S
S964 N966 1.610 . S
N965 S964 1.613 . S
N965 C968 1.350 . S
N966 S964 1.610 . S
N966 C967 1.351 . S
C967 C961 1.428 . S
C967 N966 1.351 . S
C967 C968 1.434 . S
C968 C959 1.429 . S
C968 N965 1.350 . S
C968 C967 1.434 . S
C969 C970 1.369 . S
C969 C971 1.419 . S
C969 H973 0.930 . S
C970 C969 1.369 . S
C970 C979 1.429 . S
C971 C969 1.419 . S
C971 C972 1.363 . S
C971 H974 0.929 . S
C972 C971 1.363 . S
C972 C978 1.428 . S
H973 C969 0.930 . S
H974 C971 0.929 . S
S975 N976 1.613 . S
S975 N977 1.610 . S
N976 S975 1.613 . S
N976 C979 1.350 . S
N977 S975 1.610 . S
N977 C978 1.351 . S
C978 C972 1.428 . S
C978 N977 1.351 . S
C978 C979 1.434 . S
C979 C970 1.429 . S
C979 N976 1.350 . S
C979 C978 1.434 . S
C980 C981 1.369 . S
C980 C982 1.419 . S
C980 H984 0.930 . S
C981 C980 1.369 . S
C981 C990 1.429 . S
C982 C980 1.419 . S
C982 C983 1.363 . S
C982 H985 0.929 . S
C983 C982 1.363 . S
C983 C989 1.428 . S
H984 C980 0.930 . S
H985 C982 0.929 . S
S986 N987 1.613 . S
S986 N988 1.610 . S
N987 S986 1.613 . S
N987 C990 1.350 1_556 S
N988 S986 1.610 . S
N988 C989 1.351 1_556 S
C989 C983 1.428 . S
C989 N988 1.351 1_554 S
C989 C990 1.434 . S
C990 C981 1.429 . S
C990 N987 1.350 1_554 S
C990 C989 1.434 . S
C991 C992 1.369 . S
C991 C993 1.419 . S
C991 H995 0.930 . S
C992 C991 1.369 . S
C992 C1001 1.429 . S
C993 C991 1.419 . S
C993 C994 1.363 . S
C993 H996 0.929 . S
C994 C993 1.363 . S
C994 C1000 1.428 . S
H995 C991 0.930 . S
H996 C993 0.929 . S
S997 N998 1.613 1_556 S
S997 N999 1.610 1_556 S
N998 S997 1.613 1_554 S
N998 C1001 1.350 . S
N999 S997 1.610 1_554 S
N999 C1000 1.351 . S
C1000 C994 1.428 . S
C1000 N999 1.351 . S
C1000 C1001 1.434 . S
C1001 C992 1.429 . S
C1001 N998 1.350 . S
C1001 C1000 1.434 . S
C1002 C1003 1.369 . S
C1002 C1004 1.419 . S
C1002 H1006 0.930 . S
C1003 C1002 1.369 . S
C1003 C1012 1.429 . S
C1004 C1002 1.419 . S
C1004 C1005 1.363 . S
C1004 H1007 0.929 . S
C1005 C1004 1.363 . S
C1005 C1011 1.428 . S
H1006 C1002 0.930 . S
H1007 C1004 0.929 . S
S1008 N1009 1.613 . S
S1008 N1010 1.610 . S
N1009 S1008 1.613 . S
N1009 C1012 1.350 . S
N1010 S1008 1.610 . S
N1010 C1011 1.351 . S
C1011 C1005 1.428 . S
C1011 N1010 1.351 . S
C1011 C1012 1.434 . S
C1012 C1003 1.429 . S
C1012 N1009 1.350 . S
C1012 C1011 1.434 . S
C1013 C1014 1.369 . S
C1013 C1015 1.419 . S
C1013 H1017 0.930 . S
C1014 C1013 1.369 . S
C1014 C1023 1.429 . S
C1015 C1013 1.419 . S
C1015 C1016 1.363 . S
C1015 H1018 0.929 . S
C1016 C1015 1.363 . S
C1016 C1022 1.428 . S
H1017 C1013 0.930 . S
H1018 C1015 0.929 . S
S1019 N1020 1.613 . S
S1019 N1021 1.610 . S
N1020 S1019 1.613 . S
N1020 C1023 1.350 . S
N1021 S1019 1.610 . S
N1021 C1022 1.351 . S
C1022 C1016 1.428 . S
C1022 N1021 1.351 . S
C1022 C1023 1.434 . S
C1023 C1014 1.429 . S
C1023 N1020 1.350 . S
C1023 C1022 1.434 . S
C1024 C1025 1.369 . S
C1024 C1026 1.419 . S
C1024 H1028 0.930 . S
C1025 C1024 1.369 . S
C1025 C1034 1.429 . S
C1026 C1024 1.419 . S
C1026 C1027 1.363 . S
C1026 H1029 0.929 . S
C1027 C1026 1.363 . S
C1027 C1033 1.428 . S
H1028 C1024 0.930 . S
H1029 C1026 0.929 . S
S1030 N1031 1.613 . S
S1030 N1032 1.610 . S
N1031 S1030 1.613 . S
N1031 C1034 1.350 . S
N1032 S1030 1.610 . S
N1032 C1033 1.351 . S
C1033 C1027 1.428 . S
C1033 N1032 1.351 . S
C1033 C1034 1.434 . S
C1034 C1025 1.429 . S
C1034 N1031 1.350 . S
C1034 C1033 1.434 . S
C1035 C1036 1.369 . S
C1035 C1037 1.419 . S
C1035 H1039 0.930 . S
C1036 C1035 1.369 . S
C1036 C1045 1.429 . S
C1037 C1035 1.419 . S
C1037 C1038 1.363 . S
C1037 H1040 0.929 1_556 S
C1038 C1037 1.363 . S
C1038 C1044 1.428 . S
H1039 C1035 0.930 . S
H1040 C1037 0.929 1_554 S
S1041 N1042 1.613 . S
S1041 N1043 1.610 . S
N1042 S1041 1.613 . S
N1042 C1045 1.350 . S
N1043 S1041 1.610 . S
N1043 C1044 1.351 . S
C1044 C1038 1.428 . S
C1044 N1043 1.351 . S
C1044 C1045 1.434 . S
C1045 C1036 1.429 . S
C1045 N1042 1.350 . S
C1045 C1044 1.434 . S
C1046 C1047 1.369 . S
C1046 C1048 1.419 . S
C1046 H1050 0.930 . S
C1047 C1046 1.369 . S
C1047 C1056 1.429 . S
C1048 C1046 1.419 . S
C1048 C1049 1.363 . S
C1048 H1051 0.929 . S
C1049 C1048 1.363 . S
C1049 C1055 1.428 . S
H1050 C1046 0.930 . S
H1051 C1048 0.929 . S
S1052 N1053 1.642 . S
S1052 N1054 1.603 . S
N1053 S1052 1.642 . S
N1053 C1056 1.350 . S
N1054 S1052 1.603 . S
N1054 C1055 1.351 . S
C1055 C1049 1.428 . S
C1055 N1054 1.351 . S
C1055 C1056 1.434 . S
C1056 C1047 1.429 . S
C1056 N1053 1.350 . S
C1056 C1055 1.434 . S
C1057 C1058 1.369 . S
C1057 C1059 1.419 . S
C1057 H1061 0.930 . S
C1058 C1057 1.369 . S
C1058 C1067 1.429 . S
C1059 C1057 1.419 . S
C1059 C1060 1.363 . S
C1059 H1062 0.929 . S
C1060 C1059 1.363 . S
C1060 C1066 1.428 . S
H1061 C1057 0.930 . S
H1062 C1059 0.929 . S
S1063 N1064 1.613 . S
S1063 N1065 1.610 . S
N1064 S1063 1.613 . S
N1064 C1067 1.350 . S
N1065 S1063 1.610 . S
N1065 C1066 1.351 . S
C1066 C1060 1.428 . S
C1066 N1065 1.351 . S
C1066 C1067 1.434 . S
C1067 C1058 1.429 . S
C1067 N1064 1.350 . S
C1067 C1066 1.434 . S
C1068 C1069 1.369 . S
C1068 C1070 1.419 . S
C1068 H1072 0.930 . S
C1069 C1068 1.369 . S
C1069 C1078 1.429 . S
C1070 C1068 1.419 . S
C1070 C1071 1.363 . S
C1070 H1073 0.929 . S
C1071 C1070 1.363 . S
C1071 C1077 1.428 . S
H1072 C1068 0.930 . S
H1073 C1070 0.929 . S
S1074 N1075 1.613 . S
S1074 N1076 1.610 . S
N1075 S1074 1.613 . S
N1075 C1078 1.350 1_554 S
N1076 S1074 1.610 . S
N1076 C1077 1.351 1_554 S
C1077 C1071 1.428 . S
C1077 N1076 1.351 1_556 S
C1077 C1078 1.434 . S
C1078 C1069 1.429 . S
C1078 N1075 1.350 1_556 S
C1078 C1077 1.434 . S
C1079 C1080 1.369 . S
C1079 C1081 1.419 . S
C1079 H1083 0.930 . S
C1080 C1079 1.369 . S
C1080 C1089 1.429 . S
C1081 C1079 1.419 . S
C1081 C1082 1.363 . S
C1081 H1084 0.929 . S
C1082 C1081 1.363 . S
C1082 C1088 1.428 . S
H1083 C1079 0.930 . S
H1084 C1081 0.929 . S
S1085 N1086 1.613 . S
S1085 N1087 1.610 . S
N1086 S1085 1.613 . S
N1086 C1089 1.350 . S
N1087 S1085 1.610 . S
N1087 C1088 1.351 . S
C1088 C1082 1.428 . S
C1088 N1087 1.351 . S
C1088 C1089 1.434 . S
C1089 C1080 1.429 . S
C1089 N1086 1.350 . S
C1089 C1088 1.434 . S
C1090 C1091 1.369 . S
C1090 C1092 1.419 . S
C1090 H1094 0.930 . S
C1091 C1090 1.369 . S
C1091 C1100 1.429 . S
C1092 C1090 1.419 . S
C1092 C1093 1.363 . S
C1092 H1095 0.929 . S
C1093 C1092 1.363 . S
C1093 C1099 1.428 . S
H1094 C1090 0.930 . S
H1095 C1092 0.929 . S
S1096 N1097 1.613 . S
S1096 N1098 1.610 . S
N1097 S1096 1.613 . S
N1097 C1100 1.350 . S
N1098 S1096 1.610 . S
N1098 C1099 1.351 . S
C1099 C1093 1.428 . S
C1099 N1098 1.351 . S
C1099 C1100 1.434 . S
C1100 C1091 1.429 . S
C1100 N1097 1.350 . S
C1100 C1099 1.434 . S
C1101 C1102 1.369 . S
C1101 C1103 1.419 . S
C1101 H1105 0.930 . S
C1102 C1101 1.369 . S
C1102 C1111 1.429 . S
C1103 C1101 1.419 . S
C1103 C1104 1.363 . S
C1103 H1106 0.929 . S
C1104 C1103 1.363 . S
C1104 C1110 1.428 . S
H1105 C1101 0.930 . S
H1106 C1103 0.929 . S
S1107 N1108 1.613 . S
S1107 N1109 1.610 . S
N1108 S1107 1.613 . S
N1108 C1111 1.350 . S
N1109 S1107 1.610 . S
N1109 C1110 1.351 . S
C1110 C1104 1.428 . S
C1110 N1109 1.351 . S
C1110 C1111 1.434 . S
C1111 C1102 1.429 . S
C1111 N1108 1.350 . S
C1111 C1110 1.434 . S
C1112 C1113 1.369 . S
C1112 C1114 1.419 . S
C1112 H1116 0.930 . S
C1113 C1112 1.369 . S
C1113 C1122 1.429 . S
C1114 C1112 1.419 . S
C1114 C1115 1.363 . S
C1114 H1117 0.929 . S
C1115 C1114 1.363 . S
C1115 C1121 1.428 . S
H1116 C1112 0.930 . S
H1117 C1114 0.929 . S
S1118 N1119 1.613 . S
S1118 N1120 1.610 . S
N1119 S1118 1.613 . S
N1119 C1122 1.350 . S
N1120 S1118 1.610 . S
N1120 C1121 1.351 . S
C1121 C1115 1.428 . S
C1121 N1120 1.351 . S
C1121 C1122 1.434 . S
C1122 C1113 1.429 . S
C1122 N1119 1.350 . S
C1122 C1121 1.434 . S
C1123 C1124 1.369 . S
C1123 C1125 1.419 . S
C1123 H1127 0.930 . S
C1124 C1123 1.369 . S
C1124 C1133 1.429 . S
C1125 C1123 1.419 . S
C1125 C1126 1.363 . S
C1125 H1128 0.929 . S
C1126 C1125 1.363 . S
C1126 C1132 1.428 . S
H1127 C1123 0.930 . S
H1128 C1125 0.929 . S
S1129 N1130 1.613 . S
S1129 N1131 1.610 . S
N1130 S1129 1.613 . S
N1130 C1133 1.350 . S
N1131 S1129 1.610 . S
N1131 C1132 1.351 . S
C1132 C1126 1.428 . S
C1132 N1131 1.351 . S
C1132 C1133 1.434 . S
C1133 C1124 1.429 . S
C1133 N1130 1.350 . S
C1133 C1132 1.434 . S
C1134 C1135 1.369 . S
C1134 C1136 1.419 . S
C1134 H1138 0.930 . S
C1135 C1134 1.369 . S
C1135 C1144 1.429 . S
C1136 C1134 1.419 . S
C1136 C1137 1.363 . S
C1136 H1139 0.929 . S
C1137 C1136 1.363 . S
C1137 C1143 1.428 . S
H1138 C1134 0.930 . S
H1139 C1136 0.929 . S
S1140 N1141 1.613 . S
S1140 N1142 1.610 . S
N1141 S1140 1.613 . S
N1141 C1144 1.350 . S
N1142 S1140 1.610 . S
N1142 C1143 1.351 . S
C1143 C1137 1.428 . S
C1143 N1142 1.351 . S
C1143 C1144 1.434 . S
C1144 C1135 1.429 . S
C1144 N1141 1.350 . S
C1144 C1143 1.434 . S
C1145 C1146 1.369 . S
C1145 C1147 1.419 . S
C1145 H1149 0.930 . S
C1146 C1145 1.369 . S
C1146 C1155 1.429 . S
C1147 C1145 1.419 . S
C1147 C1148 1.363 . S
C1147 H1150 0.929 . S
C1148 C1147 1.363 . S
C1148 C1154 1.428 . S
H1149 C1145 0.930 . S
H1150 C1147 0.929 . S
S1151 N1152 1.613 . S
S1151 N1153 1.610 . S
N1152 S1151 1.613 . S
N1152 C1155 1.350 . S
N1153 S1151 1.610 . S
N1153 C1154 1.351 . S
C1154 C1148 1.428 . S
C1154 N1153 1.351 . S
C1154 C1155 1.434 . S
C1155 C1146 1.429 . S
C1155 N1152 1.350 . S
C1155 C1154 1.434 . S
C1156 C1157 1.369 . S
C1156 C1158 1.419 . S
C1156 H1160 0.930 . S
C1157 C1156 1.369 . S
C1157 C1166 1.429 . S
C1158 C1156 1.419 . S
C1158 C1159 1.363 . S
C1158 H1161 0.929 . S
C1159 C1158 1.363 . S
C1159 C1165 1.428 . S
H1160 C1156 0.930 . S
H1161 C1158 0.929 . S
S1162 N1163 1.613 . S
S1162 N1164 1.610 . S
N1163 S1162 1.613 . S
N1163 C1166 1.350 . S
N1164 S1162 1.610 . S
N1164 C1165 1.351 . S
C1165 C1159 1.428 . S
C1165 N1164 1.351 . S
C1165 C1166 1.434 . S
C1166 C1157 1.429 . S
C1166 N1163 1.350 . S
C1166 C1165 1.434 . S
C1167 C1168 1.369 . S
C1167 C1169 1.419 . S
C1167 H1171 0.930 . S
C1168 C1167 1.369 . S
C1168 C1177 1.429 . S
C1169 C1167 1.419 . S
C1169 C1170 1.363 . S
C1169 H1172 0.929 . S
C1170 C1169 1.363 . S
C1170 C1176 1.428 . S
H1171 C1167 0.930 . S
H1172 C1169 0.929 . S
S1173 N1174 1.613 . S
S1173 N1175 1.610 1_554 S
N1174 S1173 1.613 . S
N1174 C1177 1.350 1_554 S
N1175 S1173 1.610 1_556 S
N1175 C1176 1.351 . S
C1176 C1170 1.428 . S
C1176 N1175 1.351 . S
C1176 C1177 1.434 . S
C1177 C1168 1.429 . S
C1177 N1174 1.350 1_556 S
C1177 C1176 1.434 . S
C1178 C1179 1.369 . S
C1178 C1180 1.419 . S
C1178 H1182 0.930 . S
C1179 C1178 1.369 . S
C1179 C1188 1.429 . S
C1180 C1178 1.419 . S
C1180 C1181 1.363 . S
C1180 H1183 0.929 . S
C1181 C1180 1.363 . S
C1181 C1187 1.428 . S
H1182 C1178 0.930 . S
H1183 C1180 0.929 . S
S1184 N1185 1.613 1_556 S
S1184 N1186 1.610 . S
N1185 S1184 1.613 1_554 S
N1185 C1188 1.350 . S
N1186 S1184 1.610 . S
N1186 C1187 1.351 1_556 S
C1187 C1181 1.428 . S
C1187 N1186 1.351 1_554 S
C1187 C1188 1.434 . S
C1188 C1179 1.429 . S
C1188 N1185 1.350 . S
C1188 C1187 1.434 . S
C1189 C1190 1.369 . S
C1189 C1191 1.419 . S
C1189 H1193 0.930 . S
C1190 C1189 1.369 . S
C1190 C1199 1.429 . S
C1191 C1189 1.419 . S
C1191 C1192 1.363 . S
C1191 H1194 0.929 . S
C1192 C1191 1.363 . S
C1192 C1198 1.428 . S
H1193 C1189 0.930 . S
H1194 C1191 0.929 . S
S1195 N1196 1.613 . S
S1195 N1197 1.610 . S
N1196 S1195 1.613 . S
N1196 C1199 1.350 . S
N1197 S1195 1.610 . S
N1197 C1198 1.351 . S
C1198 C1192 1.428 . S
C1198 N1197 1.351 . S
C1198 C1199 1.434 . S
C1199 C1190 1.429 . S
C1199 N1196 1.350 . S
C1199 C1198 1.434 . S
C1200 C1201 1.369 . S
C1200 C1202 1.419 . S
C1200 H1204 0.930 . S
C1201 C1200 1.369 . S
C1201 C1210 1.429 . S
C1202 C1200 1.419 . S
C1202 C1203 1.363 . S
C1202 H1205 0.929 . S
C1203 C1202 1.363 . S
C1203 C1209 1.428 . S
H1204 C1200 0.930 . S
H1205 C1202 0.929 . S
S1206 N1207 1.613 . S
S1206 N1208 1.589 1_556 S
N1207 S1206 1.613 . S
N1207 C1210 1.350 1_556 S
N1208 S1206 1.589 1_554 S
N1208 C1209 1.364 . S
C1209 C1203 1.428 . S
C1209 N1208 1.364 . S
C1209 C1210 1.434 . S
C1210 C1201 1.429 . S
C1210 N1207 1.350 1_554 S
C1210 C1209 1.434 . S
C1211 C1212 1.369 . S
C1211 C1213 1.419 . S
C1211 H1215 0.930 . S
C1212 C1211 1.369 . S
C1212 C1221 1.429 . S
C1213 C1211 1.419 . S
C1213 C1214 1.363 . S
C1213 H1216 0.929 . S
C1214 C1213 1.363 . S
C1214 C1220 1.428 . S
H1215 C1211 0.930 . S
H1216 C1213 0.929 . S
S1217 N1218 1.613 . S
S1217 N1219 1.610 . S
N1218 S1217 1.613 . S
N1218 C1221 1.350 . S
N1219 S1217 1.610 . S
N1219 C1220 1.351 . S
C1220 C1214 1.428 . S
C1220 N1219 1.351 . S
C1220 C1221 1.434 . S
C1221 C1212 1.429 . S
C1221 N1218 1.350 . S
C1221 C1220 1.434 . S
C1222 C1223 1.369 . S
C1222 C1224 1.419 . S
C1222 H1226 0.930 . S
C1223 C1222 1.369 . S
C1223 C1232 1.429 . S
C1224 C1222 1.419 . S
C1224 C1225 1.363 . S
C1224 H1227 0.929 . S
C1225 C1224 1.363 . S
C1225 C1231 1.428 . S
H1226 C1222 0.930 . S
H1227 C1224 0.929 . S
S1228 N1229 1.613 . S
S1228 N1230 1.610 . S
N1229 S1228 1.613 . S
N1229 C1232 1.350 . S
N1230 S1228 1.610 . S
N1230 C1231 1.351 . S
C1231 C1225 1.428 . S
C1231 N1230 1.351 . S
C1231 C1232 1.434 . S
C1232 C1223 1.429 . S
C1232 N1229 1.350 . S
C1232 C1231 1.434 . S
C1233 C1234 1.369 . S
C1233 C1235 1.419 . S
C1233 H1237 0.930 . S
C1234 C1233 1.369 . S
C1234 C1243 1.429 . S
C1235 C1233 1.419 . S
C1235 C1236 1.363 . S
C1235 H1238 0.929 . S
C1236 C1235 1.363 . S
C1236 C1242 1.428 . S
H1237 C1233 0.930 . S
H1238 C1235 0.929 . S
S1239 N1240 1.613 . S
S1239 N1241 1.610 . S
N1240 S1239 1.613 . S
N1240 C1243 1.350 . S
N1241 S1239 1.610 . S
N1241 C1242 1.351 . S
C1242 C1236 1.428 . S
C1242 N1241 1.351 . S
C1242 C1243 1.434 . S
C1243 C1234 1.429 . S
C1243 N1240 1.350 . S
C1243 C1242 1.434 . S
C1244 C1245 1.369 . S
C1244 C1246 1.419 . S
C1244 H1248 0.930 . S
C1245 C1244 1.369 . S
C1245 C1254 1.429 . S
C1246 C1244 1.419 . S
C1246 C1247 1.363 . S
C1246 H1249 0.929 . S
C1247 C1246 1.363 . S
C1247 C1253 1.428 . S
H1248 C1244 0.930 . S
H1249 C1246 0.929 . S
S1250 N1251 1.613 . S
S1250 N1252 1.610 . S
N1251 S1250 1.613 . S
N1251 C1254 1.350 . S
N1252 S1250 1.610 . S
N1252 C1253 1.351 . S
C1253 C1247 1.428 . S
C1253 N1252 1.351 . S
C1253 C1254 1.434 . S
C1254 C1245 1.429 . S
C1254 N1251 1.350 . S
C1254 C1253 1.434 . S
C1255 C1256 1.369 . S
C1255 C1257 1.419 . S
C1255 H1259 0.930 . S
C1256 C1255 1.369 . S
C1256 C1265 1.429 . S
C1257 C1255 1.419 . S
C1257 C1258 1.363 . S
C1257 H1260 0.929 . S
C1258 C1257 1.363 . S
C1258 C1264 1.428 . S
H1259 C1255 0.930 . S
H1260 C1257 0.929 . S
S1261 N1262 1.613 . S
S1261 N1263 1.610 . S
N1262 S1261 1.613 . S
N1262 C1265 1.350 . S
N1263 S1261 1.610 . S
N1263 C1264 1.351 . S
C1264 C1258 1.428 . S
C1264 N1263 1.351 . S
C1264 C1265 1.434 . S
C1265 C1256 1.429 . S
C1265 N1262 1.350 . S
C1265 C1264 1.434 . S
C1266 C1267 1.369 . S
C1266 C1268 1.419 . S
C1266 H1270 0.930 . S
C1267 C1266 1.369 . S
C1267 C1276 1.429 . S
C1268 C1266 1.419 . S
C1268 C1269 1.363 . S
C1268 H1271 0.929 . S
C1269 C1268 1.363 . S
C1269 C1275 1.428 . S
H1270 C1266 0.930 . S
H1271 C1268 0.929 . S
S1272 N1273 1.613 . S
S1272 N1274 1.610 . S
N1273 S1272 1.613 . S
N1273 C1276 1.350 . S
N1274 S1272 1.610 . S
N1274 C1275 1.351 . S
C1275 C1269 1.428 . S
C1275 N1274 1.351 . S
C1275 C1276 1.434 . S
C1276 C1267 1.429 . S
C1276 N1273 1.350 . S
C1276 C1275 1.434 . S
C1277 C1278 1.369 . S
C1277 C1279 1.419 . S
C1277 H1281 0.930 . S
C1278 C1277 1.369 . S
C1278 C1287 1.429 . S
C1279 C1277 1.419 . S
C1279 C1280 1.363 . S
C1279 H1282 0.929 . S
C1280 C1279 1.363 . S
C1280 C1286 1.428 . S
H1281 C1277 0.930 . S
H1282 C1279 0.929 . S
S1283 N1284 1.613 . S
S1283 N1285 1.610 . S
N1284 S1283 1.613 . S
N1284 C1287 1.350 . S
N1285 S1283 1.610 . S
N1285 C1286 1.351 . S
C1286 C1280 1.428 . S
C1286 N1285 1.351 . S
C1286 C1287 1.434 . S
C1287 C1278 1.429 . S
C1287 N1284 1.350 . S
C1287 C1286 1.434 . S
C1288 C1289 1.369 . S
C1288 C1290 1.419 . S
C1288 H1292 0.930 . S
C1289 C1288 1.369 . S
C1289 C1298 1.429 . S
C1290 C1288 1.419 . S
C1290 C1291 1.363 . S
C1290 H1293 0.929 . S
C1291 C1290 1.363 . S
C1291 C1297 1.428 . S
H1292 C1288 0.930 . S
H1293 C1290 0.929 . S
S1294 N1295 1.613 . S
S1294 N1296 1.610 . S
N1295 S1294 1.613 . S
N1295 C1298 1.350 . S
N1296 S1294 1.610 . S
N1296 C1297 1.351 . S
C1297 C1291 1.428 . S
C1297 N1296 1.351 . S
C1297 C1298 1.434 . S
C1298 C1289 1.429 . S
C1298 N1295 1.350 . S
C1298 C1297 1.434 . S
C1299 C1300 1.369 . S
C1299 C1301 1.419 . S
C1299 H1303 0.930 . S
C1300 C1299 1.369 . S
C1300 C1309 1.429 . S
C1301 C1299 1.419 . S
C1301 C1302 1.363 . S
C1301 H1304 0.929 . S
C1302 C1301 1.363 . S
C1302 C1308 1.428 . S
H1303 C1299 0.930 . S
H1304 C1301 0.929 . S
S1305 N1306 1.613 . S
S1305 N1307 1.610 . S
N1306 S1305 1.613 . S
N1306 C1309 1.350 . S
N1307 S1305 1.610 . S
N1307 C1308 1.351 . S
C1308 C1302 1.428 . S
C1308 N1307 1.351 . S
C1308 C1309 1.434 . S
C1309 C1300 1.429 . S
C1309 N1306 1.350 . S
C1309 C1308 1.434 . S
C1310 C1311 1.369 . S
C1310 C1312 1.419 . S
C1310 H1314 0.930 . S
C1311 C1310 1.369 . S
C1311 C1320 1.429 . S
C1312 C1310 1.419 . S
C1312 C1313 1.363 . S
C1312 H1315 0.929 . S
C1313 C1312 1.363 . S
C1313 C1319 1.428 . S
H1314 C1310 0.930 . S
H1315 C1312 0.929 . S
S1316 N1317 1.613 . S
S1316 N1318 1.610 . S
N1317 S1316 1.613 . S
N1317 C1320 1.350 . S
N1318 S1316 1.610 . S
N1318 C1319 1.351 . S
C1319 C1313 1.428 . S
C1319 N1318 1.351 . S
C1319 C1320 1.434 . S
C1320 C1311 1.429 . S
C1320 N1317 1.350 . S
C1320 C1319 1.434 . S
C1321 C1322 1.369 . S
C1321 C1323 1.419 . S
C1321 H1325 0.930 . S
C1322 C1321 1.369 . S
C1322 C1331 1.429 . S
C1323 C1321 1.419 . S
C1323 C1324 1.363 . S
C1323 H1326 0.929 . S
C1324 C1323 1.363 . S
C1324 C1330 1.428 . S
H1325 C1321 0.930 . S
H1326 C1323 0.929 . S
S1327 N1328 1.613 . S
S1327 N1329 1.610 . S
N1328 S1327 1.613 . S
N1328 C1331 1.350 . S
N1329 S1327 1.610 . S
N1329 C1330 1.351 . S
C1330 C1324 1.428 . S
C1330 N1329 1.351 . S
C1330 C1331 1.434 . S
C1331 C1322 1.429 . S
C1331 N1328 1.350 . S
C1331 C1330 1.434 . S
C1332 C1333 1.369 . S
C1332 C1334 1.419 . S
C1332 H1336 0.930 . S
C1333 C1332 1.369 . S
C1333 C1342 1.429 . S
C1334 C1332 1.419 . S
C1334 C1335 1.363 . S
C1334 H1337 0.929 . S
C1335 C1334 1.363 . S
C1335 C1341 1.428 . S
H1336 C1332 0.930 . S
H1337 C1334 0.929 . S
S1338 N1339 1.613 . S
S1338 N1340 1.610 . S
N1339 S1338 1.613 . S
N1339 C1342 1.350 . S
N1340 S1338 1.610 . S
N1340 C1341 1.351 . S
C1341 C1335 1.428 . S
C1341 N1340 1.351 . S
C1341 C1342 1.434 . S
C1342 C1333 1.429 . S
C1342 N1339 1.350 . S
C1342 C1341 1.434 . S
C1343 C1344 1.369 . S
C1343 C1345 1.419 . S
C1343 H1347 0.930 . S
C1344 C1343 1.369 . S
C1344 C1353 1.429 . S
C1345 C1343 1.419 . S
C1345 C1346 1.363 . S
C1345 H1348 0.929 . S
C1346 C1345 1.363 . S
C1346 C1352 1.428 . S
H1347 C1343 0.930 . S
H1348 C1345 0.929 . S
S1349 N1350 1.613 . S
S1349 N1351 1.610 . S
N1350 S1349 1.613 . S
N1350 C1353 1.350 . S
N1351 S1349 1.610 . S
N1351 C1352 1.351 . S
C1352 C1346 1.428 . S
C1352 N1351 1.351 . S
C1352 C1353 1.434 . S
C1353 C1344 1.429 . S
C1353 N1350 1.350 . S
C1353 C1352 1.434 . S
C1354 C1355 1.369 . S
C1354 C1356 1.419 . S
C1354 H1358 0.930 . S
C1355 C1354 1.369 . S
C1355 C1364 1.429 . S
C1356 C1354 1.419 . S
C1356 C1357 1.363 . S
C1356 H1359 0.929 . S
C1357 C1356 1.363 . S
C1357 C1363 1.428 . S
H1358 C1354 0.930 . S
H1359 C1356 0.929 . S
S1360 N1361 1.613 . S
S1360 N1362 1.610 . S
N1361 S1360 1.613 . S
N1361 C1364 1.350 . S
N1362 S1360 1.610 . S
N1362 C1363 1.351 . S
C1363 C1357 1.428 . S
C1363 N1362 1.351 . S
C1363 C1364 1.434 . S
C1364 C1355 1.429 . S
C1364 N1361 1.350 . S
C1364 C1363 1.434 . S
C1365 C1366 1.369 . S
C1365 C1367 1.419 . S
C1365 H1369 0.930 . S
C1366 C1365 1.369 . S
C1366 C1375 1.429 . S
C1367 C1365 1.419 . S
C1367 C1368 1.363 . S
C1367 H1370 0.929 . S
C1368 C1367 1.363 . S
C1368 C1374 1.428 . S
H1369 C1365 0.930 . S
H1370 C1367 0.929 . S
S1371 N1372 1.613 . S
S1371 N1373 1.610 . S
N1372 S1371 1.613 . S
N1372 C1375 1.350 . S
N1373 S1371 1.610 . S
N1373 C1374 1.351 . S
C1374 C1368 1.428 . S
C1374 N1373 1.351 . S
C1374 C1375 1.434 . S
C1375 C1366 1.429 . S
C1375 N1372 1.350 . S
C1375 C1374 1.434 . S
C1376 C1377 1.369 . S
C1376 C1378 1.419 . S
C1376 H1380 0.930 . S
C1377 C1376 1.369 . S
C1377 C1386 1.429 . S
C1378 C1376 1.419 . S
C1378 C1379 1.363 . S
C1378 H1381 0.929 . S
C1379 C1378 1.363 . S
C1379 C1385 1.428 . S
H1380 C1376 0.930 . S
H1381 C1378 0.929 . S
S1382 N1383 1.613 . S
S1382 N1384 1.610 . S
N1383 S1382 1.613 . S
N1383 C1386 1.350 . S
N1384 S1382 1.610 . S
N1384 C1385 1.351 . S
C1385 C1379 1.428 . S
C1385 N1384 1.351 . S
C1385 C1386 1.434 . S
C1386 C1377 1.429 . S
C1386 N1383 1.350 . S
C1386 C1385 1.434 . S
C1387 C1388 1.369 . S
C1387 C1389 1.419 . S
C1387 H1391 0.930 . S
C1388 C1387 1.369 . S
C1388 C1397 1.429 . S
C1389 C1387 1.419 . S
C1389 C1390 1.363 . S
C1389 H1392 0.929 . S
C1390 C1389 1.363 . S
C1390 C1396 1.428 . S
H1391 C1387 0.930 . S
H1392 C1389 0.929 . S
S1393 N1394 1.613 . S
S1393 N1395 1.610 . S
N1394 S1393 1.613 . S
N1394 C1397 1.350 . S
N1395 S1393 1.610 . S
N1395 C1396 1.351 . S
C1396 C1390 1.428 . S
C1396 N1395 1.351 . S
C1396 C1397 1.434 . S
C1397 C1388 1.429 . S
C1397 N1394 1.350 . S
C1397 C1396 1.434 . S
C873 C699 1.435 . S
C871 C56 1.604 . S
C884 C700 1.481 . S
C882 C154 1.437 . S
C895 C694 1.698 . S
C893 C236 1.731 . S
C904 C310 1.110 . S
C906 C693 0.539 . S
C915 C394 1.441 . S
C917 C696 1.489 . S
C928 C698 1.693 . S
C926 C476 1.735 . S
C937 C574 1.110 . S
C939 C697 0.541 . S
C948 C656 1.599 . S
C950 C695 1.426 . S
C961 C730 2.628 . S
C959 C67 2.608 . S
C970 C139 1.692 . S
C972 C761 1.543 . S
C983 C729 1.366 . S
C981 C238 1.265 . S
C994 C764 1.512 . S
C992 C308 1.448 . S
C1003 C392 1.722 . S
C1005 C727 1.718 . S
C1016 C759 2.614 . S
C1014 C487 2.612 . S
C1025 C559 1.463 . S
C1027 C732 1.324 . S
C1036 C658 1.233 . S
C1038 C766 1.316 . S
C1047 C58 1.224 . S
C1049 C762 1.316 . S
C1058 C403 1.692 . S
C1060 C765 1.554 . S
C1071 C733 1.367 . S
C1069 C478 1.272 . S
C1082 C760 1.509 . S
C1080 C572 1.445 . S
C1091 C643 2.608 . S
C1093 C726 2.629 . S
C1102 C223 2.612 . S
C1104 C763 2.614 . S
C1115 C728 1.331 . S
C1113 C319 1.459 . S
C1124 C152 1.728 . S
C1126 C731 1.715 . S
C1135 C644 1.617 . S
C1137 C798 1.485 . S
C1146 C406 1.274 . S
C1148 C799 1.238 . S
C1159 C793 1.521 . S
C1157 C488 1.541 . S
C1170 C792 0.567 . S
C1168 C562 0.833 . S
C1179 C142 1.283 . S
C1181 C795 1.248 . S
C1192 C797 1.517 . S
C1190 C224 1.540 . S
C1201 C322 0.849 . S
C1203 C796 0.564 . S
C1212 C68 1.617 . S
C1214 C794 1.479 . S
C1223 C655 2.803 . S
C1225 C832 2.726 . S
C1236 C864 1.431 . S
C1234 C391 1.513 . S
C1245 C490 1.115 . S
C1247 C825 1.290 . S
C1256 C560 1.703 . S
C1258 C859 1.682 . S
C1269 C830 1.449 . S
C1267 C140 1.442 . S
C1278 C235 2.844 . S
C1280 C861 2.776 . S
C1291 C827 1.762 . S
C1289 C307 1.819 . S
C1302 C862 1.323 . S
C1300 C70 1.234 . S
C1313 C858 1.324 . S
C1311 C646 1.233 . S
C1322 C151 1.512 . S
C1324 C860 1.431 . S
C1333 C226 1.116 . S
C1335 C829 1.291 . S
C1346 C863 1.677 . S
C1344 C320 1.704 . S
C1355 C55 2.802 . S
C1357 C828 2.723 . S
C1366 C475 2.843 . S
C1368 C865 2.777 . S
C1379 C831 1.757 . S
C1377 C571 1.817 . S
C1390 C826 1.446 . S
C1388 C404 1.436 . S
