# Generated by pormake.
# Topology nia, (6,6)-cn, num edge types: 1
# Building blocks:
#     Node 0, Type 0, BuildingBlock: CUKXOW_clean_sbu_0, # of connection points: 6
#     Node 1, Type 0, BuildingBlock: CUKXOW_clean_sbu_0, # of connection points: 6
#     Node 2, Type 1, BuildingBlock: MIDCAF_clean_sbu_0, # of connection points: 6
#     Node 3, Type 1, BuildingBlock: MIDCAF_clean_sbu_0, # of connection points: 6
#     Edge 4, Type (0, 1), BuildingBlock: EZIPEK_clean_linker_0, # of connection points: 2
#     Edge 5, Type (0, 1), BuildingBlock: EZIPEK_clean_linker_0, # of connection points: 2
#     Edge 6, Type (0, 1), BuildingBlock: EZIPEK_clean_linker_0, # of connection points: 2
#     Edge 7, Type (0, 1), BuildingBlock: EZIPEK_clean_linker_0, # of connection points: 2
#     Edge 8, Type (0, 1), BuildingBlock: EZIPEK_clean_linker_0, # of connection points: 2
#     Edge 9, Type (0, 1), BuildingBlock: EZIPEK_clean_linker_0, # of connection points: 2
#     Edge 10, Type (0, 1), BuildingBlock: EZIPEK_clean_linker_0, # of connection points: 2
#     Edge 11, Type (0, 1), BuildingBlock: EZIPEK_clean_linker_0, # of connection points: 2
#     Edge 12, Type (0, 1), BuildingBlock: EZIPEK_clean_linker_0, # of connection points: 2
#     Edge 13, Type (0, 1), BuildingBlock: EZIPEK_clean_linker_0, # of connection points: 2
#     Edge 14, Type (0, 1), BuildingBlock: EZIPEK_clean_linker_0, # of connection points: 2
#     Edge 15, Type (0, 1), BuildingBlock: EZIPEK_clean_linker_0, # of connection points: 2
# Relax obj value: 0.206
# Max RMSD: 0.253
# Mean RMSD: 0.212
data_MOF--net-nia--node1-CUKXOW_clean_sbu_0--node2-MIDCAF_clean_sbu_0--edge1-EZIPEK_clean_linker_0
_symmetry_space_group_name_H-M    P1
_symmetry_Int_Tables_number       1
_symmetry_cell_setting            triclinic
loop_
_symmetry_equiv_pos_as_xyz
'x, y, z'
_cell_length_a     18.449808
_cell_length_b     18.400233
_cell_length_c     21.698568
_cell_angle_alpha  86.087566
_cell_angle_beta   86.055542
_cell_angle_gamma 123.62672
loop_
_atom_site_label
_atom_site_type_symbol
_atom_site_fract_x
_atom_site_fract_y
_atom_site_fract_z
_atom_type_partial_charge
Tb0 Tb 0.00985 0.06465 0.08382 0.0
C1 C 0.15108 0.06675 0.99053 0.0
Tb2 Tb 0.95088 0.93332 1.00141 0.0
O3 O -0.02594 0.96666 0.16305 0.0
O4 O 0.02338 0.95705 0.07815 0.0
O5 O 0.13359 0.11561 1.02248 0.0
C6 C 0.88794 0.79584 0.9382 0.0
O7 O 0.08904 -0.01592 0.98593 0.0
C8 C 0.96474 0.07707 0.95225 0.0
C9 C 0.80879 0.93135 0.09331 0.0
O10 O 0.93485 0.87712 0.91392 0.0
O11 O 0.87521 0.79088 0.9983 0.0
O12 O -0.01341 0.03235 0.92246 0.0
O13 O 0.93637 0.04001 1.00741 0.0
O14 O 0.82722 0.88174 0.06324 0.0
O15 O 0.87134 0.01402 0.09781 0.0
C16 C 0.07285 0.20306 0.14638 0.0
O17 O 0.03293 0.1223 0.17107 0.0
O18 O 0.07933 0.20682 0.08617 0.0
C19 C -0.00545 0.92061 0.13359 0.0
Tb20 Tb 0.90463 0.97423 0.51094 0.0
C21 C 0.9065 0.83575 0.60567 0.0
Tb22 Tb 0.06536 0.0351 0.58167 0.0
O23 O 0.93908 0.92238 0.43401 0.0
O24 O 0.0198 -0.02143 0.50062 0.0
O25 O 0.85677 0.85458 0.57589 0.0
C26 C 0.21445 0.07287 0.61951 0.0
O27 O -0.00993 0.89494 0.61027 0.0
C28 C 0.93433 0.03315 0.64212 0.0
C29 C 0.06715 0.17312 0.48501 0.0
O30 O 0.16898 0.01262 0.58455 0.0
O31 O 0.17785 0.11456 0.63146 0.0
O32 O -0.01337 0.01804 0.66851 0.0
O33 O 0.96007 0.05187 0.58448 0.0
O34 O 0.11608 0.15436 0.51586 0.0
O35 O -0.01782 0.11535 0.48317 0.0
C36 C 0.76671 0.94897 0.46234 0.0
O37 O 0.84587 -0.00708 0.43384 0.0
O38 O 0.76408 0.9182 0.51896 0.0
C39 C 0.01147 0.94043 0.45314 0.0
Zn40 Zn 0.26982 0.70256 0.17265 0.0
Zn41 Zn 0.26918 0.70002 0.41067 0.0
Zn42 Zn 0.28601 0.71063 0.28964 0.0
C43 C 0.44804 0.80459 0.36172 0.0
C44 C 0.20354 0.53283 0.39195 0.0
O45 O 0.20557 0.76051 0.26163 0.0
O46 O 0.19676 0.74853 0.16119 0.0
C47 C 0.45233 0.81368 0.18114 0.0
O48 O 0.4206 0.79155 0.30807 0.0
O49 O 0.39547 0.77193 0.41139 0.0
O50 O 0.21121 0.57462 0.43743 0.0
O51 O 0.22684 0.57259 0.33562 0.0
O52 O 0.39635 0.77904 0.14374 0.0
O53 O 0.42514 0.79569 0.24024 0.0
O54 O 0.22686 0.57376 0.27157 0.0
O55 O 0.21614 0.57644 0.17051 0.0
C56 C 0.20541 0.5346 0.22249 0.0
O57 O 0.21529 0.76954 0.32467 0.0
O58 O 0.208 0.75671 0.42765 0.0
C59 C 0.17785 0.76998 0.21064 0.0
C60 C 0.19303 0.78319 0.37818 0.0
Zn61 Zn 0.68526 0.29637 0.9153 0.0
Zn62 Zn 0.71847 0.30821 0.67425 0.0
Zn63 Zn 0.68123 0.29182 0.79233 0.0
C64 C 0.76787 0.4717 0.69083 0.0
C65 C 0.53247 0.18142 0.71228 0.0
O66 O 0.75702 0.24173 0.82926 0.0
O67 O 0.75436 0.24659 0.93115 0.0
C68 C 0.75821 0.46645 0.86025 0.0
O69 O 0.74235 0.43034 0.74668 0.0
O70 O 0.76593 0.43207 0.64517 0.0
O71 O 0.59416 0.22074 0.66776 0.0
O72 O 0.54851 0.20267 0.76746 0.0
O73 O 0.74399 0.42415 0.91283 0.0
O74 O 0.73879 0.42776 0.81089 0.0
O75 O 0.54248 0.21804 0.83337 0.0
O76 O 0.5558 0.22627 0.93405 0.0
C77 C 0.50834 0.20325 0.89053 0.0
O78 O 0.7526 0.22943 0.76574 0.0
O79 O 0.79193 0.26198 0.66371 0.0
C80 C 0.77943 0.22952 0.882 0.0
C81 C 0.78918 0.22364 0.71508 0.0
C82 C -0.01049 0.78738 0.17487 0.0
C83 C 0.03432 0.8801 0.16589 0.0
C84 C 0.16111 0.89586 0.20944 0.0
C85 C 0.12233 0.80476 0.20826 0.0
N86 N -0.00185 0.66102 0.19569 0.0
N87 N 0.16325 0.02454 0.17338 0.0
C88 C 0.03543 0.7495 0.19342 0.0
C89 C 0.11949 0.93488 0.18422 0.0
N90 N 0.90317 0.73611 0.1658 0.0
N91 N 0.23856 0.94536 0.23348 0.0
H92 H 0.13582 0.05656 0.15525 0.0
H93 H 0.22932 0.06795 0.17793 0.0
H94 H 0.27317 0.91998 0.24946 0.0
H95 H 0.26498 0.00965 0.24264 0.0
H96 H 0.86389 0.66793 0.17616 0.0
H97 H 0.86856 0.76262 0.1518 0.0
H98 H 0.93945 0.61764 0.17878 0.0
H99 H 0.02776 0.63089 0.21348 0.0
C100 C 0.29144 0.0793 0.71218 0.0
C101 C 0.29098 0.0849 0.64637 0.0
C102 C 0.43257 0.10312 0.63302 0.0
C103 C 0.4422 0.12067 0.69549 0.0
N104 N 0.36234 0.06396 0.79734 0.0
N105 N 0.36234 0.10248 0.54325 0.0
C106 C 0.36644 0.09171 0.73671 0.0
C107 C 0.36096 0.09483 0.6065 0.0
N108 N 0.22091 0.06224 0.75115 0.0
N109 N 0.48928 0.08952 0.6006 0.0
H110 H 0.31304 0.10074 0.5213 0.0
H111 H 0.41653 0.11891 0.51234 0.0
H112 H 0.53704 0.08678 0.62174 0.0
H113 H 0.48133 0.06932 0.55643 0.0
H114 H 0.22265 0.06856 0.79848 0.0
H115 H 0.16149 0.04459 0.73595 0.0
H116 H 0.30513 0.03224 0.8288 0.0
H117 H 0.41291 0.06085 0.81299 0.0
C118 C 0.20131 0.34375 0.17159 0.0
C119 C 0.10953 0.27951 0.18116 0.0
C120 C 0.08568 0.37485 0.24018 0.0
C121 C 0.1757 0.4421 0.2241 0.0
N122 N 0.32325 0.48561 0.19353 0.0
N123 N 0.96697 0.22243 0.23755 0.0
C124 C 0.23498 0.42446 0.19622 0.0
C125 C 0.05258 0.29087 0.22053 0.0
N126 N 0.25549 0.328 0.13774 0.0
N127 N 0.03174 0.39343 0.27094 0.0
H128 H 0.93948 0.16128 0.22178 0.0
H129 H 0.92402 0.22387 0.2703 0.0
H130 H 0.05577 0.45351 0.28789 0.0
H131 H 0.96369 0.35106 0.2786 0.0
H132 H 0.32162 0.37533 0.12288 0.0
H133 H 0.23352 0.26701 0.12298 0.0
H134 H 0.37112 0.47543 0.17784 0.0
H135 H 0.34857 0.54476 0.21223 0.0
C136 C 0.80377 0.03402 0.68184 0.0
C137 C 0.89614 0.07614 0.67362 0.0
C138 C 0.91629 0.20941 0.71013 0.0
C139 C 0.82454 0.16847 0.71492 0.0
N140 N 0.67916 0.03733 0.72132 0.0
N141 N 0.04102 0.19974 0.68732 0.0
C142 C 0.76772 0.07892 0.70631 0.0
C143 C 0.95258 0.16216 0.69098 0.0
N144 N 0.7509 0.9527 0.66344 0.0
N145 N 0.96853 0.29508 0.72117 0.0
H146 H 0.07214 0.17244 0.66752 0.0
H147 H 0.08435 0.25709 0.70578 0.0
H148 H 0.94277 0.32874 0.73885 0.0
H149 H 0.03662 0.33387 0.71186 0.0
H150 H 0.6841 0.92217 0.66119 0.0
H151 H 0.77504 0.9173 0.64674 0.0
H152 H 0.63389 0.97006 0.7217 0.0
H153 H 0.65129 0.06915 0.73887 0.0
C154 C 0.65381 0.87439 0.07271 0.0
C155 C 0.71672 0.90081 0.11539 0.0
C156 C 0.61541 0.90436 0.19318 0.0
C157 C 0.5482 0.86339 0.15496 0.0
N158 N 0.52579 0.86886 0.04688 0.0
N159 N 0.75421 0.93489 0.21901 0.0
C160 C 0.57301 0.86451 0.09114 0.0
C161 C 0.69684 0.91484 0.17624 0.0
N162 N 0.67073 0.85967 1.01424 0.0
N163 N 0.60621 0.94483 0.24034 0.0
H164 H 0.81299 0.93961 0.20958 0.0
H165 H 0.73931 0.93838 0.26545 0.0
H166 H 0.55124 0.94735 0.24832 0.0
H167 H 0.6577 -0.01396 0.26487 0.0
H168 H 0.62257 0.82903 0.98484 0.0
H169 H 0.73072 0.87222 0.99609 0.0
H170 H 0.54453 0.8773 0.99919 0.0
H171 H 0.47683 0.87987 0.05712 0.0
C172 C 0.91952 0.70634 0.61638 0.0
C173 C 0.87091 0.74313 0.63165 0.0
C174 C 0.75527 0.60185 0.69252 0.0
C175 C 0.80615 0.5674 0.67895 0.0
N176 N 0.94733 0.59539 0.64515 0.0
N177 N 0.75457 0.73266 0.69843 0.0
C178 C 0.89169 0.62254 0.64636 0.0
C179 C 0.7921 0.69284 0.67391 0.0
N180 N -0.00999 0.74898 0.57092 0.0
N181 N 0.67085 0.54736 0.72096 0.0
H182 H 0.78171 0.79963 0.68769 0.0
H183 H 0.70223 0.70153 0.73415 0.0
H184 H 0.64202 0.48086 0.73592 0.0
H185 H 0.62759 0.56677 0.72589 0.0
H186 H 0.02062 0.71996 0.55308 0.0
H187 H 0.01286 0.80973 0.54633 0.0
H188 H 0.01363 0.63651 0.62755 0.0
H189 H 0.92965 0.53498 0.66805 0.0
C190 C 0.15381 0.95627 0.41943 0.0
C191 C 0.06074 0.90348 0.43033 0.0
C192 C 0.05844 0.78322 0.38575 0.0
C193 C 0.15042 0.83089 0.38367 0.0
N194 N 0.28774 0.96141 0.39949 0.0
N195 N 0.92514 0.75892 0.43639 0.0
C196 C 0.19883 0.91738 0.40044 0.0
C197 C 0.01292 0.81522 0.41591 0.0
N198 N 0.19902 0.04388 0.4253 0.0
N199 N 0.0143 0.70609 0.36043 0.0
H200 H 0.8902 0.7755 0.46509 0.0
H201 H 0.88929 0.69195 0.43224 0.0
H202 H 0.04577 0.67954 0.33962 0.0
H203 H 0.94815 0.67335 0.35457 0.0
H204 H 0.26598 0.08789 0.41088 0.0
H205 H 0.16842 0.07407 0.44041 0.0
H206 H 0.32564 0.01985 0.41856 0.0
H207 H 0.32325 0.93709 0.38185 0.0
C208 C 0.28257 0.05824 0.98233 0.0
C209 C 0.24219 0.10159 0.96308 0.0
C210 C 0.37481 0.20875 0.89084 0.0
C211 C 0.41326 0.16274 0.90816 0.0
N212 N 0.39724 0.03356 0.9594 0.0
N213 N 0.24194 0.20611 0.88986 0.0
C214 C 0.36502 0.08439 0.9507 0.0
C215 C 0.28605 0.17352 0.91468 0.0
N216 N 0.24389 -0.00564 0.03258 0.0
N217 N 0.42407 0.288 0.85385 0.0
H218 H 0.17705 0.18219 0.90605 0.0
H219 H 0.26695 0.25154 0.84984 0.0
H220 H 0.48849 0.31525 0.83426 0.0
H221 H 0.40319 0.32969 0.84597 0.0
H222 H 0.27484 0.96778 0.05343 0.0
H223 H 0.1835 0.97296 0.05704 0.0
H224 H 0.3614 0.97108 0.98481 0.0
H225 H 0.45675 0.05013 0.9359 0.0
C226 C 0.17578 0.31042 0.41025 0.0
C227 C 0.10368 0.26517 0.45838 0.0
C228 C 0.08385 0.38605 0.44562 0.0
C229 C 0.16407 0.43718 0.40556 0.0
N230 N 0.29279 0.45165 0.35445 0.0
N231 N -0.00051 0.26853 0.53021 0.0
C232 C 0.21168 0.40028 0.38855 0.0
C233 C 0.06028 0.30522 0.47822 0.0
N234 N 0.20814 0.26708 0.38387 0.0
N235 N 0.02944 0.41438 0.45185 0.0
H236 H -0.0171 0.21136 0.55748 0.0
H237 H -0.02734 0.29993 0.55008 0.0
H238 H 0.0437 0.47235 0.42693 0.0
H239 H 0.96633 0.37578 0.47614 0.0
H240 H 0.25442 0.29405 0.34426 0.0
H241 H 0.18255 0.20116 0.3981 0.0
H242 H 0.33419 0.43049 0.34651 0.0
H243 H 0.32159 0.51763 0.33784 0.0
C244 C 0.84405 0.06679 0.89745 0.0
C245 C 0.92566 0.11941 0.92128 0.0
C246 C 0.92112 0.24921 0.89972 0.0
C247 C 0.83376 0.19382 0.88623 0.0
N248 N 0.7092 0.04986 0.87428 0.0
N249 N 0.04363 0.26047 0.94434 0.0
C250 C 0.795 0.10289 0.88441 0.0
C251 C 0.96518 0.21089 0.92156 0.0
N252 N 0.81281 -0.01772 0.88742 0.0
N253 N 0.96197 0.33848 0.89069 0.0
H254 H 0.07985 0.23536 0.95729 0.0
H255 H 0.07107 0.32511 0.95302 0.0
H256 H 0.93118 0.36799 0.87413 0.0
H257 H 0.02815 0.3833 0.89423 0.0
H258 H 0.76034 0.94557 0.86246 0.0
H259 H 0.84216 0.94989 0.90006 0.0
H260 H 0.67324 -0.0186 0.88093 0.0
H261 H 0.67164 0.07402 0.86303 0.0
C262 C 0.65412 0.96896 0.4242 0.0
C263 C 0.69056 0.91877 0.42909 0.0
C264 C 0.58652 0.81438 0.3648 0.0
C265 C 0.54129 0.85592 0.36907 0.0
N266 N 0.53132 0.97439 0.39779 0.0
N267 N 0.69521 0.7952 0.40451 0.0
C268 C 0.57574 0.93466 0.39659 0.0
C269 C 0.65864 0.84247 0.39875 0.0
N270 N 0.6948 0.04914 0.44563 0.0
N271 N 0.55984 0.74794 0.32866 0.0
H272 H 0.74941 0.81459 0.42805 0.0
H273 H 0.66901 0.7339 0.38938 0.0
H274 H 0.50654 0.7258 0.30369 0.0
H275 H 0.59475 0.72019 0.31869 0.0
H276 H 0.67616 0.09276 0.43848 0.0
H277 H 0.75137 0.07486 0.46745 0.0
H278 H 0.5462 0.02575 0.42341 0.0
H279 H 0.47708 0.95369 0.37393 0.0
C280 C 0.91516 0.70345 0.87415 0.0
C281 C 0.85548 0.72064 0.90277 0.0
C282 C 0.73058 0.58029 0.88053 0.0
C283 C 0.79001 0.5595 0.85801 0.0
N284 N 0.93486 0.60683 0.81465 0.0
N285 N 0.71044 0.69085 0.91658 0.0
C286 C 0.8813 0.62361 0.84804 0.0
C287 C 0.76417 0.66395 0.90038 0.0
N288 N 0.00337 0.76056 0.87554 0.0
N289 N 0.64228 0.51818 0.88531 0.0
H290 H 0.73405 0.75246 0.93082 0.0
H291 H 0.64409 0.65576 0.91129 0.0
H292 H 0.61652 0.45829 0.86764 0.0
H293 H 0.59481 0.52453 0.90784 0.0
H294 H 0.04959 0.74736 0.86154 0.0
H295 H 0.0306 0.82016 0.89373 0.0
H296 H 0.00158 0.65324 0.80109 0.0
H297 H 0.91036 0.54804 0.79566 0.0
loop_
_geom_bond_atom_site_label_1
_geom_bond_atom_site_label_2
_geom_bond_distance
_geom_bond_site_symmetry_2
_ccdc_geom_bond_type
Tb0 O3 2.453 1_545 S
Tb0 O4 2.596 1_545 S
Tb0 O5 2.374 1_554 S
Tb0 O13 2.337 1_454 S
Tb0 O15 2.352 1_445 S
Tb0 O17 2.427 . S
Tb0 O18 2.513 . S
C1 O5 1.251 . S
C1 O7 1.263 . S
Tb2 O4 2.343 1_656 S
Tb2 O7 2.353 1_665 S
Tb2 O10 2.427 . S
Tb2 O11 2.513 . S
Tb2 O12 2.453 1_565 S
Tb2 O13 2.593 1_565 S
Tb2 O14 2.374 1_556 S
O3 Tb0 2.453 1_565 S
O3 C19 1.245 . S
O4 Tb0 2.596 1_565 S
O4 Tb2 2.343 1_454 S
O4 C19 1.259 . S
O5 Tb0 2.374 1_556 S
O5 C1 1.251 . S
C6 O10 1.275 . S
C6 O11 1.246 . S
O7 C1 1.263 . S
O7 Tb2 2.353 1_445 S
C8 O12 1.245 . S
C8 O13 1.267 . S
C9 O14 1.250 . S
C9 O15 1.264 . S
O10 Tb2 2.427 . S
O10 C6 1.275 . S
O11 Tb2 2.513 . S
O11 C6 1.246 . S
O12 Tb2 2.453 1_545 S
O12 C8 1.245 . S
O13 Tb0 2.337 1_656 S
O13 Tb2 2.593 1_545 S
O13 C8 1.267 . S
O14 Tb2 2.374 1_554 S
O14 C9 1.250 . S
O15 Tb0 2.352 1_665 S
O15 C9 1.264 . S
C16 O17 1.275 . S
C16 O18 1.246 . S
O17 Tb0 2.427 . S
O17 C16 1.275 . S
O18 Tb0 2.513 . S
O18 C16 1.246 . S
C19 O3 1.245 . S
C19 O4 1.259 . S
Tb20 O23 2.453 1_655 S
Tb20 O24 2.596 1_665 S
Tb20 O25 2.374 . S
Tb20 O33 2.343 1_565 S
Tb20 O35 2.353 1_665 S
Tb20 O37 2.427 1_565 S
Tb20 O38 2.513 . S
C21 O25 1.251 . S
C21 O27 1.263 . S
Tb22 O24 2.343 . S
Tb22 O27 2.353 1_445 S
Tb22 O30 2.427 . S
Tb22 O31 2.513 . S
Tb22 O32 2.453 1_455 S
Tb22 O33 2.596 1_455 S
Tb22 O34 2.374 . S
O23 Tb20 2.453 1_455 S
O23 C39 1.245 . S
O24 Tb20 2.596 1_445 S
O24 Tb22 2.343 . S
O24 C39 1.259 1_545 S
O25 Tb20 2.374 . S
O25 C21 1.251 . S
C26 O30 1.275 . S
C26 O31 1.246 . S
O27 C21 1.263 . S
O27 Tb22 2.353 1_665 S
C28 O32 1.245 . S
C28 O33 1.259 . S
C29 O34 1.250 . S
C29 O35 1.263 . S
O30 Tb22 2.427 . S
O30 C26 1.275 . S
O31 Tb22 2.513 . S
O31 C26 1.246 . S
O32 Tb22 2.453 1_655 S
O32 C28 1.245 . S
O33 Tb20 2.343 1_545 S
O33 Tb22 2.596 1_655 S
O33 C28 1.259 . S
O34 Tb22 2.374 . S
O34 C29 1.250 . S
O35 Tb20 2.353 1_445 S
O35 C29 1.263 . S
C36 O37 1.275 1_565 S
C36 O38 1.246 . S
O37 Tb20 2.427 1_545 S
O37 C36 1.275 1_545 S
O38 Tb20 2.513 . S
O38 C36 1.246 . S
C39 O23 1.245 . S
C39 O24 1.259 1_565 S
Zn40 O46 1.920 . S
Zn40 O52 1.898 . S
Zn40 O55 1.905 . S
Zn41 O49 1.905 . S
Zn41 O50 1.898 . S
Zn41 O58 1.920 . S
Zn42 O45 2.080 . S
Zn42 O48 2.114 . S
Zn42 O51 2.120 . S
Zn42 O53 2.120 . S
Zn42 O54 2.114 . S
Zn42 O57 2.080 . S
C43 O48 1.166 . S
C43 O49 1.182 . S
C44 O50 1.167 . S
C44 O51 1.299 . S
O45 Zn42 2.080 . S
O45 C59 1.305 . S
O46 Zn40 1.920 . S
O46 C59 1.234 . S
C47 O52 1.167 . S
C47 O53 1.299 . S
O48 Zn42 2.114 . S
O48 C43 1.166 . S
O49 Zn41 1.905 . S
O49 C43 1.182 . S
O50 Zn41 1.898 . S
O50 C44 1.167 . S
O51 Zn42 2.120 . S
O51 C44 1.299 . S
O52 Zn40 1.898 . S
O52 C47 1.167 . S
O53 Zn42 2.120 . S
O53 C47 1.299 . S
O54 Zn42 2.114 . S
O54 C56 1.166 . S
O55 Zn40 1.905 . S
O55 C56 1.182 . S
C56 O54 1.166 . S
C56 O55 1.182 . S
O57 Zn42 2.080 . S
O57 C60 1.305 . S
O58 Zn41 1.920 . S
O58 C60 1.234 . S
C59 O45 1.305 . S
C59 O46 1.234 . S
C60 O57 1.305 . S
C60 O58 1.234 . S
Zn61 O67 1.920 . S
Zn61 O73 1.898 . S
Zn61 O76 1.905 . S
Zn62 O70 1.905 . S
Zn62 O71 1.898 . S
Zn62 O79 1.920 . S
Zn63 O66 2.080 . S
Zn63 O69 2.114 . S
Zn63 O72 2.120 . S
Zn63 O74 2.120 . S
Zn63 O75 2.114 . S
Zn63 O78 2.080 . S
C64 O69 1.166 . S
C64 O70 1.182 . S
C65 O71 1.167 . S
C65 O72 1.299 . S
O66 Zn63 2.080 . S
O66 C80 1.305 . S
O67 Zn61 1.920 . S
O67 C80 1.234 . S
C68 O73 1.167 . S
C68 O74 1.299 . S
O69 Zn63 2.114 . S
O69 C64 1.166 . S
O70 Zn62 1.905 . S
O70 C64 1.182 . S
O71 Zn62 1.898 . S
O71 C65 1.167 . S
O72 Zn63 2.120 . S
O72 C65 1.299 . S
O73 Zn61 1.898 . S
O73 C68 1.167 . S
O74 Zn63 2.120 . S
O74 C68 1.299 . S
O75 Zn63 2.114 . S
O75 C77 1.166 . S
O76 Zn61 1.905 . S
O76 C77 1.182 . S
C77 O75 1.166 . S
C77 O76 1.182 . S
O78 Zn63 2.080 . S
O78 C81 1.305 . S
O79 Zn62 1.920 . S
O79 C81 1.234 . S
C80 O66 1.305 . S
C80 O67 1.234 . S
C81 O78 1.305 . S
C81 O79 1.234 . S
C82 C83 1.363 . S
C82 C88 1.379 . S
C82 N90 1.356 1_455 S
C83 C82 1.363 . S
C83 C89 1.363 . S
C84 C85 1.363 . S
C84 C89 1.379 . S
C84 N91 1.356 . S
C85 C84 1.363 . S
C85 C88 1.363 . S
N86 C88 1.356 . S
N86 H98 0.984 1_455 S
N86 H99 0.985 . S
N87 C89 1.356 1_545 S
N87 H92 0.984 . S
N87 H93 0.985 . S
C88 C82 1.379 . S
C88 C85 1.363 . S
C88 N86 1.356 . S
C89 C83 1.363 . S
C89 C84 1.379 . S
C89 N87 1.356 1_565 S
N90 C82 1.356 1_655 S
N90 H96 0.984 . S
N90 H97 0.984 . S
N91 C84 1.356 . S
N91 H94 0.984 . S
N91 H95 0.985 . S
H92 N87 0.984 . S
H93 N87 0.985 . S
H94 N91 0.984 . S
H95 N91 0.985 . S
H96 N90 0.984 . S
H97 N90 0.984 . S
H98 N86 0.984 1_655 S
H99 N86 0.985 . S
C100 C101 1.363 . S
C100 C106 1.379 . S
C100 N108 1.356 . S
C101 C100 1.363 . S
C101 C107 1.363 . S
C102 C103 1.363 . S
C102 C107 1.379 . S
C102 N109 1.356 . S
C103 C102 1.363 . S
C103 C106 1.363 . S
N104 C106 1.356 . S
N104 H116 0.984 . S
N104 H117 0.985 . S
N105 C107 1.356 . S
N105 H110 0.984 . S
N105 H111 0.985 . S
C106 C100 1.379 . S
C106 C103 1.363 . S
C106 N104 1.356 . S
C107 C101 1.363 . S
C107 C102 1.379 . S
C107 N105 1.356 . S
N108 C100 1.356 . S
N108 H114 0.984 . S
N108 H115 0.984 . S
N109 C102 1.356 . S
N109 H112 0.984 . S
N109 H113 0.985 . S
H110 N105 0.984 . S
H111 N105 0.985 . S
H112 N109 0.984 . S
H113 N109 0.985 . S
H114 N108 0.984 . S
H115 N108 0.984 . S
H116 N104 0.984 . S
H117 N104 0.985 . S
C118 C119 1.363 . S
C118 C124 1.379 . S
C118 N126 1.356 . S
C119 C118 1.363 . S
C119 C125 1.363 . S
C120 C121 1.363 . S
C120 C125 1.379 . S
C120 N127 1.356 . S
C121 C120 1.363 . S
C121 C124 1.363 . S
N122 C124 1.356 . S
N122 H134 0.984 . S
N122 H135 0.985 . S
N123 C125 1.356 . S
N123 H128 0.984 1_455 S
N123 H129 0.985 1_455 S
C124 C118 1.379 . S
C124 C121 1.363 . S
C124 N122 1.356 . S
C125 C119 1.363 . S
C125 C120 1.379 . S
C125 N123 1.356 . S
N126 C118 1.356 . S
N126 H132 0.984 1_554 S
N126 H133 0.984 . S
N127 C120 1.356 . S
N127 H130 0.984 . S
N127 H131 0.985 . S
H128 N123 0.984 1_655 S
H129 N123 0.985 1_655 S
H130 N127 0.984 . S
H131 N127 0.985 . S
H132 N126 0.984 1_556 S
H133 N126 0.984 . S
H134 N122 0.984 . S
H135 N122 0.985 . S
C136 C137 1.363 . S
C136 C142 1.379 . S
C136 N144 1.356 . S
C137 C136 1.363 . S
C137 C143 1.363 . S
C138 C139 1.363 . S
C138 C143 1.379 . S
C138 N145 1.356 . S
C139 C138 1.363 . S
C139 C142 1.363 . S
N140 C142 1.356 . S
N140 H152 0.984 . S
N140 H153 0.985 . S
N141 C143 1.356 1_455 S
N141 H146 0.984 1_455 S
N141 H147 0.985 . S
C142 C136 1.379 . S
C142 C139 1.363 . S
C142 N140 1.356 . S
C143 C137 1.363 . S
C143 C138 1.379 . S
C143 N141 1.356 1_655 S
N144 C136 1.356 . S
N144 H150 0.984 1_545 S
N144 H151 0.984 1_545 S
N145 C138 1.356 . S
N145 H148 0.984 . S
N145 H149 0.985 1_655 S
H146 N141 0.984 1_655 S
H147 N141 0.985 . S
H148 N145 0.984 . S
H149 N145 0.985 1_455 S
H150 N144 0.984 1_565 S
H151 N144 0.984 1_565 S
H152 N140 0.984 . S
H153 N140 0.985 . S
C154 C155 1.363 . S
C154 C160 1.379 . S
C154 N162 1.356 . S
C155 C154 1.363 . S
C155 C161 1.363 . S
C156 C157 1.363 . S
C156 C161 1.379 . S
C156 N163 1.356 . S
C157 C156 1.363 . S
C157 C160 1.363 . S
N158 C160 1.356 . S
N158 H170 0.984 . S
N158 H171 0.985 . S
N159 C161 1.356 . S
N159 H164 0.984 . S
N159 H165 0.985 1_565 S
C160 C154 1.379 . S
C160 C157 1.363 . S
C160 N158 1.356 . S
C161 C155 1.363 . S
C161 C156 1.379 . S
C161 N159 1.356 . S
N162 C154 1.356 . S
N162 H168 0.984 1_554 S
N162 H169 0.984 . S
N163 C156 1.356 . S
N163 H166 0.984 . S
N163 H167 0.985 . S
H164 N159 0.984 . S
H165 N159 0.985 1_545 S
H166 N163 0.984 . S
H167 N163 0.985 . S
H168 N162 0.984 1_556 S
H169 N162 0.984 . S
H170 N158 0.984 . S
H171 N158 0.985 . S
C172 C173 1.363 . S
C172 C178 1.379 . S
C172 N180 1.356 1_655 S
C173 C172 1.363 . S
C173 C179 1.363 . S
C174 C175 1.363 . S
C174 C179 1.379 . S
C174 N181 1.356 . S
C175 C174 1.363 . S
C175 C178 1.363 . S
N176 C178 1.356 . S
N176 H188 0.984 . S
N176 H189 0.985 . S
N177 C179 1.356 . S
N177 H182 0.984 . S
N177 H183 0.985 . S
C178 C172 1.379 . S
C178 C175 1.363 . S
C178 N176 1.356 . S
C179 C173 1.363 . S
C179 C174 1.379 . S
C179 N177 1.356 . S
N180 C172 1.356 1_455 S
N180 H186 0.984 . S
N180 H187 0.984 . S
N181 C174 1.356 . S
N181 H184 0.984 . S
N181 H185 0.985 . S
H182 N177 0.984 . S
H183 N177 0.985 . S
H184 N181 0.984 . S
H185 N181 0.985 . S
H186 N180 0.984 . S
H187 N180 0.984 . S
H188 N176 0.984 . S
H189 N176 0.985 . S
C190 C191 1.363 . S
C190 C196 1.379 . S
C190 N198 1.356 1_565 S
C191 C190 1.363 . S
C191 C197 1.363 . S
C192 C193 1.363 . S
C192 C197 1.379 . S
C192 N199 1.356 . S
C193 C192 1.363 . S
C193 C196 1.363 . S
N194 C196 1.356 . S
N194 H206 0.984 1_565 S
N194 H207 0.985 . S
N195 C197 1.356 . S
N195 H200 0.984 . S
N195 H201 0.985 . S
C196 C190 1.379 . S
C196 C193 1.363 . S
C196 N194 1.356 . S
C197 C191 1.363 . S
C197 C192 1.379 . S
C197 N195 1.356 . S
N198 C190 1.356 1_545 S
N198 H204 0.984 . S
N198 H205 0.984 . S
N199 C192 1.356 . S
N199 H202 0.984 . S
N199 H203 0.985 . S
H200 N195 0.984 . S
H201 N195 0.985 . S
H202 N199 0.984 . S
H203 N199 0.985 . S
H204 N198 0.984 . S
H205 N198 0.984 . S
H206 N194 0.984 1_545 S
H207 N194 0.985 . S
C208 C209 1.363 . S
C208 C214 1.379 . S
C208 N216 1.356 . S
C209 C208 1.363 . S
C209 C215 1.363 . S
C210 C211 1.363 . S
C210 C215 1.379 . S
C210 N217 1.356 . S
C211 C210 1.363 . S
C211 C214 1.363 . S
N212 C214 1.356 . S
N212 H224 0.984 . S
N212 H225 0.985 . S
N213 C215 1.356 . S
N213 H218 0.984 . S
N213 H219 0.985 . S
C214 C208 1.379 . S
C214 C211 1.363 . S
C214 N212 1.356 . S
C215 C209 1.363 . S
C215 C210 1.379 . S
C215 N213 1.356 . S
N216 C208 1.356 . S
N216 H222 0.984 1_545 S
N216 H223 0.984 . S
N217 C210 1.356 . S
N217 H220 0.984 . S
N217 H221 0.985 . S
H218 N213 0.984 . S
H219 N213 0.985 . S
H220 N217 0.984 . S
H221 N217 0.985 . S
H222 N216 0.984 1_565 S
H223 N216 0.984 . S
H224 N212 0.984 . S
H225 N212 0.985 . S
C226 C227 1.363 . S
C226 C232 1.379 . S
C226 N234 1.356 . S
C227 C226 1.363 . S
C227 C233 1.363 . S
C228 C229 1.363 . S
C228 C233 1.379 . S
C228 N235 1.356 . S
C229 C228 1.363 . S
C229 C232 1.363 . S
N230 C232 1.356 . S
N230 H242 0.984 . S
N230 H243 0.985 . S
N231 C233 1.356 . S
N231 H236 0.984 . S
N231 H237 0.985 . S
C232 C226 1.379 . S
C232 C229 1.363 . S
C232 N230 1.356 . S
C233 C227 1.363 . S
C233 C228 1.379 . S
C233 N231 1.356 . S
N234 C226 1.356 . S
N234 H240 0.984 . S
N234 H241 0.984 . S
N235 C228 1.356 . S
N235 H238 0.984 . S
N235 H239 0.985 . S
H236 N231 0.984 . S
H237 N231 0.985 . S
H238 N235 0.984 . S
H239 N235 0.985 . S
H240 N234 0.984 . S
H241 N234 0.984 . S
H242 N230 0.984 . S
H243 N230 0.985 . S
C244 C245 1.363 . S
C244 C250 1.379 . S
C244 N252 1.356 . S
C245 C244 1.363 . S
C245 C251 1.363 . S
C246 C247 1.363 . S
C246 C251 1.379 . S
C246 N253 1.356 . S
C247 C246 1.363 . S
C247 C250 1.363 . S
N248 C250 1.356 . S
N248 H260 0.984 1_545 S
N248 H261 0.985 . S
N249 C251 1.356 1_455 S
N249 H254 0.984 . S
N249 H255 0.985 . S
C250 C244 1.379 . S
C250 C247 1.363 . S
C250 N248 1.356 . S
C251 C245 1.363 . S
C251 C246 1.379 . S
C251 N249 1.356 1_655 S
N252 C244 1.356 . S
N252 H258 0.984 1_545 S
N252 H259 0.984 . S
N253 C246 1.356 . S
N253 H256 0.984 . S
N253 H257 0.985 . S
H254 N249 0.984 . S
H255 N249 0.985 . S
H256 N253 0.984 . S
H257 N253 0.985 . S
H258 N252 0.984 1_565 S
H259 N252 0.984 . S
H260 N248 0.984 1_565 S
H261 N248 0.985 . S
C262 C263 1.363 . S
C262 C268 1.379 . S
C262 N270 1.356 1_565 S
C263 C262 1.363 . S
C263 C269 1.363 . S
C264 C265 1.363 . S
C264 C269 1.379 . S
C264 N271 1.356 . S
C265 C264 1.363 . S
C265 C268 1.363 . S
N266 C268 1.356 . S
N266 H278 0.984 . S
N266 H279 0.985 . S
N267 C269 1.356 . S
N267 H272 0.984 . S
N267 H273 0.985 . S
C268 C262 1.379 . S
C268 C265 1.363 . S
C268 N266 1.356 . S
C269 C263 1.363 . S
C269 C264 1.379 . S
C269 N267 1.356 . S
N270 C262 1.356 1_545 S
N270 H276 0.984 . S
N270 H277 0.984 . S
N271 C264 1.356 . S
N271 H274 0.984 . S
N271 H275 0.985 . S
H272 N267 0.984 . S
H273 N267 0.985 . S
H274 N271 0.984 . S
H275 N271 0.985 . S
H276 N270 0.984 . S
H277 N270 0.984 . S
H278 N266 0.984 . S
H279 N266 0.985 . S
C280 C281 1.363 . S
C280 C286 1.379 . S
C280 N288 1.356 1_655 S
C281 C280 1.363 . S
C281 C287 1.363 . S
C282 C283 1.363 . S
C282 C287 1.379 . S
C282 N289 1.356 . S
C283 C282 1.363 . S
C283 C286 1.363 . S
N284 C286 1.356 . S
N284 H296 0.984 1_655 S
N284 H297 0.985 . S
N285 C287 1.356 . S
N285 H290 0.984 . S
N285 H291 0.985 . S
C286 C280 1.379 . S
C286 C283 1.363 . S
C286 N284 1.356 . S
C287 C281 1.363 . S
C287 C282 1.379 . S
C287 N285 1.356 . S
N288 C280 1.356 1_455 S
N288 H294 0.984 . S
N288 H295 0.984 . S
N289 C282 1.356 . S
N289 H292 0.984 . S
N289 H293 0.985 . S
H290 N285 0.984 . S
H291 N285 0.985 . S
H292 N289 0.984 . S
H293 N289 0.985 . S
H294 N288 0.984 . S
H295 N288 0.984 . S
H296 N284 0.984 1_455 S
H297 N284 0.985 . S
C83 C19 1.491 . S
C85 C59 1.447 . S
C101 C26 1.325 . S
C103 C65 1.228 . S
C119 C16 1.269 . S
C121 C56 1.245 . S
C137 C28 1.564 . S
C139 C81 1.540 . S
C155 C9 1.860 . S
C157 C47 1.686 . S
C175 C64 1.580 . S
C173 C21 1.651 . S
C191 C39 1.492 . S
C193 C60 1.447 . S
C211 C77 1.580 . S
C209 C1 1.651 . S
C229 C44 1.686 . S
C227 C29 1.859 . S
C247 C80 1.540 . S
C245 C8 1.564 . S
C265 C43 1.245 . S
C263 C36 1.269 . S
C283 C68 1.228 . S
C281 C6 1.325 . S
