# Generated by pormake.
# Topology zzz, (3,6)-cn, num edge types: 1
# Building blocks:
#     Node 0, Type 0, BuildingBlock: WUSLED_clean_sbu_0, # of connection points: 3
#     Node 1, Type 0, BuildingBlock: WUSLED_clean_sbu_0, # of connection points: 3
#     Node 2, Type 0, BuildingBlock: WUSLED_clean_sbu_0, # of connection points: 3
#     Node 3, Type 0, BuildingBlock: WUSLED_clean_sbu_0, # of connection points: 3
#     Node 4, Type 0, BuildingBlock: WUSLED_clean_sbu_0, # of connection points: 3
#     Node 5, Type 0, BuildingBlock: WUSLED_clean_sbu_0, # of connection points: 3
#     Node 6, Type 0, BuildingBlock: WUSLED_clean_sbu_0, # of connection points: 3
#     Node 7, Type 0, BuildingBlock: WUSLED_clean_sbu_0, # of connection points: 3
#     Node 8, Type 1, BuildingBlock: PAMTUU_clean_sbu_0, # of connection points: 6
#     Node 9, Type 1, BuildingBlock: PAMTUU_clean_sbu_0, # of connection points: 6
#     Node 10, Type 1, BuildingBlock: PAMTUU_clean_sbu_0, # of connection points: 6
#     Node 11, Type 1, BuildingBlock: PAMTUU_clean_sbu_0, # of connection points: 6
#     Edge 12, Type (0, 1), BuildingBlock: CIFDUS_clean_linker_0, # of connection points: 2
#     Edge 13, Type (0, 1), BuildingBlock: CIFDUS_clean_linker_0, # of connection points: 2
#     Edge 14, Type (0, 1), BuildingBlock: CIFDUS_clean_linker_0, # of connection points: 2
#     Edge 15, Type (0, 1), BuildingBlock: CIFDUS_clean_linker_0, # of connection points: 2
#     Edge 16, Type (0, 1), BuildingBlock: CIFDUS_clean_linker_0, # of connection points: 2
#     Edge 17, Type (0, 1), BuildingBlock: CIFDUS_clean_linker_0, # of connection points: 2
#     Edge 18, Type (0, 1), BuildingBlock: CIFDUS_clean_linker_0, # of connection points: 2
#     Edge 19, Type (0, 1), BuildingBlock: CIFDUS_clean_linker_0, # of connection points: 2
#     Edge 20, Type (0, 1), BuildingBlock: CIFDUS_clean_linker_0, # of connection points: 2
#     Edge 21, Type (0, 1), BuildingBlock: CIFDUS_clean_linker_0, # of connection points: 2
#     Edge 22, Type (0, 1), BuildingBlock: CIFDUS_clean_linker_0, # of connection points: 2
#     Edge 23, Type (0, 1), BuildingBlock: CIFDUS_clean_linker_0, # of connection points: 2
#     Edge 24, Type (0, 1), BuildingBlock: CIFDUS_clean_linker_0, # of connection points: 2
#     Edge 25, Type (0, 1), BuildingBlock: CIFDUS_clean_linker_0, # of connection points: 2
#     Edge 26, Type (0, 1), BuildingBlock: CIFDUS_clean_linker_0, # of connection points: 2
#     Edge 27, Type (0, 1), BuildingBlock: CIFDUS_clean_linker_0, # of connection points: 2
#     Edge 28, Type (0, 1), BuildingBlock: CIFDUS_clean_linker_0, # of connection points: 2
#     Edge 29, Type (0, 1), BuildingBlock: CIFDUS_clean_linker_0, # of connection points: 2
#     Edge 30, Type (0, 1), BuildingBlock: CIFDUS_clean_linker_0, # of connection points: 2
#     Edge 31, Type (0, 1), BuildingBlock: CIFDUS_clean_linker_0, # of connection points: 2
#     Edge 32, Type (0, 1), BuildingBlock: CIFDUS_clean_linker_0, # of connection points: 2
#     Edge 33, Type (0, 1), BuildingBlock: CIFDUS_clean_linker_0, # of connection points: 2
#     Edge 34, Type (0, 1), BuildingBlock: CIFDUS_clean_linker_0, # of connection points: 2
#     Edge 35, Type (0, 1), BuildingBlock: CIFDUS_clean_linker_0, # of connection points: 2
# Relax obj value: 0.368
# Max RMSD: 0.260
# Mean RMSD: 0.214
data_MOF--net-zzz--node1-WUSLED_clean_sbu_0--node2-PAMTUU_clean_sbu_0--edge1-CIFDUS_clean_linker_0
_symmetry_space_group_name_H-M    P1
_symmetry_Int_Tables_number       1
_symmetry_cell_setting            triclinic
loop_
_symmetry_equiv_pos_as_xyz
'x, y, z'
_cell_length_a     55.685328
_cell_length_b     59.840156
_cell_length_c     19.886733
_cell_angle_alpha  97.990007
_cell_angle_beta   89.761479
_cell_angle_gamma 89.85781
loop_
_atom_site_label
_atom_site_type_symbol
_atom_site_fract_x
_atom_site_fract_y
_atom_site_fract_z
_atom_type_partial_charge
C0 C 0.80984 0.49246 0.48337 0.0
C1 C 0.83172 0.49745 0.45326 0.0
C2 C 0.85317 0.49634 0.56059 0.0
C3 C 0.85305 0.49961 0.4915 0.0
C4 C 0.83116 0.49088 0.58966 0.0
C5 C 0.80989 0.48916 0.55183 0.0
U6 U 0.76315 0.50624 0.34803 0.0
O7 O 0.72355 0.50913 0.35599 0.0
O8 O 0.74001 0.48202 0.28527 0.0
C9 C 0.72002 0.49245 0.30658 0.0
C10 C 0.78682 0.48975 0.44511 0.0
C11 C 0.70246 0.49641 0.25319 0.0
C12 C 0.66085 0.49648 0.21468 0.0
C13 C 0.67777 0.49439 0.26564 0.0
C14 C 0.69299 0.50294 0.13766 0.0
C15 C 0.66817 0.50061 0.14959 0.0
C16 C 0.7099 0.50089 0.18876 0.0
C17 C 0.80987 0.54564 0.29309 0.0
C18 C 0.84529 0.55458 0.23112 0.0
C19 C 0.84923 0.54451 0.3445 0.0
C20 C 0.82426 0.5428 0.34905 0.0
C21 C 0.86001 0.54926 0.28404 0.0
C22 C 0.82039 0.55264 0.23553 0.0
C23 C 0.78535 0.53674 0.28831 0.0
O24 O 0.77129 0.50644 0.45678 0.0
O25 O 0.78787 0.48098 0.38074 0.0
O26 O 0.78439 0.5153 0.2629 0.0
O27 O 0.77145 0.54193 0.34189 0.0
H28 H 0.83238 0.49965 0.40018 0.0
H29 H 0.86935 0.50406 0.46677 0.0
H30 H 0.83025 0.48754 0.6417 0.0
H31 H 0.79337 0.48493 0.57612 0.0
H32 H 0.64199 0.49498 0.22657 0.0
H33 H 0.67154 0.49091 0.31481 0.0
H34 H 0.69948 0.50585 0.08824 0.0
H35 H 0.72882 0.50246 0.17751 0.0
H36 H 0.85304 0.55809 0.18366 0.0
H37 H 0.86014 0.54054 0.38625 0.0
H38 H 0.81633 0.53757 0.39414 0.0
H39 H 0.80953 0.55478 0.19175 0.0
C40 C 0.99949 0.78938 0.50357 0.0
C41 C 0.99957 0.80576 0.45939 0.0
C42 C 1.00282 0.83565 0.55596 0.0
C43 C 1.00118 0.82874 0.48541 0.0
C44 C 1.00274 0.81907 0.59963 0.0
C45 C 1.00111 0.79621 0.57365 0.0
U46 U 1.00224 0.73694 0.36562 0.0
O47 O 1.01565 0.70306 0.37695 0.0
O48 O 0.97767 0.7079 0.35399 0.0
C49 C 0.99492 0.69337 0.36074 0.0
C50 C 0.99735 0.76513 0.47866 0.0
C51 C 0.99585 0.67345 0.30825 0.0
C52 C 0.98869 0.63342 0.27495 0.0
C53 C 0.98768 0.65264 0.32375 0.0
C54 C 1.00591 0.65569 0.19411 0.0
C55 C 0.99793 0.63465 0.20957 0.0
C56 C 1.00486 0.67492 0.24302 0.0
C57 C 1.01956 0.77537 0.23378 0.0
C58 C 1.01687 0.80021 0.14754 0.0
C59 C 0.03616 0.81324 0.25483 0.0
C60 C 0.03146 0.79242 0.27671 0.0
C61 C 0.02882 0.81734 0.19005 0.0
C62 C 1.01233 0.77943 0.16921 0.0
C63 C 1.01442 0.75323 0.25458 0.0
O64 O 0.97951 0.75918 0.43695 0.0
O65 O 1.0175 0.75442 0.4606 0.0
O66 O 0.03011 0.74553 0.29505 0.0
O67 O 0.992 0.74998 0.27162 0.0
H68 H 0.99833 0.80079 0.40503 0.0
H69 H 1.00142 0.84106 0.45034 0.0
H70 H 1.00359 0.82376 0.65416 0.0
H71 H 1.00095 0.78381 0.60853 0.0
H72 H 0.98208 0.61761 0.28836 0.0
H73 H 0.98056 0.65122 0.37377 0.0
H74 H 1.01341 0.65722 0.14464 0.0
H75 H 1.01124 0.6909 0.23017 0.0
H76 H 1.01127 0.80278 0.09706 0.0
H77 H 0.04522 0.82621 0.28883 0.0
H78 H 0.03708 0.78967 0.32701 0.0
H79 H 1.00318 0.76646 0.13536 0.0
C80 C 0.75826 1.0002 0.52741 0.0
C81 C 0.73857 0.00474 0.48735 0.0
C82 C 0.71039 0.99942 0.57896 0.0
C83 C 0.71501 1.00442 0.51278 0.0
C84 C 0.73024 0.99474 0.61868 0.0
C85 C 0.75383 0.99515 0.59322 0.0
U86 U 0.80309 0.99839 0.38016 0.0
O87 O 0.83311 0.02116 0.36494 0.0
O88 O 0.84001 0.98508 0.36428 0.0
C89 C 0.8487 1.00454 0.35183 0.0
C90 C 0.78337 1.00136 0.5019 0.0
C91 C 0.86397 1.0043 0.28941 0.0
C92 C 0.8916 0.9847 0.20461 0.0
C93 C 0.8762 0.98459 0.26079 0.0
C94 C 0.88311 0.02426 0.20406 0.0
C95 C 0.89541 1.00457 0.1754 0.0
C96 C 0.86771 0.02414 0.26015 0.0
C97 C 0.77574 0.9896 0.20163 0.0
C98 C 0.78449 0.00984 0.10683 0.0
C99 C 0.75268 0.98208 0.09856 0.0
C100 C 0.75834 0.97704 0.16287 0.0
C101 C 0.76423 1.00003 0.07246 0.0
C102 C 0.79013 0.00475 0.1715 0.0
C103 C 0.77465 0.99032 0.27553 0.0
O104 O 0.79257 0.98251 0.46999 0.0
O105 O 0.7883 0.01894 0.47139 0.0
O106 O 0.77747 0.01043 0.31051 0.0
O107 O 0.78563 0.97411 0.30173 0.0
H108 H 0.74143 0.00875 0.43646 0.0
H109 H 0.70042 0.00846 0.4807 0.0
H110 H 0.7276 0.99048 0.66933 0.0
H111 H 0.76866 0.99157 0.62518 0.0
H112 H 0.90043 0.9691 0.18386 0.0
H113 H 0.87405 0.96902 0.28217 0.0
H114 H 0.88578 0.04002 0.18419 0.0
H115 H 0.85899 0.03977 0.28118 0.0
H116 H 0.79427 0.02319 0.08729 0.0
H117 H 0.7371 0.97386 0.07405 0.0
H118 H 0.74729 0.96506 0.1851 0.0
H119 H 0.80409 0.01428 0.20039 0.0
C120 C 0.58645 0.73825 0.32839 0.0
C121 C 0.5904 0.71708 0.2896 0.0
C122 C 0.59096 0.6989 0.39176 0.0
C123 C 0.5927 0.69771 0.3208 0.0
C124 C 0.5869 0.72011 0.43076 0.0
C125 C 0.58469 0.73965 0.39927 0.0
U126 U 0.56751 0.75769 0.1687 0.0
O127 O 0.54446 0.78499 0.14132 0.0
O128 O 0.58167 0.78152 0.10371 0.0
C129 C 0.5616 0.79329 0.10638 0.0
C130 C 0.58249 0.75816 0.29333 0.0
C131 C 0.56353 0.8182 0.11039 0.0
C132 C 0.54327 0.85466 0.11701 0.0
C133 C 0.54346 0.8321 0.12869 0.0
C134 C 0.58364 0.85029 0.07168 0.0
C135 C 0.56304 0.86379 0.0861 0.0
C136 C 0.58385 0.82777 0.08347 0.0
C137 C 0.54995 0.70449 0.03964 0.0
C138 C 0.51828 0.68215 0.97936 0.0
C139 C 0.55958 0.67657 0.94223 0.0
C140 C 0.5668 0.69361 0.99331 0.0
C141 C 0.53539 0.66992 0.9369 0.0
C142 C 0.52549 0.69922 0.03037 0.0
C143 C 0.55828 0.71735 0.10419 0.0
O144 O 0.59716 0.75969 0.24213 0.0
O145 O 0.55993 0.7618 0.27872 0.0
O146 O 0.54237 0.72968 0.14184 0.0
O147 O 0.57963 0.72672 0.10475 0.0
H148 H 0.59136 0.71545 0.23473 0.0
H149 H 0.5953 0.68166 0.289 0.0
H150 H 0.58555 0.72162 0.48555 0.0
H151 H 0.58135 0.75575 0.43011 0.0
H152 H 0.52704 0.86451 0.12824 0.0
H153 H 0.52734 0.82523 0.14845 0.0
H154 H 0.5993 0.85688 0.0487 0.0
H155 H 0.59952 0.81755 0.06794 0.0
H156 H 0.49948 0.67754 0.97587 0.0
H157 H 0.57323 0.66735 0.91071 0.0
H158 H 0.58581 0.69706 0.99949 0.0
H159 H 0.51203 0.70716 0.06536 0.0
C160 C 0.25187 0.48735 0.0578 0.0
C161 C 0.23274 0.48028 0.0961 0.0
C162 C 0.2035 0.48897 1.01119 0.0
C163 C 0.20892 0.48104 0.07306 0.0
C164 C 0.22272 0.49649 0.97384 0.0
C165 C 0.24653 0.49563 0.99678 0.0
U166 U 0.30191 0.48953 0.19352 0.0
O167 O 0.33367 0.46785 0.19945 0.0
O168 O 0.33846 0.50393 0.19531 0.0
C169 C 0.34862 0.48501 0.20704 0.0
C170 C 0.27744 0.48555 0.07898 0.0
C171 C 0.36462 0.48673 0.26744 0.0
C172 C 0.40352 0.49623 0.32013 0.0
C173 C 0.38834 0.49433 0.26327 0.0
C174 C 0.37152 0.48291 0.38661 0.0
C175 C 0.3954 0.49052 0.38287 0.0
C176 C 0.35634 0.48115 0.32988 0.0
C177 C 0.26501 0.50587 0.37013 0.0
C178 C 0.24122 0.53317 0.44326 0.0
C179 C 0.24757 0.49577 0.47377 0.0
C180 C 0.26147 0.4901 0.41523 0.0
C181 C 0.2368 0.51722 0.48756 0.0
C182 C 0.2553 0.52758 0.38544 0.0
C183 C 0.27837 0.49974 0.30656 0.0
O184 O 0.28789 0.50438 0.10559 0.0
O185 O 0.28299 0.46837 0.11077 0.0
O186 O 0.28204 0.47865 0.27961 0.0
O187 O 0.28688 0.51519 0.27203 0.0
H188 H 0.2362 0.47397 0.14362 0.0
H189 H 0.1947 0.47544 0.104 0.0
H190 H 0.21948 0.50249 0.92577 0.0
H191 H 0.26088 0.50116 0.96611 0.0
H192 H 0.42154 0.50254 0.315 0.0
H193 H 0.39514 0.49893 0.21596 0.0
H194 H 0.36453 0.47801 0.43328 0.0
H195 H 0.33808 0.47535 0.33487 0.0
H196 H 0.23282 0.54966 0.45108 0.0
H197 H 0.24476 0.48319 0.50721 0.0
H198 H 0.26912 0.4733 0.40476 0.0
H199 H 0.25781 0.54005 0.35143 0.0
C200 C 0.06212 0.21777 0.0987 0.0
C201 C 0.07376 0.20114 0.13017 0.0
C202 C 0.05658 0.17141 0.04789 0.0
C203 C 0.07108 0.17825 0.10492 0.0
C204 C 0.04462 0.18815 0.01738 0.0
C205 C 0.04746 0.21103 0.04234 0.0
U206 U 0.06238 0.27023 0.23527 0.0
O207 O 0.08803 0.2984 0.25018 0.0
O208 O 0.05047 0.30479 0.22614 0.0
C209 C 0.07122 0.31365 0.24649 0.0
C210 C 0.06569 0.24215 0.12167 0.0
C211 C 0.06973 0.33169 0.30489 0.0
C212 C 0.0647 0.37135 0.35002 0.0
C213 C 0.06791 0.35435 0.29465 0.0
C214 C 0.06562 0.34319 0.42649 0.0
C215 C 0.06317 0.36594 0.4166 0.0
C216 C 0.06875 0.32626 0.37123 0.0
C217 C 0.04112 0.23245 0.36525 0.0
C218 C 0.02757 0.21164 0.45434 0.0
C219 C 0.03023 0.19295 0.33825 0.0
C220 C 0.03847 0.21303 0.31751 0.0
C221 C 0.02444 0.19215 0.40687 0.0
C222 C 0.03581 0.23159 0.43364 0.0
C223 C 0.0486 0.25402 0.34513 0.0
O224 O 0.04621 0.25398 0.13984 0.0
O225 O 0.08406 0.24775 0.16185 0.0
O226 O 0.07126 0.25547 0.32749 0.0
O227 O 0.03372 0.26286 0.30496 0.0
H228 H 0.08519 0.20578 0.1738 0.0
H229 H 0.08082 0.16595 0.12939 0.0
H230 H 0.03294 0.1836 0.9743 0.0
H231 H 0.03827 0.22352 0.01723 0.0
H232 H 0.06261 0.38863 0.34045 0.0
H233 H 0.06845 0.35884 0.24373 0.0
H234 H 0.06491 0.33843 0.47704 0.0
H235 H 0.07002 0.30885 0.38023 0.0
H236 H 0.02375 0.21145 0.50771 0.0
H237 H 0.02792 0.17823 0.30052 0.0
H238 H 0.04247 0.21349 0.26436 0.0
H239 H 0.03787 0.24644 0.47108 0.0
C240 C 0.30816 0.99617 0.06865 0.0
C241 C 0.32476 0.01276 0.09508 0.0
C242 C 0.35615 0.99581 0.01628 0.0
C243 C 0.3485 0.01247 0.06966 0.0
C244 C 0.339 0.97977 0.98884 0.0
C245 C 0.31556 0.97986 0.01498 0.0
U246 U 0.25619 0.00967 0.20232 0.0
O247 O 0.21722 0.016 0.1912 0.0
O248 O 0.22959 0.98509 0.22778 0.0
C249 C 0.21119 0.99823 0.21976 0.0
C250 C 0.28315 0.99504 0.09531 0.0
C251 C 0.19355 1.00173 0.27726 0.0
C252 C 0.15329 0.01248 0.31951 0.0
C253 C 0.17066 0.01062 0.26754 0.0
C254 C 0.18136 0.99689 0.39288 0.0
C255 C 0.15819 0.0053 0.38279 0.0
C256 C 0.19878 0.99518 0.34105 0.0
C257 C 0.30154 0.04179 0.31951 0.0
C258 C 0.32884 0.05993 0.40416 0.0
C259 C 0.34326 0.03043 0.31724 0.0
C260 C 0.32054 0.02884 0.28827 0.0
C261 C 0.34716 0.04487 0.37822 0.0
C262 C 0.30603 0.05827 0.37509 0.0
C263 C 0.27685 0.03496 0.30346 0.0
O264 O 0.28018 0.98389 0.14718 0.0
O265 O 0.26991 0.01345 0.10001 0.0
O266 O 0.26668 0.0434 0.25302 0.0
O267 O 0.27326 0.0132 0.30178 0.0
H268 H 0.31944 0.02586 0.13548 0.0
H269 H 0.36091 0.02513 0.09281 0.0
H270 H 0.34353 0.96706 0.9465 0.0
H271 H 0.30308 0.96705 0.99291 0.0
H272 H 0.13591 0.01948 0.30977 0.0
H273 H 0.16606 0.01586 0.2192 0.0
H274 H 0.18592 0.99092 0.44018 0.0
H275 H 0.21622 0.98826 0.35071 0.0
H276 H 0.33152 0.0715 0.45044 0.0
H277 H 0.35686 0.01847 0.29609 0.0
H278 H 0.31724 0.01581 0.2459 0.0
H279 H 0.2915 0.06844 0.39954 0.0
C280 C 0.48163 0.26904 0.2603 0.0
C281 C 0.4906 0.28903 0.29667 0.0
C282 C 0.48289 0.3092 0.20049 0.0
C283 C 0.49123 0.30891 0.26709 0.0
C284 C 0.47367 0.28912 0.16455 0.0
C285 C 0.47308 0.26922 0.19422 0.0
U286 U 0.49579 0.2392 0.4103 0.0
O287 O 0.47505 0.21418 0.4582 0.0
O288 O 0.51073 0.20542 0.41441 0.0
C289 C 0.49222 0.19893 0.44813 0.0
C290 C 0.48145 0.24805 0.29115 0.0
C291 C 0.49718 0.18542 0.50362 0.0
C292 C 0.48298 0.15708 0.57117 0.0
C293 C 0.4784 0.17293 0.52728 0.0
C294 C 0.52521 0.16645 0.57086 0.0
C295 C 0.50653 0.15322 0.59227 0.0
C296 C 0.52061 0.18235 0.52691 0.0
C297 C 0.52374 0.28616 0.55263 0.0
C298 C 0.55542 0.31164 0.59913 0.0
C299 C 0.51601 0.31411 0.65133 0.0
C300 C 0.50836 0.29586 0.60491 0.0
C301 C 0.53923 0.32304 0.64652 0.0
C302 C 0.54771 0.29345 0.55241 0.0
C303 C 0.51361 0.27365 0.48987 0.0
O304 O 0.50276 0.23972 0.30149 0.0
O305 O 0.46694 0.24815 0.34344 0.0
O306 O 0.49067 0.26846 0.48844 0.0
O307 O 0.52712 0.2596 0.44911 0.0
H308 H 0.4972 0.28923 0.34793 0.0
H309 H 0.49813 0.3241 0.2966 0.0
H310 H 0.46734 0.28868 0.11296 0.0
H311 H 0.46612 0.25393 0.16538 0.0
H312 H 0.46808 0.14752 0.58756 0.0
H313 H 0.4602 0.17484 0.50979 0.0
H314 H 0.5436 0.16385 0.58563 0.0
H315 H 0.53553 0.19159 0.50929 0.0
H316 H 0.57359 0.31774 0.59502 0.0
H317 H 0.50294 0.32243 0.68682 0.0
H318 H 0.48973 0.29078 0.60641 0.0
H319 H 0.55997 0.2864 0.51254 0.0
Tb320 Tb 1.0152 0.01031 0.7476 0.0
Tb321 Tb 0.05557 0.99612 0.85314 0.0
C322 C 1.00079 0.99749 0.89201 0.0
C323 C 0.99095 0.03977 0.6145 0.0
C324 C 0.99982 0.07326 0.53103 0.0
C325 C 0.97615 0.06813 0.54874 0.0
C326 C 0.97176 0.05149 0.59022 0.0
C327 C 1.01452 0.04442 0.59552 0.0
C328 C 1.01892 0.06093 0.55397 0.0
C329 C 0.98674 0.0241 0.66394 0.0
O330 O 0.03602 0.04044 0.7822 0.0
O331 O 0.04622 0.03125 0.88571 0.0
O332 O 0.07622 0.00939 0.77371 0.0
O333 O 0.04828 1.00314 0.6888 0.0
O334 O 0.07031 1.00108 0.95101 0.0
O335 O 0.08522 0.97621 0.8734 0.0
O336 O 0.04768 0.96586 0.78301 0.0
O337 O 1.01018 0.9742 0.7455 0.0
O338 O 0.99649 0.01054 0.84517 0.0
O339 O 1.0212 0.98643 0.89291 0.0
C340 C 0.04251 0.04644 0.8454 0.0
O341 O 0.99829 0.00497 0.65256 0.0
O342 O 0.98827 0.03309 0.72732 0.0
C343 C 0.07057 0.00697 0.70882 0.0
C344 C 0.08221 0.96618 0.98345 0.0
C345 C 0.07537 0.92965 0.05722 0.0
C346 C 0.09646 0.93121 0.01895 0.0
C347 C 0.09983 0.94933 0.98235 0.0
C348 C 0.06159 0.96509 0.02383 0.0
C349 C 0.05825 0.94708 0.06045 0.0
C350 C 0.08446 0.98363 0.93812 0.0
C351 C 0.02737 0.95965 0.75265 0.0
H352 H 0.96108 0.07724 0.53145 0.0
H353 H 0.95348 0.04819 0.60473 0.0
H354 H 0.02962 0.03575 0.61451 0.0
H355 H 0.03736 0.06471 0.54225 0.0
H356 H 0.10989 0.91797 0.01498 0.0
H357 H 0.11582 0.94978 0.95133 0.0
H358 H 0.04767 0.97784 0.02583 0.0
H359 H 0.042 0.94658 0.09035 0.0
Tb360 Tb 0.52873 0.98882 0.76128 0.0
Tb361 Tb 0.5462 0.02287 0.89183 0.0
C362 C 0.55029 0.97018 0.88529 0.0
C363 C 0.49146 0.96921 0.62074 0.0
C364 C 0.45632 0.98772 0.54381 0.0
C365 C 0.47147 0.97027 0.51328 0.0
C366 C 0.48915 0.96122 0.55151 0.0
C367 C 0.47555 0.98567 0.6519 0.0
C368 C 0.4584 0.99503 0.61383 0.0
C369 C 0.51293 0.96444 0.65804 0.0
O370 O 0.499 0.99105 0.83573 0.0
O371 O 0.50721 0.0252 0.89924 0.0
O372 O 0.54137 0.04297 0.80936 0.0
O373 O 0.51319 0.02127 0.749 0.0
O374 O 0.55264 0.03064 0.99679 0.0
O375 O 0.56159 0.05418 0.92835 0.0
O376 O 0.57904 0.00906 0.84214 0.0
O377 O 0.56447 1.0003 0.73475 0.0
O378 O 0.55054 0.96848 0.81895 0.0
O379 O 0.54395 0.98915 0.92274 0.0
C380 C 0.49225 0.00862 0.8795 0.0
O381 O 0.52968 0.97945 0.65585 0.0
O382 O 0.50933 0.96009 0.71978 0.0
C383 C 0.5242 0.0406 0.76403 0.0
C384 C 0.59179 0.04622 1.0025 0.0
C385 C 0.64083 0.03542 0.98473 0.0
C386 C 0.63227 0.05646 0.97167 0.0
C387 C 0.6079 0.06184 0.9806 0.0
C388 C 0.60096 0.02619 0.02203 0.0
C389 C 0.6252 0.02084 0.01301 0.0
C390 C 0.56597 0.04782 0.98706 0.0
C391 C 0.58266 0.00473 0.77635 0.0
H392 H 0.47009 0.96401 0.45968 0.0
H393 H 0.5016 0.94877 0.5266 0.0
H394 H 0.47735 0.99237 0.70512 0.0
H395 H 0.44759 0.00878 0.63908 0.0
H396 H 0.64407 0.06813 0.95076 0.0
H397 H 0.60133 0.07738 0.96504 0.0
H398 H 0.58919 0.01379 0.03947 0.0
H399 H 0.63156 0.00484 0.02583 0.0
Tb400 Tb 0.50788 0.48911 0.82228 0.0
Tb401 Tb 0.55071 0.50665 0.72646 0.0
C402 C 0.49853 0.49547 0.67013 0.0
C403 C 0.47484 0.45475 0.93266 0.0
C404 C 0.47186 0.41633 1.00028 0.0
C405 C 0.4519 0.43069 0.99788 0.0
C406 C 0.4534 0.44972 0.96436 0.0
C407 C 0.49487 0.44062 0.9352 0.0
C408 C 0.49341 0.42159 0.96874 0.0
C409 C 0.47607 0.47444 0.89589 0.0
O410 O 0.52348 0.459 0.76554 0.0
O411 O 0.55968 0.47119 0.72583 0.0
O412 O 0.56518 0.50867 0.82944 0.0
O413 O 0.5414 0.48284 0.87283 0.0
O414 O 0.56721 0.50879 0.63201 0.0
O415 O 0.58011 0.52839 0.72346 0.0
O416 O 0.52543 0.53409 0.75159 0.0
O417 O 0.51192 0.52517 0.85291 0.0
O418 O 0.48993 0.49883 0.73257 0.0
O419 O 0.52178 0.49357 0.65865 0.0
C420 C 0.54495 0.45508 0.73854 0.0
O421 O 0.49173 0.48981 0.91825 0.0
O422 O 0.4767 0.4699 0.8299 0.0
C423 C 0.56096 0.49518 0.87505 0.0
C424 C 0.58052 0.54602 0.62564 0.0
C425 C 0.57971 0.58808 0.57576 0.0
C426 C 0.60163 0.57719 0.58552 0.0
C427 C 0.60201 0.55639 0.61027 0.0
C428 C 0.55859 0.55666 0.61554 0.0
C429 C 0.55818 0.57744 0.59073 0.0
C430 C 0.58121 0.52521 0.65751 0.0
C431 C 0.51626 0.5401 0.81205 0.0
H432 H 0.43514 0.4273 0.0223 0.0
H433 H 0.43777 0.46047 0.96296 0.0
H434 H 0.51157 0.44421 0.91075 0.0
H435 H 0.50903 0.41077 0.96882 0.0
H436 H 0.61858 0.58498 0.57563 0.0
H437 H 0.61912 0.54861 0.61869 0.0
H438 H 0.54178 0.54904 0.62771 0.0
H439 H 0.54096 0.58512 0.5831 0.0
Tb440 Tb 0.03515 0.5249 0.75322 0.0
Tb441 Tb 1.01939 0.48682 0.84499 0.0
C442 C 1.01045 0.53747 0.89127 0.0
C443 C 0.0738 0.56598 0.68962 0.0
C444 C 0.1234 0.57022 0.67371 0.0
C445 C 0.10811 0.57069 0.61801 0.0
C446 C 0.08336 0.56859 0.62595 0.0
C447 C 0.08899 0.56788 0.74655 0.0
C448 C 0.11373 0.56988 0.7385 0.0
C449 C 0.04945 0.55699 0.69397 0.0
O450 O 0.06424 0.52312 0.82585 0.0
O451 O 0.05875 0.487 0.84782 0.0
O452 O 0.02733 0.46778 0.74658 0.0
O453 O 0.05185 0.49362 0.70475 0.0
O454 O 0.02812 0.46619 0.91878 0.0
O455 O 0.99221 0.46697 0.88032 0.0
O456 O 0.98651 0.49638 0.79349 0.0
O457 O 1.00338 0.51031 0.70238 0.0
O458 O 1.00833 0.53914 0.82673 0.0
O459 O 1.01976 0.5192 0.9095 0.0
C460 C 0.07239 0.50496 0.84872 0.0
O461 O 0.04652 0.53649 0.66324 0.0
O462 O 0.03973 0.55972 0.75421 0.0
C463 C 0.04303 0.47307 0.70179 0.0
C464 C 0.99625 0.46719 0.99722 0.0
C465 C 0.97117 0.48434 0.11656 0.0
C466 C 0.96433 0.46375 0.07838 0.0
C467 C 0.97676 0.45529 0.01905 0.0
C468 C 1.00414 0.48691 0.03774 0.0
C469 C 0.99173 0.49539 0.09694 0.0
C470 C 1.00577 0.46111 0.92802 0.0
C471 C 0.98495 0.50195 0.73164 0.0
H472 H 0.11547 0.57058 0.56743 0.0
H473 H 0.07196 0.56706 0.58152 0.0
H474 H 0.08204 0.56596 0.79635 0.0
H475 H 0.12539 0.56917 0.78165 0.0
H476 H 0.94838 0.45498 0.09163 0.0
H477 H 0.97028 0.44017 0.98816 0.0
H478 H 1.01914 0.49644 0.02188 0.0
H479 H 0.99754 0.51116 0.12561 0.0
H480 H 0.16274 0.01388 0.5225 0.0
H481 H 0.10991 0.99725 0.36519 0.0
H482 H 0.07857 0.99722 0.45082 0.0
H483 H 0.06589 1.00082 0.57038 0.0
H484 H 0.11863 0.01597 0.72847 0.0
H485 H 0.15002 0.0173 0.64278 0.0
C486 C 0.14443 0.01006 0.50667 0.0
C487 C 0.13897 0.00572 0.43663 0.0
C488 C 0.12631 0.00968 0.5566 0.0
C489 C 0.11488 1.00115 0.41807 0.0
C490 C 0.09684 1.00091 0.46726 0.0
C491 C 0.08423 1.00446 0.58639 0.0
C492 C 0.08972 0.00825 0.65633 0.0
C493 C 0.10232 0.00506 0.53668 0.0
C494 C 0.11371 0.01294 0.67537 0.0
C495 C 0.13174 0.0137 0.62621 0.0
H496 H 0.48707 0.11103 0.57836 0.0
H497 H 0.53794 0.15361 0.69848 0.0
H498 H 0.54774 0.12274 0.76229 0.0
H499 H 0.54233 0.08343 0.78294 0.0
H500 H 0.49103 0.04112 0.66323 0.0
H501 H 0.48073 0.07221 0.60127 0.0
C502 C 0.50004 0.11372 0.61917 0.0
C503 C 0.51172 0.13471 0.63343 0.0
C504 C 0.50556 0.09589 0.65581 0.0
C505 C 0.52885 0.13762 0.68572 0.0
C506 C 0.5344 0.11998 0.72249 0.0
C507 C 0.52884 0.08099 0.74343 0.0
C508 C 0.51755 0.05986 0.72786 0.0
C509 C 0.52298 0.09899 0.70771 0.0
C510 C 0.50007 0.05712 0.67648 0.0
C511 C 0.49415 0.07492 0.64086 0.0
H512 H 0.44409 0.48267 0.38739 0.0
H513 H 0.38344 0.50319 0.51755 0.0
H514 H 0.40933 0.50596 0.61698 0.0
H515 H 0.44956 0.50296 0.6681 0.0
H516 H 0.51017 0.48384 0.53632 0.0
H517 H 0.4841 0.48059 0.43758 0.0
C518 C 0.43646 0.48803 0.43726 0.0
C519 C 0.41159 0.49258 0.44404 0.0
C520 C 0.45157 0.48993 0.49468 0.0
C521 C 0.4023 0.49912 0.50997 0.0
C522 C 0.41719 0.50089 0.56723 0.0
C523 C 0.45709 0.49807 0.61784 0.0
C524 C 0.48196 0.49366 0.61038 0.0
C525 C 0.4419 0.49632 0.56037 0.0
C526 C 0.49122 0.48741 0.54435 0.0
C527 C 0.47626 0.48551 0.48744 0.0
H528 H 0.08111 0.40895 0.44231 0.0
H529 H 0.03278 0.36283 0.52276 0.0
H530 H 0.02326 0.39142 0.61863 0.0
H531 H 0.02765 0.42962 0.67838 0.0
H532 H 0.07505 0.47655 0.59817 0.0
H533 H 0.08574 0.44759 0.50345 0.0
C534 C 0.0684 0.4052 0.48064 0.0
C535 C 0.05781 0.38365 0.47526 0.0
C536 C 0.06277 0.42187 0.53573 0.0
C537 C 0.04156 0.37907 0.52596 0.0
C538 C 0.03595 0.39548 0.5807 0.0
C539 C 0.04041 0.43359 0.64048 0.0
C540 C 0.05049 0.45532 0.64566 0.0
C541 C 0.04637 0.41694 0.58601 0.0
C542 C 0.06698 0.46001 0.59571 0.0
C543 C 0.07309 0.44344 0.54137 0.0
H544 H 0.93833 0.98197 0.14957 0.0
H545 H 0.89065 0.02794 0.06627 0.0
H546 H 0.91846 0.02972 0.97201 0.0
H547 H 0.95681 0.01869 0.91311 0.0
H548 H 1.00374 0.97185 0.99545 0.0
H549 H 0.9757 0.96978 0.08861 0.0
C550 C 0.93377 0.99217 0.11047 0.0
C551 C 0.91227 0.0049 0.11602 0.0
C552 C 0.94983 0.993 0.05563 0.0
C553 C 0.90714 0.01825 0.06473 0.0
C554 C 0.92302 0.01918 1.01023 0.0
C555 C 0.96088 0.00792 0.95115 0.0
C556 C 0.98261 0.99554 0.94676 0.0
C557 C 0.94452 0.00673 1.00522 0.0
C558 C 0.98737 0.9817 0.99702 0.0
C559 C 0.97126 0.98048 0.05067 0.0
H560 H 0.57746 0.87496 0.96473 0.0
H561 H 0.54392 0.90314 0.15353 0.0
H562 H 0.53812 0.93909 0.10988 0.0
H563 H 0.5409 0.96195 0.01528 0.0
H564 H 0.57372 0.9326 0.82624 0.0
H565 H 0.58179 0.89793 0.87322 0.0
C566 C 0.5693 0.88908 0.99698 0.0
C567 C 0.56125 0.88633 0.06249 0.0
C568 C 0.56579 0.90954 0.9713 0.0
C569 C 0.55018 0.90472 0.10278 0.0
C570 C 0.5469 0.9253 0.07786 0.0
C571 C 0.55003 0.94805 0.98468 0.0
C572 C 0.55655 0.94991 0.91713 0.0
C573 C 0.55435 0.92784 1.01177 0.0
C574 C 0.56828 0.93165 0.87813 0.0
C575 C 0.57295 0.91176 0.90496 0.0
H576 H 0.6265 0.47642 0.12221 0.0
H577 H 0.66883 0.52901 0.05202 0.0
H578 H 0.64002 0.53173 0.96142 0.0
H579 H 0.60253 0.51944 0.90173 0.0
H580 H 0.55975 0.46749 0.97382 0.0
H581 H 0.5887 0.46464 0.06398 0.0
C582 C 0.62937 0.48869 0.08771 0.0
C583 C 0.65008 0.50243 0.0945 0.0
C584 C 0.61252 0.49036 0.03569 0.0
C585 C 0.65343 0.5179 0.04798 0.0
C586 C 0.6368 0.5196 0.99616 0.0
C587 C 0.59948 0.50748 0.93709 0.0
C588 C 0.57881 0.49371 0.93043 0.0
C589 C 0.61627 0.5059 0.98936 0.0
C590 C 0.57534 0.47836 0.97723 0.0
C591 C 0.59197 0.47668 0.02904 0.0
H592 H 0.98854 0.63049 0.0736 0.0
H593 H 1.01146 0.59216 0.2305 0.0
H594 H 1.01554 0.55844 0.14692 0.0
H595 H 1.01475 0.54027 0.02856 0.0
H596 H 0.99297 0.57875 0.87082 0.0
H597 H 0.98647 0.61192 0.95538 0.0
C598 C 0.99457 0.61481 0.08949 0.0
C599 C 0.99975 0.61398 0.15838 0.0
C600 C 0.99717 0.59547 0.04096 0.0
C601 C 1.00709 0.59332 0.17809 0.0
C602 C 1.00958 0.57402 0.13021 0.0
C603 C 1.0084 0.55584 1.0126 0.0
C604 C 1.00448 0.55698 0.94325 0.0
C605 C 1.00492 0.57495 0.06142 0.0
C606 C 0.99619 0.57734 0.92375 0.0
C607 C 0.99253 0.59638 0.9721 0.0
H608 H 0.04045 0.14902 0.37068 0.0
H609 H 0.98743 0.18837 0.49457 0.0
H610 H 0.97412 0.15474 0.54046 0.0
H611 H 0.97931 0.11479 0.55125 0.0
H612 H 0.03215 0.07512 0.42775 0.0
H613 H 0.04362 0.10819 0.37542 0.0
C614 C 0.02573 0.15014 0.40688 0.0
C615 C 1.01513 0.17121 0.4297 0.0
C616 C 1.0182 0.13072 0.43336 0.0
C617 C 0.9962 0.17243 0.4771 0.0
C618 C 0.98849 0.15319 0.50316 0.0
C619 C 0.99298 0.11324 0.51184 0.0
C620 C 1.00489 0.09254 0.49356 0.0
C621 C 0.99962 0.13233 0.4825 0.0
C622 C 0.02288 0.09094 0.44326 0.0
C623 C 0.02942 0.10983 0.41325 0.0
H624 H 0.39374 0.03544 0.34058 0.0
H625 H 0.34558 0.04216 0.51317 0.0
H626 H 0.37517 0.02487 0.5789 0.0
H627 H 0.41214 1.00377 0.58305 0.0
H628 H 0.46165 0.99764 0.41362 0.0
H629 H 0.43328 0.01746 0.34934 0.0
C630 C 0.38995 0.03346 0.39296 0.0
C631 C 0.36747 0.04005 0.4217 0.0
C632 C 0.40679 0.02281 0.43011 0.0
C633 C 0.36285 0.03762 0.4899 0.0
C634 C 0.37959 0.02733 0.5273 0.0
C635 C 0.41709 0.00714 0.53265 0.0
C636 C 0.43901 0.99912 0.50334 0.0
C637 C 0.40123 0.01923 0.49715 0.0
C638 C 0.44467 1.00316 0.43706 0.0
C639 C 0.42862 0.0148 0.4006 0.0
H640 H 0.5639 0.35659 0.59713 0.0
H641 H 0.52663 0.34144 0.77623 0.0
H642 H 0.52736 0.38131 0.82366 0.0
H643 H 0.53371 0.42072 0.80703 0.0
H644 H 0.57148 0.43599 0.62935 0.0
H645 H 0.57609 0.39556 0.58927 0.0
C646 C 0.55664 0.36178 0.64755 0.0
C647 C 0.54483 0.34597 0.68246 0.0
C648 C 0.55701 0.38477 0.67439 0.0
C649 C 0.53534 0.35325 0.74751 0.0
C650 C 0.53577 0.37606 0.77472 0.0
C651 C 0.54329 0.41516 0.76002 0.0
C652 C 0.5519 0.4312 0.72045 0.0
C653 C 0.54571 0.39202 0.73737 0.0
C654 C 0.56466 0.42389 0.66043 0.0
C655 C 0.56715 0.40081 0.63741 0.0
H656 H 0.22881 0.55716 0.56895 0.0
H657 H 0.20322 0.48851 0.52762 0.0
H658 H 0.16731 0.49884 0.59459 0.0
H659 H 0.13982 0.52849 0.64474 0.0
H660 H 0.16235 0.59791 0.67229 0.0
H661 H 0.20272 0.5864 0.62998 0.0
C662 C 0.21547 0.54442 0.57513 0.0
C663 C 0.21852 0.52222 0.54199 0.0
C664 C 0.19411 0.55076 0.61008 0.0
C665 C 0.20149 0.50572 0.55254 0.0
C666 C 0.18073 0.51166 0.59013 0.0
C667 C 0.15386 0.54096 0.64271 0.0
C668 C 0.14854 0.56389 0.66073 0.0
C669 C 0.17637 0.53429 0.61602 0.0
C670 C 0.1664 0.58016 0.65821 0.0
C671 C 0.1893 0.57356 0.63394 0.0
H672 H 0.0705 0.84135 0.19897 0.0
H673 H 0.99754 0.84257 0.12728 0.0
H674 H 1.00545 0.87762 0.08149 0.0
H675 H 0.03334 0.907 0.05789 0.0
H676 H 0.10639 0.90631 0.12901 0.0
H677 H 0.09825 0.87187 0.17866 0.0
C678 C 0.05629 0.84947 0.17405 0.0
C679 C 0.0335 0.83935 0.16625 0.0
C680 C 0.06101 0.86958 0.14736 0.0
C681 C 1.01531 0.84989 0.13316 0.0
C682 C 1.01979 0.86996 0.10715 0.0
C683 C 0.0474 0.89955 0.08522 0.0
C684 C 0.07041 0.90928 0.08999 0.0
C685 C 0.04261 0.87982 0.1134 0.0
C686 C 0.08857 0.89907 0.12417 0.0
C687 C 0.0839 0.87943 0.1528 0.0
H688 H 0.7369 0.98249 0.96358 0.0
H689 H 0.76038 0.04583 0.07404 0.0
H690 H 0.72441 0.06426 0.0411 0.0
H691 H 0.68158 0.05957 0.01392 0.0
H692 H 0.65596 0.99502 0.9181 0.0
H693 H 0.69673 0.97985 0.91404 0.0
C694 C 0.73444 1.00047 0.97885 0.0
C695 C 0.75072 0.01234 0.02444 0.0
C696 C 0.71262 0.01059 0.96506 0.0
C697 C 0.74799 0.03591 0.04039 0.0
C698 C 0.72706 0.0465 0.02269 0.0
C699 C 0.68508 0.04241 0.99033 0.0
C700 C 0.66584 0.02819 0.96847 0.0
C701 C 0.70843 0.03356 0.99042 0.0
C702 C 0.67053 0.00603 0.93739 0.0
C703 C 0.69383 0.99739 0.93465 0.0
H704 H 0.50786 0.63706 0.9767 0.0
H705 H 0.54936 0.65353 0.80672 0.0
H706 H 0.54463 0.61489 0.74902 0.0
H707 H 0.53264 0.57565 0.75347 0.0
H708 H 0.49296 0.55913 0.92698 0.0
H709 H 0.49265 0.59881 0.97624 0.0
C710 C 0.51528 0.63242 0.92615 0.0
C711 C 0.52893 0.64813 0.89599 0.0
C712 C 0.51302 0.61012 0.89433 0.0
C713 C 0.53888 0.64168 0.83109 0.0
C714 C 0.53622 0.61961 0.79823 0.0
C715 C 0.52355 0.58075 0.80151 0.0
C716 C 0.51303 0.56439 0.83683 0.0
C717 C 0.52394 0.60353 0.83036 0.0
C718 C 0.50138 0.57133 0.89903 0.0
C719 C 0.50121 0.59402 0.92729 0.0
H720 H 0.8843 0.51229 0.30951 0.0
H721 H 0.89295 0.57418 0.22385 0.0
H722 H 0.93119 0.56045 0.17267 0.0
H723 H 0.95768 0.52832 0.13561 0.0
H724 H 0.94766 0.46563 0.21625 0.0
H725 H 0.91443 0.48234 0.28689 0.0
C726 C 0.89496 0.52313 0.28177 0.0
C727 C 0.88575 0.54414 0.26994 0.0
C728 C 0.9164 0.51478 0.25052 0.0
C729 C 0.89962 0.55786 0.23305 0.0
C730 C 0.92139 0.54996 0.20354 0.0
C731 C 0.94876 0.51851 0.17026 0.0
C732 C 0.95491 0.49566 0.17008 0.0
C733 C 0.92932 0.52804 0.20931 0.0
C734 C 0.94297 0.48313 0.21471 0.0
C735 C 0.924 0.49268 0.25507 0.0
H736 H 0.05352 0.15235 0.9147 0.0
H737 H 0.05384 0.13528 0.11872 0.0
H738 H 0.05047 0.09538 0.07403 0.0
H739 H 0.04684 0.06526 0.97746 0.0
H740 H 0.04437 0.0823 0.77367 0.0
H741 H 0.04873 0.12226 0.81809 0.0
C742 C 0.05255 0.13998 0.9496 0.0
C743 C 0.05405 0.147 0.02019 0.0
C744 C 0.05017 0.11699 0.92361 0.0
C745 C 0.05318 0.13051 0.06421 0.0
C746 C 0.05107 0.10763 0.0387 0.0
C747 C 0.04734 0.07768 0.94262 0.0
C748 C 0.04538 0.07071 0.87223 0.0
C749 C 0.04957 0.10067 0.96853 0.0
C750 C 0.04583 0.08713 0.82805 0.0
C751 C 0.04834 0.11001 0.85343 0.0
H752 H 0.38841 0.03071 1.00774 0.0
H753 H 0.3825 0.95815 0.96484 0.0
H754 H 0.42268 0.95583 0.91644 0.0
H755 H 0.46021 0.97405 0.88608 0.0
H756 H 0.46757 0.04613 0.93693 0.0
H757 H 0.42673 0.04875 0.98285 0.0
C758 C 0.39587 0.01431 0.98868 0.0
C759 C 0.38172 0.99471 0.98945 0.0
C760 C 0.41959 0.01291 0.96204 0.0
C761 C 0.39219 0.97373 0.96355 0.0
C762 C 0.41548 0.97229 0.93619 0.0
C763 C 0.45289 0.99035 0.90706 0.0
C764 C 0.46714 0.00986 0.90757 0.0
C765 C 0.42936 0.99174 0.93478 0.0
C766 C 0.45723 0.03077 0.93581 0.0
C767 C 0.43375 0.03231 0.96212 0.0
H768 H 0.44926 0.32617 0.12149 0.0
H769 H 0.51968 0.33962 0.20726 0.0
H770 H 0.52229 0.37398 0.15437 0.0
H771 H 0.50484 0.40007 0.08256 0.0
H772 H 0.43479 0.38624 0.99481 0.0
H773 H 0.43181 0.35227 0.04959 0.0
C774 C 0.46526 0.33652 0.12818 0.0
C775 C 0.48423 0.33024 0.16835 0.0
C776 C 0.46672 0.35625 0.0973 0.0
C777 C 0.50466 0.34412 0.17735 0.0
C778 C 0.50625 0.36373 0.14675 0.0
C779 C 0.489 0.38954 0.07499 0.0
C780 C 0.47008 0.39575 0.0345 0.0
C781 C 0.48743 0.36993 0.10643 0.0
C782 C 0.44951 0.38206 0.02628 0.0
C783 C 0.44784 0.36253 0.05729 0.0
H784 H 0.18071 0.52057 0.94502 0.0
H785 H 0.16871 0.4568 0.01741 0.0
H786 H 0.12768 0.45596 0.9744 0.0
H787 H 0.09484 0.47312 0.91501 0.0
H788 H 0.10706 0.53694 0.84326 0.0
H789 H 0.14802 0.53771 0.88597 0.0
C790 C 0.16924 0.50638 0.95108 0.0
C791 C 0.1781 0.48881 0.98494 0.0
C792 C 0.14547 0.50593 0.92592 0.0
C793 C 0.16255 0.47078 0.99276 0.0
C794 C 0.139 0.47019 0.96763 0.0
C795 C 0.10644 0.4872 0.90859 0.0
C796 C 0.09758 0.50495 0.87553 0.0
C797 C 0.1302 0.48766 0.93404 0.0
C798 C 0.11309 0.52303 0.86828 0.0
C799 C 0.13667 0.5235 0.89284 0.0
H800 H 0.03174 0.8546 0.65799 0.0
H801 H 0.97784 0.87146 0.51808 0.0
H802 H 0.97997 0.9112 0.56768 0.0
H803 H 0.99718 0.94126 0.6516 0.0
H804 H 0.05142 0.92381 0.78999 0.0
H805 H 0.04872 0.88424 0.74118 0.0
C806 C 1.02029 0.86692 0.63865 0.0
C807 C 1.00458 0.85999 0.58453 0.0
C808 C 1.02155 0.88968 0.66752 0.0
C809 C 0.99026 0.87632 0.55926 0.0
C810 C 0.99134 0.89904 0.58795 0.0
C811 C 1.00825 0.92875 0.67139 0.0
C812 C 0.02444 0.93553 0.72451 0.0
C813 C 1.00689 0.90593 0.64229 0.0
C814 C 0.03886 0.91913 0.749 0.0
C815 C 0.03735 0.89645 0.7211 0.0
H816 H 0.69378 0.01293 0.70922 0.0
H817 H 0.66943 0.9847 0.50964 0.0
H818 H 0.62828 0.98426 0.55179 0.0
H819 H 0.59879 0.99149 0.6457 0.0
H820 H 0.62344 0.01872 0.84573 0.0
H821 H 0.66451 0.01976 0.80302 0.0
C822 C 0.67959 0.00644 0.67486 0.0
C823 C 0.68506 0.99895 0.6059 0.0
C824 C 0.65578 0.00598 0.69966 0.0
C825 C 0.66603 0.99097 0.56255 0.0
C826 C 0.64237 0.99054 0.58679 0.0
C827 C 0.61313 0.99761 0.6801 0.0
C828 C 0.6078 0.00495 0.74916 0.0
C829 C 0.63697 0.998 0.65528 0.0
C830 C 0.62681 0.01281 0.79258 0.0
C831 C 0.65041 0.01342 0.76817 0.0
H832 H 0.56367 0.68593 0.49448 0.0
H833 H 0.62299 0.66436 0.36051 0.0
H834 H 0.62469 0.62845 0.40516 0.0
H835 H 0.60852 0.60254 0.47903 0.0
H836 H 0.55004 0.62424 0.61598 0.0
H837 H 0.54876 0.66052 0.57308 0.0
C838 C 0.57719 0.6735 0.47578 0.0
C839 C 0.59306 0.67785 0.42378 0.0
C840 C 0.57809 0.65276 0.50171 0.0
C841 C 0.61029 0.66139 0.3997 0.0
C842 C 0.61134 0.64084 0.42537 0.0
C843 C 0.59568 0.61527 0.50027 0.0
C844 C 0.57933 0.61047 0.55052 0.0
C845 C 0.59518 0.63623 0.47585 0.0
C846 C 0.56258 0.62719 0.57643 0.0
C847 C 0.56195 0.64807 0.55227 0.0
H848 H 0.90006 0.48707 0.51885 0.0
H849 H 0.85812 0.51079 0.69799 0.0
H850 H 0.8942 0.51274 0.76694 0.0
H851 H 0.93836 0.5086 0.77744 0.0
H852 H 0.98041 0.4886 0.59655 0.0
H853 H 0.94395 0.48468 0.52814 0.0
C854 C 0.89866 0.49298 0.57275 0.0
C855 C 0.8759 0.49844 0.60239 0.0
C856 C 0.91976 0.49476 0.61248 0.0
C857 C 0.87497 0.50578 0.67302 0.0
C858 C 0.89577 0.50713 0.71289 0.0
C859 C 0.93946 0.50322 0.72315 0.0
C860 C 0.96214 0.49877 0.69236 0.0
C861 C 0.91832 0.50162 0.68337 0.0
C862 C 0.96324 0.49217 0.62167 0.0
C863 C 0.94236 0.48992 0.58238 0.0
loop_
_geom_bond_atom_site_label_1
_geom_bond_atom_site_label_2
_geom_bond_distance
_geom_bond_site_symmetry_2
_ccdc_geom_bond_type
C0 C1 1.264 . S
C0 C5 1.479 . S
C0 C10 1.465 . S
C1 C0 1.264 . S
C1 C3 1.339 . S
C1 H28 0.931 . S
C2 C3 1.395 . S
C2 C4 1.320 . S
C3 C1 1.339 . S
C3 C2 1.395 . S
C3 H29 0.929 . S
C4 C2 1.320 . S
C4 C5 1.405 . S
C4 H30 0.930 . S
C5 C0 1.479 . S
C5 C4 1.405 . S
C5 H31 0.931 . S
U6 O7 2.454 . S
U6 O8 2.458 . S
U6 C9 2.984 . S
U6 C10 2.847 . S
U6 C23 2.882 . S
U6 O24 2.441 . S
U6 O25 2.420 . S
U6 O26 2.455 . S
U6 O27 2.449 . S
O7 U6 2.454 . S
O7 C9 1.353 . S
O8 U6 2.458 . S
O8 C9 1.286 . S
C9 U6 2.984 . S
C9 O7 1.353 . S
C9 O8 1.286 . S
C9 C11 1.363 . S
C10 C0 1.465 . S
C10 U6 2.847 . S
C10 O24 1.249 . S
C10 O25 1.202 . S
C11 C9 1.363 . S
C11 C13 1.408 . S
C11 C16 1.342 . S
C12 C13 1.310 . S
C12 C15 1.461 . S
C12 H32 0.932 . S
C13 C11 1.408 . S
C13 C12 1.310 . S
C13 H33 0.930 . S
C14 C15 1.474 . S
C14 C16 1.285 . S
C14 H34 0.929 . S
C15 C12 1.461 . S
C15 C14 1.474 . S
C16 C11 1.342 . S
C16 C14 1.285 . S
C16 H35 0.930 . S
C17 C20 1.424 . S
C17 C22 1.245 . S
C17 C23 1.428 . S
C18 C21 1.260 . S
C18 C22 1.477 . S
C18 H36 0.932 . S
C19 C20 1.384 . S
C19 C21 1.479 . S
C19 H37 0.929 . S
C20 C17 1.424 . S
C20 C19 1.384 . S
C20 H38 0.928 . S
C21 C18 1.260 . S
C21 C19 1.479 . S
C22 C17 1.245 . S
C22 C18 1.477 . S
C22 H39 0.932 . S
C23 U6 2.882 . S
C23 C17 1.428 . S
C23 O26 1.301 . S
C23 O27 1.282 . S
O24 U6 2.441 . S
O24 C10 1.249 . S
O25 U6 2.420 . S
O25 C10 1.202 . S
O26 U6 2.455 . S
O26 C23 1.301 . S
O27 U6 2.449 . S
O27 C23 1.282 . S
H28 C1 0.931 . S
H29 C3 0.929 . S
H30 C4 0.930 . S
H31 C5 0.931 . S
H32 C12 0.932 . S
H33 C13 0.930 . S
H34 C14 0.929 . S
H35 C16 0.930 . S
H36 C18 0.932 . S
H37 C19 0.929 . S
H38 C20 0.928 . S
H39 C22 0.932 . S
C40 C41 1.264 . S
C40 C45 1.479 . S
C40 C50 1.459 1_655 S
C41 C40 1.264 . S
C41 C43 1.339 . S
C41 H68 0.931 1_655 S
C42 C43 1.395 . S
C42 C44 1.320 . S
C43 C41 1.339 . S
C43 C42 1.395 . S
C43 H69 0.929 . S
C44 C42 1.320 . S
C44 C45 1.405 . S
C44 H70 0.930 . S
C45 C40 1.479 . S
C45 C44 1.405 . S
C45 H71 0.931 . S
U46 O47 2.454 1_455 S
U46 O48 2.457 1_455 S
U46 C49 2.984 1_455 S
U46 C50 2.847 . S
U46 C63 2.882 . S
U46 O64 2.441 1_455 S
U46 O65 2.421 . S
U46 O66 2.455 . S
U46 O67 2.449 . S
O47 U46 2.454 1_655 S
O47 C49 1.353 . S
O48 U46 2.457 1_655 S
O48 C49 1.286 . S
C49 U46 2.984 1_655 S
C49 O47 1.353 . S
C49 O48 1.286 . S
C49 C51 1.363 . S
C50 C40 1.459 1_455 S
C50 U46 2.847 . S
C50 O64 1.245 1_455 S
C50 O65 1.212 . S
C51 C49 1.363 . S
C51 C53 1.408 . S
C51 C56 1.342 . S
C52 C53 1.310 . S
C52 C55 1.461 . S
C52 H72 0.932 . S
C53 C51 1.408 . S
C53 C52 1.310 . S
C53 H73 0.930 . S
C54 C55 1.474 . S
C54 C56 1.285 . S
C54 H74 0.929 . S
C55 C52 1.461 . S
C55 C54 1.474 . S
C56 C51 1.342 . S
C56 C54 1.285 . S
C56 H75 0.930 . S
C57 C60 1.431 . S
C57 C62 1.251 . S
C57 C63 1.424 1_655 S
C58 C61 1.260 . S
C58 C62 1.477 . S
C58 H76 0.932 . S
C59 C60 1.384 . S
C59 C61 1.479 . S
C59 H77 0.929 . S
C60 C57 1.431 . S
C60 C59 1.384 . S
C60 H78 0.928 . S
C61 C58 1.260 . S
C61 C59 1.479 . S
C62 C57 1.251 . S
C62 C58 1.477 . S
C62 H79 0.932 . S
C63 U46 2.882 . S
C63 C57 1.424 1_455 S
C63 O66 1.301 . S
C63 O67 1.282 . S
O64 U46 2.441 1_655 S
O64 C50 1.245 1_655 S
O65 U46 2.421 . S
O65 C50 1.212 . S
O66 U46 2.455 . S
O66 C63 1.301 . S
O67 U46 2.449 . S
O67 C63 1.282 . S
H68 C41 0.931 1_455 S
H69 C43 0.929 . S
H70 C44 0.930 . S
H71 C45 0.931 . S
H72 C52 0.932 . S
H73 C53 0.930 . S
H74 C54 0.929 . S
H75 C56 0.930 . S
H76 C58 0.932 . S
H77 C59 0.929 . S
H78 C60 0.928 . S
H79 C62 0.932 . S
C80 C81 1.264 . S
C80 C85 1.479 . S
C80 C90 1.465 . S
C81 C80 1.264 . S
C81 C83 1.339 . S
C81 H108 0.931 . S
C82 C83 1.395 . S
C82 C84 1.320 . S
C83 C81 1.339 . S
C83 C82 1.395 . S
C83 H109 0.929 . S
C84 C82 1.320 . S
C84 C85 1.405 . S
C84 H110 0.915 1_545 S
C85 C80 1.479 . S
C85 C84 1.405 . S
C85 H111 0.931 . S
U86 O87 2.454 . S
U86 O88 2.458 . S
U86 C89 2.984 . S
U86 C90 2.847 . S
U86 C103 2.882 . S
U86 O104 2.441 . S
U86 O105 2.420 . S
U86 O106 2.455 . S
U86 O107 2.449 . S
O87 U86 2.454 . S
O87 C89 1.353 . S
O88 U86 2.458 . S
O88 C89 1.286 . S
C89 U86 2.984 . S
C89 O87 1.353 . S
C89 O88 1.286 . S
C89 C91 1.363 . S
C90 C80 1.465 . S
C90 U86 2.847 . S
C90 O104 1.249 . S
C90 O105 1.202 . S
C91 C89 1.363 . S
C91 C93 1.408 . S
C91 C96 1.342 . S
C92 C93 1.310 . S
C92 C95 1.460 . S
C92 H112 0.932 . S
C93 C91 1.408 . S
C93 C92 1.310 . S
C93 H113 0.930 . S
C94 C95 1.475 1_565 S
C94 C96 1.285 1_565 S
C94 H114 0.929 . S
C95 C92 1.460 . S
C95 C94 1.475 1_545 S
C96 C91 1.342 . S
C96 C94 1.285 1_545 S
C96 H115 0.929 . S
C97 C100 1.424 . S
C97 C102 1.245 . S
C97 C103 1.428 . S
C98 C101 1.260 . S
C98 C102 1.477 . S
C98 H116 0.932 . S
C99 C100 1.384 . S
C99 C101 1.479 . S
C99 H117 0.929 . S
C100 C97 1.424 . S
C100 C99 1.384 . S
C100 H118 0.928 . S
C101 C98 1.260 . S
C101 C99 1.479 . S
C102 C97 1.245 . S
C102 C98 1.477 . S
C102 H119 0.932 . S
C103 U86 2.882 . S
C103 C97 1.428 . S
C103 O106 1.301 . S
C103 O107 1.282 . S
O104 U86 2.441 . S
O104 C90 1.249 . S
O105 U86 2.420 . S
O105 C90 1.202 . S
O106 U86 2.455 . S
O106 C103 1.301 . S
O107 U86 2.449 . S
O107 C103 1.282 . S
H108 C81 0.931 . S
H109 C83 0.929 . S
H110 C84 0.915 1_565 S
H111 C85 0.931 . S
H112 C92 0.932 . S
H113 C93 0.930 . S
H114 C94 0.929 . S
H115 C96 0.929 . S
H116 C98 0.932 . S
H117 C99 0.929 . S
H118 C100 0.928 . S
H119 C102 0.932 . S
C120 C121 1.264 . S
C120 C125 1.479 . S
C120 C130 1.465 . S
C121 C120 1.264 . S
C121 C123 1.339 . S
C121 H148 0.931 . S
C122 C123 1.395 . S
C122 C124 1.320 . S
C123 C121 1.339 . S
C123 C122 1.395 . S
C123 H149 0.929 . S
C124 C122 1.320 . S
C124 C125 1.405 . S
C124 H150 0.930 . S
C125 C120 1.479 . S
C125 C124 1.405 . S
C125 H151 0.931 . S
U126 O127 2.454 . S
U126 O128 2.458 1_554 S
U126 C129 2.984 1_554 S
U126 C130 2.847 . S
U126 C143 2.882 1_554 S
U126 O144 2.441 . S
U126 O145 2.420 . S
U126 O146 2.455 1_554 S
U126 O147 2.449 1_554 S
O127 U126 2.454 . S
O127 C129 1.353 1_554 S
O128 U126 2.458 1_556 S
O128 C129 1.286 . S
C129 U126 2.984 1_556 S
C129 O127 1.353 1_556 S
C129 O128 1.286 . S
C129 C131 1.363 . S
C130 C120 1.465 . S
C130 U126 2.847 . S
C130 O144 1.249 . S
C130 O145 1.202 . S
C131 C129 1.363 . S
C131 C133 1.408 1_556 S
C131 C136 1.342 . S
C132 C133 1.310 . S
C132 C135 1.461 1_554 S
C132 H152 0.932 . S
C133 C131 1.408 1_554 S
C133 C132 1.310 . S
C133 H153 0.930 . S
C134 C135 1.474 . S
C134 C136 1.285 . S
C134 H154 0.929 . S
C135 C132 1.461 1_556 S
C135 C134 1.474 . S
C136 C131 1.342 . S
C136 C134 1.285 . S
C136 H155 0.930 . S
C137 C140 1.424 . S
C137 C142 1.245 . S
C137 C143 1.428 . S
C138 C141 1.260 . S
C138 C142 1.477 . S
C138 H156 0.932 . S
C139 C140 1.384 . S
C139 C141 1.479 . S
C139 H157 0.929 . S
C140 C137 1.424 . S
C140 C139 1.384 . S
C140 H158 0.928 . S
C141 C138 1.260 . S
C141 C139 1.479 . S
C142 C137 1.245 . S
C142 C138 1.477 . S
C142 H159 0.932 . S
C143 U126 2.882 1_556 S
C143 C137 1.428 . S
C143 O146 1.301 . S
C143 O147 1.282 . S
O144 U126 2.441 . S
O144 C130 1.249 . S
O145 U126 2.420 . S
O145 C130 1.202 . S
O146 U126 2.455 1_556 S
O146 C143 1.301 . S
O147 U126 2.449 1_556 S
O147 C143 1.282 . S
H148 C121 0.931 . S
H149 C123 0.929 . S
H150 C124 0.930 . S
H151 C125 0.931 . S
H152 C132 0.932 . S
H153 C133 0.930 . S
H154 C134 0.929 . S
H155 C136 0.930 . S
H156 C138 0.932 . S
H157 C139 0.929 . S
H158 C140 0.928 . S
H159 C142 0.932 . S
C160 C161 1.264 . S
C160 C165 1.479 . S
C160 C170 1.465 1_556 S
C161 C160 1.264 . S
C161 C163 1.339 . S
C161 H188 0.931 . S
C162 C163 1.395 . S
C162 C164 1.320 . S
C163 C161 1.339 . S
C163 C162 1.395 . S
C163 H189 0.929 . S
C164 C162 1.320 . S
C164 C165 1.405 . S
C164 H190 0.930 . S
C165 C160 1.479 . S
C165 C164 1.405 . S
C165 H191 0.931 . S
U166 O167 2.454 . S
U166 O168 2.458 . S
U166 C169 2.984 . S
U166 C170 2.847 . S
U166 C183 2.882 . S
U166 O184 2.441 . S
U166 O185 2.420 . S
U166 O186 2.455 . S
U166 O187 2.449 . S
O167 U166 2.454 . S
O167 C169 1.353 . S
O168 U166 2.458 . S
O168 C169 1.286 . S
C169 U166 2.984 . S
C169 O167 1.353 . S
C169 O168 1.286 . S
C169 C171 1.363 . S
C170 C160 1.465 1_554 S
C170 U166 2.847 . S
C170 O184 1.249 . S
C170 O185 1.202 . S
C171 C169 1.363 . S
C171 C173 1.408 . S
C171 C176 1.342 . S
C172 C173 1.310 . S
C172 C175 1.461 . S
C172 H192 0.932 . S
C173 C171 1.408 . S
C173 C172 1.310 . S
C173 H193 0.930 . S
C174 C175 1.474 . S
C174 C176 1.285 . S
C174 H194 0.929 . S
C175 C172 1.461 . S
C175 C174 1.474 . S
C176 C171 1.342 . S
C176 C174 1.285 . S
C176 H195 0.930 . S
C177 C180 1.424 . S
C177 C182 1.245 . S
C177 C183 1.428 . S
C178 C181 1.260 . S
C178 C182 1.477 . S
C178 H196 0.932 . S
C179 C180 1.384 . S
C179 C181 1.479 . S
C179 H197 0.929 . S
C180 C177 1.424 . S
C180 C179 1.384 . S
C180 H198 0.928 . S
C181 C178 1.260 . S
C181 C179 1.479 . S
C182 C177 1.245 . S
C182 C178 1.477 . S
C182 H199 0.932 . S
C183 U166 2.882 . S
C183 C177 1.428 . S
C183 O186 1.301 . S
C183 O187 1.282 . S
O184 U166 2.441 . S
O184 C170 1.249 . S
O185 U166 2.420 . S
O185 C170 1.202 . S
O186 U166 2.455 . S
O186 C183 1.301 . S
O187 U166 2.449 . S
O187 C183 1.282 . S
H188 C161 0.931 . S
H189 C163 0.929 . S
H190 C164 0.930 . S
H191 C165 0.931 . S
H192 C172 0.932 . S
H193 C173 0.930 . S
H194 C174 0.929 . S
H195 C176 0.930 . S
H196 C178 0.932 . S
H197 C179 0.929 . S
H198 C180 0.928 . S
H199 C182 0.932 . S
C200 C201 1.264 . S
C200 C205 1.479 1_554 S
C200 C210 1.465 . S
C201 C200 1.264 . S
C201 C203 1.339 1_554 S
C201 H228 0.931 . S
C202 C203 1.395 . S
C202 C204 1.320 . S
C203 C201 1.339 1_556 S
C203 C202 1.395 . S
C203 H229 0.929 . S
C204 C202 1.320 . S
C204 C205 1.405 . S
C204 H230 0.930 . S
C205 C200 1.479 1_556 S
C205 C204 1.405 . S
C205 H231 0.931 . S
U206 O207 2.454 . S
U206 O208 2.458 . S
U206 C209 2.984 . S
U206 C210 2.847 . S
U206 C223 2.882 . S
U206 O224 2.441 . S
U206 O225 2.420 . S
U206 O226 2.455 . S
U206 O227 2.449 . S
O207 U206 2.454 . S
O207 C209 1.353 . S
O208 U206 2.458 . S
O208 C209 1.286 . S
C209 U206 2.984 . S
C209 O207 1.353 . S
C209 O208 1.286 . S
C209 C211 1.363 . S
C210 C200 1.465 . S
C210 U206 2.847 . S
C210 O224 1.249 . S
C210 O225 1.202 . S
C211 C209 1.363 . S
C211 C213 1.408 . S
C211 C216 1.342 . S
C212 C213 1.310 . S
C212 C215 1.461 . S
C212 H232 0.932 . S
C213 C211 1.408 . S
C213 C212 1.310 . S
C213 H233 0.930 . S
C214 C215 1.474 . S
C214 C216 1.285 . S
C214 H234 0.929 . S
C215 C212 1.461 . S
C215 C214 1.474 . S
C216 C211 1.342 . S
C216 C214 1.285 . S
C216 H235 0.930 . S
C217 C220 1.424 . S
C217 C222 1.245 . S
C217 C223 1.428 . S
C218 C221 1.260 . S
C218 C222 1.477 . S
C218 H236 0.932 . S
C219 C220 1.384 . S
C219 C221 1.479 . S
C219 H237 0.929 . S
C220 C217 1.424 . S
C220 C219 1.384 . S
C220 H238 0.928 . S
C221 C218 1.260 . S
C221 C219 1.479 . S
C222 C217 1.245 . S
C222 C218 1.477 . S
C222 H239 0.932 . S
C223 U206 2.882 . S
C223 C217 1.428 . S
C223 O226 1.301 . S
C223 O227 1.282 . S
O224 U206 2.441 . S
O224 C210 1.249 . S
O225 U206 2.420 . S
O225 C210 1.202 . S
O226 U206 2.455 . S
O226 C223 1.301 . S
O227 U206 2.449 . S
O227 C223 1.282 . S
H228 C201 0.931 . S
H229 C203 0.929 . S
H230 C204 0.930 . S
H231 C205 0.931 . S
H232 C212 0.932 . S
H233 C213 0.930 . S
H234 C214 0.929 . S
H235 C216 0.930 . S
H236 C218 0.932 . S
H237 C219 0.929 . S
H238 C220 0.928 . S
H239 C222 0.932 . S
C240 C241 1.264 . S
C240 C245 1.479 . S
C240 C250 1.465 1_556 S
C241 C240 1.264 . S
C241 C243 1.339 . S
C241 H268 0.931 1_556 S
C242 C243 1.395 . S
C242 C244 1.320 . S
C243 C241 1.339 . S
C243 C242 1.395 . S
C243 H269 0.929 . S
C244 C242 1.320 . S
C244 C245 1.405 . S
C244 H270 0.927 1_545 S
C245 C240 1.479 . S
C245 C244 1.405 . S
C245 H271 0.931 . S
U246 O247 2.454 . S
U246 O248 2.458 . S
U246 C249 2.984 . S
U246 C250 2.847 . S
U246 C263 2.882 . S
U246 O264 2.441 . S
U246 O265 2.420 . S
U246 O266 2.455 . S
U246 O267 2.449 . S
O247 U246 2.454 . S
O247 C249 1.353 . S
O248 U246 2.458 . S
O248 C249 1.286 . S
C249 U246 2.984 . S
C249 O247 1.353 . S
C249 O248 1.286 . S
C249 C251 1.363 . S
C250 C240 1.465 1_554 S
C250 U246 2.847 . S
C250 O264 1.249 . S
C250 O265 1.202 . S
C251 C249 1.363 . S
C251 C253 1.408 . S
C251 C256 1.342 . S
C252 C253 1.310 . S
C252 C255 1.464 . S
C252 H272 0.932 . S
C253 C251 1.408 . S
C253 C252 1.310 . S
C253 H273 0.930 . S
C254 C255 1.473 1_565 S
C254 C256 1.286 1_565 S
C254 H274 0.929 . S
C255 C252 1.464 . S
C255 C254 1.473 1_545 S
C256 C251 1.342 . S
C256 C254 1.286 1_545 S
C256 H275 0.939 . S
C257 C260 1.424 . S
C257 C262 1.245 . S
C257 C263 1.428 . S
C258 C261 1.260 . S
C258 C262 1.477 . S
C258 H276 0.932 . S
C259 C260 1.384 . S
C259 C261 1.479 . S
C259 H277 0.929 . S
C260 C257 1.424 . S
C260 C259 1.384 . S
C260 H278 0.928 . S
C261 C258 1.260 . S
C261 C259 1.479 . S
C262 C257 1.245 . S
C262 C258 1.477 . S
C262 H279 0.932 . S
C263 U246 2.882 . S
C263 C257 1.428 . S
C263 O266 1.301 . S
C263 O267 1.282 . S
O264 U246 2.441 . S
O264 C250 1.249 . S
O265 U246 2.420 . S
O265 C250 1.202 . S
O266 U246 2.455 . S
O266 C263 1.301 . S
O267 U246 2.449 . S
O267 C263 1.282 . S
H268 C241 0.931 1_554 S
H269 C243 0.929 . S
H270 C244 0.927 1_565 S
H271 C245 0.931 . S
H272 C252 0.932 . S
H273 C253 0.930 . S
H274 C254 0.929 . S
H275 C256 0.939 . S
H276 C258 0.932 . S
H277 C259 0.929 . S
H278 C260 0.928 . S
H279 C262 0.932 . S
C280 C281 1.264 . S
C280 C285 1.479 . S
C280 C290 1.465 . S
C281 C280 1.264 . S
C281 C283 1.339 . S
C281 H308 0.931 . S
C282 C283 1.395 . S
C282 C284 1.320 . S
C283 C281 1.339 . S
C283 C282 1.395 . S
C283 H309 0.929 . S
C284 C282 1.320 . S
C284 C285 1.405 . S
C284 H310 0.930 . S
C285 C280 1.479 . S
C285 C284 1.405 . S
C285 H311 0.931 . S
U286 O287 2.454 . S
U286 O288 2.458 . S
U286 C289 2.984 . S
U286 C290 2.847 . S
U286 C303 2.882 . S
U286 O304 2.441 . S
U286 O305 2.420 . S
U286 O306 2.455 . S
U286 O307 2.449 . S
O287 U286 2.454 . S
O287 C289 1.353 . S
O288 U286 2.458 . S
O288 C289 1.286 . S
C289 U286 2.984 . S
C289 O287 1.353 . S
C289 O288 1.286 . S
C289 C291 1.363 . S
C290 C280 1.465 . S
C290 U286 2.847 . S
C290 O304 1.249 . S
C290 O305 1.202 . S
C291 C289 1.363 . S
C291 C293 1.408 . S
C291 C296 1.342 . S
C292 C293 1.310 . S
C292 C295 1.461 . S
C292 H312 0.932 . S
C293 C291 1.408 . S
C293 C292 1.310 . S
C293 H313 0.930 . S
C294 C295 1.474 . S
C294 C296 1.285 . S
C294 H314 0.929 . S
C295 C292 1.461 . S
C295 C294 1.474 . S
C296 C291 1.342 . S
C296 C294 1.285 . S
C296 H315 0.930 . S
C297 C300 1.424 . S
C297 C302 1.245 . S
C297 C303 1.428 . S
C298 C301 1.260 . S
C298 C302 1.477 . S
C298 H316 0.932 . S
C299 C300 1.384 . S
C299 C301 1.479 . S
C299 H317 0.929 . S
C300 C297 1.424 . S
C300 C299 1.384 . S
C300 H318 0.928 . S
C301 C298 1.260 . S
C301 C299 1.479 . S
C302 C297 1.245 . S
C302 C298 1.477 . S
C302 H319 0.932 . S
C303 U286 2.882 . S
C303 C297 1.428 . S
C303 O306 1.301 . S
C303 O307 1.282 . S
O304 U286 2.441 . S
O304 C290 1.249 . S
O305 U286 2.420 . S
O305 C290 1.202 . S
O306 U286 2.455 . S
O306 C303 1.301 . S
O307 U286 2.449 . S
O307 C303 1.282 . S
H308 C281 0.931 . S
H309 C283 0.929 . S
H310 C284 0.930 . S
H311 C285 0.931 . S
H312 C292 0.932 . S
H313 C293 0.930 . S
H314 C294 0.929 . S
H315 C296 0.930 . S
H316 C298 0.932 . S
H317 C299 0.929 . S
H318 C300 0.928 . S
H319 C302 0.932 . S
Tb320 C329 2.764 . S
Tb320 O330 2.325 1_655 S
Tb320 O333 2.303 1_655 S
Tb320 O337 2.322 1_545 S
Tb320 O338 2.349 . S
Tb320 O341 2.415 1_655 S
Tb320 O342 2.399 . S
Tb321 O331 2.322 1_565 S
Tb321 O332 2.349 . S
Tb321 O334 2.415 . S
Tb321 O335 2.399 . S
Tb321 O336 2.325 . S
Tb321 O339 2.303 1_455 S
Tb321 C350 2.764 . S
C322 O338 1.261 . S
C322 O339 1.257 1_545 S
C323 C326 1.358 . S
C323 C327 1.332 1_655 S
C323 C329 1.504 . S
C324 C325 1.373 . S
C324 C328 1.308 1_655 S
C325 C324 1.373 . S
C325 C326 1.429 . S
C325 H352 0.932 . S
C326 C323 1.358 . S
C326 C325 1.429 . S
C326 H353 0.930 . S
C327 C323 1.332 1_455 S
C327 C328 1.394 . S
C327 H354 0.932 . S
C328 C324 1.308 1_455 S
C328 C327 1.394 . S
C328 H355 0.929 . S
C329 Tb320 2.764 . S
C329 C323 1.504 . S
C329 O341 1.239 1_655 S
C329 O342 1.263 . S
O330 Tb320 2.325 1_455 S
O330 C340 1.236 . S
O331 Tb321 2.322 1_545 S
O331 C340 1.257 . S
O332 Tb321 2.349 . S
O332 C343 1.261 . S
O333 Tb320 2.303 1_455 S
O333 C343 1.257 1_545 S
O334 Tb321 2.415 . S
O334 C350 1.239 . S
O335 Tb321 2.399 . S
O335 C350 1.263 . S
O336 Tb321 2.325 . S
O336 C351 1.240 1_455 S
O337 Tb320 2.322 1_565 S
O337 C351 1.255 . S
O338 Tb320 2.349 . S
O338 C322 1.261 . S
O339 Tb321 2.303 1_655 S
O339 C322 1.257 1_565 S
C340 O330 1.236 . S
C340 O331 1.257 . S
O341 Tb320 2.415 1_455 S
O341 C329 1.239 1_455 S
O342 Tb320 2.399 . S
O342 C329 1.263 . S
C343 O332 1.261 . S
C343 O333 1.257 1_565 S
C344 C347 1.358 . S
C344 C348 1.332 . S
C344 C350 1.504 . S
C345 C346 1.373 . S
C345 C349 1.308 . S
C346 C345 1.373 . S
C346 C347 1.429 . S
C346 H356 0.932 . S
C347 C344 1.358 . S
C347 C346 1.429 . S
C347 H357 0.930 . S
C348 C344 1.332 . S
C348 C349 1.394 . S
C348 H358 0.932 . S
C349 C345 1.308 . S
C349 C348 1.394 . S
C349 H359 0.929 . S
C350 Tb321 2.764 . S
C350 O334 1.239 . S
C350 O335 1.263 . S
C350 C344 1.504 . S
C351 O336 1.240 1_655 S
C351 O337 1.255 . S
H352 C325 0.932 . S
H353 C326 0.930 . S
H354 C327 0.932 . S
H355 C328 0.929 . S
H356 C346 0.932 . S
H357 C347 0.930 . S
H358 C348 0.932 . S
H359 C349 0.929 . S
Tb360 C369 2.764 . S
Tb360 O370 2.325 . S
Tb360 O373 2.303 1_565 S
Tb360 O377 2.322 . S
Tb360 O378 2.349 . S
Tb360 O381 2.415 1_565 S
Tb360 O382 2.399 . S
Tb361 O371 2.322 . S
Tb361 O372 2.349 . S
Tb361 O374 2.415 1_545 S
Tb361 O375 2.399 . S
Tb361 O376 2.325 . S
Tb361 O379 2.303 1_545 S
Tb361 C390 2.764 . S
C362 O378 1.261 . S
C362 O379 1.257 . S
C363 C366 1.358 . S
C363 C367 1.312 1_565 S
C363 C369 1.504 . S
C364 C365 1.373 . S
C364 C368 1.350 . S
C365 C364 1.373 . S
C365 C366 1.429 . S
C365 H392 0.932 . S
C366 C363 1.358 . S
C366 C365 1.429 . S
C366 H393 0.930 . S
C367 C363 1.312 1_545 S
C367 C368 1.397 1_545 S
C367 H394 0.952 . S
C368 C364 1.350 . S
C368 C367 1.397 1_565 S
C368 H395 0.886 1_565 S
C369 Tb360 2.764 . S
C369 C363 1.504 . S
C369 O381 1.239 1_565 S
C369 O382 1.263 . S
O370 Tb360 2.325 . S
O370 C380 1.236 1_565 S
O371 Tb361 2.322 . S
O371 C380 1.257 . S
O372 Tb361 2.349 . S
O372 C383 1.261 . S
O373 Tb360 2.303 1_545 S
O373 C383 1.257 . S
O374 Tb361 2.415 1_565 S
O374 C390 1.239 1_565 S
O375 Tb361 2.399 . S
O375 C390 1.263 . S
O376 Tb361 2.325 . S
O376 C391 1.236 1_545 S
O377 Tb360 2.322 . S
O377 C391 1.257 . S
O378 Tb360 2.349 . S
O378 C362 1.261 . S
O379 Tb361 2.303 1_565 S
O379 C362 1.257 . S
C380 O370 1.236 1_545 S
C380 O371 1.257 . S
O381 Tb360 2.415 1_545 S
O381 C369 1.239 1_545 S
O382 Tb360 2.399 . S
O382 C369 1.263 . S
C383 O372 1.261 . S
C383 O373 1.257 . S
C384 C387 1.354 1_556 S
C384 C388 1.321 1_545 S
C384 C390 1.504 . S
C385 C386 1.373 . S
C385 C389 1.308 1_554 S
C386 C385 1.373 . S
C386 C387 1.434 . S
C386 H396 0.932 . S
C387 C384 1.354 1_554 S
C387 C386 1.434 . S
C387 H397 0.928 1_554 S
C388 C384 1.321 1_565 S
C388 C389 1.394 1_565 S
C388 H398 0.943 . S
C389 C385 1.308 1_556 S
C389 C388 1.394 1_545 S
C389 H399 0.929 1_545 S
C390 Tb361 2.764 . S
C390 O374 1.239 1_545 S
C390 O375 1.263 . S
C390 C384 1.504 . S
C391 O376 1.236 1_565 S
C391 O377 1.257 . S
H392 C365 0.932 . S
H393 C366 0.930 . S
H394 C367 0.952 . S
H395 C368 0.886 1_545 S
H396 C386 0.932 . S
H397 C387 0.928 1_556 S
H398 C388 0.943 . S
H399 C389 0.929 1_565 S
Tb400 C409 2.764 . S
Tb400 O410 2.325 . S
Tb400 O413 2.303 . S
Tb400 O417 2.322 . S
Tb400 O418 2.349 . S
Tb400 O421 2.415 . S
Tb400 O422 2.399 . S
Tb401 O411 2.322 . S
Tb401 O412 2.349 . S
Tb401 O414 2.415 . S
Tb401 O415 2.399 . S
Tb401 O416 2.325 . S
Tb401 O419 2.303 . S
Tb401 C430 2.764 . S
C402 O418 1.261 . S
C402 O419 1.257 . S
C403 C406 1.358 . S
C403 C407 1.332 1_556 S
C403 C409 1.504 . S
C404 C405 1.373 . S
C404 C408 1.308 . S
C405 C404 1.373 . S
C405 C406 1.429 1_554 S
C405 H432 0.932 . S
C406 C403 1.358 . S
C406 C405 1.429 1_556 S
C406 H433 0.930 . S
C407 C403 1.332 1_554 S
C407 C408 1.394 . S
C407 H434 0.932 1_554 S
C408 C404 1.308 . S
C408 C407 1.394 . S
C408 H435 0.929 . S
C409 Tb400 2.764 . S
C409 C403 1.504 . S
C409 O421 1.239 . S
C409 O422 1.263 . S
O410 Tb400 2.325 . S
O410 C420 1.236 . S
O411 Tb401 2.322 . S
O411 C420 1.257 . S
O412 Tb401 2.349 . S
O412 C423 1.261 . S
O413 Tb400 2.303 . S
O413 C423 1.257 . S
O414 Tb401 2.415 . S
O414 C430 1.239 . S
O415 Tb401 2.399 . S
O415 C430 1.263 . S
O416 Tb401 2.325 . S
O416 C431 1.236 . S
O417 Tb400 2.322 . S
O417 C431 1.257 . S
O418 Tb400 2.349 . S
O418 C402 1.261 . S
O419 Tb401 2.303 . S
O419 C402 1.257 . S
C420 O410 1.236 . S
C420 O411 1.257 . S
O421 Tb400 2.415 . S
O421 C409 1.239 . S
O422 Tb400 2.399 . S
O422 C409 1.263 . S
C423 O412 1.261 . S
C423 O413 1.257 . S
C424 C427 1.358 . S
C424 C428 1.332 . S
C424 C430 1.504 . S
C425 C426 1.373 . S
C425 C429 1.308 . S
C426 C425 1.373 . S
C426 C427 1.429 . S
C426 H436 0.932 . S
C427 C424 1.358 . S
C427 C426 1.429 . S
C427 H437 0.930 . S
C428 C424 1.332 . S
C428 C429 1.394 . S
C428 H438 0.932 . S
C429 C425 1.308 . S
C429 C428 1.394 . S
C429 H439 0.929 . S
C430 Tb401 2.764 . S
C430 O414 1.239 . S
C430 O415 1.263 . S
C430 C424 1.504 . S
C431 O416 1.236 . S
C431 O417 1.257 . S
H432 C405 0.932 . S
H433 C406 0.930 . S
H434 C407 0.932 1_556 S
H435 C408 0.929 . S
H436 C426 0.932 . S
H437 C427 0.930 . S
H438 C428 0.932 . S
H439 C429 0.929 . S
Tb440 C449 2.764 . S
Tb440 O450 2.325 . S
Tb440 O453 2.303 . S
Tb440 O457 2.322 1_455 S
Tb440 O458 2.349 . S
Tb440 O461 2.415 . S
Tb440 O462 2.399 . S
Tb441 O451 2.322 1_655 S
Tb441 O452 2.349 1_655 S
Tb441 O454 2.415 . S
Tb441 O455 2.399 . S
Tb441 O456 2.325 . S
Tb441 O459 2.303 1_655 S
Tb441 C470 2.764 . S
C442 O458 1.261 . S
C442 O459 1.257 . S
C443 C446 1.358 . S
C443 C447 1.332 . S
C443 C449 1.504 . S
C444 C445 1.373 . S
C444 C448 1.308 . S
C445 C444 1.373 . S
C445 C446 1.429 . S
C445 H472 0.932 . S
C446 C443 1.358 . S
C446 C445 1.429 . S
C446 H473 0.930 . S
C447 C443 1.332 . S
C447 C448 1.394 . S
C447 H474 0.932 . S
C448 C444 1.308 . S
C448 C447 1.394 . S
C448 H475 0.929 . S
C449 Tb440 2.764 . S
C449 C443 1.504 . S
C449 O461 1.239 . S
C449 O462 1.263 . S
O450 Tb440 2.325 . S
O450 C460 1.236 . S
O451 Tb441 2.322 1_455 S
O451 C460 1.257 . S
O452 Tb441 2.349 1_455 S
O452 C463 1.261 . S
O453 Tb440 2.303 . S
O453 C463 1.257 . S
O454 Tb441 2.415 . S
O454 C470 1.239 . S
O455 Tb441 2.399 . S
O455 C470 1.263 . S
O456 Tb441 2.325 . S
O456 C471 1.236 . S
O457 Tb440 2.322 1_655 S
O457 C471 1.257 . S
O458 Tb440 2.349 . S
O458 C442 1.261 . S
O459 Tb441 2.303 1_455 S
O459 C442 1.257 . S
C460 O450 1.236 . S
C460 O451 1.257 . S
O461 Tb440 2.415 . S
O461 C449 1.239 . S
O462 Tb440 2.399 . S
O462 C449 1.263 . S
C463 O452 1.261 . S
C463 O453 1.257 . S
C464 C467 1.358 . S
C464 C468 1.332 . S
C464 C470 1.504 . S
C465 C466 1.373 1_554 S
C465 C469 1.308 . S
C466 C465 1.373 1_556 S
C466 C467 1.429 . S
C466 H476 0.928 1_556 S
C467 C464 1.358 . S
C467 C466 1.429 . S
C467 H477 0.930 . S
C468 C464 1.332 . S
C468 C469 1.394 1_556 S
C468 H478 0.932 . S
C469 C465 1.308 . S
C469 C468 1.394 1_554 S
C469 H479 0.929 . S
C470 Tb441 2.764 . S
C470 O454 1.239 . S
C470 O455 1.263 . S
C470 C464 1.504 . S
C471 O456 1.236 . S
C471 O457 1.257 . S
H472 C445 0.932 . S
H473 C446 0.930 . S
H474 C447 0.932 . S
H475 C448 0.929 . S
H476 C466 0.928 1_554 S
H477 C467 0.930 . S
H478 C468 0.932 . S
H479 C469 0.929 . S
H480 C486 0.930 . S
H481 C489 0.930 . S
H482 C490 0.930 . S
H483 C491 0.930 . S
H484 C494 0.930 . S
H485 C495 0.930 . S
C486 H480 0.930 . S
C486 C487 1.355 1_545 S
C486 C488 1.415 . S
C487 C486 1.355 1_565 S
C487 C489 1.419 . S
C488 C486 1.415 . S
C488 C493 1.425 1_545 S
C488 C495 1.409 . S
C489 H481 0.930 . S
C489 C487 1.419 . S
C489 C490 1.362 . S
C490 H482 0.930 . S
C490 C489 1.362 . S
C490 C493 1.409 . S
C491 H483 0.930 . S
C491 C492 1.355 1_565 S
C491 C493 1.415 . S
C492 C491 1.355 1_545 S
C492 C494 1.419 . S
C493 C488 1.425 1_565 S
C493 C490 1.409 . S
C493 C491 1.415 . S
C494 H484 0.930 . S
C494 C492 1.419 . S
C494 C495 1.362 . S
C495 H485 0.930 . S
C495 C488 1.409 . S
C495 C494 1.362 . S
H496 C502 0.930 . S
H497 C505 0.930 . S
H498 C506 0.930 . S
H499 C507 0.930 . S
H500 C510 0.930 . S
H501 C511 0.930 . S
C502 H496 0.930 . S
C502 C503 1.355 . S
C502 C504 1.415 . S
C503 C502 1.355 . S
C503 C505 1.419 . S
C504 C502 1.415 . S
C504 C509 1.425 . S
C504 C511 1.409 . S
C505 H497 0.930 . S
C505 C503 1.419 . S
C505 C506 1.362 . S
C506 H498 0.930 . S
C506 C505 1.362 . S
C506 C509 1.409 . S
C507 H499 0.930 . S
C507 C508 1.355 . S
C507 C509 1.415 . S
C508 C507 1.355 . S
C508 C510 1.419 . S
C509 C504 1.425 . S
C509 C506 1.409 . S
C509 C507 1.415 . S
C510 H500 0.930 . S
C510 C508 1.419 . S
C510 C511 1.362 . S
C511 H501 0.930 . S
C511 C504 1.409 . S
C511 C510 1.362 . S
H512 C518 0.930 . S
H513 C521 0.930 . S
H514 C522 0.930 . S
H515 C523 0.930 . S
H516 C526 0.930 . S
H517 C527 0.930 . S
C518 H512 0.930 . S
C518 C519 1.355 . S
C518 C520 1.415 . S
C519 C518 1.355 . S
C519 C521 1.419 . S
C520 C518 1.415 . S
C520 C525 1.425 . S
C520 C527 1.409 . S
C521 H513 0.930 . S
C521 C519 1.419 . S
C521 C522 1.362 . S
C522 H514 0.930 . S
C522 C521 1.362 . S
C522 C525 1.409 . S
C523 H515 0.930 . S
C523 C524 1.355 . S
C523 C525 1.415 . S
C524 C523 1.355 . S
C524 C526 1.419 . S
C525 C520 1.425 . S
C525 C522 1.409 . S
C525 C523 1.415 . S
C526 H516 0.930 . S
C526 C524 1.419 . S
C526 C527 1.362 . S
C527 H517 0.930 . S
C527 C520 1.409 . S
C527 C526 1.362 . S
H528 C534 0.930 . S
H529 C537 0.930 . S
H530 C538 0.930 . S
H531 C539 0.930 . S
H532 C542 0.930 . S
H533 C543 0.930 . S
C534 H528 0.930 . S
C534 C535 1.355 . S
C534 C536 1.415 . S
C535 C534 1.355 . S
C535 C537 1.419 . S
C536 C534 1.415 . S
C536 C541 1.425 . S
C536 C543 1.409 . S
C537 H529 0.930 . S
C537 C535 1.419 . S
C537 C538 1.362 . S
C538 H530 0.930 . S
C538 C537 1.362 . S
C538 C541 1.409 . S
C539 H531 0.930 . S
C539 C540 1.355 . S
C539 C541 1.415 . S
C540 C539 1.355 . S
C540 C542 1.419 . S
C541 C536 1.425 . S
C541 C538 1.409 . S
C541 C539 1.415 . S
C542 H532 0.930 . S
C542 C540 1.419 . S
C542 C543 1.362 . S
C543 H533 0.930 . S
C543 C536 1.409 . S
C543 C542 1.362 . S
H544 C550 0.930 . S
H545 C553 0.930 . S
H546 C554 0.930 . S
H547 C555 0.930 . S
H548 C558 0.930 1_556 S
H549 C559 0.930 . S
C550 H544 0.930 . S
C550 C551 1.355 1_545 S
C550 C552 1.415 . S
C551 C550 1.355 1_565 S
C551 C553 1.419 . S
C552 C550 1.415 . S
C552 C557 1.425 1_545 S
C552 C559 1.409 . S
C553 H545 0.930 . S
C553 C551 1.419 . S
C553 C554 1.362 . S
C554 H546 0.930 . S
C554 C553 1.362 . S
C554 C557 1.409 . S
C555 H547 0.930 . S
C555 C556 1.320 1_565 S
C555 C557 1.415 1_556 S
C556 C555 1.320 1_545 S
C556 C558 1.455 1_556 S
C557 C552 1.425 1_565 S
C557 C554 1.409 . S
C557 C555 1.415 1_554 S
C558 H548 0.930 1_554 S
C558 C556 1.455 1_554 S
C558 C559 1.362 . S
C559 H549 0.930 . S
C559 C552 1.409 . S
C559 C558 1.362 . S
H560 C566 0.930 . S
H561 C569 0.930 1_554 S
H562 C570 0.930 . S
H563 C571 0.930 . S
H564 C574 0.930 . S
H565 C575 0.930 . S
C566 H560 0.930 . S
C566 C567 1.355 . S
C566 C568 1.415 . S
C567 C566 1.355 . S
C567 C569 1.419 . S
C568 C566 1.415 . S
C568 C573 1.425 . S
C568 C575 1.409 . S
C569 H561 0.930 1_556 S
C569 C567 1.419 . S
C569 C570 1.362 . S
C570 H562 0.930 . S
C570 C569 1.362 . S
C570 C573 1.409 . S
C571 H563 0.930 . S
C571 C572 1.355 . S
C571 C573 1.415 . S
C572 C571 1.355 . S
C572 C574 1.419 . S
C573 C568 1.425 . S
C573 C570 1.409 . S
C573 C571 1.415 . S
C574 H564 0.930 . S
C574 C572 1.419 . S
C574 C575 1.362 . S
C575 H565 0.930 . S
C575 C568 1.409 . S
C575 C574 1.362 . S
H576 C582 0.930 . S
H577 C585 0.930 . S
H578 C586 0.930 . S
H579 C587 0.930 . S
H580 C590 0.930 1_556 S
H581 C591 0.930 . S
C582 H576 0.930 . S
C582 C583 1.355 . S
C582 C584 1.415 . S
C583 C582 1.355 . S
C583 C585 1.419 . S
C584 C582 1.415 . S
C584 C589 1.425 . S
C584 C591 1.409 . S
C585 H577 0.930 . S
C585 C583 1.419 . S
C585 C586 1.362 . S
C586 H578 0.930 . S
C586 C585 1.362 . S
C586 C589 1.409 . S
C587 H579 0.930 . S
C587 C588 1.355 . S
C587 C589 1.415 1_556 S
C588 C587 1.355 . S
C588 C590 1.419 1_556 S
C589 C584 1.425 . S
C589 C586 1.409 . S
C589 C587 1.415 1_554 S
C590 H580 0.930 1_554 S
C590 C588 1.419 1_554 S
C590 C591 1.362 . S
C591 H581 0.930 . S
C591 C584 1.409 . S
C591 C590 1.362 . S
H592 C598 0.930 . S
H593 C601 0.930 . S
H594 C602 0.930 . S
H595 C603 0.930 . S
H596 C606 0.930 . S
H597 C607 0.930 . S
C598 H592 0.930 . S
C598 C599 1.355 . S
C598 C600 1.415 . S
C599 C598 1.355 . S
C599 C601 1.419 1_655 S
C600 C598 1.415 . S
C600 C605 1.425 1_655 S
C600 C607 1.409 1_554 S
C601 H593 0.930 . S
C601 C599 1.419 1_455 S
C601 C602 1.362 . S
C602 H594 0.930 . S
C602 C601 1.362 . S
C602 C605 1.409 . S
C603 H595 0.930 . S
C603 C604 1.355 . S
C603 C605 1.415 1_556 S
C604 C603 1.355 . S
C604 C606 1.419 1_455 S
C605 C600 1.425 1_455 S
C605 C602 1.409 . S
C605 C603 1.415 1_554 S
C606 H596 0.930 . S
C606 C604 1.419 1_655 S
C606 C607 1.362 . S
C607 H597 0.930 . S
C607 C600 1.409 1_556 S
C607 C606 1.362 . S
H608 C614 0.930 . S
H609 C617 0.930 . S
H610 C618 0.930 . S
H611 C619 0.930 . S
H612 C622 0.930 . S
H613 C623 0.930 . S
C614 H608 0.930 . S
C614 C615 1.355 . S
C614 C616 1.415 . S
C615 C614 1.355 . S
C615 C617 1.419 . S
C616 C614 1.415 . S
C616 C621 1.425 1_455 S
C616 C623 1.409 . S
C617 H609 0.930 . S
C617 C615 1.419 . S
C617 C618 1.362 1_455 S
C618 H610 0.930 . S
C618 C617 1.362 1_655 S
C618 C621 1.409 . S
C619 H611 0.930 . S
C619 C620 1.355 . S
C619 C621 1.415 . S
C620 C619 1.355 . S
C620 C622 1.419 1_655 S
C621 C616 1.425 1_655 S
C621 C618 1.409 . S
C621 C619 1.415 . S
C622 H612 0.930 . S
C622 C620 1.419 1_455 S
C622 C623 1.362 . S
C623 H613 0.930 . S
C623 C616 1.409 . S
C623 C622 1.362 . S
H624 C630 0.930 . S
H625 C633 0.930 . S
H626 C634 0.930 . S
H627 C635 0.930 . S
H628 C638 0.930 . S
H629 C639 0.930 . S
C630 H624 0.930 . S
C630 C631 1.355 . S
C630 C632 1.415 1_545 S
C631 C630 1.355 . S
C631 C633 1.419 1_545 S
C632 C630 1.415 1_565 S
C632 C637 1.425 . S
C632 C639 1.409 1_565 S
C633 H625 0.930 . S
C633 C631 1.419 1_565 S
C633 C634 1.362 . S
C634 H626 0.930 . S
C634 C633 1.362 . S
C634 C637 1.409 . S
C635 H627 0.930 . S
C635 C636 1.355 . S
C635 C637 1.415 . S
C636 C635 1.355 . S
C636 C638 1.419 . S
C637 C632 1.425 . S
C637 C634 1.409 . S
C637 C635 1.415 . S
C638 H628 0.930 . S
C638 C636 1.419 . S
C638 C639 1.362 1_565 S
C639 H629 0.930 . S
C639 C632 1.409 1_545 S
C639 C638 1.362 1_545 S
H640 C646 0.930 . S
H641 C649 0.930 . S
H642 C650 0.930 . S
H643 C651 0.930 . S
H644 C654 0.930 . S
H645 C655 0.930 . S
C646 H640 0.930 . S
C646 C647 1.355 . S
C646 C648 1.415 . S
C647 C646 1.355 . S
C647 C649 1.419 . S
C648 C646 1.415 . S
C648 C653 1.425 . S
C648 C655 1.409 . S
C649 H641 0.930 . S
C649 C647 1.419 . S
C649 C650 1.362 . S
C650 H642 0.930 . S
C650 C649 1.362 . S
C650 C653 1.409 . S
C651 H643 0.930 . S
C651 C652 1.355 . S
C651 C653 1.415 . S
C652 C651 1.355 . S
C652 C654 1.419 . S
C653 C648 1.425 . S
C653 C650 1.409 . S
C653 C651 1.415 . S
C654 H644 0.930 . S
C654 C652 1.419 . S
C654 C655 1.362 . S
C655 H645 0.930 . S
C655 C648 1.409 . S
C655 C654 1.362 . S
H656 C662 0.930 . S
H657 C665 0.930 . S
H658 C666 0.930 . S
H659 C667 0.930 . S
H660 C670 0.930 . S
H661 C671 0.930 . S
C662 H656 0.930 . S
C662 C663 1.355 . S
C662 C664 1.415 . S
C663 C662 1.355 . S
C663 C665 1.419 . S
C664 C662 1.415 . S
C664 C669 1.425 . S
C664 C671 1.409 . S
C665 H657 0.930 . S
C665 C663 1.419 . S
C665 C666 1.362 . S
C666 H658 0.930 . S
C666 C665 1.362 . S
C666 C669 1.409 . S
C667 H659 0.930 . S
C667 C668 1.355 . S
C667 C669 1.415 . S
C668 C667 1.355 . S
C668 C670 1.419 . S
C669 C664 1.425 . S
C669 C666 1.409 . S
C669 C667 1.415 . S
C670 H660 0.930 . S
C670 C668 1.419 . S
C670 C671 1.362 . S
C671 H661 0.930 . S
C671 C664 1.409 . S
C671 C670 1.362 . S
H672 C678 0.930 . S
H673 C681 0.930 . S
H674 C682 0.930 1_556 S
H675 C683 0.930 . S
H676 C686 0.930 . S
H677 C687 0.930 . S
C678 H672 0.930 . S
C678 C679 1.355 1_455 S
C678 C680 1.415 . S
C679 C678 1.355 1_655 S
C679 C681 1.419 . S
C680 C678 1.415 . S
C680 C685 1.425 . S
C680 C687 1.409 . S
C681 H673 0.930 . S
C681 C679 1.419 . S
C681 C682 1.362 . S
C682 H674 0.930 1_554 S
C682 C681 1.362 . S
C682 C685 1.409 1_655 S
C683 H675 0.930 . S
C683 C684 1.355 1_556 S
C683 C685 1.415 1_556 S
C684 C683 1.355 1_554 S
C684 C686 1.419 . S
C685 C680 1.425 . S
C685 C682 1.409 1_455 S
C685 C683 1.415 1_554 S
C686 H676 0.930 . S
C686 C684 1.419 . S
C686 C687 1.362 . S
C687 H677 0.930 . S
C687 C680 1.409 . S
C687 C686 1.362 . S
H688 C694 0.930 . S
H689 C697 0.930 . S
H690 C698 0.930 . S
H691 C699 0.930 . S
H692 C702 0.941 . S
H693 C703 0.930 . S
C694 H688 0.930 . S
C694 C695 1.378 . S
C694 C696 1.436 . S
C695 C694 1.378 . S
C695 C697 1.369 1_565 S
C696 C694 1.436 . S
C696 C701 1.385 1_565 S
C696 C703 1.427 . S
C697 H689 0.930 . S
C697 C695 1.369 1_545 S
C697 C698 1.362 . S
C698 H690 0.930 . S
C698 C697 1.362 . S
C698 C701 1.409 . S
C699 H691 0.930 . S
C699 C700 1.355 . S
C699 C701 1.415 . S
C700 C699 1.355 . S
C700 C702 1.394 1_545 S
C701 C696 1.385 1_545 S
C701 C698 1.409 . S
C701 C699 1.415 . S
C702 H692 0.941 . S
C702 C700 1.394 1_565 S
C702 C703 1.376 . S
C703 H693 0.930 . S
C703 C696 1.427 . S
C703 C702 1.376 . S
H704 C710 0.930 . S
H705 C713 0.930 . S
H706 C714 0.930 . S
H707 C715 0.930 . S
H708 C718 0.930 . S
H709 C719 0.930 . S
C710 H704 0.930 . S
C710 C711 1.355 . S
C710 C712 1.415 . S
C711 C710 1.355 . S
C711 C713 1.419 . S
C712 C710 1.415 . S
C712 C717 1.425 . S
C712 C719 1.409 . S
C713 H705 0.930 . S
C713 C711 1.419 . S
C713 C714 1.362 . S
C714 H706 0.930 . S
C714 C713 1.362 . S
C714 C717 1.409 . S
C715 H707 0.930 . S
C715 C716 1.355 . S
C715 C717 1.415 . S
C716 C715 1.355 . S
C716 C718 1.419 . S
C717 C712 1.425 . S
C717 C714 1.409 . S
C717 C715 1.415 . S
C718 H708 0.930 . S
C718 C716 1.419 . S
C718 C719 1.362 . S
C719 H709 0.930 . S
C719 C712 1.409 . S
C719 C718 1.362 . S
H720 C726 0.930 . S
H721 C729 0.930 . S
H722 C730 0.930 . S
H723 C731 0.930 1_556 S
H724 C734 0.930 . S
H725 C735 0.930 . S
C726 H720 0.930 . S
C726 C727 1.355 . S
C726 C728 1.415 . S
C727 C726 1.355 . S
C727 C729 1.419 . S
C728 C726 1.415 . S
C728 C733 1.425 . S
C728 C735 1.409 . S
C729 H721 0.930 . S
C729 C727 1.419 . S
C729 C730 1.362 . S
C730 H722 0.930 . S
C730 C729 1.362 . S
C730 C733 1.409 . S
C731 H723 0.930 1_554 S
C731 C732 1.355 . S
C731 C733 1.415 . S
C732 C731 1.355 . S
C732 C734 1.419 . S
C733 C728 1.425 . S
C733 C730 1.409 . S
C733 C731 1.415 . S
C734 H724 0.930 . S
C734 C732 1.419 . S
C734 C735 1.362 . S
C735 H725 0.930 . S
C735 C728 1.409 . S
C735 C734 1.362 . S
H736 C742 0.930 . S
H737 C745 0.930 . S
H738 C746 0.930 . S
H739 C747 0.930 . S
H740 C750 0.930 . S
H741 C751 0.930 . S
C742 H736 0.930 . S
C742 C743 1.355 . S
C742 C744 1.415 . S
C743 C742 1.355 . S
C743 C745 1.419 . S
C744 C742 1.415 . S
C744 C749 1.425 . S
C744 C751 1.409 . S
C745 H737 0.930 . S
C745 C743 1.419 . S
C745 C746 1.362 . S
C746 H738 0.930 . S
C746 C745 1.362 . S
C746 C749 1.409 . S
C747 H739 0.930 . S
C747 C748 1.355 . S
C747 C749 1.415 . S
C748 C747 1.355 . S
C748 C750 1.419 . S
C749 C744 1.425 . S
C749 C746 1.409 . S
C749 C747 1.415 . S
C750 H740 0.930 . S
C750 C748 1.419 . S
C750 C751 1.362 . S
C751 H741 0.930 . S
C751 C744 1.409 . S
C751 C750 1.362 . S
H752 C758 0.930 . S
H753 C761 0.930 . S
H754 C762 0.930 . S
H755 C763 0.930 . S
H756 C766 0.930 . S
H757 C767 0.930 . S
C758 H752 0.930 . S
C758 C759 1.327 1_545 S
C758 C760 1.415 . S
C759 C758 1.327 1_565 S
C759 C761 1.453 . S
C760 C758 1.415 . S
C760 C765 1.425 1_545 S
C760 C767 1.409 . S
C761 H753 0.930 . S
C761 C759 1.453 . S
C761 C762 1.362 . S
C762 H754 0.930 . S
C762 C761 1.362 . S
C762 C765 1.409 . S
C763 H755 0.930 . S
C763 C764 1.355 1_565 S
C763 C765 1.415 . S
C764 C763 1.355 1_545 S
C764 C766 1.419 . S
C765 C760 1.425 1_565 S
C765 C762 1.409 . S
C765 C763 1.415 . S
C766 H756 0.930 . S
C766 C764 1.419 . S
C766 C767 1.362 . S
C767 H757 0.930 . S
C767 C760 1.409 . S
C767 C766 1.362 . S
H768 C774 0.930 . S
H769 C777 0.930 . S
H770 C778 0.930 . S
H771 C779 0.930 . S
H772 C782 0.930 . S
H773 C783 0.930 . S
C774 H768 0.930 . S
C774 C775 1.355 . S
C774 C776 1.415 . S
C775 C774 1.355 . S
C775 C777 1.419 . S
C776 C774 1.415 . S
C776 C781 1.425 . S
C776 C783 1.409 . S
C777 H769 0.930 . S
C777 C775 1.419 . S
C777 C778 1.362 . S
C778 H770 0.930 . S
C778 C777 1.362 . S
C778 C781 1.409 . S
C779 H771 0.930 . S
C779 C780 1.355 . S
C779 C781 1.415 . S
C780 C779 1.355 . S
C780 C782 1.419 . S
C781 C776 1.425 . S
C781 C778 1.409 . S
C781 C779 1.415 . S
C782 H772 0.930 . S
C782 C780 1.419 . S
C782 C783 1.362 . S
C783 H773 0.930 . S
C783 C776 1.409 . S
C783 C782 1.362 . S
H784 C790 0.930 . S
H785 C793 0.930 . S
H786 C794 0.930 . S
H787 C795 0.930 . S
H788 C798 0.930 . S
H789 C799 0.930 . S
C790 H784 0.930 . S
C790 C791 1.355 . S
C790 C792 1.415 . S
C791 C790 1.355 . S
C791 C793 1.419 . S
C792 C790 1.415 . S
C792 C797 1.425 . S
C792 C799 1.409 . S
C793 H785 0.930 . S
C793 C791 1.419 . S
C793 C794 1.362 . S
C794 H786 0.930 . S
C794 C793 1.362 . S
C794 C797 1.409 . S
C795 H787 0.930 . S
C795 C796 1.355 . S
C795 C797 1.415 . S
C796 C795 1.355 . S
C796 C798 1.419 . S
C797 C792 1.425 . S
C797 C794 1.409 . S
C797 C795 1.415 . S
C798 H788 0.930 . S
C798 C796 1.419 . S
C798 C799 1.362 . S
C799 H789 0.930 . S
C799 C792 1.409 . S
C799 C798 1.362 . S
H800 C806 0.930 . S
H801 C809 0.930 . S
H802 C810 0.930 . S
H803 C811 0.930 . S
H804 C814 0.930 . S
H805 C815 0.930 . S
C806 H800 0.930 . S
C806 C807 1.355 . S
C806 C808 1.415 . S
C807 C806 1.355 . S
C807 C809 1.419 . S
C808 C806 1.415 . S
C808 C813 1.425 . S
C808 C815 1.409 . S
C809 H801 0.930 . S
C809 C807 1.419 . S
C809 C810 1.362 . S
C810 H802 0.930 . S
C810 C809 1.362 . S
C810 C813 1.409 . S
C811 H803 0.930 . S
C811 C812 1.355 . S
C811 C813 1.415 . S
C812 C811 1.355 . S
C812 C814 1.419 . S
C813 C808 1.425 . S
C813 C810 1.409 . S
C813 C811 1.415 . S
C814 H804 0.930 . S
C814 C812 1.419 . S
C814 C815 1.362 . S
C815 H805 0.930 . S
C815 C808 1.409 . S
C815 C814 1.362 . S
H816 C822 0.930 . S
H817 C825 0.930 . S
H818 C826 0.930 . S
H819 C827 0.930 . S
H820 C830 0.930 . S
H821 C831 0.930 . S
C822 H816 0.930 . S
C822 C823 1.355 1_545 S
C822 C824 1.415 . S
C823 C822 1.355 1_565 S
C823 C825 1.419 . S
C824 C822 1.415 . S
C824 C829 1.425 1_545 S
C824 C831 1.409 . S
C825 H817 0.930 . S
C825 C823 1.419 . S
C825 C826 1.362 . S
C826 H818 0.930 . S
C826 C825 1.362 . S
C826 C829 1.409 . S
C827 H819 0.930 . S
C827 C828 1.355 . S
C827 C829 1.415 . S
C828 C827 1.355 . S
C828 C830 1.419 1_565 S
C829 C824 1.425 1_565 S
C829 C826 1.409 . S
C829 C827 1.415 . S
C830 H820 0.930 . S
C830 C828 1.419 1_545 S
C830 C831 1.362 . S
C831 H821 0.930 . S
C831 C824 1.409 . S
C831 C830 1.362 . S
H832 C838 0.930 . S
H833 C841 0.930 . S
H834 C842 0.930 . S
H835 C843 0.930 . S
H836 C846 0.930 . S
H837 C847 0.930 . S
C838 H832 0.930 . S
C838 C839 1.355 . S
C838 C840 1.415 . S
C839 C838 1.355 . S
C839 C841 1.419 . S
C840 C838 1.415 . S
C840 C845 1.425 . S
C840 C847 1.409 . S
C841 H833 0.930 . S
C841 C839 1.419 . S
C841 C842 1.362 . S
C842 H834 0.930 . S
C842 C841 1.362 . S
C842 C845 1.409 . S
C843 H835 0.930 . S
C843 C844 1.355 . S
C843 C845 1.415 . S
C844 C843 1.355 . S
C844 C846 1.419 . S
C845 C840 1.425 . S
C845 C842 1.409 . S
C845 C843 1.415 . S
C846 H836 0.930 . S
C846 C844 1.419 . S
C846 C847 1.362 . S
C847 H837 0.930 . S
C847 C840 1.409 . S
C847 C846 1.362 . S
H848 C854 0.930 . S
H849 C857 0.930 . S
H850 C858 0.930 . S
H851 C859 0.930 . S
H852 C862 0.930 . S
H853 C863 0.930 . S
C854 H848 0.930 . S
C854 C855 1.355 . S
C854 C856 1.415 . S
C855 C854 1.355 . S
C855 C857 1.419 . S
C856 C854 1.415 . S
C856 C861 1.425 . S
C856 C863 1.409 . S
C857 H849 0.930 . S
C857 C855 1.419 . S
C857 C858 1.362 . S
C858 H850 0.930 . S
C858 C857 1.362 . S
C858 C861 1.409 . S
C859 H851 0.930 . S
C859 C860 1.355 . S
C859 C861 1.415 . S
C860 C859 1.355 . S
C860 C862 1.419 . S
C861 C856 1.425 . S
C861 C858 1.409 . S
C861 C859 1.415 . S
C862 H852 0.930 . S
C862 C860 1.419 . S
C862 C863 1.362 . S
C863 H853 0.930 . S
C863 C856 1.409 . S
C863 C862 1.362 . S
C487 C255 2.465 1_565 S
C492 C343 2.693 1_545 S
C508 C383 1.699 . S
C503 C295 1.676 . S
C524 C402 2.723 . S
C519 C175 2.473 . S
C540 C463 2.037 . S
C535 C215 1.823 . S
C556 C322 2.665 . S
C551 C95 2.417 1_565 S
C567 C135 1.669 . S
C572 C362 1.701 . S
C583 C15 2.461 . S
C588 C423 2.727 . S
C599 C55 1.904 . S
C604 C442 2.076 . S
C620 C324 0.787 . S
C615 C221 0.863 . S
C636 C364 0.383 . S
C631 C261 0.431 . S
C652 C420 1.463 . S
C647 C301 1.354 . S
C663 C181 0.369 . S
C668 C444 0.519 . S
C679 C61 0.950 . S
C684 C345 0.966 1_554 S
C700 C385 0.336 . S
C695 C101 0.424 1_565 S
C716 C431 1.382 . S
C711 C141 1.120 . S
C727 C21 0.682 . S
C732 C465 0.642 . S
C743 C202 2.624 . S
C748 C340 2.938 . S
C759 C242 3.273 1_565 S
C764 C380 3.597 . S
C780 C404 2.095 . S
C775 C282 2.039 . S
C796 C460 3.575 . S
C791 C162 3.239 . S
C807 C42 2.611 . S
C812 C351 2.945 . S
C828 C391 3.577 . S
C823 C82 3.260 1_565 S
C844 C425 2.072 . S
C839 C122 2.031 . S
C855 C2 3.298 . S
C860 C471 3.595 . S
