# Generated by pormake.
# Topology pyr, (3,6)-cn, num edge types: 1
# Building blocks:
#     Node 0, Type 0, BuildingBlock: OLANEW_clean_sbu_2, # of connection points: 3
#     Node 1, Type 0, BuildingBlock: OLANEW_clean_sbu_2, # of connection points: 3
#     Node 2, Type 0, BuildingBlock: OLANEW_clean_sbu_2, # of connection points: 3
#     Node 3, Type 0, BuildingBlock: OLANEW_clean_sbu_2, # of connection points: 3
#     Node 4, Type 0, BuildingBlock: OLANEW_clean_sbu_2, # of connection points: 3
#     Node 5, Type 0, BuildingBlock: OLANEW_clean_sbu_2, # of connection points: 3
#     Node 6, Type 0, BuildingBlock: OLANEW_clean_sbu_2, # of connection points: 3
#     Node 7, Type 0, BuildingBlock: OLANEW_clean_sbu_2, # of connection points: 3
#     Node 8, Type 1, BuildingBlock: PAMTOO_clean_sbu_0, # of connection points: 6
#     Node 9, Type 1, BuildingBlock: PAMTOO_clean_sbu_0, # of connection points: 6
#     Node 10, Type 1, BuildingBlock: PAMTOO_clean_sbu_0, # of connection points: 6
#     Node 11, Type 1, BuildingBlock: PAMTOO_clean_sbu_0, # of connection points: 6
#     Edge 12, Type (0, 1), BuildingBlock: OJICUG_clean_linker_0, # of connection points: 2
#     Edge 13, Type (0, 1), BuildingBlock: OJICUG_clean_linker_0, # of connection points: 2
#     Edge 14, Type (0, 1), BuildingBlock: OJICUG_clean_linker_0, # of connection points: 2
#     Edge 15, Type (0, 1), BuildingBlock: OJICUG_clean_linker_0, # of connection points: 2
#     Edge 16, Type (0, 1), BuildingBlock: OJICUG_clean_linker_0, # of connection points: 2
#     Edge 17, Type (0, 1), BuildingBlock: OJICUG_clean_linker_0, # of connection points: 2
#     Edge 18, Type (0, 1), BuildingBlock: OJICUG_clean_linker_0, # of connection points: 2
#     Edge 19, Type (0, 1), BuildingBlock: OJICUG_clean_linker_0, # of connection points: 2
#     Edge 20, Type (0, 1), BuildingBlock: OJICUG_clean_linker_0, # of connection points: 2
#     Edge 21, Type (0, 1), BuildingBlock: OJICUG_clean_linker_0, # of connection points: 2
#     Edge 22, Type (0, 1), BuildingBlock: OJICUG_clean_linker_0, # of connection points: 2
#     Edge 23, Type (0, 1), BuildingBlock: OJICUG_clean_linker_0, # of connection points: 2
#     Edge 24, Type (0, 1), BuildingBlock: OJICUG_clean_linker_0, # of connection points: 2
#     Edge 25, Type (0, 1), BuildingBlock: OJICUG_clean_linker_0, # of connection points: 2
#     Edge 26, Type (0, 1), BuildingBlock: OJICUG_clean_linker_0, # of connection points: 2
#     Edge 27, Type (0, 1), BuildingBlock: OJICUG_clean_linker_0, # of connection points: 2
#     Edge 28, Type (0, 1), BuildingBlock: OJICUG_clean_linker_0, # of connection points: 2
#     Edge 29, Type (0, 1), BuildingBlock: OJICUG_clean_linker_0, # of connection points: 2
#     Edge 30, Type (0, 1), BuildingBlock: OJICUG_clean_linker_0, # of connection points: 2
#     Edge 31, Type (0, 1), BuildingBlock: OJICUG_clean_linker_0, # of connection points: 2
#     Edge 32, Type (0, 1), BuildingBlock: OJICUG_clean_linker_0, # of connection points: 2
#     Edge 33, Type (0, 1), BuildingBlock: OJICUG_clean_linker_0, # of connection points: 2
#     Edge 34, Type (0, 1), BuildingBlock: OJICUG_clean_linker_0, # of connection points: 2
#     Edge 35, Type (0, 1), BuildingBlock: OJICUG_clean_linker_0, # of connection points: 2
# Relax obj value: 0.185
# Max RMSD: 0.225
# Mean RMSD: 0.129
data_MOF--net-pyr--node1-OLANEW_clean_sbu_2--node2-PAMTOO_clean_sbu_0--edge1-OJICUG_clean_linker_0
_symmetry_space_group_name_H-M    P1
_symmetry_Int_Tables_number       1
_symmetry_cell_setting            triclinic
loop_
_symmetry_equiv_pos_as_xyz
'x, y, z'
_cell_length_a     29.258497
_cell_length_b     32.836219
_cell_length_c     32.065927
_cell_angle_alpha  94.56116
_cell_angle_beta   89.189873
_cell_angle_gamma 107.7741
loop_
_atom_site_label
_atom_site_type_symbol
_atom_site_fract_x
_atom_site_fract_y
_atom_site_fract_z
_atom_type_partial_charge
O0 O 0.41392 0.26494 0.184 0.0
Cd1 Cd 0.39388 0.33295 0.19347 0.0
O2 O 0.44813 0.27833 0.24605 0.0
Cd3 Cd 0.47311 0.25841 0.30242 0.0
O4 O 0.44175 0.2285 0.35858 0.0
C5 C 0.4035 0.23673 0.36994 0.0
O6 O 0.38909 0.26355 0.34913 0.0
C7 C 0.43654 0.25394 0.2126 0.0
C8 C 0.30407 0.33566 0.1655 0.0
O9 O 0.34029 0.34257 0.1411 0.0
O10 O 0.30967 0.32577 0.20257 0.0
O11 O 0.15764 0.7798 0.84471 0.0
Cd12 Cd 0.12687 0.75812 0.7737 0.0
O13 O 0.10821 0.81603 0.86471 0.0
Cd14 Cd 0.07501 0.80654 0.8028 0.0
O15 O 0.06017 0.83211 0.74548 0.0
C16 C 0.03245 0.85537 0.74836 0.0
O17 O 0.0123 0.86039 0.7845 0.0
C18 C 0.14315 0.80241 0.87268 0.0
C19 C 0.2041 0.74408 0.73014 0.0
O20 O 0.17221 0.71322 0.74588 0.0
O21 O 0.19806 0.78125 0.73313 0.0
O22 O 0.72772 0.46194 0.88574 0.0
Cd23 Cd 0.65037 0.44572 0.84639 0.0
O24 O 0.70447 0.39886 0.91104 0.0
Cd25 Cd 0.69534 0.34151 0.94624 0.0
O26 O 0.66077 0.27788 0.97042 0.0
C27 C 0.65216 0.2754 1.0093 0.0
O28 O 0.66529 0.3108 0.03425 0.0
C29 C 0.73605 0.43546 0.9095 0.0
C30 C 0.63676 0.48909 0.7768 0.0
O31 O 0.63429 0.50493 0.81433 0.0
O32 O 0.64836 0.45436 0.7721 0.0
O33 O 0.94582 0.76921 0.3576 0.0
Cd34 Cd 0.90387 0.69966 0.31629 0.0
O35 O 0.89353 0.74558 0.40687 0.0
Cd36 Cd 0.85215 0.68136 0.38323 0.0
O37 O 0.78889 0.64957 0.41859 0.0
C38 C 0.77389 0.67507 0.44307 0.0
O39 O 0.79597 0.71647 0.4436 0.0
C40 C 0.92819 0.77519 0.39342 0.0
C41 C 0.93721 0.6594 0.24594 0.0
O42 O 0.92105 0.69118 0.24238 0.0
O43 O 0.94069 0.64831 0.28294 0.0
O44 O 0.65672 0.74633 0.78117 0.0
Cd45 Cd 0.62944 0.69408 0.83305 0.0
O46 O 0.66099 0.79777 0.82986 0.0
Cd47 Cd 0.67009 0.86029 0.86444 0.0
O48 O 0.65595 0.90334 0.91549 0.0
C49 C 0.61824 0.8875 0.9363 0.0
O50 O 0.5916 0.84798 0.92564 0.0
C51 C 0.66759 0.78623 0.79194 0.0
C52 C 0.71061 0.67957 0.86485 0.0
O53 O 0.68855 0.65745 0.83234 0.0
O54 O 0.69338 0.70773 0.88311 0.0
O55 O 0.93676 0.28701 0.35874 0.0
Cd56 Cd 0.97652 0.3048 0.42654 0.0
O57 O 0.88369 0.32197 0.36967 0.0
Cd58 Cd 0.90366 0.35585 0.431 0.0
O59 O 0.8474 0.37934 0.45988 0.0
C60 C 0.82015 0.38681 0.43287 0.0
O61 O 0.83046 0.38246 0.39307 0.0
C62 C 0.90077 0.29703 0.34657 0.0
C63 C 0.98557 0.22729 0.44926 0.0
O64 O 0.02019 0.25413 0.43156 0.0
O65 O 0.9476 0.2379 0.45771 0.0
O66 O 0.42638 0.79446 0.2723 0.0
Cd67 Cd 0.39415 0.72068 0.29856 0.0
O68 O 0.37232 0.77844 0.22115 0.0
Cd69 Cd 0.33473 0.71031 0.22432 0.0
O70 O 0.27948 0.66047 0.18764 0.0
C71 C 0.27185 0.66873 0.15071 0.0
O72 O 0.29816 0.7051 0.13692 0.0
C73 C 0.4071 0.80558 0.24127 0.0
C74 C 0.42835 0.68995 0.36893 0.0
O75 O 0.44488 0.68566 0.33211 0.0
O76 O 0.39791 0.71099 0.37326 0.0
O77 O 0.16031 0.42344 0.80474 0.0
Cd78 Cd 0.17999 0.39468 0.73559 0.0
O79 O 0.09031 0.37281 0.80211 0.0
Cd80 Cd 0.10714 0.33008 0.75148 0.0
O81 O 0.10482 0.27171 0.71094 0.0
C82 C 0.06404 0.2432 0.70738 0.0
O83 O 0.02753 0.25087 0.72719 0.0
C84 C 0.11868 0.40726 0.81967 0.0
C85 C 0.26038 0.44368 0.69344 0.0
O86 O 0.22174 0.45436 0.69579 0.0
O87 O 0.26169 0.41088 0.71198 0.0
Dy88 Dy 0.06331 0.01579 0.54107 0.0
Dy89 Dy 0.94894 0.99903 0.56449 0.0
C90 C 0.02983 0.08283 0.60428 0.0
O91 O 0.04307 0.96118 0.58217 0.0
O92 O 0.98164 0.97755 0.61746 0.0
O93 O 0.13749 0.02805 0.55934 0.0
O94 O 0.11635 0.0156 0.4939 0.0
O95 O 0.95558 0.93807 0.53234 0.0
O96 O 0.01996 0.96763 0.49188 0.0
O97 O 0.96148 0.03592 0.50753 0.0
O98 O 0.04299 0.06825 0.51381 0.0
O99 O 0.87355 0.9676 0.55059 0.0
O100 O 0.8952 1.01187 0.60558 0.0
C101 C 0.01417 0.95752 0.61431 0.0
O102 O 0.06415 0.06572 0.59388 0.0
O103 O 0.98561 0.0657 0.59034 0.0
C104 C 0.19403 0.06085 0.50912 0.0
C105 C 0.27027 0.12521 0.47665 0.0
C106 C 0.23396 0.13605 0.5001 0.0
C107 C 0.19596 0.10405 0.51605 0.0
C108 C 0.23099 0.05004 0.48733 0.0
C109 C 0.26875 0.08186 0.47119 0.0
C110 C 0.15187 0.02633 0.52072 0.0
C111 C 0.98223 0.93543 0.49954 0.0
C112 C 1.00058 0.06705 0.49979 0.0
C113 C 0.82617 0.95361 0.6119 0.0
C114 C 0.76761 0.90001 0.6689 0.0
C115 C 0.79629 0.88409 0.64043 0.0
C116 C 0.82559 0.91073 0.61235 0.0
C117 C 0.79688 0.9693 0.63969 0.0
C118 C 0.768 0.94282 0.66807 0.0
C119 C 0.85978 0.98349 0.58544 0.0
H120 H 0.23431 0.16913 0.50529 0.0
H121 H 0.16745 0.11287 0.53268 0.0
H122 H 0.2297 0.01675 0.48141 0.0
H123 H 0.29546 0.07217 0.45271 0.0
H124 H 0.79718 0.85138 0.64074 0.0
H125 H 0.84847 0.89808 0.59169 0.0
H126 H 0.79715 1.0024 0.64004 0.0
H127 H 0.74606 0.95584 0.68946 0.0
Dy128 Dy 0.47283 0.02671 0.09164 0.0
Dy129 Dy 0.57001 0.05212 0.15047 0.0
C130 C 0.48054 0.96888 0.1669 0.0
O131 O 0.46815 0.0828 0.13197 0.0
O132 O 0.52633 0.09163 0.18252 0.0
O133 O 0.39751 0.01901 0.08406 0.0
O134 O 0.44004 1.00916 0.03026 0.0
O135 O 0.57727 0.11131 0.11929 0.0
O136 O 0.5286 0.08106 0.0623 0.0
O137 O 0.58378 0.02248 0.08765 0.0
O138 O 0.50861 0.97723 0.07517 0.0
O139 O 0.64604 0.06184 0.1508 0.0
O140 O 0.6084 0.06271 0.20949 0.0
C141 C 0.48949 0.10118 0.16719 0.0
O142 O 0.45223 0.98276 0.14389 0.0
O143 O 0.52706 0.98754 0.16884 0.0
C144 C 0.35683 0.97185 0.02812 0.0
C145 C 0.27847 0.90462 0.99397 0.0
C146 C 0.31706 0.89564 1.01301 0.0
C147 C 0.35601 0.9291 0.0301 0.0
C148 C 0.31805 0.98082 1.01021 0.0
C149 C 0.27929 0.94762 0.99326 0.0
C150 C 0.39749 1.00795 0.04411 0.0
C151 C 0.5618 0.11357 0.0817 0.0
C152 C 0.55469 0.98759 0.06852 0.0
C153 C 0.68927 0.10558 0.2071 0.0
C154 C 0.76722 0.17568 0.23653 0.0
C155 C 0.73172 0.18186 0.21079 0.0
C156 C 0.69296 0.14697 0.19611 0.0
C157 C 0.72464 0.09923 0.23234 0.0
C158 C 0.76326 0.13394 0.24701 0.0
C159 C 0.64986 0.06837 0.19137 0.0
H160 H 0.3174 0.86286 1.01419 0.0
H161 H 0.38567 0.92172 0.04424 0.0
H162 H 0.31818 0.0137 1.00856 0.0
H163 H 0.25084 0.95586 0.97808 0.0
H164 H 0.73384 0.2136 0.20214 0.0
H165 H 0.66593 0.15222 0.17628 0.0
H166 H 0.72225 0.06738 0.24094 0.0
H167 H 0.7893 0.12817 0.26756 0.0
Dy168 Dy 0.51391 0.53189 0.54456 0.0
Dy169 Dy 0.5182 0.62173 0.60005 0.0
C170 C 0.56251 0.5538 0.63731 0.0
O171 O 0.43891 0.52048 0.56709 0.0
O172 O 0.45408 0.57188 0.62254 0.0
O173 O 0.5013 0.46327 0.53787 0.0
O174 O 0.52496 0.501 0.48495 0.0
O175 O 0.46819 0.61587 0.54606 0.0
O176 O 0.50236 0.5777 0.50013 0.0
O177 O 0.58151 0.63708 0.55735 0.0
O178 O 0.5907 0.57026 0.54906 0.0
O179 O 0.52346 0.68892 0.60131 0.0
O180 O 0.51497 0.65754 0.65893 0.0
C181 C 0.42634 0.53681 0.60253 0.0
O182 O 0.53846 0.52448 0.60862 0.0
O183 O 0.56588 0.59463 0.63617 0.0
C184 C 0.56 0.4474 0.49441 0.0
C185 C 0.64348 0.42352 0.47758 0.0
C186 C 0.64189 0.45191 0.51237 0.0
C187 C 0.60054 0.46379 0.52065 0.0
C188 C 0.56078 0.41813 0.46043 0.0
C189 C 0.60217 0.40616 0.45212 0.0
C190 C 0.51912 0.46424 0.50033 0.0
C191 C 0.47792 0.60502 0.50749 0.0
C192 C 0.6068 0.6115 0.54499 0.0
C193 C 0.4684 0.70252 0.64979 0.0
C194 C 0.38178 0.71922 0.67078 0.0
C195 C 0.38188 0.68415 0.64274 0.0
C196 C 0.42473 0.67587 0.63243 0.0
C197 C 0.46889 0.73817 0.67703 0.0
C198 C 0.42579 0.74658 0.68739 0.0
C199 C 0.51226 0.69086 0.64076 0.0
H200 H 0.67318 0.46627 0.53227 0.0
H201 H 0.60073 0.48683 0.54684 0.0
H202 H 0.52988 0.4054 0.43975 0.0
H203 H 0.60207 0.38377 0.4254 0.0
H204 H 0.34871 0.66282 0.62904 0.0
H205 H 0.42368 0.64807 0.61142 0.0
H206 H 0.50231 0.75886 0.69088 0.0
H207 H 0.42671 0.77363 0.70938 0.0
Dy208 Dy 0.01574 0.56695 1.00112 0.0
Dy209 Dy 0.00752 0.48296 0.05314 0.0
C210 C 0.98038 0.56402 0.0973 0.0
O211 O 0.09112 0.57683 0.0224 0.0
O212 O 0.0735 0.53365 0.07715 0.0
O213 O 0.02767 0.6346 0.99533 0.0
O214 O 0.01024 0.58974 0.9406 0.0
O215 O 0.05991 0.48413 1.0011 0.0
O216 O 0.0213 0.51274 0.95647 0.0
O217 O 0.94035 0.46596 1.01273 0.0
O218 O 0.93773 0.53421 1.00767 0.0
O219 O 1.00048 0.41524 0.05012 0.0
O220 O 0.01013 0.45219 0.10988 0.0
C221 C 0.1031 0.56474 0.05775 0.0
O222 O 1.00208 0.58719 0.06703 0.0
O223 O 0.97129 0.52194 0.09508 0.0
C224 C 0.97342 0.64371 0.94567 0.0
C225 C 0.88936 0.66029 0.9207 0.0
C226 C 0.89425 0.64989 0.9617 0.0
C227 C 0.93579 0.64136 0.974 0.0
C228 C 0.96933 0.65554 0.90518 0.0
C229 C 0.92757 0.66369 0.89274 0.0
C230 C 0.01372 0.62837 0.95628 0.0
C231 C 0.04973 0.48987 0.96284 0.0
C232 C 0.91731 0.49264 1.00256 0.0
C233 C 0.05172 0.40128 0.09926 0.0
C234 C 0.13149 0.37409 0.11832 0.0
C235 C 0.13745 0.41072 0.09622 0.0
C236 C 0.09804 0.42415 0.08684 0.0
C237 C 0.04534 0.36466 0.12111 0.0
C238 C 0.08486 0.35118 0.13062 0.0
C239 C 0.01062 0.41625 0.08973 0.0
H240 H 0.86516 0.64656 0.98372 0.0
H241 H 0.93772 0.6314 1.00518 0.0
H242 H 0.99774 0.65699 0.88276 0.0
H243 H 0.92482 0.67198 0.86104 0.0
H244 H 0.17278 0.42962 0.08687 0.0
H245 H 0.10377 0.45268 0.07014 0.0
H246 H 0.00986 0.34658 0.13094 0.0
H247 H 0.07885 0.32265 0.14734 0.0
C248 C 0.38627 0.18245 0.42348 0.0
C249 C 0.37226 0.21242 0.402 0.0
H250 H 0.36554 0.13221 0.46503 0.0
C251 C 0.32632 0.2166 0.40893 0.0
H252 H 0.42161 0.17875 0.41913 0.0
C253 C 0.29401 0.18962 0.43477 0.0
C254 C 0.30702 0.15803 0.45455 0.0
H255 H 0.3144 0.23945 0.39295 0.0
H256 H 0.25802 0.19215 0.43741 0.0
C257 C 0.35403 0.15563 0.44961 0.0
C258 C 0.21787 0.81351 0.91474 0.0
C259 C 0.17247 0.81938 0.91108 0.0
H260 H 0.28729 0.83619 0.94375 0.0
C261 C 0.15926 0.84749 0.94073 0.0
H262 H 0.22909 0.79181 0.89264 0.0
C263 C 0.19259 0.87262 0.97046 0.0
C264 C 0.23983 0.87034 0.9709 0.0
H265 H 0.12431 0.85226 0.93923 0.0
H266 H 0.18225 0.89575 0.99142 0.0
C267 C 0.25131 0.83888 0.94426 0.0
C268 C 0.6135 0.4845 0.70101 0.0
C269 C 0.6227 0.50814 0.74016 0.0
H270 H 0.58728 0.48015 0.63827 0.0
C271 C 0.61476 0.54848 0.74446 0.0
H272 H 0.61907 0.45332 0.69646 0.0
C273 C 0.59688 0.56418 0.71073 0.0
C274 C 0.58573 0.53957 0.67215 0.0
H275 H 0.6215 0.5676 0.77413 0.0
H276 H 0.59024 0.59491 0.71535 0.0
C277 C 0.59496 0.49983 0.66761 0.0
C278 C 0.95377 0.65195 0.16895 0.0
C279 C 0.94905 0.63498 0.20822 0.0
H280 H 0.96713 0.64303 0.10356 0.0
C281 C 0.95344 0.59365 0.21059 0.0
H282 H 0.95037 0.68351 0.16583 0.0
C283 C 0.96217 0.5699 0.17453 0.0
C284 C 0.96752 0.58723 0.13537 0.0
H285 H 0.94957 0.57938 0.24026 0.0
H286 H 0.96565 0.53835 0.17749 0.0
C287 C 0.96326 0.6286 0.13315 0.0
C288 C 0.49073 0.2085 0.22242 0.0
C289 C 0.44757 0.21267 0.20711 0.0
H290 H 0.53825 0.16967 0.22207 0.0
C291 C 0.41636 0.17788 0.18343 0.0
H292 H 0.51581 0.23509 0.24034 0.0
C293 C 0.42878 0.14052 0.17358 0.0
C294 C 0.47329 0.13711 0.18638 0.0
H295 H 0.38271 0.17994 0.17155 0.0
H296 H 0.40416 0.11491 0.15416 0.0
C297 C 0.50359 0.17103 0.21204 0.0
C298 C 0.05393 0.88049 0.67665 0.0
C299 C 0.02602 0.87936 0.71286 0.0
H300 H 0.07239 0.90624 0.61721 0.0
C301 C 0.99335 0.90313 0.71577 0.0
H302 H 0.07951 0.86258 0.67347 0.0
C303 C 0.98922 0.92806 0.68357 0.0
C304 C 0.01785 0.93001 0.64775 0.0
H305 H 0.97121 0.90289 0.74317 0.0
H306 H 0.9639 0.94621 0.6871 0.0
C307 C 0.04999 0.90566 0.64447 0.0
C308 C 0.80611 0.49262 0.94279 0.0
C309 C 0.78099 0.44874 0.93543 0.0
H310 H 0.86728 0.54054 0.96991 0.0
C311 C 0.80002 0.41887 0.9522 0.0
H312 H 0.7926 0.51667 0.93069 0.0
C313 C 0.84375 0.43271 0.97486 0.0
C314 C 0.86905 0.47673 0.98164 0.0
H315 H 0.78193 0.38482 0.94688 0.0
H316 H 0.85805 0.40894 0.98647 0.0
C317 C 0.84912 0.50637 0.96565 0.0
C318 C 0.71213 0.68761 0.49301 0.0
C319 C 0.73252 0.65889 0.47073 0.0
H320 H 0.65654 0.69528 0.53417 0.0
C321 C 0.713 0.61479 0.47517 0.0
H322 H 0.7265 0.72185 0.49039 0.0
C323 C 0.67332 0.59965 0.50068 0.0
C324 C 0.65199 0.62826 0.52199 0.0
H325 H 0.72812 0.59189 0.45871 0.0
H326 H 0.65865 0.56533 0.50272 0.0
C327 C 0.67212 0.67244 0.51822 0.0
C328 C 0.25325 0.35435 0.11204 0.0
C329 C 0.25817 0.34159 0.15216 0.0
H330 H 0.20941 0.37383 0.0697 0.0
C331 C 0.21985 0.33718 0.1802 0.0
H332 H 0.28189 0.3579 0.08955 0.0
C333 C 0.17831 0.34661 0.1689 0.0
C334 C 0.17404 0.36076 0.12926 0.0
H335 H 0.2224 0.32749 0.21138 0.0
H336 H 0.15025 0.34423 0.1918 0.0
C337 C 0.21175 0.36379 0.10075 0.0
C338 C 0.6054 0.19619 1.0009 0.0
C339 C 0.62802 0.23356 0.02677 0.0
H340 H 0.56588 0.12884 0.99778 0.0
C341 C 0.62722 0.23093 0.07028 0.0
H342 H 0.60513 0.19716 0.96723 0.0
C343 C 0.60527 0.1921 0.08754 0.0
C344 C 0.58289 0.1546 0.06193 0.0
H345 H 0.64407 0.25891 0.09124 0.0
H346 H 0.60586 0.19159 0.12127 0.0
C347 C 0.58269 0.15712 1.01835 0.0
C348 C 0.92096 0.8206 0.45802 0.0
C349 C 0.94474 0.81655 0.42007 0.0
H350 H 0.91363 0.86037 0.51199 0.0
C351 C 0.98191 0.85232 0.40841 0.0
H352 H 0.89209 0.79403 0.4684 0.0
C353 C 0.99453 0.89108 0.43412 0.0
C354 C 0.97 0.89488 0.47177 0.0
H355 H 1.00092 0.85048 0.37946 0.0
H356 H 0.0232 0.91813 0.42432 0.0
C357 C 0.93322 0.85899 0.48326 0.0
C358 C 0.25356 0.69638 0.70771 0.0
C359 C 0.24821 0.73757 0.71178 0.0
H360 H 0.30007 0.65847 0.69211 0.0
C361 C 0.28668 0.77272 0.70099 0.0
H362 H 0.22472 0.66866 0.71594 0.0
C363 C 0.33004 0.76688 0.68739 0.0
C364 C 0.33558 0.72573 0.684 0.0
H365 H 0.28372 0.80491 0.70393 0.0
H366 H 0.35922 0.79452 0.67954 0.0
C367 C 0.29673 0.69053 0.69394 0.0
C368 C 0.71534 0.86004 0.77249 0.0
C369 C 0.68899 0.81729 0.76055 0.0
H370 H 0.76094 0.91976 0.75282 0.0
C371 C 0.68668 0.80283 0.71787 0.0
H372 H 0.71906 0.87203 0.805 0.0
C373 C 0.71129 0.82995 0.68808 0.0
C374 C 0.7386 0.87231 0.70016 0.0
H375 H 0.66663 0.77011 0.70746 0.0
H376 H 0.70934 0.81762 0.65558 0.0
C377 C 0.73967 0.88736 0.74255 0.0
C378 C 0.82857 0.27925 0.29996 0.0
C379 C 0.87276 0.27324 0.30947 0.0
H380 H 0.76022 0.25274 0.2696 0.0
C381 C 0.88535 0.23924 0.2881 0.0
H382 H 0.81791 0.30539 0.3155 0.0
C383 C 0.85226 0.20918 0.26144 0.0
C384 C 0.80603 0.21256 0.25573 0.0
H385 H 0.91936 0.23401 0.29423 0.0
H386 H 0.86187 0.18191 0.24724 0.0
C387 C 0.79544 0.2491 0.27344 0.0
C388 C 0.4253 0.67539 0.44549 0.0
C389 C 0.44197 0.66921 0.40475 0.0
H390 H 0.42324 0.66021 0.50956 0.0
C391 C 0.47 0.64126 0.3982 0.0
H392 H 0.40349 0.6965 0.4518 0.0
C393 C 0.48085 0.61999 0.43125 0.0
C394 C 0.46426 0.62618 0.472 0.0
H395 H 0.4833 0.63542 0.36732 0.0
H396 H 0.50265 0.5989 0.42481 0.0
C397 C 0.43646 0.65435 0.47866 0.0
C398 C 0.05465 0.43095 0.85723 0.0
C399 C 0.10195 0.42894 0.85645 0.0
H400 H 1.00166 0.45277 0.89105 0.0
C401 C 0.13223 0.44711 0.89114 0.0
H402 H 0.03056 0.4173 0.83091 0.0
C403 C 0.11509 0.46615 0.92629 0.0
C404 C 0.068 0.46876 0.92661 0.0
H405 H 0.16878 0.44581 0.8914 0.0
H406 H 0.13887 0.47951 0.95286 0.0
C407 C 0.03815 0.45132 0.89158 0.0
C408 C 0.55817 0.89678 0.98942 0.0
C409 C 0.60347 0.91293 0.97127 0.0
H410 H 0.50749 0.90752 0.0342 0.0
C411 C 0.63372 0.95336 0.98664 0.0
H412 H 0.53396 0.86574 0.97848 0.0
C413 C 0.61861 0.9773 1.01912 0.0
C414 C 0.57277 0.96145 0.03646 0.0
H415 H 0.66894 0.9666 0.97345 0.0
H416 H 0.64238 1.00858 0.02994 0.0
C417 C 0.54294 0.9208 0.02144 0.0
C418 C 0.03335 0.17671 0.45776 0.0
C419 C 0.98902 0.18508 0.45921 0.0
H420 H 0.07177 0.13256 0.46902 0.0
C421 C 0.94784 0.15267 0.47027 0.0
H422 H 0.06568 0.20094 0.44909 0.0
C423 C 0.95114 0.1132 0.48093 0.0
C424 C 0.99582 0.10549 0.4813 0.0
H425 H 0.91304 0.15795 0.47121 0.0
H426 H 0.91892 0.08949 0.4906 0.0
C427 C 0.03678 0.13744 0.46897 0.0
C428 C 0.20269 0.60123 0.1394 0.0
C429 C 0.23158 0.63984 0.12477 0.0
H430 H 0.14011 0.54699 0.12948 0.0
C431 C 0.22016 0.65168 0.08592 0.0
H432 H 0.21064 0.59097 0.169 0.0
C433 C 0.17952 0.62646 0.06315 0.0
C434 C 0.14946 0.5888 0.0787 0.0
H435 H 0.24181 0.68114 0.07359 0.0
H436 H 0.17089 0.63726 0.03407 0.0
C437 C 0.16219 0.57599 0.11663 0.0
C438 C 0.32999 0.44581 0.64664 0.0
C439 C 0.30176 0.46766 0.669 0.0
H440 H 0.39058 0.45058 0.60673 0.0
C441 C 0.3133 0.51232 0.66752 0.0
H442 H 0.32164 0.41135 0.647 0.0
C443 C 0.35349 0.5349 0.64535 0.0
C444 C 0.38164 0.51297 0.62295 0.0
H445 H 0.29208 0.5299 0.68446 0.0
H446 H 0.36263 0.56949 0.64576 0.0
C447 C 0.36909 0.46816 0.62328 0.0
C448 C 0.77848 0.64839 0.85552 0.0
C449 C 0.75564 0.67383 0.87985 0.0
H450 H 0.83878 0.62443 0.84936 0.0
C451 C 0.77707 0.69478 0.91786 0.0
H452 H 0.76293 0.63187 0.82606 0.0
C453 C 0.82049 0.6904 0.93121 0.0
C454 C 0.84358 0.66542 0.90657 0.0
H455 H 0.76037 0.71464 0.93727 0.0
H456 H 0.83636 0.707 0.96055 0.0
C457 C 0.8221 0.64441 0.86865 0.0
C458 C 0.39609 0.86311 0.19893 0.0
C459 C 0.42492 0.8496 0.22632 0.0
H460 H 0.39042 0.91092 0.15926 0.0
C461 C 0.47117 0.87724 0.23631 0.0
H462 H 0.36008 0.8429 0.19065 0.0
C463 C 0.48874 0.91645 0.21788 0.0
C464 C 0.46033 0.92921 0.18939 0.0
H465 H 0.49437 0.86795 0.25716 0.0
H466 H 0.52505 0.9364 0.22541 0.0
C467 C 0.41341 0.90234 0.1809 0.0
C468 C 0.01006 0.17415 0.67443 0.0
C469 C 0.05679 0.20211 0.68135 0.0
H470 H 0.96522 0.11519 0.64527 0.0
C471 C 0.09547 0.19009 0.66339 0.0
H472 H 0.97935 0.18215 0.68773 0.0
C473 C 0.08731 0.15097 0.63891 0.0
C474 C 0.04029 0.12343 0.63163 0.0
H475 H 0.13197 0.21086 0.66823 0.0
H476 H 0.11764 0.14267 0.62518 0.0
C477 C 1.00193 0.13557 0.64989 0.0
C478 C 0.76155 0.39871 0.48706 0.0
C479 C 0.77584 0.39735 0.44508 0.0
H480 H 0.70806 0.40735 0.53027 0.0
C481 C 0.74637 0.40468 0.41412 0.0
H482 H 0.78336 0.39301 0.51162 0.0
C483 C 0.70345 0.41287 0.42475 0.0
C484 C 0.68883 0.41392 0.46662 0.0
H485 H 0.75631 0.404 0.38146 0.0
H486 H 0.682 0.41896 0.40012 0.0
C487 C 0.71847 0.40697 0.49773 0.0
loop_
_geom_bond_atom_site_label_1
_geom_bond_atom_site_label_2
_geom_bond_distance
_geom_bond_site_symmetry_2
_ccdc_geom_bond_type
O0 Cd1 2.300 . S
O0 C7 1.275 . S
Cd1 O0 2.300 . S
Cd1 O9 2.381 . S
Cd1 O10 2.378 . S
O2 Cd3 2.385 . S
O2 C7 1.255 . S
Cd3 O2 2.385 . S
Cd3 O4 2.317 . S
O4 Cd3 2.317 . S
O4 C5 1.232 . S
C5 O4 1.232 . S
C5 O6 1.218 . S
O6 C5 1.218 . S
C7 O0 1.275 . S
C7 O2 1.255 . S
C8 O9 1.258 . S
C8 O10 1.256 . S
O9 Cd1 2.381 . S
O9 C8 1.258 . S
O10 Cd1 2.378 . S
O10 C8 1.256 . S
O11 Cd12 2.300 . S
O11 C18 1.275 . S
Cd12 O11 2.300 . S
Cd12 O20 2.381 . S
Cd12 O21 2.378 . S
O13 Cd14 2.385 . S
O13 C18 1.255 . S
Cd14 O13 2.385 . S
Cd14 O15 2.317 . S
O15 Cd14 2.317 . S
O15 C16 1.232 . S
C16 O15 1.232 . S
C16 O17 1.218 . S
O17 C16 1.218 . S
C18 O11 1.275 . S
C18 O13 1.255 . S
C19 O20 1.258 . S
C19 O21 1.256 . S
O20 Cd12 2.381 . S
O20 C19 1.258 . S
O21 Cd12 2.378 . S
O21 C19 1.256 . S
O22 Cd23 2.300 . S
O22 C29 1.275 . S
Cd23 O22 2.300 . S
Cd23 O31 2.381 . S
Cd23 O32 2.378 . S
O24 Cd25 2.385 . S
O24 C29 1.255 . S
Cd25 O24 2.385 . S
Cd25 O26 2.317 . S
O26 Cd25 2.317 . S
O26 C27 1.232 . S
C27 O26 1.232 . S
C27 O28 1.218 . S
O28 C27 1.218 . S
C29 O22 1.275 . S
C29 O24 1.255 . S
C30 O31 1.258 . S
C30 O32 1.256 . S
O31 Cd23 2.381 . S
O31 C30 1.258 . S
O32 Cd23 2.378 . S
O32 C30 1.256 . S
O33 Cd34 2.300 . S
O33 C40 1.275 . S
Cd34 O33 2.300 . S
Cd34 O42 2.381 . S
Cd34 O43 2.378 . S
O35 Cd36 2.385 . S
O35 C40 1.255 . S
Cd36 O35 2.385 . S
Cd36 O37 2.317 . S
O37 Cd36 2.317 . S
O37 C38 1.232 . S
C38 O37 1.232 . S
C38 O39 1.218 . S
O39 C38 1.218 . S
C40 O33 1.275 . S
C40 O35 1.255 . S
C41 O42 1.258 . S
C41 O43 1.256 . S
O42 Cd34 2.381 . S
O42 C41 1.258 . S
O43 Cd34 2.378 . S
O43 C41 1.256 . S
O44 Cd45 2.300 . S
O44 C51 1.275 . S
Cd45 O44 2.300 . S
Cd45 O53 2.381 . S
Cd45 O54 2.378 . S
O46 Cd47 2.385 . S
O46 C51 1.255 . S
Cd47 O46 2.385 . S
Cd47 O48 2.317 . S
O48 Cd47 2.317 . S
O48 C49 1.232 . S
C49 O48 1.232 . S
C49 O50 1.218 . S
O50 C49 1.218 . S
C51 O44 1.275 . S
C51 O46 1.255 . S
C52 O53 1.258 . S
C52 O54 1.256 . S
O53 Cd45 2.381 . S
O53 C52 1.258 . S
O54 Cd45 2.378 . S
O54 C52 1.256 . S
O55 Cd56 2.300 . S
O55 C62 1.275 . S
Cd56 O55 2.300 . S
Cd56 O64 2.381 . S
Cd56 O65 2.378 1_655 S
O57 Cd58 2.385 . S
O57 C62 1.255 . S
Cd58 O57 2.385 . S
Cd58 O59 2.317 . S
O59 Cd58 2.317 . S
O59 C60 1.232 . S
C60 O59 1.232 . S
C60 O61 1.218 . S
O61 C60 1.218 . S
C62 O55 1.275 . S
C62 O57 1.255 . S
C63 O64 1.258 . S
C63 O65 1.256 1_655 S
O64 Cd56 2.381 . S
O64 C63 1.258 . S
O65 Cd56 2.378 1_455 S
O65 C63 1.256 1_455 S
O66 Cd67 2.300 . S
O66 C73 1.275 . S
Cd67 O66 2.300 . S
Cd67 O75 2.381 . S
Cd67 O76 2.378 . S
O68 Cd69 2.385 . S
O68 C73 1.255 . S
Cd69 O68 2.385 . S
Cd69 O70 2.317 . S
O70 Cd69 2.317 . S
O70 C71 1.232 . S
C71 O70 1.232 . S
C71 O72 1.218 . S
O72 C71 1.218 . S
C73 O66 1.275 . S
C73 O68 1.255 . S
C74 O75 1.258 . S
C74 O76 1.256 . S
O75 Cd67 2.381 . S
O75 C74 1.258 . S
O76 Cd67 2.378 . S
O76 C74 1.256 . S
O77 Cd78 2.300 . S
O77 C84 1.275 . S
Cd78 O77 2.300 . S
Cd78 O86 2.381 . S
Cd78 O87 2.378 . S
O79 Cd80 2.385 . S
O79 C84 1.255 . S
Cd80 O79 2.385 . S
Cd80 O81 2.317 . S
O81 Cd80 2.317 . S
O81 C82 1.232 . S
C82 O81 1.232 . S
C82 O83 1.218 . S
O83 C82 1.218 . S
C84 O77 1.275 . S
C84 O79 1.255 . S
C85 O86 1.258 . S
C85 O87 1.256 . S
O86 Cd78 2.381 . S
O86 C85 1.258 . S
O87 Cd78 2.378 . S
O87 C85 1.256 . S
Dy88 O91 2.307 1_545 S
Dy88 O93 2.395 . S
Dy88 O94 2.379 . S
Dy88 O96 2.339 1_545 S
Dy88 O98 2.298 . S
Dy88 O102 2.275 . S
Dy88 C110 2.738 . S
Dy89 O92 2.298 1_645 S
Dy89 O95 2.275 1_545 S
Dy89 O97 2.307 . S
Dy89 O99 2.395 1_545 S
Dy89 O100 2.379 1_545 S
Dy89 O103 2.339 . S
Dy89 C119 2.738 1_545 S
C90 O102 1.254 . S
C90 O103 1.257 1_455 S
O91 Dy88 2.307 1_565 S
O91 C101 1.266 . S
O92 Dy89 2.298 1_465 S
O92 C101 1.236 . S
O93 Dy88 2.395 . S
O93 C110 1.255 . S
O94 Dy88 2.379 . S
O94 C110 1.249 . S
O95 Dy89 2.275 1_565 S
O95 C111 1.254 . S
O96 Dy88 2.339 1_565 S
O96 C111 1.257 1_455 S
O97 Dy89 2.307 . S
O97 C112 1.266 . S
O98 Dy88 2.298 . S
O98 C112 1.236 1_455 S
O99 Dy89 2.395 1_565 S
O99 C119 1.255 . S
O100 Dy89 2.379 1_565 S
O100 C119 1.249 . S
C101 O91 1.266 . S
C101 O92 1.236 . S
O102 Dy88 2.275 . S
O102 C90 1.254 . S
O103 Dy89 2.339 . S
O103 C90 1.257 1_655 S
C104 C107 1.344 . S
C104 C108 1.328 . S
C104 C110 1.516 . S
C105 C106 1.304 . S
C105 C109 1.323 . S
C106 C105 1.304 . S
C106 C107 1.371 . S
C106 H120 0.930 . S
C107 C104 1.344 . S
C107 C106 1.371 . S
C107 H121 0.931 . S
C108 C104 1.328 . S
C108 C109 1.433 . S
C108 H122 0.931 . S
C109 C105 1.323 . S
C109 C108 1.433 . S
C109 H123 0.933 . S
C110 Dy88 2.738 . S
C110 O93 1.255 . S
C110 O94 1.249 . S
C110 C104 1.516 . S
C111 O95 1.254 . S
C111 O96 1.257 1_655 S
C112 O97 1.266 . S
C112 O98 1.236 1_655 S
C113 C116 1.344 . S
C113 C117 1.328 . S
C113 C119 1.516 . S
C114 C115 1.304 . S
C114 C118 1.323 . S
C115 C114 1.304 . S
C115 C116 1.371 . S
C115 H124 0.930 . S
C116 C113 1.344 . S
C116 C115 1.371 . S
C116 H125 0.931 . S
C117 C113 1.328 . S
C117 C118 1.433 . S
C117 H126 0.931 . S
C118 C114 1.323 . S
C118 C117 1.433 . S
C118 H127 0.933 . S
C119 Dy89 2.738 1_565 S
C119 O99 1.255 . S
C119 O100 1.249 . S
C119 C113 1.516 . S
H120 C106 0.930 . S
H121 C107 0.931 . S
H122 C108 0.931 . S
H123 C109 0.933 . S
H124 C115 0.930 . S
H125 C116 0.931 . S
H126 C117 0.931 . S
H127 C118 0.933 . S
Dy128 O131 2.307 . S
Dy128 O133 2.395 1_545 S
Dy128 O134 2.379 1_554 S
Dy128 O136 2.339 . S
Dy128 O138 2.298 1_545 S
Dy128 O142 2.275 1_545 S
Dy128 C150 2.738 1_544 S
Dy129 O132 2.298 . S
Dy129 O135 2.275 . S
Dy129 O137 2.307 1_545 S
Dy129 O139 2.395 . S
Dy129 O140 2.379 . S
Dy129 O143 2.339 1_545 S
Dy129 C159 2.738 . S
C130 O142 1.254 . S
C130 O143 1.257 . S
O131 Dy128 2.307 . S
O131 C141 1.266 . S
O132 Dy129 2.298 . S
O132 C141 1.236 . S
O133 Dy128 2.395 1_565 S
O133 C150 1.255 1_554 S
O134 Dy128 2.379 1_556 S
O134 C150 1.249 1_545 S
O135 Dy129 2.275 . S
O135 C151 1.254 . S
O136 Dy128 2.339 . S
O136 C151 1.257 . S
O137 Dy129 2.307 1_565 S
O137 C152 1.266 . S
O138 Dy128 2.298 1_565 S
O138 C152 1.236 . S
O139 Dy129 2.395 . S
O139 C159 1.255 . S
O140 Dy129 2.379 . S
O140 C159 1.249 . S
C141 O131 1.266 . S
C141 O132 1.236 . S
O142 Dy128 2.275 1_565 S
O142 C130 1.254 . S
O143 Dy129 2.339 1_565 S
O143 C130 1.257 . S
C144 C147 1.344 . S
C144 C148 1.328 . S
C144 C150 1.516 . S
C145 C146 1.304 . S
C145 C149 1.323 . S
C146 C145 1.304 . S
C146 C147 1.371 . S
C146 H160 0.930 . S
C147 C144 1.344 . S
C147 C146 1.371 . S
C147 H161 0.931 . S
C148 C144 1.328 . S
C148 C149 1.433 . S
C148 H162 0.931 . S
C149 C145 1.323 . S
C149 C148 1.433 . S
C149 H163 0.933 . S
C150 Dy128 2.738 1_566 S
C150 O133 1.255 1_556 S
C150 O134 1.249 1_565 S
C150 C144 1.516 . S
C151 O135 1.254 . S
C151 O136 1.257 . S
C152 O137 1.266 . S
C152 O138 1.236 . S
C153 C156 1.344 . S
C153 C157 1.328 . S
C153 C159 1.516 . S
C154 C155 1.304 . S
C154 C158 1.323 . S
C155 C154 1.304 . S
C155 C156 1.371 . S
C155 H164 0.930 . S
C156 C153 1.344 . S
C156 C155 1.371 . S
C156 H165 0.931 . S
C157 C153 1.328 . S
C157 C158 1.433 . S
C157 H166 0.931 . S
C158 C154 1.323 . S
C158 C157 1.433 . S
C158 H167 0.933 . S
C159 Dy129 2.738 . S
C159 O139 1.255 . S
C159 O140 1.249 . S
C159 C153 1.516 . S
H160 C146 0.930 . S
H161 C147 0.931 . S
H162 C148 0.931 . S
H163 C149 0.933 . S
H164 C155 0.930 . S
H165 C156 0.931 . S
H166 C157 0.931 . S
H167 C158 0.933 . S
Dy168 O171 2.307 . S
Dy168 O173 2.395 . S
Dy168 O174 2.379 . S
Dy168 O176 2.339 . S
Dy168 O178 2.298 . S
Dy168 O182 2.275 . S
Dy168 C190 2.738 . S
Dy169 O172 2.298 . S
Dy169 O175 2.275 . S
Dy169 O177 2.307 . S
Dy169 O179 2.395 . S
Dy169 O180 2.379 . S
Dy169 O183 2.339 . S
Dy169 C199 2.738 . S
C170 O182 1.254 . S
C170 O183 1.257 . S
O171 Dy168 2.307 . S
O171 C181 1.266 . S
O172 Dy169 2.298 . S
O172 C181 1.236 . S
O173 Dy168 2.395 . S
O173 C190 1.255 . S
O174 Dy168 2.379 . S
O174 C190 1.249 . S
O175 Dy169 2.275 . S
O175 C191 1.254 . S
O176 Dy168 2.339 . S
O176 C191 1.257 . S
O177 Dy169 2.307 . S
O177 C192 1.266 . S
O178 Dy168 2.298 . S
O178 C192 1.236 . S
O179 Dy169 2.395 . S
O179 C199 1.255 . S
O180 Dy169 2.379 . S
O180 C199 1.249 . S
C181 O171 1.266 . S
C181 O172 1.236 . S
O182 Dy168 2.275 . S
O182 C170 1.254 . S
O183 Dy169 2.339 . S
O183 C170 1.257 . S
C184 C187 1.344 . S
C184 C188 1.328 . S
C184 C190 1.516 . S
C185 C186 1.304 . S
C185 C189 1.323 . S
C186 C185 1.304 . S
C186 C187 1.371 . S
C186 H200 0.930 . S
C187 C184 1.344 . S
C187 C186 1.371 . S
C187 H201 0.931 . S
C188 C184 1.328 . S
C188 C189 1.433 . S
C188 H202 0.931 . S
C189 C185 1.323 . S
C189 C188 1.433 . S
C189 H203 0.933 . S
C190 Dy168 2.738 . S
C190 O173 1.255 . S
C190 O174 1.249 . S
C190 C184 1.516 . S
C191 O175 1.254 . S
C191 O176 1.257 . S
C192 O177 1.266 . S
C192 O178 1.236 . S
C193 C196 1.344 . S
C193 C197 1.328 . S
C193 C199 1.516 . S
C194 C195 1.304 . S
C194 C198 1.323 . S
C195 C194 1.304 . S
C195 C196 1.371 . S
C195 H204 0.930 . S
C196 C193 1.344 . S
C196 C195 1.371 . S
C196 H205 0.931 . S
C197 C193 1.328 . S
C197 C198 1.433 . S
C197 H206 0.931 . S
C198 C194 1.323 . S
C198 C197 1.433 . S
C198 H207 0.933 . S
C199 Dy169 2.738 . S
C199 O179 1.255 . S
C199 O180 1.249 . S
C199 C193 1.516 . S
H200 C186 0.930 . S
H201 C187 0.931 . S
H202 C188 0.931 . S
H203 C189 0.933 . S
H204 C195 0.930 . S
H205 C196 0.931 . S
H206 C197 0.931 . S
H207 C198 0.933 . S
Dy208 O211 2.307 1_556 S
Dy208 O213 2.395 1_455 S
Dy208 O214 2.379 1_455 S
Dy208 O216 2.339 . S
Dy208 O218 2.298 1_455 S
Dy208 O222 2.278 1_556 S
Dy208 C230 2.738 1_455 S
Dy209 O212 2.298 . S
Dy209 O215 2.275 1_554 S
Dy209 O217 2.307 1_455 S
Dy209 O219 2.395 . S
Dy209 O220 2.379 . S
Dy209 O223 2.339 1_455 S
Dy209 C239 2.738 . S
C210 O222 1.250 1_655 S
C210 O223 1.257 . S
O211 Dy208 2.307 1_554 S
O211 C221 1.266 . S
O212 Dy209 2.298 . S
O212 C221 1.236 . S
O213 Dy208 2.395 1_655 S
O213 C230 1.255 . S
O214 Dy208 2.379 1_655 S
O214 C230 1.249 . S
O215 Dy209 2.275 1_556 S
O215 C231 1.254 . S
O216 Dy208 2.339 . S
O216 C231 1.257 . S
O217 Dy209 2.307 1_655 S
O217 C232 1.266 1_554 S
O218 Dy208 2.298 1_655 S
O218 C232 1.236 . S
O219 Dy209 2.395 . S
O219 C239 1.255 . S
O220 Dy209 2.379 . S
O220 C239 1.249 . S
C221 O211 1.266 . S
C221 O212 1.236 . S
O222 Dy208 2.278 1_554 S
O222 C210 1.250 1_455 S
O223 Dy209 2.339 1_655 S
O223 C210 1.257 . S
C224 C227 1.344 . S
C224 C228 1.328 . S
C224 C230 1.516 . S
C225 C226 1.304 . S
C225 C229 1.323 . S
C226 C225 1.304 . S
C226 C227 1.371 . S
C226 H240 0.930 . S
C227 C224 1.344 . S
C227 C226 1.371 . S
C227 H241 0.931 . S
C228 C224 1.328 . S
C228 C229 1.433 . S
C228 H242 0.931 . S
C229 C225 1.323 . S
C229 C228 1.433 . S
C229 H243 0.933 . S
C230 Dy208 2.738 1_655 S
C230 O213 1.255 . S
C230 O214 1.249 . S
C230 C224 1.516 . S
C231 O215 1.254 . S
C231 O216 1.257 . S
C232 O217 1.266 1_556 S
C232 O218 1.236 . S
C233 C236 1.344 . S
C233 C237 1.328 . S
C233 C239 1.516 . S
C234 C235 1.304 . S
C234 C238 1.323 . S
C235 C234 1.304 . S
C235 C236 1.371 . S
C235 H244 0.930 . S
C236 C233 1.344 . S
C236 C235 1.371 . S
C236 H245 0.931 . S
C237 C233 1.328 . S
C237 C238 1.433 . S
C237 H246 0.931 . S
C238 C234 1.323 . S
C238 C237 1.433 . S
C238 H247 0.933 . S
C239 Dy209 2.738 . S
C239 O219 1.255 . S
C239 O220 1.249 . S
C239 C233 1.516 . S
H240 C226 0.930 . S
H241 C227 0.931 . S
H242 C228 0.931 . S
H243 C229 0.933 . S
H244 C235 0.930 . S
H245 C236 0.931 . S
H246 C237 0.931 . S
H247 C238 0.933 . S
C248 C249 1.387 . S
C248 H252 0.950 . S
C248 C257 1.390 . S
C249 C248 1.387 . S
C249 C251 1.387 . S
H250 C257 0.950 . S
C251 C249 1.387 . S
C251 C253 1.390 . S
C251 H255 0.950 . S
H252 C248 0.950 . S
C253 C251 1.390 . S
C253 C254 1.387 . S
C253 H256 0.950 . S
C254 C253 1.387 . S
C254 C257 1.387 . S
H255 C251 0.950 . S
H256 C253 0.950 . S
C257 C248 1.390 . S
C257 H250 0.950 . S
C257 C254 1.387 . S
C258 C259 1.387 . S
C258 H262 0.950 . S
C258 C267 1.390 . S
C259 C258 1.387 . S
C259 C261 1.387 . S
H260 C267 0.950 . S
C261 C259 1.387 . S
C261 C263 1.390 . S
C261 H265 0.950 . S
H262 C258 0.950 . S
C263 C261 1.390 . S
C263 C264 1.387 . S
C263 H266 0.950 . S
C264 C263 1.387 . S
C264 C267 1.387 . S
H265 C261 0.950 . S
H266 C263 0.950 . S
C267 C258 1.390 . S
C267 H260 0.950 . S
C267 C264 1.387 . S
C268 C269 1.387 . S
C268 H272 0.950 . S
C268 C277 1.390 . S
C269 C268 1.387 . S
C269 C271 1.387 . S
H270 C277 0.950 . S
C271 C269 1.387 . S
C271 C273 1.390 . S
C271 H275 0.950 . S
H272 C268 0.950 . S
C273 C271 1.390 . S
C273 C274 1.387 . S
C273 H276 0.950 . S
C274 C273 1.387 . S
C274 C277 1.387 . S
H275 C271 0.950 . S
H276 C273 0.950 . S
C277 C268 1.390 . S
C277 H270 0.950 . S
C277 C274 1.387 . S
C278 C279 1.387 . S
C278 H282 0.950 . S
C278 C287 1.390 . S
C279 C278 1.387 . S
C279 C281 1.387 1_655 S
H280 C287 0.950 . S
C281 C279 1.387 1_455 S
C281 C283 1.390 . S
C281 H285 0.950 . S
H282 C278 0.950 . S
C283 C281 1.390 . S
C283 C284 1.387 1_455 S
C283 H286 0.950 . S
C284 C283 1.387 1_655 S
C284 C287 1.387 . S
H285 C281 0.950 . S
H286 C283 0.950 . S
C287 C278 1.390 . S
C287 H280 0.950 . S
C287 C284 1.387 . S
C288 C289 1.387 . S
C288 H292 0.950 . S
C288 C297 1.390 . S
C289 C288 1.387 . S
C289 C291 1.387 . S
H290 C297 0.950 . S
C291 C289 1.387 . S
C291 C293 1.390 . S
C291 H295 0.950 . S
H292 C288 0.950 . S
C293 C291 1.390 . S
C293 C294 1.387 . S
C293 H296 0.950 . S
C294 C293 1.387 . S
C294 C297 1.387 . S
H295 C291 0.950 . S
H296 C293 0.950 . S
C297 C288 1.390 . S
C297 H290 0.950 . S
C297 C294 1.387 . S
C298 C299 1.387 . S
C298 H302 0.950 . S
C298 C307 1.390 . S
C299 C298 1.387 . S
C299 C301 1.394 . S
H300 C307 0.950 . S
C301 C299 1.394 . S
C301 C303 1.389 . S
C301 H305 0.945 1_455 S
H302 C298 0.950 . S
C303 C301 1.389 . S
C303 C304 1.387 . S
C303 H306 0.950 1_455 S
C304 C303 1.387 . S
C304 C307 1.387 . S
H305 C301 0.945 1_655 S
H306 C303 0.950 1_655 S
C307 C298 1.390 . S
C307 H300 0.950 . S
C307 C304 1.387 . S
C308 C309 1.387 . S
C308 H312 0.950 . S
C308 C317 1.390 . S
C309 C308 1.387 . S
C309 C311 1.387 . S
H310 C317 0.950 . S
C311 C309 1.387 . S
C311 C313 1.390 . S
C311 H315 0.950 . S
H312 C308 0.950 . S
C313 C311 1.390 . S
C313 C314 1.387 . S
C313 H316 0.950 . S
C314 C313 1.387 . S
C314 C317 1.387 . S
H315 C311 0.950 . S
H316 C313 0.950 . S
C317 C308 1.390 . S
C317 H310 0.950 . S
C317 C314 1.387 . S
C318 C319 1.387 . S
C318 H322 0.950 . S
C318 C327 1.390 . S
C319 C318 1.387 . S
C319 C321 1.387 . S
H320 C327 0.950 . S
C321 C319 1.387 . S
C321 C323 1.390 . S
C321 H325 0.950 . S
H322 C318 0.950 . S
C323 C321 1.390 . S
C323 C324 1.387 . S
C323 H326 0.950 . S
C324 C323 1.387 . S
C324 C327 1.387 . S
H325 C321 0.950 . S
H326 C323 0.950 . S
C327 C318 1.390 . S
C327 H320 0.950 . S
C327 C324 1.387 . S
C328 C329 1.387 . S
C328 H332 0.950 . S
C328 C337 1.390 . S
C329 C328 1.387 . S
C329 C331 1.387 . S
H330 C337 0.950 . S
C331 C329 1.387 . S
C331 C333 1.390 . S
C331 H335 0.950 . S
H332 C328 0.950 . S
C333 C331 1.390 . S
C333 C334 1.387 . S
C333 H336 0.950 . S
C334 C333 1.387 . S
C334 C337 1.387 . S
H335 C331 0.950 . S
H336 C333 0.950 . S
C337 C328 1.390 . S
C337 H330 0.950 . S
C337 C334 1.387 . S
C338 C339 1.387 . S
C338 H342 0.950 . S
C338 C347 1.390 . S
C339 C338 1.387 . S
C339 C341 1.387 . S
H340 C347 0.950 . S
C341 C339 1.387 . S
C341 C343 1.390 1_556 S
C341 H345 0.950 1_556 S
H342 C338 0.950 . S
C343 C341 1.390 1_554 S
C343 C344 1.387 1_554 S
C343 H346 0.950 . S
C344 C343 1.387 1_556 S
C344 C347 1.387 . S
H345 C341 0.950 1_554 S
H346 C343 0.950 . S
C347 C338 1.390 . S
C347 H340 0.950 . S
C347 C344 1.387 . S
C348 C349 1.387 . S
C348 H352 0.950 . S
C348 C357 1.390 . S
C349 C348 1.387 . S
C349 C351 1.387 . S
H350 C357 0.950 . S
C351 C349 1.387 . S
C351 C353 1.390 . S
C351 H355 0.950 1_655 S
H352 C348 0.950 . S
C353 C351 1.390 . S
C353 C354 1.387 . S
C353 H356 0.950 1_655 S
C354 C353 1.387 . S
C354 C357 1.387 . S
H355 C351 0.950 1_455 S
H356 C353 0.950 1_455 S
C357 C348 1.390 . S
C357 H350 0.950 . S
C357 C354 1.387 . S
C358 C359 1.387 . S
C358 H362 0.950 . S
C358 C367 1.390 . S
C359 C358 1.387 . S
C359 C361 1.387 . S
H360 C367 0.950 . S
C361 C359 1.387 . S
C361 C363 1.390 . S
C361 H365 0.950 . S
H362 C358 0.950 . S
C363 C361 1.390 . S
C363 C364 1.387 . S
C363 H366 0.950 . S
C364 C363 1.387 . S
C364 C367 1.387 . S
H365 C361 0.950 . S
H366 C363 0.950 . S
C367 C358 1.390 . S
C367 H360 0.950 . S
C367 C364 1.387 . S
C368 C369 1.387 . S
C368 H372 0.950 . S
C368 C377 1.390 . S
C369 C368 1.387 . S
C369 C371 1.387 . S
H370 C377 0.950 . S
C371 C369 1.387 . S
C371 C373 1.390 . S
C371 H375 0.950 . S
H372 C368 0.950 . S
C373 C371 1.390 . S
C373 C374 1.387 . S
C373 H376 0.950 . S
C374 C373 1.387 . S
C374 C377 1.387 . S
H375 C371 0.950 . S
H376 C373 0.950 . S
C377 C368 1.390 . S
C377 H370 0.950 . S
C377 C374 1.387 . S
C378 C379 1.387 . S
C378 H382 0.950 . S
C378 C387 1.390 . S
C379 C378 1.387 . S
C379 C381 1.387 . S
H380 C387 0.950 . S
C381 C379 1.387 . S
C381 C383 1.390 . S
C381 H385 0.950 . S
H382 C378 0.950 . S
C383 C381 1.390 . S
C383 C384 1.387 . S
C383 H386 0.950 . S
C384 C383 1.387 . S
C384 C387 1.387 . S
H385 C381 0.950 . S
H386 C383 0.950 . S
C387 C378 1.390 . S
C387 H380 0.950 . S
C387 C384 1.387 . S
C388 C389 1.387 . S
C388 H392 0.950 . S
C388 C397 1.390 . S
C389 C388 1.387 . S
C389 C391 1.387 . S
H390 C397 0.950 . S
C391 C389 1.387 . S
C391 C393 1.390 . S
C391 H395 0.950 . S
H392 C388 0.950 . S
C393 C391 1.390 . S
C393 C394 1.387 . S
C393 H396 0.950 . S
C394 C393 1.387 . S
C394 C397 1.387 . S
H395 C391 0.950 . S
H396 C393 0.950 . S
C397 C388 1.390 . S
C397 H390 0.950 . S
C397 C394 1.387 . S
C398 C399 1.387 . S
C398 H402 0.950 . S
C398 C407 1.390 . S
C399 C398 1.387 . S
C399 C401 1.387 . S
H400 C407 0.950 . S
C401 C399 1.387 . S
C401 C403 1.390 . S
C401 H405 0.950 . S
H402 C398 0.950 . S
C403 C401 1.390 . S
C403 C404 1.387 . S
C403 H406 0.950 . S
C404 C403 1.387 . S
C404 C407 1.387 . S
H405 C401 0.950 . S
H406 C403 0.950 . S
C407 C398 1.390 . S
C407 H400 0.950 . S
C407 C404 1.387 . S
C408 C409 1.387 . S
C408 H412 0.950 . S
C408 C417 1.390 . S
C409 C408 1.387 . S
C409 C411 1.387 . S
H410 C417 0.950 . S
C411 C409 1.387 . S
C411 C413 1.390 . S
C411 H415 0.950 . S
H412 C408 0.950 . S
C413 C411 1.390 . S
C413 C414 1.387 . S
C413 H416 0.950 . S
C414 C413 1.387 . S
C414 C417 1.387 . S
H415 C411 0.950 . S
H416 C413 0.950 . S
C417 C408 1.390 . S
C417 H410 0.950 . S
C417 C414 1.387 . S
C418 C419 1.387 1_455 S
C418 H422 0.950 . S
C418 C427 1.390 . S
C419 C418 1.387 1_655 S
C419 C421 1.387 . S
H420 C427 0.950 . S
C421 C419 1.387 . S
C421 C423 1.390 . S
C421 H425 0.950 . S
H422 C418 0.950 . S
C423 C421 1.390 . S
C423 C424 1.387 . S
C423 H426 0.950 . S
C424 C423 1.387 . S
C424 C427 1.387 1_655 S
H425 C421 0.950 . S
H426 C423 0.950 . S
C427 C418 1.390 . S
C427 H420 0.950 . S
C427 C424 1.387 1_455 S
C428 C429 1.387 . S
C428 H432 0.950 . S
C428 C437 1.390 . S
C429 C428 1.387 . S
C429 C431 1.387 . S
H430 C437 0.950 . S
C431 C429 1.387 . S
C431 C433 1.390 . S
C431 H435 0.950 . S
H432 C428 0.950 . S
C433 C431 1.390 . S
C433 C434 1.387 . S
C433 H436 0.950 . S
C434 C433 1.387 . S
C434 C437 1.387 . S
H435 C431 0.950 . S
H436 C433 0.950 . S
C437 C428 1.390 . S
C437 H430 0.950 . S
C437 C434 1.387 . S
C438 C439 1.387 . S
C438 H442 0.950 . S
C438 C447 1.390 . S
C439 C438 1.387 . S
C439 C441 1.387 . S
H440 C447 0.950 . S
C441 C439 1.387 . S
C441 C443 1.390 . S
C441 H445 0.950 . S
H442 C438 0.950 . S
C443 C441 1.390 . S
C443 C444 1.387 . S
C443 H446 0.950 . S
C444 C443 1.387 . S
C444 C447 1.387 . S
H445 C441 0.950 . S
H446 C443 0.950 . S
C447 C438 1.390 . S
C447 H440 0.950 . S
C447 C444 1.387 . S
C448 C449 1.387 . S
C448 H452 0.950 . S
C448 C457 1.390 . S
C449 C448 1.387 . S
C449 C451 1.387 . S
H450 C457 0.950 . S
C451 C449 1.387 . S
C451 C453 1.390 . S
C451 H455 0.950 . S
H452 C448 0.950 . S
C453 C451 1.390 . S
C453 C454 1.387 . S
C453 H456 0.950 . S
C454 C453 1.387 . S
C454 C457 1.387 . S
H455 C451 0.950 . S
H456 C453 0.950 . S
C457 C448 1.390 . S
C457 H450 0.950 . S
C457 C454 1.387 . S
C458 C459 1.387 . S
C458 H462 0.950 . S
C458 C467 1.390 . S
C459 C458 1.387 . S
C459 C461 1.387 . S
H460 C467 0.950 . S
C461 C459 1.387 . S
C461 C463 1.390 . S
C461 H465 0.950 . S
H462 C458 0.950 . S
C463 C461 1.390 . S
C463 C464 1.387 . S
C463 H466 0.950 . S
C464 C463 1.387 . S
C464 C467 1.387 . S
H465 C461 0.950 . S
H466 C463 0.950 . S
C467 C458 1.390 . S
C467 H460 0.950 . S
C467 C464 1.387 . S
C468 C469 1.387 . S
C468 H472 0.950 1_455 S
C468 C477 1.390 . S
C469 C468 1.387 . S
C469 C471 1.387 . S
H470 C477 0.950 1_655 S
C471 C469 1.387 . S
C471 C473 1.390 . S
C471 H475 0.950 . S
H472 C468 0.950 1_655 S
C473 C471 1.390 . S
C473 C474 1.387 . S
C473 H476 0.950 . S
C474 C473 1.387 . S
C474 C477 1.387 . S
H475 C471 0.950 . S
H476 C473 0.950 . S
C477 C468 1.390 . S
C477 H470 0.950 1_455 S
C477 C474 1.387 . S
C478 C479 1.387 . S
C478 H482 0.950 . S
C478 C487 1.390 . S
C479 C478 1.387 . S
C479 C481 1.387 . S
H480 C487 0.950 . S
C481 C479 1.387 . S
C481 C483 1.390 . S
C481 H485 0.950 . S
H482 C478 0.950 . S
C483 C481 1.390 . S
C483 C484 1.387 . S
C483 H486 0.950 . S
C484 C483 1.387 . S
C484 C487 1.387 . S
H485 C481 0.950 . S
H486 C483 0.950 . S
C487 C478 1.390 . S
C487 H480 0.950 . S
C487 C484 1.387 . S
C249 C5 0.943 . S
C254 C105 1.201 . S
C259 C18 1.078 . S
C264 C145 1.161 . S
C274 C170 2.335 . S
C269 C30 2.368 . S
C279 C41 2.298 . S
C284 C210 2.239 . S
C294 C141 1.757 . S
C289 C7 1.547 . S
C304 C101 1.848 . S
C299 C16 1.841 . S
C314 C232 1.833 . S
C309 C29 1.814 . S
C324 C192 1.444 . S
C319 C38 1.269 . S
C329 C8 1.346 . S
C334 C234 1.458 . S
C344 C151 2.385 1_556 S
C339 C27 2.141 . S
C349 C40 2.373 . S
C354 C111 2.313 . S
C359 C19 1.487 . S
C364 C194 1.470 . S
C374 C114 1.259 . S
C369 C51 1.011 . S
C379 C62 1.523 . S
C384 C154 1.468 . S
C389 C74 2.492 . S
C394 C191 2.477 . S
C399 C84 2.242 . S
C404 C231 2.347 . S
C409 C49 1.435 . S
C414 C152 2.060 1_556 S
C424 C112 1.959 . S
C419 C63 1.900 . S
C434 C221 1.653 . S
C429 C71 1.498 . S
C444 C181 1.660 . S
C439 C85 1.687 . S
C449 C52 1.505 . S
C454 C225 1.611 . S
C464 C130 2.525 . S
C459 C73 2.543 . S
C474 C90 1.998 . S
C469 C82 1.779 . S
C479 C60 1.443 . S
C484 C185 1.472 . S
