# Generated by pormake.
# Topology gar, (4,6)-cn, num edge types: 1
# Building blocks:
#     Node 0, Type 0, BuildingBlock: CEKHIL_clean_sbu_0, # of connection points: 4
#     Node 1, Type 0, BuildingBlock: CEKHIL_clean_sbu_0, # of connection points: 4
#     Node 2, Type 0, BuildingBlock: CEKHIL_clean_sbu_0, # of connection points: 4
#     Node 3, Type 0, BuildingBlock: CEKHIL_clean_sbu_0, # of connection points: 4
#     Node 4, Type 0, BuildingBlock: CEKHIL_clean_sbu_0, # of connection points: 4
#     Node 5, Type 0, BuildingBlock: CEKHIL_clean_sbu_0, # of connection points: 4
#     Node 6, Type 0, BuildingBlock: CEKHIL_clean_sbu_0, # of connection points: 4
#     Node 7, Type 0, BuildingBlock: CEKHIL_clean_sbu_0, # of connection points: 4
#     Node 8, Type 0, BuildingBlock: CEKHIL_clean_sbu_0, # of connection points: 4
#     Node 9, Type 0, BuildingBlock: CEKHIL_clean_sbu_0, # of connection points: 4
#     Node 10, Type 0, BuildingBlock: CEKHIL_clean_sbu_0, # of connection points: 4
#     Node 11, Type 0, BuildingBlock: CEKHIL_clean_sbu_0, # of connection points: 4
#     Node 12, Type 0, BuildingBlock: CEKHIL_clean_sbu_0, # of connection points: 4
#     Node 13, Type 0, BuildingBlock: CEKHIL_clean_sbu_0, # of connection points: 4
#     Node 14, Type 0, BuildingBlock: CEKHIL_clean_sbu_0, # of connection points: 4
#     Node 15, Type 0, BuildingBlock: CEKHIL_clean_sbu_0, # of connection points: 4
#     Node 16, Type 0, BuildingBlock: CEKHIL_clean_sbu_0, # of connection points: 4
#     Node 17, Type 0, BuildingBlock: CEKHIL_clean_sbu_0, # of connection points: 4
#     Node 18, Type 0, BuildingBlock: CEKHIL_clean_sbu_0, # of connection points: 4
#     Node 19, Type 0, BuildingBlock: CEKHIL_clean_sbu_0, # of connection points: 4
#     Node 20, Type 0, BuildingBlock: CEKHIL_clean_sbu_0, # of connection points: 4
#     Node 21, Type 0, BuildingBlock: CEKHIL_clean_sbu_0, # of connection points: 4
#     Node 22, Type 0, BuildingBlock: CEKHIL_clean_sbu_0, # of connection points: 4
#     Node 23, Type 0, BuildingBlock: CEKHIL_clean_sbu_0, # of connection points: 4
#     Node 24, Type 1, BuildingBlock: CUKXOW_clean_sbu_0, # of connection points: 6
#     Node 25, Type 1, BuildingBlock: CUKXOW_clean_sbu_0, # of connection points: 6
#     Node 26, Type 1, BuildingBlock: CUKXOW_clean_sbu_0, # of connection points: 6
#     Node 27, Type 1, BuildingBlock: CUKXOW_clean_sbu_0, # of connection points: 6
#     Node 28, Type 1, BuildingBlock: CUKXOW_clean_sbu_0, # of connection points: 6
#     Node 29, Type 1, BuildingBlock: CUKXOW_clean_sbu_0, # of connection points: 6
#     Node 30, Type 1, BuildingBlock: CUKXOW_clean_sbu_0, # of connection points: 6
#     Node 31, Type 1, BuildingBlock: CUKXOW_clean_sbu_0, # of connection points: 6
#     Node 32, Type 1, BuildingBlock: CUKXOW_clean_sbu_0, # of connection points: 6
#     Node 33, Type 1, BuildingBlock: CUKXOW_clean_sbu_0, # of connection points: 6
#     Node 34, Type 1, BuildingBlock: CUKXOW_clean_sbu_0, # of connection points: 6
#     Node 35, Type 1, BuildingBlock: CUKXOW_clean_sbu_0, # of connection points: 6
#     Node 36, Type 1, BuildingBlock: CUKXOW_clean_sbu_0, # of connection points: 6
#     Node 37, Type 1, BuildingBlock: CUKXOW_clean_sbu_0, # of connection points: 6
#     Node 38, Type 1, BuildingBlock: CUKXOW_clean_sbu_0, # of connection points: 6
#     Node 39, Type 1, BuildingBlock: CUKXOW_clean_sbu_0, # of connection points: 6
#     Edge 40, Type (0, 1), BuildingBlock: XIVTED_clean_linker_0, # of connection points: 2
#     Edge 41, Type (0, 1), BuildingBlock: XIVTED_clean_linker_0, # of connection points: 2
#     Edge 42, Type (0, 1), BuildingBlock: XIVTED_clean_linker_0, # of connection points: 2
#     Edge 43, Type (0, 1), BuildingBlock: XIVTED_clean_linker_0, # of connection points: 2
#     Edge 44, Type (0, 1), BuildingBlock: XIVTED_clean_linker_0, # of connection points: 2
#     Edge 45, Type (0, 1), BuildingBlock: XIVTED_clean_linker_0, # of connection points: 2
#     Edge 46, Type (0, 1), BuildingBlock: XIVTED_clean_linker_0, # of connection points: 2
#     Edge 47, Type (0, 1), BuildingBlock: XIVTED_clean_linker_0, # of connection points: 2
#     Edge 48, Type (0, 1), BuildingBlock: XIVTED_clean_linker_0, # of connection points: 2
#     Edge 49, Type (0, 1), BuildingBlock: XIVTED_clean_linker_0, # of connection points: 2
#     Edge 50, Type (0, 1), BuildingBlock: XIVTED_clean_linker_0, # of connection points: 2
#     Edge 51, Type (0, 1), BuildingBlock: XIVTED_clean_linker_0, # of connection points: 2
#     Edge 52, Type (0, 1), BuildingBlock: XIVTED_clean_linker_0, # of connection points: 2
#     Edge 53, Type (0, 1), BuildingBlock: XIVTED_clean_linker_0, # of connection points: 2
#     Edge 54, Type (0, 1), BuildingBlock: XIVTED_clean_linker_0, # of connection points: 2
#     Edge 55, Type (0, 1), BuildingBlock: XIVTED_clean_linker_0, # of connection points: 2
#     Edge 56, Type (0, 1), BuildingBlock: XIVTED_clean_linker_0, # of connection points: 2
#     Edge 57, Type (0, 1), BuildingBlock: XIVTED_clean_linker_0, # of connection points: 2
#     Edge 58, Type (0, 1), BuildingBlock: XIVTED_clean_linker_0, # of connection points: 2
#     Edge 59, Type (0, 1), BuildingBlock: XIVTED_clean_linker_0, # of connection points: 2
#     Edge 60, Type (0, 1), BuildingBlock: XIVTED_clean_linker_0, # of connection points: 2
#     Edge 61, Type (0, 1), BuildingBlock: XIVTED_clean_linker_0, # of connection points: 2
#     Edge 62, Type (0, 1), BuildingBlock: XIVTED_clean_linker_0, # of connection points: 2
#     Edge 63, Type (0, 1), BuildingBlock: XIVTED_clean_linker_0, # of connection points: 2
#     Edge 64, Type (0, 1), BuildingBlock: XIVTED_clean_linker_0, # of connection points: 2
#     Edge 65, Type (0, 1), BuildingBlock: XIVTED_clean_linker_0, # of connection points: 2
#     Edge 66, Type (0, 1), BuildingBlock: XIVTED_clean_linker_0, # of connection points: 2
#     Edge 67, Type (0, 1), BuildingBlock: XIVTED_clean_linker_0, # of connection points: 2
#     Edge 68, Type (0, 1), BuildingBlock: XIVTED_clean_linker_0, # of connection points: 2
#     Edge 69, Type (0, 1), BuildingBlock: XIVTED_clean_linker_0, # of connection points: 2
#     Edge 70, Type (0, 1), BuildingBlock: XIVTED_clean_linker_0, # of connection points: 2
#     Edge 71, Type (0, 1), BuildingBlock: XIVTED_clean_linker_0, # of connection points: 2
#     Edge 72, Type (0, 1), BuildingBlock: XIVTED_clean_linker_0, # of connection points: 2
#     Edge 73, Type (0, 1), BuildingBlock: XIVTED_clean_linker_0, # of connection points: 2
#     Edge 74, Type (0, 1), BuildingBlock: XIVTED_clean_linker_0, # of connection points: 2
#     Edge 75, Type (0, 1), BuildingBlock: XIVTED_clean_linker_0, # of connection points: 2
#     Edge 76, Type (0, 1), BuildingBlock: XIVTED_clean_linker_0, # of connection points: 2
#     Edge 77, Type (0, 1), BuildingBlock: XIVTED_clean_linker_0, # of connection points: 2
#     Edge 78, Type (0, 1), BuildingBlock: XIVTED_clean_linker_0, # of connection points: 2
#     Edge 79, Type (0, 1), BuildingBlock: XIVTED_clean_linker_0, # of connection points: 2
#     Edge 80, Type (0, 1), BuildingBlock: XIVTED_clean_linker_0, # of connection points: 2
#     Edge 81, Type (0, 1), BuildingBlock: XIVTED_clean_linker_0, # of connection points: 2
#     Edge 82, Type (0, 1), BuildingBlock: XIVTED_clean_linker_0, # of connection points: 2
#     Edge 83, Type (0, 1), BuildingBlock: XIVTED_clean_linker_0, # of connection points: 2
#     Edge 84, Type (0, 1), BuildingBlock: XIVTED_clean_linker_0, # of connection points: 2
#     Edge 85, Type (0, 1), BuildingBlock: XIVTED_clean_linker_0, # of connection points: 2
#     Edge 86, Type (0, 1), BuildingBlock: XIVTED_clean_linker_0, # of connection points: 2
#     Edge 87, Type (0, 1), BuildingBlock: XIVTED_clean_linker_0, # of connection points: 2
#     Edge 88, Type (0, 1), BuildingBlock: XIVTED_clean_linker_0, # of connection points: 2
#     Edge 89, Type (0, 1), BuildingBlock: XIVTED_clean_linker_0, # of connection points: 2
#     Edge 90, Type (0, 1), BuildingBlock: XIVTED_clean_linker_0, # of connection points: 2
#     Edge 91, Type (0, 1), BuildingBlock: XIVTED_clean_linker_0, # of connection points: 2
#     Edge 92, Type (0, 1), BuildingBlock: XIVTED_clean_linker_0, # of connection points: 2
#     Edge 93, Type (0, 1), BuildingBlock: XIVTED_clean_linker_0, # of connection points: 2
#     Edge 94, Type (0, 1), BuildingBlock: XIVTED_clean_linker_0, # of connection points: 2
#     Edge 95, Type (0, 1), BuildingBlock: XIVTED_clean_linker_0, # of connection points: 2
#     Edge 96, Type (0, 1), BuildingBlock: XIVTED_clean_linker_0, # of connection points: 2
#     Edge 97, Type (0, 1), BuildingBlock: XIVTED_clean_linker_0, # of connection points: 2
#     Edge 98, Type (0, 1), BuildingBlock: XIVTED_clean_linker_0, # of connection points: 2
#     Edge 99, Type (0, 1), BuildingBlock: XIVTED_clean_linker_0, # of connection points: 2
#     Edge 100, Type (0, 1), BuildingBlock: XIVTED_clean_linker_0, # of connection points: 2
#     Edge 101, Type (0, 1), BuildingBlock: XIVTED_clean_linker_0, # of connection points: 2
#     Edge 102, Type (0, 1), BuildingBlock: XIVTED_clean_linker_0, # of connection points: 2
#     Edge 103, Type (0, 1), BuildingBlock: XIVTED_clean_linker_0, # of connection points: 2
#     Edge 104, Type (0, 1), BuildingBlock: XIVTED_clean_linker_0, # of connection points: 2
#     Edge 105, Type (0, 1), BuildingBlock: XIVTED_clean_linker_0, # of connection points: 2
#     Edge 106, Type (0, 1), BuildingBlock: XIVTED_clean_linker_0, # of connection points: 2
#     Edge 107, Type (0, 1), BuildingBlock: XIVTED_clean_linker_0, # of connection points: 2
#     Edge 108, Type (0, 1), BuildingBlock: XIVTED_clean_linker_0, # of connection points: 2
#     Edge 109, Type (0, 1), BuildingBlock: XIVTED_clean_linker_0, # of connection points: 2
#     Edge 110, Type (0, 1), BuildingBlock: XIVTED_clean_linker_0, # of connection points: 2
#     Edge 111, Type (0, 1), BuildingBlock: XIVTED_clean_linker_0, # of connection points: 2
#     Edge 112, Type (0, 1), BuildingBlock: XIVTED_clean_linker_0, # of connection points: 2
#     Edge 113, Type (0, 1), BuildingBlock: XIVTED_clean_linker_0, # of connection points: 2
#     Edge 114, Type (0, 1), BuildingBlock: XIVTED_clean_linker_0, # of connection points: 2
#     Edge 115, Type (0, 1), BuildingBlock: XIVTED_clean_linker_0, # of connection points: 2
#     Edge 116, Type (0, 1), BuildingBlock: XIVTED_clean_linker_0, # of connection points: 2
#     Edge 117, Type (0, 1), BuildingBlock: XIVTED_clean_linker_0, # of connection points: 2
#     Edge 118, Type (0, 1), BuildingBlock: XIVTED_clean_linker_0, # of connection points: 2
#     Edge 119, Type (0, 1), BuildingBlock: XIVTED_clean_linker_0, # of connection points: 2
#     Edge 120, Type (0, 1), BuildingBlock: XIVTED_clean_linker_0, # of connection points: 2
#     Edge 121, Type (0, 1), BuildingBlock: XIVTED_clean_linker_0, # of connection points: 2
#     Edge 122, Type (0, 1), BuildingBlock: XIVTED_clean_linker_0, # of connection points: 2
#     Edge 123, Type (0, 1), BuildingBlock: XIVTED_clean_linker_0, # of connection points: 2
#     Edge 124, Type (0, 1), BuildingBlock: XIVTED_clean_linker_0, # of connection points: 2
#     Edge 125, Type (0, 1), BuildingBlock: XIVTED_clean_linker_0, # of connection points: 2
#     Edge 126, Type (0, 1), BuildingBlock: XIVTED_clean_linker_0, # of connection points: 2
#     Edge 127, Type (0, 1), BuildingBlock: XIVTED_clean_linker_0, # of connection points: 2
#     Edge 128, Type (0, 1), BuildingBlock: XIVTED_clean_linker_0, # of connection points: 2
#     Edge 129, Type (0, 1), BuildingBlock: XIVTED_clean_linker_0, # of connection points: 2
#     Edge 130, Type (0, 1), BuildingBlock: XIVTED_clean_linker_0, # of connection points: 2
#     Edge 131, Type (0, 1), BuildingBlock: XIVTED_clean_linker_0, # of connection points: 2
#     Edge 132, Type (0, 1), BuildingBlock: XIVTED_clean_linker_0, # of connection points: 2
#     Edge 133, Type (0, 1), BuildingBlock: XIVTED_clean_linker_0, # of connection points: 2
#     Edge 134, Type (0, 1), BuildingBlock: XIVTED_clean_linker_0, # of connection points: 2
#     Edge 135, Type (0, 1), BuildingBlock: XIVTED_clean_linker_0, # of connection points: 2
# Relax obj value: 0.109
# Max RMSD: 0.223
# Mean RMSD: 0.120
data_MOF--net-gar--node1-CEKHIL_clean_sbu_0--node2-CUKXOW_clean_sbu_0--edge1-XIVTED_clean_linker_0
_symmetry_space_group_name_H-M    P1
_symmetry_Int_Tables_number       1
_symmetry_cell_setting            triclinic
loop_
_symmetry_equiv_pos_as_xyz
'x, y, z'
_cell_length_a     55.580203
_cell_length_b     53.636612
_cell_length_c     53.197902
_cell_angle_alpha  93.710935
_cell_angle_beta   95.235871
_cell_angle_gamma 98.848238
loop_
_atom_site_label
_atom_site_type_symbol
_atom_site_fract_x
_atom_site_fract_y
_atom_site_fract_z
_atom_type_partial_charge
Co0 Co 0.03274 0.27989 0.43452 0.0
O1 O 0.0671 0.27689 0.43802 0.0
O2 O 0.04125 0.26448 0.4037 0.0
C3 C 0.03764 0.31993 0.45174 0.0
O4 O 0.99732 0.28044 0.42206 0.0
Co5 Co 1.00175 0.29082 0.47838 0.0
O6 O 0.9772 0.29801 0.45138 0.0
C7 C 0.01556 0.24 0.46922 0.0
C8 C 0.06345 0.2673 0.41461 0.0
C9 C 0.97854 0.28931 0.42881 0.0
O10 O 0.02386 0.24606 0.44824 0.0
O11 O 1.00778 0.25565 0.48453 0.0
O12 O 0.04129 0.31548 0.42817 0.0
O13 O 0.03252 0.30035 0.46427 0.0
Co14 Co 0.99729 0.80237 0.61488 0.0
O15 O 0.96246 0.80116 0.61469 0.0
O16 O 0.98617 0.78496 0.64308 0.0
C17 C 1.00533 0.84327 0.60778 0.0
O18 O 0.03327 0.80123 0.6233 0.0
Co19 Co 0.02711 0.81631 0.5697 0.0
O20 O 0.05644 0.81819 0.59444 0.0
C21 C 0.9969 0.76562 0.56918 0.0
C22 C 0.96474 0.79023 0.63572 0.0
C23 C 0.05419 0.809 0.61573 0.0
O24 O 0.9928 0.76982 0.59243 0.0
O25 O 0.00814 0.78248 0.55657 0.0
O26 O 1.00215 0.83704 0.63057 0.0
O27 O 1.00211 0.82514 0.59012 0.0
Co28 Co 0.54556 0.7869 0.92027 0.0
O29 O 0.57795 0.77921 0.91628 0.0
O30 O 0.54508 0.76764 0.88865 0.0
C31 C 0.55731 0.82798 0.93317 0.0
O32 O 0.51024 0.79168 0.91522 0.0
Co33 Co 0.52669 0.80662 0.96946 0.0
O34 O 0.49635 0.81082 0.94832 0.0
C35 C 0.53486 0.75343 0.96234 0.0
C36 C 0.56838 0.76841 0.89423 0.0
C37 C 0.49355 0.80154 0.92542 0.0
O38 O 0.53722 0.75548 0.93865 0.0
O39 O 0.53293 0.77215 0.97781 0.0
O40 O 0.55497 0.82065 0.90917 0.0
O41 O 0.55376 0.81042 0.9485 0.0
Co42 Co 0.49879 0.30371 0.10224 0.0
O43 O 0.46414 0.30471 0.09945 0.0
O44 O 0.48565 0.29298 0.13265 0.0
C45 C 0.50922 0.34141 0.08689 0.0
O46 O 0.5342 0.30172 0.11344 0.0
Co47 Co 0.52987 0.30514 0.0566 0.0
O48 O 0.5585 0.30572 0.08192 0.0
C49 C 0.49437 0.25981 0.06331 0.0
C50 C 0.46477 0.29716 0.1222 0.0
C51 C 0.55525 0.30325 0.10506 0.0
O52 O 0.49269 0.26789 0.08632 0.0
O53 O 0.50587 0.27327 0.04784 0.0
O54 O 0.50547 0.34037 0.11063 0.0
O55 O 0.50543 0.32015 0.07336 0.0
Co56 Co 0.99346 0.76662 0.16607 0.0
O57 O 0.9581 0.76029 0.15989 0.0
O58 O 0.97883 0.75701 0.19659 0.0
C59 C 0.99742 0.80315 0.14642 0.0
O60 O 0.0296 0.77277 0.18068 0.0
Co61 Co 0.02782 0.77158 0.12316 0.0
O62 O 0.05368 0.78569 0.15079 0.0
C63 C 1.00188 0.72123 0.1334 0.0
C64 C 0.95767 0.75615 0.18363 0.0
C65 C 0.05064 0.78175 0.17373 0.0
O66 O 0.99525 0.73019 0.15435 0.0
O67 O 0.01278 0.73495 0.11772 0.0
O68 O 0.99265 0.80321 0.1699 0.0
O69 O 0.99883 0.78133 0.13561 0.0
Co70 Co 0.53529 0.80353 0.3693 0.0
O71 O 0.5708 0.80909 0.37274 0.0
O72 O 0.54749 0.79024 0.33894 0.0
C73 C 0.53188 0.84294 0.38495 0.0
O74 O 0.49838 0.79524 0.35775 0.0
Co75 Co 0.50533 0.808 0.41548 0.0
O76 O 0.47611 0.80115 0.39028 0.0
C77 C 0.53332 0.76607 0.40896 0.0
C78 C 0.56943 0.79816 0.35005 0.0
C79 C 0.47767 0.79537 0.36694 0.0
O80 O 0.53512 0.77026 0.38551 0.0
O81 O 0.52485 0.78091 0.42446 0.0
O82 O 0.53509 0.83891 0.36119 0.0
O83 O 0.53206 0.8238 0.39823 0.0
Co84 Co 0.49189 0.26905 0.66138 0.0
O85 O 0.45653 0.2637 0.65586 0.0
O86 O 0.47758 0.25647 0.6911 0.0
C87 C 0.49617 0.30744 0.6455 0.0
O88 O 0.52834 0.27356 0.67495 0.0
Co89 Co 0.52529 0.27868 0.61768 0.0
O90 O 0.55152 0.28995 0.64562 0.0
C91 C 0.49717 0.2277 0.62253 0.0
C92 C 0.45633 0.2572 0.67892 0.0
C93 C 0.54912 0.28358 0.66803 0.0
O94 O 0.49267 0.23377 0.64537 0.0
O95 O 0.50737 0.24361 0.60825 0.0
O96 O 0.49182 0.30559 0.66898 0.0
O97 O 0.49697 0.2865 0.63279 0.0
Co98 Co 0.03553 0.29804 0.87346 0.0
O99 O 0.07103 0.30295 0.87708 0.0
O100 O 0.04767 0.28546 0.84277 0.0
C101 C 0.03314 0.33731 0.89039 0.0
O102 O 0.99858 0.29057 0.86171 0.0
Co103 Co 1.00498 0.30238 0.91923 0.0
O104 O 0.97746 0.30328 0.89296 0.0
C105 C 0.0315 0.25905 0.91154 0.0
C106 C 0.06962 0.29279 0.85408 0.0
C107 C 0.97852 0.29528 0.87007 0.0
O108 O 0.03461 0.26424 0.88859 0.0
O109 O 0.02239 0.27332 0.92709 0.0
O110 O 0.03616 0.33386 0.86652 0.0
O111 O 0.0326 0.31761 0.90296 0.0
Co112 Co 0.40362 0.07813 0.2626 0.0
O113 O 0.40325 0.11438 0.26071 0.0
O114 O 0.37176 0.08429 0.2491 0.0
C115 C 0.42237 0.08004 0.30288 0.0
O116 O 0.39443 0.03997 0.26322 0.0
Co117 Co 0.4499 0.05263 0.2701 0.0
O118 O 0.42681 0.02194 0.27604 0.0
C119 C 0.43555 0.06904 0.21967 0.0
C120 C 0.3801 0.10833 0.25265 0.0
C121 C 0.40389 0.02081 0.27026 0.0
O122 O 0.41526 0.07451 0.22711 0.0
O123 O 0.4523 0.06211 0.23448 0.0
O124 O 0.39925 0.08152 0.29881 0.0
O125 O 0.43385 0.07986 0.28281 0.0
Co126 Co 0.28576 0.14402 0.48134 0.0
O127 O 0.31775 0.14847 0.50023 0.0
O128 O 0.29144 0.1126 0.49429 0.0
C129 C 0.29853 0.16556 0.4487 0.0
O130 O 0.25209 0.13047 0.4633 0.0
Co131 Co 0.25734 0.18631 0.46419 0.0
O132 O 0.2319 0.1594 0.44648 0.0
C133 C 0.26215 0.1747 0.51821 0.0
C134 C 0.31265 0.12457 0.50399 0.0
C135 C 0.23339 0.13656 0.45059 0.0
O136 O 0.27109 0.15446 0.51282 0.0
O137 O 0.25749 0.19031 0.50189 0.0
O138 O 0.30077 0.14178 0.44933 0.0
O139 O 0.28905 0.17523 0.46743 0.0
Co140 Co 0.15831 1.00194 0.80078 0.0
O141 O 0.15866 0.966 0.79702 0.0
O142 O 0.19116 0.99557 0.79685 0.0
C143 C 0.13495 1.00084 0.83358 0.0
O144 O 0.1656 0.0406 0.80441 0.0
Co145 Co 0.10963 0.0238 0.79314 0.0
O146 O 0.1308 0.05725 0.80062 0.0
C147 C 0.13026 1.00143 0.7496 0.0
C148 C 0.18198 0.97164 0.79516 0.0
C149 C 0.15408 0.05969 0.8038 0.0
O150 O 0.15092 1.00222 0.76294 0.0
O151 O 0.11088 0.00616 0.75896 0.0
O152 O 0.15839 1.00087 0.8377 0.0
O153 O 0.12647 0.99973 0.81014 0.0
Co154 Co 0.21936 0.89522 0.02422 0.0
O155 O 0.18456 0.89344 0.02789 0.0
O156 O 0.21251 0.92687 0.03984 0.0
C157 C 0.21495 0.87828 0.98308 0.0
O158 O 0.25614 0.90588 0.02241 0.0
Co159 Co 0.24401 0.84801 0.01125 0.0
O160 O 0.27316 0.87325 0.00739 0.0
C161 C 0.23429 0.86025 0.06435 0.0
C162 C 0.18949 0.91696 0.03701 0.0
C163 C 0.27453 0.89653 0.01489 0.0
O164 O 0.22614 0.88085 0.05873 0.0
O165 O 0.24003 0.84446 0.04773 0.0
O166 O 0.21326 0.90192 0.98823 0.0
O167 O 0.21702 0.86547 1.00259 0.0
Co168 Co 0.25888 0.41541 0.04176 0.0
O169 O 0.22512 0.41104 0.02799 0.0
O170 O 0.24579 0.44634 0.04816 0.0
C171 C 0.27196 0.39766 0.00719 0.0
O172 O 0.29421 0.42797 0.0567 0.0
Co173 Co 0.28692 0.3701 0.04918 0.0
O174 O 0.31641 0.39649 0.05305 0.0
C175 C 0.24694 0.37848 0.08011 0.0
C176 C 0.22559 0.4346 0.03565 0.0
C177 C 0.31489 0.41981 0.05741 0.0
O178 O 0.24855 0.40165 0.07443 0.0
O179 O 0.25881 0.36255 0.06993 0.0
O180 O 0.26904 0.42128 0.00807 0.0
O181 O 0.26565 0.38553 0.02627 0.0
Co182 Co 0.81016 0.16573 1.00184 0.0
O183 O 0.84532 0.16518 1.00279 0.0
O184 O 0.81795 0.13269 0.00948 0.0
C185 C 0.80633 0.18534 0.96502 0.0
O186 O 0.77295 0.15743 1.00147 0.0
Co187 Co 0.78715 0.21504 1.00306 0.0
O188 O 0.7554 0.19184 0.99524 0.0
C189 C 0.81047 0.19958 0.05054 0.0
C190 C 0.84073 0.14148 0.00731 0.0
C191 C 0.75387 0.16818 0.99771 0.0
O192 O 0.81302 0.17804 0.03944 0.0
O193 O 0.80297 0.21742 0.03872 0.0
O194 O 0.80672 0.16113 0.96442 0.0
O195 O 0.81002 0.19694 0.98734 0.0
Co196 Co 0.12414 0.48303 0.28748 0.0
O197 O 0.12447 0.44667 0.28851 0.0
O198 O 0.15527 0.47457 0.27943 0.0
C199 C 0.10675 0.4892 0.3242 0.0
O200 O 0.13298 0.52114 0.28565 0.0
Co201 Co 0.07771 0.509 0.28527 0.0
O202 O 0.10065 0.5415 0.28674 0.0
C203 C 0.08859 0.47965 0.23999 0.0
C204 C 0.14694 0.45121 0.28277 0.0
C205 C 0.12347 0.54154 0.28581 0.0
O206 O 0.11042 0.47855 0.25019 0.0
O207 O 0.07232 0.48807 0.25219 0.0
O208 O 0.12998 0.48778 0.32487 0.0
O209 O 0.09484 0.48493 0.30206 0.0
Co210 Co 0.77473 0.93448 0.53837 0.0
O211 O 0.74077 0.93033 0.52599 0.0
O212 O 0.76225 0.96576 0.54519 0.0
C213 C 0.78628 0.91598 0.50342 0.0
O214 O 0.81053 0.94609 0.55197 0.0
Co215 Co 0.80044 0.88737 0.5453 0.0
O216 O 0.83071 0.91274 0.55094 0.0
C217 C 0.7623 0.89839 0.57714 0.0
C218 C 0.74157 0.9539 0.53371 0.0
C219 C 0.83041 0.93645 0.55421 0.0
O220 O 0.76555 0.92162 0.57163 0.0
O221 O 0.77224 0.88124 0.5662 0.0
O222 O 0.78373 0.93971 0.50416 0.0
O223 O 0.78019 0.90423 0.52278 0.0
Co224 Co 0.86907 0.06035 0.2448 0.0
O225 O 0.87302 0.09673 0.25023 0.0
O226 O 0.83854 0.07189 0.23491 0.0
C227 C 0.88838 0.05457 0.28246 0.0
O228 O 0.85732 0.02213 0.23842 0.0
Co229 Co 0.914 0.03202 0.24418 0.0
O230 O 0.88929 1.00098 0.24276 0.0
C231 C 0.90188 0.06325 0.20295 0.0
C232 C 0.8499 0.09455 0.2425 0.0
C233 C 0.86636 1.00141 0.23929 0.0
O234 O 0.88009 0.06303 0.20958 0.0
O235 O 0.91879 0.05484 0.21619 0.0
O236 O 0.86556 0.05768 0.28095 0.0
O237 O 0.89887 0.05698 0.26198 0.0
Co238 Co 0.31326 0.66606 0.5085 0.0
O239 O 0.3485 0.66642 0.50853 0.0
O240 O 0.32213 0.6333 0.51573 0.0
C241 C 0.30777 0.68577 0.47201 0.0
O242 O 0.27604 0.65708 0.50896 0.0
Co243 Co 0.28961 0.71519 0.51121 0.0
O244 O 0.25823 0.69148 0.50312 0.0
C245 C 0.31476 0.69958 0.55757 0.0
C246 C 0.34467 0.6427 0.51308 0.0
C247 C 0.25687 0.66779 0.50541 0.0
O248 O 0.31679 0.67805 0.54614 0.0
O249 O 0.30696 0.71755 0.54621 0.0
O250 O 0.3092 0.66176 0.47108 0.0
O251 O 0.31183 0.69718 0.49439 0.0
Co252 Co 0.36552 0.56218 0.74218 0.0
O253 O 0.3688 0.59848 0.7452 0.0
O254 O 0.33472 0.57264 0.73072 0.0
C255 C 0.38417 0.56 0.78111 0.0
O256 O 0.35489 0.52354 0.7381 0.0
Co257 Co 0.41148 0.53531 0.74611 0.0
O258 O 0.38716 0.50593 0.75264 0.0
C259 C 0.39953 0.56294 0.70152 0.0
C260 C 0.34571 0.59569 0.73733 0.0
C261 C 0.36437 0.50451 0.74581 0.0
O262 O 0.37752 0.56312 0.70734 0.0
O263 O 0.41614 0.55508 0.71577 0.0
O264 O 0.36106 0.56182 0.77829 0.0
O265 O 0.39518 0.56101 0.76086 0.0
Co266 Co 0.62486 0.98106 0.78924 0.0
O267 O 0.62345 0.94426 0.78923 0.0
O268 O 0.65552 0.97115 0.7815 0.0
C269 C 0.6069 0.98674 0.82587 0.0
O270 O 0.63583 0.01914 0.78871 0.0
Co271 Co 0.5806 0.00993 0.78721 0.0
O272 O 0.60493 0.04152 0.78936 0.0
C273 C 0.59053 0.98107 0.74116 0.0
C274 C 0.64612 0.9479 0.78406 0.0
C275 C 0.62759 0.04028 0.78899 0.0
O276 O 0.61181 0.9782 0.75165 0.0
O277 O 0.57473 0.99038 0.75333 0.0
O278 O 0.62997 0.98454 0.82675 0.0
O279 O 0.59543 0.98392 0.80347 0.0
Co280 Co 0.78139 0.63501 0.98369 0.0
O281 O 0.8151 0.63521 0.99577 0.0
O282 O 0.78413 0.60587 1.00251 0.0
C283 C 0.78842 0.64443 0.94436 0.0
O284 O 0.74464 0.62761 0.97416 0.0
Co285 Co 0.7617 0.68203 0.96374 0.0
O286 O 0.73005 0.65906 0.95501 0.0
C287 C 0.77429 0.67919 0.01868 0.0
C288 C 0.80749 0.61431 0.00574 0.0
C289 C 0.727 0.63703 0.96302 0.0
O290 O 0.77692 0.65585 0.01515 0.0
O291 O 0.77041 0.69316 1.00057 0.0
O292 O 0.78677 0.62106 0.95007 0.0
O293 O 0.78704 0.66107 0.96246 0.0
Co294 Co 0.90427 0.57843 0.7632 0.0
O295 O 0.90524 0.61443 0.75856 0.0
O296 O 0.87347 0.58466 0.74689 0.0
C297 C 0.92134 0.58309 0.80434 0.0
O298 O 0.89359 0.54071 0.76591 0.0
Co299 Co 0.9486 0.55128 0.77782 0.0
O300 O 0.92382 0.5216 0.78257 0.0
C301 C 0.9379 0.56331 0.72441 0.0
C302 C 0.88241 0.60858 0.7492 0.0
C303 C 0.90147 0.5213 0.77455 0.0
O304 O 0.9179 0.57162 0.72914 0.0
O305 O 0.95274 0.55677 0.74167 0.0
O306 O 0.89837 0.58474 0.79894 0.0
O307 O 0.93338 0.58061 0.78503 0.0
Co308 Co 0.72121 0.39729 0.52218 0.0
O309 O 0.68602 0.397 0.52352 0.0
O310 O 0.71444 0.43016 0.53459 0.0
C311 C 0.71912 0.37739 0.48238 0.0
O312 O 0.75838 0.40703 0.52213 0.0
Co313 Co 0.7457 0.34908 0.5168 0.0
O314 O 0.77582 0.37296 0.5126 0.0
C315 C 0.72965 0.36401 0.56616 0.0
C316 C 0.69128 0.42092 0.53123 0.0
C317 C 0.7771 0.39677 0.51716 0.0
O318 O 0.72515 0.38538 0.5582 0.0
O319 O 0.73565 0.34641 0.55182 0.0
O320 O 0.71742 0.40128 0.48545 0.0
O321 O 0.71967 0.36599 0.503 0.0
Co322 Co 0.65837 0.50311 0.30145 0.0
O323 O 0.6567 0.46684 0.29708 0.0
O324 O 0.68949 0.49498 0.29323 0.0
C325 C 0.63907 0.50305 0.3371 0.0
O326 O 0.66809 0.54153 0.30491 0.0
Co327 Co 0.6127 0.53008 0.30192 0.0
O328 O 0.63637 0.56177 0.31097 0.0
C329 C 0.62449 0.50431 0.2548 0.0
C330 C 0.67949 0.47137 0.29253 0.0
C331 C 0.65909 0.56194 0.30914 0.0
O332 O 0.64644 0.50368 0.26456 0.0
O333 O 0.60785 0.51128 0.2675 0.0
O334 O 0.66238 0.50189 0.33856 0.0
O335 O 0.62845 0.50305 0.3146 0.0
Tb336 Tb 0.02643 0.05472 0.01468 0.0
C337 C 0.02614 0.00998 0.97141 0.0
Tb338 Tb 1.00319 0.99821 0.0228 0.0
O339 O 0.06056 0.05049 0.03829 0.0
O340 O 0.0379 0.01963 0.02028 0.0
O341 O 0.02891 0.03472 0.97805 0.0
C342 C 1.00346 0.95609 0.04656 0.0
O343 O 0.01817 0.99211 0.98645 0.0
C344 C 0.96922 0.02594 0.00823 0.0
C345 C 0.99824 0.04389 0.06217 0.0
O346 O 0.99223 0.95713 0.02404 0.0
O347 O 0.01453 0.97851 0.05517 0.0
O348 O 0.96428 1.00198 0.01219 0.0
O349 O 0.99219 0.03146 0.01134 0.0
O350 O 1.00136 0.01986 0.05873 0.0
O351 O 1.0049 0.061 0.04608 0.0
C352 C 0.03427 0.09822 0.99284 0.0
O353 O 0.04317 0.09473 0.0156 0.0
O354 O 0.02088 0.07746 0.98278 0.0
C355 C 0.05651 0.02582 0.03585 0.0
Tb356 Tb 0.26921 0.80965 0.28261 0.0
C357 C 0.31054 0.77424 0.27615 0.0
Tb358 Tb 0.25409 0.7532 0.26683 0.0
O359 O 0.26205 0.80421 0.32229 0.0
O360 O 0.27146 0.7755 0.29942 0.0
O361 O 0.30465 0.79739 0.27747 0.0
C362 C 0.23344 0.70475 0.26796 0.0
O363 O 0.29366 0.75346 0.27399 0.0
C364 C 0.26098 0.78276 0.22948 0.0
C365 C 0.21303 0.78855 0.2725 0.0
O366 O 0.23509 0.71694 0.24771 0.0
O367 O 0.2438 0.71967 0.28733 0.0
O368 O 0.26489 0.75936 0.22863 0.0
O369 O 0.252 0.78749 0.24978 0.0
O370 O 0.21901 0.76554 0.27413 0.0
O371 O 0.23006 0.80893 0.27252 0.0
C372 C 0.29187 0.85673 0.2788 0.0
O373 O 0.2774 0.85013 0.296 0.0
O374 O 0.29301 0.83704 0.26381 0.0
C375 C 0.26426 0.78034 0.3206 0.0
Tb376 Tb 0.54225 0.03147 0.51154 0.0
C377 C 0.53089 0.00736 0.56418 0.0
Tb378 Tb 0.48942 0.02384 0.52694 0.0
O379 O 0.54223 0.07267 0.51397 0.0
O380 O 0.52216 0.04917 0.53688 0.0
O381 O 0.54686 0.01379 0.5475 0.0
C382 C 0.45091 0.03861 0.54603 0.0
O383 O 0.50724 0.00958 0.56034 0.0
C384 C 0.49904 0.98907 0.49418 0.0
C385 C 0.50023 0.04354 0.4732 0.0
O386 O 0.45301 0.01501 0.54043 0.0
O387 O 0.47039 0.05324 0.54107 0.0
O388 O 0.47707 0.99421 0.49589 0.0
O389 O 0.51332 1.00117 0.51209 0.0
O390 O 0.48674 0.04431 0.49257 0.0
O391 O 0.52195 0.03595 0.47534 0.0
C392 C 0.58769 0.02562 0.50334 0.0
O393 O 0.56787 0.01308 0.49084 0.0
O394 O 0.58185 0.04185 0.51993 0.0
C395 C 0.52677 0.07148 0.53095 0.0
Tb396 Tb 0.27485 0.28438 0.79651 0.0
C397 C 0.2766 0.32882 0.75933 0.0
Tb398 Tb 0.25745 0.27229 0.7392 0.0
O399 O 0.30535 0.26323 0.79246 0.0
O400 O 0.29127 0.28091 0.76224 0.0
O401 O 0.27432 0.32189 0.78269 0.0
C402 C 0.25939 0.25289 0.69252 0.0
O403 O 0.27321 0.31221 0.73913 0.0
C404 C 0.2203 0.28124 0.76431 0.0
C405 C 0.24773 0.22979 0.77829 0.0
O406 O 0.24872 0.27215 0.69831 0.0
O407 O 0.26918 0.24489 0.71294 0.0
O408 O 0.21852 0.27588 0.73992 0.0
O409 O 0.24239 0.28169 0.77245 0.0
O410 O 0.25007 0.2352 0.75449 0.0
O411 O 0.25437 0.2467 0.79799 0.0
C412 C 0.2839 0.30453 0.84401 0.0
O413 O 0.29714 0.31053 0.82583 0.0
O414 O 0.26562 0.28703 0.83555 0.0
C415 C 0.30611 0.26634 0.76851 0.0
Tb416 Tb 0.02174 0.02576 0.47943 0.0
C417 C 0.99544 0.02017 0.52875 0.0
Tb418 Tb 0.05284 0.02686 0.53134 0.0
O419 O 1.0062 0.98607 0.48251 0.0
O420 O 0.04089 1.00097 0.49944 0.0
O421 O 0.99508 0.02977 0.50639 0.0
C422 C 0.0795 0.01404 0.57115 0.0
O423 O 0.01565 0.01424 0.5405 0.0
C424 C 0.03698 0.06894 0.52076 0.0
C425 C 0.07974 0.03551 0.48154 0.0
O426 O 0.05995 1.00042 0.55939 0.0
O427 O 0.08416 0.03522 0.56055 0.0
O428 O 0.04206 0.0633 0.54385 0.0
O429 O 0.04327 0.05274 0.50588 0.0
O430 O 0.08157 0.0298 0.50562 0.0
O431 O 0.05848 0.03666 0.46823 0.0
C432 C 0.99743 0.03496 0.4368 0.0
O433 O 0.01231 0.0185 0.43865 0.0
O434 O 0.99669 0.04658 0.45883 0.0
C435 C 0.02473 0.98167 0.4972 0.0
Tb436 Tb 0.296 0.78952 0.78493 0.0
C437 C 0.25291 0.80248 0.81568 0.0
Tb438 Tb 0.24351 0.78504 0.75698 0.0
O439 O 0.29984 0.83089 0.79113 0.0
O440 O 0.27614 0.81161 0.76162 0.0
O441 O 0.27408 0.79374 0.81655 0.0
C442 C 0.20365 0.79376 0.72967 0.0
O443 O 0.23903 0.80329 0.79409 0.0
C444 C 0.25579 0.74138 0.76845 0.0
C445 C 0.28631 0.76866 0.72708 0.0
O446 O 0.20375 0.78332 0.75108 0.0
O447 O 0.22588 0.79949 0.72391 0.0
O448 O 0.23738 0.74364 0.75238 0.0
O449 O 0.26333 0.76292 0.77996 0.0
O450 O 0.26446 0.77602 0.72564 0.0
O451 O 0.30107 0.77062 0.74849 0.0
C452 C 0.33789 0.78463 0.81123 0.0
O453 O 0.31619 0.77631 0.81728 0.0
O454 O 0.33604 0.79509 0.78991 0.0
C455 C 0.28245 0.83294 0.77384 0.0
Tb456 Tb 0.48665 0.02282 0.01316 0.0
C457 C 0.52895 0.99098 0.01346 0.0
Tb458 Tb 0.54014 0.05092 0.01951 0.0
O459 O 0.48955 0.00672 0.97477 0.0
O460 O 0.51231 0.03975 0.98921 0.0
O461 O 0.50634 0.99156 0.0193 0.0
C462 C 0.58599 0.07254 0.0137 0.0
O463 O 0.5447 0.01169 0.01082 0.0
C464 C 0.51747 0.05148 0.06117 0.0
C465 C 0.49709 0.08207 0.01569 0.0
O466 O 0.5801 0.05523 0.02909 0.0
O467 O 0.56613 0.07751 1.00172 0.0
O468 O 0.53608 0.06798 0.05712 0.0
O469 O 0.51459 0.03384 0.04364 0.0
O470 O 0.5197 0.08109 0.01002 0.0
O471 O 0.48199 0.06195 0.02098 0.0
C472 C 0.44057 1.00204 0.01835 0.0
O473 O 0.44701 0.01863 1.00248 0.0
O474 O 0.46006 0.9974 0.03142 0.0
C475 C 0.50877 0.02261 0.97118 0.0
Tb476 Tb 0.23854 0.26957 0.27851 0.0
C477 C 0.29015 0.27102 0.30779 0.0
Tb478 Tb 0.28488 0.2864 0.25169 0.0
O479 O 0.24573 0.23025 0.27954 0.0
O480 O 0.25972 0.25288 0.25273 0.0
O481 O 0.26726 0.2744 0.30973 0.0
C482 C 0.32383 0.28846 0.22592 0.0
O483 O 0.3004 0.27249 0.28629 0.0
C484 C 0.26254 0.32383 0.26721 0.0
C485 C 0.23317 0.28615 0.22293 0.0
O486 O 0.32223 0.30334 0.24576 0.0
O487 O 0.30365 0.27261 0.22063 0.0
O488 O 0.27716 0.32511 0.24949 0.0
O489 O 0.26377 0.30335 0.2775 0.0
O490 O 0.25594 0.28235 0.22064 0.0
O491 O 0.2232 0.28502 0.24466 0.0
C492 C 0.20061 0.26669 0.30608 0.0
O493 O 0.19987 0.25613 0.28323 0.0
O494 O 0.22238 0.27897 0.31296 0.0
C495 C 0.26089 0.23215 0.26236 0.0
Tb496 Tb 0.50359 0.54423 0.99071 0.0
C497 C 0.4737 0.52417 0.03473 0.0
Tb498 Tb 0.53157 0.54014 0.0431 0.0
O499 O 0.4956 0.5028 0.98427 0.0
O500 O 0.52653 0.52034 0.00708 0.0
O501 O 0.47313 0.53554 0.01329 0.0
C502 C 0.55485 0.52394 0.08344 0.0
O503 O 0.49445 0.52187 0.04831 0.0
C504 C 0.52146 0.58549 0.03571 0.0
C505 C 0.56032 0.55984 0.99869 0.0
O506 O 0.5326 0.51504 0.07402 0.0
O507 O 0.56376 0.54212 0.07045 0.0
O508 O 0.53769 0.58114 0.0533 0.0
O509 O 0.50949 0.56457 0.02664 0.0
O510 O 0.56021 0.54474 0.01755 0.0
O511 O 0.53977 0.56584 0.98775 0.0
C512 C 0.48117 0.55542 0.94754 0.0
O513 O 0.50153 0.54635 0.94973 0.0
O514 O 0.47362 0.55859 0.96969 0.0
C515 C 0.51394 0.49932 0.99975 0.0
Tb516 Tb 0.78999 0.28532 0.27931 0.0
C517 C 0.74852 0.29462 0.314 0.0
Tb518 Tb 0.73622 0.27804 0.25469 0.0
O519 O 0.79072 0.32611 0.28699 0.0
O520 O 0.7675 0.306 0.25726 0.0
O521 O 0.77072 0.28834 0.3132 0.0
C522 C 0.69458 0.28602 0.23024 0.0
O523 O 0.73268 0.29349 0.2934 0.0
C524 C 0.75241 0.23582 0.26379 0.0
C525 C 0.77822 0.26596 0.22098 0.0
O526 O 0.69621 0.2697 0.24713 0.0
O527 O 0.71618 0.29776 0.22727 0.0
O528 O 0.73379 0.23728 0.24765 0.0
O529 O 0.75853 0.25703 0.27648 0.0
O530 O 0.75548 0.27086 0.22144 0.0
O531 O 0.79448 0.26931 0.24136 0.0
C532 C 0.83446 0.28244 0.30109 0.0
O533 O 0.82911 0.30008 0.28701 0.0
O534 O 0.81489 0.26616 0.30245 0.0
C535 C 0.77281 0.32719 0.26994 0.0
Tb536 Tb 0.98691 0.52911 0.50855 0.0
C537 C 0.02754 0.49439 0.51916 0.0
Tb538 Tb 0.04055 0.55377 0.52238 0.0
O539 O 0.98988 0.53338 0.4678 0.0
O540 O 0.02024 0.53059 0.49181 0.0
O541 O 1.00413 0.49674 0.51969 0.0
C542 C 0.08607 0.57792 0.51879 0.0
O543 O 0.04461 0.51406 0.51653 0.0
C544 C 0.01433 0.5467 0.56123 0.0
C545 C 0.99953 0.58835 0.51184 0.0
O546 O 0.07945 0.56419 0.537 0.0
O547 O 0.06701 0.57824 0.50286 0.0
O548 O 0.03798 0.54801 0.56273 0.0
O549 O 1.00726 0.5522 0.53949 0.0
O550 O 0.0231 0.58627 0.5119 0.0
O551 O 0.98246 0.56864 0.51423 0.0
C552 C 0.94174 0.50364 0.51104 0.0
O553 O 0.94795 0.51912 0.49407 0.0
O554 O 0.96094 0.50256 0.52651 0.0
C555 C 0.01359 0.53524 0.46971 0.0
Tb556 Tb 0.77472 0.78893 0.29661 0.0
C557 C 0.77603 0.82863 0.25523 0.0
Tb558 Tb 0.75884 0.77056 0.24014 0.0
O559 O 0.8061 0.76839 0.29594 0.0
O560 O 0.79212 0.78245 0.26341 0.0
O561 O 0.7723 0.82436 0.27901 0.0
C562 C 0.76257 0.75063 0.19417 0.0
O563 O 0.77474 0.80996 0.23722 0.0
C564 C 0.72061 0.78079 0.26297 0.0
C565 C 0.75023 0.73263 0.28313 0.0
O566 O 0.75242 0.77044 0.19911 0.0
O567 O 0.77042 0.74196 0.21508 0.0
O568 O 0.71931 0.77256 0.23925 0.0
O569 O 0.74271 0.78289 0.2716 0.0
O570 O 0.75463 0.73531 0.2592 0.0
O571 O 0.75395 0.75192 0.30073 0.0
C572 C 0.7837 0.81325 0.34229 0.0
O573 O 0.76626 0.79428 0.33571 0.0
O574 O 0.796 0.81846 0.32326 0.0
C575 C 0.80733 0.76917 0.27175 0.0
Tb576 Tb 0.76994 0.30902 0.77342 0.0
C577 C 0.81125 0.27465 0.77625 0.0
Tb578 Tb 0.75458 0.25117 0.76539 0.0
O579 O 0.78376 0.30647 0.81286 0.0
O580 O 0.7554 0.27931 0.79538 0.0
O581 O 0.80535 0.29713 0.77199 0.0
C582 C 0.73987 0.20157 0.7697 0.0
O583 O 0.79447 0.25388 0.77562 0.0
C584 C 0.75379 0.27578 0.7238 0.0
C585 C 0.71379 0.28604 0.76224 0.0
O586 O 0.74408 0.21187 0.74879 0.0
O587 O 0.74479 0.21909 0.78818 0.0
O588 O 0.74011 0.25436 0.72617 0.0
O589 O 0.76884 0.28094 0.74344 0.0
O590 O 0.71922 0.26376 0.76848 0.0
O591 O 0.73094 0.30605 0.76098 0.0
C592 C 0.78592 0.35771 0.76747 0.0
O593 O 0.77252 0.34966 0.78505 0.0
O594 O 0.78933 0.33844 0.75307 0.0
C595 C 0.77027 0.28489 0.81513 0.0
Tb596 Tb 0.73438 0.76337 0.76106 0.0
C597 C 0.77187 0.75524 0.806 0.0
Tb598 Tb 0.78927 0.78736 0.76202 0.0
O599 O 0.7413 0.72493 0.74953 0.0
O600 O 0.76534 0.75638 0.7432 0.0
O601 O 0.74951 0.76005 0.79962 0.0
C602 C 0.8346 0.7911 0.74942 0.0
O603 O 0.79055 0.76299 0.79312 0.0
C604 C 0.76078 0.8185 0.77832 0.0
C605 C 0.74999 0.80009 0.71942 0.0
O606 O 0.82865 0.80211 0.77001 0.0
O607 O 0.81532 0.77855 0.73627 0.0
O608 O 0.78214 0.82571 0.77053 0.0
O609 O 0.7583 0.7948 0.78038 0.0
O610 O 0.77342 0.80063 0.72752 0.0
O611 O 0.73146 0.78661 0.72913 0.0
C612 C 0.68779 0.7522 0.77058 0.0
O613 O 0.70416 0.73757 0.77303 0.0
O614 O 0.69741 0.77301 0.76167 0.0
C615 C 0.7631 0.73265 0.74343 0.0
Tb616 Tb 0.52913 0.56301 0.51592 0.0
C617 C 0.53579 0.5166 0.47972 0.0
Tb618 Tb 0.51301 0.50818 0.53104 0.0
O619 O 0.56822 0.55908 0.51973 0.0
O620 O 0.54388 0.53682 0.53907 0.0
O621 O 0.53066 0.53996 0.4812 0.0
C622 C 0.51219 0.46548 0.554 0.0
O623 O 0.53267 0.50119 0.49813 0.0
C624 C 0.4762 0.53046 0.51321 0.0
C625 C 0.50184 0.55461 0.56483 0.0
O626 O 0.5038 0.4668 0.5305 0.0
O627 O 0.52134 0.48795 0.56409 0.0
O628 O 0.47365 0.51026 0.52558 0.0
O629 O 0.49821 0.53419 0.50802 0.0
O630 O 0.50693 0.53122 0.56425 0.0
O631 O 0.50785 0.57044 0.5474 0.0
C632 C 0.53272 0.60709 0.49495 0.0
O633 O 0.54068 0.60429 0.51824 0.0
O634 O 0.52243 0.58532 0.48398 0.0
C635 C 0.56552 0.53951 0.5329 0.0
Tb636 Tb 0.03913 0.52768 0.01173 0.0
C637 C 0.02864 0.50534 0.06389 0.0
Tb638 Tb 0.98663 0.52134 0.02624 0.0
O639 O 0.05021 0.55877 0.04139 0.0
O640 O 0.01471 0.55184 0.02329 0.0
O641 O 0.04342 0.50745 0.04564 0.0
C642 C 0.9458 0.52899 0.04631 0.0
O643 O 1.00604 0.51089 0.061 0.0
C644 C 0.99702 0.4846 0.99654 0.0
C645 C 0.99698 0.54321 0.97381 0.0
O646 O 0.948 0.50945 0.03146 0.0
O647 O 0.96678 0.54371 0.05028 0.0
O648 O 0.97525 0.49062 0.99637 0.0
O649 O 0.01087 0.49722 0.01452 0.0
O650 O 0.98246 0.54173 0.99237 0.0
O651 O 0.01954 0.53733 0.97654 0.0
C652 C 0.08139 0.51948 0.99494 0.0
O653 O 0.07813 0.53963 0.00823 0.0
O654 O 0.06046 0.50476 0.98994 0.0
C655 C 0.02844 0.56474 0.04113 0.0
H656 H 0.02906 0.21247 0.88548 0.0
H657 H 0.05765 0.14493 0.01273 0.0
H658 H 0.04836 0.25204 0.95951 0.0
H659 H 0.0203 0.10491 0.94376 0.0
H660 H 0.06209 0.18422 0.9912 0.0
H661 H 0.03389 0.17255 0.90426 0.0
C662 C 0.03475 0.2128 0.90554 0.0
C663 C 0.03799 0.23545 0.92105 0.0
C664 C 0.05306 0.16679 0.98074 0.0
C665 C 0.0435 0.19021 0.94256 0.0
C666 C 0.05054 0.14443 0.99302 0.0
C667 C 0.03837 0.12182 0.98005 0.0
C668 C 0.04346 0.16642 0.95528 0.0
C669 C 0.0296 0.12207 0.95449 0.0
C670 C 0.03734 0.19006 0.91628 0.0
C671 C 0.0453 0.23489 0.94695 0.0
N672 N 0.03221 0.14406 0.94294 0.0
N673 N 0.04766 0.21265 0.9569 0.0
H674 H 0.09267 0.81539 0.17262 0.0
H675 H 0.17186 0.75322 0.27471 0.0
H676 H 0.05916 0.75793 0.21728 0.0
H677 H 0.19493 0.82793 0.25119 0.0
H678 H 0.13062 0.75392 0.25426 0.0
H679 H 0.13049 0.81965 0.20096 0.0
C680 C 0.0932 0.8038 0.18854 0.0
C681 C 0.0727 0.78621 0.19251 0.0
C682 C 0.14462 0.77032 0.25397 0.0
C683 C 0.11624 0.79073 0.22492 0.0
C684 C 0.16819 0.76996 0.26568 0.0
C685 C 0.18702 0.79052 0.26466 0.0
C686 C 0.13993 0.79116 0.24069 0.0
C687 C 0.18109 0.81165 0.25258 0.0
C688 C 0.1148 0.8063 0.20478 0.0
C689 C 0.07448 0.77179 0.21355 0.0
N690 N 0.15824 0.81124 0.24076 0.0
N691 N 0.09598 0.77407 0.22874 0.0
H692 H 0.5067 0.87987 0.36691 0.0
H693 H 0.54032 0.96761 0.49696 0.0
H694 H 0.55166 0.86188 0.4315 0.0
H695 H 0.47325 0.96807 0.44948 0.0
H696 H 0.55073 0.93513 0.46736 0.0
H697 H 0.49998 0.91847 0.39159 0.0
C698 C 0.51547 0.88431 0.38605 0.0
C699 C 0.52966 0.86777 0.39731 0.0
C700 C 0.5338 0.94244 0.4633 0.0
C701 C 0.52234 0.91146 0.42526 0.0
C702 C 0.52791 0.96104 0.48013 0.0
C703 C 0.50585 0.97036 0.47568 0.0
C704 C 0.51758 0.93315 0.44175 0.0
C705 C 0.49034 0.9611 0.45365 0.0
C706 C 0.51152 0.90612 0.40013 0.0
C707 C 0.54046 0.8741 0.42222 0.0
N708 N 0.49646 0.9429 0.43746 0.0
N709 N 0.53662 0.89541 0.4353 0.0
H710 H 0.44937 0.24436 0.7274 0.0
H711 H 0.31341 0.27738 0.71997 0.0
H712 H 0.41055 0.26274 0.65885 0.0
H713 H 0.34569 0.24417 0.78383 0.0
H714 H 0.34876 0.27167 0.69723 0.0
H715 H 0.41175 0.24354 0.74842 0.0
C716 C 0.43289 0.24792 0.71667 0.0
C717 C 0.4332 0.25368 0.6913 0.0
C718 C 0.34807 0.26541 0.71613 0.0
C719 C 0.39011 0.25313 0.71537 0.0
C720 C 0.32782 0.26861 0.7291 0.0
C721 C 0.32654 0.26117 0.75382 0.0
C722 C 0.36746 0.25501 0.72804 0.0
C723 C 0.34591 0.25016 0.76479 0.0
C724 C 0.41141 0.2475 0.72871 0.0
C725 C 0.41126 0.25823 0.67842 0.0
N726 N 0.36564 0.24761 0.75194 0.0
N727 N 0.39076 0.25808 0.69062 0.0
H728 H 0.97612 0.87914 0.60634 0.0
H729 H 0.06232 0.96175 0.51985 0.0
H730 H 0.04818 0.86497 0.59269 0.0
H731 H 0.98402 0.95819 0.51584 0.0
H732 H 0.06013 0.93259 0.55353 0.0
H733 H 0.98215 0.91642 0.58179 0.0
C734 C 0.99356 0.88455 0.59899 0.0
C735 C 0.01176 0.86929 0.60143 0.0
C736 C 0.04344 0.93819 0.54525 0.0
C737 C 0.01847 0.91087 0.5729 0.0
C738 C 0.04468 0.95459 0.52599 0.0
C739 C 0.02332 0.96217 0.51523 0.0
C740 C 0.02068 0.92948 0.55372 0.0
C741 C 1.00086 0.95257 0.52367 0.0
C742 C 0.99687 0.90548 0.58471 0.0
C743 C 0.03382 0.87645 0.59114 0.0
N744 N 1.00012 0.93677 0.54258 0.0
N745 N 0.03651 0.89666 0.57704 0.0
H746 H 0.48821 0.80348 0.87457 0.0
H747 H 0.34268 0.77266 0.86024 0.0
H748 H 0.44672 0.79948 0.93932 0.0
H749 H 0.38458 0.80015 0.80049 0.0
H750 H 0.38049 0.77854 0.88907 0.0
H751 H 0.45029 0.79933 0.84683 0.0
C752 C 0.47105 0.80186 0.88296 0.0
C753 C 0.47056 0.80169 0.90928 0.0
C754 C 0.38139 0.78325 0.86965 0.0
C755 C 0.42697 0.79664 0.8775 0.0
C756 C 0.3599 0.77969 0.85316 0.0
C757 C 0.36065 0.78586 0.82799 0.0
C758 C 0.40372 0.79277 0.86075 0.0
C759 C 0.38329 0.7951 0.81975 0.0
C760 C 0.4494 0.79952 0.86709 0.0
C761 C 0.44785 0.79977 0.91913 0.0
N762 N 0.40397 0.79823 0.8361 0.0
N763 N 0.42685 0.79703 0.90317 0.0
H764 H 0.47937 0.22012 0.09162 0.0
H765 H 0.51002 0.12298 0.98939 0.0
H766 H 0.48824 0.2386 0.0148 0.0
H767 H 0.46725 0.09756 0.04929 0.0
H768 H 0.50133 0.16574 0.99844 0.0
H769 H 0.47283 0.17507 0.07696 0.0
C770 C 0.47942 0.21476 0.07164 0.0
C771 C 0.48505 0.23312 0.05453 0.0
C772 C 0.49345 0.15073 0.00931 0.0
C773 C 0.4779 0.18195 0.03784 0.0
C774 C 0.49852 0.12642 0.00421 0.0
C775 C 0.48937 0.10693 0.01866 0.0
C776 C 0.47974 0.15564 0.02948 0.0
C777 C 0.47451 0.11219 0.03766 0.0
C778 C 0.47569 0.18908 0.0633 0.0
C779 C 0.48466 0.2251 0.02881 0.0
N780 N 0.47053 0.13626 0.0429 0.0
N781 N 0.48168 0.20012 0.02134 0.0
H782 H 0.06044 0.24476 0.36665 0.0
H783 H 0.20299 0.28514 0.35501 0.0
H784 H 0.11272 0.27897 0.42901 0.0
H785 H 0.15297 0.24322 0.29468 0.0
H786 H 0.17017 0.28181 0.38263 0.0
H787 H 0.09403 0.24205 0.34055 0.0
C788 C 0.07903 0.25142 0.37496 0.0
C789 C 0.08379 0.26229 0.4 0.0
C790 C 0.16631 0.27323 0.3634 0.0
C791 C 0.1223 0.25952 0.3701 0.0
C792 C 0.18502 0.27521 0.34758 0.0
C793 C 0.18058 0.26454 0.32251 0.0
C794 C 0.14287 0.26062 0.35406 0.0
C795 C 0.15706 0.25178 0.31389 0.0
C796 C 0.09819 0.24991 0.36001 0.0
C797 C 0.10821 0.27051 0.40979 0.0
N798 N 0.13899 0.25028 0.32963 0.0
N799 N 0.12653 0.26919 0.39473 0.0
H800 H 0.93644 0.10105 0.19157 0.0
H801 H 0.96419 0.0114 0.08226 0.0
H802 H 0.8829 0.03838 0.15788 0.0
H803 H 0.99493 0.09064 0.08535 0.0
H804 H 0.93536 0.0215 0.11159 0.0
H805 H 0.95786 0.10003 0.15331 0.0
C806 C 0.92857 0.08789 0.17556 0.0
C807 C 0.90781 0.0699 0.17766 0.0
C808 C 0.94833 0.03673 0.1058 0.0
C809 C 0.93285 0.06769 0.13469 0.0
C810 C 0.96513 0.03094 0.08938 0.0
C811 C 0.98235 0.05018 0.08169 0.0
C812 C 0.94896 0.06188 0.11515 0.0
C813 C 0.98215 0.07523 0.09107 0.0
C814 C 0.94093 0.08713 0.15389 0.0
C815 C 0.89866 0.05276 0.15678 0.0
N816 N 0.96593 0.08036 0.10768 0.0
N817 N 0.91163 0.0516 0.13639 0.0
H818 H 0.29632 0.73354 0.47149 0.0
H819 H 0.28113 0.73504 0.32088 0.0
H820 H 0.30144 0.66846 0.42142 0.0
H821 H 0.25773 0.79124 0.37062 0.0
H822 H 0.29 0.7111 0.35718 0.0
H823 H 0.28395 0.75563 0.43492 0.0
C824 C 0.29481 0.72382 0.45279 0.0
C825 C 0.29996 0.69902 0.44961 0.0
C826 C 0.28269 0.72852 0.36019 0.0
C827 C 0.28589 0.7245 0.40738 0.0
C828 C 0.27743 0.74217 0.33939 0.0
C829 C 0.26826 0.76506 0.34257 0.0
C830 C 0.27921 0.73795 0.3846 0.0
C831 C 0.2646 0.77363 0.36722 0.0
C832 C 0.28766 0.73649 0.43188 0.0
C833 C 0.29765 0.68752 0.42483 0.0
N834 N 0.27021 0.76018 0.38727 0.0
N835 N 0.29095 0.70039 0.40469 0.0
H836 H 0.54557 0.96235 0.71726 0.0
H837 H 0.57872 0.00555 0.5816 0.0
H838 H 0.61938 0.98981 0.70188 0.0
H839 H 0.50516 0.98887 0.60279 0.0
H840 H 0.59441 0.99371 0.62286 0.0
H841 H 0.53145 0.96462 0.67285 0.0
C842 C 0.55895 0.9683 0.70435 0.0
C843 C 0.58372 0.97596 0.71339 0.0
C844 C 0.57484 0.99245 0.61841 0.0
C845 C 0.56746 0.97927 0.66227 0.0
C846 C 0.56578 0.99919 0.59478 0.0
C847 C 0.54046 0.99839 0.58858 0.0
C848 C 0.55853 0.98466 0.63609 0.0
C849 C 0.52477 0.98996 0.60662 0.0
C850 C 0.55081 0.96981 0.67898 0.0
C851 C 0.60017 0.98353 0.69574 0.0
N852 N 0.53405 0.98354 0.62948 0.0
N853 N 0.59169 0.98534 0.67108 0.0
H854 H 0.27474 0.34767 1.00047 0.0
H855 H 0.31113 0.35056 0.85928 0.0
H856 H 0.28707 0.41733 0.96373 0.0
H857 H 0.26427 0.28824 0.88609 0.0
H858 H 0.3132 0.37392 0.90092 0.0
H859 H 0.28242 0.32447 0.96191 0.0
C860 C 0.27939 0.35816 0.98438 0.0
C861 C 0.27991 0.38443 0.98511 0.0
C862 C 0.30273 0.35502 0.89767 0.0
C863 C 0.28879 0.35793 0.94108 0.0
C864 C 0.30162 0.34169 0.87409 0.0
C865 C 0.2874 0.31758 0.86943 0.0
C866 C 0.28993 0.34384 0.91667 0.0
C867 C 0.2753 0.30687 0.88902 0.0
C868 C 0.28369 0.34486 0.9624 0.0
C869 C 0.28624 0.39704 0.96379 0.0
N870 N 0.27685 0.3201 0.91186 0.0
N871 N 0.2903 0.3836 0.94245 0.0
H872 H 0.8776 0.0617 0.33151 0.0
H873 H 0.99877 0.01375 0.38924 0.0
H874 H 0.93064 0.03519 0.28634 0.0
H875 H 0.95962 0.06178 0.43281 0.0
H876 H 0.97045 0.0164 0.3519 0.0
H877 H 0.90379 0.0562 0.36995 0.0
C878 C 0.89456 0.05443 0.32971 0.0
C879 C 0.90209 0.049 0.30581 0.0
C880 C 0.96809 0.02643 0.36962 0.0
C881 C 0.93188 0.04275 0.34926 0.0
C882 C 0.98426 0.02497 0.39085 0.0
C883 C 0.98152 0.03771 0.41394 0.0
C884 C 0.94894 0.04052 0.37163 0.0
C885 C 0.96238 0.05185 0.41519 0.0
C886 C 0.90953 0.05148 0.35155 0.0
C887 C 0.92423 0.03977 0.3044 0.0
N888 N 0.94669 0.05282 0.39428 0.0
N889 N 0.93835 0.03695 0.32582 0.0
H890 H 0.28985 0.67185 0.59076 0.0
H891 H 0.33236 0.77116 0.71131 0.0
H892 H 0.34434 0.73761 0.58728 0.0
H893 H 0.25713 0.73711 0.69055 0.0
H894 H 0.34349 0.75053 0.67217 0.0
H895 H 0.28497 0.68645 0.63454 0.0
C896 C 0.30156 0.68875 0.5996 0.0
C897 C 0.31777 0.70338 0.58555 0.0
C898 C 0.3246 0.74751 0.67637 0.0
C899 C 0.31203 0.72035 0.63531 0.0
C900 C 0.31824 0.75925 0.6986 0.0
C901 C 0.29373 0.75616 0.70394 0.0
C902 C 0.30644 0.73189 0.65985 0.0
C903 C 0.27617 0.74037 0.68693 0.0
C904 C 0.29849 0.69727 0.62439 0.0
C905 C 0.33189 0.72564 0.59763 0.0
N906 N 0.28287 0.72874 0.66575 0.0
N907 N 0.32867 0.73351 0.62179 0.0
H908 H 0.62637 0.00448 0.87499 0.0
H909 H 0.49463 0.99461 0.92672 0.0
H910 H 0.55788 0.98309 0.82802 0.0
H911 H 0.5577 0.04161 0.96747 0.0
H912 H 0.51915 0.98636 0.89227 0.0
H913 H 0.60333 0.01464 0.91092 0.0
C914 C 0.60657 1.00185 0.87223 0.0
C915 C 0.59408 0.99289 0.84839 0.0
C916 C 0.5277 0.99867 0.90863 0.0
C917 C 0.56768 0.00424 0.88935 0.0
C918 C 0.51367 0.00341 0.92836 0.0
C919 C 0.52398 0.01923 0.94991 0.0
C920 C 0.55257 0.0094 0.91044 0.0
C921 C 0.54886 0.02982 0.95101 0.0
C922 C 0.59345 0.00776 0.89269 0.0
C923 C 0.56838 0.98997 0.84594 0.0
N924 N 0.56238 0.02461 0.93164 0.0
N925 N 0.55615 0.99545 0.86606 0.0
H926 H 0.24373 0.40007 0.12787 0.0
H927 H 0.22649 0.26751 0.17379 0.0
H928 H 0.21605 0.33426 0.07665 0.0
H929 H 0.21393 0.32981 0.22347 0.0
H930 H 0.21827 0.29161 0.13747 0.0
H931 H 0.22861 0.37657 0.16305 0.0
C932 C 0.23362 0.38107 0.12392 0.0
C933 C 0.23148 0.36883 0.09955 0.0
C934 C 0.21659 0.29984 0.15624 0.0
C935 C 0.21475 0.34187 0.13933 0.0
C936 C 0.22118 0.28599 0.17691 0.0
C937 C 0.22087 0.29676 0.20149 0.0
C938 C 0.21272 0.32503 0.16029 0.0
C939 C 0.21428 0.32092 0.2047 0.0
C940 C 0.22509 0.36762 0.14395 0.0
C941 C 0.21843 0.34414 0.09534 0.0
N942 N 0.2112 0.33465 0.18433 0.0
N943 N 0.21106 0.33127 0.1151 0.0
H944 H 0.19434 0.96699 0.05512 0.0
H945 H 0.05174 0.97486 0.02395 0.0
H946 H 0.13954 0.90261 0.02808 0.0
H947 H 0.10451 0.03851 0.05716 0.0
H948 H 0.08341 0.94798 0.02725 0.0
H949 H 0.16193 0.99308 0.05787 0.0
C950 C 0.17549 0.95822 0.05002 0.0
C951 C 0.16978 0.93245 0.04134 0.0
C952 C 0.08812 0.96775 0.03407 0.0
C953 C 0.13239 0.96248 0.0442 0.0
C954 C 0.06993 0.98315 0.03231 0.0
C955 C 0.07534 0.00905 0.04043 0.0
C956 C 0.11218 0.9782 0.04382 0.0
C957 C 0.09943 0.01866 0.05076 0.0
C958 C 0.15695 0.9732 0.05154 0.0
C959 C 0.14493 0.92231 0.03491 0.0
N960 N 0.11695 0.00333 0.05199 0.0
N961 N 0.12728 0.93732 0.03631 0.0
H962 H 0.71325 0.58914 0.977 0.0
H963 H 0.57029 0.59778 0.96705 0.0
H964 H 0.6833 0.6523 0.94745 0.0
H965 H 0.60418 0.54381 0.00897 0.0
H966 H 0.61028 0.61449 0.9536 0.0
H967 H 0.672 0.56846 0.98188 0.0
C968 C 0.698 0.59858 0.97124 0.0
C969 C 0.70186 0.62272 0.96212 0.0
C970 C 0.60887 0.59889 0.9656 0.0
C971 C 0.65441 0.59909 0.96792 0.0
C972 C 0.58608 0.58932 0.97326 0.0
C973 C 0.58393 0.56948 0.98929 0.0
C974 C 0.62956 0.58838 0.97391 0.0
C975 C 0.60498 0.55926 0.99679 0.0
C976 C 0.67441 0.58675 0.97413 0.0
C977 C 0.68126 0.6338 0.95474 0.0
N978 N 0.62688 0.56886 0.98908 0.0
N979 N 0.65841 0.622 0.95805 0.0
H980 H 0.72839 0.47502 0.28688 0.0
H981 H 0.72291 0.3254 0.26471 0.0
H982 H 0.66245 0.42052 0.28583 0.0
H983 H 0.79066 0.37749 0.27695 0.0
H984 H 0.70032 0.3605 0.26739 0.0
H985 H 0.7513 0.44025 0.27903 0.0
C986 C 0.71871 0.45575 0.28491 0.0
C987 C 0.69347 0.45064 0.28711 0.0
C988 C 0.72014 0.3644 0.2691 0.0
C989 C 0.71956 0.41082 0.27804 0.0
C990 C 0.73309 0.34422 0.26694 0.0
C991 C 0.7587 0.34842 0.26952 0.0
C992 C 0.73291 0.38915 0.27416 0.0
C993 C 0.77085 0.37344 0.27445 0.0
C994 C 0.73181 0.43593 0.28046 0.0
C995 C 0.68189 0.42533 0.28438 0.0
N996 N 0.75787 0.3929 0.27658 0.0
N997 N 0.69502 0.40639 0.28 0.0
H998 H 0.8225 0.38343 0.52573 0.0
H999 H 0.89795 0.51095 0.4868 0.0
H1000 H 0.78695 0.44715 0.50812 0.0
H1001 H 0.92953 0.46282 0.53797 0.0
H1002 H 0.85737 0.48569 0.48897 0.0
H1003 H 0.86228 0.41001 0.52479 0.0
C1004 C 0.82304 0.40301 0.52162 0.0
C1005 C 0.8013 0.41306 0.51702 0.0
C1006 C 0.8732 0.48076 0.49976 0.0
C1007 C 0.84692 0.44354 0.5156 0.0
C1008 C 0.89632 0.49507 0.49846 0.0
C1009 C 0.91708 0.48894 0.51223 0.0
C1010 C 0.87096 0.45986 0.51449 0.0
C1011 C 0.91398 0.46822 0.5271 0.0
C1012 C 0.84578 0.41819 0.5212 0.0
C1013 C 0.80322 0.43864 0.51191 0.0
N1014 N 0.89142 0.4543 0.52765 0.0
N1015 N 0.82562 0.45295 0.5111 0.0
H1016 H 0.3912 0.16065 0.256 0.0
H1017 H 0.25269 0.18117 0.26544 0.0
H1018 H 0.33011 0.09946 0.24495 0.0
H1019 H 0.30876 0.24143 0.25043 0.0
H1020 H 0.28149 0.15122 0.26074 0.0
H1021 H 0.36215 0.19099 0.25612 0.0
C1022 C 0.37173 0.15358 0.25336 0.0
C1023 C 0.36317 0.12739 0.25041 0.0
C1024 C 0.28741 0.17097 0.25806 0.0
C1025 C 0.32978 0.16203 0.25105 0.0
C1026 C 0.27096 0.18809 0.26074 0.0
C1027 C 0.27801 0.21388 0.25755 0.0
C1028 C 0.31147 0.1797 0.25276 0.0
C1029 C 0.30209 0.22175 0.25191 0.0
C1030 C 0.35515 0.17091 0.25346 0.0
C1031 C 0.33767 0.11941 0.2472 0.0
N1032 N 0.31799 0.20486 0.24992 0.0
N1033 N 0.32198 0.13657 0.24786 0.0
H1034 H 0.3082 0.07397 0.51042 0.0
H1035 H 0.44781 0.08546 0.56586 0.0
H1036 H 0.35767 0.14447 0.52848 0.0
H1037 H 0.40322 0.01488 0.53621 0.0
H1038 H 0.41162 0.10607 0.5627 0.0
H1039 H 0.33958 0.05139 0.52901 0.0
C1040 C 0.32557 0.08475 0.51856 0.0
C1041 C 0.3305 0.11113 0.51756 0.0
C1042 C 0.40958 0.08597 0.55734 0.0
C1043 C 0.36639 0.08537 0.53894 0.0
C1044 C 0.4302 0.07415 0.55931 0.0
C1045 C 0.42844 0.04854 0.55098 0.0
C1046 C 0.38708 0.07213 0.54665 0.0
C1047 C 0.40527 0.0347 0.54276 0.0
C1048 C 0.34345 0.07182 0.52918 0.0
C1049 C 0.35322 0.12411 0.52856 0.0
N1050 N 0.38547 0.04681 0.54032 0.0
N1051 N 0.37039 0.11107 0.53859 0.0
H1052 H 0.70349 0.5716 0.29024 0.0
H1053 H 0.72309 0.72136 0.32254 0.0
H1054 H 0.65155 0.6088 0.32789 0.0
H1055 H 0.75238 0.68629 0.2593 0.0
H1056 H 0.70278 0.67954 0.33177 0.0
H1057 H 0.72774 0.61298 0.28618 0.0
C1058 C 0.69734 0.58842 0.298 0.0
C1059 C 0.67533 0.58669 0.30932 0.0
C1060 C 0.7138 0.68104 0.316 0.0
C1061 C 0.70312 0.63411 0.30473 0.0
C1062 C 0.72551 0.70485 0.31078 0.0
C1063 C 0.7394 0.70732 0.29006 0.0
C1064 C 0.71636 0.6595 0.30066 0.0
C1065 C 0.74172 0.68528 0.27536 0.0
C1066 C 0.71114 0.61203 0.2955 0.0
C1067 C 0.66828 0.60922 0.31888 0.0
N1068 N 0.73036 0.66229 0.28098 0.0
N1069 N 0.68213 0.632 0.31637 0.0
H1070 H 0.91082 0.47278 0.76954 0.0
H1071 H 0.7806 0.40199 0.79424 0.0
H1072 H 0.85223 0.51575 0.77891 0.0
H1073 H 0.8241 0.3713 0.74047 0.0
H1074 H 0.8082 0.44296 0.79617 0.0
H1075 H 0.88115 0.43364 0.76715 0.0
C1076 C 0.89175 0.47397 0.77131 0.0
C1077 C 0.88394 0.49752 0.77431 0.0
C1078 C 0.81145 0.42722 0.78383 0.0
C1079 C 0.85005 0.4529 0.77191 0.0
C1080 C 0.79575 0.40396 0.78268 0.0
C1081 C 0.80008 0.38332 0.76713 0.0
C1082 C 0.83186 0.42943 0.76989 0.0
C1083 C 0.82004 0.38676 0.75265 0.0
C1084 C 0.87485 0.45167 0.76979 0.0
C1085 C 0.85896 0.49795 0.77638 0.0
N1086 N 0.83538 0.40922 0.75465 0.0
N1087 N 0.84287 0.47593 0.77533 0.0
H1088 H 0.99807 0.80481 0.0955 0.0
H1089 H 0.01872 0.95506 0.09634 0.0
H1090 H 1.00122 0.8532 0.16416 0.0
H1091 H 0.98723 0.90613 0.0302 0.0
H1092 H 0.0177 0.91811 0.12111 0.0
H1093 H 0.99957 0.84187 0.07104 0.0
C1094 C 0.99923 0.82328 0.10548 0.0
C1095 C 0.99951 0.82592 0.13196 0.0
C1096 C 0.01098 0.91545 0.1012 0.0
C1097 C 1.00131 0.86847 0.10392 0.0
C1098 C 0.01164 0.93648 0.08701 0.0
C1099 C 1.00302 0.93358 0.06119 0.0
C1100 C 1.002 0.89125 0.0894 0.0
C1101 C 0.994 0.90914 0.05008 0.0
C1102 C 0.99994 0.8444 0.09144 0.0
C1103 C 1.00093 0.85032 0.1438 0.0
N1104 N 0.99385 0.88885 0.06423 0.0
N1105 N 1.00189 0.8707 0.12969 0.0
H1106 H 0.94575 0.32755 0.86477 0.0
H1107 H 0.83373 0.23519 0.79392 0.0
H1108 H 0.95853 0.25396 0.83696 0.0
H1109 H 0.84918 0.31389 0.77869 0.0
H1110 H 0.87612 0.23875 0.81411 0.0
H1111 H 0.90632 0.32056 0.83869 0.0
C1112 C 0.94026 0.30995 0.85304 0.0
C1113 C 0.95549 0.29142 0.85283 0.0
C1114 C 0.87013 0.25501 0.80593 0.0
C1115 C 0.91 0.28295 0.82346 0.0
C1116 C 0.846 0.25301 0.79436 0.0
C1117 C 0.8376 0.27428 0.78467 0.0
C1118 C 0.88567 0.27855 0.80827 0.0
C1119 C 0.85446 0.29694 0.78602 0.0
C1120 C 0.91779 0.30597 0.83816 0.0
C1121 C 0.9474 0.26884 0.83738 0.0
N1122 N 0.87736 0.29855 0.79795 0.0
N1123 N 0.92499 0.26504 0.82352 0.0
H1124 H 0.50358 0.18418 0.64557 0.0
H1125 H 0.5224 0.11759 0.51381 0.0
H1126 H 0.4809 0.2114 0.57407 0.0
H1127 H 0.513 0.07427 0.57871 0.0
H1128 H 0.50897 0.1532 0.53689 0.0
H1129 H 0.50711 0.14348 0.62303 0.0
C1130 C 0.49856 0.18129 0.62532 0.0
C1131 C 0.49224 0.20119 0.61159 0.0
C1132 C 0.50966 0.13582 0.54602 0.0
C1133 C 0.49699 0.15545 0.58579 0.0
C1134 C 0.51751 0.11566 0.53292 0.0
C1135 C 0.51877 0.09313 0.54442 0.0
C1136 C 0.50358 0.13358 0.57099 0.0
C1137 C 0.51217 0.09143 0.56921 0.0
C1138 C 0.50082 0.15823 0.61243 0.0
C1139 C 0.4862 0.19662 0.58531 0.0
N1140 N 0.50509 0.1115 0.58182 0.0
N1141 N 0.48918 0.17445 0.57323 0.0
H1142 H 0.57236 0.77855 0.3017 0.0
H1143 H 0.71955 0.79685 0.31329 0.0
H1144 H 0.6176 0.81109 0.36963 0.0
H1145 H 0.67284 0.77215 0.24419 0.0
H1146 H 0.68292 0.80099 0.3351 0.0
H1147 H 0.60931 0.77456 0.28111 0.0
C1148 C 0.59006 0.78482 0.31233 0.0
C1149 C 0.5918 0.7952 0.33745 0.0
C1150 C 0.68073 0.7947 0.31516 0.0
C1151 C 0.63444 0.79069 0.31392 0.0
C1152 C 0.70163 0.79235 0.30274 0.0
C1153 C 0.69923 0.78416 0.27691 0.0
C1154 C 0.6573 0.7887 0.30163 0.0
C1155 C 0.67557 0.77856 0.26412 0.0
C1156 C 0.61122 0.78259 0.30054 0.0
C1157 C 0.61534 0.80301 0.35023 0.0
N1158 N 0.65563 0.78087 0.27657 0.0
N1159 N 0.6357 0.80059 0.33836 0.0
H1160 H 1.00438 0.22087 0.51405 0.0
H1161 H 0.03468 0.08423 0.47333 0.0
H1162 H 0.0265 0.19948 0.44095 0.0
H1163 H 0.02428 0.10788 0.55012 0.0
H1164 H 0.02609 0.12473 0.46002 0.0
H1165 H 1.00638 0.17815 0.52637 0.0
C1166 C 0.00952 0.20719 0.50051 0.0
C1167 C 0.01546 0.21387 0.47644 0.0
C1168 C 0.02553 0.1211 0.47977 0.0
C1169 C 0.01773 0.16497 0.49052 0.0
C1170 C 0.03028 0.09791 0.48736 0.0
C1171 C 0.03015 0.09281 0.51286 0.0
C1172 C 0.02073 0.13943 0.49782 0.0
C1173 C 0.02461 0.11124 0.53029 0.0
C1174 C 0.01069 0.18282 0.50762 0.0
C1175 C 0.02194 0.19529 0.45974 0.0
N1176 N 0.02022 0.13391 0.52246 0.0
N1177 N 0.02296 0.17172 0.46714 0.0
H1178 H 0.58908 0.27182 0.10129 0.0
H1179 H 0.68224 0.32991 0.21486 0.0
H1180 H 0.56845 0.33045 0.15029 0.0
H1181 H 0.65735 0.24937 0.20958 0.0
H1182 H 0.64728 0.33463 0.18461 0.0
H1183 H 0.62212 0.26709 0.134 0.0
C1184 C 0.59178 0.28388 0.11879 0.0
C1185 C 0.57629 0.30159 0.12327 0.0
C1186 C 0.64947 0.31601 0.19032 0.0
C1187 C 0.61371 0.29654 0.16008 0.0
C1188 C 0.66923 0.31331 0.20747 0.0
C1189 C 0.67232 0.28926 0.2147 0.0
C1190 C 0.63345 0.29439 0.17972 0.0
C1191 C 0.65525 0.26823 0.20459 0.0
C1192 C 0.61034 0.28102 0.13739 0.0
C1193 C 0.58016 0.31661 0.14629 0.0
N1194 N 0.63667 0.2712 0.18714 0.0
N1195 N 0.59876 0.31399 0.16382 0.0
H1196 H 0.58387 0.85231 0.97529 0.0
H1197 H 0.49719 0.95085 0.99061 0.0
H1198 H 0.53194 0.86273 0.91308 0.0
H1199 H 0.5741 0.97609 0.01352 0.0
H1200 H 0.50726 0.91299 0.96871 0.0
H1201 H 0.57936 0.89375 0.99528 0.0
C1202 C 0.57194 0.86365 0.96564 0.0
C1203 C 0.55837 0.85443 0.94251 0.0
C1204 C 0.52186 0.92678 0.9787 0.0
C1205 C 0.55246 0.90077 0.96555 0.0
C1206 C 0.51616 0.94815 0.99155 0.0
C1207 C 0.53487 0.96646 0.00413 0.0
C1208 C 0.54634 0.9234 0.97895 0.0
C1209 C 0.55918 0.96227 0.00417 0.0
C1210 C 0.56939 0.88711 0.97702 0.0
C1211 C 0.54292 0.86946 0.93078 0.0
N1212 N 0.56428 0.94093 0.99191 0.0
N1213 N 0.53995 0.89177 0.94274 0.0
H1214 H 0.95796 0.75795 0.67303 0.0
H1215 H 0.8629 0.83303 0.73597 0.0
H1216 H 0.92867 0.81894 0.6384 0.0
H1217 H 0.85945 0.75272 0.74052 0.0
H1218 H 0.89648 0.83274 0.70887 0.0
H1219 H 0.92933 0.75944 0.70546 0.0
C1220 C 0.9453 0.77141 0.6721 0.0
C1221 C 0.94538 0.78813 0.65289 0.0
C1222 C 0.88871 0.81532 0.71636 0.0
C1223 C 0.91367 0.79066 0.69031 0.0
C1224 C 0.86994 0.81558 0.73208 0.0
C1225 C 0.85886 0.79291 0.74059 0.0
C1226 C 0.89641 0.79229 0.70955 0.0
C1227 C 0.86791 0.77057 0.73448 0.0
C1228 C 0.92919 0.77237 0.69065 0.0
C1229 C 0.92887 0.80545 0.65267 0.0
N1230 N 0.8862 0.77075 0.71922 0.0
N1231 N 0.91382 0.80646 0.67129 0.0
H1232 H 0.14331 0.98917 0.8829 0.0
H1233 H 0.02142 0.02989 0.92595 0.0
H1234 H 0.08879 0.01218 0.83019 0.0
H1235 H 0.05739 0.97599 0.96548 0.0
H1236 H 0.04723 0.02586 0.89148 0.0
H1237 H 0.11416 0.98738 0.91515 0.0
C1238 C 0.12531 0.99401 0.87819 0.0
C1239 C 0.11848 1.00094 0.8539 0.0
C1240 C 0.04918 0.01453 0.90745 0.0
C1241 C 0.08521 0.9989 0.89048 0.0
C1242 C 0.03434 0.01669 0.92699 0.0
C1243 C 0.03707 0.00295 0.94831 0.0
C1244 C 0.06741 0.99912 0.90961 0.0
C1245 C 0.05442 0.9865 0.94906 0.0
C1246 C 0.10864 0.99273 0.89647 0.0
C1247 C 0.09485 0.00677 0.84868 0.0
N1248 N 0.06928 0.98535 0.93016 0.0
N1249 N 0.07916 0.00581 0.86685 0.0
H1250 H 0.76336 0.38313 0.60627 0.0
H1251 H 0.71202 0.27302 0.69237 0.0
H1252 H 0.69669 0.33042 0.58649 0.0
H1253 H 0.78449 0.31629 0.70767 0.0
H1254 H 0.70386 0.29849 0.65712 0.0
H1255 H 0.76873 0.36433 0.6471 0.0
C1256 C 0.74934 0.36829 0.61097 0.0
C1257 C 0.72919 0.35877 0.59322 0.0
C1258 C 0.72153 0.30265 0.66823 0.0
C1259 C 0.73565 0.33647 0.63949 0.0
C1260 C 0.72624 0.28802 0.6884 0.0
C1261 C 0.74898 0.29252 0.70316 0.0
C1262 C 0.73971 0.32207 0.66241 0.0
C1263 C 0.76658 0.31241 0.69712 0.0
C1264 C 0.75261 0.35727 0.6341 0.0
C1265 C 0.71216 0.33875 0.59985 0.0
N1266 N 0.76164 0.32634 0.67715 0.0
N1267 N 0.7158 0.32827 0.62227 0.0
H1268 H 0.40224 0.07905 0.34813 0.0
H1269 H 0.52096 0.04439 0.42792 0.0
H1270 H 0.4693 0.07144 0.31565 0.0
H1271 H 0.45569 0.05832 0.46095 0.0
H1272 H 0.50258 0.05407 0.38675 0.0
H1273 H 0.42156 0.07125 0.3895 0.0
C1274 C 0.42105 0.0758 0.34968 0.0
C1275 C 0.43412 0.07592 0.3283 0.0
C1276 C 0.49233 0.0551 0.40303 0.0
C1277 C 0.45647 0.06683 0.37581 0.0
C1278 C 0.50284 0.0496 0.42662 0.0
C1279 C 0.48995 0.05052 0.44813 0.0
C1280 C 0.46864 0.0615 0.40076 0.0
C1281 C 0.46645 0.05734 0.44505 0.0
C1282 C 0.43211 0.07134 0.37336 0.0
C1283 C 0.45848 0.07155 0.33156 0.0
N1284 N 0.45659 0.06245 0.42192 0.0
N1285 N 0.46881 0.06713 0.35478 0.0
H1286 H 0.76632 0.72666 0.03362 0.0
H1287 H 0.78163 0.70824 0.18157 0.0
H1288 H 0.78319 0.65752 0.06335 0.0
H1289 H 0.75014 0.76914 0.1493 0.0
H1290 H 0.78632 0.691 0.13883 0.0
H1291 H 0.76481 0.74436 0.0765 0.0
C1292 C 0.76981 0.71518 0.04915 0.0
C1293 C 0.77472 0.69045 0.04481 0.0
C1294 C 0.77837 0.70812 0.14113 0.0
C1295 C 0.77291 0.71072 0.09409 0.0
C1296 C 0.7757 0.71793 0.16544 0.0
C1297 C 0.76539 0.74002 0.16876 0.0
C1298 C 0.77082 0.72066 0.12017 0.0
C1299 C 0.75808 0.75199 0.14743 0.0
C1300 C 0.76886 0.72533 0.07367 0.0
C1301 C 0.77919 0.67661 0.06579 0.0
N1302 N 0.76096 0.74215 0.12398 0.0
N1303 N 0.77811 0.68693 0.08958 0.0
H1304 H 0.16289 0.0207 0.71751 0.0
H1305 H 0.06836 0.97163 0.59562 0.0
H1306 H 0.09347 0.9725 0.719 0.0
H1307 H 0.11953 0.04133 0.59995 0.0
H1308 H 0.08576 0.96323 0.63747 0.0
H1309 H 0.15509 0.01972 0.6711 0.0
C1310 C 0.14637 0.00935 0.70797 0.0
C1311 C 0.12866 0.9968 0.72192 0.0
C1312 C 0.09341 0.98019 0.62911 0.0
C1313 C 0.11975 0.99557 0.66937 0.0
C1314 C 0.08352 0.98499 0.60526 0.0
C1315 C 0.09231 0.00741 0.5946 0.0
C1316 C 0.11226 0.9979 0.64236 0.0
C1317 C 0.1121 0.02397 0.60774 0.0
C1318 C 0.14187 0.00896 0.68162 0.0
C1319 C 0.10745 0.98258 0.70884 0.0
N1320 N 0.1213 0.01902 0.63115 0.0
N1321 N 0.10351 0.98245 0.6833 0.0
H1322 H 0.73532 0.33218 0.4735 0.0
H1323 H 0.71573 0.32705 0.32222 0.0
H1324 H 0.71076 0.39308 0.4344 0.0
H1325 H 0.76704 0.28712 0.36218 0.0
H1326 H 0.70797 0.34713 0.36288 0.0
H1327 H 0.7415 0.31141 0.43278 0.0
C1328 C 0.73115 0.3412 0.45637 0.0
C1329 C 0.72257 0.36454 0.4575 0.0
C1330 C 0.72081 0.33386 0.36273 0.0
C1331 C 0.7293 0.34048 0.41052 0.0
C1332 C 0.72511 0.32219 0.33954 0.0
C1333 C 0.74199 0.3052 0.33869 0.0
C1334 C 0.73313 0.3282 0.38541 0.0
C1335 C 0.75386 0.30004 0.36183 0.0
C1336 C 0.73475 0.32931 0.43309 0.0
C1337 C 0.71749 0.37519 0.43451 0.0
N1338 N 0.74911 0.31134 0.38416 0.0
N1339 N 0.72078 0.36303 0.412 0.0
H1340 H 0.41825 0.0336 0.1802 0.0
H1341 H 0.51966 0.09335 0.09314 0.0
H1342 H 0.46645 0.10447 0.19901 0.0
H1343 H 0.47993 0.01755 0.07738 0.0
H1344 H 0.49602 0.09952 0.12876 0.0
H1345 H 0.43564 0.02952 0.1394 0.0
C1346 C 0.43185 0.04875 0.17531 0.0
C1347 C 0.44047 0.06976 0.19273 0.0
C1348 C 0.49229 0.08152 0.11754 0.0
C1349 C 0.46111 0.06482 0.1465 0.0
C1350 C 0.50587 0.07793 0.09713 0.0
C1351 C 0.50193 0.05481 0.08222 0.0
C1352 C 0.47446 0.06183 0.12344 0.0
C1353 C 0.48357 0.03569 0.08828 0.0
C1354 C 0.44203 0.04624 0.15219 0.0
C1355 C 0.45885 0.0883 0.18589 0.0
N1356 N 0.47061 0.03956 0.10849 0.0
N1357 N 0.46855 0.08537 0.16347 0.0
H1358 H 0.82668 0.66955 0.92395 0.0
H1359 H 0.73648 0.72877 0.8306 0.0
H1360 H 0.75001 0.63931 0.90833 0.0
H1361 H 0.81467 0.74182 0.82666 0.0
H1362 H 0.74155 0.6967 0.86011 0.0
H1363 H 0.82359 0.69523 0.88771 0.0
C1364 C 0.80944 0.66761 0.91214 0.0
C1365 C 0.78866 0.6521 0.9186 0.0
C1366 C 0.7576 0.70655 0.85276 0.0
C1367 C 0.7846 0.68224 0.8783 0.0
C1368 C 0.75478 0.72515 0.83617 0.0
C1369 C 0.77523 0.7382 0.82628 0.0
C1370 C 0.78105 0.70109 0.8598 0.0
C1371 C 0.79843 0.73237 0.83396 0.0
C1372 C 0.80759 0.68245 0.89172 0.0
C1373 C 0.7665 0.65073 0.90347 0.0
N1374 N 0.80073 0.7143 0.85039 0.0
N1375 N 0.76492 0.66601 0.8842 0.0
H1376 H 0.83548 0.09063 0.01386 0.0
H1377 H 0.97708 0.07783 0.00477 0.0
H1378 H 0.89025 0.1541 1.00289 0.0
H1379 H 0.91972 0.01467 0.00846 0.0
H1380 H 0.9464 0.10642 0.00498 0.0
H1381 H 0.86669 0.06311 0.01346 0.0
C1382 C 0.8541 0.09887 0.01149 0.0
C1383 C 0.86011 0.12485 0.00843 0.0
C1384 C 0.9405 0.08629 0.00562 0.0
C1385 C 0.8963 0.09312 0.00781 0.0
C1386 C 0.95804 0.06994 0.00541 0.0
C1387 C 0.951 0.04373 0.00645 0.0
C1388 C 0.91569 0.07643 0.00704 0.0
C1389 C 0.92603 0.03467 0.00748 0.0
C1390 C 0.87198 0.08306 0.01118 0.0
C1391 C 0.88468 0.13424 0.00536 0.0
N1392 N 0.90941 0.0509 0.00782 0.0
N1393 N 0.9018 0.11845 0.00513 0.0
H1394 H 0.32048 0.47158 0.05699 0.0
H1395 H 0.42817 0.53498 0.02059 0.0
H1396 H 0.362 0.41039 0.0658 0.0
H1397 H 0.46528 0.48685 0.06731 0.0
H1398 H 0.38902 0.51292 0.0307 0.0
H1399 H 0.3587 0.50074 0.0561 0.0
C1400 C 0.33761 0.46428 0.05899 0.0
C1401 C 0.33792 0.43835 0.06103 0.0
C1402 C 0.40567 0.50758 0.03935 0.0
C1403 C 0.38177 0.47157 0.05929 0.0
C1404 C 0.42809 0.52003 0.03335 0.0
C1405 C 0.45007 0.51278 0.04313 0.0
C1406 C 0.40512 0.48751 0.05512 0.0
C1407 C 0.4488 0.49319 0.05948 0.0
C1408 C 0.35945 0.48092 0.05814 0.0
C1409 C 0.36078 0.43012 0.06379 0.0
N1410 N 0.42668 0.48097 0.06465 0.0
N1411 N 0.38175 0.44664 0.06267 0.0
H1412 H 0.29681 0.59657 0.72432 0.0
H1413 H 0.30262 0.73725 0.78812 0.0
H1414 H 0.36397 0.64424 0.75566 0.0
H1415 H 0.2389 0.69576 0.7432 0.0
H1416 H 0.32475 0.70199 0.77943 0.0
H1417 H 0.27463 0.63183 0.73285 0.0
C1418 C 0.30693 0.61451 0.7327 0.0
C1419 C 0.33228 0.61744 0.73925 0.0
C1420 C 0.30587 0.70057 0.77158 0.0
C1421 C 0.307 0.65768 0.74956 0.0
C1422 C 0.29321 0.72063 0.77677 0.0
C1423 C 0.26895 0.71948 0.76642 0.0
C1424 C 0.29403 0.6791 0.7561 0.0
C1425 C 0.25764 0.69747 0.75156 0.0
C1426 C 0.29425 0.6346 0.7377 0.0
C1427 C 0.34443 0.6411 0.75024 0.0
N1428 N 0.27025 0.6782 0.74683 0.0
N1429 N 0.33167 0.66021 0.75521 0.0
H1430 H 0.24426 0.62211 0.52557 0.0
H1431 H 0.1004 0.61223 0.48523 0.0
H1432 H 0.2128 0.67893 0.4858 0.0
H1433 H 0.12904 0.5722 0.54593 0.0
H1434 H 0.1421 0.63293 0.48066 0.0
H1435 H 0.20281 0.59942 0.5284 0.0
C1436 C 0.2287 0.62968 0.51719 0.0
C1437 C 0.23209 0.65254 0.50548 0.0
C1438 C 0.13928 0.61963 0.49499 0.0
C1439 C 0.18461 0.62662 0.50864 0.0
C1440 C 0.11549 0.6078 0.4976 0.0
C1441 C 0.11126 0.59059 0.51608 0.0
C1442 C 0.15911 0.61396 0.51074 0.0
C1443 C 0.1315 0.58548 0.53154 0.0
C1444 C 0.20504 0.61681 0.51898 0.0
C1445 C 0.21115 0.66149 0.49513 0.0
N1446 N 0.15456 0.59702 0.52847 0.0
N1447 N 0.18839 0.64852 0.4969 0.0
H1448 H 0.6911 0.95072 0.76707 0.0
H1449 H 0.71484 0.81071 0.79681 0.0
H1450 H 0.63606 0.8979 0.79639 0.0
H1451 H 0.76381 0.86544 0.76216 0.0
H1452 H 0.68515 0.84072 0.79718 0.0
H1453 H 0.71726 0.91846 0.76541 0.0
C1454 C 0.68441 0.93225 0.77312 0.0
C1455 C 0.66124 0.92718 0.78191 0.0
C1456 C 0.70238 0.84603 0.78943 0.0
C1457 C 0.69162 0.88959 0.78024 0.0
C1458 C 0.71928 0.82885 0.78913 0.0
C1459 C 0.74186 0.83544 0.77932 0.0
C1460 C 0.70824 0.86995 0.77997 0.0
C1461 C 0.74676 0.85942 0.77 0.0
C1462 C 0.69946 0.9137 0.77217 0.0
C1463 C 0.65375 0.90269 0.78941 0.0
N1464 N 0.73024 0.87561 0.77058 0.0
N1465 N 0.66892 0.88485 0.78854 0.0
H1466 H 0.73532 1.00216 0.54959 0.0
H1467 H 0.60095 0.98645 0.4755 0.0
H1468 H 0.69915 0.93455 0.50478 0.0
H1469 H 0.62984 0.04829 0.5313 0.0
H1470 H 0.63995 0.97069 0.48093 0.0
H1471 H 0.69933 0.02237 0.539 0.0
C1472 C 0.71984 0.99159 0.53757 0.0
C1473 C 0.72013 0.96659 0.52822 0.0
C1474 C 0.63788 0.98786 0.49181 0.0
C1475 C 0.67924 0.98959 0.51577 0.0
C1476 C 0.61569 0.99695 0.48856 0.0
C1477 C 0.61222 0.01857 0.50309 0.0
C1478 C 0.65667 1.0005 0.50974 0.0
C1479 C 0.63183 0.03146 0.51981 0.0
C1480 C 0.69937 0.00313 0.53148 0.0
C1481 C 0.69966 0.95379 0.5126 0.0
N1482 N 0.6532 0.0221 0.52286 0.0
N1483 N 0.68009 0.96542 0.50688 0.0
H1484 H 0.36926 0.47216 0.78216 0.0
H1485 H 0.27842 0.35397 0.71552 0.0
H1486 H 0.32387 0.48079 0.7141 0.0
H1487 H 0.29546 0.36584 0.79666 0.0
H1488 H 0.29709 0.39816 0.71188 0.0
H1489 H 0.34515 0.43066 0.78518 0.0
C1490 C 0.35414 0.46529 0.76783 0.0
C1491 C 0.34858 0.47993 0.74783 0.0
C1492 C 0.2964 0.39104 0.73043 0.0
C1493 C 0.32101 0.43208 0.751 0.0
C1494 C 0.28583 0.36584 0.73255 0.0
C1495 C 0.28541 0.35603 0.75643 0.0
C1496 C 0.30707 0.40629 0.75229 0.0
C1497 C 0.29529 0.37239 0.77783 0.0
C1498 C 0.34031 0.44163 0.76963 0.0
C1499 C 0.32867 0.47012 0.72988 0.0
N1500 N 0.30595 0.39649 0.7752 0.0
N1501 N 0.31574 0.44658 0.73167 0.0
H1502 H 0.11179 0.58339 0.2637 0.0
H1503 H 0.2377 0.6731 0.30558 0.0
H1504 H 0.17213 0.55474 0.30256 0.0
H1505 H 0.19611 0.67944 0.23447 0.0
H1506 H 0.21127 0.63276 0.30989 0.0
H1507 H 0.13956 0.62249 0.25822 0.0
C1508 C 0.13081 0.58543 0.27129 0.0
C1509 C 0.13967 0.56581 0.28364 0.0
C1510 C 0.20809 0.64291 0.29327 0.0
C1511 C 0.17136 0.61046 0.27759 0.0
C1512 C 0.22312 0.66585 0.29079 0.0
C1513 C 0.21912 0.67943 0.26956 0.0
C1514 C 0.1885 0.63393 0.27474 0.0
C1515 C 0.1999 0.66938 0.251 0.0
C1516 C 0.14664 0.60761 0.26796 0.0
C1517 C 0.16456 0.56937 0.29286 0.0
N1518 N 0.18506 0.64737 0.25418 0.0
N1519 N 0.17951 0.59136 0.28987 0.0
H1520 H 0.52859 0.71845 0.38445 0.0
H1521 H 0.55365 0.65471 0.51483 0.0
H1522 H 0.55188 0.76044 0.45673 0.0
H1523 H 0.51957 0.61279 0.44547 0.0
H1524 H 0.55875 0.69337 0.49233 0.0
H1525 H 0.53173 0.679 0.40475 0.0
C1526 C 0.53489 0.71938 0.40442 0.0
C1527 C 0.53971 0.74264 0.419 0.0
C1528 C 0.55022 0.67569 0.48201 0.0
C1529 C 0.54306 0.69788 0.44235 0.0
C1530 C 0.54726 0.65369 0.49488 0.0
C1531 C 0.53598 0.63068 0.48202 0.0
C1532 C 0.54191 0.67458 0.45609 0.0
C1533 C 0.52819 0.63026 0.45612 0.0
C1534 C 0.53645 0.69691 0.41606 0.0
C1535 C 0.54766 0.74283 0.44486 0.0
N1536 N 0.53122 0.65189 0.44401 0.0
N1537 N 0.54889 0.72083 0.45572 0.0
H1538 H 0.59079 0.31766 0.66751 0.0
H1539 H 0.67222 0.2514 0.76535 0.0
H1540 H 0.55921 0.25656 0.70915 0.0
H1541 H 0.69629 0.32447 0.73858 0.0
H1542 H 0.63076 0.25263 0.74579 0.0
H1543 H 0.62945 0.32021 0.69387 0.0
C1544 C 0.59193 0.30486 0.68237 0.0
C1545 C 0.57169 0.28677 0.68601 0.0
C1546 C 0.64507 0.26853 0.74453 0.0
C1547 C 0.6163 0.2894 0.71625 0.0
C1548 C 0.66878 0.26786 0.7557 0.0
C1549 C 0.68791 0.28786 0.75364 0.0
C1550 C 0.64048 0.28916 0.73086 0.0
C1551 C 0.68224 0.30863 0.7408 0.0
C1552 C 0.61406 0.30638 0.69749 0.0
C1553 C 0.5743 0.27084 0.70571 0.0
N1554 N 0.65919 0.30859 0.72971 0.0
N1555 N 0.5963 0.27228 0.71988 0.0
H1556 H 0.05093 0.3539 0.93824 0.0
H1557 H 0.97412 0.46591 0.95006 0.0
H1558 H 0.01026 0.37604 0.87274 0.0
H1559 H 0.03585 0.45929 1.00305 0.0
H1560 H 0.98534 0.43252 0.92168 0.0
H1561 H 0.04431 0.39188 0.96248 0.0
C1562 C 0.04074 0.36698 0.9289 0.0
C1563 C 0.03109 0.36188 0.90348 0.0
C1564 C 0.99655 0.43859 0.93938 0.0
C1565 C 0.023 0.4053 0.93135 0.0
C1566 C 0.99009 0.45747 0.95564 0.0
C1567 C 1.00409 0.46526 0.9789 0.0
C1568 C 0.01689 0.42714 0.94674 0.0
C1569 C 0.02464 0.45389 0.98522 0.0
C1570 C 0.03702 0.3887 0.94275 0.0
C1571 C 0.0181 0.37944 0.89228 0.0
N1572 N 0.03029 0.43524 0.96935 0.0
N1573 N 0.01408 0.40028 0.90643 0.0
H1574 H 0.91166 0.75818 0.16151 0.0
H1575 H 0.84749 0.7497 0.29063 0.0
H1576 H 0.95043 0.74826 0.23327 0.0
H1577 H 0.81494 0.77525 0.22226 0.0
H1578 H 0.88337 0.74319 0.26879 0.0
H1579 H 0.87421 0.75826 0.18224 0.0
C1580 C 0.91227 0.75572 0.1816 0.0
C1581 C 0.93434 0.7533 0.19565 0.0
C1582 C 0.86829 0.75004 0.25851 0.0
C1583 C 0.89131 0.75353 0.21964 0.0
C1584 C 0.84778 0.75368 0.27095 0.0
C1585 C 0.82819 0.76304 0.25825 0.0
C1586 C 0.86918 0.75563 0.23312 0.0
C1587 C 0.82957 0.76793 0.23276 0.0
C1588 C 0.89085 0.75589 0.19346 0.0
C1589 C 0.93389 0.75022 0.22166 0.0
N1590 N 0.84969 0.76422 0.22109 0.0
N1591 N 0.91278 0.75053 0.23282 0.0
H1592 H 0.52331 0.38993 0.10932 0.0
H1593 H 0.48483 0.45377 0.98853 0.0
H1594 H 0.50737 0.34676 0.03668 0.0
H1595 H 0.54899 0.49092 0.03611 0.0
H1596 H 0.48722 0.41511 0.01007 0.0
H1597 H 0.52803 0.42913 0.08711 0.0
C1598 C 0.52106 0.38871 0.08882 0.0
C1599 C 0.51477 0.36519 0.07479 0.0
C1600 C 0.50076 0.43179 0.01573 0.0
C1601 C 0.51959 0.40931 0.04973 0.0
C1602 C 0.49942 0.45374 0.0035 0.0
C1603 C 0.51647 0.47554 0.011 0.0
C1604 C 0.51894 0.43194 0.03585 0.0
C1605 C 0.53514 0.47458 0.03036 0.0
C1606 C 0.52382 0.41093 0.07625 0.0
C1607 C 0.51211 0.36451 0.04825 0.0
N1608 N 0.53569 0.45316 0.04255 0.0
N1609 N 0.51411 0.38628 0.03659 0.0
H1610 H 0.96256 0.25218 0.39132 0.0
H1611 H 0.86827 0.32397 0.31713 0.0
H1612 H 0.94702 0.32354 0.42256 0.0
H1613 H 0.85241 0.24326 0.3221 0.0
H1614 H 0.90397 0.32599 0.34849 0.0
H1615 H 0.92817 0.25036 0.35861 0.0
C1616 C 0.95191 0.26749 0.39122 0.0
C1617 C 0.95748 0.28802 0.40964 0.0
C1618 C 0.89273 0.30787 0.3425 0.0
C1619 C 0.91874 0.28628 0.37211 0.0
C1620 C 0.8726 0.30664 0.3245 0.0
C1621 C 0.85755 0.28339 0.31713 0.0
C1622 C 0.89806 0.28559 0.35256 0.0
C1623 C 0.86367 0.26151 0.32739 0.0
C1624 C 0.93234 0.26638 0.37265 0.0
C1625 C 0.94312 0.30732 0.40877 0.0
N1626 N 0.88361 0.2631 0.34454 0.0
N1627 N 0.92447 0.30613 0.39007 0.0
H1628 H 1.00564 0.74945 0.52161 0.0
H1629 H 0.96208 0.60305 0.53583 0.0
H1630 H 0.97379 0.72245 0.58793 0.0
H1631 H 0.02277 0.63176 0.49503 0.0
H1632 H 0.95598 0.6466 0.5466 0.0
H1633 H 1.0011 0.70603 0.50346 0.0
C1634 C 0.99737 0.73447 0.53229 0.0
C1635 C 0.99052 0.73967 0.55666 0.0
C1636 C 0.97033 0.64325 0.53495 0.0
C1637 C 0.98518 0.68984 0.53565 0.0
C1638 C 0.97374 0.61848 0.52862 0.0
C1639 C 0.99307 0.6139 0.51463 0.0
C1640 C 0.98607 0.66342 0.52678 0.0
C1641 C 1.00778 0.63454 0.506 0.0
C1642 C 0.99485 0.70967 0.52184 0.0
C1643 C 0.97962 0.71934 0.56928 0.0
N1644 N 1.00402 0.65846 0.51228 0.0
N1645 N 0.97747 0.69521 0.5587 0.0
H1646 H 0.61359 0.75393 0.90115 0.0
H1647 H 0.65036 0.77999 0.76748 0.0
H1648 H 0.55772 0.76568 0.84328 0.0
H1649 H 0.67573 0.71839 0.80482 0.0
H1650 H 0.61816 0.77957 0.79635 0.0
H1651 H 0.63982 0.74525 0.86785 0.0
C1652 C 0.6068 0.7544 0.88147 0.0
C1653 C 0.58353 0.76043 0.87488 0.0
C1654 C 0.63055 0.76587 0.79779 0.0
C1655 C 0.61339 0.75132 0.83712 0.0
C1656 C 0.64878 0.76605 0.78135 0.0
C1657 C 0.66558 0.74918 0.78382 0.0
C1658 C 0.62979 0.74925 0.81716 0.0
C1659 C 0.66303 0.73165 0.80227 0.0
C1660 C 0.62165 0.7494 0.86256 0.0
C1661 C 0.57552 0.76092 0.84911 0.0
N1662 N 0.64579 0.7325 0.81865 0.0
N1663 N 0.59062 0.75689 0.83113 0.0
H1664 H 0.38126 0.54058 0.6549 0.0
H1665 H 0.49841 0.60086 0.58932 0.0
H1666 H 0.43532 0.60066 0.69282 0.0
H1667 H 0.46451 0.52244 0.57946 0.0
H1668 H 0.4679 0.60907 0.61861 0.0
H1669 H 0.40334 0.54323 0.61696 0.0
C1670 C 0.39713 0.55509 0.65479 0.0
C1671 C 0.40658 0.57043 0.67682 0.0
C1672 C 0.46718 0.59016 0.60977 0.0
C1673 C 0.43208 0.5732 0.63408 0.0
C1674 C 0.4846 0.58547 0.5933 0.0
C1675 C 0.4844 0.56082 0.58266 0.0
C1676 C 0.44909 0.57021 0.61472 0.0
C1677 C 0.46582 0.54158 0.58791 0.0
C1678 C 0.40989 0.55639 0.63334 0.0
C1679 C 0.42754 0.58856 0.67604 0.0
N1680 N 0.44895 0.54668 0.60351 0.0
N1681 N 0.43984 0.58925 0.65509 0.0
H1682 H 0.81947 0.23543 0.95944 0.0
H1683 H 0.74029 0.24273 0.82903 0.0
H1684 H 0.78055 0.16673 0.91884 0.0
H1685 H 0.8092 0.29141 0.85095 0.0
H1686 H 0.74926 0.21658 0.86417 0.0
H1687 H 0.81021 0.25869 0.92265 0.0
C1688 C 0.80894 0.22521 0.94276 0.0
C1689 C 0.80092 0.19903 0.94221 0.0
C1690 C 0.76246 0.23287 0.86105 0.0
C1691 C 0.78977 0.22581 0.90002 0.0
C1692 C 0.75748 0.24762 0.84085 0.0
C1693 C 0.77433 0.26886 0.83651 0.0
C1694 C 0.78406 0.23998 0.87754 0.0
C1695 C 0.79571 0.27514 0.8534 0.0
C1696 C 0.80371 0.23852 0.92174 0.0
C1697 C 0.78729 0.18686 0.92 0.0
N1698 N 0.79986 0.26093 0.87315 0.0
N1699 N 0.78193 0.20038 0.89986 0.0
H1700 H 0.04372 0.45986 0.21647 0.0
H1701 H 0.07588 0.50024 0.0798 0.0
H1702 H 0.11728 0.48797 0.20066 0.0
H1703 H 1.00313 0.49049 0.10384 0.0
H1704 H 0.09162 0.48804 0.12089 0.0
H1705 H 0.02937 0.46184 0.17208 0.0
C1706 C 0.05699 0.46589 0.20348 0.0
C1707 C 0.08174 0.47396 0.21236 0.0
C1708 C 0.0722 0.48839 0.11709 0.0
C1709 C 0.06523 0.47681 0.16138 0.0
C1710 C 0.06312 0.49532 0.09359 0.0
C1711 C 0.03806 0.49653 0.08829 0.0
C1712 C 0.05613 0.48236 0.13544 0.0
C1713 C 0.02256 0.48999 0.10704 0.0
C1714 C 0.04871 0.46722 0.17815 0.0
C1715 C 0.09808 0.48147 0.19462 0.0
N1716 N 0.03184 0.48324 0.12972 0.0
N1717 N 0.08948 0.48308 0.17 0.0
H1718 H 0.79782 0.93423 0.45822 0.0
H1719 H 0.76633 0.79919 0.38618 0.0
H1720 H 0.78856 0.86589 0.49741 0.0
H1721 H 0.81072 0.85993 0.35418 0.0
H1722 H 0.77208 0.8245 0.42684 0.0
H1723 H 0.80148 0.90864 0.41917 0.0
C1724 C 0.79695 0.91395 0.45868 0.0
C1725 C 0.79253 0.90207 0.48088 0.0
C1726 C 0.78078 0.83217 0.41098 0.0
C1727 C 0.79627 0.87295 0.43665 0.0
C1728 C 0.77739 0.81781 0.38784 0.0
C1729 C 0.78804 0.82763 0.36702 0.0
C1730 C 0.79446 0.85665 0.41302 0.0
C1731 C 0.80226 0.8518 0.36996 0.0
C1732 C 0.79905 0.89941 0.43649 0.0
C1733 C 0.79165 0.87578 0.4806 0.0
N1734 N 0.80482 0.86573 0.39255 0.0
N1735 N 0.79309 0.86203 0.4587 0.0
H1736 H 0.43075 0.55092 0.78967 0.0
H1737 H 0.4358 0.56878 0.94043 0.0
H1738 H 0.3686 0.56482 0.82844 0.0
H1739 H 0.4946 0.54791 0.90017 0.0
H1740 H 0.41128 0.56945 0.89986 0.0
H1741 H 0.45451 0.5508 0.83028 0.0
C1742 C 0.42204 0.5538 0.80679 0.0
C1743 C 0.39768 0.55792 0.80574 0.0
C1744 C 0.42957 0.56482 0.89992 0.0
C1745 C 0.42493 0.55806 0.85242 0.0
C1746 C 0.44359 0.56458 0.923 0.0
C1747 C 0.46717 0.55827 0.92348 0.0
C1748 C 0.43932 0.55874 0.87729 0.0
C1749 C 0.47646 0.55287 0.90053 0.0
C1750 C 0.43566 0.55379 0.83 0.0
C1751 C 0.38734 0.56152 0.82849 0.0
N1752 N 0.46247 0.55318 0.87834 0.0
N1753 N 0.40109 0.56163 0.85101 0.0
H1754 H 0.84056 0.23683 0.08076 0.0
H1755 H 0.74833 0.23525 0.18416 0.0
H1756 H 0.78308 0.17355 0.0831 0.0
H1757 H 0.8237 0.26964 0.20335 0.0
H1758 H 0.75964 0.2152 0.1452 0.0
H1759 H 0.83484 0.25115 0.12434 0.0
C1760 C 0.82735 0.22545 0.09083 0.0
C1761 C 0.81266 0.20363 0.07853 0.0
C1762 C 0.77372 0.22707 0.15797 0.0
C1763 C 0.80501 0.22074 0.12778 0.0
C1764 C 0.76725 0.23877 0.18008 0.0
C1765 C 0.78505 0.25441 0.19695 0.0
C1766 C 0.79811 0.23146 0.15222 0.0
C1767 C 0.80936 0.25784 0.19084 0.0
C1768 C 0.82393 0.23377 0.11558 0.0
C1769 C 0.7952 0.19009 0.09211 0.0
N1770 N 0.81513 0.24678 0.16881 0.0
N1771 N 0.79151 0.19913 0.11578 0.0
H1772 H 0.12601 0.5008 0.37431 0.0
H1773 H 0.99854 0.53224 0.41893 0.0
H1774 H 0.05943 0.4966 0.32463 0.0
H1775 H 0.062 0.53008 0.47129 0.0
H1776 H 0.02204 0.52252 0.38381 0.0
H1777 H 0.10429 0.51424 0.40992 0.0
C1778 C 0.1069 0.50273 0.37086 0.0
C1779 C 0.09457 0.4975 0.3464 0.0
C1780 C 0.03092 0.52429 0.40297 0.0
C1781 C 0.06963 0.51299 0.38695 0.0
C1782 C 0.01749 0.52995 0.42302 0.0
C1783 C 0.02825 0.53188 0.44809 0.0
C1784 C 0.05537 0.52051 0.40793 0.0
C1785 C 0.05293 0.52869 0.45225 0.0
C1786 C 0.0945 0.51041 0.39118 0.0
C1787 C 0.06978 0.50037 0.34309 0.0
N1788 N 0.0656 0.52306 0.43243 0.0
N1789 N 0.05822 0.50788 0.36302 0.0
H1790 H 0.72753 0.8573 0.57788 0.0
H1791 H 0.77481 0.84692 0.71686 0.0
H1792 H 0.76777 0.92118 0.62512 0.0
H1793 H 0.71302 0.79452 0.6802 0.0
H1794 H 0.76861 0.87636 0.68496 0.0
H1795 H 0.71645 0.83664 0.61571 0.0
C1796 C 0.73326 0.86733 0.59631 0.0
C1797 C 0.74882 0.89075 0.59857 0.0
C1798 C 0.75613 0.85861 0.68396 0.0
C1799 C 0.73704 0.86694 0.64178 0.0
C1800 C 0.75988 0.84163 0.70198 0.0
C1801 C 0.74481 0.818 0.70064 0.0
C1802 C 0.73755 0.8517 0.66398 0.0
C1803 C 0.72528 0.81241 0.68152 0.0
C1804 C 0.72701 0.85552 0.61789 0.0
C1805 C 0.75581 0.90306 0.6227 0.0
N1806 N 0.72253 0.82895 0.66349 0.0
N1807 N 0.75043 0.89067 0.64348 0.0
H1808 H 0.6409 0.40732 0.52917 0.0
H1809 H 0.61447 0.55026 0.5295 0.0
H1810 H 0.69772 0.47265 0.53941 0.0
H1811 H 0.55869 0.48822 0.54107 0.0
H1812 H 0.64466 0.5215 0.53075 0.0
H1813 H 0.61009 0.43565 0.53145 0.0
C1814 C 0.64695 0.42756 0.53205 0.0
C1815 C 0.67208 0.43749 0.53415 0.0
C1816 C 0.62586 0.51412 0.5333 0.0
C1817 C 0.63674 0.47018 0.5364 0.0
C1818 C 0.60855 0.53059 0.5326 0.0
C1819 C 0.5839 0.52185 0.53564 0.0
C1820 C 0.6186 0.48834 0.53659 0.0
C1821 C 0.57743 0.49603 0.5393 0.0
C1822 C 0.62932 0.44375 0.53336 0.0
C1823 C 0.67867 0.46399 0.53778 0.0
N1824 N 0.59455 0.48019 0.53947 0.0
N1825 N 0.66122 0.47928 0.53858 0.0
H1826 H 0.23052 0.08539 0.45312 0.0
H1827 H 0.12584 0.02653 0.49639 0.0
H1828 H 0.18612 0.14245 0.43505 0.0
H1829 H 0.08575 0.06408 0.44108 0.0
H1830 H 0.16398 0.04615 0.48173 0.0
H1831 H 0.19336 0.05488 0.45423 0.0
C1832 C 0.21297 0.09145 0.44902 0.0
C1833 C 0.21149 0.11677 0.44468 0.0
C1834 C 0.14687 0.0495 0.47218 0.0
C1835 C 0.16886 0.08204 0.44673 0.0
C1836 C 0.12505 0.03847 0.48077 0.0
C1837 C 0.10258 0.04376 0.47005 0.0
C1838 C 0.14626 0.06622 0.45291 0.0
C1839 C 0.10266 0.05942 0.44986 0.0
C1840 C 0.19174 0.07405 0.44995 0.0
C1841 C 0.18819 0.12328 0.4389 0.0
N1842 N 0.1242 0.07053 0.44231 0.0
N1843 N 0.16776 0.10611 0.4405 0.0
H1844 H 0.16627 0.92132 0.78229 0.0
H1845 H 0.29897 0.88135 0.79354 0.0
H1846 H 0.23212 0.97638 0.79818 0.0
H1847 H 0.23479 0.83377 0.7561 0.0
H1848 H 0.27519 0.91611 0.79775 0.0
H1849 H 0.19126 0.88836 0.77522 0.0
C1850 C 0.18601 0.92648 0.78432 0.0
C1851 C 0.19712 0.95164 0.79086 0.0
C1852 C 0.26639 0.89811 0.78825 0.0
C1853 C 0.22591 0.91391 0.78286 0.0
C1854 C 0.27994 0.87829 0.78582 0.0
C1855 C 0.26886 0.85464 0.77398 0.0
C1856 C 0.24145 0.89405 0.77919 0.0
C1857 C 0.24417 0.85169 0.76458 0.0
C1858 C 0.20027 0.90766 0.78016 0.0
C1859 C 0.2228 0.95722 0.79313 0.0
N1860 N 0.23122 0.871 0.76757 0.0
N1861 N 0.23635 0.93847 0.78929 0.0
H1862 H 0.31954 0.88211 0.01987 0.0
H1863 H 0.39724 0.01407 0.99758 0.0
H1864 H 0.28478 0.94828 0.01272 0.0
H1865 H 0.427 0.9591 0.04156 0.0
H1866 H 0.35605 0.98941 0.99776 0.0
H1867 H 0.35948 0.90892 0.02211 0.0
C1868 C 0.32029 0.90229 0.01865 0.0
C1869 C 0.29873 0.91295 0.01606 0.0
C1870 C 0.37162 0.98292 0.00751 0.0
C1871 C 0.34456 0.94376 0.01845 0.0
C1872 C 0.39506 0.9969 0.00738 0.0
C1873 C 0.41549 0.98855 0.01957 0.0
C1874 C 0.36876 0.96017 0.01942 0.0
C1875 C 0.41172 0.96621 0.03198 0.0
C1876 C 0.34312 0.91759 0.02011 0.0
C1877 C 0.30092 0.93929 0.01481 0.0
N1878 N 0.38887 0.95265 0.03133 0.0
N1879 N 0.32345 0.95381 0.01577 0.0
H1880 H 0.83531 0.60083 0.72665 0.0
H1881 H 0.81237 0.74219 0.76143 0.0
H1882 H 0.89219 0.66034 0.76091 0.0
H1883 H 0.75703 0.68408 0.72257 0.0
H1884 H 0.84209 0.71333 0.75987 0.0
H1885 H 0.80714 0.63149 0.72309 0.0
C1886 C 0.84201 0.62043 0.73318 0.0
C1887 C 0.86627 0.62792 0.74412 0.0
C1888 C 0.82359 0.707 0.75117 0.0
C1889 C 0.83372 0.66334 0.74039 0.0
C1890 C 0.80657 0.72375 0.7517 0.0
C1891 C 0.78223 0.71609 0.74121 0.0
C1892 C 0.81631 0.68213 0.7402 0.0
C1893 C 0.77567 0.69103 0.73052 0.0
C1894 C 0.82581 0.63796 0.7312 0.0
C1895 C 0.87374 0.65365 0.75226 0.0
N1896 N 0.79253 0.67503 0.73024 0.0
N1897 N 0.85752 0.67034 0.75041 0.0
H1898 H 0.79908 0.56575 0.01997 0.0
H1899 H 0.89958 0.50339 0.03254 0.0
H1900 H 0.8554 0.63119 0.02237 0.0
H1901 H 0.93908 0.57393 0.06891 0.0
H1902 H 0.8622 0.52217 0.02925 0.0
H1903 H 0.82959 0.54179 0.03827 0.0
C1904 C 0.81783 0.5751 0.0245 0.0
C1905 C 0.82488 0.60032 0.01918 0.0
C1906 C 0.87877 0.5333 0.03883 0.0
C1907 C 0.8598 0.57305 0.03975 0.0
C1908 C 0.90015 0.52256 0.04064 0.0
C1909 C 0.9224 0.53726 0.05074 0.0
C1910 C 0.87986 0.55896 0.047 0.0
C1911 C 0.92227 0.56203 0.06082 0.0
C1912 C 0.83525 0.56137 0.03477 0.0
C1913 C 0.84929 0.61164 0.02572 0.0
N1914 N 0.90143 0.5723 0.05815 0.0
N1915 N 0.86589 0.59788 0.03553 0.0
H1916 H 0.20179 0.07747 0.8235 0.0
H1917 H 0.21336 0.19851 0.74637 0.0
H1918 H 0.13903 0.10042 0.78293 0.0
H1919 H 0.2535 0.20307 0.82032 0.0
H1920 H 0.1908 0.15748 0.75461 0.0
H1921 H 0.22565 0.1193 0.81863 0.0
C1922 C 0.19298 0.09133 0.81381 0.0
C1923 C 0.16834 0.08546 0.80371 0.0
C1924 C 0.20463 0.16745 0.76897 0.0
C1925 C 0.19562 0.1327 0.79746 0.0
C1926 C 0.21765 0.19074 0.76423 0.0
C1927 C 0.23534 0.20421 0.7827 0.0
C1928 C 0.2097 0.15719 0.7921 0.0
C1929 C 0.23993 0.19331 0.80563 0.0
C1930 C 0.20658 0.11511 0.81108 0.0
C1931 C 0.15788 0.10412 0.79123 0.0
N1932 N 0.2273 0.17027 0.80964 0.0
N1933 N 0.17165 0.1267 0.78814 0.0
H1934 H 0.41484 0.97273 0.26625 0.0
H1935 H 0.28732 0.90275 0.30246 0.0
H1936 H 0.35539 0.01387 0.27804 0.0
H1937 H 0.33146 0.86704 0.25293 0.0
H1938 H 0.31451 0.9434 0.30063 0.0
H1939 H 0.38699 0.933 0.2686 0.0
C1940 C 0.39597 0.97341 0.26942 0.0
C1941 C 0.38738 0.99662 0.27179 0.0
C1942 C 0.3181 0.92661 0.29015 0.0
C1943 C 0.35559 0.95133 0.27488 0.0
C1944 C 0.30267 0.90351 0.29122 0.0
C1945 C 0.30715 0.88163 0.27775 0.0
C1946 C 0.33837 0.92753 0.27603 0.0
C1947 C 0.3273 0.88352 0.26348 0.0
C1948 C 0.38009 0.95076 0.27066 0.0
C1949 C 0.3627 0.99636 0.27586 0.0
N1950 N 0.34228 0.90599 0.26318 0.0
N1951 N 0.34768 0.97407 0.27746 0.0
H1952 H 0.5001 0.31239 0.59575 0.0
H1953 H 0.52272 0.46288 0.60457 0.0
H1954 H 0.50001 0.35675 0.66643 0.0
H1955 H 0.49789 0.41624 0.53517 0.0
H1956 H 0.51922 0.42482 0.62795 0.0
H1957 H 0.50436 0.35084 0.57389 0.0
C1958 C 0.50107 0.33029 0.60677 0.0
C1959 C 0.49966 0.33135 0.63303 0.0
C1960 C 0.51451 0.42294 0.60763 0.0
C1961 C 0.50455 0.37567 0.60783 0.0
C1962 C 0.5166 0.44457 0.59426 0.0
C1963 C 0.5106 0.44257 0.56791 0.0
C1964 C 0.50668 0.39916 0.59448 0.0
C1965 C 0.50269 0.41853 0.55547 0.0
C1966 C 0.5034 0.35226 0.59416 0.0
C1967 C 0.501 0.35512 0.64618 0.0
N1968 N 0.50106 0.39772 0.56886 0.0
N1969 N 0.50345 0.37646 0.6334 0.0
H1970 H 0.43484 0.76895 0.3786 0.0
H1971 H 0.35089 0.80646 0.26561 0.0
H1972 H 0.46737 0.80565 0.31731 0.0
H1973 H 0.32966 0.73882 0.30313 0.0
H1974 H 0.39319 0.8083 0.28448 0.0
H1975 H 0.39554 0.75971 0.35235 0.0
C1976 C 0.43373 0.77495 0.35953 0.0
C1977 C 0.45441 0.78816 0.35015 0.0
C1978 C 0.37937 0.79276 0.28812 0.0
C1979 C 0.40926 0.77798 0.3201 0.0
C1980 C 0.35525 0.79166 0.27733 0.0
C1981 C 0.33672 0.77237 0.28267 0.0
C1982 C 0.38489 0.7749 0.30502 0.0
C1983 C 0.34337 0.75385 0.29824 0.0
C1984 C 0.41131 0.76953 0.34451 0.0
C1985 C 0.4519 0.79535 0.32523 0.0
N1986 N 0.36678 0.75586 0.30926 0.0
N1987 N 0.42962 0.79057 0.3112 0.0
H1988 H 0.97049 0.69509 0.09554 0.0
H1989 H 0.05246 0.58644 0.0861 0.0
H1990 H 0.02675 0.68626 0.15394 0.0
H1991 H 0.98851 0.58864 0.03447 0.0
H1992 H 0.04143 0.62083 0.11311 0.0
H1993 H 0.97367 0.65349 0.07557 0.0
C1994 C 0.98287 0.68387 0.10465 0.0
C1995 C 0.99808 0.69379 0.1266 0.0
C1996 C 0.02963 0.61362 0.09604 0.0
C1997 C 1.00283 0.6468 0.10321 0.0
C1998 C 0.03601 0.5941 0.08055 0.0
C1999 C 0.02138 0.58476 0.05804 0.0
C2000 C 0.00862 0.6241 0.08878 0.0
C2001 C 1.00022 0.59523 0.05176 0.0
C2002 C 0.98492 0.66026 0.0931 0.0
C2003 C 0.01438 0.67896 0.13728 0.0
N2004 N 0.99458 0.61447 0.06692 0.0
N2005 N 0.01663 0.65635 0.12526 0.0
H2006 H 0.07251 0.27576 0.80489 0.0
H2007 H 0.2196 0.29253 0.81585 0.0
H2008 H 0.1178 0.30426 0.87404 0.0
H2009 H 0.17263 0.27511 0.74586 0.0
H2010 H 0.18311 0.29499 0.83849 0.0
H2011 H 0.10943 0.27303 0.78386 0.0
C2012 C 0.09022 0.28138 0.8157 0.0
C2013 C 0.09198 0.2903 0.84128 0.0
C2014 C 0.18085 0.29066 0.81816 0.0
C2015 C 0.1346 0.28724 0.81723 0.0
C2016 C 0.20167 0.28926 0.80528 0.0
C2017 C 0.19915 0.28363 0.77895 0.0
C2018 C 0.15741 0.28621 0.80458 0.0
C2019 C 0.17547 0.27955 0.76616 0.0
C2020 C 0.11136 0.27988 0.80365 0.0
C2021 C 0.11553 0.29731 0.85427 0.0
N2022 N 0.15563 0.28085 0.77904 0.0
N2023 N 0.13588 0.29563 0.84214 0.0
H2024 H 0.54373 0.74401 0.01164 0.0
H2025 H 0.50146 0.59511 0.98919 0.0
H2026 H 0.52359 0.70608 0.93686 0.0
H2027 H 0.54295 0.63161 0.05744 0.0
H2028 H 0.5051 0.63578 0.97044 0.0
H2029 H 0.53981 0.70315 0.02942 0.0
C2030 C 0.53852 0.72705 0.9989 0.0
C2031 C 0.53389 0.72846 0.97269 0.0
C2032 C 0.51332 0.6349 0.98955 0.0
C2033 C 0.52924 0.68152 0.99308 0.0
C2034 C 0.51097 0.61173 1.00031 0.0
C2035 C 0.52168 0.61004 0.02486 0.0
C2036 C 0.52627 0.65657 0.00369 0.0
C2037 C 0.53435 0.63213 0.03842 0.0
C2038 C 0.53635 0.70371 0.00911 0.0
C2039 C 0.52738 0.70582 0.95716 0.0
N2040 N 0.53623 0.65453 0.02769 0.0
N2041 N 0.52506 0.6832 0.96763 0.0
H2042 H 0.05624 0.79011 0.66221 0.0
H2043 H 0.20229 0.81548 0.68499 0.0
H2044 H 0.10249 0.82395 0.6084 0.0
H2045 H 0.15572 0.78087 0.73793 0.0
H2046 H 0.16598 0.82011 0.65727 0.0
H2047 H 0.09249 0.78764 0.69054 0.0
C2048 C 0.07402 0.79701 0.65628 0.0
C2049 C 0.07628 0.80721 0.63278 0.0
C2050 C 0.16367 0.81157 0.67496 0.0
C2051 C 0.11799 0.80445 0.66535 0.0
C2052 C 0.18436 0.80896 0.69079 0.0
C2053 C 0.18186 0.79771 0.71366 0.0
C2054 C 0.14035 0.80282 0.6821 0.0
C2055 C 0.15834 0.78961 0.72039 0.0
C2056 C 0.09474 0.79561 0.67255 0.0
C2057 C 0.09985 0.81588 0.62627 0.0
N2058 N 0.13843 0.79225 0.7046 0.0
N2059 N 0.11981 0.81428 0.64249 0.0
H2060 H 0.01968 0.33257 0.49584 0.0
H2061 H 0.06535 0.48057 0.49519 0.0
H2062 H 0.05646 0.36543 0.4349 0.0
H2063 H 1.00244 0.44985 0.53191 0.0
H2064 H 0.06987 0.43762 0.4803 0.0
H2065 H 0.02022 0.37495 0.51574 0.0
C2066 C 0.0279 0.34872 0.48664 0.0
C2067 C 0.03787 0.34555 0.46356 0.0
C2068 C 0.05531 0.44033 0.4919 0.0
C2069 C 0.03892 0.39396 0.48653 0.0
C2070 C 0.05286 0.46477 0.50067 0.0
C2071 C 0.03341 0.46873 0.51474 0.0
C2072 C 0.03843 0.41978 0.49759 0.0
C2073 C 0.01761 0.44758 0.52101 0.0
C2074 C 0.0282 0.37286 0.49805 0.0
C2075 C 0.04839 0.36712 0.45257 0.0
N2076 N 0.02041 0.42395 0.5123 0.0
N2077 N 0.04872 0.39051 0.46423 0.0
H2078 H 0.42894 0.32647 0.12016 0.0
H2079 H 0.33879 0.24879 0.20115 0.0
H2080 H 0.45194 0.26321 0.15647 0.0
H2081 H 0.3565 0.32969 0.21752 0.0
H2082 H 0.37354 0.25029 0.17547 0.0
H2083 H 0.39461 0.32457 0.14645 0.0
C2084 C 0.42653 0.312 0.13342 0.0
C2085 C 0.44312 0.29494 0.13627 0.0
C2086 C 0.36974 0.26763 0.18476 0.0
C2087 C 0.40412 0.29252 0.16575 0.0
C2088 C 0.35003 0.26683 0.19928 0.0
C2089 C 0.34504 0.28916 0.21139 0.0
C2090 C 0.38385 0.29102 0.18174 0.0
C2091 C 0.36001 0.3121 0.20853 0.0
C2092 C 0.40718 0.3111 0.14846 0.0
C2093 C 0.43948 0.2767 0.15385 0.0
N2094 N 0.37865 0.31253 0.19362 0.0
N2095 N 0.42013 0.27576 0.16782 0.0
H2096 H 0.65199 0.4945 0.387 0.0
H2097 H 0.52675 0.52843 0.43146 0.0
H2098 H 0.59297 0.51335 0.33699 0.0
H2099 H 0.57384 0.48969 0.47855 0.0
H2100 H 0.55208 0.52377 0.397 0.0
H2101 H 0.62549 0.49424 0.42182 0.0
C2102 C 0.63361 0.49874 0.3834 0.0
C2103 C 0.62473 0.50408 0.35911 0.0
C2104 C 0.55678 0.51593 0.41471 0.0
C2105 C 0.59449 0.50363 0.39845 0.0
C2106 C 0.54221 0.51848 0.43432 0.0
C2107 C 0.54811 0.50922 0.45771 0.0
C2108 C 0.57779 0.50449 0.41861 0.0
C2109 C 0.5685 0.49672 0.46058 0.0
C2110 C 0.61846 0.49837 0.40315 0.0
C2111 C 0.6007 0.5092 0.35536 0.0
N2112 N 0.58288 0.49499 0.44131 0.0
N2113 N 0.58654 0.50891 0.37476 0.0
H2114 H 0.27211 0.83838 0.0822 0.0
H2115 H 0.23649 0.82316 0.22325 0.0
H2116 H 0.20981 0.86811 0.10747 0.0
H2117 H 0.27968 0.77594 0.18425 0.0
H2118 H 0.23056 0.84536 0.18463 0.0
H2119 H 0.27962 0.82216 0.12311 0.0
C2120 C 0.25997 0.84164 0.09647 0.0
C2121 C 0.23997 0.85431 0.09107 0.0
C2122 C 0.2414 0.83023 0.18461 0.0
C2123 C 0.24866 0.83543 0.13864 0.0
C2124 C 0.24492 0.81761 0.20665 0.0
C2125 C 0.25863 0.7976 0.20696 0.0
C2126 C 0.25202 0.82309 0.16285 0.0
C2127 C 0.26899 0.79118 0.18489 0.0
C2128 C 0.26431 0.83226 0.11992 0.0
C2129 C 0.22536 0.85839 0.1107 0.0
N2130 N 0.26552 0.80388 0.16386 0.0
N2131 N 0.22986 0.84875 0.13362 0.0
H2132 H 0.8996 0.58066 0.84904 0.0
H2133 H 0.01915 0.54848 0.92959 0.0
H2134 H 0.96851 0.57756 0.81861 0.0
H2135 H 0.95189 0.55657 0.96166 0.0
H2136 H 1.00113 0.55986 0.88897 0.0
H2137 H 0.91853 0.57265 0.8907 0.0
C2138 C 0.9187 0.57845 0.85112 0.0
C2139 C 0.93241 0.57972 0.83022 0.0
C2140 C 0.99036 0.55926 0.90495 0.0
C2141 C 0.95422 0.57039 0.87783 0.0
C2142 C 1.00069 0.55278 0.9282 0.0
C2143 C 0.98711 0.5515 0.94922 0.0
C2144 C 0.9662 0.56442 0.90256 0.0
C2145 C 0.96317 0.55725 0.9461 0.0
C2146 C 0.92952 0.57383 0.87491 0.0
C2147 C 0.95713 0.57664 0.8341 0.0
N2148 N 0.95351 0.56333 0.92329 0.0
N2149 N 0.96716 0.57204 0.8573 0.0
H2150 H 0.28257 0.15819 0.56193 0.0
H2151 H 0.23567 0.26447 0.64885 0.0
H2152 H 0.23326 0.20763 0.53463 0.0
H2153 H 0.28148 0.21297 0.6786 0.0
H2154 H 0.23361 0.24248 0.60687 0.0
H2155 H 0.28056 0.17575 0.60527 0.0
C2156 C 0.27103 0.1724 0.56508 0.0
C2157 C 0.25833 0.18171 0.54464 0.0
C2158 C 0.2441 0.23592 0.62255 0.0
C2159 C 0.2562 0.20202 0.59389 0.0
C2160 C 0.24536 0.24857 0.64645 0.0
C2161 C 0.25882 0.24052 0.66702 0.0
C2162 C 0.25649 0.21515 0.61925 0.0
C2163 C 0.27095 0.21975 0.66307 0.0
C2164 C 0.27001 0.18253 0.58977 0.0
C2165 C 0.24369 0.20017 0.54977 0.0
N2166 N 0.26956 0.20777 0.63958 0.0
N2167 N 0.2432 0.20985 0.57383 0.0
H2168 H 0.5816 0.47871 0.23171 0.0
H2169 H 0.60201 0.54018 0.10313 0.0
H2170 H 0.65185 0.51741 0.21596 0.0
H2171 H 0.53729 0.48807 0.11414 0.0
H2172 H 0.62228 0.52852 0.14241 0.0
H2173 H 0.56688 0.47742 0.18701 0.0
C2174 C 0.59407 0.48649 0.21864 0.0
C2175 C 0.61785 0.49844 0.22744 0.0
C2176 C 0.60377 0.51937 0.13609 0.0
C2177 C 0.60097 0.49767 0.17638 0.0
C2178 C 0.59217 0.52611 0.11376 0.0
C2179 C 0.56785 0.51536 0.10575 0.0
C2180 C 0.59081 0.50197 0.15058 0.0
C2181 C 0.55596 0.49704 0.11993 0.0
C2182 C 0.58567 0.48578 0.19313 0.0
C2183 C 0.63337 0.50806 0.20983 0.0
N2184 N 0.56746 0.49115 0.14188 0.0
N2185 N 0.62448 0.50797 0.18512 0.0
H2186 H 0.21151 0.89974 0.93715 0.0
H2187 H 0.26523 0.78968 0.86346 0.0
H2188 H 0.22613 0.83165 0.97039 0.0
H2189 H 0.22373 0.83892 0.82312 0.0
H2190 H 0.25462 0.80805 0.9034 0.0
H2191 H 0.21905 0.88094 0.89561 0.0
C2192 C 0.21624 0.88089 0.93575 0.0
C2193 C 0.21832 0.86736 0.9574 0.0
C2194 C 0.24768 0.81476 0.88583 0.0
C2195 C 0.22724 0.84593 0.91011 0.0
C2196 C 0.25377 0.80429 0.86299 0.0
C2197 C 0.24521 0.8126 0.83986 0.0
C2198 C 0.23329 0.83414 0.88577 0.0
C2199 C 0.23046 0.8317 0.8405 0.0
C2200 C 0.22048 0.87016 0.91205 0.0
C2201 C 0.22445 0.84295 0.95439 0.0
N2202 N 0.22514 0.842 0.86309 0.0
N2203 N 0.22888 0.83318 0.93136 0.0
H2204 H 0.96521 0.52922 0.70811 0.0
H2205 H 0.97021 0.56361 0.5649 0.0
H2206 H 0.9263 0.5873 0.68037 0.0
H2207 H 0.02636 0.53287 0.60843 0.0
H2208 H 0.94867 0.56735 0.60321 0.0
H2209 H 0.98141 0.52449 0.66781 0.0
C2210 C 0.95998 0.5411 0.69351 0.0
C2211 C 0.94468 0.55917 0.69807 0.0
C2212 C 0.96567 0.55976 0.60427 0.0
C2213 C 0.96348 0.55352 0.65104 0.0
C2214 C 0.9779 0.55747 0.58244 0.0
C2215 C 1.00014 0.54787 0.58351 0.0
C2216 C 0.97553 0.55191 0.62713 0.0
C2217 C 0.00932 0.54036 0.60672 0.0
C2218 C 0.96935 0.53832 0.67036 0.0
C2219 C 0.93816 0.5733 0.67785 0.0
N2220 N 0.99696 0.54243 0.62747 0.0
N2221 N 0.94777 0.57032 0.65519 0.0
H2222 H 0.30625 0.15122 0.39941 0.0
H2223 H 0.29158 0.28631 0.35753 0.0
H2224 H 0.30756 0.21646 0.45175 0.0
H2225 H 0.31489 0.23097 0.30676 0.0
H2226 H 0.30136 0.26171 0.39293 0.0
H2227 H 0.31286 0.17983 0.36531 0.0
C2228 C 0.30831 0.17149 0.40377 0.0
C2229 C 0.30579 0.18149 0.42822 0.0
C2230 C 0.30492 0.25513 0.37416 0.0
C2231 C 0.31334 0.21405 0.38976 0.0
C2232 C 0.29946 0.26931 0.35402 0.0
C2233 C 0.3025 0.26063 0.32935 0.0
C2234 C 0.31267 0.23166 0.36946 0.0
C2235 C 0.31249 0.23833 0.32563 0.0
C2236 C 0.31213 0.18779 0.3844 0.0
C2237 C 0.30877 0.20787 0.43301 0.0
N2238 N 0.31668 0.2242 0.34544 0.0
N2239 N 0.31208 0.22315 0.41395 0.0
H2240 H 0.34233 0.59355 0.52554 0.0
H2241 H 0.47939 0.57888 0.49605 0.0
H2242 H 0.39258 0.65516 0.5022 0.0
H2243 H 0.43029 0.52201 0.52772 0.0
H2244 H 0.44816 0.60687 0.4965 0.0
H2245 H 0.37437 0.56703 0.52513 0.0
C2246 C 0.36014 0.60159 0.5204 0.0
C2247 C 0.36463 0.62676 0.51395 0.0
C2248 C 0.44423 0.58823 0.50329 0.0
C2249 C 0.40174 0.59612 0.51319 0.0
C2250 C 0.46209 0.57219 0.50293 0.0
C2251 C 0.45758 0.54794 0.51173 0.0
C2252 C 0.42155 0.57991 0.51241 0.0
C2253 C 0.43468 0.54045 0.52061 0.0
C2254 C 0.37851 0.58636 0.52015 0.0
C2255 C 0.3882 0.63594 0.50741 0.0
N2256 N 0.41768 0.55624 0.52068 0.0
N2257 N 0.40578 0.62067 0.50711 0.0
H2258 H 0.84085 0.98607 0.54353 0.0
H2259 H 0.98556 0.98889 0.56653 0.0
H2260 H 0.87448 0.92543 0.57362 0.0
H2261 H 0.95148 0.03529 0.51512 0.0
H2262 H 0.94526 0.97237 0.57897 0.0
H2263 H 0.88163 0.01098 0.54304 0.0
C2264 C 0.85675 0.97821 0.55058 0.0
C2265 C 0.85428 0.9535 0.55834 0.0
C2266 C 0.94668 0.98645 0.56524 0.0
C2267 C 0.90087 0.98184 0.55774 0.0
C2268 C 0.96969 0.99599 0.5582 0.0
C2269 C 0.97188 0.01326 0.53948 0.0
C2270 C 0.92573 0.99443 0.55371 0.0
C2271 C 0.95063 0.02175 0.52938 0.0
C2272 C 0.88 0.99237 0.55012 0.0
C2273 C 0.87555 0.94427 0.56716 0.0
N2274 N 0.92842 0.01211 0.53648 0.0
N2275 N 0.89795 0.95835 0.56643 0.0
H2276 H 0.86505 0.13981 0.27036 0.0
H2277 H 0.74845 0.20048 0.22444 0.0
H2278 H 0.80462 0.09896 0.21989 0.0
H2279 H 0.78925 0.22365 0.29719 0.0
H2280 H 0.77271 0.1668 0.21867 0.0
H2281 H 0.84168 0.17462 0.27626 0.0
C2282 C 0.84697 0.13827 0.2603 0.0
C2283 C 0.83675 0.11647 0.24455 0.0
C2284 C 0.77648 0.1793 0.23587 0.0
C2285 C 0.81006 0.1562 0.25122 0.0
C2286 C 0.76263 0.19856 0.23924 0.0
C2287 C 0.76721 0.21528 0.26118 0.0
C2288 C 0.79523 0.1767 0.2545 0.0
C2289 C 0.7858 0.21182 0.27963 0.0
C2290 C 0.83362 0.15805 0.26386 0.0
C2291 C 0.81319 0.11541 0.23219 0.0
N2292 N 0.79929 0.19296 0.27584 0.0
N2293 N 0.80069 0.13504 0.23569 0.0
H2294 H 0.70929 0.18077 0.98163 0.0
H2295 H 0.62992 0.0617 0.03454 0.0
H2296 H 0.74187 0.12075 0.01442 0.0
H2297 H 0.59902 0.11215 0.98556 0.0
H2298 H 0.67109 0.08381 0.02924 0.0
H2299 H 0.66875 0.15668 0.98455 0.0
C2300 C 0.70796 0.16247 0.98934 0.0
C2301 C 0.72914 0.15285 0.9978 0.0
C2302 C 0.65529 0.08996 0.01958 0.0
C2303 C 0.68252 0.12515 1.00146 0.0
C2304 C 0.63182 0.07739 0.02265 0.0
C2305 C 0.61106 0.08515 0.01051 0.0
C2306 C 0.65797 0.1106 0.00447 0.0
C2307 C 0.61453 0.10556 0.99529 0.0
C2308 C 0.68475 0.14868 0.99098 0.0
C2309 C 0.72612 0.12893 0.00757 0.0
N2310 N 0.63748 0.11764 0.99283 0.0
N2311 N 0.70329 0.11601 0.00931 0.0
H2312 H 0.13862 0.4016 0.29579 0.0
H2313 H 0.2651 0.37028 0.24965 0.0
H2314 H 0.19191 0.45542 0.26526 0.0
H2315 H 0.2213 0.32 0.29369 0.0
H2316 H 0.23677 0.40042 0.25346 0.0
H2317 H 0.16658 0.3702 0.29331 0.0
C2318 C 0.15609 0.4068 0.28846 0.0
C2319 C 0.16285 0.43126 0.2807 0.0
C2320 C 0.23331 0.38289 0.26249 0.0
C2321 C 0.19493 0.39542 0.27781 0.0
C2322 C 0.24957 0.36561 0.26036 0.0
C2323 C 0.24575 0.34252 0.27155 0.0
C2324 C 0.21269 0.37715 0.27577 0.0
C2325 C 0.22514 0.33757 0.28501 0.0
C2326 C 0.17209 0.3889 0.28716 0.0
C2327 C 0.18582 0.43689 0.27149 0.0
N2328 N 0.20931 0.35465 0.28665 0.0
N2329 N 0.20088 0.41919 0.27027 0.0
H2330 H 0.18261 0.41494 0.00741 0.0
H2331 H 0.12647 0.54347 0.01581 0.0
H2332 H 0.22146 0.48442 0.04678 0.0
H2333 H 0.08981 0.47421 0.97438 0.0
H2334 H 0.163 0.52368 0.02409 0.0
H2335 H 0.14946 0.43727 0.99327 0.0
C2336 C 0.18412 0.4349 0.01322 0.0
C2337 C 0.20479 0.44779 0.02845 0.0
C2338 C 0.14711 0.51295 0.01284 0.0
C2339 C 0.16687 0.47364 0.01205 0.0
C2340 C 0.12635 0.52432 0.0079 0.0
C2341 C 0.1051 0.51039 0.99449 0.0
C2342 C 0.1465 0.48745 0.00441 0.0
C2343 C 0.10582 0.4856 0.98484 0.0
C2344 C 0.16521 0.4477 0.00499 0.0
C2345 C 0.20578 0.4737 0.03519 0.0
N2346 N 0.12607 0.47483 0.99025 0.0
N2347 N 0.18705 0.48577 0.027 0.0
H2348 H 0.87435 0.95611 0.21823 0.0
H2349 H 0.77119 0.87287 0.28189 0.0
H2350 H 0.82086 0.99061 0.25599 0.0
H2351 H 0.80099 0.84454 0.21563 0.0
H2352 H 0.79006 0.9159 0.27468 0.0
H2353 H 0.84895 0.91469 0.21885 0.0
C2354 C 0.85712 0.95497 0.22644 0.0
C2355 C 0.8497 0.97682 0.2371 0.0
C2356 C 0.79214 0.90028 0.26154 0.0
C2357 C 0.82078 0.92937 0.23833 0.0
C2358 C 0.78143 0.87571 0.26566 0.0
C2359 C 0.78456 0.85502 0.24938 0.0
C2360 C 0.80654 0.90412 0.24134 0.0
C2361 C 0.79802 0.85988 0.22864 0.0
C2362 C 0.8426 0.93134 0.22672 0.0
C2363 C 0.82717 0.97424 0.24745 0.0
N2364 N 0.80883 0.88384 0.22545 0.0
N2365 N 0.81367 0.95087 0.2482 0.0
H2366 H 0.67504 0.05262 0.81053 0.0
H2367 H 0.70973 0.17145 0.73277 0.0
H2368 H 0.62005 0.08125 0.76314 0.0
H2369 H 0.73815 0.17397 0.81122 0.0
H2370 H 0.68264 0.13173 0.73784 0.0
H2371 H 0.70411 0.09123 0.80583 0.0
C2372 C 0.6691 0.06703 0.79918 0.0
C2373 C 0.64505 0.06386 0.78736 0.0
C2374 C 0.69503 0.14088 0.75382 0.0
C2375 C 0.67833 0.1074 0.78127 0.0
C2376 C 0.71063 0.16336 0.75091 0.0
C2377 C 0.72622 0.17592 0.7716 0.0
C2378 C 0.69551 0.13056 0.7774 0.0
C2379 C 0.72641 0.1648 0.7948 0.0
C2380 C 0.68565 0.08898 0.79655 0.0
C2381 C 0.63832 0.08307 0.7728 0.0
N2382 N 0.71137 0.14263 0.79707 0.0
N2383 N 0.65495 0.10387 0.76989 0.0
loop_
_geom_bond_atom_site_label_1
_geom_bond_atom_site_label_2
_geom_bond_distance
_geom_bond_site_symmetry_2
_ccdc_geom_bond_type
Co0 O1 2.216 . S
Co0 O2 2.091 . S
Co0 O4 2.004 1_455 S
Co0 O10 2.021 . S
Co0 O12 2.137 . S
Co0 O13 2.244 . S
O1 Co0 2.216 . S
O1 C8 1.247 . S
O2 Co0 2.091 . S
O2 C8 1.261 . S
C3 O12 1.247 . S
C3 O13 1.272 . S
O4 Co0 2.004 1_655 S
O4 C9 1.259 . S
Co5 O6 2.061 . S
Co5 O11 2.052 1_655 S
Co5 O13 2.135 1_655 S
O6 Co5 2.061 . S
O6 C9 1.235 . S
C7 O10 1.238 . S
C7 O11 1.241 . S
C8 O1 1.247 . S
C8 O2 1.261 . S
C9 O4 1.259 . S
C9 O6 1.235 . S
O10 Co0 2.021 . S
O10 C7 1.238 . S
O11 Co5 2.052 1_455 S
O11 C7 1.241 . S
O12 Co0 2.137 . S
O12 C3 1.247 . S
O13 Co0 2.244 . S
O13 C3 1.272 . S
O13 Co5 2.135 1_455 S
Co14 O15 2.216 . S
Co14 O16 2.091 . S
Co14 O18 2.004 1_655 S
Co14 O24 2.021 . S
Co14 O26 2.137 . S
Co14 O27 2.244 1_655 S
O15 Co14 2.216 . S
O15 C22 1.247 . S
O16 Co14 2.091 . S
O16 C22 1.261 . S
C17 O26 1.247 1_455 S
C17 O27 1.272 . S
O18 Co14 2.004 1_455 S
O18 C23 1.259 . S
Co19 O20 2.061 . S
Co19 O25 2.052 . S
Co19 O27 2.135 . S
O20 Co19 2.061 . S
O20 C23 1.235 . S
C21 O24 1.254 . S
C21 O25 1.220 1_655 S
C22 O15 1.247 . S
C22 O16 1.261 . S
C23 O18 1.259 . S
C23 O20 1.235 . S
O24 Co14 2.021 . S
O24 C21 1.254 . S
O25 Co19 2.052 . S
O25 C21 1.220 1_455 S
O26 Co14 2.137 . S
O26 C17 1.247 1_655 S
O27 Co14 2.244 1_455 S
O27 C17 1.272 . S
O27 Co19 2.135 . S
Co28 O29 2.216 . S
Co28 O30 2.091 . S
Co28 O32 2.004 . S
Co28 O38 2.021 . S
Co28 O40 2.137 . S
Co28 O41 2.244 . S
O29 Co28 2.216 . S
O29 C36 1.247 . S
O30 Co28 2.091 . S
O30 C36 1.261 . S
C31 O40 1.247 . S
C31 O41 1.272 . S
O32 Co28 2.004 . S
O32 C37 1.259 . S
Co33 O34 2.061 . S
Co33 O39 2.052 . S
Co33 O41 2.135 . S
O34 Co33 2.061 . S
O34 C37 1.235 . S
C35 O38 1.238 . S
C35 O39 1.241 . S
C36 O29 1.247 . S
C36 O30 1.261 . S
C37 O32 1.259 . S
C37 O34 1.235 . S
O38 Co28 2.021 . S
O38 C35 1.238 . S
O39 Co33 2.052 . S
O39 C35 1.241 . S
O40 Co28 2.137 . S
O40 C31 1.247 . S
O41 Co28 2.244 . S
O41 C31 1.272 . S
O41 Co33 2.135 . S
Co42 O43 2.216 . S
Co42 O44 2.091 . S
Co42 O46 2.004 . S
Co42 O52 2.021 . S
Co42 O54 2.137 . S
Co42 O55 2.244 . S
O43 Co42 2.216 . S
O43 C50 1.247 . S
O44 Co42 2.091 . S
O44 C50 1.261 . S
C45 O54 1.247 . S
C45 O55 1.272 . S
O46 Co42 2.004 . S
O46 C51 1.259 . S
Co47 O48 2.061 . S
Co47 O53 2.052 . S
Co47 O55 2.135 . S
O48 Co47 2.061 . S
O48 C51 1.235 . S
C49 O52 1.238 . S
C49 O53 1.241 . S
C50 O43 1.247 . S
C50 O44 1.261 . S
C51 O46 1.259 . S
C51 O48 1.235 . S
O52 Co42 2.021 . S
O52 C49 1.238 . S
O53 Co47 2.052 . S
O53 C49 1.241 . S
O54 Co42 2.137 . S
O54 C45 1.247 . S
O55 Co42 2.244 . S
O55 C45 1.272 . S
O55 Co47 2.135 . S
Co56 O57 2.216 1_455 S
Co56 O58 2.091 1_455 S
Co56 O60 2.004 . S
Co56 O66 2.021 . S
Co56 O68 2.137 . S
Co56 O69 2.244 . S
O57 Co56 2.216 1_655 S
O57 C64 1.247 . S
O58 Co56 2.091 1_655 S
O58 C64 1.261 . S
C59 O68 1.247 . S
C59 O69 1.272 . S
O60 Co56 2.004 . S
O60 C65 1.259 . S
Co61 O62 2.061 . S
Co61 O67 2.052 . S
Co61 O69 2.135 . S
O62 Co61 2.061 . S
O62 C65 1.235 . S
C63 O66 1.238 . S
C63 O67 1.241 . S
C64 O57 1.247 . S
C64 O58 1.261 . S
C65 O60 1.259 . S
C65 O62 1.235 . S
O66 Co56 2.021 . S
O66 C63 1.238 . S
O67 Co61 2.052 . S
O67 C63 1.241 . S
O68 Co56 2.137 . S
O68 C59 1.247 . S
O69 Co56 2.244 . S
O69 C59 1.272 . S
O69 Co61 2.135 . S
Co70 O71 2.216 . S
Co70 O72 2.091 . S
Co70 O74 2.004 . S
Co70 O80 2.021 . S
Co70 O82 2.137 . S
Co70 O83 2.244 . S
O71 Co70 2.216 . S
O71 C78 1.247 . S
O72 Co70 2.091 . S
O72 C78 1.261 . S
C73 O82 1.247 . S
C73 O83 1.272 . S
O74 Co70 2.004 . S
O74 C79 1.259 . S
Co75 O76 2.061 . S
Co75 O81 2.052 . S
Co75 O83 2.135 . S
O76 Co75 2.061 . S
O76 C79 1.235 . S
C77 O80 1.238 . S
C77 O81 1.241 . S
C78 O71 1.247 . S
C78 O72 1.261 . S
C79 O74 1.259 . S
C79 O76 1.235 . S
O80 Co70 2.021 . S
O80 C77 1.238 . S
O81 Co75 2.052 . S
O81 C77 1.241 . S
O82 Co70 2.137 . S
O82 C73 1.247 . S
O83 Co70 2.244 . S
O83 C73 1.272 . S
O83 Co75 2.135 . S
Co84 O85 2.216 . S
Co84 O86 2.091 . S
Co84 O88 2.004 . S
Co84 O94 2.021 . S
Co84 O96 2.137 . S
Co84 O97 2.244 . S
O85 Co84 2.216 . S
O85 C92 1.247 . S
O86 Co84 2.091 . S
O86 C92 1.261 . S
C87 O96 1.247 . S
C87 O97 1.272 . S
O88 Co84 2.004 . S
O88 C93 1.259 . S
Co89 O90 2.061 . S
Co89 O95 2.052 . S
Co89 O97 2.135 . S
O90 Co89 2.061 . S
O90 C93 1.235 . S
C91 O94 1.238 . S
C91 O95 1.241 . S
C92 O85 1.247 . S
C92 O86 1.261 . S
C93 O88 1.259 . S
C93 O90 1.235 . S
O94 Co84 2.021 . S
O94 C91 1.238 . S
O95 Co89 2.052 . S
O95 C91 1.241 . S
O96 Co84 2.137 . S
O96 C87 1.247 . S
O97 Co84 2.244 . S
O97 C87 1.272 . S
O97 Co89 2.135 . S
Co98 O99 2.216 . S
Co98 O100 2.091 . S
Co98 O102 2.004 1_455 S
Co98 O108 2.021 . S
Co98 O110 2.137 . S
Co98 O111 2.244 . S
O99 Co98 2.216 . S
O99 C106 1.247 . S
O100 Co98 2.091 . S
O100 C106 1.261 . S
C101 O110 1.247 . S
C101 O111 1.272 . S
O102 Co98 2.004 1_655 S
O102 C107 1.259 . S
Co103 O104 2.061 . S
Co103 O109 2.052 . S
Co103 O111 2.135 1_655 S
O104 Co103 2.061 . S
O104 C107 1.235 . S
C105 O108 1.238 . S
C105 O109 1.241 1_455 S
C106 O99 1.247 . S
C106 O100 1.261 . S
C107 O102 1.259 . S
C107 O104 1.235 . S
O108 Co98 2.021 . S
O108 C105 1.238 . S
O109 Co103 2.052 . S
O109 C105 1.241 1_655 S
O110 Co98 2.137 . S
O110 C101 1.247 . S
O111 Co98 2.244 . S
O111 C101 1.272 . S
O111 Co103 2.135 1_455 S
Co112 O113 2.216 . S
Co112 O114 2.091 . S
Co112 O116 2.004 . S
Co112 O122 2.021 . S
Co112 O124 2.137 . S
Co112 O125 2.244 . S
O113 Co112 2.216 . S
O113 C120 1.247 . S
O114 Co112 2.091 . S
O114 C120 1.261 . S
C115 O124 1.247 . S
C115 O125 1.272 . S
O116 Co112 2.004 . S
O116 C121 1.259 1_545 S
Co117 O118 2.061 1_545 S
Co117 O123 2.052 . S
Co117 O125 2.135 . S
O118 Co117 2.061 1_565 S
O118 C121 1.235 . S
C119 O122 1.238 . S
C119 O123 1.241 . S
C120 O113 1.247 . S
C120 O114 1.261 . S
C121 O116 1.259 1_565 S
C121 O118 1.235 . S
O122 Co112 2.021 . S
O122 C119 1.238 . S
O123 Co117 2.052 . S
O123 C119 1.241 . S
O124 Co112 2.137 . S
O124 C115 1.247 . S
O125 Co112 2.244 . S
O125 C115 1.272 . S
O125 Co117 2.135 . S
Co126 O127 2.216 . S
Co126 O128 2.091 . S
Co126 O130 2.004 . S
Co126 O136 2.021 . S
Co126 O138 2.137 . S
Co126 O139 2.244 . S
O127 Co126 2.216 . S
O127 C134 1.247 . S
O128 Co126 2.091 . S
O128 C134 1.261 . S
C129 O138 1.247 . S
C129 O139 1.272 . S
O130 Co126 2.004 . S
O130 C135 1.259 . S
Co131 O132 2.061 . S
Co131 O137 2.052 . S
Co131 O139 2.135 . S
O132 Co131 2.061 . S
O132 C135 1.235 . S
C133 O136 1.238 . S
C133 O137 1.241 . S
C134 O127 1.247 . S
C134 O128 1.261 . S
C135 O130 1.259 . S
C135 O132 1.235 . S
O136 Co126 2.021 . S
O136 C133 1.238 . S
O137 Co131 2.052 . S
O137 C133 1.241 . S
O138 Co126 2.137 . S
O138 C129 1.247 . S
O139 Co126 2.244 . S
O139 C129 1.272 . S
O139 Co131 2.135 . S
Co140 O141 2.216 . S
Co140 O142 2.091 . S
Co140 O144 2.004 1_565 S
Co140 O150 2.021 . S
Co140 O152 2.137 . S
Co140 O153 2.244 1_565 S
O141 Co140 2.216 . S
O141 C148 1.247 . S
O142 Co140 2.091 . S
O142 C148 1.261 . S
C143 O152 1.241 1_545 S
C143 O153 1.276 . S
O144 Co140 2.004 1_545 S
O144 C149 1.259 . S
Co145 O146 2.061 . S
Co145 O151 2.052 . S
Co145 O153 2.135 . S
O146 Co145 2.061 . S
O146 C149 1.235 . S
C147 O150 1.236 . S
C147 O151 1.244 1_565 S
C148 O141 1.247 . S
C148 O142 1.261 . S
C149 O144 1.259 . S
C149 O146 1.235 . S
O150 Co140 2.021 . S
O150 C147 1.236 . S
O151 Co145 2.052 . S
O151 C147 1.244 1_545 S
O152 Co140 2.137 . S
O152 C143 1.241 1_565 S
O153 Co140 2.244 1_545 S
O153 C143 1.276 . S
O153 Co145 2.135 . S
Co154 O155 2.216 . S
Co154 O156 2.091 . S
Co154 O158 2.004 . S
Co154 O164 2.021 . S
Co154 O166 2.137 1_554 S
Co154 O167 2.244 . S
O155 Co154 2.216 . S
O155 C162 1.247 . S
O156 Co154 2.091 . S
O156 C162 1.261 . S
C157 O166 1.247 . S
C157 O167 1.272 1_556 S
O158 Co154 2.004 . S
O158 C163 1.259 . S
Co159 O160 2.061 . S
Co159 O165 2.052 . S
Co159 O167 2.135 . S
O160 Co159 2.061 . S
O160 C163 1.235 . S
C161 O164 1.238 . S
C161 O165 1.241 . S
C162 O155 1.247 . S
C162 O156 1.261 . S
C163 O158 1.259 . S
C163 O160 1.235 . S
O164 Co154 2.021 . S
O164 C161 1.238 . S
O165 Co159 2.052 . S
O165 C161 1.241 . S
O166 Co154 2.137 1_556 S
O166 C157 1.247 . S
O167 Co154 2.244 . S
O167 C157 1.272 1_554 S
O167 Co159 2.135 . S
Co168 O169 2.216 . S
Co168 O170 2.091 . S
Co168 O172 2.004 . S
Co168 O178 2.021 . S
Co168 O180 2.137 1_554 S
Co168 O181 2.244 . S
O169 Co168 2.216 . S
O169 C176 1.247 . S
O170 Co168 2.091 . S
O170 C176 1.261 . S
C171 O180 1.247 . S
C171 O181 1.272 1_556 S
O172 Co168 2.004 . S
O172 C177 1.259 . S
Co173 O174 2.061 . S
Co173 O179 2.052 . S
Co173 O181 2.135 . S
O174 Co173 2.061 . S
O174 C177 1.235 . S
C175 O178 1.238 . S
C175 O179 1.241 . S
C176 O169 1.247 . S
C176 O170 1.261 . S
C177 O172 1.259 . S
C177 O174 1.235 . S
O178 Co168 2.021 . S
O178 C175 1.238 . S
O179 Co173 2.052 . S
O179 C175 1.241 . S
O180 Co168 2.137 1_556 S
O180 C171 1.247 . S
O181 Co168 2.244 . S
O181 C171 1.272 1_554 S
O181 Co173 2.135 . S
Co182 O183 2.216 1_556 S
Co182 O184 2.091 . S
Co182 O186 2.004 . S
Co182 O192 2.021 1_556 S
Co182 O194 2.137 . S
Co182 O195 2.244 . S
O183 Co182 2.216 1_554 S
O183 C190 1.248 . S
O184 Co182 2.091 . S
O184 C190 1.261 1_556 S
C185 O194 1.247 . S
C185 O195 1.272 . S
O186 Co182 2.004 . S
O186 C191 1.259 . S
Co187 O188 2.061 . S
Co187 O193 2.044 1_556 S
Co187 O195 2.140 . S
O188 Co187 2.061 . S
O188 C191 1.235 . S
C189 O192 1.238 . S
C189 O193 1.241 . S
C190 O183 1.248 . S
C190 O184 1.261 1_554 S
C191 O186 1.259 . S
C191 O188 1.235 . S
O192 Co182 2.021 1_554 S
O192 C189 1.238 . S
O193 Co187 2.044 1_554 S
O193 C189 1.241 . S
O194 Co182 2.137 . S
O194 C185 1.247 . S
O195 Co182 2.244 . S
O195 C185 1.272 . S
O195 Co187 2.140 . S
Co196 O197 2.216 . S
Co196 O198 2.091 . S
Co196 O200 2.004 . S
Co196 O206 2.021 . S
Co196 O208 2.137 . S
Co196 O209 2.244 . S
O197 Co196 2.216 . S
O197 C204 1.247 . S
O198 Co196 2.091 . S
O198 C204 1.261 . S
C199 O208 1.247 . S
C199 O209 1.272 . S
O200 Co196 2.004 . S
O200 C205 1.259 . S
Co201 O202 2.061 . S
Co201 O207 2.052 . S
Co201 O209 2.135 . S
O202 Co201 2.061 . S
O202 C205 1.235 . S
C203 O206 1.238 . S
C203 O207 1.241 . S
C204 O197 1.247 . S
C204 O198 1.261 . S
C205 O200 1.259 . S
C205 O202 1.235 . S
O206 Co196 2.021 . S
O206 C203 1.238 . S
O207 Co201 2.052 . S
O207 C203 1.241 . S
O208 Co196 2.137 . S
O208 C199 1.247 . S
O209 Co196 2.244 . S
O209 C199 1.272 . S
O209 Co201 2.135 . S
Co210 O211 2.216 . S
Co210 O212 2.091 . S
Co210 O214 2.004 . S
Co210 O220 2.021 . S
Co210 O222 2.137 . S
Co210 O223 2.244 . S
O211 Co210 2.216 . S
O211 C218 1.247 . S
O212 Co210 2.091 . S
O212 C218 1.261 . S
C213 O222 1.247 . S
C213 O223 1.272 . S
O214 Co210 2.004 . S
O214 C219 1.259 . S
Co215 O216 2.061 . S
Co215 O221 2.052 . S
Co215 O223 2.135 . S
O216 Co215 2.061 . S
O216 C219 1.235 . S
C217 O220 1.238 . S
C217 O221 1.241 . S
C218 O211 1.247 . S
C218 O212 1.261 . S
C219 O214 1.259 . S
C219 O216 1.235 . S
O220 Co210 2.021 . S
O220 C217 1.238 . S
O221 Co215 2.052 . S
O221 C217 1.241 . S
O222 Co210 2.137 . S
O222 C213 1.247 . S
O223 Co210 2.244 . S
O223 C213 1.272 . S
O223 Co215 2.135 . S
Co224 O225 2.216 . S
Co224 O226 2.091 . S
Co224 O228 2.004 . S
Co224 O234 2.021 . S
Co224 O236 2.137 . S
Co224 O237 2.244 . S
O225 Co224 2.216 . S
O225 C232 1.247 . S
O226 Co224 2.091 . S
O226 C232 1.261 . S
C227 O236 1.247 . S
C227 O237 1.272 . S
O228 Co224 2.004 . S
O228 C233 1.259 . S
Co229 O230 2.061 . S
Co229 O235 2.052 . S
Co229 O237 2.135 . S
O230 Co229 2.061 . S
O230 C233 1.235 . S
C231 O234 1.238 . S
C231 O235 1.241 . S
C232 O225 1.247 . S
C232 O226 1.261 . S
C233 O228 1.259 . S
C233 O230 1.235 . S
O234 Co224 2.021 . S
O234 C231 1.238 . S
O235 Co229 2.052 . S
O235 C231 1.241 . S
O236 Co224 2.137 . S
O236 C227 1.247 . S
O237 Co224 2.244 . S
O237 C227 1.272 . S
O237 Co229 2.135 . S
Co238 O239 2.216 . S
Co238 O240 2.091 . S
Co238 O242 2.004 . S
Co238 O248 2.021 . S
Co238 O250 2.137 . S
Co238 O251 2.244 . S
O239 Co238 2.216 . S
O239 C246 1.247 . S
O240 Co238 2.091 . S
O240 C246 1.261 . S
C241 O250 1.247 . S
C241 O251 1.272 . S
O242 Co238 2.004 . S
O242 C247 1.259 . S
Co243 O244 2.061 . S
Co243 O249 2.052 . S
Co243 O251 2.135 . S
O244 Co243 2.061 . S
O244 C247 1.235 . S
C245 O248 1.238 . S
C245 O249 1.241 . S
C246 O239 1.247 . S
C246 O240 1.261 . S
C247 O242 1.259 . S
C247 O244 1.235 . S
O248 Co238 2.021 . S
O248 C245 1.238 . S
O249 Co243 2.052 . S
O249 C245 1.241 . S
O250 Co238 2.137 . S
O250 C241 1.247 . S
O251 Co238 2.244 . S
O251 C241 1.272 . S
O251 Co243 2.135 . S
Co252 O253 2.216 . S
Co252 O254 2.091 . S
Co252 O256 2.004 . S
Co252 O262 2.021 . S
Co252 O264 2.137 . S
Co252 O265 2.244 . S
O253 Co252 2.216 . S
O253 C260 1.247 . S
O254 Co252 2.091 . S
O254 C260 1.261 . S
C255 O264 1.247 . S
C255 O265 1.272 . S
O256 Co252 2.004 . S
O256 C261 1.259 . S
Co257 O258 2.061 . S
Co257 O263 2.052 . S
Co257 O265 2.135 . S
O258 Co257 2.061 . S
O258 C261 1.235 . S
C259 O262 1.238 . S
C259 O263 1.241 . S
C260 O253 1.247 . S
C260 O254 1.261 . S
C261 O256 1.259 . S
C261 O258 1.235 . S
O262 Co252 2.021 . S
O262 C259 1.238 . S
O263 Co257 2.052 . S
O263 C259 1.241 . S
O264 Co252 2.137 . S
O264 C255 1.247 . S
O265 Co252 2.244 . S
O265 C255 1.272 . S
O265 Co257 2.135 . S
Co266 O267 2.216 1_545 S
Co266 O268 2.091 1_545 S
Co266 O270 2.004 . S
Co266 O276 2.021 . S
Co266 O278 2.137 . S
Co266 O279 2.244 . S
O267 Co266 2.216 1_565 S
O267 C274 1.247 . S
O268 Co266 2.091 1_565 S
O268 C274 1.261 . S
C269 O278 1.247 . S
C269 O279 1.272 . S
O270 Co266 2.004 . S
O270 C275 1.259 . S
Co271 O272 2.061 . S
Co271 O277 2.052 . S
Co271 O279 2.135 . S
O272 Co271 2.061 . S
O272 C275 1.235 . S
C273 O276 1.238 . S
C273 O277 1.241 . S
C274 O267 1.247 . S
C274 O268 1.261 . S
C275 O270 1.259 . S
C275 O272 1.235 . S
O276 Co266 2.021 . S
O276 C273 1.238 . S
O277 Co271 2.052 . S
O277 C273 1.241 . S
O278 Co266 2.137 . S
O278 C269 1.247 . S
O279 Co266 2.244 . S
O279 C269 1.272 . S
O279 Co271 2.135 . S
Co280 O281 2.216 1_556 S
Co280 O282 2.091 1_556 S
Co280 O284 2.004 . S
Co280 O290 2.021 1_556 S
Co280 O292 2.137 . S
Co280 O293 2.244 . S
O281 Co280 2.216 1_554 S
O281 C288 1.247 . S
O282 Co280 2.091 1_554 S
O282 C288 1.261 . S
C283 O292 1.247 . S
C283 O293 1.272 . S
O284 Co280 2.004 . S
O284 C289 1.259 . S
Co285 O286 2.065 . S
Co285 O291 2.085 . S
Co285 O293 2.111 1_554 S
O286 Co285 2.065 . S
O286 C289 1.234 1_554 S
C287 O290 1.238 . S
C287 O291 1.241 . S
C288 O281 1.247 . S
C288 O282 1.261 . S
C289 O284 1.259 . S
C289 O286 1.234 1_556 S
O290 Co280 2.021 1_554 S
O290 C287 1.238 . S
O291 Co285 2.085 . S
O291 C287 1.241 . S
O292 Co280 2.137 . S
O292 C283 1.247 . S
O293 Co280 2.244 . S
O293 C283 1.272 . S
O293 Co285 2.111 1_556 S
Co294 O295 2.216 . S
Co294 O296 2.091 . S
Co294 O298 2.004 . S
Co294 O304 2.021 . S
Co294 O306 2.137 . S
Co294 O307 2.244 . S
O295 Co294 2.216 . S
O295 C302 1.247 . S
O296 Co294 2.091 . S
O296 C302 1.261 . S
C297 O306 1.247 . S
C297 O307 1.272 . S
O298 Co294 2.004 . S
O298 C303 1.259 . S
Co299 O300 2.061 . S
Co299 O305 2.052 . S
Co299 O307 2.135 . S
O300 Co299 2.061 . S
O300 C303 1.235 . S
C301 O304 1.238 . S
C301 O305 1.241 . S
C302 O295 1.247 . S
C302 O296 1.261 . S
C303 O298 1.259 . S
C303 O300 1.235 . S
O304 Co294 2.021 . S
O304 C301 1.238 . S
O305 Co299 2.052 . S
O305 C301 1.241 . S
O306 Co294 2.137 . S
O306 C297 1.247 . S
O307 Co294 2.244 . S
O307 C297 1.272 . S
O307 Co299 2.135 . S
Co308 O309 2.216 . S
Co308 O310 2.091 . S
Co308 O312 2.004 . S
Co308 O318 2.021 . S
Co308 O320 2.137 . S
Co308 O321 2.244 . S
O309 Co308 2.216 . S
O309 C316 1.247 . S
O310 Co308 2.091 . S
O310 C316 1.261 . S
C311 O320 1.247 . S
C311 O321 1.272 . S
O312 Co308 2.004 . S
O312 C317 1.259 . S
Co313 O314 2.061 . S
Co313 O319 2.052 . S
Co313 O321 2.135 . S
O314 Co313 2.061 . S
O314 C317 1.235 . S
C315 O318 1.238 . S
C315 O319 1.241 . S
C316 O309 1.247 . S
C316 O310 1.261 . S
C317 O312 1.259 . S
C317 O314 1.235 . S
O318 Co308 2.021 . S
O318 C315 1.238 . S
O319 Co313 2.052 . S
O319 C315 1.241 . S
O320 Co308 2.137 . S
O320 C311 1.247 . S
O321 Co308 2.244 . S
O321 C311 1.272 . S
O321 Co313 2.135 . S
Co322 O323 2.216 . S
Co322 O324 2.091 . S
Co322 O326 2.004 . S
Co322 O332 2.021 . S
Co322 O334 2.137 . S
Co322 O335 2.244 . S
O323 Co322 2.216 . S
O323 C330 1.247 . S
O324 Co322 2.091 . S
O324 C330 1.261 . S
C325 O334 1.247 . S
C325 O335 1.272 . S
O326 Co322 2.004 . S
O326 C331 1.259 . S
Co327 O328 2.061 . S
Co327 O333 2.052 . S
Co327 O335 2.135 . S
O328 Co327 2.061 . S
O328 C331 1.235 . S
C329 O332 1.238 . S
C329 O333 1.241 . S
C330 O323 1.247 . S
C330 O324 1.261 . S
C331 O326 1.259 . S
C331 O328 1.235 . S
O332 Co322 2.021 . S
O332 C329 1.238 . S
O333 Co327 2.052 . S
O333 C329 1.241 . S
O334 Co322 2.137 . S
O334 C325 1.247 . S
O335 Co322 2.244 . S
O335 C325 1.272 . S
O335 Co327 2.135 . S
Tb336 O339 2.453 . S
Tb336 O340 2.596 . S
Tb336 O341 2.374 1_554 S
Tb336 O349 2.343 1_455 S
Tb336 O351 2.353 . S
Tb336 O353 2.427 . S
Tb336 O354 2.513 1_554 S
C337 O341 1.251 . S
C337 O343 1.263 . S
Tb338 O340 2.343 1_665 S
Tb338 O343 2.353 1_664 S
Tb338 O346 2.427 1_655 S
Tb338 O347 2.513 1_655 S
Tb338 O348 2.453 1_564 S
Tb338 O349 2.596 1_565 S
Tb338 O350 2.374 1_565 S
O339 Tb336 2.453 . S
O339 C355 1.245 . S
O340 Tb336 2.596 . S
O340 Tb338 2.343 1_445 S
O340 C355 1.259 . S
O341 Tb336 2.374 1_556 S
O341 C337 1.251 . S
C342 O346 1.275 . S
C342 O347 1.246 . S
O343 C337 1.263 . S
O343 Tb338 2.353 1_446 S
C344 O348 1.245 1_554 S
C344 O349 1.259 . S
C345 O350 1.250 . S
C345 O351 1.263 1_655 S
O346 Tb338 2.427 1_455 S
O346 C342 1.275 . S
O347 Tb338 2.513 1_455 S
O347 C342 1.246 . S
O348 Tb338 2.453 1_546 S
O348 C344 1.245 1_556 S
O349 Tb336 2.343 1_655 S
O349 Tb338 2.596 1_545 S
O349 C344 1.259 . S
O350 Tb338 2.374 1_545 S
O350 C345 1.250 . S
O351 Tb336 2.353 . S
O351 C345 1.263 1_455 S
C352 O353 1.299 . S
C352 O354 1.230 1_554 S
O353 Tb336 2.427 . S
O353 C352 1.299 . S
O354 Tb336 2.513 1_556 S
O354 C352 1.230 1_556 S
C355 O339 1.245 . S
C355 O340 1.259 . S
Tb356 O359 2.453 . S
Tb356 O360 2.596 . S
Tb356 O361 2.374 . S
Tb356 O369 2.343 . S
Tb356 O371 2.353 . S
Tb356 O373 2.427 . S
Tb356 O374 2.513 . S
C357 O361 1.251 . S
C357 O363 1.263 . S
Tb358 O360 2.343 . S
Tb358 O363 2.353 . S
Tb358 O366 2.427 . S
Tb358 O367 2.513 . S
Tb358 O368 2.453 . S
Tb358 O369 2.596 . S
Tb358 O370 2.374 . S
O359 Tb356 2.453 . S
O359 C375 1.245 . S
O360 Tb356 2.596 . S
O360 Tb358 2.343 . S
O360 C375 1.259 . S
O361 Tb356 2.374 . S
O361 C357 1.251 . S
C362 O366 1.275 . S
C362 O367 1.246 . S
O363 C357 1.263 . S
O363 Tb358 2.353 . S
C364 O368 1.245 . S
C364 O369 1.259 . S
C365 O370 1.250 . S
C365 O371 1.263 . S
O366 Tb358 2.427 . S
O366 C362 1.275 . S
O367 Tb358 2.513 . S
O367 C362 1.246 . S
O368 Tb358 2.453 . S
O368 C364 1.245 . S
O369 Tb356 2.343 . S
O369 Tb358 2.596 . S
O369 C364 1.259 . S
O370 Tb358 2.374 . S
O370 C365 1.250 . S
O371 Tb356 2.353 . S
O371 C365 1.263 . S
C372 O373 1.275 . S
C372 O374 1.246 . S
O373 Tb356 2.427 . S
O373 C372 1.275 . S
O374 Tb356 2.513 . S
O374 C372 1.246 . S
C375 O359 1.245 . S
C375 O360 1.259 . S
Tb376 O379 2.453 . S
Tb376 O380 2.596 . S
Tb376 O381 2.374 . S
Tb376 O389 2.343 . S
Tb376 O391 2.353 . S
Tb376 O393 2.427 . S
Tb376 O394 2.513 . S
C377 O381 1.251 . S
C377 O383 1.263 . S
Tb378 O380 2.343 . S
Tb378 O383 2.353 . S
Tb378 O386 2.427 . S
Tb378 O387 2.513 . S
Tb378 O388 2.453 1_545 S
Tb378 O389 2.596 . S
Tb378 O390 2.374 . S
O379 Tb376 2.453 . S
O379 C395 1.245 . S
O380 Tb376 2.596 . S
O380 Tb378 2.343 . S
O380 C395 1.259 . S
O381 Tb376 2.374 . S
O381 C377 1.251 . S
C382 O386 1.275 . S
C382 O387 1.246 . S
O383 C377 1.263 . S
O383 Tb378 2.353 . S
C384 O388 1.245 . S
C384 O389 1.259 1_565 S
C385 O390 1.250 . S
C385 O391 1.263 . S
O386 Tb378 2.427 . S
O386 C382 1.275 . S
O387 Tb378 2.513 . S
O387 C382 1.246 . S
O388 Tb378 2.453 1_565 S
O388 C384 1.245 . S
O389 Tb376 2.343 . S
O389 Tb378 2.596 . S
O389 C384 1.259 1_545 S
O390 Tb378 2.374 . S
O390 C385 1.250 . S
O391 Tb376 2.353 . S
O391 C385 1.263 . S
C392 O393 1.282 . S
C392 O394 1.247 . S
O393 Tb376 2.427 . S
O393 C392 1.282 . S
O394 Tb376 2.513 . S
O394 C392 1.247 . S
C395 O379 1.245 . S
C395 O380 1.259 . S
Tb396 O399 2.453 . S
Tb396 O400 2.596 . S
Tb396 O401 2.374 . S
Tb396 O409 2.343 . S
Tb396 O411 2.353 . S
Tb396 O413 2.427 . S
Tb396 O414 2.513 . S
C397 O401 1.251 . S
C397 O403 1.263 . S
Tb398 O400 2.343 . S
Tb398 O403 2.353 . S
Tb398 O406 2.427 . S
Tb398 O407 2.513 . S
Tb398 O408 2.453 . S
Tb398 O409 2.596 . S
Tb398 O410 2.374 . S
O399 Tb396 2.453 . S
O399 C415 1.245 . S
O400 Tb396 2.596 . S
O400 Tb398 2.343 . S
O400 C415 1.259 . S
O401 Tb396 2.374 . S
O401 C397 1.251 . S
C402 O406 1.275 . S
C402 O407 1.246 . S
O403 C397 1.263 . S
O403 Tb398 2.353 . S
C404 O408 1.245 . S
C404 O409 1.259 . S
C405 O410 1.250 . S
C405 O411 1.263 . S
O406 Tb398 2.427 . S
O406 C402 1.275 . S
O407 Tb398 2.513 . S
O407 C402 1.246 . S
O408 Tb398 2.453 . S
O408 C404 1.245 . S
O409 Tb396 2.343 . S
O409 Tb398 2.596 . S
O409 C404 1.259 . S
O410 Tb398 2.374 . S
O410 C405 1.250 . S
O411 Tb396 2.353 . S
O411 C405 1.263 . S
C412 O413 1.275 . S
C412 O414 1.246 . S
O413 Tb396 2.427 . S
O413 C412 1.275 . S
O414 Tb396 2.513 . S
O414 C412 1.246 . S
C415 O399 1.245 . S
C415 O400 1.259 . S
Tb416 O419 2.453 1_545 S
Tb416 O420 2.596 . S
Tb416 O421 2.374 1_455 S
Tb416 O429 2.343 . S
Tb416 O431 2.353 . S
Tb416 O433 2.427 . S
Tb416 O434 2.513 1_455 S
C417 O421 1.251 . S
C417 O423 1.263 . S
Tb418 O420 2.343 . S
Tb418 O423 2.353 1_455 S
Tb418 O426 2.427 . S
Tb418 O427 2.513 . S
Tb418 O428 2.453 . S
Tb418 O429 2.596 . S
Tb418 O430 2.374 . S
O419 Tb416 2.453 1_565 S
O419 C435 1.245 . S
O420 Tb416 2.596 . S
O420 Tb418 2.343 . S
O420 C435 1.259 1_545 S
O421 Tb416 2.374 1_655 S
O421 C417 1.251 . S
C422 O426 1.275 . S
C422 O427 1.246 . S
O423 C417 1.263 . S
O423 Tb418 2.353 1_655 S
C424 O428 1.245 . S
C424 O429 1.259 . S
C425 O430 1.250 . S
C425 O431 1.263 . S
O426 Tb418 2.427 . S
O426 C422 1.275 . S
O427 Tb418 2.513 . S
O427 C422 1.246 . S
O428 Tb418 2.453 . S
O428 C424 1.245 . S
O429 Tb416 2.343 . S
O429 Tb418 2.596 . S
O429 C424 1.259 . S
O430 Tb418 2.374 . S
O430 C425 1.250 . S
O431 Tb416 2.353 . S
O431 C425 1.263 . S
C432 O433 1.275 1_655 S
C432 O434 1.246 . S
O433 Tb416 2.427 . S
O433 C432 1.275 1_455 S
O434 Tb416 2.513 1_655 S
O434 C432 1.246 . S
C435 O419 1.245 . S
C435 O420 1.259 1_565 S
Tb436 O439 2.453 . S
Tb436 O440 2.596 . S
Tb436 O441 2.374 . S
Tb436 O449 2.343 . S
Tb436 O451 2.353 . S
Tb436 O453 2.427 . S
Tb436 O454 2.513 . S
C437 O441 1.251 . S
C437 O443 1.263 . S
Tb438 O440 2.343 . S
Tb438 O443 2.353 . S
Tb438 O446 2.427 . S
Tb438 O447 2.513 . S
Tb438 O448 2.453 . S
Tb438 O449 2.596 . S
Tb438 O450 2.374 . S
O439 Tb436 2.453 . S
O439 C455 1.245 . S
O440 Tb436 2.596 . S
O440 Tb438 2.343 . S
O440 C455 1.259 . S
O441 Tb436 2.374 . S
O441 C437 1.251 . S
C442 O446 1.275 . S
C442 O447 1.246 . S
O443 C437 1.263 . S
O443 Tb438 2.353 . S
C444 O448 1.245 . S
C444 O449 1.259 . S
C445 O450 1.250 . S
C445 O451 1.263 . S
O446 Tb438 2.427 . S
O446 C442 1.275 . S
O447 Tb438 2.513 . S
O447 C442 1.246 . S
O448 Tb438 2.453 . S
O448 C444 1.245 . S
O449 Tb436 2.343 . S
O449 Tb438 2.596 . S
O449 C444 1.259 . S
O450 Tb438 2.374 . S
O450 C445 1.250 . S
O451 Tb436 2.353 . S
O451 C445 1.263 . S
C452 O453 1.275 . S
C452 O454 1.246 . S
O453 Tb436 2.427 . S
O453 C452 1.275 . S
O454 Tb436 2.513 . S
O454 C452 1.246 . S
C455 O439 1.245 . S
C455 O440 1.259 . S
Tb456 O459 2.453 . S
Tb456 O460 2.596 . S
Tb456 O461 2.374 1_545 S
Tb456 O469 2.343 1_556 S
Tb456 O471 2.353 1_556 S
Tb456 O473 2.427 1_556 S
Tb456 O474 2.513 1_546 S
C457 O461 1.251 . S
C457 O463 1.263 1_556 S
Tb458 O460 2.343 1_554 S
Tb458 O463 2.353 1_545 S
Tb458 O466 2.427 . S
Tb458 O467 2.513 . S
Tb458 O468 2.453 . S
Tb458 O469 2.596 . S
Tb458 O470 2.374 . S
O459 Tb456 2.453 . S
O459 C475 1.245 . S
O460 Tb456 2.596 . S
O460 Tb458 2.343 1_556 S
O460 C475 1.259 . S
O461 Tb456 2.374 1_565 S
O461 C457 1.251 . S
C462 O466 1.275 . S
C462 O467 1.246 . S
O463 C457 1.263 1_554 S
O463 Tb458 2.353 1_565 S
C464 O468 1.245 . S
C464 O469 1.259 . S
C465 O470 1.250 . S
C465 O471 1.263 . S
O466 Tb458 2.427 . S
O466 C462 1.275 . S
O467 Tb458 2.513 . S
O467 C462 1.246 . S
O468 Tb458 2.453 . S
O468 C464 1.245 . S
O469 Tb456 2.343 1_554 S
O469 Tb458 2.596 . S
O469 C464 1.259 . S
O470 Tb458 2.374 . S
O470 C465 1.250 . S
O471 Tb456 2.353 1_554 S
O471 C465 1.263 . S
C472 O473 1.275 . S
C472 O474 1.246 1_545 S
O473 Tb456 2.427 1_554 S
O473 C472 1.275 . S
O474 Tb456 2.513 1_564 S
O474 C472 1.246 1_565 S
C475 O459 1.245 . S
C475 O460 1.259 . S
Tb476 O479 2.453 . S
Tb476 O480 2.596 . S
Tb476 O481 2.374 . S
Tb476 O489 2.343 . S
Tb476 O491 2.353 . S
Tb476 O493 2.427 . S
Tb476 O494 2.513 . S
C477 O481 1.251 . S
C477 O483 1.263 . S
Tb478 O480 2.343 . S
Tb478 O483 2.353 . S
Tb478 O486 2.427 . S
Tb478 O487 2.513 . S
Tb478 O488 2.453 . S
Tb478 O489 2.596 . S
Tb478 O490 2.374 . S
O479 Tb476 2.453 . S
O479 C495 1.245 . S
O480 Tb476 2.596 . S
O480 Tb478 2.343 . S
O480 C495 1.259 . S
O481 Tb476 2.374 . S
O481 C477 1.251 . S
C482 O486 1.275 . S
C482 O487 1.246 . S
O483 C477 1.263 . S
O483 Tb478 2.353 . S
C484 O488 1.245 . S
C484 O489 1.259 . S
C485 O490 1.250 . S
C485 O491 1.263 . S
O486 Tb478 2.427 . S
O486 C482 1.275 . S
O487 Tb478 2.513 . S
O487 C482 1.246 . S
O488 Tb478 2.453 . S
O488 C484 1.245 . S
O489 Tb476 2.343 . S
O489 Tb478 2.596 . S
O489 C484 1.259 . S
O490 Tb478 2.374 . S
O490 C485 1.250 . S
O491 Tb476 2.353 . S
O491 C485 1.263 . S
C492 O493 1.275 . S
C492 O494 1.246 . S
O493 Tb476 2.427 . S
O493 C492 1.275 . S
O494 Tb476 2.513 . S
O494 C492 1.246 . S
C495 O479 1.245 . S
C495 O480 1.259 . S
Tb496 O499 2.453 1_556 S
Tb496 O500 2.596 1_556 S
Tb496 O501 2.396 . S
Tb496 O509 2.343 . S
Tb496 O511 2.353 . S
Tb496 O513 2.427 . S
Tb496 O514 2.513 . S
C497 O501 1.212 1_554 S
C497 O503 1.263 . S
Tb498 O500 2.343 . S
Tb498 O503 2.353 . S
Tb498 O506 2.427 . S
Tb498 O507 2.513 . S
Tb498 O508 2.453 . S
Tb498 O509 2.596 1_554 S
Tb498 O510 2.374 . S
O499 Tb496 2.453 1_554 S
O499 C515 1.245 . S
O500 Tb496 2.596 1_554 S
O500 Tb498 2.343 . S
O500 C515 1.259 . S
O501 Tb496 2.396 . S
O501 C497 1.212 1_556 S
C502 O506 1.275 . S
C502 O507 1.246 . S
O503 C497 1.263 . S
O503 Tb498 2.353 . S
C504 O508 1.287 . S
C504 O509 1.257 1_554 S
C505 O510 1.250 . S
C505 O511 1.263 1_554 S
O506 Tb498 2.427 . S
O506 C502 1.275 . S
O507 Tb498 2.513 . S
O507 C502 1.246 . S
O508 Tb498 2.453 . S
O508 C504 1.287 . S
O509 Tb496 2.343 . S
O509 Tb498 2.596 1_556 S
O509 C504 1.257 1_556 S
O510 Tb498 2.374 . S
O510 C505 1.250 . S
O511 Tb496 2.353 . S
O511 C505 1.263 1_556 S
C512 O513 1.275 . S
C512 O514 1.246 . S
O513 Tb496 2.427 . S
O513 C512 1.275 . S
O514 Tb496 2.513 . S
O514 C512 1.246 . S
C515 O499 1.245 . S
C515 O500 1.259 . S
Tb516 O519 2.453 . S
Tb516 O520 2.596 . S
Tb516 O521 2.374 . S
Tb516 O529 2.343 . S
Tb516 O531 2.353 . S
Tb516 O533 2.427 . S
Tb516 O534 2.513 . S
C517 O521 1.251 . S
C517 O523 1.263 . S
Tb518 O520 2.343 . S
Tb518 O523 2.353 . S
Tb518 O526 2.427 . S
Tb518 O527 2.513 . S
Tb518 O528 2.453 . S
Tb518 O529 2.596 . S
Tb518 O530 2.374 . S
O519 Tb516 2.453 . S
O519 C535 1.245 . S
O520 Tb516 2.596 . S
O520 Tb518 2.343 . S
O520 C535 1.259 . S
O521 Tb516 2.374 . S
O521 C517 1.251 . S
C522 O526 1.275 . S
C522 O527 1.246 . S
O523 C517 1.263 . S
O523 Tb518 2.353 . S
C524 O528 1.245 . S
C524 O529 1.259 . S
C525 O530 1.250 . S
C525 O531 1.263 . S
O526 Tb518 2.427 . S
O526 C522 1.275 . S
O527 Tb518 2.513 . S
O527 C522 1.246 . S
O528 Tb518 2.453 . S
O528 C524 1.245 . S
O529 Tb516 2.343 . S
O529 Tb518 2.596 . S
O529 C524 1.259 . S
O530 Tb518 2.374 . S
O530 C525 1.250 . S
O531 Tb516 2.353 . S
O531 C525 1.263 . S
C532 O533 1.275 . S
C532 O534 1.246 . S
O533 Tb516 2.427 . S
O533 C532 1.275 . S
O534 Tb516 2.513 . S
O534 C532 1.246 . S
C535 O519 1.245 . S
C535 O520 1.259 . S
Tb536 O539 2.461 . S
Tb536 O540 2.596 1_655 S
Tb536 O541 2.374 . S
Tb536 O549 2.343 . S
Tb536 O551 2.353 . S
Tb536 O553 2.427 . S
Tb536 O554 2.513 . S
C537 O541 1.251 1_455 S
C537 O543 1.263 . S
Tb538 O540 2.343 . S
Tb538 O543 2.353 . S
Tb538 O546 2.427 . S
Tb538 O547 2.513 . S
Tb538 O548 2.453 . S
Tb538 O549 2.596 1_455 S
Tb538 O550 2.374 . S
O539 Tb536 2.461 . S
O539 C555 1.233 1_655 S
O540 Tb536 2.596 1_455 S
O540 Tb538 2.343 . S
O540 C555 1.259 . S
O541 Tb536 2.374 . S
O541 C537 1.251 1_655 S
C542 O546 1.275 . S
C542 O547 1.246 . S
O543 C537 1.263 . S
O543 Tb538 2.353 . S
C544 O548 1.245 1_655 S
C544 O549 1.259 . S
C545 O550 1.250 . S
C545 O551 1.263 1_455 S
O546 Tb538 2.427 . S
O546 C542 1.275 . S
O547 Tb538 2.513 . S
O547 C542 1.246 . S
O548 Tb538 2.453 . S
O548 C544 1.245 1_455 S
O549 Tb536 2.343 . S
O549 Tb538 2.596 1_655 S
O549 C544 1.259 . S
O550 Tb538 2.374 . S
O550 C545 1.250 . S
O551 Tb536 2.353 . S
O551 C545 1.263 1_655 S
C552 O553 1.275 . S
C552 O554 1.246 . S
O553 Tb536 2.427 . S
O553 C552 1.275 . S
O554 Tb536 2.513 . S
O554 C552 1.246 . S
C555 O539 1.233 1_455 S
C555 O540 1.259 . S
Tb556 O559 2.453 . S
Tb556 O560 2.596 . S
Tb556 O561 2.374 . S
Tb556 O569 2.343 . S
Tb556 O571 2.353 . S
Tb556 O573 2.427 . S
Tb556 O574 2.513 . S
C557 O561 1.251 . S
C557 O563 1.263 . S
Tb558 O560 2.343 . S
Tb558 O563 2.353 . S
Tb558 O566 2.427 . S
Tb558 O567 2.513 . S
Tb558 O568 2.453 . S
Tb558 O569 2.596 . S
Tb558 O570 2.374 . S
O559 Tb556 2.453 . S
O559 C575 1.245 . S
O560 Tb556 2.596 . S
O560 Tb558 2.343 . S
O560 C575 1.259 . S
O561 Tb556 2.374 . S
O561 C557 1.251 . S
C562 O566 1.275 . S
C562 O567 1.246 . S
O563 C557 1.263 . S
O563 Tb558 2.353 . S
C564 O568 1.245 . S
C564 O569 1.259 . S
C565 O570 1.250 . S
C565 O571 1.263 . S
O566 Tb558 2.427 . S
O566 C562 1.275 . S
O567 Tb558 2.513 . S
O567 C562 1.246 . S
O568 Tb558 2.453 . S
O568 C564 1.245 . S
O569 Tb556 2.343 . S
O569 Tb558 2.596 . S
O569 C564 1.259 . S
O570 Tb558 2.374 . S
O570 C565 1.250 . S
O571 Tb556 2.353 . S
O571 C565 1.263 . S
C572 O573 1.275 . S
C572 O574 1.246 . S
O573 Tb556 2.427 . S
O573 C572 1.275 . S
O574 Tb556 2.513 . S
O574 C572 1.246 . S
C575 O559 1.245 . S
C575 O560 1.259 . S
Tb576 O579 2.453 . S
Tb576 O580 2.596 . S
Tb576 O581 2.374 . S
Tb576 O589 2.343 . S
Tb576 O591 2.353 . S
Tb576 O593 2.427 . S
Tb576 O594 2.513 . S
C577 O581 1.251 . S
C577 O583 1.263 . S
Tb578 O580 2.343 . S
Tb578 O583 2.353 . S
Tb578 O586 2.427 . S
Tb578 O587 2.513 . S
Tb578 O588 2.453 . S
Tb578 O589 2.596 . S
Tb578 O590 2.374 . S
O579 Tb576 2.453 . S
O579 C595 1.245 . S
O580 Tb576 2.596 . S
O580 Tb578 2.343 . S
O580 C595 1.259 . S
O581 Tb576 2.374 . S
O581 C577 1.251 . S
C582 O586 1.275 . S
C582 O587 1.246 . S
O583 C577 1.263 . S
O583 Tb578 2.353 . S
C584 O588 1.245 . S
C584 O589 1.259 . S
C585 O590 1.250 . S
C585 O591 1.263 . S
O586 Tb578 2.427 . S
O586 C582 1.275 . S
O587 Tb578 2.513 . S
O587 C582 1.246 . S
O588 Tb578 2.453 . S
O588 C584 1.245 . S
O589 Tb576 2.343 . S
O589 Tb578 2.596 . S
O589 C584 1.259 . S
O590 Tb578 2.374 . S
O590 C585 1.250 . S
O591 Tb576 2.353 . S
O591 C585 1.263 . S
C592 O593 1.275 . S
C592 O594 1.246 . S
O593 Tb576 2.427 . S
O593 C592 1.275 . S
O594 Tb576 2.513 . S
O594 C592 1.246 . S
C595 O579 1.245 . S
C595 O580 1.259 . S
Tb596 O599 2.453 . S
Tb596 O600 2.596 . S
Tb596 O601 2.374 . S
Tb596 O609 2.343 . S
Tb596 O611 2.353 . S
Tb596 O613 2.427 . S
Tb596 O614 2.513 . S
C597 O601 1.251 . S
C597 O603 1.263 . S
Tb598 O600 2.343 . S
Tb598 O603 2.353 . S
Tb598 O606 2.427 . S
Tb598 O607 2.513 . S
Tb598 O608 2.453 . S
Tb598 O609 2.596 . S
Tb598 O610 2.374 . S
O599 Tb596 2.453 . S
O599 C615 1.245 . S
O600 Tb596 2.596 . S
O600 Tb598 2.343 . S
O600 C615 1.259 . S
O601 Tb596 2.374 . S
O601 C597 1.251 . S
C602 O606 1.275 . S
C602 O607 1.246 . S
O603 C597 1.263 . S
O603 Tb598 2.353 . S
C604 O608 1.245 . S
C604 O609 1.259 . S
C605 O610 1.250 . S
C605 O611 1.263 . S
O606 Tb598 2.427 . S
O606 C602 1.275 . S
O607 Tb598 2.513 . S
O607 C602 1.246 . S
O608 Tb598 2.453 . S
O608 C604 1.245 . S
O609 Tb596 2.343 . S
O609 Tb598 2.596 . S
O609 C604 1.259 . S
O610 Tb598 2.374 . S
O610 C605 1.250 . S
O611 Tb596 2.353 . S
O611 C605 1.263 . S
C612 O613 1.275 . S
C612 O614 1.246 . S
O613 Tb596 2.427 . S
O613 C612 1.275 . S
O614 Tb596 2.513 . S
O614 C612 1.246 . S
C615 O599 1.245 . S
C615 O600 1.259 . S
Tb616 O619 2.453 . S
Tb616 O620 2.596 . S
Tb616 O621 2.374 . S
Tb616 O629 2.343 . S
Tb616 O631 2.353 . S
Tb616 O633 2.427 . S
Tb616 O634 2.513 . S
C617 O621 1.251 . S
C617 O623 1.263 . S
Tb618 O620 2.343 . S
Tb618 O623 2.353 . S
Tb618 O626 2.427 . S
Tb618 O627 2.513 . S
Tb618 O628 2.453 . S
Tb618 O629 2.596 . S
Tb618 O630 2.374 . S
O619 Tb616 2.453 . S
O619 C635 1.245 . S
O620 Tb616 2.596 . S
O620 Tb618 2.343 . S
O620 C635 1.259 . S
O621 Tb616 2.374 . S
O621 C617 1.251 . S
C622 O626 1.275 . S
C622 O627 1.246 . S
O623 C617 1.263 . S
O623 Tb618 2.353 . S
C624 O628 1.245 . S
C624 O629 1.259 . S
C625 O630 1.250 . S
C625 O631 1.263 . S
O626 Tb618 2.427 . S
O626 C622 1.275 . S
O627 Tb618 2.513 . S
O627 C622 1.246 . S
O628 Tb618 2.453 . S
O628 C624 1.245 . S
O629 Tb616 2.343 . S
O629 Tb618 2.596 . S
O629 C624 1.259 . S
O630 Tb618 2.374 . S
O630 C625 1.250 . S
O631 Tb616 2.353 . S
O631 C625 1.263 . S
C632 O633 1.275 . S
C632 O634 1.246 . S
O633 Tb616 2.427 . S
O633 C632 1.275 . S
O634 Tb616 2.513 . S
O634 C632 1.246 . S
C635 O619 1.245 . S
C635 O620 1.259 . S
Tb636 O639 2.453 . S
Tb636 O640 2.596 . S
Tb636 O641 2.374 . S
Tb636 O649 2.343 . S
Tb636 O651 2.353 1_554 S
Tb636 O653 2.427 1_554 S
Tb636 O654 2.513 . S
C637 O641 1.251 . S
C637 O643 1.263 1_455 S
Tb638 O640 2.343 1_655 S
Tb638 O643 2.353 . S
Tb638 O646 2.427 . S
Tb638 O647 2.513 . S
Tb638 O648 2.453 . S
Tb638 O649 2.596 1_655 S
Tb638 O650 2.374 1_554 S
O639 Tb636 2.453 . S
O639 C655 1.245 . S
O640 Tb636 2.596 . S
O640 Tb638 2.343 1_455 S
O640 C655 1.259 . S
O641 Tb636 2.374 . S
O641 C637 1.251 . S
C642 O646 1.275 . S
C642 O647 1.246 . S
O643 C637 1.263 1_655 S
O643 Tb638 2.353 . S
C644 O648 1.239 1_556 S
C644 O649 1.257 1_656 S
C645 O650 1.250 . S
C645 O651 1.263 1_655 S
O646 Tb638 2.427 . S
O646 C642 1.275 . S
O647 Tb638 2.513 . S
O647 C642 1.246 . S
O648 Tb638 2.453 . S
O648 C644 1.239 1_554 S
O649 Tb636 2.343 . S
O649 Tb638 2.596 1_455 S
O649 C644 1.257 1_454 S
O650 Tb638 2.374 1_556 S
O650 C645 1.250 . S
O651 Tb636 2.353 1_556 S
O651 C645 1.263 1_455 S
C652 O653 1.284 . S
C652 O654 1.233 1_556 S
O653 Tb636 2.427 1_556 S
O653 C652 1.284 . S
O654 Tb636 2.513 . S
O654 C652 1.233 1_554 S
C655 O639 1.245 . S
C655 O640 1.259 . S
H656 C662 0.930 . S
H657 C666 0.930 1_554 S
H658 C671 0.929 . S
H659 C669 0.929 . S
H660 C664 0.929 . S
H661 C670 0.929 . S
C662 H656 0.930 . S
C662 C663 1.367 . S
C662 C670 1.378 . S
C663 C662 1.367 . S
C663 C671 1.433 1_455 S
C664 H660 0.929 . S
C664 C666 1.378 . S
C664 C668 1.350 1_655 S
C665 C668 1.463 . S
C665 C670 1.350 . S
C665 N673 1.427 1_455 S
C666 H657 0.930 1_556 S
C666 C664 1.378 . S
C666 C667 1.367 1_655 S
C667 C666 1.367 1_455 S
C667 C669 1.433 . S
C668 C664 1.350 1_455 S
C668 C665 1.463 . S
C668 N672 1.427 . S
C669 H659 0.929 . S
C669 C667 1.433 . S
C669 N672 1.384 . S
C670 H661 0.929 . S
C670 C662 1.378 . S
C670 C665 1.350 . S
C671 H658 0.929 . S
C671 C663 1.433 1_655 S
C671 N673 1.384 . S
N672 C668 1.427 . S
N672 C669 1.384 . S
N673 C665 1.427 1_655 S
N673 C671 1.384 . S
H674 C680 0.930 . S
H675 C684 0.930 . S
H676 C689 0.929 . S
H677 C687 0.929 . S
H678 C682 0.929 . S
H679 C688 0.929 . S
C680 H674 0.930 . S
C680 C681 1.367 . S
C680 C688 1.378 . S
C681 C680 1.367 . S
C681 C689 1.433 . S
C682 H678 0.929 . S
C682 C684 1.378 . S
C682 C686 1.350 . S
C683 C686 1.463 . S
C683 C688 1.350 . S
C683 N691 1.427 . S
C684 H675 0.930 . S
C684 C682 1.378 . S
C684 C685 1.367 . S
C685 C684 1.367 . S
C685 C687 1.433 . S
C686 C682 1.350 . S
C686 C683 1.463 . S
C686 N690 1.427 . S
C687 H677 0.929 . S
C687 C685 1.433 . S
C687 N690 1.384 . S
C688 H679 0.929 . S
C688 C680 1.378 . S
C688 C683 1.350 . S
C689 H676 0.929 . S
C689 C681 1.433 . S
C689 N691 1.384 . S
N690 C686 1.427 . S
N690 C687 1.384 . S
N691 C683 1.427 . S
N691 C689 1.384 . S
H692 C698 0.930 . S
H693 C702 0.930 . S
H694 C707 0.929 . S
H695 C705 0.929 . S
H696 C700 0.929 . S
H697 C706 0.929 . S
C698 H692 0.930 . S
C698 C699 1.367 . S
C698 C706 1.378 . S
C699 C698 1.367 . S
C699 C707 1.433 . S
C700 H696 0.929 . S
C700 C702 1.378 . S
C700 C704 1.350 . S
C701 C704 1.463 . S
C701 C706 1.350 . S
C701 N709 1.427 . S
C702 H693 0.930 . S
C702 C700 1.378 . S
C702 C703 1.367 . S
C703 C702 1.367 . S
C703 C705 1.433 . S
C704 C700 1.350 . S
C704 C701 1.463 . S
C704 N708 1.427 . S
C705 H695 0.929 . S
C705 C703 1.433 . S
C705 N708 1.384 . S
C706 H697 0.929 . S
C706 C698 1.378 . S
C706 C701 1.350 . S
C707 H694 0.929 . S
C707 C699 1.433 . S
C707 N709 1.384 . S
N708 C704 1.427 . S
N708 C705 1.384 . S
N709 C701 1.427 . S
N709 C707 1.384 . S
H710 C716 0.930 . S
H711 C720 0.930 . S
H712 C725 0.929 . S
H713 C723 0.929 . S
H714 C718 0.929 . S
H715 C724 0.929 . S
C716 H710 0.930 . S
C716 C717 1.367 . S
C716 C724 1.378 . S
C717 C716 1.367 . S
C717 C725 1.433 . S
C718 H714 0.929 . S
C718 C720 1.378 . S
C718 C722 1.350 . S
C719 C722 1.463 . S
C719 C724 1.350 . S
C719 N727 1.427 . S
C720 H711 0.930 . S
C720 C718 1.378 . S
C720 C721 1.367 . S
C721 C720 1.367 . S
C721 C723 1.433 . S
C722 C718 1.350 . S
C722 C719 1.463 . S
C722 N726 1.427 . S
C723 H713 0.929 . S
C723 C721 1.433 . S
C723 N726 1.384 . S
C724 H715 0.929 . S
C724 C716 1.378 . S
C724 C719 1.350 . S
C725 H712 0.929 . S
C725 C717 1.433 . S
C725 N727 1.384 . S
N726 C722 1.427 . S
N726 C723 1.384 . S
N727 C719 1.427 . S
N727 C725 1.384 . S
H728 C734 0.930 . S
H729 C738 0.930 . S
H730 C743 0.929 . S
H731 C741 0.929 . S
H732 C736 0.929 . S
H733 C742 0.929 . S
C734 H728 0.930 . S
C734 C735 1.367 1_655 S
C734 C742 1.378 . S
C735 C734 1.367 1_455 S
C735 C743 1.433 . S
C736 H732 0.929 . S
C736 C738 1.378 . S
C736 C740 1.350 . S
C737 C740 1.463 . S
C737 C742 1.350 1_455 S
C737 N745 1.427 . S
C738 H729 0.930 . S
C738 C736 1.378 . S
C738 C739 1.367 . S
C739 C738 1.367 . S
C739 C741 1.433 1_455 S
C740 C736 1.350 . S
C740 C737 1.463 . S
C740 N744 1.427 1_455 S
C741 H731 0.929 . S
C741 C739 1.433 1_655 S
C741 N744 1.384 . S
C742 H733 0.929 . S
C742 C734 1.378 . S
C742 C737 1.350 1_655 S
C743 H730 0.929 . S
C743 C735 1.433 . S
C743 N745 1.384 . S
N744 C740 1.427 1_655 S
N744 C741 1.384 . S
N745 C737 1.427 . S
N745 C743 1.384 . S
H746 C752 0.930 . S
H747 C756 0.930 . S
H748 C761 0.929 . S
H749 C759 0.929 . S
H750 C754 0.929 . S
H751 C760 0.929 . S
C752 H746 0.930 . S
C752 C753 1.367 . S
C752 C760 1.378 . S
C753 C752 1.367 . S
C753 C761 1.433 . S
C754 H750 0.929 . S
C754 C756 1.378 . S
C754 C758 1.350 . S
C755 C758 1.463 . S
C755 C760 1.350 . S
C755 N763 1.427 . S
C756 H747 0.930 . S
C756 C754 1.378 . S
C756 C757 1.367 . S
C757 C756 1.367 . S
C757 C759 1.433 . S
C758 C754 1.350 . S
C758 C755 1.463 . S
C758 N762 1.427 . S
C759 H749 0.929 . S
C759 C757 1.433 . S
C759 N762 1.384 . S
C760 H751 0.929 . S
C760 C752 1.378 . S
C760 C755 1.350 . S
C761 H748 0.929 . S
C761 C753 1.433 . S
C761 N763 1.384 . S
N762 C758 1.427 . S
N762 C759 1.384 . S
N763 C755 1.427 . S
N763 C761 1.384 . S
H764 C770 0.930 . S
H765 C774 0.930 . S
H766 C779 0.929 . S
H767 C777 0.929 . S
H768 C772 0.929 . S
H769 C778 0.929 . S
C770 H764 0.930 . S
C770 C771 1.367 . S
C770 C778 1.378 . S
C771 C770 1.367 . S
C771 C779 1.433 . S
C772 H768 0.929 . S
C772 C774 1.378 . S
C772 C776 1.350 . S
C773 C776 1.463 . S
C773 C778 1.350 . S
C773 N781 1.427 . S
C774 H765 0.930 . S
C774 C772 1.378 . S
C774 C775 1.367 . S
C775 C774 1.367 . S
C775 C777 1.433 . S
C776 C772 1.350 . S
C776 C773 1.463 . S
C776 N780 1.427 . S
C777 H767 0.929 . S
C777 C775 1.433 . S
C777 N780 1.384 . S
C778 H769 0.929 . S
C778 C770 1.378 . S
C778 C773 1.350 . S
C779 H766 0.929 . S
C779 C771 1.433 . S
C779 N781 1.384 . S
N780 C776 1.427 . S
N780 C777 1.384 . S
N781 C773 1.427 . S
N781 C779 1.384 . S
H782 C788 0.930 . S
H783 C792 0.930 . S
H784 C797 0.929 . S
H785 C795 0.929 . S
H786 C790 0.929 . S
H787 C796 0.929 . S
C788 H782 0.930 . S
C788 C789 1.367 . S
C788 C796 1.378 . S
C789 C788 1.367 . S
C789 C797 1.433 . S
C790 H786 0.929 . S
C790 C792 1.378 . S
C790 C794 1.350 . S
C791 C794 1.463 . S
C791 C796 1.350 . S
C791 N799 1.427 . S
C792 H783 0.930 . S
C792 C790 1.378 . S
C792 C793 1.367 . S
C793 C792 1.367 . S
C793 C795 1.433 . S
C794 C790 1.350 . S
C794 C791 1.463 . S
C794 N798 1.427 . S
C795 H785 0.929 . S
C795 C793 1.433 . S
C795 N798 1.384 . S
C796 H787 0.929 . S
C796 C788 1.378 . S
C796 C791 1.350 . S
C797 H784 0.929 . S
C797 C789 1.433 . S
C797 N799 1.384 . S
N798 C794 1.427 . S
N798 C795 1.384 . S
N799 C791 1.427 . S
N799 C797 1.384 . S
H800 C806 0.930 . S
H801 C810 0.930 . S
H802 C815 0.929 . S
H803 C813 0.929 1_455 S
H804 C808 0.929 . S
H805 C814 0.929 . S
C806 H800 0.930 . S
C806 C807 1.367 . S
C806 C814 1.378 . S
C807 C806 1.367 . S
C807 C815 1.433 . S
C808 H804 0.929 . S
C808 C810 1.378 . S
C808 C812 1.350 . S
C809 C812 1.463 . S
C809 C814 1.350 . S
C809 N817 1.427 . S
C810 H801 0.930 . S
C810 C808 1.378 . S
C810 C811 1.367 . S
C811 C810 1.367 . S
C811 C813 1.433 . S
C812 C808 1.350 . S
C812 C809 1.463 . S
C812 N816 1.427 . S
C813 H803 0.929 1_655 S
C813 C811 1.433 . S
C813 N816 1.384 . S
C814 H805 0.929 . S
C814 C806 1.378 . S
C814 C809 1.350 . S
C815 H802 0.929 . S
C815 C807 1.433 . S
C815 N817 1.384 . S
N816 C812 1.427 . S
N816 C813 1.384 . S
N817 C809 1.427 . S
N817 C815 1.384 . S
H818 C824 0.930 . S
H819 C828 0.930 . S
H820 C833 0.929 . S
H821 C831 0.929 . S
H822 C826 0.929 . S
H823 C832 0.929 . S
C824 H818 0.930 . S
C824 C825 1.367 . S
C824 C832 1.378 . S
C825 C824 1.367 . S
C825 C833 1.433 . S
C826 H822 0.929 . S
C826 C828 1.378 . S
C826 C830 1.350 . S
C827 C830 1.463 . S
C827 C832 1.350 . S
C827 N835 1.427 . S
C828 H819 0.930 . S
C828 C826 1.378 . S
C828 C829 1.367 . S
C829 C828 1.367 . S
C829 C831 1.433 . S
C830 C826 1.350 . S
C830 C827 1.463 . S
C830 N834 1.427 . S
C831 H821 0.929 . S
C831 C829 1.433 . S
C831 N834 1.384 . S
C832 H823 0.929 . S
C832 C824 1.378 . S
C832 C827 1.350 . S
C833 H820 0.929 . S
C833 C825 1.433 . S
C833 N835 1.384 . S
N834 C830 1.427 . S
N834 C831 1.384 . S
N835 C827 1.427 . S
N835 C833 1.384 . S
H836 C842 0.930 . S
H837 C846 0.930 . S
H838 C851 0.929 . S
H839 C849 0.929 . S
H840 C844 0.929 . S
H841 C850 0.929 . S
C842 H836 0.930 . S
C842 C843 1.367 . S
C842 C850 1.378 . S
C843 C842 1.367 . S
C843 C851 1.433 . S
C844 H840 0.929 . S
C844 C846 1.378 . S
C844 C848 1.350 . S
C845 C848 1.463 . S
C845 C850 1.350 . S
C845 N853 1.427 . S
C846 H837 0.930 . S
C846 C844 1.378 . S
C846 C847 1.367 . S
C847 C846 1.367 . S
C847 C849 1.433 . S
C848 C844 1.350 . S
C848 C845 1.463 . S
C848 N852 1.427 . S
C849 H839 0.929 . S
C849 C847 1.433 . S
C849 N852 1.384 . S
C850 H841 0.929 . S
C850 C842 1.378 . S
C850 C845 1.350 . S
C851 H838 0.929 . S
C851 C843 1.433 . S
C851 N853 1.384 . S
N852 C848 1.427 . S
N852 C849 1.384 . S
N853 C845 1.427 . S
N853 C851 1.384 . S
H854 C860 0.930 . S
H855 C864 0.930 . S
H856 C869 0.929 . S
H857 C867 0.929 . S
H858 C862 0.929 . S
H859 C868 0.929 . S
C860 H854 0.930 . S
C860 C861 1.367 . S
C860 C868 1.378 . S
C861 C860 1.367 . S
C861 C869 1.433 . S
C862 H858 0.929 . S
C862 C864 1.378 . S
C862 C866 1.350 . S
C863 C866 1.463 . S
C863 C868 1.350 . S
C863 N871 1.427 . S
C864 H855 0.930 . S
C864 C862 1.378 . S
C864 C865 1.367 . S
C865 C864 1.367 . S
C865 C867 1.433 . S
C866 C862 1.350 . S
C866 C863 1.463 . S
C866 N870 1.427 . S
C867 H857 0.929 . S
C867 C865 1.433 . S
C867 N870 1.384 . S
C868 H859 0.929 . S
C868 C860 1.378 . S
C868 C863 1.350 . S
C869 H856 0.929 . S
C869 C861 1.433 . S
C869 N871 1.384 . S
N870 C866 1.427 . S
N870 C867 1.384 . S
N871 C863 1.427 . S
N871 C869 1.384 . S
H872 C878 0.930 . S
H873 C882 0.930 . S
H874 C887 0.929 . S
H875 C885 0.929 . S
H876 C880 0.929 . S
H877 C886 0.929 . S
C878 H872 0.930 . S
C878 C879 1.367 . S
C878 C886 1.378 . S
C879 C878 1.367 . S
C879 C887 1.433 . S
C880 H876 0.929 . S
C880 C882 1.378 . S
C880 C884 1.350 . S
C881 C884 1.463 . S
C881 C886 1.350 . S
C881 N889 1.427 . S
C882 H873 0.930 . S
C882 C880 1.378 . S
C882 C883 1.367 . S
C883 C882 1.367 . S
C883 C885 1.433 . S
C884 C880 1.350 . S
C884 C881 1.463 . S
C884 N888 1.427 . S
C885 H875 0.929 . S
C885 C883 1.433 . S
C885 N888 1.384 . S
C886 H877 0.929 . S
C886 C878 1.378 . S
C886 C881 1.350 . S
C887 H874 0.929 . S
C887 C879 1.433 . S
C887 N889 1.384 . S
N888 C884 1.427 . S
N888 C885 1.384 . S
N889 C881 1.427 . S
N889 C887 1.384 . S
H890 C896 0.930 . S
H891 C900 0.930 . S
H892 C905 0.929 . S
H893 C903 0.929 . S
H894 C898 0.929 . S
H895 C904 0.929 . S
C896 H890 0.930 . S
C896 C897 1.367 . S
C896 C904 1.378 . S
C897 C896 1.367 . S
C897 C905 1.433 . S
C898 H894 0.929 . S
C898 C900 1.378 . S
C898 C902 1.350 . S
C899 C902 1.463 . S
C899 C904 1.350 . S
C899 N907 1.427 . S
C900 H891 0.930 . S
C900 C898 1.378 . S
C900 C901 1.367 . S
C901 C900 1.367 . S
C901 C903 1.433 . S
C902 C898 1.350 . S
C902 C899 1.463 . S
C902 N906 1.427 . S
C903 H893 0.929 . S
C903 C901 1.433 . S
C903 N906 1.384 . S
C904 H895 0.929 . S
C904 C896 1.378 . S
C904 C899 1.350 . S
C905 H892 0.929 . S
C905 C897 1.433 . S
C905 N907 1.384 . S
N906 C902 1.427 . S
N906 C903 1.384 . S
N907 C899 1.427 . S
N907 C905 1.384 . S
H908 C914 0.930 . S
H909 C918 0.930 . S
H910 C923 0.929 . S
H911 C921 0.929 . S
H912 C916 0.929 . S
H913 C922 0.929 . S
C914 H908 0.930 . S
C914 C915 1.367 . S
C914 C922 1.378 . S
C915 C914 1.367 . S
C915 C923 1.433 . S
C916 H912 0.929 . S
C916 C918 1.378 . S
C916 C920 1.350 . S
C917 C920 1.463 . S
C917 C922 1.350 . S
C917 N925 1.427 . S
C918 H909 0.930 . S
C918 C916 1.378 . S
C918 C919 1.367 . S
C919 C918 1.367 . S
C919 C921 1.433 . S
C920 C916 1.350 . S
C920 C917 1.463 . S
C920 N924 1.427 . S
C921 H911 0.929 . S
C921 C919 1.433 . S
C921 N924 1.384 . S
C922 H913 0.929 . S
C922 C914 1.378 . S
C922 C917 1.350 . S
C923 H910 0.929 . S
C923 C915 1.433 . S
C923 N925 1.384 . S
N924 C920 1.427 . S
N924 C921 1.384 . S
N925 C917 1.427 . S
N925 C923 1.384 . S
H926 C932 0.930 . S
H927 C936 0.930 . S
H928 C941 0.929 . S
H929 C939 0.929 . S
H930 C934 0.929 . S
H931 C940 0.929 . S
C932 H926 0.930 . S
C932 C933 1.367 . S
C932 C940 1.378 . S
C933 C932 1.367 . S
C933 C941 1.433 . S
C934 H930 0.929 . S
C934 C936 1.378 . S
C934 C938 1.350 . S
C935 C938 1.463 . S
C935 C940 1.350 . S
C935 N943 1.427 . S
C936 H927 0.930 . S
C936 C934 1.378 . S
C936 C937 1.367 . S
C937 C936 1.367 . S
C937 C939 1.433 . S
C938 C934 1.350 . S
C938 C935 1.463 . S
C938 N942 1.427 . S
C939 H929 0.929 . S
C939 C937 1.433 . S
C939 N942 1.384 . S
C940 H931 0.929 . S
C940 C932 1.378 . S
C940 C935 1.350 . S
C941 H928 0.929 . S
C941 C933 1.433 . S
C941 N943 1.384 . S
N942 C938 1.427 . S
N942 C939 1.384 . S
N943 C935 1.427 . S
N943 C941 1.384 . S
H944 C950 0.930 . S
H945 C954 0.930 . S
H946 C959 0.928 1_556 S
H947 C957 0.929 . S
H948 C952 0.929 . S
H949 C958 0.929 . S
C950 H944 0.930 . S
C950 C951 1.367 . S
C950 C958 1.378 . S
C951 C950 1.367 . S
C951 C959 1.433 . S
C952 H948 0.929 . S
C952 C954 1.378 . S
C952 C956 1.350 . S
C953 C956 1.463 . S
C953 C958 1.350 . S
C953 N961 1.427 . S
C954 H945 0.930 . S
C954 C952 1.378 . S
C954 C955 1.371 1_565 S
C955 C954 1.371 1_545 S
C955 C957 1.433 . S
C956 C952 1.350 . S
C956 C953 1.463 . S
C956 N960 1.427 . S
C957 H947 0.929 . S
C957 C955 1.433 . S
C957 N960 1.384 1_545 S
C958 H949 0.929 . S
C958 C950 1.378 . S
C958 C953 1.350 . S
C959 H946 0.928 1_554 S
C959 C951 1.433 . S
C959 N961 1.384 . S
N960 C956 1.427 . S
N960 C957 1.384 1_565 S
N961 C953 1.427 . S
N961 C959 1.384 . S
H962 C968 0.930 . S
H963 C972 0.930 . S
H964 C977 0.929 . S
H965 C975 0.929 . S
H966 C970 0.929 . S
H967 C976 0.929 . S
C968 H962 0.930 . S
C968 C969 1.367 1_554 S
C968 C976 1.378 . S
C969 C968 1.367 1_556 S
C969 C977 1.433 . S
C970 H966 0.929 . S
C970 C972 1.378 . S
C970 C974 1.350 . S
C971 C974 1.459 . S
C971 C976 1.321 1_556 S
C971 N979 1.463 . S
C972 H963 0.930 . S
C972 C970 1.378 . S
C972 C973 1.351 1_556 S
C973 C972 1.351 1_554 S
C973 C975 1.446 . S
C974 C970 1.350 . S
C974 C971 1.459 . S
C974 N978 1.427 1_556 S
C975 H965 0.929 . S
C975 C973 1.446 . S
C975 N978 1.384 . S
C976 H967 0.929 . S
C976 C968 1.378 . S
C976 C971 1.321 1_554 S
C977 H964 0.929 . S
C977 C969 1.433 . S
C977 N979 1.384 . S
N978 C974 1.427 1_554 S
N978 C975 1.384 . S
N979 C971 1.463 . S
N979 C977 1.384 . S
H980 C986 0.930 . S
H981 C990 0.930 . S
H982 C995 0.929 . S
H983 C993 0.929 . S
H984 C988 0.929 . S
H985 C994 0.929 . S
C986 H980 0.930 . S
C986 C987 1.367 . S
C986 C994 1.378 . S
C987 C986 1.367 . S
C987 C995 1.433 . S
C988 H984 0.929 . S
C988 C990 1.378 . S
C988 C992 1.350 . S
C989 C992 1.463 . S
C989 C994 1.350 . S
C989 N997 1.427 . S
C990 H981 0.930 . S
C990 C988 1.378 . S
C990 C991 1.367 . S
C991 C990 1.367 . S
C991 C993 1.433 . S
C992 C988 1.350 . S
C992 C989 1.463 . S
C992 N996 1.427 . S
C993 H983 0.929 . S
C993 C991 1.433 . S
C993 N996 1.384 . S
C994 H985 0.929 . S
C994 C986 1.378 . S
C994 C989 1.350 . S
C995 H982 0.929 . S
C995 C987 1.433 . S
C995 N997 1.384 . S
N996 C992 1.427 . S
N996 C993 1.384 . S
N997 C989 1.427 . S
N997 C995 1.384 . S
H998 C1004 0.930 . S
H999 C1008 0.930 . S
H1000 C1013 0.929 . S
H1001 C1011 0.929 . S
H1002 C1006 0.929 . S
H1003 C1012 0.929 . S
C1004 H998 0.930 . S
C1004 C1005 1.367 . S
C1004 C1012 1.378 . S
C1005 C1004 1.367 . S
C1005 C1013 1.433 . S
C1006 H1002 0.929 . S
C1006 C1008 1.378 . S
C1006 C1010 1.350 . S
C1007 C1010 1.463 . S
C1007 C1012 1.350 . S
C1007 N1015 1.427 . S
C1008 H999 0.930 . S
C1008 C1006 1.378 . S
C1008 C1009 1.367 . S
C1009 C1008 1.367 . S
C1009 C1011 1.433 . S
C1010 C1006 1.350 . S
C1010 C1007 1.463 . S
C1010 N1014 1.427 . S
C1011 H1001 0.929 . S
C1011 C1009 1.433 . S
C1011 N1014 1.384 . S
C1012 H1003 0.929 . S
C1012 C1004 1.378 . S
C1012 C1007 1.350 . S
C1013 H1000 0.929 . S
C1013 C1005 1.433 . S
C1013 N1015 1.384 . S
N1014 C1010 1.427 . S
N1014 C1011 1.384 . S
N1015 C1007 1.427 . S
N1015 C1013 1.384 . S
H1016 C1022 0.930 . S
H1017 C1026 0.930 . S
H1018 C1031 0.929 . S
H1019 C1029 0.929 . S
H1020 C1024 0.929 . S
H1021 C1030 0.929 . S
C1022 H1016 0.930 . S
C1022 C1023 1.367 . S
C1022 C1030 1.378 . S
C1023 C1022 1.367 . S
C1023 C1031 1.433 . S
C1024 H1020 0.929 . S
C1024 C1026 1.378 . S
C1024 C1028 1.350 . S
C1025 C1028 1.463 . S
C1025 C1030 1.350 . S
C1025 N1033 1.427 . S
C1026 H1017 0.930 . S
C1026 C1024 1.378 . S
C1026 C1027 1.367 . S
C1027 C1026 1.367 . S
C1027 C1029 1.433 . S
C1028 C1024 1.350 . S
C1028 C1025 1.463 . S
C1028 N1032 1.427 . S
C1029 H1019 0.929 . S
C1029 C1027 1.433 . S
C1029 N1032 1.384 . S
C1030 H1021 0.929 . S
C1030 C1022 1.378 . S
C1030 C1025 1.350 . S
C1031 H1018 0.929 . S
C1031 C1023 1.433 . S
C1031 N1033 1.384 . S
N1032 C1028 1.427 . S
N1032 C1029 1.384 . S
N1033 C1025 1.427 . S
N1033 C1031 1.384 . S
H1034 C1040 0.930 . S
H1035 C1044 0.930 . S
H1036 C1049 0.929 . S
H1037 C1047 0.929 . S
H1038 C1042 0.929 . S
H1039 C1048 0.929 . S
C1040 H1034 0.930 . S
C1040 C1041 1.367 . S
C1040 C1048 1.378 . S
C1041 C1040 1.367 . S
C1041 C1049 1.433 . S
C1042 H1038 0.929 . S
C1042 C1044 1.378 . S
C1042 C1046 1.350 . S
C1043 C1046 1.463 . S
C1043 C1048 1.350 . S
C1043 N1051 1.427 . S
C1044 H1035 0.930 . S
C1044 C1042 1.378 . S
C1044 C1045 1.367 . S
C1045 C1044 1.367 . S
C1045 C1047 1.433 . S
C1046 C1042 1.350 . S
C1046 C1043 1.463 . S
C1046 N1050 1.427 . S
C1047 H1037 0.929 . S
C1047 C1045 1.433 . S
C1047 N1050 1.384 . S
C1048 H1039 0.929 . S
C1048 C1040 1.378 . S
C1048 C1043 1.350 . S
C1049 H1036 0.929 . S
C1049 C1041 1.433 . S
C1049 N1051 1.384 . S
N1050 C1046 1.427 . S
N1050 C1047 1.384 . S
N1051 C1043 1.427 . S
N1051 C1049 1.384 . S
H1052 C1058 0.930 . S
H1053 C1062 0.930 . S
H1054 C1067 0.929 . S
H1055 C1065 0.929 . S
H1056 C1060 0.929 . S
H1057 C1066 0.929 . S
C1058 H1052 0.930 . S
C1058 C1059 1.367 . S
C1058 C1066 1.378 . S
C1059 C1058 1.367 . S
C1059 C1067 1.433 . S
C1060 H1056 0.929 . S
C1060 C1062 1.378 . S
C1060 C1064 1.350 . S
C1061 C1064 1.463 . S
C1061 C1066 1.350 . S
C1061 N1069 1.427 . S
C1062 H1053 0.930 . S
C1062 C1060 1.378 . S
C1062 C1063 1.367 . S
C1063 C1062 1.367 . S
C1063 C1065 1.433 . S
C1064 C1060 1.350 . S
C1064 C1061 1.463 . S
C1064 N1068 1.427 . S
C1065 H1055 0.929 . S
C1065 C1063 1.433 . S
C1065 N1068 1.384 . S
C1066 H1057 0.929 . S
C1066 C1058 1.378 . S
C1066 C1061 1.350 . S
C1067 H1054 0.929 . S
C1067 C1059 1.433 . S
C1067 N1069 1.384 . S
N1068 C1064 1.427 . S
N1068 C1065 1.384 . S
N1069 C1061 1.427 . S
N1069 C1067 1.384 . S
H1070 C1076 0.930 . S
H1071 C1080 0.930 . S
H1072 C1085 0.929 . S
H1073 C1083 0.929 . S
H1074 C1078 0.929 . S
H1075 C1084 0.929 . S
C1076 H1070 0.930 . S
C1076 C1077 1.367 . S
C1076 C1084 1.378 . S
C1077 C1076 1.367 . S
C1077 C1085 1.433 . S
C1078 H1074 0.929 . S
C1078 C1080 1.378 . S
C1078 C1082 1.350 . S
C1079 C1082 1.463 . S
C1079 C1084 1.350 . S
C1079 N1087 1.427 . S
C1080 H1071 0.930 . S
C1080 C1078 1.378 . S
C1080 C1081 1.367 . S
C1081 C1080 1.367 . S
C1081 C1083 1.433 . S
C1082 C1078 1.350 . S
C1082 C1079 1.463 . S
C1082 N1086 1.427 . S
C1083 H1073 0.929 . S
C1083 C1081 1.433 . S
C1083 N1086 1.384 . S
C1084 H1075 0.929 . S
C1084 C1076 1.378 . S
C1084 C1079 1.350 . S
C1085 H1072 0.929 . S
C1085 C1077 1.433 . S
C1085 N1087 1.384 . S
N1086 C1082 1.427 . S
N1086 C1083 1.384 . S
N1087 C1079 1.427 . S
N1087 C1085 1.384 . S
H1088 C1094 0.930 1_655 S
H1089 C1098 0.930 . S
H1090 C1103 0.929 . S
H1091 C1101 0.923 1_655 S
H1092 C1096 0.929 . S
H1093 C1102 0.929 1_655 S
C1094 H1088 0.930 1_455 S
C1094 C1095 1.367 . S
C1094 C1102 1.378 . S
C1095 C1094 1.367 . S
C1095 C1103 1.433 . S
C1096 H1092 0.929 . S
C1096 C1098 1.378 . S
C1096 C1100 1.350 . S
C1097 C1100 1.463 . S
C1097 C1102 1.350 . S
C1097 N1105 1.427 . S
C1098 H1089 0.930 . S
C1098 C1096 1.378 . S
C1098 C1099 1.367 . S
C1099 C1098 1.367 . S
C1099 C1101 1.433 . S
C1100 C1096 1.350 . S
C1100 C1097 1.463 . S
C1100 N1104 1.427 . S
C1101 H1091 0.923 1_455 S
C1101 C1099 1.433 . S
C1101 N1104 1.384 . S
C1102 H1093 0.929 1_455 S
C1102 C1094 1.378 . S
C1102 C1097 1.350 . S
C1103 H1090 0.929 . S
C1103 C1095 1.433 . S
C1103 N1105 1.384 . S
N1104 C1100 1.427 . S
N1104 C1101 1.384 . S
N1105 C1097 1.427 . S
N1105 C1103 1.384 . S
H1106 C1112 0.930 . S
H1107 C1116 0.930 . S
H1108 C1121 0.929 . S
H1109 C1119 0.929 . S
H1110 C1114 0.929 . S
H1111 C1120 0.929 . S
C1112 H1106 0.930 . S
C1112 C1113 1.367 . S
C1112 C1120 1.378 . S
C1113 C1112 1.367 . S
C1113 C1121 1.433 . S
C1114 H1110 0.929 . S
C1114 C1116 1.378 . S
C1114 C1118 1.350 . S
C1115 C1118 1.463 . S
C1115 C1120 1.350 . S
C1115 N1123 1.427 . S
C1116 H1107 0.930 . S
C1116 C1114 1.378 . S
C1116 C1117 1.367 . S
C1117 C1116 1.367 . S
C1117 C1119 1.433 . S
C1118 C1114 1.350 . S
C1118 C1115 1.463 . S
C1118 N1122 1.427 . S
C1119 H1109 0.929 . S
C1119 C1117 1.433 . S
C1119 N1122 1.384 . S
C1120 H1111 0.929 . S
C1120 C1112 1.378 . S
C1120 C1115 1.350 . S
C1121 H1108 0.929 . S
C1121 C1113 1.433 . S
C1121 N1123 1.384 . S
N1122 C1118 1.427 . S
N1122 C1119 1.384 . S
N1123 C1115 1.427 . S
N1123 C1121 1.384 . S
H1124 C1130 0.930 . S
H1125 C1134 0.930 . S
H1126 C1139 0.929 . S
H1127 C1137 0.929 . S
H1128 C1132 0.929 . S
H1129 C1138 0.929 . S
C1130 H1124 0.930 . S
C1130 C1131 1.367 . S
C1130 C1138 1.378 . S
C1131 C1130 1.367 . S
C1131 C1139 1.433 . S
C1132 H1128 0.929 . S
C1132 C1134 1.378 . S
C1132 C1136 1.350 . S
C1133 C1136 1.463 . S
C1133 C1138 1.350 . S
C1133 N1141 1.427 . S
C1134 H1125 0.930 . S
C1134 C1132 1.378 . S
C1134 C1135 1.367 . S
C1135 C1134 1.367 . S
C1135 C1137 1.433 . S
C1136 C1132 1.350 . S
C1136 C1133 1.463 . S
C1136 N1140 1.427 . S
C1137 H1127 0.929 . S
C1137 C1135 1.433 . S
C1137 N1140 1.384 . S
C1138 H1129 0.929 . S
C1138 C1130 1.378 . S
C1138 C1133 1.350 . S
C1139 H1126 0.929 . S
C1139 C1131 1.433 . S
C1139 N1141 1.384 . S
N1140 C1136 1.427 . S
N1140 C1137 1.384 . S
N1141 C1133 1.427 . S
N1141 C1139 1.384 . S
H1142 C1148 0.930 . S
H1143 C1152 0.930 . S
H1144 C1157 0.929 . S
H1145 C1155 0.929 . S
H1146 C1150 0.929 . S
H1147 C1156 0.929 . S
C1148 H1142 0.930 . S
C1148 C1149 1.367 . S
C1148 C1156 1.378 . S
C1149 C1148 1.367 . S
C1149 C1157 1.433 . S
C1150 H1146 0.929 . S
C1150 C1152 1.378 . S
C1150 C1154 1.350 . S
C1151 C1154 1.463 . S
C1151 C1156 1.350 . S
C1151 N1159 1.427 . S
C1152 H1143 0.930 . S
C1152 C1150 1.378 . S
C1152 C1153 1.367 . S
C1153 C1152 1.367 . S
C1153 C1155 1.433 . S
C1154 C1150 1.350 . S
C1154 C1151 1.463 . S
C1154 N1158 1.427 . S
C1155 H1145 0.929 . S
C1155 C1153 1.433 . S
C1155 N1158 1.384 . S
C1156 H1147 0.929 . S
C1156 C1148 1.378 . S
C1156 C1151 1.350 . S
C1157 H1144 0.929 . S
C1157 C1149 1.433 . S
C1157 N1159 1.384 . S
N1158 C1154 1.427 . S
N1158 C1155 1.384 . S
N1159 C1151 1.427 . S
N1159 C1157 1.384 . S
H1160 C1166 0.929 . S
H1161 C1170 0.930 . S
H1162 C1175 0.929 . S
H1163 C1173 0.950 . S
H1164 C1168 0.929 . S
H1165 C1174 0.929 1_655 S
C1166 H1160 0.929 . S
C1166 C1167 1.367 . S
C1166 C1174 1.378 . S
C1167 C1166 1.367 . S
C1167 C1175 1.433 . S
C1168 H1164 0.929 . S
C1168 C1170 1.378 . S
C1168 C1172 1.350 . S
C1169 C1172 1.463 . S
C1169 C1174 1.350 . S
C1169 N1177 1.427 . S
C1170 H1161 0.930 . S
C1170 C1168 1.378 . S
C1170 C1171 1.367 . S
C1171 C1170 1.367 . S
C1171 C1173 1.411 1_455 S
C1172 C1168 1.350 . S
C1172 C1169 1.463 . S
C1172 N1176 1.437 . S
C1173 H1163 0.950 . S
C1173 C1171 1.411 1_655 S
C1173 N1176 1.388 1_655 S
C1174 H1165 0.929 1_455 S
C1174 C1166 1.378 . S
C1174 C1169 1.350 . S
C1175 H1162 0.929 . S
C1175 C1167 1.433 . S
C1175 N1177 1.384 . S
N1176 C1172 1.437 . S
N1176 C1173 1.388 1_455 S
N1177 C1169 1.427 . S
N1177 C1175 1.384 . S
H1178 C1184 0.930 . S
H1179 C1188 0.930 . S
H1180 C1193 0.929 . S
H1181 C1191 0.929 . S
H1182 C1186 0.929 . S
H1183 C1192 0.929 . S
C1184 H1178 0.930 . S
C1184 C1185 1.367 . S
C1184 C1192 1.378 . S
C1185 C1184 1.367 . S
C1185 C1193 1.433 . S
C1186 H1182 0.929 . S
C1186 C1188 1.378 . S
C1186 C1190 1.350 . S
C1187 C1190 1.463 . S
C1187 C1192 1.350 . S
C1187 N1195 1.427 . S
C1188 H1179 0.930 . S
C1188 C1186 1.378 . S
C1188 C1189 1.367 . S
C1189 C1188 1.367 . S
C1189 C1191 1.433 . S
C1190 C1186 1.350 . S
C1190 C1187 1.463 . S
C1190 N1194 1.427 . S
C1191 H1181 0.929 . S
C1191 C1189 1.433 . S
C1191 N1194 1.384 . S
C1192 H1183 0.929 . S
C1192 C1184 1.378 . S
C1192 C1187 1.350 . S
C1193 H1180 0.929 . S
C1193 C1185 1.433 . S
C1193 N1195 1.384 . S
N1194 C1190 1.427 . S
N1194 C1191 1.384 . S
N1195 C1187 1.427 . S
N1195 C1193 1.384 . S
H1196 C1202 0.930 . S
H1197 C1206 0.930 . S
H1198 C1211 0.929 . S
H1199 C1209 0.929 1_554 S
H1200 C1204 0.929 . S
H1201 C1210 0.929 . S
C1202 H1196 0.930 . S
C1202 C1203 1.367 . S
C1202 C1210 1.378 . S
C1203 C1202 1.367 . S
C1203 C1211 1.433 . S
C1204 H1200 0.929 . S
C1204 C1206 1.378 . S
C1204 C1208 1.350 . S
C1205 C1208 1.463 . S
C1205 C1210 1.350 . S
C1205 N1213 1.427 . S
C1206 H1197 0.930 . S
C1206 C1204 1.378 . S
C1206 C1207 1.367 . S
C1207 C1206 1.367 . S
C1207 C1209 1.433 . S
C1208 C1204 1.350 . S
C1208 C1205 1.463 . S
C1208 N1212 1.427 . S
C1209 H1199 0.929 1_556 S
C1209 C1207 1.433 . S
C1209 N1212 1.384 . S
C1210 H1201 0.929 . S
C1210 C1202 1.378 . S
C1210 C1205 1.350 . S
C1211 H1198 0.929 . S
C1211 C1203 1.433 . S
C1211 N1213 1.384 . S
N1212 C1208 1.427 . S
N1212 C1209 1.384 . S
N1213 C1205 1.427 . S
N1213 C1211 1.384 . S
H1214 C1220 0.930 . S
H1215 C1224 0.930 . S
H1216 C1229 0.929 . S
H1217 C1227 0.929 . S
H1218 C1222 0.929 . S
H1219 C1228 0.929 . S
C1220 H1214 0.930 . S
C1220 C1221 1.367 . S
C1220 C1228 1.378 . S
C1221 C1220 1.367 . S
C1221 C1229 1.433 . S
C1222 H1218 0.929 . S
C1222 C1224 1.378 . S
C1222 C1226 1.350 . S
C1223 C1226 1.463 . S
C1223 C1228 1.350 . S
C1223 N1231 1.427 . S
C1224 H1215 0.930 . S
C1224 C1222 1.378 . S
C1224 C1225 1.367 . S
C1225 C1224 1.367 . S
C1225 C1227 1.433 . S
C1226 C1222 1.350 . S
C1226 C1223 1.463 . S
C1226 N1230 1.427 . S
C1227 H1217 0.929 . S
C1227 C1225 1.433 . S
C1227 N1230 1.384 . S
C1228 H1219 0.929 . S
C1228 C1220 1.378 . S
C1228 C1223 1.350 . S
C1229 H1216 0.929 . S
C1229 C1221 1.433 . S
C1229 N1231 1.384 . S
N1230 C1226 1.427 . S
N1230 C1227 1.384 . S
N1231 C1223 1.427 . S
N1231 C1229 1.384 . S
H1232 C1238 0.930 . S
H1233 C1242 0.930 . S
H1234 C1247 0.929 . S
H1235 C1245 0.929 . S
H1236 C1240 0.929 . S
H1237 C1246 0.929 . S
C1238 H1232 0.930 . S
C1238 C1239 1.329 1_565 S
C1238 C1246 1.378 . S
C1239 C1238 1.329 1_545 S
C1239 C1247 1.477 . S
C1240 H1236 0.929 . S
C1240 C1242 1.378 . S
C1240 C1244 1.350 . S
C1241 C1244 1.463 . S
C1241 C1246 1.350 1_545 S
C1241 N1249 1.427 . S
C1242 H1233 0.930 . S
C1242 C1240 1.378 . S
C1242 C1243 1.367 . S
C1243 C1242 1.367 . S
C1243 C1245 1.433 1_545 S
C1244 C1240 1.350 . S
C1244 C1241 1.463 . S
C1244 N1248 1.427 1_545 S
C1245 H1235 0.929 . S
C1245 C1243 1.433 1_565 S
C1245 N1248 1.384 . S
C1246 H1237 0.929 . S
C1246 C1238 1.378 . S
C1246 C1241 1.350 1_565 S
C1247 H1234 0.929 . S
C1247 C1239 1.477 . S
C1247 N1249 1.384 . S
N1248 C1244 1.427 1_565 S
N1248 C1245 1.384 . S
N1249 C1241 1.427 . S
N1249 C1247 1.384 . S
H1250 C1256 0.930 . S
H1251 C1260 0.930 . S
H1252 C1265 0.929 . S
H1253 C1263 0.929 . S
H1254 C1258 0.929 . S
H1255 C1264 0.929 . S
C1256 H1250 0.930 . S
C1256 C1257 1.367 . S
C1256 C1264 1.378 . S
C1257 C1256 1.367 . S
C1257 C1265 1.433 . S
C1258 H1254 0.929 . S
C1258 C1260 1.378 . S
C1258 C1262 1.350 . S
C1259 C1262 1.463 . S
C1259 C1264 1.350 . S
C1259 N1267 1.427 . S
C1260 H1251 0.930 . S
C1260 C1258 1.378 . S
C1260 C1261 1.367 . S
C1261 C1260 1.367 . S
C1261 C1263 1.433 . S
C1262 C1258 1.350 . S
C1262 C1259 1.463 . S
C1262 N1266 1.427 . S
C1263 H1253 0.929 . S
C1263 C1261 1.433 . S
C1263 N1266 1.384 . S
C1264 H1255 0.929 . S
C1264 C1256 1.378 . S
C1264 C1259 1.350 . S
C1265 H1252 0.929 . S
C1265 C1257 1.433 . S
C1265 N1267 1.384 . S
N1266 C1262 1.427 . S
N1266 C1263 1.384 . S
N1267 C1259 1.427 . S
N1267 C1265 1.384 . S
H1268 C1274 0.930 . S
H1269 C1278 0.930 1_565 S
H1270 C1283 0.929 . S
H1271 C1281 0.929 . S
H1272 C1276 0.928 . S
H1273 C1282 0.929 . S
C1274 H1268 0.930 . S
C1274 C1275 1.367 . S
C1274 C1282 1.378 . S
C1275 C1274 1.367 . S
C1275 C1283 1.433 . S
C1276 H1272 0.928 . S
C1276 C1278 1.378 . S
C1276 C1280 1.350 . S
C1277 C1280 1.463 . S
C1277 C1282 1.350 . S
C1277 N1285 1.427 . S
C1278 H1269 0.930 1_545 S
C1278 C1276 1.378 . S
C1278 C1279 1.367 . S
C1279 C1278 1.367 . S
C1279 C1281 1.433 . S
C1280 C1276 1.350 . S
C1280 C1277 1.463 . S
C1280 N1284 1.427 . S
C1281 H1271 0.929 . S
C1281 C1279 1.433 . S
C1281 N1284 1.384 . S
C1282 H1273 0.929 . S
C1282 C1274 1.378 . S
C1282 C1277 1.350 . S
C1283 H1270 0.929 . S
C1283 C1275 1.433 . S
C1283 N1285 1.384 . S
N1284 C1280 1.427 . S
N1284 C1281 1.384 . S
N1285 C1277 1.427 . S
N1285 C1283 1.384 . S
H1286 C1292 0.930 . S
H1287 C1296 0.930 . S
H1288 C1301 0.929 . S
H1289 C1299 0.929 . S
H1290 C1294 0.929 . S
H1291 C1300 0.929 . S
C1292 H1286 0.930 . S
C1292 C1293 1.367 . S
C1292 C1300 1.378 . S
C1293 C1292 1.367 . S
C1293 C1301 1.433 . S
C1294 H1290 0.929 . S
C1294 C1296 1.378 . S
C1294 C1298 1.350 . S
C1295 C1298 1.463 . S
C1295 C1300 1.350 . S
C1295 N1303 1.427 . S
C1296 H1287 0.930 . S
C1296 C1294 1.378 . S
C1296 C1297 1.367 . S
C1297 C1296 1.367 . S
C1297 C1299 1.433 . S
C1298 C1294 1.350 . S
C1298 C1295 1.463 . S
C1298 N1302 1.427 . S
C1299 H1289 0.929 . S
C1299 C1297 1.433 . S
C1299 N1302 1.384 . S
C1300 H1291 0.929 . S
C1300 C1292 1.378 . S
C1300 C1295 1.350 . S
C1301 H1288 0.929 . S
C1301 C1293 1.433 . S
C1301 N1303 1.384 . S
N1302 C1298 1.427 . S
N1302 C1299 1.384 . S
N1303 C1295 1.427 . S
N1303 C1301 1.384 . S
H1304 C1310 0.930 . S
H1305 C1314 0.930 . S
H1306 C1319 0.929 . S
H1307 C1317 0.929 . S
H1308 C1312 0.929 . S
H1309 C1318 0.929 . S
C1310 H1304 0.930 . S
C1310 C1311 1.367 1_545 S
C1310 C1318 1.378 . S
C1311 C1310 1.367 1_565 S
C1311 C1319 1.433 . S
C1312 H1308 0.929 . S
C1312 C1314 1.378 . S
C1312 C1316 1.350 1_565 S
C1313 C1316 1.463 . S
C1313 C1318 1.350 . S
C1313 N1321 1.427 1_545 S
C1314 H1305 0.930 . S
C1314 C1312 1.378 . S
C1314 C1315 1.367 1_565 S
C1315 C1314 1.367 1_545 S
C1315 C1317 1.433 . S
C1316 C1312 1.350 1_545 S
C1316 C1313 1.463 . S
C1316 N1320 1.427 . S
C1317 H1307 0.929 . S
C1317 C1315 1.433 . S
C1317 N1320 1.384 . S
C1318 H1309 0.929 . S
C1318 C1310 1.378 . S
C1318 C1313 1.350 . S
C1319 H1306 0.929 . S
C1319 C1311 1.433 . S
C1319 N1321 1.384 . S
N1320 C1316 1.427 . S
N1320 C1317 1.384 . S
N1321 C1313 1.427 1_565 S
N1321 C1319 1.384 . S
H1322 C1328 0.930 . S
H1323 C1332 0.930 . S
H1324 C1337 0.929 . S
H1325 C1335 0.929 . S
H1326 C1330 0.929 . S
H1327 C1336 0.929 . S
C1328 H1322 0.930 . S
C1328 C1329 1.367 . S
C1328 C1336 1.378 . S
C1329 C1328 1.367 . S
C1329 C1337 1.433 . S
C1330 H1326 0.929 . S
C1330 C1332 1.378 . S
C1330 C1334 1.350 . S
C1331 C1334 1.463 . S
C1331 C1336 1.350 . S
C1331 N1339 1.427 . S
C1332 H1323 0.930 . S
C1332 C1330 1.378 . S
C1332 C1333 1.367 . S
C1333 C1332 1.367 . S
C1333 C1335 1.433 . S
C1334 C1330 1.350 . S
C1334 C1331 1.463 . S
C1334 N1338 1.427 . S
C1335 H1325 0.929 . S
C1335 C1333 1.433 . S
C1335 N1338 1.384 . S
C1336 H1327 0.929 . S
C1336 C1328 1.378 . S
C1336 C1331 1.350 . S
C1337 H1324 0.929 . S
C1337 C1329 1.433 . S
C1337 N1339 1.384 . S
N1338 C1334 1.427 . S
N1338 C1335 1.384 . S
N1339 C1331 1.427 . S
N1339 C1337 1.384 . S
H1340 C1346 0.930 . S
H1341 C1350 0.930 . S
H1342 C1355 0.929 . S
H1343 C1353 0.929 1_565 S
H1344 C1348 0.929 . S
H1345 C1354 0.929 . S
C1346 H1340 0.930 . S
C1346 C1347 1.367 . S
C1346 C1354 1.378 . S
C1347 C1346 1.367 . S
C1347 C1355 1.433 . S
C1348 H1344 0.929 . S
C1348 C1350 1.378 . S
C1348 C1352 1.350 . S
C1349 C1352 1.463 . S
C1349 C1354 1.350 . S
C1349 N1357 1.427 . S
C1350 H1341 0.930 . S
C1350 C1348 1.378 . S
C1350 C1351 1.367 . S
C1351 C1350 1.367 . S
C1351 C1353 1.433 . S
C1352 C1348 1.350 . S
C1352 C1349 1.463 . S
C1352 N1356 1.427 . S
C1353 H1343 0.929 1_545 S
C1353 C1351 1.433 . S
C1353 N1356 1.384 . S
C1354 H1345 0.929 . S
C1354 C1346 1.378 . S
C1354 C1349 1.350 . S
C1355 H1342 0.929 . S
C1355 C1347 1.433 . S
C1355 N1357 1.384 . S
N1356 C1352 1.427 . S
N1356 C1353 1.384 . S
N1357 C1349 1.427 . S
N1357 C1355 1.384 . S
H1358 C1364 0.930 . S
H1359 C1368 0.930 . S
H1360 C1373 0.929 . S
H1361 C1371 0.929 . S
H1362 C1366 0.929 . S
H1363 C1372 0.929 . S
C1364 H1358 0.930 . S
C1364 C1365 1.367 . S
C1364 C1372 1.378 . S
C1365 C1364 1.367 . S
C1365 C1373 1.433 . S
C1366 H1362 0.929 . S
C1366 C1368 1.378 . S
C1366 C1370 1.350 . S
C1367 C1370 1.463 . S
C1367 C1372 1.350 . S
C1367 N1375 1.427 . S
C1368 H1359 0.930 . S
C1368 C1366 1.378 . S
C1368 C1369 1.367 . S
C1369 C1368 1.367 . S
C1369 C1371 1.433 . S
C1370 C1366 1.350 . S
C1370 C1367 1.463 . S
C1370 N1374 1.427 . S
C1371 H1361 0.929 . S
C1371 C1369 1.433 . S
C1371 N1374 1.384 . S
C1372 H1363 0.929 . S
C1372 C1364 1.378 . S
C1372 C1367 1.350 . S
C1373 H1360 0.929 . S
C1373 C1365 1.433 . S
C1373 N1375 1.384 . S
N1374 C1370 1.427 . S
N1374 C1371 1.384 . S
N1375 C1367 1.427 . S
N1375 C1373 1.384 . S
H1376 C1382 0.930 . S
H1377 C1386 0.930 . S
H1378 C1391 0.929 . S
H1379 C1389 0.929 . S
H1380 C1384 0.929 . S
H1381 C1390 0.929 . S
C1382 H1376 0.930 . S
C1382 C1383 1.367 . S
C1382 C1390 1.378 . S
C1383 C1382 1.367 . S
C1383 C1391 1.433 1_554 S
C1384 H1380 0.929 . S
C1384 C1386 1.378 . S
C1384 C1388 1.350 1_556 S
C1385 C1388 1.463 . S
C1385 C1390 1.350 . S
C1385 N1393 1.427 1_554 S
C1386 H1377 0.930 . S
C1386 C1384 1.378 . S
C1386 C1387 1.367 1_556 S
C1387 C1386 1.367 1_554 S
C1387 C1389 1.433 . S
C1388 C1384 1.350 1_554 S
C1388 C1385 1.463 . S
C1388 N1392 1.427 . S
C1389 H1379 0.929 . S
C1389 C1387 1.433 . S
C1389 N1392 1.384 . S
C1390 H1381 0.929 . S
C1390 C1382 1.378 . S
C1390 C1385 1.350 . S
C1391 H1378 0.929 . S
C1391 C1383 1.433 1_556 S
C1391 N1393 1.384 . S
N1392 C1388 1.427 . S
N1392 C1389 1.384 . S
N1393 C1385 1.427 1_556 S
N1393 C1391 1.384 . S
H1394 C1400 0.930 . S
H1395 C1404 0.930 1_556 S
H1396 C1409 0.929 1_556 S
H1397 C1407 0.929 . S
H1398 C1402 0.929 1_556 S
H1399 C1408 0.929 . S
C1400 H1394 0.930 . S
C1400 C1401 1.367 . S
C1400 C1408 1.378 . S
C1401 C1400 1.367 . S
C1401 C1409 1.433 . S
C1402 H1398 0.929 1_554 S
C1402 C1404 1.378 . S
C1402 C1406 1.350 . S
C1403 C1406 1.463 . S
C1403 C1408 1.350 . S
C1403 N1411 1.427 . S
C1404 H1395 0.930 1_554 S
C1404 C1402 1.378 . S
C1404 C1405 1.367 . S
C1405 C1404 1.367 . S
C1405 C1407 1.433 . S
C1406 C1402 1.350 . S
C1406 C1403 1.463 . S
C1406 N1410 1.427 . S
C1407 H1397 0.929 . S
C1407 C1405 1.433 . S
C1407 N1410 1.384 . S
C1408 H1399 0.929 . S
C1408 C1400 1.378 . S
C1408 C1403 1.350 . S
C1409 H1396 0.929 1_554 S
C1409 C1401 1.433 . S
C1409 N1411 1.384 . S
N1410 C1406 1.427 . S
N1410 C1407 1.384 . S
N1411 C1403 1.427 . S
N1411 C1409 1.384 . S
H1412 C1418 0.930 . S
H1413 C1422 0.930 . S
H1414 C1427 0.929 . S
H1415 C1425 0.929 . S
H1416 C1420 0.929 . S
H1417 C1426 0.929 . S
C1418 H1412 0.930 . S
C1418 C1419 1.367 . S
C1418 C1426 1.378 . S
C1419 C1418 1.367 . S
C1419 C1427 1.433 . S
C1420 H1416 0.929 . S
C1420 C1422 1.378 . S
C1420 C1424 1.350 . S
C1421 C1424 1.463 . S
C1421 C1426 1.350 . S
C1421 N1429 1.427 . S
C1422 H1413 0.930 . S
C1422 C1420 1.378 . S
C1422 C1423 1.367 . S
C1423 C1422 1.367 . S
C1423 C1425 1.433 . S
C1424 C1420 1.350 . S
C1424 C1421 1.463 . S
C1424 N1428 1.427 . S
C1425 H1415 0.929 . S
C1425 C1423 1.433 . S
C1425 N1428 1.384 . S
C1426 H1417 0.929 . S
C1426 C1418 1.378 . S
C1426 C1421 1.350 . S
C1427 H1414 0.929 . S
C1427 C1419 1.433 . S
C1427 N1429 1.384 . S
N1428 C1424 1.427 . S
N1428 C1425 1.384 . S
N1429 C1421 1.427 . S
N1429 C1427 1.384 . S
H1430 C1436 0.930 . S
H1431 C1440 0.930 . S
H1432 C1445 0.929 . S
H1433 C1443 0.929 . S
H1434 C1438 0.929 . S
H1435 C1444 0.929 . S
C1436 H1430 0.930 . S
C1436 C1437 1.367 . S
C1436 C1444 1.378 . S
C1437 C1436 1.367 . S
C1437 C1445 1.433 . S
C1438 H1434 0.929 . S
C1438 C1440 1.378 . S
C1438 C1442 1.350 . S
C1439 C1442 1.463 . S
C1439 C1444 1.350 . S
C1439 N1447 1.427 . S
C1440 H1431 0.930 . S
C1440 C1438 1.378 . S
C1440 C1441 1.367 . S
C1441 C1440 1.367 . S
C1441 C1443 1.433 . S
C1442 C1438 1.350 . S
C1442 C1439 1.463 . S
C1442 N1446 1.427 . S
C1443 H1433 0.929 . S
C1443 C1441 1.433 . S
C1443 N1446 1.384 . S
C1444 H1435 0.929 . S
C1444 C1436 1.378 . S
C1444 C1439 1.350 . S
C1445 H1432 0.929 . S
C1445 C1437 1.433 . S
C1445 N1447 1.384 . S
N1446 C1442 1.427 . S
N1446 C1443 1.384 . S
N1447 C1439 1.427 . S
N1447 C1445 1.384 . S
H1448 C1454 0.930 . S
H1449 C1458 0.930 . S
H1450 C1463 0.929 . S
H1451 C1461 0.929 . S
H1452 C1456 0.929 . S
H1453 C1462 0.929 . S
C1454 H1448 0.930 . S
C1454 C1455 1.367 . S
C1454 C1462 1.378 . S
C1455 C1454 1.367 . S
C1455 C1463 1.433 . S
C1456 H1452 0.929 . S
C1456 C1458 1.378 . S
C1456 C1460 1.350 . S
C1457 C1460 1.463 . S
C1457 C1462 1.350 . S
C1457 N1465 1.427 . S
C1458 H1449 0.930 . S
C1458 C1456 1.378 . S
C1458 C1459 1.367 . S
C1459 C1458 1.367 . S
C1459 C1461 1.433 . S
C1460 C1456 1.350 . S
C1460 C1457 1.463 . S
C1460 N1464 1.427 . S
C1461 H1451 0.929 . S
C1461 C1459 1.433 . S
C1461 N1464 1.384 . S
C1462 H1453 0.929 . S
C1462 C1454 1.378 . S
C1462 C1457 1.350 . S
C1463 H1450 0.929 . S
C1463 C1455 1.433 . S
C1463 N1465 1.384 . S
N1464 C1460 1.427 . S
N1464 C1461 1.384 . S
N1465 C1457 1.427 . S
N1465 C1463 1.384 . S
H1466 C1472 0.930 . S
H1467 C1476 0.930 . S
H1468 C1481 0.929 . S
H1469 C1479 0.929 . S
H1470 C1474 0.929 . S
H1471 C1480 0.929 . S
C1472 H1466 0.930 . S
C1472 C1473 1.367 . S
C1472 C1480 1.378 . S
C1473 C1472 1.367 . S
C1473 C1481 1.433 . S
C1474 H1470 0.929 . S
C1474 C1476 1.378 . S
C1474 C1478 1.350 . S
C1475 C1478 1.463 . S
C1475 C1480 1.350 . S
C1475 N1483 1.427 . S
C1476 H1467 0.930 . S
C1476 C1474 1.378 . S
C1476 C1477 1.367 . S
C1477 C1476 1.367 . S
C1477 C1479 1.433 . S
C1478 C1474 1.350 . S
C1478 C1475 1.463 . S
C1478 N1482 1.427 . S
C1479 H1469 0.929 . S
C1479 C1477 1.433 . S
C1479 N1482 1.384 . S
C1480 H1471 0.929 . S
C1480 C1472 1.378 . S
C1480 C1475 1.350 . S
C1481 H1468 0.929 . S
C1481 C1473 1.433 . S
C1481 N1483 1.384 . S
N1482 C1478 1.427 . S
N1482 C1479 1.384 . S
N1483 C1475 1.427 . S
N1483 C1481 1.384 . S
H1484 C1490 0.930 . S
H1485 C1494 0.930 . S
H1486 C1499 0.929 . S
H1487 C1497 0.929 . S
H1488 C1492 0.929 . S
H1489 C1498 0.929 . S
C1490 H1484 0.930 . S
C1490 C1491 1.367 . S
C1490 C1498 1.378 . S
C1491 C1490 1.367 . S
C1491 C1499 1.433 . S
C1492 H1488 0.929 . S
C1492 C1494 1.378 . S
C1492 C1496 1.350 . S
C1493 C1496 1.463 . S
C1493 C1498 1.350 . S
C1493 N1501 1.427 . S
C1494 H1485 0.930 . S
C1494 C1492 1.378 . S
C1494 C1495 1.367 . S
C1495 C1494 1.367 . S
C1495 C1497 1.433 . S
C1496 C1492 1.350 . S
C1496 C1493 1.463 . S
C1496 N1500 1.427 . S
C1497 H1487 0.929 . S
C1497 C1495 1.433 . S
C1497 N1500 1.384 . S
C1498 H1489 0.929 . S
C1498 C1490 1.378 . S
C1498 C1493 1.350 . S
C1499 H1486 0.929 . S
C1499 C1491 1.433 . S
C1499 N1501 1.384 . S
N1500 C1496 1.427 . S
N1500 C1497 1.384 . S
N1501 C1493 1.427 . S
N1501 C1499 1.384 . S
H1502 C1508 0.930 . S
H1503 C1512 0.930 . S
H1504 C1517 0.929 . S
H1505 C1515 0.929 . S
H1506 C1510 0.929 . S
H1507 C1516 0.929 . S
C1508 H1502 0.930 . S
C1508 C1509 1.367 . S
C1508 C1516 1.378 . S
C1509 C1508 1.367 . S
C1509 C1517 1.433 . S
C1510 H1506 0.929 . S
C1510 C1512 1.378 . S
C1510 C1514 1.350 . S
C1511 C1514 1.463 . S
C1511 C1516 1.350 . S
C1511 N1519 1.427 . S
C1512 H1503 0.930 . S
C1512 C1510 1.378 . S
C1512 C1513 1.367 . S
C1513 C1512 1.367 . S
C1513 C1515 1.433 . S
C1514 C1510 1.350 . S
C1514 C1511 1.463 . S
C1514 N1518 1.427 . S
C1515 H1505 0.929 . S
C1515 C1513 1.433 . S
C1515 N1518 1.384 . S
C1516 H1507 0.929 . S
C1516 C1508 1.378 . S
C1516 C1511 1.350 . S
C1517 H1504 0.929 . S
C1517 C1509 1.433 . S
C1517 N1519 1.384 . S
N1518 C1514 1.427 . S
N1518 C1515 1.384 . S
N1519 C1511 1.427 . S
N1519 C1517 1.384 . S
H1520 C1526 0.930 . S
H1521 C1530 0.930 . S
H1522 C1535 0.929 . S
H1523 C1533 0.929 . S
H1524 C1528 0.929 . S
H1525 C1534 0.929 . S
C1526 H1520 0.930 . S
C1526 C1527 1.367 . S
C1526 C1534 1.378 . S
C1527 C1526 1.367 . S
C1527 C1535 1.433 . S
C1528 H1524 0.929 . S
C1528 C1530 1.378 . S
C1528 C1532 1.350 . S
C1529 C1532 1.463 . S
C1529 C1534 1.350 . S
C1529 N1537 1.427 . S
C1530 H1521 0.930 . S
C1530 C1528 1.378 . S
C1530 C1531 1.367 . S
C1531 C1530 1.367 . S
C1531 C1533 1.433 . S
C1532 C1528 1.350 . S
C1532 C1529 1.463 . S
C1532 N1536 1.427 . S
C1533 H1523 0.929 . S
C1533 C1531 1.433 . S
C1533 N1536 1.384 . S
C1534 H1525 0.929 . S
C1534 C1526 1.378 . S
C1534 C1529 1.350 . S
C1535 H1522 0.929 . S
C1535 C1527 1.433 . S
C1535 N1537 1.384 . S
N1536 C1532 1.427 . S
N1536 C1533 1.384 . S
N1537 C1529 1.427 . S
N1537 C1535 1.384 . S
H1538 C1544 0.930 . S
H1539 C1548 0.930 . S
H1540 C1553 0.929 . S
H1541 C1551 0.929 . S
H1542 C1546 0.929 . S
H1543 C1552 0.929 . S
C1544 H1538 0.930 . S
C1544 C1545 1.367 . S
C1544 C1552 1.378 . S
C1545 C1544 1.367 . S
C1545 C1553 1.433 . S
C1546 H1542 0.929 . S
C1546 C1548 1.378 . S
C1546 C1550 1.350 . S
C1547 C1550 1.463 . S
C1547 C1552 1.350 . S
C1547 N1555 1.427 . S
C1548 H1539 0.930 . S
C1548 C1546 1.378 . S
C1548 C1549 1.367 . S
C1549 C1548 1.367 . S
C1549 C1551 1.433 . S
C1550 C1546 1.350 . S
C1550 C1547 1.463 . S
C1550 N1554 1.427 . S
C1551 H1541 0.929 . S
C1551 C1549 1.433 . S
C1551 N1554 1.384 . S
C1552 H1543 0.929 . S
C1552 C1544 1.378 . S
C1552 C1547 1.350 . S
C1553 H1540 0.929 . S
C1553 C1545 1.433 . S
C1553 N1555 1.384 . S
N1554 C1550 1.427 . S
N1554 C1551 1.384 . S
N1555 C1547 1.427 . S
N1555 C1553 1.384 . S
H1556 C1562 0.930 . S
H1557 C1566 0.930 . S
H1558 C1571 0.929 . S
H1559 C1569 0.915 1_554 S
H1560 C1564 0.929 . S
H1561 C1570 0.929 . S
C1562 H1556 0.930 . S
C1562 C1563 1.367 . S
C1562 C1570 1.378 . S
C1563 C1562 1.367 . S
C1563 C1571 1.433 1_455 S
C1564 H1560 0.929 . S
C1564 C1566 1.378 . S
C1564 C1568 1.350 1_655 S
C1565 C1568 1.463 . S
C1565 C1570 1.350 . S
C1565 N1573 1.427 1_455 S
C1566 H1557 0.930 . S
C1566 C1564 1.378 . S
C1566 C1567 1.367 1_655 S
C1567 C1566 1.367 1_455 S
C1567 C1569 1.433 . S
C1568 C1564 1.350 1_455 S
C1568 C1565 1.463 . S
C1568 N1572 1.427 . S
C1569 H1559 0.915 1_556 S
C1569 C1567 1.433 . S
C1569 N1572 1.384 . S
C1570 H1561 0.929 . S
C1570 C1562 1.378 . S
C1570 C1565 1.350 . S
C1571 H1558 0.929 . S
C1571 C1563 1.433 1_655 S
C1571 N1573 1.384 . S
N1572 C1568 1.427 . S
N1572 C1569 1.384 . S
N1573 C1565 1.427 1_655 S
N1573 C1571 1.384 . S
H1574 C1580 0.930 . S
H1575 C1584 0.930 . S
H1576 C1589 0.929 . S
H1577 C1587 0.929 . S
H1578 C1582 0.929 . S
H1579 C1588 0.929 . S
C1580 H1574 0.930 . S
C1580 C1581 1.367 . S
C1580 C1588 1.378 . S
C1581 C1580 1.367 . S
C1581 C1589 1.433 . S
C1582 H1578 0.929 . S
C1582 C1584 1.378 . S
C1582 C1586 1.350 . S
C1583 C1586 1.463 . S
C1583 C1588 1.350 . S
C1583 N1591 1.427 . S
C1584 H1575 0.930 . S
C1584 C1582 1.378 . S
C1584 C1585 1.367 . S
C1585 C1584 1.367 . S
C1585 C1587 1.433 . S
C1586 C1582 1.350 . S
C1586 C1583 1.463 . S
C1586 N1590 1.427 . S
C1587 H1577 0.929 . S
C1587 C1585 1.433 . S
C1587 N1590 1.384 . S
C1588 H1579 0.929 . S
C1588 C1580 1.378 . S
C1588 C1583 1.350 . S
C1589 H1576 0.929 . S
C1589 C1581 1.433 . S
C1589 N1591 1.384 . S
N1590 C1586 1.427 . S
N1590 C1587 1.384 . S
N1591 C1583 1.427 . S
N1591 C1589 1.384 . S
H1592 C1598 0.930 . S
H1593 C1602 0.930 . S
H1594 C1607 0.929 . S
H1595 C1605 0.929 . S
H1596 C1600 0.929 . S
H1597 C1606 0.929 . S
C1598 H1592 0.930 . S
C1598 C1599 1.367 . S
C1598 C1606 1.378 . S
C1599 C1598 1.367 . S
C1599 C1607 1.433 . S
C1600 H1596 0.929 . S
C1600 C1602 1.378 . S
C1600 C1604 1.350 . S
C1601 C1604 1.463 . S
C1601 C1606 1.350 . S
C1601 N1609 1.427 . S
C1602 H1593 0.930 . S
C1602 C1600 1.378 . S
C1602 C1603 1.367 . S
C1603 C1602 1.367 . S
C1603 C1605 1.433 . S
C1604 C1600 1.350 . S
C1604 C1601 1.463 . S
C1604 N1608 1.427 . S
C1605 H1595 0.929 . S
C1605 C1603 1.433 . S
C1605 N1608 1.384 . S
C1606 H1597 0.929 . S
C1606 C1598 1.378 . S
C1606 C1601 1.350 . S
C1607 H1594 0.929 . S
C1607 C1599 1.433 . S
C1607 N1609 1.384 . S
N1608 C1604 1.427 . S
N1608 C1605 1.384 . S
N1609 C1601 1.427 . S
N1609 C1607 1.384 . S
H1610 C1616 0.930 . S
H1611 C1620 0.930 . S
H1612 C1625 0.929 . S
H1613 C1623 0.929 . S
H1614 C1618 0.929 . S
H1615 C1624 0.929 . S
C1616 H1610 0.930 . S
C1616 C1617 1.367 . S
C1616 C1624 1.378 . S
C1617 C1616 1.367 . S
C1617 C1625 1.433 . S
C1618 H1614 0.929 . S
C1618 C1620 1.378 . S
C1618 C1622 1.350 . S
C1619 C1622 1.463 . S
C1619 C1624 1.350 . S
C1619 N1627 1.427 . S
C1620 H1611 0.930 . S
C1620 C1618 1.378 . S
C1620 C1621 1.367 . S
C1621 C1620 1.367 . S
C1621 C1623 1.433 . S
C1622 C1618 1.350 . S
C1622 C1619 1.463 . S
C1622 N1626 1.427 . S
C1623 H1613 0.929 . S
C1623 C1621 1.433 . S
C1623 N1626 1.384 . S
C1624 H1615 0.929 . S
C1624 C1616 1.378 . S
C1624 C1619 1.350 . S
C1625 H1612 0.929 . S
C1625 C1617 1.433 . S
C1625 N1627 1.384 . S
N1626 C1622 1.427 . S
N1626 C1623 1.384 . S
N1627 C1619 1.427 . S
N1627 C1625 1.384 . S
H1628 C1634 0.930 . S
H1629 C1638 0.930 . S
H1630 C1643 0.929 . S
H1631 C1641 0.929 . S
H1632 C1636 0.929 . S
H1633 C1642 0.929 . S
C1634 H1628 0.930 . S
C1634 C1635 1.367 1_455 S
C1634 C1642 1.378 . S
C1635 C1634 1.367 1_655 S
C1635 C1643 1.433 . S
C1636 H1632 0.929 . S
C1636 C1638 1.378 . S
C1636 C1640 1.350 . S
C1637 C1640 1.463 . S
C1637 C1642 1.350 1_655 S
C1637 N1645 1.427 . S
C1638 H1629 0.930 . S
C1638 C1636 1.378 . S
C1638 C1639 1.367 . S
C1639 C1638 1.367 . S
C1639 C1641 1.433 1_655 S
C1640 C1636 1.350 . S
C1640 C1637 1.463 . S
C1640 N1644 1.427 1_655 S
C1641 H1631 0.929 . S
C1641 C1639 1.433 1_455 S
C1641 N1644 1.384 . S
C1642 H1633 0.929 . S
C1642 C1634 1.378 . S
C1642 C1637 1.350 1_455 S
C1643 H1630 0.929 . S
C1643 C1635 1.433 . S
C1643 N1645 1.384 . S
N1644 C1640 1.427 1_455 S
N1644 C1641 1.384 . S
N1645 C1637 1.427 . S
N1645 C1643 1.384 . S
H1646 C1652 0.930 . S
H1647 C1656 0.930 . S
H1648 C1661 0.929 . S
H1649 C1659 0.929 . S
H1650 C1654 0.929 . S
H1651 C1660 0.929 . S
C1652 H1646 0.930 . S
C1652 C1653 1.367 . S
C1652 C1660 1.378 . S
C1653 C1652 1.367 . S
C1653 C1661 1.433 . S
C1654 H1650 0.929 . S
C1654 C1656 1.378 . S
C1654 C1658 1.350 . S
C1655 C1658 1.463 . S
C1655 C1660 1.350 . S
C1655 N1663 1.427 . S
C1656 H1647 0.930 . S
C1656 C1654 1.378 . S
C1656 C1657 1.367 . S
C1657 C1656 1.367 . S
C1657 C1659 1.433 . S
C1658 C1654 1.350 . S
C1658 C1655 1.463 . S
C1658 N1662 1.427 . S
C1659 H1649 0.929 . S
C1659 C1657 1.433 . S
C1659 N1662 1.384 . S
C1660 H1651 0.929 . S
C1660 C1652 1.378 . S
C1660 C1655 1.350 . S
C1661 H1648 0.929 . S
C1661 C1653 1.433 . S
C1661 N1663 1.384 . S
N1662 C1658 1.427 . S
N1662 C1659 1.384 . S
N1663 C1655 1.427 . S
N1663 C1661 1.384 . S
H1664 C1670 0.930 . S
H1665 C1674 0.930 . S
H1666 C1679 0.929 . S
H1667 C1677 0.929 . S
H1668 C1672 0.929 . S
H1669 C1678 0.929 . S
C1670 H1664 0.930 . S
C1670 C1671 1.367 . S
C1670 C1678 1.378 . S
C1671 C1670 1.367 . S
C1671 C1679 1.433 . S
C1672 H1668 0.929 . S
C1672 C1674 1.378 . S
C1672 C1676 1.350 . S
C1673 C1676 1.463 . S
C1673 C1678 1.350 . S
C1673 N1681 1.427 . S
C1674 H1665 0.930 . S
C1674 C1672 1.378 . S
C1674 C1675 1.367 . S
C1675 C1674 1.367 . S
C1675 C1677 1.433 . S
C1676 C1672 1.350 . S
C1676 C1673 1.463 . S
C1676 N1680 1.427 . S
C1677 H1667 0.929 . S
C1677 C1675 1.433 . S
C1677 N1680 1.384 . S
C1678 H1669 0.929 . S
C1678 C1670 1.378 . S
C1678 C1673 1.350 . S
C1679 H1666 0.929 . S
C1679 C1671 1.433 . S
C1679 N1681 1.384 . S
N1680 C1676 1.427 . S
N1680 C1677 1.384 . S
N1681 C1673 1.427 . S
N1681 C1679 1.384 . S
H1682 C1688 0.930 . S
H1683 C1692 0.930 . S
H1684 C1697 0.929 . S
H1685 C1695 0.929 . S
H1686 C1690 0.929 . S
H1687 C1696 0.929 . S
C1688 H1682 0.930 . S
C1688 C1689 1.367 . S
C1688 C1696 1.378 . S
C1689 C1688 1.367 . S
C1689 C1697 1.433 . S
C1690 H1686 0.929 . S
C1690 C1692 1.378 . S
C1690 C1694 1.350 . S
C1691 C1694 1.463 . S
C1691 C1696 1.350 . S
C1691 N1699 1.427 . S
C1692 H1683 0.930 . S
C1692 C1690 1.378 . S
C1692 C1693 1.367 . S
C1693 C1692 1.367 . S
C1693 C1695 1.433 . S
C1694 C1690 1.350 . S
C1694 C1691 1.463 . S
C1694 N1698 1.427 . S
C1695 H1685 0.929 . S
C1695 C1693 1.433 . S
C1695 N1698 1.384 . S
C1696 H1687 0.929 . S
C1696 C1688 1.378 . S
C1696 C1691 1.350 . S
C1697 H1684 0.929 . S
C1697 C1689 1.433 . S
C1697 N1699 1.384 . S
N1698 C1694 1.427 . S
N1698 C1695 1.384 . S
N1699 C1691 1.427 . S
N1699 C1697 1.384 . S
H1700 C1706 0.930 . S
H1701 C1710 0.930 . S
H1702 C1715 0.929 . S
H1703 C1713 0.929 . S
H1704 C1708 0.929 . S
H1705 C1714 0.929 . S
C1706 H1700 0.930 . S
C1706 C1707 1.367 . S
C1706 C1714 1.378 . S
C1707 C1706 1.367 . S
C1707 C1715 1.433 . S
C1708 H1704 0.929 . S
C1708 C1710 1.378 . S
C1708 C1712 1.350 . S
C1709 C1712 1.463 . S
C1709 C1714 1.350 . S
C1709 N1717 1.427 . S
C1710 H1701 0.930 . S
C1710 C1708 1.378 . S
C1710 C1711 1.367 . S
C1711 C1710 1.367 . S
C1711 C1713 1.433 . S
C1712 C1708 1.350 . S
C1712 C1709 1.463 . S
C1712 N1716 1.427 . S
C1713 H1703 0.929 . S
C1713 C1711 1.433 . S
C1713 N1716 1.384 . S
C1714 H1705 0.929 . S
C1714 C1706 1.378 . S
C1714 C1709 1.350 . S
C1715 H1702 0.929 . S
C1715 C1707 1.433 . S
C1715 N1717 1.384 . S
N1716 C1712 1.427 . S
N1716 C1713 1.384 . S
N1717 C1709 1.427 . S
N1717 C1715 1.384 . S
H1718 C1724 0.930 . S
H1719 C1728 0.930 . S
H1720 C1733 0.929 . S
H1721 C1731 0.929 . S
H1722 C1726 0.929 . S
H1723 C1732 0.929 . S
C1724 H1718 0.930 . S
C1724 C1725 1.367 . S
C1724 C1732 1.378 . S
C1725 C1724 1.367 . S
C1725 C1733 1.433 . S
C1726 H1722 0.929 . S
C1726 C1728 1.378 . S
C1726 C1730 1.350 . S
C1727 C1730 1.463 . S
C1727 C1732 1.350 . S
C1727 N1735 1.427 . S
C1728 H1719 0.930 . S
C1728 C1726 1.378 . S
C1728 C1729 1.367 . S
C1729 C1728 1.367 . S
C1729 C1731 1.433 . S
C1730 C1726 1.350 . S
C1730 C1727 1.463 . S
C1730 N1734 1.427 . S
C1731 H1721 0.929 . S
C1731 C1729 1.433 . S
C1731 N1734 1.384 . S
C1732 H1723 0.929 . S
C1732 C1724 1.378 . S
C1732 C1727 1.350 . S
C1733 H1720 0.929 . S
C1733 C1725 1.433 . S
C1733 N1735 1.384 . S
N1734 C1730 1.427 . S
N1734 C1731 1.384 . S
N1735 C1727 1.427 . S
N1735 C1733 1.384 . S
H1736 C1742 0.930 . S
H1737 C1746 0.930 . S
H1738 C1751 0.929 . S
H1739 C1749 0.929 . S
H1740 C1744 0.929 . S
H1741 C1750 0.929 . S
C1742 H1736 0.930 . S
C1742 C1743 1.367 . S
C1742 C1750 1.378 . S
C1743 C1742 1.367 . S
C1743 C1751 1.433 . S
C1744 H1740 0.929 . S
C1744 C1746 1.378 . S
C1744 C1748 1.350 . S
C1745 C1748 1.463 . S
C1745 C1750 1.350 . S
C1745 N1753 1.427 . S
C1746 H1737 0.930 . S
C1746 C1744 1.378 . S
C1746 C1747 1.367 . S
C1747 C1746 1.367 . S
C1747 C1749 1.433 . S
C1748 C1744 1.350 . S
C1748 C1745 1.463 . S
C1748 N1752 1.427 . S
C1749 H1739 0.929 . S
C1749 C1747 1.433 . S
C1749 N1752 1.384 . S
C1750 H1741 0.929 . S
C1750 C1742 1.378 . S
C1750 C1745 1.350 . S
C1751 H1738 0.929 . S
C1751 C1743 1.433 . S
C1751 N1753 1.384 . S
N1752 C1748 1.427 . S
N1752 C1749 1.384 . S
N1753 C1745 1.427 . S
N1753 C1751 1.384 . S
H1754 C1760 0.930 . S
H1755 C1764 0.930 . S
H1756 C1769 0.929 . S
H1757 C1767 0.929 . S
H1758 C1762 0.929 . S
H1759 C1768 0.929 . S
C1760 H1754 0.930 . S
C1760 C1761 1.367 . S
C1760 C1768 1.378 . S
C1761 C1760 1.367 . S
C1761 C1769 1.433 . S
C1762 H1758 0.929 . S
C1762 C1764 1.378 . S
C1762 C1766 1.350 . S
C1763 C1766 1.463 . S
C1763 C1768 1.350 . S
C1763 N1771 1.427 . S
C1764 H1755 0.930 . S
C1764 C1762 1.378 . S
C1764 C1765 1.367 . S
C1765 C1764 1.367 . S
C1765 C1767 1.433 . S
C1766 C1762 1.350 . S
C1766 C1763 1.463 . S
C1766 N1770 1.427 . S
C1767 H1757 0.929 . S
C1767 C1765 1.433 . S
C1767 N1770 1.384 . S
C1768 H1759 0.929 . S
C1768 C1760 1.378 . S
C1768 C1763 1.350 . S
C1769 H1756 0.929 . S
C1769 C1761 1.433 . S
C1769 N1771 1.384 . S
N1770 C1766 1.427 . S
N1770 C1767 1.384 . S
N1771 C1763 1.427 . S
N1771 C1769 1.384 . S
H1772 C1778 0.930 . S
H1773 C1782 0.930 . S
H1774 C1787 0.929 . S
H1775 C1785 0.929 . S
H1776 C1780 0.929 . S
H1777 C1786 0.929 . S
C1778 H1772 0.930 . S
C1778 C1779 1.367 . S
C1778 C1786 1.378 . S
C1779 C1778 1.367 . S
C1779 C1787 1.433 . S
C1780 H1776 0.929 . S
C1780 C1782 1.378 . S
C1780 C1784 1.350 . S
C1781 C1784 1.463 . S
C1781 C1786 1.350 . S
C1781 N1789 1.427 . S
C1782 H1773 0.930 . S
C1782 C1780 1.378 . S
C1782 C1783 1.367 . S
C1783 C1782 1.367 . S
C1783 C1785 1.433 . S
C1784 C1780 1.350 . S
C1784 C1781 1.463 . S
C1784 N1788 1.427 . S
C1785 H1775 0.929 . S
C1785 C1783 1.433 . S
C1785 N1788 1.384 . S
C1786 H1777 0.929 . S
C1786 C1778 1.378 . S
C1786 C1781 1.350 . S
C1787 H1774 0.929 . S
C1787 C1779 1.433 . S
C1787 N1789 1.384 . S
N1788 C1784 1.427 . S
N1788 C1785 1.384 . S
N1789 C1781 1.427 . S
N1789 C1787 1.384 . S
H1790 C1796 0.930 . S
H1791 C1800 0.930 . S
H1792 C1805 0.929 . S
H1793 C1803 0.929 . S
H1794 C1798 0.929 . S
H1795 C1804 0.929 . S
C1796 H1790 0.930 . S
C1796 C1797 1.367 . S
C1796 C1804 1.378 . S
C1797 C1796 1.367 . S
C1797 C1805 1.433 . S
C1798 H1794 0.929 . S
C1798 C1800 1.378 . S
C1798 C1802 1.350 . S
C1799 C1802 1.463 . S
C1799 C1804 1.350 . S
C1799 N1807 1.427 . S
C1800 H1791 0.930 . S
C1800 C1798 1.378 . S
C1800 C1801 1.367 . S
C1801 C1800 1.367 . S
C1801 C1803 1.433 . S
C1802 C1798 1.350 . S
C1802 C1799 1.463 . S
C1802 N1806 1.427 . S
C1803 H1793 0.929 . S
C1803 C1801 1.433 . S
C1803 N1806 1.384 . S
C1804 H1795 0.929 . S
C1804 C1796 1.378 . S
C1804 C1799 1.350 . S
C1805 H1792 0.929 . S
C1805 C1797 1.433 . S
C1805 N1807 1.384 . S
N1806 C1802 1.427 . S
N1806 C1803 1.384 . S
N1807 C1799 1.427 . S
N1807 C1805 1.384 . S
H1808 C1814 0.930 . S
H1809 C1818 0.930 . S
H1810 C1823 0.929 . S
H1811 C1821 0.929 . S
H1812 C1816 0.929 . S
H1813 C1822 0.929 . S
C1814 H1808 0.930 . S
C1814 C1815 1.367 . S
C1814 C1822 1.378 . S
C1815 C1814 1.367 . S
C1815 C1823 1.433 . S
C1816 H1812 0.929 . S
C1816 C1818 1.378 . S
C1816 C1820 1.350 . S
C1817 C1820 1.463 . S
C1817 C1822 1.350 . S
C1817 N1825 1.427 . S
C1818 H1809 0.930 . S
C1818 C1816 1.378 . S
C1818 C1819 1.367 . S
C1819 C1818 1.367 . S
C1819 C1821 1.433 . S
C1820 C1816 1.350 . S
C1820 C1817 1.463 . S
C1820 N1824 1.427 . S
C1821 H1811 0.929 . S
C1821 C1819 1.433 . S
C1821 N1824 1.384 . S
C1822 H1813 0.929 . S
C1822 C1814 1.378 . S
C1822 C1817 1.350 . S
C1823 H1810 0.929 . S
C1823 C1815 1.433 . S
C1823 N1825 1.384 . S
N1824 C1820 1.427 . S
N1824 C1821 1.384 . S
N1825 C1817 1.427 . S
N1825 C1823 1.384 . S
H1826 C1832 0.930 . S
H1827 C1836 0.930 . S
H1828 C1841 0.929 . S
H1829 C1839 0.929 . S
H1830 C1834 0.929 . S
H1831 C1840 0.929 . S
C1832 H1826 0.930 . S
C1832 C1833 1.367 . S
C1832 C1840 1.378 . S
C1833 C1832 1.367 . S
C1833 C1841 1.433 . S
C1834 H1830 0.929 . S
C1834 C1836 1.378 . S
C1834 C1838 1.350 . S
C1835 C1838 1.463 . S
C1835 C1840 1.350 . S
C1835 N1843 1.427 . S
C1836 H1827 0.930 . S
C1836 C1834 1.378 . S
C1836 C1837 1.367 . S
C1837 C1836 1.367 . S
C1837 C1839 1.433 . S
C1838 C1834 1.350 . S
C1838 C1835 1.463 . S
C1838 N1842 1.427 . S
C1839 H1829 0.929 . S
C1839 C1837 1.433 . S
C1839 N1842 1.384 . S
C1840 H1831 0.929 . S
C1840 C1832 1.378 . S
C1840 C1835 1.350 . S
C1841 H1828 0.929 . S
C1841 C1833 1.433 . S
C1841 N1843 1.384 . S
N1842 C1838 1.427 . S
N1842 C1839 1.384 . S
N1843 C1835 1.427 . S
N1843 C1841 1.384 . S
H1844 C1850 0.930 . S
H1845 C1854 0.930 . S
H1846 C1859 0.929 . S
H1847 C1857 0.929 . S
H1848 C1852 0.929 . S
H1849 C1858 0.929 . S
C1850 H1844 0.930 . S
C1850 C1851 1.367 . S
C1850 C1858 1.378 . S
C1851 C1850 1.367 . S
C1851 C1859 1.433 . S
C1852 H1848 0.929 . S
C1852 C1854 1.378 . S
C1852 C1856 1.350 . S
C1853 C1856 1.463 . S
C1853 C1858 1.350 . S
C1853 N1861 1.427 . S
C1854 H1845 0.930 . S
C1854 C1852 1.378 . S
C1854 C1855 1.367 . S
C1855 C1854 1.367 . S
C1855 C1857 1.433 . S
C1856 C1852 1.350 . S
C1856 C1853 1.463 . S
C1856 N1860 1.427 . S
C1857 H1847 0.929 . S
C1857 C1855 1.433 . S
C1857 N1860 1.384 . S
C1858 H1849 0.929 . S
C1858 C1850 1.378 . S
C1858 C1853 1.350 . S
C1859 H1846 0.929 . S
C1859 C1851 1.433 . S
C1859 N1861 1.384 . S
N1860 C1856 1.427 . S
N1860 C1857 1.384 . S
N1861 C1853 1.427 . S
N1861 C1859 1.384 . S
H1862 C1868 0.930 . S
H1863 C1872 0.930 . S
H1864 C1877 0.929 . S
H1865 C1875 0.929 . S
H1866 C1870 0.952 . S
H1867 C1876 0.929 . S
C1868 H1862 0.930 . S
C1868 C1869 1.367 . S
C1868 C1876 1.378 . S
C1869 C1868 1.367 . S
C1869 C1877 1.433 . S
C1870 H1866 0.952 . S
C1870 C1872 1.392 . S
C1870 C1874 1.313 1_545 S
C1871 C1874 1.463 . S
C1871 C1876 1.350 . S
C1871 N1879 1.427 . S
C1872 H1863 0.930 . S
C1872 C1870 1.392 . S
C1872 C1873 1.367 . S
C1873 C1872 1.367 . S
C1873 C1875 1.433 1_545 S
C1874 C1870 1.313 1_565 S
C1874 C1871 1.463 . S
C1874 N1878 1.427 . S
C1875 H1865 0.929 . S
C1875 C1873 1.433 1_565 S
C1875 N1878 1.384 . S
C1876 H1867 0.929 . S
C1876 C1868 1.378 . S
C1876 C1871 1.350 . S
C1877 H1864 0.929 . S
C1877 C1869 1.433 . S
C1877 N1879 1.384 . S
N1878 C1874 1.427 . S
N1878 C1875 1.384 . S
N1879 C1871 1.427 . S
N1879 C1877 1.384 . S
H1880 C1886 0.930 . S
H1881 C1890 0.930 . S
H1882 C1895 0.929 . S
H1883 C1893 0.929 . S
H1884 C1888 0.929 . S
H1885 C1894 0.929 . S
C1886 H1880 0.930 . S
C1886 C1887 1.367 . S
C1886 C1894 1.378 . S
C1887 C1886 1.367 . S
C1887 C1895 1.433 . S
C1888 H1884 0.929 . S
C1888 C1890 1.378 . S
C1888 C1892 1.350 . S
C1889 C1892 1.463 . S
C1889 C1894 1.350 . S
C1889 N1897 1.427 . S
C1890 H1881 0.930 . S
C1890 C1888 1.378 . S
C1890 C1891 1.367 . S
C1891 C1890 1.367 . S
C1891 C1893 1.433 . S
C1892 C1888 1.350 . S
C1892 C1889 1.463 . S
C1892 N1896 1.427 . S
C1893 H1883 0.929 . S
C1893 C1891 1.433 . S
C1893 N1896 1.384 . S
C1894 H1885 0.929 . S
C1894 C1886 1.378 . S
C1894 C1889 1.350 . S
C1895 H1882 0.929 . S
C1895 C1887 1.433 . S
C1895 N1897 1.384 . S
N1896 C1892 1.427 . S
N1896 C1893 1.384 . S
N1897 C1889 1.427 . S
N1897 C1895 1.384 . S
H1898 C1904 0.930 . S
H1899 C1908 0.930 1_556 S
H1900 C1913 0.929 . S
H1901 C1911 0.929 . S
H1902 C1906 0.929 1_556 S
H1903 C1912 0.929 . S
C1904 H1898 0.930 . S
C1904 C1905 1.367 . S
C1904 C1912 1.378 . S
C1905 C1904 1.367 . S
C1905 C1913 1.433 1_554 S
C1906 H1902 0.929 1_554 S
C1906 C1908 1.378 . S
C1906 C1910 1.350 . S
C1907 C1910 1.463 . S
C1907 C1912 1.350 . S
C1907 N1915 1.427 1_554 S
C1908 H1899 0.930 1_554 S
C1908 C1906 1.378 . S
C1908 C1909 1.367 . S
C1909 C1908 1.367 . S
C1909 C1911 1.433 . S
C1910 C1906 1.350 . S
C1910 C1907 1.463 . S
C1910 N1914 1.427 . S
C1911 H1901 0.929 . S
C1911 C1909 1.433 . S
C1911 N1914 1.384 . S
C1912 H1903 0.929 . S
C1912 C1904 1.378 . S
C1912 C1907 1.350 . S
C1913 H1900 0.929 . S
C1913 C1905 1.433 1_556 S
C1913 N1915 1.384 . S
N1914 C1910 1.427 . S
N1914 C1911 1.384 . S
N1915 C1907 1.427 1_556 S
N1915 C1913 1.384 . S
H1916 C1922 0.930 . S
H1917 C1926 0.930 . S
H1918 C1931 0.929 . S
H1919 C1929 0.929 . S
H1920 C1924 0.929 . S
H1921 C1930 0.929 . S
C1922 H1916 0.930 . S
C1922 C1923 1.367 . S
C1922 C1930 1.378 . S
C1923 C1922 1.367 . S
C1923 C1931 1.433 . S
C1924 H1920 0.929 . S
C1924 C1926 1.378 . S
C1924 C1928 1.350 . S
C1925 C1928 1.463 . S
C1925 C1930 1.350 . S
C1925 N1933 1.427 . S
C1926 H1917 0.930 . S
C1926 C1924 1.378 . S
C1926 C1927 1.367 . S
C1927 C1926 1.367 . S
C1927 C1929 1.433 . S
C1928 C1924 1.350 . S
C1928 C1925 1.463 . S
C1928 N1932 1.427 . S
C1929 H1919 0.929 . S
C1929 C1927 1.433 . S
C1929 N1932 1.384 . S
C1930 H1921 0.929 . S
C1930 C1922 1.378 . S
C1930 C1925 1.350 . S
C1931 H1918 0.929 . S
C1931 C1923 1.433 . S
C1931 N1933 1.384 . S
N1932 C1928 1.427 . S
N1932 C1929 1.384 . S
N1933 C1925 1.427 . S
N1933 C1931 1.384 . S
H1934 C1940 0.930 . S
H1935 C1944 0.930 . S
H1936 C1949 0.929 . S
H1937 C1947 0.929 . S
H1938 C1942 0.929 . S
H1939 C1948 0.929 . S
C1940 H1934 0.930 . S
C1940 C1941 1.367 . S
C1940 C1948 1.378 . S
C1941 C1940 1.367 . S
C1941 C1949 1.433 . S
C1942 H1938 0.929 . S
C1942 C1944 1.378 . S
C1942 C1946 1.350 . S
C1943 C1946 1.463 . S
C1943 C1948 1.350 . S
C1943 N1951 1.427 . S
C1944 H1935 0.930 . S
C1944 C1942 1.378 . S
C1944 C1945 1.367 . S
C1945 C1944 1.367 . S
C1945 C1947 1.433 . S
C1946 C1942 1.350 . S
C1946 C1943 1.463 . S
C1946 N1950 1.427 . S
C1947 H1937 0.929 . S
C1947 C1945 1.433 . S
C1947 N1950 1.384 . S
C1948 H1939 0.929 . S
C1948 C1940 1.378 . S
C1948 C1943 1.350 . S
C1949 H1936 0.929 . S
C1949 C1941 1.433 . S
C1949 N1951 1.384 . S
N1950 C1946 1.427 . S
N1950 C1947 1.384 . S
N1951 C1943 1.427 . S
N1951 C1949 1.384 . S
H1952 C1958 0.930 . S
H1953 C1962 0.930 . S
H1954 C1967 0.929 . S
H1955 C1965 0.929 . S
H1956 C1960 0.929 . S
H1957 C1966 0.929 . S
C1958 H1952 0.930 . S
C1958 C1959 1.367 . S
C1958 C1966 1.378 . S
C1959 C1958 1.367 . S
C1959 C1967 1.433 . S
C1960 H1956 0.929 . S
C1960 C1962 1.378 . S
C1960 C1964 1.350 . S
C1961 C1964 1.463 . S
C1961 C1966 1.350 . S
C1961 N1969 1.427 . S
C1962 H1953 0.930 . S
C1962 C1960 1.378 . S
C1962 C1963 1.367 . S
C1963 C1962 1.367 . S
C1963 C1965 1.433 . S
C1964 C1960 1.350 . S
C1964 C1961 1.463 . S
C1964 N1968 1.427 . S
C1965 H1955 0.929 . S
C1965 C1963 1.433 . S
C1965 N1968 1.384 . S
C1966 H1957 0.929 . S
C1966 C1958 1.378 . S
C1966 C1961 1.350 . S
C1967 H1954 0.929 . S
C1967 C1959 1.433 . S
C1967 N1969 1.384 . S
N1968 C1964 1.427 . S
N1968 C1965 1.384 . S
N1969 C1961 1.427 . S
N1969 C1967 1.384 . S
H1970 C1976 0.930 . S
H1971 C1980 0.930 . S
H1972 C1985 0.929 . S
H1973 C1983 0.929 . S
H1974 C1978 0.929 . S
H1975 C1984 0.929 . S
C1976 H1970 0.930 . S
C1976 C1977 1.367 . S
C1976 C1984 1.378 . S
C1977 C1976 1.367 . S
C1977 C1985 1.433 . S
C1978 H1974 0.929 . S
C1978 C1980 1.378 . S
C1978 C1982 1.350 . S
C1979 C1982 1.463 . S
C1979 C1984 1.350 . S
C1979 N1987 1.427 . S
C1980 H1971 0.930 . S
C1980 C1978 1.378 . S
C1980 C1981 1.367 . S
C1981 C1980 1.367 . S
C1981 C1983 1.433 . S
C1982 C1978 1.350 . S
C1982 C1979 1.463 . S
C1982 N1986 1.427 . S
C1983 H1973 0.929 . S
C1983 C1981 1.433 . S
C1983 N1986 1.384 . S
C1984 H1975 0.929 . S
C1984 C1976 1.378 . S
C1984 C1979 1.350 . S
C1985 H1972 0.929 . S
C1985 C1977 1.433 . S
C1985 N1987 1.384 . S
N1986 C1982 1.427 . S
N1986 C1983 1.384 . S
N1987 C1979 1.427 . S
N1987 C1985 1.384 . S
H1988 C1994 0.930 . S
H1989 C1998 0.930 . S
H1990 C2003 0.929 . S
H1991 C2001 0.929 . S
H1992 C1996 0.929 . S
H1993 C2002 0.929 . S
C1994 H1988 0.930 . S
C1994 C1995 1.367 1_655 S
C1994 C2002 1.378 . S
C1995 C1994 1.367 1_455 S
C1995 C2003 1.433 . S
C1996 H1992 0.929 . S
C1996 C1998 1.378 . S
C1996 C2000 1.350 . S
C1997 C2000 1.463 . S
C1997 C2002 1.350 1_455 S
C1997 N2005 1.427 . S
C1998 H1989 0.930 . S
C1998 C1996 1.378 . S
C1998 C1999 1.367 . S
C1999 C1998 1.367 . S
C1999 C2001 1.433 1_455 S
C2000 C1996 1.350 . S
C2000 C1997 1.463 . S
C2000 N2004 1.427 1_455 S
C2001 H1991 0.929 . S
C2001 C1999 1.433 1_655 S
C2001 N2004 1.384 . S
C2002 H1993 0.929 . S
C2002 C1994 1.378 . S
C2002 C1997 1.350 1_655 S
C2003 H1990 0.929 . S
C2003 C1995 1.433 . S
C2003 N2005 1.384 . S
N2004 C2000 1.427 1_655 S
N2004 C2001 1.384 . S
N2005 C1997 1.427 . S
N2005 C2003 1.384 . S
H2006 C2012 0.930 . S
H2007 C2016 0.930 . S
H2008 C2021 0.929 . S
H2009 C2019 0.929 . S
H2010 C2014 0.929 . S
H2011 C2020 0.929 . S
C2012 H2006 0.930 . S
C2012 C2013 1.367 . S
C2012 C2020 1.378 . S
C2013 C2012 1.367 . S
C2013 C2021 1.433 . S
C2014 H2010 0.929 . S
C2014 C2016 1.378 . S
C2014 C2018 1.350 . S
C2015 C2018 1.463 . S
C2015 C2020 1.350 . S
C2015 N2023 1.427 . S
C2016 H2007 0.930 . S
C2016 C2014 1.378 . S
C2016 C2017 1.367 . S
C2017 C2016 1.367 . S
C2017 C2019 1.433 . S
C2018 C2014 1.350 . S
C2018 C2015 1.463 . S
C2018 N2022 1.427 . S
C2019 H2009 0.929 . S
C2019 C2017 1.433 . S
C2019 N2022 1.384 . S
C2020 H2011 0.929 . S
C2020 C2012 1.378 . S
C2020 C2015 1.350 . S
C2021 H2008 0.929 . S
C2021 C2013 1.433 . S
C2021 N2023 1.384 . S
N2022 C2018 1.427 . S
N2022 C2019 1.384 . S
N2023 C2015 1.427 . S
N2023 C2021 1.384 . S
H2024 C2030 0.930 . S
H2025 C2034 0.930 . S
H2026 C2039 0.929 . S
H2027 C2037 0.929 1_554 S
H2028 C2032 0.929 . S
H2029 C2038 0.929 . S
C2030 H2024 0.930 . S
C2030 C2031 1.367 . S
C2030 C2038 1.378 . S
C2031 C2030 1.367 . S
C2031 C2039 1.433 . S
C2032 H2028 0.929 . S
C2032 C2034 1.378 . S
C2032 C2036 1.350 . S
C2033 C2036 1.463 . S
C2033 C2038 1.350 . S
C2033 N2041 1.427 . S
C2034 H2025 0.930 . S
C2034 C2032 1.378 . S
C2034 C2035 1.367 . S
C2035 C2034 1.367 . S
C2035 C2037 1.433 . S
C2036 C2032 1.350 . S
C2036 C2033 1.463 . S
C2036 N2040 1.427 . S
C2037 H2027 0.929 1_556 S
C2037 C2035 1.433 . S
C2037 N2040 1.384 . S
C2038 H2029 0.929 . S
C2038 C2030 1.378 . S
C2038 C2033 1.350 . S
C2039 H2026 0.929 . S
C2039 C2031 1.433 . S
C2039 N2041 1.384 . S
N2040 C2036 1.427 . S
N2040 C2037 1.384 . S
N2041 C2033 1.427 . S
N2041 C2039 1.384 . S
H2042 C2048 0.930 . S
H2043 C2052 0.930 . S
H2044 C2057 0.929 . S
H2045 C2055 0.929 . S
H2046 C2050 0.929 . S
H2047 C2056 0.929 . S
C2048 H2042 0.930 . S
C2048 C2049 1.367 . S
C2048 C2056 1.378 . S
C2049 C2048 1.367 . S
C2049 C2057 1.433 . S
C2050 H2046 0.929 . S
C2050 C2052 1.378 . S
C2050 C2054 1.350 . S
C2051 C2054 1.463 . S
C2051 C2056 1.350 . S
C2051 N2059 1.427 . S
C2052 H2043 0.930 . S
C2052 C2050 1.378 . S
C2052 C2053 1.367 . S
C2053 C2052 1.367 . S
C2053 C2055 1.433 . S
C2054 C2050 1.350 . S
C2054 C2051 1.463 . S
C2054 N2058 1.427 . S
C2055 H2045 0.929 . S
C2055 C2053 1.433 . S
C2055 N2058 1.384 . S
C2056 H2047 0.929 . S
C2056 C2048 1.378 . S
C2056 C2051 1.350 . S
C2057 H2044 0.929 . S
C2057 C2049 1.433 . S
C2057 N2059 1.384 . S
N2058 C2054 1.427 . S
N2058 C2055 1.384 . S
N2059 C2051 1.427 . S
N2059 C2057 1.384 . S
H2060 C2066 0.930 1_655 S
H2061 C2070 0.930 . S
H2062 C2075 0.929 . S
H2063 C2073 0.929 1_655 S
H2064 C2068 0.929 . S
H2065 C2074 0.929 1_655 S
C2066 H2060 0.930 1_455 S
C2066 C2067 1.367 . S
C2066 C2074 1.378 . S
C2067 C2066 1.367 . S
C2067 C2075 1.433 . S
C2068 H2064 0.929 . S
C2068 C2070 1.378 . S
C2068 C2072 1.350 . S
C2069 C2072 1.463 . S
C2069 C2074 1.350 . S
C2069 N2077 1.427 . S
C2070 H2061 0.930 . S
C2070 C2068 1.378 . S
C2070 C2071 1.367 . S
C2071 C2070 1.367 . S
C2071 C2073 1.433 . S
C2072 C2068 1.350 . S
C2072 C2069 1.463 . S
C2072 N2076 1.427 . S
C2073 H2063 0.929 1_455 S
C2073 C2071 1.433 . S
C2073 N2076 1.384 . S
C2074 H2065 0.929 1_455 S
C2074 C2066 1.378 . S
C2074 C2069 1.350 . S
C2075 H2062 0.929 . S
C2075 C2067 1.433 . S
C2075 N2077 1.384 . S
N2076 C2072 1.427 . S
N2076 C2073 1.384 . S
N2077 C2069 1.427 . S
N2077 C2075 1.384 . S
H2078 C2084 0.930 . S
H2079 C2088 0.930 . S
H2080 C2093 0.929 . S
H2081 C2091 0.929 . S
H2082 C2086 0.929 . S
H2083 C2092 0.929 . S
C2084 H2078 0.930 . S
C2084 C2085 1.367 . S
C2084 C2092 1.378 . S
C2085 C2084 1.367 . S
C2085 C2093 1.433 . S
C2086 H2082 0.929 . S
C2086 C2088 1.378 . S
C2086 C2090 1.350 . S
C2087 C2090 1.463 . S
C2087 C2092 1.350 . S
C2087 N2095 1.427 . S
C2088 H2079 0.930 . S
C2088 C2086 1.378 . S
C2088 C2089 1.367 . S
C2089 C2088 1.367 . S
C2089 C2091 1.433 . S
C2090 C2086 1.350 . S
C2090 C2087 1.463 . S
C2090 N2094 1.427 . S
C2091 H2081 0.929 . S
C2091 C2089 1.433 . S
C2091 N2094 1.384 . S
C2092 H2083 0.929 . S
C2092 C2084 1.378 . S
C2092 C2087 1.350 . S
C2093 H2080 0.929 . S
C2093 C2085 1.433 . S
C2093 N2095 1.384 . S
N2094 C2090 1.427 . S
N2094 C2091 1.384 . S
N2095 C2087 1.427 . S
N2095 C2093 1.384 . S
H2096 C2102 0.930 . S
H2097 C2106 0.930 . S
H2098 C2111 0.929 . S
H2099 C2109 0.929 . S
H2100 C2104 0.929 . S
H2101 C2110 0.929 . S
C2102 H2096 0.930 . S
C2102 C2103 1.367 . S
C2102 C2110 1.378 . S
C2103 C2102 1.367 . S
C2103 C2111 1.433 . S
C2104 H2100 0.929 . S
C2104 C2106 1.378 . S
C2104 C2108 1.350 . S
C2105 C2108 1.463 . S
C2105 C2110 1.350 . S
C2105 N2113 1.427 . S
C2106 H2097 0.930 . S
C2106 C2104 1.378 . S
C2106 C2107 1.367 . S
C2107 C2106 1.367 . S
C2107 C2109 1.433 . S
C2108 C2104 1.350 . S
C2108 C2105 1.463 . S
C2108 N2112 1.427 . S
C2109 H2099 0.929 . S
C2109 C2107 1.433 . S
C2109 N2112 1.384 . S
C2110 H2101 0.929 . S
C2110 C2102 1.378 . S
C2110 C2105 1.350 . S
C2111 H2098 0.929 . S
C2111 C2103 1.433 . S
C2111 N2113 1.384 . S
N2112 C2108 1.427 . S
N2112 C2109 1.384 . S
N2113 C2105 1.427 . S
N2113 C2111 1.384 . S
H2114 C2120 0.930 . S
H2115 C2124 0.930 . S
H2116 C2129 0.929 . S
H2117 C2127 0.929 . S
H2118 C2122 0.929 . S
H2119 C2128 0.929 . S
C2120 H2114 0.930 . S
C2120 C2121 1.367 . S
C2120 C2128 1.378 . S
C2121 C2120 1.367 . S
C2121 C2129 1.433 . S
C2122 H2118 0.929 . S
C2122 C2124 1.378 . S
C2122 C2126 1.350 . S
C2123 C2126 1.463 . S
C2123 C2128 1.350 . S
C2123 N2131 1.427 . S
C2124 H2115 0.930 . S
C2124 C2122 1.378 . S
C2124 C2125 1.367 . S
C2125 C2124 1.367 . S
C2125 C2127 1.433 . S
C2126 C2122 1.350 . S
C2126 C2123 1.463 . S
C2126 N2130 1.427 . S
C2127 H2117 0.929 . S
C2127 C2125 1.433 . S
C2127 N2130 1.384 . S
C2128 H2119 0.929 . S
C2128 C2120 1.378 . S
C2128 C2123 1.350 . S
C2129 H2116 0.929 . S
C2129 C2121 1.433 . S
C2129 N2131 1.384 . S
N2130 C2126 1.427 . S
N2130 C2127 1.384 . S
N2131 C2123 1.427 . S
N2131 C2129 1.384 . S
H2132 C2138 0.930 . S
H2133 C2142 0.930 1_455 S
H2134 C2147 0.929 . S
H2135 C2145 0.929 . S
H2136 C2140 0.929 . S
H2137 C2146 0.929 . S
C2138 H2132 0.930 . S
C2138 C2139 1.367 . S
C2138 C2146 1.378 . S
C2139 C2138 1.367 . S
C2139 C2147 1.433 . S
C2140 H2136 0.929 . S
C2140 C2142 1.378 . S
C2140 C2144 1.350 . S
C2141 C2144 1.463 . S
C2141 C2146 1.350 . S
C2141 N2149 1.427 . S
C2142 H2133 0.930 1_655 S
C2142 C2140 1.378 . S
C2142 C2143 1.367 . S
C2143 C2142 1.367 . S
C2143 C2145 1.433 . S
C2144 C2140 1.350 . S
C2144 C2141 1.463 . S
C2144 N2148 1.427 . S
C2145 H2135 0.929 . S
C2145 C2143 1.433 . S
C2145 N2148 1.384 . S
C2146 H2137 0.929 . S
C2146 C2138 1.378 . S
C2146 C2141 1.350 . S
C2147 H2134 0.929 . S
C2147 C2139 1.433 . S
C2147 N2149 1.384 . S
N2148 C2144 1.427 . S
N2148 C2145 1.384 . S
N2149 C2141 1.427 . S
N2149 C2147 1.384 . S
H2150 C2156 0.930 . S
H2151 C2160 0.930 . S
H2152 C2165 0.929 . S
H2153 C2163 0.929 . S
H2154 C2158 0.929 . S
H2155 C2164 0.929 . S
C2156 H2150 0.930 . S
C2156 C2157 1.367 . S
C2156 C2164 1.378 . S
C2157 C2156 1.367 . S
C2157 C2165 1.433 . S
C2158 H2154 0.929 . S
C2158 C2160 1.378 . S
C2158 C2162 1.350 . S
C2159 C2162 1.463 . S
C2159 C2164 1.350 . S
C2159 N2167 1.427 . S
C2160 H2151 0.930 . S
C2160 C2158 1.378 . S
C2160 C2161 1.367 . S
C2161 C2160 1.367 . S
C2161 C2163 1.433 . S
C2162 C2158 1.350 . S
C2162 C2159 1.463 . S
C2162 N2166 1.427 . S
C2163 H2153 0.929 . S
C2163 C2161 1.433 . S
C2163 N2166 1.384 . S
C2164 H2155 0.929 . S
C2164 C2156 1.378 . S
C2164 C2159 1.350 . S
C2165 H2152 0.929 . S
C2165 C2157 1.433 . S
C2165 N2167 1.384 . S
N2166 C2162 1.427 . S
N2166 C2163 1.384 . S
N2167 C2159 1.427 . S
N2167 C2165 1.384 . S
H2168 C2174 0.930 . S
H2169 C2178 0.930 . S
H2170 C2183 0.929 . S
H2171 C2181 0.929 . S
H2172 C2176 0.929 . S
H2173 C2182 0.929 . S
C2174 H2168 0.930 . S
C2174 C2175 1.367 . S
C2174 C2182 1.378 . S
C2175 C2174 1.367 . S
C2175 C2183 1.433 . S
C2176 H2172 0.929 . S
C2176 C2178 1.378 . S
C2176 C2180 1.350 . S
C2177 C2180 1.463 . S
C2177 C2182 1.350 . S
C2177 N2185 1.427 . S
C2178 H2169 0.930 . S
C2178 C2176 1.378 . S
C2178 C2179 1.367 . S
C2179 C2178 1.367 . S
C2179 C2181 1.433 . S
C2180 C2176 1.350 . S
C2180 C2177 1.463 . S
C2180 N2184 1.427 . S
C2181 H2171 0.929 . S
C2181 C2179 1.433 . S
C2181 N2184 1.384 . S
C2182 H2173 0.929 . S
C2182 C2174 1.378 . S
C2182 C2177 1.350 . S
C2183 H2170 0.929 . S
C2183 C2175 1.433 . S
C2183 N2185 1.384 . S
N2184 C2180 1.427 . S
N2184 C2181 1.384 . S
N2185 C2177 1.427 . S
N2185 C2183 1.384 . S
H2186 C2192 0.930 . S
H2187 C2196 0.930 . S
H2188 C2201 0.929 . S
H2189 C2199 0.929 . S
H2190 C2194 0.929 . S
H2191 C2200 0.929 . S
C2192 H2186 0.930 . S
C2192 C2193 1.367 . S
C2192 C2200 1.378 . S
C2193 C2192 1.367 . S
C2193 C2201 1.433 . S
C2194 H2190 0.929 . S
C2194 C2196 1.378 . S
C2194 C2198 1.350 . S
C2195 C2198 1.463 . S
C2195 C2200 1.350 . S
C2195 N2203 1.427 . S
C2196 H2187 0.930 . S
C2196 C2194 1.378 . S
C2196 C2197 1.367 . S
C2197 C2196 1.367 . S
C2197 C2199 1.433 . S
C2198 C2194 1.350 . S
C2198 C2195 1.463 . S
C2198 N2202 1.427 . S
C2199 H2189 0.929 . S
C2199 C2197 1.433 . S
C2199 N2202 1.384 . S
C2200 H2191 0.929 . S
C2200 C2192 1.378 . S
C2200 C2195 1.350 . S
C2201 H2188 0.929 . S
C2201 C2193 1.433 . S
C2201 N2203 1.384 . S
N2202 C2198 1.427 . S
N2202 C2199 1.384 . S
N2203 C2195 1.427 . S
N2203 C2201 1.384 . S
H2204 C2210 0.930 . S
H2205 C2214 0.930 . S
H2206 C2219 0.929 . S
H2207 C2217 0.929 . S
H2208 C2212 0.929 . S
H2209 C2218 0.929 . S
C2210 H2204 0.930 . S
C2210 C2211 1.367 . S
C2210 C2218 1.378 . S
C2211 C2210 1.367 . S
C2211 C2219 1.433 . S
C2212 H2208 0.929 . S
C2212 C2214 1.378 . S
C2212 C2216 1.350 . S
C2213 C2216 1.463 . S
C2213 C2218 1.350 . S
C2213 N2221 1.427 . S
C2214 H2205 0.930 . S
C2214 C2212 1.378 . S
C2214 C2215 1.367 . S
C2215 C2214 1.367 . S
C2215 C2217 1.433 . S
C2216 C2212 1.350 . S
C2216 C2213 1.463 . S
C2216 N2220 1.427 . S
C2217 H2207 0.929 . S
C2217 C2215 1.433 . S
C2217 N2220 1.384 . S
C2218 H2209 0.929 . S
C2218 C2210 1.378 . S
C2218 C2213 1.350 . S
C2219 H2206 0.929 . S
C2219 C2211 1.433 . S
C2219 N2221 1.384 . S
N2220 C2216 1.427 . S
N2220 C2217 1.384 . S
N2221 C2213 1.427 . S
N2221 C2219 1.384 . S
H2222 C2228 0.930 . S
H2223 C2232 0.930 . S
H2224 C2237 0.929 . S
H2225 C2235 0.929 . S
H2226 C2230 0.929 . S
H2227 C2236 0.929 . S
C2228 H2222 0.930 . S
C2228 C2229 1.367 . S
C2228 C2236 1.378 . S
C2229 C2228 1.367 . S
C2229 C2237 1.433 . S
C2230 H2226 0.929 . S
C2230 C2232 1.378 . S
C2230 C2234 1.350 . S
C2231 C2234 1.463 . S
C2231 C2236 1.350 . S
C2231 N2239 1.427 . S
C2232 H2223 0.930 . S
C2232 C2230 1.378 . S
C2232 C2233 1.367 . S
C2233 C2232 1.367 . S
C2233 C2235 1.433 . S
C2234 C2230 1.350 . S
C2234 C2231 1.463 . S
C2234 N2238 1.427 . S
C2235 H2225 0.929 . S
C2235 C2233 1.433 . S
C2235 N2238 1.384 . S
C2236 H2227 0.929 . S
C2236 C2228 1.378 . S
C2236 C2231 1.350 . S
C2237 H2224 0.929 . S
C2237 C2229 1.433 . S
C2237 N2239 1.384 . S
N2238 C2234 1.427 . S
N2238 C2235 1.384 . S
N2239 C2231 1.427 . S
N2239 C2237 1.384 . S
H2240 C2246 0.930 . S
H2241 C2250 0.930 . S
H2242 C2255 0.929 . S
H2243 C2253 0.929 . S
H2244 C2248 0.929 . S
H2245 C2254 0.929 . S
C2246 H2240 0.930 . S
C2246 C2247 1.367 . S
C2246 C2254 1.378 . S
C2247 C2246 1.367 . S
C2247 C2255 1.433 . S
C2248 H2244 0.929 . S
C2248 C2250 1.378 . S
C2248 C2252 1.350 . S
C2249 C2252 1.463 . S
C2249 C2254 1.350 . S
C2249 N2257 1.427 . S
C2250 H2241 0.930 . S
C2250 C2248 1.378 . S
C2250 C2251 1.367 . S
C2251 C2250 1.367 . S
C2251 C2253 1.433 . S
C2252 C2248 1.350 . S
C2252 C2249 1.463 . S
C2252 N2256 1.427 . S
C2253 H2243 0.929 . S
C2253 C2251 1.433 . S
C2253 N2256 1.384 . S
C2254 H2245 0.929 . S
C2254 C2246 1.378 . S
C2254 C2249 1.350 . S
C2255 H2242 0.929 . S
C2255 C2247 1.433 . S
C2255 N2257 1.384 . S
N2256 C2252 1.427 . S
N2256 C2253 1.384 . S
N2257 C2249 1.427 . S
N2257 C2255 1.384 . S
H2258 C2264 0.930 . S
H2259 C2268 0.930 . S
H2260 C2273 0.929 . S
H2261 C2271 0.929 . S
H2262 C2266 0.929 . S
H2263 C2272 0.929 . S
C2264 H2258 0.930 . S
C2264 C2265 1.367 . S
C2264 C2272 1.378 . S
C2265 C2264 1.367 . S
C2265 C2273 1.433 . S
C2266 H2262 0.929 . S
C2266 C2268 1.378 1_565 S
C2266 C2270 1.350 . S
C2267 C2270 1.463 . S
C2267 C2272 1.350 . S
C2267 N2275 1.427 . S
C2268 H2259 0.930 . S
C2268 C2266 1.378 1_545 S
C2268 C2269 1.367 1_545 S
C2269 C2268 1.367 1_565 S
C2269 C2271 1.433 . S
C2270 C2266 1.350 . S
C2270 C2267 1.463 . S
C2270 N2274 1.427 . S
C2271 H2261 0.929 . S
C2271 C2269 1.433 . S
C2271 N2274 1.384 . S
C2272 H2263 0.929 . S
C2272 C2264 1.378 . S
C2272 C2267 1.350 . S
C2273 H2260 0.929 . S
C2273 C2265 1.433 . S
C2273 N2275 1.384 . S
N2274 C2270 1.427 . S
N2274 C2271 1.384 . S
N2275 C2267 1.427 . S
N2275 C2273 1.384 . S
H2276 C2282 0.930 . S
H2277 C2286 0.930 . S
H2278 C2291 0.929 . S
H2279 C2289 0.929 . S
H2280 C2284 0.929 . S
H2281 C2290 0.929 . S
C2282 H2276 0.930 . S
C2282 C2283 1.367 . S
C2282 C2290 1.378 . S
C2283 C2282 1.367 . S
C2283 C2291 1.433 . S
C2284 H2280 0.929 . S
C2284 C2286 1.378 . S
C2284 C2288 1.350 . S
C2285 C2288 1.463 . S
C2285 C2290 1.350 . S
C2285 N2293 1.427 . S
C2286 H2277 0.930 . S
C2286 C2284 1.378 . S
C2286 C2287 1.367 . S
C2287 C2286 1.367 . S
C2287 C2289 1.433 . S
C2288 C2284 1.350 . S
C2288 C2285 1.463 . S
C2288 N2292 1.427 . S
C2289 H2279 0.929 . S
C2289 C2287 1.433 . S
C2289 N2292 1.384 . S
C2290 H2281 0.929 . S
C2290 C2282 1.378 . S
C2290 C2285 1.350 . S
C2291 H2278 0.929 . S
C2291 C2283 1.433 . S
C2291 N2293 1.384 . S
N2292 C2288 1.427 . S
N2292 C2289 1.384 . S
N2293 C2285 1.427 . S
N2293 C2291 1.384 . S
H2294 C2300 0.930 . S
H2295 C2304 0.930 . S
H2296 C2309 0.929 . S
H2297 C2307 0.929 . S
H2298 C2302 0.929 . S
H2299 C2308 0.929 . S
C2300 H2294 0.930 . S
C2300 C2301 1.367 . S
C2300 C2308 1.378 . S
C2301 C2300 1.367 . S
C2301 C2309 1.433 1_556 S
C2302 H2298 0.929 . S
C2302 C2304 1.378 . S
C2302 C2306 1.350 . S
C2303 C2306 1.463 1_556 S
C2303 C2308 1.350 . S
C2303 N2311 1.427 1_556 S
C2304 H2295 0.930 . S
C2304 C2302 1.378 . S
C2304 C2305 1.367 . S
C2305 C2304 1.367 . S
C2305 C2307 1.433 1_554 S
C2306 C2302 1.350 . S
C2306 C2303 1.463 1_554 S
C2306 N2310 1.427 1_554 S
C2307 H2297 0.929 . S
C2307 C2305 1.433 1_556 S
C2307 N2310 1.384 . S
C2308 H2299 0.929 . S
C2308 C2300 1.378 . S
C2308 C2303 1.350 . S
C2309 H2296 0.929 . S
C2309 C2301 1.433 1_554 S
C2309 N2311 1.384 . S
N2310 C2306 1.427 1_556 S
N2310 C2307 1.384 . S
N2311 C2303 1.427 1_554 S
N2311 C2309 1.384 . S
H2312 C2318 0.930 . S
H2313 C2322 0.930 . S
H2314 C2327 0.929 . S
H2315 C2325 0.929 . S
H2316 C2320 0.929 . S
H2317 C2326 0.929 . S
C2318 H2312 0.930 . S
C2318 C2319 1.367 . S
C2318 C2326 1.378 . S
C2319 C2318 1.367 . S
C2319 C2327 1.433 . S
C2320 H2316 0.929 . S
C2320 C2322 1.378 . S
C2320 C2324 1.350 . S
C2321 C2324 1.463 . S
C2321 C2326 1.350 . S
C2321 N2329 1.427 . S
C2322 H2313 0.930 . S
C2322 C2320 1.378 . S
C2322 C2323 1.367 . S
C2323 C2322 1.367 . S
C2323 C2325 1.433 . S
C2324 C2320 1.350 . S
C2324 C2321 1.463 . S
C2324 N2328 1.427 . S
C2325 H2315 0.929 . S
C2325 C2323 1.433 . S
C2325 N2328 1.384 . S
C2326 H2317 0.929 . S
C2326 C2318 1.378 . S
C2326 C2321 1.350 . S
C2327 H2314 0.929 . S
C2327 C2319 1.433 . S
C2327 N2329 1.384 . S
N2328 C2324 1.427 . S
N2328 C2325 1.384 . S
N2329 C2321 1.427 . S
N2329 C2327 1.384 . S
H2330 C2336 0.930 1_556 S
H2331 C2340 0.930 . S
H2332 C2345 0.929 . S
H2333 C2343 0.929 . S
H2334 C2338 0.929 . S
H2335 C2344 0.929 1_556 S
C2336 H2330 0.930 1_554 S
C2336 C2337 1.367 . S
C2336 C2344 1.378 . S
C2337 C2336 1.367 . S
C2337 C2345 1.433 . S
C2338 H2334 0.929 . S
C2338 C2340 1.378 . S
C2338 C2342 1.350 . S
C2339 C2342 1.463 . S
C2339 C2344 1.350 . S
C2339 N2347 1.427 . S
C2340 H2331 0.930 . S
C2340 C2338 1.378 . S
C2340 C2341 1.367 1_554 S
C2341 C2340 1.367 1_556 S
C2341 C2343 1.433 . S
C2342 C2338 1.350 . S
C2342 C2339 1.463 . S
C2342 N2346 1.427 1_554 S
C2343 H2333 0.929 . S
C2343 C2341 1.433 . S
C2343 N2346 1.384 . S
C2344 H2335 0.929 1_554 S
C2344 C2336 1.378 . S
C2344 C2339 1.350 . S
C2345 H2332 0.929 . S
C2345 C2337 1.433 . S
C2345 N2347 1.384 . S
N2346 C2342 1.427 1_556 S
N2346 C2343 1.384 . S
N2347 C2339 1.427 . S
N2347 C2345 1.384 . S
H2348 C2354 0.930 . S
H2349 C2358 0.930 . S
H2350 C2363 0.929 . S
H2351 C2361 0.929 . S
H2352 C2356 0.929 . S
H2353 C2362 0.929 . S
C2354 H2348 0.930 . S
C2354 C2355 1.367 . S
C2354 C2362 1.378 . S
C2355 C2354 1.367 . S
C2355 C2363 1.433 . S
C2356 H2352 0.929 . S
C2356 C2358 1.378 . S
C2356 C2360 1.350 . S
C2357 C2360 1.463 . S
C2357 C2362 1.350 . S
C2357 N2365 1.427 . S
C2358 H2349 0.930 . S
C2358 C2356 1.378 . S
C2358 C2359 1.367 . S
C2359 C2358 1.367 . S
C2359 C2361 1.433 . S
C2360 C2356 1.350 . S
C2360 C2357 1.463 . S
C2360 N2364 1.427 . S
C2361 H2351 0.929 . S
C2361 C2359 1.433 . S
C2361 N2364 1.384 . S
C2362 H2353 0.929 . S
C2362 C2354 1.378 . S
C2362 C2357 1.350 . S
C2363 H2350 0.929 . S
C2363 C2355 1.433 . S
C2363 N2365 1.384 . S
N2364 C2360 1.427 . S
N2364 C2361 1.384 . S
N2365 C2357 1.427 . S
N2365 C2363 1.384 . S
H2366 C2372 0.930 . S
H2367 C2376 0.930 . S
H2368 C2381 0.929 . S
H2369 C2379 0.929 . S
H2370 C2374 0.929 . S
H2371 C2380 0.929 . S
C2372 H2366 0.930 . S
C2372 C2373 1.367 . S
C2372 C2380 1.378 . S
C2373 C2372 1.367 . S
C2373 C2381 1.433 . S
C2374 H2370 0.929 . S
C2374 C2376 1.378 . S
C2374 C2378 1.350 . S
C2375 C2378 1.463 . S
C2375 C2380 1.350 . S
C2375 N2383 1.427 . S
C2376 H2367 0.930 . S
C2376 C2374 1.378 . S
C2376 C2377 1.367 . S
C2377 C2376 1.367 . S
C2377 C2379 1.433 . S
C2378 C2374 1.350 . S
C2378 C2375 1.463 . S
C2378 N2382 1.427 . S
C2379 H2369 0.929 . S
C2379 C2377 1.433 . S
C2379 N2382 1.384 . S
C2380 H2371 0.929 . S
C2380 C2372 1.378 . S
C2380 C2375 1.350 . S
C2381 H2368 0.929 . S
C2381 C2373 1.433 . S
C2381 N2383 1.384 . S
N2382 C2378 1.427 . S
N2382 C2379 1.384 . S
N2383 C2375 1.427 . S
N2383 C2381 1.384 . S
C663 C105 1.256 . S
C667 C352 1.242 1_556 S
C681 C65 1.344 . S
C685 C365 1.324 . S
C699 C73 1.364 . S
C703 C384 1.350 . S
C721 C415 1.908 . S
C717 C92 1.940 . S
C735 C17 1.795 . S
C739 C435 1.763 . S
C757 C452 0.874 . S
C753 C37 0.887 . S
C775 C465 1.506 . S
C771 C49 1.466 . S
C789 C8 1.027 . S
C793 C492 1.011 . S
C811 C345 1.225 . S
C807 C231 1.206 . S
C825 C241 1.477 . S
C829 C375 1.454 . S
C847 C377 1.677 . S
C843 C273 1.671 . S
C865 C412 0.858 . S
C861 C171 0.876 . S
C879 C227 1.135 . S
C883 C432 1.118 . S
C901 C445 1.773 . S
C897 C245 1.704 . S
C919 C475 1.288 . S
C915 C269 1.323 . S
C937 C485 1.193 . S
C933 C175 1.207 . S
C955 C355 1.605 . S
C951 C162 1.623 . S
C969 C289 1.787 . S
C973 C505 1.786 . S
C991 C535 1.628 . S
C987 C330 1.621 . S
C1009 C552 1.199 . S
C1005 C317 1.204 . S
C1023 C120 1.892 . S
C1027 C495 1.889 . S
C1041 C134 1.268 . S
C1045 C382 1.233 . S
C1059 C331 1.818 . S
C1063 C565 1.814 . S
C1081 C592 0.961 . S
C1077 C303 0.993 . S
C1099 C342 1.256 . S
C1095 C59 1.302 . S
C1117 C577 1.360 . S
C1113 C107 1.364 . S
C1131 C91 1.359 . S
C1135 C395 1.376 . S
C1149 C78 1.981 . S
C1153 C564 1.940 . S
C1171 C424 1.798 . S
C1167 C7 1.784 . S
C1185 C51 0.908 . S
C1189 C522 0.914 . S
C1207 C457 1.522 . S
C1203 C31 1.531 . S
C1225 C602 1.017 . S
C1221 C22 1.049 . S
C1243 C337 1.248 . S
C1239 C143 1.269 . S
C1261 C584 1.487 . S
C1257 C315 1.448 . S
C1275 C115 1.762 . S
C1279 C385 1.714 . S
C1293 C287 0.884 . S
C1297 C562 0.910 . S
C1311 C147 1.122 . S
C1315 C422 1.165 . S
C1333 C517 1.792 . S
C1329 C311 1.794 . S
C1347 C119 1.302 . S
C1351 C464 1.322 . S
C1365 C283 1.248 . S
C1369 C597 1.220 . S
C1383 C190 1.652 . S
C1387 C344 1.634 . S
C1401 C177 1.809 . S
C1405 C497 1.800 . S
C1419 C260 1.645 . S
C1423 C444 1.650 . S
C1437 C247 1.244 . S
C1441 C542 1.234 . S
C1459 C604 1.910 . S
C1455 C274 1.920 . S
C1473 C218 1.277 . S
C1477 C392 1.239 1_565 S
C1495 C397 1.841 . S
C1491 C261 1.836 . S
C1513 C362 1.004 . S
C1509 C205 1.017 . S
C1527 C77 1.256 . S
C1531 C632 1.250 . S
C1549 C585 1.326 . S
C1545 C93 1.346 . S
C1563 C101 1.367 . S
C1567 C644 1.347 1_455 S
C1581 C64 1.944 . S
C1585 C575 1.901 . S
C1599 C45 1.795 . S
C1603 C515 1.757 . S
C1621 C532 0.873 . S
C1617 C9 0.890 . S
C1639 C545 1.510 1_655 S
C1635 C21 1.453 . S
C1657 C612 1.016 . S
C1653 C36 1.031 . S
C1675 C625 1.236 . S
C1671 C259 1.198 . S
C1689 C185 1.480 . S
C1693 C595 1.455 . S
C1711 C637 1.677 . S
C1707 C203 1.668 . S
C1729 C572 0.874 . S
C1725 C213 0.868 . S
C1747 C512 1.120 . S
C1743 C255 1.130 . S
C1761 C189 1.716 . S
C1765 C525 1.767 . S
C1783 C555 1.287 . S
C1779 C199 1.322 . S
C1797 C217 1.207 . S
C1801 C605 1.192 . S
C1819 C635 1.603 . S
C1815 C316 1.627 . S
C1833 C135 1.789 . S
C1837 C425 1.778 . S
C1855 C455 1.623 . S
C1851 C148 1.634 . S
C1873 C472 1.196 . S
C1869 C163 1.206 . S
C1891 C615 1.894 . S
C1887 C302 1.889 . S
C1905 C288 1.271 . S
C1909 C642 1.228 . S
C1927 C405 1.808 . S
C1923 C149 1.814 . S
C1945 C372 0.971 . S
C1941 C121 0.990 . S
C1959 C87 1.302 . S
C1963 C622 1.255 . S
C1981 C357 1.353 . S
C1977 C79 1.365 . S
C1995 C63 1.356 . S
C1999 C655 1.376 . S
C2013 C106 1.981 . S
C2017 C404 1.938 . S
C2031 C35 1.784 . S
C2035 C504 1.766 1_556 S
C2053 C442 0.910 . S
C2049 C23 0.910 . S
C2067 C3 1.530 . S
C2071 C537 1.524 . S
C2085 C50 1.043 . S
C2089 C482 1.031 . S
C2107 C617 1.248 . S
C2103 C325 1.271 . S
C2121 C161 1.448 . S
C2125 C364 1.489 . S
C2143 C645 1.708 . S
C2139 C297 1.758 . S
C2157 C133 0.908 . S
C2161 C402 0.903 . S
C2175 C329 1.118 . S
C2179 C502 1.163 . S
C2197 C437 1.789 . S
C2193 C157 1.794 . S
C2211 C301 1.299 . S
C2215 C544 1.329 . S
C2233 C477 1.220 . S
C2229 C129 1.246 . S
C2251 C624 1.634 . S
C2247 C246 1.652 . S
C2269 C417 1.804 1_565 S
C2265 C219 1.804 . S
C2283 C232 1.640 . S
C2287 C524 1.646 . S
C2305 C462 1.227 . S
C2301 C191 1.244 . S
C2319 C204 1.922 . S
C2323 C484 1.909 . S
C2337 C176 1.283 . S
C2341 C652 1.247 . S
C2359 C557 1.835 . S
C2355 C233 1.837 1_565 S
C2377 C582 0.984 . S
C2373 C275 1.022 . S
