# Generated by pormake.
# Topology myd, (4,6)-cn, num edge types: 1
# Building blocks:
#     Node 0, Type 0, BuildingBlock: NAWXER_clean_sbu_0, # of connection points: 4
#     Node 1, Type 0, BuildingBlock: NAWXER_clean_sbu_0, # of connection points: 4
#     Node 2, Type 0, BuildingBlock: NAWXER_clean_sbu_0, # of connection points: 4
#     Node 3, Type 0, BuildingBlock: NAWXER_clean_sbu_0, # of connection points: 4
#     Node 4, Type 0, BuildingBlock: NAWXER_clean_sbu_0, # of connection points: 4
#     Node 5, Type 0, BuildingBlock: NAWXER_clean_sbu_0, # of connection points: 4
#     Node 6, Type 0, BuildingBlock: NAWXER_clean_sbu_0, # of connection points: 4
#     Node 7, Type 0, BuildingBlock: NAWXER_clean_sbu_0, # of connection points: 4
#     Node 8, Type 0, BuildingBlock: NAWXER_clean_sbu_0, # of connection points: 4
#     Node 9, Type 0, BuildingBlock: NAWXER_clean_sbu_0, # of connection points: 4
#     Node 10, Type 0, BuildingBlock: NAWXER_clean_sbu_0, # of connection points: 4
#     Node 11, Type 0, BuildingBlock: NAWXER_clean_sbu_0, # of connection points: 4
#     Node 12, Type 1, BuildingBlock: VOLQOD_clean_sbu_1, # of connection points: 6
#     Node 13, Type 1, BuildingBlock: VOLQOD_clean_sbu_1, # of connection points: 6
#     Node 14, Type 1, BuildingBlock: VOLQOD_clean_sbu_1, # of connection points: 6
#     Node 15, Type 1, BuildingBlock: VOLQOD_clean_sbu_1, # of connection points: 6
#     Node 16, Type 1, BuildingBlock: VOLQOD_clean_sbu_1, # of connection points: 6
#     Node 17, Type 1, BuildingBlock: VOLQOD_clean_sbu_1, # of connection points: 6
#     Node 18, Type 1, BuildingBlock: VOLQOD_clean_sbu_1, # of connection points: 6
#     Node 19, Type 1, BuildingBlock: VOLQOD_clean_sbu_1, # of connection points: 6
#     Edge 20, Type (0, 1), BuildingBlock: XUDNAN_clean_linker_2, # of connection points: 2
#     Edge 21, Type (0, 1), BuildingBlock: XUDNAN_clean_linker_2, # of connection points: 2
#     Edge 22, Type (0, 1), BuildingBlock: XUDNAN_clean_linker_2, # of connection points: 2
#     Edge 23, Type (0, 1), BuildingBlock: XUDNAN_clean_linker_2, # of connection points: 2
#     Edge 24, Type (0, 1), BuildingBlock: XUDNAN_clean_linker_2, # of connection points: 2
#     Edge 25, Type (0, 1), BuildingBlock: XUDNAN_clean_linker_2, # of connection points: 2
#     Edge 26, Type (0, 1), BuildingBlock: XUDNAN_clean_linker_2, # of connection points: 2
#     Edge 27, Type (0, 1), BuildingBlock: XUDNAN_clean_linker_2, # of connection points: 2
#     Edge 28, Type (0, 1), BuildingBlock: XUDNAN_clean_linker_2, # of connection points: 2
#     Edge 29, Type (0, 1), BuildingBlock: XUDNAN_clean_linker_2, # of connection points: 2
#     Edge 30, Type (0, 1), BuildingBlock: XUDNAN_clean_linker_2, # of connection points: 2
#     Edge 31, Type (0, 1), BuildingBlock: XUDNAN_clean_linker_2, # of connection points: 2
#     Edge 32, Type (0, 1), BuildingBlock: XUDNAN_clean_linker_2, # of connection points: 2
#     Edge 33, Type (0, 1), BuildingBlock: XUDNAN_clean_linker_2, # of connection points: 2
#     Edge 34, Type (0, 1), BuildingBlock: XUDNAN_clean_linker_2, # of connection points: 2
#     Edge 35, Type (0, 1), BuildingBlock: XUDNAN_clean_linker_2, # of connection points: 2
#     Edge 36, Type (0, 1), BuildingBlock: XUDNAN_clean_linker_2, # of connection points: 2
#     Edge 37, Type (0, 1), BuildingBlock: XUDNAN_clean_linker_2, # of connection points: 2
#     Edge 38, Type (0, 1), BuildingBlock: XUDNAN_clean_linker_2, # of connection points: 2
#     Edge 39, Type (0, 1), BuildingBlock: XUDNAN_clean_linker_2, # of connection points: 2
#     Edge 40, Type (0, 1), BuildingBlock: XUDNAN_clean_linker_2, # of connection points: 2
#     Edge 41, Type (0, 1), BuildingBlock: XUDNAN_clean_linker_2, # of connection points: 2
#     Edge 42, Type (0, 1), BuildingBlock: XUDNAN_clean_linker_2, # of connection points: 2
#     Edge 43, Type (0, 1), BuildingBlock: XUDNAN_clean_linker_2, # of connection points: 2
#     Edge 44, Type (0, 1), BuildingBlock: XUDNAN_clean_linker_2, # of connection points: 2
#     Edge 45, Type (0, 1), BuildingBlock: XUDNAN_clean_linker_2, # of connection points: 2
#     Edge 46, Type (0, 1), BuildingBlock: XUDNAN_clean_linker_2, # of connection points: 2
#     Edge 47, Type (0, 1), BuildingBlock: XUDNAN_clean_linker_2, # of connection points: 2
#     Edge 48, Type (0, 1), BuildingBlock: XUDNAN_clean_linker_2, # of connection points: 2
#     Edge 49, Type (0, 1), BuildingBlock: XUDNAN_clean_linker_2, # of connection points: 2
#     Edge 50, Type (0, 1), BuildingBlock: XUDNAN_clean_linker_2, # of connection points: 2
#     Edge 51, Type (0, 1), BuildingBlock: XUDNAN_clean_linker_2, # of connection points: 2
#     Edge 52, Type (0, 1), BuildingBlock: XUDNAN_clean_linker_2, # of connection points: 2
#     Edge 53, Type (0, 1), BuildingBlock: XUDNAN_clean_linker_2, # of connection points: 2
#     Edge 54, Type (0, 1), BuildingBlock: XUDNAN_clean_linker_2, # of connection points: 2
#     Edge 55, Type (0, 1), BuildingBlock: XUDNAN_clean_linker_2, # of connection points: 2
#     Edge 56, Type (0, 1), BuildingBlock: XUDNAN_clean_linker_2, # of connection points: 2
#     Edge 57, Type (0, 1), BuildingBlock: XUDNAN_clean_linker_2, # of connection points: 2
#     Edge 58, Type (0, 1), BuildingBlock: XUDNAN_clean_linker_2, # of connection points: 2
#     Edge 59, Type (0, 1), BuildingBlock: XUDNAN_clean_linker_2, # of connection points: 2
#     Edge 60, Type (0, 1), BuildingBlock: XUDNAN_clean_linker_2, # of connection points: 2
#     Edge 61, Type (0, 1), BuildingBlock: XUDNAN_clean_linker_2, # of connection points: 2
#     Edge 62, Type (0, 1), BuildingBlock: XUDNAN_clean_linker_2, # of connection points: 2
#     Edge 63, Type (0, 1), BuildingBlock: XUDNAN_clean_linker_2, # of connection points: 2
#     Edge 64, Type (0, 1), BuildingBlock: XUDNAN_clean_linker_2, # of connection points: 2
#     Edge 65, Type (0, 1), BuildingBlock: XUDNAN_clean_linker_2, # of connection points: 2
#     Edge 66, Type (0, 1), BuildingBlock: XUDNAN_clean_linker_2, # of connection points: 2
#     Edge 67, Type (0, 1), BuildingBlock: XUDNAN_clean_linker_2, # of connection points: 2
# Relax obj value: 0.200
# Max RMSD: 0.165
# Mean RMSD: 0.125
data_MOF--net-myd--node1-NAWXER_clean_sbu_0--node2-VOLQOD_clean_sbu_1--edge1-XUDNAN_clean_linker_2
_symmetry_space_group_name_H-M    P1
_symmetry_Int_Tables_number       1
_symmetry_cell_setting            triclinic
loop_
_symmetry_equiv_pos_as_xyz
'x, y, z'
_cell_length_a     46.645882
_cell_length_b     46.757975
_cell_length_c     46.718938
_cell_angle_alpha  90.979692
_cell_angle_beta   90.122857
_cell_angle_gamma 91.087023
loop_
_atom_site_label
_atom_site_type_symbol
_atom_site_fract_x
_atom_site_fract_y
_atom_site_fract_z
_atom_type_partial_charge
C0 C 0.01487 0.21451 0.27993 0.0
C1 C 0.02297 0.28921 0.35441 0.0
O2 O 0.0385 0.22528 0.28926 0.0
Zn3 Zn 0.02147 0.24979 0.31867 0.0
O4 O 0.99115 0.22194 0.29137 0.0
Zn5 Zn 0.97515 0.24917 0.3244 0.0
O6 O 0.95165 0.27493 0.30209 0.0
O7 O 0.99801 0.27823 0.29235 0.0
O8 O 0.99749 0.27998 0.34928 0.0
O9 O 0.04416 0.27688 0.34273 0.0
O10 O 0.00572 0.21815 0.34671 0.0
O11 O 0.95893 0.222 0.35184 0.0
C12 C 0.97224 0.28613 0.28796 0.0
C13 C 0.98207 0.20927 0.35754 0.0
C14 C 0.01532 0.78459 0.22597 0.0
C15 C 0.02295 0.7121 0.14973 0.0
O16 O 0.03879 0.77474 0.21638 0.0
Zn17 Zn 0.02146 0.75021 0.18671 0.0
O18 O 0.99144 0.77675 0.21441 0.0
Zn19 Zn 0.97524 0.74969 0.1807 0.0
O20 O 0.95145 0.72273 0.20214 0.0
O21 O 0.9977 0.72065 0.21239 0.0
O22 O 0.99753 0.72054 0.15482 0.0
O23 O 0.04409 0.72434 0.16251 0.0
O24 O 0.00601 0.78168 0.15878 0.0
O25 O 0.9591 0.77677 0.15378 0.0
C26 C 0.97182 0.71195 0.21638 0.0
C27 C 0.9824 0.79002 0.14802 0.0
C28 C 0.36109 0.03755 0.21685 0.0
C29 C 0.28747 0.03542 0.29061 0.0
O30 O 0.35378 0.01187 0.22321 0.0
Zn31 Zn 0.32599 0.99155 0.2537 0.0
O32 O 0.35071 0.05825 0.23112 0.0
Zn33 Zn 0.32521 0.0367 0.25533 0.0
O34 O 0.3521 0.0181 0.28731 0.0
O35 O 0.35162 0.9715 0.27882 0.0
O36 O 0.29851 0.05735 0.27889 0.0
O37 O 0.29583 0.01033 0.28333 0.0
O38 O 0.30002 0.96969 0.22883 0.0
O39 O 0.29608 0.01645 0.22498 0.0
C40 C 0.36022 0.99297 0.2937 0.0
C41 C 0.28842 0.991 0.21718 0.0
C42 C 0.73795 0.47422 0.21589 0.0
C43 C 0.66433 0.48439 0.28927 0.0
O44 O 0.72439 0.45431 0.22863 0.0
Zn45 Zn 0.70009 0.47859 0.25124 0.0
O46 O 0.73226 0.50048 0.22155 0.0
Zn47 Zn 0.70253 0.52386 0.24827 0.0
O48 O 0.72766 0.54661 0.27242 0.0
O49 O 0.73037 0.50005 0.27974 0.0
O50 O 0.67364 0.50842 0.27999 0.0
O51 O 0.67264 0.46132 0.27749 0.0
O52 O 0.67494 0.49587 0.21787 0.0
O53 O 0.67863 0.54292 0.22061 0.0
C54 C 0.73831 0.52588 0.28586 0.0
C55 C 0.66872 0.52045 0.20821 0.0
C56 C 0.23722 0.35527 0.99463 0.0
C57 C 0.30534 0.28146 0.96954 0.0
O58 O 0.24793 0.35014 0.97012 0.0
Zn59 Zn 0.27321 0.32032 0.98171 0.0
O60 O 0.2467 0.34231 0.01661 0.0
Zn61 Zn 0.27781 0.3102 0.02566 0.0
O62 O 0.3081 0.32934 0.04777 0.0
O63 O 0.30741 0.34302 0.00292 0.0
O64 O 0.30088 0.28367 0.99651 0.0
O65 O 0.29372 0.29879 0.95258 0.0
O66 O 0.24283 0.28904 0.99828 0.0
O67 O 0.25393 0.28156 0.04364 0.0
C68 C 0.31874 0.34438 0.02791 0.0
C69 C 0.23798 0.27632 0.02198 0.0
C70 C 0.24308 0.73096 0.47105 0.0
C71 C 0.31687 0.65991 0.487 0.0
O72 O 0.26024 0.7201 0.45294 0.0
Zn73 Zn 0.27859 0.69416 0.47849 0.0
O74 O 0.24359 0.72258 0.49709 0.0
Zn75 Zn 0.26804 0.69273 0.52219 0.0
O76 O 0.28482 0.71832 0.55011 0.0
O77 O 0.30158 0.72412 0.50626 0.0
O78 O 0.30397 0.66688 0.51023 0.0
O79 O 0.30825 0.66972 0.46339 0.0
O80 O 0.24366 0.66563 0.48842 0.0
O81 O 0.23959 0.66592 0.53546 0.0
C82 C 0.30155 0.73116 0.53294 0.0
C83 C 0.23112 0.65682 0.51109 0.0
C84 C 0.72658 0.84758 0.48934 0.0
C85 C 0.80329 0.77932 0.47937 0.0
O86 O 0.73833 0.83878 0.46644 0.0
Zn87 Zn 0.76627 0.81431 0.48391 0.0
O88 O 0.73677 0.84035 0.51357 0.0
Zn89 Zn 0.77066 0.81484 0.52905 0.0
O90 O 0.79805 0.84144 0.54722 0.0
O91 O 0.79946 0.84217 0.50009 0.0
O92 O 0.79819 0.78593 0.50564 0.0
O93 O 0.78916 0.79073 0.45939 0.0
O94 O 0.74051 0.78274 0.50625 0.0
O95 O 0.74907 0.78901 0.55259 0.0
C96 C 0.80967 0.85035 0.5244 0.0
C97 C 0.73594 0.77576 0.53234 0.0
C98 C 0.50872 0.78642 0.77687 0.0
C99 C 0.49461 0.70708 0.84288 0.0
O100 O 0.48565 0.77217 0.78109 0.0
Zn101 Zn 0.50071 0.74716 0.80983 0.0
O102 O 0.53174 0.77993 0.79022 0.0
Zn103 Zn 0.54519 0.74886 0.82121 0.0
O104 O 0.5721 0.72515 0.79991 0.0
O105 O 0.52744 0.72083 0.78447 0.0
O106 O 0.52051 0.7167 0.84249 0.0
O107 O 0.47574 0.71885 0.82761 0.0
O108 O 0.51229 0.77702 0.84336 0.0
O109 O 0.55859 0.77354 0.85253 0.0
C110 C 0.55379 0.71392 0.78268 0.0
C111 C 0.53468 0.78528 0.85747 0.0
C112 C 0.49387 0.19709 0.71331 0.0
C113 C 0.50265 0.27905 0.64995 0.0
O114 O 0.47451 0.20648 0.69691 0.0
Zn115 Zn 0.49751 0.23688 0.67992 0.0
O116 O 0.51903 0.20861 0.71311 0.0
Zn117 Zn 0.54184 0.24191 0.6914 0.0
O118 O 0.55375 0.2667 0.72272 0.0
O119 O 0.50673 0.26465 0.71621 0.0
O120 O 0.52603 0.27287 0.66268 0.0
O121 O 0.48051 0.2631 0.65299 0.0
O122 O 0.52631 0.21303 0.6541 0.0
O123 O 0.57046 0.2211 0.66991 0.0
C124 C 0.52875 0.27438 0.73002 0.0
C125 C 0.55327 0.20874 0.65239 0.0
C126 C 0.79487 0.48502 0.71298 0.0
C127 C 0.86378 0.48556 0.79243 0.0
O128 O 0.80375 0.51008 0.72066 0.0
Zn129 Zn 0.83081 0.52976 0.75286 0.0
O130 O 0.80289 0.46323 0.72662 0.0
Zn131 Zn 0.82856 0.48394 0.75313 0.0
O132 O 0.79889 0.50457 0.78068 0.0
O133 O 0.80366 0.55129 0.77603 0.0
O134 O 0.85186 0.46368 0.78063 0.0
O135 O 0.85774 0.51059 0.78379 0.0
O136 O 0.85865 0.54949 0.72935 0.0
O137 O 0.85904 0.50238 0.72374 0.0
C138 C 0.79132 0.52993 0.78756 0.0
C139 C 0.86832 0.52732 0.71682 0.0
C140 C 0.25866 0.03037 0.72517 0.0
C141 C 0.17881 0.02352 0.79248 0.0
O142 O 0.24819 0.00497 0.72721 0.0
Zn143 Zn 0.21528 0.98301 0.75025 0.0
O144 O 0.24818 0.05057 0.74013 0.0
Zn145 Zn 0.21807 0.02811 0.75855 0.0
O146 O 0.24153 0.00232 0.78694 0.0
O147 O 0.23676 0.95689 0.77379 0.0
O148 O 0.19276 0.04607 0.78578 0.0
O149 O 0.18474 0.99948 0.78048 0.0
O150 O 0.19172 0.96802 0.71958 0.0
O151 O 0.19006 0.01515 0.72404 0.0
C152 C 0.24683 0.97594 0.79098 0.0
C153 C 0.18218 0.99179 0.71128 0.0
C154 C 0.72267 0.1556 0.012 0.0
C155 C 0.80293 0.22229 0.02392 0.0
O156 O 0.7339 0.1649 0.03518 0.0
Zn157 Zn 0.76348 0.18881 0.01841 0.0
O158 O 0.73384 0.16256 0.98804 0.0
Zn159 Zn 0.76905 0.18793 0.97338 0.0
O160 O 0.79546 0.1607 0.95604 0.0
O161 O 0.79522 0.15982 0.00318 0.0
O162 O 0.79792 0.21577 0.99756 0.0
O163 O 0.78743 0.21164 0.04357 0.0
O164 O 0.74016 0.22109 0.99547 0.0
O165 O 0.74938 0.21449 0.94946 0.0
C166 C 0.80568 0.15134 0.97924 0.0
C167 C 0.73663 0.22819 0.96928 0.0
O168 O 0.10126 0.01664 0.1005 0.0
Zn169 Zn 0.06194 0.02923 0.08925 0.0
O170 O 0.06215 0.04738 0.05192 0.0
Zn171 Zn 0.04523 0.08514 0.0545 0.0
Zn172 Zn 0.10213 0.05196 0.03986 0.0
Zn173 Zn 0.03959 0.02407 0.02422 0.0
O174 O 0.00818 0.08717 0.03249 0.0
O175 O 0.00344 0.04428 0.01176 0.0
O176 O 0.04776 0.05617 0.12044 0.0
O177 O 0.03527 0.09388 0.09509 0.0
O178 O 0.07294 0.11649 0.04232 0.0
O179 O 0.11414 0.09351 0.03994 0.0
O180 O 0.10571 0.03779 0.99904 0.0
O181 O 0.03815 0.99301 0.08758 0.0
O182 O 0.06328 0.01752 0.98855 0.0
O183 O 0.02665 0.98631 0.04165 0.0
C184 C 0.12605 0.01885 0.0894 0.0
C185 C 0.99409 0.06929 0.01686 0.0
C186 C 0.10011 0.11658 0.03941 0.0
C187 C 0.03761 0.08119 0.1188 0.0
C188 C 0.08878 0.02478 0.98148 0.0
C189 C 0.02673 0.97789 0.06749 0.0
O190 O 0.13006 0.03173 0.06588 0.0
O191 O 0.91824 0.47188 0.09358 0.0
Zn192 Zn 0.96085 0.46695 0.09043 0.0
O193 O 0.97129 0.44485 0.05621 0.0
Zn194 Zn 0.99293 0.41123 0.06768 0.0
Zn195 Zn 0.93619 0.43299 0.03628 0.0
Zn196 Zn 0.99473 0.46816 0.03056 0.0
O197 O 0.03327 0.41212 0.05162 0.0
O198 O 0.0326 0.44961 0.02304 0.0
O199 O 0.96998 0.44534 0.12642 0.0
O200 O 0.99364 0.40759 0.11051 0.0
O201 O 0.97276 0.37474 0.05459 0.0
O202 O 0.93407 0.39067 0.03266 0.0
O203 O 0.93427 0.44843 0.99648 0.0
O204 O 0.9804 0.50574 0.09037 0.0
O205 O 0.97491 0.47348 0.99219 0.0
O206 O 0.004 0.50668 0.04894 0.0
C207 C 0.89712 0.4599 0.08057 0.0
C208 C 0.04541 0.42829 0.03337 0.0
C209 C 0.9494 0.37023 0.041 0.0
C210 C 0.98267 0.42196 0.13098 0.0
C211 C 0.95118 0.46399 0.98178 0.0
C212 C 0.99683 0.51838 0.07262 0.0
O213 O 0.90091 0.44392 0.05861 0.0
O214 O 0.1222 0.91635 0.45875 0.0
Zn215 Zn 0.10657 0.95579 0.46313 0.0
O216 O 0.06654 0.95603 0.45171 0.0
Zn217 Zn 0.06408 0.9732 0.41405 0.0
Zn218 Zn 0.05244 0.91637 0.45082 0.0
Zn219 Zn 0.04405 0.97835 0.47911 0.0
O220 O 0.03842 0.00725 0.41523 0.0
O221 O 0.02869 0.01445 0.46133 0.0
O222 O 0.13145 0.98087 0.43825 0.0
O223 O 0.10211 0.9897 0.40208 0.0
O224 O 0.05036 0.94421 0.38405 0.0
O225 O 0.03922 0.90684 0.41111 0.0
O226 O 0.01742 0.91119 0.47577 0.0
O227 O 0.11018 0.96842 0.50434 0.0
O228 O 0.01 0.95512 0.49287 0.0
O229 O 0.06807 0.98807 0.51398 0.0
C230 C 0.11099 0.89135 0.45882 0.0
C231 C 0.02726 0.02208 0.43529 0.0
C232 C 0.04037 0.91888 0.38693 0.0
C233 C 0.12654 0.99202 0.4141 0.0
C234 C 0.00257 0.92884 0.49031 0.0
C235 C 0.09343 0.98157 0.52136 0.0
O236 O 0.08384 0.88744 0.45881 0.0
O237 O 0.98787 0.59303 0.39572 0.0
Zn238 Zn 0.98717 0.58926 0.43848 0.0
O239 O 0.96662 0.5542 0.44983 0.0
Zn240 Zn 0.93165 0.56359 0.47056 0.0
Zn241 Zn 0.95631 0.53193 0.41545 0.0
Zn242 Zn 0.99105 0.53195 0.47476 0.0
O243 O 0.93151 0.54851 0.51064 0.0
O244 O 0.97435 0.52883 0.51463 0.0
O245 O 0.96588 0.62421 0.45157 0.0
O246 O 0.92772 0.606 0.47357 0.0
O247 O 0.89639 0.55003 0.44918 0.0
O248 O 0.91376 0.52501 0.41263 0.0
O249 O 0.97629 0.49413 0.41519 0.0
O250 O 0.02763 0.59099 0.45421 0.0
O251 O 0.9988 0.49289 0.45722 0.0
O252 O 0.02908 0.55162 0.48011 0.0
C253 C 0.97736 0.57808 0.37509 0.0
C254 C 0.9504 0.53602 0.52533 0.0
C255 C 0.89262 0.53478 0.42663 0.0
C256 C 0.94236 0.62737 0.46492 0.0
C257 C 0.99199 0.48136 0.43316 0.0
C258 C 0.04086 0.57439 0.47087 0.0
O259 O 0.96503 0.55402 0.37946 0.0
O260 O 0.4447 0.99937 0.60701 0.0
Zn261 Zn 0.48127 0.98117 0.59312 0.0
O262 O 0.4747 0.96234 0.55607 0.0
Zn263 Zn 0.48501 0.9222 0.55825 0.0
Zn264 Zn 0.43456 0.96499 0.54506 0.0
Zn265 Zn 0.49804 0.98069 0.52716 0.0
O266 O 0.52168 0.91431 0.53658 0.0
O267 O 0.53132 0.95616 0.5165 0.0
O268 O 0.49341 0.95305 0.62358 0.0
O269 O 0.4919 0.91187 0.59917 0.0
O270 O 0.45226 0.8959 0.54603 0.0
O271 O 0.41621 0.9263 0.54917 0.0
O272 O 0.43009 0.97619 0.50316 0.0
O273 O 0.51021 0.01332 0.58922 0.0
O274 O 0.47535 0.98513 0.49088 0.0
O275 O 0.51437 0.01848 0.54211 0.0
C276 C 0.41965 0.00186 0.59649 0.0
C277 C 0.5377 0.93035 0.52136 0.0
C278 C 0.42554 0.90095 0.54727 0.0
C279 C 0.49527 0.92586 0.62256 0.0
C280 C 0.44886 0.98269 0.4844 0.0
C281 C 0.51959 0.02707 0.56771 0.0
O282 O 0.41287 0.99074 0.57224 0.0
O283 O 0.61581 0.5089 0.59512 0.0
Zn284 Zn 0.57506 0.5206 0.591 0.0
O285 O 0.56887 0.54041 0.55512 0.0
Zn286 Zn 0.55148 0.57716 0.56403 0.0
Zn287 Zn 0.60604 0.54651 0.53619 0.0
Zn288 Zn 0.54275 0.51778 0.53021 0.0
O289 O 0.51272 0.58102 0.54535 0.0
O290 O 0.50723 0.54032 0.52048 0.0
O291 O 0.56798 0.54608 0.62552 0.0
O292 O 0.54774 0.58375 0.60631 0.0
O293 O 0.57774 0.60951 0.55261 0.0
O294 O 0.61655 0.58873 0.53512 0.0
O295 O 0.60456 0.53053 0.49577 0.0
O296 O 0.55107 0.48462 0.59224 0.0
O297 O 0.56239 0.50755 0.49283 0.0
O298 O 0.53003 0.48103 0.54953 0.0
C299 C 0.63862 0.51315 0.58086 0.0
C300 C 0.49816 0.56479 0.52838 0.0
C301 C 0.603 0.6111 0.54243 0.0
C302 C 0.55664 0.57053 0.62807 0.0
C303 C 0.58639 0.51494 0.48191 0.0
C304 C 0.53499 0.47114 0.5743 0.0
O305 O 0.63826 0.52722 0.55771 0.0
O306 O 0.62039 0.41595 0.96199 0.0
Zn307 Zn 0.6058 0.45678 0.96051 0.0
O308 O 0.56591 0.45794 0.94724 0.0
Zn309 Zn 0.56415 0.47199 0.9083 0.0
Zn310 Zn 0.54988 0.41941 0.94777 0.0
Zn311 Zn 0.5429 0.48272 0.97183 0.0
O312 O 0.53622 0.50429 0.90504 0.0
O313 O 0.52857 0.5171 0.95043 0.0
O314 O 0.63179 0.47853 0.93316 0.0
O315 O 0.60252 0.48857 0.89713 0.0
O316 O 0.55254 0.44036 0.88023 0.0
O317 O 0.53283 0.40874 0.90967 0.0
O318 O 0.51874 0.41527 0.97723 0.0
O319 O 0.60856 0.4751 0.99999 0.0
O320 O 0.50838 0.46063 0.98738 0.0
O321 O 0.56652 0.49633 0.00581 0.0
C322 C 0.6075 0.39189 0.95823 0.0
C323 C 0.52572 0.52125 0.9237 0.0
C324 C 0.53806 0.41747 0.88455 0.0
C325 C 0.62717 0.48978 0.90893 0.0
C326 C 0.50314 0.43387 0.98943 0.0
C327 C 0.59166 0.49074 0.01461 0.0
O328 O 0.58068 0.39034 0.95316 0.0
O329 O 0.48799 0.08237 0.89538 0.0
Zn330 Zn 0.48114 0.08078 0.93778 0.0
O331 O 0.46238 0.04489 0.9485 0.0
Zn332 Zn 0.42395 0.05236 0.96244 0.0
Zn333 Zn 0.45944 0.02087 0.9146 0.0
Zn334 Zn 0.48423 0.02523 0.97802 0.0
O335 O 0.42342 0.04888 0.00505 0.0
O336 O 0.4629 0.02544 0.01624 0.0
O337 O 0.45512 0.11432 0.94477 0.0
O338 O 0.41346 0.0929 0.95489 0.0
O339 O 0.39399 0.02557 0.94423 0.0
O340 O 0.42027 0.00383 0.91115 0.0
O341 O 0.4844 0.98714 0.91804 0.0
O342 O 0.51894 0.08592 0.95848 0.0
O343 O 0.49491 0.98495 0.96447 0.0
O344 O 0.52114 0.04724 0.98552 0.0
C345 C 0.47974 0.06669 0.8743 0.0
C346 C 0.43951 0.03731 0.02339 0.0
C347 C 0.39656 0.00721 0.92395 0.0
C348 C 0.42825 0.11533 0.94949 0.0
C349 C 0.49499 0.9741 0.93918 0.0
C350 C 0.53194 0.07069 0.97661 0.0
O351 O 0.46737 0.04255 0.87819 0.0
H352 H 0.01614 0.16453 0.34687 0.0
H353 H 0.94815 0.19261 0.40321 0.0
H354 H 0.9513 0.14698 0.42972 0.0
H355 H 0.99283 0.09068 0.34215 0.0
H356 H 0.02895 0.0777 0.34056 0.0
H357 H 0.02099 0.11242 0.32681 0.0
H358 H 0.05997 0.1355 0.35992 0.0
H359 H 0.06804 0.1009 0.3738 0.0
H360 H 0.05842 0.12962 0.39793 0.0
H361 H 0.96541 0.0987 0.45188 0.0
H362 H 0.98536 0.05161 0.46437 0.0
H363 H 0.04101 0.05558 0.39027 0.0
C364 C 0.00191 0.16118 0.36486 0.0
C365 C 0.98218 0.18218 0.37335 0.0
C366 C 0.96349 0.17675 0.39652 0.0
C367 C 0.96521 0.15097 0.41166 0.0
C368 C 0.98527 0.1308 0.40283 0.0
C369 C 0.00293 0.13559 0.37962 0.0
C370 C 0.02226 0.11064 0.37366 0.0
C371 C 0.01586 0.09706 0.34405 0.0
C372 C 0.05404 0.11972 0.37651 0.0
C373 C 0.01318 0.09102 0.39743 0.0
C374 C 0.99204 0.10294 0.4143 0.0
C375 C 0.98164 0.08907 0.43852 0.0
C376 C 0.99312 0.0624 0.4455 0.0
C377 C 0.01441 0.04977 0.42805 0.0
C378 C 0.02432 0.06436 0.4037 0.0
H379 H 0.9871 0.3328 0.34952 0.0
H380 H 0.06548 0.3089 0.39219 0.0
H381 H 0.06665 0.35613 0.41791 0.0
H382 H 0.00693 0.40634 0.33903 0.0
H383 H 0.97082 0.41844 0.34421 0.0
H384 H 0.9769 0.38308 0.32989 0.0
H385 H 0.94589 0.36136 0.37035 0.0
H386 H 0.93981 0.39659 0.38493 0.0
H387 H 0.95486 0.36955 0.40719 0.0
H388 H 0.05628 0.40587 0.4409 0.0
H389 H 0.03868 0.45379 0.45512 0.0
H390 H 0.96872 0.44366 0.39426 0.0
C391 C 0.00453 0.33736 0.36438 0.0
C392 C 0.02597 0.31714 0.36934 0.0
C393 C 0.0488 0.32416 0.38831 0.0
C394 C 0.04952 0.35083 0.40298 0.0
C395 C 0.02756 0.37012 0.39785 0.0
C396 C 0.00578 0.36367 0.37861 0.0
C397 C 0.98493 0.38777 0.37602 0.0
C398 C 0.98492 0.39961 0.34548 0.0
C399 C 0.95459 0.37824 0.38518 0.0
C400 C 0.998 0.40896 0.39715 0.0
C401 C 0.02244 0.39851 0.40981 0.0
C402 C 0.03735 0.41427 0.43087 0.0
C403 C 0.02713 0.44138 0.43889 0.0
C404 C 0.00245 0.45252 0.42562 0.0
C405 C 0.98784 0.43594 0.40455 0.0
H406 H 0.01876 0.83493 0.15607 0.0
H407 H 0.94685 0.80575 0.10363 0.0
H408 H 0.95006 0.85092 0.07624 0.0
H409 H 0.99794 0.90827 0.16107 0.0
H410 H 0.03441 0.9217 0.16069 0.0
H411 H 0.02642 0.88699 0.17507 0.0
H412 H 0.06289 0.86417 0.14012 0.0
H413 H 0.07098 0.89879 0.12557 0.0
H414 H 0.0593 0.86977 0.1022 0.0
H415 H 0.96395 0.89924 0.0531 0.0
H416 H 0.98354 0.94702 0.03994 0.0
H417 H 0.04355 0.94402 0.11078 0.0
C418 C 0.00373 0.8379 0.1387 0.0
C419 C 0.98281 0.81676 0.13161 0.0
C420 C 0.96311 0.82173 0.10925 0.0
C421 C 0.96486 0.84723 0.0936 0.0
C422 C 0.98605 0.86759 0.10107 0.0
C423 C 0.00481 0.86323 0.12344 0.0
C424 C 0.02505 0.88846 0.1282 0.0
C425 C 0.02067 0.90216 0.15802 0.0
C426 C 0.0564 0.87977 0.12374 0.0
C427 C 0.0151 0.90779 0.1048 0.0
C428 C 0.99282 0.89544 0.08906 0.0
C429 C 0.98115 0.90917 0.06554 0.0
C430 C 0.99244 0.93621 0.05815 0.0
C431 C 0.01479 0.94933 0.07456 0.0
C432 C 0.02612 0.93479 0.09812 0.0
H433 H 0.98035 0.67489 0.13484 0.0
H434 H 0.07233 0.68814 0.12717 0.0
H435 H 0.07573 0.64057 0.10282 0.0
H436 H 0.98345 0.60412 0.15463 0.0
H437 H 0.95084 0.59327 0.13636 0.0
H438 H 0.95553 0.62958 0.14903 0.0
H439 H 0.94628 0.64808 0.09786 0.0
H440 H 0.9413 0.61177 0.08502 0.0
H441 H 0.96752 0.63491 0.06844 0.0
H442 H 0.068 0.58999 0.08025 0.0
H443 H 0.05103 0.54102 0.0661 0.0
H444 H 0.96532 0.56154 0.09425 0.0
C445 C 1.00126 0.66831 0.1275 0.0
C446 C 0.02606 0.68549 0.13248 0.0
C447 C 0.05301 0.67547 0.12323 0.0
C448 C 0.05509 0.64852 0.10941 0.0
C449 C 0.03007 0.63194 0.10541 0.0
C450 C 0.00374 0.64157 0.11445 0.0
C451 C 0.98031 0.61914 0.11048 0.0
C452 C 0.96676 0.61106 0.13934 0.0
C453 C 0.95751 0.62907 0.08918 0.0
C454 C 0.99748 0.59499 0.09805 0.0
C455 C 0.02603 0.60279 0.0946 0.0
C456 C 0.04572 0.58375 0.08298 0.0
C457 C 0.03595 0.55608 0.07499 0.0
C458 C 0.007 0.54768 0.07944 0.0
C459 C 0.98764 0.56743 0.09098 0.0
H460 H 0.38355 0.99801 0.17925 0.0
H461 H 0.3779 0.08944 0.1957 0.0
H462 H 0.40145 0.09875 0.14953 0.0
H463 H 0.45381 1.00074 0.14122 0.0
H464 H 0.44298 0.97276 0.11624 0.0
H465 H 0.42882 0.97315 0.15211 0.0
H466 H 0.37718 0.97212 0.1316 0.0
H467 H 0.39112 0.972 0.09571 0.0
H468 H 0.36668 0.99935 0.10702 0.0
H469 H 0.41891 0.09839 0.09945 0.0
H470 H 0.43299 0.08838 0.04942 0.0
H471 H 0.42992 0.99733 0.06531 0.0
C472 C 0.38791 0.02 0.17349 0.0
C473 C 0.37891 0.04301 0.19121 0.0
C474 C 0.38468 0.07145 0.18263 0.0
C475 C 0.39805 0.07697 0.15642 0.0
C476 C 0.40586 0.05383 0.13913 0.0
C477 C 0.40141 0.0259 0.14742 0.0
C478 C 0.41035 0.00499 0.12401 0.0
C479 C 0.43549 0.98684 0.134 0.0
C480 C 0.38481 0.98601 0.114 0.0
C481 C 0.41969 0.02557 0.10092 0.0
C482 C 0.41692 0.05364 0.11022 0.0
C483 C 0.4218 0.07655 0.09213 0.0
C484 C 0.42964 0.07068 0.06378 0.0
C485 C 0.43287 0.04218 0.05385 0.0
C486 C 0.42819 0.01931 0.0727 0.0
H487 H 0.67026 0.48147 0.16491 0.0
H488 H 0.63387 0.56308 0.1889 0.0
H489 H 0.60991 0.56487 0.1414 0.0
H490 H 0.68592 0.49999 0.09264 0.0
H491 H 0.6782 0.46452 0.07863 0.0
H492 H 0.691 0.46931 0.11482 0.0
H493 H 0.64661 0.4413 0.13363 0.0
H494 H 0.63374 0.43627 0.09751 0.0
H495 H 0.61118 0.4527 0.12414 0.0
H496 H 0.58852 0.55601 0.09151 0.0
H497 H 0.57443 0.53935 0.04275 0.0
H498 H 0.62884 0.46576 0.05121 0.0
C499 C 0.65694 0.49958 0.16036 0.0
C500 C 0.6534 0.52192 0.18066 0.0
C501 C 0.63656 0.54565 0.17363 0.0
C502 C 0.62294 0.54681 0.14677 0.0
C503 C 0.62699 0.52435 0.12717 0.0
C504 C 0.64388 0.50137 0.13361 0.0
C505 C 0.64601 0.48055 0.10864 0.0
C506 C 0.67713 0.47849 0.09806 0.0
C507 C 0.63364 0.45096 0.11645 0.0
C508 C 0.62732 0.49512 0.0871 0.0
C509 C 0.61628 0.52022 0.09818 0.0
C510 C 0.59731 0.53658 0.08254 0.0
C511 C 0.58941 0.52695 0.05493 0.0
C512 C 0.60085 0.50148 0.04315 0.0
C513 C 0.62019 0.48559 0.05945 0.0
H514 H 0.34704 0.00777 0.34862 0.0
H515 H 0.41298 0.96914 0.29639 0.0
H516 H 0.44351 0.96416 0.33952 0.0
H517 H 0.39262 0.04641 0.39861 0.0
H518 H 0.37058 0.03884 0.42931 0.0
H519 H 0.35452 0.04056 0.39429 0.0
H520 H 0.33291 0.98958 0.40002 0.0
H521 H 0.34875 0.98773 0.43512 0.0
H522 H 0.35618 0.96054 0.40849 0.0
H523 H 0.46752 0.96584 0.38771 0.0
H524 H 0.48131 0.96748 0.43868 0.0
H525 H 0.39771 1.00033 0.46092 0.0
C526 C 0.36799 0.99836 0.3464 0.0
C527 C 0.37803 0.98912 0.31934 0.0
C528 C 0.40516 0.9764 0.31703 0.0
C529 C 0.42259 0.97361 0.34135 0.0
C530 C 0.41218 0.98307 0.36779 0.0
C531 C 0.38528 0.99466 0.37058 0.0
C532 C 0.37855 0.00154 0.4017 0.0
C533 C 0.3738 0.03376 0.40623 0.0
C534 C 0.35256 0.98378 0.41193 0.0
C535 C 0.40603 0.99231 0.41599 0.0
C536 C 0.42528 0.98219 0.39592 0.0
C537 C 0.45253 0.97345 0.40364 0.0
C538 C 0.46022 0.97464 0.43265 0.0
C539 C 0.44057 0.98398 0.45379 0.0
C540 C 0.41309 0.99294 0.44526 0.0
H541 H 0.66522 0.52471 0.33158 0.0
H542 H 0.62609 0.44287 0.30763 0.0
H543 H 0.60001 0.44236 0.35394 0.0
H544 H 0.67769 0.50746 0.40386 0.0
H545 H 0.6712 0.54307 0.41741 0.0
H546 H 0.68446 0.53794 0.38157 0.0
H547 H 0.64158 0.56588 0.36153 0.0
H548 H 0.62822 0.57123 0.39732 0.0
H549 H 0.6055 0.55467 0.37028 0.0
H550 H 0.57818 0.4516 0.40343 0.0
H551 H 0.56559 0.46754 0.4526 0.0
H552 H 0.62261 0.5413 0.44437 0.0
C553 C 0.65074 0.50689 0.33579 0.0
C554 C 0.64719 0.48406 0.31584 0.0
C555 C 0.62882 0.4607 0.32256 0.0
C556 C 0.61396 0.46028 0.34875 0.0
C557 C 0.61816 0.48313 0.36805 0.0
C558 C 0.63636 0.50585 0.3619 0.0
C559 C 0.63888 0.52687 0.38679 0.0
C560 C 0.6699 0.52894 0.39807 0.0
C561 C 0.62788 0.5564 0.37847 0.0
C562 C 0.61916 0.51255 0.40804 0.0
C563 C 0.60707 0.48756 0.39679 0.0
C564 C 0.58766 0.47105 0.41245 0.0
C565 C 0.58059 0.48029 0.4403 0.0
C566 C 0.5933 0.50552 0.45235 0.0
C567 C 0.6128 0.52175 0.43588 0.0
H568 H 0.19694 0.35241 0.03654 0.0
H569 H 0.21843 0.39661 0.95833 0.0
H570 H 0.17237 0.42206 0.96101 0.0
H571 H 0.12453 0.34001 0.01923 0.0
H572 H 0.11164 0.34439 0.05535 0.0
H573 H 0.14751 0.33227 0.04907 0.0
H574 H 0.168 0.37405 0.08058 0.0
H575 H 0.13215 0.38618 0.08718 0.0
H576 H 0.1587 0.4103 0.07254 0.0
H577 H 0.12303 0.44099 0.97139 0.0
H578 H 0.07387 0.45105 0.98759 0.0
H579 H 0.08405 0.39216 0.05762 0.0
C580 C 0.19233 0.36799 0.02035 0.0
C581 C 0.21144 0.37295 0.99747 0.0
C582 C 0.20418 0.39276 0.97618 0.0
C583 C 0.1781 0.40727 0.97755 0.0
C584 C 0.1595 0.40144 1.00015 0.0
C585 C 0.16628 0.38221 0.02112 0.0
C586 C 0.14179 0.37807 0.04194 0.0
C587 C 0.13072 0.34684 0.04135 0.0
C588 C 0.1507 0.38774 0.07236 0.0
C589 C 0.12003 0.39793 0.02939 0.0
C590 C 0.13074 0.41142 0.00546 0.0
C591 C 0.11447 0.43061 0.99014 0.0
C592 C 0.08655 0.43617 0.99954 0.0
C593 C 0.07503 0.42236 0.02387 0.0
C594 C 0.09213 0.40299 0.0389 0.0
H595 H 0.19225 0.65609 0.46774 0.0
H596 H 0.21092 0.61779 0.54944 0.0
H597 H 0.16511 0.59019 0.54654 0.0
H598 H 0.11907 0.66639 0.48175 0.0
H599 H 0.10735 0.65935 0.44547 0.0
H600 H 0.14295 0.67339 0.4523 0.0
H601 H 0.16456 0.63081 0.42399 0.0
H602 H 0.12899 0.61671 0.4169 0.0
H603 H 0.15519 0.59472 0.43386 0.0
H604 H 0.11691 0.56808 0.53526 0.0
H605 H 0.06829 0.55497 0.51815 0.0
H606 H 0.0798 0.6106 0.44541 0.0
C607 C 0.18698 0.64137 0.48469 0.0
C608 C 0.2052 0.63857 0.50859 0.0
C609 C 0.19725 0.61993 0.53086 0.0
C610 C 0.17137 0.60419 0.52935 0.0
C611 C 0.15366 0.60777 0.50565 0.0
C612 C 0.16102 0.62605 0.48382 0.0
C613 C 0.1372 0.62789 0.46192 0.0
C614 C 0.12599 0.65857 0.46028 0.0
C615 C 0.14708 0.61686 0.43243 0.0
C616 C 0.11517 0.60785 0.47489 0.0
C617 C 0.12525 0.59617 0.49988 0.0
C618 C 0.10879 0.57705 0.51571 0.0
C619 C 0.08123 0.56973 0.50578 0.0
C620 C 0.07026 0.58184 0.48049 0.0
C621 C 0.08754 0.60113 0.46489 0.0
H622 H 0.85261 0.84585 0.48597 0.0
H623 H 0.82966 0.88934 0.56512 0.0
H624 H 0.87739 0.91396 0.56598 0.0
H625 H 0.92532 0.83297 0.50606 0.0
H626 H 0.93895 0.8375 0.47032 0.0
H627 H 0.90273 0.82466 0.47557 0.0
H628 H 0.88361 0.86586 0.44488 0.0
H629 H 0.91975 0.87871 0.43934 0.0
H630 H 0.89335 0.90235 0.45421 0.0
H631 H 0.92729 0.93548 0.55602 0.0
H632 H 0.97558 0.94936 0.53833 0.0
H633 H 0.96629 0.88766 0.46844 0.0
C634 C 0.85744 0.86086 0.50333 0.0
C635 C 0.83732 0.86622 0.52521 0.0
C636 C 0.84475 0.88525 0.54802 0.0
C637 C 0.87176 0.89923 0.54866 0.0
C638 C 0.89117 0.89333 0.52668 0.0
C639 C 0.88437 0.8743 0.50465 0.0
C640 C 0.90914 0.87059 0.48419 0.0
C641 C 0.91965 0.83959 0.48404 0.0
C642 C 0.90097 0.87995 0.45387 0.0
C643 C 0.93097 0.89091 0.49778 0.0
C644 C 0.92021 0.90407 0.52213 0.0
C645 C 0.93603 0.92498 0.53724 0.0
C646 C 0.96339 0.93273 0.52706 0.0
C647 C 0.9748 0.91922 0.50233 0.0
C648 C 0.95841 0.89784 0.4878 0.0
H649 H 0.35556 0.65672 0.53065 0.0
H650 H 0.33645 0.623 0.44556 0.0
H651 H 0.37996 0.59345 0.44745 0.0
H652 H 0.43124 0.66329 0.51987 0.0
H653 H 0.44028 0.65408 0.55605 0.0
H654 H 0.40671 0.67089 0.54866 0.0
H655 H 0.37932 0.62906 0.57279 0.0
H656 H 0.41281 0.61211 0.58027 0.0
H657 H 0.38514 0.59286 0.56054 0.0
H658 H 0.42535 0.56687 0.45939 0.0
H659 H 0.4711 0.54888 0.47831 0.0
H660 H 0.46217 0.60317 0.55388 0.0
C661 C 0.36036 0.64285 0.51255 0.0
C662 C 0.34249 0.64179 0.4881 0.0
C663 C 0.34984 0.62397 0.46454 0.0
C664 C 0.37443 0.60709 0.46547 0.0
C665 C 0.39168 0.6087 0.48991 0.0
C666 C 0.38513 0.62641 0.51287 0.0
C667 C 0.40802 0.6256 0.53588 0.0
C668 C 0.42241 0.65522 0.54036 0.0
C669 C 0.39557 0.61422 0.56403 0.0
C670 C 0.42846 0.60454 0.52238 0.0
C671 C 0.41849 0.59471 0.49605 0.0
C672 C 0.43343 0.57457 0.4799 0.0
C673 C 0.45934 0.56441 0.49085 0.0
C674 C 0.47029 0.57477 0.51745 0.0
C675 C 0.45451 0.59507 0.53334 0.0
H676 H 0.52364 0.68573 0.88832 0.0
H677 H 0.4526 0.66699 0.83057 0.0
H678 H 0.4491 0.61783 0.84915 0.0
H679 H 0.55763 0.62229 0.88043 0.0
H680 H 0.56884 0.61902 0.91716 0.0
H681 H 0.56288 0.65381 0.90275 0.0
H682 H 0.52641 0.66471 0.94304 0.0
H683 H 0.53251 0.63 0.95788 0.0
H684 H 0.49663 0.64035 0.94879 0.0
H685 H 0.45998 0.56852 0.86697 0.0
H686 H 0.48027 0.52459 0.8873 0.0
H687 H 0.54138 0.57627 0.93636 0.0
C688 C 0.50674 0.67156 0.88025 0.0
C689 C 0.4883 0.68018 0.85808 0.0
C690 C 0.46668 0.66096 0.84781 0.0
C691 C 0.46464 0.63295 0.85816 0.0
C692 C 0.48393 0.62476 0.87924 0.0
C693 C 0.5041 0.64377 0.8907 0.0
C694 C 0.52346 0.62927 0.91188 0.0
C695 C 0.55505 0.63122 0.90247 0.0
C696 C 0.5195 0.64183 0.9422 0.0
C697 C 0.51186 0.59885 0.90968 0.0
C698 C 0.48907 0.59664 0.89071 0.0
C699 C 0.47714 0.57012 0.88257 0.0
C700 C 0.4888 0.54533 0.89409 0.0
C701 C 0.51176 0.54731 0.91387 0.0
C702 C 0.52313 0.57439 0.92203 0.0
H703 H 0.49567 0.82694 0.85386 0.0
H704 H 0.57004 0.80203 0.90267 0.0
H705 H 0.56698 0.84698 0.93169 0.0
H706 H 0.51627 0.89925 0.84882 0.0
H707 H 0.4801 0.91207 0.85052 0.0
H708 H 0.48683 0.8769 0.83614 0.0
H709 H 0.45145 0.85482 0.87281 0.0
H710 H 0.44454 0.88996 0.88726 0.0
H711 H 0.45661 0.86223 0.91049 0.0
H712 H 0.55487 0.89618 0.95504 0.0
H713 H 0.53784 0.9451 0.96699 0.0
H714 H 0.47424 0.93666 0.89941 0.0
C715 C 0.51102 0.83054 0.87104 0.0
C716 C 0.53276 0.81079 0.87643 0.0
C717 C 0.55302 0.81683 0.89844 0.0
C718 C 0.55139 0.84223 0.91501 0.0
C719 C 0.52967 0.86141 0.90888 0.0
C720 C 0.51007 0.85579 0.88717 0.0
C721 C 0.49013 0.88038 0.88295 0.0
C722 C 0.49356 0.89288 0.85284 0.0
C723 C 0.45883 0.87129 0.88874 0.0
C724 C 0.50138 0.90088 0.90575 0.0
C725 C 0.52392 0.88966 0.92087 0.0
C726 C 0.53731 0.90513 0.9432 0.0
C727 C 0.52752 0.9328 0.94989 0.0
C728 C 0.50501 0.94471 0.93388 0.0
C729 C 0.4918 0.92831 0.91177 0.0
H730 H 0.53766 0.32527 0.65786 0.0
H731 H 0.46482 0.29456 0.60747 0.0
H732 H 0.46414 0.34102 0.58236 0.0
H733 H 0.51339 0.39688 0.66755 0.0
H734 H 0.54903 0.41234 0.66588 0.0
H735 H 0.54375 0.37662 0.67893 0.0
H736 H 0.57935 0.35737 0.64097 0.0
H737 H 0.58484 0.39303 0.62789 0.0
H738 H 0.5734 0.36461 0.60367 0.0
H739 H 0.47366 0.39114 0.56158 0.0
H740 H 0.4904 0.44008 0.54924 0.0
H741 H 0.55482 0.43695 0.6162 0.0
C742 C 0.52164 0.32811 0.64138 0.0
C743 C 0.50151 0.3062 0.63429 0.0
C744 C 0.48052 0.31108 0.61307 0.0
C745 C 0.48002 0.33735 0.59875 0.0
C746 C 0.50033 0.35852 0.60633 0.0
C747 C 0.52054 0.35412 0.62739 0.0
C748 C 0.53966 0.38015 0.63235 0.0
C749 C 0.53624 0.3922 0.66299 0.0
C750 C 0.57117 0.37338 0.62582 0.0
C751 C 0.5274 0.39997 0.61053 0.0
C752 C 0.50485 0.38723 0.59552 0.0
C753 C 0.4911 0.40136 0.57343 0.0
C754 C 0.50076 0.42911 0.56656 0.0
C755 C 0.5237 0.44247 0.58196 0.0
C756 C 0.53691 0.4276 0.6043 0.0
H757 H 0.56637 0.15577 0.66798 0.0
H758 H 0.55671 0.20944 0.59434 0.0
H759 H 0.5575 0.16666 0.56241 0.0
H760 H 0.60794 0.09471 0.63182 0.0
H761 H 0.58759 0.06872 0.65182 0.0
H762 H 0.59598 0.10338 0.66754 0.0
H763 H 0.54194 0.1109 0.67709 0.0
H764 H 0.53329 0.07671 0.66103 0.0
H765 H 0.51697 0.10845 0.64759 0.0
H766 H 0.54909 0.11843 0.54 0.0
H767 H 0.53054 0.06962 0.52921 0.0
H768 H 0.54232 0.04736 0.6182 0.0
C769 C 0.56631 0.15846 0.64499 0.0
C770 C 0.56275 0.18569 0.6333 0.0
C771 C 0.56058 0.18868 0.60337 0.0
C772 C 0.56093 0.16449 0.58518 0.0
C773 C 0.56305 0.13758 0.59742 0.0
C774 C 0.56587 0.13446 0.62673 0.0
C775 C 0.56203 0.1035 0.63514 0.0
C776 C 0.59006 0.09189 0.64729 0.0
C777 C 0.53708 0.0997 0.65644 0.0
C778 C 0.55501 0.08992 0.6063 0.0
C779 C 0.55657 0.1097 0.58467 0.0
C780 C 0.54841 0.10262 0.55665 0.0
C781 C 0.53783 0.07484 0.55073 0.0
C782 C 0.53494 0.05468 0.57288 0.0
C783 C 0.54442 0.06223 0.60078 0.0
H784 H 0.86065 0.50128 0.66537 0.0
H785 H 0.91748 0.56006 0.71163 0.0
H786 H 0.94789 0.56458 0.66823 0.0
H787 H 0.91235 0.46667 0.61921 0.0
H788 H 0.8889 0.46617 0.58848 0.0
H789 H 0.87403 0.46479 0.62401 0.0
H790 H 0.84362 0.50923 0.61371 0.0
H791 H 0.85824 0.51075 0.57816 0.0
H792 H 0.86114 0.54157 0.60176 0.0
H793 H 0.97195 0.56195 0.61948 0.0
H794 H 0.98329 0.55949 0.56769 0.0
H795 H 0.90646 0.50801 0.55226 0.0
C796 C 0.87968 0.51485 0.66639 0.0
C797 C 0.88714 0.52999 0.69176 0.0
C798 C 0.91173 0.54812 0.69232 0.0
C799 C 0.92909 0.55067 0.66788 0.0
C800 C 0.92101 0.5355 0.64303 0.0
C801 C 0.89649 0.51846 0.64199 0.0
C802 C 0.89053 0.50707 0.612 0.0
C803 C 0.89152 0.47422 0.61087 0.0
C804 C 0.86168 0.51781 0.60075 0.0
C805 C 0.91556 0.52034 0.59616 0.0
C806 C 0.93334 0.53601 0.61457 0.0
C807 C 0.95812 0.54985 0.6049 0.0
C808 C 0.96449 0.5482 0.57557 0.0
C809 C 0.94575 0.53349 0.5563 0.0
C810 C 0.92112 0.51926 0.56673 0.0
H811 H 0.18289 0.95688 0.66394 0.0
H812 H 0.14063 0.03047 0.70108 0.0
H813 H 0.11219 0.03533 0.65672 0.0
H814 H 0.19038 0.98589 0.59484 0.0
H815 H 0.18471 0.95232 0.57594 0.0
H816 H 0.19963 0.95282 0.61152 0.0
H817 H 0.15914 0.91833 0.62838 0.0
H818 H 0.14426 0.91749 0.59277 0.0
H819 H 0.12223 0.9276 0.62279 0.0
H820 H 0.08892 0.03241 0.60812 0.0
H821 H 0.07384 0.02312 0.55796 0.0
H822 H 0.13415 0.95374 0.55168 0.0
C823 C 0.1672 0.97362 0.6629 0.0
C824 C 0.16354 0.99306 0.68593 0.0
C825 C 0.1435 0.01527 0.68361 0.0
C826 C 0.12729 0.01817 0.65857 0.0
C827 C 0.13176 0.99895 0.63599 0.0
C828 C 0.15132 0.97719 0.63785 0.0
C829 C 0.15345 0.9606 0.60989 0.0
C830 C 0.18384 0.96307 0.59731 0.0
C831 C 0.14421 0.92914 0.61369 0.0
C832 C 0.13202 0.9764 0.59202 0.0
C833 C 0.1195 0.99824 0.60753 0.0
C834 C 0.09863 0.01543 0.5957 0.0
C835 C 0.09023 0.01003 0.56725 0.0
C836 C 0.10304 0.98793 0.55092 0.0
C837 C 0.12429 0.97107 0.56351 0.0
H838 H 0.85993 0.44804 0.83689 0.0
H839 H 0.91082 0.51874 0.80415 0.0
H840 H 0.94048 0.51929 0.84804 0.0
H841 H 0.85701 0.47494 0.90751 0.0
H842 H 0.85877 0.44067 0.92446 0.0
H843 H 0.84384 0.44314 0.88905 0.0
H844 H 0.88002 0.40606 0.86995 0.0
H845 H 0.89488 0.40324 0.90541 0.0
H846 H 0.91787 0.41222 0.8758 0.0
H847 H 0.96293 0.51398 0.89649 0.0
H848 H 0.97601 0.50373 0.94651 0.0
H849 H 0.90875 0.4383 0.94894 0.0
C850 C 0.87784 0.46304 0.83869 0.0
C851 C 0.88348 0.48303 0.817 0.0
C852 C 0.90641 0.50308 0.82047 0.0
C853 C 0.92335 0.50355 0.84529 0.0
C854 C 0.91686 0.48405 0.86664 0.0
C855 C 0.89465 0.46417 0.86365 0.0
C856 C 0.89074 0.44721 0.89078 0.0
C857 C 0.86082 0.45178 0.9037 0.0
C858 C 0.89621 0.41529 0.88514 0.0
C859 C 0.91404 0.46081 0.90948 0.0
C860 C 0.92906 0.48179 0.89505 0.0
C861 C 0.9514 0.49751 0.90799 0.0
C862 C 0.95865 0.49157 0.93643 0.0
C863 C 0.94338 0.47031 0.95176 0.0
C864 C 0.92078 0.45481 0.93794 0.0
H865 H 0.1834 0.05415 0.8425 0.0
H866 H 0.12986 0.9914 0.79731 0.0
H867 H 0.10003 0.98555 0.84064 0.0
H868 H 0.18515 0.01679 0.90694 0.0
H869 H 0.18493 0.04808 0.93 0.0
H870 H 0.1998 0.0503 0.89456 0.0
H871 H 0.16545 0.09138 0.88256 0.0
H872 H 0.15081 0.08965 0.91815 0.0
H873 H 0.12738 0.08623 0.8875 0.0
H874 H 0.07761 0.98487 0.88956 0.0
H875 H 0.06393 0.98961 0.94047 0.0
H876 H 0.1343 0.05044 0.9544 0.0
C877 C 0.16481 0.03991 0.84151 0.0
C878 C 0.15843 0.02368 0.81649 0.0
C879 C 0.13473 0.00432 0.81624 0.0
C880 C 0.11777 1.00081 0.84072 0.0
C881 C 0.12513 0.0165 0.86537 0.0
C882 C 0.14807 0.03569 0.86595 0.0
C883 C 0.15279 0.04822 0.89573 0.0
C884 C 0.18242 0.04037 0.90749 0.0
C885 C 0.14886 0.0808 0.89599 0.0
C886 C 0.1289 0.03312 0.91177 0.0
C887 C 0.11308 0.01507 0.89386 0.0
C888 C 0.08982 0.99897 0.9038 0.0
C889 C 0.08226 0.00175 0.93276 0.0
C890 C 0.09812 0.02024 0.9515 0.0
C891 C 0.1219 0.03587 0.94076 0.0
H892 H 0.6843 0.84683 0.52915 0.0
H893 H 0.70734 0.88285 0.44721 0.0
H894 H 0.66077 0.90759 0.44585 0.0
H895 H 0.61046 0.83288 0.51153 0.0
H896 H 0.59781 0.84105 0.54712 0.0
H897 H 0.63331 0.82737 0.54204 0.0
H898 H 0.655 0.87126 0.5696 0.0
H899 H 0.61957 0.88498 0.57494 0.0
H900 H 0.64675 0.90679 0.5581 0.0
H901 H 0.61234 0.92985 0.45493 0.0
H902 H 0.56495 0.94567 0.47211 0.0
H903 H 0.57258 0.89143 0.54602 0.0
C904 C 0.67971 0.8602 0.51105 0.0
C905 C 0.69952 0.86337 0.48846 0.0
C906 C 0.69247 0.88039 0.4648 0.0
C907 C 0.66611 0.89444 0.46387 0.0
C908 C 0.64698 0.89072 0.48649 0.0
C909 C 0.65338 0.87377 0.50949 0.0
C910 C 0.62886 0.87234 0.5306 0.0
C911 C 0.61691 0.84158 0.53295 0.0
C912 C 0.6381 0.88459 0.56005 0.0
C913 C 0.60768 0.89148 0.51613 0.0
C914 C 0.61859 0.90208 0.49083 0.0
C915 C 0.60347 0.92141 0.47451 0.0
C916 C 0.57663 0.93028 0.48443 0.0
C917 C 0.56504 0.91945 0.51016 0.0
C918 C 0.58069 0.89958 0.52597 0.0
H919 H 0.68278 0.15242 0.96962 0.0
H920 H 0.70081 0.12222 0.05496 0.0
H921 H 0.65403 0.09608 0.05501 0.0
H922 H 0.60895 0.16546 0.98191 0.0
H923 H 0.59789 0.1548 0.94625 0.0
H924 H 0.63342 0.16937 0.95237 0.0
H925 H 0.65531 0.12416 0.92888 0.0
H926 H 0.61984 0.1095 0.92257 0.0
H927 H 0.64565 0.08935 0.94224 0.0
H928 H 0.60532 0.07283 0.04497 0.0
H929 H 0.5575 0.05693 0.02722 0.0
H930 H 0.57081 0.10559 0.94995 0.0
C931 C 0.6771 0.13998 0.98818 0.0
C932 C 0.69551 0.13894 0.01215 0.0
C933 C 0.68701 0.12308 0.03633 0.0
C934 C 0.66056 0.10819 0.03651 0.0
C935 C 0.64282 0.10983 0.01252 0.0
C936 C 0.65068 0.12554 0.98893 0.0
C937 C 0.62728 0.12519 0.96646 0.0
C938 C 0.61624 0.1555 0.96147 0.0
C939 C 0.63765 0.11121 0.93838 0.0
C940 C 0.60497 0.10668 0.98099 0.0
C941 C 0.6144 0.09775 0.0074 0.0
C942 C 0.59767 0.07984 0.0244 0.0
C943 C 0.5706 0.07088 0.01413 0.0
C944 C 0.56042 0.08022 0.98733 0.0
C945 C 0.57788 0.0984 0.97068 0.0
H946 H 0.33967 0.38772 0.995 0.0
H947 H 0.35942 0.33776 0.06964 0.0
H948 H 0.40804 0.35977 0.07137 0.0
H949 H 0.40427 0.38105 0.96117 0.0
H950 H 0.40627 0.41682 0.94742 0.0
H951 H 0.37192 0.4004 0.95453 0.0
H952 H 0.3589 0.44295 0.98799 0.0
H953 H 0.39321 0.45969 0.98079 0.0
H954 H 0.38254 0.45305 0.01718 0.0
H955 H 0.45685 0.38053 0.05946 0.0
H956 H 0.50041 0.40224 0.03773 0.0
H957 H 0.44798 0.44126 0.97317 0.0
C958 C 0.35396 0.38198 0.01219 0.0
C959 C 0.34576 0.36107 0.03223 0.0
C960 C 0.36513 0.35395 0.05425 0.0
C961 C 0.39283 0.36629 0.05534 0.0
C962 C 0.40057 0.38614 0.03464 0.0
C963 C 0.38145 0.3944 0.01383 0.0
C964 C 0.39549 0.41481 0.99302 0.0
C965 C 0.39442 0.40252 0.96223 0.0
C966 C 0.38171 0.44438 0.99487 0.0
C967 C 0.42582 0.41587 0.00463 0.0
C968 C 0.42835 0.39922 0.02868 0.0
C969 C 0.45496 0.39433 0.04122 0.0
C970 C 0.47954 0.40664 0.02877 0.0
C971 C 0.47722 0.42394 0.0044 0.0
C972 C 0.45004 0.42891 0.99245 0.0
H973 H 0.84683 0.15232 0.02021 0.0
H974 H 0.8247 0.11284 0.93828 0.0
H975 H 0.87034 0.08623 0.93905 0.0
H976 H 0.92067 0.16339 0.0044 0.0
H977 H 0.93246 0.15712 0.04048 0.0
H978 H 0.89733 0.17105 0.03415 0.0
H979 H 0.87443 0.12912 0.06221 0.0
H980 H 0.90949 0.11511 0.06874 0.0
H981 H 0.88224 0.0928 0.05177 0.0
H982 H 0.91873 0.06312 0.95022 0.0
H983 H 0.96639 0.04904 0.96832 0.0
H984 H 0.95731 0.10759 0.04058 0.0
C985 C 0.85131 0.13771 0.0026 0.0
C986 C 0.832 0.13415 0.97943 0.0
C987 C 0.8391 0.11559 0.95637 0.0
C988 C 0.86493 0.10043 0.95667 0.0
C989 C 0.88358 0.10458 0.97991 0.0
C990 C 0.87712 0.12308 0.00226 0.0
C991 C 0.90124 0.12533 0.02391 0.0
C992 C 0.91365 0.15604 0.02583 0.0
C993 C 0.89124 0.11496 0.0534 0.0
C994 C 0.92236 0.10501 0.01048 0.0
C995 C 0.91176 0.09291 0.9853 0.0
C996 C 0.92728 0.07269 0.96977 0.0
C997 C 0.95429 0.06478 0.98021 0.0
C998 C 0.96569 0.07747 0.00565 0.0
C999 C 0.94941 0.09786 0.02082 0.0
H1000 H 0.05779 0.17987 0.25842 0.0
H1001 H 0.96867 0.20251 0.24653 0.0
H1002 H 0.96417 0.16754 0.20702 0.0
H1003 H 0.07439 0.17041 0.18417 0.0
H1004 H 0.09704 0.14008 0.18919 0.0
H1005 H 0.09332 0.16634 0.2175 0.0
H1006 H 0.07727 0.12635 0.25204 0.0
H1007 H 0.08065 0.09999 0.2237 0.0
H1008 H 0.04716 0.10336 0.24253 0.0
H1009 H 0.9693 0.13327 0.1673 0.0
H1010 H 0.98463 0.10091 0.12816 0.0
H1011 H 0.06947 0.09743 0.1658 0.0
C1012 C 0.03741 0.17741 0.24744 0.0
C1013 C 0.01358 0.19387 0.25565 0.0
C1014 C 0.98719 0.19 0.24083 0.0
C1015 C 0.98434 0.17014 0.21835 0.0
C1016 C 0.00798 0.15403 0.21098 0.0
C1017 C 0.03403 0.15729 0.22495 0.0
C1018 C 0.05608 0.13747 0.21196 0.0
C1019 C 0.08172 0.15461 0.19999 0.0
C1020 C 0.06586 0.11549 0.23387 0.0
C1021 C 0.03844 0.12323 0.18816 0.0
C1022 C 0.0107 0.1331 0.18822 0.0
C1023 C 0.99078 0.12491 0.16726 0.0
C1024 C 0.99959 0.10654 0.14522 0.0
C1025 C 0.02788 0.09633 0.14458 0.0
C1026 C 0.04745 0.10432 0.16652 0.0
H1027 H 0.00328 0.29552 0.24003 0.0
H1028 H 0.93161 0.32818 0.28873 0.0
H1029 H 0.92876 0.36921 0.25577 0.0
H1030 H 0.03709 0.36226 0.22436 0.0
H1031 H 0.04739 0.35167 0.18861 0.0
H1032 H 0.04363 0.32518 0.21596 0.0
H1033 H 0.00716 0.29629 0.18442 0.0
H1034 H 0.01127 0.32237 0.15676 0.0
H1035 H 0.97613 0.31388 0.17057 0.0
H1036 H 0.93548 0.40764 0.2178 0.0
H1037 H 0.94613 0.43601 0.17483 0.0
H1038 H 0.01263 0.37652 0.15095 0.0
C1039 C 0.98684 0.31122 0.24368 0.0
C1040 C 0.96765 0.30879 0.26688 0.0
C1041 C 0.94631 0.32958 0.27087 0.0
C1042 C 0.94477 0.35305 0.25245 0.0
C1043 C 0.96453 0.3551 0.23009 0.0
C1044 C 0.9848 0.33439 0.22541 0.0
C1045 C 0.0029 0.34071 0.19936 0.0
C1046 C 0.03463 0.34523 0.20758 0.0
C1047 C 0.99912 0.31691 0.17642 0.0
C1048 C 0.98974 0.36832 0.18996 0.0
C1049 C 0.9679 0.37655 0.20812 0.0
C1050 C 0.95251 0.40132 0.20346 0.0
C1051 C 0.9589 0.41745 0.17909 0.0
C1052 C 0.98029 0.40856 0.15948 0.0
C1053 C 0.99626 0.38401 0.16552 0.0
H1054 H 0.0574 0.82266 0.24573 0.0
H1055 H 0.97088 0.79124 0.26226 0.0
H1056 H 0.96697 0.82499 0.30284 0.0
H1057 H 0.07837 0.83306 0.3192 0.0
H1058 H 0.09864 0.86559 0.31313 0.0
H1059 H 0.09473 0.83915 0.28485 0.0
H1060 H 0.07396 0.87755 0.2517 0.0
H1061 H 0.07752 0.90405 0.28003 0.0
H1062 H 0.04317 0.89741 0.26319 0.0
H1063 H 0.97274 0.85928 0.34286 0.0
H1064 H 0.98845 0.89327 0.38105 0.0
H1065 H 0.06992 0.90563 0.33811 0.0
C1066 C 0.03774 0.8229 0.25801 0.0
C1067 C 0.01444 0.80437 0.25085 0.0
C1068 C 0.98894 0.80539 0.26724 0.0
C1069 C 0.98645 0.8245 0.29033 0.0
C1070 C 0.00953 0.84274 0.29663 0.0
C1071 C 0.0347 0.84226 0.28105 0.0
C1072 C 0.05623 0.86419 0.29285 0.0
C1073 C 0.0836 0.84962 0.30312 0.0
C1074 C 0.06312 0.88716 0.27062 0.0
C1075 C 0.03935 0.87649 0.31778 0.0
C1076 C 0.01245 0.86374 0.31942 0.0
C1077 C 0.99353 0.86985 0.34161 0.0
C1078 C 0.00255 0.88914 0.3631 0.0
C1079 C 0.03 0.90235 0.36196 0.0
C1080 C 0.04848 0.89638 0.33881 0.0
H1081 H 0.00235 0.70337 0.26472 0.0
H1082 H 0.93041 0.6691 0.21531 0.0
H1083 H 0.92617 0.62845 0.24873 0.0
H1084 H 0.03434 0.63732 0.28222 0.0
H1085 H 0.04428 0.6487 0.318 0.0
H1086 H 0.04163 0.67464 0.2901 0.0
H1087 H 0.00533 0.70354 0.32038 0.0
H1088 H 0.00829 0.67799 0.34856 0.0
H1089 H 0.97361 0.68575 0.33382 0.0
H1090 H 0.93148 0.59063 0.28732 0.0
H1091 H 0.94089 0.56301 0.3309 0.0
H1092 H 0.00837 0.62389 0.35521 0.0
C1093 C 0.98561 0.68735 0.26096 0.0
C1094 C 0.96674 0.68921 0.23743 0.0
C1095 C 0.94493 0.66809 0.23337 0.0
C1096 C 0.94258 0.64485 0.25207 0.0
C1097 C 0.962 0.64339 0.2748 0.0
C1098 C 0.98274 0.66443 0.27954 0.0
C1099 C 1.00024 0.65881 0.30609 0.0
C1100 C 0.032 0.65462 0.29864 0.0
C1101 C 0.99663 0.68295 0.32854 0.0
C1102 C 0.98623 0.63119 0.31566 0.0
C1103 C 0.96448 0.62236 0.29719 0.0
C1104 C 0.94843 0.59743 0.30191 0.0
C1105 C 0.95411 0.58173 0.32662 0.0
C1106 C 0.97542 0.59123 0.3465 0.0
C1107 C 0.99201 0.61597 0.34045 0.0
H1108 H 0.27234 0.02874 0.17642 0.0
H1109 H 0.25201 0.94471 0.20962 0.0
H1110 H 0.21009 0.94082 0.17708 0.0
H1111 H 0.20264 0.0529 0.17057 0.0
H1112 H 0.20808 0.07169 0.13759 0.0
H1113 H 0.23776 0.06669 0.16151 0.0
H1114 H 0.26624 0.04231 0.12059 0.0
H1115 H 0.23663 0.04735 0.09645 0.0
H1116 H 0.25053 0.01207 0.10147 0.0
H1117 H 0.16683 0.94929 0.14609 0.0
H1118 H 0.12789 0.96749 0.1157 0.0
H1119 H 0.17845 0.04422 0.0997 0.0
C1120 C 0.25933 0.00931 0.17651 0.0
C1121 C 0.26535 0.98702 0.19558 0.0
C1122 C 0.24788 0.96194 0.19506 0.0
C1123 C 0.22401 0.95959 0.17669 0.0
C1124 C 0.21833 0.98224 0.15858 0.0
C1125 C 0.23582 0.0064 0.15797 0.0
C1126 C 0.22457 0.02809 0.13718 0.0
C1127 C 0.21786 0.05651 0.15265 0.0
C1128 C 0.24576 0.03272 0.11245 0.0
C1129 C 0.19746 0.01281 0.12687 0.0
C1130 C 0.19421 0.9864 0.13952 0.0
C1131 C 0.16949 0.96957 0.1355 0.0
C1132 C 0.14749 0.98008 0.1183 0.0
C1133 C 0.15053 0.00692 0.10496 0.0
C1134 C 0.17602 0.02324 0.10896 0.0
H1135 H 0.78647 0.50458 0.20231 0.0
H1136 H 0.73614 0.42902 0.17815 0.0
H1137 H 0.76908 0.41988 0.13766 0.0
H1138 H 0.80582 0.52732 0.13147 0.0
H1139 H 0.84188 0.53796 0.14141 0.0
H1140 H 0.81357 0.53947 0.16755 0.0
H1141 H 0.84234 0.50711 0.20127 0.0
H1142 H 0.87089 0.5059 0.17545 0.0
H1143 H 0.85478 0.47311 0.18802 0.0
H1144 H 0.80707 0.41963 0.09936 0.0
H1145 H 0.85129 0.4236 0.07071 0.0
H1146 H 0.87846 0.49772 0.12182 0.0
C1147 C 0.78243 0.48613 0.18845 0.0
C1148 C 0.75879 0.46752 0.19318 0.0
C1149 C 0.75429 0.44339 0.17492 0.0
C1150 C 0.7727 0.43821 0.15174 0.0
C1151 C 0.79568 0.45715 0.14745 0.0
C1152 C 0.80093 0.4803 0.16564 0.0
C1153 C 0.82824 0.4962 0.15757 0.0
C1154 C 0.82199 0.52707 0.14899 0.0
C1155 C 0.85037 0.49553 0.18202 0.0
C1156 C 0.83759 0.47837 0.13201 0.0
C1157 C 0.81823 0.45628 0.12619 0.0
C1158 C 0.8224 0.43682 0.10374 0.0
C1159 C 0.84752 0.43939 0.08744 0.0
C1160 C 0.86839 0.46097 0.09398 0.0
C1161 C 0.86292 0.48104 0.1162 0.0
H1162 H 0.27576 0.99997 0.33478 0.0
H1163 H 0.24659 0.07653 0.29348 0.0
H1164 H 0.20385 0.07685 0.32484 0.0
H1165 H 0.21052 0.96566 0.34083 0.0
H1166 H 0.21671 0.95084 0.37562 0.0
H1167 H 0.24654 0.95875 0.35259 0.0
H1168 H 0.26969 0.99105 0.39226 0.0
H1169 H 0.23998 0.98305 0.41559 0.0
H1170 H 0.2494 0.0197 0.408 0.0
H1171 H 0.16081 0.06368 0.35443 0.0
H1172 H 0.1229 0.04107 0.38388 0.0
H1173 H 0.18199 0.97555 0.40888 0.0
C1174 C 0.26065 0.01714 0.33279 0.0
C1175 C 0.26428 0.03819 0.31175 0.0
C1176 C 0.2442 0.06035 0.30967 0.0
C1177 C 0.2199 0.06065 0.32733 0.0
C1178 C 0.21652 0.03908 0.34738 0.0
C1179 C 0.23669 0.01809 0.35063 0.0
C1180 C 0.22744 0.99657 0.37279 0.0
C1181 C 0.22516 0.96617 0.35966 0.0
C1182 C 0.24784 0.99767 0.3987 0.0
C1183 C 0.19827 0.00792 0.38056 0.0
C1184 C 0.19236 0.03248 0.36569 0.0
C1185 C 0.16548 0.04498 0.36683 0.0
C1186 C 0.14408 0.03196 0.38344 0.0
C1187 C 0.14985 0.00699 0.39896 0.0
C1188 C 0.17741 0.99516 0.39788 0.0
H1189 H 0.78485 0.49472 0.29986 0.0
H1190 H 0.73609 0.56866 0.32606 0.0
H1191 H 0.76712 0.57512 0.36887 0.0
H1192 H 0.80027 0.46751 0.3702 0.0
H1193 H 0.8364 0.45773 0.36126 0.0
H1194 H 0.80912 0.45758 0.33387 0.0
H1195 H 0.84016 0.49215 0.30344 0.0
H1196 H 0.86769 0.49193 0.33047 0.0
H1197 H 0.85311 0.52538 0.31928 0.0
H1198 H 0.80325 0.57314 0.40876 0.0
H1199 H 0.8468 0.56868 0.43819 0.0
H1200 H 0.87391 0.49784 0.38403 0.0
C1201 C 0.78075 0.51222 0.3147 0.0
C1202 C 0.75816 0.53118 0.30991 0.0
C1203 C 0.75351 0.55409 0.3294 0.0
C1204 C 0.77078 0.55769 0.35387 0.0
C1205 C 0.79276 0.53841 0.35818 0.0
C1206 C 0.79818 0.5165 0.33881 0.0
C1207 C 0.82466 0.50031 0.34705 0.0
C1208 C 0.81715 0.46892 0.35348 0.0
C1209 C 0.84777 0.5026 0.32368 0.0
C1210 C 0.83345 0.51667 0.37399 0.0
C1211 C 0.81439 0.53811 0.38041 0.0
C1212 C 0.81832 0.55643 0.40397 0.0
C1213 C 0.84306 0.55356 0.42069 0.0
C1214 C 0.86379 0.5329 0.41341 0.0
C1215 C 0.8584 0.51373 0.39023 0.0
H1216 H 0.23584 0.22349 0.04645 0.0
H1217 H 0.18461 0.28454 1.00111 0.0
H1218 H 0.14287 0.25114 0.00249 0.0
H1219 H 0.20788 0.16216 0.00845 0.0
H1220 H 0.20886 0.13891 0.03881 0.0
H1221 H 0.23389 0.16857 0.03655 0.0
H1222 H 0.21702 0.18762 0.08602 0.0
H1223 H 0.19196 0.15797 0.08844 0.0
H1224 H 0.17947 0.19411 0.09178 0.0
H1225 H 0.10676 0.21116 0.00898 0.0
H1226 H 0.07989 0.16578 0.01649 0.0
H1227 H 0.15584 0.12923 0.05392 0.0
C1228 C 0.21567 0.22986 0.03721 0.0
C1229 C 0.21316 0.25657 0.02395 0.0
C1230 C 0.18678 0.26409 0.0114 0.0
C1231 C 0.16299 0.24535 0.01217 0.0
C1232 C 0.16616 0.21898 0.02513 0.0
C1233 C 0.19191 0.21107 0.03714 0.0
C1234 C 0.19015 0.18071 0.04791 0.0
C1235 C 0.21146 0.16146 0.03197 0.0
C1236 C 0.19493 0.18008 0.08047 0.0
C1237 C 0.15942 0.17283 0.04011 0.0
C1238 C 0.14583 0.19534 0.02738 0.0
C1239 C 0.1172 0.19333 0.01881 0.0
C1240 C 0.10211 0.16753 0.0232 0.0
C1241 C 0.11585 0.14397 0.03556 0.0
C1242 C 0.14487 0.14678 0.04412 0.0
H1243 H 0.19626 0.75103 0.50046 0.0
H1244 H 0.24576 0.76328 0.42287 0.0
H1245 H 0.21542 0.80392 0.4104 0.0
H1246 H 0.12653 0.76897 0.469 0.0
H1247 H 0.11438 0.78672 0.50119 0.0
H1248 H 0.1391 0.75767 0.50345 0.0
H1249 H 0.17447 0.79035 0.53239 0.0
H1250 H 0.14994 0.8195 0.53016 0.0
H1251 H 0.18625 0.82394 0.51763 0.0
H1252 H 0.18332 0.84583 0.40871 0.0
H1253 H 0.14866 0.88457 0.4159 0.0
H1254 H 0.1172 0.84395 0.49271 0.0
C1255 C 0.20053 0.76209 0.48069 0.0
C1256 C 0.22347 0.75399 0.46265 0.0
C1257 C 0.22829 0.76898 0.43697 0.0
C1258 C 0.21119 0.79213 0.42972 0.0
C1259 C 0.18904 0.79978 0.44813 0.0
C1260 C 0.18337 0.78502 0.4729 0.0
C1261 C 0.15843 0.79799 0.4891 0.0
C1262 C 0.13311 0.77656 0.49078 0.0
C1263 C 0.16785 0.80857 0.51909 0.0
C1264 C 0.15143 0.82279 0.46991 0.0
C1265 C 0.16949 0.82339 0.44645 0.0
C1266 C 0.16872 0.84529 0.42667 0.0
C1267 C 0.14906 0.86721 0.43097 0.0
C1268 C 0.13013 0.86691 0.45458 0.0
C1269 C 0.13108 0.84426 0.47417 0.0
H1270 H 0.81929 0.73332 0.50989 0.0
H1271 H 0.84042 0.78197 0.43437 0.0
H1272 H 0.88249 0.75143 0.42575 0.0
H1273 H 0.89154 0.71929 0.53332 0.0
H1274 H 0.88303 0.68326 0.54402 0.0
H1275 H 0.85588 0.71016 0.54537 0.0
H1276 H 0.82259 0.67847 0.51293 0.0
H1277 H 0.84941 0.65133 0.51194 0.0
H1278 H 0.83581 0.6654 0.479 0.0
H1279 H 0.92221 0.71553 0.42573 0.0
H1280 H 0.95166 0.67237 0.42931 0.0
H1281 H 0.90246 0.64583 0.50331 0.0
C1282 C 0.83286 0.73753 0.49158 0.0
C1283 C 0.82686 0.75992 0.4728 0.0
C1284 C 0.8447 0.7647 0.44884 0.0
C1285 C 0.86875 0.74771 0.444 0.0
C1286 C 0.87429 0.72593 0.46315 0.0
C1287 C 0.85651 0.72046 0.48613 0.0
C1288 C 0.86572 0.69435 0.50215 0.0
C1289 C 0.87457 0.70225 0.53304 0.0
C1290 C 0.84198 0.67101 0.50144 0.0
C1291 C 0.89132 0.68575 0.48443 0.0
C1292 C 0.89635 0.70458 0.46243 0.0
C1293 C 0.91852 0.70066 0.44289 0.0
C1294 C 0.93528 0.67621 0.44524 0.0
C1295 C 0.92932 0.65583 0.46662 0.0
C1296 C 0.90756 0.66113 0.48685 0.0
H1297 H 0.35274 0.74925 0.51102 0.0
H1298 H 0.28993 0.76847 0.57661 0.0
H1299 H 0.31627 0.81346 0.58868 0.0
H1300 H 0.41542 0.77908 0.55175 0.0
H1301 H 0.4324 0.79216 0.5198 0.0
H1302 H 0.40977 0.7605 0.51802 0.0
H1303 H 0.37911 0.78379 0.47875 0.0
H1304 H 0.40131 0.81567 0.48069 0.0
H1305 H 0.36314 0.81799 0.48592 0.0
H1306 H 0.34509 0.85887 0.58862 0.0
H1307 H 0.37909 0.89925 0.58181 0.0
H1308 H 0.42577 0.84896 0.51917 0.0
C1309 C 0.34489 0.76272 0.52828 0.0
C1310 C 0.31935 0.75561 0.54289 0.0
C1311 C 0.30961 0.77356 0.56536 0.0
C1312 C 0.32433 0.79915 0.57225 0.0
C1313 C 0.34903 0.80597 0.55689 0.0
C1314 C 0.35967 0.78797 0.53587 0.0
C1315 C 0.38645 0.80055 0.52234 0.0
C1316 C 0.41256 0.78197 0.52835 0.0
C1317 C 0.38223 0.80475 0.49001 0.0
C1318 C 0.3886 0.82891 0.53833 0.0
C1319 C 0.36666 0.83164 0.55801 0.0
C1320 C 0.36271 0.85679 0.57374 0.0
C1321 C 0.38193 0.87964 0.56953 0.0
C1322 C 0.405 0.87699 0.55009 0.0
C1323 C 0.40847 0.85127 0.53442 0.0
H1324 H 0.52782 0.70294 0.73173 0.0
H1325 H 0.59612 0.67395 0.78655 0.0
H1326 H 0.60282 0.63198 0.75409 0.0
H1327 H 0.49685 0.6356 0.71479 0.0
H1328 H 0.48885 0.64389 0.67812 0.0
H1329 H 0.49038 0.67202 0.70491 0.0
H1330 H 0.52858 0.69965 0.67543 0.0
H1331 H 0.52665 0.67195 0.64822 0.0
H1332 H 0.56069 0.68175 0.66427 0.0
H1333 H 0.59922 0.5914 0.71674 0.0
H1334 H 0.59111 0.55993 0.67427 0.0
H1335 H 0.52579 0.61716 0.6442 0.0
C1336 C 0.54447 0.68796 0.73673 0.0
C1337 C 0.56148 0.69156 0.76158 0.0
C1338 C 0.5831 0.67164 0.7674 0.0
C1339 C 0.58681 0.64765 0.74927 0.0
C1340 C 0.56894 0.64427 0.72536 0.0
C1341 C 0.54862 0.66427 0.71881 0.0
C1342 C 0.53238 0.6562 0.69175 0.0
C1343 C 0.50021 0.65166 0.69777 0.0
C1344 C 0.53739 0.67872 0.66855 0.0
C1345 C 0.54651 0.62833 0.68407 0.0
C1346 C 0.56733 0.62156 0.70381 0.0
C1347 C 0.58308 0.59661 0.7011 0.0
C1348 C 0.57811 0.57873 0.67704 0.0
C1349 C 0.55779 0.58608 0.65592 0.0
C1350 C 0.54144 0.61091 0.65995 0.0
H1351 H 0.48122 0.79137 0.72525 0.0
H1352 H 0.53768 0.83688 0.78493 0.0
H1353 H 0.53925 0.87845 0.75284 0.0
H1354 H 0.51763 0.81528 0.6622 0.0
H1355 H 0.48539 0.81768 0.6411 0.0
H1356 H 0.4871 0.79241 0.66968 0.0
H1357 H 0.44179 0.81428 0.69264 0.0
H1358 H 0.43995 0.83961 0.6641 0.0
H1359 H 0.44132 0.85209 0.70081 0.0
H1360 H 0.53365 0.91559 0.71445 0.0
H1361 H 0.52506 0.94348 0.67068 0.0
H1362 H 0.47587 0.87196 0.63442 0.0
C1363 C 0.49366 0.81022 0.7316 0.0
C1364 C 0.50915 0.81113 0.75759 0.0
C1365 C 0.5257 0.83586 0.76503 0.0
C1366 C 0.52662 0.85958 0.74702 0.0
C1367 C 0.51128 0.85801 0.7214 0.0
C1368 C 0.49541 0.83382 0.71351 0.0
C1369 C 0.48233 0.83694 0.68405 0.0
C1370 C 0.4938 0.81423 0.66302 0.0
C1371 C 0.44939 0.83566 0.6855 0.0
C1372 C 0.49321 0.86665 0.67667 0.0
C1373 C 0.50951 0.87865 0.69864 0.0
C1374 C 0.52112 0.90631 0.697 0.0
C1375 C 0.5161 0.92202 0.67214 0.0
C1376 C 0.50013 0.90976 0.64909 0.0
C1377 C 0.48856 0.88173 0.65153 0.0
H1378 H 0.56646 0.31594 0.74994 0.0
H1379 H 0.48133 0.27956 0.76326 0.0
H1380 H 0.47311 0.31481 0.80214 0.0
H1381 H 0.58331 0.33118 0.82322 0.0
H1382 H 0.6017 0.36457 0.81618 0.0
H1383 H 0.60069 0.33659 0.78925 0.0
H1384 H 0.57883 0.37169 0.75319 0.0
H1385 H 0.57949 0.39972 0.78016 0.0
H1386 H 0.54633 0.38995 0.76233 0.0
H1387 H 0.47533 0.3514 0.84147 0.0
H1388 H 0.4876 0.38812 0.87842 0.0
H1389 H 0.56962 0.40352 0.83744 0.0
C1390 C 0.54617 0.31537 0.76116 0.0
C1391 C 0.52458 0.29497 0.7538 0.0
C1392 C 0.49813 0.29506 0.76862 0.0
C1393 C 0.49324 0.31501 0.79067 0.0
C1394 C 0.51483 0.33501 0.79727 0.0
C1395 C 0.5407 0.33551 0.78289 0.0
C1396 C 0.56028 0.3593 0.7943 0.0
C1397 C 0.58813 0.34718 0.80646 0.0
C1398 C 0.5666 0.38148 0.77111 0.0
C1399 C 0.54161 0.37162 0.81778 0.0
C1400 C 0.51548 0.35725 0.8191 0.0
C1401 C 0.49547 0.36319 0.84037 0.0
C1402 C 0.50257 0.38404 0.8612 0.0
C1403 C 0.52923 0.39891 0.86029 0.0
C1404 C 0.54874 0.39302 0.83801 0.0
H1405 H 0.52169 0.18662 0.76306 0.0
H1406 H 0.45272 0.15423 0.70842 0.0
H1407 H 0.44453 0.11401 0.74163 0.0
H1408 H 0.54921 0.11864 0.78522 0.0
H1409 H 0.55626 0.13103 0.82134 0.0
H1410 H 0.55779 0.15585 0.79229 0.0
H1411 H 0.52055 0.18781 0.81789 0.0
H1412 H 0.51917 0.16328 0.84712 0.0
H1413 H 0.48667 0.17228 0.82867 0.0
H1414 H 0.44407 0.07746 0.78165 0.0
H1415 H 0.4471 0.05156 0.82728 0.0
H1416 H 0.51502 0.10997 0.856 0.0
C1417 C 0.50501 0.17092 0.75789 0.0
C1418 C 0.48798 0.17333 0.73306 0.0
C1419 C 0.46599 0.15272 0.72737 0.0
C1420 C 0.46136 0.12975 0.74598 0.0
C1421 C 0.47872 0.12795 0.77026 0.0
C1422 C 0.49985 0.14827 0.77637 0.0
C1423 C 0.51426 0.14286 0.80475 0.0
C1424 C 0.54628 0.13673 0.80064 0.0
C1425 C 0.50989 0.16804 0.82585 0.0
C1426 C 0.49784 0.11639 0.81389 0.0
C1427 C 0.47776 0.10776 0.79355 0.0
C1428 C 0.45976 0.08403 0.79767 0.0
C1429 C 0.46177 0.06933 0.82358 0.0
C1430 C 0.48132 0.07871 0.8452 0.0
C1431 C 0.49992 0.1022 0.83988 0.0
H1432 H 0.73902 0.46625 0.70866 0.0
H1433 H 0.81012 0.50051 0.65984 0.0
H1434 H 0.77881 0.50449 0.61751 0.0
H1435 H 0.70008 0.42818 0.6475 0.0
H1436 H 0.6656 0.43855 0.66112 0.0
H1437 H 0.69479 0.43255 0.68553 0.0
H1438 H 0.68858 0.48339 0.70732 0.0
H1439 H 0.65959 0.48959 0.68293 0.0
H1440 H 0.69007 0.51385 0.68419 0.0
H1441 H 0.7388 0.51114 0.58293 0.0
H1442 H 0.69287 0.52132 0.55917 0.0
H1443 H 0.64694 0.48443 0.63084 0.0
C1444 C 0.74809 0.47338 0.68863 0.0
C1445 C 0.77709 0.48222 0.68702 0.0
C1446 C 0.78811 0.49293 0.66107 0.0
C1447 C 0.77046 0.49528 0.63697 0.0
C1448 C 0.7417 0.48713 0.63929 0.0
C1449 C 0.73053 0.47635 0.66444 0.0
C1450 C 0.69821 0.47282 0.66245 0.0
C1451 C 0.68914 0.44114 0.66425 0.0
C1452 C 0.68325 0.491 0.68558 0.0
C1453 C 0.69294 0.48423 0.63274 0.0
C1454 C 0.71834 0.49185 0.61953 0.0
C1455 C 0.71877 0.5048 0.59284 0.0
C1456 C 0.69255 0.51055 0.57951 0.0
C1457 C 0.66622 0.50363 0.59301 0.0
C1458 C 0.66663 0.48974 0.61972 0.0
H1459 H 0.27006 0.00126 0.67582 0.0
H1460 H 0.30259 0.07005 0.73092 0.0
H1461 H 0.34631 0.07369 0.70094 0.0
H1462 H 0.33403 0.9667 0.66462 0.0
H1463 H 0.32731 0.9573 0.62761 0.0
H1464 H 0.29774 0.96222 0.6517 0.0
H1465 H 0.27671 1.00021 0.61825 0.0
H1466 H 0.30622 0.99534 0.59392 0.0
H1467 H 0.29864 0.0305 0.60804 0.0
H1468 H 0.38934 0.06439 0.66898 0.0
H1469 H 0.42598 0.04613 0.63533 0.0
H1470 H 0.36321 0.98625 0.59907 0.0
C1471 C 0.28618 0.01744 0.68129 0.0
C1472 C 0.28309 0.03535 0.70568 0.0
C1473 C 0.30453 0.05629 0.71218 0.0
C1474 C 0.32941 0.05843 0.69531 0.0
C1475 C 0.33208 0.03995 0.6717 0.0
C1476 C 0.31072 0.02024 0.6644 0.0
C1477 C 0.31903 0.00216 0.63866 0.0
C1478 C 0.31957 0.97022 0.64611 0.0
C1479 C 0.29896 0.00738 0.61321 0.0
C1480 C 0.34888 0.01401 0.63315 0.0
C1481 C 0.3561 0.03577 0.65243 0.0
C1482 C 0.38365 0.04792 0.65332 0.0
C1483 C 0.40432 0.03739 0.63421 0.0
C1484 C 0.39721 0.01524 0.61425 0.0
C1485 C 0.36898 0.00384 0.61348 0.0
H1486 H 0.77804 0.49515 0.83171 0.0
H1487 H 0.75095 0.57187 0.78932 0.0
H1488 H 0.70733 0.57272 0.81957 0.0
H1489 H 0.71213 0.46158 0.83613 0.0
H1490 H 0.71731 0.44673 0.87107 0.0
H1491 H 0.74777 0.45421 0.84871 0.0
H1492 H 0.77044 0.48626 0.88881 0.0
H1493 H 0.74012 0.47868 0.9115 0.0
H1494 H 0.75019 0.51521 0.90406 0.0
H1495 H 0.66334 0.56019 0.84863 0.0
H1496 H 0.62478 0.53847 0.87791 0.0
H1497 H 0.68246 0.47216 0.90407 0.0
C1498 C 0.76322 0.5125 0.82926 0.0
C1499 C 0.76771 0.53345 0.80822 0.0
C1500 C 0.74793 0.55579 0.80552 0.0
C1501 C 0.72312 0.55637 0.82254 0.0
C1502 C 0.7189 0.53485 0.84256 0.0
C1503 C 0.73876 0.51369 0.84641 0.0
C1504 C 0.72873 0.49231 0.86841 0.0
C1505 C 0.72634 0.46193 0.85528 0.0
C1506 C 0.74855 0.49318 0.89476 0.0
C1507 C 0.69954 0.50401 0.87554 0.0
C1508 C 0.69423 0.52855 0.8604 0.0
C1509 C 0.66755 0.54147 0.86117 0.0
C1510 C 0.64576 0.52893 0.87771 0.0
C1511 C 0.65091 0.504 0.89356 0.0
C1512 C 0.67828 0.4917 0.89278 0.0
H1513 H 0.25335 0.00709 0.83984 0.0
H1514 H 0.28125 0.92932 0.79744 0.0
H1515 H 0.31746 0.92311 0.8356 0.0
H1516 H 0.31767 0.03458 0.85445 0.0
H1517 H 0.3096 0.05031 0.88893 0.0
H1518 H 0.28149 0.04445 0.86316 0.0
H1519 H 0.25265 0.01443 0.89966 0.0
H1520 H 0.28076 0.02033 0.9258 0.0
H1521 H 0.26914 0.9844 0.91639 0.0
H1522 H 0.35693 0.93178 0.8707 0.0
H1523 H 0.39576 0.95382 0.89993 0.0
H1524 H 0.34154 0.02544 0.92063 0.0
C1525 C 0.2665 0.98824 0.83908 0.0
C1526 C 0.26471 0.9687 0.81575 0.0
C1527 C 0.28222 0.94438 0.8153 0.0
C1528 C 0.30274 0.94069 0.83693 0.0
C1529 C 0.30486 0.96117 0.85902 0.0
C1530 C 0.28681 0.98424 0.86048 0.0
C1531 C 0.29576 0.00533 0.88392 0.0
C1532 C 0.30149 0.03541 0.87187 0.0
C1533 C 0.27324 0.00616 0.90786 0.0
C1534 C 0.32306 0.99175 0.894 0.0
C1535 C 0.32755 0.9659 0.8799 0.0
C1536 C 0.35324 0.95147 0.88253 0.0
C1537 C 0.37521 0.96421 0.89908 0.0
C1538 C 0.37138 0.99113 0.91275 0.0
C1539 C 0.3446 0.00443 0.91113 0.0
H1540 H 0.72576 0.72557 0.5029 0.0
H1541 H 0.69711 0.77614 0.57568 0.0
H1542 H 0.65815 0.74065 0.58424 0.0
H1543 H 0.65693 0.70045 0.47768 0.0
H1544 H 0.66868 0.66489 0.46878 0.0
H1545 H 0.69369 0.69468 0.46762 0.0
H1546 H 0.7275 0.66918 0.50266 0.0
H1547 H 0.70276 0.63918 0.50366 0.0
H1548 H 0.71372 0.65709 0.53648 0.0
H1549 H 0.62111 0.70116 0.58326 0.0
H1550 H 0.5927 0.6564 0.57798 0.0
H1551 H 0.64798 0.62893 0.50852 0.0
C1552 C 0.71126 0.72905 0.52065 0.0
C1553 C 0.71419 0.75354 0.5386 0.0
C1554 C 0.69519 0.75737 0.56184 0.0
C1555 C 0.67292 0.73748 0.5667 0.0
C1556 C 0.6704 0.71366 0.54844 0.0
C1557 C 0.68941 0.70901 0.52627 0.0
C1558 C 0.68294 0.68078 0.51091 0.0
C1559 C 0.67509 0.6855 0.47938 0.0
C1560 C 0.70823 0.66035 0.5136 0.0
C1561 C 0.65719 0.67038 0.52779 0.0
C1562 C 0.65003 0.68996 0.54898 0.0
C1563 C 0.62663 0.68556 0.56691 0.0
C1564 C 0.6105 0.66015 0.56358 0.0
C1565 C 0.61815 0.63918 0.54284 0.0
C1566 C 0.64169 0.64454 0.52458 0.0
H1567 H 0.72722 0.27821 0.99924 0.0
H1568 H 0.70049 0.22961 0.92359 0.0
H1569 H 0.66421 0.26594 0.91322 0.0
H1570 H 0.65858 0.30349 0.02046 0.0
H1571 H 0.67124 0.33878 0.03101 0.0
H1572 H 0.69494 0.30889 0.03285 0.0
H1573 H 0.73164 0.33527 1.00066 0.0
H1574 H 0.70815 0.36534 0.99888 0.0
H1575 H 0.72031 0.3482 0.96638 0.0
H1576 H 0.62853 0.30526 0.91323 0.0
H1577 H 0.59994 0.34882 0.9194 0.0
H1578 H 0.65278 0.37521 0.99203 0.0
C1579 C 0.71376 0.27537 0.98044 0.0
C1580 C 0.71647 0.25108 0.96224 0.0
C1581 C 0.69879 0.24814 0.93768 0.0
C1582 C 0.67806 0.26857 0.93173 0.0
C1583 C 0.67572 0.29215 0.9502 0.0
C1584 C 0.69347 0.29602 0.97371 0.0
C1585 C 0.6872 0.32394 0.98939 0.0
C1586 C 0.67741 0.31843 0.02025 0.0
C1587 C 0.71338 0.3444 0.98878 0.0
C1588 C 0.66282 0.3349 0.97127 0.0
C1589 C 0.65631 0.31594 0.94905 0.0
C1590 C 0.63367 0.32045 0.9303 0.0
C1591 C 0.61746 0.34515 0.93408 0.0
C1592 C 0.62426 0.36539 0.95608 0.0
C1593 C 0.64733 0.36021 0.97486 0.0
H1594 H 0.30899 0.22797 0.99015 0.0
H1595 H 0.34458 0.28417 0.92594 0.0
H1596 H 0.38046 0.24749 0.91324 0.0
H1597 H 0.37317 0.19963 0.01471 0.0
H1598 H 0.35906 0.16384 0.01922 0.0
H1599 H 0.3356 0.19386 0.02209 0.0
H1600 H 0.30255 0.1716 0.98264 0.0
H1601 H 0.32569 0.14127 0.97991 0.0
H1602 H 0.31763 0.16153 0.94851 0.0
H1603 H 0.41545 0.20614 0.9116 0.0
H1604 H 0.44225 0.16116 0.91614 0.0
H1605 H 0.38091 0.13151 0.97918 0.0
C1606 C 0.32413 0.23238 0.97314 0.0
C1607 C 0.32425 0.25878 0.95902 0.0
C1608 C 0.34415 0.26388 0.9368 0.0
C1609 C 0.36464 0.24329 0.92963 0.0
C1610 C 0.36437 0.21764 0.94452 0.0
C1611 C 0.34417 0.21193 0.96536 0.0
C1612 C 0.34813 0.18278 0.97812 0.0
C1613 C 0.35437 0.18519 0.01044 0.0
C1614 C 0.32195 0.16314 0.97191 0.0
C1615 C 0.37416 0.1731 0.96168 0.0
C1616 C 0.38345 0.19354 0.94258 0.0
C1617 C 0.40809 0.18984 0.92617 0.0
C1618 C 0.42328 0.16437 0.92904 0.0
C1619 C 0.41348 0.14288 0.94786 0.0
C1620 C 0.38866 0.14745 0.96436 0.0
H1621 H 0.82523 0.26489 0.99175 0.0
H1622 H 0.83701 0.22067 0.07162 0.0
H1623 H 0.88138 0.24934 0.08103 0.0
H1624 H 0.90041 0.27358 0.97253 0.0
H1625 H 0.89564 0.30901 0.95888 0.0
H1626 H 0.86649 0.28317 0.95721 0.0
H1627 H 0.83364 0.31818 0.98494 0.0
H1628 H 0.86246 0.34425 0.98607 0.0
H1629 H 0.8456 0.33312 0.01884 0.0
H1630 H 0.92369 0.28391 0.08199 0.0
H1631 H 0.95522 0.32687 0.07889 0.0
H1632 H 0.91393 0.3492 0.9993 0.0
C1633 C 0.83727 0.26115 0.01114 0.0
C1634 C 0.82794 0.24063 0.03094 0.0
C1635 C 0.84385 0.23653 0.05631 0.0
C1636 C 0.86921 0.25241 0.06161 0.0
C1637 C 0.87805 0.27231 0.0414 0.0
C1638 C 0.86223 0.27705 0.01693 0.0
C1639 C 0.87459 0.30154 0.99997 0.0
C1640 C 0.8849 0.29119 0.9704 0.0
C1641 C 0.85279 0.3257 0.99733 0.0
C1642 C 0.89955 0.31032 0.01901 0.0
C1643 C 0.90171 0.29277 0.04241 0.0
C1644 C 0.92236 0.29766 0.06365 0.0
C1645 C 0.94033 0.32194 0.06159 0.0
C1646 C 0.93698 0.34115 0.03879 0.0
C1647 C 0.91707 0.33465 0.01679 0.0
loop_
_geom_bond_atom_site_label_1
_geom_bond_atom_site_label_2
_geom_bond_distance
_geom_bond_site_symmetry_2
_ccdc_geom_bond_type
C0 O2 1.247 . S
C0 O4 1.258 1_455 S
C1 O8 1.247 . S
C1 O9 1.258 1_655 S
O2 C0 1.247 . S
O2 Zn3 2.028 . S
Zn3 O2 2.028 . S
Zn3 O7 2.035 . S
Zn3 O9 2.035 . S
Zn3 O10 2.028 . S
O4 C0 1.258 1_655 S
O4 Zn5 2.035 . S
Zn5 O4 2.035 . S
Zn5 O6 2.028 . S
Zn5 O8 2.028 . S
Zn5 O11 2.035 . S
O6 Zn5 2.028 . S
O6 C12 1.247 . S
O7 Zn3 2.035 . S
O7 C12 1.258 1_455 S
O8 C1 1.247 . S
O8 Zn5 2.028 . S
O9 C1 1.258 1_455 S
O9 Zn3 2.035 . S
O10 Zn3 2.028 . S
O10 C13 1.247 . S
O11 Zn5 2.035 . S
O11 C13 1.258 1_655 S
C12 O6 1.247 . S
C12 O7 1.258 1_655 S
C13 O10 1.247 . S
C13 O11 1.258 1_455 S
C14 O16 1.247 . S
C14 O18 1.258 . S
C15 O22 1.263 . S
C15 O23 1.258 . S
O16 C14 1.247 . S
O16 Zn17 2.028 . S
Zn17 O16 2.028 . S
Zn17 O21 2.035 . S
Zn17 O23 2.035 . S
Zn17 O24 2.028 . S
O18 C14 1.258 . S
O18 Zn19 2.028 1_455 S
Zn19 O18 2.028 1_655 S
Zn19 O20 2.026 1_655 S
Zn19 O22 2.026 1_655 S
Zn19 O25 2.028 1_655 S
O20 Zn19 2.026 1_455 S
O20 C26 1.275 . S
O21 Zn17 2.035 . S
O21 C26 1.258 . S
O22 C15 1.263 . S
O22 Zn19 2.026 1_455 S
O23 C15 1.258 . S
O23 Zn17 2.035 . S
O24 Zn17 2.028 . S
O24 C27 1.247 . S
O25 Zn19 2.028 1_455 S
O25 C27 1.258 . S
C26 O20 1.275 . S
C26 O21 1.258 . S
C27 O24 1.247 . S
C27 O25 1.258 . S
C28 O30 1.247 1_545 S
C28 O32 1.258 . S
C29 O36 1.247 1_565 S
C29 O37 1.258 . S
O30 C28 1.247 1_565 S
O30 Zn31 2.028 . S
Zn31 O30 2.028 . S
Zn31 O35 2.035 . S
Zn31 O37 2.035 . S
Zn31 O38 2.028 . S
O32 C28 1.258 . S
O32 Zn33 2.035 . S
Zn33 O32 2.035 . S
Zn33 O34 2.028 . S
Zn33 O36 2.028 . S
Zn33 O39 2.035 . S
O34 Zn33 2.028 . S
O34 C40 1.247 1_545 S
O35 Zn31 2.035 . S
O35 C40 1.258 . S
O36 C29 1.247 1_545 S
O36 Zn33 2.028 . S
O37 C29 1.258 . S
O37 Zn31 2.035 . S
O38 Zn31 2.028 . S
O38 C41 1.247 1_565 S
O39 Zn33 2.035 . S
O39 C41 1.258 . S
C40 O34 1.247 1_565 S
C40 O35 1.258 . S
C41 O38 1.247 1_545 S
C41 O39 1.258 . S
C42 O44 1.247 . S
C42 O46 1.258 . S
C43 O50 1.247 . S
C43 O51 1.258 . S
O44 C42 1.247 . S
O44 Zn45 2.028 . S
Zn45 O44 2.028 . S
Zn45 O49 2.035 . S
Zn45 O51 2.035 . S
Zn45 O52 2.028 . S
O46 C42 1.258 . S
O46 Zn47 2.035 . S
Zn47 O46 2.035 . S
Zn47 O48 2.028 . S
Zn47 O50 2.028 . S
Zn47 O53 2.035 . S
O48 Zn47 2.028 . S
O48 C54 1.247 . S
O49 Zn45 2.035 . S
O49 C54 1.258 . S
O50 C43 1.247 . S
O50 Zn47 2.028 . S
O51 C43 1.258 . S
O51 Zn45 2.035 . S
O52 Zn45 2.028 . S
O52 C55 1.247 . S
O53 Zn47 2.035 . S
O53 C55 1.258 . S
C54 O48 1.247 . S
C54 O49 1.258 . S
C55 O52 1.247 . S
C55 O53 1.258 . S
C56 O58 1.261 . S
C56 O60 1.258 . S
C57 O64 1.247 . S
C57 O65 1.258 1_554 S
O58 C56 1.261 . S
O58 Zn59 2.024 1_554 S
Zn59 O58 2.024 1_556 S
Zn59 O63 2.035 . S
Zn59 O65 2.035 . S
Zn59 O66 2.020 1_556 S
O60 C56 1.258 . S
O60 Zn61 2.035 . S
Zn61 O60 2.035 . S
Zn61 O62 2.028 . S
Zn61 O64 2.028 . S
Zn61 O67 2.035 . S
O62 Zn61 2.028 . S
O62 C68 1.247 . S
O63 Zn59 2.035 . S
O63 C68 1.258 1_556 S
O64 C57 1.247 . S
O64 Zn61 2.028 . S
O65 C57 1.258 1_556 S
O65 Zn59 2.035 . S
O66 Zn59 2.020 1_554 S
O66 C69 1.269 . S
O67 Zn61 2.035 . S
O67 C69 1.258 . S
C68 O62 1.247 . S
C68 O63 1.258 1_554 S
C69 O66 1.269 . S
C69 O67 1.258 . S
C70 O72 1.247 . S
C70 O74 1.258 . S
C71 O78 1.247 . S
C71 O79 1.258 . S
O72 C70 1.247 . S
O72 Zn73 2.028 . S
Zn73 O72 2.028 . S
Zn73 O77 2.035 . S
Zn73 O79 2.035 . S
Zn73 O80 2.028 . S
O74 C70 1.258 . S
O74 Zn75 2.035 . S
Zn75 O74 2.035 . S
Zn75 O76 2.028 . S
Zn75 O78 2.028 . S
Zn75 O81 2.035 . S
O76 Zn75 2.028 . S
O76 C82 1.247 . S
O77 Zn73 2.035 . S
O77 C82 1.258 . S
O78 C71 1.247 . S
O78 Zn75 2.028 . S
O79 C71 1.258 . S
O79 Zn73 2.035 . S
O80 Zn73 2.028 . S
O80 C83 1.247 . S
O81 Zn75 2.035 . S
O81 C83 1.258 . S
C82 O76 1.247 . S
C82 O77 1.258 . S
C83 O80 1.247 . S
C83 O81 1.258 . S
C84 O86 1.247 . S
C84 O88 1.258 . S
C85 O92 1.247 . S
C85 O93 1.258 . S
O86 C84 1.247 . S
O86 Zn87 2.028 . S
Zn87 O86 2.028 . S
Zn87 O91 2.035 . S
Zn87 O93 2.035 . S
Zn87 O94 2.028 . S
O88 C84 1.258 . S
O88 Zn89 2.035 . S
Zn89 O88 2.035 . S
Zn89 O90 2.028 . S
Zn89 O92 2.028 . S
Zn89 O95 2.035 . S
O90 Zn89 2.028 . S
O90 C96 1.247 . S
O91 Zn87 2.035 . S
O91 C96 1.258 . S
O92 C85 1.247 . S
O92 Zn89 2.028 . S
O93 C85 1.258 . S
O93 Zn87 2.035 . S
O94 Zn87 2.028 . S
O94 C97 1.247 . S
O95 Zn89 2.035 . S
O95 C97 1.258 . S
C96 O90 1.247 . S
C96 O91 1.258 . S
C97 O94 1.247 . S
C97 O95 1.258 . S
C98 O100 1.247 . S
C98 O102 1.258 . S
C99 O106 1.247 . S
C99 O107 1.258 . S
O100 C98 1.247 . S
O100 Zn101 2.028 . S
Zn101 O100 2.028 . S
Zn101 O105 2.035 . S
Zn101 O107 2.035 . S
Zn101 O108 2.028 . S
O102 C98 1.258 . S
O102 Zn103 2.035 . S
Zn103 O102 2.035 . S
Zn103 O104 2.028 . S
Zn103 O106 2.028 . S
Zn103 O109 2.035 . S
O104 Zn103 2.028 . S
O104 C110 1.247 . S
O105 Zn101 2.035 . S
O105 C110 1.258 . S
O106 C99 1.247 . S
O106 Zn103 2.028 . S
O107 C99 1.258 . S
O107 Zn101 2.035 . S
O108 Zn101 2.028 . S
O108 C111 1.247 . S
O109 Zn103 2.035 . S
O109 C111 1.258 . S
C110 O104 1.247 . S
C110 O105 1.258 . S
C111 O108 1.247 . S
C111 O109 1.258 . S
C112 O114 1.247 . S
C112 O116 1.258 . S
C113 O120 1.247 . S
C113 O121 1.258 . S
O114 C112 1.247 . S
O114 Zn115 2.028 . S
Zn115 O114 2.028 . S
Zn115 O119 2.035 . S
Zn115 O121 2.035 . S
Zn115 O122 2.028 . S
O116 C112 1.258 . S
O116 Zn117 2.035 . S
Zn117 O116 2.035 . S
Zn117 O118 2.028 . S
Zn117 O120 2.028 . S
Zn117 O123 2.035 . S
O118 Zn117 2.028 . S
O118 C124 1.247 . S
O119 Zn115 2.035 . S
O119 C124 1.258 . S
O120 C113 1.247 . S
O120 Zn117 2.028 . S
O121 C113 1.258 . S
O121 Zn115 2.035 . S
O122 Zn115 2.028 . S
O122 C125 1.247 . S
O123 Zn117 2.035 . S
O123 C125 1.258 . S
C124 O118 1.247 . S
C124 O119 1.258 . S
C125 O122 1.247 . S
C125 O123 1.258 . S
C126 O128 1.247 . S
C126 O130 1.258 . S
C127 O134 1.247 . S
C127 O135 1.258 . S
O128 C126 1.247 . S
O128 Zn129 2.028 . S
Zn129 O128 2.028 . S
Zn129 O133 2.035 . S
Zn129 O135 2.035 . S
Zn129 O136 2.028 . S
O130 C126 1.258 . S
O130 Zn131 2.035 . S
Zn131 O130 2.035 . S
Zn131 O132 2.028 . S
Zn131 O134 2.028 . S
Zn131 O137 2.035 . S
O132 Zn131 2.028 . S
O132 C138 1.247 . S
O133 Zn129 2.035 . S
O133 C138 1.258 . S
O134 C127 1.247 . S
O134 Zn131 2.028 . S
O135 C127 1.258 . S
O135 Zn129 2.035 . S
O136 Zn129 2.028 . S
O136 C139 1.247 . S
O137 Zn131 2.035 . S
O137 C139 1.258 . S
C138 O132 1.247 . S
C138 O133 1.258 . S
C139 O136 1.247 . S
C139 O137 1.258 . S
C140 O142 1.247 1_545 S
C140 O144 1.258 . S
C141 O148 1.247 . S
C141 O149 1.258 1_545 S
O142 C140 1.247 1_565 S
O142 Zn143 2.028 . S
Zn143 O142 2.028 . S
Zn143 O147 2.035 . S
Zn143 O149 2.035 . S
Zn143 O150 2.028 . S
O144 C140 1.258 . S
O144 Zn145 2.035 . S
Zn145 O144 2.035 . S
Zn145 O146 2.028 . S
Zn145 O148 2.028 . S
Zn145 O151 2.035 . S
O146 Zn145 2.028 . S
O146 C152 1.247 . S
O147 Zn143 2.035 . S
O147 C152 1.258 1_565 S
O148 C141 1.247 . S
O148 Zn145 2.028 . S
O149 C141 1.258 1_565 S
O149 Zn143 2.035 . S
O150 Zn143 2.028 . S
O150 C153 1.247 1_565 S
O151 Zn145 2.035 . S
O151 C153 1.258 . S
C152 O146 1.247 . S
C152 O147 1.258 1_545 S
C153 O150 1.247 1_545 S
C153 O151 1.258 . S
C154 O156 1.247 1_556 S
C154 O158 1.258 . S
C155 O162 1.247 1_554 S
C155 O163 1.258 . S
O156 C154 1.247 1_554 S
O156 Zn157 2.028 . S
Zn157 O156 2.028 . S
Zn157 O161 2.035 . S
Zn157 O163 2.035 . S
Zn157 O164 2.028 . S
O158 C154 1.258 . S
O158 Zn159 2.035 . S
Zn159 O158 2.035 . S
Zn159 O160 2.028 . S
Zn159 O162 2.028 . S
Zn159 O165 2.035 . S
O160 Zn159 2.028 . S
O160 C166 1.247 1_556 S
O161 Zn157 2.035 . S
O161 C166 1.258 . S
O162 C155 1.247 1_556 S
O162 Zn159 2.028 . S
O163 C155 1.258 . S
O163 Zn157 2.035 . S
O164 Zn157 2.028 . S
O164 C167 1.247 1_554 S
O165 Zn159 2.035 . S
O165 C167 1.258 . S
C166 O160 1.247 1_554 S
C166 O161 1.258 . S
C167 O164 1.247 1_556 S
C167 O165 1.258 . S
O168 Zn169 1.953 . S
O168 C184 1.225 . S
Zn169 O168 1.953 . S
Zn169 O170 1.949 . S
Zn169 O176 1.919 . S
Zn169 O181 1.924 1_545 S
O170 Zn169 1.949 . S
O170 Zn171 1.923 . S
O170 Zn172 1.950 . S
O170 Zn173 1.945 . S
Zn171 O170 1.923 . S
Zn171 O174 1.933 . S
Zn171 O177 1.941 . S
Zn171 O178 1.965 . S
Zn172 O170 1.950 . S
Zn172 O179 1.938 . S
Zn172 O180 1.906 1_554 S
Zn172 O190 1.953 . S
Zn173 O170 1.945 . S
Zn173 O175 1.932 . S
Zn173 O182 1.977 1_554 S
Zn173 O183 1.910 1_545 S
O174 Zn171 1.933 . S
O174 C185 1.226 1_455 S
O175 Zn173 1.932 . S
O175 C185 1.307 1_455 S
O176 Zn169 1.919 . S
O176 C187 1.253 . S
O177 Zn171 1.941 . S
O177 C187 1.283 . S
O178 Zn171 1.965 . S
O178 C186 1.303 . S
O179 Zn172 1.938 . S
O179 C186 1.247 . S
O180 Zn172 1.906 1_556 S
O180 C188 1.304 . S
O181 Zn169 1.924 1_565 S
O181 C189 1.311 . S
O182 Zn173 1.977 1_556 S
O182 C188 1.272 . S
O183 Zn173 1.910 1_565 S
O183 C189 1.231 . S
C184 O168 1.225 . S
C184 O190 1.298 . S
C185 O174 1.226 1_655 S
C185 O175 1.307 1_655 S
C186 O178 1.303 . S
C186 O179 1.247 . S
C187 O176 1.253 . S
C187 O177 1.283 . S
C188 O180 1.304 . S
C188 O182 1.272 . S
C189 O181 1.311 . S
C189 O183 1.231 . S
O190 Zn172 1.953 . S
O190 C184 1.298 . S
O191 Zn192 1.953 . S
O191 C207 1.225 . S
Zn192 O191 1.953 . S
Zn192 O193 1.949 . S
Zn192 O199 1.919 . S
Zn192 O204 1.924 . S
O193 Zn192 1.949 . S
O193 Zn194 1.923 . S
O193 Zn195 1.950 . S
O193 Zn196 1.945 . S
Zn194 O193 1.923 . S
Zn194 O197 1.933 1_655 S
Zn194 O200 1.941 . S
Zn194 O201 1.965 . S
Zn195 O193 1.950 . S
Zn195 O202 1.938 . S
Zn195 O203 1.906 1_554 S
Zn195 O213 1.953 . S
Zn196 O193 1.945 . S
Zn196 O198 1.932 1_655 S
Zn196 O205 1.977 1_554 S
Zn196 O206 1.910 1_655 S
O197 Zn194 1.933 1_455 S
O197 C208 1.226 . S
O198 Zn196 1.932 1_455 S
O198 C208 1.307 . S
O199 Zn192 1.919 . S
O199 C210 1.253 . S
O200 Zn194 1.941 . S
O200 C210 1.283 . S
O201 Zn194 1.965 . S
O201 C209 1.303 . S
O202 Zn195 1.938 . S
O202 C209 1.247 . S
O203 Zn195 1.906 1_556 S
O203 C211 1.304 . S
O204 Zn192 1.924 . S
O204 C212 1.311 . S
O205 Zn196 1.977 1_556 S
O205 C211 1.272 . S
O206 Zn196 1.910 1_455 S
O206 C212 1.231 1_455 S
C207 O191 1.225 . S
C207 O213 1.298 . S
C208 O197 1.226 . S
C208 O198 1.307 . S
C209 O201 1.303 . S
C209 O202 1.247 . S
C210 O199 1.253 . S
C210 O200 1.283 . S
C211 O203 1.304 . S
C211 O205 1.272 . S
C212 O204 1.311 . S
C212 O206 1.231 1_655 S
O213 Zn195 1.953 . S
O213 C207 1.298 . S
O214 Zn215 1.953 . S
O214 C230 1.225 . S
Zn215 O214 1.953 . S
Zn215 O216 1.949 . S
Zn215 O222 1.919 . S
Zn215 O227 1.924 . S
O216 Zn215 1.949 . S
O216 Zn217 1.923 . S
O216 Zn218 1.950 . S
O216 Zn219 1.945 . S
Zn217 O216 1.923 . S
Zn217 O220 1.941 . S
Zn217 O223 1.941 . S
Zn217 O224 1.965 . S
Zn218 O216 1.950 . S
Zn218 O225 1.938 . S
Zn218 O226 1.906 . S
Zn218 O236 1.953 . S
Zn219 O216 1.945 . S
Zn219 O221 1.932 1_565 S
Zn219 O228 1.977 . S
Zn219 O229 1.910 . S
O220 Zn217 1.941 . S
O220 C231 1.222 1_565 S
O221 Zn219 1.932 1_545 S
O221 C231 1.307 . S
O222 Zn215 1.919 . S
O222 C233 1.253 . S
O223 Zn217 1.941 . S
O223 C233 1.283 . S
O224 Zn217 1.965 . S
O224 C232 1.303 . S
O225 Zn218 1.938 . S
O225 C232 1.247 . S
O226 Zn218 1.906 . S
O226 C234 1.291 1_455 S
O227 Zn215 1.924 . S
O227 C235 1.311 . S
O228 Zn219 1.977 . S
O228 C234 1.257 1_455 S
O229 Zn219 1.910 . S
O229 C235 1.231 . S
C230 O214 1.225 . S
C230 O236 1.298 . S
C231 O220 1.222 1_545 S
C231 O221 1.307 . S
C232 O224 1.303 . S
C232 O225 1.247 . S
C233 O222 1.253 . S
C233 O223 1.283 . S
C234 O226 1.291 1_655 S
C234 O228 1.257 1_655 S
C235 O227 1.311 . S
C235 O229 1.231 . S
O236 Zn218 1.953 . S
O236 C230 1.298 . S
O237 Zn238 1.953 . S
O237 C253 1.225 . S
Zn238 O237 1.953 . S
Zn238 O239 1.949 . S
Zn238 O245 1.919 . S
Zn238 O250 1.924 1_655 S
O239 Zn238 1.949 . S
O239 Zn240 1.923 . S
O239 Zn241 1.950 . S
O239 Zn242 1.945 . S
Zn240 O239 1.923 . S
Zn240 O243 1.933 . S
Zn240 O246 1.941 . S
Zn240 O247 1.965 . S
Zn241 O239 1.950 . S
Zn241 O248 1.938 . S
Zn241 O249 1.906 . S
Zn241 O259 1.953 . S
Zn242 O239 1.945 . S
Zn242 O244 1.932 . S
Zn242 O251 1.966 1_655 S
Zn242 O252 1.910 1_655 S
O243 Zn240 1.933 . S
O243 C254 1.226 . S
O244 Zn242 1.932 . S
O244 C254 1.307 . S
O245 Zn238 1.919 . S
O245 C256 1.253 . S
O246 Zn240 1.941 . S
O246 C256 1.283 . S
O247 Zn240 1.965 . S
O247 C255 1.303 . S
O248 Zn241 1.938 . S
O248 C255 1.247 . S
O249 Zn241 1.906 . S
O249 C257 1.304 . S
O250 Zn238 1.924 1_455 S
O250 C258 1.311 . S
O251 Zn242 1.966 1_455 S
O251 C257 1.261 1_455 S
O252 Zn242 1.910 1_455 S
O252 C258 1.231 . S
C253 O237 1.225 . S
C253 O259 1.298 . S
C254 O243 1.226 . S
C254 O244 1.307 . S
C255 O247 1.303 . S
C255 O248 1.247 . S
C256 O245 1.253 . S
C256 O246 1.283 . S
C257 O249 1.304 . S
C257 O251 1.261 1_655 S
C258 O250 1.311 . S
C258 O252 1.231 . S
O259 Zn241 1.953 . S
O259 C253 1.298 . S
O260 Zn261 1.953 . S
O260 C276 1.225 . S
Zn261 O260 1.953 . S
Zn261 O262 1.949 . S
Zn261 O268 1.919 . S
Zn261 O273 1.924 . S
O262 Zn261 1.949 . S
O262 Zn263 1.923 . S
O262 Zn264 1.950 . S
O262 Zn265 1.945 . S
Zn263 O262 1.923 . S
Zn263 O266 1.933 . S
Zn263 O269 1.941 . S
Zn263 O270 1.965 . S
Zn264 O262 1.950 . S
Zn264 O271 1.938 . S
Zn264 O272 1.906 . S
Zn264 O282 1.953 . S
Zn265 O262 1.945 . S
Zn265 O267 1.932 . S
Zn265 O274 1.977 . S
Zn265 O275 1.910 1_565 S
O266 Zn263 1.933 . S
O266 C277 1.226 . S
O267 Zn265 1.932 . S
O267 C277 1.307 . S
O268 Zn261 1.919 . S
O268 C279 1.253 . S
O269 Zn263 1.941 . S
O269 C279 1.283 . S
O270 Zn263 1.965 . S
O270 C278 1.303 . S
O271 Zn264 1.938 . S
O271 C278 1.247 . S
O272 Zn264 1.906 . S
O272 C280 1.304 . S
O273 Zn261 1.924 . S
O273 C281 1.311 1_565 S
O274 Zn265 1.977 . S
O274 C280 1.272 . S
O275 Zn265 1.910 1_545 S
O275 C281 1.231 . S
C276 O260 1.225 . S
C276 O282 1.298 . S
C277 O266 1.226 . S
C277 O267 1.307 . S
C278 O270 1.303 . S
C278 O271 1.247 . S
C279 O268 1.253 . S
C279 O269 1.283 . S
C280 O272 1.304 . S
C280 O274 1.272 . S
C281 O273 1.311 1_545 S
C281 O275 1.231 . S
O282 Zn264 1.953 . S
O282 C276 1.298 . S
O283 Zn284 1.953 . S
O283 C299 1.225 . S
Zn284 O283 1.953 . S
Zn284 O285 1.949 . S
Zn284 O291 1.919 . S
Zn284 O296 1.924 . S
O285 Zn284 1.949 . S
O285 Zn286 1.923 . S
O285 Zn287 1.950 . S
O285 Zn288 1.945 . S
Zn286 O285 1.923 . S
Zn286 O289 1.933 . S
Zn286 O292 1.941 . S
Zn286 O293 1.965 . S
Zn287 O285 1.950 . S
Zn287 O294 1.938 . S
Zn287 O295 1.906 . S
Zn287 O305 1.953 . S
Zn288 O285 1.945 . S
Zn288 O290 1.932 . S
Zn288 O297 1.977 . S
Zn288 O298 1.910 . S
O289 Zn286 1.933 . S
O289 C300 1.226 . S
O290 Zn288 1.932 . S
O290 C300 1.307 . S
O291 Zn284 1.919 . S
O291 C302 1.253 . S
O292 Zn286 1.941 . S
O292 C302 1.283 . S
O293 Zn286 1.965 . S
O293 C301 1.303 . S
O294 Zn287 1.938 . S
O294 C301 1.247 . S
O295 Zn287 1.906 . S
O295 C303 1.304 . S
O296 Zn284 1.924 . S
O296 C304 1.311 . S
O297 Zn288 1.977 . S
O297 C303 1.272 . S
O298 Zn288 1.910 . S
O298 C304 1.231 . S
C299 O283 1.225 . S
C299 O305 1.298 . S
C300 O289 1.226 . S
C300 O290 1.307 . S
C301 O293 1.303 . S
C301 O294 1.247 . S
C302 O291 1.253 . S
C302 O292 1.283 . S
C303 O295 1.304 . S
C303 O297 1.272 . S
C304 O296 1.311 . S
C304 O298 1.231 . S
O305 Zn287 1.953 . S
O305 C299 1.298 . S
O306 Zn307 1.953 . S
O306 C322 1.225 . S
Zn307 O306 1.953 . S
Zn307 O308 1.949 . S
Zn307 O314 1.919 . S
Zn307 O319 1.924 . S
O308 Zn307 1.949 . S
O308 Zn309 1.923 . S
O308 Zn310 1.950 . S
O308 Zn311 1.945 . S
Zn309 O308 1.923 . S
Zn309 O312 1.933 . S
Zn309 O315 1.941 . S
Zn309 O316 1.965 . S
Zn310 O308 1.950 . S
Zn310 O317 1.938 . S
Zn310 O318 1.906 . S
Zn310 O328 1.953 . S
Zn311 O308 1.945 . S
Zn311 O313 1.932 . S
Zn311 O320 1.977 . S
Zn311 O321 1.910 1_556 S
O312 Zn309 1.933 . S
O312 C323 1.226 . S
O313 Zn311 1.932 . S
O313 C323 1.307 . S
O314 Zn307 1.919 . S
O314 C325 1.253 . S
O315 Zn309 1.941 . S
O315 C325 1.283 . S
O316 Zn309 1.965 . S
O316 C324 1.303 . S
O317 Zn310 1.938 . S
O317 C324 1.247 . S
O318 Zn310 1.906 . S
O318 C326 1.304 . S
O319 Zn307 1.924 . S
O319 C327 1.311 1_556 S
O320 Zn311 1.977 . S
O320 C326 1.272 . S
O321 Zn311 1.910 1_554 S
O321 C327 1.231 . S
C322 O306 1.225 . S
C322 O328 1.298 . S
C323 O312 1.226 . S
C323 O313 1.307 . S
C324 O316 1.303 . S
C324 O317 1.247 . S
C325 O314 1.253 . S
C325 O315 1.283 . S
C326 O318 1.304 . S
C326 O320 1.272 . S
C327 O319 1.311 1_554 S
C327 O321 1.231 . S
O328 Zn310 1.953 . S
O328 C322 1.298 . S
O329 Zn330 1.953 . S
O329 C345 1.225 . S
Zn330 O329 1.953 . S
Zn330 O331 1.949 . S
Zn330 O337 1.919 . S
Zn330 O342 1.924 . S
O331 Zn330 1.949 . S
O331 Zn332 1.923 . S
O331 Zn333 1.950 . S
O331 Zn334 1.945 . S
Zn332 O331 1.923 . S
Zn332 O335 1.937 1_556 S
Zn332 O338 1.941 . S
Zn332 O339 1.965 . S
Zn333 O331 1.950 . S
Zn333 O340 1.938 . S
Zn333 O341 1.906 1_545 S
Zn333 O351 1.953 . S
Zn334 O331 1.945 . S
Zn334 O336 1.932 1_556 S
Zn334 O343 1.977 1_545 S
Zn334 O344 1.910 . S
O335 Zn332 1.937 1_554 S
O335 C346 1.224 . S
O336 Zn334 1.932 1_554 S
O336 C346 1.307 . S
O337 Zn330 1.919 . S
O337 C348 1.253 . S
O338 Zn332 1.941 . S
O338 C348 1.283 . S
O339 Zn332 1.965 . S
O339 C347 1.303 . S
O340 Zn333 1.938 . S
O340 C347 1.247 . S
O341 Zn333 1.906 1_565 S
O341 C349 1.304 . S
O342 Zn330 1.924 . S
O342 C350 1.311 . S
O343 Zn334 1.977 1_565 S
O343 C349 1.272 . S
O344 Zn334 1.910 . S
O344 C350 1.231 . S
C345 O329 1.225 . S
C345 O351 1.298 . S
C346 O335 1.224 . S
C346 O336 1.307 . S
C347 O339 1.303 . S
C347 O340 1.247 . S
C348 O337 1.253 . S
C348 O338 1.283 . S
C349 O341 1.304 . S
C349 O343 1.272 . S
C350 O342 1.311 . S
C350 O344 1.231 . S
O351 Zn333 1.953 . S
O351 C345 1.298 . S
H352 C364 0.931 1_655 S
H353 C366 0.930 . S
H354 C367 0.930 . S
H355 C371 0.959 . S
H356 C371 0.959 . S
H357 C371 0.961 . S
H358 C372 0.960 . S
H359 C372 0.961 . S
H360 C372 0.959 . S
H361 C375 0.929 . S
H362 C376 0.931 . S
H363 C378 0.930 . S
C364 H352 0.931 1_455 S
C364 C365 1.399 . S
C364 C369 1.399 . S
C365 C364 1.399 . S
C365 C366 1.376 . S
C366 H353 0.930 . S
C366 C365 1.376 . S
C366 C367 1.388 . S
C367 H354 0.930 . S
C367 C366 1.388 . S
C367 C368 1.390 . S
C368 C367 1.390 . S
C368 C369 1.394 . S
C368 C374 1.465 . S
C369 C364 1.399 . S
C369 C368 1.394 . S
C369 C370 1.516 . S
C370 C369 1.516 . S
C370 C371 1.502 1_455 S
C370 C372 1.561 . S
C370 C373 1.526 . S
C371 H355 0.959 . S
C371 H356 0.959 . S
C371 H357 0.961 . S
C371 C370 1.502 1_655 S
C372 H358 0.960 . S
C372 H359 0.961 . S
C372 H360 0.959 . S
C372 C370 1.561 . S
C373 C370 1.526 . S
C373 C374 1.396 . S
C373 C378 1.390 . S
C374 C368 1.465 . S
C374 C373 1.396 . S
C374 C375 1.399 . S
C375 H361 0.929 . S
C375 C374 1.399 . S
C375 C376 1.385 . S
C376 H362 0.931 . S
C376 C375 1.385 . S
C376 C377 1.389 . S
C377 C376 1.389 . S
C377 C378 1.387 . S
C378 H363 0.930 . S
C378 C373 1.390 . S
C378 C377 1.387 . S
H379 C391 0.930 . S
H380 C393 0.930 . S
H381 C394 0.930 . S
H382 C398 0.959 . S
H383 C398 0.959 . S
H384 C398 0.961 . S
H385 C399 0.960 . S
H386 C399 0.961 . S
H387 C399 0.959 . S
H388 C402 0.929 . S
H389 C403 0.931 . S
H390 C405 0.930 . S
C391 H379 0.930 . S
C391 C392 1.399 . S
C391 C396 1.399 . S
C392 C391 1.399 . S
C392 C393 1.376 . S
C393 H380 0.930 . S
C393 C392 1.376 . S
C393 C394 1.388 . S
C394 H381 0.930 . S
C394 C393 1.388 . S
C394 C395 1.390 . S
C395 C394 1.390 . S
C395 C396 1.394 . S
C395 C401 1.465 . S
C396 C391 1.399 . S
C396 C395 1.394 . S
C396 C397 1.516 . S
C397 C396 1.516 . S
C397 C398 1.502 1_655 S
C397 C399 1.561 . S
C397 C400 1.526 . S
C398 H382 0.959 . S
C398 H383 0.959 . S
C398 H384 0.961 . S
C398 C397 1.502 1_455 S
C399 H385 0.960 . S
C399 H386 0.961 . S
C399 H387 0.959 . S
C399 C397 1.561 . S
C400 C397 1.526 . S
C400 C401 1.396 . S
C400 C405 1.390 . S
C401 C395 1.465 . S
C401 C400 1.396 . S
C401 C402 1.399 . S
C402 H388 0.929 . S
C402 C401 1.399 . S
C402 C403 1.385 . S
C403 H389 0.931 . S
C403 C402 1.385 . S
C403 C404 1.389 . S
C404 C403 1.389 . S
C404 C405 1.387 . S
C405 H390 0.930 . S
C405 C400 1.390 . S
C405 C404 1.387 . S
H406 C418 0.930 . S
H407 C420 0.930 . S
H408 C421 0.930 . S
H409 C425 0.959 . S
H410 C425 0.959 . S
H411 C425 0.961 . S
H412 C426 0.960 . S
H413 C426 0.961 . S
H414 C426 0.959 . S
H415 C429 0.929 . S
H416 C430 0.931 . S
H417 C432 0.930 . S
C418 H406 0.930 . S
C418 C419 1.399 . S
C418 C423 1.399 . S
C419 C418 1.399 . S
C419 C420 1.376 . S
C420 H407 0.930 . S
C420 C419 1.376 . S
C420 C421 1.388 . S
C421 H408 0.930 . S
C421 C420 1.388 . S
C421 C422 1.390 . S
C422 C421 1.390 . S
C422 C423 1.394 . S
C422 C428 1.465 . S
C423 C418 1.399 . S
C423 C422 1.394 . S
C423 C424 1.516 . S
C424 C423 1.516 . S
C424 C425 1.502 . S
C424 C426 1.561 . S
C424 C427 1.526 . S
C425 H409 0.959 . S
C425 H410 0.959 . S
C425 H411 0.961 . S
C425 C424 1.502 . S
C426 H412 0.960 . S
C426 H413 0.961 . S
C426 H414 0.959 . S
C426 C424 1.561 . S
C427 C424 1.526 . S
C427 C428 1.396 . S
C427 C432 1.390 . S
C428 C422 1.465 . S
C428 C427 1.396 . S
C428 C429 1.399 . S
C429 H415 0.929 . S
C429 C428 1.399 . S
C429 C430 1.385 . S
C430 H416 0.931 . S
C430 C429 1.385 . S
C430 C431 1.389 . S
C431 C430 1.389 . S
C431 C432 1.387 . S
C432 H417 0.930 . S
C432 C427 1.390 . S
C432 C431 1.387 . S
H433 C445 0.930 . S
H434 C447 0.931 . S
H435 C448 0.930 . S
H436 C452 0.959 1_655 S
H437 C452 0.959 . S
H438 C452 0.961 . S
H439 C453 0.960 . S
H440 C453 0.961 . S
H441 C453 0.959 . S
H442 C456 0.929 . S
H443 C457 0.931 . S
H444 C459 0.930 . S
C445 H433 0.930 . S
C445 C446 1.399 . S
C445 C450 1.399 . S
C446 C445 1.399 . S
C446 C447 1.376 . S
C447 H434 0.931 . S
C447 C446 1.376 . S
C447 C448 1.388 1_455 S
C448 H435 0.930 . S
C448 C447 1.388 1_655 S
C448 C449 1.390 1_655 S
C449 C448 1.390 1_455 S
C449 C450 1.394 . S
C449 C455 1.465 1_455 S
C450 C445 1.399 . S
C450 C449 1.394 . S
C450 C451 1.516 . S
C451 C450 1.516 . S
C451 C452 1.502 . S
C451 C453 1.561 . S
C451 C454 1.526 . S
C452 H436 0.959 1_455 S
C452 H437 0.959 . S
C452 H438 0.961 . S
C452 C451 1.502 . S
C453 H439 0.960 . S
C453 H440 0.961 . S
C453 H441 0.959 . S
C453 C451 1.561 . S
C454 C451 1.526 . S
C454 C455 1.395 1_455 S
C454 C459 1.390 . S
C455 C449 1.465 1_655 S
C455 C454 1.395 1_655 S
C455 C456 1.400 . S
C456 H442 0.929 . S
C456 C455 1.400 . S
C456 C457 1.385 . S
C457 H443 0.931 . S
C457 C456 1.385 . S
C457 C458 1.389 . S
C458 C457 1.389 . S
C458 C459 1.387 1_655 S
C459 H444 0.930 . S
C459 C454 1.390 . S
C459 C458 1.387 1_455 S
H460 C472 0.930 . S
H461 C474 0.930 . S
H462 C475 0.930 . S
H463 C479 0.959 . S
H464 C479 0.959 . S
H465 C479 0.961 . S
H466 C480 0.960 . S
H467 C480 0.961 . S
H468 C480 0.959 . S
H469 C483 0.929 . S
H470 C484 0.931 . S
H471 C486 0.930 . S
C472 H460 0.930 . S
C472 C473 1.399 1_565 S
C472 C477 1.406 . S
C473 C472 1.399 1_545 S
C473 C474 1.376 . S
C474 H461 0.930 . S
C474 C473 1.376 . S
C474 C475 1.388 . S
C475 H462 0.930 . S
C475 C474 1.388 . S
C475 C476 1.390 . S
C476 C475 1.390 . S
C476 C477 1.363 1_545 S
C476 C482 1.465 . S
C477 C472 1.406 . S
C477 C476 1.363 1_565 S
C477 C478 1.537 . S
C478 C477 1.537 . S
C478 C479 1.502 . S
C478 C480 1.561 . S
C478 C481 1.534 . S
C479 H463 0.959 . S
C479 H464 0.959 . S
C479 H465 0.961 . S
C479 C478 1.502 . S
C480 H466 0.960 . S
C480 H467 0.961 . S
C480 H468 0.959 . S
C480 C478 1.561 . S
C481 C478 1.534 . S
C481 C482 1.385 1_565 S
C481 C486 1.392 . S
C482 C476 1.465 . S
C482 C481 1.385 1_545 S
C482 C483 1.399 . S
C483 H469 0.929 . S
C483 C482 1.399 . S
C483 C484 1.385 . S
C484 H470 0.931 . S
C484 C483 1.385 . S
C484 C485 1.389 . S
C485 C484 1.389 . S
C485 C486 1.387 1_545 S
C486 H471 0.930 . S
C486 C481 1.392 . S
C486 C485 1.387 1_565 S
H487 C499 0.930 . S
H488 C501 0.930 . S
H489 C502 0.930 . S
H490 C506 0.959 . S
H491 C506 0.959 . S
H492 C506 0.961 . S
H493 C507 0.960 . S
H494 C507 0.961 . S
H495 C507 0.959 . S
H496 C510 0.929 . S
H497 C511 0.931 . S
H498 C513 0.930 . S
C499 H487 0.930 . S
C499 C500 1.399 . S
C499 C504 1.399 . S
C500 C499 1.399 . S
C500 C501 1.376 . S
C501 H488 0.930 . S
C501 C500 1.376 . S
C501 C502 1.388 . S
C502 H489 0.930 . S
C502 C501 1.388 . S
C502 C503 1.390 . S
C503 C502 1.390 . S
C503 C504 1.394 . S
C503 C509 1.465 . S
C504 C499 1.399 . S
C504 C503 1.394 . S
C504 C505 1.516 . S
C505 C504 1.516 . S
C505 C506 1.502 . S
C505 C507 1.561 . S
C505 C508 1.526 . S
C506 H490 0.959 . S
C506 H491 0.959 . S
C506 H492 0.961 . S
C506 C505 1.502 . S
C507 H493 0.960 . S
C507 H494 0.961 . S
C507 H495 0.959 . S
C507 C505 1.561 . S
C508 C505 1.526 . S
C508 C509 1.396 . S
C508 C513 1.390 . S
C509 C503 1.465 . S
C509 C508 1.396 . S
C509 C510 1.399 . S
C510 H496 0.929 . S
C510 C509 1.399 . S
C510 C511 1.385 . S
C511 H497 0.931 . S
C511 C510 1.385 . S
C511 C512 1.389 . S
C512 C511 1.389 . S
C512 C513 1.387 . S
C513 H498 0.930 . S
C513 C508 1.390 . S
C513 C512 1.387 . S
H514 C526 0.930 . S
H515 C528 0.930 . S
H516 C529 0.930 . S
H517 C533 0.959 . S
H518 C533 0.959 . S
H519 C533 0.961 . S
H520 C534 0.960 . S
H521 C534 0.961 . S
H522 C534 0.959 . S
H523 C537 0.929 . S
H524 C538 0.931 . S
H525 C540 0.930 . S
C526 H514 0.930 . S
C526 C527 1.399 1_545 S
C526 C531 1.399 . S
C527 C526 1.399 1_565 S
C527 C528 1.376 . S
C528 H515 0.930 . S
C528 C527 1.376 . S
C528 C529 1.388 . S
C529 H516 0.930 . S
C529 C528 1.388 . S
C529 C530 1.390 . S
C530 C529 1.390 . S
C530 C531 1.394 1_565 S
C530 C536 1.465 . S
C531 C526 1.399 . S
C531 C530 1.394 1_545 S
C531 C532 1.516 . S
C532 C531 1.516 . S
C532 C533 1.502 . S
C532 C534 1.561 . S
C532 C535 1.526 1_545 S
C533 H517 0.959 . S
C533 H518 0.959 . S
C533 H519 0.961 . S
C533 C532 1.502 . S
C534 H520 0.960 . S
C534 H521 0.961 . S
C534 H522 0.959 . S
C534 C532 1.561 . S
C535 C532 1.526 1_565 S
C535 C536 1.396 . S
C535 C540 1.390 1_565 S
C536 C530 1.465 . S
C536 C535 1.396 . S
C536 C537 1.399 . S
C537 H523 0.929 . S
C537 C536 1.399 . S
C537 C538 1.385 . S
C538 H524 0.931 . S
C538 C537 1.385 . S
C538 C539 1.389 . S
C539 C538 1.389 . S
C539 C540 1.387 1_565 S
C540 H525 0.930 . S
C540 C535 1.390 1_545 S
C540 C539 1.387 1_545 S
H541 C553 0.930 . S
H542 C555 0.930 . S
H543 C556 0.930 . S
H544 C560 0.959 . S
H545 C560 0.959 . S
H546 C560 0.961 . S
H547 C561 0.960 . S
H548 C561 0.961 . S
H549 C561 0.959 . S
H550 C564 0.929 . S
H551 C565 0.931 . S
H552 C567 0.930 . S
C553 H541 0.930 . S
C553 C554 1.399 . S
C553 C558 1.399 . S
C554 C553 1.399 . S
C554 C555 1.376 . S
C555 H542 0.930 . S
C555 C554 1.376 . S
C555 C556 1.388 . S
C556 H543 0.930 . S
C556 C555 1.388 . S
C556 C557 1.390 . S
C557 C556 1.390 . S
C557 C558 1.394 . S
C557 C563 1.465 . S
C558 C553 1.399 . S
C558 C557 1.394 . S
C558 C559 1.516 . S
C559 C558 1.516 . S
C559 C560 1.502 . S
C559 C561 1.561 . S
C559 C562 1.526 . S
C560 H544 0.959 . S
C560 H545 0.959 . S
C560 H546 0.961 . S
C560 C559 1.502 . S
C561 H547 0.960 . S
C561 H548 0.961 . S
C561 H549 0.959 . S
C561 C559 1.561 . S
C562 C559 1.526 . S
C562 C563 1.396 . S
C562 C567 1.390 . S
C563 C557 1.465 . S
C563 C562 1.396 . S
C563 C564 1.399 . S
C564 H550 0.929 . S
C564 C563 1.399 . S
C564 C565 1.385 . S
C565 H551 0.931 . S
C565 C564 1.385 . S
C565 C566 1.389 . S
C566 C565 1.389 . S
C566 C567 1.387 . S
C567 H552 0.930 . S
C567 C562 1.390 . S
C567 C566 1.387 . S
H568 C580 0.930 . S
H569 C582 0.930 . S
H570 C583 0.930 . S
H571 C587 0.959 . S
H572 C587 0.959 . S
H573 C587 0.961 . S
H574 C588 0.960 . S
H575 C588 0.961 . S
H576 C588 0.959 . S
H577 C591 0.929 . S
H578 C592 0.931 . S
H579 C594 0.930 . S
C580 H568 0.930 . S
C580 C581 1.399 . S
C580 C585 1.399 . S
C581 C580 1.399 . S
C581 C582 1.376 1_554 S
C582 H569 0.930 . S
C582 C581 1.376 1_556 S
C582 C583 1.388 . S
C583 H570 0.930 . S
C583 C582 1.388 . S
C583 C584 1.390 1_556 S
C584 C583 1.390 1_554 S
C584 C585 1.394 . S
C584 C590 1.465 . S
C585 C580 1.399 . S
C585 C584 1.394 . S
C585 C586 1.516 . S
C586 C585 1.516 . S
C586 C587 1.502 . S
C586 C588 1.561 . S
C586 C589 1.526 . S
C587 H571 0.959 . S
C587 H572 0.959 . S
C587 H573 0.961 . S
C587 C586 1.502 . S
C588 H574 0.960 . S
C588 H575 0.961 . S
C588 H576 0.959 . S
C588 C586 1.561 . S
C589 C586 1.526 . S
C589 C590 1.396 . S
C589 C594 1.390 . S
C590 C584 1.465 . S
C590 C589 1.396 . S
C590 C591 1.399 1_554 S
C591 H577 0.929 . S
C591 C590 1.399 1_556 S
C591 C592 1.385 . S
C592 H578 0.931 . S
C592 C591 1.385 . S
C592 C593 1.389 1_556 S
C593 C592 1.389 1_554 S
C593 C594 1.387 . S
C594 H579 0.930 . S
C594 C589 1.390 . S
C594 C593 1.387 . S
H595 C607 0.930 . S
H596 C609 0.930 . S
H597 C610 0.930 . S
H598 C614 0.959 . S
H599 C614 0.959 . S
H600 C614 0.961 . S
H601 C615 0.960 . S
H602 C615 0.961 . S
H603 C615 0.959 . S
H604 C618 0.929 . S
H605 C619 0.931 . S
H606 C621 0.930 . S
C607 H595 0.930 . S
C607 C608 1.399 . S
C607 C612 1.399 . S
C608 C607 1.399 . S
C608 C609 1.376 . S
C609 H596 0.930 . S
C609 C608 1.376 . S
C609 C610 1.388 . S
C610 H597 0.930 . S
C610 C609 1.388 . S
C610 C611 1.390 . S
C611 C610 1.390 . S
C611 C612 1.394 . S
C611 C617 1.465 . S
C612 C607 1.399 . S
C612 C611 1.394 . S
C612 C613 1.516 . S
C613 C612 1.516 . S
C613 C614 1.502 . S
C613 C615 1.561 . S
C613 C616 1.526 . S
C614 H598 0.959 . S
C614 H599 0.959 . S
C614 H600 0.961 . S
C614 C613 1.502 . S
C615 H601 0.960 . S
C615 H602 0.961 . S
C615 H603 0.959 . S
C615 C613 1.561 . S
C616 C613 1.526 . S
C616 C617 1.396 . S
C616 C621 1.390 . S
C617 C611 1.465 . S
C617 C616 1.396 . S
C617 C618 1.399 . S
C618 H604 0.929 . S
C618 C617 1.399 . S
C618 C619 1.385 . S
C619 H605 0.931 . S
C619 C618 1.385 . S
C619 C620 1.389 . S
C620 C619 1.389 . S
C620 C621 1.387 . S
C621 H606 0.930 . S
C621 C616 1.390 . S
C621 C620 1.387 . S
H622 C634 0.930 . S
H623 C636 0.930 . S
H624 C637 0.930 . S
H625 C641 0.959 . S
H626 C641 0.959 . S
H627 C641 0.961 . S
H628 C642 0.960 . S
H629 C642 0.961 . S
H630 C642 0.959 . S
H631 C645 0.929 . S
H632 C646 0.931 . S
H633 C648 0.930 . S
C634 H622 0.930 . S
C634 C635 1.399 . S
C634 C639 1.399 . S
C635 C634 1.399 . S
C635 C636 1.376 . S
C636 H623 0.930 . S
C636 C635 1.376 . S
C636 C637 1.388 . S
C637 H624 0.930 . S
C637 C636 1.388 . S
C637 C638 1.390 . S
C638 C637 1.390 . S
C638 C639 1.394 . S
C638 C644 1.465 . S
C639 C634 1.399 . S
C639 C638 1.394 . S
C639 C640 1.516 . S
C640 C639 1.516 . S
C640 C641 1.502 . S
C640 C642 1.561 . S
C640 C643 1.526 . S
C641 H625 0.959 . S
C641 H626 0.959 . S
C641 H627 0.961 . S
C641 C640 1.502 . S
C642 H628 0.960 . S
C642 H629 0.961 . S
C642 H630 0.959 . S
C642 C640 1.561 . S
C643 C640 1.526 . S
C643 C644 1.396 . S
C643 C648 1.390 . S
C644 C638 1.465 . S
C644 C643 1.396 . S
C644 C645 1.399 . S
C645 H631 0.929 . S
C645 C644 1.399 . S
C645 C646 1.385 . S
C646 H632 0.931 . S
C646 C645 1.385 . S
C646 C647 1.389 . S
C647 C646 1.389 . S
C647 C648 1.387 . S
C648 H633 0.930 . S
C648 C643 1.390 . S
C648 C647 1.387 . S
H649 C661 0.930 . S
H650 C663 0.930 . S
H651 C664 0.930 . S
H652 C668 0.959 . S
H653 C668 0.959 . S
H654 C668 0.961 . S
H655 C669 0.960 . S
H656 C669 0.961 . S
H657 C669 0.959 . S
H658 C672 0.929 . S
H659 C673 0.931 . S
H660 C675 0.930 . S
C661 H649 0.930 . S
C661 C662 1.399 . S
C661 C666 1.399 . S
C662 C661 1.399 . S
C662 C663 1.376 . S
C663 H650 0.930 . S
C663 C662 1.376 . S
C663 C664 1.388 . S
C664 H651 0.930 . S
C664 C663 1.388 . S
C664 C665 1.390 . S
C665 C664 1.390 . S
C665 C666 1.394 . S
C665 C671 1.465 . S
C666 C661 1.399 . S
C666 C665 1.394 . S
C666 C667 1.516 . S
C667 C666 1.516 . S
C667 C668 1.502 . S
C667 C669 1.561 . S
C667 C670 1.526 . S
C668 H652 0.959 . S
C668 H653 0.959 . S
C668 H654 0.961 . S
C668 C667 1.502 . S
C669 H655 0.960 . S
C669 H656 0.961 . S
C669 H657 0.959 . S
C669 C667 1.561 . S
C670 C667 1.526 . S
C670 C671 1.396 . S
C670 C675 1.390 . S
C671 C665 1.465 . S
C671 C670 1.396 . S
C671 C672 1.399 . S
C672 H658 0.929 . S
C672 C671 1.399 . S
C672 C673 1.385 . S
C673 H659 0.931 . S
C673 C672 1.385 . S
C673 C674 1.389 . S
C674 C673 1.389 . S
C674 C675 1.387 . S
C675 H660 0.930 . S
C675 C670 1.390 . S
C675 C674 1.387 . S
H676 C688 0.930 . S
H677 C690 0.930 . S
H678 C691 0.930 . S
H679 C695 0.959 . S
H680 C695 0.959 . S
H681 C695 0.961 . S
H682 C696 0.960 . S
H683 C696 0.961 . S
H684 C696 0.959 . S
H685 C699 0.929 . S
H686 C700 0.931 . S
H687 C702 0.930 . S
C688 H676 0.930 . S
C688 C689 1.399 . S
C688 C693 1.399 . S
C689 C688 1.399 . S
C689 C690 1.376 . S
C690 H677 0.930 . S
C690 C689 1.376 . S
C690 C691 1.388 . S
C691 H678 0.930 . S
C691 C690 1.388 . S
C691 C692 1.390 . S
C692 C691 1.390 . S
C692 C693 1.394 . S
C692 C698 1.465 . S
C693 C688 1.399 . S
C693 C692 1.394 . S
C693 C694 1.516 . S
C694 C693 1.516 . S
C694 C695 1.502 . S
C694 C696 1.561 . S
C694 C697 1.526 . S
C695 H679 0.959 . S
C695 H680 0.959 . S
C695 H681 0.961 . S
C695 C694 1.502 . S
C696 H682 0.960 . S
C696 H683 0.961 . S
C696 H684 0.959 . S
C696 C694 1.561 . S
C697 C694 1.526 . S
C697 C698 1.396 . S
C697 C702 1.390 . S
C698 C692 1.465 . S
C698 C697 1.396 . S
C698 C699 1.399 . S
C699 H685 0.929 . S
C699 C698 1.399 . S
C699 C700 1.385 . S
C700 H686 0.931 . S
C700 C699 1.385 . S
C700 C701 1.389 . S
C701 C700 1.389 . S
C701 C702 1.387 . S
C702 H687 0.930 . S
C702 C697 1.390 . S
C702 C701 1.387 . S
H703 C715 0.930 . S
H704 C717 0.930 . S
H705 C718 0.930 . S
H706 C722 0.959 . S
H707 C722 0.959 . S
H708 C722 0.961 . S
H709 C723 0.960 . S
H710 C723 0.961 . S
H711 C723 0.959 . S
H712 C726 0.929 . S
H713 C727 0.931 . S
H714 C729 0.930 . S
C715 H703 0.930 . S
C715 C716 1.399 . S
C715 C720 1.399 . S
C716 C715 1.399 . S
C716 C717 1.376 . S
C717 H704 0.930 . S
C717 C716 1.376 . S
C717 C718 1.388 . S
C718 H705 0.930 . S
C718 C717 1.388 . S
C718 C719 1.390 . S
C719 C718 1.390 . S
C719 C720 1.394 . S
C719 C725 1.465 . S
C720 C715 1.399 . S
C720 C719 1.394 . S
C720 C721 1.516 . S
C721 C720 1.516 . S
C721 C722 1.502 . S
C721 C723 1.561 . S
C721 C724 1.526 . S
C722 H706 0.959 . S
C722 H707 0.959 . S
C722 H708 0.961 . S
C722 C721 1.502 . S
C723 H709 0.960 . S
C723 H710 0.961 . S
C723 H711 0.959 . S
C723 C721 1.561 . S
C724 C721 1.526 . S
C724 C725 1.396 . S
C724 C729 1.390 . S
C725 C719 1.465 . S
C725 C724 1.396 . S
C725 C726 1.399 . S
C726 H712 0.929 . S
C726 C725 1.399 . S
C726 C727 1.385 . S
C727 H713 0.931 . S
C727 C726 1.385 . S
C727 C728 1.389 . S
C728 C727 1.389 . S
C728 C729 1.387 . S
C729 H714 0.930 . S
C729 C724 1.390 . S
C729 C728 1.387 . S
H730 C742 0.930 . S
H731 C744 0.930 . S
H732 C745 0.930 . S
H733 C749 0.959 . S
H734 C749 0.959 . S
H735 C749 0.961 . S
H736 C750 0.960 . S
H737 C750 0.961 . S
H738 C750 0.959 . S
H739 C753 0.929 . S
H740 C754 0.931 . S
H741 C756 0.930 . S
C742 H730 0.930 . S
C742 C743 1.399 . S
C742 C747 1.399 . S
C743 C742 1.399 . S
C743 C744 1.376 . S
C744 H731 0.930 . S
C744 C743 1.376 . S
C744 C745 1.388 . S
C745 H732 0.930 . S
C745 C744 1.388 . S
C745 C746 1.390 . S
C746 C745 1.390 . S
C746 C747 1.394 . S
C746 C752 1.465 . S
C747 C742 1.399 . S
C747 C746 1.394 . S
C747 C748 1.516 . S
C748 C747 1.516 . S
C748 C749 1.502 . S
C748 C750 1.561 . S
C748 C751 1.526 . S
C749 H733 0.959 . S
C749 H734 0.959 . S
C749 H735 0.961 . S
C749 C748 1.502 . S
C750 H736 0.960 . S
C750 H737 0.961 . S
C750 H738 0.959 . S
C750 C748 1.561 . S
C751 C748 1.526 . S
C751 C752 1.396 . S
C751 C756 1.390 . S
C752 C746 1.465 . S
C752 C751 1.396 . S
C752 C753 1.399 . S
C753 H739 0.929 . S
C753 C752 1.399 . S
C753 C754 1.385 . S
C754 H740 0.931 . S
C754 C753 1.385 . S
C754 C755 1.389 . S
C755 C754 1.389 . S
C755 C756 1.387 . S
C756 H741 0.930 . S
C756 C751 1.390 . S
C756 C755 1.387 . S
H757 C769 0.930 . S
H758 C771 0.930 . S
H759 C772 0.930 . S
H760 C776 0.959 . S
H761 C776 0.959 . S
H762 C776 0.961 . S
H763 C777 0.960 . S
H764 C777 0.961 . S
H765 C777 0.959 . S
H766 C780 0.929 . S
H767 C781 0.931 . S
H768 C783 0.930 . S
C769 H757 0.930 . S
C769 C770 1.399 . S
C769 C774 1.399 . S
C770 C769 1.399 . S
C770 C771 1.376 . S
C771 H758 0.930 . S
C771 C770 1.376 . S
C771 C772 1.388 . S
C772 H759 0.930 . S
C772 C771 1.388 . S
C772 C773 1.390 . S
C773 C772 1.390 . S
C773 C774 1.394 . S
C773 C779 1.465 . S
C774 C769 1.399 . S
C774 C773 1.394 . S
C774 C775 1.516 . S
C775 C774 1.516 . S
C775 C776 1.502 . S
C775 C777 1.561 . S
C775 C778 1.526 . S
C776 H760 0.959 . S
C776 H761 0.959 . S
C776 H762 0.961 . S
C776 C775 1.502 . S
C777 H763 0.960 . S
C777 H764 0.961 . S
C777 H765 0.959 . S
C777 C775 1.561 . S
C778 C775 1.526 . S
C778 C779 1.396 . S
C778 C783 1.390 . S
C779 C773 1.465 . S
C779 C778 1.396 . S
C779 C780 1.399 . S
C780 H766 0.929 . S
C780 C779 1.399 . S
C780 C781 1.385 . S
C781 H767 0.931 . S
C781 C780 1.385 . S
C781 C782 1.389 . S
C782 C781 1.389 . S
C782 C783 1.387 . S
C783 H768 0.930 . S
C783 C778 1.390 . S
C783 C782 1.387 . S
H784 C796 0.930 . S
H785 C798 0.930 . S
H786 C799 0.930 . S
H787 C803 0.959 . S
H788 C803 0.959 . S
H789 C803 0.961 . S
H790 C804 0.960 . S
H791 C804 0.961 . S
H792 C804 0.959 . S
H793 C807 0.929 . S
H794 C808 0.931 . S
H795 C810 0.930 . S
C796 H784 0.930 . S
C796 C797 1.399 . S
C796 C801 1.399 . S
C797 C796 1.399 . S
C797 C798 1.376 . S
C798 H785 0.930 . S
C798 C797 1.376 . S
C798 C799 1.388 . S
C799 H786 0.930 . S
C799 C798 1.388 . S
C799 C800 1.390 . S
C800 C799 1.390 . S
C800 C801 1.394 . S
C800 C806 1.465 . S
C801 C796 1.399 . S
C801 C800 1.394 . S
C801 C802 1.516 . S
C802 C801 1.516 . S
C802 C803 1.502 . S
C802 C804 1.561 . S
C802 C805 1.526 . S
C803 H787 0.959 . S
C803 H788 0.959 . S
C803 H789 0.961 . S
C803 C802 1.502 . S
C804 H790 0.960 . S
C804 H791 0.961 . S
C804 H792 0.959 . S
C804 C802 1.561 . S
C805 C802 1.526 . S
C805 C806 1.396 . S
C805 C810 1.390 . S
C806 C800 1.465 . S
C806 C805 1.396 . S
C806 C807 1.399 . S
C807 H793 0.929 . S
C807 C806 1.399 . S
C807 C808 1.385 . S
C808 H794 0.931 . S
C808 C807 1.385 . S
C808 C809 1.389 . S
C809 C808 1.389 . S
C809 C810 1.387 . S
C810 H795 0.930 . S
C810 C805 1.390 . S
C810 C809 1.387 . S
H811 C823 0.930 . S
H812 C825 0.930 . S
H813 C826 0.930 . S
H814 C830 0.959 . S
H815 C830 0.959 . S
H816 C830 0.961 . S
H817 C831 0.960 . S
H818 C831 0.961 . S
H819 C831 0.959 . S
H820 C834 0.929 . S
H821 C835 0.931 . S
H822 C837 0.930 . S
C823 H811 0.930 . S
C823 C824 1.399 1_565 S
C823 C828 1.399 . S
C824 C823 1.399 1_545 S
C824 C825 1.376 . S
C825 H812 0.930 . S
C825 C824 1.376 . S
C825 C826 1.388 . S
C826 H813 0.930 . S
C826 C825 1.388 . S
C826 C827 1.390 . S
C827 C826 1.390 . S
C827 C828 1.394 1_545 S
C827 C833 1.466 . S
C828 C823 1.399 . S
C828 C827 1.394 1_565 S
C828 C829 1.516 . S
C829 C828 1.516 . S
C829 C830 1.502 . S
C829 C831 1.561 . S
C829 C832 1.526 . S
C830 H814 0.959 . S
C830 H815 0.959 . S
C830 H816 0.961 . S
C830 C829 1.502 . S
C831 H817 0.960 . S
C831 H818 0.961 . S
C831 H819 0.959 . S
C831 C829 1.561 . S
C832 C829 1.526 . S
C832 C833 1.388 1_565 S
C832 C837 1.390 . S
C833 C827 1.466 . S
C833 C832 1.388 1_545 S
C833 C834 1.404 . S
C834 H820 0.929 . S
C834 C833 1.404 . S
C834 C835 1.385 . S
C835 H821 0.931 . S
C835 C834 1.385 . S
C835 C836 1.389 1_545 S
C836 C835 1.389 1_565 S
C836 C837 1.387 . S
C837 H822 0.930 . S
C837 C832 1.390 . S
C837 C836 1.387 . S
H838 C850 0.930 . S
H839 C852 0.930 . S
H840 C853 0.930 . S
H841 C857 0.959 . S
H842 C857 0.959 . S
H843 C857 0.961 . S
H844 C858 0.960 . S
H845 C858 0.961 . S
H846 C858 0.959 . S
H847 C861 0.929 . S
H848 C862 0.931 . S
H849 C864 0.930 . S
C850 H838 0.930 . S
C850 C851 1.399 . S
C850 C855 1.399 . S
C851 C850 1.399 . S
C851 C852 1.376 . S
C852 H839 0.930 . S
C852 C851 1.376 . S
C852 C853 1.388 . S
C853 H840 0.930 . S
C853 C852 1.388 . S
C853 C854 1.390 . S
C854 C853 1.390 . S
C854 C855 1.394 . S
C854 C860 1.465 . S
C855 C850 1.399 . S
C855 C854 1.394 . S
C855 C856 1.516 . S
C856 C855 1.516 . S
C856 C857 1.502 . S
C856 C858 1.561 . S
C856 C859 1.526 . S
C857 H841 0.959 . S
C857 H842 0.959 . S
C857 H843 0.961 . S
C857 C856 1.502 . S
C858 H844 0.960 . S
C858 H845 0.961 . S
C858 H846 0.959 . S
C858 C856 1.561 . S
C859 C856 1.526 . S
C859 C860 1.396 . S
C859 C864 1.390 . S
C860 C854 1.465 . S
C860 C859 1.396 . S
C860 C861 1.399 . S
C861 H847 0.929 . S
C861 C860 1.399 . S
C861 C862 1.385 . S
C862 H848 0.931 . S
C862 C861 1.385 . S
C862 C863 1.389 . S
C863 C862 1.389 . S
C863 C864 1.387 . S
C864 H849 0.930 . S
C864 C859 1.390 . S
C864 C863 1.387 . S
H865 C877 0.930 . S
H866 C879 0.930 . S
H867 C880 0.930 . S
H868 C884 0.959 . S
H869 C884 0.959 . S
H870 C884 0.961 . S
H871 C885 0.960 . S
H872 C885 0.961 . S
H873 C885 0.959 . S
H874 C888 0.929 . S
H875 C889 0.931 . S
H876 C891 0.930 . S
C877 H865 0.930 . S
C877 C878 1.399 . S
C877 C882 1.399 . S
C878 C877 1.399 . S
C878 C879 1.376 1_545 S
C879 H866 0.930 . S
C879 C878 1.376 1_565 S
C879 C880 1.388 . S
C880 H867 0.930 . S
C880 C879 1.388 . S
C880 C881 1.390 1_565 S
C881 C880 1.390 1_545 S
C881 C882 1.394 . S
C881 C887 1.465 . S
C882 C877 1.399 . S
C882 C881 1.394 . S
C882 C883 1.516 . S
C883 C882 1.516 . S
C883 C884 1.502 . S
C883 C885 1.561 . S
C883 C886 1.526 . S
C884 H868 0.959 . S
C884 H869 0.959 . S
C884 H870 0.961 . S
C884 C883 1.502 . S
C885 H871 0.960 . S
C885 H872 0.961 . S
C885 H873 0.959 . S
C885 C883 1.561 . S
C886 C883 1.526 . S
C886 C887 1.396 . S
C886 C891 1.390 . S
C887 C881 1.465 . S
C887 C886 1.396 . S
C887 C888 1.399 1_545 S
C888 H874 0.929 . S
C888 C887 1.399 1_565 S
C888 C889 1.385 . S
C889 H875 0.931 . S
C889 C888 1.385 . S
C889 C890 1.389 1_565 S
C890 C889 1.389 1_545 S
C890 C891 1.387 . S
C891 H876 0.930 . S
C891 C886 1.390 . S
C891 C890 1.387 . S
H892 C904 0.930 . S
H893 C906 0.930 . S
H894 C907 0.930 . S
H895 C911 0.959 . S
H896 C911 0.959 . S
H897 C911 0.961 . S
H898 C912 0.960 . S
H899 C912 0.961 . S
H900 C912 0.959 . S
H901 C915 0.929 . S
H902 C916 0.931 . S
H903 C918 0.930 . S
C904 H892 0.930 . S
C904 C905 1.399 . S
C904 C909 1.399 . S
C905 C904 1.399 . S
C905 C906 1.376 . S
C906 H893 0.930 . S
C906 C905 1.376 . S
C906 C907 1.388 . S
C907 H894 0.930 . S
C907 C906 1.388 . S
C907 C908 1.390 . S
C908 C907 1.390 . S
C908 C909 1.394 . S
C908 C914 1.465 . S
C909 C904 1.399 . S
C909 C908 1.394 . S
C909 C910 1.516 . S
C910 C909 1.516 . S
C910 C911 1.502 . S
C910 C912 1.561 . S
C910 C913 1.526 . S
C911 H895 0.959 . S
C911 H896 0.959 . S
C911 H897 0.961 . S
C911 C910 1.502 . S
C912 H898 0.960 . S
C912 H899 0.961 . S
C912 H900 0.959 . S
C912 C910 1.561 . S
C913 C910 1.526 . S
C913 C914 1.396 . S
C913 C918 1.390 . S
C914 C908 1.465 . S
C914 C913 1.396 . S
C914 C915 1.399 . S
C915 H901 0.929 . S
C915 C914 1.399 . S
C915 C916 1.385 . S
C916 H902 0.931 . S
C916 C915 1.385 . S
C916 C917 1.389 . S
C917 C916 1.389 . S
C917 C918 1.387 . S
C918 H903 0.930 . S
C918 C913 1.390 . S
C918 C917 1.387 . S
H919 C931 0.930 . S
H920 C933 0.930 . S
H921 C934 0.930 . S
H922 C938 0.959 . S
H923 C938 0.959 . S
H924 C938 0.961 . S
H925 C939 0.960 . S
H926 C939 0.961 . S
H927 C939 0.959 . S
H928 C942 0.929 1_554 S
H929 C943 0.917 1_554 S
H930 C945 0.930 . S
C931 H919 0.930 . S
C931 C932 1.399 . S
C931 C936 1.399 . S
C932 C931 1.399 . S
C932 C933 1.376 1_556 S
C933 H920 0.930 . S
C933 C932 1.376 1_554 S
C933 C934 1.388 . S
C934 H921 0.930 . S
C934 C933 1.388 . S
C934 C935 1.390 1_554 S
C935 C934 1.390 1_556 S
C935 C936 1.394 . S
C935 C941 1.465 . S
C936 C931 1.399 . S
C936 C935 1.394 . S
C936 C937 1.516 . S
C937 C936 1.516 . S
C937 C938 1.502 . S
C937 C939 1.561 . S
C937 C940 1.526 . S
C938 H922 0.959 . S
C938 H923 0.959 . S
C938 H924 0.961 . S
C938 C937 1.502 . S
C939 H925 0.960 . S
C939 H926 0.961 . S
C939 H927 0.959 . S
C939 C937 1.561 . S
C940 C937 1.526 . S
C940 C941 1.396 . S
C940 C945 1.390 . S
C941 C935 1.465 . S
C941 C940 1.396 . S
C941 C942 1.399 . S
C942 H928 0.929 1_556 S
C942 C941 1.399 . S
C942 C943 1.385 . S
C943 H929 0.917 1_556 S
C943 C942 1.385 . S
C943 C944 1.389 . S
C944 C943 1.389 . S
C944 C945 1.387 . S
C945 H930 0.930 . S
C945 C940 1.390 . S
C945 C944 1.387 . S
H946 C958 0.930 . S
H947 C960 0.930 . S
H948 C961 0.930 . S
H949 C965 0.959 1_556 S
H950 C965 0.959 . S
H951 C965 0.961 . S
H952 C966 0.960 . S
H953 C966 0.961 . S
H954 C966 0.959 . S
H955 C969 0.929 . S
H956 C970 0.931 . S
H957 C972 0.921 1_554 S
C958 H946 0.930 . S
C958 C959 1.399 . S
C958 C963 1.399 . S
C959 C958 1.399 . S
C959 C960 1.376 1_554 S
C960 H947 0.930 . S
C960 C959 1.376 1_556 S
C960 C961 1.388 . S
C961 H948 0.930 . S
C961 C960 1.388 . S
C961 C962 1.390 . S
C962 C961 1.390 . S
C962 C963 1.394 1_556 S
C962 C968 1.465 . S
C963 C958 1.399 . S
C963 C962 1.394 1_554 S
C963 C964 1.516 . S
C964 C963 1.516 . S
C964 C965 1.502 . S
C964 C966 1.561 . S
C964 C967 1.544 . S
C965 H949 0.959 1_554 S
C965 H950 0.959 . S
C965 H951 0.961 . S
C965 C964 1.502 . S
C966 H952 0.960 . S
C966 H953 0.961 . S
C966 H954 0.959 . S
C966 C964 1.561 . S
C967 C964 1.544 . S
C967 C968 1.379 1_554 S
C967 C972 1.387 1_554 S
C968 C962 1.465 . S
C968 C967 1.379 1_556 S
C968 C969 1.399 . S
C969 H955 0.929 . S
C969 C968 1.399 . S
C969 C970 1.385 . S
C970 H956 0.931 . S
C970 C969 1.385 . S
C970 C971 1.389 . S
C971 C970 1.389 . S
C971 C972 1.396 . S
C972 H957 0.921 1_556 S
C972 C967 1.387 1_556 S
C972 C971 1.396 . S
H973 C985 0.930 . S
H974 C987 0.930 . S
H975 C988 0.930 . S
H976 C992 0.959 . S
H977 C992 0.959 . S
H978 C992 0.961 . S
H979 C993 0.960 . S
H980 C993 0.961 . S
H981 C993 0.959 . S
H982 C996 0.929 . S
H983 C997 0.931 . S
H984 C999 0.930 . S
C985 H973 0.930 . S
C985 C986 1.399 1_556 S
C985 C990 1.399 . S
C986 C985 1.399 1_554 S
C986 C987 1.376 . S
C987 H974 0.930 . S
C987 C986 1.376 . S
C987 C988 1.388 . S
C988 H975 0.930 . S
C988 C987 1.388 . S
C988 C989 1.390 . S
C989 C988 1.390 . S
C989 C990 1.394 1_554 S
C989 C995 1.465 . S
C990 C985 1.399 . S
C990 C989 1.394 1_556 S
C990 C991 1.516 . S
C991 C990 1.516 . S
C991 C992 1.502 . S
C991 C993 1.561 . S
C991 C994 1.526 . S
C992 H976 0.959 . S
C992 H977 0.959 . S
C992 H978 0.961 . S
C992 C991 1.502 . S
C993 H979 0.960 . S
C993 H980 0.961 . S
C993 H981 0.959 . S
C993 C991 1.561 . S
C994 C991 1.526 . S
C994 C995 1.396 1_556 S
C994 C999 1.390 . S
C995 C989 1.465 . S
C995 C994 1.396 1_554 S
C995 C996 1.399 . S
C996 H982 0.929 . S
C996 C995 1.399 . S
C996 C997 1.385 . S
C997 H983 0.931 . S
C997 C996 1.385 . S
C997 C998 1.389 . S
C998 C997 1.389 . S
C998 C999 1.387 1_554 S
C999 H984 0.930 . S
C999 C994 1.390 . S
C999 C998 1.387 1_556 S
H1000 C1012 0.930 . S
H1001 C1014 0.930 . S
H1002 C1015 0.930 . S
H1003 C1019 0.959 . S
H1004 C1019 0.959 . S
H1005 C1019 0.961 . S
H1006 C1020 0.960 . S
H1007 C1020 0.961 . S
H1008 C1020 0.959 1_655 S
H1009 C1023 0.929 1_655 S
H1010 C1024 0.931 . S
H1011 C1026 0.930 . S
C1012 H1000 0.930 . S
C1012 C1013 1.399 . S
C1012 C1017 1.399 . S
C1013 C1012 1.399 . S
C1013 C1014 1.376 1_455 S
C1014 H1001 0.930 . S
C1014 C1013 1.376 1_655 S
C1014 C1015 1.388 . S
C1015 H1002 0.930 . S
C1015 C1014 1.388 . S
C1015 C1016 1.390 1_655 S
C1016 C1015 1.390 1_455 S
C1016 C1017 1.394 . S
C1016 C1022 1.465 . S
C1017 C1012 1.399 . S
C1017 C1016 1.394 . S
C1017 C1018 1.516 . S
C1018 C1017 1.516 . S
C1018 C1019 1.502 . S
C1018 C1020 1.561 . S
C1018 C1021 1.526 . S
C1019 H1003 0.959 . S
C1019 H1004 0.959 . S
C1019 H1005 0.961 . S
C1019 C1018 1.502 . S
C1020 H1006 0.960 . S
C1020 H1007 0.961 . S
C1020 H1008 0.959 1_455 S
C1020 C1018 1.561 . S
C1021 C1018 1.526 . S
C1021 C1022 1.396 . S
C1021 C1026 1.390 . S
C1022 C1016 1.465 . S
C1022 C1021 1.396 . S
C1022 C1023 1.399 . S
C1023 H1009 0.929 1_455 S
C1023 C1022 1.399 . S
C1023 C1024 1.385 . S
C1024 H1010 0.931 . S
C1024 C1023 1.385 . S
C1024 C1025 1.389 . S
C1025 C1024 1.389 . S
C1025 C1026 1.387 . S
C1026 H1011 0.930 . S
C1026 C1021 1.390 . S
C1026 C1025 1.387 . S
H1027 C1039 0.930 . S
H1028 C1041 0.930 . S
H1029 C1042 0.930 . S
H1030 C1046 0.959 . S
H1031 C1046 0.959 . S
H1032 C1046 0.961 . S
H1033 C1047 0.960 . S
H1034 C1047 0.961 . S
H1035 C1047 0.959 . S
H1036 C1050 0.929 . S
H1037 C1051 0.931 . S
H1038 C1053 0.930 . S
C1039 H1027 0.930 . S
C1039 C1040 1.399 . S
C1039 C1044 1.399 . S
C1040 C1039 1.399 . S
C1040 C1041 1.376 1_655 S
C1041 H1028 0.930 . S
C1041 C1040 1.376 1_455 S
C1041 C1042 1.388 . S
C1042 H1029 0.930 . S
C1042 C1041 1.388 . S
C1042 C1043 1.390 . S
C1043 C1042 1.390 . S
C1043 C1044 1.394 1_455 S
C1043 C1049 1.465 . S
C1044 C1039 1.399 . S
C1044 C1043 1.394 1_655 S
C1044 C1045 1.516 . S
C1045 C1044 1.516 . S
C1045 C1046 1.502 . S
C1045 C1047 1.561 . S
C1045 C1048 1.526 . S
C1046 H1030 0.959 . S
C1046 H1031 0.959 . S
C1046 H1032 0.961 . S
C1046 C1045 1.502 . S
C1047 H1033 0.960 . S
C1047 H1034 0.961 . S
C1047 H1035 0.959 . S
C1047 C1045 1.561 . S
C1048 C1045 1.526 . S
C1048 C1049 1.396 1_655 S
C1048 C1053 1.390 . S
C1049 C1043 1.465 . S
C1049 C1048 1.396 1_455 S
C1049 C1050 1.399 . S
C1050 H1036 0.929 . S
C1050 C1049 1.399 . S
C1050 C1051 1.385 . S
C1051 H1037 0.931 . S
C1051 C1050 1.385 . S
C1051 C1052 1.389 . S
C1052 C1051 1.389 . S
C1052 C1053 1.387 1_455 S
C1053 H1038 0.930 . S
C1053 C1048 1.390 . S
C1053 C1052 1.387 1_655 S
H1054 C1066 0.930 . S
H1055 C1068 0.930 . S
H1056 C1069 0.930 1_655 S
H1057 C1073 0.959 . S
H1058 C1073 0.959 . S
H1059 C1073 0.961 . S
H1060 C1074 0.960 . S
H1061 C1074 0.961 . S
H1062 C1074 0.959 . S
H1063 C1077 0.929 . S
H1064 C1078 0.931 . S
H1065 C1080 0.930 . S
C1066 H1054 0.930 . S
C1066 C1067 1.399 . S
C1066 C1071 1.399 . S
C1067 C1066 1.399 . S
C1067 C1068 1.376 . S
C1068 H1055 0.930 . S
C1068 C1067 1.376 . S
C1068 C1069 1.388 . S
C1069 H1056 0.930 1_455 S
C1069 C1068 1.388 . S
C1069 C1070 1.390 . S
C1070 C1069 1.390 . S
C1070 C1071 1.394 . S
C1070 C1076 1.465 . S
C1071 C1066 1.399 . S
C1071 C1070 1.394 . S
C1071 C1072 1.516 . S
C1072 C1071 1.516 . S
C1072 C1073 1.502 . S
C1072 C1074 1.561 . S
C1072 C1075 1.526 . S
C1073 H1057 0.959 . S
C1073 H1058 0.959 . S
C1073 H1059 0.961 . S
C1073 C1072 1.502 . S
C1074 H1060 0.960 . S
C1074 H1061 0.961 . S
C1074 H1062 0.959 . S
C1074 C1072 1.561 . S
C1075 C1072 1.526 . S
C1075 C1076 1.396 . S
C1075 C1080 1.390 . S
C1076 C1070 1.465 . S
C1076 C1075 1.396 . S
C1076 C1077 1.399 . S
C1077 H1063 0.929 . S
C1077 C1076 1.399 . S
C1077 C1078 1.385 . S
C1078 H1064 0.931 . S
C1078 C1077 1.385 . S
C1078 C1079 1.389 . S
C1079 C1078 1.389 . S
C1079 C1080 1.387 . S
C1080 H1065 0.930 . S
C1080 C1075 1.390 . S
C1080 C1079 1.387 . S
H1081 C1093 0.930 1_655 S
H1082 C1095 0.930 . S
H1083 C1096 0.930 . S
H1084 C1100 0.959 . S
H1085 C1100 0.959 . S
H1086 C1100 0.961 . S
H1087 C1101 0.960 . S
H1088 C1101 0.961 . S
H1089 C1101 0.959 1_455 S
H1090 C1104 0.929 . S
H1091 C1105 0.931 . S
H1092 C1107 0.930 . S
C1093 H1081 0.930 1_455 S
C1093 C1094 1.399 . S
C1093 C1098 1.399 . S
C1094 C1093 1.399 . S
C1094 C1095 1.376 . S
C1095 H1082 0.930 . S
C1095 C1094 1.376 . S
C1095 C1096 1.388 . S
C1096 H1083 0.930 . S
C1096 C1095 1.388 . S
C1096 C1097 1.390 . S
C1097 C1096 1.390 . S
C1097 C1098 1.394 . S
C1097 C1103 1.465 . S
C1098 C1093 1.399 . S
C1098 C1097 1.394 . S
C1098 C1099 1.516 1_455 S
C1099 C1098 1.516 1_655 S
C1099 C1100 1.502 . S
C1099 C1101 1.561 . S
C1099 C1102 1.526 . S
C1100 H1084 0.959 . S
C1100 H1085 0.959 . S
C1100 H1086 0.961 . S
C1100 C1099 1.502 . S
C1101 H1087 0.960 . S
C1101 H1088 0.961 . S
C1101 H1089 0.959 1_655 S
C1101 C1099 1.561 . S
C1102 C1099 1.526 . S
C1102 C1103 1.396 1_655 S
C1102 C1107 1.390 . S
C1103 C1097 1.465 . S
C1103 C1102 1.396 1_455 S
C1103 C1104 1.399 . S
C1104 H1090 0.929 . S
C1104 C1103 1.399 . S
C1104 C1105 1.385 . S
C1105 H1091 0.931 . S
C1105 C1104 1.385 . S
C1105 C1106 1.389 1_455 S
C1106 C1105 1.389 1_655 S
C1106 C1107 1.387 . S
C1107 H1092 0.930 . S
C1107 C1102 1.390 . S
C1107 C1106 1.387 . S
H1108 C1120 0.927 . S
H1109 C1122 0.930 . S
H1110 C1123 0.930 . S
H1111 C1127 0.959 1_545 S
H1112 C1127 0.959 . S
H1113 C1127 0.961 . S
H1114 C1128 0.960 . S
H1115 C1128 0.961 . S
H1116 C1128 0.959 . S
H1117 C1131 0.929 . S
H1118 C1132 0.931 . S
H1119 C1134 0.930 1_565 S
C1120 H1108 0.927 . S
C1120 C1121 1.401 1_565 S
C1120 C1125 1.400 1_565 S
C1121 C1120 1.401 1_545 S
C1121 C1122 1.376 . S
C1122 H1109 0.930 . S
C1122 C1121 1.376 . S
C1122 C1123 1.388 . S
C1123 H1110 0.930 . S
C1123 C1122 1.388 . S
C1123 C1124 1.390 . S
C1124 C1123 1.390 . S
C1124 C1125 1.394 . S
C1124 C1130 1.465 . S
C1125 C1120 1.400 1_545 S
C1125 C1124 1.394 . S
C1125 C1126 1.516 1_545 S
C1126 C1125 1.516 1_565 S
C1126 C1127 1.502 . S
C1126 C1128 1.561 . S
C1126 C1129 1.526 1_565 S
C1127 H1111 0.959 1_565 S
C1127 H1112 0.959 . S
C1127 H1113 0.961 . S
C1127 C1126 1.502 . S
C1128 H1114 0.960 . S
C1128 H1115 0.961 . S
C1128 H1116 0.959 . S
C1128 C1126 1.561 . S
C1129 C1126 1.526 1_545 S
C1129 C1130 1.396 . S
C1129 C1134 1.390 . S
C1130 C1124 1.465 . S
C1130 C1129 1.396 . S
C1130 C1131 1.399 . S
C1131 H1117 0.929 . S
C1131 C1130 1.399 . S
C1131 C1132 1.385 . S
C1132 H1118 0.931 . S
C1132 C1131 1.385 . S
C1132 C1133 1.389 . S
C1133 C1132 1.389 . S
C1133 C1134 1.387 . S
C1134 H1119 0.930 1_545 S
C1134 C1129 1.390 . S
C1134 C1133 1.387 . S
H1135 C1147 0.930 . S
H1136 C1149 0.930 . S
H1137 C1150 0.930 . S
H1138 C1154 0.959 . S
H1139 C1154 0.959 . S
H1140 C1154 0.961 . S
H1141 C1155 0.960 . S
H1142 C1155 0.961 . S
H1143 C1155 0.959 . S
H1144 C1158 0.929 . S
H1145 C1159 0.931 . S
H1146 C1161 0.930 . S
C1147 H1135 0.930 . S
C1147 C1148 1.399 . S
C1147 C1152 1.399 . S
C1148 C1147 1.399 . S
C1148 C1149 1.376 . S
C1149 H1136 0.930 . S
C1149 C1148 1.376 . S
C1149 C1150 1.388 . S
C1150 H1137 0.930 . S
C1150 C1149 1.388 . S
C1150 C1151 1.390 . S
C1151 C1150 1.390 . S
C1151 C1152 1.394 . S
C1151 C1157 1.465 . S
C1152 C1147 1.399 . S
C1152 C1151 1.394 . S
C1152 C1153 1.516 . S
C1153 C1152 1.516 . S
C1153 C1154 1.502 . S
C1153 C1155 1.561 . S
C1153 C1156 1.526 . S
C1154 H1138 0.959 . S
C1154 H1139 0.959 . S
C1154 H1140 0.961 . S
C1154 C1153 1.502 . S
C1155 H1141 0.960 . S
C1155 H1142 0.961 . S
C1155 H1143 0.959 . S
C1155 C1153 1.561 . S
C1156 C1153 1.526 . S
C1156 C1157 1.396 . S
C1156 C1161 1.390 . S
C1157 C1151 1.465 . S
C1157 C1156 1.396 . S
C1157 C1158 1.399 . S
C1158 H1144 0.929 . S
C1158 C1157 1.399 . S
C1158 C1159 1.385 . S
C1159 H1145 0.931 . S
C1159 C1158 1.385 . S
C1159 C1160 1.389 . S
C1160 C1159 1.389 . S
C1160 C1161 1.387 . S
C1161 H1146 0.930 . S
C1161 C1156 1.390 . S
C1161 C1160 1.387 . S
H1162 C1174 0.930 . S
H1163 C1176 0.930 . S
H1164 C1177 0.930 . S
H1165 C1181 0.959 . S
H1166 C1181 0.959 . S
H1167 C1181 0.961 . S
H1168 C1182 0.960 . S
H1169 C1182 0.961 . S
H1170 C1182 0.959 . S
H1171 C1185 0.929 . S
H1172 C1186 0.931 . S
H1173 C1188 0.930 . S
C1174 H1162 0.930 . S
C1174 C1175 1.399 1_545 S
C1174 C1179 1.399 . S
C1175 C1174 1.399 1_565 S
C1175 C1176 1.376 . S
C1176 H1163 0.930 . S
C1176 C1175 1.376 . S
C1176 C1177 1.388 . S
C1177 H1164 0.930 . S
C1177 C1176 1.388 . S
C1177 C1178 1.390 . S
C1178 C1177 1.390 . S
C1178 C1179 1.394 1_565 S
C1178 C1184 1.465 . S
C1179 C1174 1.399 . S
C1179 C1178 1.394 1_545 S
C1179 C1180 1.516 . S
C1180 C1179 1.516 . S
C1180 C1181 1.502 . S
C1180 C1182 1.561 . S
C1180 C1183 1.526 . S
C1181 H1165 0.959 . S
C1181 H1166 0.959 . S
C1181 H1167 0.961 . S
C1181 C1180 1.502 . S
C1182 H1168 0.960 . S
C1182 H1169 0.961 . S
C1182 H1170 0.959 . S
C1182 C1180 1.561 . S
C1183 C1180 1.526 . S
C1183 C1184 1.396 1_545 S
C1183 C1188 1.390 . S
C1184 C1178 1.465 . S
C1184 C1183 1.396 1_565 S
C1184 C1185 1.399 . S
C1185 H1171 0.929 . S
C1185 C1184 1.399 . S
C1185 C1186 1.385 . S
C1186 H1172 0.931 . S
C1186 C1185 1.385 . S
C1186 C1187 1.389 . S
C1187 C1186 1.389 . S
C1187 C1188 1.387 1_565 S
C1188 H1173 0.930 . S
C1188 C1183 1.390 . S
C1188 C1187 1.387 1_545 S
H1189 C1201 0.930 . S
H1190 C1203 0.930 . S
H1191 C1204 0.930 . S
H1192 C1208 0.959 . S
H1193 C1208 0.959 . S
H1194 C1208 0.961 . S
H1195 C1209 0.960 . S
H1196 C1209 0.961 . S
H1197 C1209 0.959 . S
H1198 C1212 0.929 . S
H1199 C1213 0.931 . S
H1200 C1215 0.930 . S
C1201 H1189 0.930 . S
C1201 C1202 1.399 . S
C1201 C1206 1.399 . S
C1202 C1201 1.399 . S
C1202 C1203 1.376 . S
C1203 H1190 0.930 . S
C1203 C1202 1.376 . S
C1203 C1204 1.388 . S
C1204 H1191 0.930 . S
C1204 C1203 1.388 . S
C1204 C1205 1.390 . S
C1205 C1204 1.390 . S
C1205 C1206 1.394 . S
C1205 C1211 1.465 . S
C1206 C1201 1.399 . S
C1206 C1205 1.394 . S
C1206 C1207 1.516 . S
C1207 C1206 1.516 . S
C1207 C1208 1.502 . S
C1207 C1209 1.561 . S
C1207 C1210 1.526 . S
C1208 H1192 0.959 . S
C1208 H1193 0.959 . S
C1208 H1194 0.961 . S
C1208 C1207 1.502 . S
C1209 H1195 0.960 . S
C1209 H1196 0.961 . S
C1209 H1197 0.959 . S
C1209 C1207 1.561 . S
C1210 C1207 1.526 . S
C1210 C1211 1.396 . S
C1210 C1215 1.390 . S
C1211 C1205 1.465 . S
C1211 C1210 1.396 . S
C1211 C1212 1.399 . S
C1212 H1198 0.929 . S
C1212 C1211 1.399 . S
C1212 C1213 1.385 . S
C1213 H1199 0.931 . S
C1213 C1212 1.385 . S
C1213 C1214 1.389 . S
C1214 C1213 1.389 . S
C1214 C1215 1.387 . S
C1215 H1200 0.930 . S
C1215 C1210 1.390 . S
C1215 C1214 1.387 . S
H1216 C1228 0.930 . S
H1217 C1230 0.916 1_556 S
H1218 C1231 0.930 . S
H1219 C1235 0.959 . S
H1220 C1235 0.959 . S
H1221 C1235 0.961 . S
H1222 C1236 0.960 . S
H1223 C1236 0.961 . S
H1224 C1236 0.959 . S
H1225 C1239 0.949 . S
H1226 C1240 0.931 1_556 S
H1227 C1242 0.930 . S
C1228 H1216 0.930 . S
C1228 C1229 1.399 . S
C1228 C1233 1.399 . S
C1229 C1228 1.399 . S
C1229 C1230 1.393 . S
C1230 H1217 0.916 1_554 S
C1230 C1229 1.393 . S
C1230 C1231 1.386 1_554 S
C1231 H1218 0.930 . S
C1231 C1230 1.386 1_556 S
C1231 C1232 1.390 1_556 S
C1232 C1231 1.390 1_554 S
C1232 C1233 1.394 . S
C1232 C1238 1.465 . S
C1233 C1228 1.399 . S
C1233 C1232 1.394 . S
C1233 C1234 1.516 . S
C1234 C1233 1.516 . S
C1234 C1235 1.502 . S
C1234 C1236 1.561 . S
C1234 C1237 1.526 . S
C1235 H1219 0.959 . S
C1235 H1220 0.959 . S
C1235 H1221 0.961 . S
C1235 C1234 1.502 . S
C1236 H1222 0.960 . S
C1236 H1223 0.961 . S
C1236 H1224 0.959 . S
C1236 C1234 1.561 . S
C1237 C1234 1.526 . S
C1237 C1238 1.396 . S
C1237 C1242 1.390 . S
C1238 C1232 1.465 . S
C1238 C1237 1.396 . S
C1238 C1239 1.384 1_554 S
C1239 H1225 0.949 . S
C1239 C1238 1.384 1_556 S
C1239 C1240 1.380 1_556 S
C1240 H1226 0.931 1_554 S
C1240 C1239 1.380 1_554 S
C1240 C1241 1.389 . S
C1241 C1240 1.389 . S
C1241 C1242 1.387 . S
C1242 H1227 0.930 . S
C1242 C1237 1.390 . S
C1242 C1241 1.387 . S
H1243 C1255 0.930 . S
H1244 C1257 0.930 . S
H1245 C1258 0.930 . S
H1246 C1262 0.959 . S
H1247 C1262 0.959 . S
H1248 C1262 0.961 . S
H1249 C1263 0.960 . S
H1250 C1263 0.961 . S
H1251 C1263 0.959 . S
H1252 C1266 0.929 . S
H1253 C1267 0.931 . S
H1254 C1269 0.930 . S
C1255 H1243 0.930 . S
C1255 C1256 1.399 . S
C1255 C1260 1.399 . S
C1256 C1255 1.399 . S
C1256 C1257 1.376 . S
C1257 H1244 0.930 . S
C1257 C1256 1.376 . S
C1257 C1258 1.388 . S
C1258 H1245 0.930 . S
C1258 C1257 1.388 . S
C1258 C1259 1.390 . S
C1259 C1258 1.390 . S
C1259 C1260 1.394 . S
C1259 C1265 1.465 . S
C1260 C1255 1.399 . S
C1260 C1259 1.394 . S
C1260 C1261 1.516 . S
C1261 C1260 1.516 . S
C1261 C1262 1.502 . S
C1261 C1263 1.561 . S
C1261 C1264 1.526 . S
C1262 H1246 0.959 . S
C1262 H1247 0.959 . S
C1262 H1248 0.961 . S
C1262 C1261 1.502 . S
C1263 H1249 0.960 . S
C1263 H1250 0.961 . S
C1263 H1251 0.959 . S
C1263 C1261 1.561 . S
C1264 C1261 1.526 . S
C1264 C1265 1.396 . S
C1264 C1269 1.390 . S
C1265 C1259 1.465 . S
C1265 C1264 1.396 . S
C1265 C1266 1.399 . S
C1266 H1252 0.929 . S
C1266 C1265 1.399 . S
C1266 C1267 1.385 . S
C1267 H1253 0.931 . S
C1267 C1266 1.385 . S
C1267 C1268 1.389 . S
C1268 C1267 1.389 . S
C1268 C1269 1.387 . S
C1269 H1254 0.930 . S
C1269 C1264 1.390 . S
C1269 C1268 1.387 . S
H1270 C1282 0.930 . S
H1271 C1284 0.930 . S
H1272 C1285 0.930 . S
H1273 C1289 0.959 . S
H1274 C1289 0.959 . S
H1275 C1289 0.961 . S
H1276 C1290 0.960 . S
H1277 C1290 0.961 . S
H1278 C1290 0.959 . S
H1279 C1293 0.929 . S
H1280 C1294 0.931 . S
H1281 C1296 0.930 . S
C1282 H1270 0.930 . S
C1282 C1283 1.399 . S
C1282 C1287 1.399 . S
C1283 C1282 1.399 . S
C1283 C1284 1.376 . S
C1284 H1271 0.930 . S
C1284 C1283 1.376 . S
C1284 C1285 1.388 . S
C1285 H1272 0.930 . S
C1285 C1284 1.388 . S
C1285 C1286 1.390 . S
C1286 C1285 1.390 . S
C1286 C1287 1.394 . S
C1286 C1292 1.465 . S
C1287 C1282 1.399 . S
C1287 C1286 1.394 . S
C1287 C1288 1.516 . S
C1288 C1287 1.516 . S
C1288 C1289 1.502 . S
C1288 C1290 1.561 . S
C1288 C1291 1.526 . S
C1289 H1273 0.959 . S
C1289 H1274 0.959 . S
C1289 H1275 0.961 . S
C1289 C1288 1.502 . S
C1290 H1276 0.960 . S
C1290 H1277 0.961 . S
C1290 H1278 0.959 . S
C1290 C1288 1.561 . S
C1291 C1288 1.526 . S
C1291 C1292 1.396 . S
C1291 C1296 1.390 . S
C1292 C1286 1.465 . S
C1292 C1291 1.396 . S
C1292 C1293 1.399 . S
C1293 H1279 0.929 . S
C1293 C1292 1.399 . S
C1293 C1294 1.385 . S
C1294 H1280 0.931 . S
C1294 C1293 1.385 . S
C1294 C1295 1.389 . S
C1295 C1294 1.389 . S
C1295 C1296 1.387 . S
C1296 H1281 0.930 . S
C1296 C1291 1.390 . S
C1296 C1295 1.387 . S
H1297 C1309 0.930 . S
H1298 C1311 0.930 . S
H1299 C1312 0.930 . S
H1300 C1316 0.959 . S
H1301 C1316 0.959 . S
H1302 C1316 0.961 . S
H1303 C1317 0.960 . S
H1304 C1317 0.961 . S
H1305 C1317 0.959 . S
H1306 C1320 0.929 . S
H1307 C1321 0.931 . S
H1308 C1323 0.930 . S
C1309 H1297 0.930 . S
C1309 C1310 1.399 . S
C1309 C1314 1.399 . S
C1310 C1309 1.399 . S
C1310 C1311 1.376 . S
C1311 H1298 0.930 . S
C1311 C1310 1.376 . S
C1311 C1312 1.388 . S
C1312 H1299 0.930 . S
C1312 C1311 1.388 . S
C1312 C1313 1.390 . S
C1313 C1312 1.390 . S
C1313 C1314 1.394 . S
C1313 C1319 1.465 . S
C1314 C1309 1.399 . S
C1314 C1313 1.394 . S
C1314 C1315 1.516 . S
C1315 C1314 1.516 . S
C1315 C1316 1.502 . S
C1315 C1317 1.561 . S
C1315 C1318 1.526 . S
C1316 H1300 0.959 . S
C1316 H1301 0.959 . S
C1316 H1302 0.961 . S
C1316 C1315 1.502 . S
C1317 H1303 0.960 . S
C1317 H1304 0.961 . S
C1317 H1305 0.959 . S
C1317 C1315 1.561 . S
C1318 C1315 1.526 . S
C1318 C1319 1.396 . S
C1318 C1323 1.390 . S
C1319 C1313 1.465 . S
C1319 C1318 1.396 . S
C1319 C1320 1.399 . S
C1320 H1306 0.929 . S
C1320 C1319 1.399 . S
C1320 C1321 1.385 . S
C1321 H1307 0.931 . S
C1321 C1320 1.385 . S
C1321 C1322 1.389 . S
C1322 C1321 1.389 . S
C1322 C1323 1.387 . S
C1323 H1308 0.930 . S
C1323 C1318 1.390 . S
C1323 C1322 1.387 . S
H1324 C1336 0.930 . S
H1325 C1338 0.930 . S
H1326 C1339 0.930 . S
H1327 C1343 0.959 . S
H1328 C1343 0.959 . S
H1329 C1343 0.961 . S
H1330 C1344 0.960 . S
H1331 C1344 0.961 . S
H1332 C1344 0.959 . S
H1333 C1347 0.929 . S
H1334 C1348 0.931 . S
H1335 C1350 0.930 . S
C1336 H1324 0.930 . S
C1336 C1337 1.399 . S
C1336 C1341 1.399 . S
C1337 C1336 1.399 . S
C1337 C1338 1.376 . S
C1338 H1325 0.930 . S
C1338 C1337 1.376 . S
C1338 C1339 1.388 . S
C1339 H1326 0.930 . S
C1339 C1338 1.388 . S
C1339 C1340 1.390 . S
C1340 C1339 1.390 . S
C1340 C1341 1.394 . S
C1340 C1346 1.465 . S
C1341 C1336 1.399 . S
C1341 C1340 1.394 . S
C1341 C1342 1.516 . S
C1342 C1341 1.516 . S
C1342 C1343 1.502 . S
C1342 C1344 1.561 . S
C1342 C1345 1.526 . S
C1343 H1327 0.959 . S
C1343 H1328 0.959 . S
C1343 H1329 0.961 . S
C1343 C1342 1.502 . S
C1344 H1330 0.960 . S
C1344 H1331 0.961 . S
C1344 H1332 0.959 . S
C1344 C1342 1.561 . S
C1345 C1342 1.526 . S
C1345 C1346 1.396 . S
C1345 C1350 1.390 . S
C1346 C1340 1.465 . S
C1346 C1345 1.396 . S
C1346 C1347 1.399 . S
C1347 H1333 0.929 . S
C1347 C1346 1.399 . S
C1347 C1348 1.385 . S
C1348 H1334 0.931 . S
C1348 C1347 1.385 . S
C1348 C1349 1.389 . S
C1349 C1348 1.389 . S
C1349 C1350 1.387 . S
C1350 H1335 0.930 . S
C1350 C1345 1.390 . S
C1350 C1349 1.387 . S
H1351 C1363 0.930 . S
H1352 C1365 0.930 . S
H1353 C1366 0.930 . S
H1354 C1370 0.959 . S
H1355 C1370 0.959 . S
H1356 C1370 0.961 . S
H1357 C1371 0.960 . S
H1358 C1371 0.961 . S
H1359 C1371 0.959 . S
H1360 C1374 0.929 . S
H1361 C1375 0.931 . S
H1362 C1377 0.930 . S
C1363 H1351 0.930 . S
C1363 C1364 1.399 . S
C1363 C1368 1.399 . S
C1364 C1363 1.399 . S
C1364 C1365 1.376 . S
C1365 H1352 0.930 . S
C1365 C1364 1.376 . S
C1365 C1366 1.388 . S
C1366 H1353 0.930 . S
C1366 C1365 1.388 . S
C1366 C1367 1.390 . S
C1367 C1366 1.390 . S
C1367 C1368 1.394 . S
C1367 C1373 1.465 . S
C1368 C1363 1.399 . S
C1368 C1367 1.394 . S
C1368 C1369 1.516 . S
C1369 C1368 1.516 . S
C1369 C1370 1.502 . S
C1369 C1371 1.561 . S
C1369 C1372 1.526 . S
C1370 H1354 0.959 . S
C1370 H1355 0.959 . S
C1370 H1356 0.961 . S
C1370 C1369 1.502 . S
C1371 H1357 0.960 . S
C1371 H1358 0.961 . S
C1371 H1359 0.959 . S
C1371 C1369 1.561 . S
C1372 C1369 1.526 . S
C1372 C1373 1.396 . S
C1372 C1377 1.390 . S
C1373 C1367 1.465 . S
C1373 C1372 1.396 . S
C1373 C1374 1.399 . S
C1374 H1360 0.929 . S
C1374 C1373 1.399 . S
C1374 C1375 1.385 . S
C1375 H1361 0.931 . S
C1375 C1374 1.385 . S
C1375 C1376 1.389 . S
C1376 C1375 1.389 . S
C1376 C1377 1.387 . S
C1377 H1362 0.930 . S
C1377 C1372 1.390 . S
C1377 C1376 1.387 . S
H1378 C1390 0.930 . S
H1379 C1392 0.930 . S
H1380 C1393 0.930 . S
H1381 C1397 0.959 . S
H1382 C1397 0.959 . S
H1383 C1397 0.961 . S
H1384 C1398 0.960 . S
H1385 C1398 0.961 . S
H1386 C1398 0.959 . S
H1387 C1401 0.929 . S
H1388 C1402 0.931 . S
H1389 C1404 0.930 . S
C1390 H1378 0.930 . S
C1390 C1391 1.399 . S
C1390 C1395 1.399 . S
C1391 C1390 1.399 . S
C1391 C1392 1.376 . S
C1392 H1379 0.930 . S
C1392 C1391 1.376 . S
C1392 C1393 1.388 . S
C1393 H1380 0.930 . S
C1393 C1392 1.388 . S
C1393 C1394 1.390 . S
C1394 C1393 1.390 . S
C1394 C1395 1.394 . S
C1394 C1400 1.465 . S
C1395 C1390 1.399 . S
C1395 C1394 1.394 . S
C1395 C1396 1.516 . S
C1396 C1395 1.516 . S
C1396 C1397 1.502 . S
C1396 C1398 1.561 . S
C1396 C1399 1.526 . S
C1397 H1381 0.959 . S
C1397 H1382 0.959 . S
C1397 H1383 0.961 . S
C1397 C1396 1.502 . S
C1398 H1384 0.960 . S
C1398 H1385 0.961 . S
C1398 H1386 0.959 . S
C1398 C1396 1.561 . S
C1399 C1396 1.526 . S
C1399 C1400 1.396 . S
C1399 C1404 1.390 . S
C1400 C1394 1.465 . S
C1400 C1399 1.396 . S
C1400 C1401 1.399 . S
C1401 H1387 0.929 . S
C1401 C1400 1.399 . S
C1401 C1402 1.385 . S
C1402 H1388 0.931 . S
C1402 C1401 1.385 . S
C1402 C1403 1.389 . S
C1403 C1402 1.389 . S
C1403 C1404 1.387 . S
C1404 H1389 0.930 . S
C1404 C1399 1.390 . S
C1404 C1403 1.387 . S
H1405 C1417 0.930 . S
H1406 C1419 0.930 . S
H1407 C1420 0.930 . S
H1408 C1424 0.959 . S
H1409 C1424 0.959 . S
H1410 C1424 0.961 . S
H1411 C1425 0.960 . S
H1412 C1425 0.961 . S
H1413 C1425 0.959 . S
H1414 C1428 0.929 . S
H1415 C1429 0.931 . S
H1416 C1431 0.930 . S
C1417 H1405 0.930 . S
C1417 C1418 1.399 . S
C1417 C1422 1.399 . S
C1418 C1417 1.399 . S
C1418 C1419 1.376 . S
C1419 H1406 0.930 . S
C1419 C1418 1.376 . S
C1419 C1420 1.388 . S
C1420 H1407 0.930 . S
C1420 C1419 1.388 . S
C1420 C1421 1.390 . S
C1421 C1420 1.390 . S
C1421 C1422 1.394 . S
C1421 C1427 1.465 . S
C1422 C1417 1.399 . S
C1422 C1421 1.394 . S
C1422 C1423 1.516 . S
C1423 C1422 1.516 . S
C1423 C1424 1.502 . S
C1423 C1425 1.561 . S
C1423 C1426 1.526 . S
C1424 H1408 0.959 . S
C1424 H1409 0.959 . S
C1424 H1410 0.961 . S
C1424 C1423 1.502 . S
C1425 H1411 0.960 . S
C1425 H1412 0.961 . S
C1425 H1413 0.959 . S
C1425 C1423 1.561 . S
C1426 C1423 1.526 . S
C1426 C1427 1.396 . S
C1426 C1431 1.390 . S
C1427 C1421 1.465 . S
C1427 C1426 1.396 . S
C1427 C1428 1.399 . S
C1428 H1414 0.929 . S
C1428 C1427 1.399 . S
C1428 C1429 1.385 . S
C1429 H1415 0.931 . S
C1429 C1428 1.385 . S
C1429 C1430 1.389 . S
C1430 C1429 1.389 . S
C1430 C1431 1.387 . S
C1431 H1416 0.930 . S
C1431 C1426 1.390 . S
C1431 C1430 1.387 . S
H1432 C1444 0.930 . S
H1433 C1446 0.930 . S
H1434 C1447 0.930 . S
H1435 C1451 0.959 . S
H1436 C1451 0.959 . S
H1437 C1451 0.961 . S
H1438 C1452 0.960 . S
H1439 C1452 0.961 . S
H1440 C1452 0.959 . S
H1441 C1455 0.929 . S
H1442 C1456 0.931 . S
H1443 C1458 0.930 . S
C1444 H1432 0.930 . S
C1444 C1445 1.399 . S
C1444 C1449 1.399 . S
C1445 C1444 1.399 . S
C1445 C1446 1.376 . S
C1446 H1433 0.930 . S
C1446 C1445 1.376 . S
C1446 C1447 1.388 . S
C1447 H1434 0.930 . S
C1447 C1446 1.388 . S
C1447 C1448 1.390 . S
C1448 C1447 1.390 . S
C1448 C1449 1.394 . S
C1448 C1454 1.465 . S
C1449 C1444 1.399 . S
C1449 C1448 1.394 . S
C1449 C1450 1.516 . S
C1450 C1449 1.516 . S
C1450 C1451 1.502 . S
C1450 C1452 1.561 . S
C1450 C1453 1.526 . S
C1451 H1435 0.959 . S
C1451 H1436 0.959 . S
C1451 H1437 0.961 . S
C1451 C1450 1.502 . S
C1452 H1438 0.960 . S
C1452 H1439 0.961 . S
C1452 H1440 0.959 . S
C1452 C1450 1.561 . S
C1453 C1450 1.526 . S
C1453 C1454 1.396 . S
C1453 C1458 1.390 . S
C1454 C1448 1.465 . S
C1454 C1453 1.396 . S
C1454 C1455 1.399 . S
C1455 H1441 0.929 . S
C1455 C1454 1.399 . S
C1455 C1456 1.385 . S
C1456 H1442 0.931 . S
C1456 C1455 1.385 . S
C1456 C1457 1.389 . S
C1457 C1456 1.389 . S
C1457 C1458 1.387 . S
C1458 H1443 0.930 . S
C1458 C1453 1.390 . S
C1458 C1457 1.387 . S
H1459 C1471 0.930 . S
H1460 C1473 0.930 . S
H1461 C1474 0.930 . S
H1462 C1478 0.959 . S
H1463 C1478 0.959 . S
H1464 C1478 0.961 . S
H1465 C1479 0.960 . S
H1466 C1479 0.961 . S
H1467 C1479 0.959 . S
H1468 C1482 0.929 . S
H1469 C1483 0.931 . S
H1470 C1485 0.930 . S
C1471 H1459 0.930 . S
C1471 C1472 1.399 1_565 S
C1471 C1476 1.399 . S
C1472 C1471 1.399 1_545 S
C1472 C1473 1.376 . S
C1473 H1460 0.930 . S
C1473 C1472 1.376 . S
C1473 C1474 1.388 . S
C1474 H1461 0.930 . S
C1474 C1473 1.388 . S
C1474 C1475 1.390 . S
C1475 C1474 1.390 . S
C1475 C1476 1.394 1_545 S
C1475 C1481 1.465 . S
C1476 C1471 1.399 . S
C1476 C1475 1.394 1_565 S
C1476 C1477 1.516 . S
C1477 C1476 1.516 . S
C1477 C1478 1.502 . S
C1477 C1479 1.561 . S
C1477 C1480 1.526 . S
C1478 H1462 0.959 . S
C1478 H1463 0.959 . S
C1478 H1464 0.961 . S
C1478 C1477 1.502 . S
C1479 H1465 0.960 . S
C1479 H1466 0.961 . S
C1479 H1467 0.959 . S
C1479 C1477 1.561 . S
C1480 C1477 1.526 . S
C1480 C1481 1.396 1_565 S
C1480 C1485 1.390 . S
C1481 C1475 1.465 . S
C1481 C1480 1.396 1_545 S
C1481 C1482 1.399 . S
C1482 H1468 0.929 . S
C1482 C1481 1.399 . S
C1482 C1483 1.385 . S
C1483 H1469 0.931 . S
C1483 C1482 1.385 . S
C1483 C1484 1.389 1_545 S
C1484 C1483 1.389 1_565 S
C1484 C1485 1.387 . S
C1485 H1470 0.930 . S
C1485 C1480 1.390 . S
C1485 C1484 1.387 . S
H1486 C1498 0.930 . S
H1487 C1500 0.930 . S
H1488 C1501 0.930 . S
H1489 C1505 0.959 . S
H1490 C1505 0.959 . S
H1491 C1505 0.961 . S
H1492 C1506 0.960 . S
H1493 C1506 0.961 . S
H1494 C1506 0.959 . S
H1495 C1509 0.929 . S
H1496 C1510 0.931 . S
H1497 C1512 0.930 . S
C1498 H1486 0.930 . S
C1498 C1499 1.399 . S
C1498 C1503 1.399 . S
C1499 C1498 1.399 . S
C1499 C1500 1.376 . S
C1500 H1487 0.930 . S
C1500 C1499 1.376 . S
C1500 C1501 1.388 . S
C1501 H1488 0.930 . S
C1501 C1500 1.388 . S
C1501 C1502 1.390 . S
C1502 C1501 1.390 . S
C1502 C1503 1.394 . S
C1502 C1508 1.465 . S
C1503 C1498 1.399 . S
C1503 C1502 1.394 . S
C1503 C1504 1.516 . S
C1504 C1503 1.516 . S
C1504 C1505 1.502 . S
C1504 C1506 1.561 . S
C1504 C1507 1.526 . S
C1505 H1489 0.959 . S
C1505 H1490 0.959 . S
C1505 H1491 0.961 . S
C1505 C1504 1.502 . S
C1506 H1492 0.960 . S
C1506 H1493 0.961 . S
C1506 H1494 0.959 . S
C1506 C1504 1.561 . S
C1507 C1504 1.526 . S
C1507 C1508 1.396 . S
C1507 C1512 1.390 . S
C1508 C1502 1.465 . S
C1508 C1507 1.396 . S
C1508 C1509 1.399 . S
C1509 H1495 0.929 . S
C1509 C1508 1.399 . S
C1509 C1510 1.385 . S
C1510 H1496 0.931 . S
C1510 C1509 1.385 . S
C1510 C1511 1.389 . S
C1511 C1510 1.389 . S
C1511 C1512 1.387 . S
C1512 H1497 0.930 . S
C1512 C1507 1.390 . S
C1512 C1511 1.387 . S
H1513 C1525 0.930 1_565 S
H1514 C1527 0.930 . S
H1515 C1528 0.930 . S
H1516 C1532 0.959 1_545 S
H1517 C1532 0.959 . S
H1518 C1532 0.961 . S
H1519 C1533 0.960 . S
H1520 C1533 0.961 . S
H1521 C1533 0.959 . S
H1522 C1536 0.929 . S
H1523 C1537 0.931 . S
H1524 C1539 0.930 . S
C1525 H1513 0.930 1_545 S
C1525 C1526 1.399 . S
C1525 C1530 1.399 . S
C1526 C1525 1.399 . S
C1526 C1527 1.376 . S
C1527 H1514 0.930 . S
C1527 C1526 1.376 . S
C1527 C1528 1.388 . S
C1528 H1515 0.930 . S
C1528 C1527 1.388 . S
C1528 C1529 1.390 . S
C1529 C1528 1.390 . S
C1529 C1530 1.394 . S
C1529 C1535 1.465 . S
C1530 C1525 1.399 . S
C1530 C1529 1.394 . S
C1530 C1531 1.516 1_545 S
C1531 C1530 1.516 1_565 S
C1531 C1532 1.502 . S
C1531 C1533 1.561 . S
C1531 C1534 1.526 1_565 S
C1532 H1516 0.959 1_565 S
C1532 H1517 0.959 . S
C1532 H1518 0.961 . S
C1532 C1531 1.502 . S
C1533 H1519 0.960 . S
C1533 H1520 0.961 . S
C1533 H1521 0.959 . S
C1533 C1531 1.561 . S
C1534 C1531 1.526 1_545 S
C1534 C1535 1.396 . S
C1534 C1539 1.390 . S
C1535 C1529 1.465 . S
C1535 C1534 1.396 . S
C1535 C1536 1.399 . S
C1536 H1522 0.929 . S
C1536 C1535 1.399 . S
C1536 C1537 1.385 . S
C1537 H1523 0.931 . S
C1537 C1536 1.385 . S
C1537 C1538 1.389 . S
C1538 C1537 1.389 . S
C1538 C1539 1.387 . S
C1539 H1524 0.930 . S
C1539 C1534 1.390 . S
C1539 C1538 1.387 . S
H1540 C1552 0.930 . S
H1541 C1554 0.930 . S
H1542 C1555 0.930 . S
H1543 C1559 0.959 . S
H1544 C1559 0.959 . S
H1545 C1559 0.961 . S
H1546 C1560 0.960 . S
H1547 C1560 0.961 . S
H1548 C1560 0.959 . S
H1549 C1563 0.929 . S
H1550 C1564 0.931 . S
H1551 C1566 0.930 . S
C1552 H1540 0.930 . S
C1552 C1553 1.399 . S
C1552 C1557 1.399 . S
C1553 C1552 1.399 . S
C1553 C1554 1.376 . S
C1554 H1541 0.930 . S
C1554 C1553 1.376 . S
C1554 C1555 1.388 . S
C1555 H1542 0.930 . S
C1555 C1554 1.388 . S
C1555 C1556 1.390 . S
C1556 C1555 1.390 . S
C1556 C1557 1.394 . S
C1556 C1562 1.465 . S
C1557 C1552 1.399 . S
C1557 C1556 1.394 . S
C1557 C1558 1.516 . S
C1558 C1557 1.516 . S
C1558 C1559 1.502 . S
C1558 C1560 1.561 . S
C1558 C1561 1.526 . S
C1559 H1543 0.959 . S
C1559 H1544 0.959 . S
C1559 H1545 0.961 . S
C1559 C1558 1.502 . S
C1560 H1546 0.960 . S
C1560 H1547 0.961 . S
C1560 H1548 0.959 . S
C1560 C1558 1.561 . S
C1561 C1558 1.526 . S
C1561 C1562 1.396 . S
C1561 C1566 1.390 . S
C1562 C1556 1.465 . S
C1562 C1561 1.396 . S
C1562 C1563 1.399 . S
C1563 H1549 0.929 . S
C1563 C1562 1.399 . S
C1563 C1564 1.385 . S
C1564 H1550 0.931 . S
C1564 C1563 1.385 . S
C1564 C1565 1.389 . S
C1565 C1564 1.389 . S
C1565 C1566 1.387 . S
C1566 H1551 0.930 . S
C1566 C1561 1.390 . S
C1566 C1565 1.387 . S
H1567 C1579 0.930 1_554 S
H1568 C1581 0.930 . S
H1569 C1582 0.930 . S
H1570 C1586 0.959 . S
H1571 C1586 0.959 . S
H1572 C1586 0.961 . S
H1573 C1587 0.960 . S
H1574 C1587 0.961 . S
H1575 C1587 0.959 . S
H1576 C1590 0.929 . S
H1577 C1591 0.931 . S
H1578 C1593 0.930 . S
C1579 H1567 0.930 1_556 S
C1579 C1580 1.399 . S
C1579 C1584 1.399 . S
C1580 C1579 1.399 . S
C1580 C1581 1.376 . S
C1581 H1568 0.930 . S
C1581 C1580 1.376 . S
C1581 C1582 1.388 . S
C1582 H1569 0.930 . S
C1582 C1581 1.388 . S
C1582 C1583 1.390 . S
C1583 C1582 1.390 . S
C1583 C1584 1.394 . S
C1583 C1589 1.465 . S
C1584 C1579 1.399 . S
C1584 C1583 1.394 . S
C1584 C1585 1.516 . S
C1585 C1584 1.516 . S
C1585 C1586 1.502 1_556 S
C1585 C1587 1.561 . S
C1585 C1588 1.526 . S
C1586 H1570 0.959 . S
C1586 H1571 0.959 . S
C1586 H1572 0.961 . S
C1586 C1585 1.502 1_554 S
C1587 H1573 0.960 . S
C1587 H1574 0.961 . S
C1587 H1575 0.959 . S
C1587 C1585 1.561 . S
C1588 C1585 1.526 . S
C1588 C1589 1.396 . S
C1588 C1593 1.390 . S
C1589 C1583 1.465 . S
C1589 C1588 1.396 . S
C1589 C1590 1.399 . S
C1590 H1576 0.929 . S
C1590 C1589 1.399 . S
C1590 C1591 1.385 . S
C1591 H1577 0.931 . S
C1591 C1590 1.385 . S
C1591 C1592 1.389 . S
C1592 C1591 1.389 . S
C1592 C1593 1.387 . S
C1593 H1578 0.930 . S
C1593 C1588 1.390 . S
C1593 C1592 1.387 . S
H1594 C1606 0.930 . S
H1595 C1608 0.930 . S
H1596 C1609 0.930 . S
H1597 C1613 0.959 . S
H1598 C1613 0.959 . S
H1599 C1613 0.961 . S
H1600 C1614 0.960 . S
H1601 C1614 0.961 . S
H1602 C1614 0.959 . S
H1603 C1617 0.929 . S
H1604 C1618 0.931 . S
H1605 C1620 0.930 . S
C1606 H1594 0.930 . S
C1606 C1607 1.399 . S
C1606 C1611 1.399 . S
C1607 C1606 1.399 . S
C1607 C1608 1.376 1_554 S
C1608 H1595 0.930 . S
C1608 C1607 1.376 1_556 S
C1608 C1609 1.388 . S
C1609 H1596 0.930 . S
C1609 C1608 1.388 . S
C1609 C1610 1.390 . S
C1610 C1609 1.390 . S
C1610 C1611 1.394 1_556 S
C1610 C1616 1.465 . S
C1611 C1606 1.399 . S
C1611 C1610 1.394 1_554 S
C1611 C1612 1.516 . S
C1612 C1611 1.516 . S
C1612 C1613 1.502 . S
C1612 C1614 1.561 . S
C1612 C1615 1.526 . S
C1613 H1597 0.959 . S
C1613 H1598 0.959 . S
C1613 H1599 0.961 . S
C1613 C1612 1.502 . S
C1614 H1600 0.960 . S
C1614 H1601 0.961 . S
C1614 H1602 0.959 . S
C1614 C1612 1.561 . S
C1615 C1612 1.526 . S
C1615 C1616 1.396 1_554 S
C1615 C1620 1.390 . S
C1616 C1610 1.465 . S
C1616 C1615 1.396 1_556 S
C1616 C1617 1.399 . S
C1617 H1603 0.929 . S
C1617 C1616 1.399 . S
C1617 C1618 1.385 . S
C1618 H1604 0.931 . S
C1618 C1617 1.385 . S
C1618 C1619 1.389 . S
C1619 C1618 1.389 . S
C1619 C1620 1.387 1_556 S
C1620 H1605 0.930 . S
C1620 C1615 1.390 . S
C1620 C1619 1.387 1_554 S
H1621 C1633 0.930 . S
H1622 C1635 0.930 . S
H1623 C1636 0.930 . S
H1624 C1640 0.959 . S
H1625 C1640 0.959 . S
H1626 C1640 0.961 . S
H1627 C1641 0.960 . S
H1628 C1641 0.961 . S
H1629 C1641 0.959 . S
H1630 C1644 0.949 . S
H1631 C1645 0.936 . S
H1632 C1647 0.930 . S
C1633 H1621 0.930 . S
C1633 C1634 1.399 . S
C1633 C1638 1.399 . S
C1634 C1633 1.399 . S
C1634 C1635 1.376 1_554 S
C1635 H1622 0.930 . S
C1635 C1634 1.376 1_556 S
C1635 C1636 1.388 . S
C1636 H1623 0.930 . S
C1636 C1635 1.388 . S
C1636 C1637 1.390 1_556 S
C1637 C1636 1.390 1_554 S
C1637 C1638 1.394 . S
C1637 C1643 1.465 . S
C1638 C1633 1.399 . S
C1638 C1637 1.394 . S
C1638 C1639 1.516 . S
C1639 C1638 1.516 . S
C1639 C1640 1.502 . S
C1639 C1641 1.561 . S
C1639 C1642 1.526 . S
C1640 H1624 0.959 . S
C1640 H1625 0.959 . S
C1640 H1626 0.961 . S
C1640 C1639 1.502 . S
C1641 H1627 0.960 . S
C1641 H1628 0.961 . S
C1641 H1629 0.959 . S
C1641 C1639 1.561 . S
C1642 C1639 1.526 . S
C1642 C1643 1.396 . S
C1642 C1647 1.390 . S
C1643 C1637 1.465 . S
C1643 C1642 1.396 . S
C1643 C1644 1.387 1_554 S
C1644 H1630 0.949 . S
C1644 C1643 1.387 1_556 S
C1644 C1645 1.378 1_556 S
C1645 H1631 0.936 . S
C1645 C1644 1.378 1_554 S
C1645 C1646 1.389 . S
C1646 C1645 1.389 . S
C1646 C1647 1.387 . S
C1647 H1632 0.930 . S
C1647 C1642 1.390 . S
C1647 C1646 1.387 . S
C365 C13 1.583 . S
C377 C231 1.560 . S
C404 C257 1.620 . S
C392 C1 1.638 . S
C431 C189 1.628 . S
C419 C27 1.625 . S
C446 C15 1.358 . S
C458 C212 1.382 . S
C473 C28 1.458 . S
C485 C346 1.435 . S
C500 C55 1.354 . S
C512 C327 1.383 . S
C539 C280 1.599 . S
C527 C40 1.649 . S
C554 C43 1.680 . S
C566 C303 1.678 . S
C593 C208 1.652 . S
C581 C56 1.636 . S
C620 C258 1.398 . S
C608 C83 1.381 . S
C635 C96 1.569 . S
C647 C234 1.555 . S
C662 C71 1.665 . S
C674 C300 1.629 . S
C701 C323 1.573 . S
C689 C99 1.559 . S
C728 C349 1.579 . S
C716 C111 1.622 . S
C743 C113 1.586 . S
C755 C304 1.612 . S
C782 C281 1.396 . S
C770 C125 1.385 . S
C797 C139 1.482 . S
C809 C254 1.439 . S
C824 C153 1.384 . S
C836 C235 1.372 . S
C863 C211 1.629 . S
C851 C127 1.654 . S
C878 C141 1.680 . S
C890 C188 1.678 . S
C917 C277 1.599 . S
C905 C84 1.647 . S
C944 C350 1.402 . S
C932 C154 1.406 . S
C959 C68 1.567 . S
C971 C326 1.522 . S
C986 C166 1.667 . S
C998 C185 1.628 . S
C1025 C187 1.298 . S
C1013 C0 1.312 . S
C1040 C12 1.472 . S
C1052 C210 1.432 1_455 S
C1079 C232 1.203 . S
C1067 C14 1.199 . S
C1106 C253 1.316 . S
C1094 C26 1.313 . S
C1121 C41 1.383 . S
C1133 C184 1.369 . S
C1148 C42 1.405 . S
C1160 C207 1.407 . S
C1187 C233 1.319 . S
C1175 C29 1.434 . S
C1202 C54 1.307 . S
C1214 C255 1.348 . S
C1229 C69 1.272 . S
C1241 C186 1.247 . S
C1268 C230 1.307 . S
C1256 C70 1.327 . S
C1283 C85 1.420 . S
C1295 C256 1.390 . S
C1310 C82 1.181 . S
C1322 C278 1.163 . S
C1349 C302 1.280 . S
C1337 C110 1.353 . S
C1364 C98 1.443 . S
C1376 C279 1.416 . S
C1391 C124 1.187 . S
C1403 C324 1.216 . S
C1418 C112 1.329 . S
C1430 C345 1.320 . S
C1445 C126 1.392 . S
C1457 C299 1.371 . S
C1484 C276 1.403 . S
C1472 C140 1.401 . S
C1499 C138 1.421 . S
C1511 C325 1.392 . S
C1538 C347 1.360 . S
C1526 C152 1.319 . S
C1565 C301 1.292 . S
C1553 C97 1.259 . S
C1592 C322 1.337 . S
C1580 C167 1.356 . S
C1619 C348 1.298 . S
C1607 C57 1.396 . S
C1634 C155 1.167 . S
C1646 C209 1.172 . S
