# Generated by pormake.
# Topology gar, (4,6)-cn, num edge types: 1
# Building blocks:
#     Node 0, Type 0, BuildingBlock: QUQFOY_clean_sbu_3, # of connection points: 4
#     Node 1, Type 0, BuildingBlock: QUQFOY_clean_sbu_3, # of connection points: 4
#     Node 2, Type 0, BuildingBlock: QUQFOY_clean_sbu_3, # of connection points: 4
#     Node 3, Type 0, BuildingBlock: QUQFOY_clean_sbu_3, # of connection points: 4
#     Node 4, Type 0, BuildingBlock: QUQFOY_clean_sbu_3, # of connection points: 4
#     Node 5, Type 0, BuildingBlock: QUQFOY_clean_sbu_3, # of connection points: 4
#     Node 6, Type 0, BuildingBlock: QUQFOY_clean_sbu_3, # of connection points: 4
#     Node 7, Type 0, BuildingBlock: QUQFOY_clean_sbu_3, # of connection points: 4
#     Node 8, Type 0, BuildingBlock: QUQFOY_clean_sbu_3, # of connection points: 4
#     Node 9, Type 0, BuildingBlock: QUQFOY_clean_sbu_3, # of connection points: 4
#     Node 10, Type 0, BuildingBlock: QUQFOY_clean_sbu_3, # of connection points: 4
#     Node 11, Type 0, BuildingBlock: QUQFOY_clean_sbu_3, # of connection points: 4
#     Node 12, Type 0, BuildingBlock: QUQFOY_clean_sbu_3, # of connection points: 4
#     Node 13, Type 0, BuildingBlock: QUQFOY_clean_sbu_3, # of connection points: 4
#     Node 14, Type 0, BuildingBlock: QUQFOY_clean_sbu_3, # of connection points: 4
#     Node 15, Type 0, BuildingBlock: QUQFOY_clean_sbu_3, # of connection points: 4
#     Node 16, Type 0, BuildingBlock: QUQFOY_clean_sbu_3, # of connection points: 4
#     Node 17, Type 0, BuildingBlock: QUQFOY_clean_sbu_3, # of connection points: 4
#     Node 18, Type 0, BuildingBlock: QUQFOY_clean_sbu_3, # of connection points: 4
#     Node 19, Type 0, BuildingBlock: QUQFOY_clean_sbu_3, # of connection points: 4
#     Node 20, Type 0, BuildingBlock: QUQFOY_clean_sbu_3, # of connection points: 4
#     Node 21, Type 0, BuildingBlock: QUQFOY_clean_sbu_3, # of connection points: 4
#     Node 22, Type 0, BuildingBlock: QUQFOY_clean_sbu_3, # of connection points: 4
#     Node 23, Type 0, BuildingBlock: QUQFOY_clean_sbu_3, # of connection points: 4
#     Node 24, Type 1, BuildingBlock: KUMJIN_clean_sbu_0, # of connection points: 6
#     Node 25, Type 1, BuildingBlock: KUMJIN_clean_sbu_0, # of connection points: 6
#     Node 26, Type 1, BuildingBlock: KUMJIN_clean_sbu_0, # of connection points: 6
#     Node 27, Type 1, BuildingBlock: KUMJIN_clean_sbu_0, # of connection points: 6
#     Node 28, Type 1, BuildingBlock: KUMJIN_clean_sbu_0, # of connection points: 6
#     Node 29, Type 1, BuildingBlock: KUMJIN_clean_sbu_0, # of connection points: 6
#     Node 30, Type 1, BuildingBlock: KUMJIN_clean_sbu_0, # of connection points: 6
#     Node 31, Type 1, BuildingBlock: KUMJIN_clean_sbu_0, # of connection points: 6
#     Node 32, Type 1, BuildingBlock: KUMJIN_clean_sbu_0, # of connection points: 6
#     Node 33, Type 1, BuildingBlock: KUMJIN_clean_sbu_0, # of connection points: 6
#     Node 34, Type 1, BuildingBlock: KUMJIN_clean_sbu_0, # of connection points: 6
#     Node 35, Type 1, BuildingBlock: KUMJIN_clean_sbu_0, # of connection points: 6
#     Node 36, Type 1, BuildingBlock: KUMJIN_clean_sbu_0, # of connection points: 6
#     Node 37, Type 1, BuildingBlock: KUMJIN_clean_sbu_0, # of connection points: 6
#     Node 38, Type 1, BuildingBlock: KUMJIN_clean_sbu_0, # of connection points: 6
#     Node 39, Type 1, BuildingBlock: KUMJIN_clean_sbu_0, # of connection points: 6
#     Edge 40, Type (0, 1), BuildingBlock: ZUJKAS_clean_linker_0, # of connection points: 2
#     Edge 41, Type (0, 1), BuildingBlock: ZUJKAS_clean_linker_0, # of connection points: 2
#     Edge 42, Type (0, 1), BuildingBlock: ZUJKAS_clean_linker_0, # of connection points: 2
#     Edge 43, Type (0, 1), BuildingBlock: ZUJKAS_clean_linker_0, # of connection points: 2
#     Edge 44, Type (0, 1), BuildingBlock: ZUJKAS_clean_linker_0, # of connection points: 2
#     Edge 45, Type (0, 1), BuildingBlock: ZUJKAS_clean_linker_0, # of connection points: 2
#     Edge 46, Type (0, 1), BuildingBlock: ZUJKAS_clean_linker_0, # of connection points: 2
#     Edge 47, Type (0, 1), BuildingBlock: ZUJKAS_clean_linker_0, # of connection points: 2
#     Edge 48, Type (0, 1), BuildingBlock: ZUJKAS_clean_linker_0, # of connection points: 2
#     Edge 49, Type (0, 1), BuildingBlock: ZUJKAS_clean_linker_0, # of connection points: 2
#     Edge 50, Type (0, 1), BuildingBlock: ZUJKAS_clean_linker_0, # of connection points: 2
#     Edge 51, Type (0, 1), BuildingBlock: ZUJKAS_clean_linker_0, # of connection points: 2
#     Edge 52, Type (0, 1), BuildingBlock: ZUJKAS_clean_linker_0, # of connection points: 2
#     Edge 53, Type (0, 1), BuildingBlock: ZUJKAS_clean_linker_0, # of connection points: 2
#     Edge 54, Type (0, 1), BuildingBlock: ZUJKAS_clean_linker_0, # of connection points: 2
#     Edge 55, Type (0, 1), BuildingBlock: ZUJKAS_clean_linker_0, # of connection points: 2
#     Edge 56, Type (0, 1), BuildingBlock: ZUJKAS_clean_linker_0, # of connection points: 2
#     Edge 57, Type (0, 1), BuildingBlock: ZUJKAS_clean_linker_0, # of connection points: 2
#     Edge 58, Type (0, 1), BuildingBlock: ZUJKAS_clean_linker_0, # of connection points: 2
#     Edge 59, Type (0, 1), BuildingBlock: ZUJKAS_clean_linker_0, # of connection points: 2
#     Edge 60, Type (0, 1), BuildingBlock: ZUJKAS_clean_linker_0, # of connection points: 2
#     Edge 61, Type (0, 1), BuildingBlock: ZUJKAS_clean_linker_0, # of connection points: 2
#     Edge 62, Type (0, 1), BuildingBlock: ZUJKAS_clean_linker_0, # of connection points: 2
#     Edge 63, Type (0, 1), BuildingBlock: ZUJKAS_clean_linker_0, # of connection points: 2
#     Edge 64, Type (0, 1), BuildingBlock: ZUJKAS_clean_linker_0, # of connection points: 2
#     Edge 65, Type (0, 1), BuildingBlock: ZUJKAS_clean_linker_0, # of connection points: 2
#     Edge 66, Type (0, 1), BuildingBlock: ZUJKAS_clean_linker_0, # of connection points: 2
#     Edge 67, Type (0, 1), BuildingBlock: ZUJKAS_clean_linker_0, # of connection points: 2
#     Edge 68, Type (0, 1), BuildingBlock: ZUJKAS_clean_linker_0, # of connection points: 2
#     Edge 69, Type (0, 1), BuildingBlock: ZUJKAS_clean_linker_0, # of connection points: 2
#     Edge 70, Type (0, 1), BuildingBlock: ZUJKAS_clean_linker_0, # of connection points: 2
#     Edge 71, Type (0, 1), BuildingBlock: ZUJKAS_clean_linker_0, # of connection points: 2
#     Edge 72, Type (0, 1), BuildingBlock: ZUJKAS_clean_linker_0, # of connection points: 2
#     Edge 73, Type (0, 1), BuildingBlock: ZUJKAS_clean_linker_0, # of connection points: 2
#     Edge 74, Type (0, 1), BuildingBlock: ZUJKAS_clean_linker_0, # of connection points: 2
#     Edge 75, Type (0, 1), BuildingBlock: ZUJKAS_clean_linker_0, # of connection points: 2
#     Edge 76, Type (0, 1), BuildingBlock: ZUJKAS_clean_linker_0, # of connection points: 2
#     Edge 77, Type (0, 1), BuildingBlock: ZUJKAS_clean_linker_0, # of connection points: 2
#     Edge 78, Type (0, 1), BuildingBlock: ZUJKAS_clean_linker_0, # of connection points: 2
#     Edge 79, Type (0, 1), BuildingBlock: ZUJKAS_clean_linker_0, # of connection points: 2
#     Edge 80, Type (0, 1), BuildingBlock: ZUJKAS_clean_linker_0, # of connection points: 2
#     Edge 81, Type (0, 1), BuildingBlock: ZUJKAS_clean_linker_0, # of connection points: 2
#     Edge 82, Type (0, 1), BuildingBlock: ZUJKAS_clean_linker_0, # of connection points: 2
#     Edge 83, Type (0, 1), BuildingBlock: ZUJKAS_clean_linker_0, # of connection points: 2
#     Edge 84, Type (0, 1), BuildingBlock: ZUJKAS_clean_linker_0, # of connection points: 2
#     Edge 85, Type (0, 1), BuildingBlock: ZUJKAS_clean_linker_0, # of connection points: 2
#     Edge 86, Type (0, 1), BuildingBlock: ZUJKAS_clean_linker_0, # of connection points: 2
#     Edge 87, Type (0, 1), BuildingBlock: ZUJKAS_clean_linker_0, # of connection points: 2
#     Edge 88, Type (0, 1), BuildingBlock: ZUJKAS_clean_linker_0, # of connection points: 2
#     Edge 89, Type (0, 1), BuildingBlock: ZUJKAS_clean_linker_0, # of connection points: 2
#     Edge 90, Type (0, 1), BuildingBlock: ZUJKAS_clean_linker_0, # of connection points: 2
#     Edge 91, Type (0, 1), BuildingBlock: ZUJKAS_clean_linker_0, # of connection points: 2
#     Edge 92, Type (0, 1), BuildingBlock: ZUJKAS_clean_linker_0, # of connection points: 2
#     Edge 93, Type (0, 1), BuildingBlock: ZUJKAS_clean_linker_0, # of connection points: 2
#     Edge 94, Type (0, 1), BuildingBlock: ZUJKAS_clean_linker_0, # of connection points: 2
#     Edge 95, Type (0, 1), BuildingBlock: ZUJKAS_clean_linker_0, # of connection points: 2
#     Edge 96, Type (0, 1), BuildingBlock: ZUJKAS_clean_linker_0, # of connection points: 2
#     Edge 97, Type (0, 1), BuildingBlock: ZUJKAS_clean_linker_0, # of connection points: 2
#     Edge 98, Type (0, 1), BuildingBlock: ZUJKAS_clean_linker_0, # of connection points: 2
#     Edge 99, Type (0, 1), BuildingBlock: ZUJKAS_clean_linker_0, # of connection points: 2
#     Edge 100, Type (0, 1), BuildingBlock: ZUJKAS_clean_linker_0, # of connection points: 2
#     Edge 101, Type (0, 1), BuildingBlock: ZUJKAS_clean_linker_0, # of connection points: 2
#     Edge 102, Type (0, 1), BuildingBlock: ZUJKAS_clean_linker_0, # of connection points: 2
#     Edge 103, Type (0, 1), BuildingBlock: ZUJKAS_clean_linker_0, # of connection points: 2
#     Edge 104, Type (0, 1), BuildingBlock: ZUJKAS_clean_linker_0, # of connection points: 2
#     Edge 105, Type (0, 1), BuildingBlock: ZUJKAS_clean_linker_0, # of connection points: 2
#     Edge 106, Type (0, 1), BuildingBlock: ZUJKAS_clean_linker_0, # of connection points: 2
#     Edge 107, Type (0, 1), BuildingBlock: ZUJKAS_clean_linker_0, # of connection points: 2
#     Edge 108, Type (0, 1), BuildingBlock: ZUJKAS_clean_linker_0, # of connection points: 2
#     Edge 109, Type (0, 1), BuildingBlock: ZUJKAS_clean_linker_0, # of connection points: 2
#     Edge 110, Type (0, 1), BuildingBlock: ZUJKAS_clean_linker_0, # of connection points: 2
#     Edge 111, Type (0, 1), BuildingBlock: ZUJKAS_clean_linker_0, # of connection points: 2
#     Edge 112, Type (0, 1), BuildingBlock: ZUJKAS_clean_linker_0, # of connection points: 2
#     Edge 113, Type (0, 1), BuildingBlock: ZUJKAS_clean_linker_0, # of connection points: 2
#     Edge 114, Type (0, 1), BuildingBlock: ZUJKAS_clean_linker_0, # of connection points: 2
#     Edge 115, Type (0, 1), BuildingBlock: ZUJKAS_clean_linker_0, # of connection points: 2
#     Edge 116, Type (0, 1), BuildingBlock: ZUJKAS_clean_linker_0, # of connection points: 2
#     Edge 117, Type (0, 1), BuildingBlock: ZUJKAS_clean_linker_0, # of connection points: 2
#     Edge 118, Type (0, 1), BuildingBlock: ZUJKAS_clean_linker_0, # of connection points: 2
#     Edge 119, Type (0, 1), BuildingBlock: ZUJKAS_clean_linker_0, # of connection points: 2
#     Edge 120, Type (0, 1), BuildingBlock: ZUJKAS_clean_linker_0, # of connection points: 2
#     Edge 121, Type (0, 1), BuildingBlock: ZUJKAS_clean_linker_0, # of connection points: 2
#     Edge 122, Type (0, 1), BuildingBlock: ZUJKAS_clean_linker_0, # of connection points: 2
#     Edge 123, Type (0, 1), BuildingBlock: ZUJKAS_clean_linker_0, # of connection points: 2
#     Edge 124, Type (0, 1), BuildingBlock: ZUJKAS_clean_linker_0, # of connection points: 2
#     Edge 125, Type (0, 1), BuildingBlock: ZUJKAS_clean_linker_0, # of connection points: 2
#     Edge 126, Type (0, 1), BuildingBlock: ZUJKAS_clean_linker_0, # of connection points: 2
#     Edge 127, Type (0, 1), BuildingBlock: ZUJKAS_clean_linker_0, # of connection points: 2
#     Edge 128, Type (0, 1), BuildingBlock: ZUJKAS_clean_linker_0, # of connection points: 2
#     Edge 129, Type (0, 1), BuildingBlock: ZUJKAS_clean_linker_0, # of connection points: 2
#     Edge 130, Type (0, 1), BuildingBlock: ZUJKAS_clean_linker_0, # of connection points: 2
#     Edge 131, Type (0, 1), BuildingBlock: ZUJKAS_clean_linker_0, # of connection points: 2
#     Edge 132, Type (0, 1), BuildingBlock: ZUJKAS_clean_linker_0, # of connection points: 2
#     Edge 133, Type (0, 1), BuildingBlock: ZUJKAS_clean_linker_0, # of connection points: 2
#     Edge 134, Type (0, 1), BuildingBlock: ZUJKAS_clean_linker_0, # of connection points: 2
#     Edge 135, Type (0, 1), BuildingBlock: ZUJKAS_clean_linker_0, # of connection points: 2
# Relax obj value: 0.112
# Max RMSD: 0.312
# Mean RMSD: 0.145
data_MOF--net-gar--node1-QUQFOY_clean_sbu_3--node2-KUMJIN_clean_sbu_0--edge1-ZUJKAS_clean_linker_0
_symmetry_space_group_name_H-M    P1
_symmetry_Int_Tables_number       1
_symmetry_cell_setting            triclinic
loop_
_symmetry_equiv_pos_as_xyz
'x, y, z'
_cell_length_a     77.407536
_cell_length_b     73.767027
_cell_length_c     73.247675
_cell_angle_alpha  100.66408
_cell_angle_beta   92.90692
_cell_angle_gamma 102.23065
loop_
_atom_site_label
_atom_site_type_symbol
_atom_site_fract_x
_atom_site_fract_y
_atom_site_fract_z
_atom_type_partial_charge
C0 C 0.06448 0.31825 0.35676 0.0
O1 O 0.07526 0.32709 0.34716 0.0
Cd2 Cd 0.10684 0.33264 0.35022 0.0
O3 O 0.0698 0.31053 0.36946 0.0
Cd4 Cd 0.0973 0.307 0.38422 0.0
C5 C 0.10862 0.3543 0.39565 0.0
O6 O 0.11314 0.30524 0.35825 0.0
O7 O 0.12893 0.30914 0.38448 0.0
O8 O 0.0828 0.27592 0.38733 0.0
C9 C 0.12831 0.30849 0.36707 0.0
O10 O 0.11291 0.35553 0.37929 0.0
C11 C 0.08848 0.27872 0.40444 0.0
O12 O 0.10175 0.33858 0.39992 0.0
O13 O 0.09802 0.29484 0.41206 0.0
C14 C 0.97303 0.75585 0.68406 0.0
O15 O 0.98278 0.74886 0.69395 0.0
Cd16 Cd 0.0114 0.74482 0.68795 0.0
O17 O 0.97832 0.76289 0.67029 0.0
Cd18 Cd 0.00309 0.76671 0.65292 0.0
C19 C 0.99171 0.71993 0.64485 0.0
O20 O 0.02615 0.77105 0.67631 0.0
O21 O 0.03161 0.76035 0.64805 0.0
O22 O 0.00597 0.79902 0.65154 0.0
C23 C 0.037 0.7658 0.66525 0.0
O24 O -0.00024 0.7206 0.66067 0.0
C25 C 0.00277 0.79576 0.63392 0.0
O26 O 0.99044 0.73481 0.63899 0.0
O27 O -0.00108 0.77866 0.62513 0.0
C28 C 0.56466 0.81997 0.85921 0.0
O29 O 0.57529 0.82866 0.84938 0.0
Cd30 Cd 0.60674 0.83497 0.8526 0.0
O31 O 0.5701 0.81304 0.87249 0.0
Cd32 Cd 0.59783 0.81074 0.88809 0.0
C33 C 0.60867 0.85828 0.89807 0.0
O34 O 0.61229 0.80769 0.86131 0.0
O35 O 0.62954 0.8132 0.88675 0.0
O36 O 0.5832 0.77945 0.89094 0.0
C37 C 0.62786 0.81129 0.86917 0.0
O38 O 0.61223 0.85863 0.88131 0.0
C39 C 0.58951 0.78154 0.90774 0.0
O40 O 0.60234 0.84287 0.90328 0.0
O41 O 0.59937 0.79747 0.91549 0.0
C42 C 0.47288 0.25122 0.18678 0.0
O43 O 0.48427 0.24614 0.19657 0.0
Cd44 Cd 0.51193 0.2433 0.18643 0.0
O45 O 0.47684 0.2581 0.17246 0.0
Cd46 Cd 0.50147 0.26591 0.15446 0.0
C47 C 0.49177 0.21996 0.14251 0.0
O48 O 0.5258 0.27164 0.1774 0.0
O49 O 0.53031 0.26016 0.14913 0.0
O50 O 0.50053 0.29793 0.15208 0.0
C51 C 0.5365 0.26678 0.16596 0.0
O52 O 0.49987 0.22019 0.15817 0.0
C53 C 0.5001 0.29438 0.13437 0.0
O54 O 0.48983 0.23501 0.13749 0.0
O55 O 0.49921 0.27739 0.12631 0.0
C56 C 0.0465 0.79838 0.13692 0.0
O57 O 0.05599 0.78977 0.14524 0.0
Cd58 Cd 0.08514 0.78647 0.13878 0.0
O59 O 0.05271 0.80683 0.12407 0.0
Cd60 Cd 0.08219 0.81196 0.10876 0.0
C61 C 0.0759 0.76389 0.09264 0.0
O62 O 0.1025 0.81717 0.13767 0.0
O63 O 0.11477 0.81111 0.1124 0.0
O64 O 0.07824 0.84447 0.10851 0.0
C65 C 0.11661 0.81569 0.13008 0.0
O66 O 0.08051 0.76334 0.10941 0.0
C67 C 0.08004 0.84439 0.09136 0.0
O68 O 0.07432 0.77943 0.0881 0.0
O69 O 0.0834 0.8294 0.08202 0.0
C70 C 0.48084 0.769 0.39648 0.0
O71 O 0.49361 0.77965 0.39071 0.0
Cd72 Cd 0.52455 0.78588 0.40003 0.0
O73 O 0.48415 0.75982 0.40909 0.0
Cd74 Cd 0.51452 0.76024 0.42767 0.0
C75 C 0.52414 0.80812 0.44487 0.0
O76 O 0.53402 0.75756 0.40179 0.0
O77 O 0.54787 0.77082 0.42856 0.0
O78 O 0.51081 0.726 0.42881 0.0
C79 C 0.54878 0.76352 0.41163 0.0
O80 O 0.53017 0.8091 0.42916 0.0
C81 C 0.51269 0.72784 0.44643 0.0
O82 O 0.51586 0.79227 0.44812 0.0
O83 O 0.51414 0.74455 0.4557 0.0
C84 C 0.54634 0.30241 0.63675 0.0
O85 O 0.55589 0.29642 0.64779 0.0
Cd86 Cd 0.58455 0.29083 0.6413 0.0
O87 O 0.55241 0.30739 0.62206 0.0
Cd88 Cd 0.58231 0.31167 0.60752 0.0
C89 C 0.57696 0.26389 0.59583 0.0
O90 O 0.60306 0.31945 0.63672 0.0
O91 O 0.61448 0.30978 0.61175 0.0
O92 O 0.57655 0.34304 0.60596 0.0
C93 C 0.61676 0.31605 0.62924 0.0
O94 O 0.5811 0.26587 0.61327 0.0
C95 C 0.57994 0.34352 0.58927 0.0
O96 O 0.57471 0.27808 0.58899 0.0
O97 O 0.58513 0.3293 0.58061 0.0
C98 C 0.97993 0.2683 0.89796 0.0
O99 O 0.99149 0.27951 0.89126 0.0
Cd100 Cd 0.0229 0.28629 0.89854 0.0
O101 O 0.98472 0.25959 0.9103 0.0
Cd102 Cd 0.01575 0.2612 0.92728 0.0
C103 C 0.0242 0.30887 0.94368 0.0
O104 O 0.03348 0.25834 0.89963 0.0
O105 O 0.04869 0.26976 0.92601 0.0
O106 O 0.00596 0.22757 0.93136 0.0
C107 C 0.04867 0.26346 0.9087 0.0
O108 O 0.02933 0.30961 0.92754 0.0
C109 C 0.01422 0.23017 0.94741 0.0
O110 O 0.01655 0.29305 0.94747 0.0
O111 O 0.02221 0.24709 0.95448 0.0
C112 C 0.44233 0.02847 0.3213 0.0
O113 O 0.45152 0.02299 0.30839 0.0
Cd114 Cd 0.44172 0.01974 0.27655 0.0
O115 O 0.42854 0.03443 0.31799 0.0
Cd116 Cd 0.40992 0.04112 0.29489 0.0
C117 C 0.39961 0.99466 0.28081 0.0
O118 O 0.43224 0.04811 0.27589 0.0
O119 O 0.40567 0.04243 0.26227 0.0
O120 O 0.41135 0.07211 0.31143 0.0
C121 C 0.4223 0.04666 0.26124 0.0
O122 O 0.41491 0.99494 0.27503 0.0
C123 C 0.39462 0.07016 0.31048 0.0
O124 O 0.39508 0.0095 0.28877 0.0
O125 O 0.38493 0.05379 0.30392 0.0
C126 C 0.32154 0.16239 0.5125 0.0
O127 O 0.3105 0.15297 0.52141 0.0
Cd128 Cd 0.2812 0.1566 0.52637 0.0
O129 O 0.31727 0.17496 0.50445 0.0
Cd130 Cd 0.29002 0.18821 0.50099 0.0
C131 C 0.29317 0.20366 0.54802 0.0
O132 O 0.26768 0.15846 0.49707 0.0
O133 O 0.25727 0.18355 0.49924 0.0
O134 O 0.29908 0.18878 0.46972 0.0
C135 C 0.25425 0.16569 0.49687 0.0
O136 O 0.28761 0.1863 0.54866 0.0
C137 C 0.29659 0.20514 0.46922 0.0
O138 O 0.29571 0.20889 0.53253 0.0
O139 O 0.29124 0.21391 0.48368 0.0
C140 C 0.13647 0.01126 0.80152 0.0
O141 O 0.12847 0.02027 0.792 0.0
Cd142 Cd 0.13583 0.0278 0.76187 0.0
O143 O 0.1493 0.00429 0.79447 0.0
Cd144 Cd 0.16509 1.00193 0.76117 0.0
C145 C 0.17962 0.05334 0.76666 0.0
O146 O 0.1368 1.00017 0.73902 0.0
O147 O 0.16089 0.00413 0.72604 0.0
O148 O 0.16752 0.96603 0.75851 0.0
C149 C 0.14417 1.00251 0.7242 0.0
O150 O 0.16306 0.05268 0.76422 0.0
C151 C 0.18435 0.96813 0.75978 0.0
O152 O 0.18476 0.03788 0.76753 0.0
O153 O 0.19253 0.98539 0.76145 0.0
C154 C 0.34479 0.96355 0.01449 0.0
O155 O 0.33682 0.97388 0.00669 0.0
Cd156 Cd 0.30597 0.96206 0.99694 0.0
O157 O 0.3366 0.94803 0.0179 0.0
Cd158 Cd 0.3099 0.92614 0.01758 0.0
C159 C 0.31314 0.92004 0.97232 0.0
O160 O 0.29424 0.94958 0.02253 0.0
O161 O 0.27798 0.92112 0.01418 0.0
O162 O 0.32292 0.92787 0.04768 0.0
C163 C 0.27895 0.93877 0.01898 0.0
O164 O 0.30855 0.93564 0.97224 0.0
C165 C 0.31726 0.91035 0.04714 0.0
O166 O 0.31511 0.91387 0.98717 0.0
O167 O 0.30839 0.89998 0.03242 0.0
C168 C 0.33771 0.41699 0.03011 0.0
O169 O 0.32848 0.42378 0.01948 0.0
Cd170 Cd 0.29676 0.41497 0.01405 0.0
O171 O 0.3302 0.40414 0.03844 0.0
Cd172 Cd 0.29836 0.38638 0.03688 0.0
C173 C 0.29326 0.36996 0.99105 0.0
O174 O 0.28247 0.41234 0.04194 0.0
O175 O 0.26684 0.38485 0.02876 0.0
O176 O 0.30575 0.38396 0.06898 0.0
C177 C 0.26721 0.40172 0.03666 0.0
O178 O 0.28925 0.38576 0.99073 0.0
C179 C 0.29626 0.36739 0.06738 0.0
O180 O 0.29962 0.36664 0.00615 0.0
O181 O 0.28835 0.35932 0.05144 0.0
C182 C 0.80153 0.11151 0.02561 0.0
O183 O 0.78881 0.10205 0.03261 0.0
Cd184 Cd 0.75983 0.10887 0.03327 0.0
O185 O 0.79996 0.1258 0.01899 0.0
Cd186 Cd 0.77885 0.14398 0.01571 0.0
C187 C 0.77384 0.15275 0.06072 0.0
O188 O 0.75293 0.12018 0.00602 0.0
O189 O 0.7495 0.14851 0.01718 0.0
O190 O 0.78285 0.14485 0.98448 0.0
C191 C 0.74273 0.13162 0.00893 0.0
O192 O 0.76383 0.13623 0.0583 0.0
C193 C 0.78679 0.16275 0.9871 0.0
O194 O 0.7826 0.15841 0.04782 0.0
O195 O 0.78916 0.17221 0.00376 0.0
C196 C 0.1553 0.5452 0.26776 0.0
O197 O 0.14415 0.54966 0.25708 0.0
Cd198 Cd 0.15048 0.55427 0.22653 0.0
O199 O 0.16895 0.54018 0.26173 0.0
Cd200 Cd 0.18402 0.53466 0.23433 0.0
C201 C 0.19181 0.5806 0.24495 0.0
O202 O 0.16235 0.52956 0.21021 0.0
O203 O 0.18952 0.53897 0.20343 0.0
O204 O 0.18245 0.50413 0.23933 0.0
C205 C 0.17303 0.53409 0.19833 0.0
O206 O 0.17646 0.57961 0.23709 0.0
C207 C 0.19897 0.5054 0.2383 0.0
O208 O 0.19745 0.56599 0.24657 0.0
O209 O 0.20869 0.52067 0.23554 0.0
C210 C 0.83756 0.91745 0.53232 0.0
O211 O 0.82919 0.92741 0.52452 0.0
Cd212 Cd 0.79832 0.91747 0.5145 0.0
O213 O 0.82943 0.90203 0.53649 0.0
Cd214 Cd 0.7974 0.8844 0.53506 0.0
C215 C 0.79675 0.87264 0.48866 0.0
O216 O 0.78256 0.9109 0.54063 0.0
O217 O 0.76583 0.88363 0.5284 0.0
O218 O 0.80537 0.88217 0.56707 0.0
C219 C 0.76701 0.90085 0.53569 0.0
O220 O 0.79618 0.8899 0.48945 0.0
C221 C 0.79614 0.86551 0.56567 0.0
O222 O 0.79789 0.86614 0.50352 0.0
O223 O 0.78802 0.85724 0.54986 0.0
C224 C 0.9576 0.06247 0.30803 0.0
O225 O 0.96393 0.05226 0.29536 0.0
Cd226 Cd 0.95538 0.04424 0.26247 0.0
O227 O 0.94539 0.07086 0.30319 0.0
Cd228 Cd 0.92735 0.07148 0.26917 0.0
C229 C 0.91213 0.0198 0.26372 0.0
O230 O 0.955 0.07216 0.24994 0.0
O231 O 0.93051 0.0669 0.23336 0.0
O232 O 0.92311 0.10687 0.28082 0.0
C233 C 0.94727 0.06946 0.23361 0.0
O234 O 0.92804 0.01979 0.26006 0.0
C235 C 0.90782 0.10529 0.27245 0.0
O236 O 0.90762 0.03591 0.26806 0.0
O237 O 0.90124 0.08853 0.26334 0.0
C238 C 0.30163 0.61277 0.52693 0.0
O239 O 0.28826 0.60127 0.53072 0.0
Cd240 Cd 0.26019 0.6095 0.5336 0.0
O241 O 0.30034 0.62842 0.52292 0.0
Cd242 Cd 0.28054 0.64778 0.51843 0.0
C243 C 0.27607 0.65296 0.56338 0.0
O244 O 0.25522 0.62398 0.50822 0.0
O245 O 0.25065 0.65197 0.51774 0.0
O246 O 0.28811 0.64824 0.48815 0.0
C247 C 0.24436 0.63463 0.51075 0.0
O248 O 0.26628 0.63625 0.55998 0.0
C249 C 0.29003 0.66601 0.49003 0.0
O250 O 0.28432 0.66015 0.55092 0.0
O251 O 0.29026 0.67583 0.50631 0.0
C252 C 0.45788 0.56182 0.80782 0.0
O253 O 0.46396 0.55165 0.7949 0.0
Cd254 Cd 0.45383 0.54344 0.76247 0.0
O255 O 0.44557 0.57022 0.80323 0.0
Cd256 Cd 0.42734 0.5711 0.76919 0.0
C257 C 0.41086 0.51975 0.76482 0.0
O258 O 0.45473 0.57169 0.74956 0.0
O259 O 0.43003 0.56539 0.7332 0.0
O260 O 0.42306 0.60647 0.78121 0.0
C261 C 0.44681 0.56864 0.73327 0.0
O262 O 0.4266 0.51871 0.76137 0.0
C263 C 0.40803 0.60509 0.77239 0.0
O264 O 0.407 0.53622 0.76842 0.0
O265 O 0.40163 0.58849 0.76284 0.0
C266 C 0.64913 0.04419 0.76628 0.0
O267 O 0.63869 0.04803 0.75438 0.0
Cd268 Cd 0.64875 0.05023 0.7243 0.0
O269 O 0.66305 0.03884 0.76164 0.0
Cd270 Cd 0.68004 0.03153 0.73653 0.0
C271 C 0.69041 0.07713 0.74101 0.0
O272 O 0.65885 0.02246 0.71139 0.0
O273 O 0.68577 0.03353 0.70512 0.0
O274 O 0.6793 1.00019 0.73861 0.0
C275 C 0.66976 0.02547 0.69935 0.0
O276 O 0.67502 0.07612 0.73325 0.0
C277 C 0.69597 0.0032 0.74222 0.0
O278 O 0.69523 0.06266 0.74445 0.0
O279 O 0.70526 0.01998 0.74426 0.0
C280 C 0.82188 0.66248 0.01088 0.0
O281 O 0.81047 0.65204 0.01852 0.0
Cd282 Cd 0.781 0.65531 0.02283 0.0
O283 O 0.81795 0.6759 0.00399 0.0
Cd284 Cd 0.79061 0.68891 0.00112 0.0
C285 C 0.79237 0.70138 0.04806 0.0
O286 O 0.76761 0.6595 0.99448 0.0
O287 O 0.75824 0.68498 0.00295 0.0
O288 O 0.79663 0.68873 0.96905 0.0
C289 C 0.75452 0.66719 0.99705 0.0
O290 O 0.78603 0.68376 0.04685 0.0
C291 C 0.79652 0.70593 0.9693 0.0
O292 O 0.79645 0.70794 0.03351 0.0
O293 O 0.79387 0.71571 0.98469 0.0
C294 C 0.94128 0.52962 0.82224 0.0
O295 O 0.95011 0.52336 0.80933 0.0
Cd296 Cd 0.94183 0.51997 0.77706 0.0
O297 O 0.92803 0.53647 0.8191 0.0
Cd298 Cd 0.91078 0.54381 0.79558 0.0
C299 C 0.89855 0.49743 0.77948 0.0
O300 O 0.93333 0.54859 0.77659 0.0
O301 O 0.90726 0.54683 0.76343 0.0
O302 O 0.91308 0.57499 0.81227 0.0
C303 C 0.92367 0.54786 0.76194 0.0
O304 O 0.91375 0.497 0.77367 0.0
C305 C 0.89636 0.57326 0.81162 0.0
O306 O 0.895 0.5125 0.78829 0.0
O307 O 0.88649 0.55699 0.80497 0.0
C308 C 0.84842 0.45278 0.51326 0.0
O309 O 0.84214 0.46744 0.51654 0.0
Cd310 Cd 0.81219 0.46091 0.50334 0.0
O311 O 0.83855 0.43643 0.50978 0.0
Cd312 Cd 0.80997 0.42587 0.51889 0.0
C313 C 0.81218 0.41815 0.47473 0.0
O314 O 0.79444 0.44992 0.52609 0.0
O315 O 0.77899 0.42201 0.51192 0.0
O316 O 0.82268 0.43034 0.54964 0.0
C317 C 0.7795 0.43899 0.51987 0.0
O318 O 0.81219 0.43563 0.47611 0.0
C319 C 0.81925 0.41269 0.54945 0.0
O320 O 0.81098 0.41029 0.48874 0.0
O321 O 0.81075 0.40127 0.53501 0.0
C322 C 0.63717 0.5124 0.30194 0.0
O323 O 0.63094 0.5232 0.29304 0.0
Cd324 Cd 0.6373 0.52971 0.26256 0.0
O325 O 0.64849 0.50337 0.29422 0.0
Cd326 Cd 0.66503 0.50182 0.26121 0.0
C327 C 0.68101 0.55368 0.26702 0.0
O328 O 0.63685 0.50134 0.23964 0.0
O329 O 0.66077 0.50431 0.22627 0.0
O330 O 0.66859 0.46592 0.25373 0.0
C331 C 0.64412 0.50327 0.22467 0.0
O332 O 0.6647 0.55433 0.26587 0.0
C333 C 0.68482 0.4683 0.25979 0.0
O334 O 0.68528 0.5375 0.2663 0.0
O335 O 0.69217 0.48567 0.26616 0.0
Eu336 Eu 0.02601 0.02719 0.00905 0.0
C337 C 0.09068 0.09063 0.05116 0.0
C338 C 0.1028 0.10584 0.02656 0.0
C339 C 0.10964 0.12243 0.05879 0.0
C340 C 0.09231 0.09014 0.03242 0.0
C341 C 0.0995 0.10673 0.06459 0.0
C342 C 0.11134 0.12196 0.03982 0.0
C343 C 0.08916 0.09003 0.08869 0.0
N344 N 0.08106 0.07514 0.05638 0.0
C345 C 0.08096 0.07435 0.07491 0.0
C346 C 0.09832 0.1064 0.08351 0.0
Eu347 Eu 0.06925 0.04796 0.03256 0.0
N348 N 0.08355 0.07449 0.01987 0.0
C349 C 0.08482 0.07395 0.00115 0.0
C350 C 0.10437 0.10498 0.00753 0.0
C351 C 0.09529 0.08899 0.99478 0.0
H352 H 0.07498 0.06135 0.07912 0.0
H353 H 0.09609 0.08832 0.97997 0.0
H354 H 0.11933 0.13412 0.03554 0.0
H355 H 0.08878 0.08929 0.10329 0.0
H356 H 0.07734 0.0625 0.99066 0.0
H357 H 0.00183 0.98263 0.05937 0.0
H358 H 0.11233 0.11669 0.00252 0.0
H359 H 0.01826 0.01602 0.9625 0.0
H360 H 0.01519 0.01159 0.04965 0.0
H361 H 0.00653 0.98807 0.93748 0.0
H362 H 0.11644 0.1349 0.0689 0.0
H363 H 0.99228 0.9527 0.03627 0.0
H364 H 0.98788 0.93595 0.00298 0.0
H365 H 0.10492 0.11845 0.0942 0.0
H366 H 0.98921 0.93735 0.96984 0.0
N367 N 0.01383 0.99912 0.02057 0.0
C368 C 0.01107 0.9991 0.03894 0.0
C369 C 0.99825 0.96558 0.03172 0.0
C370 C 0.00022 0.96566 0.01289 0.0
C371 C 0.00352 0.98244 0.04475 0.0
C372 C 0.00811 0.98284 0.00764 0.0
H373 H 0.99594 0.95667 0.94535 0.0
N374 N 0.01569 1.00045 0.98436 0.0
C375 C 0.00736 0.98652 0.95188 0.0
C376 C 0.00905 0.98355 0.989 0.0
C377 C 0.01414 1.00228 0.96611 0.0
C378 C 0.00142 0.96884 0.95638 0.0
C379 C 0.00187 0.96723 0.97511 0.0
O380 O 0.00785 0.03601 0.99082 0.0
O381 O 0.04485 0.05528 0.02095 0.0
O382 O 0.05034 0.05527 0.05487 0.0
O383 O 0.02251 0.03959 0.04 0.0
O384 O 0.03563 0.05043 0.99336 0.0
O385 O 0.00025 0.03106 0.01793 0.0
O386 O 0.08582 0.03833 0.0518 0.0
O387 O 0.05011 0.02022 0.02127 0.0
O388 O 0.04466 0.02043 0.98634 0.0
O389 O 0.07254 0.03511 0.00165 0.0
O390 O 0.05932 0.02602 0.04936 0.0
O391 O 0.09439 0.04132 0.02456 0.0
C392 C 0.04415 0.06332 0.00708 0.0
C393 C 0.97733 0.02936 0.99457 0.0
C394 C 0.94861 0.03713 0.99232 0.0
C395 C 0.96598 0.04105 0.00055 0.0
C396 C 0.94256 0.02125 0.97785 0.0
C397 C 0.9713 0.01328 0.98035 0.0
C398 C 0.95389 0.00927 0.97201 0.0
C399 C 0.0329 0.0494 0.05524 0.0
C400 C 0.99572 0.03578 0.00242 0.0
C401 C 0.99468 0.95001 0.98031 0.0
C402 C 0.9939 0.94922 0.99917 0.0
C403 C 0.05041 0.01324 0.03584 0.0
C404 C 0.1166 0.04394 0.049 0.0
C405 C 0.12926 0.03573 0.03996 0.0
C406 C 0.14628 0.03818 0.04879 0.0
C407 C 0.15097 0.05025 0.0664 0.0
C408 C 0.12132 0.05594 0.0666 0.0
C409 C 0.13856 0.05928 0.07512 0.0
C410 C 0.06217 0.02572 0.98621 0.0
C411 C 0.09826 0.03737 0.04068 0.0
H412 H 0.97086 0.05364 0.01135 0.0
H413 H 0.9291 0.018 0.97132 0.0
H414 H 0.97999 0.00408 0.97555 0.0
H415 H 0.94921 0.99697 0.96093 0.0
H416 H 0.12548 0.02662 0.02629 0.0
H417 H 0.16394 0.05219 0.07372 0.0
H418 H 0.11167 0.06224 0.07401 0.0
H419 H 0.14211 0.06833 0.0888 0.0
Eu420 Eu 0.3009 0.77727 0.24779 0.0
C421 C 0.28028 0.83934 0.30737 0.0
C422 C 0.30835 0.85683 0.32446 0.0
C423 C 0.28312 0.87152 0.32483 0.0
C424 C 0.29783 0.84001 0.31327 0.0
C425 C 0.27275 0.85506 0.3134 0.0
C426 C 0.30089 0.87246 0.33022 0.0
C427 C 0.24467 0.83683 0.29761 0.0
N428 N 0.27044 0.82328 0.29621 0.0
C429 C 0.25259 0.82165 0.29206 0.0
C430 C 0.25481 0.85367 0.30823 0.0
Eu431 Eu 0.28358 0.79657 0.29224 0.0
N432 N 0.30469 0.82448 0.30794 0.0
C433 C 0.32232 0.82552 0.31253 0.0
C434 C 0.32615 0.85759 0.32954 0.0
C435 C 0.3332 0.84196 0.32334 0.0
H436 H 0.24412 0.8084 0.28481 0.0
H437 H 0.34711 0.84258 0.32677 0.0
H438 H 0.30877 0.88536 0.33894 0.0
H439 H 0.23062 0.83534 0.29408 0.0
H440 H 0.3286 0.81423 0.30745 0.0
H441 H 0.25138 0.72932 0.19384 0.0
H442 H 0.33463 0.87029 0.33797 0.0
H443 H 0.34329 0.77284 0.25615 0.0
H444 H 0.26666 0.75965 0.21298 0.0
H445 H 0.36067 0.74854 0.25136 0.0
H446 H 0.27749 0.88362 0.32963 0.0
H447 H 0.26438 0.70139 0.19261 0.0
H448 H 0.29032 0.68846 0.20064 0.0
H449 H 0.24856 0.86535 0.31277 0.0
H450 H 0.3202 0.69366 0.21635 0.0
N451 N 0.2863 0.74871 0.22638 0.0
C452 C 0.2717 0.74742 0.21437 0.0
C453 C 0.27068 0.71457 0.20202 0.0
C454 C 0.28682 0.71648 0.2124 0.0
C455 C 0.26327 0.73025 0.20274 0.0
C456 C 0.2944 0.7339 0.22472 0.0
H457 H 0.34657 0.716 0.23492 0.0
N458 N 0.31859 0.75399 0.24452 0.0
C459 C 0.34664 0.74483 0.24677 0.0
C460 C 0.31107 0.73667 0.23394 0.0
C461 C 0.33655 0.75853 0.24967 0.0
C462 C 0.33863 0.72652 0.2375 0.0
C463 C 0.32082 0.72236 0.23047 0.0
O464 O 0.32614 0.79217 0.24033 0.0
O465 O 0.30308 0.80145 0.27182 0.0
O466 O 0.26746 0.80108 0.26662 0.0
O467 O 0.2715 0.77783 0.24221 0.0
O468 O 0.3008 0.80704 0.24487 0.0
O469 O 0.30234 0.78371 0.22017 0.0
O470 O 0.25697 0.78529 0.2994 0.0
O471 O 0.28135 0.77292 0.26813 0.0
O472 O 0.31827 0.77521 0.27378 0.0
O473 O 0.3073 0.78613 0.30223 0.0
O474 O 0.28034 0.76578 0.29435 0.0
O475 O 0.27825 0.80023 0.32129 0.0
C476 C 0.30278 0.81396 0.26244 0.0
C477 C 0.33003 0.79313 0.20843 0.0
C478 C 0.33656 0.80794 0.18214 0.0
C479 C 0.32711 0.80576 0.1975 0.0
C480 C 0.34976 0.79773 0.17809 0.0
C481 C 0.34298 0.78263 0.20451 0.0
C482 C 0.35293 0.78507 0.1893 0.0
C483 C 0.2629 0.79084 0.2495 0.0
C484 C 0.3191 0.79227 0.2238 0.0
C485 C 0.31295 0.70479 0.21902 0.0
C486 C 0.29596 0.70184 0.21005 0.0
C487 C 0.27957 0.7596 0.27661 0.0
C488 C 0.25244 0.78205 0.33043 0.0
C489 C 0.25981 0.76893 0.33775 0.0
C490 C 0.25117 0.76001 0.35104 0.0
C491 C 0.23535 0.76432 0.35716 0.0
C492 C 0.23663 0.78637 0.33651 0.0
C493 C 0.22812 0.77753 0.3499 0.0
C494 C 0.31901 0.77872 0.29239 0.0
C495 C 0.26136 0.79225 0.31719 0.0
H496 H 0.31737 0.81417 0.20115 0.0
H497 H 0.35736 0.79936 0.16625 0.0
H498 H 0.34538 0.77277 0.21309 0.0
H499 H 0.36303 0.77712 0.18616 0.0
H500 H 0.27219 0.76577 0.33327 0.0
H501 H 0.22879 0.75765 0.36774 0.0
H502 H 0.231 0.79676 0.33105 0.0
H503 H 0.21602 0.781 0.35474 0.0
Eu504 Eu 0.56847 0.03689 0.51013 0.0
C505 C 0.50114 1.00046 0.54609 0.0
C506 C 0.48354 0.9764 0.52107 0.0
C507 C 0.48193 0.97246 0.55319 0.0
C508 C 0.49618 0.99365 0.5272 0.0
C509 C 0.49383 0.99007 0.5593 0.0
C510 C 0.47675 0.96567 0.53412 0.0
C511 C 0.50935 0.01601 0.58373 0.0
N512 N 0.51247 0.01764 0.55164 0.0
C513 C 0.51611 0.02587 0.57014 0.0
C514 C 0.49832 0.99794 0.5783 0.0
Eu515 Eu 0.52385 0.03299 0.52778 0.0
N516 N 0.50289 0.00438 0.51491 0.0
C517 C 0.49664 0.99922 0.49645 0.0
C518 C 0.47762 0.97074 0.50209 0.0
C519 C 0.48398 0.98237 0.48979 0.0
H520 H 0.52463 0.03987 0.57432 0.0
H521 H 0.47917 0.97836 0.47515 0.0
H522 H 0.46718 0.95231 0.52964 0.0
H523 H 0.5126 0.02237 0.59838 0.0
H524 H 0.50122 0.00796 0.48663 0.0
H525 H 0.60941 0.09395 0.56356 0.0
H526 H 0.46782 0.95768 0.49688 0.0
H527 H 0.57016 0.02951 0.46392 0.0
H528 H 0.58991 0.06274 0.5515 0.0
H529 H 0.58209 0.04731 0.44 0.0
H530 H 0.47629 0.96421 0.56312 0.0
H531 H 0.61945 0.11542 0.54209 0.0
H532 H 0.62056 0.12062 0.50923 0.0
H533 H 0.49301 0.99038 0.58886 0.0
H534 H 0.61329 0.10789 0.47558 0.0
N535 N 0.58827 0.06629 0.52324 0.0
C536 C 0.59402 0.07179 0.54182 0.0
C537 C 0.6108 0.10165 0.53664 0.0
C538 C 0.6057 0.09554 0.51751 0.0
C539 C 0.6052 0.08956 0.54879 0.0
C540 C 0.59441 0.07747 0.51113 0.0
H541 H 0.59927 0.08044 0.44964 0.0
N542 N 0.58013 0.05257 0.48656 0.0
C543 C 0.58438 0.054 0.45462 0.0
C544 C 0.59029 0.07036 0.49221 0.0
C545 C 0.57768 0.04397 0.46813 0.0
C546 C 0.59405 0.07271 0.46012 0.0
C547 C 0.59736 0.08103 0.47912 0.0
O548 O 0.57974 0.01396 0.49631 0.0
O549 O 0.54337 0.01774 0.5145 0.0
O550 O 0.5393 0.01896 0.54511 0.0
O551 O 0.56771 0.03493 0.54061 0.0
O552 O 0.55313 0.0107 0.48944 0.0
O553 O 0.59272 0.03121 0.52255 0.0
O554 O 0.51441 0.05748 0.54097 0.0
O555 O 0.54896 0.05226 0.52337 0.0
O556 O 0.55266 0.04968 0.49169 0.0
O557 O 0.52426 0.03467 0.49745 0.0
O558 O 0.53944 0.05868 0.54885 0.0
O559 O 0.4988 0.03856 0.51695 0.0
C560 C 0.54089 0.00513 0.49985 0.0
C561 C 0.61045 0.01639 0.5016 0.0
C562 C 0.63599 1.00193 0.50024 0.0
C563 C 0.62069 0.00515 0.50858 0.0
C564 C 0.64116 0.01028 0.48506 0.0
C565 C 0.61598 0.02497 0.48665 0.0
C566 C 0.63128 0.02191 0.47844 0.0
C567 C 0.55633 0.02543 0.55024 0.0
C568 C 0.59321 0.01736 0.5088 0.0
C569 C 0.6079 0.09938 0.48542 0.0
C570 C 0.61203 0.10664 0.50458 0.0
C571 C 0.5515 0.06449 0.53834 0.0
C572 C 0.48382 0.05622 0.53907 0.0
C573 C 0.47208 0.06552 0.53127 0.0
C574 C 0.45822 0.07093 0.54127 0.0
C575 C 0.45647 0.06671 0.5592 0.0
C576 C 0.48133 0.05166 0.55664 0.0
C577 C 0.46774 0.05692 0.56663 0.0
C578 C 0.53528 0.04492 0.48816 0.0
C579 C 0.49987 0.05359 0.52991 0.0
H580 H 0.61643 0.99836 0.52003 0.0
H581 H 0.6529 0.00789 0.47843 0.0
H582 H 0.60829 0.03368 0.48107 0.0
H583 H 0.63537 0.02836 0.46677 0.0
H584 H 0.47399 0.06872 0.51757 0.0
H585 H 0.4466 0.07124 0.56779 0.0
H586 H 0.49025 0.04465 0.56296 0.0
H587 H 0.46619 0.05379 0.5804 0.0
Eu588 Eu 0.27437 0.29191 0.76576 0.0
C589 C 0.33961 0.26847 0.80445 0.0
C590 C 0.35171 0.29596 0.82884 0.0
C591 C 0.3575 0.26543 0.83155 0.0
C592 C 0.34172 0.28759 0.81151 0.0
C593 C 0.34766 0.25721 0.81427 0.0
C594 C 0.3595 0.28476 0.83883 0.0
C595 C 0.33667 0.23073 0.78867 0.0
N596 N 0.33011 0.26094 0.78771 0.0
C597 C 0.32911 0.24251 0.77939 0.0
C598 C 0.34589 0.23808 0.80626 0.0
Eu599 Eu 0.31862 0.28166 0.77192 0.0
N600 N 0.33398 0.29801 0.80152 0.0
C601 C 0.33619 0.31709 0.80806 0.0
C602 C 0.35367 0.31534 0.83563 0.0
C603 C 0.34587 0.32594 0.82516 0.0
H604 H 0.32229 0.23689 0.7656 0.0
H605 H 0.34729 0.34097 0.83027 0.0
H606 H 0.36721 0.29095 0.85212 0.0
H607 H 0.33552 0.21606 0.78217 0.0
H608 H 0.3302 0.32576 0.80059 0.0
H609 H 0.24447 0.2319 0.70848 0.0
H610 H 0.36119 0.32226 0.84887 0.0
H611 H 0.27016 0.33646 0.77141 0.0
H612 H 0.26021 0.24715 0.73881 0.0
H613 H 0.25866 0.35745 0.75354 0.0
H614 H 0.36376 0.257 0.8393 0.0
H615 H 0.23407 0.25099 0.68773 0.0
H616 H 0.23076 0.28272 0.6826 0.0
H617 H 0.35186 0.22897 0.81338 0.0
H618 H 0.23466 0.31686 0.69476 0.0
N619 N 0.25931 0.27532 0.73606 0.0
C620 C 0.25571 0.25601 0.73042 0.0
C621 C 0.24108 0.25794 0.70122 0.0
C622 C 0.24409 0.27755 0.70723 0.0
C623 C 0.24683 0.24712 0.71293 0.0
C624 C 0.25328 0.28593 0.72496 0.0
H625 H 0.24491 0.34479 0.72119 0.0
N626 N 0.2638 0.31254 0.74906 0.0
C627 C 0.25783 0.3428 0.74716 0.0
C628 C 0.25561 0.30513 0.73168 0.0
C629 C 0.26437 0.33092 0.7572 0.0
C630 C 0.25011 0.33561 0.72891 0.0
C631 C 0.24866 0.31649 0.72104 0.0
O632 O 0.25978 0.3046 0.78762 0.0
O633 O 0.29546 0.28903 0.78655 0.0
O634 O 0.29917 0.25593 0.77921 0.0
O635 O 0.27171 0.26079 0.76901 0.0
O636 O 0.28712 0.31432 0.79023 0.0
O637 O 0.24822 0.2767 0.7721 0.0
O638 O 0.33302 0.2696 0.74952 0.0
O639 O 0.29721 0.2841 0.75157 0.0
O640 O 0.29419 0.31774 0.75881 0.0
O641 O 0.32154 0.31294 0.76937 0.0
O642 O 0.30661 0.2594 0.74663 0.0
O643 O 0.34458 0.29731 0.76567 0.0
C644 C 0.29599 0.30435 0.79801 0.0
C645 C 0.22858 0.29471 0.78724 0.0
C646 C 0.20103 0.29344 0.80293 0.0
C647 C 0.2174 0.28799 0.80051 0.0
C648 C 0.19625 0.30584 0.79221 0.0
C649 C 0.22324 0.30693 0.77668 0.0
C650 C 0.20726 0.31254 0.77926 0.0
C651 C 0.28163 0.2499 0.77493 0.0
C652 C 0.24635 0.29024 0.78552 0.0
C653 C 0.24001 0.30834 0.70317 0.0
C654 C 0.23776 0.28891 0.69626 0.0
C655 C 0.29641 0.26885 0.74 0.0
C656 C 0.36419 0.27971 0.74989 0.0
C657 C 0.37495 0.28637 0.73632 0.0
C658 C 0.3911 0.28068 0.73321 0.0
C659 C 0.39622 0.26827 0.74369 0.0
C660 C 0.36985 0.26751 0.76028 0.0
C661 C 0.3857 0.26179 0.75713 0.0
C662 C 0.31172 0.32383 0.76331 0.0
C663 C 0.34642 0.28405 0.75193 0.0
H664 H 0.22138 0.27861 0.80885 0.0
H665 H 0.18388 0.31037 0.79388 0.0
H666 H 0.23152 0.31235 0.76658 0.0
H667 H 0.20339 0.32215 0.77116 0.0
H668 H 0.37067 0.29565 0.72805 0.0
H669 H 0.40843 0.26356 0.74146 0.0
H670 H 0.36189 0.26214 0.77063 0.0
H671 H 0.38981 0.25217 0.76506 0.0
Eu672 Eu 0.04417 0.05792 0.52948 0.0
C673 C 0.0621 0.99398 0.46862 0.0
C674 C 0.03443 0.98051 0.44914 0.0
C675 C 0.06215 0.97525 0.43754 0.0
C676 C 0.04382 0.99123 0.46611 0.0
C677 C 0.07145 0.98588 0.45441 0.0
C678 C 0.04369 0.97259 0.43492 0.0
C679 C 0.09847 0.99848 0.47491 0.0
N680 N 0.07075 0.00416 0.4851 0.0
C681 C 0.08863 0.00608 0.48863 0.0
C682 C 0.08985 0.98839 0.45769 0.0
Eu683 Eu 0.05312 0.01434 0.50859 0.0
N684 N 0.0352 0.99906 0.48015 0.0
C685 C 0.0171 0.99662 0.4779 0.0
C686 C 0.01598 0.97802 0.44693 0.0
C687 C 0.00731 0.98616 0.46136 0.0
H688 H 0.09527 0.01348 0.50213 0.0
H689 H 0.99304 0.98446 0.45974 0.0
H690 H 0.03668 0.96432 0.42184 0.0
H691 H 0.11265 1.00021 0.47771 0.0
H692 H 0.00985 0.00298 0.48846 0.0
H693 H 0.10233 0.08523 0.5813 0.0
H694 H 0.00833 0.96991 0.43412 0.0
H695 H 0.00233 0.06151 0.53372 0.0
H696 H 0.08686 0.0706 0.5508 0.0
H697 H 0.98396 0.07322 0.55791 0.0
H698 H 0.0691 0.96892 0.42649 0.0
H699 H 0.08566 0.09552 0.60765 0.0
H700 H 0.05669 0.09965 0.61929 0.0
H701 H 0.09747 0.98236 0.44713 0.0
H702 H 0.02459 0.09647 0.61299 0.0
N703 N 0.06086 0.07144 0.55906 0.0
C704 C 0.079 0.07472 0.5618 0.0
C705 C 0.07859 0.08882 0.59413 0.0
C706 C 0.06018 0.08627 0.59122 0.0
C707 C 0.08803 0.08309 0.57931 0.0
C708 C 0.05156 0.07738 0.57333 0.0
H709 H 0.99744 0.08673 0.59022 0.0
N710 N 0.02568 0.06751 0.55239 0.0
C711 C 0.99783 0.07382 0.5615 0.0
C712 C 0.03346 0.07544 0.56986 0.0
C713 C 0.00824 0.06717 0.54788 0.0
C714 C 0.00548 0.0814 0.57971 0.0
C715 C 0.02354 0.08252 0.58405 0.0
O716 O 0.03119 0.07644 0.51713 0.0
O717 O 0.04461 0.03966 0.50092 0.0
O718 O 0.0732 0.03606 0.49788 0.0
O719 O 0.07264 0.06166 0.52132 0.0
O720 O 0.02151 0.04782 0.50636 0.0
O721 O 0.05889 0.08653 0.52793 0.0
O722 O 0.06745 0.99665 0.52087 0.0
O723 O 0.05284 0.03279 0.53695 0.0
O724 O 0.02253 0.03641 0.53866 0.0
O725 O 0.02511 0.0099 0.51742 0.0
O726 O 0.07621 0.02478 0.53122 0.0
O727 O 0.0393 0.98609 0.51177 0.0
C728 C 0.02956 0.04013 0.49305 0.0
C729 C 0.04208 0.10914 0.52294 0.0
C730 C 0.04247 0.13736 0.51045 0.0
C731 C 0.04807 0.12056 0.51035 0.0
C732 C 0.03102 0.14293 0.52356 0.0
C733 C 0.03082 0.11478 0.53621 0.0
C734 C 0.02539 0.13174 0.53654 0.0
C735 C 0.08034 0.05318 0.50759 0.0
C736 C 0.04521 0.09012 0.51935 0.0
C737 C 0.032 0.09098 0.60193 0.0
C738 C 0.05027 0.0928 0.60551 0.0
C739 C 0.06815 0.03269 0.54438 0.0
C740 C 0.05672 0.96375 0.51515 0.0
C741 C 0.04965 0.95129 0.52645 0.0
C742 C 0.05478 0.93414 0.52541 0.0
C743 C 0.06675 0.9292 0.51267 0.0
C744 C 0.06846 0.95872 0.50216 0.0
C745 C 0.07339 0.94139 0.5009 0.0
C746 C 0.01635 0.01869 0.52987 0.0
C747 C 0.05361 0.98279 0.51943 0.0
H748 H 0.05637 0.11586 0.49976 0.0
H749 H 0.02656 0.15592 0.52381 0.0
H750 H 0.02582 0.10586 0.54583 0.0
H751 H 0.01653 0.13603 0.54661 0.0
H752 H 0.04084 0.95535 0.53676 0.0
H753 H 0.07091 0.91597 0.51187 0.0
H754 H 0.07419 0.96832 0.49345 0.0
H755 H 0.08263 0.93759 0.49108 0.0
Eu756 Eu 0.31855 0.80163 0.76229 0.0
C757 C 0.26996 0.74068 0.79382 0.0
C758 C 0.27465 0.71199 0.77453 0.0
C759 C 0.26557 0.71149 0.80572 0.0
C760 C 0.27468 0.73146 0.7772 0.0
C761 C 0.26496 0.73065 0.80808 0.0
C762 C 0.27042 0.70218 0.78899 0.0
C763 C 0.25722 0.75865 0.8252 0.0
N764 N 0.2692 0.75912 0.79563 0.0
C765 C 0.2621 0.76789 0.8106 0.0
C766 C 0.25889 0.74001 0.82405 0.0
Eu767 Eu 0.27779 0.77391 0.77041 0.0
N768 N 0.27828 0.74118 0.76328 0.0
C769 C 0.28101 0.73191 0.74603 0.0
C770 C 0.27831 0.70275 0.7572 0.0
C771 C 0.2813 0.71271 0.74284 0.0
H772 H 0.26029 0.7821 0.81124 0.0
H773 H 0.28386 0.70563 0.72927 0.0
H774 H 0.27042 0.68727 0.78719 0.0
H775 H 0.252 0.76582 0.8372 0.0
H776 H 0.28349 0.73918 0.73466 0.0
H777 H 0.31783 0.86935 0.8089 0.0
H778 H 0.27845 0.68783 0.75463 0.0
H779 H 0.33461 0.79501 0.72081 0.0
H780 H 0.31299 0.83522 0.80009 0.0
H781 H 0.34349 0.81282 0.69603 0.0
H782 H 0.26187 0.7036 0.81656 0.0
H783 H 0.32716 0.88944 0.7861 0.0
H784 H 0.33476 0.89181 0.75376 0.0
H785 H 0.25491 0.73278 0.83528 0.0
H786 H 0.34053 0.87636 0.72269 0.0
N787 N 0.32043 0.83487 0.77219 0.0
C788 C 0.31759 0.84328 0.78979 0.0
C789 C 0.32541 0.87422 0.78208 0.0
C790 C 0.32818 0.86573 0.7641 0.0
C791 C 0.32015 0.86294 0.79498 0.0
C792 C 0.32582 0.84581 0.75957 0.0
H793 H 0.34372 0.84697 0.70101 0.0
N794 N 0.32798 0.81824 0.73854 0.0
C795 C 0.33927 0.81982 0.7088 0.0
C796 C 0.32924 0.83718 0.74212 0.0
C797 C 0.33397 0.80971 0.72268 0.0
C798 C 0.33942 0.83908 0.71169 0.0
C799 C 0.33488 0.84813 0.7287 0.0
O800 O 0.3437 0.79479 0.75553 0.0
O801 O 0.30696 0.7735 0.77008 0.0
O802 O 0.29336 0.78059 0.79814 0.0
O803 O 0.31592 0.80482 0.79312 0.0
O804 O 0.32175 0.77245 0.74762 0.0
O805 O 0.34203 0.81302 0.78214 0.0
O806 O 0.25222 0.78014 0.77531 0.0
O807 O 0.28912 0.80222 0.76239 0.0
O808 O 0.30235 0.79543 0.73473 0.0
O809 O 0.2804 0.77038 0.73944 0.0
O810 O 0.27377 0.80302 0.7841 0.0
O811 O 0.25443 0.75856 0.75133 0.0
C812 C 0.31425 0.76243 0.75894 0.0
C813 C 0.37031 0.81501 0.77081 0.0
C814 C 0.39997 0.82407 0.78641 0.0
C815 C 0.3819 0.81657 0.78645 0.0
C816 C 0.4065 0.83048 0.77064 0.0
C817 C 0.37675 0.8213 0.75495 0.0
C818 C 0.39486 0.82911 0.75496 0.0
C819 C 0.30688 0.79489 0.80406 0.0
C820 C 0.35211 0.80481 0.77118 0.0
C821 C 0.3364 0.86778 0.73288 0.0
C822 C 0.33318 0.87658 0.75059 0.0
C823 C 0.28131 0.81335 0.77302 0.0
C824 C 0.22606 0.75807 0.76243 0.0
C825 C 0.21353 0.75776 0.74807 0.0
C826 C 0.19559 0.75223 0.75016 0.0
C827 C 0.18997 0.7464 0.76646 0.0
C828 C 0.22066 0.75206 0.77878 0.0
C829 C 0.20256 0.74612 0.78071 0.0
C830 C 0.28897 0.7809 0.72861 0.0
C831 C 0.24408 0.76782 0.76078 0.0
H832 H 0.37693 0.81132 0.79854 0.0
H833 H 0.42059 0.83596 0.77027 0.0
H834 H 0.36796 0.81984 0.74256 0.0
H835 H 0.39994 0.83371 0.74267 0.0
H836 H 0.21768 0.7629 0.73565 0.0
H837 H 0.17595 0.74241 0.76824 0.0
H838 H 0.23025 0.75249 0.79016 0.0
H839 H 0.1983 0.74182 0.79341 0.0
Eu840 Eu 0.55429 0.03776 0.04158 0.0
C841 C 0.49925 0.04685 0.97825 0.0
C842 C 0.48305 0.01608 0.96111 0.0
C843 C 0.46907 0.04279 0.96416 0.0
C844 C 0.49857 0.02784 0.97165 0.0
C845 C 0.48469 0.05462 0.97388 0.0
C846 C 0.46819 0.02353 0.95794 0.0
C847 C 0.50277 0.08567 0.98654 0.0
N848 N 0.51457 0.05807 0.98755 0.0
C849 C 0.51678 0.07741 0.99053 0.0
C850 C 0.48652 0.07421 0.97851 0.0
Eu851 Eu 0.53848 0.04301 0.99264 0.0
N852 N 0.51348 0.02122 0.974 0.0
C853 C 0.51417 0.00373 0.96402 0.0
C854 C 0.48319 0.99741 0.95312 0.0
C855 C 0.49896 0.99134 0.95425 0.0
H856 H 0.52947 0.08677 0.99584 0.0
H857 H 0.49956 0.97727 0.94716 0.0
H858 H 0.45623 0.01468 0.94993 0.0
H859 H 0.50464 0.10092 0.98933 0.0
H860 H 0.52644 0.99908 0.96348 0.0
H861 H 0.58545 0.10178 0.0935 0.0
H862 H 0.47152 0.98794 0.94513 0.0
H863 H 0.56574 0.9947 0.0379 0.0
H864 H 0.56106 0.07958 0.07255 0.0
H865 H 0.59161 0.9823 0.04457 0.0
H866 H 0.4578 0.04854 0.9608 0.0
H867 H 0.61415 0.09298 0.09854 0.0
H868 H 0.63212 0.06832 0.09323 0.0
H869 H 0.47575 0.08068 0.97516 0.0
H870 H 0.63389 0.03581 0.07963 0.0
N871 N 0.57634 0.05913 0.06406 0.0
C872 C 0.57373 0.07579 0.07404 0.0
C873 C 0.60359 0.08331 0.08901 0.0
C874 C 0.60563 0.06549 0.08022 0.0
C875 C 0.58743 0.08833 0.08618 0.0
C876 C 0.59152 0.05346 0.06779 0.0
H877 H 0.61885 0.00365 0.06169 0.0
N878 N 0.57856 0.02379 0.04861 0.0
C879 C 0.59234 0.99734 0.04849 0.0
C880 C 0.59268 0.03529 0.05981 0.0
C881 C 0.57775 0.00468 0.04427 0.0
C882 C 0.60762 0.00941 0.05823 0.0
C883 C 0.60776 0.02851 0.06451 0.0
O884 O 0.54124 0.01218 0.05025 0.0
O885 O 0.53323 0.03368 0.0188 0.0
O886 O 0.53614 0.06706 0.01585 0.0
O887 O 0.55839 0.06846 0.03895 0.0
O888 O 0.52587 0.04051 0.04508 0.0
O889 O 0.541 0.0401 0.06699 0.0
O890 O 0.55174 0.06803 0.98292 0.0
O891 O 0.56021 0.04719 0.015 0.0
O892 O 0.55665 0.01321 0.01879 0.0
O893 O 0.53508 0.01247 0.99513 0.0
O894 O 0.56622 0.03826 0.98794 0.0
O895 O 0.54581 0.03962 0.96419 0.0
C896 C 0.52032 0.03586 0.02761 0.0
C897 C 0.53653 0.01422 0.08221 0.0
C898 C 0.52329 0.01171 0.11097 0.0
C899 C 0.52559 0.0201 0.09553 0.0
C900 C 0.53223 0.99758 0.11347 0.0
C901 C 0.54569 1.0002 0.08466 0.0
C902 C 0.54357 0.99197 0.10037 0.0
C903 C 0.54638 0.07575 0.03129 0.0
C904 C 0.53626 0.02168 0.0652 0.0
C905 C 0.62215 0.04072 0.0761 0.0
C906 C 0.62111 0.05921 0.08389 0.0
C907 C 0.57224 0.04341 0.00526 0.0
C908 C 0.55976 0.06637 0.95144 0.0
C909 C 0.56939 0.05639 0.93942 0.0
C910 C 0.57577 0.06345 0.92415 0.0
C911 C 0.57248 0.0806 0.92078 0.0
C912 C 0.55672 0.08372 0.94845 0.0
C913 C 0.56306 0.09078 0.93305 0.0
C914 C 0.54656 0.00482 0.00317 0.0
C915 C 0.55207 0.05792 0.96633 0.0
H916 H 0.51822 0.03069 0.09348 0.0
H917 H 0.53027 0.99081 0.12536 0.0
H918 H 0.5541 0.99534 0.07434 0.0
H919 H 0.55041 0.98097 0.10219 0.0
H920 H 0.57182 0.04301 0.94182 0.0
H921 H 0.57742 0.08618 0.90889 0.0
H922 H 0.54914 0.0915 0.95773 0.0
H923 H 0.56059 0.10406 0.93057 0.0
Eu924 Eu 0.30526 0.30753 0.27594 0.0
C925 C 0.23897 0.24588 0.2446 0.0
C926 C 0.2243 0.23885 0.27179 0.0
C927 C 0.20715 0.23187 0.24174 0.0
C928 C 0.23995 0.24546 0.26349 0.0
C929 C 0.22253 0.23864 0.23351 0.0
C930 C 0.20799 0.23216 0.26085 0.0
C931 C 0.23772 0.24323 0.20633 0.0
N932 N 0.2541 0.25223 0.23679 0.0
C933 C 0.25364 0.25019 0.21771 0.0
C934 C 0.22207 0.23757 0.21425 0.0
Eu935 Eu 0.28127 0.25787 0.25622 0.0
N936 N 0.25608 0.25103 0.27369 0.0
C937 C 0.25706 0.25063 0.29235 0.0
C938 C 0.22544 0.23874 0.29083 0.0
C939 C 0.24187 0.24478 0.30115 0.0
H940 H 0.26563 0.25297 0.2108 0.0
H941 H 0.24291 0.24482 0.31596 0.0
H942 H 0.19598 0.22682 0.267 0.0
H943 H 0.23766 0.24169 0.19133 0.0
H944 H 0.26927 0.25514 0.30104 0.0
H945 H 0.34546 0.32795 0.21954 0.0
H946 H 0.21373 0.23392 0.29767 0.0
H947 H 0.31934 0.31234 0.32155 0.0
H948 H 0.31849 0.31687 0.23299 0.0
H949 H 0.34686 0.32215 0.34194 0.0
H950 H 0.19453 0.22616 0.23339 0.0
H951 H 0.37434 0.33567 0.23822 0.0
H952 H 0.39136 0.33908 0.26868 0.0
H953 H 0.20979 0.23179 0.20532 0.0
H954 H 0.39181 0.33726 0.30172 0.0
N955 N 0.33101 0.31647 0.25974 0.0
C956 C 0.33055 0.31946 0.24178 0.0
C957 C 0.36236 0.33027 0.24437 0.0
C958 C 0.36296 0.32803 0.26286 0.0
C959 C 0.3461 0.326 0.23383 0.0
C960 C 0.34695 0.32084 0.2703 0.0
H961 H 0.37547 0.33107 0.32896 0.0
N962 N 0.33187 0.31278 0.2961 0.0
C963 C 0.34731 0.32084 0.32701 0.0
C964 C 0.34735 0.31909 0.2889 0.0
C965 C 0.33166 0.31476 0.31514 0.0
C966 C 0.36338 0.32595 0.31964 0.0
C967 C 0.36356 0.32549 0.3005 0.0
O968 O 0.29847 0.3244 0.30124 0.0
O969 O 0.2803 0.28523 0.2743 0.0
O970 O 0.28238 0.27654 0.23452 0.0
O971 O 0.29385 0.3088 0.24751 0.0
O972 O 0.27782 0.31186 0.26998 0.0
O973 O 0.31311 0.33819 0.28085 0.0
O974 O 0.28583 0.23996 0.23054 0.0
O975 O 0.30575 0.28043 0.25763 0.0
O976 O 0.30495 0.28806 0.29676 0.0
O977 O 0.2936 0.25583 0.28394 0.0
O978 O 0.30935 0.25387 0.26008 0.0
O979 O 0.27414 0.22721 0.25298 0.0
C980 C 0.2695 0.29484 0.27053 0.0
C981 C 0.3025 0.35778 0.30496 0.0
C982 C 0.28575 0.38144 0.30237 0.0
C983 C 0.28907 0.36356 0.29582 0.0
C984 C 0.29579 0.39332 0.31833 0.0
C985 C 0.31249 0.36961 0.32087 0.0
C986 C 0.30908 0.38734 0.32757 0.0
C987 C 0.28624 0.29469 0.23362 0.0
C988 C 0.30734 0.34016 0.29741 0.0
C989 C 0.37935 0.33231 0.29298 0.0
C990 C 0.37907 0.33343 0.27419 0.0
C991 C 0.31711 0.27117 0.26004 0.0
C992 C 0.2854 0.2076 0.22921 0.0
C993 C 0.29761 0.20188 0.2403 0.0
C994 C 0.30321 0.18521 0.23362 0.0
C995 C 0.29652 0.17437 0.21582 0.0
C996 C 0.27878 0.19672 0.21148 0.0
C997 C 0.28434 0.18015 0.20482 0.0
C998 C 0.30161 0.26992 0.29763 0.0
C999 C 0.27868 0.22438 0.2359 0.0
H1000 H 0.28148 0.3543 0.28347 0.0
H1001 H 0.29369 0.40738 0.32336 0.0
H1002 H 0.32312 0.36524 0.32788 0.0
H1003 H 0.31695 0.39657 0.33972 0.0
H1004 H 0.30267 0.21028 0.25404 0.0
H1005 H 0.30044 0.16125 0.2106 0.0
H1006 H 0.26916 0.20098 0.20288 0.0
H1007 H 0.27908 0.17168 0.1912 0.0
Eu1008 Eu 0.5435 0.55853 0.03028 0.0
C1009 C 0.56365 0.49538 0.96994 0.0
C1010 C 0.53683 0.48241 0.94899 0.0
C1011 C 0.56513 0.47743 0.93884 0.0
C1012 C 0.54548 0.49271 0.96645 0.0
C1013 C 0.57365 0.48757 0.95624 0.0
C1014 C 0.54676 0.47489 0.93521 0.0
C1015 C 0.59967 0.49939 0.97831 0.0
N1016 N 0.5715 0.50513 0.98691 0.0
C1017 C 0.58919 0.50681 0.99144 0.0
C1018 C 0.59189 0.48983 0.96058 0.0
Eu1019 Eu 0.5528 0.51509 0.00937 0.0
N1020 N 0.53623 0.50003 0.98011 0.0
C1021 C 0.51816 0.49727 0.9771 0.0
C1022 C 0.51843 0.47981 0.9459 0.0
C1023 C 0.50907 0.48729 0.96004 0.0
H1024 H 0.59518 0.51388 0.00528 0.0
H1025 H 0.49481 0.4854 0.95783 0.0
H1026 H 0.54033 0.46694 0.92177 0.0
H1027 H 0.6137 0.50088 0.98193 0.0
H1028 H 0.51048 0.50297 0.9875 0.0
H1029 H 0.60269 0.5867 0.08082 0.0
H1030 H 0.51132 0.47202 0.9327 0.0
H1031 H 0.50147 0.56034 0.03566 0.0
H1032 H 0.58678 0.57119 0.05078 0.0
H1033 H 0.48349 0.57207 0.06028 0.0
H1034 H 0.5726 0.47135 0.92815 0.0
H1035 H 0.5865 0.59759 0.10734 0.0
H1036 H 0.55774 0.60167 0.11953 0.0
H1037 H 0.60001 0.48398 0.95046 0.0
H1038 H 0.52548 0.59782 0.11402 0.0
N1039 N 0.5609 0.57259 0.05937 0.0
C1040 C 0.57907 0.57577 0.06179 0.0
C1041 C 0.5792 0.59063 0.09399 0.0
C1042 C 0.56075 0.58793 0.09145 0.0
C1043 C 0.58838 0.58457 0.07907 0.0
C1044 C 0.55183 0.5787 0.07378 0.0
H1045 H 0.49777 0.58691 0.09204 0.0
N1046 N 0.52542 0.56784 0.05359 0.0
C1047 C 0.49754 0.57325 0.06345 0.0
C1048 C 0.53361 0.57635 0.07077 0.0
C1049 C 0.50772 0.56659 0.0496 0.0
C1050 C 0.50565 0.58161 0.08136 0.0
C1051 C 0.5239 0.58339 0.08518 0.0
O1052 O 0.52954 0.57663 0.01823 0.0
O1053 O 0.54384 0.54018 0.00174 0.0
O1054 O 0.57304 0.53729 0.99898 0.0
O1055 O 0.57162 0.56304 0.02184 0.0
O1056 O 0.52051 0.54779 0.00765 0.0
O1057 O 0.55756 0.58701 0.0278 0.0
O1058 O 0.56599 0.49722 0.02283 0.0
O1059 O 0.55249 0.53358 0.03757 0.0
O1060 O 0.52351 0.5366 0.04089 0.0
O1061 O 0.52423 0.51116 0.01733 0.0
O1062 O 0.57588 0.52562 0.03212 0.0
O1063 O 0.5384 0.4867 0.01173 0.0
C1064 C 0.52859 0.5404 0.99419 0.0
C1065 C 0.54042 0.6095 0.02363 0.0
C1066 C 0.54241 0.63881 0.01259 0.0
C1067 C 0.54741 0.62159 0.01192 0.0
C1068 C 0.53057 0.64407 0.02539 0.0
C1069 C 0.52878 0.61487 0.03657 0.0
C1070 C 0.52395 0.63221 0.03747 0.0
C1071 C 0.57974 0.55475 0.0084 0.0
C1072 C 0.54346 0.5904 0.01981 0.0
C1073 C 0.53271 0.59234 0.10279 0.0
C1074 C 0.55109 0.59454 0.10593 0.0
C1075 C 0.56776 0.53365 0.04515 0.0
C1076 C 0.55546 0.46422 0.01624 0.0
C1077 C 0.54728 0.45106 0.02641 0.0
C1078 C 0.55192 0.43351 0.025 0.0
C1079 C 0.56471 0.42916 0.01297 0.0
C1080 C 0.56815 0.45972 0.00423 0.0
C1081 C 0.5727 0.4422 0.0026 0.0
C1082 C 0.51654 0.51941 0.03123 0.0
C1083 C 0.55212 0.48327 0.02042 0.0
H1084 H 0.55606 0.61716 0.0016 0.0
H1085 H 0.52653 0.65735 0.02608 0.0
H1086 H 0.52309 0.60551 0.04554 0.0
H1087 H 0.51481 0.63629 0.0473 0.0
H1088 H 0.53755 0.45469 0.03576 0.0
H1089 H 0.56882 0.41587 0.01189 0.0
H1090 H 0.57482 0.46983 0.9965 0.0
H1091 H 0.5827 0.43886 0.99355 0.0
Eu1092 Eu 0.81799 0.30179 0.26223 0.0
C1093 C 0.76976 0.24115 0.29589 0.0
C1094 C 0.77293 0.21209 0.27603 0.0
C1095 C 0.76455 0.21178 0.30749 0.0
C1096 C 0.77368 0.23173 0.27896 0.0
C1097 C 0.76483 0.23118 0.31021 0.0
C1098 C 0.76861 0.20226 0.29045 0.0
C1099 C 0.7594 0.25994 0.32837 0.0
N1100 N 0.76992 0.25985 0.2981 0.0
C1101 C 0.7642 0.26916 0.31374 0.0
C1102 C 0.75987 0.2409 0.32667 0.0
Eu1103 Eu 0.7778 0.27448 0.27267 0.0
N1104 N 0.77743 0.24151 0.26511 0.0
C1105 C 0.77988 0.23219 0.24777 0.0
C1106 C 0.77609 0.20274 0.25853 0.0
C1107 C 0.77943 0.21282 0.24431 0.0
H1108 H 0.76352 0.2838 0.31494 0.0
H1109 H 0.78171 0.2057 0.23064 0.0
H1110 H 0.76803 0.18721 0.28843 0.0
H1111 H 0.7552 0.26748 0.34087 0.0
H1112 H 0.78267 0.23945 0.23645 0.0
H1113 H 0.81291 0.37072 0.3034 0.0
H1114 H 0.77568 0.1877 0.25577 0.0
H1115 H 0.83415 0.29288 0.2211 0.0
H1116 H 0.81272 0.33722 0.29817 0.0
H1117 H 0.84335 0.30922 0.19538 0.0
H1118 H 0.76087 0.20391 0.31835 0.0
H1119 H 0.81851 0.38836 0.27797 0.0
H1120 H 0.82643 0.38865 0.24535 0.0
H1121 H 0.756 0.23372 0.33796 0.0
H1122 H 0.83477 0.37202 0.21601 0.0
N1123 N 0.81798 0.3348 0.26944 0.0
C1124 C 0.81536 0.34427 0.28668 0.0
C1125 C 0.81845 0.3734 0.27544 0.0
C1126 C 0.82196 0.364 0.25812 0.0
C1127 C 0.81536 0.36353 0.28983 0.0
C1128 C 0.82169 0.34447 0.25551 0.0
H1129 H 0.84138 0.34256 0.19739 0.0
N1130 N 0.82663 0.31657 0.23713 0.0
C1131 C 0.83845 0.31664 0.20748 0.0
C1132 C 0.82624 0.3351 0.23892 0.0
C1133 C 0.83327 0.30745 0.22204 0.0
C1134 C 0.83728 0.33544 0.20866 0.0
C1135 C 0.83137 0.345 0.22461 0.0
O1136 O 0.84344 0.295 0.25695 0.0
O1137 O 0.80686 0.27399 0.27095 0.0
O1138 O 0.79513 0.28102 0.29933 0.0
O1139 O 0.81554 0.30651 0.29322 0.0
O1140 O 0.82109 0.27237 0.24809 0.0
O1141 O 0.8414 0.31557 0.28176 0.0
O1142 O 0.75255 0.28121 0.27901 0.0
O1143 O 0.78884 0.30217 0.26377 0.0
O1144 O 0.8011 0.29444 0.2349 0.0
O1145 O 0.77947 0.27029 0.2417 0.0
O1146 O 0.77461 0.30393 0.2866 0.0
O1147 O 0.75397 0.26062 0.25388 0.0
C1148 C 0.81379 0.26262 0.25973 0.0
C1149 C 0.86995 0.31618 0.27118 0.0
C1150 C 0.89985 0.32487 0.28633 0.0
C1151 C 0.88168 0.31812 0.28684 0.0
C1152 C 0.90628 0.33019 0.27005 0.0
C1153 C 0.87634 0.32137 0.25485 0.0
C1154 C 0.89451 0.32847 0.25437 0.0
C1155 C 0.80797 0.29614 0.30466 0.0
C1156 C 0.85165 0.30646 0.27199 0.0
C1157 C 0.83101 0.36423 0.2269 0.0
C1158 C 0.82626 0.3737 0.24361 0.0
C1159 C 0.78184 0.3136 0.27487 0.0
C1160 C 0.72579 0.2603 0.26521 0.0
C1161 C 0.71368 0.2594 0.25018 0.0
C1162 C 0.69565 0.25263 0.25115 0.0
C1163 C 0.68959 0.24646 0.26717 0.0
C1164 C 0.71988 0.25417 0.28133 0.0
C1165 C 0.70174 0.24719 0.28223 0.0
C1166 C 0.78737 0.28002 0.22991 0.0
C1167 C 0.74402 0.26982 0.26405 0.0
H1168 H 0.87673 0.31368 0.2993 0.0
H1169 H 0.9204 0.33505 0.26927 0.0
H1170 H 0.86743 0.31957 0.24246 0.0
H1171 H 0.89953 0.3322 0.24172 0.0
H1172 H 0.71821 0.26461 0.23792 0.0
H1173 H 0.67552 0.24152 0.26815 0.0
H1174 H 0.72914 0.25514 0.29323 0.0
H1175 H 0.69706 0.24271 0.29471 0.0
Eu1176 Eu 0.05045 0.52975 0.53932 0.0
C1177 C 0.00235 0.54848 0.47161 0.0
C1178 C 0.98508 0.51738 0.45685 0.0
C1179 C 0.97572 0.54539 0.45109 0.0
C1180 C -4e-05 0.52903 0.46841 0.0
C1181 C 0.99032 0.55691 0.46293 0.0
C1182 C 0.97309 0.52566 0.44809 0.0
C1183 C 0.00836 0.58751 0.47782 0.0
N1184 N 0.0164 0.5592 0.48333 0.0
C1185 C 0.01991 0.57845 0.48602 0.0
C1186 C 0.99342 0.57668 0.46628 0.0
Eu1187 Eu 0.03724 0.54378 0.49451 0.0
N1188 N 0.01177 0.52155 0.47727 0.0
C1189 C 0.00897 0.50228 0.47542 0.0
C1190 C 0.98253 0.49774 0.45463 0.0
C1191 C 0.99445 0.49019 0.4641 0.0
H1192 H 0.03185 0.58682 0.49436 0.0
H1193 H 0.99245 0.475 0.46272 0.0
H1194 H 0.96167 0.51693 0.43908 0.0
H1195 H 0.01112 0.6028 0.48018 0.0
H1196 H 0.01762 0.49581 0.48275 0.0
H1197 H 0.09054 0.59843 0.57795 0.0
H1198 H 0.97128 0.48832 0.44588 0.0
H1199 H 0.05904 0.48683 0.53513 0.0
H1200 H 0.06595 0.57774 0.55724 0.0
H1201 H 0.08187 0.4717 0.54654 0.0
H1202 H 0.96637 0.5516 0.44426 0.0
H1203 H 0.11437 0.58547 0.59066 0.0
H1204 H 0.12719 0.5575 0.59261 0.0
H1205 H 0.98453 0.5837 0.45984 0.0
H1206 H 0.12508 0.52325 0.58382 0.0
N1207 N 0.07497 0.55225 0.55768 0.0
C1208 C 0.0758 0.57131 0.56259 0.0
C1209 C 0.10344 0.57605 0.58144 0.0
C1210 C 0.10269 0.55667 0.57645 0.0
C1211 C 0.09 0.5834 0.57435 0.0
C1212 C 0.08816 0.54497 0.56436 0.0
H1213 H 0.10838 0.49128 0.56662 0.0
N1214 N 0.07314 0.51484 0.54744 0.0
C1215 C 0.08367 0.48693 0.54998 0.0
C1216 C 0.0872 0.52574 0.5591 0.0
C1217 C 0.07089 0.49558 0.54337 0.0
C1218 C 0.09857 0.49803 0.56135 0.0
C1219 C 0.10042 0.51764 0.5662 0.0
O1220 O 0.03675 0.50763 0.55253 0.0
O1221 O 0.02969 0.53117 0.51858 0.0
O1222 O 0.02589 0.56146 0.517 0.0
O1223 O 0.04029 0.55681 0.54437 0.0
O1224 O 0.02667 0.50608 0.52715 0.0
O1225 O 0.04032 0.53738 0.56619 0.0
O1226 O 0.05475 0.56447 0.48261 0.0
O1227 O 0.0582 0.54352 0.51597 0.0
O1228 O 0.06112 0.51252 0.51606 0.0
O1229 O 0.04536 0.51596 0.48905 0.0
O1230 O 0.05862 0.56928 0.50825 0.0
O1231 O 0.0477 0.5351 0.46785 0.0
C1232 C 0.01867 0.51624 0.51858 0.0
C1233 C 0.03688 0.5145 0.58523 0.0
C1234 C 0.02603 0.51508 0.61557 0.0
C1235 C 0.02717 0.52181 0.59903 0.0
C1236 C 0.03564 0.50165 0.61881 0.0
C1237 C 0.04639 0.50092 0.58827 0.0
C1238 C 0.0459 0.49469 0.60518 0.0
C1239 C 0.03096 0.56603 0.53515 0.0
C1240 C 0.03456 0.51964 0.56721 0.0
C1241 C 0.11483 0.52923 0.57823 0.0
C1242 C 0.116 0.54872 0.58329 0.0
C1243 C 0.06681 0.56022 0.51802 0.0
C1244 C 0.05546 0.55911 0.45022 0.0
C1245 C 0.06335 0.55016 0.4356 0.0
C1246 C 0.06682 0.55828 0.42001 0.0
C1247 C 0.06115 0.57492 0.4186 0.0
C1248 C 0.04989 0.57579 0.44881 0.0
C1249 C 0.05252 0.58348 0.43289 0.0
C1250 C 0.05542 0.50764 0.49821 0.0
C1251 C 0.05605 0.55242 0.4677 0.0
H1252 H 0.01963 0.53209 0.59645 0.0
H1253 H 0.03464 0.49603 0.63147 0.0
H1254 H 0.05376 0.49482 0.57752 0.0
H1255 H 0.05299 0.48402 0.60748 0.0
H1256 H 0.0677 0.53736 0.43688 0.0
H1257 H 0.064 0.58173 0.40686 0.0
H1258 H 0.04416 0.58327 0.46019 0.0
H1259 H 0.04852 0.5965 0.43197 0.0
Eu1260 Eu 0.77358 0.79271 0.26806 0.0
C1261 C 0.8348 0.76757 0.30436 0.0
C1262 C 0.84693 0.79541 0.32838 0.0
C1263 C 0.84813 0.76432 0.33408 0.0
C1264 C 0.83815 0.78697 0.31047 0.0
C1265 C 0.84031 0.7561 0.3159 0.0
C1266 C 0.8514 0.78395 0.34032 0.0
C1267 C 0.83201 0.72955 0.28995 0.0
N1268 N 0.82746 0.76006 0.28663 0.0
C1269 C 0.82687 0.7415 0.27904 0.0
C1270 C 0.83847 0.73681 0.30858 0.0
Eu1271 Eu 0.81802 0.78109 0.26928 0.0
N1272 N 0.83392 0.7977 0.29848 0.0
C1273 C 0.83951 0.81703 0.30309 0.0
C1274 C 0.85162 0.81515 0.3335 0.0
C1275 C 0.84822 0.82599 0.32064 0.0
H1276 H 0.82202 0.73584 0.26454 0.0
H1277 H 0.85221 0.84128 0.32427 0.0
H1278 H 0.85796 0.79018 0.35417 0.0
H1279 H 0.83106 0.71478 0.28396 0.0
H1280 H 0.8371 0.8259 0.29361 0.0
H1281 H 0.74064 0.7316 0.21322 0.0
H1282 H 0.85837 0.82214 0.34711 0.0
H1283 H 0.7674 0.83674 0.273 0.0
H1284 H 0.75532 0.74744 0.24394 0.0
H1285 H 0.7575 0.85751 0.25368 0.0
H1286 H 0.85224 0.7557 0.3432 0.0
H1287 H 0.73394 0.75033 0.19018 0.0
H1288 H 0.73343 0.78213 0.18296 0.0
H1289 H 0.84259 0.72756 0.31698 0.0
H1290 H 0.73796 0.81654 0.19399 0.0
N1291 N 0.75761 0.77552 0.23898 0.0
C1292 C 0.75258 0.75614 0.23443 0.0
C1293 C 0.74045 0.75752 0.20383 0.0
C1294 C 0.74454 0.77727 0.20891 0.0
C1295 C 0.74415 0.74692 0.21681 0.0
C1296 C 0.75305 0.78594 0.22687 0.0
H1297 H 0.74653 0.84471 0.22048 0.0
N1298 N 0.76284 0.81282 0.25071 0.0
C1299 C 0.75709 0.84288 0.2476 0.0
C1300 C 0.75576 0.80524 0.23295 0.0
C1301 C 0.76268 0.83111 0.25847 0.0
C1302 C 0.75096 0.83562 0.22887 0.0
C1303 C 0.74985 0.81647 0.22142 0.0
O1304 O 0.75964 0.80608 0.29017 0.0
O1305 O 0.79643 0.78923 0.28597 0.0
O1306 O 0.79845 0.7541 0.2735 0.0
O1307 O 0.77072 0.76195 0.27256 0.0
O1308 O 0.78731 0.81399 0.29325 0.0
O1309 O 0.74803 0.7777 0.27579 0.0
O1310 O 0.83095 0.77017 0.24504 0.0
O1311 O 0.79535 0.78494 0.25133 0.0
O1312 O 0.79284 0.81956 0.26278 0.0
O1313 O 0.82064 0.81209 0.26546 0.0
O1314 O 0.80431 0.75998 0.24407 0.0
O1315 O 0.84561 0.79412 0.26485 0.0
C1316 C 0.79807 0.80422 0.29819 0.0
C1317 C 0.72848 0.79588 0.2906 0.0
C1318 C 0.70155 0.79536 0.30725 0.0
C1319 C 0.71782 0.78979 0.30451 0.0
C1320 C 0.69616 0.80694 0.29593 0.0
C1321 C 0.72248 0.80714 0.27933 0.0
C1322 C 0.70648 0.81266 0.28204 0.0
C1323 C 0.78088 0.74966 0.27383 0.0
C1324 C 0.74633 0.79166 0.28882 0.0
C1325 C 0.74235 0.8081 0.20314 0.0
C1326 C 0.73975 0.78851 0.19687 0.0
C1327 C 0.79367 0.76991 0.23907 0.0
C1328 C 0.86222 0.77474 0.24635 0.0
C1329 C 0.87584 0.78314 0.2362 0.0
C1330 C 0.89047 0.77471 0.23207 0.0
C1331 C 0.89081 0.75761 0.23791 0.0
C1332 C 0.86346 0.75801 0.25225 0.0
C1333 C 0.87754 0.74949 0.24798 0.0
C1334 C 0.81053 0.82427 0.26334 0.0
C1335 C 0.84602 0.78234 0.24939 0.0
H1336 H 0.72229 0.7811 0.31335 0.0
H1337 H 0.68381 0.81145 0.29776 0.0
H1338 H 0.73029 0.81189 0.26858 0.0
H1339 H 0.70208 0.82152 0.27337 0.0
H1340 H 0.87502 0.79608 0.23158 0.0
H1341 H 0.90129 0.75025 0.2345 0.0
H1342 H 0.85328 0.7512 0.25977 0.0
H1343 H 0.87808 0.73635 0.25232 0.0
Eu1344 Eu 0.80371 0.27711 0.74775 0.0
C1345 C 0.77975 0.3397 0.80804 0.0
C1346 C 0.80696 0.35731 0.82663 0.0
C1347 C 0.78006 0.36914 0.8297 0.0
C1348 C 0.79749 0.34132 0.81355 0.0
C1349 C 0.77087 0.35366 0.81605 0.0
C1350 C 0.79808 0.371 0.83493 0.0
C1351 C 0.74419 0.3357 0.79715 0.0
N1352 N 0.77119 0.32442 0.79496 0.0
C1353 C 0.75345 0.32213 0.78979 0.0
C1354 C 0.75291 0.35151 0.8104 0.0
Eu1355 Eu 0.78576 0.29881 0.79028 0.0
N1356 N 0.80563 0.32766 0.80552 0.0
C1357 C 0.82369 0.33045 0.80823 0.0
C1358 C 0.82513 0.35918 0.83083 0.0
C1359 C 0.8336 0.34591 0.82125 0.0
H1360 H 0.74593 0.30928 0.78082 0.0
H1361 H 0.84781 0.34766 0.82376 0.0
H1362 H 0.80509 0.38318 0.84525 0.0
H1363 H 0.73016 0.33359 0.79308 0.0
H1364 H 0.8307 0.32091 0.80044 0.0
H1365 H 0.74144 0.22666 0.71614 0.0
H1366 H 0.83287 0.37119 0.84087 0.0
H1367 H 0.84385 0.26747 0.75687 0.0
H1368 H 0.75888 0.2553 0.73662 0.0
H1369 H 0.85943 0.24247 0.74655 0.0
H1370 H 0.77337 0.37982 0.83619 0.0
H1371 H 0.75602 0.20146 0.70198 0.0
H1372 H 0.78365 0.18917 0.69888 0.0
H1373 H 0.74559 0.36181 0.81638 0.0
H1374 H 0.81545 0.19316 0.70777 0.0
N1375 N 0.78386 0.24786 0.73299 0.0
C1376 C 0.76583 0.24516 0.72986 0.0
C1377 C 0.76391 0.2143 0.71078 0.0
C1378 C 0.78211 0.21646 0.71503 0.0
C1379 C 0.75567 0.22853 0.71861 0.0
C1380 C 0.79178 0.23341 0.72669 0.0
H1381 H 0.84353 0.21258 0.7259 0.0
N1382 N 0.81831 0.25143 0.74418 0.0
C1383 C 0.84532 0.24008 0.74271 0.0
C1384 C 0.80951 0.2353 0.73236 0.0
C1385 C 0.83619 0.25412 0.7489 0.0
C1386 C 0.83633 0.22331 0.73098 0.0
C1387 C 0.81827 0.22076 0.72558 0.0
O1388 O 0.83046 0.28954 0.74195 0.0
O1389 O 0.80514 0.3027 0.76958 0.0
O1390 O 0.76891 0.30031 0.76355 0.0
O1391 O 0.77838 0.284 0.73643 0.0
O1392 O 0.8051 0.30631 0.74193 0.0
O1393 O 0.81039 0.27427 0.71905 0.0
O1394 O 0.75913 0.28669 0.79701 0.0
O1395 O 0.7842 0.2734 0.76829 0.0
O1396 O 0.82045 0.27564 0.77439 0.0
O1397 O 0.81117 0.29205 0.80148 0.0
O1398 O 0.78467 0.26968 0.79599 0.0
O1399 O 0.78021 0.30127 0.81928 0.0
C1400 C 0.80541 0.3144 0.75913 0.0
C1401 C 0.83546 0.29578 0.71204 0.0
C1402 C 0.83411 0.31444 0.68848 0.0
C1403 C 0.82558 0.30409 0.70085 0.0
C1404 C 0.85249 0.31687 0.68749 0.0
C1405 C 0.85387 0.29829 0.71113 0.0
C1406 C 0.86236 0.30888 0.69891 0.0
C1407 C 0.76724 0.29343 0.74515 0.0
C1408 C 0.8269 0.28348 0.72396 0.0
C1409 C 0.80888 0.20431 0.71328 0.0
C1410 C 0.79081 0.2021 0.70813 0.0
C1411 C 0.78409 0.26176 0.77873 0.0
C1412 C 0.75385 0.28336 0.8281 0.0
C1413 C 0.76062 0.27027 0.8362 0.0
C1414 C 0.75121 0.26169 0.84933 0.0
C1415 C 0.73527 0.26645 0.85454 0.0
C1416 C 0.73794 0.28808 0.83336 0.0
C1417 C 0.72871 0.27967 0.8466 0.0
C1418 C 0.8222 0.28254 0.79274 0.0
C1419 C 0.76339 0.2932 0.81489 0.0
H1420 H 0.81135 0.30224 0.70144 0.0
H1421 H 0.85913 0.32495 0.6779 0.0
H1422 H 0.86162 0.29184 0.7197 0.0
H1423 H 0.87653 0.31073 0.69815 0.0
H1424 H 0.77307 0.26681 0.83238 0.0
H1425 H 0.7281 0.26015 0.86499 0.0
H1426 H 0.73278 0.29846 0.82737 0.0
H1427 H 0.71653 0.28348 0.85079 0.0
Eu1428 Eu 0.80546 0.80928 0.77647 0.0
C1429 C 0.7407 0.7418 0.74113 0.0
C1430 C 0.72453 0.73666 0.76782 0.0
C1431 C 0.70946 0.72563 0.73659 0.0
C1432 C 0.74039 0.74365 0.76016 0.0
C1433 C 0.72531 0.73248 0.72907 0.0
C1434 C 0.70906 0.72779 0.75594 0.0
C1435 C 0.74271 0.73591 0.70299 0.0
N1436 N 0.75628 0.74825 0.73434 0.0
C1437 C 0.75761 0.7449 0.71551 0.0
C1438 C 0.72644 0.72975 0.70979 0.0
Eu1439 Eu 0.7819 0.76019 0.75596 0.0
N1440 N 0.75573 0.7517 0.77117 0.0
C1441 C 0.75606 0.75297 0.79005 0.0
C1442 C 0.72479 0.73837 0.78716 0.0
C1443 C 0.74065 0.74654 0.79831 0.0
H1444 H 0.77031 0.749 0.71014 0.0
H1445 H 0.74104 0.74789 0.81331 0.0
H1446 H 0.69681 0.72225 0.76157 0.0
H1447 H 0.74386 0.73343 0.68811 0.0
H1448 H 0.768 0.75939 0.79908 0.0
H1449 H 0.84304 0.82282 0.71587 0.0
H1450 H 0.7129 0.73325 0.79358 0.0
H1451 H 0.82214 0.81582 0.82165 0.0
H1452 H 0.81857 0.80705 0.73068 0.0
H1453 H 0.84907 0.83233 0.84143 0.0
H1454 H 0.69753 0.71839 0.72756 0.0
H1455 H 0.86965 0.84338 0.73485 0.0
H1456 H 0.88624 0.85666 0.76612 0.0
H1457 H 0.71496 0.72253 0.70008 0.0
H1458 H 0.88824 0.85841 0.79995 0.0
N1459 N 0.83004 0.81899 0.75875 0.0
C1460 C 0.82956 0.81623 0.73966 0.0
C1461 C 0.85874 0.83652 0.74167 0.0
C1462 C 0.85979 0.8385 0.76103 0.0
C1463 C 0.84373 0.82499 0.73094 0.0
C1464 C 0.84522 0.82921 0.76929 0.0
H1465 H 0.87486 0.84886 0.82786 0.0
N1466 N 0.83279 0.82002 0.79593 0.0
C1467 C 0.84876 0.83137 0.82649 0.0
C1468 C 0.84663 0.82968 0.78835 0.0
C1469 C 0.83357 0.82137 0.81493 0.0
C1470 C 0.8632 0.84082 0.8188 0.0
C1471 C 0.86224 0.84021 0.7996 0.0
O1472 O 0.79757 0.82436 0.80255 0.0
O1473 O 0.78098 0.78678 0.77495 0.0
O1474 O 0.77596 0.77869 0.73591 0.0
O1475 O 0.79439 0.80919 0.74706 0.0
O1476 O 0.77773 0.81309 0.77064 0.0
O1477 O 0.81035 0.8397 0.78198 0.0
O1478 O 0.79045 0.73906 0.73614 0.0
O1479 O 0.80838 0.78042 0.76434 0.0
O1480 O 0.80739 0.79093 0.79784 0.0
O1481 O 0.7945 0.75945 0.78417 0.0
O1482 O 0.80216 0.76765 0.73644 0.0
O1483 O 0.78486 0.7334 0.76342 0.0
C1484 C 0.76981 0.79612 0.77168 0.0
C1485 C 0.80051 0.85824 0.80749 0.0
C1486 C 0.78998 0.88604 0.8035 0.0
C1487 C 0.79029 0.86698 0.7973 0.0
C1488 C 0.79926 0.8959 0.82073 0.0
C1489 C 0.8095 0.86799 0.82473 0.0
C1490 C 0.80871 0.88675 0.83141 0.0
C1491 C 0.78317 0.79626 0.73431 0.0
C1492 C 0.80479 0.84068 0.7986 0.0
C1493 C 0.8763 0.85011 0.79148 0.0
C1494 C 0.87512 0.8492 0.77224 0.0
C1495 C 0.81473 0.77704 0.74902 0.0
C1496 C 0.785 0.70727 0.73892 0.0
C1497 C 0.79587 0.69592 0.74405 0.0
C1498 C 0.79328 0.67709 0.73492 0.0
C1499 C 0.77943 0.66934 0.72073 0.0
C1500 C 0.77123 0.69971 0.72455 0.0
C1501 C 0.76845 0.68071 0.71554 0.0
C1502 C 0.80292 0.77274 0.79828 0.0
C1503 C 0.79015 0.72735 0.74732 0.0
H1504 H 0.78316 0.85898 0.78417 0.0
H1505 H 0.79957 0.91072 0.82579 0.0
H1506 H 0.81776 0.86139 0.83257 0.0
H1507 H 0.81597 0.89442 0.84456 0.0
H1508 H 0.8067 0.70189 0.75496 0.0
H1509 H 0.77735 0.65471 0.71358 0.0
H1510 H 0.76293 0.70848 0.72012 0.0
H1511 H 0.75794 0.67487 0.70436 0.0
Eu1512 Eu 0.52544 0.52608 0.508 0.0
C1513 C 0.58646 0.59151 0.55274 0.0
C1514 C 0.59513 0.61033 0.52954 0.0
C1515 C 0.60151 0.62474 0.56242 0.0
C1516 C 0.58707 0.59294 0.53425 0.0
C1517 C 0.59406 0.6073 0.56704 0.0
C1518 C 0.60201 0.62626 0.5437 0.0
C1519 C 0.58822 0.58701 0.5894 0.0
N1520 N 0.57958 0.57438 0.55677 0.0
C1521 C 0.58104 0.57177 0.57475 0.0
C1522 C 0.59459 0.60492 0.58555 0.0
Eu1523 Eu 0.56873 0.5485 0.53152 0.0
N1524 N 0.5808 0.57711 0.52091 0.0
C1525 C 0.58311 0.57777 0.50257 0.0
C1526 C 0.59666 0.61109 0.51077 0.0
C1527 C 0.59077 0.59468 0.49725 0.0
H1528 H 0.57656 0.55782 0.57776 0.0
H1529 H 0.59211 0.595 0.48267 0.0
H1530 H 0.60819 0.63969 0.54031 0.0
H1531 H 0.58905 0.58487 0.60361 0.0
H1532 H 0.57859 0.56561 0.49155 0.0
H1533 H 0.50022 0.48249 0.55872 0.0
H1534 H 0.60274 0.62415 0.50661 0.0
H1535 H 0.51946 0.51442 0.46145 0.0
H1536 H 0.51482 0.51094 0.5489 0.0
H1537 H 0.50741 0.48639 0.43652 0.0
H1538 H 0.60734 0.63702 0.57321 0.0
H1539 H 0.48949 0.45268 0.53571 0.0
H1540 H 0.48488 0.4357 0.50248 0.0
H1541 H 0.60038 0.61668 0.59689 0.0
H1542 H 0.4869 0.43666 0.46931 0.0
N1543 N 0.51267 0.49838 0.51976 0.0
C1544 C 0.51011 0.49855 0.5382 0.0
C1545 C 0.49592 0.46535 0.53109 0.0
C1546 C 0.49799 0.46521 0.51224 0.0
C1547 C 0.50186 0.48215 0.54408 0.0
C1548 C 0.50645 0.48215 0.50691 0.0
H1549 H 0.49509 0.45546 0.44465 0.0
N1550 N 0.51503 0.49928 0.4835 0.0
C1551 C 0.50756 0.48507 0.451 0.0
C1552 C 0.50767 0.48263 0.48825 0.0
C1553 C 0.51447 0.50086 0.46516 0.0
C1554 C 0.50063 0.46765 0.45564 0.0
C1555 C 0.50037 0.4663 0.47442 0.0
O1556 O 0.50835 0.53621 0.48976 0.0
O1557 O 0.54424 0.55414 0.51873 0.0
O1558 O 0.54991 0.55598 0.55384 0.0
O1559 O 0.52243 0.53866 0.53912 0.0
O1560 O 0.53467 0.54798 0.49077 0.0
O1561 O 0.49987 0.53088 0.51649 0.0
O1562 O 0.58636 0.53713 0.54795 0.0
O1563 O 0.5499 0.52059 0.52068 0.0
O1564 O 0.54461 0.51731 0.48663 0.0
O1565 O 0.57149 0.53713 0.50011 0.0
O1566 O 0.55971 0.5261 0.54842 0.0
O1567 O 0.59425 0.54477 0.52188 0.0
C1568 C 0.54363 0.56099 0.50411 0.0
C1569 C 0.47774 0.53007 0.49276 0.0
C1570 C 0.44855 0.53671 0.4919 0.0
C1571 C 0.46581 0.54039 0.50028 0.0
C1572 C 0.44304 0.52225 0.476 0.0
C1573 C 0.47235 0.51565 0.47682 0.0
C1574 C 0.45497 0.51174 0.4685 0.0
C1575 C 0.53256 0.54933 0.55425 0.0
C1576 C 0.49598 0.53619 0.50107 0.0
C1577 C 0.4925 0.44933 0.47972 0.0
C1578 C 0.49134 0.44878 0.4986 0.0
C1579 C 0.55041 0.51339 0.53505 0.0
C1580 C 0.61679 0.54401 0.54451 0.0
C1581 C 0.62804 0.5324 0.53799 0.0
C1582 C 0.64524 0.53573 0.54642 0.0
C1583 C 0.65128 0.5509 0.5616 0.0
C1584 C 0.62283 0.55944 0.55941 0.0
C1585 C 0.64009 0.56283 0.56795 0.0
C1586 C 0.56159 0.52509 0.48565 0.0
C1587 C 0.5985 0.53821 0.53639 0.0
H1588 H 0.4701 0.55162 0.51253 0.0
H1589 H 0.42971 0.5194 0.46921 0.0
H1590 H 0.48153 0.50768 0.47068 0.0
H1591 H 0.45081 0.50078 0.4561 0.0
H1592 H 0.62321 0.52033 0.5266 0.0
H1593 H 0.66463 0.55361 0.5683 0.0
H1594 H 0.61423 0.56861 0.56459 0.0
H1595 H 0.64475 0.57461 0.57957 0.0
Eu1596 Eu 0.0683 0.53831 0.01351 0.0
C1597 C -0.00128 0.50005 0.04636 0.0
C1598 C 0.98367 0.47475 0.02095 0.0
C1599 C 0.97844 0.47249 0.05297 0.0
C1600 C 0.9955 0.49248 0.02741 0.0
C1601 C 0.98996 0.49029 0.05932 0.0
C1602 C 0.97533 0.46473 0.03383 0.0
C1603 C 0.00348 0.51713 0.08378 0.0
N1604 N 0.00986 0.51729 0.05211 0.0
C1605 C 0.01171 0.52631 0.07039 0.0
C1606 C 0.99271 0.49894 0.07825 0.0
Eu1607 Eu 0.02295 0.5322 0.02875 0.0
N1608 N 0.0037 0.50255 0.01529 0.0
C1609 C 7e-05 0.49594 0.99646 0.0
C1610 C 0.98039 0.46769 0.00172 0.0
C1611 C 0.98856 0.47839 0.98944 0.0
H1612 H 0.01968 0.54057 0.07456 0.0
H1613 H 0.98597 0.47316 0.97452 0.0
H1614 H 0.96624 0.45108 0.02911 0.0
H1615 H 0.00531 0.52415 0.09831 0.0
H1616 H 0.00611 0.50387 0.98659 0.0
H1617 H 0.10406 0.59727 0.06821 0.0
H1618 H 0.97142 0.45412 0.99622 0.0
H1619 H 0.0717 0.53046 0.96766 0.0
H1620 H 0.08409 0.56633 0.05557 0.0
H1621 H 0.08691 0.5468 0.94431 0.0
H1622 H 0.97166 0.46475 0.06272 0.0
H1623 H 0.11903 0.61653 0.04687 0.0
H1624 H 0.12504 0.61965 0.01413 0.0
H1625 H 0.98623 0.4919 0.08863 0.0
H1626 H 0.12036 0.606 0.9805 0.0
N1627 N 0.08695 0.56816 0.02715 0.0
C1628 C 0.0903 0.57457 0.046 0.0
C1629 C 0.11008 0.60299 0.04118 0.0
C1630 C 0.10715 0.59605 0.02191 0.0
C1631 C 0.10168 0.59215 0.05327 0.0
C1632 C 0.09533 0.57836 0.01521 0.0
H1633 H 0.1062 0.5789 0.95436 0.0
N1634 N 0.08146 0.55355 0.99034 0.0
C1635 C 0.08848 0.55379 0.95884 0.0
C1636 C 0.09252 0.57081 0.99626 0.0
C1637 C 0.07982 0.54463 0.97204 0.0
C1638 C 0.09936 0.5719 0.96458 0.0
C1639 C 0.10169 0.58054 0.98351 0.0
O1640 O 0.07993 0.51523 0.00066 0.0
O1641 O 0.04371 0.51757 0.01707 0.0
O1642 O 0.03791 0.52006 0.0482 0.0
O1643 O 0.06696 0.53467 0.04366 0.0
O1644 O 0.05434 0.51282 0.99183 0.0
O1645 O 0.09328 0.53408 0.02591 0.0
O1646 O 0.0114 0.55551 0.04126 0.0
O1647 O 0.04753 0.55291 0.02502 0.0
O1648 O 0.05259 0.54956 0.9934 0.0
O1649 O 0.0243 0.53373 0.99857 0.0
O1650 O 0.03717 0.55796 0.05025 0.0
O1651 O 0.9983 0.53658 0.01595 0.0
C1652 C 0.04248 0.50572 0.00193 0.0
C1653 C 0.11065 0.51804 0.00528 0.0
C1654 C 0.13455 0.50113 0.00131 0.0
C1655 C 0.11951 0.50461 0.01014 0.0
C1656 C 0.14064 0.51132 0.98758 0.0
C1657 C 0.11714 0.52833 0.99182 0.0
C1658 C 0.13203 0.52492 0.98298 0.0
C1659 C 0.0551 0.52517 0.05291 0.0
C1660 C 0.09366 0.5195 0.01289 0.0
C1661 C 0.11323 0.59829 0.99008 0.0
C1662 C 0.11592 0.60605 0.00924 0.0
C1663 C 0.04892 0.56497 0.04 0.0
C1664 C 0.98069 0.55244 0.03616 0.0
C1665 C 0.9716 0.56543 0.03073 0.0
C1666 C 0.95603 0.56832 0.03876 0.0
C1667 C 0.94968 0.55799 0.05231 0.0
C1668 C 0.97404 0.54211 0.04953 0.0
C1669 C 0.95862 0.54494 0.05759 0.0
C1670 C 0.03529 0.54387 0.98917 0.0
C1671 C 0.99781 0.55118 0.02887 0.0
H1672 H 0.11442 0.49649 0.02041 0.0
H1673 H 0.15225 0.50901 0.98066 0.0
H1674 H 0.1106 0.53876 0.9879 0.0
H1675 H 0.13688 0.53278 0.97247 0.0
H1676 H 0.97691 0.57361 0.02059 0.0
H1677 H 0.93763 0.55978 0.05863 0.0
H1678 H 0.98081 0.53207 0.05391 0.0
H1679 H 0.9536 0.53702 0.068 0.0
H1680 H 0.99043 0.19608 0.94467 0.0
H1681 H 0.99392 0.1694 0.95906 0.0
H1682 H 0.04594 0.20072 0.98389 0.0
H1683 H 0.04186 0.22777 0.97074 0.0
H1684 H 0.01442 0.14713 0.95411 0.0
H1685 H 0.03027 0.18247 0.0282 0.0
H1686 H 0.02265 0.19425 0.01096 0.0
H1687 H 0.04577 0.19356 0.0141 0.0
C1688 C 0.00245 0.19737 0.95353 0.0
C1689 C 0.01575 0.21417 0.95677 0.0
C1690 C 0.00449 0.18207 0.96173 0.0
C1691 C 0.02006 0.18298 0.97306 0.0
C1692 C 0.03346 0.19971 0.97599 0.0
H1693 H 0.067 0.09941 0.01376 0.0
H1694 H 0.0605 0.12808 0.00654 0.0
C1695 C 0.03119 0.2152 0.96828 0.0
C1696 C 0.02272 0.16607 0.98071 0.0
H1697 H 0.03722 0.15201 0.01975 0.0
C1698 C 0.01916 0.14826 0.96856 0.0
C1699 C 0.029 0.16726 0.99958 0.0
C1700 C 0.03195 0.18539 0.01397 0.0
C1701 C 0.02202 0.13195 0.9745 0.0
C1702 C 0.02866 0.13328 0.9932 0.0
C1703 C 0.03219 0.15097 0.00541 0.0
C1704 C 0.03232 0.11647 8e-05 0.0
C1705 C 0.01837 0.11346 0.96052 0.0
C1706 C 0.01866 0.10054 -7e-05 0.0
C1707 C 0.02253 0.08388 0.00394 0.0
C1708 C 0.04014 0.08259 0.0083 0.0
C1709 C 0.05349 0.0992 0.01007 0.0
C1710 C 0.0497 0.11589 0.00597 0.0
H1711 H 0.01706 0.11559 0.94593 0.0
H1712 H 0.0291 0.1058 0.96197 0.0
H1713 H 0.00573 0.10434 0.96307 0.0
H1714 H 0.00503 0.10073 0.99602 0.0
H1715 H 0.01169 0.07175 0.00277 0.0
H1716 H 0.13436 0.84093 0.16091 0.0
H1717 H 0.16019 0.83849 0.18039 0.0
H1718 H 0.15989 0.78437 0.14559 0.0
H1719 H 0.13514 0.78771 0.12531 0.0
H1720 H 0.16532 0.81768 0.2021 0.0
H1721 H 0.21071 0.80355 0.14828 0.0
H1722 H 0.19035 0.8104 0.14294 0.0
H1723 H 0.19037 0.78597 0.14322 0.0
C1724 C 0.14011 0.82873 0.15722 0.0
C1725 C 0.13291 0.81471 0.14135 0.0
C1726 C 0.15487 0.82725 0.16845 0.0
C1727 C 0.16258 0.81142 0.16445 0.0
C1728 C 0.15501 0.79719 0.14875 0.0
H1729 H 0.23976 0.76548 0.222 0.0
H1730 H 0.21597 0.77141 0.20219 0.0
C1731 C 0.14066 0.79901 0.13716 0.0
C1732 C 0.1778 0.80939 0.17721 0.0
H1733 H 0.21774 0.79617 0.17784 0.0
C1734 C 0.17685 0.81319 0.19669 0.0
C1735 C 0.19312 0.80362 0.1705 0.0
C1736 C 0.19629 0.80087 0.15012 0.0
C1737 C 0.19023 0.81086 0.20936 0.0
C1738 C 0.20515 0.80443 0.20256 0.0
C1739 C 0.20627 0.80087 0.18317 0.0
C1740 C 0.21959 0.80095 0.21517 0.0
C1741 C 0.18799 0.81486 0.22996 0.0
C1742 C 0.22978 0.81551 0.22922 0.0
C1743 C 0.24352 0.81212 0.24058 0.0
C1744 C 0.24767 0.79416 0.23803 0.0
C1745 C 0.23737 0.7796 0.22408 0.0
C1746 C 0.2236 0.78296 0.21279 0.0
H1747 H 0.17404 0.81515 0.23263 0.0
H1748 H 0.19214 0.80409 0.23689 0.0
H1749 H 0.19645 0.82893 0.23648 0.0
H1750 H 0.22735 0.82963 0.23122 0.0
H1751 H 0.25118 0.82374 0.25107 0.0
H1752 H 0.55461 0.83404 0.45801 0.0
H1753 H 0.55765 0.86673 0.4745 0.0
H1754 H 0.50088 0.85639 0.47686 0.0
H1755 H 0.49804 0.82332 0.46125 0.0
H1756 H 0.54608 0.8914 0.46043 0.0
H1757 H 0.51566 0.88961 0.52687 0.0
H1758 H 0.52116 0.86897 0.51318 0.0
H1759 H 0.50072 0.87556 0.50747 0.0
C1760 C 0.54288 0.83858 0.46273 0.0
C1761 C 0.52613 0.8261 0.45858 0.0
C1762 C 0.54459 0.85732 0.47205 0.0
C1763 C 0.52953 0.86422 0.47709 0.0
C1764 C 0.51281 0.85147 0.47366 0.0
H1765 H 0.51774 0.97711 0.47542 0.0
H1766 H 0.51419 0.94284 0.47272 0.0
C1767 C 0.51115 0.83252 0.46468 0.0
C1768 C 0.53118 0.88509 0.48346 0.0
H1769 H 0.5187 0.91883 0.51564 0.0
C1770 C 0.54023 0.8973 0.47265 0.0
C1771 C 0.52377 0.89308 0.49952 0.0
C1772 C 0.51496 0.88113 0.51253 0.0
C1773 C 0.54155 0.91693 0.47701 0.0
C1774 C 0.53328 0.92473 0.49238 0.0
C1775 C 0.52477 0.91277 0.50366 0.0
C1776 C 0.53305 0.94522 0.49632 0.0
C1777 C 0.55182 0.92931 0.46515 0.0
C1778 C 0.54425 0.95791 0.51099 0.0
C1779 C 0.54569 0.97749 0.513 0.0
C1780 C 0.53611 0.9847 0.50026 0.0
C1781 C 0.52471 0.97195 0.48584 0.0
C1782 C 0.52288 0.95239 0.48415 0.0
H1783 H 0.55937 0.92145 0.45526 0.0
H1784 H 0.54251 0.93499 0.45697 0.0
H1785 H 0.56125 0.94154 0.47416 0.0
H1786 H 0.55249 0.95275 0.52031 0.0
H1787 H 0.55517 0.98704 0.52378 0.0
H1788 H 0.53775 0.32608 0.66604 0.0
H1789 H 0.50853 0.32486 0.67793 0.0
H1790 H 0.48496 0.27998 0.63127 0.0
H1791 H 0.51427 0.2814 0.61924 0.0
H1792 H 0.4741 0.32761 0.66329 0.0
H1793 H 0.47438 0.25634 0.67773 0.0
H1794 H 0.4939 0.27161 0.67193 0.0
H1795 H 0.4768 0.25863 0.65393 0.0
C1796 C 0.52624 0.31627 0.65811 0.0
C1797 C 0.52824 0.30392 0.64168 0.0
C1798 C 0.50953 0.31555 0.66492 0.0
C1799 C 0.49449 0.30215 0.6557 0.0
C1800 C 0.49635 0.29034 0.63878 0.0
H1801 H 0.39095 0.26355 0.69679 0.0
H1802 H 0.41448 0.26999 0.67598 0.0
C1803 C 0.51307 0.29125 0.63181 0.0
C1804 C 0.47736 0.29961 0.66463 0.0
H1805 H 0.44934 0.26853 0.68518 0.0
C1806 C 0.46863 0.31465 0.66798 0.0
C1807 C 0.47018 0.28277 0.67091 0.0
C1808 C 0.47932 0.26644 0.66863 0.0
C1809 C 0.453 0.31325 0.67733 0.0
C1810 C 0.44598 0.29647 0.6838 0.0
C1811 C 0.45457 0.28137 0.68017 0.0
C1812 C 0.43032 0.29445 0.69516 0.0
C1813 C 0.44403 0.32968 0.68005 0.0
C1814 C 0.43105 0.30624 0.71279 0.0
C1815 C 0.41755 0.3026 0.72464 0.0
C1816 C 0.40295 0.28715 0.71912 0.0
C1817 C 0.40184 0.2758 0.70124 0.0
C1818 C 0.41537 0.2794 0.6894 0.0
H1819 H 0.44809 0.33919 0.67014 0.0
H1820 H 0.42936 0.32464 0.67821 0.0
H1821 H 0.44782 0.3381 0.69443 0.0
H1822 H 0.44255 0.31766 0.71783 0.0
H1823 H 0.41897 0.31126 0.73853 0.0
H1824 H 0.02876 0.8273 0.64226 0.0
H1825 H 0.03538 0.85232 0.62422 0.0
H1826 H 0.98985 0.82401 0.58516 0.0
H1827 H 0.98337 0.79853 0.60298 0.0
H1828 H 0.03524 0.83898 0.57761 0.0
H1829 H 0.99389 0.88743 0.61003 0.0
H1830 H 0.00329 0.8729 0.62328 0.0
H1831 H 0.98554 0.86205 0.60543 0.0
C1832 C 0.02 0.82663 0.63001 0.0
C1833 C 0.00548 0.81129 0.62397 0.0
C1834 C 0.02381 0.8408 0.61977 0.0
C1835 C 0.01295 0.83988 0.60364 0.0
C1836 C 0.99823 0.82478 0.59772 0.0
H1837 H 0.02073 0.91606 0.52671 0.0
H1838 H 0.00979 0.89401 0.5471 0.0
C1839 C 0.99458 0.81037 0.6078 0.0
C1840 C 0.01776 0.85427 0.59245 0.0
H1841 H 0.01191 0.89745 0.58698 0.0
C1842 C 0.03013 0.85175 0.5795 0.0
C1843 C 0.01095 0.87072 0.59523 0.0
C1844 C 0.99767 0.87362 0.60924 0.0
C1845 C 0.03602 0.86553 0.56911 0.0
C1846 C 0.02954 0.88227 0.57213 0.0
C1847 C 0.01691 0.88462 0.58491 0.0
C1848 C 0.03561 0.89723 0.56173 0.0
C1849 C 0.049 0.86199 0.55487 0.0
C1850 C 0.05357 0.90657 0.56373 0.0
C1851 C 0.05984 0.91872 0.55189 0.0
C1852 C 0.04811 0.92185 0.53823 0.0
C1853 C 0.02994 0.91347 0.53703 0.0
C1854 C 0.02372 0.90109 0.5487 0.0
H1855 H 0.0494 0.84679 0.55127 0.0
H1856 H 0.04554 0.8667 0.54189 0.0
H1857 H 0.06252 0.87015 0.56067 0.0
H1858 H 0.0628 0.90399 0.57405 0.0
H1859 H 0.07382 0.92554 0.55327 0.0
H1860 H 0.53714 0.79134 0.86264 0.0
H1861 H 0.50535 0.79004 0.85633 0.0
H1862 H 0.51831 0.84615 0.84413 0.0
H1863 H 0.54989 0.84715 0.84953 0.0
H1864 H 0.48237 0.81368 0.87071 0.0
H1865 H 0.49152 0.81307 0.79603 0.0
H1866 H 0.5083 0.80917 0.81193 0.0
H1867 H 0.50619 0.83286 0.81108 0.0
C1868 C 0.53308 0.80333 0.8586 0.0
C1869 C 0.54575 0.81916 0.8561 0.0
C1870 C 0.51505 0.80264 0.85517 0.0
C1871 C 0.50968 0.81789 0.84954 0.0
C1872 C 0.52234 0.83411 0.8481 0.0
H1873 H 0.42439 0.85336 0.80739 0.0
H1874 H 0.44805 0.851 0.82974 0.0
C1875 C 0.54029 0.83463 0.85107 0.0
C1876 C 0.49102 0.8165 0.84362 0.0
H1877 H 0.46474 0.82039 0.80665 0.0
C1878 C 0.47837 0.81494 0.85668 0.0
C1879 C 0.48595 0.81773 0.82519 0.0
C1880 C 0.49867 0.81809 0.81021 0.0
C1881 C 0.4608 0.81573 0.8519 0.0
C1882 C 0.45621 0.81833 0.83388 0.0
C1883 C 0.46862 0.81886 0.82064 0.0
C1884 C 0.43877 0.82085 0.82785 0.0
C1885 C 0.44737 0.81432 0.86605 0.0
C1886 C 0.42546 0.80478 0.82026 0.0
C1887 C 0.41205 0.80611 0.80751 0.0
C1888 C 0.41207 0.82347 0.8022 0.0
C1889 C 0.42442 0.83984 0.81116 0.0
C1890 C 0.43765 0.83855 0.8241 0.0
H1891 H 0.45321 0.81277 0.87969 0.0
H1892 H 0.44176 0.82713 0.86817 0.0
H1893 H 0.43622 0.80192 0.86068 0.0
H1894 H 0.42642 0.79098 0.82275 0.0
H1895 H 0.40252 0.79333 0.80073 0.0
H1896 H 0.49443 0.21549 0.1055 0.0
H1897 H 0.49725 0.18626 0.08538 0.0
H1898 H 0.48223 0.1555 0.12895 0.0
H1899 H 0.47965 0.1849 0.14938 0.0
H1900 H 0.51904 0.16037 0.11858 0.0
H1901 H 0.46791 0.13272 0.05796 0.0
H1902 H 0.47511 0.15808 0.06471 0.0
H1903 H 0.4632 0.14496 0.08026 0.0
C1904 C 0.49082 0.20234 0.11043 0.0
C1905 C 0.48716 0.20226 0.12896 0.0
C1906 C 0.49239 0.18569 0.09893 0.0
C1907 C 0.48996 0.16898 0.10588 0.0
C1908 C 0.4841 0.16844 0.12355 0.0
H1909 H 0.51409 0.07038 0.04304 0.0
H1910 H 0.50193 0.09243 0.06437 0.0
C1911 C 0.48271 0.18512 0.13514 0.0
C1912 C 0.49767 0.15381 0.09663 0.0
H1913 H 0.49505 0.12283 0.0557 0.0
C1914 C 0.51369 0.15178 0.10498 0.0
C1915 C 0.49062 0.1431 0.07893 0.0
C1916 C 0.47319 0.14465 0.06991 0.0
C1917 C 0.52311 0.13926 0.09579 0.0
C1918 C 0.51636 0.12899 0.07773 0.0
C1919 C 0.50019 0.1309 0.06955 0.0
C1920 C 0.52518 0.11538 0.06719 0.0
C1921 C 0.54005 0.13713 0.10546 0.0
C1922 C 0.54253 0.12093 0.06222 0.0
C1923 C 0.54988 0.10792 0.05063 0.0
C1924 C 0.53955 0.08974 0.0435 0.0
C1925 C 0.52229 0.08433 0.04849 0.0
C1926 C 0.5153 0.09692 0.0606 0.0
H1927 H 0.54079 0.14214 0.12081 0.0
H1928 H 0.54127 0.12215 0.10256 0.0
H1929 H 0.55158 0.14578 0.10026 0.0
H1930 H 0.55014 0.13533 0.06687 0.0
H1931 H 0.56327 0.11213 0.04681 0.0
H1932 H 0.12958 0.32079 0.3344 0.0
H1933 H 0.1552 0.3269 0.31709 0.0
H1934 H 0.18844 0.31831 0.3623 0.0
H1935 H 0.16277 0.31303 0.38042 0.0
H1936 H 0.19811 0.34403 0.32259 0.0
H1937 H 0.16788 0.26717 0.31735 0.0
H1938 H 0.15597 0.2852 0.3253 0.0
H1939 H 0.17364 0.28188 0.34025 0.0
C1940 C 0.14241 0.32102 0.3411 0.0
C1941 C 0.14417 0.31569 0.35841 0.0
C1942 C 0.15709 0.32488 0.33128 0.0
C1943 C 0.17339 0.32267 0.33842 0.0
C1944 C 0.17578 0.32005 0.35676 0.0
H1945 H 0.25981 0.2895 0.30353 0.0
H1946 H 0.23159 0.29239 0.31535 0.0
C1947 C 0.16109 0.31661 0.36684 0.0
C1948 C 0.1848 0.31594 0.32489 0.0
H1949 H 0.19224 0.2749 0.30029 0.0
C1950 C 0.19685 0.32898 0.31755 0.0
C1951 C 0.18248 0.29624 0.31821 0.0
C1952 C 0.16924 0.28175 0.32556 0.0
C1953 C 0.2076 0.32264 0.30419 0.0
C1954 C 0.20577 0.30293 0.29812 0.0
C1955 C 0.19309 0.28996 0.3048 0.0
C1956 C 0.21987 0.29583 0.28909 0.0
C1957 C 0.22164 0.33687 0.29752 0.0
C1958 C 0.22189 0.29582 0.27021 0.0
C1959 C 0.23791 0.29367 0.26333 0.0
C1960 C 0.25157 0.29144 0.2754 0.0
C1961 C 0.24902 0.29033 0.29392 0.0
C1962 C 0.23305 0.29214 0.30066 0.0
H1963 H 0.22105 0.35171 0.3034 0.0
H1964 H 0.23503 0.33487 0.30159 0.0
H1965 H 0.21999 0.33457 0.28207 0.0
H1966 H 0.21168 0.29882 0.26132 0.0
H1967 H 0.24007 0.29497 0.24908 0.0
H1968 H 0.98131 0.06352 0.22803 0.0
H1969 H 0.99626 0.06064 0.19902 0.0
H1970 H 0.95052 0.06971 0.16923 0.0
H1971 H 0.93542 0.07211 0.198 0.0
H1972 H 0.98591 0.03462 0.16245 0.0
H1973 H 0.99243 0.10902 0.15499 0.0
H1974 H 0.98863 0.10152 0.17685 0.0
H1975 H 0.97053 0.09733 0.15913 0.0
C1976 C 0.97437 0.06496 0.21535 0.0
C1977 C 0.95696 0.06813 0.21575 0.0
C1978 C 0.98301 0.06324 0.19857 0.0
C1979 C 0.97483 0.06508 0.18148 0.0
C1980 C 0.95749 0.06838 0.18194 0.0
H1981 H -0.00143 0.05327 0.06228 0.0
H1982 H 0.98533 0.05735 0.09228 0.0
C1983 C 0.94873 0.0697 0.19858 0.0
C1984 C 0.98413 0.06346 0.16329 0.0
H1985 H -0.00116 0.08787 0.12899 0.0
C1986 C 0.98878 0.04637 0.15529 0.0
C1987 C 0.98823 0.0786 0.15351 0.0
C1988 C 0.98489 0.09774 0.16155 0.0
C1989 C 0.99667 0.04396 0.13802 0.0
C1990 C 0.00039 0.05897 0.12805 0.0
C1991 C 0.99598 0.07612 0.13616 0.0
C1992 C 0.00884 0.05706 0.10937 0.0
C1993 C 0.00064 0.02506 0.1302 0.0
C1994 C 0.02672 0.05572 0.10835 0.0
C1995 C 0.03448 0.05378 0.0911 0.0
C1996 C 0.02471 0.05283 0.07393 0.0
C1997 C 0.00676 0.05405 0.07496 0.0
C1998 C -0.0009 0.05639 0.09229 0.0
H1999 H 0.99474 0.01398 0.13792 0.0
H2000 H 0.9955 0.02036 0.11526 0.0
H2001 H 0.01523 0.02646 0.13106 0.0
H2002 H 0.03479 0.05613 0.121 0.0
H2003 H 0.04811 0.05244 0.09123 0.0
H2004 H 0.26861 0.64813 0.45922 0.0
H2005 H 0.2609 0.66152 0.43271 0.0
H2006 H 0.29605 0.71499 0.4579 0.0
H2007 H 0.3036 0.70176 0.48495 0.0
H2008 H 0.25505 0.7103 0.43991 0.0
H2009 H 0.30318 0.67896 0.39709 0.0
H2010 H 0.28977 0.66558 0.41163 0.0
H2011 H 0.30716 0.68549 0.42222 0.0
C2012 C 0.27499 0.66264 0.45894 0.0
C2013 C 0.28721 0.67385 0.47366 0.0
C2014 C 0.27034 0.67026 0.444 0.0
C2015 C 0.2781 0.68901 0.44355 0.0
C2016 C 0.29007 0.7004 0.45828 0.0
H2017 H 0.28013 0.76861 0.37571 0.0
H2018 H 0.28798 0.74797 0.39594 0.0
C2019 C 0.29451 0.69286 0.47347 0.0
C2020 C 0.27449 0.69642 0.4271 0.0
H2021 H 0.28831 0.69911 0.38413 0.0
C2022 C 0.26216 0.70781 0.42763 0.0
C2023 C 0.2837 0.69267 0.41122 0.0
C2024 C 0.29673 0.68001 0.41034 0.0
C2025 C 0.25924 0.71626 0.41258 0.0
C2026 C 0.26913 0.71326 0.39706 0.0
C2027 C 0.28096 0.70131 0.39626 0.0
C2028 C 0.26786 0.7235 0.3821 0.0
C2029 C 0.24603 0.72874 0.41349 0.0
C2030 C 0.2546 0.71599 0.36735 0.0
C2031 C 0.25005 0.72771 0.356 0.0
C2032 C 0.2589 0.7468 0.35936 0.0
C2033 C 0.27332 0.75381 0.37298 0.0
C2034 C 0.27779 0.74212 0.38442 0.0
H2035 H 0.23834 0.72822 0.42586 0.0
H2036 H 0.25315 0.74362 0.41412 0.0
H2037 H 0.23659 0.72437 0.40071 0.0
H2038 H 0.24688 0.70159 0.36561 0.0
H2039 H 0.23889 0.72226 0.34546 0.0
H2040 H 0.67615 0.05512 0.68212 0.0
H2041 H 0.65571 0.05969 0.65755 0.0
H2042 H 0.6264 1.00191 0.65202 0.0
H2043 H 0.64649 0.99745 0.67676 0.0
H2044 H 0.64242 0.03706 0.61941 0.0
H2045 H 0.59191 0.03757 0.67056 0.0
H2046 H 0.61543 0.04179 0.67739 0.0
H2047 H 0.60255 0.01802 0.66927 0.0
C2048 C 0.66583 0.04321 0.67497 0.0
C2049 C 0.66268 0.02592 0.68097 0.0
C2050 C 0.65411 0.04591 0.66126 0.0
C2051 C 0.63951 0.03125 0.65365 0.0
C2052 C 0.63754 0.01339 0.65822 0.0
H2053 H 0.56108 0.9963 0.56582 0.0
H2054 H 0.57961 0.99987 0.59511 0.0
C2055 C 0.64906 0.01076 0.67202 0.0
C2056 C 0.62555 0.03458 0.64169 0.0
H2057 H 0.58094 0.0312 0.63816 0.0
C2058 C 0.62904 0.03622 0.6235 0.0
C2059 C 0.6083 0.03364 0.64748 0.0
C2060 C 0.60433 0.03284 0.66731 0.0
C2061 C 0.61521 0.03548 0.61032 0.0
C2062 C 0.59778 0.03309 0.6158 0.0
C2063 C 0.59443 0.03272 0.63425 0.0
C2064 C 0.58291 0.03033 0.60208 0.0
C2065 C 0.61911 0.0364 0.59047 0.0
C2066 C 0.57824 0.04623 0.59736 0.0
C2067 C 0.56793 0.04421 0.58084 0.0
C2068 C 0.56229 0.0263 0.56926 0.0
C2069 C 0.56538 0.01012 0.57489 0.0
C2070 C 0.57583 0.01216 0.59144 0.0
H2071 H 0.63356 0.03886 0.58878 0.0
H2072 H 0.61229 0.02293 0.58101 0.0
H2073 H 0.61391 0.04797 0.58601 0.0
H2074 H 0.58384 0.06028 0.60556 0.0
H2075 H 0.56554 0.05677 0.57642 0.0
H2076 H 0.26875 0.36453 0.96171 0.0
H2077 H 0.269 0.34656 0.93023 0.0
H2078 H 0.31445 0.32702 0.94835 0.0
H2079 H 0.31402 0.34477 0.98017 0.0
H2080 H 0.30136 0.35721 0.91289 0.0
H2081 H 0.28269 0.27971 0.91126 0.0
H2082 H 0.27614 0.29673 0.92911 0.0
H2083 H 0.29876 0.2945 0.92953 0.0
C2084 C 0.27852 0.35601 0.95911 0.0
C2085 C 0.29148 0.35617 0.97329 0.0
C2086 C 0.27859 0.34569 0.94116 0.0
C2087 C 0.2917 0.33543 0.93698 0.0
C2088 C 0.30403 0.33458 0.95137 0.0
H2089 H 0.30901 0.28384 0.822 0.0
H2090 H 0.31038 0.29076 0.85635 0.0
C2091 C 0.30382 0.34477 0.9695 0.0
C2092 C 0.29412 0.32861 0.91717 0.0
H2093 H 0.28939 0.2892 0.88282 0.0
C2094 C 0.29885 0.34233 0.90633 0.0
C2095 C 0.29134 0.30924 0.90882 0.0
C2096 C 0.28688 0.29409 0.92018 0.0
C2097 C 0.30039 0.33729 0.88723 0.0
C2098 C 0.29623 0.31786 0.87841 0.0
C2099 C 0.2923 0.30406 0.88944 0.0
C2100 C 0.29473 0.31204 0.8577 0.0
C2101 C 0.30659 0.35306 0.87687 0.0
C2102 C 0.28484 0.32081 0.84698 0.0
C2103 C 0.28569 0.31837 0.82785 0.0
C2104 C 0.29529 0.30584 0.8185 0.0
C2105 C 0.30299 0.29484 0.82887 0.0
C2106 C 0.30327 0.29838 0.84846 0.0
H2107 H 0.31557 0.36543 0.88619 0.0
H2108 H 0.31371 0.34841 0.86472 0.0
H2109 H 0.29494 0.35803 0.87195 0.0
H2110 H 0.27697 0.33026 0.85352 0.0
H2111 H 0.27865 0.32643 0.82045 0.0
H2112 H 0.96265 0.09063 0.34163 0.0
H2113 H 0.97655 0.08933 0.3725 0.0
H2114 H 0.98153 0.03248 0.35102 0.0
H2115 H 0.96823 0.0338 0.32071 0.0
H2116 H 0.96883 0.06721 0.39885 0.0
H2117 H 0.03147 0.05347 0.37318 0.0
H2118 H 0.01556 0.06092 0.35906 0.0
H2119 H 0.01258 0.03641 0.36078 0.0
C2120 C 0.96658 0.07781 0.34349 0.0
C2121 C 0.96422 0.06239 0.32818 0.0
C2122 C 0.97471 0.07706 0.36128 0.0
C2123 C 0.98085 0.06094 0.36444 0.0
C2124 C 0.9778 0.04544 0.34931 0.0
H2125 H 0.03364 0.02104 0.45619 0.0
H2126 H 0.02174 0.02604 0.42636 0.0
C2127 C 0.96988 0.0462 0.33174 0.0
C2128 C 0.9899 0.05973 0.38331 0.0
H2129 H 0.02593 0.04737 0.40345 0.0
C2130 C 0.98141 0.06304 0.39978 0.0
C2131 C 0.00639 0.05415 0.3851 0.0
C2132 C 0.01713 0.05121 0.36864 0.0
C2133 C 0.98822 0.06024 0.41729 0.0
C2134 C 0.0047 0.05452 0.41913 0.0
C2135 C 0.01336 0.05156 0.40265 0.0
C2136 C 0.01299 0.05153 0.43777 0.0
C2137 C 0.97692 0.06259 0.43337 0.0
C2138 C 0.01324 0.06426 0.45477 0.0
C2139 C 0.01902 0.06061 0.47209 0.0
C2140 C 0.02602 0.04461 0.47357 0.0
C2141 C 0.02765 0.03293 0.45637 0.0
C2142 C 0.02097 0.03607 0.43894 0.0
H2143 H 0.96268 0.0603 0.4284 0.0
H2144 H 0.97811 0.05255 0.44268 0.0
H2145 H 0.98111 0.0773 0.44154 0.0
H2146 H 0.00867 0.07714 0.45487 0.0
H2147 H 0.01774 0.07055 0.48448 0.0
H2148 H 0.3033 0.68016 0.58262 0.0
H2149 H 0.30128 0.70449 0.60961 0.0
H2150 H 0.24563 0.67904 0.60961 0.0
H2151 H 0.24783 0.6542 0.58328 0.0
H2152 H 0.28072 0.72991 0.61004 0.0
H2153 H 0.26301 0.68643 0.66362 0.0
H2154 H 0.27115 0.67731 0.64198 0.0
H2155 H 0.2483 0.67889 0.64258 0.0
C2156 C 0.29081 0.67954 0.58879 0.0
C2157 C 0.27578 0.66534 0.58123 0.0
C2158 C 0.28962 0.69344 0.60401 0.0
C2159 C 0.27333 0.69341 0.61154 0.0
C2160 C 0.25839 0.67899 0.6042 0.0
H2161 H 0.25584 0.76851 0.71091 0.0
H2162 H 0.24826 0.75086 0.67866 0.0
C2163 C 0.25967 0.66483 0.58926 0.0
C2164 C 0.27187 0.70896 0.62659 0.0
H2165 H 0.26283 0.71877 0.6718 0.0
C2166 C 0.27667 0.72752 0.62352 0.0
C2167 C 0.2665 0.70564 0.64404 0.0
C2168 C 0.26211 0.68602 0.64836 0.0
C2169 C 0.27684 0.74302 0.6378 0.0
C2170 C 0.27189 0.73969 0.65533 0.0
C2171 C 0.26627 0.72113 0.65812 0.0
C2172 C 0.27554 0.75481 0.67196 0.0
C2173 C 0.28292 0.76279 0.63427 0.0
C2174 C 0.29328 0.7632 0.67843 0.0
C2175 C 0.29757 0.77317 0.69666 0.0
C2176 C 0.2842 0.77478 0.7086 0.0
C2177 C 0.26633 0.7675 0.70177 0.0
C2178 C 0.262 0.75757 0.68344 0.0
H2179 H 0.28115 0.76305 0.61918 0.0
H2180 H 0.27557 0.77261 0.64213 0.0
H2181 H 0.29726 0.76806 0.639 0.0
H2182 H 0.30392 0.76055 0.66998 0.0
H2183 H 0.31137 0.77789 0.70178 0.0
H2184 H 0.61712 0.04197 0.78068 0.0
H2185 H 0.61152 0.04024 0.81305 0.0
H2186 H 0.66766 0.04789 0.82777 0.0
H2187 H 0.67341 0.0499 0.79572 0.0
H2188 H 0.62363 0.01124 0.83105 0.0
H2189 H 0.64991 0.08626 0.868 0.0
H2190 H 0.6432 0.08023 0.84327 0.0
H2191 H 0.66332 0.07514 0.85204 0.0
C2192 C 0.62823 0.04361 0.79092 0.0
C2193 C 0.64559 0.0457 0.78578 0.0
C2194 C 0.62505 0.04251 0.80925 0.0
C2195 C 0.63924 0.04373 0.82247 0.0
C2196 C 0.65665 0.04686 0.81761 0.0
H2197 H 0.60757 0.05662 0.93362 0.0
H2198 H 0.62716 0.04335 0.91218 0.0
C2199 C 0.65983 0.0479 0.79934 0.0
C2200 C 0.63556 0.04085 0.84115 0.0
H2201 H 0.63392 0.0654 0.88472 0.0
C2202 C 0.6262 0.02292 0.84299 0.0
C2203 C 0.63948 0.05607 0.8566 0.0
C2204 C 0.64948 0.07557 0.85502 0.0
C2205 C 0.61888 0.02032 0.85958 0.0
C2206 C 0.62107 0.03606 0.87436 0.0
C2207 C 0.63236 0.05335 0.87326 0.0
C2208 C 0.60803 0.03702 0.88802 0.0
C2209 C 0.60757 1.00128 0.86062 0.0
C2210 C 0.59074 0.03727 0.88143 0.0
C2211 C 0.57989 0.04537 0.89342 0.0
C2212 C 0.58618 0.05295 0.91206 0.0
C2213 C 0.60273 0.05099 0.9191 0.0
C2214 C 0.61374 0.04318 0.90703 0.0
H2215 H 0.61241 0.98968 0.85196 0.0
H2216 H 0.60745 0.99914 0.87523 0.0
H2217 H 0.59374 1.0004 0.85508 0.0
H2218 H 0.58628 0.03293 0.86669 0.0
H2219 H 0.56696 0.04652 0.88798 0.0
H2220 H 0.3209 0.36768 0.09527 0.0
H2221 H 0.3159 0.35345 0.12281 0.0
H2222 H 0.25996 0.33489 0.10441 0.0
H2223 H 0.26522 0.34786 0.07625 0.0
H2224 H 0.29726 0.3611 0.15056 0.0
H2225 H 0.26899 0.28675 0.11446 0.0
H2226 H 0.27912 0.30468 0.10216 0.0
H2227 H 0.25664 0.303 0.10819 0.0
C2228 C 0.30763 0.36027 0.09704 0.0
C2229 C 0.29349 0.35847 0.08361 0.0
C2230 C 0.30474 0.35224 0.11275 0.0
C2231 C 0.2876 0.34273 0.11546 0.0
C2232 C 0.27339 0.34148 0.10227 0.0
H2233 H 0.26302 0.31472 0.22374 0.0
H2234 H 0.26045 0.32542 0.194 0.0
C2235 C 0.27638 0.34896 0.08626 0.0
C2236 C 0.28463 0.33459 0.13235 0.0
H2237 H 0.2683 0.29364 0.14729 0.0
C2238 C 0.29087 0.34636 0.14982 0.0
C2239 C 0.27634 0.31532 0.13136 0.0
C2240 C 0.27004 0.30167 0.11303 0.0
C2241 C 0.28931 0.33933 0.16628 0.0
C2242 C 0.28098 0.32015 0.16522 0.0
C2243 C 0.27447 0.30841 0.1479 0.0
C2244 C 0.2805 0.31173 0.1819 0.0
C2245 C 0.29723 0.35215 0.18465 0.0
C2246 C 0.29209 0.29997 0.1844 0.0
C2247 C 0.29333 0.29368 0.2011 0.0
C2248 C 0.28318 0.29935 0.21547 0.0
C2249 C 0.27106 0.31046 0.21275 0.0
C2250 C 0.2696 0.31651 0.19589 0.0
H2251 H 0.3045 0.36632 0.18286 0.0
H2252 H 0.28653 0.35409 0.19385 0.0
H2253 H 0.30653 0.34558 0.19185 0.0
H2254 H 0.30065 0.29628 0.17373 0.0
H2255 H 0.3028 0.28515 0.20313 0.0
H2256 H 0.24584 0.92047 0.00286 0.0
H2257 H 0.22038 0.93481 0.99922 0.0
H2258 H 0.25222 0.98925 0.02715 0.0
H2259 H 0.27757 0.9752 0.03079 0.0
H2260 H 0.20712 0.95393 0.03095 0.0
H2261 H 0.22674 0.99956 0.9802 0.0
H2262 H 0.23819 0.98144 0.98401 0.0
H2263 H 0.24346 0.00434 0.99939 0.0
C2264 C 0.24735 0.93549 0.00814 0.0
C2265 C 0.26353 0.94679 0.01712 0.0
C2266 C 0.23295 0.94363 0.00587 0.0
C2267 C 0.23476 0.96305 0.0125 0.0
C2268 C 0.25088 0.97431 0.02146 0.0
H2269 H 0.18236 0.04887 0.04859 0.0
H2270 H 0.20227 0.02883 0.03639 0.0
C2271 C 0.26522 0.96624 0.02372 0.0
C2272 C 0.21931 0.97135 0.01249 0.0
H2273 H 0.20531 0.00898 0.00145 0.0
C2274 C 0.20634 0.96564 0.02413 0.0
C2275 C 0.21879 0.98674 0.00374 0.0
C2276 C 0.23251 0.99324 0.99101 0.0
C2277 C 0.19339 0.97588 0.02842 0.0
C2278 C 0.19318 0.99173 0.02017 0.0
C2279 C 0.20558 0.99677 0.00766 0.0
C2280 C 0.18112 0.00414 0.02565 0.0
C2281 C 0.18096 0.97045 0.04275 0.0
C2282 C 0.16279 0.99684 0.02328 0.0
C2283 C 0.15151 0.00795 0.0308 0.0
C2284 C 0.15837 0.0268 0.04021 0.0
C2285 C 0.17674 0.03434 0.0417 0.0
C2286 C 0.18806 0.02303 0.03453 0.0
H2287 H 0.18581 0.96098 0.05097 0.0
H2288 H 0.17922 0.98318 0.0526 0.0
H2289 H 0.16777 0.96278 0.03555 0.0
H2290 H 0.15727 0.98234 0.0162 0.0
H2291 H 0.13747 1.00151 0.02969 0.0
H2292 H 0.72628 0.6773 0.01397 0.0
H2293 H 0.69673 0.65727 0.01431 0.0
H2294 H 0.7117 0.61117 0.97803 0.0
H2295 H 0.74145 0.63088 0.97828 0.0
H2296 H 0.67065 0.63989 0.98753 0.0
H2297 H 0.69348 0.58523 0.01889 0.0
H2298 H 0.70802 0.60754 0.01786 0.0
H2299 H 0.70326 0.58851 0.99773 0.0
C2300 C 0.72325 0.6629 0.00604 0.0
C2301 C 0.73623 0.6556 0.99622 0.0
C2302 C 0.70635 0.65144 0.00626 0.0
C2303 C 0.70204 0.63251 0.99654 0.0
C2304 C 0.71482 0.62548 0.98615 0.0
H2305 H 0.60373 0.54325 0.98448 0.0
H2306 H 0.63334 0.5614 0.98046 0.0
C2307 C 0.73179 0.63682 0.98616 0.0
C2308 C 0.68415 0.62023 0.99714 0.0
H2309 H 0.66297 0.57827 0.00767 0.0
C2310 C 0.66901 0.62642 0.99194 0.0
C2311 C 0.6819 0.60264 0.00295 0.0
C2312 C 0.69751 0.59566 0.00986 0.0
C2313 C 0.65179 0.6155 0.99219 0.0
C2314 C 0.64954 0.5979 0.99796 0.0
C2315 C 0.66466 0.59161 0.00301 0.0
C2316 C 0.63163 0.58659 0.00017 0.0
C2317 C 0.63613 0.62291 0.98619 0.0
C2318 C 0.62094 0.5945 0.0128 0.0
C2319 C 0.60413 0.5842 0.01515 0.0
C2320 C 0.59749 0.56556 0.005 0.0
C2321 C 0.6083 0.55753 0.99246 0.0
C2322 C 0.62526 0.5679 0.99016 0.0
H2323 H 0.63991 0.63328 0.97704 0.0
H2324 H 0.62518 0.61122 0.97866 0.0
H2325 H 0.63108 0.63025 0.99873 0.0
H2326 H 0.62567 0.60868 0.02103 0.0
H2327 H 0.59641 0.59097 0.02509 0.0
H2328 H 0.67717 0.43131 0.23794 0.0
H2329 H 0.69286 0.40547 0.23823 0.0
H2330 H 0.73024 0.4411 0.2825 0.0
H2331 H 0.71502 0.46711 0.28179 0.0
H2332 H 0.73344 0.40511 0.23476 0.0
H2333 H 0.71008 0.3892 0.30149 0.0
H2334 H 0.69824 0.40063 0.28683 0.0
H2335 H 0.71819 0.41382 0.30082 0.0
C2336 C 0.68877 0.43382 0.24775 0.0
C2337 C 0.69456 0.45183 0.25982 0.0
C2338 C 0.6979 0.41881 0.24789 0.0
C2339 C 0.71307 0.42074 0.26045 0.0
C2340 C 0.71874 0.43867 0.27258 0.0
H2341 H 0.77608 0.34423 0.29954 0.0
H2342 H 0.76053 0.3688 0.29484 0.0
C2343 C 0.7099 0.45379 0.27214 0.0
C2344 C 0.7228 0.40433 0.26115 0.0
H2345 H 0.73153 0.37358 0.28891 0.0
C2346 C 0.73297 0.39826 0.24665 0.0
C2347 C 0.72255 0.39484 0.27643 0.0
C2348 C 0.71162 0.39974 0.29229 0.0
C2349 C 0.7431 0.38405 0.24733 0.0
C2350 C 0.743 0.37454 0.26278 0.0
C2351 C 0.73236 0.38043 0.27702 0.0
C2352 C 0.75394 0.35919 0.265 0.0
C2353 C 0.75443 0.38017 0.23157 0.0
C2354 C 0.75641 0.34472 0.25011 0.0
C2355 C 0.7663 0.33082 0.25279 0.0
C2356 C 0.77383 0.33014 0.27062 0.0
C2357 C 0.77104 0.34422 0.28547 0.0
C2358 C 0.76172 0.35839 0.28274 0.0
H2359 H 0.75754 0.39228 0.22433 0.0
H2360 H 0.76714 0.37728 0.23663 0.0
H2361 H 0.74705 0.36771 0.2211 0.0
H2362 H 0.75021 0.34358 0.23629 0.0
H2363 H 0.76729 0.32001 0.24093 0.0
H2364 H 0.86512 0.4512 0.48211 0.0
H2365 H 0.89739 0.46035 0.48092 0.0
H2366 H 0.90502 0.46521 0.54058 0.0
H2367 H 0.87284 0.45682 0.54186 0.0
H2368 H 0.90643 0.49971 0.51176 0.0
H2369 H 0.95095 0.44949 0.51107 0.0
H2370 H 0.9287 0.44262 0.49937 0.0
H2371 H 0.93199 0.44546 0.52427 0.0
C2372 C 0.87387 0.45384 0.49481 0.0
C2373 C 0.86708 0.4544 0.51218 0.0
C2374 C 0.8921 0.45858 0.49405 0.0
C2375 C 0.90319 0.46346 0.51067 0.0
C2376 C 0.89638 0.46127 0.52768 0.0
H2377 H 0.00208 0.50553 0.54821 0.0
H2378 H 0.9724 0.50755 0.55549 0.0
C2379 C 0.87819 0.45695 0.52848 0.0
C2380 C 0.91989 0.47689 0.51173 0.0
H2381 H 0.96356 0.48182 0.5228 0.0
C2382 C 0.9191 0.49602 0.51407 0.0
C2383 C 0.93596 0.47163 0.51461 0.0
C2384 C 0.93707 0.45116 0.51209 0.0
C2385 C 0.93409 0.51033 0.52093 0.0
C2386 C 0.95009 0.50508 0.52489 0.0
C2387 C 0.95101 0.48585 0.52082 0.0
C2388 C 0.96676 0.51887 0.53125 0.0
C2389 C 0.93251 0.5307 0.52432 0.0
C2390 C 0.97427 0.52874 0.51799 0.0
C2391 C 0.99171 0.52878 0.5146 0.0
C2392 C 0.00116 0.51837 0.52379 0.0
C2393 C 0.99471 0.51241 0.5398 0.0
C2394 C 0.97793 0.5142 0.54442 0.0
H2395 H 0.91878 0.5319 0.52711 0.0
H2396 H 0.94186 0.53954 0.53619 0.0
H2397 H 0.93563 0.53647 0.51161 0.0
H2398 H 0.96617 0.53366 0.50833 0.0
H2399 H 0.99729 0.536 0.50418 0.0
H2400 H 0.36374 0.07671 0.32388 0.0
H2401 H 0.34821 0.10034 0.31542 0.0
H2402 H 0.39255 0.12213 0.28625 0.0
H2403 H 0.40823 0.09933 0.2951 0.0
H2404 H 0.37104 0.14893 0.31389 0.0
H2405 H 0.33588 0.09349 0.25326 0.0
H2406 H 0.34141 0.08749 0.2753 0.0
H2407 H 0.35861 0.09428 0.26081 0.0
C2408 C 0.37035 0.08712 0.31637 0.0
C2409 C 0.38723 0.08666 0.31049 0.0
C2410 C 0.36151 0.10038 0.31145 0.0
C2411 C 0.36941 0.11275 0.30031 0.0
C2412 C 0.38653 0.11281 0.29515 0.0
H2413 H 0.333 0.17343 0.22403 0.0
H2414 H 0.35072 0.15804 0.2423 0.0
C2415 C 0.39548 0.09994 0.30038 0.0
C2416 C 0.35943 0.12458 0.29248 0.0
H2417 H 0.33283 0.12467 0.25416 0.0
C2418 C 0.36243 0.1437 0.301 0.0
C2419 C 0.34871 0.11748 0.27545 0.0
C2420 C 0.34586 0.09705 0.26558 0.0
C2421 C 0.35492 0.15618 0.29273 0.0
C2422 C 0.34416 0.1491 0.27572 0.0
C2423 C 0.34111 0.1299 0.26727 0.0
C2424 C 0.33567 0.16122 0.26634 0.0
C2425 C 0.35893 0.17687 0.30185 0.0
C2426 C 0.32172 0.16831 0.27414 0.0
C2427 C 0.31162 0.17704 0.26378 0.0
C2428 C 0.31533 0.17852 0.24547 0.0
C2429 C 0.32985 0.17221 0.23806 0.0
C2430 C 0.33998 0.16357 0.24845 0.0
H2431 H 0.37019 0.18059 0.31291 0.0
H2432 H 0.36215 0.18583 0.29132 0.0
H2433 H 0.34704 0.18025 0.30832 0.0
H2434 H 0.31809 0.16623 0.28783 0.0
H2435 H 0.30035 0.18167 0.26967 0.0
H2436 H 0.34006 0.15296 0.54007 0.0
H2437 H 0.36746 0.14168 0.53844 0.0
H2438 H 0.37104 0.15121 0.48232 0.0
H2439 H 0.34349 0.16304 0.48398 0.0
H2440 H 0.36631 0.10852 0.49978 0.0
H2441 H 0.42427 0.16964 0.52059 0.0
H2442 H 0.40385 0.17097 0.5311 0.0
H2443 H 0.40473 0.1709 0.50669 0.0
C2444 C 0.34684 0.15303 0.52749 0.0
C2445 C 0.33953 0.1586 0.51205 0.0
C2446 C 0.36255 0.14671 0.52664 0.0
C2447 C 0.37122 0.14564 0.51029 0.0
C2448 C 0.36456 0.15212 0.49511 0.0
H2449 H 0.46473 0.0961 0.51721 0.0
H2450 H 0.44423 0.11311 0.50525 0.0
C2451 C 0.34886 0.15881 0.49607 0.0
C2452 C 0.38539 0.13497 0.5086 0.0
H2453 H 0.42912 0.13922 0.52207 0.0
C2454 C 0.38016 0.11519 0.50419 0.0
C2455 C 0.40339 0.14376 0.51417 0.0
C2456 C 0.40957 0.16501 0.51836 0.0
C2457 C 0.39224 0.10386 0.50635 0.0
C2458 C 0.40997 0.11261 0.51368 0.0
C2459 C 0.41551 0.13246 0.51672 0.0
C2460 C 0.42231 0.10156 0.51998 0.0
C2461 C 0.38562 0.08264 0.5012 0.0
C2462 C 0.41693 0.08945 0.53232 0.0
C2463 C 0.42833 0.07913 0.5386 0.0
C2464 C 0.44582 0.08124 0.53344 0.0
C2465 C 0.45132 0.09368 0.52128 0.0
C2466 C 0.43966 0.10365 0.51457 0.0
H2467 H 0.37499 0.07861 0.48946 0.0
H2468 H 0.39645 0.0754 0.49717 0.0
H2469 H 0.37974 0.07744 0.5133 0.0
H2470 H 0.40387 0.08804 0.53729 0.0
H2471 H 0.42329 0.06951 0.54758 0.0
H2472 H 0.70616 0.56611 0.24347 0.0
H2473 H 0.72349 0.59868 0.24497 0.0
H2474 H 0.70237 0.61721 0.29665 0.0
H2475 H 0.6849 0.58493 0.29494 0.0
H2476 H 0.71138 0.63328 0.24602 0.0
H2477 H 0.75584 0.64028 0.30984 0.0
H2478 H 0.74355 0.61758 0.2968 0.0
H2479 H 0.73263 0.63238 0.31234 0.0
C2480 C 0.70561 0.57698 0.25545 0.0
C2481 C 0.69446 0.57248 0.26941 0.0
C2482 C 0.71541 0.59581 0.2562 0.0
C2483 C 0.71468 0.61082 0.27109 0.0
C2484 C 0.7037 0.60619 0.28513 0.0
H2485 H 0.75319 0.73659 0.29412 0.0
H2486 H 0.7375 0.70367 0.29366 0.0
C2487 C 0.69369 0.58753 0.28419 0.0
C2488 C 0.7248 0.63126 0.27176 0.0
H2489 H 0.75614 0.66839 0.29836 0.0
C2490 C 0.72124 0.6408 0.25744 0.0
C2491 C 0.7377 0.64164 0.28665 0.0
C2492 C 0.74283 0.63247 0.30223 0.0
C2493 C 0.72987 0.65999 0.25775 0.0
C2494 C 0.74278 0.67028 0.27259 0.0
C2495 C 0.74633 0.6608 0.28691 0.0
C2496 C 0.75279 0.6907 0.27327 0.0
C2497 C 0.72488 0.66938 0.24229 0.0
C2498 C 0.76701 0.6949 0.26227 0.0
C2499 C 0.77639 0.7138 0.26294 0.0
C2500 C 0.77169 0.72935 0.27433 0.0
C2501 C 0.75735 0.72515 0.28521 0.0
C2502 C 0.74828 0.7062 0.28492 0.0
H2503 H 0.71325 0.66046 0.23292 0.0
H2504 H 0.72179 0.68318 0.24826 0.0
H2505 H 0.73632 0.67228 0.23389 0.0
H2506 H 0.77089 0.68348 0.25306 0.0
H2507 H 0.78706 0.71629 0.25407 0.0
H2508 H 0.90058 0.46199 0.76205 0.0
H2509 H 0.88031 0.43237 0.76438 0.0
H2510 H 0.84708 0.46371 0.79652 0.0
H2511 H 0.86679 0.49326 0.79401 0.0
H2512 H 0.8725 0.42455 0.80198 0.0
H2513 H 0.81307 0.42387 0.75514 0.0
H2514 H 0.83484 0.43759 0.75285 0.0
H2515 H 0.82276 0.44512 0.77201 0.0
C2516 C 0.88877 0.46256 0.76926 0.0
C2517 C 0.88531 0.47985 0.77799 0.0
C2518 C 0.87733 0.44574 0.77063 0.0
C2519 C 0.86246 0.44623 0.78066 0.0
C2520 C 0.85852 0.46335 0.78863 0.0
H2521 H 0.78676 0.34086 0.76985 0.0
H2522 H 0.79939 0.3739 0.78492 0.0
C2523 C 0.86981 0.48013 0.78716 0.0
C2524 C 0.85162 0.42873 0.78372 0.0
H2525 H 0.81284 0.39742 0.76811 0.0
C2526 C 0.8593 0.41857 0.79488 0.0
C2527 C 0.83434 0.42165 0.77488 0.0
C2528 C 0.8257 0.43253 0.76297 0.0
C2529 C 0.85054 0.40044 0.79622 0.0
C2530 C 0.8339 0.39244 0.78578 0.0
C2531 C 0.82557 0.40351 0.77614 0.0
C2532 C 0.82665 0.372 0.78114 0.0
C2533 C 0.85975 0.38998 0.80803 0.0
C2534 C 0.83774 0.36012 0.77404 0.0
C2535 C 0.83059 0.34122 0.76658 0.0
C2536 C 0.81228 0.33428 0.76552 0.0
C2537 C 0.801 0.34614 0.77147 0.0
C2538 C 0.80822 0.36485 0.77994 0.0
H2539 H 0.86605 0.39956 0.82131 0.0
H2540 H 0.8505 0.37771 0.8113 0.0
H2541 H 0.87052 0.38501 0.80053 0.0
H2542 H 0.85182 0.36552 0.77363 0.0
H2543 H 0.83929 0.33203 0.76155 0.0
H2544 H 0.07029 0.87658 0.10804 0.0
H2545 H 0.06538 0.90298 0.09424 0.0
H2546 H 0.07979 0.8763 0.04153 0.0
H2547 H 0.08439 0.84949 0.05523 0.0
H2548 H 0.08836 0.92794 0.07894 0.0
H2549 H 0.03351 0.88851 0.02498 0.0
H2550 H 0.04086 0.87817 0.04361 0.0
H2551 H 0.0537 0.88019 0.02403 0.0
C2552 C 0.0724 0.87623 0.09349 0.0
C2553 C 0.07769 0.86076 0.08278 0.0
C2554 C 0.06957 0.89141 0.08558 0.0
C2555 C 0.07188 0.89163 0.0667 0.0
C2556 C 0.07744 0.87635 0.05598 0.0
H2557 H 0.05597 0.98395 0.00848 0.0
H2558 H 0.06156 0.95345 0.01376 0.0
C2559 C 0.08023 0.86106 0.0639 0.0
C2560 C 0.06889 0.90819 0.05872 0.0
H2561 H 0.04266 0.92143 0.02669 0.0
C2562 C 0.07841 0.92642 0.06745 0.0
C2563 C 0.05613 0.90639 0.04348 0.0
C2564 C 0.04534 0.8873 0.03351 0.0
C2565 C 0.07526 0.94276 0.0618 0.0
C2566 C 0.06182 0.94105 0.04727 0.0
C2567 C 0.05283 0.92282 0.03792 0.0
C2568 C 0.05621 0.95811 0.0428 0.0
C2569 C 0.08642 0.96179 0.07157 0.0
C2570 C 0.05043 0.97041 0.05695 0.0
C2571 C 0.04744 0.9877 0.05401 0.0
C2572 C 0.04959 0.99305 0.03666 0.0
C2573 C 0.05401 0.98015 0.02193 0.0
C2574 C 0.05731 0.96278 0.025 0.0
H2575 H 0.09945 0.96049 0.0776 0.0
H2576 H 0.0888 0.97183 0.0619 0.0
H2577 H 0.0794 0.96787 0.08321 0.0
H2578 H 0.04892 0.96698 0.07061 0.0
H2579 H 0.04403 0.99732 0.06562 0.0
H2580 H 0.96308 0.29692 0.89941 0.0
H2581 H 0.93471 0.2966 0.88302 0.0
H2582 H 0.92606 0.23622 0.86374 0.0
H2583 H 0.95446 0.23652 0.88077 0.0
H2584 H 0.92787 0.28765 0.84609 0.0
H2585 H 0.8766 0.2404 0.87658 0.0
H2586 H 0.8988 0.24994 0.88787 0.0
H2587 H 0.89457 0.23007 0.86859 0.0
C2588 C 0.95487 0.28347 0.89217 0.0
C2589 C 0.96095 0.26673 0.89159 0.0
C2590 C 0.93865 0.28331 0.88265 0.0
C2591 C 0.92804 0.26642 0.87202 0.0
C2592 C 0.93371 0.24944 0.87206 0.0
H2593 H 0.83918 0.25299 0.78633 0.0
H2594 H 0.86482 0.24848 0.80459 0.0
C2595 C 0.94996 0.24958 0.88185 0.0
C2596 C 0.91216 0.26721 0.85967 0.0
H2597 H 0.8671 0.25078 0.84979 0.0
C2598 C 0.91461 0.27956 0.847 0.0
C2599 C 0.89473 0.25664 0.8606 0.0
C2600 C 0.89091 0.24363 0.87424 0.0
C2601 C 0.90032 0.28174 0.83551 0.0
C2602 C 0.88294 0.27137 0.8366 0.0
C2603 C 0.88043 0.25874 0.84895 0.0
C2604 C 0.86723 0.27401 0.82544 0.0
C2605 C 0.90383 0.29517 0.82221 0.0
C2606 C 0.8599 0.2898 0.83106 0.0
C2607 C 0.84515 0.29237 0.82066 0.0
C2608 C 0.83752 0.27939 0.80417 0.0
C2609 C 0.84488 0.26353 0.79864 0.0
C2610 C 0.85949 0.26083 0.80919 0.0
H2611 H 0.91826 0.3005 0.82139 0.0
H2612 H 0.8975 0.28804 0.80803 0.0
H2613 H 0.89785 0.30746 0.82692 0.0
H2614 H 0.86559 0.30016 0.84355 0.0
H2615 H 0.8399 0.30471 0.82546 0.0
H2616 H 0.59359 0.23671 0.60244 0.0
H2617 H 0.58816 0.2038 0.58636 0.0
H2618 H 0.55011 0.21375 0.54652 0.0
H2619 H 0.55569 0.24727 0.56266 0.0
H2620 H 0.55149 0.18008 0.58231 0.0
H2621 H 0.58152 0.1803 0.5148 0.0
H2622 H 0.58923 0.19971 0.53448 0.0
H2623 H 0.56771 0.19655 0.52254 0.0
C2624 C 0.58421 0.23207 0.59012 0.0
C2625 C 0.57494 0.24465 0.58399 0.0
C2626 C 0.58117 0.2132 0.58088 0.0
C2627 C 0.56874 0.20623 0.56523 0.0
C2628 C 0.55992 0.21885 0.55846 0.0
H2629 H 0.54533 0.08446 0.51158 0.0
H2630 H 0.54819 0.11883 0.5162 0.0
C2631 C 0.56309 0.23798 0.5677 0.0
C2632 C 0.56405 0.18539 0.55772 0.0
H2633 H 0.57228 0.15075 0.52344 0.0
C2634 C 0.55585 0.17366 0.56932 0.0
C2635 C 0.56931 0.17696 0.54057 0.0
C2636 C 0.57746 0.18891 0.52726 0.0
C2637 C 0.55351 0.1539 0.56474 0.0
C2638 C 0.56034 0.14549 0.54846 0.0
C2639 C 0.5675 0.15712 0.53619 0.0
C2640 C 0.56058 0.12485 0.5445 0.0
C2641 C 0.54365 0.14232 0.57752 0.0
C2642 C 0.56736 0.11671 0.55842 0.0
C2643 C 0.56521 0.09707 0.556 0.0
C2644 C 0.55727 0.08514 0.53918 0.0
C2645 C 0.55186 0.09333 0.52459 0.0
C2646 C 0.5534 0.11301 0.52726 0.0
H2647 H 0.53395 0.14959 0.58471 0.0
H2648 H 0.5364 0.12812 0.5698 0.0
H2649 H 0.55325 0.14056 0.58848 0.0
H2650 H 0.57367 0.1255 0.57155 0.0
H2651 H 0.56938 0.09113 0.5675 0.0
H2652 H 0.58026 0.78968 0.42319 0.0
H2653 H 0.60757 0.79364 0.40729 0.0
H2654 H 0.58379 0.74419 0.36524 0.0
H2655 H 0.5562 0.74094 0.38046 0.0
H2656 H 0.63182 0.77447 0.39862 0.0
H2657 H 0.59844 0.77963 0.33185 0.0
H2658 H 0.58714 0.77964 0.35275 0.0
H2659 H 0.58929 0.75766 0.33848 0.0
C2660 C 0.58087 0.77967 0.41053 0.0
C2661 C 0.56594 0.76513 0.40295 0.0
C2662 C 0.59654 0.78193 0.40142 0.0
C2663 C 0.59777 0.76957 0.38463 0.0
C2664 C 0.58312 0.75445 0.37767 0.0
H2665 H 0.67814 0.76152 0.30521 0.0
H2666 H 0.65416 0.75435 0.32534 0.0
C2667 C 0.56734 0.75247 0.38651 0.0
C2668 C 0.61415 0.77259 0.3743 0.0
H2669 H 0.62822 0.77613 0.33119 0.0
C2670 C 0.63098 0.77491 0.38389 0.0
C2671 C 0.61333 0.77338 0.35504 0.0
C2672 C 0.59611 0.77265 0.34399 0.0
C2673 C 0.64673 0.77753 0.37476 0.0
C2674 C 0.64578 0.77787 0.35545 0.0
C2675 C 0.62902 0.77561 0.34591 0.0
C2676 C 0.6619 0.78117 0.34487 0.0
C2677 C 0.66427 0.77963 0.3858 0.0
C2678 C 0.67455 0.7985 0.3492 0.0
C2679 C 0.68823 0.8026 0.33764 0.0
C2680 C 0.68974 0.7894 0.3216 0.0
C2681 C 0.67756 0.77178 0.31769 0.0
C2682 C 0.66376 0.76775 0.32914 0.0
H2683 H 0.6625 0.77434 0.39899 0.0
H2684 H 0.67303 0.77191 0.37748 0.0
H2685 H 0.67106 0.79484 0.38943 0.0
H2686 H 0.67331 0.80927 0.36098 0.0
H2687 H 0.69718 0.81645 0.34077 0.0
H2688 H 0.0577 0.25273 0.40258 0.0
H2689 H 0.05188 0.22686 0.41971 0.0
H2690 H 0.10591 0.24407 0.44521 0.0
H2691 H 0.1113 0.27069 0.42914 0.0
H2692 H 0.06624 0.19753 0.41805 0.0
H2693 H 0.08007 0.24046 0.49014 0.0
H2694 H 0.07826 0.251 0.47002 0.0
H2695 H 0.09853 0.24447 0.47647 0.0
C2696 C 0.06819 0.25102 0.41205 0.0
C2697 C 0.08483 0.26358 0.41483 0.0
C2698 C 0.06491 0.2363 0.42173 0.0
C2699 C 0.0784 0.23379 0.43391 0.0
C2700 C 0.09518 0.24615 0.43634 0.0
H2701 H 0.07637 0.15004 0.50308 0.0
H2702 H 0.08658 0.17086 0.48145 0.0
C2703 C 0.09827 0.26123 0.42712 0.0
C2704 C 0.07491 0.21794 0.44375 0.0
H2705 H 0.07517 0.20726 0.48701 0.0
C2706 C 0.06819 0.19963 0.43313 0.0
C2707 C 0.07755 0.22083 0.46342 0.0
C2708 C 0.08383 0.24027 0.47568 0.0
C2709 C 0.06371 0.18409 0.44174 0.0
C2710 C 0.06623 0.18706 0.46133 0.0
C2711 C 0.07345 0.2052 0.47191 0.0
C2712 C 0.06011 0.17196 0.47149 0.0
C2713 C 0.05613 0.1647 0.42992 0.0
C2714 C 0.04189 0.16574 0.47276 0.0
C2715 C 0.03607 0.1542 0.48529 0.0
C2716 C 0.04845 0.14875 0.49656 0.0
C2717 C 0.06665 0.15423 0.49456 0.0
C2718 C 0.07246 0.16594 0.4822 0.0
H2719 H 0.05867 0.16413 0.41505 0.0
H2720 H 0.06183 0.15384 0.43521 0.0
H2721 H 0.04156 0.16105 0.43067 0.0
H2722 H 0.03226 0.17052 0.46469 0.0
H2723 H 0.02196 0.14979 0.48642 0.0
H2724 H 0.55147 0.23769 0.15228 0.0
H2725 H 0.57956 0.23199 0.1641 0.0
H2726 H 0.58714 0.28288 0.20654 0.0
H2727 H 0.55867 0.28811 0.1953 0.0
H2728 H 0.61175 0.25466 0.16488 0.0
H2729 H 0.59797 0.24576 0.2365 0.0
H2730 H 0.58054 0.24496 0.21884 0.0
H2731 H 0.59324 0.26735 0.23198 0.0
C2732 C 0.5592 0.24762 0.16413 0.0
C2733 C 0.55329 0.26352 0.17278 0.0
C2734 C 0.57508 0.24428 0.1709 0.0
C2735 C 0.58523 0.25694 0.18623 0.0
C2736 C 0.57923 0.27274 0.19495 0.0
H2737 H 0.68655 0.28398 0.24377 0.0
H2738 H 0.66184 0.28498 0.22193 0.0
C2739 C 0.56316 0.27585 0.18843 0.0
C2740 C 0.60275 0.25451 0.19228 0.0
H2741 H 0.62869 0.25394 0.2309 0.0
C2742 C 0.61544 0.25422 0.17924 0.0
C2743 C 0.60733 0.2538 0.21099 0.0
C2744 C 0.59397 0.25277 0.2253 0.0
C2745 C 0.63298 0.25408 0.18472 0.0
C2746 C 0.63765 0.2544 0.20358 0.0
C2747 C 0.62488 0.25404 0.21645 0.0
C2748 C 0.65566 0.25483 0.21075 0.0
C2749 C 0.64648 0.25408 0.17062 0.0
C2750 C 0.66047 0.23762 0.21101 0.0
C2751 C 0.67421 0.23697 0.22372 0.0
C2752 C 0.68315 0.25355 0.236 0.0
C2753 C 0.67951 0.27105 0.23444 0.0
C2754 C 0.66568 0.27167 0.22187 0.0
H2755 H 0.64064 0.25397 0.15642 0.0
H2756 H 0.65751 0.2668 0.17499 0.0
H2757 H 0.65224 0.24145 0.17009 0.0
H2758 H 0.65263 0.22453 0.2026 0.0
H2759 H 0.67722 0.22346 0.22465 0.0
H2760 H 0.61831 0.89417 0.89144 0.0
H2761 H 0.61242 0.92269 0.91054 0.0
H2762 H 0.5939 0.89091 0.95238 0.0
H2763 H 0.60004 0.86262 0.93382 0.0
H2764 H 0.57724 0.92148 0.91793 0.0
H2765 H 0.62163 0.9409 0.9836 0.0
H2766 H 0.62653 0.92627 0.96274 0.0
H2767 H 0.61125 0.91614 0.97782 0.0
C2768 C 0.61358 0.89343 0.90501 0.0
C2769 C 0.6094 0.87614 0.91105 0.0
C2770 C 0.61025 0.9097 0.91585 0.0
C2771 C 0.60292 0.90878 0.93282 0.0
C2772 C 0.59998 0.89191 0.93949 0.0
H2773 H 0.54787 0.97073 0.01145 0.0
H2774 H 0.56057 0.94633 0.99277 0.0
C2775 C 0.60336 0.87572 0.92876 0.0
C2776 C 0.59541 0.9242 0.94211 0.0
H2777 H 0.59435 0.95155 0.9846 0.0
C2778 C 0.58113 0.92836 0.93241 0.0
C2779 C 0.60043 0.93273 0.96102 0.0
C2780 C 0.61592 0.9289 0.97184 0.0
C2781 C 0.57114 0.94035 0.94146 0.0
C2782 C 0.57599 0.94862 0.96052 0.0
C2783 C 0.59059 0.94488 0.97004 0.0
C2784 C 0.56666 0.96196 0.9707 0.0
C2785 C 0.5552 0.94348 0.93071 0.0
C2786 C 0.5659 0.97849 0.96427 0.0
C2787 C 0.55836 0.99195 0.97457 0.0
C2788 C 0.55194 0.98926 0.99163 0.0
C2789 C 0.55265 0.97279 0.99818 0.0
C2790 C 0.55988 0.95902 0.9876 0.0
H2791 H 0.54995 0.93154 0.91875 0.0
H2792 H 0.54435 0.94522 0.93976 0.0
H2793 H 0.5592 0.95649 0.92496 0.0
H2794 H 0.57166 0.98129 0.95162 0.0
H2795 H 0.55823 0.00479 0.9695 0.0
H2796 H 0.95512 0.78323 0.68426 0.0
H2797 H 0.9256 0.78267 0.69454 0.0
H2798 H 0.91972 0.72408 0.69896 0.0
H2799 H 0.94991 0.72507 0.68988 0.0
H2800 H 0.8924 0.7645 0.68793 0.0
H2801 H 0.92317 0.75049 0.75277 0.0
H2802 H 0.93557 0.75484 0.73326 0.0
H2803 H 0.92149 0.73189 0.73271 0.0
C2804 C 0.94741 0.77027 0.68738 0.0
C2805 C 0.95477 0.75457 0.68753 0.0
C2806 C 0.93057 0.76984 0.69292 0.0
C2807 C 0.92105 0.75356 0.69821 0.0
C2808 C 0.92739 0.73694 0.69563 0.0
H2809 H 0.82112 0.74549 0.72768 0.0
H2810 H 0.84933 0.73795 0.72281 0.0
C2811 C 0.94451 0.73757 0.69069 0.0
C2812 C 0.90639 0.75536 0.70946 0.0
H2813 H 0.89346 0.75392 0.75305 0.0
C2814 C 0.89263 0.76225 0.70217 0.0
C2815 C 0.9073 0.75303 0.72825 0.0
C2816 C 0.92276 0.74736 0.7373 0.0
C2817 C 0.87951 0.76673 0.71319 0.0
C2818 C 0.87975 0.76308 0.73146 0.0
C2819 C 0.89357 0.75653 0.73896 0.0
C2820 C 0.86417 0.76331 0.74142 0.0
C2821 C 0.86524 0.77496 0.70511 0.0
C2822 C 0.86346 0.77885 0.75533 0.0
C2823 C 0.84697 0.78244 0.7593 0.0
C2824 C 0.83171 0.77157 0.74818 0.0
C2825 C 0.83262 0.75476 0.736 0.0
C2826 C 0.84875 0.75024 0.7333 0.0
H2827 H 0.86974 0.78182 0.69336 0.0
H2828 H 0.85338 0.76344 0.69964 0.0
H2829 H 0.8612 0.78555 0.71591 0.0
H2830 H 0.87547 0.78879 0.762 0.0
H2831 H 0.84629 0.79416 0.77015 0.0
H2832 H 0.15566 0.01346 0.83605 0.0
H2833 H 0.14435 0.0146 0.86716 0.0
H2834 H 0.09111 0.00649 0.84204 0.0
H2835 H 0.1023 0.00579 0.81132 0.0
H2836 H 0.12382 0.04065 0.88678 0.0
H2837 H 0.08496 0.96671 0.8759 0.0
H2838 H 0.10224 0.97407 0.86139 0.0
H2839 H 0.08074 0.97908 0.85778 0.0
C2840 C 0.14151 0.01155 0.83705 0.0
C2841 C 0.13002 0.00927 0.82073 0.0
C2842 C 0.13498 0.01238 0.85504 0.0
C2843 C 0.11664 0.01049 0.85744 0.0
C2844 C 0.10522 0.00778 0.84106 0.0
H2845 H 0.04593 0.01056 0.94994 0.0
H2846 H 0.05916 0.00715 0.92022 0.0
C2847 C 0.11174 0.00737 0.82326 0.0
C2848 C 0.10938 0.01194 0.87679 0.0
H2849 H 0.08014 0.98773 0.90283 0.0
C2850 C 0.11443 0.02894 0.89027 0.0
C2851 C 0.09678 0.99699 0.88178 0.0
C2852 C 0.09091 0.9781 0.86857 0.0
C2853 C 0.10714 0.0315 0.90788 0.0
C2854 C 0.09463 0.01648 0.91301 0.0
C2855 C 0.08965 0.99944 0.89948 0.0
C2856 C 0.08642 0.01824 0.93195 0.0
C2857 C 0.11241 0.0508 0.92048 0.0
C2858 C 0.09687 0.02525 0.94929 0.0
C2859 C 0.08916 0.0273 0.9666 0.0
C2860 C 0.07058 0.02221 0.96758 0.0
C2861 C 0.06019 0.0147 0.95027 0.0
C2862 C 0.06788 0.01272 0.93296 0.0
H2863 H 0.11715 0.06203 0.91249 0.0
H2864 H 0.10114 0.05436 0.92808 0.0
H2865 H 0.12344 0.05097 0.93083 0.0
H2866 H 0.11117 0.02912 0.94955 0.0
H2867 H 0.0979 0.03306 0.9793 0.0
H2868 H 0.82828 0.37945 0.55004 0.0
H2869 H 0.83019 0.36511 0.57744 0.0
H2870 H 0.82216 0.41584 0.61267 0.0
H2871 H 0.82061 0.43046 0.58537 0.0
H2872 H 0.85075 0.38525 0.62071 0.0
H2873 H 0.77707 0.36245 0.60539 0.0
H2874 H 0.79138 0.36586 0.58703 0.0
H2875 H 0.78857 0.38594 0.60354 0.0
C2876 C 0.82735 0.38763 0.56372 0.0
C2877 C 0.82391 0.40574 0.56581 0.0
C2878 C 0.82854 0.37954 0.57923 0.0
C2879 C 0.82604 0.38949 0.59671 0.0
C2880 C 0.82409 0.40816 0.59909 0.0
H2881 H 0.82318 0.34696 0.69789 0.0
H2882 H 0.81562 0.36592 0.67574 0.0
C2883 C 0.82319 0.41639 0.5836 0.0
C2884 C 0.82291 0.37934 0.61179 0.0
H2885 H 0.79006 0.351 0.62947 0.0
C2886 C 0.83753 0.37799 0.62293 0.0
C2887 C 0.80556 0.36984 0.61411 0.0
C2888 C 0.78965 0.37097 0.60192 0.0
C2889 C 0.83524 0.36686 0.63643 0.0
C2890 C 0.81789 0.35717 0.63867 0.0
C2891 C 0.80322 0.35876 0.62769 0.0
C2892 C 0.81534 0.34413 0.65144 0.0
C2893 C 0.85138 0.36494 0.64776 0.0
C2894 C 0.81648 0.32541 0.64481 0.0
C2895 C 0.82096 0.31476 0.65732 0.0
C2896 C 0.82405 0.32282 0.67639 0.0
C2897 C 0.82073 0.34066 0.68315 0.0
C2898 C 0.81636 0.35138 0.67062 0.0
H2899 H 0.86396 0.37286 0.64363 0.0
H2900 H 0.85049 0.37036 0.66278 0.0
H2901 H 0.85188 0.3498 0.64604 0.0
H2902 H 0.81582 0.31982 0.62996 0.0
H2903 H 0.82355 0.30096 0.65204 0.0
H2904 H 0.42233 0.03155 0.35052 0.0
H2905 H 0.43306 0.03846 0.38354 0.0
H2906 H 0.48557 0.03447 0.36875 0.0
H2907 H 0.47511 0.0277 0.33566 0.0
H2908 H 0.45573 0.0154 0.40301 0.0
H2909 H 0.48637 0.09037 0.40175 0.0
H2910 H 0.46767 0.07649 0.38573 0.0
H2911 H 0.48975 0.07351 0.38192 0.0
C2912 C 0.43614 0.03197 0.35432 0.0
C2913 C 0.44807 0.02943 0.34069 0.0
C2914 C 0.44213 0.03589 0.37307 0.0
C2915 C 0.46001 0.03729 0.37814 0.0
C2916 C 0.47172 0.03364 0.36469 0.0
H2917 H 0.54014 0.036 0.45172 0.0
H2918 H 0.51851 0.03671 0.42632 0.0
C2919 C 0.46575 0.02967 0.34594 0.0
C2920 C 0.46695 0.04295 0.3975 0.0
H2921 H 0.49917 0.07675 0.42506 0.0
C2922 C 0.46479 0.029 0.40827 0.0
C2923 C 0.47851 0.06079 0.40397 0.0
C2924 C 0.48063 0.07624 0.3928 0.0
C2925 C 0.47557 0.03183 0.42479 0.0
C2926 C 0.48841 0.04897 0.43022 0.0
C2927 C 0.48928 0.06361 0.42045 0.0
C2928 C 0.5024 0.05108 0.44472 0.0
C2929 C 0.4742 0.01606 0.43553 0.0
C2930 C 0.50059 0.05986 0.46283 0.0
C2931 C 0.51295 0.05975 0.47707 0.0
C2932 C 0.527 0.05085 0.47309 0.0
C2933 C 0.52958 0.04335 0.45476 0.0
C2934 C 0.51717 0.04346 0.44047 0.0
H2935 H 0.46199 0.00475 0.4308 0.0
H2936 H 0.4859 0.00966 0.43358 0.0
H2937 H 0.47426 0.02172 0.45068 0.0
H2938 H 0.48917 0.06579 0.46603 0.0
H2939 H 0.51081 0.06529 0.49135 0.0
H2940 H 0.80008 0.74059 0.05764 0.0
H2941 H 0.8031 0.76014 0.08934 0.0
H2942 H 0.79384 0.70957 0.11234 0.0
H2943 H 0.79092 0.69022 0.0813 0.0
H2944 H 0.77659 0.75787 0.11618 0.0
H2945 H 0.83884 0.74287 0.14347 0.0
H2946 H 0.8324 0.7393 0.11877 0.0
H2947 H 0.82339 0.72165 0.13184 0.0
C2948 C 0.79885 0.73371 0.0695 0.0
C2949 C 0.79516 0.71382 0.06688 0.0
C2950 C 0.80056 0.74488 0.08756 0.0
C2951 C 0.7989 0.7363 0.1032 0.0
C2952 C 0.79547 0.71653 0.10053 0.0
H2953 H 0.78365 0.73765 0.21359 0.0
H2954 H 0.7849 0.73375 0.17992 0.0
C2955 C 0.79366 0.70545 0.08268 0.0
C2956 C 0.79971 0.74744 0.12242 0.0
H2957 H 0.81863 0.75076 0.16635 0.0
C2958 C 0.78608 0.75686 0.12714 0.0
C2959 C 0.81215 0.74615 0.13668 0.0
C2960 C 0.82762 0.7371 0.13241 0.0
C2961 C 0.78366 0.76354 0.14593 0.0
C2962 C 0.79523 0.76077 0.16018 0.0
C2963 C 0.80966 0.75269 0.15537 0.0
C2964 C 0.79145 0.76377 0.18002 0.0
C2965 C 0.7681 0.7723 0.15053 0.0
C2966 C 0.79393 0.78198 0.19116 0.0
C2967 C 0.79297 0.78425 0.21052 0.0
C2968 C 0.78962 0.76829 0.21886 0.0
C2969 C 0.7861 0.75016 0.20747 0.0
C2970 C 0.78693 0.74792 0.18826 0.0
H2971 H 0.75971 0.77247 0.13783 0.0
H2972 H 0.75978 0.76438 0.15967 0.0
H2973 H 0.77301 0.78708 0.15835 0.0
H2974 H 0.79757 0.79439 0.18505 0.0
H2975 H 0.79605 0.79838 0.21906 0.0
H2976 H 0.15612 0.00382 0.68916 0.0
H2977 H 0.1409 0.00874 0.66085 0.0
H2978 H 0.09423 0.01204 0.68963 0.0
H2979 H 0.10942 0.00701 0.718 0.0
H2980 H 0.11106 0.98913 0.63764 0.0
H2981 H 0.09877 0.05933 0.66795 0.0
H2982 H 0.11359 0.04849 0.67982 0.0
H2983 H 0.08997 0.04079 0.67999 0.0
C2984 C 0.1426 0.00557 0.6896 0.0
C2985 C 0.13427 0.005 0.70633 0.0
C2986 C 0.13378 0.00842 0.67318 0.0
C2987 C 0.11625 0.01122 0.67263 0.0
C2988 C 0.10779 0.01043 0.68928 0.0
H2989 H 0.04847 0.03201 0.57624 0.0
H2990 H 0.05833 0.02684 0.60727 0.0
C2991 C 0.11655 0.00735 0.70568 0.0
C2992 C 0.10704 0.01466 0.65471 0.0
H2993 H 0.08718 0.04626 0.63666 0.0
C2994 C 0.1059 1.00169 0.63762 0.0
C2995 C 0.0998 0.03083 0.65404 0.0
C2996 C 0.10066 0.04578 0.67135 0.0
C2997 C 0.09813 0.00437 0.62049 0.0
C2998 C 0.09151 0.02086 0.61967 0.0
C2999 C 0.09217 0.03362 0.63681 0.0
C3000 C 0.08514 0.02542 0.60104 0.0
C3001 C 0.09678 0.98915 0.60327 0.0
C3002 C 0.09671 0.02711 0.58689 0.0
C3003 C 0.09113 0.03025 0.56927 0.0
C3004 C 0.07363 0.03188 0.56464 0.0
C3005 C 0.06204 0.03091 0.57898 0.0
C3006 C 0.06774 0.02786 0.59687 0.0
H3007 H 0.09738 0.97531 0.60689 0.0
H3008 H 0.08423 0.98739 0.59441 0.0
H3009 H 0.10804 0.9932 0.59496 0.0
H3010 H 0.11027 0.02583 0.5894 0.0
H3011 H 0.10067 0.03104 0.55896 0.0
H3012 H 0.80033 0.41896 0.43924 0.0
H3013 H 0.80471 0.39755 0.4107 0.0
H3014 H 0.83784 0.37257 0.44319 0.0
H3015 H 0.83304 0.39326 0.47156 0.0
H3016 H 0.83517 0.38934 0.39377 0.0
H3017 H 0.79601 0.32867 0.4201 0.0
H3018 H 0.79686 0.35299 0.43065 0.0
H3019 H 0.81497 0.34229 0.43549 0.0
C3020 C 0.80862 0.40896 0.44012 0.0
C3021 C 0.81594 0.40721 0.45739 0.0
C3022 C 0.81118 0.3969 0.42395 0.0
C3023 C 0.82128 0.38337 0.42513 0.0
C3024 C 0.82969 0.38269 0.44223 0.0
H3025 H 0.83747 0.30077 0.32817 0.0
H3026 H 0.84362 0.32128 0.35956 0.0
C3027 C 0.82687 0.39441 0.45832 0.0
C3028 C 0.82181 0.36885 0.40882 0.0
H3029 H 0.80811 0.3215 0.3915 0.0
C3030 C 0.82949 0.37448 0.39329 0.0
C3031 C 0.81416 0.34957 0.40842 0.0
C3032 C 0.80488 0.34299 0.42448 0.0
C3033 C 0.82939 0.36116 0.37701 0.0
C3034 C 0.82162 0.34198 0.37663 0.0
C3035 C 0.8144 0.33628 0.39228 0.0
C3036 C 0.81787 0.3283 0.35911 0.0
C3037 C 0.83658 0.36768 0.35998 0.0
C3038 C 0.80128 0.32539 0.34922 0.0
C3039 C 0.79773 0.31366 0.33178 0.0
C3040 C 0.81073 0.30477 0.32419 0.0
C3041 C 0.82723 0.30728 0.33422 0.0
C3042 C 0.83076 0.31897 0.35188 0.0
H3043 H 0.84352 0.38288 0.36309 0.0
H3044 H 0.84594 0.35909 0.35421 0.0
H3045 H 0.82547 0.36556 0.34903 0.0
H3046 H 0.79136 0.33279 0.3547 0.0
H3047 H 0.78525 0.31249 0.32377 0.0
H3048 H 0.45547 0.06164 0.25443 0.0
H3049 H 0.46945 0.05393 0.22579 0.0
H3050 H 0.42035 0.01598 0.20005 0.0
H3051 H 0.40611 0.02398 0.22867 0.0
H3052 H 0.4725 0.01749 0.20774 0.0
H3053 H 0.43423 0.05248 0.16386 0.0
H3054 H 0.43476 0.05696 0.18899 0.0
H3055 H 0.42175 0.03514 0.17536 0.0
C3056 C 0.4476 0.05195 0.24252 0.0
C3057 C 0.42969 0.04373 0.24341 0.0
C3058 C 0.45559 0.04744 0.22633 0.0
C3059 C 0.44578 0.03461 0.21095 0.0
C3060 C 0.42791 0.02622 0.21179 0.0
H3061 H 0.48882 0.99433 0.10912 0.0
H3062 H 0.4675 1.00166 0.13155 0.0
C3063 C 0.41981 0.0309 0.22798 0.0
C3064 C 0.45449 0.03042 0.194 0.0
H3065 H 0.45701 0.03936 0.15012 0.0
C3066 C 0.46905 0.02207 0.19505 0.0
C3067 C 0.4498 0.03654 0.17767 0.0
C3068 C 0.43436 0.0459 0.17631 0.0
C3069 C 0.47948 0.02013 0.18019 0.0
C3070 C 0.47517 0.02683 0.1641 0.0
C3071 C 0.46023 0.03452 0.16271 0.0
C3072 C 0.48621 0.02552 0.1486 0.0
C3073 C 0.49523 0.01125 0.18188 0.0
C3074 C 0.50338 0.03704 0.1507 0.0
C3075 C 0.51552 0.03273 0.13815 0.0
C3076 C 0.51045 0.01689 0.1236 0.0
C3077 C 0.49292 0.00627 0.1207 0.0
C3078 C 0.48077 0.0106 0.13322 0.0
H3079 H 0.49479 0.00376 0.19374 0.0
H3080 H 0.49584 1.00106 0.16884 0.0
H3081 H 0.50763 0.02249 0.18416 0.0
H3082 H 0.50763 0.04863 0.16259 0.0
H3083 H 0.52896 0.04129 0.14013 0.0
H3084 H 0.80152 0.68737 0.93493 0.0
H3085 H 0.80478 0.6998 0.90635 0.0
H3086 H 0.79997 0.75445 0.93603 0.0
H3087 H 0.79679 0.74215 0.96489 0.0
H3088 H 0.77993 0.7159 0.88885 0.0
H3089 H 0.84557 0.76607 0.90885 0.0
H3090 H 0.8376 0.74722 0.92104 0.0
H3091 H 0.82922 0.76839 0.92519 0.0
C3092 C 0.80128 0.70209 0.93547 0.0
C3093 C 0.79898 0.71382 0.95222 0.0
C3094 C 0.80312 0.70913 0.91911 0.0
C3095 C 0.80283 0.72806 0.91918 0.0
C3096 C 0.80054 0.73987 0.93582 0.0
H3097 H 0.80232 0.79309 0.83308 0.0
H3098 H 0.80381 0.78225 0.86254 0.0
C3099 C 0.79866 0.73281 0.95225 0.0
C3100 C 0.80428 0.73514 0.9016 0.0
H3101 H 0.83037 0.7667 0.88016 0.0
C3102 C 0.79098 0.72695 0.8869 0.0
C3103 C 0.81875 0.74953 0.89918 0.0
C3104 C 0.83371 0.75826 0.91432 0.0
C3105 C 0.79161 0.733 0.86986 0.0
C3106 C 0.80608 0.74738 0.86745 0.0
C3107 C 0.81937 0.7556 0.88213 0.0
C3108 C 0.80723 0.75447 0.84992 0.0
C3109 C 0.77661 0.7243 0.85472 0.0
C3110 C 0.80918 0.74256 0.83323 0.0
C3111 C 0.80846 0.74876 0.81639 0.0
C3112 C 0.80602 0.76703 0.81611 0.0
C3113 C 0.80477 0.77917 0.83296 0.0
C3114 C 0.80543 0.77294 0.84976 0.0
H3115 H 0.76486 0.71616 0.86009 0.0
H3116 H 0.77248 0.7354 0.84829 0.0
H3117 H 0.78117 0.71447 0.8436 0.0
H3118 H 0.8108 0.72832 0.83319 0.0
H3119 H 0.80945 0.73916 0.80356 0.0
H3120 H 0.81878 0.10171 0.05409 0.0
H3121 H 0.84937 0.09738 0.05545 0.0
H3122 H 0.85339 0.10721 0.99931 0.0
H3123 H 0.82326 0.11226 0.99824 0.0
H3124 H 0.85864 0.0696 0.03245 0.0
H3125 H 0.90102 0.1374 0.02393 0.0
H3126 H 0.87868 0.13552 0.03072 0.0
H3127 H 0.88248 0.12946 0.00652 0.0
C3128 C 0.8263 0.10288 0.04211 0.0
C3129 C 0.81887 0.10702 0.02599 0.0
C3130 C 0.84375 0.10078 0.04301 0.0
C3131 C 0.85371 0.10258 0.02769 0.0
C3132 C 0.84615 0.10657 0.01154 0.0
H3133 H 0.92852 0.05369 0.97181 0.0
H3134 H 0.90847 0.07394 0.98363 0.0
C3135 C 0.82888 0.10901 0.01078 0.0
C3136 C 0.87075 0.09701 0.02717 0.0
H3137 H 0.91249 0.10915 0.01384 0.0
C3138 C 0.8706 0.07842 0.02893 0.0
C3139 C 0.88615 0.10857 0.02232 0.0
C3140 C 0.88714 0.12891 0.02095 0.0
C3141 C 0.88508 0.07054 0.02474 0.0
C3142 C 0.9002 0.08178 0.01911 0.0
C3143 C 0.90078 0.1007 0.01821 0.0
C3144 C 0.91474 0.07329 0.0126 0.0
C3145 C 0.88364 0.04988 0.02521 0.0
C3146 C 0.92497 0.06676 0.02514 0.0
C3147 C 0.93604 0.05501 0.01846 0.0
C3148 C 0.93708 0.04981 0.99916 0.0
C3149 C 0.92753 0.0572 0.98669 0.0
C3150 C 0.91641 0.06897 0.99341 0.0
H3151 H 0.86984 0.04243 0.02654 0.0
H3152 H 0.8882 0.04248 0.01236 0.0
H3153 H 0.89225 0.04873 0.03733 0.0
H3154 H 0.92368 0.06999 0.03999 0.0
H3155 H 0.94338 0.04951 0.02832 0.0
H3156 H 0.36094 0.42209 0.06141 0.0
H3157 H 0.39261 0.43837 0.06558 0.0
H3158 H 0.39007 0.44353 0.00788 0.0
H3159 H 0.35859 0.428 0.00385 0.0
H3160 H 0.42425 0.43296 0.04618 0.0
H3161 H 0.40374 0.49865 0.03738 0.0
H3162 H 0.38835 0.4783 0.04202 0.0
H3163 H 0.39467 0.47879 0.01879 0.0
C3164 C 0.36726 0.42651 0.0496 0.0
C3165 C 0.35724 0.42415 0.0324 0.0
C3166 C 0.38533 0.43577 0.05198 0.0
C3167 C 0.3936 0.44255 0.03714 0.0
C3168 C 0.38387 0.43885 0.01964 0.0
H3169 H 0.48797 0.50585 0.00582 0.0
H3170 H 0.45888 0.48725 0.00987 0.0
C3171 C 0.36588 0.42997 0.01736 0.0
C3172 C 0.41183 0.45488 0.03996 0.0
H3173 H 0.43436 0.49863 0.03517 0.0
C3174 C 0.4265 0.44742 0.04409 0.0
C3175 C 0.41475 0.4738 0.03734 0.0
C3176 C 0.39955 0.48295 0.03382 0.0
C3177 C 0.44403 0.4581 0.04463 0.0
C3178 C 0.44689 0.47673 0.04116 0.0
C3179 C 0.43219 0.48436 0.03779 0.0
C3180 C 0.46485 0.48798 0.0392 0.0
C3181 C 0.45939 0.44914 0.04801 0.0
C3182 C 0.47787 0.49497 0.05445 0.0
C3183 C 0.49462 0.50579 0.05214 0.0
C3184 C 0.4986 0.50951 0.0345 0.0
C3185 C 0.48544 0.5028 0.01943 0.0
C3186 C 0.46875 0.49224 0.02177 0.0
H3187 H 0.45496 0.43376 0.0478 0.0
H3188 H 0.46888 0.45115 0.03729 0.0
H3189 H 0.4666 0.45615 0.06184 0.0
H3190 H 0.47506 0.49213 0.06811 0.0
H3191 H 0.50456 0.51084 0.06396 0.0
H3192 H 0.41109 0.63902 0.79908 0.0
H3193 H 0.39523 0.6647 0.79913 0.0
H3194 H 0.36883 0.63629 0.74511 0.0
H3195 H 0.38348 0.61018 0.74581 0.0
H3196 H 0.39161 0.69179 0.78474 0.0
H3197 H 0.32549 0.64589 0.7627 0.0
H3198 H 0.34405 0.63625 0.76844 0.0
H3199 H 0.3399 0.64045 0.7452 0.0
C3200 C 0.40169 0.63801 0.78727 0.0
C3201 C 0.39858 0.6218 0.7726 0.0
C3202 C 0.39249 0.65301 0.78725 0.0
C3203 C 0.37978 0.65288 0.77243 0.0
C3204 C 0.37743 0.63702 0.75743 0.0
H3205 H 0.32241 0.73366 0.73371 0.0
H3206 H 0.33762 0.70865 0.73838 0.0
C3207 C 0.3862 0.62186 0.75769 0.0
C3208 C 0.3694 0.66905 0.77236 0.0
H3209 H 0.32884 0.67783 0.75867 0.0
C3210 C 0.37782 0.68844 0.77916 0.0
C3211 C 0.35105 0.66572 0.76559 0.0
C3212 C 0.33956 0.64596 0.7603 0.0
C3213 C 0.36905 0.70376 0.77862 0.0
C3214 C 0.35108 0.70031 0.77083 0.0
C3215 C 0.34259 0.68105 0.7644 0.0
C3216 C 0.34109 0.71615 0.76848 0.0
C3217 C 0.37932 0.72377 0.78609 0.0
C3218 C 0.33704 0.72918 0.78367 0.0
C3219 C 0.32761 0.74345 0.78097 0.0
C3220 C 0.322 0.74563 0.76291 0.0
C3221 C 0.32611 0.73261 0.74787 0.0
C3222 C 0.33505 0.71815 0.75056 0.0
H3223 H 0.39375 0.72463 0.78882 0.0
H3224 H 0.37742 0.73302 0.77614 0.0
H3225 H 0.37426 0.72939 0.79939 0.0
H3226 H 0.34113 0.72833 0.79778 0.0
H3227 H 0.32522 0.75317 0.79308 0.0
H3228 H 0.23486 0.62402 0.54219 0.0
H3229 H 0.20641 0.60469 0.54679 0.0
H3230 H 0.18547 0.60854 0.49212 0.0
H3231 H 0.21469 0.62667 0.48696 0.0
H3232 H 0.17633 0.61307 0.54854 0.0
H3233 H 0.17069 0.55273 0.48968 0.0
H3234 H 0.1912 0.57016 0.49718 0.0
H3235 H 0.17462 0.57444 0.48132 0.0
C3236 C 0.22418 0.62052 0.53116 0.0
C3237 C 0.22666 0.62628 0.51416 0.0
C3238 C 0.20805 0.60953 0.53376 0.0
C3239 C 0.19421 0.6047 0.51951 0.0
C3240 C 0.19637 0.61151 0.50289 0.0
H3241 H 0.08815 0.59464 0.52004 0.0
H3242 H 0.12057 0.60209 0.52242 0.0
C3243 C 0.21276 0.62209 0.50009 0.0
C3244 C 0.17706 0.59377 0.52265 0.0
H3245 H 0.1426 0.55851 0.50087 0.0
C3246 C 0.16913 0.6008 0.53839 0.0
C3247 C 0.16802 0.57744 0.5097 0.0
C3248 C 0.17671 0.56815 0.49367 0.0
C3249 C 0.15159 0.59301 0.54055 0.0
C3250 C 0.14188 0.57845 0.52627 0.0
C3251 C 0.15022 0.57008 0.51152 0.0
C3252 C 0.12269 0.57382 0.52506 0.0
C3253 C 0.14328 0.60105 0.5575 0.0
C3254 C 0.1136 0.5554 0.52505 0.0
C3255 C 0.09527 0.55108 0.52312 0.0
C3256 C 0.08595 0.56524 0.52175 0.0
C3257 C 0.09514 0.58368 0.52168 0.0
C3258 C 0.1135 0.58791 0.52309 0.0
H3259 H 0.15341 0.60741 0.56954 0.0
H3260 H 0.13689 0.61236 0.55428 0.0
H3261 H 0.133 0.58994 0.56155 0.0
H3262 H 0.12066 0.54441 0.52629 0.0
H3263 H 0.08851 0.53661 0.52251 0.0
H3264 H 0.68843 0.97 0.71789 0.0
H3265 H 0.70204 0.94293 0.71876 0.0
H3266 H 0.73522 0.97448 0.76844 0.0
H3267 H 0.72197 1.00171 0.76739 0.0
H3268 H 0.74864 0.95025 0.7296 0.0
H3269 H 0.69677 0.91625 0.77027 0.0
H3270 H 0.69191 0.92949 0.75295 0.0
H3271 H 0.70314 0.94173 0.77526 0.0
C3272 C 0.69865 0.97102 0.72895 0.0
C3273 C 0.70423 0.98754 0.74271 0.0
C3274 C 0.70638 0.95575 0.72932 0.0
C3275 C 0.71943 0.95702 0.74363 0.0
C3276 C 0.72515 0.9736 0.75727 0.0
H3277 H 0.77179 0.91343 0.81498 0.0
H3278 H 0.75427 0.92749 0.79551 0.0
C3279 C 0.71765 0.98897 0.75671 0.0
C3280 C 0.72687 0.9409 0.74519 0.0
H3281 H 0.7251 0.90869 0.77293 0.0
C3282 C 0.74343 0.94062 0.73858 0.0
C3283 C 0.71963 0.9286 0.75678 0.0
C3284 C 0.70181 0.92887 0.76419 0.0
C3285 C 0.75409 0.9297 0.74515 0.0
C3286 C 0.74753 0.91867 0.75823 0.0
C3287 C 0.73006 0.91737 0.76304 0.0
C3288 C 0.75924 0.91094 0.76942 0.0
C3289 C 0.77272 0.93145 0.73939 0.0
C3290 C 0.76824 0.89755 0.76106 0.0
C3291 C 0.77898 0.89017 0.77211 0.0
C3292 C 0.7802 0.89546 0.79173 0.0
C3293 C 0.77131 0.90914 0.79997 0.0
C3294 C 0.76108 0.91697 0.78888 0.0
H3295 H 0.77658 0.94319 0.73178 0.0
H3296 H 0.78245 0.9339 0.75175 0.0
H3297 H 0.7736 0.9181 0.72999 0.0
H3298 H 0.7668 0.89263 0.74607 0.0
H3299 H 0.78611 0.88012 0.76522 0.0
H3300 H 0.76357 0.93419 0.55681 0.0
H3301 H 0.73859 0.94952 0.5551 0.0
H3302 H 0.71085 0.90272 0.51201 0.0
H3303 H 0.7354 0.88697 0.51433 0.0
H3304 H 0.72792 0.96187 0.52649 0.0
H3305 H 0.67086 0.90986 0.54251 0.0
H3306 H 0.6935 0.90792 0.54677 0.0
H3307 H 0.68195 0.89958 0.52376 0.0
C3308 C 0.75199 0.92705 0.54722 0.0
C3309 C 0.75142 0.90942 0.5357 0.0
C3310 C 0.73772 0.93579 0.54626 0.0
C3311 C 0.72269 0.92718 0.53362 0.0
C3312 C 0.72201 0.90941 0.52229 0.0
H3313 H 0.6412 0.96848 0.48148 0.0
H3314 H 0.66123 0.94968 0.49151 0.0
C3315 C 0.73614 0.90049 0.5235 0.0
C3316 C 0.70868 0.93768 0.53093 0.0
H3317 H 0.66381 0.93411 0.52748 0.0
C3318 C 0.71394 0.95588 0.52702 0.0
C3319 C 0.69038 0.92984 0.53148 0.0
C3320 C 0.68386 0.9108 0.53655 0.0
C3321 C 0.70145 0.96624 0.52319 0.0
C3322 C 0.68321 0.95824 0.52333 0.0
C3323 C 0.67786 0.94016 0.52741 0.0
C3324 C 0.66957 0.96826 0.51842 0.0
C3325 C 0.7078 0.98549 0.5185 0.0
C3326 C 0.66734 0.98458 0.5305 0.0
C3327 C 0.65579 0.99517 0.52488 0.0
C3328 C 0.64654 0.98966 0.50705 0.0
C3329 C 0.64832 0.97298 0.49525 0.0
C3330 C 0.65966 0.96225 0.50097 0.0
H3331 H 0.7221 0.98836 0.51612 0.0
H3332 H 0.7 0.98673 0.50582 0.0
H3333 H 0.70582 0.99655 0.5302 0.0
H3334 H 0.67489 0.98937 0.54403 0.0
H3335 H 0.65461 0.00803 0.53413 0.0
H3336 H 0.4125 0.49691 0.7901 0.0
H3337 H 0.39522 0.46473 0.78953 0.0
H3338 H 0.36372 0.46711 0.74024 0.0
H3339 H 0.38093 0.49953 0.74101 0.0
H3340 H 0.3594 0.44828 0.79133 0.0
H3341 H 0.38011 0.41767 0.72339 0.0
H3342 H 0.39104 0.44081 0.73658 0.0
H3343 H 0.37036 0.43762 0.72276 0.0
C3344 C 0.40161 0.4908 0.77935 0.0
C3345 C 0.39796 0.50131 0.7659 0.0
C3346 C 0.39173 0.47216 0.77895 0.0
C3347 C 0.37805 0.46287 0.76471 0.0
C3348 C 0.37422 0.47346 0.75134 0.0
H3349 H 0.29973 0.35114 0.74714 0.0
H3350 H 0.31525 0.38403 0.7472 0.0
C3351 C 0.38395 0.49229 0.75193 0.0
C3352 C 0.36807 0.44229 0.76386 0.0
H3353 H 0.35798 0.39744 0.73615 0.0
C3354 C 0.35913 0.43728 0.77918 0.0
C3355 C 0.36768 0.42737 0.74828 0.0
C3356 C 0.37793 0.43098 0.73187 0.0
C3357 C 0.34969 0.41841 0.77912 0.0
C3358 C 0.34896 0.40364 0.76339 0.0
C3359 C 0.35809 0.40853 0.74817 0.0
C3360 C 0.33935 0.38308 0.76291 0.0
C3361 C 0.34041 0.41426 0.79596 0.0
C3362 C 0.34745 0.37102 0.77151 0.0
C3363 C 0.33863 0.35204 0.77131 0.0
C3364 C 0.32114 0.34422 0.7627 0.0
C3365 C 0.31303 0.35633 0.75404 0.0
C3366 C 0.322 0.37532 0.75404 0.0
H3367 H 0.3409 0.42731 0.80654 0.0
H3368 H 0.32632 0.40694 0.79167 0.0
H3369 H 0.34678 0.40459 0.8025 0.0
H3370 H 0.36073 0.3763 0.77849 0.0
H3371 H 0.34562 0.34354 0.77817 0.0
H3372 H 0.22155 0.58842 0.26883 0.0
H3373 H 0.24386 0.61822 0.27629 0.0
H3374 H 0.21145 0.64351 0.24336 0.0
H3375 H 0.18905 0.61386 0.23572 0.0
H3376 H 0.25914 0.6362 0.24415 0.0
H3377 H 0.22718 0.68043 0.29603 0.0
H3378 H 0.22199 0.65484 0.29213 0.0
H3379 H 0.21287 0.66667 0.27593 0.0
C3380 C 0.21911 0.60041 0.26334 0.0
C3381 C 0.20378 0.59893 0.2515 0.0
C3382 C 0.2318 0.61727 0.26764 0.0
C3383 C 0.22907 0.63264 0.26025 0.0
C3384 C 0.21348 0.63154 0.24917 0.0
H3385 H 0.25673 0.73775 0.24884 0.0
H3386 H 0.25225 0.70349 0.23928 0.0
C3387 C 0.20077 0.61472 0.24487 0.0
C3388 C 0.24294 0.64968 0.26298 0.0
H3389 H 0.24975 0.69668 0.28007 0.0
C3390 C 0.25752 0.64946 0.25238 0.0
C3391 C 0.24041 0.6666 0.27371 0.0
C3392 C 0.22483 0.6672 0.28523 0.0
C3393 C 0.26905 0.66639 0.25106 0.0
C3394 C 0.26565 0.68337 0.26068 0.0
C3395 C 0.25201 0.68336 0.27258 0.0
C3396 C 0.27447 0.70173 0.25755 0.0
C3397 C 0.28374 0.66621 0.23838 0.0
C3398 C 0.28921 0.71179 0.26983 0.0
C3399 C 0.29174 0.73128 0.27529 0.0
C3400 C 0.2797 0.74048 0.26811 0.0
C3401 C 0.26618 0.73066 0.25427 0.0
C3402 C 0.26385 0.71128 0.2486 0.0
H3403 H 0.28676 0.65198 0.23483 0.0
H3404 H 0.27952 0.67019 0.22527 0.0
H3405 H 0.29598 0.67671 0.24491 0.0
H3406 H 0.29724 0.70443 0.27702 0.0
H3407 H 0.30219 0.73888 0.28605 0.0
H3408 H 0.50873 0.72392 0.48297 0.0
H3409 H 0.51421 0.69792 0.49769 0.0
H3410 H 0.52764 0.66959 0.44528 0.0
H3411 H 0.52179 0.69509 0.43043 0.0
H3412 H 0.49841 0.65286 0.4821 0.0
H3413 H 0.57169 0.67927 0.48922 0.0
H3414 H 0.55649 0.6947 0.48837 0.0
H3415 H 0.56007 0.67962 0.46738 0.0
C3416 C 0.51267 0.71205 0.47454 0.0
C3417 C 0.51472 0.71162 0.45544 0.0
C3418 C 0.51581 0.69719 0.48298 0.0
C3419 C 0.52144 0.68179 0.47263 0.0
C3420 C 0.52332 0.68127 0.45358 0.0
H3421 H 0.54948 0.57735 0.47438 0.0
H3422 H 0.54479 0.60809 0.47006 0.0
C3423 C 0.51989 0.69588 0.44508 0.0
C3424 C 0.52582 0.66638 0.48154 0.0
H3425 H 0.56082 0.64795 0.49366 0.0
C3426 C 0.51205 0.65196 0.48498 0.0
C3427 C 0.54361 0.66515 0.48533 0.0
C3428 C 0.5589 0.68053 0.48254 0.0
C3429 C 0.51563 0.63599 0.49125 0.0
C3430 C 0.53344 0.63441 0.49427 0.0
C3431 C 0.54718 0.64915 0.49145 0.0
C3432 C 0.53792 0.6166 0.49809 0.0
C3433 C 0.50037 0.62042 0.49375 0.0
C3434 C 0.53627 0.6113 0.51557 0.0
C3435 C 0.53942 0.59376 0.51823 0.0
C3436 C 0.54399 0.58114 0.50336 0.0
C3437 C 0.54611 0.58681 0.48614 0.0
C3438 C 0.54335 0.60436 0.48362 0.0
H3439 H 0.48727 0.62323 0.48983 0.0
H3440 H 0.5015 0.60673 0.48514 0.0
H3441 H 0.5009 0.61891 0.50856 0.0
H3442 H 0.53216 0.62053 0.52699 0.0
H3443 H 0.53737 0.58968 0.53156 0.0
H3444 H 0.63516 0.28788 0.62477 0.0
H3445 H 0.66 0.28461 0.64509 0.0
H3446 H 0.66041 0.33892 0.67952 0.0
H3447 H 0.63466 0.34141 0.66 0.0
H3448 H 0.69211 0.30156 0.65348 0.0
H3449 H 0.66205 0.31213 0.72042 0.0
H3450 H 0.64944 0.3097 0.69841 0.0
H3451 H 0.66362 0.33216 0.70955 0.0
C3452 C 0.64054 0.2991 0.63672 0.0
C3453 C 0.63285 0.31488 0.6408 0.0
C3454 C 0.65479 0.29723 0.64842 0.0
C3455 C 0.66205 0.31124 0.66438 0.0
C3456 C 0.65478 0.32741 0.66794 0.0
H3457 H 0.75096 0.32364 0.74993 0.0
H3458 H 0.72597 0.32815 0.73056 0.0
C3459 C 0.64015 0.32899 0.65658 0.0
C3460 C 0.67742 0.30905 0.67681 0.0
H3461 H 0.69268 0.3118 0.72233 0.0
C3462 C 0.69209 0.30371 0.66852 0.0
C3463 C 0.67776 0.31189 0.69659 0.0
C3464 C 0.6623 0.3166 0.70674 0.0
C3465 C 0.70694 0.30144 0.67919 0.0
C3466 C 0.70727 0.30422 0.69895 0.0
C3467 C 0.69267 0.30968 0.70728 0.0
C3468 C 0.72246 0.30136 0.71113 0.0
C3469 C 0.72234 0.29658 0.66899 0.0
C3470 C 0.7289 0.28471 0.70717 0.0
C3471 C 0.74358 0.28243 0.71788 0.0
C3472 C 0.75181 0.29626 0.73356 0.0
C3473 C 0.74495 0.3126 0.73807 0.0
C3474 C 0.73058 0.31518 0.72694 0.0
H3475 H 0.72274 0.30127 0.65542 0.0
H3476 H 0.73523 0.30317 0.67737 0.0
H3477 H 0.72075 0.28098 0.66594 0.0
H3478 H 0.72259 0.27336 0.69571 0.0
H3479 H 0.74828 0.2696 0.71391 0.0
H3480 H 0.00222 0.3192 0.97035 0.0
H3481 H 0.00317 0.35164 0.98724 0.0
H3482 H 0.05197 0.3719 0.96413 0.0
H3483 H 0.05099 0.33989 0.94714 0.0
H3484 H 0.03694 0.38603 0.01134 0.0
H3485 H 0.00729 0.39326 0.94298 0.0
H3486 H 0.00501 0.37057 0.94973 0.0
H3487 H 0.02572 0.38194 0.94264 0.0
C3488 C 0.01342 0.33049 0.96937 0.0
C3489 C 0.02644 0.32704 0.95727 0.0
C3490 C 0.01396 0.34899 0.97903 0.0
C3491 C 0.02764 0.36415 0.97689 0.0
C3492 C 0.04134 0.36041 0.96601 0.0
H3493 H 0.04824 0.47972 0.97326 0.0
H3494 H 0.04442 0.44599 0.97075 0.0
C3495 C 0.0407 0.3421 0.95624 0.0
C3496 C 0.02639 0.38413 0.98317 0.0
H3497 H 0.01745 0.42109 0.96552 0.0
C3498 C 0.03257 0.3938 0.00147 0.0
C3499 C 0.02064 0.39412 0.97025 0.0
C3500 C 0.01418 0.38449 0.9503 0.0
C3501 C 0.03416 0.41356 0.00685 0.0
C3502 C 0.02898 0.42374 0.9936 0.0
C3503 C 0.02172 0.41358 0.97569 0.0
C3504 C 0.03245 0.44493 0.99679 0.0
C3505 C 0.04219 0.42327 0.02631 0.0
C3506 C 0.02767 0.45617 0.01263 0.0
C3507 C 0.03098 0.47599 0.01463 0.0
C3508 C 0.03786 0.4848 0.00024 0.0
C3509 C 0.04242 0.47347 0.98443 0.0
C3510 C 0.04017 0.45401 0.98295 0.0
H3511 H 0.04951 0.41436 0.03291 0.0
H3512 H 0.05145 0.43699 0.02627 0.0
H3513 H 0.03141 0.42601 0.03513 0.0
H3514 H 0.02136 0.44976 0.02343 0.0
H3515 H 0.02824 0.48433 0.02744 0.0
H3516 H 0.02849 0.77691 0.15931 0.0
H3517 H 3e-05 0.77821 0.17143 0.0
H3518 H 0.99406 0.82101 0.14032 0.0
H3519 H 0.02296 0.81985 0.12789 0.0
H3520 H 0.99362 0.81818 0.19143 0.0
H3521 H 0.94422 0.77588 0.13302 0.0
H3522 H 0.96584 0.77053 0.13558 0.0
H3523 H 0.96389 0.79221 0.12888 0.0
C3524 C 0.02119 0.78658 0.15484 0.0
C3525 C 0.02826 0.79846 0.14274 0.0
C3526 C 0.00481 0.78722 0.16179 0.0
C3527 C 0.99488 0.79968 0.15684 0.0
C3528 C 0.00146 0.8112 0.14427 0.0
H3529 H 0.88944 0.79235 0.20168 0.0
H3530 H 0.91405 0.80241 0.18311 0.0
C3531 C 0.018 0.81054 0.13721 0.0
C3532 C 0.97849 0.80137 0.1663 0.0
H3533 H 0.93378 0.78259 0.16271 0.0
C3534 C 0.98047 0.81071 0.18504 0.0
C3535 C 0.9613 0.79187 0.15794 0.0
C3536 C 0.95848 0.78203 0.13773 0.0
C3537 C 0.96595 0.81003 0.19591 0.0
C3538 C 0.94893 0.7991 0.18808 0.0
C3539 C 0.94675 0.79079 0.16892 0.0
C3540 C 0.93395 0.79449 0.19994 0.0
C3541 C 0.96921 0.8209 0.21581 0.0
C3542 C 0.93675 0.78678 0.2157 0.0
C3543 C 0.92288 0.78145 0.22649 0.0
C3544 C 0.90547 0.78302 0.22164 0.0
C3545 C 0.90263 0.79104 0.20601 0.0
C3546 C 0.9167 0.79663 0.19524 0.0
H3547 H 0.97989 0.83392 0.21719 0.0
H3548 H 0.95705 0.82501 0.22092 0.0
H3549 H 0.97373 0.812 0.22489 0.0
H3550 H 0.94966 0.78439 0.21948 0.0
H3551 H 0.92581 0.77566 0.23854 0.0
H3552 H 0.5015 0.29065 0.09689 0.0
H3553 H 0.50861 0.316 0.07946 0.0
H3554 H 0.51123 0.35758 0.13 0.0
H3555 H 0.50432 0.33227 0.1477 0.0
H3556 H 0.49014 0.34536 0.07672 0.0
H3557 H 0.55985 0.37264 0.10862 0.0
H3558 H 0.54707 0.34941 0.10969 0.0
H3559 H 0.54308 0.37001 0.12465 0.0
C3560 C 0.50338 0.30517 0.10429 0.0
C3561 C 0.50232 0.30953 0.12365 0.0
C3562 C 0.5075 0.31959 0.09432 0.0
C3563 C 0.51063 0.33853 0.10357 0.0
C3564 C 0.50909 0.34297 0.12277 0.0
H3565 H 0.54604 0.44157 0.06181 0.0
H3566 H 0.53378 0.41919 0.0812 0.0
C3567 C 0.50499 0.32854 0.13279 0.0
C3568 C 0.51551 0.35361 0.09299 0.0
H3569 H 0.54958 0.38916 0.08728 0.0
C3570 C 0.50309 0.35503 0.07903 0.0
C3571 C 0.53245 0.36603 0.09614 0.0
C3572 C 0.54648 0.36444 0.11048 0.0
C3573 C 0.50719 0.36868 0.06803 0.0
C3574 C 0.52419 0.38096 0.07101 0.0
C3575 C 0.53652 0.37973 0.08518 0.0
C3576 C 0.52991 0.39453 0.05894 0.0
C3577 C 0.49332 0.36988 0.05335 0.0
C3578 C 0.53172 0.38794 0.04009 0.0
C3579 C 0.53864 0.40064 0.02897 0.0
C3580 C 0.54393 0.42011 0.0366 0.0
C3581 C 0.54186 0.42667 0.05548 0.0
C3582 C 0.53495 0.41394 0.06658 0.0
H3583 H 0.47976 0.36288 0.05603 0.0
H3584 H 0.49357 0.38485 0.05272 0.0
H3585 H 0.49613 0.36264 0.03951 0.0
H3586 H 0.52819 0.37292 0.03409 0.0
H3587 H 0.53994 0.39522 0.01444 0.0
H3588 H 0.03664 0.29247 0.36486 0.0
H3589 H 0.00499 0.29212 0.35981 0.0
H3590 H 0.01841 0.34388 0.33899 0.0
H3591 H 0.0499 0.34405 0.34344 0.0
H3592 H 0.98387 0.3202 0.37195 0.0
H3593 H 0.98849 0.30385 0.29551 0.0
H3594 H 0.00553 0.30168 0.3122 0.0
H3595 H 0.00458 0.3245 0.30731 0.0
C3596 C 0.03278 0.30375 0.35923 0.0
C3597 C 0.04558 0.31804 0.3541 0.0
C3598 C 0.01479 0.30362 0.35653 0.0
C3599 C 0.00955 0.31787 0.3489 0.0
C3600 C 0.02234 0.33265 0.34467 0.0
H3601 H 0.92622 0.35374 0.30501 0.0
H3602 H 0.94992 0.35126 0.32722 0.0
C3603 C 0.04025 0.33263 0.34705 0.0
C3604 C 0.99077 0.31652 0.34354 0.0
H3605 H 0.96278 0.3142 0.30552 0.0
C3606 C 0.97909 0.31866 0.35744 0.0
C3607 C 0.98469 0.3141 0.32457 0.0
C3608 C 0.99643 0.31071 0.30902 0.0
C3609 C 0.96155 0.31965 0.35275 0.0
C3610 C 0.95599 0.31854 0.33391 0.0
C3611 C 0.96737 0.3153 0.32002 0.0
C3612 C 0.93891 0.32187 0.32774 0.0
C3613 C 0.94921 0.32241 0.36776 0.0
C3614 C 0.92469 0.30633 0.32146 0.0
C3615 C 0.91124 0.30771 0.30877 0.0
C3616 C 0.9121 0.32458 0.30217 0.0
C3617 C 0.92551 0.34058 0.30978 0.0
C3618 C 0.93881 0.33926 0.32265 0.0
H3619 H 0.95539 0.32227 0.38175 0.0
H3620 H 0.94532 0.33612 0.3682 0.0
H3621 H 0.9369 0.31104 0.3644 0.0
H3622 H 0.92486 0.29272 0.32498 0.0
H3623 H 0.90095 0.29519 0.30304 0.0
H3624 H 0.98108 0.71353 0.60778 0.0
H3625 H 0.98159 0.68481 0.58545 0.0
H3626 H 0.98981 0.65664 0.63073 0.0
H3627 H 0.98922 0.68514 0.65319 0.0
H3628 H 0.01603 0.67691 0.59143 0.0
H3629 H 0.96104 0.61405 0.58873 0.0
H3630 H 0.95834 0.63805 0.59569 0.0
H3631 H 0.96887 0.62725 0.61189 0.0
C3632 C 0.9822 0.70097 0.613 0.0
C3633 C 0.98584 0.70165 0.63213 0.0
C3634 C 0.98237 0.68461 0.60022 0.0
C3635 C 0.98589 0.66893 0.60662 0.0
C3636 C 0.98693 0.6687 0.62569 0.0
H3637 H 0.03614 0.57859 0.57284 0.0
H3638 H 0.02901 0.6071 0.5904 0.0
C3639 C 0.98682 0.68505 0.63847 0.0
C3640 C 0.99322 0.65528 0.59434 0.0
H3641 H 0.98874 0.60812 0.57908 0.0
C3642 C 0.00995 0.66188 0.58833 0.0
C3643 C 0.98531 0.63584 0.59092 0.0
C3644 C 0.96732 0.62836 0.59702 0.0
C3645 C 0.0192 0.6492 0.57917 0.0
C3646 C 0.01136 0.6298 0.57615 0.0
C3647 C 0.9946 0.62321 0.58185 0.0
C3648 C 0.01956 0.61581 0.56584 0.0
C3649 C 0.03733 0.65637 0.57314 0.0
C3650 C 0.01646 0.61172 0.54646 0.0
C3651 C 0.01996 0.59531 0.53647 0.0
C3652 C 0.02691 0.58307 0.54578 0.0
C3653 C 0.03072 0.58773 0.56527 0.0
C3654 C 0.02695 0.60407 0.57529 0.0
H3655 H 0.04217 0.67192 0.57797 0.0
H3656 H 0.04703 0.64913 0.57869 0.0
H3657 H 0.03681 0.65295 0.55769 0.0
H3658 H 0.01037 0.62066 0.53919 0.0
H3659 H 0.01679 0.59211 0.52158 0.0
H3660 H 0.62656 0.81579 0.83334 0.0
H3661 H 0.65128 0.81966 0.81434 0.0
H3662 H 0.68781 0.82531 0.86259 0.0
H3663 H 0.66298 0.82155 0.88202 0.0
H3664 H 0.69013 0.84089 0.81429 0.0
H3665 H 0.67569 0.76826 0.83001 0.0
H3666 H 0.66101 0.78413 0.83524 0.0
H3667 H 0.68141 0.78775 0.84963 0.0
C3668 C 0.63987 0.81842 0.84009 0.0
C3669 C 0.64292 0.81741 0.8589 0.0
C3670 C 0.65397 0.82104 0.82926 0.0
C3671 C 0.67108 0.82232 0.83714 0.0
C3672 C 0.6745 0.8242 0.85645 0.0
H3673 H 0.76197 0.79464 0.80608 0.0
H3674 H 0.7336 0.79638 0.81819 0.0
C3675 C 0.66034 0.82165 0.86738 0.0
C3676 C 0.68328 0.81519 0.82481 0.0
H3677 H 0.69771 0.77501 0.80981 0.0
C3678 C 0.69188 0.82654 0.81321 0.0
C3679 C 0.68477 0.7962 0.82322 0.0
C3680 C 0.67515 0.78327 0.83506 0.0
C3681 C 0.70305 0.81961 0.80064 0.0
C3682 C 0.70507 0.80084 0.79961 0.0
C3683 C 0.6957 0.78924 0.81053 0.0
C3684 C 0.72001 0.79484 0.79114 0.0
C3685 C 0.71338 0.83264 0.78937 0.0
C3686 C 0.72123 0.79247 0.77186 0.0
C3687 C 0.73749 0.79142 0.76494 0.0
C3688 C 0.75216 0.79242 0.77737 0.0
C3689 C 0.75053 0.79346 0.79639 0.0
C3690 C 0.73443 0.79443 0.80324 0.0
H3691 H 0.71117 0.84724 0.79292 0.0
H3692 H 0.72781 0.83335 0.79175 0.0
H3693 H 0.7093 0.827 0.7743 0.0
H3694 H 0.71005 0.79271 0.76248 0.0
H3695 H 0.73887 0.79085 0.75021 0.0
H3696 H 0.43252 0.56105 0.69631 0.0
H3697 H 0.44746 0.55867 0.66748 0.0
H3698 H 0.49809 0.57183 0.6999 0.0
H3699 H 0.48311 0.57383 0.72874 0.0
H3700 H 0.46951 0.58135 0.6512 0.0
H3701 H 0.50636 0.52787 0.66431 0.0
H3702 H 0.48954 0.53409 0.67883 0.0
H3703 H 0.51167 0.54883 0.68227 0.0
C3704 C 0.44685 0.56336 0.69743 0.0
C3705 C 0.45637 0.56752 0.71528 0.0
C3706 C 0.45552 0.56202 0.6807 0.0
C3707 C 0.47419 0.5646 0.68086 0.0
C3708 C 0.48375 0.56909 0.69875 0.0
H3709 H 0.54874 0.56351 0.59065 0.0
H3710 H 0.53526 0.56747 0.62029 0.0
C3711 C 0.47507 0.57044 0.71551 0.0
C3712 C 0.48338 0.56292 0.66249 0.0
H3713 H 0.51364 0.54194 0.63825 0.0
C3714 C 0.47906 0.57258 0.6485 0.0
C3715 C 0.49613 0.55166 0.6583 0.0
C3716 C 0.5011 0.53987 0.67161 0.0
C3717 C 0.48695 0.57153 0.63121 0.0
C3718 C 0.49956 0.56016 0.62699 0.0
C3719 C 0.50407 0.55067 0.64101 0.0
C3720 C 0.50801 0.55788 0.60824 0.0
C3721 C 0.48201 0.58315 0.61772 0.0
C3722 C 0.49763 0.55096 0.59087 0.0
C3723 C 0.50545 0.54848 0.57365 0.0
C3724 C 0.52408 0.55299 0.57282 0.0
C3725 C 0.53444 0.56 0.59021 0.0
C3726 C 0.52662 0.56221 0.60746 0.0
H3727 H 0.47629 0.5949 0.62476 0.0
H3728 H 0.49373 0.58921 0.61087 0.0
H3729 H 0.47189 0.57394 0.60673 0.0
H3730 H 0.48332 0.54706 0.59059 0.0
H3731 H 0.49677 0.54287 0.56089 0.0
H3732 H 0.75978 0.15154 0.96049 0.0
H3733 H 0.75417 0.16697 0.93471 0.0
H3734 H 0.8023 0.20981 0.95325 0.0
H3735 H 0.8078 0.19459 0.97957 0.0
H3736 H 0.76186 0.21748 0.943 0.0
H3737 H 0.79255 0.17164 0.89093 0.0
H3738 H 0.77997 0.16212 0.90845 0.0
H3739 H 0.80125 0.17791 0.91519 0.0
C3740 C 0.76929 0.16411 0.95886 0.0
C3741 C 0.78447 0.17178 0.97149 0.0
C3742 C 0.76598 0.1729 0.94433 0.0
C3743 C 0.77799 0.18921 0.94221 0.0
C3744 C 0.79305 0.19709 0.95489 0.0
H3745 H 0.78193 0.26888 0.87146 0.0
H3746 H 0.78974 0.24896 0.89254 0.0
C3747 C 0.79621 0.18845 0.96971 0.0
C3748 C 0.77482 0.19796 0.92653 0.0
H3749 H 0.7818 0.19616 0.8808 0.0
C3750 C 0.76621 0.21294 0.92939 0.0
C3751 C 0.78024 0.19144 0.9089 0.0
C3752 C 0.78902 0.17487 0.9055 0.0
C3753 C 0.76321 0.22205 0.91487 0.0
C3754 C 0.76932 0.21609 0.89741 0.0
C3755 C 0.77748 0.20074 0.89441 0.0
C3756 C 0.7671 0.22582 0.88218 0.0
C3757 C 0.7536 0.238 0.91821 0.0
C3758 C 0.75228 0.21878 0.86912 0.0
C3759 C 0.74776 0.2301 0.8573 0.0
C3760 C 0.75816 0.24837 0.85842 0.0
C3761 C 0.77386 0.25474 0.8704 0.0
C3762 C 0.77829 0.24347 0.88236 0.0
H3763 H 0.74771 0.23916 0.93178 0.0
H3764 H 0.76305 0.25158 0.91812 0.0
H3765 H 0.74286 0.23588 0.90686 0.0
H3766 H 0.74357 0.20514 0.869 0.0
H3767 H 0.73562 0.22507 0.84804 0.0
H3768 H 0.17465 0.51588 0.16327 0.0
H3769 H 0.15421 0.51599 0.1366 0.0
H3770 H 0.13506 0.56112 0.1699 0.0
H3771 H 0.15592 0.56156 0.19599 0.0
H3772 H 0.11963 0.50585 0.14479 0.0
H3773 H 0.13094 0.57307 0.11872 0.0
H3774 H 0.14815 0.56645 0.13187 0.0
H3775 H 0.13154 0.57657 0.14366 0.0
C3776 C 0.16671 0.52644 0.16438 0.0
C3777 C 0.16625 0.5384 0.18141 0.0
C3778 C 0.1551 0.52649 0.14931 0.0
C3779 C 0.14317 0.53846 0.15151 0.0
C3780 C 0.14436 0.55198 0.16793 0.0
H3781 H 0.04743 0.53777 0.08769 0.0
H3782 H 0.06445 0.53662 0.11633 0.0
C3783 C 0.15604 0.55204 0.18286 0.0
C3784 C 0.1271 0.53396 0.13884 0.0
H3785 H 0.10208 0.55268 0.11131 0.0
C3786 C 0.11583 0.516 0.1373 0.0
C3787 C 0.12209 0.54755 0.12978 0.0
C3788 C 0.1339 0.56693 0.13096 0.0
C3789 C 0.09971 0.51103 0.12628 0.0
C3790 C 0.09496 0.52444 0.11688 0.0
C3791 C 0.10587 0.54263 0.11896 0.0
C3792 C 0.08069 0.51904 0.10202 0.0
C3793 C 0.08804 0.49148 0.12433 0.0
C3794 C 0.08394 0.50884 0.08493 0.0
C3795 C 0.07448 0.50972 0.0687 0.0
C3796 C 0.06163 0.52049 0.06971 0.0
C3797 C 0.0571 0.52906 0.08691 0.0
C3798 C 0.06672 0.52839 0.10316 0.0
H3799 H 0.09143 0.48446 0.13576 0.0
H3800 H 0.07383 0.49213 0.12423 0.0
H3801 H 0.08983 0.48264 0.11086 0.0
H3802 H 0.095 0.50194 0.08394 0.0
H3803 H 0.07804 0.50317 0.05534 0.0
H3804 H 0.81024 0.88395 0.45823 0.0
H3805 H 0.81042 0.86474 0.42733 0.0
H3806 H 0.78359 0.81496 0.446 0.0
H3807 H 0.78366 0.83421 0.47738 0.0
H3808 H 0.82504 0.82819 0.41953 0.0
H3809 H 0.75391 0.822 0.39618 0.0
H3810 H 0.76576 0.84128 0.41436 0.0
H3811 H 0.75988 0.81784 0.41894 0.0
C3812 C 0.80437 0.86891 0.45581 0.0
C3813 C 0.79692 0.86057 0.47019 0.0
C3814 C 0.80454 0.85796 0.43817 0.0
C3815 C 0.79701 0.83849 0.43443 0.0
C3816 C 0.78949 0.82999 0.44869 0.0
H3817 H 0.79471 0.77568 0.31804 0.0
H3818 H 0.79473 0.7797 0.35224 0.0
C3819 C 0.78959 0.84096 0.46656 0.0
C3820 C 0.79715 0.82745 0.41541 0.0
H3821 H 0.77233 0.81271 0.37331 0.0
C3822 C 0.81342 0.82429 0.4095 0.0
C3823 C 0.78198 0.82258 0.4024 0.0
C3824 C 0.76433 0.82606 0.40812 0.0
C3825 C 0.8151 0.81723 0.39068 0.0
C3826 C 0.8002 0.81336 0.37752 0.0
C3827 C 0.78369 0.81553 0.38355 0.0
C3828 C 0.80216 0.81029 0.3573 0.0
C3829 C 0.83299 0.81497 0.38465 0.0
C3830 C 0.80676 0.82612 0.34907 0.0
C3831 C 0.80663 0.82389 0.32977 0.0
C3832 C 0.80225 0.80576 0.31834 0.0
C3833 C 0.79852 0.78979 0.32662 0.0
C3834 C 0.79837 0.79206 0.34606 0.0
H3835 H 0.84265 0.81589 0.39672 0.0
H3836 H 0.83166 0.80115 0.37496 0.0
H3837 H 0.83834 0.82629 0.377 0.0
H3838 H 0.80971 0.84028 0.35757 0.0
H3839 H 0.80931 0.83639 0.32366 0.0
H3840 H 0.45686 0.58635 0.84288 0.0
H3841 H 0.4703 0.58506 0.87397 0.0
H3842 H 0.48853 0.53566 0.84949 0.0
H3843 H 0.47577 0.53701 0.81908 0.0
H3844 H 0.46549 0.55936 0.89686 0.0
H3845 H 0.53413 0.56412 0.8781 0.0
H3846 H 0.5172 0.56897 0.86308 0.0
H3847 H 0.51889 0.54495 0.86291 0.0
C3848 C 0.46377 0.57524 0.84407 0.0
C3849 C 0.46516 0.56195 0.82788 0.0
C3850 C 0.47159 0.5745 0.86202 0.0
C3851 C 0.48116 0.56052 0.86453 0.0
C3852 C 0.48205 0.54711 0.84842 0.0
H3853 H 0.53743 0.52492 0.9578 0.0
H3854 H 0.52586 0.52937 0.9274 0.0
C3855 C 0.47443 0.54787 0.83072 0.0
C3856 C 0.48957 0.55914 0.88367 0.0
H3857 H 0.52773 0.55332 0.90633 0.0
C3858 C 0.47917 0.55825 0.89887 0.0
C3859 C 0.50747 0.55741 0.88685 0.0
C3860 C 0.52012 0.5591 0.87193 0.0
C3861 C 0.48563 0.55508 0.91635 0.0
C3862 C 0.50356 0.55334 0.91961 0.0
C3863 C 0.51405 0.55446 0.90442 0.0
C3864 C 0.51155 0.55065 0.93852 0.0
C3865 C 0.47257 0.55271 0.93081 0.0
C3866 C 0.50844 0.56135 0.95558 0.0
C3867 C 0.5142 0.55795 0.97299 0.0
C3868 C 0.52434 0.54433 0.97465 0.0
C3869 C 0.52905 0.53484 0.95764 0.0
C3870 C 0.52252 0.53766 0.93997 0.0
H3871 H 0.45871 0.54756 0.92423 0.0
H3872 H 0.47531 0.54256 0.93941 0.0
H3873 H 0.47332 0.56665 0.94003 0.0
H3874 H 0.50132 0.57247 0.9556 0.0
H3875 H 0.51055 0.56626 0.98536 0.0
H3876 H 0.7507 0.14969 0.08738 0.0
H3877 H 0.74964 0.17381 0.11488 0.0
H3878 H 0.79621 0.21018 0.10059 0.0
H3879 H 0.79739 0.18633 0.07306 0.0
H3880 H 0.77853 0.19036 0.14413 0.0
H3881 H 0.75814 0.24295 0.10706 0.0
H3882 H 0.75485 0.21817 0.09645 0.0
H3883 H 0.77648 0.2336 0.09846 0.0
C3884 C 0.76081 0.16275 0.0902 0.0
C3885 C 0.77412 0.16622 0.07812 0.0
C3886 C 0.76008 0.17649 0.10576 0.0
C3887 C 0.77262 0.19374 0.10931 0.0
C3888 C 0.78621 0.19703 0.09765 0.0
H3889 H 0.80483 0.28754 0.19958 0.0
H3890 H 0.799 0.2676 0.16843 0.0
C3891 C 0.78693 0.18337 0.08208 0.0
C3892 C 0.77207 0.20808 0.12574 0.0
H3893 H 0.7672 0.25326 0.13951 0.0
C3894 C 0.77586 0.20405 0.14322 0.0
C3895 C 0.76871 0.22584 0.12418 0.0
C3896 C 0.76417 0.23043 0.10554 0.0
C3897 C 0.77685 0.21767 0.15941 0.0
C3898 C 0.77353 0.23547 0.15787 0.0
C3899 C 0.76959 0.23947 0.14041 0.0
C3900 C 0.77461 0.25016 0.17445 0.0
C3901 C 0.78189 0.21314 0.17799 0.0
C3902 C 0.76218 0.2475 0.18742 0.0
C3903 C 0.76557 0.25868 0.2052 0.0
C3904 C 0.78148 0.27256 0.21012 0.0
C3905 C 0.79277 0.27668 0.19633 0.0
C3906 C 0.7894 0.26538 0.17852 0.0
H3907 H 0.78735 0.20022 0.17631 0.0
H3908 H 0.79189 0.22514 0.18658 0.0
H3909 H 0.76995 0.21073 0.18576 0.0
H3910 H 0.75057 0.23588 0.18423 0.0
H3911 H 0.75635 0.25548 0.21541 0.0
H3912 H 0.13526 0.5657 0.28846 0.0
H3913 H 0.1294 0.56534 0.32086 0.0
H3914 H 0.1646 0.52767 0.32419 0.0
H3915 H 0.17093 0.52826 0.2919 0.0
H3916 H 0.11953 0.51819 0.32349 0.0
H3917 H 0.16318 0.57386 0.37821 0.0
H3918 H 0.15822 0.58002 0.35612 0.0
H3919 H 0.1713 0.56282 0.3572 0.0
C3920 C 0.14196 0.5576 0.29619 0.0
C3921 C 0.153 0.54646 0.28759 0.0
C3922 C 0.1389 0.55771 0.31472 0.0
C3923 C 0.14667 0.54652 0.32466 0.0
C3924 C 0.15873 0.53652 0.31662 0.0
H3925 H 0.09606 0.54458 0.42708 0.0
H3926 H 0.11626 0.53469 0.40487 0.0
C3927 C 0.16205 0.53666 0.29816 0.0
C3928 C 0.13837 0.54145 0.34094 0.0
H3929 H 0.13447 0.56001 0.38606 0.0
C3930 C 0.12304 0.52686 0.33741 0.0
C3931 C 0.14325 0.55278 0.35885 0.0
C3932 C 0.15995 0.56822 0.36299 0.0
C3933 C 0.11129 0.52455 0.35101 0.0
C3934 C 0.11519 0.53718 0.36842 0.0
C3935 C 0.13154 0.55043 0.37258 0.0
C3936 C 0.10139 0.53933 0.38105 0.0
C3937 C 0.09426 0.50957 0.34612 0.0
C3938 C 0.08625 0.54485 0.37478 0.0
C3939 C 0.0745 0.55021 0.38732 0.0
C3940 C 0.07795 0.55044 0.40633 0.0
C3941 C 0.09285 0.54425 0.41245 0.0
C3942 C 0.10447 0.53868 0.39985 0.0
H3943 H 0.09618 0.49722 0.33584 0.0
H3944 H 0.08917 0.50465 0.35867 0.0
H3945 H 0.08407 0.51553 0.33957 0.0
H3946 H 0.08395 0.54591 0.36035 0.0
H3947 H 0.06305 0.55473 0.38224 0.0
H3948 H 0.82128 0.85742 0.58817 0.0
H3949 H 0.81668 0.84411 0.61639 0.0
H3950 H 0.76083 0.84354 0.60933 0.0
H3951 H 0.76527 0.85555 0.58052 0.0
H3952 H 0.80566 0.85774 0.64829 0.0
H3953 H 0.75756 0.79085 0.61618 0.0
H3954 H 0.76985 0.80607 0.60238 0.0
H3955 H 0.75024 0.81141 0.6123 0.0
C3956 C 0.80801 0.85408 0.59256 0.0
C3957 C 0.79353 0.85699 0.58213 0.0
C3958 C 0.80539 0.84661 0.60866 0.0
C3959 C 0.78831 0.84239 0.61473 0.0
C3960 C 0.77397 0.84595 0.60454 0.0
H3961 H 0.76361 0.82026 0.72474 0.0
H3962 H 0.76289 0.83104 0.69482 0.0
C3963 C 0.77651 0.85288 0.58817 0.0
C3964 C 0.78562 0.83479 0.63197 0.0
H3965 H 0.76162 0.79837 0.64935 0.0
C3966 C 0.79602 0.84477 0.64849 0.0
C3967 C 0.7731 0.81776 0.6322 0.0
C3968 C 0.76219 0.80581 0.61478 0.0
C3969 C 0.79419 0.83821 0.66521 0.0
C3970 C 0.78152 0.82143 0.66541 0.0
C3971 C 0.77111 0.81141 0.64903 0.0
C3972 C 0.77996 0.81342 0.68234 0.0
C3973 C 0.80608 0.8489 0.68251 0.0
C3974 C 0.78932 0.7996 0.68472 0.0
C3975 C 0.78947 0.7933 0.70149 0.0
C3976 C 0.78048 0.80096 0.71608 0.0
C3977 C 0.77062 0.81431 0.71353 0.0
C3978 C 0.77023 0.82042 0.69659 0.0
H3979 H 0.81513 0.86192 0.68009 0.0
H3980 H 0.79789 0.85294 0.69394 0.0
H3981 H 0.81419 0.83962 0.68727 0.0
H3982 H 0.79699 0.79422 0.67385 0.0
H3983 H 0.79731 0.78312 0.70339 0.0
H3984 H 0.75817 0.43607 0.48879 0.0
H3985 H 0.73419 0.45275 0.4859 0.0
H3986 H 0.74279 0.47606 0.54512 0.0
H3987 H 0.76729 0.46028 0.54777 0.0
H3988 H 0.70369 0.44931 0.50272 0.0
H3989 H 0.74362 0.52264 0.52398 0.0
H3990 H 0.75367 0.50267 0.51748 0.0
H3991 H 0.74751 0.50887 0.54084 0.0
C3992 C 0.75471 0.44467 0.50112 0.0
C3993 C 0.76414 0.44695 0.51852 0.0
C3994 C 0.74126 0.45425 0.49944 0.0
C3995 C 0.73715 0.46589 0.51521 0.0
C3996 C 0.74626 0.4676 0.53271 0.0
H3997 H 0.6631 0.51635 0.56577 0.0
H3998 H 0.68306 0.49624 0.55339 0.0
C3999 C 0.75997 0.45844 0.53429 0.0
C4000 C 0.72267 0.47553 0.51386 0.0
H4001 H 0.71234 0.51789 0.52935 0.0
C4002 C 0.70554 0.4644 0.50803 0.0
C4003 C 0.72534 0.49522 0.52059 0.0
C4004 C 0.74359 0.50803 0.52587 0.0
C4005 C 0.69073 0.47229 0.51043 0.0
C4006 C 0.69342 0.49155 0.51881 0.0
C4007 C 0.71055 0.50298 0.52316 0.0
C4008 C 0.67887 0.49999 0.52501 0.0
C4009 C 0.67235 0.45992 0.50514 0.0
C4010 C 0.67001 0.5083 0.51291 0.0
C4011 C 0.65882 0.5198 0.51993 0.0
C4012 C 0.65665 0.52318 0.5391 0.0
C4013 C 0.66499 0.51419 0.55104 0.0
C4014 C 0.67607 0.50257 0.54397 0.0
H4015 H 0.67261 0.44546 0.49759 0.0
H4016 H 0.66544 0.45875 0.51794 0.0
H4017 H 0.66452 0.46647 0.49619 0.0
H4018 H 0.67237 0.50654 0.4983 0.0
H4019 H 0.65233 0.52656 0.51053 0.0
H4020 H 0.24129 0.1495 0.52508 0.0
H4021 H 0.2113 0.13033 0.52594 0.0
H4022 H 0.19687 0.13714 0.47036 0.0
H4023 H 0.2268 0.15663 0.46968 0.0
H4024 H 0.17725 0.14009 0.52066 0.0
H4025 H 0.18515 0.07867 0.46769 0.0
H4026 H 0.20378 0.09693 0.47948 0.0
H4027 H 0.19032 0.10119 0.46072 0.0
C4028 C 0.23166 0.14683 0.51308 0.0
C4029 C 0.23624 0.1543 0.49726 0.0
C4030 C 0.21458 0.13596 0.51358 0.0
C4031 C 0.20192 0.13209 0.49812 0.0
C4032 C 0.20649 0.13975 0.48235 0.0
H4033 H 0.09197 0.06584 0.47653 0.0
H4034 H 0.12153 0.08519 0.47373 0.0
C4035 C 0.2235 0.15089 0.48197 0.0
C4036 C 0.18399 0.11998 0.4985 0.0
H4037 H 0.15657 0.0774 0.47827 0.0
C4038 C 0.17273 0.12638 0.51141 0.0
C4039 C 0.17812 0.10208 0.48644 0.0
C4040 C 0.18998 0.09416 0.47288 0.0
C4041 C 0.15567 0.11545 0.51243 0.0
C4042 C 0.14981 0.09751 0.5004 0.0
C4043 C 0.16104 0.09117 0.48741 0.0
C4044 C 0.13227 0.08495 0.50153 0.0
C4045 C 0.14395 0.12329 0.52623 0.0
C4046 C 0.12869 0.07794 0.51783 0.0
C4047 C 0.11192 0.06702 0.51942 0.0
C4048 C 0.09846 0.0627 0.50467 0.0
C4049 C 0.10221 0.06894 0.48803 0.0
C4050 C 0.11902 0.08002 0.48648 0.0
H4051 H 0.14866 0.13882 0.53127 0.0
H4052 H 0.13004 0.12027 0.51991 0.0
H4053 H 0.14402 0.11643 0.53849 0.0
H4054 H 0.13882 0.08112 0.52944 0.0
H4055 H 0.10943 0.06205 0.53226 0.0
H4056 H 0.17032 0.92875 0.75297 0.0
H4057 H 0.18556 0.90264 0.75334 0.0
H4058 H 0.23569 0.94295 0.76641 0.0
H4059 H 0.22053 0.96895 0.76605 0.0
H4060 H 0.21058 0.88737 0.73417 0.0
H4061 H 0.24053 0.91366 0.80668 0.0
H4062 H 0.22345 0.92329 0.79694 0.0
H4063 H 0.24625 0.9311 0.79255 0.0
C4064 C 0.18461 0.93221 0.75598 0.0
C4065 C 0.19389 0.95151 0.75963 0.0
C4066 C 0.19347 0.91701 0.75615 0.0
C4067 C 0.21212 0.92019 0.76029 0.0
C4068 C 0.22138 0.93947 0.76363 0.0
H4069 H 0.29343 0.85 0.76479 0.0
H4070 H 0.27712 0.87441 0.76195 0.0
C4071 C 0.21257 0.95461 0.76329 0.0
C4072 C 0.22182 0.90375 0.76121 0.0
H4073 H 0.25175 0.88908 0.78883 0.0
C4074 C 0.21947 0.88788 0.74626 0.0
C4075 C 0.23357 0.90352 0.77684 0.0
C4076 C 0.236 0.91867 0.79426 0.0
C4077 C 0.22861 0.8728 0.74632 0.0
C4078 C 0.24069 0.87291 0.76176 0.0
C4079 C 0.24286 0.8886 0.77674 0.0
C4080 C 0.25102 0.85705 0.76272 0.0
C4081 C 0.22559 0.85689 0.72949 0.0
C4082 C 0.24248 0.83843 0.76408 0.0
C4083 C 0.25221 0.82441 0.76646 0.0
C4084 C 0.27108 0.82785 0.7671 0.0
C4085 C 0.27937 0.84623 0.76477 0.0
C4086 C 0.26975 0.86049 0.76302 0.0
H4087 H 0.21835 0.86012 0.71744 0.0
H4088 H 0.23846 0.85395 0.72528 0.0
H4089 H 0.21768 0.84383 0.73308 0.0
H4090 H 0.22817 0.8348 0.76395 0.0
H4091 H 0.24473 0.81078 0.76814 0.0
H4092 H 0.36511 0.95517 0.0414 0.0
H4093 H 0.39702 0.95623 0.04179 0.0
H4094 H 0.39865 0.9786 0.99131 0.0
H4095 H 0.36694 0.97787 0.99096 0.0
H4096 H 0.42141 0.94771 0.99814 0.0
H4097 H 0.42636 0.01516 0.04984 0.0
H4098 H 0.41138 0.99368 0.05246 0.0
H4099 H 0.40672 0.00528 0.03392 0.0
C4100 C 0.37242 0.96046 0.03052 0.0
C4101 C 0.36396 0.96706 0.01646 0.0
C4102 C 0.39035 0.96052 0.03049 0.0
C4103 C 0.39973 0.96701 0.01632 0.0
C4104 C 0.39125 0.97317 0.00208 0.0
H4105 H 0.49065 0.04419 0.01381 0.0
H4106 H 0.46221 0.02161 0.00349 0.0
C4107 C 0.37342 0.97336 0.00223 0.0
C4108 C 0.4189 0.97197 0.01847 0.0
H4109 H 0.45126 0.01117 0.0348 0.0
C4110 C 0.42823 0.96141 0.00633 0.0
C4111 C 0.42733 0.98976 0.02931 0.0
C4112 C 0.41753 1.00172 0.04215 0.0
C4113 C 0.4458 0.96915 0.00362 0.0
C4114 C 0.45366 0.98766 0.01339 0.0
C4115 C 0.44475 0.99727 0.02678 0.0
C4116 C 0.47132 0.99778 0.01083 0.0
C4117 C 0.45545 0.95795 0.98993 0.0
C4118 C 0.48583 0.99131 0.01694 0.0
C4119 C 0.50204 0.00394 0.02194 0.0
C4120 C 0.50355 0.02309 0.02136 0.0
C4121 C 0.48945 0.02939 0.01423 0.0
C4122 C 0.47346 0.01651 0.0082 0.0
H4123 H 0.44608 0.94642 0.98 0.0
H4124 H 0.46385 0.96722 0.98193 0.0
H4125 H 0.46424 0.95134 0.99774 0.0
H4126 H 0.48432 0.97708 0.01948 0.0
H4127 H 0.51313 0.99896 0.02715 0.0
H4128 H 0.91337 0.60778 0.80698 0.0
H4129 H 0.89874 0.63015 0.79544 0.0
H4130 H 0.84796 0.59849 0.80603 0.0
H4131 H 0.86243 0.5756 0.81715 0.0
H4132 H 0.86638 0.60861 0.76305 0.0
H4133 H 0.85484 0.66143 0.82344 0.0
H4134 H 0.87368 0.65052 0.82352 0.0
H4135 H 0.85204 0.63712 0.82594 0.0
C4136 C 0.89919 0.60607 0.80775 0.0
C4137 C 0.88893 0.58995 0.81282 0.0
C4138 C 0.8909 0.61875 0.80096 0.0
C4139 C 0.87242 0.61568 0.79985 0.0
C4140 C 0.86231 0.60088 0.8069 0.0
H4141 H 0.78533 0.6482 0.75311 0.0
H4142 H 0.80666 0.63384 0.76808 0.0
C4143 C 0.87056 0.58799 0.81339 0.0
C4144 C 0.86339 0.62626 0.78912 0.0
H4145 H 0.83941 0.66016 0.79409 0.0
C4146 C 0.86069 0.62011 0.76969 0.0
C4147 C 0.85617 0.64111 0.79806 0.0
C4148 C 0.85934 0.64811 0.8189 0.0
C4149 C 0.85008 0.62808 0.75893 0.0
C4150 C 0.8422 0.6424 0.768 0.0
C4151 C 0.84551 0.64905 0.78734 0.0
C4152 C 0.82955 0.64987 0.75778 0.0
C4153 C 0.8467 0.62072 0.73813 0.0
C4154 C 0.8356 0.66328 0.74698 0.0
C4155 C 0.82351 0.6714 0.73849 0.0
C4156 C 0.80534 0.66597 0.74063 0.0
C4157 C 0.79927 0.65211 0.75097 0.0
C4158 C 0.81138 0.64413 0.7596 0.0
H4159 H 0.85277 0.60849 0.73345 0.0
H4160 H 0.8322 0.61636 0.73397 0.0
H4161 H 0.85228 0.6322 0.73077 0.0
H4162 H 0.84965 0.66787 0.74565 0.0
H4163 H 0.82837 0.6824 0.73084 0.0
H4164 H 0.84067 0.65605 0.03986 0.0
H4165 H 0.86819 0.64495 0.03956 0.0
H4166 H 0.87128 0.64941 0.98188 0.0
H4167 H 0.84365 0.66113 0.98227 0.0
H4168 H 0.86666 0.60982 0.01046 0.0
H4169 H 0.92464 0.66944 0.0106 0.0
H4170 H 0.9049 0.67376 0.02113 0.0
H4171 H 0.90427 0.66704 0.99628 0.0
C4172 C 0.84743 0.65511 0.02724 0.0
C4173 C 0.84001 0.6592 0.01104 0.0
C4174 C 0.86317 0.64886 0.02711 0.0
C4175 C 0.87171 0.64635 0.01072 0.0
C4176 C 0.86494 0.65148 0.99472 0.0
H4177 H 0.94812 0.57282 0.00327 0.0
H4178 H 0.92939 0.59297 0.99352 0.0
C4179 C 0.8492 0.65809 0.99494 0.0
C4180 C 0.88578 0.63555 0.01003 0.0
H4181 H 0.93074 0.64046 0.01526 0.0
C4182 C 0.88067 0.6164 0.0111 0.0
C4183 C 0.90399 0.64426 0.01089 0.0
C4184 C 0.90995 0.66477 0.00968 0.0
C4185 C 0.8933 0.60594 0.01402 0.0
C4186 C 0.91149 0.61487 0.01587 0.0
C4187 C 0.91672 0.63375 0.01384 0.0
C4188 C 0.92493 0.60505 0.02161 0.0
C4189 C 0.88716 0.58566 0.01611 0.0
C4190 C 0.92874 0.60549 0.04061 0.0
C4191 C 0.93932 0.59399 0.04623 0.0
C4192 C 0.94626 0.58186 0.03289 0.0
C4193 C 0.94305 0.58211 0.01386 0.0
C4194 C 0.93239 0.59359 0.00826 0.0
H4195 H 0.87259 0.58035 0.01279 0.0
H4196 H 0.89403 0.57639 0.00681 0.0
H4197 H 0.89066 0.58454 0.03068 0.0
H4198 H 0.92298 0.61422 0.05107 0.0
H4199 H 0.94179 0.59432 0.06099 0.0
H4200 H 0.21457 0.06831 0.78412 0.0
H4201 H 0.23266 0.10088 0.78728 0.0
H4202 H 0.19152 0.11464 0.7542 0.0
H4203 H 0.17344 0.08288 0.75167 0.0
H4204 H 0.248 0.12334 0.76506 0.0
H4205 H 0.19692 0.15827 0.79567 0.0
H4206 H 0.19467 0.13305 0.79254 0.0
H4207 H 0.18865 0.14345 0.77341 0.0
C4208 C 0.20938 0.07826 0.77751 0.0
C4209 C 0.19224 0.07263 0.7678 0.0
C4210 C 0.21978 0.09708 0.77936 0.0
C4211 C 0.21348 0.11097 0.77154 0.0
C4212 C 0.19673 0.10495 0.76118 0.0
H4213 H 0.2472 0.23055 0.76184 0.0
H4214 H 0.2324 0.19786 0.76146 0.0
C4215 C 0.18634 0.08642 0.75956 0.0
C4216 C 0.2242 0.13151 0.77381 0.0
H4217 H 0.22077 0.17807 0.78444 0.0
C4218 C 0.24201 0.13526 0.76948 0.0
C4219 C 0.21679 0.14756 0.77958 0.0
C4220 C 0.19828 0.14541 0.78575 0.0
C4221 C 0.25211 0.15398 0.76994 0.0
C4222 C 0.24459 0.17002 0.77539 0.0
C4223 C 0.22687 0.16622 0.78009 0.0
C4224 C 0.25438 0.19062 0.77575 0.0
C4225 C 0.27058 0.15613 0.76371 0.0
C4226 C 0.27195 0.19848 0.78413 0.0
C4227 C 0.28078 0.21744 0.78396 0.0
C4228 C 0.2723 0.22962 0.77584 0.0
C4229 C 0.25454 0.22194 0.76809 0.0
C4230 C 0.24587 0.20296 0.76795 0.0
H4231 H 0.2723 0.1429 0.75467 0.0
H4232 H 0.27369 0.16779 0.75591 0.0
H4233 H 0.28032 0.15932 0.77616 0.0
H4234 H 0.27893 0.19004 0.79105 0.0
H4235 H 0.29426 0.2226 0.7904 0.0
H4236 H 0.36411 0.98877 0.27553 0.0
H4237 H 0.34246 0.96011 0.2778 0.0
H4238 H 0.38498 0.93219 0.28647 0.0
H4239 H 0.40688 0.96092 0.28412 0.0
H4240 H 0.34372 0.92188 0.2534 0.0
H4241 H 0.34875 0.92721 0.33046 0.0
H4242 H 0.35412 0.94773 0.31981 0.0
H4243 H 0.36911 0.9322 0.31955 0.0
C4244 C 0.3688 0.97646 0.2778 0.0
C4245 C 0.387 0.97681 0.2796 0.0
C4246 C 0.35651 0.96031 0.27926 0.0
C4247 C 0.36236 0.94455 0.28275 0.0
C4248 C 0.38048 0.94459 0.28413 0.0
H4249 H 0.33509 0.83272 0.27695 0.0
H4250 H 0.34525 0.86699 0.28689 0.0
C4251 C 0.39285 0.96074 0.28248 0.0
C4252 C 0.34935 0.9274 0.28321 0.0
H4253 H 0.33254 0.89801 0.31181 0.0
C4254 C 0.34086 0.91676 0.26614 0.0
C4255 C 0.34597 0.92118 0.30001 0.0
C4256 C 0.35486 0.93268 0.31858 0.0
C4257 C 0.32972 0.89912 0.26522 0.0
C4258 C 0.32684 0.89248 0.28194 0.0
C4259 C 0.3346 0.90359 0.29918 0.0
C4260 C 0.31938 0.87258 0.28099 0.0
C4261 C 0.32239 0.88703 0.24629 0.0
C4262 C 0.30152 0.86479 0.27463 0.0
C4263 C 0.29584 0.84533 0.26868 0.0
C4264 C 0.30792 0.83386 0.26982 0.0
C4265 C 0.32561 0.84161 0.27663 0.0
C4266 C 0.33131 0.86098 0.28244 0.0
H4267 H 0.32705 0.89399 0.23466 0.0
H4268 H 0.32642 0.87327 0.24455 0.0
H4269 H 0.30767 0.88403 0.24515 0.0
H4270 H 0.29236 0.87381 0.27318 0.0
H4271 H 0.28222 0.83928 0.263 0.0
H4272 H 0.59328 0.35453 0.5575 0.0
H4273 H 0.58916 0.38205 0.54451 0.0
H4274 H 0.55568 0.39588 0.58781 0.0
H4275 H 0.56021 0.36912 0.60108 0.0
H4276 H 0.55961 0.39318 0.5308 0.0
H4277 H 0.5915 0.44525 0.59397 0.0
H4278 H 0.59306 0.42081 0.59025 0.0
H4279 H 0.57372 0.42775 0.59935 0.0
C4280 C 0.58509 0.36349 0.56426 0.0
C4281 C 0.57731 0.35971 0.58055 0.0
C4282 C 0.5827 0.37922 0.55678 0.0
C4283 C 0.57241 0.39143 0.56538 0.0
C4284 C 0.56413 0.38715 0.58118 0.0
H4285 H 0.54013 0.49477 0.5624 0.0
H4286 H 0.5446 0.46408 0.5666 0.0
C4287 C 0.5667 0.37171 0.58876 0.0
C4288 C 0.57031 0.40878 0.55827 0.0
H4289 H 0.5738 0.4563 0.57285 0.0
C4290 C 0.56281 0.40703 0.53993 0.0
C4291 C 0.57472 0.427 0.56998 0.0
C4292 C 0.58387 0.43038 0.5894 0.0
C4293 C 0.55852 0.42266 0.53348 0.0
C4294 C 0.56211 0.44072 0.54561 0.0
C4295 C 0.57054 0.44253 0.56356 0.0
C4296 C 0.55666 0.45788 0.54079 0.0
C4297 C 0.54955 0.41937 0.51402 0.0
C4298 C 0.56107 0.46464 0.5244 0.0
C4299 C 0.55749 0.48193 0.5215 0.0
C4300 C 0.55 0.49313 0.5352 0.0
C4301 C 0.54544 0.48625 0.55134 0.0
C4302 C 0.54828 0.46874 0.55387 0.0
H4303 H 0.54329 0.40417 0.50862 0.0
H4304 H 0.53922 0.4277 0.51352 0.0
H4305 H 0.55963 0.42378 0.50451 0.0
H4306 H 0.56808 0.45711 0.51427 0.0
H4307 H 0.56177 0.48717 0.50921 0.0
H4308 H 0.47099 0.79329 0.37647 0.0
H4309 H 0.44242 0.79198 0.36049 0.0
H4310 H 0.41949 0.74197 0.38094 0.0
H4311 H 0.44858 0.74316 0.39733 0.0
H4312 H 0.4235 0.76136 0.33214 0.0
H4313 H 0.38287 0.7764 0.39124 0.0
H4314 H 0.40686 0.7824 0.39422 0.0
H4315 H 0.39509 0.75819 0.39137 0.0
C4316 C 0.45997 0.78193 0.37776 0.0
C4317 C 0.46238 0.76819 0.38817 0.0
C4318 C 0.4435 0.78127 0.36853 0.0
C4319 C 0.42863 0.76692 0.36936 0.0
C4320 C 0.43067 0.75335 0.38015 0.0
H4321 H 0.3196 0.75709 0.31903 0.0
H4322 H 0.34563 0.75232 0.33659 0.0
C4323 C 0.44736 0.754 0.38951 0.0
C4324 C 0.41157 0.76601 0.35797 0.0
H4325 H 0.36926 0.77274 0.36102 0.0
C4326 C 0.41158 0.76368 0.33847 0.0
C4327 C 0.3959 0.76895 0.36606 0.0
C4328 C 0.39504 0.77174 0.38688 0.0
C4329 C 0.39659 0.76427 0.32693 0.0
C4330 C 0.38109 0.76806 0.33505 0.0
C4331 C 0.38097 0.76994 0.35458 0.0
C4332 C 0.36507 0.77041 0.32369 0.0
C4333 C 0.39762 0.76038 0.3061 0.0
C4334 C 0.36692 0.78223 0.31046 0.0
C4335 C 0.35202 0.78437 0.29995 0.0
C4336 C 0.33475 0.77542 0.30286 0.0
C4337 C 0.33274 0.76408 0.3164 0.0
C4338 C 0.34769 0.76143 0.32651 0.0
H4339 H 0.40696 0.7511 0.30208 0.0
H4340 H 0.38444 0.75351 0.2984 0.0
H4341 H 0.40275 0.77393 0.30161 0.0
H4342 H 0.37989 0.79012 0.30841 0.0
H4343 H 0.35399 0.79357 0.28993 0.0
H4344 H 0.04455 0.73793 0.08531 0.0
H4345 H 0.03989 0.70468 0.06934 0.0
H4346 H 0.09365 0.71534 0.05412 0.0
H4347 H 0.09835 0.74853 0.07032 0.0
H4348 H 0.04427 0.68281 0.03293 0.0
H4349 H 0.09222 0.67805 0.09 0.0
H4350 H 0.08255 0.6983 0.09055 0.0
H4351 H 0.10044 0.69538 0.07637 0.0
C4352 C 0.05514 0.73329 0.07796 0.0
C4353 C 0.07174 0.7458 0.07885 0.0
C4354 C 0.05248 0.71428 0.06887 0.0
C4355 C 0.06647 0.70739 0.06069 0.0
C4356 C 0.08269 0.72026 0.06043 0.0
H4357 H 0.06027 0.58553 0.01281 0.0
H4358 H 0.06469 0.61995 0.01513 0.0
C4359 C 0.08534 0.73926 0.06955 0.0
C4360 C 0.06495 0.68654 0.05499 0.0
H4361 H 0.08066 0.65032 0.06781 0.0
C4362 C 0.05235 0.67569 0.04039 0.0
C4363 C 0.07525 0.67717 0.06494 0.0
C4364 C 0.08827 0.68773 0.08144 0.0
C4365 C 0.04979 0.65577 0.0356 0.0
C4366 C 0.06013 0.64649 0.04565 0.0
C4367 C 0.07286 0.65742 0.05999 0.0
C4368 C 0.05688 0.62544 0.04324 0.0
C4369 C 0.03555 0.64468 0.02045 0.0
C4370 C 0.05154 0.61707 0.05834 0.0
C4371 C 0.04977 0.59766 0.05733 0.0
C4372 C 0.05306 0.58589 0.04108 0.0
C4373 C 0.05813 0.59418 0.02574 0.0
C4374 C 0.06027 0.61383 0.0269 0.0
H4375 H 0.02774 0.65386 0.01497 0.0
H4376 H 0.04173 0.63747 0.00871 0.0
H4377 H 0.02638 0.63359 0.02585 0.0
H4378 H 0.04878 0.62564 0.07107 0.0
H4379 H 0.04548 0.5918 0.06929 0.0
H4380 H 0.05273 0.25018 0.872 0.0
H4381 H 0.08012 0.25356 0.85635 0.0
H4382 H 0.11002 0.2842 0.90818 0.0
H4383 H 0.08274 0.2804 0.92397 0.0
H4384 H 0.10215 0.28489 0.85122 0.0
H4385 H 0.14086 0.24801 0.89174 0.0
H4386 H 0.11744 0.24648 0.89347 0.0
H4387 H 0.13349 0.267 0.90584 0.0
C4388 C 0.06516 0.25746 0.88012 0.0
C4389 C 0.06547 0.26492 0.89929 0.0
C4390 C 0.08087 0.25942 0.87114 0.0
C4391 C 0.09736 0.26888 0.88104 0.0
C4392 C 0.09768 0.27637 0.90021 0.0
H4393 H 0.20292 0.30425 0.84118 0.0
H4394 H 0.17856 0.29778 0.86118 0.0
C4395 C 0.08198 0.2743 0.90924 0.0
C4396 C 0.11391 0.27174 0.871 0.0
H4397 H 0.15627 0.26449 0.87023 0.0
C4398 C 0.11391 0.2803 0.85538 0.0
C4399 C 0.12949 0.26604 0.87644 0.0
C4400 C 0.13033 0.25622 0.89268 0.0
C4401 C 0.12883 0.28331 0.84514 0.0
C4402 C 0.14428 0.27728 0.8503 0.0
C4403 C 0.14447 0.26904 0.86614 0.0
C4404 C 0.16002 0.27914 0.83903 0.0
C4405 C 0.12798 0.29326 0.82898 0.0
C4406 C 0.15812 0.27021 0.8201 0.0
C4407 C 0.17199 0.27387 0.80873 0.0
C4408 C 0.18828 0.28629 0.81603 0.0
C4409 C 0.19063 0.29436 0.83522 0.0
C4410 C 0.17666 0.29075 0.84663 0.0
H4411 H 0.11752 0.30154 0.83003 0.0
H4412 H 0.14091 0.30296 0.82823 0.0
H4413 H 0.12479 0.28255 0.81577 0.0
H4414 H 0.14561 0.26092 0.8139 0.0
H4415 H 0.16972 0.26761 0.79398 0.0
H4416 H 0.61244 0.77354 0.93251 0.0
H4417 H 0.60765 0.7462 0.94764 0.0
H4418 H 0.55414 0.72765 0.92082 0.0
H4419 H 0.55935 0.75429 0.90475 0.0
H4420 H 0.58577 0.73748 0.97155 0.0
H4421 H 0.56969 0.67926 0.90957 0.0
H4422 H 0.57871 0.70348 0.90788 0.0
H4423 H 0.55524 0.69522 0.90918 0.0
C4424 C 0.59971 0.76352 0.92983 0.0
C4425 C 0.58625 0.76579 0.9175 0.0
C4426 C 0.59702 0.74792 0.93837 0.0
C4427 C 0.58071 0.73464 0.93495 0.0
C4428 C 0.56706 0.73729 0.92305 0.0
H4429 H 0.52316 0.65312 0.98908 0.0
H4430 H 0.53458 0.67463 0.96844 0.0
C4431 C 0.56994 0.75259 0.91409 0.0
C4432 C 0.57755 0.71874 0.94483 0.0
H4433 H 0.56061 0.67118 0.93873 0.0
C4434 C 0.58059 0.72294 0.96435 0.0
C4435 C 0.57091 0.69977 0.93535 0.0
C4436 C 0.56865 0.69416 0.91433 0.0
C4437 C 0.57633 0.7088 0.97475 0.0
C4438 C 0.56882 0.69006 0.96533 0.0
C4439 C 0.56632 0.68567 0.94581 0.0
C4440 C 0.56216 0.67526 0.97576 0.0
C4441 C 0.57924 0.71409 0.99577 0.0
C4442 C 0.57399 0.6683 0.9862 0.0
C4443 C 0.56752 0.65609 0.99796 0.0
C4444 C 0.54919 0.65092 0.99948 0.0
C4445 C 0.53736 0.65731 0.98841 0.0
C4446 C 0.54383 0.66936 0.97653 0.0
H4447 H 0.58293 0.72967 0.00094 0.0
H4448 H 0.56709 0.70818 0.00207 0.0
H4449 H 0.59011 0.70797 0.00069 0.0
H4450 H 0.58819 0.67273 0.98564 0.0
H4451 H 0.57684 0.65115 0.0063 0.0
H4452 H 0.05336 0.73857 0.64949 0.0
H4453 H 0.0812 0.73247 0.66148 0.0
H4454 H 0.08463 0.77777 0.7092 0.0
H4455 H 0.0565 0.78343 0.69765 0.0
H4456 H 0.11218 0.75882 0.66594 0.0
H4457 H 0.09765 0.73692 0.73294 0.0
H4458 H 0.08029 0.73694 0.71552 0.0
H4459 H 0.09105 0.7585 0.73152 0.0
C4460 C 0.06007 0.74712 0.66259 0.0
C4461 C 0.05321 0.76172 0.67256 0.0
C4462 C 0.07578 0.74352 0.66945 0.0
C4463 C 0.08474 0.75462 0.68619 0.0
C4464 C 0.07761 0.76883 0.69643 0.0
H4465 H 0.18292 0.78317 0.74866 0.0
H4466 H 0.15863 0.78529 0.72686 0.0
C4467 C 0.06175 0.77221 0.68974 0.0
C4468 C 0.10256 0.75297 0.6919 0.0
H4469 H 0.12833 0.74931 0.72931 0.0
C4470 C 0.11574 0.7564 0.67966 0.0
C4471 C 0.10694 0.74983 0.70979 0.0
C4472 C 0.09317 0.74515 0.7231 0.0
C4473 C 0.13352 0.75759 0.68528 0.0
C4474 C 0.13788 0.75538 0.70345 0.0
C4475 C 0.12469 0.75128 0.71542 0.0
C4476 C 0.15602 0.75693 0.71081 0.0
C4477 C 0.14756 0.76177 0.67219 0.0
C4478 C 0.16276 0.74057 0.70825 0.0
C4479 C 0.17629 0.73924 0.72081 0.0
C4480 C 0.18292 0.75426 0.73584 0.0
C4481 C 0.17744 0.77133 0.73728 0.0
C4482 C 0.16396 0.77267 0.72472 0.0
H4483 H 0.14187 0.76333 0.65848 0.0
H4484 H 0.15739 0.77502 0.6786 0.0
H4485 H 0.15478 0.75017 0.66987 0.0
H4486 H 0.15651 0.72829 0.69764 0.0
H4487 H 0.18087 0.7262 0.71943 0.0
H4488 H 0.12766 0.39002 0.39591 0.0
H4489 H 0.12297 0.41925 0.41504 0.0
H4490 H 0.08402 0.38624 0.44319 0.0
H4491 H 0.08906 0.35733 0.42499 0.0
H4492 H 0.09038 0.42801 0.41328 0.0
H4493 H 0.11134 0.42528 0.48598 0.0
H4494 H 0.11808 0.41085 0.4661 0.0
H4495 H 0.09663 0.40361 0.47432 0.0
C4496 C 0.11856 0.3891 0.40664 0.0
C4497 C 0.10877 0.37154 0.40908 0.0
C4498 C 0.11591 0.40569 0.41746 0.0
C4499 C 0.10342 0.40469 0.43061 0.0
C4500 C 0.09416 0.38717 0.43352 0.0
H4501 H 0.03925 0.47091 0.48931 0.0
H4502 H 0.0506 0.44587 0.46983 0.0
C4503 C 0.09702 0.37068 0.42302 0.0
C4504 C 0.09816 0.42166 0.43971 0.0
H4505 H 0.08983 0.44397 0.48209 0.0
C4506 C 0.09062 0.43185 0.42834 0.0
C4507 C 0.09829 0.4262 0.45929 0.0
C4508 C 0.10669 0.41597 0.4721 0.0
C4509 C 0.08257 0.44627 0.43619 0.0
C4510 C 0.08225 0.45027 0.45567 0.0
C4511 C 0.09011 0.44045 0.46706 0.0
C4512 C 0.07436 0.46515 0.46483 0.0
C4513 C 0.07403 0.45678 0.42381 0.0
C4514 C 0.08425 0.48381 0.46821 0.0
C4515 C 0.07801 0.49782 0.47942 0.0
C4516 C 0.06196 0.49301 0.48713 0.0
C4517 C 0.05182 0.47446 0.48343 0.0
C4518 C 0.05811 0.46041 0.47229 0.0
H4519 H 0.07405 0.45071 0.40876 0.0
H4520 H 0.06011 0.45647 0.42705 0.0
H4521 H 0.08129 0.47185 0.42661 0.0
H4522 H 0.09696 0.48737 0.46263 0.0
H4523 H 0.08569 0.51232 0.48219 0.0
H4524 H 0.46035 0.2413 0.2184 0.0
H4525 H 0.4312 0.24288 0.22887 0.0
H4526 H 0.41527 0.25688 0.17689 0.0
H4527 H 0.4443 0.25531 0.16614 0.0
H4528 H 0.42512 0.28328 0.22554 0.0
H4529 H 0.37044 0.22015 0.19639 0.0
H4530 H 0.39296 0.21788 0.20109 0.0
H4531 H 0.38745 0.22819 0.18189 0.0
C4532 C 0.45052 0.24428 0.20902 0.0
C4533 C 0.45472 0.24897 0.19183 0.0
C4534 C 0.4339 0.24492 0.21492 0.0
C4535 C 0.42147 0.25007 0.20357 0.0
C4536 C 0.4249 0.25281 0.18564 0.0
H4537 H 0.32425 0.27868 0.22691 0.0
H4538 H 0.35278 0.28121 0.21386 0.0
C4539 C 0.44153 0.25222 0.17973 0.0
C4540 C 0.40712 0.25711 0.21205 0.0
H4541 H 0.36292 0.24599 0.2157 0.0
C4542 C 0.41146 0.27523 0.22348 0.0
C4543 C 0.38956 0.24647 0.2088 0.0
C4544 C 0.38468 0.22705 0.19641 0.0
C4545 C 0.3984 0.28298 0.23224 0.0
C4546 C 0.3809 0.27215 0.22937 0.0
C4547 C 0.37653 0.25417 0.21763 0.0
C4548 C 0.36675 0.27834 0.23914 0.0
C4549 C 0.40321 0.30255 0.24433 0.0
C4550 C 0.3657 0.27672 0.25784 0.0
C4551 C 0.34944 0.27531 0.2653 0.0
C4552 C 0.33454 0.27581 0.25402 0.0
C4553 C 0.33589 0.27865 0.23576 0.0
C4554 C 0.35207 0.28028 0.22842 0.0
H4555 H 0.41706 0.30999 0.24316 0.0
H4556 H 0.39401 0.31113 0.24034 0.0
H4557 H 0.40178 0.30156 0.25913 0.0
H4558 H 0.37698 0.27478 0.26602 0.0
H4559 H 0.34831 0.27294 0.2794 0.0
H4560 H 0.63799 0.48555 0.32538 0.0
H4561 H 0.62547 0.485 0.35582 0.0
H4562 H 0.60993 0.53729 0.35374 0.0
H4563 H 0.6218 0.5377 0.32378 0.0
H4564 H 0.63081 0.50741 0.39111 0.0
H4565 H 0.56337 0.50817 0.36402 0.0
H4566 H 0.58028 0.50409 0.34873 0.0
H4567 H 0.57922 0.52788 0.35934 0.0
C4568 C 0.63193 0.49696 0.33138 0.0
C4569 C 0.63092 0.51155 0.3215 0.0
C4570 C 0.62466 0.49664 0.34897 0.0
C4571 C 0.61603 0.51085 0.35738 0.0
C4572 C 0.61571 0.52566 0.34776 0.0
H4573 H 0.56477 0.54724 0.45906 0.0
H4574 H 0.57771 0.54267 0.42904 0.0
C4575 C 0.62278 0.52593 0.33036 0.0
C4576 C 0.60749 0.51068 0.37601 0.0
H4577 H 0.56966 0.51679 0.39719 0.0
C4578 C 0.61735 0.50923 0.39227 0.0
C4579 C 0.5898 0.51299 0.37818 0.0
C4580 C 0.57749 0.51316 0.36161 0.0
C4581 C 0.61052 0.51085 0.41018 0.0
C4582 C 0.59303 0.51378 0.4124 0.0
C4583 C 0.58307 0.51478 0.39606 0.0
C4584 C 0.58497 0.51636 0.43135 0.0
C4585 C 0.62253 0.51012 0.42675 0.0
C4586 C 0.5841 0.50311 0.44326 0.0
C4587 C 0.57652 0.50574 0.46063 0.0
C4588 C 0.56949 0.52174 0.46692 0.0
C4589 C 0.57013 0.53481 0.45497 0.0
C4590 C 0.57757 0.53214 0.43759 0.0
H4591 H 0.63672 0.51307 0.42395 0.0
H4592 H 0.62088 0.52048 0.43925 0.0
H4593 H 0.6191 0.49574 0.42997 0.0
H4594 H 0.58909 0.49049 0.43903 0.0
H4595 H 0.57621 0.49521 0.46921 0.0
H4596 H 0.28939 0.90063 0.06566 0.0
H4597 H 0.28934 0.89001 0.09539 0.0
H4598 H 0.34594 0.89447 0.09636 0.0
H4599 H 0.34607 0.90575 0.06674 0.0
H4600 H 0.30323 0.85612 0.0947 0.0
H4601 H 0.3353 0.91679 0.15175 0.0
H4602 H 0.32381 0.91967 0.13069 0.0
H4603 H 0.34554 0.91479 0.13014 0.0
C4604 C 0.30177 0.89937 0.07237 0.0
C4605 C 0.31767 0.90342 0.06416 0.0
C4606 C 0.30177 0.89372 0.08934 0.0
C4607 C 0.31767 0.89197 0.09799 0.0
C4608 C 0.33369 0.89638 0.08994 0.0
H4609 H 0.3596 0.83495 0.16923 0.0
H4610 H 0.35187 0.85803 0.152 0.0
C4611 C 0.33373 0.90238 0.07304 0.0
C4612 C 0.31689 0.88193 0.11324 0.0
H4613 H 0.33233 0.88576 0.1583 0.0
C4614 C 0.30924 0.86255 0.10876 0.0
C4615 C 0.32479 0.8907 0.1313 0.0
C4616 C 0.33274 0.91168 0.1364 0.0
C4617 C 0.31044 0.85118 0.12168 0.0
C4618 C 0.31907 0.85976 0.13962 0.0
C4619 C 0.32572 0.87941 0.14447 0.0
C4620 C 0.32349 0.84811 0.15237 0.0
C4621 C 0.30361 0.83 0.11548 0.0
C4622 C 0.31001 0.83526 0.15822 0.0
C4623 C 0.31434 0.82156 0.16704 0.0
C4624 C 0.33225 0.82118 0.17095 0.0
C4625 C 0.34575 0.83468 0.16587 0.0
C4626 C 0.34136 0.84808 0.15652 0.0
H4627 H 0.30074 0.82563 0.10008 0.0
H4628 H 0.31338 0.82227 0.12 0.0
H4629 H 0.29109 0.82553 0.12181 0.0
H4630 H 0.29617 0.83533 0.15526 0.0
H4631 H 0.30366 0.81126 0.17084 0.0
H4632 H 0.9217 0.52527 0.85128 0.0
H4633 H 0.93294 0.53386 0.88445 0.0
H4634 H 0.9863 0.54998 0.86892 0.0
H4635 H 0.9753 0.54107 0.83605 0.0
H4636 H 0.95994 0.51513 0.89631 0.0
H4637 H 0.98162 0.59317 0.91326 0.0
H4638 H 0.96391 0.58069 0.89539 0.0
H4639 H 0.98676 0.58358 0.89035 0.0
C4640 C 0.93583 0.53054 0.85513 0.0
C4641 C 0.94785 0.53219 0.84147 0.0
C4642 C 0.94208 0.53575 0.87387 0.0
C4643 C 0.96023 0.54303 0.87876 0.0
C4644 C 0.97215 0.54484 0.86512 0.0
H4645 H 0.04597 0.5412 0.95394 0.0
H4646 H 0.02663 0.5408 0.92601 0.0
C4647 C 0.96599 0.53929 0.84649 0.0
C4648 C 0.96772 0.54524 0.89767 0.0
H4649 H -1e-05 0.57593 0.92804 0.0
C4650 C 0.96836 0.52845 0.90369 0.0
C4651 C 0.97857 0.56269 0.90687 0.0
C4652 C 0.97754 0.58108 0.90121 0.0
C4653 C 0.98101 0.52845 0.91783 0.0
C4654 C 0.99277 0.54572 0.92601 0.0
C4655 C 0.99122 0.5627 0.92098 0.0
C4656 C 0.00498 0.547 0.94188 0.0
C4657 C 0.98208 0.51011 0.92367 0.0
C4658 C -0.00087 0.55156 0.95941 0.0
C4659 C 0.01015 0.55247 0.97501 0.0
C4660 C 0.02689 0.54832 0.97313 0.0
C4661 C 0.03319 0.54471 0.95554 0.0
C4662 C 0.02213 0.54412 0.93975 0.0
H4663 H 0.97286 0.49769 0.91464 0.0
H4664 H 0.99582 0.50795 0.92315 0.0
H4665 H 0.97871 0.5108 0.9383 0.0
H4666 H 0.98588 0.55392 0.96098 0.0
H4667 H 0.00517 0.55536 0.98855 0.0
H4668 H 0.28184 0.23661 0.55749 0.0
H4669 H 0.28313 0.25542 0.58928 0.0
H4670 H 0.31381 0.21998 0.6103 0.0
H4671 H 0.31216 0.20102 0.57886 0.0
H4672 H 0.26902 0.23505 0.61914 0.0
H4673 H 0.33868 0.27617 0.6368 0.0
H4674 H 0.32852 0.26838 0.61305 0.0
H4675 H 0.33603 0.25193 0.62504 0.0
C4676 C 0.28928 0.23326 0.56885 0.0
C4677 C 0.2969 0.21744 0.56585 0.0
C4678 C 0.28996 0.24393 0.58695 0.0
C4679 C 0.29868 0.23916 0.60208 0.0
C4680 C 0.30722 0.22406 0.5988 0.0
H4681 H 0.29314 0.23647 0.71486 0.0
H4682 H 0.29255 0.23231 0.68096 0.0
C4683 C 0.30622 0.21321 0.58088 0.0
C4684 C 0.29693 0.24801 0.62156 0.0
H4685 H 0.32128 0.2717 0.66244 0.0
C4686 C 0.28034 0.24348 0.62853 0.0
C4687 C 0.31176 0.25883 0.63377 0.0
C4688 C 0.32976 0.26428 0.62682 0.0
C4689 C 0.2784 0.24864 0.64761 0.0
C4690 C 0.29337 0.2587 0.65996 0.0
C4691 C 0.30979 0.26409 0.65288 0.0
C4692 C 0.29265 0.26152 0.68041 0.0
C4693 C 0.26052 0.24274 0.65468 0.0
C4694 C 0.29272 0.27935 0.69129 0.0
C4695 C 0.29302 0.28179 0.71078 0.0
C4696 C 0.29327 0.26639 0.71952 0.0
C4697 C 0.2928 0.24853 0.70847 0.0
C4698 C 0.2925 0.24613 0.68913 0.0
H4699 H 0.24975 0.23721 0.64313 0.0
H4700 H 0.26088 0.23149 0.66279 0.0
H4701 H 0.25739 0.25495 0.66417 0.0
H4702 H 0.29285 0.29139 0.68474 0.0
H4703 H 0.29364 0.29575 0.719 0.0
H4704 H 0.60824 0.50366 0.21708 0.0
H4705 H 0.59299 0.50831 0.18849 0.0
H4706 H 0.64224 0.51426 0.16301 0.0
H4707 H 0.65731 0.50928 0.19122 0.0
H4708 H 0.59424 0.53563 0.16874 0.0
H4709 H 0.61246 0.47715 0.12123 0.0
H4710 H 0.61608 0.48018 0.14621 0.0
H4711 H 0.63202 0.49318 0.13349 0.0
C4712 C 0.61587 0.50579 0.20536 0.0
C4713 C 0.63422 0.50582 0.20682 0.0
C4714 C 0.60705 0.50856 0.18882 0.0
C4715 C 0.61608 0.51134 0.17285 0.0
C4716 C 0.63445 0.51163 0.17449 0.0
H4717 H 0.60078 0.53555 0.06112 0.0
H4718 H 0.61024 0.53044 0.09168 0.0
C4719 C 0.64323 0.50887 0.19094 0.0
C4720 C 0.60667 0.51416 0.15472 0.0
H4721 H 0.60282 0.50025 0.10675 0.0
C4722 C 0.59609 0.52772 0.15524 0.0
C4723 C 0.60837 0.50382 0.13666 0.0
C4724 C 0.61766 0.48763 0.13433 0.0
C4725 C 0.58831 0.53183 0.13872 0.0
C4726 C 0.59087 0.52215 0.12065 0.0
C4727 C 0.60089 0.50815 0.12023 0.0
C4728 C 0.58435 0.52676 0.10206 0.0
C4729 C 0.5779 0.54708 0.14082 0.0
C4730 C 0.56641 0.5269 0.09693 0.0
C4731 C 0.56086 0.53004 0.07905 0.0
C4732 C 0.57301 0.53305 0.06551 0.0
C4733 C 0.59087 0.53332 0.0709 0.0
C4734 C 0.59637 0.53026 0.08859 0.0
H4735 H 0.58057 0.55622 0.15499 0.0
H4736 H 0.58105 0.55612 0.13034 0.0
H4737 H 0.5635 0.54037 0.13857 0.0
H4738 H 0.55647 0.52393 0.10649 0.0
H4739 H 0.54694 0.52941 0.0756 0.0
H4740 H 0.29534 0.91443 0.93817 0.0
H4741 H 0.29897 0.89192 0.91027 0.0
H4742 H 0.34288 0.87866 0.93986 0.0
H4743 H 0.33885 0.90052 0.96791 0.0
H4744 H 0.32704 0.88881 0.88928 0.0
H4745 H 0.3081 0.8276 0.92431 0.0
H4746 H 0.3054 0.85098 0.93425 0.0
H4747 H 0.32689 0.84547 0.93588 0.0
C4748 C 0.30586 0.90683 0.93855 0.0
C4749 C 0.31663 0.90878 0.95503 0.0
C4750 C 0.30792 0.89406 0.92273 0.0
C4751 C 0.32093 0.88347 0.92333 0.0
C4752 C 0.33249 0.88641 0.93943 0.0
H4753 H 0.33806 0.80326 0.82564 0.0
H4754 H 0.34422 0.82388 0.85688 0.0
C4755 C 0.33021 0.89887 0.95531 0.0
C4756 C 0.32182 0.8687 0.90734 0.0
H4757 H 0.31539 0.82088 0.89332 0.0
C4758 C 0.32476 0.87398 0.89016 0.0
C4759 C 0.31859 0.84941 0.90873 0.0
C4760 C 0.3144 0.84295 0.92673 0.0
C4761 C 0.32415 0.86031 0.87408 0.0
C4762 C 0.32076 0.84109 0.87548 0.0
C4763 C 0.31834 0.83578 0.89267 0.0
C4764 C 0.31698 0.82631 0.85877 0.0
C4765 C 0.3261 0.86629 0.85551 0.0
C4766 C 0.29962 0.8207 0.85026 0.0
C4767 C 0.29612 0.80896 0.83279 0.0
C4768 C 0.30995 0.80272 0.82383 0.0
C4769 C 0.32723 0.80767 0.83271 0.0
C4770 C 0.33073 0.81939 0.85032 0.0
H4771 H 0.33078 0.88187 0.85714 0.0
H4772 H 0.33555 0.85923 0.84764 0.0
H4773 H 0.31305 0.86183 0.84705 0.0
H4774 H 0.28902 0.82636 0.85662 0.0
H4775 H 0.28297 0.8062 0.82569 0.0
H4776 H 0.95637 0.54207 0.75555 0.0
H4777 H 0.96716 0.53249 0.72554 0.0
H4778 H 0.91633 0.53097 0.69752 0.0
H4779 H 0.90505 0.54014 0.72776 0.0
H4780 H 0.94882 0.49977 0.68968 0.0
H4781 H 0.96055 0.57673 0.68756 0.0
H4782 H 0.95937 0.5689 0.70947 0.0
H4783 H 0.93969 0.56434 0.69384 0.0
C4784 C 0.94737 0.53952 0.74306 0.0
C4785 C 0.93 0.54225 0.74385 0.0
C4786 C 0.95349 0.53381 0.72602 0.0
C4787 C 0.94242 0.53109 0.70963 0.0
C4788 C 0.92486 0.53297 0.71026 0.0
H4789 H 0.9918 0.51508 0.60604 0.0
H4790 H 0.9694 0.52166 0.62705 0.0
C4791 C 0.9186 0.53848 0.7274 0.0
C4792 C 0.95052 0.52964 0.69217 0.0
H4793 H 0.97547 0.55806 0.66707 0.0
C4794 C 0.95421 0.5123 0.68424 0.0
C4795 C 0.95768 0.54626 0.68569 0.0
C4796 C 0.95421 0.56519 0.69451 0.0
C4797 C 0.96575 0.51135 0.67027 0.0
C4798 C 0.97363 0.52816 0.66448 0.0
C4799 C 0.96924 0.54531 0.67173 0.0
C4800 C 0.98756 0.52814 0.65195 0.0
C4801 C 0.97031 0.4927 0.66246 0.0
C4802 C 0.00508 0.53017 0.65931 0.0
C4803 C 0.01788 0.52633 0.64744 0.0
C4804 C 0.01315 0.52059 0.6282 0.0
C4805 C 0.99574 0.51959 0.62087 0.0
C4806 C 0.98299 0.52339 0.63274 0.0
H4807 H 0.9625 0.4808 0.66802 0.0
H4808 H 0.96781 0.48949 0.64702 0.0
H4809 H 0.98465 0.49369 0.66596 0.0
H4810 H 0.0086 0.53381 0.67426 0.0
H4811 H 0.0313 0.52743 0.65325 0.0
H4812 H 0.31664 0.19515 0.4412 0.0
H4813 H 0.32077 0.20805 0.41287 0.0
H4814 H 0.28618 0.24552 0.43033 0.0
H4815 H 0.28256 0.23318 0.45905 0.0
H4816 H 0.29613 0.20718 0.38537 0.0
H4817 H 0.32783 0.28193 0.41699 0.0
H4818 H 0.32533 0.26333 0.43021 0.0
H4819 H 0.3069 0.27364 0.42553 0.0
C4820 C 0.31008 0.20629 0.43909 0.0
C4821 C 0.29943 0.21332 0.45239 0.0
C4822 C 0.31244 0.21363 0.42291 0.0
C4823 C 0.30408 0.22801 0.41967 0.0
C4824 C 0.29322 0.23487 0.43283 0.0
H4825 H 0.28958 0.28428 0.32969 0.0
H4826 H 0.2921 0.27438 0.35962 0.0
C4827 C 0.29108 0.22774 0.44917 0.0
C4828 C 0.30605 0.23511 0.4021 0.0
H4829 H 0.31818 0.27522 0.38456 0.0
C4830 C 0.30111 0.22203 0.38516 0.0
C4831 C 0.3125 0.2545 0.40191 0.0
C4832 C 0.3186 0.26914 0.41963 0.0
C4833 C 0.30188 0.22786 0.36801 0.0
C4834 C 0.30821 0.24729 0.36782 0.0
C4835 C 0.31341 0.26034 0.38476 0.0
C4836 C 0.30834 0.2545 0.35027 0.0
C4837 C 0.29519 0.21322 0.35036 0.0
C4838 C 0.31709 0.24705 0.33527 0.0
C4839 C 0.31512 0.25222 0.31802 0.0
C4840 C 0.30504 0.26548 0.31588 0.0
C4841 C 0.2974 0.27398 0.33118 0.0
C4842 C 0.29887 0.26837 0.34822 0.0
H4843 H 0.2866 0.20017 0.35328 0.0
H4844 H 0.28752 0.21887 0.3404 0.0
H4845 H 0.30667 0.20915 0.34355 0.0
H4846 H 0.32502 0.23687 0.33676 0.0
H4847 H 0.32136 0.24584 0.30635 0.0
H4848 H 0.30936 0.57803 0.52395 0.0
H4849 H 0.33884 0.5711 0.52132 0.0
H4850 H 0.36229 0.63062 0.52699 0.0
H4851 H 0.33312 0.63776 0.52979 0.0
H4852 H 0.36128 0.58508 0.49164 0.0
H4853 H 0.3924 0.60946 0.565 0.0
H4854 H 0.36856 0.60292 0.55971 0.0
H4855 H 0.381 0.62448 0.55457 0.0
C4856 C 0.32086 0.58961 0.52496 0.0
C4857 C 0.31907 0.60835 0.52698 0.0
C4858 C 0.33756 0.58567 0.52344 0.0
C4859 C 0.35247 0.60046 0.52415 0.0
C4860 C 0.35081 0.61918 0.52665 0.0
H4861 H 0.45542 0.57514 0.49997 0.0
H4862 H 0.43457 0.5949 0.51041 0.0
C4863 C 0.33418 0.62313 0.5281 0.0
C4864 C 0.36959 0.59604 0.52083 0.0
H4865 H 0.4084 0.59358 0.54312 0.0
C4866 C 0.37174 0.58718 0.50278 0.0
C4867 C 0.38316 0.59937 0.53543 0.0
C4868 C 0.38129 0.60955 0.55483 0.0
C4869 C 0.38685 0.58028 0.49916 0.0
C4870 C 0.39971 0.58204 0.5141 0.0
C4871 C 0.39824 0.59218 0.53187 0.0
C4872 C 0.41326 0.57106 0.5117 0.0
C4873 C 0.38851 0.57018 0.47964 0.0
C4874 C 0.40802 0.55135 0.50957 0.0
C4875 C 0.41965 0.54011 0.50335 0.0
C4876 C 0.43665 0.54856 0.4995 0.0
C4877 C 0.44225 0.56841 0.50281 0.0
C4878 C 0.43052 0.57966 0.50886 0.0
H4879 H 0.3799 0.57404 0.46908 0.0
H4880 H 0.40247 0.57351 0.47613 0.0
H4881 H 0.38442 0.55466 0.47877 0.0
H4882 H 0.39463 0.54468 0.5118 0.0
H4883 H 0.41528 0.52485 0.50123 0.0
H4884 H 0.86144 0.90969 0.5081 0.0
H4885 H 0.89302 0.92539 0.51054 0.0
H4886 H 0.88865 0.95616 0.5656 0.0
H4887 H 0.85706 0.94033 0.56315 0.0
H4888 H 0.90383 0.96476 0.51485 0.0
H4889 H 0.9361 0.93981 0.57192 0.0
H4890 H 0.91497 0.92708 0.55953 0.0
H4891 H 0.9162 0.94774 0.57735 0.0
C4892 C 0.86742 0.91936 0.52093 0.0
C4893 C 0.85702 0.92368 0.53555 0.0
C4894 C 0.8854 0.92839 0.52229 0.0
C4895 C 0.89326 0.94189 0.53829 0.0
C4896 C 0.88299 0.94557 0.55326 0.0
H4897 H 0.99229 0.03018 0.55375 0.0
H4898 H 0.96219 0.01244 0.55674 0.0
C4899 C 0.86497 0.93655 0.55187 0.0
C4900 C 0.91149 0.9536 0.53841 0.0
H4901 H 0.95332 0.96566 0.56102 0.0
C4902 C 0.91463 0.96494 0.52496 0.0
C4903 C 0.92559 0.95384 0.5516 0.0
C4904 C 0.92318 0.94136 0.56585 0.0
C4905 C 0.93144 0.97655 0.52439 0.0
C4906 C 0.94549 0.97687 0.53761 0.0
C4907 C 0.94241 0.96559 0.5511 0.0
C4908 C 0.9638 0.98762 0.53649 0.0
C4909 C 0.93421 0.98831 0.50955 0.0
C4910 C 0.97463 0.97949 0.52426 0.0
C4911 C 0.99171 0.9895 0.52251 0.0
C4912 C -0.00157 0.00802 0.53291 0.0
C4913 C 0.98759 0.01607 0.54543 0.0
C4914 C 0.9704 0.00593 0.54719 0.0
H4915 H 0.92158 0.98782 0.50135 0.0
H4916 H 0.94043 0.00327 0.51603 0.0
H4917 H 0.94343 0.98302 0.49985 0.0
H4918 H 0.96978 0.96538 0.51589 0.0
H4919 H -0.00045 0.98268 0.51276 0.0
H4920 H 0.91302 0.1406 0.29749 0.0
H4921 H 0.89723 0.16635 0.29766 0.0
H4922 H 0.86614 0.13492 0.24692 0.0
H4923 H 0.88091 0.10888 0.24756 0.0
H4924 H 0.89229 0.19211 0.28167 0.0
H4925 H 0.82507 0.14693 0.26859 0.0
H4926 H 0.844 0.13737 0.27315 0.0
H4927 H 0.83754 0.13976 0.24976 0.0
C4928 C 0.90262 0.13896 0.28646 0.0
C4929 C 0.89829 0.12195 0.27271 0.0
C4930 C 0.89346 0.15399 0.2865 0.0
C4931 C 0.87952 0.15308 0.27266 0.0
C4932 C 0.87584 0.13636 0.25854 0.0
H4933 H 0.81991 0.23253 0.23459 0.0
H4934 H 0.83524 0.20753 0.23907 0.0
C4935 C 0.88465 0.12121 0.25875 0.0
C4936 C 0.86922 0.16933 0.27269 0.0
H4937 H 0.82782 0.17808 0.26242 0.0
C4938 C 0.87815 0.18876 0.27761 0.0
C4939 C 0.85046 0.16603 0.26787 0.0
C4940 C 0.8387 0.14642 0.26478 0.0
C4941 C 0.8694 0.2041 0.27706 0.0
C4942 C 0.8509 0.20059 0.27119 0.0
C4943 C 0.84194 0.18132 0.26664 0.0
C4944 C 0.8408 0.21638 0.26896 0.0
C4945 C 0.88019 0.22416 0.28243 0.0
C4946 C 0.83787 0.23015 0.28416 0.0
C4947 C 0.82836 0.2444 0.28163 0.0
C4948 C 0.82152 0.24581 0.26372 0.0
C4949 C 0.82452 0.23206 0.24867 0.0
C4950 C 0.83355 0.21761 0.25123 0.0
H4951 H 0.89467 0.22481 0.28407 0.0
H4952 H 0.87751 0.23239 0.27177 0.0
H4953 H 0.87627 0.23107 0.29587 0.0
H4954 H 0.84296 0.22994 0.29814 0.0
H4955 H 0.82691 0.25474 0.2937 0.0
H4956 H 0.72346 0.10232 0.98355 0.0
H4957 H 0.6935 0.08477 0.98648 0.0
H4958 H 0.6901 0.1261 0.03549 0.0
H4959 H 0.71993 0.14393 0.03248 0.0
H4960 H 0.68796 0.07204 0.02315 0.0
H4961 H 0.6417 0.11452 0.0014 0.0
H4962 H 0.66354 0.11624 0.9933 0.0
H4963 H 0.66114 0.12675 0.01688 0.0
C4964 C 0.71605 0.10788 0.99459 0.0
C4965 C 0.72379 0.12419 0.00789 0.0
C4966 C 0.69913 0.09789 0.99628 0.0
C4967 C 0.69005 0.10418 0.01132 0.0
C4968 C 0.69716 0.12125 0.02382 0.0
H4969 H 0.58956 0.06835 0.03474 0.0
H4970 H 0.62066 0.07531 0.04477 0.0
C4971 C 0.71403 0.13139 0.02201 0.0
C4972 C 0.67385 0.09194 0.01482 0.0
H4973 H 0.62936 0.08685 0.0116 0.0
C4974 C 0.67505 0.07519 0.02082 0.0
C4975 C 0.65738 0.09646 0.01174 0.0
C4976 C 0.65571 0.11441 0.00539 0.0
C4977 C 0.65977 0.06257 0.02383 0.0
C4978 C 0.64329 0.06697 0.02044 0.0
C4979 C 0.64222 0.08375 0.01439 0.0
C4980 C 0.62649 0.05459 0.02244 0.0
C4981 C 0.66121 0.04478 0.03055 0.0
C4982 C 0.6194 0.03909 0.00789 0.0
C4983 C 0.60112 0.03405 0.00302 0.0
C4984 C 0.59026 0.04478 0.01259 0.0
C4985 C 0.59739 0.05907 0.02802 0.0
C4986 C 0.61526 0.0631 0.03372 0.0
H4987 H 0.67511 0.04498 0.03532 0.0
H4988 H 0.65275 0.04289 0.04217 0.0
H4989 H 0.65633 0.03238 0.01899 0.0
H4990 H 0.62801 0.0326 0.99887 0.0
H4991 H 0.59573 0.02305 0.99089 0.0
H4992 H 0.19889 0.49128 0.26921 0.0
H4993 H 0.21122 0.46449 0.27421 0.0
H4994 H 0.22692 0.45741 0.21798 0.0
H4995 H 0.21538 0.48499 0.21337 0.0
H4996 H 0.20218 0.4276 0.25491 0.0
H4997 H 0.27275 0.46225 0.25012 0.0
H4998 H 0.25546 0.47526 0.25251 0.0
H4999 H 0.2575 0.461 0.23037 0.0
C5000 C 0.20512 0.48398 0.25806 0.0
C5001 C 0.20656 0.48991 0.24107 0.0
C5002 C 0.21199 0.46876 0.26083 0.0
C5003 C 0.21997 0.45923 0.24644 0.0
C5004 C 0.22104 0.46493 0.22925 0.0
H5005 H 0.28138 0.37827 0.26478 0.0
H5006 H 0.2618 0.39244 0.24753 0.0
C5007 C 0.21454 0.48052 0.22665 0.0
C5008 C 0.22759 0.44366 0.24992 0.0
H5009 H 0.26713 0.43205 0.25732 0.0
C5010 C 0.21634 0.4283 0.25514 0.0
C5011 C 0.24605 0.44499 0.25027 0.0
C5012 C 0.25871 0.46181 0.24567 0.0
C5013 C 0.22326 0.41443 0.26155 0.0
C5014 C 0.24176 0.41608 0.26247 0.0
C5015 C 0.25289 0.43088 0.25629 0.0
C5016 C 0.2503 0.40419 0.27201 0.0
C5017 C 0.2109 0.39862 0.26798 0.0
C5018 C 0.24995 0.4061 0.29136 0.0
C5019 C 0.26104 0.39802 0.30124 0.0
C5020 C 0.27263 0.38815 0.29183 0.0
C5021 C 0.27237 0.38562 0.27231 0.0
C5022 C 0.26124 0.39364 0.26245 0.0
H5023 H 0.19712 0.3963 0.26149 0.0
H5024 H 0.21547 0.38519 0.26467 0.0
H5025 H 0.21064 0.40242 0.28334 0.0
H5026 H 0.24185 0.41467 0.29893 0.0
H5027 H 0.26096 0.39999 0.31626 0.0
H5028 H 0.24212 0.39396 0.00743 0.0
H5029 H 0.21709 0.40888 0.00415 0.0
H5030 H 0.23061 0.44091 0.06054 0.0
H5031 H 0.25655 0.42704 0.06325 0.0
H5032 H 0.18817 0.4101 0.01971 0.0
H5033 H 0.22993 0.48317 0.03497 0.0
H5034 H 0.23942 0.46267 0.0321 0.0
H5035 H 0.23138 0.47124 0.05398 0.0
C5036 C 0.23972 0.40421 0.0191 0.0
C5037 C 0.25133 0.40961 0.03549 0.0
C5038 C 0.22539 0.4127 0.01725 0.0
C5039 C 0.22217 0.42643 0.03192 0.0
C5040 C 0.23319 0.43095 0.04875 0.0
H5041 H 0.14542 0.4981 0.03639 0.0
H5042 H 0.16461 0.47793 0.04505 0.0
C5043 C 0.24791 0.42293 0.05037 0.0
C5044 C 0.20762 0.43631 0.02924 0.0
H5045 H 0.19895 0.48014 0.03129 0.0
C5046 C 0.19055 0.42542 0.02228 0.0
C5047 C 0.21069 0.45634 0.03245 0.0
C5048 C 0.22888 0.46903 0.0386 0.0
C5049 C 0.17657 0.43398 0.01841 0.0
C5050 C 0.17971 0.45392 0.02169 0.0
C5051 C 0.19659 0.46482 0.02899 0.0
C5052 C 0.16608 0.46396 0.01666 0.0
C5053 C 0.15859 0.42166 0.01074 0.0
C5054 C 0.16042 0.46258 0.99785 0.0
C5055 C 0.14959 0.47417 0.99288 0.0
C5056 C 0.14422 0.48729 0.00665 0.0
C5057 C 0.14927 0.48803 0.02552 0.0
C5058 C 0.16024 0.47657 0.03047 0.0
H5059 H 0.15708 0.4071 0.01344 0.0
H5060 H 0.1478 0.42787 0.01689 0.0
H5061 H 0.15697 0.42063 0.99541 0.0
H5062 H 0.16498 0.45313 0.98698 0.0
H5063 H 0.14577 0.47321 0.97824 0.0
H5064 H 0.87593 0.00966 0.27093 0.0
H5065 H 0.85793 0.97768 0.27118 0.0
H5066 H 0.90256 0.95366 0.25637 0.0
H5067 H 0.92032 0.98491 0.25615 0.0
H5068 H 0.84742 0.94355 0.24417 0.0
H5069 H 0.89002 0.93009 0.30067 0.0
H5070 H 0.89202 0.95338 0.29547 0.0
H5071 H 0.90216 0.93634 0.28169 0.0
C5072 C 0.88194 0.99761 0.26771 0.0
C5073 C 0.89986 1.00041 0.26358 0.0
C5074 C 0.87156 0.97913 0.26786 0.0
C5075 C 0.87875 0.96278 0.26417 0.0
C5076 C 0.89649 0.96566 0.25978 0.0
H5077 H 0.84612 0.83886 0.25975 0.0
H5078 H 0.86151 0.87148 0.25969 0.0
C5079 C 0.90673 0.98388 0.25952 0.0
C5080 C 0.86803 0.94278 0.2646 0.0
H5081 H 0.86894 0.90335 0.28335 0.0
C5082 C 0.8521 0.93491 0.25294 0.0
C5083 C 0.87389 0.93091 0.27574 0.0
C5084 C 0.89036 0.93813 0.28923 0.0
C5085 C 0.8424 0.91589 0.25172 0.0
C5086 C 0.84824 0.90401 0.26291 0.0
C5087 C 0.86413 0.91197 0.27466 0.0
C5088 C 0.83832 0.88344 0.26254 0.0
C5089 C 0.82636 0.90851 0.23769 0.0
C5090 C 0.81987 0.87845 0.2643 0.0
C5091 C 0.81088 0.85949 0.26412 0.0
C5092 C 0.81991 0.84457 0.26244 0.0
C5093 C 0.83841 0.8496 0.26093 0.0
C5094 C 0.84737 0.86853 0.26097 0.0
H5095 H 0.82699 0.91662 0.22629 0.0
H5096 H 0.82504 0.89333 0.23138 0.0
H5097 H 0.81425 0.91006 0.24475 0.0
H5098 H 0.81231 0.88931 0.26622 0.0
H5099 H 0.79682 0.85666 0.26573 0.0
H5100 H 0.68372 0.11238 0.74527 0.0
H5101 H 0.70585 0.14248 0.75296 0.0
H5102 H 0.74768 0.11235 0.75578 0.0
H5103 H 0.7259 0.08233 0.74812 0.0
H5104 H 0.73568 0.15415 0.78646 0.0
H5105 H 0.75569 0.14718 0.7137 0.0
H5106 H 0.73431 0.13491 0.71891 0.0
H5107 H 0.75389 0.12722 0.72503 0.0
C5108 C 0.69762 0.11223 0.74752 0.0
C5109 C 0.70319 0.09518 0.74595 0.0
C5110 C 0.71013 0.12929 0.75201 0.0
C5111 C 0.72814 0.12922 0.75473 0.0
C5112 C 0.73372 0.11234 0.75362 0.0
H5113 H 0.80604 0.23766 0.77755 0.0
H5114 H 0.79658 0.20283 0.77 0.0
C5115 C 0.72128 0.09534 0.74925 0.0
C5116 C 0.74124 0.1469 0.75784 0.0
H5117 H 0.7679 0.17588 0.73465 0.0
C5118 C 0.74314 0.15879 0.77537 0.0
C5119 C 0.75069 0.15254 0.74312 0.0
C5120 C 0.74859 0.13989 0.72406 0.0
C5121 C 0.75376 0.17697 0.77831 0.0
C5122 C 0.76238 0.183 0.76325 0.0
C5123 C 0.76137 0.17075 0.74607 0.0
C5124 C 0.76893 0.20294 0.76408 0.0
C5125 C 0.75449 0.19017 0.7969 0.0
C5126 C 0.75635 0.21383 0.76274 0.0
C5127 C 0.7616 0.23327 0.7673 0.0
C5128 C 0.77947 0.24174 0.77246 0.0
C5129 C 0.79223 0.23097 0.77319 0.0
C5130 C 0.78693 0.21136 0.76881 0.0
H5131 H 0.75079 0.18227 0.80816 0.0
H5132 H 0.76795 0.19947 0.80085 0.0
H5133 H 0.74498 0.19937 0.79583 0.0
H5134 H 0.74237 0.20724 0.75922 0.0
H5135 H 0.7517 0.2417 0.76714 0.0
loop_
_geom_bond_atom_site_label_1
_geom_bond_atom_site_label_2
_geom_bond_distance
_geom_bond_site_symmetry_2
_ccdc_geom_bond_type
C0 O1 1.306 . S
C0 O3 1.160 . S
O1 C0 1.306 . S
O1 Cd2 2.228 . S
Cd2 O1 2.228 . S
Cd2 O6 2.273 . S
Cd2 O10 2.277 . S
O3 C0 1.160 . S
O3 Cd4 2.203 . S
Cd4 O3 2.203 . S
Cd4 O6 2.411 . S
Cd4 O7 2.333 . S
Cd4 O8 2.352 . S
Cd4 O12 2.277 . S
Cd4 O13 2.356 . S
C5 O10 1.209 . S
C5 O12 1.226 . S
O6 Cd2 2.273 . S
O6 Cd4 2.411 . S
O6 C9 1.320 . S
O7 Cd4 2.333 . S
O7 C9 1.214 . S
O8 Cd4 2.352 . S
O8 C11 1.258 . S
C9 O6 1.320 . S
C9 O7 1.214 . S
O10 Cd2 2.277 . S
O10 C5 1.209 . S
C11 O8 1.258 . S
C11 O13 1.282 . S
O12 Cd4 2.277 . S
O12 C5 1.226 . S
O13 Cd4 2.356 . S
O13 C11 1.282 . S
C14 O15 1.306 . S
C14 O17 1.160 . S
O15 C14 1.306 . S
O15 Cd16 2.228 1_655 S
Cd16 O15 2.228 1_455 S
Cd16 O20 2.273 . S
Cd16 O24 2.277 1_455 S
O17 C14 1.160 . S
O17 Cd18 2.203 1_655 S
Cd18 O17 2.203 1_455 S
Cd18 O20 2.411 . S
Cd18 O21 2.333 . S
Cd18 O22 2.352 . S
Cd18 O26 2.277 1_455 S
Cd18 O27 2.356 . S
C19 O24 1.209 . S
C19 O26 1.226 . S
O20 Cd16 2.273 . S
O20 Cd18 2.411 . S
O20 C23 1.320 . S
O21 Cd18 2.333 . S
O21 C23 1.214 . S
O22 Cd18 2.352 . S
O22 C25 1.258 . S
C23 O20 1.320 . S
C23 O21 1.214 . S
O24 Cd16 2.277 1_655 S
O24 C19 1.209 . S
C25 O22 1.258 . S
C25 O27 1.282 . S
O26 Cd18 2.277 1_655 S
O26 C19 1.226 . S
O27 Cd18 2.356 . S
O27 C25 1.282 . S
C28 O29 1.306 . S
C28 O31 1.160 . S
O29 C28 1.306 . S
O29 Cd30 2.228 . S
Cd30 O29 2.228 . S
Cd30 O34 2.273 . S
Cd30 O38 2.277 . S
O31 C28 1.160 . S
O31 Cd32 2.203 . S
Cd32 O31 2.203 . S
Cd32 O34 2.411 . S
Cd32 O35 2.333 . S
Cd32 O36 2.352 . S
Cd32 O40 2.277 . S
Cd32 O41 2.356 . S
C33 O38 1.209 . S
C33 O40 1.226 . S
O34 Cd30 2.273 . S
O34 Cd32 2.411 . S
O34 C37 1.320 . S
O35 Cd32 2.333 . S
O35 C37 1.214 . S
O36 Cd32 2.352 . S
O36 C39 1.258 . S
C37 O34 1.320 . S
C37 O35 1.214 . S
O38 Cd30 2.277 . S
O38 C33 1.209 . S
C39 O36 1.258 . S
C39 O41 1.282 . S
O40 Cd32 2.277 . S
O40 C33 1.226 . S
O41 Cd32 2.356 . S
O41 C39 1.282 . S
C42 O43 1.306 . S
C42 O45 1.160 . S
O43 C42 1.306 . S
O43 Cd44 2.228 . S
Cd44 O43 2.228 . S
Cd44 O48 2.273 . S
Cd44 O52 2.277 . S
O45 C42 1.160 . S
O45 Cd46 2.203 . S
Cd46 O45 2.203 . S
Cd46 O48 2.411 . S
Cd46 O49 2.333 . S
Cd46 O50 2.352 . S
Cd46 O54 2.277 . S
Cd46 O55 2.356 . S
C47 O52 1.209 . S
C47 O54 1.226 . S
O48 Cd44 2.273 . S
O48 Cd46 2.411 . S
O48 C51 1.320 . S
O49 Cd46 2.333 . S
O49 C51 1.214 . S
O50 Cd46 2.352 . S
O50 C53 1.258 . S
C51 O48 1.320 . S
C51 O49 1.214 . S
O52 Cd44 2.277 . S
O52 C47 1.209 . S
C53 O50 1.258 . S
C53 O55 1.282 . S
O54 Cd46 2.277 . S
O54 C47 1.226 . S
O55 Cd46 2.356 . S
O55 C53 1.282 . S
C56 O57 1.306 . S
C56 O59 1.160 . S
O57 C56 1.306 . S
O57 Cd58 2.228 . S
Cd58 O57 2.228 . S
Cd58 O62 2.273 . S
Cd58 O66 2.277 . S
O59 C56 1.160 . S
O59 Cd60 2.203 . S
Cd60 O59 2.203 . S
Cd60 O62 2.411 . S
Cd60 O63 2.333 . S
Cd60 O64 2.352 . S
Cd60 O68 2.277 . S
Cd60 O69 2.356 . S
C61 O66 1.209 . S
C61 O68 1.226 . S
O62 Cd58 2.273 . S
O62 Cd60 2.411 . S
O62 C65 1.320 . S
O63 Cd60 2.333 . S
O63 C65 1.214 . S
O64 Cd60 2.352 . S
O64 C67 1.258 . S
C65 O62 1.320 . S
C65 O63 1.214 . S
O66 Cd58 2.277 . S
O66 C61 1.209 . S
C67 O64 1.258 . S
C67 O69 1.282 . S
O68 Cd60 2.277 . S
O68 C61 1.226 . S
O69 Cd60 2.356 . S
O69 C67 1.282 . S
C70 O71 1.306 . S
C70 O73 1.160 . S
O71 C70 1.306 . S
O71 Cd72 2.228 . S
Cd72 O71 2.228 . S
Cd72 O76 2.273 . S
Cd72 O80 2.277 . S
O73 C70 1.160 . S
O73 Cd74 2.203 . S
Cd74 O73 2.203 . S
Cd74 O76 2.411 . S
Cd74 O77 2.333 . S
Cd74 O78 2.352 . S
Cd74 O82 2.277 . S
Cd74 O83 2.356 . S
C75 O80 1.209 . S
C75 O82 1.226 . S
O76 Cd72 2.273 . S
O76 Cd74 2.411 . S
O76 C79 1.320 . S
O77 Cd74 2.333 . S
O77 C79 1.214 . S
O78 Cd74 2.352 . S
O78 C81 1.258 . S
C79 O76 1.320 . S
C79 O77 1.214 . S
O80 Cd72 2.277 . S
O80 C75 1.209 . S
C81 O78 1.258 . S
C81 O83 1.282 . S
O82 Cd74 2.277 . S
O82 C75 1.226 . S
O83 Cd74 2.356 . S
O83 C81 1.282 . S
C84 O85 1.306 . S
C84 O87 1.160 . S
O85 C84 1.306 . S
O85 Cd86 2.228 . S
Cd86 O85 2.228 . S
Cd86 O90 2.273 . S
Cd86 O94 2.277 . S
O87 C84 1.160 . S
O87 Cd88 2.203 . S
Cd88 O87 2.203 . S
Cd88 O90 2.411 . S
Cd88 O91 2.333 . S
Cd88 O92 2.352 . S
Cd88 O96 2.277 . S
Cd88 O97 2.356 . S
C89 O94 1.209 . S
C89 O96 1.226 . S
O90 Cd86 2.273 . S
O90 Cd88 2.411 . S
O90 C93 1.320 . S
O91 Cd88 2.333 . S
O91 C93 1.214 . S
O92 Cd88 2.352 . S
O92 C95 1.258 . S
C93 O90 1.320 . S
C93 O91 1.214 . S
O94 Cd86 2.277 . S
O94 C89 1.209 . S
C95 O92 1.258 . S
C95 O97 1.282 . S
O96 Cd88 2.277 . S
O96 C89 1.226 . S
O97 Cd88 2.356 . S
O97 C95 1.282 . S
C98 O99 1.306 . S
C98 O101 1.160 . S
O99 C98 1.306 . S
O99 Cd100 2.228 1_655 S
Cd100 O99 2.228 1_455 S
Cd100 O104 2.273 . S
Cd100 O108 2.277 . S
O101 C98 1.160 . S
O101 Cd102 2.203 1_655 S
Cd102 O101 2.203 1_455 S
Cd102 O104 2.411 . S
Cd102 O105 2.333 . S
Cd102 O106 2.352 . S
Cd102 O110 2.277 . S
Cd102 O111 2.356 . S
C103 O108 1.209 . S
C103 O110 1.226 . S
O104 Cd100 2.273 . S
O104 Cd102 2.411 . S
O104 C107 1.320 . S
O105 Cd102 2.333 . S
O105 C107 1.214 . S
O106 Cd102 2.352 . S
O106 C109 1.258 . S
C107 O104 1.320 . S
C107 O105 1.214 . S
O108 Cd100 2.277 . S
O108 C103 1.209 . S
C109 O106 1.258 . S
C109 O111 1.282 . S
O110 Cd102 2.277 . S
O110 C103 1.226 . S
O111 Cd102 2.356 . S
O111 C109 1.282 . S
C112 O113 1.306 . S
C112 O115 1.160 . S
O113 C112 1.306 . S
O113 Cd114 2.228 . S
Cd114 O113 2.228 . S
Cd114 O118 2.273 . S
Cd114 O122 2.277 1_545 S
O115 C112 1.160 . S
O115 Cd116 2.203 . S
Cd116 O115 2.203 . S
Cd116 O118 2.411 . S
Cd116 O119 2.333 . S
Cd116 O120 2.352 . S
Cd116 O124 2.277 . S
Cd116 O125 2.356 . S
C117 O122 1.209 . S
C117 O124 1.226 1_565 S
O118 Cd114 2.273 . S
O118 Cd116 2.411 . S
O118 C121 1.320 . S
O119 Cd116 2.333 . S
O119 C121 1.214 . S
O120 Cd116 2.352 . S
O120 C123 1.258 . S
C121 O118 1.320 . S
C121 O119 1.214 . S
O122 Cd114 2.277 1_565 S
O122 C117 1.209 . S
C123 O120 1.258 . S
C123 O125 1.282 . S
O124 Cd116 2.277 . S
O124 C117 1.226 1_545 S
O125 Cd116 2.356 . S
O125 C123 1.282 . S
C126 O127 1.306 . S
C126 O129 1.160 . S
O127 C126 1.306 . S
O127 Cd128 2.228 . S
Cd128 O127 2.228 . S
Cd128 O132 2.273 . S
Cd128 O136 2.277 . S
O129 C126 1.160 . S
O129 Cd130 2.203 . S
Cd130 O129 2.203 . S
Cd130 O132 2.411 . S
Cd130 O133 2.333 . S
Cd130 O134 2.352 . S
Cd130 O138 2.277 . S
Cd130 O139 2.356 . S
C131 O136 1.209 . S
C131 O138 1.226 . S
O132 Cd128 2.273 . S
O132 Cd130 2.411 . S
O132 C135 1.320 . S
O133 Cd130 2.333 . S
O133 C135 1.214 . S
O134 Cd130 2.352 . S
O134 C137 1.258 . S
C135 O132 1.320 . S
C135 O133 1.214 . S
O136 Cd128 2.277 . S
O136 C131 1.209 . S
C137 O134 1.258 . S
C137 O139 1.282 . S
O138 Cd130 2.277 . S
O138 C131 1.226 . S
O139 Cd130 2.356 . S
O139 C137 1.282 . S
C140 O141 1.306 . S
C140 O143 1.180 . S
O141 C140 1.306 . S
O141 Cd142 2.228 . S
Cd142 O141 2.228 . S
Cd142 O146 2.273 1_545 S
Cd142 O150 2.277 . S
O143 C140 1.180 . S
O143 Cd144 2.206 1_545 S
Cd144 O143 2.206 1_565 S
Cd144 O146 2.411 . S
Cd144 O147 2.333 . S
Cd144 O148 2.352 . S
Cd144 O152 2.277 1_565 S
Cd144 O153 2.356 . S
C145 O150 1.209 . S
C145 O152 1.226 . S
O146 Cd142 2.273 1_565 S
O146 Cd144 2.411 . S
O146 C149 1.320 . S
O147 Cd144 2.333 . S
O147 C149 1.214 . S
O148 Cd144 2.352 . S
O148 C151 1.258 . S
C149 O146 1.320 . S
C149 O147 1.214 . S
O150 Cd142 2.277 . S
O150 C145 1.209 . S
C151 O148 1.258 . S
C151 O153 1.282 . S
O152 Cd144 2.277 1_545 S
O152 C145 1.226 . S
O153 Cd144 2.356 . S
O153 C151 1.282 . S
C154 O155 1.306 . S
C154 O157 1.160 . S
O155 C154 1.306 . S
O155 Cd156 2.228 1_554 S
Cd156 O155 2.228 1_556 S
Cd156 O160 2.273 1_556 S
Cd156 O164 2.277 . S
O157 C154 1.160 . S
O157 Cd158 2.203 . S
Cd158 O157 2.203 . S
Cd158 O160 2.411 . S
Cd158 O161 2.333 . S
Cd158 O162 2.352 . S
Cd158 O166 2.277 1_554 S
Cd158 O167 2.356 . S
C159 O164 1.209 . S
C159 O166 1.226 . S
O160 Cd156 2.273 1_554 S
O160 Cd158 2.411 . S
O160 C163 1.320 . S
O161 Cd158 2.333 . S
O161 C163 1.214 . S
O162 Cd158 2.352 . S
O162 C165 1.258 . S
C163 O160 1.320 . S
C163 O161 1.214 . S
O164 Cd156 2.277 . S
O164 C159 1.209 . S
C165 O162 1.258 . S
C165 O167 1.282 . S
O166 Cd158 2.277 1_556 S
O166 C159 1.226 . S
O167 Cd158 2.356 . S
O167 C165 1.282 . S
C168 O169 1.306 . S
C168 O171 1.160 . S
O169 C168 1.306 . S
O169 Cd170 2.228 . S
Cd170 O169 2.228 . S
Cd170 O174 2.273 . S
Cd170 O178 2.277 . S
O171 C168 1.160 . S
O171 Cd172 2.203 . S
Cd172 O171 2.203 . S
Cd172 O174 2.411 . S
Cd172 O175 2.333 . S
Cd172 O176 2.352 . S
Cd172 O180 2.277 . S
Cd172 O181 2.356 . S
C173 O178 1.210 . S
C173 O180 1.270 . S
O174 Cd170 2.273 . S
O174 Cd172 2.411 . S
O174 C177 1.320 . S
O175 Cd172 2.333 . S
O175 C177 1.214 . S
O176 Cd172 2.352 . S
O176 C179 1.258 . S
C177 O174 1.320 . S
C177 O175 1.214 . S
O178 Cd170 2.277 . S
O178 C173 1.210 . S
C179 O176 1.258 . S
C179 O181 1.282 . S
O180 Cd172 2.277 . S
O180 C173 1.270 . S
O181 Cd172 2.356 . S
O181 C179 1.282 . S
C182 O183 1.306 . S
C182 O185 1.160 . S
O183 C182 1.306 . S
O183 Cd184 2.228 . S
Cd184 O183 2.228 . S
Cd184 O188 2.273 . S
Cd184 O192 2.277 . S
O185 C182 1.160 . S
O185 Cd186 2.203 . S
Cd186 O185 2.203 . S
Cd186 O188 2.411 . S
Cd186 O189 2.333 . S
Cd186 O190 2.352 1_554 S
Cd186 O194 2.277 . S
Cd186 O195 2.356 . S
C187 O192 1.209 . S
C187 O194 1.226 . S
O188 Cd184 2.273 . S
O188 Cd186 2.411 . S
O188 C191 1.320 . S
O189 Cd186 2.333 . S
O189 C191 1.214 . S
O190 Cd186 2.352 1_556 S
O190 C193 1.258 . S
C191 O188 1.320 . S
C191 O189 1.214 . S
O192 Cd184 2.277 . S
O192 C187 1.209 . S
C193 O190 1.258 . S
C193 O195 1.282 1_556 S
O194 Cd186 2.277 . S
O194 C187 1.226 . S
O195 Cd186 2.356 . S
O195 C193 1.282 1_554 S
C196 O197 1.306 . S
C196 O199 1.160 . S
O197 C196 1.306 . S
O197 Cd198 2.228 . S
Cd198 O197 2.228 . S
Cd198 O202 2.273 . S
Cd198 O206 2.277 . S
O199 C196 1.160 . S
O199 Cd200 2.203 . S
Cd200 O199 2.203 . S
Cd200 O202 2.411 . S
Cd200 O203 2.333 . S
Cd200 O204 2.352 . S
Cd200 O208 2.277 . S
Cd200 O209 2.356 . S
C201 O206 1.209 . S
C201 O208 1.226 . S
O202 Cd198 2.273 . S
O202 Cd200 2.411 . S
O202 C205 1.320 . S
O203 Cd200 2.333 . S
O203 C205 1.214 . S
O204 Cd200 2.352 . S
O204 C207 1.258 . S
C205 O202 1.320 . S
C205 O203 1.214 . S
O206 Cd198 2.277 . S
O206 C201 1.209 . S
C207 O204 1.258 . S
C207 O209 1.282 . S
O208 Cd200 2.277 . S
O208 C201 1.226 . S
O209 Cd200 2.356 . S
O209 C207 1.282 . S
C210 O211 1.306 . S
C210 O213 1.160 . S
O211 C210 1.306 . S
O211 Cd212 2.228 . S
Cd212 O211 2.228 . S
Cd212 O216 2.273 . S
Cd212 O220 2.277 . S
O213 C210 1.160 . S
O213 Cd214 2.203 . S
Cd214 O213 2.203 . S
Cd214 O216 2.411 . S
Cd214 O217 2.333 . S
Cd214 O218 2.352 . S
Cd214 O222 2.277 . S
Cd214 O223 2.356 . S
C215 O220 1.209 . S
C215 O222 1.226 . S
O216 Cd212 2.273 . S
O216 Cd214 2.411 . S
O216 C219 1.320 . S
O217 Cd214 2.333 . S
O217 C219 1.214 . S
O218 Cd214 2.352 . S
O218 C221 1.258 . S
C219 O216 1.320 . S
C219 O217 1.214 . S
O220 Cd212 2.277 . S
O220 C215 1.209 . S
C221 O218 1.258 . S
C221 O223 1.282 . S
O222 Cd214 2.277 . S
O222 C215 1.226 . S
O223 Cd214 2.356 . S
O223 C221 1.282 . S
C224 O225 1.306 . S
C224 O227 1.160 . S
O225 C224 1.306 . S
O225 Cd226 2.228 . S
Cd226 O225 2.228 . S
Cd226 O230 2.273 . S
Cd226 O234 2.277 . S
O227 C224 1.160 . S
O227 Cd228 2.203 . S
Cd228 O227 2.203 . S
Cd228 O230 2.411 . S
Cd228 O231 2.333 . S
Cd228 O232 2.352 . S
Cd228 O236 2.277 . S
Cd228 O237 2.356 . S
C229 O234 1.209 . S
C229 O236 1.226 . S
O230 Cd226 2.273 . S
O230 Cd228 2.411 . S
O230 C233 1.320 . S
O231 Cd228 2.333 . S
O231 C233 1.214 . S
O232 Cd228 2.352 . S
O232 C235 1.258 . S
C233 O230 1.320 . S
C233 O231 1.214 . S
O234 Cd226 2.277 . S
O234 C229 1.209 . S
C235 O232 1.258 . S
C235 O237 1.282 . S
O236 Cd228 2.277 . S
O236 C229 1.226 . S
O237 Cd228 2.356 . S
O237 C235 1.282 . S
C238 O239 1.306 . S
C238 O241 1.160 . S
O239 C238 1.306 . S
O239 Cd240 2.228 . S
Cd240 O239 2.228 . S
Cd240 O244 2.273 . S
Cd240 O248 2.277 . S
O241 C238 1.160 . S
O241 Cd242 2.203 . S
Cd242 O241 2.203 . S
Cd242 O244 2.411 . S
Cd242 O245 2.333 . S
Cd242 O246 2.352 . S
Cd242 O250 2.277 . S
Cd242 O251 2.356 . S
C243 O248 1.209 . S
C243 O250 1.226 . S
O244 Cd240 2.273 . S
O244 Cd242 2.411 . S
O244 C247 1.320 . S
O245 Cd242 2.333 . S
O245 C247 1.214 . S
O246 Cd242 2.352 . S
O246 C249 1.258 . S
C247 O244 1.320 . S
C247 O245 1.214 . S
O248 Cd240 2.277 . S
O248 C243 1.209 . S
C249 O246 1.258 . S
C249 O251 1.282 . S
O250 Cd242 2.277 . S
O250 C243 1.226 . S
O251 Cd242 2.356 . S
O251 C249 1.282 . S
C252 O253 1.306 . S
C252 O255 1.160 . S
O253 C252 1.306 . S
O253 Cd254 2.228 . S
Cd254 O253 2.228 . S
Cd254 O258 2.273 . S
Cd254 O262 2.277 . S
O255 C252 1.160 . S
O255 Cd256 2.203 . S
Cd256 O255 2.203 . S
Cd256 O258 2.411 . S
Cd256 O259 2.333 . S
Cd256 O260 2.352 . S
Cd256 O264 2.277 . S
Cd256 O265 2.356 . S
C257 O262 1.209 . S
C257 O264 1.226 . S
O258 Cd254 2.273 . S
O258 Cd256 2.411 . S
O258 C261 1.320 . S
O259 Cd256 2.333 . S
O259 C261 1.214 . S
O260 Cd256 2.352 . S
O260 C263 1.258 . S
C261 O258 1.320 . S
C261 O259 1.214 . S
O262 Cd254 2.277 . S
O262 C257 1.209 . S
C263 O260 1.258 . S
C263 O265 1.282 . S
O264 Cd256 2.277 . S
O264 C257 1.226 . S
O265 Cd256 2.356 . S
O265 C263 1.282 . S
C266 O267 1.306 . S
C266 O269 1.160 . S
O267 C266 1.306 . S
O267 Cd268 2.228 . S
Cd268 O267 2.228 . S
Cd268 O272 2.273 . S
Cd268 O276 2.277 . S
O269 C266 1.160 . S
O269 Cd270 2.203 . S
Cd270 O269 2.203 . S
Cd270 O272 2.411 . S
Cd270 O273 2.333 . S
Cd270 O274 2.352 . S
Cd270 O278 2.277 . S
Cd270 O279 2.356 . S
C271 O276 1.209 . S
C271 O278 1.226 . S
O272 Cd268 2.273 . S
O272 Cd270 2.411 . S
O272 C275 1.320 . S
O273 Cd270 2.333 . S
O273 C275 1.214 . S
O274 Cd270 2.352 . S
O274 C277 1.258 . S
C275 O272 1.320 . S
C275 O273 1.214 . S
O276 Cd268 2.277 . S
O276 C271 1.209 . S
C277 O274 1.258 . S
C277 O279 1.282 . S
O278 Cd270 2.277 . S
O278 C271 1.226 . S
O279 Cd270 2.356 . S
O279 C277 1.282 . S
C280 O281 1.306 . S
C280 O283 1.160 1_554 S
O281 C280 1.306 . S
O281 Cd282 2.228 . S
Cd282 O281 2.228 . S
Cd282 O286 2.273 1_554 S
Cd282 O290 2.277 . S
O283 C280 1.160 1_556 S
O283 Cd284 2.203 . S
Cd284 O283 2.203 . S
Cd284 O286 2.411 . S
Cd284 O287 2.333 . S
Cd284 O288 2.352 . S
Cd284 O292 2.277 1_556 S
Cd284 O293 2.356 . S
C285 O290 1.209 . S
C285 O292 1.226 . S
O286 Cd282 2.273 1_556 S
O286 Cd284 2.411 . S
O286 C289 1.320 . S
O287 Cd284 2.333 . S
O287 C289 1.214 . S
O288 Cd284 2.352 . S
O288 C291 1.258 . S
C289 O286 1.320 . S
C289 O287 1.214 . S
O290 Cd282 2.277 . S
O290 C285 1.209 . S
C291 O288 1.258 . S
C291 O293 1.282 . S
O292 Cd284 2.277 1_554 S
O292 C285 1.226 . S
O293 Cd284 2.356 . S
O293 C291 1.282 . S
C294 O295 1.306 . S
C294 O297 1.160 . S
O295 C294 1.306 . S
O295 Cd296 2.228 . S
Cd296 O295 2.228 . S
Cd296 O300 2.273 . S
Cd296 O304 2.277 . S
O297 C294 1.160 . S
O297 Cd298 2.203 . S
Cd298 O297 2.203 . S
Cd298 O300 2.411 . S
Cd298 O301 2.333 . S
Cd298 O302 2.352 . S
Cd298 O306 2.277 . S
Cd298 O307 2.356 . S
C299 O304 1.209 . S
C299 O306 1.226 . S
O300 Cd296 2.273 . S
O300 Cd298 2.411 . S
O300 C303 1.320 . S
O301 Cd298 2.333 . S
O301 C303 1.214 . S
O302 Cd298 2.352 . S
O302 C305 1.258 . S
C303 O300 1.320 . S
C303 O301 1.214 . S
O304 Cd296 2.277 . S
O304 C299 1.209 . S
C305 O302 1.258 . S
C305 O307 1.282 . S
O306 Cd298 2.277 . S
O306 C299 1.226 . S
O307 Cd298 2.356 . S
O307 C305 1.282 . S
C308 O309 1.306 . S
C308 O311 1.160 . S
O309 C308 1.306 . S
O309 Cd310 2.228 . S
Cd310 O309 2.228 . S
Cd310 O314 2.273 . S
Cd310 O318 2.277 . S
O311 C308 1.160 . S
O311 Cd312 2.203 . S
Cd312 O311 2.203 . S
Cd312 O314 2.411 . S
Cd312 O315 2.333 . S
Cd312 O316 2.352 . S
Cd312 O320 2.277 . S
Cd312 O321 2.356 . S
C313 O318 1.209 . S
C313 O320 1.226 . S
O314 Cd310 2.273 . S
O314 Cd312 2.411 . S
O314 C317 1.320 . S
O315 Cd312 2.333 . S
O315 C317 1.214 . S
O316 Cd312 2.352 . S
O316 C319 1.258 . S
C317 O314 1.320 . S
C317 O315 1.214 . S
O318 Cd310 2.277 . S
O318 C313 1.209 . S
C319 O316 1.258 . S
C319 O321 1.282 . S
O320 Cd312 2.277 . S
O320 C313 1.226 . S
O321 Cd312 2.356 . S
O321 C319 1.282 . S
C322 O323 1.306 . S
C322 O325 1.160 . S
O323 C322 1.306 . S
O323 Cd324 2.228 . S
Cd324 O323 2.228 . S
Cd324 O328 2.273 . S
Cd324 O332 2.277 . S
O325 C322 1.160 . S
O325 Cd326 2.203 . S
Cd326 O325 2.203 . S
Cd326 O328 2.411 . S
Cd326 O329 2.333 . S
Cd326 O330 2.352 . S
Cd326 O334 2.277 . S
Cd326 O335 2.356 . S
C327 O332 1.209 . S
C327 O334 1.226 . S
O328 Cd324 2.273 . S
O328 Cd326 2.411 . S
O328 C331 1.320 . S
O329 Cd326 2.333 . S
O329 C331 1.214 . S
O330 Cd326 2.352 . S
O330 C333 1.258 . S
C331 O328 1.320 . S
C331 O329 1.214 . S
O332 Cd324 2.277 . S
O332 C327 1.209 . S
C333 O330 1.258 . S
C333 O335 1.282 . S
O334 Cd326 2.277 . S
O334 C327 1.226 . S
O335 Cd326 2.356 . S
O335 C333 1.282 . S
Eu336 N367 2.657 1_545 S
Eu336 N374 2.609 1_544 S
Eu336 O380 2.558 1_454 S
Eu336 O381 2.612 . S
Eu336 O383 2.339 . S
Eu336 O384 2.563 . S
Eu336 O385 2.419 1_455 S
Eu336 O387 2.380 . S
Eu336 O388 2.432 1_554 S
Eu336 C400 2.848 1_454 S
C337 C340 1.429 . S
C337 C341 1.411 . S
C337 N344 1.377 . S
C338 C340 1.420 . S
C338 C342 1.423 . S
C338 C350 1.392 . S
C339 C341 1.420 . S
C339 C342 1.351 . S
C339 H362 0.931 . S
C340 C337 1.429 . S
C340 C338 1.420 . S
C340 N348 1.362 . S
C341 C337 1.411 . S
C341 C339 1.420 . S
C341 C346 1.395 . S
C342 C338 1.423 . S
C342 C339 1.351 . S
C342 H354 0.930 . S
C343 C345 1.400 . S
C343 C346 1.386 . S
C343 H355 0.930 . S
N344 C337 1.377 . S
N344 C345 1.321 . S
N344 Eu347 2.609 . S
C345 C343 1.400 . S
C345 N344 1.321 . S
C345 H352 0.930 . S
C346 C341 1.395 . S
C346 C343 1.386 . S
C346 H365 0.930 . S
Eu347 N344 2.609 . S
Eu347 N348 2.657 . S
Eu347 O381 2.380 . S
Eu347 O382 2.432 . S
Eu347 O386 2.558 . S
Eu347 O387 2.612 . S
Eu347 O389 2.327 1_554 S
Eu347 O390 2.563 . S
Eu347 O391 2.419 . S
Eu347 C411 2.848 . S
N348 C340 1.362 . S
N348 Eu347 2.657 . S
N348 C349 1.344 . S
C349 N348 1.344 . S
C349 C351 1.408 1_554 S
C349 H356 0.924 1_554 S
C350 C338 1.392 . S
C350 C351 1.367 1_554 S
C350 H358 0.930 . S
C351 C349 1.408 1_556 S
C351 C350 1.367 1_556 S
C351 H353 0.930 . S
H352 C345 0.930 . S
H353 C351 0.930 . S
H354 C342 0.930 . S
H355 C343 0.930 . S
H356 C349 0.924 1_556 S
H357 C371 0.930 . S
H358 C350 0.930 . S
H359 C377 0.930 1_545 S
H360 C368 0.929 1_545 S
H361 C375 0.930 . S
H362 C339 0.931 . S
H363 C369 0.930 . S
H364 C402 0.930 . S
H365 C346 0.930 . S
H366 C401 0.931 . S
N367 Eu336 2.657 1_565 S
N367 C368 1.334 . S
N367 C372 1.362 . S
C368 H360 0.929 1_565 S
C368 N367 1.334 . S
C368 C371 1.413 . S
C369 H363 0.930 . S
C369 C370 1.392 . S
C369 C371 1.367 1_655 S
C370 C369 1.392 . S
C370 C372 1.420 1_655 S
C370 C402 1.423 . S
C371 H357 0.930 . S
C371 C368 1.413 . S
C371 C369 1.367 1_455 S
C372 N367 1.362 . S
C372 C370 1.420 1_455 S
C372 C376 1.429 1_554 S
H373 C378 0.930 . S
N374 Eu336 2.609 1_566 S
N374 C376 1.377 . S
N374 C377 1.321 . S
C375 H361 0.930 . S
C375 C377 1.400 . S
C375 C378 1.386 1_455 S
C376 C372 1.429 1_556 S
C376 N374 1.377 . S
C376 C379 1.411 1_455 S
C377 H359 0.930 1_565 S
C377 N374 1.321 . S
C377 C375 1.400 . S
C378 H373 0.930 . S
C378 C375 1.386 1_655 S
C378 C379 1.395 . S
C379 C376 1.411 1_655 S
C379 C378 1.395 . S
C379 C401 1.420 . S
O380 Eu336 2.558 1_656 S
O380 C400 1.257 . S
O381 Eu336 2.612 . S
O381 Eu347 2.380 . S
O381 C392 1.276 . S
O382 Eu347 2.432 . S
O382 C399 1.264 . S
O383 Eu336 2.339 . S
O383 C399 1.254 . S
O384 Eu336 2.563 . S
O384 C392 1.235 . S
O385 Eu336 2.419 1_655 S
O385 C400 1.249 1_554 S
O386 Eu347 2.558 . S
O386 C411 1.257 . S
O387 Eu336 2.380 . S
O387 Eu347 2.612 . S
O387 C403 1.276 . S
O388 Eu336 2.432 1_556 S
O388 C410 1.264 . S
O389 Eu347 2.327 1_556 S
O389 C410 1.261 . S
O390 Eu347 2.563 . S
O390 C403 1.235 . S
O391 Eu347 2.419 . S
O391 C411 1.249 . S
C392 O381 1.276 . S
C392 O384 1.235 . S
C393 C395 1.393 1_556 S
C393 C397 1.395 . S
C393 C400 1.492 . S
C394 C395 1.392 . S
C394 C396 1.386 1_554 S
C395 C393 1.393 1_554 S
C395 C394 1.392 . S
C395 H412 0.930 . S
C396 C394 1.386 1_556 S
C396 C398 1.395 . S
C396 H413 0.930 . S
C397 C393 1.395 . S
C397 C398 1.379 . S
C397 H414 0.930 . S
C398 C396 1.395 . S
C398 C397 1.379 . S
C398 H415 0.930 . S
C399 O382 1.264 . S
C399 O383 1.254 . S
C400 Eu336 2.848 1_656 S
C400 O380 1.257 . S
C400 O385 1.249 1_556 S
C400 C393 1.492 . S
C401 H366 0.931 . S
C401 C379 1.420 . S
C401 C402 1.351 1_556 S
C402 H364 0.930 . S
C402 C370 1.423 . S
C402 C401 1.351 1_554 S
C403 O387 1.276 . S
C403 O390 1.235 . S
C404 C405 1.393 . S
C404 C408 1.395 . S
C404 C411 1.492 . S
C405 C404 1.393 . S
C405 C406 1.392 . S
C405 H416 0.930 . S
C406 C405 1.392 . S
C406 C407 1.386 . S
C407 C406 1.386 . S
C407 C409 1.395 . S
C407 H417 0.930 . S
C408 C404 1.395 . S
C408 C409 1.379 . S
C408 H418 0.930 . S
C409 C407 1.395 . S
C409 C408 1.379 . S
C409 H419 0.930 . S
C410 O388 1.264 . S
C410 O389 1.261 . S
C411 Eu347 2.848 . S
C411 O386 1.257 . S
C411 O391 1.249 . S
C411 C404 1.492 . S
H412 C395 0.930 . S
H413 C396 0.930 . S
H414 C397 0.930 . S
H415 C398 0.930 . S
H416 C405 0.930 . S
H417 C407 0.930 . S
H418 C408 0.930 . S
H419 C409 0.930 . S
Eu420 N451 2.657 . S
Eu420 N458 2.609 . S
Eu420 O464 2.558 . S
Eu420 O465 2.612 . S
Eu420 O467 2.339 . S
Eu420 O468 2.563 . S
Eu420 O469 2.419 . S
Eu420 O471 2.380 . S
Eu420 O472 2.432 . S
Eu420 C484 2.848 . S
C421 C424 1.429 . S
C421 C425 1.411 . S
C421 N428 1.377 . S
C422 C424 1.420 . S
C422 C426 1.423 . S
C422 C434 1.392 . S
C423 C425 1.420 . S
C423 C426 1.351 . S
C423 H446 0.931 . S
C424 C421 1.429 . S
C424 C422 1.420 . S
C424 N432 1.362 . S
C425 C421 1.411 . S
C425 C423 1.420 . S
C425 C430 1.395 . S
C426 C422 1.423 . S
C426 C423 1.351 . S
C426 H438 0.930 . S
C427 C429 1.400 . S
C427 C430 1.386 . S
C427 H439 0.930 . S
N428 C421 1.377 . S
N428 C429 1.321 . S
N428 Eu431 2.609 . S
C429 C427 1.400 . S
C429 N428 1.321 . S
C429 H436 0.930 . S
C430 C425 1.395 . S
C430 C427 1.386 . S
C430 H449 0.930 . S
Eu431 N428 2.609 . S
Eu431 N432 2.657 . S
Eu431 O465 2.380 . S
Eu431 O466 2.432 . S
Eu431 O470 2.558 . S
Eu431 O471 2.612 . S
Eu431 O473 2.339 . S
Eu431 O474 2.563 . S
Eu431 O475 2.419 . S
Eu431 C495 2.848 . S
N432 C424 1.362 . S
N432 Eu431 2.657 . S
N432 C433 1.334 . S
C433 N432 1.334 . S
C433 C435 1.413 . S
C433 H440 0.929 . S
C434 C422 1.392 . S
C434 C435 1.367 . S
C434 H442 0.930 . S
C435 C433 1.413 . S
C435 C434 1.367 . S
C435 H437 0.930 . S
H436 C429 0.930 . S
H437 C435 0.930 . S
H438 C426 0.930 . S
H439 C427 0.930 . S
H440 C433 0.929 . S
H441 C455 0.930 . S
H442 C434 0.930 . S
H443 C461 0.930 . S
H444 C452 0.929 . S
H445 C459 0.930 . S
H446 C423 0.931 . S
H447 C453 0.930 . S
H448 C486 0.930 . S
H449 C430 0.930 . S
H450 C485 0.931 . S
N451 Eu420 2.657 . S
N451 C452 1.334 . S
N451 C456 1.362 . S
C452 H444 0.929 . S
C452 N451 1.334 . S
C452 C455 1.413 . S
C453 H447 0.930 . S
C453 C454 1.392 . S
C453 C455 1.367 . S
C454 C453 1.392 . S
C454 C456 1.420 . S
C454 C486 1.423 . S
C455 H441 0.930 . S
C455 C452 1.413 . S
C455 C453 1.367 . S
C456 N451 1.362 . S
C456 C454 1.420 . S
C456 C460 1.429 . S
H457 C462 0.930 . S
N458 Eu420 2.609 . S
N458 C460 1.377 . S
N458 C461 1.321 . S
C459 H445 0.930 . S
C459 C461 1.400 . S
C459 C462 1.386 . S
C460 C456 1.429 . S
C460 N458 1.377 . S
C460 C463 1.411 . S
C461 H443 0.930 . S
C461 N458 1.321 . S
C461 C459 1.400 . S
C462 H457 0.930 . S
C462 C459 1.386 . S
C462 C463 1.395 . S
C463 C460 1.411 . S
C463 C462 1.395 . S
C463 C485 1.420 . S
O464 Eu420 2.558 . S
O464 C484 1.257 . S
O465 Eu420 2.612 . S
O465 Eu431 2.380 . S
O465 C476 1.276 . S
O466 Eu431 2.432 . S
O466 C483 1.264 . S
O467 Eu420 2.339 . S
O467 C483 1.254 . S
O468 Eu420 2.563 . S
O468 C476 1.235 . S
O469 Eu420 2.419 . S
O469 C484 1.249 . S
O470 Eu431 2.558 . S
O470 C495 1.257 . S
O471 Eu420 2.380 . S
O471 Eu431 2.612 . S
O471 C487 1.276 . S
O472 Eu420 2.432 . S
O472 C494 1.264 . S
O473 Eu431 2.339 . S
O473 C494 1.254 . S
O474 Eu431 2.563 . S
O474 C487 1.235 . S
O475 Eu431 2.419 . S
O475 C495 1.249 . S
C476 O465 1.276 . S
C476 O468 1.235 . S
C477 C479 1.393 . S
C477 C481 1.395 . S
C477 C484 1.492 . S
C478 C479 1.392 . S
C478 C480 1.386 . S
C479 C477 1.393 . S
C479 C478 1.392 . S
C479 H496 0.930 . S
C480 C478 1.386 . S
C480 C482 1.395 . S
C480 H497 0.930 . S
C481 C477 1.395 . S
C481 C482 1.379 . S
C481 H498 0.930 . S
C482 C480 1.395 . S
C482 C481 1.379 . S
C482 H499 0.930 . S
C483 O466 1.264 . S
C483 O467 1.254 . S
C484 Eu420 2.848 . S
C484 O464 1.257 . S
C484 O469 1.249 . S
C484 C477 1.492 . S
C485 H450 0.931 . S
C485 C463 1.420 . S
C485 C486 1.351 . S
C486 H448 0.930 . S
C486 C454 1.423 . S
C486 C485 1.351 . S
C487 O471 1.276 . S
C487 O474 1.235 . S
C488 C489 1.393 . S
C488 C492 1.395 . S
C488 C495 1.492 . S
C489 C488 1.393 . S
C489 C490 1.392 . S
C489 H500 0.930 . S
C490 C489 1.392 . S
C490 C491 1.386 . S
C491 C490 1.386 . S
C491 C493 1.395 . S
C491 H501 0.930 . S
C492 C488 1.395 . S
C492 C493 1.379 . S
C492 H502 0.930 . S
C493 C491 1.395 . S
C493 C492 1.379 . S
C493 H503 0.930 . S
C494 O472 1.264 . S
C494 O473 1.254 . S
C495 Eu431 2.848 . S
C495 O470 1.257 . S
C495 O475 1.249 . S
C495 C488 1.492 . S
H496 C479 0.930 . S
H497 C480 0.930 . S
H498 C481 0.930 . S
H499 C482 0.930 . S
H500 C489 0.930 . S
H501 C491 0.930 . S
H502 C492 0.930 . S
H503 C493 0.930 . S
Eu504 N535 2.657 . S
Eu504 N542 2.609 . S
Eu504 O548 2.558 . S
Eu504 O549 2.612 . S
Eu504 O551 2.339 . S
Eu504 O552 2.563 1_545 S
Eu504 O553 2.419 . S
Eu504 O555 2.380 . S
Eu504 O556 2.432 . S
Eu504 C568 2.848 . S
C505 C508 1.429 . S
C505 C509 1.411 . S
C505 N512 1.377 1_565 S
C506 C508 1.420 . S
C506 C510 1.423 . S
C506 C518 1.392 . S
C507 C509 1.420 . S
C507 C510 1.351 . S
C507 H530 0.931 . S
C508 C505 1.429 . S
C508 C506 1.420 . S
C508 N516 1.362 . S
C509 C505 1.411 . S
C509 C507 1.420 . S
C509 C514 1.395 . S
C510 C506 1.423 . S
C510 C507 1.351 . S
C510 H522 0.930 . S
C511 C513 1.400 . S
C511 C514 1.386 1_545 S
C511 H523 0.930 . S
N512 C505 1.377 1_545 S
N512 C513 1.321 . S
N512 Eu515 2.609 . S
C513 C511 1.400 . S
C513 N512 1.321 . S
C513 H520 0.930 . S
C514 C509 1.395 . S
C514 C511 1.386 1_565 S
C514 H533 0.930 . S
Eu515 N512 2.609 . S
Eu515 N516 2.657 1_545 S
Eu515 O549 2.380 . S
Eu515 O550 2.432 . S
Eu515 O554 2.558 . S
Eu515 O555 2.612 . S
Eu515 O557 2.339 . S
Eu515 O558 2.563 . S
Eu515 O559 2.419 . S
Eu515 C579 2.848 . S
N516 C508 1.362 . S
N516 Eu515 2.657 1_565 S
N516 C517 1.334 . S
C517 N516 1.334 . S
C517 C519 1.413 . S
C517 H524 0.890 1_565 S
C518 C506 1.392 . S
C518 C519 1.367 . S
C518 H526 0.930 . S
C519 C517 1.413 . S
C519 C518 1.367 . S
C519 H521 0.930 . S
H520 C513 0.930 . S
H521 C519 0.930 . S
H522 C510 0.930 . S
H523 C511 0.930 . S
H524 C517 0.890 1_545 S
H525 C539 0.930 . S
H526 C518 0.930 . S
H527 C545 0.930 . S
H528 C536 0.929 . S
H529 C543 0.930 . S
H530 C507 0.931 . S
H531 C537 0.930 . S
H532 C570 0.930 . S
H533 C514 0.930 . S
H534 C569 0.931 . S
N535 Eu504 2.657 . S
N535 C536 1.334 . S
N535 C540 1.362 . S
C536 H528 0.929 . S
C536 N535 1.334 . S
C536 C539 1.413 . S
C537 H531 0.930 . S
C537 C538 1.392 . S
C537 C539 1.367 . S
C538 C537 1.392 . S
C538 C540 1.420 . S
C538 C570 1.423 . S
C539 H525 0.930 . S
C539 C536 1.413 . S
C539 C537 1.367 . S
C540 N535 1.362 . S
C540 C538 1.420 . S
C540 C544 1.429 . S
H541 C546 0.930 . S
N542 Eu504 2.609 . S
N542 C544 1.377 . S
N542 C545 1.321 . S
C543 H529 0.930 . S
C543 C545 1.400 . S
C543 C546 1.386 . S
C544 C540 1.429 . S
C544 N542 1.377 . S
C544 C547 1.411 . S
C545 H527 0.930 . S
C545 N542 1.321 . S
C545 C543 1.400 . S
C546 H541 0.930 . S
C546 C543 1.386 . S
C546 C547 1.395 . S
C547 C544 1.411 . S
C547 C546 1.395 . S
C547 C569 1.420 . S
O548 Eu504 2.558 . S
O548 C568 1.257 . S
O549 Eu504 2.612 . S
O549 Eu515 2.380 . S
O549 C560 1.276 1_545 S
O550 Eu515 2.432 . S
O550 C567 1.264 . S
O551 Eu504 2.339 . S
O551 C567 1.254 . S
O552 Eu504 2.563 1_565 S
O552 C560 1.235 . S
O553 Eu504 2.419 . S
O553 C568 1.249 . S
O554 Eu515 2.558 . S
O554 C579 1.257 . S
O555 Eu504 2.380 . S
O555 Eu515 2.612 . S
O555 C571 1.276 . S
O556 Eu504 2.432 . S
O556 C578 1.264 . S
O557 Eu515 2.339 . S
O557 C578 1.254 . S
O558 Eu515 2.563 . S
O558 C571 1.235 . S
O559 Eu515 2.419 . S
O559 C579 1.249 . S
C560 O549 1.276 1_565 S
C560 O552 1.235 . S
C561 C563 1.393 . S
C561 C565 1.395 . S
C561 C568 1.492 . S
C562 C563 1.392 1_565 S
C562 C564 1.386 . S
C563 C561 1.393 . S
C563 C562 1.392 1_545 S
C563 H580 0.930 . S
C564 C562 1.386 . S
C564 C566 1.354 1_565 S
C564 H581 0.930 . S
C565 C561 1.395 . S
C565 C566 1.415 . S
C565 H582 0.930 . S
C566 C564 1.354 1_545 S
C566 C565 1.415 . S
C566 H583 0.937 . S
C567 O550 1.264 . S
C567 O551 1.254 . S
C568 Eu504 2.848 . S
C568 O548 1.257 . S
C568 O553 1.249 . S
C568 C561 1.492 . S
C569 H534 0.931 . S
C569 C547 1.420 . S
C569 C570 1.351 . S
C570 H532 0.930 . S
C570 C538 1.423 . S
C570 C569 1.351 . S
C571 O555 1.276 . S
C571 O558 1.235 . S
C572 C573 1.393 . S
C572 C576 1.395 . S
C572 C579 1.492 . S
C573 C572 1.393 . S
C573 C574 1.392 . S
C573 H584 0.930 . S
C574 C573 1.392 . S
C574 C575 1.386 . S
C575 C574 1.386 . S
C575 C577 1.395 . S
C575 H585 0.930 . S
C576 C572 1.395 . S
C576 C577 1.379 . S
C576 H586 0.930 . S
C577 C575 1.395 . S
C577 C576 1.379 . S
C577 H587 0.930 . S
C578 O556 1.264 . S
C578 O557 1.254 . S
C579 Eu515 2.848 . S
C579 O554 1.257 . S
C579 O559 1.249 . S
C579 C572 1.492 . S
H580 C563 0.930 . S
H581 C564 0.930 . S
H582 C565 0.930 . S
H583 C566 0.937 . S
H584 C573 0.930 . S
H585 C575 0.930 . S
H586 C576 0.930 . S
H587 C577 0.930 . S
Eu588 N619 2.657 . S
Eu588 N626 2.609 . S
Eu588 O632 2.558 . S
Eu588 O633 2.612 . S
Eu588 O635 2.339 . S
Eu588 O636 2.563 . S
Eu588 O637 2.419 . S
Eu588 O639 2.380 . S
Eu588 O640 2.432 . S
Eu588 C652 2.848 . S
C589 C592 1.429 . S
C589 C593 1.411 . S
C589 N596 1.377 . S
C590 C592 1.420 . S
C590 C594 1.423 . S
C590 C602 1.392 . S
C591 C593 1.420 . S
C591 C594 1.351 . S
C591 H614 0.931 . S
C592 C589 1.429 . S
C592 C590 1.420 . S
C592 N600 1.362 . S
C593 C589 1.411 . S
C593 C591 1.420 . S
C593 C598 1.395 . S
C594 C590 1.423 . S
C594 C591 1.351 . S
C594 H606 0.930 . S
C595 C597 1.400 . S
C595 C598 1.386 . S
C595 H607 0.930 . S
N596 C589 1.377 . S
N596 C597 1.321 . S
N596 Eu599 2.609 . S
C597 C595 1.400 . S
C597 N596 1.321 . S
C597 H604 0.930 . S
C598 C593 1.395 . S
C598 C595 1.386 . S
C598 H617 0.930 . S
Eu599 N596 2.609 . S
Eu599 N600 2.657 . S
Eu599 O633 2.380 . S
Eu599 O634 2.432 . S
Eu599 O638 2.558 . S
Eu599 O639 2.612 . S
Eu599 O641 2.339 . S
Eu599 O642 2.563 . S
Eu599 O643 2.419 . S
Eu599 C663 2.848 . S
N600 C592 1.362 . S
N600 Eu599 2.657 . S
N600 C601 1.334 . S
C601 N600 1.334 . S
C601 C603 1.413 . S
C601 H608 0.929 . S
C602 C590 1.392 . S
C602 C603 1.367 . S
C602 H610 0.930 . S
C603 C601 1.413 . S
C603 C602 1.367 . S
C603 H605 0.930 . S
H604 C597 0.930 . S
H605 C603 0.930 . S
H606 C594 0.930 . S
H607 C595 0.930 . S
H608 C601 0.929 . S
H609 C623 0.930 . S
H610 C602 0.930 . S
H611 C629 0.930 . S
H612 C620 0.929 . S
H613 C627 0.930 . S
H614 C591 0.931 . S
H615 C621 0.930 . S
H616 C654 0.930 . S
H617 C598 0.930 . S
H618 C653 0.931 . S
N619 Eu588 2.657 . S
N619 C620 1.334 . S
N619 C624 1.362 . S
C620 H612 0.929 . S
C620 N619 1.334 . S
C620 C623 1.413 . S
C621 H615 0.930 . S
C621 C622 1.392 . S
C621 C623 1.367 . S
C622 C621 1.392 . S
C622 C624 1.420 . S
C622 C654 1.423 . S
C623 H609 0.930 . S
C623 C620 1.413 . S
C623 C621 1.367 . S
C624 N619 1.362 . S
C624 C622 1.420 . S
C624 C628 1.429 . S
H625 C630 0.930 . S
N626 Eu588 2.609 . S
N626 C628 1.377 . S
N626 C629 1.321 . S
C627 H613 0.930 . S
C627 C629 1.400 . S
C627 C630 1.386 . S
C628 C624 1.429 . S
C628 N626 1.377 . S
C628 C631 1.411 . S
C629 H611 0.930 . S
C629 N626 1.321 . S
C629 C627 1.400 . S
C630 H625 0.930 . S
C630 C627 1.386 . S
C630 C631 1.395 . S
C631 C628 1.411 . S
C631 C630 1.395 . S
C631 C653 1.420 . S
O632 Eu588 2.558 . S
O632 C652 1.257 . S
O633 Eu588 2.612 . S
O633 Eu599 2.380 . S
O633 C644 1.276 . S
O634 Eu599 2.432 . S
O634 C651 1.264 . S
O635 Eu588 2.339 . S
O635 C651 1.254 . S
O636 Eu588 2.563 . S
O636 C644 1.235 . S
O637 Eu588 2.419 . S
O637 C652 1.249 . S
O638 Eu599 2.558 . S
O638 C663 1.257 . S
O639 Eu588 2.380 . S
O639 Eu599 2.612 . S
O639 C655 1.276 . S
O640 Eu588 2.432 . S
O640 C662 1.264 . S
O641 Eu599 2.339 . S
O641 C662 1.254 . S
O642 Eu599 2.563 . S
O642 C655 1.235 . S
O643 Eu599 2.419 . S
O643 C663 1.249 . S
C644 O633 1.276 . S
C644 O636 1.235 . S
C645 C647 1.393 . S
C645 C649 1.395 . S
C645 C652 1.492 . S
C646 C647 1.392 . S
C646 C648 1.386 . S
C647 C645 1.393 . S
C647 C646 1.392 . S
C647 H664 0.930 . S
C648 C646 1.386 . S
C648 C650 1.395 . S
C648 H665 0.930 . S
C649 C645 1.395 . S
C649 C650 1.379 . S
C649 H666 0.930 . S
C650 C648 1.395 . S
C650 C649 1.379 . S
C650 H667 0.930 . S
C651 O634 1.264 . S
C651 O635 1.254 . S
C652 Eu588 2.848 . S
C652 O632 1.257 . S
C652 O637 1.249 . S
C652 C645 1.492 . S
C653 H618 0.931 . S
C653 C631 1.420 . S
C653 C654 1.351 . S
C654 H616 0.930 . S
C654 C622 1.423 . S
C654 C653 1.351 . S
C655 O639 1.276 . S
C655 O642 1.235 . S
C656 C657 1.393 . S
C656 C660 1.395 . S
C656 C663 1.492 . S
C657 C656 1.393 . S
C657 C658 1.392 . S
C657 H668 0.930 . S
C658 C657 1.392 . S
C658 C659 1.386 . S
C659 C658 1.386 . S
C659 C661 1.395 . S
C659 H669 0.930 . S
C660 C656 1.395 . S
C660 C661 1.379 . S
C660 H670 0.930 . S
C661 C659 1.395 . S
C661 C660 1.379 . S
C661 H671 0.930 . S
C662 O640 1.264 . S
C662 O641 1.254 . S
C663 Eu599 2.848 . S
C663 O638 1.257 . S
C663 O643 1.249 . S
C663 C656 1.492 . S
H664 C647 0.930 . S
H665 C648 0.930 . S
H666 C649 0.930 . S
H667 C650 0.930 . S
H668 C657 0.930 . S
H669 C659 0.930 . S
H670 C660 0.930 . S
H671 C661 0.930 . S
Eu672 N703 2.657 . S
Eu672 N710 2.609 . S
Eu672 O716 2.558 . S
Eu672 O717 2.612 . S
Eu672 O719 2.339 . S
Eu672 O720 2.563 . S
Eu672 O721 2.419 . S
Eu672 O723 2.380 . S
Eu672 O724 2.432 . S
Eu672 C736 2.848 . S
C673 C676 1.429 . S
C673 C677 1.411 . S
C673 N680 1.377 . S
C674 C676 1.420 . S
C674 C678 1.423 . S
C674 C686 1.392 . S
C675 C677 1.420 . S
C675 C678 1.351 . S
C675 H698 0.931 . S
C676 C673 1.429 . S
C676 C674 1.420 . S
C676 N684 1.362 . S
C677 C673 1.411 . S
C677 C675 1.420 . S
C677 C682 1.395 . S
C678 C674 1.423 . S
C678 C675 1.351 . S
C678 H690 0.930 . S
C679 C681 1.400 . S
C679 C682 1.386 . S
C679 H691 0.930 . S
N680 C673 1.377 . S
N680 C681 1.321 . S
N680 Eu683 2.609 1_565 S
C681 C679 1.400 . S
C681 N680 1.321 . S
C681 H688 0.930 1_565 S
C682 C677 1.395 . S
C682 C679 1.386 . S
C682 H701 0.930 . S
Eu683 N680 2.609 1_545 S
Eu683 N684 2.657 1_545 S
Eu683 O717 2.380 . S
Eu683 O718 2.432 . S
Eu683 O722 2.558 1_545 S
Eu683 O723 2.612 . S
Eu683 O725 2.339 . S
Eu683 O726 2.563 . S
Eu683 O727 2.419 1_545 S
Eu683 C747 2.848 1_545 S
N684 C676 1.362 . S
N684 Eu683 2.657 1_565 S
N684 C685 1.334 . S
C685 N684 1.334 . S
C685 C687 1.413 . S
C685 H692 0.929 . S
C686 C674 1.392 . S
C686 C687 1.367 . S
C686 H694 0.930 . S
C687 C685 1.413 . S
C687 C686 1.367 . S
C687 H689 0.930 1_455 S
H688 C681 0.930 1_545 S
H689 C687 0.930 1_655 S
H690 C678 0.930 . S
H691 C679 0.930 . S
H692 C685 0.929 . S
H693 C707 0.930 . S
H694 C686 0.930 . S
H695 C713 0.930 . S
H696 C704 0.929 . S
H697 C711 0.930 1_655 S
H698 C675 0.931 . S
H699 C705 0.930 . S
H700 C738 0.930 . S
H701 C682 0.930 . S
H702 C737 0.931 . S
N703 Eu672 2.657 . S
N703 C704 1.334 . S
N703 C708 1.362 . S
C704 H696 0.929 . S
C704 N703 1.334 . S
C704 C707 1.413 . S
C705 H699 0.930 . S
C705 C706 1.392 . S
C705 C707 1.367 . S
C706 C705 1.392 . S
C706 C708 1.420 . S
C706 C738 1.423 . S
C707 H693 0.930 . S
C707 C704 1.413 . S
C707 C705 1.367 . S
C708 N703 1.362 . S
C708 C706 1.420 . S
C708 C712 1.429 . S
H709 C714 0.930 . S
N710 Eu672 2.609 . S
N710 C712 1.377 . S
N710 C713 1.321 . S
C711 H697 0.930 1_455 S
C711 C713 1.400 . S
C711 C714 1.386 . S
C712 C708 1.429 . S
C712 N710 1.377 . S
C712 C715 1.411 . S
C713 H695 0.930 . S
C713 N710 1.321 . S
C713 C711 1.400 . S
C714 H709 0.930 . S
C714 C711 1.386 . S
C714 C715 1.395 . S
C715 C712 1.411 . S
C715 C714 1.395 . S
C715 C737 1.420 . S
O716 Eu672 2.558 . S
O716 C736 1.257 . S
O717 Eu672 2.612 . S
O717 Eu683 2.380 . S
O717 C728 1.276 . S
O718 Eu683 2.432 . S
O718 C735 1.264 . S
O719 Eu672 2.339 . S
O719 C735 1.254 . S
O720 Eu672 2.563 . S
O720 C728 1.235 . S
O721 Eu672 2.419 . S
O721 C736 1.249 . S
O722 Eu683 2.558 1_565 S
O722 C747 1.257 . S
O723 Eu672 2.380 . S
O723 Eu683 2.612 . S
O723 C739 1.276 . S
O724 Eu672 2.432 . S
O724 C746 1.264 . S
O725 Eu683 2.339 . S
O725 C746 1.254 . S
O726 Eu683 2.563 . S
O726 C739 1.235 . S
O727 Eu683 2.419 1_565 S
O727 C747 1.249 . S
C728 O717 1.276 . S
C728 O720 1.235 . S
C729 C731 1.393 . S
C729 C733 1.395 . S
C729 C736 1.492 . S
C730 C731 1.392 . S
C730 C732 1.386 . S
C731 C729 1.393 . S
C731 C730 1.392 . S
C731 H748 0.930 . S
C732 C730 1.386 . S
C732 C734 1.395 . S
C732 H749 0.930 . S
C733 C729 1.395 . S
C733 C734 1.379 . S
C733 H750 0.930 . S
C734 C732 1.395 . S
C734 C733 1.379 . S
C734 H751 0.930 . S
C735 O718 1.264 . S
C735 O719 1.254 . S
C736 Eu672 2.848 . S
C736 O716 1.257 . S
C736 O721 1.249 . S
C736 C729 1.492 . S
C737 H702 0.931 . S
C737 C715 1.420 . S
C737 C738 1.351 . S
C738 H700 0.930 . S
C738 C706 1.423 . S
C738 C737 1.351 . S
C739 O723 1.276 . S
C739 O726 1.235 . S
C740 C741 1.393 . S
C740 C744 1.395 . S
C740 C747 1.492 . S
C741 C740 1.393 . S
C741 C742 1.392 . S
C741 H752 0.930 . S
C742 C741 1.392 . S
C742 C743 1.386 . S
C743 C742 1.386 . S
C743 C745 1.395 . S
C743 H753 0.930 . S
C744 C740 1.395 . S
C744 C745 1.379 . S
C744 H754 0.930 . S
C745 C743 1.395 . S
C745 C744 1.379 . S
C745 H755 0.930 . S
C746 O724 1.264 . S
C746 O725 1.254 . S
C747 Eu683 2.848 1_565 S
C747 O722 1.257 . S
C747 O727 1.249 . S
C747 C740 1.492 . S
H748 C731 0.930 . S
H749 C732 0.930 . S
H750 C733 0.930 . S
H751 C734 0.930 . S
H752 C741 0.930 . S
H753 C743 0.930 . S
H754 C744 0.930 . S
H755 C745 0.930 . S
Eu756 N787 2.657 . S
Eu756 N794 2.609 . S
Eu756 O800 2.558 . S
Eu756 O801 2.612 . S
Eu756 O803 2.339 . S
Eu756 O804 2.563 . S
Eu756 O805 2.419 . S
Eu756 O807 2.380 . S
Eu756 O808 2.432 . S
Eu756 C820 2.848 . S
C757 C760 1.429 . S
C757 C761 1.411 . S
C757 N764 1.377 . S
C758 C760 1.420 . S
C758 C762 1.423 . S
C758 C770 1.392 . S
C759 C761 1.420 . S
C759 C762 1.351 . S
C759 H782 0.931 . S
C760 C757 1.429 . S
C760 C758 1.420 . S
C760 N768 1.362 . S
C761 C757 1.411 . S
C761 C759 1.420 . S
C761 C766 1.395 . S
C762 C758 1.423 . S
C762 C759 1.351 . S
C762 H774 0.930 . S
C763 C765 1.400 . S
C763 C766 1.386 . S
C763 H775 0.930 . S
N764 C757 1.377 . S
N764 C765 1.321 . S
N764 Eu767 2.609 . S
C765 C763 1.400 . S
C765 N764 1.321 . S
C765 H772 0.930 . S
C766 C761 1.395 . S
C766 C763 1.386 . S
C766 H785 0.930 . S
Eu767 N764 2.609 . S
Eu767 N768 2.657 . S
Eu767 O801 2.380 . S
Eu767 O802 2.432 . S
Eu767 O806 2.558 . S
Eu767 O807 2.612 . S
Eu767 O809 2.339 . S
Eu767 O810 2.563 . S
Eu767 O811 2.419 . S
Eu767 C831 2.848 . S
N768 C760 1.362 . S
N768 Eu767 2.657 . S
N768 C769 1.334 . S
C769 N768 1.334 . S
C769 C771 1.413 . S
C769 H776 0.929 . S
C770 C758 1.392 . S
C770 C771 1.367 . S
C770 H778 0.930 . S
C771 C769 1.413 . S
C771 C770 1.367 . S
C771 H773 0.930 . S
H772 C765 0.930 . S
H773 C771 0.930 . S
H774 C762 0.930 . S
H775 C763 0.930 . S
H776 C769 0.929 . S
H777 C791 0.930 . S
H778 C770 0.930 . S
H779 C797 0.930 . S
H780 C788 0.929 . S
H781 C795 0.930 . S
H782 C759 0.931 . S
H783 C789 0.930 . S
H784 C822 0.930 . S
H785 C766 0.930 . S
H786 C821 0.931 . S
N787 Eu756 2.657 . S
N787 C788 1.334 . S
N787 C792 1.362 . S
C788 H780 0.929 . S
C788 N787 1.334 . S
C788 C791 1.413 . S
C789 H783 0.930 . S
C789 C790 1.392 . S
C789 C791 1.367 . S
C790 C789 1.392 . S
C790 C792 1.420 . S
C790 C822 1.423 . S
C791 H777 0.930 . S
C791 C788 1.413 . S
C791 C789 1.367 . S
C792 N787 1.362 . S
C792 C790 1.420 . S
C792 C796 1.429 . S
H793 C798 0.930 . S
N794 Eu756 2.609 . S
N794 C796 1.377 . S
N794 C797 1.321 . S
C795 H781 0.930 . S
C795 C797 1.400 . S
C795 C798 1.386 . S
C796 C792 1.429 . S
C796 N794 1.377 . S
C796 C799 1.411 . S
C797 H779 0.930 . S
C797 N794 1.321 . S
C797 C795 1.400 . S
C798 H793 0.930 . S
C798 C795 1.386 . S
C798 C799 1.395 . S
C799 C796 1.411 . S
C799 C798 1.395 . S
C799 C821 1.420 . S
O800 Eu756 2.558 . S
O800 C820 1.257 . S
O801 Eu756 2.612 . S
O801 Eu767 2.380 . S
O801 C812 1.276 . S
O802 Eu767 2.432 . S
O802 C819 1.264 . S
O803 Eu756 2.339 . S
O803 C819 1.254 . S
O804 Eu756 2.563 . S
O804 C812 1.235 . S
O805 Eu756 2.419 . S
O805 C820 1.249 . S
O806 Eu767 2.558 . S
O806 C831 1.257 . S
O807 Eu756 2.380 . S
O807 Eu767 2.612 . S
O807 C823 1.276 . S
O808 Eu756 2.432 . S
O808 C830 1.264 . S
O809 Eu767 2.339 . S
O809 C830 1.254 . S
O810 Eu767 2.563 . S
O810 C823 1.235 . S
O811 Eu767 2.419 . S
O811 C831 1.249 . S
C812 O801 1.276 . S
C812 O804 1.235 . S
C813 C815 1.393 . S
C813 C817 1.395 . S
C813 C820 1.492 . S
C814 C815 1.392 . S
C814 C816 1.386 . S
C815 C813 1.393 . S
C815 C814 1.392 . S
C815 H832 0.930 . S
C816 C814 1.386 . S
C816 C818 1.395 . S
C816 H833 0.930 . S
C817 C813 1.395 . S
C817 C818 1.379 . S
C817 H834 0.930 . S
C818 C816 1.395 . S
C818 C817 1.379 . S
C818 H835 0.930 . S
C819 O802 1.264 . S
C819 O803 1.254 . S
C820 Eu756 2.848 . S
C820 O800 1.257 . S
C820 O805 1.249 . S
C820 C813 1.492 . S
C821 H786 0.931 . S
C821 C799 1.420 . S
C821 C822 1.351 . S
C822 H784 0.930 . S
C822 C790 1.423 . S
C822 C821 1.351 . S
C823 O807 1.276 . S
C823 O810 1.235 . S
C824 C825 1.393 . S
C824 C828 1.395 . S
C824 C831 1.492 . S
C825 C824 1.393 . S
C825 C826 1.392 . S
C825 H836 0.930 . S
C826 C825 1.392 . S
C826 C827 1.386 . S
C827 C826 1.386 . S
C827 C829 1.395 . S
C827 H837 0.930 . S
C828 C824 1.395 . S
C828 C829 1.379 . S
C828 H838 0.930 . S
C829 C827 1.395 . S
C829 C828 1.379 . S
C829 H839 0.930 . S
C830 O808 1.264 . S
C830 O809 1.254 . S
C831 Eu767 2.848 . S
C831 O806 1.257 . S
C831 O811 1.249 . S
C831 C824 1.492 . S
H832 C815 0.930 . S
H833 C816 0.930 . S
H834 C817 0.930 . S
H835 C818 0.930 . S
H836 C825 0.930 . S
H837 C827 0.930 . S
H838 C828 0.930 . S
H839 C829 0.930 . S
Eu840 N871 2.657 . S
Eu840 N878 2.609 . S
Eu840 O884 2.558 . S
Eu840 O885 2.612 . S
Eu840 O887 2.339 . S
Eu840 O888 2.563 . S
Eu840 O889 2.419 . S
Eu840 O891 2.380 . S
Eu840 O892 2.432 . S
Eu840 C904 2.848 . S
C841 C844 1.429 . S
C841 C845 1.411 . S
C841 N848 1.377 . S
C842 C844 1.420 . S
C842 C846 1.423 . S
C842 C854 1.392 1_545 S
C843 C845 1.420 . S
C843 C846 1.351 . S
C843 H866 0.931 . S
C844 C841 1.429 . S
C844 C842 1.420 . S
C844 N852 1.362 . S
C845 C841 1.411 . S
C845 C843 1.420 . S
C845 C850 1.395 . S
C846 C842 1.423 . S
C846 C843 1.351 . S
C846 H858 0.930 . S
C847 C849 1.400 . S
C847 C850 1.386 . S
C847 H859 0.930 . S
N848 C841 1.377 . S
N848 C849 1.321 . S
N848 Eu851 2.609 . S
C849 C847 1.400 . S
C849 N848 1.321 . S
C849 H856 0.930 . S
C850 C845 1.395 . S
C850 C847 1.386 . S
C850 H869 0.930 . S
Eu851 N848 2.609 . S
Eu851 N852 2.657 . S
Eu851 O885 2.380 1_556 S
Eu851 O886 2.432 1_556 S
Eu851 O890 2.558 . S
Eu851 O891 2.612 1_556 S
Eu851 O893 2.339 . S
Eu851 O894 2.565 . S
Eu851 O895 2.419 . S
Eu851 C915 2.848 . S
N852 C844 1.362 . S
N852 Eu851 2.657 . S
N852 C853 1.356 . S
C853 N852 1.356 . S
C853 C855 1.405 1_545 S
C853 H860 0.915 1_545 S
C854 C842 1.392 1_565 S
C854 C855 1.367 . S
C854 H862 0.930 . S
C855 C853 1.405 1_565 S
C855 C854 1.367 . S
C855 H857 0.930 . S
H856 C849 0.930 . S
H857 C855 0.930 . S
H858 C846 0.930 . S
H859 C847 0.930 . S
H860 C853 0.915 1_565 S
H861 C875 0.930 . S
H862 C854 0.930 . S
H863 C881 0.930 . S
H864 C872 0.929 . S
H865 C879 0.930 . S
H866 C843 0.931 . S
H867 C873 0.930 . S
H868 C906 0.930 . S
H869 C850 0.930 . S
H870 C905 0.931 . S
N871 Eu840 2.657 . S
N871 C872 1.334 . S
N871 C876 1.362 . S
C872 H864 0.929 . S
C872 N871 1.334 . S
C872 C875 1.413 . S
C873 H867 0.930 . S
C873 C874 1.392 . S
C873 C875 1.367 . S
C874 C873 1.392 . S
C874 C876 1.420 . S
C874 C906 1.423 . S
C875 H861 0.930 . S
C875 C872 1.413 . S
C875 C873 1.367 . S
C876 N871 1.362 . S
C876 C874 1.420 . S
C876 C880 1.429 . S
H877 C882 0.930 . S
N878 Eu840 2.609 . S
N878 C880 1.377 . S
N878 C881 1.321 1_545 S
C879 H865 0.930 . S
C879 C881 1.400 . S
C879 C882 1.386 . S
C880 C876 1.429 . S
C880 N878 1.377 . S
C880 C883 1.411 . S
C881 H863 0.930 . S
C881 N878 1.321 1_565 S
C881 C879 1.400 . S
C882 H877 0.930 . S
C882 C879 1.386 . S
C882 C883 1.395 1_565 S
C883 C880 1.411 . S
C883 C882 1.395 1_545 S
C883 C905 1.420 . S
O884 Eu840 2.558 . S
O884 C904 1.257 . S
O885 Eu840 2.612 . S
O885 Eu851 2.380 1_554 S
O885 C896 1.276 . S
O886 Eu851 2.432 1_554 S
O886 C903 1.264 . S
O887 Eu840 2.339 . S
O887 C903 1.254 . S
O888 Eu840 2.563 . S
O888 C896 1.235 . S
O889 Eu840 2.419 . S
O889 C904 1.249 . S
O890 Eu851 2.558 . S
O890 C915 1.257 . S
O891 Eu840 2.380 . S
O891 Eu851 2.612 1_554 S
O891 C907 1.276 . S
O892 Eu840 2.432 . S
O892 C914 1.264 . S
O893 Eu851 2.339 . S
O893 C914 1.254 1_556 S
O894 Eu851 2.565 . S
O894 C907 1.205 1_556 S
O895 Eu851 2.419 . S
O895 C915 1.249 . S
C896 O885 1.276 . S
C896 O888 1.235 . S
C897 C899 1.393 . S
C897 C901 1.395 1_545 S
C897 C904 1.492 . S
C898 C899 1.392 . S
C898 C900 1.386 . S
C899 C897 1.393 . S
C899 C898 1.392 . S
C899 H916 0.930 . S
C900 C898 1.386 . S
C900 C902 1.395 1_545 S
C900 H917 0.930 . S
C901 C897 1.395 1_565 S
C901 C902 1.379 . S
C901 H918 0.930 . S
C902 C900 1.395 1_565 S
C902 C901 1.379 . S
C902 H919 0.930 . S
C903 O886 1.264 . S
C903 O887 1.254 . S
C904 Eu840 2.848 . S
C904 O884 1.257 . S
C904 O889 1.249 . S
C904 C897 1.492 . S
C905 H870 0.931 . S
C905 C883 1.420 . S
C905 C906 1.351 . S
C906 H868 0.930 . S
C906 C874 1.423 . S
C906 C905 1.351 . S
C907 O891 1.276 . S
C907 O894 1.205 1_554 S
C908 C909 1.393 . S
C908 C912 1.395 . S
C908 C915 1.492 . S
C909 C908 1.393 . S
C909 C910 1.392 . S
C909 H920 0.930 . S
C910 C909 1.392 . S
C910 C911 1.386 . S
C911 C910 1.386 . S
C911 C913 1.395 . S
C911 H921 0.930 . S
C912 C908 1.395 . S
C912 C913 1.379 . S
C912 H922 0.930 . S
C913 C911 1.395 . S
C913 C912 1.379 . S
C913 H923 0.930 . S
C914 O892 1.264 . S
C914 O893 1.254 1_554 S
C915 Eu851 2.848 . S
C915 O890 1.257 . S
C915 O895 1.249 . S
C915 C908 1.492 . S
H916 C899 0.930 . S
H917 C900 0.930 . S
H918 C901 0.930 . S
H919 C902 0.930 . S
H920 C909 0.930 . S
H921 C911 0.930 . S
H922 C912 0.930 . S
H923 C913 0.930 . S
Eu924 N955 2.657 . S
Eu924 N962 2.609 . S
Eu924 O968 2.558 . S
Eu924 O969 2.612 . S
Eu924 O971 2.339 . S
Eu924 O972 2.563 . S
Eu924 O973 2.419 . S
Eu924 O975 2.380 . S
Eu924 O976 2.432 . S
Eu924 C988 2.848 . S
C925 C928 1.429 . S
C925 C929 1.411 . S
C925 N932 1.377 . S
C926 C928 1.420 . S
C926 C930 1.423 . S
C926 C938 1.392 . S
C927 C929 1.420 . S
C927 C930 1.351 . S
C927 H950 0.931 . S
C928 C925 1.429 . S
C928 C926 1.420 . S
C928 N936 1.362 . S
C929 C925 1.411 . S
C929 C927 1.420 . S
C929 C934 1.395 . S
C930 C926 1.423 . S
C930 C927 1.351 . S
C930 H942 0.930 . S
C931 C933 1.400 . S
C931 C934 1.386 . S
C931 H943 0.930 . S
N932 C925 1.377 . S
N932 C933 1.321 . S
N932 Eu935 2.609 . S
C933 C931 1.400 . S
C933 N932 1.321 . S
C933 H940 0.930 . S
C934 C929 1.395 . S
C934 C931 1.386 . S
C934 H953 0.930 . S
Eu935 N932 2.609 . S
Eu935 N936 2.657 . S
Eu935 O969 2.380 . S
Eu935 O970 2.432 . S
Eu935 O974 2.558 . S
Eu935 O975 2.612 . S
Eu935 O977 2.339 . S
Eu935 O978 2.563 . S
Eu935 O979 2.419 . S
Eu935 C999 2.848 . S
N936 C928 1.362 . S
N936 Eu935 2.657 . S
N936 C937 1.334 . S
C937 N936 1.334 . S
C937 C939 1.413 . S
C937 H944 0.929 . S
C938 C926 1.392 . S
C938 C939 1.367 . S
C938 H946 0.930 . S
C939 C937 1.413 . S
C939 C938 1.367 . S
C939 H941 0.930 . S
H940 C933 0.930 . S
H941 C939 0.930 . S
H942 C930 0.930 . S
H943 C931 0.930 . S
H944 C937 0.929 . S
H945 C959 0.930 . S
H946 C938 0.930 . S
H947 C965 0.930 . S
H948 C956 0.929 . S
H949 C963 0.930 . S
H950 C927 0.931 . S
H951 C957 0.930 . S
H952 C990 0.930 . S
H953 C934 0.930 . S
H954 C989 0.931 . S
N955 Eu924 2.657 . S
N955 C956 1.334 . S
N955 C960 1.362 . S
C956 H948 0.929 . S
C956 N955 1.334 . S
C956 C959 1.413 . S
C957 H951 0.930 . S
C957 C958 1.392 . S
C957 C959 1.367 . S
C958 C957 1.392 . S
C958 C960 1.420 . S
C958 C990 1.423 . S
C959 H945 0.930 . S
C959 C956 1.413 . S
C959 C957 1.367 . S
C960 N955 1.362 . S
C960 C958 1.420 . S
C960 C964 1.429 . S
H961 C966 0.930 . S
N962 Eu924 2.609 . S
N962 C964 1.377 . S
N962 C965 1.321 . S
C963 H949 0.930 . S
C963 C965 1.400 . S
C963 C966 1.386 . S
C964 C960 1.429 . S
C964 N962 1.377 . S
C964 C967 1.411 . S
C965 H947 0.930 . S
C965 N962 1.321 . S
C965 C963 1.400 . S
C966 H961 0.930 . S
C966 C963 1.386 . S
C966 C967 1.395 . S
C967 C964 1.411 . S
C967 C966 1.395 . S
C967 C989 1.420 . S
O968 Eu924 2.558 . S
O968 C988 1.257 . S
O969 Eu924 2.612 . S
O969 Eu935 2.380 . S
O969 C980 1.276 . S
O970 Eu935 2.432 . S
O970 C987 1.264 . S
O971 Eu924 2.339 . S
O971 C987 1.254 . S
O972 Eu924 2.563 . S
O972 C980 1.235 . S
O973 Eu924 2.419 . S
O973 C988 1.249 . S
O974 Eu935 2.558 . S
O974 C999 1.257 . S
O975 Eu924 2.380 . S
O975 Eu935 2.612 . S
O975 C991 1.276 . S
O976 Eu924 2.432 . S
O976 C998 1.264 . S
O977 Eu935 2.339 . S
O977 C998 1.254 . S
O978 Eu935 2.563 . S
O978 C991 1.235 . S
O979 Eu935 2.419 . S
O979 C999 1.249 . S
C980 O969 1.276 . S
C980 O972 1.235 . S
C981 C983 1.393 . S
C981 C985 1.395 . S
C981 C988 1.492 . S
C982 C983 1.392 . S
C982 C984 1.386 . S
C983 C981 1.393 . S
C983 C982 1.392 . S
C983 H1000 0.930 . S
C984 C982 1.386 . S
C984 C986 1.395 . S
C984 H1001 0.930 . S
C985 C981 1.395 . S
C985 C986 1.379 . S
C985 H1002 0.930 . S
C986 C984 1.395 . S
C986 C985 1.379 . S
C986 H1003 0.930 . S
C987 O970 1.264 . S
C987 O971 1.254 . S
C988 Eu924 2.848 . S
C988 O968 1.257 . S
C988 O973 1.249 . S
C988 C981 1.492 . S
C989 H954 0.931 . S
C989 C967 1.420 . S
C989 C990 1.351 . S
C990 H952 0.930 . S
C990 C958 1.423 . S
C990 C989 1.351 . S
C991 O975 1.276 . S
C991 O978 1.235 . S
C992 C993 1.393 . S
C992 C996 1.395 . S
C992 C999 1.492 . S
C993 C992 1.393 . S
C993 C994 1.392 . S
C993 H1004 0.930 . S
C994 C993 1.392 . S
C994 C995 1.386 . S
C995 C994 1.386 . S
C995 C997 1.395 . S
C995 H1005 0.930 . S
C996 C992 1.395 . S
C996 C997 1.379 . S
C996 H1006 0.930 . S
C997 C995 1.395 . S
C997 C996 1.379 . S
C997 H1007 0.930 . S
C998 O976 1.264 . S
C998 O977 1.254 . S
C999 Eu935 2.848 . S
C999 O974 1.257 . S
C999 O979 1.249 . S
C999 C992 1.492 . S
H1000 C983 0.930 . S
H1001 C984 0.930 . S
H1002 C985 0.930 . S
H1003 C986 0.930 . S
H1004 C993 0.930 . S
H1005 C995 0.930 . S
H1006 C996 0.930 . S
H1007 C997 0.930 . S
Eu1008 N1039 2.657 . S
Eu1008 N1046 2.609 . S
Eu1008 O1052 2.558 . S
Eu1008 O1053 2.612 1_554 S
Eu1008 O1055 2.339 . S
Eu1008 O1056 2.563 1_554 S
Eu1008 O1057 2.419 . S
Eu1008 O1059 2.380 . S
Eu1008 O1060 2.432 . S
Eu1008 C1072 2.848 . S
C1009 C1012 1.429 . S
C1009 C1013 1.411 . S
C1009 N1016 1.377 . S
C1010 C1012 1.420 . S
C1010 C1014 1.423 . S
C1010 C1022 1.392 . S
C1011 C1013 1.420 . S
C1011 C1014 1.351 . S
C1011 H1034 0.931 . S
C1012 C1009 1.429 . S
C1012 C1010 1.420 . S
C1012 N1020 1.362 . S
C1013 C1009 1.411 . S
C1013 C1011 1.420 . S
C1013 C1018 1.395 . S
C1014 C1010 1.423 . S
C1014 C1011 1.351 . S
C1014 H1026 0.930 . S
C1015 C1017 1.400 . S
C1015 C1018 1.386 . S
C1015 H1027 0.930 . S
N1016 C1009 1.377 . S
N1016 C1017 1.321 . S
N1016 Eu1019 2.609 1_556 S
C1017 C1015 1.400 . S
C1017 N1016 1.321 . S
C1017 H1024 0.930 . S
C1018 C1013 1.395 . S
C1018 C1015 1.386 . S
C1018 H1037 0.930 . S
Eu1019 N1016 2.609 1_554 S
Eu1019 N1020 2.657 1_554 S
Eu1019 O1053 2.380 1_554 S
Eu1019 O1054 2.432 . S
Eu1019 O1058 2.558 . S
Eu1019 O1059 2.612 . S
Eu1019 O1061 2.339 . S
Eu1019 O1062 2.563 . S
Eu1019 O1063 2.419 . S
Eu1019 C1083 2.848 . S
N1020 C1012 1.362 . S
N1020 Eu1019 2.657 1_556 S
N1020 C1021 1.334 . S
C1021 N1020 1.334 . S
C1021 C1023 1.413 . S
C1021 H1028 0.929 . S
C1022 C1010 1.392 . S
C1022 C1023 1.367 . S
C1022 H1030 0.930 . S
C1023 C1021 1.413 . S
C1023 C1022 1.367 . S
C1023 H1025 0.930 . S
H1024 C1017 0.930 . S
H1025 C1023 0.930 . S
H1026 C1014 0.930 . S
H1027 C1015 0.930 . S
H1028 C1021 0.929 . S
H1029 C1043 0.930 . S
H1030 C1022 0.930 . S
H1031 C1049 0.930 . S
H1032 C1040 0.929 . S
H1033 C1047 0.930 . S
H1034 C1011 0.931 . S
H1035 C1041 0.930 . S
H1036 C1074 0.930 . S
H1037 C1018 0.930 . S
H1038 C1073 0.931 . S
N1039 Eu1008 2.657 . S
N1039 C1040 1.334 . S
N1039 C1044 1.362 . S
C1040 H1032 0.929 . S
C1040 N1039 1.334 . S
C1040 C1043 1.413 . S
C1041 H1035 0.930 . S
C1041 C1042 1.392 . S
C1041 C1043 1.367 . S
C1042 C1041 1.392 . S
C1042 C1044 1.420 . S
C1042 C1074 1.423 . S
C1043 H1029 0.930 . S
C1043 C1040 1.413 . S
C1043 C1041 1.367 . S
C1044 N1039 1.362 . S
C1044 C1042 1.420 . S
C1044 C1048 1.429 . S
H1045 C1050 0.930 . S
N1046 Eu1008 2.609 . S
N1046 C1048 1.377 . S
N1046 C1049 1.321 . S
C1047 H1033 0.930 . S
C1047 C1049 1.400 . S
C1047 C1050 1.386 . S
C1048 C1044 1.429 . S
C1048 N1046 1.377 . S
C1048 C1051 1.411 . S
C1049 H1031 0.930 . S
C1049 N1046 1.321 . S
C1049 C1047 1.400 . S
C1050 H1045 0.930 . S
C1050 C1047 1.386 . S
C1050 C1051 1.395 . S
C1051 C1048 1.411 . S
C1051 C1050 1.395 . S
C1051 C1073 1.420 . S
O1052 Eu1008 2.558 . S
O1052 C1072 1.257 . S
O1053 Eu1008 2.612 1_556 S
O1053 Eu1019 2.380 1_556 S
O1053 C1064 1.276 . S
O1054 Eu1019 2.432 . S
O1054 C1071 1.264 . S
O1055 Eu1008 2.339 . S
O1055 C1071 1.254 . S
O1056 Eu1008 2.563 1_556 S
O1056 C1064 1.235 . S
O1057 Eu1008 2.419 . S
O1057 C1072 1.249 . S
O1058 Eu1019 2.558 . S
O1058 C1083 1.257 . S
O1059 Eu1008 2.380 . S
O1059 Eu1019 2.612 . S
O1059 C1075 1.276 . S
O1060 Eu1008 2.432 . S
O1060 C1082 1.264 . S
O1061 Eu1019 2.339 . S
O1061 C1082 1.254 . S
O1062 Eu1019 2.563 . S
O1062 C1075 1.235 . S
O1063 Eu1019 2.419 . S
O1063 C1083 1.249 . S
C1064 O1053 1.276 . S
C1064 O1056 1.235 . S
C1065 C1067 1.393 . S
C1065 C1069 1.395 . S
C1065 C1072 1.492 . S
C1066 C1067 1.386 1_556 S
C1066 C1068 1.382 1_556 S
C1067 C1065 1.393 . S
C1067 C1066 1.386 1_554 S
C1067 H1084 0.930 . S
C1068 C1066 1.382 1_554 S
C1068 C1070 1.395 . S
C1068 H1085 0.930 . S
C1069 C1065 1.395 . S
C1069 C1070 1.379 . S
C1069 H1086 0.930 . S
C1070 C1068 1.395 . S
C1070 C1069 1.379 . S
C1070 H1087 0.930 . S
C1071 O1054 1.264 . S
C1071 O1055 1.254 . S
C1072 Eu1008 2.848 . S
C1072 O1052 1.257 . S
C1072 O1057 1.249 . S
C1072 C1065 1.492 . S
C1073 H1038 0.931 . S
C1073 C1051 1.420 . S
C1073 C1074 1.351 . S
C1074 H1036 0.930 . S
C1074 C1042 1.423 . S
C1074 C1073 1.351 . S
C1075 O1059 1.276 . S
C1075 O1062 1.235 . S
C1076 C1077 1.393 . S
C1076 C1080 1.395 . S
C1076 C1083 1.492 . S
C1077 C1076 1.393 . S
C1077 C1078 1.392 . S
C1077 H1088 0.930 . S
C1078 C1077 1.392 . S
C1078 C1079 1.386 . S
C1079 C1078 1.386 . S
C1079 C1081 1.395 . S
C1079 H1089 0.930 . S
C1080 C1076 1.395 . S
C1080 C1081 1.379 . S
C1080 H1090 0.930 . S
C1081 C1079 1.395 . S
C1081 C1080 1.379 . S
C1081 H1091 0.930 . S
C1082 O1060 1.264 . S
C1082 O1061 1.254 . S
C1083 Eu1019 2.848 . S
C1083 O1058 1.257 . S
C1083 O1063 1.249 . S
C1083 C1076 1.492 . S
H1084 C1067 0.930 . S
H1085 C1068 0.930 . S
H1086 C1069 0.930 . S
H1087 C1070 0.930 . S
H1088 C1077 0.930 . S
H1089 C1079 0.930 . S
H1090 C1080 0.930 . S
H1091 C1081 0.930 . S
Eu1092 N1123 2.657 . S
Eu1092 N1130 2.609 . S
Eu1092 O1136 2.558 . S
Eu1092 O1137 2.612 . S
Eu1092 O1139 2.339 . S
Eu1092 O1140 2.563 . S
Eu1092 O1141 2.419 . S
Eu1092 O1143 2.380 . S
Eu1092 O1144 2.432 . S
Eu1092 C1156 2.848 . S
C1093 C1096 1.429 . S
C1093 C1097 1.411 . S
C1093 N1100 1.377 . S
C1094 C1096 1.420 . S
C1094 C1098 1.423 . S
C1094 C1106 1.392 . S
C1095 C1097 1.420 . S
C1095 C1098 1.351 . S
C1095 H1118 0.931 . S
C1096 C1093 1.429 . S
C1096 C1094 1.420 . S
C1096 N1104 1.362 . S
C1097 C1093 1.411 . S
C1097 C1095 1.420 . S
C1097 C1102 1.395 . S
C1098 C1094 1.423 . S
C1098 C1095 1.351 . S
C1098 H1110 0.930 . S
C1099 C1101 1.400 . S
C1099 C1102 1.386 . S
C1099 H1111 0.930 . S
N1100 C1093 1.377 . S
N1100 C1101 1.321 . S
N1100 Eu1103 2.609 . S
C1101 C1099 1.400 . S
C1101 N1100 1.321 . S
C1101 H1108 0.930 . S
C1102 C1097 1.395 . S
C1102 C1099 1.386 . S
C1102 H1121 0.930 . S
Eu1103 N1100 2.609 . S
Eu1103 N1104 2.657 . S
Eu1103 O1137 2.380 . S
Eu1103 O1138 2.432 . S
Eu1103 O1142 2.558 . S
Eu1103 O1143 2.612 . S
Eu1103 O1145 2.339 . S
Eu1103 O1146 2.563 . S
Eu1103 O1147 2.419 . S
Eu1103 C1167 2.848 . S
N1104 C1096 1.362 . S
N1104 Eu1103 2.657 . S
N1104 C1105 1.334 . S
C1105 N1104 1.334 . S
C1105 C1107 1.413 . S
C1105 H1112 0.929 . S
C1106 C1094 1.392 . S
C1106 C1107 1.367 . S
C1106 H1114 0.930 . S
C1107 C1105 1.413 . S
C1107 C1106 1.367 . S
C1107 H1109 0.930 . S
H1108 C1101 0.930 . S
H1109 C1107 0.930 . S
H1110 C1098 0.930 . S
H1111 C1099 0.930 . S
H1112 C1105 0.929 . S
H1113 C1127 0.930 . S
H1114 C1106 0.930 . S
H1115 C1133 0.930 . S
H1116 C1124 0.929 . S
H1117 C1131 0.930 . S
H1118 C1095 0.931 . S
H1119 C1125 0.930 . S
H1120 C1158 0.930 . S
H1121 C1102 0.930 . S
H1122 C1157 0.931 . S
N1123 Eu1092 2.657 . S
N1123 C1124 1.334 . S
N1123 C1128 1.362 . S
C1124 H1116 0.929 . S
C1124 N1123 1.334 . S
C1124 C1127 1.413 . S
C1125 H1119 0.930 . S
C1125 C1126 1.392 . S
C1125 C1127 1.367 . S
C1126 C1125 1.392 . S
C1126 C1128 1.420 . S
C1126 C1158 1.423 . S
C1127 H1113 0.930 . S
C1127 C1124 1.413 . S
C1127 C1125 1.367 . S
C1128 N1123 1.362 . S
C1128 C1126 1.420 . S
C1128 C1132 1.429 . S
H1129 C1134 0.930 . S
N1130 Eu1092 2.609 . S
N1130 C1132 1.377 . S
N1130 C1133 1.321 . S
C1131 H1117 0.930 . S
C1131 C1133 1.400 . S
C1131 C1134 1.386 . S
C1132 C1128 1.429 . S
C1132 N1130 1.377 . S
C1132 C1135 1.411 . S
C1133 H1115 0.930 . S
C1133 N1130 1.321 . S
C1133 C1131 1.400 . S
C1134 H1129 0.930 . S
C1134 C1131 1.386 . S
C1134 C1135 1.395 . S
C1135 C1132 1.411 . S
C1135 C1134 1.395 . S
C1135 C1157 1.420 . S
O1136 Eu1092 2.558 . S
O1136 C1156 1.257 . S
O1137 Eu1092 2.612 . S
O1137 Eu1103 2.380 . S
O1137 C1148 1.276 . S
O1138 Eu1103 2.432 . S
O1138 C1155 1.264 . S
O1139 Eu1092 2.339 . S
O1139 C1155 1.254 . S
O1140 Eu1092 2.563 . S
O1140 C1148 1.235 . S
O1141 Eu1092 2.419 . S
O1141 C1156 1.249 . S
O1142 Eu1103 2.558 . S
O1142 C1167 1.257 . S
O1143 Eu1092 2.380 . S
O1143 Eu1103 2.612 . S
O1143 C1159 1.276 . S
O1144 Eu1092 2.432 . S
O1144 C1166 1.264 . S
O1145 Eu1103 2.339 . S
O1145 C1166 1.254 . S
O1146 Eu1103 2.563 . S
O1146 C1159 1.235 . S
O1147 Eu1103 2.419 . S
O1147 C1167 1.249 . S
C1148 O1137 1.276 . S
C1148 O1140 1.235 . S
C1149 C1151 1.393 . S
C1149 C1153 1.395 . S
C1149 C1156 1.492 . S
C1150 C1151 1.392 . S
C1150 C1152 1.386 . S
C1151 C1149 1.393 . S
C1151 C1150 1.392 . S
C1151 H1168 0.930 . S
C1152 C1150 1.386 . S
C1152 C1154 1.395 . S
C1152 H1169 0.930 . S
C1153 C1149 1.395 . S
C1153 C1154 1.379 . S
C1153 H1170 0.930 . S
C1154 C1152 1.395 . S
C1154 C1153 1.379 . S
C1154 H1171 0.930 . S
C1155 O1138 1.264 . S
C1155 O1139 1.254 . S
C1156 Eu1092 2.848 . S
C1156 O1136 1.257 . S
C1156 O1141 1.249 . S
C1156 C1149 1.492 . S
C1157 H1122 0.931 . S
C1157 C1135 1.420 . S
C1157 C1158 1.351 . S
C1158 H1120 0.930 . S
C1158 C1126 1.423 . S
C1158 C1157 1.351 . S
C1159 O1143 1.276 . S
C1159 O1146 1.235 . S
C1160 C1161 1.393 . S
C1160 C1164 1.395 . S
C1160 C1167 1.492 . S
C1161 C1160 1.393 . S
C1161 C1162 1.392 . S
C1161 H1172 0.930 . S
C1162 C1161 1.392 . S
C1162 C1163 1.386 . S
C1163 C1162 1.386 . S
C1163 C1165 1.395 . S
C1163 H1173 0.930 . S
C1164 C1160 1.395 . S
C1164 C1165 1.379 . S
C1164 H1174 0.930 . S
C1165 C1163 1.395 . S
C1165 C1164 1.379 . S
C1165 H1175 0.930 . S
C1166 O1144 1.264 . S
C1166 O1145 1.254 . S
C1167 Eu1103 2.848 . S
C1167 O1142 1.257 . S
C1167 O1147 1.249 . S
C1167 C1160 1.492 . S
H1168 C1151 0.930 . S
H1169 C1152 0.930 . S
H1170 C1153 0.930 . S
H1171 C1154 0.930 . S
H1172 C1161 0.930 . S
H1173 C1163 0.930 . S
H1174 C1164 0.930 . S
H1175 C1165 0.930 . S
Eu1176 N1207 2.657 . S
Eu1176 N1214 2.609 . S
Eu1176 O1220 2.558 . S
Eu1176 O1221 2.612 . S
Eu1176 O1223 2.339 . S
Eu1176 O1224 2.563 . S
Eu1176 O1225 2.419 . S
Eu1176 O1227 2.380 . S
Eu1176 O1228 2.432 . S
Eu1176 C1240 2.848 . S
C1177 C1180 1.429 . S
C1177 C1181 1.411 1_455 S
C1177 N1184 1.377 . S
C1178 C1180 1.420 1_655 S
C1178 C1182 1.423 . S
C1178 C1190 1.392 . S
C1179 C1181 1.420 . S
C1179 C1182 1.351 . S
C1179 H1202 0.931 . S
C1180 C1177 1.429 . S
C1180 C1178 1.420 1_455 S
C1180 N1188 1.362 . S
C1181 C1177 1.411 1_655 S
C1181 C1179 1.420 . S
C1181 C1186 1.395 . S
C1182 C1178 1.423 . S
C1182 C1179 1.351 . S
C1182 H1194 0.930 . S
C1183 C1185 1.400 . S
C1183 C1186 1.386 1_455 S
C1183 H1195 0.930 . S
N1184 C1177 1.377 . S
N1184 C1185 1.321 . S
N1184 Eu1187 2.609 . S
C1185 C1183 1.400 . S
C1185 N1184 1.321 . S
C1185 H1192 0.930 . S
C1186 C1181 1.395 . S
C1186 C1183 1.386 1_655 S
C1186 H1205 0.930 . S
Eu1187 N1184 2.609 . S
Eu1187 N1188 2.657 . S
Eu1187 O1221 2.380 . S
Eu1187 O1222 2.432 . S
Eu1187 O1226 2.558 . S
Eu1187 O1227 2.612 . S
Eu1187 O1229 2.339 . S
Eu1187 O1230 2.563 . S
Eu1187 O1231 2.419 . S
Eu1187 C1251 2.848 . S
N1188 C1180 1.362 . S
N1188 Eu1187 2.657 . S
N1188 C1189 1.334 . S
C1189 N1188 1.334 . S
C1189 C1191 1.413 1_455 S
C1189 H1196 0.929 . S
C1190 C1178 1.392 . S
C1190 C1191 1.367 . S
C1190 H1198 0.930 . S
C1191 C1189 1.413 1_655 S
C1191 C1190 1.367 . S
C1191 H1193 0.930 . S
H1192 C1185 0.930 . S
H1193 C1191 0.930 . S
H1194 C1182 0.930 . S
H1195 C1183 0.930 . S
H1196 C1189 0.929 . S
H1197 C1211 0.930 . S
H1198 C1190 0.930 . S
H1199 C1217 0.930 . S
H1200 C1208 0.929 . S
H1201 C1215 0.930 . S
H1202 C1179 0.931 . S
H1203 C1209 0.930 . S
H1204 C1242 0.930 . S
H1205 C1186 0.930 . S
H1206 C1241 0.931 . S
N1207 Eu1176 2.657 . S
N1207 C1208 1.334 . S
N1207 C1212 1.362 . S
C1208 H1200 0.929 . S
C1208 N1207 1.334 . S
C1208 C1211 1.413 . S
C1209 H1203 0.930 . S
C1209 C1210 1.392 . S
C1209 C1211 1.367 . S
C1210 C1209 1.392 . S
C1210 C1212 1.420 . S
C1210 C1242 1.423 . S
C1211 H1197 0.930 . S
C1211 C1208 1.413 . S
C1211 C1209 1.367 . S
C1212 N1207 1.362 . S
C1212 C1210 1.420 . S
C1212 C1216 1.429 . S
H1213 C1218 0.930 . S
N1214 Eu1176 2.609 . S
N1214 C1216 1.377 . S
N1214 C1217 1.321 . S
C1215 H1201 0.930 . S
C1215 C1217 1.400 . S
C1215 C1218 1.386 . S
C1216 C1212 1.429 . S
C1216 N1214 1.377 . S
C1216 C1219 1.411 . S
C1217 H1199 0.930 . S
C1217 N1214 1.321 . S
C1217 C1215 1.400 . S
C1218 H1213 0.930 . S
C1218 C1215 1.386 . S
C1218 C1219 1.395 . S
C1219 C1216 1.411 . S
C1219 C1218 1.395 . S
C1219 C1241 1.420 . S
O1220 Eu1176 2.558 . S
O1220 C1240 1.257 . S
O1221 Eu1176 2.612 . S
O1221 Eu1187 2.380 . S
O1221 C1232 1.276 . S
O1222 Eu1187 2.432 . S
O1222 C1239 1.264 . S
O1223 Eu1176 2.339 . S
O1223 C1239 1.254 . S
O1224 Eu1176 2.563 . S
O1224 C1232 1.235 . S
O1225 Eu1176 2.419 . S
O1225 C1240 1.249 . S
O1226 Eu1187 2.558 . S
O1226 C1251 1.257 . S
O1227 Eu1176 2.380 . S
O1227 Eu1187 2.612 . S
O1227 C1243 1.276 . S
O1228 Eu1176 2.432 . S
O1228 C1250 1.264 . S
O1229 Eu1187 2.339 . S
O1229 C1250 1.254 . S
O1230 Eu1187 2.563 . S
O1230 C1243 1.235 . S
O1231 Eu1187 2.419 . S
O1231 C1251 1.249 . S
C1232 O1221 1.276 . S
C1232 O1224 1.235 . S
C1233 C1235 1.393 . S
C1233 C1237 1.395 . S
C1233 C1240 1.492 . S
C1234 C1235 1.392 . S
C1234 C1236 1.386 . S
C1235 C1233 1.393 . S
C1235 C1234 1.392 . S
C1235 H1252 0.930 . S
C1236 C1234 1.386 . S
C1236 C1238 1.395 . S
C1236 H1253 0.930 . S
C1237 C1233 1.395 . S
C1237 C1238 1.379 . S
C1237 H1254 0.930 . S
C1238 C1236 1.395 . S
C1238 C1237 1.379 . S
C1238 H1255 0.930 . S
C1239 O1222 1.264 . S
C1239 O1223 1.254 . S
C1240 Eu1176 2.848 . S
C1240 O1220 1.257 . S
C1240 O1225 1.249 . S
C1240 C1233 1.492 . S
C1241 H1206 0.931 . S
C1241 C1219 1.420 . S
C1241 C1242 1.351 . S
C1242 H1204 0.930 . S
C1242 C1210 1.423 . S
C1242 C1241 1.351 . S
C1243 O1227 1.276 . S
C1243 O1230 1.235 . S
C1244 C1245 1.393 . S
C1244 C1248 1.395 . S
C1244 C1251 1.492 . S
C1245 C1244 1.393 . S
C1245 C1246 1.392 . S
C1245 H1256 0.930 . S
C1246 C1245 1.392 . S
C1246 C1247 1.386 . S
C1247 C1246 1.386 . S
C1247 C1249 1.395 . S
C1247 H1257 0.930 . S
C1248 C1244 1.395 . S
C1248 C1249 1.379 . S
C1248 H1258 0.930 . S
C1249 C1247 1.395 . S
C1249 C1248 1.379 . S
C1249 H1259 0.930 . S
C1250 O1228 1.264 . S
C1250 O1229 1.254 . S
C1251 Eu1187 2.848 . S
C1251 O1226 1.257 . S
C1251 O1231 1.249 . S
C1251 C1244 1.492 . S
H1252 C1235 0.930 . S
H1253 C1236 0.930 . S
H1254 C1237 0.930 . S
H1255 C1238 0.930 . S
H1256 C1245 0.930 . S
H1257 C1247 0.930 . S
H1258 C1248 0.930 . S
H1259 C1249 0.930 . S
Eu1260 N1291 2.657 . S
Eu1260 N1298 2.609 . S
Eu1260 O1304 2.558 . S
Eu1260 O1305 2.612 . S
Eu1260 O1307 2.339 . S
Eu1260 O1308 2.563 . S
Eu1260 O1309 2.419 . S
Eu1260 O1311 2.380 . S
Eu1260 O1312 2.432 . S
Eu1260 C1324 2.848 . S
C1261 C1264 1.429 . S
C1261 C1265 1.411 . S
C1261 N1268 1.377 . S
C1262 C1264 1.420 . S
C1262 C1266 1.423 . S
C1262 C1274 1.392 . S
C1263 C1265 1.420 . S
C1263 C1266 1.351 . S
C1263 H1286 0.931 . S
C1264 C1261 1.429 . S
C1264 C1262 1.420 . S
C1264 N1272 1.362 . S
C1265 C1261 1.411 . S
C1265 C1263 1.420 . S
C1265 C1270 1.395 . S
C1266 C1262 1.423 . S
C1266 C1263 1.351 . S
C1266 H1278 0.930 . S
C1267 C1269 1.400 . S
C1267 C1270 1.386 . S
C1267 H1279 0.930 . S
N1268 C1261 1.377 . S
N1268 C1269 1.321 . S
N1268 Eu1271 2.609 . S
C1269 C1267 1.400 . S
C1269 N1268 1.321 . S
C1269 H1276 0.930 . S
C1270 C1265 1.395 . S
C1270 C1267 1.386 . S
C1270 H1289 0.930 . S
Eu1271 N1268 2.609 . S
Eu1271 N1272 2.657 . S
Eu1271 O1305 2.380 . S
Eu1271 O1306 2.432 . S
Eu1271 O1310 2.558 . S
Eu1271 O1311 2.612 . S
Eu1271 O1313 2.339 . S
Eu1271 O1314 2.563 . S
Eu1271 O1315 2.419 . S
Eu1271 C1335 2.848 . S
N1272 C1264 1.362 . S
N1272 Eu1271 2.657 . S
N1272 C1273 1.334 . S
C1273 N1272 1.334 . S
C1273 C1275 1.413 . S
C1273 H1280 0.929 . S
C1274 C1262 1.392 . S
C1274 C1275 1.367 . S
C1274 H1282 0.930 . S
C1275 C1273 1.413 . S
C1275 C1274 1.367 . S
C1275 H1277 0.930 . S
H1276 C1269 0.930 . S
H1277 C1275 0.930 . S
H1278 C1266 0.930 . S
H1279 C1267 0.930 . S
H1280 C1273 0.929 . S
H1281 C1295 0.930 . S
H1282 C1274 0.930 . S
H1283 C1301 0.930 . S
H1284 C1292 0.929 . S
H1285 C1299 0.930 . S
H1286 C1263 0.931 . S
H1287 C1293 0.930 . S
H1288 C1326 0.930 . S
H1289 C1270 0.930 . S
H1290 C1325 0.931 . S
N1291 Eu1260 2.657 . S
N1291 C1292 1.334 . S
N1291 C1296 1.362 . S
C1292 H1284 0.929 . S
C1292 N1291 1.334 . S
C1292 C1295 1.413 . S
C1293 H1287 0.930 . S
C1293 C1294 1.392 . S
C1293 C1295 1.367 . S
C1294 C1293 1.392 . S
C1294 C1296 1.420 . S
C1294 C1326 1.423 . S
C1295 H1281 0.930 . S
C1295 C1292 1.413 . S
C1295 C1293 1.367 . S
C1296 N1291 1.362 . S
C1296 C1294 1.420 . S
C1296 C1300 1.429 . S
H1297 C1302 0.930 . S
N1298 Eu1260 2.609 . S
N1298 C1300 1.377 . S
N1298 C1301 1.321 . S
C1299 H1285 0.930 . S
C1299 C1301 1.400 . S
C1299 C1302 1.386 . S
C1300 C1296 1.429 . S
C1300 N1298 1.377 . S
C1300 C1303 1.411 . S
C1301 H1283 0.930 . S
C1301 N1298 1.321 . S
C1301 C1299 1.400 . S
C1302 H1297 0.930 . S
C1302 C1299 1.386 . S
C1302 C1303 1.395 . S
C1303 C1300 1.411 . S
C1303 C1302 1.395 . S
C1303 C1325 1.420 . S
O1304 Eu1260 2.558 . S
O1304 C1324 1.257 . S
O1305 Eu1260 2.612 . S
O1305 Eu1271 2.380 . S
O1305 C1316 1.276 . S
O1306 Eu1271 2.432 . S
O1306 C1323 1.264 . S
O1307 Eu1260 2.339 . S
O1307 C1323 1.254 . S
O1308 Eu1260 2.563 . S
O1308 C1316 1.235 . S
O1309 Eu1260 2.419 . S
O1309 C1324 1.249 . S
O1310 Eu1271 2.558 . S
O1310 C1335 1.257 . S
O1311 Eu1260 2.380 . S
O1311 Eu1271 2.612 . S
O1311 C1327 1.276 . S
O1312 Eu1260 2.432 . S
O1312 C1334 1.264 . S
O1313 Eu1271 2.339 . S
O1313 C1334 1.254 . S
O1314 Eu1271 2.563 . S
O1314 C1327 1.235 . S
O1315 Eu1271 2.419 . S
O1315 C1335 1.249 . S
C1316 O1305 1.276 . S
C1316 O1308 1.235 . S
C1317 C1319 1.393 . S
C1317 C1321 1.395 . S
C1317 C1324 1.492 . S
C1318 C1319 1.392 . S
C1318 C1320 1.386 . S
C1319 C1317 1.393 . S
C1319 C1318 1.392 . S
C1319 H1336 0.930 . S
C1320 C1318 1.386 . S
C1320 C1322 1.395 . S
C1320 H1337 0.930 . S
C1321 C1317 1.395 . S
C1321 C1322 1.379 . S
C1321 H1338 0.930 . S
C1322 C1320 1.395 . S
C1322 C1321 1.379 . S
C1322 H1339 0.930 . S
C1323 O1306 1.264 . S
C1323 O1307 1.254 . S
C1324 Eu1260 2.848 . S
C1324 O1304 1.257 . S
C1324 O1309 1.249 . S
C1324 C1317 1.492 . S
C1325 H1290 0.931 . S
C1325 C1303 1.420 . S
C1325 C1326 1.351 . S
C1326 H1288 0.930 . S
C1326 C1294 1.423 . S
C1326 C1325 1.351 . S
C1327 O1311 1.276 . S
C1327 O1314 1.235 . S
C1328 C1329 1.393 . S
C1328 C1332 1.395 . S
C1328 C1335 1.492 . S
C1329 C1328 1.393 . S
C1329 C1330 1.392 . S
C1329 H1340 0.930 . S
C1330 C1329 1.392 . S
C1330 C1331 1.386 . S
C1331 C1330 1.386 . S
C1331 C1333 1.395 . S
C1331 H1341 0.930 . S
C1332 C1328 1.395 . S
C1332 C1333 1.379 . S
C1332 H1342 0.930 . S
C1333 C1331 1.395 . S
C1333 C1332 1.379 . S
C1333 H1343 0.930 . S
C1334 O1312 1.264 . S
C1334 O1313 1.254 . S
C1335 Eu1271 2.848 . S
C1335 O1310 1.257 . S
C1335 O1315 1.249 . S
C1335 C1328 1.492 . S
H1336 C1319 0.930 . S
H1337 C1320 0.930 . S
H1338 C1321 0.930 . S
H1339 C1322 0.930 . S
H1340 C1329 0.930 . S
H1341 C1331 0.930 . S
H1342 C1332 0.930 . S
H1343 C1333 0.930 . S
Eu1344 N1375 2.657 . S
Eu1344 N1382 2.609 . S
Eu1344 O1388 2.558 . S
Eu1344 O1389 2.612 . S
Eu1344 O1391 2.339 . S
Eu1344 O1392 2.563 . S
Eu1344 O1393 2.419 . S
Eu1344 O1395 2.380 . S
Eu1344 O1396 2.432 . S
Eu1344 C1408 2.848 . S
C1345 C1348 1.429 . S
C1345 C1349 1.411 . S
C1345 N1352 1.377 . S
C1346 C1348 1.420 . S
C1346 C1350 1.423 . S
C1346 C1358 1.392 . S
C1347 C1349 1.420 . S
C1347 C1350 1.351 . S
C1347 H1370 0.931 . S
C1348 C1345 1.429 . S
C1348 C1346 1.420 . S
C1348 N1356 1.362 . S
C1349 C1345 1.411 . S
C1349 C1347 1.420 . S
C1349 C1354 1.395 . S
C1350 C1346 1.423 . S
C1350 C1347 1.351 . S
C1350 H1362 0.930 . S
C1351 C1353 1.400 . S
C1351 C1354 1.386 . S
C1351 H1363 0.930 . S
N1352 C1345 1.377 . S
N1352 C1353 1.321 . S
N1352 Eu1355 2.609 . S
C1353 C1351 1.400 . S
C1353 N1352 1.321 . S
C1353 H1360 0.930 . S
C1354 C1349 1.395 . S
C1354 C1351 1.386 . S
C1354 H1373 0.930 . S
Eu1355 N1352 2.609 . S
Eu1355 N1356 2.657 . S
Eu1355 O1389 2.380 . S
Eu1355 O1390 2.432 . S
Eu1355 O1394 2.558 . S
Eu1355 O1395 2.612 . S
Eu1355 O1397 2.339 . S
Eu1355 O1398 2.563 . S
Eu1355 O1399 2.419 . S
Eu1355 C1419 2.848 . S
N1356 C1348 1.362 . S
N1356 Eu1355 2.657 . S
N1356 C1357 1.334 . S
C1357 N1356 1.334 . S
C1357 C1359 1.413 . S
C1357 H1364 0.929 . S
C1358 C1346 1.392 . S
C1358 C1359 1.367 . S
C1358 H1366 0.930 . S
C1359 C1357 1.413 . S
C1359 C1358 1.367 . S
C1359 H1361 0.930 . S
H1360 C1353 0.930 . S
H1361 C1359 0.930 . S
H1362 C1350 0.930 . S
H1363 C1351 0.930 . S
H1364 C1357 0.929 . S
H1365 C1379 0.930 . S
H1366 C1358 0.930 . S
H1367 C1385 0.930 . S
H1368 C1376 0.929 . S
H1369 C1383 0.930 . S
H1370 C1347 0.931 . S
H1371 C1377 0.930 . S
H1372 C1410 0.930 . S
H1373 C1354 0.930 . S
H1374 C1409 0.931 . S
N1375 Eu1344 2.657 . S
N1375 C1376 1.334 . S
N1375 C1380 1.362 . S
C1376 H1368 0.929 . S
C1376 N1375 1.334 . S
C1376 C1379 1.413 . S
C1377 H1371 0.930 . S
C1377 C1378 1.392 . S
C1377 C1379 1.367 . S
C1378 C1377 1.392 . S
C1378 C1380 1.420 . S
C1378 C1410 1.423 . S
C1379 H1365 0.930 . S
C1379 C1376 1.413 . S
C1379 C1377 1.367 . S
C1380 N1375 1.362 . S
C1380 C1378 1.420 . S
C1380 C1384 1.429 . S
H1381 C1386 0.930 . S
N1382 Eu1344 2.609 . S
N1382 C1384 1.377 . S
N1382 C1385 1.321 . S
C1383 H1369 0.930 . S
C1383 C1385 1.400 . S
C1383 C1386 1.386 . S
C1384 C1380 1.429 . S
C1384 N1382 1.377 . S
C1384 C1387 1.411 . S
C1385 H1367 0.930 . S
C1385 N1382 1.321 . S
C1385 C1383 1.400 . S
C1386 H1381 0.930 . S
C1386 C1383 1.386 . S
C1386 C1387 1.395 . S
C1387 C1384 1.411 . S
C1387 C1386 1.395 . S
C1387 C1409 1.420 . S
O1388 Eu1344 2.558 . S
O1388 C1408 1.257 . S
O1389 Eu1344 2.612 . S
O1389 Eu1355 2.380 . S
O1389 C1400 1.276 . S
O1390 Eu1355 2.432 . S
O1390 C1407 1.264 . S
O1391 Eu1344 2.339 . S
O1391 C1407 1.254 . S
O1392 Eu1344 2.563 . S
O1392 C1400 1.235 . S
O1393 Eu1344 2.419 . S
O1393 C1408 1.249 . S
O1394 Eu1355 2.558 . S
O1394 C1419 1.257 . S
O1395 Eu1344 2.380 . S
O1395 Eu1355 2.612 . S
O1395 C1411 1.276 . S
O1396 Eu1344 2.432 . S
O1396 C1418 1.264 . S
O1397 Eu1355 2.339 . S
O1397 C1418 1.254 . S
O1398 Eu1355 2.563 . S
O1398 C1411 1.235 . S
O1399 Eu1355 2.419 . S
O1399 C1419 1.249 . S
C1400 O1389 1.276 . S
C1400 O1392 1.235 . S
C1401 C1403 1.393 . S
C1401 C1405 1.395 . S
C1401 C1408 1.492 . S
C1402 C1403 1.392 . S
C1402 C1404 1.386 . S
C1403 C1401 1.393 . S
C1403 C1402 1.392 . S
C1403 H1420 0.930 . S
C1404 C1402 1.386 . S
C1404 C1406 1.395 . S
C1404 H1421 0.930 . S
C1405 C1401 1.395 . S
C1405 C1406 1.379 . S
C1405 H1422 0.930 . S
C1406 C1404 1.395 . S
C1406 C1405 1.379 . S
C1406 H1423 0.930 . S
C1407 O1390 1.264 . S
C1407 O1391 1.254 . S
C1408 Eu1344 2.848 . S
C1408 O1388 1.257 . S
C1408 O1393 1.249 . S
C1408 C1401 1.492 . S
C1409 H1374 0.931 . S
C1409 C1387 1.420 . S
C1409 C1410 1.351 . S
C1410 H1372 0.930 . S
C1410 C1378 1.423 . S
C1410 C1409 1.351 . S
C1411 O1395 1.276 . S
C1411 O1398 1.235 . S
C1412 C1413 1.393 . S
C1412 C1416 1.395 . S
C1412 C1419 1.492 . S
C1413 C1412 1.393 . S
C1413 C1414 1.392 . S
C1413 H1424 0.930 . S
C1414 C1413 1.392 . S
C1414 C1415 1.386 . S
C1415 C1414 1.386 . S
C1415 C1417 1.395 . S
C1415 H1425 0.930 . S
C1416 C1412 1.395 . S
C1416 C1417 1.379 . S
C1416 H1426 0.930 . S
C1417 C1415 1.395 . S
C1417 C1416 1.379 . S
C1417 H1427 0.930 . S
C1418 O1396 1.264 . S
C1418 O1397 1.254 . S
C1419 Eu1355 2.848 . S
C1419 O1394 1.257 . S
C1419 O1399 1.249 . S
C1419 C1412 1.492 . S
H1420 C1403 0.930 . S
H1421 C1404 0.930 . S
H1422 C1405 0.930 . S
H1423 C1406 0.930 . S
H1424 C1413 0.930 . S
H1425 C1415 0.930 . S
H1426 C1416 0.930 . S
H1427 C1417 0.930 . S
Eu1428 N1459 2.657 . S
Eu1428 N1466 2.609 . S
Eu1428 O1472 2.558 . S
Eu1428 O1473 2.612 . S
Eu1428 O1475 2.339 . S
Eu1428 O1476 2.563 . S
Eu1428 O1477 2.419 . S
Eu1428 O1479 2.380 . S
Eu1428 O1480 2.432 . S
Eu1428 C1492 2.848 . S
C1429 C1432 1.429 . S
C1429 C1433 1.411 . S
C1429 N1436 1.377 . S
C1430 C1432 1.420 . S
C1430 C1434 1.423 . S
C1430 C1442 1.392 . S
C1431 C1433 1.420 . S
C1431 C1434 1.351 . S
C1431 H1454 0.931 . S
C1432 C1429 1.429 . S
C1432 C1430 1.420 . S
C1432 N1440 1.362 . S
C1433 C1429 1.411 . S
C1433 C1431 1.420 . S
C1433 C1438 1.395 . S
C1434 C1430 1.423 . S
C1434 C1431 1.351 . S
C1434 H1446 0.930 . S
C1435 C1437 1.400 . S
C1435 C1438 1.386 . S
C1435 H1447 0.930 . S
N1436 C1429 1.377 . S
N1436 C1437 1.321 . S
N1436 Eu1439 2.609 . S
C1437 C1435 1.400 . S
C1437 N1436 1.321 . S
C1437 H1444 0.930 . S
C1438 C1433 1.395 . S
C1438 C1435 1.386 . S
C1438 H1457 0.930 . S
Eu1439 N1436 2.609 . S
Eu1439 N1440 2.657 . S
Eu1439 O1473 2.380 . S
Eu1439 O1474 2.432 . S
Eu1439 O1478 2.558 . S
Eu1439 O1479 2.612 . S
Eu1439 O1481 2.339 . S
Eu1439 O1482 2.563 . S
Eu1439 O1483 2.419 . S
Eu1439 C1503 2.848 . S
N1440 C1432 1.362 . S
N1440 Eu1439 2.657 . S
N1440 C1441 1.334 . S
C1441 N1440 1.334 . S
C1441 C1443 1.413 . S
C1441 H1448 0.929 . S
C1442 C1430 1.392 . S
C1442 C1443 1.367 . S
C1442 H1450 0.930 . S
C1443 C1441 1.413 . S
C1443 C1442 1.367 . S
C1443 H1445 0.930 . S
H1444 C1437 0.930 . S
H1445 C1443 0.930 . S
H1446 C1434 0.930 . S
H1447 C1435 0.930 . S
H1448 C1441 0.929 . S
H1449 C1463 0.930 . S
H1450 C1442 0.930 . S
H1451 C1469 0.930 . S
H1452 C1460 0.929 . S
H1453 C1467 0.930 . S
H1454 C1431 0.931 . S
H1455 C1461 0.930 . S
H1456 C1494 0.930 . S
H1457 C1438 0.930 . S
H1458 C1493 0.931 . S
N1459 Eu1428 2.657 . S
N1459 C1460 1.334 . S
N1459 C1464 1.362 . S
C1460 H1452 0.929 . S
C1460 N1459 1.334 . S
C1460 C1463 1.413 . S
C1461 H1455 0.930 . S
C1461 C1462 1.392 . S
C1461 C1463 1.367 . S
C1462 C1461 1.392 . S
C1462 C1464 1.420 . S
C1462 C1494 1.423 . S
C1463 H1449 0.930 . S
C1463 C1460 1.413 . S
C1463 C1461 1.367 . S
C1464 N1459 1.362 . S
C1464 C1462 1.420 . S
C1464 C1468 1.429 . S
H1465 C1470 0.930 . S
N1466 Eu1428 2.609 . S
N1466 C1468 1.377 . S
N1466 C1469 1.321 . S
C1467 H1453 0.930 . S
C1467 C1469 1.400 . S
C1467 C1470 1.386 . S
C1468 C1464 1.429 . S
C1468 N1466 1.377 . S
C1468 C1471 1.411 . S
C1469 H1451 0.930 . S
C1469 N1466 1.321 . S
C1469 C1467 1.400 . S
C1470 H1465 0.930 . S
C1470 C1467 1.386 . S
C1470 C1471 1.395 . S
C1471 C1468 1.411 . S
C1471 C1470 1.395 . S
C1471 C1493 1.420 . S
O1472 Eu1428 2.558 . S
O1472 C1492 1.257 . S
O1473 Eu1428 2.612 . S
O1473 Eu1439 2.380 . S
O1473 C1484 1.276 . S
O1474 Eu1439 2.432 . S
O1474 C1491 1.264 . S
O1475 Eu1428 2.339 . S
O1475 C1491 1.254 . S
O1476 Eu1428 2.563 . S
O1476 C1484 1.235 . S
O1477 Eu1428 2.419 . S
O1477 C1492 1.249 . S
O1478 Eu1439 2.558 . S
O1478 C1503 1.257 . S
O1479 Eu1428 2.380 . S
O1479 Eu1439 2.612 . S
O1479 C1495 1.276 . S
O1480 Eu1428 2.432 . S
O1480 C1502 1.264 . S
O1481 Eu1439 2.339 . S
O1481 C1502 1.254 . S
O1482 Eu1439 2.563 . S
O1482 C1495 1.235 . S
O1483 Eu1439 2.419 . S
O1483 C1503 1.249 . S
C1484 O1473 1.276 . S
C1484 O1476 1.235 . S
C1485 C1487 1.393 . S
C1485 C1489 1.395 . S
C1485 C1492 1.492 . S
C1486 C1487 1.392 . S
C1486 C1488 1.386 . S
C1487 C1485 1.393 . S
C1487 C1486 1.392 . S
C1487 H1504 0.930 . S
C1488 C1486 1.386 . S
C1488 C1490 1.395 . S
C1488 H1505 0.930 . S
C1489 C1485 1.395 . S
C1489 C1490 1.379 . S
C1489 H1506 0.930 . S
C1490 C1488 1.395 . S
C1490 C1489 1.379 . S
C1490 H1507 0.930 . S
C1491 O1474 1.264 . S
C1491 O1475 1.254 . S
C1492 Eu1428 2.848 . S
C1492 O1472 1.257 . S
C1492 O1477 1.249 . S
C1492 C1485 1.492 . S
C1493 H1458 0.931 . S
C1493 C1471 1.420 . S
C1493 C1494 1.351 . S
C1494 H1456 0.930 . S
C1494 C1462 1.423 . S
C1494 C1493 1.351 . S
C1495 O1479 1.276 . S
C1495 O1482 1.235 . S
C1496 C1497 1.393 . S
C1496 C1500 1.395 . S
C1496 C1503 1.492 . S
C1497 C1496 1.393 . S
C1497 C1498 1.392 . S
C1497 H1508 0.930 . S
C1498 C1497 1.392 . S
C1498 C1499 1.386 . S
C1499 C1498 1.386 . S
C1499 C1501 1.395 . S
C1499 H1509 0.930 . S
C1500 C1496 1.395 . S
C1500 C1501 1.379 . S
C1500 H1510 0.930 . S
C1501 C1499 1.395 . S
C1501 C1500 1.379 . S
C1501 H1511 0.930 . S
C1502 O1480 1.264 . S
C1502 O1481 1.254 . S
C1503 Eu1439 2.848 . S
C1503 O1478 1.257 . S
C1503 O1483 1.249 . S
C1503 C1496 1.492 . S
H1504 C1487 0.930 . S
H1505 C1488 0.930 . S
H1506 C1489 0.930 . S
H1507 C1490 0.930 . S
H1508 C1497 0.930 . S
H1509 C1499 0.930 . S
H1510 C1500 0.930 . S
H1511 C1501 0.930 . S
Eu1512 N1543 2.657 . S
Eu1512 N1550 2.609 . S
Eu1512 O1556 2.558 . S
Eu1512 O1557 2.612 . S
Eu1512 O1559 2.339 . S
Eu1512 O1560 2.563 . S
Eu1512 O1561 2.419 . S
Eu1512 O1563 2.380 . S
Eu1512 O1564 2.432 . S
Eu1512 C1576 2.848 . S
C1513 C1516 1.429 . S
C1513 C1517 1.411 . S
C1513 N1520 1.377 . S
C1514 C1516 1.420 . S
C1514 C1518 1.423 . S
C1514 C1526 1.392 . S
C1515 C1517 1.420 . S
C1515 C1518 1.351 . S
C1515 H1538 0.931 . S
C1516 C1513 1.429 . S
C1516 C1514 1.420 . S
C1516 N1524 1.362 . S
C1517 C1513 1.411 . S
C1517 C1515 1.420 . S
C1517 C1522 1.395 . S
C1518 C1514 1.423 . S
C1518 C1515 1.351 . S
C1518 H1530 0.930 . S
C1519 C1521 1.400 . S
C1519 C1522 1.386 . S
C1519 H1531 0.930 . S
N1520 C1513 1.377 . S
N1520 C1521 1.321 . S
N1520 Eu1523 2.609 . S
C1521 C1519 1.400 . S
C1521 N1520 1.321 . S
C1521 H1528 0.930 . S
C1522 C1517 1.395 . S
C1522 C1519 1.386 . S
C1522 H1541 0.930 . S
Eu1523 N1520 2.609 . S
Eu1523 N1524 2.657 . S
Eu1523 O1557 2.380 . S
Eu1523 O1558 2.432 . S
Eu1523 O1562 2.558 . S
Eu1523 O1563 2.612 . S
Eu1523 O1565 2.339 . S
Eu1523 O1566 2.563 . S
Eu1523 O1567 2.419 . S
Eu1523 C1587 2.848 . S
N1524 C1516 1.362 . S
N1524 Eu1523 2.657 . S
N1524 C1525 1.334 . S
C1525 N1524 1.334 . S
C1525 C1527 1.413 . S
C1525 H1532 0.929 . S
C1526 C1514 1.392 . S
C1526 C1527 1.367 . S
C1526 H1534 0.930 . S
C1527 C1525 1.413 . S
C1527 C1526 1.367 . S
C1527 H1529 0.930 . S
H1528 C1521 0.930 . S
H1529 C1527 0.930 . S
H1530 C1518 0.930 . S
H1531 C1519 0.930 . S
H1532 C1525 0.929 . S
H1533 C1547 0.930 . S
H1534 C1526 0.930 . S
H1535 C1553 0.930 . S
H1536 C1544 0.929 . S
H1537 C1551 0.930 . S
H1538 C1515 0.931 . S
H1539 C1545 0.930 . S
H1540 C1578 0.930 . S
H1541 C1522 0.930 . S
H1542 C1577 0.931 . S
N1543 Eu1512 2.657 . S
N1543 C1544 1.334 . S
N1543 C1548 1.362 . S
C1544 H1536 0.929 . S
C1544 N1543 1.334 . S
C1544 C1547 1.413 . S
C1545 H1539 0.930 . S
C1545 C1546 1.392 . S
C1545 C1547 1.367 . S
C1546 C1545 1.392 . S
C1546 C1548 1.420 . S
C1546 C1578 1.423 . S
C1547 H1533 0.930 . S
C1547 C1544 1.413 . S
C1547 C1545 1.367 . S
C1548 N1543 1.362 . S
C1548 C1546 1.420 . S
C1548 C1552 1.429 . S
H1549 C1554 0.930 . S
N1550 Eu1512 2.609 . S
N1550 C1552 1.377 . S
N1550 C1553 1.321 . S
C1551 H1537 0.930 . S
C1551 C1553 1.400 . S
C1551 C1554 1.386 . S
C1552 C1548 1.429 . S
C1552 N1550 1.377 . S
C1552 C1555 1.411 . S
C1553 H1535 0.930 . S
C1553 N1550 1.321 . S
C1553 C1551 1.400 . S
C1554 H1549 0.930 . S
C1554 C1551 1.386 . S
C1554 C1555 1.395 . S
C1555 C1552 1.411 . S
C1555 C1554 1.395 . S
C1555 C1577 1.420 . S
O1556 Eu1512 2.558 . S
O1556 C1576 1.257 . S
O1557 Eu1512 2.612 . S
O1557 Eu1523 2.380 . S
O1557 C1568 1.276 . S
O1558 Eu1523 2.432 . S
O1558 C1575 1.264 . S
O1559 Eu1512 2.339 . S
O1559 C1575 1.254 . S
O1560 Eu1512 2.563 . S
O1560 C1568 1.235 . S
O1561 Eu1512 2.419 . S
O1561 C1576 1.249 . S
O1562 Eu1523 2.558 . S
O1562 C1587 1.257 . S
O1563 Eu1512 2.380 . S
O1563 Eu1523 2.612 . S
O1563 C1579 1.276 . S
O1564 Eu1512 2.432 . S
O1564 C1586 1.264 . S
O1565 Eu1523 2.339 . S
O1565 C1586 1.254 . S
O1566 Eu1523 2.563 . S
O1566 C1579 1.235 . S
O1567 Eu1523 2.419 . S
O1567 C1587 1.249 . S
C1568 O1557 1.276 . S
C1568 O1560 1.235 . S
C1569 C1571 1.393 . S
C1569 C1573 1.395 . S
C1569 C1576 1.492 . S
C1570 C1571 1.392 . S
C1570 C1572 1.386 . S
C1571 C1569 1.393 . S
C1571 C1570 1.392 . S
C1571 H1588 0.930 . S
C1572 C1570 1.386 . S
C1572 C1574 1.395 . S
C1572 H1589 0.930 . S
C1573 C1569 1.395 . S
C1573 C1574 1.379 . S
C1573 H1590 0.930 . S
C1574 C1572 1.395 . S
C1574 C1573 1.379 . S
C1574 H1591 0.930 . S
C1575 O1558 1.264 . S
C1575 O1559 1.254 . S
C1576 Eu1512 2.848 . S
C1576 O1556 1.257 . S
C1576 O1561 1.249 . S
C1576 C1569 1.492 . S
C1577 H1542 0.931 . S
C1577 C1555 1.420 . S
C1577 C1578 1.351 . S
C1578 H1540 0.930 . S
C1578 C1546 1.423 . S
C1578 C1577 1.351 . S
C1579 O1563 1.276 . S
C1579 O1566 1.235 . S
C1580 C1581 1.393 . S
C1580 C1584 1.395 . S
C1580 C1587 1.492 . S
C1581 C1580 1.393 . S
C1581 C1582 1.392 . S
C1581 H1592 0.930 . S
C1582 C1581 1.392 . S
C1582 C1583 1.386 . S
C1583 C1582 1.386 . S
C1583 C1585 1.395 . S
C1583 H1593 0.930 . S
C1584 C1580 1.395 . S
C1584 C1585 1.379 . S
C1584 H1594 0.930 . S
C1585 C1583 1.395 . S
C1585 C1584 1.379 . S
C1585 H1595 0.930 . S
C1586 O1564 1.264 . S
C1586 O1565 1.254 . S
C1587 Eu1523 2.848 . S
C1587 O1562 1.257 . S
C1587 O1567 1.249 . S
C1587 C1580 1.492 . S
H1588 C1571 0.930 . S
H1589 C1572 0.930 . S
H1590 C1573 0.930 . S
H1591 C1574 0.930 . S
H1592 C1581 0.930 . S
H1593 C1583 0.930 . S
H1594 C1584 0.930 . S
H1595 C1585 0.930 . S
Eu1596 N1627 2.657 . S
Eu1596 N1634 2.609 1_554 S
Eu1596 O1640 2.558 1_554 S
Eu1596 O1641 2.612 . S
Eu1596 O1643 2.339 . S
Eu1596 O1644 2.563 . S
Eu1596 O1645 2.419 . S
Eu1596 O1647 2.380 . S
Eu1596 O1648 2.432 1_554 S
Eu1596 C1660 2.836 1_554 S
C1597 C1600 1.429 . S
C1597 C1601 1.411 . S
C1597 N1604 1.377 1_655 S
C1598 C1600 1.420 . S
C1598 C1602 1.423 . S
C1598 C1610 1.392 1_554 S
C1599 C1601 1.420 . S
C1599 C1602 1.351 . S
C1599 H1622 0.931 . S
C1600 C1597 1.429 . S
C1600 C1598 1.420 . S
C1600 N1608 1.362 1_655 S
C1601 C1597 1.411 . S
C1601 C1599 1.420 . S
C1601 C1606 1.395 . S
C1602 C1598 1.423 . S
C1602 C1599 1.351 . S
C1602 H1614 0.930 . S
C1603 C1605 1.400 . S
C1603 C1606 1.386 1_455 S
C1603 H1615 0.930 . S
N1604 C1597 1.377 1_455 S
N1604 C1605 1.321 . S
N1604 Eu1607 2.609 . S
C1605 C1603 1.400 . S
C1605 N1604 1.321 . S
C1605 H1612 0.930 . S
C1606 C1601 1.395 . S
C1606 C1603 1.386 1_655 S
C1606 H1625 0.930 . S
Eu1607 N1604 2.609 . S
Eu1607 N1608 2.657 . S
Eu1607 O1641 2.380 . S
Eu1607 O1642 2.432 . S
Eu1607 O1646 2.558 . S
Eu1607 O1647 2.612 . S
Eu1607 O1649 2.339 1_554 S
Eu1607 O1650 2.563 . S
Eu1607 O1651 2.419 1_455 S
Eu1607 C1671 2.848 1_455 S
N1608 C1600 1.362 1_455 S
N1608 Eu1607 2.657 . S
N1608 C1609 1.334 1_554 S
C1609 N1608 1.334 1_556 S
C1609 C1611 1.415 1_455 S
C1609 H1616 0.928 . S
C1610 C1598 1.392 1_556 S
C1610 C1611 1.367 . S
C1610 H1618 0.930 . S
C1611 C1609 1.415 1_655 S
C1611 C1610 1.367 . S
C1611 H1613 0.930 . S
H1612 C1605 0.930 . S
H1613 C1611 0.930 . S
H1614 C1602 0.930 . S
H1615 C1603 0.930 . S
H1616 C1609 0.928 . S
H1617 C1631 0.930 . S
H1618 C1610 0.930 . S
H1619 C1637 0.930 . S
H1620 C1628 0.929 . S
H1621 C1635 0.930 . S
H1622 C1599 0.931 . S
H1623 C1629 0.930 . S
H1624 C1662 0.930 . S
H1625 C1606 0.930 . S
H1626 C1661 0.931 . S
N1627 Eu1596 2.657 . S
N1627 C1628 1.334 . S
N1627 C1632 1.362 . S
C1628 H1620 0.929 . S
C1628 N1627 1.334 . S
C1628 C1631 1.413 . S
C1629 H1623 0.930 . S
C1629 C1630 1.392 . S
C1629 C1631 1.367 . S
C1630 C1629 1.392 . S
C1630 C1632 1.420 . S
C1630 C1662 1.423 . S
C1631 H1617 0.930 . S
C1631 C1628 1.413 . S
C1631 C1629 1.367 . S
C1632 N1627 1.362 . S
C1632 C1630 1.420 . S
C1632 C1636 1.429 1_554 S
H1633 C1638 0.930 . S
N1634 Eu1596 2.609 1_556 S
N1634 C1636 1.377 . S
N1634 C1637 1.321 . S
C1635 H1621 0.930 . S
C1635 C1637 1.400 . S
C1635 C1638 1.386 . S
C1636 C1632 1.429 1_556 S
C1636 N1634 1.377 . S
C1636 C1639 1.411 . S
C1637 H1619 0.930 . S
C1637 N1634 1.321 . S
C1637 C1635 1.400 . S
C1638 H1633 0.930 . S
C1638 C1635 1.386 . S
C1638 C1639 1.395 . S
C1639 C1636 1.411 . S
C1639 C1638 1.395 . S
C1639 C1661 1.420 . S
O1640 Eu1596 2.558 1_556 S
O1640 C1660 1.296 . S
O1641 Eu1596 2.612 . S
O1641 Eu1607 2.380 . S
O1641 C1652 1.276 . S
O1642 Eu1607 2.432 . S
O1642 C1659 1.264 . S
O1643 Eu1596 2.339 . S
O1643 C1659 1.254 . S
O1644 Eu1596 2.563 . S
O1644 C1652 1.235 . S
O1645 Eu1596 2.419 . S
O1645 C1660 1.202 1_554 S
O1646 Eu1607 2.558 . S
O1646 C1671 1.257 1_455 S
O1647 Eu1596 2.380 . S
O1647 Eu1607 2.612 . S
O1647 C1663 1.276 . S
O1648 Eu1596 2.432 1_556 S
O1648 C1670 1.264 . S
O1649 Eu1607 2.339 1_556 S
O1649 C1670 1.254 . S
O1650 Eu1607 2.563 . S
O1650 C1663 1.235 . S
O1651 Eu1607 2.419 1_655 S
O1651 C1671 1.249 . S
C1652 O1641 1.276 . S
C1652 O1644 1.235 . S
C1653 C1655 1.393 1_556 S
C1653 C1657 1.395 . S
C1653 C1660 1.501 . S
C1654 C1655 1.392 . S
C1654 C1656 1.386 1_554 S
C1655 C1653 1.393 1_554 S
C1655 C1654 1.392 . S
C1655 H1672 0.930 . S
C1656 C1654 1.386 1_556 S
C1656 C1658 1.395 . S
C1656 H1673 0.930 . S
C1657 C1653 1.395 . S
C1657 C1658 1.379 . S
C1657 H1674 0.930 . S
C1658 C1656 1.395 . S
C1658 C1657 1.379 . S
C1658 H1675 0.930 . S
C1659 O1642 1.264 . S
C1659 O1643 1.254 . S
C1660 Eu1596 2.836 1_556 S
C1660 O1640 1.296 . S
C1660 O1645 1.202 1_556 S
C1660 C1653 1.501 . S
C1661 H1626 0.931 . S
C1661 C1639 1.420 . S
C1661 C1662 1.351 1_556 S
C1662 H1624 0.930 . S
C1662 C1630 1.423 . S
C1662 C1661 1.351 1_554 S
C1663 O1647 1.276 . S
C1663 O1650 1.235 . S
C1664 C1665 1.393 . S
C1664 C1668 1.395 . S
C1664 C1671 1.492 . S
C1665 C1664 1.393 . S
C1665 C1666 1.392 . S
C1665 H1676 0.930 . S
C1666 C1665 1.392 . S
C1666 C1667 1.386 . S
C1667 C1666 1.386 . S
C1667 C1669 1.395 . S
C1667 H1677 0.930 . S
C1668 C1664 1.395 . S
C1668 C1669 1.379 . S
C1668 H1678 0.930 . S
C1669 C1667 1.395 . S
C1669 C1668 1.379 . S
C1669 H1679 0.930 . S
C1670 O1648 1.264 . S
C1670 O1649 1.254 . S
C1671 Eu1607 2.848 1_655 S
C1671 O1646 1.257 1_655 S
C1671 O1651 1.249 . S
C1671 C1664 1.492 . S
H1672 C1655 0.930 . S
H1673 C1656 0.930 . S
H1674 C1657 0.930 . S
H1675 C1658 0.930 . S
H1676 C1665 0.930 . S
H1677 C1667 0.930 . S
H1678 C1668 0.930 . S
H1679 C1669 0.930 . S
H1680 C1688 0.929 1_655 S
H1681 C1690 0.930 1_655 S
H1682 C1692 0.930 . S
H1683 C1695 0.929 . S
H1684 C1698 0.930 . S
H1685 C1700 0.960 . S
H1686 C1700 0.960 . S
H1687 C1700 0.960 . S
C1688 H1680 0.929 1_455 S
C1688 C1689 1.377 . S
C1688 C1690 1.384 . S
C1689 C1688 1.377 . S
C1689 C1695 1.390 . S
C1690 H1681 0.930 1_455 S
C1690 C1688 1.384 . S
C1690 C1691 1.372 . S
C1691 C1690 1.372 . S
C1691 C1692 1.400 . S
C1691 C1696 1.490 . S
C1692 H1682 0.930 . S
C1692 C1691 1.400 . S
C1692 C1695 1.386 . S
H1693 C1709 0.930 . S
H1694 C1710 0.940 . S
C1695 H1683 0.929 . S
C1695 C1689 1.390 . S
C1695 C1692 1.386 . S
C1696 C1691 1.490 . S
C1696 C1698 1.395 . S
C1696 C1699 1.403 . S
H1697 C1703 0.930 . S
C1698 H1684 0.930 . S
C1698 C1696 1.395 . S
C1698 C1701 1.403 . S
C1699 C1696 1.403 . S
C1699 C1700 1.524 1_556 S
C1699 C1703 1.400 1_556 S
C1700 H1685 0.960 . S
C1700 H1686 0.960 . S
C1700 H1687 0.960 . S
C1700 C1699 1.524 1_554 S
C1701 C1698 1.403 . S
C1701 C1702 1.392 . S
C1701 C1705 1.495 . S
C1702 C1701 1.392 . S
C1702 C1703 1.385 1_556 S
C1702 C1704 1.478 . S
C1703 H1697 0.930 . S
C1703 C1699 1.400 1_554 S
C1703 C1702 1.385 1_554 S
C1704 C1702 1.478 . S
C1704 C1706 1.381 . S
C1704 C1710 1.383 1_556 S
C1705 C1701 1.495 . S
C1705 H1711 0.959 . S
C1705 H1712 0.961 . S
C1705 H1713 0.960 . S
C1706 C1704 1.381 . S
C1706 C1707 1.395 1_556 S
C1706 H1714 0.930 . S
C1707 C1706 1.395 1_554 S
C1707 C1708 1.383 . S
C1707 H1715 0.929 . S
C1708 C1707 1.383 . S
C1708 C1709 1.377 . S
C1709 H1693 0.930 . S
C1709 C1708 1.377 . S
C1709 C1710 1.379 . S
C1710 H1694 0.940 . S
C1710 C1704 1.383 1_554 S
C1710 C1709 1.379 . S
H1711 C1705 0.959 . S
H1712 C1705 0.961 . S
H1713 C1705 0.960 . S
H1714 C1706 0.930 . S
H1715 C1707 0.929 . S
H1716 C1724 0.929 . S
H1717 C1726 0.930 . S
H1718 C1728 0.930 . S
H1719 C1731 0.929 . S
H1720 C1734 0.930 . S
H1721 C1736 0.960 . S
H1722 C1736 0.960 . S
H1723 C1736 0.960 . S
C1724 H1716 0.929 . S
C1724 C1725 1.377 . S
C1724 C1726 1.384 . S
C1725 C1724 1.377 . S
C1725 C1731 1.390 . S
C1726 H1717 0.930 . S
C1726 C1724 1.384 . S
C1726 C1727 1.372 . S
C1727 C1726 1.372 . S
C1727 C1728 1.400 . S
C1727 C1732 1.490 . S
C1728 H1718 0.930 . S
C1728 C1727 1.400 . S
C1728 C1731 1.386 . S
H1729 C1745 0.930 . S
H1730 C1746 0.931 . S
C1731 H1719 0.929 . S
C1731 C1725 1.390 . S
C1731 C1728 1.386 . S
C1732 C1727 1.490 . S
C1732 C1734 1.395 . S
C1732 C1735 1.403 . S
H1733 C1739 0.930 . S
C1734 H1720 0.930 . S
C1734 C1732 1.395 . S
C1734 C1737 1.403 . S
C1735 C1732 1.403 . S
C1735 C1736 1.524 . S
C1735 C1739 1.400 . S
C1736 H1721 0.960 . S
C1736 H1722 0.960 . S
C1736 H1723 0.960 . S
C1736 C1735 1.524 . S
C1737 C1734 1.403 . S
C1737 C1738 1.392 . S
C1737 C1741 1.495 . S
C1738 C1737 1.392 . S
C1738 C1739 1.385 . S
C1738 C1740 1.478 . S
C1739 H1733 0.930 . S
C1739 C1735 1.400 . S
C1739 C1738 1.385 . S
C1740 C1738 1.478 . S
C1740 C1742 1.381 . S
C1740 C1746 1.383 . S
C1741 C1737 1.495 . S
C1741 H1747 0.959 . S
C1741 H1748 0.961 . S
C1741 H1749 0.960 . S
C1742 C1740 1.381 . S
C1742 C1743 1.394 . S
C1742 H1750 0.930 . S
C1743 C1742 1.394 . S
C1743 C1744 1.383 . S
C1743 H1751 0.929 . S
C1744 C1743 1.383 . S
C1744 C1745 1.377 . S
C1745 H1729 0.930 . S
C1745 C1744 1.377 . S
C1745 C1746 1.379 . S
C1746 H1730 0.931 . S
C1746 C1740 1.383 . S
C1746 C1745 1.379 . S
H1747 C1741 0.959 . S
H1748 C1741 0.961 . S
H1749 C1741 0.960 . S
H1750 C1742 0.930 . S
H1751 C1743 0.929 . S
H1752 C1760 0.929 . S
H1753 C1762 0.930 . S
H1754 C1764 0.930 . S
H1755 C1767 0.929 . S
H1756 C1770 0.930 . S
H1757 C1772 0.960 . S
H1758 C1772 0.960 . S
H1759 C1772 0.960 . S
C1760 H1752 0.929 . S
C1760 C1761 1.377 . S
C1760 C1762 1.384 . S
C1761 C1760 1.377 . S
C1761 C1767 1.390 . S
C1762 H1753 0.930 . S
C1762 C1760 1.384 . S
C1762 C1763 1.372 . S
C1763 C1762 1.372 . S
C1763 C1764 1.400 . S
C1763 C1768 1.490 . S
C1764 H1754 0.930 . S
C1764 C1763 1.400 . S
C1764 C1767 1.386 . S
H1765 C1781 0.930 . S
H1766 C1782 0.931 . S
C1767 H1755 0.929 . S
C1767 C1761 1.390 . S
C1767 C1764 1.386 . S
C1768 C1763 1.490 . S
C1768 C1770 1.395 . S
C1768 C1771 1.403 . S
H1769 C1775 0.930 . S
C1770 H1756 0.930 . S
C1770 C1768 1.395 . S
C1770 C1773 1.403 . S
C1771 C1768 1.403 . S
C1771 C1772 1.524 . S
C1771 C1775 1.400 . S
C1772 H1757 0.960 . S
C1772 H1758 0.960 . S
C1772 H1759 0.960 . S
C1772 C1771 1.524 . S
C1773 C1770 1.403 . S
C1773 C1774 1.392 . S
C1773 C1777 1.495 . S
C1774 C1773 1.392 . S
C1774 C1775 1.385 . S
C1774 C1776 1.478 . S
C1775 H1769 0.930 . S
C1775 C1771 1.400 . S
C1775 C1774 1.385 . S
C1776 C1774 1.478 . S
C1776 C1778 1.381 . S
C1776 C1782 1.383 . S
C1777 C1773 1.495 . S
C1777 H1783 0.959 . S
C1777 H1784 0.961 . S
C1777 H1785 0.960 . S
C1778 C1776 1.381 . S
C1778 C1779 1.394 . S
C1778 H1786 0.930 . S
C1779 C1778 1.394 . S
C1779 C1780 1.383 . S
C1779 H1787 0.929 . S
C1780 C1779 1.383 . S
C1780 C1781 1.377 . S
C1781 H1765 0.930 . S
C1781 C1780 1.377 . S
C1781 C1782 1.379 . S
C1782 H1766 0.931 . S
C1782 C1776 1.383 . S
C1782 C1781 1.379 . S
H1783 C1777 0.959 . S
H1784 C1777 0.961 . S
H1785 C1777 0.960 . S
H1786 C1778 0.930 . S
H1787 C1779 0.929 . S
H1788 C1796 0.929 . S
H1789 C1798 0.930 . S
H1790 C1800 0.930 . S
H1791 C1803 0.929 . S
H1792 C1806 0.930 . S
H1793 C1808 0.960 . S
H1794 C1808 0.960 . S
H1795 C1808 0.960 . S
C1796 H1788 0.929 . S
C1796 C1797 1.377 . S
C1796 C1798 1.384 . S
C1797 C1796 1.377 . S
C1797 C1803 1.390 . S
C1798 H1789 0.930 . S
C1798 C1796 1.384 . S
C1798 C1799 1.372 . S
C1799 C1798 1.372 . S
C1799 C1800 1.400 . S
C1799 C1804 1.490 . S
C1800 H1790 0.930 . S
C1800 C1799 1.400 . S
C1800 C1803 1.386 . S
H1801 C1817 0.930 . S
H1802 C1818 0.931 . S
C1803 H1791 0.929 . S
C1803 C1797 1.390 . S
C1803 C1800 1.386 . S
C1804 C1799 1.490 . S
C1804 C1806 1.395 . S
C1804 C1807 1.403 . S
H1805 C1811 0.930 . S
C1806 H1792 0.930 . S
C1806 C1804 1.395 . S
C1806 C1809 1.403 . S
C1807 C1804 1.403 . S
C1807 C1808 1.524 . S
C1807 C1811 1.400 . S
C1808 H1793 0.960 . S
C1808 H1794 0.960 . S
C1808 H1795 0.960 . S
C1808 C1807 1.524 . S
C1809 C1806 1.403 . S
C1809 C1810 1.392 . S
C1809 C1813 1.495 . S
C1810 C1809 1.392 . S
C1810 C1811 1.385 . S
C1810 C1812 1.478 . S
C1811 H1805 0.930 . S
C1811 C1807 1.400 . S
C1811 C1810 1.385 . S
C1812 C1810 1.478 . S
C1812 C1814 1.381 . S
C1812 C1818 1.383 . S
C1813 C1809 1.495 . S
C1813 H1819 0.959 . S
C1813 H1820 0.961 . S
C1813 H1821 0.960 . S
C1814 C1812 1.381 . S
C1814 C1815 1.394 . S
C1814 H1822 0.930 . S
C1815 C1814 1.394 . S
C1815 C1816 1.383 . S
C1815 H1823 0.929 . S
C1816 C1815 1.383 . S
C1816 C1817 1.377 . S
C1817 H1801 0.930 . S
C1817 C1816 1.377 . S
C1817 C1818 1.379 . S
C1818 H1802 0.931 . S
C1818 C1812 1.383 . S
C1818 C1817 1.379 . S
H1819 C1813 0.959 . S
H1820 C1813 0.961 . S
H1821 C1813 0.960 . S
H1822 C1814 0.930 . S
H1823 C1815 0.929 . S
H1824 C1832 0.929 . S
H1825 C1834 0.930 . S
H1826 C1836 0.980 . S
H1827 C1839 0.929 . S
H1828 C1842 0.930 . S
H1829 C1844 0.960 1_655 S
H1830 C1844 0.960 . S
H1831 C1844 0.960 1_655 S
C1832 H1824 0.929 . S
C1832 C1833 1.377 . S
C1832 C1834 1.384 . S
C1833 C1832 1.377 . S
C1833 C1839 1.390 1_455 S
C1834 H1825 0.930 . S
C1834 C1832 1.384 . S
C1834 C1835 1.372 . S
C1835 C1834 1.372 . S
C1835 C1836 1.345 1_455 S
C1835 C1840 1.490 . S
C1836 H1826 0.980 . S
C1836 C1835 1.345 1_655 S
C1836 C1839 1.394 . S
H1837 C1853 0.930 . S
H1838 C1854 0.931 . S
C1839 H1827 0.929 . S
C1839 C1833 1.390 1_655 S
C1839 C1836 1.394 . S
C1840 C1835 1.490 . S
C1840 C1842 1.395 . S
C1840 C1843 1.403 . S
H1841 C1847 0.930 . S
C1842 H1828 0.930 . S
C1842 C1840 1.395 . S
C1842 C1845 1.403 . S
C1843 C1840 1.403 . S
C1843 C1844 1.524 . S
C1843 C1847 1.400 . S
C1844 H1829 0.960 1_455 S
C1844 H1830 0.960 . S
C1844 H1831 0.960 1_455 S
C1844 C1843 1.524 . S
C1845 C1842 1.403 . S
C1845 C1846 1.392 . S
C1845 C1849 1.495 . S
C1846 C1845 1.392 . S
C1846 C1847 1.385 . S
C1846 C1848 1.478 . S
C1847 H1841 0.930 . S
C1847 C1843 1.400 . S
C1847 C1846 1.385 . S
C1848 C1846 1.478 . S
C1848 C1850 1.381 . S
C1848 C1854 1.383 . S
C1849 C1845 1.495 . S
C1849 H1855 0.959 . S
C1849 H1856 0.961 . S
C1849 H1857 0.960 . S
C1850 C1848 1.381 . S
C1850 C1851 1.394 . S
C1850 H1858 0.930 . S
C1851 C1850 1.394 . S
C1851 C1852 1.383 . S
C1851 H1859 0.929 . S
C1852 C1851 1.383 . S
C1852 C1853 1.377 . S
C1853 H1837 0.930 . S
C1853 C1852 1.377 . S
C1853 C1854 1.379 . S
C1854 H1838 0.931 . S
C1854 C1848 1.383 . S
C1854 C1853 1.379 . S
H1855 C1849 0.959 . S
H1856 C1849 0.961 . S
H1857 C1849 0.960 . S
H1858 C1850 0.930 . S
H1859 C1851 0.929 . S
H1860 C1868 0.929 . S
H1861 C1870 0.930 . S
H1862 C1872 0.930 . S
H1863 C1875 0.929 . S
H1864 C1878 0.930 . S
H1865 C1880 0.960 . S
H1866 C1880 0.960 . S
H1867 C1880 0.960 . S
C1868 H1860 0.929 . S
C1868 C1869 1.377 . S
C1868 C1870 1.384 . S
C1869 C1868 1.377 . S
C1869 C1875 1.390 . S
C1870 H1861 0.930 . S
C1870 C1868 1.384 . S
C1870 C1871 1.372 . S
C1871 C1870 1.372 . S
C1871 C1872 1.400 . S
C1871 C1876 1.490 . S
C1872 H1862 0.930 . S
C1872 C1871 1.400 . S
C1872 C1875 1.386 . S
H1873 C1889 0.930 . S
H1874 C1890 0.931 . S
C1875 H1863 0.929 . S
C1875 C1869 1.390 . S
C1875 C1872 1.386 . S
C1876 C1871 1.490 . S
C1876 C1878 1.395 . S
C1876 C1879 1.403 . S
H1877 C1883 0.930 . S
C1878 H1864 0.930 . S
C1878 C1876 1.395 . S
C1878 C1881 1.403 . S
C1879 C1876 1.403 . S
C1879 C1880 1.524 . S
C1879 C1883 1.400 . S
C1880 H1865 0.960 . S
C1880 H1866 0.960 . S
C1880 H1867 0.960 . S
C1880 C1879 1.524 . S
C1881 C1878 1.403 . S
C1881 C1882 1.392 . S
C1881 C1885 1.495 . S
C1882 C1881 1.392 . S
C1882 C1883 1.385 . S
C1882 C1884 1.478 . S
C1883 H1877 0.930 . S
C1883 C1879 1.400 . S
C1883 C1882 1.385 . S
C1884 C1882 1.478 . S
C1884 C1886 1.381 . S
C1884 C1890 1.383 . S
C1885 C1881 1.495 . S
C1885 H1891 0.959 . S
C1885 H1892 0.961 . S
C1885 H1893 0.960 . S
C1886 C1884 1.381 . S
C1886 C1887 1.394 . S
C1886 H1894 0.930 . S
C1887 C1886 1.394 . S
C1887 C1888 1.383 . S
C1887 H1895 0.929 . S
C1888 C1887 1.383 . S
C1888 C1889 1.377 . S
C1889 H1873 0.930 . S
C1889 C1888 1.377 . S
C1889 C1890 1.379 . S
C1890 H1874 0.931 . S
C1890 C1884 1.383 . S
C1890 C1889 1.379 . S
H1891 C1885 0.959 . S
H1892 C1885 0.961 . S
H1893 C1885 0.960 . S
H1894 C1886 0.930 . S
H1895 C1887 0.929 . S
H1896 C1904 0.929 . S
H1897 C1906 0.930 . S
H1898 C1908 0.930 . S
H1899 C1911 0.929 . S
H1900 C1914 0.930 . S
H1901 C1916 0.960 . S
H1902 C1916 0.960 . S
H1903 C1916 0.960 . S
C1904 H1896 0.929 . S
C1904 C1905 1.377 . S
C1904 C1906 1.384 . S
C1905 C1904 1.377 . S
C1905 C1911 1.390 . S
C1906 H1897 0.930 . S
C1906 C1904 1.384 . S
C1906 C1907 1.372 . S
C1907 C1906 1.372 . S
C1907 C1908 1.400 . S
C1907 C1912 1.490 . S
C1908 H1898 0.930 . S
C1908 C1907 1.400 . S
C1908 C1911 1.386 . S
H1909 C1925 0.930 . S
H1910 C1926 0.931 . S
C1911 H1899 0.929 . S
C1911 C1905 1.390 . S
C1911 C1908 1.386 . S
C1912 C1907 1.490 . S
C1912 C1914 1.395 . S
C1912 C1915 1.403 . S
H1913 C1919 0.930 . S
C1914 H1900 0.930 . S
C1914 C1912 1.395 . S
C1914 C1917 1.403 . S
C1915 C1912 1.403 . S
C1915 C1916 1.524 . S
C1915 C1919 1.400 . S
C1916 H1901 0.960 . S
C1916 H1902 0.960 . S
C1916 H1903 0.960 . S
C1916 C1915 1.524 . S
C1917 C1914 1.403 . S
C1917 C1918 1.392 . S
C1917 C1921 1.495 . S
C1918 C1917 1.392 . S
C1918 C1919 1.385 . S
C1918 C1920 1.478 . S
C1919 H1913 0.930 . S
C1919 C1915 1.400 . S
C1919 C1918 1.385 . S
C1920 C1918 1.478 . S
C1920 C1922 1.381 . S
C1920 C1926 1.383 . S
C1921 C1917 1.495 . S
C1921 H1927 0.959 . S
C1921 H1928 0.961 . S
C1921 H1929 0.960 . S
C1922 C1920 1.381 . S
C1922 C1923 1.394 . S
C1922 H1930 0.930 . S
C1923 C1922 1.394 . S
C1923 C1924 1.383 . S
C1923 H1931 0.929 . S
C1924 C1923 1.383 . S
C1924 C1925 1.377 . S
C1925 H1909 0.930 . S
C1925 C1924 1.377 . S
C1925 C1926 1.379 . S
C1926 H1910 0.931 . S
C1926 C1920 1.383 . S
C1926 C1925 1.379 . S
H1927 C1921 0.959 . S
H1928 C1921 0.961 . S
H1929 C1921 0.960 . S
H1930 C1922 0.930 . S
H1931 C1923 0.929 . S
H1932 C1940 0.929 . S
H1933 C1942 0.930 . S
H1934 C1944 0.930 . S
H1935 C1947 0.929 . S
H1936 C1950 0.930 . S
H1937 C1952 0.960 . S
H1938 C1952 0.960 . S
H1939 C1952 0.960 . S
C1940 H1932 0.929 . S
C1940 C1941 1.377 . S
C1940 C1942 1.384 . S
C1941 C1940 1.377 . S
C1941 C1947 1.390 . S
C1942 H1933 0.930 . S
C1942 C1940 1.384 . S
C1942 C1943 1.372 . S
C1943 C1942 1.372 . S
C1943 C1944 1.400 . S
C1943 C1948 1.490 . S
C1944 H1934 0.930 . S
C1944 C1943 1.400 . S
C1944 C1947 1.386 . S
H1945 C1961 0.930 . S
H1946 C1962 0.931 . S
C1947 H1935 0.929 . S
C1947 C1941 1.390 . S
C1947 C1944 1.386 . S
C1948 C1943 1.490 . S
C1948 C1950 1.395 . S
C1948 C1951 1.403 . S
H1949 C1955 0.930 . S
C1950 H1936 0.930 . S
C1950 C1948 1.395 . S
C1950 C1953 1.403 . S
C1951 C1948 1.403 . S
C1951 C1952 1.524 . S
C1951 C1955 1.400 . S
C1952 H1937 0.960 . S
C1952 H1938 0.960 . S
C1952 H1939 0.960 . S
C1952 C1951 1.524 . S
C1953 C1950 1.403 . S
C1953 C1954 1.392 . S
C1953 C1957 1.495 . S
C1954 C1953 1.392 . S
C1954 C1955 1.385 . S
C1954 C1956 1.478 . S
C1955 H1949 0.930 . S
C1955 C1951 1.400 . S
C1955 C1954 1.385 . S
C1956 C1954 1.478 . S
C1956 C1958 1.381 . S
C1956 C1962 1.383 . S
C1957 C1953 1.495 . S
C1957 H1963 0.959 . S
C1957 H1964 0.961 . S
C1957 H1965 0.960 . S
C1958 C1956 1.381 . S
C1958 C1959 1.394 . S
C1958 H1966 0.930 . S
C1959 C1958 1.394 . S
C1959 C1960 1.383 . S
C1959 H1967 0.929 . S
C1960 C1959 1.383 . S
C1960 C1961 1.377 . S
C1961 H1945 0.930 . S
C1961 C1960 1.377 . S
C1961 C1962 1.379 . S
C1962 H1946 0.931 . S
C1962 C1956 1.383 . S
C1962 C1961 1.379 . S
H1963 C1957 0.959 . S
H1964 C1957 0.961 . S
H1965 C1957 0.960 . S
H1966 C1958 0.930 . S
H1967 C1959 0.929 . S
H1968 C1976 0.929 . S
H1969 C1978 0.930 . S
H1970 C1980 0.930 . S
H1971 C1983 0.929 . S
H1972 C1986 0.930 . S
H1973 C1988 0.960 . S
H1974 C1988 0.960 . S
H1975 C1988 0.960 . S
C1976 H1968 0.929 . S
C1976 C1977 1.377 . S
C1976 C1978 1.384 . S
C1977 C1976 1.377 . S
C1977 C1983 1.390 . S
C1978 H1969 0.930 . S
C1978 C1976 1.384 . S
C1978 C1979 1.372 . S
C1979 C1978 1.372 . S
C1979 C1980 1.400 . S
C1979 C1984 1.490 . S
C1980 H1970 0.930 . S
C1980 C1979 1.400 . S
C1980 C1983 1.386 . S
H1981 C1997 0.930 . S
H1982 C1998 0.931 1_655 S
C1983 H1971 0.929 . S
C1983 C1977 1.390 . S
C1983 C1980 1.386 . S
C1984 C1979 1.490 . S
C1984 C1986 1.395 . S
C1984 C1987 1.403 . S
H1985 C1991 0.940 . S
C1986 H1972 0.930 . S
C1986 C1984 1.395 . S
C1986 C1989 1.403 . S
C1987 C1984 1.403 . S
C1987 C1988 1.524 . S
C1987 C1991 1.373 1_655 S
C1988 H1973 0.960 . S
C1988 H1974 0.960 . S
C1988 H1975 0.960 . S
C1988 C1987 1.524 . S
C1989 C1986 1.403 . S
C1989 C1990 1.392 1_655 S
C1989 C1993 1.517 . S
C1990 C1989 1.392 1_455 S
C1990 C1991 1.406 . S
C1990 C1992 1.478 . S
C1991 H1985 0.940 . S
C1991 C1987 1.373 1_455 S
C1991 C1990 1.406 . S
C1992 C1990 1.478 . S
C1992 C1994 1.381 . S
C1992 C1998 1.383 . S
C1993 C1989 1.517 . S
C1993 H1999 0.977 . S
C1993 H2000 0.992 . S
C1993 H2001 0.894 1_655 S
C1994 C1992 1.381 . S
C1994 C1995 1.394 . S
C1994 H2002 0.930 . S
C1995 C1994 1.394 . S
C1995 C1996 1.383 . S
C1995 H2003 0.929 . S
C1996 C1995 1.383 . S
C1996 C1997 1.377 . S
C1997 H1981 0.930 . S
C1997 C1996 1.377 . S
C1997 C1998 1.379 . S
C1998 H1982 0.931 1_455 S
C1998 C1992 1.383 . S
C1998 C1997 1.379 . S
H1999 C1993 0.977 . S
H2000 C1993 0.992 . S
H2001 C1993 0.894 1_455 S
H2002 C1994 0.930 . S
H2003 C1995 0.929 . S
H2004 C2012 0.929 . S
H2005 C2014 0.930 . S
H2006 C2016 0.930 . S
H2007 C2019 0.929 . S
H2008 C2022 0.930 . S
H2009 C2024 0.960 . S
H2010 C2024 0.960 . S
H2011 C2024 0.960 . S
C2012 H2004 0.929 . S
C2012 C2013 1.377 . S
C2012 C2014 1.384 . S
C2013 C2012 1.377 . S
C2013 C2019 1.390 . S
C2014 H2005 0.930 . S
C2014 C2012 1.384 . S
C2014 C2015 1.372 . S
C2015 C2014 1.372 . S
C2015 C2016 1.400 . S
C2015 C2020 1.490 . S
C2016 H2006 0.930 . S
C2016 C2015 1.400 . S
C2016 C2019 1.386 . S
H2017 C2033 0.930 . S
H2018 C2034 0.931 . S
C2019 H2007 0.929 . S
C2019 C2013 1.390 . S
C2019 C2016 1.386 . S
C2020 C2015 1.490 . S
C2020 C2022 1.395 . S
C2020 C2023 1.403 . S
H2021 C2027 0.930 . S
C2022 H2008 0.930 . S
C2022 C2020 1.395 . S
C2022 C2025 1.403 . S
C2023 C2020 1.403 . S
C2023 C2024 1.524 . S
C2023 C2027 1.400 . S
C2024 H2009 0.960 . S
C2024 H2010 0.960 . S
C2024 H2011 0.960 . S
C2024 C2023 1.524 . S
C2025 C2022 1.403 . S
C2025 C2026 1.392 . S
C2025 C2029 1.495 . S
C2026 C2025 1.392 . S
C2026 C2027 1.385 . S
C2026 C2028 1.478 . S
C2027 H2021 0.930 . S
C2027 C2023 1.400 . S
C2027 C2026 1.385 . S
C2028 C2026 1.478 . S
C2028 C2030 1.381 . S
C2028 C2034 1.383 . S
C2029 C2025 1.495 . S
C2029 H2035 0.959 . S
C2029 H2036 0.961 . S
C2029 H2037 0.960 . S
C2030 C2028 1.381 . S
C2030 C2031 1.394 . S
C2030 H2038 0.930 . S
C2031 C2030 1.394 . S
C2031 C2032 1.383 . S
C2031 H2039 0.929 . S
C2032 C2031 1.383 . S
C2032 C2033 1.377 . S
C2033 H2017 0.930 . S
C2033 C2032 1.377 . S
C2033 C2034 1.379 . S
C2034 H2018 0.931 . S
C2034 C2028 1.383 . S
C2034 C2033 1.379 . S
H2035 C2029 0.959 . S
H2036 C2029 0.961 . S
H2037 C2029 0.960 . S
H2038 C2030 0.930 . S
H2039 C2031 0.929 . S
H2040 C2048 0.929 . S
H2041 C2050 0.930 . S
H2042 C2052 0.930 . S
H2043 C2055 0.929 . S
H2044 C2058 0.930 . S
H2045 C2060 0.960 . S
H2046 C2060 0.960 . S
H2047 C2060 0.960 . S
C2048 H2040 0.929 . S
C2048 C2049 1.377 . S
C2048 C2050 1.384 . S
C2049 C2048 1.377 . S
C2049 C2055 1.390 . S
C2050 H2041 0.930 . S
C2050 C2048 1.384 . S
C2050 C2051 1.372 . S
C2051 C2050 1.372 . S
C2051 C2052 1.400 . S
C2051 C2056 1.490 . S
C2052 H2042 0.930 . S
C2052 C2051 1.400 . S
C2052 C2055 1.386 . S
H2053 C2069 0.900 1_565 S
H2054 C2070 0.931 . S
C2055 H2043 0.929 . S
C2055 C2049 1.390 . S
C2055 C2052 1.386 . S
C2056 C2051 1.490 . S
C2056 C2058 1.395 . S
C2056 C2059 1.403 . S
H2057 C2063 0.930 . S
C2058 H2044 0.930 . S
C2058 C2056 1.395 . S
C2058 C2061 1.403 . S
C2059 C2056 1.403 . S
C2059 C2060 1.524 . S
C2059 C2063 1.400 . S
C2060 H2045 0.960 . S
C2060 H2046 0.960 . S
C2060 H2047 0.960 . S
C2060 C2059 1.524 . S
C2061 C2058 1.403 . S
C2061 C2062 1.392 . S
C2061 C2065 1.495 . S
C2062 C2061 1.392 . S
C2062 C2063 1.385 . S
C2062 C2064 1.478 . S
C2063 H2057 0.930 . S
C2063 C2059 1.400 . S
C2063 C2062 1.385 . S
C2064 C2062 1.478 . S
C2064 C2066 1.381 . S
C2064 C2070 1.383 . S
C2065 C2061 1.495 . S
C2065 H2071 0.959 . S
C2065 H2072 0.961 . S
C2065 H2073 0.960 . S
C2066 C2064 1.381 . S
C2066 C2067 1.394 . S
C2066 H2074 0.930 . S
C2067 C2066 1.394 . S
C2067 C2068 1.383 . S
C2067 H2075 0.929 . S
C2068 C2067 1.383 . S
C2068 C2069 1.377 . S
C2069 H2053 0.900 1_545 S
C2069 C2068 1.377 . S
C2069 C2070 1.379 . S
C2070 H2054 0.931 . S
C2070 C2064 1.383 . S
C2070 C2069 1.379 . S
H2071 C2065 0.959 . S
H2072 C2065 0.961 . S
H2073 C2065 0.960 . S
H2074 C2066 0.930 . S
H2075 C2067 0.929 . S
H2076 C2084 0.929 . S
H2077 C2086 0.930 . S
H2078 C2088 0.930 . S
H2079 C2091 0.929 . S
H2080 C2094 0.930 . S
H2081 C2096 0.960 . S
H2082 C2096 0.960 . S
H2083 C2096 0.960 . S
C2084 H2076 0.929 . S
C2084 C2085 1.377 . S
C2084 C2086 1.384 . S
C2085 C2084 1.377 . S
C2085 C2091 1.390 . S
C2086 H2077 0.930 . S
C2086 C2084 1.384 . S
C2086 C2087 1.372 . S
C2087 C2086 1.372 . S
C2087 C2088 1.400 . S
C2087 C2092 1.490 . S
C2088 H2078 0.930 . S
C2088 C2087 1.400 . S
C2088 C2091 1.386 . S
H2089 C2105 0.930 . S
H2090 C2106 0.931 . S
C2091 H2079 0.929 . S
C2091 C2085 1.390 . S
C2091 C2088 1.386 . S
C2092 C2087 1.490 . S
C2092 C2094 1.395 . S
C2092 C2095 1.403 . S
H2093 C2099 0.930 . S
C2094 H2080 0.930 . S
C2094 C2092 1.395 . S
C2094 C2097 1.403 . S
C2095 C2092 1.403 . S
C2095 C2096 1.524 . S
C2095 C2099 1.400 . S
C2096 H2081 0.960 . S
C2096 H2082 0.960 . S
C2096 H2083 0.960 . S
C2096 C2095 1.524 . S
C2097 C2094 1.403 . S
C2097 C2098 1.392 . S
C2097 C2101 1.495 . S
C2098 C2097 1.392 . S
C2098 C2099 1.385 . S
C2098 C2100 1.478 . S
C2099 H2093 0.930 . S
C2099 C2095 1.400 . S
C2099 C2098 1.385 . S
C2100 C2098 1.478 . S
C2100 C2102 1.381 . S
C2100 C2106 1.383 . S
C2101 C2097 1.495 . S
C2101 H2107 0.959 . S
C2101 H2108 0.961 . S
C2101 H2109 0.960 . S
C2102 C2100 1.381 . S
C2102 C2103 1.394 . S
C2102 H2110 0.930 . S
C2103 C2102 1.394 . S
C2103 C2104 1.383 . S
C2103 H2111 0.929 . S
C2104 C2103 1.383 . S
C2104 C2105 1.377 . S
C2105 H2089 0.930 . S
C2105 C2104 1.377 . S
C2105 C2106 1.379 . S
C2106 H2090 0.931 . S
C2106 C2100 1.383 . S
C2106 C2105 1.379 . S
H2107 C2101 0.959 . S
H2108 C2101 0.961 . S
H2109 C2101 0.960 . S
H2110 C2102 0.930 . S
H2111 C2103 0.929 . S
H2112 C2120 0.929 . S
H2113 C2122 0.930 . S
H2114 C2124 0.930 . S
H2115 C2127 0.929 . S
H2116 C2130 0.930 . S
H2117 C2132 0.960 . S
H2118 C2132 0.960 . S
H2119 C2132 0.960 . S
C2120 H2112 0.929 . S
C2120 C2121 1.377 . S
C2120 C2122 1.384 . S
C2121 C2120 1.377 . S
C2121 C2127 1.390 . S
C2122 H2113 0.930 . S
C2122 C2120 1.384 . S
C2122 C2123 1.372 . S
C2123 C2122 1.372 . S
C2123 C2124 1.400 . S
C2123 C2128 1.490 . S
C2124 H2114 0.930 . S
C2124 C2123 1.400 . S
C2124 C2127 1.386 . S
H2125 C2141 0.930 . S
H2126 C2142 0.931 . S
C2127 H2115 0.929 . S
C2127 C2121 1.390 . S
C2127 C2124 1.386 . S
C2128 C2123 1.490 . S
C2128 C2130 1.395 . S
C2128 C2131 1.403 1_655 S
H2129 C2135 0.930 . S
C2130 H2116 0.930 . S
C2130 C2128 1.395 . S
C2130 C2133 1.403 . S
C2131 C2128 1.403 1_455 S
C2131 C2132 1.524 . S
C2131 C2135 1.400 . S
C2132 H2117 0.960 . S
C2132 H2118 0.960 . S
C2132 H2119 0.960 . S
C2132 C2131 1.524 . S
C2133 C2130 1.403 . S
C2133 C2134 1.392 1_655 S
C2133 C2137 1.495 . S
C2134 C2133 1.392 1_455 S
C2134 C2135 1.385 . S
C2134 C2136 1.478 . S
C2135 H2129 0.930 . S
C2135 C2131 1.400 . S
C2135 C2134 1.385 . S
C2136 C2134 1.478 . S
C2136 C2138 1.381 . S
C2136 C2142 1.383 . S
C2137 C2133 1.495 . S
C2137 H2143 0.959 . S
C2137 H2144 0.961 . S
C2137 H2145 0.960 . S
C2138 C2136 1.381 . S
C2138 C2139 1.394 . S
C2138 H2146 0.930 . S
C2139 C2138 1.394 . S
C2139 C2140 1.383 . S
C2139 H2147 0.929 . S
C2140 C2139 1.383 . S
C2140 C2141 1.377 . S
C2141 H2125 0.930 . S
C2141 C2140 1.377 . S
C2141 C2142 1.379 . S
C2142 H2126 0.931 . S
C2142 C2136 1.383 . S
C2142 C2141 1.379 . S
H2143 C2137 0.959 . S
H2144 C2137 0.961 . S
H2145 C2137 0.960 . S
H2146 C2138 0.930 . S
H2147 C2139 0.929 . S
H2148 C2156 0.929 . S
H2149 C2158 0.930 . S
H2150 C2160 0.930 . S
H2151 C2163 0.929 . S
H2152 C2166 0.930 . S
H2153 C2168 0.960 . S
H2154 C2168 0.960 . S
H2155 C2168 0.960 . S
C2156 H2148 0.929 . S
C2156 C2157 1.377 . S
C2156 C2158 1.384 . S
C2157 C2156 1.377 . S
C2157 C2163 1.390 . S
C2158 H2149 0.930 . S
C2158 C2156 1.384 . S
C2158 C2159 1.372 . S
C2159 C2158 1.372 . S
C2159 C2160 1.400 . S
C2159 C2164 1.490 . S
C2160 H2150 0.930 . S
C2160 C2159 1.400 . S
C2160 C2163 1.386 . S
H2161 C2177 0.930 . S
H2162 C2178 0.931 . S
C2163 H2151 0.929 . S
C2163 C2157 1.390 . S
C2163 C2160 1.386 . S
C2164 C2159 1.490 . S
C2164 C2166 1.395 . S
C2164 C2167 1.403 . S
H2165 C2171 0.930 . S
C2166 H2152 0.930 . S
C2166 C2164 1.395 . S
C2166 C2169 1.403 . S
C2167 C2164 1.403 . S
C2167 C2168 1.524 . S
C2167 C2171 1.400 . S
C2168 H2153 0.960 . S
C2168 H2154 0.960 . S
C2168 H2155 0.960 . S
C2168 C2167 1.524 . S
C2169 C2166 1.403 . S
C2169 C2170 1.392 . S
C2169 C2173 1.495 . S
C2170 C2169 1.392 . S
C2170 C2171 1.385 . S
C2170 C2172 1.478 . S
C2171 H2165 0.930 . S
C2171 C2167 1.400 . S
C2171 C2170 1.385 . S
C2172 C2170 1.478 . S
C2172 C2174 1.381 . S
C2172 C2178 1.383 . S
C2173 C2169 1.495 . S
C2173 H2179 0.959 . S
C2173 H2180 0.961 . S
C2173 H2181 0.960 . S
C2174 C2172 1.381 . S
C2174 C2175 1.394 . S
C2174 H2182 0.930 . S
C2175 C2174 1.394 . S
C2175 C2176 1.383 . S
C2175 H2183 0.929 . S
C2176 C2175 1.383 . S
C2176 C2177 1.377 . S
C2177 H2161 0.930 . S
C2177 C2176 1.377 . S
C2177 C2178 1.379 . S
C2178 H2162 0.931 . S
C2178 C2172 1.383 . S
C2178 C2177 1.379 . S
H2179 C2173 0.959 . S
H2180 C2173 0.961 . S
H2181 C2173 0.960 . S
H2182 C2174 0.930 . S
H2183 C2175 0.929 . S
H2184 C2192 0.929 . S
H2185 C2194 0.930 . S
H2186 C2196 0.930 . S
H2187 C2199 0.929 . S
H2188 C2202 0.930 . S
H2189 C2204 0.960 . S
H2190 C2204 0.960 . S
H2191 C2204 0.960 . S
C2192 H2184 0.929 . S
C2192 C2193 1.377 . S
C2192 C2194 1.384 . S
C2193 C2192 1.377 . S
C2193 C2199 1.390 . S
C2194 H2185 0.930 . S
C2194 C2192 1.384 . S
C2194 C2195 1.372 . S
C2195 C2194 1.372 . S
C2195 C2196 1.400 . S
C2195 C2200 1.490 . S
C2196 H2186 0.930 . S
C2196 C2195 1.400 . S
C2196 C2199 1.386 . S
H2197 C2213 0.930 . S
H2198 C2214 0.931 . S
C2199 H2187 0.929 . S
C2199 C2193 1.390 . S
C2199 C2196 1.386 . S
C2200 C2195 1.490 . S
C2200 C2202 1.395 . S
C2200 C2203 1.403 . S
H2201 C2207 0.930 . S
C2202 H2188 0.930 . S
C2202 C2200 1.395 . S
C2202 C2205 1.403 . S
C2203 C2200 1.403 . S
C2203 C2204 1.524 . S
C2203 C2207 1.400 . S
C2204 H2189 0.960 . S
C2204 H2190 0.960 . S
C2204 H2191 0.960 . S
C2204 C2203 1.524 . S
C2205 C2202 1.403 . S
C2205 C2206 1.392 . S
C2205 C2209 1.495 . S
C2206 C2205 1.392 . S
C2206 C2207 1.385 . S
C2206 C2208 1.478 . S
C2207 H2201 0.930 . S
C2207 C2203 1.400 . S
C2207 C2206 1.385 . S
C2208 C2206 1.478 . S
C2208 C2210 1.381 . S
C2208 C2214 1.383 . S
C2209 C2205 1.495 . S
C2209 H2215 0.959 1_545 S
C2209 H2216 0.961 . S
C2209 H2217 0.960 . S
C2210 C2208 1.381 . S
C2210 C2211 1.394 . S
C2210 H2218 0.930 . S
C2211 C2210 1.394 . S
C2211 C2212 1.383 . S
C2211 H2219 0.929 . S
C2212 C2211 1.383 . S
C2212 C2213 1.377 . S
C2213 H2197 0.930 . S
C2213 C2212 1.377 . S
C2213 C2214 1.379 . S
C2214 H2198 0.931 . S
C2214 C2208 1.383 . S
C2214 C2213 1.379 . S
H2215 C2209 0.959 1_565 S
H2216 C2209 0.961 . S
H2217 C2209 0.960 . S
H2218 C2210 0.930 . S
H2219 C2211 0.929 . S
H2220 C2228 0.929 . S
H2221 C2230 0.930 . S
H2222 C2232 0.930 . S
H2223 C2235 0.929 . S
H2224 C2238 0.930 . S
H2225 C2240 0.960 . S
H2226 C2240 0.960 . S
H2227 C2240 0.960 . S
C2228 H2220 0.929 . S
C2228 C2229 1.377 . S
C2228 C2230 1.384 . S
C2229 C2228 1.377 . S
C2229 C2235 1.390 . S
C2230 H2221 0.930 . S
C2230 C2228 1.384 . S
C2230 C2231 1.372 . S
C2231 C2230 1.372 . S
C2231 C2232 1.400 . S
C2231 C2236 1.490 . S
C2232 H2222 0.930 . S
C2232 C2231 1.400 . S
C2232 C2235 1.386 . S
H2233 C2249 0.930 . S
H2234 C2250 0.931 . S
C2235 H2223 0.929 . S
C2235 C2229 1.390 . S
C2235 C2232 1.386 . S
C2236 C2231 1.490 . S
C2236 C2238 1.395 . S
C2236 C2239 1.403 . S
H2237 C2243 0.930 . S
C2238 H2224 0.930 . S
C2238 C2236 1.395 . S
C2238 C2241 1.403 . S
C2239 C2236 1.403 . S
C2239 C2240 1.524 . S
C2239 C2243 1.400 . S
C2240 H2225 0.960 . S
C2240 H2226 0.960 . S
C2240 H2227 0.960 . S
C2240 C2239 1.524 . S
C2241 C2238 1.403 . S
C2241 C2242 1.392 . S
C2241 C2245 1.495 . S
C2242 C2241 1.392 . S
C2242 C2243 1.385 . S
C2242 C2244 1.478 . S
C2243 H2237 0.930 . S
C2243 C2239 1.400 . S
C2243 C2242 1.385 . S
C2244 C2242 1.478 . S
C2244 C2246 1.381 . S
C2244 C2250 1.383 . S
C2245 C2241 1.495 . S
C2245 H2251 0.959 . S
C2245 H2252 0.961 . S
C2245 H2253 0.960 . S
C2246 C2244 1.381 . S
C2246 C2247 1.394 . S
C2246 H2254 0.930 . S
C2247 C2246 1.394 . S
C2247 C2248 1.383 . S
C2247 H2255 0.929 . S
C2248 C2247 1.383 . S
C2248 C2249 1.377 . S
C2249 H2233 0.930 . S
C2249 C2248 1.377 . S
C2249 C2250 1.379 . S
C2250 H2234 0.931 . S
C2250 C2244 1.383 . S
C2250 C2249 1.379 . S
H2251 C2245 0.959 . S
H2252 C2245 0.961 . S
H2253 C2245 0.960 . S
H2254 C2246 0.930 . S
H2255 C2247 0.929 . S
H2256 C2264 0.929 . S
H2257 C2266 0.930 . S
H2258 C2268 0.930 . S
H2259 C2271 0.929 . S
H2260 C2274 0.930 . S
H2261 C2276 0.961 1_545 S
H2262 C2276 0.962 . S
H2263 C2276 0.959 1_554 S
C2264 H2256 0.929 . S
C2264 C2265 1.377 . S
C2264 C2266 1.384 . S
C2265 C2264 1.377 . S
C2265 C2271 1.390 . S
C2266 H2257 0.930 . S
C2266 C2264 1.384 . S
C2266 C2267 1.372 . S
C2267 C2266 1.372 . S
C2267 C2268 1.400 . S
C2267 C2272 1.490 . S
C2268 H2258 0.930 . S
C2268 C2267 1.400 . S
C2268 C2271 1.386 . S
H2269 C2285 0.930 . S
H2270 C2286 0.931 . S
C2271 H2259 0.929 . S
C2271 C2265 1.390 . S
C2271 C2268 1.386 . S
C2272 C2267 1.490 . S
C2272 C2274 1.395 . S
C2272 C2275 1.403 . S
H2273 C2279 0.936 1_545 S
C2274 H2260 0.930 . S
C2274 C2272 1.395 . S
C2274 C2277 1.403 . S
C2275 C2272 1.403 . S
C2275 C2276 1.522 1_554 S
C2275 C2279 1.400 . S
C2276 H2261 0.961 1_565 S
C2276 H2262 0.962 . S
C2276 H2263 0.959 1_556 S
C2276 C2275 1.522 1_556 S
C2277 C2274 1.403 . S
C2277 C2278 1.392 . S
C2277 C2281 1.495 . S
C2278 C2277 1.392 . S
C2278 C2279 1.385 . S
C2278 C2280 1.478 . S
C2279 H2273 0.936 1_565 S
C2279 C2275 1.400 . S
C2279 C2278 1.385 . S
C2280 C2278 1.478 . S
C2280 C2282 1.381 . S
C2280 C2286 1.383 1_565 S
C2281 C2277 1.495 . S
C2281 H2287 0.959 . S
C2281 H2288 0.961 . S
C2281 H2289 0.960 . S
C2282 C2280 1.381 . S
C2282 C2283 1.394 . S
C2282 H2290 0.930 . S
C2283 C2282 1.394 . S
C2283 C2284 1.383 1_565 S
C2283 H2291 0.929 . S
C2284 C2283 1.383 1_545 S
C2284 C2285 1.377 . S
C2285 H2269 0.930 . S
C2285 C2284 1.377 . S
C2285 C2286 1.379 . S
C2286 H2270 0.931 . S
C2286 C2280 1.383 1_545 S
C2286 C2285 1.379 . S
H2287 C2281 0.959 . S
H2288 C2281 0.961 . S
H2289 C2281 0.960 . S
H2290 C2282 0.930 . S
H2291 C2283 0.929 . S
H2292 C2300 0.929 . S
H2293 C2302 0.930 . S
H2294 C2304 0.930 . S
H2295 C2307 0.929 . S
H2296 C2310 0.930 . S
H2297 C2312 0.960 . S
H2298 C2312 0.960 . S
H2299 C2312 0.960 . S
C2300 H2292 0.929 . S
C2300 C2301 1.377 1_554 S
C2300 C2302 1.384 . S
C2301 C2300 1.377 1_556 S
C2301 C2307 1.390 . S
C2302 H2293 0.930 . S
C2302 C2300 1.384 . S
C2302 C2303 1.372 1_554 S
C2303 C2302 1.372 1_556 S
C2303 C2304 1.399 . S
C2303 C2308 1.484 1_556 S
C2304 H2294 0.930 . S
C2304 C2303 1.399 . S
C2304 C2307 1.386 . S
H2305 C2321 0.930 . S
H2306 C2322 0.931 . S
C2307 H2295 0.929 . S
C2307 C2301 1.390 . S
C2307 C2304 1.386 . S
C2308 C2303 1.484 1_554 S
C2308 C2310 1.386 1_554 S
C2308 C2311 1.418 . S
H2309 C2315 0.930 . S
C2310 H2296 0.930 . S
C2310 C2308 1.386 1_556 S
C2310 C2313 1.403 . S
C2311 C2308 1.418 . S
C2311 C2312 1.524 . S
C2311 C2315 1.400 . S
C2312 H2297 0.960 . S
C2312 H2298 0.960 . S
C2312 H2299 0.960 . S
C2312 C2311 1.524 . S
C2313 C2310 1.403 . S
C2313 C2314 1.366 1_556 S
C2313 C2317 1.495 . S
C2314 C2313 1.366 1_554 S
C2314 C2315 1.403 . S
C2314 C2316 1.490 . S
C2315 H2309 0.930 . S
C2315 C2311 1.400 . S
C2315 C2314 1.403 . S
C2316 C2314 1.490 . S
C2316 C2318 1.381 . S
C2316 C2322 1.383 1_554 S
C2317 C2313 1.495 . S
C2317 H2323 0.959 . S
C2317 H2324 0.961 . S
C2317 H2325 0.960 1_556 S
C2318 C2316 1.381 . S
C2318 C2319 1.394 . S
C2318 H2326 0.930 . S
C2319 C2318 1.394 . S
C2319 C2320 1.383 . S
C2319 H2327 0.929 . S
C2320 C2319 1.383 . S
C2320 C2321 1.377 1_554 S
C2321 H2305 0.930 . S
C2321 C2320 1.377 1_556 S
C2321 C2322 1.379 . S
C2322 H2306 0.931 . S
C2322 C2316 1.383 1_556 S
C2322 C2321 1.379 . S
H2323 C2317 0.959 . S
H2324 C2317 0.961 . S
H2325 C2317 0.960 1_554 S
H2326 C2318 0.930 . S
H2327 C2319 0.929 . S
H2328 C2336 0.929 . S
H2329 C2338 0.930 . S
H2330 C2340 0.930 . S
H2331 C2343 0.929 . S
H2332 C2346 0.930 . S
H2333 C2348 0.960 . S
H2334 C2348 0.960 . S
H2335 C2348 0.960 . S
C2336 H2328 0.929 . S
C2336 C2337 1.377 . S
C2336 C2338 1.384 . S
C2337 C2336 1.377 . S
C2337 C2343 1.390 . S
C2338 H2329 0.930 . S
C2338 C2336 1.384 . S
C2338 C2339 1.372 . S
C2339 C2338 1.372 . S
C2339 C2340 1.400 . S
C2339 C2344 1.490 . S
C2340 H2330 0.930 . S
C2340 C2339 1.400 . S
C2340 C2343 1.386 . S
H2341 C2357 0.930 . S
H2342 C2358 0.931 . S
C2343 H2331 0.929 . S
C2343 C2337 1.390 . S
C2343 C2340 1.386 . S
C2344 C2339 1.490 . S
C2344 C2346 1.395 . S
C2344 C2347 1.403 . S
H2345 C2351 0.930 . S
C2346 H2332 0.930 . S
C2346 C2344 1.395 . S
C2346 C2349 1.403 . S
C2347 C2344 1.403 . S
C2347 C2348 1.524 . S
C2347 C2351 1.400 . S
C2348 H2333 0.960 . S
C2348 H2334 0.960 . S
C2348 H2335 0.960 . S
C2348 C2347 1.524 . S
C2349 C2346 1.403 . S
C2349 C2350 1.392 . S
C2349 C2353 1.495 . S
C2350 C2349 1.392 . S
C2350 C2351 1.385 . S
C2350 C2352 1.478 . S
C2351 H2345 0.930 . S
C2351 C2347 1.400 . S
C2351 C2350 1.385 . S
C2352 C2350 1.478 . S
C2352 C2354 1.381 . S
C2352 C2358 1.383 . S
C2353 C2349 1.495 . S
C2353 H2359 0.959 . S
C2353 H2360 0.961 . S
C2353 H2361 0.960 . S
C2354 C2352 1.381 . S
C2354 C2355 1.394 . S
C2354 H2362 0.930 . S
C2355 C2354 1.394 . S
C2355 C2356 1.383 . S
C2355 H2363 0.929 . S
C2356 C2355 1.383 . S
C2356 C2357 1.377 . S
C2357 H2341 0.930 . S
C2357 C2356 1.377 . S
C2357 C2358 1.379 . S
C2358 H2342 0.931 . S
C2358 C2352 1.383 . S
C2358 C2357 1.379 . S
H2359 C2353 0.959 . S
H2360 C2353 0.961 . S
H2361 C2353 0.960 . S
H2362 C2354 0.930 . S
H2363 C2355 0.929 . S
H2364 C2372 0.929 . S
H2365 C2374 0.930 . S
H2366 C2376 0.930 . S
H2367 C2379 0.929 . S
H2368 C2382 0.930 . S
H2369 C2384 0.960 . S
H2370 C2384 0.960 . S
H2371 C2384 0.960 . S
C2372 H2364 0.929 . S
C2372 C2373 1.377 . S
C2372 C2374 1.384 . S
C2373 C2372 1.377 . S
C2373 C2379 1.390 . S
C2374 H2365 0.930 . S
C2374 C2372 1.384 . S
C2374 C2375 1.372 . S
C2375 C2374 1.372 . S
C2375 C2376 1.400 . S
C2375 C2380 1.490 . S
C2376 H2366 0.930 . S
C2376 C2375 1.400 . S
C2376 C2379 1.386 . S
H2377 C2393 0.930 . S
H2378 C2394 0.931 . S
C2379 H2367 0.929 . S
C2379 C2373 1.390 . S
C2379 C2376 1.386 . S
C2380 C2375 1.490 . S
C2380 C2382 1.395 . S
C2380 C2383 1.403 . S
H2381 C2387 0.930 . S
C2382 H2368 0.930 . S
C2382 C2380 1.395 . S
C2382 C2385 1.403 . S
C2383 C2380 1.403 . S
C2383 C2384 1.524 . S
C2383 C2387 1.400 . S
C2384 H2369 0.960 . S
C2384 H2370 0.960 . S
C2384 H2371 0.960 . S
C2384 C2383 1.524 . S
C2385 C2382 1.403 . S
C2385 C2386 1.392 . S
C2385 C2389 1.495 . S
C2386 C2385 1.392 . S
C2386 C2387 1.385 . S
C2386 C2388 1.478 . S
C2387 H2381 0.930 . S
C2387 C2383 1.400 . S
C2387 C2386 1.385 . S
C2388 C2386 1.478 . S
C2388 C2390 1.381 . S
C2388 C2394 1.383 . S
C2389 C2385 1.495 . S
C2389 H2395 0.959 . S
C2389 H2396 0.961 . S
C2389 H2397 0.960 . S
C2390 C2388 1.381 . S
C2390 C2391 1.423 . S
C2390 H2398 0.930 . S
C2391 C2390 1.423 . S
C2391 C2392 1.365 1_655 S
C2391 H2399 0.919 1_655 S
C2392 C2391 1.365 1_455 S
C2392 C2393 1.377 . S
C2393 H2377 0.930 . S
C2393 C2392 1.377 . S
C2393 C2394 1.379 1_455 S
C2394 H2378 0.931 . S
C2394 C2388 1.383 . S
C2394 C2393 1.379 1_655 S
H2395 C2389 0.959 . S
H2396 C2389 0.961 . S
H2397 C2389 0.960 . S
H2398 C2390 0.930 . S
H2399 C2391 0.919 1_455 S
H2400 C2408 0.929 . S
H2401 C2410 0.930 . S
H2402 C2412 0.930 . S
H2403 C2415 0.929 . S
H2404 C2418 0.930 . S
H2405 C2420 0.960 . S
H2406 C2420 0.960 . S
H2407 C2420 0.960 . S
C2408 H2400 0.929 . S
C2408 C2409 1.377 . S
C2408 C2410 1.384 . S
C2409 C2408 1.377 . S
C2409 C2415 1.390 . S
C2410 H2401 0.930 . S
C2410 C2408 1.384 . S
C2410 C2411 1.372 . S
C2411 C2410 1.372 . S
C2411 C2412 1.400 . S
C2411 C2416 1.490 . S
C2412 H2402 0.930 . S
C2412 C2411 1.400 . S
C2412 C2415 1.386 . S
H2413 C2429 0.930 . S
H2414 C2430 0.931 . S
C2415 H2403 0.929 . S
C2415 C2409 1.390 . S
C2415 C2412 1.386 . S
C2416 C2411 1.490 . S
C2416 C2418 1.395 . S
C2416 C2419 1.403 . S
H2417 C2423 0.930 . S
C2418 H2404 0.930 . S
C2418 C2416 1.395 . S
C2418 C2421 1.403 . S
C2419 C2416 1.403 . S
C2419 C2420 1.524 . S
C2419 C2423 1.400 . S
C2420 H2405 0.960 . S
C2420 H2406 0.960 . S
C2420 H2407 0.960 . S
C2420 C2419 1.524 . S
C2421 C2418 1.403 . S
C2421 C2422 1.392 . S
C2421 C2425 1.495 . S
C2422 C2421 1.392 . S
C2422 C2423 1.385 . S
C2422 C2424 1.478 . S
C2423 H2417 0.930 . S
C2423 C2419 1.400 . S
C2423 C2422 1.385 . S
C2424 C2422 1.478 . S
C2424 C2426 1.381 . S
C2424 C2430 1.383 . S
C2425 C2421 1.495 . S
C2425 H2431 0.959 . S
C2425 H2432 0.961 . S
C2425 H2433 0.960 . S
C2426 C2424 1.381 . S
C2426 C2427 1.394 . S
C2426 H2434 0.930 . S
C2427 C2426 1.394 . S
C2427 C2428 1.383 . S
C2427 H2435 0.929 . S
C2428 C2427 1.383 . S
C2428 C2429 1.377 . S
C2429 H2413 0.930 . S
C2429 C2428 1.377 . S
C2429 C2430 1.379 . S
C2430 H2414 0.931 . S
C2430 C2424 1.383 . S
C2430 C2429 1.379 . S
H2431 C2425 0.959 . S
H2432 C2425 0.961 . S
H2433 C2425 0.960 . S
H2434 C2426 0.930 . S
H2435 C2427 0.929 . S
H2436 C2444 0.929 . S
H2437 C2446 0.930 . S
H2438 C2448 0.930 . S
H2439 C2451 0.929 . S
H2440 C2454 0.930 . S
H2441 C2456 0.960 . S
H2442 C2456 0.960 . S
H2443 C2456 0.960 . S
C2444 H2436 0.929 . S
C2444 C2445 1.377 . S
C2444 C2446 1.384 . S
C2445 C2444 1.377 . S
C2445 C2451 1.390 . S
C2446 H2437 0.930 . S
C2446 C2444 1.384 . S
C2446 C2447 1.372 . S
C2447 C2446 1.372 . S
C2447 C2448 1.400 . S
C2447 C2452 1.490 . S
C2448 H2438 0.930 . S
C2448 C2447 1.400 . S
C2448 C2451 1.386 . S
H2449 C2465 0.930 . S
H2450 C2466 0.931 . S
C2451 H2439 0.929 . S
C2451 C2445 1.390 . S
C2451 C2448 1.386 . S
C2452 C2447 1.490 . S
C2452 C2454 1.395 . S
C2452 C2455 1.403 . S
H2453 C2459 0.930 . S
C2454 H2440 0.930 . S
C2454 C2452 1.395 . S
C2454 C2457 1.403 . S
C2455 C2452 1.403 . S
C2455 C2456 1.524 . S
C2455 C2459 1.400 . S
C2456 H2441 0.960 . S
C2456 H2442 0.960 . S
C2456 H2443 0.960 . S
C2456 C2455 1.524 . S
C2457 C2454 1.403 . S
C2457 C2458 1.392 . S
C2457 C2461 1.495 . S
C2458 C2457 1.392 . S
C2458 C2459 1.385 . S
C2458 C2460 1.478 . S
C2459 H2453 0.930 . S
C2459 C2455 1.400 . S
C2459 C2458 1.385 . S
C2460 C2458 1.478 . S
C2460 C2462 1.381 . S
C2460 C2466 1.383 . S
C2461 C2457 1.495 . S
C2461 H2467 0.959 . S
C2461 H2468 0.961 . S
C2461 H2469 0.960 . S
C2462 C2460 1.381 . S
C2462 C2463 1.394 . S
C2462 H2470 0.930 . S
C2463 C2462 1.394 . S
C2463 C2464 1.383 . S
C2463 H2471 0.929 . S
C2464 C2463 1.383 . S
C2464 C2465 1.377 . S
C2465 H2449 0.930 . S
C2465 C2464 1.377 . S
C2465 C2466 1.379 . S
C2466 H2450 0.931 . S
C2466 C2460 1.383 . S
C2466 C2465 1.379 . S
H2467 C2461 0.959 . S
H2468 C2461 0.961 . S
H2469 C2461 0.960 . S
H2470 C2462 0.930 . S
H2471 C2463 0.929 . S
H2472 C2480 0.929 . S
H2473 C2482 0.930 . S
H2474 C2484 0.930 . S
H2475 C2487 0.929 . S
H2476 C2490 0.930 . S
H2477 C2492 0.960 . S
H2478 C2492 0.960 . S
H2479 C2492 0.960 . S
C2480 H2472 0.929 . S
C2480 C2481 1.377 . S
C2480 C2482 1.384 . S
C2481 C2480 1.377 . S
C2481 C2487 1.390 . S
C2482 H2473 0.930 . S
C2482 C2480 1.384 . S
C2482 C2483 1.372 . S
C2483 C2482 1.372 . S
C2483 C2484 1.400 . S
C2483 C2488 1.490 . S
C2484 H2474 0.930 . S
C2484 C2483 1.400 . S
C2484 C2487 1.386 . S
H2485 C2501 0.930 . S
H2486 C2502 0.931 . S
C2487 H2475 0.929 . S
C2487 C2481 1.390 . S
C2487 C2484 1.386 . S
C2488 C2483 1.490 . S
C2488 C2490 1.395 . S
C2488 C2491 1.403 . S
H2489 C2495 0.930 . S
C2490 H2476 0.930 . S
C2490 C2488 1.395 . S
C2490 C2493 1.403 . S
C2491 C2488 1.403 . S
C2491 C2492 1.524 . S
C2491 C2495 1.400 . S
C2492 H2477 0.960 . S
C2492 H2478 0.960 . S
C2492 H2479 0.960 . S
C2492 C2491 1.524 . S
C2493 C2490 1.403 . S
C2493 C2494 1.392 . S
C2493 C2497 1.495 . S
C2494 C2493 1.392 . S
C2494 C2495 1.385 . S
C2494 C2496 1.478 . S
C2495 H2489 0.930 . S
C2495 C2491 1.400 . S
C2495 C2494 1.385 . S
C2496 C2494 1.478 . S
C2496 C2498 1.381 . S
C2496 C2502 1.383 . S
C2497 C2493 1.495 . S
C2497 H2503 0.959 . S
C2497 H2504 0.961 . S
C2497 H2505 0.960 . S
C2498 C2496 1.381 . S
C2498 C2499 1.394 . S
C2498 H2506 0.930 . S
C2499 C2498 1.394 . S
C2499 C2500 1.383 . S
C2499 H2507 0.929 . S
C2500 C2499 1.383 . S
C2500 C2501 1.377 . S
C2501 H2485 0.930 . S
C2501 C2500 1.377 . S
C2501 C2502 1.379 . S
C2502 H2486 0.931 . S
C2502 C2496 1.383 . S
C2502 C2501 1.379 . S
H2503 C2497 0.959 . S
H2504 C2497 0.961 . S
H2505 C2497 0.960 . S
H2506 C2498 0.930 . S
H2507 C2499 0.929 . S
H2508 C2516 0.929 . S
H2509 C2518 0.930 . S
H2510 C2520 0.930 . S
H2511 C2523 0.929 . S
H2512 C2526 0.930 . S
H2513 C2528 0.960 . S
H2514 C2528 0.960 . S
H2515 C2528 0.960 . S
C2516 H2508 0.929 . S
C2516 C2517 1.377 . S
C2516 C2518 1.384 . S
C2517 C2516 1.377 . S
C2517 C2523 1.390 . S
C2518 H2509 0.930 . S
C2518 C2516 1.384 . S
C2518 C2519 1.372 . S
C2519 C2518 1.372 . S
C2519 C2520 1.400 . S
C2519 C2524 1.490 . S
C2520 H2510 0.930 . S
C2520 C2519 1.400 . S
C2520 C2523 1.386 . S
H2521 C2537 0.930 . S
H2522 C2538 0.931 . S
C2523 H2511 0.929 . S
C2523 C2517 1.390 . S
C2523 C2520 1.386 . S
C2524 C2519 1.490 . S
C2524 C2526 1.395 . S
C2524 C2527 1.403 . S
H2525 C2531 0.930 . S
C2526 H2512 0.930 . S
C2526 C2524 1.395 . S
C2526 C2529 1.403 . S
C2527 C2524 1.403 . S
C2527 C2528 1.524 . S
C2527 C2531 1.400 . S
C2528 H2513 0.960 . S
C2528 H2514 0.960 . S
C2528 H2515 0.960 . S
C2528 C2527 1.524 . S
C2529 C2526 1.403 . S
C2529 C2530 1.392 . S
C2529 C2533 1.495 . S
C2530 C2529 1.392 . S
C2530 C2531 1.385 . S
C2530 C2532 1.478 . S
C2531 H2525 0.930 . S
C2531 C2527 1.400 . S
C2531 C2530 1.385 . S
C2532 C2530 1.478 . S
C2532 C2534 1.381 . S
C2532 C2538 1.383 . S
C2533 C2529 1.495 . S
C2533 H2539 0.959 . S
C2533 H2540 0.961 . S
C2533 H2541 0.960 . S
C2534 C2532 1.381 . S
C2534 C2535 1.394 . S
C2534 H2542 0.930 . S
C2535 C2534 1.394 . S
C2535 C2536 1.383 . S
C2535 H2543 0.929 . S
C2536 C2535 1.383 . S
C2536 C2537 1.377 . S
C2537 H2521 0.930 . S
C2537 C2536 1.377 . S
C2537 C2538 1.379 . S
C2538 H2522 0.931 . S
C2538 C2532 1.383 . S
C2538 C2537 1.379 . S
H2539 C2533 0.959 . S
H2540 C2533 0.961 . S
H2541 C2533 0.960 . S
H2542 C2534 0.930 . S
H2543 C2535 0.929 . S
H2544 C2552 0.929 . S
H2545 C2554 0.930 . S
H2546 C2556 0.930 . S
H2547 C2559 0.929 . S
H2548 C2562 0.930 . S
H2549 C2564 0.960 . S
H2550 C2564 0.960 . S
H2551 C2564 0.960 . S
C2552 H2544 0.929 . S
C2552 C2553 1.377 . S
C2552 C2554 1.384 . S
C2553 C2552 1.377 . S
C2553 C2559 1.390 . S
C2554 H2545 0.930 . S
C2554 C2552 1.384 . S
C2554 C2555 1.372 . S
C2555 C2554 1.372 . S
C2555 C2556 1.400 . S
C2555 C2560 1.490 . S
C2556 H2546 0.930 . S
C2556 C2555 1.400 . S
C2556 C2559 1.386 . S
H2557 C2573 0.930 . S
H2558 C2574 0.931 . S
C2559 H2547 0.929 . S
C2559 C2553 1.390 . S
C2559 C2556 1.386 . S
C2560 C2555 1.490 . S
C2560 C2562 1.395 . S
C2560 C2563 1.403 . S
H2561 C2567 0.930 . S
C2562 H2548 0.930 . S
C2562 C2560 1.395 . S
C2562 C2565 1.403 . S
C2563 C2560 1.403 . S
C2563 C2564 1.524 . S
C2563 C2567 1.400 . S
C2564 H2549 0.960 . S
C2564 H2550 0.960 . S
C2564 H2551 0.960 . S
C2564 C2563 1.524 . S
C2565 C2562 1.403 . S
C2565 C2566 1.392 . S
C2565 C2569 1.495 . S
C2566 C2565 1.392 . S
C2566 C2567 1.385 . S
C2566 C2568 1.478 . S
C2567 H2561 0.930 . S
C2567 C2563 1.400 . S
C2567 C2566 1.385 . S
C2568 C2566 1.478 . S
C2568 C2570 1.381 . S
C2568 C2574 1.383 . S
C2569 C2565 1.495 . S
C2569 H2575 0.959 . S
C2569 H2576 0.961 . S
C2569 H2577 0.960 . S
C2570 C2568 1.381 . S
C2570 C2571 1.394 . S
C2570 H2578 0.930 . S
C2571 C2570 1.394 . S
C2571 C2572 1.383 . S
C2571 H2579 0.929 . S
C2572 C2571 1.383 . S
C2572 C2573 1.377 . S
C2573 H2557 0.930 . S
C2573 C2572 1.377 . S
C2573 C2574 1.379 . S
C2574 H2558 0.931 . S
C2574 C2568 1.383 . S
C2574 C2573 1.379 . S
H2575 C2569 0.959 . S
H2576 C2569 0.961 . S
H2577 C2569 0.960 . S
H2578 C2570 0.930 . S
H2579 C2571 0.929 . S
H2580 C2588 0.929 . S
H2581 C2590 0.930 . S
H2582 C2592 0.930 . S
H2583 C2595 0.929 . S
H2584 C2598 0.930 . S
H2585 C2600 0.960 . S
H2586 C2600 0.960 . S
H2587 C2600 0.960 . S
C2588 H2580 0.929 . S
C2588 C2589 1.377 . S
C2588 C2590 1.384 . S
C2589 C2588 1.377 . S
C2589 C2595 1.390 . S
C2590 H2581 0.930 . S
C2590 C2588 1.384 . S
C2590 C2591 1.372 . S
C2591 C2590 1.372 . S
C2591 C2592 1.400 . S
C2591 C2596 1.490 . S
C2592 H2582 0.930 . S
C2592 C2591 1.400 . S
C2592 C2595 1.386 . S
H2593 C2609 0.930 . S
H2594 C2610 0.931 . S
C2595 H2583 0.929 . S
C2595 C2589 1.390 . S
C2595 C2592 1.386 . S
C2596 C2591 1.490 . S
C2596 C2598 1.395 . S
C2596 C2599 1.403 . S
H2597 C2603 0.930 . S
C2598 H2584 0.930 . S
C2598 C2596 1.395 . S
C2598 C2601 1.403 . S
C2599 C2596 1.403 . S
C2599 C2600 1.524 . S
C2599 C2603 1.400 . S
C2600 H2585 0.960 . S
C2600 H2586 0.960 . S
C2600 H2587 0.960 . S
C2600 C2599 1.524 . S
C2601 C2598 1.403 . S
C2601 C2602 1.392 . S
C2601 C2605 1.495 . S
C2602 C2601 1.392 . S
C2602 C2603 1.385 . S
C2602 C2604 1.478 . S
C2603 H2597 0.930 . S
C2603 C2599 1.400 . S
C2603 C2602 1.385 . S
C2604 C2602 1.478 . S
C2604 C2606 1.381 . S
C2604 C2610 1.383 . S
C2605 C2601 1.495 . S
C2605 H2611 0.959 . S
C2605 H2612 0.961 . S
C2605 H2613 0.960 . S
C2606 C2604 1.381 . S
C2606 C2607 1.394 . S
C2606 H2614 0.930 . S
C2607 C2606 1.394 . S
C2607 C2608 1.383 . S
C2607 H2615 0.929 . S
C2608 C2607 1.383 . S
C2608 C2609 1.377 . S
C2609 H2593 0.930 . S
C2609 C2608 1.377 . S
C2609 C2610 1.379 . S
C2610 H2594 0.931 . S
C2610 C2604 1.383 . S
C2610 C2609 1.379 . S
H2611 C2605 0.959 . S
H2612 C2605 0.961 . S
H2613 C2605 0.960 . S
H2614 C2606 0.930 . S
H2615 C2607 0.929 . S
H2616 C2624 0.929 . S
H2617 C2626 0.930 . S
H2618 C2628 0.930 . S
H2619 C2631 0.929 . S
H2620 C2634 0.930 . S
H2621 C2636 0.960 . S
H2622 C2636 0.960 . S
H2623 C2636 0.960 . S
C2624 H2616 0.929 . S
C2624 C2625 1.377 . S
C2624 C2626 1.384 . S
C2625 C2624 1.377 . S
C2625 C2631 1.390 . S
C2626 H2617 0.930 . S
C2626 C2624 1.384 . S
C2626 C2627 1.372 . S
C2627 C2626 1.372 . S
C2627 C2628 1.400 . S
C2627 C2632 1.490 . S
C2628 H2618 0.930 . S
C2628 C2627 1.400 . S
C2628 C2631 1.386 . S
H2629 C2645 0.930 . S
H2630 C2646 0.931 . S
C2631 H2619 0.929 . S
C2631 C2625 1.390 . S
C2631 C2628 1.386 . S
C2632 C2627 1.490 . S
C2632 C2634 1.395 . S
C2632 C2635 1.403 . S
H2633 C2639 0.930 . S
C2634 H2620 0.930 . S
C2634 C2632 1.395 . S
C2634 C2637 1.403 . S
C2635 C2632 1.403 . S
C2635 C2636 1.524 . S
C2635 C2639 1.400 . S
C2636 H2621 0.960 . S
C2636 H2622 0.960 . S
C2636 H2623 0.960 . S
C2636 C2635 1.524 . S
C2637 C2634 1.403 . S
C2637 C2638 1.392 . S
C2637 C2641 1.495 . S
C2638 C2637 1.392 . S
C2638 C2639 1.385 . S
C2638 C2640 1.478 . S
C2639 H2633 0.930 . S
C2639 C2635 1.400 . S
C2639 C2638 1.385 . S
C2640 C2638 1.478 . S
C2640 C2642 1.381 . S
C2640 C2646 1.383 . S
C2641 C2637 1.495 . S
C2641 H2647 0.959 . S
C2641 H2648 0.961 . S
C2641 H2649 0.960 . S
C2642 C2640 1.381 . S
C2642 C2643 1.394 . S
C2642 H2650 0.930 . S
C2643 C2642 1.394 . S
C2643 C2644 1.383 . S
C2643 H2651 0.929 . S
C2644 C2643 1.383 . S
C2644 C2645 1.377 . S
C2645 H2629 0.930 . S
C2645 C2644 1.377 . S
C2645 C2646 1.379 . S
C2646 H2630 0.931 . S
C2646 C2640 1.383 . S
C2646 C2645 1.379 . S
H2647 C2641 0.959 . S
H2648 C2641 0.961 . S
H2649 C2641 0.960 . S
H2650 C2642 0.930 . S
H2651 C2643 0.929 . S
H2652 C2660 0.929 . S
H2653 C2662 0.930 . S
H2654 C2664 0.930 . S
H2655 C2667 0.929 . S
H2656 C2670 0.930 . S
H2657 C2672 0.960 . S
H2658 C2672 0.960 . S
H2659 C2672 0.960 . S
C2660 H2652 0.929 . S
C2660 C2661 1.377 . S
C2660 C2662 1.384 . S
C2661 C2660 1.377 . S
C2661 C2667 1.390 . S
C2662 H2653 0.930 . S
C2662 C2660 1.384 . S
C2662 C2663 1.372 . S
C2663 C2662 1.372 . S
C2663 C2664 1.400 . S
C2663 C2668 1.490 . S
C2664 H2654 0.930 . S
C2664 C2663 1.400 . S
C2664 C2667 1.386 . S
H2665 C2681 0.930 . S
H2666 C2682 0.931 . S
C2667 H2655 0.929 . S
C2667 C2661 1.390 . S
C2667 C2664 1.386 . S
C2668 C2663 1.490 . S
C2668 C2670 1.395 . S
C2668 C2671 1.403 . S
H2669 C2675 0.930 . S
C2670 H2656 0.930 . S
C2670 C2668 1.395 . S
C2670 C2673 1.403 . S
C2671 C2668 1.403 . S
C2671 C2672 1.524 . S
C2671 C2675 1.400 . S
C2672 H2657 0.960 . S
C2672 H2658 0.960 . S
C2672 H2659 0.960 . S
C2672 C2671 1.524 . S
C2673 C2670 1.403 . S
C2673 C2674 1.392 . S
C2673 C2677 1.495 . S
C2674 C2673 1.392 . S
C2674 C2675 1.385 . S
C2674 C2676 1.478 . S
C2675 H2669 0.930 . S
C2675 C2671 1.400 . S
C2675 C2674 1.385 . S
C2676 C2674 1.478 . S
C2676 C2678 1.381 . S
C2676 C2682 1.383 . S
C2677 C2673 1.495 . S
C2677 H2683 0.959 . S
C2677 H2684 0.961 . S
C2677 H2685 0.960 . S
C2678 C2676 1.381 . S
C2678 C2679 1.394 . S
C2678 H2686 0.930 . S
C2679 C2678 1.394 . S
C2679 C2680 1.383 . S
C2679 H2687 0.929 . S
C2680 C2679 1.383 . S
C2680 C2681 1.377 . S
C2681 H2665 0.930 . S
C2681 C2680 1.377 . S
C2681 C2682 1.379 . S
C2682 H2666 0.931 . S
C2682 C2676 1.383 . S
C2682 C2681 1.379 . S
H2683 C2677 0.959 . S
H2684 C2677 0.961 . S
H2685 C2677 0.960 . S
H2686 C2678 0.930 . S
H2687 C2679 0.929 . S
H2688 C2696 0.929 . S
H2689 C2698 0.930 . S
H2690 C2700 0.930 . S
H2691 C2703 0.929 . S
H2692 C2706 0.930 . S
H2693 C2708 0.960 . S
H2694 C2708 0.960 . S
H2695 C2708 0.960 . S
C2696 H2688 0.929 . S
C2696 C2697 1.377 . S
C2696 C2698 1.384 . S
C2697 C2696 1.377 . S
C2697 C2703 1.390 . S
C2698 H2689 0.930 . S
C2698 C2696 1.384 . S
C2698 C2699 1.372 . S
C2699 C2698 1.372 . S
C2699 C2700 1.400 . S
C2699 C2704 1.490 . S
C2700 H2690 0.930 . S
C2700 C2699 1.400 . S
C2700 C2703 1.386 . S
H2701 C2717 0.930 . S
H2702 C2718 0.931 . S
C2703 H2691 0.929 . S
C2703 C2697 1.390 . S
C2703 C2700 1.386 . S
C2704 C2699 1.490 . S
C2704 C2706 1.395 . S
C2704 C2707 1.403 . S
H2705 C2711 0.930 . S
C2706 H2692 0.930 . S
C2706 C2704 1.395 . S
C2706 C2709 1.403 . S
C2707 C2704 1.403 . S
C2707 C2708 1.524 . S
C2707 C2711 1.400 . S
C2708 H2693 0.960 . S
C2708 H2694 0.960 . S
C2708 H2695 0.960 . S
C2708 C2707 1.524 . S
C2709 C2706 1.403 . S
C2709 C2710 1.392 . S
C2709 C2713 1.495 . S
C2710 C2709 1.392 . S
C2710 C2711 1.385 . S
C2710 C2712 1.478 . S
C2711 H2705 0.930 . S
C2711 C2707 1.400 . S
C2711 C2710 1.385 . S
C2712 C2710 1.478 . S
C2712 C2714 1.381 . S
C2712 C2718 1.383 . S
C2713 C2709 1.495 . S
C2713 H2719 0.959 . S
C2713 H2720 0.961 . S
C2713 H2721 0.960 . S
C2714 C2712 1.381 . S
C2714 C2715 1.394 . S
C2714 H2722 0.930 . S
C2715 C2714 1.394 . S
C2715 C2716 1.383 . S
C2715 H2723 0.929 . S
C2716 C2715 1.383 . S
C2716 C2717 1.377 . S
C2717 H2701 0.930 . S
C2717 C2716 1.377 . S
C2717 C2718 1.379 . S
C2718 H2702 0.931 . S
C2718 C2712 1.383 . S
C2718 C2717 1.379 . S
H2719 C2713 0.959 . S
H2720 C2713 0.961 . S
H2721 C2713 0.960 . S
H2722 C2714 0.930 . S
H2723 C2715 0.929 . S
H2724 C2732 0.929 . S
H2725 C2734 0.930 . S
H2726 C2736 0.930 . S
H2727 C2739 0.929 . S
H2728 C2742 0.930 . S
H2729 C2744 0.960 . S
H2730 C2744 0.960 . S
H2731 C2744 0.960 . S
C2732 H2724 0.929 . S
C2732 C2733 1.377 . S
C2732 C2734 1.384 . S
C2733 C2732 1.377 . S
C2733 C2739 1.390 . S
C2734 H2725 0.930 . S
C2734 C2732 1.384 . S
C2734 C2735 1.372 . S
C2735 C2734 1.372 . S
C2735 C2736 1.400 . S
C2735 C2740 1.490 . S
C2736 H2726 0.930 . S
C2736 C2735 1.400 . S
C2736 C2739 1.386 . S
H2737 C2753 0.930 . S
H2738 C2754 0.931 . S
C2739 H2727 0.929 . S
C2739 C2733 1.390 . S
C2739 C2736 1.386 . S
C2740 C2735 1.490 . S
C2740 C2742 1.395 . S
C2740 C2743 1.403 . S
H2741 C2747 0.930 . S
C2742 H2728 0.930 . S
C2742 C2740 1.395 . S
C2742 C2745 1.403 . S
C2743 C2740 1.403 . S
C2743 C2744 1.524 . S
C2743 C2747 1.400 . S
C2744 H2729 0.960 . S
C2744 H2730 0.960 . S
C2744 H2731 0.960 . S
C2744 C2743 1.524 . S
C2745 C2742 1.403 . S
C2745 C2746 1.392 . S
C2745 C2749 1.495 . S
C2746 C2745 1.392 . S
C2746 C2747 1.385 . S
C2746 C2748 1.478 . S
C2747 H2741 0.930 . S
C2747 C2743 1.400 . S
C2747 C2746 1.385 . S
C2748 C2746 1.478 . S
C2748 C2750 1.381 . S
C2748 C2754 1.383 . S
C2749 C2745 1.495 . S
C2749 H2755 0.959 . S
C2749 H2756 0.961 . S
C2749 H2757 0.960 . S
C2750 C2748 1.381 . S
C2750 C2751 1.394 . S
C2750 H2758 0.930 . S
C2751 C2750 1.394 . S
C2751 C2752 1.383 . S
C2751 H2759 0.929 . S
C2752 C2751 1.383 . S
C2752 C2753 1.377 . S
C2753 H2737 0.930 . S
C2753 C2752 1.377 . S
C2753 C2754 1.379 . S
C2754 H2738 0.931 . S
C2754 C2748 1.383 . S
C2754 C2753 1.379 . S
H2755 C2749 0.959 . S
H2756 C2749 0.961 . S
H2757 C2749 0.960 . S
H2758 C2750 0.930 . S
H2759 C2751 0.929 . S
H2760 C2768 0.929 . S
H2761 C2770 0.930 . S
H2762 C2772 0.930 . S
H2763 C2775 0.929 . S
H2764 C2778 0.930 . S
H2765 C2780 0.960 . S
H2766 C2780 0.960 . S
H2767 C2780 0.960 . S
C2768 H2760 0.929 . S
C2768 C2769 1.377 . S
C2768 C2770 1.384 . S
C2769 C2768 1.377 . S
C2769 C2775 1.390 . S
C2770 H2761 0.930 . S
C2770 C2768 1.384 . S
C2770 C2771 1.372 . S
C2771 C2770 1.372 . S
C2771 C2772 1.400 . S
C2771 C2776 1.490 . S
C2772 H2762 0.930 . S
C2772 C2771 1.400 . S
C2772 C2775 1.386 . S
H2773 C2789 0.930 1_554 S
H2774 C2790 0.931 . S
C2775 H2763 0.929 . S
C2775 C2769 1.390 . S
C2775 C2772 1.386 . S
C2776 C2771 1.490 . S
C2776 C2778 1.395 . S
C2776 C2779 1.403 . S
H2777 C2783 0.930 . S
C2778 H2764 0.930 . S
C2778 C2776 1.395 . S
C2778 C2781 1.403 . S
C2779 C2776 1.403 . S
C2779 C2780 1.524 . S
C2779 C2783 1.400 . S
C2780 H2765 0.960 . S
C2780 H2766 0.960 . S
C2780 H2767 0.960 . S
C2780 C2779 1.524 . S
C2781 C2778 1.403 . S
C2781 C2782 1.392 . S
C2781 C2785 1.495 . S
C2782 C2781 1.392 . S
C2782 C2783 1.385 . S
C2782 C2784 1.478 . S
C2783 H2777 0.930 . S
C2783 C2779 1.400 . S
C2783 C2782 1.385 . S
C2784 C2782 1.478 . S
C2784 C2786 1.381 . S
C2784 C2790 1.383 . S
C2785 C2781 1.495 . S
C2785 H2791 0.959 . S
C2785 H2792 0.961 . S
C2785 H2793 0.960 . S
C2786 C2784 1.381 . S
C2786 C2787 1.388 1_565 S
C2786 H2794 0.930 . S
C2787 C2786 1.388 1_545 S
C2787 C2788 1.382 1_545 S
C2787 H2795 0.937 . S
C2788 C2787 1.382 1_565 S
C2788 C2789 1.377 . S
C2789 H2773 0.930 1_556 S
C2789 C2788 1.377 . S
C2789 C2790 1.379 . S
C2790 H2774 0.931 . S
C2790 C2784 1.383 . S
C2790 C2789 1.379 . S
H2791 C2785 0.959 . S
H2792 C2785 0.961 . S
H2793 C2785 0.960 . S
H2794 C2786 0.930 . S
H2795 C2787 0.937 . S
H2796 C2804 0.929 . S
H2797 C2806 0.930 . S
H2798 C2808 0.930 . S
H2799 C2811 0.929 . S
H2800 C2814 0.930 . S
H2801 C2816 0.960 . S
H2802 C2816 0.960 . S
H2803 C2816 0.960 . S
C2804 H2796 0.929 . S
C2804 C2805 1.377 . S
C2804 C2806 1.384 . S
C2805 C2804 1.377 . S
C2805 C2811 1.390 . S
C2806 H2797 0.930 . S
C2806 C2804 1.384 . S
C2806 C2807 1.372 . S
C2807 C2806 1.372 . S
C2807 C2808 1.400 . S
C2807 C2812 1.490 . S
C2808 H2798 0.930 . S
C2808 C2807 1.400 . S
C2808 C2811 1.386 . S
H2809 C2825 0.930 . S
H2810 C2826 0.931 . S
C2811 H2799 0.929 . S
C2811 C2805 1.390 . S
C2811 C2808 1.386 . S
C2812 C2807 1.490 . S
C2812 C2814 1.395 . S
C2812 C2815 1.403 . S
H2813 C2819 0.930 . S
C2814 H2800 0.930 . S
C2814 C2812 1.395 . S
C2814 C2817 1.403 . S
C2815 C2812 1.403 . S
C2815 C2816 1.524 . S
C2815 C2819 1.400 . S
C2816 H2801 0.960 . S
C2816 H2802 0.960 . S
C2816 H2803 0.960 . S
C2816 C2815 1.524 . S
C2817 C2814 1.403 . S
C2817 C2818 1.392 . S
C2817 C2821 1.495 . S
C2818 C2817 1.392 . S
C2818 C2819 1.385 . S
C2818 C2820 1.478 . S
C2819 H2813 0.930 . S
C2819 C2815 1.400 . S
C2819 C2818 1.385 . S
C2820 C2818 1.478 . S
C2820 C2822 1.381 . S
C2820 C2826 1.383 . S
C2821 C2817 1.495 . S
C2821 H2827 0.959 . S
C2821 H2828 0.961 . S
C2821 H2829 0.960 . S
C2822 C2820 1.381 . S
C2822 C2823 1.394 . S
C2822 H2830 0.930 . S
C2823 C2822 1.394 . S
C2823 C2824 1.383 . S
C2823 H2831 0.929 . S
C2824 C2823 1.383 . S
C2824 C2825 1.377 . S
C2825 H2809 0.930 . S
C2825 C2824 1.377 . S
C2825 C2826 1.379 . S
C2826 H2810 0.931 . S
C2826 C2820 1.383 . S
C2826 C2825 1.379 . S
H2827 C2821 0.959 . S
H2828 C2821 0.961 . S
H2829 C2821 0.960 . S
H2830 C2822 0.930 . S
H2831 C2823 0.929 . S
H2832 C2840 0.929 . S
H2833 C2842 0.930 . S
H2834 C2844 0.930 1_565 S
H2835 C2847 0.930 1_565 S
H2836 C2850 0.930 . S
H2837 C2852 0.960 . S
H2838 C2852 0.960 . S
H2839 C2852 0.960 . S
C2840 H2832 0.929 . S
C2840 C2841 1.377 . S
C2840 C2842 1.384 . S
C2841 C2840 1.377 . S
C2841 C2847 1.390 . S
C2842 H2833 0.930 . S
C2842 C2840 1.384 . S
C2842 C2843 1.372 . S
C2843 C2842 1.372 . S
C2843 C2844 1.400 . S
C2843 C2848 1.490 . S
C2844 H2834 0.930 1_545 S
C2844 C2843 1.400 . S
C2844 C2847 1.385 . S
H2845 C2861 0.930 . S
H2846 C2862 0.931 . S
C2847 H2835 0.930 1_545 S
C2847 C2841 1.390 . S
C2847 C2844 1.385 . S
C2848 C2843 1.490 . S
C2848 C2850 1.395 . S
C2848 C2851 1.403 1_545 S
H2849 C2855 0.930 . S
C2850 H2836 0.930 . S
C2850 C2848 1.395 . S
C2850 C2853 1.403 . S
C2851 C2848 1.403 1_565 S
C2851 C2852 1.524 . S
C2851 C2855 1.400 . S
C2852 H2837 0.960 . S
C2852 H2838 0.960 . S
C2852 H2839 0.960 . S
C2852 C2851 1.524 . S
C2853 C2850 1.403 . S
C2853 C2854 1.392 . S
C2853 C2857 1.495 . S
C2854 C2853 1.392 . S
C2854 C2855 1.385 1_545 S
C2854 C2856 1.478 . S
C2855 H2849 0.930 . S
C2855 C2851 1.400 . S
C2855 C2854 1.385 1_565 S
C2856 C2854 1.478 . S
C2856 C2858 1.381 . S
C2856 C2862 1.383 . S
C2857 C2853 1.495 . S
C2857 H2863 0.959 . S
C2857 H2864 0.961 . S
C2857 H2865 0.960 . S
C2858 C2856 1.381 . S
C2858 C2859 1.394 . S
C2858 H2866 0.930 . S
C2859 C2858 1.394 . S
C2859 C2860 1.383 . S
C2859 H2867 0.929 . S
C2860 C2859 1.383 . S
C2860 C2861 1.377 . S
C2861 H2845 0.930 . S
C2861 C2860 1.377 . S
C2861 C2862 1.379 . S
C2862 H2846 0.931 . S
C2862 C2856 1.383 . S
C2862 C2861 1.379 . S
H2863 C2857 0.959 . S
H2864 C2857 0.961 . S
H2865 C2857 0.960 . S
H2866 C2858 0.930 . S
H2867 C2859 0.929 . S
H2868 C2876 0.929 . S
H2869 C2878 0.930 . S
H2870 C2880 0.930 . S
H2871 C2883 0.929 . S
H2872 C2886 0.930 . S
H2873 C2888 0.960 . S
H2874 C2888 0.960 . S
H2875 C2888 0.960 . S
C2876 H2868 0.929 . S
C2876 C2877 1.377 . S
C2876 C2878 1.384 . S
C2877 C2876 1.377 . S
C2877 C2883 1.390 . S
C2878 H2869 0.930 . S
C2878 C2876 1.384 . S
C2878 C2879 1.372 . S
C2879 C2878 1.372 . S
C2879 C2880 1.400 . S
C2879 C2884 1.490 . S
C2880 H2870 0.930 . S
C2880 C2879 1.400 . S
C2880 C2883 1.386 . S
H2881 C2897 0.930 . S
H2882 C2898 0.931 . S
C2883 H2871 0.929 . S
C2883 C2877 1.390 . S
C2883 C2880 1.386 . S
C2884 C2879 1.490 . S
C2884 C2886 1.395 . S
C2884 C2887 1.403 . S
H2885 C2891 0.930 . S
C2886 H2872 0.930 . S
C2886 C2884 1.395 . S
C2886 C2889 1.403 . S
C2887 C2884 1.403 . S
C2887 C2888 1.524 . S
C2887 C2891 1.400 . S
C2888 H2873 0.960 . S
C2888 H2874 0.960 . S
C2888 H2875 0.960 . S
C2888 C2887 1.524 . S
C2889 C2886 1.403 . S
C2889 C2890 1.392 . S
C2889 C2893 1.495 . S
C2890 C2889 1.392 . S
C2890 C2891 1.385 . S
C2890 C2892 1.478 . S
C2891 H2885 0.930 . S
C2891 C2887 1.400 . S
C2891 C2890 1.385 . S
C2892 C2890 1.478 . S
C2892 C2894 1.381 . S
C2892 C2898 1.383 . S
C2893 C2889 1.495 . S
C2893 H2899 0.959 . S
C2893 H2900 0.961 . S
C2893 H2901 0.960 . S
C2894 C2892 1.381 . S
C2894 C2895 1.394 . S
C2894 H2902 0.930 . S
C2895 C2894 1.394 . S
C2895 C2896 1.383 . S
C2895 H2903 0.929 . S
C2896 C2895 1.383 . S
C2896 C2897 1.377 . S
C2897 H2881 0.930 . S
C2897 C2896 1.377 . S
C2897 C2898 1.379 . S
C2898 H2882 0.931 . S
C2898 C2892 1.383 . S
C2898 C2897 1.379 . S
H2899 C2893 0.959 . S
H2900 C2893 0.961 . S
H2901 C2893 0.960 . S
H2902 C2894 0.930 . S
H2903 C2895 0.929 . S
H2904 C2912 0.929 . S
H2905 C2914 0.930 . S
H2906 C2916 0.930 . S
H2907 C2919 0.929 . S
H2908 C2922 0.930 . S
H2909 C2924 0.960 . S
H2910 C2924 0.960 . S
H2911 C2924 0.960 . S
C2912 H2904 0.929 . S
C2912 C2913 1.377 . S
C2912 C2914 1.384 . S
C2913 C2912 1.377 . S
C2913 C2919 1.390 . S
C2914 H2905 0.930 . S
C2914 C2912 1.384 . S
C2914 C2915 1.372 . S
C2915 C2914 1.372 . S
C2915 C2916 1.400 . S
C2915 C2920 1.490 . S
C2916 H2906 0.930 . S
C2916 C2915 1.400 . S
C2916 C2919 1.386 . S
H2917 C2933 0.930 . S
H2918 C2934 0.931 . S
C2919 H2907 0.929 . S
C2919 C2913 1.390 . S
C2919 C2916 1.386 . S
C2920 C2915 1.490 . S
C2920 C2922 1.395 . S
C2920 C2923 1.403 . S
H2921 C2927 0.930 . S
C2922 H2908 0.930 . S
C2922 C2920 1.395 . S
C2922 C2925 1.403 . S
C2923 C2920 1.403 . S
C2923 C2924 1.524 . S
C2923 C2927 1.400 . S
C2924 H2909 0.960 . S
C2924 H2910 0.960 . S
C2924 H2911 0.960 . S
C2924 C2923 1.524 . S
C2925 C2922 1.403 . S
C2925 C2926 1.392 . S
C2925 C2929 1.495 . S
C2926 C2925 1.392 . S
C2926 C2927 1.385 . S
C2926 C2928 1.478 . S
C2927 H2921 0.930 . S
C2927 C2923 1.400 . S
C2927 C2926 1.385 . S
C2928 C2926 1.478 . S
C2928 C2930 1.381 . S
C2928 C2934 1.383 . S
C2929 C2925 1.495 . S
C2929 H2935 0.959 1_545 S
C2929 H2936 0.961 1_545 S
C2929 H2937 0.960 . S
C2930 C2928 1.381 . S
C2930 C2931 1.394 . S
C2930 H2938 0.930 . S
C2931 C2930 1.394 . S
C2931 C2932 1.383 . S
C2931 H2939 0.929 . S
C2932 C2931 1.383 . S
C2932 C2933 1.377 . S
C2933 H2917 0.930 . S
C2933 C2932 1.377 . S
C2933 C2934 1.379 . S
C2934 H2918 0.931 . S
C2934 C2928 1.383 . S
C2934 C2933 1.379 . S
H2935 C2929 0.959 1_565 S
H2936 C2929 0.961 1_565 S
H2937 C2929 0.960 . S
H2938 C2930 0.930 . S
H2939 C2931 0.929 . S
H2940 C2948 0.929 . S
H2941 C2950 0.930 . S
H2942 C2952 0.930 . S
H2943 C2955 0.929 . S
H2944 C2958 0.930 . S
H2945 C2960 0.960 . S
H2946 C2960 0.960 . S
H2947 C2960 0.960 . S
C2948 H2940 0.929 . S
C2948 C2949 1.377 . S
C2948 C2950 1.384 . S
C2949 C2948 1.377 . S
C2949 C2955 1.390 . S
C2950 H2941 0.930 . S
C2950 C2948 1.384 . S
C2950 C2951 1.372 . S
C2951 C2950 1.372 . S
C2951 C2952 1.400 . S
C2951 C2956 1.490 . S
C2952 H2942 0.930 . S
C2952 C2951 1.400 . S
C2952 C2955 1.386 . S
H2953 C2969 0.930 . S
H2954 C2970 0.931 . S
C2955 H2943 0.929 . S
C2955 C2949 1.390 . S
C2955 C2952 1.386 . S
C2956 C2951 1.490 . S
C2956 C2958 1.395 . S
C2956 C2959 1.403 . S
H2957 C2963 0.930 . S
C2958 H2944 0.930 . S
C2958 C2956 1.395 . S
C2958 C2961 1.403 . S
C2959 C2956 1.403 . S
C2959 C2960 1.524 . S
C2959 C2963 1.400 . S
C2960 H2945 0.960 . S
C2960 H2946 0.960 . S
C2960 H2947 0.960 . S
C2960 C2959 1.524 . S
C2961 C2958 1.403 . S
C2961 C2962 1.392 . S
C2961 C2965 1.495 . S
C2962 C2961 1.392 . S
C2962 C2963 1.385 . S
C2962 C2964 1.478 . S
C2963 H2957 0.930 . S
C2963 C2959 1.400 . S
C2963 C2962 1.385 . S
C2964 C2962 1.478 . S
C2964 C2966 1.381 . S
C2964 C2970 1.383 . S
C2965 C2961 1.495 . S
C2965 H2971 0.959 . S
C2965 H2972 0.961 . S
C2965 H2973 0.960 . S
C2966 C2964 1.381 . S
C2966 C2967 1.394 . S
C2966 H2974 0.930 . S
C2967 C2966 1.394 . S
C2967 C2968 1.383 . S
C2967 H2975 0.929 . S
C2968 C2967 1.383 . S
C2968 C2969 1.377 . S
C2969 H2953 0.930 . S
C2969 C2968 1.377 . S
C2969 C2970 1.379 . S
C2970 H2954 0.931 . S
C2970 C2964 1.383 . S
C2970 C2969 1.379 . S
H2971 C2965 0.959 . S
H2972 C2965 0.961 . S
H2973 C2965 0.960 . S
H2974 C2966 0.930 . S
H2975 C2967 0.929 . S
H2976 C2984 0.929 . S
H2977 C2986 0.930 . S
H2978 C2988 0.930 . S
H2979 C2991 0.928 . S
H2980 C2994 0.930 . S
H2981 C2996 0.960 . S
H2982 C2996 0.960 . S
H2983 C2996 0.960 . S
C2984 H2976 0.929 . S
C2984 C2985 1.377 . S
C2984 C2986 1.384 1_565 S
C2985 C2984 1.377 . S
C2985 C2991 1.379 1_565 S
C2986 H2977 0.930 . S
C2986 C2984 1.384 1_545 S
C2986 C2987 1.372 . S
C2987 C2986 1.372 . S
C2987 C2988 1.400 . S
C2987 C2992 1.490 . S
C2988 H2978 0.930 . S
C2988 C2987 1.400 . S
C2988 C2991 1.399 . S
H2989 C3005 0.930 . S
H2990 C3006 0.931 . S
C2991 H2979 0.928 . S
C2991 C2985 1.379 1_545 S
C2991 C2988 1.399 . S
C2992 C2987 1.490 . S
C2992 C2994 1.395 1_545 S
C2992 C2995 1.403 . S
H2993 C2999 0.930 . S
C2994 H2980 0.930 . S
C2994 C2992 1.395 1_565 S
C2994 C2997 1.403 . S
C2995 C2992 1.403 . S
C2995 C2996 1.524 . S
C2995 C2999 1.400 . S
C2996 H2981 0.960 . S
C2996 H2982 0.960 . S
C2996 H2983 0.960 . S
C2996 C2995 1.524 . S
C2997 C2994 1.403 . S
C2997 C2998 1.392 1_565 S
C2997 C3001 1.495 . S
C2998 C2997 1.392 1_545 S
C2998 C2999 1.385 . S
C2998 C3000 1.478 . S
C2999 H2993 0.930 . S
C2999 C2995 1.400 . S
C2999 C2998 1.385 . S
C3000 C2998 1.478 . S
C3000 C3002 1.381 . S
C3000 C3006 1.383 . S
C3001 C2997 1.495 . S
C3001 H3007 0.959 . S
C3001 H3008 0.961 . S
C3001 H3009 0.960 . S
C3002 C3000 1.381 . S
C3002 C3003 1.394 . S
C3002 H3010 0.930 . S
C3003 C3002 1.394 . S
C3003 C3004 1.383 . S
C3003 H3011 0.929 . S
C3004 C3003 1.383 . S
C3004 C3005 1.377 . S
C3005 H2989 0.930 . S
C3005 C3004 1.377 . S
C3005 C3006 1.379 . S
C3006 H2990 0.931 . S
C3006 C3000 1.383 . S
C3006 C3005 1.379 . S
H3007 C3001 0.959 . S
H3008 C3001 0.961 . S
H3009 C3001 0.960 . S
H3010 C3002 0.930 . S
H3011 C3003 0.929 . S
H3012 C3020 0.929 . S
H3013 C3022 0.930 . S
H3014 C3024 0.930 . S
H3015 C3027 0.929 . S
H3016 C3030 0.930 . S
H3017 C3032 0.960 . S
H3018 C3032 0.960 . S
H3019 C3032 0.960 . S
C3020 H3012 0.929 . S
C3020 C3021 1.377 . S
C3020 C3022 1.384 . S
C3021 C3020 1.377 . S
C3021 C3027 1.390 . S
C3022 H3013 0.930 . S
C3022 C3020 1.384 . S
C3022 C3023 1.372 . S
C3023 C3022 1.372 . S
C3023 C3024 1.400 . S
C3023 C3028 1.490 . S
C3024 H3014 0.930 . S
C3024 C3023 1.400 . S
C3024 C3027 1.386 . S
H3025 C3041 0.930 . S
H3026 C3042 0.931 . S
C3027 H3015 0.929 . S
C3027 C3021 1.390 . S
C3027 C3024 1.386 . S
C3028 C3023 1.490 . S
C3028 C3030 1.395 . S
C3028 C3031 1.403 . S
H3029 C3035 0.930 . S
C3030 H3016 0.930 . S
C3030 C3028 1.395 . S
C3030 C3033 1.403 . S
C3031 C3028 1.403 . S
C3031 C3032 1.524 . S
C3031 C3035 1.400 . S
C3032 H3017 0.960 . S
C3032 H3018 0.960 . S
C3032 H3019 0.960 . S
C3032 C3031 1.524 . S
C3033 C3030 1.403 . S
C3033 C3034 1.392 . S
C3033 C3037 1.495 . S
C3034 C3033 1.392 . S
C3034 C3035 1.385 . S
C3034 C3036 1.478 . S
C3035 H3029 0.930 . S
C3035 C3031 1.400 . S
C3035 C3034 1.385 . S
C3036 C3034 1.478 . S
C3036 C3038 1.381 . S
C3036 C3042 1.383 . S
C3037 C3033 1.495 . S
C3037 H3043 0.959 . S
C3037 H3044 0.961 . S
C3037 H3045 0.960 . S
C3038 C3036 1.381 . S
C3038 C3039 1.394 . S
C3038 H3046 0.930 . S
C3039 C3038 1.394 . S
C3039 C3040 1.383 . S
C3039 H3047 0.929 . S
C3040 C3039 1.383 . S
C3040 C3041 1.377 . S
C3041 H3025 0.930 . S
C3041 C3040 1.377 . S
C3041 C3042 1.379 . S
C3042 H3026 0.931 . S
C3042 C3036 1.383 . S
C3042 C3041 1.379 . S
H3043 C3037 0.959 . S
H3044 C3037 0.961 . S
H3045 C3037 0.960 . S
H3046 C3038 0.930 . S
H3047 C3039 0.929 . S
H3048 C3056 0.929 . S
H3049 C3058 0.930 . S
H3050 C3060 0.930 . S
H3051 C3063 0.929 . S
H3052 C3066 0.930 . S
H3053 C3068 0.960 . S
H3054 C3068 0.960 . S
H3055 C3068 0.960 . S
C3056 H3048 0.929 . S
C3056 C3057 1.377 . S
C3056 C3058 1.384 . S
C3057 C3056 1.377 . S
C3057 C3063 1.390 . S
C3058 H3049 0.930 . S
C3058 C3056 1.384 . S
C3058 C3059 1.372 . S
C3059 C3058 1.372 . S
C3059 C3060 1.400 . S
C3059 C3064 1.490 . S
C3060 H3050 0.930 . S
C3060 C3059 1.400 . S
C3060 C3063 1.386 . S
H3061 C3077 0.930 . S
H3062 C3078 0.931 . S
C3063 H3051 0.929 . S
C3063 C3057 1.390 . S
C3063 C3060 1.386 . S
C3064 C3059 1.490 . S
C3064 C3066 1.395 . S
C3064 C3067 1.403 . S
H3065 C3071 0.930 . S
C3066 H3052 0.930 . S
C3066 C3064 1.395 . S
C3066 C3069 1.403 . S
C3067 C3064 1.403 . S
C3067 C3068 1.524 . S
C3067 C3071 1.400 . S
C3068 H3053 0.960 . S
C3068 H3054 0.960 . S
C3068 H3055 0.960 . S
C3068 C3067 1.524 . S
C3069 C3066 1.403 . S
C3069 C3070 1.392 . S
C3069 C3073 1.495 . S
C3070 C3069 1.392 . S
C3070 C3071 1.385 . S
C3070 C3072 1.478 . S
C3071 H3065 0.930 . S
C3071 C3067 1.400 . S
C3071 C3070 1.385 . S
C3072 C3070 1.478 . S
C3072 C3074 1.381 . S
C3072 C3078 1.383 . S
C3073 C3069 1.495 . S
C3073 H3079 0.959 . S
C3073 H3080 0.958 . S
C3073 H3081 0.960 . S
C3074 C3072 1.381 . S
C3074 C3075 1.394 . S
C3074 H3082 0.930 . S
C3075 C3074 1.394 . S
C3075 C3076 1.383 . S
C3075 H3083 0.929 . S
C3076 C3075 1.383 . S
C3076 C3077 1.377 . S
C3077 H3061 0.930 . S
C3077 C3076 1.377 . S
C3077 C3078 1.379 . S
C3078 H3062 0.931 . S
C3078 C3072 1.383 . S
C3078 C3077 1.379 . S
H3079 C3073 0.959 . S
H3080 C3073 0.958 . S
H3081 C3073 0.960 . S
H3082 C3074 0.930 . S
H3083 C3075 0.929 . S
H3084 C3092 0.929 . S
H3085 C3094 0.930 . S
H3086 C3096 0.930 . S
H3087 C3099 0.929 . S
H3088 C3102 0.930 . S
H3089 C3104 0.960 . S
H3090 C3104 0.960 . S
H3091 C3104 0.960 . S
C3092 H3084 0.929 . S
C3092 C3093 1.377 . S
C3092 C3094 1.384 . S
C3093 C3092 1.377 . S
C3093 C3099 1.390 . S
C3094 H3085 0.930 . S
C3094 C3092 1.384 . S
C3094 C3095 1.372 . S
C3095 C3094 1.372 . S
C3095 C3096 1.400 . S
C3095 C3100 1.490 . S
C3096 H3086 0.930 . S
C3096 C3095 1.400 . S
C3096 C3099 1.386 . S
H3097 C3113 0.930 . S
H3098 C3114 0.931 . S
C3099 H3087 0.929 . S
C3099 C3093 1.390 . S
C3099 C3096 1.386 . S
C3100 C3095 1.490 . S
C3100 C3102 1.395 . S
C3100 C3103 1.403 . S
H3101 C3107 0.930 . S
C3102 H3088 0.930 . S
C3102 C3100 1.395 . S
C3102 C3105 1.403 . S
C3103 C3100 1.403 . S
C3103 C3104 1.524 . S
C3103 C3107 1.400 . S
C3104 H3089 0.960 . S
C3104 H3090 0.960 . S
C3104 H3091 0.960 . S
C3104 C3103 1.524 . S
C3105 C3102 1.403 . S
C3105 C3106 1.392 . S
C3105 C3109 1.495 . S
C3106 C3105 1.392 . S
C3106 C3107 1.385 . S
C3106 C3108 1.478 . S
C3107 H3101 0.930 . S
C3107 C3103 1.400 . S
C3107 C3106 1.385 . S
C3108 C3106 1.478 . S
C3108 C3110 1.381 . S
C3108 C3114 1.383 . S
C3109 C3105 1.495 . S
C3109 H3115 0.959 . S
C3109 H3116 0.961 . S
C3109 H3117 0.960 . S
C3110 C3108 1.381 . S
C3110 C3111 1.394 . S
C3110 H3118 0.930 . S
C3111 C3110 1.394 . S
C3111 C3112 1.383 . S
C3111 H3119 0.929 . S
C3112 C3111 1.383 . S
C3112 C3113 1.377 . S
C3113 H3097 0.930 . S
C3113 C3112 1.377 . S
C3113 C3114 1.379 . S
C3114 H3098 0.931 . S
C3114 C3108 1.383 . S
C3114 C3113 1.379 . S
H3115 C3109 0.959 . S
H3116 C3109 0.961 . S
H3117 C3109 0.960 . S
H3118 C3110 0.930 . S
H3119 C3111 0.929 . S
H3120 C3128 0.929 . S
H3121 C3130 0.930 . S
H3122 C3132 0.930 1_556 S
H3123 C3135 0.929 1_556 S
H3124 C3138 0.930 . S
H3125 C3140 0.960 . S
H3126 C3140 0.960 . S
H3127 C3140 0.960 . S
C3128 H3120 0.929 . S
C3128 C3129 1.377 . S
C3128 C3130 1.384 . S
C3129 C3128 1.377 . S
C3129 C3135 1.390 . S
C3130 H3121 0.930 . S
C3130 C3128 1.384 . S
C3130 C3131 1.372 . S
C3131 C3130 1.372 . S
C3131 C3132 1.400 . S
C3131 C3136 1.490 . S
C3132 H3122 0.930 1_554 S
C3132 C3131 1.400 . S
C3132 C3135 1.386 . S
H3133 C3149 0.930 . S
H3134 C3150 0.931 . S
C3135 H3123 0.929 1_554 S
C3135 C3129 1.390 . S
C3135 C3132 1.386 . S
C3136 C3131 1.490 . S
C3136 C3138 1.395 . S
C3136 C3139 1.403 . S
H3137 C3143 0.930 . S
C3138 H3124 0.930 . S
C3138 C3136 1.395 . S
C3138 C3141 1.403 . S
C3139 C3136 1.403 . S
C3139 C3140 1.524 . S
C3139 C3143 1.400 . S
C3140 H3125 0.960 . S
C3140 H3126 0.960 . S
C3140 H3127 0.960 . S
C3140 C3139 1.524 . S
C3141 C3138 1.403 . S
C3141 C3142 1.392 . S
C3141 C3145 1.495 . S
C3142 C3141 1.392 . S
C3142 C3143 1.385 . S
C3142 C3144 1.478 . S
C3143 H3137 0.930 . S
C3143 C3139 1.400 . S
C3143 C3142 1.385 . S
C3144 C3142 1.478 . S
C3144 C3146 1.381 . S
C3144 C3150 1.383 1_554 S
C3145 C3141 1.495 . S
C3145 H3151 0.959 . S
C3145 H3152 0.961 . S
C3145 H3153 0.960 . S
C3146 C3144 1.381 . S
C3146 C3147 1.394 . S
C3146 H3154 0.930 . S
C3147 C3146 1.394 . S
C3147 C3148 1.383 . S
C3147 H3155 0.929 . S
C3148 C3147 1.383 . S
C3148 C3149 1.377 1_554 S
C3149 H3133 0.930 . S
C3149 C3148 1.377 1_556 S
C3149 C3150 1.379 . S
C3150 H3134 0.931 . S
C3150 C3144 1.383 1_556 S
C3150 C3149 1.379 . S
H3151 C3145 0.959 . S
H3152 C3145 0.961 . S
H3153 C3145 0.960 . S
H3154 C3146 0.930 . S
H3155 C3147 0.929 . S
H3156 C3164 0.929 . S
H3157 C3166 0.930 . S
H3158 C3168 0.930 . S
H3159 C3171 0.929 . S
H3160 C3174 0.930 . S
H3161 C3176 0.960 . S
H3162 C3176 0.960 . S
H3163 C3176 0.960 . S
C3164 H3156 0.929 . S
C3164 C3165 1.377 . S
C3164 C3166 1.384 . S
C3165 C3164 1.377 . S
C3165 C3171 1.390 . S
C3166 H3157 0.930 . S
C3166 C3164 1.384 . S
C3166 C3167 1.372 . S
C3167 C3166 1.372 . S
C3167 C3168 1.400 . S
C3167 C3172 1.490 . S
C3168 H3158 0.930 . S
C3168 C3167 1.400 . S
C3168 C3171 1.386 . S
H3169 C3185 0.930 . S
H3170 C3186 0.931 . S
C3171 H3159 0.929 . S
C3171 C3165 1.390 . S
C3171 C3168 1.386 . S
C3172 C3167 1.490 . S
C3172 C3174 1.395 . S
C3172 C3175 1.403 . S
H3173 C3179 0.930 . S
C3174 H3160 0.930 . S
C3174 C3172 1.395 . S
C3174 C3177 1.403 . S
C3175 C3172 1.403 . S
C3175 C3176 1.524 . S
C3175 C3179 1.400 . S
C3176 H3161 0.960 . S
C3176 H3162 0.960 . S
C3176 H3163 0.960 . S
C3176 C3175 1.524 . S
C3177 C3174 1.403 . S
C3177 C3178 1.392 . S
C3177 C3181 1.495 . S
C3178 C3177 1.392 . S
C3178 C3179 1.385 . S
C3178 C3180 1.478 . S
C3179 H3173 0.930 . S
C3179 C3175 1.400 . S
C3179 C3178 1.385 . S
C3180 C3178 1.478 . S
C3180 C3182 1.381 . S
C3180 C3186 1.383 . S
C3181 C3177 1.495 . S
C3181 H3187 0.959 . S
C3181 H3188 0.961 . S
C3181 H3189 0.960 . S
C3182 C3180 1.381 . S
C3182 C3183 1.394 . S
C3182 H3190 0.930 . S
C3183 C3182 1.394 . S
C3183 C3184 1.383 . S
C3183 H3191 0.929 . S
C3184 C3183 1.383 . S
C3184 C3185 1.377 . S
C3185 H3169 0.930 . S
C3185 C3184 1.377 . S
C3185 C3186 1.379 . S
C3186 H3170 0.931 . S
C3186 C3180 1.383 . S
C3186 C3185 1.379 . S
H3187 C3181 0.959 . S
H3188 C3181 0.961 . S
H3189 C3181 0.960 . S
H3190 C3182 0.930 . S
H3191 C3183 0.929 . S
H3192 C3200 0.929 . S
H3193 C3202 0.930 . S
H3194 C3204 0.930 . S
H3195 C3207 0.929 . S
H3196 C3210 0.930 . S
H3197 C3212 0.960 . S
H3198 C3212 0.960 . S
H3199 C3212 0.960 . S
C3200 H3192 0.929 . S
C3200 C3201 1.377 . S
C3200 C3202 1.384 . S
C3201 C3200 1.377 . S
C3201 C3207 1.390 . S
C3202 H3193 0.930 . S
C3202 C3200 1.384 . S
C3202 C3203 1.372 . S
C3203 C3202 1.372 . S
C3203 C3204 1.400 . S
C3203 C3208 1.490 . S
C3204 H3194 0.930 . S
C3204 C3203 1.400 . S
C3204 C3207 1.386 . S
H3205 C3221 0.930 . S
H3206 C3222 0.931 . S
C3207 H3195 0.929 . S
C3207 C3201 1.390 . S
C3207 C3204 1.386 . S
C3208 C3203 1.490 . S
C3208 C3210 1.395 . S
C3208 C3211 1.403 . S
H3209 C3215 0.930 . S
C3210 H3196 0.930 . S
C3210 C3208 1.395 . S
C3210 C3213 1.403 . S
C3211 C3208 1.403 . S
C3211 C3212 1.524 . S
C3211 C3215 1.400 . S
C3212 H3197 0.960 . S
C3212 H3198 0.960 . S
C3212 H3199 0.960 . S
C3212 C3211 1.524 . S
C3213 C3210 1.403 . S
C3213 C3214 1.392 . S
C3213 C3217 1.495 . S
C3214 C3213 1.392 . S
C3214 C3215 1.385 . S
C3214 C3216 1.478 . S
C3215 H3209 0.930 . S
C3215 C3211 1.400 . S
C3215 C3214 1.385 . S
C3216 C3214 1.478 . S
C3216 C3218 1.381 . S
C3216 C3222 1.383 . S
C3217 C3213 1.495 . S
C3217 H3223 0.959 . S
C3217 H3224 0.961 . S
C3217 H3225 0.960 . S
C3218 C3216 1.381 . S
C3218 C3219 1.394 . S
C3218 H3226 0.930 . S
C3219 C3218 1.394 . S
C3219 C3220 1.383 . S
C3219 H3227 0.929 . S
C3220 C3219 1.383 . S
C3220 C3221 1.377 . S
C3221 H3205 0.930 . S
C3221 C3220 1.377 . S
C3221 C3222 1.379 . S
C3222 H3206 0.931 . S
C3222 C3216 1.383 . S
C3222 C3221 1.379 . S
H3223 C3217 0.959 . S
H3224 C3217 0.961 . S
H3225 C3217 0.960 . S
H3226 C3218 0.930 . S
H3227 C3219 0.929 . S
H3228 C3236 0.929 . S
H3229 C3238 0.930 . S
H3230 C3240 0.930 . S
H3231 C3243 0.929 . S
H3232 C3246 0.930 . S
H3233 C3248 0.960 . S
H3234 C3248 0.960 . S
H3235 C3248 0.960 . S
C3236 H3228 0.929 . S
C3236 C3237 1.377 . S
C3236 C3238 1.384 . S
C3237 C3236 1.377 . S
C3237 C3243 1.390 . S
C3238 H3229 0.930 . S
C3238 C3236 1.384 . S
C3238 C3239 1.372 . S
C3239 C3238 1.372 . S
C3239 C3240 1.400 . S
C3239 C3244 1.490 . S
C3240 H3230 0.930 . S
C3240 C3239 1.400 . S
C3240 C3243 1.386 . S
H3241 C3257 0.930 . S
H3242 C3258 0.931 . S
C3243 H3231 0.929 . S
C3243 C3237 1.390 . S
C3243 C3240 1.386 . S
C3244 C3239 1.490 . S
C3244 C3246 1.395 . S
C3244 C3247 1.403 . S
H3245 C3251 0.930 . S
C3246 H3232 0.930 . S
C3246 C3244 1.395 . S
C3246 C3249 1.403 . S
C3247 C3244 1.403 . S
C3247 C3248 1.524 . S
C3247 C3251 1.400 . S
C3248 H3233 0.960 . S
C3248 H3234 0.960 . S
C3248 H3235 0.960 . S
C3248 C3247 1.524 . S
C3249 C3246 1.403 . S
C3249 C3250 1.392 . S
C3249 C3253 1.495 . S
C3250 C3249 1.392 . S
C3250 C3251 1.385 . S
C3250 C3252 1.478 . S
C3251 H3245 0.930 . S
C3251 C3247 1.400 . S
C3251 C3250 1.385 . S
C3252 C3250 1.478 . S
C3252 C3254 1.381 . S
C3252 C3258 1.383 . S
C3253 C3249 1.495 . S
C3253 H3259 0.959 . S
C3253 H3260 0.961 . S
C3253 H3261 0.960 . S
C3254 C3252 1.381 . S
C3254 C3255 1.394 . S
C3254 H3262 0.930 . S
C3255 C3254 1.394 . S
C3255 C3256 1.383 . S
C3255 H3263 0.929 . S
C3256 C3255 1.383 . S
C3256 C3257 1.377 . S
C3257 H3241 0.930 . S
C3257 C3256 1.377 . S
C3257 C3258 1.379 . S
C3258 H3242 0.931 . S
C3258 C3252 1.383 . S
C3258 C3257 1.379 . S
H3259 C3253 0.959 . S
H3260 C3253 0.961 . S
H3261 C3253 0.960 . S
H3262 C3254 0.930 . S
H3263 C3255 0.929 . S
H3264 C3272 0.929 . S
H3265 C3274 0.930 . S
H3266 C3276 0.930 . S
H3267 C3279 0.929 1_545 S
H3268 C3282 0.930 . S
H3269 C3284 0.960 . S
H3270 C3284 0.960 . S
H3271 C3284 0.960 . S
C3272 H3264 0.929 . S
C3272 C3273 1.377 . S
C3272 C3274 1.384 . S
C3273 C3272 1.377 . S
C3273 C3279 1.390 . S
C3274 H3265 0.930 . S
C3274 C3272 1.384 . S
C3274 C3275 1.372 . S
C3275 C3274 1.372 . S
C3275 C3276 1.400 . S
C3275 C3280 1.490 . S
C3276 H3266 0.930 . S
C3276 C3275 1.400 . S
C3276 C3279 1.386 . S
H3277 C3293 0.930 . S
H3278 C3294 0.931 . S
C3279 H3267 0.929 1_565 S
C3279 C3273 1.390 . S
C3279 C3276 1.386 . S
C3280 C3275 1.490 . S
C3280 C3282 1.395 . S
C3280 C3283 1.403 . S
H3281 C3287 0.930 . S
C3282 H3268 0.930 . S
C3282 C3280 1.395 . S
C3282 C3285 1.403 . S
C3283 C3280 1.403 . S
C3283 C3284 1.524 . S
C3283 C3287 1.400 . S
C3284 H3269 0.960 . S
C3284 H3270 0.960 . S
C3284 H3271 0.960 . S
C3284 C3283 1.524 . S
C3285 C3282 1.403 . S
C3285 C3286 1.392 . S
C3285 C3289 1.495 . S
C3286 C3285 1.392 . S
C3286 C3287 1.385 . S
C3286 C3288 1.478 . S
C3287 H3281 0.930 . S
C3287 C3283 1.400 . S
C3287 C3286 1.385 . S
C3288 C3286 1.478 . S
C3288 C3290 1.381 . S
C3288 C3294 1.383 . S
C3289 C3285 1.495 . S
C3289 H3295 0.959 . S
C3289 H3296 0.961 . S
C3289 H3297 0.960 . S
C3290 C3288 1.381 . S
C3290 C3291 1.394 . S
C3290 H3298 0.930 . S
C3291 C3290 1.394 . S
C3291 C3292 1.383 . S
C3291 H3299 0.929 . S
C3292 C3291 1.383 . S
C3292 C3293 1.377 . S
C3293 H3277 0.930 . S
C3293 C3292 1.377 . S
C3293 C3294 1.379 . S
C3294 H3278 0.931 . S
C3294 C3288 1.383 . S
C3294 C3293 1.379 . S
H3295 C3289 0.959 . S
H3296 C3289 0.961 . S
H3297 C3289 0.960 . S
H3298 C3290 0.930 . S
H3299 C3291 0.929 . S
H3300 C3308 0.929 . S
H3301 C3310 0.930 . S
H3302 C3312 0.930 . S
H3303 C3315 0.929 . S
H3304 C3318 0.930 . S
H3305 C3320 0.960 . S
H3306 C3320 0.960 . S
H3307 C3320 0.960 . S
C3308 H3300 0.929 . S
C3308 C3309 1.377 . S
C3308 C3310 1.384 . S
C3309 C3308 1.377 . S
C3309 C3315 1.390 . S
C3310 H3301 0.930 . S
C3310 C3308 1.384 . S
C3310 C3311 1.372 . S
C3311 C3310 1.372 . S
C3311 C3312 1.400 . S
C3311 C3316 1.490 . S
C3312 H3302 0.930 . S
C3312 C3311 1.400 . S
C3312 C3315 1.386 . S
H3313 C3329 0.930 . S
H3314 C3330 0.931 . S
C3315 H3303 0.929 . S
C3315 C3309 1.390 . S
C3315 C3312 1.386 . S
C3316 C3311 1.490 . S
C3316 C3318 1.395 . S
C3316 C3319 1.403 . S
H3317 C3323 0.930 . S
C3318 H3304 0.930 . S
C3318 C3316 1.395 . S
C3318 C3321 1.403 . S
C3319 C3316 1.403 . S
C3319 C3320 1.524 . S
C3319 C3323 1.400 . S
C3320 H3305 0.960 . S
C3320 H3306 0.960 . S
C3320 H3307 0.960 . S
C3320 C3319 1.524 . S
C3321 C3318 1.403 . S
C3321 C3322 1.392 . S
C3321 C3325 1.495 . S
C3322 C3321 1.392 . S
C3322 C3323 1.385 . S
C3322 C3324 1.478 . S
C3323 H3317 0.930 . S
C3323 C3319 1.400 . S
C3323 C3322 1.385 . S
C3324 C3322 1.478 . S
C3324 C3326 1.381 . S
C3324 C3330 1.383 . S
C3325 C3321 1.495 . S
C3325 H3331 0.959 . S
C3325 H3332 0.961 . S
C3325 H3333 0.960 . S
C3326 C3324 1.381 . S
C3326 C3327 1.394 . S
C3326 H3334 0.930 . S
C3327 C3326 1.394 . S
C3327 C3328 1.383 . S
C3327 H3335 0.953 . S
C3328 C3327 1.383 . S
C3328 C3329 1.377 . S
C3329 H3313 0.930 . S
C3329 C3328 1.377 . S
C3329 C3330 1.379 . S
C3330 H3314 0.931 . S
C3330 C3324 1.383 . S
C3330 C3329 1.379 . S
H3331 C3325 0.959 . S
H3332 C3325 0.961 . S
H3333 C3325 0.960 . S
H3334 C3326 0.930 . S
H3335 C3327 0.953 . S
H3336 C3344 0.929 . S
H3337 C3346 0.930 . S
H3338 C3348 0.930 . S
H3339 C3351 0.929 . S
H3340 C3354 0.930 . S
H3341 C3356 0.960 . S
H3342 C3356 0.960 . S
H3343 C3356 0.960 . S
C3344 H3336 0.929 . S
C3344 C3345 1.377 . S
C3344 C3346 1.384 . S
C3345 C3344 1.377 . S
C3345 C3351 1.390 . S
C3346 H3337 0.930 . S
C3346 C3344 1.384 . S
C3346 C3347 1.372 . S
C3347 C3346 1.372 . S
C3347 C3348 1.400 . S
C3347 C3352 1.490 . S
C3348 H3338 0.930 . S
C3348 C3347 1.400 . S
C3348 C3351 1.386 . S
H3349 C3365 0.930 . S
H3350 C3366 0.931 . S
C3351 H3339 0.929 . S
C3351 C3345 1.390 . S
C3351 C3348 1.386 . S
C3352 C3347 1.490 . S
C3352 C3354 1.395 . S
C3352 C3355 1.403 . S
H3353 C3359 0.930 . S
C3354 H3340 0.930 . S
C3354 C3352 1.395 . S
C3354 C3357 1.403 . S
C3355 C3352 1.403 . S
C3355 C3356 1.524 . S
C3355 C3359 1.400 . S
C3356 H3341 0.960 . S
C3356 H3342 0.960 . S
C3356 H3343 0.960 . S
C3356 C3355 1.524 . S
C3357 C3354 1.403 . S
C3357 C3358 1.392 . S
C3357 C3361 1.495 . S
C3358 C3357 1.392 . S
C3358 C3359 1.385 . S
C3358 C3360 1.478 . S
C3359 H3353 0.930 . S
C3359 C3355 1.400 . S
C3359 C3358 1.385 . S
C3360 C3358 1.478 . S
C3360 C3362 1.381 . S
C3360 C3366 1.383 . S
C3361 C3357 1.495 . S
C3361 H3367 0.959 . S
C3361 H3368 0.961 . S
C3361 H3369 0.960 . S
C3362 C3360 1.381 . S
C3362 C3363 1.394 . S
C3362 H3370 0.930 . S
C3363 C3362 1.394 . S
C3363 C3364 1.383 . S
C3363 H3371 0.929 . S
C3364 C3363 1.383 . S
C3364 C3365 1.377 . S
C3365 H3349 0.930 . S
C3365 C3364 1.377 . S
C3365 C3366 1.379 . S
C3366 H3350 0.931 . S
C3366 C3360 1.383 . S
C3366 C3365 1.379 . S
H3367 C3361 0.959 . S
H3368 C3361 0.961 . S
H3369 C3361 0.960 . S
H3370 C3362 0.930 . S
H3371 C3363 0.929 . S
H3372 C3380 0.929 . S
H3373 C3382 0.930 . S
H3374 C3384 0.930 . S
H3375 C3387 0.929 . S
H3376 C3390 0.930 . S
H3377 C3392 0.960 . S
H3378 C3392 0.960 . S
H3379 C3392 0.960 . S
C3380 H3372 0.929 . S
C3380 C3381 1.377 . S
C3380 C3382 1.384 . S
C3381 C3380 1.377 . S
C3381 C3387 1.390 . S
C3382 H3373 0.930 . S
C3382 C3380 1.384 . S
C3382 C3383 1.372 . S
C3383 C3382 1.372 . S
C3383 C3384 1.400 . S
C3383 C3388 1.490 . S
C3384 H3374 0.930 . S
C3384 C3383 1.400 . S
C3384 C3387 1.386 . S
H3385 C3401 0.930 . S
H3386 C3402 0.931 . S
C3387 H3375 0.929 . S
C3387 C3381 1.390 . S
C3387 C3384 1.386 . S
C3388 C3383 1.490 . S
C3388 C3390 1.395 . S
C3388 C3391 1.403 . S
H3389 C3395 0.930 . S
C3390 H3376 0.930 . S
C3390 C3388 1.395 . S
C3390 C3393 1.403 . S
C3391 C3388 1.403 . S
C3391 C3392 1.524 . S
C3391 C3395 1.400 . S
C3392 H3377 0.960 . S
C3392 H3378 0.960 . S
C3392 H3379 0.960 . S
C3392 C3391 1.524 . S
C3393 C3390 1.403 . S
C3393 C3394 1.392 . S
C3393 C3397 1.495 . S
C3394 C3393 1.392 . S
C3394 C3395 1.385 . S
C3394 C3396 1.478 . S
C3395 H3389 0.930 . S
C3395 C3391 1.400 . S
C3395 C3394 1.385 . S
C3396 C3394 1.478 . S
C3396 C3398 1.381 . S
C3396 C3402 1.383 . S
C3397 C3393 1.495 . S
C3397 H3403 0.959 . S
C3397 H3404 0.961 . S
C3397 H3405 0.960 . S
C3398 C3396 1.381 . S
C3398 C3399 1.394 . S
C3398 H3406 0.930 . S
C3399 C3398 1.394 . S
C3399 C3400 1.383 . S
C3399 H3407 0.929 . S
C3400 C3399 1.383 . S
C3400 C3401 1.377 . S
C3401 H3385 0.930 . S
C3401 C3400 1.377 . S
C3401 C3402 1.379 . S
C3402 H3386 0.931 . S
C3402 C3396 1.383 . S
C3402 C3401 1.379 . S
H3403 C3397 0.959 . S
H3404 C3397 0.961 . S
H3405 C3397 0.960 . S
H3406 C3398 0.930 . S
H3407 C3399 0.929 . S
H3408 C3416 0.929 . S
H3409 C3418 0.930 . S
H3410 C3420 0.930 . S
H3411 C3423 0.929 . S
H3412 C3426 0.930 . S
H3413 C3428 0.960 . S
H3414 C3428 0.960 . S
H3415 C3428 0.960 . S
C3416 H3408 0.929 . S
C3416 C3417 1.377 . S
C3416 C3418 1.384 . S
C3417 C3416 1.377 . S
C3417 C3423 1.390 . S
C3418 H3409 0.930 . S
C3418 C3416 1.384 . S
C3418 C3419 1.372 . S
C3419 C3418 1.372 . S
C3419 C3420 1.400 . S
C3419 C3424 1.490 . S
C3420 H3410 0.930 . S
C3420 C3419 1.400 . S
C3420 C3423 1.386 . S
H3421 C3437 0.930 . S
H3422 C3438 0.931 . S
C3423 H3411 0.929 . S
C3423 C3417 1.390 . S
C3423 C3420 1.386 . S
C3424 C3419 1.490 . S
C3424 C3426 1.395 . S
C3424 C3427 1.403 . S
H3425 C3431 0.930 . S
C3426 H3412 0.930 . S
C3426 C3424 1.395 . S
C3426 C3429 1.403 . S
C3427 C3424 1.403 . S
C3427 C3428 1.524 . S
C3427 C3431 1.400 . S
C3428 H3413 0.960 . S
C3428 H3414 0.960 . S
C3428 H3415 0.960 . S
C3428 C3427 1.524 . S
C3429 C3426 1.403 . S
C3429 C3430 1.392 . S
C3429 C3433 1.495 . S
C3430 C3429 1.392 . S
C3430 C3431 1.385 . S
C3430 C3432 1.478 . S
C3431 H3425 0.930 . S
C3431 C3427 1.400 . S
C3431 C3430 1.385 . S
C3432 C3430 1.478 . S
C3432 C3434 1.381 . S
C3432 C3438 1.383 . S
C3433 C3429 1.495 . S
C3433 H3439 0.959 . S
C3433 H3440 0.961 . S
C3433 H3441 0.960 . S
C3434 C3432 1.381 . S
C3434 C3435 1.394 . S
C3434 H3442 0.930 . S
C3435 C3434 1.394 . S
C3435 C3436 1.383 . S
C3435 H3443 0.929 . S
C3436 C3435 1.383 . S
C3436 C3437 1.377 . S
C3437 H3421 0.930 . S
C3437 C3436 1.377 . S
C3437 C3438 1.379 . S
C3438 H3422 0.931 . S
C3438 C3432 1.383 . S
C3438 C3437 1.379 . S
H3439 C3433 0.959 . S
H3440 C3433 0.961 . S
H3441 C3433 0.960 . S
H3442 C3434 0.930 . S
H3443 C3435 0.929 . S
H3444 C3452 0.929 . S
H3445 C3454 0.930 . S
H3446 C3456 0.930 . S
H3447 C3459 0.929 . S
H3448 C3462 0.930 . S
H3449 C3464 0.960 . S
H3450 C3464 0.960 . S
H3451 C3464 0.960 . S
C3452 H3444 0.929 . S
C3452 C3453 1.377 . S
C3452 C3454 1.384 . S
C3453 C3452 1.377 . S
C3453 C3459 1.390 . S
C3454 H3445 0.930 . S
C3454 C3452 1.384 . S
C3454 C3455 1.372 . S
C3455 C3454 1.372 . S
C3455 C3456 1.400 . S
C3455 C3460 1.490 . S
C3456 H3446 0.930 . S
C3456 C3455 1.400 . S
C3456 C3459 1.386 . S
H3457 C3473 0.930 . S
H3458 C3474 0.931 . S
C3459 H3447 0.929 . S
C3459 C3453 1.390 . S
C3459 C3456 1.386 . S
C3460 C3455 1.490 . S
C3460 C3462 1.395 . S
C3460 C3463 1.403 . S
H3461 C3467 0.930 . S
C3462 H3448 0.930 . S
C3462 C3460 1.395 . S
C3462 C3465 1.403 . S
C3463 C3460 1.403 . S
C3463 C3464 1.524 . S
C3463 C3467 1.400 . S
C3464 H3449 0.960 . S
C3464 H3450 0.960 . S
C3464 H3451 0.960 . S
C3464 C3463 1.524 . S
C3465 C3462 1.403 . S
C3465 C3466 1.392 . S
C3465 C3469 1.495 . S
C3466 C3465 1.392 . S
C3466 C3467 1.385 . S
C3466 C3468 1.478 . S
C3467 H3461 0.930 . S
C3467 C3463 1.400 . S
C3467 C3466 1.385 . S
C3468 C3466 1.478 . S
C3468 C3470 1.381 . S
C3468 C3474 1.383 . S
C3469 C3465 1.495 . S
C3469 H3475 0.959 . S
C3469 H3476 0.961 . S
C3469 H3477 0.960 . S
C3470 C3468 1.381 . S
C3470 C3471 1.394 . S
C3470 H3478 0.930 . S
C3471 C3470 1.394 . S
C3471 C3472 1.383 . S
C3471 H3479 0.929 . S
C3472 C3471 1.383 . S
C3472 C3473 1.377 . S
C3473 H3457 0.930 . S
C3473 C3472 1.377 . S
C3473 C3474 1.379 . S
C3474 H3458 0.931 . S
C3474 C3468 1.383 . S
C3474 C3473 1.379 . S
H3475 C3469 0.959 . S
H3476 C3469 0.961 . S
H3477 C3469 0.960 . S
H3478 C3470 0.930 . S
H3479 C3471 0.929 . S
H3480 C3488 0.929 . S
H3481 C3490 0.930 . S
H3482 C3492 0.930 . S
H3483 C3495 0.929 . S
H3484 C3498 0.963 . S
H3485 C3500 0.960 . S
H3486 C3500 0.960 . S
H3487 C3500 0.960 . S
C3488 H3480 0.929 . S
C3488 C3489 1.377 . S
C3488 C3490 1.384 . S
C3489 C3488 1.377 . S
C3489 C3495 1.390 . S
C3490 H3481 0.930 . S
C3490 C3488 1.384 . S
C3490 C3491 1.372 . S
C3491 C3490 1.372 . S
C3491 C3492 1.400 . S
C3491 C3496 1.490 . S
C3492 H3482 0.930 . S
C3492 C3491 1.400 . S
C3492 C3495 1.386 . S
H3493 C3509 0.930 1_556 S
H3494 C3510 0.931 . S
C3495 H3483 0.929 . S
C3495 C3489 1.390 . S
C3495 C3492 1.386 . S
C3496 C3491 1.490 . S
C3496 C3498 1.353 1_556 S
C3496 C3499 1.403 . S
H3497 C3503 0.930 . S
C3498 H3484 0.963 . S
C3498 C3496 1.353 1_554 S
C3498 C3501 1.413 . S
C3499 C3496 1.403 . S
C3499 C3500 1.524 . S
C3499 C3503 1.400 . S
C3500 H3485 0.960 . S
C3500 H3486 0.960 . S
C3500 H3487 0.960 . S
C3500 C3499 1.524 . S
C3501 C3498 1.413 . S
C3501 C3502 1.392 1_554 S
C3501 C3505 1.495 . S
C3502 C3501 1.392 1_556 S
C3502 C3503 1.385 . S
C3502 C3504 1.478 1_556 S
C3503 H3497 0.930 . S
C3503 C3499 1.400 . S
C3503 C3502 1.385 . S
C3504 C3502 1.478 1_554 S
C3504 C3506 1.381 . S
C3504 C3510 1.383 1_554 S
C3505 C3501 1.495 . S
C3505 H3511 0.959 . S
C3505 H3512 0.961 . S
C3505 H3513 0.960 . S
C3506 C3504 1.381 . S
C3506 C3507 1.394 . S
C3506 H3514 0.930 . S
C3507 C3506 1.394 . S
C3507 C3508 1.383 . S
C3507 H3515 0.929 . S
C3508 C3507 1.383 . S
C3508 C3509 1.377 . S
C3509 H3493 0.930 1_554 S
C3509 C3508 1.377 . S
C3509 C3510 1.379 1_554 S
C3510 H3494 0.931 . S
C3510 C3504 1.383 1_556 S
C3510 C3509 1.379 1_556 S
H3511 C3505 0.959 . S
H3512 C3505 0.961 . S
H3513 C3505 0.960 . S
H3514 C3506 0.930 . S
H3515 C3507 0.929 . S
H3516 C3524 0.929 . S
H3517 C3526 0.930 . S
H3518 C3528 0.957 . S
H3519 C3531 0.929 . S
H3520 C3534 0.930 . S
H3521 C3536 0.960 . S
H3522 C3536 0.960 . S
H3523 C3536 0.960 . S
C3524 H3516 0.929 . S
C3524 C3525 1.377 . S
C3524 C3526 1.384 . S
C3525 C3524 1.377 . S
C3525 C3531 1.390 . S
C3526 H3517 0.930 . S
C3526 C3524 1.384 . S
C3526 C3527 1.372 1_455 S
C3527 C3526 1.372 1_655 S
C3527 C3528 1.399 . S
C3527 C3532 1.490 . S
C3528 H3518 0.957 . S
C3528 C3527 1.399 . S
C3528 C3531 1.360 1_655 S
H3529 C3545 0.930 . S
H3530 C3546 0.931 . S
C3531 H3519 0.929 . S
C3531 C3525 1.390 . S
C3531 C3528 1.360 1_455 S
C3532 C3527 1.490 . S
C3532 C3534 1.395 . S
C3532 C3535 1.403 . S
H3533 C3539 0.930 . S
C3534 H3520 0.930 . S
C3534 C3532 1.395 . S
C3534 C3537 1.403 . S
C3535 C3532 1.403 . S
C3535 C3536 1.524 . S
C3535 C3539 1.400 . S
C3536 H3521 0.960 . S
C3536 H3522 0.960 . S
C3536 H3523 0.960 . S
C3536 C3535 1.524 . S
C3537 C3534 1.403 . S
C3537 C3538 1.392 . S
C3537 C3541 1.495 . S
C3538 C3537 1.392 . S
C3538 C3539 1.385 . S
C3538 C3540 1.478 . S
C3539 H3533 0.930 . S
C3539 C3535 1.400 . S
C3539 C3538 1.385 . S
C3540 C3538 1.478 . S
C3540 C3542 1.381 . S
C3540 C3546 1.383 . S
C3541 C3537 1.495 . S
C3541 H3547 0.959 . S
C3541 H3548 0.961 . S
C3541 H3549 0.960 . S
C3542 C3540 1.381 . S
C3542 C3543 1.394 . S
C3542 H3550 0.930 . S
C3543 C3542 1.394 . S
C3543 C3544 1.383 . S
C3543 H3551 0.929 . S
C3544 C3543 1.383 . S
C3544 C3545 1.377 . S
C3545 H3529 0.930 . S
C3545 C3544 1.377 . S
C3545 C3546 1.379 . S
C3546 H3530 0.931 . S
C3546 C3540 1.383 . S
C3546 C3545 1.379 . S
H3547 C3541 0.959 . S
H3548 C3541 0.961 . S
H3549 C3541 0.960 . S
H3550 C3542 0.930 . S
H3551 C3543 0.929 . S
H3552 C3560 0.929 . S
H3553 C3562 0.930 . S
H3554 C3564 0.930 . S
H3555 C3567 0.929 . S
H3556 C3570 0.930 . S
H3557 C3572 0.960 . S
H3558 C3572 0.960 . S
H3559 C3572 0.960 . S
C3560 H3552 0.929 . S
C3560 C3561 1.377 . S
C3560 C3562 1.384 . S
C3561 C3560 1.377 . S
C3561 C3567 1.390 . S
C3562 H3553 0.930 . S
C3562 C3560 1.384 . S
C3562 C3563 1.372 . S
C3563 C3562 1.372 . S
C3563 C3564 1.400 . S
C3563 C3568 1.490 . S
C3564 H3554 0.930 . S
C3564 C3563 1.400 . S
C3564 C3567 1.386 . S
H3565 C3581 0.930 . S
H3566 C3582 0.931 . S
C3567 H3555 0.929 . S
C3567 C3561 1.390 . S
C3567 C3564 1.386 . S
C3568 C3563 1.490 . S
C3568 C3570 1.395 . S
C3568 C3571 1.403 . S
H3569 C3575 0.930 . S
C3570 H3556 0.930 . S
C3570 C3568 1.395 . S
C3570 C3573 1.403 . S
C3571 C3568 1.403 . S
C3571 C3572 1.524 . S
C3571 C3575 1.400 . S
C3572 H3557 0.960 . S
C3572 H3558 0.960 . S
C3572 H3559 0.960 . S
C3572 C3571 1.524 . S
C3573 C3570 1.403 . S
C3573 C3574 1.392 . S
C3573 C3577 1.495 . S
C3574 C3573 1.392 . S
C3574 C3575 1.385 . S
C3574 C3576 1.478 . S
C3575 H3569 0.930 . S
C3575 C3571 1.400 . S
C3575 C3574 1.385 . S
C3576 C3574 1.478 . S
C3576 C3578 1.381 . S
C3576 C3582 1.383 . S
C3577 C3573 1.495 . S
C3577 H3583 0.959 . S
C3577 H3584 0.961 . S
C3577 H3585 0.960 . S
C3578 C3576 1.381 . S
C3578 C3579 1.394 . S
C3578 H3586 0.930 . S
C3579 C3578 1.394 . S
C3579 C3580 1.383 . S
C3579 H3587 0.929 . S
C3580 C3579 1.383 . S
C3580 C3581 1.377 . S
C3581 H3565 0.930 . S
C3581 C3580 1.377 . S
C3581 C3582 1.379 . S
C3582 H3566 0.931 . S
C3582 C3576 1.383 . S
C3582 C3581 1.379 . S
H3583 C3577 0.959 . S
H3584 C3577 0.961 . S
H3585 C3577 0.960 . S
H3586 C3578 0.930 . S
H3587 C3579 0.929 . S
H3588 C3596 0.929 . S
H3589 C3598 0.930 . S
H3590 C3600 0.930 . S
H3591 C3603 0.929 . S
H3592 C3606 0.930 . S
H3593 C3608 0.960 . S
H3594 C3608 0.960 . S
H3595 C3608 0.960 . S
C3596 H3588 0.929 . S
C3596 C3597 1.377 . S
C3596 C3598 1.384 . S
C3597 C3596 1.377 . S
C3597 C3603 1.390 . S
C3598 H3589 0.930 . S
C3598 C3596 1.384 . S
C3598 C3599 1.372 . S
C3599 C3598 1.372 . S
C3599 C3600 1.400 . S
C3599 C3604 1.490 1_455 S
C3600 H3590 0.930 . S
C3600 C3599 1.400 . S
C3600 C3603 1.386 . S
H3601 C3617 0.930 . S
H3602 C3618 0.931 . S
C3603 H3591 0.929 . S
C3603 C3597 1.390 . S
C3603 C3600 1.386 . S
C3604 C3599 1.490 1_655 S
C3604 C3606 1.395 . S
C3604 C3607 1.403 . S
H3605 C3611 0.930 . S
C3606 H3592 0.930 . S
C3606 C3604 1.395 . S
C3606 C3609 1.403 . S
C3607 C3604 1.403 . S
C3607 C3608 1.524 1_655 S
C3607 C3611 1.400 . S
C3608 H3593 0.960 . S
C3608 H3594 0.960 . S
C3608 H3595 0.960 . S
C3608 C3607 1.524 1_455 S
C3609 C3606 1.403 . S
C3609 C3610 1.392 . S
C3609 C3613 1.495 . S
C3610 C3609 1.392 . S
C3610 C3611 1.385 . S
C3610 C3612 1.478 . S
C3611 H3605 0.930 . S
C3611 C3607 1.400 . S
C3611 C3610 1.385 . S
C3612 C3610 1.478 . S
C3612 C3614 1.381 . S
C3612 C3618 1.383 . S
C3613 C3609 1.495 . S
C3613 H3619 0.959 . S
C3613 H3620 0.961 . S
C3613 H3621 0.960 . S
C3614 C3612 1.381 . S
C3614 C3615 1.394 . S
C3614 H3622 0.930 . S
C3615 C3614 1.394 . S
C3615 C3616 1.383 . S
C3615 H3623 0.929 . S
C3616 C3615 1.383 . S
C3616 C3617 1.377 . S
C3617 H3601 0.930 . S
C3617 C3616 1.377 . S
C3617 C3618 1.379 . S
C3618 H3602 0.931 . S
C3618 C3612 1.383 . S
C3618 C3617 1.379 . S
H3619 C3613 0.959 . S
H3620 C3613 0.961 . S
H3621 C3613 0.960 . S
H3622 C3614 0.930 . S
H3623 C3615 0.929 . S
H3624 C3632 0.929 . S
H3625 C3634 0.930 . S
H3626 C3636 0.930 . S
H3627 C3639 0.929 . S
H3628 C3642 0.930 . S
H3629 C3644 0.960 . S
H3630 C3644 0.960 . S
H3631 C3644 0.960 . S
C3632 H3624 0.929 . S
C3632 C3633 1.377 . S
C3632 C3634 1.385 1_655 S
C3633 C3632 1.377 . S
C3633 C3639 1.390 . S
C3634 H3625 0.930 . S
C3634 C3632 1.385 1_455 S
C3634 C3635 1.371 . S
C3635 C3634 1.371 . S
C3635 C3636 1.400 . S
C3635 C3640 1.490 . S
C3636 H3626 0.930 . S
C3636 C3635 1.400 . S
C3636 C3639 1.386 1_455 S
H3637 C3653 0.930 . S
H3638 C3654 0.931 . S
C3639 H3627 0.929 . S
C3639 C3633 1.390 . S
C3639 C3636 1.386 1_655 S
C3640 C3635 1.490 . S
C3640 C3642 1.395 . S
C3640 C3643 1.403 1_455 S
H3641 C3647 0.930 1_655 S
C3642 H3628 0.930 . S
C3642 C3640 1.395 . S
C3642 C3645 1.403 . S
C3643 C3640 1.403 1_655 S
C3643 C3644 1.524 . S
C3643 C3647 1.400 1_655 S
C3644 H3629 0.960 . S
C3644 H3630 0.960 . S
C3644 H3631 0.960 . S
C3644 C3643 1.524 . S
C3645 C3642 1.403 . S
C3645 C3646 1.392 . S
C3645 C3649 1.495 . S
C3646 C3645 1.392 . S
C3646 C3647 1.385 . S
C3646 C3648 1.478 . S
C3647 H3641 0.930 1_455 S
C3647 C3643 1.400 1_455 S
C3647 C3646 1.385 . S
C3648 C3646 1.478 . S
C3648 C3650 1.381 . S
C3648 C3654 1.383 . S
C3649 C3645 1.495 . S
C3649 H3655 0.959 . S
C3649 H3656 0.961 . S
C3649 H3657 0.960 . S
C3650 C3648 1.381 . S
C3650 C3651 1.394 . S
C3650 H3658 0.930 . S
C3651 C3650 1.394 . S
C3651 C3652 1.383 . S
C3651 H3659 0.929 . S
C3652 C3651 1.383 . S
C3652 C3653 1.377 . S
C3653 H3637 0.930 . S
C3653 C3652 1.377 . S
C3653 C3654 1.379 . S
C3654 H3638 0.931 . S
C3654 C3648 1.383 . S
C3654 C3653 1.379 . S
H3655 C3649 0.959 . S
H3656 C3649 0.961 . S
H3657 C3649 0.960 . S
H3658 C3650 0.930 . S
H3659 C3651 0.929 . S
H3660 C3668 0.929 . S
H3661 C3670 0.930 . S
H3662 C3672 0.930 . S
H3663 C3675 0.929 . S
H3664 C3678 0.930 . S
H3665 C3680 0.960 . S
H3666 C3680 0.960 . S
H3667 C3680 0.960 . S
C3668 H3660 0.929 . S
C3668 C3669 1.377 . S
C3668 C3670 1.384 . S
C3669 C3668 1.377 . S
C3669 C3675 1.390 . S
C3670 H3661 0.930 . S
C3670 C3668 1.384 . S
C3670 C3671 1.372 . S
C3671 C3670 1.372 . S
C3671 C3672 1.400 . S
C3671 C3676 1.490 . S
C3672 H3662 0.930 . S
C3672 C3671 1.400 . S
C3672 C3675 1.386 . S
H3673 C3689 0.930 . S
H3674 C3690 0.931 . S
C3675 H3663 0.929 . S
C3675 C3669 1.390 . S
C3675 C3672 1.386 . S
C3676 C3671 1.490 . S
C3676 C3678 1.395 . S
C3676 C3679 1.403 . S
H3677 C3683 0.930 . S
C3678 H3664 0.930 . S
C3678 C3676 1.395 . S
C3678 C3681 1.403 . S
C3679 C3676 1.403 . S
C3679 C3680 1.524 . S
C3679 C3683 1.400 . S
C3680 H3665 0.960 . S
C3680 H3666 0.960 . S
C3680 H3667 0.960 . S
C3680 C3679 1.524 . S
C3681 C3678 1.403 . S
C3681 C3682 1.392 . S
C3681 C3685 1.495 . S
C3682 C3681 1.392 . S
C3682 C3683 1.385 . S
C3682 C3684 1.478 . S
C3683 H3677 0.930 . S
C3683 C3679 1.400 . S
C3683 C3682 1.385 . S
C3684 C3682 1.478 . S
C3684 C3686 1.381 . S
C3684 C3690 1.383 . S
C3685 C3681 1.495 . S
C3685 H3691 0.959 . S
C3685 H3692 0.961 . S
C3685 H3693 0.960 . S
C3686 C3684 1.381 . S
C3686 C3687 1.394 . S
C3686 H3694 0.930 . S
C3687 C3686 1.394 . S
C3687 C3688 1.383 . S
C3687 H3695 0.929 . S
C3688 C3687 1.383 . S
C3688 C3689 1.377 . S
C3689 H3673 0.930 . S
C3689 C3688 1.377 . S
C3689 C3690 1.379 . S
C3690 H3674 0.931 . S
C3690 C3684 1.383 . S
C3690 C3689 1.379 . S
H3691 C3685 0.959 . S
H3692 C3685 0.961 . S
H3693 C3685 0.960 . S
H3694 C3686 0.930 . S
H3695 C3687 0.929 . S
H3696 C3704 0.929 . S
H3697 C3706 0.930 . S
H3698 C3708 0.930 . S
H3699 C3711 0.929 . S
H3700 C3714 0.930 . S
H3701 C3716 0.960 . S
H3702 C3716 0.960 . S
H3703 C3716 0.960 . S
C3704 H3696 0.929 . S
C3704 C3705 1.377 . S
C3704 C3706 1.384 . S
C3705 C3704 1.377 . S
C3705 C3711 1.390 . S
C3706 H3697 0.930 . S
C3706 C3704 1.384 . S
C3706 C3707 1.372 . S
C3707 C3706 1.372 . S
C3707 C3708 1.400 . S
C3707 C3712 1.490 . S
C3708 H3698 0.930 . S
C3708 C3707 1.400 . S
C3708 C3711 1.386 . S
H3709 C3725 0.930 . S
H3710 C3726 0.931 . S
C3711 H3699 0.929 . S
C3711 C3705 1.390 . S
C3711 C3708 1.386 . S
C3712 C3707 1.490 . S
C3712 C3714 1.395 . S
C3712 C3715 1.403 . S
H3713 C3719 0.930 . S
C3714 H3700 0.930 . S
C3714 C3712 1.395 . S
C3714 C3717 1.403 . S
C3715 C3712 1.403 . S
C3715 C3716 1.524 . S
C3715 C3719 1.400 . S
C3716 H3701 0.960 . S
C3716 H3702 0.960 . S
C3716 H3703 0.960 . S
C3716 C3715 1.524 . S
C3717 C3714 1.403 . S
C3717 C3718 1.392 . S
C3717 C3721 1.495 . S
C3718 C3717 1.392 . S
C3718 C3719 1.385 . S
C3718 C3720 1.478 . S
C3719 H3713 0.930 . S
C3719 C3715 1.400 . S
C3719 C3718 1.385 . S
C3720 C3718 1.478 . S
C3720 C3722 1.381 . S
C3720 C3726 1.383 . S
C3721 C3717 1.495 . S
C3721 H3727 0.959 . S
C3721 H3728 0.961 . S
C3721 H3729 0.960 . S
C3722 C3720 1.381 . S
C3722 C3723 1.394 . S
C3722 H3730 0.930 . S
C3723 C3722 1.394 . S
C3723 C3724 1.383 . S
C3723 H3731 0.929 . S
C3724 C3723 1.383 . S
C3724 C3725 1.377 . S
C3725 H3709 0.930 . S
C3725 C3724 1.377 . S
C3725 C3726 1.379 . S
C3726 H3710 0.931 . S
C3726 C3720 1.383 . S
C3726 C3725 1.379 . S
H3727 C3721 0.959 . S
H3728 C3721 0.961 . S
H3729 C3721 0.960 . S
H3730 C3722 0.930 . S
H3731 C3723 0.929 . S
H3732 C3740 0.929 . S
H3733 C3742 0.930 . S
H3734 C3744 0.930 . S
H3735 C3747 0.929 . S
H3736 C3750 0.930 . S
H3737 C3752 0.960 . S
H3738 C3752 0.960 . S
H3739 C3752 0.960 . S
C3740 H3732 0.929 . S
C3740 C3741 1.377 . S
C3740 C3742 1.384 . S
C3741 C3740 1.377 . S
C3741 C3747 1.390 . S
C3742 H3733 0.930 . S
C3742 C3740 1.384 . S
C3742 C3743 1.372 . S
C3743 C3742 1.372 . S
C3743 C3744 1.400 . S
C3743 C3748 1.490 . S
C3744 H3734 0.930 . S
C3744 C3743 1.400 . S
C3744 C3747 1.386 . S
H3745 C3761 0.930 . S
H3746 C3762 0.931 . S
C3747 H3735 0.929 . S
C3747 C3741 1.390 . S
C3747 C3744 1.386 . S
C3748 C3743 1.490 . S
C3748 C3750 1.395 . S
C3748 C3751 1.403 . S
H3749 C3755 0.930 . S
C3750 H3736 0.930 . S
C3750 C3748 1.395 . S
C3750 C3753 1.403 . S
C3751 C3748 1.403 . S
C3751 C3752 1.524 . S
C3751 C3755 1.400 . S
C3752 H3737 0.960 . S
C3752 H3738 0.960 . S
C3752 H3739 0.960 . S
C3752 C3751 1.524 . S
C3753 C3750 1.403 . S
C3753 C3754 1.392 . S
C3753 C3757 1.495 . S
C3754 C3753 1.392 . S
C3754 C3755 1.385 . S
C3754 C3756 1.478 . S
C3755 H3749 0.930 . S
C3755 C3751 1.400 . S
C3755 C3754 1.385 . S
C3756 C3754 1.478 . S
C3756 C3758 1.381 . S
C3756 C3762 1.383 . S
C3757 C3753 1.495 . S
C3757 H3763 0.959 . S
C3757 H3764 0.961 . S
C3757 H3765 0.960 . S
C3758 C3756 1.381 . S
C3758 C3759 1.394 . S
C3758 H3766 0.930 . S
C3759 C3758 1.394 . S
C3759 C3760 1.383 . S
C3759 H3767 0.929 . S
C3760 C3759 1.383 . S
C3760 C3761 1.377 . S
C3761 H3745 0.930 . S
C3761 C3760 1.377 . S
C3761 C3762 1.379 . S
C3762 H3746 0.931 . S
C3762 C3756 1.383 . S
C3762 C3761 1.379 . S
H3763 C3757 0.959 . S
H3764 C3757 0.961 . S
H3765 C3757 0.960 . S
H3766 C3758 0.930 . S
H3767 C3759 0.929 . S
H3768 C3776 0.929 . S
H3769 C3778 0.930 . S
H3770 C3780 0.930 . S
H3771 C3783 0.929 . S
H3772 C3786 0.930 . S
H3773 C3788 0.960 . S
H3774 C3788 0.960 . S
H3775 C3788 0.960 . S
C3776 H3768 0.929 . S
C3776 C3777 1.377 . S
C3776 C3778 1.384 . S
C3777 C3776 1.377 . S
C3777 C3783 1.390 . S
C3778 H3769 0.930 . S
C3778 C3776 1.384 . S
C3778 C3779 1.372 . S
C3779 C3778 1.372 . S
C3779 C3780 1.400 . S
C3779 C3784 1.490 . S
C3780 H3770 0.930 . S
C3780 C3779 1.400 . S
C3780 C3783 1.386 . S
H3781 C3797 0.930 . S
H3782 C3798 0.931 . S
C3783 H3771 0.929 . S
C3783 C3777 1.390 . S
C3783 C3780 1.386 . S
C3784 C3779 1.490 . S
C3784 C3786 1.395 . S
C3784 C3787 1.403 . S
H3785 C3791 0.930 . S
C3786 H3772 0.930 . S
C3786 C3784 1.395 . S
C3786 C3789 1.403 . S
C3787 C3784 1.403 . S
C3787 C3788 1.524 . S
C3787 C3791 1.400 . S
C3788 H3773 0.960 . S
C3788 H3774 0.960 . S
C3788 H3775 0.960 . S
C3788 C3787 1.524 . S
C3789 C3786 1.403 . S
C3789 C3790 1.392 . S
C3789 C3793 1.495 . S
C3790 C3789 1.392 . S
C3790 C3791 1.385 . S
C3790 C3792 1.478 . S
C3791 H3785 0.930 . S
C3791 C3787 1.400 . S
C3791 C3790 1.385 . S
C3792 C3790 1.478 . S
C3792 C3794 1.381 . S
C3792 C3798 1.383 . S
C3793 C3789 1.495 . S
C3793 H3799 0.959 . S
C3793 H3800 0.961 . S
C3793 H3801 0.960 . S
C3794 C3792 1.381 . S
C3794 C3795 1.394 . S
C3794 H3802 0.930 . S
C3795 C3794 1.394 . S
C3795 C3796 1.383 . S
C3795 H3803 0.929 . S
C3796 C3795 1.383 . S
C3796 C3797 1.377 . S
C3797 H3781 0.930 . S
C3797 C3796 1.377 . S
C3797 C3798 1.379 . S
C3798 H3782 0.931 . S
C3798 C3792 1.383 . S
C3798 C3797 1.379 . S
H3799 C3793 0.959 . S
H3800 C3793 0.961 . S
H3801 C3793 0.960 . S
H3802 C3794 0.930 . S
H3803 C3795 0.929 . S
H3804 C3812 0.929 . S
H3805 C3814 0.930 . S
H3806 C3816 0.930 . S
H3807 C3819 0.929 . S
H3808 C3822 0.930 . S
H3809 C3824 0.960 . S
H3810 C3824 0.960 . S
H3811 C3824 0.960 . S
C3812 H3804 0.929 . S
C3812 C3813 1.377 . S
C3812 C3814 1.384 . S
C3813 C3812 1.377 . S
C3813 C3819 1.390 . S
C3814 H3805 0.930 . S
C3814 C3812 1.384 . S
C3814 C3815 1.372 . S
C3815 C3814 1.372 . S
C3815 C3816 1.400 . S
C3815 C3820 1.490 . S
C3816 H3806 0.930 . S
C3816 C3815 1.400 . S
C3816 C3819 1.386 . S
H3817 C3833 0.930 . S
H3818 C3834 0.931 . S
C3819 H3807 0.929 . S
C3819 C3813 1.390 . S
C3819 C3816 1.386 . S
C3820 C3815 1.490 . S
C3820 C3822 1.395 . S
C3820 C3823 1.403 . S
H3821 C3827 0.930 . S
C3822 H3808 0.930 . S
C3822 C3820 1.395 . S
C3822 C3825 1.403 . S
C3823 C3820 1.403 . S
C3823 C3824 1.524 . S
C3823 C3827 1.400 . S
C3824 H3809 0.960 . S
C3824 H3810 0.960 . S
C3824 H3811 0.960 . S
C3824 C3823 1.524 . S
C3825 C3822 1.403 . S
C3825 C3826 1.392 . S
C3825 C3829 1.495 . S
C3826 C3825 1.392 . S
C3826 C3827 1.385 . S
C3826 C3828 1.478 . S
C3827 H3821 0.930 . S
C3827 C3823 1.400 . S
C3827 C3826 1.385 . S
C3828 C3826 1.478 . S
C3828 C3830 1.381 . S
C3828 C3834 1.383 . S
C3829 C3825 1.495 . S
C3829 H3835 0.959 . S
C3829 H3836 0.961 . S
C3829 H3837 0.960 . S
C3830 C3828 1.381 . S
C3830 C3831 1.394 . S
C3830 H3838 0.930 . S
C3831 C3830 1.394 . S
C3831 C3832 1.383 . S
C3831 H3839 0.929 . S
C3832 C3831 1.383 . S
C3832 C3833 1.377 . S
C3833 H3817 0.930 . S
C3833 C3832 1.377 . S
C3833 C3834 1.379 . S
C3834 H3818 0.931 . S
C3834 C3828 1.383 . S
C3834 C3833 1.379 . S
H3835 C3829 0.959 . S
H3836 C3829 0.961 . S
H3837 C3829 0.960 . S
H3838 C3830 0.930 . S
H3839 C3831 0.929 . S
H3840 C3848 0.929 . S
H3841 C3850 0.930 . S
H3842 C3852 0.930 . S
H3843 C3855 0.929 . S
H3844 C3858 0.930 . S
H3845 C3860 0.960 . S
H3846 C3860 0.960 . S
H3847 C3860 0.960 . S
C3848 H3840 0.929 . S
C3848 C3849 1.377 . S
C3848 C3850 1.384 . S
C3849 C3848 1.377 . S
C3849 C3855 1.390 . S
C3850 H3841 0.930 . S
C3850 C3848 1.384 . S
C3850 C3851 1.372 . S
C3851 C3850 1.372 . S
C3851 C3852 1.400 . S
C3851 C3856 1.490 . S
C3852 H3842 0.930 . S
C3852 C3851 1.400 . S
C3852 C3855 1.386 . S
H3853 C3869 0.930 . S
H3854 C3870 0.931 . S
C3855 H3843 0.929 . S
C3855 C3849 1.390 . S
C3855 C3852 1.386 . S
C3856 C3851 1.490 . S
C3856 C3858 1.395 . S
C3856 C3859 1.403 . S
H3857 C3863 0.930 . S
C3858 H3844 0.930 . S
C3858 C3856 1.395 . S
C3858 C3861 1.403 . S
C3859 C3856 1.403 . S
C3859 C3860 1.524 . S
C3859 C3863 1.400 . S
C3860 H3845 0.960 . S
C3860 H3846 0.960 . S
C3860 H3847 0.960 . S
C3860 C3859 1.524 . S
C3861 C3858 1.403 . S
C3861 C3862 1.392 . S
C3861 C3865 1.495 . S
C3862 C3861 1.392 . S
C3862 C3863 1.385 . S
C3862 C3864 1.478 . S
C3863 H3857 0.930 . S
C3863 C3859 1.400 . S
C3863 C3862 1.385 . S
C3864 C3862 1.478 . S
C3864 C3866 1.381 . S
C3864 C3870 1.383 . S
C3865 C3861 1.495 . S
C3865 H3871 0.959 . S
C3865 H3872 0.961 . S
C3865 H3873 0.960 . S
C3866 C3864 1.381 . S
C3866 C3867 1.394 . S
C3866 H3874 0.930 . S
C3867 C3866 1.394 . S
C3867 C3868 1.383 . S
C3867 H3875 0.929 . S
C3868 C3867 1.383 . S
C3868 C3869 1.377 . S
C3869 H3853 0.930 . S
C3869 C3868 1.377 . S
C3869 C3870 1.379 . S
C3870 H3854 0.931 . S
C3870 C3864 1.383 . S
C3870 C3869 1.379 . S
H3871 C3865 0.959 . S
H3872 C3865 0.961 . S
H3873 C3865 0.960 . S
H3874 C3866 0.930 . S
H3875 C3867 0.929 . S
H3876 C3884 0.929 . S
H3877 C3886 0.930 . S
H3878 C3888 0.930 . S
H3879 C3891 0.929 . S
H3880 C3894 0.930 . S
H3881 C3896 0.960 . S
H3882 C3896 0.960 . S
H3883 C3896 0.960 . S
C3884 H3876 0.929 . S
C3884 C3885 1.377 . S
C3884 C3886 1.384 . S
C3885 C3884 1.377 . S
C3885 C3891 1.390 . S
C3886 H3877 0.930 . S
C3886 C3884 1.384 . S
C3886 C3887 1.372 . S
C3887 C3886 1.372 . S
C3887 C3888 1.400 . S
C3887 C3892 1.490 . S
C3888 H3878 0.930 . S
C3888 C3887 1.400 . S
C3888 C3891 1.386 . S
H3889 C3905 0.930 . S
H3890 C3906 0.931 . S
C3891 H3879 0.929 . S
C3891 C3885 1.390 . S
C3891 C3888 1.386 . S
C3892 C3887 1.490 . S
C3892 C3894 1.395 . S
C3892 C3895 1.403 . S
H3893 C3899 0.930 . S
C3894 H3880 0.930 . S
C3894 C3892 1.395 . S
C3894 C3897 1.403 . S
C3895 C3892 1.403 . S
C3895 C3896 1.524 . S
C3895 C3899 1.400 . S
C3896 H3881 0.960 . S
C3896 H3882 0.960 . S
C3896 H3883 0.960 . S
C3896 C3895 1.524 . S
C3897 C3894 1.403 . S
C3897 C3898 1.392 . S
C3897 C3901 1.495 . S
C3898 C3897 1.392 . S
C3898 C3899 1.385 . S
C3898 C3900 1.478 . S
C3899 H3893 0.930 . S
C3899 C3895 1.400 . S
C3899 C3898 1.385 . S
C3900 C3898 1.478 . S
C3900 C3902 1.381 . S
C3900 C3906 1.383 . S
C3901 C3897 1.495 . S
C3901 H3907 0.959 . S
C3901 H3908 0.961 . S
C3901 H3909 0.960 . S
C3902 C3900 1.381 . S
C3902 C3903 1.394 . S
C3902 H3910 0.930 . S
C3903 C3902 1.394 . S
C3903 C3904 1.383 . S
C3903 H3911 0.929 . S
C3904 C3903 1.383 . S
C3904 C3905 1.377 . S
C3905 H3889 0.930 . S
C3905 C3904 1.377 . S
C3905 C3906 1.379 . S
C3906 H3890 0.931 . S
C3906 C3900 1.383 . S
C3906 C3905 1.379 . S
H3907 C3901 0.959 . S
H3908 C3901 0.961 . S
H3909 C3901 0.960 . S
H3910 C3902 0.930 . S
H3911 C3903 0.929 . S
H3912 C3920 0.929 . S
H3913 C3922 0.930 . S
H3914 C3924 0.930 . S
H3915 C3927 0.929 . S
H3916 C3930 0.930 . S
H3917 C3932 0.960 . S
H3918 C3932 0.960 . S
H3919 C3932 0.960 . S
C3920 H3912 0.929 . S
C3920 C3921 1.377 . S
C3920 C3922 1.384 . S
C3921 C3920 1.377 . S
C3921 C3927 1.390 . S
C3922 H3913 0.930 . S
C3922 C3920 1.384 . S
C3922 C3923 1.372 . S
C3923 C3922 1.372 . S
C3923 C3924 1.400 . S
C3923 C3928 1.490 . S
C3924 H3914 0.930 . S
C3924 C3923 1.400 . S
C3924 C3927 1.386 . S
H3925 C3941 0.930 . S
H3926 C3942 0.931 . S
C3927 H3915 0.929 . S
C3927 C3921 1.390 . S
C3927 C3924 1.386 . S
C3928 C3923 1.490 . S
C3928 C3930 1.395 . S
C3928 C3931 1.403 . S
H3929 C3935 0.930 . S
C3930 H3916 0.930 . S
C3930 C3928 1.395 . S
C3930 C3933 1.403 . S
C3931 C3928 1.403 . S
C3931 C3932 1.524 . S
C3931 C3935 1.400 . S
C3932 H3917 0.960 . S
C3932 H3918 0.960 . S
C3932 H3919 0.960 . S
C3932 C3931 1.524 . S
C3933 C3930 1.403 . S
C3933 C3934 1.392 . S
C3933 C3937 1.495 . S
C3934 C3933 1.392 . S
C3934 C3935 1.385 . S
C3934 C3936 1.478 . S
C3935 H3929 0.930 . S
C3935 C3931 1.400 . S
C3935 C3934 1.385 . S
C3936 C3934 1.478 . S
C3936 C3938 1.381 . S
C3936 C3942 1.383 . S
C3937 C3933 1.495 . S
C3937 H3943 0.959 . S
C3937 H3944 0.961 . S
C3937 H3945 0.960 . S
C3938 C3936 1.381 . S
C3938 C3939 1.394 . S
C3938 H3946 0.930 . S
C3939 C3938 1.394 . S
C3939 C3940 1.383 . S
C3939 H3947 0.929 . S
C3940 C3939 1.383 . S
C3940 C3941 1.377 . S
C3941 H3925 0.930 . S
C3941 C3940 1.377 . S
C3941 C3942 1.379 . S
C3942 H3926 0.931 . S
C3942 C3936 1.383 . S
C3942 C3941 1.379 . S
H3943 C3937 0.959 . S
H3944 C3937 0.961 . S
H3945 C3937 0.960 . S
H3946 C3938 0.930 . S
H3947 C3939 0.929 . S
H3948 C3956 0.929 . S
H3949 C3958 0.930 . S
H3950 C3960 0.930 . S
H3951 C3963 0.929 . S
H3952 C3966 0.930 . S
H3953 C3968 0.960 . S
H3954 C3968 0.960 . S
H3955 C3968 0.960 . S
C3956 H3948 0.929 . S
C3956 C3957 1.377 . S
C3956 C3958 1.384 . S
C3957 C3956 1.377 . S
C3957 C3963 1.390 . S
C3958 H3949 0.930 . S
C3958 C3956 1.384 . S
C3958 C3959 1.372 . S
C3959 C3958 1.372 . S
C3959 C3960 1.400 . S
C3959 C3964 1.490 . S
C3960 H3950 0.930 . S
C3960 C3959 1.400 . S
C3960 C3963 1.386 . S
H3961 C3977 0.930 . S
H3962 C3978 0.931 . S
C3963 H3951 0.929 . S
C3963 C3957 1.390 . S
C3963 C3960 1.386 . S
C3964 C3959 1.490 . S
C3964 C3966 1.395 . S
C3964 C3967 1.403 . S
H3965 C3971 0.930 . S
C3966 H3952 0.930 . S
C3966 C3964 1.395 . S
C3966 C3969 1.403 . S
C3967 C3964 1.403 . S
C3967 C3968 1.524 . S
C3967 C3971 1.400 . S
C3968 H3953 0.960 . S
C3968 H3954 0.960 . S
C3968 H3955 0.960 . S
C3968 C3967 1.524 . S
C3969 C3966 1.403 . S
C3969 C3970 1.392 . S
C3969 C3973 1.495 . S
C3970 C3969 1.392 . S
C3970 C3971 1.385 . S
C3970 C3972 1.478 . S
C3971 H3965 0.930 . S
C3971 C3967 1.400 . S
C3971 C3970 1.385 . S
C3972 C3970 1.478 . S
C3972 C3974 1.381 . S
C3972 C3978 1.383 . S
C3973 C3969 1.495 . S
C3973 H3979 0.959 . S
C3973 H3980 0.961 . S
C3973 H3981 0.960 . S
C3974 C3972 1.381 . S
C3974 C3975 1.394 . S
C3974 H3982 0.930 . S
C3975 C3974 1.394 . S
C3975 C3976 1.383 . S
C3975 H3983 0.929 . S
C3976 C3975 1.383 . S
C3976 C3977 1.377 . S
C3977 H3961 0.930 . S
C3977 C3976 1.377 . S
C3977 C3978 1.379 . S
C3978 H3962 0.931 . S
C3978 C3972 1.383 . S
C3978 C3977 1.379 . S
H3979 C3973 0.959 . S
H3980 C3973 0.961 . S
H3981 C3973 0.960 . S
H3982 C3974 0.930 . S
H3983 C3975 0.929 . S
H3984 C3992 0.929 . S
H3985 C3994 0.930 . S
H3986 C3996 0.930 . S
H3987 C3999 0.929 . S
H3988 C4002 0.930 . S
H3989 C4004 0.960 . S
H3990 C4004 0.960 . S
H3991 C4004 0.960 . S
C3992 H3984 0.929 . S
C3992 C3993 1.377 . S
C3992 C3994 1.384 . S
C3993 C3992 1.377 . S
C3993 C3999 1.390 . S
C3994 H3985 0.930 . S
C3994 C3992 1.384 . S
C3994 C3995 1.372 . S
C3995 C3994 1.372 . S
C3995 C3996 1.400 . S
C3995 C4000 1.490 . S
C3996 H3986 0.930 . S
C3996 C3995 1.400 . S
C3996 C3999 1.386 . S
H3997 C4013 0.930 . S
H3998 C4014 0.931 . S
C3999 H3987 0.929 . S
C3999 C3993 1.390 . S
C3999 C3996 1.386 . S
C4000 C3995 1.490 . S
C4000 C4002 1.395 . S
C4000 C4003 1.403 . S
H4001 C4007 0.930 . S
C4002 H3988 0.930 . S
C4002 C4000 1.395 . S
C4002 C4005 1.403 . S
C4003 C4000 1.403 . S
C4003 C4004 1.524 . S
C4003 C4007 1.400 . S
C4004 H3989 0.960 . S
C4004 H3990 0.960 . S
C4004 H3991 0.960 . S
C4004 C4003 1.524 . S
C4005 C4002 1.403 . S
C4005 C4006 1.392 . S
C4005 C4009 1.495 . S
C4006 C4005 1.392 . S
C4006 C4007 1.385 . S
C4006 C4008 1.478 . S
C4007 H4001 0.930 . S
C4007 C4003 1.400 . S
C4007 C4006 1.385 . S
C4008 C4006 1.478 . S
C4008 C4010 1.381 . S
C4008 C4014 1.383 . S
C4009 C4005 1.495 . S
C4009 H4015 0.959 . S
C4009 H4016 0.961 . S
C4009 H4017 0.960 . S
C4010 C4008 1.381 . S
C4010 C4011 1.394 . S
C4010 H4018 0.930 . S
C4011 C4010 1.394 . S
C4011 C4012 1.383 . S
C4011 H4019 0.929 . S
C4012 C4011 1.383 . S
C4012 C4013 1.377 . S
C4013 H3997 0.930 . S
C4013 C4012 1.377 . S
C4013 C4014 1.379 . S
C4014 H3998 0.931 . S
C4014 C4008 1.383 . S
C4014 C4013 1.379 . S
H4015 C4009 0.959 . S
H4016 C4009 0.961 . S
H4017 C4009 0.960 . S
H4018 C4010 0.930 . S
H4019 C4011 0.929 . S
H4020 C4028 0.929 . S
H4021 C4030 0.930 . S
H4022 C4032 0.930 . S
H4023 C4035 0.929 . S
H4024 C4038 0.930 . S
H4025 C4040 0.960 . S
H4026 C4040 0.960 . S
H4027 C4040 0.960 . S
C4028 H4020 0.929 . S
C4028 C4029 1.377 . S
C4028 C4030 1.384 . S
C4029 C4028 1.377 . S
C4029 C4035 1.390 . S
C4030 H4021 0.930 . S
C4030 C4028 1.384 . S
C4030 C4031 1.372 . S
C4031 C4030 1.372 . S
C4031 C4032 1.400 . S
C4031 C4036 1.490 . S
C4032 H4022 0.930 . S
C4032 C4031 1.400 . S
C4032 C4035 1.386 . S
H4033 C4049 0.930 . S
H4034 C4050 0.931 . S
C4035 H4023 0.929 . S
C4035 C4029 1.390 . S
C4035 C4032 1.386 . S
C4036 C4031 1.490 . S
C4036 C4038 1.395 . S
C4036 C4039 1.403 . S
H4037 C4043 0.930 . S
C4038 H4024 0.930 . S
C4038 C4036 1.395 . S
C4038 C4041 1.403 . S
C4039 C4036 1.403 . S
C4039 C4040 1.524 . S
C4039 C4043 1.400 . S
C4040 H4025 0.960 . S
C4040 H4026 0.960 . S
C4040 H4027 0.960 . S
C4040 C4039 1.524 . S
C4041 C4038 1.403 . S
C4041 C4042 1.392 . S
C4041 C4045 1.495 . S
C4042 C4041 1.392 . S
C4042 C4043 1.385 . S
C4042 C4044 1.478 . S
C4043 H4037 0.930 . S
C4043 C4039 1.400 . S
C4043 C4042 1.385 . S
C4044 C4042 1.478 . S
C4044 C4046 1.381 . S
C4044 C4050 1.383 . S
C4045 C4041 1.495 . S
C4045 H4051 0.959 . S
C4045 H4052 0.961 . S
C4045 H4053 0.960 . S
C4046 C4044 1.381 . S
C4046 C4047 1.394 . S
C4046 H4054 0.930 . S
C4047 C4046 1.394 . S
C4047 C4048 1.383 . S
C4047 H4055 0.929 . S
C4048 C4047 1.383 . S
C4048 C4049 1.377 . S
C4049 H4033 0.930 . S
C4049 C4048 1.377 . S
C4049 C4050 1.379 . S
C4050 H4034 0.931 . S
C4050 C4044 1.383 . S
C4050 C4049 1.379 . S
H4051 C4045 0.959 . S
H4052 C4045 0.961 . S
H4053 C4045 0.960 . S
H4054 C4046 0.930 . S
H4055 C4047 0.929 . S
H4056 C4064 0.929 . S
H4057 C4066 0.930 . S
H4058 C4068 0.930 . S
H4059 C4071 0.929 . S
H4060 C4074 0.930 . S
H4061 C4076 0.960 . S
H4062 C4076 0.960 . S
H4063 C4076 0.960 . S
C4064 H4056 0.929 . S
C4064 C4065 1.377 . S
C4064 C4066 1.384 . S
C4065 C4064 1.377 . S
C4065 C4071 1.390 . S
C4066 H4057 0.930 . S
C4066 C4064 1.384 . S
C4066 C4067 1.372 . S
C4067 C4066 1.372 . S
C4067 C4068 1.400 . S
C4067 C4072 1.490 . S
C4068 H4058 0.930 . S
C4068 C4067 1.400 . S
C4068 C4071 1.386 . S
H4069 C4085 0.930 . S
H4070 C4086 0.931 . S
C4071 H4059 0.929 . S
C4071 C4065 1.390 . S
C4071 C4068 1.386 . S
C4072 C4067 1.490 . S
C4072 C4074 1.395 . S
C4072 C4075 1.403 . S
H4073 C4079 0.930 . S
C4074 H4060 0.930 . S
C4074 C4072 1.395 . S
C4074 C4077 1.403 . S
C4075 C4072 1.403 . S
C4075 C4076 1.524 . S
C4075 C4079 1.400 . S
C4076 H4061 0.960 . S
C4076 H4062 0.960 . S
C4076 H4063 0.960 . S
C4076 C4075 1.524 . S
C4077 C4074 1.403 . S
C4077 C4078 1.392 . S
C4077 C4081 1.495 . S
C4078 C4077 1.392 . S
C4078 C4079 1.385 . S
C4078 C4080 1.478 . S
C4079 H4073 0.930 . S
C4079 C4075 1.400 . S
C4079 C4078 1.385 . S
C4080 C4078 1.478 . S
C4080 C4082 1.381 . S
C4080 C4086 1.383 . S
C4081 C4077 1.495 . S
C4081 H4087 0.959 . S
C4081 H4088 0.961 . S
C4081 H4089 0.960 . S
C4082 C4080 1.381 . S
C4082 C4083 1.394 . S
C4082 H4090 0.930 . S
C4083 C4082 1.394 . S
C4083 C4084 1.383 . S
C4083 H4091 0.929 . S
C4084 C4083 1.383 . S
C4084 C4085 1.377 . S
C4085 H4069 0.930 . S
C4085 C4084 1.377 . S
C4085 C4086 1.379 . S
C4086 H4070 0.931 . S
C4086 C4080 1.383 . S
C4086 C4085 1.379 . S
H4087 C4081 0.959 . S
H4088 C4081 0.961 . S
H4089 C4081 0.960 . S
H4090 C4082 0.930 . S
H4091 C4083 0.929 . S
H4092 C4100 0.929 . S
H4093 C4102 0.930 . S
H4094 C4104 0.971 . S
H4095 C4107 0.931 1_556 S
H4096 C4110 0.930 . S
H4097 C4112 0.960 . S
H4098 C4112 0.960 . S
H4099 C4112 0.960 . S
C4100 H4092 0.929 . S
C4100 C4101 1.377 . S
C4100 C4102 1.384 . S
C4101 C4100 1.377 . S
C4101 C4107 1.390 . S
C4102 H4093 0.930 . S
C4102 C4100 1.384 . S
C4102 C4103 1.372 . S
C4103 C4102 1.372 . S
C4103 C4104 1.400 . S
C4103 C4108 1.490 . S
C4104 H4094 0.971 . S
C4104 C4103 1.400 . S
C4104 C4107 1.386 . S
H4105 C4121 0.930 1_556 S
H4106 C4122 0.931 1_556 S
C4107 H4095 0.931 1_554 S
C4107 C4101 1.390 . S
C4107 C4104 1.386 . S
C4108 C4103 1.490 . S
C4108 C4110 1.395 . S
C4108 C4111 1.403 . S
H4109 C4115 0.930 . S
C4110 H4096 0.930 . S
C4110 C4108 1.395 . S
C4110 C4113 1.403 . S
C4111 C4108 1.403 . S
C4111 C4112 1.524 1_565 S
C4111 C4115 1.400 1_565 S
C4112 H4097 0.960 . S
C4112 H4098 0.960 . S
C4112 H4099 0.960 . S
C4112 C4111 1.524 1_545 S
C4113 C4110 1.403 . S
C4113 C4114 1.392 . S
C4113 C4117 1.495 . S
C4114 C4113 1.392 . S
C4114 C4115 1.385 1_565 S
C4114 C4116 1.478 1_565 S
C4115 H4109 0.930 . S
C4115 C4111 1.400 1_545 S
C4115 C4114 1.385 1_545 S
C4116 C4114 1.478 1_545 S
C4116 C4118 1.395 . S
C4116 C4122 1.383 . S
C4117 C4113 1.495 . S
C4117 H4123 0.959 . S
C4117 H4124 0.961 1_554 S
C4117 H4125 0.960 . S
C4118 C4116 1.395 . S
C4118 C4119 1.408 . S
C4118 H4126 0.903 1_545 S
C4119 C4118 1.408 . S
C4119 C4120 1.383 . S
C4119 H4127 0.929 . S
C4120 C4119 1.383 . S
C4120 C4121 1.377 . S
C4121 H4105 0.930 1_554 S
C4121 C4120 1.377 . S
C4121 C4122 1.379 . S
C4122 H4106 0.931 1_554 S
C4122 C4116 1.383 . S
C4122 C4121 1.379 . S
H4123 C4117 0.959 . S
H4124 C4117 0.961 1_556 S
H4125 C4117 0.960 . S
H4126 C4118 0.903 1_565 S
H4127 C4119 0.929 . S
H4128 C4136 0.929 . S
H4129 C4138 0.930 . S
H4130 C4140 0.930 . S
H4131 C4143 0.929 . S
H4132 C4146 0.930 . S
H4133 C4148 0.960 . S
H4134 C4148 0.960 . S
H4135 C4148 0.960 . S
C4136 H4128 0.929 . S
C4136 C4137 1.377 . S
C4136 C4138 1.384 . S
C4137 C4136 1.377 . S
C4137 C4143 1.390 . S
C4138 H4129 0.930 . S
C4138 C4136 1.384 . S
C4138 C4139 1.372 . S
C4139 C4138 1.372 . S
C4139 C4140 1.400 . S
C4139 C4144 1.490 . S
C4140 H4130 0.930 . S
C4140 C4139 1.400 . S
C4140 C4143 1.386 . S
H4141 C4157 0.930 . S
H4142 C4158 0.931 . S
C4143 H4131 0.929 . S
C4143 C4137 1.390 . S
C4143 C4140 1.386 . S
C4144 C4139 1.490 . S
C4144 C4146 1.395 . S
C4144 C4147 1.403 . S
H4145 C4151 0.930 . S
C4146 H4132 0.930 . S
C4146 C4144 1.395 . S
C4146 C4149 1.403 . S
C4147 C4144 1.403 . S
C4147 C4148 1.524 . S
C4147 C4151 1.400 . S
C4148 H4133 0.960 . S
C4148 H4134 0.960 . S
C4148 H4135 0.960 . S
C4148 C4147 1.524 . S
C4149 C4146 1.403 . S
C4149 C4150 1.392 . S
C4149 C4153 1.495 . S
C4150 C4149 1.392 . S
C4150 C4151 1.385 . S
C4150 C4152 1.478 . S
C4151 H4145 0.930 . S
C4151 C4147 1.400 . S
C4151 C4150 1.385 . S
C4152 C4150 1.478 . S
C4152 C4154 1.381 . S
C4152 C4158 1.383 . S
C4153 C4149 1.495 . S
C4153 H4159 0.959 . S
C4153 H4160 0.961 . S
C4153 H4161 0.960 . S
C4154 C4152 1.381 . S
C4154 C4155 1.394 . S
C4154 H4162 0.930 . S
C4155 C4154 1.394 . S
C4155 C4156 1.383 . S
C4155 H4163 0.929 . S
C4156 C4155 1.383 . S
C4156 C4157 1.377 . S
C4157 H4141 0.930 . S
C4157 C4156 1.377 . S
C4157 C4158 1.379 . S
C4158 H4142 0.931 . S
C4158 C4152 1.383 . S
C4158 C4157 1.379 . S
H4159 C4153 0.959 . S
H4160 C4153 0.961 . S
H4161 C4153 0.960 . S
H4162 C4154 0.930 . S
H4163 C4155 0.929 . S
H4164 C4172 0.929 . S
H4165 C4174 0.930 . S
H4166 C4176 0.930 . S
H4167 C4179 0.929 . S
H4168 C4182 0.930 . S
H4169 C4184 0.960 . S
H4170 C4184 0.960 . S
H4171 C4184 0.988 . S
C4172 H4164 0.929 . S
C4172 C4173 1.377 . S
C4172 C4174 1.384 . S
C4173 C4172 1.377 . S
C4173 C4179 1.390 1_554 S
C4174 H4165 0.930 . S
C4174 C4172 1.384 . S
C4174 C4175 1.372 . S
C4175 C4174 1.372 . S
C4175 C4176 1.400 1_554 S
C4175 C4180 1.490 . S
C4176 H4166 0.930 . S
C4176 C4175 1.400 1_556 S
C4176 C4179 1.386 . S
H4177 C4193 0.930 . S
H4178 C4194 0.931 1_556 S
C4179 H4167 0.929 . S
C4179 C4173 1.390 1_556 S
C4179 C4176 1.386 . S
C4180 C4175 1.490 . S
C4180 C4182 1.395 . S
C4180 C4183 1.403 . S
H4181 C4187 0.930 . S
C4182 H4168 0.930 . S
C4182 C4180 1.395 . S
C4182 C4185 1.403 . S
C4183 C4180 1.403 . S
C4183 C4184 1.524 . S
C4183 C4187 1.400 . S
C4184 H4169 0.960 . S
C4184 H4170 0.960 . S
C4184 H4171 0.988 . S
C4184 C4183 1.524 . S
C4185 C4182 1.403 . S
C4185 C4186 1.392 . S
C4185 C4189 1.495 . S
C4186 C4185 1.392 . S
C4186 C4187 1.385 . S
C4186 C4188 1.478 . S
C4187 H4181 0.930 . S
C4187 C4183 1.400 . S
C4187 C4186 1.385 . S
C4188 C4186 1.478 . S
C4188 C4190 1.381 . S
C4188 C4194 1.383 . S
C4189 C4185 1.495 . S
C4189 H4195 0.959 . S
C4189 H4196 0.961 . S
C4189 H4197 0.960 . S
C4190 C4188 1.381 . S
C4190 C4191 1.394 . S
C4190 H4198 0.930 . S
C4191 C4190 1.394 . S
C4191 C4192 1.383 . S
C4191 H4199 0.929 . S
C4192 C4191 1.383 . S
C4192 C4193 1.377 . S
C4193 H4177 0.930 . S
C4193 C4192 1.377 . S
C4193 C4194 1.379 . S
C4194 H4178 0.931 1_554 S
C4194 C4188 1.383 . S
C4194 C4193 1.379 . S
H4195 C4189 0.959 . S
H4196 C4189 0.961 . S
H4197 C4189 0.960 . S
H4198 C4190 0.930 . S
H4199 C4191 0.929 . S
H4200 C4208 0.929 . S
H4201 C4210 0.930 . S
H4202 C4212 0.930 . S
H4203 C4215 0.929 . S
H4204 C4218 0.930 . S
H4205 C4220 0.960 . S
H4206 C4220 0.960 . S
H4207 C4220 0.960 . S
C4208 H4200 0.929 . S
C4208 C4209 1.377 . S
C4208 C4210 1.384 . S
C4209 C4208 1.377 . S
C4209 C4215 1.390 . S
C4210 H4201 0.930 . S
C4210 C4208 1.384 . S
C4210 C4211 1.372 . S
C4211 C4210 1.372 . S
C4211 C4212 1.400 . S
C4211 C4216 1.490 . S
C4212 H4202 0.930 . S
C4212 C4211 1.400 . S
C4212 C4215 1.386 . S
H4213 C4229 0.930 . S
H4214 C4230 0.931 . S
C4215 H4203 0.929 . S
C4215 C4209 1.390 . S
C4215 C4212 1.386 . S
C4216 C4211 1.490 . S
C4216 C4218 1.395 . S
C4216 C4219 1.403 . S
H4217 C4223 0.930 . S
C4218 H4204 0.930 . S
C4218 C4216 1.395 . S
C4218 C4221 1.403 . S
C4219 C4216 1.403 . S
C4219 C4220 1.524 . S
C4219 C4223 1.400 . S
C4220 H4205 0.960 . S
C4220 H4206 0.960 . S
C4220 H4207 0.960 . S
C4220 C4219 1.524 . S
C4221 C4218 1.403 . S
C4221 C4222 1.392 . S
C4221 C4225 1.495 . S
C4222 C4221 1.392 . S
C4222 C4223 1.385 . S
C4222 C4224 1.478 . S
C4223 H4217 0.930 . S
C4223 C4219 1.400 . S
C4223 C4222 1.385 . S
C4224 C4222 1.478 . S
C4224 C4226 1.381 . S
C4224 C4230 1.383 . S
C4225 C4221 1.495 . S
C4225 H4231 0.959 . S
C4225 H4232 0.961 . S
C4225 H4233 0.960 . S
C4226 C4224 1.381 . S
C4226 C4227 1.394 . S
C4226 H4234 0.930 . S
C4227 C4226 1.394 . S
C4227 C4228 1.383 . S
C4227 H4235 0.929 . S
C4228 C4227 1.383 . S
C4228 C4229 1.377 . S
C4229 H4213 0.930 . S
C4229 C4228 1.377 . S
C4229 C4230 1.379 . S
C4230 H4214 0.931 . S
C4230 C4224 1.383 . S
C4230 C4229 1.379 . S
H4231 C4225 0.959 . S
H4232 C4225 0.961 . S
H4233 C4225 0.960 . S
H4234 C4226 0.930 . S
H4235 C4227 0.929 . S
H4236 C4244 0.929 . S
H4237 C4246 0.930 . S
H4238 C4248 0.930 . S
H4239 C4251 0.929 . S
H4240 C4254 0.930 . S
H4241 C4256 0.960 . S
H4242 C4256 0.960 . S
H4243 C4256 0.960 . S
C4244 H4236 0.929 . S
C4244 C4245 1.377 . S
C4244 C4246 1.384 . S
C4245 C4244 1.377 . S
C4245 C4251 1.390 . S
C4246 H4237 0.930 . S
C4246 C4244 1.384 . S
C4246 C4247 1.372 . S
C4247 C4246 1.372 . S
C4247 C4248 1.400 . S
C4247 C4252 1.490 . S
C4248 H4238 0.930 . S
C4248 C4247 1.400 . S
C4248 C4251 1.386 . S
H4249 C4265 0.930 . S
H4250 C4266 0.931 . S
C4251 H4239 0.929 . S
C4251 C4245 1.390 . S
C4251 C4248 1.386 . S
C4252 C4247 1.490 . S
C4252 C4254 1.395 . S
C4252 C4255 1.403 . S
H4253 C4259 0.930 . S
C4254 H4240 0.930 . S
C4254 C4252 1.395 . S
C4254 C4257 1.403 . S
C4255 C4252 1.403 . S
C4255 C4256 1.524 . S
C4255 C4259 1.400 . S
C4256 H4241 0.960 . S
C4256 H4242 0.960 . S
C4256 H4243 0.960 . S
C4256 C4255 1.524 . S
C4257 C4254 1.403 . S
C4257 C4258 1.392 . S
C4257 C4261 1.495 . S
C4258 C4257 1.392 . S
C4258 C4259 1.385 . S
C4258 C4260 1.478 . S
C4259 H4253 0.930 . S
C4259 C4255 1.400 . S
C4259 C4258 1.385 . S
C4260 C4258 1.478 . S
C4260 C4262 1.381 . S
C4260 C4266 1.383 . S
C4261 C4257 1.495 . S
C4261 H4267 0.959 . S
C4261 H4268 0.961 . S
C4261 H4269 0.960 . S
C4262 C4260 1.381 . S
C4262 C4263 1.394 . S
C4262 H4270 0.930 . S
C4263 C4262 1.394 . S
C4263 C4264 1.383 . S
C4263 H4271 0.929 . S
C4264 C4263 1.383 . S
C4264 C4265 1.377 . S
C4265 H4249 0.930 . S
C4265 C4264 1.377 . S
C4265 C4266 1.379 . S
C4266 H4250 0.931 . S
C4266 C4260 1.383 . S
C4266 C4265 1.379 . S
H4267 C4261 0.959 . S
H4268 C4261 0.961 . S
H4269 C4261 0.960 . S
H4270 C4262 0.930 . S
H4271 C4263 0.929 . S
H4272 C4280 0.929 . S
H4273 C4282 0.930 . S
H4274 C4284 0.930 . S
H4275 C4287 0.929 . S
H4276 C4290 0.930 . S
H4277 C4292 0.960 . S
H4278 C4292 0.960 . S
H4279 C4292 0.960 . S
C4280 H4272 0.929 . S
C4280 C4281 1.377 . S
C4280 C4282 1.384 . S
C4281 C4280 1.377 . S
C4281 C4287 1.390 . S
C4282 H4273 0.930 . S
C4282 C4280 1.384 . S
C4282 C4283 1.372 . S
C4283 C4282 1.372 . S
C4283 C4284 1.400 . S
C4283 C4288 1.490 . S
C4284 H4274 0.930 . S
C4284 C4283 1.400 . S
C4284 C4287 1.386 . S
H4285 C4301 0.930 . S
H4286 C4302 0.931 . S
C4287 H4275 0.929 . S
C4287 C4281 1.390 . S
C4287 C4284 1.386 . S
C4288 C4283 1.490 . S
C4288 C4290 1.395 . S
C4288 C4291 1.403 . S
H4289 C4295 0.930 . S
C4290 H4276 0.930 . S
C4290 C4288 1.395 . S
C4290 C4293 1.403 . S
C4291 C4288 1.403 . S
C4291 C4292 1.524 . S
C4291 C4295 1.400 . S
C4292 H4277 0.960 . S
C4292 H4278 0.960 . S
C4292 H4279 0.960 . S
C4292 C4291 1.524 . S
C4293 C4290 1.403 . S
C4293 C4294 1.392 . S
C4293 C4297 1.495 . S
C4294 C4293 1.392 . S
C4294 C4295 1.385 . S
C4294 C4296 1.478 . S
C4295 H4289 0.930 . S
C4295 C4291 1.400 . S
C4295 C4294 1.385 . S
C4296 C4294 1.478 . S
C4296 C4298 1.381 . S
C4296 C4302 1.383 . S
C4297 C4293 1.495 . S
C4297 H4303 0.959 . S
C4297 H4304 0.961 . S
C4297 H4305 0.960 . S
C4298 C4296 1.381 . S
C4298 C4299 1.394 . S
C4298 H4306 0.930 . S
C4299 C4298 1.394 . S
C4299 C4300 1.383 . S
C4299 H4307 0.929 . S
C4300 C4299 1.383 . S
C4300 C4301 1.377 . S
C4301 H4285 0.930 . S
C4301 C4300 1.377 . S
C4301 C4302 1.379 . S
C4302 H4286 0.931 . S
C4302 C4296 1.383 . S
C4302 C4301 1.379 . S
H4303 C4297 0.959 . S
H4304 C4297 0.961 . S
H4305 C4297 0.960 . S
H4306 C4298 0.930 . S
H4307 C4299 0.929 . S
H4308 C4316 0.929 . S
H4309 C4318 0.930 . S
H4310 C4320 0.930 . S
H4311 C4323 0.929 . S
H4312 C4326 0.930 . S
H4313 C4328 0.960 . S
H4314 C4328 0.960 . S
H4315 C4328 0.960 . S
C4316 H4308 0.929 . S
C4316 C4317 1.377 . S
C4316 C4318 1.384 . S
C4317 C4316 1.377 . S
C4317 C4323 1.390 . S
C4318 H4309 0.930 . S
C4318 C4316 1.384 . S
C4318 C4319 1.372 . S
C4319 C4318 1.372 . S
C4319 C4320 1.400 . S
C4319 C4324 1.490 . S
C4320 H4310 0.930 . S
C4320 C4319 1.400 . S
C4320 C4323 1.386 . S
H4321 C4337 0.930 . S
H4322 C4338 0.931 . S
C4323 H4311 0.929 . S
C4323 C4317 1.390 . S
C4323 C4320 1.386 . S
C4324 C4319 1.490 . S
C4324 C4326 1.395 . S
C4324 C4327 1.403 . S
H4325 C4331 0.930 . S
C4326 H4312 0.930 . S
C4326 C4324 1.395 . S
C4326 C4329 1.403 . S
C4327 C4324 1.403 . S
C4327 C4328 1.524 . S
C4327 C4331 1.400 . S
C4328 H4313 0.960 . S
C4328 H4314 0.960 . S
C4328 H4315 0.960 . S
C4328 C4327 1.524 . S
C4329 C4326 1.403 . S
C4329 C4330 1.392 . S
C4329 C4333 1.495 . S
C4330 C4329 1.392 . S
C4330 C4331 1.385 . S
C4330 C4332 1.478 . S
C4331 H4325 0.930 . S
C4331 C4327 1.400 . S
C4331 C4330 1.385 . S
C4332 C4330 1.478 . S
C4332 C4334 1.381 . S
C4332 C4338 1.383 . S
C4333 C4329 1.495 . S
C4333 H4339 0.959 . S
C4333 H4340 0.961 . S
C4333 H4341 0.960 . S
C4334 C4332 1.381 . S
C4334 C4335 1.394 . S
C4334 H4342 0.930 . S
C4335 C4334 1.394 . S
C4335 C4336 1.383 . S
C4335 H4343 0.929 . S
C4336 C4335 1.383 . S
C4336 C4337 1.377 . S
C4337 H4321 0.930 . S
C4337 C4336 1.377 . S
C4337 C4338 1.379 . S
C4338 H4322 0.931 . S
C4338 C4332 1.383 . S
C4338 C4337 1.379 . S
H4339 C4333 0.959 . S
H4340 C4333 0.961 . S
H4341 C4333 0.960 . S
H4342 C4334 0.930 . S
H4343 C4335 0.929 . S
H4344 C4352 0.929 . S
H4345 C4354 0.930 . S
H4346 C4356 0.930 . S
H4347 C4359 0.929 . S
H4348 C4362 0.930 . S
H4349 C4364 0.960 . S
H4350 C4364 0.960 . S
H4351 C4364 0.960 . S
C4352 H4344 0.929 . S
C4352 C4353 1.377 . S
C4352 C4354 1.384 . S
C4353 C4352 1.377 . S
C4353 C4359 1.390 . S
C4354 H4345 0.930 . S
C4354 C4352 1.384 . S
C4354 C4355 1.372 . S
C4355 C4354 1.372 . S
C4355 C4356 1.400 . S
C4355 C4360 1.490 . S
C4356 H4346 0.930 . S
C4356 C4355 1.400 . S
C4356 C4359 1.386 . S
H4357 C4373 0.930 . S
H4358 C4374 0.931 . S
C4359 H4347 0.929 . S
C4359 C4353 1.390 . S
C4359 C4356 1.386 . S
C4360 C4355 1.490 . S
C4360 C4362 1.395 . S
C4360 C4363 1.403 . S
H4361 C4367 0.930 . S
C4362 H4348 0.930 . S
C4362 C4360 1.395 . S
C4362 C4365 1.403 . S
C4363 C4360 1.403 . S
C4363 C4364 1.524 . S
C4363 C4367 1.400 . S
C4364 H4349 0.960 . S
C4364 H4350 0.960 . S
C4364 H4351 0.960 . S
C4364 C4363 1.524 . S
C4365 C4362 1.403 . S
C4365 C4366 1.392 . S
C4365 C4369 1.495 . S
C4366 C4365 1.392 . S
C4366 C4367 1.385 . S
C4366 C4368 1.478 . S
C4367 H4361 0.930 . S
C4367 C4363 1.400 . S
C4367 C4366 1.385 . S
C4368 C4366 1.478 . S
C4368 C4370 1.381 . S
C4368 C4374 1.383 . S
C4369 C4365 1.495 . S
C4369 H4375 0.959 . S
C4369 H4376 0.961 . S
C4369 H4377 0.960 . S
C4370 C4368 1.381 . S
C4370 C4371 1.394 . S
C4370 H4378 0.930 . S
C4371 C4370 1.394 . S
C4371 C4372 1.383 . S
C4371 H4379 0.929 . S
C4372 C4371 1.383 . S
C4372 C4373 1.377 . S
C4373 H4357 0.930 . S
C4373 C4372 1.377 . S
C4373 C4374 1.379 . S
C4374 H4358 0.931 . S
C4374 C4368 1.383 . S
C4374 C4373 1.379 . S
H4375 C4369 0.959 . S
H4376 C4369 0.961 . S
H4377 C4369 0.960 . S
H4378 C4370 0.930 . S
H4379 C4371 0.929 . S
H4380 C4388 0.929 . S
H4381 C4390 0.930 . S
H4382 C4392 0.930 . S
H4383 C4395 0.929 . S
H4384 C4398 0.930 . S
H4385 C4400 0.960 . S
H4386 C4400 0.960 . S
H4387 C4400 0.960 . S
C4388 H4380 0.929 . S
C4388 C4389 1.377 . S
C4388 C4390 1.384 . S
C4389 C4388 1.377 . S
C4389 C4395 1.390 . S
C4390 H4381 0.930 . S
C4390 C4388 1.384 . S
C4390 C4391 1.372 . S
C4391 C4390 1.372 . S
C4391 C4392 1.400 . S
C4391 C4396 1.490 . S
C4392 H4382 0.930 . S
C4392 C4391 1.400 . S
C4392 C4395 1.386 . S
H4393 C4409 0.930 . S
H4394 C4410 0.931 . S
C4395 H4383 0.929 . S
C4395 C4389 1.390 . S
C4395 C4392 1.386 . S
C4396 C4391 1.490 . S
C4396 C4398 1.395 . S
C4396 C4399 1.403 . S
H4397 C4403 0.930 . S
C4398 H4384 0.930 . S
C4398 C4396 1.395 . S
C4398 C4401 1.403 . S
C4399 C4396 1.403 . S
C4399 C4400 1.524 . S
C4399 C4403 1.400 . S
C4400 H4385 0.960 . S
C4400 H4386 0.960 . S
C4400 H4387 0.960 . S
C4400 C4399 1.524 . S
C4401 C4398 1.403 . S
C4401 C4402 1.392 . S
C4401 C4405 1.495 . S
C4402 C4401 1.392 . S
C4402 C4403 1.385 . S
C4402 C4404 1.478 . S
C4403 H4397 0.930 . S
C4403 C4399 1.400 . S
C4403 C4402 1.385 . S
C4404 C4402 1.478 . S
C4404 C4406 1.381 . S
C4404 C4410 1.383 . S
C4405 C4401 1.495 . S
C4405 H4411 0.959 . S
C4405 H4412 0.961 . S
C4405 H4413 0.960 . S
C4406 C4404 1.381 . S
C4406 C4407 1.394 . S
C4406 H4414 0.930 . S
C4407 C4406 1.394 . S
C4407 C4408 1.383 . S
C4407 H4415 0.929 . S
C4408 C4407 1.383 . S
C4408 C4409 1.377 . S
C4409 H4393 0.930 . S
C4409 C4408 1.377 . S
C4409 C4410 1.379 . S
C4410 H4394 0.931 . S
C4410 C4404 1.383 . S
C4410 C4409 1.379 . S
H4411 C4405 0.959 . S
H4412 C4405 0.961 . S
H4413 C4405 0.960 . S
H4414 C4406 0.930 . S
H4415 C4407 0.929 . S
H4416 C4424 0.929 . S
H4417 C4426 0.930 . S
H4418 C4428 0.930 . S
H4419 C4431 0.929 . S
H4420 C4434 0.930 . S
H4421 C4436 0.960 . S
H4422 C4436 0.960 . S
H4423 C4436 0.960 . S
C4424 H4416 0.929 . S
C4424 C4425 1.377 . S
C4424 C4426 1.384 . S
C4425 C4424 1.377 . S
C4425 C4431 1.390 . S
C4426 H4417 0.930 . S
C4426 C4424 1.384 . S
C4426 C4427 1.372 . S
C4427 C4426 1.372 . S
C4427 C4428 1.400 . S
C4427 C4432 1.490 . S
C4428 H4418 0.930 . S
C4428 C4427 1.400 . S
C4428 C4431 1.386 . S
H4429 C4445 0.930 . S
H4430 C4446 0.931 . S
C4431 H4419 0.929 . S
C4431 C4425 1.390 . S
C4431 C4428 1.386 . S
C4432 C4427 1.490 . S
C4432 C4434 1.395 . S
C4432 C4435 1.403 . S
H4433 C4439 0.930 . S
C4434 H4420 0.930 . S
C4434 C4432 1.395 . S
C4434 C4437 1.403 . S
C4435 C4432 1.403 . S
C4435 C4436 1.524 . S
C4435 C4439 1.400 . S
C4436 H4421 0.960 . S
C4436 H4422 0.960 . S
C4436 H4423 0.960 . S
C4436 C4435 1.524 . S
C4437 C4434 1.403 . S
C4437 C4438 1.392 . S
C4437 C4441 1.495 . S
C4438 C4437 1.392 . S
C4438 C4439 1.385 . S
C4438 C4440 1.478 . S
C4439 H4433 0.930 . S
C4439 C4435 1.400 . S
C4439 C4438 1.385 . S
C4440 C4438 1.478 . S
C4440 C4442 1.381 . S
C4440 C4446 1.383 . S
C4441 C4437 1.495 . S
C4441 H4447 0.959 . S
C4441 H4448 0.961 . S
C4441 H4449 0.960 . S
C4442 C4440 1.381 . S
C4442 C4443 1.394 . S
C4442 H4450 0.930 . S
C4443 C4442 1.394 . S
C4443 C4444 1.383 . S
C4443 H4451 0.929 . S
C4444 C4443 1.383 . S
C4444 C4445 1.377 . S
C4445 H4429 0.930 . S
C4445 C4444 1.377 . S
C4445 C4446 1.379 . S
C4446 H4430 0.931 . S
C4446 C4440 1.383 . S
C4446 C4445 1.379 . S
H4447 C4441 0.959 . S
H4448 C4441 0.961 . S
H4449 C4441 0.960 . S
H4450 C4442 0.930 . S
H4451 C4443 0.929 . S
H4452 C4460 0.929 . S
H4453 C4462 0.930 . S
H4454 C4464 0.930 . S
H4455 C4467 0.929 . S
H4456 C4470 0.930 . S
H4457 C4472 0.960 . S
H4458 C4472 0.960 . S
H4459 C4472 0.960 . S
C4460 H4452 0.929 . S
C4460 C4461 1.377 . S
C4460 C4462 1.384 . S
C4461 C4460 1.377 . S
C4461 C4467 1.390 . S
C4462 H4453 0.930 . S
C4462 C4460 1.384 . S
C4462 C4463 1.372 . S
C4463 C4462 1.372 . S
C4463 C4464 1.400 . S
C4463 C4468 1.490 . S
C4464 H4454 0.930 . S
C4464 C4463 1.400 . S
C4464 C4467 1.386 . S
H4465 C4481 0.930 . S
H4466 C4482 0.931 . S
C4467 H4455 0.929 . S
C4467 C4461 1.390 . S
C4467 C4464 1.386 . S
C4468 C4463 1.490 . S
C4468 C4470 1.395 . S
C4468 C4471 1.403 . S
H4469 C4475 0.930 . S
C4470 H4456 0.930 . S
C4470 C4468 1.395 . S
C4470 C4473 1.403 . S
C4471 C4468 1.403 . S
C4471 C4472 1.524 . S
C4471 C4475 1.400 . S
C4472 H4457 0.960 . S
C4472 H4458 0.960 . S
C4472 H4459 0.960 . S
C4472 C4471 1.524 . S
C4473 C4470 1.403 . S
C4473 C4474 1.392 . S
C4473 C4477 1.495 . S
C4474 C4473 1.392 . S
C4474 C4475 1.385 . S
C4474 C4476 1.478 . S
C4475 H4469 0.930 . S
C4475 C4471 1.400 . S
C4475 C4474 1.385 . S
C4476 C4474 1.478 . S
C4476 C4478 1.381 . S
C4476 C4482 1.383 . S
C4477 C4473 1.495 . S
C4477 H4483 0.959 . S
C4477 H4484 0.961 . S
C4477 H4485 0.960 . S
C4478 C4476 1.381 . S
C4478 C4479 1.394 . S
C4478 H4486 0.930 . S
C4479 C4478 1.394 . S
C4479 C4480 1.383 . S
C4479 H4487 0.929 . S
C4480 C4479 1.383 . S
C4480 C4481 1.377 . S
C4481 H4465 0.930 . S
C4481 C4480 1.377 . S
C4481 C4482 1.379 . S
C4482 H4466 0.931 . S
C4482 C4476 1.383 . S
C4482 C4481 1.379 . S
H4483 C4477 0.959 . S
H4484 C4477 0.961 . S
H4485 C4477 0.960 . S
H4486 C4478 0.930 . S
H4487 C4479 0.929 . S
H4488 C4496 0.929 . S
H4489 C4498 0.930 . S
H4490 C4500 0.930 . S
H4491 C4503 0.929 . S
H4492 C4506 0.930 . S
H4493 C4508 0.960 . S
H4494 C4508 0.960 . S
H4495 C4508 0.960 . S
C4496 H4488 0.929 . S
C4496 C4497 1.377 . S
C4496 C4498 1.384 . S
C4497 C4496 1.377 . S
C4497 C4503 1.390 . S
C4498 H4489 0.930 . S
C4498 C4496 1.384 . S
C4498 C4499 1.372 . S
C4499 C4498 1.372 . S
C4499 C4500 1.400 . S
C4499 C4504 1.490 . S
C4500 H4490 0.930 . S
C4500 C4499 1.400 . S
C4500 C4503 1.386 . S
H4501 C4517 0.930 . S
H4502 C4518 0.931 . S
C4503 H4491 0.929 . S
C4503 C4497 1.390 . S
C4503 C4500 1.386 . S
C4504 C4499 1.490 . S
C4504 C4506 1.395 . S
C4504 C4507 1.403 . S
H4505 C4511 0.930 . S
C4506 H4492 0.930 . S
C4506 C4504 1.395 . S
C4506 C4509 1.403 . S
C4507 C4504 1.403 . S
C4507 C4508 1.524 . S
C4507 C4511 1.400 . S
C4508 H4493 0.960 . S
C4508 H4494 0.960 . S
C4508 H4495 0.960 . S
C4508 C4507 1.524 . S
C4509 C4506 1.403 . S
C4509 C4510 1.392 . S
C4509 C4513 1.495 . S
C4510 C4509 1.392 . S
C4510 C4511 1.385 . S
C4510 C4512 1.478 . S
C4511 H4505 0.930 . S
C4511 C4507 1.400 . S
C4511 C4510 1.385 . S
C4512 C4510 1.478 . S
C4512 C4514 1.381 . S
C4512 C4518 1.383 . S
C4513 C4509 1.495 . S
C4513 H4519 0.959 . S
C4513 H4520 0.961 . S
C4513 H4521 0.960 . S
C4514 C4512 1.381 . S
C4514 C4515 1.394 . S
C4514 H4522 0.930 . S
C4515 C4514 1.394 . S
C4515 C4516 1.383 . S
C4515 H4523 0.929 . S
C4516 C4515 1.383 . S
C4516 C4517 1.377 . S
C4517 H4501 0.930 . S
C4517 C4516 1.377 . S
C4517 C4518 1.379 . S
C4518 H4502 0.931 . S
C4518 C4512 1.383 . S
C4518 C4517 1.379 . S
H4519 C4513 0.959 . S
H4520 C4513 0.961 . S
H4521 C4513 0.960 . S
H4522 C4514 0.930 . S
H4523 C4515 0.929 . S
H4524 C4532 0.929 . S
H4525 C4534 0.930 . S
H4526 C4536 0.930 . S
H4527 C4539 0.929 . S
H4528 C4542 0.930 . S
H4529 C4544 0.960 . S
H4530 C4544 0.960 . S
H4531 C4544 0.960 . S
C4532 H4524 0.929 . S
C4532 C4533 1.377 . S
C4532 C4534 1.384 . S
C4533 C4532 1.377 . S
C4533 C4539 1.390 . S
C4534 H4525 0.930 . S
C4534 C4532 1.384 . S
C4534 C4535 1.372 . S
C4535 C4534 1.372 . S
C4535 C4536 1.400 . S
C4535 C4540 1.490 . S
C4536 H4526 0.930 . S
C4536 C4535 1.400 . S
C4536 C4539 1.386 . S
H4537 C4553 0.930 . S
H4538 C4554 0.931 . S
C4539 H4527 0.929 . S
C4539 C4533 1.390 . S
C4539 C4536 1.386 . S
C4540 C4535 1.490 . S
C4540 C4542 1.395 . S
C4540 C4543 1.403 . S
H4541 C4547 0.930 . S
C4542 H4528 0.930 . S
C4542 C4540 1.395 . S
C4542 C4545 1.403 . S
C4543 C4540 1.403 . S
C4543 C4544 1.524 . S
C4543 C4547 1.400 . S
C4544 H4529 0.960 . S
C4544 H4530 0.960 . S
C4544 H4531 0.960 . S
C4544 C4543 1.524 . S
C4545 C4542 1.403 . S
C4545 C4546 1.392 . S
C4545 C4549 1.495 . S
C4546 C4545 1.392 . S
C4546 C4547 1.385 . S
C4546 C4548 1.478 . S
C4547 H4541 0.930 . S
C4547 C4543 1.400 . S
C4547 C4546 1.385 . S
C4548 C4546 1.478 . S
C4548 C4550 1.381 . S
C4548 C4554 1.383 . S
C4549 C4545 1.495 . S
C4549 H4555 0.959 . S
C4549 H4556 0.961 . S
C4549 H4557 0.960 . S
C4550 C4548 1.381 . S
C4550 C4551 1.394 . S
C4550 H4558 0.930 . S
C4551 C4550 1.394 . S
C4551 C4552 1.383 . S
C4551 H4559 0.929 . S
C4552 C4551 1.383 . S
C4552 C4553 1.377 . S
C4553 H4537 0.930 . S
C4553 C4552 1.377 . S
C4553 C4554 1.379 . S
C4554 H4538 0.931 . S
C4554 C4548 1.383 . S
C4554 C4553 1.379 . S
H4555 C4549 0.959 . S
H4556 C4549 0.961 . S
H4557 C4549 0.960 . S
H4558 C4550 0.930 . S
H4559 C4551 0.929 . S
H4560 C4568 0.929 . S
H4561 C4570 0.930 . S
H4562 C4572 0.930 . S
H4563 C4575 0.929 . S
H4564 C4578 0.930 . S
H4565 C4580 0.960 . S
H4566 C4580 0.960 . S
H4567 C4580 0.960 . S
C4568 H4560 0.929 . S
C4568 C4569 1.377 . S
C4568 C4570 1.384 . S
C4569 C4568 1.377 . S
C4569 C4575 1.390 . S
C4570 H4561 0.930 . S
C4570 C4568 1.384 . S
C4570 C4571 1.372 . S
C4571 C4570 1.372 . S
C4571 C4572 1.400 . S
C4571 C4576 1.490 . S
C4572 H4562 0.930 . S
C4572 C4571 1.400 . S
C4572 C4575 1.386 . S
H4573 C4589 0.930 . S
H4574 C4590 0.931 . S
C4575 H4563 0.929 . S
C4575 C4569 1.390 . S
C4575 C4572 1.386 . S
C4576 C4571 1.490 . S
C4576 C4578 1.395 . S
C4576 C4579 1.403 . S
H4577 C4583 0.930 . S
C4578 H4564 0.930 . S
C4578 C4576 1.395 . S
C4578 C4581 1.403 . S
C4579 C4576 1.403 . S
C4579 C4580 1.524 . S
C4579 C4583 1.400 . S
C4580 H4565 0.960 . S
C4580 H4566 0.960 . S
C4580 H4567 0.960 . S
C4580 C4579 1.524 . S
C4581 C4578 1.403 . S
C4581 C4582 1.392 . S
C4581 C4585 1.495 . S
C4582 C4581 1.392 . S
C4582 C4583 1.385 . S
C4582 C4584 1.478 . S
C4583 H4577 0.930 . S
C4583 C4579 1.400 . S
C4583 C4582 1.385 . S
C4584 C4582 1.478 . S
C4584 C4586 1.381 . S
C4584 C4590 1.383 . S
C4585 C4581 1.495 . S
C4585 H4591 0.959 . S
C4585 H4592 0.961 . S
C4585 H4593 0.960 . S
C4586 C4584 1.381 . S
C4586 C4587 1.394 . S
C4586 H4594 0.930 . S
C4587 C4586 1.394 . S
C4587 C4588 1.383 . S
C4587 H4595 0.929 . S
C4588 C4587 1.383 . S
C4588 C4589 1.377 . S
C4589 H4573 0.930 . S
C4589 C4588 1.377 . S
C4589 C4590 1.379 . S
C4590 H4574 0.931 . S
C4590 C4584 1.383 . S
C4590 C4589 1.379 . S
H4591 C4585 0.959 . S
H4592 C4585 0.961 . S
H4593 C4585 0.960 . S
H4594 C4586 0.930 . S
H4595 C4587 0.929 . S
H4596 C4604 0.929 . S
H4597 C4606 0.930 . S
H4598 C4608 0.930 . S
H4599 C4611 0.929 . S
H4600 C4614 0.930 . S
H4601 C4616 0.960 . S
H4602 C4616 0.960 . S
H4603 C4616 0.960 . S
C4604 H4596 0.929 . S
C4604 C4605 1.377 . S
C4604 C4606 1.384 . S
C4605 C4604 1.377 . S
C4605 C4611 1.390 . S
C4606 H4597 0.930 . S
C4606 C4604 1.384 . S
C4606 C4607 1.372 . S
C4607 C4606 1.372 . S
C4607 C4608 1.400 . S
C4607 C4612 1.490 . S
C4608 H4598 0.930 . S
C4608 C4607 1.400 . S
C4608 C4611 1.386 . S
H4609 C4625 0.930 . S
H4610 C4626 0.931 . S
C4611 H4599 0.929 . S
C4611 C4605 1.390 . S
C4611 C4608 1.386 . S
C4612 C4607 1.490 . S
C4612 C4614 1.395 . S
C4612 C4615 1.403 . S
H4613 C4619 0.930 . S
C4614 H4600 0.930 . S
C4614 C4612 1.395 . S
C4614 C4617 1.403 . S
C4615 C4612 1.403 . S
C4615 C4616 1.524 . S
C4615 C4619 1.400 . S
C4616 H4601 0.960 . S
C4616 H4602 0.960 . S
C4616 H4603 0.960 . S
C4616 C4615 1.524 . S
C4617 C4614 1.403 . S
C4617 C4618 1.392 . S
C4617 C4621 1.495 . S
C4618 C4617 1.392 . S
C4618 C4619 1.385 . S
C4618 C4620 1.478 . S
C4619 H4613 0.930 . S
C4619 C4615 1.400 . S
C4619 C4618 1.385 . S
C4620 C4618 1.478 . S
C4620 C4622 1.381 . S
C4620 C4626 1.383 . S
C4621 C4617 1.495 . S
C4621 H4627 0.959 . S
C4621 H4628 0.961 . S
C4621 H4629 0.960 . S
C4622 C4620 1.381 . S
C4622 C4623 1.394 . S
C4622 H4630 0.930 . S
C4623 C4622 1.394 . S
C4623 C4624 1.383 . S
C4623 H4631 0.929 . S
C4624 C4623 1.383 . S
C4624 C4625 1.377 . S
C4625 H4609 0.930 . S
C4625 C4624 1.377 . S
C4625 C4626 1.379 . S
C4626 H4610 0.931 . S
C4626 C4620 1.383 . S
C4626 C4625 1.379 . S
H4627 C4621 0.959 . S
H4628 C4621 0.961 . S
H4629 C4621 0.960 . S
H4630 C4622 0.930 . S
H4631 C4623 0.929 . S
H4632 C4640 0.929 . S
H4633 C4642 0.930 . S
H4634 C4644 0.930 . S
H4635 C4647 0.929 . S
H4636 C4650 0.930 . S
H4637 C4652 0.960 . S
H4638 C4652 0.960 . S
H4639 C4652 0.960 . S
C4640 H4632 0.929 . S
C4640 C4641 1.377 . S
C4640 C4642 1.384 . S
C4641 C4640 1.377 . S
C4641 C4647 1.390 . S
C4642 H4633 0.930 . S
C4642 C4640 1.384 . S
C4642 C4643 1.372 . S
C4643 C4642 1.372 . S
C4643 C4644 1.400 . S
C4643 C4648 1.490 . S
C4644 H4634 0.930 . S
C4644 C4643 1.400 . S
C4644 C4647 1.386 . S
H4645 C4661 0.930 . S
H4646 C4662 0.931 . S
C4647 H4635 0.929 . S
C4647 C4641 1.390 . S
C4647 C4644 1.386 . S
C4648 C4643 1.490 . S
C4648 C4650 1.395 . S
C4648 C4651 1.403 . S
H4649 C4655 0.930 . S
C4650 H4636 0.930 . S
C4650 C4648 1.395 . S
C4650 C4653 1.403 . S
C4651 C4648 1.403 . S
C4651 C4652 1.524 . S
C4651 C4655 1.400 . S
C4652 H4637 0.960 . S
C4652 H4638 0.960 . S
C4652 H4639 0.960 . S
C4652 C4651 1.524 . S
C4653 C4650 1.403 . S
C4653 C4654 1.392 . S
C4653 C4657 1.495 . S
C4654 C4653 1.392 . S
C4654 C4655 1.385 . S
C4654 C4656 1.478 1_655 S
C4655 H4649 0.930 . S
C4655 C4651 1.400 . S
C4655 C4654 1.385 . S
C4656 C4654 1.478 1_455 S
C4656 C4658 1.381 1_455 S
C4656 C4662 1.383 . S
C4657 C4653 1.495 . S
C4657 H4663 0.959 . S
C4657 H4664 0.961 . S
C4657 H4665 0.960 . S
C4658 C4656 1.381 1_655 S
C4658 C4659 1.394 1_655 S
C4658 H4666 0.930 . S
C4659 C4658 1.394 1_455 S
C4659 C4660 1.383 . S
C4659 H4667 0.929 . S
C4660 C4659 1.383 . S
C4660 C4661 1.377 . S
C4661 H4645 0.930 . S
C4661 C4660 1.377 . S
C4661 C4662 1.379 . S
C4662 H4646 0.931 . S
C4662 C4656 1.383 . S
C4662 C4661 1.379 . S
H4663 C4657 0.959 . S
H4664 C4657 0.961 . S
H4665 C4657 0.960 . S
H4666 C4658 0.930 . S
H4667 C4659 0.929 . S
H4668 C4676 0.929 . S
H4669 C4678 0.930 . S
H4670 C4680 0.930 . S
H4671 C4683 0.929 . S
H4672 C4686 0.930 . S
H4673 C4688 0.960 . S
H4674 C4688 0.960 . S
H4675 C4688 0.960 . S
C4676 H4668 0.929 . S
C4676 C4677 1.377 . S
C4676 C4678 1.384 . S
C4677 C4676 1.377 . S
C4677 C4683 1.390 . S
C4678 H4669 0.930 . S
C4678 C4676 1.384 . S
C4678 C4679 1.372 . S
C4679 C4678 1.372 . S
C4679 C4680 1.400 . S
C4679 C4684 1.490 . S
C4680 H4670 0.930 . S
C4680 C4679 1.400 . S
C4680 C4683 1.386 . S
H4681 C4697 0.930 . S
H4682 C4698 0.931 . S
C4683 H4671 0.929 . S
C4683 C4677 1.390 . S
C4683 C4680 1.386 . S
C4684 C4679 1.490 . S
C4684 C4686 1.395 . S
C4684 C4687 1.403 . S
H4685 C4691 0.930 . S
C4686 H4672 0.930 . S
C4686 C4684 1.395 . S
C4686 C4689 1.403 . S
C4687 C4684 1.403 . S
C4687 C4688 1.524 . S
C4687 C4691 1.400 . S
C4688 H4673 0.960 . S
C4688 H4674 0.960 . S
C4688 H4675 0.960 . S
C4688 C4687 1.524 . S
C4689 C4686 1.403 . S
C4689 C4690 1.392 . S
C4689 C4693 1.495 . S
C4690 C4689 1.392 . S
C4690 C4691 1.385 . S
C4690 C4692 1.478 . S
C4691 H4685 0.930 . S
C4691 C4687 1.400 . S
C4691 C4690 1.385 . S
C4692 C4690 1.478 . S
C4692 C4694 1.381 . S
C4692 C4698 1.383 . S
C4693 C4689 1.495 . S
C4693 H4699 0.959 . S
C4693 H4700 0.961 . S
C4693 H4701 0.960 . S
C4694 C4692 1.381 . S
C4694 C4695 1.394 . S
C4694 H4702 0.930 . S
C4695 C4694 1.394 . S
C4695 C4696 1.383 . S
C4695 H4703 0.929 . S
C4696 C4695 1.383 . S
C4696 C4697 1.377 . S
C4697 H4681 0.930 . S
C4697 C4696 1.377 . S
C4697 C4698 1.379 . S
C4698 H4682 0.931 . S
C4698 C4692 1.383 . S
C4698 C4697 1.379 . S
H4699 C4693 0.959 . S
H4700 C4693 0.961 . S
H4701 C4693 0.960 . S
H4702 C4694 0.930 . S
H4703 C4695 0.929 . S
H4704 C4712 0.929 . S
H4705 C4714 0.930 . S
H4706 C4716 0.930 . S
H4707 C4719 0.929 . S
H4708 C4722 0.930 . S
H4709 C4724 0.960 . S
H4710 C4724 0.960 . S
H4711 C4724 0.960 . S
C4712 H4704 0.929 . S
C4712 C4713 1.377 . S
C4712 C4714 1.384 . S
C4713 C4712 1.377 . S
C4713 C4719 1.390 . S
C4714 H4705 0.930 . S
C4714 C4712 1.384 . S
C4714 C4715 1.372 . S
C4715 C4714 1.372 . S
C4715 C4716 1.400 . S
C4715 C4720 1.490 . S
C4716 H4706 0.930 . S
C4716 C4715 1.400 . S
C4716 C4719 1.386 . S
H4717 C4733 0.930 . S
H4718 C4734 0.931 . S
C4719 H4707 0.929 . S
C4719 C4713 1.390 . S
C4719 C4716 1.386 . S
C4720 C4715 1.490 . S
C4720 C4722 1.395 . S
C4720 C4723 1.403 . S
H4721 C4727 0.930 . S
C4722 H4708 0.930 . S
C4722 C4720 1.395 . S
C4722 C4725 1.403 . S
C4723 C4720 1.403 . S
C4723 C4724 1.524 . S
C4723 C4727 1.400 . S
C4724 H4709 0.960 . S
C4724 H4710 0.960 . S
C4724 H4711 0.960 . S
C4724 C4723 1.524 . S
C4725 C4722 1.403 . S
C4725 C4726 1.392 . S
C4725 C4729 1.495 . S
C4726 C4725 1.392 . S
C4726 C4727 1.385 . S
C4726 C4728 1.478 . S
C4727 H4721 0.930 . S
C4727 C4723 1.400 . S
C4727 C4726 1.385 . S
C4728 C4726 1.478 . S
C4728 C4730 1.381 . S
C4728 C4734 1.383 . S
C4729 C4725 1.495 . S
C4729 H4735 0.959 . S
C4729 H4736 0.961 . S
C4729 H4737 0.960 . S
C4730 C4728 1.381 . S
C4730 C4731 1.394 . S
C4730 H4738 0.930 . S
C4731 C4730 1.394 . S
C4731 C4732 1.383 . S
C4731 H4739 0.929 . S
C4732 C4731 1.383 . S
C4732 C4733 1.377 . S
C4733 H4717 0.930 . S
C4733 C4732 1.377 . S
C4733 C4734 1.379 . S
C4734 H4718 0.931 . S
C4734 C4728 1.383 . S
C4734 C4733 1.379 . S
H4735 C4729 0.959 . S
H4736 C4729 0.961 . S
H4737 C4729 0.960 . S
H4738 C4730 0.930 . S
H4739 C4731 0.929 . S
H4740 C4748 0.929 . S
H4741 C4750 0.930 . S
H4742 C4752 0.930 . S
H4743 C4755 0.929 . S
H4744 C4758 0.930 . S
H4745 C4760 0.960 . S
H4746 C4760 0.960 . S
H4747 C4760 0.960 . S
C4748 H4740 0.929 . S
C4748 C4749 1.377 . S
C4748 C4750 1.384 . S
C4749 C4748 1.377 . S
C4749 C4755 1.390 . S
C4750 H4741 0.930 . S
C4750 C4748 1.384 . S
C4750 C4751 1.372 . S
C4751 C4750 1.372 . S
C4751 C4752 1.400 . S
C4751 C4756 1.490 . S
C4752 H4742 0.930 . S
C4752 C4751 1.400 . S
C4752 C4755 1.386 . S
H4753 C4769 0.930 . S
H4754 C4770 0.931 . S
C4755 H4743 0.929 . S
C4755 C4749 1.390 . S
C4755 C4752 1.386 . S
C4756 C4751 1.490 . S
C4756 C4758 1.395 . S
C4756 C4759 1.403 . S
H4757 C4763 0.930 . S
C4758 H4744 0.930 . S
C4758 C4756 1.395 . S
C4758 C4761 1.403 . S
C4759 C4756 1.403 . S
C4759 C4760 1.524 . S
C4759 C4763 1.400 . S
C4760 H4745 0.960 . S
C4760 H4746 0.960 . S
C4760 H4747 0.960 . S
C4760 C4759 1.524 . S
C4761 C4758 1.403 . S
C4761 C4762 1.392 . S
C4761 C4765 1.495 . S
C4762 C4761 1.392 . S
C4762 C4763 1.385 . S
C4762 C4764 1.478 . S
C4763 H4757 0.930 . S
C4763 C4759 1.400 . S
C4763 C4762 1.385 . S
C4764 C4762 1.478 . S
C4764 C4766 1.381 . S
C4764 C4770 1.383 . S
C4765 C4761 1.495 . S
C4765 H4771 0.959 . S
C4765 H4772 0.961 . S
C4765 H4773 0.960 . S
C4766 C4764 1.381 . S
C4766 C4767 1.394 . S
C4766 H4774 0.930 . S
C4767 C4766 1.394 . S
C4767 C4768 1.383 . S
C4767 H4775 0.929 . S
C4768 C4767 1.383 . S
C4768 C4769 1.377 . S
C4769 H4753 0.930 . S
C4769 C4768 1.377 . S
C4769 C4770 1.379 . S
C4770 H4754 0.931 . S
C4770 C4764 1.383 . S
C4770 C4769 1.379 . S
H4771 C4765 0.959 . S
H4772 C4765 0.961 . S
H4773 C4765 0.960 . S
H4774 C4766 0.930 . S
H4775 C4767 0.929 . S
H4776 C4784 0.929 . S
H4777 C4786 0.930 . S
H4778 C4788 0.930 . S
H4779 C4791 0.929 . S
H4780 C4794 0.930 . S
H4781 C4796 0.960 . S
H4782 C4796 0.960 . S
H4783 C4796 0.960 . S
C4784 H4776 0.929 . S
C4784 C4785 1.377 . S
C4784 C4786 1.384 . S
C4785 C4784 1.377 . S
C4785 C4791 1.390 . S
C4786 H4777 0.930 . S
C4786 C4784 1.384 . S
C4786 C4787 1.372 . S
C4787 C4786 1.372 . S
C4787 C4788 1.400 . S
C4787 C4792 1.490 . S
C4788 H4778 0.930 . S
C4788 C4787 1.400 . S
C4788 C4791 1.386 . S
H4789 C4805 0.930 . S
H4790 C4806 0.931 . S
C4791 H4779 0.929 . S
C4791 C4785 1.390 . S
C4791 C4788 1.386 . S
C4792 C4787 1.490 . S
C4792 C4794 1.395 . S
C4792 C4795 1.403 . S
H4793 C4799 0.930 . S
C4794 H4780 0.930 . S
C4794 C4792 1.395 . S
C4794 C4797 1.403 . S
C4795 C4792 1.403 . S
C4795 C4796 1.524 . S
C4795 C4799 1.400 . S
C4796 H4781 0.960 . S
C4796 H4782 0.960 . S
C4796 H4783 0.960 . S
C4796 C4795 1.524 . S
C4797 C4794 1.403 . S
C4797 C4798 1.392 . S
C4797 C4801 1.495 . S
C4798 C4797 1.392 . S
C4798 C4799 1.385 . S
C4798 C4800 1.478 . S
C4799 H4793 0.930 . S
C4799 C4795 1.400 . S
C4799 C4798 1.385 . S
C4800 C4798 1.478 . S
C4800 C4802 1.381 1_655 S
C4800 C4806 1.383 . S
C4801 C4797 1.495 . S
C4801 H4807 0.959 . S
C4801 H4808 0.961 . S
C4801 H4809 0.960 . S
C4802 C4800 1.381 1_455 S
C4802 C4803 1.394 . S
C4802 H4810 0.930 . S
C4803 C4802 1.394 . S
C4803 C4804 1.383 . S
C4803 H4811 0.929 . S
C4804 C4803 1.383 . S
C4804 C4805 1.377 1_455 S
C4805 H4789 0.930 . S
C4805 C4804 1.377 1_655 S
C4805 C4806 1.379 . S
C4806 H4790 0.931 . S
C4806 C4800 1.383 . S
C4806 C4805 1.379 . S
H4807 C4801 0.959 . S
H4808 C4801 0.961 . S
H4809 C4801 0.960 . S
H4810 C4802 0.930 . S
H4811 C4803 0.929 . S
H4812 C4820 0.929 . S
H4813 C4822 0.930 . S
H4814 C4824 0.930 . S
H4815 C4827 0.929 . S
H4816 C4830 0.930 . S
H4817 C4832 0.960 . S
H4818 C4832 0.960 . S
H4819 C4832 0.960 . S
C4820 H4812 0.929 . S
C4820 C4821 1.377 . S
C4820 C4822 1.384 . S
C4821 C4820 1.377 . S
C4821 C4827 1.390 . S
C4822 H4813 0.930 . S
C4822 C4820 1.384 . S
C4822 C4823 1.372 . S
C4823 C4822 1.372 . S
C4823 C4824 1.400 . S
C4823 C4828 1.490 . S
C4824 H4814 0.930 . S
C4824 C4823 1.400 . S
C4824 C4827 1.386 . S
H4825 C4841 0.930 . S
H4826 C4842 0.931 . S
C4827 H4815 0.929 . S
C4827 C4821 1.390 . S
C4827 C4824 1.386 . S
C4828 C4823 1.490 . S
C4828 C4830 1.395 . S
C4828 C4831 1.403 . S
H4829 C4835 0.930 . S
C4830 H4816 0.930 . S
C4830 C4828 1.395 . S
C4830 C4833 1.403 . S
C4831 C4828 1.403 . S
C4831 C4832 1.524 . S
C4831 C4835 1.400 . S
C4832 H4817 0.960 . S
C4832 H4818 0.960 . S
C4832 H4819 0.960 . S
C4832 C4831 1.524 . S
C4833 C4830 1.403 . S
C4833 C4834 1.392 . S
C4833 C4837 1.495 . S
C4834 C4833 1.392 . S
C4834 C4835 1.385 . S
C4834 C4836 1.478 . S
C4835 H4829 0.930 . S
C4835 C4831 1.400 . S
C4835 C4834 1.385 . S
C4836 C4834 1.478 . S
C4836 C4838 1.381 . S
C4836 C4842 1.383 . S
C4837 C4833 1.495 . S
C4837 H4843 0.959 . S
C4837 H4844 0.961 . S
C4837 H4845 0.960 . S
C4838 C4836 1.381 . S
C4838 C4839 1.394 . S
C4838 H4846 0.930 . S
C4839 C4838 1.394 . S
C4839 C4840 1.383 . S
C4839 H4847 0.929 . S
C4840 C4839 1.383 . S
C4840 C4841 1.377 . S
C4841 H4825 0.930 . S
C4841 C4840 1.377 . S
C4841 C4842 1.379 . S
C4842 H4826 0.931 . S
C4842 C4836 1.383 . S
C4842 C4841 1.379 . S
H4843 C4837 0.959 . S
H4844 C4837 0.961 . S
H4845 C4837 0.960 . S
H4846 C4838 0.930 . S
H4847 C4839 0.929 . S
H4848 C4856 0.929 . S
H4849 C4858 0.930 . S
H4850 C4860 0.930 . S
H4851 C4863 0.929 . S
H4852 C4866 0.930 . S
H4853 C4868 0.960 . S
H4854 C4868 0.960 . S
H4855 C4868 0.960 . S
C4856 H4848 0.929 . S
C4856 C4857 1.377 . S
C4856 C4858 1.384 . S
C4857 C4856 1.377 . S
C4857 C4863 1.390 . S
C4858 H4849 0.930 . S
C4858 C4856 1.384 . S
C4858 C4859 1.372 . S
C4859 C4858 1.372 . S
C4859 C4860 1.400 . S
C4859 C4864 1.490 . S
C4860 H4850 0.930 . S
C4860 C4859 1.400 . S
C4860 C4863 1.386 . S
H4861 C4877 0.930 . S
H4862 C4878 0.931 . S
C4863 H4851 0.929 . S
C4863 C4857 1.390 . S
C4863 C4860 1.386 . S
C4864 C4859 1.490 . S
C4864 C4866 1.395 . S
C4864 C4867 1.403 . S
H4865 C4871 0.930 . S
C4866 H4852 0.930 . S
C4866 C4864 1.395 . S
C4866 C4869 1.403 . S
C4867 C4864 1.403 . S
C4867 C4868 1.524 . S
C4867 C4871 1.400 . S
C4868 H4853 0.960 . S
C4868 H4854 0.960 . S
C4868 H4855 0.960 . S
C4868 C4867 1.524 . S
C4869 C4866 1.403 . S
C4869 C4870 1.392 . S
C4869 C4873 1.495 . S
C4870 C4869 1.392 . S
C4870 C4871 1.385 . S
C4870 C4872 1.478 . S
C4871 H4865 0.930 . S
C4871 C4867 1.400 . S
C4871 C4870 1.385 . S
C4872 C4870 1.478 . S
C4872 C4874 1.381 . S
C4872 C4878 1.383 . S
C4873 C4869 1.495 . S
C4873 H4879 0.959 . S
C4873 H4880 0.961 . S
C4873 H4881 0.960 . S
C4874 C4872 1.381 . S
C4874 C4875 1.394 . S
C4874 H4882 0.930 . S
C4875 C4874 1.394 . S
C4875 C4876 1.383 . S
C4875 H4883 0.929 . S
C4876 C4875 1.383 . S
C4876 C4877 1.377 . S
C4877 H4861 0.930 . S
C4877 C4876 1.377 . S
C4877 C4878 1.379 . S
C4878 H4862 0.931 . S
C4878 C4872 1.383 . S
C4878 C4877 1.379 . S
H4879 C4873 0.959 . S
H4880 C4873 0.961 . S
H4881 C4873 0.960 . S
H4882 C4874 0.930 . S
H4883 C4875 0.929 . S
H4884 C4892 0.929 . S
H4885 C4894 0.930 . S
H4886 C4896 0.930 . S
H4887 C4899 0.929 . S
H4888 C4902 0.930 . S
H4889 C4904 0.960 . S
H4890 C4904 0.960 . S
H4891 C4904 0.960 . S
C4892 H4884 0.929 . S
C4892 C4893 1.377 . S
C4892 C4894 1.384 . S
C4893 C4892 1.377 . S
C4893 C4899 1.390 . S
C4894 H4885 0.930 . S
C4894 C4892 1.384 . S
C4894 C4895 1.372 . S
C4895 C4894 1.372 . S
C4895 C4896 1.400 . S
C4895 C4900 1.490 . S
C4896 H4886 0.930 . S
C4896 C4895 1.400 . S
C4896 C4899 1.386 . S
H4897 C4913 0.930 . S
H4898 C4914 0.943 . S
C4899 H4887 0.929 . S
C4899 C4893 1.390 . S
C4899 C4896 1.386 . S
C4900 C4895 1.490 . S
C4900 C4902 1.395 . S
C4900 C4903 1.403 . S
H4901 C4907 0.930 . S
C4902 H4888 0.930 . S
C4902 C4900 1.395 . S
C4902 C4905 1.403 . S
C4903 C4900 1.403 . S
C4903 C4904 1.524 . S
C4903 C4907 1.400 . S
C4904 H4889 0.960 . S
C4904 H4890 0.960 . S
C4904 H4891 0.960 . S
C4904 C4903 1.524 . S
C4905 C4902 1.403 . S
C4905 C4906 1.392 . S
C4905 C4909 1.495 . S
C4906 C4905 1.392 . S
C4906 C4907 1.385 . S
C4906 C4908 1.478 . S
C4907 H4901 0.930 . S
C4907 C4903 1.400 . S
C4907 C4906 1.385 . S
C4908 C4906 1.478 . S
C4908 C4910 1.381 . S
C4908 C4914 1.383 . S
C4909 C4905 1.495 . S
C4909 H4915 0.959 . S
C4909 H4916 0.961 . S
C4909 H4917 0.960 . S
C4910 C4908 1.381 . S
C4910 C4911 1.394 . S
C4910 H4918 0.930 . S
C4911 C4910 1.394 . S
C4911 C4912 1.383 1_565 S
C4911 H4919 0.929 . S
C4912 C4911 1.383 1_545 S
C4912 C4913 1.377 . S
C4913 H4897 0.930 . S
C4913 C4912 1.377 . S
C4913 C4914 1.379 1_545 S
C4914 H4898 0.943 . S
C4914 C4908 1.383 . S
C4914 C4913 1.379 1_565 S
H4915 C4909 0.959 . S
H4916 C4909 0.961 . S
H4917 C4909 0.960 . S
H4918 C4910 0.930 . S
H4919 C4911 0.929 . S
H4920 C4928 0.929 . S
H4921 C4930 0.930 . S
H4922 C4932 0.930 . S
H4923 C4935 0.929 . S
H4924 C4938 0.930 . S
H4925 C4940 0.960 . S
H4926 C4940 0.960 . S
H4927 C4940 0.960 . S
C4928 H4920 0.929 . S
C4928 C4929 1.377 . S
C4928 C4930 1.384 . S
C4929 C4928 1.377 . S
C4929 C4935 1.390 . S
C4930 H4921 0.930 . S
C4930 C4928 1.384 . S
C4930 C4931 1.372 . S
C4931 C4930 1.372 . S
C4931 C4932 1.400 . S
C4931 C4936 1.490 . S
C4932 H4922 0.930 . S
C4932 C4931 1.400 . S
C4932 C4935 1.386 . S
H4933 C4949 0.930 . S
H4934 C4950 0.931 . S
C4935 H4923 0.929 . S
C4935 C4929 1.390 . S
C4935 C4932 1.386 . S
C4936 C4931 1.490 . S
C4936 C4938 1.395 . S
C4936 C4939 1.403 . S
H4937 C4943 0.930 . S
C4938 H4924 0.930 . S
C4938 C4936 1.395 . S
C4938 C4941 1.403 . S
C4939 C4936 1.403 . S
C4939 C4940 1.524 . S
C4939 C4943 1.400 . S
C4940 H4925 0.960 . S
C4940 H4926 0.960 . S
C4940 H4927 0.960 . S
C4940 C4939 1.524 . S
C4941 C4938 1.403 . S
C4941 C4942 1.392 . S
C4941 C4945 1.495 . S
C4942 C4941 1.392 . S
C4942 C4943 1.385 . S
C4942 C4944 1.478 . S
C4943 H4937 0.930 . S
C4943 C4939 1.400 . S
C4943 C4942 1.385 . S
C4944 C4942 1.478 . S
C4944 C4946 1.381 . S
C4944 C4950 1.383 . S
C4945 C4941 1.495 . S
C4945 H4951 0.959 . S
C4945 H4952 0.961 . S
C4945 H4953 0.960 . S
C4946 C4944 1.381 . S
C4946 C4947 1.394 . S
C4946 H4954 0.930 . S
C4947 C4946 1.394 . S
C4947 C4948 1.383 . S
C4947 H4955 0.929 . S
C4948 C4947 1.383 . S
C4948 C4949 1.377 . S
C4949 H4933 0.930 . S
C4949 C4948 1.377 . S
C4949 C4950 1.379 . S
C4950 H4934 0.931 . S
C4950 C4944 1.383 . S
C4950 C4949 1.379 . S
H4951 C4945 0.959 . S
H4952 C4945 0.961 . S
H4953 C4945 0.960 . S
H4954 C4946 0.930 . S
H4955 C4947 0.929 . S
H4956 C4964 0.929 1_556 S
H4957 C4966 0.930 1_556 S
H4958 C4968 0.930 . S
H4959 C4971 0.929 . S
H4960 C4974 0.930 . S
H4961 C4976 0.960 . S
H4962 C4976 0.995 . S
H4963 C4976 0.960 . S
C4964 H4956 0.929 1_554 S
C4964 C4965 1.377 . S
C4964 C4966 1.384 . S
C4965 C4964 1.377 . S
C4965 C4971 1.390 . S
C4966 H4957 0.930 1_554 S
C4966 C4964 1.384 . S
C4966 C4967 1.372 . S
C4967 C4966 1.372 . S
C4967 C4968 1.400 . S
C4967 C4972 1.490 . S
C4968 H4958 0.930 . S
C4968 C4967 1.400 . S
C4968 C4971 1.386 . S
H4969 C4985 0.930 . S
H4970 C4986 0.931 . S
C4971 H4959 0.929 . S
C4971 C4965 1.390 . S
C4971 C4968 1.386 . S
C4972 C4967 1.490 . S
C4972 C4974 1.395 . S
C4972 C4975 1.403 . S
H4973 C4979 0.930 . S
C4974 H4960 0.930 . S
C4974 C4972 1.395 . S
C4974 C4977 1.403 . S
C4975 C4972 1.403 . S
C4975 C4976 1.524 . S
C4975 C4979 1.400 . S
C4976 H4961 0.960 . S
C4976 H4962 0.995 . S
C4976 H4963 0.960 . S
C4976 C4975 1.524 . S
C4977 C4974 1.403 . S
C4977 C4978 1.392 . S
C4977 C4981 1.495 . S
C4978 C4977 1.392 . S
C4978 C4979 1.385 . S
C4978 C4980 1.478 . S
C4979 H4973 0.930 . S
C4979 C4975 1.400 . S
C4979 C4978 1.385 . S
C4980 C4978 1.478 . S
C4980 C4982 1.381 . S
C4980 C4986 1.383 . S
C4981 C4977 1.495 . S
C4981 H4987 0.959 . S
C4981 H4988 0.961 . S
C4981 H4989 0.960 . S
C4982 C4980 1.381 . S
C4982 C4983 1.394 . S
C4982 H4990 0.930 1_554 S
C4983 C4982 1.394 . S
C4983 C4984 1.383 . S
C4983 H4991 0.929 1_554 S
C4984 C4983 1.383 . S
C4984 C4985 1.377 . S
C4985 H4969 0.930 . S
C4985 C4984 1.377 . S
C4985 C4986 1.379 . S
C4986 H4970 0.931 . S
C4986 C4980 1.383 . S
C4986 C4985 1.379 . S
H4987 C4981 0.959 . S
H4988 C4981 0.961 . S
H4989 C4981 0.960 . S
H4990 C4982 0.930 1_556 S
H4991 C4983 0.929 1_556 S
H4992 C5000 0.929 . S
H4993 C5002 0.930 . S
H4994 C5004 0.930 . S
H4995 C5007 0.929 . S
H4996 C5010 0.930 . S
H4997 C5012 0.960 . S
H4998 C5012 0.960 . S
H4999 C5012 0.960 . S
C5000 H4992 0.929 . S
C5000 C5001 1.377 . S
C5000 C5002 1.384 . S
C5001 C5000 1.377 . S
C5001 C5007 1.390 . S
C5002 H4993 0.930 . S
C5002 C5000 1.384 . S
C5002 C5003 1.372 . S
C5003 C5002 1.372 . S
C5003 C5004 1.400 . S
C5003 C5008 1.490 . S
C5004 H4994 0.930 . S
C5004 C5003 1.400 . S
C5004 C5007 1.386 . S
H5005 C5021 0.930 . S
H5006 C5022 0.931 . S
C5007 H4995 0.929 . S
C5007 C5001 1.390 . S
C5007 C5004 1.386 . S
C5008 C5003 1.490 . S
C5008 C5010 1.395 . S
C5008 C5011 1.403 . S
H5009 C5015 0.930 . S
C5010 H4996 0.930 . S
C5010 C5008 1.395 . S
C5010 C5013 1.403 . S
C5011 C5008 1.403 . S
C5011 C5012 1.524 . S
C5011 C5015 1.400 . S
C5012 H4997 0.960 . S
C5012 H4998 0.960 . S
C5012 H4999 0.960 . S
C5012 C5011 1.524 . S
C5013 C5010 1.403 . S
C5013 C5014 1.392 . S
C5013 C5017 1.495 . S
C5014 C5013 1.392 . S
C5014 C5015 1.385 . S
C5014 C5016 1.478 . S
C5015 H5009 0.930 . S
C5015 C5011 1.400 . S
C5015 C5014 1.385 . S
C5016 C5014 1.478 . S
C5016 C5018 1.381 . S
C5016 C5022 1.383 . S
C5017 C5013 1.495 . S
C5017 H5023 0.959 . S
C5017 H5024 0.961 . S
C5017 H5025 0.960 . S
C5018 C5016 1.381 . S
C5018 C5019 1.394 . S
C5018 H5026 0.930 . S
C5019 C5018 1.394 . S
C5019 C5020 1.383 . S
C5019 H5027 0.929 . S
C5020 C5019 1.383 . S
C5020 C5021 1.377 . S
C5021 H5005 0.930 . S
C5021 C5020 1.377 . S
C5021 C5022 1.379 . S
C5022 H5006 0.931 . S
C5022 C5016 1.383 . S
C5022 C5021 1.379 . S
H5023 C5017 0.959 . S
H5024 C5017 0.961 . S
H5025 C5017 0.960 . S
H5026 C5018 0.930 . S
H5027 C5019 0.929 . S
H5028 C5036 0.929 . S
H5029 C5038 0.930 . S
H5030 C5040 0.930 . S
H5031 C5043 0.929 . S
H5032 C5046 0.930 . S
H5033 C5048 0.960 . S
H5034 C5048 0.960 . S
H5035 C5048 0.960 . S
C5036 H5028 0.929 . S
C5036 C5037 1.377 . S
C5036 C5038 1.384 . S
C5037 C5036 1.377 . S
C5037 C5043 1.390 . S
C5038 H5029 0.930 . S
C5038 C5036 1.384 . S
C5038 C5039 1.372 . S
C5039 C5038 1.372 . S
C5039 C5040 1.400 . S
C5039 C5044 1.490 . S
C5040 H5030 0.930 . S
C5040 C5039 1.400 . S
C5040 C5043 1.386 . S
H5041 C5057 0.930 . S
H5042 C5058 0.931 . S
C5043 H5031 0.929 . S
C5043 C5037 1.390 . S
C5043 C5040 1.386 . S
C5044 C5039 1.490 . S
C5044 C5046 1.395 . S
C5044 C5047 1.403 . S
H5045 C5051 0.930 . S
C5046 H5032 0.930 . S
C5046 C5044 1.395 . S
C5046 C5049 1.403 . S
C5047 C5044 1.403 . S
C5047 C5048 1.524 . S
C5047 C5051 1.400 . S
C5048 H5033 0.960 . S
C5048 H5034 0.960 . S
C5048 H5035 0.960 . S
C5048 C5047 1.524 . S
C5049 C5046 1.403 . S
C5049 C5050 1.392 . S
C5049 C5053 1.495 . S
C5050 C5049 1.392 . S
C5050 C5051 1.385 . S
C5050 C5052 1.478 . S
C5051 H5045 0.930 . S
C5051 C5047 1.400 . S
C5051 C5050 1.385 . S
C5052 C5050 1.478 . S
C5052 C5054 1.345 1_554 S
C5052 C5058 1.383 . S
C5053 C5049 1.495 . S
C5053 H5059 0.959 . S
C5053 H5060 0.961 . S
C5053 H5061 0.960 1_554 S
C5054 C5052 1.345 1_556 S
C5054 C5055 1.403 . S
C5054 H5062 0.959 . S
C5055 C5054 1.403 . S
C5055 C5056 1.383 1_556 S
C5055 H5063 0.929 . S
C5056 C5055 1.383 1_554 S
C5056 C5057 1.377 . S
C5057 H5041 0.930 . S
C5057 C5056 1.377 . S
C5057 C5058 1.379 . S
C5058 H5042 0.931 . S
C5058 C5052 1.383 . S
C5058 C5057 1.379 . S
H5059 C5053 0.959 . S
H5060 C5053 0.961 . S
H5061 C5053 0.960 1_556 S
H5062 C5054 0.959 . S
H5063 C5055 0.929 . S
H5064 C5072 0.929 1_545 S
H5065 C5074 0.930 . S
H5066 C5076 0.930 . S
H5067 C5079 0.929 . S
H5068 C5082 0.930 . S
H5069 C5084 0.960 . S
H5070 C5084 0.960 . S
H5071 C5084 0.960 . S
C5072 H5064 0.929 1_565 S
C5072 C5073 1.377 . S
C5072 C5074 1.384 . S
C5073 C5072 1.377 . S
C5073 C5079 1.390 . S
C5074 H5065 0.930 . S
C5074 C5072 1.384 . S
C5074 C5075 1.372 . S
C5075 C5074 1.372 . S
C5075 C5076 1.400 . S
C5075 C5080 1.490 . S
C5076 H5066 0.930 . S
C5076 C5075 1.400 . S
C5076 C5079 1.386 . S
H5077 C5093 0.930 . S
H5078 C5094 0.931 . S
C5079 H5067 0.929 . S
C5079 C5073 1.390 . S
C5079 C5076 1.386 . S
C5080 C5075 1.490 . S
C5080 C5082 1.395 . S
C5080 C5083 1.403 . S
H5081 C5087 0.930 . S
C5082 H5068 0.930 . S
C5082 C5080 1.395 . S
C5082 C5085 1.403 . S
C5083 C5080 1.403 . S
C5083 C5084 1.524 . S
C5083 C5087 1.400 . S
C5084 H5069 0.960 . S
C5084 H5070 0.960 . S
C5084 H5071 0.960 . S
C5084 C5083 1.524 . S
C5085 C5082 1.403 . S
C5085 C5086 1.392 . S
C5085 C5089 1.495 . S
C5086 C5085 1.392 . S
C5086 C5087 1.385 . S
C5086 C5088 1.478 . S
C5087 H5081 0.930 . S
C5087 C5083 1.400 . S
C5087 C5086 1.385 . S
C5088 C5086 1.478 . S
C5088 C5090 1.381 . S
C5088 C5094 1.383 . S
C5089 C5085 1.495 . S
C5089 H5095 0.959 . S
C5089 H5096 0.961 . S
C5089 H5097 0.960 . S
C5090 C5088 1.381 . S
C5090 C5091 1.394 . S
C5090 H5098 0.930 . S
C5091 C5090 1.394 . S
C5091 C5092 1.383 . S
C5091 H5099 0.929 . S
C5092 C5091 1.383 . S
C5092 C5093 1.377 . S
C5093 H5077 0.930 . S
C5093 C5092 1.377 . S
C5093 C5094 1.379 . S
C5094 H5078 0.931 . S
C5094 C5088 1.383 . S
C5094 C5093 1.379 . S
H5095 C5089 0.959 . S
H5096 C5089 0.961 . S
H5097 C5089 0.960 . S
H5098 C5090 0.930 . S
H5099 C5091 0.929 . S
H5100 C5108 0.929 . S
H5101 C5110 0.930 . S
H5102 C5112 0.930 . S
H5103 C5115 0.929 . S
H5104 C5118 0.930 . S
H5105 C5120 0.960 . S
H5106 C5120 0.960 . S
H5107 C5120 0.960 . S
C5108 H5100 0.929 . S
C5108 C5109 1.377 . S
C5108 C5110 1.384 . S
C5109 C5108 1.377 . S
C5109 C5115 1.390 . S
C5110 H5101 0.930 . S
C5110 C5108 1.384 . S
C5110 C5111 1.372 . S
C5111 C5110 1.372 . S
C5111 C5112 1.400 . S
C5111 C5116 1.490 . S
C5112 H5102 0.930 . S
C5112 C5111 1.400 . S
C5112 C5115 1.386 . S
H5113 C5129 0.930 . S
H5114 C5130 0.931 . S
C5115 H5103 0.929 . S
C5115 C5109 1.390 . S
C5115 C5112 1.386 . S
C5116 C5111 1.490 . S
C5116 C5118 1.395 . S
C5116 C5119 1.403 . S
H5117 C5123 0.930 . S
C5118 H5104 0.930 . S
C5118 C5116 1.395 . S
C5118 C5121 1.403 . S
C5119 C5116 1.403 . S
C5119 C5120 1.524 . S
C5119 C5123 1.400 . S
C5120 H5105 0.960 . S
C5120 H5106 0.960 . S
C5120 H5107 0.960 . S
C5120 C5119 1.524 . S
C5121 C5118 1.403 . S
C5121 C5122 1.392 . S
C5121 C5125 1.495 . S
C5122 C5121 1.392 . S
C5122 C5123 1.385 . S
C5122 C5124 1.478 . S
C5123 H5117 0.930 . S
C5123 C5119 1.400 . S
C5123 C5122 1.385 . S
C5124 C5122 1.478 . S
C5124 C5126 1.381 . S
C5124 C5130 1.383 . S
C5125 C5121 1.495 . S
C5125 H5131 0.959 . S
C5125 H5132 0.961 . S
C5125 H5133 0.960 . S
C5126 C5124 1.381 . S
C5126 C5127 1.394 . S
C5126 H5134 0.930 . S
C5127 C5126 1.394 . S
C5127 C5128 1.383 . S
C5127 H5135 0.929 . S
C5128 C5127 1.383 . S
C5128 C5129 1.377 . S
C5129 H5113 0.930 . S
C5129 C5128 1.377 . S
C5129 C5130 1.379 . S
C5130 H5114 0.931 . S
C5130 C5124 1.383 . S
C5130 C5129 1.379 . S
H5131 C5125 0.959 . S
H5132 C5125 0.961 . S
H5133 C5125 0.960 . S
H5134 C5126 0.930 . S
H5135 C5127 0.929 . S
C1689 C109 1.583 . S
C1708 C392 1.426 . S
C1725 C65 2.218 . S
C1744 C483 2.148 . S
C1761 C75 1.452 . S
C1780 C560 1.326 . S
C1816 C658 1.627 . S
C1797 C84 1.724 . S
C1833 C25 1.575 . S
C1852 C742 1.486 . S
C1888 C814 0.927 . S
C1869 C28 0.908 . S
C1924 C903 0.653 . S
C1905 C47 0.687 . S
C1941 C9 1.286 . S
C1960 C980 1.130 . S
C1996 C399 1.988 . S
C1977 C233 2.118 . S
C2013 C249 0.544 . S
C2032 C490 0.513 . S
C2068 C567 1.208 . S
C2049 C275 1.265 . S
C2104 C644 1.449 . S
C2085 C173 1.534 1_556 S
C2121 C224 2.068 . S
C2140 C728 1.914 . S
C2176 C830 1.101 . S
C2157 C243 1.143 . S
C2212 C910 0.774 . S
C2193 C266 0.716 . S
C2248 C987 1.272 . S
C2229 C179 1.382 . S
C2284 C406 1.456 . S
C2265 C163 1.575 . S
C2301 C289 2.015 . S
C2320 C1071 1.936 . S
C2356 C1159 2.132 . S
C2337 C333 2.272 . S
C2392 C1232 0.568 . S
C2373 C308 0.273 . S
C2409 C123 0.707 . S
C2428 C994 0.762 . S
C2445 C126 1.460 . S
C2464 C574 1.402 . S
C2481 C327 2.378 . S
C2500 C1323 2.269 . S
C2536 C1400 0.727 . S
C2517 C299 0.752 . S
C2572 C403 1.446 1_565 S
C2553 C67 1.609 . S
C2608 C1418 2.164 . S
C2589 C98 2.196 . S
C2625 C89 1.490 . S
C2644 C571 1.367 . S
C2661 C79 1.796 . S
C2680 C1318 1.658 . S
C2716 C730 1.533 . S
C2697 C11 1.592 . S
C2733 C51 0.949 . S
C2752 C1162 0.957 . S
C2788 C914 0.736 1_566 S
C2769 C33 0.770 . S
C2824 C1495 1.149 . S
C2805 C14 1.293 . S
C2860 C410 1.985 . S
C2841 C140 2.110 . S
C2896 C1402 0.551 . S
C2877 C319 0.544 . S
C2913 C112 1.262 . S
C2932 C578 1.195 . S
C2949 C285 1.611 . S
C2968 C1327 1.528 . S
C2985 C149 2.133 . S
C3004 C739 1.945 . S
C3040 C1155 1.081 . S
C3021 C313 1.185 . S
C3057 C121 0.787 . S
C3076 C898 0.708 . S
C3093 C291 1.434 . S
C3112 C1502 1.311 . S
C3129 C182 1.575 . S
C3148 C394 1.448 . S
C3165 C168 2.014 . S
C3184 C1082 1.959 . S
C3201 C263 2.327 . S
C3220 C812 2.152 . S
C3237 C247 0.332 . S
C3256 C1243 0.507 . S
C3292 C1486 0.701 . S
C3273 C277 0.694 1_565 S
C3309 C219 1.518 . S
C3328 C562 1.406 . S
C3364 C662 2.310 . S
C3345 C257 2.425 . S
C3400 C487 0.826 . S
C3381 C201 0.764 . S
C3417 C81 1.579 . S
C3436 C1568 1.430 . S
C3472 C1407 2.139 . S
C3453 C93 2.216 . S
C3489 C103 1.450 . S
C3508 C1652 1.383 . S
C3525 C56 1.726 . S
C3544 C1330 1.590 . S
C3561 C53 1.570 . S
C3580 C1078 1.530 . S
C3616 C1150 0.926 . S
C3597 C0 0.909 . S
C3652 C1239 0.648 . S
C3633 C19 0.696 . S
C3688 C1484 1.150 . S
C3669 C37 1.284 . S
C3724 C1575 2.032 . S
C3705 C261 2.118 . S
C3741 C193 0.543 . S
C3760 C1414 0.522 . S
C3796 C1659 1.246 . S
C3777 C205 1.266 . S
C3832 C1316 1.503 . S
C3813 C215 1.579 . S
C3868 C1064 1.918 . S
C3849 C252 2.069 . S
C3885 C187 1.141 . S
C3904 C1166 1.014 . S
C3940 C1246 0.727 . S
C3921 C196 0.718 . S
C3957 C221 1.381 . S
C3976 C1491 1.262 . S
C4012 C1582 1.491 . S
C3993 C317 1.576 . S
C4029 C135 2.015 . S
C4048 C735 1.916 . S
C4084 C823 2.117 . S
C4065 C151 2.279 . S
C4120 C896 0.451 . S
C4101 C154 0.291 . S
C4156 C1498 0.663 . S
C4137 C305 0.718 . S
C4173 C280 1.461 . S
C4192 C1666 1.393 . S
C4228 C651 2.271 . S
C4209 C145 2.371 . S
C4264 C476 0.715 . S
C4245 C117 0.751 . S
C4281 C95 1.612 . S
C4300 C1579 1.518 . S
C4336 C494 2.179 . S
C4317 C70 2.193 . S
C4353 C61 1.487 . S
C4372 C1663 1.407 . S
C4389 C107 1.795 . S
C4408 C646 1.607 . S
C4425 C39 1.597 . S
C4444 C1066 1.521 . S
C4480 C826 0.956 . S
C4461 C23 0.948 . S
C4497 C5 0.769 . S
C4516 C1250 0.753 . S
C4533 C42 1.296 . S
C4552 C991 1.221 . S
C4588 C1586 2.014 . S
C4569 C322 2.108 . S
C4605 C165 0.556 . S
C4624 C478 0.607 . S
C4660 C1670 1.193 . S
C4641 C294 1.262 . S
C4677 C131 1.611 . S
C4696 C655 1.514 . S
C4713 C331 2.136 . S
C4732 C1075 2.000 . S
C4768 C819 1.068 . S
C4749 C159 1.184 . S
C4785 C303 0.789 . S
C4804 C1234 0.717 . S
C4840 C998 1.330 . S
C4821 C137 1.433 . S
C4876 C1570 1.424 . S
C4857 C238 1.574 . S
C4912 C746 1.932 1_655 S
C4893 C210 2.015 . S
C4929 C235 2.327 . S
C4948 C1148 2.149 . S
C4984 C907 0.582 . S
C4965 C191 0.323 . S
C5001 C207 0.679 . S
C5020 C982 0.714 . S
C5037 C177 1.516 . S
C5056 C1654 1.437 . S
C5092 C1334 2.340 . S
C5073 C229 2.425 1_565 S
C5128 C1411 0.706 . S
C5109 C271 0.763 . S
