# Generated by pormake.
# Topology scu, (8,4)-cn, num edge types: 1
# Building blocks:
#     Node 0, Type 0, BuildingBlock: TAGTUT_clean_sbu_3, # of connection points: 8
#     Node 1, Type 1, BuildingBlock: KOZSID_clean_sbu_0, # of connection points: 4
#     Node 2, Type 1, BuildingBlock: KOZSID_clean_sbu_0, # of connection points: 4
#     Edge 3, Type (0, 1), BuildingBlock: XIVTED_clean_linker_0, # of connection points: 2
#     Edge 4, Type (0, 1), BuildingBlock: XIVTED_clean_linker_0, # of connection points: 2
#     Edge 5, Type (0, 1), BuildingBlock: XIVTED_clean_linker_0, # of connection points: 2
#     Edge 6, Type (0, 1), BuildingBlock: XIVTED_clean_linker_0, # of connection points: 2
#     Edge 7, Type (0, 1), BuildingBlock: XIVTED_clean_linker_0, # of connection points: 2
#     Edge 8, Type (0, 1), BuildingBlock: XIVTED_clean_linker_0, # of connection points: 2
#     Edge 9, Type (0, 1), BuildingBlock: XIVTED_clean_linker_0, # of connection points: 2
#     Edge 10, Type (0, 1), BuildingBlock: XIVTED_clean_linker_0, # of connection points: 2
# Relax obj value: 0.023
# Max RMSD: 0.101
# Mean RMSD: 0.062
data_MOF--net-scu--node1-TAGTUT_clean_sbu_3--node2-KOZSID_clean_sbu_0--edge1-XIVTED_clean_linker_0
_symmetry_space_group_name_H-M    P1
_symmetry_Int_Tables_number       1
_symmetry_cell_setting            triclinic
loop_
_symmetry_equiv_pos_as_xyz
'x, y, z'
_cell_length_a     30.896562
_cell_length_b     26.042738
_cell_length_c     21.42581
_cell_angle_alpha  84.870873
_cell_angle_beta   87.047014
_cell_angle_gamma 89.895059
loop_
_atom_site_label
_atom_site_type_symbol
_atom_site_fract_x
_atom_site_fract_y
_atom_site_fract_z
_atom_type_partial_charge
C0 C 0.00575 0.88634 0.0802 0.0
C1 C 0.84506 0.95987 0.09346 0.0
C2 C 0.87654 0.01917 0.90289 0.0
Mg3 Mg 0.09009 0.93936 0.00405 0.0
Mg4 Mg 0.09512 0.06535 0.98168 0.0
O5 O 0.06537 0.00538 0.96551 0.0
Mg6 Mg 0.00455 -0.00165 0.00178 0.0
O7 O 0.94426 0.98747 0.03795 0.0
Mg8 Mg 0.92651 0.92637 0.99395 0.0
Mg9 Mg 0.90731 0.04472 0.02922 0.0
C10 C 0.00811 0.11311 0.92771 0.0
O11 O 0.01382 0.05761 0.07277 0.0
O12 O 0.15195 0.96178 0.93914 0.0
O13 O 0.95024 0.10019 0.06494 0.0
O14 O 0.12112 0.97559 0.08474 0.0
O15 O 0.1526 0.04883 0.92656 0.0
O16 O 0.11392 0.06088 0.0776 0.0
O17 O 0.99054 0.94026 0.9325 0.0
O18 O 0.05603 0.90378 0.92603 0.0
C19 C 0.01677 0.90796 0.90955 0.0
C20 C 0.16915 0.00498 0.91628 0.0
O21 O 0.98798 0.06969 0.93684 0.0
O22 O 0.86412 0.92482 0.06306 0.0
O23 O 0.04648 0.12001 0.94628 0.0
O24 O 0.88876 0.97354 0.91997 0.0
O25 O 0.85704 0.00721 0.08805 0.0
O26 O 0.88358 0.05649 0.93572 0.0
O27 O 0.02572 0.92877 0.06392 0.0
O28 O 0.96715 0.87859 0.06384 0.0
C29 C 0.1261 0.01895 0.10685 0.0
C30 C 0.98927 0.09617 0.08297 0.0
C31 C 0.07289 0.57041 0.42466 0.0
C32 C 0.11665 0.5829 0.41846 0.0
C33 C 0.13661 0.55174 0.46269 0.0
C34 C 0.10407 0.52204 0.49301 0.0
N35 N 0.06439 0.53238 0.47105 0.0
Co36 Co 0.00813 0.49744 0.50068 0.0
N37 N 0.03732 0.45349 0.5677 0.0
C38 C 0.07986 0.45369 0.58007 0.0
C39 C 0.09036 0.41912 0.62883 0.0
C40 C 0.05224 0.39562 0.64929 0.0
C41 C 0.02044 0.41755 0.61181 0.0
N42 N 0.9521 0.46161 0.52926 0.0
C43 C 0.94346 0.42424 0.57642 0.0
C44 C 0.90008 0.40992 0.58045 0.0
C45 C 0.88054 0.43923 0.53409 0.0
C46 C 0.91292 0.46968 0.50464 0.0
N47 N 0.97874 0.54248 0.43483 0.0
C48 C 0.93598 0.54345 0.42381 0.0
C49 C 0.9251 0.58003 0.37737 0.0
C50 C 0.96313 0.60408 0.35757 0.0
C51 C 0.99523 0.58039 0.393 0.0
N52 N 0.01985 0.44502 0.44044 0.0
C53 C 0.03691 0.37426 0.3507 0.0
C54 C 0.99729 0.39989 0.3541 0.0
C55 C 0.98945 0.43455 0.39906 0.0
C56 C 0.06767 0.38379 0.39363 0.0
C57 C 0.0586 0.41929 0.43767 0.0
N58 N 0.99649 0.5502 0.56018 0.0
C59 C 0.94887 0.61362 0.60275 0.0
C60 C 0.98367 0.63561 0.62953 0.0
C61 C 0.02415 0.61207 0.62519 0.0
C62 C 0.02969 0.56934 0.59114 0.0
C63 C 0.95599 0.57102 0.56837 0.0
H64 H 0.06136 0.5533 0.58913 0.0
H65 H 0.92851 0.55658 0.54753 0.0
H66 H 0.95852 0.45238 0.39927 0.0
H67 H 0.08353 0.42533 0.46862 0.0
C68 C 0.10945 0.48571 0.54388 0.0
C69 C 0.0408 0.59541 0.38508 0.0
C70 C 0.97484 0.40256 0.61977 0.0
C71 C 0.90699 0.50853 0.45664 0.0
H72 H 0.13247 0.61164 0.3854 0.0
H73 H 0.17072 0.55107 0.47197 0.0
H74 H 0.12202 0.41161 0.647 0.0
H75 H 0.04846 0.36547 0.68734 0.0
H76 H 0.88405 0.3818 0.61409 0.0
H77 H 0.84657 0.4392 0.52398 0.0
H78 H 0.89332 0.58816 0.35991 0.0
H79 H 0.96675 0.63558 0.32116 0.0
H80 H 0.972 0.39266 0.32275 0.0
H81 H 0.09877 0.3645 0.39274 0.0
H82 H 0.91682 0.63044 0.60603 0.0
H83 H 0.05169 0.62721 0.64708 0.0
C84 C 0.44996 0.96261 0.61253 0.0
C85 C 0.4382 0.9184 0.65074 0.0
C86 C 0.45755 0.87805 0.62414 0.0
C87 C 0.48027 0.8999 0.57192 0.0
N88 N 0.4773 0.95186 0.56411 0.0
Co89 Co 0.50645 -0.00077 0.49601 0.0
N90 N 0.53081 0.9394 0.45294 0.0
C91 C 0.52435 0.8887 0.47064 0.0
C92 C 0.54525 0.85654 0.4319 0.0
C93 C 0.56679 0.88852 0.38699 0.0
C94 C 0.5577 0.93858 0.40109 0.0
N95 N 0.53657 0.04655 0.42839 0.0
C96 C 0.56442 0.03543 0.38044 0.0
C97 C 0.57985 0.07976 0.34576 0.0
C98 C 0.56163 0.12046 0.37332 0.0
C99 C 0.5362 0.09876 0.42305 0.0
N100 N 0.48098 0.05898 0.53851 0.0
C101 C 0.48646 0.10976 0.52 0.0
C102 C 0.46199 0.14145 0.55535 0.0
C103 C 0.43893 0.10908 0.59835 0.0
C104 C 0.45097 0.05923 0.58708 0.0
N105 N 0.55891 0.00107 0.54601 0.0
C106 C 0.63363 0.00614 0.61596 0.0
C107 C 0.61407 0.05073 0.58989 0.0
C108 C 0.57724 0.04736 0.55575 0.0
C109 C 0.61537 0.9586 0.60578 0.0
C110 C 0.57826 0.95697 0.57089 0.0
N111 N 0.45404 -0.00187 0.44621 0.0
C112 C 0.40113 0.04518 0.38485 0.0
C113 C 0.37741 0.00038 0.37953 0.0
C114 C 0.3928 0.95403 0.40866 0.0
C115 C 0.43093 0.9538 0.44173 0.0
C116 C 0.439 0.04308 0.41716 0.0
H117 H 0.44109 0.91754 0.46351 0.0
H118 H 0.45519 0.07874 0.41843 0.0
H119 H 0.5645 0.08301 0.53752 0.0
H120 H 0.56581 0.91968 0.56469 0.0
C121 C 0.5015 0.87247 0.52665 0.0
C122 C 0.43159 0.01317 0.62135 0.0
C123 C 0.57809 0.98376 0.36689 0.0
C124 C 0.51245 0.12625 0.46644 0.0
H125 H 0.41664 0.91547 0.69237 0.0
H126 H 0.45421 0.83749 0.63976 0.0
H127 H 0.54596 0.81482 0.43696 0.0
H128 H 0.5879 0.87623 0.34932 0.0
H129 H 0.60241 0.08229 0.30523 0.0
H130 H 0.56687 0.16104 0.35939 0.0
H131 H 0.45993 0.18308 0.5491 0.0
H132 H 0.41509 0.121 0.63284 0.0
H133 H 0.62737 0.0885 0.59503 0.0
H134 H 0.62919 0.92283 0.6253 0.0
H135 H 0.39039 0.08242 0.36487 0.0
H136 H 0.3759 0.91804 0.4056 0.0
H137 H 0.96966 0.19719 0.06126 0.0
H138 H 0.07131 0.2772 0.36802 0.0
H139 H 0.04923 0.09289 0.17343 0.0
H140 H 0.01999 0.38578 0.2268 0.0
H141 H 0.07107 0.2107 0.29401 0.0
H142 H 0.99377 0.26807 0.1175 0.0
C143 C 0.99233 0.18934 0.09785 0.0
C144 C 0.00683 0.13915 0.11381 0.0
C145 C 0.06065 0.24934 0.27889 0.0
C146 C 0.03453 0.22002 0.17871 0.0
C147 C 0.06091 0.28729 0.32099 0.0
C148 C 0.04471 0.33661 0.30378 0.0
C149 C 0.0438 0.261 0.21964 0.0
C150 C 0.03162 0.34778 0.2424 0.0
C151 C 0.00641 0.22987 0.12963 0.0
C152 C 0.03703 0.13113 0.16035 0.0
N153 N 0.03084 0.31005 0.20288 0.0
N154 N 0.04935 0.17114 0.19216 0.0
H155 H 0.84096 0.97356 0.2164 0.0
H156 H 0.58249 0.95435 0.24727 0.0
H157 H 0.76547 0.92129 0.07078 0.0
H158 H 0.66185 0.99573 0.39448 0.0
H159 H 0.64849 0.93763 0.18297 0.0
H160 H 0.77568 0.97418 0.28529 0.0
C161 C 0.8106 0.96083 0.19971 0.0
C162 C 0.8084 0.94685 0.13836 0.0
C163 C 0.65149 0.95031 0.22932 0.0
C164 C 0.73311 0.9495 0.21579 0.0
C165 C 0.61397 0.96018 0.26559 0.0
C166 C 0.61721 0.97674 0.32561 0.0
C167 C 0.69232 0.95724 0.25351 0.0
C168 C 0.65833 0.9834 0.34805 0.0
C169 C 0.77325 0.96166 0.23874 0.0
C170 C 0.76837 0.93153 0.11827 0.0
N171 N 0.69431 0.9737 0.31195 0.0
N172 N 0.73201 0.93394 0.1567 0.0
H173 H 0.06085 0.89238 0.17563 0.0
H174 H 0.04882 0.58743 0.25973 0.0
H175 H 0.9993 0.78455 0.06667 0.0
H176 H 0.06152 0.69533 0.39874 0.0
H177 H 0.05625 0.65875 0.17706 0.0
H178 H 0.0855 0.81941 0.24616 0.0
C179 C 0.05342 0.85334 0.16589 0.0
C180 C 0.02737 0.84412 0.11637 0.0
C181 C 0.05833 0.66673 0.22557 0.0
C182 C 0.05566 0.76143 0.19531 0.0
C183 C 0.05424 0.62616 0.27242 0.0
C184 C 0.05409 0.63619 0.33544 0.0
C185 C 0.06208 0.71744 0.24222 0.0
C186 C 0.06122 0.68665 0.35028 0.0
C187 C 0.06731 0.81193 0.20603 0.0
C188 C 0.01862 0.7931 0.10524 0.0
N189 N 0.06433 0.7258 0.30385 0.0
N190 N 0.03248 0.75366 0.14469 0.0
H191 H 0.14094 0.94082 0.19737 0.0
H192 H 0.36144 0.06313 0.27346 0.0
H193 H 0.17435 0.0994 0.13943 0.0
H194 H 0.30152 0.94377 0.40237 0.0
H195 H 0.29447 0.07226 0.21917 0.0
H196 H 0.19913 0.93745 0.27111 0.0
C197 C 0.15988 0.97527 0.20116 0.0
C198 C 0.15309 0.02035 0.16171 0.0
C199 C 0.29582 0.04437 0.25969 0.0
C200 C 0.22022 0.01616 0.24458 0.0
C201 C 0.33413 0.03909 0.29099 0.0
C202 C 0.33723 0.00313 0.34359 0.0
C203 C 0.2603 0.01269 0.27976 0.0
C204 C 0.30093 0.97178 0.36197 0.0
C205 C 0.1931 0.97322 0.24313 0.0
C206 C 0.17846 0.06384 0.16876 0.0
N207 N 0.26399 0.97708 0.32986 0.0
N208 N 0.21151 0.06034 0.20839 0.0
H209 H 0.93729 0.86375 0.896 0.0
H210 H 0.03236 0.72158 0.60354 0.0
H211 H 0.06636 0.88255 0.81019 0.0
H212 H 0.92437 0.65995 0.72228 0.0
H213 H 0.03208 0.79769 0.66188 0.0
H214 H 0.92047 0.80429 0.81699 0.0
C215 C 0.96173 0.85592 0.86003 0.0
C216 C 0.00345 0.87706 0.85988 0.0
C217 C 0.00813 0.76781 0.67496 0.0
C218 C 0.98446 0.81079 0.76994 0.0
C219 C 0.00838 0.72443 0.6418 0.0
C220 C 0.97906 0.68421 0.6594 0.0
C221 C 0.97869 0.77075 0.7266 0.0
C222 C 0.94782 0.69013 0.70808 0.0
C223 C 0.9522 0.82211 0.8153 0.0
C224 C 0.03406 0.86616 0.81251 0.0
N225 N 0.94889 0.73242 0.741 0.0
N226 N 0.02399 0.83368 0.76963 0.0
H227 H 0.2328 0.07773 0.9034 0.0
H228 H 0.3528 0.97143 0.60569 0.0
H229 H 0.19634 0.93328 0.8365 0.0
H230 H 0.42075 0.05902 0.73143 0.0
H231 H 0.28919 0.96747 0.67957 0.0
H232 H 0.2969 0.08118 0.83114 0.0
C233 C 0.2384 0.04664 0.87357 0.0
C234 C 0.20929 0.0051 0.87584 0.0
C235 C 0.31793 0.98782 0.69072 0.0
C236 C 0.28198 0.00943 0.79249 0.0
C237 C 0.35393 0.99045 0.64854 0.0
C238 C 0.39162 0.01613 0.66246 0.0
C239 C 0.31951 0.01175 0.74667 0.0
C240 C 0.39192 0.0397 0.7187 0.0
C241 C 0.27497 0.04863 0.83257 0.0
C242 C 0.21815 0.96578 0.83642 0.0
N243 N 0.35623 0.03723 0.75875 0.0
N244 N 0.25354 0.96919 0.79571 0.0
H245 H 0.9498 0.10998 0.83611 0.0
H246 H 0.96961 0.41334 0.74491 0.0
H247 H 0.0193 0.21525 0.93946 0.0
H248 H 0.95085 0.30305 0.6104 0.0
H249 H 0.9626 0.34354 0.82974 0.0
H250 H 0.92569 0.18351 0.76674 0.0
C251 C 0.95924 0.14862 0.84492 0.0
C252 C 0.98737 0.1567 0.89247 0.0
C253 C 0.95902 0.33482 0.78178 0.0
C254 C 0.95964 0.24029 0.81438 0.0
C255 C 0.96286 0.37449 0.7337 0.0
C256 C 0.96127 0.3633 0.67119 0.0
C257 C 0.95348 0.2839 0.76687 0.0
C258 C 0.95247 0.31271 0.65834 0.0
C259 C 0.94557 0.19038 0.80536 0.0
C260 C 0.99844 0.2074 0.90231 0.0
N261 N 0.94944 0.27452 0.70589 0.0
N262 N 0.98484 0.24731 0.8632 0.0
H263 H 0.82079 0.09883 0.87218 0.0
H264 H 0.70617 0.94456 0.61789 0.0
H265 H 0.86754 0.95424 0.81121 0.0
H266 H 0.65019 0.07685 0.69928 0.0
H267 H 0.77022 0.95322 0.67877 0.0
H268 H 0.76421 0.09902 0.79617 0.0
C269 C 0.81977 0.06772 0.84194 0.0
C270 C 0.84858 0.02613 0.84869 0.0
C271 C 0.74397 0.98048 0.68304 0.0
C272 C 0.78359 0.02566 0.76241 0.0
C273 C 0.7072 0.97526 0.64871 0.0
C274 C 0.67262 0.00997 0.65338 0.0
C275 C 0.74623 0.02069 0.72242 0.0
C276 C 0.67623 0.04958 0.69338 0.0
C277 C 0.7872 0.06757 0.79896 0.0
C278 C 0.84564 0.98678 0.80825 0.0
N279 N 0.71225 0.05377 0.72634 0.0
N280 N 0.81347 0.98725 0.76736 0.0
loop_
_geom_bond_atom_site_label_1
_geom_bond_atom_site_label_2
_geom_bond_distance
_geom_bond_site_symmetry_2
_ccdc_geom_bond_type
C0 O27 1.312 1_655 S
C0 O28 1.208 . S
C1 O22 1.331 . S
C1 O25 1.244 1_565 S
C2 O24 1.264 1_545 S
C2 O26 1.273 . S
Mg3 O5 1.936 1_565 S
Mg3 O12 2.081 . S
Mg3 O14 2.023 1_556 S
Mg3 O18 2.031 . S
Mg3 O27 2.291 1_556 S
Mg4 O5 1.963 . S
Mg4 O15 1.942 . S
Mg4 O16 1.955 1_556 S
Mg4 O23 1.986 . S
O5 Mg3 1.936 1_545 S
O5 Mg4 1.963 . S
O5 Mg6 1.911 1_556 S
Mg6 O5 1.911 1_554 S
Mg6 O7 1.919 1_455 S
Mg6 O11 2.024 . S
Mg6 O17 2.104 1_444 S
Mg6 O21 2.002 1_454 S
Mg6 O27 2.122 1_545 S
O7 Mg6 1.919 1_655 S
O7 Mg8 1.936 1_545 S
O7 Mg9 1.963 . S
Mg8 O7 1.936 1_565 S
Mg8 O17 2.291 1_554 S
Mg8 O22 2.081 . S
Mg8 O24 2.023 1_554 S
Mg8 O28 2.031 . S
Mg9 O7 1.963 . S
Mg9 O13 1.986 . S
Mg9 O25 1.942 . S
Mg9 O26 1.955 1_554 S
C10 O21 1.191 1_455 S
C10 O23 1.307 . S
O11 Mg6 2.024 . S
O11 C30 1.191 1_455 S
O12 Mg3 2.081 . S
O12 C20 1.331 . S
O13 Mg9 1.986 . S
O13 C30 1.307 . S
O14 Mg3 2.023 1_554 S
O14 C29 1.264 1_565 S
O15 Mg4 1.942 . S
O15 C20 1.244 1_545 S
O16 Mg4 1.955 1_554 S
O16 C29 1.273 . S
O17 Mg6 2.104 1_666 S
O17 Mg8 2.291 1_556 S
O17 C19 1.312 1_655 S
O18 Mg3 2.031 . S
O18 C19 1.208 . S
C19 O17 1.312 1_455 S
C19 O18 1.208 . S
C20 O12 1.331 . S
C20 O15 1.244 1_565 S
O21 Mg6 2.002 1_656 S
O21 C10 1.191 1_655 S
O22 C1 1.331 . S
O22 Mg8 2.081 . S
O23 Mg4 1.986 . S
O23 C10 1.307 . S
O24 C2 1.264 1_565 S
O24 Mg8 2.023 1_556 S
O25 C1 1.244 1_545 S
O25 Mg9 1.942 . S
O26 C2 1.273 . S
O26 Mg9 1.955 1_556 S
O27 C0 1.312 1_455 S
O27 Mg3 2.291 1_554 S
O27 Mg6 2.122 1_565 S
O28 C0 1.208 . S
O28 Mg8 2.031 . S
C29 O14 1.264 1_545 S
C29 O16 1.273 . S
C30 O11 1.191 1_655 S
C30 O13 1.307 . S
C31 C32 1.443 . S
C31 N35 1.376 . S
C31 C69 1.389 . S
C32 C31 1.443 . S
C32 C33 1.340 . S
C32 H72 0.951 . S
C33 C32 1.340 . S
C33 C34 1.439 . S
C33 H73 0.950 . S
C34 C33 1.439 . S
C34 N35 1.374 . S
C34 C68 1.395 . S
N35 C31 1.376 . S
N35 C34 1.374 . S
N35 Co36 2.008 . S
Co36 N35 2.008 . S
Co36 N37 1.995 . S
Co36 N42 2.008 1_455 S
Co36 N47 1.995 1_455 S
Co36 N52 2.282 . S
Co36 N58 2.282 . S
N37 Co36 1.995 . S
N37 C38 1.376 . S
N37 C41 1.383 . S
C38 N37 1.376 . S
C38 C39 1.446 . S
C38 C68 1.391 . S
C39 C38 1.446 . S
C39 C40 1.339 . S
C39 H74 0.949 . S
C40 C39 1.339 . S
C40 C41 1.439 . S
C40 H75 0.950 . S
C41 N37 1.383 . S
C41 C40 1.439 . S
C41 C70 1.392 . S
N42 Co36 2.008 1_655 S
N42 C43 1.376 . S
N42 C46 1.374 . S
C43 N42 1.376 . S
C43 C44 1.443 . S
C43 C70 1.389 1_655 S
C44 C43 1.443 . S
C44 C45 1.340 . S
C44 H76 0.951 . S
C45 C44 1.340 . S
C45 C46 1.439 . S
C45 H77 0.950 . S
C46 N42 1.374 . S
C46 C45 1.439 . S
C46 C71 1.395 . S
N47 Co36 1.995 1_655 S
N47 C48 1.376 . S
N47 C51 1.383 . S
C48 N47 1.376 . S
C48 C49 1.446 . S
C48 C71 1.391 . S
C49 C48 1.446 . S
C49 C50 1.339 . S
C49 H78 0.949 . S
C50 C49 1.339 . S
C50 C51 1.439 . S
C50 H79 0.950 . S
C51 N47 1.383 . S
C51 C50 1.439 . S
C51 C69 1.392 1_655 S
N52 Co36 2.282 . S
N52 C55 1.332 1_455 S
N52 C57 1.332 . S
C53 C54 1.386 1_455 S
C53 C56 1.388 . S
C54 C53 1.386 1_655 S
C54 C55 1.382 . S
C54 H80 0.950 . S
C55 N52 1.332 1_655 S
C55 C54 1.382 . S
C55 H66 0.952 . S
C56 C53 1.388 . S
C56 C57 1.382 . S
C56 H81 0.950 . S
C57 N52 1.332 . S
C57 C56 1.382 . S
C57 H67 0.948 . S
N58 Co36 2.282 . S
N58 C62 1.332 . S
N58 C63 1.332 1_455 S
C59 C60 1.388 1_655 S
C59 C63 1.382 . S
C59 H82 0.950 . S
C60 C59 1.388 1_455 S
C60 C61 1.386 . S
C61 C60 1.386 . S
C61 C62 1.382 . S
C61 H83 0.950 . S
C62 N58 1.332 . S
C62 C61 1.382 . S
C62 H64 0.952 . S
C63 N58 1.332 1_655 S
C63 C59 1.382 . S
C63 H65 0.948 . S
H64 C62 0.952 . S
H65 C63 0.948 . S
H66 C55 0.952 . S
H67 C57 0.948 . S
C68 C34 1.395 . S
C68 C38 1.391 . S
C69 C31 1.389 . S
C69 C51 1.392 1_455 S
C70 C41 1.392 . S
C70 C43 1.389 1_455 S
C71 C46 1.395 . S
C71 C48 1.391 . S
H72 C32 0.951 . S
H73 C33 0.950 . S
H74 C39 0.949 . S
H75 C40 0.950 . S
H76 C44 0.951 . S
H77 C45 0.950 . S
H78 C49 0.949 . S
H79 C50 0.950 . S
H80 C54 0.950 . S
H81 C56 0.950 . S
H82 C59 0.950 . S
H83 C61 0.950 . S
C84 C85 1.443 . S
C84 N88 1.376 . S
C84 C122 1.368 1_565 S
C85 C84 1.443 . S
C85 C86 1.340 . S
C85 H125 0.951 . S
C86 C85 1.340 . S
C86 C87 1.439 . S
C86 H126 0.950 . S
C87 C86 1.439 . S
C87 N88 1.374 . S
C87 C121 1.395 . S
N88 C84 1.376 . S
N88 C87 1.374 . S
N88 Co89 2.008 1_565 S
Co89 N88 2.008 1_545 S
Co89 N90 1.995 1_545 S
Co89 N95 2.008 . S
Co89 N100 1.995 . S
Co89 N105 2.282 1_545 S
Co89 N111 2.282 . S
N90 Co89 1.995 1_565 S
N90 C91 1.376 . S
N90 C94 1.383 . S
C91 N90 1.376 . S
C91 C92 1.446 . S
C91 C121 1.391 . S
C92 C91 1.446 . S
C92 C93 1.339 . S
C92 H127 0.949 . S
C93 C92 1.339 . S
C93 C94 1.439 . S
C93 H128 0.950 . S
C94 N90 1.383 . S
C94 C93 1.439 . S
C94 C123 1.392 1_565 S
N95 Co89 2.008 . S
N95 C96 1.376 . S
N95 C99 1.374 . S
C96 N95 1.376 . S
C96 C97 1.443 . S
C96 C123 1.389 . S
C97 C96 1.443 . S
C97 C98 1.340 . S
C97 H129 0.951 . S
C98 C97 1.340 . S
C98 C99 1.439 . S
C98 H130 0.950 . S
C99 N95 1.374 . S
C99 C98 1.439 . S
C99 C124 1.395 . S
N100 Co89 1.995 . S
N100 C101 1.376 . S
N100 C104 1.383 . S
C101 N100 1.376 . S
C101 C102 1.446 . S
C101 C124 1.391 . S
C102 C101 1.446 . S
C102 C103 1.339 . S
C102 H131 0.949 . S
C103 C102 1.339 . S
C103 C104 1.439 . S
C103 H132 0.950 . S
C104 N100 1.383 . S
C104 C103 1.439 . S
C104 C122 1.412 . S
N105 Co89 2.282 1_565 S
N105 C108 1.332 1_565 S
N105 C110 1.332 . S
C106 C107 1.386 . S
C106 C109 1.388 1_545 S
C107 C106 1.386 . S
C107 C108 1.382 . S
C107 H133 0.950 . S
C108 N105 1.332 1_545 S
C108 C107 1.382 . S
C108 H119 0.952 . S
C109 C106 1.388 1_565 S
C109 C110 1.382 . S
C109 H134 0.950 . S
C110 N105 1.332 . S
C110 C109 1.382 . S
C110 H120 0.948 . S
N111 Co89 2.282 . S
N111 C115 1.332 1_545 S
N111 C116 1.332 . S
C112 C113 1.388 . S
C112 C116 1.382 . S
C112 H135 0.950 . S
C113 C112 1.388 . S
C113 C114 1.386 1_545 S
C114 C113 1.386 1_565 S
C114 C115 1.382 . S
C114 H136 0.950 . S
C115 N111 1.332 1_565 S
C115 C114 1.382 . S
C115 H117 0.952 . S
C116 N111 1.332 . S
C116 C112 1.382 . S
C116 H118 0.948 . S
H117 C115 0.952 . S
H118 C116 0.948 . S
H119 C108 0.952 . S
H120 C110 0.948 . S
C121 C87 1.395 . S
C121 C91 1.391 . S
C122 C84 1.368 1_545 S
C122 C104 1.412 . S
C123 C94 1.392 1_545 S
C123 C96 1.389 . S
C124 C99 1.395 . S
C124 C101 1.391 . S
H125 C85 0.951 . S
H126 C86 0.950 . S
H127 C92 0.949 . S
H128 C93 0.950 . S
H129 C97 0.951 . S
H130 C98 0.950 . S
H131 C102 0.949 . S
H132 C103 0.950 . S
H133 C107 0.950 . S
H134 C109 0.950 . S
H135 C112 0.950 . S
H136 C114 0.950 . S
H137 C143 0.930 . S
H138 C147 0.930 . S
H139 C152 0.929 . S
H140 C150 0.929 . S
H141 C145 0.929 . S
H142 C151 0.929 . S
C143 H137 0.930 . S
C143 C144 1.359 1_655 S
C143 C151 1.378 . S
C144 C143 1.359 1_455 S
C144 C152 1.442 . S
C145 H141 0.929 . S
C145 C147 1.378 . S
C145 C149 1.350 . S
C146 C149 1.463 . S
C146 C151 1.350 1_455 S
C146 N154 1.427 . S
C147 H138 0.930 . S
C147 C145 1.378 . S
C147 C148 1.367 . S
C148 C147 1.367 . S
C148 C150 1.433 1_455 S
C149 C145 1.350 . S
C149 C146 1.463 . S
C149 N153 1.427 1_455 S
C150 H140 0.929 . S
C150 C148 1.433 1_655 S
C150 N153 1.384 . S
C151 H142 0.929 . S
C151 C143 1.378 . S
C151 C146 1.350 1_655 S
C152 H139 0.929 . S
C152 C144 1.442 . S
C152 N154 1.384 . S
N153 C149 1.427 1_655 S
N153 C150 1.384 . S
N154 C146 1.427 . S
N154 C152 1.384 . S
H155 C161 0.930 1_545 S
H156 C165 0.930 . S
H157 C170 0.929 . S
H158 C168 0.929 . S
H159 C163 0.929 . S
H160 C169 0.929 1_545 S
C161 H155 0.930 1_565 S
C161 C162 1.367 . S
C161 C169 1.378 . S
C162 C161 1.367 . S
C162 C170 1.433 . S
C163 H159 0.929 . S
C163 C165 1.378 . S
C163 C167 1.350 . S
C164 C167 1.463 . S
C164 C169 1.350 . S
C164 N172 1.427 . S
C165 H156 0.930 . S
C165 C163 1.378 . S
C165 C166 1.368 . S
C166 C165 1.368 . S
C166 C168 1.433 1_565 S
C167 C163 1.350 . S
C167 C164 1.463 . S
C167 N171 1.427 1_565 S
C168 H158 0.929 . S
C168 C166 1.433 1_545 S
C168 N171 1.384 . S
C169 H160 0.929 1_565 S
C169 C161 1.378 . S
C169 C164 1.350 . S
C170 H157 0.929 . S
C170 C162 1.433 . S
C170 N172 1.384 . S
N171 C167 1.427 1_545 S
N171 C168 1.384 . S
N172 C164 1.427 . S
N172 C170 1.384 . S
H173 C179 0.930 . S
H174 C183 0.930 . S
H175 C188 0.929 . S
H176 C186 0.929 . S
H177 C181 0.929 . S
H178 C187 0.929 . S
C179 H173 0.930 . S
C179 C180 1.367 . S
C179 C187 1.378 . S
C180 C179 1.367 . S
C180 C188 1.433 1_455 S
C181 H177 0.929 . S
C181 C183 1.378 . S
C181 C185 1.350 1_655 S
C182 C185 1.463 . S
C182 C187 1.350 . S
C182 N190 1.427 1_455 S
C183 H174 0.930 . S
C183 C181 1.378 . S
C183 C184 1.367 1_655 S
C184 C183 1.367 1_455 S
C184 C186 1.433 . S
C185 C181 1.350 1_455 S
C185 C182 1.463 . S
C185 N189 1.427 . S
C186 H176 0.929 . S
C186 C184 1.433 . S
C186 N189 1.384 . S
C187 H178 0.929 . S
C187 C179 1.378 . S
C187 C182 1.350 . S
C188 H175 0.929 . S
C188 C180 1.433 1_655 S
C188 N190 1.384 . S
N189 C185 1.427 . S
N189 C186 1.384 . S
N190 C182 1.427 1_655 S
N190 C188 1.384 . S
H191 C197 0.930 . S
H192 C201 0.930 . S
H193 C206 0.929 . S
H194 C204 0.929 . S
H195 C199 0.929 . S
H196 C205 0.929 . S
C197 H191 0.930 . S
C197 C198 1.367 1_565 S
C197 C205 1.378 . S
C198 C197 1.367 1_545 S
C198 C206 1.433 . S
C199 H195 0.929 . S
C199 C201 1.378 . S
C199 C203 1.350 . S
C200 C203 1.463 . S
C200 C205 1.350 1_545 S
C200 N208 1.427 . S
C201 H192 0.930 . S
C201 C199 1.378 . S
C201 C202 1.367 . S
C202 C201 1.367 . S
C202 C204 1.433 1_545 S
C203 C199 1.350 . S
C203 C200 1.463 . S
C203 N207 1.427 1_545 S
C204 H194 0.929 . S
C204 C202 1.433 1_565 S
C204 N207 1.384 . S
C205 H196 0.929 . S
C205 C197 1.378 . S
C205 C200 1.350 1_565 S
C206 H193 0.929 . S
C206 C198 1.433 . S
C206 N208 1.384 . S
N207 C203 1.427 1_565 S
N207 C204 1.384 . S
N208 C200 1.427 . S
N208 C206 1.384 . S
H209 C215 0.930 . S
H210 C219 0.930 . S
H211 C224 0.929 . S
H212 C222 0.929 . S
H213 C217 0.929 . S
H214 C223 0.929 . S
C215 H209 0.930 . S
C215 C216 1.367 1_655 S
C215 C223 1.378 . S
C216 C215 1.367 1_455 S
C216 C224 1.433 . S
C217 H213 0.929 . S
C217 C219 1.378 . S
C217 C221 1.350 . S
C218 C221 1.463 . S
C218 C223 1.350 1_455 S
C218 N226 1.427 . S
C219 H210 0.930 . S
C219 C217 1.378 . S
C219 C220 1.367 . S
C220 C219 1.367 . S
C220 C222 1.433 1_455 S
C221 C217 1.350 . S
C221 C218 1.463 . S
C221 N225 1.427 1_455 S
C222 H212 0.929 . S
C222 C220 1.433 1_655 S
C222 N225 1.384 . S
C223 H214 0.929 . S
C223 C215 1.378 . S
C223 C218 1.350 1_655 S
C224 H211 0.929 . S
C224 C216 1.433 . S
C224 N226 1.384 . S
N225 C221 1.427 1_655 S
N225 C222 1.384 . S
N226 C218 1.427 . S
N226 C224 1.384 . S
H227 C233 0.930 . S
H228 C237 0.930 . S
H229 C242 0.929 . S
H230 C240 0.929 . S
H231 C235 0.929 . S
H232 C241 0.929 . S
C233 H227 0.930 . S
C233 C234 1.367 1_545 S
C233 C241 1.378 . S
C234 C233 1.367 1_565 S
C234 C242 1.433 . S
C235 H231 0.929 . S
C235 C237 1.378 . S
C235 C239 1.350 . S
C236 C239 1.464 . S
C236 C241 1.336 1_565 S
C236 N244 1.441 . S
C237 H228 0.930 . S
C237 C235 1.378 . S
C237 C238 1.367 . S
C238 C237 1.367 . S
C238 C240 1.433 1_565 S
C239 C235 1.350 . S
C239 C236 1.464 . S
C239 N243 1.427 1_565 S
C240 H230 0.929 . S
C240 C238 1.433 1_545 S
C240 N243 1.384 . S
C241 H232 0.929 . S
C241 C233 1.378 . S
C241 C236 1.336 1_545 S
C242 H229 0.929 . S
C242 C234 1.433 . S
C242 N244 1.384 . S
N243 C239 1.427 1_545 S
N243 C240 1.384 . S
N244 C236 1.441 . S
N244 C242 1.384 . S
H245 C251 0.930 . S
H246 C255 0.930 . S
H247 C260 0.929 . S
H248 C258 0.929 . S
H249 C253 0.929 . S
H250 C259 0.929 . S
C251 H245 0.930 . S
C251 C252 1.367 1_655 S
C251 C259 1.378 . S
C252 C251 1.367 1_455 S
C252 C260 1.433 . S
C253 H249 0.929 . S
C253 C255 1.378 . S
C253 C257 1.350 . S
C254 C257 1.463 . S
C254 C259 1.350 1_455 S
C254 N262 1.427 . S
C255 H246 0.930 . S
C255 C253 1.378 . S
C255 C256 1.367 . S
C256 C255 1.367 . S
C256 C258 1.433 1_455 S
C257 C253 1.350 . S
C257 C254 1.463 . S
C257 N261 1.427 1_455 S
C258 H248 0.929 . S
C258 C256 1.433 1_655 S
C258 N261 1.384 . S
C259 H250 0.929 . S
C259 C251 1.378 . S
C259 C254 1.350 1_655 S
C260 H247 0.929 . S
C260 C252 1.433 . S
C260 N262 1.384 . S
N261 C257 1.427 1_655 S
N261 C258 1.384 . S
N262 C254 1.427 . S
N262 C260 1.384 . S
H263 C269 0.930 . S
H264 C273 0.930 . S
H265 C278 0.925 1_565 S
H266 C276 0.929 . S
H267 C271 0.929 . S
H268 C277 0.929 . S
C269 H263 0.930 . S
C269 C270 1.367 . S
C269 C277 1.378 . S
C270 C269 1.367 . S
C270 C278 1.433 . S
C271 H267 0.929 . S
C271 C273 1.378 . S
C271 C275 1.350 1_565 S
C272 C275 1.463 . S
C272 C277 1.350 . S
C272 N280 1.427 . S
C273 H264 0.930 . S
C273 C271 1.378 . S
C273 C274 1.367 1_565 S
C274 C273 1.367 1_545 S
C274 C276 1.433 . S
C275 C271 1.350 1_545 S
C275 C272 1.463 . S
C275 N279 1.427 . S
C276 H266 0.929 . S
C276 C274 1.433 . S
C276 N279 1.384 . S
C277 H268 0.929 . S
C277 C269 1.378 . S
C277 C272 1.350 . S
C278 H265 0.925 1_545 S
C278 C270 1.433 . S
C278 N280 1.384 . S
N279 C275 1.427 . S
N279 C276 1.384 . S
N280 C272 1.427 . S
N280 C278 1.384 . S
C144 C30 1.290 1_455 S
C148 C53 1.329 . S
C162 C1 1.624 . S
C166 C123 1.660 1_565 S
C180 C0 1.407 1_455 S
C184 C69 1.460 . S
C198 C29 1.526 . S
C202 C113 1.552 . S
C216 C19 1.289 . S
C220 C60 1.342 . S
C234 C20 1.610 . S
C238 C122 1.649 1_565 S
C256 C70 1.451 . S
C252 C10 1.420 . S
C270 C2 1.526 . S
C274 C106 1.564 . S
