# Generated by pormake.
# Topology rtl, (3,6)-cn, num edge types: 1
# Building blocks:
#     Node 0, Type 0, BuildingBlock: WUSLED_clean_sbu_0, # of connection points: 3
#     Node 1, Type 0, BuildingBlock: WUSLED_clean_sbu_0, # of connection points: 3
#     Node 2, Type 0, BuildingBlock: WUSLED_clean_sbu_0, # of connection points: 3
#     Node 3, Type 0, BuildingBlock: WUSLED_clean_sbu_0, # of connection points: 3
#     Node 4, Type 1, BuildingBlock: KUMBUR_clean_sbu_1, # of connection points: 6
#     Node 5, Type 1, BuildingBlock: KUMBUR_clean_sbu_1, # of connection points: 6
#     Edge 6, Type (0, 1), BuildingBlock: TEMPAE_clean_linker_10, # of connection points: 2
#     Edge 7, Type (0, 1), BuildingBlock: TEMPAE_clean_linker_10, # of connection points: 2
#     Edge 8, Type (0, 1), BuildingBlock: TEMPAE_clean_linker_10, # of connection points: 2
#     Edge 9, Type (0, 1), BuildingBlock: TEMPAE_clean_linker_10, # of connection points: 2
#     Edge 10, Type (0, 1), BuildingBlock: TEMPAE_clean_linker_10, # of connection points: 2
#     Edge 11, Type (0, 1), BuildingBlock: TEMPAE_clean_linker_10, # of connection points: 2
#     Edge 12, Type (0, 1), BuildingBlock: TEMPAE_clean_linker_10, # of connection points: 2
#     Edge 13, Type (0, 1), BuildingBlock: TEMPAE_clean_linker_10, # of connection points: 2
#     Edge 14, Type (0, 1), BuildingBlock: TEMPAE_clean_linker_10, # of connection points: 2
#     Edge 15, Type (0, 1), BuildingBlock: TEMPAE_clean_linker_10, # of connection points: 2
#     Edge 16, Type (0, 1), BuildingBlock: TEMPAE_clean_linker_10, # of connection points: 2
#     Edge 17, Type (0, 1), BuildingBlock: TEMPAE_clean_linker_10, # of connection points: 2
# Relax obj value: 0.016
# Max RMSD: 0.101
# Mean RMSD: 0.058
data_MOF--net-rtl--node1-WUSLED_clean_sbu_0--node2-KUMBUR_clean_sbu_1--edge1-TEMPAE_clean_linker_10
_symmetry_space_group_name_H-M    P1
_symmetry_Int_Tables_number       1
_symmetry_cell_setting            triclinic
loop_
_symmetry_equiv_pos_as_xyz
'x, y, z'
_cell_length_a     42.761177
_cell_length_b     43.313036
_cell_length_c     36.799539
_cell_angle_alpha  81.111082
_cell_angle_beta   99.142477
_cell_angle_gamma 90.828213
loop_
_atom_site_label
_atom_site_type_symbol
_atom_site_fract_x
_atom_site_fract_y
_atom_site_fract_z
_atom_type_partial_charge
C0 C 0.19908 0.84126 0.12488 0.0
C1 C 0.17091 0.85881 0.11373 0.0
C2 C 0.17086 0.86756 0.17768 0.0
C3 C 0.15689 0.87176 0.1399 0.0
C4 C 0.19937 0.85033 0.18853 0.0
C5 C 0.21328 0.83728 0.16237 0.0
U6 U 0.20786 0.83328 0.02494 0.0
O7 O 0.25014 0.82539 1.00039 0.0
O8 O 0.21181 0.79107 0.99922 0.0
C9 C 0.24048 0.79797 0.99213 0.0
C10 C 0.2136 0.82658 0.09793 0.0
C11 C 0.26397 0.77217 1.00154 0.0
C12 C 0.31173 0.74694 0.03837 0.0
C13 C 0.28874 0.77077 0.03184 0.0
C14 C 0.28502 0.72528 0.98503 0.0
C15 C 0.31024 0.72401 0.01488 0.0
C16 C 0.26221 0.74911 0.97845 0.0
C17 C 0.15824 0.88644 0.94387 0.0
C18 C 0.15166 0.8783 0.87914 0.0
C19 C 0.13257 0.9262 0.89475 0.0
C20 C 0.14341 0.91572 0.93247 0.0
C21 C 0.13625 0.90751 0.86758 0.0
C22 C 0.1626 0.86787 0.91696 0.0
C23 C 0.16852 0.87564 0.9839 0.0
O24 O 0.1945 0.80966 0.07748 0.0
O25 O 0.23214 0.84459 0.07869 0.0
O26 O 0.19801 0.88169 0.99694 0.0
O27 O 0.15985 0.84728 0.99656 0.0
H28 H 0.15968 0.86233 0.08484 0.0
H29 H 0.13518 0.88525 0.13052 0.0
H30 H 0.21059 0.84639 0.21741 0.0
H31 H 0.23502 0.82379 0.1715 0.0
H32 H 0.33065 0.74643 0.06184 0.0
H33 H 0.29054 0.78825 0.05016 0.0
H34 H 0.28335 0.70828 0.9661 0.0
H35 H 0.24338 0.74984 0.95482 0.0
H36 H 0.15468 0.8632 0.85906 0.0
H37 H 0.12139 0.94904 0.88687 0.0
H38 H 0.14003 0.93047 0.95282 0.0
H39 H 0.17412 0.8452 0.92524 0.0
C40 C 0.67587 0.68018 0.71714 0.0
C41 C 0.67462 0.64738 0.72475 0.0
C42 C 0.64215 0.65023 0.77324 0.0
C43 C 0.65805 0.63261 0.75249 0.0
C44 C 0.64308 0.68308 0.76507 0.0
C45 C 0.6598 0.69781 0.73749 0.0
U46 U 0.69876 0.69528 0.61885 0.0
O47 O 0.709 0.73916 0.58406 0.0
O48 O 0.74557 0.70241 0.60099 0.0
C49 C 0.73846 0.73095 0.58381 0.0
C50 C 0.69448 0.69647 0.68916 0.0
C51 C 0.76331 0.75495 0.58836 0.0
C52 C 0.7804 0.80716 0.59943 0.0
C53 C 0.75763 0.78347 0.60013 0.0
C54 C 0.81516 0.77397 0.5762 0.0
C55 C 0.80932 0.8029 0.58692 0.0
C56 C 0.79245 0.75039 0.57688 0.0
C57 C 0.65603 0.64753 0.54555 0.0
C58 C 0.66587 0.65131 0.48164 0.0
C59 C 0.6268 0.61517 0.50374 0.0
C60 C 0.63323 0.62474 0.53871 0.0
C61 C 0.64312 0.62817 0.47475 0.0
C62 C 0.67233 0.66087 0.51681 0.0
C63 C 0.66225 0.65675 0.58292 0.0
O64 O 0.71567 0.67963 0.67844 0.0
O65 O 0.67854 0.71572 0.6615 0.0
O66 O 0.65349 0.68524 0.58521 0.0
O67 O 0.69008 0.64867 0.60268 0.0
H68 H 0.68674 0.63305 0.7096 0.0
H69 H 0.6583 0.60733 0.75818 0.0
H70 H 0.63075 0.69751 0.77989 0.0
H71 H 0.66032 0.72311 0.73218 0.0
H72 H 0.77523 0.82895 0.60836 0.0
H73 H 0.73536 0.78777 0.60905 0.0
H74 H 0.83686 0.7699 0.5659 0.0
H75 H 0.79729 0.72882 0.56721 0.0
H76 H 0.679 0.66167 0.46003 0.0
H77 H 0.60873 0.59777 0.49931 0.0
H78 H 0.62029 0.6143 0.56049 0.0
H79 H 0.69006 0.67853 0.52164 0.0
C80 C 0.83568 0.16748 0.16132 0.0
C81 C 0.85239 0.14 0.16052 0.0
C82 C 0.86751 0.13308 0.22815 0.0
C83 C 0.86818 0.12291 0.19369 0.0
C84 C 0.85088 0.16081 0.22852 0.0
C85 C 0.83513 0.17776 0.19546 0.0
U86 U 0.81536 0.18994 0.05462 0.0
O87 O 0.76913 0.20291 0.02035 0.0
O88 O 0.80753 0.23705 0.0219 0.0
C89 C 0.77732 0.23211 1.01114 0.0
C90 C 0.81868 0.18593 0.12714 0.0
C91 C 0.75535 0.256 0.01734 0.0
C92 C 0.72177 0.2762 0.05601 0.0
C93 C 0.74295 0.25352 0.05079 0.0
C94 C 0.72565 0.30443 0.99474 0.0
C95 C 0.71283 0.30193 0.02801 0.0
C96 C 0.74666 0.28165 0.98947 0.0
C97 C 0.85582 0.14614 0.98989 0.0
C98 C 0.87611 0.16153 0.93152 0.0
C99 C 0.86111 0.10788 0.94916 0.0
C100 C 0.85242 0.11555 0.98177 0.0
C101 C 0.87368 0.13062 0.92393 0.0
C102 C 0.86728 0.16922 0.96413 0.0
C103 C 0.84967 0.15255 0.02656 0.0
O104 O 0.8361 0.20506 0.10761 0.0
O105 O 0.79777 0.17081 0.10646 0.0
O106 O 0.82151 0.14511 0.03506 0.0
O107 O 0.86013 0.1791 0.03685 0.0
H108 H 0.85311 0.13174 0.13433 0.0
H109 H 0.88056 0.10157 0.19242 0.0
H110 H 0.85035 0.16968 0.25436 0.0
H111 H 0.82251 0.19904 0.19656 0.0
H112 H 0.71261 0.27377 0.0821 0.0
H113 H 0.74959 0.234 0.07282 0.0
H114 H 0.719 0.32375 0.97247 0.0
H115 H 0.75601 0.28399 0.96349 0.0
H116 H 0.88595 0.1796 0.91296 0.0
H117 H 0.85838 0.08397 0.94397 0.0
H118 H 0.84369 0.0973 1.00115 0.0
H119 H 0.87025 0.19304 0.96958 0.0
C120 C 0.34827 0.34396 0.35415 0.0
C121 C 0.36976 0.36767 0.3624 0.0
C122 C 0.37939 0.37723 0.29787 0.0
C123 C 0.38519 0.38413 0.33454 0.0
C124 C 0.35779 0.35339 0.28992 0.0
C125 C 0.34243 0.33697 0.31776 0.0
U126 U 0.33183 0.3254 0.45469 0.0
O127 O 0.28715 0.31468 0.47635 0.0
O128 O 0.32588 0.28003 0.48941 0.0
C129 C 0.29647 0.28631 0.49231 0.0
C130 C 0.33189 0.32619 0.38305 0.0
C131 C 0.27328 0.26069 0.48903 0.0
C132 C 0.22222 0.24051 0.46364 0.0
C133 C 0.24531 0.2639 0.46279 0.0
C134 C 0.255 0.21011 0.51628 0.0
C135 C 0.22659 0.21346 0.49074 0.0
C136 C 0.27797 0.23342 0.51542 0.0
C137 C 0.37541 0.37087 0.52866 0.0
C138 C 0.36962 0.35944 0.59404 0.0
C139 C 0.40314 0.40191 0.57314 0.0
C140 C 0.39579 0.39539 0.53669 0.0
C141 C 0.3902 0.38399 0.60234 0.0
C142 C 0.36229 0.35294 0.55753 0.0
C143 C 0.36833 0.36419 0.49016 0.0
O144 O 0.34989 0.30728 0.40919 0.0
O145 O 0.3115 0.34216 0.39622 0.0
O146 O 0.33954 0.37149 0.47266 0.0
O147 O 0.37809 0.33681 0.48499 0.0
H148 H 0.37457 0.37344 0.39035 0.0
H149 H 0.40137 0.40252 0.34163 0.0
H150 H 0.35307 0.34705 0.26225 0.0
H151 H 0.32603 0.31867 0.31087 0.0
H152 H 0.20084 0.24373 0.44324 0.0
H153 H 0.24096 0.2847 0.44213 0.0
H154 H 0.25908 0.18993 0.5379 0.0
H155 H 0.29912 0.23054 0.53626 0.0
H156 H 0.35953 0.34492 0.61587 0.0
H157 H 0.41869 0.42123 0.57837 0.0
H158 H 0.40607 0.40953 0.51471 0.0
H159 H 0.34654 0.33385 0.55184 0.0
Tb160 Tb 0.03746 0.97956 0.51763 0.0
C161 C 0.96197 0.10259 0.5087 0.0
N162 N 0.99004 0.09377 0.53063 0.0
C163 C 0.01124 0.14458 0.51359 0.0
C164 C 0.95766 0.13274 0.48768 0.0
C165 C 0.0144 0.11441 0.53388 0.0
C166 C 0.9828 0.15376 0.49024 0.0
C167 C 0.90866 0.08886 0.48335 0.0
C168 C 0.93795 0.08074 0.50626 0.0
C169 C 0.90416 0.11894 0.46252 0.0
C170 C 0.92863 0.14077 0.46454 0.0
Tb171 Tb 0.99301 0.04358 0.56113 0.0
N172 N 0.94344 0.05152 0.52617 0.0
C173 C 0.88463 0.06664 0.48238 0.0
C174 C 0.9191 0.03079 0.5276 0.0
C175 C 0.88972 0.03768 0.5051 0.0
H176 H 0.03603 0.10787 0.55276 0.0
H177 H 0.8708 0.02083 0.50587 0.0
H178 H 0.99736 0.91394 0.53019 0.0
H179 H 0.15832 0.00878 0.57098 0.0
H180 H 0.92145 0.00932 0.5468 0.0
H181 H 0.86181 0.07193 0.46509 0.0
H182 H 0.108 0.01603 0.52827 0.0
H183 H 0.03069 0.16079 0.51611 0.0
H184 H 0.88177 0.12562 0.44491 0.0
H185 H 0.92486 0.1638 0.44812 0.0
H186 H 1.00434 0.86265 0.57067 0.0
H187 H 0.98045 0.17712 0.47446 0.0
H188 H 0.16829 0.96056 0.61704 0.0
N189 N 0.04248 0.93056 0.55149 0.0
C190 C 0.07052 0.92374 0.57442 0.0
C191 C 0.02309 0.87969 0.57214 0.0
C192 C 0.07558 0.89481 0.59808 0.0
C193 C 0.01905 0.90887 0.5495 0.0
C194 C 0.0514 0.87268 0.59671 0.0
N195 N 0.08706 0.97475 0.55311 0.0
C196 C 0.11075 0.99602 0.54978 0.0
C197 C 0.1225 0.94093 0.59974 0.0
C198 C 0.09343 0.94672 0.57556 0.0
C199 C 0.14563 0.96406 0.59893 0.0
C200 C 0.13996 0.99143 0.57324 0.0
H201 H 0.05433 0.85018 0.61449 0.0
H202 H 0.1085 0.86724 0.64142 0.0
H203 H 0.14972 0.90749 0.64259 0.0
O204 O 0.06644 0.98393 0.47589 0.0
O205 O 0.03339 0.97214 0.57722 0.0
O206 O 0.03626 0.02107 0.59379 0.0
O207 O 0.03549 0.94504 0.48274 0.0
O208 O 0.05244 0.02888 0.50864 0.0
O209 O 0.04399 0.04952 0.56083 0.0
O210 O 0.96772 0.03526 0.60647 0.0
O211 O 0.99423 0.051 0.50095 0.0
O212 O 0.99493 1.00231 0.48315 0.0
O213 O 0.99219 0.07821 0.59525 0.0
O214 O 0.97579 0.9949 0.56736 0.0
O215 O 0.98644 0.97277 0.51678 0.0
C216 C 0.04183 0.99087 0.60172 0.0
C217 C 0.04573 0.96291 0.4219 0.0
C218 C 0.05656 0.95578 0.36032 0.0
C219 C 0.02799 0.9716 0.34421 0.0
C220 C 0.01737 0.97843 0.40508 0.0
C221 C 1.00858 0.98278 0.36649 0.0
C222 C 0.06526 0.95146 0.39944 0.0
C223 C 0.05831 0.04973 0.53154 0.0
C224 C 0.05532 0.95915 0.46267 0.0
C225 C 0.10424 0.88922 0.62278 0.0
C226 C 0.12765 0.91221 0.62357 0.0
C227 C 0.98695 0.0321 0.47633 0.0
C228 C 0.98841 0.06004 0.6579 0.0
C229 C 0.98186 0.06958 0.72013 0.0
C230 C 0.01317 0.05898 0.73338 0.0
C231 C 0.01969 0.05022 0.67172 0.0
C232 C 0.96946 0.06965 0.68219 0.0
C233 C 0.03189 0.04945 0.70928 0.0
C234 C 0.97052 0.97384 0.54456 0.0
C235 C 0.97596 0.06159 0.61793 0.0
H236 H 0.02038 0.97492 0.31435 0.0
H237 H 1.00205 0.98712 0.42182 0.0
H238 H 0.98657 0.99476 0.35383 0.0
H239 H 0.08732 0.93962 0.41236 0.0
H240 H 0.02324 0.05806 0.76246 0.0
H241 H 0.0348 0.04364 0.65331 0.0
H242 H 0.94549 0.07794 0.67137 0.0
H243 H 0.05605 0.04177 0.7197 0.0
Tb244 Tb 0.48146 0.49231 1.00213 0.0
C245 C 0.59625 0.57415 0.03558 0.0
N246 N 0.59246 0.54394 0.05051 0.0
C247 C 0.64403 0.53094 0.03929 0.0
C248 C 0.62362 0.58375 0.02029 0.0
C249 C 0.61631 0.52254 0.05395 0.0
C250 C 0.64755 0.5616 0.02195 0.0
C251 C 0.57581 0.62713 0.0218 0.0
C252 C 0.57264 0.59536 0.0363 0.0
C253 C 0.60237 0.63674 1.00495 0.0
C254 C 0.62631 0.61511 1.00439 0.0
Tb255 Tb 0.54643 0.53214 0.07319 0.0
N256 N 0.54766 0.58515 0.05343 0.0
C257 C 0.5529 0.64844 0.02606 0.0
C258 C 0.52718 0.60642 0.06099 0.0
C259 C 0.52885 0.63811 0.04645 0.0
H260 H 0.61369 0.49894 0.06755 0.0
H261 H 0.51195 0.65463 0.05165 0.0
H262 H 0.41992 0.54244 0.98447 0.0
H263 H 0.48546 0.36841 0.0507 0.0
H264 H 0.50981 0.59931 0.07883 0.0
H265 H 0.55441 0.67306 0.01529 0.0
H266 H 0.50485 0.41874 0.0211 0.0
H267 H 0.66262 0.51377 0.04132 0.0
H268 H 0.60508 0.661 0.99331 0.0
H269 H 0.64709 0.62297 0.99228 0.0
H270 H 0.36834 0.54597 1.00517 0.0
H271 H 0.66896 0.56802 1.01047 0.0
H272 H 0.43461 0.36665 0.0751 0.0
N273 N 0.43165 0.49765 0.01646 0.0
C274 C 0.41993 0.47177 0.03543 0.0
C275 C 0.38287 0.52514 0.01454 0.0
C276 C 0.38971 0.47197 0.04612 0.0
C277 C 0.41264 0.52341 1.00375 0.0
C278 C 0.37158 0.49949 0.03647 0.0
N279 N 0.46612 0.44514 0.03034 0.0
C280 C 0.48291 0.41817 0.0322 0.0
C281 C 0.42532 0.41627 0.05865 0.0
C282 C 0.43743 0.44436 0.04183 0.0
C283 C 0.4431 0.38874 0.06233 0.0
C284 C 0.47186 0.38966 0.04868 0.0
H285 H 0.34827 0.50068 0.04423 0.0
H286 H 0.35498 0.44412 0.07321 0.0
H287 H 0.3861 0.39523 0.08385 0.0
O288 O 0.492 0.47054 0.95779 0.0
O289 O 0.4932 0.47283 0.06195 0.0
O290 O 0.50251 0.51498 0.09244 0.0
O291 O 0.44665 0.49159 0.95493 0.0
O292 O 0.53008 0.47396 1.0105 0.0
O293 O 0.5543 0.48246 0.06967 0.0
O294 O 0.56455 0.55615 0.11766 0.0
O295 O 0.55433 0.52903 0.01613 0.0
O296 O 0.50513 0.53506 0.98044 0.0
O297 O 0.57228 0.50695 0.12185 0.0
O298 O 0.49687 0.54847 0.0646 0.0
O299 O 0.47641 0.54261 1.00397 0.0
C300 C 0.49027 0.48724 0.09013 0.0
C301 C 0.44805 0.4484 0.92327 0.0
C302 C 0.43301 0.41973 0.87079 0.0
C303 C 0.41689 0.39815 0.89365 0.0
C304 C 0.43112 0.42688 0.94502 0.0
C305 C 0.41598 0.40177 0.93043 0.0
C306 C 0.44876 0.44486 0.88596 0.0
C307 C 0.55159 0.46715 0.04077 0.0
C308 C 0.46377 0.47528 0.93862 0.0
C309 C 0.37805 0.44439 0.06455 0.0
C310 C 0.39574 0.41653 0.07058 0.0
C311 C 0.53587 0.53973 0.9848 0.0
C312 C 0.56429 0.52599 0.17661 0.0
C313 C 0.56626 0.54021 0.23885 0.0
C314 C 0.54242 0.51825 0.24543 0.0
C315 C 0.54075 0.50408 0.18419 0.0
C316 C 0.57717 0.54392 0.20418 0.0
C317 C 0.52984 0.50038 0.21827 0.0
C318 C 0.47705 0.55672 0.03337 0.0
C319 C 0.5747 0.53077 0.13973 0.0
H320 H 0.40416 0.37889 0.88276 0.0
H321 H 0.42901 0.42967 0.97304 0.0
H322 H 0.403 0.38534 0.94754 0.0
H323 H 0.46138 0.46167 0.8688 0.0
H324 H 0.53381 0.51448 0.27189 0.0
H325 H 0.5308 0.48972 0.16377 0.0
H326 H 0.59525 0.56097 0.19844 0.0
H327 H 0.51162 0.48351 0.22366 0.0
C328 C 0.16927 0.19821 0.48913 0.0
C329 C 0.20129 0.18934 0.49355 0.0
C330 C 0.14548 0.17584 0.49407 0.0
C331 C 0.15379 0.14374 0.50375 0.0
C332 C 0.18596 0.13456 0.50756 0.0
C333 C 0.20923 0.15739 0.50236 0.0
C334 C 0.11147 0.18662 0.48968 0.0
C335 C 0.19586 0.1006 0.51772 0.0
C336 C 0.09827 0.08862 0.55343 0.0
C337 C 0.08256 0.07393 0.5244 0.0
C338 C 0.12135 0.11142 0.54706 0.0
C339 C 0.129 0.11979 0.51075 0.0
C340 C 0.1132 0.10501 0.48133 0.0
C341 C 0.09028 0.08221 0.48852 0.0
C342 C 0.13769 0.12644 0.57928 0.0
C343 C 0.12051 0.11329 0.44221 0.0
H344 H 0.16283 0.22278 0.48283 0.0
H345 H 0.23378 0.15018 0.50528 0.0
H346 H 0.09637 0.17454 0.46892 0.0
H347 H 0.10247 0.18039 0.51652 0.0
H348 H 0.1087 0.21225 0.4807 0.0
H349 H 0.22173 0.09722 0.51893 0.0
H350 H 0.18944 0.09094 0.54525 0.0
H351 H 0.18304 0.08684 0.49708 0.0
H352 H 0.09268 0.08212 0.5813 0.0
H353 H 0.07819 0.07103 0.46591 0.0
H354 H 0.13401 0.15214 0.57312 0.0
H355 H 0.16359 0.12197 0.58329 0.0
H356 H 0.12888 0.11754 0.60573 0.0
H357 H 0.11619 0.1386 0.43225 0.0
H358 H 0.10596 0.09988 0.42236 0.0
H359 H 0.1459 0.1086 0.44193 0.0
C360 C 0.36738 0.70678 0.02865 0.0
C361 C 0.33522 0.69929 0.0206 0.0
C362 C 0.39123 0.68405 0.03192 0.0
C363 C 0.38275 0.65303 0.02712 0.0
C364 C 0.35035 0.64517 0.01976 0.0
C365 C 0.32702 0.66836 0.01656 0.0
C366 C 0.42552 0.69335 0.03975 0.0
C367 C 0.34032 0.61233 0.01467 0.0
C368 C 0.44221 0.60087 0.99807 0.0
C369 C 0.45374 0.58201 0.03191 0.0
C370 C 0.41933 0.62426 0.99619 0.0
C371 C 0.40775 0.62892 0.02896 0.0
C372 C 0.41964 0.61015 0.0633 0.0
C373 C 0.44254 0.58697 0.06436 0.0
C374 C 0.40734 0.64379 0.95906 0.0
C375 C 0.40786 0.61427 0.09883 0.0
H376 H 0.37396 0.73067 0.0314 0.0
H377 H 0.30224 0.66227 1.01084 0.0
H378 H 0.43783 0.67831 0.06497 0.0
H379 H 0.43766 0.68979 0.01619 0.0
H380 H 0.42817 0.71816 0.04395 0.0
H381 H 0.31417 0.60968 1.01077 0.0
H382 H 0.3491 0.60596 0.98999 0.0
H383 H 0.35096 0.59545 0.03919 0.0
H384 H 0.45102 0.59723 0.973 0.0
H385 H 0.4513 0.57231 0.09056 0.0
H386 H 0.41111 0.66894 0.96086 0.0
H387 H 0.38147 0.64045 0.95154 0.0
H388 H 0.41927 0.6377 0.93637 0.0
H389 H 0.41161 0.63867 0.10417 0.0
H390 H 0.41997 0.59819 0.12335 0.0
H391 H 0.38202 0.60992 0.09598 0.0
C392 C 0.82252 0.85966 0.5695 0.0
C393 C 0.83275 0.82879 0.58337 0.0
C394 C 0.84431 0.88392 0.56383 0.0
C395 C 0.87725 0.87728 0.57213 0.0
C396 C 0.88777 0.84633 0.58674 0.0
C397 C 0.86546 0.82254 0.59222 0.0
C398 C 0.83207 0.91658 0.54825 0.0
C399 C 0.92266 0.83824 0.59612 0.0
C400 C 0.9337 0.93203 0.52343 0.0
C401 C 0.94609 0.94965 0.55127 0.0
C402 C 0.91128 0.90854 0.52981 0.0
C403 C 0.90072 0.90256 0.56482 0.0
C404 C 0.91282 0.92054 0.59287 0.0
C405 C 0.93531 0.94382 0.58577 0.0
C406 C 0.89905 0.88994 0.49912 0.0
C407 C 0.90221 0.91501 0.63054 0.0
H408 H 0.79738 0.86477 0.56205 0.0
H409 H 0.87369 0.79892 0.60345 0.0
H410 H 0.8422 0.93319 0.56701 0.0
H411 H 0.83974 0.92421 0.52087 0.0
H412 H 0.80582 0.91817 0.54455 0.0
H413 H 0.92701 0.81318 0.60785 0.0
H414 H 0.93391 0.84363 0.57073 0.0
H415 H 0.93454 0.85268 0.61657 0.0
H416 H 0.94162 0.93652 0.49656 0.0
H417 H 0.94474 0.95722 0.60753 0.0
H418 H 0.87289 0.89221 0.49224 0.0
H419 H 0.90472 0.86479 0.50865 0.0
H420 H 0.90937 0.89764 0.47338 0.0
H421 H 0.8761 0.91775 0.62721 0.0
H422 H 0.91342 0.93135 0.64913 0.0
H423 H 0.90817 0.89072 0.6443 0.0
C424 C 0.66228 0.31682 0.04795 0.0
C425 C 0.68989 0.32586 0.03313 0.0
C426 C 0.63973 0.33909 0.05132 0.0
C427 C 0.64498 0.37122 0.0398 0.0
C428 C 0.67315 0.38055 0.02563 0.0
C429 C 0.69519 0.35778 0.02237 0.0
C430 C 0.60992 0.32817 0.06633 0.0
C431 C 0.67976 0.41459 1.01331 0.0
C432 C 0.57437 0.4268 1.01003 0.0
C433 C 0.57483 0.44175 0.04138 0.0
C434 C 0.59674 0.40356 1.00943 0.0
C435 C 0.62037 0.39501 0.04086 0.0
C436 C 0.62079 0.40964 0.0728 0.0
C437 C 0.59796 0.43271 0.07275 0.0
C438 C 0.5953 0.38844 0.97487 0.0
C439 C 0.64564 0.40121 0.10685 0.0
H440 H 0.65786 0.29219 0.05598 0.0
H441 H 0.71667 0.36498 1.01141 0.0
H442 H 0.60694 0.34016 0.09012 0.0
H443 H 0.58901 0.33436 0.04446 0.0
H444 H 0.61007 0.30252 0.07569 0.0
H445 H 0.70343 0.41809 1.0046 0.0
H446 H 0.66148 0.42433 0.98957 0.0
H447 H 0.67844 0.42817 0.03625 0.0
H448 H 0.55664 0.43342 0.98562 0.0
H449 H 0.59849 0.44388 0.09724 0.0
H450 H 0.5936 0.3627 0.9821 0.0
H451 H 0.61738 0.39329 0.96282 0.0
H452 H 0.57482 0.39697 0.95324 0.0
H453 H 0.64498 0.3758 0.11724 0.0
H454 H 0.64234 0.41425 0.12972 0.0
H455 H 0.66954 0.40633 0.09945 0.0
C456 C 0.17366 0.89532 0.23338 0.0
C457 C 0.15553 0.88068 0.20574 0.0
C458 C 0.15942 0.90775 0.25996 0.0
C459 C 0.12624 0.90538 0.25907 0.0
C460 C 0.10785 0.89046 0.23139 0.0
C461 C 0.12268 0.87838 0.20507 0.0
C462 C 0.17983 0.92369 0.28879 0.0
C463 C 0.07244 0.88728 0.22953 0.0
C464 C 0.08943 0.91322 0.34509 0.0
C465 C 0.07671 0.94362 0.33601 0.0
C466 C 0.10621 0.90067 0.32071 0.0
C467 C 0.11052 0.91902 0.28651 0.0
C468 C 0.09862 0.95007 0.2778 0.0
C469 C 0.08186 0.96194 0.30258 0.0
C470 C 0.11847 0.86746 0.33102 0.0
C471 C 0.10294 0.97054 0.24185 0.0
H472 H 0.199 0.8975 0.23387 0.0
H473 H 0.10855 0.86671 0.18418 0.0
H474 H 0.17213 0.94841 0.28603 0.0
H475 H 0.17699 0.91225 0.31718 0.0
H476 H 0.20533 0.92317 0.28613 0.0
H477 H 0.0616 0.8746 0.2067 0.0
H478 H 0.06693 0.87461 0.25631 0.0
H479 H 0.06119 0.91077 0.22517 0.0
H480 H 0.08534 0.89883 0.3707 0.0
H481 H 0.07254 0.98563 0.29564 0.0
H482 H 0.14417 0.86664 0.32965 0.0
H483 H 0.10635 0.85299 0.31073 0.0
H484 H 0.11463 0.85684 0.35941 0.0
H485 H 0.1284 0.97183 0.23909 0.0
H486 H 0.09367 0.99464 0.24009 0.0
H487 H 0.09045 0.96021 0.21785 0.0
C488 C 0.62603 0.64696 0.83684 0.0
C489 C 0.62518 0.63448 0.80363 0.0
C490 C 0.61064 0.63222 0.86585 0.0
C491 C 0.59424 0.60395 0.86203 0.0
C492 C 0.59311 0.59128 0.82857 0.0
C493 C 0.60842 0.6067 0.79982 0.0
C494 C 0.61279 0.64652 0.90105 0.0
C495 C 0.57596 0.56118 0.82331 0.0
C496 C 0.58192 0.54937 0.95028 0.0
C497 C 0.55036 0.55573 0.95292 0.0
C498 C 0.59646 0.56489 0.92101 0.0
C499 C 0.57897 0.58723 0.89333 0.0
C500 C 0.54695 0.59353 0.89564 0.0
C501 C 0.533 0.57763 0.92532 0.0
C502 C 0.63065 0.5575 0.91992 0.0
C503 C 0.52756 0.61741 0.86702 0.0
H504 H 0.63934 0.66802 0.84058 0.0
H505 H 0.60708 0.597 0.77419 0.0
H506 H 0.58948 0.64626 0.91071 0.0
H507 H 0.62959 0.63252 0.92333 0.0
H508 H 0.62136 0.67096 0.89727 0.0
H509 H 0.57689 0.55455 0.79551 0.0
H510 H 0.58662 0.54195 0.84506 0.0
H511 H 0.55078 0.56345 0.82657 0.0
H512 H 0.59528 0.53202 0.97108 0.0
H513 H 0.50863 0.58275 0.92726 0.0
H514 H 0.64522 0.57859 0.92317 0.0
H515 H 0.6331 0.55081 0.89258 0.0
H516 H 0.64038 0.53826 0.9423 0.0
H517 H 0.5389 0.64063 0.86687 0.0
H518 H 0.50292 0.61942 0.8725 0.0
H519 H 0.52673 0.61108 0.8388 0.0
C520 C 0.91459 0.10253 0.26568 0.0
C521 C 0.88423 0.11522 0.26367 0.0
C522 C 0.93127 0.08733 0.29961 0.0
C523 C 0.9173 0.08481 0.33235 0.0
C524 C 0.88634 0.09677 0.33031 0.0
C525 C 0.8702 0.11176 0.29606 0.0
C526 C 0.96416 0.07465 0.30063 0.0
C527 C 0.87064 0.09468 0.36456 0.0
C528 C 0.95025 0.02623 0.41759 0.0
C529 C 0.96951 0.04522 0.43925 0.0
C530 C 0.93351 0.03865 0.38246 0.0
C531 C 0.93557 0.07096 0.36906 0.0
C532 C 0.95474 0.09028 0.39105 0.0
C533 C 0.9717 0.07712 0.42566 0.0
C534 C 0.91341 0.01726 0.35985 0.0
C535 C 0.95725 0.12493 0.37814 0.0
H536 H 0.92575 0.10528 0.24092 0.0
H537 H 0.84654 0.12098 0.29469 0.0
H538 H 0.98162 0.08729 0.31846 0.0
H539 H 0.96565 0.04961 0.31314 0.0
H540 H 0.97102 0.07701 0.27246 0.0
H541 H 0.84541 0.10228 0.35773 0.0
H542 H 0.87196 0.07044 0.37983 0.0
H543 H 0.8834 0.10979 0.38362 0.0
H544 H 0.94806 1.00165 0.42824 0.0
H545 H 0.98683 0.09186 0.44207 0.0
H546 H 0.92068 0.0187 0.332 0.0
H547 H 0.88823 0.02479 0.35535 0.0
H548 H 0.91527 0.9925 0.37362 0.0
H549 H 0.96603 0.12902 0.35102 0.0
H550 H 0.97337 0.13662 0.39847 0.0
H551 H 0.93348 0.13609 0.37381 0.0
C552 C 0.37481 0.3898 0.66416 0.0
C553 C 0.39823 0.39083 0.64126 0.0
C554 C 0.3821 0.39579 0.70101 0.0
C555 C 0.4136 0.40304 0.71547 0.0
C556 C 0.4373 0.40445 0.69243 0.0
C557 C 0.42935 0.39831 0.65568 0.0
C558 C 0.35609 0.3941 0.72459 0.0
C559 C 0.47116 0.41199 0.7068 0.0
C560 C 0.42457 0.44204 0.80264 0.0
C561 C 0.43185 0.41633 0.83091 0.0
C562 C 0.41947 0.43826 0.76485 0.0
C563 C 0.42179 0.40806 0.7551 0.0
C564 C 0.43045 0.38227 0.78348 0.0
C565 C 0.43538 0.38671 0.82095 0.0
C566 C 0.41039 0.46638 0.73544 0.0
C567 C 0.43344 0.34972 0.77435 0.0
H568 H 0.35062 0.38453 0.65315 0.0
H569 H 0.44771 0.3988 0.63841 0.0
H570 H 0.36186 0.37569 0.74925 0.0
H571 H 0.35421 0.41658 0.73506 0.0
H572 H 0.33269 0.38887 0.70897 0.0
H573 H 0.48655 0.41337 0.68496 0.0
H574 H 0.47216 0.4346 0.71755 0.0
H575 H 0.48095 0.39381 0.73037 0.0
H576 H 0.42153 0.46494 0.8101 0.0
H577 H 0.44145 0.36681 0.84263 0.0
H578 H 0.38578 0.4638 0.7213 0.0
H579 H 0.42601 0.46805 0.71388 0.0
H580 H 0.41185 0.48852 0.74733 0.0
H581 H 0.41003 0.34199 0.76134 0.0
H582 H 0.44215 0.3325 0.79945 0.0
H583 H 0.44989 0.34963 0.75391 0.0
C584 C 0.63113 0.58565 0.43548 0.0
C585 C 0.63607 0.61747 0.43765 0.0
C586 C 0.622 0.57524 0.4011 0.0
C587 C 0.61779 0.5971 0.36781 0.0
C588 C 0.6239 0.62912 0.3696 0.0
C589 C 0.63295 0.63893 0.40449 0.0
C590 C 0.6159 0.54086 0.40054 0.0
C591 C 0.6198 0.65316 0.33479 0.0
C592 C 0.61254 0.56157 0.27847 0.0
C593 C 0.57968 0.55852 0.26874 0.0
C594 C 0.62538 0.57538 0.30972 0.0
C595 C 0.60487 0.58645 0.33169 0.0
C596 C 0.57167 0.58489 0.32079 0.0
C597 C 0.55953 0.571 0.28952 0.0
C598 C 0.66089 0.57677 0.32023 0.0
C599 C 0.54889 0.59659 0.34315 0.0
H600 H 0.63412 0.5688 0.46085 0.0
H601 H 0.63653 0.66357 0.40585 0.0
H602 H 0.59055 0.53736 0.38983 0.0
H603 H 0.63001 0.53196 0.38147 0.0
H604 H 0.62183 0.52668 0.42862 0.0
H605 H 0.62839 0.67654 0.34047 0.0
H606 H 0.63274 0.64572 0.3137 0.0
H607 H 0.59438 0.65527 0.32241 0.0
H608 H 0.62828 0.55188 0.26267 0.0
H609 H 0.5341 0.56926 0.28176 0.0
H610 H 0.6686 0.56028 0.34626 0.0
H611 H 0.66817 0.6005 0.32576 0.0
H612 H 0.67348 0.57053 0.29815 0.0
H613 H 0.55128 0.58202 0.37106 0.0
H614 H 0.52386 0.59587 0.32942 0.0
H615 H 0.55459 0.62095 0.34749 0.0
C616 C 0.88137 0.14149 0.85655 0.0
C617 C 0.88584 0.12173 0.89105 0.0
C618 C 0.89436 0.13399 0.82614 0.0
C619 C 0.91228 0.10606 0.83026 0.0
C620 C 0.9162 0.08566 0.8647 0.0
C621 C 0.90304 0.09376 0.8946 0.0
C622 C 0.88955 0.15631 0.78987 0.0
C623 C 0.93521 0.05569 0.87038 0.0
C624 C 0.93124 0.07182 0.74665 0.0
C625 C 0.9628 0.08095 0.74607 0.0
C626 C 0.91408 0.08059 0.77315 0.0
C627 C 0.9288 0.09899 0.79961 0.0
C628 C 0.96025 0.1092 0.79822 0.0
C629 C 0.9768 0.10008 0.77153 0.0
C630 C 0.88059 0.06926 0.77368 0.0
C631 C 0.97682 0.12903 0.82565 0.0
H632 H 0.86778 0.16294 0.85333 0.0
H633 H 0.90711 0.07852 0.92122 0.0
H634 H 0.91268 0.16601 0.78396 0.0
H635 H 0.8797 0.14378 0.76654 0.0
H636 H 0.87336 0.17602 0.79038 0.0
H637 H 0.93442 0.04146 0.89805 0.0
H638 H 0.92618 0.04142 0.84845 0.0
H639 H 0.96029 0.06116 0.86796 0.0
H640 H 0.9203 0.05694 0.72719 0.0
H641 H 1.00097 0.10776 0.7708 0.0
H642 H 0.86449 0.08913 0.77361 0.0
H643 H 0.87957 0.05268 0.79964 0.0
H644 H 0.87167 0.05732 0.74948 0.0
H645 H 0.96243 0.15022 0.82527 0.0
H646 H 1.00068 0.1364 0.8196 0.0
H647 H 0.97944 0.1157 0.85427 0.0
C648 C 0.42804 0.40205 0.27549 0.0
C649 C 0.39584 0.39457 0.26801 0.0
C650 C 0.44402 0.41741 0.24732 0.0
C651 C 0.42736 0.42596 0.21066 0.0
C652 C 0.39472 0.41895 0.20309 0.0
C653 C 0.37945 0.40328 0.2317 0.0
C654 C 0.47863 0.42481 0.25729 0.0
C655 C 0.37595 0.42726 0.16453 0.0
C656 C 0.46025 0.48928 0.14299 0.0
C657 C 0.47444 0.47155 0.12108 0.0
C658 C 0.44521 0.47481 0.17244 0.0
C659 C 0.44404 0.44176 0.18008 0.0
C660 C 0.45864 0.42378 0.15823 0.0
C661 C 0.47393 0.43888 0.12934 0.0
C662 C 0.43046 0.49489 0.19535 0.0
C663 C 0.45816 0.38854 0.16546 0.0
H664 H 0.44105 0.39533 0.30333 0.0
H665 H 0.35448 0.39803 0.22561 0.0
H666 H 0.49203 0.42242 0.23439 0.0
H667 H 0.48069 0.44931 0.26265 0.0
H668 H 0.48992 0.40947 0.28291 0.0
H669 H 0.35002 0.42516 0.16453 0.0
H670 H 0.38106 0.4514 0.15197 0.0
H671 H 0.38291 0.41112 0.14654 0.0
H672 H 0.46079 0.51458 0.13699 0.0
H673 H 0.48572 0.42505 0.11334 0.0
H674 H 0.44152 0.4893 0.22501 0.0
H675 H 0.40482 0.48978 0.19384 0.0
H676 H 0.4333 0.52025 0.18583 0.0
H677 H 0.46834 0.37993 0.19489 0.0
H678 H 0.47168 0.37793 0.14703 0.0
H679 H 0.43333 0.38039 0.16092 0.0
C680 C 0.09399 0.93375 0.81754 0.0
C681 C 0.12348 0.91836 0.82755 0.0
C682 C 0.08174 0.9447 0.78015 0.0
C683 C 0.09927 0.94005 0.75184 0.0
C684 C 0.12887 0.92424 0.76157 0.0
C685 C 0.14064 0.91358 0.79931 0.0
C686 C 0.05008 0.96148 0.77094 0.0
C687 C 0.1481 0.91861 0.73213 0.0
C688 C 0.05186 0.94656 0.65437 0.0
C689 C 0.05783 0.97742 0.63934 0.0
C690 C 0.06615 0.93365 0.69043 0.0
C691 C 0.08658 0.95221 0.71217 0.0
C692 C 0.09337 0.98313 0.69668 0.0
C693 C 0.07909 0.99527 0.66032 0.0
C694 C 0.05866 0.90044 0.7056 0.0
C695 C 0.11532 1.00355 0.71875 0.0
H696 H 0.08026 0.93705 0.83901 0.0
H697 H 0.16354 0.90196 0.80673 0.0
H698 H 0.05299 0.98557 0.7566 0.0
H699 H 0.03348 0.94936 0.75157 0.0
H700 H 0.0392 0.96283 0.79613 0.0
H701 H 0.17111 0.90681 0.74431 0.0
H702 H 0.13452 0.9039 0.71311 0.0
H703 H 0.15275 0.94108 0.71494 0.0
H704 H 0.03546 0.93265 0.63819 0.0
H705 H 0.08444 0.01884 0.64836 0.0
H706 H 0.0452 0.90036 0.72902 0.0
H707 H 0.08084 0.8869 0.71671 0.0
H708 H 0.04446 0.88837 0.68409 0.0
H709 H 0.10638 0.00608 0.74485 0.0
H710 H 0.11777 0.02721 0.70285 0.0
H711 H 0.13913 0.99243 0.72681 0.0
loop_
_geom_bond_atom_site_label_1
_geom_bond_atom_site_label_2
_geom_bond_distance
_geom_bond_site_symmetry_2
_ccdc_geom_bond_type
C0 C1 1.264 . S
C0 C5 1.479 . S
C0 C10 1.465 . S
C1 C0 1.264 . S
C1 C3 1.339 . S
C1 H28 0.931 . S
C2 C3 1.395 . S
C2 C4 1.320 . S
C3 C1 1.339 . S
C3 C2 1.395 . S
C3 H29 0.929 . S
C4 C2 1.320 . S
C4 C5 1.405 . S
C4 H30 0.930 . S
C5 C0 1.479 . S
C5 C4 1.405 . S
C5 H31 0.931 . S
U6 O7 2.454 . S
U6 O8 2.455 1_554 S
U6 C9 2.984 . S
U6 C10 2.847 . S
U6 C23 2.882 1_554 S
U6 O24 2.441 . S
U6 O25 2.420 . S
U6 O26 2.455 1_554 S
U6 O27 2.449 1_554 S
O7 U6 2.454 . S
O7 C9 1.353 . S
O8 U6 2.455 1_556 S
O8 C9 1.282 1_556 S
C9 U6 2.984 . S
C9 O7 1.353 . S
C9 O8 1.282 1_554 S
C9 C11 1.363 . S
C10 C0 1.465 . S
C10 U6 2.847 . S
C10 O24 1.249 . S
C10 O25 1.202 . S
C11 C9 1.363 . S
C11 C13 1.408 . S
C11 C16 1.342 . S
C12 C13 1.310 . S
C12 C15 1.461 . S
C12 H32 0.932 . S
C13 C11 1.408 . S
C13 C12 1.310 . S
C13 H33 0.930 . S
C14 C15 1.474 . S
C14 C16 1.285 . S
C14 H34 0.929 1_554 S
C15 C12 1.461 . S
C15 C14 1.474 . S
C16 C11 1.342 . S
C16 C14 1.285 . S
C16 H35 0.930 1_554 S
C17 C20 1.424 . S
C17 C22 1.245 . S
C17 C23 1.428 . S
C18 C21 1.260 . S
C18 C22 1.477 . S
C18 H36 0.932 . S
C19 C20 1.384 . S
C19 C21 1.479 . S
C19 H37 0.929 . S
C20 C17 1.424 . S
C20 C19 1.384 . S
C20 H38 0.928 . S
C21 C18 1.260 . S
C21 C19 1.479 . S
C22 C17 1.245 . S
C22 C18 1.477 . S
C22 H39 0.932 . S
C23 U6 2.882 1_556 S
C23 C17 1.428 . S
C23 O26 1.301 . S
C23 O27 1.282 . S
O24 U6 2.441 . S
O24 C10 1.249 . S
O25 U6 2.420 . S
O25 C10 1.202 . S
O26 U6 2.455 1_556 S
O26 C23 1.301 . S
O27 U6 2.449 1_556 S
O27 C23 1.282 . S
H28 C1 0.931 . S
H29 C3 0.929 . S
H30 C4 0.930 . S
H31 C5 0.931 . S
H32 C12 0.932 . S
H33 C13 0.930 . S
H34 C14 0.929 1_556 S
H35 C16 0.930 1_556 S
H36 C18 0.932 . S
H37 C19 0.929 . S
H38 C20 0.928 . S
H39 C22 0.932 . S
C40 C41 1.264 . S
C40 C45 1.479 . S
C40 C50 1.465 . S
C41 C40 1.264 . S
C41 C43 1.339 . S
C41 H68 0.931 . S
C42 C43 1.395 . S
C42 C44 1.320 . S
C43 C41 1.339 . S
C43 C42 1.395 . S
C43 H69 0.929 . S
C44 C42 1.320 . S
C44 C45 1.405 . S
C44 H70 0.930 . S
C45 C40 1.479 . S
C45 C44 1.405 . S
C45 H71 0.931 . S
U46 O47 2.454 . S
U46 O48 2.458 . S
U46 C49 2.984 . S
U46 C50 2.847 . S
U46 C63 2.882 . S
U46 O64 2.441 . S
U46 O65 2.420 . S
U46 O66 2.455 . S
U46 O67 2.449 . S
O47 U46 2.454 . S
O47 C49 1.353 . S
O48 U46 2.458 . S
O48 C49 1.286 . S
C49 U46 2.984 . S
C49 O47 1.353 . S
C49 O48 1.286 . S
C49 C51 1.363 . S
C50 C40 1.465 . S
C50 U46 2.847 . S
C50 O64 1.249 . S
C50 O65 1.202 . S
C51 C49 1.363 . S
C51 C53 1.408 . S
C51 C56 1.342 . S
C52 C53 1.310 . S
C52 C55 1.461 . S
C52 H72 0.932 . S
C53 C51 1.408 . S
C53 C52 1.310 . S
C53 H73 0.930 . S
C54 C55 1.474 . S
C54 C56 1.285 . S
C54 H74 0.929 . S
C55 C52 1.461 . S
C55 C54 1.474 . S
C56 C51 1.342 . S
C56 C54 1.285 . S
C56 H75 0.930 . S
C57 C60 1.424 . S
C57 C62 1.245 . S
C57 C63 1.428 . S
C58 C61 1.260 . S
C58 C62 1.477 . S
C58 H76 0.932 . S
C59 C60 1.384 . S
C59 C61 1.479 . S
C59 H77 0.929 . S
C60 C57 1.424 . S
C60 C59 1.384 . S
C60 H78 0.928 . S
C61 C58 1.260 . S
C61 C59 1.479 . S
C62 C57 1.245 . S
C62 C58 1.477 . S
C62 H79 0.932 . S
C63 U46 2.882 . S
C63 C57 1.428 . S
C63 O66 1.301 . S
C63 O67 1.282 . S
O64 U46 2.441 . S
O64 C50 1.249 . S
O65 U46 2.420 . S
O65 C50 1.202 . S
O66 U46 2.455 . S
O66 C63 1.301 . S
O67 U46 2.449 . S
O67 C63 1.282 . S
H68 C41 0.931 . S
H69 C43 0.929 . S
H70 C44 0.930 . S
H71 C45 0.931 . S
H72 C52 0.932 . S
H73 C53 0.930 . S
H74 C54 0.929 . S
H75 C56 0.930 . S
H76 C58 0.932 . S
H77 C59 0.929 . S
H78 C60 0.928 . S
H79 C62 0.932 . S
C80 C81 1.264 . S
C80 C85 1.479 . S
C80 C90 1.465 . S
C81 C80 1.264 . S
C81 C83 1.339 . S
C81 H108 0.931 . S
C82 C83 1.395 . S
C82 C84 1.320 . S
C83 C81 1.339 . S
C83 C82 1.395 . S
C83 H109 0.929 . S
C84 C82 1.320 . S
C84 C85 1.405 . S
C84 H110 0.930 . S
C85 C80 1.479 . S
C85 C84 1.405 . S
C85 H111 0.931 . S
U86 O87 2.454 . S
U86 O88 2.467 . S
U86 C89 2.984 . S
U86 C90 2.847 . S
U86 C103 2.882 1_554 S
U86 O104 2.441 . S
U86 O105 2.420 . S
U86 O106 2.455 1_554 S
U86 O107 2.449 . S
O87 U86 2.454 . S
O87 C89 1.353 . S
O88 U86 2.467 . S
O88 C89 1.307 . S
C89 U86 2.984 . S
C89 O87 1.353 . S
C89 O88 1.307 . S
C89 C91 1.363 . S
C90 C80 1.465 . S
C90 U86 2.847 . S
C90 O104 1.249 . S
C90 O105 1.202 . S
C91 C89 1.363 . S
C91 C93 1.408 . S
C91 C96 1.342 1_554 S
C92 C93 1.310 . S
C92 C95 1.461 . S
C92 H112 0.932 . S
C93 C91 1.408 . S
C93 C92 1.310 . S
C93 H113 0.930 . S
C94 C95 1.474 1_556 S
C94 C96 1.285 . S
C94 H114 0.929 . S
C95 C92 1.461 . S
C95 C94 1.474 1_554 S
C96 C91 1.342 1_556 S
C96 C94 1.285 . S
C96 H115 0.930 . S
C97 C100 1.424 . S
C97 C102 1.245 . S
C97 C103 1.428 . S
C98 C101 1.260 . S
C98 C102 1.477 . S
C98 H116 0.932 . S
C99 C100 1.384 . S
C99 C101 1.479 . S
C99 H117 0.929 . S
C100 C97 1.424 . S
C100 C99 1.384 . S
C100 H118 0.928 . S
C101 C98 1.260 . S
C101 C99 1.479 . S
C102 C97 1.245 . S
C102 C98 1.477 . S
C102 H119 0.932 . S
C103 U86 2.882 1_556 S
C103 C97 1.428 . S
C103 O106 1.301 . S
C103 O107 1.282 1_556 S
O104 U86 2.441 . S
O104 C90 1.249 . S
O105 U86 2.420 . S
O105 C90 1.202 . S
O106 U86 2.455 1_556 S
O106 C103 1.301 . S
O107 U86 2.449 . S
O107 C103 1.282 1_554 S
H108 C81 0.931 . S
H109 C83 0.929 . S
H110 C84 0.930 . S
H111 C85 0.931 . S
H112 C92 0.932 . S
H113 C93 0.930 . S
H114 C94 0.929 . S
H115 C96 0.930 . S
H116 C98 0.932 . S
H117 C99 0.929 . S
H118 C100 0.928 . S
H119 C102 0.932 . S
C120 C121 1.264 . S
C120 C125 1.479 . S
C120 C130 1.465 . S
C121 C120 1.264 . S
C121 C123 1.339 . S
C121 H148 0.931 . S
C122 C123 1.395 . S
C122 C124 1.320 . S
C123 C121 1.339 . S
C123 C122 1.395 . S
C123 H149 0.929 . S
C124 C122 1.320 . S
C124 C125 1.405 . S
C124 H150 0.930 . S
C125 C120 1.479 . S
C125 C124 1.405 . S
C125 H151 0.931 . S
U126 O127 2.454 . S
U126 O128 2.458 . S
U126 C129 2.984 . S
U126 C130 2.847 . S
U126 C143 2.882 . S
U126 O144 2.441 . S
U126 O145 2.420 . S
U126 O146 2.455 . S
U126 O147 2.449 . S
O127 U126 2.454 . S
O127 C129 1.353 . S
O128 U126 2.458 . S
O128 C129 1.286 . S
C129 U126 2.984 . S
C129 O127 1.353 . S
C129 O128 1.286 . S
C129 C131 1.363 . S
C130 C120 1.465 . S
C130 U126 2.847 . S
C130 O144 1.249 . S
C130 O145 1.202 . S
C131 C129 1.363 . S
C131 C133 1.408 . S
C131 C136 1.342 . S
C132 C133 1.310 . S
C132 C135 1.461 . S
C132 H152 0.932 . S
C133 C131 1.408 . S
C133 C132 1.310 . S
C133 H153 0.930 . S
C134 C135 1.474 . S
C134 C136 1.285 . S
C134 H154 0.929 . S
C135 C132 1.461 . S
C135 C134 1.474 . S
C136 C131 1.342 . S
C136 C134 1.285 . S
C136 H155 0.930 . S
C137 C140 1.424 . S
C137 C142 1.245 . S
C137 C143 1.428 . S
C138 C141 1.260 . S
C138 C142 1.477 . S
C138 H156 0.932 . S
C139 C140 1.384 . S
C139 C141 1.479 . S
C139 H157 0.929 . S
C140 C137 1.424 . S
C140 C139 1.384 . S
C140 H158 0.928 . S
C141 C138 1.260 . S
C141 C139 1.479 . S
C142 C137 1.245 . S
C142 C138 1.477 . S
C142 H159 0.932 . S
C143 U126 2.882 . S
C143 C137 1.428 . S
C143 O146 1.301 . S
C143 O147 1.282 . S
O144 U126 2.441 . S
O144 C130 1.249 . S
O145 U126 2.420 . S
O145 C130 1.202 . S
O146 U126 2.455 . S
O146 C143 1.301 . S
O147 U126 2.449 . S
O147 C143 1.282 . S
H148 C121 0.931 . S
H149 C123 0.929 . S
H150 C124 0.930 . S
H151 C125 0.931 . S
H152 C132 0.932 . S
H153 C133 0.930 . S
H154 C134 0.929 . S
H155 C136 0.930 . S
H156 C138 0.932 . S
H157 C139 0.929 . S
H158 C140 0.928 . S
H159 C142 0.932 . S
Tb160 N189 2.617 . S
Tb160 N195 2.572 . S
Tb160 O204 2.465 . S
Tb160 O205 2.387 . S
Tb160 O207 2.428 . S
Tb160 O208 2.308 1_565 S
Tb160 O212 2.362 1_455 S
Tb160 O215 2.393 1_455 S
Tb160 C224 2.802 . S
C161 N162 1.379 . S
C161 C164 1.416 . S
C161 C168 1.424 . S
N162 C161 1.379 . S
N162 C165 1.334 1_655 S
N162 Tb171 2.617 . S
C163 C165 1.390 1_655 S
C163 C166 1.364 . S
C163 H183 0.905 1_655 S
C164 C161 1.416 . S
C164 C166 1.416 . S
C164 C170 1.448 . S
C165 N162 1.334 1_455 S
C165 C163 1.390 1_455 S
C165 H176 0.930 . S
C166 C163 1.364 . S
C166 C164 1.416 . S
C166 H187 0.930 . S
C167 C168 1.413 . S
C167 C169 1.427 . S
C167 C173 1.416 . S
C168 C161 1.424 . S
C168 C167 1.413 . S
C168 N172 1.361 . S
C169 C167 1.427 . S
C169 C170 1.328 . S
C169 H184 0.929 . S
C170 C164 1.448 . S
C170 C169 1.328 . S
C170 H185 0.930 . S
Tb171 N162 2.617 . S
Tb171 N172 2.572 . S
Tb171 O206 2.349 1_655 S
Tb171 O209 2.393 1_655 S
Tb171 O210 2.465 . S
Tb171 O211 2.387 . S
Tb171 O213 2.428 . S
Tb171 O214 2.308 1_545 S
Tb171 C235 2.802 . S
N172 C168 1.361 . S
N172 Tb171 2.572 . S
N172 C174 1.340 . S
C173 C167 1.416 . S
C173 C175 1.332 . S
C173 H181 0.931 . S
C174 N172 1.340 . S
C174 C175 1.407 . S
C174 H180 0.930 . S
C175 C173 1.332 . S
C175 C174 1.407 . S
C175 H177 0.929 . S
H176 C165 0.930 . S
H177 C175 0.929 . S
H178 C193 0.930 1_655 S
H179 C200 0.929 . S
H180 C174 0.930 . S
H181 C173 0.931 . S
H182 C196 0.930 . S
H183 C163 0.905 1_455 S
H184 C169 0.929 . S
H185 C170 0.930 . S
H186 C191 0.930 1_655 S
H187 C166 0.930 . S
H188 C199 0.931 . S
N189 Tb160 2.617 . S
N189 C190 1.379 . S
N189 C193 1.334 . S
C190 N189 1.379 . S
C190 C192 1.416 . S
C190 C198 1.424 . S
C191 H186 0.930 1_455 S
C191 C193 1.390 . S
C191 C194 1.339 . S
C192 C190 1.416 . S
C192 C194 1.416 . S
C192 C225 1.448 . S
C193 H178 0.930 1_455 S
C193 N189 1.334 . S
C193 C191 1.390 . S
C194 C191 1.339 . S
C194 C192 1.416 . S
C194 H201 0.930 . S
N195 Tb160 2.572 . S
N195 C196 1.340 . S
N195 C198 1.361 . S
C196 H182 0.930 . S
C196 N195 1.340 . S
C196 C200 1.407 . S
C197 C198 1.413 . S
C197 C199 1.416 . S
C197 C226 1.427 . S
C198 C190 1.424 . S
C198 N195 1.361 . S
C198 C197 1.413 . S
C199 H188 0.931 . S
C199 C197 1.416 . S
C199 C200 1.332 . S
C200 H179 0.929 . S
C200 C196 1.407 . S
C200 C199 1.332 . S
H201 C194 0.930 . S
H202 C225 0.930 . S
H203 C226 0.929 . S
O204 Tb160 2.465 . S
O204 C224 1.264 . S
O205 Tb160 2.387 . S
O205 C216 1.264 . S
O206 Tb171 2.349 1_455 S
O206 C216 1.243 1_545 S
O207 Tb160 2.428 . S
O207 C224 1.256 . S
O208 Tb160 2.308 1_545 S
O208 C223 1.266 . S
O209 Tb171 2.393 1_455 S
O209 C223 1.248 . S
O210 Tb171 2.465 . S
O210 C235 1.264 . S
O211 Tb171 2.387 . S
O211 C227 1.264 . S
O212 Tb160 2.362 1_655 S
O212 C227 1.223 1_565 S
O213 Tb171 2.428 . S
O213 C235 1.256 . S
O214 Tb171 2.308 1_565 S
O214 C234 1.266 . S
O215 Tb160 2.393 1_655 S
O215 C234 1.248 . S
C216 O205 1.264 . S
C216 O206 1.243 1_565 S
C217 C220 1.399 . S
C217 C222 1.383 . S
C217 C224 1.496 . S
C218 C219 1.399 . S
C218 C222 1.389 . S
C219 C218 1.399 . S
C219 C221 1.380 . S
C219 H236 0.929 . S
C220 C217 1.399 . S
C220 C221 1.392 . S
C220 H237 0.929 . S
C221 C219 1.380 . S
C221 C220 1.392 . S
C221 H238 0.929 . S
C222 C217 1.383 . S
C222 C218 1.389 . S
C222 H239 0.931 . S
C223 O208 1.266 . S
C223 O209 1.248 . S
C224 Tb160 2.802 . S
C224 O204 1.264 . S
C224 O207 1.256 . S
C224 C217 1.496 . S
C225 C192 1.448 . S
C225 H202 0.930 . S
C225 C226 1.328 . S
C226 C197 1.427 . S
C226 H203 0.929 . S
C226 C225 1.328 . S
C227 O211 1.264 . S
C227 O212 1.223 1_545 S
C228 C231 1.399 . S
C228 C232 1.383 . S
C228 C235 1.496 . S
C229 C230 1.399 . S
C229 C232 1.389 . S
C230 C229 1.399 . S
C230 C233 1.380 . S
C230 H240 0.929 . S
C231 C228 1.399 . S
C231 C233 1.392 . S
C231 H241 0.929 . S
C232 C228 1.383 . S
C232 C229 1.389 . S
C232 H242 0.931 . S
C233 C230 1.380 . S
C233 C231 1.392 . S
C233 H243 0.929 . S
C234 O214 1.266 . S
C234 O215 1.248 . S
C235 Tb171 2.802 . S
C235 O210 1.264 . S
C235 O213 1.256 . S
C235 C228 1.496 . S
H236 C219 0.929 . S
H237 C220 0.929 . S
H238 C221 0.929 . S
H239 C222 0.931 . S
H240 C230 0.929 . S
H241 C231 0.929 . S
H242 C232 0.931 . S
H243 C233 0.929 . S
Tb244 N273 2.617 . S
Tb244 N279 2.572 1_556 S
Tb244 O288 2.465 . S
Tb244 O289 2.387 1_556 S
Tb244 O291 2.428 . S
Tb244 O292 2.308 1_556 S
Tb244 O296 2.349 . S
Tb244 O299 2.393 . S
Tb244 C308 2.802 . S
C245 N246 1.379 . S
C245 C248 1.416 . S
C245 C252 1.424 . S
N246 C245 1.379 . S
N246 C249 1.334 . S
N246 Tb255 2.617 . S
C247 C249 1.390 . S
C247 C250 1.339 . S
C247 H267 0.930 . S
C248 C245 1.416 . S
C248 C250 1.416 . S
C248 C254 1.448 . S
C249 N246 1.334 . S
C249 C247 1.390 . S
C249 H260 0.930 . S
C250 C247 1.339 . S
C250 C248 1.416 . S
C250 H271 0.930 . S
C251 C252 1.413 . S
C251 C253 1.427 . S
C251 C257 1.416 . S
C252 C245 1.424 . S
C252 C251 1.413 . S
C252 N256 1.361 . S
C253 C251 1.427 . S
C253 C254 1.328 . S
C253 H268 0.929 . S
C254 C248 1.448 . S
C254 C253 1.328 . S
C254 H269 0.930 . S
Tb255 N246 2.617 . S
Tb255 N256 2.572 . S
Tb255 O290 2.349 . S
Tb255 O293 2.393 . S
Tb255 O294 2.465 . S
Tb255 O295 2.387 1_554 S
Tb255 O297 2.428 . S
Tb255 O298 2.308 . S
Tb255 C319 2.802 . S
N256 C252 1.361 . S
N256 Tb255 2.572 . S
N256 C258 1.340 . S
C257 C251 1.416 . S
C257 C259 1.332 . S
C257 H265 0.931 . S
C258 N256 1.340 . S
C258 C259 1.407 . S
C258 H264 0.930 . S
C259 C257 1.332 . S
C259 C258 1.407 . S
C259 H261 0.929 . S
H260 C249 0.930 . S
H261 C259 0.929 . S
H262 C277 0.930 . S
H263 C284 0.929 . S
H264 C258 0.930 . S
H265 C257 0.931 . S
H266 C280 0.930 . S
H267 C247 0.930 . S
H268 C253 0.929 . S
H269 C254 0.930 . S
H270 C275 0.930 . S
H271 C250 0.930 . S
H272 C283 0.931 . S
N273 Tb244 2.617 . S
N273 C274 1.379 1_556 S
N273 C277 1.334 . S
C274 N273 1.379 1_554 S
C274 C276 1.416 . S
C274 C282 1.424 . S
C275 H270 0.930 . S
C275 C277 1.390 . S
C275 C278 1.339 1_556 S
C276 C274 1.416 . S
C276 C278 1.416 . S
C276 C309 1.448 . S
C277 H262 0.930 . S
C277 N273 1.334 . S
C277 C275 1.390 . S
C278 C275 1.339 1_554 S
C278 C276 1.416 . S
C278 H285 0.930 . S
N279 Tb244 2.572 1_554 S
N279 C280 1.340 . S
N279 C282 1.361 . S
C280 H266 0.930 . S
C280 N279 1.340 . S
C280 C284 1.407 . S
C281 C282 1.413 . S
C281 C283 1.416 . S
C281 C310 1.427 . S
C282 C274 1.424 . S
C282 N279 1.361 . S
C282 C281 1.413 . S
C283 H272 0.931 . S
C283 C281 1.416 . S
C283 C284 1.332 . S
C284 H263 0.929 . S
C284 C280 1.407 . S
C284 C283 1.332 . S
H285 C278 0.930 . S
H286 C309 0.930 . S
H287 C310 0.929 . S
O288 Tb244 2.465 . S
O288 C308 1.264 . S
O289 Tb244 2.387 1_554 S
O289 C300 1.264 . S
O290 Tb255 2.349 . S
O290 C300 1.243 . S
O291 Tb244 2.428 . S
O291 C308 1.256 . S
O292 Tb244 2.308 1_554 S
O292 C307 1.266 . S
O293 Tb255 2.393 . S
O293 C307 1.248 . S
O294 Tb255 2.465 . S
O294 C319 1.264 . S
O295 Tb255 2.387 1_556 S
O295 C311 1.264 . S
O296 Tb244 2.349 . S
O296 C311 1.243 . S
O297 Tb255 2.428 . S
O297 C319 1.256 . S
O298 Tb255 2.308 . S
O298 C318 1.266 . S
O299 Tb244 2.393 . S
O299 C318 1.248 1_556 S
C300 O289 1.264 . S
C300 O290 1.243 . S
C301 C304 1.399 . S
C301 C306 1.383 . S
C301 C308 1.496 . S
C302 C303 1.399 . S
C302 C306 1.389 . S
C303 C302 1.399 . S
C303 C305 1.380 . S
C303 H320 0.929 . S
C304 C301 1.399 . S
C304 C305 1.392 . S
C304 H321 0.929 . S
C305 C303 1.380 . S
C305 C304 1.392 . S
C305 H322 0.929 . S
C306 C301 1.383 . S
C306 C302 1.389 . S
C306 H323 0.931 . S
C307 O292 1.266 . S
C307 O293 1.248 . S
C308 Tb244 2.802 . S
C308 O288 1.264 . S
C308 O291 1.256 . S
C308 C301 1.496 . S
C309 C276 1.448 . S
C309 H286 0.930 . S
C309 C310 1.328 . S
C310 C281 1.427 . S
C310 H287 0.929 . S
C310 C309 1.328 . S
C311 O295 1.264 . S
C311 O296 1.243 . S
C312 C315 1.399 . S
C312 C316 1.383 . S
C312 C319 1.496 . S
C313 C314 1.399 . S
C313 C316 1.389 . S
C314 C313 1.399 . S
C314 C317 1.380 . S
C314 H324 0.929 . S
C315 C312 1.399 . S
C315 C317 1.392 . S
C315 H325 0.929 . S
C316 C312 1.383 . S
C316 C313 1.389 . S
C316 H326 0.931 . S
C317 C314 1.380 . S
C317 C315 1.392 . S
C317 H327 0.929 . S
C318 O298 1.266 . S
C318 O299 1.248 1_554 S
C319 Tb255 2.802 . S
C319 O294 1.264 . S
C319 O297 1.256 . S
C319 C312 1.496 . S
H320 C303 0.929 . S
H321 C304 0.929 . S
H322 C305 0.929 . S
H323 C306 0.931 . S
H324 C314 0.929 . S
H325 C315 0.929 . S
H326 C316 0.931 . S
H327 C317 0.929 . S
C328 C329 1.391 . S
C328 C330 1.394 . S
C328 H344 0.931 . S
C329 C328 1.391 . S
C329 C333 1.376 . S
C330 C328 1.394 . S
C330 C331 1.369 . S
C330 C334 1.531 . S
C331 C330 1.369 . S
C331 C332 1.410 . S
C331 C339 1.503 . S
C332 C331 1.410 . S
C332 C333 1.392 . S
C332 C335 1.511 . S
C333 C329 1.376 . S
C333 C332 1.392 . S
C333 H345 0.929 . S
C334 C330 1.531 . S
C334 H346 0.960 . S
C334 H347 0.962 . S
C334 H348 0.960 . S
C335 C332 1.511 . S
C335 H349 0.961 . S
C335 H350 0.961 . S
C335 H351 0.961 . S
C336 C337 1.370 . S
C336 C338 1.363 . S
C336 H352 0.931 . S
C337 C336 1.370 . S
C337 C341 1.408 . S
C338 C336 1.363 . S
C338 C339 1.370 . S
C338 C342 1.524 . S
C339 C331 1.503 . S
C339 C338 1.370 . S
C339 C340 1.403 . S
C340 C339 1.403 . S
C340 C341 1.404 . S
C340 C343 1.539 . S
C341 C337 1.408 . S
C341 C340 1.404 . S
C341 H353 0.930 . S
C342 C338 1.524 . S
C342 H354 0.956 . S
C342 H355 0.961 . S
C342 H356 0.961 . S
C343 C340 1.539 . S
C343 H357 0.958 . S
C343 H358 0.961 . S
C343 H359 0.960 . S
H344 C328 0.931 . S
H345 C333 0.929 . S
H346 C334 0.960 . S
H347 C334 0.962 . S
H348 C334 0.960 . S
H349 C335 0.961 . S
H350 C335 0.961 . S
H351 C335 0.961 . S
H352 C336 0.931 . S
H353 C341 0.930 . S
H354 C342 0.956 . S
H355 C342 0.961 . S
H356 C342 0.961 . S
H357 C343 0.958 . S
H358 C343 0.961 . S
H359 C343 0.960 . S
C360 C361 1.391 . S
C360 C362 1.394 . S
C360 H376 0.931 . S
C361 C360 1.391 . S
C361 C365 1.376 . S
C362 C360 1.394 . S
C362 C363 1.369 . S
C362 C366 1.531 . S
C363 C362 1.369 . S
C363 C364 1.410 . S
C363 C371 1.503 . S
C364 C363 1.410 . S
C364 C365 1.392 . S
C364 C367 1.511 . S
C365 C361 1.376 . S
C365 C364 1.392 . S
C365 H377 0.929 . S
C366 C362 1.531 . S
C366 H378 0.960 . S
C366 H379 0.962 . S
C366 H380 0.960 . S
C367 C364 1.511 . S
C367 H381 0.961 1_554 S
C367 H382 0.961 1_554 S
C367 H383 0.961 . S
C368 C369 1.370 . S
C368 C370 1.363 . S
C368 H384 0.931 1_554 S
C369 C368 1.370 . S
C369 C373 1.408 . S
C370 C368 1.363 . S
C370 C371 1.370 . S
C370 C374 1.524 1_554 S
C371 C363 1.503 . S
C371 C370 1.370 . S
C371 C372 1.403 . S
C372 C371 1.403 . S
C372 C373 1.404 . S
C372 C375 1.539 . S
C373 C369 1.408 . S
C373 C372 1.404 . S
C373 H385 0.930 . S
C374 C370 1.524 1_556 S
C374 H386 0.956 . S
C374 H387 0.961 . S
C374 H388 0.961 . S
C375 C372 1.539 . S
C375 H389 0.958 . S
C375 H390 0.961 . S
C375 H391 0.960 . S
H376 C360 0.931 . S
H377 C365 0.929 . S
H378 C366 0.960 . S
H379 C366 0.962 . S
H380 C366 0.960 . S
H381 C367 0.961 1_556 S
H382 C367 0.961 1_556 S
H383 C367 0.961 . S
H384 C368 0.931 1_556 S
H385 C373 0.930 . S
H386 C374 0.956 . S
H387 C374 0.961 . S
H388 C374 0.961 . S
H389 C375 0.958 . S
H390 C375 0.961 . S
H391 C375 0.960 . S
C392 C393 1.391 . S
C392 C394 1.394 . S
C392 H408 0.931 . S
C393 C392 1.391 . S
C393 C397 1.376 . S
C394 C392 1.394 . S
C394 C395 1.369 . S
C394 C398 1.531 . S
C395 C394 1.369 . S
C395 C396 1.410 . S
C395 C403 1.503 . S
C396 C395 1.410 . S
C396 C397 1.392 . S
C396 C399 1.511 . S
C397 C393 1.376 . S
C397 C396 1.392 . S
C397 H409 0.929 . S
C398 C394 1.531 . S
C398 H410 0.960 . S
C398 H411 0.962 . S
C398 H412 0.960 . S
C399 C396 1.511 . S
C399 H413 0.961 . S
C399 H414 0.961 . S
C399 H415 0.961 . S
C400 C401 1.370 . S
C400 C402 1.363 . S
C400 H416 0.931 . S
C401 C400 1.370 . S
C401 C405 1.408 . S
C402 C400 1.363 . S
C402 C403 1.370 . S
C402 C406 1.524 . S
C403 C395 1.503 . S
C403 C402 1.370 . S
C403 C404 1.403 . S
C404 C403 1.403 . S
C404 C405 1.404 . S
C404 C407 1.539 . S
C405 C401 1.408 . S
C405 C404 1.404 . S
C405 H417 0.930 . S
C406 C402 1.524 . S
C406 H418 0.956 . S
C406 H419 0.961 . S
C406 H420 0.961 . S
C407 C404 1.539 . S
C407 H421 0.958 . S
C407 H422 0.961 . S
C407 H423 0.960 . S
H408 C392 0.931 . S
H409 C397 0.929 . S
H410 C398 0.960 . S
H411 C398 0.962 . S
H412 C398 0.960 . S
H413 C399 0.961 . S
H414 C399 0.961 . S
H415 C399 0.961 . S
H416 C400 0.931 . S
H417 C405 0.930 . S
H418 C406 0.956 . S
H419 C406 0.961 . S
H420 C406 0.961 . S
H421 C407 0.958 . S
H422 C407 0.961 . S
H423 C407 0.960 . S
C424 C425 1.391 . S
C424 C426 1.394 . S
C424 H440 0.931 . S
C425 C424 1.391 . S
C425 C429 1.376 . S
C426 C424 1.394 . S
C426 C427 1.369 . S
C426 C430 1.531 . S
C427 C426 1.369 . S
C427 C428 1.410 . S
C427 C435 1.503 . S
C428 C427 1.410 . S
C428 C429 1.392 . S
C428 C431 1.511 . S
C429 C425 1.376 . S
C429 C428 1.392 . S
C429 H441 0.929 . S
C430 C426 1.531 . S
C430 H442 0.960 . S
C430 H443 0.962 . S
C430 H444 0.960 . S
C431 C428 1.511 . S
C431 H445 0.961 1_554 S
C431 H446 0.961 . S
C431 H447 0.961 . S
C432 C433 1.370 1_556 S
C432 C434 1.363 . S
C432 H448 0.931 . S
C433 C432 1.370 1_554 S
C433 C437 1.408 . S
C434 C432 1.363 . S
C434 C435 1.370 1_556 S
C434 C438 1.524 . S
C435 C427 1.503 . S
C435 C434 1.370 1_554 S
C435 C436 1.403 . S
C436 C435 1.403 . S
C436 C437 1.404 . S
C436 C439 1.539 . S
C437 C433 1.408 . S
C437 C436 1.404 . S
C437 H449 0.930 . S
C438 C434 1.524 . S
C438 H450 0.956 . S
C438 H451 0.961 . S
C438 H452 0.961 . S
C439 C436 1.539 . S
C439 H453 0.958 . S
C439 H454 0.961 . S
C439 H455 0.960 . S
H440 C424 0.931 . S
H441 C429 0.929 . S
H442 C430 0.960 . S
H443 C430 0.962 . S
H444 C430 0.960 . S
H445 C431 0.961 1_556 S
H446 C431 0.961 . S
H447 C431 0.961 . S
H448 C432 0.931 . S
H449 C437 0.930 . S
H450 C438 0.956 . S
H451 C438 0.961 . S
H452 C438 0.961 . S
H453 C439 0.958 . S
H454 C439 0.961 . S
H455 C439 0.960 . S
C456 C457 1.391 . S
C456 C458 1.394 . S
C456 H472 0.931 . S
C457 C456 1.391 . S
C457 C461 1.376 . S
C458 C456 1.394 . S
C458 C459 1.369 . S
C458 C462 1.531 . S
C459 C458 1.369 . S
C459 C460 1.410 . S
C459 C467 1.503 . S
C460 C459 1.410 . S
C460 C461 1.392 . S
C460 C463 1.511 . S
C461 C457 1.376 . S
C461 C460 1.392 . S
C461 H473 0.929 . S
C462 C458 1.531 . S
C462 H474 0.960 . S
C462 H475 0.962 . S
C462 H476 0.960 . S
C463 C460 1.511 . S
C463 H477 0.961 . S
C463 H478 0.961 . S
C463 H479 0.961 . S
C464 C465 1.370 . S
C464 C466 1.363 . S
C464 H480 0.931 . S
C465 C464 1.370 . S
C465 C469 1.408 . S
C466 C464 1.363 . S
C466 C467 1.370 . S
C466 C470 1.524 . S
C467 C459 1.503 . S
C467 C466 1.370 . S
C467 C468 1.403 . S
C468 C467 1.403 . S
C468 C469 1.404 . S
C468 C471 1.539 . S
C469 C465 1.408 . S
C469 C468 1.404 . S
C469 H481 0.930 . S
C470 C466 1.524 . S
C470 H482 0.956 . S
C470 H483 0.961 . S
C470 H484 0.961 . S
C471 C468 1.539 . S
C471 H485 0.958 1_565 S
C471 H486 0.961 1_565 S
C471 H487 0.960 . S
H472 C456 0.931 . S
H473 C461 0.929 . S
H474 C462 0.960 . S
H475 C462 0.962 . S
H476 C462 0.960 . S
H477 C463 0.961 . S
H478 C463 0.961 . S
H479 C463 0.961 . S
H480 C464 0.931 . S
H481 C469 0.930 . S
H482 C470 0.956 . S
H483 C470 0.961 . S
H484 C470 0.961 . S
H485 C471 0.958 1_545 S
H486 C471 0.961 1_545 S
H487 C471 0.960 . S
C488 C489 1.391 . S
C488 C490 1.394 . S
C488 H504 0.931 . S
C489 C488 1.391 . S
C489 C493 1.376 . S
C490 C488 1.394 . S
C490 C491 1.369 . S
C490 C494 1.531 . S
C491 C490 1.369 . S
C491 C492 1.410 . S
C491 C499 1.503 . S
C492 C491 1.410 . S
C492 C493 1.392 . S
C492 C495 1.511 . S
C493 C489 1.376 . S
C493 C492 1.392 . S
C493 H505 0.929 . S
C494 C490 1.531 . S
C494 H506 0.960 . S
C494 H507 0.962 . S
C494 H508 0.960 . S
C495 C492 1.511 . S
C495 H509 0.961 . S
C495 H510 0.961 . S
C495 H511 0.961 . S
C496 C497 1.370 . S
C496 C498 1.363 . S
C496 H512 0.931 . S
C497 C496 1.370 . S
C497 C501 1.408 . S
C498 C496 1.363 . S
C498 C499 1.370 . S
C498 C502 1.524 . S
C499 C491 1.503 . S
C499 C498 1.370 . S
C499 C500 1.403 . S
C500 C499 1.403 . S
C500 C501 1.404 . S
C500 C503 1.539 . S
C501 C497 1.408 . S
C501 C500 1.404 . S
C501 H513 0.930 . S
C502 C498 1.524 . S
C502 H514 0.956 . S
C502 H515 0.961 . S
C502 H516 0.961 . S
C503 C500 1.539 . S
C503 H517 0.958 . S
C503 H518 0.961 . S
C503 H519 0.960 . S
H504 C488 0.931 . S
H505 C493 0.929 . S
H506 C494 0.960 . S
H507 C494 0.962 . S
H508 C494 0.960 . S
H509 C495 0.961 . S
H510 C495 0.961 . S
H511 C495 0.961 . S
H512 C496 0.931 . S
H513 C501 0.930 . S
H514 C502 0.956 . S
H515 C502 0.961 . S
H516 C502 0.961 . S
H517 C503 0.958 . S
H518 C503 0.961 . S
H519 C503 0.960 . S
C520 C521 1.391 . S
C520 C522 1.394 . S
C520 H536 0.931 . S
C521 C520 1.391 . S
C521 C525 1.376 . S
C522 C520 1.394 . S
C522 C523 1.369 . S
C522 C526 1.531 . S
C523 C522 1.369 . S
C523 C524 1.410 . S
C523 C531 1.503 . S
C524 C523 1.410 . S
C524 C525 1.392 . S
C524 C527 1.511 . S
C525 C521 1.376 . S
C525 C524 1.392 . S
C525 H537 0.929 . S
C526 C522 1.531 . S
C526 H538 0.960 . S
C526 H539 0.962 . S
C526 H540 0.960 . S
C527 C524 1.511 . S
C527 H541 0.961 . S
C527 H542 0.961 . S
C527 H543 0.961 . S
C528 C529 1.370 . S
C528 C530 1.363 . S
C528 H544 0.931 1_545 S
C529 C528 1.370 . S
C529 C533 1.408 . S
C530 C528 1.363 . S
C530 C531 1.370 . S
C530 C534 1.524 1_545 S
C531 C523 1.503 . S
C531 C530 1.370 . S
C531 C532 1.403 . S
C532 C531 1.403 . S
C532 C533 1.404 . S
C532 C535 1.539 . S
C533 C529 1.408 . S
C533 C532 1.404 . S
C533 H545 0.930 . S
C534 C530 1.524 1_565 S
C534 H546 0.956 . S
C534 H547 0.961 1_565 S
C534 H548 0.961 . S
C535 C532 1.539 . S
C535 H549 0.958 . S
C535 H550 0.961 . S
C535 H551 0.960 . S
H536 C520 0.931 . S
H537 C525 0.929 . S
H538 C526 0.960 . S
H539 C526 0.962 . S
H540 C526 0.960 . S
H541 C527 0.961 . S
H542 C527 0.961 . S
H543 C527 0.961 . S
H544 C528 0.931 1_565 S
H545 C533 0.930 . S
H546 C534 0.956 . S
H547 C534 0.961 1_545 S
H548 C534 0.961 . S
H549 C535 0.958 . S
H550 C535 0.961 . S
H551 C535 0.960 . S
C552 C553 1.391 . S
C552 C554 1.394 . S
C552 H568 0.931 . S
C553 C552 1.391 . S
C553 C557 1.376 . S
C554 C552 1.394 . S
C554 C555 1.369 . S
C554 C558 1.531 . S
C555 C554 1.369 . S
C555 C556 1.410 . S
C555 C563 1.503 . S
C556 C555 1.410 . S
C556 C557 1.392 . S
C556 C559 1.511 . S
C557 C553 1.376 . S
C557 C556 1.392 . S
C557 H569 0.929 . S
C558 C554 1.531 . S
C558 H570 0.960 . S
C558 H571 0.962 . S
C558 H572 0.960 . S
C559 C556 1.511 . S
C559 H573 0.961 . S
C559 H574 0.961 . S
C559 H575 0.961 . S
C560 C561 1.370 . S
C560 C562 1.363 . S
C560 H576 0.931 . S
C561 C560 1.370 . S
C561 C565 1.408 . S
C562 C560 1.363 . S
C562 C563 1.370 . S
C562 C566 1.524 . S
C563 C555 1.503 . S
C563 C562 1.370 . S
C563 C564 1.403 . S
C564 C563 1.403 . S
C564 C565 1.404 . S
C564 C567 1.539 . S
C565 C561 1.408 . S
C565 C564 1.404 . S
C565 H577 0.930 . S
C566 C562 1.524 . S
C566 H578 0.956 . S
C566 H579 0.961 . S
C566 H580 0.961 . S
C567 C564 1.539 . S
C567 H581 0.958 . S
C567 H582 0.961 . S
C567 H583 0.960 . S
H568 C552 0.931 . S
H569 C557 0.929 . S
H570 C558 0.960 . S
H571 C558 0.962 . S
H572 C558 0.960 . S
H573 C559 0.961 . S
H574 C559 0.961 . S
H575 C559 0.961 . S
H576 C560 0.931 . S
H577 C565 0.930 . S
H578 C566 0.956 . S
H579 C566 0.961 . S
H580 C566 0.961 . S
H581 C567 0.958 . S
H582 C567 0.961 . S
H583 C567 0.960 . S
C584 C585 1.391 . S
C584 C586 1.394 . S
C584 H600 0.931 . S
C585 C584 1.391 . S
C585 C589 1.376 . S
C586 C584 1.394 . S
C586 C587 1.369 . S
C586 C590 1.531 . S
C587 C586 1.369 . S
C587 C588 1.410 . S
C587 C595 1.503 . S
C588 C587 1.410 . S
C588 C589 1.392 . S
C588 C591 1.511 . S
C589 C585 1.376 . S
C589 C588 1.392 . S
C589 H601 0.929 . S
C590 C586 1.531 . S
C590 H602 0.960 . S
C590 H603 0.962 . S
C590 H604 0.960 . S
C591 C588 1.511 . S
C591 H605 0.961 . S
C591 H606 0.961 . S
C591 H607 0.961 . S
C592 C593 1.370 . S
C592 C594 1.363 . S
C592 H608 0.931 . S
C593 C592 1.370 . S
C593 C597 1.408 . S
C594 C592 1.363 . S
C594 C595 1.370 . S
C594 C598 1.524 . S
C595 C587 1.503 . S
C595 C594 1.370 . S
C595 C596 1.403 . S
C596 C595 1.403 . S
C596 C597 1.404 . S
C596 C599 1.539 . S
C597 C593 1.408 . S
C597 C596 1.404 . S
C597 H609 0.930 . S
C598 C594 1.524 . S
C598 H610 0.956 . S
C598 H611 0.961 . S
C598 H612 0.961 . S
C599 C596 1.539 . S
C599 H613 0.958 . S
C599 H614 0.961 . S
C599 H615 0.960 . S
H600 C584 0.931 . S
H601 C589 0.929 . S
H602 C590 0.960 . S
H603 C590 0.962 . S
H604 C590 0.960 . S
H605 C591 0.961 . S
H606 C591 0.961 . S
H607 C591 0.961 . S
H608 C592 0.931 . S
H609 C597 0.930 . S
H610 C598 0.956 . S
H611 C598 0.961 . S
H612 C598 0.961 . S
H613 C599 0.958 . S
H614 C599 0.961 . S
H615 C599 0.960 . S
C616 C617 1.391 . S
C616 C618 1.394 . S
C616 H632 0.931 . S
C617 C616 1.391 . S
C617 C621 1.376 . S
C618 C616 1.394 . S
C618 C619 1.369 . S
C618 C622 1.531 . S
C619 C618 1.369 . S
C619 C620 1.410 . S
C619 C627 1.503 . S
C620 C619 1.410 . S
C620 C621 1.392 . S
C620 C623 1.511 . S
C621 C617 1.376 . S
C621 C620 1.392 . S
C621 H633 0.929 . S
C622 C618 1.531 . S
C622 H634 0.960 . S
C622 H635 0.962 . S
C622 H636 0.960 . S
C623 C620 1.511 . S
C623 H637 0.961 . S
C623 H638 0.961 . S
C623 H639 0.961 . S
C624 C625 1.370 . S
C624 C626 1.363 . S
C624 H640 0.931 . S
C625 C624 1.370 . S
C625 C629 1.408 . S
C626 C624 1.363 . S
C626 C627 1.370 . S
C626 C630 1.524 . S
C627 C619 1.503 . S
C627 C626 1.370 . S
C627 C628 1.403 . S
C628 C627 1.403 . S
C628 C629 1.404 . S
C628 C631 1.539 . S
C629 C625 1.408 . S
C629 C628 1.404 . S
C629 H641 0.930 . S
C630 C626 1.524 . S
C630 H642 0.956 . S
C630 H643 0.961 . S
C630 H644 0.961 1_545 S
C631 C628 1.539 . S
C631 H645 0.958 . S
C631 H646 0.961 . S
C631 H647 0.960 . S
H632 C616 0.931 . S
H633 C621 0.929 . S
H634 C622 0.960 . S
H635 C622 0.962 . S
H636 C622 0.960 . S
H637 C623 0.961 . S
H638 C623 0.961 . S
H639 C623 0.961 . S
H640 C624 0.931 . S
H641 C629 0.930 . S
H642 C630 0.956 . S
H643 C630 0.961 . S
H644 C630 0.961 1_565 S
H645 C631 0.958 . S
H646 C631 0.961 . S
H647 C631 0.960 . S
C648 C649 1.391 . S
C648 C650 1.394 . S
C648 H664 0.931 . S
C649 C648 1.391 . S
C649 C653 1.376 . S
C650 C648 1.394 . S
C650 C651 1.369 . S
C650 C654 1.531 . S
C651 C650 1.369 . S
C651 C652 1.410 . S
C651 C659 1.503 . S
C652 C651 1.410 . S
C652 C653 1.392 . S
C652 C655 1.511 . S
C653 C649 1.376 . S
C653 C652 1.392 . S
C653 H665 0.929 . S
C654 C650 1.531 . S
C654 H666 0.960 . S
C654 H667 0.962 . S
C654 H668 0.960 . S
C655 C652 1.511 . S
C655 H669 0.961 . S
C655 H670 0.961 . S
C655 H671 0.961 . S
C656 C657 1.370 . S
C656 C658 1.363 . S
C656 H672 0.931 . S
C657 C656 1.370 . S
C657 C661 1.408 . S
C658 C656 1.363 . S
C658 C659 1.370 . S
C658 C662 1.524 . S
C659 C651 1.503 . S
C659 C658 1.370 . S
C659 C660 1.403 . S
C660 C659 1.403 . S
C660 C661 1.404 . S
C660 C663 1.539 . S
C661 C657 1.408 . S
C661 C660 1.404 . S
C661 H673 0.930 . S
C662 C658 1.524 . S
C662 H674 0.956 . S
C662 H675 0.961 . S
C662 H676 0.961 . S
C663 C660 1.539 . S
C663 H677 0.958 . S
C663 H678 0.961 . S
C663 H679 0.960 . S
H664 C648 0.931 . S
H665 C653 0.929 . S
H666 C654 0.960 . S
H667 C654 0.962 . S
H668 C654 0.960 . S
H669 C655 0.961 . S
H670 C655 0.961 . S
H671 C655 0.961 . S
H672 C656 0.931 . S
H673 C661 0.930 . S
H674 C662 0.956 . S
H675 C662 0.961 . S
H676 C662 0.961 . S
H677 C663 0.958 . S
H678 C663 0.961 . S
H679 C663 0.960 . S
C680 C681 1.391 . S
C680 C682 1.394 . S
C680 H696 0.931 . S
C681 C680 1.391 . S
C681 C685 1.376 . S
C682 C680 1.394 . S
C682 C683 1.369 . S
C682 C686 1.531 . S
C683 C682 1.369 . S
C683 C684 1.410 . S
C683 C691 1.503 . S
C684 C683 1.410 . S
C684 C685 1.392 . S
C684 C687 1.511 . S
C685 C681 1.376 . S
C685 C684 1.392 . S
C685 H697 0.929 . S
C686 C682 1.531 . S
C686 H698 0.962 1_565 S
C686 H699 0.962 . S
C686 H700 0.960 . S
C687 C684 1.511 . S
C687 H701 0.961 . S
C687 H702 0.961 . S
C687 H703 0.961 . S
C688 C689 1.370 . S
C688 C690 1.363 . S
C688 H704 0.931 . S
C689 C688 1.370 . S
C689 C693 1.408 1_565 S
C690 C688 1.363 . S
C690 C691 1.370 . S
C690 C694 1.524 . S
C691 C683 1.503 . S
C691 C690 1.370 . S
C691 C692 1.403 . S
C692 C691 1.403 . S
C692 C693 1.404 1_565 S
C692 C695 1.539 1_565 S
C693 C689 1.408 1_545 S
C693 C692 1.404 1_545 S
C693 H705 0.930 . S
C694 C690 1.524 . S
C694 H706 0.956 . S
C694 H707 0.961 . S
C694 H708 0.961 . S
C695 C692 1.539 1_545 S
C695 H709 0.958 . S
C695 H710 0.961 . S
C695 H711 0.960 . S
H696 C680 0.931 . S
H697 C685 0.929 . S
H698 C686 0.962 1_545 S
H699 C686 0.962 . S
H700 C686 0.960 . S
H701 C687 0.961 . S
H702 C687 0.961 . S
H703 C687 0.961 . S
H704 C688 0.931 . S
H705 C693 0.930 . S
H706 C694 0.956 . S
H707 C694 0.961 . S
H708 C694 0.961 . S
H709 C695 0.958 . S
H710 C695 0.961 . S
H711 C695 0.960 . S
C337 C223 1.671 . S
C329 C135 1.669 . S
C361 C15 1.640 . S
C369 C318 1.656 . S
C393 C55 1.656 . S
C401 C234 1.662 . S
C425 C95 1.641 . S
C433 C307 1.661 . S
C465 C218 1.428 . S
C457 C2 1.559 . S
C497 C311 1.619 . S
C489 C42 1.615 . S
C521 C82 1.608 . S
C529 C227 1.632 . S
C553 C141 1.529 . S
C561 C302 1.427 . S
C593 C313 1.445 . S
C585 C61 1.556 . S
C625 C229 1.430 . S
C617 C101 1.588 . S
C657 C300 1.647 . S
C649 C122 1.615 . S
C681 C21 1.659 . S
C689 C216 1.658 . S
