# Generated by pormake.
# Topology ocu, (6,8)-cn, num edge types: 1
# Building blocks:
#     Node 0, Type 0, BuildingBlock: VOLQOD_clean_sbu_1, # of connection points: 6
#     Node 1, Type 0, BuildingBlock: VOLQOD_clean_sbu_1, # of connection points: 6
#     Node 2, Type 0, BuildingBlock: VOLQOD_clean_sbu_1, # of connection points: 6
#     Node 3, Type 0, BuildingBlock: VOLQOD_clean_sbu_1, # of connection points: 6
#     Node 4, Type 0, BuildingBlock: VOLQOD_clean_sbu_1, # of connection points: 6
#     Node 5, Type 0, BuildingBlock: VOLQOD_clean_sbu_1, # of connection points: 6
#     Node 6, Type 0, BuildingBlock: VOLQOD_clean_sbu_1, # of connection points: 6
#     Node 7, Type 0, BuildingBlock: VOLQOD_clean_sbu_1, # of connection points: 6
#     Node 8, Type 1, BuildingBlock: VETTIZ_charged_sbu_0, # of connection points: 8
#     Node 9, Type 1, BuildingBlock: VETTIZ_charged_sbu_0, # of connection points: 8
#     Node 10, Type 1, BuildingBlock: VETTIZ_charged_sbu_0, # of connection points: 8
#     Node 11, Type 1, BuildingBlock: VETTIZ_charged_sbu_0, # of connection points: 8
#     Node 12, Type 1, BuildingBlock: VETTIZ_charged_sbu_0, # of connection points: 8
#     Node 13, Type 1, BuildingBlock: VETTIZ_charged_sbu_0, # of connection points: 8
#     Edge 14, Type (0, 1), BuildingBlock: UVAHIK_clean_linker_0, # of connection points: 2
#     Edge 15, Type (0, 1), BuildingBlock: UVAHIK_clean_linker_0, # of connection points: 2
#     Edge 16, Type (0, 1), BuildingBlock: UVAHIK_clean_linker_0, # of connection points: 2
#     Edge 17, Type (0, 1), BuildingBlock: UVAHIK_clean_linker_0, # of connection points: 2
#     Edge 18, Type (0, 1), BuildingBlock: UVAHIK_clean_linker_0, # of connection points: 2
#     Edge 19, Type (0, 1), BuildingBlock: UVAHIK_clean_linker_0, # of connection points: 2
#     Edge 20, Type (0, 1), BuildingBlock: UVAHIK_clean_linker_0, # of connection points: 2
#     Edge 21, Type (0, 1), BuildingBlock: UVAHIK_clean_linker_0, # of connection points: 2
#     Edge 22, Type (0, 1), BuildingBlock: UVAHIK_clean_linker_0, # of connection points: 2
#     Edge 23, Type (0, 1), BuildingBlock: UVAHIK_clean_linker_0, # of connection points: 2
#     Edge 24, Type (0, 1), BuildingBlock: UVAHIK_clean_linker_0, # of connection points: 2
#     Edge 25, Type (0, 1), BuildingBlock: UVAHIK_clean_linker_0, # of connection points: 2
#     Edge 26, Type (0, 1), BuildingBlock: UVAHIK_clean_linker_0, # of connection points: 2
#     Edge 27, Type (0, 1), BuildingBlock: UVAHIK_clean_linker_0, # of connection points: 2
#     Edge 28, Type (0, 1), BuildingBlock: UVAHIK_clean_linker_0, # of connection points: 2
#     Edge 29, Type (0, 1), BuildingBlock: UVAHIK_clean_linker_0, # of connection points: 2
#     Edge 30, Type (0, 1), BuildingBlock: UVAHIK_clean_linker_0, # of connection points: 2
#     Edge 31, Type (0, 1), BuildingBlock: UVAHIK_clean_linker_0, # of connection points: 2
#     Edge 32, Type (0, 1), BuildingBlock: UVAHIK_clean_linker_0, # of connection points: 2
#     Edge 33, Type (0, 1), BuildingBlock: UVAHIK_clean_linker_0, # of connection points: 2
#     Edge 34, Type (0, 1), BuildingBlock: UVAHIK_clean_linker_0, # of connection points: 2
#     Edge 35, Type (0, 1), BuildingBlock: UVAHIK_clean_linker_0, # of connection points: 2
#     Edge 36, Type (0, 1), BuildingBlock: UVAHIK_clean_linker_0, # of connection points: 2
#     Edge 37, Type (0, 1), BuildingBlock: UVAHIK_clean_linker_0, # of connection points: 2
#     Edge 38, Type (0, 1), BuildingBlock: UVAHIK_clean_linker_0, # of connection points: 2
#     Edge 39, Type (0, 1), BuildingBlock: UVAHIK_clean_linker_0, # of connection points: 2
#     Edge 40, Type (0, 1), BuildingBlock: UVAHIK_clean_linker_0, # of connection points: 2
#     Edge 41, Type (0, 1), BuildingBlock: UVAHIK_clean_linker_0, # of connection points: 2
#     Edge 42, Type (0, 1), BuildingBlock: UVAHIK_clean_linker_0, # of connection points: 2
#     Edge 43, Type (0, 1), BuildingBlock: UVAHIK_clean_linker_0, # of connection points: 2
#     Edge 44, Type (0, 1), BuildingBlock: UVAHIK_clean_linker_0, # of connection points: 2
#     Edge 45, Type (0, 1), BuildingBlock: UVAHIK_clean_linker_0, # of connection points: 2
#     Edge 46, Type (0, 1), BuildingBlock: UVAHIK_clean_linker_0, # of connection points: 2
#     Edge 47, Type (0, 1), BuildingBlock: UVAHIK_clean_linker_0, # of connection points: 2
#     Edge 48, Type (0, 1), BuildingBlock: UVAHIK_clean_linker_0, # of connection points: 2
#     Edge 49, Type (0, 1), BuildingBlock: UVAHIK_clean_linker_0, # of connection points: 2
#     Edge 50, Type (0, 1), BuildingBlock: UVAHIK_clean_linker_0, # of connection points: 2
#     Edge 51, Type (0, 1), BuildingBlock: UVAHIK_clean_linker_0, # of connection points: 2
#     Edge 52, Type (0, 1), BuildingBlock: UVAHIK_clean_linker_0, # of connection points: 2
#     Edge 53, Type (0, 1), BuildingBlock: UVAHIK_clean_linker_0, # of connection points: 2
#     Edge 54, Type (0, 1), BuildingBlock: UVAHIK_clean_linker_0, # of connection points: 2
#     Edge 55, Type (0, 1), BuildingBlock: UVAHIK_clean_linker_0, # of connection points: 2
#     Edge 56, Type (0, 1), BuildingBlock: UVAHIK_clean_linker_0, # of connection points: 2
#     Edge 57, Type (0, 1), BuildingBlock: UVAHIK_clean_linker_0, # of connection points: 2
#     Edge 58, Type (0, 1), BuildingBlock: UVAHIK_clean_linker_0, # of connection points: 2
#     Edge 59, Type (0, 1), BuildingBlock: UVAHIK_clean_linker_0, # of connection points: 2
#     Edge 60, Type (0, 1), BuildingBlock: UVAHIK_clean_linker_0, # of connection points: 2
#     Edge 61, Type (0, 1), BuildingBlock: UVAHIK_clean_linker_0, # of connection points: 2
# Relax obj value: 0.154
# Max RMSD: 0.303
# Mean RMSD: 0.175
data_MOF--net-ocu--node1-VOLQOD_clean_sbu_1--node2-VETTIZ_charged_sbu_0--edge1-UVAHIK_clean_linker_0
_symmetry_space_group_name_H-M    P1
_symmetry_Int_Tables_number       1
_symmetry_cell_setting            triclinic
loop_
_symmetry_equiv_pos_as_xyz
'x, y, z'
_cell_length_a     48.388794
_cell_length_b     48.7548
_cell_length_c     48.318457
_cell_angle_alpha  89.837602
_cell_angle_beta   89.436793
_cell_angle_gamma 89.674025
loop_
_atom_site_label
_atom_site_type_symbol
_atom_site_fract_x
_atom_site_fract_y
_atom_site_fract_z
_atom_type_partial_charge
O0 O 0.28545 0.27797 0.23961 0.0
Zn1 Zn 0.2616 0.2522 0.26321 0.0
O2 O 0.23693 0.22959 0.24055 0.0
Zn3 Zn 0.1985 0.2387 0.24812 0.0
Zn4 Zn 0.24465 0.23664 0.20196 0.0
Zn5 Zn 0.24224 0.19061 0.24783 0.0
O6 O 0.17546 0.20534 0.25579 0.0
O7 O 0.20648 0.17174 0.25768 0.0
O8 O 0.23924 0.27401 0.29158 0.0
O9 O 0.19624 0.26125 0.28226 0.0
O10 O 0.18148 0.25978 0.21666 0.0
O11 O 0.21234 0.25309 0.18308 0.0
O12 O 0.25658 0.20308 0.18193 0.0
O13 O 0.28694 0.2272 0.28502 0.0
O14 O 0.25875 0.17127 0.21473 0.0
O15 O 0.26886 0.18574 0.2789 0.0
C16 C 0.28887 0.27911 0.21341 0.0
C17 C 0.18158 0.1802 0.25959 0.0
C18 C 0.18924 0.26251 0.19156 0.0
C19 C 0.21339 0.2742 0.29703 0.0
C20 C 0.26229 0.1788 0.1897 0.0
C21 C 0.2861 0.2016 0.29043 0.0
O22 O 0.27506 0.26384 0.19741 0.0
O23 O 0.75166 0.21379 0.21985 0.0
Zn24 Zn 0.78126 0.23405 0.2409 0.0
O25 O 0.76459 0.25962 0.26768 0.0
Zn26 Zn 0.77182 0.2973 0.25703 0.0
Zn27 Zn 0.72503 0.25352 0.27063 0.0
Zn28 Zn 0.78089 0.25375 0.30346 0.0
O29 O 0.78889 0.3191 0.28762 0.0
O30 O 0.79336 0.28837 0.32114 0.0
O31 O 0.8055 0.25467 0.21367 0.0
O32 O 0.79866 0.29827 0.22536 0.0
O33 O 0.73661 0.31669 0.24756 0.0
O34 O 0.70391 0.28799 0.26193 0.0
O35 O 0.71403 0.23988 0.30846 0.0
O36 O 0.80674 0.20689 0.26024 0.0
O37 O 0.7543 0.23625 0.32979 0.0
O38 O 0.81319 0.22879 0.3 0.0
C39 C 0.72562 0.21197 0.22375 0.0
C40 C 0.79575 0.31275 0.31215 0.0
C41 C 0.71127 0.31107 0.252 0.0
C42 C 0.8105 0.28012 0.21042 0.0
C43 C 0.72825 0.23311 0.32946 0.0
C44 C 0.81963 0.21001 0.28289 0.0
O45 O 0.71329 0.22534 0.24287 0.0
O46 O 0.72646 0.7025 0.25251 0.0
Zn47 Zn 0.7486 0.72216 0.28199 0.0
O48 O 0.77144 0.7513 0.26516 0.0
Zn49 Zn 0.81019 0.74513 0.27344 0.0
Zn50 Zn 0.76688 0.75223 0.22522 0.0
Zn51 Zn 0.76086 0.78682 0.27988 0.0
O52 O 0.82836 0.77823 0.28954 0.0
O53 O 0.79343 0.80748 0.294 0.0
O54 O 0.77255 0.69503 0.30358 0.0
O55 O 0.81387 0.71463 0.30066 0.0
O56 O 0.83176 0.73508 0.23941 0.0
O57 O 0.80208 0.74191 0.20534 0.0
O58 O 0.75442 0.78939 0.21183 0.0
O59 O 0.72143 0.73854 0.30989 0.0
O60 O 0.74371 0.81089 0.25095 0.0
O61 O 0.73393 0.78237 0.31095 0.0
C62 C 0.72397 0.7067 0.22655 0.0
C63 C 0.81892 0.80162 0.29648 0.0
C64 C 0.82608 0.73534 0.21376 0.0
C65 C 0.79802 0.69604 0.31016 0.0
C66 C 0.74441 0.81 0.22464 0.0
C67 C 0.71933 0.76261 0.31999 0.0
O68 O 0.73789 0.72521 0.21414 0.0
O69 O 0.27607 0.78298 0.29045 0.0
Zn70 Zn 0.25522 0.75416 0.26924 0.0
O71 O 0.23088 0.77181 0.24181 0.0
Zn72 Zn 0.19325 0.75856 0.24628 0.0
Zn73 Zn 0.23003 0.81129 0.24682 0.0
Zn74 Zn 0.24437 0.7639 0.20464 0.0
O75 O 0.18058 0.73866 0.21242 0.0
O76 O 0.21619 0.74256 0.18332 0.0
O77 O 0.23296 0.73197 0.29707 0.0
O78 O 0.19121 0.7331 0.27844 0.0
O79 O 0.16628 0.78829 0.25751 0.0
O80 O 0.19333 0.82458 0.26099 0.0
O81 O 0.24117 0.83167 0.21241 0.0
O82 O 0.28395 0.72971 0.25065 0.0
O83 O 0.25426 0.79847 0.18378 0.0
O84 O 0.27857 0.74045 0.2063 0.0
C85 C 0.27439 0.80907 0.29055 0.0
C86 C 0.19203 0.73382 0.18907 0.0
C87 C 0.16985 0.81329 0.264 0.0
C88 C 0.20753 0.72526 0.29738 0.0
C89 C 0.25144 0.82387 0.18938 0.0
C90 C 0.29139 0.72769 0.22534 0.0
O91 O 0.25752 0.8218 0.27506 0.0
O92 O 0.24548 0.71975 0.72367 0.0
Zn93 Zn 0.2722 0.74337 0.74431 0.0
O94 O 0.25265 0.77061 0.76713 0.0
Zn95 Zn 0.26661 0.80722 0.75942 0.0
Zn96 Zn 0.21362 0.76982 0.75853 0.0
Zn97 Zn 0.25777 0.76225 0.80619 0.0
O98 O 0.28661 0.82233 0.79201 0.0
O99 O 0.27641 0.79324 0.82597 0.0
O100 O 0.29554 0.76218 0.71526 0.0
O101 O 0.29307 0.80613 0.72732 0.0
O102 O 0.23597 0.83361 0.74956 0.0
O103 O 0.19941 0.80659 0.74678 0.0
O104 O 0.19145 0.75854 0.79161 0.0
O105 O 0.29689 0.71897 0.76752 0.0
O106 O 0.22176 0.7525 0.82529 0.0
O107 O 0.28427 0.73088 0.81016 0.0
C108 C 0.21997 0.72289 0.71821 0.0
C109 C 0.28801 0.81505 0.81727 0.0
C110 C 0.21039 0.83016 0.74481 0.0
C111 C 0.30217 0.78716 0.71159 0.0
C112 C 0.19702 0.75221 0.8165 0.0
C113 C 0.2988 0.7163 0.79368 0.0
O114 O 0.20576 0.74226 0.72892 0.0
O115 O 0.2268 0.2121 0.73268 0.0
Zn116 Zn 0.24714 0.22852 0.76509 0.0
O117 O 0.27275 0.25704 0.75106 0.0
Zn118 Zn 0.3103 0.24911 0.76266 0.0
Zn119 Zn 0.27251 0.25935 0.71098 0.0
Zn120 Zn 0.26142 0.29247 0.76521 0.0
O121 O 0.32316 0.27664 0.79062 0.0
O122 O 0.28799 0.306 0.79339 0.0
O123 O 0.26794 0.19818 0.78575 0.0
O124 O 0.31133 0.2124 0.78102 0.0
O125 O 0.3372 0.24692 0.73047 0.0
O126 O 0.30933 0.25048 0.69449 0.0
O127 O 0.26187 0.29675 0.69723 0.0
O128 O 0.21656 0.24475 0.7894 0.0
O129 O 0.25653 0.321 0.73559 0.0
O130 O 0.22454 0.28922 0.78307 0.0
C131 C 0.2282 0.21619 0.70663 0.0
C132 C 0.31172 0.29783 0.80114 0.0
C133 C 0.33331 0.24689 0.70444 0.0
C134 C 0.29384 0.19473 0.78935 0.0
C135 C 0.25651 0.31931 0.70934 0.0
C136 C 0.20963 0.26983 0.79232 0.0
O137 O 0.24502 0.23328 0.69601 0.0
O138 O 0.78798 0.27646 0.79046 0.0
Zn139 Zn 0.77199 0.24598 0.76797 0.0
O140 O 0.74673 0.26083 0.74003 0.0
Zn141 Zn 0.70908 0.2492 0.74804 0.0
Zn142 Zn 0.74795 0.30089 0.73959 0.0
Zn143 Zn 0.7576 0.24664 0.70406 0.0
O144 O 0.69205 0.22998 0.71553 0.0
O145 O 0.72864 0.22191 0.68856 0.0
O146 O 0.75268 0.21948 0.7933 0.0
O147 O 0.70944 0.22097 0.77836 0.0
O148 O 0.68514 0.28098 0.76063 0.0
O149 O 0.71143 0.31743 0.75282 0.0
O150 O 0.75969 0.31527 0.70178 0.0
O151 O 0.80391 0.22499 0.75057 0.0
O152 O 0.76493 0.27705 0.67738 0.0
O153 O 0.79328 0.22576 0.70599 0.0
C154 C 0.78898 0.30228 0.78658 0.0
C155 C 0.70319 0.21855 0.69449 0.0
C156 C 0.68878 0.30685 0.76124 0.0
C157 C 0.72779 0.21126 0.79442 0.0
C158 C 0.7658 0.30305 0.67919 0.0
C159 C 0.80934 0.21885 0.72551 0.0
O160 O 0.77601 0.31391 0.76693 0.0
O161 O 0.80648 0.78415 0.75591 0.0
Zn162 Zn 0.77591 0.76679 0.77934 0.0
O163 O 0.7483 0.74838 0.75594 0.0
Zn164 Zn 0.71119 0.7613 0.76469 0.0
Zn165 Zn 0.75597 0.75578 0.71736 0.0
Zn166 Zn 0.7494 0.70893 0.76106 0.0
O167 O 0.68765 0.73156 0.78208 0.0
O168 O 0.71318 0.6944 0.77447 0.0
O169 O 0.75746 0.79584 0.8034 0.0
O170 O 0.71328 0.7921 0.79158 0.0
O171 O 0.69235 0.77649 0.73114 0.0
O172 O 0.72578 0.77717 0.69938 0.0
O173 O 0.76173 0.7217 0.69548 0.0
O174 O 0.79394 0.73921 0.80487 0.0
O175 O 0.76187 0.68853 0.72686 0.0
O176 O 0.77518 0.69993 0.79142 0.0
C177 C 0.80957 0.78509 0.7297 0.0
C178 C 0.69114 0.70568 0.78354 0.0
C179 C 0.70116 0.78271 0.70703 0.0
C180 C 0.73228 0.8035 0.80537 0.0
C181 C 0.76494 0.69664 0.70197 0.0
C182 C 0.79113 0.71333 0.80708 0.0
O183 O 0.7916 0.77539 0.71346 0.0
Fe184 Fe 0.00583 0.04565 0.51253 0.0
O185 O 0.98338 0.01167 0.51679 0.0
Fe186 Fe 0.0732 0.01666 0.50637 0.0
Fe187 Fe 0.94513 0.0078 0.52753 0.0
O188 O 0.0347 0.01684 0.51797 0.0
O189 O 0.03374 0.01151 0.50877 0.0
O190 O 0.98524 0.00905 0.52704 0.0
Fe191 Fe 0.01241 0.97869 0.52113 0.0
C192 C 0.97161 0.04903 0.56806 0.0
O193 O 0.9735 0.07076 0.50199 0.0
O194 O 0.93874 0.04019 0.50069 0.0
O195 O 0.04132 0.95027 0.50831 0.0
O196 O 0.07347 0.97799 0.48906 0.0
O197 O 0.06313 0.03324 0.46847 0.0
O198 O 0.01634 0.04176 0.47014 0.0
O199 O 0.94498 0.98134 0.49431 0.0
O200 O 0.99058 0.97204 0.48426 0.0
C201 C 0.03983 0.03951 0.45714 0.0
O202 O 0.03493 0.98328 0.55794 0.0
O203 O 0.07789 -0.00064 0.54522 0.0
O204 O 0.99462 0.05213 0.55435 0.0
O205 O 0.95055 0.03506 0.55979 0.0
C206 C 0.94967 0.06313 0.49385 0.0
C207 C 0.96448 0.97175 0.47855 0.0
C208 C 0.96578 0.95274 0.55406 0.0
O209 O 0.95079 0.97457 0.55357 0.0
O210 O 0.98804 0.94934 0.53977 0.0
C211 C 0.06205 0.95451 0.49219 0.0
O212 O 0.07337 0.0558 0.52286 0.0
O213 O 0.03282 0.07781 0.51438 0.0
C214 C 0.06052 0.98921 0.56303 0.0
C215 C 0.05804 0.07739 0.52222 0.0
Fe216 Fe 0.52103 0.95073 0.03925 0.0
O217 O 0.52069 0.99027 0.03131 0.0
Fe218 Fe 0.48929 0.00622 0.00684 0.0
Fe219 Fe 0.55178 0.00929 0.01201 0.0
O220 O 0.51839 0.98997 0.03087 0.0
O221 O 0.52033 0.02533 0.98766 0.0
O222 O 0.52265 0.02557 0.98804 0.0
Fe223 Fe 0.52011 0.06489 0.97992 0.0
C224 C 0.57363 0.97513 0.06192 0.0
O225 O 0.55452 0.9423 0.01347 0.0
O226 O 0.55621 0.97777 0.98443 0.0
O227 O 0.49022 0.05331 0.95196 0.0
O228 O 0.46224 0.02572 0.97905 0.0
O229 O 0.49264 0.97472 0.97914 0.0
O230 O 0.49442 0.93922 0.00816 0.0
O231 O 0.58101 0.03097 0.98824 0.0
O232 O 0.55504 0.05579 0.95685 0.0
C233 C 0.48845 0.9496 0.98472 0.0
O234 O 0.48713 0.07342 0.00622 0.0
O235 O 0.48507 0.03743 0.03453 0.0
O236 O 0.5504 0.96281 0.06747 0.0
O237 O 0.57859 0.98981 0.03984 0.0
C238 C 0.56264 0.95333 0.99089 0.0
C239 C 0.57808 0.04494 0.96539 0.0
C240 C 0.55296 0.06594 0.03415 0.0
O241 O 0.54853 0.04089 0.03978 0.0
O242 O 0.54748 0.07622 0.01054 0.0
C243 C 0.46705 0.04081 0.95721 0.0
O244 O 0.46009 0.98436 0.0302 0.0
O245 O 0.4853 0.9592 0.06181 0.0
C246 C 0.47878 0.06198 0.0285 0.0
C247 C 0.46227 0.96958 0.0526 0.0
Fe248 Fe 0.00668 0.52755 -0.00107 0.0
O249 O 0.98963 0.49619 0.01915 0.0
Fe250 Fe 0.06254 0.49851 0.96413 0.0
Fe251 Fe 0.95042 0.49438 0.02946 0.0
O252 O 0.0231 0.49918 0.97404 0.0
O253 O 0.02297 0.4968 0.97373 0.0
O254 O 0.98941 0.49401 0.01876 0.0
Fe255 Fe 0.00643 0.46547 0.99461 0.0
C256 C 0.97345 0.5485 0.05026 0.0
O257 O 0.97367 0.53083 0.97326 0.0
O258 O 0.93861 0.52575 0.00318 0.0
O259 O 0.02655 0.4391 0.96669 0.0
O260 O 0.05117 0.46762 0.93727 0.0
O261 O 0.05095 0.53261 0.9413 0.0
O262 O 0.02638 0.55709 0.9743 0.0
O263 O 0.93903 0.4663 -0.00022 0.0
O264 O 0.97331 0.4661 0.96856 0.0
C265 C 0.03997 0.55514 0.95095 0.0
O266 O 0.03912 0.46423 0.02073 0.0
O267 O 0.07403 0.46701 0.99057 0.0
O268 O 0.98749 0.55362 0.0277 0.0
O269 O 0.96204 0.52509 0.05627 0.0
C270 C 0.94866 0.53477 0.98045 0.0
C271 C 0.94836 0.46153 0.97551 0.0
C272 C 0.97406 0.43824 0.04333 0.0
O273 O 0.96261 0.46074 0.0524 0.0
O274 O 0.98738 0.43582 0.01987 0.0
C275 C 0.04025 0.44412 0.94391 0.0
O276 O 0.07384 0.52676 0.99388 0.0
O277 O 0.0397 0.52548 0.02486 0.0
C278 C 0.06419 0.46008 0.0141 0.0
C279 C 0.06418 0.53188 0.01795 0.0
Fe280 Fe 0.4994 0.50508 0.9892 0.0
O281 O 0.52074 0.48712 0.01932 0.0
Fe282 Fe 0.44019 0.52851 0.02332 0.0
Fe283 Fe 0.561 0.48345 0.01846 0.0
O284 O 0.48052 0.52517 0.02006 0.0
O285 O 0.48066 0.52539 0.02271 0.0
O286 O 0.52072 0.48711 0.02193 0.0
Fe287 Fe 0.50186 0.50717 0.05288 0.0
C288 C 0.53972 0.46113 0.96398 0.0
O289 O 0.5274 0.53623 0.98581 0.0
O290 O 0.56657 0.5121 0.98721 0.0
O291 O 0.47919 0.53137 0.08143 0.0
O292 O 0.44897 0.55622 0.05412 0.0
O293 O 0.44611 0.55359 0.98932 0.0
O294 O 0.47442 0.527 0.96135 0.0
O295 O 0.5691 0.51334 0.04732 0.0
O296 O 0.53056 0.53819 0.05168 0.0
C297 C 0.45757 0.54755 0.96563 0.0
O298 O 0.47348 0.47607 0.05611 0.0
O299 O 0.43456 0.50046 0.05511 0.0
O300 O 0.52206 0.48114 0.96037 0.0
O301 O 0.55248 0.45616 0.98705 0.0
C302 C 0.55292 0.5334 0.98011 0.0
C303 C 0.55645 0.53504 0.055 0.0
C304 C 0.54323 0.46404 0.07588 0.0
O305 O 0.55464 0.45804 0.05212 0.0
O306 O 0.5265 0.48466 0.08037 0.0
C307 C 0.46218 0.5518 0.07705 0.0
O308 O 0.43225 0.49772 0.99515 0.0
O309 O 0.47152 0.47391 0.99157 0.0
C310 C 0.44797 0.47897 0.06194 0.0
C311 C 0.4455 0.47584 0.98909 0.0
Fe312 Fe 0.02022 0.47107 0.51662 0.0
O313 O 0.00104 0.49934 0.53964 0.0
Fe314 Fe 0.03517 0.50582 0.45543 0.0
Fe315 Fe 0.00132 0.50019 0.58021 0.0
O316 O 0.03545 0.50319 0.49601 0.0
O317 O 0.03515 0.50586 0.49602 0.0
O318 O 0.00074 0.50181 0.53964 0.0
Fe319 Fe 0.01457 0.53395 0.5181 0.0
C320 C 0.9823 0.44347 0.56077 0.0
O321 O 0.05405 0.47137 0.54163 0.0
O322 O 0.03516 0.47444 0.58386 0.0
O323 O 0.03302 0.56425 0.493 0.0
O324 O 0.05979 0.53941 0.46188 0.0
O325 O 0.06472 0.47552 0.45957 0.0
O326 O 0.04312 0.44554 0.4898 0.0
O327 O 0.02754 0.53312 0.58445 0.0
O328 O 0.04801 0.53762 0.5433 0.0
C329 C 0.06224 0.45179 0.47166 0.0
O330 O 0.98099 0.53146 0.4927 0.0
O331 O 0.00269 0.53336 0.452 0.0
O332 O 0.00064 0.44085 0.54096 0.0
O333 O 0.978 0.46551 0.57524 0.0
C334 C 0.05558 0.46933 0.56778 0.0
C335 C 0.04764 0.54109 0.5693 0.0
C336 C 0.97072 0.55155 0.56141 0.0
O337 O 0.97022 0.52854 0.57503 0.0
O338 O 0.9899 0.55905 0.54386 0.0
C339 C 0.05355 0.56157 0.47551 0.0
O340 O 0.0071 0.47452 0.45034 0.0
O341 O 0.98655 0.46984 0.4915 0.0
C342 C 0.9809 0.53592 0.4668 0.0
C343 C 0.98639 0.46781 0.46532 0.0
Fe344 Fe 0.49936 0.96665 0.49149 0.0
O345 O 0.48226 -0.00259 0.51282 0.0
Fe346 Fe 0.52874 -0.00079 0.43401 0.0
Fe347 Fe 0.4769 -0.00373 0.55307 0.0
O348 O 0.52301 -0.00466 0.47409 0.0
O349 O 0.52308 -0.00238 0.47415 0.0
O350 O 0.48237 -0.00026 0.5129 0.0
Fe351 Fe 0.50627 0.02835 0.4957 0.0
C352 C 0.4514 0.94503 0.52894 0.0
O353 O 0.52883 0.96055 0.52093 0.0
O354 O 0.50239 0.96277 0.5588 0.0
O355 O 0.53394 0.05458 0.47539 0.0
O356 O 0.55896 0.02658 0.44562 0.0
O357 O 0.5502 0.96276 0.43944 0.0
O358 O 0.52032 0.93767 0.46712 0.0
O359 O 0.50948 0.02169 0.56312 0.0
O360 O 0.53582 0.02303 0.52514 0.0
C361 C 0.5414 0.93992 0.45031 0.0
O362 O 0.4769 0.03479 0.46617 0.0
O363 O 0.50394 0.03353 0.42862 0.0
O364 O 0.47222 0.94022 0.51231 0.0
O365 O 0.44724 0.96784 0.54236 0.0
C366 C 0.52421 0.95482 0.54618 0.0
C367 C 0.53231 0.02696 0.55087 0.0
C368 C 0.46449 0.05519 0.53727 0.0
O369 O 0.45489 0.0322 0.54709 0.0
O370 O 0.4857 0.05726 0.52057 0.0
C371 C 0.55542 0.04893 0.45993 0.0
O372 O 0.49569 0.97462 0.42368 0.0
O373 O 0.46983 0.97165 0.46202 0.0
C374 C 0.48185 0.04103 0.44109 0.0
C375 C 0.47294 0.96919 0.43603 0.0
C376 C 0.13451 0.17093 0.27937 0.0
C377 C 0.15974 0.16095 0.26867 0.0
C378 C 0.11556 0.15308 0.2918 0.0
C379 C 0.11668 0.08738 0.32865 0.0
H380 H 0.0375 0.09919 0.33434 0.0
C381 C 0.05713 0.0288 0.41 0.0
C382 C 0.04105 0.04562 0.42737 0.0
C383 C 0.06501 0.03791 0.38374 0.0
C384 C 0.05956 0.09558 0.33286 0.0
H385 H 0.18376 0.12416 0.26034 0.0
H386 H 0.15042 0.09294 0.28132 0.0
H387 H 0.06453 0.12475 0.29989 0.0
H388 H 0.0184 0.08391 0.43032 0.0
H389 H 0.03304 0.10047 0.38468 0.0
H390 H 0.11226 0.05927 0.36213 0.0
C391 C 0.14563 0.11467 0.28093 0.0
C392 C 0.07506 0.11023 0.31318 0.0
C393 C 0.16472 0.13254 0.26882 0.0
C394 C 0.03077 0.07059 0.41717 0.0
C395 C 0.03915 0.08001 0.391 0.0
C396 C 0.10129 0.07279 0.34816 0.0
C397 C 0.12132 0.12483 0.29354 0.0
C398 C 0.10392 0.10672 0.31129 0.0
C399 C 0.0576 0.06435 0.37466 0.0
C400 C 0.07263 0.07707 0.35094 0.0
H401 H 0.13 0.19271 0.27953 0.0
H402 H 0.09721 0.1617 0.30147 0.0
H403 H 0.13889 0.08453 0.32833 0.0
H404 H 0.06501 0.00929 0.41741 0.0
H405 H 0.07854 0.02499 0.37134 0.0
C406 C 0.86422 0.19987 0.30524 0.0
C407 C 0.8407 0.1902 0.29168 0.0
C408 C 0.8801 0.18217 0.32133 0.0
C409 C 0.8655 0.12705 0.36727 0.0
H410 H 0.94442 0.12583 0.38038 0.0
C411 C 0.91222 0.0685 0.45911 0.0
C412 C 0.93581 0.07921 0.47191 0.0
C413 C 0.90184 0.08044 0.43514 0.0
C414 C 0.9223 0.12626 0.37718 0.0
H415 H 0.81653 0.15431 0.2821 0.0
H416 H 0.84413 0.1232 0.31087 0.0
H417 H 0.92664 0.14684 0.33807 0.0
H418 H 0.96606 0.11188 0.4702 0.0
H419 H 0.94705 0.13356 0.42896 0.0
H420 H 0.86071 0.10811 0.40683 0.0
C421 C 0.85037 0.14442 0.30881 0.0
C422 C 0.91222 0.13793 0.35279 0.0
C423 C 0.83474 0.1621 0.29224 0.0
C424 C 0.94786 0.10309 0.46092 0.0
C425 C 0.93721 0.11528 0.43702 0.0
C426 C 0.87549 0.11578 0.39177 0.0
C427 C 0.87234 0.15466 0.32451 0.0
C428 C 0.88371 0.13861 0.34777 0.0
C429 C 0.91444 0.10371 0.4235 0.0
C430 C 0.90399 0.11546 0.39718 0.0
H431 H 0.86909 0.22154 0.30506 0.0
H432 H 0.89682 0.19062 0.33331 0.0
H433 H 0.84335 0.12794 0.36424 0.0
H434 H 0.90241 0.05004 0.46679 0.0
H435 H 0.88451 0.07073 0.4252 0.0
C436 C 0.82847 0.84928 0.31241 0.0
C437 C 0.83768 0.82221 0.30829 0.0
C438 C 0.8453 0.8683 0.32544 0.0
C439 C 0.9165 0.88221 0.34897 0.0
H440 H 0.87777 0.92248 0.40667 0.0
C441 C 0.96904 0.93605 0.44165 0.0
C442 C 0.95585 0.95956 0.45225 0.0
C443 C 0.95757 0.92203 0.41933 0.0
C444 C 0.8889 0.91188 0.3903 0.0
H445 H 0.8723 0.79421 0.31344 0.0
H446 H 0.90149 0.82738 0.33684 0.0
H447 H 0.85206 0.89284 0.37635 0.0
H448 H 0.92238 0.98863 0.44622 0.0
H449 H 0.90293 0.96477 0.40688 0.0
H450 H 0.95356 0.90101 0.36367 0.0
C451 C 0.88137 0.83393 0.32964 0.0
C452 C 0.87411 0.89483 0.37291 0.0
C453 C 0.86456 0.81489 0.31643 0.0
C454 C 0.93254 0.97016 0.43881 0.0
C455 C 0.92139 0.95646 0.41634 0.0
C456 C 0.9314 0.89942 0.36647 0.0
C457 C 0.87163 0.86064 0.33484 0.0
C458 C 0.8877 0.87974 0.35211 0.0
C459 C 0.933 0.93158 0.40718 0.0
C460 C 0.91769 0.91439 0.38735 0.0
H461 H 0.80804 0.85572 0.306 0.0
H462 H 0.83744 0.8889 0.32869 0.0
H463 H 0.92749 0.87089 0.33301 0.0
H464 H 0.98713 0.92759 0.45166 0.0
H465 H 0.96699 0.9029 0.41274 0.0
C466 C 0.12594 0.81346 0.29207 0.0
C467 C 0.14815 0.82793 0.2801 0.0
C468 C 0.10955 0.82554 0.31279 0.0
C469 C 0.09529 0.89185 0.34893 0.0
H470 H 0.08775 0.84592 0.4143 0.0
C471 C 0.09522 0.93634 0.45694 0.0
C472 C 0.0708 0.93278 0.47253 0.0
C473 C 0.10037 0.92056 0.43347 0.0
C474 C 0.08935 0.85881 0.39606 0.0
H475 H 0.16888 0.86725 0.27872 0.0
H476 H 0.14068 0.88811 0.31468 0.0
H477 H 0.10215 0.82539 0.37023 0.0
H478 H 0.0338 0.90809 0.47696 0.0
H479 H 0.04343 0.87979 0.43597 0.0
H480 H 0.08423 0.92548 0.37528 0.0
C481 C 0.13571 0.86749 0.30819 0.0
C482 C 0.09742 0.84712 0.37078 0.0
C483 C 0.15206 0.85546 0.28756 0.0
C484 C 0.05285 0.9113 0.46548 0.0
C485 C 0.05821 0.89523 0.44197 0.0
C486 C 0.0876 0.90351 0.37419 0.0
C487 C 0.11495 0.85235 0.32182 0.0
C488 C 0.10136 0.86368 0.34711 0.0
C489 C 0.08144 0.9006 0.42523 0.0
C490 C 0.08538 0.88723 0.39809 0.0
H491 H 0.12228 0.79223 0.28677 0.0
H492 H 0.0934 0.8135 0.3225 0.0
H493 H 0.0975 0.90511 0.33103 0.0
H494 H 0.10967 0.95245 0.4619 0.0
H495 H 0.11867 0.92468 0.42107 0.0
C496 C 0.20503 0.87957 0.73109 0.0
C497 C 0.19323 0.85365 0.73569 0.0
C498 C 0.18927 0.90093 0.71993 0.0
C499 C 0.11755 0.92242 0.70236 0.0
H500 H 0.15341 0.95552 0.63855 0.0
C501 C 0.05948 0.96172 0.60685 0.0
C502 C 0.07134 0.9827 0.59076 0.0
C503 C 0.07264 0.95239 0.63073 0.0
C504 C 0.14315 0.94711 0.65667 0.0
H505 H 0.15518 0.83035 0.73368 0.0
H506 H 0.12797 0.86734 0.71382 0.0
H507 H 0.18024 0.92735 0.66983 0.0
H508 H 0.10462 0.01228 0.58855 0.0
H509 H 0.12719 -0.00357 0.6305 0.0
H510 H 0.08014 0.9414 0.68837 0.0
C511 C 0.14928 0.87131 0.71909 0.0
C512 C 0.1586 0.93089 0.67465 0.0
C513 C 0.165 0.84999 0.73022 0.0
C514 C 0.0953 -0.00433 0.60022 0.0
C515 C 0.10826 0.98656 0.62423 0.0
C516 C 0.10205 0.93874 0.68435 0.0
C517 C 0.1614 0.8968 0.71317 0.0
C518 C 0.14584 0.9177 0.69722 0.0
C519 C 0.09774 0.96406 0.6391 0.0
C520 C 0.11455 0.95062 0.66086 0.0
H521 H 0.22664 0.88317 0.73533 0.0
H522 H 0.19908 0.92047 0.7159 0.0
H523 H 0.10724 0.91283 0.71983 0.0
H524 H 0.04099 0.95136 0.6001 0.0
H525 H 0.06405 0.93489 0.64158 0.0
C526 C 0.21504 0.19928 0.66011 0.0
C527 C 0.20831 0.20292 0.68817 0.0
C528 C 0.19525 0.19003 0.64164 0.0
C529 C 0.12701 0.15623 0.63796 0.0
H530 H 0.13088 0.18304 0.56231 0.0
C531 C 0.05391 0.11674 0.55459 0.0
C532 C 0.06945 0.10219 0.53475 0.0
C533 C 0.06687 0.13549 0.57194 0.0
C534 C 0.12938 0.17571 0.58346 0.0
H535 H 0.17578 0.19946 0.7191 0.0
H536 H 0.14084 0.18396 0.68668 0.0
H537 H 0.16165 0.20199 0.59701 0.0
H538 H 0.10982 0.09734 0.51561 0.0
H539 H 0.13227 0.1309 0.5452 0.0
H540 H 0.0947 0.12991 0.62415 0.0
C541 C 0.16158 0.18767 0.67899 0.0
C542 C 0.14719 0.18623 0.60328 0.0
C543 C 0.18159 0.19649 0.6976 0.0
C544 C 0.09747 0.10842 0.53076 0.0
C545 C 0.11025 0.12762 0.5476 0.0
C546 C 0.10887 0.14608 0.61823 0.0
C547 C 0.16808 0.18472 0.65068 0.0
C548 C 0.14688 0.17593 0.63055 0.0
C549 C 0.09533 0.14036 0.5691 0.0
C550 C 0.11048 0.15517 0.59068 0.0
H551 H 0.23557 0.20391 0.65233 0.0
H552 H 0.20132 0.18715 0.62021 0.0
H553 H 0.12628 0.14761 0.65863 0.0
H554 H 0.03232 0.112 0.55821 0.0
H555 H 0.05504 0.14513 0.58843 0.0
C556 C 0.84836 0.20789 0.69338 0.0
C557 C 0.83453 0.20304 0.71859 0.0
C558 C 0.87068 0.19141 0.68532 0.0
C559 C 0.89113 0.12235 0.68619 0.0
H560 H 0.96239 0.1474 0.6592 0.0
C561 C 0.95528 0.05164 0.61699 0.0
C562 C 0.96788 0.06425 0.59406 0.0
C563 C 0.94632 0.06731 0.63954 0.0
C564 C 0.94253 0.14001 0.66642 0.0
H565 H 0.83352 0.17776 0.75553 0.0
H566 H 0.87198 0.1479 0.74066 0.0
H567 H 0.93224 0.17879 0.68496 0.0
H568 H 0.98236 0.10269 0.57705 0.0
H569 H 0.96535 0.13038 0.61534 0.0
H570 H 0.89958 0.08467 0.66568 0.0
C571 C 0.86585 0.16493 0.72759 0.0
C572 C 0.92547 0.15795 0.68145 0.0
C573 C 0.84394 0.18194 0.73604 0.0
C574 C 0.97291 0.09251 0.59469 0.0
C575 C 0.96318 0.10835 0.61683 0.0
C576 C 0.9078 0.10464 0.6706 0.0
C577 C 0.87915 0.16939 0.70201 0.0
C578 C 0.89939 0.14941 0.69087 0.0
C579 C 0.94877 0.09611 0.63915 0.0
C580 C 0.93345 0.11342 0.65977 0.0
H581 H 0.84158 0.22413 0.67964 0.0
H582 H 0.88043 0.19501 0.66536 0.0
H583 H 0.87091 0.11545 0.69297 0.0
H584 H 0.95142 0.02976 0.61699 0.0
H585 H 0.93632 0.05689 0.65669 0.0
C586 C 0.84631 0.7828 0.69386 0.0
C587 C 0.83499 0.79612 0.71709 0.0
C588 C 0.86766 0.79476 0.67868 0.0
C589 C 0.88926 0.83543 0.63782 0.0
H590 H 0.94785 0.88258 0.66364 0.0
C591 C 0.92745 0.92719 0.57648 0.0
C592 C 0.95598 0.93033 0.57211 0.0
C593 C 0.91751 0.90719 0.59449 0.0
C594 C 0.93186 0.8691 0.65619 0.0
H595 H 0.83828 0.83131 0.744 0.0
H596 H 0.87519 0.85309 0.71664 0.0
H597 H 0.92282 0.85328 0.69681 0.0
H598 H -0.00341 0.91511 0.5832 0.0
H599 H 0.97892 0.87999 0.61553 0.0
H600 H 0.89747 0.85184 0.59754 0.0
C601 C 0.86787 0.83308 0.71049 0.0
C602 C 0.91739 0.85258 0.67514 0.0
C603 C 0.84668 0.82076 0.72608 0.0
C604 C 0.97448 0.91291 0.58607 0.0
C605 C 0.96445 0.89306 0.60464 0.0
C606 C 0.90352 0.85195 0.61908 0.0
C607 C 0.87778 0.82065 0.68601 0.0
C608 C 0.89558 0.83595 0.66617 0.0
C609 C 0.93585 0.89006 0.60885 0.0
C610 C 0.92445 0.8694 0.62816 0.0
H611 H 0.83797 0.76346 0.68686 0.0
H612 H 0.87534 0.78431 0.66038 0.0
H613 H 0.87233 0.82325 0.6302 0.0
H614 H 0.91272 0.94027 0.56595 0.0
H615 H 0.89538 0.90541 0.59758 0.0
C616 C 0.29164 0.1376 0.17946 0.0
C617 C 0.27679 0.16058 0.16998 0.0
C618 C 0.3104 0.12422 0.16191 0.0
C619 C 0.35567 0.14244 0.1047 0.0
H620 H 0.37261 0.06471 0.10178 0.0
C621 C 0.44224 0.09782 0.03516 0.0
C622 C 0.4576 0.07569 0.04575 0.0
C623 C 0.41927 0.10784 0.04966 0.0
C624 C 0.36828 0.08651 0.10266 0.0
H625 H 0.26757 0.18559 0.13393 0.0
H626 H 0.30014 0.16208 0.10338 0.0
H627 H 0.33143 0.0805 0.12685 0.0
H628 H 0.46193 0.04777 0.08055 0.0
H629 H 0.42235 0.06582 0.10617 0.0
H630 H 0.39276 0.14867 0.08125 0.0
C631 C 0.29778 0.15489 0.12451 0.0
C632 C 0.34465 0.09547 0.11684 0.0
C633 C 0.27909 0.16826 0.14199 0.0
C634 C 0.45038 0.06472 0.07175 0.0
C635 C 0.42754 0.07486 0.0863 0.0
C636 C 0.37934 0.13353 0.0907 0.0
C637 C 0.31449 0.13359 0.13466 0.0
C638 C 0.33821 0.12353 0.11805 0.0
C639 C 0.41136 0.09608 0.07511 0.0
C640 C 0.386 0.10549 0.08968 0.0
H641 H 0.29022 0.13112 0.20088 0.0
H642 H 0.32305 0.10782 0.17025 0.0
H643 H 0.35151 0.16427 0.10581 0.0
H644 H 0.44715 0.10656 0.01508 0.0
H645 H 0.40711 0.12411 0.04041 0.0
C646 C 0.84256 0.27121 0.17004 0.0
C647 C 0.83243 0.28884 0.19086 0.0
C648 C 0.86445 0.27943 0.15277 0.0
C649 C 0.92337 0.32598 0.15051 0.0
H650 H 0.91021 0.33461 0.07196 0.0
C651 C 0.96363 0.4157 0.08847 0.0
C652 C 0.96945 0.4133 0.06008 0.0
C653 C 0.95484 0.39305 0.1037 0.0
C654 C 0.9147 0.33162 0.09368 0.0
H655 H 0.83743 0.32877 0.20995 0.0
H656 H 0.87556 0.34276 0.18021 0.0
H657 H 0.87811 0.30774 0.10025 0.0
H658 H 0.9724 0.3849 0.02568 0.0
H659 H 0.95668 0.3451 0.05245 0.0
H660 H 0.95914 0.35091 0.14436 0.0
C661 C 0.86663 0.32266 0.17723 0.0
C662 C 0.89626 0.31631 0.10985 0.0
C663 C 0.84457 0.31473 0.19404 0.0
C664 C 0.96802 0.38735 0.04756 0.0
C665 C 0.95891 0.36462 0.06281 0.0
C666 C 0.9419 0.34106 0.13436 0.0
C667 C 0.87687 0.30508 0.15657 0.0
C668 C 0.89973 0.31461 0.13859 0.0
C669 C 0.9515 0.36746 0.09087 0.0
C670 C 0.93691 0.3453 0.10607 0.0
H671 H 0.8336 0.25112 0.16712 0.0
H672 H 0.87193 0.26567 0.13677 0.0
H673 H 0.92663 0.32457 0.17262 0.0
H674 H 0.96481 0.43538 0.09874 0.0
H675 H 0.949 0.39607 0.12518 0.0
C676 C 0.74163 0.83801 0.18133 0.0
C677 C 0.73291 0.83316 0.20868 0.0
C678 C 0.72998 0.85935 0.16594 0.0
C679 C 0.6834 0.92086 0.17188 0.0
H680 H 0.66833 0.90388 0.09517 0.0
C681 C 0.59192 0.96194 0.10825 0.0
C682 C 0.59691 0.96922 0.08051 0.0
C683 C 0.61333 0.95183 0.12459 0.0
C684 C 0.67285 0.90916 0.11642 0.0
H685 H 0.70546 0.84699 0.24157 0.0
H686 H 0.68408 0.88319 0.21442 0.0
H687 H 0.69663 0.87273 0.12221 0.0
H688 H 0.62845 0.97307 0.04852 0.0
H689 H 0.66576 0.95469 0.07699 0.0
H690 H 0.65764 0.95639 0.16622 0.0
C691 C 0.7006 0.87129 0.20499 0.0
C692 C 0.68917 0.89134 0.13197 0.0
C693 C 0.71267 0.85033 0.22054 0.0
C694 C 0.62402 0.96771 0.06987 0.0
C695 C 0.64533 0.95711 0.08607 0.0
C696 C 0.66661 0.93843 0.1564 0.0
C697 C 0.70888 0.87593 0.17736 0.0
C698 C 0.69422 0.89663 0.16009 0.0
C699 C 0.63997 0.9484 0.1133 0.0
C700 C 0.66084 0.93244 0.12868 0.0
H701 H 0.75751 0.82532 0.1718 0.0
H702 H 0.73737 0.86264 0.14498 0.0
H703 H 0.68735 0.92599 0.19325 0.0
H704 H 0.57125 0.96306 0.11701 0.0
H705 H 0.60867 0.94506 0.14548 0.0
C706 C 0.19091 0.70839 0.14407 0.0
C707 C 0.17792 0.7158 0.16914 0.0
C708 C 0.17887 0.68913 0.12664 0.0
C709 C 0.11307 0.65414 0.11181 0.0
H710 H 0.16081 0.59714 0.08175 0.0
C711 C 0.06856 0.55748 0.06246 0.0
C712 C 0.08006 0.54949 0.03686 0.0
C713 C 0.08152 0.57717 0.0786 0.0
C714 C 0.14727 0.61306 0.08979 0.0
H715 H 0.14158 0.70944 0.19504 0.0
H716 H 0.12076 0.67579 0.16476 0.0
H717 H 0.18074 0.63428 0.10866 0.0
H718 H 0.11496 0.55499 0.00885 0.0
H719 H 0.13758 0.58941 0.03714 0.0
H720 H 0.07959 0.63284 0.09314 0.0
C721 C 0.14014 0.68501 0.15846 0.0
C722 C 0.15868 0.63438 0.10511 0.0
C723 C 0.15216 0.70424 0.17589 0.0
C724 C 0.10554 0.56066 0.02845 0.0
C725 C 0.11853 0.58036 0.04467 0.0
C726 C 0.10168 0.63283 0.09656 0.0
C727 C 0.15357 0.67691 0.13387 0.0
C728 C 0.14166 0.65505 0.11644 0.0
C729 C 0.1063 0.58928 0.06958 0.0
C730 C 0.11863 0.61195 0.08557 0.0
H731 H 0.21072 0.71696 0.13817 0.0
H732 H 0.1895 0.68363 0.1076 0.0
H733 H 0.09948 0.67 0.11988 0.0
H734 H 0.04903 0.54921 0.06968 0.0
H735 H 0.07189 0.58325 0.09799 0.0
C736 C 0.31787 0.85547 0.82734 0.0
C737 C 0.30587 0.8307 0.83613 0.0
C738 C 0.33755 0.86845 0.84357 0.0
C739 C 0.36689 0.87058 0.91399 0.0
H740 H 0.43138 0.89903 0.8754 0.0
C741 C 0.4624 0.90714 0.97269 0.0
C742 C 0.47221 0.9332 0.96503 0.0
C743 C 0.44347 0.8935 0.95611 0.0
C744 C 0.41343 0.8913 0.88642 0.0
H745 H 0.30435 0.80072 0.86941 0.0
H746 H 0.33891 0.82321 0.89753 0.0
H747 H 0.394 0.87871 0.84904 0.0
H748 H 0.47105 0.96461 0.93307 0.0
H749 H 0.43812 0.94068 0.90415 0.0
H750 H 0.38645 0.88306 0.95137 0.0
C751 C 0.33292 0.83275 0.87822 0.0
C752 C 0.39195 0.8798 0.87135 0.0
C753 C 0.31312 0.81983 0.86205 0.0
C754 C 0.46389 0.94459 0.93964 0.0
C755 C 0.44506 0.93086 0.92301 0.0
C756 C 0.38842 0.88197 0.92905 0.0
C757 C 0.34576 0.8569 0.86888 0.0
C758 C 0.36839 0.8694 0.88496 0.0
C759 C 0.43412 0.90553 0.93145 0.0
C760 C 0.41187 0.89249 0.91541 0.0
H761 H 0.31259 0.86453 0.80757 0.0
H762 H 0.34663 0.88736 0.83608 0.0
H763 H 0.34888 0.86308 0.92506 0.0
H764 H 0.46845 0.8977 0.99204 0.0
H765 H 0.43571 0.87376 0.96287 0.0
C766 C 0.16592 0.29559 0.78941 0.0
C767 C 0.1827 0.27739 0.8043 0.0
C768 C 0.14322 0.30807 0.80206 0.0
C769 C 0.09801 0.31168 0.86386 0.0
H770 H 0.10683 0.38993 0.85255 0.0
C771 C 0.05182 0.39472 0.93657 0.0
C772 C 0.04639 0.42084 0.92546 0.0
C773 C 0.06247 0.37385 0.91974 0.0
C774 C 0.10343 0.36819 0.85551 0.0
H775 H 0.18808 0.25617 0.84327 0.0
H776 H 0.14833 0.27877 0.86602 0.0
H777 H 0.13577 0.35827 0.82698 0.0
H778 H 0.04513 0.44494 0.8878 0.0
H779 H 0.06237 0.40822 0.85811 0.0
H780 H 0.06571 0.3219 0.89283 0.0
C781 C 0.15256 0.28298 0.84437 0.0
C782 C 0.1202 0.34998 0.84089 0.0
C783 C 0.17525 0.27012 0.83146 0.0
C784 C 0.04961 0.4251 0.89692 0.0
C785 C 0.05965 0.40409 0.88 0.0
C786 C 0.08089 0.33003 0.87844 0.0
C787 C 0.13716 0.303 0.83007 0.0
C788 C 0.11781 0.32156 0.84494 0.0
C789 C 0.06744 0.37862 0.8914 0.0
C790 C 0.08356 0.35856 0.87453 0.0
H791 H 0.17121 0.30124 0.7683 0.0
H792 H 0.13137 0.32299 0.7904 0.0
H793 H 0.09578 0.28984 0.86735 0.0
H794 H 0.04957 0.39095 0.95859 0.0
H795 H 0.06835 0.3546 0.9293 0.0
C796 C 0.73777 0.18106 0.83536 0.0
C797 C 0.72034 0.18869 0.81347 0.0
C798 C 0.73081 0.15908 0.85271 0.0
C799 C 0.68812 0.09702 0.85574 0.0
H800 H 0.67868 0.11259 0.9339 0.0
C801 C 0.60004 0.05526 0.91991 0.0
C802 C 0.60286 0.05044 0.94837 0.0
C803 C 0.62238 0.06443 0.90418 0.0
C804 C 0.68195 0.10748 0.91231 0.0
H805 H 0.6822 0.17903 0.79239 0.0
H806 H 0.67025 0.14079 0.82247 0.0
H807 H 0.70367 0.14491 0.90439 0.0
H808 H 0.63166 0.04972 0.98248 0.0
H809 H 0.67095 0.06628 0.95482 0.0
H810 H 0.66518 0.06034 0.86329 0.0
C811 C 0.68931 0.15168 0.82615 0.0
C812 C 0.69618 0.12605 0.89542 0.0
C813 C 0.696 0.17381 0.80915 0.0
C814 C 0.62895 0.05333 0.96054 0.0
C815 C 0.65135 0.06288 0.94478 0.0
C816 C 0.67408 0.0784 0.87262 0.0
C817 C 0.70662 0.1441 0.84807 0.0
C818 C 0.69808 0.12162 0.86677 0.0
C819 C 0.64805 0.06919 0.91659 0.0
C820 C 0.66956 0.08419 0.90077 0.0
H821 H 0.75668 0.19215 0.83918 0.0
H822 H 0.74436 0.15367 0.86961 0.0
H823 H 0.6898 0.09295 0.83375 0.0
H824 H 0.58023 0.05291 0.90994 0.0
H825 H 0.61901 0.06942 0.88261 0.0
C826 C 0.79329 0.67532 0.84107 0.0
C827 C 0.80595 0.69809 0.82862 0.0
C828 C 0.80766 0.65917 0.85989 0.0
C829 C 0.87147 0.65571 0.90209 0.0
H830 H 0.8587 0.57741 0.89632 0.0
C831 C 0.94422 0.5724 0.94582 0.0
C832 C 0.93156 0.55279 0.96307 0.0
C833 C 0.92821 0.59087 0.93076 0.0
C834 C 0.86226 0.59924 0.89827 0.0
H835 H 0.84312 0.72253 0.82651 0.0
H836 H 0.86899 0.69346 0.85857 0.0
H837 H 0.83226 0.60901 0.86777 0.0
H838 H 0.89236 0.5367 0.97771 0.0
H839 H 0.86425 0.56865 0.95051 0.0
H840 H 0.90251 0.64542 0.9318 0.0
C841 C 0.84766 0.68845 0.85439 0.0
C842 C 0.84704 0.61742 0.88208 0.0
C843 C 0.83297 0.70504 0.83595 0.0
C844 C 0.9026 0.55163 0.96457 0.0
C845 C 0.88657 0.56981 0.94907 0.0
C846 C 0.88706 0.63744 0.91795 0.0
C847 C 0.8353 0.66501 0.86617 0.0
C848 C 0.85138 0.6459 0.88384 0.0
C849 C 0.8993 0.58973 0.93231 0.0
C850 C 0.8825 0.6091 0.91613 0.0
H851 H 0.77223 0.66987 0.83609 0.0
H852 H 0.79716 0.64184 0.86921 0.0
H853 H 0.87509 0.67749 0.90428 0.0
H854 H 0.96653 0.57393 0.94444 0.0
H855 H 0.93839 0.60595 0.91774 0.0
C856 C 0.18083 0.28125 0.14436 0.0
C857 C 0.17282 0.27937 0.17234 0.0
C858 C 0.16838 0.30034 0.12695 0.0
C859 C 0.13348 0.3668 0.13039 0.0
H860 H 0.1175 0.35286 0.05321 0.0
C861 C 0.07252 0.44082 0.06096 0.0
C862 C 0.081 0.44361 0.03321 0.0
C863 C 0.08564 0.4221 0.07828 0.0
C864 C 0.12228 0.35711 0.07462 0.0
H865 H 0.1442 0.29476 0.20356 0.0
H866 H 0.12212 0.32797 0.17289 0.0
H867 H 0.13349 0.31536 0.0826 0.0
H868 H 0.11078 0.43018 0.00217 0.0
H869 H 0.13385 0.39733 0.03267 0.0
H870 H 0.12203 0.40851 0.12242 0.0
C871 C 0.13846 0.31498 0.16467 0.0
C872 C 0.13125 0.33565 0.09146 0.0
C873 C 0.15093 0.29582 0.18214 0.0
C874 C 0.10383 0.42843 0.02348 0.0
C875 C 0.11685 0.40951 0.04081 0.0
C876 C 0.12443 0.38823 0.11356 0.0
C877 C 0.14761 0.3179 0.13713 0.0
C878 C 0.13689 0.34028 0.11951 0.0
C879 C 0.1074 0.40575 0.06815 0.0
C880 C 0.11872 0.38356 0.08555 0.0
H881 H 0.19753 0.26874 0.13609 0.0
H882 H 0.17596 0.30221 0.10586 0.0
H883 H 0.13823 0.37108 0.1518 0.0
H884 H 0.05509 0.45241 0.06908 0.0
H885 H 0.07784 0.41951 0.09921 0.0
C886 C 0.14687 0.74369 0.82563 0.0
C887 C 0.17443 0.74199 0.83451 0.0
C888 C 0.12591 0.73024 0.84019 0.0
C889 C 0.09445 0.68017 0.85905 0.0
H890 H 0.09307 0.6683 0.93841 0.0
C891 C 0.05901 0.58015 0.90971 0.0
C892 C 0.04574 0.58088 0.9357 0.0
C893 C 0.06803 0.60431 0.89712 0.0
C894 C 0.09277 0.67176 0.91626 0.0
H895 H 0.20126 0.7265 0.86676 0.0
H896 H 0.16474 0.70264 0.89193 0.0
H897 H 0.12175 0.70467 0.91887 0.0
H898 H 0.0299 0.60789 0.96795 0.0
H899 H 0.04577 0.65003 0.94586 0.0
H900 H 0.06609 0.64678 0.85637 0.0
C901 C 0.15928 0.71458 0.87384 0.0
C902 C 0.10942 0.69239 0.90507 0.0
C903 C 0.18027 0.72814 0.85932 0.0
C904 C 0.04024 0.6065 0.94802 0.0
C905 C 0.04942 0.63067 0.93546 0.0
C906 C 0.07786 0.65954 0.87023 0.0
C907 C 0.13205 0.71473 0.86389 0.0
C908 C 0.11106 0.69625 0.87628 0.0
C909 C 0.06403 0.62973 0.91024 0.0
C910 C 0.07753 0.65457 0.89886 0.0
H911 H 0.14159 0.75455 0.80681 0.0
H912 H 0.10504 0.73114 0.83232 0.0
H913 H 0.0954 0.68244 0.83676 0.0
H914 H 0.06341 0.56084 0.8995 0.0
H915 H 0.07944 0.60289 0.87777 0.0
C916 C 0.33186 0.16141 0.79832 0.0
C917 C 0.30454 0.16998 0.80357 0.0
C918 C 0.34351 0.13984 0.81321 0.0
C919 C 0.34029 0.10744 0.88075 0.0
H920 H 0.39338 0.05755 0.84699 0.0
C921 C 0.4163 0.04297 0.94645 0.0
C922 C 0.444 0.04598 0.93784 0.0
C923 C 0.39468 0.0513 0.9292 0.0
C924 C 0.37854 0.07124 0.85674 0.0
H925 H 0.26766 0.16201 0.82801 0.0
H926 H 0.28838 0.12422 0.85466 0.0
H927 H 0.36266 0.0846 0.81774 0.0
H928 H 0.47057 0.05859 0.90374 0.0
H929 H 0.4331 0.07298 0.87385 0.0
H930 H 0.35712 0.09506 0.91971 0.0
C931 C 0.30063 0.13431 0.8388 0.0
C932 C 0.36093 0.08669 0.84001 0.0
C933 C 0.28875 0.1558 0.8235 0.0
C934 C 0.44951 0.05614 0.91112 0.0
C935 C 0.42797 0.06419 0.89385 0.0
C936 C 0.35795 0.09195 0.89754 0.0
C937 C 0.32827 0.12634 0.83398 0.0
C938 C 0.34238 0.10577 0.85177 0.0
C939 C 0.40033 0.06245 0.90288 0.0
C940 C 0.37802 0.07449 0.88564 0.0
H941 H 0.34454 0.17178 0.78297 0.0
H942 H 0.36495 0.13452 0.80922 0.0
H943 H 0.32635 0.12207 0.89043 0.0
H944 H 0.41133 0.03524 0.96693 0.0
H945 H 0.37359 0.04955 0.93666 0.0
C946 C 0.81621 0.34438 0.79659 0.0
C947 C 0.80527 0.31924 0.80553 0.0
C948 C 0.83164 0.36045 0.81457 0.0
C949 C 0.86881 0.35686 0.88169 0.0
H950 H 0.86515 0.43622 0.87633 0.0
C951 C 0.90912 0.43047 0.96512 0.0
C952 C 0.93036 0.44771 0.95558 0.0
C953 C 0.89337 0.41566 0.94641 0.0
C954 C 0.86633 0.41407 0.8779 0.0
H955 H 0.80124 0.29139 0.84034 0.0
H956 H 0.82691 0.31993 0.87215 0.0
H957 H 0.83809 0.4083 0.84477 0.0
H958 H 0.95119 0.46382 0.91911 0.0
H959 H 0.92281 0.43841 0.88623 0.0
H960 H 0.8962 0.36297 0.91568 0.0
C961 C 0.82463 0.32689 0.851 0.0
C962 C 0.85105 0.39803 0.85975 0.0
C963 C 0.80974 0.31056 0.83283 0.0
C964 C 0.93498 0.45058 0.92697 0.0
C965 C 0.91878 0.4362 0.90822 0.0
C966 C 0.88358 0.37293 0.90017 0.0
C967 C 0.83594 0.35199 0.84207 0.0
C968 C 0.85214 0.36918 0.86137 0.0
C969 C 0.8982 0.41833 0.91788 0.0
C970 C 0.88248 0.40159 0.89833 0.0
H971 H 0.81323 0.35144 0.77554 0.0
H972 H 0.84045 0.37932 0.80672 0.0
H973 H 0.87075 0.33478 0.88321 0.0
H974 H 0.90524 0.42775 0.98708 0.0
H975 H 0.8775 0.40198 0.95419 0.0
C976 C 0.73427 0.82515 0.8521 0.0
C977 C 0.72404 0.82508 0.82501 0.0
C978 C 0.72218 0.8422 0.87215 0.0
C979 C 0.67825 0.90265 0.88351 0.0
H980 H 0.64329 0.86053 0.94221 0.0
C981 C 0.58604 0.94594 0.94521 0.0
C982 C 0.58278 0.93864 0.97316 0.0
C983 C 0.60646 0.93347 0.92889 0.0
C984 C 0.65332 0.87283 0.92641 0.0
H985 H 0.69481 0.84388 0.79697 0.0
H986 H 0.67444 0.87436 0.83169 0.0
H987 H 0.67633 0.83829 0.91115 0.0
H988 H 0.59853 0.9128 0.00609 0.0
H989 H 0.63471 0.89163 0.97791 0.0
H990 H 0.65546 0.93724 0.89861 0.0
C991 C 0.69145 0.86108 0.83756 0.0
C992 C 0.67227 0.86003 0.90862 0.0
C993 C 0.70301 0.84362 0.81776 0.0
C994 C 0.60028 0.91853 0.98447 0.0
C995 C 0.62104 0.90639 0.96827 0.0
C996 C 0.65969 0.91561 0.9016 0.0
C997 C 0.70028 0.85986 0.8651 0.0
C998 C 0.68433 0.87466 0.88662 0.0
C999 C 0.62447 0.91377 0.94027 0.0
C1000 C 0.64635 0.90068 0.9228 0.0
H1001 H 0.75032 0.81083 0.85816 0.0
H1002 H 0.72926 0.84096 0.89332 0.0
H1003 H 0.68741 0.91434 0.86671 0.0
H1004 H 0.57278 0.96132 0.93592 0.0
H1005 H 0.60793 0.93921 0.90726 0.0
C1006 C 0.84049 0.72295 0.16551 0.0
C1007 C 0.84715 0.72579 0.1936 0.0
C1008 C 0.85886 0.70996 0.14731 0.0
C1009 C 0.92968 0.6819 0.13829 0.0
H1010 H 0.89138 0.62182 0.10315 0.0
C1011 C 0.97519 0.59862 0.06214 0.0
C1012 C 0.96734 0.57166 0.06911 0.0
C1013 C 0.96493 0.6209 0.07734 0.0
C1014 C 0.90231 0.63859 0.11275 0.0
H1015 H 0.87934 0.71952 0.22403 0.0
H1016 H 0.91118 0.69655 0.19227 0.0
H1017 H 0.86486 0.65714 0.12709 0.0
H1018 H 0.94478 0.54696 0.0992 0.0
H1019 H 0.92679 0.58577 0.12523 0.0
H1020 H 0.96728 0.66253 0.12416 0.0
C1021 C 0.89182 0.70442 0.18435 0.0
C1022 C 0.88716 0.65897 0.12616 0.0
C1023 C 0.87343 0.71736 0.20259 0.0
C1024 C 0.9509 0.56739 0.09287 0.0
C1025 C 0.94057 0.58958 0.10784 0.0
C1026 C 0.94492 0.66154 0.12447 0.0
C1027 C 0.88422 0.69966 0.15683 0.0
C1028 C 0.90065 0.68055 0.1395 0.0
C1029 C 0.94664 0.61647 0.09956 0.0
C1030 C 0.93127 0.63942 0.11224 0.0
H1031 H 0.82058 0.72955 0.15781 0.0
H1032 H 0.85269 0.70685 0.12606 0.0
H1033 H 0.94053 0.69838 0.14843 0.0
H1034 H 0.98806 0.60266 0.04413 0.0
H1035 H 0.9699 0.64155 0.07072 0.0
C1036 C 0.2645 0.87238 0.17838 0.0
C1037 C 0.26382 0.8446 0.17058 0.0
C1038 C 0.28071 0.89108 0.16358 0.0
C1039 C 0.32163 0.90138 0.09906 0.0
H1040 H 0.37055 0.94199 0.14691 0.0
C1041 C 0.4372 0.94822 0.09286 0.0
C1042 C 0.43636 0.96226 0.06743 0.0
C1043 C 0.4129 0.93881 0.10539 0.0
C1044 C 0.35696 0.93089 0.13328 0.0
H1045 H 0.2779 0.81525 0.13976 0.0
H1046 H 0.30618 0.84786 0.11405 0.0
H1047 H 0.33234 0.91614 0.16708 0.0
H1048 H 0.40898 0.97841 0.03584 0.0
H1049 H 0.36665 0.96186 0.05776 0.0
H1050 H 0.34705 0.91522 0.06536 0.0
C1051 C 0.29418 0.85518 0.1316 0.0
C1052 C 0.33488 0.91632 0.14478 0.0
C1053 C 0.27804 0.83644 0.14643 0.0
C1054 C 0.41049 0.96759 0.05538 0.0
C1055 C 0.3862 0.95799 0.06783 0.0
C1056 C 0.34364 0.91609 0.08753 0.0
C1057 C 0.29646 0.88247 0.1406 0.0
C1058 C 0.31736 0.90089 0.12786 0.0
C1059 C 0.38721 0.9431 0.09272 0.0
C1060 C 0.36191 0.93046 0.1046 0.0
H1061 H 0.25363 0.87946 0.19673 0.0
H1062 H 0.2817 0.91209 0.17073 0.0
H1063 H 0.30835 0.88984 0.0855 0.0
H1064 H 0.45669 0.94384 0.10282 0.0
H1065 H 0.41437 0.92718 0.12446 0.0
C1066 C 0.68398 0.18348 0.21458 0.0
C1067 C 0.70891 0.1949 0.20511 0.0
C1068 C 0.66719 0.16875 0.19664 0.0
C1069 C 0.66648 0.1363 0.12643 0.0
H1070 H 0.58707 0.14072 0.13763 0.0
C1071 C 0.58595 0.10351 0.04518 0.0
C1072 C 0.56821 0.08256 0.05438 0.0
C1073 C 0.60269 0.11733 0.06389 0.0
C1074 C 0.60922 0.1393 0.13439 0.0
H1075 H 0.7359 0.19988 0.16946 0.0
H1076 H 0.70608 0.17543 0.13773 0.0
H1077 H 0.61761 0.1645 0.1693 0.0
H1078 H 0.55337 0.06032 0.09044 0.0
H1079 H 0.58198 0.0854 0.12337 0.0
H1080 H 0.65761 0.11208 0.09062 0.0
C1081 C 0.69978 0.17687 0.15923 0.0
C1082 C 0.62682 0.1527 0.15264 0.0
C1083 C 0.7169 0.19106 0.17739 0.0
C1084 C 0.56684 0.07638 0.08279 0.0
C1085 C 0.58313 0.09069 0.1016 0.0
C1086 C 0.64881 0.12345 0.10784 0.0
C1087 C 0.67455 0.16565 0.16855 0.0
C1088 C 0.65576 0.1513 0.14903 0.0
C1089 C 0.60152 0.11091 0.0922 0.0
C1090 C 0.62008 0.12477 0.11175 0.0
H1091 H 0.67744 0.1859 0.23595 0.0
H1092 H 0.6484 0.15984 0.20492 0.0
H1093 H 0.68854 0.13417 0.12316 0.0
H1094 H 0.58766 0.10853 0.02338 0.0
H1095 H 0.61669 0.13295 0.05626 0.0
C1096 C 0.67707 0.66062 0.80371 0.0
C1097 C 0.67132 0.68864 0.7995 0.0
C1098 C 0.66182 0.64543 0.82287 0.0
C1099 C 0.59817 0.63993 0.86278 0.0
H1100 H 0.64499 0.60447 0.9171 0.0
C1101 C 0.55285 0.57884 0.9555 0.0
C1102 C 0.56642 0.55412 0.96216 0.0
C1103 C 0.5648 0.59735 0.93681 0.0
C1104 C 0.63158 0.61393 0.90197 0.0
H1105 H 0.64355 0.72204 0.81064 0.0
H1106 H 0.61646 0.69504 0.84395 0.0
H1107 H 0.66581 0.63173 0.88025 0.0
H1108 H 0.60331 0.52965 0.95454 0.0
H1109 H 0.62371 0.56141 0.92164 0.0
H1110 H 0.56394 0.62131 0.88388 0.0
C1111 C 0.63308 0.68515 0.8325 0.0
C1112 C 0.64353 0.62963 0.88094 0.0
C1113 C 0.64858 0.70055 0.81345 0.0
C1114 C 0.59237 0.54858 0.9501 0.0
C1115 C 0.60416 0.56693 0.93127 0.0
C1116 C 0.58616 0.62384 0.88367 0.0
C1117 C 0.64027 0.65776 0.83804 0.0
C1118 C 0.62699 0.64243 0.86095 0.0
C1119 C 0.59048 0.59148 0.92423 0.0
C1120 C 0.6028 0.61032 0.90328 0.0
H1121 H 0.69424 0.65065 0.7932 0.0
H1122 H 0.66744 0.62418 0.82649 0.0
H1123 H 0.58503 0.64964 0.84756 0.0
H1124 H 0.53285 0.58378 0.96449 0.0
H1125 H 0.55387 0.61624 0.93219 0.0
C1126 C 0.33284 0.67715 0.78937 0.0
C1127 C 0.3196 0.69738 0.80555 0.0
C1128 C 0.35317 0.66014 0.80094 0.0
C1129 C 0.40304 0.65812 0.85752 0.0
H1130 H 0.39398 0.57915 0.85822 0.0
C1131 C 0.4395 0.59158 0.94654 0.0
C1132 C 0.44983 0.56501 0.94182 0.0
C1133 C 0.42973 0.60748 0.92473 0.0
C1134 C 0.39726 0.60111 0.85766 0.0
H1135 H 0.31745 0.71562 0.8465 0.0
H1136 H 0.35284 0.68635 0.86633 0.0
H1137 H 0.36448 0.60755 0.82869 0.0
H1138 H 0.45889 0.53461 0.91026 0.0
H1139 H 0.44139 0.56257 0.87187 0.0
H1140 H 0.43499 0.65198 0.88717 0.0
C1141 C 0.34758 0.68362 0.84476 0.0
C1142 C 0.38034 0.61733 0.84081 0.0
C1143 C 0.3271 0.70022 0.83342 0.0
C1144 C 0.45106 0.55503 0.91454 0.0
C1145 C 0.44094 0.57094 0.89261 0.0
C1146 C 0.41999 0.64197 0.87418 0.0
C1147 C 0.36092 0.66354 0.82866 0.0
C1148 C 0.38233 0.64604 0.84154 0.0
C1149 C 0.42988 0.59722 0.89759 0.0
C1150 C 0.41646 0.61341 0.87536 0.0
H1151 H 0.32748 0.67445 0.76784 0.0
H1152 H 0.36312 0.64468 0.78818 0.0
H1153 H 0.40527 0.68021 0.85807 0.0
H1154 H 0.43846 0.59998 0.96726 0.0
H1155 H 0.42099 0.62747 0.92936 0.0
C1156 C 0.35191 0.30438 0.83275 0.0
C1157 C 0.32579 0.31286 0.82341 0.0
C1158 C 0.36488 0.31845 0.8541 0.0
C1159 C 0.35112 0.36653 0.91161 0.0
H1160 H 0.42803 0.38633 0.90129 0.0
C1161 C 0.40275 0.45545 0.96911 0.0
C1162 C 0.43074 0.45281 0.9762 0.0
C1163 C 0.38972 0.43483 0.95421 0.0
C1164 C 0.4067 0.38053 0.90479 0.0
H1165 H 0.29277 0.34272 0.82927 0.0
H1166 H 0.31555 0.36737 0.86617 0.0
H1167 H 0.40591 0.35683 0.86765 0.0
H1168 H 0.46649 0.42565 0.97471 0.0
H1169 H 0.4436 0.38964 0.94897 0.0
H1170 H 0.35178 0.3908 0.94844 0.0
C1171 C 0.32582 0.34962 0.85728 0.0
C1172 C 0.39403 0.36366 0.88548 0.0
C1173 C 0.31289 0.33562 0.83594 0.0
C1174 C 0.44499 0.42851 0.9693 0.0
C1175 C 0.43193 0.40789 0.95446 0.0
C1176 C 0.36381 0.3834 0.93095 0.0
C1177 C 0.35195 0.34122 0.86655 0.0
C1178 C 0.36599 0.35691 0.88842 0.0
C1179 C 0.40437 0.41113 0.94619 0.0
C1180 C 0.39159 0.39096 0.92746 0.0
H1181 H 0.36236 0.28685 0.82363 0.0
H1182 H 0.38495 0.31143 0.86098 0.0
H1183 H 0.32958 0.36127 0.91462 0.0
H1184 H 0.39115 0.47385 0.97416 0.0
H1185 H 0.36852 0.43802 0.94791 0.0
C1186 C 0.67355 0.35162 0.78242 0.0
C1187 C 0.66746 0.32449 0.77483 0.0
C1188 C 0.65507 0.36684 0.79885 0.0
C1189 C 0.59897 0.35587 0.85019 0.0
H1190 H 0.59256 0.43511 0.84694 0.0
C1191 C 0.54182 0.45203 0.91254 0.0
C1192 C 0.54775 0.44385 0.93981 0.0
C1193 C 0.5523 0.43712 0.8899 0.0
C1194 C 0.59376 0.41294 0.84794 0.0
H1195 H 0.63619 0.29283 0.77715 0.0
H1196 H 0.60378 0.31952 0.80514 0.0
H1197 H 0.61791 0.41071 0.81057 0.0
H1198 H 0.56846 0.41275 0.96446 0.0
H1199 H 0.58666 0.38715 0.92538 0.0
H1200 H 0.57485 0.35804 0.88747 0.0
C1201 C 0.62319 0.32882 0.79907 0.0
C1202 C 0.60862 0.39895 0.82724 0.0
C1203 C 0.64173 0.31355 0.7828 0.0
C1204 C 0.56349 0.41982 0.94382 0.0
C1205 C 0.57381 0.40494 0.92131 0.0
C1206 C 0.58411 0.36982 0.8708 0.0
C1207 C 0.62992 0.3554 0.80799 0.0
C1208 C 0.61186 0.37025 0.82836 0.0
C1209 C 0.56874 0.41356 0.89403 0.0
C1210 C 0.58179 0.39859 0.8703 0.0
H1211 H 0.69318 0.36073 0.77675 0.0
H1212 H 0.66115 0.38711 0.80546 0.0
H1213 H 0.60119 0.33383 0.85203 0.0
H1214 H 0.52982 0.47043 0.90862 0.0
H1215 H 0.54773 0.44419 0.86916 0.0
C1216 C 0.66206 0.32355 0.24219 0.0
C1217 C 0.68996 0.33123 0.24389 0.0
C1218 C 0.64266 0.34143 0.23066 0.0
C1219 C 0.64238 0.39353 0.17758 0.0
H1220 H 0.5645 0.40183 0.19591 0.0
C1221 C 0.56616 0.42251 0.09527 0.0
C1222 C 0.55208 0.4474 0.0998 0.0
C1223 C 0.57906 0.40904 0.11703 0.0
C1224 C 0.58625 0.39977 0.19078 0.0
H1225 H 0.71886 0.36459 0.23744 0.0
H1226 H 0.68497 0.39575 0.21748 0.0
H1227 H 0.59575 0.37941 0.22904 0.0
H1228 H 0.53829 0.47633 0.13121 0.0
H1229 H 0.56109 0.45244 0.16949 0.0
H1230 H 0.63299 0.41301 0.13918 0.0
C1231 C 0.67824 0.37573 0.22453 0.0
C1232 C 0.60404 0.38696 0.20958 0.0
C1233 C 0.69764 0.35786 0.2359 0.0
C1234 C 0.54916 0.45728 0.12703 0.0
C1235 C 0.5621 0.44366 0.14893 0.0
C1236 C 0.62468 0.40596 0.15884 0.0
C1237 C 0.65085 0.36727 0.22076 0.0
C1238 C 0.63221 0.38348 0.20293 0.0
C1239 C 0.57805 0.42008 0.14377 0.0
C1240 C 0.59644 0.4087 0.16503 0.0
H1241 H 0.65546 0.30323 0.24838 0.0
H1242 H 0.6217 0.33433 0.22786 0.0
H1243 H 0.66386 0.39076 0.17166 0.0
H1244 H 0.56832 0.41399 0.07467 0.0
H1245 H 0.59093 0.39059 0.11275 0.0
C1246 C 0.69911 0.69688 0.18245 0.0
C1247 C 0.70435 0.69009 0.21025 0.0
C1248 C 0.68086 0.68134 0.1668 0.0
C1249 C 0.65121 0.61259 0.16226 0.0
H1250 H 0.60062 0.64712 0.11077 0.0
C1251 C 0.60063 0.55195 0.07507 0.0
C1252 C 0.57211 0.55568 0.07092 0.0
C1253 C 0.61517 0.56938 0.09244 0.0
C1254 C 0.61447 0.6372 0.1252 0.0
H1255 H 0.69418 0.66169 0.24341 0.0
H1256 H 0.66237 0.63441 0.21591 0.0
H1257 H 0.62817 0.67555 0.14159 0.0
H1258 H 0.53678 0.58148 0.08113 0.0
H1259 H 0.56243 0.6122 0.11141 0.0
H1260 H 0.63769 0.57429 0.14583 0.0
C1261 C 0.67254 0.65177 0.20628 0.0
C1262 C 0.63041 0.65345 0.14268 0.0
C1263 C 0.6907 0.66745 0.22206 0.0
C1264 C 0.55872 0.57802 0.0838 0.0
C1265 C 0.57339 0.59561 0.10115 0.0
C1266 C 0.63544 0.59638 0.14468 0.0
C1267 C 0.66748 0.65852 0.17845 0.0
C1268 C 0.64916 0.64133 0.1612 0.0
C1269 C 0.60166 0.59111 0.10607 0.0
C1270 C 0.61716 0.6085 0.12571 0.0
H1271 H 0.70918 0.7142 0.17264 0.0
H1272 H 0.67772 0.68687 0.14532 0.0
H1273 H 0.66559 0.60262 0.17613 0.0
H1274 H 0.61175 0.53513 0.06537 0.0
H1275 H 0.63705 0.56572 0.09535 0.0
C1276 C 0.32568 0.68993 0.23538 0.0
C1277 C 0.31554 0.71045 0.21756 0.0
C1278 C 0.34785 0.67311 0.22708 0.0
C1279 C 0.40595 0.66914 0.17693 0.0
H1280 H 0.39383 0.5906 0.17776 0.0
C1281 C 0.44848 0.59813 0.09375 0.0
C1282 C 0.45584 0.57092 0.09994 0.0
C1283 C 0.43824 0.61547 0.11433 0.0
C1284 C 0.39797 0.61241 0.17798 0.0
H1285 H 0.3213 0.72994 0.17749 0.0
H1286 H 0.35983 0.70095 0.16326 0.0
H1287 H 0.36208 0.62085 0.203 0.0
H1288 H 0.45958 0.54086 0.13282 0.0
H1289 H 0.44123 0.57133 0.16909 0.0
H1290 H 0.44108 0.66091 0.15098 0.0
C1291 C 0.35076 0.6978 0.18361 0.0
C1292 C 0.37973 0.62974 0.1924 0.0
C1293 C 0.32847 0.71425 0.19168 0.0
C1294 C 0.45413 0.56179 0.12752 0.0
C1295 C 0.44347 0.57914 0.14819 0.0
C1296 C 0.4242 0.65186 0.16266 0.0
C1297 C 0.36057 0.6769 0.20107 0.0
C1298 C 0.38289 0.65834 0.191 0.0
C1299 C 0.43487 0.606 0.14164 0.0
C1300 C 0.41972 0.62341 0.16201 0.0
H1301 H 0.31614 0.68649 0.25545 0.0
H1302 H 0.35501 0.65713 0.24093 0.0
H1303 H 0.40917 0.69109 0.17595 0.0
H1304 H 0.44974 0.60578 0.0727 0.0
H1305 H 0.43152 0.63588 0.10844 0.0
C1306 C 0.32115 0.31954 0.21623 0.0
C1307 C 0.30881 0.29864 0.20071 0.0
C1308 C 0.33885 0.33853 0.20339 0.0
C1309 C 0.38153 0.34937 0.13996 0.0
H1310 H 0.37077 0.42666 0.15551 0.0
C1311 C 0.44801 0.43403 0.0878 0.0
C1312 C 0.43373 0.45754 0.07865 0.0
C1313 C 0.43469 0.41443 0.10436 0.0
C1314 C 0.37398 0.40515 0.15089 0.0
H1315 H 0.30601 0.281 0.15959 0.0
H1316 H 0.33652 0.31387 0.13748 0.0
H1317 H 0.34456 0.39256 0.18176 0.0
H1318 H 0.39409 0.47862 0.07968 0.0
H1319 H 0.37095 0.44441 0.10821 0.0
H1320 H 0.4103 0.36194 0.10852 0.0
C1321 C 0.33278 0.3156 0.15954 0.0
C1322 C 0.35921 0.38559 0.16617 0.0
C1323 C 0.31505 0.29683 0.17226 0.0
C1324 C 0.4058 0.46084 0.08635 0.0
C1325 C 0.39255 0.44131 0.10294 0.0
C1326 C 0.39637 0.3689 0.12475 0.0
C1327 C 0.34476 0.3368 0.17484 0.0
C1328 C 0.36245 0.35748 0.16057 0.0
C1329 C 0.40682 0.4179 0.11225 0.0
C1330 C 0.39245 0.39706 0.12971 0.0
H1331 H 0.31681 0.32153 0.23817 0.0
H1332 H 0.34792 0.35454 0.21579 0.0
H1333 H 0.38476 0.32785 0.13533 0.0
H1334 H 0.46956 0.43084 0.08239 0.0
H1335 H 0.44636 0.39673 0.11134 0.0
C1336 C 0.77823 0.68631 0.65301 0.0
C1337 C 0.77635 0.67781 0.6808 0.0
C1338 C 0.79413 0.67144 0.63399 0.0
C1339 C 0.83267 0.60617 0.62354 0.0
H1340 H 0.8833 0.65216 0.58165 0.0
C1341 C 0.92018 0.55748 0.56101 0.0
C1342 C 0.94629 0.56907 0.56493 0.0
C1343 C 0.89636 0.57179 0.56867 0.0
C1344 C 0.8693 0.63905 0.59318 0.0
H1345 H 0.78785 0.64587 0.70991 0.0
H1346 H 0.81583 0.62011 0.67686 0.0
H1347 H 0.84561 0.6732 0.60798 0.0
H1348 H 0.96839 0.605 0.57829 0.0
H1349 H 0.92661 0.63002 0.59274 0.0
H1350 H 0.85724 0.57218 0.61021 0.0
C1351 C 0.8049 0.63817 0.66966 0.0
C1352 C 0.84747 0.65105 0.60798 0.0
C1353 C 0.78889 0.65298 0.68866 0.0
C1354 C 0.94834 0.59584 0.57506 0.0
C1355 C 0.92442 0.61009 0.5832 0.0
C1356 C 0.85453 0.5942 0.60886 0.0
C1357 C 0.80851 0.6478 0.64239 0.0
C1358 C 0.82926 0.63477 0.62379 0.0
C1359 C 0.89824 0.59777 0.58096 0.0
C1360 C 0.87341 0.61053 0.59392 0.0
H1361 H 0.7685 0.70519 0.6462 0.0
H1362 H 0.79601 0.67903 0.61297 0.0
H1363 H 0.81884 0.59306 0.63527 0.0
H1364 H 0.91826 0.53689 0.55287 0.0
H1365 H 0.87652 0.56203 0.56596 0.0
C1366 C 0.31789 0.78089 0.66256 0.0
C1367 C 0.31992 0.79474 0.68793 0.0
C1368 C 0.33263 0.79018 0.63934 0.0
C1369 C 0.39282 0.8277 0.61678 0.0
H1370 H 0.34841 0.86234 0.55993 0.0
C1371 C 0.40688 0.92659 0.54772 0.0
C1372 C 0.43306 0.92184 0.5358 0.0
C1373 C 0.39169 0.90487 0.55883 0.0
C1374 C 0.36105 0.85228 0.57535 0.0
H1375 H 0.33971 0.82815 0.70943 0.0
H1376 H 0.36625 0.84369 0.66911 0.0
H1377 H 0.32605 0.83397 0.59562 0.0
H1378 H 0.46298 0.89037 0.52438 0.0
H1379 H 0.43661 0.85257 0.54447 0.0
H1380 H 0.42765 0.84687 0.59744 0.0
C1381 C 0.353 0.82598 0.66713 0.0
C1382 C 0.34833 0.83603 0.5956 0.0
C1383 C 0.33777 0.81719 0.69007 0.0
C1384 C 0.44288 0.89472 0.53347 0.0
C1385 C 0.42787 0.87307 0.54499 0.0
C1386 C 0.40559 0.84348 0.59628 0.0
C1387 C 0.35015 0.81287 0.64152 0.0
C1388 C 0.36406 0.82451 0.61699 0.0
C1389 C 0.40258 0.87811 0.55854 0.0
C1390 C 0.38969 0.85674 0.57601 0.0
H1391 H 0.30407 0.76364 0.6604 0.0
H1392 H 0.33012 0.77993 0.61967 0.0
H1393 H 0.40523 0.81905 0.63323 0.0
H1394 H 0.39868 0.94723 0.54958 0.0
H1395 H 0.37231 0.90932 0.56937 0.0
C1396 C 0.24944 0.3427 0.66378 0.0
C1397 C 0.24656 0.34282 0.69274 0.0
C1398 C 0.23547 0.36205 0.6477 0.0
C1399 C 0.19126 0.42523 0.65111 0.0
H1400 H 0.15367 0.39013 0.5903 0.0
C1401 C 0.08623 0.46132 0.60858 0.0
C1402 C 0.08197 0.45993 0.57988 0.0
C1403 C 0.11075 0.45147 0.62004 0.0
C1404 C 0.16434 0.40045 0.60686 0.0
H1405 H 0.22847 0.36459 0.72765 0.0
H1406 H 0.20351 0.39772 0.69968 0.0
H1407 H 0.19005 0.36561 0.61429 0.0
H1408 H 0.1006 0.44793 0.54061 0.0
H1409 H 0.14325 0.43056 0.56074 0.0
H1410 H 0.16427 0.45958 0.64434 0.0
C1411 C 0.21686 0.38304 0.68928 0.0
C1412 C 0.18534 0.38643 0.6206 0.0
C1413 C 0.2311 0.3639 0.70537 0.0
C1414 C 0.1031 0.44917 0.56283 0.0
C1415 C 0.12753 0.43917 0.57432 0.0
C1416 C 0.17004 0.4392 0.63746 0.0
C1417 C 0.21804 0.3817 0.66021 0.0
C1418 C 0.19869 0.39839 0.64327 0.0
C1419 C 0.13145 0.43989 0.60307 0.0
C1420 C 0.15602 0.42669 0.61556 0.0
H1421 H 0.26154 0.32694 0.65345 0.0
H1422 H 0.23742 0.36087 0.62538 0.0
H1423 H 0.2014 0.43523 0.66819 0.0
H1424 H 0.07049 0.46972 0.62227 0.0
H1425 H 0.11309 0.45203 0.64231 0.0
C1426 C 0.6579 0.2005 0.67808 0.0
C1427 C 0.68687 0.19913 0.67801 0.0
C1428 C 0.64254 0.18086 0.66402 0.0
C1429 C 0.6492 0.12482 0.61178 0.0
H1430 H 0.57834 0.10365 0.64288 0.0
C1431 C 0.5725 0.05874 0.55138 0.0
C1432 C 0.55386 0.04194 0.56597 0.0
C1433 C 0.59043 0.07592 0.56551 0.0
C1434 C 0.5983 0.10888 0.63411 0.0
H1435 H 0.72253 0.17612 0.66326 0.0
H1436 H 0.69589 0.1413 0.63981 0.0
H1437 H 0.60591 0.1375 0.66644 0.0
H1438 H 0.54051 0.02871 0.60677 0.0
H1439 H 0.57282 0.05768 0.63157 0.0
H1440 H 0.64224 0.09516 0.58023 0.0
C1441 C 0.68487 0.15797 0.64984 0.0
C1442 C 0.61392 0.12882 0.64737 0.0
C1443 C 0.7002 0.17791 0.6634 0.0
C1444 C 0.5545 0.04163 0.595 0.0
C1445 C 0.57285 0.05845 0.60918 0.0
C1446 C 0.63383 0.10449 0.59881 0.0
C1447 C 0.6558 0.15905 0.65007 0.0
C1448 C 0.63943 0.13734 0.63621 0.0
C1449 C 0.59056 0.07637 0.59463 0.0
C1450 C 0.60798 0.09649 0.60958 0.0
H1451 H 0.64708 0.21675 0.68904 0.0
H1452 H 0.62024 0.18284 0.66414 0.0
H1453 H 0.66857 0.13097 0.60231 0.0
H1454 H 0.57235 0.05967 0.52896 0.0
H1455 H 0.60333 0.08966 0.55349 0.0
C1456 C 0.80793 0.32985 0.35904 0.0
C1457 C 0.80799 0.33362 0.33023 0.0
C1458 C 0.82183 0.34811 0.37606 0.0
C1459 C 0.85838 0.41535 0.37669 0.0
H1460 H 0.9011 0.37971 0.43416 0.0
C1461 C 0.95823 0.4589 0.42321 0.0
C1462 C 0.96171 0.45643 0.45195 0.0
C1463 C 0.93538 0.44726 0.41046 0.0
C1464 C 0.88896 0.39004 0.4185 0.0
H1465 H 0.82166 0.35998 0.29665 0.0
H1466 H 0.84691 0.39127 0.32618 0.0
H1467 H 0.86811 0.3532 0.40799 0.0
H1468 H 0.94336 0.44084 0.49001 0.0
H1469 H 0.9038 0.41995 0.46755 0.0
H1470 H 0.88064 0.45191 0.3865 0.0
C1471 C 0.83557 0.37465 0.3358 0.0
C1472 C 0.86994 0.37489 0.40353 0.0
C1473 C 0.82124 0.35662 0.31882 0.0
C1474 C 0.94145 0.44281 0.46778 0.0
C1475 C 0.9188 0.43089 0.45498 0.0
C1476 C 0.87772 0.43044 0.39149 0.0
C1477 C 0.83654 0.37026 0.36458 0.0
C1478 C 0.85467 0.38724 0.38217 0.0
C1479 C 0.91576 0.43273 0.42618 0.0
C1480 C 0.89341 0.41778 0.41226 0.0
H1481 H 0.79748 0.31251 0.36843 0.0
H1482 H 0.82155 0.3445 0.39818 0.0
H1483 H 0.84664 0.42562 0.36072 0.0
H1484 H 0.97329 0.4696 0.4105 0.0
H1485 H 0.93358 0.44879 0.38817 0.0
C1486 C 0.67284 0.75599 0.34227 0.0
C1487 C 0.69888 0.76858 0.34197 0.0
C1488 C 0.65194 0.76563 0.36006 0.0
C1489 C 0.61105 0.81066 0.37764 0.0
H1490 H 0.6229 0.83856 0.4517 0.0
C1491 C 0.56822 0.91289 0.41549 0.0
C1492 C 0.5556 0.91442 0.44173 0.0
C1493 C 0.58113 0.88875 0.40681 0.0
C1494 C 0.61902 0.83046 0.43126 0.0
H1495 H 0.72437 0.79922 0.36151 0.0
H1496 H 0.68825 0.81564 0.39274 0.0
H1497 H 0.655 0.80462 0.4321 0.0
H1498 H 0.54675 0.89199 0.4796 0.0
H1499 H 0.57035 0.84976 0.46458 0.0
H1500 H 0.57622 0.83789 0.37606 0.0
C1501 C 0.68376 0.79854 0.37926 0.0
C1502 C 0.63739 0.81115 0.42003 0.0
C1503 C 0.70438 0.78932 0.3612 0.0
C1504 C 0.55626 0.89131 0.45921 0.0
C1505 C 0.56971 0.86723 0.45069 0.0
C1506 C 0.59291 0.83017 0.38874 0.0
C1507 C 0.65706 0.78752 0.37818 0.0
C1508 C 0.63417 0.80191 0.39271 0.0
C1509 C 0.58207 0.86574 0.42432 0.0
C1510 C 0.5974 0.84102 0.41519 0.0
H1511 H 0.66812 0.73998 0.32759 0.0
H1512 H 0.6315 0.75679 0.35886 0.0
H1513 H 0.60818 0.80409 0.35647 0.0
H1514 H 0.56787 0.93028 0.40148 0.0
H1515 H 0.59089 0.88825 0.38654 0.0
C1516 C 0.21252 0.69839 0.34169 0.0
C1517 C 0.19565 0.71044 0.32142 0.0
C1518 C 0.20064 0.68576 0.36498 0.0
C1519 C 0.13678 0.68425 0.40699 0.0
H1520 H 0.1551 0.60809 0.42108 0.0
C1521 C 0.06089 0.60854 0.45686 0.0
C1522 C 0.07134 0.58519 0.47011 0.0
C1523 C 0.07905 0.628 0.44578 0.0
C1524 C 0.15014 0.62956 0.4181 0.0
H1525 H 0.1531 0.71885 0.3099 0.0
H1526 H 0.1327 0.69707 0.35029 0.0
H1527 H 0.1824 0.63409 0.38781 0.0
H1528 H 0.1082 0.56464 0.48463 0.0
H1529 H 0.13994 0.59921 0.46657 0.0
H1530 H 0.10412 0.67966 0.43678 0.0
C1531 C 0.15502 0.69747 0.3483 0.0
C1532 C 0.1658 0.6444 0.3989 0.0
C1533 C 0.16678 0.70966 0.32497 0.0
C1534 C 0.09985 0.58256 0.47427 0.0
C1535 C 0.11796 0.60221 0.46371 0.0
C1536 C 0.12128 0.66951 0.42643 0.0
C1537 C 0.17178 0.68548 0.36856 0.0
C1538 C 0.15865 0.67156 0.39247 0.0
C1539 C 0.10788 0.62446 0.44814 0.0
C1540 C 0.12716 0.64169 0.43152 0.0
H1541 H 0.23482 0.69874 0.33958 0.0
H1542 H 0.21397 0.67649 0.38032 0.0
H1543 H 0.13111 0.70534 0.40261 0.0
H1544 H 0.03892 0.6107 0.45327 0.0
H1545 H 0.07049 0.6447 0.43373 0.0
C1546 C 0.29925 0.16588 0.3249 0.0
C1547 C 0.30618 0.18951 0.30972 0.0
C1548 C 0.31883 0.153 0.34156 0.0
C1549 C 0.39059 0.13789 0.34411 0.0
H1550 H 0.37886 0.12068 0.42172 0.0
C1551 C 0.47184 0.07744 0.40617 0.0
C1552 C 0.46234 0.05929 0.42669 0.0
C1553 C 0.45355 0.0955 0.39324 0.0
C1554 C 0.38232 0.12492 0.39996 0.0
H1555 H 0.33876 0.21852 0.30031 0.0
H1556 H 0.37346 0.19525 0.32885 0.0
H1557 H 0.34509 0.14885 0.39726 0.0
H1558 H 0.4263 0.04528 0.44948 0.0
H1559 H 0.39404 0.07566 0.42593 0.0
H1560 H 0.42678 0.1128 0.34598 0.0
C1561 C 0.3527 0.1871 0.32809 0.0
C1562 C 0.36311 0.14129 0.38612 0.0
C1563 C 0.33289 0.2004 0.31192 0.0
C1564 C 0.43417 0.05924 0.43383 0.0
C1565 C 0.41575 0.07687 0.42048 0.0
C1566 C 0.40951 0.12104 0.35775 0.0
C1567 C 0.34582 0.16321 0.34283 0.0
C1568 C 0.36707 0.14777 0.35809 0.0
C1569 C 0.42521 0.09538 0.40011 0.0
C1570 C 0.40556 0.11417 0.38584 0.0
H1571 H 0.27876 0.15715 0.32364 0.0
H1572 H 0.3132 0.13448 0.35265 0.0
H1573 H 0.39379 0.14237 0.32234 0.0
H1574 H 0.49356 0.07814 0.40055 0.0
H1575 H 0.46177 0.10978 0.37812 0.0
C1576 C 0.65631 0.80598 0.69657 0.0
C1577 C 0.68271 0.79736 0.68779 0.0
C1578 C 0.63937 0.82092 0.67882 0.0
C1579 C 0.64258 0.86599 0.61803 0.0
H1580 H 0.56337 0.85437 0.61749 0.0
C1581 C 0.56754 0.92647 0.54746 0.0
C1582 C 0.54363 0.93656 0.56082 0.0
C1583 C 0.58509 0.90815 0.56106 0.0
C1584 C 0.58546 0.85787 0.61754 0.0
H1585 H 0.71179 0.79707 0.65325 0.0
H1586 H 0.682 0.82293 0.62218 0.0
H1587 H 0.59278 0.82371 0.64435 0.0
H1588 H 0.51965 0.93565 0.59906 0.0
H1589 H 0.55028 0.90384 0.62267 0.0
H1590 H 0.63511 0.90034 0.59136 0.0
C1591 C 0.67462 0.81845 0.64293 0.0
C1592 C 0.60226 0.84038 0.6329 0.0
C1593 C 0.69161 0.80354 0.66071 0.0
C1594 C 0.53782 0.92823 0.58812 0.0
C1595 C 0.55525 0.90985 0.6016 0.0
C1596 C 0.62575 0.88343 0.60255 0.0
C1597 C 0.64844 0.82749 0.6519 0.0
C1598 C 0.63093 0.84456 0.6337 0.0
C1599 C 0.5789 0.8995 0.58815 0.0
C1600 C 0.59701 0.8798 0.6026 0.0
H1601 H 0.64886 0.80163 0.71732 0.0
H1602 H 0.61945 0.82796 0.68645 0.0
H1603 H 0.66459 0.8699 0.61851 0.0
H1604 H 0.57258 0.93244 0.52639 0.0
H1605 H 0.60318 0.90035 0.55024 0.0
C1606 C 0.68582 0.22202 0.35707 0.0
C1607 C 0.71454 0.21971 0.35322 0.0
C1608 C 0.67253 0.20687 0.37774 0.0
C1609 C 0.67723 0.14083 0.40748 0.0
H1610 H 0.62 0.16533 0.45853 0.0
C1611 C 0.60482 0.06236 0.45653 0.0
C1612 C 0.57686 0.06995 0.45752 0.0
C1613 C 0.62511 0.08215 0.4522 0.0
C1614 C 0.6358 0.15811 0.44426 0.0
H1615 H 0.75208 0.20082 0.36878 0.0
H1616 H 0.72856 0.17362 0.40432 0.0
H1617 H 0.6492 0.19905 0.43501 0.0
H1618 H 0.54795 0.10394 0.45589 0.0
H1619 H 0.58299 0.13831 0.44643 0.0
H1620 H 0.66272 0.1003 0.41435 0.0
C1621 C 0.71653 0.18747 0.39158 0.0
C1622 C 0.65262 0.17743 0.43106 0.0
C1623 C 0.7299 0.20299 0.37125 0.0
C1624 C 0.56947 0.09768 0.45518 0.0
C1625 C 0.58967 0.11739 0.45005 0.0
C1626 C 0.66008 0.12159 0.42012 0.0
C1627 C 0.68771 0.18887 0.39455 0.0
C1628 C 0.67303 0.16889 0.41214 0.0
C1629 C 0.61773 0.1098 0.44786 0.0
C1630 C 0.63864 0.12999 0.43813 0.0
H1631 H 0.67353 0.23493 0.34361 0.0
H1632 H 0.65021 0.20801 0.37953 0.0
H1633 H 0.69265 0.13383 0.39264 0.0
H1634 H 0.61096 0.04108 0.45887 0.0
H1635 H 0.64652 0.0756 0.45151 0.0
C1636 C 0.83385 0.68284 0.34437 0.0
C1637 C 0.80976 0.67603 0.32997 0.0
C1638 C 0.84586 0.66427 0.36264 0.0
C1639 C 0.85547 0.59195 0.37521 0.0
H1640 H 0.88545 0.61766 0.44459 0.0
C1641 C 0.93281 0.55541 0.4699 0.0
C1642 C 0.9552 0.54596 0.45369 0.0
C1643 C 0.90948 0.56685 0.45737 0.0
C1644 C 0.87683 0.60989 0.42557 0.0
H1645 H 0.77919 0.64438 0.32368 0.0
H1646 H 0.80085 0.6113 0.35546 0.0
H1647 H 0.85384 0.64688 0.41871 0.0
H1648 H 0.96989 0.53958 0.41162 0.0
H1649 H 0.92942 0.55972 0.38985 0.0
H1650 H 0.87939 0.55536 0.38156 0.0
C1651 C 0.81012 0.63129 0.35259 0.0
C1652 C 0.85888 0.62673 0.41066 0.0
C1653 C 0.79774 0.65019 0.33451 0.0
C1654 C 0.95316 0.54697 0.42471 0.0
C1655 C 0.9298 0.55823 0.41221 0.0
C1656 C 0.87361 0.57513 0.39006 0.0
C1657 C 0.83431 0.63824 0.36682 0.0
C1658 C 0.84876 0.61831 0.38491 0.0
C1659 C 0.90795 0.56884 0.42838 0.0
C1660 C 0.88515 0.5843 0.41498 0.0
H1661 H 0.84356 0.70263 0.34152 0.0
H1662 H 0.86471 0.67006 0.37298 0.0
H1663 H 0.84803 0.585 0.35537 0.0
H1664 H 0.93361 0.55474 0.4923 0.0
H1665 H 0.89287 0.57463 0.47037 0.0
C1666 C 0.28964 0.85396 0.30955 0.0
C1667 C 0.29293 0.82532 0.30812 0.0
C1668 C 0.30798 0.86981 0.32461 0.0
C1669 C 0.37879 0.86941 0.35017 0.0
H1670 H 0.3532 0.93141 0.39378 0.0
C1671 C 0.45402 0.9495 0.39235 0.0
C1672 C 0.45027 0.95667 0.42029 0.0
C1673 C 0.43384 0.93462 0.37857 0.0
C1674 C 0.36064 0.9141 0.38178 0.0
H1675 H 0.3177 0.79079 0.32202 0.0
H1676 H 0.3498 0.81863 0.34858 0.0
H1677 H 0.31964 0.90147 0.37196 0.0
H1678 H 0.42174 0.95492 0.45527 0.0
H1679 H 0.38672 0.9289 0.43125 0.0
H1680 H 0.41977 0.88179 0.36032 0.0
C1681 C 0.3331 0.82873 0.33771 0.0
C1682 C 0.34145 0.89708 0.36915 0.0
C1683 C 0.31465 0.8128 0.32266 0.0
C1684 C 0.42537 0.9497 0.43377 0.0
C1685 C 0.40521 0.93486 0.41997 0.0
C1686 C 0.39798 0.88645 0.36277 0.0
C1687 C 0.33007 0.85742 0.33859 0.0
C1688 C 0.35035 0.87463 0.35314 0.0
C1689 C 0.40948 0.9267 0.39243 0.0
C1690 C 0.38909 0.90902 0.37862 0.0
H1691 H 0.27311 0.86431 0.29866 0.0
H1692 H 0.3053 0.89188 0.32463 0.0
H1693 H 0.38624 0.85244 0.3377 0.0
H1694 H 0.47291 0.95465 0.38132 0.0
H1695 H 0.43744 0.92899 0.35716 0.0
C1696 C 0.17931 0.2783 0.33548 0.0
C1697 C 0.20257 0.28875 0.32155 0.0
C1698 C 0.16726 0.29264 0.35739 0.0
C1699 C 0.17644 0.35177 0.40513 0.0
H1700 H 0.09629 0.35245 0.40358 0.0
C1701 C 0.10714 0.43745 0.45019 0.0
C1702 C 0.08189 0.43017 0.46279 0.0
C1703 C 0.12441 0.41744 0.43869 0.0
C1704 C 0.11864 0.35208 0.40468 0.0
H1705 H 0.23224 0.3218 0.32018 0.0
H1706 H 0.21036 0.34779 0.35784 0.0
H1707 H 0.12181 0.32313 0.37188 0.0
H1708 H 0.05574 0.39605 0.47468 0.0
H1709 H 0.08588 0.36099 0.45414 0.0
H1710 H 0.17287 0.38207 0.4371 0.0
C1711 C 0.2018 0.32811 0.35228 0.0
C1712 C 0.13336 0.33522 0.3865 0.0
C1713 C 0.21426 0.31337 0.33061 0.0
C1714 C 0.07499 0.4023 0.465 0.0
C1715 C 0.09217 0.38227 0.45319 0.0
C1716 C 0.16163 0.36893 0.42317 0.0
C1717 C 0.17777 0.31815 0.36552 0.0
C1718 C 0.16245 0.335 0.38627 0.0
C1719 C 0.1167 0.38976 0.43933 0.0
C1720 C 0.13259 0.36942 0.42288 0.0
H1721 H 0.17023 0.25903 0.32927 0.0
H1722 H 0.14934 0.28389 0.36761 0.0
H1723 H 0.19879 0.35184 0.4058 0.0
H1724 H 0.11323 0.45874 0.44848 0.0
H1725 H 0.14308 0.42383 0.42798 0.0
C1726 C 0.38116 0.22876 0.69565 0.0
C1727 C 0.35614 0.23921 0.68539 0.0
C1728 C 0.40004 0.21583 0.67786 0.0
C1729 C 0.41484 0.19832 0.60388 0.0
H1730 H 0.42943 0.12619 0.63464 0.0
C1731 C 0.42994 0.07963 0.56719 0.0
C1732 C 0.45264 0.08081 0.54887 0.0
C1733 C 0.42176 0.10274 0.58208 0.0
C1734 C 0.42558 0.14628 0.62578 0.0
H1735 H 0.33284 0.24719 0.648 0.0
H1736 H 0.36534 0.22425 0.61726 0.0
H1737 H 0.41207 0.16237 0.66459 0.0
H1738 H 0.48325 0.1079 0.53036 0.0
H1739 H 0.46858 0.14843 0.5564 0.0
H1740 H 0.42723 0.1814 0.56467 0.0
C1741 C 0.37054 0.22602 0.63893 0.0
C1742 C 0.41605 0.16718 0.64302 0.0
C1743 C 0.35172 0.23896 0.65667 0.0
C1744 C 0.46574 0.1062 0.54438 0.0
C1745 C 0.45741 0.12943 0.55928 0.0
C1746 C 0.42453 0.17732 0.58657 0.0
C1747 C 0.39421 0.21312 0.64954 0.0
C1748 C 0.40975 0.1932 0.63215 0.0
C1749 C 0.43597 0.12759 0.57894 0.0
C1750 C 0.42904 0.15089 0.59728 0.0
H1751 H 0.38538 0.22896 0.71763 0.0
H1752 H 0.41842 0.20653 0.68653 0.0
H1753 H 0.41036 0.21825 0.59497 0.0
H1754 H 0.4191 0.06059 0.57093 0.0
H1755 H 0.40468 0.101 0.59664 0.0
C1756 C 0.78747 0.34564 0.65991 0.0
C1757 C 0.77876 0.3185 0.65607 0.0
C1758 C 0.80564 0.35785 0.64096 0.0
C1759 C 0.84092 0.38215 0.59528 0.0
H1760 H 0.90359 0.33425 0.57995 0.0
C1761 C 0.95243 0.40472 0.54481 0.0
C1762 C 0.96288 0.42085 0.56639 0.0
C1763 C 0.92879 0.38866 0.54926 0.0
C1764 C 0.88597 0.34764 0.58347 0.0
H1765 H 0.77997 0.28397 0.62775 0.0
H1766 H 0.81141 0.30544 0.59464 0.0
H1767 H 0.86069 0.31491 0.59857 0.0
H1768 H 0.95868 0.4307 0.61 0.0
H1769 H 0.91781 0.40271 0.61761 0.0
H1770 H 0.86712 0.41507 0.58211 0.0
C1771 C 0.80472 0.31701 0.61263 0.0
C1772 C 0.86139 0.33667 0.59407 0.0
C1773 C 0.78657 0.3048 0.63157 0.0
C1774 C 0.9509 0.41874 0.59291 0.0
C1775 C 0.92751 0.40283 0.59729 0.0
C1776 C 0.8655 0.39306 0.58484 0.0
C1777 C 0.81538 0.34322 0.61772 0.0
C1778 C 0.83895 0.35397 0.60109 0.0
C1779 C 0.91569 0.38857 0.57531 0.0
C1780 C 0.88843 0.37601 0.57975 0.0
H1781 H 0.78186 0.35682 0.67849 0.0
H1782 H 0.81354 0.37803 0.64564 0.0
H1783 H 0.82392 0.39594 0.60004 0.0
H1784 H 0.96124 0.40603 0.52417 0.0
H1785 H 0.91991 0.37763 0.5321 0.0
C1786 C 0.21951 0.67878 0.69167 0.0
C1787 C 0.20636 0.70343 0.6994 0.0
C1788 C 0.20604 0.65996 0.67481 0.0
C1789 C 0.14945 0.65355 0.62505 0.0
H1790 H 0.1459 0.57796 0.65006 0.0
C1791 C 0.07313 0.55696 0.61101 0.0
C1792 C 0.07037 0.55647 0.58209 0.0
C1793 C 0.09355 0.57283 0.62321 0.0
C1794 C 0.14684 0.59898 0.64279 0.0
H1795 H 0.16907 0.72796 0.69491 0.0
H1796 H 0.14571 0.69516 0.66546 0.0
H1797 H 0.17448 0.61072 0.67494 0.0
H1798 H 0.0875 0.57153 0.54323 0.0
H1799 H 0.12305 0.59943 0.56468 0.0
H1800 H 0.12115 0.64207 0.59344 0.0
C1801 C 0.16643 0.69045 0.67238 0.0
C1802 C 0.16334 0.61764 0.65685 0.0
C1803 C 0.17975 0.70913 0.68942 0.0
C1804 C 0.089 0.57154 0.56559 0.0
C1805 C 0.10929 0.58759 0.57783 0.0
C1806 C 0.13313 0.63486 0.61086 0.0
C1807 C 0.17934 0.66559 0.66512 0.0
C1808 C 0.16432 0.64522 0.64845 0.0
C1809 C 0.11152 0.58865 0.60676 0.0
C1810 C 0.13124 0.60754 0.61994 0.0
H1811 H 0.24001 0.67379 0.69902 0.0
H1812 H 0.21648 0.64098 0.66937 0.0
H1813 H 0.15006 0.67466 0.61801 0.0
H1814 H 0.05924 0.54541 0.62427 0.0
H1815 H 0.09464 0.57347 0.64558 0.0
loop_
_geom_bond_atom_site_label_1
_geom_bond_atom_site_label_2
_geom_bond_distance
_geom_bond_site_symmetry_2
_ccdc_geom_bond_type
O0 Zn1 1.953 . S
O0 C16 1.225 . S
Zn1 O0 1.953 . S
Zn1 O2 1.949 . S
Zn1 O8 1.919 . S
Zn1 O13 1.924 . S
O2 Zn1 1.949 . S
O2 Zn3 1.923 . S
O2 Zn4 1.950 . S
O2 Zn5 1.945 . S
Zn3 O2 1.923 . S
Zn3 O6 1.933 . S
Zn3 O9 1.941 . S
Zn3 O10 1.965 . S
Zn4 O2 1.950 . S
Zn4 O11 1.938 . S
Zn4 O12 1.906 . S
Zn4 O22 1.953 . S
Zn5 O2 1.945 . S
Zn5 O7 1.932 . S
Zn5 O14 1.977 . S
Zn5 O15 1.910 . S
O6 Zn3 1.933 . S
O6 C17 1.226 . S
O7 Zn5 1.932 . S
O7 C17 1.307 . S
O8 Zn1 1.919 . S
O8 C19 1.253 . S
O9 Zn3 1.941 . S
O9 C19 1.283 . S
O10 Zn3 1.965 . S
O10 C18 1.303 . S
O11 Zn4 1.938 . S
O11 C18 1.247 . S
O12 Zn4 1.906 . S
O12 C20 1.304 . S
O13 Zn1 1.924 . S
O13 C21 1.311 . S
O14 Zn5 1.977 . S
O14 C20 1.272 . S
O15 Zn5 1.910 . S
O15 C21 1.231 . S
C16 O0 1.225 . S
C16 O22 1.298 . S
C17 O6 1.226 . S
C17 O7 1.307 . S
C18 O10 1.303 . S
C18 O11 1.247 . S
C19 O8 1.253 . S
C19 O9 1.283 . S
C20 O12 1.304 . S
C20 O14 1.272 . S
C21 O13 1.311 . S
C21 O15 1.231 . S
O22 Zn4 1.953 . S
O22 C16 1.298 . S
O23 Zn24 1.953 . S
O23 C39 1.225 . S
Zn24 O23 1.953 . S
Zn24 O25 1.949 . S
Zn24 O31 1.919 . S
Zn24 O36 1.924 . S
O25 Zn24 1.949 . S
O25 Zn26 1.923 . S
O25 Zn27 1.950 . S
O25 Zn28 1.945 . S
Zn26 O25 1.923 . S
Zn26 O29 1.933 . S
Zn26 O32 1.941 . S
Zn26 O33 1.965 . S
Zn27 O25 1.950 . S
Zn27 O34 1.938 . S
Zn27 O35 1.906 . S
Zn27 O45 1.953 . S
Zn28 O25 1.945 . S
Zn28 O30 1.932 . S
Zn28 O37 1.977 . S
Zn28 O38 1.910 . S
O29 Zn26 1.933 . S
O29 C40 1.226 . S
O30 Zn28 1.932 . S
O30 C40 1.307 . S
O31 Zn24 1.919 . S
O31 C42 1.253 . S
O32 Zn26 1.941 . S
O32 C42 1.283 . S
O33 Zn26 1.965 . S
O33 C41 1.303 . S
O34 Zn27 1.938 . S
O34 C41 1.247 . S
O35 Zn27 1.906 . S
O35 C43 1.304 . S
O36 Zn24 1.924 . S
O36 C44 1.311 . S
O37 Zn28 1.977 . S
O37 C43 1.272 . S
O38 Zn28 1.910 . S
O38 C44 1.231 . S
C39 O23 1.225 . S
C39 O45 1.298 . S
C40 O29 1.226 . S
C40 O30 1.307 . S
C41 O33 1.303 . S
C41 O34 1.247 . S
C42 O31 1.253 . S
C42 O32 1.283 . S
C43 O35 1.304 . S
C43 O37 1.272 . S
C44 O36 1.311 . S
C44 O38 1.231 . S
O45 Zn27 1.953 . S
O45 C39 1.298 . S
O46 Zn47 1.953 . S
O46 C62 1.225 . S
Zn47 O46 1.953 . S
Zn47 O48 1.949 . S
Zn47 O54 1.919 . S
Zn47 O59 1.924 . S
O48 Zn47 1.949 . S
O48 Zn49 1.923 . S
O48 Zn50 1.950 . S
O48 Zn51 1.945 . S
Zn49 O48 1.923 . S
Zn49 O52 1.933 . S
Zn49 O55 1.941 . S
Zn49 O56 1.965 . S
Zn50 O48 1.950 . S
Zn50 O57 1.938 . S
Zn50 O58 1.906 . S
Zn50 O68 1.953 . S
Zn51 O48 1.945 . S
Zn51 O53 1.932 . S
Zn51 O60 1.977 . S
Zn51 O61 1.910 . S
O52 Zn49 1.933 . S
O52 C63 1.226 . S
O53 Zn51 1.932 . S
O53 C63 1.307 . S
O54 Zn47 1.919 . S
O54 C65 1.253 . S
O55 Zn49 1.941 . S
O55 C65 1.283 . S
O56 Zn49 1.965 . S
O56 C64 1.303 . S
O57 Zn50 1.938 . S
O57 C64 1.247 . S
O58 Zn50 1.906 . S
O58 C66 1.304 . S
O59 Zn47 1.924 . S
O59 C67 1.311 . S
O60 Zn51 1.977 . S
O60 C66 1.272 . S
O61 Zn51 1.910 . S
O61 C67 1.231 . S
C62 O46 1.225 . S
C62 O68 1.298 . S
C63 O52 1.226 . S
C63 O53 1.307 . S
C64 O56 1.303 . S
C64 O57 1.247 . S
C65 O54 1.253 . S
C65 O55 1.283 . S
C66 O58 1.304 . S
C66 O60 1.272 . S
C67 O59 1.311 . S
C67 O61 1.231 . S
O68 Zn50 1.953 . S
O68 C62 1.298 . S
O69 Zn70 1.953 . S
O69 C85 1.225 . S
Zn70 O69 1.953 . S
Zn70 O71 1.949 . S
Zn70 O77 1.919 . S
Zn70 O82 1.924 . S
O71 Zn70 1.949 . S
O71 Zn72 1.923 . S
O71 Zn73 1.950 . S
O71 Zn74 1.945 . S
Zn72 O71 1.923 . S
Zn72 O75 1.933 . S
Zn72 O78 1.941 . S
Zn72 O79 1.965 . S
Zn73 O71 1.950 . S
Zn73 O80 1.938 . S
Zn73 O81 1.906 . S
Zn73 O91 1.953 . S
Zn74 O71 1.945 . S
Zn74 O76 1.932 . S
Zn74 O83 1.977 . S
Zn74 O84 1.910 . S
O75 Zn72 1.933 . S
O75 C86 1.226 . S
O76 Zn74 1.932 . S
O76 C86 1.307 . S
O77 Zn70 1.919 . S
O77 C88 1.253 . S
O78 Zn72 1.941 . S
O78 C88 1.283 . S
O79 Zn72 1.965 . S
O79 C87 1.303 . S
O80 Zn73 1.938 . S
O80 C87 1.247 . S
O81 Zn73 1.906 . S
O81 C89 1.304 . S
O82 Zn70 1.924 . S
O82 C90 1.311 . S
O83 Zn74 1.977 . S
O83 C89 1.272 . S
O84 Zn74 1.910 . S
O84 C90 1.231 . S
C85 O69 1.225 . S
C85 O91 1.298 . S
C86 O75 1.226 . S
C86 O76 1.307 . S
C87 O79 1.303 . S
C87 O80 1.247 . S
C88 O77 1.253 . S
C88 O78 1.283 . S
C89 O81 1.304 . S
C89 O83 1.272 . S
C90 O82 1.311 . S
C90 O84 1.231 . S
O91 Zn73 1.953 . S
O91 C85 1.298 . S
O92 Zn93 1.953 . S
O92 C108 1.225 . S
Zn93 O92 1.953 . S
Zn93 O94 1.949 . S
Zn93 O100 1.919 . S
Zn93 O105 1.924 . S
O94 Zn93 1.949 . S
O94 Zn95 1.923 . S
O94 Zn96 1.950 . S
O94 Zn97 1.945 . S
Zn95 O94 1.923 . S
Zn95 O98 1.933 . S
Zn95 O101 1.941 . S
Zn95 O102 1.965 . S
Zn96 O94 1.950 . S
Zn96 O103 1.938 . S
Zn96 O104 1.906 . S
Zn96 O114 1.953 . S
Zn97 O94 1.945 . S
Zn97 O99 1.932 . S
Zn97 O106 1.977 . S
Zn97 O107 1.910 . S
O98 Zn95 1.933 . S
O98 C109 1.226 . S
O99 Zn97 1.932 . S
O99 C109 1.307 . S
O100 Zn93 1.919 . S
O100 C111 1.253 . S
O101 Zn95 1.941 . S
O101 C111 1.283 . S
O102 Zn95 1.965 . S
O102 C110 1.303 . S
O103 Zn96 1.938 . S
O103 C110 1.247 . S
O104 Zn96 1.906 . S
O104 C112 1.304 . S
O105 Zn93 1.924 . S
O105 C113 1.311 . S
O106 Zn97 1.977 . S
O106 C112 1.272 . S
O107 Zn97 1.910 . S
O107 C113 1.231 . S
C108 O92 1.225 . S
C108 O114 1.298 . S
C109 O98 1.226 . S
C109 O99 1.307 . S
C110 O102 1.303 . S
C110 O103 1.247 . S
C111 O100 1.253 . S
C111 O101 1.283 . S
C112 O104 1.304 . S
C112 O106 1.272 . S
C113 O105 1.311 . S
C113 O107 1.231 . S
O114 Zn96 1.953 . S
O114 C108 1.298 . S
O115 Zn116 1.953 . S
O115 C131 1.225 . S
Zn116 O115 1.953 . S
Zn116 O117 1.949 . S
Zn116 O123 1.919 . S
Zn116 O128 1.924 . S
O117 Zn116 1.949 . S
O117 Zn118 1.923 . S
O117 Zn119 1.950 . S
O117 Zn120 1.945 . S
Zn118 O117 1.923 . S
Zn118 O121 1.933 . S
Zn118 O124 1.941 . S
Zn118 O125 1.965 . S
Zn119 O117 1.950 . S
Zn119 O126 1.938 . S
Zn119 O127 1.906 . S
Zn119 O137 1.953 . S
Zn120 O117 1.945 . S
Zn120 O122 1.932 . S
Zn120 O129 1.977 . S
Zn120 O130 1.910 . S
O121 Zn118 1.933 . S
O121 C132 1.226 . S
O122 Zn120 1.932 . S
O122 C132 1.307 . S
O123 Zn116 1.919 . S
O123 C134 1.253 . S
O124 Zn118 1.941 . S
O124 C134 1.283 . S
O125 Zn118 1.965 . S
O125 C133 1.303 . S
O126 Zn119 1.938 . S
O126 C133 1.247 . S
O127 Zn119 1.906 . S
O127 C135 1.304 . S
O128 Zn116 1.924 . S
O128 C136 1.311 . S
O129 Zn120 1.977 . S
O129 C135 1.272 . S
O130 Zn120 1.910 . S
O130 C136 1.231 . S
C131 O115 1.225 . S
C131 O137 1.298 . S
C132 O121 1.226 . S
C132 O122 1.307 . S
C133 O125 1.303 . S
C133 O126 1.247 . S
C134 O123 1.253 . S
C134 O124 1.283 . S
C135 O127 1.304 . S
C135 O129 1.272 . S
C136 O128 1.311 . S
C136 O130 1.231 . S
O137 Zn119 1.953 . S
O137 C131 1.298 . S
O138 Zn139 1.953 . S
O138 C154 1.225 . S
Zn139 O138 1.953 . S
Zn139 O140 1.949 . S
Zn139 O146 1.919 . S
Zn139 O151 1.924 . S
O140 Zn139 1.949 . S
O140 Zn141 1.923 . S
O140 Zn142 1.950 . S
O140 Zn143 1.945 . S
Zn141 O140 1.923 . S
Zn141 O144 1.933 . S
Zn141 O147 1.941 . S
Zn141 O148 1.965 . S
Zn142 O140 1.950 . S
Zn142 O149 1.938 . S
Zn142 O150 1.906 . S
Zn142 O160 1.953 . S
Zn143 O140 1.945 . S
Zn143 O145 1.932 . S
Zn143 O152 1.977 . S
Zn143 O153 1.910 . S
O144 Zn141 1.933 . S
O144 C155 1.226 . S
O145 Zn143 1.932 . S
O145 C155 1.307 . S
O146 Zn139 1.919 . S
O146 C157 1.253 . S
O147 Zn141 1.941 . S
O147 C157 1.283 . S
O148 Zn141 1.965 . S
O148 C156 1.303 . S
O149 Zn142 1.938 . S
O149 C156 1.247 . S
O150 Zn142 1.906 . S
O150 C158 1.304 . S
O151 Zn139 1.924 . S
O151 C159 1.311 . S
O152 Zn143 1.977 . S
O152 C158 1.272 . S
O153 Zn143 1.910 . S
O153 C159 1.231 . S
C154 O138 1.225 . S
C154 O160 1.298 . S
C155 O144 1.226 . S
C155 O145 1.307 . S
C156 O148 1.303 . S
C156 O149 1.247 . S
C157 O146 1.253 . S
C157 O147 1.283 . S
C158 O150 1.304 . S
C158 O152 1.272 . S
C159 O151 1.311 . S
C159 O153 1.231 . S
O160 Zn142 1.953 . S
O160 C154 1.298 . S
O161 Zn162 1.953 . S
O161 C177 1.225 . S
Zn162 O161 1.953 . S
Zn162 O163 1.949 . S
Zn162 O169 1.919 . S
Zn162 O174 1.924 . S
O163 Zn162 1.949 . S
O163 Zn164 1.923 . S
O163 Zn165 1.950 . S
O163 Zn166 1.945 . S
Zn164 O163 1.923 . S
Zn164 O167 1.933 . S
Zn164 O170 1.941 . S
Zn164 O171 1.965 . S
Zn165 O163 1.950 . S
Zn165 O172 1.938 . S
Zn165 O173 1.906 . S
Zn165 O183 1.953 . S
Zn166 O163 1.945 . S
Zn166 O168 1.932 . S
Zn166 O175 1.977 . S
Zn166 O176 1.910 . S
O167 Zn164 1.933 . S
O167 C178 1.226 . S
O168 Zn166 1.932 . S
O168 C178 1.307 . S
O169 Zn162 1.919 . S
O169 C180 1.253 . S
O170 Zn164 1.941 . S
O170 C180 1.283 . S
O171 Zn164 1.965 . S
O171 C179 1.303 . S
O172 Zn165 1.938 . S
O172 C179 1.247 . S
O173 Zn165 1.906 . S
O173 C181 1.304 . S
O174 Zn162 1.924 . S
O174 C182 1.311 . S
O175 Zn166 1.977 . S
O175 C181 1.272 . S
O176 Zn166 1.910 . S
O176 C182 1.231 . S
C177 O161 1.225 . S
C177 O183 1.298 . S
C178 O167 1.226 . S
C178 O168 1.307 . S
C179 O171 1.303 . S
C179 O172 1.247 . S
C180 O169 1.253 . S
C180 O170 1.283 . S
C181 O173 1.304 . S
C181 O175 1.272 . S
C182 O174 1.311 . S
C182 O176 1.231 . S
O183 Zn165 1.953 . S
O183 C177 1.298 . S
Fe184 O185 1.886 1_455 S
Fe184 O188 1.715 . S
Fe184 O193 2.077 1_455 S
Fe184 O198 1.935 . S
Fe184 O204 2.077 1_455 S
Fe184 O213 1.935 . S
O185 Fe184 1.886 1_655 S
O185 Fe187 1.715 . S
Fe186 O188 1.886 . S
Fe186 O189 1.715 1_545 S
Fe186 O196 1.935 1_545 S
Fe186 O197 2.077 . S
Fe186 O203 1.935 1_545 S
Fe186 O212 2.077 . S
Fe187 O185 1.715 . S
Fe187 O190 1.886 1_545 S
Fe187 O194 1.935 . S
Fe187 O199 2.077 1_545 S
Fe187 O205 1.935 . S
Fe187 O209 2.077 1_545 S
O188 Fe184 1.715 . S
O188 Fe186 1.886 . S
O189 Fe186 1.715 1_565 S
O189 Fe191 1.886 . S
O190 Fe187 1.886 1_565 S
O190 Fe191 1.715 1_655 S
Fe191 O189 1.886 . S
Fe191 O190 1.715 1_455 S
Fe191 O195 2.077 . S
Fe191 O200 1.935 1_455 S
Fe191 O202 2.077 . S
Fe191 O210 1.935 1_455 S
C192 O204 1.381 . S
C192 O205 1.421 . S
O193 Fe184 2.077 1_655 S
O193 C206 1.381 . S
O194 Fe187 1.935 . S
O194 C206 1.421 . S
O195 Fe191 2.077 . S
O195 C211 1.381 . S
O196 Fe186 1.935 1_565 S
O196 C211 1.421 . S
O197 Fe186 2.077 . S
O197 C201 1.381 . S
O198 Fe184 1.935 . S
O198 C201 1.421 . S
O199 Fe187 2.077 1_565 S
O199 C207 1.381 . S
O200 Fe191 1.935 1_655 S
O200 C207 1.421 . S
C201 O197 1.381 . S
C201 O198 1.421 . S
O202 Fe191 2.077 . S
O202 C214 1.381 . S
O203 Fe186 1.935 1_565 S
O203 C214 1.421 . S
O204 Fe184 2.077 1_655 S
O204 C192 1.381 . S
O205 Fe187 1.935 . S
O205 C192 1.421 . S
C206 O193 1.381 . S
C206 O194 1.421 . S
C207 O199 1.381 . S
C207 O200 1.421 . S
C208 O209 1.381 . S
C208 O210 1.421 . S
O209 Fe187 2.077 1_565 S
O209 C208 1.381 . S
O210 Fe191 1.935 1_655 S
O210 C208 1.421 . S
C211 O195 1.381 . S
C211 O196 1.421 . S
O212 Fe186 2.077 . S
O212 C215 1.381 . S
O213 Fe184 1.935 . S
O213 C215 1.421 . S
C214 O202 1.381 . S
C214 O203 1.421 . S
C215 O212 1.381 . S
C215 O213 1.421 . S
Fe216 O217 1.886 . S
Fe216 O220 1.715 . S
Fe216 O225 2.077 1_554 S
Fe216 O230 1.935 1_554 S
Fe216 O236 2.077 . S
Fe216 O245 1.935 . S
O217 Fe216 1.886 . S
O217 Fe219 1.715 1_565 S
Fe218 O220 1.886 1_545 S
Fe218 O221 1.715 . S
Fe218 O228 1.935 1_554 S
Fe218 O229 2.077 1_544 S
Fe218 O235 1.935 . S
Fe218 O244 2.077 1_545 S
Fe219 O217 1.715 1_545 S
Fe219 O222 1.886 . S
Fe219 O226 1.935 1_544 S
Fe219 O231 2.077 1_554 S
Fe219 O237 1.935 1_545 S
Fe219 O241 2.077 . S
O220 Fe216 1.715 . S
O220 Fe218 1.886 1_565 S
O221 Fe218 1.715 . S
O221 Fe223 1.886 . S
O222 Fe219 1.886 . S
O222 Fe223 1.715 . S
Fe223 O221 1.886 . S
Fe223 O222 1.715 . S
Fe223 O227 2.077 1_554 S
Fe223 O232 1.935 1_554 S
Fe223 O234 2.077 . S
Fe223 O242 1.935 . S
C224 O236 1.381 . S
C224 O237 1.421 . S
O225 Fe216 2.077 1_556 S
O225 C238 1.381 . S
O226 Fe219 1.935 1_566 S
O226 C238 1.421 . S
O227 Fe223 2.077 1_556 S
O227 C243 1.381 . S
O228 Fe218 1.935 1_556 S
O228 C243 1.421 . S
O229 Fe218 2.077 1_566 S
O229 C233 1.381 . S
O230 Fe216 1.935 1_556 S
O230 C233 1.421 . S
O231 Fe219 2.077 1_556 S
O231 C239 1.381 . S
O232 Fe223 1.935 1_556 S
O232 C239 1.421 . S
C233 O229 1.381 . S
C233 O230 1.421 . S
O234 Fe223 2.077 . S
O234 C246 1.381 . S
O235 Fe218 1.935 . S
O235 C246 1.421 . S
O236 Fe216 2.077 . S
O236 C224 1.381 . S
O237 Fe219 1.935 1_565 S
O237 C224 1.421 . S
C238 O225 1.381 . S
C238 O226 1.421 . S
C239 O231 1.381 . S
C239 O232 1.421 . S
C240 O241 1.381 . S
C240 O242 1.421 . S
O241 Fe219 2.077 . S
O241 C240 1.381 . S
O242 Fe223 1.935 . S
O242 C240 1.421 . S
C243 O227 1.381 . S
C243 O228 1.421 . S
O244 Fe218 2.077 1_565 S
O244 C247 1.381 . S
O245 Fe216 1.935 . S
O245 C247 1.421 . S
C246 O234 1.381 . S
C246 O235 1.421 . S
C247 O244 1.381 . S
C247 O245 1.421 . S
Fe248 O249 1.886 1_455 S
Fe248 O252 1.715 . S
Fe248 O257 2.077 1_454 S
Fe248 O262 1.935 1_554 S
Fe248 O268 2.077 1_455 S
Fe248 O277 1.935 . S
O249 Fe248 1.886 1_655 S
O249 Fe251 1.715 . S
Fe250 O252 1.886 . S
Fe250 O253 1.715 . S
Fe250 O260 1.935 1_554 S
Fe250 O261 2.077 1_554 S
Fe250 O267 1.935 . S
Fe250 O276 2.077 . S
Fe251 O249 1.715 . S
Fe251 O254 1.886 . S
Fe251 O258 1.935 1_554 S
Fe251 O263 2.077 1_554 S
Fe251 O269 1.935 . S
Fe251 O273 2.077 . S
O252 Fe248 1.715 . S
O252 Fe250 1.886 . S
O253 Fe250 1.715 . S
O253 Fe255 1.886 . S
O254 Fe251 1.886 . S
O254 Fe255 1.715 1_655 S
Fe255 O253 1.886 . S
Fe255 O254 1.715 1_455 S
Fe255 O259 2.077 1_554 S
Fe255 O264 1.935 1_454 S
Fe255 O266 2.077 . S
Fe255 O274 1.935 1_455 S
C256 O268 1.381 . S
C256 O269 1.421 . S
O257 Fe248 2.077 1_656 S
O257 C270 1.381 . S
O258 Fe251 1.935 1_556 S
O258 C270 1.421 . S
O259 Fe255 2.077 1_556 S
O259 C275 1.381 . S
O260 Fe250 1.935 1_556 S
O260 C275 1.421 . S
O261 Fe250 2.077 1_556 S
O261 C265 1.381 . S
O262 Fe248 1.935 1_556 S
O262 C265 1.421 . S
O263 Fe251 2.077 1_556 S
O263 C271 1.381 . S
O264 Fe255 1.935 1_656 S
O264 C271 1.421 . S
C265 O261 1.381 . S
C265 O262 1.421 . S
O266 Fe255 2.077 . S
O266 C278 1.381 . S
O267 Fe250 1.935 . S
O267 C278 1.421 . S
O268 Fe248 2.077 1_655 S
O268 C256 1.381 . S
O269 Fe251 1.935 . S
O269 C256 1.421 . S
C270 O257 1.381 . S
C270 O258 1.421 . S
C271 O263 1.381 . S
C271 O264 1.421 . S
C272 O273 1.381 . S
C272 O274 1.421 . S
O273 Fe251 2.077 . S
O273 C272 1.381 . S
O274 Fe255 1.935 1_655 S
O274 C272 1.421 . S
C275 O259 1.381 . S
C275 O260 1.421 . S
O276 Fe250 2.077 . S
O276 C279 1.381 . S
O277 Fe248 1.935 . S
O277 C279 1.421 . S
C278 O266 1.381 . S
C278 O267 1.421 . S
C279 O276 1.381 . S
C279 O277 1.421 . S
Fe280 O281 1.886 . S
Fe280 O284 1.715 . S
Fe280 O289 2.077 . S
Fe280 O294 1.935 . S
Fe280 O300 2.077 . S
Fe280 O309 1.935 . S
O281 Fe280 1.886 . S
O281 Fe283 1.715 1_556 S
Fe282 O284 1.886 1_554 S
Fe282 O285 1.715 . S
Fe282 O292 1.935 . S
Fe282 O293 2.077 1_554 S
Fe282 O299 1.935 . S
Fe282 O308 2.077 1_554 S
Fe283 O281 1.715 1_554 S
Fe283 O286 1.886 . S
Fe283 O290 1.935 1_554 S
Fe283 O295 2.077 . S
Fe283 O301 1.935 1_554 S
Fe283 O305 2.077 . S
O284 Fe280 1.715 . S
O284 Fe282 1.886 1_556 S
O285 Fe282 1.715 . S
O285 Fe287 1.886 . S
O286 Fe283 1.886 . S
O286 Fe287 1.715 . S
Fe287 O285 1.886 . S
Fe287 O286 1.715 . S
Fe287 O291 2.077 . S
Fe287 O296 1.935 . S
Fe287 O298 2.077 . S
Fe287 O306 1.935 . S
C288 O300 1.381 . S
C288 O301 1.421 . S
O289 Fe280 2.077 . S
O289 C302 1.381 . S
O290 Fe283 1.935 1_556 S
O290 C302 1.421 . S
O291 Fe287 2.077 . S
O291 C307 1.381 . S
O292 Fe282 1.935 . S
O292 C307 1.421 . S
O293 Fe282 2.077 1_556 S
O293 C297 1.381 . S
O294 Fe280 1.935 . S
O294 C297 1.421 . S
O295 Fe283 2.077 . S
O295 C303 1.381 . S
O296 Fe287 1.935 . S
O296 C303 1.421 . S
C297 O293 1.381 . S
C297 O294 1.421 . S
O298 Fe287 2.077 . S
O298 C310 1.381 . S
O299 Fe282 1.935 . S
O299 C310 1.421 . S
O300 Fe280 2.077 . S
O300 C288 1.381 . S
O301 Fe283 1.935 1_556 S
O301 C288 1.421 . S
C302 O289 1.381 . S
C302 O290 1.421 . S
C303 O295 1.381 . S
C303 O296 1.421 . S
C304 O305 1.381 . S
C304 O306 1.421 . S
O305 Fe283 2.077 . S
O305 C304 1.381 . S
O306 Fe287 1.935 . S
O306 C304 1.421 . S
C307 O291 1.381 . S
C307 O292 1.421 . S
O308 Fe282 2.077 1_556 S
O308 C311 1.381 . S
O309 Fe280 1.935 . S
O309 C311 1.421 . S
C310 O298 1.381 . S
C310 O299 1.421 . S
C311 O308 1.381 . S
C311 O309 1.421 . S
Fe312 O313 1.886 . S
Fe312 O316 1.715 . S
Fe312 O321 2.077 . S
Fe312 O326 1.935 . S
Fe312 O332 2.077 1_455 S
Fe312 O341 1.935 1_455 S
O313 Fe312 1.886 . S
O313 Fe315 1.715 . S
Fe314 O316 1.886 . S
Fe314 O317 1.715 . S
Fe314 O324 1.935 . S
Fe314 O325 2.077 . S
Fe314 O331 1.935 1_455 S
Fe314 O340 2.077 1_455 S
Fe315 O313 1.715 . S
Fe315 O318 1.886 . S
Fe315 O322 1.935 . S
Fe315 O327 2.077 . S
Fe315 O333 1.935 1_455 S
Fe315 O337 2.077 1_455 S
O316 Fe312 1.715 . S
O316 Fe314 1.886 . S
O317 Fe314 1.715 . S
O317 Fe319 1.886 . S
O318 Fe315 1.886 . S
O318 Fe319 1.715 . S
Fe319 O317 1.886 . S
Fe319 O318 1.715 . S
Fe319 O323 2.077 . S
Fe319 O328 1.935 . S
Fe319 O330 2.077 1_455 S
Fe319 O338 1.935 1_455 S
C320 O332 1.381 . S
C320 O333 1.421 . S
O321 Fe312 2.077 . S
O321 C334 1.381 . S
O322 Fe315 1.935 . S
O322 C334 1.421 . S
O323 Fe319 2.077 . S
O323 C339 1.381 . S
O324 Fe314 1.935 . S
O324 C339 1.421 . S
O325 Fe314 2.077 . S
O325 C329 1.381 . S
O326 Fe312 1.935 . S
O326 C329 1.421 . S
O327 Fe315 2.077 . S
O327 C335 1.381 . S
O328 Fe319 1.935 . S
O328 C335 1.421 . S
C329 O325 1.381 . S
C329 O326 1.421 . S
O330 Fe319 2.077 1_655 S
O330 C342 1.381 . S
O331 Fe314 1.935 1_655 S
O331 C342 1.421 . S
O332 Fe312 2.077 1_655 S
O332 C320 1.381 . S
O333 Fe315 1.935 1_655 S
O333 C320 1.421 . S
C334 O321 1.381 . S
C334 O322 1.421 . S
C335 O327 1.381 . S
C335 O328 1.421 . S
C336 O337 1.381 . S
C336 O338 1.421 . S
O337 Fe315 2.077 1_655 S
O337 C336 1.381 . S
O338 Fe319 1.935 1_655 S
O338 C336 1.421 . S
C339 O323 1.381 . S
C339 O324 1.421 . S
O340 Fe314 2.077 1_655 S
O340 C343 1.381 . S
O341 Fe312 1.935 1_655 S
O341 C343 1.421 . S
C342 O330 1.381 . S
C342 O331 1.421 . S
C343 O340 1.381 . S
C343 O341 1.421 . S
Fe344 O345 1.886 . S
Fe344 O348 1.715 . S
Fe344 O353 2.077 . S
Fe344 O358 1.935 . S
Fe344 O364 2.077 . S
Fe344 O373 1.935 . S
O345 Fe344 1.886 . S
O345 Fe347 1.715 1_565 S
Fe346 O348 1.886 1_545 S
Fe346 O349 1.715 . S
Fe346 O356 1.935 . S
Fe346 O357 2.077 1_545 S
Fe346 O363 1.935 . S
Fe346 O372 2.077 1_545 S
Fe347 O345 1.715 1_545 S
Fe347 O350 1.886 . S
Fe347 O354 1.935 1_545 S
Fe347 O359 2.077 . S
Fe347 O365 1.935 1_545 S
Fe347 O369 2.077 . S
O348 Fe344 1.715 . S
O348 Fe346 1.886 1_565 S
O349 Fe346 1.715 . S
O349 Fe351 1.886 . S
O350 Fe347 1.886 . S
O350 Fe351 1.715 . S
Fe351 O349 1.886 . S
Fe351 O350 1.715 . S
Fe351 O355 2.077 . S
Fe351 O360 1.935 . S
Fe351 O362 2.077 . S
Fe351 O370 1.935 . S
C352 O364 1.381 . S
C352 O365 1.421 . S
O353 Fe344 2.077 . S
O353 C366 1.381 . S
O354 Fe347 1.935 1_565 S
O354 C366 1.421 . S
O355 Fe351 2.077 . S
O355 C371 1.381 . S
O356 Fe346 1.935 . S
O356 C371 1.421 . S
O357 Fe346 2.077 1_565 S
O357 C361 1.381 . S
O358 Fe344 1.935 . S
O358 C361 1.421 . S
O359 Fe347 2.077 . S
O359 C367 1.381 . S
O360 Fe351 1.935 . S
O360 C367 1.421 . S
C361 O357 1.381 . S
C361 O358 1.421 . S
O362 Fe351 2.077 . S
O362 C374 1.381 . S
O363 Fe346 1.935 . S
O363 C374 1.421 . S
O364 Fe344 2.077 . S
O364 C352 1.381 . S
O365 Fe347 1.935 1_565 S
O365 C352 1.421 . S
C366 O353 1.381 . S
C366 O354 1.421 . S
C367 O359 1.381 . S
C367 O360 1.421 . S
C368 O369 1.381 . S
C368 O370 1.421 . S
O369 Fe347 2.077 . S
O369 C368 1.381 . S
O370 Fe351 1.935 . S
O370 C368 1.421 . S
C371 O355 1.381 . S
C371 O356 1.421 . S
O372 Fe346 2.077 1_565 S
O372 C375 1.381 . S
O373 Fe344 1.935 . S
O373 C375 1.421 . S
C374 O362 1.381 . S
C374 O363 1.421 . S
C375 O372 1.381 . S
C375 O373 1.421 . S
C376 C377 1.349 . S
C376 C378 1.327 . S
C376 H401 0.950 . S
C377 C376 1.349 . S
C377 C393 1.349 . S
C378 C376 1.327 . S
C378 C397 1.429 . S
C378 H402 0.950 . S
C379 C396 1.574 . S
C379 C398 1.368 . S
C379 H403 0.949 . S
H380 C384 0.949 . S
C381 C382 1.349 . S
C381 C383 1.327 . S
C381 H404 0.950 . S
C382 C381 1.349 . S
C382 C394 1.349 . S
C383 C381 1.327 . S
C383 C399 1.429 . S
C383 H405 0.950 . S
C384 H380 0.949 . S
C384 C392 1.574 . S
C384 C400 1.368 . S
H385 C393 0.950 . S
H386 C391 0.950 . S
H387 C392 0.949 . S
H388 C394 0.950 . S
H389 C395 0.950 . S
H390 C396 0.949 . S
C391 H386 0.950 . S
C391 C393 1.327 . S
C391 C397 1.429 . S
C392 C384 1.574 . S
C392 H387 0.949 . S
C392 C398 1.368 . S
C393 C377 1.349 . S
C393 H385 0.950 . S
C393 C391 1.327 . S
C394 C382 1.349 . S
C394 H388 0.950 . S
C394 C395 1.327 . S
C395 H389 0.950 . S
C395 C394 1.327 . S
C395 C399 1.429 . S
C396 C379 1.574 . S
C396 H390 0.949 . S
C396 C400 1.368 . S
C397 C378 1.429 . S
C397 C391 1.429 . S
C397 C398 1.523 . S
C398 C379 1.368 . S
C398 C392 1.368 . S
C398 C397 1.523 . S
C399 C383 1.429 . S
C399 C395 1.429 . S
C399 C400 1.523 . S
C400 C384 1.368 . S
C400 C396 1.368 . S
C400 C399 1.523 . S
H401 C376 0.950 . S
H402 C378 0.950 . S
H403 C379 0.949 . S
H404 C381 0.950 . S
H405 C383 0.950 . S
C406 C407 1.349 . S
C406 C408 1.327 . S
C406 H431 0.950 . S
C407 C406 1.349 . S
C407 C423 1.349 . S
C408 C406 1.327 . S
C408 C427 1.429 . S
C408 H432 0.950 . S
C409 C426 1.574 . S
C409 C428 1.368 . S
C409 H433 0.949 . S
H410 C414 0.949 . S
C411 C412 1.349 . S
C411 C413 1.327 . S
C411 H434 0.950 . S
C412 C411 1.349 . S
C412 C424 1.349 . S
C413 C411 1.327 . S
C413 C429 1.429 . S
C413 H435 0.950 . S
C414 H410 0.949 . S
C414 C422 1.574 . S
C414 C430 1.368 . S
H415 C423 0.950 . S
H416 C421 0.950 . S
H417 C422 0.949 . S
H418 C424 0.950 . S
H419 C425 0.950 . S
H420 C426 0.949 . S
C421 H416 0.950 . S
C421 C423 1.327 . S
C421 C427 1.429 . S
C422 C414 1.574 . S
C422 H417 0.949 . S
C422 C428 1.368 . S
C423 C407 1.349 . S
C423 H415 0.950 . S
C423 C421 1.327 . S
C424 C412 1.349 . S
C424 H418 0.950 . S
C424 C425 1.327 . S
C425 H419 0.950 . S
C425 C424 1.327 . S
C425 C429 1.429 . S
C426 C409 1.574 . S
C426 H420 0.949 . S
C426 C430 1.368 . S
C427 C408 1.429 . S
C427 C421 1.429 . S
C427 C428 1.523 . S
C428 C409 1.368 . S
C428 C422 1.368 . S
C428 C427 1.523 . S
C429 C413 1.429 . S
C429 C425 1.429 . S
C429 C430 1.523 . S
C430 C414 1.368 . S
C430 C426 1.368 . S
C430 C429 1.523 . S
H431 C406 0.950 . S
H432 C408 0.950 . S
H433 C409 0.949 . S
H434 C411 0.950 . S
H435 C413 0.950 . S
C436 C437 1.349 . S
C436 C438 1.327 . S
C436 H461 0.950 . S
C437 C436 1.349 . S
C437 C453 1.349 . S
C438 C436 1.327 . S
C438 C457 1.429 . S
C438 H462 0.950 . S
C439 C456 1.574 . S
C439 C458 1.368 . S
C439 H463 0.949 . S
H440 C444 0.949 . S
C441 C442 1.349 . S
C441 C443 1.327 . S
C441 H464 0.950 . S
C442 C441 1.349 . S
C442 C454 1.349 . S
C443 C441 1.327 . S
C443 C459 1.429 . S
C443 H465 0.950 . S
C444 H440 0.949 . S
C444 C452 1.574 . S
C444 C460 1.368 . S
H445 C453 0.950 . S
H446 C451 0.950 . S
H447 C452 0.949 . S
H448 C454 0.950 . S
H449 C455 0.950 . S
H450 C456 0.949 . S
C451 H446 0.950 . S
C451 C453 1.327 . S
C451 C457 1.429 . S
C452 C444 1.574 . S
C452 H447 0.949 . S
C452 C458 1.368 . S
C453 C437 1.349 . S
C453 H445 0.950 . S
C453 C451 1.327 . S
C454 C442 1.349 . S
C454 H448 0.950 . S
C454 C455 1.327 . S
C455 H449 0.950 . S
C455 C454 1.327 . S
C455 C459 1.429 . S
C456 C439 1.574 . S
C456 H450 0.949 . S
C456 C460 1.368 . S
C457 C438 1.429 . S
C457 C451 1.429 . S
C457 C458 1.523 . S
C458 C439 1.368 . S
C458 C452 1.368 . S
C458 C457 1.523 . S
C459 C443 1.429 . S
C459 C455 1.429 . S
C459 C460 1.523 . S
C460 C444 1.368 . S
C460 C456 1.368 . S
C460 C459 1.523 . S
H461 C436 0.950 . S
H462 C438 0.950 . S
H463 C439 0.949 . S
H464 C441 0.950 . S
H465 C443 0.950 . S
C466 C467 1.349 . S
C466 C468 1.327 . S
C466 H491 0.950 . S
C467 C466 1.349 . S
C467 C483 1.349 . S
C468 C466 1.327 . S
C468 C487 1.429 . S
C468 H492 0.950 . S
C469 C486 1.574 . S
C469 C488 1.368 . S
C469 H493 0.949 . S
H470 C474 0.949 . S
C471 C472 1.349 . S
C471 C473 1.327 . S
C471 H494 0.950 . S
C472 C471 1.349 . S
C472 C484 1.349 . S
C473 C471 1.327 . S
C473 C489 1.429 . S
C473 H495 0.950 . S
C474 H470 0.949 . S
C474 C482 1.574 . S
C474 C490 1.368 . S
H475 C483 0.950 . S
H476 C481 0.950 . S
H477 C482 0.949 . S
H478 C484 0.950 . S
H479 C485 0.950 . S
H480 C486 0.949 . S
C481 H476 0.950 . S
C481 C483 1.327 . S
C481 C487 1.429 . S
C482 C474 1.574 . S
C482 H477 0.949 . S
C482 C488 1.368 . S
C483 C467 1.349 . S
C483 H475 0.950 . S
C483 C481 1.327 . S
C484 C472 1.349 . S
C484 H478 0.950 . S
C484 C485 1.327 . S
C485 H479 0.950 . S
C485 C484 1.327 . S
C485 C489 1.429 . S
C486 C469 1.574 . S
C486 H480 0.949 . S
C486 C490 1.368 . S
C487 C468 1.429 . S
C487 C481 1.429 . S
C487 C488 1.523 . S
C488 C469 1.368 . S
C488 C482 1.368 . S
C488 C487 1.523 . S
C489 C473 1.429 . S
C489 C485 1.429 . S
C489 C490 1.523 . S
C490 C474 1.368 . S
C490 C486 1.368 . S
C490 C489 1.523 . S
H491 C466 0.950 . S
H492 C468 0.950 . S
H493 C469 0.949 . S
H494 C471 0.950 . S
H495 C473 0.950 . S
C496 C497 1.349 . S
C496 C498 1.327 . S
C496 H521 0.950 . S
C497 C496 1.349 . S
C497 C513 1.349 . S
C498 C496 1.327 . S
C498 C517 1.429 . S
C498 H522 0.950 . S
C499 C516 1.574 . S
C499 C518 1.368 . S
C499 H523 0.949 . S
H500 C504 0.949 . S
C501 C502 1.349 . S
C501 C503 1.327 . S
C501 H524 0.950 . S
C502 C501 1.349 . S
C502 C514 1.349 . S
C503 C501 1.327 . S
C503 C519 1.429 . S
C503 H525 0.950 . S
C504 H500 0.949 . S
C504 C512 1.574 . S
C504 C520 1.368 . S
H505 C513 0.950 . S
H506 C511 0.950 . S
H507 C512 0.949 . S
H508 C514 0.950 . S
H509 C515 0.950 . S
H510 C516 0.949 . S
C511 H506 0.950 . S
C511 C513 1.327 . S
C511 C517 1.429 . S
C512 C504 1.574 . S
C512 H507 0.949 . S
C512 C518 1.368 . S
C513 C497 1.349 . S
C513 H505 0.950 . S
C513 C511 1.327 . S
C514 C502 1.349 . S
C514 H508 0.950 . S
C514 C515 1.327 . S
C515 H509 0.950 . S
C515 C514 1.327 . S
C515 C519 1.429 . S
C516 C499 1.574 . S
C516 H510 0.949 . S
C516 C520 1.368 . S
C517 C498 1.429 . S
C517 C511 1.429 . S
C517 C518 1.523 . S
C518 C499 1.368 . S
C518 C512 1.368 . S
C518 C517 1.523 . S
C519 C503 1.429 . S
C519 C515 1.429 . S
C519 C520 1.523 . S
C520 C504 1.368 . S
C520 C516 1.368 . S
C520 C519 1.523 . S
H521 C496 0.950 . S
H522 C498 0.950 . S
H523 C499 0.949 . S
H524 C501 0.950 . S
H525 C503 0.950 . S
C526 C527 1.349 . S
C526 C528 1.327 . S
C526 H551 0.950 . S
C527 C526 1.349 . S
C527 C543 1.349 . S
C528 C526 1.327 . S
C528 C547 1.429 . S
C528 H552 0.950 . S
C529 C546 1.574 . S
C529 C548 1.368 . S
C529 H553 0.949 . S
H530 C534 0.949 . S
C531 C532 1.349 . S
C531 C533 1.327 . S
C531 H554 0.950 . S
C532 C531 1.349 . S
C532 C544 1.349 . S
C533 C531 1.327 . S
C533 C549 1.429 . S
C533 H555 0.950 . S
C534 H530 0.949 . S
C534 C542 1.574 . S
C534 C550 1.368 . S
H535 C543 0.950 . S
H536 C541 0.950 . S
H537 C542 0.949 . S
H538 C544 0.950 . S
H539 C545 0.950 . S
H540 C546 0.949 . S
C541 H536 0.950 . S
C541 C543 1.327 . S
C541 C547 1.429 . S
C542 C534 1.574 . S
C542 H537 0.949 . S
C542 C548 1.368 . S
C543 C527 1.349 . S
C543 H535 0.950 . S
C543 C541 1.327 . S
C544 C532 1.349 . S
C544 H538 0.950 . S
C544 C545 1.327 . S
C545 H539 0.950 . S
C545 C544 1.327 . S
C545 C549 1.429 . S
C546 C529 1.574 . S
C546 H540 0.949 . S
C546 C550 1.368 . S
C547 C528 1.429 . S
C547 C541 1.429 . S
C547 C548 1.523 . S
C548 C529 1.368 . S
C548 C542 1.368 . S
C548 C547 1.523 . S
C549 C533 1.429 . S
C549 C545 1.429 . S
C549 C550 1.523 . S
C550 C534 1.368 . S
C550 C546 1.368 . S
C550 C549 1.523 . S
H551 C526 0.950 . S
H552 C528 0.950 . S
H553 C529 0.949 . S
H554 C531 0.950 . S
H555 C533 0.950 . S
C556 C557 1.349 . S
C556 C558 1.327 . S
C556 H581 0.950 . S
C557 C556 1.349 . S
C557 C573 1.349 . S
C558 C556 1.327 . S
C558 C577 1.429 . S
C558 H582 0.950 . S
C559 C576 1.574 . S
C559 C578 1.368 . S
C559 H583 0.949 . S
H560 C564 0.949 . S
C561 C562 1.349 . S
C561 C563 1.327 . S
C561 H584 0.950 . S
C562 C561 1.349 . S
C562 C574 1.349 . S
C563 C561 1.327 . S
C563 C579 1.429 . S
C563 H585 0.950 . S
C564 H560 0.949 . S
C564 C572 1.574 . S
C564 C580 1.368 . S
H565 C573 0.950 . S
H566 C571 0.950 . S
H567 C572 0.949 . S
H568 C574 0.950 . S
H569 C575 0.950 . S
H570 C576 0.949 . S
C571 H566 0.950 . S
C571 C573 1.327 . S
C571 C577 1.429 . S
C572 C564 1.574 . S
C572 H567 0.949 . S
C572 C578 1.368 . S
C573 C557 1.349 . S
C573 H565 0.950 . S
C573 C571 1.327 . S
C574 C562 1.349 . S
C574 H568 0.950 . S
C574 C575 1.327 . S
C575 H569 0.950 . S
C575 C574 1.327 . S
C575 C579 1.429 . S
C576 C559 1.574 . S
C576 H570 0.949 . S
C576 C580 1.368 . S
C577 C558 1.429 . S
C577 C571 1.429 . S
C577 C578 1.523 . S
C578 C559 1.368 . S
C578 C572 1.368 . S
C578 C577 1.523 . S
C579 C563 1.429 . S
C579 C575 1.429 . S
C579 C580 1.523 . S
C580 C564 1.368 . S
C580 C576 1.368 . S
C580 C579 1.523 . S
H581 C556 0.950 . S
H582 C558 0.950 . S
H583 C559 0.949 . S
H584 C561 0.950 . S
H585 C563 0.950 . S
C586 C587 1.349 . S
C586 C588 1.327 . S
C586 H611 0.950 . S
C587 C586 1.349 . S
C587 C603 1.349 . S
C588 C586 1.327 . S
C588 C607 1.429 . S
C588 H612 0.950 . S
C589 C606 1.574 . S
C589 C608 1.368 . S
C589 H613 0.949 . S
H590 C594 0.949 . S
C591 C592 1.349 . S
C591 C593 1.327 . S
C591 H614 0.950 . S
C592 C591 1.349 . S
C592 C604 1.349 . S
C593 C591 1.327 . S
C593 C609 1.429 . S
C593 H615 0.950 . S
C594 H590 0.949 . S
C594 C602 1.574 . S
C594 C610 1.368 . S
H595 C603 0.950 . S
H596 C601 0.950 . S
H597 C602 0.949 . S
H598 C604 0.950 . S
H599 C605 0.950 . S
H600 C606 0.949 . S
C601 H596 0.950 . S
C601 C603 1.327 . S
C601 C607 1.429 . S
C602 C594 1.574 . S
C602 H597 0.949 . S
C602 C608 1.368 . S
C603 C587 1.349 . S
C603 H595 0.950 . S
C603 C601 1.327 . S
C604 C592 1.349 . S
C604 H598 0.950 . S
C604 C605 1.327 . S
C605 H599 0.950 . S
C605 C604 1.327 . S
C605 C609 1.429 . S
C606 C589 1.574 . S
C606 H600 0.949 . S
C606 C610 1.368 . S
C607 C588 1.429 . S
C607 C601 1.429 . S
C607 C608 1.523 . S
C608 C589 1.368 . S
C608 C602 1.368 . S
C608 C607 1.523 . S
C609 C593 1.429 . S
C609 C605 1.429 . S
C609 C610 1.523 . S
C610 C594 1.368 . S
C610 C606 1.368 . S
C610 C609 1.523 . S
H611 C586 0.950 . S
H612 C588 0.950 . S
H613 C589 0.949 . S
H614 C591 0.950 . S
H615 C593 0.950 . S
C616 C617 1.349 . S
C616 C618 1.327 . S
C616 H641 0.950 . S
C617 C616 1.349 . S
C617 C633 1.349 . S
C618 C616 1.327 . S
C618 C637 1.429 . S
C618 H642 0.950 . S
C619 C636 1.574 . S
C619 C638 1.368 . S
C619 H643 0.949 . S
H620 C624 0.949 . S
C621 C622 1.349 . S
C621 C623 1.327 . S
C621 H644 0.950 . S
C622 C621 1.349 . S
C622 C634 1.349 . S
C623 C621 1.327 . S
C623 C639 1.429 . S
C623 H645 0.950 . S
C624 H620 0.949 . S
C624 C632 1.574 . S
C624 C640 1.368 . S
H625 C633 0.950 . S
H626 C631 0.950 . S
H627 C632 0.949 . S
H628 C634 0.950 . S
H629 C635 0.950 . S
H630 C636 0.949 . S
C631 H626 0.950 . S
C631 C633 1.327 . S
C631 C637 1.429 . S
C632 C624 1.574 . S
C632 H627 0.949 . S
C632 C638 1.368 . S
C633 C617 1.349 . S
C633 H625 0.950 . S
C633 C631 1.327 . S
C634 C622 1.349 . S
C634 H628 0.950 . S
C634 C635 1.327 . S
C635 H629 0.950 . S
C635 C634 1.327 . S
C635 C639 1.429 . S
C636 C619 1.574 . S
C636 H630 0.949 . S
C636 C640 1.368 . S
C637 C618 1.429 . S
C637 C631 1.429 . S
C637 C638 1.523 . S
C638 C619 1.368 . S
C638 C632 1.368 . S
C638 C637 1.523 . S
C639 C623 1.429 . S
C639 C635 1.429 . S
C639 C640 1.523 . S
C640 C624 1.368 . S
C640 C636 1.368 . S
C640 C639 1.523 . S
H641 C616 0.950 . S
H642 C618 0.950 . S
H643 C619 0.949 . S
H644 C621 0.950 . S
H645 C623 0.950 . S
C646 C647 1.349 . S
C646 C648 1.327 . S
C646 H671 0.950 . S
C647 C646 1.349 . S
C647 C663 1.349 . S
C648 C646 1.327 . S
C648 C667 1.429 . S
C648 H672 0.950 . S
C649 C666 1.574 . S
C649 C668 1.368 . S
C649 H673 0.949 . S
H650 C654 0.949 . S
C651 C652 1.349 . S
C651 C653 1.327 . S
C651 H674 0.950 . S
C652 C651 1.349 . S
C652 C664 1.349 . S
C653 C651 1.327 . S
C653 C669 1.429 . S
C653 H675 0.950 . S
C654 H650 0.949 . S
C654 C662 1.574 . S
C654 C670 1.368 . S
H655 C663 0.950 . S
H656 C661 0.950 . S
H657 C662 0.949 . S
H658 C664 0.950 . S
H659 C665 0.950 . S
H660 C666 0.949 . S
C661 H656 0.950 . S
C661 C663 1.327 . S
C661 C667 1.429 . S
C662 C654 1.574 . S
C662 H657 0.949 . S
C662 C668 1.368 . S
C663 C647 1.349 . S
C663 H655 0.950 . S
C663 C661 1.327 . S
C664 C652 1.349 . S
C664 H658 0.950 . S
C664 C665 1.327 . S
C665 H659 0.950 . S
C665 C664 1.327 . S
C665 C669 1.429 . S
C666 C649 1.574 . S
C666 H660 0.949 . S
C666 C670 1.368 . S
C667 C648 1.429 . S
C667 C661 1.429 . S
C667 C668 1.523 . S
C668 C649 1.368 . S
C668 C662 1.368 . S
C668 C667 1.523 . S
C669 C653 1.429 . S
C669 C665 1.429 . S
C669 C670 1.523 . S
C670 C654 1.368 . S
C670 C666 1.368 . S
C670 C669 1.523 . S
H671 C646 0.950 . S
H672 C648 0.950 . S
H673 C649 0.949 . S
H674 C651 0.950 . S
H675 C653 0.950 . S
C676 C677 1.349 . S
C676 C678 1.327 . S
C676 H701 0.950 . S
C677 C676 1.349 . S
C677 C693 1.349 . S
C678 C676 1.327 . S
C678 C697 1.429 . S
C678 H702 0.950 . S
C679 C696 1.574 . S
C679 C698 1.368 . S
C679 H703 0.949 . S
H680 C684 0.949 . S
C681 C682 1.349 . S
C681 C683 1.327 . S
C681 H704 0.950 . S
C682 C681 1.349 . S
C682 C694 1.349 . S
C683 C681 1.327 . S
C683 C699 1.429 . S
C683 H705 0.950 . S
C684 H680 0.949 . S
C684 C692 1.574 . S
C684 C700 1.368 . S
H685 C693 0.950 . S
H686 C691 0.950 . S
H687 C692 0.949 . S
H688 C694 0.950 . S
H689 C695 0.950 . S
H690 C696 0.949 . S
C691 H686 0.950 . S
C691 C693 1.327 . S
C691 C697 1.429 . S
C692 C684 1.574 . S
C692 H687 0.949 . S
C692 C698 1.368 . S
C693 C677 1.349 . S
C693 H685 0.950 . S
C693 C691 1.327 . S
C694 C682 1.349 . S
C694 H688 0.950 . S
C694 C695 1.327 . S
C695 H689 0.950 . S
C695 C694 1.327 . S
C695 C699 1.429 . S
C696 C679 1.574 . S
C696 H690 0.949 . S
C696 C700 1.368 . S
C697 C678 1.429 . S
C697 C691 1.429 . S
C697 C698 1.523 . S
C698 C679 1.368 . S
C698 C692 1.368 . S
C698 C697 1.523 . S
C699 C683 1.429 . S
C699 C695 1.429 . S
C699 C700 1.523 . S
C700 C684 1.368 . S
C700 C696 1.368 . S
C700 C699 1.523 . S
H701 C676 0.950 . S
H702 C678 0.950 . S
H703 C679 0.949 . S
H704 C681 0.950 . S
H705 C683 0.950 . S
C706 C707 1.349 . S
C706 C708 1.327 . S
C706 H731 0.950 . S
C707 C706 1.349 . S
C707 C723 1.349 . S
C708 C706 1.327 . S
C708 C727 1.429 . S
C708 H732 0.950 . S
C709 C726 1.574 . S
C709 C728 1.368 . S
C709 H733 0.949 . S
H710 C714 0.949 . S
C711 C712 1.349 . S
C711 C713 1.327 . S
C711 H734 0.950 . S
C712 C711 1.349 . S
C712 C724 1.349 . S
C713 C711 1.327 . S
C713 C729 1.429 . S
C713 H735 0.950 . S
C714 H710 0.949 . S
C714 C722 1.574 . S
C714 C730 1.368 . S
H715 C723 0.950 . S
H716 C721 0.950 . S
H717 C722 0.949 . S
H718 C724 0.950 . S
H719 C725 0.950 . S
H720 C726 0.949 . S
C721 H716 0.950 . S
C721 C723 1.327 . S
C721 C727 1.429 . S
C722 C714 1.574 . S
C722 H717 0.949 . S
C722 C728 1.368 . S
C723 C707 1.349 . S
C723 H715 0.950 . S
C723 C721 1.327 . S
C724 C712 1.349 . S
C724 H718 0.950 . S
C724 C725 1.327 . S
C725 H719 0.950 . S
C725 C724 1.327 . S
C725 C729 1.429 . S
C726 C709 1.574 . S
C726 H720 0.949 . S
C726 C730 1.368 . S
C727 C708 1.429 . S
C727 C721 1.429 . S
C727 C728 1.523 . S
C728 C709 1.368 . S
C728 C722 1.368 . S
C728 C727 1.523 . S
C729 C713 1.429 . S
C729 C725 1.429 . S
C729 C730 1.523 . S
C730 C714 1.368 . S
C730 C726 1.368 . S
C730 C729 1.523 . S
H731 C706 0.950 . S
H732 C708 0.950 . S
H733 C709 0.949 . S
H734 C711 0.950 . S
H735 C713 0.950 . S
C736 C737 1.349 . S
C736 C738 1.327 . S
C736 H761 0.950 . S
C737 C736 1.349 . S
C737 C753 1.349 . S
C738 C736 1.327 . S
C738 C757 1.429 . S
C738 H762 0.950 . S
C739 C756 1.574 . S
C739 C758 1.368 . S
C739 H763 0.949 . S
H740 C744 0.949 . S
C741 C742 1.349 . S
C741 C743 1.327 . S
C741 H764 0.950 . S
C742 C741 1.349 . S
C742 C754 1.349 . S
C743 C741 1.327 . S
C743 C759 1.429 . S
C743 H765 0.950 . S
C744 H740 0.949 . S
C744 C752 1.574 . S
C744 C760 1.368 . S
H745 C753 0.950 . S
H746 C751 0.950 . S
H747 C752 0.949 . S
H748 C754 0.950 . S
H749 C755 0.950 . S
H750 C756 0.949 . S
C751 H746 0.950 . S
C751 C753 1.327 . S
C751 C757 1.429 . S
C752 C744 1.574 . S
C752 H747 0.949 . S
C752 C758 1.368 . S
C753 C737 1.349 . S
C753 H745 0.950 . S
C753 C751 1.327 . S
C754 C742 1.349 . S
C754 H748 0.950 . S
C754 C755 1.327 . S
C755 H749 0.950 . S
C755 C754 1.327 . S
C755 C759 1.429 . S
C756 C739 1.574 . S
C756 H750 0.949 . S
C756 C760 1.368 . S
C757 C738 1.429 . S
C757 C751 1.429 . S
C757 C758 1.523 . S
C758 C739 1.368 . S
C758 C752 1.368 . S
C758 C757 1.523 . S
C759 C743 1.429 . S
C759 C755 1.429 . S
C759 C760 1.523 . S
C760 C744 1.368 . S
C760 C756 1.368 . S
C760 C759 1.523 . S
H761 C736 0.950 . S
H762 C738 0.950 . S
H763 C739 0.949 . S
H764 C741 0.950 . S
H765 C743 0.950 . S
C766 C767 1.349 . S
C766 C768 1.327 . S
C766 H791 0.950 . S
C767 C766 1.349 . S
C767 C783 1.349 . S
C768 C766 1.327 . S
C768 C787 1.429 . S
C768 H792 0.950 . S
C769 C786 1.574 . S
C769 C788 1.368 . S
C769 H793 0.949 . S
H770 C774 0.949 . S
C771 C772 1.349 . S
C771 C773 1.327 . S
C771 H794 0.950 . S
C772 C771 1.349 . S
C772 C784 1.349 . S
C773 C771 1.327 . S
C773 C789 1.429 . S
C773 H795 0.950 . S
C774 H770 0.949 . S
C774 C782 1.574 . S
C774 C790 1.368 . S
H775 C783 0.950 . S
H776 C781 0.950 . S
H777 C782 0.949 . S
H778 C784 0.950 . S
H779 C785 0.950 . S
H780 C786 0.949 . S
C781 H776 0.950 . S
C781 C783 1.327 . S
C781 C787 1.429 . S
C782 C774 1.574 . S
C782 H777 0.949 . S
C782 C788 1.368 . S
C783 C767 1.349 . S
C783 H775 0.950 . S
C783 C781 1.327 . S
C784 C772 1.349 . S
C784 H778 0.950 . S
C784 C785 1.327 . S
C785 H779 0.950 . S
C785 C784 1.327 . S
C785 C789 1.429 . S
C786 C769 1.574 . S
C786 H780 0.949 . S
C786 C790 1.368 . S
C787 C768 1.429 . S
C787 C781 1.429 . S
C787 C788 1.523 . S
C788 C769 1.368 . S
C788 C782 1.368 . S
C788 C787 1.523 . S
C789 C773 1.429 . S
C789 C785 1.429 . S
C789 C790 1.523 . S
C790 C774 1.368 . S
C790 C786 1.368 . S
C790 C789 1.523 . S
H791 C766 0.950 . S
H792 C768 0.950 . S
H793 C769 0.949 . S
H794 C771 0.950 . S
H795 C773 0.950 . S
C796 C797 1.349 . S
C796 C798 1.327 . S
C796 H821 0.950 . S
C797 C796 1.349 . S
C797 C813 1.349 . S
C798 C796 1.327 . S
C798 C817 1.429 . S
C798 H822 0.950 . S
C799 C816 1.574 . S
C799 C818 1.368 . S
C799 H823 0.949 . S
H800 C804 0.949 . S
C801 C802 1.349 . S
C801 C803 1.327 . S
C801 H824 0.950 . S
C802 C801 1.349 . S
C802 C814 1.349 . S
C803 C801 1.327 . S
C803 C819 1.429 . S
C803 H825 0.950 . S
C804 H800 0.949 . S
C804 C812 1.574 . S
C804 C820 1.368 . S
H805 C813 0.950 . S
H806 C811 0.950 . S
H807 C812 0.949 . S
H808 C814 0.950 . S
H809 C815 0.950 . S
H810 C816 0.949 . S
C811 H806 0.950 . S
C811 C813 1.327 . S
C811 C817 1.429 . S
C812 C804 1.574 . S
C812 H807 0.949 . S
C812 C818 1.368 . S
C813 C797 1.349 . S
C813 H805 0.950 . S
C813 C811 1.327 . S
C814 C802 1.349 . S
C814 H808 0.950 . S
C814 C815 1.327 . S
C815 H809 0.950 . S
C815 C814 1.327 . S
C815 C819 1.429 . S
C816 C799 1.574 . S
C816 H810 0.949 . S
C816 C820 1.368 . S
C817 C798 1.429 . S
C817 C811 1.429 . S
C817 C818 1.523 . S
C818 C799 1.368 . S
C818 C812 1.368 . S
C818 C817 1.523 . S
C819 C803 1.429 . S
C819 C815 1.429 . S
C819 C820 1.523 . S
C820 C804 1.368 . S
C820 C816 1.368 . S
C820 C819 1.523 . S
H821 C796 0.950 . S
H822 C798 0.950 . S
H823 C799 0.949 . S
H824 C801 0.950 . S
H825 C803 0.950 . S
C826 C827 1.349 . S
C826 C828 1.327 . S
C826 H851 0.950 . S
C827 C826 1.349 . S
C827 C843 1.349 . S
C828 C826 1.327 . S
C828 C847 1.429 . S
C828 H852 0.950 . S
C829 C846 1.574 . S
C829 C848 1.368 . S
C829 H853 0.949 . S
H830 C834 0.949 . S
C831 C832 1.349 . S
C831 C833 1.327 . S
C831 H854 0.950 . S
C832 C831 1.349 . S
C832 C844 1.349 . S
C833 C831 1.327 . S
C833 C849 1.429 . S
C833 H855 0.950 . S
C834 H830 0.949 . S
C834 C842 1.574 . S
C834 C850 1.368 . S
H835 C843 0.950 . S
H836 C841 0.950 . S
H837 C842 0.949 . S
H838 C844 0.950 . S
H839 C845 0.950 . S
H840 C846 0.949 . S
C841 H836 0.950 . S
C841 C843 1.327 . S
C841 C847 1.429 . S
C842 C834 1.574 . S
C842 H837 0.949 . S
C842 C848 1.368 . S
C843 C827 1.349 . S
C843 H835 0.950 . S
C843 C841 1.327 . S
C844 C832 1.349 . S
C844 H838 0.950 . S
C844 C845 1.327 . S
C845 H839 0.950 . S
C845 C844 1.327 . S
C845 C849 1.429 . S
C846 C829 1.574 . S
C846 H840 0.949 . S
C846 C850 1.368 . S
C847 C828 1.429 . S
C847 C841 1.429 . S
C847 C848 1.523 . S
C848 C829 1.368 . S
C848 C842 1.368 . S
C848 C847 1.523 . S
C849 C833 1.429 . S
C849 C845 1.429 . S
C849 C850 1.523 . S
C850 C834 1.368 . S
C850 C846 1.368 . S
C850 C849 1.523 . S
H851 C826 0.950 . S
H852 C828 0.950 . S
H853 C829 0.949 . S
H854 C831 0.950 . S
H855 C833 0.950 . S
C856 C857 1.349 . S
C856 C858 1.327 . S
C856 H881 0.950 . S
C857 C856 1.349 . S
C857 C873 1.349 . S
C858 C856 1.327 . S
C858 C877 1.429 . S
C858 H882 0.950 . S
C859 C876 1.574 . S
C859 C878 1.368 . S
C859 H883 0.949 . S
H860 C864 0.949 . S
C861 C862 1.349 . S
C861 C863 1.327 . S
C861 H884 0.950 . S
C862 C861 1.349 . S
C862 C874 1.349 . S
C863 C861 1.327 . S
C863 C879 1.429 . S
C863 H885 0.950 . S
C864 H860 0.949 . S
C864 C872 1.574 . S
C864 C880 1.368 . S
H865 C873 0.950 . S
H866 C871 0.950 . S
H867 C872 0.949 . S
H868 C874 0.950 . S
H869 C875 0.950 . S
H870 C876 0.949 . S
C871 H866 0.950 . S
C871 C873 1.327 . S
C871 C877 1.429 . S
C872 C864 1.574 . S
C872 H867 0.949 . S
C872 C878 1.368 . S
C873 C857 1.349 . S
C873 H865 0.950 . S
C873 C871 1.327 . S
C874 C862 1.349 . S
C874 H868 0.950 . S
C874 C875 1.327 . S
C875 H869 0.950 . S
C875 C874 1.327 . S
C875 C879 1.429 . S
C876 C859 1.574 . S
C876 H870 0.949 . S
C876 C880 1.368 . S
C877 C858 1.429 . S
C877 C871 1.429 . S
C877 C878 1.523 . S
C878 C859 1.368 . S
C878 C872 1.368 . S
C878 C877 1.523 . S
C879 C863 1.429 . S
C879 C875 1.429 . S
C879 C880 1.523 . S
C880 C864 1.368 . S
C880 C876 1.368 . S
C880 C879 1.523 . S
H881 C856 0.950 . S
H882 C858 0.950 . S
H883 C859 0.949 . S
H884 C861 0.950 . S
H885 C863 0.950 . S
C886 C887 1.349 . S
C886 C888 1.327 . S
C886 H911 0.950 . S
C887 C886 1.349 . S
C887 C903 1.349 . S
C888 C886 1.327 . S
C888 C907 1.429 . S
C888 H912 0.950 . S
C889 C906 1.574 . S
C889 C908 1.368 . S
C889 H913 0.949 . S
H890 C894 0.949 . S
C891 C892 1.349 . S
C891 C893 1.327 . S
C891 H914 0.950 . S
C892 C891 1.349 . S
C892 C904 1.349 . S
C893 C891 1.327 . S
C893 C909 1.429 . S
C893 H915 0.950 . S
C894 H890 0.949 . S
C894 C902 1.574 . S
C894 C910 1.368 . S
H895 C903 0.950 . S
H896 C901 0.950 . S
H897 C902 0.949 . S
H898 C904 0.950 . S
H899 C905 0.950 . S
H900 C906 0.949 . S
C901 H896 0.950 . S
C901 C903 1.327 . S
C901 C907 1.429 . S
C902 C894 1.574 . S
C902 H897 0.949 . S
C902 C908 1.368 . S
C903 C887 1.349 . S
C903 H895 0.950 . S
C903 C901 1.327 . S
C904 C892 1.349 . S
C904 H898 0.950 . S
C904 C905 1.327 . S
C905 H899 0.950 . S
C905 C904 1.327 . S
C905 C909 1.429 . S
C906 C889 1.574 . S
C906 H900 0.949 . S
C906 C910 1.368 . S
C907 C888 1.429 . S
C907 C901 1.429 . S
C907 C908 1.523 . S
C908 C889 1.368 . S
C908 C902 1.368 . S
C908 C907 1.523 . S
C909 C893 1.429 . S
C909 C905 1.429 . S
C909 C910 1.523 . S
C910 C894 1.368 . S
C910 C906 1.368 . S
C910 C909 1.523 . S
H911 C886 0.950 . S
H912 C888 0.950 . S
H913 C889 0.949 . S
H914 C891 0.950 . S
H915 C893 0.950 . S
C916 C917 1.349 . S
C916 C918 1.327 . S
C916 H941 0.950 . S
C917 C916 1.349 . S
C917 C933 1.349 . S
C918 C916 1.327 . S
C918 C937 1.429 . S
C918 H942 0.950 . S
C919 C936 1.574 . S
C919 C938 1.368 . S
C919 H943 0.949 . S
H920 C924 0.949 . S
C921 C922 1.349 . S
C921 C923 1.327 . S
C921 H944 0.950 . S
C922 C921 1.349 . S
C922 C934 1.349 . S
C923 C921 1.327 . S
C923 C939 1.429 . S
C923 H945 0.950 . S
C924 H920 0.949 . S
C924 C932 1.574 . S
C924 C940 1.368 . S
H925 C933 0.950 . S
H926 C931 0.950 . S
H927 C932 0.949 . S
H928 C934 0.950 . S
H929 C935 0.950 . S
H930 C936 0.949 . S
C931 H926 0.950 . S
C931 C933 1.327 . S
C931 C937 1.429 . S
C932 C924 1.574 . S
C932 H927 0.949 . S
C932 C938 1.368 . S
C933 C917 1.349 . S
C933 H925 0.950 . S
C933 C931 1.327 . S
C934 C922 1.349 . S
C934 H928 0.950 . S
C934 C935 1.327 . S
C935 H929 0.950 . S
C935 C934 1.327 . S
C935 C939 1.429 . S
C936 C919 1.574 . S
C936 H930 0.949 . S
C936 C940 1.368 . S
C937 C918 1.429 . S
C937 C931 1.429 . S
C937 C938 1.523 . S
C938 C919 1.368 . S
C938 C932 1.368 . S
C938 C937 1.523 . S
C939 C923 1.429 . S
C939 C935 1.429 . S
C939 C940 1.523 . S
C940 C924 1.368 . S
C940 C936 1.368 . S
C940 C939 1.523 . S
H941 C916 0.950 . S
H942 C918 0.950 . S
H943 C919 0.949 . S
H944 C921 0.950 . S
H945 C923 0.950 . S
C946 C947 1.349 . S
C946 C948 1.327 . S
C946 H971 0.950 . S
C947 C946 1.349 . S
C947 C963 1.349 . S
C948 C946 1.327 . S
C948 C967 1.429 . S
C948 H972 0.950 . S
C949 C966 1.574 . S
C949 C968 1.368 . S
C949 H973 0.949 . S
H950 C954 0.949 . S
C951 C952 1.349 . S
C951 C953 1.327 . S
C951 H974 0.950 . S
C952 C951 1.349 . S
C952 C964 1.349 . S
C953 C951 1.327 . S
C953 C969 1.429 . S
C953 H975 0.950 . S
C954 H950 0.949 . S
C954 C962 1.574 . S
C954 C970 1.368 . S
H955 C963 0.950 . S
H956 C961 0.950 . S
H957 C962 0.949 . S
H958 C964 0.950 . S
H959 C965 0.950 . S
H960 C966 0.949 . S
C961 H956 0.950 . S
C961 C963 1.327 . S
C961 C967 1.429 . S
C962 C954 1.574 . S
C962 H957 0.949 . S
C962 C968 1.368 . S
C963 C947 1.349 . S
C963 H955 0.950 . S
C963 C961 1.327 . S
C964 C952 1.349 . S
C964 H958 0.950 . S
C964 C965 1.327 . S
C965 H959 0.950 . S
C965 C964 1.327 . S
C965 C969 1.429 . S
C966 C949 1.574 . S
C966 H960 0.949 . S
C966 C970 1.368 . S
C967 C948 1.429 . S
C967 C961 1.429 . S
C967 C968 1.523 . S
C968 C949 1.368 . S
C968 C962 1.368 . S
C968 C967 1.523 . S
C969 C953 1.429 . S
C969 C965 1.429 . S
C969 C970 1.523 . S
C970 C954 1.368 . S
C970 C966 1.368 . S
C970 C969 1.523 . S
H971 C946 0.950 . S
H972 C948 0.950 . S
H973 C949 0.949 . S
H974 C951 0.950 . S
H975 C953 0.950 . S
C976 C977 1.349 . S
C976 C978 1.327 . S
C976 H1001 0.950 . S
C977 C976 1.349 . S
C977 C993 1.349 . S
C978 C976 1.327 . S
C978 C997 1.429 . S
C978 H1002 0.950 . S
C979 C996 1.574 . S
C979 C998 1.368 . S
C979 H1003 0.949 . S
H980 C984 0.949 . S
C981 C982 1.349 . S
C981 C983 1.327 . S
C981 H1004 0.950 . S
C982 C981 1.349 . S
C982 C994 1.349 . S
C983 C981 1.327 . S
C983 C999 1.429 . S
C983 H1005 0.950 . S
C984 H980 0.949 . S
C984 C992 1.574 . S
C984 C1000 1.368 . S
H985 C993 0.950 . S
H986 C991 0.950 . S
H987 C992 0.949 . S
H988 C994 0.950 . S
H989 C995 0.950 . S
H990 C996 0.949 . S
C991 H986 0.950 . S
C991 C993 1.327 . S
C991 C997 1.429 . S
C992 C984 1.574 . S
C992 H987 0.949 . S
C992 C998 1.368 . S
C993 C977 1.349 . S
C993 H985 0.950 . S
C993 C991 1.327 . S
C994 C982 1.349 . S
C994 H988 0.950 . S
C994 C995 1.327 . S
C995 H989 0.950 . S
C995 C994 1.327 . S
C995 C999 1.429 . S
C996 C979 1.574 . S
C996 H990 0.949 . S
C996 C1000 1.368 . S
C997 C978 1.429 . S
C997 C991 1.429 . S
C997 C998 1.523 . S
C998 C979 1.368 . S
C998 C992 1.368 . S
C998 C997 1.523 . S
C999 C983 1.429 . S
C999 C995 1.429 . S
C999 C1000 1.523 . S
C1000 C984 1.368 . S
C1000 C996 1.368 . S
C1000 C999 1.523 . S
H1001 C976 0.950 . S
H1002 C978 0.950 . S
H1003 C979 0.949 . S
H1004 C981 0.950 . S
H1005 C983 0.950 . S
C1006 C1007 1.349 . S
C1006 C1008 1.327 . S
C1006 H1031 0.950 . S
C1007 C1006 1.349 . S
C1007 C1023 1.349 . S
C1008 C1006 1.327 . S
C1008 C1027 1.429 . S
C1008 H1032 0.950 . S
C1009 C1026 1.574 . S
C1009 C1028 1.368 . S
C1009 H1033 0.949 . S
H1010 C1014 0.949 . S
C1011 C1012 1.349 . S
C1011 C1013 1.327 . S
C1011 H1034 0.950 . S
C1012 C1011 1.349 . S
C1012 C1024 1.349 . S
C1013 C1011 1.327 . S
C1013 C1029 1.429 . S
C1013 H1035 0.950 . S
C1014 H1010 0.949 . S
C1014 C1022 1.574 . S
C1014 C1030 1.368 . S
H1015 C1023 0.950 . S
H1016 C1021 0.950 . S
H1017 C1022 0.949 . S
H1018 C1024 0.950 . S
H1019 C1025 0.950 . S
H1020 C1026 0.949 . S
C1021 H1016 0.950 . S
C1021 C1023 1.327 . S
C1021 C1027 1.429 . S
C1022 C1014 1.574 . S
C1022 H1017 0.949 . S
C1022 C1028 1.368 . S
C1023 C1007 1.349 . S
C1023 H1015 0.950 . S
C1023 C1021 1.327 . S
C1024 C1012 1.349 . S
C1024 H1018 0.950 . S
C1024 C1025 1.327 . S
C1025 H1019 0.950 . S
C1025 C1024 1.327 . S
C1025 C1029 1.429 . S
C1026 C1009 1.574 . S
C1026 H1020 0.949 . S
C1026 C1030 1.368 . S
C1027 C1008 1.429 . S
C1027 C1021 1.429 . S
C1027 C1028 1.523 . S
C1028 C1009 1.368 . S
C1028 C1022 1.368 . S
C1028 C1027 1.523 . S
C1029 C1013 1.429 . S
C1029 C1025 1.429 . S
C1029 C1030 1.523 . S
C1030 C1014 1.368 . S
C1030 C1026 1.368 . S
C1030 C1029 1.523 . S
H1031 C1006 0.950 . S
H1032 C1008 0.950 . S
H1033 C1009 0.949 . S
H1034 C1011 0.950 . S
H1035 C1013 0.950 . S
C1036 C1037 1.349 . S
C1036 C1038 1.327 . S
C1036 H1061 0.950 . S
C1037 C1036 1.349 . S
C1037 C1053 1.349 . S
C1038 C1036 1.327 . S
C1038 C1057 1.429 . S
C1038 H1062 0.950 . S
C1039 C1056 1.574 . S
C1039 C1058 1.368 . S
C1039 H1063 0.949 . S
H1040 C1044 0.949 . S
C1041 C1042 1.349 . S
C1041 C1043 1.327 . S
C1041 H1064 0.950 . S
C1042 C1041 1.349 . S
C1042 C1054 1.349 . S
C1043 C1041 1.327 . S
C1043 C1059 1.429 . S
C1043 H1065 0.950 . S
C1044 H1040 0.949 . S
C1044 C1052 1.574 . S
C1044 C1060 1.368 . S
H1045 C1053 0.950 . S
H1046 C1051 0.950 . S
H1047 C1052 0.949 . S
H1048 C1054 0.950 . S
H1049 C1055 0.950 . S
H1050 C1056 0.949 . S
C1051 H1046 0.950 . S
C1051 C1053 1.327 . S
C1051 C1057 1.429 . S
C1052 C1044 1.574 . S
C1052 H1047 0.949 . S
C1052 C1058 1.368 . S
C1053 C1037 1.349 . S
C1053 H1045 0.950 . S
C1053 C1051 1.327 . S
C1054 C1042 1.349 . S
C1054 H1048 0.950 . S
C1054 C1055 1.327 . S
C1055 H1049 0.950 . S
C1055 C1054 1.327 . S
C1055 C1059 1.429 . S
C1056 C1039 1.574 . S
C1056 H1050 0.949 . S
C1056 C1060 1.368 . S
C1057 C1038 1.429 . S
C1057 C1051 1.429 . S
C1057 C1058 1.523 . S
C1058 C1039 1.368 . S
C1058 C1052 1.368 . S
C1058 C1057 1.523 . S
C1059 C1043 1.429 . S
C1059 C1055 1.429 . S
C1059 C1060 1.523 . S
C1060 C1044 1.368 . S
C1060 C1056 1.368 . S
C1060 C1059 1.523 . S
H1061 C1036 0.950 . S
H1062 C1038 0.950 . S
H1063 C1039 0.949 . S
H1064 C1041 0.950 . S
H1065 C1043 0.950 . S
C1066 C1067 1.349 . S
C1066 C1068 1.327 . S
C1066 H1091 0.950 . S
C1067 C1066 1.349 . S
C1067 C1083 1.349 . S
C1068 C1066 1.327 . S
C1068 C1087 1.429 . S
C1068 H1092 0.950 . S
C1069 C1086 1.574 . S
C1069 C1088 1.368 . S
C1069 H1093 0.949 . S
H1070 C1074 0.949 . S
C1071 C1072 1.349 . S
C1071 C1073 1.327 . S
C1071 H1094 0.950 . S
C1072 C1071 1.349 . S
C1072 C1084 1.349 . S
C1073 C1071 1.327 . S
C1073 C1089 1.429 . S
C1073 H1095 0.950 . S
C1074 H1070 0.949 . S
C1074 C1082 1.574 . S
C1074 C1090 1.368 . S
H1075 C1083 0.950 . S
H1076 C1081 0.950 . S
H1077 C1082 0.949 . S
H1078 C1084 0.950 . S
H1079 C1085 0.950 . S
H1080 C1086 0.949 . S
C1081 H1076 0.950 . S
C1081 C1083 1.327 . S
C1081 C1087 1.429 . S
C1082 C1074 1.574 . S
C1082 H1077 0.949 . S
C1082 C1088 1.368 . S
C1083 C1067 1.349 . S
C1083 H1075 0.950 . S
C1083 C1081 1.327 . S
C1084 C1072 1.349 . S
C1084 H1078 0.950 . S
C1084 C1085 1.327 . S
C1085 H1079 0.950 . S
C1085 C1084 1.327 . S
C1085 C1089 1.429 . S
C1086 C1069 1.574 . S
C1086 H1080 0.949 . S
C1086 C1090 1.368 . S
C1087 C1068 1.429 . S
C1087 C1081 1.429 . S
C1087 C1088 1.523 . S
C1088 C1069 1.368 . S
C1088 C1082 1.368 . S
C1088 C1087 1.523 . S
C1089 C1073 1.429 . S
C1089 C1085 1.429 . S
C1089 C1090 1.523 . S
C1090 C1074 1.368 . S
C1090 C1086 1.368 . S
C1090 C1089 1.523 . S
H1091 C1066 0.950 . S
H1092 C1068 0.950 . S
H1093 C1069 0.949 . S
H1094 C1071 0.950 . S
H1095 C1073 0.950 . S
C1096 C1097 1.349 . S
C1096 C1098 1.327 . S
C1096 H1121 0.950 . S
C1097 C1096 1.349 . S
C1097 C1113 1.349 . S
C1098 C1096 1.327 . S
C1098 C1117 1.429 . S
C1098 H1122 0.950 . S
C1099 C1116 1.574 . S
C1099 C1118 1.368 . S
C1099 H1123 0.949 . S
H1100 C1104 0.949 . S
C1101 C1102 1.349 . S
C1101 C1103 1.327 . S
C1101 H1124 0.950 . S
C1102 C1101 1.349 . S
C1102 C1114 1.349 . S
C1103 C1101 1.327 . S
C1103 C1119 1.429 . S
C1103 H1125 0.950 . S
C1104 H1100 0.949 . S
C1104 C1112 1.574 . S
C1104 C1120 1.368 . S
H1105 C1113 0.950 . S
H1106 C1111 0.950 . S
H1107 C1112 0.949 . S
H1108 C1114 0.950 . S
H1109 C1115 0.950 . S
H1110 C1116 0.949 . S
C1111 H1106 0.950 . S
C1111 C1113 1.327 . S
C1111 C1117 1.429 . S
C1112 C1104 1.574 . S
C1112 H1107 0.949 . S
C1112 C1118 1.368 . S
C1113 C1097 1.349 . S
C1113 H1105 0.950 . S
C1113 C1111 1.327 . S
C1114 C1102 1.349 . S
C1114 H1108 0.950 . S
C1114 C1115 1.327 . S
C1115 H1109 0.950 . S
C1115 C1114 1.327 . S
C1115 C1119 1.429 . S
C1116 C1099 1.574 . S
C1116 H1110 0.949 . S
C1116 C1120 1.368 . S
C1117 C1098 1.429 . S
C1117 C1111 1.429 . S
C1117 C1118 1.523 . S
C1118 C1099 1.368 . S
C1118 C1112 1.368 . S
C1118 C1117 1.523 . S
C1119 C1103 1.429 . S
C1119 C1115 1.429 . S
C1119 C1120 1.523 . S
C1120 C1104 1.368 . S
C1120 C1116 1.368 . S
C1120 C1119 1.523 . S
H1121 C1096 0.950 . S
H1122 C1098 0.950 . S
H1123 C1099 0.949 . S
H1124 C1101 0.950 . S
H1125 C1103 0.950 . S
C1126 C1127 1.349 . S
C1126 C1128 1.327 . S
C1126 H1151 0.950 . S
C1127 C1126 1.349 . S
C1127 C1143 1.349 . S
C1128 C1126 1.327 . S
C1128 C1147 1.429 . S
C1128 H1152 0.950 . S
C1129 C1146 1.574 . S
C1129 C1148 1.368 . S
C1129 H1153 0.949 . S
H1130 C1134 0.949 . S
C1131 C1132 1.349 . S
C1131 C1133 1.327 . S
C1131 H1154 0.950 . S
C1132 C1131 1.349 . S
C1132 C1144 1.349 . S
C1133 C1131 1.327 . S
C1133 C1149 1.429 . S
C1133 H1155 0.950 . S
C1134 H1130 0.949 . S
C1134 C1142 1.574 . S
C1134 C1150 1.368 . S
H1135 C1143 0.950 . S
H1136 C1141 0.950 . S
H1137 C1142 0.949 . S
H1138 C1144 0.950 . S
H1139 C1145 0.950 . S
H1140 C1146 0.949 . S
C1141 H1136 0.950 . S
C1141 C1143 1.327 . S
C1141 C1147 1.429 . S
C1142 C1134 1.574 . S
C1142 H1137 0.949 . S
C1142 C1148 1.368 . S
C1143 C1127 1.349 . S
C1143 H1135 0.950 . S
C1143 C1141 1.327 . S
C1144 C1132 1.349 . S
C1144 H1138 0.950 . S
C1144 C1145 1.327 . S
C1145 H1139 0.950 . S
C1145 C1144 1.327 . S
C1145 C1149 1.429 . S
C1146 C1129 1.574 . S
C1146 H1140 0.949 . S
C1146 C1150 1.368 . S
C1147 C1128 1.429 . S
C1147 C1141 1.429 . S
C1147 C1148 1.523 . S
C1148 C1129 1.368 . S
C1148 C1142 1.368 . S
C1148 C1147 1.523 . S
C1149 C1133 1.429 . S
C1149 C1145 1.429 . S
C1149 C1150 1.523 . S
C1150 C1134 1.368 . S
C1150 C1146 1.368 . S
C1150 C1149 1.523 . S
H1151 C1126 0.950 . S
H1152 C1128 0.950 . S
H1153 C1129 0.949 . S
H1154 C1131 0.950 . S
H1155 C1133 0.950 . S
C1156 C1157 1.349 . S
C1156 C1158 1.327 . S
C1156 H1181 0.950 . S
C1157 C1156 1.349 . S
C1157 C1173 1.349 . S
C1158 C1156 1.327 . S
C1158 C1177 1.429 . S
C1158 H1182 0.950 . S
C1159 C1176 1.574 . S
C1159 C1178 1.368 . S
C1159 H1183 0.949 . S
H1160 C1164 0.949 . S
C1161 C1162 1.349 . S
C1161 C1163 1.327 . S
C1161 H1184 0.950 . S
C1162 C1161 1.349 . S
C1162 C1174 1.349 . S
C1163 C1161 1.327 . S
C1163 C1179 1.429 . S
C1163 H1185 0.950 . S
C1164 H1160 0.949 . S
C1164 C1172 1.574 . S
C1164 C1180 1.368 . S
H1165 C1173 0.950 . S
H1166 C1171 0.950 . S
H1167 C1172 0.949 . S
H1168 C1174 0.950 . S
H1169 C1175 0.950 . S
H1170 C1176 0.949 . S
C1171 H1166 0.950 . S
C1171 C1173 1.327 . S
C1171 C1177 1.429 . S
C1172 C1164 1.574 . S
C1172 H1167 0.949 . S
C1172 C1178 1.368 . S
C1173 C1157 1.349 . S
C1173 H1165 0.950 . S
C1173 C1171 1.327 . S
C1174 C1162 1.349 . S
C1174 H1168 0.950 . S
C1174 C1175 1.327 . S
C1175 H1169 0.950 . S
C1175 C1174 1.327 . S
C1175 C1179 1.429 . S
C1176 C1159 1.574 . S
C1176 H1170 0.949 . S
C1176 C1180 1.368 . S
C1177 C1158 1.429 . S
C1177 C1171 1.429 . S
C1177 C1178 1.523 . S
C1178 C1159 1.368 . S
C1178 C1172 1.368 . S
C1178 C1177 1.523 . S
C1179 C1163 1.429 . S
C1179 C1175 1.429 . S
C1179 C1180 1.523 . S
C1180 C1164 1.368 . S
C1180 C1176 1.368 . S
C1180 C1179 1.523 . S
H1181 C1156 0.950 . S
H1182 C1158 0.950 . S
H1183 C1159 0.949 . S
H1184 C1161 0.950 . S
H1185 C1163 0.950 . S
C1186 C1187 1.349 . S
C1186 C1188 1.327 . S
C1186 H1211 0.950 . S
C1187 C1186 1.349 . S
C1187 C1203 1.349 . S
C1188 C1186 1.327 . S
C1188 C1207 1.429 . S
C1188 H1212 0.950 . S
C1189 C1206 1.574 . S
C1189 C1208 1.368 . S
C1189 H1213 0.949 . S
H1190 C1194 0.949 . S
C1191 C1192 1.349 . S
C1191 C1193 1.327 . S
C1191 H1214 0.950 . S
C1192 C1191 1.349 . S
C1192 C1204 1.349 . S
C1193 C1191 1.327 . S
C1193 C1209 1.429 . S
C1193 H1215 0.950 . S
C1194 H1190 0.949 . S
C1194 C1202 1.574 . S
C1194 C1210 1.368 . S
H1195 C1203 0.950 . S
H1196 C1201 0.950 . S
H1197 C1202 0.949 . S
H1198 C1204 0.950 . S
H1199 C1205 0.950 . S
H1200 C1206 0.949 . S
C1201 H1196 0.950 . S
C1201 C1203 1.327 . S
C1201 C1207 1.429 . S
C1202 C1194 1.574 . S
C1202 H1197 0.949 . S
C1202 C1208 1.368 . S
C1203 C1187 1.349 . S
C1203 H1195 0.950 . S
C1203 C1201 1.327 . S
C1204 C1192 1.349 . S
C1204 H1198 0.950 . S
C1204 C1205 1.327 . S
C1205 H1199 0.950 . S
C1205 C1204 1.327 . S
C1205 C1209 1.429 . S
C1206 C1189 1.574 . S
C1206 H1200 0.949 . S
C1206 C1210 1.368 . S
C1207 C1188 1.429 . S
C1207 C1201 1.429 . S
C1207 C1208 1.523 . S
C1208 C1189 1.368 . S
C1208 C1202 1.368 . S
C1208 C1207 1.523 . S
C1209 C1193 1.429 . S
C1209 C1205 1.429 . S
C1209 C1210 1.523 . S
C1210 C1194 1.368 . S
C1210 C1206 1.368 . S
C1210 C1209 1.523 . S
H1211 C1186 0.950 . S
H1212 C1188 0.950 . S
H1213 C1189 0.949 . S
H1214 C1191 0.950 . S
H1215 C1193 0.950 . S
C1216 C1217 1.349 . S
C1216 C1218 1.327 . S
C1216 H1241 0.950 . S
C1217 C1216 1.349 . S
C1217 C1233 1.349 . S
C1218 C1216 1.327 . S
C1218 C1237 1.429 . S
C1218 H1242 0.950 . S
C1219 C1236 1.574 . S
C1219 C1238 1.368 . S
C1219 H1243 0.949 . S
H1220 C1224 0.949 . S
C1221 C1222 1.349 . S
C1221 C1223 1.327 . S
C1221 H1244 0.950 . S
C1222 C1221 1.349 . S
C1222 C1234 1.349 . S
C1223 C1221 1.327 . S
C1223 C1239 1.429 . S
C1223 H1245 0.950 . S
C1224 H1220 0.949 . S
C1224 C1232 1.574 . S
C1224 C1240 1.368 . S
H1225 C1233 0.950 . S
H1226 C1231 0.950 . S
H1227 C1232 0.949 . S
H1228 C1234 0.950 . S
H1229 C1235 0.950 . S
H1230 C1236 0.949 . S
C1231 H1226 0.950 . S
C1231 C1233 1.327 . S
C1231 C1237 1.429 . S
C1232 C1224 1.574 . S
C1232 H1227 0.949 . S
C1232 C1238 1.368 . S
C1233 C1217 1.349 . S
C1233 H1225 0.950 . S
C1233 C1231 1.327 . S
C1234 C1222 1.349 . S
C1234 H1228 0.950 . S
C1234 C1235 1.327 . S
C1235 H1229 0.950 . S
C1235 C1234 1.327 . S
C1235 C1239 1.429 . S
C1236 C1219 1.574 . S
C1236 H1230 0.949 . S
C1236 C1240 1.368 . S
C1237 C1218 1.429 . S
C1237 C1231 1.429 . S
C1237 C1238 1.523 . S
C1238 C1219 1.368 . S
C1238 C1232 1.368 . S
C1238 C1237 1.523 . S
C1239 C1223 1.429 . S
C1239 C1235 1.429 . S
C1239 C1240 1.523 . S
C1240 C1224 1.368 . S
C1240 C1236 1.368 . S
C1240 C1239 1.523 . S
H1241 C1216 0.950 . S
H1242 C1218 0.950 . S
H1243 C1219 0.949 . S
H1244 C1221 0.950 . S
H1245 C1223 0.950 . S
C1246 C1247 1.349 . S
C1246 C1248 1.327 . S
C1246 H1271 0.950 . S
C1247 C1246 1.349 . S
C1247 C1263 1.349 . S
C1248 C1246 1.327 . S
C1248 C1267 1.429 . S
C1248 H1272 0.950 . S
C1249 C1266 1.574 . S
C1249 C1268 1.368 . S
C1249 H1273 0.949 . S
H1250 C1254 0.949 . S
C1251 C1252 1.349 . S
C1251 C1253 1.327 . S
C1251 H1274 0.950 . S
C1252 C1251 1.349 . S
C1252 C1264 1.349 . S
C1253 C1251 1.327 . S
C1253 C1269 1.429 . S
C1253 H1275 0.950 . S
C1254 H1250 0.949 . S
C1254 C1262 1.574 . S
C1254 C1270 1.368 . S
H1255 C1263 0.950 . S
H1256 C1261 0.950 . S
H1257 C1262 0.949 . S
H1258 C1264 0.950 . S
H1259 C1265 0.950 . S
H1260 C1266 0.949 . S
C1261 H1256 0.950 . S
C1261 C1263 1.327 . S
C1261 C1267 1.429 . S
C1262 C1254 1.574 . S
C1262 H1257 0.949 . S
C1262 C1268 1.368 . S
C1263 C1247 1.349 . S
C1263 H1255 0.950 . S
C1263 C1261 1.327 . S
C1264 C1252 1.349 . S
C1264 H1258 0.950 . S
C1264 C1265 1.327 . S
C1265 H1259 0.950 . S
C1265 C1264 1.327 . S
C1265 C1269 1.429 . S
C1266 C1249 1.574 . S
C1266 H1260 0.949 . S
C1266 C1270 1.368 . S
C1267 C1248 1.429 . S
C1267 C1261 1.429 . S
C1267 C1268 1.523 . S
C1268 C1249 1.368 . S
C1268 C1262 1.368 . S
C1268 C1267 1.523 . S
C1269 C1253 1.429 . S
C1269 C1265 1.429 . S
C1269 C1270 1.523 . S
C1270 C1254 1.368 . S
C1270 C1266 1.368 . S
C1270 C1269 1.523 . S
H1271 C1246 0.950 . S
H1272 C1248 0.950 . S
H1273 C1249 0.949 . S
H1274 C1251 0.950 . S
H1275 C1253 0.950 . S
C1276 C1277 1.349 . S
C1276 C1278 1.327 . S
C1276 H1301 0.950 . S
C1277 C1276 1.349 . S
C1277 C1293 1.349 . S
C1278 C1276 1.327 . S
C1278 C1297 1.429 . S
C1278 H1302 0.950 . S
C1279 C1296 1.574 . S
C1279 C1298 1.368 . S
C1279 H1303 0.949 . S
H1280 C1284 0.949 . S
C1281 C1282 1.349 . S
C1281 C1283 1.327 . S
C1281 H1304 0.950 . S
C1282 C1281 1.349 . S
C1282 C1294 1.349 . S
C1283 C1281 1.327 . S
C1283 C1299 1.429 . S
C1283 H1305 0.950 . S
C1284 H1280 0.949 . S
C1284 C1292 1.574 . S
C1284 C1300 1.368 . S
H1285 C1293 0.950 . S
H1286 C1291 0.950 . S
H1287 C1292 0.949 . S
H1288 C1294 0.950 . S
H1289 C1295 0.950 . S
H1290 C1296 0.949 . S
C1291 H1286 0.950 . S
C1291 C1293 1.327 . S
C1291 C1297 1.429 . S
C1292 C1284 1.574 . S
C1292 H1287 0.949 . S
C1292 C1298 1.368 . S
C1293 C1277 1.349 . S
C1293 H1285 0.950 . S
C1293 C1291 1.327 . S
C1294 C1282 1.349 . S
C1294 H1288 0.950 . S
C1294 C1295 1.327 . S
C1295 H1289 0.950 . S
C1295 C1294 1.327 . S
C1295 C1299 1.429 . S
C1296 C1279 1.574 . S
C1296 H1290 0.949 . S
C1296 C1300 1.368 . S
C1297 C1278 1.429 . S
C1297 C1291 1.429 . S
C1297 C1298 1.523 . S
C1298 C1279 1.368 . S
C1298 C1292 1.368 . S
C1298 C1297 1.523 . S
C1299 C1283 1.429 . S
C1299 C1295 1.429 . S
C1299 C1300 1.523 . S
C1300 C1284 1.368 . S
C1300 C1296 1.368 . S
C1300 C1299 1.523 . S
H1301 C1276 0.950 . S
H1302 C1278 0.950 . S
H1303 C1279 0.949 . S
H1304 C1281 0.950 . S
H1305 C1283 0.950 . S
C1306 C1307 1.349 . S
C1306 C1308 1.327 . S
C1306 H1331 0.950 . S
C1307 C1306 1.349 . S
C1307 C1323 1.349 . S
C1308 C1306 1.327 . S
C1308 C1327 1.429 . S
C1308 H1332 0.950 . S
C1309 C1326 1.574 . S
C1309 C1328 1.368 . S
C1309 H1333 0.949 . S
H1310 C1314 0.949 . S
C1311 C1312 1.349 . S
C1311 C1313 1.327 . S
C1311 H1334 0.950 . S
C1312 C1311 1.349 . S
C1312 C1324 1.349 . S
C1313 C1311 1.327 . S
C1313 C1329 1.429 . S
C1313 H1335 0.950 . S
C1314 H1310 0.949 . S
C1314 C1322 1.574 . S
C1314 C1330 1.368 . S
H1315 C1323 0.950 . S
H1316 C1321 0.950 . S
H1317 C1322 0.949 . S
H1318 C1324 0.950 . S
H1319 C1325 0.950 . S
H1320 C1326 0.949 . S
C1321 H1316 0.950 . S
C1321 C1323 1.327 . S
C1321 C1327 1.429 . S
C1322 C1314 1.574 . S
C1322 H1317 0.949 . S
C1322 C1328 1.368 . S
C1323 C1307 1.349 . S
C1323 H1315 0.950 . S
C1323 C1321 1.327 . S
C1324 C1312 1.349 . S
C1324 H1318 0.950 . S
C1324 C1325 1.327 . S
C1325 H1319 0.950 . S
C1325 C1324 1.327 . S
C1325 C1329 1.429 . S
C1326 C1309 1.574 . S
C1326 H1320 0.949 . S
C1326 C1330 1.368 . S
C1327 C1308 1.429 . S
C1327 C1321 1.429 . S
C1327 C1328 1.523 . S
C1328 C1309 1.368 . S
C1328 C1322 1.368 . S
C1328 C1327 1.523 . S
C1329 C1313 1.429 . S
C1329 C1325 1.429 . S
C1329 C1330 1.523 . S
C1330 C1314 1.368 . S
C1330 C1326 1.368 . S
C1330 C1329 1.523 . S
H1331 C1306 0.950 . S
H1332 C1308 0.950 . S
H1333 C1309 0.949 . S
H1334 C1311 0.950 . S
H1335 C1313 0.950 . S
C1336 C1337 1.349 . S
C1336 C1338 1.327 . S
C1336 H1361 0.950 . S
C1337 C1336 1.349 . S
C1337 C1353 1.349 . S
C1338 C1336 1.327 . S
C1338 C1357 1.429 . S
C1338 H1362 0.950 . S
C1339 C1356 1.574 . S
C1339 C1358 1.368 . S
C1339 H1363 0.949 . S
H1340 C1344 0.949 . S
C1341 C1342 1.349 . S
C1341 C1343 1.327 . S
C1341 H1364 0.950 . S
C1342 C1341 1.349 . S
C1342 C1354 1.349 . S
C1343 C1341 1.327 . S
C1343 C1359 1.429 . S
C1343 H1365 0.950 . S
C1344 H1340 0.949 . S
C1344 C1352 1.574 . S
C1344 C1360 1.368 . S
H1345 C1353 0.950 . S
H1346 C1351 0.950 . S
H1347 C1352 0.949 . S
H1348 C1354 0.950 . S
H1349 C1355 0.950 . S
H1350 C1356 0.949 . S
C1351 H1346 0.950 . S
C1351 C1353 1.327 . S
C1351 C1357 1.429 . S
C1352 C1344 1.574 . S
C1352 H1347 0.949 . S
C1352 C1358 1.368 . S
C1353 C1337 1.349 . S
C1353 H1345 0.950 . S
C1353 C1351 1.327 . S
C1354 C1342 1.349 . S
C1354 H1348 0.950 . S
C1354 C1355 1.327 . S
C1355 H1349 0.950 . S
C1355 C1354 1.327 . S
C1355 C1359 1.429 . S
C1356 C1339 1.574 . S
C1356 H1350 0.949 . S
C1356 C1360 1.368 . S
C1357 C1338 1.429 . S
C1357 C1351 1.429 . S
C1357 C1358 1.523 . S
C1358 C1339 1.368 . S
C1358 C1352 1.368 . S
C1358 C1357 1.523 . S
C1359 C1343 1.429 . S
C1359 C1355 1.429 . S
C1359 C1360 1.523 . S
C1360 C1344 1.368 . S
C1360 C1356 1.368 . S
C1360 C1359 1.523 . S
H1361 C1336 0.950 . S
H1362 C1338 0.950 . S
H1363 C1339 0.949 . S
H1364 C1341 0.950 . S
H1365 C1343 0.950 . S
C1366 C1367 1.349 . S
C1366 C1368 1.327 . S
C1366 H1391 0.950 . S
C1367 C1366 1.349 . S
C1367 C1383 1.349 . S
C1368 C1366 1.327 . S
C1368 C1387 1.429 . S
C1368 H1392 0.950 . S
C1369 C1386 1.574 . S
C1369 C1388 1.368 . S
C1369 H1393 0.949 . S
H1370 C1374 0.949 . S
C1371 C1372 1.349 . S
C1371 C1373 1.327 . S
C1371 H1394 0.950 . S
C1372 C1371 1.349 . S
C1372 C1384 1.349 . S
C1373 C1371 1.327 . S
C1373 C1389 1.429 . S
C1373 H1395 0.950 . S
C1374 H1370 0.949 . S
C1374 C1382 1.574 . S
C1374 C1390 1.368 . S
H1375 C1383 0.950 . S
H1376 C1381 0.950 . S
H1377 C1382 0.949 . S
H1378 C1384 0.950 . S
H1379 C1385 0.950 . S
H1380 C1386 0.949 . S
C1381 H1376 0.950 . S
C1381 C1383 1.327 . S
C1381 C1387 1.429 . S
C1382 C1374 1.574 . S
C1382 H1377 0.949 . S
C1382 C1388 1.368 . S
C1383 C1367 1.349 . S
C1383 H1375 0.950 . S
C1383 C1381 1.327 . S
C1384 C1372 1.349 . S
C1384 H1378 0.950 . S
C1384 C1385 1.327 . S
C1385 H1379 0.950 . S
C1385 C1384 1.327 . S
C1385 C1389 1.429 . S
C1386 C1369 1.574 . S
C1386 H1380 0.949 . S
C1386 C1390 1.368 . S
C1387 C1368 1.429 . S
C1387 C1381 1.429 . S
C1387 C1388 1.523 . S
C1388 C1369 1.368 . S
C1388 C1382 1.368 . S
C1388 C1387 1.523 . S
C1389 C1373 1.429 . S
C1389 C1385 1.429 . S
C1389 C1390 1.523 . S
C1390 C1374 1.368 . S
C1390 C1386 1.368 . S
C1390 C1389 1.523 . S
H1391 C1366 0.950 . S
H1392 C1368 0.950 . S
H1393 C1369 0.949 . S
H1394 C1371 0.950 . S
H1395 C1373 0.950 . S
C1396 C1397 1.349 . S
C1396 C1398 1.327 . S
C1396 H1421 0.950 . S
C1397 C1396 1.349 . S
C1397 C1413 1.349 . S
C1398 C1396 1.327 . S
C1398 C1417 1.429 . S
C1398 H1422 0.950 . S
C1399 C1416 1.574 . S
C1399 C1418 1.368 . S
C1399 H1423 0.949 . S
H1400 C1404 0.949 . S
C1401 C1402 1.349 . S
C1401 C1403 1.327 . S
C1401 H1424 0.950 . S
C1402 C1401 1.349 . S
C1402 C1414 1.349 . S
C1403 C1401 1.327 . S
C1403 C1419 1.429 . S
C1403 H1425 0.950 . S
C1404 H1400 0.949 . S
C1404 C1412 1.574 . S
C1404 C1420 1.368 . S
H1405 C1413 0.950 . S
H1406 C1411 0.950 . S
H1407 C1412 0.949 . S
H1408 C1414 0.950 . S
H1409 C1415 0.950 . S
H1410 C1416 0.949 . S
C1411 H1406 0.950 . S
C1411 C1413 1.327 . S
C1411 C1417 1.429 . S
C1412 C1404 1.574 . S
C1412 H1407 0.949 . S
C1412 C1418 1.368 . S
C1413 C1397 1.349 . S
C1413 H1405 0.950 . S
C1413 C1411 1.327 . S
C1414 C1402 1.349 . S
C1414 H1408 0.950 . S
C1414 C1415 1.327 . S
C1415 H1409 0.950 . S
C1415 C1414 1.327 . S
C1415 C1419 1.429 . S
C1416 C1399 1.574 . S
C1416 H1410 0.949 . S
C1416 C1420 1.368 . S
C1417 C1398 1.429 . S
C1417 C1411 1.429 . S
C1417 C1418 1.523 . S
C1418 C1399 1.368 . S
C1418 C1412 1.368 . S
C1418 C1417 1.523 . S
C1419 C1403 1.429 . S
C1419 C1415 1.429 . S
C1419 C1420 1.523 . S
C1420 C1404 1.368 . S
C1420 C1416 1.368 . S
C1420 C1419 1.523 . S
H1421 C1396 0.950 . S
H1422 C1398 0.950 . S
H1423 C1399 0.949 . S
H1424 C1401 0.950 . S
H1425 C1403 0.950 . S
C1426 C1427 1.349 . S
C1426 C1428 1.327 . S
C1426 H1451 0.950 . S
C1427 C1426 1.349 . S
C1427 C1443 1.349 . S
C1428 C1426 1.327 . S
C1428 C1447 1.429 . S
C1428 H1452 0.950 . S
C1429 C1446 1.574 . S
C1429 C1448 1.368 . S
C1429 H1453 0.949 . S
H1430 C1434 0.949 . S
C1431 C1432 1.349 . S
C1431 C1433 1.327 . S
C1431 H1454 0.950 . S
C1432 C1431 1.349 . S
C1432 C1444 1.349 . S
C1433 C1431 1.327 . S
C1433 C1449 1.429 . S
C1433 H1455 0.950 . S
C1434 H1430 0.949 . S
C1434 C1442 1.574 . S
C1434 C1450 1.368 . S
H1435 C1443 0.950 . S
H1436 C1441 0.950 . S
H1437 C1442 0.949 . S
H1438 C1444 0.950 . S
H1439 C1445 0.950 . S
H1440 C1446 0.949 . S
C1441 H1436 0.950 . S
C1441 C1443 1.327 . S
C1441 C1447 1.429 . S
C1442 C1434 1.574 . S
C1442 H1437 0.949 . S
C1442 C1448 1.368 . S
C1443 C1427 1.349 . S
C1443 H1435 0.950 . S
C1443 C1441 1.327 . S
C1444 C1432 1.349 . S
C1444 H1438 0.950 . S
C1444 C1445 1.327 . S
C1445 H1439 0.950 . S
C1445 C1444 1.327 . S
C1445 C1449 1.429 . S
C1446 C1429 1.574 . S
C1446 H1440 0.949 . S
C1446 C1450 1.368 . S
C1447 C1428 1.429 . S
C1447 C1441 1.429 . S
C1447 C1448 1.523 . S
C1448 C1429 1.368 . S
C1448 C1442 1.368 . S
C1448 C1447 1.523 . S
C1449 C1433 1.429 . S
C1449 C1445 1.429 . S
C1449 C1450 1.523 . S
C1450 C1434 1.368 . S
C1450 C1446 1.368 . S
C1450 C1449 1.523 . S
H1451 C1426 0.950 . S
H1452 C1428 0.950 . S
H1453 C1429 0.949 . S
H1454 C1431 0.950 . S
H1455 C1433 0.950 . S
C1456 C1457 1.349 . S
C1456 C1458 1.327 . S
C1456 H1481 0.950 . S
C1457 C1456 1.349 . S
C1457 C1473 1.349 . S
C1458 C1456 1.327 . S
C1458 C1477 1.429 . S
C1458 H1482 0.950 . S
C1459 C1476 1.574 . S
C1459 C1478 1.368 . S
C1459 H1483 0.949 . S
H1460 C1464 0.949 . S
C1461 C1462 1.349 . S
C1461 C1463 1.327 . S
C1461 H1484 0.950 . S
C1462 C1461 1.349 . S
C1462 C1474 1.349 . S
C1463 C1461 1.327 . S
C1463 C1479 1.429 . S
C1463 H1485 0.950 . S
C1464 H1460 0.949 . S
C1464 C1472 1.574 . S
C1464 C1480 1.368 . S
H1465 C1473 0.950 . S
H1466 C1471 0.950 . S
H1467 C1472 0.949 . S
H1468 C1474 0.950 . S
H1469 C1475 0.950 . S
H1470 C1476 0.949 . S
C1471 H1466 0.950 . S
C1471 C1473 1.327 . S
C1471 C1477 1.429 . S
C1472 C1464 1.574 . S
C1472 H1467 0.949 . S
C1472 C1478 1.368 . S
C1473 C1457 1.349 . S
C1473 H1465 0.950 . S
C1473 C1471 1.327 . S
C1474 C1462 1.349 . S
C1474 H1468 0.950 . S
C1474 C1475 1.327 . S
C1475 H1469 0.950 . S
C1475 C1474 1.327 . S
C1475 C1479 1.429 . S
C1476 C1459 1.574 . S
C1476 H1470 0.949 . S
C1476 C1480 1.368 . S
C1477 C1458 1.429 . S
C1477 C1471 1.429 . S
C1477 C1478 1.523 . S
C1478 C1459 1.368 . S
C1478 C1472 1.368 . S
C1478 C1477 1.523 . S
C1479 C1463 1.429 . S
C1479 C1475 1.429 . S
C1479 C1480 1.523 . S
C1480 C1464 1.368 . S
C1480 C1476 1.368 . S
C1480 C1479 1.523 . S
H1481 C1456 0.950 . S
H1482 C1458 0.950 . S
H1483 C1459 0.949 . S
H1484 C1461 0.950 . S
H1485 C1463 0.950 . S
C1486 C1487 1.349 . S
C1486 C1488 1.327 . S
C1486 H1511 0.950 . S
C1487 C1486 1.349 . S
C1487 C1503 1.349 . S
C1488 C1486 1.327 . S
C1488 C1507 1.429 . S
C1488 H1512 0.950 . S
C1489 C1506 1.574 . S
C1489 C1508 1.368 . S
C1489 H1513 0.949 . S
H1490 C1494 0.949 . S
C1491 C1492 1.349 . S
C1491 C1493 1.327 . S
C1491 H1514 0.950 . S
C1492 C1491 1.349 . S
C1492 C1504 1.349 . S
C1493 C1491 1.327 . S
C1493 C1509 1.429 . S
C1493 H1515 0.950 . S
C1494 H1490 0.949 . S
C1494 C1502 1.574 . S
C1494 C1510 1.368 . S
H1495 C1503 0.950 . S
H1496 C1501 0.950 . S
H1497 C1502 0.949 . S
H1498 C1504 0.950 . S
H1499 C1505 0.950 . S
H1500 C1506 0.949 . S
C1501 H1496 0.950 . S
C1501 C1503 1.327 . S
C1501 C1507 1.429 . S
C1502 C1494 1.574 . S
C1502 H1497 0.949 . S
C1502 C1508 1.368 . S
C1503 C1487 1.349 . S
C1503 H1495 0.950 . S
C1503 C1501 1.327 . S
C1504 C1492 1.349 . S
C1504 H1498 0.950 . S
C1504 C1505 1.327 . S
C1505 H1499 0.950 . S
C1505 C1504 1.327 . S
C1505 C1509 1.429 . S
C1506 C1489 1.574 . S
C1506 H1500 0.949 . S
C1506 C1510 1.368 . S
C1507 C1488 1.429 . S
C1507 C1501 1.429 . S
C1507 C1508 1.523 . S
C1508 C1489 1.368 . S
C1508 C1502 1.368 . S
C1508 C1507 1.523 . S
C1509 C1493 1.429 . S
C1509 C1505 1.429 . S
C1509 C1510 1.523 . S
C1510 C1494 1.368 . S
C1510 C1506 1.368 . S
C1510 C1509 1.523 . S
H1511 C1486 0.950 . S
H1512 C1488 0.950 . S
H1513 C1489 0.949 . S
H1514 C1491 0.950 . S
H1515 C1493 0.950 . S
C1516 C1517 1.349 . S
C1516 C1518 1.327 . S
C1516 H1541 0.950 . S
C1517 C1516 1.349 . S
C1517 C1533 1.349 . S
C1518 C1516 1.327 . S
C1518 C1537 1.429 . S
C1518 H1542 0.950 . S
C1519 C1536 1.574 . S
C1519 C1538 1.368 . S
C1519 H1543 0.949 . S
H1520 C1524 0.949 . S
C1521 C1522 1.349 . S
C1521 C1523 1.327 . S
C1521 H1544 0.950 . S
C1522 C1521 1.349 . S
C1522 C1534 1.349 . S
C1523 C1521 1.327 . S
C1523 C1539 1.429 . S
C1523 H1545 0.950 . S
C1524 H1520 0.949 . S
C1524 C1532 1.574 . S
C1524 C1540 1.368 . S
H1525 C1533 0.950 . S
H1526 C1531 0.950 . S
H1527 C1532 0.949 . S
H1528 C1534 0.950 . S
H1529 C1535 0.950 . S
H1530 C1536 0.949 . S
C1531 H1526 0.950 . S
C1531 C1533 1.327 . S
C1531 C1537 1.429 . S
C1532 C1524 1.574 . S
C1532 H1527 0.949 . S
C1532 C1538 1.368 . S
C1533 C1517 1.349 . S
C1533 H1525 0.950 . S
C1533 C1531 1.327 . S
C1534 C1522 1.349 . S
C1534 H1528 0.950 . S
C1534 C1535 1.327 . S
C1535 H1529 0.950 . S
C1535 C1534 1.327 . S
C1535 C1539 1.429 . S
C1536 C1519 1.574 . S
C1536 H1530 0.949 . S
C1536 C1540 1.368 . S
C1537 C1518 1.429 . S
C1537 C1531 1.429 . S
C1537 C1538 1.523 . S
C1538 C1519 1.368 . S
C1538 C1532 1.368 . S
C1538 C1537 1.523 . S
C1539 C1523 1.429 . S
C1539 C1535 1.429 . S
C1539 C1540 1.523 . S
C1540 C1524 1.368 . S
C1540 C1536 1.368 . S
C1540 C1539 1.523 . S
H1541 C1516 0.950 . S
H1542 C1518 0.950 . S
H1543 C1519 0.949 . S
H1544 C1521 0.950 . S
H1545 C1523 0.950 . S
C1546 C1547 1.349 . S
C1546 C1548 1.327 . S
C1546 H1571 0.950 . S
C1547 C1546 1.349 . S
C1547 C1563 1.349 . S
C1548 C1546 1.327 . S
C1548 C1567 1.429 . S
C1548 H1572 0.950 . S
C1549 C1566 1.574 . S
C1549 C1568 1.368 . S
C1549 H1573 0.949 . S
H1550 C1554 0.949 . S
C1551 C1552 1.349 . S
C1551 C1553 1.327 . S
C1551 H1574 0.950 . S
C1552 C1551 1.349 . S
C1552 C1564 1.349 . S
C1553 C1551 1.327 . S
C1553 C1569 1.429 . S
C1553 H1575 0.950 . S
C1554 H1550 0.949 . S
C1554 C1562 1.574 . S
C1554 C1570 1.368 . S
H1555 C1563 0.950 . S
H1556 C1561 0.950 . S
H1557 C1562 0.949 . S
H1558 C1564 0.950 . S
H1559 C1565 0.950 . S
H1560 C1566 0.949 . S
C1561 H1556 0.950 . S
C1561 C1563 1.327 . S
C1561 C1567 1.429 . S
C1562 C1554 1.574 . S
C1562 H1557 0.949 . S
C1562 C1568 1.368 . S
C1563 C1547 1.349 . S
C1563 H1555 0.950 . S
C1563 C1561 1.327 . S
C1564 C1552 1.349 . S
C1564 H1558 0.950 . S
C1564 C1565 1.327 . S
C1565 H1559 0.950 . S
C1565 C1564 1.327 . S
C1565 C1569 1.429 . S
C1566 C1549 1.574 . S
C1566 H1560 0.949 . S
C1566 C1570 1.368 . S
C1567 C1548 1.429 . S
C1567 C1561 1.429 . S
C1567 C1568 1.523 . S
C1568 C1549 1.368 . S
C1568 C1562 1.368 . S
C1568 C1567 1.523 . S
C1569 C1553 1.429 . S
C1569 C1565 1.429 . S
C1569 C1570 1.523 . S
C1570 C1554 1.368 . S
C1570 C1566 1.368 . S
C1570 C1569 1.523 . S
H1571 C1546 0.950 . S
H1572 C1548 0.950 . S
H1573 C1549 0.949 . S
H1574 C1551 0.950 . S
H1575 C1553 0.950 . S
C1576 C1577 1.349 . S
C1576 C1578 1.327 . S
C1576 H1601 0.950 . S
C1577 C1576 1.349 . S
C1577 C1593 1.349 . S
C1578 C1576 1.327 . S
C1578 C1597 1.429 . S
C1578 H1602 0.950 . S
C1579 C1596 1.574 . S
C1579 C1598 1.368 . S
C1579 H1603 0.949 . S
H1580 C1584 0.949 . S
C1581 C1582 1.349 . S
C1581 C1583 1.327 . S
C1581 H1604 0.950 . S
C1582 C1581 1.349 . S
C1582 C1594 1.349 . S
C1583 C1581 1.327 . S
C1583 C1599 1.429 . S
C1583 H1605 0.950 . S
C1584 H1580 0.949 . S
C1584 C1592 1.574 . S
C1584 C1600 1.368 . S
H1585 C1593 0.950 . S
H1586 C1591 0.950 . S
H1587 C1592 0.949 . S
H1588 C1594 0.950 . S
H1589 C1595 0.950 . S
H1590 C1596 0.949 . S
C1591 H1586 0.950 . S
C1591 C1593 1.327 . S
C1591 C1597 1.429 . S
C1592 C1584 1.574 . S
C1592 H1587 0.949 . S
C1592 C1598 1.368 . S
C1593 C1577 1.349 . S
C1593 H1585 0.950 . S
C1593 C1591 1.327 . S
C1594 C1582 1.349 . S
C1594 H1588 0.950 . S
C1594 C1595 1.327 . S
C1595 H1589 0.950 . S
C1595 C1594 1.327 . S
C1595 C1599 1.429 . S
C1596 C1579 1.574 . S
C1596 H1590 0.949 . S
C1596 C1600 1.368 . S
C1597 C1578 1.429 . S
C1597 C1591 1.429 . S
C1597 C1598 1.523 . S
C1598 C1579 1.368 . S
C1598 C1592 1.368 . S
C1598 C1597 1.523 . S
C1599 C1583 1.429 . S
C1599 C1595 1.429 . S
C1599 C1600 1.523 . S
C1600 C1584 1.368 . S
C1600 C1596 1.368 . S
C1600 C1599 1.523 . S
H1601 C1576 0.950 . S
H1602 C1578 0.950 . S
H1603 C1579 0.949 . S
H1604 C1581 0.950 . S
H1605 C1583 0.950 . S
C1606 C1607 1.349 . S
C1606 C1608 1.327 . S
C1606 H1631 0.950 . S
C1607 C1606 1.349 . S
C1607 C1623 1.349 . S
C1608 C1606 1.327 . S
C1608 C1627 1.429 . S
C1608 H1632 0.950 . S
C1609 C1626 1.574 . S
C1609 C1628 1.368 . S
C1609 H1633 0.949 . S
H1610 C1614 0.949 . S
C1611 C1612 1.349 . S
C1611 C1613 1.327 . S
C1611 H1634 0.950 . S
C1612 C1611 1.349 . S
C1612 C1624 1.349 . S
C1613 C1611 1.327 . S
C1613 C1629 1.429 . S
C1613 H1635 0.950 . S
C1614 H1610 0.949 . S
C1614 C1622 1.574 . S
C1614 C1630 1.368 . S
H1615 C1623 0.950 . S
H1616 C1621 0.950 . S
H1617 C1622 0.949 . S
H1618 C1624 0.950 . S
H1619 C1625 0.950 . S
H1620 C1626 0.949 . S
C1621 H1616 0.950 . S
C1621 C1623 1.327 . S
C1621 C1627 1.429 . S
C1622 C1614 1.574 . S
C1622 H1617 0.949 . S
C1622 C1628 1.368 . S
C1623 C1607 1.349 . S
C1623 H1615 0.950 . S
C1623 C1621 1.327 . S
C1624 C1612 1.349 . S
C1624 H1618 0.950 . S
C1624 C1625 1.327 . S
C1625 H1619 0.950 . S
C1625 C1624 1.327 . S
C1625 C1629 1.429 . S
C1626 C1609 1.574 . S
C1626 H1620 0.949 . S
C1626 C1630 1.368 . S
C1627 C1608 1.429 . S
C1627 C1621 1.429 . S
C1627 C1628 1.523 . S
C1628 C1609 1.368 . S
C1628 C1622 1.368 . S
C1628 C1627 1.523 . S
C1629 C1613 1.429 . S
C1629 C1625 1.429 . S
C1629 C1630 1.523 . S
C1630 C1614 1.368 . S
C1630 C1626 1.368 . S
C1630 C1629 1.523 . S
H1631 C1606 0.950 . S
H1632 C1608 0.950 . S
H1633 C1609 0.949 . S
H1634 C1611 0.950 . S
H1635 C1613 0.950 . S
C1636 C1637 1.349 . S
C1636 C1638 1.327 . S
C1636 H1661 0.950 . S
C1637 C1636 1.349 . S
C1637 C1653 1.349 . S
C1638 C1636 1.327 . S
C1638 C1657 1.429 . S
C1638 H1662 0.950 . S
C1639 C1656 1.574 . S
C1639 C1658 1.368 . S
C1639 H1663 0.949 . S
H1640 C1644 0.949 . S
C1641 C1642 1.349 . S
C1641 C1643 1.327 . S
C1641 H1664 0.950 . S
C1642 C1641 1.349 . S
C1642 C1654 1.349 . S
C1643 C1641 1.327 . S
C1643 C1659 1.429 . S
C1643 H1665 0.950 . S
C1644 H1640 0.949 . S
C1644 C1652 1.574 . S
C1644 C1660 1.368 . S
H1645 C1653 0.950 . S
H1646 C1651 0.950 . S
H1647 C1652 0.949 . S
H1648 C1654 0.950 . S
H1649 C1655 0.950 . S
H1650 C1656 0.949 . S
C1651 H1646 0.950 . S
C1651 C1653 1.327 . S
C1651 C1657 1.429 . S
C1652 C1644 1.574 . S
C1652 H1647 0.949 . S
C1652 C1658 1.368 . S
C1653 C1637 1.349 . S
C1653 H1645 0.950 . S
C1653 C1651 1.327 . S
C1654 C1642 1.349 . S
C1654 H1648 0.950 . S
C1654 C1655 1.327 . S
C1655 H1649 0.950 . S
C1655 C1654 1.327 . S
C1655 C1659 1.429 . S
C1656 C1639 1.574 . S
C1656 H1650 0.949 . S
C1656 C1660 1.368 . S
C1657 C1638 1.429 . S
C1657 C1651 1.429 . S
C1657 C1658 1.523 . S
C1658 C1639 1.368 . S
C1658 C1652 1.368 . S
C1658 C1657 1.523 . S
C1659 C1643 1.429 . S
C1659 C1655 1.429 . S
C1659 C1660 1.523 . S
C1660 C1644 1.368 . S
C1660 C1656 1.368 . S
C1660 C1659 1.523 . S
H1661 C1636 0.950 . S
H1662 C1638 0.950 . S
H1663 C1639 0.949 . S
H1664 C1641 0.950 . S
H1665 C1643 0.950 . S
C1666 C1667 1.349 . S
C1666 C1668 1.327 . S
C1666 H1691 0.950 . S
C1667 C1666 1.349 . S
C1667 C1683 1.349 . S
C1668 C1666 1.327 . S
C1668 C1687 1.429 . S
C1668 H1692 0.950 . S
C1669 C1686 1.574 . S
C1669 C1688 1.368 . S
C1669 H1693 0.949 . S
H1670 C1674 0.949 . S
C1671 C1672 1.349 . S
C1671 C1673 1.327 . S
C1671 H1694 0.950 . S
C1672 C1671 1.349 . S
C1672 C1684 1.349 . S
C1673 C1671 1.327 . S
C1673 C1689 1.429 . S
C1673 H1695 0.950 . S
C1674 H1670 0.949 . S
C1674 C1682 1.574 . S
C1674 C1690 1.368 . S
H1675 C1683 0.950 . S
H1676 C1681 0.950 . S
H1677 C1682 0.949 . S
H1678 C1684 0.950 . S
H1679 C1685 0.950 . S
H1680 C1686 0.949 . S
C1681 H1676 0.950 . S
C1681 C1683 1.327 . S
C1681 C1687 1.429 . S
C1682 C1674 1.574 . S
C1682 H1677 0.949 . S
C1682 C1688 1.368 . S
C1683 C1667 1.349 . S
C1683 H1675 0.950 . S
C1683 C1681 1.327 . S
C1684 C1672 1.349 . S
C1684 H1678 0.950 . S
C1684 C1685 1.327 . S
C1685 H1679 0.950 . S
C1685 C1684 1.327 . S
C1685 C1689 1.429 . S
C1686 C1669 1.574 . S
C1686 H1680 0.949 . S
C1686 C1690 1.368 . S
C1687 C1668 1.429 . S
C1687 C1681 1.429 . S
C1687 C1688 1.523 . S
C1688 C1669 1.368 . S
C1688 C1682 1.368 . S
C1688 C1687 1.523 . S
C1689 C1673 1.429 . S
C1689 C1685 1.429 . S
C1689 C1690 1.523 . S
C1690 C1674 1.368 . S
C1690 C1686 1.368 . S
C1690 C1689 1.523 . S
H1691 C1666 0.950 . S
H1692 C1668 0.950 . S
H1693 C1669 0.949 . S
H1694 C1671 0.950 . S
H1695 C1673 0.950 . S
C1696 C1697 1.349 . S
C1696 C1698 1.327 . S
C1696 H1721 0.950 . S
C1697 C1696 1.349 . S
C1697 C1713 1.349 . S
C1698 C1696 1.327 . S
C1698 C1717 1.429 . S
C1698 H1722 0.950 . S
C1699 C1716 1.574 . S
C1699 C1718 1.368 . S
C1699 H1723 0.949 . S
H1700 C1704 0.949 . S
C1701 C1702 1.349 . S
C1701 C1703 1.327 . S
C1701 H1724 0.950 . S
C1702 C1701 1.349 . S
C1702 C1714 1.349 . S
C1703 C1701 1.327 . S
C1703 C1719 1.429 . S
C1703 H1725 0.950 . S
C1704 H1700 0.949 . S
C1704 C1712 1.574 . S
C1704 C1720 1.368 . S
H1705 C1713 0.950 . S
H1706 C1711 0.950 . S
H1707 C1712 0.949 . S
H1708 C1714 0.950 . S
H1709 C1715 0.950 . S
H1710 C1716 0.949 . S
C1711 H1706 0.950 . S
C1711 C1713 1.327 . S
C1711 C1717 1.429 . S
C1712 C1704 1.574 . S
C1712 H1707 0.949 . S
C1712 C1718 1.368 . S
C1713 C1697 1.349 . S
C1713 H1705 0.950 . S
C1713 C1711 1.327 . S
C1714 C1702 1.349 . S
C1714 H1708 0.950 . S
C1714 C1715 1.327 . S
C1715 H1709 0.950 . S
C1715 C1714 1.327 . S
C1715 C1719 1.429 . S
C1716 C1699 1.574 . S
C1716 H1710 0.949 . S
C1716 C1720 1.368 . S
C1717 C1698 1.429 . S
C1717 C1711 1.429 . S
C1717 C1718 1.523 . S
C1718 C1699 1.368 . S
C1718 C1712 1.368 . S
C1718 C1717 1.523 . S
C1719 C1703 1.429 . S
C1719 C1715 1.429 . S
C1719 C1720 1.523 . S
C1720 C1704 1.368 . S
C1720 C1716 1.368 . S
C1720 C1719 1.523 . S
H1721 C1696 0.950 . S
H1722 C1698 0.950 . S
H1723 C1699 0.949 . S
H1724 C1701 0.950 . S
H1725 C1703 0.950 . S
C1726 C1727 1.349 . S
C1726 C1728 1.327 . S
C1726 H1751 0.950 . S
C1727 C1726 1.349 . S
C1727 C1743 1.349 . S
C1728 C1726 1.327 . S
C1728 C1747 1.429 . S
C1728 H1752 0.950 . S
C1729 C1746 1.574 . S
C1729 C1748 1.368 . S
C1729 H1753 0.949 . S
H1730 C1734 0.949 . S
C1731 C1732 1.349 . S
C1731 C1733 1.327 . S
C1731 H1754 0.950 . S
C1732 C1731 1.349 . S
C1732 C1744 1.349 . S
C1733 C1731 1.327 . S
C1733 C1749 1.429 . S
C1733 H1755 0.950 . S
C1734 H1730 0.949 . S
C1734 C1742 1.574 . S
C1734 C1750 1.368 . S
H1735 C1743 0.950 . S
H1736 C1741 0.950 . S
H1737 C1742 0.949 . S
H1738 C1744 0.950 . S
H1739 C1745 0.950 . S
H1740 C1746 0.949 . S
C1741 H1736 0.950 . S
C1741 C1743 1.327 . S
C1741 C1747 1.429 . S
C1742 C1734 1.574 . S
C1742 H1737 0.949 . S
C1742 C1748 1.368 . S
C1743 C1727 1.349 . S
C1743 H1735 0.950 . S
C1743 C1741 1.327 . S
C1744 C1732 1.349 . S
C1744 H1738 0.950 . S
C1744 C1745 1.327 . S
C1745 H1739 0.950 . S
C1745 C1744 1.327 . S
C1745 C1749 1.429 . S
C1746 C1729 1.574 . S
C1746 H1740 0.949 . S
C1746 C1750 1.368 . S
C1747 C1728 1.429 . S
C1747 C1741 1.429 . S
C1747 C1748 1.523 . S
C1748 C1729 1.368 . S
C1748 C1742 1.368 . S
C1748 C1747 1.523 . S
C1749 C1733 1.429 . S
C1749 C1745 1.429 . S
C1749 C1750 1.523 . S
C1750 C1734 1.368 . S
C1750 C1746 1.368 . S
C1750 C1749 1.523 . S
H1751 C1726 0.950 . S
H1752 C1728 0.950 . S
H1753 C1729 0.949 . S
H1754 C1731 0.950 . S
H1755 C1733 0.950 . S
C1756 C1757 1.349 . S
C1756 C1758 1.327 . S
C1756 H1781 0.950 . S
C1757 C1756 1.349 . S
C1757 C1773 1.349 . S
C1758 C1756 1.327 . S
C1758 C1777 1.429 . S
C1758 H1782 0.950 . S
C1759 C1776 1.574 . S
C1759 C1778 1.368 . S
C1759 H1783 0.949 . S
H1760 C1764 0.949 . S
C1761 C1762 1.349 . S
C1761 C1763 1.327 . S
C1761 H1784 0.950 . S
C1762 C1761 1.349 . S
C1762 C1774 1.349 . S
C1763 C1761 1.327 . S
C1763 C1779 1.429 . S
C1763 H1785 0.950 . S
C1764 H1760 0.949 . S
C1764 C1772 1.574 . S
C1764 C1780 1.368 . S
H1765 C1773 0.950 . S
H1766 C1771 0.950 . S
H1767 C1772 0.949 . S
H1768 C1774 0.950 . S
H1769 C1775 0.950 . S
H1770 C1776 0.949 . S
C1771 H1766 0.950 . S
C1771 C1773 1.327 . S
C1771 C1777 1.429 . S
C1772 C1764 1.574 . S
C1772 H1767 0.949 . S
C1772 C1778 1.368 . S
C1773 C1757 1.349 . S
C1773 H1765 0.950 . S
C1773 C1771 1.327 . S
C1774 C1762 1.349 . S
C1774 H1768 0.950 . S
C1774 C1775 1.327 . S
C1775 H1769 0.950 . S
C1775 C1774 1.327 . S
C1775 C1779 1.429 . S
C1776 C1759 1.574 . S
C1776 H1770 0.949 . S
C1776 C1780 1.368 . S
C1777 C1758 1.429 . S
C1777 C1771 1.429 . S
C1777 C1778 1.523 . S
C1778 C1759 1.368 . S
C1778 C1772 1.368 . S
C1778 C1777 1.523 . S
C1779 C1763 1.429 . S
C1779 C1775 1.429 . S
C1779 C1780 1.523 . S
C1780 C1764 1.368 . S
C1780 C1776 1.368 . S
C1780 C1779 1.523 . S
H1781 C1756 0.950 . S
H1782 C1758 0.950 . S
H1783 C1759 0.949 . S
H1784 C1761 0.950 . S
H1785 C1763 0.950 . S
C1786 C1787 1.349 . S
C1786 C1788 1.327 . S
C1786 H1811 0.950 . S
C1787 C1786 1.349 . S
C1787 C1803 1.349 . S
C1788 C1786 1.327 . S
C1788 C1807 1.429 . S
C1788 H1812 0.950 . S
C1789 C1806 1.574 . S
C1789 C1808 1.368 . S
C1789 H1813 0.949 . S
H1790 C1794 0.949 . S
C1791 C1792 1.349 . S
C1791 C1793 1.327 . S
C1791 H1814 0.950 . S
C1792 C1791 1.349 . S
C1792 C1804 1.349 . S
C1793 C1791 1.327 . S
C1793 C1809 1.429 . S
C1793 H1815 0.950 . S
C1794 H1790 0.949 . S
C1794 C1802 1.574 . S
C1794 C1810 1.368 . S
H1795 C1803 0.950 . S
H1796 C1801 0.950 . S
H1797 C1802 0.949 . S
H1798 C1804 0.950 . S
H1799 C1805 0.950 . S
H1800 C1806 0.949 . S
C1801 H1796 0.950 . S
C1801 C1803 1.327 . S
C1801 C1807 1.429 . S
C1802 C1794 1.574 . S
C1802 H1797 0.949 . S
C1802 C1808 1.368 . S
C1803 C1787 1.349 . S
C1803 H1795 0.950 . S
C1803 C1801 1.327 . S
C1804 C1792 1.349 . S
C1804 H1798 0.950 . S
C1804 C1805 1.327 . S
C1805 H1799 0.950 . S
C1805 C1804 1.327 . S
C1805 C1809 1.429 . S
C1806 C1789 1.574 . S
C1806 H1800 0.949 . S
C1806 C1810 1.368 . S
C1807 C1788 1.429 . S
C1807 C1801 1.429 . S
C1807 C1808 1.523 . S
C1808 C1789 1.368 . S
C1808 C1802 1.368 . S
C1808 C1807 1.523 . S
C1809 C1793 1.429 . S
C1809 C1805 1.429 . S
C1809 C1810 1.523 . S
C1810 C1794 1.368 . S
C1810 C1806 1.368 . S
C1810 C1809 1.523 . S
H1811 C1786 0.950 . S
H1812 C1788 0.950 . S
H1813 C1789 0.949 . S
H1814 C1791 0.950 . S
H1815 C1793 0.950 . S
C382 C201 1.190 . S
C377 C17 1.202 . S
C412 C206 1.393 . S
C407 C44 1.320 . S
C442 C207 1.221 . S
C437 C63 1.234 . S
C467 C87 1.217 . S
C472 C211 1.191 . S
C497 C110 1.191 . S
C502 C214 1.167 . S
C532 C215 1.239 . S
C527 C131 1.249 . S
C557 C159 1.293 . S
C562 C192 1.366 . S
C587 C177 1.218 . S
C592 C208 1.208 . S
C622 C246 1.248 . S
C617 C20 1.200 . S
C647 C42 1.299 . S
C652 C272 1.289 . S
C682 C224 1.283 . S
C677 C66 1.226 . S
C712 C279 1.122 . S
C707 C86 1.151 . S
C737 C109 1.150 . S
C742 C233 1.124 . S
C772 C275 1.288 . S
C767 C136 1.240 . S
C797 C157 1.298 . S
C802 C239 1.290 . S
C827 C182 1.213 . S
C832 C270 1.251 . S
C857 C18 1.236 . S
C862 C278 1.198 . S
C887 C112 1.129 . S
C892 C265 1.167 . S
C922 C243 1.189 . S
C917 C134 1.202 . S
C952 C271 1.241 . S
C947 C154 1.280 . S
C977 C180 1.213 . S
C982 C238 1.197 . S
C1007 C64 1.224 . S
C1012 C256 1.188 . S
C1042 C247 1.197 . S
C1037 C89 1.153 . S
C1067 C39 1.306 . S
C1072 C240 1.271 . S
C1097 C178 1.170 . S
C1102 C302 1.142 . S
C1127 C113 1.289 . S
C1132 C297 1.317 . S
C1162 C311 1.167 . S
C1157 C132 1.201 . S
C1192 C288 1.149 . S
C1187 C156 1.186 . S
C1217 C41 1.160 . S
C1222 C304 1.132 . S
C1252 C303 1.185 . S
C1247 C62 1.217 . S
C1277 C90 1.262 . S
C1282 C307 1.310 . S
C1307 C16 1.186 . S
C1312 C310 1.159 . S
C1337 C181 1.203 . S
C1342 C336 1.282 . S
C1372 C352 1.311 . S
C1367 C111 1.327 . S
C1397 C135 1.230 . S
C1402 C334 1.325 . S
C1427 C155 1.180 . S
C1432 C367 1.145 . S
C1462 C343 1.138 . S
C1457 C40 1.152 . S
C1487 C67 1.268 . S
C1492 C361 1.296 . S
C1522 C339 1.298 . S
C1517 C88 1.300 . S
C1552 C374 1.273 . S
C1547 C21 1.242 . S
C1582 C366 1.231 . S
C1577 C179 1.266 . S
C1607 C43 1.157 . S
C1612 C371 1.217 . S
C1637 C65 1.202 . S
C1642 C342 1.199 . S
C1672 C375 1.277 . S
C1667 C85 1.311 . S
C1697 C19 1.214 . S
C1702 C329 1.213 . S
C1727 C133 1.254 . S
C1732 C368 1.224 . S
C1762 C320 1.235 . S
C1757 C158 1.155 . S
C1792 C335 1.303 . S
C1787 C108 1.310 . S
