# Generated by pormake.
# Topology nia, (6,6)-cn, num edge types: 1
# Building blocks:
#     Node 0, Type 0, BuildingBlock: BETDAH_clean_sbu_0, # of connection points: 6
#     Node 1, Type 0, BuildingBlock: BETDAH_clean_sbu_0, # of connection points: 6
#     Node 2, Type 1, BuildingBlock: MIDCAF_clean_sbu_0, # of connection points: 6
#     Node 3, Type 1, BuildingBlock: MIDCAF_clean_sbu_0, # of connection points: 6
#     Edge 4, Type (0, 1), BuildingBlock: EZIPEK_clean_linker_0, # of connection points: 2
#     Edge 5, Type (0, 1), BuildingBlock: EZIPEK_clean_linker_0, # of connection points: 2
#     Edge 6, Type (0, 1), BuildingBlock: EZIPEK_clean_linker_0, # of connection points: 2
#     Edge 7, Type (0, 1), BuildingBlock: EZIPEK_clean_linker_0, # of connection points: 2
#     Edge 8, Type (0, 1), BuildingBlock: EZIPEK_clean_linker_0, # of connection points: 2
#     Edge 9, Type (0, 1), BuildingBlock: EZIPEK_clean_linker_0, # of connection points: 2
#     Edge 10, Type (0, 1), BuildingBlock: EZIPEK_clean_linker_0, # of connection points: 2
#     Edge 11, Type (0, 1), BuildingBlock: EZIPEK_clean_linker_0, # of connection points: 2
#     Edge 12, Type (0, 1), BuildingBlock: EZIPEK_clean_linker_0, # of connection points: 2
#     Edge 13, Type (0, 1), BuildingBlock: EZIPEK_clean_linker_0, # of connection points: 2
#     Edge 14, Type (0, 1), BuildingBlock: EZIPEK_clean_linker_0, # of connection points: 2
#     Edge 15, Type (0, 1), BuildingBlock: EZIPEK_clean_linker_0, # of connection points: 2
# Relax obj value: 0.385
# Max RMSD: 0.284
# Mean RMSD: 0.268
data_MOF--net-nia--node1-BETDAH_clean_sbu_0--node2-MIDCAF_clean_sbu_0--edge1-EZIPEK_clean_linker_0
_symmetry_space_group_name_H-M    P1
_symmetry_Int_Tables_number       1
_symmetry_cell_setting            triclinic
loop_
_symmetry_equiv_pos_as_xyz
'x, y, z'
_cell_length_a     19.069324
_cell_length_b     22.321799
_cell_length_c     25.97943
_cell_angle_alpha  62.639239
_cell_angle_beta   105.55794
_cell_angle_gamma 129.2524
loop_
_atom_site_label
_atom_site_type_symbol
_atom_site_fract_x
_atom_site_fract_y
_atom_site_fract_z
_atom_type_partial_charge
Ho0 Ho 0.09889 0.03058 0.08537 0.0
Ho1 Ho 0.97229 0.9322 1.02006 0.0
C2 C 0.97646 0.08418 0.99677 0.0
C3 C 0.22315 0.14182 0.12755 0.0
C4 C 0.22098 0.18067 0.15904 0.0
C5 C 0.28929 0.26585 0.14737 0.0
C6 C 0.28611 0.3052 0.17455 0.0
C7 C 0.21464 0.25974 0.21373 0.0
C8 C 0.1469 0.174 0.22649 0.0
C9 C 0.14976 0.13459 0.19893 0.0
C10 C 0.93078 0.90852 0.13977 0.0
C11 C 0.0854 0.87116 0.11305 0.0
C12 C 0.84983 0.82669 0.97335 0.0
C13 C 0.85327 0.79228 0.93854 0.0
C14 C 0.80166 0.70514 0.95727 0.0
C15 C 0.8079 0.67076 0.92723 0.0
C16 C 0.8657 0.72304 0.87804 0.0
C17 C 0.91655 0.81029 0.85833 0.0
C18 C 0.91017 0.84491 0.88844 0.0
C19 C 0.14089 0.05458 0.96653 0.0
O20 O 0.06008 0.11459 1.0152 0.0
O21 O 0.92024 0.00368 1.00701 0.0
O22 O 0.18711 0.06205 0.15504 0.0
O23 O 0.20035 0.16114 0.0734 0.0
O24 O 1.00669 0.93343 0.16569 0.0
O25 O 0.94833 0.9529 0.0866 0.0
O26 O 1.00564 0.84481 0.08903 0.0
O27 O 0.14364 0.95006 0.1073 0.0
O28 O 0.88517 0.90647 0.9489 0.0
O29 O 0.8714 0.80349 1.02761 0.0
O30 O 0.06555 0.03352 0.94039 0.0
O31 O 0.12331 0.00873 1.0196 0.0
H32 H 0.34432 0.30216 0.11662 0.0
H33 H 0.33883 0.37161 0.16443 0.0
H34 H 0.09151 0.13841 0.25674 0.0
H35 H 0.09604 0.06861 0.2083 0.0
H36 H 0.75752 0.66372 0.99563 0.0
H37 H 0.76808 0.60307 0.94262 0.0
H38 H 0.96107 0.85106 0.82023 0.0
H39 H 0.95046 0.91259 0.87291 0.0
Ho40 Ho 0.98915 0.01205 0.56346 0.0
Ho41 Ho 0.09214 0.96529 0.53794 0.0
C42 C 0.91134 0.93286 0.46681 0.0
C43 C 0.94527 0.09483 0.57329 0.0
C44 C 0.94369 0.11983 0.61598 0.0
C45 C 0.93883 0.18699 0.59568 0.0
C46 C 0.9221 0.20421 0.63434 0.0
C47 C 0.91001 0.15444 0.69383 0.0
C48 C 0.92118 0.09072 0.7149 0.0
C49 C 0.93783 0.0733 0.67597 0.0
C50 C 0.92058 0.84781 0.62251 0.0
C51 C 0.16039 0.0271 0.64019 0.0
C52 C 0.14632 0.8959 0.52002 0.0
C53 C 0.17257 0.89809 0.47042 0.0
C54 C 0.13204 0.82215 0.46581 0.0
C55 C 0.16835 0.82007 0.42718 0.0
C56 C 0.24603 0.89383 0.39307 0.0
C57 C 0.28143 0.97104 0.39342 0.0
C58 C 0.24464 0.97326 0.43181 0.0
C59 C 0.15665 0.12915 0.48002 0.0
O60 O 0.90917 0.97548 0.4882 0.0
O61 O 0.97591 0.92301 0.47924 0.0
O62 O 0.02463 0.13035 0.55352 0.0
O63 O 0.88891 0.01481 0.58344 0.0
O64 O 0.87521 0.87721 0.61166 0.0
O65 O 1.00346 0.90876 0.61036 0.0
O66 O 0.14255 0.96928 0.62574 0.0
O67 O 0.1144 0.05902 0.61749 0.0
O68 O 0.06056 0.86054 0.52619 0.0
O69 O 0.20088 0.96361 0.53141 0.0
O70 O 0.20632 0.10305 0.49584 0.0
O71 O 0.07447 0.06628 0.49029 0.0
H72 H 0.94342 0.22353 0.54959 0.0
H73 H 0.91356 0.25349 0.61751 0.0
H74 H 0.91179 0.05171 0.76076 0.0
H75 H 0.94184 0.02133 0.69233 0.0
H76 H 0.07625 0.76363 0.4949 0.0
H77 H 0.14097 0.7599 0.42778 0.0
H78 H 0.34205 0.02831 0.36782 0.0
H79 H 0.27656 0.03297 0.43394 0.0
Zn80 Zn 0.40695 0.71126 0.18007 0.0
Zn81 Zn 0.3965 0.63066 0.39776 0.0
Zn82 Zn 0.40492 0.67522 0.29006 0.0
C83 C 0.58051 0.74373 0.36413 0.0
C84 C 0.30063 0.48069 0.39664 0.0
O85 O 0.31609 0.71809 0.24732 0.0
O86 O 0.32682 0.74737 0.15561 0.0
C87 C 0.58508 0.78619 0.20749 0.0
O88 O 0.54692 0.74821 0.31358 0.0
O89 O 0.52949 0.6903 0.40912 0.0
O90 O 0.31554 0.50636 0.43535 0.0
O91 O 0.32961 0.53428 0.34396 0.0
O92 O 0.53991 0.78801 0.16198 0.0
O93 O 0.54586 0.74838 0.2573 0.0
O94 O 0.33102 0.55557 0.28485 0.0
O95 O 0.34442 0.59265 0.19103 0.0
C96 C 0.31708 0.53658 0.24161 0.0
O97 O 0.36523 0.74548 0.29676 0.0
O98 O 0.3617 0.69966 0.39189 0.0
C99 C 0.28753 0.73541 0.19518 0.0
C100 C 0.3625 0.75168 0.34292 0.0
Zn101 Zn 0.67947 0.27191 0.92921 0.0
Zn102 Zn 0.68354 0.34593 0.70091 0.0
Zn103 Zn 0.67098 0.29994 0.81416 0.0
C104 C 0.76514 0.49358 0.70748 0.0
C105 C 0.49643 0.22193 0.73963 0.0
O106 O 0.7491 0.24648 0.86279 0.0
O107 O 0.74592 0.22102 0.95554 0.0
C108 C 0.76563 0.44407 0.86111 0.0
O109 O 0.74147 0.43973 0.76055 0.0
O110 O 0.74734 0.46922 0.66744 0.0
O111 O 0.5495 0.27101 0.69558 0.0
O112 O 0.52791 0.2225 0.79007 0.0
O113 O 0.75106 0.39371 0.91352 0.0
O114 O 0.74021 0.4186 0.8197 0.0
O115 O 0.52862 0.2218 0.84616 0.0
O116 O 0.54479 0.20477 0.9386 0.0
C117 C 0.49454 0.19409 0.89567 0.0
O118 O 0.7386 0.25443 0.80445 0.0
O119 O 0.7495 0.29992 0.70902 0.0
C120 C 0.77203 0.22106 0.91565 0.0
C121 C 0.76323 0.26108 0.75943 0.0
C122 C 0.14558 0.80767 0.09804 0.0
C123 C 0.11691 0.81737 0.13679 0.0
C124 C 0.16764 0.74004 0.21885 0.0
C125 C 0.21219 0.7461 0.17868 0.0
N126 N 0.18393 0.72923 0.0881 0.0
N127 N 0.08681 0.78239 0.23452 0.0
C128 C 0.18383 0.7633 0.12033 0.0
C129 C 0.12304 0.77961 0.19757 0.0
N130 N 0.13871 0.84269 0.03961 0.0
N131 N 0.16141 0.69099 0.27619 0.0
H132 H 0.05048 0.80741 0.21991 0.0
H133 H 0.09527 0.76323 0.27909 0.0
H134 H 0.17933 0.65046 0.29104 0.0
H135 H 0.12829 0.68169 0.30799 0.0
H136 H 0.16952 0.8469 1.00925 0.0
H137 H 0.10682 0.87196 1.02148 0.0
H138 H 0.15757 0.7346 0.04683 0.0
H139 H 0.1959 0.68407 0.10616 0.0
C140 C 0.32046 0.07542 0.66935 0.0
C141 C 0.24066 0.06407 0.6763 0.0
C142 C 0.32581 0.1479 0.73664 0.0
C143 C 0.40234 0.15377 0.73174 0.0
N144 N 0.45843 0.09471 0.71287 0.0
N145 N 0.16209 0.06888 0.732 0.0
C146 C 0.3937 0.10631 0.70559 0.0
C147 C 0.24139 0.09366 0.715 0.0
N148 N 0.33205 0.06663 0.62422 0.0
N149 N 0.33435 0.1965 0.75925 0.0
H150 H 0.09909 0.02573 0.7196 0.0
H151 H 0.15852 0.0836 0.76347 0.0
H152 H 0.3953 0.23651 0.77518 0.0
H153 H 0.28275 0.20067 0.75879 0.0
H154 H 0.39255 0.08076 0.61591 0.0
H155 H 0.28845 0.05873 0.58994 0.0
H156 H 0.45172 0.05516 0.69801 0.0
H157 H 0.51337 0.11759 0.73918 0.0
C158 C 0.16537 0.34122 0.21111 0.0
C159 C 0.21237 0.30524 0.23934 0.0
C160 C 0.31391 0.40902 0.28244 0.0
C161 C 0.27162 0.44923 0.25059 0.0
N162 N 0.14016 0.43946 0.20192 0.0
N163 N 0.30449 0.28273 0.31782 0.0
C164 C 0.19108 0.41011 0.22087 0.0
C165 C 0.27697 0.33133 0.28109 0.0
N166 N 0.10072 0.31315 0.17228 0.0
N167 N 0.39295 0.44776 0.30988 0.0
H168 H 0.27768 0.2256 0.31666 0.0
H169 H 0.34573 0.29452 0.35273 0.0
H170 H 0.42399 0.50589 0.31083 0.0
H171 H 0.43127 0.42487 0.32847 0.0
H172 H 0.07195 0.34354 0.14497 0.0
H173 H 0.0784 0.26083 0.16577 0.0
H174 H 0.07681 0.40946 0.18405 0.0
H175 H 0.15773 0.4896 0.20932 0.0
C176 C 0.93181 0.23157 0.7494 0.0
C177 C 0.87339 0.1633 0.73135 0.0
C178 C 0.74175 0.14017 0.75778 0.0
C179 C 0.80063 0.21742 0.7649 0.0
N180 N 0.95107 0.3287 0.77904 0.0
N181 N 0.72202 0.04856 0.72089 0.0
C182 C 0.89529 0.25983 0.76513 0.0
C183 C 0.77789 0.11497 0.7377 0.0
N184 N 0.02318 0.27306 0.74966 0.0
N185 N 0.65147 0.09115 0.77081 0.0
H186 H 0.7459 0.02648 0.70782 0.0
H187 H 0.6523 0.01731 0.71743 0.0
H188 H 0.62544 0.10767 0.78808 0.0
H189 H 0.60467 0.03099 0.77085 0.0
H190 H 0.05529 0.25556 0.73921 0.0
H191 H 0.05529 0.25556 0.73921 0.0
H192 H 0.02146 0.36236 0.77884 0.0
H193 H 0.92616 0.35011 0.79205 0.0
C194 C 0.83646 0.93195 0.16907 0.0
C195 C 0.84808 0.87546 0.16796 0.0
C196 C 0.69138 0.7577 0.20436 0.0
C197 C 0.67873 0.81465 0.20318 0.0
N198 N 0.74231 0.95029 0.19864 0.0
N199 N 0.7958 0.73391 0.19682 0.0
C200 C 0.75258 0.90014 0.19014 0.0
C201 C 0.77838 0.78792 0.18983 0.0
N202 N 0.9047 0.01624 0.14831 0.0
N203 N 0.61901 0.67525 0.21709 0.0
H204 H 0.85861 0.75456 0.18597 0.0
H205 H 0.75111 0.66897 0.21742 0.0
H206 H 0.55555 0.65011 0.23056 0.0
H207 H 0.62016 0.63231 0.21197 0.0
H208 H 0.89742 0.06179 0.14136 0.0
H209 H 0.96848 0.04139 0.1355 0.0
H210 H 0.79526 0.0114 0.19528 0.0
H211 H 0.68142 0.92791 0.21406 0.0
C212 C 0.92593 0.72427 0.68963 0.0
C213 C 0.87944 0.75585 0.64795 0.0
C214 C 0.75001 0.61083 0.65885 0.0
C215 C 0.8031 0.58247 0.69159 0.0
N216 N 0.9453 0.61337 0.7347 0.0
N217 N 0.74858 0.72684 0.58726 0.0
C218 C 0.89223 0.63955 0.70603 0.0
C219 C 0.79143 0.69842 0.63143 0.0
N220 N 0.99849 0.77291 0.71665 0.0
N221 N 0.65906 0.55376 0.65488 0.0
H222 H 0.7771 0.78995 0.56244 0.0
H223 H 0.68897 0.68785 0.56996 0.0
H224 H 0.62609 0.48901 0.67483 0.0
H225 H 0.61486 0.57023 0.6373 0.0
H226 H 0.02978 0.75047 0.751 0.0
H227 H 0.01991 0.83203 0.71003 0.0
H228 H 0.01399 0.65432 0.74102 0.0
H229 H 0.92198 0.55141 0.7487 0.0
C230 C 0.35752 0.86409 0.41016 0.0
C231 C 0.30224 0.8859 0.37073 0.0
C232 C 0.33298 0.86364 0.29784 0.0
C233 C 0.36498 0.82018 0.34288 0.0
N234 N 0.46489 0.83493 0.42311 0.0
N235 N 0.25516 0.92741 0.27291 0.0
C236 C 0.39573 0.83829 0.39336 0.0
C237 C 0.29643 0.8934 0.31271 0.0
N238 N 0.36983 0.86401 0.46453 0.0
N239 N 0.34593 0.88338 0.2416 0.0
H240 H 0.2301 0.95094 0.28315 0.0
H241 H 0.24475 0.93152 0.23037 0.0
H242 H 0.38455 0.8727 0.23042 0.0
H243 H 0.32877 0.91909 0.20623 0.0
H244 H 0.39943 0.83795 0.49733 0.0
H245 H 0.34669 0.88649 0.47783 0.0
H246 H 0.49557 0.85413 0.45763 0.0
H247 H 0.49902 0.82305 0.40821 0.0
C248 C 0.30305 0.17733 0.93461 0.0
C249 C 0.22723 0.09592 0.93735 0.0
C250 C 0.32404 0.08349 0.90226 0.0
C251 C 0.40014 0.16367 0.90155 0.0
N252 N 0.45827 0.29648 0.90052 0.0
N253 N 0.16035 -0.0191 0.90925 0.0
C254 C 0.38825 0.21351 0.91265 0.0
C255 C 0.23601 0.0521 0.91627 0.0
N256 N 0.29384 0.21964 0.95394 0.0
N257 N 0.33648 0.03579 0.89221 0.0
H258 H 0.09552 0.95437 0.92102 0.0
H259 H 0.1609 0.9513 0.88812 0.0
H260 H 0.39945 0.05807 0.88023 0.0
H261 H 0.28591 0.97296 0.89871 0.0
H262 H 0.34831 0.27399 0.96065 0.0
H263 H 0.23116 0.19821 0.96562 0.0
H264 H 0.45213 0.33868 0.9022 0.0
H265 H 0.52087 0.32532 0.8833 0.0
C266 C 0.27122 0.27458 0.48172 0.0
C267 C 0.1931 0.21962 0.45712 0.0
C268 C 0.18215 0.336 0.39307 0.0
C269 C 0.2643 0.39165 0.41451 0.0
N270 N 0.40003 0.41779 0.46691 0.0
N271 N 0.08978 0.20593 0.37817 0.0
C272 C 0.31269 0.36205 0.45509 0.0
C273 C 0.15252 0.2524 0.40971 0.0
N274 N 0.30403 0.24363 0.53226 0.0
N275 N 0.13156 0.36226 0.3577 0.0
H276 H 0.07123 0.14718 0.38645 0.0
H277 H 0.06436 0.22961 0.33991 0.0
H278 H 0.15183 0.42312 0.34423 0.0
H279 H 0.06674 0.32198 0.34533 0.0
H280 H 0.35429 0.28026 0.55505 0.0
H281 H 0.27503 0.18018 0.555 0.0
H282 H 0.44158 0.4 0.49144 0.0
H283 H 0.43436 0.48273 0.44705 0.0
C284 C 0.95843 0.19368 0.98738 0.0
C285 C 0.93978 0.13462 0.96813 0.0
C286 C 0.80964 0.13071 0.91588 0.0
C287 C 0.83256 0.19473 0.93052 0.0
N288 N 0.94505 0.3035 0.96704 0.0
N289 N 0.8674 0.0731 0.89632 0.0
C290 C 0.91227 0.23153 0.96204 0.0
C291 C 0.87187 0.11183 0.92651 0.0
N292 N 0.01522 0.21049 1.03193 0.0
N293 N 0.7262 0.08368 0.89547 0.0
H294 H 0.9162 0.0642 0.89957 0.0
H295 H 0.82205 0.05954 0.86326 0.0
H296 H 0.67677 0.09266 0.88973 0.0
H297 H 0.70354 0.03058 0.88992 0.0
H298 H 0.0219 0.24544 0.05148 0.0
H299 H 0.04955 0.184 0.05315 0.0
H300 H 1.00736 0.3371 0.98491 0.0
H301 H 0.91486 0.33441 0.94771 0.0
C302 C 0.79995 0.93269 0.38742 0.0
C303 C 0.83684 0.89121 0.42938 0.0
C304 C 0.72673 0.7694 0.40197 0.0
C305 C 0.67822 0.80294 0.37183 0.0
N306 N 0.66702 0.91721 0.33483 0.0
N307 N 0.82572 0.76208 0.48047 0.0
C308 C 0.71507 0.88545 0.36333 0.0
C309 C 0.79916 0.80801 0.4369 0.0
N310 N 0.8469 0.01737 0.36938 0.0
N311 N 0.70151 0.69904 0.39827 0.0
H312 H 0.8719 0.78204 0.51152 0.0
H313 H 0.79315 0.69879 0.49069 0.0
H314 H 0.64804 0.67006 0.37283 0.0
H315 H 0.73939 0.67558 0.41484 0.0
H316 H 0.82701 0.05187 0.33523 0.0
H317 H 0.91092 0.05444 0.38413 0.0
H318 H 0.68494 0.97258 0.33382 0.0
H319 H 0.60632 0.88569 0.31482 0.0
C320 C 0.79718 0.64738 0.81374 0.0
C321 C 0.87022 0.68283 0.84868 0.0
C322 C 0.89598 0.58059 0.8682 0.0
C323 C 0.80862 0.53246 0.8474 0.0
N324 N 0.67435 0.51966 0.79931 0.0
N325 N 0.99905 0.69394 0.90247 0.0
C326 C 0.75957 0.56658 0.8182 0.0
C327 C 0.92439 0.65405 0.87252 0.0
N328 N 0.76179 0.68968 0.77883 0.0
N329 N 0.95058 0.55545 0.88394 0.0
H330 H 0.02232 0.74991 0.90386 0.0
H331 H 0.03586 0.67072 0.92694 0.0
H332 H 0.93093 0.50203 0.88031 0.0
H333 H 0.01762 0.59114 0.89545 0.0
H334 H 0.71283 0.67037 0.74853 0.0
H335 H 0.78916 0.74893 0.7763 0.0
H336 H 0.63254 0.53891 0.78333 0.0
H337 H 0.64236 0.4589 0.8031 0.0
loop_
_geom_bond_atom_site_label_1
_geom_bond_atom_site_label_2
_geom_bond_distance
_geom_bond_site_symmetry_2
_ccdc_geom_bond_type
Ho0 C3 2.811 . S
Ho0 O20 2.322 . S
Ho0 O22 2.378 . S
Ho0 O23 2.524 . S
Ho0 O24 2.381 1_445 S
Ho0 O25 2.669 1_445 S
Ho0 O27 2.346 1_545 S
Ho0 O31 2.305 1_554 S
Ho1 C12 2.811 . S
Ho1 O21 2.346 1_565 S
Ho1 O25 2.305 1_556 S
Ho1 O26 2.322 1_656 S
Ho1 O28 2.378 . S
Ho1 O29 2.524 . S
Ho1 O30 2.381 1_665 S
Ho1 O31 2.669 1_665 S
C2 O20 1.259 1_656 S
C2 O21 1.268 . S
C3 Ho0 2.811 . S
C3 C4 1.488 . S
C3 O22 1.215 . S
C3 O23 1.289 . S
C4 C3 1.488 . S
C4 C5 1.348 . S
C4 C9 1.413 . S
C5 C4 1.348 . S
C5 C6 1.442 . S
C5 H32 0.930 . S
C6 C5 1.442 . S
C6 C7 1.381 . S
C6 H33 0.931 . S
C7 C6 1.381 . S
C7 C8 1.321 . S
C8 C7 1.321 . S
C8 C9 1.403 . S
C8 H34 0.934 . S
C9 C4 1.413 . S
C9 C8 1.403 . S
C9 H35 0.930 . S
C10 O24 1.275 . S
C10 O25 1.256 . S
C11 O26 1.259 . S
C11 O27 1.268 . S
C12 Ho1 2.811 . S
C12 C13 1.488 . S
C12 O28 1.215 . S
C12 O29 1.289 . S
C13 C12 1.488 . S
C13 C14 1.348 . S
C13 C18 1.413 . S
C14 C13 1.348 . S
C14 C15 1.442 . S
C14 H36 0.930 1_556 S
C15 C14 1.442 . S
C15 C16 1.381 . S
C15 H37 0.931 1_556 S
C16 C15 1.381 . S
C16 C17 1.321 . S
C17 C16 1.321 . S
C17 C18 1.403 . S
C17 H38 0.934 . S
C18 C13 1.413 . S
C18 C17 1.403 . S
C18 H39 0.930 . S
C19 O30 1.275 . S
C19 O31 1.256 . S
O20 Ho0 2.322 . S
O20 C2 1.259 1_454 S
O21 Ho1 2.346 1_545 S
O21 C2 1.268 . S
O22 Ho0 2.378 . S
O22 C3 1.215 . S
O23 Ho0 2.524 . S
O23 C3 1.289 . S
O24 Ho0 2.381 1_665 S
O24 C10 1.275 . S
O25 Ho0 2.669 1_665 S
O25 Ho1 2.305 1_554 S
O25 C10 1.256 . S
O26 Ho1 2.322 1_454 S
O26 C11 1.259 . S
O27 Ho0 2.346 1_565 S
O27 C11 1.268 . S
O28 Ho1 2.378 . S
O28 C12 1.215 . S
O29 Ho1 2.524 . S
O29 C12 1.289 . S
O30 Ho1 2.381 1_445 S
O30 C19 1.275 . S
O31 Ho0 2.305 1_556 S
O31 Ho1 2.669 1_445 S
O31 C19 1.256 . S
H32 C5 0.930 . S
H33 C6 0.931 . S
H34 C8 0.934 . S
H35 C9 0.930 . S
H36 C14 0.930 1_554 S
H37 C15 0.931 1_554 S
H38 C17 0.934 . S
H39 C18 0.930 . S
Ho40 C43 2.811 1_455 S
Ho40 O60 2.322 1_445 S
Ho40 O62 2.378 1_455 S
Ho40 O63 2.524 1_455 S
Ho40 O64 2.381 1_445 S
Ho40 O65 2.669 1_545 S
Ho40 O67 2.346 . S
Ho40 O71 2.305 . S
Ho41 C52 2.811 . S
Ho41 O61 2.346 1_455 S
Ho41 O65 2.305 . S
Ho41 O66 2.322 1_565 S
Ho41 O68 2.378 1_565 S
Ho41 O69 2.524 . S
Ho41 O70 2.381 1_565 S
Ho41 O71 2.669 1_565 S
C42 O60 1.259 . S
C42 O61 1.268 . S
C43 Ho40 2.811 1_655 S
C43 C44 1.488 . S
C43 O62 1.215 . S
C43 O63 1.289 . S
C44 C43 1.488 . S
C44 C45 1.348 . S
C44 C49 1.413 . S
C45 C44 1.348 . S
C45 C46 1.442 . S
C45 H72 0.930 . S
C46 C45 1.442 . S
C46 C47 1.381 . S
C46 H73 0.931 . S
C47 C46 1.381 . S
C47 C48 1.321 . S
C48 C47 1.321 . S
C48 C49 1.403 . S
C48 H74 0.934 . S
C49 C44 1.413 . S
C49 C48 1.403 . S
C49 H75 0.930 1_545 S
C50 O64 1.275 . S
C50 O65 1.256 1_655 S
C51 O66 1.259 . S
C51 O67 1.268 . S
C52 Ho41 2.811 . S
C52 C53 1.488 . S
C52 O68 1.215 1_565 S
C52 O69 1.289 . S
C53 C52 1.488 . S
C53 C54 1.348 . S
C53 C58 1.413 1_565 S
C54 C53 1.348 . S
C54 C55 1.442 . S
C54 H76 0.930 . S
C55 C54 1.442 . S
C55 C56 1.381 . S
C55 H77 0.931 . S
C56 C55 1.381 . S
C56 C57 1.321 1_565 S
C57 C56 1.321 1_545 S
C57 C58 1.403 . S
C57 H78 0.934 . S
C58 C53 1.413 1_545 S
C58 C57 1.403 . S
C58 H79 0.930 . S
C59 O70 1.275 . S
C59 O71 1.256 . S
O60 Ho40 2.322 1_665 S
O60 C42 1.259 . S
O61 Ho41 2.346 1_655 S
O61 C42 1.268 . S
O62 Ho40 2.378 1_655 S
O62 C43 1.215 . S
O63 Ho40 2.524 1_655 S
O63 C43 1.289 . S
O64 Ho40 2.381 1_665 S
O64 C50 1.275 . S
O65 Ho40 2.669 1_565 S
O65 Ho41 2.305 . S
O65 C50 1.256 1_455 S
O66 Ho41 2.322 1_545 S
O66 C51 1.259 . S
O67 Ho40 2.346 . S
O67 C51 1.268 . S
O68 Ho41 2.378 1_545 S
O68 C52 1.215 1_545 S
O69 Ho41 2.524 . S
O69 C52 1.289 . S
O70 Ho41 2.381 1_545 S
O70 C59 1.275 . S
O71 Ho40 2.305 . S
O71 Ho41 2.669 1_545 S
O71 C59 1.256 . S
H72 C45 0.930 . S
H73 C46 0.931 . S
H74 C48 0.934 . S
H75 C49 0.930 1_565 S
H76 C54 0.930 . S
H77 C55 0.931 . S
H78 C57 0.934 . S
H79 C58 0.930 . S
Zn80 O86 1.920 . S
Zn80 O92 1.898 . S
Zn80 O95 1.905 . S
Zn81 O89 1.905 . S
Zn81 O90 1.898 . S
Zn81 O98 1.920 . S
Zn82 O85 2.080 . S
Zn82 O88 2.114 . S
Zn82 O91 2.120 . S
Zn82 O93 2.120 . S
Zn82 O94 2.114 . S
Zn82 O97 2.080 . S
C83 O88 1.166 . S
C83 O89 1.182 . S
C84 O90 1.167 . S
C84 O91 1.299 . S
O85 Zn82 2.080 . S
O85 C99 1.305 . S
O86 Zn80 1.920 . S
O86 C99 1.234 . S
C87 O92 1.167 . S
C87 O93 1.299 . S
O88 Zn82 2.114 . S
O88 C83 1.166 . S
O89 Zn81 1.905 . S
O89 C83 1.182 . S
O90 Zn81 1.898 . S
O90 C84 1.167 . S
O91 Zn82 2.120 . S
O91 C84 1.299 . S
O92 Zn80 1.898 . S
O92 C87 1.167 . S
O93 Zn82 2.120 . S
O93 C87 1.299 . S
O94 Zn82 2.114 . S
O94 C96 1.166 . S
O95 Zn80 1.905 . S
O95 C96 1.182 . S
C96 O94 1.166 . S
C96 O95 1.182 . S
O97 Zn82 2.080 . S
O97 C100 1.305 . S
O98 Zn81 1.920 . S
O98 C100 1.234 . S
C99 O85 1.305 . S
C99 O86 1.234 . S
C100 O97 1.305 . S
C100 O98 1.234 . S
Zn101 O107 1.920 . S
Zn101 O113 1.898 . S
Zn101 O116 1.905 . S
Zn102 O110 1.905 . S
Zn102 O111 1.898 . S
Zn102 O119 1.920 . S
Zn103 O106 2.080 . S
Zn103 O109 2.114 . S
Zn103 O112 2.120 . S
Zn103 O114 2.120 . S
Zn103 O115 2.114 . S
Zn103 O118 2.080 . S
C104 O109 1.166 . S
C104 O110 1.182 . S
C105 O111 1.167 . S
C105 O112 1.299 . S
O106 Zn103 2.080 . S
O106 C120 1.305 . S
O107 Zn101 1.920 . S
O107 C120 1.234 . S
C108 O113 1.167 . S
C108 O114 1.299 . S
O109 Zn103 2.114 . S
O109 C104 1.166 . S
O110 Zn102 1.905 . S
O110 C104 1.182 . S
O111 Zn102 1.898 . S
O111 C105 1.167 . S
O112 Zn103 2.120 . S
O112 C105 1.299 . S
O113 Zn101 1.898 . S
O113 C108 1.167 . S
O114 Zn103 2.120 . S
O114 C108 1.299 . S
O115 Zn103 2.114 . S
O115 C117 1.166 . S
O116 Zn101 1.905 . S
O116 C117 1.182 . S
C117 O115 1.166 . S
C117 O116 1.182 . S
O118 Zn103 2.080 . S
O118 C121 1.305 . S
O119 Zn102 1.920 . S
O119 C121 1.234 . S
C120 O106 1.305 . S
C120 O107 1.234 . S
C121 O118 1.305 . S
C121 O119 1.234 . S
C122 C123 1.363 . S
C122 C128 1.379 . S
C122 N130 1.356 . S
C123 C122 1.363 . S
C123 C129 1.363 . S
C124 C125 1.363 . S
C124 C129 1.379 . S
C124 N131 1.356 . S
C125 C124 1.363 . S
C125 C128 1.363 . S
N126 C128 1.356 . S
N126 H138 0.984 . S
N126 H139 0.985 . S
N127 C129 1.356 . S
N127 H132 0.984 . S
N127 H133 0.985 . S
C128 C122 1.379 . S
C128 C125 1.363 . S
C128 N126 1.356 . S
C129 C123 1.363 . S
C129 C124 1.379 . S
C129 N127 1.356 . S
N130 C122 1.356 . S
N130 H136 0.984 1_554 S
N130 H137 0.984 . S
N131 C124 1.356 . S
N131 H134 0.984 . S
N131 H135 0.985 . S
H132 N127 0.984 . S
H133 N127 0.985 . S
H134 N131 0.984 . S
H135 N131 0.985 . S
H136 N130 0.984 1_556 S
H137 N130 0.984 . S
H138 N126 0.984 . S
H139 N126 0.985 . S
C140 C141 1.363 . S
C140 C146 1.379 . S
C140 N148 1.356 . S
C141 C140 1.363 . S
C141 C147 1.363 . S
C142 C143 1.363 . S
C142 C147 1.379 . S
C142 N149 1.356 . S
C143 C142 1.363 . S
C143 C146 1.363 . S
N144 C146 1.356 . S
N144 H156 0.984 . S
N144 H157 0.985 . S
N145 C147 1.356 . S
N145 H150 0.984 1_545 S
N145 H151 0.985 1_545 S
C146 C140 1.379 . S
C146 C143 1.363 . S
C146 N144 1.356 . S
C147 C141 1.363 . S
C147 C142 1.379 . S
C147 N145 1.356 . S
N148 C140 1.356 . S
N148 H154 0.984 . S
N148 H155 0.984 . S
N149 C142 1.356 . S
N149 H152 0.984 . S
N149 H153 0.985 . S
H150 N145 0.984 1_565 S
H151 N145 0.985 1_565 S
H152 N149 0.984 . S
H153 N149 0.985 . S
H154 N148 0.984 . S
H155 N148 0.984 . S
H156 N144 0.984 . S
H157 N144 0.985 . S
C158 C159 1.363 . S
C158 C164 1.379 . S
C158 N166 1.356 . S
C159 C158 1.363 . S
C159 C165 1.363 . S
C160 C161 1.363 . S
C160 C165 1.379 . S
C160 N167 1.356 . S
C161 C160 1.363 . S
C161 C164 1.363 . S
N162 C164 1.356 . S
N162 H174 0.984 . S
N162 H175 0.985 . S
N163 C165 1.356 . S
N163 H168 0.984 . S
N163 H169 0.985 . S
C164 C158 1.379 . S
C164 C161 1.363 . S
C164 N162 1.356 . S
C165 C159 1.363 . S
C165 C160 1.379 . S
C165 N163 1.356 . S
N166 C158 1.356 . S
N166 H172 0.984 . S
N166 H173 0.984 . S
N167 C160 1.356 . S
N167 H170 0.984 . S
N167 H171 0.985 . S
H168 N163 0.984 . S
H169 N163 0.985 . S
H170 N167 0.984 . S
H171 N167 0.985 . S
H172 N166 0.984 . S
H173 N166 0.984 . S
H174 N162 0.984 . S
H175 N162 0.985 . S
C176 C177 1.363 . S
C176 C182 1.379 . S
C176 N184 1.356 . S
C177 C176 1.363 . S
C177 C183 1.363 . S
C178 C179 1.363 . S
C178 C183 1.379 . S
C178 N185 1.356 . S
C179 C178 1.363 . S
C179 C182 1.363 . S
N180 C182 1.356 . S
N180 H192 0.984 . S
N180 H193 0.985 . S
N181 C183 1.356 . S
N181 H186 0.984 . S
N181 H187 0.985 . S
C182 C176 1.379 . S
C182 C179 1.363 . S
C182 N180 1.356 . S
C183 C177 1.363 . S
C183 C178 1.379 . S
C183 N181 1.356 . S
N184 C176 1.356 . S
N184 H190 0.984 . S
N184 H191 0.984 . S
N185 C178 1.356 . S
N185 H188 0.984 . S
N185 H189 0.985 . S
H186 N181 0.984 . S
H187 N181 0.985 . S
H188 N185 0.984 . S
H189 N185 0.985 . S
H190 N184 0.984 . S
H191 N184 0.984 . S
H192 N180 0.984 . S
H193 N180 0.985 . S
C194 C195 1.363 . S
C194 C200 1.379 . S
C194 N202 1.356 1_565 S
C195 C194 1.363 . S
C195 C201 1.363 . S
C196 C197 1.363 . S
C196 C201 1.379 . S
C196 N203 1.356 . S
C197 C196 1.363 . S
C197 C200 1.363 . S
N198 C200 1.356 . S
N198 H210 0.984 1_565 S
N198 H211 0.985 . S
N199 C201 1.356 . S
N199 H204 0.984 . S
N199 H205 0.985 . S
C200 C194 1.379 . S
C200 C197 1.363 . S
C200 N198 1.356 . S
C201 C195 1.363 . S
C201 C196 1.379 . S
C201 N199 1.356 . S
N202 C194 1.356 1_545 S
N202 H208 0.984 . S
N202 H209 0.984 1_545 S
N203 C196 1.356 . S
N203 H206 0.984 . S
N203 H207 0.985 . S
H204 N199 0.984 . S
H205 N199 0.985 . S
H206 N203 0.984 . S
H207 N203 0.985 . S
H208 N202 0.984 . S
H209 N202 0.984 1_565 S
H210 N198 0.984 1_545 S
H211 N198 0.985 . S
C212 C213 1.363 . S
C212 C218 1.379 . S
C212 N220 1.356 . S
C213 C212 1.363 . S
C213 C219 1.363 . S
C214 C215 1.363 . S
C214 C219 1.379 . S
C214 N221 1.356 . S
C215 C214 1.363 . S
C215 C218 1.363 . S
N216 C218 1.356 . S
N216 H228 0.984 . S
N216 H229 0.985 . S
N217 C219 1.356 . S
N217 H222 0.984 . S
N217 H223 0.985 . S
C218 C212 1.379 . S
C218 C215 1.363 . S
C218 N216 1.356 . S
C219 C213 1.363 . S
C219 C214 1.379 . S
C219 N217 1.356 . S
N220 C212 1.356 . S
N220 H226 0.984 . S
N220 H227 0.984 . S
N221 C214 1.356 . S
N221 H224 0.984 . S
N221 H225 0.985 . S
H222 N217 0.984 . S
H223 N217 0.985 . S
H224 N221 0.984 . S
H225 N221 0.985 . S
H226 N220 0.984 . S
H227 N220 0.984 . S
H228 N216 0.984 . S
H229 N216 0.985 . S
C230 C231 1.363 . S
C230 C236 1.379 . S
C230 N238 1.356 . S
C231 C230 1.363 . S
C231 C237 1.363 . S
C232 C233 1.363 . S
C232 C237 1.379 . S
C232 N239 1.356 . S
C233 C232 1.363 . S
C233 C236 1.363 . S
N234 C236 1.356 . S
N234 H246 0.984 . S
N234 H247 0.985 . S
N235 C237 1.356 . S
N235 H240 0.984 . S
N235 H241 0.985 . S
C236 C230 1.379 . S
C236 C233 1.363 . S
C236 N234 1.356 . S
C237 C231 1.363 . S
C237 C232 1.379 . S
C237 N235 1.356 . S
N238 C230 1.356 . S
N238 H244 0.984 . S
N238 H245 0.984 . S
N239 C232 1.356 . S
N239 H242 0.984 . S
N239 H243 0.985 . S
H240 N235 0.984 . S
H241 N235 0.985 . S
H242 N239 0.984 . S
H243 N239 0.985 . S
H244 N238 0.984 . S
H245 N238 0.984 . S
H246 N234 0.984 . S
H247 N234 0.985 . S
C248 C249 1.363 . S
C248 C254 1.379 . S
C248 N256 1.356 . S
C249 C248 1.363 . S
C249 C255 1.363 . S
C250 C251 1.363 . S
C250 C255 1.379 . S
C250 N257 1.356 . S
C251 C250 1.363 . S
C251 C254 1.363 . S
N252 C254 1.356 . S
N252 H264 0.984 . S
N252 H265 0.985 . S
N253 C255 1.356 . S
N253 H258 0.984 . S
N253 H259 0.985 1_545 S
C254 C248 1.379 . S
C254 C251 1.363 . S
C254 N252 1.356 . S
C255 C249 1.363 . S
C255 C250 1.379 . S
C255 N253 1.356 . S
N256 C248 1.356 . S
N256 H262 0.984 . S
N256 H263 0.984 . S
N257 C250 1.356 . S
N257 H260 0.984 . S
N257 H261 0.985 . S
H258 N253 0.984 . S
H259 N253 0.985 1_565 S
H260 N257 0.984 . S
H261 N257 0.985 . S
H262 N256 0.984 . S
H263 N256 0.984 . S
H264 N252 0.984 . S
H265 N252 0.985 . S
C266 C267 1.363 . S
C266 C272 1.379 . S
C266 N274 1.356 . S
C267 C266 1.363 . S
C267 C273 1.363 . S
C268 C269 1.363 . S
C268 C273 1.379 . S
C268 N275 1.356 . S
C269 C268 1.363 . S
C269 C272 1.363 . S
N270 C272 1.356 . S
N270 H282 0.984 . S
N270 H283 0.985 . S
N271 C273 1.356 . S
N271 H276 0.984 . S
N271 H277 0.985 1_455 S
C272 C266 1.379 . S
C272 C269 1.363 . S
C272 N270 1.356 . S
C273 C267 1.363 . S
C273 C268 1.379 . S
C273 N271 1.356 . S
N274 C266 1.356 . S
N274 H280 0.984 . S
N274 H281 0.984 . S
N275 C268 1.356 . S
N275 H278 0.984 . S
N275 H279 0.985 . S
H276 N271 0.984 . S
H277 N271 0.985 1_655 S
H278 N275 0.984 . S
H279 N275 0.985 . S
H280 N274 0.984 . S
H281 N274 0.984 . S
H282 N270 0.984 . S
H283 N270 0.985 . S
C284 C285 1.363 . S
C284 C290 1.379 . S
C284 N292 1.356 . S
C285 C284 1.363 . S
C285 C291 1.363 . S
C286 C287 1.363 . S
C286 C291 1.379 . S
C286 N293 1.356 . S
C287 C286 1.363 . S
C287 C290 1.363 . S
N288 C290 1.356 . S
N288 H300 0.984 . S
N288 H301 0.985 . S
N289 C291 1.356 . S
N289 H294 0.984 . S
N289 H295 0.985 . S
C290 C284 1.379 . S
C290 C287 1.363 . S
C290 N288 1.356 . S
C291 C285 1.363 . S
C291 C286 1.379 . S
C291 N289 1.356 . S
N292 C284 1.356 . S
N292 H298 0.984 1_556 S
N292 H299 0.984 . S
N293 C286 1.356 . S
N293 H296 0.984 . S
N293 H297 0.985 . S
H294 N289 0.984 . S
H295 N289 0.985 . S
H296 N293 0.984 . S
H297 N293 0.985 . S
H298 N292 0.984 1_554 S
H299 N292 0.984 . S
H300 N288 0.984 . S
H301 N288 0.985 . S
C302 C303 1.363 . S
C302 C308 1.379 . S
C302 N310 1.353 1_565 S
C303 C302 1.363 . S
C303 C309 1.363 . S
C304 C305 1.363 . S
C304 C309 1.379 . S
C304 N311 1.356 . S
C305 C304 1.363 . S
C305 C308 1.363 . S
N306 C308 1.356 . S
N306 H318 0.984 . S
N306 H319 0.985 . S
N307 C309 1.356 . S
N307 H312 0.984 . S
N307 H313 0.985 . S
C308 C302 1.379 . S
C308 C305 1.363 . S
C308 N306 1.356 . S
C309 C303 1.363 . S
C309 C304 1.379 . S
C309 N307 1.356 . S
N310 C302 1.353 1_545 S
N310 H316 0.987 . S
N310 H317 0.986 . S
N311 C304 1.356 . S
N311 H314 0.984 . S
N311 H315 0.985 . S
H312 N307 0.984 . S
H313 N307 0.985 . S
H314 N311 0.984 . S
H315 N311 0.985 . S
H316 N310 0.987 . S
H317 N310 0.986 . S
H318 N306 0.984 . S
H319 N306 0.985 . S
C320 C321 1.363 . S
C320 C326 1.379 . S
C320 N328 1.356 . S
C321 C320 1.363 . S
C321 C327 1.363 . S
C322 C323 1.363 . S
C322 C327 1.379 . S
C322 N329 1.356 . S
C323 C322 1.363 . S
C323 C326 1.363 . S
N324 C326 1.356 . S
N324 H336 0.984 . S
N324 H337 0.985 . S
N325 C327 1.356 . S
N325 H330 0.984 . S
N325 H331 0.985 1_655 S
C326 C320 1.379 . S
C326 C323 1.363 . S
C326 N324 1.356 . S
C327 C321 1.363 . S
C327 C322 1.379 . S
C327 N325 1.356 . S
N328 C320 1.356 . S
N328 H334 0.984 . S
N328 H335 0.984 . S
N329 C322 1.356 . S
N329 H332 0.984 . S
N329 H333 0.985 . S
H330 N325 0.984 . S
H331 N325 0.985 1_455 S
H332 N329 0.984 . S
H333 N329 0.985 . S
H334 N328 0.984 . S
H335 N328 0.984 . S
H336 N324 0.984 . S
H337 N324 0.985 . S
C123 C11 1.913 . S
C125 C99 1.913 . S
C141 C51 1.306 . S
C143 C105 1.225 . S
C159 C7 1.100 . S
C161 C96 0.968 . S
C177 C47 1.647 . S
C179 C121 1.478 . S
C195 C10 2.167 . S
C197 C87 2.059 . S
C215 C104 2.319 . S
C213 C50 2.370 . S
C231 C56 1.417 . S
C233 C100 1.326 . S
C251 C117 1.741 . S
C249 C19 1.788 . S
C269 C84 2.109 . S
C267 C59 2.183 . S
C287 C120 2.191 . S
C285 C2 2.180 . S
C305 C83 1.565 . S
C303 C42 1.639 . S
C323 C108 0.936 . S
C321 C16 1.070 . S
