# Generated by pormake.
# Topology anh, (6,3)-cn, num edge types: 1
# Building blocks:
#     Node 0, Type 0, BuildingBlock: VOLQOD_clean_sbu_1, # of connection points: 6
#     Node 1, Type 0, BuildingBlock: VOLQOD_clean_sbu_1, # of connection points: 6
#     Node 2, Type 0, BuildingBlock: VOLQOD_clean_sbu_1, # of connection points: 6
#     Node 3, Type 1, BuildingBlock: OLANEW_clean_sbu_2, # of connection points: 3
#     Node 4, Type 1, BuildingBlock: OLANEW_clean_sbu_2, # of connection points: 3
#     Node 5, Type 1, BuildingBlock: OLANEW_clean_sbu_2, # of connection points: 3
#     Node 6, Type 1, BuildingBlock: OLANEW_clean_sbu_2, # of connection points: 3
#     Node 7, Type 1, BuildingBlock: OLANEW_clean_sbu_2, # of connection points: 3
#     Node 8, Type 1, BuildingBlock: OLANEW_clean_sbu_2, # of connection points: 3
#     Edge 9, Type (0, 1), BuildingBlock: FUNLAD_clean_linker_0, # of connection points: 2
#     Edge 10, Type (0, 1), BuildingBlock: FUNLAD_clean_linker_0, # of connection points: 2
#     Edge 11, Type (0, 1), BuildingBlock: FUNLAD_clean_linker_0, # of connection points: 2
#     Edge 12, Type (0, 1), BuildingBlock: FUNLAD_clean_linker_0, # of connection points: 2
#     Edge 13, Type (0, 1), BuildingBlock: FUNLAD_clean_linker_0, # of connection points: 2
#     Edge 14, Type (0, 1), BuildingBlock: FUNLAD_clean_linker_0, # of connection points: 2
#     Edge 15, Type (0, 1), BuildingBlock: FUNLAD_clean_linker_0, # of connection points: 2
#     Edge 16, Type (0, 1), BuildingBlock: FUNLAD_clean_linker_0, # of connection points: 2
#     Edge 17, Type (0, 1), BuildingBlock: FUNLAD_clean_linker_0, # of connection points: 2
#     Edge 18, Type (0, 1), BuildingBlock: FUNLAD_clean_linker_0, # of connection points: 2
#     Edge 19, Type (0, 1), BuildingBlock: FUNLAD_clean_linker_0, # of connection points: 2
#     Edge 20, Type (0, 1), BuildingBlock: FUNLAD_clean_linker_0, # of connection points: 2
#     Edge 21, Type (0, 1), BuildingBlock: FUNLAD_clean_linker_0, # of connection points: 2
#     Edge 22, Type (0, 1), BuildingBlock: FUNLAD_clean_linker_0, # of connection points: 2
#     Edge 23, Type (0, 1), BuildingBlock: FUNLAD_clean_linker_0, # of connection points: 2
#     Edge 24, Type (0, 1), BuildingBlock: FUNLAD_clean_linker_0, # of connection points: 2
#     Edge 25, Type (0, 1), BuildingBlock: FUNLAD_clean_linker_0, # of connection points: 2
#     Edge 26, Type (0, 1), BuildingBlock: FUNLAD_clean_linker_0, # of connection points: 2
# Relax obj value: 0.155
# Max RMSD: 0.206
# Mean RMSD: 0.142
data_MOF--net-anh--node1-VOLQOD_clean_sbu_1--node2-OLANEW_clean_sbu_2--edge1-FUNLAD_clean_linker_0
_symmetry_space_group_name_H-M    P1
_symmetry_Int_Tables_number       1
_symmetry_cell_setting            triclinic
loop_
_symmetry_equiv_pos_as_xyz
'x, y, z'
_cell_length_a     36.163099
_cell_length_b     36.018528
_cell_length_c     67.817253
_cell_angle_alpha  89.901893
_cell_angle_beta   89.798735
_cell_angle_gamma 120.19843
loop_
_atom_site_label
_atom_site_type_symbol
_atom_site_fract_x
_atom_site_fract_y
_atom_site_fract_z
_atom_type_partial_charge
O0 O 0.00342 0.54972 0.1962 0.0
Zn1 Zn 0.00395 0.56372 0.16733 0.0
O2 O 0.01035 0.52241 0.15088 0.0
Zn3 Zn 0.96323 0.49405 0.1321 0.0
Zn4 Zn 0.01259 0.47951 0.16768 0.0
Zn5 Zn 0.06298 0.55252 0.13603 0.0
O6 O 0.98255 0.50813 0.10337 0.0
O7 O 0.05175 0.55391 0.10743 0.0
O8 O 0.94837 0.56217 0.16137 0.0
O9 O 0.92225 0.51488 0.13695 0.0
O10 O 0.92827 0.42989 0.13728 0.0
O11 O 0.95929 0.42239 0.16401 0.0
O12 O 0.06393 0.47327 0.16159 0.0
O13 O 0.05445 0.62402 0.16394 0.0
O14 O 0.09731 0.52343 0.13859 0.0
O15 O 0.09837 0.61352 0.14488 0.0
C16 C 0.00926 0.52232 0.20548 0.0
C17 C 0.01939 0.53443 0.09628 0.0
C18 C 0.92941 0.40683 0.1513 0.0
C19 C 0.91931 0.54074 0.14874 0.0
C20 C 0.09441 0.49302 0.14928 0.0
C21 C 0.09045 0.63811 0.15528 0.0
O22 O 0.01457 0.49449 0.19634 0.0
O23 O 0.49165 0.0306 0.45409 0.0
Zn24 Zn 0.47402 0.0245 0.48267 0.0
O25 O 0.51311 0.01452 0.49901 0.0
Zn26 Zn 0.54176 0.06079 0.51801 0.0
Zn27 Zn 0.55622 0.01165 0.48232 0.0
Zn28 Zn 0.48041 0.96094 0.51359 0.0
O29 O 0.52995 0.0396 0.54608 0.0
O30 O 0.48718 0.96922 0.54298 0.0
O31 O 0.47425 0.079 0.49077 0.0
O32 O 0.52153 0.10274 0.51507 0.0
O33 O 0.60534 0.09393 0.51343 0.0
O34 O 0.61563 0.06039 0.48844 0.0
O35 O 0.55467 0.95483 0.48561 0.0
O36 O 0.41349 0.97386 0.48426 0.0
O37 O 0.49982 0.91984 0.5062 0.0
O38 O 0.41795 0.93206 0.50712 0.0
C39 C 0.52002 0.02659 0.44469 0.0
C40 C 0.50775 0.00238 0.55368 0.0
C41 C 0.6301 0.09051 0.50111 0.0
C42 C 0.49538 0.10669 0.50401 0.0
C43 C 0.52928 0.92117 0.49538 0.0
C44 C 0.39617 0.94003 0.49491 0.0
O45 O 0.54603 0.01836 0.45363 0.0
O46 O 0.429 0.42384 0.80008 0.0
Zn47 Zn 0.415 0.40944 0.82892 0.0
O48 O 0.46173 0.45235 0.84542 0.0
Zn49 Zn 0.43912 0.47715 0.86388 0.0
Zn50 Zn 0.50597 0.49808 0.82884 0.0
Zn51 Zn 0.48691 0.42514 0.86082 0.0
O52 O 0.45126 0.47073 0.89213 0.0
O53 O 0.4845 0.43327 0.89012 0.0
O54 O 0.35882 0.40801 0.8345 0.0
O55 O 0.37609 0.44955 0.86101 0.0
O56 O 0.46213 0.53966 0.85796 0.0
O57 O 0.50806 0.55474 0.83328 0.0
O58 O 0.56446 0.50485 0.83359 0.0
O59 O 0.40792 0.35026 0.83304 0.0
O60 O 0.54863 0.45053 0.85398 0.0
O61 O 0.45819 0.36227 0.85499 0.0
C62 C 0.46081 0.45389 0.79089 0.0
C63 C 0.46946 0.45235 0.90029 0.0
C64 C 0.48853 0.56606 0.84538 0.0
C65 C 0.34865 0.42469 0.84855 0.0
C66 C 0.57561 0.48212 0.8436 0.0
C67 C 0.42782 0.33689 0.84376 0.0
O68 O 0.49233 0.48377 0.80012 0.0
O69 O 0.51666 0.05366 0.25433 0.0
Cd70 Cd 0.50235 0.05522 0.21914 0.0
O71 O 0.53008 0.00068 0.25217 0.0
Cd72 Cd 0.50715 0.9877 0.2219 0.0
O73 O 0.45657 0.95572 0.20016 0.0
C74 C 0.42131 0.95417 0.20377 0.0
O75 O 0.41831 0.97371 0.21952 0.0
C76 C 0.52809 0.02916 0.26241 0.0
C77 C 0.5778 0.1102 0.19892 0.0
O78 O 0.55637 0.12451 0.20796 0.0
O79 O 0.56332 0.0696 0.19918 0.0
O80 O 0.53183 0.51405 0.59968 0.0
Cd81 Cd 0.53874 0.52693 0.56408 0.0
O82 O 0.46319 0.49278 0.60008 0.0
Cd83 Cd 0.46484 0.51233 0.56949 0.0
O84 O 0.47559 0.55595 0.54496 0.0
C85 C 0.50931 0.59269 0.54538 0.0
O86 O 0.53634 0.60162 0.55995 0.0
C87 C 0.49667 0.49917 0.60909 0.0
C88 C 0.53246 0.45601 0.54468 0.0
O89 O 0.56885 0.48755 0.54981 0.0
O90 O 0.49894 0.45836 0.54844 0.0
O91 O 0.12333 0.66645 0.91965 0.0
Cd92 Cd 0.15451 0.68642 0.8867 0.0
O93 O 0.07071 0.61212 0.90469 0.0
Cd94 Cd 0.00674 0.5572 0.9009 0.0
O95 O 0.94244 0.52689 0.88895 0.0
C96 C 0.93671 0.54748 0.8752 0.0
O97 O 0.96942 0.58391 0.86907 0.0
C98 C 0.08745 0.6319 0.92063 0.0
C99 C 0.18227 0.6297 0.87631 0.0
O100 O 0.20696 0.66513 0.88513 0.0
O101 O 0.14453 0.62154 0.87181 0.0
O102 O 0.02181 0.52179 0.39675 0.0
Cd103 Cd 0.02834 0.51932 0.43247 0.0
O104 O 0.96339 0.52619 0.39784 0.0
Cd105 Cd 0.95313 0.50808 0.42894 0.0
O106 O 0.92184 0.46132 0.45265 0.0
C107 C 0.92929 0.43053 0.45431 0.0
O108 O 0.95783 0.4296 0.44259 0.0
C109 C 0.9936 0.52676 0.38795 0.0
C110 C 0.09212 0.60036 0.44459 0.0
O111 O 0.10116 0.57214 0.43857 0.0
O112 O 0.05263 0.58991 0.44543 0.0
O113 O 0.45805 0.94679 0.74283 0.0
Cd114 Cd 0.45087 0.94504 0.77878 0.0
O115 O 0.52826 0.98592 0.74392 0.0
Cd116 Cd 0.52349 0.00609 0.77366 0.0
O117 O 0.49847 0.04021 0.79066 0.0
C118 C 0.46911 0.04376 0.78215 0.0
O119 O 0.45587 0.02599 0.76477 0.0
C120 C 0.49417 0.96367 0.73411 0.0
C121 C 0.46976 0.88482 0.79452 0.0
O122 O 0.43122 0.87461 0.79039 0.0
O123 O 0.49938 0.92374 0.79147 0.0
O124 O 0.50211 0.4844 0.08981 0.0
Cd125 Cd 0.49532 0.49296 0.12529 0.0
O126 O 0.54041 0.55362 0.08328 0.0
Cd127 Cd 0.52188 0.5676 0.11165 0.0
O128 O 0.46646 0.55236 0.13008 0.0
C129 C 0.43203 0.52095 0.12354 0.0
O130 O 0.43349 0.50247 0.10709 0.0
C131 C 0.52389 0.51481 0.07768 0.0
C132 C 0.57179 0.51469 0.14393 0.0
O133 O 0.54229 0.47536 0.14201 0.0
O134 O 0.56465 0.54392 0.13745 0.0
C135 C 0.14133 0.46711 0.16345 0.0
C136 C 0.12748 0.48092 0.14715 0.0
C137 C 0.17577 0.45989 0.16149 0.0
C138 C 0.19603 0.46555 0.14309 0.0
C139 C 0.18052 0.47703 0.12666 0.0
C140 C 0.14699 0.48524 0.12871 0.0
C141 C 0.23447 0.46161 0.14046 0.0
C142 C 0.2662 0.47635 0.15379 0.0
C143 C 0.30903 0.48331 0.14846 0.0
C144 C 0.34565 0.51961 0.15573 0.0
C145 C 0.38616 0.53117 0.14826 0.0
C146 C 0.39055 0.5064 0.13345 0.0
H147 H 0.28648 0.4276 0.12949 0.0
C148 C 0.35424 0.46831 0.12732 0.0
C149 C 0.31392 0.45671 0.13484 0.0
H150 H 0.35673 0.44796 0.11629 0.0
H151 H 0.12663 0.46344 0.17781 0.0
H152 H 0.18669 0.45028 0.17433 0.0
H153 H 0.19549 0.4813 0.11232 0.0
H154 H 0.13655 0.4954 0.11587 0.0
H155 H 0.23963 0.45266 0.12585 0.0
H156 H 0.26286 0.48969 0.1676 0.0
H157 H 0.34272 0.54036 0.1664 0.0
H158 H 0.41368 0.56043 0.15344 0.0
C159 C 0.69234 0.15831 0.51406 0.0
C160 C 0.67569 0.12484 0.50019 0.0
C161 C 0.73314 0.19414 0.5115 0.0
C162 C 0.75801 0.19747 0.49486 0.0
C163 C 0.74263 0.1626 0.48182 0.0
C164 C 0.7019 0.12671 0.48441 0.0
C165 C 0.79863 0.23748 0.48982 0.0
C166 C 0.80748 0.27683 0.49581 0.0
C167 C 0.84261 0.31749 0.48726 0.0
C168 C 0.83853 0.35425 0.48775 0.0
C169 C 0.86779 0.3917 0.4778 0.0
C170 C 0.90201 0.3933 0.46719 0.0
H171 H 0.88387 0.29308 0.47771 0.0
C172 C 0.9078 0.35752 0.46779 0.0
C173 C 0.87852 0.32004 0.47778 0.0
H174 H 0.93425 0.35795 0.46004 0.0
H175 H 0.67334 0.15756 0.5266 0.0
H176 H 0.74451 0.2194 0.52238 0.0
H177 H 0.76132 0.16397 0.46903 0.0
H178 H 0.69031 0.10137 0.47353 0.0
H179 H 0.81899 0.23467 0.47885 0.0
H180 H 0.78518 0.27975 0.50553 0.0
H181 H 0.81154 0.35346 0.49516 0.0
H182 H 0.8626 0.41881 0.47782 0.0
C183 C 0.51622 0.63687 0.8279 0.0
C184 C 0.49296 0.6092 0.84358 0.0
C185 C 0.51518 0.67473 0.82463 0.0
C186 C 0.49103 0.68585 0.83709 0.0
C187 C 0.46938 0.65911 0.85322 0.0
C188 C 0.47043 0.62137 0.85648 0.0
C189 C 0.48404 0.72238 0.83276 0.0
C190 C 0.50934 0.75571 0.82087 0.0
C191 C 0.49864 0.7891 0.81518 0.0
C192 C 0.53171 0.83046 0.81012 0.0
C193 C 0.52244 0.86189 0.80381 0.0
C194 C 0.47979 0.85233 0.80211 0.0
H195 H 0.42952 0.74777 0.81672 0.0
C196 C 0.44669 0.81091 0.80713 0.0
C197 C 0.45596 0.77964 0.81358 0.0
H198 H 0.4135 0.80241 0.80586 0.0
H199 H 0.53376 0.62843 0.81761 0.0
H200 H 0.53165 0.69388 0.8118 0.0
H201 H 0.45047 0.66677 0.86304 0.0
H202 H 0.45222 0.60097 0.86876 0.0
H203 H 0.45651 0.72151 0.83972 0.0
H204 H 0.53914 0.7593 0.8153 0.0
H205 H 0.56482 0.83846 0.81101 0.0
H206 H 0.54869 0.89343 0.79994 0.0
C207 C 0.87069 0.56463 0.16345 0.0
C208 C 0.87933 0.54258 0.14869 0.0
C209 C 0.83053 0.56153 0.16455 0.0
C210 C 0.79847 0.53634 0.15087 0.0
C211 C 0.80773 0.51564 0.13581 0.0
C212 C 0.84766 0.51887 0.13464 0.0
C213 C 0.75416 0.52827 0.15231 0.0
C214 C 0.74284 0.5544 0.16126 0.0
C215 C 0.69802 0.54495 0.16036 0.0
C216 C 0.6896 0.57814 0.15625 0.0
C217 C 0.64796 0.56861 0.15188 0.0
C218 C 0.61413 0.52575 0.1518 0.0
H219 H 0.66913 0.47646 0.16568 0.0
C220 C 0.62215 0.49303 0.15761 0.0
C221 C 0.66368 0.50254 0.16189 0.0
H222 H 0.59668 0.45978 0.15803 0.0
H223 H 0.89434 0.58301 0.17455 0.0
H224 H 0.82428 0.57741 0.17655 0.0
H225 H 0.78365 0.49613 0.12505 0.0
H226 H 0.85315 0.50159 0.12301 0.0
H227 H 0.72976 0.50021 0.14457 0.0
H228 H 0.76699 0.58488 0.16736 0.0
H229 H 0.71554 0.61111 0.15523 0.0
H230 H 0.64268 0.5946 0.14767 0.0
C231 C 0.33204 0.9025 0.47315 0.0
C232 C 0.35097 0.90687 0.4917 0.0
C233 C 0.29215 0.86665 0.46905 0.0
C234 C 0.27025 0.83496 0.48354 0.0
C235 C 0.28762 0.84105 0.50251 0.0
C236 C 0.32789 0.87638 0.5065 0.0
C237 C 0.23087 0.794 0.47888 0.0
C238 C 0.22759 0.77276 0.46207 0.0
C239 C 0.19215 0.72859 0.45816 0.0
C240 C 0.2009 0.70088 0.4472 0.0
C241 C 0.16855 0.65897 0.4432 0.0
C242 C 0.12646 0.64418 0.44968 0.0
H243 H 0.1422 0.73475 0.47296 0.0
C244 C 0.11747 0.67206 0.46046 0.0
C245 C 0.1501 0.71384 0.46479 0.0
H246 H 0.08526 0.66159 0.46556 0.0
H247 H 0.34903 0.92549 0.46147 0.0
H248 H 0.27898 0.86315 0.4544 0.0
H249 H 0.27111 0.81722 0.51395 0.0
H250 H 0.34155 0.87913 0.52098 0.0
H251 H 0.20691 0.7786 0.49041 0.0
H252 H 0.25406 0.78651 0.4516 0.0
H253 H 0.233 0.71156 0.44186 0.0
H254 H 0.17642 0.6384 0.43471 0.0
C255 C 0.39368 0.26594 0.82622 0.0
C256 C 0.41887 0.29213 0.84176 0.0
C257 C 0.39113 0.22648 0.82254 0.0
C258 C 0.41384 0.21253 0.83433 0.0
C259 C 0.43626 0.23721 0.85071 0.0
C260 C 0.43896 0.27663 0.85435 0.0
C261 C 0.41724 0.17407 0.82951 0.0
C262 C 0.41399 0.15921 0.811 0.0
C263 C 0.4251 0.12616 0.80525 0.0
C264 C 0.40911 0.10421 0.78744 0.0
C265 C 0.42234 0.07638 0.78031 0.0
C266 C 0.45233 0.07018 0.79075 0.0
H267 H 0.46837 0.13618 0.82954 0.0
C268 C 0.46764 0.09128 0.80884 0.0
C269 C 0.45426 0.11906 0.81602 0.0
H270 H 0.4909 0.08733 0.81721 0.0
H271 H 0.37735 0.27664 0.81639 0.0
H272 H 0.37202 0.20758 0.81024 0.0
H273 H 0.45353 0.22699 0.86022 0.0
H274 H 0.45818 0.29567 0.86663 0.0
H275 H 0.42642 0.16009 0.84136 0.0
H276 H 0.40475 0.17309 0.79913 0.0
H277 H 0.38689 0.10926 0.77876 0.0
H278 H 0.40984 0.06062 0.76632 0.0
C279 C 0.49996 0.84295 0.50116 0.0
C280 C 0.53377 0.88259 0.49454 0.0
C281 C 0.50447 0.8068 0.50191 0.0
C282 C 0.54299 0.80927 0.49603 0.0
C283 C 0.57659 0.84868 0.48904 0.0
C284 C 0.57191 0.88498 0.4881 0.0
C285 C 0.5502 0.77263 0.49933 0.0
C286 C 0.51782 0.73157 0.49987 0.0
C287 C 0.52084 0.69544 0.50878 0.0
C288 C 0.48638 0.65346 0.50634 0.0
C289 C 0.48366 0.61945 0.51745 0.0
C290 C 0.51532 0.6268 0.53135 0.0
H291 H 0.5807 0.73401 0.52451 0.0
C292 C 0.55114 0.66825 0.53292 0.0
C293 C 0.55387 0.70225 0.52183 0.0
H294 H 0.57623 0.67496 0.54343 0.0
H295 H 0.4701 0.83993 0.5062 0.0
H296 H 0.47828 0.77752 0.50801 0.0
H297 H 0.60679 0.85159 0.48468 0.0
H298 H 0.59859 0.91514 0.48299 0.0
H299 H 0.58268 0.7802 0.50242 0.0
H300 H 0.4864 0.72433 0.49482 0.0
H301 H 0.46042 0.64722 0.49645 0.0
H302 H 0.45575 0.58783 0.51578 0.0
C303 C 0.63222 0.46614 0.85418 0.0
C304 C 0.62068 0.49218 0.84346 0.0
C305 C 0.67455 0.4755 0.85466 0.0
C306 C 0.70657 0.51104 0.84425 0.0
C307 C 0.69518 0.5372 0.83354 0.0
C308 C 0.6526 0.52776 0.83304 0.0
C309 C 0.75233 0.52333 0.84559 0.0
C310 C 0.7651 0.49493 0.84986 0.0
C311 C 0.80993 0.50767 0.85467 0.0
C312 C 0.81721 0.48102 0.86724 0.0
C313 C 0.8585 0.49342 0.87359 0.0
C314 C 0.89349 0.53256 0.86727 0.0
H315 H 0.84103 0.56663 0.83738 0.0
C316 C 0.88651 0.55825 0.85389 0.0
C317 C 0.84515 0.54596 0.84763 0.0
H318 H 0.91288 0.58835 0.84854 0.0
H319 H 0.60861 0.43863 0.86252 0.0
H320 H 0.68201 0.45546 0.86375 0.0
H321 H 0.71932 0.56512 0.82562 0.0
H322 H 0.64484 0.54857 0.82469 0.0
H323 H 0.77581 0.55715 0.84381 0.0
H324 H 0.74144 0.46109 0.85139 0.0
H325 H 0.79068 0.45114 0.87272 0.0
H326 H 0.86285 0.4727 0.88375 0.0
C327 C 0.16453 0.69898 0.14863 0.0
C328 C 0.1249 0.6832 0.15827 0.0
C329 C 0.19871 0.7398 0.15287 0.0
C330 C 0.19403 0.76611 0.1668 0.0
C331 C 0.15398 0.75087 0.17594 0.0
C332 C 0.11973 0.70996 0.17168 0.0
C333 C 0.23092 0.80733 0.17369 0.0
C334 C 0.26834 0.82934 0.16381 0.0
C335 C 0.30741 0.86538 0.1727 0.0
C336 C 0.34754 0.87239 0.16654 0.0
C337 C 0.38486 0.90246 0.17611 0.0
C338 C 0.3828 0.92646 0.19195 0.0
H339 H 0.2755 0.88812 0.19239 0.0
C340 C 0.34293 0.92147 0.19727 0.0
C341 C 0.30561 0.89132 0.18773 0.0
H342 H 0.3403 0.93996 0.20921 0.0
H343 H 0.16972 0.67925 0.13822 0.0
H344 H 0.22906 0.74944 0.1458 0.0
H345 H 0.14946 0.77025 0.18682 0.0
H346 H 0.08966 0.69886 0.17939 0.0
H347 H 0.22762 0.81831 0.18813 0.0
H348 H 0.27194 0.81858 0.14938 0.0
H349 H 0.34992 0.85324 0.15483 0.0
H350 H 0.41511 0.90582 0.1715 0.0
C351 C 0.51455 0.17519 0.52122 0.0
C352 C 0.49121 0.14533 0.50639 0.0
C353 C 0.51321 0.21296 0.52308 0.0
C354 C 0.48868 0.22216 0.51008 0.0
C355 C 0.46395 0.19172 0.49572 0.0
C356 C 0.4654 0.15371 0.49379 0.0
C357 C 0.48796 0.26289 0.51177 0.0
C358 C 0.52276 0.29955 0.51761 0.0
C359 C 0.52359 0.34033 0.5221 0.0
C360 C 0.56356 0.37758 0.52468 0.0
C361 C 0.56639 0.41555 0.53135 0.0
C362 C 0.52922 0.41714 0.53564 0.0
H363 H 0.4548 0.31425 0.52428 0.0
C364 C 0.4891 0.38042 0.53236 0.0
C365 C 0.48624 0.3423 0.52572 0.0
H366 H 0.45984 0.38063 0.53557 0.0
H367 H 0.5343 0.16965 0.53141 0.0
H368 H 0.53127 0.2348 0.53486 0.0
H369 H 0.44423 0.19777 0.48574 0.0
H370 H 0.44679 0.13125 0.48229 0.0
H371 H 0.45871 0.26251 0.50786 0.0
H372 H 0.55266 0.29971 0.51956 0.0
H373 H 0.59286 0.37703 0.52207 0.0
H374 H 0.59781 0.4433 0.53364 0.0
C375 C 0.28923 0.42316 0.86746 0.0
C376 C 0.30651 0.42166 0.84912 0.0
C377 C 0.2586 0.4357 0.86868 0.0
C378 C 0.24535 0.44777 0.85157 0.0
C379 C 0.25838 0.44084 0.83308 0.0
C380 C 0.2889 0.42782 0.83184 0.0
C381 C 0.22366 0.4734 0.85297 0.0
C382 C 0.23658 0.50487 0.8665 0.0
C383 C 0.22211 0.53672 0.86757 0.0
C384 C 0.24872 0.57575 0.87713 0.0
C385 C 0.23622 0.60631 0.87942 0.0
C386 C 0.19644 0.59837 0.8724 0.0
H387 H 0.16089 0.49887 0.85301 0.0
C388 C 0.16981 0.55949 0.8626 0.0
C389 C 0.18254 0.5289 0.86016 0.0
H390 H 0.13884 0.55238 0.85711 0.0
H391 H 0.30194 0.41801 0.88099 0.0
H392 H 0.2478 0.43916 0.88312 0.0
H393 H 0.24808 0.44934 0.81968 0.0
H394 H 0.3018 0.42695 0.81752 0.0
H395 H 0.20164 0.47033 0.8414 0.0
H396 H 0.26197 0.50989 0.8766 0.0
H397 H 0.27937 0.58262 0.88299 0.0
H398 H 0.25748 0.63582 0.88708 0.0
C399 C 0.85689 0.34567 0.14196 0.0
C400 C 0.89227 0.36316 0.15472 0.0
C401 C 0.81875 0.30848 0.14728 0.0
C402 C 0.81532 0.28828 0.16552 0.0
C403 C 0.85139 0.30429 0.17767 0.0
C404 C 0.88954 0.34102 0.17227 0.0
C405 C 0.77363 0.25437 0.17352 0.0
C406 C 0.74056 0.22659 0.16237 0.0
C407 C 0.69841 0.19682 0.17142 0.0
C408 C 0.67516 0.15382 0.16539 0.0
C409 C 0.6359 0.1254 0.17435 0.0
C410 C 0.61874 0.13997 0.18904 0.0
H411 H 0.69788 0.2447 0.19057 0.0
C412 C 0.64145 0.18337 0.19456 0.0
C413 C 0.68101 0.21143 0.18595 0.0
H414 H 0.62902 0.19556 0.20581 0.0
H415 H 0.85786 0.36188 0.12833 0.0
H416 H 0.79135 0.29735 0.13769 0.0
H417 H 0.84957 0.28931 0.19179 0.0
H418 H 0.91609 0.35335 0.18246 0.0
H419 H 0.7699 0.25246 0.18948 0.0
H420 H 0.74455 0.22487 0.14658 0.0
H421 H 0.68783 0.14202 0.15407 0.0
H422 H 0.6189 0.09214 0.16972 0.0
C423 C 0.99057 0.52782 0.06176 0.0
C424 C 0.02531 0.54458 0.07488 0.0
C425 C 0.9969 0.54039 0.04185 0.0
C426 C 0.03817 0.56993 0.03476 0.0
C427 C 0.0727 0.58596 0.04784 0.0
C428 C 0.06647 0.57338 0.06756 0.0
C429 C 0.04704 0.58667 0.0142 0.0
C430 C 0.02179 0.56693 0.9986 0.0
C431 C 0.03491 0.58427 0.97826 0.0
C432 C 0.02418 0.55579 0.96238 0.0
C433 C 0.04004 0.57121 0.94343 0.0
C434 C 0.0664 0.61551 0.93998 0.0
H435 H 0.06724 0.65175 0.98634 0.0
C436 C 0.07541 0.64411 0.95569 0.0
C437 C 0.05958 0.62873 0.97459 0.0
H438 H 0.09531 0.67844 0.95345 0.0
H439 H 0.95843 0.50576 0.06694 0.0
H440 H 0.96934 0.52788 0.0323 0.0
H441 H 0.10482 0.60871 0.04283 0.0
H442 H 0.0941 0.58698 0.07713 0.0
H443 H 0.07759 0.61576 0.01167 0.0
H444 H 0.99312 0.53575 0.00043 0.0
H445 H 0.00512 0.52143 0.96479 0.0
H446 H 0.03342 0.54827 0.93178 0.0
C447 C 0.55505 0.02959 0.41221 0.0
C448 C 0.52273 0.03158 0.42294 0.0
C449 C 0.55743 0.03413 0.39168 0.0
C450 C 0.52724 0.0404 0.38138 0.0
C451 C 0.4954 0.04302 0.39216 0.0
C452 C 0.49307 0.03856 0.41266 0.0
C453 C 0.528 0.04505 0.35955 0.0
C454 C 0.54759 0.03102 0.34717 0.0
C455 C 0.54523 0.03315 0.32534 0.0
C456 C 0.54989 0.0034 0.31382 0.0
C457 C 0.54544 0.00275 0.29333 0.0
C458 C 0.53653 0.03213 0.28389 0.0
H459 H 0.53611 0.08838 0.32404 0.0
C460 C 0.53372 0.06315 0.29533 0.0
C461 C 0.5382 0.0638 0.31581 0.0
H462 H 0.52746 0.08664 0.28851 0.0
H463 H 0.57873 0.02473 0.41966 0.0
H464 H 0.58331 0.03326 0.38408 0.0
H465 H 0.47192 0.04816 0.38467 0.0
H466 H 0.46784 0.04045 0.42042 0.0
H467 H 0.50917 0.05811 0.35347 0.0
H468 H 0.56321 0.01439 0.35304 0.0
H469 H 0.55588 0.97979 0.32073 0.0
H470 H 0.54808 0.97859 0.28496 0.0
C471 C 0.4953 0.48787 0.75858 0.0
C472 C 0.46112 0.45433 0.76902 0.0
C473 C 0.49546 0.4887 0.73798 0.0
C474 C 0.46155 0.45575 0.7273 0.0
C475 C 0.42729 0.42243 0.73773 0.0
C476 C 0.4271 0.42159 0.75835 0.0
C477 C 0.45981 0.45617 0.70539 0.0
C478 C 0.4948 0.47744 0.69383 0.0
C479 C 0.49336 0.48 0.67196 0.0
C480 C 0.53098 0.49244 0.66111 0.0
C481 C 0.53186 0.49778 0.64066 0.0
C482 C 0.4951 0.49101 0.63058 0.0
H483 H 0.42704 0.46447 0.6696 0.0
C484 C 0.45727 0.47809 0.64138 0.0
C485 C 0.4564 0.47284 0.66184 0.0
H486 H 0.42845 0.47293 0.63411 0.0
H487 H 0.52185 0.51385 0.7663 0.0
H488 H 0.52178 0.51579 0.73059 0.0
H489 H 0.40054 0.39687 0.72991 0.0
H490 H 0.40017 0.39533 0.76589 0.0
H491 H 0.4286 0.43713 0.69868 0.0
H492 H 0.52626 0.49308 0.70053 0.0
H493 H 0.56 0.49848 0.6685 0.0
H494 H 0.56158 0.50782 0.63282 0.0
C495 C 0.49608 0.95879 0.58431 0.0
C496 C 0.50503 0.9977 0.57536 0.0
C497 C 0.49293 0.9543 0.60483 0.0
C498 C 0.49788 0.98842 0.61672 0.0
C499 C 0.50632 0.02706 0.60778 0.0
C500 C 0.51051 0.03192 0.58731 0.0
C501 C 0.49248 0.98392 0.63839 0.0
C502 C 0.50663 0.96241 0.64931 0.0
C503 C 0.50225 0.96006 0.67105 0.0
C504 C 0.53665 0.96576 0.68273 0.0
C505 C 0.53396 0.96641 0.7033 0.0
C506 C 0.49631 0.96005 0.7125 0.0
H507 H 0.43695 0.94737 0.67154 0.0
C508 C 0.4612 0.95234 0.70077 0.0
C509 C 0.46426 0.95271 0.68023 0.0
H510 H 0.43176 0.94733 0.70744 0.0
H511 H 0.49167 0.93188 0.57544 0.0
H512 H 0.48558 0.92384 0.61133 0.0
H513 H 0.50993 0.05365 0.61666 0.0
H514 H 0.51708 0.06215 0.58081 0.0
H515 H 0.47879 0.00112 0.64571 0.0
H516 H 0.52453 0.94911 0.64236 0.0
H517 H 0.5661 0.97112 0.67592 0.0
H518 H 0.56142 0.97217 0.71199 0.0
C519 C 0.50646 0.45009 0.93107 0.0
C520 C 0.4735 0.45367 0.92198 0.0
C521 C 0.51103 0.45295 0.95158 0.0
C522 C 0.48221 0.45869 0.96334 0.0
C523 C 0.44865 0.46105 0.9543 0.0
C524 C 0.44465 0.45918 0.9338 0.0
C525 C 0.48583 0.46163 0.98509 0.0
C526 C 0.52366 0.48219 0.99444 0.0
C527 C 0.52609 0.48874 0.01606 0.0
C528 C 0.55683 0.52846 0.02385 0.0
C529 C 0.55693 0.53674 0.044 0.0
C530 C 0.52691 0.505 0.05677 0.0
H531 H 0.47377 0.42513 0.02336 0.0
C532 C 0.49776 0.4644 0.04909 0.0
C533 C 0.49718 0.45642 0.02892 0.0
H534 H 0.47433 0.43919 0.05854 0.0
H535 H 0.52914 0.4458 0.92231 0.0
H536 H 0.53673 0.45016 0.95821 0.0
H537 H 0.42588 0.46515 0.96309 0.0
H538 H 0.41874 0.4617 0.92723 0.0
H539 H 0.45639 0.44988 0.99354 0.0
H540 H 0.5532 0.49819 0.98594 0.0
H541 H 0.57967 0.55369 0.01422 0.0
H542 H 0.58 0.56822 0.04951 0.0
C543 C 0.00483 0.55349 0.2379 0.0
C544 C 0.0101 0.52289 0.22733 0.0
C545 C 0.00586 0.55408 0.25852 0.0
C546 C 0.01192 0.52382 0.26903 0.0
C547 C 0.01763 0.49361 0.25844 0.0
C548 C 0.01657 0.49299 0.23786 0.0
C549 C 0.01377 0.52338 0.29092 0.0
C550 C 0.99599 0.5402 0.30278 0.0
C551 C 0.99686 0.53801 0.32465 0.0
C552 C 0.96447 0.53912 0.33564 0.0
C553 C 0.96358 0.53595 0.3562 0.0
C554 C 0.99537 0.53197 0.36624 0.0
H555 H 0.05581 0.53597 0.32687 0.0
C556 C 0.02853 0.53216 0.35527 0.0
C557 C 0.02939 0.53531 0.33473 0.0
H558 H 0.05383 0.52968 0.36254 0.0
H559 H 0.00017 0.57726 0.23027 0.0
H560 H 0.00266 0.57877 0.26605 0.0
H561 H 0.02271 0.47016 0.26613 0.0
H562 H 0.02092 0.46906 0.23023 0.0
H563 H 0.02837 0.50632 0.29743 0.0
H564 H 0.97779 0.55365 0.2964 0.0
H565 H 0.9393 0.5417 0.32827 0.0
H566 H 0.93771 0.53616 0.3642 0.0
loop_
_geom_bond_atom_site_label_1
_geom_bond_atom_site_label_2
_geom_bond_distance
_geom_bond_site_symmetry_2
_ccdc_geom_bond_type
O0 Zn1 1.953 . S
O0 C16 1.225 1_655 S
Zn1 O0 1.953 . S
Zn1 O2 1.949 1_655 S
Zn1 O8 1.919 . S
Zn1 O13 1.924 1_655 S
O2 Zn1 1.949 1_455 S
O2 Zn3 1.923 1_455 S
O2 Zn4 1.950 . S
O2 Zn5 1.945 . S
Zn3 O2 1.923 1_655 S
Zn3 O6 1.933 . S
Zn3 O9 1.941 . S
Zn3 O10 1.965 . S
Zn4 O2 1.950 . S
Zn4 O11 1.938 1_455 S
Zn4 O12 1.906 . S
Zn4 O22 1.953 . S
Zn5 O2 1.945 . S
Zn5 O7 1.932 . S
Zn5 O14 1.977 . S
Zn5 O15 1.910 . S
O6 Zn3 1.933 . S
O6 C17 1.226 1_655 S
O7 Zn5 1.932 . S
O7 C17 1.307 . S
O8 Zn1 1.919 . S
O8 C19 1.253 . S
O9 Zn3 1.941 . S
O9 C19 1.283 . S
O10 Zn3 1.965 . S
O10 C18 1.303 . S
O11 Zn4 1.938 1_655 S
O11 C18 1.247 . S
O12 Zn4 1.906 . S
O12 C20 1.304 . S
O13 Zn1 1.924 1_455 S
O13 C21 1.311 . S
O14 Zn5 1.977 . S
O14 C20 1.272 . S
O15 Zn5 1.910 . S
O15 C21 1.231 . S
C16 O0 1.225 1_455 S
C16 O22 1.298 . S
C17 O6 1.226 1_455 S
C17 O7 1.307 . S
C18 O10 1.303 . S
C18 O11 1.247 . S
C19 O8 1.253 . S
C19 O9 1.283 . S
C20 O12 1.304 . S
C20 O14 1.272 . S
C21 O13 1.311 . S
C21 O15 1.231 . S
O22 Zn4 1.953 . S
O22 C16 1.298 . S
O23 Zn24 1.953 . S
O23 C39 1.225 . S
Zn24 O23 1.953 . S
Zn24 O25 1.949 . S
Zn24 O31 1.919 . S
Zn24 O36 1.924 1_545 S
O25 Zn24 1.949 . S
O25 Zn26 1.923 . S
O25 Zn27 1.950 1_545 S
O25 Zn28 1.945 1_545 S
Zn26 O25 1.923 . S
Zn26 O29 1.933 . S
Zn26 O32 1.941 . S
Zn26 O33 1.965 . S
Zn27 O25 1.950 1_565 S
Zn27 O34 1.938 1_565 S
Zn27 O35 1.906 . S
Zn27 O45 1.953 . S
Zn28 O25 1.945 1_565 S
Zn28 O30 1.932 . S
Zn28 O37 1.977 . S
Zn28 O38 1.910 . S
O29 Zn26 1.933 . S
O29 C40 1.226 . S
O30 Zn28 1.932 . S
O30 C40 1.307 1_565 S
O31 Zn24 1.919 . S
O31 C42 1.253 . S
O32 Zn26 1.941 . S
O32 C42 1.283 . S
O33 Zn26 1.965 . S
O33 C41 1.303 . S
O34 Zn27 1.938 1_545 S
O34 C41 1.247 . S
O35 Zn27 1.906 . S
O35 C43 1.304 . S
O36 Zn24 1.924 1_565 S
O36 C44 1.311 . S
O37 Zn28 1.977 . S
O37 C43 1.272 . S
O38 Zn28 1.910 . S
O38 C44 1.231 . S
C39 O23 1.225 . S
C39 O45 1.298 1_545 S
C40 O29 1.226 . S
C40 O30 1.307 1_545 S
C41 O33 1.303 . S
C41 O34 1.247 . S
C42 O31 1.253 . S
C42 O32 1.283 . S
C43 O35 1.304 . S
C43 O37 1.272 . S
C44 O36 1.311 . S
C44 O38 1.231 . S
O45 Zn27 1.953 . S
O45 C39 1.298 1_565 S
O46 Zn47 1.953 . S
O46 C62 1.225 . S
Zn47 O46 1.953 . S
Zn47 O48 1.949 . S
Zn47 O54 1.919 . S
Zn47 O59 1.924 . S
O48 Zn47 1.949 . S
O48 Zn49 1.923 . S
O48 Zn50 1.950 . S
O48 Zn51 1.945 . S
Zn49 O48 1.923 . S
Zn49 O52 1.933 . S
Zn49 O55 1.941 . S
Zn49 O56 1.965 . S
Zn50 O48 1.950 . S
Zn50 O57 1.938 . S
Zn50 O58 1.906 . S
Zn50 O68 1.953 . S
Zn51 O48 1.945 . S
Zn51 O53 1.932 . S
Zn51 O60 1.977 . S
Zn51 O61 1.910 . S
O52 Zn49 1.933 . S
O52 C63 1.226 . S
O53 Zn51 1.932 . S
O53 C63 1.307 . S
O54 Zn47 1.919 . S
O54 C65 1.253 . S
O55 Zn49 1.941 . S
O55 C65 1.283 . S
O56 Zn49 1.965 . S
O56 C64 1.303 . S
O57 Zn50 1.938 . S
O57 C64 1.247 . S
O58 Zn50 1.906 . S
O58 C66 1.304 . S
O59 Zn47 1.924 . S
O59 C67 1.311 . S
O60 Zn51 1.977 . S
O60 C66 1.272 . S
O61 Zn51 1.910 . S
O61 C67 1.231 . S
C62 O46 1.225 . S
C62 O68 1.298 . S
C63 O52 1.226 . S
C63 O53 1.307 . S
C64 O56 1.303 . S
C64 O57 1.247 . S
C65 O54 1.253 . S
C65 O55 1.283 . S
C66 O58 1.304 . S
C66 O60 1.272 . S
C67 O59 1.311 . S
C67 O61 1.231 . S
O68 Zn50 1.953 . S
O68 C62 1.298 . S
O69 Cd70 2.300 . S
O69 C76 1.275 . S
Cd70 O69 2.300 . S
Cd70 O78 2.381 . S
Cd70 O79 2.378 . S
O71 Cd72 2.385 . S
O71 C76 1.255 1_565 S
Cd72 O71 2.385 . S
Cd72 O73 2.317 . S
O73 Cd72 2.317 . S
O73 C74 1.232 . S
C74 O73 1.232 . S
C74 O75 1.218 . S
O75 C74 1.218 . S
C76 O69 1.275 . S
C76 O71 1.255 1_545 S
C77 O78 1.258 . S
C77 O79 1.256 . S
O78 Cd70 2.381 . S
O78 C77 1.258 . S
O79 Cd70 2.378 . S
O79 C77 1.256 . S
O80 Cd81 2.300 . S
O80 C87 1.275 . S
Cd81 O80 2.300 . S
Cd81 O89 2.381 . S
Cd81 O90 2.378 . S
O82 Cd83 2.385 . S
O82 C87 1.255 . S
Cd83 O82 2.385 . S
Cd83 O84 2.317 . S
O84 Cd83 2.317 . S
O84 C85 1.232 . S
C85 O84 1.232 . S
C85 O86 1.218 . S
O86 C85 1.218 . S
C87 O80 1.275 . S
C87 O82 1.255 . S
C88 O89 1.258 . S
C88 O90 1.256 . S
O89 Cd81 2.381 . S
O89 C88 1.258 . S
O90 Cd81 2.378 . S
O90 C88 1.256 . S
O91 Cd92 2.300 . S
O91 C98 1.275 . S
Cd92 O91 2.300 . S
Cd92 O100 2.381 . S
Cd92 O101 2.378 . S
O93 Cd94 2.385 . S
O93 C98 1.255 1_655 S
Cd94 O93 2.385 . S
Cd94 O95 2.317 . S
O95 Cd94 2.317 . S
O95 C96 1.232 . S
C96 O95 1.232 . S
C96 O97 1.218 . S
O97 C96 1.218 . S
C98 O91 1.275 . S
C98 O93 1.255 1_455 S
C99 O100 1.258 . S
C99 O101 1.256 . S
O100 Cd92 2.381 . S
O100 C99 1.258 . S
O101 Cd92 2.378 . S
O101 C99 1.256 . S
O102 Cd103 2.300 . S
O102 C109 1.275 1_455 S
Cd103 O102 2.300 . S
Cd103 O111 2.381 . S
Cd103 O112 2.378 . S
O104 Cd105 2.385 . S
O104 C109 1.255 . S
Cd105 O104 2.385 . S
Cd105 O106 2.317 . S
O106 Cd105 2.317 . S
O106 C107 1.232 . S
C107 O106 1.232 . S
C107 O108 1.218 . S
O108 C107 1.218 . S
C109 O102 1.275 1_655 S
C109 O104 1.255 . S
C110 O111 1.258 . S
C110 O112 1.256 . S
O111 Cd103 2.381 . S
O111 C110 1.258 . S
O112 Cd103 2.378 . S
O112 C110 1.256 . S
O113 Cd114 2.300 . S
O113 C120 1.275 1_565 S
Cd114 O113 2.300 . S
Cd114 O122 2.381 . S
Cd114 O123 2.378 . S
O115 Cd116 2.385 . S
O115 C120 1.255 . S
Cd116 O115 2.385 . S
Cd116 O117 2.317 . S
O117 Cd116 2.317 . S
O117 C118 1.232 . S
C118 O117 1.232 . S
C118 O119 1.218 . S
O119 C118 1.218 . S
C120 O113 1.275 1_545 S
C120 O115 1.255 . S
C121 O122 1.258 . S
C121 O123 1.256 . S
O122 Cd114 2.381 . S
O122 C121 1.258 . S
O123 Cd114 2.378 . S
O123 C121 1.256 . S
O124 Cd125 2.300 . S
O124 C131 1.275 . S
Cd125 O124 2.300 . S
Cd125 O133 2.381 . S
Cd125 O134 2.378 . S
O126 Cd127 2.385 . S
O126 C131 1.255 . S
Cd127 O126 2.385 . S
Cd127 O128 2.317 . S
O128 Cd127 2.317 . S
O128 C129 1.232 . S
C129 O128 1.232 . S
C129 O130 1.218 . S
O130 C129 1.218 . S
C131 O124 1.275 . S
C131 O126 1.255 . S
C132 O133 1.258 . S
C132 O134 1.256 . S
O133 Cd125 2.381 . S
O133 C132 1.258 . S
O134 Cd125 2.378 . S
O134 C132 1.256 . S
C135 C136 1.386 . S
C135 C137 1.383 . S
C135 H151 0.951 . S
C136 C135 1.386 . S
C136 C140 1.383 . S
C137 C135 1.383 . S
C137 C138 1.402 . S
C137 H152 0.951 . S
C138 C137 1.402 . S
C138 C139 1.375 . S
C138 C141 1.481 . S
C139 C138 1.375 . S
C139 C140 1.367 . S
C139 H153 0.951 . S
C140 C136 1.383 . S
C140 C139 1.367 . S
C140 H154 0.950 . S
C141 C138 1.481 . S
C141 C142 1.297 . S
C141 H155 0.950 . S
C142 C141 1.297 . S
C142 C143 1.479 . S
C142 H156 0.950 . S
C143 C142 1.479 . S
C143 C144 1.375 . S
C143 C149 1.404 . S
C144 C143 1.375 . S
C144 C145 1.369 . S
C144 H157 0.950 . S
C145 C144 1.369 . S
C145 C146 1.392 . S
C145 H158 0.951 . S
C146 C145 1.392 . S
C146 C148 1.384 . S
H147 C149 0.949 . S
C148 C146 1.384 . S
C148 C149 1.385 . S
C148 H150 0.950 . S
C149 C143 1.404 . S
C149 H147 0.949 . S
C149 C148 1.385 . S
H150 C148 0.950 . S
H151 C135 0.951 . S
H152 C137 0.951 . S
H153 C139 0.951 . S
H154 C140 0.950 . S
H155 C141 0.950 . S
H156 C142 0.950 . S
H157 C144 0.950 . S
H158 C145 0.951 . S
C159 C160 1.386 . S
C159 C161 1.383 . S
C159 H175 0.951 . S
C160 C159 1.386 . S
C160 C164 1.383 . S
C161 C159 1.383 . S
C161 C162 1.402 . S
C161 H176 0.951 . S
C162 C161 1.402 . S
C162 C163 1.375 . S
C162 C165 1.481 . S
C163 C162 1.375 . S
C163 C164 1.367 . S
C163 H177 0.951 . S
C164 C160 1.383 . S
C164 C163 1.367 . S
C164 H178 0.950 . S
C165 C162 1.481 . S
C165 C166 1.297 . S
C165 H179 0.950 . S
C166 C165 1.297 . S
C166 C167 1.479 . S
C166 H180 0.950 . S
C167 C166 1.479 . S
C167 C168 1.375 . S
C167 C173 1.404 . S
C168 C167 1.375 . S
C168 C169 1.369 . S
C168 H181 0.950 . S
C169 C168 1.369 . S
C169 C170 1.392 . S
C169 H182 0.951 . S
C170 C169 1.392 . S
C170 C172 1.384 . S
H171 C173 0.949 . S
C172 C170 1.384 . S
C172 C173 1.385 . S
C172 H174 0.950 . S
C173 C167 1.404 . S
C173 H171 0.949 . S
C173 C172 1.385 . S
H174 C172 0.950 . S
H175 C159 0.951 . S
H176 C161 0.951 . S
H177 C163 0.951 . S
H178 C164 0.950 . S
H179 C165 0.950 . S
H180 C166 0.950 . S
H181 C168 0.950 . S
H182 C169 0.951 . S
C183 C184 1.386 . S
C183 C185 1.383 . S
C183 H199 0.951 . S
C184 C183 1.386 . S
C184 C188 1.383 . S
C185 C183 1.383 . S
C185 C186 1.402 . S
C185 H200 0.951 . S
C186 C185 1.402 . S
C186 C187 1.375 . S
C186 C189 1.481 . S
C187 C186 1.375 . S
C187 C188 1.367 . S
C187 H201 0.951 . S
C188 C184 1.383 . S
C188 C187 1.367 . S
C188 H202 0.950 . S
C189 C186 1.481 . S
C189 C190 1.297 . S
C189 H203 0.950 . S
C190 C189 1.297 . S
C190 C191 1.479 . S
C190 H204 0.950 . S
C191 C190 1.479 . S
C191 C192 1.375 . S
C191 C197 1.404 . S
C192 C191 1.375 . S
C192 C193 1.369 . S
C192 H205 0.950 . S
C193 C192 1.369 . S
C193 C194 1.392 . S
C193 H206 0.951 . S
C194 C193 1.392 . S
C194 C196 1.384 . S
H195 C197 0.949 . S
C196 C194 1.384 . S
C196 C197 1.385 . S
C196 H198 0.950 . S
C197 C191 1.404 . S
C197 H195 0.949 . S
C197 C196 1.385 . S
H198 C196 0.950 . S
H199 C183 0.951 . S
H200 C185 0.951 . S
H201 C187 0.951 . S
H202 C188 0.950 . S
H203 C189 0.950 . S
H204 C190 0.950 . S
H205 C192 0.950 . S
H206 C193 0.951 . S
C207 C208 1.386 . S
C207 C209 1.383 . S
C207 H223 0.951 . S
C208 C207 1.386 . S
C208 C212 1.383 . S
C209 C207 1.383 . S
C209 C210 1.402 . S
C209 H224 0.951 . S
C210 C209 1.402 . S
C210 C211 1.375 . S
C210 C213 1.481 . S
C211 C210 1.375 . S
C211 C212 1.367 . S
C211 H225 0.951 . S
C212 C208 1.383 . S
C212 C211 1.367 . S
C212 H226 0.950 . S
C213 C210 1.481 . S
C213 C214 1.297 . S
C213 H227 0.950 . S
C214 C213 1.297 . S
C214 C215 1.479 . S
C214 H228 0.950 . S
C215 C214 1.479 . S
C215 C216 1.375 . S
C215 C221 1.404 . S
C216 C215 1.375 . S
C216 C217 1.369 . S
C216 H229 0.950 . S
C217 C216 1.369 . S
C217 C218 1.392 . S
C217 H230 0.951 . S
C218 C217 1.392 . S
C218 C220 1.384 . S
H219 C221 0.949 . S
C220 C218 1.384 . S
C220 C221 1.385 . S
C220 H222 0.950 . S
C221 C215 1.404 . S
C221 H219 0.949 . S
C221 C220 1.385 . S
H222 C220 0.950 . S
H223 C207 0.951 . S
H224 C209 0.951 . S
H225 C211 0.951 . S
H226 C212 0.950 . S
H227 C213 0.950 . S
H228 C214 0.950 . S
H229 C216 0.950 . S
H230 C217 0.951 . S
C231 C232 1.386 . S
C231 C233 1.383 . S
C231 H247 0.951 . S
C232 C231 1.386 . S
C232 C236 1.383 . S
C233 C231 1.383 . S
C233 C234 1.402 . S
C233 H248 0.951 . S
C234 C233 1.402 . S
C234 C235 1.375 . S
C234 C237 1.481 . S
C235 C234 1.375 . S
C235 C236 1.367 . S
C235 H249 0.951 . S
C236 C232 1.383 . S
C236 C235 1.367 . S
C236 H250 0.950 . S
C237 C234 1.481 . S
C237 C238 1.297 . S
C237 H251 0.950 . S
C238 C237 1.297 . S
C238 C239 1.479 . S
C238 H252 0.950 . S
C239 C238 1.479 . S
C239 C240 1.375 . S
C239 C245 1.404 . S
C240 C239 1.375 . S
C240 C241 1.369 . S
C240 H253 0.950 . S
C241 C240 1.369 . S
C241 C242 1.392 . S
C241 H254 0.951 . S
C242 C241 1.392 . S
C242 C244 1.384 . S
H243 C245 0.949 . S
C244 C242 1.384 . S
C244 C245 1.385 . S
C244 H246 0.950 . S
C245 C239 1.404 . S
C245 H243 0.949 . S
C245 C244 1.385 . S
H246 C244 0.950 . S
H247 C231 0.951 . S
H248 C233 0.951 . S
H249 C235 0.951 . S
H250 C236 0.950 . S
H251 C237 0.950 . S
H252 C238 0.950 . S
H253 C240 0.950 . S
H254 C241 0.951 . S
C255 C256 1.386 . S
C255 C257 1.383 . S
C255 H271 0.951 . S
C256 C255 1.386 . S
C256 C260 1.383 . S
C257 C255 1.383 . S
C257 C258 1.402 . S
C257 H272 0.951 . S
C258 C257 1.402 . S
C258 C259 1.375 . S
C258 C261 1.481 . S
C259 C258 1.375 . S
C259 C260 1.367 . S
C259 H273 0.951 . S
C260 C256 1.383 . S
C260 C259 1.367 . S
C260 H274 0.950 . S
C261 C258 1.481 . S
C261 C262 1.297 . S
C261 H275 0.950 . S
C262 C261 1.297 . S
C262 C263 1.479 . S
C262 H276 0.950 . S
C263 C262 1.479 . S
C263 C264 1.375 . S
C263 C269 1.404 . S
C264 C263 1.375 . S
C264 C265 1.369 . S
C264 H277 0.950 . S
C265 C264 1.369 . S
C265 C266 1.392 . S
C265 H278 0.951 . S
C266 C265 1.392 . S
C266 C268 1.384 . S
H267 C269 0.949 . S
C268 C266 1.384 . S
C268 C269 1.385 . S
C268 H270 0.950 . S
C269 C263 1.404 . S
C269 H267 0.949 . S
C269 C268 1.385 . S
H270 C268 0.950 . S
H271 C255 0.951 . S
H272 C257 0.951 . S
H273 C259 0.951 . S
H274 C260 0.950 . S
H275 C261 0.950 . S
H276 C262 0.950 . S
H277 C264 0.950 . S
H278 C265 0.951 . S
C279 C280 1.386 . S
C279 C281 1.383 . S
C279 H295 0.951 . S
C280 C279 1.386 . S
C280 C284 1.383 . S
C281 C279 1.383 . S
C281 C282 1.402 . S
C281 H296 0.951 . S
C282 C281 1.402 . S
C282 C283 1.375 . S
C282 C285 1.481 . S
C283 C282 1.375 . S
C283 C284 1.367 . S
C283 H297 0.951 . S
C284 C280 1.383 . S
C284 C283 1.367 . S
C284 H298 0.950 . S
C285 C282 1.481 . S
C285 C286 1.297 . S
C285 H299 0.950 . S
C286 C285 1.297 . S
C286 C287 1.479 . S
C286 H300 0.950 . S
C287 C286 1.479 . S
C287 C288 1.375 . S
C287 C293 1.404 . S
C288 C287 1.375 . S
C288 C289 1.369 . S
C288 H301 0.950 . S
C289 C288 1.369 . S
C289 C290 1.392 . S
C289 H302 0.951 . S
C290 C289 1.392 . S
C290 C292 1.384 . S
H291 C293 0.949 . S
C292 C290 1.384 . S
C292 C293 1.385 . S
C292 H294 0.950 . S
C293 C287 1.404 . S
C293 H291 0.949 . S
C293 C292 1.385 . S
H294 C292 0.950 . S
H295 C279 0.951 . S
H296 C281 0.951 . S
H297 C283 0.951 . S
H298 C284 0.950 . S
H299 C285 0.950 . S
H300 C286 0.950 . S
H301 C288 0.950 . S
H302 C289 0.951 . S
C303 C304 1.386 . S
C303 C305 1.383 . S
C303 H319 0.951 . S
C304 C303 1.386 . S
C304 C308 1.383 . S
C305 C303 1.383 . S
C305 C306 1.402 . S
C305 H320 0.951 . S
C306 C305 1.402 . S
C306 C307 1.375 . S
C306 C309 1.481 . S
C307 C306 1.375 . S
C307 C308 1.367 . S
C307 H321 0.951 . S
C308 C304 1.383 . S
C308 C307 1.367 . S
C308 H322 0.950 . S
C309 C306 1.481 . S
C309 C310 1.297 . S
C309 H323 0.950 . S
C310 C309 1.297 . S
C310 C311 1.479 . S
C310 H324 0.950 . S
C311 C310 1.479 . S
C311 C312 1.375 . S
C311 C317 1.404 . S
C312 C311 1.375 . S
C312 C313 1.369 . S
C312 H325 0.950 . S
C313 C312 1.369 . S
C313 C314 1.392 . S
C313 H326 0.951 . S
C314 C313 1.392 . S
C314 C316 1.384 . S
H315 C317 0.949 . S
C316 C314 1.384 . S
C316 C317 1.385 . S
C316 H318 0.950 . S
C317 C311 1.404 . S
C317 H315 0.949 . S
C317 C316 1.385 . S
H318 C316 0.950 . S
H319 C303 0.951 . S
H320 C305 0.951 . S
H321 C307 0.951 . S
H322 C308 0.950 . S
H323 C309 0.950 . S
H324 C310 0.950 . S
H325 C312 0.950 . S
H326 C313 0.951 . S
C327 C328 1.386 . S
C327 C329 1.383 . S
C327 H343 0.951 . S
C328 C327 1.386 . S
C328 C332 1.383 . S
C329 C327 1.383 . S
C329 C330 1.402 . S
C329 H344 0.951 . S
C330 C329 1.402 . S
C330 C331 1.375 . S
C330 C333 1.481 . S
C331 C330 1.375 . S
C331 C332 1.367 . S
C331 H345 0.951 . S
C332 C328 1.383 . S
C332 C331 1.367 . S
C332 H346 0.950 . S
C333 C330 1.481 . S
C333 C334 1.297 . S
C333 H347 0.950 . S
C334 C333 1.297 . S
C334 C335 1.479 . S
C334 H348 0.950 . S
C335 C334 1.479 . S
C335 C336 1.375 . S
C335 C341 1.404 . S
C336 C335 1.375 . S
C336 C337 1.369 . S
C336 H349 0.950 . S
C337 C336 1.369 . S
C337 C338 1.392 . S
C337 H350 0.951 . S
C338 C337 1.392 . S
C338 C340 1.384 . S
H339 C341 0.949 . S
C340 C338 1.384 . S
C340 C341 1.385 . S
C340 H342 0.950 . S
C341 C335 1.404 . S
C341 H339 0.949 . S
C341 C340 1.385 . S
H342 C340 0.950 . S
H343 C327 0.951 . S
H344 C329 0.951 . S
H345 C331 0.951 . S
H346 C332 0.950 . S
H347 C333 0.950 . S
H348 C334 0.950 . S
H349 C336 0.950 . S
H350 C337 0.951 . S
C351 C352 1.386 . S
C351 C353 1.383 . S
C351 H367 0.951 . S
C352 C351 1.386 . S
C352 C356 1.383 . S
C353 C351 1.383 . S
C353 C354 1.402 . S
C353 H368 0.951 . S
C354 C353 1.402 . S
C354 C355 1.375 . S
C354 C357 1.481 . S
C355 C354 1.375 . S
C355 C356 1.367 . S
C355 H369 0.951 . S
C356 C352 1.383 . S
C356 C355 1.367 . S
C356 H370 0.950 . S
C357 C354 1.481 . S
C357 C358 1.297 . S
C357 H371 0.950 . S
C358 C357 1.297 . S
C358 C359 1.479 . S
C358 H372 0.950 . S
C359 C358 1.479 . S
C359 C360 1.375 . S
C359 C365 1.404 . S
C360 C359 1.375 . S
C360 C361 1.369 . S
C360 H373 0.950 . S
C361 C360 1.369 . S
C361 C362 1.392 . S
C361 H374 0.951 . S
C362 C361 1.392 . S
C362 C364 1.384 . S
H363 C365 0.949 . S
C364 C362 1.384 . S
C364 C365 1.385 . S
C364 H366 0.950 . S
C365 C359 1.404 . S
C365 H363 0.949 . S
C365 C364 1.385 . S
H366 C364 0.950 . S
H367 C351 0.951 . S
H368 C353 0.951 . S
H369 C355 0.951 . S
H370 C356 0.950 . S
H371 C357 0.950 . S
H372 C358 0.950 . S
H373 C360 0.950 . S
H374 C361 0.951 . S
C375 C376 1.386 . S
C375 C377 1.383 . S
C375 H391 0.951 . S
C376 C375 1.386 . S
C376 C380 1.383 . S
C377 C375 1.383 . S
C377 C378 1.402 . S
C377 H392 0.951 . S
C378 C377 1.402 . S
C378 C379 1.375 . S
C378 C381 1.481 . S
C379 C378 1.375 . S
C379 C380 1.367 . S
C379 H393 0.951 . S
C380 C376 1.383 . S
C380 C379 1.367 . S
C380 H394 0.950 . S
C381 C378 1.481 . S
C381 C382 1.297 . S
C381 H395 0.950 . S
C382 C381 1.297 . S
C382 C383 1.479 . S
C382 H396 0.950 . S
C383 C382 1.479 . S
C383 C384 1.375 . S
C383 C389 1.404 . S
C384 C383 1.375 . S
C384 C385 1.369 . S
C384 H397 0.950 . S
C385 C384 1.369 . S
C385 C386 1.392 . S
C385 H398 0.951 . S
C386 C385 1.392 . S
C386 C388 1.384 . S
H387 C389 0.949 . S
C388 C386 1.384 . S
C388 C389 1.385 . S
C388 H390 0.950 . S
C389 C383 1.404 . S
C389 H387 0.949 . S
C389 C388 1.385 . S
H390 C388 0.950 . S
H391 C375 0.951 . S
H392 C377 0.951 . S
H393 C379 0.951 . S
H394 C380 0.950 . S
H395 C381 0.950 . S
H396 C382 0.950 . S
H397 C384 0.950 . S
H398 C385 0.951 . S
C399 C400 1.386 . S
C399 C401 1.383 . S
C399 H415 0.951 . S
C400 C399 1.386 . S
C400 C404 1.383 . S
C401 C399 1.383 . S
C401 C402 1.402 . S
C401 H416 0.951 . S
C402 C401 1.402 . S
C402 C403 1.375 . S
C402 C405 1.481 . S
C403 C402 1.375 . S
C403 C404 1.367 . S
C403 H417 0.951 . S
C404 C400 1.383 . S
C404 C403 1.367 . S
C404 H418 0.950 . S
C405 C402 1.481 . S
C405 C406 1.297 . S
C405 H419 0.950 . S
C406 C405 1.297 . S
C406 C407 1.479 . S
C406 H420 0.950 . S
C407 C406 1.479 . S
C407 C408 1.375 . S
C407 C413 1.404 . S
C408 C407 1.375 . S
C408 C409 1.369 . S
C408 H421 0.950 . S
C409 C408 1.369 . S
C409 C410 1.392 . S
C409 H422 0.951 . S
C410 C409 1.392 . S
C410 C412 1.384 . S
H411 C413 0.949 . S
C412 C410 1.384 . S
C412 C413 1.385 . S
C412 H414 0.950 . S
C413 C407 1.404 . S
C413 H411 0.949 . S
C413 C412 1.385 . S
H414 C412 0.950 . S
H415 C399 0.951 . S
H416 C401 0.951 . S
H417 C403 0.951 . S
H418 C404 0.950 . S
H419 C405 0.950 . S
H420 C406 0.950 . S
H421 C408 0.950 . S
H422 C409 0.951 . S
C423 C424 1.386 1_655 S
C423 C425 1.383 . S
C423 H439 0.951 . S
C424 C423 1.386 1_455 S
C424 C428 1.383 . S
C425 C423 1.383 . S
C425 C426 1.402 1_655 S
C425 H440 0.951 . S
C426 C425 1.402 1_455 S
C426 C427 1.375 . S
C426 C429 1.481 . S
C427 C426 1.375 . S
C427 C428 1.367 . S
C427 H441 0.951 . S
C428 C424 1.383 . S
C428 C427 1.367 . S
C428 H442 0.950 . S
C429 C426 1.481 . S
C429 C430 1.297 1_455 S
C429 H443 0.950 . S
C430 C429 1.297 1_655 S
C430 C431 1.479 1_554 S
C430 H444 0.950 . S
C431 C430 1.479 1_556 S
C431 C432 1.375 . S
C431 C437 1.404 1_655 S
C432 C431 1.375 . S
C432 C433 1.369 . S
C432 H445 0.950 . S
C433 C432 1.369 . S
C433 C434 1.392 1_655 S
C433 H446 0.951 . S
C434 C433 1.392 1_455 S
C434 C436 1.384 . S
H435 C437 0.949 . S
C436 C434 1.384 . S
C436 C437 1.385 . S
C436 H438 0.950 . S
C437 C431 1.404 1_455 S
C437 H435 0.949 . S
C437 C436 1.385 . S
H438 C436 0.950 . S
H439 C423 0.951 . S
H440 C425 0.951 . S
H441 C427 0.951 . S
H442 C428 0.950 . S
H443 C429 0.950 . S
H444 C430 0.950 . S
H445 C432 0.950 . S
H446 C433 0.951 . S
C447 C448 1.386 . S
C447 C449 1.383 . S
C447 H463 0.951 . S
C448 C447 1.386 . S
C448 C452 1.383 1_545 S
C449 C447 1.383 . S
C449 C450 1.402 1_545 S
C449 H464 0.951 . S
C450 C449 1.402 1_565 S
C450 C451 1.375 . S
C450 C453 1.481 . S
C451 C450 1.375 . S
C451 C452 1.367 . S
C451 H465 0.951 . S
C452 C448 1.383 1_565 S
C452 C451 1.367 . S
C452 H466 0.950 . S
C453 C450 1.481 . S
C453 C454 1.297 1_565 S
C453 H467 0.950 . S
C454 C453 1.297 1_545 S
C454 C455 1.479 1_545 S
C454 H468 0.950 . S
C455 C454 1.479 1_565 S
C455 C456 1.375 1_565 S
C455 C461 1.404 . S
C456 C455 1.375 1_545 S
C456 C457 1.369 . S
C456 H469 0.950 . S
C457 C456 1.369 . S
C457 C458 1.392 . S
C457 H470 0.951 . S
C458 C457 1.392 . S
C458 C460 1.384 1_545 S
H459 C461 0.949 . S
C460 C458 1.384 1_565 S
C460 C461 1.385 . S
C460 H462 0.950 . S
C461 C455 1.404 . S
C461 H459 0.949 . S
C461 C460 1.385 . S
H462 C460 0.950 . S
H463 C447 0.951 . S
H464 C449 0.951 . S
H465 C451 0.951 . S
H466 C452 0.950 . S
H467 C453 0.950 . S
H468 C454 0.950 . S
H469 C456 0.950 . S
H470 C457 0.951 . S
C471 C472 1.386 . S
C471 C473 1.383 . S
C471 H487 0.951 . S
C472 C471 1.386 . S
C472 C476 1.383 . S
C473 C471 1.383 . S
C473 C474 1.402 . S
C473 H488 0.951 . S
C474 C473 1.402 . S
C474 C475 1.375 . S
C474 C477 1.481 . S
C475 C474 1.375 . S
C475 C476 1.367 . S
C475 H489 0.951 . S
C476 C472 1.383 . S
C476 C475 1.367 . S
C476 H490 0.950 . S
C477 C474 1.481 . S
C477 C478 1.297 . S
C477 H491 0.950 . S
C478 C477 1.297 . S
C478 C479 1.479 . S
C478 H492 0.950 . S
C479 C478 1.479 . S
C479 C480 1.375 . S
C479 C485 1.404 . S
C480 C479 1.375 . S
C480 C481 1.369 . S
C480 H493 0.950 . S
C481 C480 1.369 . S
C481 C482 1.392 . S
C481 H494 0.951 . S
C482 C481 1.392 . S
C482 C484 1.384 . S
H483 C485 0.949 . S
C484 C482 1.384 . S
C484 C485 1.385 . S
C484 H486 0.950 . S
C485 C479 1.404 . S
C485 H483 0.949 . S
C485 C484 1.385 . S
H486 C484 0.950 . S
H487 C471 0.951 . S
H488 C473 0.951 . S
H489 C475 0.951 . S
H490 C476 0.950 . S
H491 C477 0.950 . S
H492 C478 0.950 . S
H493 C480 0.950 . S
H494 C481 0.951 . S
C495 C496 1.386 1_565 S
C495 C497 1.383 . S
C495 H511 0.951 . S
C496 C495 1.386 1_545 S
C496 C500 1.383 . S
C497 C495 1.383 . S
C497 C498 1.402 1_565 S
C497 H512 0.951 . S
C498 C497 1.402 1_545 S
C498 C499 1.375 . S
C498 C501 1.481 . S
C499 C498 1.375 . S
C499 C500 1.367 . S
C499 H513 0.951 . S
C500 C496 1.383 . S
C500 C499 1.367 . S
C500 H514 0.950 . S
C501 C498 1.481 . S
C501 C502 1.297 . S
C501 H515 0.950 . S
C502 C501 1.297 . S
C502 C503 1.479 . S
C502 H516 0.950 1_545 S
C503 C502 1.479 . S
C503 C504 1.375 1_545 S
C503 C509 1.404 . S
C504 C503 1.375 1_565 S
C504 C505 1.369 . S
C504 H517 0.950 . S
C505 C504 1.369 . S
C505 C506 1.392 1_565 S
C505 H518 0.951 . S
C506 C505 1.392 1_545 S
C506 C508 1.384 . S
H507 C509 0.949 . S
C508 C506 1.384 . S
C508 C509 1.385 . S
C508 H510 0.950 . S
C509 C503 1.404 . S
C509 H507 0.949 . S
C509 C508 1.385 . S
H510 C508 0.950 . S
H511 C495 0.951 . S
H512 C497 0.951 . S
H513 C499 0.951 . S
H514 C500 0.950 . S
H515 C501 0.950 . S
H516 C502 0.950 1_565 S
H517 C504 0.950 . S
H518 C505 0.951 . S
C519 C520 1.386 . S
C519 C521 1.383 . S
C519 H535 0.951 . S
C520 C519 1.386 . S
C520 C524 1.383 . S
C521 C519 1.383 . S
C521 C522 1.402 . S
C521 H536 0.951 . S
C522 C521 1.402 . S
C522 C523 1.375 . S
C522 C525 1.481 . S
C523 C522 1.375 . S
C523 C524 1.367 . S
C523 H537 0.951 . S
C524 C520 1.383 . S
C524 C523 1.367 . S
C524 H538 0.950 . S
C525 C522 1.481 . S
C525 C526 1.297 . S
C525 H539 0.950 . S
C526 C525 1.297 . S
C526 C527 1.479 1_556 S
C526 H540 0.950 . S
C527 C526 1.479 1_554 S
C527 C528 1.375 . S
C527 C533 1.404 . S
C528 C527 1.375 . S
C528 C529 1.369 . S
C528 H541 0.950 . S
C529 C528 1.369 . S
C529 C530 1.392 . S
C529 H542 0.951 . S
C530 C529 1.392 . S
C530 C532 1.384 . S
H531 C533 0.949 . S
C532 C530 1.384 . S
C532 C533 1.385 . S
C532 H534 0.950 . S
C533 C527 1.404 . S
C533 H531 0.949 . S
C533 C532 1.385 . S
H534 C532 0.950 . S
H535 C519 0.951 . S
H536 C521 0.951 . S
H537 C523 0.951 . S
H538 C524 0.950 . S
H539 C525 0.950 . S
H540 C526 0.950 . S
H541 C528 0.950 . S
H542 C529 0.951 . S
C543 C544 1.386 1_655 S
C543 C545 1.383 . S
C543 H559 0.951 . S
C544 C543 1.386 1_455 S
C544 C548 1.383 . S
C545 C543 1.383 . S
C545 C546 1.402 . S
C545 H560 0.951 . S
C546 C545 1.402 . S
C546 C547 1.375 1_655 S
C546 C549 1.481 . S
C547 C546 1.375 1_455 S
C547 C548 1.367 . S
C547 H561 0.951 . S
C548 C544 1.383 . S
C548 C547 1.367 . S
C548 H562 0.950 . S
C549 C546 1.481 . S
C549 C550 1.297 . S
C549 H563 0.950 1_655 S
C550 C549 1.297 . S
C550 C551 1.479 . S
C550 H564 0.950 . S
C551 C550 1.479 . S
C551 C552 1.375 . S
C551 C557 1.404 . S
C552 C551 1.375 . S
C552 C553 1.369 . S
C552 H565 0.950 . S
C553 C552 1.369 . S
C553 C554 1.392 . S
C553 H566 0.951 . S
C554 C553 1.392 . S
C554 C556 1.384 . S
H555 C557 0.949 . S
C556 C554 1.384 . S
C556 C557 1.385 . S
C556 H558 0.950 1_655 S
C557 C551 1.404 . S
C557 H555 0.949 . S
C557 C556 1.385 . S
H558 C556 0.950 1_455 S
H559 C543 0.951 . S
H560 C545 0.951 . S
H561 C547 0.951 . S
H562 C548 0.950 . S
H563 C549 0.950 1_455 S
H564 C550 0.950 . S
H565 C552 0.950 . S
H566 C553 0.951 . S
C136 C20 1.360 . S
C146 C129 1.259 . S
C160 C41 1.431 . S
C170 C107 1.339 . S
C184 C64 1.065 . S
C194 C121 0.992 . S
C208 C19 0.996 . S
C218 C132 1.019 . S
C242 C110 1.070 . S
C232 C44 1.014 . S
C266 C118 1.194 . S
C256 C67 1.402 . S
C280 C43 1.387 . S
C290 C85 1.308 . S
C304 C66 1.377 . S
C314 C96 1.253 . S
C328 C21 1.430 . S
C338 C74 1.339 . S
C362 C88 1.089 . S
C352 C42 1.007 . S
C386 C99 1.085 . S
C376 C65 1.042 . S
C400 C18 1.055 . S
C410 C77 0.974 . S
C434 C98 1.470 . S
C424 C17 1.496 . S
C448 C39 1.489 . S
C458 C76 1.392 . S
C472 C62 1.507 . S
C482 C87 1.381 . S
C506 C120 1.365 . S
C496 C40 1.471 . S
C530 C131 1.401 . S
C520 C63 1.493 . S
C544 C16 1.492 . S
C554 C109 1.454 . S
