# Generated by pormake.
# Topology ana-f, (3,3)-cn, num edge types: 1
# Building blocks:
#     Node 0, Type 0, BuildingBlock: WUSLED_clean_sbu_0, # of connection points: 3
#     Node 1, Type 0, BuildingBlock: WUSLED_clean_sbu_0, # of connection points: 3
#     Node 2, Type 0, BuildingBlock: WUSLED_clean_sbu_0, # of connection points: 3
#     Node 3, Type 0, BuildingBlock: WUSLED_clean_sbu_0, # of connection points: 3
#     Node 4, Type 0, BuildingBlock: WUSLED_clean_sbu_0, # of connection points: 3
#     Node 5, Type 0, BuildingBlock: WUSLED_clean_sbu_0, # of connection points: 3
#     Node 6, Type 0, BuildingBlock: WUSLED_clean_sbu_0, # of connection points: 3
#     Node 7, Type 0, BuildingBlock: WUSLED_clean_sbu_0, # of connection points: 3
#     Node 8, Type 0, BuildingBlock: WUSLED_clean_sbu_0, # of connection points: 3
#     Node 9, Type 0, BuildingBlock: WUSLED_clean_sbu_0, # of connection points: 3
#     Node 10, Type 0, BuildingBlock: WUSLED_clean_sbu_0, # of connection points: 3
#     Node 11, Type 0, BuildingBlock: WUSLED_clean_sbu_0, # of connection points: 3
#     Node 12, Type 0, BuildingBlock: WUSLED_clean_sbu_0, # of connection points: 3
#     Node 13, Type 0, BuildingBlock: WUSLED_clean_sbu_0, # of connection points: 3
#     Node 14, Type 0, BuildingBlock: WUSLED_clean_sbu_0, # of connection points: 3
#     Node 15, Type 0, BuildingBlock: WUSLED_clean_sbu_0, # of connection points: 3
#     Node 16, Type 0, BuildingBlock: WUSLED_clean_sbu_0, # of connection points: 3
#     Node 17, Type 0, BuildingBlock: WUSLED_clean_sbu_0, # of connection points: 3
#     Node 18, Type 0, BuildingBlock: WUSLED_clean_sbu_0, # of connection points: 3
#     Node 19, Type 0, BuildingBlock: WUSLED_clean_sbu_0, # of connection points: 3
#     Node 20, Type 0, BuildingBlock: WUSLED_clean_sbu_0, # of connection points: 3
#     Node 21, Type 0, BuildingBlock: WUSLED_clean_sbu_0, # of connection points: 3
#     Node 22, Type 0, BuildingBlock: WUSLED_clean_sbu_0, # of connection points: 3
#     Node 23, Type 0, BuildingBlock: WUSLED_clean_sbu_0, # of connection points: 3
#     Node 24, Type 0, BuildingBlock: WUSLED_clean_sbu_0, # of connection points: 3
#     Node 25, Type 0, BuildingBlock: WUSLED_clean_sbu_0, # of connection points: 3
#     Node 26, Type 0, BuildingBlock: WUSLED_clean_sbu_0, # of connection points: 3
#     Node 27, Type 0, BuildingBlock: WUSLED_clean_sbu_0, # of connection points: 3
#     Node 28, Type 0, BuildingBlock: WUSLED_clean_sbu_0, # of connection points: 3
#     Node 29, Type 0, BuildingBlock: WUSLED_clean_sbu_0, # of connection points: 3
#     Node 30, Type 0, BuildingBlock: WUSLED_clean_sbu_0, # of connection points: 3
#     Node 31, Type 0, BuildingBlock: WUSLED_clean_sbu_0, # of connection points: 3
#     Node 32, Type 0, BuildingBlock: WUSLED_clean_sbu_0, # of connection points: 3
#     Node 33, Type 0, BuildingBlock: WUSLED_clean_sbu_0, # of connection points: 3
#     Node 34, Type 0, BuildingBlock: WUSLED_clean_sbu_0, # of connection points: 3
#     Node 35, Type 0, BuildingBlock: WUSLED_clean_sbu_0, # of connection points: 3
#     Node 36, Type 0, BuildingBlock: WUSLED_clean_sbu_0, # of connection points: 3
#     Node 37, Type 0, BuildingBlock: WUSLED_clean_sbu_0, # of connection points: 3
#     Node 38, Type 0, BuildingBlock: WUSLED_clean_sbu_0, # of connection points: 3
#     Node 39, Type 0, BuildingBlock: WUSLED_clean_sbu_0, # of connection points: 3
#     Node 40, Type 0, BuildingBlock: WUSLED_clean_sbu_0, # of connection points: 3
#     Node 41, Type 0, BuildingBlock: WUSLED_clean_sbu_0, # of connection points: 3
#     Node 42, Type 0, BuildingBlock: WUSLED_clean_sbu_0, # of connection points: 3
#     Node 43, Type 0, BuildingBlock: WUSLED_clean_sbu_0, # of connection points: 3
#     Node 44, Type 0, BuildingBlock: WUSLED_clean_sbu_0, # of connection points: 3
#     Node 45, Type 0, BuildingBlock: WUSLED_clean_sbu_0, # of connection points: 3
#     Node 46, Type 0, BuildingBlock: WUSLED_clean_sbu_0, # of connection points: 3
#     Node 47, Type 0, BuildingBlock: WUSLED_clean_sbu_0, # of connection points: 3
#     Node 48, Type 0, BuildingBlock: WUSLED_clean_sbu_0, # of connection points: 3
#     Node 49, Type 0, BuildingBlock: WUSLED_clean_sbu_0, # of connection points: 3
#     Node 50, Type 0, BuildingBlock: WUSLED_clean_sbu_0, # of connection points: 3
#     Node 51, Type 0, BuildingBlock: WUSLED_clean_sbu_0, # of connection points: 3
#     Node 52, Type 0, BuildingBlock: WUSLED_clean_sbu_0, # of connection points: 3
#     Node 53, Type 0, BuildingBlock: WUSLED_clean_sbu_0, # of connection points: 3
#     Node 54, Type 0, BuildingBlock: WUSLED_clean_sbu_0, # of connection points: 3
#     Node 55, Type 0, BuildingBlock: WUSLED_clean_sbu_0, # of connection points: 3
#     Node 56, Type 0, BuildingBlock: WUSLED_clean_sbu_0, # of connection points: 3
#     Node 57, Type 0, BuildingBlock: WUSLED_clean_sbu_0, # of connection points: 3
#     Node 58, Type 0, BuildingBlock: WUSLED_clean_sbu_0, # of connection points: 3
#     Node 59, Type 0, BuildingBlock: WUSLED_clean_sbu_0, # of connection points: 3
#     Node 60, Type 0, BuildingBlock: WUSLED_clean_sbu_0, # of connection points: 3
#     Node 61, Type 0, BuildingBlock: WUSLED_clean_sbu_0, # of connection points: 3
#     Node 62, Type 0, BuildingBlock: WUSLED_clean_sbu_0, # of connection points: 3
#     Node 63, Type 0, BuildingBlock: WUSLED_clean_sbu_0, # of connection points: 3
#     Node 64, Type 0, BuildingBlock: WUSLED_clean_sbu_0, # of connection points: 3
#     Node 65, Type 0, BuildingBlock: WUSLED_clean_sbu_0, # of connection points: 3
#     Node 66, Type 0, BuildingBlock: WUSLED_clean_sbu_0, # of connection points: 3
#     Node 67, Type 0, BuildingBlock: WUSLED_clean_sbu_0, # of connection points: 3
#     Node 68, Type 0, BuildingBlock: WUSLED_clean_sbu_0, # of connection points: 3
#     Node 69, Type 0, BuildingBlock: WUSLED_clean_sbu_0, # of connection points: 3
#     Node 70, Type 0, BuildingBlock: WUSLED_clean_sbu_0, # of connection points: 3
#     Node 71, Type 0, BuildingBlock: WUSLED_clean_sbu_0, # of connection points: 3
#     Node 72, Type 0, BuildingBlock: WUSLED_clean_sbu_0, # of connection points: 3
#     Node 73, Type 0, BuildingBlock: WUSLED_clean_sbu_0, # of connection points: 3
#     Node 74, Type 0, BuildingBlock: WUSLED_clean_sbu_0, # of connection points: 3
#     Node 75, Type 0, BuildingBlock: WUSLED_clean_sbu_0, # of connection points: 3
#     Node 76, Type 0, BuildingBlock: WUSLED_clean_sbu_0, # of connection points: 3
#     Node 77, Type 0, BuildingBlock: WUSLED_clean_sbu_0, # of connection points: 3
#     Node 78, Type 0, BuildingBlock: WUSLED_clean_sbu_0, # of connection points: 3
#     Node 79, Type 0, BuildingBlock: WUSLED_clean_sbu_0, # of connection points: 3
#     Node 80, Type 0, BuildingBlock: WUSLED_clean_sbu_0, # of connection points: 3
#     Node 81, Type 0, BuildingBlock: WUSLED_clean_sbu_0, # of connection points: 3
#     Node 82, Type 0, BuildingBlock: WUSLED_clean_sbu_0, # of connection points: 3
#     Node 83, Type 0, BuildingBlock: WUSLED_clean_sbu_0, # of connection points: 3
#     Node 84, Type 0, BuildingBlock: WUSLED_clean_sbu_0, # of connection points: 3
#     Node 85, Type 0, BuildingBlock: WUSLED_clean_sbu_0, # of connection points: 3
#     Node 86, Type 0, BuildingBlock: WUSLED_clean_sbu_0, # of connection points: 3
#     Node 87, Type 0, BuildingBlock: WUSLED_clean_sbu_0, # of connection points: 3
#     Node 88, Type 0, BuildingBlock: WUSLED_clean_sbu_0, # of connection points: 3
#     Node 89, Type 0, BuildingBlock: WUSLED_clean_sbu_0, # of connection points: 3
#     Node 90, Type 0, BuildingBlock: WUSLED_clean_sbu_0, # of connection points: 3
#     Node 91, Type 0, BuildingBlock: WUSLED_clean_sbu_0, # of connection points: 3
#     Node 92, Type 0, BuildingBlock: WUSLED_clean_sbu_0, # of connection points: 3
#     Node 93, Type 0, BuildingBlock: WUSLED_clean_sbu_0, # of connection points: 3
#     Node 94, Type 0, BuildingBlock: WUSLED_clean_sbu_0, # of connection points: 3
#     Node 95, Type 0, BuildingBlock: WUSLED_clean_sbu_0, # of connection points: 3
#     Node 96, Type 1, BuildingBlock: OLANEW_clean_sbu_2, # of connection points: 3
#     Node 97, Type 1, BuildingBlock: OLANEW_clean_sbu_2, # of connection points: 3
#     Node 98, Type 1, BuildingBlock: OLANEW_clean_sbu_2, # of connection points: 3
#     Node 99, Type 1, BuildingBlock: OLANEW_clean_sbu_2, # of connection points: 3
#     Node 100, Type 1, BuildingBlock: OLANEW_clean_sbu_2, # of connection points: 3
#     Node 101, Type 1, BuildingBlock: OLANEW_clean_sbu_2, # of connection points: 3
#     Node 102, Type 1, BuildingBlock: OLANEW_clean_sbu_2, # of connection points: 3
#     Node 103, Type 1, BuildingBlock: OLANEW_clean_sbu_2, # of connection points: 3
#     Node 104, Type 1, BuildingBlock: OLANEW_clean_sbu_2, # of connection points: 3
#     Node 105, Type 1, BuildingBlock: OLANEW_clean_sbu_2, # of connection points: 3
#     Node 106, Type 1, BuildingBlock: OLANEW_clean_sbu_2, # of connection points: 3
#     Node 107, Type 1, BuildingBlock: OLANEW_clean_sbu_2, # of connection points: 3
#     Node 108, Type 1, BuildingBlock: OLANEW_clean_sbu_2, # of connection points: 3
#     Node 109, Type 1, BuildingBlock: OLANEW_clean_sbu_2, # of connection points: 3
#     Node 110, Type 1, BuildingBlock: OLANEW_clean_sbu_2, # of connection points: 3
#     Node 111, Type 1, BuildingBlock: OLANEW_clean_sbu_2, # of connection points: 3
#     Node 112, Type 1, BuildingBlock: OLANEW_clean_sbu_2, # of connection points: 3
#     Node 113, Type 1, BuildingBlock: OLANEW_clean_sbu_2, # of connection points: 3
#     Node 114, Type 1, BuildingBlock: OLANEW_clean_sbu_2, # of connection points: 3
#     Node 115, Type 1, BuildingBlock: OLANEW_clean_sbu_2, # of connection points: 3
#     Node 116, Type 1, BuildingBlock: OLANEW_clean_sbu_2, # of connection points: 3
#     Node 117, Type 1, BuildingBlock: OLANEW_clean_sbu_2, # of connection points: 3
#     Node 118, Type 1, BuildingBlock: OLANEW_clean_sbu_2, # of connection points: 3
#     Node 119, Type 1, BuildingBlock: OLANEW_clean_sbu_2, # of connection points: 3
#     Node 120, Type 1, BuildingBlock: OLANEW_clean_sbu_2, # of connection points: 3
#     Node 121, Type 1, BuildingBlock: OLANEW_clean_sbu_2, # of connection points: 3
#     Node 122, Type 1, BuildingBlock: OLANEW_clean_sbu_2, # of connection points: 3
#     Node 123, Type 1, BuildingBlock: OLANEW_clean_sbu_2, # of connection points: 3
#     Node 124, Type 1, BuildingBlock: OLANEW_clean_sbu_2, # of connection points: 3
#     Node 125, Type 1, BuildingBlock: OLANEW_clean_sbu_2, # of connection points: 3
#     Node 126, Type 1, BuildingBlock: OLANEW_clean_sbu_2, # of connection points: 3
#     Node 127, Type 1, BuildingBlock: OLANEW_clean_sbu_2, # of connection points: 3
#     Node 128, Type 1, BuildingBlock: OLANEW_clean_sbu_2, # of connection points: 3
#     Node 129, Type 1, BuildingBlock: OLANEW_clean_sbu_2, # of connection points: 3
#     Node 130, Type 1, BuildingBlock: OLANEW_clean_sbu_2, # of connection points: 3
#     Node 131, Type 1, BuildingBlock: OLANEW_clean_sbu_2, # of connection points: 3
#     Node 132, Type 1, BuildingBlock: OLANEW_clean_sbu_2, # of connection points: 3
#     Node 133, Type 1, BuildingBlock: OLANEW_clean_sbu_2, # of connection points: 3
#     Node 134, Type 1, BuildingBlock: OLANEW_clean_sbu_2, # of connection points: 3
#     Node 135, Type 1, BuildingBlock: OLANEW_clean_sbu_2, # of connection points: 3
#     Node 136, Type 1, BuildingBlock: OLANEW_clean_sbu_2, # of connection points: 3
#     Node 137, Type 1, BuildingBlock: OLANEW_clean_sbu_2, # of connection points: 3
#     Node 138, Type 1, BuildingBlock: OLANEW_clean_sbu_2, # of connection points: 3
#     Node 139, Type 1, BuildingBlock: OLANEW_clean_sbu_2, # of connection points: 3
#     Node 140, Type 1, BuildingBlock: OLANEW_clean_sbu_2, # of connection points: 3
#     Node 141, Type 1, BuildingBlock: OLANEW_clean_sbu_2, # of connection points: 3
#     Node 142, Type 1, BuildingBlock: OLANEW_clean_sbu_2, # of connection points: 3
#     Node 143, Type 1, BuildingBlock: OLANEW_clean_sbu_2, # of connection points: 3
#     Node 144, Type 1, BuildingBlock: OLANEW_clean_sbu_2, # of connection points: 3
#     Node 145, Type 1, BuildingBlock: OLANEW_clean_sbu_2, # of connection points: 3
#     Node 146, Type 1, BuildingBlock: OLANEW_clean_sbu_2, # of connection points: 3
#     Node 147, Type 1, BuildingBlock: OLANEW_clean_sbu_2, # of connection points: 3
#     Node 148, Type 1, BuildingBlock: OLANEW_clean_sbu_2, # of connection points: 3
#     Node 149, Type 1, BuildingBlock: OLANEW_clean_sbu_2, # of connection points: 3
#     Node 150, Type 1, BuildingBlock: OLANEW_clean_sbu_2, # of connection points: 3
#     Node 151, Type 1, BuildingBlock: OLANEW_clean_sbu_2, # of connection points: 3
#     Node 152, Type 1, BuildingBlock: OLANEW_clean_sbu_2, # of connection points: 3
#     Node 153, Type 1, BuildingBlock: OLANEW_clean_sbu_2, # of connection points: 3
#     Node 154, Type 1, BuildingBlock: OLANEW_clean_sbu_2, # of connection points: 3
#     Node 155, Type 1, BuildingBlock: OLANEW_clean_sbu_2, # of connection points: 3
#     Node 156, Type 1, BuildingBlock: OLANEW_clean_sbu_2, # of connection points: 3
#     Node 157, Type 1, BuildingBlock: OLANEW_clean_sbu_2, # of connection points: 3
#     Node 158, Type 1, BuildingBlock: OLANEW_clean_sbu_2, # of connection points: 3
#     Node 159, Type 1, BuildingBlock: OLANEW_clean_sbu_2, # of connection points: 3
#     Node 160, Type 1, BuildingBlock: OLANEW_clean_sbu_2, # of connection points: 3
#     Node 161, Type 1, BuildingBlock: OLANEW_clean_sbu_2, # of connection points: 3
#     Node 162, Type 1, BuildingBlock: OLANEW_clean_sbu_2, # of connection points: 3
#     Node 163, Type 1, BuildingBlock: OLANEW_clean_sbu_2, # of connection points: 3
#     Node 164, Type 1, BuildingBlock: OLANEW_clean_sbu_2, # of connection points: 3
#     Node 165, Type 1, BuildingBlock: OLANEW_clean_sbu_2, # of connection points: 3
#     Node 166, Type 1, BuildingBlock: OLANEW_clean_sbu_2, # of connection points: 3
#     Node 167, Type 1, BuildingBlock: OLANEW_clean_sbu_2, # of connection points: 3
#     Node 168, Type 1, BuildingBlock: OLANEW_clean_sbu_2, # of connection points: 3
#     Node 169, Type 1, BuildingBlock: OLANEW_clean_sbu_2, # of connection points: 3
#     Node 170, Type 1, BuildingBlock: OLANEW_clean_sbu_2, # of connection points: 3
#     Node 171, Type 1, BuildingBlock: OLANEW_clean_sbu_2, # of connection points: 3
#     Node 172, Type 1, BuildingBlock: OLANEW_clean_sbu_2, # of connection points: 3
#     Node 173, Type 1, BuildingBlock: OLANEW_clean_sbu_2, # of connection points: 3
#     Node 174, Type 1, BuildingBlock: OLANEW_clean_sbu_2, # of connection points: 3
#     Node 175, Type 1, BuildingBlock: OLANEW_clean_sbu_2, # of connection points: 3
#     Node 176, Type 1, BuildingBlock: OLANEW_clean_sbu_2, # of connection points: 3
#     Node 177, Type 1, BuildingBlock: OLANEW_clean_sbu_2, # of connection points: 3
#     Node 178, Type 1, BuildingBlock: OLANEW_clean_sbu_2, # of connection points: 3
#     Node 179, Type 1, BuildingBlock: OLANEW_clean_sbu_2, # of connection points: 3
#     Node 180, Type 1, BuildingBlock: OLANEW_clean_sbu_2, # of connection points: 3
#     Node 181, Type 1, BuildingBlock: OLANEW_clean_sbu_2, # of connection points: 3
#     Node 182, Type 1, BuildingBlock: OLANEW_clean_sbu_2, # of connection points: 3
#     Node 183, Type 1, BuildingBlock: OLANEW_clean_sbu_2, # of connection points: 3
#     Node 184, Type 1, BuildingBlock: OLANEW_clean_sbu_2, # of connection points: 3
#     Node 185, Type 1, BuildingBlock: OLANEW_clean_sbu_2, # of connection points: 3
#     Node 186, Type 1, BuildingBlock: OLANEW_clean_sbu_2, # of connection points: 3
#     Node 187, Type 1, BuildingBlock: OLANEW_clean_sbu_2, # of connection points: 3
#     Node 188, Type 1, BuildingBlock: OLANEW_clean_sbu_2, # of connection points: 3
#     Node 189, Type 1, BuildingBlock: OLANEW_clean_sbu_2, # of connection points: 3
#     Node 190, Type 1, BuildingBlock: OLANEW_clean_sbu_2, # of connection points: 3
#     Node 191, Type 1, BuildingBlock: OLANEW_clean_sbu_2, # of connection points: 3
#     Edge 192, Type (0, 1), BuildingBlock: XIVTED_clean_linker_0, # of connection points: 2
#     Edge 193, Type (0, 1), BuildingBlock: XIVTED_clean_linker_0, # of connection points: 2
#     Edge 194, Type (0, 1), BuildingBlock: XIVTED_clean_linker_0, # of connection points: 2
#     Edge 195, Type (0, 1), BuildingBlock: XIVTED_clean_linker_0, # of connection points: 2
#     Edge 196, Type (0, 1), BuildingBlock: XIVTED_clean_linker_0, # of connection points: 2
#     Edge 197, Type (0, 1), BuildingBlock: XIVTED_clean_linker_0, # of connection points: 2
#     Edge 198, Type (0, 1), BuildingBlock: XIVTED_clean_linker_0, # of connection points: 2
#     Edge 199, Type (0, 1), BuildingBlock: XIVTED_clean_linker_0, # of connection points: 2
#     Edge 200, Type (0, 1), BuildingBlock: XIVTED_clean_linker_0, # of connection points: 2
#     Edge 201, Type (0, 1), BuildingBlock: XIVTED_clean_linker_0, # of connection points: 2
#     Edge 202, Type (0, 1), BuildingBlock: XIVTED_clean_linker_0, # of connection points: 2
#     Edge 203, Type (0, 1), BuildingBlock: XIVTED_clean_linker_0, # of connection points: 2
#     Edge 204, Type (0, 1), BuildingBlock: XIVTED_clean_linker_0, # of connection points: 2
#     Edge 205, Type (0, 1), BuildingBlock: XIVTED_clean_linker_0, # of connection points: 2
#     Edge 206, Type (0, 1), BuildingBlock: XIVTED_clean_linker_0, # of connection points: 2
#     Edge 207, Type (0, 1), BuildingBlock: XIVTED_clean_linker_0, # of connection points: 2
#     Edge 208, Type (0, 1), BuildingBlock: XIVTED_clean_linker_0, # of connection points: 2
#     Edge 209, Type (0, 1), BuildingBlock: XIVTED_clean_linker_0, # of connection points: 2
#     Edge 210, Type (0, 1), BuildingBlock: XIVTED_clean_linker_0, # of connection points: 2
#     Edge 211, Type (0, 1), BuildingBlock: XIVTED_clean_linker_0, # of connection points: 2
#     Edge 212, Type (0, 1), BuildingBlock: XIVTED_clean_linker_0, # of connection points: 2
#     Edge 213, Type (0, 1), BuildingBlock: XIVTED_clean_linker_0, # of connection points: 2
#     Edge 214, Type (0, 1), BuildingBlock: XIVTED_clean_linker_0, # of connection points: 2
#     Edge 215, Type (0, 1), BuildingBlock: XIVTED_clean_linker_0, # of connection points: 2
#     Edge 216, Type (0, 1), BuildingBlock: XIVTED_clean_linker_0, # of connection points: 2
#     Edge 217, Type (0, 1), BuildingBlock: XIVTED_clean_linker_0, # of connection points: 2
#     Edge 218, Type (0, 1), BuildingBlock: XIVTED_clean_linker_0, # of connection points: 2
#     Edge 219, Type (0, 1), BuildingBlock: XIVTED_clean_linker_0, # of connection points: 2
#     Edge 220, Type (0, 1), BuildingBlock: XIVTED_clean_linker_0, # of connection points: 2
#     Edge 221, Type (0, 1), BuildingBlock: XIVTED_clean_linker_0, # of connection points: 2
#     Edge 222, Type (0, 1), BuildingBlock: XIVTED_clean_linker_0, # of connection points: 2
#     Edge 223, Type (0, 1), BuildingBlock: XIVTED_clean_linker_0, # of connection points: 2
#     Edge 224, Type (0, 1), BuildingBlock: XIVTED_clean_linker_0, # of connection points: 2
#     Edge 225, Type (0, 1), BuildingBlock: XIVTED_clean_linker_0, # of connection points: 2
#     Edge 226, Type (0, 1), BuildingBlock: XIVTED_clean_linker_0, # of connection points: 2
#     Edge 227, Type (0, 1), BuildingBlock: XIVTED_clean_linker_0, # of connection points: 2
#     Edge 228, Type (0, 1), BuildingBlock: XIVTED_clean_linker_0, # of connection points: 2
#     Edge 229, Type (0, 1), BuildingBlock: XIVTED_clean_linker_0, # of connection points: 2
#     Edge 230, Type (0, 1), BuildingBlock: XIVTED_clean_linker_0, # of connection points: 2
#     Edge 231, Type (0, 1), BuildingBlock: XIVTED_clean_linker_0, # of connection points: 2
#     Edge 232, Type (0, 1), BuildingBlock: XIVTED_clean_linker_0, # of connection points: 2
#     Edge 233, Type (0, 1), BuildingBlock: XIVTED_clean_linker_0, # of connection points: 2
#     Edge 234, Type (0, 1), BuildingBlock: XIVTED_clean_linker_0, # of connection points: 2
#     Edge 235, Type (0, 1), BuildingBlock: XIVTED_clean_linker_0, # of connection points: 2
#     Edge 236, Type (0, 1), BuildingBlock: XIVTED_clean_linker_0, # of connection points: 2
#     Edge 237, Type (0, 1), BuildingBlock: XIVTED_clean_linker_0, # of connection points: 2
#     Edge 238, Type (0, 1), BuildingBlock: XIVTED_clean_linker_0, # of connection points: 2
#     Edge 239, Type (0, 1), BuildingBlock: XIVTED_clean_linker_0, # of connection points: 2
#     Edge 240, Type (0, 1), BuildingBlock: XIVTED_clean_linker_0, # of connection points: 2
#     Edge 241, Type (0, 1), BuildingBlock: XIVTED_clean_linker_0, # of connection points: 2
#     Edge 242, Type (0, 1), BuildingBlock: XIVTED_clean_linker_0, # of connection points: 2
#     Edge 243, Type (0, 1), BuildingBlock: XIVTED_clean_linker_0, # of connection points: 2
#     Edge 244, Type (0, 1), BuildingBlock: XIVTED_clean_linker_0, # of connection points: 2
#     Edge 245, Type (0, 1), BuildingBlock: XIVTED_clean_linker_0, # of connection points: 2
#     Edge 246, Type (0, 1), BuildingBlock: XIVTED_clean_linker_0, # of connection points: 2
#     Edge 247, Type (0, 1), BuildingBlock: XIVTED_clean_linker_0, # of connection points: 2
#     Edge 248, Type (0, 1), BuildingBlock: XIVTED_clean_linker_0, # of connection points: 2
#     Edge 249, Type (0, 1), BuildingBlock: XIVTED_clean_linker_0, # of connection points: 2
#     Edge 250, Type (0, 1), BuildingBlock: XIVTED_clean_linker_0, # of connection points: 2
#     Edge 251, Type (0, 1), BuildingBlock: XIVTED_clean_linker_0, # of connection points: 2
#     Edge 252, Type (0, 1), BuildingBlock: XIVTED_clean_linker_0, # of connection points: 2
#     Edge 253, Type (0, 1), BuildingBlock: XIVTED_clean_linker_0, # of connection points: 2
#     Edge 254, Type (0, 1), BuildingBlock: XIVTED_clean_linker_0, # of connection points: 2
#     Edge 255, Type (0, 1), BuildingBlock: XIVTED_clean_linker_0, # of connection points: 2
#     Edge 256, Type (0, 1), BuildingBlock: XIVTED_clean_linker_0, # of connection points: 2
#     Edge 257, Type (0, 1), BuildingBlock: XIVTED_clean_linker_0, # of connection points: 2
#     Edge 258, Type (0, 1), BuildingBlock: XIVTED_clean_linker_0, # of connection points: 2
#     Edge 259, Type (0, 1), BuildingBlock: XIVTED_clean_linker_0, # of connection points: 2
#     Edge 260, Type (0, 1), BuildingBlock: XIVTED_clean_linker_0, # of connection points: 2
#     Edge 261, Type (0, 1), BuildingBlock: XIVTED_clean_linker_0, # of connection points: 2
#     Edge 262, Type (0, 1), BuildingBlock: XIVTED_clean_linker_0, # of connection points: 2
#     Edge 263, Type (0, 1), BuildingBlock: XIVTED_clean_linker_0, # of connection points: 2
#     Edge 264, Type (0, 1), BuildingBlock: XIVTED_clean_linker_0, # of connection points: 2
#     Edge 265, Type (0, 1), BuildingBlock: XIVTED_clean_linker_0, # of connection points: 2
#     Edge 266, Type (0, 1), BuildingBlock: XIVTED_clean_linker_0, # of connection points: 2
#     Edge 267, Type (0, 1), BuildingBlock: XIVTED_clean_linker_0, # of connection points: 2
#     Edge 268, Type (0, 1), BuildingBlock: XIVTED_clean_linker_0, # of connection points: 2
#     Edge 269, Type (0, 1), BuildingBlock: XIVTED_clean_linker_0, # of connection points: 2
#     Edge 270, Type (0, 1), BuildingBlock: XIVTED_clean_linker_0, # of connection points: 2
#     Edge 271, Type (0, 1), BuildingBlock: XIVTED_clean_linker_0, # of connection points: 2
#     Edge 272, Type (0, 1), BuildingBlock: XIVTED_clean_linker_0, # of connection points: 2
#     Edge 273, Type (0, 1), BuildingBlock: XIVTED_clean_linker_0, # of connection points: 2
#     Edge 274, Type (0, 1), BuildingBlock: XIVTED_clean_linker_0, # of connection points: 2
#     Edge 275, Type (0, 1), BuildingBlock: XIVTED_clean_linker_0, # of connection points: 2
#     Edge 276, Type (0, 1), BuildingBlock: XIVTED_clean_linker_0, # of connection points: 2
#     Edge 277, Type (0, 1), BuildingBlock: XIVTED_clean_linker_0, # of connection points: 2
#     Edge 278, Type (0, 1), BuildingBlock: XIVTED_clean_linker_0, # of connection points: 2
#     Edge 279, Type (0, 1), BuildingBlock: XIVTED_clean_linker_0, # of connection points: 2
#     Edge 280, Type (0, 1), BuildingBlock: XIVTED_clean_linker_0, # of connection points: 2
#     Edge 281, Type (0, 1), BuildingBlock: XIVTED_clean_linker_0, # of connection points: 2
#     Edge 282, Type (0, 1), BuildingBlock: XIVTED_clean_linker_0, # of connection points: 2
#     Edge 283, Type (0, 1), BuildingBlock: XIVTED_clean_linker_0, # of connection points: 2
#     Edge 284, Type (0, 1), BuildingBlock: XIVTED_clean_linker_0, # of connection points: 2
#     Edge 285, Type (0, 1), BuildingBlock: XIVTED_clean_linker_0, # of connection points: 2
#     Edge 286, Type (0, 1), BuildingBlock: XIVTED_clean_linker_0, # of connection points: 2
#     Edge 287, Type (0, 1), BuildingBlock: XIVTED_clean_linker_0, # of connection points: 2
#     Edge 288, Type (0, 1), BuildingBlock: XIVTED_clean_linker_0, # of connection points: 2
#     Edge 289, Type (0, 1), BuildingBlock: XIVTED_clean_linker_0, # of connection points: 2
#     Edge 290, Type (0, 1), BuildingBlock: XIVTED_clean_linker_0, # of connection points: 2
#     Edge 291, Type (0, 1), BuildingBlock: XIVTED_clean_linker_0, # of connection points: 2
#     Edge 292, Type (0, 1), BuildingBlock: XIVTED_clean_linker_0, # of connection points: 2
#     Edge 293, Type (0, 1), BuildingBlock: XIVTED_clean_linker_0, # of connection points: 2
#     Edge 294, Type (0, 1), BuildingBlock: XIVTED_clean_linker_0, # of connection points: 2
#     Edge 295, Type (0, 1), BuildingBlock: XIVTED_clean_linker_0, # of connection points: 2
#     Edge 296, Type (0, 1), BuildingBlock: XIVTED_clean_linker_0, # of connection points: 2
#     Edge 297, Type (0, 1), BuildingBlock: XIVTED_clean_linker_0, # of connection points: 2
#     Edge 298, Type (0, 1), BuildingBlock: XIVTED_clean_linker_0, # of connection points: 2
#     Edge 299, Type (0, 1), BuildingBlock: XIVTED_clean_linker_0, # of connection points: 2
#     Edge 300, Type (0, 1), BuildingBlock: XIVTED_clean_linker_0, # of connection points: 2
#     Edge 301, Type (0, 1), BuildingBlock: XIVTED_clean_linker_0, # of connection points: 2
#     Edge 302, Type (0, 1), BuildingBlock: XIVTED_clean_linker_0, # of connection points: 2
#     Edge 303, Type (0, 1), BuildingBlock: XIVTED_clean_linker_0, # of connection points: 2
#     Edge 304, Type (0, 1), BuildingBlock: XIVTED_clean_linker_0, # of connection points: 2
#     Edge 305, Type (0, 1), BuildingBlock: XIVTED_clean_linker_0, # of connection points: 2
#     Edge 306, Type (0, 1), BuildingBlock: XIVTED_clean_linker_0, # of connection points: 2
#     Edge 307, Type (0, 1), BuildingBlock: XIVTED_clean_linker_0, # of connection points: 2
#     Edge 308, Type (0, 1), BuildingBlock: XIVTED_clean_linker_0, # of connection points: 2
#     Edge 309, Type (0, 1), BuildingBlock: XIVTED_clean_linker_0, # of connection points: 2
#     Edge 310, Type (0, 1), BuildingBlock: XIVTED_clean_linker_0, # of connection points: 2
#     Edge 311, Type (0, 1), BuildingBlock: XIVTED_clean_linker_0, # of connection points: 2
#     Edge 312, Type (0, 1), BuildingBlock: XIVTED_clean_linker_0, # of connection points: 2
#     Edge 313, Type (0, 1), BuildingBlock: XIVTED_clean_linker_0, # of connection points: 2
#     Edge 314, Type (0, 1), BuildingBlock: XIVTED_clean_linker_0, # of connection points: 2
#     Edge 315, Type (0, 1), BuildingBlock: XIVTED_clean_linker_0, # of connection points: 2
#     Edge 316, Type (0, 1), BuildingBlock: XIVTED_clean_linker_0, # of connection points: 2
#     Edge 317, Type (0, 1), BuildingBlock: XIVTED_clean_linker_0, # of connection points: 2
#     Edge 318, Type (0, 1), BuildingBlock: XIVTED_clean_linker_0, # of connection points: 2
#     Edge 319, Type (0, 1), BuildingBlock: XIVTED_clean_linker_0, # of connection points: 2
#     Edge 320, Type (0, 1), BuildingBlock: XIVTED_clean_linker_0, # of connection points: 2
#     Edge 321, Type (0, 1), BuildingBlock: XIVTED_clean_linker_0, # of connection points: 2
#     Edge 322, Type (0, 1), BuildingBlock: XIVTED_clean_linker_0, # of connection points: 2
#     Edge 323, Type (0, 1), BuildingBlock: XIVTED_clean_linker_0, # of connection points: 2
#     Edge 324, Type (0, 1), BuildingBlock: XIVTED_clean_linker_0, # of connection points: 2
#     Edge 325, Type (0, 1), BuildingBlock: XIVTED_clean_linker_0, # of connection points: 2
#     Edge 326, Type (0, 1), BuildingBlock: XIVTED_clean_linker_0, # of connection points: 2
#     Edge 327, Type (0, 1), BuildingBlock: XIVTED_clean_linker_0, # of connection points: 2
#     Edge 328, Type (0, 1), BuildingBlock: XIVTED_clean_linker_0, # of connection points: 2
#     Edge 329, Type (0, 1), BuildingBlock: XIVTED_clean_linker_0, # of connection points: 2
#     Edge 330, Type (0, 1), BuildingBlock: XIVTED_clean_linker_0, # of connection points: 2
#     Edge 331, Type (0, 1), BuildingBlock: XIVTED_clean_linker_0, # of connection points: 2
#     Edge 332, Type (0, 1), BuildingBlock: XIVTED_clean_linker_0, # of connection points: 2
#     Edge 333, Type (0, 1), BuildingBlock: XIVTED_clean_linker_0, # of connection points: 2
#     Edge 334, Type (0, 1), BuildingBlock: XIVTED_clean_linker_0, # of connection points: 2
#     Edge 335, Type (0, 1), BuildingBlock: XIVTED_clean_linker_0, # of connection points: 2
#     Edge 336, Type (0, 1), BuildingBlock: XIVTED_clean_linker_0, # of connection points: 2
#     Edge 337, Type (0, 1), BuildingBlock: XIVTED_clean_linker_0, # of connection points: 2
#     Edge 338, Type (0, 1), BuildingBlock: XIVTED_clean_linker_0, # of connection points: 2
#     Edge 339, Type (0, 1), BuildingBlock: XIVTED_clean_linker_0, # of connection points: 2
#     Edge 340, Type (0, 1), BuildingBlock: XIVTED_clean_linker_0, # of connection points: 2
#     Edge 341, Type (0, 1), BuildingBlock: XIVTED_clean_linker_0, # of connection points: 2
#     Edge 342, Type (0, 1), BuildingBlock: XIVTED_clean_linker_0, # of connection points: 2
#     Edge 343, Type (0, 1), BuildingBlock: XIVTED_clean_linker_0, # of connection points: 2
#     Edge 344, Type (0, 1), BuildingBlock: XIVTED_clean_linker_0, # of connection points: 2
#     Edge 345, Type (0, 1), BuildingBlock: XIVTED_clean_linker_0, # of connection points: 2
#     Edge 346, Type (0, 1), BuildingBlock: XIVTED_clean_linker_0, # of connection points: 2
#     Edge 347, Type (0, 1), BuildingBlock: XIVTED_clean_linker_0, # of connection points: 2
#     Edge 348, Type (0, 1), BuildingBlock: XIVTED_clean_linker_0, # of connection points: 2
#     Edge 349, Type (0, 1), BuildingBlock: XIVTED_clean_linker_0, # of connection points: 2
#     Edge 350, Type (0, 1), BuildingBlock: XIVTED_clean_linker_0, # of connection points: 2
#     Edge 351, Type (0, 1), BuildingBlock: XIVTED_clean_linker_0, # of connection points: 2
#     Edge 352, Type (0, 1), BuildingBlock: XIVTED_clean_linker_0, # of connection points: 2
#     Edge 353, Type (0, 1), BuildingBlock: XIVTED_clean_linker_0, # of connection points: 2
#     Edge 354, Type (0, 1), BuildingBlock: XIVTED_clean_linker_0, # of connection points: 2
#     Edge 355, Type (0, 1), BuildingBlock: XIVTED_clean_linker_0, # of connection points: 2
#     Edge 356, Type (0, 1), BuildingBlock: XIVTED_clean_linker_0, # of connection points: 2
#     Edge 357, Type (0, 1), BuildingBlock: XIVTED_clean_linker_0, # of connection points: 2
#     Edge 358, Type (0, 1), BuildingBlock: XIVTED_clean_linker_0, # of connection points: 2
#     Edge 359, Type (0, 1), BuildingBlock: XIVTED_clean_linker_0, # of connection points: 2
#     Edge 360, Type (0, 1), BuildingBlock: XIVTED_clean_linker_0, # of connection points: 2
#     Edge 361, Type (0, 1), BuildingBlock: XIVTED_clean_linker_0, # of connection points: 2
#     Edge 362, Type (0, 1), BuildingBlock: XIVTED_clean_linker_0, # of connection points: 2
#     Edge 363, Type (0, 1), BuildingBlock: XIVTED_clean_linker_0, # of connection points: 2
#     Edge 364, Type (0, 1), BuildingBlock: XIVTED_clean_linker_0, # of connection points: 2
#     Edge 365, Type (0, 1), BuildingBlock: XIVTED_clean_linker_0, # of connection points: 2
#     Edge 366, Type (0, 1), BuildingBlock: XIVTED_clean_linker_0, # of connection points: 2
#     Edge 367, Type (0, 1), BuildingBlock: XIVTED_clean_linker_0, # of connection points: 2
#     Edge 368, Type (0, 1), BuildingBlock: XIVTED_clean_linker_0, # of connection points: 2
#     Edge 369, Type (0, 1), BuildingBlock: XIVTED_clean_linker_0, # of connection points: 2
#     Edge 370, Type (0, 1), BuildingBlock: XIVTED_clean_linker_0, # of connection points: 2
#     Edge 371, Type (0, 1), BuildingBlock: XIVTED_clean_linker_0, # of connection points: 2
#     Edge 372, Type (0, 1), BuildingBlock: XIVTED_clean_linker_0, # of connection points: 2
#     Edge 373, Type (0, 1), BuildingBlock: XIVTED_clean_linker_0, # of connection points: 2
#     Edge 374, Type (0, 1), BuildingBlock: XIVTED_clean_linker_0, # of connection points: 2
#     Edge 375, Type (0, 1), BuildingBlock: XIVTED_clean_linker_0, # of connection points: 2
#     Edge 376, Type (0, 1), BuildingBlock: XIVTED_clean_linker_0, # of connection points: 2
#     Edge 377, Type (0, 1), BuildingBlock: XIVTED_clean_linker_0, # of connection points: 2
#     Edge 378, Type (0, 1), BuildingBlock: XIVTED_clean_linker_0, # of connection points: 2
#     Edge 379, Type (0, 1), BuildingBlock: XIVTED_clean_linker_0, # of connection points: 2
#     Edge 380, Type (0, 1), BuildingBlock: XIVTED_clean_linker_0, # of connection points: 2
#     Edge 381, Type (0, 1), BuildingBlock: XIVTED_clean_linker_0, # of connection points: 2
#     Edge 382, Type (0, 1), BuildingBlock: XIVTED_clean_linker_0, # of connection points: 2
#     Edge 383, Type (0, 1), BuildingBlock: XIVTED_clean_linker_0, # of connection points: 2
#     Edge 384, Type (0, 1), BuildingBlock: XIVTED_clean_linker_0, # of connection points: 2
#     Edge 385, Type (0, 1), BuildingBlock: XIVTED_clean_linker_0, # of connection points: 2
#     Edge 386, Type (0, 1), BuildingBlock: XIVTED_clean_linker_0, # of connection points: 2
#     Edge 387, Type (0, 1), BuildingBlock: XIVTED_clean_linker_0, # of connection points: 2
#     Edge 388, Type (0, 1), BuildingBlock: XIVTED_clean_linker_0, # of connection points: 2
#     Edge 389, Type (0, 1), BuildingBlock: XIVTED_clean_linker_0, # of connection points: 2
#     Edge 390, Type (0, 1), BuildingBlock: XIVTED_clean_linker_0, # of connection points: 2
#     Edge 391, Type (0, 1), BuildingBlock: XIVTED_clean_linker_0, # of connection points: 2
#     Edge 392, Type (0, 1), BuildingBlock: XIVTED_clean_linker_0, # of connection points: 2
#     Edge 393, Type (0, 1), BuildingBlock: XIVTED_clean_linker_0, # of connection points: 2
#     Edge 394, Type (0, 1), BuildingBlock: XIVTED_clean_linker_0, # of connection points: 2
#     Edge 395, Type (0, 1), BuildingBlock: XIVTED_clean_linker_0, # of connection points: 2
#     Edge 396, Type (0, 1), BuildingBlock: XIVTED_clean_linker_0, # of connection points: 2
#     Edge 397, Type (0, 1), BuildingBlock: XIVTED_clean_linker_0, # of connection points: 2
#     Edge 398, Type (0, 1), BuildingBlock: XIVTED_clean_linker_0, # of connection points: 2
#     Edge 399, Type (0, 1), BuildingBlock: XIVTED_clean_linker_0, # of connection points: 2
#     Edge 400, Type (0, 1), BuildingBlock: XIVTED_clean_linker_0, # of connection points: 2
#     Edge 401, Type (0, 1), BuildingBlock: XIVTED_clean_linker_0, # of connection points: 2
#     Edge 402, Type (0, 1), BuildingBlock: XIVTED_clean_linker_0, # of connection points: 2
#     Edge 403, Type (0, 1), BuildingBlock: XIVTED_clean_linker_0, # of connection points: 2
#     Edge 404, Type (0, 1), BuildingBlock: XIVTED_clean_linker_0, # of connection points: 2
#     Edge 405, Type (0, 1), BuildingBlock: XIVTED_clean_linker_0, # of connection points: 2
#     Edge 406, Type (0, 1), BuildingBlock: XIVTED_clean_linker_0, # of connection points: 2
#     Edge 407, Type (0, 1), BuildingBlock: XIVTED_clean_linker_0, # of connection points: 2
#     Edge 408, Type (0, 1), BuildingBlock: XIVTED_clean_linker_0, # of connection points: 2
#     Edge 409, Type (0, 1), BuildingBlock: XIVTED_clean_linker_0, # of connection points: 2
#     Edge 410, Type (0, 1), BuildingBlock: XIVTED_clean_linker_0, # of connection points: 2
#     Edge 411, Type (0, 1), BuildingBlock: XIVTED_clean_linker_0, # of connection points: 2
#     Edge 412, Type (0, 1), BuildingBlock: XIVTED_clean_linker_0, # of connection points: 2
#     Edge 413, Type (0, 1), BuildingBlock: XIVTED_clean_linker_0, # of connection points: 2
#     Edge 414, Type (0, 1), BuildingBlock: XIVTED_clean_linker_0, # of connection points: 2
#     Edge 415, Type (0, 1), BuildingBlock: XIVTED_clean_linker_0, # of connection points: 2
#     Edge 416, Type (0, 1), BuildingBlock: XIVTED_clean_linker_0, # of connection points: 2
#     Edge 417, Type (0, 1), BuildingBlock: XIVTED_clean_linker_0, # of connection points: 2
#     Edge 418, Type (0, 1), BuildingBlock: XIVTED_clean_linker_0, # of connection points: 2
#     Edge 419, Type (0, 1), BuildingBlock: XIVTED_clean_linker_0, # of connection points: 2
#     Edge 420, Type (0, 1), BuildingBlock: XIVTED_clean_linker_0, # of connection points: 2
#     Edge 421, Type (0, 1), BuildingBlock: XIVTED_clean_linker_0, # of connection points: 2
#     Edge 422, Type (0, 1), BuildingBlock: XIVTED_clean_linker_0, # of connection points: 2
#     Edge 423, Type (0, 1), BuildingBlock: XIVTED_clean_linker_0, # of connection points: 2
#     Edge 424, Type (0, 1), BuildingBlock: XIVTED_clean_linker_0, # of connection points: 2
#     Edge 425, Type (0, 1), BuildingBlock: XIVTED_clean_linker_0, # of connection points: 2
#     Edge 426, Type (0, 1), BuildingBlock: XIVTED_clean_linker_0, # of connection points: 2
#     Edge 427, Type (0, 1), BuildingBlock: XIVTED_clean_linker_0, # of connection points: 2
#     Edge 428, Type (0, 1), BuildingBlock: XIVTED_clean_linker_0, # of connection points: 2
#     Edge 429, Type (0, 1), BuildingBlock: XIVTED_clean_linker_0, # of connection points: 2
#     Edge 430, Type (0, 1), BuildingBlock: XIVTED_clean_linker_0, # of connection points: 2
#     Edge 431, Type (0, 1), BuildingBlock: XIVTED_clean_linker_0, # of connection points: 2
#     Edge 432, Type (0, 1), BuildingBlock: XIVTED_clean_linker_0, # of connection points: 2
#     Edge 433, Type (0, 1), BuildingBlock: XIVTED_clean_linker_0, # of connection points: 2
#     Edge 434, Type (0, 1), BuildingBlock: XIVTED_clean_linker_0, # of connection points: 2
#     Edge 435, Type (0, 1), BuildingBlock: XIVTED_clean_linker_0, # of connection points: 2
#     Edge 436, Type (0, 1), BuildingBlock: XIVTED_clean_linker_0, # of connection points: 2
#     Edge 437, Type (0, 1), BuildingBlock: XIVTED_clean_linker_0, # of connection points: 2
#     Edge 438, Type (0, 1), BuildingBlock: XIVTED_clean_linker_0, # of connection points: 2
#     Edge 439, Type (0, 1), BuildingBlock: XIVTED_clean_linker_0, # of connection points: 2
#     Edge 440, Type (0, 1), BuildingBlock: XIVTED_clean_linker_0, # of connection points: 2
#     Edge 441, Type (0, 1), BuildingBlock: XIVTED_clean_linker_0, # of connection points: 2
#     Edge 442, Type (0, 1), BuildingBlock: XIVTED_clean_linker_0, # of connection points: 2
#     Edge 443, Type (0, 1), BuildingBlock: XIVTED_clean_linker_0, # of connection points: 2
#     Edge 444, Type (0, 1), BuildingBlock: XIVTED_clean_linker_0, # of connection points: 2
#     Edge 445, Type (0, 1), BuildingBlock: XIVTED_clean_linker_0, # of connection points: 2
#     Edge 446, Type (0, 1), BuildingBlock: XIVTED_clean_linker_0, # of connection points: 2
#     Edge 447, Type (0, 1), BuildingBlock: XIVTED_clean_linker_0, # of connection points: 2
#     Edge 448, Type (0, 1), BuildingBlock: XIVTED_clean_linker_0, # of connection points: 2
#     Edge 449, Type (0, 1), BuildingBlock: XIVTED_clean_linker_0, # of connection points: 2
#     Edge 450, Type (0, 1), BuildingBlock: XIVTED_clean_linker_0, # of connection points: 2
#     Edge 451, Type (0, 1), BuildingBlock: XIVTED_clean_linker_0, # of connection points: 2
#     Edge 452, Type (0, 1), BuildingBlock: XIVTED_clean_linker_0, # of connection points: 2
#     Edge 453, Type (0, 1), BuildingBlock: XIVTED_clean_linker_0, # of connection points: 2
#     Edge 454, Type (0, 1), BuildingBlock: XIVTED_clean_linker_0, # of connection points: 2
#     Edge 455, Type (0, 1), BuildingBlock: XIVTED_clean_linker_0, # of connection points: 2
#     Edge 456, Type (0, 1), BuildingBlock: XIVTED_clean_linker_0, # of connection points: 2
#     Edge 457, Type (0, 1), BuildingBlock: XIVTED_clean_linker_0, # of connection points: 2
#     Edge 458, Type (0, 1), BuildingBlock: XIVTED_clean_linker_0, # of connection points: 2
#     Edge 459, Type (0, 1), BuildingBlock: XIVTED_clean_linker_0, # of connection points: 2
#     Edge 460, Type (0, 1), BuildingBlock: XIVTED_clean_linker_0, # of connection points: 2
#     Edge 461, Type (0, 1), BuildingBlock: XIVTED_clean_linker_0, # of connection points: 2
#     Edge 462, Type (0, 1), BuildingBlock: XIVTED_clean_linker_0, # of connection points: 2
#     Edge 463, Type (0, 1), BuildingBlock: XIVTED_clean_linker_0, # of connection points: 2
#     Edge 464, Type (0, 1), BuildingBlock: XIVTED_clean_linker_0, # of connection points: 2
#     Edge 465, Type (0, 1), BuildingBlock: XIVTED_clean_linker_0, # of connection points: 2
#     Edge 466, Type (0, 1), BuildingBlock: XIVTED_clean_linker_0, # of connection points: 2
#     Edge 467, Type (0, 1), BuildingBlock: XIVTED_clean_linker_0, # of connection points: 2
#     Edge 468, Type (0, 1), BuildingBlock: XIVTED_clean_linker_0, # of connection points: 2
#     Edge 469, Type (0, 1), BuildingBlock: XIVTED_clean_linker_0, # of connection points: 2
#     Edge 470, Type (0, 1), BuildingBlock: XIVTED_clean_linker_0, # of connection points: 2
#     Edge 471, Type (0, 1), BuildingBlock: XIVTED_clean_linker_0, # of connection points: 2
#     Edge 472, Type (0, 1), BuildingBlock: XIVTED_clean_linker_0, # of connection points: 2
#     Edge 473, Type (0, 1), BuildingBlock: XIVTED_clean_linker_0, # of connection points: 2
#     Edge 474, Type (0, 1), BuildingBlock: XIVTED_clean_linker_0, # of connection points: 2
#     Edge 475, Type (0, 1), BuildingBlock: XIVTED_clean_linker_0, # of connection points: 2
#     Edge 476, Type (0, 1), BuildingBlock: XIVTED_clean_linker_0, # of connection points: 2
#     Edge 477, Type (0, 1), BuildingBlock: XIVTED_clean_linker_0, # of connection points: 2
#     Edge 478, Type (0, 1), BuildingBlock: XIVTED_clean_linker_0, # of connection points: 2
#     Edge 479, Type (0, 1), BuildingBlock: XIVTED_clean_linker_0, # of connection points: 2
# Relax obj value: 0.043
# Max RMSD: 0.067
# Mean RMSD: 0.053
data_MOF--net-ana-f--node1-WUSLED_clean_sbu_0--node2-OLANEW_clean_sbu_2--edge1-XIVTED_clean_linker_0
_symmetry_space_group_name_H-M    P1
_symmetry_Int_Tables_number       1
_symmetry_cell_setting            triclinic
loop_
_symmetry_equiv_pos_as_xyz
'x, y, z'
_cell_length_a     197.09361
_cell_length_b     197.14604
_cell_length_c     197.20393
_cell_angle_alpha  89.996303
_cell_angle_beta   90.014092
_cell_angle_gamma 90.011673
loop_
_atom_site_label
_atom_site_type_symbol
_atom_site_fract_x
_atom_site_fract_y
_atom_site_fract_z
_atom_type_partial_charge
C0 C 0.07147 0.15325 0.42657 0.0
C1 C 0.07701 0.1575 0.428 0.0
C2 C 0.08259 0.14834 0.43412 0.0
C3 C 0.08249 0.15508 0.43177 0.0
C4 C 0.07693 0.14417 0.43284 0.0
C5 C 0.07142 0.14661 0.42908 0.0
U6 U 0.06645 0.16476 0.41233 0.0
O7 O 0.06104 0.16279 0.40278 0.0
O8 O 0.05709 0.17035 0.40994 0.0
C9 C 0.05603 0.1669 0.40432 0.0
C10 C 0.06615 0.15552 0.42186 0.0
C11 C 0.0492 0.16404 0.40347 0.0
C12 C 0.03969 0.15738 0.40761 0.0
C13 C 0.04614 0.16018 0.40861 0.0
C14 C 0.03935 0.16223 0.39632 0.0
C15 C 0.03624 0.15834 0.40144 0.0
C16 C 0.04576 0.16506 0.39734 0.0
C17 C 0.08041 0.17671 0.40597 0.0
C18 C 0.0796 0.18313 0.3955 0.0
C19 C 0.08971 0.18395 0.40246 0.0
C20 C 0.08685 0.17946 0.40713 0.0
C21 C 0.08616 0.18576 0.39654 0.0
C22 C 0.07675 0.17862 0.40018 0.0
C23 C 0.07777 0.17157 0.41066 0.0
O24 O 0.06394 0.16175 0.42278 0.0
O25 O 0.06739 0.1541 0.41547 0.0
O26 O 0.07664 0.16559 0.40795 0.0
O27 O 0.0729 0.17356 0.41476 0.0
H28 H 0.07717 0.16263 0.42605 0.0
H29 H 0.08671 0.15846 0.43275 0.0
H30 H 0.07687 0.13893 0.4345 0.0
H31 H 0.06723 0.14324 0.42795 0.0
H32 H 0.03747 0.15435 0.41162 0.0
H33 H 0.04876 0.1593 0.41336 0.0
H34 H 0.03679 0.16314 0.39155 0.0
H35 H 0.04806 0.16802 0.39332 0.0
H36 H 0.07676 0.18437 0.39097 0.0
H37 H 0.09472 0.18597 0.40346 0.0
H38 H 0.08973 0.17803 0.41159 0.0
H39 H 0.07176 0.17652 0.39922 0.0
C40 C 0.10179 0.82254 0.67787 0.0
C41 C 0.09775 0.8283 0.67896 0.0
C42 C 0.10706 0.83384 0.68489 0.0
C43 C 0.10034 0.83388 0.68246 0.0
C44 C 0.11103 0.82798 0.68393 0.0
C45 C 0.10842 0.82238 0.68044 0.0
U46 U 0.08953 0.81682 0.66454 0.0
O47 O 0.09094 0.81101 0.65516 0.0
O48 O 0.08393 0.80727 0.66297 0.0
C49 C 0.08707 0.80598 0.65723 0.0
C50 C 0.0993 0.81701 0.67354 0.0
C51 C 0.09003 0.79916 0.65659 0.0
C52 C 0.09972 0.79155 0.65702 0.0
C53 C 0.09692 0.79799 0.658 0.0
C54 C 0.08875 0.78732 0.65344 0.0
C55 C 0.09568 0.78616 0.65468 0.0
C56 C 0.08596 0.79378 0.65437 0.0
C57 C 0.0772 0.8305 0.6582 0.0
C58 C 0.0706 0.82955 0.64785 0.0
C59 C 0.06979 0.83969 0.65476 0.0
C60 C 0.07439 0.8369 0.65938 0.0
C61 C 0.06794 0.8361 0.64888 0.0
C62 C 0.07521 0.82677 0.65248 0.0
C63 C 0.08257 0.82802 0.66273 0.0
O64 O 0.09314 0.81484 0.67491 0.0
O65 O 0.10034 0.81797 0.66704 0.0
O66 O 0.08841 0.8268 0.65977 0.0
O67 O 0.0808 0.82332 0.66711 0.0
H68 H 0.09263 0.82854 0.67697 0.0
H69 H 0.09711 0.83826 0.6832 0.0
H70 H 0.11624 0.82781 0.68566 0.0
H71 H 0.11163 0.81801 0.67957 0.0
H72 H 0.10506 0.79079 0.6581 0.0
H73 H 0.10014 0.80208 0.65978 0.0
H74 H 0.08552 0.78329 0.65158 0.0
H75 H 0.08063 0.79459 0.65327 0.0
H76 H 0.06933 0.82669 0.64334 0.0
H77 H 0.06775 0.84469 0.65576 0.0
H78 H 0.07587 0.83983 0.66378 0.0
H79 H 0.07737 0.82181 0.65149 0.0
C80 C 0.43477 0.85176 0.92587 0.0
C81 C 0.42909 0.84767 0.92716 0.0
C82 C 0.42379 0.85683 0.93351 0.0
C83 C 0.42367 0.85016 0.93097 0.0
C84 C 0.42959 0.86085 0.93236 0.0
C85 C 0.43503 0.85833 0.92856 0.0
U86 U 0.43968 0.84011 0.91172 0.0
O87 O 0.44512 0.84195 0.90216 0.0
O88 O 0.44898 0.8344 0.90939 0.0
C89 C 0.45007 0.83776 0.90373 0.0
C90 C 0.44007 0.84942 0.92118 0.0
C91 C 0.45694 0.84048 0.9028 0.0
C92 C 0.46664 0.84696 0.90678 0.0
C93 C 0.46014 0.84433 0.90787 0.0
C94 C 0.46678 0.84196 0.89556 0.0
C95 C 0.47002 0.84584 0.9006 0.0
C96 C 0.46031 0.8393 0.89666 0.0
C97 C 0.42574 0.82823 0.90534 0.0
C98 C 0.42723 0.82094 0.89554 0.0
C99 C 0.41628 0.82162 0.90108 0.0
C100 C 0.41895 0.82621 0.90577 0.0
C101 C 0.42037 0.81898 0.89586 0.0
C102 C 0.4299 0.82553 0.90024 0.0
C103 C 0.4283 0.83339 0.91004 0.0
O104 O 0.44221 0.84317 0.92215 0.0
O105 O 0.43884 0.8508 0.91478 0.0
O106 O 0.42949 0.83935 0.90729 0.0
O107 O 0.43312 0.83142 0.91421 0.0
H108 H 0.42877 0.8426 0.92507 0.0
H109 H 0.41934 0.84689 0.93184 0.0
H110 H 0.42981 0.86603 0.93418 0.0
H111 H 0.43934 0.86159 0.92755 0.0
H112 H 0.46898 0.84998 0.91074 0.0
H113 H 0.45758 0.84532 0.91263 0.0
H114 H 0.46928 0.84092 0.89078 0.0
H115 H 0.45791 0.83634 0.8927 0.0
H116 H 0.43054 0.81893 0.89164 0.0
H117 H 0.41095 0.82031 0.90142 0.0
H118 H 0.41567 0.82828 0.90966 0.0
H119 H 0.43516 0.82706 0.89985 0.0
C120 C 0.4036 0.18282 0.17495 0.0
C121 C 0.40775 0.17724 0.17649 0.0
C122 C 0.39862 0.1721 0.18302 0.0
C123 C 0.40529 0.17195 0.18051 0.0
C124 C 0.39455 0.17781 0.18164 0.0
C125 C 0.39702 0.18312 0.17763 0.0
U126 U 0.41516 0.18733 0.16056 0.0
O127 O 0.41318 0.19231 0.15079 0.0
O128 O 0.42064 0.19666 0.15782 0.0
C129 C 0.41724 0.19742 0.15213 0.0
C130 C 0.40588 0.18793 0.17004 0.0
C131 C 0.41433 0.20417 0.15094 0.0
C132 C 0.40685 0.21342 0.15417 0.0
C133 C 0.40977 0.2071 0.15556 0.0
C134 C 0.41303 0.21392 0.14355 0.0
C135 C 0.4084 0.21687 0.14811 0.0
C136 C 0.41596 0.20763 0.14496 0.0
C137 C 0.42725 0.17342 0.15459 0.0
C138 C 0.43397 0.17451 0.14433 0.0
C139 C 0.43425 0.16405 0.15079 0.0
C140 C 0.42974 0.16683 0.15549 0.0
C141 C 0.43635 0.16782 0.14511 0.0
C142 C 0.42944 0.17728 0.14903 0.0
C143 C 0.4221 0.17604 0.15927 0.0
O144 O 0.41211 0.1902 0.1709 0.0
O145 O 0.4045 0.18642 0.1637 0.0
O146 O 0.41608 0.17698 0.15657 0.0
O147 O 0.42402 0.18106 0.16322 0.0
H148 H 0.41283 0.17688 0.17442 0.0
H149 H 0.4086 0.16769 0.18156 0.0
H150 H 0.38936 0.17806 0.18343 0.0
H151 H 0.39373 0.18735 0.17643 0.0
H152 H 0.40326 0.21553 0.15775 0.0
H153 H 0.40843 0.20446 0.16019 0.0
H154 H 0.4144 0.21649 0.1389 0.0
H155 H 0.41947 0.20543 0.14135 0.0
H156 H 0.43543 0.17752 0.13998 0.0
H157 H 0.43607 0.15893 0.15159 0.0
H158 H 0.42809 0.16379 0.15976 0.0
H159 H 0.42753 0.18238 0.14826 0.0
C160 C 0.07239 0.85129 0.08063 0.0
C161 C 0.07805 0.84723 0.07915 0.0
C162 C 0.08311 0.85644 0.07268 0.0
C163 C 0.08334 0.84976 0.07519 0.0
C164 C 0.07734 0.86043 0.07402 0.0
C165 C 0.07203 0.85787 0.07797 0.0
U166 U 0.0679 0.83963 0.09495 0.0
O167 O 0.06272 0.84149 0.10464 0.0
O168 O 0.05862 0.83397 0.09752 0.0
C169 C 0.0577 0.83735 0.10319 0.0
C170 C 0.06725 0.84891 0.08547 0.0
C171 C 0.05089 0.84019 0.10422 0.0
C172 C 0.04168 0.84763 0.10079 0.0
C173 C 0.04805 0.84475 0.09955 0.0
C174 C 0.04094 0.8414 0.11136 0.0
C175 C 0.03808 0.84604 0.10675 0.0
C176 C 0.04729 0.83851 0.1101 0.0
C177 C 0.08201 0.82779 0.10103 0.0
C178 C 0.08061 0.82014 0.11057 0.0
C179 C 0.0917 0.82164 0.10547 0.0
C180 C 0.08892 0.82619 0.10081 0.0
C181 C 0.08759 0.8186 0.11046 0.0
C182 C 0.07784 0.82471 0.1059 0.0
C183 C 0.07931 0.83292 0.09637 0.0
O184 O 0.06511 0.84266 0.08457 0.0
O185 O 0.06865 0.85031 0.09183 0.0
O186 O 0.0782 0.83889 0.09912 0.0
O187 O 0.07439 0.83093 0.09234 0.0
H188 H 0.07845 0.84215 0.08121 0.0
H189 H 0.08765 0.84652 0.07417 0.0
H190 H 0.07703 0.86562 0.07224 0.0
H191 H 0.06773 0.8611 0.07914 0.0
H192 H 0.03964 0.85123 0.09718 0.0
H193 H 0.0508 0.84614 0.095 0.0
H194 H 0.03826 0.83999 0.11595 0.0
H195 H 0.04941 0.835 0.11376 0.0
H196 H 0.07729 0.81782 0.11428 0.0
H197 H 0.0971 0.82066 0.10529 0.0
H198 H 0.09221 0.82857 0.0971 0.0
H199 H 0.07248 0.82591 0.10615 0.0
C200 C 0.40563 0.82245 0.32837 0.0
C201 C 0.40974 0.82807 0.32685 0.0
C202 C 0.40046 0.8333 0.3206 0.0
C203 C 0.40719 0.83342 0.32298 0.0
C204 C 0.39643 0.82756 0.32195 0.0
C205 C 0.399 0.82218 0.32582 0.0
U206 U 0.41727 0.81797 0.34268 0.0
O207 O 0.41541 0.81284 0.35239 0.0
O208 O 0.42295 0.80873 0.34531 0.0
C209 C 0.41959 0.80784 0.351 0.0
C210 C 0.40801 0.81729 0.33318 0.0
C211 C 0.41683 0.80102 0.35213 0.0
C212 C 0.40918 0.79184 0.3491 0.0
C213 C 0.41198 0.79822 0.34773 0.0
C214 C 0.41609 0.79101 0.35924 0.0
C215 C 0.41115 0.7882 0.35492 0.0
C216 C 0.41889 0.79737 0.35785 0.0
C217 C 0.42898 0.83209 0.34887 0.0
C218 C 0.43535 0.8312 0.35937 0.0
C219 C 0.4359 0.84152 0.3527 0.0
C220 C 0.43153 0.83865 0.34791 0.0
C221 C 0.43777 0.83787 0.35854 0.0
C222 C 0.43098 0.82834 0.35457 0.0
C223 C 0.42393 0.82941 0.34412 0.0
O224 O 0.41427 0.81517 0.3323 0.0
O225 O 0.40659 0.81866 0.33955 0.0
O226 O 0.41792 0.8283 0.34678 0.0
O227 O 0.42599 0.82448 0.34012 0.0
H228 H 0.41485 0.82841 0.32883 0.0
H229 H 0.41047 0.83771 0.32194 0.0
H230 H 0.39121 0.82734 0.32027 0.0
H231 H 0.39573 0.81793 0.32701 0.0
H232 H 0.40535 0.78984 0.34571 0.0
H233 H 0.41031 0.80101 0.3433 0.0
H234 H 0.41779 0.78829 0.3637 0.0
H235 H 0.42263 0.79946 0.36129 0.0
H236 H 0.43663 0.82828 0.36384 0.0
H237 H 0.43776 0.84662 0.35186 0.0
H238 H 0.43004 0.8416 0.34353 0.0
H239 H 0.42902 0.82327 0.35539 0.0
C240 C 0.4304 0.15319 0.57956 0.0
C241 C 0.42451 0.1571 0.57872 0.0
C242 C 0.41924 0.148 0.57226 0.0
C243 C 0.419 0.15455 0.57508 0.0
C244 C 0.42523 0.14416 0.57298 0.0
C245 C 0.43076 0.14673 0.57661 0.0
U246 U 0.43613 0.16529 0.59307 0.0
O247 O 0.44192 0.16376 0.60244 0.0
O248 O 0.44574 0.1708 0.59469 0.0
C249 C 0.44699 0.16759 0.6004 0.0
C250 C 0.43591 0.15563 0.58394 0.0
C251 C 0.45381 0.16458 0.60104 0.0
C252 C 0.46125 0.15477 0.60172 0.0
C253 C 0.4548 0.15754 0.60067 0.0
C254 C 0.46586 0.16606 0.60324 0.0
C255 C 0.46683 0.15899 0.60307 0.0
C256 C 0.4594 0.16882 0.60226 0.0
C257 C 0.42255 0.17762 0.59957 0.0
C258 C 0.42367 0.18421 0.60991 0.0
C259 C 0.41339 0.18499 0.6032 0.0
C260 C 0.4161 0.18041 0.59853 0.0
C261 C 0.41709 0.18685 0.60901 0.0
C262 C 0.42637 0.17962 0.60522 0.0
C263 C 0.42497 0.1723 0.59497 0.0
O264 O 0.43808 0.16181 0.58265 0.0
O265 O 0.43492 0.15452 0.59044 0.0
O266 O 0.42615 0.16641 0.59785 0.0
O267 O 0.42968 0.17409 0.5906 0.0
H268 H 0.42413 0.16209 0.581 0.0
H269 H 0.41452 0.15768 0.57454 0.0
H270 H 0.42556 0.13907 0.57094 0.0
H271 H 0.43524 0.14362 0.57727 0.0
H272 H 0.46186 0.14931 0.60147 0.0
H273 H 0.45058 0.15416 0.59967 0.0
H274 H 0.47006 0.16943 0.60431 0.0
H275 H 0.45874 0.17427 0.60256 0.0
H276 H 0.42662 0.1855 0.61435 0.0
H277 H 0.40836 0.18701 0.6023 0.0
H278 H 0.41309 0.17892 0.59417 0.0
H279 H 0.43136 0.17749 0.6061 0.0
C280 C 0.10216 0.18154 0.82897 0.0
C281 C 0.09813 0.17577 0.82791 0.0
C282 C 0.10706 0.17065 0.8211 0.0
C283 C 0.10054 0.17039 0.82399 0.0
C284 C 0.11102 0.17652 0.82205 0.0
C285 C 0.10859 0.18192 0.82597 0.0
U286 U 0.09056 0.18685 0.8431 0.0
O287 O 0.09247 0.19234 0.85258 0.0
O288 O 0.08516 0.19641 0.84522 0.0
C289 C 0.08859 0.19748 0.85084 0.0
C290 C 0.09988 0.18688 0.83363 0.0
C291 C 0.09161 0.20428 0.85162 0.0
C292 C 0.09016 0.21627 0.85411 0.0
C293 C 0.08738 0.20984 0.85297 0.0
C294 C 0.10145 0.21168 0.85248 0.0
C295 C 0.09723 0.21723 0.85398 0.0
C296 C 0.09866 0.20527 0.85127 0.0
C297 C 0.07838 0.17333 0.8498 0.0
C298 C 0.07068 0.17542 0.85917 0.0
C299 C 0.07243 0.16396 0.8551 0.0
C300 C 0.07692 0.16639 0.8502 0.0
C301 C 0.06931 0.16843 0.8597 0.0
C302 C 0.0752 0.17785 0.85427 0.0
C303 C 0.08356 0.17569 0.845 0.0
O304 O 0.09367 0.18911 0.83263 0.0
O305 O 0.10123 0.18568 0.84004 0.0
O306 O 0.08957 0.17674 0.84768 0.0
O307 O 0.08168 0.18049 0.84077 0.0
H308 H 0.09316 0.17537 0.83024 0.0
H309 H 0.09732 0.16599 0.82328 0.0
H310 H 0.1161 0.17686 0.81998 0.0
H311 H 0.11179 0.18631 0.82679 0.0
H312 H 0.08679 0.22044 0.8553 0.0
H313 H 0.08193 0.20918 0.85326 0.0
H314 H 0.1069 0.21229 0.85225 0.0
H315 H 0.10203 0.20107 0.85017 0.0
H316 H 0.06831 0.17902 0.86258 0.0
H317 H 0.07158 0.15854 0.85542 0.0
H318 H 0.07938 0.16284 0.84681 0.0
H319 H 0.07631 0.18323 0.85405 0.0
C320 C 0.42581 0.07349 0.15373 0.0
C321 C 0.42673 0.07948 0.15745 0.0
C322 C 0.43317 0.0844 0.14814 0.0
C323 C 0.4304 0.08488 0.1547 0.0
C324 C 0.43237 0.07831 0.1445 0.0
C325 C 0.4287 0.0729 0.14727 0.0
U326 U 0.41221 0.06824 0.16597 0.0
O327 O 0.40288 0.06233 0.1646 0.0
O328 O 0.4106 0.05887 0.17185 0.0
C329 C 0.40493 0.05744 0.16864 0.0
C330 C 0.4214 0.06809 0.15637 0.0
C331 C 0.40443 0.05053 0.16585 0.0
C332 C 0.40512 0.04268 0.15637 0.0
C333 C 0.40592 0.04922 0.15902 0.0
C334 C 0.40156 0.03865 0.16742 0.0
C335 C 0.40288 0.03734 0.16053 0.0
C336 C 0.40231 0.0452 0.17005 0.0
C337 C 0.40565 0.08229 0.17775 0.0
C338 C 0.39525 0.08151 0.18431 0.0
C339 C 0.40219 0.09165 0.18495 0.0
C340 C 0.40682 0.08876 0.18043 0.0
C341 C 0.39629 0.08811 0.18686 0.0
C342 C 0.3999 0.07862 0.17979 0.0
C343 C 0.41025 0.07966 0.17253 0.0
O344 O 0.42266 0.06617 0.16263 0.0
O345 O 0.41491 0.06904 0.15518 0.0
O346 O 0.40737 0.07823 0.16669 0.0
O347 O 0.41464 0.07504 0.1745 0.0
H348 H 0.42448 0.08004 0.16243 0.0
H349 H 0.43101 0.08944 0.15769 0.0
H350 H 0.43437 0.07781 0.13941 0.0
H351 H 0.42798 0.06833 0.14431 0.0
H352 H 0.40626 0.04181 0.15107 0.0
H353 H 0.40764 0.05325 0.1557 0.0
H354 H 0.39977 0.03465 0.17074 0.0
H355 H 0.40115 0.04612 0.17534 0.0
H356 H 0.39074 0.07867 0.18563 0.0
H357 H 0.4032 0.09668 0.1869 0.0
H358 H 0.41125 0.09164 0.17891 0.0
H359 H 0.39892 0.07362 0.17774 0.0
C360 C 0.18364 0.17619 0.40332 0.0
C361 C 0.17679 0.17594 0.40522 0.0
C362 C 0.17406 0.18469 0.39696 0.0
C363 C 0.17204 0.18014 0.40207 0.0
C364 C 0.18097 0.18505 0.3952 0.0
C365 C 0.18572 0.18082 0.39835 0.0
U366 U 0.18732 0.16198 0.41557 0.0
O367 O 0.19276 0.15236 0.41412 0.0
O368 O 0.19629 0.15963 0.42178 0.0
C369 C 0.19753 0.15396 0.41849 0.0
C370 C 0.18851 0.17139 0.40625 0.0
C371 C 0.20449 0.15307 0.41599 0.0
C372 C 0.21408 0.15688 0.40924 0.0
C373 C 0.20759 0.158 0.41189 0.0
C374 C 0.21442 0.14591 0.41479 0.0
C375 C 0.21753 0.15078 0.4106 0.0
C376 C 0.20796 0.14705 0.41746 0.0
C377 C 0.17287 0.15556 0.42666 0.0
C378 C 0.17445 0.14626 0.43456 0.0
C379 C 0.16315 0.15058 0.43235 0.0
C380 C 0.16587 0.15535 0.42786 0.0
C381 C 0.1674 0.14593 0.43571 0.0
C382 C 0.17716 0.15102 0.43006 0.0
C383 C 0.17558 0.16032 0.42162 0.0
O384 O 0.19005 0.17242 0.41265 0.0
O385 O 0.18725 0.165 0.40485 0.0
O386 O 0.17707 0.1576 0.41573 0.0
O387 O 0.18026 0.16453 0.42383 0.0
H388 H 0.17509 0.17236 0.40904 0.0
H389 H 0.16675 0.17965 0.40348 0.0
H390 H 0.18272 0.18857 0.39136 0.0
H391 H 0.191 0.18109 0.39684 0.0
H392 H 0.21631 0.16069 0.40598 0.0
H393 H 0.20494 0.16266 0.41066 0.0
H394 H 0.21699 0.1412 0.416 0.0
H395 H 0.20563 0.14319 0.4206 0.0
H396 H 0.17788 0.14282 0.43713 0.0
H397 H 0.1577 0.15041 0.43303 0.0
H398 H 0.16249 0.1588 0.42523 0.0
H399 H 0.18258 0.15112 0.42918 0.0
C400 C 0.07934 0.93324 0.65116 0.0
C401 C 0.07993 0.92642 0.65308 0.0
C402 C 0.07115 0.92327 0.64499 0.0
C403 C 0.07588 0.92148 0.65003 0.0
C404 C 0.07048 0.93015 0.64319 0.0
C405 C 0.07455 0.93509 0.64625 0.0
U406 U 0.09317 0.93786 0.66358 0.0
O407 O 0.10246 0.94385 0.6623 0.0
O408 O 0.0948 0.94708 0.6697 0.0
C409 C 0.10043 0.94862 0.66649 0.0
C410 C 0.08386 0.93838 0.65409 0.0
C411 C 0.10089 0.9556 0.66386 0.0
C412 C 0.10385 0.96742 0.66564 0.0
C413 C 0.10307 0.96083 0.66815 0.0
C414 C 0.10018 0.96364 0.65454 0.0
C415 C 0.1025 0.96888 0.65879 0.0
C416 C 0.09934 0.95706 0.65706 0.0
C417 C 0.10013 0.92385 0.67499 0.0
C418 C 0.10942 0.9258 0.68284 0.0
C419 C 0.10519 0.91439 0.68103 0.0
C420 C 0.1004 0.9169 0.67645 0.0
C421 C 0.1098 0.9188 0.68424 0.0
C422 C 0.10463 0.9283 0.67824 0.0
C423 C 0.09536 0.92632 0.66984 0.0
O424 O 0.08265 0.93995 0.66045 0.0
O425 O 0.09034 0.93743 0.65282 0.0
O426 O 0.09813 0.92789 0.66399 0.0
O427 O 0.09088 0.93079 0.67191 0.0
H428 H 0.08363 0.92491 0.65687 0.0
H429 H 0.0766 0.91623 0.65147 0.0
H430 H 0.06682 0.93172 0.6394 0.0
H431 H 0.07402 0.94035 0.64472 0.0
H432 H 0.1057 0.97134 0.66902 0.0
H433 H 0.10428 0.95979 0.67341 0.0
H434 H 0.09901 0.96463 0.64927 0.0
H435 H 0.09758 0.9531 0.65368 0.0
H436 H 0.11284 0.92934 0.68528 0.0
H437 H 0.1054 0.90898 0.68191 0.0
H438 H 0.09698 0.9134 0.67394 0.0
H439 H 0.10449 0.93368 0.67715 0.0
C440 C 0.32368 0.82965 0.90286 0.0
C441 C 0.33053 0.83007 0.90476 0.0
C442 C 0.33332 0.82082 0.89707 0.0
C443 C 0.33531 0.82571 0.90188 0.0
C444 C 0.32641 0.82032 0.89532 0.0
C445 C 0.32163 0.82471 0.89819 0.0
U446 U 0.31961 0.84398 0.91487 0.0
O447 O 0.31434 0.85364 0.91325 0.0
O448 O 0.31032 0.84635 0.92065 0.0
C449 C 0.30928 0.852 0.91726 0.0
C450 C 0.31875 0.83453 0.90555 0.0
C451 C 0.30244 0.85287 0.91437 0.0
C452 C 0.29052 0.85564 0.91596 0.0
C453 C 0.29699 0.85448 0.91865 0.0
C454 C 0.29486 0.85352 0.90466 0.0
C455 C 0.28942 0.85526 0.90892 0.0
C456 C 0.3013 0.85229 0.90736 0.0
C457 C 0.33378 0.85021 0.92652 0.0
C458 C 0.33231 0.85976 0.93415 0.0
C459 C 0.34345 0.85479 0.93261 0.0
C460 C 0.34071 0.85008 0.92808 0.0
C461 C 0.3393 0.85973 0.93565 0.0
C462 C 0.32958 0.85505 0.9296 0.0
C463 C 0.33111 0.84551 0.92141 0.0
O464 O 0.31692 0.83355 0.91188 0.0
O465 O 0.32013 0.84091 0.90418 0.0
O466 O 0.32989 0.84825 0.91546 0.0
O467 O 0.32626 0.84141 0.92346 0.0
H468 H 0.33219 0.83388 0.90836 0.0
H469 H 0.34059 0.82632 0.90328 0.0
H470 H 0.32469 0.81655 0.89172 0.0
H471 H 0.31636 0.82431 0.8967 0.0
H472 H 0.28643 0.85701 0.91936 0.0
H473 H 0.29776 0.85494 0.92407 0.0
H474 H 0.29414 0.8531 0.89923 0.0
H475 H 0.30541 0.85098 0.90395 0.0
H476 H 0.32895 0.86344 0.93646 0.0
H477 H 0.34886 0.85467 0.93358 0.0
H478 H 0.34403 0.8464 0.9257 0.0
H479 H 0.32421 0.85523 0.92843 0.0
C480 C 0.426 0.93291 0.353 0.0
C481 C 0.42565 0.92605 0.35114 0.0
C482 C 0.43448 0.92329 0.35932 0.0
C483 C 0.42985 0.92128 0.35428 0.0
C484 C 0.43493 0.93021 0.36103 0.0
C485 C 0.43071 0.93498 0.3579 0.0
U486 U 0.41214 0.93708 0.34041 0.0
O487 O 0.40254 0.94255 0.34169 0.0
O488 O 0.41015 0.94639 0.33452 0.0
C489 C 0.4044 0.94756 0.3377 0.0
C490 C 0.42128 0.93785 0.35005 0.0
C491 C 0.40359 0.9544 0.34057 0.0
C492 C 0.40357 0.96206 0.35023 0.0
C493 C 0.40479 0.95564 0.34748 0.0
C494 C 0.40022 0.96617 0.33915 0.0
C495 C 0.40121 0.96737 0.34611 0.0
C496 C 0.40138 0.95973 0.33641 0.0
C497 C 0.4059 0.92303 0.32867 0.0
C498 C 0.39659 0.92475 0.32079 0.0
C499 C 0.40112 0.91346 0.32257 0.0
C500 C 0.40583 0.91608 0.32718 0.0
C501 C 0.3964 0.91775 0.31937 0.0
C502 C 0.4013 0.92736 0.32542 0.0
C503 C 0.41054 0.92559 0.33389 0.0
O504 O 0.42252 0.93958 0.34373 0.0
O505 O 0.41484 0.93658 0.3512 0.0
O506 O 0.40768 0.9269 0.33976 0.0
O507 O 0.41482 0.93032 0.33194 0.0
H508 H 0.42203 0.92438 0.34736 0.0
H509 H 0.4293 0.91599 0.3529 0.0
H510 H 0.43851 0.93194 0.36482 0.0
H511 H 0.43105 0.94026 0.35937 0.0
H512 H 0.40446 0.96286 0.35559 0.0
H513 H 0.40658 0.95162 0.35077 0.0
H514 H 0.39836 0.97016 0.33586 0.0
H515 H 0.40043 0.95887 0.33106 0.0
H516 H 0.39309 0.92821 0.31836 0.0
H517 H 0.40106 0.90804 0.32168 0.0
H518 H 0.40932 0.91266 0.32969 0.0
H519 H 0.40128 0.93275 0.32654 0.0
C520 C 0.3232 0.17585 0.6016 0.0
C521 C 0.32923 0.17657 0.59789 0.0
C522 C 0.33421 0.18317 0.60706 0.0
C523 C 0.33467 0.18022 0.60058 0.0
C524 C 0.32809 0.18255 0.6107 0.0
C525 C 0.32264 0.1789 0.60799 0.0
U526 U 0.31766 0.16232 0.58942 0.0
O527 O 0.31159 0.15309 0.59082 0.0
O528 O 0.30824 0.16086 0.58357 0.0
C529 C 0.30673 0.15521 0.58677 0.0
C530 C 0.31773 0.17151 0.59901 0.0
C531 C 0.2998 0.15477 0.58952 0.0
C532 C 0.29193 0.15516 0.59901 0.0
C533 C 0.29849 0.15597 0.59642 0.0
C534 C 0.28787 0.15217 0.5878 0.0
C535 C 0.28656 0.15319 0.59473 0.0
C536 C 0.29444 0.15293 0.58523 0.0
C537 C 0.33138 0.15543 0.57752 0.0
C538 C 0.32942 0.14607 0.56977 0.0
C539 C 0.34077 0.15058 0.57122 0.0
C540 C 0.33828 0.15532 0.57585 0.0
C541 C 0.33639 0.14584 0.56817 0.0
C542 C 0.32694 0.15082 0.57442 0.0
C543 C 0.329 0.16011 0.58278 0.0
O544 O 0.31578 0.1728 0.59276 0.0
O545 O 0.31858 0.16501 0.6002 0.0
O546 O 0.32756 0.15726 0.58863 0.0
O547 O 0.32447 0.16462 0.58087 0.0
H548 H 0.32977 0.17421 0.59296 0.0
H549 H 0.33926 0.18069 0.5976 0.0
H550 H 0.3276 0.18469 0.61573 0.0
H551 H 0.31804 0.17833 0.61094 0.0
H552 H 0.29106 0.15607 0.60435 0.0
H553 H 0.30254 0.15746 0.59982 0.0
H554 H 0.28386 0.1506 0.58439 0.0
H555 H 0.29536 0.15199 0.57989 0.0
H556 H 0.32589 0.14255 0.56745 0.0
H557 H 0.34617 0.1505 0.57019 0.0
H558 H 0.34178 0.15883 0.57825 0.0
H559 H 0.32159 0.15083 0.57567 0.0
C560 C 0.07957 0.0743 0.8513 0.0
C561 C 0.07952 0.08083 0.84849 0.0
C562 C 0.07164 0.08462 0.85721 0.0
C563 C 0.07558 0.08595 0.85141 0.0
C564 C 0.07162 0.07801 0.85992 0.0
C565 C 0.07556 0.0729 0.85699 0.0
U566 U 0.09323 0.06934 0.83888 0.0
O567 O 0.10263 0.06353 0.84021 0.0
O568 O 0.09489 0.05993 0.83305 0.0
C569 C 0.10059 0.05858 0.83623 0.0
C570 C 0.08408 0.06907 0.84852 0.0
C571 C 0.10123 0.05168 0.83904 0.0
C572 C 0.10174 0.04399 0.84866 0.0
C573 C 0.10069 0.05049 0.84604 0.0
C574 C 0.10361 0.03972 0.83729 0.0
C575 C 0.10328 0.03854 0.84431 0.0
C576 C 0.10262 0.04624 0.83468 0.0
C577 C 0.09993 0.08306 0.82699 0.0
C578 C 0.10927 0.081 0.81923 0.0
C579 C 0.10491 0.0924 0.82071 0.0
C580 C 0.10013 0.08997 0.82534 0.0
C581 C 0.10959 0.08796 0.81765 0.0
C582 C 0.10448 0.07857 0.82387 0.0
C583 C 0.09522 0.0807 0.83224 0.0
O584 O 0.08279 0.06724 0.84223 0.0
O585 O 0.09056 0.0701 0.84967 0.0
O586 O 0.09806 0.07935 0.83811 0.0
O587 O 0.09078 0.07611 0.83034 0.0
H588 H 0.08263 0.08201 0.84411 0.0
H589 H 0.07579 0.09099 0.84924 0.0
H590 H 0.06857 0.0768 0.86433 0.0
H591 H 0.07556 0.06787 0.85922 0.0
H592 H 0.10137 0.04321 0.85408 0.0
H593 H 0.09954 0.0546 0.8495 0.0
H594 H 0.10482 0.03563 0.83382 0.0
H595 H 0.10305 0.04706 0.82926 0.0
H596 H 0.11273 0.07743 0.8169 0.0
H597 H 0.10507 0.0978 0.81969 0.0
H598 H 0.09668 0.0935 0.82774 0.0
H599 H 0.1044 0.07322 0.82511 0.0
C600 C 0.18237 0.82975 0.10023 0.0
C601 C 0.17679 0.82818 0.09609 0.0
C602 C 0.17177 0.82153 0.10521 0.0
C603 C 0.17155 0.82408 0.09855 0.0
C604 C 0.17748 0.82296 0.10926 0.0
C605 C 0.18273 0.82704 0.10678 0.0
U606 U 0.18662 0.84433 0.08879 0.0
O607 O 0.19152 0.85413 0.09083 0.0
O608 O 0.19587 0.84722 0.08326 0.0
C609 C 0.19661 0.85288 0.08672 0.0
C610 C 0.18742 0.83474 0.09795 0.0
C611 C 0.20337 0.85409 0.0896 0.0
C612 C 0.21262 0.85092 0.09712 0.0
C613 C 0.20629 0.84951 0.0942 0.0
C614 C 0.21314 0.86147 0.09083 0.0
C615 C 0.21608 0.85696 0.09551 0.0
C616 C 0.20684 0.86004 0.08791 0.0
C617 C 0.1725 0.85027 0.07692 0.0
C618 C 0.17335 0.86065 0.07035 0.0
C619 C 0.16302 0.85397 0.07 0.0
C620 C 0.16592 0.84927 0.07444 0.0
C621 C 0.16667 0.85977 0.06798 0.0
C622 C 0.17624 0.85594 0.0748 0.0
C623 C 0.17524 0.84557 0.08199 0.0
O624 O 0.18963 0.83397 0.0917 0.0
O625 O 0.18586 0.84105 0.09942 0.0
O626 O 0.17622 0.84822 0.08802 0.0
O627 O 0.18028 0.8417 0.07997 0.0
H628 H 0.17638 0.83028 0.09103 0.0
H629 H 0.16729 0.82301 0.09526 0.0
H630 H 0.17777 0.82115 0.11443 0.0
H631 H 0.18697 0.82827 0.11007 0.0
H632 H 0.21472 0.84737 0.10075 0.0
H633 H 0.20365 0.8449 0.0956 0.0
H634 H 0.21572 0.86611 0.08941 0.0
H635 H 0.20465 0.86363 0.08436 0.0
H636 H 0.17627 0.86509 0.06895 0.0
H637 H 0.15791 0.85309 0.06819 0.0
H638 H 0.16298 0.84491 0.07603 0.0
H639 H 0.18133 0.85679 0.0767 0.0
C640 C 0.1526 0.42587 0.0729 0.0
C641 C 0.15656 0.42691 0.07873 0.0
C642 C 0.14728 0.43307 0.08405 0.0
C643 C 0.15394 0.4305 0.08423 0.0
C644 C 0.14339 0.43214 0.07813 0.0
C645 C 0.14603 0.42855 0.07261 0.0
U646 U 0.1651 0.41274 0.06719 0.0
O647 O 0.16387 0.40329 0.06145 0.0
O648 O 0.17065 0.41126 0.05759 0.0
C649 C 0.16763 0.40544 0.05637 0.0
C650 C 0.15515 0.42153 0.06741 0.0
C651 C 0.16464 0.40466 0.04956 0.0
C652 C 0.15484 0.40372 0.04213 0.0
C653 C 0.15759 0.4049 0.04856 0.0
C654 C 0.16616 0.40231 0.03756 0.0
C655 C 0.15909 0.40235 0.03658 0.0
C656 C 0.1689 0.40343 0.044 0.0
C657 C 0.1777 0.40669 0.0807 0.0
C658 C 0.18557 0.39739 0.0789 0.0
C659 C 0.18449 0.40246 0.09005 0.0
C660 C 0.17966 0.40698 0.08752 0.0
C661 C 0.18745 0.39755 0.0858 0.0
C662 C 0.18072 0.40192 0.07638 0.0
C663 C 0.17221 0.4111 0.07833 0.0
O664 O 0.16126 0.42302 0.06519 0.0
O665 O 0.15425 0.41501 0.06843 0.0
O666 O 0.16642 0.408 0.07718 0.0
O667 O 0.17381 0.41554 0.07362 0.0
H668 H 0.16164 0.42483 0.07906 0.0
H669 H 0.15711 0.43121 0.08866 0.0
H670 H 0.13822 0.43398 0.07785 0.0
H671 H 0.14289 0.42773 0.06817 0.0
H672 H 0.14938 0.40387 0.04151 0.0
H673 H 0.15419 0.40591 0.05276 0.0
H674 H 0.16956 0.40122 0.03338 0.0
H675 H 0.17435 0.40322 0.04467 0.0
H676 H 0.18781 0.39374 0.07547 0.0
H677 H 0.18572 0.40266 0.0954 0.0
H678 H 0.17733 0.4106 0.09093 0.0
H679 H 0.17924 0.40163 0.0711 0.0
C680 C 0.65198 0.07909 0.93255 0.0
C681 C 0.65397 0.07932 0.92573 0.0
C682 C 0.64591 0.07037 0.92298 0.0
C683 C 0.65095 0.07502 0.92098 0.0
C684 C 0.64407 0.07005 0.92987 0.0
C685 C 0.64708 0.07438 0.93462 0.0
U686 U 0.6645 0.09301 0.93662 0.0
O687 O 0.66313 0.1028 0.94173 0.0
O688 O 0.6702 0.09531 0.94598 0.0
C689 C 0.66702 0.10109 0.94688 0.0
C690 C 0.65481 0.08393 0.93745 0.0
C691 C 0.66408 0.1022 0.95367 0.0
C692 C 0.66567 0.10495 0.96558 0.0
C693 C 0.66838 0.10358 0.95917 0.0
C694 C 0.65432 0.10353 0.96109 0.0
C695 C 0.65861 0.10504 0.96658 0.0
C696 C 0.65703 0.10209 0.9547 0.0
C697 C 0.67659 0.09871 0.92265 0.0
C698 C 0.68372 0.10868 0.92388 0.0
C699 C 0.6836 0.10249 0.91326 0.0
C700 C 0.67894 0.0979 0.916 0.0
C701 C 0.68598 0.10799 0.91714 0.0
C702 C 0.67906 0.10408 0.92661 0.0
C703 C 0.6713 0.09418 0.92524 0.0
O704 O 0.66108 0.08273 0.93938 0.0
O705 O 0.6537 0.09033 0.93596 0.0
O706 O 0.6654 0.0971 0.92631 0.0
O707 O 0.67313 0.09008 0.93017 0.0
H708 H 0.65775 0.08294 0.92405 0.0
H709 H 0.65243 0.07548 0.91571 0.0
H710 H 0.64028 0.06646 0.9316 0.0
H711 H 0.64551 0.07412 0.93987 0.0
H712 H 0.6691 0.10614 0.96971 0.0
H713 H 0.67383 0.10368 0.95848 0.0
H714 H 0.64886 0.10347 0.96173 0.0
H715 H 0.6536 0.10096 0.95056 0.0
H716 H 0.68539 0.1129 0.92698 0.0
H717 H 0.6853 0.10175 0.90809 0.0
H718 H 0.67708 0.09377 0.91288 0.0
H719 H 0.67726 0.1048 0.93175 0.0
C720 C 0.17615 0.40437 0.18335 0.0
C721 C 0.17588 0.40638 0.17654 0.0
C722 C 0.18478 0.3983 0.1737 0.0
C723 C 0.18014 0.40337 0.17175 0.0
C724 C 0.18514 0.39643 0.18059 0.0
C725 C 0.18084 0.39944 0.18537 0.0
U726 U 0.16182 0.41643 0.18712 0.0
O727 O 0.15219 0.41488 0.19251 0.0
O728 O 0.1594 0.42257 0.19613 0.0
C729 C 0.15372 0.41926 0.1973 0.0
C730 C 0.17132 0.40719 0.18826 0.0
C731 C 0.15275 0.41677 0.20424 0.0
C732 C 0.15579 0.4092 0.21348 0.0
C733 C 0.15708 0.41185 0.20702 0.0
C734 C 0.14591 0.41645 0.21446 0.0
C735 C 0.15014 0.41141 0.21724 0.0
C736 C 0.14721 0.41909 0.20802 0.0
C737 C 0.15529 0.42755 0.17277 0.0
C738 C 0.14586 0.43529 0.17447 0.0
C739 C 0.15009 0.43316 0.16313 0.0
C740 C 0.15498 0.42876 0.16578 0.0
C741 C 0.14543 0.43643 0.16744 0.0
C742 C 0.15074 0.43087 0.17712 0.0
C743 C 0.16012 0.42255 0.17543 0.0
O744 O 0.17227 0.41359 0.18987 0.0
O745 O 0.16494 0.40574 0.18699 0.0
O746 O 0.15747 0.41661 0.17687 0.0
O747 O 0.1643 0.42477 0.18013 0.0
H748 H 0.17225 0.41017 0.17489 0.0
H749 H 0.17965 0.40486 0.16649 0.0
H750 H 0.18871 0.39262 0.18228 0.0
H751 H 0.18112 0.39785 0.19062 0.0
H752 H 0.15911 0.40529 0.21545 0.0
H753 H 0.16136 0.40996 0.20414 0.0
H754 H 0.14157 0.41833 0.21726 0.0
H755 H 0.14382 0.42289 0.20594 0.0
H756 H 0.14242 0.43779 0.17794 0.0
H757 H 0.14985 0.43385 0.15769 0.0
H758 H 0.15843 0.42619 0.16236 0.0
H759 H 0.15091 0.42997 0.18253 0.0
C760 C 0.85331 0.92736 0.4345 0.0
C761 C 0.8509 0.92763 0.42782 0.0
C762 C 0.85951 0.936 0.42494 0.0
C763 C 0.85397 0.9319 0.42308 0.0
C764 C 0.86178 0.93585 0.43171 0.0
C765 C 0.85871 0.93155 0.43645 0.0
U766 U 0.84089 0.91328 0.43799 0.0
O767 O 0.84229 0.90337 0.44288 0.0
O768 O 0.83493 0.91062 0.44704 0.0
C769 C 0.83811 0.90481 0.44787 0.0
C770 C 0.85047 0.92242 0.43929 0.0
C771 C 0.84082 0.90351 0.45468 0.0
C772 C 0.84829 0.90643 0.46403 0.0
C773 C 0.84548 0.90796 0.45769 0.0
C774 C 0.84177 0.89602 0.46439 0.0
C775 C 0.84652 0.9004 0.46742 0.0
C776 C 0.83895 0.89756 0.45808 0.0
C777 C 0.82918 0.90787 0.42359 0.0
C778 C 0.82209 0.89784 0.42444 0.0
C779 C 0.82223 0.90441 0.41405 0.0
C780 C 0.82686 0.90891 0.41696 0.0
C781 C 0.81984 0.89877 0.41773 0.0
C782 C 0.82673 0.90235 0.42735 0.0
C783 C 0.8344 0.91237 0.4264 0.0
O784 O 0.84415 0.9235 0.44112 0.0
O785 O 0.85168 0.91606 0.4377 0.0
O786 O 0.84029 0.90946 0.42755 0.0
O787 O 0.83243 0.91635 0.43138 0.0
H788 H 0.84675 0.92439 0.42623 0.0
H789 H 0.85214 0.93181 0.4179 0.0
H790 H 0.86597 0.939 0.43334 0.0
H791 H 0.86063 0.9314 0.4416 0.0
H792 H 0.85198 0.90988 0.4662 0.0
H793 H 0.84702 0.91256 0.4551 0.0
H794 H 0.84023 0.89138 0.46691 0.0
H795 H 0.83536 0.89407 0.45581 0.0
H796 H 0.82042 0.89352 0.42739 0.0
H797 H 0.82053 0.90532 0.40891 0.0
H798 H 0.82871 0.91316 0.414 0.0
H799 H 0.8285 0.90147 0.43248 0.0
C800 C 0.82974 0.10154 0.18437 0.0
C801 C 0.8299 0.09967 0.17751 0.0
C802 C 0.82111 0.10796 0.17494 0.0
C803 C 0.82564 0.10286 0.17283 0.0
C804 C 0.82085 0.10968 0.18187 0.0
C805 C 0.82515 0.1065 0.18654 0.0
U806 U 0.84403 0.08929 0.18777 0.0
O807 O 0.85368 0.09067 0.19315 0.0
O808 O 0.84645 0.08295 0.19664 0.0
C809 C 0.85215 0.0862 0.19785 0.0
C810 C 0.83459 0.09856 0.18916 0.0
C811 C 0.85315 0.08855 0.20484 0.0
C812 C 0.85015 0.09592 0.21425 0.0
C813 C 0.84884 0.09341 0.20774 0.0
C814 C 0.86004 0.08866 0.21504 0.0
C815 C 0.85582 0.09364 0.21794 0.0
C816 C 0.85871 0.08615 0.20855 0.0
C817 C 0.85045 0.07843 0.1732 0.0
C818 C 0.86006 0.07088 0.17467 0.0
C819 C 0.85532 0.07268 0.16347 0.0
C820 C 0.85049 0.07707 0.16623 0.0
C821 C 0.86022 0.06958 0.16765 0.0
C822 C 0.85523 0.07527 0.17742 0.0
C823 C 0.84565 0.0834 0.17595 0.0
O824 O 0.8336 0.09213 0.19062 0.0
O825 O 0.84097 0.1 0.18788 0.0
O826 O 0.84833 0.0893 0.1775 0.0
O827 O 0.84147 0.08111 0.18062 0.0
H828 H 0.83345 0.09586 0.17574 0.0
H829 H 0.82605 0.10147 0.16754 0.0
H830 H 0.81737 0.11352 0.18368 0.0
H831 H 0.82495 0.10798 0.19183 0.0
H832 H 0.84684 0.09979 0.21631 0.0
H833 H 0.84454 0.09535 0.20491 0.0
H834 H 0.86439 0.08672 0.21778 0.0
H835 H 0.86209 0.08239 0.20638 0.0
H836 H 0.86369 0.0685 0.17804 0.0
H837 H 0.85535 0.07187 0.15804 0.0
H838 H 0.84686 0.07951 0.1629 0.0
H839 H 0.85527 0.07629 0.18282 0.0
C840 C 0.35321 0.57805 0.57144 0.0
C841 C 0.35109 0.57847 0.57822 0.0
C842 C 0.35941 0.56994 0.58145 0.0
C843 C 0.35417 0.57446 0.58318 0.0
C844 C 0.36139 0.56943 0.57461 0.0
C845 C 0.35832 0.57346 0.56965 0.0
U846 U 0.34049 0.59158 0.56685 0.0
O847 O 0.34166 0.60116 0.56131 0.0
O848 O 0.33465 0.59339 0.55747 0.0
C849 C 0.33774 0.59918 0.55629 0.0
C850 C 0.3503 0.58261 0.56633 0.0
C851 C 0.34061 0.60002 0.54944 0.0
C852 C 0.3503 0.60072 0.54185 0.0
C853 C 0.34763 0.59951 0.5483 0.0
C854 C 0.33897 0.60269 0.53752 0.0
C855 C 0.34601 0.60238 0.53641 0.0
C856 C 0.3363 0.60154 0.54399 0.0
C857 C 0.3285 0.5977 0.58076 0.0
C858 C 0.32164 0.60786 0.57956 0.0
C859 C 0.32123 0.60135 0.58998 0.0
C860 C 0.32588 0.59673 0.58728 0.0
C861 C 0.31914 0.60703 0.58619 0.0
C862 C 0.3263 0.60323 0.57687 0.0
C863 C 0.33381 0.59314 0.57825 0.0
O864 O 0.34402 0.58124 0.56451 0.0
O865 O 0.35133 0.58909 0.5675 0.0
O866 O 0.33966 0.59608 0.57699 0.0
O867 O 0.33196 0.58882 0.57352 0.0
H868 H 0.34715 0.58201 0.57968 0.0
H869 H 0.35258 0.57507 0.5884 0.0
H870 H 0.36535 0.56593 0.57309 0.0
H871 H 0.35999 0.57307 0.56443 0.0
H872 H 0.35574 0.60036 0.54112 0.0
H873 H 0.35105 0.59826 0.55241 0.0
H874 H 0.33554 0.60399 0.53343 0.0
H875 H 0.33087 0.60195 0.54477 0.0
H876 H 0.3202 0.61221 0.57653 0.0
H877 H 0.31931 0.6005 0.59506 0.0
H878 H 0.32752 0.59248 0.59035 0.0
H879 H 0.3283 0.60405 0.57182 0.0
C880 C 0.17506 0.60207 0.32361 0.0
C881 C 0.17591 0.59835 0.32961 0.0
C882 C 0.18254 0.60756 0.3345 0.0
C883 C 0.17964 0.60106 0.33499 0.0
C884 C 0.18179 0.61121 0.3284 0.0
C885 C 0.17806 0.60848 0.323 0.0
U886 U 0.16148 0.58983 0.31829 0.0
O887 O 0.15211 0.5912 0.31244 0.0
O888 O 0.15986 0.58403 0.30886 0.0
C889 C 0.15415 0.58721 0.3075 0.0
C890 C 0.17063 0.59947 0.31821 0.0
C891 C 0.15352 0.58998 0.30059 0.0
C892 C 0.15292 0.59955 0.29283 0.0
C893 C 0.15397 0.59699 0.29936 0.0
C894 C 0.15124 0.58813 0.28862 0.0
C895 C 0.15149 0.59515 0.2874 0.0
C896 C 0.15221 0.58557 0.29516 0.0
C897 C 0.1549 0.57787 0.33211 0.0
C898 C 0.14539 0.57024 0.33039 0.0
C899 C 0.15035 0.57147 0.34157 0.0
C900 C 0.15504 0.5761 0.33898 0.0
C901 C 0.14541 0.56854 0.33733 0.0
C902 C 0.1501 0.57488 0.3278 0.0
C903 C 0.15953 0.58315 0.32964 0.0
O904 O 0.17191 0.59323 0.31622 0.0
O905 O 0.16414 0.60063 0.31918 0.0
O906 O 0.15664 0.58899 0.32828 0.0
O907 O 0.16394 0.58126 0.32501 0.0
H908 H 0.17359 0.5934 0.33019 0.0
H909 H 0.18021 0.59807 0.33957 0.0
H910 H 0.18388 0.61626 0.32787 0.0
H911 H 0.17739 0.61144 0.31843 0.0
H912 H 0.15324 0.60497 0.29202 0.0
H913 H 0.15504 0.60049 0.30345 0.0
H914 H 0.15009 0.58462 0.28455 0.0
H915 H 0.15185 0.58015 0.29601 0.0
H916 H 0.14172 0.56801 0.32697 0.0
H917 H 0.15045 0.57037 0.34695 0.0
H918 H 0.1587 0.57841 0.34238 0.0
H919 H 0.14992 0.57622 0.32248 0.0
C920 C 0.32977 0.40382 0.824 0.0
C921 C 0.32837 0.40786 0.82968 0.0
C922 C 0.32169 0.39875 0.83466 0.0
C923 C 0.32434 0.40537 0.83494 0.0
C924 C 0.32295 0.39478 0.82885 0.0
C925 C 0.32697 0.3973 0.82357 0.0
U926 U 0.34427 0.41528 0.81939 0.0
O927 O 0.35395 0.41321 0.81428 0.0
O928 O 0.34695 0.42075 0.81002 0.0
C929 C 0.35253 0.41719 0.80912 0.0
C930 C 0.33465 0.40613 0.81887 0.0
C931 C 0.35367 0.41428 0.80227 0.0
C932 C 0.35192 0.41458 0.79004 0.0
C933 C 0.3505 0.41709 0.79652 0.0
C934 C 0.3597 0.40642 0.79489 0.0
C935 C 0.35658 0.40926 0.78914 0.0
C936 C 0.35828 0.40892 0.80137 0.0
C937 C 0.35068 0.42719 0.83326 0.0
C938 C 0.3605 0.43445 0.83169 0.0
C939 C 0.35537 0.43336 0.84281 0.0
C940 C 0.35053 0.42893 0.84014 0.0
C941 C 0.36046 0.43612 0.83864 0.0
C942 C 0.35565 0.43 0.82903 0.0
C943 C 0.34587 0.42213 0.83069 0.0
O944 O 0.33383 0.41238 0.81669 0.0
O945 O 0.341 0.40466 0.82029 0.0
O946 O 0.34846 0.41608 0.82967 0.0
O947 O 0.34186 0.42413 0.82575 0.0
H948 H 0.33054 0.4129 0.83013 0.0
H949 H 0.32338 0.40859 0.83929 0.0
H950 H 0.32107 0.38963 0.8285 0.0
H951 H 0.32807 0.39408 0.81926 0.0
H952 H 0.3495 0.41694 0.78571 0.0
H953 H 0.347 0.42129 0.79702 0.0
H954 H 0.36324 0.40226 0.7944 0.0
H955 H 0.36088 0.40668 0.80566 0.0
H956 H 0.36429 0.43655 0.82832 0.0
H957 H 0.35525 0.43446 0.84819 0.0
H958 H 0.34674 0.42676 0.84348 0.0
H959 H 0.35584 0.42867 0.8237 0.0
C960 C 0.9354 0.85284 0.56921 0.0
C961 C 0.92895 0.84999 0.56829 0.0
C962 C 0.92594 0.85909 0.5605 0.0
C963 C 0.92427 0.85307 0.56395 0.0
C964 C 0.93242 0.86194 0.56146 0.0
C965 C 0.93711 0.85882 0.56578 0.0
U966 U 0.93912 0.84035 0.58328 0.0
O967 O 0.94771 0.83339 0.58483 0.0
O968 O 0.94546 0.84124 0.5924 0.0
C969 C 0.9497 0.83652 0.59037 0.0
C970 C 0.94027 0.84968 0.57387 0.0
C971 C 0.9569 0.83839 0.59057 0.0
C972 C 0.96602 0.84629 0.58808 0.0
C973 C 0.95916 0.84452 0.58774 0.0
C974 C 0.96844 0.83577 0.59397 0.0
C975 C 0.97073 0.84193 0.59121 0.0
C976 C 0.96157 0.83402 0.59366 0.0
C977 C 0.92469 0.82983 0.5906 0.0
C978 C 0.9264 0.81999 0.59783 0.0
C979 C 0.91552 0.82573 0.59771 0.0
C980 C 0.918 0.83033 0.59294 0.0
C981 C 0.9197 0.82051 0.60023 0.0
C982 C 0.92889 0.82464 0.59309 0.0
C983 C 0.92724 0.8349 0.58577 0.0
O984 O 0.93934 0.8511 0.58031 0.0
O985 O 0.94147 0.84321 0.57277 0.0
O986 O 0.93138 0.83263 0.58105 0.0
O987 O 0.92926 0.84064 0.5885 0.0
H988 H 0.92751 0.8454 0.57096 0.0
H989 H 0.91929 0.85081 0.56341 0.0
H990 H 0.93387 0.86654 0.55884 0.0
H991 H 0.94207 0.8611 0.56646 0.0
H992 H 0.96765 0.85103 0.58584 0.0
H993 H 0.95562 0.84793 0.58529 0.0
H994 H 0.97193 0.83234 0.59647 0.0
H995 H 0.9599 0.82927 0.59587 0.0
H996 H 0.92974 0.81606 0.59972 0.0
H997 H 0.91032 0.82621 0.5994 0.0
H998 H 0.91469 0.83432 0.59109 0.0
H999 H 0.9341 0.82422 0.5914 0.0
C1000 C 0.90467 0.18519 0.31813 0.0
C1001 C 0.90747 0.17876 0.31698 0.0
C1002 C 0.89825 0.17605 0.30921 0.0
C1003 C 0.9043 0.17423 0.31255 0.0
C1004 C 0.89549 0.18253 0.31037 0.0
C1005 C 0.89868 0.18707 0.31479 0.0
U1006 U 0.91761 0.18851 0.33193 0.0
O1007 O 0.92432 0.1972 0.33382 0.0
O1008 O 0.91673 0.1943 0.34144 0.0
C1009 C 0.92123 0.19882 0.33951 0.0
C1010 C 0.90786 0.18986 0.32298 0.0
C1011 C 0.91907 0.20592 0.34008 0.0
C1012 C 0.91428 0.21613 0.33512 0.0
C1013 C 0.91626 0.20935 0.33451 0.0
C1014 C 0.91772 0.21607 0.34692 0.0
C1015 C 0.91499 0.21956 0.34133 0.0
C1016 C 0.91976 0.20931 0.34629 0.0
C1017 C 0.92921 0.1742 0.33763 0.0
C1018 C 0.93681 0.17547 0.34725 0.0
C1019 C 0.93741 0.16541 0.34021 0.0
C1020 C 0.93216 0.16792 0.33616 0.0
C1021 C 0.93979 0.16915 0.34581 0.0
C1022 C 0.93157 0.17799 0.34318 0.0
C1023 C 0.92372 0.17677 0.33331 0.0
O1024 O 0.90674 0.18843 0.32939 0.0
O1025 O 0.91422 0.19139 0.3217 0.0
O1026 O 0.92556 0.18133 0.32881 0.0
O1027 O 0.91807 0.17834 0.33649 0.0
H1028 H 0.91206 0.17721 0.31957 0.0
H1029 H 0.9065 0.16924 0.31186 0.0
H1030 H 0.89087 0.1841 0.30784 0.0
H1031 H 0.89646 0.19202 0.31564 0.0
H1032 H 0.91211 0.21866 0.33075 0.0
H1033 H 0.91561 0.20679 0.32969 0.0
H1034 H 0.91837 0.2186 0.35175 0.0
H1035 H 0.92189 0.20672 0.35065 0.0
H1036 H 0.93857 0.17849 0.35149 0.0
H1037 H 0.93953 0.16048 0.33902 0.0
H1038 H 0.93039 0.16494 0.3319 0.0
H1039 H 0.92936 0.18288 0.34435 0.0
C1040 C 0.57087 0.15366 0.07036 0.0
C1041 C 0.57455 0.15775 0.06583 0.0
C1042 C 0.58072 0.14787 0.06168 0.0
C1043 C 0.5794 0.15489 0.06152 0.0
C1044 C 0.57691 0.14377 0.0661 0.0
C1045 C 0.57202 0.14663 0.07037 0.0
U1046 U 0.56692 0.1654 0.08517 0.0
O1047 O 0.55826 0.17213 0.08718 0.0
O1048 O 0.56054 0.16377 0.09419 0.0
C1049 C 0.55626 0.16858 0.09246 0.0
C1050 C 0.56599 0.15661 0.07524 0.0
C1051 C 0.54907 0.16661 0.09252 0.0
C1052 C 0.53898 0.16252 0.08675 0.0
C1053 C 0.54582 0.16439 0.08659 0.0
C1054 C 0.53862 0.16495 0.09879 0.0
C1055 C 0.53531 0.16277 0.09286 0.0
C1056 C 0.54544 0.16687 0.09861 0.0
C1057 C 0.58118 0.17575 0.09308 0.0
C1058 C 0.57932 0.18519 0.10079 0.0
C1059 C 0.59039 0.17987 0.10013 0.0
C1060 C 0.58794 0.17538 0.09522 0.0
C1061 C 0.58611 0.18482 0.10296 0.0
C1062 C 0.57686 0.18065 0.09591 0.0
C1063 C 0.5787 0.17089 0.088 0.0
O1064 O 0.56689 0.15483 0.0816 0.0
O1065 O 0.56459 0.1631 0.07451 0.0
O1066 O 0.57454 0.17334 0.08339 0.0
O1067 O 0.57676 0.16499 0.09043 0.0
H1068 H 0.57377 0.16319 0.06566 0.0
H1069 H 0.58213 0.15819 0.05809 0.0
H1070 H 0.57783 0.13837 0.06643 0.0
H1071 H 0.56924 0.14336 0.07381 0.0
H1072 H 0.53659 0.16078 0.08212 0.0
H1073 H 0.54857 0.16409 0.08184 0.0
H1074 H 0.5359 0.16525 0.10356 0.0
H1075 H 0.54788 0.16856 0.10324 0.0
H1076 H 0.5759 0.18891 0.10293 0.0
H1077 H 0.59566 0.17952 0.10164 0.0
H1078 H 0.59134 0.17162 0.0931 0.0
H1079 H 0.5716 0.18097 0.09437 0.0
C1080 C 0.60497 0.81727 0.82136 0.0
C1081 C 0.60052 0.82165 0.81795 0.0
C1082 C 0.6101 0.82768 0.81298 0.0
C1083 C 0.60305 0.82677 0.81377 0.0
C1084 C 0.61453 0.82319 0.81632 0.0
C1085 C 0.61198 0.81803 0.82047 0.0
U1086 U 0.59178 0.81192 0.83421 0.0
O1087 O 0.58686 0.80208 0.83612 0.0
O1088 O 0.59278 0.80702 0.84416 0.0
C1089 C 0.58955 0.80152 0.84219 0.0
C1090 C 0.60237 0.81219 0.82618 0.0
C1091 C 0.59299 0.79505 0.84361 0.0
C1092 C 0.60324 0.7883 0.8447 0.0
C1093 C 0.60007 0.79446 0.84318 0.0
C1094 C 0.59227 0.7832 0.84688 0.0
C1095 C 0.59937 0.78261 0.84658 0.0
C1096 C 0.58911 0.78938 0.84543 0.0
C1097 C 0.57741 0.82435 0.83807 0.0
C1098 C 0.56975 0.82301 0.84763 0.0
C1099 C 0.56822 0.83234 0.83978 0.0
C1100 C 0.57379 0.8301 0.83602 0.0
C1101 C 0.56618 0.82887 0.84568 0.0
C1102 C 0.57532 0.82075 0.84385 0.0
C1103 C 0.58352 0.82236 0.83431 0.0
O1104 O 0.60263 0.81402 0.83258 0.0
O1105 O 0.59659 0.80929 0.82451 0.0
O1106 O 0.58283 0.81722 0.83013 0.0
O1107 O 0.58911 0.82207 0.83794 0.0
H1108 H 0.59508 0.82119 0.81861 0.0
H1109 H 0.59948 0.83006 0.81119 0.0
H1110 H 0.61998 0.82379 0.81591 0.0
H1111 H 0.61549 0.81472 0.82311 0.0
H1112 H 0.60872 0.78797 0.84434 0.0
H1113 H 0.60316 0.79877 0.84171 0.0
H1114 H 0.58916 0.77893 0.84837 0.0
H1115 H 0.58363 0.78974 0.84577 0.0
H1116 H 0.56827 0.82019 0.85211 0.0
H1117 H 0.56566 0.83693 0.83819 0.0
H1118 H 0.57536 0.83294 0.83159 0.0
H1119 H 0.57806 0.81628 0.84549 0.0
C1120 C 0.93565 0.15464 0.93597 0.0
C1121 C 0.9303 0.15864 0.93845 0.0
C1122 C 0.92502 0.14867 0.94349 0.0
C1123 C 0.92508 0.15569 0.94221 0.0
C1124 C 0.93048 0.14471 0.94113 0.0
C1125 C 0.93575 0.14768 0.93741 0.0
U1126 U 0.94027 0.16649 0.92165 0.0
O1127 O 0.94896 0.17336 0.92016 0.0
O1128 O 0.94699 0.16518 0.91286 0.0
C1129 C 0.95117 0.16998 0.91487 0.0
C1130 C 0.94087 0.15759 0.9315 0.0
C1131 C 0.95836 0.16806 0.91507 0.0
C1132 C 0.97007 0.17054 0.91221 0.0
C1133 C 0.96322 0.17235 0.91216 0.0
C1134 C 0.96728 0.16012 0.9181 0.0
C1135 C 0.97217 0.16439 0.91514 0.0
C1136 C 0.96043 0.16196 0.91809 0.0
C1137 C 0.92592 0.17645 0.91324 0.0
C1138 C 0.92732 0.18627 0.9059 0.0
C1139 C 0.91698 0.17963 0.90541 0.0
C1140 C 0.91948 0.17535 0.91046 0.0
C1141 C 0.92087 0.18513 0.90307 0.0
C1142 C 0.92985 0.18193 0.91092 0.0
C1143 C 0.92848 0.17171 0.9184 0.0
O1144 O 0.94035 0.15586 0.92508 0.0
O1145 O 0.94215 0.16408 0.93237 0.0
O1146 O 0.93243 0.17429 0.92312 0.0
O1147 O 0.93065 0.16587 0.91604 0.0
H1148 H 0.93008 0.16402 0.93737 0.0
H1149 H 0.92103 0.15892 0.94405 0.0
H1150 H 0.93057 0.13928 0.94194 0.0
H1151 H 0.93981 0.14451 0.9355 0.0
H1152 H 0.97371 0.1739 0.90983 0.0
H1153 H 0.9617 0.17708 0.90982 0.0
H1154 H 0.96875 0.15539 0.92047 0.0
H1155 H 0.95674 0.1586 0.92042 0.0
H1156 H 0.93044 0.19044 0.90416 0.0
H1157 H 0.91196 0.17868 0.90339 0.0
H1158 H 0.91639 0.17114 0.91218 0.0
H1159 H 0.93488 0.18283 0.91296 0.0
C1160 C 0.60301 0.18568 0.68161 0.0
C1161 C 0.60314 0.17887 0.67955 0.0
C1162 C 0.61108 0.17619 0.68862 0.0
C1163 C 0.60716 0.17417 0.68301 0.0
C1164 C 0.61081 0.18299 0.69076 0.0
C1165 C 0.60682 0.18771 0.68726 0.0
U1166 U 0.58934 0.18953 0.66872 0.0
O1167 O 0.58166 0.19761 0.66823 0.0
O1168 O 0.58926 0.19664 0.66014 0.0
C1169 C 0.58435 0.20032 0.66275 0.0
C1170 C 0.59902 0.19067 0.67777 0.0
C1171 C 0.58574 0.20763 0.66302 0.0
C1172 C 0.59008 0.21756 0.66887 0.0
C1173 C 0.58842 0.21067 0.66887 0.0
C1174 C 0.58643 0.21843 0.65716 0.0
C1175 C 0.58918 0.2215 0.66299 0.0
C1176 C 0.58472 0.21156 0.65719 0.0
C1177 C 0.57995 0.17485 0.66041 0.0
C1178 C 0.57004 0.17643 0.65324 0.0
C1179 C 0.57602 0.16569 0.65321 0.0
C1180 C 0.58059 0.16821 0.65799 0.0
C1181 C 0.5707 0.16977 0.65077 0.0
C1182 C 0.57466 0.17897 0.65799 0.0
C1183 C 0.58494 0.17746 0.66529 0.0
O1184 O 0.60014 0.19068 0.6712 0.0
O1185 O 0.59255 0.19097 0.67933 0.0
O1186 O 0.58247 0.18092 0.67042 0.0
O1187 O 0.59034 0.18027 0.66257 0.0
H1188 H 0.60018 0.1772 0.67523 0.0
H1189 H 0.60718 0.16895 0.68131 0.0
H1190 H 0.6138 0.18469 0.69504 0.0
H1191 H 0.60676 0.19295 0.68891 0.0
H1192 H 0.59226 0.21978 0.67341 0.0
H1193 H 0.58933 0.20769 0.6734 0.0
H1194 H 0.58562 0.22135 0.65258 0.0
H1195 H 0.58268 0.20928 0.65262 0.0
H1196 H 0.56603 0.17971 0.65141 0.0
H1197 H 0.5766 0.16051 0.65147 0.0
H1198 H 0.58466 0.16497 0.65979 0.0
H1199 H 0.57413 0.18415 0.65976 0.0
C1200 C 0.5708 0.85508 0.43111 0.0
C1201 C 0.57764 0.85459 0.42923 0.0
C1202 C 0.58071 0.86284 0.43789 0.0
C1203 C 0.58255 0.85845 0.43257 0.0
C1204 C 0.57386 0.86319 0.43986 0.0
C1205 C 0.56893 0.85935 0.43647 0.0
U1206 U 0.56651 0.84144 0.41841 0.0
O1207 O 0.55826 0.83393 0.41799 0.0
O1208 O 0.55938 0.84144 0.40983 0.0
C1209 C 0.55561 0.83662 0.41249 0.0
C1210 C 0.56563 0.85123 0.42737 0.0
C1211 C 0.54832 0.83814 0.41272 0.0
C1212 C 0.53838 0.84246 0.41858 0.0
C1213 C 0.54526 0.84072 0.41861 0.0
C1214 C 0.53757 0.83909 0.40679 0.0
C1215 C 0.53449 0.84173 0.41265 0.0
C1216 C 0.54443 0.83729 0.40684 0.0
C1217 C 0.58107 0.8317 0.41022 0.0
C1218 C 0.57962 0.82147 0.40349 0.0
C1219 C 0.59012 0.82784 0.40284 0.0
C1220 C 0.58759 0.8325 0.40753 0.0
C1221 C 0.58616 0.82227 0.40076 0.0
C1222 C 0.57707 0.82618 0.40816 0.0
C1223 C 0.57849 0.83677 0.41503 0.0
O1224 O 0.56562 0.85228 0.42078 0.0
O1225 O 0.56515 0.84478 0.42898 0.0
O1226 O 0.57498 0.83441 0.42018 0.0
O1227 O 0.57578 0.84219 0.41225 0.0
H1228 H 0.57918 0.85127 0.42513 0.0
H1229 H 0.5878 0.85799 0.43101 0.0
H1230 H 0.57229 0.86654 0.44392 0.0
H1231 H 0.56366 0.85977 0.43798 0.0
H1232 H 0.53615 0.84455 0.42315 0.0
H1233 H 0.54821 0.84149 0.42318 0.0
H1234 H 0.53468 0.8384 0.40217 0.0
H1235 H 0.54671 0.83533 0.40224 0.0
H1236 H 0.57643 0.81727 0.40194 0.0
H1237 H 0.59521 0.82854 0.4009 0.0
H1238 H 0.59074 0.83674 0.40906 0.0
H1239 H 0.57198 0.82552 0.41013 0.0
C1240 C 0.90312 0.81821 0.18457 0.0
C1241 C 0.90572 0.82465 0.18608 0.0
C1242 C 0.89586 0.82704 0.19314 0.0
C1243 C 0.90213 0.82903 0.19036 0.0
C1244 C 0.89332 0.82054 0.19165 0.0
C1245 C 0.89693 0.81616 0.1874 0.0
U1246 U 0.91611 0.81535 0.17059 0.0
O1247 O 0.92326 0.80698 0.16888 0.0
O1248 O 0.91536 0.80916 0.16133 0.0
C1249 C 0.92013 0.80496 0.16334 0.0
C1250 C 0.90666 0.8137 0.17981 0.0
C1251 C 0.91828 0.79775 0.16315 0.0
C1252 C 0.91374 0.78769 0.16861 0.0
C1253 C 0.91554 0.79453 0.16888 0.0
C1254 C 0.91728 0.78722 0.15685 0.0
C1255 C 0.91459 0.78396 0.16259 0.0
C1256 C 0.91913 0.79406 0.15713 0.0
C1257 C 0.92665 0.82998 0.16383 0.0
C1258 C 0.93284 0.82938 0.15319 0.0
C1259 C 0.93536 0.83829 0.16128 0.0
C1260 C 0.93041 0.83572 0.16565 0.0
C1261 C 0.93661 0.83517 0.15498 0.0
C1262 C 0.92793 0.82678 0.1576 0.0
C1263 C 0.92147 0.82734 0.1685 0.0
O1264 O 0.90532 0.81481 0.17338 0.0
O1265 O 0.91315 0.81272 0.18102 0.0
O1266 O 0.92372 0.82312 0.17315 0.0
O1267 O 0.91578 0.82533 0.16566 0.0
H1268 H 0.91046 0.82634 0.18388 0.0
H1269 H 0.90417 0.83403 0.19133 0.0
H1270 H 0.88854 0.81885 0.19376 0.0
H1271 H 0.89485 0.8112 0.18626 0.0
H1272 H 0.91159 0.78533 0.17308 0.0
H1273 H 0.91477 0.79733 0.17354 0.0
H1274 H 0.91803 0.78446 0.15216 0.0
H1275 H 0.92122 0.79647 0.15266 0.0
H1276 H 0.93374 0.82683 0.14841 0.0
H1277 H 0.93813 0.8428 0.16277 0.0
H1278 H 0.9295 0.83823 0.17045 0.0
H1279 H 0.92512 0.82229 0.15613 0.0
C1280 C 0.57242 0.93258 0.85495 0.0
C1281 C 0.57433 0.92573 0.85474 0.0
C1282 C 0.5644 0.92266 0.86142 0.0
C1283 C 0.57037 0.92082 0.85797 0.0
C1284 C 0.56249 0.92954 0.86157 0.0
C1285 C 0.56648 0.93446 0.85837 0.0
U1286 U 0.58589 0.93712 0.84205 0.0
O1287 O 0.5865 0.94561 0.83481 0.0
O1288 O 0.59443 0.94425 0.84252 0.0
C1289 C 0.59192 0.94817 0.83774 0.0
C1290 C 0.57654 0.93774 0.85149 0.0
C1291 C 0.59156 0.9554 0.83944 0.0
C1292 C 0.58868 0.96444 0.84729 0.0
C1293 C 0.58871 0.95756 0.8456 0.0
C1294 C 0.59415 0.96709 0.8366 0.0
C1295 C 0.59144 0.96928 0.84283 0.0
C1296 C 0.59422 0.9602 0.83493 0.0
C1297 C 0.5943 0.92304 0.8319 0.0
C1298 C 0.60143 0.92516 0.82207 0.0
C1299 C 0.60157 0.91414 0.82751 0.0
C1300 C 0.59678 0.91639 0.83222 0.0
C1301 C 0.60394 0.91849 0.82238 0.0
C1302 C 0.59668 0.92743 0.82683 0.0
C1303 C 0.58936 0.92533 0.83698 0.0
O1304 O 0.58307 0.93754 0.85282 0.0
O1305 O 0.57521 0.93853 0.84501 0.0
O1306 O 0.58426 0.92894 0.83466 0.0
O1307 O 0.592 0.9278 0.84258 0.0
H1308 H 0.57887 0.92418 0.85206 0.0
H1309 H 0.57193 0.91556 0.85766 0.0
H1310 H 0.55794 0.93111 0.86422 0.0
H1311 H 0.56493 0.93973 0.85856 0.0
H1312 H 0.58648 0.96599 0.85208 0.0
H1313 H 0.58659 0.95391 0.84912 0.0
H1314 H 0.59637 0.97069 0.83309 0.0
H1315 H 0.59643 0.95861 0.83016 0.0
H1316 H 0.60322 0.92865 0.81822 0.0
H1317 H 0.60334 0.90894 0.82782 0.0
H1318 H 0.59501 0.91294 0.83611 0.0
H1319 H 0.59487 0.93262 0.82655 0.0
C1320 C 0.81944 0.82293 0.60269 0.0
C1321 C 0.82631 0.82399 0.60117 0.0
C1322 C 0.8296 0.81627 0.61021 0.0
C1323 C 0.83134 0.8207 0.6049 0.0
C1324 C 0.8227 0.81506 0.61158 0.0
C1325 C 0.81765 0.81839 0.60786 0.0
U1326 U 0.81475 0.83545 0.58901 0.0
O1327 O 0.80598 0.83612 0.58216 0.0
O1328 O 0.80809 0.84439 0.58933 0.0
C1329 C 0.80382 0.84181 0.5849 0.0
C1330 C 0.81419 0.82683 0.59912 0.0
C1331 C 0.79666 0.84196 0.58697 0.0
C1332 C 0.78675 0.83657 0.59193 0.0
C1333 C 0.79352 0.83624 0.58983 0.0
C1334 C 0.78623 0.84834 0.58842 0.0
C1335 C 0.78306 0.84263 0.59128 0.0
C1336 C 0.79298 0.84799 0.58626 0.0
C1337 C 0.82878 0.84252 0.57777 0.0
C1338 C 0.82781 0.85298 0.57131 0.0
C1339 C 0.837 0.84515 0.569 0.0
C1340 C 0.83457 0.8408 0.57404 0.0
C1341 C 0.83368 0.85131 0.56762 0.0
C1342 C 0.82535 0.8486 0.57632 0.0
C1343 C 0.82645 0.838 0.58321 0.0
O1344 O 0.81462 0.83342 0.59996 0.0
O1345 O 0.81312 0.82506 0.59278 0.0
O1346 O 0.82246 0.83301 0.5813 0.0
O1347 O 0.8244 0.84102 0.58879 0.0
H1348 H 0.82777 0.82747 0.59717 0.0
H1349 H 0.83661 0.82166 0.60365 0.0
H1350 H 0.82122 0.8117 0.61567 0.0
H1351 H 0.81237 0.81753 0.60911 0.0
H1352 H 0.78446 0.83212 0.59419 0.0
H1353 H 0.79631 0.83156 0.59049 0.0
H1354 H 0.78349 0.85306 0.5878 0.0
H1355 H 0.79533 0.85246 0.58409 0.0
H1356 H 0.82511 0.85766 0.57031 0.0
H1357 H 0.84158 0.84376 0.5663 0.0
H1358 H 0.83727 0.83613 0.57509 0.0
H1359 H 0.82082 0.84998 0.5791 0.0
C1360 C 0.93321 0.07004 0.35515 0.0
C1361 C 0.93157 0.07696 0.35507 0.0
C1362 C 0.9415 0.07949 0.36197 0.0
C1363 C 0.93566 0.08164 0.35847 0.0
C1364 C 0.94316 0.07255 0.36198 0.0
C1365 C 0.93903 0.06786 0.35861 0.0
U1366 U 0.91956 0.06623 0.34218 0.0
O1367 O 0.91866 0.05791 0.33478 0.0
O1368 O 0.91082 0.05933 0.34256 0.0
C1369 C 0.91319 0.05544 0.3377 0.0
C1370 C 0.92893 0.06511 0.35156 0.0
C1371 C 0.91342 0.04818 0.33932 0.0
C1372 C 0.91659 0.039 0.34688 0.0
C1373 C 0.91666 0.04589 0.34523 0.0
C1374 C 0.9102 0.03661 0.33665 0.0
C1375 C 0.91331 0.03429 0.34264 0.0
C1376 C 0.91024 0.04351 0.33502 0.0
C1377 C 0.91146 0.08076 0.33241 0.0
C1378 C 0.90416 0.07905 0.32262 0.0
C1379 C 0.90434 0.08993 0.32833 0.0
C1380 C 0.90913 0.08745 0.33292 0.0
C1381 C 0.9018 0.08576 0.32313 0.0
C1382 C 0.90893 0.07655 0.32725 0.0
C1383 C 0.91638 0.07822 0.3374 0.0
O1384 O 0.92241 0.06548 0.35293 0.0
O1385 O 0.93021 0.06446 0.34505 0.0
O1386 O 0.92136 0.07452 0.33495 0.0
O1387 O 0.91372 0.0757 0.34296 0.0
H1388 H 0.92713 0.07875 0.35237 0.0
H1389 H 0.93432 0.08696 0.35827 0.0
H1390 H 0.9476 0.07073 0.36466 0.0
H1391 H 0.94037 0.06253 0.3587 0.0
H1392 H 0.91911 0.03735 0.35148 0.0
H1393 H 0.91918 0.04944 0.34859 0.0
H1394 H 0.90758 0.03311 0.33331 0.0
H1395 H 0.90772 0.04521 0.33044 0.0
H1396 H 0.90225 0.0757 0.3187 0.0
H1397 H 0.90269 0.09515 0.3288 0.0
H1398 H 0.91102 0.09076 0.33689 0.0
H1399 H 0.91061 0.07134 0.32683 0.0
C1400 C 0.68606 0.18517 0.10279 0.0
C1401 C 0.67958 0.186 0.09998 0.0
C1402 C 0.67676 0.19427 0.10871 0.0
C1403 C 0.67497 0.19052 0.1029 0.0
C1404 C 0.68328 0.19342 0.11149 0.0
C1405 C 0.6879 0.18891 0.10854 0.0
U1406 U 0.6898 0.17096 0.09041 0.0
O1407 O 0.69868 0.16909 0.08392 0.0
O1408 O 0.69574 0.16161 0.09162 0.0
C1409 C 0.70031 0.16349 0.08714 0.0
C1410 C 0.69085 0.1803 0.09982 0.0
C1411 C 0.70739 0.16309 0.0894 0.0
C1412 C 0.71618 0.1655 0.09768 0.0
C1413 C 0.7094 0.16586 0.09563 0.0
C1414 C 0.71901 0.15967 0.08724 0.0
C1415 C 0.72106 0.16242 0.09349 0.0
C1416 C 0.71222 0.16 0.08522 0.0
C1417 C 0.67586 0.16434 0.07889 0.0
C1418 C 0.67683 0.15368 0.07278 0.0
C1419 C 0.66788 0.16161 0.06993 0.0
C1420 C 0.67022 0.16606 0.07493 0.0
C1421 C 0.67113 0.15535 0.06883 0.0
C1422 C 0.6792 0.15815 0.07775 0.0
C1423 C 0.6782 0.16903 0.08419 0.0
O1424 O 0.68955 0.1739 0.10116 0.0
O1425 O 0.69241 0.18137 0.09343 0.0
O1426 O 0.68267 0.17356 0.08221 0.0
O1427 O 0.67972 0.16622 0.09004 0.0
H1428 H 0.67806 0.1831 0.09556 0.0
H1429 H 0.66996 0.19097 0.1007 0.0
H1430 H 0.68483 0.19627 0.11592 0.0
H1431 H 0.69289 0.18831 0.11077 0.0
H1432 H 0.71762 0.16774 0.10249 0.0
H1433 H 0.70573 0.16833 0.0989 0.0
H1434 H 0.72264 0.1572 0.08393 0.0
H1435 H 0.71075 0.15784 0.08038 0.0
H1436 H 0.67948 0.14893 0.072 0.0
H1437 H 0.66343 0.16301 0.06702 0.0
H1438 H 0.6676 0.17082 0.07574 0.0
H1439 H 0.68361 0.15677 0.08072 0.0
C1440 C 0.57025 0.07012 0.6537 0.0
C1441 C 0.56564 0.07392 0.65759 0.0
C1442 C 0.56184 0.07996 0.6475 0.0
C1443 C 0.56147 0.07875 0.65452 0.0
C1444 C 0.56635 0.07604 0.64359 0.0
C1445 C 0.57049 0.07116 0.64666 0.0
U1446 U 0.58465 0.0662 0.66597 0.0
O1447 O 0.58623 0.05761 0.67292 0.0
O1448 O 0.59362 0.0597 0.66485 0.0
C1449 C 0.59165 0.05551 0.66965 0.0
C1450 C 0.57498 0.06524 0.65688 0.0
C1451 C 0.59164 0.0483 0.66778 0.0
C1452 C 0.58864 0.03922 0.66003 0.0
C1453 C 0.58852 0.04609 0.66178 0.0
C1454 C 0.59487 0.03671 0.67033 0.0
C1455 C 0.59182 0.03446 0.66428 0.0
C1456 C 0.59479 0.04358 0.67205 0.0
C1457 C 0.59242 0.08064 0.6762 0.0
C1458 C 0.5999 0.07899 0.68587 0.0
C1459 C 0.59954 0.08987 0.68015 0.0
C1460 C 0.59468 0.08734 0.67565 0.0
C1461 C 0.60221 0.08572 0.68531 0.0
C1462 C 0.59507 0.07645 0.68133 0.0
C1463 C 0.58745 0.07807 0.67128 0.0
O1464 O 0.58141 0.06601 0.65528 0.0
O1465 O 0.57403 0.06397 0.66336 0.0
O1466 O 0.58274 0.074 0.6737 0.0
O1467 O 0.59002 0.07597 0.6655 0.0
H1468 H 0.5653 0.07323 0.66303 0.0
H1469 H 0.55797 0.08158 0.65768 0.0
H1470 H 0.56684 0.07687 0.63819 0.0
H1471 H 0.57399 0.06829 0.64354 0.0
H1472 H 0.58617 0.03763 0.65538 0.0
H1473 H 0.58602 0.04968 0.65845 0.0
H1474 H 0.59741 0.03317 0.67367 0.0
H1475 H 0.59721 0.04521 0.67671 0.0
H1476 H 0.60191 0.07567 0.68976 0.0
H1477 H 0.60115 0.09509 0.67964 0.0
H1478 H 0.59271 0.09064 0.67172 0.0
H1479 H 0.59344 0.07123 0.68179 0.0
C1480 C 0.6868 0.8201 0.40288 0.0
C1481 C 0.68036 0.81908 0.40574 0.0
C1482 C 0.67749 0.81117 0.3967 0.0
C1483 C 0.67576 0.81464 0.40269 0.0
C1484 C 0.68396 0.81221 0.39386 0.0
C1485 C 0.68858 0.81663 0.39694 0.0
U1486 U 0.69046 0.83389 0.41573 0.0
O1487 O 0.69933 0.83564 0.42227 0.0
O1488 O 0.69629 0.84335 0.41483 0.0
C1489 C 0.70088 0.84138 0.41925 0.0
C1490 C 0.69157 0.8249 0.40598 0.0
C1491 C 0.70796 0.84199 0.41704 0.0
C1492 C 0.71684 0.83993 0.40877 0.0
C1493 C 0.71006 0.83937 0.41076 0.0
C1494 C 0.71948 0.84566 0.41932 0.0
C1495 C 0.72163 0.84306 0.41304 0.0
C1496 C 0.71269 0.84513 0.4213 0.0
C1497 C 0.67644 0.83991 0.42747 0.0
C1498 C 0.67746 0.85023 0.43413 0.0
C1499 C 0.66816 0.84245 0.43621 0.0
C1500 C 0.67059 0.83817 0.43111 0.0
C1501 C 0.67153 0.84856 0.43774 0.0
C1502 C 0.67991 0.84592 0.42906 0.0
C1503 C 0.67885 0.83544 0.42202 0.0
O1504 O 0.69021 0.83133 0.40487 0.0
O1505 O 0.69318 0.82362 0.41233 0.0
O1506 O 0.68339 0.83091 0.42384 0.0
O1507 O 0.68033 0.83848 0.41628 0.0
H1508 H 0.67889 0.82177 0.4103 0.0
H1509 H 0.67078 0.81405 0.40494 0.0
H1510 H 0.68547 0.80957 0.38929 0.0
H1511 H 0.69353 0.81738 0.39467 0.0
H1512 H 0.71837 0.83782 0.40393 0.0
H1513 H 0.70647 0.83688 0.40744 0.0
H1514 H 0.72303 0.84816 0.42269 0.0
H1515 H 0.71114 0.84717 0.42616 0.0
H1516 H 0.6802 0.85486 0.43524 0.0
H1517 H 0.66354 0.84106 0.43885 0.0
H1518 H 0.66787 0.83354 0.42996 0.0
H1519 H 0.68448 0.84731 0.42633 0.0
C1520 C 0.93565 0.93581 0.1519 0.0
C1521 C 0.94105 0.93304 0.15564 0.0
C1522 C 0.94449 0.9262 0.14594 0.0
C1523 C 0.94542 0.9283 0.1527 0.0
C1524 C 0.93921 0.92913 0.14214 0.0
C1525 C 0.93486 0.9339 0.14508 0.0
U1526 U 0.92086 0.93948 0.16383 0.0
O1527 O 0.91891 0.94798 0.17077 0.0
O1528 O 0.91184 0.9459 0.16241 0.0
C1529 C 0.91361 0.95007 0.1673 0.0
C1530 C 0.93076 0.9406 0.15502 0.0
C1531 C 0.91358 0.95729 0.16546 0.0
C1532 C 0.91935 0.96735 0.1613 0.0
C1533 C 0.91949 0.96049 0.16309 0.0
C1534 C 0.90738 0.96784 0.1641 0.0
C1535 C 0.91329 0.97109 0.16177 0.0
C1536 C 0.90754 0.96099 0.16595 0.0
C1537 C 0.91301 0.92501 0.1739 0.0
C1538 C 0.90519 0.92675 0.18328 0.0
C1539 C 0.90623 0.91564 0.17811 0.0
C1540 C 0.91108 0.91818 0.17361 0.0
C1541 C 0.90324 0.91989 0.183 0.0
C1542 C 0.91001 0.9293 0.17873 0.0
C1543 C 0.91806 0.92758 0.16906 0.0
O1544 O 0.92438 0.93977 0.15325 0.0
O1545 O 0.93152 0.94183 0.16153 0.0
O1546 O 0.92268 0.93167 0.17158 0.0
O1547 O 0.91558 0.92966 0.16323 0.0
H1548 H 0.94187 0.93445 0.16089 0.0
H1549 H 0.94951 0.92625 0.15573 0.0
H1550 H 0.93829 0.9276 0.13695 0.0
H1551 H 0.93079 0.936 0.14204 0.0
H1552 H 0.92396 0.9697 0.15944 0.0
H1553 H 0.92419 0.95769 0.16261 0.0
H1554 H 0.90266 0.9706 0.16457 0.0
H1555 H 0.90294 0.95859 0.16774 0.0
H1556 H 0.90294 0.93015 0.18695 0.0
H1557 H 0.90489 0.91032 0.17783 0.0
H1558 H 0.91333 0.9148 0.1699 0.0
H1559 H 0.9114 0.93461 0.17899 0.0
C1560 C 0.81977 0.18345 0.90152 0.0
C1561 C 0.82639 0.1841 0.90407 0.0
C1562 C 0.82917 0.19209 0.89508 0.0
C1563 C 0.83104 0.18839 0.90089 0.0
C1564 C 0.82253 0.19141 0.89253 0.0
C1565 C 0.81787 0.18713 0.89574 0.0
U1566 U 0.81602 0.16935 0.91402 0.0
O1567 O 0.80758 0.16804 0.92121 0.0
O1568 O 0.80932 0.16047 0.91323 0.0
C1569 C 0.80529 0.16261 0.91809 0.0
C1570 C 0.8149 0.17888 0.90481 0.0
C1571 C 0.79804 0.16272 0.9164 0.0
C1572 C 0.78882 0.16586 0.90886 0.0
C1573 C 0.79573 0.16589 0.91047 0.0
C1574 C 0.78647 0.15958 0.91917 0.0
C1575 C 0.78412 0.16269 0.91319 0.0
C1576 C 0.79338 0.15959 0.92075 0.0
C1577 C 0.83042 0.16147 0.92413 0.0
C1578 C 0.82855 0.1541 0.93384 0.0
C1579 C 0.83955 0.15439 0.92836 0.0
C1580 C 0.83714 0.1592 0.92375 0.0
C1581 C 0.83529 0.15179 0.93346 0.0
C1582 C 0.82612 0.15887 0.92918 0.0
C1583 C 0.82794 0.16641 0.91913 0.0
O1584 O 0.81561 0.17243 0.9033 0.0
O1585 O 0.81394 0.17996 0.91132 0.0
O1586 O 0.82404 0.17127 0.92152 0.0
O1587 O 0.82567 0.16377 0.91344 0.0
H1588 H 0.82796 0.18125 0.9085 0.0
H1589 H 0.83614 0.18872 0.90291 0.0
H1590 H 0.82093 0.19422 0.8881 0.0
H1591 H 0.81278 0.18667 0.89371 0.0
H1592 H 0.78716 0.16836 0.90426 0.0
H1593 H 0.79927 0.16838 0.90707 0.0
H1594 H 0.78298 0.15705 0.92257 0.0
H1595 H 0.79509 0.15712 0.92535 0.0
H1596 H 0.82514 0.15214 0.93767 0.0
H1597 H 0.84479 0.15277 0.92799 0.0
H1598 H 0.84052 0.16113 0.91987 0.0
H1599 H 0.82089 0.16052 0.92951 0.0
C1600 C 0.85376 0.57311 0.93592 0.0
C1601 C 0.85116 0.57237 0.92934 0.0
C1602 C 0.86029 0.56454 0.92654 0.0
C1603 C 0.85438 0.56811 0.92469 0.0
C1604 C 0.86288 0.56532 0.93314 0.0
C1605 C 0.85962 0.56957 0.9378 0.0
U1606 U 0.84115 0.58712 0.93964 0.0
O1607 O 0.83401 0.5884 0.94813 0.0
O1608 O 0.8419 0.59604 0.94627 0.0
C1609 C 0.83714 0.59384 0.95039 0.0
C1610 C 0.85044 0.57767 0.94078 0.0
C1611 C 0.83903 0.59364 0.95758 0.0
C1612 C 0.84689 0.59041 0.96649 0.0
C1613 C 0.84508 0.59051 0.95965 0.0
C1614 C 0.83654 0.59643 0.9693 0.0
C1615 C 0.84264 0.59338 0.9714 0.0
C1616 C 0.83476 0.59657 0.96244 0.0
C1617 C 0.83098 0.59483 0.92515 0.0
C1618 C 0.82122 0.60218 0.92684 0.0
C1619 C 0.82676 0.60174 0.91588 0.0
C1620 C 0.83139 0.597 0.9184 0.0
C1621 C 0.82163 0.60438 0.92007 0.0
C1622 C 0.82589 0.59747 0.92938 0.0
C1623 C 0.83599 0.58995 0.92772 0.0
O1624 O 0.8519 0.58413 0.94003 0.0
O1625 O 0.84394 0.57654 0.94175 0.0
O1626 O 0.83362 0.58513 0.93166 0.0
O1627 O 0.84166 0.59265 0.92996 0.0
H1628 H 0.84666 0.57513 0.92779 0.0
H1629 H 0.85232 0.5677 0.91962 0.0
H1630 H 0.86738 0.5626 0.93472 0.0
H1631 H 0.8617 0.5701 0.94286 0.0
H1632 H 0.85158 0.58794 0.96796 0.0
H1633 H 0.84841 0.58817 0.95595 0.0
H1634 H 0.8332 0.5988 0.97296 0.0
H1635 H 0.83006 0.59898 0.96093 0.0
H1636 H 0.81735 0.60417 0.9302 0.0
H1637 H 0.82715 0.60327 0.91062 0.0
H1638 H 0.83529 0.59503 0.91508 0.0
H1639 H 0.82554 0.5959 0.93463 0.0
C1640 C 0.35466 0.93185 0.07058 0.0
C1641 C 0.35388 0.93061 0.07754 0.0
C1642 C 0.36156 0.93993 0.08015 0.0
C1643 C 0.35731 0.9346 0.08228 0.0
C1644 C 0.36225 0.94121 0.07316 0.0
C1645 C 0.35884 0.93718 0.06842 0.0
U1646 U 0.34116 0.91882 0.06632 0.0
O1647 O 0.33433 0.91791 0.05756 0.0
O1648 O 0.34164 0.9098 0.05977 0.0
C1649 C 0.33718 0.91225 0.05547 0.0
C1650 C 0.35117 0.92757 0.06558 0.0
C1651 C 0.33926 0.91212 0.04832 0.0
C1652 C 0.34423 0.91758 0.03846 0.0
C1653 C 0.34223 0.91782 0.04526 0.0
C1654 C 0.34042 0.90591 0.03776 0.0
C1655 C 0.34335 0.91162 0.03464 0.0
C1656 C 0.33837 0.90617 0.04454 0.0
C1657 C 0.3296 0.91213 0.08023 0.0
C1658 C 0.32283 0.90188 0.07909 0.0
C1659 C 0.32043 0.90986 0.08812 0.0
C1660 C 0.32572 0.91401 0.08587 0.0
C1661 C 0.31895 0.90373 0.08478 0.0
C1662 C 0.32809 0.90607 0.07681 0.0
C1663 C 0.33515 0.91655 0.07796 0.0
O1664 O 0.35209 0.92101 0.06635 0.0
O1665 O 0.34481 0.9292 0.06437 0.0
O1666 O 0.33336 0.92149 0.07385 0.0
O1667 O 0.34075 0.91345 0.07607 0.0
H1668 H 0.35062 0.92655 0.07931 0.0
H1669 H 0.35659 0.93356 0.08763 0.0
H1670 H 0.36551 0.94524 0.07136 0.0
H1671 H 0.35948 0.9382 0.06306 0.0
H1672 H 0.34655 0.92202 0.03622 0.0
H1673 H 0.34303 0.92244 0.04812 0.0
H1674 H 0.33963 0.90127 0.03493 0.0
H1675 H 0.3361 0.90172 0.04683 0.0
H1676 H 0.32177 0.89722 0.07637 0.0
H1677 H 0.31759 0.91138 0.09257 0.0
H1678 H 0.3268 0.91868 0.08856 0.0
H1679 H 0.33098 0.90456 0.07238 0.0
C1680 C 0.81849 0.60108 0.81873 0.0
C1681 C 0.81411 0.59689 0.82248 0.0
C1682 C 0.80972 0.6067 0.82858 0.0
C1683 C 0.80975 0.59968 0.82733 0.0
C1684 C 0.81398 0.6109 0.82469 0.0
C1685 C 0.81829 0.60812 0.8198 0.0
U1686 U 0.83328 0.58928 0.81501 0.0
O1687 O 0.83561 0.58281 0.80626 0.0
O1688 O 0.84259 0.59102 0.8091 0.0
C1689 C 0.84101 0.58637 0.80459 0.0
C1690 C 0.8235 0.59823 0.81395 0.0
C1691 C 0.84134 0.58857 0.79749 0.0
C1692 C 0.83593 0.59294 0.78732 0.0
C1693 C 0.83554 0.59097 0.79412 0.0
C1694 C 0.84794 0.5903 0.78724 0.0
C1695 C 0.84213 0.59261 0.78381 0.0
C1696 C 0.84754 0.58828 0.79402 0.0
C1697 C 0.84032 0.57828 0.82921 0.0
C1698 C 0.85131 0.57272 0.82863 0.0
C1699 C 0.84334 0.56967 0.83747 0.0
C1700 C 0.83869 0.57436 0.83491 0.0
C1701 C 0.84972 0.56884 0.83439 0.0
C1702 C 0.84663 0.57738 0.82603 0.0
C1703 C 0.83543 0.5833 0.82669 0.0
O1704 O 0.82984 0.59989 0.81517 0.0
O1705 O 0.82275 0.5918 0.8123 0.0
O1706 O 0.83105 0.58103 0.8222 0.0
O1707 O 0.83798 0.58925 0.82511 0.0
H1708 H 0.81412 0.59144 0.82178 0.0
H1709 H 0.80645 0.5963 0.83014 0.0
H1710 H 0.81417 0.61632 0.82556 0.0
H1711 H 0.82162 0.61145 0.81697 0.0
H1712 H 0.83139 0.59479 0.78483 0.0
H1713 H 0.83072 0.59131 0.79674 0.0
H1714 H 0.85277 0.58994 0.78465 0.0
H1715 H 0.85206 0.58645 0.79656 0.0
H1716 H 0.85616 0.57214 0.82611 0.0
H1717 H 0.842 0.56682 0.84197 0.0
H1718 H 0.83383 0.57499 0.83741 0.0
H1719 H 0.84795 0.58032 0.82158 0.0
C1720 C 0.1511 0.0712 0.57086 0.0
C1721 C 0.15182 0.07259 0.5778 0.0
C1722 C 0.14396 0.06346 0.58054 0.0
C1723 C 0.14827 0.06877 0.58259 0.0
C1724 C 0.14331 0.06204 0.57358 0.0
C1725 C 0.14684 0.0659 0.56878 0.0
U1726 U 0.16557 0.08305 0.56642 0.0
O1727 O 0.17229 0.08336 0.55751 0.0
O1728 O 0.16587 0.09212 0.55998 0.0
C1729 C 0.17001 0.08931 0.55556 0.0
C1730 C 0.15483 0.07521 0.56581 0.0
C1731 C 0.16782 0.08972 0.54846 0.0
C1732 C 0.15925 0.08814 0.53976 0.0
C1733 C 0.1613 0.08763 0.54653 0.0
C1734 C 0.17027 0.09272 0.53679 0.0
C1735 C 0.16372 0.0907 0.53482 0.0
C1736 C 0.1723 0.09225 0.54356 0.0
C1737 C 0.1778 0.08863 0.58023 0.0
C1738 C 0.18632 0.09729 0.57816 0.0
C1739 C 0.18598 0.09145 0.58897 0.0
C1740 C 0.18044 0.08763 0.58674 0.0
C1741 C 0.18896 0.09635 0.58472 0.0
C1742 C 0.18079 0.09345 0.57593 0.0
C1743 C 0.17189 0.08468 0.57802 0.0
O1744 O 0.15449 0.08182 0.5666 0.0
O1745 O 0.16099 0.07304 0.56446 0.0
O1746 O 0.17321 0.07967 0.57383 0.0
O1747 O 0.16658 0.08829 0.5762 0.0
H1748 H 0.15515 0.07662 0.57951 0.0
H1749 H 0.14896 0.06992 0.58792 0.0
H1750 H 0.14001 0.05801 0.57184 0.0
H1751 H 0.14625 0.06475 0.56344 0.0
H1752 H 0.15421 0.08646 0.53838 0.0
H1753 H 0.1578 0.08562 0.55025 0.0
H1754 H 0.1738 0.09478 0.53311 0.0
H1755 H 0.17735 0.09388 0.54498 0.0
H1756 H 0.18854 0.10098 0.57475 0.0
H1757 H 0.18783 0.09066 0.59408 0.0
H1758 H 0.17818 0.08393 0.59012 0.0
H1759 H 0.17881 0.09425 0.57086 0.0
C1760 C 0.18508 0.90399 0.82003 0.0
C1761 C 0.18777 0.90808 0.82521 0.0
C1762 C 0.19301 0.89819 0.83045 0.0
C1763 C 0.19174 0.90521 0.83033 0.0
C1764 C 0.19043 0.89414 0.82517 0.0
C1765 C 0.1865 0.89703 0.82 0.0
U1766 U 0.17047 0.91564 0.81565 0.0
O1767 O 0.16861 0.92239 0.80697 0.0
O1768 O 0.16155 0.91404 0.80913 0.0
C1769 C 0.16333 0.91887 0.8049 0.0
C1770 C 0.18041 0.90685 0.81492 0.0
C1771 C 0.16333 0.91694 0.7977 0.0
C1772 C 0.16914 0.91284 0.78764 0.0
C1773 C 0.16927 0.91467 0.79449 0.0
C1774 C 0.15713 0.91545 0.78718 0.0
C1775 C 0.16306 0.9132 0.78392 0.0
C1776 C 0.15727 0.91731 0.79401 0.0
C1777 C 0.16231 0.92584 0.8299 0.0
C1778 C 0.15463 0.93533 0.82815 0.0
C1779 C 0.15498 0.92961 0.83903 0.0
C1780 C 0.15997 0.92523 0.83658 0.0
C1781 C 0.15225 0.93471 0.83485 0.0
C1782 C 0.15959 0.9309 0.82568 0.0
C1783 C 0.16745 0.92104 0.82741 0.0
O1784 O 0.17403 0.90506 0.81565 0.0
O1785 O 0.18118 0.91333 0.81354 0.0
O1786 O 0.17209 0.92356 0.82333 0.0
O1787 O 0.16507 0.91515 0.82539 0.0
H1788 H 0.18671 0.91347 0.82537 0.0
H1789 H 0.19374 0.90851 0.83424 0.0
H1790 H 0.19123 0.88871 0.82513 0.0
H1791 H 0.18443 0.89378 0.81608 0.0
H1792 H 0.17377 0.91106 0.78528 0.0
H1793 H 0.17398 0.91428 0.79729 0.0
H1794 H 0.15239 0.91584 0.78442 0.0
H1795 H 0.15264 0.91905 0.79641 0.0
H1796 H 0.15257 0.93917 0.8248 0.0
H1797 H 0.15331 0.92907 0.84423 0.0
H1798 H 0.162 0.92135 0.8399 0.0
H1799 H 0.16128 0.9314 0.82048 0.0
C1800 C 0.65245 0.43352 0.4338 0.0
C1801 C 0.65451 0.43269 0.42704 0.0
C1802 C 0.64523 0.4399 0.42325 0.0
C1803 C 0.65093 0.43585 0.42181 0.0
C1804 C 0.64328 0.44084 0.43005 0.0
C1805 C 0.64686 0.43765 0.43529 0.0
U1806 U 0.66637 0.42154 0.43919 0.0
O1807 O 0.67313 0.42155 0.44808 0.0
O1808 O 0.6663 0.41294 0.44626 0.0
C1809 C 0.6706 0.41585 0.45044 0.0
C1810 C 0.656 0.42988 0.43924 0.0
C1811 C 0.6685 0.41599 0.45757 0.0
C1812 C 0.66009 0.41835 0.46625 0.0
C1813 C 0.66208 0.41842 0.45944 0.0
C1814 C 0.67097 0.41354 0.46937 0.0
C1815 C 0.66451 0.41588 0.47128 0.0
C1816 C 0.67294 0.41358 0.46257 0.0
C1817 C 0.67808 0.41423 0.42571 0.0
C1818 C 0.685 0.40419 0.42751 0.0
C1819 C 0.68682 0.41123 0.4176 0.0
C1820 C 0.68164 0.41557 0.41972 0.0
C1821 C 0.68851 0.40545 0.42143 0.0
C1822 C 0.67984 0.40857 0.42966 0.0
C1823 C 0.67245 0.41869 0.42772 0.0
O1824 O 0.65536 0.42325 0.43902 0.0
O1825 O 0.66227 0.43186 0.44037 0.0
O1826 O 0.67413 0.42391 0.43151 0.0
O1827 O 0.66694 0.41558 0.42981 0.0
H1828 H 0.65883 0.42953 0.42581 0.0
H1829 H 0.65262 0.43511 0.41664 0.0
H1830 H 0.63889 0.44388 0.43131 0.0
H1831 H 0.64521 0.43832 0.44048 0.0
H1832 H 0.65512 0.42027 0.46757 0.0
H1833 H 0.65861 0.42034 0.45564 0.0
H1834 H 0.67445 0.41154 0.47312 0.0
H1835 H 0.67791 0.41168 0.46119 0.0
H1836 H 0.68623 0.39982 0.4306 0.0
H1837 H 0.68938 0.41229 0.41286 0.0
H1838 H 0.68034 0.41992 0.41662 0.0
H1839 H 0.67718 0.40749 0.43434 0.0
C1840 C 0.82252 0.39817 0.68647 0.0
C1841 C 0.82181 0.40185 0.68043 0.0
C1842 C 0.81574 0.3924 0.67528 0.0
C1843 C 0.81844 0.399 0.67489 0.0
C1844 C 0.81631 0.3888 0.68142 0.0
C1845 C 0.81969 0.39166 0.68697 0.0
U1846 U 0.83429 0.41175 0.69293 0.0
O1847 O 0.83509 0.41683 0.70285 0.0
O1848 O 0.84374 0.41111 0.69878 0.0
C1849 C 0.84117 0.41436 0.70401 0.0
C1850 C 0.82655 0.40096 0.69207 0.0
C1851 C 0.84214 0.41108 0.71063 0.0
C1852 C 0.84291 0.40096 0.71762 0.0
C1853 C 0.84162 0.40402 0.71135 0.0
C1854 C 0.845 0.41203 0.72256 0.0
C1855 C 0.84466 0.40494 0.72328 0.0
C1856 C 0.84377 0.41507 0.71628 0.0
C1857 C 0.83933 0.42586 0.68067 0.0
C1858 C 0.8493 0.43296 0.68216 0.0
C1859 C 0.84133 0.43535 0.6731 0.0
C1860 C 0.83733 0.42988 0.67517 0.0
C1861 C 0.84742 0.43688 0.6765 0.0
C1862 C 0.84527 0.42751 0.68425 0.0
C1863 C 0.83538 0.41977 0.68238 0.0
O1864 O 0.83314 0.40082 0.69105 0.0
O1865 O 0.82441 0.40679 0.69451 0.0
O1866 O 0.83069 0.42055 0.68704 0.0
O1867 O 0.83896 0.4142 0.68314 0.0
H1868 H 0.82398 0.40688 0.67996 0.0
H1869 H 0.818 0.40195 0.67028 0.0
H1870 H 0.81434 0.38369 0.68186 0.0
H1871 H 0.82023 0.38874 0.69159 0.0
H1872 H 0.84253 0.3955 0.71805 0.0
H1873 H 0.84031 0.40085 0.70705 0.0
H1874 H 0.84639 0.41521 0.72681 0.0
H1875 H 0.84418 0.42053 0.71581 0.0
H1876 H 0.85392 0.43406 0.68492 0.0
H1877 H 0.83979 0.43822 0.66868 0.0
H1878 H 0.83277 0.42867 0.67235 0.0
H1879 H 0.84687 0.42447 0.68854 0.0
C1880 C 0.68394 0.60204 0.1841 0.0
C1881 C 0.68539 0.59846 0.17813 0.0
C1882 C 0.6911 0.60837 0.17345 0.0
C1883 C 0.68897 0.60158 0.17288 0.0
C1884 C 0.68973 0.6119 0.1795 0.0
C1885 C 0.68617 0.60876 0.18478 0.0
U1886 U 0.67108 0.58883 0.1892 0.0
O1887 O 0.67025 0.58235 0.19824 0.0
O1888 O 0.66206 0.58946 0.19571 0.0
C1889 C 0.66452 0.58515 0.20017 0.0
C1890 C 0.67975 0.59892 0.18941 0.0
C1891 C 0.6643 0.58739 0.20726 0.0
C1892 C 0.6668 0.5957 0.21599 0.0
C1893 C 0.66703 0.59367 0.2092 0.0
C1894 C 0.66119 0.58516 0.21894 0.0
C1895 C 0.66389 0.59146 0.22094 0.0
C1896 C 0.66139 0.58316 0.21215 0.0
C1897 C 0.66445 0.57678 0.17563 0.0
C1898 C 0.65395 0.57037 0.17655 0.0
C1899 C 0.66215 0.56752 0.16784 0.0
C1900 C 0.66641 0.57271 0.17015 0.0
C1901 C 0.65584 0.56635 0.17097 0.0
C1902 C 0.65824 0.57552 0.17888 0.0
C1903 C 0.66888 0.58238 0.17778 0.0
O1904 O 0.67318 0.59978 0.18864 0.0
O1905 O 0.68139 0.59267 0.19106 0.0
O1906 O 0.67378 0.58073 0.18199 0.0
O1907 O 0.66576 0.58803 0.17945 0.0
H1908 H 0.68368 0.59328 0.17749 0.0
H1909 H 0.69003 0.59867 0.16834 0.0
H1910 H 0.69122 0.61716 0.18009 0.0
H1911 H 0.68503 0.61161 0.18934 0.0
H1912 H 0.66899 0.60055 0.21739 0.0
H1913 H 0.66934 0.59698 0.20547 0.0
H1914 H 0.65885 0.58182 0.22262 0.0
H1915 H 0.65927 0.57829 0.21073 0.0
H1916 H 0.64915 0.56954 0.17909 0.0
H1917 H 0.66371 0.56456 0.16349 0.0
H1918 H 0.67119 0.5736 0.16758 0.0
H1919 H 0.65667 0.57857 0.18317 0.0
C1920 C 0.56877 0.6533 0.9271 0.0
C1921 C 0.57399 0.65774 0.92901 0.0
C1922 C 0.58026 0.64838 0.93405 0.0
C1923 C 0.57967 0.65531 0.93248 0.0
C1924 C 0.57491 0.64398 0.93231 0.0
C1925 C 0.56921 0.64642 0.92884 0.0
U1926 U 0.56244 0.66643 0.91491 0.0
O1927 O 0.5575 0.66545 0.90496 0.0
O1928 O 0.55244 0.67105 0.91315 0.0
C1929 C 0.55196 0.66853 0.90699 0.0
C1930 C 0.56325 0.6557 0.9227 0.0
C1931 C 0.5456 0.665 0.90538 0.0
C1932 C 0.53696 0.6566 0.90799 0.0
C1933 C 0.54296 0.65999 0.9097 0.0
C1934 C 0.53623 0.66316 0.89762 0.0
C1935 C 0.53355 0.65813 0.90191 0.0
C1936 C 0.5422 0.66656 0.89935 0.0
C1937 C 0.57476 0.68113 0.9111 0.0
C1938 C 0.57872 0.68676 0.90086 0.0
C1939 C 0.57885 0.69276 0.91157 0.0
C1940 C 0.57613 0.68705 0.91479 0.0
C1941 C 0.58035 0.69262 0.90459 0.0
C1942 C 0.57595 0.68108 0.90407 0.0
C1943 C 0.57269 0.67491 0.91474 0.0
O1944 O 0.56027 0.66136 0.92462 0.0
O1945 O 0.56473 0.6556 0.91621 0.0
O1946 O 0.57251 0.66929 0.91116 0.0
O1947 O 0.56759 0.67549 0.91899 0.0
H1948 H 0.57376 0.66306 0.92765 0.0
H1949 H 0.58364 0.65885 0.93384 0.0
H1950 H 0.57523 0.6386 0.93337 0.0
H1951 H 0.56526 0.64291 0.92733 0.0
H1952 H 0.53505 0.65271 0.91136 0.0
H1953 H 0.54556 0.65868 0.91436 0.0
H1954 H 0.53368 0.66451 0.89294 0.0
H1955 H 0.54418 0.67041 0.89596 0.0
H1956 H 0.57988 0.68642 0.89551 0.0
H1957 H 0.57993 0.69722 0.91459 0.0
H1958 H 0.57526 0.68722 0.92021 0.0
H1959 H 0.57496 0.67659 0.90106 0.0
C1960 C 0.60043 0.32252 0.1765 0.0
C1961 C 0.59638 0.32819 0.17797 0.0
C1962 C 0.60561 0.33323 0.18444 0.0
C1963 C 0.59893 0.33347 0.18193 0.0
C1964 C 0.60957 0.32743 0.18313 0.0
C1965 C 0.607 0.32212 0.17918 0.0
U1966 U 0.58891 0.31821 0.16202 0.0
O1967 O 0.59084 0.31305 0.15233 0.0
O1968 O 0.58315 0.30903 0.15932 0.0
C1969 C 0.5866 0.30809 0.15369 0.0
C1970 C 0.59805 0.3174 0.17163 0.0
C1971 C 0.58932 0.30124 0.15264 0.0
C1972 C 0.59682 0.29201 0.1559 0.0
C1973 C 0.59406 0.29843 0.15716 0.0
C1974 C 0.5901 0.29116 0.14564 0.0
C1975 C 0.59492 0.28833 0.15008 0.0
C1976 C 0.58734 0.29755 0.14691 0.0
C1977 C 0.57739 0.33248 0.15578 0.0
C1978 C 0.57084 0.33159 0.14539 0.0
C1979 C 0.57069 0.34203 0.15188 0.0
C1980 C 0.57505 0.33913 0.15665 0.0
C1981 C 0.5686 0.33833 0.14614 0.0
C1982 C 0.57521 0.32869 0.15017 0.0
C1983 C 0.58239 0.32972 0.16054 0.0
O1984 O 0.59175 0.31535 0.17243 0.0
O1985 O 0.59956 0.31879 0.16529 0.0
O1986 O 0.5884 0.32854 0.15791 0.0
O1987 O 0.58025 0.32481 0.16451 0.0
H1988 H 0.59131 0.32862 0.17589 0.0
H1989 H 0.59571 0.33781 0.18292 0.0
H1990 H 0.61476 0.32711 0.18491 0.0
H1991 H 0.61021 0.31782 0.17803 0.0
H1992 H 0.60056 0.29001 0.15939 0.0
H1993 H 0.59567 0.30125 0.1616 0.0
H1994 H 0.58846 0.28841 0.14117 0.0
H1995 H 0.58368 0.29965 0.14338 0.0
H1996 H 0.56939 0.32862 0.141 0.0
H1997 H 0.56898 0.3472 0.15266 0.0
H1998 H 0.57669 0.34212 0.16096 0.0
H1999 H 0.57701 0.32355 0.14942 0.0
C2000 C 0.93271 0.3516 0.42574 0.0
C2001 C 0.92636 0.34844 0.42636 0.0
C2002 C 0.92261 0.35732 0.43408 0.0
C2003 C 0.92136 0.35127 0.43051 0.0
C2004 C 0.92904 0.36038 0.43354 0.0
C2005 C 0.93405 0.35753 0.42939 0.0
U2006 U 0.93687 0.33958 0.41153 0.0
O2007 O 0.94218 0.3412 0.40187 0.0
O2008 O 0.94603 0.33367 0.40911 0.0
C2009 C 0.94709 0.33696 0.40341 0.0
C2010 C 0.93773 0.34895 0.42092 0.0
C2011 C 0.95397 0.33961 0.4024 0.0
C2012 C 0.96322 0.3471 0.40561 0.0
C2013 C 0.95677 0.3444 0.40685 0.0
C2014 C 0.96413 0.34021 0.39547 0.0
C2015 C 0.96694 0.34508 0.39986 0.0
C2016 C 0.9577 0.3375 0.39674 0.0
C2017 C 0.92274 0.32794 0.40531 0.0
C2018 C 0.92403 0.32099 0.39523 0.0
C2019 C 0.91334 0.32106 0.40131 0.0
C2020 C 0.91606 0.32562 0.40601 0.0
C2021 C 0.91727 0.31875 0.39582 0.0
C2022 C 0.92674 0.32555 0.39994 0.0
C2023 C 0.92535 0.33307 0.41001 0.0
O2024 O 0.93961 0.34263 0.42191 0.0
O2025 O 0.93637 0.3503 0.41453 0.0
O2026 O 0.92659 0.33901 0.40727 0.0
O2027 O 0.93016 0.33104 0.41416 0.0
H2028 H 0.92522 0.34388 0.42351 0.0
H2029 H 0.91643 0.34884 0.43073 0.0
H2030 H 0.93019 0.365 0.43628 0.0
H2031 H 0.93893 0.36004 0.42894 0.0
H2032 H 0.96522 0.35089 0.40904 0.0
H2033 H 0.95393 0.34611 0.41123 0.0
H2034 H 0.9669 0.33847 0.39106 0.0
H2035 H 0.95561 0.3338 0.39325 0.0
H2036 H 0.92716 0.31937 0.39102 0.0
H2037 H 0.90816 0.31936 0.40197 0.0
H2038 H 0.91291 0.32741 0.41014 0.0
H2039 H 0.9319 0.32732 0.39931 0.0
C2040 C 0.90441 0.6827 0.67679 0.0
C2041 C 0.90853 0.67706 0.67817 0.0
C2042 C 0.89921 0.67155 0.68409 0.0
C2043 C 0.90597 0.67156 0.68181 0.0
C2044 C 0.89515 0.6773 0.68287 0.0
C2045 C 0.89774 0.68283 0.67923 0.0
U2046 U 0.91669 0.68811 0.66335 0.0
O2047 O 0.91526 0.69349 0.65372 0.0
O2048 O 0.92209 0.69772 0.66144 0.0
C2049 C 0.91897 0.6987 0.65563 0.0
C2050 C 0.90686 0.6881 0.67229 0.0
C2051 C 0.91587 0.70543 0.65467 0.0
C2052 C 0.90592 0.71266 0.65367 0.0
C2053 C 0.9088 0.70632 0.65502 0.0
C2054 C 0.91714 0.71737 0.65188 0.0
C2055 C 0.91006 0.71823 0.65202 0.0
C2056 C 0.92001 0.71101 0.65316 0.0
C2057 C 0.92925 0.67445 0.65753 0.0
C2058 C 0.93586 0.67523 0.64717 0.0
C2059 C 0.93672 0.66524 0.65429 0.0
C2060 C 0.9321 0.66808 0.65884 0.0
C2061 C 0.93856 0.66872 0.64833 0.0
C2062 C 0.93123 0.67807 0.65174 0.0
C2063 C 0.92385 0.67698 0.66198 0.0
O2064 O 0.91298 0.69041 0.67362 0.0
O2065 O 0.90588 0.68689 0.66581 0.0
O2066 O 0.91798 0.67797 0.65898 0.0
O2067 O 0.92552 0.68187 0.66619 0.0
H2068 H 0.91369 0.67684 0.67627 0.0
H2069 H 0.90926 0.66726 0.68275 0.0
H2070 H 0.8899 0.67743 0.68448 0.0
H2071 H 0.89446 0.68711 0.67815 0.0
H2072 H 0.90046 0.7132 0.6539 0.0
H2073 H 0.9055 0.7021 0.65624 0.0
H2074 H 0.92045 0.72156 0.65058 0.0
H2075 H 0.92547 0.71042 0.65288 0.0
H2076 H 0.93713 0.67802 0.64261 0.0
H2077 H 0.93879 0.66027 0.65539 0.0
H2078 H 0.93062 0.66523 0.6633 0.0
H2079 H 0.92905 0.683 0.65065 0.0
C2080 C 0.57414 0.3528 0.57926 0.0
C2081 C 0.58058 0.34978 0.57918 0.0
C2082 C 0.58459 0.35833 0.57122 0.0
C2083 C 0.58576 0.35251 0.57519 0.0
C2084 C 0.57807 0.36125 0.57122 0.0
C2085 C 0.57289 0.3585 0.57522 0.0
U2086 U 0.56898 0.34084 0.59325 0.0
O2087 O 0.56322 0.34254 0.60261 0.0
O2088 O 0.55946 0.33523 0.59508 0.0
C2089 C 0.5582 0.33858 0.60071 0.0
C2090 C 0.56886 0.35023 0.58384 0.0
C2091 C 0.55137 0.34155 0.60129 0.0
C2092 C 0.54384 0.35132 0.60119 0.0
C2093 C 0.55027 0.3485 0.60016 0.0
C2094 C 0.53946 0.34023 0.60418 0.0
C2095 C 0.53838 0.34722 0.60328 0.0
C2096 C 0.54591 0.33743 0.60322 0.0
C2097 C 0.58248 0.32887 0.60024 0.0
C2098 C 0.58025 0.32141 0.60978 0.0
C2099 C 0.5917 0.32258 0.60544 0.0
C2100 C 0.58936 0.32711 0.60052 0.0
C2101 C 0.58719 0.31973 0.61018 0.0
C2102 C 0.57792 0.32596 0.60486 0.0
C2103 C 0.58022 0.33403 0.59539 0.0
O2104 O 0.56691 0.34395 0.58273 0.0
O2105 O 0.56994 0.35154 0.59028 0.0
O2106 O 0.57899 0.34001 0.59806 0.0
O2107 O 0.57557 0.3321 0.59101 0.0
H2108 H 0.58164 0.34539 0.58232 0.0
H2109 H 0.59074 0.35019 0.57538 0.0
H2110 H 0.57698 0.36568 0.56816 0.0
H2111 H 0.56794 0.36089 0.57524 0.0
H2112 H 0.54314 0.3567 0.60036 0.0
H2113 H 0.5544 0.35177 0.5986 0.0
H2114 H 0.53536 0.33696 0.60584 0.0
H2115 H 0.54666 0.33205 0.60411 0.0
H2116 H 0.57663 0.31924 0.6133 0.0
H2117 H 0.59708 0.32148 0.60565 0.0
H2118 H 0.59294 0.32936 0.59701 0.0
H2119 H 0.57259 0.32728 0.60472 0.0
C2120 C 0.89735 0.32188 0.82804 0.0
C2121 C 0.89828 0.32886 0.82904 0.0
C2122 C 0.89116 0.33131 0.81926 0.0
C2123 C 0.89519 0.33353 0.82471 0.0
C2124 C 0.89034 0.3243 0.8182 0.0
C2125 C 0.89339 0.31962 0.82259 0.0
U2126 U 0.91036 0.31792 0.84156 0.0
O2127 O 0.90953 0.31233 0.85114 0.0
O2128 O 0.9166 0.3088 0.84329 0.0
C2129 C 0.91364 0.30748 0.84911 0.0
C2130 C 0.9005 0.31697 0.83268 0.0
C2131 C 0.91106 0.30052 0.84997 0.0
C2132 C 0.9017 0.29251 0.85053 0.0
C2133 C 0.90412 0.29906 0.84929 0.0
C2134 C 0.91316 0.28872 0.85284 0.0
C2135 C 0.90619 0.28729 0.85237 0.0
C2136 C 0.91557 0.29529 0.85167 0.0
C2137 C 0.92203 0.33217 0.84749 0.0
C2138 C 0.93052 0.33043 0.85625 0.0
C2139 C 0.92811 0.34179 0.8522 0.0
C2140 C 0.9233 0.33916 0.8477 0.0
C2141 C 0.93174 0.33747 0.85657 0.0
C2142 C 0.92569 0.32781 0.85176 0.0
C2143 C 0.91667 0.32956 0.84303 0.0
O2144 O 0.90681 0.31537 0.83128 0.0
O2145 O 0.89948 0.31818 0.83916 0.0
O2146 O 0.91094 0.32809 0.84609 0.0
O2147 O 0.91856 0.32492 0.83862 0.0
H2148 H 0.90138 0.3307 0.83319 0.0
H2149 H 0.89602 0.33889 0.82558 0.0
H2150 H 0.88724 0.32244 0.81407 0.0
H2151 H 0.89265 0.31424 0.82173 0.0
H2152 H 0.89631 0.29153 0.85004 0.0
H2153 H 0.90055 0.30301 0.84791 0.0
H2154 H 0.91673 0.2848 0.85429 0.0
H2155 H 0.92095 0.29632 0.85221 0.0
H2156 H 0.93328 0.32695 0.85948 0.0
H2157 H 0.92884 0.34723 0.85238 0.0
H2158 H 0.92048 0.34259 0.84447 0.0
H2159 H 0.92475 0.3224 0.85166 0.0
C2160 C 0.933 0.65312 0.07879 0.0
C2161 C 0.92717 0.65704 0.07768 0.0
C2162 C 0.92207 0.64784 0.07121 0.0
C2163 C 0.92177 0.65444 0.07389 0.0
C2164 C 0.92801 0.64399 0.07219 0.0
C2165 C 0.93343 0.64662 0.07596 0.0
U2166 U 0.93798 0.66472 0.09301 0.0
O2167 O 0.94374 0.66286 0.10238 0.0
O2168 O 0.94721 0.6706 0.09516 0.0
C2169 C 0.94856 0.66716 0.10072 0.0
C2170 C 0.93833 0.65556 0.0834 0.0
C2171 C 0.9555 0.66454 0.10136 0.0
C2172 C 0.96513 0.65825 0.09691 0.0
C2173 C 0.95857 0.66085 0.0961 0.0
C2174 C 0.96559 0.66298 0.10824 0.0
C2175 C 0.9687 0.65925 0.10301 0.0
C2176 C 0.95906 0.6656 0.10741 0.0
C2177 C 0.92394 0.67618 0.09994 0.0
C2178 C 0.92562 0.68367 0.10957 0.0
C2179 C 0.9144 0.68232 0.1047 0.0
C2180 C 0.91703 0.67783 0.0999 0.0
C2181 C 0.91865 0.68526 0.10963 0.0
C2182 C 0.92824 0.67916 0.10477 0.0
C2183 C 0.9265 0.67114 0.09511 0.0
O2184 O 0.94028 0.66188 0.08247 0.0
O2185 O 0.93729 0.65406 0.0898 0.0
O2186 O 0.9279 0.66518 0.09775 0.0
O2187 O 0.93115 0.67328 0.09084 0.0
H2188 H 0.92672 0.66206 0.07987 0.0
H2189 H 0.91732 0.65758 0.07315 0.0
H2190 H 0.92839 0.63886 0.07027 0.0
H2191 H 0.93787 0.64349 0.07684 0.0
H2192 H 0.96736 0.65535 0.09281 0.0
H2193 H 0.95586 0.65994 0.0914 0.0
H2194 H 0.96823 0.66392 0.11297 0.0
H2195 H 0.95676 0.66844 0.11152 0.0
H2196 H 0.92904 0.6859 0.11324 0.0
H2197 H 0.909 0.68335 0.10466 0.0
H2198 H 0.91365 0.67553 0.09623 0.0
H2199 H 0.9336 0.67792 0.10486 0.0
C2200 C 0.60185 0.68309 0.32758 0.0
C2201 C 0.59772 0.67752 0.32596 0.0
C2202 C 0.60707 0.67222 0.31989 0.0
C2203 C 0.60029 0.67216 0.32212 0.0
C2204 C 0.61114 0.6779 0.32138 0.0
C2205 C 0.60854 0.68329 0.3252 0.0
U2206 U 0.58965 0.68815 0.34128 0.0
O2207 O 0.59118 0.69339 0.35098 0.0
O2208 O 0.58423 0.6977 0.34341 0.0
C2209 C 0.58743 0.69861 0.34919 0.0
C2210 C 0.59938 0.68835 0.33224 0.0
C2211 C 0.59051 0.70535 0.35022 0.0
C2212 C 0.58909 0.71739 0.3525 0.0
C2213 C 0.58629 0.711 0.35121 0.0
C2214 C 0.60038 0.71259 0.35175 0.0
C2215 C 0.59616 0.71824 0.35286 0.0
C2216 C 0.59758 0.70622 0.3504 0.0
C2217 C 0.57714 0.67446 0.34705 0.0
C2218 C 0.57043 0.67542 0.35732 0.0
C2219 C 0.56981 0.66521 0.3505 0.0
C2220 C 0.57442 0.668 0.34591 0.0
C2221 C 0.56785 0.66884 0.35633 0.0
C2222 C 0.57505 0.67821 0.35272 0.0
C2223 C 0.58251 0.67699 0.34256 0.0
O2224 O 0.59324 0.69065 0.33101 0.0
O2225 O 0.60044 0.687 0.33868 0.0
O2226 O 0.58841 0.67793 0.3455 0.0
O2227 O 0.58081 0.68194 0.33842 0.0
H2228 H 0.59255 0.67725 0.3278 0.0
H2229 H 0.59699 0.66791 0.32098 0.0
H2230 H 0.6164 0.67808 0.31981 0.0
H2231 H 0.61182 0.68751 0.32647 0.0
H2232 H 0.58571 0.72163 0.35338 0.0
H2233 H 0.58082 0.71044 0.35109 0.0
H2234 H 0.60585 0.71312 0.35192 0.0
H2235 H 0.60096 0.70196 0.34958 0.0
H2236 H 0.56908 0.67832 0.36178 0.0
H2237 H 0.56783 0.66017 0.34954 0.0
H2238 H 0.57599 0.66505 0.34155 0.0
H2239 H 0.57714 0.6832 0.35368 0.0
C2240 C 0.92611 0.57074 0.65274 0.0
C2241 C 0.92603 0.57752 0.65488 0.0
C2242 C 0.93481 0.58033 0.64665 0.0
C2243 C 0.93033 0.58228 0.65186 0.0
C2244 C 0.93497 0.57347 0.64464 0.0
C2245 C 0.93065 0.56872 0.64766 0.0
U2246 U 0.91202 0.56697 0.66508 0.0
O2247 O 0.90226 0.5618 0.66374 0.0
O2248 O 0.90965 0.55781 0.67106 0.0
C2249 C 0.9039 0.5568 0.66782 0.0
C2250 C 0.92126 0.56587 0.65558 0.0
C2251 C 0.90284 0.54991 0.66511 0.0
C2252 C 0.90191 0.54213 0.65559 0.0
C2253 C 0.90338 0.54858 0.65813 0.0
C2254 C 0.89963 0.53816 0.66699 0.0
C2255 C 0.89996 0.53687 0.65999 0.0
C2256 C 0.90103 0.54464 0.66952 0.0
C2257 C 0.90614 0.58136 0.67661 0.0
C2258 C 0.89586 0.5806 0.68334 0.0
C2259 C 0.90258 0.59089 0.68354 0.0
C2260 C 0.9072 0.58795 0.67904 0.0
C2261 C 0.8968 0.58728 0.68567 0.0
C2262 C 0.90049 0.57766 0.67884 0.0
C2263 C 0.91075 0.57857 0.67148 0.0
O2264 O 0.92235 0.56412 0.66192 0.0
O2265 O 0.91487 0.56729 0.65432 0.0
O2266 O 0.90792 0.57731 0.66558 0.0
O2267 O 0.91482 0.57371 0.67354 0.0
H2268 H 0.92254 0.57917 0.65878 0.0
H2269 H 0.92999 0.58752 0.65347 0.0
H2270 H 0.93842 0.57178 0.64072 0.0
H2271 H 0.93078 0.5635 0.64597 0.0
H2272 H 0.9023 0.54125 0.65018 0.0
H2273 H 0.90485 0.55255 0.65462 0.0
H2274 H 0.89809 0.53422 0.6705 0.0
H2275 H 0.90059 0.54557 0.67492 0.0
H2276 H 0.89142 0.5777 0.68482 0.0
H2277 H 0.90351 0.59601 0.68531 0.0
H2278 H 0.91155 0.59087 0.67737 0.0
H2279 H 0.89959 0.57257 0.67698 0.0
C2280 C 0.68432 0.67723 0.89905 0.0
C2281 C 0.67727 0.67636 0.89957 0.0
C2282 C 0.67542 0.68638 0.89262 0.0
C2283 C 0.67287 0.68087 0.89636 0.0
C2284 C 0.68249 0.68732 0.89222 0.0
C2285 C 0.6869 0.68275 0.89539 0.0
U2286 U 0.68727 0.66341 0.91199 0.0
O2287 O 0.6925 0.65361 0.91116 0.0
O2288 O 0.69602 0.66116 0.91855 0.0
C2289 C 0.69719 0.65529 0.91559 0.0
C2290 C 0.68894 0.67236 0.9023 0.0
C2291 C 0.70419 0.6541 0.91336 0.0
C2292 C 0.71373 0.65675 0.90604 0.0
C2293 C 0.7072 0.65821 0.90839 0.0
C2294 C 0.71432 0.64713 0.91367 0.0
C2295 C 0.71734 0.65114 0.9086 0.0
C2296 C 0.7078 0.6486 0.91603 0.0
C2297 C 0.67251 0.65793 0.92314 0.0
C2298 C 0.67357 0.64841 0.93088 0.0
C2299 C 0.66282 0.65428 0.9298 0.0
C2300 C 0.66571 0.65867 0.92504 0.0
C2301 C 0.6667 0.64906 0.93274 0.0
C2302 C 0.67645 0.65281 0.92612 0.0
C2303 C 0.67539 0.66236 0.9179 0.0
O2304 O 0.69039 0.67363 0.90868 0.0
O2305 O 0.68753 0.66595 0.90115 0.0
O2306 O 0.67691 0.65932 0.91218 0.0
O2307 O 0.68013 0.66657 0.91997 0.0
H2308 H 0.67518 0.67216 0.90244 0.0
H2309 H 0.66745 0.68009 0.89686 0.0
H2310 H 0.68459 0.6915 0.88935 0.0
H2311 H 0.69233 0.6835 0.89496 0.0
H2312 H 0.71589 0.6599 0.90208 0.0
H2313 H 0.70444 0.66246 0.90625 0.0
H2314 H 0.717 0.64284 0.91581 0.0
H2315 H 0.70554 0.64539 0.91987 0.0
H2316 H 0.67668 0.6444 0.93298 0.0
H2317 H 0.65755 0.65498 0.93119 0.0
H2318 H 0.6626 0.66262 0.92279 0.0
H2319 H 0.68171 0.65215 0.92468 0.0
C2320 C 0.58106 0.43112 0.15302 0.0
C2321 C 0.57939 0.42554 0.1571 0.0
C2322 C 0.57317 0.4204 0.14775 0.0
C2323 C 0.57545 0.42025 0.15451 0.0
C2324 C 0.5747 0.42611 0.14373 0.0
C2325 C 0.57862 0.43142 0.14635 0.0
U2326 U 0.59516 0.43573 0.16496 0.0
O2327 O 0.6049 0.44086 0.16322 0.0
O2328 O 0.59764 0.44507 0.17053 0.0
C2329 C 0.60339 0.44593 0.16727 0.0
C2330 C 0.58586 0.43627 0.15547 0.0
C2331 C 0.60456 0.45271 0.16441 0.0
C2332 C 0.60141 0.46193 0.15686 0.0
C2333 C 0.60001 0.4556 0.15976 0.0
C2334 C 0.61189 0.46253 0.16326 0.0
C2335 C 0.60741 0.46543 0.15853 0.0
C2336 C 0.61047 0.45623 0.16617 0.0
C2337 C 0.60111 0.42184 0.17707 0.0
C2338 C 0.6107 0.42341 0.18463 0.0
C2339 C 0.60553 0.41231 0.18348 0.0
C2340 C 0.60085 0.41498 0.17888 0.0
C2341 C 0.61056 0.41648 0.18637 0.0
C2342 C 0.60602 0.42607 0.18001 0.0
C2343 C 0.59649 0.42441 0.17184 0.0
O2344 O 0.58483 0.43846 0.16169 0.0
O2345 O 0.59225 0.43484 0.15423 0.0
O2346 O 0.5993 0.42543 0.16589 0.0
O2347 O 0.59241 0.42934 0.1737 0.0
H2348 H 0.58127 0.42519 0.16225 0.0
H2349 H 0.57429 0.41599 0.15777 0.0
H2350 H 0.5731 0.42636 0.13848 0.0
H2351 H 0.57993 0.43566 0.1431 0.0
H2352 H 0.59788 0.464 0.15319 0.0
H2353 H 0.59543 0.45291 0.15831 0.0
H2354 H 0.6165 0.46514 0.16473 0.0
H2355 H 0.61404 0.45406 0.16975 0.0
H2356 H 0.61445 0.42678 0.18682 0.0
H2357 H 0.60533 0.40694 0.18462 0.0
H2358 H 0.59711 0.41164 0.17661 0.0
H2359 H 0.60629 0.43138 0.17865 0.0
C2360 C 0.82401 0.32932 0.40379 0.0
C2361 C 0.82986 0.32817 0.40768 0.0
C2362 C 0.83483 0.32163 0.39847 0.0
C2363 C 0.8352 0.32433 0.40506 0.0
C2364 C 0.82888 0.32267 0.39465 0.0
C2365 C 0.82352 0.3265 0.39729 0.0
U2366 U 0.81883 0.3431 0.41588 0.0
O2367 O 0.81328 0.35261 0.41431 0.0
O2368 O 0.80929 0.34501 0.42142 0.0
C2369 C 0.80817 0.35072 0.41815 0.0
C2370 C 0.8187 0.3339 0.40629 0.0
C2371 C 0.80138 0.35146 0.41511 0.0
C2372 C 0.79399 0.35173 0.40524 0.0
C2373 C 0.80037 0.35059 0.40811 0.0
C2374 C 0.78946 0.35433 0.41637 0.0
C2375 C 0.78848 0.35367 0.40933 0.0
C2376 C 0.79587 0.35326 0.41922 0.0
C2377 C 0.8325 0.3495 0.42808 0.0
C2378 C 0.83055 0.35862 0.43611 0.0
C2379 C 0.84199 0.35462 0.43401 0.0
C2380 C 0.83947 0.34986 0.42941 0.0
C2381 C 0.83757 0.35912 0.43736 0.0
C2382 C 0.82804 0.35386 0.43148 0.0
C2383 C 0.83007 0.34484 0.42281 0.0
O2384 O 0.81657 0.33271 0.4125 0.0
O2385 O 0.81988 0.34036 0.40513 0.0
O2386 O 0.82893 0.34769 0.41689 0.0
O2387 O 0.82529 0.34056 0.42463 0.0
H2388 H 0.83035 0.33035 0.4127 0.0
H2389 H 0.83966 0.32354 0.40817 0.0
H2390 H 0.82845 0.32074 0.38952 0.0
H2391 H 0.81907 0.32741 0.3942 0.0
H2392 H 0.79335 0.3511 0.39982 0.0
H2393 H 0.80454 0.34913 0.40484 0.0
H2394 H 0.78532 0.35586 0.41964 0.0
H2395 H 0.79655 0.35394 0.42463 0.0
H2396 H 0.827 0.36194 0.43866 0.0
H2397 H 0.84742 0.35493 0.43476 0.0
H2398 H 0.84299 0.34656 0.42678 0.0
H2399 H 0.82264 0.35366 0.43048 0.0
C2400 C 0.92729 0.43704 0.85089 0.0
C2401 C 0.92897 0.43181 0.84636 0.0
C2402 C 0.93429 0.42544 0.8555 0.0
C2403 C 0.93246 0.42608 0.84864 0.0
C2404 C 0.93278 0.43079 0.85998 0.0
C2405 C 0.92929 0.43654 0.85769 0.0
U2406 U 0.91482 0.44366 0.83818 0.0
O2407 O 0.90496 0.44872 0.8395 0.0
O2408 O 0.91306 0.45373 0.83371 0.0
C2409 C 0.90698 0.45427 0.83641 0.0
C2410 C 0.9229 0.44263 0.84868 0.0
C2411 C 0.90559 0.46061 0.84006 0.0
C2412 C 0.90862 0.46917 0.84839 0.0
C2413 C 0.91013 0.46316 0.84491 0.0
C2414 C 0.89802 0.47006 0.84223 0.0
C2415 C 0.90253 0.47266 0.8471 0.0
C2416 C 0.89954 0.46409 0.83874 0.0
C2417 C 0.91043 0.43157 0.82346 0.0
C2418 C 0.89996 0.42789 0.81805 0.0
C2419 C 0.91052 0.42762 0.81178 0.0
C2420 C 0.91394 0.43021 0.81743 0.0
C2421 C 0.90351 0.42627 0.81208 0.0
C2422 C 0.90337 0.43053 0.82367 0.0
C2423 C 0.91427 0.43351 0.8296 0.0
O2424 O 0.9247 0.44564 0.843 0.0
O2425 O 0.91639 0.44122 0.84894 0.0
O2426 O 0.91084 0.43368 0.83532 0.0
O2427 O 0.91858 0.43856 0.82896 0.0
H2428 H 0.92741 0.43208 0.8411 0.0
H2429 H 0.93363 0.42211 0.84503 0.0
H2430 H 0.93404 0.43043 0.86531 0.0
H2431 H 0.92797 0.44049 0.86127 0.0
H2432 H 0.91217 0.47101 0.85216 0.0
H2433 H 0.9148 0.4605 0.84603 0.0
H2434 H 0.89333 0.47268 0.84107 0.0
H2435 H 0.89598 0.46218 0.83501 0.0
H2436 H 0.89459 0.42684 0.81852 0.0
H2437 H 0.9134 0.42654 0.80723 0.0
H2438 H 0.91938 0.43097 0.81714 0.0
H2439 H 0.9005 0.43153 0.82825 0.0
C2440 C 0.8242 0.67515 0.10135 0.0
C2441 C 0.82986 0.67647 0.09725 0.0
C2442 C 0.8352 0.68277 0.10643 0.0
C2443 C 0.83529 0.68027 0.09975 0.0
C2444 C 0.82941 0.68161 0.11045 0.0
C2445 C 0.82396 0.67782 0.10793 0.0
U2446 U 0.81936 0.66095 0.08973 0.0
O2447 O 0.81409 0.65131 0.0916 0.0
O2448 O 0.81002 0.6585 0.08412 0.0
C2449 C 0.80908 0.6528 0.08747 0.0
C2450 C 0.81892 0.67043 0.09902 0.0
C2451 C 0.80225 0.65173 0.09025 0.0
C2452 C 0.79302 0.65495 0.09775 0.0
C2453 C 0.7994 0.65628 0.09492 0.0
C2454 C 0.79231 0.64455 0.09124 0.0
C2455 C 0.78944 0.64903 0.096 0.0
C2456 C 0.79865 0.64589 0.0884 0.0
C2457 C 0.83326 0.65454 0.07789 0.0
C2458 C 0.83152 0.6449 0.07044 0.0
C2459 C 0.8428 0.64958 0.07191 0.0
C2460 C 0.84019 0.65446 0.07633 0.0
C2461 C 0.83851 0.64468 0.06898 0.0
C2462 C 0.82892 0.64978 0.07488 0.0
C2463 C 0.83072 0.65932 0.08299 0.0
O2464 O 0.81676 0.67137 0.09277 0.0
O2465 O 0.82019 0.66404 0.10041 0.0
O2466 O 0.82961 0.65665 0.08899 0.0
O2467 O 0.82586 0.66343 0.081 0.0
H2468 H 0.83017 0.67439 0.09217 0.0
H2469 H 0.83962 0.68115 0.09648 0.0
H2470 H 0.8292 0.6834 0.11564 0.0
H2471 H 0.81966 0.67678 0.11119 0.0
H2472 H 0.79097 0.65847 0.10144 0.0
H2473 H 0.80214 0.6608 0.09643 0.0
H2474 H 0.78964 0.64 0.08971 0.0
H2475 H 0.80079 0.64233 0.0848 0.0
H2476 H 0.82806 0.64127 0.06819 0.0
H2477 H 0.84821 0.6495 0.07098 0.0
H2478 H 0.84361 0.65807 0.07867 0.0
H2479 H 0.82355 0.64977 0.07605 0.0
C2480 C 0.57888 0.57262 0.35168 0.0
C2481 C 0.57875 0.57939 0.34949 0.0
C2482 C 0.57019 0.58206 0.35799 0.0
C2483 C 0.57445 0.58407 0.35262 0.0
C2484 C 0.57021 0.57521 0.36002 0.0
C2485 C 0.57454 0.57053 0.35689 0.0
U2486 U 0.59301 0.56916 0.33927 0.0
O2487 O 0.60288 0.56417 0.34069 0.0
O2488 O 0.59562 0.56011 0.33327 0.0
C2489 C 0.60142 0.55923 0.33647 0.0
C2490 C 0.58382 0.56786 0.34879 0.0
C2491 C 0.60268 0.55238 0.33911 0.0
C2492 C 0.59981 0.54304 0.34661 0.0
C2493 C 0.59829 0.54939 0.34384 0.0
C2494 C 0.6101 0.54259 0.33989 0.0
C2495 C 0.60578 0.5396 0.34472 0.0
C2496 C 0.60855 0.54893 0.33711 0.0
C2497 C 0.59874 0.58347 0.32769 0.0
C2498 C 0.6087 0.58227 0.32055 0.0
C2499 C 0.60267 0.59297 0.32092 0.0
C2500 C 0.59803 0.5902 0.32551 0.0
C2501 C 0.6081 0.58906 0.31845 0.0
C2502 C 0.60406 0.5795 0.32514 0.0
C2503 C 0.59412 0.58077 0.33285 0.0
O2504 O 0.58274 0.5661 0.34244 0.0
O2505 O 0.59018 0.5694 0.35003 0.0
O2506 O 0.59695 0.57957 0.33876 0.0
O2507 O 0.59007 0.57586 0.33084 0.0
H2508 H 0.58211 0.58108 0.34549 0.0
H2509 H 0.57465 0.58931 0.35098 0.0
H2510 H 0.56693 0.57348 0.36407 0.0
H2511 H 0.57457 0.56532 0.35863 0.0
H2512 H 0.59642 0.5409 0.35036 0.0
H2513 H 0.59375 0.55203 0.34547 0.0
H2514 H 0.61468 0.54004 0.33826 0.0
H2515 H 0.612 0.55117 0.33347 0.0
H2516 H 0.61287 0.57914 0.31882 0.0
H2517 H 0.60201 0.59819 0.31933 0.0
H2518 H 0.59394 0.59333 0.32743 0.0
H2519 H 0.60469 0.5743 0.32681 0.0
C2520 C 0.68051 0.3289 0.60249 0.0
C2521 C 0.6747 0.32785 0.59851 0.0
C2522 C 0.66949 0.32136 0.60764 0.0
C2523 C 0.66925 0.32409 0.60105 0.0
C2524 C 0.6754 0.3223 0.61154 0.0
C2525 C 0.68086 0.32605 0.60899 0.0
U2526 U 0.68616 0.34251 0.59041 0.0
O2527 O 0.69177 0.35198 0.59205 0.0
O2528 O 0.69585 0.34429 0.5851 0.0
C2529 C 0.69694 0.35003 0.58832 0.0
C2530 C 0.68594 0.33339 0.60007 0.0
C2531 C 0.70368 0.35081 0.59145 0.0
C2532 C 0.71092 0.35134 0.60142 0.0
C2533 C 0.70458 0.35009 0.59848 0.0
C2534 C 0.71559 0.35376 0.59032 0.0
C2535 C 0.71647 0.35326 0.59738 0.0
C2536 C 0.70924 0.35258 0.58739 0.0
C2537 C 0.67292 0.349 0.57783 0.0
C2538 C 0.67522 0.35823 0.57002 0.0
C2539 C 0.66371 0.35416 0.57151 0.0
C2540 C 0.66602 0.34935 0.57616 0.0
C2541 C 0.66826 0.35872 0.56844 0.0
C2542 C 0.67752 0.35342 0.5747 0.0
C2543 C 0.67513 0.34433 0.58319 0.0
O2544 O 0.6882 0.33212 0.59393 0.0
O2545 O 0.68482 0.33987 0.60116 0.0
O2546 O 0.67614 0.34719 0.58912 0.0
O2547 O 0.67989 0.33997 0.58152 0.0
H2548 H 0.67432 0.33005 0.59349 0.0
H2549 H 0.66483 0.32338 0.59787 0.0
H2550 H 0.67572 0.32035 0.61666 0.0
H2551 H 0.68528 0.32687 0.61214 0.0
H2552 H 0.71146 0.35082 0.60686 0.0
H2553 H 0.70037 0.34866 0.60171 0.0
H2554 H 0.71976 0.35529 0.58709 0.0
H2555 H 0.70864 0.35316 0.58196 0.0
H2556 H 0.67887 0.3616 0.56768 0.0
H2557 H 0.65831 0.35446 0.57051 0.0
H2558 H 0.6624 0.346 0.57859 0.0
H2559 H 0.68287 0.35323 0.57596 0.0
C2560 C 0.65311 0.92694 0.57315 0.0
C2561 C 0.65729 0.92851 0.5787 0.0
C2562 C 0.64804 0.9347 0.58404 0.0
C2563 C 0.65479 0.93238 0.58407 0.0
C2564 C 0.64393 0.93326 0.57838 0.0
C2565 C 0.64645 0.9294 0.57298 0.0
U2566 U 0.66507 0.91302 0.56811 0.0
O2567 O 0.66339 0.90332 0.56292 0.0
O2568 O 0.67045 0.91077 0.55857 0.0
C2569 C 0.66717 0.90502 0.5577 0.0
C2570 C 0.65549 0.92222 0.5679 0.0
C2571 C 0.66411 0.90398 0.55096 0.0
C2572 C 0.66548 0.90111 0.53905 0.0
C2573 C 0.6683 0.90248 0.54542 0.0
C2574 C 0.65422 0.9028 0.54368 0.0
C2575 C 0.6584 0.90116 0.53814 0.0
C2576 C 0.65704 0.90423 0.55002 0.0
C2577 C 0.67749 0.9071 0.58182 0.0
C2578 C 0.68394 0.89664 0.58101 0.0
C2579 C 0.68489 0.90368 0.59104 0.0
C2580 C 0.68034 0.90832 0.58821 0.0
C2581 C 0.68664 0.89772 0.58753 0.0
C2582 C 0.67939 0.90129 0.57818 0.0
C2583 C 0.6722 0.91167 0.57927 0.0
O2584 O 0.66165 0.92334 0.56559 0.0
O2585 O 0.65433 0.9158 0.56926 0.0
O2586 O 0.66625 0.90881 0.57834 0.0
O2587 O 0.67397 0.91575 0.57431 0.0
H2588 H 0.66244 0.92659 0.57895 0.0
H2589 H 0.65813 0.93347 0.5883 0.0
H2590 H 0.63869 0.93489 0.57822 0.0
H2591 H 0.64314 0.92817 0.56878 0.0
H2592 H 0.66882 0.89981 0.5349 0.0
H2593 H 0.67375 0.90226 0.54604 0.0
H2594 H 0.64875 0.90296 0.54311 0.0
H2595 H 0.6537 0.90545 0.55421 0.0
H2596 H 0.68514 0.89207 0.5782 0.0
H2597 H 0.68696 0.90472 0.59602 0.0
H2598 H 0.67893 0.91279 0.59108 0.0
H2599 H 0.6772 0.90027 0.57324 0.0
C2600 C 0.15448 0.57988 0.43116 0.0
C2601 C 0.15839 0.57872 0.42534 0.0
C2602 C 0.14924 0.57208 0.42037 0.0
C2603 C 0.15582 0.57483 0.42001 0.0
C2604 C 0.1454 0.57311 0.42631 0.0
C2605 C 0.148 0.57699 0.43165 0.0
U2606 U 0.16608 0.59419 0.43587 0.0
O2607 O 0.16425 0.6037 0.44137 0.0
O2608 O 0.17191 0.59653 0.4451 0.0
C2609 C 0.16853 0.60216 0.44624 0.0
C2610 C 0.1569 0.5846 0.4364 0.0
C2611 C 0.1659 0.60305 0.45315 0.0
C2612 C 0.15831 0.59982 0.4623 0.0
C2613 C 0.16098 0.59866 0.45582 0.0
C2614 C 0.16551 0.60971 0.46349 0.0
C2615 C 0.16049 0.6054 0.46617 0.0
C2616 C 0.16819 0.60854 0.45703 0.0
C2617 C 0.1776 0.6009 0.42184 0.0
C2618 C 0.18497 0.61061 0.42353 0.0
C2619 C 0.18366 0.60577 0.41231 0.0
C2620 C 0.17923 0.6009 0.41493 0.0
C2621 C 0.18653 0.61073 0.41656 0.0
C2622 C 0.18053 0.60574 0.42614 0.0
C2623 C 0.17256 0.59605 0.4244 0.0
O2624 O 0.16321 0.5837 0.4384 0.0
O2625 O 0.15541 0.59098 0.43522 0.0
O2626 O 0.16658 0.59868 0.42569 0.0
O2627 O 0.17468 0.59187 0.42914 0.0
H2628 H 0.16339 0.58096 0.42484 0.0
H2629 H 0.15895 0.57405 0.41557 0.0
H2630 H 0.14029 0.57114 0.42672 0.0
H2631 H 0.14488 0.57791 0.43608 0.0
H2632 H 0.15441 0.59644 0.4642 0.0
H2633 H 0.15914 0.59441 0.45286 0.0
H2634 H 0.16738 0.61399 0.46638 0.0
H2635 H 0.17199 0.61197 0.45504 0.0
H2636 H 0.18716 0.6143 0.42696 0.0
H2637 H 0.18467 0.60576 0.40691 0.0
H2638 H 0.17696 0.59721 0.41154 0.0
H2639 H 0.1793 0.60581 0.4315 0.0
C2640 C 0.67646 0.90397 0.6846 0.0
C2641 C 0.67654 0.90614 0.67783 0.0
C2642 C 0.68511 0.89766 0.67512 0.0
C2643 C 0.68082 0.90301 0.67313 0.0
C2644 C 0.68513 0.89564 0.68198 0.0
C2645 C 0.68083 0.89877 0.68667 0.0
U2646 U 0.66227 0.9163 0.68796 0.0
O2647 O 0.65246 0.91493 0.69305 0.0
O2648 O 0.65969 0.92248 0.69689 0.0
C2649 C 0.65393 0.91926 0.6979 0.0
C2650 C 0.67155 0.90688 0.68937 0.0
C2651 C 0.65278 0.91674 0.70481 0.0
C2652 C 0.65563 0.90917 0.7141 0.0
C2653 C 0.65705 0.91181 0.70767 0.0
C2654 C 0.64572 0.9164 0.71487 0.0
C2655 C 0.6499 0.91138 0.71775 0.0
C2656 C 0.64715 0.91905 0.70846 0.0
C2657 C 0.65648 0.92754 0.67334 0.0
C2658 C 0.64639 0.93455 0.67419 0.0
C2659 C 0.65279 0.93423 0.6637 0.0
C2660 C 0.65739 0.92971 0.66664 0.0
C2661 C 0.64719 0.93664 0.66741 0.0
C2662 C 0.651 0.93003 0.67713 0.0
C2663 C 0.66109 0.92245 0.67621 0.0
O2664 O 0.67258 0.91327 0.69101 0.0
O2665 O 0.66519 0.90555 0.68791 0.0
O2666 O 0.65827 0.91657 0.67757 0.0
O2667 O 0.66513 0.92461 0.68106 0.0
H2668 H 0.67317 0.91013 0.67614 0.0
H2669 H 0.68059 0.90463 0.66789 0.0
H2670 H 0.68844 0.89161 0.6837 0.0
H2671 H 0.68083 0.89705 0.69189 0.0
H2672 H 0.65891 0.90526 0.71614 0.0
H2673 H 0.6614 0.90994 0.70488 0.0
H2674 H 0.64132 0.91829 0.71758 0.0
H2675 H 0.6438 0.92285 0.70631 0.0
H2676 H 0.6421 0.93624 0.67717 0.0
H2677 H 0.6536 0.93581 0.6585 0.0
H2678 H 0.66161 0.92783 0.66366 0.0
H2679 H 0.65022 0.92837 0.68231 0.0
C2680 C 0.34857 0.42595 0.93199 0.0
C2681 C 0.3448 0.42719 0.92608 0.0
C2682 C 0.35416 0.43372 0.92136 0.0
C2683 C 0.34755 0.43107 0.92083 0.0
C2684 C 0.35784 0.43262 0.92738 0.0
C2685 C 0.35506 0.42875 0.93265 0.0
U2686 U 0.33675 0.41169 0.93634 0.0
O2687 O 0.33844 0.4021 0.94176 0.0
O2688 O 0.33077 0.40928 0.94546 0.0
C2689 C 0.3341 0.40361 0.94659 0.0
C2690 C 0.34598 0.42122 0.93713 0.0
C2691 C 0.33663 0.40261 0.95352 0.0
C2692 C 0.34392 0.40585 0.96292 0.0
C2693 C 0.34128 0.40714 0.95645 0.0
C2694 C 0.33722 0.39556 0.96358 0.0
C2695 C 0.34198 0.4 0.96652 0.0
C2696 C 0.33458 0.39686 0.95714 0.0
C2697 C 0.32549 0.40506 0.9221 0.0
C2698 C 0.31809 0.39535 0.92371 0.0
C2699 C 0.31981 0.39996 0.91245 0.0
C2700 C 0.32412 0.40491 0.91513 0.0
C2701 C 0.31681 0.39507 0.91669 0.0
C2702 C 0.32241 0.4003 0.92639 0.0
C2703 C 0.33047 0.40992 0.92474 0.0
O2704 O 0.33964 0.42215 0.93899 0.0
O2705 O 0.34745 0.41483 0.93593 0.0
O2706 O 0.33644 0.4073 0.92611 0.0
O2707 O 0.32828 0.41407 0.92947 0.0
H2708 H 0.33978 0.42502 0.92545 0.0
H2709 H 0.34453 0.43191 0.91632 0.0
H2710 H 0.36297 0.43451 0.92793 0.0
H2711 H 0.35807 0.42777 0.93714 0.0
H2712 H 0.34761 0.40933 0.96502 0.0
H2713 H 0.34295 0.41159 0.95369 0.0
H2714 H 0.33555 0.39106 0.96625 0.0
H2715 H 0.33099 0.39332 0.95494 0.0
H2716 H 0.31579 0.39173 0.92714 0.0
H2717 H 0.31901 0.39983 0.90702 0.0
H2718 H 0.3265 0.40852 0.91175 0.0
H2719 H 0.32345 0.40035 0.93179 0.0
C2720 C 0.32758 0.60295 0.68285 0.0
C2721 C 0.32779 0.60075 0.67609 0.0
C2722 C 0.31897 0.60886 0.67309 0.0
C2723 C 0.32353 0.60368 0.67125 0.0
C2724 C 0.31866 0.6109 0.67992 0.0
C2725 C 0.32295 0.60798 0.68476 0.0
U2726 U 0.34157 0.59061 0.68721 0.0
O2727 O 0.35134 0.59214 0.6923 0.0
O2728 O 0.34388 0.58512 0.69669 0.0
C2729 C 0.34965 0.58837 0.69753 0.0
C2730 C 0.33242 0.60024 0.68782 0.0
C2731 C 0.35075 0.59144 0.70426 0.0
C2732 C 0.3532 0.59004 0.71627 0.0
C2733 C 0.35181 0.58723 0.7099 0.0
C2734 C 0.35245 0.60132 0.71145 0.0
C2735 C 0.35362 0.59712 0.71708 0.0
C2736 C 0.35099 0.59851 0.7051 0.0
C2737 C 0.3475 0.5783 0.67358 0.0
C2738 C 0.35702 0.57072 0.6755 0.0
C2739 C 0.35224 0.57186 0.66423 0.0
C2740 C 0.34748 0.57648 0.66672 0.0
C2741 C 0.35713 0.56899 0.66857 0.0
C2742 C 0.35225 0.57535 0.67798 0.0
C2743 C 0.34286 0.58359 0.67598 0.0
O2744 O 0.33125 0.594 0.68985 0.0
O2745 O 0.33882 0.60136 0.68634 0.0
O2746 O 0.3457 0.58954 0.67693 0.0
O2747 O 0.33873 0.58183 0.68091 0.0
H2748 H 0.33136 0.59687 0.67453 0.0
H2749 H 0.32397 0.60204 0.66603 0.0
H2750 H 0.31514 0.6148 0.68153 0.0
H2751 H 0.32272 0.60972 0.68997 0.0
H2752 H 0.35412 0.58668 0.72051 0.0
H2753 H 0.35165 0.58177 0.70936 0.0
H2754 H 0.35265 0.60679 0.71194 0.0
H2755 H 0.35012 0.60188 0.70085 0.0
H2756 H 0.36065 0.56854 0.679 0.0
H2757 H 0.35224 0.57072 0.65886 0.0
H2758 H 0.34387 0.57875 0.66325 0.0
H2759 H 0.35235 0.57673 0.6833 0.0
C2760 C 0.85051 0.07773 0.07269 0.0
C2761 C 0.84628 0.0761 0.07818 0.0
C2762 C 0.85553 0.07002 0.08365 0.0
C2763 C 0.84875 0.07225 0.08358 0.0
C2764 C 0.85969 0.07149 0.07803 0.0
C2765 C 0.8572 0.07533 0.07261 0.0
U2766 U 0.83863 0.09171 0.06773 0.0
O2767 O 0.84034 0.10145 0.06262 0.0
O2768 O 0.83324 0.09407 0.05822 0.0
C2769 C 0.83657 0.0998 0.05738 0.0
C2770 C 0.84817 0.08247 0.06745 0.0
C2771 C 0.83961 0.10089 0.05061 0.0
C2772 C 0.83814 0.10203 0.03841 0.0
C2773 C 0.83545 0.10069 0.04483 0.0
C2774 C 0.84922 0.10379 0.04343 0.0
C2775 C 0.84504 0.10367 0.03765 0.0
C2776 C 0.84654 0.10239 0.04984 0.0
C2777 C 0.82626 0.0975 0.08155 0.0
C2778 C 0.81974 0.10792 0.08084 0.0
C2779 C 0.81904 0.1009 0.09091 0.0
C2780 C 0.82355 0.09628 0.088 0.0
C2781 C 0.81717 0.10683 0.08742 0.0
C2782 C 0.82426 0.10329 0.07793 0.0
C2783 C 0.83153 0.09296 0.07892 0.0
O2784 O 0.84201 0.08139 0.06511 0.0
O2785 O 0.84936 0.08888 0.06884 0.0
O2786 O 0.83748 0.09582 0.078 0.0
O2787 O 0.82973 0.08894 0.07391 0.0
H2788 H 0.84111 0.07796 0.07837 0.0
H2789 H 0.84538 0.07112 0.08777 0.0
H2790 H 0.86496 0.06993 0.07795 0.0
H2791 H 0.86056 0.07661 0.06845 0.0
H2792 H 0.83479 0.10195 0.03406 0.0
H2793 H 0.83008 0.09958 0.0453 0.0
H2794 H 0.85457 0.10495 0.04299 0.0
H2795 H 0.8499 0.10255 0.05418 0.0
H2796 H 0.81845 0.11247 0.07804 0.0
H2797 H 0.81707 0.09986 0.09593 0.0
H2798 H 0.82505 0.09183 0.09085 0.0
H2799 H 0.82634 0.10431 0.07295 0.0
C2800 C 0.67727 0.10057 0.82326 0.0
C2801 C 0.6789 0.09657 0.82891 0.0
C2802 C 0.68483 0.10609 0.83408 0.0
C2803 C 0.68267 0.09929 0.83425 0.0
C2804 C 0.68334 0.11002 0.8283 0.0
C2805 C 0.67958 0.10728 0.82294 0.0
U2806 U 0.66359 0.08823 0.81844 0.0
O2807 O 0.65389 0.08969 0.81315 0.0
O2808 O 0.66142 0.08258 0.80906 0.0
C2809 C 0.65558 0.08567 0.80812 0.0
C2810 C 0.67262 0.09797 0.81804 0.0
C2811 C 0.6544 0.08846 0.80132 0.0
C2812 C 0.65719 0.09633 0.79226 0.0
C2813 C 0.65864 0.09349 0.79861 0.0
C2814 C 0.6473 0.08908 0.79129 0.0
C2815 C 0.65145 0.0942 0.78857 0.0
C2816 C 0.64877 0.08624 0.79761 0.0
C2817 C 0.65758 0.07597 0.83208 0.0
C2818 C 0.64825 0.0682 0.83002 0.0
C2819 C 0.65261 0.06969 0.84142 0.0
C2820 C 0.65739 0.07432 0.83898 0.0
C2821 C 0.64792 0.06664 0.83698 0.0
C2822 C 0.65303 0.07284 0.82759 0.0
C2823 C 0.6622 0.08131 0.82971 0.0
O2824 O 0.67387 0.09178 0.81588 0.0
O2825 O 0.66618 0.09904 0.81935 0.0
O2826 O 0.6593 0.08721 0.82866 0.0
O2827 O 0.66644 0.07956 0.82487 0.0
H2828 H 0.6771 0.09139 0.82927 0.0
H2829 H 0.68381 0.09609 0.83856 0.0
H2830 H 0.68485 0.1153 0.82803 0.0
H2831 H 0.6783 0.11046 0.81865 0.0
H2832 H 0.66045 0.10031 0.79033 0.0
H2833 H 0.66299 0.09529 0.80144 0.0
H2834 H 0.64291 0.08726 0.78853 0.0
H2835 H 0.64545 0.08235 0.79964 0.0
H2836 H 0.64478 0.06588 0.82645 0.0
H2837 H 0.65244 0.06868 0.84681 0.0
H2838 H 0.66084 0.07674 0.84251 0.0
H2839 H 0.6531 0.0741 0.82224 0.0
C2840 C 0.8282 0.90383 0.32035 0.0
C2841 C 0.82791 0.90614 0.32707 0.0
C2842 C 0.81984 0.89722 0.32989 0.0
C2843 C 0.82377 0.90287 0.3318 0.0
C2844 C 0.82002 0.89504 0.32309 0.0
C2845 C 0.82418 0.89832 0.31836 0.0
U2846 U 0.84187 0.91671 0.31704 0.0
O2847 O 0.85179 0.91574 0.31208 0.0
O2848 O 0.84429 0.92297 0.30811 0.0
C2849 C 0.8502 0.92001 0.3072 0.0
C2850 C 0.833 0.90691 0.31558 0.0
C2851 C 0.85159 0.91754 0.30032 0.0
C2852 C 0.84937 0.90976 0.29103 0.0
C2853 C 0.84769 0.91234 0.29743 0.0
C2854 C 0.85881 0.91761 0.29036 0.0
C2855 C 0.855 0.91231 0.28747 0.0
C2856 C 0.85711 0.9202 0.29673 0.0
C2857 C 0.84711 0.92819 0.33164 0.0
C2858 C 0.85697 0.93552 0.33078 0.0
C2859 C 0.85068 0.9349 0.34132 0.0
C2860 C 0.84619 0.93027 0.33837 0.0
C2861 C 0.85618 0.93751 0.33759 0.0
C2862 C 0.85248 0.93089 0.32783 0.0
C2863 C 0.84269 0.92294 0.32878 0.0
O2864 O 0.83172 0.91324 0.3139 0.0
O2865 O 0.83941 0.90585 0.31708 0.0
O2866 O 0.84573 0.91715 0.32747 0.0
O2867 O 0.83862 0.92492 0.32388 0.0
H2868 H 0.83102 0.91037 0.3287 0.0
H2869 H 0.82385 0.90462 0.337 0.0
H2870 H 0.81699 0.89077 0.32143 0.0
H2871 H 0.82436 0.89648 0.31319 0.0
H2872 H 0.84638 0.90564 0.28898 0.0
H2873 H 0.84342 0.91021 0.30017 0.0
H2874 H 0.86311 0.91976 0.2877 0.0
H2875 H 0.86018 0.92421 0.2989 0.0
H2876 H 0.8612 0.93736 0.32779 0.0
H2877 H 0.84987 0.9364 0.34654 0.0
H2878 H 0.84206 0.92823 0.34137 0.0
H2879 H 0.85327 0.9293 0.32263 0.0
C2880 C 0.43642 0.35443 0.07317 0.0
C2881 C 0.42963 0.35483 0.07527 0.0
C2882 C 0.4271 0.36249 0.06592 0.0
C2883 C 0.42502 0.35885 0.07169 0.0
C2884 C 0.43388 0.36197 0.06376 0.0
C2885 C 0.43851 0.35798 0.06738 0.0
U2886 U 0.44038 0.34014 0.08546 0.0
O2887 O 0.4488 0.3328 0.08559 0.0
O2888 O 0.44737 0.33978 0.09414 0.0
C2889 C 0.45131 0.33524 0.09126 0.0
C2890 C 0.44135 0.35038 0.07703 0.0
C2891 C 0.45852 0.33706 0.09102 0.0
C2892 C 0.46747 0.34495 0.08797 0.0
C2893 C 0.46061 0.34316 0.08802 0.0
C2894 C 0.47023 0.33448 0.0938 0.0
C2895 C 0.47235 0.34064 0.09089 0.0
C2896 C 0.46336 0.33271 0.09387 0.0
C2897 C 0.42603 0.32942 0.09268 0.0
C2898 C 0.42684 0.32275 0.10302 0.0
C2899 C 0.41769 0.32067 0.09508 0.0
C2900 C 0.4202 0.32578 0.09085 0.0
C2901 C 0.42095 0.31914 0.10124 0.0
C2902 C 0.42939 0.32782 0.09876 0.0
C2903 C 0.42849 0.33488 0.08823 0.0
O2904 O 0.44106 0.3511 0.08365 0.0
O2905 O 0.44196 0.34402 0.0751 0.0
O2906 O 0.4322 0.33291 0.08306 0.0
O2907 O 0.43092 0.34026 0.09133 0.0
H2908 H 0.4279 0.35206 0.07969 0.0
H2909 H 0.4198 0.35907 0.07341 0.0
H2910 H 0.43563 0.36474 0.05935 0.0
H2911 H 0.44373 0.35771 0.06568 0.0
H2912 H 0.46895 0.34968 0.08561 0.0
H2913 H 0.45693 0.34656 0.08575 0.0
H2914 H 0.47387 0.33109 0.09614 0.0
H2915 H 0.46182 0.32798 0.09621 0.0
H2916 H 0.4295 0.32163 0.1077 0.0
H2917 H 0.41311 0.31803 0.0936 0.0
H2918 H 0.41756 0.32694 0.08617 0.0
H2919 H 0.43394 0.33052 0.10023 0.0
C2920 C 0.40234 0.68516 0.82016 0.0
C2921 C 0.40663 0.68069 0.81664 0.0
C2922 C 0.39682 0.67478 0.81196 0.0
C2923 C 0.40389 0.6756 0.81254 0.0
C2924 C 0.39255 0.67938 0.81538 0.0
C2925 C 0.3953 0.68452 0.81943 0.0
U2926 U 0.4144 0.68964 0.83445 0.0
O2927 O 0.42069 0.69863 0.83638 0.0
O2928 O 0.41279 0.69572 0.84368 0.0
C2929 C 0.41727 0.70031 0.84185 0.0
C2930 C 0.40512 0.6902 0.82495 0.0
C2931 C 0.41491 0.70736 0.84212 0.0
C2932 C 0.40997 0.71726 0.83671 0.0
C2933 C 0.41203 0.71048 0.83641 0.0
C2934 C 0.41346 0.7178 0.84848 0.0
C2935 C 0.41068 0.72099 0.84274 0.0
C2936 C 0.41558 0.71104 0.84816 0.0
C2937 C 0.42607 0.67589 0.84137 0.0
C2938 C 0.43191 0.67672 0.85219 0.0
C2939 C 0.43507 0.66798 0.84415 0.0
C2940 C 0.43015 0.67035 0.83963 0.0
C2941 C 0.43596 0.6711 0.8505 0.0
C2942 C 0.42702 0.67913 0.84764 0.0
C2943 C 0.4208 0.67819 0.83662 0.0
O2944 O 0.40369 0.68906 0.83136 0.0
O2945 O 0.41145 0.69205 0.82397 0.0
O2946 O 0.42279 0.68265 0.83208 0.0
O2947 O 0.4149 0.67965 0.83935 0.0
H2948 H 0.41209 0.68105 0.81713 0.0
H2949 H 0.40734 0.67224 0.80989 0.0
H2950 H 0.38709 0.67886 0.81513 0.0
H2951 H 0.3919 0.68789 0.82213 0.0
H2952 H 0.40776 0.71956 0.83223 0.0
H2953 H 0.41142 0.7077 0.83171 0.0
H2954 H 0.41413 0.72057 0.85318 0.0
H2955 H 0.41778 0.7087 0.85262 0.0
H2956 H 0.43254 0.67927 0.85702 0.0
H2957 H 0.43805 0.66358 0.84274 0.0
H2958 H 0.42948 0.6678 0.83481 0.0
H2959 H 0.42396 0.68347 0.84904 0.0
C2960 C 0.06992 0.65576 0.56716 0.0
C2961 C 0.07402 0.65981 0.56297 0.0
C2962 C 0.07968 0.64974 0.55856 0.0
C2963 C 0.07881 0.65683 0.55868 0.0
C2964 C 0.07545 0.6457 0.56266 0.0
C2965 C 0.07061 0.64869 0.5669 0.0
U2966 U 0.06618 0.66872 0.58091 0.0
O2967 O 0.05714 0.67485 0.58309 0.0
O2968 O 0.06082 0.66753 0.59064 0.0
C2969 C 0.05595 0.67172 0.58886 0.0
C2970 C 0.06521 0.65881 0.5721 0.0
C2971 C 0.04902 0.66912 0.58972 0.0
C2972 C 0.039 0.66353 0.58522 0.0
C2973 C 0.04564 0.66587 0.58436 0.0
C2974 C 0.03912 0.6675 0.59685 0.0
C2975 C 0.03567 0.66434 0.59147 0.0
C2976 C 0.04574 0.66989 0.59597 0.0
C2977 C 0.08009 0.68122 0.58609 0.0
C2978 C 0.08263 0.68623 0.59708 0.0
C2979 C 0.08572 0.69217 0.58678 0.0
C2980 C 0.08299 0.68689 0.58292 0.0
C2981 C 0.08567 0.69187 0.59391 0.0
C2982 C 0.07985 0.68098 0.59321 0.0
C2983 C 0.07753 0.67557 0.58189 0.0
O2984 O 0.06684 0.65784 0.57849 0.0
O2985 O 0.06316 0.66503 0.57082 0.0
O2986 O 0.07272 0.67714 0.57755 0.0
O2987 O 0.07648 0.66977 0.58502 0.0
H2988 H 0.07362 0.66529 0.56308 0.0
H2989 H 0.08189 0.66009 0.55552 0.0
H2990 H 0.07602 0.64024 0.56278 0.0
H2991 H 0.06752 0.64547 0.57011 0.0
H2992 H 0.0365 0.66104 0.58101 0.0
H2993 H 0.04813 0.66516 0.57951 0.0
H2994 H 0.03666 0.66824 0.6017 0.0
H2995 H 0.04828 0.67237 0.60016 0.0
H2996 H 0.08257 0.68577 0.60255 0.0
H2997 H 0.0879 0.69648 0.58416 0.0
H2998 H 0.0832 0.6872 0.57744 0.0
H2999 H 0.07762 0.67668 0.59581 0.0
C3000 C 0.10102 0.31899 0.32021 0.0
C3001 C 0.09684 0.32292 0.31598 0.0
C3002 C 0.10675 0.3286 0.31123 0.0
C3003 C 0.09968 0.32764 0.31152 0.0
C3004 C 0.11092 0.32453 0.31536 0.0
C3005 C 0.10808 0.31977 0.31978 0.0
U3006 U 0.08957 0.31554 0.33536 0.0
O3007 O 0.08283 0.30699 0.33776 0.0
O3008 O 0.09135 0.30941 0.34452 0.0
C3009 C 0.08648 0.30511 0.34302 0.0
C3010 C 0.09813 0.31426 0.32526 0.0
C3011 C 0.08844 0.29793 0.3432 0.0
C3012 C 0.09273 0.28781 0.33766 0.0
C3013 C 0.09082 0.29463 0.33737 0.0
C3014 C 0.08999 0.28755 0.34964 0.0
C3015 C 0.09235 0.2842 0.3438 0.0
C3016 C 0.08804 0.29436 0.34933 0.0
C3017 C 0.07955 0.33011 0.34311 0.0
C3018 C 0.07024 0.32859 0.35105 0.0
C3019 C 0.07576 0.33953 0.35006 0.0
C3020 C 0.0801 0.3369 0.34511 0.0
C3021 C 0.07078 0.33541 0.35308 0.0
C3022 C 0.07462 0.32595 0.34613 0.0
C3023 C 0.08426 0.32744 0.33798 0.0
O3024 O 0.10006 0.31531 0.33156 0.0
O3025 O 0.09161 0.31291 0.32472 0.0
O3026 O 0.08165 0.32318 0.33356 0.0
O3027 O 0.0902 0.32551 0.34032 0.0
H3028 H 0.09137 0.32244 0.31617 0.0
H3029 H 0.09631 0.33059 0.30833 0.0
H3030 H 0.11638 0.32517 0.31536 0.0
H3031 H 0.1114 0.31679 0.32299 0.0
H3032 H 0.09461 0.28538 0.3331 0.0
H3033 H 0.09124 0.29733 0.3326 0.0
H3034 H 0.08959 0.28489 0.35443 0.0
H3035 H 0.08623 0.29684 0.35389 0.0
H3036 H 0.06649 0.32528 0.35333 0.0
H3037 H 0.07625 0.34482 0.35145 0.0
H3038 H 0.08388 0.34018 0.34284 0.0
H3039 H 0.07417 0.32066 0.34471 0.0
C3040 C 0.43611 0.65282 0.43482 0.0
C3041 C 0.4328 0.65658 0.43989 0.0
C3042 C 0.42651 0.64654 0.44343 0.0
C3043 C 0.42807 0.65347 0.44416 0.0
C3044 C 0.42995 0.64276 0.43846 0.0
C3045 C 0.43472 0.64586 0.43422 0.0
U3046 U 0.4398 0.66522 0.42044 0.0
O3047 O 0.4484 0.67215 0.41877 0.0
O3048 O 0.44615 0.66415 0.41136 0.0
C3049 C 0.45041 0.6689 0.41331 0.0
C3050 C 0.4409 0.65608 0.43003 0.0
C3051 C 0.45759 0.66696 0.41321 0.0
C3052 C 0.46662 0.65908 0.41603 0.0
C3053 C 0.45978 0.66091 0.41625 0.0
C3054 C 0.46918 0.6694 0.40985 0.0
C3055 C 0.4714 0.6633 0.41282 0.0
C3056 C 0.46233 0.6712 0.41004 0.0
C3057 C 0.42529 0.67553 0.41291 0.0
C3058 C 0.42687 0.68523 0.40546 0.0
C3059 C 0.41601 0.67947 0.40585 0.0
C3060 C 0.41857 0.67496 0.41068 0.0
C3061 C 0.42013 0.68465 0.40318 0.0
C3062 C 0.42945 0.68068 0.41026 0.0
C3063 C 0.42791 0.67058 0.41783 0.0
O3064 O 0.44004 0.65452 0.42361 0.0
O3065 O 0.44217 0.66256 0.431 0.0
O3066 O 0.43204 0.67297 0.42249 0.0
O3067 O 0.42995 0.6648 0.41521 0.0
H3068 H 0.43378 0.66194 0.44054 0.0
H3069 H 0.42561 0.65651 0.44801 0.0
H3070 H 0.42884 0.63744 0.43769 0.0
H3071 H 0.43723 0.64284 0.43038 0.0
H3072 H 0.46819 0.6544 0.41844 0.0
H3073 H 0.45619 0.6576 0.41878 0.0
H3074 H 0.47273 0.67272 0.40728 0.0
H3075 H 0.46072 0.6759 0.40767 0.0
H3076 H 0.43017 0.68914 0.40345 0.0
H3077 H 0.41078 0.67895 0.40426 0.0
H3078 H 0.4153 0.67101 0.41265 0.0
H3079 H 0.43468 0.68115 0.41186 0.0
C3080 C 0.10203 0.68502 0.18553 0.0
C3081 C 0.09937 0.67851 0.18657 0.0
C3082 C 0.10862 0.67588 0.19433 0.0
C3083 C 0.10262 0.67398 0.19094 0.0
C3084 C 0.11124 0.68243 0.19328 0.0
C3085 C 0.10797 0.68697 0.18892 0.0
U3086 U 0.08897 0.68851 0.17183 0.0
O3087 O 0.08225 0.69724 0.17018 0.0
O3088 O 0.0898 0.69453 0.16246 0.0
C3089 C 0.08532 0.69901 0.16453 0.0
C3090 C 0.09875 0.68973 0.18078 0.0
C3091 C 0.08753 0.70611 0.16416 0.0
C3092 C 0.09274 0.71601 0.16932 0.0
C3093 C 0.09064 0.70925 0.16974 0.0
C3094 C 0.08877 0.71651 0.1577 0.0
C3095 C 0.09183 0.71971 0.1633 0.0
C3096 C 0.08662 0.70977 0.15814 0.0
C3097 C 0.0774 0.67435 0.16576 0.0
C3098 C 0.06977 0.67591 0.15621 0.0
C3099 C 0.06923 0.66561 0.16291 0.0
C3100 C 0.07448 0.66801 0.16702 0.0
C3101 C 0.06681 0.66953 0.15745 0.0
C3102 C 0.07501 0.67831 0.16035 0.0
C3103 C 0.08289 0.6768 0.17015 0.0
O3104 O 0.09984 0.68843 0.17434 0.0
O3105 O 0.09237 0.69116 0.18212 0.0
O3106 O 0.08105 0.68123 0.17478 0.0
O3107 O 0.08854 0.67847 0.16702 0.0
H3108 H 0.09481 0.67691 0.18394 0.0
H3109 H 0.10053 0.66894 0.19155 0.0
H3110 H 0.11582 0.68407 0.19586 0.0
H3111 H 0.11009 0.69198 0.18816 0.0
H3112 H 0.09516 0.71831 0.17369 0.0
H3113 H 0.09145 0.70648 0.17442 0.0
H3114 H 0.08796 0.71925 0.15301 0.0
H3115 H 0.08425 0.70741 0.15378 0.0
H3116 H 0.06797 0.67907 0.15209 0.0
H3117 H 0.06713 0.66064 0.16394 0.0
H3118 H 0.07628 0.66489 0.17118 0.0
H3119 H 0.07719 0.68325 0.15934 0.0
C3120 C 0.06831 0.35296 0.93378 0.0
C3121 C 0.07475 0.35011 0.93481 0.0
C3122 C 0.07754 0.35907 0.94284 0.0
C3123 C 0.07932 0.35313 0.93931 0.0
C3124 C 0.07106 0.36188 0.94182 0.0
C3125 C 0.06648 0.35883 0.93732 0.0
U3126 U 0.06488 0.34057 0.91951 0.0
O3127 O 0.05612 0.33404 0.91735 0.0
O3128 O 0.05912 0.34187 0.91003 0.0
C3129 C 0.05457 0.33731 0.91175 0.0
C3130 C 0.06361 0.34996 0.92884 0.0
C3131 C 0.04747 0.33948 0.91112 0.0
C3132 C 0.03717 0.34415 0.916 0.0
C3133 C 0.04397 0.34223 0.91667 0.0
C3134 C 0.03737 0.34074 0.90419 0.0
C3135 C 0.0338 0.34342 0.90975 0.0
C3136 C 0.04415 0.33878 0.90488 0.0
C3137 C 0.07901 0.32912 0.91319 0.0
C3138 C 0.07819 0.32288 0.90259 0.0
C3139 C 0.08713 0.32023 0.91061 0.0
C3140 C 0.08469 0.32525 0.91498 0.0
C3141 C 0.08392 0.31902 0.90435 0.0
C3142 C 0.07573 0.32786 0.90699 0.0
C3143 C 0.07654 0.33441 0.91782 0.0
O3144 O 0.06502 0.35132 0.92247 0.0
O3145 O 0.06206 0.34356 0.92988 0.0
O3146 O 0.07199 0.3324 0.92225 0.0
O3147 O 0.07505 0.34025 0.91498 0.0
H3148 H 0.07627 0.3456 0.93206 0.0
H3149 H 0.08431 0.3509 0.93989 0.0
H3150 H 0.06951 0.36642 0.9445 0.0
H3151 H 0.06153 0.3611 0.93657 0.0
H3152 H 0.03457 0.34628 0.92034 0.0
H3153 H 0.04647 0.34287 0.92151 0.0
H3154 H 0.0349 0.34006 0.89933 0.0
H3155 H 0.04679 0.33667 0.90054 0.0
H3156 H 0.07558 0.32201 0.89784 0.0
H3157 H 0.0916 0.3174 0.91207 0.0
H3158 H 0.08727 0.32615 0.91975 0.0
H3159 H 0.07128 0.33076 0.90555 0.0
C3160 C 0.40551 0.32042 0.68692 0.0
C3161 C 0.40806 0.32703 0.68755 0.0
C3162 C 0.39932 0.3297 0.69586 0.0
C3163 C 0.405 0.33162 0.69199 0.0
C3164 C 0.39683 0.32303 0.69525 0.0
C3165 C 0.39991 0.31843 0.69081 0.0
U3166 U 0.41764 0.31681 0.67242 0.0
O3167 O 0.4242 0.30804 0.67035 0.0
O3168 O 0.41614 0.31077 0.66315 0.0
C3169 C 0.42076 0.3063 0.6649 0.0
C3170 C 0.4085 0.31567 0.68203 0.0
C3171 C 0.41856 0.29918 0.66462 0.0
C3172 C 0.41391 0.28914 0.67003 0.0
C3173 C 0.41596 0.29592 0.67039 0.0
C3174 C 0.4169 0.28887 0.65811 0.0
C3175 C 0.41436 0.28555 0.66389 0.0
C3176 C 0.419 0.29563 0.65849 0.0
C3177 C 0.42874 0.33083 0.66533 0.0
C3178 C 0.43476 0.32961 0.65465 0.0
C3179 C 0.43734 0.33903 0.66211 0.0
C3180 C 0.43248 0.3367 0.66673 0.0
C3181 C 0.4385 0.33553 0.656 0.0
C3182 C 0.42994 0.32726 0.65929 0.0
C3183 C 0.42362 0.32848 0.6702 0.0
O3184 O 0.40697 0.31689 0.67566 0.0
O3185 O 0.41496 0.31428 0.68295 0.0
O3186 O 0.4258 0.32408 0.67471 0.0
O3187 O 0.4177 0.32684 0.66758 0.0
H3188 H 0.41236 0.32865 0.68453 0.0
H3189 H 0.40699 0.33674 0.69226 0.0
H3190 H 0.3925 0.32138 0.6982 0.0
H3191 H 0.39787 0.31335 0.69037 0.0
H3192 H 0.41189 0.28674 0.67454 0.0
H3193 H 0.41551 0.29862 0.67515 0.0
H3194 H 0.41736 0.2862 0.65333 0.0
H3195 H 0.42098 0.29808 0.65398 0.0
H3196 H 0.4356 0.32676 0.65003 0.0
H3197 H 0.44008 0.34365 0.66326 0.0
H3198 H 0.43162 0.33951 0.67137 0.0
H3199 H 0.42714 0.32267 0.65816 0.0
C3200 C 0.07054 0.43548 0.35106 0.0
C3201 C 0.06994 0.42881 0.34864 0.0
C3202 C 0.06135 0.4264 0.35719 0.0
C3203 C 0.06537 0.42432 0.35166 0.0
C3204 C 0.06197 0.4331 0.35957 0.0
C3205 C 0.06652 0.4376 0.35651 0.0
U3206 U 0.08553 0.43868 0.33942 0.0
O3207 O 0.08771 0.4471 0.33245 0.0
O3208 O 0.09461 0.44498 0.34093 0.0
C3209 C 0.09298 0.44915 0.336 0.0
C3210 C 0.07549 0.44015 0.34804 0.0
C3211 C 0.09303 0.45637 0.33783 0.0
C3212 C 0.08735 0.46636 0.34225 0.0
C3213 C 0.08718 0.45953 0.34037 0.0
C3214 C 0.09924 0.46691 0.33915 0.0
C3215 C 0.0934 0.47011 0.34169 0.0
C3216 C 0.09905 0.46009 0.33722 0.0
C3217 C 0.09342 0.42408 0.32965 0.0
C3218 C 0.10159 0.42584 0.32058 0.0
C3219 C 0.10014 0.41466 0.32548 0.0
C3220 C 0.09519 0.41721 0.32987 0.0
C3221 C 0.10338 0.41894 0.32078 0.0
C3222 C 0.09667 0.4284 0.32501 0.0
C3223 C 0.08829 0.4267 0.33438 0.0
O3224 O 0.08181 0.43916 0.34993 0.0
O3225 O 0.07484 0.44116 0.34148 0.0
O3226 O 0.08375 0.43081 0.33173 0.0
O3227 O 0.09065 0.4288 0.34024 0.0
H3228 H 0.07305 0.42708 0.34446 0.0
H3229 H 0.0651 0.41917 0.34978 0.0
H3230 H 0.05891 0.43487 0.36377 0.0
H3231 H 0.06695 0.44273 0.35844 0.0
H3232 H 0.0828 0.46867 0.34427 0.0
H3233 H 0.0825 0.4567 0.34094 0.0
H3234 H 0.10395 0.46968 0.3386 0.0
H3235 H 0.10361 0.45771 0.33529 0.0
H3236 H 0.10405 0.42927 0.31707 0.0
H3237 H 0.10135 0.4093 0.3257 0.0
H3238 H 0.09274 0.41382 0.33343 0.0
H3239 H 0.09542 0.43375 0.32482 0.0
C3240 C 0.31971 0.31779 0.10099 0.0
C3241 C 0.32609 0.31653 0.0981 0.0
C3242 C 0.32883 0.30878 0.10732 0.0
C3243 C 0.3306 0.31204 0.10122 0.0
C3244 C 0.32241 0.31003 0.11017 0.0
C3245 C 0.31788 0.3145 0.10701 0.0
U3246 U 0.31679 0.33243 0.08892 0.0
O3247 O 0.30831 0.3348 0.08208 0.0
O3248 O 0.31098 0.34186 0.09027 0.0
C3249 C 0.30662 0.34028 0.08548 0.0
C3250 C 0.31511 0.32277 0.09792 0.0
C3251 C 0.29946 0.34077 0.08746 0.0
C3252 C 0.2893 0.33582 0.09236 0.0
C3253 C 0.29608 0.33522 0.09036 0.0
C3254 C 0.28926 0.34755 0.08867 0.0
C3255 C 0.28583 0.342 0.09156 0.0
C3256 C 0.29602 0.34693 0.08663 0.0
C3257 C 0.33161 0.33934 0.07871 0.0
C3258 C 0.33011 0.34799 0.07007 0.0
C3259 C 0.34139 0.3452 0.07409 0.0
C3260 C 0.33863 0.34036 0.07847 0.0
C3261 C 0.33715 0.3491 0.06987 0.0
C3262 C 0.32735 0.34317 0.07449 0.0
C3263 C 0.3288 0.33445 0.08357 0.0
O3264 O 0.31636 0.32911 0.09956 0.0
O3265 O 0.3139 0.32194 0.09141 0.0
O3266 O 0.32438 0.3301 0.0811 0.0
O3267 O 0.32693 0.33705 0.08941 0.0
H3268 H 0.32762 0.31909 0.09349 0.0
H3269 H 0.33555 0.31128 0.09896 0.0
H3270 H 0.32088 0.30756 0.11483 0.0
H3271 H 0.31298 0.31545 0.10932 0.0
H3272 H 0.28682 0.33148 0.09464 0.0
H3273 H 0.29869 0.33044 0.09111 0.0
H3274 H 0.2867 0.35235 0.08794 0.0
H3275 H 0.29857 0.35127 0.08442 0.0
H3276 H 0.32672 0.35096 0.06692 0.0
H3277 H 0.34684 0.34587 0.07399 0.0
H3278 H 0.34199 0.33745 0.08171 0.0
H3279 H 0.3219 0.34249 0.07466 0.0
C3280 C 0.43375 0.56949 0.85258 0.0
C3281 C 0.43855 0.57304 0.84868 0.0
C3282 C 0.44223 0.57934 0.85866 0.0
C3283 C 0.44276 0.57789 0.85169 0.0
C3284 C 0.43753 0.57566 0.86257 0.0
C3285 C 0.43336 0.57078 0.85956 0.0
U3286 U 0.41965 0.56529 0.84002 0.0
O3287 O 0.41798 0.55642 0.8335 0.0
O3288 O 0.41051 0.55901 0.84134 0.0
C3289 C 0.41252 0.55453 0.83683 0.0
C3290 C 0.429 0.5646 0.84946 0.0
C3291 C 0.41248 0.54745 0.83915 0.0
C3292 C 0.41822 0.53778 0.84416 0.0
C3293 C 0.4183 0.54453 0.84203 0.0
C3294 C 0.40646 0.53683 0.8407 0.0
C3295 C 0.4123 0.53385 0.84351 0.0
C3296 C 0.40656 0.54357 0.83852 0.0
C3297 C 0.41269 0.57915 0.82853 0.0
C3298 C 0.40204 0.57816 0.8224 0.0
C3299 C 0.40997 0.58712 0.81956 0.0
C3300 C 0.41441 0.58478 0.82456 0.0
C3301 C 0.40371 0.58386 0.81845 0.0
C3302 C 0.40651 0.5758 0.82738 0.0
C3303 C 0.41739 0.57684 0.83384 0.0
O3304 O 0.42255 0.56565 0.85079 0.0
O3305 O 0.43012 0.56297 0.84309 0.0
O3306 O 0.42205 0.57251 0.83185 0.0
O3307 O 0.41457 0.5752 0.83966 0.0
H3308 H 0.43901 0.57216 0.84328 0.0
H3309 H 0.44641 0.58052 0.84854 0.0
H3310 H 0.43691 0.57669 0.86793 0.0
H3311 H 0.42971 0.5681 0.86268 0.0
H3312 H 0.42277 0.53564 0.84639 0.0
H3313 H 0.42291 0.54748 0.84263 0.0
H3314 H 0.40184 0.53391 0.8401 0.0
H3315 H 0.40202 0.54576 0.83633 0.0
H3316 H 0.39728 0.57552 0.82162 0.0
H3317 H 0.41137 0.59157 0.81666 0.0
H3318 H 0.41917 0.58741 0.82538 0.0
H3319 H 0.40512 0.57139 0.83035 0.0
C3320 C 0.18484 0.67983 0.60477 0.0
C3321 C 0.17789 0.67834 0.6045 0.0
C3322 C 0.17546 0.68794 0.61188 0.0
C3323 C 0.17324 0.68235 0.60804 0.0
C3324 C 0.18244 0.68945 0.61207 0.0
C3325 C 0.18709 0.68541 0.60855 0.0
U3326 U 0.18855 0.66629 0.59165 0.0
O3327 O 0.19677 0.66534 0.58418 0.0
O3328 O 0.19544 0.65753 0.59201 0.0
C3329 C 0.19927 0.65988 0.58709 0.0
C3330 C 0.18974 0.67557 0.60111 0.0
C3331 C 0.20658 0.66 0.58857 0.0
C3332 C 0.21672 0.66585 0.59241 0.0
C3333 C 0.2098 0.66593 0.59085 0.0
C3334 C 0.21724 0.65391 0.58952 0.0
C3335 C 0.2205 0.65983 0.59181 0.0
C3336 C 0.21034 0.65401 0.5879 0.0
C3337 C 0.17403 0.65835 0.58178 0.0
C3338 C 0.1759 0.65109 0.572 0.0
C3339 C 0.1648 0.65156 0.57727 0.0
C3340 C 0.16725 0.65623 0.58201 0.0
C3341 C 0.1691 0.64895 0.57221 0.0
C3342 C 0.17836 0.65573 0.57677 0.0
C3343 C 0.17653 0.66319 0.58686 0.0
O3344 O 0.18934 0.66905 0.60241 0.0
O3345 O 0.19037 0.67691 0.59461 0.0
O3346 O 0.18023 0.66821 0.58448 0.0
O3347 O 0.17906 0.66046 0.59238 0.0
H3348 H 0.17606 0.67408 0.60155 0.0
H3349 H 0.1679 0.68112 0.6077 0.0
H3350 H 0.1843 0.6937 0.61501 0.0
H3351 H 0.19245 0.68662 0.6088 0.0
H3352 H 0.21909 0.67047 0.59423 0.0
H3353 H 0.20696 0.67059 0.59147 0.0
H3354 H 0.22003 0.64922 0.58895 0.0
H3355 H 0.20793 0.64938 0.58617 0.0
H3356 H 0.17934 0.64912 0.5682 0.0
H3357 H 0.15952 0.65008 0.57752 0.0
H3358 H 0.16385 0.65819 0.58586 0.0
H3359 H 0.18363 0.65726 0.57656 0.0
C3360 C 0.06782 0.57002 0.15367 0.0
C3361 C 0.0665 0.57613 0.15708 0.0
C3362 C 0.058 0.5791 0.14863 0.0
C3363 C 0.06161 0.58061 0.15459 0.0
C3364 C 0.05939 0.573 0.1452 0.0
C3365 C 0.06425 0.56849 0.14772 0.0
U3366 U 0.08313 0.56663 0.16475 0.0
O3367 O 0.08559 0.55798 0.17138 0.0
O3368 O 0.09234 0.56062 0.16292 0.0
C3369 C 0.09088 0.55623 0.16772 0.0
C3370 C 0.07297 0.5653 0.15626 0.0
C3371 C 0.09111 0.54906 0.16572 0.0
C3372 C 0.08837 0.54001 0.15782 0.0
C3373 C 0.0881 0.54686 0.15966 0.0
C3374 C 0.09457 0.5375 0.16814 0.0
C3375 C 0.09161 0.53526 0.16205 0.0
C3376 C 0.09433 0.54435 0.16995 0.0
C3377 C 0.09077 0.58108 0.17502 0.0
C3378 C 0.09884 0.5794 0.18419 0.0
C3379 C 0.09776 0.59044 0.17889 0.0
C3380 C 0.09274 0.58789 0.17458 0.0
C3381 C 0.10087 0.58622 0.18373 0.0
C3382 C 0.09386 0.57683 0.17983 0.0
C3383 C 0.08563 0.57846 0.17028 0.0
O3384 O 0.07922 0.56657 0.1543 0.0
O3385 O 0.07252 0.56388 0.16276 0.0
O3386 O 0.08126 0.5741 0.17281 0.0
O3387 O 0.08797 0.57668 0.1643 0.0
H3388 H 0.06926 0.57743 0.16164 0.0
H3389 H 0.06074 0.58532 0.15728 0.0
H3390 H 0.05666 0.57169 0.14061 0.0
H3391 H 0.06523 0.5638 0.14502 0.0
H3392 H 0.08597 0.53842 0.15314 0.0
H3393 H 0.08553 0.55042 0.15635 0.0
H3394 H 0.09715 0.53397 0.17147 0.0
H3395 H 0.09667 0.54598 0.17465 0.0
H3396 H 0.1012 0.57602 0.18782 0.0
H3397 H 0.09915 0.59574 0.17847 0.0
H3398 H 0.09042 0.59123 0.17089 0.0
H3399 H 0.09245 0.57153 0.1802 0.0
C3400 C 0.18449 0.31887 0.90291 0.0
C3401 C 0.18038 0.31462 0.90689 0.0
C3402 C 0.17436 0.31073 0.89682 0.0
C3403 C 0.1754 0.31057 0.90388 0.0
C3404 C 0.17859 0.31486 0.89283 0.0
C3405 C 0.18361 0.31887 0.89584 0.0
U3406 U 0.1887 0.33321 0.91508 0.0
O3407 O 0.1974 0.33477 0.92191 0.0
O3408 O 0.19522 0.34216 0.91386 0.0
C3409 C 0.19949 0.34016 0.91858 0.0
C3410 C 0.18948 0.32351 0.90602 0.0
C3411 C 0.20666 0.34008 0.91657 0.0
C3412 C 0.21551 0.33715 0.90853 0.0
C3413 C 0.20868 0.33709 0.91044 0.0
C3414 C 0.21837 0.34306 0.91892 0.0
C3415 C 0.22042 0.34016 0.91274 0.0
C3416 C 0.21153 0.34303 0.92081 0.0
C3417 C 0.17431 0.34115 0.92531 0.0
C3418 C 0.17587 0.34864 0.93499 0.0
C3419 C 0.16516 0.34854 0.92894 0.0
C3420 C 0.16768 0.34359 0.92455 0.0
C3421 C 0.16923 0.35114 0.93419 0.0
C3422 C 0.17841 0.34372 0.93055 0.0
C3423 C 0.17688 0.33612 0.92045 0.0
O3424 O 0.18878 0.32994 0.9044 0.0
O3425 O 0.1908 0.32257 0.91249 0.0
O3426 O 0.18095 0.33144 0.92291 0.0
O3427 O 0.17895 0.33862 0.91464 0.0
H3428 H 0.18093 0.31448 0.91236 0.0
H3429 H 0.17233 0.30735 0.90711 0.0
H3430 H 0.17789 0.31518 0.88739 0.0
H3431 H 0.18672 0.3221 0.89266 0.0
H3432 H 0.21695 0.3348 0.90378 0.0
H3433 H 0.20498 0.33473 0.90713 0.0
H3434 H 0.22202 0.34546 0.92225 0.0
H3435 H 0.21004 0.34535 0.92556 0.0
H3436 H 0.17913 0.35059 0.93896 0.0
H3437 H 0.16 0.35029 0.92825 0.0
H3438 H 0.16445 0.34168 0.92053 0.0
H3439 H 0.18358 0.34195 0.93117 0.0
C3440 C 0.43303 0.43453 0.65062 0.0
C3441 C 0.4351 0.42895 0.65453 0.0
C3442 C 0.44032 0.42376 0.64462 0.0
C3443 C 0.43875 0.42366 0.65158 0.0
C3444 C 0.43836 0.42943 0.64074 0.0
C3445 C 0.43474 0.43476 0.64372 0.0
U3446 U 0.41918 0.43948 0.66284 0.0
O3447 O 0.41808 0.4482 0.66972 0.0
O3448 O 0.41046 0.44633 0.6618 0.0
C3449 C 0.41268 0.45047 0.66653 0.0
C3450 C 0.42872 0.43986 0.65359 0.0
C3451 C 0.41286 0.45767 0.66466 0.0
C3452 C 0.41563 0.46665 0.65669 0.0
C3453 C 0.41562 0.45978 0.65845 0.0
C3454 C 0.41025 0.46938 0.66741 0.0
C3455 C 0.41292 0.47152 0.66115 0.0
C3456 C 0.41021 0.46251 0.66914 0.0
C3457 C 0.41105 0.42541 0.67336 0.0
C3458 C 0.40388 0.42731 0.68321 0.0
C3459 C 0.40375 0.41642 0.67751 0.0
C3460 C 0.40855 0.41878 0.67288 0.0
C3461 C 0.40136 0.42066 0.68273 0.0
C3462 C 0.40866 0.42969 0.67853 0.0
C3463 C 0.41601 0.42778 0.66832 0.0
O3464 O 0.42224 0.43937 0.6521 0.0
O3465 O 0.42983 0.44122 0.66003 0.0
O3466 O 0.4209 0.43169 0.67063 0.0
O3467 O 0.4134 0.42994 0.66258 0.0
H3468 H 0.43379 0.42863 0.65986 0.0
H3469 H 0.44028 0.41944 0.65475 0.0
H3470 H 0.43941 0.42964 0.63536 0.0
H3471 H 0.43314 0.439 0.64061 0.0
H3472 H 0.41779 0.46816 0.65188 0.0
H3473 H 0.41775 0.45611 0.65495 0.0
H3474 H 0.40807 0.473 0.67092 0.0
H3475 H 0.40807 0.46096 0.67395 0.0
H3476 H 0.40209 0.43071 0.68714 0.0
H3477 H 0.40197 0.41124 0.67707 0.0
H3478 H 0.41033 0.41541 0.66891 0.0
H3479 H 0.41048 0.43486 0.67893 0.0
C3480 C 0.31937 0.68248 0.4018 0.0
C3481 C 0.32617 0.68038 0.40154 0.0
C3482 C 0.32879 0.68954 0.39369 0.0
C3483 C 0.33083 0.68386 0.3975 0.0
C3484 C 0.32201 0.69172 0.39409 0.0
C3485 C 0.31733 0.6882 0.3981 0.0
U3486 U 0.31565 0.66959 0.4155 0.0
O3487 O 0.30759 0.66907 0.4232 0.0
O3488 O 0.30859 0.66096 0.41562 0.0
C3489 C 0.30491 0.66357 0.42053 0.0
C3490 C 0.31442 0.67863 0.40582 0.0
C3491 C 0.2976 0.66382 0.41912 0.0
C3492 C 0.28774 0.66953 0.41442 0.0
C3493 C 0.29462 0.66957 0.41617 0.0
C3494 C 0.28678 0.65798 0.41855 0.0
C3495 C 0.28378 0.66369 0.41551 0.0
C3496 C 0.29363 0.65805 0.42035 0.0
C3497 C 0.33043 0.66134 0.42478 0.0
C3498 C 0.32897 0.65416 0.4347 0.0
C3499 C 0.33963 0.65411 0.42858 0.0
C3500 C 0.33706 0.65891 0.42404 0.0
C3501 C 0.33561 0.65168 0.43394 0.0
C3502 C 0.32638 0.65893 0.43012 0.0
C3503 C 0.32777 0.66622 0.41982 0.0
O3504 O 0.31442 0.67206 0.40471 0.0
O3505 O 0.31415 0.6802 0.41229 0.0
O3506 O 0.32429 0.67133 0.42233 0.0
O3507 O 0.32494 0.6635 0.41444 0.0
H3508 H 0.32786 0.67601 0.40442 0.0
H3509 H 0.33604 0.68213 0.39738 0.0
H3510 H 0.32029 0.69606 0.39119 0.0
H3511 H 0.3121 0.68988 0.39827 0.0
H3512 H 0.28558 0.67397 0.41202 0.0
H3513 H 0.29763 0.67404 0.41511 0.0
H3514 H 0.28383 0.65344 0.41951 0.0
H3515 H 0.29587 0.65356 0.42259 0.0
H3516 H 0.32574 0.65233 0.43875 0.0
H3517 H 0.3448 0.65236 0.42792 0.0
H3518 H 0.34025 0.66071 0.41994 0.0
H3519 H 0.32121 0.66071 0.43073 0.0
C3520 C 0.35435 0.07321 0.4331 0.0
C3521 C 0.3527 0.07422 0.42626 0.0
C3522 C 0.36217 0.06706 0.42284 0.0
C3523 C 0.35658 0.07118 0.42118 0.0
C3524 C 0.36372 0.06597 0.42972 0.0
C3525 C 0.35985 0.06905 0.43482 0.0
U3526 U 0.3392 0.08378 0.43816 0.0
O3527 O 0.33239 0.08317 0.44698 0.0
O3528 O 0.33828 0.09244 0.4451 0.0
C3529 C 0.33428 0.08914 0.44929 0.0
C3530 C 0.35039 0.07659 0.43843 0.0
C3531 C 0.33635 0.08929 0.45643 0.0
C3532 C 0.33364 0.0917 0.46819 0.0
C3533 C 0.33172 0.09144 0.46137 0.0
C3534 C 0.34486 0.08765 0.46518 0.0
C3535 C 0.34024 0.08984 0.47016 0.0
C3536 C 0.34292 0.08736 0.45837 0.0
C3537 C 0.32685 0.08943 0.42444 0.0
C3538 C 0.31833 0.09815 0.42633 0.0
C3539 C 0.3182 0.09156 0.41595 0.0
C3540 C 0.32388 0.08795 0.41816 0.0
C3541 C 0.31539 0.09673 0.41999 0.0
C3542 C 0.32401 0.09451 0.42855 0.0
C3543 C 0.33293 0.08572 0.42658 0.0
O3544 O 0.35033 0.08325 0.43806 0.0
O3545 O 0.34436 0.07398 0.43957 0.0
O3546 O 0.33183 0.08041 0.43046 0.0
O3547 O 0.33801 0.08951 0.42868 0.0
H3548 H 0.34844 0.07739 0.42485 0.0
H3549 H 0.35519 0.07203 0.41593 0.0
H3550 H 0.36802 0.06286 0.43116 0.0
H3551 H 0.36117 0.06822 0.44008 0.0
H3552 H 0.32999 0.09348 0.47189 0.0
H3553 H 0.32663 0.09295 0.45995 0.0
H3554 H 0.34995 0.08611 0.46656 0.0
H3555 H 0.34654 0.08565 0.45461 0.0
H3556 H 0.31624 0.10205 0.42957 0.0
H3557 H 0.3161 0.0904 0.41101 0.0
H3558 H 0.32602 0.08405 0.41493 0.0
H3559 H 0.32621 0.09568 0.43345 0.0
C3560 C 0.85437 0.43235 0.57245 0.0
C3561 C 0.85349 0.43037 0.57922 0.0
C3562 C 0.86197 0.4386 0.58282 0.0
C3563 C 0.85728 0.43345 0.58436 0.0
C3564 C 0.86273 0.44066 0.57603 0.0
C3565 C 0.85897 0.43753 0.57088 0.0
U3566 U 0.83979 0.42112 0.56701 0.0
O3567 O 0.833 0.42163 0.55815 0.0
O3568 O 0.83938 0.41265 0.5598 0.0
C3569 C 0.83523 0.41585 0.55568 0.0
C3570 C 0.85054 0.42896 0.56703 0.0
C3571 C 0.83733 0.41601 0.54855 0.0
C3572 C 0.84587 0.41811 0.53993 0.0
C3573 C 0.84385 0.41822 0.54672 0.0
C3574 C 0.83483 0.41372 0.53672 0.0
C3575 C 0.8414 0.41582 0.53486 0.0
C3576 C 0.83283 0.4138 0.54352 0.0
C3577 C 0.82784 0.41411 0.58046 0.0
C3578 C 0.82045 0.40442 0.57856 0.0
C3579 C 0.81906 0.41134 0.58862 0.0
C3580 C 0.82441 0.41549 0.58652 0.0
C3581 C 0.81707 0.40572 0.58471 0.0
C3582 C 0.82577 0.40861 0.57643 0.0
C3583 C 0.83365 0.41834 0.57848 0.0
O3584 O 0.85086 0.4223 0.5671 0.0
O3585 O 0.84436 0.43127 0.56602 0.0
O3586 O 0.83219 0.4237 0.57479 0.0
O3587 O 0.839 0.41501 0.57629 0.0
H3588 H 0.84991 0.42641 0.58054 0.0
H3589 H 0.85649 0.43183 0.58955 0.0
H3590 H 0.86633 0.44459 0.57469 0.0
H3591 H 0.8597 0.43913 0.56567 0.0
H3592 H 0.85093 0.41983 0.53864 0.0
H3593 H 0.84737 0.41998 0.55055 0.0
H3594 H 0.8313 0.41186 0.53295 0.0
H3595 H 0.82779 0.41207 0.54486 0.0
H3596 H 0.81899 0.40017 0.57541 0.0
H3597 H 0.81661 0.41243 0.59342 0.0
H3598 H 0.82594 0.41972 0.58967 0.0
H3599 H 0.82833 0.4075 0.5717 0.0
C3600 C 0.31979 0.10337 0.32112 0.0
C3601 C 0.32112 0.10258 0.32807 0.0
C3602 C 0.31159 0.10993 0.33081 0.0
C3603 C 0.31707 0.10585 0.33287 0.0
C3604 C 0.3102 0.11061 0.32385 0.0
C3605 C 0.31429 0.10737 0.31904 0.0
U3606 U 0.33309 0.09024 0.31671 0.0
O3607 O 0.33432 0.08365 0.30782 0.0
O3608 O 0.34225 0.09104 0.31039 0.0
C3609 C 0.33999 0.08662 0.30594 0.0
C3610 C 0.32417 0.10009 0.31606 0.0
C3611 C 0.34034 0.08881 0.29883 0.0
C3612 C 0.3351 0.09358 0.28875 0.0
C3613 C 0.33465 0.09153 0.29552 0.0
C3614 C 0.34696 0.09032 0.28857 0.0
C3615 C 0.34127 0.093 0.28521 0.0
C3616 C 0.34649 0.08823 0.29532 0.0
C3617 C 0.33984 0.07855 0.33043 0.0
C3618 C 0.35002 0.07179 0.32882 0.0
C3619 C 0.34273 0.06974 0.33851 0.0
C3620 C 0.33839 0.0749 0.33634 0.0
C3621 C 0.34863 0.06816 0.3348 0.0
C3622 C 0.34564 0.07692 0.32663 0.0
C3623 C 0.33528 0.08402 0.32826 0.0
O3624 O 0.3307 0.10111 0.31691 0.0
O3625 O 0.32267 0.09374 0.31468 0.0
O3626 O 0.33047 0.08221 0.32402 0.0
O3627 O 0.33827 0.08974 0.32656 0.0
H3628 H 0.32531 0.09946 0.32977 0.0
H3629 H 0.3182 0.10514 0.3382 0.0
H3630 H 0.30603 0.11374 0.32212 0.0
H3631 H 0.3132 0.10802 0.31369 0.0
H3632 H 0.33066 0.09569 0.28631 0.0
H3633 H 0.32987 0.09209 0.29818 0.0
H3634 H 0.35176 0.08976 0.28595 0.0
H3635 H 0.35093 0.08615 0.2978 0.0
H3636 H 0.35448 0.07064 0.32583 0.0
H3637 H 0.34157 0.06709 0.34318 0.0
H3638 H 0.33392 0.07608 0.33932 0.0
H3639 H 0.3468 0.07965 0.32201 0.0
C3640 C 0.65075 0.57507 0.0696 0.0
C3641 C 0.65159 0.57662 0.07649 0.0
C3642 C 0.64327 0.56801 0.07953 0.0
C3643 C 0.64787 0.57314 0.08141 0.0
C3644 C 0.64254 0.56639 0.07262 0.0
C3645 C 0.64625 0.56992 0.06769 0.0
U3646 U 0.6649 0.58719 0.06494 0.0
O3647 O 0.67191 0.58731 0.05625 0.0
O3648 O 0.66507 0.59592 0.05803 0.0
C3649 C 0.6695 0.59307 0.05393 0.0
C3650 C 0.65452 0.57887 0.06441 0.0
C3651 C 0.66764 0.59311 0.04673 0.0
C3652 C 0.67046 0.59599 0.0351 0.0
C3653 C 0.6722 0.59575 0.04197 0.0
C3654 C 0.65957 0.59089 0.0377 0.0
C3655 C 0.66411 0.59359 0.03289 0.0
C3656 C 0.66133 0.59063 0.04456 0.0
C3657 C 0.67634 0.59411 0.07888 0.0
C3658 C 0.68316 0.60433 0.07783 0.0
C3659 C 0.68544 0.59633 0.08688 0.0
C3660 C 0.68016 0.5922 0.08456 0.0
C3661 C 0.68695 0.60247 0.08358 0.0
C3662 C 0.67792 0.60017 0.07548 0.0
C3663 C 0.67071 0.58977 0.07662 0.0
O3664 O 0.65389 0.5855 0.06477 0.0
O3665 O 0.66081 0.5769 0.06344 0.0
O3666 O 0.67243 0.58459 0.07279 0.0
O3667 O 0.66527 0.59297 0.07445 0.0
H3668 H 0.6551 0.58055 0.07806 0.0
H3669 H 0.64863 0.57443 0.0867 0.0
H3670 H 0.63901 0.5625 0.07102 0.0
H3671 H 0.64555 0.56866 0.06239 0.0
H3672 H 0.67403 0.59816 0.03155 0.0
H3673 H 0.67709 0.59769 0.04357 0.0
H3674 H 0.65467 0.58893 0.03614 0.0
H3675 H 0.65777 0.58853 0.04818 0.0
H3676 H 0.68426 0.609 0.07515 0.0
H3677 H 0.68822 0.5948 0.09136 0.0
H3678 H 0.67902 0.58754 0.08724 0.0
H3679 H 0.67507 0.6017 0.07103 0.0
C3680 C 0.68368 0.40239 0.32161 0.0
C3681 C 0.68603 0.40642 0.32699 0.0
C3682 C 0.69134 0.39655 0.33221 0.0
C3683 C 0.68986 0.40354 0.3322 0.0
C3684 C 0.68907 0.39256 0.32674 0.0
C3685 C 0.68527 0.39546 0.32149 0.0
U3686 U 0.67018 0.41502 0.31645 0.0
O3687 O 0.66886 0.42119 0.30728 0.0
O3688 O 0.66108 0.41374 0.31011 0.0
C3689 C 0.66328 0.418 0.30549 0.0
C3690 C 0.67922 0.40526 0.31637 0.0
C3691 C 0.66312 0.41549 0.29848 0.0
C3692 C 0.66865 0.41028 0.28879 0.0
C3693 C 0.66886 0.41251 0.29552 0.0
C3694 C 0.65691 0.41382 0.28798 0.0
C3695 C 0.66268 0.41093 0.28495 0.0
C3696 C 0.65714 0.4161 0.29469 0.0
C3697 C 0.66338 0.42732 0.32968 0.0
C3698 C 0.65292 0.43369 0.32826 0.0
C3699 C 0.66074 0.43662 0.33729 0.0
C3700 C 0.66509 0.43143 0.33521 0.0
C3701 C 0.65458 0.43777 0.33387 0.0
C3702 C 0.65731 0.42852 0.32616 0.0
C3703 C 0.66795 0.42178 0.32768 0.0
O3704 O 0.67271 0.40419 0.31734 0.0
O3705 O 0.68059 0.41152 0.31448 0.0
O3706 O 0.67273 0.42344 0.32334 0.0
O3707 O 0.66498 0.41598 0.32625 0.0
H3708 H 0.68482 0.41177 0.32721 0.0
H3709 H 0.69162 0.40679 0.33626 0.0
H3710 H 0.69003 0.38715 0.32662 0.0
H3711 H 0.68345 0.39226 0.31741 0.0
H3712 H 0.67315 0.40799 0.28662 0.0
H3713 H 0.67351 0.41193 0.29839 0.0
H3714 H 0.65225 0.41444 0.28513 0.0
H3715 H 0.65265 0.41838 0.2969 0.0
H3716 H 0.64824 0.4345 0.32549 0.0
H3717 H 0.66212 0.43962 0.34168 0.0
H3718 H 0.66977 0.43057 0.33798 0.0
H3719 H 0.65593 0.42544 0.32182 0.0
C3720 C 0.15375 0.93533 0.93448 0.0
C3721 C 0.15791 0.93948 0.93044 0.0
C3722 C 0.148 0.94389 0.92451 0.0
C3723 C 0.15506 0.94374 0.92554 0.0
C3724 C 0.14384 0.93982 0.92865 0.0
C3725 C 0.14669 0.93561 0.9336 0.0
U3726 U 0.16594 0.92099 0.93881 0.0
O3727 O 0.17224 0.9191 0.94779 0.0
O3728 O 0.16432 0.9118 0.94494 0.0
C3729 C 0.16879 0.91366 0.94952 0.0
C3730 C 0.15665 0.93049 0.9394 0.0
C3731 C 0.1664 0.91349 0.95657 0.0
C3732 C 0.16156 0.91911 0.96641 0.0
C3733 C 0.16371 0.91932 0.95966 0.0
C3734 C 0.16461 0.90722 0.96701 0.0
C3735 C 0.16201 0.91306 0.97016 0.0
C3736 C 0.1668 0.90744 0.96027 0.0
C3737 C 0.17761 0.91397 0.92516 0.0
C3738 C 0.1835 0.90319 0.92622 0.0
C3739 C 0.18671 0.91112 0.91739 0.0
C3740 C 0.18174 0.91564 0.91963 0.0
C3741 C 0.18762 0.90483 0.92062 0.0
C3742 C 0.17856 0.90775 0.92849 0.0
C3743 C 0.17234 0.91875 0.92738 0.0
O3744 O 0.15522 0.92408 0.93825 0.0
O3745 O 0.163 0.93149 0.94119 0.0
O3746 O 0.17431 0.92333 0.9318 0.0
O3747 O 0.16643 0.91603 0.92885 0.0
H3748 H 0.16338 0.93937 0.931 0.0
H3749 H 0.15842 0.94688 0.92253 0.0
H3750 H 0.13839 0.93973 0.92795 0.0
H3751 H 0.14338 0.93245 0.93664 0.0
H3752 H 0.1595 0.92367 0.96867 0.0
H3753 H 0.16328 0.92403 0.95685 0.0
H3754 H 0.16506 0.9025 0.96979 0.0
H3755 H 0.16885 0.9029 0.95796 0.0
H3756 H 0.18413 0.89841 0.92885 0.0
H3757 H 0.18974 0.91249 0.91301 0.0
H3758 H 0.18108 0.92043 0.91702 0.0
H3759 H 0.17546 0.9064 0.93282 0.0
C3760 C 0.32049 0.90316 0.18433 0.0
C3761 C 0.32051 0.90573 0.1777 0.0
C3762 C 0.31396 0.89602 0.17382 0.0
C3763 C 0.31727 0.9022 0.1725 0.0
C3764 C 0.31379 0.89355 0.18051 0.0
C3765 C 0.31706 0.8971 0.18573 0.0
U3766 U 0.3324 0.91722 0.18944 0.0
O3767 O 0.33293 0.92368 0.1985 0.0
O3768 O 0.34151 0.91705 0.1959 0.0
C3769 C 0.3388 0.92115 0.20041 0.0
C3770 C 0.32437 0.90661 0.18967 0.0
C3771 C 0.33922 0.91881 0.20747 0.0
C3772 C 0.33423 0.91341 0.21735 0.0
C3773 C 0.3337 0.91561 0.21064 0.0
C3774 C 0.34584 0.91744 0.21776 0.0
C3775 C 0.34031 0.91429 0.22098 0.0
C3776 C 0.34529 0.9197 0.21107 0.0
C3777 C 0.33828 0.92969 0.17571 0.0
C3778 C 0.34909 0.93491 0.17276 0.0
C3779 C 0.33862 0.94109 0.17098 0.0
C3780 C 0.33494 0.93559 0.17354 0.0
C3781 C 0.34574 0.94078 0.17048 0.0
C3782 C 0.34541 0.92943 0.17535 0.0
C3783 C 0.33426 0.9238 0.17803 0.0
O3784 O 0.33099 0.90617 0.18897 0.0
O3785 O 0.3223 0.91277 0.19118 0.0
O3786 O 0.32924 0.92514 0.18222 0.0
O3787 O 0.33766 0.9183 0.17968 0.0
H3788 H 0.32314 0.91042 0.17654 0.0
H3789 H 0.3174 0.90428 0.16742 0.0
H3790 H 0.31133 0.88878 0.18168 0.0
H3791 H 0.31703 0.89503 0.19082 0.0
H3792 H 0.32992 0.91092 0.21968 0.0
H3793 H 0.32899 0.91481 0.20791 0.0
H3794 H 0.35057 0.91824 0.22045 0.0
H3795 H 0.34961 0.92214 0.2087 0.0
H3796 H 0.35454 0.93444 0.17236 0.0
H3797 H 0.33588 0.94556 0.16937 0.0
H3798 H 0.32946 0.93593 0.17374 0.0
H3799 H 0.34815 0.92495 0.17696 0.0
C3800 C 0.18475 0.10444 0.68292 0.0
C3801 C 0.18324 0.10383 0.676 0.0
C3802 C 0.19244 0.11157 0.6732 0.0
C3803 C 0.18702 0.10738 0.67119 0.0
C3804 C 0.194 0.1121 0.68014 0.0
C3805 C 0.19016 0.10858 0.68497 0.0
U3806 U 0.17266 0.09019 0.68731 0.0
O3807 O 0.17218 0.08333 0.69607 0.0
O3808 O 0.16361 0.09009 0.69384 0.0
C3809 C 0.16634 0.0858 0.69815 0.0
C3810 C 0.18073 0.10075 0.68799 0.0
C3811 C 0.16602 0.08785 0.7053 0.0
C3812 C 0.17119 0.09282 0.71532 0.0
C3813 C 0.17161 0.09087 0.70852 0.0
C3814 C 0.15955 0.08888 0.71572 0.0
C3815 C 0.16514 0.09186 0.71899 0.0
C3816 C 0.15999 0.08687 0.70894 0.0
C3817 C 0.1668 0.07823 0.67338 0.0
C3818 C 0.15802 0.06981 0.67536 0.0
C3819 C 0.16408 0.06999 0.66466 0.0
C3820 C 0.1679 0.07552 0.66691 0.0
C3821 C 0.15908 0.06708 0.66885 0.0
C3822 C 0.16187 0.07533 0.67761 0.0
C3823 C 0.17083 0.08407 0.67565 0.0
O3824 O 0.17412 0.10124 0.68727 0.0
O3825 O 0.18278 0.09453 0.68926 0.0
O3826 O 0.17585 0.08261 0.67978 0.0
O3827 O 0.16731 0.0894 0.67756 0.0
H3828 H 0.17912 0.10059 0.67432 0.0
H3829 H 0.18577 0.10677 0.66587 0.0
H3830 H 0.19812 0.11531 0.68184 0.0
H3831 H 0.19141 0.10909 0.69029 0.0
H3832 H 0.17555 0.09518 0.71769 0.0
H3833 H 0.17629 0.09174 0.70578 0.0
H3834 H 0.15484 0.08802 0.71843 0.0
H3835 H 0.15563 0.08457 0.70653 0.0
H3836 H 0.15426 0.06764 0.67872 0.0
H3837 H 0.16496 0.06808 0.65959 0.0
H3838 H 0.17169 0.07771 0.66359 0.0
H3839 H 0.16099 0.07735 0.68265 0.0
O3840 O 0.10482 0.21559 0.35527 0.0
Cd3841 Cd 0.11035 0.22175 0.34606 0.0
O3842 O 0.11484 0.21471 0.35996 0.0
Cd3843 Cd 0.12231 0.21198 0.36772 0.0
O3844 O 0.13066 0.20851 0.37412 0.0
C3845 C 0.13629 0.20715 0.37129 0.0
O3846 O 0.13686 0.20795 0.3647 0.0
C3847 C 0.10851 0.21344 0.36009 0.0
C3848 C 0.10626 0.23526 0.34552 0.0
O3849 O 0.10322 0.2307 0.34202 0.0
O3850 O 0.11124 0.23341 0.34928 0.0
O3851 O 0.03899 0.85271 0.60622 0.0
Cd3852 Cd 0.03375 0.85743 0.59603 0.0
O3853 O 0.04025 0.86302 0.61015 0.0
Cd3854 Cd 0.0431 0.87089 0.61745 0.0
O3855 O 0.04682 0.87937 0.62356 0.0
C3856 C 0.04822 0.88491 0.62057 0.0
O3857 O 0.04729 0.88534 0.61399 0.0
C3858 C 0.04111 0.85666 0.61085 0.0
C3859 C 0.0201 0.85395 0.59494 0.0
O3860 O 0.02474 0.85009 0.59253 0.0
O3861 O 0.02192 0.85946 0.59788 0.0
O3862 O 0.40092 0.78981 0.8541 0.0
Cd3863 Cd 0.39453 0.78393 0.84527 0.0
O3864 O 0.39155 0.78985 0.86003 0.0
Cd3865 Cd 0.38468 0.79287 0.86821 0.0
O3866 O 0.37639 0.7965 0.8746 0.0
C3867 C 0.37058 0.79714 0.87186 0.0
O3868 O 0.36985 0.79552 0.86544 0.0
C3869 C 0.39779 0.79141 0.8595 0.0
C3870 C 0.39799 0.77026 0.84455 0.0
O3871 O 0.40099 0.77467 0.84083 0.0
O3872 O 0.39335 0.77232 0.84861 0.0
O3873 O 0.46642 0.1507 0.1034 0.0
Cd3874 Cd 0.47258 0.14557 0.09396 0.0
O3875 O 0.46512 0.14043 0.1074 0.0
Cd3876 Cd 0.46204 0.13259 0.11463 0.0
O3877 O 0.45844 0.12404 0.12069 0.0
C3878 C 0.45375 0.12488 0.12503 0.0
O3879 O 0.4512 0.13097 0.12592 0.0
C3880 C 0.46406 0.14678 0.10793 0.0
C3881 C 0.48615 0.1495 0.0937 0.0
O3882 O 0.48166 0.15277 0.09032 0.0
O3883 O 0.48421 0.14438 0.09721 0.0
O3884 O 0.10677 0.78771 0.15086 0.0
Cd3885 Cd 0.11263 0.78121 0.15962 0.0
O3886 O 0.11648 0.78817 0.14553 0.0
Cd3887 Cd 0.12385 0.79162 0.13798 0.0
O3888 O 0.13234 0.79532 0.13192 0.0
C3889 C 0.13142 0.7996 0.12719 0.0
O3890 O 0.12523 0.8017 0.12589 0.0
C3891 C 0.11021 0.78968 0.14578 0.0
C3892 C 0.10803 0.76787 0.16018 0.0
O3893 O 0.10542 0.77247 0.16396 0.0
O3894 O 0.11282 0.76959 0.15614 0.0
O3895 O 0.46631 0.85488 0.40152 0.0
Cd3896 Cd 0.47214 0.86014 0.4111 0.0
O3897 O 0.4653 0.86504 0.39715 0.0
Cd3898 Cd 0.46257 0.87262 0.38949 0.0
O3899 O 0.45891 0.88088 0.38308 0.0
C3900 C 0.45767 0.88656 0.38585 0.0
O3901 O 0.45871 0.88724 0.3924 0.0
C3902 C 0.46421 0.85869 0.39676 0.0
C3903 C 0.48566 0.85611 0.41176 0.0
O3904 O 0.48107 0.85294 0.41511 0.0
O3905 O 0.48384 0.86119 0.40813 0.0
O3906 O 0.40071 0.21736 0.65089 0.0
Cd3907 Cd 0.39539 0.22345 0.66026 0.0
O3908 O 0.39047 0.21591 0.64686 0.0
Cd3909 Cd 0.38265 0.21272 0.63964 0.0
O3910 O 0.37409 0.20899 0.63368 0.0
C3911 C 0.37488 0.20413 0.62952 0.0
O3912 O 0.38095 0.20148 0.62876 0.0
C3913 C 0.39683 0.21493 0.64634 0.0
C3914 C 0.39951 0.23694 0.66085 0.0
O3915 O 0.4026 0.23235 0.66427 0.0
O3916 O 0.39447 0.23514 0.65715 0.0
O3917 O 0.04036 0.15177 0.90256 0.0
Cd3918 Cd 0.03477 0.14688 0.91248 0.0
O3919 O 0.04149 0.14159 0.89829 0.0
Cd3920 Cd 0.04542 0.13384 0.89137 0.0
O3921 O 0.04964 0.12514 0.88598 0.0
C3922 C 0.04917 0.1245 0.87958 0.0
O3923 O 0.04607 0.12923 0.87606 0.0
C3924 C 0.04244 0.14795 0.89781 0.0
C3925 C 0.02113 0.1505 0.91312 0.0
O3926 O 0.02572 0.15426 0.91577 0.0
O3927 O 0.02299 0.14502 0.91016 0.0
O3928 O 0.35466 0.10568 0.21699 0.0
Cd3929 Cd 0.34528 0.11119 0.22292 0.0
O3930 O 0.35891 0.11583 0.21558 0.0
Cd3931 Cd 0.36626 0.12357 0.21249 0.0
O3932 O 0.3722 0.1322 0.20889 0.0
C3933 C 0.37688 0.13139 0.20453 0.0
O3934 O 0.3782 0.12524 0.20232 0.0
C3935 C 0.35932 0.10946 0.21463 0.0
C3936 C 0.34436 0.10709 0.2364 0.0
O3937 O 0.34096 0.10407 0.23174 0.0
O3938 O 0.3482 0.11204 0.23466 0.0
O3939 O 0.15014 0.10466 0.46652 0.0
Cd3940 Cd 0.14512 0.09513 0.47264 0.0
O3941 O 0.14009 0.10933 0.46593 0.0
Cd3942 Cd 0.13225 0.11639 0.46247 0.0
O3943 O 0.12337 0.12204 0.45904 0.0
C3944 C 0.12391 0.12674 0.45466 0.0
O3945 O 0.12995 0.12826 0.45228 0.0
C3946 C 0.14639 0.10952 0.46454 0.0
C3947 C 0.14943 0.09441 0.48607 0.0
O3948 O 0.15279 0.09151 0.48132 0.0
O3949 O 0.14405 0.09768 0.48446 0.0
O3950 O 0.15139 0.90192 0.71499 0.0
Cd3951 Cd 0.16065 0.89645 0.72113 0.0
O3952 O 0.14651 0.89197 0.71462 0.0
Cd3953 Cd 0.13926 0.88422 0.71139 0.0
O3954 O 0.13344 0.87537 0.70813 0.0
C3955 C 0.12881 0.87591 0.70368 0.0
O3956 O 0.12746 0.88191 0.70112 0.0
C3957 C 0.14642 0.89825 0.71314 0.0
C3958 C 0.161 0.90009 0.73477 0.0
O3959 O 0.16447 0.90336 0.73035 0.0
O3960 O 0.15734 0.89512 0.73273 0.0
O3961 O 0.35708 0.90125 0.9661 0.0
Cd3962 Cd 0.36275 0.91013 0.97261 0.0
O3963 O 0.3669 0.89612 0.96559 0.0
Cd3964 Cd 0.37443 0.88874 0.96213 0.0
O3965 O 0.38314 0.8829 0.95856 0.0
C3966 C 0.38244 0.87833 0.95407 0.0
O3967 O 0.37635 0.87705 0.95167 0.0
C3968 C 0.36062 0.89625 0.96411 0.0
C3969 C 0.35831 0.91048 0.98601 0.0
O3970 O 0.35553 0.91422 0.98148 0.0
O3971 O 0.36318 0.90658 0.9842 0.0
O3972 O 0.35524 0.89979 0.28865 0.0
Cd3973 Cd 0.34618 0.89402 0.28248 0.0
O3974 O 0.36031 0.88994 0.28914 0.0
Cd3975 Cd 0.36769 0.88237 0.2925 0.0
O3976 O 0.37362 0.87369 0.29597 0.0
C3977 C 0.37838 0.87443 0.30025 0.0
O3978 O 0.37979 0.88055 0.3025 0.0
C3979 C 0.36026 0.89623 0.29056 0.0
C3980 C 0.34509 0.89844 0.26911 0.0
O3981 O 0.34153 0.90115 0.27383 0.0
O3982 O 0.34918 0.89365 0.27073 0.0
O3983 O 0.35313 0.10342 0.53839 0.0
Cd3984 Cd 0.35841 0.09389 0.5325 0.0
O3985 O 0.36308 0.1083 0.53901 0.0
Cd3986 Cd 0.37068 0.11562 0.54248 0.0
O3987 O 0.37933 0.12152 0.54611 0.0
C3988 C 0.37866 0.12567 0.551 0.0
O3989 O 0.37265 0.12647 0.55377 0.0
C3990 C 0.35676 0.10839 0.5403 0.0
C3991 C 0.35454 0.09318 0.51893 0.0
O3992 O 0.35107 0.09023 0.52356 0.0
O3993 O 0.35985 0.0965 0.52073 0.0
O3994 O 0.15135 0.1049 0.78716 0.0
Cd3995 Cd 0.16057 0.11052 0.78109 0.0
O3996 O 0.1464 0.11482 0.78754 0.0
Cd3997 Cd 0.13903 0.12241 0.79087 0.0
O3998 O 0.13304 0.13093 0.79461 0.0
C3999 C 0.12857 0.13006 0.79916 0.0
O4000 O 0.12748 0.12391 0.8015 0.0
C4001 C 0.14635 0.10853 0.78899 0.0
C4002 C 0.16135 0.10642 0.7676 0.0
O4003 O 0.16488 0.10347 0.7722 0.0
O4004 O 0.15745 0.1113 0.76939 0.0
O4005 O 0.14863 0.9015 0.03848 0.0
Cd4006 Cd 0.14328 0.91084 0.03237 0.0
O4007 O 0.13845 0.89727 0.0397 0.0
Cd4008 Cd 0.1307 0.8899 0.04267 0.0
O4009 O 0.12211 0.88386 0.04621 0.0
C4010 C 0.12295 0.87932 0.0507 0.0
O4011 O 0.12908 0.8782 0.05308 0.0
C4012 C 0.1448 0.89686 0.04078 0.0
C4013 C 0.14726 0.91119 0.01883 0.0
O4014 O 0.15041 0.91467 0.02333 0.0
O4015 O 0.14222 0.90755 0.02074 0.0
O4016 O 0.21825 0.35724 0.10548 0.0
Cd4017 Cd 0.22432 0.34843 0.11171 0.0
O4018 O 0.21755 0.3628 0.11506 0.0
Cd4019 Cd 0.2139 0.37061 0.12206 0.0
O4020 O 0.20988 0.3768 0.13032 0.0
C4021 C 0.20849 0.37385 0.13588 0.0
O4022 O 0.20957 0.3673 0.13641 0.0
C4023 C 0.21627 0.36244 0.10874 0.0
C4024 C 0.23769 0.34716 0.10734 0.0
O4025 O 0.23297 0.3435 0.10476 0.0
O4026 O 0.23608 0.35141 0.11198 0.0
O4027 O 0.71541 0.15051 0.90172 0.0
Cd4028 Cd 0.72094 0.16084 0.8977 0.0
O4029 O 0.71445 0.14706 0.89121 0.0
Cd4030 Cd 0.71184 0.14008 0.88297 0.0
O4031 O 0.70861 0.13412 0.87421 0.0
C4032 C 0.70462 0.12911 0.87497 0.0
O4033 O 0.70257 0.12751 0.88111 0.0
C4034 C 0.71338 0.14608 0.8975 0.0
C4035 C 0.73468 0.16114 0.90095 0.0
O4036 O 0.73022 0.16343 0.90508 0.0
O4037 O 0.73264 0.1587 0.89528 0.0
O4038 O 0.10322 0.46628 0.15077 0.0
Cd4039 Cd 0.09348 0.47225 0.14601 0.0
O4040 O 0.10774 0.46577 0.14065 0.0
Cd4041 Cd 0.11479 0.46238 0.13278 0.0
O4042 O 0.12057 0.45878 0.12406 0.0
C4043 C 0.12494 0.4541 0.12472 0.0
O4044 O 0.12603 0.45151 0.13077 0.0
C4045 C 0.10805 0.4644 0.14695 0.0
C4046 C 0.09323 0.48589 0.14967 0.0
O4047 O 0.09051 0.48136 0.15345 0.0
O4048 O 0.0961 0.48397 0.14416 0.0
O4049 O 0.78992 0.85721 0.40056 0.0
Cd4050 Cd 0.78429 0.84718 0.39597 0.0
O4051 O 0.79077 0.86123 0.39025 0.0
Cd4052 Cd 0.79335 0.86858 0.38234 0.0
O4053 O 0.79659 0.87473 0.37372 0.0
C4054 C 0.79846 0.87171 0.36834 0.0
O4055 O 0.79833 0.86505 0.36818 0.0
C4056 C 0.79194 0.86185 0.39657 0.0
C4057 C 0.77071 0.84641 0.39982 0.0
O4058 O 0.77541 0.84388 0.40355 0.0
O4059 O 0.77245 0.84933 0.39428 0.0
O4060 O 0.90206 0.03987 0.14979 0.0
Cd4061 Cd 0.91127 0.0337 0.14428 0.0
O4062 O 0.89683 0.03971 0.14002 0.0
Cd4063 Cd 0.88924 0.04249 0.13242 0.0
O4064 O 0.88312 0.04555 0.12372 0.0
C4065 C 0.87823 0.04969 0.1244 0.0
O4066 O 0.87679 0.05203 0.13047 0.0
C4067 C 0.89693 0.04145 0.14623 0.0
C4068 C 0.91154 0.0201 0.14808 0.0
O4069 O 0.91508 0.02453 0.15126 0.0
O4070 O 0.90788 0.02211 0.1431 0.0
O4071 O 0.28946 0.64917 0.6028 0.0
Cd4072 Cd 0.28353 0.65881 0.60783 0.0
O4073 O 0.28996 0.64485 0.61301 0.0
Cd4074 Cd 0.29232 0.6373 0.6208 0.0
O4075 O 0.29558 0.63113 0.62941 0.0
C4076 C 0.29658 0.63409 0.63505 0.0
O4077 O 0.29553 0.64066 0.63547 0.0
C4078 C 0.29136 0.64443 0.60673 0.0
C4079 C 0.26989 0.65914 0.60417 0.0
O4080 O 0.27434 0.66243 0.60075 0.0
O4081 O 0.2719 0.6557 0.60931 0.0
O4082 O 0.1035 0.53861 0.35514 0.0
Cd4083 Cd 0.09453 0.53226 0.36082 0.0
O4084 O 0.10873 0.53906 0.36491 0.0
Cd4085 Cd 0.11627 0.54246 0.37232 0.0
O4086 O 0.12236 0.54615 0.38081 0.0
C4087 C 0.12681 0.55072 0.37993 0.0
O4088 O 0.12782 0.55313 0.3738 0.0
C4089 C 0.10857 0.54052 0.35863 0.0
C4090 C 0.09418 0.51881 0.35651 0.0
O4091 O 0.09049 0.52334 0.35364 0.0
O4092 O 0.09801 0.52065 0.36143 0.0
O4093 O 0.40227 0.4655 0.85723 0.0
Cd4094 Cd 0.41129 0.4718 0.86291 0.0
O4095 O 0.39692 0.46546 0.86694 0.0
Cd4096 Cd 0.38918 0.46244 0.8743 0.0
O4097 O 0.38275 0.45897 0.88261 0.0
C4098 C 0.37818 0.45454 0.88159 0.0
O4099 O 0.37728 0.45217 0.87543 0.0
C4100 C 0.39711 0.46383 0.8607 0.0
C4101 C 0.41145 0.48532 0.85883 0.0
O4102 O 0.41515 0.48088 0.85585 0.0
O4103 O 0.40769 0.48335 0.86376 0.0
O4104 O 0.89351 0.78301 0.62892 0.0
Cd4105 Cd 0.88513 0.77576 0.63451 0.0
O4106 O 0.89007 0.79192 0.63469 0.0
Cd4107 Cd 0.88052 0.78738 0.63795 0.0
O4108 O 0.87003 0.79008 0.63558 0.0
C4109 C 0.8691 0.79645 0.63526 0.0
O4110 O 0.87417 0.80049 0.63679 0.0
C4111 C 0.89422 0.78921 0.63056 0.0
C4112 C 0.89061 0.76335 0.63857 0.0
O4113 O 0.8876 0.76397 0.63284 0.0
O4114 O 0.89104 0.7686 0.64238 0.0
O4115 O 0.97089 0.14288 0.38155 0.0
Cd4116 Cd 0.97691 0.13467 0.38865 0.0
O4117 O 0.97542 0.13888 0.37218 0.0
Cd4118 Cd 0.97872 0.12946 0.37693 0.0
O4119 O 0.97505 0.11902 0.3772 0.0
C4120 C 0.96901 0.11824 0.3793 0.0
O4121 O 0.96575 0.12354 0.38169 0.0
C4122 C 0.9718 0.14329 0.37517 0.0
C4123 C 0.98998 0.13922 0.39171 0.0
O4124 O 0.98881 0.13573 0.38636 0.0
O4125 O 0.98498 0.14053 0.39565 0.0
O4126 O 0.61246 0.22271 0.13069 0.0
Cd4127 Cd 0.621 0.23048 0.13526 0.0
O4128 O 0.61647 0.21396 0.13634 0.0
Cd4129 Cd 0.62593 0.21898 0.13912 0.0
O4130 O 0.63659 0.21793 0.1363 0.0
C4131 C 0.63793 0.21866 0.13004 0.0
O4132 O 0.63304 0.22057 0.12593 0.0
C4133 C 0.61202 0.21651 0.13242 0.0
C4134 C 0.61546 0.24311 0.13852 0.0
O4135 O 0.61779 0.24189 0.13257 0.0
O4136 O 0.61575 0.23835 0.14294 0.0
O4137 O 0.53576 0.85745 0.87996 0.0
Cd4138 Cd 0.53021 0.86635 0.88661 0.0
O4139 O 0.53155 0.86122 0.87034 0.0
Cd4140 Cd 0.52861 0.87099 0.87462 0.0
O4141 O 0.53206 0.88151 0.87495 0.0
C4142 C 0.53802 0.88247 0.87722 0.0
O4143 O 0.54138 0.87726 0.87968 0.0
C4144 C 0.5349 0.85677 0.8736 0.0
C4145 C 0.51695 0.86265 0.88999 0.0
O4146 O 0.51825 0.8658 0.88445 0.0
O4147 O 0.52192 0.86129 0.89396 0.0
O4148 O 0.89322 0.22113 0.87373 0.0
Cd4149 Cd 0.88455 0.22791 0.868 0.0
O4150 O 0.89017 0.21188 0.8683 0.0
Cd4151 Cd 0.88048 0.21604 0.86492 0.0
O4152 O 0.8698 0.21481 0.86759 0.0
C4153 C 0.86826 0.2161 0.87371 0.0
O4154 O 0.87295 0.21862 0.87773 0.0
C4155 C 0.8942 0.21491 0.87232 0.0
C4156 C 0.88936 0.24074 0.8644 0.0
O4157 O 0.88619 0.2398 0.87 0.0
O4158 O 0.89026 0.23561 0.86051 0.0
O4159 O 0.53307 0.14316 0.62264 0.0
Cd4160 Cd 0.52559 0.13478 0.61734 0.0
O4161 O 0.54194 0.13942 0.61701 0.0
Cd4162 Cd 0.53716 0.12984 0.61425 0.0
O4163 O 0.53843 0.11957 0.6182 0.0
C4164 C 0.53944 0.1194 0.62457 0.0
O4165 O 0.53913 0.12511 0.62799 0.0
C4166 C 0.53929 0.14374 0.621 0.0
C4167 C 0.51291 0.14017 0.61403 0.0
O4168 O 0.51388 0.1371 0.61968 0.0
O4169 O 0.51794 0.14071 0.60995 0.0
O4170 O 0.61307 0.78337 0.37452 0.0
Cd4171 Cd 0.62157 0.77585 0.3695 0.0
O4172 O 0.61683 0.79216 0.36878 0.0
Cd4173 Cd 0.62638 0.78737 0.36593 0.0
O4174 O 0.63706 0.7884 0.36869 0.0
C4175 C 0.63848 0.78744 0.3749 0.0
O4176 O 0.63367 0.78531 0.379 0.0
C4177 C 0.61249 0.78955 0.37278 0.0
C4178 C 0.6161 0.76328 0.36591 0.0
O4179 O 0.61895 0.76417 0.37168 0.0
O4180 O 0.61583 0.76834 0.36183 0.0
O4181 O 0.97324 0.86362 0.12728 0.0
Cd4182 Cd 0.98036 0.87222 0.12184 0.0
O4183 O 0.96489 0.86467 0.11995 0.0
Cd4184 Cd 0.96889 0.87434 0.11635 0.0
O4185 O 0.96762 0.88488 0.11947 0.0
C4186 C 0.96757 0.88575 0.12586 0.0
O4187 O 0.96877 0.8805 0.12979 0.0
C4188 C 0.96753 0.86165 0.12501 0.0
C4189 C 0.99305 0.86695 0.11839 0.0
O4190 O 0.99199 0.86963 0.12422 0.0
O4191 O 0.98811 0.86679 0.11417 0.0
O4192 O 0.63043 0.89296 0.78317 0.0
Cd4193 Cd 0.63473 0.88453 0.77514 0.0
O4194 O 0.63653 0.889 0.79163 0.0
Cd4195 Cd 0.63891 0.87949 0.78651 0.0
O4196 O 0.63521 0.86917 0.7881 0.0
C4197 C 0.62911 0.86899 0.79019 0.0
O4198 O 0.62576 0.87474 0.79071 0.0
C4199 C 0.63247 0.89342 0.78928 0.0
C4200 C 0.63828 0.89041 0.76275 0.0
O4201 O 0.63224 0.88827 0.76385 0.0
O4202 O 0.64266 0.88977 0.76752 0.0
O4203 O 0.86353 0.87833 0.53155 0.0
Cd4204 Cd 0.8724 0.88381 0.52482 0.0
O4205 O 0.86447 0.88542 0.5401 0.0
Cd4206 Cd 0.87428 0.88906 0.53651 0.0
O4207 O 0.88499 0.88662 0.53796 0.0
C4208 C 0.88662 0.88048 0.53687 0.0
O4209 O 0.882 0.87632 0.53446 0.0
C4210 C 0.86143 0.88049 0.53725 0.0
C4211 C 0.86729 0.88788 0.51225 0.0
O4212 O 0.86983 0.88195 0.5131 0.0
O4213 O 0.86721 0.89192 0.51735 0.0
O4214 O 0.87497 0.11129 0.28377 0.0
Cd4215 Cd 0.87044 0.11969 0.27583 0.0
O4216 O 0.86945 0.1156 0.29245 0.0
Cd4217 Cd 0.86665 0.12492 0.28718 0.0
O4218 O 0.86946 0.13561 0.28773 0.0
C4219 C 0.87563 0.13701 0.28649 0.0
O4220 O 0.87966 0.13214 0.28436 0.0
C4221 C 0.8733 0.11104 0.28999 0.0
C4222 C 0.867 0.11392 0.26336 0.0
O4223 O 0.873 0.11618 0.26449 0.0
O4224 O 0.86262 0.1144 0.26814 0.0
O4225 O 0.64315 0.12783 0.03156 0.0
Cd4226 Cd 0.63462 0.122 0.02468 0.0
O4227 O 0.64172 0.12095 0.04022 0.0
Cd4228 Cd 0.63195 0.11746 0.03637 0.0
O4229 O 0.62155 0.12094 0.03794 0.0
C4230 C 0.62108 0.12733 0.03866 0.0
O4231 O 0.62659 0.13103 0.03796 0.0
C4232 C 0.64494 0.12578 0.03741 0.0
C4233 C 0.63984 0.11807 0.01211 0.0
O4234 O 0.63672 0.12373 0.01283 0.0
O4235 O 0.64048 0.11426 0.01734 0.0
O4236 O 0.62959 0.11194 0.7239 0.0
Cd4237 Cd 0.63425 0.12055 0.73153 0.0
O4238 O 0.6343 0.11659 0.71493 0.0
Cd4239 Cd 0.63709 0.12612 0.71983 0.0
O4240 O 0.63489 0.13671 0.71742 0.0
C4241 C 0.63596 0.13829 0.71126 0.0
O4242 O 0.63872 0.13374 0.70725 0.0
C4243 C 0.63088 0.11182 0.71759 0.0
C4244 C 0.63807 0.11503 0.744 0.0
O4245 O 0.63203 0.11722 0.743 0.0
O4246 O 0.64232 0.11546 0.73911 0.0
O4247 O 0.64246 0.87571 0.47455 0.0
Cd4248 Cd 0.63382 0.8818 0.48106 0.0
O4249 O 0.64158 0.88273 0.46593 0.0
Cd4250 Cd 0.63181 0.88669 0.46932 0.0
O4251 O 0.62119 0.88522 0.4665 0.0
C4252 C 0.61998 0.88586 0.4602 0.0
O4253 O 0.62493 0.88783 0.45619 0.0
C4254 C 0.64454 0.87778 0.4688 0.0
C4255 C 0.63885 0.8862 0.49354 0.0
O4256 O 0.63572 0.88052 0.493 0.0
O4257 O 0.63959 0.8898 0.48819 0.0
O4258 O 0.87703 0.89424 0.22266 0.0
Cd4259 Cd 0.87297 0.88576 0.23077 0.0
O4260 O 0.87261 0.88884 0.21396 0.0
Cd4261 Cd 0.87045 0.8795 0.21949 0.0
O4262 O 0.87356 0.86889 0.21893 0.0
C4263 C 0.87049 0.86496 0.21485 0.0
O4264 O 0.86511 0.86722 0.21163 0.0
C4265 C 0.87573 0.89395 0.21635 0.0
C4266 C 0.86881 0.89163 0.24296 0.0
O4267 O 0.87498 0.8898 0.24204 0.0
O4268 O 0.86459 0.89069 0.23811 0.0
O4269 O 0.86136 0.12453 0.97185 0.0
Cd4270 Cd 0.8698 0.11977 0.97961 0.0
O4271 O 0.86493 0.1183 0.96332 0.0
Cd4272 Cd 0.87449 0.11573 0.96827 0.0
O4273 O 0.88463 0.11992 0.96674 0.0
C4274 C 0.88442 0.12576 0.964 0.0
O4275 O 0.87845 0.12849 0.96281 0.0
C4276 C 0.8607 0.12252 0.96576 0.0
C4277 C 0.86427 0.1164 0.9922 0.0
O4278 O 0.86693 0.12225 0.99116 0.0
O4279 O 0.8642 0.11216 0.98728 0.0
O4280 O 0.78317 0.63025 0.89289 0.0
Cd4281 Cd 0.77532 0.63426 0.88414 0.0
O4282 O 0.79162 0.6365 0.88914 0.0
Cd4283 Cd 0.78654 0.63879 0.87958 0.0
O4284 O 0.78723 0.63491 0.86924 0.0
C4285 C 0.78805 0.62852 0.86891 0.0
O4286 O 0.78789 0.625 0.87457 0.0
C4287 C 0.78922 0.63241 0.89351 0.0
C4288 C 0.76276 0.63792 0.88956 0.0
O4289 O 0.76395 0.63182 0.88764 0.0
O4290 O 0.76752 0.6423 0.88892 0.0
O4291 O 0.28091 0.87769 0.11273 0.0
Cd4292 Cd 0.27378 0.87251 0.12147 0.0
O4293 O 0.28882 0.86986 0.11349 0.0
Cd4294 Cd 0.28507 0.86653 0.12335 0.0
O4295 O 0.28825 0.86946 0.13356 0.0
C4296 C 0.2943 0.87169 0.13364 0.0
O4297 O 0.29777 0.87168 0.12795 0.0
C4298 C 0.28641 0.87509 0.11057 0.0
C4299 C 0.26118 0.8687 0.11622 0.0
O4300 O 0.26214 0.87464 0.1187 0.0
O4301 O 0.26617 0.86454 0.11626 0.0
O4302 O 0.8793 0.53561 0.86486 0.0
Cd4303 Cd 0.88509 0.52928 0.87382 0.0
O4304 O 0.88638 0.54422 0.86514 0.0
Cd4305 Cd 0.89033 0.54098 0.87495 0.0
O4306 O 0.88779 0.54234 0.88563 0.0
C4307 C 0.88167 0.54106 0.88721 0.0
O4308 O 0.87761 0.53857 0.88254 0.0
C4309 C 0.88135 0.54122 0.86243 0.0
C4310 C 0.88924 0.51662 0.86906 0.0
O4311 O 0.88336 0.51745 0.87172 0.0
O4312 O 0.89319 0.52177 0.86871 0.0
O4313 O 0.22138 0.13153 0.60955 0.0
Cd4314 Cd 0.22713 0.13923 0.61742 0.0
O4315 O 0.22591 0.12236 0.614 0.0
Cd4316 Cd 0.22923 0.1276 0.62316 0.0
O4317 O 0.22555 0.12795 0.63359 0.0
C4318 C 0.21929 0.12937 0.63423 0.0
O4319 O 0.21584 0.13108 0.62879 0.0
C4320 C 0.2223 0.12515 0.60945 0.0
C4321 C 0.24014 0.14255 0.61287 0.0
O4322 O 0.23919 0.13758 0.61695 0.0
O4323 O 0.23494 0.14597 0.61096 0.0
O4324 O 0.12342 0.97258 0.86053 0.0
Cd4325 Cd 0.11793 0.98002 0.86881 0.0
O4326 O 0.11836 0.96356 0.86471 0.0
Cd4327 Cd 0.11549 0.96848 0.87419 0.0
O4328 O 0.11942 0.96735 0.88448 0.0
C4329 C 0.12576 0.96621 0.88466 0.0
O4330 O 0.12917 0.96631 0.87894 0.0
C4331 C 0.1221 0.96627 0.86021 0.0
C4332 C 0.11482 0.99274 0.86342 0.0
O4333 O 0.12038 0.99173 0.86663 0.0
O4334 O 0.11073 0.98773 0.86274 0.0
O4335 O 0.72457 0.37716 0.39286 0.0
Cd4336 Cd 0.73092 0.37085 0.38426 0.0
O4337 O 0.71615 0.36986 0.39278 0.0
Cd4338 Cd 0.71917 0.36606 0.38284 0.0
O4339 O 0.7164 0.36969 0.37274 0.0
C4340 C 0.71333 0.37536 0.37301 0.0
O4341 O 0.71244 0.3782 0.37897 0.0
C4342 C 0.71902 0.37502 0.39536 0.0
C4343 C 0.74354 0.36678 0.38925 0.0
O4344 O 0.74288 0.37231 0.38589 0.0
O4345 O 0.73823 0.36315 0.39021 0.0
O4346 O 0.87431 0.4728 0.64645 0.0
Cd4347 Cd 0.88018 0.47907 0.63749 0.0
O4348 O 0.88143 0.46425 0.64572 0.0
Cd4349 Cd 0.88515 0.46735 0.63577 0.0
O4350 O 0.88376 0.46471 0.6251 0.0
C4351 C 0.88442 0.45845 0.62372 0.0
O4352 O 0.88634 0.4543 0.62858 0.0
C4353 C 0.8765 0.46716 0.64869 0.0
C4354 C 0.88468 0.4917 0.64207 0.0
O4355 O 0.87896 0.49107 0.63905 0.0
O4356 O 0.88829 0.48636 0.64292 0.0
O4357 O 0.62856 0.53 0.14172 0.0
Cd4358 Cd 0.62316 0.5232 0.13286 0.0
O4359 O 0.62214 0.53892 0.1398 0.0
Cd4360 Cd 0.61887 0.5354 0.12983 0.0
O4361 O 0.62071 0.53874 0.11942 0.0
C4362 C 0.62025 0.54511 0.11856 0.0
O4363 O 0.61829 0.54888 0.12369 0.0
C4364 C 0.62663 0.53594 0.14335 0.0
C4365 C 0.61925 0.51055 0.13792 0.0
O4366 O 0.62516 0.51148 0.13538 0.0
O4367 O 0.61515 0.51559 0.13802 0.0
O4368 O 0.61359 0.72096 0.87343 0.0
Cd4369 Cd 0.62286 0.72553 0.86659 0.0
O4370 O 0.61779 0.7247 0.88306 0.0
Cd4371 Cd 0.62773 0.72683 0.87868 0.0
O4372 O 0.63791 0.7225 0.87836 0.0
C4373 C 0.63834 0.71649 0.87607 0.0
O4374 O 0.63286 0.71363 0.87356 0.0
C4375 C 0.61302 0.72184 0.87979 0.0
C4376 C 0.61891 0.738 0.86122 0.0
O4377 O 0.61762 0.73245 0.85809 0.0
O4378 O 0.62218 0.73766 0.86683 0.0
O4379 O 0.54037 0.35411 0.1028 0.0
Cd4380 Cd 0.53496 0.35832 0.09249 0.0
O4381 O 0.54156 0.36455 0.10643 0.0
Cd4382 Cd 0.54427 0.37261 0.11358 0.0
O4383 O 0.54763 0.38128 0.11961 0.0
C4384 C 0.55179 0.38047 0.12447 0.0
O4385 O 0.55393 0.37432 0.12589 0.0
C4386 C 0.54244 0.35821 0.10732 0.0
C4387 C 0.52132 0.35465 0.09203 0.0
O4388 O 0.52592 0.35073 0.08963 0.0
O4389 O 0.52318 0.36032 0.09462 0.0
O4390 O 0.90106 0.28792 0.35427 0.0
Cd4391 Cd 0.89598 0.28162 0.3449 0.0
O4392 O 0.89073 0.28914 0.35814 0.0
Cd4393 Cd 0.88281 0.29222 0.36528 0.0
O4394 O 0.87426 0.29586 0.37129 0.0
C4395 C 0.87516 0.30032 0.37585 0.0
O4396 O 0.88132 0.30261 0.37697 0.0
C4397 C 0.89706 0.29029 0.35873 0.0
C4398 C 0.9005 0.26826 0.34434 0.0
O4399 O 0.90346 0.27293 0.34093 0.0
O4400 O 0.89542 0.26991 0.34804 0.0
O4401 O 0.96826 0.64963 0.60716 0.0
Cd4402 Cd 0.97429 0.64385 0.59803 0.0
O4403 O 0.96702 0.63961 0.61175 0.0
Cd4404 Cd 0.96399 0.63211 0.61936 0.0
O4405 O 0.96016 0.62369 0.62546 0.0
C4406 C 0.95854 0.61825 0.62241 0.0
O4407 O 0.9593 0.61792 0.6158 0.0
C4408 C 0.96595 0.64597 0.61193 0.0
C4409 C 0.98755 0.64851 0.59664 0.0
O4410 O 0.98271 0.65111 0.59316 0.0
O4411 O 0.98611 0.64371 0.60078 0.0
O4412 O 0.60306 0.28989 0.65278 0.0
Cd4413 Cd 0.60819 0.28368 0.66218 0.0
O4414 O 0.61306 0.28989 0.64796 0.0
Cd4415 Cd 0.62082 0.29289 0.64062 0.0
O4416 O 0.62941 0.29633 0.63453 0.0
C4417 C 0.6286 0.30077 0.62993 0.0
O4418 O 0.62248 0.30319 0.6288 0.0
C4419 C 0.60682 0.29154 0.64781 0.0
C4420 C 0.60388 0.27023 0.66253 0.0
O4421 O 0.60083 0.2748 0.66601 0.0
O4422 O 0.60897 0.27203 0.65891 0.0
O4423 O 0.96482 0.35495 0.89608 0.0
Cd4424 Cd 0.97127 0.3607 0.90497 0.0
O4425 O 0.96383 0.36491 0.89135 0.0
Cd4426 Cd 0.96 0.37274 0.88447 0.0
O4427 O 0.95668 0.38197 0.87934 0.0
C4428 C 0.95257 0.38179 0.87439 0.0
O4429 O 0.95032 0.3759 0.87224 0.0
C4430 C 0.96254 0.35859 0.89128 0.0
C4431 C 0.98473 0.35648 0.90575 0.0
O4432 O 0.98013 0.35365 0.90936 0.0
O4433 O 0.98295 0.36127 0.90173 0.0
O4434 O 0.90141 0.7153 0.15166 0.0
Cd4435 Cd 0.8958 0.72174 0.16062 0.0
O4436 O 0.89158 0.71499 0.14653 0.0
Cd4437 Cd 0.88401 0.71174 0.13909 0.0
O4438 O 0.8753 0.7083 0.13319 0.0
C4439 C 0.87595 0.70367 0.12875 0.0
O4440 O 0.88198 0.70105 0.12766 0.0
C4441 C 0.89785 0.71343 0.14663 0.0
C4442 C 0.9 0.73522 0.16077 0.0
O4443 O 0.90294 0.73076 0.16448 0.0
O4444 O 0.89507 0.73329 0.15699 0.0
O4445 O 0.5396 0.6516 0.39899 0.0
Cd4446 Cd 0.5343 0.64708 0.40923 0.0
O4447 O 0.54038 0.64129 0.39495 0.0
Cd4448 Cd 0.54279 0.63339 0.38752 0.0
O4449 O 0.54616 0.62487 0.38129 0.0
C4450 C 0.54765 0.61933 0.38423 0.0
O4451 O 0.54702 0.61893 0.39085 0.0
C4452 C 0.54148 0.64761 0.39429 0.0
C4453 C 0.52067 0.65069 0.41013 0.0
O4454 O 0.52533 0.65456 0.41251 0.0
O4455 O 0.52247 0.64511 0.40732 0.0
O4456 O 0.85459 0.60408 0.71527 0.0
Cd4457 Cd 0.84497 0.60932 0.72105 0.0
O4458 O 0.85874 0.61431 0.71421 0.0
Cd4459 Cd 0.86609 0.62218 0.71151 0.0
O4460 O 0.87202 0.63099 0.70838 0.0
C4461 C 0.87662 0.63043 0.70391 0.0
O4462 O 0.87786 0.62443 0.70128 0.0
C4463 C 0.85926 0.60797 0.71314 0.0
C4464 C 0.84431 0.60557 0.73464 0.0
O4465 O 0.84104 0.60226 0.7301 0.0
O4466 O 0.84789 0.61066 0.73275 0.0
O4467 O 0.65125 0.60831 0.96447 0.0
Cd4468 Cd 0.64715 0.59812 0.97023 0.0
O4469 O 0.64068 0.61138 0.96303 0.0
Cd4470 Cd 0.63219 0.61783 0.95991 0.0
O4471 O 0.62289 0.62297 0.95677 0.0
C4472 C 0.62308 0.62789 0.95262 0.0
O4473 O 0.62898 0.62995 0.95029 0.0
C4474 C 0.64697 0.61251 0.9621 0.0
C4475 C 0.65086 0.59751 0.98386 0.0
O4476 O 0.65474 0.59512 0.97922 0.0
O4477 O 0.64524 0.60024 0.98204 0.0
O4478 O 0.65234 0.3984 0.21634 0.0
Cd4479 Cd 0.66124 0.39251 0.22262 0.0
O4480 O 0.64688 0.38875 0.21617 0.0
Cd4481 Cd 0.63916 0.38142 0.21304 0.0
O4482 O 0.63296 0.37291 0.2096 0.0
C4483 C 0.62826 0.37379 0.20528 0.0
O4484 O 0.62706 0.37993 0.203 0.0
C4485 C 0.64716 0.395 0.21458 0.0
C4486 C 0.66167 0.39655 0.23614 0.0
O4487 O 0.66539 0.39946 0.23167 0.0
O4488 O 0.65776 0.39173 0.23421 0.0
O4489 O 0.8551 0.40106 0.46721 0.0
Cd4490 Cd 0.86031 0.4108 0.47283 0.0
O4491 O 0.86523 0.39684 0.46552 0.0
Cd4492 Cd 0.87286 0.39008 0.46112 0.0
O4493 O 0.88157 0.38495 0.45657 0.0
C4494 C 0.88272 0.37868 0.4575 0.0
O4495 O 0.87852 0.37512 0.46126 0.0
C4496 C 0.85883 0.39637 0.46483 0.0
C4497 C 0.85635 0.41192 0.48634 0.0
O4498 O 0.85288 0.4147 0.4816 0.0
O4499 O 0.86168 0.40859 0.48468 0.0
O4500 O 0.87226 0.39266 0.78488 0.0
Cd4501 Cd 0.86527 0.38327 0.7808 0.0
O4502 O 0.88159 0.38891 0.78005 0.0
Cd4503 Cd 0.87724 0.37891 0.77817 0.0
O4504 O 0.87698 0.36883 0.78272 0.0
C4505 C 0.87537 0.36868 0.78895 0.0
O4506 O 0.87351 0.37436 0.7919 0.0
C4507 C 0.87848 0.39348 0.78337 0.0
C4508 C 0.85967 0.38676 0.7683 0.0
O4509 O 0.85666 0.38828 0.77385 0.0
O4510 O 0.86528 0.38348 0.76865 0.0
O4511 O 0.85575 0.60214 0.04005 0.0
Cd4512 Cd 0.86043 0.59246 0.03393 0.0
O4513 O 0.86574 0.60698 0.04008 0.0
Cd4514 Cd 0.87347 0.61437 0.04308 0.0
O4515 O 0.88206 0.6205 0.04648 0.0
C4516 C 0.88125 0.62513 0.05088 0.0
O4517 O 0.87513 0.62628 0.05328 0.0
C4518 C 0.85949 0.60712 0.0417 0.0
C4519 C 0.8567 0.59272 0.02032 0.0
O4520 O 0.85292 0.58986 0.02477 0.0
O4521 O 0.86226 0.59544 0.02231 0.0
O4522 O 0.65077 0.60435 0.28915 0.0
Cd4523 Cd 0.66108 0.60848 0.28365 0.0
O4524 O 0.64729 0.61485 0.29001 0.0
Cd4525 Cd 0.64029 0.62309 0.29255 0.0
O4526 O 0.63436 0.63187 0.29575 0.0
C4527 C 0.62932 0.63113 0.29969 0.0
O4528 O 0.62765 0.625 0.3017 0.0
C4529 C 0.64633 0.60857 0.29113 0.0
C4530 C 0.66174 0.60472 0.27006 0.0
O4531 O 0.66409 0.60085 0.27472 0.0
O4532 O 0.65907 0.61037 0.27183 0.0
O4533 O 0.65261 0.40208 0.53937 0.0
Cd4534 Cd 0.64749 0.41195 0.53392 0.0
O4535 O 0.64245 0.39779 0.54067 0.0
Cd4536 Cd 0.63473 0.39091 0.54471 0.0
O4537 O 0.62592 0.38575 0.54903 0.0
C4538 C 0.62503 0.37939 0.54848 0.0
O4539 O 0.62956 0.37573 0.54524 0.0
C4540 C 0.64883 0.39731 0.54151 0.0
C4541 C 0.6512 0.41304 0.52034 0.0
O4542 O 0.65482 0.41573 0.52502 0.0
O4543 O 0.64582 0.40983 0.52208 0.0
O4544 O 0.71543 0.8557 0.60604 0.0
Cd4545 Cd 0.72135 0.84627 0.61147 0.0
O4546 O 0.71466 0.86031 0.6161 0.0
Cd4547 Cd 0.71212 0.86804 0.62367 0.0
O4548 O 0.70877 0.87433 0.63215 0.0
C4549 C 0.7074 0.87141 0.63773 0.0
O4550 O 0.70812 0.86479 0.63816 0.0
C4551 C 0.71341 0.86055 0.60977 0.0
C4552 C 0.73472 0.84525 0.60704 0.0
O4553 O 0.72998 0.84186 0.60416 0.0
O4554 O 0.73313 0.84911 0.61203 0.0
O4555 O 0.21587 0.65339 0.39965 0.0
Cd4556 Cd 0.22231 0.66252 0.39431 0.0
O4557 O 0.21558 0.64837 0.38975 0.0
Cd4558 Cd 0.21227 0.64093 0.38221 0.0
O4559 O 0.20854 0.63477 0.3738 0.0
C4560 C 0.20381 0.63049 0.37471 0.0
O4561 O 0.20128 0.62972 0.38082 0.0
C4562 C 0.21404 0.64839 0.39602 0.0
C4563 C 0.23558 0.66296 0.39912 0.0
O4564 O 0.23093 0.66661 0.40183 0.0
O4565 O 0.23395 0.65913 0.39413 0.0
O4566 O 0.60468 0.96619 0.6519 0.0
Cd4567 Cd 0.59438 0.97161 0.64768 0.0
O4568 O 0.60825 0.96508 0.64144 0.0
Cd4569 Cd 0.61531 0.96238 0.63331 0.0
O4570 O 0.6212 0.95911 0.62453 0.0
C4571 C 0.62617 0.95507 0.62524 0.0
O4572 O 0.6278 0.95298 0.63136 0.0
C4573 C 0.60917 0.96412 0.64776 0.0
C4574 C 0.59384 0.9853 0.65113 0.0
O4575 O 0.5915 0.98074 0.65514 0.0
O4576 O 0.59643 0.98337 0.64549 0.0
O4577 O 0.28859 0.35211 0.89918 0.0
Cd4578 Cd 0.28279 0.34231 0.89434 0.0
O4579 O 0.28869 0.35697 0.8892 0.0
Cd4580 Cd 0.29169 0.36443 0.88155 0.0
O4581 O 0.29518 0.3707 0.87311 0.0
C4582 C 0.29954 0.37535 0.87406 0.0
O4583 O 0.30183 0.37643 0.88023 0.0
C4584 C 0.2902 0.35713 0.89547 0.0
C4585 C 0.2692 0.34186 0.89819 0.0
O4586 O 0.27382 0.33912 0.90186 0.0
O4587 O 0.27102 0.3448 0.89269 0.0
O4588 O 0.40021 0.54028 0.65161 0.0
Cd4589 Cd 0.40993 0.53477 0.64626 0.0
O4590 O 0.39503 0.54043 0.64179 0.0
Cd4591 Cd 0.38733 0.54348 0.63439 0.0
O4592 O 0.38112 0.54698 0.6259 0.0
C4593 C 0.38409 0.54824 0.62031 0.0
O4594 O 0.39069 0.54734 0.6199 0.0
C4595 C 0.39505 0.54186 0.64808 0.0
C4596 C 0.41077 0.52105 0.64954 0.0
O4597 O 0.41354 0.52557 0.6533 0.0
O4598 O 0.40758 0.52303 0.64423 0.0
O4599 O 0.78914 0.14918 0.10594 0.0
Cd4600 Cd 0.78369 0.15917 0.11081 0.0
O4601 O 0.79014 0.14489 0.11614 0.0
Cd4602 Cd 0.79279 0.13729 0.12381 0.0
O4603 O 0.79638 0.13091 0.13212 0.0
C4604 C 0.79793 0.13374 0.1377 0.0
O4605 O 0.79723 0.14035 0.13826 0.0
C4606 C 0.79115 0.14441 0.10978 0.0
C4607 C 0.77011 0.16003 0.10703 0.0
O4608 O 0.77479 0.16263 0.10334 0.0
O4609 O 0.77186 0.15704 0.11253 0.0
O4610 O 0.60537 0.03751 0.85421 0.0
Cd4611 Cd 0.59552 0.03205 0.85939 0.0
O4612 O 0.61034 0.03787 0.86414 0.0
Cd4613 Cd 0.61791 0.04114 0.87158 0.0
O4614 O 0.62416 0.04504 0.87986 0.0
C4615 C 0.62126 0.04637 0.88546 0.0
O4616 O 0.61471 0.04529 0.88604 0.0
C4617 C 0.61044 0.03917 0.85782 0.0
C4618 C 0.59458 0.01839 0.85593 0.0
O4619 O 0.59189 0.02298 0.85219 0.0
O4620 O 0.59773 0.02027 0.8613 0.0
O4621 O 0.89873 0.96611 0.35411 0.0
Cd4622 Cd 0.90919 0.97128 0.35827 0.0
O4623 O 0.89508 0.96524 0.36456 0.0
Cd4624 Cd 0.8879 0.96277 0.37267 0.0
O4625 O 0.8819 0.95951 0.3814 0.0
C4626 C 0.885 0.95797 0.38684 0.0
O4627 O 0.89164 0.95848 0.38701 0.0
C4628 C 0.89417 0.96422 0.35826 0.0
C4629 C 0.91017 0.98491 0.35472 0.0
O4630 O 0.91235 0.98026 0.35074 0.0
O4631 O 0.90753 0.98311 0.36037 0.0
O4632 O 0.39172 0.2818 0.1274 0.0
Cd4633 Cd 0.38294 0.27481 0.13271 0.0
O4634 O 0.3903 0.29034 0.13442 0.0
Cd4635 Cd 0.38057 0.28638 0.13792 0.0
O4636 O 0.36982 0.28738 0.13544 0.0
C4637 C 0.36818 0.28601 0.12936 0.0
O4638 O 0.37284 0.28358 0.12526 0.0
C4639 C 0.39355 0.28759 0.12958 0.0
C4640 C 0.38803 0.26214 0.1365 0.0
O4641 O 0.3855 0.26312 0.13059 0.0
O4642 O 0.38812 0.26715 0.14064 0.0
O4643 O 0.47041 0.64088 0.87859 0.0
Cd4644 Cd 0.47693 0.63172 0.88386 0.0
O4645 O 0.4623 0.64077 0.88624 0.0
Cd4646 Cd 0.46568 0.63088 0.88986 0.0
O4647 O 0.46438 0.62045 0.88639 0.0
C4648 C 0.46405 0.61991 0.87997 0.0
O4649 O 0.46494 0.62537 0.87626 0.0
C4650 C 0.465 0.64343 0.88103 0.0
C4651 C 0.48947 0.63652 0.88832 0.0
O4652 O 0.48871 0.63419 0.8823 0.0
O4653 O 0.4843 0.63651 0.89227 0.0
O4654 O 0.11135 0.72227 0.63075 0.0
Cd4655 Cd 0.11898 0.72743 0.63907 0.0
O4656 O 0.11829 0.72412 0.62221 0.0
Cd4657 Cd 0.12711 0.72679 0.62834 0.0
O4658 O 0.13737 0.72261 0.62878 0.0
C4659 C 0.13773 0.7163 0.63006 0.0
O4660 O 0.13212 0.71305 0.63163 0.0
C4661 C 0.1126 0.72205 0.62443 0.0
C4662 C 0.11426 0.74017 0.6431 0.0
O4663 O 0.1185 0.73956 0.63821 0.0
O4664 O 0.11228 0.73475 0.6461 0.0
O4665 O 0.0327 0.36211 0.38051 0.0
Cd4666 Cd 0.02499 0.37074 0.38501 0.0
O4667 O 0.04164 0.36662 0.38545 0.0
Cd4668 Cd 0.03659 0.3761 0.38807 0.0
O4669 O 0.03756 0.38669 0.38499 0.0
C4670 C 0.03662 0.38792 0.37873 0.0
O4671 O 0.03453 0.38298 0.37478 0.0
C4672 C 0.03899 0.36191 0.38193 0.0
C4673 C 0.01232 0.3653 0.38828 0.0
O4674 O 0.01356 0.36758 0.38232 0.0
O4675 O 0.01707 0.36559 0.39271 0.0
O4676 O 0.39372 0.72316 0.3759 0.0
Cd4677 Cd 0.38508 0.73076 0.37122 0.0
O4678 O 0.38926 0.7142 0.37096 0.0
Cd4679 Cd 0.37975 0.71909 0.36809 0.0
O4680 O 0.36907 0.71695 0.3701 0.0
C4681 C 0.36719 0.71096 0.36863 0.0
O4682 O 0.37153 0.70693 0.36557 0.0
C4683 C 0.39394 0.71687 0.37451 0.0
C4684 C 0.39053 0.74332 0.36759 0.0
O4685 O 0.38826 0.74224 0.37359 0.0
O4686 O 0.39022 0.73845 0.36329 0.0
O4687 O 0.03504 0.64474 0.12107 0.0
Cd4688 Cd 0.02885 0.6367 0.11391 0.0
O4689 O 0.03118 0.64001 0.13041 0.0
Cd4690 Cd 0.02762 0.63074 0.12553 0.0
O4691 O 0.03011 0.61999 0.1265 0.0
C4692 C 0.02933 0.61748 0.13238 0.0
O4693 O 0.02655 0.62127 0.13711 0.0
C4694 C 0.0345 0.64471 0.1275 0.0
C4695 C 0.01564 0.64117 0.11134 0.0
O4696 O 0.01701 0.63756 0.11657 0.0
O4697 O 0.02052 0.64265 0.1073 0.0
O4698 O 0.11219 0.28248 0.87632 0.0
Cd4699 Cd 0.12078 0.27565 0.8705 0.0
O4700 O 0.11303 0.29087 0.86902 0.0
Cd4701 Cd 0.12278 0.28712 0.86537 0.0
O4702 O 0.13316 0.28854 0.86899 0.0
C4703 C 0.13349 0.28938 0.87537 0.0
O4704 O 0.12789 0.28889 0.87894 0.0
C4705 C 0.11011 0.28817 0.8741 0.0
C4706 C 0.11573 0.263 0.86659 0.0
O4707 O 0.11885 0.26376 0.87224 0.0
O4708 O 0.115 0.26822 0.86278 0.0
O4709 O 0.47358 0.36317 0.62558 0.0
Cd4710 Cd 0.48004 0.37146 0.61896 0.0
O4711 O 0.46506 0.36326 0.61838 0.0
Cd4712 Cd 0.46827 0.37301 0.61423 0.0
O4713 O 0.46551 0.38322 0.61755 0.0
C4714 C 0.46214 0.38306 0.62304 0.0
O4715 O 0.46099 0.37714 0.62588 0.0
C4716 C 0.46794 0.36075 0.62358 0.0
C4717 C 0.49267 0.36634 0.61512 0.0
O4718 O 0.492 0.36989 0.62052 0.0
O4719 O 0.48737 0.36522 0.61152 0.0
O4720 O 0.13125 0.39288 0.28281 0.0
Cd4721 Cd 0.13568 0.38451 0.27479 0.0
O4722 O 0.13633 0.38816 0.29155 0.0
Cd4723 Cd 0.13867 0.37876 0.28621 0.0
O4724 O 0.13458 0.36851 0.2872 0.0
C4725 C 0.12821 0.36837 0.28818 0.0
O4726 O 0.12483 0.37412 0.28798 0.0
C4727 C 0.13277 0.39293 0.28908 0.0
C4728 C 0.1391 0.39039 0.26236 0.0
O4729 O 0.1331 0.38816 0.26349 0.0
O4730 O 0.1435 0.38983 0.26712 0.0
O4731 O 0.36099 0.38001 0.03194 0.0
Cd4732 Cd 0.36885 0.3856 0.02411 0.0
O4733 O 0.36729 0.38269 0.04075 0.0
Cd4734 Cd 0.37619 0.38643 0.03534 0.0
O4735 O 0.38696 0.38493 0.0375 0.0
C4736 C 0.38879 0.38667 0.04343 0.0
O4737 O 0.38436 0.38973 0.04736 0.0
C4738 C 0.36194 0.38005 0.03832 0.0
C4739 C 0.36277 0.38897 0.01176 0.0
O4740 O 0.36553 0.38316 0.01268 0.0
O4741 O 0.36285 0.3932 0.01669 0.0
O4742 O 0.37661 0.61271 0.7817 0.0
Cd4743 Cd 0.37095 0.62144 0.77492 0.0
O4744 O 0.36937 0.61365 0.79013 0.0
Cd4745 Cd 0.36589 0.6235 0.78648 0.0
O4746 O 0.36944 0.63384 0.78827 0.0
C4747 C 0.37566 0.63405 0.78998 0.0
O4748 O 0.37911 0.62835 0.79011 0.0
C4749 C 0.37437 0.61064 0.78738 0.0
C4750 C 0.36686 0.61631 0.76238 0.0
O4751 O 0.37261 0.61927 0.76307 0.0
O4752 O 0.36304 0.61579 0.7676 0.0
O4753 O 0.14319 0.62354 0.53246 0.0
Cd4754 Cd 0.13469 0.61964 0.52428 0.0
O4755 O 0.1388 0.61758 0.54081 0.0
Cd4756 Cd 0.12938 0.61555 0.53538 0.0
O4757 O 0.11921 0.61988 0.53604 0.0
C4758 C 0.11919 0.62625 0.53705 0.0
O4759 O 0.12503 0.62948 0.53707 0.0
C4760 C 0.14343 0.62148 0.53857 0.0
C4761 C 0.14035 0.61653 0.51167 0.0
O4762 O 0.13829 0.62255 0.51305 0.0
O4763 O 0.13975 0.61198 0.51627 0.0
O4764 O 0.13125 0.61106 0.22117 0.0
Cd4765 Cd 0.13718 0.6191 0.22855 0.0
O4766 O 0.13591 0.61549 0.21205 0.0
Cd4767 Cd 0.13946 0.62469 0.21704 0.0
O4768 O 0.13679 0.63541 0.21628 0.0
C4769 C 0.1307 0.63693 0.21777 0.0
O4770 O 0.12673 0.63219 0.22025 0.0
C4771 C 0.13224 0.61095 0.21479 0.0
C4772 C 0.14015 0.61373 0.24132 0.0
O4773 O 0.13471 0.61714 0.2403 0.0
O4774 O 0.14418 0.61282 0.2363 0.0
O4775 O 0.14282 0.38027 0.97142 0.0
Cd4776 Cd 0.13441 0.38591 0.9786 0.0
O4777 O 0.13875 0.38509 0.96222 0.0
Cd4778 Cd 0.12925 0.38834 0.96687 0.0
O4779 O 0.11852 0.3858 0.96578 0.0
C4780 C 0.11688 0.3797 0.96704 0.0
O4781 O 0.12152 0.37558 0.96948 0.0
C4782 C 0.14321 0.38142 0.96509 0.0
C4783 C 0.1397 0.38951 0.99124 0.0
O4784 O 0.13658 0.38387 0.99039 0.0
O4785 O 0.14034 0.39345 0.98611 0.0
O4786 O 0.37566 0.3946 0.72234 0.0
Cd4787 Cd 0.37156 0.38591 0.7302 0.0
O4788 O 0.37025 0.39013 0.71366 0.0
Cd4789 Cd 0.36797 0.38062 0.71883 0.0
O4790 O 0.37116 0.37004 0.71813 0.0
C4791 C 0.37741 0.36885 0.71917 0.0
O4792 O 0.38133 0.37385 0.72119 0.0
C4793 C 0.3739 0.39484 0.71613 0.0
C4794 C 0.3681 0.39131 0.74282 0.0
O4795 O 0.37415 0.38926 0.74158 0.0
O4796 O 0.36368 0.39082 0.73808 0.0
O4797 O 0.36271 0.62341 0.47104 0.0
Cd4798 Cd 0.37111 0.61803 0.47843 0.0
O4799 O 0.36606 0.6175 0.46219 0.0
Cd4800 Cd 0.37563 0.61456 0.46689 0.0
O4801 O 0.38603 0.61826 0.46594 0.0
C4802 C 0.38652 0.62469 0.46574 0.0
O4803 O 0.381 0.62833 0.46663 0.0
C4804 C 0.36193 0.62167 0.46488 0.0
C4805 C 0.36566 0.61467 0.49106 0.0
O4806 O 0.36878 0.6203 0.49015 0.0
O4807 O 0.36512 0.61062 0.486 0.0
O4808 O 0.28262 0.13098 0.39413 0.0
Cd4809 Cd 0.27639 0.13785 0.38588 0.0
O4810 O 0.27819 0.12146 0.39033 0.0
Cd4811 Cd 0.27473 0.12601 0.38087 0.0
O4812 O 0.27848 0.12605 0.37045 0.0
C4813 C 0.28466 0.12776 0.36978 0.0
O4814 O 0.28798 0.12988 0.37516 0.0
C4815 C 0.28182 0.1246 0.39465 0.0
C4816 C 0.26353 0.14115 0.39083 0.0
O4817 O 0.26454 0.13567 0.38749 0.0
O4818 O 0.2686 0.14511 0.39179 0.0
O4819 O 0.78023 0.37818 0.61321 0.0
Cd4820 Cd 0.77389 0.37183 0.62179 0.0
O4821 O 0.78862 0.37083 0.61331 0.0
Cd4822 Cd 0.7856 0.36678 0.62316 0.0
O4823 O 0.78899 0.36905 0.63347 0.0
C4824 C 0.79452 0.37237 0.6335 0.0
O4825 O 0.7974 0.37379 0.62766 0.0
C4826 C 0.78579 0.37602 0.61074 0.0
C4827 C 0.76146 0.36729 0.61675 0.0
O4828 O 0.76191 0.37291 0.61999 0.0
O4829 O 0.76688 0.36381 0.61591 0.0
O4830 O 0.37781 0.03182 0.36218 0.0
Cd4831 Cd 0.38438 0.02533 0.37048 0.0
O4832 O 0.38508 0.04028 0.36242 0.0
Cd4833 Cd 0.38927 0.03709 0.37215 0.0
O4834 O 0.38725 0.04043 0.38253 0.0
C4835 C 0.38632 0.04679 0.38303 0.0
O4836 O 0.38709 0.05055 0.37758 0.0
C4837 C 0.37989 0.03746 0.35983 0.0
C4838 C 0.38841 0.0128 0.36526 0.0
O4839 O 0.38297 0.01337 0.36877 0.0
O4840 O 0.39196 0.01815 0.36424 0.0
O4841 O 0.72431 0.62868 0.11234 0.0
Cd4842 Cd 0.73131 0.63383 0.12121 0.0
O4843 O 0.71614 0.6362 0.11337 0.0
Cd4844 Cd 0.71975 0.63924 0.12338 0.0
O4845 O 0.71676 0.63549 0.13338 0.0
C4846 C 0.71247 0.63069 0.1329 0.0
O4847 O 0.71059 0.62872 0.12681 0.0
C4848 C 0.71872 0.63117 0.11028 0.0
C4849 C 0.74402 0.63758 0.11616 0.0
O4850 O 0.74298 0.63165 0.11861 0.0
O4851 O 0.73905 0.64177 0.11613 0.0
O4852 O 0.62793 0.4754 0.36188 0.0
Cd4853 Cd 0.62256 0.48228 0.37069 0.0
O4854 O 0.62074 0.46696 0.36307 0.0
Cd4855 Cd 0.61736 0.47056 0.37296 0.0
O4856 O 0.61988 0.46732 0.38326 0.0
C4857 C 0.62144 0.46107 0.38356 0.0
O4858 O 0.62101 0.45741 0.37801 0.0
C4859 C 0.62565 0.46969 0.35991 0.0
C4860 C 0.61848 0.4948 0.36548 0.0
O4861 O 0.62443 0.49397 0.36796 0.0
O4862 O 0.61442 0.48972 0.36551 0.0
O4863 O 0.22453 0.877 0.89258 0.0
Cd4864 Cd 0.23135 0.8711 0.88406 0.0
O4865 O 0.21577 0.87025 0.89108 0.0
Cd4866 Cd 0.21948 0.86695 0.88119 0.0
O4867 O 0.21728 0.87083 0.87104 0.0
C4868 C 0.21473 0.87675 0.87123 0.0
O4869 O 0.21404 0.87972 0.87716 0.0
C4870 C 0.21865 0.875 0.89436 0.0
C4871 C 0.24405 0.86755 0.88923 0.0
O4872 O 0.2432 0.8731 0.88595 0.0
O4873 O 0.2389 0.86366 0.89004 0.0
O4874 O 0.38127 0.97262 0.14483 0.0
Cd4875 Cd 0.38929 0.97813 0.13713 0.0
O4876 O 0.37246 0.97462 0.13826 0.0
Cd4877 Cd 0.37832 0.97751 0.12933 0.0
O4878 O 0.37866 0.9734 0.11905 0.0
C4879 C 0.38001 0.96711 0.11865 0.0
O4880 O 0.38168 0.96384 0.12421 0.0
C4881 C 0.3749 0.9724 0.1438 0.0
C4882 C 0.39264 0.9911 0.14174 0.0
O4883 O 0.3878 0.9902 0.13749 0.0
O4884 O 0.39593 0.98587 0.14377 0.0
O4885 O 0.12326 0.03461 0.64468 0.0
Cd4886 Cd 0.11559 0.02878 0.63686 0.0
O4887 O 0.13248 0.03058 0.63987 0.0
Cd4888 Cd 0.1272 0.02727 0.63073 0.0
O4889 O 0.12698 0.03103 0.62031 0.0
C4890 C 0.12551 0.03728 0.61969 0.0
O4891 O 0.12368 0.04068 0.62511 0.0
C4892 C 0.12968 0.03395 0.6446 0.0
C4893 C 0.11235 0.01579 0.64151 0.0
O4894 O 0.11729 0.01674 0.63739 0.0
O4895 O 0.10893 0.02098 0.64341 0.0
H4896 H 0.02542 0.15774 0.41019 0.0
H4897 H 1.00142 0.13804 0.38394 0.0
H4898 H 0.03162 0.1519 0.39003 0.0
H4899 H 0.9943 0.14614 0.40299 0.0
H4900 H 0.01273 0.14243 0.38644 0.0
H4901 H 0.01422 0.15283 0.40801 0.0
C4902 C 0.02444 0.15539 0.40532 0.0
C4903 C 0.02946 0.15526 0.40027 0.0
C4904 C 0.0087 0.14325 0.39008 0.0
C4905 C 0.01664 0.14966 0.39774 0.0
C4906 C 1.00224 0.14073 0.38866 0.0
C4907 C 0.9969 0.14174 0.39325 0.0
C4908 C 0.00986 0.14679 0.39615 0.0
C4909 C 0.99826 0.14526 0.39929 0.0
C4910 C 0.01803 0.15262 0.40407 0.0
C4911 C 0.02788 0.15221 0.39404 0.0
N4912 N 0.00461 0.14766 0.40056 0.0
N4913 N 0.02162 0.14953 0.39295 0.0
H4914 H 0.10767 0.7833 0.64829 0.0
H4915 H 0.10408 0.74303 0.65211 0.0
H4916 H 0.09058 0.77363 0.65795 0.0
H4917 H 0.11852 0.75266 0.63877 0.0
H4918 H 0.09972 0.75421 0.65524 0.0
H4919 H 0.11241 0.77212 0.64575 0.0
C4920 C 0.10494 0.77882 0.64993 0.0
C4921 C 0.09871 0.7794 0.65333 0.0
C4922 C 0.10384 0.75388 0.65163 0.0
C4923 C 0.10409 0.76658 0.6504 0.0
C4924 C 0.10635 0.74749 0.64985 0.0
C4925 C 0.11166 0.74691 0.64515 0.0
C4926 C 0.10671 0.75972 0.64874 0.0
C4927 C 0.1144 0.75287 0.64239 0.0
C4928 C 0.10762 0.77244 0.64844 0.0
C4929 C 0.09536 0.77342 0.65526 0.0
N4930 N 0.1119 0.75903 0.64423 0.0
N4931 N 0.09809 0.76726 0.65378 0.0
H4932 H 0.48092 0.84624 0.90927 0.0
H4933 H 0.50549 0.86416 0.88229 0.0
H4934 H 0.47475 0.85196 0.88907 0.0
H4935 H 0.51241 0.85639 0.90155 0.0
H4936 H 0.49401 0.86043 0.88504 0.0
H4937 H 0.49229 0.85068 0.90691 0.0
C4938 C 0.48194 0.84848 0.90436 0.0
C4939 C 0.47689 0.8487 0.89935 0.0
C4940 C 0.49803 0.85954 0.88868 0.0
C4941 C 0.48988 0.85375 0.8966 0.0
C4942 C 0.5046 0.86169 0.88711 0.0
C4943 C 0.50994 0.86057 0.89169 0.0
C4944 C 0.49677 0.85627 0.89488 0.0
C4945 C 0.50846 0.85734 0.89786 0.0
C4946 C 0.48844 0.85097 0.903 0.0
C4947 C 0.47852 0.85159 0.89305 0.0
N4948 N 0.50202 0.8553 0.89927 0.0
N4949 N 0.48487 0.85399 0.89186 0.0
H4950 H 0.40325 0.22102 0.13591 0.0
H4951 H 0.39333 0.25826 0.14877 0.0
H4952 H 0.40609 0.22773 0.15655 0.0
H4953 H 0.38909 0.25075 0.12864 0.0
H4954 H 0.39809 0.24719 0.15174 0.0
H4955 H 0.39817 0.23196 0.13317 0.0
C4956 C 0.40283 0.22481 0.13987 0.0
C4957 C 0.40514 0.22347 0.14647 0.0
C4958 C 0.39611 0.24796 0.14668 0.0
C4959 C 0.39925 0.23602 0.14337 0.0
C4960 C 0.39339 0.25428 0.14497 0.0
C4961 C 0.39082 0.25544 0.13844 0.0
C4962 C 0.39627 0.24276 0.14181 0.0
C4963 C 0.39102 0.2501 0.13374 0.0
C4964 C 0.39989 0.23105 0.13831 0.0
C4965 C 0.40434 0.22853 0.15141 0.0
N4966 N 0.39372 0.24401 0.13551 0.0
N4967 N 0.40149 0.2346 0.14975 0.0
H4968 H 0.02744 0.8484 0.09805 0.0
H4969 H 0.00428 0.86593 0.12649 0.0
H4970 H 0.03362 0.85111 0.11887 0.0
H4971 H 0.99713 0.86141 0.1063 0.0
H4972 H 0.01527 0.86102 0.12357 0.0
H4973 H 0.01652 0.85368 0.10075 0.0
C4974 C 0.02651 0.85013 0.10318 0.0
C4975 C 0.03144 0.84928 0.10825 0.0
C4976 C 0.0113 0.8611 0.11977 0.0
C4977 C 0.01896 0.85531 0.11138 0.0
C4978 C 0.00502 0.86392 0.12143 0.0
C4979 C 0.99977 0.86407 0.11663 0.0
C4980 C 0.01236 0.85843 0.11325 0.0
C4981 C 1.00103 0.86138 0.11016 0.0
C4982 C 0.02027 0.85312 0.10472 0.0
C4983 C 0.02994 0.85157 0.11483 0.0
N4984 N 0.0072 0.85867 0.10866 0.0
N4985 N 0.02384 0.85447 0.11619 0.0
H4986 H 0.40816 0.77763 0.34632 0.0
H4987 H 0.39244 0.75439 0.37574 0.0
H4988 H 0.40688 0.78367 0.36732 0.0
H4989 H 0.39527 0.74744 0.35517 0.0
H4990 H 0.39732 0.76532 0.37259 0.0
H4991 H 0.403 0.76672 0.3493 0.0
C4992 C 0.40677 0.77668 0.35155 0.0
C4993 C 0.40798 0.78156 0.35658 0.0
C4994 C 0.39688 0.76141 0.36876 0.0
C4995 C 0.40211 0.76909 0.36003 0.0
C4996 C 0.39408 0.75516 0.37055 0.0
C4997 C 0.39345 0.74998 0.36572 0.0
C4998 C 0.39905 0.76251 0.36207 0.0
C4999 C 0.39567 0.75128 0.35907 0.0
C5000 C 0.40385 0.77044 0.35325 0.0
C5001 C 0.40614 0.78002 0.36329 0.0
N5002 N 0.39837 0.75742 0.35744 0.0
N5003 N 0.40329 0.77393 0.36481 0.0
H5004 H 0.46984 0.14826 0.61132 0.0
H5005 H 0.50964 0.14862 0.60348 0.0
H5006 H 0.47923 0.16301 0.59817 0.0
H5007 H 0.50081 0.13807 0.62052 0.0
H5008 H 0.49842 0.15314 0.60066 0.0
H5009 H 0.48104 0.14359 0.61389 0.0
C5010 C 0.47426 0.15049 0.60893 0.0
C5011 C 0.4736 0.15603 0.60452 0.0
C5012 C 0.49895 0.14985 0.60502 0.0
C5013 C 0.48645 0.15074 0.60746 0.0
C5014 C 0.50534 0.14725 0.60663 0.0
C5015 C 0.50617 0.14296 0.61226 0.0
C5016 C 0.49332 0.14809 0.60902 0.0
C5017 C 0.50042 0.14137 0.61615 0.0
C5018 C 0.48066 0.14785 0.61044 0.0
C5019 C 0.47952 0.15877 0.60164 0.0
N5020 N 0.49424 0.14391 0.61444 0.0
N5021 N 0.48569 0.15608 0.60314 0.0
H5022 H 0.10798 0.21999 0.8623 0.0
H5023 H 0.1073 0.26006 0.85593 0.0
H5024 H 0.09321 0.22977 0.84944 0.0
H5025 H 0.11808 0.25067 0.87251 0.0
H5026 H 0.10291 0.24891 0.85266 0.0
H5027 H 0.11263 0.23112 0.86522 0.0
C5028 C 0.10575 0.22448 0.86005 0.0
C5029 C 0.1002 0.22395 0.85562 0.0
C5030 C 0.10623 0.2493 0.85702 0.0
C5031 C 0.10547 0.23671 0.85897 0.0
C5032 C 0.10876 0.25565 0.85888 0.0
C5033 C 0.11306 0.2563 0.86451 0.0
C5034 C 0.10808 0.24354 0.86077 0.0
C5035 C 0.11476 0.25042 0.86815 0.0
C5036 C 0.10837 0.23083 0.86176 0.0
C5037 C 0.09745 0.22995 0.85293 0.0
N5038 N 0.11229 0.24428 0.8662 0.0
N5039 N 0.10013 0.23608 0.85463 0.0
H5040 H 0.4065 0.02505 0.16595 0.0
H5041 H 0.38775 0.00331 0.1373 0.0
H5042 H 0.3966 0.034 0.14861 0.0
H5043 H 0.40139 0.99451 0.15199 0.0
H5044 H 0.39047 0.01457 0.14172 0.0
H5045 H 0.4042 0.01377 0.16128 0.0
C5046 C 0.40384 0.02464 0.16117 0.0
C5047 C 0.40173 0.03047 0.15767 0.0
C5048 C 0.39289 0.01018 0.14396 0.0
C5049 C 0.39909 0.01759 0.15229 0.0
C5050 C 0.39132 0.00375 0.14145 0.0
C5051 C 0.39434 0.99796 0.14428 0.0
C5052 C 0.39745 0.01084 0.14939 0.0
C5053 C 0.39895 0.99883 0.14965 0.0
C5054 C 0.40256 0.0182 0.15848 0.0
C5055 C 0.39837 0.02964 0.15145 0.0
N5056 N 0.40033 0.00515 0.15205 0.0
N5057 N 0.39711 0.02333 0.14898 0.0
H5058 H 0.22202 0.13899 0.40482 0.0
H5059 H 0.25952 0.15273 0.39742 0.0
H5060 H 0.2284 0.15943 0.40937 0.0
H5061 H 0.25206 0.13333 0.39052 0.0
H5062 H 0.2483 0.15521 0.40212 0.0
H5063 H 0.23316 0.13673 0.39991 0.0
C5064 C 0.22578 0.143 0.40482 0.0
C5065 C 0.22428 0.1494 0.40754 0.0
C5066 C 0.24912 0.15042 0.39956 0.0
C5067 C 0.23706 0.14686 0.40187 0.0
C5068 C 0.25552 0.14899 0.39688 0.0
C5069 C 0.25674 0.14281 0.39358 0.0
C5070 C 0.24389 0.14561 0.39897 0.0
C5071 C 0.25136 0.13816 0.39303 0.0
C5072 C 0.23213 0.14172 0.40197 0.0
C5073 C 0.22932 0.15444 0.40728 0.0
N5074 N 0.24519 0.13965 0.39571 0.0
N5075 N 0.23549 0.15305 0.40453 0.0
H5076 H 0.10879 0.97234 0.64692 0.0
H5077 H 0.10344 0.0123 0.65158 0.0
H5078 H 0.09901 0.98113 0.66441 0.0
H5079 H 0.11741 0.00362 0.63714 0.0
H5080 H 0.10082 1.00089 0.65571 0.0
H5081 H 0.111 0.98375 0.64258 0.0
C5082 C 0.10706 0.97668 0.64982 0.0
C5083 C 0.10371 0.97578 0.65604 0.0
C5084 C 0.10446 1.00149 0.65164 0.0
C5085 C 0.10626 0.98886 0.65112 0.0
C5086 C 0.10594 0.00799 0.64927 0.0
C5087 C 0.11066 0.00892 0.64401 0.0
C5088 C 0.10766 0.99585 0.64869 0.0
C5089 C 0.11376 0.00315 0.64121 0.0
C5090 C 0.10837 0.98318 0.64737 0.0
C5091 C 0.10167 0.98159 0.65963 0.0
N5092 N 0.11219 0.99686 0.64357 0.0
N5093 N 0.10296 0.98788 0.65711 0.0
H5094 H 0.27693 0.85092 0.91326 0.0
H5095 H 0.25628 0.87364 0.88678 0.0
H5096 H 0.28655 0.86329 0.89799 0.0
H5097 H 0.24713 0.85727 0.89806 0.0
H5098 H 0.26733 0.87056 0.89151 0.0
H5099 H 0.26584 0.85384 0.90845 0.0
C5100 C 0.2767 0.85426 0.9089 0.0
C5101 C 0.28266 0.85686 0.90601 0.0
C5102 C 0.2629 0.86763 0.89294 0.0
C5103 C 0.27002 0.86023 0.90049 0.0
C5104 C 0.25659 0.8694 0.89025 0.0
C5105 C 0.25077 0.8657 0.89202 0.0
C5106 C 0.2634 0.86218 0.89749 0.0
C5107 C 0.25148 0.86025 0.89654 0.0
C5108 C 0.27038 0.85589 0.90614 0.0
C5109 C 0.28208 0.86112 0.90033 0.0
N5110 N 0.25768 0.85867 0.89915 0.0
N5111 N 0.27587 0.8627 0.89778 0.0
H5112 H 0.39408 0.96994 0.35771 0.0
H5113 H 0.39834 0.01022 0.35589 0.0
H5114 H 0.40448 0.98003 0.34132 0.0
H5115 H 0.38329 1.00025 0.36828 0.0
H5116 H 0.40166 0.99917 0.35128 0.0
H5117 H 0.39113 0.98099 0.36249 0.0
C5118 C 0.39578 0.97449 0.35515 0.0
C5119 C 0.39953 0.97407 0.34911 0.0
C5120 C 0.39763 0.99941 0.355 0.0
C5121 C 0.39615 0.98674 0.35454 0.0
C5122 C 0.39575 0.00571 0.35765 0.0
C5123 C 0.39052 0.00616 0.36247 0.0
C5124 C 0.39431 0.99351 0.35724 0.0
C5125 C 0.38732 1.00015 0.36455 0.0
C5126 C 0.39406 0.98079 0.35785 0.0
C5127 C 0.40154 0.98013 0.34595 0.0
N5128 N 0.38929 0.99408 0.36195 0.0
N5129 N 0.39984 0.98622 0.34872 0.0
H5130 H 0.27433 0.1572 0.58945 0.0
H5131 H 0.25229 0.13735 0.61712 0.0
H5132 H 0.28311 0.14641 0.60634 0.0
H5133 H 0.24366 0.15167 0.60298 0.0
H5134 H 0.2636 0.14017 0.61288 0.0
H5135 H 0.26301 0.15479 0.59396 0.0
C5136 C 0.27387 0.15433 0.59411 0.0
C5137 C 0.27967 0.15201 0.59753 0.0
C5138 C 0.25923 0.14271 0.61072 0.0
C5139 C 0.26674 0.14922 0.60271 0.0
C5140 C 0.25277 0.14109 0.61313 0.0
C5141 C 0.24702 0.14428 0.6104 0.0
C5142 C 0.25995 0.1475 0.60549 0.0
C5143 C 0.24796 0.14909 0.60524 0.0
C5144 C 0.26741 0.15298 0.59669 0.0
C5145 C 0.27878 0.14836 0.60358 0.0
N5146 N 0.2543 0.15054 0.60293 0.0
N5147 N 0.27244 0.14704 0.60595 0.0
H5148 H 0.09861 0.0262 0.83988 0.0
H5149 H 0.12132 0.00478 0.86575 0.0
H5150 H 0.11138 0.03537 0.8551 0.0
H5151 H 0.10452 0.99611 0.8547 0.0
H5152 H 0.11843 0.01593 0.86114 0.0
H5153 H 0.10138 0.01499 0.8445 0.0
C5154 C 0.102 0.02585 0.84419 0.0
C5155 C 0.10476 0.03172 0.84712 0.0
C5156 C 0.11537 0.01159 0.85973 0.0
C5157 C 0.10797 0.01894 0.85241 0.0
C5158 C 0.11703 0.00522 0.86234 0.0
C5159 C 0.11315 0.99951 0.86062 0.0
C5160 C 0.10983 0.01224 0.85529 0.0
C5161 C 0.10763 1.00038 0.85619 0.0
C5162 C 0.10355 0.01946 0.84684 0.0
C5163 C 0.10909 0.03098 0.85273 0.0
N5164 N 0.10616 0.00662 0.85366 0.0
N5165 N 0.11058 0.02471 0.85517 0.0
H5166 H 0.22023 0.86922 0.10052 0.0
H5167 H 0.25733 0.85639 0.111 0.0
H5168 H 0.22692 0.84853 0.09798 0.0
H5169 H 0.24983 0.87659 0.1149 0.0
H5170 H 0.24631 0.85339 0.10612 0.0
H5171 H 0.23114 0.872 0.10566 0.0
C5172 C 0.22401 0.86526 0.10101 0.0
C5173 C 0.22266 0.85864 0.09878 0.0
C5174 C 0.24708 0.85847 0.10806 0.0
C5175 C 0.23518 0.86178 0.10473 0.0
C5176 C 0.25337 0.86019 0.11084 0.0
C5177 C 0.25451 0.86675 0.11336 0.0
C5178 C 0.2419 0.86336 0.10777 0.0
C5179 C 0.24919 0.87147 0.11302 0.0
C5180 C 0.23023 0.86685 0.10399 0.0
C5181 C 0.22772 0.85369 0.09968 0.0
N5182 N 0.24313 0.86968 0.11027 0.0
N5183 N 0.23376 0.85537 0.10256 0.0
H5184 H 0.16306 0.40709 0.02411 0.0
H5185 H 0.13756 0.38327 0.00345 0.0
H5186 H 0.14849 0.39387 0.03369 0.0
H5187 H 0.14817 0.40011 0.99432 0.0
H5188 H 0.14218 0.38652 0.01448 0.0
H5189 H 0.15833 0.40405 0.01303 0.0
C5190 C 0.15887 0.40354 0.02388 0.0
C5191 C 0.15616 0.40073 0.02983 0.0
C5192 C 0.14349 0.38951 0.01007 0.0
C5193 C 0.15073 0.39722 0.01719 0.0
C5194 C 0.14087 0.38765 0.00376 0.0
C5195 C 0.14248 0.39143 0.99795 0.0
C5196 C 0.14781 0.39516 0.01057 0.0
C5197 C 0.14678 0.39706 0.99867 0.0
C5198 C 0.15615 0.40184 0.01756 0.0
C5199 C 0.15069 0.39621 0.02924 0.0
N5200 N 0.14932 0.39874 0.00486 0.0
N5201 N 0.14818 0.39457 0.02304 0.0
H5202 H 0.64813 0.11372 0.96923 0.0
H5203 H 0.64821 0.10734 0.00928 0.0
H5204 H 0.66252 0.10056 0.97917 0.0
H5205 H 0.63779 0.12408 0.99977 0.0
H5206 H 0.65276 0.10405 0.99821 0.0
H5207 H 0.64349 0.11681 0.98031 0.0
C5208 C 0.65028 0.11145 0.97375 0.0
C5209 C 0.65571 0.10687 0.97328 0.0
C5210 C 0.64949 0.10845 0.99855 0.0
C5211 C 0.65044 0.11041 0.98598 0.0
C5212 C 0.64687 0.11032 0.00486 0.0
C5213 C 0.64262 0.116 0.00545 0.0
C5214 C 0.64778 0.11225 0.99277 0.0
C5215 C 0.64107 0.11968 0.99956 0.0
C5216 C 0.64766 0.11325 0.98007 0.0
C5217 C 0.65837 0.10415 0.97931 0.0
N5218 N 0.64363 0.11772 0.99346 0.0
N5219 N 0.65569 0.10594 0.9854 0.0
H5220 H 0.13769 0.40762 0.22206 0.0
H5221 H 0.15153 0.39502 0.25812 0.0
H5222 H 0.15885 0.40815 0.22764 0.0
H5223 H 0.13073 0.39288 0.25157 0.0
H5224 H 0.1543 0.40015 0.24717 0.0
H5225 H 0.13503 0.40259 0.23304 0.0
C5226 C 0.14178 0.40672 0.22562 0.0
C5227 C 0.1485 0.40834 0.22393 0.0
C5228 C 0.14914 0.39855 0.24813 0.0
C5229 C 0.1455 0.4025 0.23652 0.0
C5230 C 0.14754 0.39563 0.25438 0.0
C5231 C 0.14088 0.39351 0.25577 0.0
C5232 C 0.14403 0.39939 0.24323 0.0
C5233 C 0.13593 0.39443 0.25073 0.0
C5234 C 0.14026 0.40381 0.23188 0.0
C5235 C 0.15361 0.40694 0.2287 0.0
N5236 N 0.13761 0.3973 0.2447 0.0
N5237 N 0.152 0.40411 0.23479 0.0
H5238 H 0.85129 0.888 0.47143 0.0
H5239 H 0.86202 0.90024 0.50864 0.0
H5240 H 0.8491 0.90865 0.47836 0.0
H5241 H 0.866 0.8802 0.50077 0.0
H5242 H 0.85709 0.90341 0.4977 0.0
H5243 H 0.85644 0.88502 0.48228 0.0
C5244 C 0.85186 0.89191 0.47525 0.0
C5245 C 0.84973 0.89858 0.47399 0.0
C5246 C 0.85906 0.89833 0.49836 0.0
C5247 C 0.85569 0.89521 0.48643 0.0
C5248 C 0.86187 0.89651 0.50461 0.0
C5249 C 0.86442 0.88994 0.50562 0.0
C5250 C 0.85877 0.89353 0.4931 0.0
C5251 C 0.86409 0.88532 0.50022 0.0
C5252 C 0.85484 0.89021 0.48144 0.0
C5253 C 0.85071 0.90345 0.47909 0.0
N5254 N 0.8613 0.8872 0.4942 0.0
N5255 N 0.8536 0.90167 0.4851 0.0
H5256 H 0.86829 0.09734 0.22278 0.0
H5257 H 0.85458 0.1093 0.2591 0.0
H5258 H 0.84715 0.09668 0.22843 0.0
H5259 H 0.87534 0.11162 0.25251 0.0
H5260 H 0.85178 0.10432 0.24808 0.0
H5261 H 0.87099 0.10217 0.23385 0.0
C5262 C 0.86422 0.09817 0.22637 0.0
C5263 C 0.85748 0.09657 0.22468 0.0
C5264 C 0.85694 0.10592 0.24905 0.0
C5265 C 0.86053 0.10218 0.23737 0.0
C5266 C 0.85855 0.10876 0.25534 0.0
C5267 C 0.86521 0.11088 0.25673 0.0
C5268 C 0.86203 0.10518 0.24412 0.0
C5269 C 0.87014 0.11006 0.25166 0.0
C5270 C 0.86576 0.10097 0.23268 0.0
C5271 C 0.8524 0.09788 0.2295 0.0
N5272 N 0.86845 0.10727 0.24559 0.0
N5273 N 0.85403 0.10059 0.23563 0.0
H5274 H 0.34171 0.59793 0.52395 0.0
H5275 H 0.36778 0.62103 0.50321 0.0
H5276 H 0.35681 0.61057 0.5335 0.0
H5277 H 0.35701 0.60424 0.49418 0.0
H5278 H 0.36302 0.61797 0.51424 0.0
H5279 H 0.34648 0.60088 0.51285 0.0
C5280 C 0.34602 0.60133 0.5237 0.0
C5281 C 0.34889 0.604 0.52965 0.0
C5282 C 0.36171 0.61495 0.50985 0.0
C5283 C 0.35433 0.60741 0.517 0.0
C5284 C 0.36441 0.61671 0.50354 0.0
C5285 C 0.3628 0.61288 0.49776 0.0
C5286 C 0.35731 0.60937 0.51037 0.0
C5287 C 0.35841 0.60732 0.49851 0.0
C5288 C 0.34876 0.60299 0.51738 0.0
C5289 C 0.3545 0.60834 0.52905 0.0
N5290 N 0.35579 0.60575 0.50469 0.0
N5291 N 0.35702 0.60994 0.52284 0.0
H5292 H 0.15624 0.59061 0.27513 0.0
H5293 H 0.13371 0.61635 0.25334 0.0
H5294 H 0.14337 0.60589 0.28406 0.0
H5295 H 0.15028 0.60486 0.24481 0.0
H5296 H 0.13655 0.61187 0.26454 0.0
H5297 H 0.15351 0.59508 0.26387 0.0
C5298 C 0.15283 0.5949 0.27472 0.0
C5299 C 0.15004 0.59789 0.28054 0.0
C5300 C 0.13957 0.61034 0.26022 0.0
C5301 C 0.14687 0.60302 0.26768 0.0
C5302 C 0.13794 0.61288 0.25381 0.0
C5303 C 0.14177 0.61099 0.24812 0.0
C5304 C 0.14503 0.60582 0.26094 0.0
C5305 C 0.1472 0.60647 0.24906 0.0
C5306 C 0.1513 0.59747 0.26829 0.0
C5307 C 0.1457 0.60348 0.27971 0.0
N5308 N 0.14866 0.60402 0.25534 0.0
N5309 N 0.14422 0.60584 0.2734 0.0
H5310 H 0.36909 0.4057 0.78424 0.0
H5311 H 0.35566 0.39574 0.74721 0.0
H5312 H 0.34807 0.40715 0.77828 0.0
H5313 H 0.37641 0.39329 0.75377 0.0
H5314 H 0.35279 0.40024 0.75841 0.0
H5315 H 0.37187 0.40142 0.77298 0.0
C5316 C 0.36504 0.40508 0.78058 0.0
C5317 C 0.35832 0.40675 0.78224 0.0
C5318 C 0.35797 0.39872 0.75739 0.0
C5319 C 0.3615 0.40192 0.76926 0.0
C5320 C 0.35962 0.39615 0.751 0.0
C5321 C 0.36629 0.39412 0.74954 0.0
C5322 C 0.36304 0.39928 0.76237 0.0
C5323 C 0.3712 0.39478 0.75465 0.0
C5324 C 0.36664 0.40267 0.77413 0.0
C5325 C 0.35332 0.40598 0.77721 0.0
N5326 N 0.36948 0.3973 0.76083 0.0
N5327 N 0.35501 0.40361 0.77096 0.0
H5328 H 0.97616 0.85429 0.5945 0.0
H5329 H 0.01466 0.84219 0.58995 0.0
H5330 H 0.98184 0.8339 0.58894 0.0
H5331 H 0.00902 0.86153 0.59851 0.0
H5332 H 1.00266 0.83927 0.58894 0.0
H5333 H 0.98818 0.85728 0.59532 0.0
C5334 C 0.97994 0.85045 0.59341 0.0
C5335 C 0.978 0.84384 0.59165 0.0
C5336 C 0.00404 0.84415 0.59105 0.0
C5337 C 0.99176 0.8472 0.59263 0.0
C5338 C 0.0109 0.84583 0.59161 0.0
C5339 C 0.01285 0.85211 0.59432 0.0
C5340 C 0.99909 0.84882 0.59316 0.0
C5341 C 0.00775 0.85663 0.5964 0.0
C5342 C 0.9868 0.85215 0.59393 0.0
C5343 C 0.98311 0.83904 0.59039 0.0
N5344 N 1.0011 0.85489 0.59577 0.0
N5345 N 0.98976 0.84082 0.59089 0.0
H5346 H 0.9077 0.22551 0.35155 0.0
H5347 H 0.91 0.26283 0.3358 0.0
H5348 H 0.91758 0.22998 0.33255 0.0
H5349 H 0.89634 0.25747 0.35205 0.0
H5350 H 0.91366 0.251 0.33515 0.0
H5351 H 0.90431 0.23742 0.35244 0.0
C5352 C 0.90918 0.22901 0.34758 0.0
C5353 C 0.91292 0.22676 0.34196 0.0
C5354 C 0.90986 0.25242 0.33885 0.0
C5355 C 0.90905 0.24037 0.34294 0.0
C5356 C 0.90778 0.25917 0.33924 0.0
C5357 C 0.90285 0.26114 0.34397 0.0
C5358 C 0.90702 0.2476 0.34327 0.0
C5359 C 0.90014 0.25618 0.3483 0.0
C5360 C 0.90722 0.23579 0.34808 0.0
C5361 C 0.91464 0.23149 0.33693 0.0
N5362 N 0.90227 0.24964 0.34786 0.0
N5363 N 0.91271 0.23808 0.33755 0.0
H5364 H 0.5289 0.15482 0.10226 0.0
H5365 H 0.49211 0.15914 0.08568 0.0
H5366 H 0.52524 0.16616 0.08391 0.0
H5367 H 0.49662 0.14455 0.10137 0.0
H5368 H 0.50407 0.1624 0.08546 0.0
H5369 H 0.51691 0.15164 0.10254 0.0
C5370 C 0.52556 0.15666 0.09831 0.0
C5371 C 0.52806 0.16076 0.09306 0.0
C5372 C 0.50244 0.15848 0.08894 0.0
C5373 C 0.51435 0.15713 0.09332 0.0
C5374 C 0.49561 0.15663 0.08908 0.0
C5375 C 0.49336 0.15156 0.09354 0.0
C5376 C 0.50706 0.15528 0.09333 0.0
C5377 C 0.49813 0.14847 0.09784 0.0
C5378 C 0.51873 0.15481 0.09844 0.0
C5379 C 0.52353 0.16294 0.08801 0.0
N5380 N 0.50475 0.15039 0.09763 0.0
N5381 N 0.51689 0.16111 0.08829 0.0
H5382 H 0.61058 0.78065 0.85455 0.0
H5383 H 0.61039 0.74024 0.85049 0.0
H5384 H 0.59577 0.76978 0.84263 0.0
H5385 H 0.62188 0.75075 0.86588 0.0
H5386 H 0.60597 0.75113 0.84653 0.0
H5387 H 0.61578 0.76983 0.85772 0.0
C5388 C 0.60846 0.77598 0.85255 0.0
C5389 C 0.60272 0.77611 0.84834 0.0
C5390 C 0.60947 0.75106 0.85076 0.0
C5391 C 0.60862 0.76372 0.85197 0.0
C5392 C 0.61202 0.74484 0.85301 0.0
C5393 C 0.61649 0.74458 0.85854 0.0
C5394 C 0.61145 0.75706 0.85404 0.0
C5395 C 0.61842 0.75071 0.86162 0.0
C5396 C 0.6114 0.76981 0.8544 0.0
C5397 C 0.60014 0.76991 0.84596 0.0
N5398 N 0.61589 0.7567 0.85933 0.0
N5399 N 0.60311 0.76397 0.84781 0.0
H5400 H 0.98329 0.17228 0.91783 0.0
H5401 H 0.0101 0.14311 0.90903 0.0
H5402 H 0.97755 0.15194 0.91214 0.0
H5403 H 0.01566 0.16231 0.91796 0.0
H5404 H 0.99817 0.14644 0.90961 0.0
H5405 H 0.99522 0.16892 0.91736 0.0
C5406 C 0.98454 0.16711 0.91646 0.0
C5407 C 0.97942 0.16238 0.91502 0.0
C5408 C 1.002 0.14992 0.91145 0.0
C5409 C 0.99306 0.15849 0.9145 0.0
C5410 C 0.00882 0.14803 0.91111 0.0
C5411 C 0.01389 0.15244 0.91345 0.0
C5412 C 1.00024 0.15629 0.91411 0.0
C5413 C 0.01192 0.15875 0.91611 0.0
C5414 C 0.99135 0.16519 0.91623 0.0
C5415 C 0.98134 0.15573 0.91336 0.0
N5416 N 0.00526 0.16049 0.91635 0.0
N5417 N 0.988 0.15399 0.91312 0.0
H5418 H 0.59636 0.22807 0.65312 0.0
H5419 H 0.59448 0.26442 0.67096 0.0
H5420 H 0.58681 0.23132 0.67254 0.0
H5421 H 0.60808 0.25977 0.65445 0.0
H5422 H 0.59081 0.25257 0.6711 0.0
H5423 H 0.59986 0.23996 0.65298 0.0
C5424 C 0.59497 0.2313 0.65734 0.0
C5425 C 0.59128 0.22872 0.66285 0.0
C5426 C 0.59461 0.25414 0.66746 0.0
C5427 C 0.5953 0.24232 0.66273 0.0
C5428 C 0.59669 0.26091 0.66736 0.0
C5429 C 0.6016 0.26309 0.66269 0.0
C5430 C 0.5974 0.24954 0.66281 0.0
C5431 C 0.6043 0.25832 0.65815 0.0
C5432 C 0.597 0.23808 0.65727 0.0
C5433 C 0.5897 0.23311 0.66822 0.0
N5434 N 0.60214 0.25177 0.65831 0.0
N5435 N 0.59169 0.23971 0.66802 0.0
H5436 H 0.52804 0.84917 0.40291 0.0
H5437 H 0.49144 0.84669 0.42018 0.0
H5438 H 0.52457 0.83918 0.42206 0.0
H5439 H 0.49622 0.8606 0.40396 0.0
H5440 H 0.50334 0.84316 0.42048 0.0
H5441 H 0.51614 0.85266 0.4027 0.0
C5442 C 0.52475 0.84768 0.40705 0.0
C5443 C 0.52728 0.84387 0.4125 0.0
C5444 C 0.50178 0.847 0.41687 0.0
C5445 C 0.51367 0.84787 0.41232 0.0
C5446 C 0.49499 0.849 0.41668 0.0
C5447 C 0.49284 0.85395 0.41204 0.0
C5448 C 0.50644 0.84992 0.41234 0.0
C5449 C 0.49766 0.85678 0.40764 0.0
C5450 C 0.51798 0.84971 0.40696 0.0
C5451 C 0.52283 0.84216 0.41779 0.0
N5452 N 0.50423 0.85471 0.40787 0.0
N5453 N 0.51623 0.84415 0.41755 0.0
H5454 H 0.9172 0.77403 0.17193 0.0
H5455 H 0.89586 0.74555 0.15247 0.0
H5456 H 0.90747 0.77741 0.15262 0.0
H5457 H 0.90916 0.74122 0.16932 0.0
H5458 H 0.89951 0.7574 0.15281 0.0
H5459 H 0.91372 0.76212 0.17145 0.0
C5460 C 0.91431 0.77226 0.16759 0.0
C5461 C 0.91261 0.77671 0.1623 0.0
C5462 C 0.90164 0.75385 0.15642 0.0
C5463 C 0.90863 0.7631 0.16172 0.0
C5464 C 0.89954 0.74709 0.15624 0.0
C5465 C 0.9022 0.74239 0.16088 0.0
C5466 C 0.90638 0.75594 0.16131 0.0
C5467 C 0.90698 0.74467 0.16564 0.0
C5468 C 0.91236 0.76546 0.16731 0.0
C5469 C 0.90894 0.77414 0.15677 0.0
N5470 N 0.9089 0.75129 0.16575 0.0
N5471 N 0.90705 0.76751 0.15664 0.0
H5472 H 0.58848 0.98031 0.83489 0.0
H5473 H 0.59875 0.0074 0.86333 0.0
H5474 H 0.59493 0.97481 0.85507 0.0
H5475 H 0.58925 0.01284 0.84436 0.0
H5476 H 0.59785 0.99544 0.86019 0.0
H5477 H 0.58919 0.99228 0.83807 0.0
C5478 C 0.59006 0.98163 0.83999 0.0
C5479 C 0.59165 0.97656 0.84472 0.0
C5480 C 0.59595 0.99925 0.85672 0.0
C5481 C 0.59246 0.99024 0.8484 0.0
C5482 C 0.59647 0.00608 0.8585 0.0
C5483 C 0.59407 0.01113 0.8541 0.0
C5484 C 0.59303 0.99745 0.85048 0.0
C5485 C 0.59116 0.00912 0.84792 0.0
C5486 C 0.59043 0.98846 0.84181 0.0
C5487 C 0.59358 0.97855 0.85128 0.0
N5488 N 0.59074 1.00244 0.84628 0.0
N5489 N 0.59396 0.98523 0.85291 0.0
H5490 H 0.77715 0.85272 0.59875 0.0
H5491 H 0.74002 0.83642 0.59773 0.0
H5492 H 0.77278 0.8335 0.58924 0.0
H5493 H 0.74558 0.85295 0.61097 0.0
H5494 H 0.7518 0.83572 0.59389 0.0
H5495 H 0.76538 0.85336 0.60259 0.0
C5496 C 0.7737 0.84865 0.59745 0.0
C5497 C 0.77594 0.84305 0.59367 0.0
C5498 C 0.75044 0.83949 0.59764 0.0
C5499 C 0.76246 0.84374 0.59805 0.0
C5500 C 0.74372 0.8399 0.59983 0.0
C5501 C 0.74182 0.84475 0.60468 0.0
C5502 C 0.75529 0.84399 0.60029 0.0
C5503 C 0.74682 0.84912 0.60723 0.0
C5504 C 0.76699 0.849 0.59967 0.0
C5505 C 0.77127 0.83788 0.59219 0.0
N5506 N 0.75332 0.84865 0.60499 0.0
N5507 N 0.76474 0.83836 0.59436 0.0
H5508 H 0.91069 0.0288 0.35511 0.0
H5509 H 0.91456 0.99033 0.34271 0.0
H5510 H 0.91521 0.02321 0.33444 0.0
H5511 H 0.90706 0.996 0.36248 0.0
H5512 H 0.91546 1.00234 0.33975 0.0
H5513 H 0.91004 0.01679 0.35809 0.0
C5514 C 0.9116 0.02504 0.35121 0.0
C5515 C 0.91302 0.02701 0.34452 0.0
C5516 C 0.91361 1.00096 0.34473 0.0
C5517 C 0.91222 0.01324 0.34788 0.0
C5518 C 0.91311 0.9941 0.34643 0.0
C5519 C 0.91073 0.99216 0.35285 0.0
C5520 C 0.91176 0.00591 0.3495 0.0
C5521 C 0.90891 0.99726 0.35746 0.0
C5522 C 0.91118 0.01818 0.3529 0.0
C5523 C 0.91404 0.02191 0.33965 0.0
N5524 N 0.90947 0.0039 0.3557 0.0
N5525 N 0.91363 0.01527 0.34143 0.0
H5526 H 0.72618 0.15918 0.106 0.0
H5527 H 0.76488 0.16501 0.09517 0.0
H5528 H 0.73236 0.16494 0.08582 0.0
H5529 H 0.75892 0.15606 0.11425 0.0
H5530 H 0.75294 0.16565 0.09189 0.0
H5531 H 0.73811 0.15867 0.10937 0.0
C5532 C 0.73005 0.16036 0.10229 0.0
C5533 C 0.72827 0.16209 0.09562 0.0
C5534 C 0.75425 0.16354 0.09679 0.0
C5535 C 0.74194 0.1615 0.09942 0.0
C5536 C 0.76106 0.16318 0.09868 0.0
C5537 C 0.7629 0.16047 0.10499 0.0
C5538 C 0.74922 0.1612 0.10127 0.0
C5539 C 0.75773 0.15818 0.10932 0.0
C5540 C 0.73686 0.16004 0.1042 0.0
C5541 C 0.7335 0.16351 0.09099 0.0
N5542 N 0.75113 0.15861 0.10739 0.0
N5543 N 0.74009 0.1632 0.09299 0.0
H5544 H 0.58959 0.02344 0.67245 0.0
H5545 H 0.5974 0.99624 0.64335 0.0
H5546 H 0.59448 0.02889 0.65183 0.0
H5547 H 0.58961 0.99091 0.66311 0.0
H5548 H 0.59686 0.00821 0.64651 0.0
H5549 H 0.5901 0.01147 0.66928 0.0
C5550 C 0.5908 0.02212 0.66726 0.0
C5551 C 0.592 0.02717 0.6624 0.0
C5552 C 0.59526 0.00442 0.65015 0.0
C5553 C 0.59256 0.01348 0.65872 0.0
C5554 C 0.59558 0.99758 0.64836 0.0
C5555 C 0.59355 0.99256 0.65297 0.0
C5556 C 0.59293 0.00626 0.65663 0.0
C5557 C 0.59122 0.99461 0.65938 0.0
C5558 C 0.59105 0.01528 0.66544 0.0
C5559 C 0.59345 0.02516 0.65573 0.0
N5560 N 0.59099 1.0013 0.66102 0.0
N5561 N 0.59371 0.01847 0.65409 0.0
H5562 H 0.72677 0.84658 0.40061 0.0
H5563 H 0.76551 0.84148 0.41171 0.0
H5564 H 0.73293 0.84072 0.42078 0.0
H5565 H 0.7595 0.85025 0.39256 0.0
H5566 H 0.75357 0.84066 0.41492 0.0
H5567 H 0.73871 0.84739 0.39734 0.0
C5568 C 0.73064 0.84543 0.40434 0.0
C5569 C 0.72885 0.84359 0.41097 0.0
C5570 C 0.75486 0.84278 0.41002 0.0
C5571 C 0.74253 0.84454 0.40729 0.0
C5572 C 0.76168 0.84324 0.40818 0.0
C5573 C 0.76351 0.84594 0.40185 0.0
C5574 C 0.74982 0.845 0.4055 0.0
C5575 C 0.75832 0.84814 0.39749 0.0
C5576 C 0.73745 0.84594 0.40248 0.0
C5577 C 0.73407 0.84224 0.41563 0.0
N5578 N 0.75172 0.8476 0.39939 0.0
N5579 N 0.74067 0.84273 0.41369 0.0
H5580 H 0.92247 0.98103 0.16491 0.0
H5581 H 0.90361 0.00974 0.14331 0.0
H5582 H 0.90372 0.97764 0.15414 0.0
H5583 H 0.91987 0.01398 0.15736 0.0
H5584 H 0.90402 0.99781 0.14663 0.0
H5585 H 0.92209 0.99298 0.16157 0.0
C5586 C 0.91829 0.9828 0.16182 0.0
C5587 C 0.91312 0.97834 0.1598 0.0
C5588 C 0.90749 1.00135 0.149 0.0
C5589 C 0.91263 0.992 0.15598 0.0
C5590 C 0.90727 0.00816 0.14709 0.0
C5591 C 0.91171 0.01287 0.15007 0.0
C5592 C 0.91222 0.99921 0.15388 0.0
C5593 C 0.91634 0.01053 0.15495 0.0
C5594 C 0.91805 0.98962 0.15995 0.0
C5595 C 0.90777 0.98092 0.15586 0.0
N5596 N 0.91649 0.00386 0.15669 0.0
N5597 N 0.90768 0.98758 0.15406 0.0
H5598 H 0.77328 0.16491 0.9216 0.0
H5599 H 0.74546 0.15761 0.89292 0.0
H5600 H 0.77829 0.16016 0.90083 0.0
H5601 H 0.74055 0.16511 0.9129 0.0
H5602 H 0.75749 0.15803 0.89587 0.0
H5603 H 0.76123 0.1645 0.91865 0.0
C5604 C 0.77184 0.16376 0.91642 0.0
C5605 C 0.77679 0.16256 0.91145 0.0
C5606 C 0.75378 0.15959 0.8996 0.0
C5607 C 0.76302 0.16212 0.90804 0.0
C5608 C 0.74691 0.15934 0.89793 0.0
C5609 C 0.74199 0.16134 0.90267 0.0
C5610 C 0.75576 0.16181 0.90608 0.0
C5611 C 0.74417 0.16354 0.90908 0.0
C5612 C 0.76497 0.16356 0.91474 0.0
C5613 C 0.77464 0.16118 0.90481 0.0
N5614 N 0.75089 0.1637 0.9106 0.0
N5615 N 0.76792 0.16098 0.9033 0.0
H5616 H 0.83463 0.59057 0.9824 0.0
H5617 H 0.86409 0.59734 0.00951 0.0
H5618 H 0.85511 0.59605 0.97691 0.0
H5619 H 0.84473 0.5885 0.01467 0.0
H5620 H 0.86066 0.59757 0.99761 0.0
H5621 H 0.838 0.59049 0.99434 0.0
C5622 C 0.83983 0.59179 0.98371 0.0
C5623 C 0.8446 0.59331 0.97866 0.0
C5624 C 0.85717 0.59557 1.00134 0.0
C5625 C 0.84849 0.5932 0.9923 0.0
C5626 C 0.85912 0.59545 0.00815 0.0
C5627 C 0.85469 0.59289 0.0131 0.0
C5628 C 0.85073 0.59316 0.99948 0.0
C5629 C 0.84831 0.59051 0.01103 0.0
C5630 C 0.84176 0.5917 0.99052 0.0
C5631 C 0.85128 0.59477 0.98064 0.0
N5632 N 0.84651 0.59071 0.00438 0.0
N5633 N 0.85303 0.5947 0.98731 0.0
H5634 H 0.35038 0.9015 0.02824 0.0
H5635 H 0.34923 0.91926 0.99179 0.0
H5636 H 0.34128 0.92109 0.0247 0.0
H5637 H 0.36206 0.90214 0.99645 0.0
H5638 H 0.34551 0.91952 0.00362 0.0
H5639 H 0.35393 0.90114 0.01636 0.0
C5640 C 0.3491 0.90571 0.02495 0.0
C5641 C 0.34553 0.91133 0.02745 0.0
C5642 C 0.34915 0.91572 1.00205 0.0
C5643 C 0.34959 0.91097 0.01387 0.0
C5644 C 0.35126 0.91555 0.9953 0.0
C5645 C 0.35597 0.91068 0.99313 0.0
C5646 C 0.35172 0.91094 0.00666 0.0
C5647 C 0.35843 0.906 0.9979 0.0
C5648 C 0.35116 0.90552 0.01819 0.0
C5649 C 0.34408 0.91669 0.02299 0.0
N5650 N 0.35626 0.90623 0.00444 0.0
N5651 N 0.3461 0.91636 0.01641 0.0
H5652 H 0.8518 0.60042 0.77761 0.0
H5653 H 0.83605 0.59605 0.74048 0.0
H5654 H 0.83336 0.58934 0.77356 0.0
H5655 H 0.85175 0.61057 0.74525 0.0
H5656 H 0.83551 0.5929 0.75245 0.0
H5657 H 0.8524 0.60356 0.76561 0.0
C5658 C 0.84789 0.59863 0.77418 0.0
C5659 C 0.84252 0.59462 0.77658 0.0
C5660 C 0.83906 0.59678 0.75088 0.0
C5661 C 0.84316 0.59819 0.76287 0.0
C5662 C 0.83939 0.59857 0.74404 0.0
C5663 C 0.84395 0.60359 0.74186 0.0
C5664 C 0.84337 0.59998 0.75557 0.0
C5665 C 0.84815 0.60669 0.74671 0.0
C5666 C 0.84821 0.60045 0.76735 0.0
C5667 C 0.83755 0.5925 0.77194 0.0
N5668 N 0.84777 0.60482 0.75333 0.0
N5669 N 0.838 0.59429 0.7653 0.0
H5670 H 0.15156 0.09532 0.52991 0.0
H5671 H 0.16106 0.08864 0.49102 0.0
H5672 H 0.17091 0.08745 0.52338 0.0
H5673 H 0.14289 0.09906 0.49741 0.0
H5674 H 0.16458 0.08776 0.50287 0.0
H5675 H 0.14807 0.09626 0.51805 0.0
C5676 C 0.15506 0.09376 0.52598 0.0
C5677 C 0.16154 0.0913 0.52764 0.0
C5678 C 0.15983 0.09025 0.50168 0.0
C5679 C 0.1576 0.0924 0.51405 0.0
C5680 C 0.15781 0.09075 0.49491 0.0
C5681 C 0.15167 0.09393 0.49321 0.0
C5682 C 0.15565 0.09292 0.5068 0.0
C5683 C 0.14767 0.09658 0.49848 0.0
C5684 C 0.15309 0.09434 0.51921 0.0
C5685 C 0.1659 0.08944 0.52233 0.0
N5686 N 0.14972 0.09599 0.50503 0.0
N5687 N 0.16385 0.09001 0.51578 0.0
H5688 H 0.17217 0.9165 0.77395 0.0
H5689 H 0.15322 0.8951 0.74514 0.0
H5690 H 0.15358 0.90545 0.77737 0.0
H5691 H 0.16932 0.90935 0.74094 0.0
H5692 H 0.15375 0.89823 0.75711 0.0
H5693 H 0.17173 0.91328 0.76198 0.0
C5694 C 0.16801 0.91337 0.77219 0.0
C5695 C 0.1629 0.91125 0.77666 0.0
C5696 C 0.15716 0.90068 0.75357 0.0
C5697 C 0.16234 0.90756 0.76297 0.0
C5698 C 0.15687 0.89888 0.74673 0.0
C5699 C 0.16123 0.90197 0.74203 0.0
C5700 C 0.16188 0.90556 0.75574 0.0
C5701 C 0.16585 0.90685 0.74439 0.0
C5702 C 0.16774 0.91156 0.76535 0.0
C5703 C 0.15759 0.90726 0.77408 0.0
N5704 N 0.16607 0.90848 0.75108 0.0
N5705 N 0.15746 0.90553 0.76741 0.0
H5706 H 0.65224 0.41188 0.47645 0.0
H5707 H 0.66273 0.41872 0.51508 0.0
H5708 H 0.6719 0.41937 0.48253 0.0
H5709 H 0.64416 0.40871 0.50916 0.0
H5710 H 0.66591 0.4196 0.50314 0.0
H5711 H 0.64889 0.41135 0.48837 0.0
C5712 C 0.65584 0.41346 0.48029 0.0
C5713 C 0.66236 0.41567 0.47849 0.0
C5714 C 0.66114 0.41721 0.50445 0.0
C5715 C 0.65859 0.41502 0.49215 0.0
C5716 C 0.65932 0.41671 0.51127 0.0
C5717 C 0.65317 0.41363 0.51313 0.0
C5718 C 0.65678 0.41463 0.49944 0.0
C5719 C 0.64896 0.41111 0.50797 0.0
C5720 C 0.65394 0.41311 0.4871 0.0
C5721 C 0.66685 0.41756 0.48369 0.0
N5722 N 0.65083 0.41168 0.50136 0.0
N5723 N 0.66487 0.4172 0.49028 0.0
H5724 H 0.8526 0.39377 0.72552 0.0
H5725 H 0.84888 0.39517 0.76592 0.0
H5726 H 0.84061 0.40878 0.73602 0.0
H5727 H 0.86413 0.38334 0.7556 0.0
H5728 H 0.84475 0.3992 0.75495 0.0
H5729 H 0.8558 0.38886 0.73645 0.0
C5730 C 0.85058 0.39599 0.73013 0.0
C5731 C 0.84635 0.4017 0.72986 0.0
C5732 C 0.84898 0.3957 0.75508 0.0
C5733 C 0.85003 0.39613 0.74239 0.0
C5734 C 0.85133 0.39338 0.76135 0.0
C5735 C 0.85688 0.38893 0.76168 0.0
C5736 C 0.85217 0.39352 0.7491 0.0
C5737 C 0.85986 0.38679 0.75558 0.0
C5738 C 0.85245 0.39321 0.73636 0.0
C5739 C 0.84396 0.40442 0.73599 0.0
N5740 N 0.85747 0.38911 0.74954 0.0
N5741 N 0.84583 0.40161 0.742 0.0
H5742 H 0.66067 0.60395 0.22614 0.0
H5743 H 0.66636 0.59274 0.26476 0.0
H5744 H 0.66662 0.58377 0.23218 0.0
H5745 H 0.65804 0.61214 0.25891 0.0
H5746 H 0.66698 0.58955 0.25281 0.0
H5747 H 0.66024 0.60726 0.23808 0.0
C5748 C 0.66192 0.60023 0.22998 0.0
C5749 C 0.66368 0.59357 0.22816 0.0
C5750 C 0.66501 0.59451 0.25414 0.0
C5751 C 0.66315 0.59731 0.24184 0.0
C5752 C 0.66466 0.59634 0.26096 0.0
C5753 C 0.66214 0.60272 0.26284 0.0
C5754 C 0.66285 0.5991 0.24914 0.0
C5755 C 0.66001 0.60716 0.25769 0.0
C5756 C 0.66164 0.60211 0.23679 0.0
C5757 C 0.66517 0.58893 0.23335 0.0
N5758 N 0.66043 0.60527 0.25108 0.0
N5759 N 0.66488 0.59089 0.23995 0.0
H5760 H 0.53003 0.65312 0.88945 0.0
H5761 H 0.49288 0.64139 0.90089 0.0
H5762 H 0.52269 0.65486 0.90999 0.0
H5763 H 0.50112 0.63795 0.88091 0.0
H5764 H 0.50374 0.64629 0.90438 0.0
H5765 H 0.51944 0.64755 0.88626 0.0
C5766 C 0.52618 0.65234 0.89329 0.0
C5767 C 0.52723 0.65449 0.89999 0.0
C5768 C 0.50317 0.64444 0.89924 0.0
C5769 C 0.51509 0.64807 0.89638 0.0
C5770 C 0.49697 0.64164 0.89724 0.0
C5771 C 0.49608 0.63927 0.89059 0.0
C5772 C 0.50851 0.64489 0.89454 0.0
C5773 C 0.50157 0.63972 0.88608 0.0
C5774 C 0.52015 0.64912 0.89147 0.0
C5775 C 0.52211 0.65324 0.90478 0.0
N5776 N 0.50753 0.6425 0.88813 0.0
N5777 N 0.51624 0.65015 0.90287 0.0
H5778 H 0.59765 0.27786 0.15887 0.0
H5779 H 0.61364 0.254 0.13011 0.0
H5780 H 0.59932 0.28356 0.13781 0.0
H5781 H 0.61057 0.24749 0.15078 0.0
H5782 H 0.60873 0.265 0.13297 0.0
H5783 H 0.60275 0.26686 0.15616 0.0
C5784 C 0.59912 0.27681 0.15369 0.0
C5785 C 0.59803 0.28163 0.14856 0.0
C5786 C 0.60913 0.26117 0.13689 0.0
C5787 C 0.60384 0.26905 0.14541 0.0
C5788 C 0.61193 0.25488 0.13525 0.0
C5789 C 0.61251 0.24981 0.14021 0.0
C5790 C 0.60689 0.26242 0.14353 0.0
C5791 C 0.61022 0.25125 0.1468 0.0
C5792 C 0.602 0.27052 0.15213 0.0
C5793 C 0.59997 0.27997 0.14191 0.0
N5794 N 0.60751 0.25742 0.14827 0.0
N5795 N 0.60278 0.27383 0.14054 0.0
H5796 H 0.97737 0.3479 0.40868 0.0
H5797 H 1.00145 0.36345 0.37984 0.0
H5798 H 0.97181 0.34928 0.38755 0.0
H5799 H 0.00786 0.36056 0.40058 0.0
H5800 H 0.99041 0.35862 0.38271 0.0
H5801 H 0.9884 0.35293 0.40596 0.0
C5802 C 0.97846 0.34929 0.40347 0.0
C5803 C 0.97366 0.34814 0.39833 0.0
C5804 C 0.99423 0.35903 0.38664 0.0
C5805 C 0.98629 0.35387 0.39518 0.0
C5806 C 1.00054 0.3618 0.385 0.0
C5807 C 0.0056 0.3624 0.38998 0.0
C5808 C 0.99294 0.35687 0.3933 0.0
C5809 C 0.00412 0.36018 0.39658 0.0
C5810 C 0.98477 0.35212 0.40192 0.0
C5811 C 0.97538 0.34997 0.39167 0.0
N5812 N 0.99792 0.35751 0.39805 0.0
N5813 N 0.98154 0.35275 0.39029 0.0
H5814 H 0.89929 0.72062 0.64362 0.0
H5815 H 0.899 0.76077 0.64935 0.0
H5816 H 0.91387 0.73092 0.65629 0.0
H5817 H 0.88872 0.7509 0.63272 0.0
H5818 H 0.90366 0.74979 0.65281 0.0
H5819 H 0.89444 0.7316 0.64047 0.0
C5820 C 0.90143 0.7252 0.64578 0.0
C5821 C 0.90698 0.72487 0.65023 0.0
C5822 C 0.90039 0.75003 0.6484 0.0
C5823 C 0.90149 0.73745 0.64662 0.0
C5824 C 0.89771 0.75629 0.64643 0.0
C5825 C 0.89347 0.75675 0.64073 0.0
C5826 C 0.89875 0.74418 0.64469 0.0
C5827 C 0.89199 0.75079 0.63714 0.0
C5828 C 0.8987 0.73146 0.64394 0.0
C5829 C 0.90962 0.73096 0.6528 0.0
N5830 N 0.8946 0.74475 0.63919 0.0
N5831 N 0.90684 0.737 0.65098 0.0
H5832 H 0.53568 0.35878 0.61044 0.0
H5833 H 0.49548 0.357 0.60521 0.0
H5834 H 0.5258 0.34259 0.59952 0.0
H5835 H 0.50512 0.36942 0.62045 0.0
H5836 H 0.5066 0.35245 0.60209 0.0
H5837 H 0.52456 0.36358 0.61313 0.0
C5838 C 0.53116 0.35627 0.60856 0.0
C5839 C 0.53166 0.35028 0.60475 0.0
C5840 C 0.50627 0.35616 0.60612 0.0
C5841 C 0.51892 0.35573 0.60783 0.0
C5842 C 0.49993 0.35878 0.60789 0.0
C5843 C 0.49937 0.36359 0.61311 0.0
C5844 C 0.5121 0.35843 0.60954 0.0
C5845 C 0.50531 0.3657 0.61641 0.0
C5846 C 0.52482 0.35898 0.61014 0.0
C5847 C 0.52564 0.34718 0.60252 0.0
N5848 N 0.51143 0.36312 0.61456 0.0
N5849 N 0.51952 0.34995 0.60408 0.0
H5850 H 0.8953 0.28402 0.8603 0.0
H5851 H 0.89802 0.24406 0.85405 0.0
H5852 H 0.91115 0.27496 0.84824 0.0
H5853 H 0.88643 0.25292 0.87038 0.0
H5854 H 0.9021 0.25539 0.85099 0.0
H5855 H 0.89114 0.27268 0.86314 0.0
C5856 C 0.89787 0.27964 0.85821 0.0
C5857 C 0.90357 0.28043 0.85402 0.0
C5858 C 0.89867 0.25484 0.85525 0.0
C5859 C 0.89885 0.26744 0.85727 0.0
C5860 C 0.89632 0.24839 0.85699 0.0
C5861 C 0.89188 0.24754 0.86248 0.0
C5862 C 0.8965 0.2605 0.85898 0.0
C5863 C 0.88987 0.25332 0.86612 0.0
C5864 C 0.89552 0.27317 0.85987 0.0
C5865 C 0.90677 0.27457 0.85153 0.0
N5866 N 0.89217 0.25956 0.86428 0.0
N5867 N 0.90435 0.26832 0.85317 0.0
H5868 H 0.97933 0.6591 0.09401 0.0
H5869 H 0.00444 0.63964 0.11939 0.0
H5870 H 0.97377 0.65283 0.11423 0.0
H5871 H 0.01091 0.64823 0.10032 0.0
H5872 H 0.99298 0.64382 0.11724 0.0
H5873 H 0.99072 0.65449 0.09587 0.0
C5874 C 0.98049 0.65672 0.09883 0.0
C5875 C 0.9756 0.65637 0.10398 0.0
C5876 C 0.9969 0.64479 0.11352 0.0
C5877 C 0.98862 0.65112 0.10615 0.0
C5878 C 0.00345 0.6424 0.11474 0.0
C5879 C 0.00865 0.6436 0.11004 0.0
C5880 C 0.99552 0.6484 0.10754 0.0
C5881 C 0.00706 0.6472 0.1041 0.0
C5882 C 0.98701 0.65412 0.0999 0.0
C5883 C 0.97741 0.6533 0.11015 0.0
N5884 N 1.00064 0.64947 0.10302 0.0
N5885 N 0.98377 0.65079 0.11105 0.0
H5886 H 0.59273 0.73072 0.34778 0.0
H5887 H 0.61751 0.75117 0.37253 0.0
H5888 H 0.6063 0.721 0.36192 0.0
H5889 H 0.60811 0.76021 0.35495 0.0
H5890 H 0.61271 0.7402 0.36929 0.0
H5891 H 0.59757 0.74173 0.3509 0.0
C5892 C 0.59672 0.73091 0.35155 0.0
C5893 C 0.59913 0.72494 0.35458 0.0
C5894 C 0.61171 0.74458 0.36613 0.0
C5895 C 0.60468 0.7375 0.3582 0.0
C5896 C 0.61443 0.75085 0.36799 0.0
C5897 C 0.61321 0.75662 0.364 0.0
C5898 C 0.60768 0.74408 0.36028 0.0
C5899 C 0.60919 0.7559 0.35817 0.0
C5900 C 0.59951 0.73718 0.3533 0.0
C5901 C 0.60435 0.72547 0.3594 0.0
N5902 N 0.60655 0.74975 0.35649 0.0
N5903 N 0.60693 0.73164 0.36108 0.0
H5904 H 0.90369 0.5243 0.66464 0.0
H5905 H 0.87932 0.50419 0.63928 0.0
H5906 H 0.89175 0.53412 0.64916 0.0
H5907 H 0.89538 0.49444 0.65052 0.0
H5908 H 0.8832 0.51517 0.64351 0.0
H5909 H 0.90011 0.51325 0.6602 0.0
C5910 C 0.90032 0.52412 0.66031 0.0
C5911 C 0.89802 0.53013 0.65726 0.0
C5912 C 0.88589 0.51063 0.64504 0.0
C5913 C 0.89389 0.51753 0.65217 0.0
C5914 C 0.88366 0.50435 0.64264 0.0
C5915 C 0.88703 0.49838 0.64455 0.0
C5916 C 0.89148 0.51094 0.64944 0.0
C5917 C 0.89264 0.49891 0.64891 0.0
C5918 C 0.8983 0.51782 0.65776 0.0
C5919 C 0.8937 0.52961 0.65162 0.0
N5920 N 0.89467 0.50508 0.65123 0.0
N5921 N 0.89174 0.52343 0.64929 0.0
H5922 H 0.72792 0.65966 0.90544 0.0
H5923 H 0.75189 0.62967 0.8921 0.0
H5924 H 0.72221 0.63853 0.90547 0.0
H5925 H 0.7584 0.65053 0.89351 0.0
H5926 H 0.74089 0.63291 0.89677 0.0
H5927 H 0.73901 0.65652 0.9008 0.0
C5928 C 0.72899 0.65436 0.90445 0.0
C5929 C 0.72413 0.64935 0.90586 0.0
C5930 C 0.74472 0.63678 0.89606 0.0
C5931 C 0.73681 0.64571 0.90058 0.0
C5932 C 0.75101 0.63493 0.89339 0.0
C5933 C 0.75608 0.63983 0.89241 0.0
C5934 C 0.74347 0.64359 0.89776 0.0
C5935 C 0.75464 0.64658 0.89419 0.0
C5936 C 0.73533 0.65257 0.90184 0.0
C5937 C 0.72583 0.64256 0.90455 0.0
N5938 N 0.74847 0.64826 0.89677 0.0
N5939 N 0.73201 0.64094 0.90198 0.0
H5940 H 0.61969 0.4696 0.1536 0.0
H5941 H 0.60693 0.50673 0.14318 0.0
H5942 H 0.59896 0.47624 0.15597 0.0
H5943 H 0.62706 0.49913 0.13909 0.0
H5944 H 0.6039 0.49571 0.14801 0.0
H5945 H 0.62248 0.48051 0.14846 0.0
C5946 C 0.61573 0.47337 0.15307 0.0
C5947 C 0.60909 0.47201 0.15526 0.0
C5948 C 0.60897 0.49645 0.14604 0.0
C5949 C 0.61225 0.48453 0.14931 0.0
C5950 C 0.61071 0.50275 0.14328 0.0
C5951 C 0.61727 0.50387 0.14073 0.0
C5952 C 0.61383 0.49124 0.14628 0.0
C5953 C 0.62195 0.49851 0.141 0.0
C5954 C 0.61732 0.47959 0.15009 0.0
C5955 C 0.60414 0.47705 0.15431 0.0
N5956 N 0.62015 0.49245 0.14374 0.0
N5957 N 0.60582 0.4831 0.15144 0.0
H5958 H 0.77585 0.34971 0.41366 0.0
H5959 H 0.756 0.37223 0.38646 0.0
H5960 H 0.78589 0.36127 0.39803 0.0
H5961 H 0.74627 0.35659 0.39829 0.0
H5962 H 0.76694 0.36883 0.39118 0.0
H5963 H 0.76488 0.35271 0.40865 0.0
C5964 C 0.77574 0.35288 0.40917 0.0
C5965 C 0.78179 0.35524 0.40625 0.0
C5966 C 0.76242 0.36612 0.39273 0.0
C5967 C 0.76927 0.35871 0.40051 0.0
C5968 C 0.75616 0.36808 0.39005 0.0
C5969 C 0.75021 0.36469 0.39198 0.0
C5970 C 0.76272 0.36079 0.39744 0.0
C5971 C 0.75074 0.35933 0.39664 0.0
C5972 C 0.76949 0.35456 0.4063 0.0
C5973 C 0.78136 0.35928 0.40041 0.0
N5974 N 0.75688 0.35757 0.39924 0.0
N5975 N 0.77521 0.36093 0.39775 0.0
H5976 H 0.91092 0.48338 0.85007 0.0
H5977 H 0.88172 0.50497 0.86831 0.0
H5978 H 0.89033 0.47638 0.85259 0.0
H5979 H 0.90151 0.51306 0.86355 0.0
H5980 H 0.88511 0.49413 0.86339 0.0
H5981 H 0.90789 0.49394 0.85585 0.0
C5982 C 0.90578 0.48404 0.85188 0.0
C5983 C 0.90086 0.479 0.85081 0.0
C5984 C 0.88872 0.49827 0.86343 0.0
C5985 C 0.89735 0.49108 0.8574 0.0
C5986 C 0.88679 0.50446 0.86626 0.0
C5987 C 0.89133 0.50995 0.86632 0.0
C5988 C 0.89524 0.49753 0.86067 0.0
C5989 C 0.89783 0.50898 0.86359 0.0
C5990 C 0.90404 0.49009 0.85515 0.0
C5991 C 0.89426 0.48016 0.85321 0.0
N5992 N 0.89959 0.5029 0.86086 0.0
N5993 N 0.8927 0.48608 0.85639 0.0
H5994 H 0.78507 0.63676 0.10077 0.0
H5995 H 0.74804 0.64991 0.11108 0.0
H5996 H 0.77873 0.65759 0.09857 0.0
H5997 H 0.75531 0.62961 0.11491 0.0
H5998 H 0.75914 0.65284 0.10636 0.0
H5999 H 0.77408 0.63406 0.10579 0.0
C6000 C 0.78135 0.64076 0.10131 0.0
C6001 C 0.78281 0.6474 0.0992 0.0
C6002 C 0.75831 0.64775 0.10825 0.0
C6003 C 0.77021 0.64435 0.10502 0.0
C6004 C 0.75197 0.64607 0.11094 0.0
C6005 C 0.75073 0.6395 0.11339 0.0
C6006 C 0.76344 0.64282 0.10797 0.0
C6007 C 0.75602 0.63474 0.11308 0.0
C6008 C 0.77508 0.63922 0.10422 0.0
C6009 C 0.77783 0.65241 0.10016 0.0
N6010 N 0.76213 0.63649 0.11041 0.0
N6011 N 0.77174 0.65078 0.10297 0.0
H6012 H 0.61825 0.53554 0.34926 0.0
H6013 H 0.60604 0.49842 0.36038 0.0
H6014 H 0.59752 0.52871 0.34749 0.0
H6015 H 0.62618 0.50625 0.36397 0.0
H6016 H 0.60282 0.50934 0.35543 0.0
H6017 H 0.62127 0.52469 0.35438 0.0
C6018 C 0.61433 0.53173 0.34991 0.0
C6019 C 0.60762 0.53302 0.3479 0.0
C6020 C 0.60794 0.50867 0.35732 0.0
C6021 C 0.61104 0.52058 0.35384 0.0
C6022 C 0.60978 0.50244 0.36014 0.0
C6023 C 0.61639 0.50141 0.36259 0.0
C6024 C 0.61275 0.51392 0.35692 0.0
C6025 C 0.62103 0.5068 0.36215 0.0
C6026 C 0.61605 0.52555 0.35288 0.0
C6027 C 0.60274 0.52795 0.349 0.0
N6028 N 0.61912 0.51281 0.35935 0.0
N6029 N 0.60455 0.52194 0.35187 0.0
H6030 H 0.71874 0.36108 0.6086 0.0
H6031 H 0.75909 0.35677 0.60797 0.0
H6032 H 0.72924 0.34947 0.59332 0.0
H6033 H 0.74881 0.37241 0.61932 0.0
H6034 H 0.74814 0.35307 0.60342 0.0
H6035 H 0.72968 0.36427 0.61352 0.0
C6036 C 0.72335 0.35916 0.60632 0.0
C6037 C 0.72308 0.35501 0.60054 0.0
C6038 C 0.74829 0.35731 0.6069 0.0
C6039 C 0.73562 0.35866 0.60612 0.0
C6040 C 0.75453 0.35941 0.60952 0.0
C6041 C 0.75487 0.36492 0.61403 0.0
C6042 C 0.74233 0.36069 0.60886 0.0
C6043 C 0.7488 0.36816 0.61585 0.0
C6044 C 0.72959 0.36102 0.6091 0.0
C6045 C 0.72922 0.35273 0.59774 0.0
N6046 N 0.74278 0.36599 0.61327 0.0
N6047 N 0.73524 0.35457 0.60056 0.0
H6048 H 0.66229 0.90533 0.52545 0.0
H6049 H 0.63657 0.88068 0.50607 0.0
H6050 H 0.64771 0.89265 0.53573 0.0
H6051 H 0.64731 0.89693 0.49608 0.0
H6052 H 0.64118 0.88449 0.51693 0.0
H6053 H 0.65744 0.90182 0.51456 0.0
C6054 C 0.65807 0.9018 0.52541 0.0
C6055 C 0.65539 0.89928 0.5315 0.0
C6056 C 0.64251 0.88724 0.51237 0.0
C6057 C 0.64984 0.89523 0.51908 0.0
C6058 C 0.6399 0.88505 0.50616 0.0
C6059 C 0.64156 0.88849 0.50016 0.0
C6060 C 0.64688 0.89287 0.51258 0.0
C6061 C 0.64589 0.89414 0.50059 0.0
C6062 C 0.65529 0.89983 0.5192 0.0
C6063 C 0.64988 0.89477 0.53116 0.0
N6064 N 0.64842 0.89613 0.50668 0.0
N6065 N 0.64732 0.89287 0.52506 0.0
H6066 H 0.15733 0.59642 0.47636 0.0
H6067 H 0.14274 0.6252 0.5011 0.0
H6068 H 0.1567 0.61772 0.47134 0.0
H6069 H 0.14468 0.60418 0.50694 0.0
H6070 H 0.14758 0.62244 0.49005 0.0
H6071 H 0.15236 0.59904 0.48744 0.0
C6072 C 0.15612 0.60164 0.47758 0.0
C6073 C 0.15746 0.60686 0.47292 0.0
C6074 C 0.14695 0.61843 0.49374 0.0
C6075 C 0.15181 0.6099 0.4856 0.0
C6076 C 0.14418 0.62 0.50006 0.0
C6077 C 0.1433 0.61491 0.50496 0.0
C6078 C 0.14884 0.61171 0.49228 0.0
C6079 C 0.14527 0.60827 0.50332 0.0
C6080 C 0.15332 0.60314 0.48392 0.0
C6081 C 0.15586 0.61354 0.4748 0.0
N6082 N 0.14794 0.60686 0.49711 0.0
N6083 N 0.15312 0.61486 0.48098 0.0
H6084 H 0.63737 0.90762 0.72241 0.0
H6085 H 0.65077 0.89495 0.75861 0.0
H6086 H 0.65846 0.90816 0.72828 0.0
H6087 H 0.63001 0.893 0.75191 0.0
H6088 H 0.65367 0.90009 0.7477 0.0
H6089 H 0.63456 0.90261 0.73337 0.0
C6090 C 0.64141 0.90673 0.72602 0.0
C6091 C 0.64816 0.90834 0.72442 0.0
C6092 C 0.64848 0.89853 0.74861 0.0
C6093 C 0.64498 0.90252 0.73699 0.0
C6094 C 0.64682 0.8956 0.75485 0.0
C6095 C 0.64013 0.89353 0.75618 0.0
C6096 C 0.64342 0.89942 0.74368 0.0
C6097 C 0.63523 0.89451 0.75111 0.0
C6098 C 0.6398 0.90382 0.73227 0.0
C6099 C 0.65319 0.90694 0.72927 0.0
N6100 N 0.63697 0.89738 0.74509 0.0
N6101 N 0.6515 0.90413 0.73534 0.0
H6102 H 0.34646 0.38769 0.97107 0.0
H6103 H 0.35721 0.40113 0.00787 0.0
H6104 H 0.34451 0.40861 0.9772 0.0
H6105 H 0.36114 0.38084 1.00063 0.0
H6106 H 0.35213 0.40392 0.99689 0.0
H6107 H 0.3514 0.38503 0.9821 0.0
C6108 C 0.34703 0.39172 0.97476 0.0
C6109 C 0.34504 0.39838 0.97321 0.0
C6110 C 0.35411 0.39886 0.9977 0.0
C6111 C 0.35076 0.39538 0.98587 0.0
C6112 C 0.357 0.39726 0.00398 0.0
C6113 C 0.35961 0.39074 0.00517 0.0
C6114 C 0.3538 0.3939 0.9926 0.0
C6115 C 0.3592 0.38593 0.99994 0.0
C6116 C 0.34989 0.39021 0.98104 0.0
C6117 C 0.34602 0.40342 0.97815 0.0
N6118 N 0.35635 0.38761 0.9939 0.0
N6119 N 0.3488 0.40181 0.98427 0.0
H6120 H 0.36278 0.60722 0.71962 0.0
H6121 H 0.35582 0.60834 0.75957 0.0
H6122 H 0.34873 0.59378 0.72967 0.0
H6123 H 0.37305 0.61794 0.75005 0.0
H6124 H 0.35247 0.60372 0.74855 0.0
H6125 H 0.3659 0.612 0.73063 0.0
C6126 C 0.36032 0.60531 0.72415 0.0
C6127 C 0.35548 0.6001 0.72374 0.0
C6128 C 0.35699 0.60683 0.74888 0.0
C6129 C 0.35905 0.60554 0.73635 0.0
C6130 C 0.35889 0.60949 0.75516 0.0
C6131 C 0.36473 0.61353 0.75574 0.0
C6132 C 0.36091 0.60828 0.74311 0.0
C6133 C 0.36852 0.61484 0.74985 0.0
C6134 C 0.36214 0.60801 0.73043 0.0
C6135 C 0.35252 0.59775 0.72977 0.0
N6136 N 0.36653 0.61224 0.74379 0.0
N6137 N 0.35434 0.6005 0.73583 0.0
H6138 H 0.84286 0.09721 0.02551 0.0
H6139 H 0.86472 0.1238 0.00394 0.0
H6140 H 0.85357 0.11412 0.03437 0.0
H6141 H 0.85727 0.10491 0.99573 0.0
H6142 H 0.86003 0.12069 0.01498 0.0
H6143 H 0.84746 0.10031 0.0144 0.0
C6144 C 0.84616 0.10159 0.02511 0.0
C6145 C 0.84785 0.10541 0.03088 0.0
C6146 C 0.85943 0.11722 0.01077 0.0
C6147 C 0.85312 0.10898 0.01819 0.0
C6148 C 0.86209 0.119 0.00446 0.0
C6149 C 0.86139 0.11461 0.9989 0.0
C6150 C 0.856 0.11102 0.01154 0.0
C6151 C 0.85794 0.10845 0.99988 0.0
C6152 C 0.84881 0.10333 0.01878 0.0
C6153 C 0.8522 0.11099 0.03008 0.0
N6154 N 0.85536 0.10685 0.00607 0.0
N6155 N 0.85467 0.11262 0.02385 0.0
H6156 H 0.65995 0.09763 0.77805 0.0
H6157 H 0.63003 0.11282 0.75509 0.0
H6158 H 0.63891 0.09812 0.7841 0.0
H6159 H 0.65062 0.11053 0.748 0.0
H6160 H 0.63335 0.10789 0.76594 0.0
H6161 H 0.6568 0.10285 0.76722 0.0
C6162 C 0.65468 0.09886 0.77712 0.0
C6163 C 0.64968 0.09741 0.78198 0.0
C6164 C 0.63715 0.10846 0.76202 0.0
C6165 C 0.64604 0.10335 0.7696 0.0
C6166 C 0.63525 0.11129 0.75582 0.0
C6167 C 0.64005 0.11208 0.75062 0.0
C6168 C 0.6439 0.10643 0.76307 0.0
C6169 C 0.64675 0.11 0.75186 0.0
C6170 C 0.65288 0.10181 0.77092 0.0
C6171 C 0.64292 0.09906 0.78046 0.0
N6172 N 0.64848 0.10727 0.75796 0.0
N6173 N 0.6413 0.10194 0.77442 0.0
H6174 H 0.86783 0.90931 0.28309 0.0
H6175 H 0.85599 0.89548 0.24677 0.0
H6176 H 0.84687 0.90846 0.27681 0.0
H6177 H 0.87667 0.89484 0.25394 0.0
H6178 H 0.85254 0.90056 0.25755 0.0
H6179 H 0.87116 0.90439 0.27224 0.0
C6180 C 0.86392 0.90813 0.2794 0.0
C6181 C 0.85705 0.90933 0.28086 0.0
C6182 C 0.85783 0.8993 0.25677 0.0
C6183 C 0.86084 0.90361 0.26842 0.0
C6184 C 0.85981 0.89641 0.2506 0.0
C6185 C 0.86663 0.89473 0.24945 0.0
C6186 C 0.86272 0.90055 0.2618 0.0
C6187 C 0.87135 0.89604 0.25461 0.0
C6188 C 0.86583 0.90528 0.27322 0.0
C6189 C 0.85221 0.90757 0.27593 0.0
N6190 N 0.86931 0.89888 0.26055 0.0
N6191 N 0.8542 0.90482 0.26992 0.0
H6192 H 0.48345 0.33269 0.08821 0.0
H6193 H 0.51031 0.36218 0.09588 0.0
H6194 H 0.4778 0.35309 0.09378 0.0
H6195 H 0.51585 0.34261 0.08776 0.0
H6196 H 0.49839 0.35879 0.09557 0.0
H6197 H 0.49539 0.33606 0.08849 0.0
C6198 C 0.48472 0.33787 0.08952 0.0
C6199 C 0.47962 0.34262 0.09097 0.0
C6200 C 0.50221 0.35524 0.09385 0.0
C6201 C 0.49326 0.34652 0.09127 0.0
C6202 C 0.50902 0.35717 0.09403 0.0
C6203 C 0.51409 0.35268 0.09184 0.0
C6204 C 0.50045 0.34875 0.09149 0.0
C6205 C 0.51212 0.34625 0.08949 0.0
C6206 C 0.49153 0.3398 0.08964 0.0
C6207 C 0.48156 0.34929 0.09255 0.0
N6208 N 0.50545 0.34447 0.08939 0.0
N6209 N 0.48822 0.35103 0.09267 0.0
H6210 H 0.40356 0.72748 0.85275 0.0
H6211 H 0.40658 0.7641 0.83555 0.0
H6212 H 0.41315 0.73095 0.8334 0.0
H6213 H 0.39363 0.7599 0.8527 0.0
H6214 H 0.40959 0.75208 0.83505 0.0
H6215 H 0.40043 0.73948 0.85321 0.0
C6216 C 0.40502 0.73078 0.84861 0.0
C6217 C 0.40862 0.72822 0.84303 0.0
C6218 C 0.40608 0.75379 0.83891 0.0
C6219 C 0.40504 0.74194 0.8435 0.0
C6220 C 0.40437 0.76065 0.83921 0.0
C6221 C 0.39984 0.763 0.84417 0.0
C6222 C 0.40328 0.74925 0.84364 0.0
C6223 C 0.39713 0.7583 0.84878 0.0
C6224 C 0.4032 0.73761 0.84885 0.0
C6225 C 0.41031 0.7327 0.83776 0.0
N6226 N 0.39891 0.75165 0.84841 0.0
N6227 N 0.40854 0.73934 0.83814 0.0
H6228 H 0.03026 0.6573 0.60215 0.0
H6229 H 0.9925 0.65747 0.58727 0.0
H6230 H 0.02497 0.66599 0.58278 0.0
H6231 H 0.99866 0.6451 0.60425 0.0
H6232 H 0.00421 0.66136 0.58602 0.0
H6233 H 0.01851 0.6535 0.6035 0.0
C6234 C 0.02661 0.65843 0.5982 0.0
C6235 C 0.02859 0.66196 0.59234 0.0
C6236 C 0.003 0.65779 0.59002 0.0
C6237 C 0.01516 0.65763 0.59384 0.0
C6238 C 0.99631 0.65558 0.59074 0.0
C6239 C 0.9946 0.65095 0.59587 0.0
C6240 C 0.00801 0.65539 0.59448 0.0
C6241 C 0.99975 0.64866 0.60022 0.0
C6242 C 0.01993 0.65623 0.59895 0.0
C6243 C 0.02368 0.66322 0.58734 0.0
N6244 N 0.00622 0.65092 0.59944 0.0
N6245 N 0.01719 0.66108 0.58822 0.0
H6246 H 0.1001 0.27798 0.3535 0.0
H6247 H 0.09686 0.24102 0.33707 0.0
H6248 H 0.08934 0.274 0.33486 0.0
H6249 H 0.11076 0.24584 0.3533 0.0
H6250 H 0.09344 0.25293 0.33664 0.0
H6251 H 0.10343 0.26605 0.35399 0.0
C6252 C 0.09841 0.27459 0.34953 0.0
C6253 C 0.09443 0.27698 0.34414 0.0
C6254 C 0.09724 0.25138 0.34029 0.0
C6255 C 0.09825 0.26333 0.34464 0.0
C6256 C 0.09919 0.24458 0.34055 0.0
C6257 C 0.10411 0.24243 0.34522 0.0
C6258 C 0.1002 0.25607 0.34477 0.0
C6259 C 0.10696 0.24727 0.3496 0.0
C6260 C 0.10035 0.26778 0.34979 0.0
C6261 C 0.09247 0.27238 0.33908 0.0
N6262 N 0.10495 0.25386 0.34928 0.0
N6263 N 0.09437 0.26576 0.33947 0.0
H6264 H 0.47674 0.6508 0.40995 0.0
H6265 H 0.5153 0.66262 0.41476 0.0
H6266 H 0.48256 0.6713 0.41497 0.0
H6267 H 0.50956 0.64313 0.4066 0.0
H6268 H 0.50331 0.66569 0.41551 0.0
H6269 H 0.48873 0.64767 0.40939 0.0
C6270 C 0.48055 0.65463 0.41098 0.0
C6271 C 0.47865 0.66132 0.41251 0.0
C6272 C 0.50468 0.66075 0.41355 0.0
C6273 C 0.49238 0.65779 0.41184 0.0
C6274 C 0.51152 0.65898 0.41313 0.0
C6275 C 0.51344 0.65261 0.41061 0.0
C6276 C 0.4997 0.65609 0.41147 0.0
C6277 C 0.50832 0.6481 0.40856 0.0
C6278 C 0.48739 0.65286 0.41061 0.0
C6279 C 0.4838 0.6661 0.4137 0.0
N6280 N 0.50168 0.64992 0.40905 0.0
N6281 N 0.49043 0.66424 0.41335 0.0
H6282 H 0.09001 0.72983 0.17261 0.0
H6283 H 0.11146 0.7573 0.15186 0.0
H6284 H 0.0988 0.72586 0.15297 0.0
H6285 H 0.0991 0.76229 0.16923 0.0
H6286 H 0.10745 0.74558 0.15254 0.0
H6287 H 0.09391 0.74158 0.17184 0.0
C6288 C 0.09279 0.73143 0.16815 0.0
C6289 C 0.09409 0.72687 0.16285 0.0
C6290 C 0.10561 0.74924 0.15619 0.0
C6291 C 0.09855 0.7403 0.16192 0.0
C6292 C 0.10791 0.75593 0.15582 0.0
C6293 C 0.10561 0.76078 0.1605 0.0
C6294 C 0.10102 0.74738 0.16132 0.0
C6295 C 0.10099 0.75872 0.16551 0.0
C6296 C 0.09497 0.73815 0.16769 0.0
C6297 C 0.09763 0.72923 0.15714 0.0
N6298 N 0.09887 0.75217 0.1658 0.0
N6299 N 0.09976 0.73578 0.15684 0.0
H6300 H 0.02781 0.35051 0.89941 0.0
H6301 H 0.99035 0.34755 0.91477 0.0
H6302 H 0.02333 0.34076 0.91848 0.0
H6303 H 0.99547 0.3606 0.89796 0.0
H6304 H 1.00228 0.34431 0.91572 0.0
H6305 H 0.01583 0.35357 0.8983 0.0
C6306 C 0.0243 0.34899 0.90335 0.0
C6307 C 0.02657 0.34538 0.90905 0.0
C6308 C 1.0008 0.34788 0.91183 0.0
C6309 C 0.01287 0.34887 0.90783 0.0
C6310 C 0.99398 0.34972 0.91127 0.0
C6311 C 0.99191 0.35436 0.90628 0.0
C6312 C 0.00558 0.35067 0.90734 0.0
C6313 C 0.99684 0.35702 0.90189 0.0
C6314 C 0.01747 0.35077 0.90274 0.0
C6315 C 0.02181 0.34361 0.91404 0.0
N6316 N 0.00344 0.35513 0.90251 0.0
N6317 N 0.01518 0.34536 0.91331 0.0
H6318 H 0.41711 0.27532 0.67287 0.0
H6319 H 0.39501 0.24759 0.65315 0.0
H6320 H 0.40669 0.27941 0.65407 0.0
H6321 H 0.4089 0.24264 0.66934 0.0
H6322 H 0.39861 0.25944 0.65387 0.0
H6323 H 0.41349 0.26348 0.67216 0.0
C6324 C 0.41404 0.27373 0.66861 0.0
C6325 C 0.4122 0.27835 0.66352 0.0
C6326 C 0.40088 0.25575 0.65726 0.0
C6327 C 0.40805 0.26481 0.66265 0.0
C6328 C 0.39882 0.24899 0.65686 0.0
C6329 C 0.40166 0.24412 0.6612 0.0
C6330 C 0.40578 0.25767 0.66206 0.0
C6331 C 0.40658 0.24622 0.66589 0.0
C6332 C 0.412 0.26696 0.66818 0.0
C6333 C 0.40827 0.276 0.65806 0.0
N6334 N 0.40847 0.25285 0.66622 0.0
N6335 N 0.40631 0.2694 0.65779 0.0
H6336 H 0.10319 0.47648 0.3492 0.0
H6337 H 0.08564 0.51302 0.3472 0.0
H6338 H 0.08413 0.48013 0.33906 0.0
H6339 H 0.10235 0.50835 0.36057 0.0
H6340 H 0.08547 0.50118 0.34351 0.0
H6341 H 0.10345 0.48837 0.35272 0.0
C6342 C 0.09908 0.4798 0.34768 0.0
C6343 C 0.09363 0.47732 0.34383 0.0
C6344 C 0.08916 0.50275 0.34725 0.0
C6345 C 0.09388 0.49092 0.34787 0.0
C6346 C 0.08928 0.50951 0.34936 0.0
C6347 C 0.09401 0.51168 0.35421 0.0
C6348 C 0.09385 0.49813 0.34998 0.0
C6349 C 0.0986 0.5069 0.35683 0.0
C6350 C 0.09921 0.48657 0.34973 0.0
C6351 C 0.0884 0.48182 0.34208 0.0
N6352 N 0.09842 0.50036 0.35467 0.0
N6353 N 0.08866 0.48841 0.3441 0.0
H6354 H 0.27534 0.3331 0.0896 0.0
H6355 H 0.24859 0.35503 0.11082 0.0
H6356 H 0.28007 0.35245 0.09866 0.0
H6357 H 0.24298 0.33774 0.09861 0.0
H6358 H 0.2603 0.35379 0.10696 0.0
H6359 H 0.26359 0.33431 0.09344 0.0
C6360 C 0.27391 0.33759 0.09242 0.0
C6361 C 0.27868 0.34268 0.09381 0.0
C6362 C 0.25651 0.35028 0.10512 0.0
C6363 C 0.26527 0.34412 0.0982 0.0
C6364 C 0.24982 0.35097 0.10733 0.0
C6365 C 0.24479 0.34648 0.10503 0.0
C6366 C 0.2582 0.34503 0.10061 0.0
C6367 C 0.24668 0.34132 0.1005 0.0
C6368 C 0.2672 0.3383 0.09458 0.0
C6369 C 0.27654 0.34844 0.09741 0.0
N6370 N 0.25324 0.34072 0.09846 0.0
N6371 N 0.26999 0.34899 0.0995 0.0
H6372 H 0.42191 0.52412 0.84118 0.0
H6373 H 0.4031 0.49559 0.86303 0.0
H6374 H 0.40255 0.52726 0.8509 0.0
H6375 H 0.41993 0.49138 0.84966 0.0
H6376 H 0.40327 0.50742 0.85931 0.0
H6377 H 0.42175 0.5123 0.84495 0.0
C6378 C 0.41764 0.52232 0.84414 0.0
C6379 C 0.41224 0.52667 0.84574 0.0
C6380 C 0.40692 0.5039 0.85718 0.0
C6381 C 0.412 0.51316 0.85004 0.0
C6382 C 0.40683 0.49715 0.85932 0.0
C6383 C 0.4115 0.49249 0.85665 0.0
C6384 C 0.41174 0.50602 0.85239 0.0
C6385 C 0.41622 0.4948 0.85185 0.0
C6386 C 0.41753 0.51557 0.84625 0.0
C6387 C 0.40679 0.52406 0.8495 0.0
N6388 N 0.41624 0.50141 0.84989 0.0
N6389 N 0.40682 0.51747 0.85155 0.0
H6390 H 0.22718 0.6503 0.59935 0.0
H6391 H 0.26375 0.66721 0.59467 0.0
H6392 H 0.23039 0.66902 0.58847 0.0
H6393 H 0.25952 0.65147 0.60929 0.0
H6394 H 0.25172 0.66742 0.59162 0.0
H6395 H 0.23922 0.6501 0.60231 0.0
C6396 C 0.23043 0.65435 0.59756 0.0
C6397 C 0.22779 0.65968 0.59365 0.0
C6398 C 0.25343 0.66393 0.59551 0.0
C6399 C 0.24156 0.65949 0.59704 0.0
C6400 C 0.26029 0.6638 0.59724 0.0
C6401 C 0.26264 0.65932 0.60225 0.0
C6402 C 0.24888 0.65952 0.59877 0.0
C6403 C 0.25793 0.65502 0.60541 0.0
C6404 C 0.23729 0.65426 0.59929 0.0
C6405 C 0.23221 0.66485 0.59154 0.0
N6406 N 0.25128 0.65521 0.6036 0.0
N6407 N 0.23889 0.66461 0.59324 0.0
H6408 H 0.09449 0.5298 0.14961 0.0
H6409 H 0.08867 0.49144 0.16155 0.0
H6410 H 0.08934 0.52419 0.17012 0.0
H6411 H 0.09733 0.49685 0.14218 0.0
H6412 H 0.08828 0.50345 0.16458 0.0
H6413 H 0.09491 0.51778 0.14657 0.0
C6414 C 0.09342 0.52603 0.15347 0.0
C6415 C 0.09188 0.52799 0.16013 0.0
C6416 C 0.09028 0.50201 0.15967 0.0
C6417 C 0.09238 0.51423 0.1567 0.0
C6418 C 0.09049 0.49516 0.15793 0.0
C6419 C 0.09304 0.49314 0.1516 0.0
C6420 C 0.09259 0.5069 0.15503 0.0
C6421 C 0.09534 0.49817 0.14712 0.0
C6422 C 0.0937 0.51918 0.15174 0.0
C6423 C 0.09062 0.5229 0.16494 0.0
N6424 N 0.09504 0.50482 0.14892 0.0
N6425 N 0.09087 0.51626 0.16313 0.0
H6426 H 0.23163 0.33751 0.92053 0.0
H6427 H 0.25811 0.34611 0.89099 0.0
H6428 H 0.22567 0.34319 0.90025 0.0
H6429 H 0.26387 0.33708 0.91009 0.0
H6430 H 0.24623 0.34568 0.89451 0.0
H6431 H 0.24353 0.33795 0.91702 0.0
C6432 C 0.23283 0.33887 0.91534 0.0
C6433 C 0.22766 0.34032 0.91067 0.0
C6434 C 0.25009 0.34378 0.89792 0.0
C6435 C 0.24125 0.3408 0.90662 0.0
C6436 C 0.25688 0.34404 0.89593 0.0
C6437 C 0.26199 0.34163 0.90025 0.0
C6438 C 0.2484 0.34113 0.90432 0.0
C6439 C 0.26009 0.33899 0.90659 0.0
C6440 C 0.23962 0.33909 0.91333 0.0
C6441 C 0.22949 0.34197 0.904 0.0
N6442 N 0.25345 0.33883 0.90843 0.0
N6443 N 0.23614 0.34219 0.90217 0.0
H6444 H 0.40947 0.47715 0.64893 0.0
H6445 H 0.41618 0.51534 0.66098 0.0
H6446 H 0.4161 0.48248 0.6691 0.0
H6447 H 0.40644 0.51018 0.64206 0.0
H6448 H 0.41688 0.50328 0.66376 0.0
H6449 H 0.4091 0.4892 0.64601 0.0
C6450 C 0.41089 0.48085 0.65273 0.0
C6451 C 0.41281 0.47881 0.65927 0.0
C6452 C 0.41459 0.50479 0.659 0.0
C6453 C 0.41235 0.4926 0.65598 0.0
C6454 C 0.41419 0.51167 0.65741 0.0
C6455 C 0.41124 0.51377 0.65128 0.0
C6456 C 0.41205 0.49996 0.65442 0.0
C6457 C 0.40875 0.50879 0.64685 0.0
C6458 C 0.41063 0.48773 0.65107 0.0
C6459 C 0.41451 0.48383 0.66402 0.0
N6460 N 0.40922 0.50211 0.6485 0.0
N6461 N 0.41425 0.4905 0.66227 0.0
H6462 H 0.27734 0.65353 0.40864 0.0
H6463 H 0.2411 0.67173 0.40838 0.0
H6464 H 0.27392 0.67337 0.41721 0.0
H6465 H 0.24611 0.65459 0.39572 0.0
H6466 H 0.25281 0.67191 0.41253 0.0
H6467 H 0.26557 0.65329 0.40478 0.0
C6468 C 0.27409 0.65781 0.40975 0.0
C6469 C 0.2766 0.66347 0.41326 0.0
C6470 C 0.25134 0.66812 0.40883 0.0
C6471 C 0.26313 0.66326 0.40882 0.0
C6472 C 0.24466 0.668 0.40648 0.0
C6473 C 0.24263 0.66314 0.40169 0.0
C6474 C 0.256 0.6633 0.40643 0.0
C6475 C 0.24745 0.65844 0.39939 0.0
C6476 C 0.26739 0.6577 0.4075 0.0
C6477 C 0.2722 0.66893 0.41447 0.0
N6478 N 0.25391 0.65862 0.4018 0.0
N6479 N 0.26566 0.66868 0.41227 0.0
H6480 H 0.333 0.08592 0.48136 0.0
H6481 H 0.36127 0.09817 0.50784 0.0
H6482 H 0.35217 0.09467 0.47542 0.0
H6483 H 0.34318 0.08724 0.5136 0.0
H6484 H 0.35783 0.09734 0.49597 0.0
H6485 H 0.33644 0.08678 0.49324 0.0
C6486 C 0.33793 0.08804 0.48256 0.0
C6487 C 0.34231 0.09023 0.47739 0.0
C6488 C 0.35461 0.09511 0.49983 0.0
C6489 C 0.34629 0.0912 0.49098 0.0
C6490 C 0.35657 0.0956 0.50661 0.0
C6491 C 0.35251 0.09276 0.51172 0.0
C6492 C 0.34853 0.0918 0.49813 0.0
C6493 C 0.34647 0.08949 0.50982 0.0
C6494 C 0.3399 0.0885 0.48934 0.0
C6495 C 0.34866 0.09286 0.47924 0.0
N6496 N 0.34467 0.0891 0.50319 0.0
N6497 N 0.35046 0.09329 0.48588 0.0
H6498 H 0.83425 0.41953 0.52352 0.0
H6499 H 0.86306 0.40736 0.49762 0.0
H6500 H 0.85354 0.41132 0.52983 0.0
H6501 H 0.84487 0.41787 0.49141 0.0
H6502 H 0.8595 0.40844 0.50943 0.0
H6503 H 0.83788 0.41863 0.5117 0.0
C6504 C 0.83925 0.41752 0.52241 0.0
C6505 C 0.8436 0.41549 0.52767 0.0
C6506 C 0.85629 0.41052 0.50549 0.0
C6507 C 0.8478 0.41447 0.51415 0.0
C6508 C 0.85831 0.4099 0.49874 0.0
C6509 C 0.85425 0.41253 0.49352 0.0
C6510 C 0.85014 0.41377 0.50704 0.0
C6511 C 0.84816 0.41577 0.49527 0.0
C6512 C 0.84133 0.41704 0.51567 0.0
C6513 C 0.85005 0.41301 0.52595 0.0
N6514 N 0.84628 0.41629 0.50188 0.0
N6515 N 0.85194 0.41255 0.51934 0.0
H6516 H 0.35133 0.10047 0.27923 0.0
H6517 H 0.33558 0.09786 0.24194 0.0
H6518 H 0.33236 0.09045 0.27486 0.0
H6519 H 0.35196 0.11142 0.24717 0.0
H6520 H 0.33479 0.09443 0.25383 0.0
H6521 H 0.35213 0.10387 0.26733 0.0
C6522 C 0.34734 0.09897 0.27575 0.0
C6523 C 0.34177 0.09517 0.27803 0.0
C6524 C 0.33855 0.09817 0.25237 0.0
C6525 C 0.34264 0.09906 0.26442 0.0
C6526 C 0.33902 0.10011 0.24558 0.0
C6527 C 0.34384 0.10494 0.24356 0.0
C6528 C 0.34298 0.10103 0.25717 0.0
C6529 C 0.34816 0.1077 0.24851 0.0
C6530 C 0.34778 0.10094 0.26897 0.0
C6531 C 0.33671 0.09343 0.27333 0.0
N6532 N 0.34763 0.10569 0.25508 0.0
N6533 N 0.33728 0.09537 0.26674 0.0
H6534 H 0.67195 0.59071 0.02179 0.0
H6535 H 0.64339 0.60135 0.99492 0.0
H6536 H 0.65192 0.59749 0.02744 0.0
H6537 H 0.66265 0.59258 0.9893 0.0
H6538 H 0.64657 0.60035 0.00686 0.0
H6539 H 0.66878 0.59173 0.00985 0.0
C6540 C 0.66689 0.59243 0.02052 0.0
C6541 C 0.6622 0.59402 0.02562 0.0
C6542 C 0.6501 0.59864 0.00301 0.0
C6543 C 0.65852 0.59517 0.01196 0.0
C6544 C 0.6483 0.59922 0.99619 0.0
C6545 C 0.65276 0.59704 0.9911 0.0
C6546 C 0.65644 0.59588 0.00476 0.0
C6547 C 0.65905 0.59432 0.99306 0.0
C6548 C 0.66507 0.59298 0.0137 0.0
C6549 C 0.65568 0.59614 0.02368 0.0
N6550 N 0.6607 0.59382 0.99973 0.0
N6551 N 0.65404 0.59667 0.017 0.0
H6552 H 0.65273 0.40364 0.27854 0.0
H6553 H 0.67045 0.40551 0.2421 0.0
H6554 H 0.67216 0.41311 0.27506 0.0
H6555 H 0.65341 0.39248 0.24653 0.0
H6556 H 0.67073 0.40897 0.254 0.0
H6557 H 0.65245 0.40013 0.26664 0.0
C6558 C 0.65693 0.40499 0.27526 0.0
C6559 C 0.66248 0.40867 0.27778 0.0
C6560 C 0.66694 0.40535 0.25237 0.0
C6561 C 0.6622 0.40466 0.26418 0.0
C6562 C 0.66676 0.40338 0.24557 0.0
C6563 C 0.6619 0.39869 0.24332 0.0
C6564 C 0.66219 0.40265 0.25694 0.0
C6565 C 0.65726 0.39609 0.24805 0.0
C6566 C 0.65679 0.40296 0.26848 0.0
C6567 C 0.66782 0.41022 0.27334 0.0
N6568 N 0.6575 0.39812 0.25463 0.0
N6569 N 0.66754 0.40823 0.26674 0.0
H6570 H 0.16473 0.92231 0.98014 0.0
H6571 H 0.14267 0.90329 0.00837 0.0
H6572 H 0.15434 0.90338 0.97653 0.0
H6573 H 0.15665 0.91953 0.0129 0.0
H6574 H 0.14622 0.90373 0.9965 0.0
H6575 H 0.16111 0.92189 0.99199 0.0
C6576 C 0.16165 0.91808 0.98184 0.0
C6577 C 0.15982 0.91287 0.97735 0.0
C6578 C 0.14851 0.90719 1.00009 0.0
C6579 C 0.15568 0.91235 0.9909 0.0
C6580 C 0.14648 0.90696 0.00687 0.0
C6581 C 0.14937 0.91138 0.01164 0.0
C6582 C 0.15343 0.91193 0.99806 0.0
C6583 C 0.15429 0.91602 0.0094 0.0
C6584 C 0.15962 0.91782 0.98861 0.0
C6585 C 0.15591 0.90747 0.97984 0.0
N6586 N 0.15615 0.91618 0.00277 0.0
N6587 N 0.15395 0.90736 0.98644 0.0
H6588 H 0.33117 0.9159 0.2313 0.0
H6589 H 0.35297 0.89484 0.25827 0.0
H6590 H 0.35079 0.9073 0.22683 0.0
H6591 H 0.33578 0.90725 0.26376 0.0
H6592 H 0.3518 0.89865 0.24653 0.0
H6593 H 0.33228 0.91202 0.24304 0.0
C6594 C 0.33569 0.91317 0.23279 0.0
C6595 C 0.3409 0.91193 0.22809 0.0
C6596 C 0.34829 0.90055 0.25031 0.0
C6597 C 0.34222 0.90749 0.2415 0.0
C6598 C 0.34895 0.89837 0.25701 0.0
C6599 C 0.34447 0.90074 0.262 0.0
C6600 C 0.34308 0.90509 0.24857 0.0
C6601 C 0.33936 0.90531 0.26008 0.0
C6602 C 0.33635 0.91099 0.23949 0.0
C6603 C 0.34669 0.90842 0.23031 0.0
N6604 N 0.33879 0.90732 0.25351 0.0
N6605 N 0.34719 0.90631 0.23684 0.0
H6606 H 0.17438 0.08976 0.72914 0.0
H6607 H 0.15341 0.11049 0.75697 0.0
H6608 H 0.15483 0.09876 0.7252 0.0
H6609 H 0.17035 0.09751 0.7619 0.0
H6610 H 0.15431 0.10695 0.74512 0.0
H6611 H 0.17349 0.0933 0.741 0.0
C6612 C 0.16991 0.09251 0.73077 0.0
C6613 C 0.16467 0.09397 0.72619 0.0
C6614 C 0.15782 0.10486 0.7488 0.0
C6615 C 0.1636 0.09802 0.73973 0.0
C6616 C 0.15732 0.1069 0.75556 0.0
C6617 C 0.16181 0.10429 0.76043 0.0
C6618 C 0.16289 0.10024 0.74688 0.0
C6619 C 0.16677 0.09964 0.75832 0.0
C6620 C 0.16939 0.09449 0.73754 0.0
C6621 C 0.15895 0.09748 0.72858 0.0
N6622 N 0.16719 0.09778 0.75169 0.0
N6623 N 0.15858 0.09941 0.73519 0.0
H6624 H 0.09592 0.15075 0.43098 0.0
H6625 H 0.11068 0.12484 0.45851 0.0
H6626 H 0.08331 0.13956 0.44496 0.0
H6627 H 0.12318 0.13665 0.44495 0.0
H6628 H 0.10061 0.13039 0.45387 0.0
H6629 H 0.10595 0.14591 0.43633 0.0
C6630 C 0.09525 0.14733 0.43523 0.0
C6631 C 0.08873 0.14558 0.43753 0.0
C6632 C 0.10556 0.13179 0.45193 0.0
C6633 C 0.10026 0.13991 0.44362 0.0
C6634 C 0.11131 0.12862 0.45457 0.0
C6635 C 0.11779 0.13026 0.4521 0.0
C6636 C 0.10627 0.13663 0.44675 0.0
C6637 C 0.11829 0.13521 0.44701 0.0
C6638 C 0.10099 0.14453 0.43826 0.0
C6639 C 0.08821 0.141 0.44296 0.0
N6640 N 0.11261 0.1382 0.44449 0.0
N6641 N 0.09389 0.13832 0.44581 0.0
H6642 H 0.11563 0.83467 0.69587 0.0
H6643 H 0.11897 0.87515 0.6939 0.0
H6644 H 0.10522 0.8471 0.68115 0.0
H6645 H 0.13041 0.86274 0.70786 0.0
H6646 H 0.11339 0.86495 0.68961 0.0
H6647 H 0.12068 0.84492 0.70073 0.0
C6648 C 0.11441 0.83955 0.69366 0.0
C6649 C 0.10999 0.84001 0.68809 0.0
C6650 C 0.11711 0.86446 0.69363 0.0
C6651 C 0.11571 0.85177 0.69366 0.0
C6652 C 0.1203 0.87028 0.69608 0.0
C6653 C 0.12519 0.8698 0.70123 0.0
C6654 C 0.11882 0.85809 0.69633 0.0
C6655 C 0.12668 0.86335 0.70387 0.0
C6656 C 0.11727 0.8454 0.69645 0.0
C6657 C 0.10852 0.84649 0.6855 0.0
N6658 N 0.12352 0.85775 0.70138 0.0
N6659 N 0.11138 0.8521 0.68829 0.0
H6660 H 0.42337 0.86524 0.94464 0.0
H6661 H 0.38284 0.86859 0.94417 0.0
H6662 H 0.4104 0.85498 0.93029 0.0
H6663 H 0.39575 0.87984 0.95783 0.0
H6664 H 0.39287 0.86304 0.93949 0.0
H6665 H 0.41331 0.8702 0.94995 0.0
C6666 C 0.41841 0.86403 0.9426 0.0
C6667 C 0.41774 0.85968 0.93701 0.0
C6668 C 0.39351 0.86671 0.94352 0.0
C6669 C 0.4062 0.8653 0.94309 0.0
C6670 C 0.38778 0.86988 0.94621 0.0
C6671 C 0.38845 0.87472 0.95138 0.0
C6672 C 0.39998 0.86838 0.94603 0.0
C6673 C 0.39499 0.87616 0.95382 0.0
C6674 C 0.41267 0.86684 0.94566 0.0
C6675 C 0.41117 0.85822 0.93465 0.0
N6676 N 0.4005 0.87302 0.95111 0.0
N6677 N 0.40567 0.86104 0.93769 0.0
H6678 H 0.39013 0.17201 0.19411 0.0
H6679 H 0.38685 0.1315 0.19487 0.0
H6680 H 0.4006 0.15862 0.18032 0.0
H6681 H 0.3753 0.1448 0.20788 0.0
H6682 H 0.39251 0.14138 0.19001 0.0
H6683 H 0.38515 0.16212 0.1997 0.0
C6684 C 0.39139 0.167 0.19226 0.0
C6685 C 0.3958 0.16616 0.18673 0.0
C6686 C 0.38875 0.14214 0.19394 0.0
C6687 C 0.39015 0.1548 0.19313 0.0
C6688 C 0.38552 0.13649 0.19673 0.0
C6689 C 0.38057 0.13731 0.20177 0.0
C6690 C 0.38703 0.14868 0.19621 0.0
C6691 C 0.37907 0.14392 0.20398 0.0
C6692 C 0.38856 0.16135 0.19547 0.0
C6693 C 0.39731 0.15953 0.18462 0.0
N6694 N 0.38227 0.14935 0.20118 0.0
N6695 N 0.39448 0.15412 0.1878 0.0
H6696 H 0.0966 0.85464 0.07551 0.0
H6697 H 0.10958 0.88045 0.04702 0.0
H6698 H 0.08319 0.86495 0.06161 0.0
H6699 H 0.12287 0.86962 0.06065 0.0
H6700 H 0.09988 0.87454 0.05199 0.0
H6701 H 0.10629 0.85974 0.06979 0.0
C6702 C 0.09568 0.85792 0.0712 0.0
C6703 C 0.08905 0.85935 0.06904 0.0
C6704 C 0.10492 0.87344 0.05387 0.0
C6705 C 0.10016 0.86533 0.06251 0.0
C6706 C 0.11047 0.87681 0.05104 0.0
C6707 C 0.11705 0.87556 0.05344 0.0
C6708 C 0.10596 0.86878 0.05916 0.0
C6709 C 0.11789 0.87077 0.05864 0.0
C6710 C 0.10123 0.86087 0.06796 0.0
C6711 C 0.0882 0.86376 0.06351 0.0
N6712 N 0.1124 0.86758 0.06134 0.0
N6713 N 0.09369 0.8666 0.06045 0.0
H6714 H 0.39174 0.83361 0.3097 0.0
H6715 H 0.38849 0.87414 0.30978 0.0
H6716 H 0.40248 0.84673 0.32357 0.0
H6717 H 0.3767 0.86109 0.29672 0.0
H6718 H 0.39421 0.86415 0.31437 0.0
H6719 H 0.38665 0.84362 0.30442 0.0
C6720 C 0.39303 0.83859 0.31163 0.0
C6721 C 0.39755 0.83931 0.31709 0.0
C6722 C 0.39038 0.86347 0.31049 0.0
C6723 C 0.39177 0.8508 0.31103 0.0
C6724 C 0.38712 0.86918 0.30786 0.0
C6725 C 0.38208 0.86845 0.30288 0.0
C6726 C 0.38861 0.85698 0.30813 0.0
C6727 C 0.38053 0.86189 0.30058 0.0
C6728 C 0.39014 0.8443 0.3086 0.0
C6729 C 0.3991 0.84591 0.31931 0.0
N6730 N 0.38377 0.85641 0.30323 0.0
N6731 N 0.39621 0.85138 0.3163 0.0
H6732 H 0.40592 0.14917 0.57604 0.0
H6733 H 0.39183 0.12509 0.54656 0.0
H6734 H 0.4187 0.14012 0.56075 0.0
H6735 H 0.37913 0.13455 0.56167 0.0
H6736 H 0.40169 0.13081 0.55144 0.0
H6737 H 0.39602 0.14416 0.57058 0.0
C6738 C 0.40665 0.14619 0.57149 0.0
C6739 C 0.41317 0.14509 0.56885 0.0
C6740 C 0.39674 0.13165 0.55368 0.0
C6741 C 0.40182 0.13922 0.56262 0.0
C6742 C 0.3911 0.12838 0.55089 0.0
C6743 C 0.38463 0.12932 0.55373 0.0
C6744 C 0.39592 0.13587 0.55935 0.0
C6745 C 0.38401 0.13366 0.55933 0.0
C6746 C 0.40099 0.14328 0.5684 0.0
C6747 C 0.41379 0.14104 0.56301 0.0
N6748 N 0.38958 0.13676 0.56197 0.0
N6749 N 0.40819 0.13825 0.5601 0.0
H6750 H 0.11486 0.17052 0.80953 0.0
H6751 H 0.11911 0.13009 0.80934 0.0
H6752 H 0.10565 0.15718 0.82426 0.0
H6753 H 0.12962 0.14344 0.79552 0.0
H6754 H 0.11348 0.13992 0.81434 0.0
H6755 H 0.11975 0.16063 0.80386 0.0
C6756 C 0.11386 0.16552 0.81158 0.0
C6757 C 0.10984 0.16469 0.81739 0.0
C6758 C 0.117 0.1407 0.8102 0.0
C6759 C 0.11537 0.15334 0.81089 0.0
C6760 C 0.12021 0.13508 0.80733 0.0
C6761 C 0.12487 0.13593 0.80202 0.0
C6762 C 0.11845 0.14723 0.80774 0.0
C6763 C 0.12609 0.14253 0.79962 0.0
C6764 C 0.11663 0.15987 0.80832 0.0
C6765 C 0.10864 0.15807 0.81974 0.0
N6766 N 0.12292 0.14793 0.80251 0.0
N6767 N 0.11141 0.15267 0.8165 0.0
H6768 H 0.44462 0.08459 0.14016 0.0
H6769 H 0.44345 0.1248 0.13435 0.0
H6770 H 0.42953 0.09779 0.14895 0.0
H6771 H 0.4578 0.11158 0.12441 0.0
H6772 H 0.43872 0.11501 0.14026 0.0
H6773 H 0.4499 0.09445 0.13478 0.0
C6774 C 0.44241 0.08955 0.14096 0.0
C6775 C 0.43662 0.09035 0.14502 0.0
C6776 C 0.44292 0.11425 0.1368 0.0
C6777 C 0.44267 0.10167 0.13892 0.0
C6778 C 0.44563 0.11984 0.13342 0.0
C6779 C 0.45102 0.11901 0.12885 0.0
C6780 C 0.44561 0.10776 0.1356 0.0
C6781 C 0.45363 0.11246 0.12787 0.0
C6782 C 0.44545 0.09518 0.13791 0.0
C6783 C 0.43404 0.09693 0.14595 0.0
N6784 N 0.45089 0.10708 0.1312 0.0
N6785 N 0.43707 0.10232 0.14291 0.0
H6786 H 0.17358 0.1876 0.38336 0.0
H6787 H 0.13699 0.20505 0.38503 0.0
H6788 H 0.16272 0.19104 0.40206 0.0
H6789 H 0.14874 0.20313 0.36666 0.0
H6790 H 0.14645 0.20021 0.39143 0.0
H6791 H 0.1647 0.19366 0.37724 0.0
C6792 C 0.16938 0.1897 0.3862 0.0
C6793 C 0.1689 0.18878 0.39325 0.0
C6794 C 0.14697 0.20088 0.386 0.0
C6795 C 0.15862 0.19563 0.38623 0.0
C6796 C 0.14157 0.20364 0.38234 0.0
C6797 C 0.14206 0.20447 0.37529 0.0
C6798 C 0.15291 0.19891 0.38258 0.0
C6799 C 0.14812 0.20257 0.37209 0.0
C6800 C 0.16428 0.19313 0.38269 0.0
C6801 C 0.16325 0.19152 0.39662 0.0
N6802 N 0.15329 0.19985 0.37575 0.0
N6803 N 0.15832 0.19479 0.39308 0.0
H6804 H 0.06791 0.92251 0.63148 0.0
H6805 H 0.05071 0.88584 0.63424 0.0
H6806 H 0.06528 0.91183 0.65041 0.0
H6807 H 0.0522 0.89724 0.6156 0.0
H6808 H 0.05578 0.89539 0.64032 0.0
H6809 H 0.06182 0.91345 0.62566 0.0
C6810 C 0.06599 0.9183 0.63444 0.0
C6811 C 0.06713 0.91794 0.64146 0.0
C6812 C 0.05497 0.89581 0.6349 0.0
C6813 C 0.06024 0.90746 0.63478 0.0
C6814 C 0.05208 0.89036 0.63143 0.0
C6815 C 0.05105 0.89073 0.62439 0.0
C6816 C 0.05687 0.90167 0.63132 0.0
C6817 C 0.05291 0.89672 0.62102 0.0
C6818 C 0.06255 0.9131 0.6311 0.0
C6819 C 0.06461 0.91228 0.64498 0.0
N6820 N 0.05575 0.90194 0.62451 0.0
N6821 N 0.06131 0.90725 0.6416 0.0
H6822 H 0.34469 0.81491 0.90262 0.0
H6823 H 0.3578 0.79992 0.86725 0.0
H6824 H 0.33382 0.81695 0.88371 0.0
H6825 H 0.37015 0.80073 0.88531 0.0
H6826 H 0.34845 0.80501 0.87355 0.0
H6827 H 0.35356 0.80861 0.89668 0.0
C6828 C 0.34416 0.81404 0.89723 0.0
C6829 C 0.3385 0.81652 0.89366 0.0
C6830 C 0.35319 0.80406 0.87614 0.0
C6831 C 0.34862 0.80924 0.88685 0.0
C6832 C 0.35854 0.80114 0.87255 0.0
C6833 C 0.36479 0.79993 0.87574 0.0
C6834 C 0.35408 0.80577 0.883 0.0
C6835 C 0.36544 0.8016 0.88263 0.0
C6836 C 0.34922 0.81041 0.89385 0.0
C6837 C 0.33803 0.81509 0.8867 0.0
N6838 N 0.36016 0.80446 0.88603 0.0
N6839 N 0.34304 0.81158 0.88352 0.0
H6840 H 0.44072 0.91192 0.35417 0.0
H6841 H 0.45393 0.89913 0.39039 0.0
H6842 H 0.4376 0.92286 0.37287 0.0
H6843 H 0.45497 0.88698 0.3722 0.0
H6844 H 0.44886 0.90831 0.38382 0.0
H6845 H 0.44681 0.90315 0.36047 0.0
C6846 C 0.44131 0.91249 0.3596 0.0
C6847 C 0.43861 0.91814 0.36299 0.0
C6848 C 0.45021 0.90364 0.38126 0.0
C6849 C 0.44564 0.90814 0.37023 0.0
C6850 C 0.45311 0.89839 0.385 0.0
C6851 C 0.45484 0.89225 0.38185 0.0
C6852 C 0.44903 0.90277 0.37429 0.0
C6853 C 0.45369 0.89162 0.37485 0.0
C6854 C 0.44482 0.90749 0.36319 0.0
C6855 C 0.43966 0.91865 0.37002 0.0
N6856 N 0.45083 0.8968 0.37131 0.0
N6857 N 0.44306 0.91371 0.3734 0.0
H6858 H 0.33449 0.19484 0.61471 0.0
H6859 H 0.37471 0.19349 0.62059 0.0
H6860 H 0.34756 0.17936 0.60641 0.0
H6861 H 0.36162 0.20832 0.62999 0.0
H6862 H 0.36487 0.18864 0.61486 0.0
H6863 H 0.3444 0.20019 0.61994 0.0
C6864 C 0.33944 0.19256 0.614 0.0
C6865 C 0.34018 0.18663 0.61011 0.0
C6866 C 0.36414 0.19296 0.61816 0.0
C6867 C 0.35156 0.19276 0.61603 0.0
C6868 C 0.36977 0.19575 0.62144 0.0
C6869 C 0.36899 0.20131 0.62581 0.0
C6870 C 0.35768 0.19576 0.61925 0.0
C6871 C 0.36246 0.20402 0.62669 0.0
C6872 C 0.3451 0.19563 0.61695 0.0
C6873 C 0.34674 0.18396 0.60928 0.0
N6874 N 0.35705 0.20121 0.62345 0.0
N6875 N 0.35216 0.18704 0.61222 0.0
H6876 H 0.07033 0.08709 0.87082 0.0
H6877 H 0.04934 0.12155 0.86598 0.0
H6878 H 0.0643 0.0949 0.85127 0.0
H6879 H 0.05573 0.11373 0.88541 0.0
H6880 H 0.0544 0.11164 0.86049 0.0
H6881 H 0.06451 0.09656 0.87625 0.0
C6882 C 0.06772 0.09075 0.86766 0.0
C6883 C 0.06782 0.09019 0.86057 0.0
C6884 C 0.05468 0.11209 0.86596 0.0
C6885 C 0.06121 0.10113 0.86677 0.0
C6886 C 0.05179 0.11775 0.8691 0.0
C6887 C 0.05212 0.11849 0.87617 0.0
C6888 C 0.05792 0.10713 0.86992 0.0
C6889 C 0.05536 0.11339 0.87994 0.0
C6890 C 0.06443 0.09619 0.87077 0.0
C6891 C 0.06444 0.09517 0.85675 0.0
N6892 N 0.05814 0.10794 0.87677 0.0
N6893 N 0.06129 0.10044 0.8599 0.0
H6894 H 0.17184 0.81041 0.11364 0.0
H6895 H 0.13134 0.80921 0.11716 0.0
H6896 H 0.15824 0.8241 0.10329 0.0
H6897 H 0.14488 0.79641 0.12868 0.0
H6898 H 0.14114 0.81416 0.11141 0.0
H6899 H 0.16203 0.8047 0.11865 0.0
C6900 C 0.1668 0.81221 0.11242 0.0
C6901 C 0.16588 0.81775 0.10803 0.0
C6902 C 0.14197 0.81025 0.11518 0.0
C6903 C 0.15461 0.81121 0.11372 0.0
C6904 C 0.13637 0.80742 0.11847 0.0
C6905 C 0.13729 0.80241 0.12344 0.0
C6906 C 0.14854 0.80807 0.11688 0.0
C6907 C 0.14393 0.80028 0.1249 0.0
C6908 C 0.16119 0.80893 0.11526 0.0
C6909 C 0.15921 0.8198 0.10656 0.0
N6910 N 0.1493 0.80313 0.12165 0.0
N6911 N 0.15385 0.81655 0.10941 0.0
H6912 H 0.14879 0.42948 0.09739 0.0
H6913 H 0.12386 0.45825 0.11149 0.0
H6914 H 0.13898 0.44428 0.08457 0.0
H6915 H 0.13423 0.44377 0.12424 0.0
H6916 H 0.12955 0.45341 0.1016 0.0
H6917 H 0.14375 0.43488 0.10729 0.0
C6918 C 0.14563 0.43391 0.09665 0.0
C6919 C 0.14433 0.43644 0.09012 0.0
C6920 C 0.1306 0.45131 0.10657 0.0
C6921 C 0.13843 0.4426 0.10148 0.0
C6922 C 0.12735 0.45407 0.11222 0.0
C6923 C 0.12855 0.45139 0.11871 0.0
C6924 C 0.13507 0.44583 0.1074 0.0
C6925 C 0.13314 0.44598 0.11934 0.0
C6926 C 0.14271 0.43697 0.10232 0.0
C6927 C 0.14006 0.44211 0.0895 0.0
N6928 N 0.13621 0.44337 0.11375 0.0
N6929 N 0.13726 0.44499 0.0951 0.0
H6930 H 0.63239 0.06711 0.92238 0.0
H6931 H 0.63492 0.04904 0.88616 0.0
H6932 H 0.6513 0.06404 0.91177 0.0
H6933 H 0.61643 0.05044 0.89781 0.0
H6934 H 0.64108 0.05432 0.89555 0.0
H6935 H 0.62654 0.06072 0.91356 0.0
C6936 C 0.63534 0.06502 0.91824 0.0
C6937 C 0.64236 0.06614 0.91783 0.0
C6938 C 0.63568 0.05344 0.89606 0.0
C6939 C 0.63564 0.0589 0.90761 0.0
C6940 C 0.63215 0.05044 0.8907 0.0
C6941 C 0.62513 0.04932 0.89118 0.0
C6942 C 0.63215 0.05538 0.90194 0.0
C6943 C 0.62183 0.05122 0.89719 0.0
C6944 C 0.63198 0.06141 0.91317 0.0
C6945 C 0.64587 0.06341 0.91226 0.0
N6946 N 0.62536 0.05418 0.90232 0.0
N6947 N 0.64247 0.05995 0.90735 0.0
H6948 H 0.18796 0.38477 0.173 0.0
H6949 H 0.20587 0.38751 0.1367 0.0
H6950 H 0.19108 0.40374 0.16251 0.0
H6951 H 0.20436 0.36891 0.14817 0.0
H6952 H 0.20065 0.3936 0.14616 0.0
H6953 H 0.19425 0.37895 0.16408 0.0
C6954 C 0.19004 0.38773 0.16887 0.0
C6955 C 0.18896 0.39477 0.16851 0.0
C6956 C 0.20149 0.38819 0.14661 0.0
C6957 C 0.19608 0.38809 0.15819 0.0
C6958 C 0.20446 0.38471 0.14121 0.0
C6959 C 0.20553 0.37768 0.14163 0.0
C6960 C 0.19954 0.38462 0.15247 0.0
C6961 C 0.20362 0.37432 0.14761 0.0
C6962 C 0.19359 0.38439 0.16374 0.0
C6963 C 0.19169 0.3983 0.16295 0.0
N6964 N 0.20069 0.37782 0.15277 0.0
N6965 N 0.19509 0.39492 0.158 0.0
H6966 H 0.85404 0.9433 0.41438 0.0
H6967 H 0.89018 0.95359 0.39894 0.0
H6968 H 0.87321 0.93802 0.42358 0.0
H6969 H 0.87123 0.95651 0.38835 0.0
H6970 H 0.88394 0.94893 0.40856 0.0
H6971 H 0.86016 0.94919 0.40535 0.0
C6972 C 0.85954 0.94339 0.41452 0.0
C6973 C 0.86311 0.94011 0.41974 0.0
C6974 C 0.88115 0.95061 0.40414 0.0
C6975 C 0.87015 0.94691 0.40943 0.0
C6976 C 0.88471 0.95328 0.39864 0.0
C6977 C 0.88123 0.95541 0.39281 0.0
C6978 C 0.87405 0.95007 0.40383 0.0
C6979 C 0.87412 0.9549 0.39273 0.0
C6980 C 0.86303 0.94677 0.40937 0.0
C6981 C 0.87023 0.94052 0.41971 0.0
N6982 N 0.87077 0.95226 0.39815 0.0
N6983 N 0.8735 0.94382 0.41462 0.0
H6984 H 0.8182 0.12156 0.17456 0.0
H6985 H 0.79994 0.11998 0.13836 0.0
H6986 H 0.81458 0.1029 0.1637 0.0
H6987 H 0.80227 0.13836 0.15004 0.0
H6988 H 0.80498 0.11356 0.14771 0.0
H6989 H 0.81197 0.12771 0.16582 0.0
C6990 C 0.81602 0.11874 0.17039 0.0
C6991 C 0.81694 0.11169 0.16987 0.0
C6992 C 0.80436 0.119 0.14824 0.0
C6993 C 0.8099 0.11875 0.15975 0.0
C6994 C 0.80149 0.12266 0.1429 0.0
C6995 C 0.80071 0.12973 0.1434 0.0
C6996 C 0.80649 0.12241 0.15411 0.0
C6997 C 0.80279 0.13293 0.14941 0.0
C6998 C 0.8125 0.12227 0.16536 0.0
C6999 C 0.8141 0.10834 0.16426 0.0
N7000 N 0.80561 0.12925 0.15451 0.0
N7001 N 0.81073 0.1119 0.15941 0.0
H7002 H 0.37303 0.56722 0.58243 0.0
H7003 H 0.37038 0.55041 0.61926 0.0
H7004 H 0.35402 0.56383 0.59278 0.0
H7005 H 0.38905 0.55207 0.60794 0.0
H7006 H 0.36424 0.55513 0.60956 0.0
H7007 H 0.37892 0.56139 0.59161 0.0
C7008 C 0.37007 0.56518 0.58659 0.0
C7009 C 0.363 0.56604 0.58682 0.0
C7010 C 0.36968 0.55443 0.60919 0.0
C7011 C 0.36976 0.55946 0.59745 0.0
C7012 C 0.37319 0.55174 0.61473 0.0
C7013 C 0.38025 0.55087 0.61443 0.0
C7014 C 0.37326 0.55629 0.60332 0.0
C7015 C 0.38362 0.55267 0.60842 0.0
C7016 C 0.37346 0.56189 0.59186 0.0
C7017 C 0.35948 0.56338 0.59242 0.0
N7018 N 0.3801 0.55532 0.60312 0.0
N7019 N 0.3629 0.56025 0.59752 0.0
H7020 H 0.19415 0.61531 0.33458 0.0
H7021 H 0.19337 0.62132 0.37477 0.0
H7022 H 0.17898 0.60684 0.34791 0.0
H7023 H 0.2078 0.63093 0.36139 0.0
H7024 H 0.18847 0.61542 0.36505 0.0
H7025 H 0.19961 0.6206 0.34439 0.0
C7026 C 0.19196 0.61457 0.33956 0.0
C7027 C 0.18609 0.61062 0.34041 0.0
C7028 C 0.19272 0.61881 0.36424 0.0
C7029 C 0.19234 0.61663 0.35167 0.0
C7030 C 0.19553 0.62217 0.3698 0.0
C7031 C 0.20099 0.62666 0.3689 0.0
C7032 C 0.19539 0.61992 0.35772 0.0
C7033 C 0.20358 0.62754 0.36232 0.0
C7034 C 0.1951 0.61757 0.34517 0.0
C7035 C 0.18354 0.60976 0.34701 0.0
N7036 N 0.20074 0.62422 0.35699 0.0
N7037 N 0.18667 0.61275 0.35237 0.0
H7038 H 0.32446 0.4004 0.84818 0.0
H7039 H 0.29591 0.37441 0.86067 0.0
H7040 H 0.31047 0.39042 0.8346 0.0
H7041 H 0.30937 0.38517 0.87419 0.0
H7042 H 0.30087 0.38052 0.85109 0.0
H7043 H 0.31865 0.39524 0.85778 0.0
C7044 C 0.32011 0.39719 0.84721 0.0
C7045 C 0.31796 0.39586 0.84055 0.0
C7046 C 0.30272 0.38157 0.85616 0.0
C7047 C 0.31134 0.3898 0.85157 0.0
C7048 C 0.29989 0.37808 0.86163 0.0
C7049 C 0.30225 0.37925 0.86825 0.0
C7050 C 0.30796 0.38626 0.85729 0.0
C7051 C 0.3074 0.38408 0.86918 0.0
C7052 C 0.31682 0.3942 0.8527 0.0
C7053 C 0.31237 0.39153 0.83963 0.0
N7054 N 0.3101 0.38738 0.86377 0.0
N7055 N 0.30927 0.38864 0.84507 0.0
H7056 H 0.91737 0.85311 0.55134 0.0
H7057 H 0.89684 0.88723 0.54354 0.0
H7058 H 0.92294 0.87265 0.55948 0.0
H7059 H 0.89149 0.86758 0.53549 0.0
H7060 H 0.90709 0.88225 0.54848 0.0
H7061 H 0.90848 0.85855 0.54467 0.0
C7062 C 0.91673 0.85855 0.55172 0.0
C7063 C 0.92087 0.86242 0.55603 0.0
C7064 C 0.9037 0.87905 0.54558 0.0
C7065 C 0.91069 0.86871 0.54837 0.0
C7066 C 0.89786 0.88189 0.54274 0.0
C7067 C 0.89326 0.8778 0.53915 0.0
C7068 C 0.90495 0.87207 0.54484 0.0
C7069 C 0.89485 0.87092 0.53826 0.0
C7070 C 0.91167 0.86167 0.54788 0.0
C7071 C 0.91989 0.86947 0.55621 0.0
N7072 N 0.90053 0.86826 0.54113 0.0
N7073 N 0.91486 0.87239 0.55248 0.0
H7074 H 0.90392 0.16742 0.2999 0.0
H7075 H 0.86918 0.14772 0.29265 0.0
H7076 H 0.88461 0.17336 0.30834 0.0
H7077 H 0.88868 0.14145 0.28488 0.0
H7078 H 0.87447 0.15796 0.29724 0.0
H7079 H 0.89818 0.15865 0.2933 0.0
C7080 C 0.89846 0.16689 0.30035 0.0
C7081 C 0.89475 0.17109 0.30474 0.0
C7082 C 0.87758 0.15438 0.29447 0.0
C7083 C 0.88813 0.16107 0.29716 0.0
C7084 C 0.87456 0.14853 0.29183 0.0
C7085 C 0.87851 0.14368 0.28844 0.0
C7086 C 0.8846 0.15536 0.29373 0.0
C7087 C 0.88544 0.14502 0.28751 0.0
C7088 C 0.89519 0.1619 0.29655 0.0
C7089 C 0.88768 0.17026 0.30501 0.0
N7090 N 0.88827 0.1507 0.29019 0.0
N7091 N 0.88461 0.16531 0.30132 0.0
H7092 H 0.58104 0.1355 0.05515 0.0
H7093 H 0.61885 0.14073 0.04131 0.0
H7094 H 0.59311 0.15344 0.05867 0.0
H7095 H 0.6088 0.12126 0.04141 0.0
H7096 H 0.60873 0.14585 0.04621 0.0
H7097 H 0.59052 0.13056 0.04883 0.0
C7098 C 0.58567 0.13841 0.0546 0.0
C7099 C 0.58626 0.14491 0.05748 0.0
C7100 C 0.60871 0.14046 0.04513 0.0
C7101 C 0.59709 0.1393 0.05016 0.0
C7102 C 0.61449 0.13753 0.04231 0.0
C7103 C 0.6147 0.13053 0.041 0.0
C7104 C 0.60307 0.13639 0.04665 0.0
C7105 C 0.60888 0.12667 0.04238 0.0
C7106 C 0.59106 0.13559 0.05096 0.0
C7107 C 0.59235 0.14847 0.05648 0.0
N7108 N 0.6033 0.12964 0.04516 0.0
N7109 N 0.59751 0.14562 0.05293 0.0
H7110 H 0.62132 0.82805 0.80462 0.0
H7111 H 0.61639 0.86727 0.79533 0.0
H7112 H 0.60505 0.84061 0.8122 0.0
H7113 H 0.63473 0.85621 0.79074 0.0
H7114 H 0.61159 0.85704 0.8003 0.0
H7115 H 0.62582 0.83786 0.79847 0.0
C7116 C 0.61869 0.83286 0.805 0.0
C7117 C 0.61278 0.83348 0.80895 0.0
C7118 C 0.61665 0.85682 0.79818 0.0
C7119 C 0.61786 0.8447 0.80184 0.0
C7120 C 0.6194 0.86267 0.79532 0.0
C7121 C 0.626 0.86262 0.79265 0.0
C7122 C 0.62051 0.85084 0.79839 0.0
C7123 C 0.62963 0.85649 0.79276 0.0
C7124 C 0.62125 0.83845 0.80146 0.0
C7125 C 0.60954 0.83983 0.80915 0.0
N7126 N 0.62685 0.85085 0.79562 0.0
N7127 N 0.61213 0.84517 0.80566 0.0
H7128 H 0.91158 0.15185 0.94208 0.0
H7129 H 0.89772 0.12161 0.96524 0.0
H7130 H 0.92494 0.1381 0.95268 0.0
H7131 H 0.8853 0.13786 0.95741 0.0
H7132 H 0.90779 0.12731 0.96064 0.0
H7133 H 0.90192 0.14653 0.94758 0.0
C7134 C 0.9125 0.14776 0.94563 0.0
C7135 C 0.91912 0.14547 0.94694 0.0
C7136 C 0.90286 0.12963 0.95997 0.0
C7137 C 0.90798 0.13921 0.95318 0.0
C7138 C 0.89711 0.12639 0.9626 0.0
C7139 C 0.89065 0.12925 0.96169 0.0
C7140 C 0.90211 0.13575 0.95638 0.0
C7141 C 0.89017 0.13545 0.95822 0.0
C7142 C 0.90696 0.14468 0.94874 0.0
C7143 C 0.91994 0.14 0.95146 0.0
N7144 N 0.8958 0.13846 0.95567 0.0
N7145 N 0.91444 0.13705 0.9544 0.0
H7146 H 0.61952 0.16687 0.68285 0.0
H7147 H 0.62872 0.14835 0.71769 0.0
H7148 H 0.61275 0.17419 0.70231 0.0
H7149 H 0.63711 0.14281 0.69824 0.0
H7150 H 0.62329 0.15819 0.71237 0.0
H7151 H 0.62635 0.15828 0.68856 0.0
C7152 C 0.61947 0.16666 0.68833 0.0
C7153 C 0.61551 0.17121 0.69211 0.0
C7154 C 0.62638 0.15485 0.70929 0.0
C7155 C 0.62335 0.16139 0.69872 0.0
C7156 C 0.62949 0.14924 0.71232 0.0
C7157 C 0.63333 0.14471 0.70839 0.0
C7158 C 0.62709 0.15591 0.70228 0.0
C7159 C 0.63416 0.14613 0.70147 0.0
C7160 C 0.6234 0.16178 0.6916 0.0
C7161 C 0.61574 0.17079 0.69921 0.0
N7162 N 0.63102 0.15156 0.69863 0.0
N7163 N 0.61955 0.16593 0.70229 0.0
H7164 H 0.59082 0.87015 0.4319 0.0
H7165 H 0.60905 0.88012 0.46671 0.0
H7166 H 0.58249 0.8652 0.45151 0.0
H7167 H 0.61607 0.88633 0.44693 0.0
H7168 H 0.59892 0.87522 0.46142 0.0
H7169 H 0.59981 0.87658 0.43745 0.0
C7170 C 0.59089 0.87042 0.43739 0.0
C7171 C 0.58594 0.86708 0.44125 0.0
C7172 C 0.60265 0.87772 0.45825 0.0
C7173 C 0.59622 0.87448 0.44767 0.0
C7174 C 0.60843 0.88053 0.46127 0.0
C7175 C 0.61345 0.88359 0.45726 0.0
C7176 C 0.60192 0.87796 0.45117 0.0
C7177 C 0.61237 0.88398 0.45023 0.0
C7178 C 0.596 0.87413 0.44056 0.0
C7179 C 0.5862 0.86771 0.44834 0.0
N7180 N 0.60676 0.88115 0.44742 0.0
N7181 N 0.59129 0.87129 0.45133 0.0
H7182 H 0.90043 0.8355 0.2032 0.0
H7183 H 0.86525 0.85525 0.20641 0.0
H7184 H 0.88221 0.82956 0.19262 0.0
H7185 H 0.88281 0.85977 0.2187 0.0
H7186 H 0.87111 0.84529 0.20195 0.0
H7187 H 0.89388 0.84398 0.20945 0.0
C7188 C 0.89505 0.83597 0.20221 0.0
C7189 C 0.89187 0.83185 0.19735 0.0
C7190 C 0.87365 0.84841 0.20568 0.0
C7191 C 0.88433 0.84153 0.20449 0.0
C7192 C 0.87031 0.8541 0.20824 0.0
C7193 C 0.87357 0.8584 0.21289 0.0
C7194 C 0.88034 0.84703 0.20773 0.0
C7195 C 0.88011 0.85663 0.21509 0.0
C7196 C 0.8913 0.84078 0.20581 0.0
C7197 C 0.88486 0.8326 0.19635 0.0
N7198 N 0.88331 0.85113 0.21243 0.0
N7199 N 0.88134 0.83739 0.19984 0.0
H7200 H 0.55054 0.92137 0.86119 0.0
H7201 H 0.5509 0.88593 0.88101 0.0
H7202 H 0.56861 0.91193 0.86916 0.0
H7203 H 0.53313 0.89399 0.87106 0.0
H7204 H 0.55708 0.89624 0.87807 0.0
H7205 H 0.54375 0.91218 0.86607 0.0
C7206 C 0.55307 0.9174 0.86403 0.0
C7207 C 0.56016 0.91739 0.86472 0.0
C7208 C 0.55181 0.89578 0.87657 0.0
C7209 C 0.55243 0.90684 0.87028 0.0
C7210 C 0.54827 0.8899 0.87827 0.0
C7211 C 0.5415 0.88905 0.87622 0.0
C7212 C 0.54858 0.90088 0.87279 0.0
C7213 C 0.53835 0.8944 0.87271 0.0
C7214 C 0.5492 0.91214 0.86679 0.0
C7215 C 0.56317 0.91209 0.86841 0.0
N7216 N 0.54194 0.90006 0.87106 0.0
N7217 N 0.5593 0.90703 0.87102 0.0
H7218 H 0.83062 0.80309 0.61469 0.0
H7219 H 0.86585 0.8098 0.63379 0.0
H7220 H 0.84082 0.82244 0.61545 0.0
H7221 H 0.85786 0.78969 0.63039 0.0
H7222 H 0.8559 0.81457 0.62826 0.0
H7223 H 0.8398 0.79815 0.62151 0.0
C7224 C 0.83477 0.8063 0.61632 0.0
C7225 C 0.83499 0.81317 0.61445 0.0
C7226 C 0.85629 0.80911 0.62874 0.0
C7227 C 0.84547 0.80758 0.62224 0.0
C7228 C 0.86198 0.80638 0.63192 0.0
C7229 C 0.86273 0.79933 0.63251 0.0
C7230 C 0.85129 0.80478 0.62611 0.0
C7231 C 0.85751 0.79516 0.63002 0.0
C7232 C 0.84001 0.80348 0.62019 0.0
C7233 C 0.8405 0.8171 0.61668 0.0
N7234 N 0.85202 0.79795 0.62689 0.0
N7235 N 0.84551 0.81425 0.62044 0.0
H7236 H 0.95541 0.08027 0.36204 0.0
H7237 H 0.95595 0.11516 0.38279 0.0
H7238 H 0.93754 0.09015 0.36992 0.0
H7239 H 0.97363 0.10667 0.37305 0.0
H7240 H 0.94946 0.10515 0.37949 0.0
H7241 H 0.96244 0.08904 0.36733 0.0
C7242 C 0.95297 0.08424 0.36495 0.0
C7243 C 0.94587 0.08451 0.36549 0.0
C7244 C 0.95478 0.10545 0.37811 0.0
C7245 C 0.95388 0.09458 0.37152 0.0
C7246 C 0.95849 0.11115 0.38002 0.0
C7247 C 0.96533 0.11179 0.37813 0.0
C7248 C 0.9579 0.10033 0.37427 0.0
C7249 C 0.96836 0.10641 0.37458 0.0
C7250 C 0.95698 0.08926 0.36794 0.0
C7251 C 0.94299 0.08981 0.36927 0.0
N7252 N 0.96461 0.10093 0.37271 0.0
N7253 N 0.94699 0.09464 0.37211 0.0
H7254 H 0.66796 0.20305 0.10248 0.0
H7255 H 0.64862 0.2128 0.13679 0.0
H7256 H 0.67415 0.19603 0.12227 0.0
H7257 H 0.64221 0.21924 0.11687 0.0
H7258 H 0.65876 0.20773 0.13174 0.0
H7259 H 0.65919 0.20998 0.10781 0.0
C7260 C 0.66748 0.20297 0.10795 0.0
C7261 C 0.67176 0.1989 0.11193 0.0
C7262 C 0.65516 0.21031 0.12848 0.0
C7263 C 0.66174 0.20687 0.11808 0.0
C7264 C 0.64938 0.21323 0.13136 0.0
C7265 C 0.64452 0.21639 0.12724 0.0
C7266 C 0.65608 0.21055 0.12142 0.0
C7267 C 0.64579 0.2168 0.12024 0.0
C7268 C 0.66249 0.20696 0.111 0.0
C7269 C 0.67099 0.19912 0.119 0.0
N7270 N 0.65141 0.21386 0.11755 0.0
N7271 N 0.66604 0.20298 0.12185 0.0
H7272 H 0.55887 0.09248 0.65276 0.0
H7273 H 0.54164 0.10678 0.619 0.0
H7274 H 0.55561 0.08012 0.63496 0.0
H7275 H 0.54246 0.1177 0.63796 0.0
H7276 H 0.54645 0.09683 0.62471 0.0
H7277 H 0.5526 0.10165 0.64739 0.0
C7278 C 0.55677 0.09165 0.64775 0.0
C7279 C 0.55778 0.08548 0.64433 0.0
C7280 C 0.54552 0.10139 0.62762 0.0
C7281 C 0.55068 0.09609 0.63806 0.0
C7282 C 0.54276 0.10707 0.62437 0.0
C7283 C 0.54169 0.1131 0.62799 0.0
C7284 C 0.54724 0.10178 0.63453 0.0
C7285 C 0.54324 0.11318 0.63494 0.0
C7286 C 0.55321 0.09692 0.64467 0.0
C7287 C 0.55505 0.08481 0.63777 0.0
N7288 N 0.54597 0.10764 0.63796 0.0
N7289 N 0.55165 0.09005 0.63484 0.0
H7290 H 0.66886 0.80204 0.40266 0.0
H7291 H 0.64904 0.79365 0.36826 0.0
H7292 H 0.67468 0.80998 0.38311 0.0
H7293 H 0.64297 0.78634 0.38798 0.0
H7294 H 0.65922 0.79857 0.37337 0.0
H7295 H 0.66006 0.79529 0.39716 0.0
C7296 C 0.66829 0.80236 0.39721 0.0
C7297 C 0.67248 0.80664 0.39335 0.0
C7298 C 0.65569 0.79583 0.37657 0.0
C7299 C 0.66241 0.79887 0.387 0.0
C7300 C 0.64989 0.793 0.37364 0.0
C7301 C 0.6451 0.78963 0.37771 0.0
C7302 C 0.65672 0.7953 0.3836 0.0
C7303 C 0.64648 0.78894 0.38466 0.0
C7304 C 0.66329 0.79847 0.39406 0.0
C7305 C 0.6716 0.80673 0.38628 0.0
N7306 N 0.65213 0.7918 0.38739 0.0
N7307 N 0.66663 0.80295 0.38334 0.0
H7308 H 0.94946 0.92521 0.13291 0.0
H7309 H 0.96645 0.88889 0.13929 0.0
H7310 H 0.94935 0.91474 0.15215 0.0
H7311 H 0.96361 0.89743 0.11933 0.0
H7312 H 0.96165 0.89914 0.14424 0.0
H7313 H 0.95591 0.91581 0.12801 0.0
C7314 C 0.95079 0.92095 0.13611 0.0
C7315 C 0.94881 0.92077 0.14296 0.0
C7316 C 0.96211 0.8988 0.13878 0.0
C7317 C 0.95628 0.91004 0.13739 0.0
C7318 C 0.96487 0.89295 0.13594 0.0
C7319 C 0.96538 0.89226 0.12888 0.0
C7320 C 0.95982 0.90404 0.13453 0.0
C7321 C 0.96328 0.89772 0.1248 0.0
C7322 C 0.95451 0.9156 0.13331 0.0
C7323 C 0.95081 0.91517 0.14688 0.0
N7324 N 0.96055 0.90337 0.12769 0.0
N7325 N 0.9544 0.91003 0.14403 0.0
H7326 H 0.83148 0.19351 0.88142 0.0
H7327 H 0.86361 0.21778 0.88666 0.0
H7328 H 0.8383 0.20081 0.9009 0.0
H7329 H 0.85795 0.20925 0.8673 0.0
H7330 H 0.85347 0.21278 0.89169 0.0
H7331 H 0.84026 0.20036 0.87594 0.0
C7332 C 0.83478 0.19661 0.88454 0.0
C7333 C 0.83419 0.19654 0.89164 0.0
C7334 C 0.85441 0.21205 0.88633 0.0
C7335 C 0.84428 0.20435 0.88539 0.0
C7336 C 0.8602 0.21492 0.88344 0.0
C7337 C 0.86168 0.21387 0.87656 0.0
C7338 C 0.85006 0.20808 0.88231 0.0
C7339 C 0.85703 0.21015 0.87264 0.0
C7340 C 0.83981 0.20049 0.88141 0.0
C7341 C 0.83864 0.20061 0.89542 0.0
N7342 N 0.85146 0.20734 0.87559 0.0
N7343 N 0.84351 0.20432 0.89226 0.0
H7344 H 0.87395 0.56343 0.92408 0.0
H7345 H 0.86882 0.5391 0.89202 0.0
H7346 H 0.85456 0.55563 0.91754 0.0
H7347 H 0.88809 0.54801 0.89745 0.0
H7348 H 0.86384 0.54393 0.90225 0.0
H7349 H 0.87949 0.55669 0.91525 0.0
C7350 C 0.87086 0.56024 0.92084 0.0
C7351 C 0.86377 0.56014 0.92151 0.0
C7352 C 0.86917 0.54479 0.90124 0.0
C7353 C 0.87007 0.55246 0.91136 0.0
C7354 C 0.87203 0.54202 0.8954 0.0
C7355 C 0.87887 0.54321 0.89383 0.0
C7356 C 0.87316 0.54882 0.90555 0.0
C7357 C 0.88278 0.54699 0.89843 0.0
C7358 C 0.87403 0.55642 0.91578 0.0
C7359 C 0.86003 0.55596 0.91713 0.0
N7360 N 0.87985 0.54972 0.90405 0.0
N7361 N 0.86322 0.55232 0.91223 0.0
H7362 H 0.36317 0.95377 0.08036 0.0
H7363 H 0.38205 0.9536 0.11631 0.0
H7364 H 0.36832 0.93563 0.09148 0.0
H7365 H 0.37488 0.97187 0.10658 0.0
H7366 H 0.37846 0.94708 0.10644 0.0
H7367 H 0.36875 0.96057 0.08914 0.0
C7368 C 0.36553 0.95121 0.08461 0.0
C7369 C 0.36523 0.94412 0.08522 0.0
C7370 C 0.37772 0.95252 0.10643 0.0
C7371 C 0.37159 0.95187 0.09529 0.0
C7372 C 0.37979 0.95626 0.11207 0.0
C7373 C 0.3787 0.96329 0.11231 0.0
C7374 C 0.37452 0.95581 0.10099 0.0
C7375 C 0.37578 0.96645 0.10663 0.0
C7376 C 0.36869 0.9551 0.08964 0.0
C7377 C 0.36833 0.94109 0.09086 0.0
N7378 N 0.37374 0.96268 0.10123 0.0
N7379 N 0.37136 0.94497 0.09568 0.0
H7380 H 0.8071 0.60113 0.84105 0.0
H7381 H 0.78971 0.63429 0.85631 0.0
H7382 H 0.8029 0.61893 0.82898 0.0
H7383 H 0.79092 0.61514 0.86687 0.0
H7384 H 0.79416 0.62877 0.84611 0.0
H7385 H 0.80084 0.60615 0.85041 0.0
C7386 C 0.80478 0.60605 0.84032 0.0
C7387 C 0.80555 0.6096 0.83419 0.0
C7388 C 0.79339 0.62577 0.85064 0.0
C7389 C 0.79847 0.61547 0.84502 0.0
C7390 C 0.79084 0.62892 0.85647 0.0
C7391 C 0.78999 0.62519 0.86248 0.0
C7392 C 0.79514 0.61887 0.85085 0.0
C7393 C 0.79153 0.61824 0.86237 0.0
C7394 C 0.80124 0.60895 0.8457 0.0
C7395 C 0.80255 0.61604 0.83364 0.0
N7396 N 0.79408 0.61532 0.85668 0.0
N7397 N 0.79918 0.61879 0.839 0.0
H7398 H 0.14231 0.04964 0.58106 0.0
H7399 H 0.12331 0.05067 0.61692 0.0
H7400 H 0.13715 0.06804 0.59172 0.0
H7401 H 0.13079 0.03222 0.60781 0.0
H7402 H 0.12687 0.05694 0.60688 0.0
H7403 H 0.13672 0.04306 0.58999 0.0
C7404 C 0.13994 0.0523 0.58524 0.0
C7405 C 0.14024 0.0594 0.58568 0.0
C7406 C 0.12769 0.05151 0.60704 0.0
C7407 C 0.13388 0.0519 0.59592 0.0
C7408 C 0.12564 0.04792 0.61278 0.0
C7409 C 0.12682 0.04091 0.61325 0.0
C7410 C 0.13096 0.04809 0.60172 0.0
C7411 C 0.12981 0.03762 0.60769 0.0
C7412 C 0.13678 0.04854 0.59035 0.0
C7413 C 0.13713 0.06257 0.59124 0.0
N7414 N 0.13184 0.04125 0.60218 0.0
N7415 N 0.1341 0.0588 0.59614 0.0
H7416 H 0.20216 0.88758 0.83031 0.0
H7417 H 0.20843 0.88901 0.87037 0.0
H7418 H 0.19225 0.90162 0.84389 0.0
H7419 H 0.21508 0.8722 0.85801 0.0
H7420 H 0.20357 0.89432 0.86036 0.0
H7421 H 0.20786 0.8824 0.84007 0.0
C7422 C 0.20117 0.88958 0.83533 0.0
C7423 C 0.19672 0.89507 0.83625 0.0
C7424 C 0.2061 0.88948 0.85981 0.0
C7425 C 0.2033 0.88922 0.84742 0.0
C7426 C 0.2089 0.88644 0.86554 0.0
C7427 C 0.21214 0.88012 0.86505 0.0
C7428 C 0.20654 0.88621 0.85351 0.0
C7429 C 0.2126 0.87706 0.85863 0.0
C7430 C 0.20445 0.88663 0.84089 0.0
C7431 C 0.19573 0.89749 0.84288 0.0
N7432 N 0.20981 0.88013 0.8531 0.0
N7433 N 0.19898 0.89456 0.84819 0.0
H7434 H 0.64149 0.43396 0.4113 0.0
H7435 H 0.62411 0.46725 0.39581 0.0
H7436 H 0.63983 0.45275 0.4224 0.0
H7437 H 0.62515 0.44791 0.38559 0.0
H7438 H 0.62948 0.46208 0.40578 0.0
H7439 H 0.63524 0.43906 0.40195 0.0
C7440 C 0.63984 0.43918 0.41176 0.0
C7441 C 0.64125 0.44295 0.41763 0.0
C7442 C 0.62849 0.45897 0.40136 0.0
C7443 C 0.63399 0.44883 0.40692 0.0
C7444 C 0.62542 0.46191 0.39568 0.0
C7445 C 0.6242 0.45802 0.38984 0.0
C7446 C 0.63037 0.4521 0.40118 0.0
C7447 C 0.62601 0.45113 0.38995 0.0
C7448 C 0.63622 0.44208 0.40643 0.0
C7449 C 0.63883 0.44965 0.41799 0.0
N7450 N 0.62902 0.44841 0.3955 0.0
N7451 N 0.63536 0.45239 0.41269 0.0
H7452 H 0.82025 0.39296 0.6622 0.0
H7453 H 0.78976 0.37105 0.64659 0.0
H7454 H 0.80422 0.38452 0.67449 0.0
H7455 H 0.8063 0.37945 0.63494 0.0
H7456 H 0.79493 0.37569 0.65693 0.0
H7457 H 0.81512 0.38787 0.6522 0.0
C7458 C 0.81562 0.39007 0.66279 0.0
C7459 C 0.81263 0.38922 0.66919 0.0
C7460 C 0.79742 0.37649 0.6521 0.0
C7461 C 0.80674 0.38327 0.65772 0.0
C7462 C 0.79448 0.37384 0.6462 0.0
C7463 C 0.79759 0.37487 0.63988 0.0
C7464 C 0.8035 0.38019 0.65166 0.0
C7465 C 0.8037 0.37853 0.63968 0.0
C7466 C 0.8127 0.38712 0.65707 0.0
C7467 C 0.80671 0.38528 0.66966 0.0
N7468 N 0.80643 0.38106 0.64547 0.0
N7469 N 0.80394 0.38247 0.66399 0.0
H7470 H 0.70172 0.61749 0.17365 0.0
H7471 H 0.7029 0.62074 0.13321 0.0
H7472 H 0.68809 0.60717 0.15996 0.0
H7473 H 0.71522 0.63315 0.14639 0.0
H7474 H 0.69786 0.6154 0.14309 0.0
H7475 H 0.70706 0.62305 0.16389 0.0
C7476 C 0.69984 0.6164 0.16861 0.0
C7477 C 0.69447 0.61181 0.16763 0.0
C7478 C 0.70166 0.61929 0.14385 0.0
C7479 C 0.7006 0.61811 0.15646 0.0
C7480 C 0.70456 0.62235 0.13819 0.0
C7481 C 0.7095 0.62742 0.13896 0.0
C7482 C 0.70369 0.62128 0.15038 0.0
C7483 C 0.71143 0.62927 0.14557 0.0
C7484 C 0.70291 0.61956 0.16304 0.0
C7485 C 0.69229 0.61055 0.16097 0.0
N7486 N 0.70852 0.6262 0.15103 0.0
N7487 N 0.69536 0.61367 0.15566 0.0
H7488 H 0.59337 0.65199 0.93118 0.0
H7489 H 0.61002 0.62481 0.95632 0.0
H7490 H 0.58163 0.63859 0.94392 0.0
H7491 H 0.62161 0.63837 0.94361 0.0
H7492 H 0.59958 0.63001 0.95214 0.0
H7493 H 0.60374 0.64734 0.93603 0.0
C7494 C 0.59296 0.64812 0.93506 0.0
C7495 C 0.5866 0.6457 0.93716 0.0
C7496 C 0.6044 0.63186 0.95028 0.0
C7497 C 0.59851 0.64025 0.94266 0.0
C7498 C 0.61038 0.62889 0.95267 0.0
C7499 C 0.61671 0.63114 0.9503 0.0
C7500 C 0.60476 0.63712 0.94548 0.0
C7501 C 0.61685 0.63646 0.94557 0.0
C7502 C 0.5989 0.64543 0.93779 0.0
C7503 C 0.58642 0.64057 0.94209 0.0
N7504 N 0.61096 0.63925 0.94331 0.0
N7505 N 0.59229 0.63801 0.94467 0.0
H7506 H 0.61411 0.33331 0.19552 0.0
H7507 H 0.61822 0.37376 0.19568 0.0
H7508 H 0.60388 0.34671 0.18154 0.0
H7509 H 0.62954 0.3604 0.20883 0.0
H7510 H 0.61232 0.36392 0.19099 0.0
H7511 H 0.61929 0.34319 0.20096 0.0
C7512 C 0.61295 0.33832 0.19359 0.0
C7513 C 0.60855 0.33916 0.18806 0.0
C7514 C 0.61608 0.36314 0.19492 0.0
C7515 C 0.61443 0.3505 0.19429 0.0
C7516 C 0.61945 0.36876 0.1976 0.0
C7517 C 0.62441 0.3679 0.20263 0.0
C7518 C 0.61768 0.35661 0.19727 0.0
C7519 C 0.62577 0.3613 0.20494 0.0
C7520 C 0.61589 0.34396 0.19672 0.0
C7521 C 0.60716 0.3458 0.18585 0.0
N7522 N 0.62244 0.35591 0.20223 0.0
N7523 N 0.6101 0.3512 0.18896 0.0
H7524 H 0.91943 0.37083 0.43479 0.0
H7525 H 0.88662 0.36533 0.45813 0.0
H7526 H 0.91316 0.35127 0.44236 0.0
H7527 H 0.8926 0.38468 0.44979 0.0
H7528 H 0.89657 0.36013 0.45284 0.0
H7529 H 0.90998 0.37606 0.44083 0.0
C7530 C 0.91611 0.36764 0.43779 0.0
C7531 C 0.9171 0.36059 0.43806 0.0
C7532 C 0.89571 0.36552 0.45218 0.0
C7533 C 0.90617 0.36655 0.44491 0.0
C7534 C 0.89002 0.36849 0.45519 0.0
C7535 C 0.88875 0.37545 0.45439 0.0
C7536 C 0.90016 0.36954 0.44834 0.0
C7537 C 0.89335 0.37929 0.45054 0.0
C7538 C 0.91068 0.37063 0.44119 0.0
C7539 C 0.91255 0.35671 0.44193 0.0
N7540 N 0.89884 0.37628 0.44766 0.0
N7541 N 0.90728 0.35973 0.44519 0.0
H7542 H 0.90134 0.65823 0.68076 0.0
H7543 H 0.87518 0.6436 0.70812 0.0
H7544 H 0.89039 0.67086 0.6949 0.0
H7545 H 0.88646 0.6311 0.69412 0.0
H7546 H 0.88099 0.65361 0.70367 0.0
H7547 H 0.89628 0.64823 0.68595 0.0
C7548 C 0.89793 0.65891 0.68501 0.0
C7549 C 0.8963 0.66542 0.6874 0.0
C7550 C 0.88221 0.64867 0.70159 0.0
C7551 C 0.89038 0.65394 0.69331 0.0
C7552 C 0.8789 0.64295 0.70413 0.0
C7553 C 0.88031 0.6365 0.70147 0.0
C7554 C 0.88697 0.64795 0.69634 0.0
C7555 C 0.88519 0.63597 0.69632 0.0
C7556 C 0.895 0.65318 0.68794 0.0
C7557 C 0.89173 0.66596 0.69283 0.0
N7558 N 0.88832 0.64162 0.69391 0.0
N7559 N 0.88892 0.66029 0.69559 0.0
H7560 H 0.58749 0.37185 0.56987 0.0
H7561 H 0.62158 0.3659 0.54857 0.0
H7562 H 0.59462 0.35205 0.56384 0.0
H7563 H 0.61457 0.38555 0.55522 0.0
H7564 H 0.61153 0.36073 0.5537 0.0
H7565 H 0.5971 0.37697 0.56399 0.0
C7566 C 0.59103 0.36857 0.56724 0.0
C7567 C 0.59024 0.3615 0.56736 0.0
C7568 C 0.61219 0.36618 0.55403 0.0
C7569 C 0.60134 0.36734 0.56069 0.0
C7570 C 0.61793 0.36913 0.5511 0.0
C7571 C 0.61894 0.37617 0.55148 0.0
C7572 C 0.60742 0.37029 0.55736 0.0
C7573 C 0.61402 0.3801 0.55481 0.0
C7574 C 0.59655 0.3715 0.56393 0.0
C7575 C 0.59507 0.35752 0.56396 0.0
N7576 N 0.60849 0.37711 0.55762 0.0
N7577 N 0.60042 0.36049 0.56078 0.0
H7578 H 0.8844 0.34286 0.82285 0.0
H7579 H 0.88035 0.35631 0.78485 0.0
H7580 H 0.89038 0.33117 0.80535 0.0
H7581 H 0.87297 0.36698 0.80249 0.0
H7582 H 0.88337 0.3467 0.79211 0.0
H7583 H 0.87961 0.35145 0.81535 0.0
C7584 C 0.8847 0.3421 0.81742 0.0
C7585 C 0.88785 0.33632 0.81472 0.0
C7586 C 0.88102 0.35112 0.79437 0.0
C7587 C 0.88235 0.34614 0.80607 0.0
C7588 C 0.87929 0.35661 0.79023 0.0
C7589 C 0.87646 0.36249 0.79307 0.0
C7590 C 0.87995 0.35154 0.8014 0.0
C7591 C 0.87518 0.36258 0.80007 0.0
C7592 C 0.88193 0.34699 0.81313 0.0
C7593 C 0.88798 0.33554 0.80765 0.0
N7594 N 0.87699 0.35722 0.804 0.0
N7595 N 0.88532 0.34043 0.80356 0.0
H7596 H 0.9218 0.63961 0.05993 0.0
H7597 H 0.88141 0.63496 0.0607 0.0
H7598 H 0.90865 0.6492 0.07458 0.0
H7599 H 0.89458 0.62402 0.04705 0.0
H7600 H 0.89129 0.64084 0.06529 0.0
H7601 H 0.91185 0.63439 0.05465 0.0
C7602 C 0.91683 0.64062 0.06204 0.0
C7603 C 0.91608 0.64486 0.06772 0.0
C7604 C 0.89202 0.63717 0.06128 0.0
C7605 C 0.90466 0.63894 0.06166 0.0
C7606 C 0.88637 0.63381 0.05864 0.0
C7607 C 0.88716 0.62896 0.0535 0.0
C7608 C 0.89852 0.63568 0.05876 0.0
C7609 C 0.89373 0.6277 0.05103 0.0
C7610 C 0.91115 0.63766 0.059 0.0
C7611 C 0.90949 0.64606 0.07016 0.0
N7612 N 0.89915 0.63102 0.05369 0.0
N7613 N 0.90405 0.6431 0.06714 0.0
H7614 H 0.61604 0.67196 0.30919 0.0
H7615 H 0.61871 0.63141 0.30865 0.0
H7616 H 0.6048 0.65877 0.32259 0.0
H7617 H 0.63139 0.64452 0.29652 0.0
H7618 H 0.61293 0.64138 0.31315 0.0
H7619 H 0.62115 0.66198 0.3039 0.0
C7620 C 0.61464 0.66697 0.31102 0.0
C7621 C 0.60998 0.66622 0.31636 0.0
C7622 C 0.61696 0.64208 0.30949 0.0
C7623 C 0.61578 0.65476 0.31027 0.0
C7624 C 0.62026 0.63638 0.30691 0.0
C7625 C 0.62557 0.63712 0.30222 0.0
C7626 C 0.61897 0.64859 0.30738 0.0
C7627 C 0.62734 0.6437 0.30015 0.0
C7628 C 0.61754 0.66127 0.30797 0.0
C7629 C 0.60829 0.65961 0.31844 0.0
N7630 N 0.62407 0.64918 0.30276 0.0
N7631 N 0.6112 0.65416 0.31541 0.0
H7632 H 0.93767 0.58125 0.63307 0.0
H7633 H 0.95645 0.61709 0.63612 0.0
H7634 H 0.94151 0.59126 0.65216 0.0
H7635 H 0.95402 0.60617 0.6173 0.0
H7636 H 0.95125 0.60758 0.64215 0.0
H7637 H 0.94401 0.59015 0.62728 0.0
C7638 C 0.93991 0.58527 0.63606 0.0
C7639 C 0.93903 0.5855 0.64312 0.0
C7640 C 0.95188 0.60725 0.6367 0.0
C7641 C 0.9462 0.59581 0.63648 0.0
C7642 C 0.95484 0.61269 0.63326 0.0
C7643 C 0.95564 0.61245 0.62619 0.0
C7644 C 0.94968 0.60154 0.63305 0.0
C7645 C 0.95349 0.6066 0.62275 0.0
C7646 C 0.9435 0.59039 0.63274 0.0
C7647 C 0.94196 0.59092 0.6467 0.0
N7648 N 0.95058 0.6014 0.62621 0.0
N7649 N 0.94538 0.59587 0.64334 0.0
H7650 H 0.67581 0.70031 0.89234 0.0
H7651 H 0.64059 0.70333 0.87233 0.0
H7652 H 0.66425 0.68321 0.88506 0.0
H7653 H 0.65023 0.72029 0.88229 0.0
H7654 H 0.65021 0.6962 0.87541 0.0
H7655 H 0.66744 0.70796 0.88723 0.0
C7656 C 0.67155 0.69817 0.8896 0.0
C7657 C 0.67068 0.69111 0.88918 0.0
C7658 C 0.65025 0.7015 0.87688 0.0
C7659 C 0.6611 0.69982 0.88335 0.0
C7660 C 0.64476 0.70559 0.8751 0.0
C7661 C 0.64456 0.71241 0.87712 0.0
C7662 C 0.6556 0.70423 0.88072 0.0
C7663 C 0.65015 0.71504 0.88067 0.0
C7664 C 0.66676 0.70253 0.88672 0.0
C7665 C 0.66505 0.68861 0.88561 0.0
N7666 N 0.65542 0.71093 0.88241 0.0
N7667 N 0.66047 0.69296 0.88286 0.0
H7668 H 0.57575 0.40691 0.14988 0.0
H7669 H 0.54842 0.39387 0.12285 0.0
H7670 H 0.56244 0.42032 0.1388 0.0
H7671 H 0.56114 0.38058 0.13474 0.0
H7672 H 0.55321 0.40361 0.12886 0.0
H7673 H 0.57013 0.39722 0.14467 0.0
C7674 C 0.57159 0.40783 0.14641 0.0
C7675 C 0.56957 0.41446 0.14479 0.0
C7676 C 0.55493 0.39856 0.13017 0.0
C7677 C 0.56317 0.40333 0.13869 0.0
C7678 C 0.5522 0.39299 0.12674 0.0
C7679 C 0.55441 0.38639 0.12827 0.0
C7680 C 0.55992 0.39753 0.13516 0.0
C7681 C 0.5593 0.38557 0.13337 0.0
C7682 C 0.56841 0.40227 0.1434 0.0
C7683 C 0.56423 0.4153 0.14014 0.0
N7684 N 0.56191 0.39107 0.13661 0.0
N7685 N 0.56123 0.40981 0.13724 0.0
H7686 H 0.83485 0.31028 0.39034 0.0
H7687 H 0.87522 0.31029 0.38552 0.0
H7688 H 0.8483 0.32481 0.39972 0.0
H7689 H 0.86176 0.29673 0.3748 0.0
H7690 H 0.86545 0.31515 0.39136 0.0
H7691 H 0.84468 0.30478 0.38512 0.0
C7692 C 0.83986 0.31232 0.3913 0.0
C7693 C 0.84074 0.31802 0.39548 0.0
C7694 C 0.86463 0.3111 0.38775 0.0
C7695 C 0.85202 0.31172 0.38956 0.0
C7696 C 0.87021 0.30831 0.38441 0.0
C7697 C 0.86931 0.30311 0.37964 0.0
C7698 C 0.85808 0.30867 0.38631 0.0
C7699 C 0.8627 0.30075 0.37842 0.0
C7700 C 0.84547 0.30916 0.38835 0.0
C7701 C 0.84738 0.32037 0.39662 0.0
N7702 N 0.85734 0.30356 0.38173 0.0
N7703 N 0.85274 0.31722 0.39367 0.0
H7704 H 0.94453 0.42396 0.86487 0.0
H7705 H 0.94349 0.38333 0.86397 0.0
H7706 H 0.93118 0.41237 0.85195 0.0
H7707 H 0.95619 0.39482 0.87761 0.0
H7708 H 0.93935 0.39394 0.8591 0.0
H7709 H 0.94925 0.41336 0.86926 0.0
C7710 C 0.94259 0.41919 0.86296 0.0
C7711 C 0.93744 0.41907 0.85803 0.0
C7712 C 0.94305 0.39414 0.86315 0.0
C7713 C 0.94286 0.40691 0.863 0.0
C7714 C 0.94542 0.38808 0.86593 0.0
C7715 C 0.95018 0.38818 0.87123 0.0
C7716 C 0.94545 0.40036 0.86568 0.0
C7717 C 0.95251 0.3945 0.87355 0.0
C7718 C 0.94531 0.41314 0.86544 0.0
C7719 C 0.9352 0.41273 0.85567 0.0
N7720 N 0.95011 0.40033 0.87077 0.0
N7721 N 0.9379 0.40692 0.85819 0.0
H7722 H 0.84856 0.67947 0.10456 0.0
H7723 H 0.86272 0.70782 0.12993 0.0
H7724 H 0.8357 0.69385 0.11491 0.0
H7725 H 0.87544 0.69353 0.11927 0.0
H7726 H 0.8528 0.70308 0.12418 0.0
H7727 H 0.85848 0.68489 0.10955 0.0
C7728 C 0.84782 0.68382 0.10782 0.0
C7729 C 0.84127 0.68621 0.10929 0.0
C7730 C 0.85777 0.701 0.12308 0.0
C7731 C 0.85265 0.6924 0.11515 0.0
C7732 C 0.86344 0.7037 0.12636 0.0
C7733 C 0.86993 0.70105 0.1251 0.0
C7734 C 0.85858 0.69559 0.11852 0.0
C7735 C 0.87054 0.69573 0.12041 0.0
C7736 C 0.85349 0.68689 0.11072 0.0
C7737 C 0.84064 0.69179 0.11369 0.0
N7738 N 0.86494 0.69316 0.11731 0.0
N7739 N 0.84626 0.69468 0.11647 0.0
H7740 H 0.56314 0.59289 0.35272 0.0
H7741 H 0.55191 0.60704 0.38908 0.0
H7742 H 0.56782 0.58296 0.37166 0.0
H7743 H 0.54946 0.6183 0.37046 0.0
H7744 H 0.55673 0.59765 0.38263 0.0
H7745 H 0.55713 0.60173 0.35899 0.0
C7746 C 0.5629 0.59256 0.35819 0.0
C7747 C 0.56604 0.58718 0.36166 0.0
C7748 C 0.55512 0.60217 0.37995 0.0
C7749 C 0.5591 0.59727 0.36887 0.0
C7750 C 0.55236 0.60754 0.38363 0.0
C7751 C 0.55031 0.61349 0.38032 0.0
C7752 C 0.55584 0.60274 0.37289 0.0
C7753 C 0.551 0.61382 0.37324 0.0
C7754 C 0.55944 0.5976 0.36177 0.0
C7755 C 0.56543 0.58695 0.36875 0.0
N7756 N 0.55372 0.60853 0.36976 0.0
N7757 N 0.56207 0.59194 0.37212 0.0
H7758 H 0.66918 0.30999 0.61573 0.0
H7759 H 0.62877 0.31069 0.62021 0.0
H7760 H 0.65607 0.32473 0.6062 0.0
H7761 H 0.64192 0.29692 0.63103 0.0
H7762 H 0.63867 0.31536 0.6144 0.0
H7763 H 0.65921 0.30465 0.62082 0.0
C7764 C 0.66421 0.31211 0.61471 0.0
C7765 C 0.66348 0.31783 0.61053 0.0
C7766 C 0.63939 0.3113 0.61803 0.0
C7767 C 0.65203 0.3117 0.61631 0.0
C7768 C 0.63373 0.30863 0.62135 0.0
C7769 C 0.63451 0.30343 0.62614 0.0
C7770 C 0.64588 0.30876 0.61951 0.0
C7771 C 0.64107 0.30094 0.62739 0.0
C7772 C 0.65852 0.30904 0.61759 0.0
C7773 C 0.6569 0.32028 0.60931 0.0
N7774 N 0.64651 0.30364 0.62411 0.0
N7775 N 0.65144 0.31722 0.6122 0.0
H7776 H 0.63921 0.94551 0.58436 0.0
H7777 H 0.63665 0.94595 0.62491 0.0
H7778 H 0.65034 0.93195 0.59747 0.0
H7779 H 0.62414 0.95833 0.61188 0.0
H7780 H 0.64235 0.94141 0.6149 0.0
H7781 H 0.6342 0.95085 0.59437 0.0
C7782 C 0.6406 0.94365 0.58933 0.0
C7783 C 0.6452 0.93826 0.59006 0.0
C7784 C 0.63837 0.94513 0.61423 0.0
C7785 C 0.63952 0.94439 0.60155 0.0
C7786 C 0.63512 0.94774 0.61995 0.0
C7787 C 0.62988 0.95251 0.61924 0.0
C7788 C 0.63639 0.94731 0.60774 0.0
C7789 C 0.62813 0.95464 0.61267 0.0
C7790 C 0.63776 0.94673 0.59505 0.0
C7791 C 0.64689 0.93615 0.59665 0.0
N7792 N 0.63136 0.95201 0.60718 0.0
N7793 N 0.64404 0.9392 0.60213 0.0
H7794 H 0.14116 0.56069 0.42029 0.0
H7795 H 0.13634 0.56084 0.37993 0.0
H7796 H 0.1505 0.57529 0.40691 0.0
H7797 H 0.12588 0.54699 0.3933 0.0
H7798 H 0.14214 0.56572 0.38973 0.0
H7799 H 0.136 0.55518 0.41044 0.0
C7800 C 0.14213 0.56274 0.41529 0.0
C7801 C 0.14628 0.56847 0.41444 0.0
C7802 C 0.13859 0.5616 0.39052 0.0
C7803 C 0.14043 0.56215 0.40314 0.0
C7804 C 0.13528 0.55881 0.38492 0.0
C7805 C 0.13059 0.55352 0.38579 0.0
C7806 C 0.13721 0.5591 0.39705 0.0
C7807 C 0.12944 0.55108 0.39239 0.0
C7808 C 0.13921 0.55957 0.40967 0.0
C7809 C 0.14742 0.57084 0.40782 0.0
N7810 N 0.13271 0.5539 0.39776 0.0
N7811 N 0.1445 0.56769 0.40244 0.0
H7812 H 0.69207 0.90293 0.66424 0.0
H7813 H 0.70333 0.86657 0.65008 0.0
H7814 H 0.68752 0.88398 0.67424 0.0
H7815 H 0.70549 0.88517 0.63871 0.0
H7816 H 0.69859 0.87303 0.6595 0.0
H7817 H 0.69803 0.89666 0.65537 0.0
C7818 C 0.69233 0.89746 0.66458 0.0
C7819 C 0.68925 0.89399 0.66999 0.0
C7820 C 0.70012 0.87571 0.65496 0.0
C7821 C 0.69612 0.88677 0.65986 0.0
C7822 C 0.70284 0.87202 0.64957 0.0
C7823 C 0.70478 0.87532 0.64357 0.0
C7824 C 0.69934 0.88276 0.65437 0.0
C7825 C 0.70403 0.8824 0.64322 0.0
C7826 C 0.69576 0.89388 0.65952 0.0
C7827 C 0.68987 0.88689 0.67022 0.0
N7828 N 0.70135 0.88588 0.64854 0.0
N7829 N 0.6932 0.88353 0.66522 0.0
H7830 H 0.36242 0.44498 0.92151 0.0
H7831 H 0.36839 0.44469 0.88131 0.0
H7832 H 0.35317 0.43056 0.90787 0.0
H7833 H 0.3788 0.45826 0.89498 0.0
H7834 H 0.36217 0.43998 0.89093 0.0
H7835 H 0.36795 0.45039 0.9118 0.0
C7836 C 0.36155 0.44295 0.91648 0.0
C7837 C 0.35731 0.4373 0.91552 0.0
C7838 C 0.3658 0.444 0.89182 0.0
C7839 C 0.3636 0.44349 0.90438 0.0
C7840 C 0.36935 0.4467 0.88633 0.0
C7841 C 0.37415 0.45186 0.88733 0.0
C7842 C 0.36705 0.44647 0.89839 0.0
C7843 C 0.37517 0.45427 0.89396 0.0
C7844 C 0.36468 0.44606 0.91094 0.0
C7845 C 0.3563 0.43495 0.90886 0.0
N7846 N 0.37167 0.45154 0.89923 0.0
N7847 N 0.35943 0.43804 0.90356 0.0
H7848 H 0.31256 0.60327 0.66202 0.0
H7849 H 0.29996 0.63907 0.64755 0.0
H7850 H 0.31598 0.62241 0.67209 0.0
H7851 H 0.29911 0.62044 0.63607 0.0
H7852 H 0.30472 0.63281 0.65711 0.0
H7853 H 0.30655 0.60926 0.65297 0.0
C7854 C 0.31204 0.60873 0.66234 0.0
C7855 C 0.31482 0.61234 0.66782 0.0
C7856 C 0.30347 0.63008 0.65251 0.0
C7857 C 0.30789 0.61922 0.6575 0.0
C7858 C 0.30074 0.63365 0.64704 0.0
C7859 C 0.29917 0.63028 0.64097 0.0
C7860 C 0.30463 0.62308 0.65192 0.0
C7861 C 0.30028 0.62325 0.64063 0.0
C7862 C 0.30859 0.61214 0.65718 0.0
C7863 C 0.31387 0.6194 0.66802 0.0
N7864 N 0.30297 0.61989 0.64603 0.0
N7865 N 0.31052 0.6226 0.66292 0.0
H7866 H 0.85305 0.07281 0.09703 0.0
H7867 H 0.87994 0.04591 0.11113 0.0
H7868 H 0.86451 0.05933 0.08413 0.0
H7869 H 0.86791 0.05898 0.12393 0.0
H7870 H 0.87402 0.0504 0.10121 0.0
H7871 H 0.85806 0.06741 0.10694 0.0
C7872 C 0.85655 0.06866 0.09627 0.0
C7873 C 0.85834 0.06652 0.08971 0.0
C7874 C 0.87266 0.05226 0.10619 0.0
C7875 C 0.86422 0.06038 0.1011 0.0
C7876 C 0.87604 0.0497 0.11187 0.0
C7877 C 0.87445 0.0521 0.11838 0.0
C7878 C 0.86766 0.05727 0.10703 0.0
C7879 C 0.86933 0.057 0.11901 0.0
C7880 C 0.85946 0.0656 0.10195 0.0
C7881 C 0.86304 0.0612 0.08908 0.0
N7882 N 0.86614 0.05945 0.11341 0.0
N7883 N 0.86582 0.05833 0.0947 0.0
H7884 H 0.69542 0.1152 0.83426 0.0
H7885 H 0.69564 0.11852 0.87477 0.0
H7886 H 0.68203 0.10406 0.84753 0.0
H7887 H 0.70785 0.13103 0.86157 0.0
H7888 H 0.6912 0.1126 0.86484 0.0
H7889 H 0.70058 0.12055 0.8442 0.0
C7890 C 0.69357 0.11387 0.83926 0.0
C7891 C 0.68828 0.10916 0.84005 0.0
C7892 C 0.69486 0.11663 0.86411 0.0
C7893 C 0.6942 0.11523 0.85145 0.0
C7894 C 0.69741 0.12001 0.86979 0.0
C7895 C 0.7021 0.1253 0.86901 0.0
C7896 C 0.69703 0.11854 0.8576 0.0
C7897 C 0.70422 0.12699 0.86242 0.0
C7898 C 0.69654 0.11691 0.84493 0.0
C7899 C 0.68615 0.10758 0.84666 0.0
N7900 N 0.70166 0.12364 0.85697 0.0
N7901 N 0.6891 0.11061 0.85209 0.0
H7902 H 0.81828 0.88344 0.3311 0.0
H7903 H 0.79917 0.88553 0.36681 0.0
H7904 H 0.81245 0.90231 0.34057 0.0
H7905 H 0.80346 0.86675 0.35639 0.0
H7906 H 0.80372 0.89179 0.35712 0.0
H7907 H 0.81247 0.87727 0.3401 0.0
C7908 C 0.8157 0.8863 0.33502 0.0
C7909 C 0.81588 0.89342 0.33507 0.0
C7910 C 0.80364 0.8863 0.35694 0.0
C7911 C 0.80932 0.88635 0.34551 0.0
C7912 C 0.80105 0.88272 0.36248 0.0
C7913 C 0.80096 0.8756 0.36243 0.0
C7914 C 0.80619 0.88274 0.35132 0.0
C7915 C 0.80344 0.87224 0.35666 0.0
C7916 C 0.81242 0.88276 0.3402 0.0
C7917 C 0.81254 0.89682 0.34037 0.0
N7918 N 0.80598 0.87583 0.35136 0.0
N7919 N 0.80944 0.89326 0.34539 0.0
H7920 H 0.42513 0.36352 0.05217 0.0
H7921 H 0.3939 0.38919 0.05605 0.0
H7922 H 0.41792 0.37138 0.07127 0.0
H7923 H 0.39858 0.37879 0.03736 0.0
H7924 H 0.40388 0.38408 0.06126 0.0
H7925 H 0.41656 0.37035 0.04629 0.0
C7926 C 0.42179 0.36673 0.05512 0.0
C7927 C 0.42219 0.36684 0.06223 0.0
C7928 C 0.40276 0.38295 0.056 0.0
C7929 C 0.41239 0.37465 0.05554 0.0
C7930 C 0.39707 0.38589 0.05301 0.0
C7931 C 0.39535 0.38436 0.04628 0.0
C7932 C 0.40678 0.37844 0.05225 0.0
C7933 C 0.39969 0.38008 0.04258 0.0
C7934 C 0.41688 0.3706 0.05176 0.0
C7935 C 0.41771 0.37106 0.0658 0.0
N7936 N 0.40518 0.37722 0.04564 0.0
N7937 N 0.41299 0.37477 0.06242 0.0
H7938 H 0.4017 0.66179 0.8112 0.0
H7939 H 0.37008 0.64684 0.79078 0.0
H7940 H 0.38528 0.67441 0.80403 0.0
H7941 H 0.38854 0.63573 0.79472 0.0
H7942 H 0.37537 0.65702 0.79561 0.0
H7943 H 0.39679 0.6522 0.80521 0.0
C7944 C 0.3971 0.66259 0.80829 0.0
C7945 C 0.39393 0.66896 0.80811 0.0
C7946 C 0.37827 0.65236 0.79537 0.0
C7947 C 0.38816 0.65788 0.80133 0.0
C7948 C 0.37525 0.64655 0.79261 0.0
C7949 C 0.37886 0.64041 0.79238 0.0
C7950 C 0.3849 0.65199 0.79794 0.0
C7951 C 0.38555 0.64033 0.79482 0.0
C7952 C 0.39427 0.65707 0.8049 0.0
C7953 C 0.38787 0.66958 0.80439 0.0
N7954 N 0.38833 0.64601 0.79753 0.0
N7955 N 0.38517 0.66411 0.80117 0.0
H7956 H 0.0925 0.65466 0.55631 0.0
H7957 H 0.10629 0.62109 0.53845 0.0
H7958 H 0.07956 0.63762 0.55156 0.0
H7959 H 0.11779 0.63965 0.54022 0.0
H7960 H 0.09632 0.62703 0.54291 0.0
H7961 H 0.1017 0.64925 0.55013 0.0
C7962 C 0.09154 0.64982 0.55389 0.0
C7963 C 0.08521 0.64661 0.55447 0.0
C7964 C 0.10101 0.62981 0.54226 0.0
C7965 C 0.09585 0.64028 0.54748 0.0
C7966 C 0.1067 0.62642 0.53971 0.0
C7967 C 0.11291 0.62986 0.53901 0.0
C7968 C 0.10155 0.63666 0.54416 0.0
C7969 C 0.11314 0.63677 0.5407 0.0
C7970 C 0.09683 0.64671 0.55039 0.0
C7971 C 0.08437 0.64025 0.55134 0.0
N7972 N 0.10757 0.63992 0.54325 0.0
N7973 N 0.08964 0.63728 0.54802 0.0
H7974 H 0.11871 0.32837 0.30396 0.0
H7975 H 0.11481 0.36673 0.29126 0.0
H7976 H 0.10165 0.34129 0.30868 0.0
H7977 H 0.1337 0.35569 0.29017 0.0
H7978 H 0.10937 0.35673 0.29606 0.0
H7979 H 0.12377 0.33769 0.29751 0.0
C7980 C 0.11601 0.33315 0.30364 0.0
C7981 C 0.10973 0.33403 0.30691 0.0
C7982 C 0.11469 0.35647 0.29473 0.0
C7983 C 0.11547 0.34468 0.29944 0.0
C7984 C 0.11781 0.36218 0.29197 0.0
C7985 C 0.12475 0.36208 0.29037 0.0
C7986 C 0.11852 0.35059 0.29591 0.0
C7987 C 0.12835 0.35601 0.29137 0.0
C7988 C 0.1189 0.33846 0.29993 0.0
C7989 C 0.10644 0.34031 0.30619 0.0
N7990 N 0.1252 0.35051 0.29412 0.0
N7991 N 0.10935 0.34538 0.30256 0.0
H7992 H 0.42616 0.63366 0.44887 0.0
H7993 H 0.38889 0.63825 0.4643 0.0
H7994 H 0.41444 0.65211 0.44753 0.0
H7995 H 0.39871 0.61877 0.4624 0.0
H7996 H 0.39899 0.64367 0.45968 0.0
H7997 H 0.41685 0.62837 0.45515 0.0
C7998 C 0.42165 0.63661 0.44989 0.0
C7999 C 0.4211 0.64335 0.44763 0.0
C8000 C 0.39896 0.63821 0.46031 0.0
C8001 C 0.41045 0.63734 0.4549 0.0
C8002 C 0.3932 0.63511 0.46297 0.0
C8003 C 0.39292 0.62803 0.46368 0.0
C8004 C 0.40452 0.63423 0.45834 0.0
C8005 C 0.39869 0.62424 0.4619 0.0
C8006 C 0.41634 0.63359 0.45351 0.0
C8007 C 0.41516 0.64694 0.44923 0.0
N8008 N 0.40424 0.62738 0.45927 0.0
N8009 N 0.41007 0.64389 0.45274 0.0
H8010 H 0.12231 0.67349 0.19524 0.0
H8011 H 0.11782 0.64161 0.21991 0.0
H8012 H 0.1031 0.66702 0.20352 0.0
H8013 H 0.13693 0.64731 0.21085 0.0
H8014 H 0.11266 0.65178 0.21512 0.0
H8015 H 0.12801 0.66481 0.20202 0.0
C8016 C 0.11929 0.6703 0.19855 0.0
C8017 C 0.1122 0.67095 0.19877 0.0
C8018 C 0.118 0.65084 0.21423 0.0
C8019 C 0.1187 0.66095 0.20649 0.0
C8020 C 0.12096 0.64504 0.21698 0.0
C8021 C 0.12781 0.64355 0.21572 0.0
C8022 C 0.12189 0.6552 0.21015 0.0
C8023 C 0.13162 0.64822 0.21192 0.0
C8024 C 0.12255 0.66532 0.20239 0.0
C8025 C 0.10856 0.66662 0.20309 0.0
N8026 N 0.1286 0.6538 0.20921 0.0
N8027 N 0.11184 0.66179 0.20675 0.0
H8028 H 0.08025 0.37267 0.94411 0.0
H8029 H 0.11196 0.36684 0.96873 0.0
H8030 H 0.08625 0.35312 0.95191 0.0
H8031 H 0.10668 0.38631 0.96021 0.0
H8032 H 0.10172 0.36201 0.96374 0.0
H8033 H 0.08905 0.37799 0.95104 0.0
C8034 C 0.08336 0.3695 0.94734 0.0
C8035 C 0.08254 0.36242 0.94738 0.0
C8036 C 0.10276 0.36735 0.96301 0.0
C8037 C 0.09268 0.36849 0.95528 0.0
C8038 C 0.10861 0.37012 0.96587 0.0
C8039 C 0.11023 0.37698 0.96483 0.0
C8040 C 0.0985 0.37145 0.95904 0.0
C8041 C 0.10566 0.38099 0.96111 0.0
C8042 C 0.08841 0.37254 0.95127 0.0
C8043 C 0.08677 0.35857 0.95162 0.0
N8044 N 0.10004 0.37815 0.9583 0.0
N8045 N 0.09168 0.36165 0.95537 0.0
H8046 H 0.38565 0.33168 0.69763 0.0
H8047 H 0.39064 0.36485 0.72043 0.0
H8048 H 0.40515 0.33916 0.70424 0.0
H8049 H 0.37115 0.35793 0.7132 0.0
H8050 H 0.39587 0.35469 0.71569 0.0
H8051 H 0.38013 0.34047 0.7044 0.0
C8052 C 0.38877 0.33511 0.70057 0.0
C8053 C 0.39588 0.33471 0.70032 0.0
C8054 C 0.39044 0.35535 0.71519 0.0
C8055 C 0.38958 0.34484 0.70803 0.0
C8056 C 0.38744 0.36115 0.71792 0.0
C8057 C 0.38045 0.36228 0.71715 0.0
C8058 C 0.38643 0.35064 0.71165 0.0
C8059 C 0.37656 0.35729 0.71387 0.0
C8060 C 0.38561 0.34016 0.70441 0.0
C8061 C 0.39966 0.33936 0.70418 0.0
N8062 N 0.37962 0.35172 0.71119 0.0
N8063 N 0.39646 0.34424 0.70784 0.0
H8064 H 0.05915 0.42462 0.37081 0.0
H8065 H 0.03564 0.39197 0.3655 0.0
H8066 H 0.05296 0.41703 0.35123 0.0
H8067 H 0.04278 0.39869 0.38508 0.0
H8068 H 0.04074 0.40199 0.36035 0.0
H8069 H 0.05204 0.41602 0.37624 0.0
C8070 C 0.05623 0.4212 0.36765 0.0
C8071 C 0.0567 0.42152 0.36055 0.0
C8072 C 0.04114 0.40131 0.36578 0.0
C8073 C 0.04859 0.41162 0.36674 0.0
C8074 C 0.03822 0.39559 0.36874 0.0
C8075 C 0.03885 0.39444 0.37573 0.0
C8076 C 0.04476 0.40593 0.36983 0.0
C8077 C 0.0422 0.39934 0.37967 0.0
C8078 C 0.0522 0.41627 0.37076 0.0
C8079 C 0.05285 0.4169 0.35672 0.0
N8080 N 0.04509 0.40484 0.37665 0.0
N8081 N 0.049 0.41213 0.35986 0.0
H8082 H 0.33721 0.29925 0.10165 0.0
H8083 H 0.35785 0.29268 0.13594 0.0
H8084 H 0.3318 0.30813 0.1209 0.0
H8085 H 0.36326 0.28407 0.11655 0.0
H8086 H 0.34752 0.2973 0.13084 0.0
H8087 H 0.34606 0.29268 0.1073 0.0
C8088 C 0.33787 0.2998 0.10707 0.0
C8089 C 0.3338 0.3043 0.11079 0.0
C8090 C 0.35094 0.29434 0.12772 0.0
C8091 C 0.34392 0.29676 0.11732 0.0
C8092 C 0.35683 0.29169 0.13063 0.0
C8093 C 0.36148 0.28805 0.12665 0.0
C8094 C 0.34969 0.29337 0.12078 0.0
C8095 C 0.35987 0.2869 0.11981 0.0
C8096 C 0.34291 0.29602 0.11031 0.0
C8097 C 0.3348 0.3047 0.11783 0.0
N8098 N 0.35414 0.2896 0.11708 0.0
N8099 N 0.3398 0.30103 0.12086 0.0
H8100 H 0.44806 0.57979 0.87137 0.0
H8101 H 0.46235 0.61746 0.86646 0.0
H8102 H 0.44571 0.59159 0.85307 0.0
H8103 H 0.46094 0.60771 0.88602 0.0
H8104 H 0.45781 0.60726 0.86118 0.0
H8105 H 0.45415 0.58929 0.87653 0.0
C8106 C 0.44882 0.58436 0.86843 0.0
C8107 C 0.44633 0.58487 0.86176 0.0
C8108 C 0.45853 0.60733 0.86662 0.0
C8109 C 0.45339 0.59573 0.86763 0.0
C8110 C 0.46114 0.61315 0.86965 0.0
C8111 C 0.46197 0.61347 0.87671 0.0
C8112 C 0.45673 0.60175 0.87067 0.0
C8113 C 0.46035 0.6077 0.88056 0.0
C8114 C 0.45233 0.58977 0.87137 0.0
C8115 C 0.4476 0.59089 0.85817 0.0
N8116 N 0.45776 0.60208 0.87749 0.0
N8117 N 0.45102 0.59608 0.86115 0.0
H8118 H 0.16463 0.6837 0.61946 0.0
H8119 H 0.14986 0.72105 0.62506 0.0
H8120 H 0.17495 0.70183 0.61282 0.0
H8121 H 0.13998 0.70277 0.632 0.0
H8122 H 0.15963 0.71426 0.62153 0.0
H8123 H 0.15604 0.69073 0.62493 0.0
C8124 C 0.16509 0.68917 0.61915 0.0
C8125 C 0.17048 0.69218 0.61561 0.0
C8126 C 0.15535 0.71175 0.62389 0.0
C8127 C 0.16066 0.70028 0.62191 0.0
C8128 C 0.14978 0.71563 0.62593 0.0
C8129 C 0.14405 0.71247 0.62877 0.0
C8130 C 0.1552 0.70467 0.62468 0.0
C8131 C 0.14425 0.70542 0.62978 0.0
C8132 C 0.1602 0.69318 0.62231 0.0
C8133 C 0.17089 0.69929 0.61551 0.0
N8134 N 0.14969 0.70176 0.62768 0.0
N8135 N 0.16601 0.7031 0.61856 0.0
H8136 H 0.04833 0.58602 0.15577 0.0
H8137 H 0.03693 0.60898 0.12436 0.0
H8138 H 0.05599 0.58322 0.13547 0.0
H8139 H 0.02881 0.61096 0.14459 0.0
H8140 H 0.04317 0.59888 0.12802 0.0
H8141 H 0.04048 0.59459 0.15151 0.0
C8142 C 0.04835 0.58721 0.15041 0.0
C8143 C 0.05287 0.58395 0.14599 0.0
C8144 C 0.03997 0.60149 0.13163 0.0
C8145 C 0.04386 0.59375 0.14104 0.0
C8146 C 0.03639 0.60724 0.12954 0.0
C8147 C 0.03239 0.61087 0.1342 0.0
C8148 C 0.03956 0.59936 0.13842 0.0
C8149 C 0.03187 0.60837 0.14084 0.0
C8150 C 0.04384 0.59207 0.14797 0.0
C8151 C 0.05258 0.58559 0.13906 0.0
N8152 N 0.03546 0.60282 0.14277 0.0
N8153 N 0.0482 0.59043 0.13681 0.0
H8154 H 0.17407 0.30407 0.88451 0.0
H8155 H 0.13546 0.29224 0.88875 0.0
H8156 H 0.16161 0.30858 0.90195 0.0
H8157 H 0.14603 0.29154 0.86959 0.0
H8158 H 0.14564 0.29679 0.89407 0.0
H8159 H 0.16441 0.29822 0.87933 0.0
C8160 C 0.16932 0.30384 0.88726 0.0
C8161 C 0.16868 0.30684 0.89369 0.0
C8162 C 0.14575 0.29562 0.88871 0.0
C8163 C 0.15764 0.30007 0.88782 0.0
C8164 C 0.13994 0.293 0.88566 0.0
C8165 C 0.13987 0.29155 0.87869 0.0
C8166 C 0.15157 0.29681 0.88478 0.0
C8167 C 0.14585 0.29261 0.87497 0.0
C8168 C 0.16382 0.30047 0.8843 0.0
C8169 C 0.16241 0.30626 0.89704 0.0
N8170 N 0.15146 0.29521 0.87805 0.0
N8171 N 0.15715 0.30296 0.89407 0.0
H8172 H 0.43819 0.4103 0.64725 0.0
H8173 H 0.46361 0.39634 0.61888 0.0
H8174 H 0.45007 0.42363 0.63456 0.0
H8175 H 0.45416 0.38395 0.63426 0.0
H8176 H 0.45846 0.40643 0.62408 0.0
H8177 H 0.44374 0.4006 0.64208 0.0
C8178 C 0.44202 0.41121 0.64342 0.0
C8179 C 0.44371 0.41783 0.6414 0.0
C8180 C 0.45755 0.40149 0.62631 0.0
C8181 C 0.45002 0.40665 0.63532 0.0
C8182 C 0.46047 0.39574 0.62335 0.0
C8183 C 0.4593 0.38928 0.62613 0.0
C8184 C 0.4534 0.40076 0.63207 0.0
C8185 C 0.45521 0.3888 0.63193 0.0
C8186 C 0.44517 0.40564 0.64043 0.0
C8187 C 0.44858 0.41863 0.63625 0.0
N8188 N 0.45239 0.39445 0.63468 0.0
N8189 N 0.45157 0.4131 0.63338 0.0
H8190 H 0.33087 0.70324 0.39224 0.0
H8191 H 0.36202 0.69827 0.36666 0.0
H8192 H 0.33794 0.68384 0.385 0.0
H8193 H 0.35754 0.71734 0.37644 0.0
H8194 H 0.35205 0.6933 0.37202 0.0
H8195 H 0.33952 0.70884 0.38526 0.0
C8196 C 0.3342 0.70017 0.38914 0.0
C8197 C 0.33374 0.69306 0.38925 0.0
C8198 C 0.35322 0.69859 0.37296 0.0
C8199 C 0.34361 0.69941 0.38127 0.0
C8200 C 0.3589 0.70144 0.36988 0.0
C8201 C 0.36067 0.70822 0.37115 0.0
C8202 C 0.34924 0.70253 0.37736 0.0
C8203 C 0.3564 0.71208 0.37534 0.0
C8204 C 0.33915 0.70336 0.38518 0.0
C8205 C 0.3382 0.68932 0.38516 0.0
N8206 N 0.35091 0.70917 0.37835 0.0
N8207 N 0.34295 0.69254 0.38135 0.0
H8208 H 0.36731 0.05412 0.42208 0.0
H8209 H 0.38384 0.06017 0.38548 0.0
H8210 H 0.36667 0.07311 0.41122 0.0
H8211 H 0.3828 0.04046 0.39497 0.0
H8212 H 0.37859 0.06515 0.39548 0.0
H8213 H 0.37395 0.04919 0.41279 0.0
C8214 C 0.36861 0.05726 0.41777 0.0
C8215 C 0.36639 0.06402 0.4174 0.0
C8216 C 0.37953 0.05974 0.39541 0.0
C8217 C 0.37395 0.05842 0.40676 0.0
C8218 C 0.38256 0.05688 0.38969 0.0
C8219 C 0.38372 0.04987 0.38936 0.0
C8220 C 0.37764 0.05556 0.40085 0.0
C8221 C 0.38197 0.04589 0.395 0.0
C8222 C 0.37237 0.05444 0.41246 0.0
C8223 C 0.36817 0.06784 0.41167 0.0
N8224 N 0.37898 0.04878 0.40051 0.0
N8225 N 0.37183 0.06499 0.40659 0.0
H8226 H 0.86481 0.4521 0.58484 0.0
H8227 H 0.88495 0.44529 0.61945 0.0
H8228 H 0.86849 0.43224 0.59326 0.0
H8229 H 0.87891 0.46528 0.61287 0.0
H8230 H 0.88024 0.44056 0.60905 0.0
H8231 H 0.87117 0.45713 0.59427 0.0
C8232 C 0.867 0.4488 0.58864 0.0
C8233 C 0.86607 0.44174 0.5883 0.0
C8234 C 0.87997 0.44599 0.60985 0.0
C8235 C 0.87333 0.44745 0.59909 0.0
C8236 C 0.88268 0.4487 0.61579 0.0
C8237 C 0.88227 0.45569 0.61708 0.0
C8238 C 0.87681 0.45029 0.60513 0.0
C8239 C 0.87931 0.45986 0.61211 0.0
C8240 C 0.87061 0.45167 0.59403 0.0
C8241 C 0.86899 0.43771 0.59338 0.0
N8242 N 0.87665 0.45709 0.60638 0.0
N8243 N 0.87246 0.44062 0.59857 0.0
H8244 H 0.2977 0.11103 0.33131 0.0
H8245 H 0.29797 0.13041 0.36699 0.0
H8246 H 0.31588 0.11688 0.34202 0.0
H8247 H 0.27982 0.12205 0.35801 0.0
H8248 H 0.30437 0.12693 0.35701 0.0
H8249 H 0.29089 0.11639 0.34022 0.0
C8250 C 0.30026 0.1135 0.3355 0.0
C8251 C 0.30737 0.11346 0.33596 0.0
C8252 C 0.29898 0.12589 0.35719 0.0
C8253 C 0.29961 0.11958 0.34616 0.0
C8254 C 0.29531 0.1279 0.36289 0.0
C8255 C 0.28835 0.12646 0.36338 0.0
C8256 C 0.29569 0.1224 0.35193 0.0
C8257 C 0.28518 0.12323 0.35787 0.0
C8258 C 0.29637 0.11652 0.34059 0.0
C8259 C 0.31041 0.11669 0.34152 0.0
N8260 N 0.28889 0.12126 0.35239 0.0
N8261 N 0.30652 0.1196 0.3464 0.0
H8262 H 0.64057 0.55437 0.0806 0.0
H8263 H 0.62003 0.55858 0.11539 0.0
H8264 H 0.63671 0.57355 0.09041 0.0
H8265 H 0.62595 0.53911 0.10732 0.0
H8266 H 0.62498 0.56407 0.1055 0.0
H8267 H 0.63418 0.54864 0.08961 0.0
C8268 C 0.63833 0.55738 0.08462 0.0
C8269 C 0.63922 0.56445 0.08479 0.0
C8270 C 0.62517 0.55859 0.10586 0.0
C8271 C 0.63192 0.55794 0.09509 0.0
C8272 C 0.62232 0.55544 0.11151 0.0
C8273 C 0.62262 0.54837 0.11222 0.0
C8274 C 0.62836 0.55466 0.10086 0.0
C8275 C 0.62563 0.54458 0.10699 0.0
C8276 C 0.63471 0.55411 0.08977 0.0
C8277 C 0.63625 0.56809 0.09013 0.0
N8278 N 0.62843 0.54778 0.10155 0.0
N8279 N 0.63276 0.56479 0.09507 0.0
H8280 H 0.70089 0.38631 0.33209 0.0
H8281 H 0.70599 0.38703 0.37233 0.0
H8282 H 0.68999 0.39956 0.3457 0.0
H8283 H 0.71418 0.37113 0.35971 0.0
H8284 H 0.70095 0.39223 0.36235 0.0
H8285 H 0.70651 0.38113 0.34188 0.0
C8286 C 0.69966 0.38813 0.33712 0.0
C8287 C 0.69496 0.39341 0.33805 0.0
C8288 C 0.70385 0.38761 0.36174 0.0
C8289 C 0.70145 0.38756 0.34926 0.0
C8290 C 0.70675 0.38463 0.36745 0.0
C8291 C 0.7105 0.37861 0.36687 0.0
C8292 C 0.70469 0.38457 0.35536 0.0
C8293 C 0.71131 0.37576 0.36039 0.0
C8294 C 0.7029 0.38518 0.34271 0.0
C8295 C 0.69366 0.39561 0.3447 0.0
N8296 N 0.70842 0.37876 0.35488 0.0
N8297 N 0.69688 0.39268 0.35003 0.0
H8298 H 0.1532 0.94611 0.9118 0.0
H8299 H 0.12021 0.96459 0.89737 0.0
H8300 H 0.13593 0.95098 0.92436 0.0
H8301 H 0.13905 0.96276 0.88636 0.0
H8302 H 0.12582 0.95985 0.90741 0.0
H8303 H 0.14807 0.95241 0.90253 0.0
C8304 C 0.14837 0.94858 0.91266 0.0
C8305 C 0.14501 0.948 0.91891 0.0
C8306 C 0.12873 0.96055 0.90281 0.0
C8307 C 0.139 0.95513 0.90818 0.0
C8308 C 0.12554 0.96326 0.89708 0.0
C8309 C 0.12915 0.96403 0.891 0.0
C8310 C 0.13557 0.95856 0.90243 0.0
C8311 C 0.13604 0.96222 0.89092 0.0
C8312 C 0.14542 0.95215 0.90732 0.0
C8313 C 0.13867 0.95119 0.91962 0.0
N8314 N 0.139 0.95953 0.89652 0.0
N8315 N 0.13585 0.95458 0.91431 0.0
H8316 H 0.30176 0.8892 0.17347 0.0
H8317 H 0.30706 0.87678 0.13517 0.0
H8318 H 0.31938 0.89371 0.16129 0.0
H8319 H 0.28843 0.87348 0.14621 0.0
H8320 H 0.31185 0.88231 0.14509 0.0
H8321 H 0.29699 0.88278 0.16394 0.0
C8322 C 0.30463 0.88882 0.16881 0.0
C8323 C 0.31096 0.89205 0.16816 0.0
C8324 C 0.30672 0.88037 0.14537 0.0
C8325 C 0.30554 0.88473 0.15725 0.0
C8326 C 0.30397 0.87719 0.1397 0.0
C8327 C 0.29731 0.87468 0.13984 0.0
C8328 C 0.3028 0.88107 0.15127 0.0
C8329 C 0.29358 0.87535 0.14587 0.0
C8330 C 0.3019 0.88518 0.16336 0.0
C8331 C 0.31444 0.89142 0.16199 0.0
N8332 N 0.29637 0.87851 0.15135 0.0
N8333 N 0.31169 0.88784 0.15679 0.0
H8334 H 0.18774 0.11865 0.66224 0.0
H8335 H 0.2245 0.12447 0.6462 0.0
H8336 H 0.20628 0.11296 0.6724 0.0
H8337 H 0.20586 0.13136 0.63699 0.0
H8338 H 0.21808 0.12106 0.65627 0.0
H8339 H 0.19441 0.12404 0.65333 0.0
C8340 C 0.19322 0.11855 0.6626 0.0
C8341 C 0.19646 0.11529 0.66803 0.0
C8342 C 0.21541 0.12339 0.65207 0.0
C8343 C 0.20415 0.12149 0.65784 0.0
C8344 C 0.21907 0.12535 0.64633 0.0
C8345 C 0.2157 0.12814 0.64071 0.0
C8346 C 0.20833 0.1242 0.65218 0.0
C8347 C 0.20867 0.12917 0.64117 0.0
C8348 C 0.19703 0.12166 0.65752 0.0
C8349 C 0.20358 0.11543 0.6683 0.0
N8350 N 0.20522 0.12714 0.64677 0.0
N8351 N 0.20719 0.11842 0.66324 0.0
H8352 H 0.08043 0.19609 0.38911 0.0
H8353 H 0.11417 0.20321 0.36763 0.0
H8354 H 0.09931 0.18538 0.39208 0.0
H8355 H 0.09565 0.21456 0.36506 0.0
H8356 H 0.10885 0.1968 0.37677 0.0
H8357 H 0.0859 0.203 0.38037 0.0
C8358 C 0.08572 0.19518 0.38792 0.0
C8359 C 0.08942 0.19015 0.39135 0.0
C8360 C 0.10596 0.20074 0.37426 0.0
C8361 C 0.09571 0.19806 0.38137 0.0
C8362 C 0.10904 0.20447 0.3691 0.0
C8363 C 0.10542 0.20956 0.36571 0.0
C8364 C 0.09918 0.20206 0.37601 0.0
C8365 C 0.09864 0.21071 0.36758 0.0
C8366 C 0.08885 0.19915 0.38295 0.0
C8367 C 0.09628 0.18926 0.38965 0.0
N8368 N 0.09574 0.20699 0.37261 0.0
N8369 N 0.09919 0.19316 0.38477 0.0
H8370 H 0.06839 0.84921 0.64434 0.0
H8371 H 0.03903 0.84431 0.6167 0.0
H8372 H 0.05759 0.83038 0.64146 0.0
H8373 H 0.05135 0.86231 0.6184 0.0
H8374 H 0.04518 0.83936 0.62628 0.0
H8375 H 0.06149 0.85439 0.63549 0.0
C8376 C 0.06451 0.84618 0.6419 0.0
C8377 C 0.06357 0.83934 0.64366 0.0
C8378 C 0.04648 0.84443 0.62461 0.0
C8379 C 0.05569 0.84523 0.63342 0.0
C8380 C 0.04298 0.84725 0.61914 0.0
C8381 C 0.04457 0.8538 0.61685 0.0
C8382 C 0.05166 0.84816 0.62778 0.0
C8383 C 0.04976 0.85737 0.62016 0.0
C8384 C 0.0606 0.84913 0.6368 0.0
C8385 C 0.05855 0.83564 0.64022 0.0
N8386 N 0.05312 0.8545 0.62544 0.0
N8387 N 0.0548 0.83863 0.63526 0.0
H8388 H 0.41113 0.80869 0.89763 0.0
H8389 H 0.40832 0.80023 0.858 0.0
H8390 H 0.42275 0.81893 0.88216 0.0
H8391 H 0.39557 0.79109 0.87324 0.0
H8392 H 0.41415 0.80663 0.86688 0.0
H8393 H 0.40579 0.80176 0.88886 0.0
C8394 C 0.41256 0.80948 0.89239 0.0
C8395 C 0.41739 0.81443 0.89064 0.0
C8396 C 0.41005 0.80325 0.86828 0.0
C8397 C 0.41132 0.80646 0.88056 0.0
C8398 C 0.40672 0.7996 0.86322 0.0
C8399 C 0.40133 0.79526 0.86487 0.0
C8400 C 0.40801 0.80252 0.87507 0.0
C8401 C 0.39952 0.79457 0.87171 0.0
C8402 C 0.40953 0.8055 0.88738 0.0
C8403 C 0.41912 0.81514 0.88377 0.0
N8404 N 0.40284 0.79817 0.87656 0.0
N8405 N 0.41608 0.81122 0.87899 0.0
H8406 H 0.44707 0.17358 0.1383 0.0
H8407 H 0.4535 0.141 0.11491 0.0
H8408 H 0.43569 0.15494 0.13995 0.0
H8409 H 0.46556 0.15922 0.11377 0.0
H8410 H 0.44711 0.14594 0.12428 0.0
H8411 H 0.45401 0.16839 0.12942 0.0
C8412 C 0.44603 0.1684 0.13679 0.0
C8413 C 0.44079 0.16469 0.13988 0.0
C8414 C 0.4512 0.14884 0.12204 0.0
C8415 C 0.44873 0.15871 0.12974 0.0
C8416 C 0.45492 0.14597 0.11674 0.0
C8417 C 0.46019 0.14963 0.11368 0.0
C8418 C 0.45272 0.15544 0.12425 0.0
C8419 C 0.46155 0.15621 0.11602 0.0
C8420 C 0.45001 0.16543 0.13174 0.0
C8421 C 0.43973 0.15796 0.13778 0.0
N8422 N 0.45784 0.15891 0.12117 0.0
N8423 N 0.44365 0.1552 0.13283 0.0
H8424 H 0.08464 0.81789 0.12403 0.0
H8425 H 0.11333 0.79032 0.13221 0.0
H8426 H 0.09754 0.80898 0.10874 0.0
H8427 H 0.09942 0.79819 0.14715 0.0
H8428 H 0.10779 0.79727 0.12357 0.0
H8429 H 0.09001 0.81071 0.13256 0.0
C8430 C 0.08856 0.81437 0.12245 0.0
C8431 C 0.09063 0.81405 0.11564 0.0
C8432 C 0.10597 0.7975 0.12874 0.0
C8433 C 0.09691 0.80587 0.12543 0.0
C8434 C 0.1092 0.79361 0.1337 0.0
C8435 C 0.10695 0.79381 0.14045 0.0
C8436 C 0.10043 0.80161 0.13054 0.0
C8437 C 0.10135 0.79791 0.14201 0.0
C8438 C 0.09166 0.8103 0.12733 0.0
C8439 C 0.09583 0.80948 0.11393 0.0
N8440 N 0.0983 0.80167 0.13711 0.0
N8441 N 0.09879 0.80558 0.11879 0.0
H8442 H 0.4369 0.85087 0.36335 0.0
H8443 H 0.46601 0.84612 0.39129 0.0
H8444 H 0.44815 0.83228 0.36599 0.0
H8445 H 0.45398 0.86426 0.38916 0.0
H8446 H 0.45985 0.84108 0.38176 0.0
H8447 H 0.44357 0.85605 0.37238 0.0
C8448 C 0.44082 0.84789 0.36578 0.0
C8449 C 0.44197 0.84112 0.36389 0.0
C8450 C 0.45861 0.84619 0.38333 0.0
C8451 C 0.44957 0.84701 0.37434 0.0
C8452 C 0.46211 0.84907 0.38877 0.0
C8453 C 0.46062 0.85569 0.39091 0.0
C8454 C 0.45352 0.84995 0.38004 0.0
C8455 C 0.45549 0.85926 0.38751 0.0
C8456 C 0.4446 0.85085 0.37098 0.0
C8457 C 0.44704 0.83748 0.36733 0.0
N8458 N 0.45212 0.85634 0.38225 0.0
N8459 N 0.45065 0.84047 0.37239 0.0
H8460 H 0.40407 0.18644 0.61381 0.0
H8461 H 0.40931 0.21653 0.64059 0.0
H8462 H 0.42297 0.19725 0.61622 0.0
H8463 H 0.39119 0.20434 0.63931 0.0
H8464 H 0.41424 0.20995 0.63129 0.0
H8465 H 0.39904 0.1935 0.62263 0.0
C8466 C 0.40715 0.19035 0.61615 0.0
C8467 C 0.41396 0.19126 0.61425 0.0
C8468 C 0.40916 0.20876 0.633 0.0
C8469 C 0.40823 0.19932 0.62445 0.0
C8470 C 0.40634 0.21251 0.63831 0.0
C8471 C 0.39976 0.2111 0.64061 0.0
C8472 C 0.40537 0.20352 0.63 0.0
C8473 C 0.39616 0.2058 0.63751 0.0
C8474 C 0.40428 0.19435 0.62123 0.0
C8475 C 0.41773 0.19632 0.61757 0.0
N8476 N 0.39901 0.2022 0.63237 0.0
N8477 N 0.41481 0.20016 0.6225 0.0
H8478 H 0.06867 0.17266 0.87293 0.0
H8479 H 0.04287 0.14354 0.88458 0.0
H8480 H 0.06 0.15804 0.85912 0.0
H8481 H 0.05018 0.15937 0.8978 0.0
H8482 H 0.04921 0.14863 0.8752 0.0
H8483 H 0.06187 0.16786 0.88207 0.0
C8484 C 0.06528 0.16849 0.87179 0.0
C8485 C 0.06492 0.16576 0.86523 0.0
C8486 C 0.04945 0.15097 0.88016 0.0
C8487 C 0.0572 0.16013 0.87574 0.0
C8488 C 0.0459 0.14801 0.88554 0.0
C8489 C 0.04615 0.15094 0.89202 0.0
C8490 C 0.05324 0.15691 0.88127 0.0
C8491 C 0.0499 0.15692 0.89289 0.0
C8492 C 0.06143 0.16571 0.87704 0.0
C8493 C 0.06052 0.16025 0.86411 0.0
N8494 N 0.05332 0.15969 0.8876 0.0
N8495 N 0.05685 0.15761 0.86932 0.0
H8496 H 0.39181 0.10124 0.18632 0.0
H8497 H 0.3647 0.09682 0.21624 0.0
H8498 H 0.38892 0.08251 0.19729 0.0
H8499 H 0.36672 0.11497 0.2042 0.0
H8500 H 0.37392 0.09164 0.20976 0.0
H8501 H 0.38312 0.10656 0.19333 0.0
C8502 C 0.38939 0.09825 0.19025 0.0
C8503 C 0.39111 0.09141 0.19122 0.0
C8504 C 0.3724 0.09679 0.20858 0.0
C8505 C 0.38106 0.09747 0.19922 0.0
C8506 C 0.36713 0.09974 0.21227 0.0
C8507 C 0.36505 0.1064 0.21087 0.0
C8508 C 0.37557 0.1005 0.20339 0.0
C8509 C 0.36833 0.10993 0.20564 0.0
C8510 C 0.38439 0.10129 0.19422 0.0
C8511 C 0.38771 0.08778 0.19631 0.0
N8512 N 0.37343 0.10694 0.20209 0.0
N8513 N 0.38284 0.09085 0.20012 0.0
H8514 H 0.17122 0.13261 0.43681 0.0
H8515 H 0.14234 0.12286 0.46367 0.0
H8516 H 0.15685 0.14708 0.44477 0.0
H8517 H 0.15743 0.10884 0.4563 0.0
H8518 H 0.14741 0.13179 0.45669 0.0
H8519 H 0.1662 0.12387 0.44396 0.0
C8520 C 0.16705 0.13397 0.44011 0.0
C8521 C 0.16447 0.14061 0.44019 0.0
C8522 C 0.14959 0.12675 0.45658 0.0
C8523 C 0.1586 0.13056 0.44834 0.0
C8524 C 0.14663 0.12162 0.46049 0.0
C8525 C 0.14936 0.11505 0.46044 0.0
C8526 C 0.15533 0.12529 0.45261 0.0
C8527 C 0.15514 0.11383 0.45647 0.0
C8528 C 0.16414 0.12896 0.44416 0.0
C8529 C 0.15896 0.14202 0.44448 0.0
N8530 N 0.15791 0.11888 0.4527 0.0
N8531 N 0.1562 0.13704 0.44837 0.0
H8532 H 0.12312 0.92272 0.68521 0.0
H8533 H 0.13301 0.89442 0.71262 0.0
H8534 H 0.1087 0.90857 0.69367 0.0
H8535 H 0.14711 0.90916 0.70469 0.0
H8536 H 0.12403 0.89946 0.70571 0.0
H8537 H 0.13192 0.91789 0.69244 0.0
C8538 C 0.12178 0.91865 0.68864 0.0
C8539 C 0.11514 0.91606 0.68882 0.0
C8540 C 0.12909 0.90157 0.70545 0.0
C8541 C 0.12525 0.91041 0.69706 0.0
C8542 C 0.13425 0.89863 0.70933 0.0
C8543 C 0.14086 0.90125 0.70909 0.0
C8544 C 0.13056 0.9072 0.70133 0.0
C8545 C 0.14209 0.90694 0.705 0.0
C8546 C 0.12682 0.91585 0.69273 0.0
C8547 C 0.11376 0.91068 0.69328 0.0
N8548 N 0.137 0.9097 0.70126 0.0
N8549 N 0.11877 0.90802 0.69721 0.0
H8550 H 0.34929 0.85816 0.94526 0.0
H8551 H 0.34977 0.89744 0.95564 0.0
H8552 H 0.3362 0.87328 0.93634 0.0
H8553 H 0.36401 0.88274 0.96339 0.0
H8554 H 0.34442 0.88852 0.9489 0.0
H8555 H 0.3545 0.86698 0.95225 0.0
C8556 C 0.34751 0.86333 0.94476 0.0
C8557 C 0.3423 0.86497 0.94018 0.0
C8558 C 0.34875 0.88725 0.95204 0.0
C8559 C 0.3482 0.87509 0.94822 0.0
C8560 C 0.3518 0.89234 0.95589 0.0
C8561 C 0.35745 0.89086 0.95997 0.0
C8562 C 0.35131 0.88061 0.9523 0.0
C8563 C 0.35983 0.88416 0.96014 0.0
C8564 C 0.35047 0.86836 0.94877 0.0
C8565 C 0.34013 0.87175 0.93985 0.0
N8566 N 0.35675 0.87928 0.95636 0.0
N8567 N 0.3431 0.87655 0.9438 0.0
H8568 H 0.38299 0.92134 0.31841 0.0
H8569 H 0.37375 0.89268 0.29115 0.0
H8570 H 0.39775 0.90756 0.30994 0.0
H8571 H 0.35933 0.90719 0.29892 0.0
H8572 H 0.38261 0.89797 0.29803 0.0
H8573 H 0.3743 0.91628 0.3112 0.0
C8574 C 0.38443 0.9173 0.31498 0.0
C8575 C 0.39113 0.91488 0.31479 0.0
C8576 C 0.3775 0.89998 0.29826 0.0
C8577 C 0.38114 0.90897 0.30658 0.0
C8578 C 0.37241 0.8969 0.2944 0.0
C8579 C 0.36575 0.89938 0.2946 0.0
C8580 C 0.37591 0.90561 0.30232 0.0
C8581 C 0.3644 0.90508 0.29864 0.0
C8582 C 0.37944 0.91437 0.31089 0.0
C8583 C 0.39264 0.90953 0.31033 0.0
N8584 N 0.36942 0.90798 0.30236 0.0
N8585 N 0.38769 0.90675 0.30642 0.0
H8586 H 0.34636 0.14707 0.55849 0.0
H8587 H 0.34571 0.10769 0.54854 0.0
H8588 H 0.33275 0.13243 0.56745 0.0
H8589 H 0.36047 0.12184 0.54075 0.0
H8590 H 0.3405 0.11687 0.55501 0.0
H8591 H 0.35126 0.13806 0.55153 0.0
C8592 C 0.3444 0.14197 0.559 0.0
C8593 C 0.33914 0.14052 0.56359 0.0
C8594 C 0.34491 0.11797 0.55192 0.0
C8595 C 0.3447 0.13018 0.55559 0.0
C8596 C 0.34788 0.11273 0.54822 0.0
C8597 C 0.35364 0.11397 0.54422 0.0
C8598 C 0.34767 0.12453 0.5516 0.0
C8599 C 0.3562 0.1206 0.54396 0.0
C8600 C 0.34718 0.13683 0.55501 0.0
C8601 C 0.33673 0.13382 0.56393 0.0
N8602 N 0.3532 0.12564 0.5476 0.0
N8603 N 0.33954 0.12891 0.56001 0.0
H8604 H 0.12295 0.08415 0.81691 0.0
H8605 H 0.13289 0.11217 0.78926 0.0
H8606 H 0.10848 0.09795 0.80797 0.0
H8607 H 0.14705 0.09769 0.79753 0.0
H8608 H 0.12388 0.10708 0.79607 0.0
H8609 H 0.13179 0.08894 0.80971 0.0
C8610 C 0.12161 0.08813 0.81338 0.0
C8611 C 0.11495 0.09064 0.81306 0.0
C8612 C 0.12896 0.10503 0.79642 0.0
C8613 C 0.1251 0.09625 0.80486 0.0
C8614 C 0.13414 0.10801 0.7926 0.0
C8615 C 0.14078 0.10547 0.79297 0.0
C8616 C 0.13043 0.09946 0.80062 0.0
C8617 C 0.14201 0.09983 0.79713 0.0
C8618 C 0.12668 0.09091 0.8093 0.0
C8619 C 0.11356 0.09591 0.80847 0.0
N8620 N 0.1369 0.09704 0.80082 0.0
N8621 N 0.11859 0.09855 0.80456 0.0
H8622 H 0.17226 0.86685 0.05735 0.0
H8623 H 0.13913 0.88954 0.05117 0.0
H8624 H 0.15367 0.86463 0.06872 0.0
H8625 H 0.15741 0.89138 0.03929 0.0
H8626 H 0.14427 0.88019 0.05744 0.0
H8627 H 0.16687 0.87571 0.05054 0.0
C8628 C 0.16705 0.86823 0.05842 0.0
C8629 C 0.16342 0.86499 0.06362 0.0
C8630 C 0.14714 0.88258 0.05341 0.0
C8631 C 0.1572 0.8751 0.05582 0.0
C8632 C 0.14416 0.88787 0.04977 0.0
C8633 C 0.14777 0.89112 0.04457 0.0
C8634 C 0.15381 0.88057 0.05191 0.0
C8635 C 0.15443 0.88898 0.04323 0.0
C8636 C 0.16396 0.87326 0.05451 0.0
C8637 C 0.15665 0.86693 0.06471 0.0
N8638 N 0.15723 0.88383 0.04687 0.0
N8639 N 0.15377 0.87186 0.06086 0.0
H8640 H 0.18824 0.38398 0.08283 0.0
H8641 H 0.21595 0.37609 0.11143 0.0
H8642 H 0.19746 0.39943 0.09533 0.0
H8643 H 0.20793 0.36096 0.09783 0.0
H8644 H 0.20924 0.38473 0.10561 0.0
H8645 H 0.19558 0.37553 0.0881 0.0
C8646 C 0.19187 0.38562 0.08662 0.0
C8647 C 0.19221 0.39244 0.08864 0.0
C8648 C 0.20892 0.37952 0.10391 0.0
C8649 C 0.20056 0.38274 0.09481 0.0
C8650 C 0.21269 0.37457 0.1073 0.0
C8651 C 0.21235 0.36777 0.10523 0.0
C8652 C 0.2048 0.37766 0.0984 0.0
C8653 C 0.20829 0.36614 0.09962 0.0
C8654 C 0.19603 0.38077 0.08967 0.0
C8655 C 0.19693 0.39422 0.09368 0.0
N8656 N 0.20464 0.37104 0.09643 0.0
N8657 N 0.2009 0.3894 0.0966 0.0
H8658 H 0.69698 0.1143 0.92292 0.0
H8659 H 0.70321 0.13893 0.89124 0.0
H8660 H 0.68534 0.11349 0.90439 0.0
H8661 H 0.71509 0.13962 0.90959 0.0
H8662 H 0.69705 0.12916 0.89571 0.0
H8663 H 0.70403 0.12322 0.91794 0.0
C8664 C 0.69591 0.116 0.9178 0.0
C8665 C 0.69055 0.11315 0.91408 0.0
C8666 C 0.70106 0.13139 0.89874 0.0
C8667 C 0.69861 0.12334 0.90833 0.0
C8668 C 0.70465 0.13692 0.89613 0.0
C8669 C 0.70979 0.13998 0.89997 0.0
C8670 C 0.70257 0.12896 0.90526 0.0
C8671 C 0.71119 0.13737 0.90645 0.0
C8672 C 0.69995 0.12106 0.91495 0.0
C8673 C 0.68946 0.11547 0.90743 0.0
N8674 N 0.7076 0.13202 0.90889 0.0
N8675 N 0.69343 0.12045 0.90479 0.0
H8676 H 0.13213 0.4372 0.17142 0.0
H8677 H 0.12137 0.46389 0.14275 0.0
H8678 H 0.14623 0.44553 0.15688 0.0
H8679 H 0.1077 0.45607 0.15793 0.0
H8680 H 0.13053 0.45712 0.14768 0.0
H8681 H 0.12315 0.44413 0.16651 0.0
C8682 C 0.13336 0.44053 0.16723 0.0
C8683 C 0.13997 0.44078 0.16458 0.0
C8684 C 0.12552 0.45686 0.14991 0.0
C8685 C 0.12964 0.44868 0.15883 0.0
C8686 C 0.12026 0.46065 0.14703 0.0
C8687 C 0.11372 0.46041 0.14982 0.0
C8688 C 0.12423 0.45282 0.15564 0.0
C8689 C 0.11266 0.45638 0.15559 0.0
C8690 C 0.12821 0.44446 0.16439 0.0
C8691 C 0.14121 0.44511 0.15904 0.0
N8692 N 0.11785 0.45273 0.15829 0.0
N8693 N 0.13609 0.44888 0.15635 0.0
H8694 H 0.80883 0.89228 0.4233 0.0
H8695 H 0.80208 0.86925 0.39054 0.0
H8696 H 0.82041 0.89376 0.40478 0.0
H8697 H 0.79049 0.86765 0.40902 0.0
H8698 H 0.8084 0.8787 0.39544 0.0
H8699 H 0.80171 0.88363 0.418 0.0
C8700 C 0.80988 0.89079 0.41812 0.0
C8701 C 0.81525 0.89375 0.41449 0.0
C8702 C 0.80442 0.87634 0.3984 0.0
C8703 C 0.80707 0.88386 0.40837 0.0
C8704 C 0.80074 0.871 0.39556 0.0
C8705 C 0.79563 0.86777 0.39931 0.0
C8706 C 0.80303 0.87843 0.40507 0.0
C8707 C 0.79436 0.87003 0.40594 0.0
C8708 C 0.80579 0.88587 0.41508 0.0
C8709 C 0.81629 0.89168 0.40775 0.0
N8710 N 0.79804 0.87522 0.40861 0.0
N8711 N 0.81226 0.88685 0.40492 0.0
H8712 H 0.87369 0.06911 0.17103 0.0
H8713 H 0.88337 0.0415 0.14286 0.0
H8714 H 0.85905 0.06018 0.15741 0.0
H8715 H 0.89778 0.05031 0.15678 0.0
H8716 H 0.87439 0.04832 0.14801 0.0
H8717 H 0.88253 0.06215 0.16591 0.0
C8718 C 0.87232 0.06564 0.167 0.0
C8719 C 0.8656 0.06523 0.16466 0.0
C8720 C 0.87952 0.04879 0.14992 0.0
C8721 C 0.87576 0.05729 0.15868 0.0
C8722 C 0.88468 0.04496 0.14691 0.0
C8723 C 0.89137 0.04547 0.14927 0.0
C8724 C 0.88107 0.05311 0.15536 0.0
C8725 C 0.89269 0.04979 0.15477 0.0
C8726 C 0.87739 0.06169 0.16404 0.0
C8727 C 0.86417 0.06072 0.15933 0.0
N8728 N 0.8876 0.05346 0.15761 0.0
N8729 N 0.8692 0.05694 0.15652 0.0
H8730 H 0.30854 0.61388 0.58024 0.0
H8731 H 0.30132 0.63693 0.6129 0.0
H8732 H 0.31946 0.61206 0.59914 0.0
H8733 H 0.29031 0.6389 0.5941 0.0
H8734 H 0.30765 0.62745 0.60809 0.0
H8735 H 0.30153 0.62277 0.58531 0.0
C8736 C 0.30947 0.61535 0.58545 0.0
C8737 C 0.31461 0.61222 0.58926 0.0
C8738 C 0.3038 0.6299 0.60503 0.0
C8739 C 0.30657 0.62237 0.59511 0.0
C8740 C 0.30011 0.63526 0.60782 0.0
C8741 C 0.29515 0.63859 0.60396 0.0
C8742 C 0.30257 0.62789 0.5983 0.0
C8743 C 0.29407 0.63644 0.59726 0.0
C8744 C 0.30544 0.62041 0.58835 0.0
C8745 C 0.3155 0.61426 0.59603 0.0
N8746 N 0.29774 0.63122 0.59465 0.0
N8747 N 0.31155 0.61922 0.59872 0.0
H8748 H 0.14693 0.55869 0.34708 0.0
H8749 H 0.10745 0.54903 0.34781 0.0
H8750 H 0.13186 0.56801 0.33421 0.0
H8751 H 0.12213 0.54092 0.36186 0.0
H8752 H 0.11646 0.55558 0.34238 0.0
H8753 H 0.13803 0.55175 0.35223 0.0
C8754 C 0.14175 0.55928 0.34534 0.0
C8755 C 0.14015 0.56397 0.34021 0.0
C8756 C 0.11771 0.55241 0.34668 0.0
C8757 C 0.12994 0.55599 0.34605 0.0
C8758 C 0.11257 0.54866 0.34978 0.0
C8759 C 0.11402 0.54455 0.35541 0.0
C8760 C 0.12437 0.552 0.34918 0.0
C8761 C 0.12074 0.54422 0.35771 0.0
C8762 C 0.13668 0.5553 0.34826 0.0
C8763 C 0.13336 0.56442 0.33808 0.0
N8764 N 0.12567 0.5479 0.35459 0.0
N8765 N 0.12851 0.5605 0.34102 0.0
H8766 H 0.37406 0.43618 0.83566 0.0
H8767 H 0.38351 0.46393 0.86377 0.0
H8768 H 0.3592 0.446 0.8484 0.0
H8769 H 0.3981 0.45499 0.85013 0.0
H8770 H 0.37455 0.45728 0.85836 0.0
H8771 H 0.38291 0.44306 0.84089 0.0
C8772 C 0.37264 0.43983 0.83951 0.0
C8773 C 0.36586 0.4405 0.84159 0.0
C8774 C 0.37971 0.45675 0.85657 0.0
C8775 C 0.37602 0.44834 0.84769 0.0
C8776 C 0.38485 0.46047 0.85973 0.0
C8777 C 0.39159 0.45987 0.85752 0.0
C8778 C 0.38132 0.45242 0.85114 0.0
C8779 C 0.39297 0.45557 0.85203 0.0
C8780 C 0.37771 0.44373 0.84253 0.0
C8781 C 0.36436 0.44524 0.8467 0.0
N8782 N 0.38789 0.45199 0.84905 0.0
N8783 N 0.3694 0.44896 0.84958 0.0
H8784 H 0.9211 0.80666 0.60055 0.0
H8785 H 0.89707 0.80256 0.63299 0.0
H8786 H 0.91225 0.82337 0.61155 0.0
H8787 H 0.90298 0.78575 0.62026 0.0
H8788 H 0.90424 0.81004 0.62626 0.0
H8789 H 0.91603 0.79877 0.60871 0.0
C8790 C 0.91815 0.80867 0.60472 0.0
C8791 C 0.91704 0.81568 0.60534 0.0
C8792 C 0.90402 0.8047 0.62497 0.0
C8793 C 0.91122 0.8067 0.61467 0.0
C8794 C 0.89994 0.80042 0.62883 0.0
C8795 C 0.89935 0.79352 0.62715 0.0
C8796 C 0.90755 0.8021 0.61936 0.0
C8797 C 0.90324 0.79104 0.62172 0.0
C8798 C 0.91524 0.80417 0.60936 0.0
C8799 C 0.91314 0.81801 0.61082 0.0
N8800 N 0.90713 0.79534 0.61798 0.0
N8801 N 0.91036 0.81353 0.61525 0.0
H8802 H 0.95142 0.16267 0.34183 0.0
H8803 H 0.96237 0.15258 0.37955 0.0
H8804 H 0.94068 0.16931 0.3597 0.0
H8805 H 0.97266 0.14562 0.36152 0.0
H8806 H 0.9552 0.15983 0.37249 0.0
H8807 H 0.95996 0.15739 0.34906 0.0
C8808 C 0.95086 0.16302 0.34728 0.0
C8809 C 0.94528 0.16637 0.35016 0.0
C8810 C 0.95908 0.15677 0.37009 0.0
C8811 C 0.95509 0.16037 0.3585 0.0
C8812 C 0.96319 0.15264 0.37412 0.0
C8813 C 0.96808 0.14842 0.37112 0.0
C8814 C 0.95985 0.15667 0.36301 0.0
C8815 C 0.96892 0.14873 0.36406 0.0
C8816 C 0.95577 0.16004 0.35141 0.0
C8817 C 0.94491 0.1668 0.35726 0.0
N8818 N 0.96481 0.15273 0.36025 0.0
N8819 N 0.94971 0.16377 0.36119 0.0
H8820 H 0.58413 0.19858 0.10375 0.0
H8821 H 0.60988 0.203 0.1348 0.0
H8822 H 0.59418 0.18199 0.11389 0.0
H8823 H 0.60242 0.21977 0.12286 0.0
H8824 H 0.60258 0.19535 0.12841 0.0
H8825 H 0.58929 0.20647 0.11185 0.0
C8826 C 0.58735 0.19659 0.10773 0.0
C8827 C 0.58878 0.18962 0.10811 0.0
C8828 C 0.60248 0.20071 0.12722 0.0
C8829 C 0.59471 0.19861 0.11736 0.0
C8830 C 0.60664 0.2051 0.13089 0.0
C8831 C 0.60684 0.21204 0.12931 0.0
C8832 C 0.59848 0.20327 0.12191 0.0
C8833 C 0.60248 0.21446 0.12422 0.0
C8834 C 0.59032 0.2011 0.11232 0.0
C8835 C 0.59303 0.18733 0.11333 0.0
N8836 N 0.59853 0.21006 0.12065 0.0
N8837 N 0.59587 0.19181 0.11773 0.0
H8838 H 0.55408 0.83434 0.84148 0.0
H8839 H 0.54395 0.8474 0.87852 0.0
H8840 H 0.56554 0.82971 0.85955 0.0
H8841 H 0.5338 0.85359 0.86013 0.0
H8842 H 0.55077 0.83942 0.87191 0.0
H8843 H 0.54557 0.84 0.84847 0.0
C8844 C 0.55479 0.83448 0.84692 0.0
C8845 C 0.56058 0.83161 0.84992 0.0
C8846 C 0.547 0.84248 0.86933 0.0
C8847 C 0.55082 0.83806 0.85797 0.0
C8848 C 0.54308 0.84702 0.87311 0.0
C8849 C 0.53835 0.85124 0.86987 0.0
C8850 C 0.54617 0.84215 0.86226 0.0
C8851 C 0.53744 0.8505 0.86284 0.0
C8852 C 0.54991 0.83769 0.85092 0.0
C8853 C 0.56115 0.83182 0.85702 0.0
N8854 N 0.54136 0.8461 0.85927 0.0
N8855 N 0.55637 0.83505 0.8608 0.0
H8856 H 0.91445 0.1815 0.89135 0.0
H8857 H 0.90294 0.21924 0.88229 0.0
H8858 H 0.92105 0.19905 0.90262 0.0
H8859 H 0.89757 0.20158 0.87049 0.0
H8860 H 0.91053 0.21218 0.88912 0.0
H8861 H 0.90908 0.18896 0.88307 0.0
C8862 C 0.91478 0.18693 0.89206 0.0
C8863 C 0.91813 0.18966 0.89772 0.0
C8864 C 0.90775 0.20987 0.88499 0.0
C8865 C 0.912 0.19826 0.88825 0.0
C8866 C 0.90342 0.2139 0.88107 0.0
C8867 C 0.89954 0.21099 0.87585 0.0
C8868 C 0.90816 0.20287 0.8837 0.0
C8869 C 0.9004 0.20405 0.8745 0.0
C8870 C 0.91175 0.1912 0.88732 0.0
C8871 C 0.91852 0.19674 0.89833 0.0
N8872 N 0.90456 0.20023 0.87843 0.0
N8873 N 0.91542 0.2008 0.89369 0.0
H8874 H 0.55683 0.17102 0.65052 0.0
H8875 H 0.5527 0.14634 0.61857 0.0
H8876 H 0.57356 0.1623 0.63944 0.0
H8877 H 0.53587 0.15285 0.63099 0.0
H8878 H 0.56021 0.15364 0.62513 0.0
H8879 H 0.54894 0.1658 0.64246 0.0
C8880 C 0.55884 0.16807 0.64635 0.0
C8881 C 0.56586 0.16703 0.64569 0.0
C8882 C 0.55487 0.15353 0.62639 0.0
C8883 C 0.55687 0.16104 0.63647 0.0
C8884 C 0.55056 0.14937 0.62262 0.0
C8885 C 0.54365 0.14891 0.62428 0.0
C8886 C 0.55227 0.15726 0.63187 0.0
C8887 C 0.54117 0.153 0.62956 0.0
C8888 C 0.55434 0.16507 0.64177 0.0
C8889 C 0.56819 0.16313 0.64021 0.0
N8890 N 0.54549 0.15695 0.63321 0.0
N8891 N 0.56371 0.16026 0.63584 0.0
H8892 H 0.59309 0.82492 0.38906 0.0
H8893 H 0.60321 0.78622 0.38264 0.0
H8894 H 0.58552 0.80837 0.40121 0.0
H8895 H 0.60988 0.80291 0.37012 0.0
H8896 H 0.59577 0.79401 0.3888 0.0
H8897 H 0.59843 0.81675 0.38145 0.0
C8898 C 0.59254 0.81955 0.39011 0.0
C8899 C 0.58892 0.81732 0.39582 0.0
C8900 C 0.5988 0.79595 0.38465 0.0
C8901 C 0.59501 0.80791 0.38711 0.0
C8902 C 0.60304 0.7915 0.38112 0.0
C8903 C 0.60724 0.79393 0.3759 0.0
C8904 C 0.59878 0.80288 0.38297 0.0
C8905 C 0.60679 0.80082 0.37415 0.0
C8906 C 0.59556 0.81488 0.38575 0.0
C8907 C 0.58826 0.81031 0.39686 0.0
N8908 N 0.6027 0.80505 0.37772 0.0
N8909 N 0.59134 0.80585 0.39259 0.0
H8910 H 0.94939 0.83974 0.15795 0.0
H8911 H 0.9554 0.85585 0.12138 0.0
H8912 H 0.93544 0.83717 0.14128 0.0
H8913 H 0.97064 0.85559 0.13711 0.0
H8914 H 0.94828 0.84847 0.12833 0.0
H8915 H 0.95744 0.84515 0.15024 0.0
C8916 C 0.94803 0.8403 0.15266 0.0
C8917 C 0.94172 0.83805 0.15027 0.0
C8918 C 0.95322 0.84996 0.13023 0.0
C8919 C 0.95092 0.84422 0.14139 0.0
C8920 C 0.95729 0.85418 0.12626 0.0
C8921 C 0.96361 0.8564 0.12869 0.0
C8922 C 0.95544 0.84801 0.13671 0.0
C8923 C 0.9658 0.85404 0.13504 0.0
C8924 C 0.95265 0.84335 0.14825 0.0
C8925 C 0.94027 0.83881 0.14334 0.0
N8926 N 0.96169 0.85004 0.13886 0.0
N8927 N 0.9448 0.84189 0.13915 0.0
H8928 H 0.60396 0.92044 0.8086 0.0
H8929 H 0.63549 0.89561 0.80265 0.0
H8930 H 0.61533 0.91089 0.82468 0.0
H8931 H 0.62261 0.90288 0.78649 0.0
H8932 H 0.62932 0.90278 0.81061 0.0
H8933 H 0.61183 0.91556 0.80032 0.0
C8934 C 0.60816 0.91739 0.81039 0.0
C8935 C 0.60895 0.91601 0.81733 0.0
C8936 C 0.62789 0.90286 0.80531 0.0
C8937 C 0.61795 0.91039 0.8079 0.0
C8938 C 0.63143 0.89878 0.80075 0.0
C8939 C 0.62952 0.89857 0.79389 0.0
C8940 C 0.62237 0.90675 0.80303 0.0
C8941 C 0.62423 0.90284 0.79173 0.0
C8942 C 0.61263 0.91458 0.80567 0.0
C8943 C 0.61446 0.91198 0.81937 0.0
N8944 N 0.6208 0.9067 0.7963 0.0
N8945 N 0.61872 0.90929 0.81468 0.0
H8946 H 0.83525 0.86506 0.56878 0.0
H8947 H 0.85513 0.86866 0.53358 0.0
H8948 H 0.83865 0.84844 0.55496 0.0
H8949 H 0.85533 0.88394 0.54926 0.0
H8950 H 0.84729 0.86193 0.54043 0.0
H8951 H 0.84083 0.87271 0.56076 0.0
C8952 C 0.83709 0.86304 0.56402 0.0
C8953 C 0.83653 0.8561 0.56256 0.0
C8954 C 0.849 0.86678 0.54234 0.0
C8955 C 0.84296 0.86481 0.55339 0.0
C8956 C 0.85346 0.87065 0.53842 0.0
C8957 C 0.85596 0.87685 0.54088 0.0
C8958 C 0.84701 0.86914 0.54876 0.0
C8959 C 0.85359 0.87917 0.54719 0.0
C8960 C 0.84031 0.8674 0.55946 0.0
C8961 C 0.83906 0.85374 0.55634 0.0
N8962 N 0.84929 0.87529 0.55093 0.0
N8963 N 0.84219 0.85808 0.55199 0.0
H8964 H 0.8906 0.09349 0.32583 0.0
H8965 H 0.88267 0.1012 0.28688 0.0
H8966 H 0.90151 0.08419 0.30931 0.0
H8967 H 0.87109 0.10936 0.30359 0.0
H8968 H 0.88893 0.09408 0.29489 0.0
H8969 H 0.88282 0.0986 0.31768 0.0
C8970 C 0.89135 0.09251 0.32048 0.0
C8971 C 0.89676 0.08846 0.31824 0.0
C8972 C 0.88496 0.09737 0.29679 0.0
C8973 C 0.88784 0.09429 0.30885 0.0
C8974 C 0.88137 0.10143 0.29222 0.0
C8975 C 0.8764 0.10595 0.29457 0.0
C8976 C 0.88359 0.09786 0.30376 0.0
C8977 C 0.87492 0.106 0.30154 0.0
C8978 C 0.88688 0.0954 0.31582 0.0
C8979 C 0.8974 0.08726 0.31125 0.0
N8980 N 0.87855 0.10208 0.30588 0.0
N8981 N 0.89304 0.09022 0.3068 0.0
H8982 H 0.66935 0.14164 0.07012 0.0
H8983 H 0.65139 0.13761 0.03394 0.0
H8984 H 0.66677 0.15808 0.05592 0.0
H8985 H 0.65046 0.12246 0.04973 0.0
H8986 H 0.65882 0.14445 0.04113 0.0
H8987 H 0.66418 0.1339 0.06192 0.0
C8988 C 0.66777 0.1436 0.06525 0.0
C8989 C 0.66844 0.15052 0.06372 0.0
C8990 C 0.65704 0.1396 0.04299 0.0
C8991 C 0.66248 0.14171 0.05433 0.0
C8992 C 0.65283 0.13567 0.03887 0.0
C8993 C 0.65023 0.12948 0.04126 0.0
C8994 C 0.6587 0.13732 0.04953 0.0
C8995 C 0.65228 0.12723 0.0477 0.0
C8996 C 0.66478 0.13919 0.06058 0.0
C8997 C 0.66625 0.1528 0.05734 0.0
N8998 N 0.65635 0.13117 0.05163 0.0
N8999 N 0.66334 0.14841 0.05289 0.0
H9000 H 0.61333 0.09344 0.68233 0.0
H9001 H 0.62184 0.10176 0.72103 0.0
H9002 H 0.60277 0.08426 0.69914 0.0
H9003 H 0.63283 0.11001 0.70398 0.0
H9004 H 0.6156 0.09437 0.71325 0.0
H9005 H 0.62121 0.09871 0.69028 0.0
C9006 C 0.61268 0.09252 0.6877 0.0
C9007 C 0.60734 0.08847 0.69008 0.0
C9008 C 0.61943 0.09774 0.71122 0.0
C9009 C 0.61636 0.09448 0.69925 0.0
C9010 C 0.62302 0.10195 0.71567 0.0
C9011 C 0.62781 0.10658 0.71315 0.0
C9012 C 0.62064 0.09819 0.70422 0.0
C9013 C 0.62913 0.10659 0.70616 0.0
C9014 C 0.6172 0.0955 0.69225 0.0
C9015 C 0.60682 0.08734 0.69709 0.0
N9016 N 0.62552 0.10252 0.70194 0.0
N9017 N 0.61123 0.09039 0.70144 0.0
H9018 H 0.67027 0.86237 0.43694 0.0
H9019 H 0.65034 0.86558 0.47216 0.0
H9020 H 0.66637 0.84545 0.45027 0.0
H9021 H 0.65087 0.88133 0.45696 0.0
H9022 H 0.65794 0.85874 0.46515 0.0
H9023 H 0.66488 0.86993 0.44516 0.0
C9024 C 0.66836 0.86025 0.44164 0.0
C9025 C 0.66872 0.85326 0.44291 0.0
C9026 C 0.65644 0.86373 0.46338 0.0
C9027 C 0.6625 0.86188 0.4523 0.0
C9028 C 0.65213 0.86765 0.4674 0.0
C9029 C 0.6499 0.87401 0.46512 0.0
C9030 C 0.65857 0.8662 0.45705 0.0
C9031 C 0.6524 0.87643 0.4589 0.0
C9032 C 0.66524 0.86457 0.44631 0.0
C9033 C 0.66609 0.8508 0.44905 0.0
N9034 N 0.65656 0.8725 0.45507 0.0
N9035 N 0.66307 0.85509 0.45351 0.0
H9036 H 0.89263 0.91137 0.18029 0.0
H9037 H 0.88401 0.90478 0.2193 0.0
H9038 H 0.90235 0.92208 0.19671 0.0
H9039 H 0.87387 0.89482 0.20263 0.0
H9040 H 0.88988 0.91209 0.21117 0.0
H9041 H 0.88494 0.90609 0.18843 0.0
C9042 C 0.89313 0.91262 0.18562 0.0
C9043 C 0.89819 0.91711 0.18784 0.0
C9044 C 0.88631 0.90836 0.2093 0.0
C9045 C 0.88938 0.9111 0.1972 0.0
C9046 C 0.88294 0.90419 0.21394 0.0
C9047 C 0.8785 0.89911 0.21165 0.0
C9048 C 0.88526 0.90742 0.20232 0.0
C9049 C 0.8773 0.89861 0.20465 0.0
C9050 C 0.88872 0.90963 0.19026 0.0
C9051 C 0.89852 0.91866 0.19478 0.0
N9052 N 0.88071 0.90265 0.20024 0.0
N9053 N 0.89422 0.9156 0.19923 0.0
H9054 H 0.83344 0.15144 0.94724 0.0
H9055 H 0.85835 0.1198 0.95235 0.0
H9056 H 0.84313 0.14063 0.93086 0.0
H9057 H 0.85144 0.13247 0.96881 0.0
H9058 H 0.85119 0.12621 0.94457 0.0
H9059 H 0.83847 0.14344 0.95531 0.0
C9060 C 0.83656 0.14734 0.94534 0.0
C9061 C 0.83792 0.14674 0.93838 0.0
C9062 C 0.85118 0.12755 0.9499 0.0
C9063 C 0.84371 0.13759 0.94757 0.0
C9064 C 0.85526 0.12387 0.95436 0.0
C9065 C 0.85557 0.12565 0.96124 0.0
C9066 C 0.84738 0.13306 0.95232 0.0
C9067 C 0.8514 0.13095 0.96354 0.0
C9068 C 0.83946 0.1428 0.94995 0.0
C9069 C 0.84204 0.14136 0.9362 0.0
N9070 N 0.84753 0.13452 0.95907 0.0
N9071 N 0.84481 0.13701 0.94078 0.0
H9072 H 0.80782 0.60466 0.92184 0.0
H9073 H 0.80259 0.63538 0.89584 0.0
H9074 H 0.82418 0.6154 0.91203 0.0
H9075 H 0.7862 0.62282 0.90316 0.0
H9076 H 0.81039 0.62936 0.90332 0.0
H9077 H 0.79971 0.61244 0.91654 0.0
C9078 C 0.80971 0.60871 0.91863 0.0
C9079 C 0.81668 0.60934 0.91732 0.0
C9080 C 0.80507 0.62796 0.90334 0.0
C9081 C 0.80744 0.61823 0.91122 0.0
C9082 C 0.8006 0.63142 0.89909 0.0
C9083 C 0.79373 0.62955 0.8988 0.0
C9084 C 0.80267 0.62258 0.90735 0.0
C9085 C 0.79146 0.6244 0.90317 0.0
C9086 C 0.80508 0.61312 0.91559 0.0
C9087 C 0.81885 0.61465 0.91309 0.0
N9088 N 0.79593 0.62105 0.90721 0.0
N9089 N 0.81424 0.61886 0.91017 0.0
H9090 H 0.30621 0.90726 0.08905 0.0
H9091 H 0.29816 0.8708 0.10449 0.0
H9092 H 0.31932 0.88993 0.08643 0.0
H9093 H 0.28389 0.88741 0.10466 0.0
H9094 H 0.30559 0.87742 0.09711 0.0
H9095 H 0.29766 0.89987 0.09415 0.0
C9096 C 0.30728 0.90189 0.08953 0.0
C9097 C 0.31351 0.89922 0.08737 0.0
C9098 C 0.30079 0.87959 0.09869 0.0
C9099 C 0.30374 0.89072 0.09319 0.0
C9100 C 0.29654 0.8758 0.1029 0.0
C9101 C 0.29042 0.87857 0.10526 0.0
C9102 C 0.29895 0.88623 0.09688 0.0
C9103 C 0.28858 0.88507 0.103 0.0
C9104 C 0.30238 0.89767 0.0924 0.0
C9105 C 0.31457 0.89221 0.088 0.0
N9106 N 0.29286 0.88871 0.09901 0.0
N9107 N 0.30977 0.88821 0.09092 0.0
H9108 H 0.84763 0.55595 0.83914 0.0
H9109 H 0.88436 0.55311 0.85585 0.0
H9110 H 0.8633 0.57099 0.83645 0.0
H9111 H 0.86943 0.53709 0.85659 0.0
H9112 H 0.87709 0.55934 0.84799 0.0
H9113 H 0.85581 0.54863 0.84489 0.0
C9114 C 0.8528 0.5577 0.83974 0.0
C9115 C 0.85477 0.56411 0.83736 0.0
C9116 C 0.87544 0.55442 0.84981 0.0
C9117 C 0.86418 0.55576 0.84394 0.0
C9118 C 0.8796 0.55086 0.8543 0.0
C9119 C 0.87748 0.54459 0.85695 0.0
C9120 C 0.86908 0.55174 0.848 0.0
C9121 C 0.87126 0.54192 0.85472 0.0
C9122 C 0.85749 0.5535 0.84299 0.0
C9123 C 0.86157 0.56607 0.83817 0.0
N9124 N 0.86725 0.54554 0.85044 0.0
N9125 N 0.86601 0.56194 0.84146 0.0
H9126 H 0.19095 0.11001 0.58296 0.0
H9127 H 0.22286 0.11134 0.60797 0.0
H9128 H 0.19997 0.09236 0.59223 0.0
H9129 H 0.21314 0.12917 0.59975 0.0
H9130 H 0.21549 0.10426 0.60099 0.0
H9131 H 0.19994 0.11702 0.58785 0.0
C9132 C 0.19487 0.10759 0.58595 0.0
C9133 C 0.19467 0.10059 0.58724 0.0
C9134 C 0.21501 0.10972 0.60066 0.0
C9135 C 0.20495 0.10859 0.59291 0.0
C9136 C 0.21923 0.11378 0.60464 0.0
C9137 C 0.21857 0.12087 0.60451 0.0
C9138 C 0.21006 0.11277 0.59654 0.0
C9139 C 0.2138 0.12373 0.60005 0.0
C9140 C 0.19998 0.1116 0.58877 0.0
C9141 C 0.19985 0.09775 0.59121 0.0
N9142 N 0.20968 0.11966 0.5963 0.0
N9143 N 0.20475 0.10176 0.59393 0.0
H9144 H 0.14108 0.93145 0.84239 0.0
H9145 H 0.13151 0.96993 0.85059 0.0
H9146 H 0.1514 0.94853 0.83339 0.0
H9147 H 0.12048 0.95263 0.85826 0.0
H9148 H 0.13818 0.96231 0.84342 0.0
H9149 H 0.13292 0.93922 0.84751 0.0
C9150 C 0.14162 0.93685 0.84148 0.0
C9151 C 0.14697 0.93936 0.83752 0.0
C9152 C 0.13425 0.9602 0.84661 0.0
C9153 C 0.13762 0.9483 0.84336 0.0
C9154 C 0.13042 0.96455 0.8507 0.0
C9155 C 0.12548 0.96192 0.8551 0.0
C9156 C 0.13314 0.95316 0.84696 0.0
C9157 C 0.12428 0.9549 0.85501 0.0
C9158 C 0.13693 0.94128 0.84438 0.0
C9159 C 0.14734 0.94638 0.83641 0.0
N9160 N 0.12813 0.95077 0.85106 0.0
N9161 N 0.14277 0.95062 0.83937 0.0
H9162 H 0.68785 0.39158 0.42119 0.0
H9163 H 0.72254 0.38744 0.40054 0.0
H9164 H 0.70094 0.4083 0.41588 0.0
H9165 H 0.70742 0.37168 0.40226 0.0
H9166 H 0.71574 0.39458 0.40804 0.0
H9167 H 0.69601 0.38374 0.41612 0.0
C9168 C 0.69249 0.39359 0.41905 0.0
C9169 C 0.69369 0.40061 0.41891 0.0
C9170 C 0.71395 0.38953 0.40683 0.0
C9171 C 0.70303 0.39167 0.41305 0.0
C9172 C 0.71785 0.38543 0.40258 0.0
C9173 C 0.71551 0.37897 0.4007 0.0
C9174 C 0.70769 0.38715 0.40925 0.0
C9175 C 0.70939 0.37665 0.40351 0.0
C9176 C 0.69712 0.38912 0.41612 0.0
C9177 C 0.69976 0.40294 0.416 0.0
N9178 N 0.70567 0.38076 0.4076 0.0
N9179 N 0.70419 0.39848 0.41316 0.0
H9180 H 0.84407 0.44956 0.67179 0.0
H9181 H 0.88053 0.4558 0.65557 0.0
H9182 H 0.86121 0.43633 0.67501 0.0
H9183 H 0.86423 0.47038 0.65443 0.0
H9184 H 0.87383 0.44911 0.66354 0.0
H9185 H 0.85158 0.45771 0.6662 0.0
C9186 C 0.84942 0.44839 0.67137 0.0
C9187 C 0.85201 0.44223 0.67382 0.0
C9188 C 0.87174 0.45382 0.66161 0.0
C9189 C 0.86063 0.45152 0.66742 0.0
C9190 C 0.87557 0.45764 0.65705 0.0
C9191 C 0.87291 0.46362 0.65426 0.0
C9192 C 0.86517 0.45594 0.66334 0.0
C9193 C 0.86648 0.46578 0.65642 0.0
C9194 C 0.85371 0.45306 0.6682 0.0
C9195 C 0.859 0.44103 0.67322 0.0
N9196 N 0.86279 0.4619 0.66076 0.0
N9197 N 0.86305 0.44559 0.67002 0.0
H9198 H 0.6588 0.55342 0.16681 0.0
H9199 H 0.62296 0.54807 0.14904 0.0
H9200 H 0.64219 0.56754 0.16872 0.0
H9201 H 0.63825 0.53242 0.15013 0.0
H9202 H 0.62962 0.55495 0.15688 0.0
H9203 H 0.65116 0.54538 0.16124 0.0
C9204 C 0.65353 0.55481 0.16609 0.0
C9205 C 0.65114 0.56117 0.16818 0.0
C9206 C 0.63149 0.54998 0.15548 0.0
C9207 C 0.64236 0.55201 0.16181 0.0
C9208 C 0.62768 0.54604 0.15099 0.0
C9209 C 0.63008 0.53968 0.14886 0.0
C9210 C 0.63779 0.54759 0.15779 0.0
C9211 C 0.63621 0.5373 0.15161 0.0
C9212 C 0.64916 0.55021 0.16295 0.0
C9213 C 0.64424 0.56267 0.16722 0.0
N9214 N 0.6399 0.5413 0.15586 0.0
N9215 N 0.64012 0.55816 0.16403 0.0
H9216 H 0.59053 0.70043 0.91 0.0
H9217 H 0.60166 0.71579 0.87449 0.0
H9218 H 0.57882 0.69775 0.89167 0.0
H9219 H 0.61098 0.72132 0.89352 0.0
H9220 H 0.59276 0.70982 0.88073 0.0
H9221 H 0.59751 0.70878 0.90418 0.0
C9222 C 0.58933 0.70167 0.90479 0.0
C9223 C 0.58409 0.69831 0.90132 0.0
C9224 C 0.59671 0.71241 0.88354 0.0
C9225 C 0.59222 0.70779 0.89455 0.0
C9226 C 0.6018 0.71582 0.87998 0.0
C9227 C 0.60713 0.71899 0.88348 0.0
C9228 C 0.59699 0.71212 0.89065 0.0
C9229 C 0.60701 0.7189 0.8906 0.0
C9230 C 0.59336 0.70643 0.90145 0.0
C9231 C 0.58289 0.70009 0.89452 0.0
N9232 N 0.60207 0.71545 0.89394 0.0
N9233 N 0.58698 0.70465 0.89134 0.0
H9234 H 0.56962 0.35122 0.14105 0.0
H9235 H 0.54017 0.34611 0.11355 0.0
H9236 H 0.55792 0.33281 0.13909 0.0
H9237 H 0.55263 0.36404 0.11482 0.0
H9238 H 0.54614 0.34142 0.12336 0.0
H9239 H 0.56287 0.35633 0.13202 0.0
C9240 C 0.56558 0.34827 0.13877 0.0
C9241 C 0.56434 0.34157 0.14084 0.0
C9242 C 0.54752 0.34642 0.12154 0.0
C9243 C 0.55665 0.34737 0.1304 0.0
C9244 C 0.54411 0.34909 0.11594 0.0
C9245 C 0.54581 0.35554 0.11346 0.0
C9246 C 0.5527 0.35019 0.12465 0.0
C9247 C 0.55099 0.35917 0.11671 0.0
C9248 C 0.56176 0.35118 0.13358 0.0
C9249 C 0.55911 0.33796 0.13761 0.0
N9250 N 0.55426 0.35644 0.12213 0.0
N9251 N 0.55547 0.3409 0.13255 0.0
H9252 H 0.9231 0.30779 0.38948 0.0
H9253 H 0.8911 0.30093 0.36541 0.0
H9254 H 0.90456 0.31942 0.39022 0.0
H9255 H 0.90942 0.289 0.36481 0.0
H9256 H 0.89582 0.30752 0.37476 0.0
H9257 H 0.91813 0.30069 0.38062 0.0
C9258 C 0.91799 0.30886 0.38778 0.0
C9259 C 0.91425 0.31422 0.3906 0.0
C9260 C 0.89879 0.30342 0.37263 0.0
C9261 C 0.9085 0.30608 0.38048 0.0
C9262 C 0.89605 0.29958 0.36735 0.0
C9263 C 0.89979 0.29428 0.36446 0.0
C9264 C 0.90536 0.30198 0.375 0.0
C9265 C 0.90635 0.29302 0.36693 0.0
C9266 C 0.91514 0.30478 0.38274 0.0
C9267 C 0.90761 0.3153 0.38826 0.0
N9268 N 0.90892 0.29683 0.37207 0.0
N9269 N 0.90496 0.31128 0.38333 0.0
H9270 H 0.9489 0.67435 0.64085 0.0
H9271 H 0.95552 0.64053 0.61938 0.0
H9272 H 0.93817 0.65553 0.64404 0.0
H9273 H 0.96735 0.65878 0.61697 0.0
H9274 H 0.94922 0.64594 0.62853 0.0
H9275 H 0.95576 0.66879 0.63212 0.0
C9276 C 0.94799 0.66905 0.63972 0.0
C9277 C 0.94296 0.6654 0.6432 0.0
C9278 C 0.95324 0.64875 0.62606 0.0
C9279 C 0.95079 0.659 0.63323 0.0
C9280 C 0.95691 0.64561 0.62089 0.0
C9281 C 0.96211 0.64913 0.61754 0.0
C9282 C 0.95472 0.65548 0.62786 0.0
C9283 C 0.96342 0.65586 0.61946 0.0
C9284 C 0.95192 0.66588 0.63475 0.0
C9285 C 0.94205 0.65853 0.64156 0.0
N9286 N 0.95975 0.65882 0.6245 0.0
N9287 N 0.9459 0.65557 0.63669 0.0
H9288 H 0.58331 0.31946 0.62353 0.0
H9289 H 0.61061 0.29142 0.6344 0.0
H9290 H 0.59702 0.30986 0.60941 0.0
H9291 H 0.59626 0.30043 0.64822 0.0
H9292 H 0.60579 0.29816 0.62518 0.0
H9293 H 0.58792 0.31242 0.6326 0.0
C9294 C 0.58724 0.31582 0.62231 0.0
C9295 C 0.58977 0.31526 0.61568 0.0
C9296 C 0.60372 0.29869 0.63024 0.0
C9297 C 0.59517 0.30724 0.6261 0.0
C9298 C 0.60654 0.29491 0.63552 0.0
C9299 C 0.60396 0.29551 0.64213 0.0
C9300 C 0.59825 0.30307 0.63156 0.0
C9301 C 0.59843 0.29986 0.64321 0.0
C9302 C 0.58991 0.31183 0.62751 0.0
C9303 C 0.59497 0.31053 0.61446 0.0
N9304 N 0.59578 0.30349 0.63799 0.0
N9305 N 0.5975 0.30672 0.61961 0.0
H9306 H 0.93375 0.33349 0.86975 0.0
H9307 H 0.96086 0.36261 0.87802 0.0
H9308 H 0.94075 0.348 0.85492 0.0
H9309 H 0.95462 0.34733 0.89238 0.0
H9310 H 0.95348 0.35744 0.86949 0.0
H9311 H 0.94145 0.33846 0.87806 0.0
C9312 C 0.93696 0.33768 0.86821 0.0
C9313 C 0.93659 0.34032 0.86161 0.0
C9314 C 0.95371 0.35523 0.87452 0.0
C9315 C 0.94537 0.34613 0.87116 0.0
C9316 C 0.95785 0.35824 0.87942 0.0
C9317 C 0.95822 0.3555 0.88597 0.0
C9318 C 0.94993 0.34942 0.87618 0.0
C9319 C 0.95445 0.34963 0.8874 0.0
C9320 C 0.94133 0.34055 0.87298 0.0
C9321 C 0.94079 0.34585 0.85997 0.0
N9322 N 0.95044 0.34681 0.88255 0.0
N9323 N 0.94499 0.34857 0.86471 0.0
H9324 H 0.90878 0.69502 0.10824 0.0
H9325 H 0.90859 0.70481 0.14766 0.0
H9326 H 0.92187 0.68575 0.12316 0.0
H9327 H 0.89444 0.71299 0.13312 0.0
H9328 H 0.91384 0.69816 0.13863 0.0
H9329 H 0.90372 0.70195 0.11718 0.0
C9330 C 0.91059 0.69443 0.1134 0.0
C9331 C 0.91576 0.68977 0.11494 0.0
C9332 C 0.90955 0.70137 0.13741 0.0
C9333 C 0.91002 0.69775 0.1252 0.0
C9334 C 0.90656 0.70518 0.14257 0.0
C9335 C 0.90096 0.70934 0.14117 0.0
C9336 C 0.90698 0.70178 0.13078 0.0
C9337 C 0.89857 0.70966 0.13448 0.0
C9338 C 0.90771 0.69841 0.11849 0.0
C9339 C 0.91797 0.68932 0.1217 0.0
N9340 N 0.90159 0.70593 0.12953 0.0
N9341 N 0.91508 0.69324 0.12657 0.0
H9342 H 0.55737 0.67458 0.36352 0.0
H9343 H 0.55137 0.64166 0.38652 0.0
H9344 H 0.5683 0.65577 0.36101 0.0
H9345 H 0.53975 0.66007 0.38858 0.0
H9346 H 0.55727 0.64659 0.37683 0.0
H9347 H 0.55059 0.66927 0.37246 0.0
C9348 C 0.55834 0.66933 0.36485 0.0
C9349 C 0.56342 0.66562 0.36151 0.0
C9350 C 0.55337 0.64953 0.37934 0.0
C9351 C 0.55567 0.65951 0.37172 0.0
C9352 C 0.54993 0.64667 0.38482 0.0
C9353 C 0.54493 0.65039 0.38825 0.0
C9354 C 0.55186 0.6562 0.37731 0.0
C9355 C 0.54354 0.65702 0.38605 0.0
C9356 C 0.55445 0.6663 0.36993 0.0
C9357 C 0.56439 0.65881 0.36338 0.0
N9358 N 0.54699 0.65971 0.38072 0.0
N9359 N 0.56058 0.65599 0.36837 0.0
H9360 H 0.89204 0.60033 0.68499 0.0
H9361 H 0.86483 0.59543 0.71475 0.0
H9362 H 0.88973 0.58174 0.69633 0.0
H9363 H 0.86683 0.61376 0.70299 0.0
H9364 H 0.87428 0.59048 0.70841 0.0
H9365 H 0.88328 0.60555 0.692 0.0
C9366 C 0.88974 0.59736 0.689 0.0
C9367 C 0.89164 0.59058 0.69007 0.0
C9368 C 0.8727 0.59562 0.70726 0.0
C9369 C 0.8815 0.59651 0.69805 0.0
C9370 C 0.86731 0.59844 0.71087 0.0
C9371 C 0.86514 0.60508 0.7095 0.0
C9372 C 0.87592 0.59944 0.70218 0.0
C9373 C 0.86849 0.60873 0.7044 0.0
C9374 C 0.8847 0.60034 0.69297 0.0
C9375 C 0.88838 0.58695 0.69527 0.0
N9376 N 0.8737 0.60586 0.70092 0.0
N9377 N 0.88347 0.58996 0.69906 0.0
H9378 H 0.67217 0.64374 0.9444 0.0
H9379 H 0.64068 0.61909 0.95155 0.0
H9380 H 0.65408 0.64322 0.93207 0.0
H9381 H 0.65894 0.61925 0.96361 0.0
H9382 H 0.64513 0.62854 0.9449 0.0
H9383 H 0.66712 0.63529 0.95192 0.0
C9384 C 0.66714 0.64185 0.94327 0.0
C9385 C 0.66356 0.64418 0.93757 0.0
C9386 C 0.64813 0.62657 0.94905 0.0
C9387 C 0.65772 0.63452 0.9462 0.0
C9388 C 0.64554 0.62123 0.95292 0.0
C9389 C 0.64937 0.61848 0.95825 0.0
C9390 C 0.65463 0.62914 0.95047 0.0
C9391 C 0.65581 0.62124 0.95956 0.0
C9392 C 0.66424 0.63704 0.94759 0.0
C9393 C 0.657 0.64163 0.93643 0.0
N9394 N 0.65823 0.62641 0.9557 0.0
N9395 N 0.65431 0.63692 0.94069 0.0
H9396 H 0.60893 0.40681 0.19629 0.0
H9397 H 0.64842 0.40564 0.20588 0.0
H9398 H 0.62417 0.41937 0.1868 0.0
H9399 H 0.63353 0.39202 0.21434 0.0
H9400 H 0.63947 0.41109 0.19925 0.0
H9401 H 0.61776 0.40162 0.20328 0.0
C9402 C 0.61413 0.40848 0.19567 0.0
C9403 C 0.6158 0.41353 0.19093 0.0
C9404 C 0.63816 0.40688 0.20252 0.0
C9405 C 0.62593 0.40764 0.19897 0.0
C9406 C 0.64326 0.40377 0.20631 0.0
C9407 C 0.64174 0.39825 0.21054 0.0
C9408 C 0.63146 0.4045 0.20301 0.0
C9409 C 0.63498 0.39608 0.21095 0.0
C9410 C 0.61917 0.40553 0.19968 0.0
C9411 C 0.62262 0.41556 0.19044 0.0
N9412 N 0.63008 0.3992 0.20723 0.0
N9413 N 0.62742 0.4126 0.19439 0.0
H9414 H 0.83333 0.37232 0.43857 0.0
H9415 H 0.86325 0.38318 0.46378 0.0
H9416 H 0.84816 0.35823 0.44641 0.0
H9417 H 0.84708 0.39656 0.45759 0.0
H9418 H 0.85794 0.374 0.45734 0.0
H9419 H 0.8383 0.38123 0.44555 0.0
C9420 C 0.83758 0.37107 0.44182 0.0
C9421 C 0.84033 0.36449 0.44189 0.0
C9422 C 0.85557 0.37895 0.45737 0.0
C9423 C 0.84614 0.37476 0.44982 0.0
C9424 C 0.85865 0.38422 0.46097 0.0
C9425 C 0.85569 0.39069 0.46107 0.0
C9426 C 0.84948 0.38016 0.45385 0.0
C9427 C 0.84955 0.39166 0.4576 0.0
C9428 C 0.84045 0.37618 0.44577 0.0
C9429 C 0.84593 0.36324 0.44611 0.0
N9430 N 0.84668 0.38647 0.45411 0.0
N9431 N 0.84867 0.36833 0.44988 0.0
H9432 H 0.8905 0.42813 0.80731 0.0
H9433 H 0.89215 0.39591 0.78272 0.0
H9434 H 0.9085 0.41608 0.80401 0.0
H9435 H 0.87343 0.40454 0.79014 0.0
H9436 H 0.89843 0.4049 0.78849 0.0
H9437 H 0.88444 0.42105 0.79912 0.0
C9438 C 0.8932 0.42404 0.80484 0.0
C9439 C 0.90001 0.42267 0.80644 0.0
C9440 C 0.89294 0.40486 0.78879 0.0
C9441 C 0.89312 0.41461 0.79698 0.0
C9442 C 0.88935 0.39975 0.78548 0.0
C9443 C 0.88225 0.39941 0.78602 0.0
C9444 C 0.88942 0.4097 0.79265 0.0
C9445 C 0.8789 0.40455 0.78964 0.0
C9446 C 0.88974 0.42002 0.80014 0.0
C9447 C 0.90328 0.41739 0.80293 0.0
N9448 N 0.88252 0.40945 0.79287 0.0
N9449 N 0.89979 0.41353 0.79842 0.0
H9450 H 0.83498 0.63124 0.0688 0.0
H9451 H 0.86323 0.62057 0.04164 0.0
H9452 H 0.84864 0.64556 0.05942 0.0
H9453 H 0.84884 0.60664 0.05043 0.0
H9454 H 0.85815 0.62978 0.04821 0.0
H9455 H 0.84001 0.62219 0.06205 0.0
C9456 C 0.83899 0.6325 0.06526 0.0
C9457 C 0.84137 0.63919 0.06467 0.0
C9458 C 0.85613 0.6247 0.04873 0.0
C9459 C 0.84727 0.62879 0.05699 0.0
C9460 C 0.8591 0.61942 0.04505 0.0
C9461 C 0.85657 0.61279 0.04562 0.0
C9462 C 0.85056 0.62335 0.05298 0.0
C9463 C 0.85097 0.61167 0.04987 0.0
C9464 C 0.8419 0.62732 0.06144 0.0
C9465 C 0.84669 0.64047 0.0601 0.0
N9466 N 0.84818 0.61688 0.0534 0.0
N9467 N 0.84947 0.63532 0.05645 0.0
H9468 H 0.61427 0.58337 0.30733 0.0
H9469 H 0.63918 0.61488 0.30126 0.0
H9470 H 0.61378 0.60174 0.31923 0.0
H9471 H 0.63984 0.59648 0.28945 0.0
H9472 H 0.62938 0.61045 0.30741 0.0
H9473 H 0.62322 0.58831 0.30032 0.0
C9474 C 0.61604 0.58844 0.30847 0.0
C9475 C 0.61328 0.59213 0.3139 0.0
C9476 C 0.63161 0.60741 0.30342 0.0
C9477 C 0.62351 0.59784 0.30586 0.0
C9478 C 0.63715 0.60998 0.29984 0.0
C9479 C 0.64022 0.60612 0.29472 0.0
C9480 C 0.62916 0.60088 0.30192 0.0
C9481 C 0.6376 0.59965 0.29334 0.0
C9482 C 0.62113 0.59127 0.30445 0.0
C9483 C 0.61571 0.59873 0.31506 0.0
N9484 N 0.63222 0.59723 0.29692 0.0
N9485 N 0.6207 0.60136 0.3111 0.0
H9486 H 0.65813 0.35797 0.55887 0.0
H9487 H 0.66037 0.39733 0.54907 0.0
H9488 H 0.67249 0.37196 0.56771 0.0
H9489 H 0.64442 0.38409 0.54209 0.0
H9490 H 0.6654 0.38784 0.55523 0.0
H9491 H 0.6535 0.36725 0.55206 0.0
C9492 C 0.66031 0.36299 0.55938 0.0
C9493 C 0.6657 0.36418 0.5639 0.0
C9494 C 0.66078 0.38701 0.55239 0.0
C9495 C 0.66045 0.37481 0.55606 0.0
C9496 C 0.65791 0.39243 0.54886 0.0
C9497 C 0.65187 0.39154 0.5452 0.0
C9498 C 0.65763 0.38062 0.5522 0.0
C9499 C 0.64893 0.38506 0.54505 0.0
C9500 C 0.65768 0.36827 0.55547 0.0
C9501 C 0.6684 0.37077 0.56424 0.0
N9502 N 0.65183 0.37984 0.54851 0.0
N9503 N 0.66574 0.37582 0.5604 0.0
H9504 H 0.69685 0.89013 0.58181 0.0
H9505 H 0.70342 0.86838 0.61548 0.0
H9506 H 0.68629 0.89338 0.6007 0.0
H9507 H 0.71471 0.86557 0.59696 0.0
H9508 H 0.69731 0.87776 0.61021 0.0
H9509 H 0.70359 0.88125 0.58727 0.0
C9510 C 0.69595 0.88898 0.5871 0.0
C9511 C 0.691 0.89251 0.5908 0.0
C9512 C 0.70117 0.87514 0.60731 0.0
C9513 C 0.69871 0.88237 0.59709 0.0
C9514 C 0.70474 0.86984 0.61036 0.0
C9515 C 0.70972 0.86631 0.60672 0.0
C9516 C 0.70255 0.87689 0.60054 0.0
C9517 C 0.71094 0.86819 0.59996 0.0
C9518 C 0.69982 0.88393 0.59023 0.0
C9519 C 0.69011 0.89085 0.59767 0.0
N9520 N 0.70738 0.87336 0.59709 0.0
N9521 N 0.6939 0.8859 0.60058 0.0
H9522 H 0.19628 0.60959 0.40665 0.0
H9523 H 0.20532 0.64921 0.40669 0.0
H9524 H 0.18676 0.62424 0.41985 0.0
H9525 H 0.21388 0.63489 0.39255 0.0
H9526 H 0.1988 0.64002 0.41186 0.0
H9527 H 0.20303 0.6187 0.40164 0.0
C9528 C 0.1956 0.61472 0.40849 0.0
C9529 C 0.19093 0.61614 0.41368 0.0
C9530 C 0.20207 0.63889 0.40759 0.0
C9531 C 0.19869 0.62659 0.40799 0.0
C9532 C 0.20579 0.64413 0.40464 0.0
C9533 C 0.21002 0.64284 0.39907 0.0
C9534 C 0.20262 0.63228 0.40499 0.0
C9535 C 0.21049 0.63616 0.39666 0.0
C9536 C 0.19948 0.61991 0.40564 0.0
C9537 C 0.19035 0.62288 0.41593 0.0
N9538 N 0.20683 0.63113 0.39964 0.0
N9539 N 0.19418 0.62784 0.41306 0.0
H9540 H 0.64198 0.93579 0.65455 0.0
H9541 H 0.61552 0.96614 0.65985 0.0
H9542 H 0.64069 0.94769 0.67287 0.0
H9543 H 0.61646 0.95388 0.64177 0.0
H9544 H 0.62519 0.95988 0.66445 0.0
H9545 H 0.63321 0.9429 0.64946 0.0
C9546 C 0.6399 0.93995 0.65748 0.0
C9547 C 0.64207 0.94113 0.66416 0.0
C9548 C 0.62334 0.95861 0.65944 0.0
C9549 C 0.63194 0.94924 0.65839 0.0
C9550 C 0.61781 0.96218 0.65681 0.0
C9551 C 0.61527 0.96062 0.65035 0.0
C9552 C 0.6263 0.95339 0.6556 0.0
C9553 C 0.61841 0.95542 0.64665 0.0
C9554 C 0.63486 0.94398 0.65458 0.0
C9555 C 0.63911 0.94653 0.66775 0.0
N9556 N 0.62374 0.95198 0.64934 0.0
N9557 N 0.63419 0.95036 0.66482 0.0
H9558 H 0.31668 0.38165 0.9203 0.0
H9559 H 0.28998 0.37059 0.89175 0.0
H9560 H 0.30746 0.39579 0.90635 0.0
H9561 H 0.29882 0.35678 0.90623 0.0
H9562 H 0.2964 0.37989 0.89687 0.0
H9563 H 0.31008 0.37252 0.91522 0.0
C9564 C 0.31321 0.38285 0.91621 0.0
C9565 C 0.31262 0.38952 0.91377 0.0
C9566 C 0.29696 0.37482 0.89891 0.0
C9567 C 0.30511 0.37902 0.90782 0.0
C9568 C 0.29337 0.36949 0.89591 0.0
C9569 C 0.294 0.36287 0.89845 0.0
C9570 C 0.30118 0.37352 0.9045 0.0
C9571 C 0.29821 0.3618 0.90409 0.0
C9572 C 0.30948 0.37762 0.91327 0.0
C9573 C 0.30814 0.39072 0.90835 0.0
N9574 N 0.30166 0.36706 0.9069 0.0
N9575 N 0.30457 0.38553 0.90556 0.0
H9576 H 0.35599 0.55906 0.65884 0.0
H9577 H 0.39571 0.55045 0.65886 0.0
H9578 H 0.37062 0.56874 0.67195 0.0
H9579 H 0.38148 0.54157 0.6448 0.0
H9580 H 0.38642 0.55672 0.66411 0.0
H9581 H 0.36511 0.55222 0.65395 0.0
C9582 C 0.36111 0.55975 0.66069 0.0
C9583 C 0.36253 0.5645 0.66581 0.0
C9584 C 0.38532 0.55343 0.65985 0.0
C9585 C 0.37299 0.55665 0.66027 0.0
C9586 C 0.39063 0.54984 0.65685 0.0
C9587 C 0.38939 0.54561 0.65127 0.0
C9588 C 0.37871 0.55275 0.65729 0.0
C9589 C 0.3827 0.54497 0.64892 0.0
C9590 C 0.36631 0.55582 0.65791 0.0
C9591 C 0.36926 0.56509 0.66808 0.0
N9592 N 0.37761 0.54852 0.65194 0.0
N9593 N 0.37423 0.56123 0.66528 0.0
H9594 H 0.80677 0.11431 0.0819 0.0
H9595 H 0.80123 0.1366 0.11538 0.0
H9596 H 0.81782 0.11125 0.10056 0.0
H9597 H 0.78929 0.13899 0.09721 0.0
H9598 H 0.8071 0.12705 0.11014 0.0
H9599 H 0.80013 0.12321 0.08745 0.0
C9600 C 0.8078 0.11551 0.08716 0.0
C9601 C 0.81286 0.11203 0.09076 0.0
C9602 C 0.80314 0.12961 0.10732 0.0
C9603 C 0.80527 0.12218 0.09716 0.0
C9604 C 0.79971 0.135 0.11035 0.0
C9605 C 0.79463 0.13848 0.1068 0.0
C9606 C 0.80153 0.12771 0.10064 0.0
C9607 C 0.79315 0.13642 0.10014 0.0
C9608 C 0.80399 0.12056 0.09034 0.0
C9609 C 0.81391 0.11373 0.0976 0.0
N9610 N 0.79658 0.13117 0.09728 0.0
N9611 N 0.81017 0.1187 0.10056 0.0
H9612 H 0.63457 0.0661 0.83313 0.0
H9613 H 0.62394 0.03889 0.86134 0.0
H9614 H 0.64884 0.05699 0.84702 0.0
H9615 H 0.60999 0.04764 0.84694 0.0
H9616 H 0.63318 0.04534 0.85613 0.0
H9617 H 0.62559 0.0591 0.83794 0.0
C9618 C 0.63584 0.06257 0.83714 0.0
C9619 C 0.64249 0.06214 0.83966 0.0
C9620 C 0.62809 0.04587 0.85413 0.0
C9621 C 0.63217 0.05418 0.84531 0.0
C9622 C 0.6228 0.04226 0.85716 0.0
C9623 C 0.61616 0.04288 0.85469 0.0
C9624 C 0.62673 0.05011 0.84856 0.0
C9625 C 0.61503 0.04706 0.84904 0.0
C9626 C 0.63069 0.05861 0.83992 0.0
C9627 C 0.64378 0.05756 0.84497 0.0
N9628 N 0.62025 0.05053 0.84619 0.0
N9629 N 0.63866 0.05377 0.84762 0.0
H9630 H 0.8624 0.94878 0.33225 0.0
H9631 H 0.88668 0.95419 0.36435 0.0
H9632 H 0.86154 0.93654 0.35038 0.0
H9633 H 0.88791 0.96618 0.3461 0.0
H9634 H 0.87687 0.94826 0.35967 0.0
H9635 H 0.87124 0.95571 0.33752 0.0
C9636 C 0.86406 0.94755 0.33734 0.0
C9637 C 0.86124 0.94204 0.34086 0.0
C9638 C 0.87923 0.95224 0.35671 0.0
C9639 C 0.87133 0.94999 0.34694 0.0
C9640 C 0.88478 0.9557 0.35944 0.0
C9641 C 0.88802 0.9608 0.35568 0.0
C9642 C 0.87694 0.95384 0.35016 0.0
C9643 C 0.88554 0.9623 0.34918 0.0
C9644 C 0.86909 0.95153 0.34036 0.0
C9645 C 0.86351 0.94077 0.34749 0.0
N9646 N 0.88015 0.95884 0.34662 0.0
N9647 N 0.86844 0.94468 0.3503 0.0
H9648 H 0.41926 0.31997 0.11499 0.0
H9649 H 0.40003 0.2843 0.11773 0.0
H9650 H 0.41603 0.30655 0.09802 0.0
H9651 H 0.39927 0.29972 0.13326 0.0
H9652 H 0.40771 0.29149 0.11117 0.0
H9653 H 0.41371 0.31171 0.12241 0.0
C9654 C 0.41746 0.31524 0.11284 0.0
C9655 C 0.41806 0.31396 0.10587 0.0
C9656 C 0.40591 0.29327 0.11605 0.0
C9657 C 0.41169 0.30451 0.11432 0.0
C9658 C 0.40155 0.28915 0.11981 0.0
C9659 C 0.39894 0.29144 0.12603 0.0
C9660 C 0.40771 0.2997 0.11852 0.0
C9661 C 0.40111 0.29777 0.12847 0.0
C9662 C 0.41426 0.31055 0.11707 0.0
C9663 C 0.41558 0.30778 0.10335 0.0
N9664 N 0.40533 0.3017 0.12469 0.0
N9665 N 0.41248 0.30329 0.10756 0.0
H9666 H 0.44896 0.66682 0.84806 0.0
H9667 H 0.45325 0.64999 0.88458 0.0
H9668 H 0.43426 0.66898 0.86413 0.0
H9669 H 0.46867 0.64941 0.86904 0.0
H9670 H 0.4467 0.65786 0.87759 0.0
H9671 H 0.45666 0.66126 0.85601 0.0
C9672 C 0.44737 0.66615 0.85327 0.0
C9673 C 0.44093 0.66831 0.85542 0.0
C9674 C 0.45155 0.65607 0.87575 0.0
C9675 C 0.44973 0.66194 0.86456 0.0
C9676 C 0.45531 0.65158 0.87974 0.0
C9677 C 0.46149 0.64896 0.87736 0.0
C9678 C 0.45398 0.65792 0.86931 0.0
C9679 C 0.46391 0.65125 0.87107 0.0
C9680 C 0.45178 0.663 0.85782 0.0
C9681 C 0.43919 0.66742 0.86226 0.0
N9682 N 0.46011 0.65553 0.86723 0.0
N9683 N 0.44353 0.66424 0.86657 0.0
H9684 H 0.09744 0.69871 0.59106 0.0
H9685 H 0.10018 0.71638 0.6273 0.0
H9686 H 0.08168 0.69723 0.6062 0.0
H9687 H 0.11402 0.7202 0.61076 0.0
H9688 H 0.09301 0.70979 0.61959 0.0
H9689 H 0.10327 0.707 0.5981 0.0
C9690 C 0.09514 0.70019 0.59582 0.0
C9691 C 0.08905 0.69723 0.59802 0.0
C9692 C 0.09758 0.71214 0.61764 0.0
C9693 C 0.09582 0.70666 0.60622 0.0
C9694 C 0.10167 0.71591 0.62204 0.0
C9695 C 0.10775 0.7188 0.6197 0.0
C9696 C 0.09961 0.71122 0.61087 0.0
C9697 C 0.10941 0.71803 0.61282 0.0
C9698 C 0.09851 0.70491 0.59987 0.0
C9699 C 0.08642 0.69927 0.60433 0.0
N9700 N 0.1054 0.71426 0.60867 0.0
N9701 N 0.08985 0.70382 0.60823 0.0
H9702 H 0.07401 0.34363 0.36377 0.0
H9703 H 0.03545 0.35166 0.37316 0.0
H9704 H 0.05701 0.33373 0.35417 0.0
H9705 H 0.05267 0.36025 0.38364 0.0
H9706 H 0.04316 0.34423 0.3669 0.0
H9707 H 0.06622 0.34904 0.37172 0.0
C9708 C 0.06863 0.34258 0.36335 0.0
C9709 C 0.06614 0.33828 0.35826 0.0
C9710 C 0.04524 0.34769 0.37063 0.0
C9711 C 0.05717 0.34445 0.36736 0.0
C9712 C 0.04084 0.35192 0.37422 0.0
C9713 C 0.04342 0.35665 0.37888 0.0
C9714 C 0.05228 0.34821 0.37168 0.0
C9715 C 0.05045 0.35674 0.38005 0.0
C9716 C 0.06418 0.34565 0.36792 0.0
C9717 C 0.05914 0.337 0.35803 0.0
N9718 N 0.05463 0.35264 0.37642 0.0
N9719 N 0.05489 0.34014 0.36247 0.0
H9720 H 0.4124 0.68165 0.39208 0.0
H9721 H 0.40388 0.72034 0.38367 0.0
H9722 H 0.42153 0.69849 0.40266 0.0
H9723 H 0.39587 0.70328 0.37251 0.0
H9724 H 0.41128 0.71258 0.38993 0.0
H9725 H 0.4071 0.68961 0.38422 0.0
C9726 C 0.4133 0.68704 0.39273 0.0
C9727 C 0.41735 0.68942 0.39807 0.0
C9728 C 0.40795 0.71055 0.38605 0.0
C9729 C 0.4113 0.69858 0.38908 0.0
C9730 C 0.40374 0.71498 0.38246 0.0
C9731 C 0.39918 0.71246 0.37761 0.0
C9732 C 0.40758 0.70354 0.3848 0.0
C9733 C 0.39924 0.70546 0.37625 0.0
C9734 C 0.4103 0.69158 0.38822 0.0
C9735 C 0.41845 0.69644 0.3986 0.0
N9736 N 0.40331 0.70126 0.37987 0.0
N9737 N 0.41538 0.70078 0.39421 0.0
H9738 H 0.05523 0.66289 0.16129 0.0
H9739 H 0.04379 0.65425 0.12333 0.0
H9740 H 0.06581 0.67018 0.14357 0.0
H9741 H 0.0339 0.64644 0.14124 0.0
H9742 H 0.05106 0.66125 0.13057 0.0
H9743 H 0.04662 0.65787 0.15395 0.0
C9744 C 0.05574 0.66344 0.15585 0.0
C9745 C 0.06129 0.6669 0.15304 0.0
C9746 C 0.04725 0.65806 0.1329 0.0
C9747 C 0.05142 0.66118 0.14458 0.0
C9748 C 0.04308 0.65408 0.12877 0.0
C9749 C 0.03827 0.64969 0.13168 0.0
C9750 C 0.0466 0.65765 0.13999 0.0
C9751 C 0.03757 0.64969 0.13877 0.0
C9752 C 0.0508 0.6606 0.15165 0.0
C9753 C 0.06161 0.66757 0.14596 0.0
N9754 N 0.04173 0.65356 0.14267 0.0
N9755 N 0.05677 0.66469 0.14197 0.0
H9756 H 0.08845 0.30621 0.90729 0.0
H9757 H 0.10401 0.30013 0.87048 0.0
H9758 H 0.08573 0.32012 0.89062 0.0
H9759 H 0.10434 0.28505 0.88636 0.0
H9760 H 0.09665 0.30718 0.8775 0.0
H9761 H 0.09374 0.29812 0.89952 0.0
C9762 C 0.08895 0.30755 0.90199 0.0
C9763 C 0.08669 0.31387 0.89961 0.0
C9764 C 0.09826 0.3023 0.87942 0.0
C9765 C 0.09274 0.30463 0.89068 0.0
C9766 C 0.10246 0.29826 0.8754 0.0
C9767 C 0.10485 0.29201 0.87785 0.0
C9768 C 0.09649 0.30011 0.88597 0.0
C9769 C 0.10265 0.28984 0.88427 0.0
C9770 C 0.09194 0.30292 0.89755 0.0
C9771 C 0.08737 0.3153 0.89267 0.0
N9772 N 0.09866 0.29392 0.88813 0.0
N9773 N 0.09039 0.31074 0.88846 0.0
H9774 H 0.45124 0.34058 0.65839 0.0
H9775 H 0.4561 0.35409 0.62059 0.0
H9776 H 0.43705 0.33653 0.64222 0.0
H9777 H 0.47147 0.35584 0.6361 0.0
H9778 H 0.44941 0.34697 0.6282 0.0
H9779 H 0.459 0.34564 0.65015 0.0
C9780 C 0.44977 0.34074 0.6531 0.0
C9781 C 0.44347 0.33817 0.651 0.0
C9782 C 0.45428 0.34885 0.62991 0.0
C9783 C 0.45233 0.34395 0.64153 0.0
C9784 C 0.45811 0.35291 0.62556 0.0
C9785 C 0.46433 0.35563 0.62773 0.0
C9786 C 0.45664 0.34754 0.6365 0.0
C9787 C 0.46669 0.35389 0.63422 0.0
C9788 C 0.45422 0.34359 0.64839 0.0
C9789 C 0.44187 0.33842 0.64406 0.0
N9790 N 0.46281 0.35002 0.63841 0.0
N9791 N 0.44624 0.34131 0.63959 0.0
H9792 H 0.10483 0.42143 0.30717 0.0
H9793 H 0.13464 0.39425 0.30277 0.0
H9794 H 0.11371 0.41013 0.32367 0.0
H9795 H 0.1239 0.40321 0.28592 0.0
H9796 H 0.1283 0.4015 0.31051 0.0
H9797 H 0.11296 0.41619 0.29938 0.0
C9798 C 0.10854 0.41791 0.30917 0.0
C9799 C 0.10855 0.41616 0.31607 0.0
C9800 C 0.12737 0.40193 0.30512 0.0
C9801 C 0.11785 0.41013 0.30719 0.0
C9802 C 0.13101 0.39781 0.30068 0.0
C9803 C 0.12975 0.39805 0.29368 0.0
C9804 C 0.1224 0.40635 0.30255 0.0
C9805 C 0.12501 0.40281 0.29128 0.0
C9806 C 0.11316 0.41489 0.30472 0.0
C9807 C 0.11345 0.41153 0.31837 0.0
N9808 N 0.12146 0.40672 0.29572 0.0
N9809 N 0.11787 0.40866 0.31394 0.0
H9810 H 0.34698 0.35836 0.07296 0.0
H9811 H 0.3508 0.37225 0.03506 0.0
H9812 H 0.33404 0.35183 0.05656 0.0
H9813 H 0.36235 0.37963 0.05215 0.0
H9814 H 0.34405 0.36528 0.04284 0.0
H9815 H 0.35223 0.36661 0.0654 0.0
C9816 C 0.34525 0.35866 0.06775 0.0
C9817 C 0.34012 0.35435 0.06536 0.0
C9818 C 0.34802 0.36848 0.04488 0.0
C9819 C 0.34609 0.36384 0.05665 0.0
C9820 C 0.35187 0.37248 0.04045 0.0
C9821 C 0.3572 0.37649 0.04294 0.0
C9822 C 0.34955 0.36849 0.05184 0.0
C9823 C 0.35834 0.37658 0.04997 0.0
C9824 C 0.34822 0.36341 0.06344 0.0
C9825 C 0.33798 0.35507 0.0586 0.0
N9826 N 0.35459 0.3726 0.05415 0.0
N9827 N 0.34102 0.35968 0.05446 0.0
H9828 H 0.38999 0.58564 0.81974 0.0
H9829 H 0.38622 0.60427 0.78388 0.0
H9830 H 0.40645 0.58827 0.80556 0.0
H9831 H 0.3709 0.6048 0.79952 0.0
H9832 H 0.39298 0.59666 0.79094 0.0
H9833 H 0.38228 0.59094 0.81158 0.0
C9834 C 0.39196 0.58725 0.81487 0.0
C9835 C 0.39889 0.58657 0.81335 0.0
C9836 C 0.38811 0.59839 0.79279 0.0
C9837 C 0.39011 0.59268 0.80401 0.0
C9838 C 0.38422 0.60271 0.78875 0.0
C9839 C 0.37801 0.60525 0.79114 0.0
C9840 C 0.38576 0.59656 0.79926 0.0
C9841 C 0.37569 0.60303 0.79749 0.0
C9842 C 0.38757 0.59031 0.81024 0.0
C9843 C 0.40118 0.58881 0.80699 0.0
N9844 N 0.37958 0.59886 0.80136 0.0
N9845 N 0.39681 0.59179 0.80257 0.0
H9846 H 0.17129 0.6488 0.55847 0.0
H9847 H 0.14511 0.61846 0.55202 0.0
H9848 H 0.1608 0.63802 0.57436 0.0
H9849 H 0.15337 0.6309 0.536 0.0
H9850 H 0.15233 0.62436 0.56015 0.0
H9851 H 0.16619 0.64117 0.55011 0.0
C9852 C 0.16798 0.64478 0.56021 0.0
C9853 C 0.16642 0.64408 0.56712 0.0
C9854 C 0.15262 0.62576 0.55484 0.0
C9855 C 0.16054 0.63536 0.55758 0.0
C9856 C 0.14851 0.62237 0.55019 0.0
C9857 C 0.14857 0.62424 0.54331 0.0
C9858 C 0.15681 0.63108 0.55264 0.0
C9859 C 0.15312 0.62932 0.54125 0.0
C9860 C 0.16504 0.64044 0.55543 0.0
C9861 C 0.16205 0.63881 0.56907 0.0
N9862 N 0.15701 0.63261 0.5459 0.0
N9863 N 0.15925 0.63468 0.56433 0.0
H9864 H 0.11155 0.59436 0.1803 0.0
H9865 H 0.12288 0.6013 0.21856 0.0
H9866 H 0.10237 0.58434 0.19744 0.0
H9867 H 0.13317 0.60949 0.20104 0.0
H9868 H 0.11583 0.5944 0.21101 0.0
H9869 H 0.11992 0.59943 0.18788 0.0
C9870 C 0.1113 0.59323 0.18567 0.0
C9871 C 0.10622 0.58897 0.18826 0.0
C9872 C 0.11968 0.59766 0.20883 0.0
C9873 C 0.11581 0.59475 0.19699 0.0
C9874 C 0.12372 0.60158 0.21314 0.0
C9875 C 0.12858 0.60604 0.21043 0.0
C9876 C 0.12048 0.59822 0.20177 0.0
C9877 C 0.12945 0.60618 0.20337 0.0
C9878 C 0.11611 0.59609 0.19 0.0
C9879 C 0.10621 0.58758 0.19524 0.0
N9880 N 0.1254 0.60239 0.19929 0.0
N9881 N 0.11089 0.59051 0.19938 0.0
H9882 H 0.16203 0.36247 0.93078 0.0
H9883 H 0.15263 0.3719 0.96903 0.0
H9884 H 0.1702 0.35182 0.94807 0.0
H9885 H 0.14556 0.38299 0.95152 0.0
H9886 H 0.15998 0.36518 0.96162 0.0
H9887 H 0.15676 0.37064 0.93843 0.0
C9888 C 0.16272 0.36186 0.9362 0.0
C9889 C 0.16649 0.35642 0.9388 0.0
C9890 C 0.15688 0.36914 0.95941 0.0
C9891 C 0.16048 0.36577 0.94761 0.0
C9892 C 0.15269 0.37299 0.96364 0.0
C9893 C 0.1484 0.37797 0.96089 0.0
C9894 C 0.15676 0.37026 0.95238 0.0
C9895 C 0.14871 0.37917 0.95387 0.0
C9896 C 0.15974 0.36655 0.94057 0.0
C9897 C 0.16734 0.35595 0.94585 0.0
N9898 N 0.15276 0.3753 0.94987 0.0
N9899 N 0.16429 0.36053 0.95003 0.0
H9900 H 0.38995 0.41318 0.68018 0.0
H9901 H 0.38305 0.40491 0.71919 0.0
H9902 H 0.40133 0.42218 0.69656 0.0
H9903 H 0.37128 0.3967 0.70264 0.0
H9904 H 0.38894 0.4123 0.71115 0.0
H9905 H 0.38231 0.40805 0.68845 0.0
C9906 C 0.39082 0.41409 0.68553 0.0
C9907 C 0.39633 0.41805 0.68769 0.0
C9908 C 0.38501 0.40894 0.7093 0.0
C9909 C 0.38759 0.41219 0.69721 0.0
C9910 C 0.38163 0.40473 0.71389 0.0
C9911 C 0.37672 0.40011 0.71158 0.0
C9912 C 0.38349 0.40851 0.70235 0.0
C9913 C 0.37508 0.40013 0.70465 0.0
C9914 C 0.38644 0.41119 0.69025 0.0
C9915 C 0.39714 0.41917 0.69467 0.0
N9916 N 0.3785 0.4042 0.70028 0.0
N9917 N 0.39286 0.41619 0.69919 0.0
H9918 H 0.33458 0.65142 0.44782 0.0
H9919 H 0.35905 0.61924 0.45153 0.0
H9920 H 0.34297 0.64031 0.43094 0.0
H9921 H 0.35304 0.6318 0.46843 0.0
H9922 H 0.35168 0.62587 0.44414 0.0
H9923 H 0.33988 0.64331 0.45561 0.0
C9924 C 0.33748 0.64723 0.44576 0.0
C9925 C 0.3384 0.64658 0.43873 0.0
C9926 C 0.35192 0.62714 0.44947 0.0
C9927 C 0.34448 0.63731 0.4476 0.0
C9928 C 0.35611 0.62334 0.45371 0.0
C9929 C 0.35673 0.62501 0.4606 0.0
C9930 C 0.34831 0.63268 0.45213 0.0
C9931 C 0.35276 0.63036 0.46314 0.0
C9932 C 0.34052 0.64263 0.4502 0.0
C9933 C 0.34223 0.64108 0.43633 0.0
N9934 N 0.34877 0.63404 0.45889 0.0
N9935 N 0.34515 0.63668 0.44075 0.0
H9936 H 0.304 0.09215 0.41345 0.0
H9937 H 0.29101 0.12935 0.40399 0.0
H9938 H 0.3135 0.11049 0.42071 0.0
H9939 H 0.2815 0.11091 0.39697 0.0
H9940 H 0.29846 0.12259 0.41124 0.0
H9941 H 0.29498 0.09897 0.40838 0.0
C9942 C 0.30418 0.09762 0.414 0.0
C9943 C 0.30955 0.10076 0.41745 0.0
C9944 C 0.29469 0.12003 0.40817 0.0
C9945 C 0.29922 0.10861 0.41167 0.0
C9946 C 0.29042 0.12389 0.40404 0.0
C9947 C 0.28567 0.1207 0.3998 0.0
C9948 C 0.29423 0.11292 0.40804 0.0
C9949 C 0.28513 0.1136 0.4001 0.0
C9950 C 0.29901 0.10151 0.41113 0.0
C9951 C 0.30944 0.10785 0.41811 0.0
N9952 N 0.2894 0.10995 0.40409 0.0
N9953 N 0.3044 0.11154 0.41519 0.0
H9954 H 0.81715 0.39183 0.58467 0.0
H9955 H 0.78263 0.38864 0.6058 0.0
H9956 H 0.80485 0.40897 0.59052 0.0
H9957 H 0.79717 0.3724 0.60364 0.0
H9958 H 0.78959 0.39567 0.59831 0.0
H9959 H 0.80876 0.38424 0.58974 0.0
C9960 C 0.81263 0.39399 0.58693 0.0
C9961 C 0.81172 0.40105 0.58722 0.0
C9962 C 0.79121 0.39054 0.59943 0.0
C9963 C 0.80213 0.39238 0.59308 0.0
C9964 C 0.78723 0.38651 0.60367 0.0
C9965 C 0.78936 0.37994 0.60542 0.0
C9966 C 0.79735 0.38798 0.59688 0.0
C9967 C 0.79536 0.37746 0.60249 0.0
C9968 C 0.80787 0.38965 0.58986 0.0
C9969 C 0.80581 0.40356 0.59028 0.0
N9970 N 0.79917 0.3815 0.59841 0.0
N9971 N 0.80125 0.39924 0.59312 0.0
H9972 H 0.34564 0.05562 0.34002 0.0
H9973 H 0.38336 0.049 0.35292 0.0
H9974 H 0.36249 0.06878 0.33535 0.0
H9975 H 0.36718 0.0344 0.35507 0.0
H9976 H 0.376 0.05591 0.34576 0.0
H9977 H 0.35356 0.04745 0.34497 0.0
C9978 C 0.35101 0.05678 0.34002 0.0
C9979 C 0.35341 0.06291 0.33732 0.0
C9980 C 0.37408 0.05116 0.34773 0.0
C9981 C 0.36251 0.05359 0.34296 0.0
C9982 C 0.37829 0.0472 0.35182 0.0
C9983 C 0.37586 0.04114 0.35467 0.0
C9984 C 0.36737 0.04908 0.34653 0.0
C9985 C 0.36925 0.03904 0.35302 0.0
C9986 C 0.35554 0.0521 0.3428 0.0
C9987 C 0.36043 0.0641 0.33734 0.0
N9988 N 0.36521 0.04305 0.34913 0.0
N9989 N 0.36472 0.05952 0.34018 0.0
H9990 H 0.69965 0.59903 0.08806 0.0
H9991 H 0.70691 0.63533 0.10422 0.0
H9992 H 0.68642 0.61625 0.08532 0.0
H9993 H 0.72156 0.61905 0.10409 0.0
H9994 H 0.69968 0.62871 0.09663 0.0
H9995 H 0.70802 0.60647 0.0934 0.0
C9996 C 0.69852 0.60439 0.08856 0.0
C9997 C 0.69231 0.60702 0.08629 0.0
C9998 C 0.70452 0.62662 0.09819 0.0
C9999 C 0.70186 0.61556 0.0924 0.0
C10000 C 0.70865 0.6304 0.10252 0.0
C10001 C 0.71482 0.62772 0.10486 0.0
C10002 C 0.70652 0.62007 0.09624 0.0
C10003 C 0.71683 0.62132 0.10246 0.0
C10004 C 0.70332 0.60864 0.09157 0.0
C10005 C 0.69116 0.61401 0.08697 0.0
N10006 N 0.71265 0.61768 0.09835 0.0
N10007 N 0.69586 0.61803 0.09003 0.0
H10008 H 0.6408 0.4368 0.33541 0.0
H10009 H 0.63748 0.47302 0.3534 0.0
H10010 H 0.6575 0.45072 0.338 0.0
H10011 H 0.62198 0.45756 0.35418 0.0
H10012 H 0.64413 0.46579 0.34586 0.0
H10013 H 0.63318 0.4452 0.34042 0.0
C10014 C 0.64285 0.44166 0.33695 0.0
C10015 C 0.64981 0.44304 0.33634 0.0
C10016 C 0.63924 0.46401 0.34762 0.0
C10017 C 0.64112 0.45266 0.34213 0.0
C10018 C 0.63542 0.46815 0.35191 0.0
C10019 C 0.62919 0.46586 0.3545 0.0
C10020 C 0.63681 0.45754 0.3459 0.0
C10021 C 0.62678 0.45951 0.35237 0.0
C10022 C 0.6385 0.44644 0.33984 0.0
C10023 C 0.65219 0.44941 0.33848 0.0
N10024 N 0.63062 0.45554 0.34824 0.0
N10025 N 0.64786 0.45397 0.3413 0.0
H10026 H 0.18607 0.89115 0.91872 0.0
H10027 H 0.22233 0.88665 0.90101 0.0
H10028 H 0.20067 0.90732 0.91652 0.0
H10029 H 0.20625 0.87182 0.89978 0.0
H10030 H 0.21524 0.89351 0.90851 0.0
H10031 H 0.19418 0.8833 0.91356 0.0
C10032 C 0.19102 0.89303 0.91723 0.0
C10033 C 0.19268 0.89991 0.918 0.0
C10034 C 0.21329 0.88872 0.90665 0.0
C10035 C 0.20196 0.89097 0.91205 0.0
C10036 C 0.21735 0.88478 0.90239 0.0
C10037 C 0.21485 0.87868 0.89969 0.0
C10038 C 0.2067 0.88654 0.90825 0.0
C10039 C 0.20836 0.87652 0.90169 0.0
C10040 C 0.19563 0.88856 0.91425 0.0
C10041 C 0.19914 0.90208 0.91592 0.0
N10042 N 0.20449 0.88047 0.9058 0.0
N10043 N 0.20353 0.89763 0.91302 0.0
H10044 H 0.34212 0.94853 0.15951 0.0
H10045 H 0.37829 0.96628 0.15587 0.0
H10046 H 0.35827 0.94584 0.17406 0.0
H10047 H 0.36117 0.97057 0.14288 0.0
H10048 H 0.3709 0.95938 0.16307 0.0
H10049 H 0.34884 0.95719 0.15383 0.0
C10050 C 0.34704 0.94982 0.16158 0.0
C10051 C 0.34963 0.94641 0.16727 0.0
C10052 C 0.36875 0.9619 0.15868 0.0
C10053 C 0.35745 0.95627 0.16067 0.0
C10054 C 0.37297 0.96585 0.15457 0.0
C10055 C 0.37037 0.96896 0.14872 0.0
C10056 C 0.3619 0.96102 0.1569 0.0
C10057 C 0.36342 0.96823 0.14731 0.0
C10058 C 0.3509 0.95475 0.1583 0.0
C10059 C 0.35611 0.94824 0.16962 0.0
N10060 N 0.35946 0.96429 0.15133 0.0
N10061 N 0.35981 0.95301 0.16629 0.0
H10062 H 0.16326 0.05596 0.66164 0.0
H10063 H 0.12558 0.04268 0.65465 0.0
H10064 H 0.14538 0.06511 0.67033 0.0
H10065 H 0.14353 0.03388 0.64569 0.0
H10066 H 0.1328 0.05003 0.66154 0.0
H10067 H 0.15618 0.04705 0.65676 0.0
C10068 C 0.15784 0.05609 0.66253 0.0
C10069 C 0.1549 0.06134 0.66634 0.0
C10070 C 0.13516 0.04644 0.65812 0.0
C10071 C 0.14675 0.05111 0.6608 0.0
C10072 C 0.13104 0.04222 0.65419 0.0
C10073 C 0.13394 0.0377 0.64952 0.0
C10074 C 0.14224 0.04616 0.65735 0.0
C10075 C 0.14105 0.03732 0.64917 0.0
C10076 C 0.1538 0.05097 0.65978 0.0
C10077 C 0.14787 0.06116 0.66745 0.0
N10078 N 0.14495 0.04154 0.65298 0.0
N10079 N 0.14402 0.05617 0.66464 0.0
loop_
_geom_bond_atom_site_label_1
_geom_bond_atom_site_label_2
_geom_bond_distance
_geom_bond_site_symmetry_2
_ccdc_geom_bond_type
C0 C1 1.264 . S
C0 C5 1.479 . S
C0 C10 1.465 . S
C1 C0 1.264 . S
C1 C3 1.339 . S
C1 H28 0.931 . S
C2 C3 1.395 . S
C2 C4 1.320 . S
C3 C1 1.339 . S
C3 C2 1.395 . S
C3 H29 0.929 . S
C4 C2 1.320 . S
C4 C5 1.405 . S
C4 H30 0.930 . S
C5 C0 1.479 . S
C5 C4 1.405 . S
C5 H31 0.931 . S
U6 O7 2.454 . S
U6 O8 2.458 . S
U6 C9 2.984 . S
U6 C10 2.847 . S
U6 C23 2.882 . S
U6 O24 2.441 . S
U6 O25 2.420 . S
U6 O26 2.455 . S
U6 O27 2.449 . S
O7 U6 2.454 . S
O7 C9 1.353 . S
O8 U6 2.458 . S
O8 C9 1.286 . S
C9 U6 2.984 . S
C9 O7 1.353 . S
C9 O8 1.286 . S
C9 C11 1.363 . S
C10 C0 1.465 . S
C10 U6 2.847 . S
C10 O24 1.249 . S
C10 O25 1.202 . S
C11 C9 1.363 . S
C11 C13 1.408 . S
C11 C16 1.342 . S
C12 C13 1.310 . S
C12 C15 1.461 . S
C12 H32 0.932 . S
C13 C11 1.408 . S
C13 C12 1.310 . S
C13 H33 0.930 . S
C14 C15 1.474 . S
C14 C16 1.285 . S
C14 H34 0.929 . S
C15 C12 1.461 . S
C15 C14 1.474 . S
C16 C11 1.342 . S
C16 C14 1.285 . S
C16 H35 0.930 . S
C17 C20 1.424 . S
C17 C22 1.245 . S
C17 C23 1.428 . S
C18 C21 1.260 . S
C18 C22 1.477 . S
C18 H36 0.932 . S
C19 C20 1.384 . S
C19 C21 1.479 . S
C19 H37 0.929 . S
C20 C17 1.424 . S
C20 C19 1.384 . S
C20 H38 0.928 . S
C21 C18 1.260 . S
C21 C19 1.479 . S
C22 C17 1.245 . S
C22 C18 1.477 . S
C22 H39 0.932 . S
C23 U6 2.882 . S
C23 C17 1.428 . S
C23 O26 1.301 . S
C23 O27 1.282 . S
O24 U6 2.441 . S
O24 C10 1.249 . S
O25 U6 2.420 . S
O25 C10 1.202 . S
O26 U6 2.455 . S
O26 C23 1.301 . S
O27 U6 2.449 . S
O27 C23 1.282 . S
H28 C1 0.931 . S
H29 C3 0.929 . S
H30 C4 0.930 . S
H31 C5 0.931 . S
H32 C12 0.932 . S
H33 C13 0.930 . S
H34 C14 0.929 . S
H35 C16 0.930 . S
H36 C18 0.932 . S
H37 C19 0.929 . S
H38 C20 0.928 . S
H39 C22 0.932 . S
C40 C41 1.264 . S
C40 C45 1.479 . S
C40 C50 1.465 . S
C41 C40 1.264 . S
C41 C43 1.339 . S
C41 H68 0.931 . S
C42 C43 1.395 . S
C42 C44 1.320 . S
C43 C41 1.339 . S
C43 C42 1.395 . S
C43 H69 0.929 . S
C44 C42 1.320 . S
C44 C45 1.405 . S
C44 H70 0.930 . S
C45 C40 1.479 . S
C45 C44 1.405 . S
C45 H71 0.931 . S
U46 O47 2.454 . S
U46 O48 2.458 . S
U46 C49 2.984 . S
U46 C50 2.847 . S
U46 C63 2.882 . S
U46 O64 2.441 . S
U46 O65 2.420 . S
U46 O66 2.455 . S
U46 O67 2.449 . S
O47 U46 2.454 . S
O47 C49 1.353 . S
O48 U46 2.458 . S
O48 C49 1.286 . S
C49 U46 2.984 . S
C49 O47 1.353 . S
C49 O48 1.286 . S
C49 C51 1.363 . S
C50 C40 1.465 . S
C50 U46 2.847 . S
C50 O64 1.249 . S
C50 O65 1.202 . S
C51 C49 1.363 . S
C51 C53 1.408 . S
C51 C56 1.342 . S
C52 C53 1.310 . S
C52 C55 1.461 . S
C52 H72 0.932 . S
C53 C51 1.408 . S
C53 C52 1.310 . S
C53 H73 0.930 . S
C54 C55 1.474 . S
C54 C56 1.285 . S
C54 H74 0.929 . S
C55 C52 1.461 . S
C55 C54 1.474 . S
C56 C51 1.342 . S
C56 C54 1.285 . S
C56 H75 0.930 . S
C57 C60 1.424 . S
C57 C62 1.245 . S
C57 C63 1.428 . S
C58 C61 1.260 . S
C58 C62 1.477 . S
C58 H76 0.932 . S
C59 C60 1.384 . S
C59 C61 1.479 . S
C59 H77 0.929 . S
C60 C57 1.424 . S
C60 C59 1.384 . S
C60 H78 0.928 . S
C61 C58 1.260 . S
C61 C59 1.479 . S
C62 C57 1.245 . S
C62 C58 1.477 . S
C62 H79 0.932 . S
C63 U46 2.882 . S
C63 C57 1.428 . S
C63 O66 1.301 . S
C63 O67 1.282 . S
O64 U46 2.441 . S
O64 C50 1.249 . S
O65 U46 2.420 . S
O65 C50 1.202 . S
O66 U46 2.455 . S
O66 C63 1.301 . S
O67 U46 2.449 . S
O67 C63 1.282 . S
H68 C41 0.931 . S
H69 C43 0.929 . S
H70 C44 0.930 . S
H71 C45 0.931 . S
H72 C52 0.932 . S
H73 C53 0.930 . S
H74 C54 0.929 . S
H75 C56 0.930 . S
H76 C58 0.932 . S
H77 C59 0.929 . S
H78 C60 0.928 . S
H79 C62 0.932 . S
C80 C81 1.264 . S
C80 C85 1.479 . S
C80 C90 1.465 . S
C81 C80 1.264 . S
C81 C83 1.339 . S
C81 H108 0.931 . S
C82 C83 1.395 . S
C82 C84 1.320 . S
C83 C81 1.339 . S
C83 C82 1.395 . S
C83 H109 0.929 . S
C84 C82 1.320 . S
C84 C85 1.405 . S
C84 H110 0.930 . S
C85 C80 1.479 . S
C85 C84 1.405 . S
C85 H111 0.931 . S
U86 O87 2.454 . S
U86 O88 2.458 . S
U86 C89 2.984 . S
U86 C90 2.847 . S
U86 C103 2.882 . S
U86 O104 2.441 . S
U86 O105 2.420 . S
U86 O106 2.455 . S
U86 O107 2.449 . S
O87 U86 2.454 . S
O87 C89 1.353 . S
O88 U86 2.458 . S
O88 C89 1.286 . S
C89 U86 2.984 . S
C89 O87 1.353 . S
C89 O88 1.286 . S
C89 C91 1.363 . S
C90 C80 1.465 . S
C90 U86 2.847 . S
C90 O104 1.249 . S
C90 O105 1.202 . S
C91 C89 1.363 . S
C91 C93 1.408 . S
C91 C96 1.342 . S
C92 C93 1.310 . S
C92 C95 1.461 . S
C92 H112 0.932 . S
C93 C91 1.408 . S
C93 C92 1.310 . S
C93 H113 0.930 . S
C94 C95 1.474 . S
C94 C96 1.285 . S
C94 H114 0.929 . S
C95 C92 1.461 . S
C95 C94 1.474 . S
C96 C91 1.342 . S
C96 C94 1.285 . S
C96 H115 0.930 . S
C97 C100 1.424 . S
C97 C102 1.245 . S
C97 C103 1.428 . S
C98 C101 1.260 . S
C98 C102 1.477 . S
C98 H116 0.932 . S
C99 C100 1.384 . S
C99 C101 1.479 . S
C99 H117 0.929 . S
C100 C97 1.424 . S
C100 C99 1.384 . S
C100 H118 0.928 . S
C101 C98 1.260 . S
C101 C99 1.479 . S
C102 C97 1.245 . S
C102 C98 1.477 . S
C102 H119 0.932 . S
C103 U86 2.882 . S
C103 C97 1.428 . S
C103 O106 1.301 . S
C103 O107 1.282 . S
O104 U86 2.441 . S
O104 C90 1.249 . S
O105 U86 2.420 . S
O105 C90 1.202 . S
O106 U86 2.455 . S
O106 C103 1.301 . S
O107 U86 2.449 . S
O107 C103 1.282 . S
H108 C81 0.931 . S
H109 C83 0.929 . S
H110 C84 0.930 . S
H111 C85 0.931 . S
H112 C92 0.932 . S
H113 C93 0.930 . S
H114 C94 0.929 . S
H115 C96 0.930 . S
H116 C98 0.932 . S
H117 C99 0.929 . S
H118 C100 0.928 . S
H119 C102 0.932 . S
C120 C121 1.264 . S
C120 C125 1.479 . S
C120 C130 1.465 . S
C121 C120 1.264 . S
C121 C123 1.339 . S
C121 H148 0.931 . S
C122 C123 1.395 . S
C122 C124 1.320 . S
C123 C121 1.339 . S
C123 C122 1.395 . S
C123 H149 0.929 . S
C124 C122 1.320 . S
C124 C125 1.405 . S
C124 H150 0.930 . S
C125 C120 1.479 . S
C125 C124 1.405 . S
C125 H151 0.931 . S
U126 O127 2.454 . S
U126 O128 2.458 . S
U126 C129 2.984 . S
U126 C130 2.847 . S
U126 C143 2.882 . S
U126 O144 2.441 . S
U126 O145 2.420 . S
U126 O146 2.455 . S
U126 O147 2.449 . S
O127 U126 2.454 . S
O127 C129 1.353 . S
O128 U126 2.458 . S
O128 C129 1.286 . S
C129 U126 2.984 . S
C129 O127 1.353 . S
C129 O128 1.286 . S
C129 C131 1.363 . S
C130 C120 1.465 . S
C130 U126 2.847 . S
C130 O144 1.249 . S
C130 O145 1.202 . S
C131 C129 1.363 . S
C131 C133 1.408 . S
C131 C136 1.342 . S
C132 C133 1.310 . S
C132 C135 1.461 . S
C132 H152 0.932 . S
C133 C131 1.408 . S
C133 C132 1.310 . S
C133 H153 0.930 . S
C134 C135 1.474 . S
C134 C136 1.285 . S
C134 H154 0.929 . S
C135 C132 1.461 . S
C135 C134 1.474 . S
C136 C131 1.342 . S
C136 C134 1.285 . S
C136 H155 0.930 . S
C137 C140 1.424 . S
C137 C142 1.245 . S
C137 C143 1.428 . S
C138 C141 1.260 . S
C138 C142 1.477 . S
C138 H156 0.932 . S
C139 C140 1.384 . S
C139 C141 1.479 . S
C139 H157 0.929 . S
C140 C137 1.424 . S
C140 C139 1.384 . S
C140 H158 0.928 . S
C141 C138 1.260 . S
C141 C139 1.479 . S
C142 C137 1.245 . S
C142 C138 1.477 . S
C142 H159 0.932 . S
C143 U126 2.882 . S
C143 C137 1.428 . S
C143 O146 1.301 . S
C143 O147 1.282 . S
O144 U126 2.441 . S
O144 C130 1.249 . S
O145 U126 2.420 . S
O145 C130 1.202 . S
O146 U126 2.455 . S
O146 C143 1.301 . S
O147 U126 2.449 . S
O147 C143 1.282 . S
H148 C121 0.931 . S
H149 C123 0.929 . S
H150 C124 0.930 . S
H151 C125 0.931 . S
H152 C132 0.932 . S
H153 C133 0.930 . S
H154 C134 0.929 . S
H155 C136 0.930 . S
H156 C138 0.932 . S
H157 C139 0.929 . S
H158 C140 0.928 . S
H159 C142 0.932 . S
C160 C161 1.264 . S
C160 C165 1.479 . S
C160 C170 1.465 . S
C161 C160 1.264 . S
C161 C163 1.339 . S
C161 H188 0.931 . S
C162 C163 1.395 . S
C162 C164 1.320 . S
C163 C161 1.339 . S
C163 C162 1.395 . S
C163 H189 0.929 . S
C164 C162 1.320 . S
C164 C165 1.405 . S
C164 H190 0.930 . S
C165 C160 1.479 . S
C165 C164 1.405 . S
C165 H191 0.931 . S
U166 O167 2.454 . S
U166 O168 2.458 . S
U166 C169 2.984 . S
U166 C170 2.847 . S
U166 C183 2.882 . S
U166 O184 2.441 . S
U166 O185 2.420 . S
U166 O186 2.455 . S
U166 O187 2.449 . S
O167 U166 2.454 . S
O167 C169 1.353 . S
O168 U166 2.458 . S
O168 C169 1.286 . S
C169 U166 2.984 . S
C169 O167 1.353 . S
C169 O168 1.286 . S
C169 C171 1.363 . S
C170 C160 1.465 . S
C170 U166 2.847 . S
C170 O184 1.249 . S
C170 O185 1.202 . S
C171 C169 1.363 . S
C171 C173 1.408 . S
C171 C176 1.342 . S
C172 C173 1.310 . S
C172 C175 1.461 . S
C172 H192 0.932 . S
C173 C171 1.408 . S
C173 C172 1.310 . S
C173 H193 0.930 . S
C174 C175 1.474 . S
C174 C176 1.285 . S
C174 H194 0.929 . S
C175 C172 1.461 . S
C175 C174 1.474 . S
C176 C171 1.342 . S
C176 C174 1.285 . S
C176 H195 0.930 . S
C177 C180 1.424 . S
C177 C182 1.245 . S
C177 C183 1.428 . S
C178 C181 1.260 . S
C178 C182 1.477 . S
C178 H196 0.932 . S
C179 C180 1.384 . S
C179 C181 1.479 . S
C179 H197 0.929 . S
C180 C177 1.424 . S
C180 C179 1.384 . S
C180 H198 0.928 . S
C181 C178 1.260 . S
C181 C179 1.479 . S
C182 C177 1.245 . S
C182 C178 1.477 . S
C182 H199 0.932 . S
C183 U166 2.882 . S
C183 C177 1.428 . S
C183 O186 1.301 . S
C183 O187 1.282 . S
O184 U166 2.441 . S
O184 C170 1.249 . S
O185 U166 2.420 . S
O185 C170 1.202 . S
O186 U166 2.455 . S
O186 C183 1.301 . S
O187 U166 2.449 . S
O187 C183 1.282 . S
H188 C161 0.931 . S
H189 C163 0.929 . S
H190 C164 0.930 . S
H191 C165 0.931 . S
H192 C172 0.932 . S
H193 C173 0.930 . S
H194 C174 0.929 . S
H195 C176 0.930 . S
H196 C178 0.932 . S
H197 C179 0.929 . S
H198 C180 0.928 . S
H199 C182 0.932 . S
C200 C201 1.264 . S
C200 C205 1.479 . S
C200 C210 1.465 . S
C201 C200 1.264 . S
C201 C203 1.339 . S
C201 H228 0.931 . S
C202 C203 1.395 . S
C202 C204 1.320 . S
C203 C201 1.339 . S
C203 C202 1.395 . S
C203 H229 0.929 . S
C204 C202 1.320 . S
C204 C205 1.405 . S
C204 H230 0.930 . S
C205 C200 1.479 . S
C205 C204 1.405 . S
C205 H231 0.931 . S
U206 O207 2.454 . S
U206 O208 2.458 . S
U206 C209 2.984 . S
U206 C210 2.847 . S
U206 C223 2.882 . S
U206 O224 2.441 . S
U206 O225 2.420 . S
U206 O226 2.455 . S
U206 O227 2.449 . S
O207 U206 2.454 . S
O207 C209 1.353 . S
O208 U206 2.458 . S
O208 C209 1.286 . S
C209 U206 2.984 . S
C209 O207 1.353 . S
C209 O208 1.286 . S
C209 C211 1.363 . S
C210 C200 1.465 . S
C210 U206 2.847 . S
C210 O224 1.249 . S
C210 O225 1.202 . S
C211 C209 1.363 . S
C211 C213 1.408 . S
C211 C216 1.342 . S
C212 C213 1.310 . S
C212 C215 1.461 . S
C212 H232 0.932 . S
C213 C211 1.408 . S
C213 C212 1.310 . S
C213 H233 0.930 . S
C214 C215 1.474 . S
C214 C216 1.285 . S
C214 H234 0.929 . S
C215 C212 1.461 . S
C215 C214 1.474 . S
C216 C211 1.342 . S
C216 C214 1.285 . S
C216 H235 0.930 . S
C217 C220 1.424 . S
C217 C222 1.245 . S
C217 C223 1.428 . S
C218 C221 1.260 . S
C218 C222 1.477 . S
C218 H236 0.932 . S
C219 C220 1.384 . S
C219 C221 1.479 . S
C219 H237 0.929 . S
C220 C217 1.424 . S
C220 C219 1.384 . S
C220 H238 0.928 . S
C221 C218 1.260 . S
C221 C219 1.479 . S
C222 C217 1.245 . S
C222 C218 1.477 . S
C222 H239 0.932 . S
C223 U206 2.882 . S
C223 C217 1.428 . S
C223 O226 1.301 . S
C223 O227 1.282 . S
O224 U206 2.441 . S
O224 C210 1.249 . S
O225 U206 2.420 . S
O225 C210 1.202 . S
O226 U206 2.455 . S
O226 C223 1.301 . S
O227 U206 2.449 . S
O227 C223 1.282 . S
H228 C201 0.931 . S
H229 C203 0.929 . S
H230 C204 0.930 . S
H231 C205 0.931 . S
H232 C212 0.932 . S
H233 C213 0.930 . S
H234 C214 0.929 . S
H235 C216 0.930 . S
H236 C218 0.932 . S
H237 C219 0.929 . S
H238 C220 0.928 . S
H239 C222 0.932 . S
C240 C241 1.264 . S
C240 C245 1.479 . S
C240 C250 1.465 . S
C241 C240 1.264 . S
C241 C243 1.339 . S
C241 H268 0.931 . S
C242 C243 1.395 . S
C242 C244 1.320 . S
C243 C241 1.339 . S
C243 C242 1.395 . S
C243 H269 0.929 . S
C244 C242 1.320 . S
C244 C245 1.405 . S
C244 H270 0.930 . S
C245 C240 1.479 . S
C245 C244 1.405 . S
C245 H271 0.931 . S
U246 O247 2.454 . S
U246 O248 2.458 . S
U246 C249 2.984 . S
U246 C250 2.847 . S
U246 C263 2.882 . S
U246 O264 2.441 . S
U246 O265 2.420 . S
U246 O266 2.455 . S
U246 O267 2.449 . S
O247 U246 2.454 . S
O247 C249 1.353 . S
O248 U246 2.458 . S
O248 C249 1.286 . S
C249 U246 2.984 . S
C249 O247 1.353 . S
C249 O248 1.286 . S
C249 C251 1.363 . S
C250 C240 1.465 . S
C250 U246 2.847 . S
C250 O264 1.249 . S
C250 O265 1.202 . S
C251 C249 1.363 . S
C251 C253 1.408 . S
C251 C256 1.342 . S
C252 C253 1.310 . S
C252 C255 1.461 . S
C252 H272 0.932 . S
C253 C251 1.408 . S
C253 C252 1.310 . S
C253 H273 0.930 . S
C254 C255 1.474 . S
C254 C256 1.285 . S
C254 H274 0.929 . S
C255 C252 1.461 . S
C255 C254 1.474 . S
C256 C251 1.342 . S
C256 C254 1.285 . S
C256 H275 0.930 . S
C257 C260 1.424 . S
C257 C262 1.245 . S
C257 C263 1.428 . S
C258 C261 1.260 . S
C258 C262 1.477 . S
C258 H276 0.932 . S
C259 C260 1.384 . S
C259 C261 1.479 . S
C259 H277 0.929 . S
C260 C257 1.424 . S
C260 C259 1.384 . S
C260 H278 0.928 . S
C261 C258 1.260 . S
C261 C259 1.479 . S
C262 C257 1.245 . S
C262 C258 1.477 . S
C262 H279 0.932 . S
C263 U246 2.882 . S
C263 C257 1.428 . S
C263 O266 1.301 . S
C263 O267 1.282 . S
O264 U246 2.441 . S
O264 C250 1.249 . S
O265 U246 2.420 . S
O265 C250 1.202 . S
O266 U246 2.455 . S
O266 C263 1.301 . S
O267 U246 2.449 . S
O267 C263 1.282 . S
H268 C241 0.931 . S
H269 C243 0.929 . S
H270 C244 0.930 . S
H271 C245 0.931 . S
H272 C252 0.932 . S
H273 C253 0.930 . S
H274 C254 0.929 . S
H275 C256 0.930 . S
H276 C258 0.932 . S
H277 C259 0.929 . S
H278 C260 0.928 . S
H279 C262 0.932 . S
C280 C281 1.264 . S
C280 C285 1.479 . S
C280 C290 1.465 . S
C281 C280 1.264 . S
C281 C283 1.339 . S
C281 H308 0.931 . S
C282 C283 1.395 . S
C282 C284 1.320 . S
C283 C281 1.339 . S
C283 C282 1.395 . S
C283 H309 0.929 . S
C284 C282 1.320 . S
C284 C285 1.405 . S
C284 H310 0.930 . S
C285 C280 1.479 . S
C285 C284 1.405 . S
C285 H311 0.931 . S
U286 O287 2.454 . S
U286 O288 2.458 . S
U286 C289 2.984 . S
U286 C290 2.847 . S
U286 C303 2.882 . S
U286 O304 2.441 . S
U286 O305 2.420 . S
U286 O306 2.455 . S
U286 O307 2.449 . S
O287 U286 2.454 . S
O287 C289 1.353 . S
O288 U286 2.458 . S
O288 C289 1.286 . S
C289 U286 2.984 . S
C289 O287 1.353 . S
C289 O288 1.286 . S
C289 C291 1.363 . S
C290 C280 1.465 . S
C290 U286 2.847 . S
C290 O304 1.249 . S
C290 O305 1.202 . S
C291 C289 1.363 . S
C291 C293 1.408 . S
C291 C296 1.342 . S
C292 C293 1.310 . S
C292 C295 1.461 . S
C292 H312 0.932 . S
C293 C291 1.408 . S
C293 C292 1.310 . S
C293 H313 0.930 . S
C294 C295 1.474 . S
C294 C296 1.285 . S
C294 H314 0.929 . S
C295 C292 1.461 . S
C295 C294 1.474 . S
C296 C291 1.342 . S
C296 C294 1.285 . S
C296 H315 0.930 . S
C297 C300 1.424 . S
C297 C302 1.245 . S
C297 C303 1.428 . S
C298 C301 1.260 . S
C298 C302 1.477 . S
C298 H316 0.932 . S
C299 C300 1.384 . S
C299 C301 1.479 . S
C299 H317 0.929 . S
C300 C297 1.424 . S
C300 C299 1.384 . S
C300 H318 0.928 . S
C301 C298 1.260 . S
C301 C299 1.479 . S
C302 C297 1.245 . S
C302 C298 1.477 . S
C302 H319 0.932 . S
C303 U286 2.882 . S
C303 C297 1.428 . S
C303 O306 1.301 . S
C303 O307 1.282 . S
O304 U286 2.441 . S
O304 C290 1.249 . S
O305 U286 2.420 . S
O305 C290 1.202 . S
O306 U286 2.455 . S
O306 C303 1.301 . S
O307 U286 2.449 . S
O307 C303 1.282 . S
H308 C281 0.931 . S
H309 C283 0.929 . S
H310 C284 0.930 . S
H311 C285 0.931 . S
H312 C292 0.932 . S
H313 C293 0.930 . S
H314 C294 0.929 . S
H315 C296 0.930 . S
H316 C298 0.932 . S
H317 C299 0.929 . S
H318 C300 0.928 . S
H319 C302 0.932 . S
C320 C321 1.264 . S
C320 C325 1.479 . S
C320 C330 1.465 . S
C321 C320 1.264 . S
C321 C323 1.339 . S
C321 H348 0.931 . S
C322 C323 1.395 . S
C322 C324 1.320 . S
C323 C321 1.339 . S
C323 C322 1.395 . S
C323 H349 0.929 . S
C324 C322 1.320 . S
C324 C325 1.405 . S
C324 H350 0.930 . S
C325 C320 1.479 . S
C325 C324 1.405 . S
C325 H351 0.931 . S
U326 O327 2.454 . S
U326 O328 2.458 . S
U326 C329 2.984 . S
U326 C330 2.847 . S
U326 C343 2.882 . S
U326 O344 2.441 . S
U326 O345 2.420 . S
U326 O346 2.455 . S
U326 O347 2.449 . S
O327 U326 2.454 . S
O327 C329 1.353 . S
O328 U326 2.458 . S
O328 C329 1.286 . S
C329 U326 2.984 . S
C329 O327 1.353 . S
C329 O328 1.286 . S
C329 C331 1.363 . S
C330 C320 1.465 . S
C330 U326 2.847 . S
C330 O344 1.249 . S
C330 O345 1.202 . S
C331 C329 1.363 . S
C331 C333 1.408 . S
C331 C336 1.342 . S
C332 C333 1.310 . S
C332 C335 1.461 . S
C332 H352 0.932 . S
C333 C331 1.408 . S
C333 C332 1.310 . S
C333 H353 0.930 . S
C334 C335 1.474 . S
C334 C336 1.285 . S
C334 H354 0.929 . S
C335 C332 1.461 . S
C335 C334 1.474 . S
C336 C331 1.342 . S
C336 C334 1.285 . S
C336 H355 0.930 . S
C337 C340 1.424 . S
C337 C342 1.245 . S
C337 C343 1.428 . S
C338 C341 1.260 . S
C338 C342 1.477 . S
C338 H356 0.932 . S
C339 C340 1.384 . S
C339 C341 1.479 . S
C339 H357 0.929 . S
C340 C337 1.424 . S
C340 C339 1.384 . S
C340 H358 0.928 . S
C341 C338 1.260 . S
C341 C339 1.479 . S
C342 C337 1.245 . S
C342 C338 1.477 . S
C342 H359 0.932 . S
C343 U326 2.882 . S
C343 C337 1.428 . S
C343 O346 1.301 . S
C343 O347 1.282 . S
O344 U326 2.441 . S
O344 C330 1.249 . S
O345 U326 2.420 . S
O345 C330 1.202 . S
O346 U326 2.455 . S
O346 C343 1.301 . S
O347 U326 2.449 . S
O347 C343 1.282 . S
H348 C321 0.931 . S
H349 C323 0.929 . S
H350 C324 0.930 . S
H351 C325 0.931 . S
H352 C332 0.932 . S
H353 C333 0.930 . S
H354 C334 0.929 . S
H355 C336 0.930 . S
H356 C338 0.932 . S
H357 C339 0.929 . S
H358 C340 0.928 . S
H359 C342 0.932 . S
C360 C361 1.264 . S
C360 C365 1.479 . S
C360 C370 1.465 . S
C361 C360 1.264 . S
C361 C363 1.339 . S
C361 H388 0.931 . S
C362 C363 1.395 . S
C362 C364 1.320 . S
C363 C361 1.339 . S
C363 C362 1.395 . S
C363 H389 0.929 . S
C364 C362 1.320 . S
C364 C365 1.405 . S
C364 H390 0.930 . S
C365 C360 1.479 . S
C365 C364 1.405 . S
C365 H391 0.931 . S
U366 O367 2.454 . S
U366 O368 2.458 . S
U366 C369 2.984 . S
U366 C370 2.847 . S
U366 C383 2.882 . S
U366 O384 2.441 . S
U366 O385 2.420 . S
U366 O386 2.455 . S
U366 O387 2.449 . S
O367 U366 2.454 . S
O367 C369 1.353 . S
O368 U366 2.458 . S
O368 C369 1.286 . S
C369 U366 2.984 . S
C369 O367 1.353 . S
C369 O368 1.286 . S
C369 C371 1.363 . S
C370 C360 1.465 . S
C370 U366 2.847 . S
C370 O384 1.249 . S
C370 O385 1.202 . S
C371 C369 1.363 . S
C371 C373 1.408 . S
C371 C376 1.342 . S
C372 C373 1.310 . S
C372 C375 1.461 . S
C372 H392 0.932 . S
C373 C371 1.408 . S
C373 C372 1.310 . S
C373 H393 0.930 . S
C374 C375 1.474 . S
C374 C376 1.285 . S
C374 H394 0.929 . S
C375 C372 1.461 . S
C375 C374 1.474 . S
C376 C371 1.342 . S
C376 C374 1.285 . S
C376 H395 0.930 . S
C377 C380 1.424 . S
C377 C382 1.245 . S
C377 C383 1.428 . S
C378 C381 1.260 . S
C378 C382 1.477 . S
C378 H396 0.932 . S
C379 C380 1.384 . S
C379 C381 1.479 . S
C379 H397 0.929 . S
C380 C377 1.424 . S
C380 C379 1.384 . S
C380 H398 0.928 . S
C381 C378 1.260 . S
C381 C379 1.479 . S
C382 C377 1.245 . S
C382 C378 1.477 . S
C382 H399 0.932 . S
C383 U366 2.882 . S
C383 C377 1.428 . S
C383 O386 1.301 . S
C383 O387 1.282 . S
O384 U366 2.441 . S
O384 C370 1.249 . S
O385 U366 2.420 . S
O385 C370 1.202 . S
O386 U366 2.455 . S
O386 C383 1.301 . S
O387 U366 2.449 . S
O387 C383 1.282 . S
H388 C361 0.931 . S
H389 C363 0.929 . S
H390 C364 0.930 . S
H391 C365 0.931 . S
H392 C372 0.932 . S
H393 C373 0.930 . S
H394 C374 0.929 . S
H395 C376 0.930 . S
H396 C378 0.932 . S
H397 C379 0.929 . S
H398 C380 0.928 . S
H399 C382 0.932 . S
C400 C401 1.264 . S
C400 C405 1.479 . S
C400 C410 1.465 . S
C401 C400 1.264 . S
C401 C403 1.339 . S
C401 H428 0.931 . S
C402 C403 1.395 . S
C402 C404 1.320 . S
C403 C401 1.339 . S
C403 C402 1.395 . S
C403 H429 0.929 . S
C404 C402 1.320 . S
C404 C405 1.405 . S
C404 H430 0.930 . S
C405 C400 1.479 . S
C405 C404 1.405 . S
C405 H431 0.931 . S
U406 O407 2.454 . S
U406 O408 2.458 . S
U406 C409 2.984 . S
U406 C410 2.847 . S
U406 C423 2.882 . S
U406 O424 2.441 . S
U406 O425 2.420 . S
U406 O426 2.455 . S
U406 O427 2.449 . S
O407 U406 2.454 . S
O407 C409 1.353 . S
O408 U406 2.458 . S
O408 C409 1.286 . S
C409 U406 2.984 . S
C409 O407 1.353 . S
C409 O408 1.286 . S
C409 C411 1.363 . S
C410 C400 1.465 . S
C410 U406 2.847 . S
C410 O424 1.249 . S
C410 O425 1.202 . S
C411 C409 1.363 . S
C411 C413 1.408 . S
C411 C416 1.342 . S
C412 C413 1.310 . S
C412 C415 1.461 . S
C412 H432 0.932 . S
C413 C411 1.408 . S
C413 C412 1.310 . S
C413 H433 0.930 . S
C414 C415 1.474 . S
C414 C416 1.285 . S
C414 H434 0.929 . S
C415 C412 1.461 . S
C415 C414 1.474 . S
C416 C411 1.342 . S
C416 C414 1.285 . S
C416 H435 0.930 . S
C417 C420 1.424 . S
C417 C422 1.245 . S
C417 C423 1.428 . S
C418 C421 1.260 . S
C418 C422 1.477 . S
C418 H436 0.932 . S
C419 C420 1.384 . S
C419 C421 1.479 . S
C419 H437 0.929 . S
C420 C417 1.424 . S
C420 C419 1.384 . S
C420 H438 0.928 . S
C421 C418 1.260 . S
C421 C419 1.479 . S
C422 C417 1.245 . S
C422 C418 1.477 . S
C422 H439 0.932 . S
C423 U406 2.882 . S
C423 C417 1.428 . S
C423 O426 1.301 . S
C423 O427 1.282 . S
O424 U406 2.441 . S
O424 C410 1.249 . S
O425 U406 2.420 . S
O425 C410 1.202 . S
O426 U406 2.455 . S
O426 C423 1.301 . S
O427 U406 2.449 . S
O427 C423 1.282 . S
H428 C401 0.931 . S
H429 C403 0.929 . S
H430 C404 0.930 . S
H431 C405 0.931 . S
H432 C412 0.932 . S
H433 C413 0.930 . S
H434 C414 0.929 . S
H435 C416 0.930 . S
H436 C418 0.932 . S
H437 C419 0.929 . S
H438 C420 0.928 . S
H439 C422 0.932 . S
C440 C441 1.264 . S
C440 C445 1.479 . S
C440 C450 1.465 . S
C441 C440 1.264 . S
C441 C443 1.339 . S
C441 H468 0.931 . S
C442 C443 1.395 . S
C442 C444 1.320 . S
C443 C441 1.339 . S
C443 C442 1.395 . S
C443 H469 0.929 . S
C444 C442 1.320 . S
C444 C445 1.405 . S
C444 H470 0.930 . S
C445 C440 1.479 . S
C445 C444 1.405 . S
C445 H471 0.931 . S
U446 O447 2.454 . S
U446 O448 2.458 . S
U446 C449 2.984 . S
U446 C450 2.847 . S
U446 C463 2.882 . S
U446 O464 2.441 . S
U446 O465 2.420 . S
U446 O466 2.455 . S
U446 O467 2.449 . S
O447 U446 2.454 . S
O447 C449 1.353 . S
O448 U446 2.458 . S
O448 C449 1.286 . S
C449 U446 2.984 . S
C449 O447 1.353 . S
C449 O448 1.286 . S
C449 C451 1.363 . S
C450 C440 1.465 . S
C450 U446 2.847 . S
C450 O464 1.249 . S
C450 O465 1.202 . S
C451 C449 1.363 . S
C451 C453 1.408 . S
C451 C456 1.342 . S
C452 C453 1.310 . S
C452 C455 1.461 . S
C452 H472 0.932 . S
C453 C451 1.408 . S
C453 C452 1.310 . S
C453 H473 0.930 . S
C454 C455 1.474 . S
C454 C456 1.285 . S
C454 H474 0.929 . S
C455 C452 1.461 . S
C455 C454 1.474 . S
C456 C451 1.342 . S
C456 C454 1.285 . S
C456 H475 0.930 . S
C457 C460 1.424 . S
C457 C462 1.245 . S
C457 C463 1.428 . S
C458 C461 1.260 . S
C458 C462 1.477 . S
C458 H476 0.932 . S
C459 C460 1.384 . S
C459 C461 1.479 . S
C459 H477 0.929 . S
C460 C457 1.424 . S
C460 C459 1.384 . S
C460 H478 0.928 . S
C461 C458 1.260 . S
C461 C459 1.479 . S
C462 C457 1.245 . S
C462 C458 1.477 . S
C462 H479 0.932 . S
C463 U446 2.882 . S
C463 C457 1.428 . S
C463 O466 1.301 . S
C463 O467 1.282 . S
O464 U446 2.441 . S
O464 C450 1.249 . S
O465 U446 2.420 . S
O465 C450 1.202 . S
O466 U446 2.455 . S
O466 C463 1.301 . S
O467 U446 2.449 . S
O467 C463 1.282 . S
H468 C441 0.931 . S
H469 C443 0.929 . S
H470 C444 0.930 . S
H471 C445 0.931 . S
H472 C452 0.932 . S
H473 C453 0.930 . S
H474 C454 0.929 . S
H475 C456 0.930 . S
H476 C458 0.932 . S
H477 C459 0.929 . S
H478 C460 0.928 . S
H479 C462 0.932 . S
C480 C481 1.264 . S
C480 C485 1.479 . S
C480 C490 1.465 . S
C481 C480 1.264 . S
C481 C483 1.339 . S
C481 H508 0.931 . S
C482 C483 1.395 . S
C482 C484 1.320 . S
C483 C481 1.339 . S
C483 C482 1.395 . S
C483 H509 0.929 . S
C484 C482 1.320 . S
C484 C485 1.405 . S
C484 H510 0.930 . S
C485 C480 1.479 . S
C485 C484 1.405 . S
C485 H511 0.931 . S
U486 O487 2.454 . S
U486 O488 2.458 . S
U486 C489 2.984 . S
U486 C490 2.847 . S
U486 C503 2.882 . S
U486 O504 2.441 . S
U486 O505 2.420 . S
U486 O506 2.455 . S
U486 O507 2.449 . S
O487 U486 2.454 . S
O487 C489 1.353 . S
O488 U486 2.458 . S
O488 C489 1.286 . S
C489 U486 2.984 . S
C489 O487 1.353 . S
C489 O488 1.286 . S
C489 C491 1.363 . S
C490 C480 1.465 . S
C490 U486 2.847 . S
C490 O504 1.249 . S
C490 O505 1.202 . S
C491 C489 1.363 . S
C491 C493 1.408 . S
C491 C496 1.342 . S
C492 C493 1.310 . S
C492 C495 1.461 . S
C492 H512 0.932 . S
C493 C491 1.408 . S
C493 C492 1.310 . S
C493 H513 0.930 . S
C494 C495 1.474 . S
C494 C496 1.285 . S
C494 H514 0.929 . S
C495 C492 1.461 . S
C495 C494 1.474 . S
C496 C491 1.342 . S
C496 C494 1.285 . S
C496 H515 0.930 . S
C497 C500 1.424 . S
C497 C502 1.245 . S
C497 C503 1.428 . S
C498 C501 1.260 . S
C498 C502 1.477 . S
C498 H516 0.932 . S
C499 C500 1.384 . S
C499 C501 1.479 . S
C499 H517 0.929 . S
C500 C497 1.424 . S
C500 C499 1.384 . S
C500 H518 0.928 . S
C501 C498 1.260 . S
C501 C499 1.479 . S
C502 C497 1.245 . S
C502 C498 1.477 . S
C502 H519 0.932 . S
C503 U486 2.882 . S
C503 C497 1.428 . S
C503 O506 1.301 . S
C503 O507 1.282 . S
O504 U486 2.441 . S
O504 C490 1.249 . S
O505 U486 2.420 . S
O505 C490 1.202 . S
O506 U486 2.455 . S
O506 C503 1.301 . S
O507 U486 2.449 . S
O507 C503 1.282 . S
H508 C481 0.931 . S
H509 C483 0.929 . S
H510 C484 0.930 . S
H511 C485 0.931 . S
H512 C492 0.932 . S
H513 C493 0.930 . S
H514 C494 0.929 . S
H515 C496 0.930 . S
H516 C498 0.932 . S
H517 C499 0.929 . S
H518 C500 0.928 . S
H519 C502 0.932 . S
C520 C521 1.264 . S
C520 C525 1.479 . S
C520 C530 1.465 . S
C521 C520 1.264 . S
C521 C523 1.339 . S
C521 H548 0.931 . S
C522 C523 1.395 . S
C522 C524 1.320 . S
C523 C521 1.339 . S
C523 C522 1.395 . S
C523 H549 0.929 . S
C524 C522 1.320 . S
C524 C525 1.405 . S
C524 H550 0.930 . S
C525 C520 1.479 . S
C525 C524 1.405 . S
C525 H551 0.931 . S
U526 O527 2.454 . S
U526 O528 2.458 . S
U526 C529 2.984 . S
U526 C530 2.847 . S
U526 C543 2.882 . S
U526 O544 2.441 . S
U526 O545 2.420 . S
U526 O546 2.455 . S
U526 O547 2.449 . S
O527 U526 2.454 . S
O527 C529 1.353 . S
O528 U526 2.458 . S
O528 C529 1.286 . S
C529 U526 2.984 . S
C529 O527 1.353 . S
C529 O528 1.286 . S
C529 C531 1.363 . S
C530 C520 1.465 . S
C530 U526 2.847 . S
C530 O544 1.249 . S
C530 O545 1.202 . S
C531 C529 1.363 . S
C531 C533 1.408 . S
C531 C536 1.342 . S
C532 C533 1.310 . S
C532 C535 1.461 . S
C532 H552 0.932 . S
C533 C531 1.408 . S
C533 C532 1.310 . S
C533 H553 0.930 . S
C534 C535 1.474 . S
C534 C536 1.285 . S
C534 H554 0.929 . S
C535 C532 1.461 . S
C535 C534 1.474 . S
C536 C531 1.342 . S
C536 C534 1.285 . S
C536 H555 0.930 . S
C537 C540 1.424 . S
C537 C542 1.245 . S
C537 C543 1.428 . S
C538 C541 1.260 . S
C538 C542 1.477 . S
C538 H556 0.932 . S
C539 C540 1.384 . S
C539 C541 1.479 . S
C539 H557 0.929 . S
C540 C537 1.424 . S
C540 C539 1.384 . S
C540 H558 0.928 . S
C541 C538 1.260 . S
C541 C539 1.479 . S
C542 C537 1.245 . S
C542 C538 1.477 . S
C542 H559 0.932 . S
C543 U526 2.882 . S
C543 C537 1.428 . S
C543 O546 1.301 . S
C543 O547 1.282 . S
O544 U526 2.441 . S
O544 C530 1.249 . S
O545 U526 2.420 . S
O545 C530 1.202 . S
O546 U526 2.455 . S
O546 C543 1.301 . S
O547 U526 2.449 . S
O547 C543 1.282 . S
H548 C521 0.931 . S
H549 C523 0.929 . S
H550 C524 0.930 . S
H551 C525 0.931 . S
H552 C532 0.932 . S
H553 C533 0.930 . S
H554 C534 0.929 . S
H555 C536 0.930 . S
H556 C538 0.932 . S
H557 C539 0.929 . S
H558 C540 0.928 . S
H559 C542 0.932 . S
C560 C561 1.264 . S
C560 C565 1.479 . S
C560 C570 1.465 . S
C561 C560 1.264 . S
C561 C563 1.339 . S
C561 H588 0.931 . S
C562 C563 1.395 . S
C562 C564 1.320 . S
C563 C561 1.339 . S
C563 C562 1.395 . S
C563 H589 0.929 . S
C564 C562 1.320 . S
C564 C565 1.405 . S
C564 H590 0.930 . S
C565 C560 1.479 . S
C565 C564 1.405 . S
C565 H591 0.931 . S
U566 O567 2.454 . S
U566 O568 2.458 . S
U566 C569 2.984 . S
U566 C570 2.847 . S
U566 C583 2.882 . S
U566 O584 2.441 . S
U566 O585 2.420 . S
U566 O586 2.455 . S
U566 O587 2.449 . S
O567 U566 2.454 . S
O567 C569 1.353 . S
O568 U566 2.458 . S
O568 C569 1.286 . S
C569 U566 2.984 . S
C569 O567 1.353 . S
C569 O568 1.286 . S
C569 C571 1.363 . S
C570 C560 1.465 . S
C570 U566 2.847 . S
C570 O584 1.249 . S
C570 O585 1.202 . S
C571 C569 1.363 . S
C571 C573 1.408 . S
C571 C576 1.342 . S
C572 C573 1.310 . S
C572 C575 1.461 . S
C572 H592 0.932 . S
C573 C571 1.408 . S
C573 C572 1.310 . S
C573 H593 0.930 . S
C574 C575 1.474 . S
C574 C576 1.285 . S
C574 H594 0.929 . S
C575 C572 1.461 . S
C575 C574 1.474 . S
C576 C571 1.342 . S
C576 C574 1.285 . S
C576 H595 0.930 . S
C577 C580 1.424 . S
C577 C582 1.245 . S
C577 C583 1.428 . S
C578 C581 1.260 . S
C578 C582 1.477 . S
C578 H596 0.932 . S
C579 C580 1.384 . S
C579 C581 1.479 . S
C579 H597 0.929 . S
C580 C577 1.424 . S
C580 C579 1.384 . S
C580 H598 0.928 . S
C581 C578 1.260 . S
C581 C579 1.479 . S
C582 C577 1.245 . S
C582 C578 1.477 . S
C582 H599 0.932 . S
C583 U566 2.882 . S
C583 C577 1.428 . S
C583 O586 1.301 . S
C583 O587 1.282 . S
O584 U566 2.441 . S
O584 C570 1.249 . S
O585 U566 2.420 . S
O585 C570 1.202 . S
O586 U566 2.455 . S
O586 C583 1.301 . S
O587 U566 2.449 . S
O587 C583 1.282 . S
H588 C561 0.931 . S
H589 C563 0.929 . S
H590 C564 0.930 . S
H591 C565 0.931 . S
H592 C572 0.932 . S
H593 C573 0.930 . S
H594 C574 0.929 . S
H595 C576 0.930 . S
H596 C578 0.932 . S
H597 C579 0.929 . S
H598 C580 0.928 . S
H599 C582 0.932 . S
C600 C601 1.264 . S
C600 C605 1.479 . S
C600 C610 1.465 . S
C601 C600 1.264 . S
C601 C603 1.339 . S
C601 H628 0.931 . S
C602 C603 1.395 . S
C602 C604 1.320 . S
C603 C601 1.339 . S
C603 C602 1.395 . S
C603 H629 0.929 . S
C604 C602 1.320 . S
C604 C605 1.405 . S
C604 H630 0.930 . S
C605 C600 1.479 . S
C605 C604 1.405 . S
C605 H631 0.931 . S
U606 O607 2.454 . S
U606 O608 2.458 . S
U606 C609 2.984 . S
U606 C610 2.847 . S
U606 C623 2.882 . S
U606 O624 2.441 . S
U606 O625 2.420 . S
U606 O626 2.455 . S
U606 O627 2.449 . S
O607 U606 2.454 . S
O607 C609 1.353 . S
O608 U606 2.458 . S
O608 C609 1.286 . S
C609 U606 2.984 . S
C609 O607 1.353 . S
C609 O608 1.286 . S
C609 C611 1.363 . S
C610 C600 1.465 . S
C610 U606 2.847 . S
C610 O624 1.249 . S
C610 O625 1.202 . S
C611 C609 1.363 . S
C611 C613 1.408 . S
C611 C616 1.342 . S
C612 C613 1.310 . S
C612 C615 1.461 . S
C612 H632 0.932 . S
C613 C611 1.408 . S
C613 C612 1.310 . S
C613 H633 0.930 . S
C614 C615 1.474 . S
C614 C616 1.285 . S
C614 H634 0.929 . S
C615 C612 1.461 . S
C615 C614 1.474 . S
C616 C611 1.342 . S
C616 C614 1.285 . S
C616 H635 0.930 . S
C617 C620 1.424 . S
C617 C622 1.245 . S
C617 C623 1.428 . S
C618 C621 1.260 . S
C618 C622 1.477 . S
C618 H636 0.932 . S
C619 C620 1.384 . S
C619 C621 1.479 . S
C619 H637 0.929 . S
C620 C617 1.424 . S
C620 C619 1.384 . S
C620 H638 0.928 . S
C621 C618 1.260 . S
C621 C619 1.479 . S
C622 C617 1.245 . S
C622 C618 1.477 . S
C622 H639 0.932 . S
C623 U606 2.882 . S
C623 C617 1.428 . S
C623 O626 1.301 . S
C623 O627 1.282 . S
O624 U606 2.441 . S
O624 C610 1.249 . S
O625 U606 2.420 . S
O625 C610 1.202 . S
O626 U606 2.455 . S
O626 C623 1.301 . S
O627 U606 2.449 . S
O627 C623 1.282 . S
H628 C601 0.931 . S
H629 C603 0.929 . S
H630 C604 0.930 . S
H631 C605 0.931 . S
H632 C612 0.932 . S
H633 C613 0.930 . S
H634 C614 0.929 . S
H635 C616 0.930 . S
H636 C618 0.932 . S
H637 C619 0.929 . S
H638 C620 0.928 . S
H639 C622 0.932 . S
C640 C641 1.264 . S
C640 C645 1.479 . S
C640 C650 1.465 . S
C641 C640 1.264 . S
C641 C643 1.339 . S
C641 H668 0.931 . S
C642 C643 1.395 . S
C642 C644 1.320 . S
C643 C641 1.339 . S
C643 C642 1.395 . S
C643 H669 0.929 . S
C644 C642 1.320 . S
C644 C645 1.405 . S
C644 H670 0.930 . S
C645 C640 1.479 . S
C645 C644 1.405 . S
C645 H671 0.931 . S
U646 O647 2.454 . S
U646 O648 2.458 . S
U646 C649 2.984 . S
U646 C650 2.847 . S
U646 C663 2.882 . S
U646 O664 2.441 . S
U646 O665 2.420 . S
U646 O666 2.455 . S
U646 O667 2.449 . S
O647 U646 2.454 . S
O647 C649 1.353 . S
O648 U646 2.458 . S
O648 C649 1.286 . S
C649 U646 2.984 . S
C649 O647 1.353 . S
C649 O648 1.286 . S
C649 C651 1.363 . S
C650 C640 1.465 . S
C650 U646 2.847 . S
C650 O664 1.249 . S
C650 O665 1.202 . S
C651 C649 1.363 . S
C651 C653 1.408 . S
C651 C656 1.342 . S
C652 C653 1.310 . S
C652 C655 1.461 . S
C652 H672 0.932 . S
C653 C651 1.408 . S
C653 C652 1.310 . S
C653 H673 0.930 . S
C654 C655 1.474 . S
C654 C656 1.285 . S
C654 H674 0.929 . S
C655 C652 1.461 . S
C655 C654 1.474 . S
C656 C651 1.342 . S
C656 C654 1.285 . S
C656 H675 0.930 . S
C657 C660 1.424 . S
C657 C662 1.245 . S
C657 C663 1.428 . S
C658 C661 1.260 . S
C658 C662 1.477 . S
C658 H676 0.932 . S
C659 C660 1.384 . S
C659 C661 1.479 . S
C659 H677 0.929 . S
C660 C657 1.424 . S
C660 C659 1.384 . S
C660 H678 0.928 . S
C661 C658 1.260 . S
C661 C659 1.479 . S
C662 C657 1.245 . S
C662 C658 1.477 . S
C662 H679 0.932 . S
C663 U646 2.882 . S
C663 C657 1.428 . S
C663 O666 1.301 . S
C663 O667 1.282 . S
O664 U646 2.441 . S
O664 C650 1.249 . S
O665 U646 2.420 . S
O665 C650 1.202 . S
O666 U646 2.455 . S
O666 C663 1.301 . S
O667 U646 2.449 . S
O667 C663 1.282 . S
H668 C641 0.931 . S
H669 C643 0.929 . S
H670 C644 0.930 . S
H671 C645 0.931 . S
H672 C652 0.932 . S
H673 C653 0.930 . S
H674 C654 0.929 . S
H675 C656 0.930 . S
H676 C658 0.932 . S
H677 C659 0.929 . S
H678 C660 0.928 . S
H679 C662 0.932 . S
C680 C681 1.264 . S
C680 C685 1.479 . S
C680 C690 1.465 . S
C681 C680 1.264 . S
C681 C683 1.339 . S
C681 H708 0.931 . S
C682 C683 1.395 . S
C682 C684 1.320 . S
C683 C681 1.339 . S
C683 C682 1.395 . S
C683 H709 0.929 . S
C684 C682 1.320 . S
C684 C685 1.405 . S
C684 H710 0.930 . S
C685 C680 1.479 . S
C685 C684 1.405 . S
C685 H711 0.931 . S
U686 O687 2.454 . S
U686 O688 2.458 . S
U686 C689 2.984 . S
U686 C690 2.847 . S
U686 C703 2.882 . S
U686 O704 2.441 . S
U686 O705 2.420 . S
U686 O706 2.455 . S
U686 O707 2.449 . S
O687 U686 2.454 . S
O687 C689 1.353 . S
O688 U686 2.458 . S
O688 C689 1.286 . S
C689 U686 2.984 . S
C689 O687 1.353 . S
C689 O688 1.286 . S
C689 C691 1.363 . S
C690 C680 1.465 . S
C690 U686 2.847 . S
C690 O704 1.249 . S
C690 O705 1.202 . S
C691 C689 1.363 . S
C691 C693 1.408 . S
C691 C696 1.342 . S
C692 C693 1.310 . S
C692 C695 1.461 . S
C692 H712 0.932 . S
C693 C691 1.408 . S
C693 C692 1.310 . S
C693 H713 0.930 . S
C694 C695 1.474 . S
C694 C696 1.285 . S
C694 H714 0.929 . S
C695 C692 1.461 . S
C695 C694 1.474 . S
C696 C691 1.342 . S
C696 C694 1.285 . S
C696 H715 0.930 . S
C697 C700 1.424 . S
C697 C702 1.245 . S
C697 C703 1.428 . S
C698 C701 1.260 . S
C698 C702 1.477 . S
C698 H716 0.932 . S
C699 C700 1.384 . S
C699 C701 1.479 . S
C699 H717 0.929 . S
C700 C697 1.424 . S
C700 C699 1.384 . S
C700 H718 0.928 . S
C701 C698 1.260 . S
C701 C699 1.479 . S
C702 C697 1.245 . S
C702 C698 1.477 . S
C702 H719 0.932 . S
C703 U686 2.882 . S
C703 C697 1.428 . S
C703 O706 1.301 . S
C703 O707 1.282 . S
O704 U686 2.441 . S
O704 C690 1.249 . S
O705 U686 2.420 . S
O705 C690 1.202 . S
O706 U686 2.455 . S
O706 C703 1.301 . S
O707 U686 2.449 . S
O707 C703 1.282 . S
H708 C681 0.931 . S
H709 C683 0.929 . S
H710 C684 0.930 . S
H711 C685 0.931 . S
H712 C692 0.932 . S
H713 C693 0.930 . S
H714 C694 0.929 . S
H715 C696 0.930 . S
H716 C698 0.932 . S
H717 C699 0.929 . S
H718 C700 0.928 . S
H719 C702 0.932 . S
C720 C721 1.264 . S
C720 C725 1.479 . S
C720 C730 1.465 . S
C721 C720 1.264 . S
C721 C723 1.339 . S
C721 H748 0.931 . S
C722 C723 1.395 . S
C722 C724 1.320 . S
C723 C721 1.339 . S
C723 C722 1.395 . S
C723 H749 0.929 . S
C724 C722 1.320 . S
C724 C725 1.405 . S
C724 H750 0.930 . S
C725 C720 1.479 . S
C725 C724 1.405 . S
C725 H751 0.931 . S
U726 O727 2.454 . S
U726 O728 2.458 . S
U726 C729 2.984 . S
U726 C730 2.847 . S
U726 C743 2.882 . S
U726 O744 2.441 . S
U726 O745 2.420 . S
U726 O746 2.455 . S
U726 O747 2.449 . S
O727 U726 2.454 . S
O727 C729 1.353 . S
O728 U726 2.458 . S
O728 C729 1.286 . S
C729 U726 2.984 . S
C729 O727 1.353 . S
C729 O728 1.286 . S
C729 C731 1.363 . S
C730 C720 1.465 . S
C730 U726 2.847 . S
C730 O744 1.249 . S
C730 O745 1.202 . S
C731 C729 1.363 . S
C731 C733 1.408 . S
C731 C736 1.342 . S
C732 C733 1.310 . S
C732 C735 1.461 . S
C732 H752 0.932 . S
C733 C731 1.408 . S
C733 C732 1.310 . S
C733 H753 0.930 . S
C734 C735 1.474 . S
C734 C736 1.285 . S
C734 H754 0.929 . S
C735 C732 1.461 . S
C735 C734 1.474 . S
C736 C731 1.342 . S
C736 C734 1.285 . S
C736 H755 0.930 . S
C737 C740 1.424 . S
C737 C742 1.245 . S
C737 C743 1.428 . S
C738 C741 1.260 . S
C738 C742 1.477 . S
C738 H756 0.932 . S
C739 C740 1.384 . S
C739 C741 1.479 . S
C739 H757 0.929 . S
C740 C737 1.424 . S
C740 C739 1.384 . S
C740 H758 0.928 . S
C741 C738 1.260 . S
C741 C739 1.479 . S
C742 C737 1.245 . S
C742 C738 1.477 . S
C742 H759 0.932 . S
C743 U726 2.882 . S
C743 C737 1.428 . S
C743 O746 1.301 . S
C743 O747 1.282 . S
O744 U726 2.441 . S
O744 C730 1.249 . S
O745 U726 2.420 . S
O745 C730 1.202 . S
O746 U726 2.455 . S
O746 C743 1.301 . S
O747 U726 2.449 . S
O747 C743 1.282 . S
H748 C721 0.931 . S
H749 C723 0.929 . S
H750 C724 0.930 . S
H751 C725 0.931 . S
H752 C732 0.932 . S
H753 C733 0.930 . S
H754 C734 0.929 . S
H755 C736 0.930 . S
H756 C738 0.932 . S
H757 C739 0.929 . S
H758 C740 0.928 . S
H759 C742 0.932 . S
C760 C761 1.264 . S
C760 C765 1.479 . S
C760 C770 1.465 . S
C761 C760 1.264 . S
C761 C763 1.339 . S
C761 H788 0.931 . S
C762 C763 1.395 . S
C762 C764 1.320 . S
C763 C761 1.339 . S
C763 C762 1.395 . S
C763 H789 0.929 . S
C764 C762 1.320 . S
C764 C765 1.405 . S
C764 H790 0.930 . S
C765 C760 1.479 . S
C765 C764 1.405 . S
C765 H791 0.931 . S
U766 O767 2.454 . S
U766 O768 2.458 . S
U766 C769 2.984 . S
U766 C770 2.847 . S
U766 C783 2.882 . S
U766 O784 2.441 . S
U766 O785 2.420 . S
U766 O786 2.455 . S
U766 O787 2.449 . S
O767 U766 2.454 . S
O767 C769 1.353 . S
O768 U766 2.458 . S
O768 C769 1.286 . S
C769 U766 2.984 . S
C769 O767 1.353 . S
C769 O768 1.286 . S
C769 C771 1.363 . S
C770 C760 1.465 . S
C770 U766 2.847 . S
C770 O784 1.249 . S
C770 O785 1.202 . S
C771 C769 1.363 . S
C771 C773 1.408 . S
C771 C776 1.342 . S
C772 C773 1.310 . S
C772 C775 1.461 . S
C772 H792 0.932 . S
C773 C771 1.408 . S
C773 C772 1.310 . S
C773 H793 0.930 . S
C774 C775 1.474 . S
C774 C776 1.285 . S
C774 H794 0.929 . S
C775 C772 1.461 . S
C775 C774 1.474 . S
C776 C771 1.342 . S
C776 C774 1.285 . S
C776 H795 0.930 . S
C777 C780 1.424 . S
C777 C782 1.245 . S
C777 C783 1.428 . S
C778 C781 1.260 . S
C778 C782 1.477 . S
C778 H796 0.932 . S
C779 C780 1.384 . S
C779 C781 1.479 . S
C779 H797 0.929 . S
C780 C777 1.424 . S
C780 C779 1.384 . S
C780 H798 0.928 . S
C781 C778 1.260 . S
C781 C779 1.479 . S
C782 C777 1.245 . S
C782 C778 1.477 . S
C782 H799 0.932 . S
C783 U766 2.882 . S
C783 C777 1.428 . S
C783 O786 1.301 . S
C783 O787 1.282 . S
O784 U766 2.441 . S
O784 C770 1.249 . S
O785 U766 2.420 . S
O785 C770 1.202 . S
O786 U766 2.455 . S
O786 C783 1.301 . S
O787 U766 2.449 . S
O787 C783 1.282 . S
H788 C761 0.931 . S
H789 C763 0.929 . S
H790 C764 0.930 . S
H791 C765 0.931 . S
H792 C772 0.932 . S
H793 C773 0.930 . S
H794 C774 0.929 . S
H795 C776 0.930 . S
H796 C778 0.932 . S
H797 C779 0.929 . S
H798 C780 0.928 . S
H799 C782 0.932 . S
C800 C801 1.264 . S
C800 C805 1.479 . S
C800 C810 1.465 . S
C801 C800 1.264 . S
C801 C803 1.339 . S
C801 H828 0.931 . S
C802 C803 1.395 . S
C802 C804 1.320 . S
C803 C801 1.339 . S
C803 C802 1.395 . S
C803 H829 0.929 . S
C804 C802 1.320 . S
C804 C805 1.405 . S
C804 H830 0.930 . S
C805 C800 1.479 . S
C805 C804 1.405 . S
C805 H831 0.931 . S
U806 O807 2.454 . S
U806 O808 2.458 . S
U806 C809 2.984 . S
U806 C810 2.847 . S
U806 C823 2.882 . S
U806 O824 2.441 . S
U806 O825 2.420 . S
U806 O826 2.455 . S
U806 O827 2.449 . S
O807 U806 2.454 . S
O807 C809 1.353 . S
O808 U806 2.458 . S
O808 C809 1.286 . S
C809 U806 2.984 . S
C809 O807 1.353 . S
C809 O808 1.286 . S
C809 C811 1.363 . S
C810 C800 1.465 . S
C810 U806 2.847 . S
C810 O824 1.249 . S
C810 O825 1.202 . S
C811 C809 1.363 . S
C811 C813 1.408 . S
C811 C816 1.342 . S
C812 C813 1.310 . S
C812 C815 1.461 . S
C812 H832 0.932 . S
C813 C811 1.408 . S
C813 C812 1.310 . S
C813 H833 0.930 . S
C814 C815 1.474 . S
C814 C816 1.285 . S
C814 H834 0.929 . S
C815 C812 1.461 . S
C815 C814 1.474 . S
C816 C811 1.342 . S
C816 C814 1.285 . S
C816 H835 0.930 . S
C817 C820 1.424 . S
C817 C822 1.245 . S
C817 C823 1.428 . S
C818 C821 1.260 . S
C818 C822 1.477 . S
C818 H836 0.932 . S
C819 C820 1.384 . S
C819 C821 1.479 . S
C819 H837 0.929 . S
C820 C817 1.424 . S
C820 C819 1.384 . S
C820 H838 0.928 . S
C821 C818 1.260 . S
C821 C819 1.479 . S
C822 C817 1.245 . S
C822 C818 1.477 . S
C822 H839 0.932 . S
C823 U806 2.882 . S
C823 C817 1.428 . S
C823 O826 1.301 . S
C823 O827 1.282 . S
O824 U806 2.441 . S
O824 C810 1.249 . S
O825 U806 2.420 . S
O825 C810 1.202 . S
O826 U806 2.455 . S
O826 C823 1.301 . S
O827 U806 2.449 . S
O827 C823 1.282 . S
H828 C801 0.931 . S
H829 C803 0.929 . S
H830 C804 0.930 . S
H831 C805 0.931 . S
H832 C812 0.932 . S
H833 C813 0.930 . S
H834 C814 0.929 . S
H835 C816 0.930 . S
H836 C818 0.932 . S
H837 C819 0.929 . S
H838 C820 0.928 . S
H839 C822 0.932 . S
C840 C841 1.264 . S
C840 C845 1.479 . S
C840 C850 1.465 . S
C841 C840 1.264 . S
C841 C843 1.339 . S
C841 H868 0.931 . S
C842 C843 1.395 . S
C842 C844 1.320 . S
C843 C841 1.339 . S
C843 C842 1.395 . S
C843 H869 0.929 . S
C844 C842 1.320 . S
C844 C845 1.405 . S
C844 H870 0.930 . S
C845 C840 1.479 . S
C845 C844 1.405 . S
C845 H871 0.931 . S
U846 O847 2.454 . S
U846 O848 2.458 . S
U846 C849 2.984 . S
U846 C850 2.847 . S
U846 C863 2.882 . S
U846 O864 2.441 . S
U846 O865 2.420 . S
U846 O866 2.455 . S
U846 O867 2.449 . S
O847 U846 2.454 . S
O847 C849 1.353 . S
O848 U846 2.458 . S
O848 C849 1.286 . S
C849 U846 2.984 . S
C849 O847 1.353 . S
C849 O848 1.286 . S
C849 C851 1.363 . S
C850 C840 1.465 . S
C850 U846 2.847 . S
C850 O864 1.249 . S
C850 O865 1.202 . S
C851 C849 1.363 . S
C851 C853 1.408 . S
C851 C856 1.342 . S
C852 C853 1.310 . S
C852 C855 1.461 . S
C852 H872 0.932 . S
C853 C851 1.408 . S
C853 C852 1.310 . S
C853 H873 0.930 . S
C854 C855 1.474 . S
C854 C856 1.285 . S
C854 H874 0.929 . S
C855 C852 1.461 . S
C855 C854 1.474 . S
C856 C851 1.342 . S
C856 C854 1.285 . S
C856 H875 0.930 . S
C857 C860 1.424 . S
C857 C862 1.245 . S
C857 C863 1.428 . S
C858 C861 1.260 . S
C858 C862 1.477 . S
C858 H876 0.932 . S
C859 C860 1.384 . S
C859 C861 1.479 . S
C859 H877 0.929 . S
C860 C857 1.424 . S
C860 C859 1.384 . S
C860 H878 0.928 . S
C861 C858 1.260 . S
C861 C859 1.479 . S
C862 C857 1.245 . S
C862 C858 1.477 . S
C862 H879 0.932 . S
C863 U846 2.882 . S
C863 C857 1.428 . S
C863 O866 1.301 . S
C863 O867 1.282 . S
O864 U846 2.441 . S
O864 C850 1.249 . S
O865 U846 2.420 . S
O865 C850 1.202 . S
O866 U846 2.455 . S
O866 C863 1.301 . S
O867 U846 2.449 . S
O867 C863 1.282 . S
H868 C841 0.931 . S
H869 C843 0.929 . S
H870 C844 0.930 . S
H871 C845 0.931 . S
H872 C852 0.932 . S
H873 C853 0.930 . S
H874 C854 0.929 . S
H875 C856 0.930 . S
H876 C858 0.932 . S
H877 C859 0.929 . S
H878 C860 0.928 . S
H879 C862 0.932 . S
C880 C881 1.264 . S
C880 C885 1.479 . S
C880 C890 1.465 . S
C881 C880 1.264 . S
C881 C883 1.339 . S
C881 H908 0.931 . S
C882 C883 1.395 . S
C882 C884 1.320 . S
C883 C881 1.339 . S
C883 C882 1.395 . S
C883 H909 0.929 . S
C884 C882 1.320 . S
C884 C885 1.405 . S
C884 H910 0.930 . S
C885 C880 1.479 . S
C885 C884 1.405 . S
C885 H911 0.931 . S
U886 O887 2.454 . S
U886 O888 2.458 . S
U886 C889 2.984 . S
U886 C890 2.847 . S
U886 C903 2.882 . S
U886 O904 2.441 . S
U886 O905 2.420 . S
U886 O906 2.455 . S
U886 O907 2.449 . S
O887 U886 2.454 . S
O887 C889 1.353 . S
O888 U886 2.458 . S
O888 C889 1.286 . S
C889 U886 2.984 . S
C889 O887 1.353 . S
C889 O888 1.286 . S
C889 C891 1.363 . S
C890 C880 1.465 . S
C890 U886 2.847 . S
C890 O904 1.249 . S
C890 O905 1.202 . S
C891 C889 1.363 . S
C891 C893 1.408 . S
C891 C896 1.342 . S
C892 C893 1.310 . S
C892 C895 1.461 . S
C892 H912 0.932 . S
C893 C891 1.408 . S
C893 C892 1.310 . S
C893 H913 0.930 . S
C894 C895 1.474 . S
C894 C896 1.285 . S
C894 H914 0.929 . S
C895 C892 1.461 . S
C895 C894 1.474 . S
C896 C891 1.342 . S
C896 C894 1.285 . S
C896 H915 0.930 . S
C897 C900 1.424 . S
C897 C902 1.245 . S
C897 C903 1.428 . S
C898 C901 1.260 . S
C898 C902 1.477 . S
C898 H916 0.932 . S
C899 C900 1.384 . S
C899 C901 1.479 . S
C899 H917 0.929 . S
C900 C897 1.424 . S
C900 C899 1.384 . S
C900 H918 0.928 . S
C901 C898 1.260 . S
C901 C899 1.479 . S
C902 C897 1.245 . S
C902 C898 1.477 . S
C902 H919 0.932 . S
C903 U886 2.882 . S
C903 C897 1.428 . S
C903 O906 1.301 . S
C903 O907 1.282 . S
O904 U886 2.441 . S
O904 C890 1.249 . S
O905 U886 2.420 . S
O905 C890 1.202 . S
O906 U886 2.455 . S
O906 C903 1.301 . S
O907 U886 2.449 . S
O907 C903 1.282 . S
H908 C881 0.931 . S
H909 C883 0.929 . S
H910 C884 0.930 . S
H911 C885 0.931 . S
H912 C892 0.932 . S
H913 C893 0.930 . S
H914 C894 0.929 . S
H915 C896 0.930 . S
H916 C898 0.932 . S
H917 C899 0.929 . S
H918 C900 0.928 . S
H919 C902 0.932 . S
C920 C921 1.264 . S
C920 C925 1.479 . S
C920 C930 1.465 . S
C921 C920 1.264 . S
C921 C923 1.339 . S
C921 H948 0.931 . S
C922 C923 1.395 . S
C922 C924 1.320 . S
C923 C921 1.339 . S
C923 C922 1.395 . S
C923 H949 0.929 . S
C924 C922 1.320 . S
C924 C925 1.405 . S
C924 H950 0.930 . S
C925 C920 1.479 . S
C925 C924 1.405 . S
C925 H951 0.931 . S
U926 O927 2.454 . S
U926 O928 2.458 . S
U926 C929 2.984 . S
U926 C930 2.847 . S
U926 C943 2.882 . S
U926 O944 2.441 . S
U926 O945 2.420 . S
U926 O946 2.455 . S
U926 O947 2.449 . S
O927 U926 2.454 . S
O927 C929 1.353 . S
O928 U926 2.458 . S
O928 C929 1.286 . S
C929 U926 2.984 . S
C929 O927 1.353 . S
C929 O928 1.286 . S
C929 C931 1.363 . S
C930 C920 1.465 . S
C930 U926 2.847 . S
C930 O944 1.249 . S
C930 O945 1.202 . S
C931 C929 1.363 . S
C931 C933 1.408 . S
C931 C936 1.342 . S
C932 C933 1.310 . S
C932 C935 1.461 . S
C932 H952 0.932 . S
C933 C931 1.408 . S
C933 C932 1.310 . S
C933 H953 0.930 . S
C934 C935 1.474 . S
C934 C936 1.285 . S
C934 H954 0.929 . S
C935 C932 1.461 . S
C935 C934 1.474 . S
C936 C931 1.342 . S
C936 C934 1.285 . S
C936 H955 0.930 . S
C937 C940 1.424 . S
C937 C942 1.245 . S
C937 C943 1.428 . S
C938 C941 1.260 . S
C938 C942 1.477 . S
C938 H956 0.932 . S
C939 C940 1.384 . S
C939 C941 1.479 . S
C939 H957 0.929 . S
C940 C937 1.424 . S
C940 C939 1.384 . S
C940 H958 0.928 . S
C941 C938 1.260 . S
C941 C939 1.479 . S
C942 C937 1.245 . S
C942 C938 1.477 . S
C942 H959 0.932 . S
C943 U926 2.882 . S
C943 C937 1.428 . S
C943 O946 1.301 . S
C943 O947 1.282 . S
O944 U926 2.441 . S
O944 C930 1.249 . S
O945 U926 2.420 . S
O945 C930 1.202 . S
O946 U926 2.455 . S
O946 C943 1.301 . S
O947 U926 2.449 . S
O947 C943 1.282 . S
H948 C921 0.931 . S
H949 C923 0.929 . S
H950 C924 0.930 . S
H951 C925 0.931 . S
H952 C932 0.932 . S
H953 C933 0.930 . S
H954 C934 0.929 . S
H955 C936 0.930 . S
H956 C938 0.932 . S
H957 C939 0.929 . S
H958 C940 0.928 . S
H959 C942 0.932 . S
C960 C961 1.264 . S
C960 C965 1.479 . S
C960 C970 1.465 . S
C961 C960 1.264 . S
C961 C963 1.339 . S
C961 H988 0.931 . S
C962 C963 1.395 . S
C962 C964 1.320 . S
C963 C961 1.339 . S
C963 C962 1.395 . S
C963 H989 0.929 . S
C964 C962 1.320 . S
C964 C965 1.405 . S
C964 H990 0.930 . S
C965 C960 1.479 . S
C965 C964 1.405 . S
C965 H991 0.931 . S
U966 O967 2.454 . S
U966 O968 2.458 . S
U966 C969 2.984 . S
U966 C970 2.847 . S
U966 C983 2.882 . S
U966 O984 2.441 . S
U966 O985 2.420 . S
U966 O986 2.455 . S
U966 O987 2.449 . S
O967 U966 2.454 . S
O967 C969 1.353 . S
O968 U966 2.458 . S
O968 C969 1.286 . S
C969 U966 2.984 . S
C969 O967 1.353 . S
C969 O968 1.286 . S
C969 C971 1.363 . S
C970 C960 1.465 . S
C970 U966 2.847 . S
C970 O984 1.249 . S
C970 O985 1.202 . S
C971 C969 1.363 . S
C971 C973 1.408 . S
C971 C976 1.342 . S
C972 C973 1.310 . S
C972 C975 1.461 . S
C972 H992 0.932 . S
C973 C971 1.408 . S
C973 C972 1.310 . S
C973 H993 0.930 . S
C974 C975 1.474 . S
C974 C976 1.285 . S
C974 H994 0.929 . S
C975 C972 1.461 . S
C975 C974 1.474 . S
C976 C971 1.342 . S
C976 C974 1.285 . S
C976 H995 0.930 . S
C977 C980 1.424 . S
C977 C982 1.245 . S
C977 C983 1.428 . S
C978 C981 1.260 . S
C978 C982 1.477 . S
C978 H996 0.932 . S
C979 C980 1.384 . S
C979 C981 1.479 . S
C979 H997 0.929 . S
C980 C977 1.424 . S
C980 C979 1.384 . S
C980 H998 0.928 . S
C981 C978 1.260 . S
C981 C979 1.479 . S
C982 C977 1.245 . S
C982 C978 1.477 . S
C982 H999 0.932 . S
C983 U966 2.882 . S
C983 C977 1.428 . S
C983 O986 1.301 . S
C983 O987 1.282 . S
O984 U966 2.441 . S
O984 C970 1.249 . S
O985 U966 2.420 . S
O985 C970 1.202 . S
O986 U966 2.455 . S
O986 C983 1.301 . S
O987 U966 2.449 . S
O987 C983 1.282 . S
H988 C961 0.931 . S
H989 C963 0.929 . S
H990 C964 0.930 . S
H991 C965 0.931 . S
H992 C972 0.932 . S
H993 C973 0.930 . S
H994 C974 0.929 . S
H995 C976 0.930 . S
H996 C978 0.932 . S
H997 C979 0.929 . S
H998 C980 0.928 . S
H999 C982 0.932 . S
C1000 C1001 1.264 . S
C1000 C1005 1.479 . S
C1000 C1010 1.465 . S
C1001 C1000 1.264 . S
C1001 C1003 1.339 . S
C1001 H1028 0.931 . S
C1002 C1003 1.395 . S
C1002 C1004 1.320 . S
C1003 C1001 1.339 . S
C1003 C1002 1.395 . S
C1003 H1029 0.929 . S
C1004 C1002 1.320 . S
C1004 C1005 1.405 . S
C1004 H1030 0.930 . S
C1005 C1000 1.479 . S
C1005 C1004 1.405 . S
C1005 H1031 0.931 . S
U1006 O1007 2.454 . S
U1006 O1008 2.458 . S
U1006 C1009 2.984 . S
U1006 C1010 2.847 . S
U1006 C1023 2.882 . S
U1006 O1024 2.441 . S
U1006 O1025 2.420 . S
U1006 O1026 2.455 . S
U1006 O1027 2.449 . S
O1007 U1006 2.454 . S
O1007 C1009 1.353 . S
O1008 U1006 2.458 . S
O1008 C1009 1.286 . S
C1009 U1006 2.984 . S
C1009 O1007 1.353 . S
C1009 O1008 1.286 . S
C1009 C1011 1.363 . S
C1010 C1000 1.465 . S
C1010 U1006 2.847 . S
C1010 O1024 1.249 . S
C1010 O1025 1.202 . S
C1011 C1009 1.363 . S
C1011 C1013 1.408 . S
C1011 C1016 1.342 . S
C1012 C1013 1.310 . S
C1012 C1015 1.461 . S
C1012 H1032 0.932 . S
C1013 C1011 1.408 . S
C1013 C1012 1.310 . S
C1013 H1033 0.930 . S
C1014 C1015 1.474 . S
C1014 C1016 1.285 . S
C1014 H1034 0.929 . S
C1015 C1012 1.461 . S
C1015 C1014 1.474 . S
C1016 C1011 1.342 . S
C1016 C1014 1.285 . S
C1016 H1035 0.930 . S
C1017 C1020 1.424 . S
C1017 C1022 1.245 . S
C1017 C1023 1.428 . S
C1018 C1021 1.260 . S
C1018 C1022 1.477 . S
C1018 H1036 0.932 . S
C1019 C1020 1.384 . S
C1019 C1021 1.479 . S
C1019 H1037 0.929 . S
C1020 C1017 1.424 . S
C1020 C1019 1.384 . S
C1020 H1038 0.928 . S
C1021 C1018 1.260 . S
C1021 C1019 1.479 . S
C1022 C1017 1.245 . S
C1022 C1018 1.477 . S
C1022 H1039 0.932 . S
C1023 U1006 2.882 . S
C1023 C1017 1.428 . S
C1023 O1026 1.301 . S
C1023 O1027 1.282 . S
O1024 U1006 2.441 . S
O1024 C1010 1.249 . S
O1025 U1006 2.420 . S
O1025 C1010 1.202 . S
O1026 U1006 2.455 . S
O1026 C1023 1.301 . S
O1027 U1006 2.449 . S
O1027 C1023 1.282 . S
H1028 C1001 0.931 . S
H1029 C1003 0.929 . S
H1030 C1004 0.930 . S
H1031 C1005 0.931 . S
H1032 C1012 0.932 . S
H1033 C1013 0.930 . S
H1034 C1014 0.929 . S
H1035 C1016 0.930 . S
H1036 C1018 0.932 . S
H1037 C1019 0.929 . S
H1038 C1020 0.928 . S
H1039 C1022 0.932 . S
C1040 C1041 1.264 . S
C1040 C1045 1.479 . S
C1040 C1050 1.465 . S
C1041 C1040 1.264 . S
C1041 C1043 1.339 . S
C1041 H1068 0.931 . S
C1042 C1043 1.395 . S
C1042 C1044 1.320 . S
C1043 C1041 1.339 . S
C1043 C1042 1.395 . S
C1043 H1069 0.929 . S
C1044 C1042 1.320 . S
C1044 C1045 1.405 . S
C1044 H1070 0.930 . S
C1045 C1040 1.479 . S
C1045 C1044 1.405 . S
C1045 H1071 0.931 . S
U1046 O1047 2.454 . S
U1046 O1048 2.458 . S
U1046 C1049 2.984 . S
U1046 C1050 2.847 . S
U1046 C1063 2.882 . S
U1046 O1064 2.441 . S
U1046 O1065 2.420 . S
U1046 O1066 2.455 . S
U1046 O1067 2.449 . S
O1047 U1046 2.454 . S
O1047 C1049 1.353 . S
O1048 U1046 2.458 . S
O1048 C1049 1.286 . S
C1049 U1046 2.984 . S
C1049 O1047 1.353 . S
C1049 O1048 1.286 . S
C1049 C1051 1.363 . S
C1050 C1040 1.465 . S
C1050 U1046 2.847 . S
C1050 O1064 1.249 . S
C1050 O1065 1.202 . S
C1051 C1049 1.363 . S
C1051 C1053 1.408 . S
C1051 C1056 1.342 . S
C1052 C1053 1.310 . S
C1052 C1055 1.461 . S
C1052 H1072 0.932 . S
C1053 C1051 1.408 . S
C1053 C1052 1.310 . S
C1053 H1073 0.930 . S
C1054 C1055 1.474 . S
C1054 C1056 1.285 . S
C1054 H1074 0.929 . S
C1055 C1052 1.461 . S
C1055 C1054 1.474 . S
C1056 C1051 1.342 . S
C1056 C1054 1.285 . S
C1056 H1075 0.930 . S
C1057 C1060 1.424 . S
C1057 C1062 1.245 . S
C1057 C1063 1.428 . S
C1058 C1061 1.260 . S
C1058 C1062 1.477 . S
C1058 H1076 0.932 . S
C1059 C1060 1.384 . S
C1059 C1061 1.479 . S
C1059 H1077 0.929 . S
C1060 C1057 1.424 . S
C1060 C1059 1.384 . S
C1060 H1078 0.928 . S
C1061 C1058 1.260 . S
C1061 C1059 1.479 . S
C1062 C1057 1.245 . S
C1062 C1058 1.477 . S
C1062 H1079 0.932 . S
C1063 U1046 2.882 . S
C1063 C1057 1.428 . S
C1063 O1066 1.301 . S
C1063 O1067 1.282 . S
O1064 U1046 2.441 . S
O1064 C1050 1.249 . S
O1065 U1046 2.420 . S
O1065 C1050 1.202 . S
O1066 U1046 2.455 . S
O1066 C1063 1.301 . S
O1067 U1046 2.449 . S
O1067 C1063 1.282 . S
H1068 C1041 0.931 . S
H1069 C1043 0.929 . S
H1070 C1044 0.930 . S
H1071 C1045 0.931 . S
H1072 C1052 0.932 . S
H1073 C1053 0.930 . S
H1074 C1054 0.929 . S
H1075 C1056 0.930 . S
H1076 C1058 0.932 . S
H1077 C1059 0.929 . S
H1078 C1060 0.928 . S
H1079 C1062 0.932 . S
C1080 C1081 1.264 . S
C1080 C1085 1.479 . S
C1080 C1090 1.465 . S
C1081 C1080 1.264 . S
C1081 C1083 1.339 . S
C1081 H1108 0.931 . S
C1082 C1083 1.395 . S
C1082 C1084 1.320 . S
C1083 C1081 1.339 . S
C1083 C1082 1.395 . S
C1083 H1109 0.929 . S
C1084 C1082 1.320 . S
C1084 C1085 1.405 . S
C1084 H1110 0.930 . S
C1085 C1080 1.479 . S
C1085 C1084 1.405 . S
C1085 H1111 0.931 . S
U1086 O1087 2.454 . S
U1086 O1088 2.458 . S
U1086 C1089 2.984 . S
U1086 C1090 2.847 . S
U1086 C1103 2.882 . S
U1086 O1104 2.441 . S
U1086 O1105 2.420 . S
U1086 O1106 2.455 . S
U1086 O1107 2.449 . S
O1087 U1086 2.454 . S
O1087 C1089 1.353 . S
O1088 U1086 2.458 . S
O1088 C1089 1.286 . S
C1089 U1086 2.984 . S
C1089 O1087 1.353 . S
C1089 O1088 1.286 . S
C1089 C1091 1.363 . S
C1090 C1080 1.465 . S
C1090 U1086 2.847 . S
C1090 O1104 1.249 . S
C1090 O1105 1.202 . S
C1091 C1089 1.363 . S
C1091 C1093 1.408 . S
C1091 C1096 1.342 . S
C1092 C1093 1.310 . S
C1092 C1095 1.461 . S
C1092 H1112 0.932 . S
C1093 C1091 1.408 . S
C1093 C1092 1.310 . S
C1093 H1113 0.930 . S
C1094 C1095 1.474 . S
C1094 C1096 1.285 . S
C1094 H1114 0.929 . S
C1095 C1092 1.461 . S
C1095 C1094 1.474 . S
C1096 C1091 1.342 . S
C1096 C1094 1.285 . S
C1096 H1115 0.930 . S
C1097 C1100 1.424 . S
C1097 C1102 1.245 . S
C1097 C1103 1.428 . S
C1098 C1101 1.260 . S
C1098 C1102 1.477 . S
C1098 H1116 0.932 . S
C1099 C1100 1.384 . S
C1099 C1101 1.479 . S
C1099 H1117 0.929 . S
C1100 C1097 1.424 . S
C1100 C1099 1.384 . S
C1100 H1118 0.928 . S
C1101 C1098 1.260 . S
C1101 C1099 1.479 . S
C1102 C1097 1.245 . S
C1102 C1098 1.477 . S
C1102 H1119 0.932 . S
C1103 U1086 2.882 . S
C1103 C1097 1.428 . S
C1103 O1106 1.301 . S
C1103 O1107 1.282 . S
O1104 U1086 2.441 . S
O1104 C1090 1.249 . S
O1105 U1086 2.420 . S
O1105 C1090 1.202 . S
O1106 U1086 2.455 . S
O1106 C1103 1.301 . S
O1107 U1086 2.449 . S
O1107 C1103 1.282 . S
H1108 C1081 0.931 . S
H1109 C1083 0.929 . S
H1110 C1084 0.930 . S
H1111 C1085 0.931 . S
H1112 C1092 0.932 . S
H1113 C1093 0.930 . S
H1114 C1094 0.929 . S
H1115 C1096 0.930 . S
H1116 C1098 0.932 . S
H1117 C1099 0.929 . S
H1118 C1100 0.928 . S
H1119 C1102 0.932 . S
C1120 C1121 1.264 . S
C1120 C1125 1.479 . S
C1120 C1130 1.465 . S
C1121 C1120 1.264 . S
C1121 C1123 1.339 . S
C1121 H1148 0.931 . S
C1122 C1123 1.395 . S
C1122 C1124 1.320 . S
C1123 C1121 1.339 . S
C1123 C1122 1.395 . S
C1123 H1149 0.929 . S
C1124 C1122 1.320 . S
C1124 C1125 1.405 . S
C1124 H1150 0.930 . S
C1125 C1120 1.479 . S
C1125 C1124 1.405 . S
C1125 H1151 0.931 . S
U1126 O1127 2.454 . S
U1126 O1128 2.458 . S
U1126 C1129 2.984 . S
U1126 C1130 2.847 . S
U1126 C1143 2.882 . S
U1126 O1144 2.441 . S
U1126 O1145 2.420 . S
U1126 O1146 2.455 . S
U1126 O1147 2.449 . S
O1127 U1126 2.454 . S
O1127 C1129 1.353 . S
O1128 U1126 2.458 . S
O1128 C1129 1.286 . S
C1129 U1126 2.984 . S
C1129 O1127 1.353 . S
C1129 O1128 1.286 . S
C1129 C1131 1.363 . S
C1130 C1120 1.465 . S
C1130 U1126 2.847 . S
C1130 O1144 1.249 . S
C1130 O1145 1.202 . S
C1131 C1129 1.363 . S
C1131 C1133 1.408 . S
C1131 C1136 1.342 . S
C1132 C1133 1.310 . S
C1132 C1135 1.461 . S
C1132 H1152 0.932 . S
C1133 C1131 1.408 . S
C1133 C1132 1.310 . S
C1133 H1153 0.930 . S
C1134 C1135 1.474 . S
C1134 C1136 1.285 . S
C1134 H1154 0.929 . S
C1135 C1132 1.461 . S
C1135 C1134 1.474 . S
C1136 C1131 1.342 . S
C1136 C1134 1.285 . S
C1136 H1155 0.930 . S
C1137 C1140 1.424 . S
C1137 C1142 1.245 . S
C1137 C1143 1.428 . S
C1138 C1141 1.260 . S
C1138 C1142 1.477 . S
C1138 H1156 0.932 . S
C1139 C1140 1.384 . S
C1139 C1141 1.479 . S
C1139 H1157 0.929 . S
C1140 C1137 1.424 . S
C1140 C1139 1.384 . S
C1140 H1158 0.928 . S
C1141 C1138 1.260 . S
C1141 C1139 1.479 . S
C1142 C1137 1.245 . S
C1142 C1138 1.477 . S
C1142 H1159 0.932 . S
C1143 U1126 2.882 . S
C1143 C1137 1.428 . S
C1143 O1146 1.301 . S
C1143 O1147 1.282 . S
O1144 U1126 2.441 . S
O1144 C1130 1.249 . S
O1145 U1126 2.420 . S
O1145 C1130 1.202 . S
O1146 U1126 2.455 . S
O1146 C1143 1.301 . S
O1147 U1126 2.449 . S
O1147 C1143 1.282 . S
H1148 C1121 0.931 . S
H1149 C1123 0.929 . S
H1150 C1124 0.930 . S
H1151 C1125 0.931 . S
H1152 C1132 0.932 . S
H1153 C1133 0.930 . S
H1154 C1134 0.929 . S
H1155 C1136 0.930 . S
H1156 C1138 0.932 . S
H1157 C1139 0.929 . S
H1158 C1140 0.928 . S
H1159 C1142 0.932 . S
C1160 C1161 1.264 . S
C1160 C1165 1.479 . S
C1160 C1170 1.465 . S
C1161 C1160 1.264 . S
C1161 C1163 1.339 . S
C1161 H1188 0.931 . S
C1162 C1163 1.395 . S
C1162 C1164 1.320 . S
C1163 C1161 1.339 . S
C1163 C1162 1.395 . S
C1163 H1189 0.929 . S
C1164 C1162 1.320 . S
C1164 C1165 1.405 . S
C1164 H1190 0.930 . S
C1165 C1160 1.479 . S
C1165 C1164 1.405 . S
C1165 H1191 0.931 . S
U1166 O1167 2.454 . S
U1166 O1168 2.458 . S
U1166 C1169 2.984 . S
U1166 C1170 2.847 . S
U1166 C1183 2.882 . S
U1166 O1184 2.441 . S
U1166 O1185 2.420 . S
U1166 O1186 2.455 . S
U1166 O1187 2.449 . S
O1167 U1166 2.454 . S
O1167 C1169 1.353 . S
O1168 U1166 2.458 . S
O1168 C1169 1.286 . S
C1169 U1166 2.984 . S
C1169 O1167 1.353 . S
C1169 O1168 1.286 . S
C1169 C1171 1.363 . S
C1170 C1160 1.465 . S
C1170 U1166 2.847 . S
C1170 O1184 1.249 . S
C1170 O1185 1.202 . S
C1171 C1169 1.363 . S
C1171 C1173 1.408 . S
C1171 C1176 1.342 . S
C1172 C1173 1.310 . S
C1172 C1175 1.461 . S
C1172 H1192 0.932 . S
C1173 C1171 1.408 . S
C1173 C1172 1.310 . S
C1173 H1193 0.930 . S
C1174 C1175 1.474 . S
C1174 C1176 1.285 . S
C1174 H1194 0.929 . S
C1175 C1172 1.461 . S
C1175 C1174 1.474 . S
C1176 C1171 1.342 . S
C1176 C1174 1.285 . S
C1176 H1195 0.930 . S
C1177 C1180 1.424 . S
C1177 C1182 1.245 . S
C1177 C1183 1.428 . S
C1178 C1181 1.260 . S
C1178 C1182 1.477 . S
C1178 H1196 0.932 . S
C1179 C1180 1.384 . S
C1179 C1181 1.479 . S
C1179 H1197 0.929 . S
C1180 C1177 1.424 . S
C1180 C1179 1.384 . S
C1180 H1198 0.928 . S
C1181 C1178 1.260 . S
C1181 C1179 1.479 . S
C1182 C1177 1.245 . S
C1182 C1178 1.477 . S
C1182 H1199 0.932 . S
C1183 U1166 2.882 . S
C1183 C1177 1.428 . S
C1183 O1186 1.301 . S
C1183 O1187 1.282 . S
O1184 U1166 2.441 . S
O1184 C1170 1.249 . S
O1185 U1166 2.420 . S
O1185 C1170 1.202 . S
O1186 U1166 2.455 . S
O1186 C1183 1.301 . S
O1187 U1166 2.449 . S
O1187 C1183 1.282 . S
H1188 C1161 0.931 . S
H1189 C1163 0.929 . S
H1190 C1164 0.930 . S
H1191 C1165 0.931 . S
H1192 C1172 0.932 . S
H1193 C1173 0.930 . S
H1194 C1174 0.929 . S
H1195 C1176 0.930 . S
H1196 C1178 0.932 . S
H1197 C1179 0.929 . S
H1198 C1180 0.928 . S
H1199 C1182 0.932 . S
C1200 C1201 1.264 . S
C1200 C1205 1.479 . S
C1200 C1210 1.465 . S
C1201 C1200 1.264 . S
C1201 C1203 1.339 . S
C1201 H1228 0.931 . S
C1202 C1203 1.395 . S
C1202 C1204 1.320 . S
C1203 C1201 1.339 . S
C1203 C1202 1.395 . S
C1203 H1229 0.929 . S
C1204 C1202 1.320 . S
C1204 C1205 1.405 . S
C1204 H1230 0.930 . S
C1205 C1200 1.479 . S
C1205 C1204 1.405 . S
C1205 H1231 0.931 . S
U1206 O1207 2.454 . S
U1206 O1208 2.458 . S
U1206 C1209 2.984 . S
U1206 C1210 2.847 . S
U1206 C1223 2.882 . S
U1206 O1224 2.441 . S
U1206 O1225 2.420 . S
U1206 O1226 2.455 . S
U1206 O1227 2.449 . S
O1207 U1206 2.454 . S
O1207 C1209 1.353 . S
O1208 U1206 2.458 . S
O1208 C1209 1.286 . S
C1209 U1206 2.984 . S
C1209 O1207 1.353 . S
C1209 O1208 1.286 . S
C1209 C1211 1.363 . S
C1210 C1200 1.465 . S
C1210 U1206 2.847 . S
C1210 O1224 1.249 . S
C1210 O1225 1.202 . S
C1211 C1209 1.363 . S
C1211 C1213 1.408 . S
C1211 C1216 1.342 . S
C1212 C1213 1.310 . S
C1212 C1215 1.461 . S
C1212 H1232 0.932 . S
C1213 C1211 1.408 . S
C1213 C1212 1.310 . S
C1213 H1233 0.930 . S
C1214 C1215 1.474 . S
C1214 C1216 1.285 . S
C1214 H1234 0.929 . S
C1215 C1212 1.461 . S
C1215 C1214 1.474 . S
C1216 C1211 1.342 . S
C1216 C1214 1.285 . S
C1216 H1235 0.930 . S
C1217 C1220 1.424 . S
C1217 C1222 1.245 . S
C1217 C1223 1.428 . S
C1218 C1221 1.260 . S
C1218 C1222 1.477 . S
C1218 H1236 0.932 . S
C1219 C1220 1.384 . S
C1219 C1221 1.479 . S
C1219 H1237 0.929 . S
C1220 C1217 1.424 . S
C1220 C1219 1.384 . S
C1220 H1238 0.928 . S
C1221 C1218 1.260 . S
C1221 C1219 1.479 . S
C1222 C1217 1.245 . S
C1222 C1218 1.477 . S
C1222 H1239 0.932 . S
C1223 U1206 2.882 . S
C1223 C1217 1.428 . S
C1223 O1226 1.301 . S
C1223 O1227 1.282 . S
O1224 U1206 2.441 . S
O1224 C1210 1.249 . S
O1225 U1206 2.420 . S
O1225 C1210 1.202 . S
O1226 U1206 2.455 . S
O1226 C1223 1.301 . S
O1227 U1206 2.449 . S
O1227 C1223 1.282 . S
H1228 C1201 0.931 . S
H1229 C1203 0.929 . S
H1230 C1204 0.930 . S
H1231 C1205 0.931 . S
H1232 C1212 0.932 . S
H1233 C1213 0.930 . S
H1234 C1214 0.929 . S
H1235 C1216 0.930 . S
H1236 C1218 0.932 . S
H1237 C1219 0.929 . S
H1238 C1220 0.928 . S
H1239 C1222 0.932 . S
C1240 C1241 1.264 . S
C1240 C1245 1.479 . S
C1240 C1250 1.465 . S
C1241 C1240 1.264 . S
C1241 C1243 1.339 . S
C1241 H1268 0.931 . S
C1242 C1243 1.395 . S
C1242 C1244 1.320 . S
C1243 C1241 1.339 . S
C1243 C1242 1.395 . S
C1243 H1269 0.929 . S
C1244 C1242 1.320 . S
C1244 C1245 1.405 . S
C1244 H1270 0.930 . S
C1245 C1240 1.479 . S
C1245 C1244 1.405 . S
C1245 H1271 0.931 . S
U1246 O1247 2.454 . S
U1246 O1248 2.458 . S
U1246 C1249 2.984 . S
U1246 C1250 2.847 . S
U1246 C1263 2.882 . S
U1246 O1264 2.441 . S
U1246 O1265 2.420 . S
U1246 O1266 2.455 . S
U1246 O1267 2.449 . S
O1247 U1246 2.454 . S
O1247 C1249 1.353 . S
O1248 U1246 2.458 . S
O1248 C1249 1.286 . S
C1249 U1246 2.984 . S
C1249 O1247 1.353 . S
C1249 O1248 1.286 . S
C1249 C1251 1.363 . S
C1250 C1240 1.465 . S
C1250 U1246 2.847 . S
C1250 O1264 1.249 . S
C1250 O1265 1.202 . S
C1251 C1249 1.363 . S
C1251 C1253 1.408 . S
C1251 C1256 1.342 . S
C1252 C1253 1.310 . S
C1252 C1255 1.461 . S
C1252 H1272 0.932 . S
C1253 C1251 1.408 . S
C1253 C1252 1.310 . S
C1253 H1273 0.930 . S
C1254 C1255 1.474 . S
C1254 C1256 1.285 . S
C1254 H1274 0.929 . S
C1255 C1252 1.461 . S
C1255 C1254 1.474 . S
C1256 C1251 1.342 . S
C1256 C1254 1.285 . S
C1256 H1275 0.930 . S
C1257 C1260 1.424 . S
C1257 C1262 1.245 . S
C1257 C1263 1.428 . S
C1258 C1261 1.260 . S
C1258 C1262 1.477 . S
C1258 H1276 0.932 . S
C1259 C1260 1.384 . S
C1259 C1261 1.479 . S
C1259 H1277 0.929 . S
C1260 C1257 1.424 . S
C1260 C1259 1.384 . S
C1260 H1278 0.928 . S
C1261 C1258 1.260 . S
C1261 C1259 1.479 . S
C1262 C1257 1.245 . S
C1262 C1258 1.477 . S
C1262 H1279 0.932 . S
C1263 U1246 2.882 . S
C1263 C1257 1.428 . S
C1263 O1266 1.301 . S
C1263 O1267 1.282 . S
O1264 U1246 2.441 . S
O1264 C1250 1.249 . S
O1265 U1246 2.420 . S
O1265 C1250 1.202 . S
O1266 U1246 2.455 . S
O1266 C1263 1.301 . S
O1267 U1246 2.449 . S
O1267 C1263 1.282 . S
H1268 C1241 0.931 . S
H1269 C1243 0.929 . S
H1270 C1244 0.930 . S
H1271 C1245 0.931 . S
H1272 C1252 0.932 . S
H1273 C1253 0.930 . S
H1274 C1254 0.929 . S
H1275 C1256 0.930 . S
H1276 C1258 0.932 . S
H1277 C1259 0.929 . S
H1278 C1260 0.928 . S
H1279 C1262 0.932 . S
C1280 C1281 1.264 . S
C1280 C1285 1.479 . S
C1280 C1290 1.465 . S
C1281 C1280 1.264 . S
C1281 C1283 1.339 . S
C1281 H1308 0.931 . S
C1282 C1283 1.395 . S
C1282 C1284 1.320 . S
C1283 C1281 1.339 . S
C1283 C1282 1.395 . S
C1283 H1309 0.929 . S
C1284 C1282 1.320 . S
C1284 C1285 1.405 . S
C1284 H1310 0.930 . S
C1285 C1280 1.479 . S
C1285 C1284 1.405 . S
C1285 H1311 0.931 . S
U1286 O1287 2.454 . S
U1286 O1288 2.458 . S
U1286 C1289 2.984 . S
U1286 C1290 2.847 . S
U1286 C1303 2.882 . S
U1286 O1304 2.441 . S
U1286 O1305 2.420 . S
U1286 O1306 2.455 . S
U1286 O1307 2.449 . S
O1287 U1286 2.454 . S
O1287 C1289 1.353 . S
O1288 U1286 2.458 . S
O1288 C1289 1.286 . S
C1289 U1286 2.984 . S
C1289 O1287 1.353 . S
C1289 O1288 1.286 . S
C1289 C1291 1.363 . S
C1290 C1280 1.465 . S
C1290 U1286 2.847 . S
C1290 O1304 1.249 . S
C1290 O1305 1.202 . S
C1291 C1289 1.363 . S
C1291 C1293 1.408 . S
C1291 C1296 1.342 . S
C1292 C1293 1.310 . S
C1292 C1295 1.461 . S
C1292 H1312 0.932 . S
C1293 C1291 1.408 . S
C1293 C1292 1.310 . S
C1293 H1313 0.930 . S
C1294 C1295 1.474 . S
C1294 C1296 1.285 . S
C1294 H1314 0.929 . S
C1295 C1292 1.461 . S
C1295 C1294 1.474 . S
C1296 C1291 1.342 . S
C1296 C1294 1.285 . S
C1296 H1315 0.930 . S
C1297 C1300 1.424 . S
C1297 C1302 1.245 . S
C1297 C1303 1.428 . S
C1298 C1301 1.260 . S
C1298 C1302 1.477 . S
C1298 H1316 0.932 . S
C1299 C1300 1.384 . S
C1299 C1301 1.479 . S
C1299 H1317 0.929 . S
C1300 C1297 1.424 . S
C1300 C1299 1.384 . S
C1300 H1318 0.928 . S
C1301 C1298 1.260 . S
C1301 C1299 1.479 . S
C1302 C1297 1.245 . S
C1302 C1298 1.477 . S
C1302 H1319 0.932 . S
C1303 U1286 2.882 . S
C1303 C1297 1.428 . S
C1303 O1306 1.301 . S
C1303 O1307 1.282 . S
O1304 U1286 2.441 . S
O1304 C1290 1.249 . S
O1305 U1286 2.420 . S
O1305 C1290 1.202 . S
O1306 U1286 2.455 . S
O1306 C1303 1.301 . S
O1307 U1286 2.449 . S
O1307 C1303 1.282 . S
H1308 C1281 0.931 . S
H1309 C1283 0.929 . S
H1310 C1284 0.930 . S
H1311 C1285 0.931 . S
H1312 C1292 0.932 . S
H1313 C1293 0.930 . S
H1314 C1294 0.929 . S
H1315 C1296 0.930 . S
H1316 C1298 0.932 . S
H1317 C1299 0.929 . S
H1318 C1300 0.928 . S
H1319 C1302 0.932 . S
C1320 C1321 1.264 . S
C1320 C1325 1.479 . S
C1320 C1330 1.465 . S
C1321 C1320 1.264 . S
C1321 C1323 1.339 . S
C1321 H1348 0.931 . S
C1322 C1323 1.395 . S
C1322 C1324 1.320 . S
C1323 C1321 1.339 . S
C1323 C1322 1.395 . S
C1323 H1349 0.929 . S
C1324 C1322 1.320 . S
C1324 C1325 1.405 . S
C1324 H1350 0.930 . S
C1325 C1320 1.479 . S
C1325 C1324 1.405 . S
C1325 H1351 0.931 . S
U1326 O1327 2.454 . S
U1326 O1328 2.458 . S
U1326 C1329 2.984 . S
U1326 C1330 2.847 . S
U1326 C1343 2.882 . S
U1326 O1344 2.441 . S
U1326 O1345 2.420 . S
U1326 O1346 2.455 . S
U1326 O1347 2.449 . S
O1327 U1326 2.454 . S
O1327 C1329 1.353 . S
O1328 U1326 2.458 . S
O1328 C1329 1.286 . S
C1329 U1326 2.984 . S
C1329 O1327 1.353 . S
C1329 O1328 1.286 . S
C1329 C1331 1.363 . S
C1330 C1320 1.465 . S
C1330 U1326 2.847 . S
C1330 O1344 1.249 . S
C1330 O1345 1.202 . S
C1331 C1329 1.363 . S
C1331 C1333 1.408 . S
C1331 C1336 1.342 . S
C1332 C1333 1.310 . S
C1332 C1335 1.461 . S
C1332 H1352 0.932 . S
C1333 C1331 1.408 . S
C1333 C1332 1.310 . S
C1333 H1353 0.930 . S
C1334 C1335 1.474 . S
C1334 C1336 1.285 . S
C1334 H1354 0.929 . S
C1335 C1332 1.461 . S
C1335 C1334 1.474 . S
C1336 C1331 1.342 . S
C1336 C1334 1.285 . S
C1336 H1355 0.930 . S
C1337 C1340 1.424 . S
C1337 C1342 1.245 . S
C1337 C1343 1.428 . S
C1338 C1341 1.260 . S
C1338 C1342 1.477 . S
C1338 H1356 0.932 . S
C1339 C1340 1.384 . S
C1339 C1341 1.479 . S
C1339 H1357 0.929 . S
C1340 C1337 1.424 . S
C1340 C1339 1.384 . S
C1340 H1358 0.928 . S
C1341 C1338 1.260 . S
C1341 C1339 1.479 . S
C1342 C1337 1.245 . S
C1342 C1338 1.477 . S
C1342 H1359 0.932 . S
C1343 U1326 2.882 . S
C1343 C1337 1.428 . S
C1343 O1346 1.301 . S
C1343 O1347 1.282 . S
O1344 U1326 2.441 . S
O1344 C1330 1.249 . S
O1345 U1326 2.420 . S
O1345 C1330 1.202 . S
O1346 U1326 2.455 . S
O1346 C1343 1.301 . S
O1347 U1326 2.449 . S
O1347 C1343 1.282 . S
H1348 C1321 0.931 . S
H1349 C1323 0.929 . S
H1350 C1324 0.930 . S
H1351 C1325 0.931 . S
H1352 C1332 0.932 . S
H1353 C1333 0.930 . S
H1354 C1334 0.929 . S
H1355 C1336 0.930 . S
H1356 C1338 0.932 . S
H1357 C1339 0.929 . S
H1358 C1340 0.928 . S
H1359 C1342 0.932 . S
C1360 C1361 1.264 . S
C1360 C1365 1.479 . S
C1360 C1370 1.465 . S
C1361 C1360 1.264 . S
C1361 C1363 1.339 . S
C1361 H1388 0.931 . S
C1362 C1363 1.395 . S
C1362 C1364 1.320 . S
C1363 C1361 1.339 . S
C1363 C1362 1.395 . S
C1363 H1389 0.929 . S
C1364 C1362 1.320 . S
C1364 C1365 1.405 . S
C1364 H1390 0.930 . S
C1365 C1360 1.479 . S
C1365 C1364 1.405 . S
C1365 H1391 0.931 . S
U1366 O1367 2.454 . S
U1366 O1368 2.458 . S
U1366 C1369 2.984 . S
U1366 C1370 2.847 . S
U1366 C1383 2.882 . S
U1366 O1384 2.441 . S
U1366 O1385 2.420 . S
U1366 O1386 2.455 . S
U1366 O1387 2.449 . S
O1367 U1366 2.454 . S
O1367 C1369 1.353 . S
O1368 U1366 2.458 . S
O1368 C1369 1.286 . S
C1369 U1366 2.984 . S
C1369 O1367 1.353 . S
C1369 O1368 1.286 . S
C1369 C1371 1.363 . S
C1370 C1360 1.465 . S
C1370 U1366 2.847 . S
C1370 O1384 1.249 . S
C1370 O1385 1.202 . S
C1371 C1369 1.363 . S
C1371 C1373 1.408 . S
C1371 C1376 1.342 . S
C1372 C1373 1.310 . S
C1372 C1375 1.461 . S
C1372 H1392 0.932 . S
C1373 C1371 1.408 . S
C1373 C1372 1.310 . S
C1373 H1393 0.930 . S
C1374 C1375 1.474 . S
C1374 C1376 1.285 . S
C1374 H1394 0.929 . S
C1375 C1372 1.461 . S
C1375 C1374 1.474 . S
C1376 C1371 1.342 . S
C1376 C1374 1.285 . S
C1376 H1395 0.930 . S
C1377 C1380 1.424 . S
C1377 C1382 1.245 . S
C1377 C1383 1.428 . S
C1378 C1381 1.260 . S
C1378 C1382 1.477 . S
C1378 H1396 0.932 . S
C1379 C1380 1.384 . S
C1379 C1381 1.479 . S
C1379 H1397 0.929 . S
C1380 C1377 1.424 . S
C1380 C1379 1.384 . S
C1380 H1398 0.928 . S
C1381 C1378 1.260 . S
C1381 C1379 1.479 . S
C1382 C1377 1.245 . S
C1382 C1378 1.477 . S
C1382 H1399 0.932 . S
C1383 U1366 2.882 . S
C1383 C1377 1.428 . S
C1383 O1386 1.301 . S
C1383 O1387 1.282 . S
O1384 U1366 2.441 . S
O1384 C1370 1.249 . S
O1385 U1366 2.420 . S
O1385 C1370 1.202 . S
O1386 U1366 2.455 . S
O1386 C1383 1.301 . S
O1387 U1366 2.449 . S
O1387 C1383 1.282 . S
H1388 C1361 0.931 . S
H1389 C1363 0.929 . S
H1390 C1364 0.930 . S
H1391 C1365 0.931 . S
H1392 C1372 0.932 . S
H1393 C1373 0.930 . S
H1394 C1374 0.929 . S
H1395 C1376 0.930 . S
H1396 C1378 0.932 . S
H1397 C1379 0.929 . S
H1398 C1380 0.928 . S
H1399 C1382 0.932 . S
C1400 C1401 1.264 . S
C1400 C1405 1.479 . S
C1400 C1410 1.465 . S
C1401 C1400 1.264 . S
C1401 C1403 1.339 . S
C1401 H1428 0.931 . S
C1402 C1403 1.395 . S
C1402 C1404 1.320 . S
C1403 C1401 1.339 . S
C1403 C1402 1.395 . S
C1403 H1429 0.929 . S
C1404 C1402 1.320 . S
C1404 C1405 1.405 . S
C1404 H1430 0.930 . S
C1405 C1400 1.479 . S
C1405 C1404 1.405 . S
C1405 H1431 0.931 . S
U1406 O1407 2.454 . S
U1406 O1408 2.458 . S
U1406 C1409 2.984 . S
U1406 C1410 2.847 . S
U1406 C1423 2.882 . S
U1406 O1424 2.441 . S
U1406 O1425 2.420 . S
U1406 O1426 2.455 . S
U1406 O1427 2.449 . S
O1407 U1406 2.454 . S
O1407 C1409 1.353 . S
O1408 U1406 2.458 . S
O1408 C1409 1.286 . S
C1409 U1406 2.984 . S
C1409 O1407 1.353 . S
C1409 O1408 1.286 . S
C1409 C1411 1.363 . S
C1410 C1400 1.465 . S
C1410 U1406 2.847 . S
C1410 O1424 1.249 . S
C1410 O1425 1.202 . S
C1411 C1409 1.363 . S
C1411 C1413 1.408 . S
C1411 C1416 1.342 . S
C1412 C1413 1.310 . S
C1412 C1415 1.461 . S
C1412 H1432 0.932 . S
C1413 C1411 1.408 . S
C1413 C1412 1.310 . S
C1413 H1433 0.930 . S
C1414 C1415 1.474 . S
C1414 C1416 1.285 . S
C1414 H1434 0.929 . S
C1415 C1412 1.461 . S
C1415 C1414 1.474 . S
C1416 C1411 1.342 . S
C1416 C1414 1.285 . S
C1416 H1435 0.930 . S
C1417 C1420 1.424 . S
C1417 C1422 1.245 . S
C1417 C1423 1.428 . S
C1418 C1421 1.260 . S
C1418 C1422 1.477 . S
C1418 H1436 0.932 . S
C1419 C1420 1.384 . S
C1419 C1421 1.479 . S
C1419 H1437 0.929 . S
C1420 C1417 1.424 . S
C1420 C1419 1.384 . S
C1420 H1438 0.928 . S
C1421 C1418 1.260 . S
C1421 C1419 1.479 . S
C1422 C1417 1.245 . S
C1422 C1418 1.477 . S
C1422 H1439 0.932 . S
C1423 U1406 2.882 . S
C1423 C1417 1.428 . S
C1423 O1426 1.301 . S
C1423 O1427 1.282 . S
O1424 U1406 2.441 . S
O1424 C1410 1.249 . S
O1425 U1406 2.420 . S
O1425 C1410 1.202 . S
O1426 U1406 2.455 . S
O1426 C1423 1.301 . S
O1427 U1406 2.449 . S
O1427 C1423 1.282 . S
H1428 C1401 0.931 . S
H1429 C1403 0.929 . S
H1430 C1404 0.930 . S
H1431 C1405 0.931 . S
H1432 C1412 0.932 . S
H1433 C1413 0.930 . S
H1434 C1414 0.929 . S
H1435 C1416 0.930 . S
H1436 C1418 0.932 . S
H1437 C1419 0.929 . S
H1438 C1420 0.928 . S
H1439 C1422 0.932 . S
C1440 C1441 1.264 . S
C1440 C1445 1.479 . S
C1440 C1450 1.465 . S
C1441 C1440 1.264 . S
C1441 C1443 1.339 . S
C1441 H1468 0.931 . S
C1442 C1443 1.395 . S
C1442 C1444 1.320 . S
C1443 C1441 1.339 . S
C1443 C1442 1.395 . S
C1443 H1469 0.929 . S
C1444 C1442 1.320 . S
C1444 C1445 1.405 . S
C1444 H1470 0.930 . S
C1445 C1440 1.479 . S
C1445 C1444 1.405 . S
C1445 H1471 0.931 . S
U1446 O1447 2.454 . S
U1446 O1448 2.458 . S
U1446 C1449 2.984 . S
U1446 C1450 2.847 . S
U1446 C1463 2.882 . S
U1446 O1464 2.441 . S
U1446 O1465 2.420 . S
U1446 O1466 2.455 . S
U1446 O1467 2.449 . S
O1447 U1446 2.454 . S
O1447 C1449 1.353 . S
O1448 U1446 2.458 . S
O1448 C1449 1.286 . S
C1449 U1446 2.984 . S
C1449 O1447 1.353 . S
C1449 O1448 1.286 . S
C1449 C1451 1.363 . S
C1450 C1440 1.465 . S
C1450 U1446 2.847 . S
C1450 O1464 1.249 . S
C1450 O1465 1.202 . S
C1451 C1449 1.363 . S
C1451 C1453 1.408 . S
C1451 C1456 1.342 . S
C1452 C1453 1.310 . S
C1452 C1455 1.461 . S
C1452 H1472 0.932 . S
C1453 C1451 1.408 . S
C1453 C1452 1.310 . S
C1453 H1473 0.930 . S
C1454 C1455 1.474 . S
C1454 C1456 1.285 . S
C1454 H1474 0.929 . S
C1455 C1452 1.461 . S
C1455 C1454 1.474 . S
C1456 C1451 1.342 . S
C1456 C1454 1.285 . S
C1456 H1475 0.930 . S
C1457 C1460 1.424 . S
C1457 C1462 1.245 . S
C1457 C1463 1.428 . S
C1458 C1461 1.260 . S
C1458 C1462 1.477 . S
C1458 H1476 0.932 . S
C1459 C1460 1.384 . S
C1459 C1461 1.479 . S
C1459 H1477 0.929 . S
C1460 C1457 1.424 . S
C1460 C1459 1.384 . S
C1460 H1478 0.928 . S
C1461 C1458 1.260 . S
C1461 C1459 1.479 . S
C1462 C1457 1.245 . S
C1462 C1458 1.477 . S
C1462 H1479 0.932 . S
C1463 U1446 2.882 . S
C1463 C1457 1.428 . S
C1463 O1466 1.301 . S
C1463 O1467 1.282 . S
O1464 U1446 2.441 . S
O1464 C1450 1.249 . S
O1465 U1446 2.420 . S
O1465 C1450 1.202 . S
O1466 U1446 2.455 . S
O1466 C1463 1.301 . S
O1467 U1446 2.449 . S
O1467 C1463 1.282 . S
H1468 C1441 0.931 . S
H1469 C1443 0.929 . S
H1470 C1444 0.930 . S
H1471 C1445 0.931 . S
H1472 C1452 0.932 . S
H1473 C1453 0.930 . S
H1474 C1454 0.929 . S
H1475 C1456 0.930 . S
H1476 C1458 0.932 . S
H1477 C1459 0.929 . S
H1478 C1460 0.928 . S
H1479 C1462 0.932 . S
C1480 C1481 1.264 . S
C1480 C1485 1.479 . S
C1480 C1490 1.465 . S
C1481 C1480 1.264 . S
C1481 C1483 1.339 . S
C1481 H1508 0.931 . S
C1482 C1483 1.395 . S
C1482 C1484 1.320 . S
C1483 C1481 1.339 . S
C1483 C1482 1.395 . S
C1483 H1509 0.929 . S
C1484 C1482 1.320 . S
C1484 C1485 1.405 . S
C1484 H1510 0.930 . S
C1485 C1480 1.479 . S
C1485 C1484 1.405 . S
C1485 H1511 0.931 . S
U1486 O1487 2.454 . S
U1486 O1488 2.458 . S
U1486 C1489 2.984 . S
U1486 C1490 2.847 . S
U1486 C1503 2.882 . S
U1486 O1504 2.441 . S
U1486 O1505 2.420 . S
U1486 O1506 2.455 . S
U1486 O1507 2.449 . S
O1487 U1486 2.454 . S
O1487 C1489 1.353 . S
O1488 U1486 2.458 . S
O1488 C1489 1.286 . S
C1489 U1486 2.984 . S
C1489 O1487 1.353 . S
C1489 O1488 1.286 . S
C1489 C1491 1.363 . S
C1490 C1480 1.465 . S
C1490 U1486 2.847 . S
C1490 O1504 1.249 . S
C1490 O1505 1.202 . S
C1491 C1489 1.363 . S
C1491 C1493 1.408 . S
C1491 C1496 1.342 . S
C1492 C1493 1.310 . S
C1492 C1495 1.461 . S
C1492 H1512 0.932 . S
C1493 C1491 1.408 . S
C1493 C1492 1.310 . S
C1493 H1513 0.930 . S
C1494 C1495 1.474 . S
C1494 C1496 1.285 . S
C1494 H1514 0.929 . S
C1495 C1492 1.461 . S
C1495 C1494 1.474 . S
C1496 C1491 1.342 . S
C1496 C1494 1.285 . S
C1496 H1515 0.930 . S
C1497 C1500 1.424 . S
C1497 C1502 1.245 . S
C1497 C1503 1.428 . S
C1498 C1501 1.260 . S
C1498 C1502 1.477 . S
C1498 H1516 0.932 . S
C1499 C1500 1.384 . S
C1499 C1501 1.479 . S
C1499 H1517 0.929 . S
C1500 C1497 1.424 . S
C1500 C1499 1.384 . S
C1500 H1518 0.928 . S
C1501 C1498 1.260 . S
C1501 C1499 1.479 . S
C1502 C1497 1.245 . S
C1502 C1498 1.477 . S
C1502 H1519 0.932 . S
C1503 U1486 2.882 . S
C1503 C1497 1.428 . S
C1503 O1506 1.301 . S
C1503 O1507 1.282 . S
O1504 U1486 2.441 . S
O1504 C1490 1.249 . S
O1505 U1486 2.420 . S
O1505 C1490 1.202 . S
O1506 U1486 2.455 . S
O1506 C1503 1.301 . S
O1507 U1486 2.449 . S
O1507 C1503 1.282 . S
H1508 C1481 0.931 . S
H1509 C1483 0.929 . S
H1510 C1484 0.930 . S
H1511 C1485 0.931 . S
H1512 C1492 0.932 . S
H1513 C1493 0.930 . S
H1514 C1494 0.929 . S
H1515 C1496 0.930 . S
H1516 C1498 0.932 . S
H1517 C1499 0.929 . S
H1518 C1500 0.928 . S
H1519 C1502 0.932 . S
C1520 C1521 1.264 . S
C1520 C1525 1.479 . S
C1520 C1530 1.465 . S
C1521 C1520 1.264 . S
C1521 C1523 1.339 . S
C1521 H1548 0.931 . S
C1522 C1523 1.395 . S
C1522 C1524 1.320 . S
C1523 C1521 1.339 . S
C1523 C1522 1.395 . S
C1523 H1549 0.929 . S
C1524 C1522 1.320 . S
C1524 C1525 1.405 . S
C1524 H1550 0.930 . S
C1525 C1520 1.479 . S
C1525 C1524 1.405 . S
C1525 H1551 0.931 . S
U1526 O1527 2.454 . S
U1526 O1528 2.458 . S
U1526 C1529 2.984 . S
U1526 C1530 2.847 . S
U1526 C1543 2.882 . S
U1526 O1544 2.441 . S
U1526 O1545 2.420 . S
U1526 O1546 2.455 . S
U1526 O1547 2.449 . S
O1527 U1526 2.454 . S
O1527 C1529 1.353 . S
O1528 U1526 2.458 . S
O1528 C1529 1.286 . S
C1529 U1526 2.984 . S
C1529 O1527 1.353 . S
C1529 O1528 1.286 . S
C1529 C1531 1.363 . S
C1530 C1520 1.465 . S
C1530 U1526 2.847 . S
C1530 O1544 1.249 . S
C1530 O1545 1.202 . S
C1531 C1529 1.363 . S
C1531 C1533 1.408 . S
C1531 C1536 1.342 . S
C1532 C1533 1.310 . S
C1532 C1535 1.461 . S
C1532 H1552 0.932 . S
C1533 C1531 1.408 . S
C1533 C1532 1.310 . S
C1533 H1553 0.930 . S
C1534 C1535 1.474 . S
C1534 C1536 1.285 . S
C1534 H1554 0.929 . S
C1535 C1532 1.461 . S
C1535 C1534 1.474 . S
C1536 C1531 1.342 . S
C1536 C1534 1.285 . S
C1536 H1555 0.930 . S
C1537 C1540 1.424 . S
C1537 C1542 1.245 . S
C1537 C1543 1.428 . S
C1538 C1541 1.260 . S
C1538 C1542 1.477 . S
C1538 H1556 0.932 . S
C1539 C1540 1.384 . S
C1539 C1541 1.479 . S
C1539 H1557 0.929 . S
C1540 C1537 1.424 . S
C1540 C1539 1.384 . S
C1540 H1558 0.928 . S
C1541 C1538 1.260 . S
C1541 C1539 1.479 . S
C1542 C1537 1.245 . S
C1542 C1538 1.477 . S
C1542 H1559 0.932 . S
C1543 U1526 2.882 . S
C1543 C1537 1.428 . S
C1543 O1546 1.301 . S
C1543 O1547 1.282 . S
O1544 U1526 2.441 . S
O1544 C1530 1.249 . S
O1545 U1526 2.420 . S
O1545 C1530 1.202 . S
O1546 U1526 2.455 . S
O1546 C1543 1.301 . S
O1547 U1526 2.449 . S
O1547 C1543 1.282 . S
H1548 C1521 0.931 . S
H1549 C1523 0.929 . S
H1550 C1524 0.930 . S
H1551 C1525 0.931 . S
H1552 C1532 0.932 . S
H1553 C1533 0.930 . S
H1554 C1534 0.929 . S
H1555 C1536 0.930 . S
H1556 C1538 0.932 . S
H1557 C1539 0.929 . S
H1558 C1540 0.928 . S
H1559 C1542 0.932 . S
C1560 C1561 1.264 . S
C1560 C1565 1.479 . S
C1560 C1570 1.465 . S
C1561 C1560 1.264 . S
C1561 C1563 1.339 . S
C1561 H1588 0.931 . S
C1562 C1563 1.395 . S
C1562 C1564 1.320 . S
C1563 C1561 1.339 . S
C1563 C1562 1.395 . S
C1563 H1589 0.929 . S
C1564 C1562 1.320 . S
C1564 C1565 1.405 . S
C1564 H1590 0.930 . S
C1565 C1560 1.479 . S
C1565 C1564 1.405 . S
C1565 H1591 0.931 . S
U1566 O1567 2.454 . S
U1566 O1568 2.458 . S
U1566 C1569 2.984 . S
U1566 C1570 2.847 . S
U1566 C1583 2.882 . S
U1566 O1584 2.441 . S
U1566 O1585 2.420 . S
U1566 O1586 2.455 . S
U1566 O1587 2.449 . S
O1567 U1566 2.454 . S
O1567 C1569 1.353 . S
O1568 U1566 2.458 . S
O1568 C1569 1.286 . S
C1569 U1566 2.984 . S
C1569 O1567 1.353 . S
C1569 O1568 1.286 . S
C1569 C1571 1.363 . S
C1570 C1560 1.465 . S
C1570 U1566 2.847 . S
C1570 O1584 1.249 . S
C1570 O1585 1.202 . S
C1571 C1569 1.363 . S
C1571 C1573 1.408 . S
C1571 C1576 1.342 . S
C1572 C1573 1.310 . S
C1572 C1575 1.461 . S
C1572 H1592 0.932 . S
C1573 C1571 1.408 . S
C1573 C1572 1.310 . S
C1573 H1593 0.930 . S
C1574 C1575 1.474 . S
C1574 C1576 1.285 . S
C1574 H1594 0.929 . S
C1575 C1572 1.461 . S
C1575 C1574 1.474 . S
C1576 C1571 1.342 . S
C1576 C1574 1.285 . S
C1576 H1595 0.930 . S
C1577 C1580 1.424 . S
C1577 C1582 1.245 . S
C1577 C1583 1.428 . S
C1578 C1581 1.260 . S
C1578 C1582 1.477 . S
C1578 H1596 0.932 . S
C1579 C1580 1.384 . S
C1579 C1581 1.479 . S
C1579 H1597 0.929 . S
C1580 C1577 1.424 . S
C1580 C1579 1.384 . S
C1580 H1598 0.928 . S
C1581 C1578 1.260 . S
C1581 C1579 1.479 . S
C1582 C1577 1.245 . S
C1582 C1578 1.477 . S
C1582 H1599 0.932 . S
C1583 U1566 2.882 . S
C1583 C1577 1.428 . S
C1583 O1586 1.301 . S
C1583 O1587 1.282 . S
O1584 U1566 2.441 . S
O1584 C1570 1.249 . S
O1585 U1566 2.420 . S
O1585 C1570 1.202 . S
O1586 U1566 2.455 . S
O1586 C1583 1.301 . S
O1587 U1566 2.449 . S
O1587 C1583 1.282 . S
H1588 C1561 0.931 . S
H1589 C1563 0.929 . S
H1590 C1564 0.930 . S
H1591 C1565 0.931 . S
H1592 C1572 0.932 . S
H1593 C1573 0.930 . S
H1594 C1574 0.929 . S
H1595 C1576 0.930 . S
H1596 C1578 0.932 . S
H1597 C1579 0.929 . S
H1598 C1580 0.928 . S
H1599 C1582 0.932 . S
C1600 C1601 1.264 . S
C1600 C1605 1.479 . S
C1600 C1610 1.465 . S
C1601 C1600 1.264 . S
C1601 C1603 1.339 . S
C1601 H1628 0.931 . S
C1602 C1603 1.395 . S
C1602 C1604 1.320 . S
C1603 C1601 1.339 . S
C1603 C1602 1.395 . S
C1603 H1629 0.929 . S
C1604 C1602 1.320 . S
C1604 C1605 1.405 . S
C1604 H1630 0.930 . S
C1605 C1600 1.479 . S
C1605 C1604 1.405 . S
C1605 H1631 0.931 . S
U1606 O1607 2.454 . S
U1606 O1608 2.458 . S
U1606 C1609 2.984 . S
U1606 C1610 2.847 . S
U1606 C1623 2.882 . S
U1606 O1624 2.441 . S
U1606 O1625 2.420 . S
U1606 O1626 2.455 . S
U1606 O1627 2.449 . S
O1607 U1606 2.454 . S
O1607 C1609 1.353 . S
O1608 U1606 2.458 . S
O1608 C1609 1.286 . S
C1609 U1606 2.984 . S
C1609 O1607 1.353 . S
C1609 O1608 1.286 . S
C1609 C1611 1.363 . S
C1610 C1600 1.465 . S
C1610 U1606 2.847 . S
C1610 O1624 1.249 . S
C1610 O1625 1.202 . S
C1611 C1609 1.363 . S
C1611 C1613 1.408 . S
C1611 C1616 1.342 . S
C1612 C1613 1.310 . S
C1612 C1615 1.461 . S
C1612 H1632 0.932 . S
C1613 C1611 1.408 . S
C1613 C1612 1.310 . S
C1613 H1633 0.930 . S
C1614 C1615 1.474 . S
C1614 C1616 1.285 . S
C1614 H1634 0.929 . S
C1615 C1612 1.461 . S
C1615 C1614 1.474 . S
C1616 C1611 1.342 . S
C1616 C1614 1.285 . S
C1616 H1635 0.930 . S
C1617 C1620 1.424 . S
C1617 C1622 1.245 . S
C1617 C1623 1.428 . S
C1618 C1621 1.260 . S
C1618 C1622 1.477 . S
C1618 H1636 0.932 . S
C1619 C1620 1.384 . S
C1619 C1621 1.479 . S
C1619 H1637 0.929 . S
C1620 C1617 1.424 . S
C1620 C1619 1.384 . S
C1620 H1638 0.928 . S
C1621 C1618 1.260 . S
C1621 C1619 1.479 . S
C1622 C1617 1.245 . S
C1622 C1618 1.477 . S
C1622 H1639 0.932 . S
C1623 U1606 2.882 . S
C1623 C1617 1.428 . S
C1623 O1626 1.301 . S
C1623 O1627 1.282 . S
O1624 U1606 2.441 . S
O1624 C1610 1.249 . S
O1625 U1606 2.420 . S
O1625 C1610 1.202 . S
O1626 U1606 2.455 . S
O1626 C1623 1.301 . S
O1627 U1606 2.449 . S
O1627 C1623 1.282 . S
H1628 C1601 0.931 . S
H1629 C1603 0.929 . S
H1630 C1604 0.930 . S
H1631 C1605 0.931 . S
H1632 C1612 0.932 . S
H1633 C1613 0.930 . S
H1634 C1614 0.929 . S
H1635 C1616 0.930 . S
H1636 C1618 0.932 . S
H1637 C1619 0.929 . S
H1638 C1620 0.928 . S
H1639 C1622 0.932 . S
C1640 C1641 1.264 . S
C1640 C1645 1.479 . S
C1640 C1650 1.465 . S
C1641 C1640 1.264 . S
C1641 C1643 1.339 . S
C1641 H1668 0.931 . S
C1642 C1643 1.395 . S
C1642 C1644 1.320 . S
C1643 C1641 1.339 . S
C1643 C1642 1.395 . S
C1643 H1669 0.929 . S
C1644 C1642 1.320 . S
C1644 C1645 1.405 . S
C1644 H1670 0.930 . S
C1645 C1640 1.479 . S
C1645 C1644 1.405 . S
C1645 H1671 0.931 . S
U1646 O1647 2.454 . S
U1646 O1648 2.458 . S
U1646 C1649 2.984 . S
U1646 C1650 2.847 . S
U1646 C1663 2.882 . S
U1646 O1664 2.441 . S
U1646 O1665 2.420 . S
U1646 O1666 2.455 . S
U1646 O1667 2.449 . S
O1647 U1646 2.454 . S
O1647 C1649 1.353 . S
O1648 U1646 2.458 . S
O1648 C1649 1.286 . S
C1649 U1646 2.984 . S
C1649 O1647 1.353 . S
C1649 O1648 1.286 . S
C1649 C1651 1.363 . S
C1650 C1640 1.465 . S
C1650 U1646 2.847 . S
C1650 O1664 1.249 . S
C1650 O1665 1.202 . S
C1651 C1649 1.363 . S
C1651 C1653 1.408 . S
C1651 C1656 1.342 . S
C1652 C1653 1.310 . S
C1652 C1655 1.461 . S
C1652 H1672 0.932 . S
C1653 C1651 1.408 . S
C1653 C1652 1.310 . S
C1653 H1673 0.930 . S
C1654 C1655 1.474 . S
C1654 C1656 1.285 . S
C1654 H1674 0.929 . S
C1655 C1652 1.461 . S
C1655 C1654 1.474 . S
C1656 C1651 1.342 . S
C1656 C1654 1.285 . S
C1656 H1675 0.930 . S
C1657 C1660 1.424 . S
C1657 C1662 1.245 . S
C1657 C1663 1.428 . S
C1658 C1661 1.260 . S
C1658 C1662 1.477 . S
C1658 H1676 0.932 . S
C1659 C1660 1.384 . S
C1659 C1661 1.479 . S
C1659 H1677 0.929 . S
C1660 C1657 1.424 . S
C1660 C1659 1.384 . S
C1660 H1678 0.928 . S
C1661 C1658 1.260 . S
C1661 C1659 1.479 . S
C1662 C1657 1.245 . S
C1662 C1658 1.477 . S
C1662 H1679 0.932 . S
C1663 U1646 2.882 . S
C1663 C1657 1.428 . S
C1663 O1666 1.301 . S
C1663 O1667 1.282 . S
O1664 U1646 2.441 . S
O1664 C1650 1.249 . S
O1665 U1646 2.420 . S
O1665 C1650 1.202 . S
O1666 U1646 2.455 . S
O1666 C1663 1.301 . S
O1667 U1646 2.449 . S
O1667 C1663 1.282 . S
H1668 C1641 0.931 . S
H1669 C1643 0.929 . S
H1670 C1644 0.930 . S
H1671 C1645 0.931 . S
H1672 C1652 0.932 . S
H1673 C1653 0.930 . S
H1674 C1654 0.929 . S
H1675 C1656 0.930 . S
H1676 C1658 0.932 . S
H1677 C1659 0.929 . S
H1678 C1660 0.928 . S
H1679 C1662 0.932 . S
C1680 C1681 1.264 . S
C1680 C1685 1.479 . S
C1680 C1690 1.465 . S
C1681 C1680 1.264 . S
C1681 C1683 1.339 . S
C1681 H1708 0.931 . S
C1682 C1683 1.395 . S
C1682 C1684 1.320 . S
C1683 C1681 1.339 . S
C1683 C1682 1.395 . S
C1683 H1709 0.929 . S
C1684 C1682 1.320 . S
C1684 C1685 1.405 . S
C1684 H1710 0.930 . S
C1685 C1680 1.479 . S
C1685 C1684 1.405 . S
C1685 H1711 0.931 . S
U1686 O1687 2.454 . S
U1686 O1688 2.458 . S
U1686 C1689 2.984 . S
U1686 C1690 2.847 . S
U1686 C1703 2.882 . S
U1686 O1704 2.441 . S
U1686 O1705 2.420 . S
U1686 O1706 2.455 . S
U1686 O1707 2.449 . S
O1687 U1686 2.454 . S
O1687 C1689 1.353 . S
O1688 U1686 2.458 . S
O1688 C1689 1.286 . S
C1689 U1686 2.984 . S
C1689 O1687 1.353 . S
C1689 O1688 1.286 . S
C1689 C1691 1.363 . S
C1690 C1680 1.465 . S
C1690 U1686 2.847 . S
C1690 O1704 1.249 . S
C1690 O1705 1.202 . S
C1691 C1689 1.363 . S
C1691 C1693 1.408 . S
C1691 C1696 1.342 . S
C1692 C1693 1.310 . S
C1692 C1695 1.461 . S
C1692 H1712 0.932 . S
C1693 C1691 1.408 . S
C1693 C1692 1.310 . S
C1693 H1713 0.930 . S
C1694 C1695 1.474 . S
C1694 C1696 1.285 . S
C1694 H1714 0.929 . S
C1695 C1692 1.461 . S
C1695 C1694 1.474 . S
C1696 C1691 1.342 . S
C1696 C1694 1.285 . S
C1696 H1715 0.930 . S
C1697 C1700 1.424 . S
C1697 C1702 1.245 . S
C1697 C1703 1.428 . S
C1698 C1701 1.260 . S
C1698 C1702 1.477 . S
C1698 H1716 0.932 . S
C1699 C1700 1.384 . S
C1699 C1701 1.479 . S
C1699 H1717 0.929 . S
C1700 C1697 1.424 . S
C1700 C1699 1.384 . S
C1700 H1718 0.928 . S
C1701 C1698 1.260 . S
C1701 C1699 1.479 . S
C1702 C1697 1.245 . S
C1702 C1698 1.477 . S
C1702 H1719 0.932 . S
C1703 U1686 2.882 . S
C1703 C1697 1.428 . S
C1703 O1706 1.301 . S
C1703 O1707 1.282 . S
O1704 U1686 2.441 . S
O1704 C1690 1.249 . S
O1705 U1686 2.420 . S
O1705 C1690 1.202 . S
O1706 U1686 2.455 . S
O1706 C1703 1.301 . S
O1707 U1686 2.449 . S
O1707 C1703 1.282 . S
H1708 C1681 0.931 . S
H1709 C1683 0.929 . S
H1710 C1684 0.930 . S
H1711 C1685 0.931 . S
H1712 C1692 0.932 . S
H1713 C1693 0.930 . S
H1714 C1694 0.929 . S
H1715 C1696 0.930 . S
H1716 C1698 0.932 . S
H1717 C1699 0.929 . S
H1718 C1700 0.928 . S
H1719 C1702 0.932 . S
C1720 C1721 1.264 . S
C1720 C1725 1.479 . S
C1720 C1730 1.465 . S
C1721 C1720 1.264 . S
C1721 C1723 1.339 . S
C1721 H1748 0.931 . S
C1722 C1723 1.395 . S
C1722 C1724 1.320 . S
C1723 C1721 1.339 . S
C1723 C1722 1.395 . S
C1723 H1749 0.929 . S
C1724 C1722 1.320 . S
C1724 C1725 1.405 . S
C1724 H1750 0.930 . S
C1725 C1720 1.479 . S
C1725 C1724 1.405 . S
C1725 H1751 0.931 . S
U1726 O1727 2.454 . S
U1726 O1728 2.458 . S
U1726 C1729 2.984 . S
U1726 C1730 2.847 . S
U1726 C1743 2.882 . S
U1726 O1744 2.441 . S
U1726 O1745 2.420 . S
U1726 O1746 2.455 . S
U1726 O1747 2.449 . S
O1727 U1726 2.454 . S
O1727 C1729 1.353 . S
O1728 U1726 2.458 . S
O1728 C1729 1.286 . S
C1729 U1726 2.984 . S
C1729 O1727 1.353 . S
C1729 O1728 1.286 . S
C1729 C1731 1.363 . S
C1730 C1720 1.465 . S
C1730 U1726 2.847 . S
C1730 O1744 1.249 . S
C1730 O1745 1.202 . S
C1731 C1729 1.363 . S
C1731 C1733 1.408 . S
C1731 C1736 1.342 . S
C1732 C1733 1.310 . S
C1732 C1735 1.461 . S
C1732 H1752 0.932 . S
C1733 C1731 1.408 . S
C1733 C1732 1.310 . S
C1733 H1753 0.930 . S
C1734 C1735 1.474 . S
C1734 C1736 1.285 . S
C1734 H1754 0.929 . S
C1735 C1732 1.461 . S
C1735 C1734 1.474 . S
C1736 C1731 1.342 . S
C1736 C1734 1.285 . S
C1736 H1755 0.930 . S
C1737 C1740 1.424 . S
C1737 C1742 1.245 . S
C1737 C1743 1.428 . S
C1738 C1741 1.260 . S
C1738 C1742 1.477 . S
C1738 H1756 0.932 . S
C1739 C1740 1.384 . S
C1739 C1741 1.479 . S
C1739 H1757 0.929 . S
C1740 C1737 1.424 . S
C1740 C1739 1.384 . S
C1740 H1758 0.928 . S
C1741 C1738 1.260 . S
C1741 C1739 1.479 . S
C1742 C1737 1.245 . S
C1742 C1738 1.477 . S
C1742 H1759 0.932 . S
C1743 U1726 2.882 . S
C1743 C1737 1.428 . S
C1743 O1746 1.301 . S
C1743 O1747 1.282 . S
O1744 U1726 2.441 . S
O1744 C1730 1.249 . S
O1745 U1726 2.420 . S
O1745 C1730 1.202 . S
O1746 U1726 2.455 . S
O1746 C1743 1.301 . S
O1747 U1726 2.449 . S
O1747 C1743 1.282 . S
H1748 C1721 0.931 . S
H1749 C1723 0.929 . S
H1750 C1724 0.930 . S
H1751 C1725 0.931 . S
H1752 C1732 0.932 . S
H1753 C1733 0.930 . S
H1754 C1734 0.929 . S
H1755 C1736 0.930 . S
H1756 C1738 0.932 . S
H1757 C1739 0.929 . S
H1758 C1740 0.928 . S
H1759 C1742 0.932 . S
C1760 C1761 1.264 . S
C1760 C1765 1.479 . S
C1760 C1770 1.465 . S
C1761 C1760 1.264 . S
C1761 C1763 1.339 . S
C1761 H1788 0.931 . S
C1762 C1763 1.395 . S
C1762 C1764 1.320 . S
C1763 C1761 1.339 . S
C1763 C1762 1.395 . S
C1763 H1789 0.929 . S
C1764 C1762 1.320 . S
C1764 C1765 1.405 . S
C1764 H1790 0.930 . S
C1765 C1760 1.479 . S
C1765 C1764 1.405 . S
C1765 H1791 0.931 . S
U1766 O1767 2.454 . S
U1766 O1768 2.458 . S
U1766 C1769 2.984 . S
U1766 C1770 2.847 . S
U1766 C1783 2.882 . S
U1766 O1784 2.441 . S
U1766 O1785 2.420 . S
U1766 O1786 2.455 . S
U1766 O1787 2.449 . S
O1767 U1766 2.454 . S
O1767 C1769 1.353 . S
O1768 U1766 2.458 . S
O1768 C1769 1.286 . S
C1769 U1766 2.984 . S
C1769 O1767 1.353 . S
C1769 O1768 1.286 . S
C1769 C1771 1.363 . S
C1770 C1760 1.465 . S
C1770 U1766 2.847 . S
C1770 O1784 1.249 . S
C1770 O1785 1.202 . S
C1771 C1769 1.363 . S
C1771 C1773 1.408 . S
C1771 C1776 1.342 . S
C1772 C1773 1.310 . S
C1772 C1775 1.461 . S
C1772 H1792 0.932 . S
C1773 C1771 1.408 . S
C1773 C1772 1.310 . S
C1773 H1793 0.930 . S
C1774 C1775 1.474 . S
C1774 C1776 1.285 . S
C1774 H1794 0.929 . S
C1775 C1772 1.461 . S
C1775 C1774 1.474 . S
C1776 C1771 1.342 . S
C1776 C1774 1.285 . S
C1776 H1795 0.930 . S
C1777 C1780 1.424 . S
C1777 C1782 1.245 . S
C1777 C1783 1.428 . S
C1778 C1781 1.260 . S
C1778 C1782 1.477 . S
C1778 H1796 0.932 . S
C1779 C1780 1.384 . S
C1779 C1781 1.479 . S
C1779 H1797 0.929 . S
C1780 C1777 1.424 . S
C1780 C1779 1.384 . S
C1780 H1798 0.928 . S
C1781 C1778 1.260 . S
C1781 C1779 1.479 . S
C1782 C1777 1.245 . S
C1782 C1778 1.477 . S
C1782 H1799 0.932 . S
C1783 U1766 2.882 . S
C1783 C1777 1.428 . S
C1783 O1786 1.301 . S
C1783 O1787 1.282 . S
O1784 U1766 2.441 . S
O1784 C1770 1.249 . S
O1785 U1766 2.420 . S
O1785 C1770 1.202 . S
O1786 U1766 2.455 . S
O1786 C1783 1.301 . S
O1787 U1766 2.449 . S
O1787 C1783 1.282 . S
H1788 C1761 0.931 . S
H1789 C1763 0.929 . S
H1790 C1764 0.930 . S
H1791 C1765 0.931 . S
H1792 C1772 0.932 . S
H1793 C1773 0.930 . S
H1794 C1774 0.929 . S
H1795 C1776 0.930 . S
H1796 C1778 0.932 . S
H1797 C1779 0.929 . S
H1798 C1780 0.928 . S
H1799 C1782 0.932 . S
C1800 C1801 1.264 . S
C1800 C1805 1.479 . S
C1800 C1810 1.465 . S
C1801 C1800 1.264 . S
C1801 C1803 1.339 . S
C1801 H1828 0.931 . S
C1802 C1803 1.395 . S
C1802 C1804 1.320 . S
C1803 C1801 1.339 . S
C1803 C1802 1.395 . S
C1803 H1829 0.929 . S
C1804 C1802 1.320 . S
C1804 C1805 1.405 . S
C1804 H1830 0.930 . S
C1805 C1800 1.479 . S
C1805 C1804 1.405 . S
C1805 H1831 0.931 . S
U1806 O1807 2.454 . S
U1806 O1808 2.458 . S
U1806 C1809 2.984 . S
U1806 C1810 2.847 . S
U1806 C1823 2.882 . S
U1806 O1824 2.441 . S
U1806 O1825 2.420 . S
U1806 O1826 2.455 . S
U1806 O1827 2.449 . S
O1807 U1806 2.454 . S
O1807 C1809 1.353 . S
O1808 U1806 2.458 . S
O1808 C1809 1.286 . S
C1809 U1806 2.984 . S
C1809 O1807 1.353 . S
C1809 O1808 1.286 . S
C1809 C1811 1.363 . S
C1810 C1800 1.465 . S
C1810 U1806 2.847 . S
C1810 O1824 1.249 . S
C1810 O1825 1.202 . S
C1811 C1809 1.363 . S
C1811 C1813 1.408 . S
C1811 C1816 1.342 . S
C1812 C1813 1.310 . S
C1812 C1815 1.461 . S
C1812 H1832 0.932 . S
C1813 C1811 1.408 . S
C1813 C1812 1.310 . S
C1813 H1833 0.930 . S
C1814 C1815 1.474 . S
C1814 C1816 1.285 . S
C1814 H1834 0.929 . S
C1815 C1812 1.461 . S
C1815 C1814 1.474 . S
C1816 C1811 1.342 . S
C1816 C1814 1.285 . S
C1816 H1835 0.930 . S
C1817 C1820 1.424 . S
C1817 C1822 1.245 . S
C1817 C1823 1.428 . S
C1818 C1821 1.260 . S
C1818 C1822 1.477 . S
C1818 H1836 0.932 . S
C1819 C1820 1.384 . S
C1819 C1821 1.479 . S
C1819 H1837 0.929 . S
C1820 C1817 1.424 . S
C1820 C1819 1.384 . S
C1820 H1838 0.928 . S
C1821 C1818 1.260 . S
C1821 C1819 1.479 . S
C1822 C1817 1.245 . S
C1822 C1818 1.477 . S
C1822 H1839 0.932 . S
C1823 U1806 2.882 . S
C1823 C1817 1.428 . S
C1823 O1826 1.301 . S
C1823 O1827 1.282 . S
O1824 U1806 2.441 . S
O1824 C1810 1.249 . S
O1825 U1806 2.420 . S
O1825 C1810 1.202 . S
O1826 U1806 2.455 . S
O1826 C1823 1.301 . S
O1827 U1806 2.449 . S
O1827 C1823 1.282 . S
H1828 C1801 0.931 . S
H1829 C1803 0.929 . S
H1830 C1804 0.930 . S
H1831 C1805 0.931 . S
H1832 C1812 0.932 . S
H1833 C1813 0.930 . S
H1834 C1814 0.929 . S
H1835 C1816 0.930 . S
H1836 C1818 0.932 . S
H1837 C1819 0.929 . S
H1838 C1820 0.928 . S
H1839 C1822 0.932 . S
C1840 C1841 1.264 . S
C1840 C1845 1.479 . S
C1840 C1850 1.465 . S
C1841 C1840 1.264 . S
C1841 C1843 1.339 . S
C1841 H1868 0.931 . S
C1842 C1843 1.395 . S
C1842 C1844 1.320 . S
C1843 C1841 1.339 . S
C1843 C1842 1.395 . S
C1843 H1869 0.929 . S
C1844 C1842 1.320 . S
C1844 C1845 1.405 . S
C1844 H1870 0.930 . S
C1845 C1840 1.479 . S
C1845 C1844 1.405 . S
C1845 H1871 0.931 . S
U1846 O1847 2.454 . S
U1846 O1848 2.458 . S
U1846 C1849 2.984 . S
U1846 C1850 2.847 . S
U1846 C1863 2.882 . S
U1846 O1864 2.441 . S
U1846 O1865 2.420 . S
U1846 O1866 2.455 . S
U1846 O1867 2.449 . S
O1847 U1846 2.454 . S
O1847 C1849 1.353 . S
O1848 U1846 2.458 . S
O1848 C1849 1.286 . S
C1849 U1846 2.984 . S
C1849 O1847 1.353 . S
C1849 O1848 1.286 . S
C1849 C1851 1.363 . S
C1850 C1840 1.465 . S
C1850 U1846 2.847 . S
C1850 O1864 1.249 . S
C1850 O1865 1.202 . S
C1851 C1849 1.363 . S
C1851 C1853 1.408 . S
C1851 C1856 1.342 . S
C1852 C1853 1.310 . S
C1852 C1855 1.461 . S
C1852 H1872 0.932 . S
C1853 C1851 1.408 . S
C1853 C1852 1.310 . S
C1853 H1873 0.930 . S
C1854 C1855 1.474 . S
C1854 C1856 1.285 . S
C1854 H1874 0.929 . S
C1855 C1852 1.461 . S
C1855 C1854 1.474 . S
C1856 C1851 1.342 . S
C1856 C1854 1.285 . S
C1856 H1875 0.930 . S
C1857 C1860 1.424 . S
C1857 C1862 1.245 . S
C1857 C1863 1.428 . S
C1858 C1861 1.260 . S
C1858 C1862 1.477 . S
C1858 H1876 0.932 . S
C1859 C1860 1.384 . S
C1859 C1861 1.479 . S
C1859 H1877 0.929 . S
C1860 C1857 1.424 . S
C1860 C1859 1.384 . S
C1860 H1878 0.928 . S
C1861 C1858 1.260 . S
C1861 C1859 1.479 . S
C1862 C1857 1.245 . S
C1862 C1858 1.477 . S
C1862 H1879 0.932 . S
C1863 U1846 2.882 . S
C1863 C1857 1.428 . S
C1863 O1866 1.301 . S
C1863 O1867 1.282 . S
O1864 U1846 2.441 . S
O1864 C1850 1.249 . S
O1865 U1846 2.420 . S
O1865 C1850 1.202 . S
O1866 U1846 2.455 . S
O1866 C1863 1.301 . S
O1867 U1846 2.449 . S
O1867 C1863 1.282 . S
H1868 C1841 0.931 . S
H1869 C1843 0.929 . S
H1870 C1844 0.930 . S
H1871 C1845 0.931 . S
H1872 C1852 0.932 . S
H1873 C1853 0.930 . S
H1874 C1854 0.929 . S
H1875 C1856 0.930 . S
H1876 C1858 0.932 . S
H1877 C1859 0.929 . S
H1878 C1860 0.928 . S
H1879 C1862 0.932 . S
C1880 C1881 1.264 . S
C1880 C1885 1.479 . S
C1880 C1890 1.465 . S
C1881 C1880 1.264 . S
C1881 C1883 1.339 . S
C1881 H1908 0.931 . S
C1882 C1883 1.395 . S
C1882 C1884 1.320 . S
C1883 C1881 1.339 . S
C1883 C1882 1.395 . S
C1883 H1909 0.929 . S
C1884 C1882 1.320 . S
C1884 C1885 1.405 . S
C1884 H1910 0.930 . S
C1885 C1880 1.479 . S
C1885 C1884 1.405 . S
C1885 H1911 0.931 . S
U1886 O1887 2.454 . S
U1886 O1888 2.458 . S
U1886 C1889 2.984 . S
U1886 C1890 2.847 . S
U1886 C1903 2.882 . S
U1886 O1904 2.441 . S
U1886 O1905 2.420 . S
U1886 O1906 2.455 . S
U1886 O1907 2.449 . S
O1887 U1886 2.454 . S
O1887 C1889 1.353 . S
O1888 U1886 2.458 . S
O1888 C1889 1.286 . S
C1889 U1886 2.984 . S
C1889 O1887 1.353 . S
C1889 O1888 1.286 . S
C1889 C1891 1.363 . S
C1890 C1880 1.465 . S
C1890 U1886 2.847 . S
C1890 O1904 1.249 . S
C1890 O1905 1.202 . S
C1891 C1889 1.363 . S
C1891 C1893 1.408 . S
C1891 C1896 1.342 . S
C1892 C1893 1.310 . S
C1892 C1895 1.461 . S
C1892 H1912 0.932 . S
C1893 C1891 1.408 . S
C1893 C1892 1.310 . S
C1893 H1913 0.930 . S
C1894 C1895 1.474 . S
C1894 C1896 1.285 . S
C1894 H1914 0.929 . S
C1895 C1892 1.461 . S
C1895 C1894 1.474 . S
C1896 C1891 1.342 . S
C1896 C1894 1.285 . S
C1896 H1915 0.930 . S
C1897 C1900 1.424 . S
C1897 C1902 1.245 . S
C1897 C1903 1.428 . S
C1898 C1901 1.260 . S
C1898 C1902 1.477 . S
C1898 H1916 0.932 . S
C1899 C1900 1.384 . S
C1899 C1901 1.479 . S
C1899 H1917 0.929 . S
C1900 C1897 1.424 . S
C1900 C1899 1.384 . S
C1900 H1918 0.928 . S
C1901 C1898 1.260 . S
C1901 C1899 1.479 . S
C1902 C1897 1.245 . S
C1902 C1898 1.477 . S
C1902 H1919 0.932 . S
C1903 U1886 2.882 . S
C1903 C1897 1.428 . S
C1903 O1906 1.301 . S
C1903 O1907 1.282 . S
O1904 U1886 2.441 . S
O1904 C1890 1.249 . S
O1905 U1886 2.420 . S
O1905 C1890 1.202 . S
O1906 U1886 2.455 . S
O1906 C1903 1.301 . S
O1907 U1886 2.449 . S
O1907 C1903 1.282 . S
H1908 C1881 0.931 . S
H1909 C1883 0.929 . S
H1910 C1884 0.930 . S
H1911 C1885 0.931 . S
H1912 C1892 0.932 . S
H1913 C1893 0.930 . S
H1914 C1894 0.929 . S
H1915 C1896 0.930 . S
H1916 C1898 0.932 . S
H1917 C1899 0.929 . S
H1918 C1900 0.928 . S
H1919 C1902 0.932 . S
C1920 C1921 1.264 . S
C1920 C1925 1.479 . S
C1920 C1930 1.465 . S
C1921 C1920 1.264 . S
C1921 C1923 1.339 . S
C1921 H1948 0.931 . S
C1922 C1923 1.395 . S
C1922 C1924 1.320 . S
C1923 C1921 1.339 . S
C1923 C1922 1.395 . S
C1923 H1949 0.929 . S
C1924 C1922 1.320 . S
C1924 C1925 1.405 . S
C1924 H1950 0.930 . S
C1925 C1920 1.479 . S
C1925 C1924 1.405 . S
C1925 H1951 0.931 . S
U1926 O1927 2.454 . S
U1926 O1928 2.458 . S
U1926 C1929 2.984 . S
U1926 C1930 2.847 . S
U1926 C1943 2.882 . S
U1926 O1944 2.441 . S
U1926 O1945 2.420 . S
U1926 O1946 2.455 . S
U1926 O1947 2.449 . S
O1927 U1926 2.454 . S
O1927 C1929 1.353 . S
O1928 U1926 2.458 . S
O1928 C1929 1.286 . S
C1929 U1926 2.984 . S
C1929 O1927 1.353 . S
C1929 O1928 1.286 . S
C1929 C1931 1.363 . S
C1930 C1920 1.465 . S
C1930 U1926 2.847 . S
C1930 O1944 1.249 . S
C1930 O1945 1.202 . S
C1931 C1929 1.363 . S
C1931 C1933 1.408 . S
C1931 C1936 1.342 . S
C1932 C1933 1.310 . S
C1932 C1935 1.461 . S
C1932 H1952 0.932 . S
C1933 C1931 1.408 . S
C1933 C1932 1.310 . S
C1933 H1953 0.930 . S
C1934 C1935 1.474 . S
C1934 C1936 1.285 . S
C1934 H1954 0.929 . S
C1935 C1932 1.461 . S
C1935 C1934 1.474 . S
C1936 C1931 1.342 . S
C1936 C1934 1.285 . S
C1936 H1955 0.930 . S
C1937 C1940 1.424 . S
C1937 C1942 1.245 . S
C1937 C1943 1.428 . S
C1938 C1941 1.260 . S
C1938 C1942 1.477 . S
C1938 H1956 0.932 . S
C1939 C1940 1.384 . S
C1939 C1941 1.479 . S
C1939 H1957 0.929 . S
C1940 C1937 1.424 . S
C1940 C1939 1.384 . S
C1940 H1958 0.928 . S
C1941 C1938 1.260 . S
C1941 C1939 1.479 . S
C1942 C1937 1.245 . S
C1942 C1938 1.477 . S
C1942 H1959 0.932 . S
C1943 U1926 2.882 . S
C1943 C1937 1.428 . S
C1943 O1946 1.301 . S
C1943 O1947 1.282 . S
O1944 U1926 2.441 . S
O1944 C1930 1.249 . S
O1945 U1926 2.420 . S
O1945 C1930 1.202 . S
O1946 U1926 2.455 . S
O1946 C1943 1.301 . S
O1947 U1926 2.449 . S
O1947 C1943 1.282 . S
H1948 C1921 0.931 . S
H1949 C1923 0.929 . S
H1950 C1924 0.930 . S
H1951 C1925 0.931 . S
H1952 C1932 0.932 . S
H1953 C1933 0.930 . S
H1954 C1934 0.929 . S
H1955 C1936 0.930 . S
H1956 C1938 0.932 . S
H1957 C1939 0.929 . S
H1958 C1940 0.928 . S
H1959 C1942 0.932 . S
C1960 C1961 1.264 . S
C1960 C1965 1.479 . S
C1960 C1970 1.465 . S
C1961 C1960 1.264 . S
C1961 C1963 1.339 . S
C1961 H1988 0.931 . S
C1962 C1963 1.395 . S
C1962 C1964 1.320 . S
C1963 C1961 1.339 . S
C1963 C1962 1.395 . S
C1963 H1989 0.929 . S
C1964 C1962 1.320 . S
C1964 C1965 1.405 . S
C1964 H1990 0.930 . S
C1965 C1960 1.479 . S
C1965 C1964 1.405 . S
C1965 H1991 0.931 . S
U1966 O1967 2.454 . S
U1966 O1968 2.458 . S
U1966 C1969 2.984 . S
U1966 C1970 2.847 . S
U1966 C1983 2.882 . S
U1966 O1984 2.441 . S
U1966 O1985 2.420 . S
U1966 O1986 2.455 . S
U1966 O1987 2.449 . S
O1967 U1966 2.454 . S
O1967 C1969 1.353 . S
O1968 U1966 2.458 . S
O1968 C1969 1.286 . S
C1969 U1966 2.984 . S
C1969 O1967 1.353 . S
C1969 O1968 1.286 . S
C1969 C1971 1.363 . S
C1970 C1960 1.465 . S
C1970 U1966 2.847 . S
C1970 O1984 1.249 . S
C1970 O1985 1.202 . S
C1971 C1969 1.363 . S
C1971 C1973 1.408 . S
C1971 C1976 1.342 . S
C1972 C1973 1.310 . S
C1972 C1975 1.461 . S
C1972 H1992 0.932 . S
C1973 C1971 1.408 . S
C1973 C1972 1.310 . S
C1973 H1993 0.930 . S
C1974 C1975 1.474 . S
C1974 C1976 1.285 . S
C1974 H1994 0.929 . S
C1975 C1972 1.461 . S
C1975 C1974 1.474 . S
C1976 C1971 1.342 . S
C1976 C1974 1.285 . S
C1976 H1995 0.930 . S
C1977 C1980 1.424 . S
C1977 C1982 1.245 . S
C1977 C1983 1.428 . S
C1978 C1981 1.260 . S
C1978 C1982 1.477 . S
C1978 H1996 0.932 . S
C1979 C1980 1.384 . S
C1979 C1981 1.479 . S
C1979 H1997 0.929 . S
C1980 C1977 1.424 . S
C1980 C1979 1.384 . S
C1980 H1998 0.928 . S
C1981 C1978 1.260 . S
C1981 C1979 1.479 . S
C1982 C1977 1.245 . S
C1982 C1978 1.477 . S
C1982 H1999 0.932 . S
C1983 U1966 2.882 . S
C1983 C1977 1.428 . S
C1983 O1986 1.301 . S
C1983 O1987 1.282 . S
O1984 U1966 2.441 . S
O1984 C1970 1.249 . S
O1985 U1966 2.420 . S
O1985 C1970 1.202 . S
O1986 U1966 2.455 . S
O1986 C1983 1.301 . S
O1987 U1966 2.449 . S
O1987 C1983 1.282 . S
H1988 C1961 0.931 . S
H1989 C1963 0.929 . S
H1990 C1964 0.930 . S
H1991 C1965 0.931 . S
H1992 C1972 0.932 . S
H1993 C1973 0.930 . S
H1994 C1974 0.929 . S
H1995 C1976 0.930 . S
H1996 C1978 0.932 . S
H1997 C1979 0.929 . S
H1998 C1980 0.928 . S
H1999 C1982 0.932 . S
C2000 C2001 1.264 . S
C2000 C2005 1.479 . S
C2000 C2010 1.465 . S
C2001 C2000 1.264 . S
C2001 C2003 1.339 . S
C2001 H2028 0.931 . S
C2002 C2003 1.395 . S
C2002 C2004 1.320 . S
C2003 C2001 1.339 . S
C2003 C2002 1.395 . S
C2003 H2029 0.929 . S
C2004 C2002 1.320 . S
C2004 C2005 1.405 . S
C2004 H2030 0.930 . S
C2005 C2000 1.479 . S
C2005 C2004 1.405 . S
C2005 H2031 0.931 . S
U2006 O2007 2.454 . S
U2006 O2008 2.458 . S
U2006 C2009 2.984 . S
U2006 C2010 2.847 . S
U2006 C2023 2.882 . S
U2006 O2024 2.441 . S
U2006 O2025 2.420 . S
U2006 O2026 2.455 . S
U2006 O2027 2.449 . S
O2007 U2006 2.454 . S
O2007 C2009 1.353 . S
O2008 U2006 2.458 . S
O2008 C2009 1.286 . S
C2009 U2006 2.984 . S
C2009 O2007 1.353 . S
C2009 O2008 1.286 . S
C2009 C2011 1.363 . S
C2010 C2000 1.465 . S
C2010 U2006 2.847 . S
C2010 O2024 1.249 . S
C2010 O2025 1.202 . S
C2011 C2009 1.363 . S
C2011 C2013 1.408 . S
C2011 C2016 1.342 . S
C2012 C2013 1.310 . S
C2012 C2015 1.461 . S
C2012 H2032 0.932 . S
C2013 C2011 1.408 . S
C2013 C2012 1.310 . S
C2013 H2033 0.930 . S
C2014 C2015 1.474 . S
C2014 C2016 1.285 . S
C2014 H2034 0.929 . S
C2015 C2012 1.461 . S
C2015 C2014 1.474 . S
C2016 C2011 1.342 . S
C2016 C2014 1.285 . S
C2016 H2035 0.930 . S
C2017 C2020 1.424 . S
C2017 C2022 1.245 . S
C2017 C2023 1.428 . S
C2018 C2021 1.260 . S
C2018 C2022 1.477 . S
C2018 H2036 0.932 . S
C2019 C2020 1.384 . S
C2019 C2021 1.479 . S
C2019 H2037 0.929 . S
C2020 C2017 1.424 . S
C2020 C2019 1.384 . S
C2020 H2038 0.928 . S
C2021 C2018 1.260 . S
C2021 C2019 1.479 . S
C2022 C2017 1.245 . S
C2022 C2018 1.477 . S
C2022 H2039 0.932 . S
C2023 U2006 2.882 . S
C2023 C2017 1.428 . S
C2023 O2026 1.301 . S
C2023 O2027 1.282 . S
O2024 U2006 2.441 . S
O2024 C2010 1.249 . S
O2025 U2006 2.420 . S
O2025 C2010 1.202 . S
O2026 U2006 2.455 . S
O2026 C2023 1.301 . S
O2027 U2006 2.449 . S
O2027 C2023 1.282 . S
H2028 C2001 0.931 . S
H2029 C2003 0.929 . S
H2030 C2004 0.930 . S
H2031 C2005 0.931 . S
H2032 C2012 0.932 . S
H2033 C2013 0.930 . S
H2034 C2014 0.929 . S
H2035 C2016 0.930 . S
H2036 C2018 0.932 . S
H2037 C2019 0.929 . S
H2038 C2020 0.928 . S
H2039 C2022 0.932 . S
C2040 C2041 1.264 . S
C2040 C2045 1.479 . S
C2040 C2050 1.465 . S
C2041 C2040 1.264 . S
C2041 C2043 1.339 . S
C2041 H2068 0.931 . S
C2042 C2043 1.395 . S
C2042 C2044 1.320 . S
C2043 C2041 1.339 . S
C2043 C2042 1.395 . S
C2043 H2069 0.929 . S
C2044 C2042 1.320 . S
C2044 C2045 1.405 . S
C2044 H2070 0.930 . S
C2045 C2040 1.479 . S
C2045 C2044 1.405 . S
C2045 H2071 0.931 . S
U2046 O2047 2.454 . S
U2046 O2048 2.458 . S
U2046 C2049 2.984 . S
U2046 C2050 2.847 . S
U2046 C2063 2.882 . S
U2046 O2064 2.441 . S
U2046 O2065 2.420 . S
U2046 O2066 2.455 . S
U2046 O2067 2.449 . S
O2047 U2046 2.454 . S
O2047 C2049 1.353 . S
O2048 U2046 2.458 . S
O2048 C2049 1.286 . S
C2049 U2046 2.984 . S
C2049 O2047 1.353 . S
C2049 O2048 1.286 . S
C2049 C2051 1.363 . S
C2050 C2040 1.465 . S
C2050 U2046 2.847 . S
C2050 O2064 1.249 . S
C2050 O2065 1.202 . S
C2051 C2049 1.363 . S
C2051 C2053 1.408 . S
C2051 C2056 1.342 . S
C2052 C2053 1.310 . S
C2052 C2055 1.461 . S
C2052 H2072 0.932 . S
C2053 C2051 1.408 . S
C2053 C2052 1.310 . S
C2053 H2073 0.930 . S
C2054 C2055 1.474 . S
C2054 C2056 1.285 . S
C2054 H2074 0.929 . S
C2055 C2052 1.461 . S
C2055 C2054 1.474 . S
C2056 C2051 1.342 . S
C2056 C2054 1.285 . S
C2056 H2075 0.930 . S
C2057 C2060 1.424 . S
C2057 C2062 1.245 . S
C2057 C2063 1.428 . S
C2058 C2061 1.260 . S
C2058 C2062 1.477 . S
C2058 H2076 0.932 . S
C2059 C2060 1.384 . S
C2059 C2061 1.479 . S
C2059 H2077 0.929 . S
C2060 C2057 1.424 . S
C2060 C2059 1.384 . S
C2060 H2078 0.928 . S
C2061 C2058 1.260 . S
C2061 C2059 1.479 . S
C2062 C2057 1.245 . S
C2062 C2058 1.477 . S
C2062 H2079 0.932 . S
C2063 U2046 2.882 . S
C2063 C2057 1.428 . S
C2063 O2066 1.301 . S
C2063 O2067 1.282 . S
O2064 U2046 2.441 . S
O2064 C2050 1.249 . S
O2065 U2046 2.420 . S
O2065 C2050 1.202 . S
O2066 U2046 2.455 . S
O2066 C2063 1.301 . S
O2067 U2046 2.449 . S
O2067 C2063 1.282 . S
H2068 C2041 0.931 . S
H2069 C2043 0.929 . S
H2070 C2044 0.930 . S
H2071 C2045 0.931 . S
H2072 C2052 0.932 . S
H2073 C2053 0.930 . S
H2074 C2054 0.929 . S
H2075 C2056 0.930 . S
H2076 C2058 0.932 . S
H2077 C2059 0.929 . S
H2078 C2060 0.928 . S
H2079 C2062 0.932 . S
C2080 C2081 1.264 . S
C2080 C2085 1.479 . S
C2080 C2090 1.465 . S
C2081 C2080 1.264 . S
C2081 C2083 1.339 . S
C2081 H2108 0.931 . S
C2082 C2083 1.395 . S
C2082 C2084 1.320 . S
C2083 C2081 1.339 . S
C2083 C2082 1.395 . S
C2083 H2109 0.929 . S
C2084 C2082 1.320 . S
C2084 C2085 1.405 . S
C2084 H2110 0.930 . S
C2085 C2080 1.479 . S
C2085 C2084 1.405 . S
C2085 H2111 0.931 . S
U2086 O2087 2.454 . S
U2086 O2088 2.458 . S
U2086 C2089 2.984 . S
U2086 C2090 2.847 . S
U2086 C2103 2.882 . S
U2086 O2104 2.441 . S
U2086 O2105 2.420 . S
U2086 O2106 2.455 . S
U2086 O2107 2.449 . S
O2087 U2086 2.454 . S
O2087 C2089 1.353 . S
O2088 U2086 2.458 . S
O2088 C2089 1.286 . S
C2089 U2086 2.984 . S
C2089 O2087 1.353 . S
C2089 O2088 1.286 . S
C2089 C2091 1.363 . S
C2090 C2080 1.465 . S
C2090 U2086 2.847 . S
C2090 O2104 1.249 . S
C2090 O2105 1.202 . S
C2091 C2089 1.363 . S
C2091 C2093 1.408 . S
C2091 C2096 1.342 . S
C2092 C2093 1.310 . S
C2092 C2095 1.461 . S
C2092 H2112 0.932 . S
C2093 C2091 1.408 . S
C2093 C2092 1.310 . S
C2093 H2113 0.930 . S
C2094 C2095 1.474 . S
C2094 C2096 1.285 . S
C2094 H2114 0.929 . S
C2095 C2092 1.461 . S
C2095 C2094 1.474 . S
C2096 C2091 1.342 . S
C2096 C2094 1.285 . S
C2096 H2115 0.930 . S
C2097 C2100 1.424 . S
C2097 C2102 1.245 . S
C2097 C2103 1.428 . S
C2098 C2101 1.260 . S
C2098 C2102 1.477 . S
C2098 H2116 0.932 . S
C2099 C2100 1.384 . S
C2099 C2101 1.479 . S
C2099 H2117 0.929 . S
C2100 C2097 1.424 . S
C2100 C2099 1.384 . S
C2100 H2118 0.928 . S
C2101 C2098 1.260 . S
C2101 C2099 1.479 . S
C2102 C2097 1.245 . S
C2102 C2098 1.477 . S
C2102 H2119 0.932 . S
C2103 U2086 2.882 . S
C2103 C2097 1.428 . S
C2103 O2106 1.301 . S
C2103 O2107 1.282 . S
O2104 U2086 2.441 . S
O2104 C2090 1.249 . S
O2105 U2086 2.420 . S
O2105 C2090 1.202 . S
O2106 U2086 2.455 . S
O2106 C2103 1.301 . S
O2107 U2086 2.449 . S
O2107 C2103 1.282 . S
H2108 C2081 0.931 . S
H2109 C2083 0.929 . S
H2110 C2084 0.930 . S
H2111 C2085 0.931 . S
H2112 C2092 0.932 . S
H2113 C2093 0.930 . S
H2114 C2094 0.929 . S
H2115 C2096 0.930 . S
H2116 C2098 0.932 . S
H2117 C2099 0.929 . S
H2118 C2100 0.928 . S
H2119 C2102 0.932 . S
C2120 C2121 1.264 . S
C2120 C2125 1.479 . S
C2120 C2130 1.465 . S
C2121 C2120 1.264 . S
C2121 C2123 1.339 . S
C2121 H2148 0.931 . S
C2122 C2123 1.395 . S
C2122 C2124 1.320 . S
C2123 C2121 1.339 . S
C2123 C2122 1.395 . S
C2123 H2149 0.929 . S
C2124 C2122 1.320 . S
C2124 C2125 1.405 . S
C2124 H2150 0.930 . S
C2125 C2120 1.479 . S
C2125 C2124 1.405 . S
C2125 H2151 0.931 . S
U2126 O2127 2.454 . S
U2126 O2128 2.458 . S
U2126 C2129 2.984 . S
U2126 C2130 2.847 . S
U2126 C2143 2.882 . S
U2126 O2144 2.441 . S
U2126 O2145 2.420 . S
U2126 O2146 2.455 . S
U2126 O2147 2.449 . S
O2127 U2126 2.454 . S
O2127 C2129 1.353 . S
O2128 U2126 2.458 . S
O2128 C2129 1.286 . S
C2129 U2126 2.984 . S
C2129 O2127 1.353 . S
C2129 O2128 1.286 . S
C2129 C2131 1.363 . S
C2130 C2120 1.465 . S
C2130 U2126 2.847 . S
C2130 O2144 1.249 . S
C2130 O2145 1.202 . S
C2131 C2129 1.363 . S
C2131 C2133 1.408 . S
C2131 C2136 1.342 . S
C2132 C2133 1.310 . S
C2132 C2135 1.461 . S
C2132 H2152 0.932 . S
C2133 C2131 1.408 . S
C2133 C2132 1.310 . S
C2133 H2153 0.930 . S
C2134 C2135 1.474 . S
C2134 C2136 1.285 . S
C2134 H2154 0.929 . S
C2135 C2132 1.461 . S
C2135 C2134 1.474 . S
C2136 C2131 1.342 . S
C2136 C2134 1.285 . S
C2136 H2155 0.930 . S
C2137 C2140 1.424 . S
C2137 C2142 1.245 . S
C2137 C2143 1.428 . S
C2138 C2141 1.260 . S
C2138 C2142 1.477 . S
C2138 H2156 0.932 . S
C2139 C2140 1.384 . S
C2139 C2141 1.479 . S
C2139 H2157 0.929 . S
C2140 C2137 1.424 . S
C2140 C2139 1.384 . S
C2140 H2158 0.928 . S
C2141 C2138 1.260 . S
C2141 C2139 1.479 . S
C2142 C2137 1.245 . S
C2142 C2138 1.477 . S
C2142 H2159 0.932 . S
C2143 U2126 2.882 . S
C2143 C2137 1.428 . S
C2143 O2146 1.301 . S
C2143 O2147 1.282 . S
O2144 U2126 2.441 . S
O2144 C2130 1.249 . S
O2145 U2126 2.420 . S
O2145 C2130 1.202 . S
O2146 U2126 2.455 . S
O2146 C2143 1.301 . S
O2147 U2126 2.449 . S
O2147 C2143 1.282 . S
H2148 C2121 0.931 . S
H2149 C2123 0.929 . S
H2150 C2124 0.930 . S
H2151 C2125 0.931 . S
H2152 C2132 0.932 . S
H2153 C2133 0.930 . S
H2154 C2134 0.929 . S
H2155 C2136 0.930 . S
H2156 C2138 0.932 . S
H2157 C2139 0.929 . S
H2158 C2140 0.928 . S
H2159 C2142 0.932 . S
C2160 C2161 1.264 . S
C2160 C2165 1.479 . S
C2160 C2170 1.465 . S
C2161 C2160 1.264 . S
C2161 C2163 1.339 . S
C2161 H2188 0.931 . S
C2162 C2163 1.395 . S
C2162 C2164 1.320 . S
C2163 C2161 1.339 . S
C2163 C2162 1.395 . S
C2163 H2189 0.929 . S
C2164 C2162 1.320 . S
C2164 C2165 1.405 . S
C2164 H2190 0.930 . S
C2165 C2160 1.479 . S
C2165 C2164 1.405 . S
C2165 H2191 0.931 . S
U2166 O2167 2.454 . S
U2166 O2168 2.458 . S
U2166 C2169 2.984 . S
U2166 C2170 2.847 . S
U2166 C2183 2.882 . S
U2166 O2184 2.441 . S
U2166 O2185 2.420 . S
U2166 O2186 2.455 . S
U2166 O2187 2.449 . S
O2167 U2166 2.454 . S
O2167 C2169 1.353 . S
O2168 U2166 2.458 . S
O2168 C2169 1.286 . S
C2169 U2166 2.984 . S
C2169 O2167 1.353 . S
C2169 O2168 1.286 . S
C2169 C2171 1.363 . S
C2170 C2160 1.465 . S
C2170 U2166 2.847 . S
C2170 O2184 1.249 . S
C2170 O2185 1.202 . S
C2171 C2169 1.363 . S
C2171 C2173 1.408 . S
C2171 C2176 1.342 . S
C2172 C2173 1.310 . S
C2172 C2175 1.461 . S
C2172 H2192 0.932 . S
C2173 C2171 1.408 . S
C2173 C2172 1.310 . S
C2173 H2193 0.930 . S
C2174 C2175 1.474 . S
C2174 C2176 1.285 . S
C2174 H2194 0.929 . S
C2175 C2172 1.461 . S
C2175 C2174 1.474 . S
C2176 C2171 1.342 . S
C2176 C2174 1.285 . S
C2176 H2195 0.930 . S
C2177 C2180 1.424 . S
C2177 C2182 1.245 . S
C2177 C2183 1.428 . S
C2178 C2181 1.260 . S
C2178 C2182 1.477 . S
C2178 H2196 0.932 . S
C2179 C2180 1.384 . S
C2179 C2181 1.479 . S
C2179 H2197 0.929 . S
C2180 C2177 1.424 . S
C2180 C2179 1.384 . S
C2180 H2198 0.928 . S
C2181 C2178 1.260 . S
C2181 C2179 1.479 . S
C2182 C2177 1.245 . S
C2182 C2178 1.477 . S
C2182 H2199 0.932 . S
C2183 U2166 2.882 . S
C2183 C2177 1.428 . S
C2183 O2186 1.301 . S
C2183 O2187 1.282 . S
O2184 U2166 2.441 . S
O2184 C2170 1.249 . S
O2185 U2166 2.420 . S
O2185 C2170 1.202 . S
O2186 U2166 2.455 . S
O2186 C2183 1.301 . S
O2187 U2166 2.449 . S
O2187 C2183 1.282 . S
H2188 C2161 0.931 . S
H2189 C2163 0.929 . S
H2190 C2164 0.930 . S
H2191 C2165 0.931 . S
H2192 C2172 0.932 . S
H2193 C2173 0.930 . S
H2194 C2174 0.929 . S
H2195 C2176 0.930 . S
H2196 C2178 0.932 . S
H2197 C2179 0.929 . S
H2198 C2180 0.928 . S
H2199 C2182 0.932 . S
C2200 C2201 1.264 . S
C2200 C2205 1.479 . S
C2200 C2210 1.465 . S
C2201 C2200 1.264 . S
C2201 C2203 1.339 . S
C2201 H2228 0.931 . S
C2202 C2203 1.395 . S
C2202 C2204 1.320 . S
C2203 C2201 1.339 . S
C2203 C2202 1.395 . S
C2203 H2229 0.929 . S
C2204 C2202 1.320 . S
C2204 C2205 1.405 . S
C2204 H2230 0.930 . S
C2205 C2200 1.479 . S
C2205 C2204 1.405 . S
C2205 H2231 0.931 . S
U2206 O2207 2.454 . S
U2206 O2208 2.458 . S
U2206 C2209 2.984 . S
U2206 C2210 2.847 . S
U2206 C2223 2.882 . S
U2206 O2224 2.441 . S
U2206 O2225 2.420 . S
U2206 O2226 2.455 . S
U2206 O2227 2.449 . S
O2207 U2206 2.454 . S
O2207 C2209 1.353 . S
O2208 U2206 2.458 . S
O2208 C2209 1.286 . S
C2209 U2206 2.984 . S
C2209 O2207 1.353 . S
C2209 O2208 1.286 . S
C2209 C2211 1.363 . S
C2210 C2200 1.465 . S
C2210 U2206 2.847 . S
C2210 O2224 1.249 . S
C2210 O2225 1.202 . S
C2211 C2209 1.363 . S
C2211 C2213 1.408 . S
C2211 C2216 1.342 . S
C2212 C2213 1.310 . S
C2212 C2215 1.461 . S
C2212 H2232 0.932 . S
C2213 C2211 1.408 . S
C2213 C2212 1.310 . S
C2213 H2233 0.930 . S
C2214 C2215 1.474 . S
C2214 C2216 1.285 . S
C2214 H2234 0.929 . S
C2215 C2212 1.461 . S
C2215 C2214 1.474 . S
C2216 C2211 1.342 . S
C2216 C2214 1.285 . S
C2216 H2235 0.930 . S
C2217 C2220 1.424 . S
C2217 C2222 1.245 . S
C2217 C2223 1.428 . S
C2218 C2221 1.260 . S
C2218 C2222 1.477 . S
C2218 H2236 0.932 . S
C2219 C2220 1.384 . S
C2219 C2221 1.479 . S
C2219 H2237 0.929 . S
C2220 C2217 1.424 . S
C2220 C2219 1.384 . S
C2220 H2238 0.928 . S
C2221 C2218 1.260 . S
C2221 C2219 1.479 . S
C2222 C2217 1.245 . S
C2222 C2218 1.477 . S
C2222 H2239 0.932 . S
C2223 U2206 2.882 . S
C2223 C2217 1.428 . S
C2223 O2226 1.301 . S
C2223 O2227 1.282 . S
O2224 U2206 2.441 . S
O2224 C2210 1.249 . S
O2225 U2206 2.420 . S
O2225 C2210 1.202 . S
O2226 U2206 2.455 . S
O2226 C2223 1.301 . S
O2227 U2206 2.449 . S
O2227 C2223 1.282 . S
H2228 C2201 0.931 . S
H2229 C2203 0.929 . S
H2230 C2204 0.930 . S
H2231 C2205 0.931 . S
H2232 C2212 0.932 . S
H2233 C2213 0.930 . S
H2234 C2214 0.929 . S
H2235 C2216 0.930 . S
H2236 C2218 0.932 . S
H2237 C2219 0.929 . S
H2238 C2220 0.928 . S
H2239 C2222 0.932 . S
C2240 C2241 1.264 . S
C2240 C2245 1.479 . S
C2240 C2250 1.465 . S
C2241 C2240 1.264 . S
C2241 C2243 1.339 . S
C2241 H2268 0.931 . S
C2242 C2243 1.395 . S
C2242 C2244 1.320 . S
C2243 C2241 1.339 . S
C2243 C2242 1.395 . S
C2243 H2269 0.929 . S
C2244 C2242 1.320 . S
C2244 C2245 1.405 . S
C2244 H2270 0.930 . S
C2245 C2240 1.479 . S
C2245 C2244 1.405 . S
C2245 H2271 0.931 . S
U2246 O2247 2.454 . S
U2246 O2248 2.458 . S
U2246 C2249 2.984 . S
U2246 C2250 2.847 . S
U2246 C2263 2.882 . S
U2246 O2264 2.441 . S
U2246 O2265 2.420 . S
U2246 O2266 2.455 . S
U2246 O2267 2.449 . S
O2247 U2246 2.454 . S
O2247 C2249 1.353 . S
O2248 U2246 2.458 . S
O2248 C2249 1.286 . S
C2249 U2246 2.984 . S
C2249 O2247 1.353 . S
C2249 O2248 1.286 . S
C2249 C2251 1.363 . S
C2250 C2240 1.465 . S
C2250 U2246 2.847 . S
C2250 O2264 1.249 . S
C2250 O2265 1.202 . S
C2251 C2249 1.363 . S
C2251 C2253 1.408 . S
C2251 C2256 1.342 . S
C2252 C2253 1.310 . S
C2252 C2255 1.461 . S
C2252 H2272 0.932 . S
C2253 C2251 1.408 . S
C2253 C2252 1.310 . S
C2253 H2273 0.930 . S
C2254 C2255 1.474 . S
C2254 C2256 1.285 . S
C2254 H2274 0.929 . S
C2255 C2252 1.461 . S
C2255 C2254 1.474 . S
C2256 C2251 1.342 . S
C2256 C2254 1.285 . S
C2256 H2275 0.930 . S
C2257 C2260 1.424 . S
C2257 C2262 1.245 . S
C2257 C2263 1.428 . S
C2258 C2261 1.260 . S
C2258 C2262 1.477 . S
C2258 H2276 0.932 . S
C2259 C2260 1.384 . S
C2259 C2261 1.479 . S
C2259 H2277 0.929 . S
C2260 C2257 1.424 . S
C2260 C2259 1.384 . S
C2260 H2278 0.928 . S
C2261 C2258 1.260 . S
C2261 C2259 1.479 . S
C2262 C2257 1.245 . S
C2262 C2258 1.477 . S
C2262 H2279 0.932 . S
C2263 U2246 2.882 . S
C2263 C2257 1.428 . S
C2263 O2266 1.301 . S
C2263 O2267 1.282 . S
O2264 U2246 2.441 . S
O2264 C2250 1.249 . S
O2265 U2246 2.420 . S
O2265 C2250 1.202 . S
O2266 U2246 2.455 . S
O2266 C2263 1.301 . S
O2267 U2246 2.449 . S
O2267 C2263 1.282 . S
H2268 C2241 0.931 . S
H2269 C2243 0.929 . S
H2270 C2244 0.930 . S
H2271 C2245 0.931 . S
H2272 C2252 0.932 . S
H2273 C2253 0.930 . S
H2274 C2254 0.929 . S
H2275 C2256 0.930 . S
H2276 C2258 0.932 . S
H2277 C2259 0.929 . S
H2278 C2260 0.928 . S
H2279 C2262 0.932 . S
C2280 C2281 1.264 . S
C2280 C2285 1.479 . S
C2280 C2290 1.465 . S
C2281 C2280 1.264 . S
C2281 C2283 1.339 . S
C2281 H2308 0.931 . S
C2282 C2283 1.395 . S
C2282 C2284 1.320 . S
C2283 C2281 1.339 . S
C2283 C2282 1.395 . S
C2283 H2309 0.929 . S
C2284 C2282 1.320 . S
C2284 C2285 1.405 . S
C2284 H2310 0.930 . S
C2285 C2280 1.479 . S
C2285 C2284 1.405 . S
C2285 H2311 0.931 . S
U2286 O2287 2.454 . S
U2286 O2288 2.458 . S
U2286 C2289 2.984 . S
U2286 C2290 2.847 . S
U2286 C2303 2.882 . S
U2286 O2304 2.441 . S
U2286 O2305 2.420 . S
U2286 O2306 2.455 . S
U2286 O2307 2.449 . S
O2287 U2286 2.454 . S
O2287 C2289 1.353 . S
O2288 U2286 2.458 . S
O2288 C2289 1.286 . S
C2289 U2286 2.984 . S
C2289 O2287 1.353 . S
C2289 O2288 1.286 . S
C2289 C2291 1.363 . S
C2290 C2280 1.465 . S
C2290 U2286 2.847 . S
C2290 O2304 1.249 . S
C2290 O2305 1.202 . S
C2291 C2289 1.363 . S
C2291 C2293 1.408 . S
C2291 C2296 1.342 . S
C2292 C2293 1.310 . S
C2292 C2295 1.461 . S
C2292 H2312 0.932 . S
C2293 C2291 1.408 . S
C2293 C2292 1.310 . S
C2293 H2313 0.930 . S
C2294 C2295 1.474 . S
C2294 C2296 1.285 . S
C2294 H2314 0.929 . S
C2295 C2292 1.461 . S
C2295 C2294 1.474 . S
C2296 C2291 1.342 . S
C2296 C2294 1.285 . S
C2296 H2315 0.930 . S
C2297 C2300 1.424 . S
C2297 C2302 1.245 . S
C2297 C2303 1.428 . S
C2298 C2301 1.260 . S
C2298 C2302 1.477 . S
C2298 H2316 0.932 . S
C2299 C2300 1.384 . S
C2299 C2301 1.479 . S
C2299 H2317 0.929 . S
C2300 C2297 1.424 . S
C2300 C2299 1.384 . S
C2300 H2318 0.928 . S
C2301 C2298 1.260 . S
C2301 C2299 1.479 . S
C2302 C2297 1.245 . S
C2302 C2298 1.477 . S
C2302 H2319 0.932 . S
C2303 U2286 2.882 . S
C2303 C2297 1.428 . S
C2303 O2306 1.301 . S
C2303 O2307 1.282 . S
O2304 U2286 2.441 . S
O2304 C2290 1.249 . S
O2305 U2286 2.420 . S
O2305 C2290 1.202 . S
O2306 U2286 2.455 . S
O2306 C2303 1.301 . S
O2307 U2286 2.449 . S
O2307 C2303 1.282 . S
H2308 C2281 0.931 . S
H2309 C2283 0.929 . S
H2310 C2284 0.930 . S
H2311 C2285 0.931 . S
H2312 C2292 0.932 . S
H2313 C2293 0.930 . S
H2314 C2294 0.929 . S
H2315 C2296 0.930 . S
H2316 C2298 0.932 . S
H2317 C2299 0.929 . S
H2318 C2300 0.928 . S
H2319 C2302 0.932 . S
C2320 C2321 1.264 . S
C2320 C2325 1.479 . S
C2320 C2330 1.465 . S
C2321 C2320 1.264 . S
C2321 C2323 1.339 . S
C2321 H2348 0.931 . S
C2322 C2323 1.395 . S
C2322 C2324 1.320 . S
C2323 C2321 1.339 . S
C2323 C2322 1.395 . S
C2323 H2349 0.929 . S
C2324 C2322 1.320 . S
C2324 C2325 1.405 . S
C2324 H2350 0.930 . S
C2325 C2320 1.479 . S
C2325 C2324 1.405 . S
C2325 H2351 0.931 . S
U2326 O2327 2.454 . S
U2326 O2328 2.458 . S
U2326 C2329 2.984 . S
U2326 C2330 2.847 . S
U2326 C2343 2.882 . S
U2326 O2344 2.441 . S
U2326 O2345 2.420 . S
U2326 O2346 2.455 . S
U2326 O2347 2.449 . S
O2327 U2326 2.454 . S
O2327 C2329 1.353 . S
O2328 U2326 2.458 . S
O2328 C2329 1.286 . S
C2329 U2326 2.984 . S
C2329 O2327 1.353 . S
C2329 O2328 1.286 . S
C2329 C2331 1.363 . S
C2330 C2320 1.465 . S
C2330 U2326 2.847 . S
C2330 O2344 1.249 . S
C2330 O2345 1.202 . S
C2331 C2329 1.363 . S
C2331 C2333 1.408 . S
C2331 C2336 1.342 . S
C2332 C2333 1.310 . S
C2332 C2335 1.461 . S
C2332 H2352 0.932 . S
C2333 C2331 1.408 . S
C2333 C2332 1.310 . S
C2333 H2353 0.930 . S
C2334 C2335 1.474 . S
C2334 C2336 1.285 . S
C2334 H2354 0.929 . S
C2335 C2332 1.461 . S
C2335 C2334 1.474 . S
C2336 C2331 1.342 . S
C2336 C2334 1.285 . S
C2336 H2355 0.930 . S
C2337 C2340 1.424 . S
C2337 C2342 1.245 . S
C2337 C2343 1.428 . S
C2338 C2341 1.260 . S
C2338 C2342 1.477 . S
C2338 H2356 0.932 . S
C2339 C2340 1.384 . S
C2339 C2341 1.479 . S
C2339 H2357 0.929 . S
C2340 C2337 1.424 . S
C2340 C2339 1.384 . S
C2340 H2358 0.928 . S
C2341 C2338 1.260 . S
C2341 C2339 1.479 . S
C2342 C2337 1.245 . S
C2342 C2338 1.477 . S
C2342 H2359 0.932 . S
C2343 U2326 2.882 . S
C2343 C2337 1.428 . S
C2343 O2346 1.301 . S
C2343 O2347 1.282 . S
O2344 U2326 2.441 . S
O2344 C2330 1.249 . S
O2345 U2326 2.420 . S
O2345 C2330 1.202 . S
O2346 U2326 2.455 . S
O2346 C2343 1.301 . S
O2347 U2326 2.449 . S
O2347 C2343 1.282 . S
H2348 C2321 0.931 . S
H2349 C2323 0.929 . S
H2350 C2324 0.930 . S
H2351 C2325 0.931 . S
H2352 C2332 0.932 . S
H2353 C2333 0.930 . S
H2354 C2334 0.929 . S
H2355 C2336 0.930 . S
H2356 C2338 0.932 . S
H2357 C2339 0.929 . S
H2358 C2340 0.928 . S
H2359 C2342 0.932 . S
C2360 C2361 1.264 . S
C2360 C2365 1.479 . S
C2360 C2370 1.465 . S
C2361 C2360 1.264 . S
C2361 C2363 1.339 . S
C2361 H2388 0.931 . S
C2362 C2363 1.395 . S
C2362 C2364 1.320 . S
C2363 C2361 1.339 . S
C2363 C2362 1.395 . S
C2363 H2389 0.929 . S
C2364 C2362 1.320 . S
C2364 C2365 1.405 . S
C2364 H2390 0.930 . S
C2365 C2360 1.479 . S
C2365 C2364 1.405 . S
C2365 H2391 0.931 . S
U2366 O2367 2.454 . S
U2366 O2368 2.458 . S
U2366 C2369 2.984 . S
U2366 C2370 2.847 . S
U2366 C2383 2.882 . S
U2366 O2384 2.441 . S
U2366 O2385 2.420 . S
U2366 O2386 2.455 . S
U2366 O2387 2.449 . S
O2367 U2366 2.454 . S
O2367 C2369 1.353 . S
O2368 U2366 2.458 . S
O2368 C2369 1.286 . S
C2369 U2366 2.984 . S
C2369 O2367 1.353 . S
C2369 O2368 1.286 . S
C2369 C2371 1.363 . S
C2370 C2360 1.465 . S
C2370 U2366 2.847 . S
C2370 O2384 1.249 . S
C2370 O2385 1.202 . S
C2371 C2369 1.363 . S
C2371 C2373 1.408 . S
C2371 C2376 1.342 . S
C2372 C2373 1.310 . S
C2372 C2375 1.461 . S
C2372 H2392 0.932 . S
C2373 C2371 1.408 . S
C2373 C2372 1.310 . S
C2373 H2393 0.930 . S
C2374 C2375 1.474 . S
C2374 C2376 1.285 . S
C2374 H2394 0.929 . S
C2375 C2372 1.461 . S
C2375 C2374 1.474 . S
C2376 C2371 1.342 . S
C2376 C2374 1.285 . S
C2376 H2395 0.930 . S
C2377 C2380 1.424 . S
C2377 C2382 1.245 . S
C2377 C2383 1.428 . S
C2378 C2381 1.260 . S
C2378 C2382 1.477 . S
C2378 H2396 0.932 . S
C2379 C2380 1.384 . S
C2379 C2381 1.479 . S
C2379 H2397 0.929 . S
C2380 C2377 1.424 . S
C2380 C2379 1.384 . S
C2380 H2398 0.928 . S
C2381 C2378 1.260 . S
C2381 C2379 1.479 . S
C2382 C2377 1.245 . S
C2382 C2378 1.477 . S
C2382 H2399 0.932 . S
C2383 U2366 2.882 . S
C2383 C2377 1.428 . S
C2383 O2386 1.301 . S
C2383 O2387 1.282 . S
O2384 U2366 2.441 . S
O2384 C2370 1.249 . S
O2385 U2366 2.420 . S
O2385 C2370 1.202 . S
O2386 U2366 2.455 . S
O2386 C2383 1.301 . S
O2387 U2366 2.449 . S
O2387 C2383 1.282 . S
H2388 C2361 0.931 . S
H2389 C2363 0.929 . S
H2390 C2364 0.930 . S
H2391 C2365 0.931 . S
H2392 C2372 0.932 . S
H2393 C2373 0.930 . S
H2394 C2374 0.929 . S
H2395 C2376 0.930 . S
H2396 C2378 0.932 . S
H2397 C2379 0.929 . S
H2398 C2380 0.928 . S
H2399 C2382 0.932 . S
C2400 C2401 1.264 . S
C2400 C2405 1.479 . S
C2400 C2410 1.465 . S
C2401 C2400 1.264 . S
C2401 C2403 1.339 . S
C2401 H2428 0.931 . S
C2402 C2403 1.395 . S
C2402 C2404 1.320 . S
C2403 C2401 1.339 . S
C2403 C2402 1.395 . S
C2403 H2429 0.929 . S
C2404 C2402 1.320 . S
C2404 C2405 1.405 . S
C2404 H2430 0.930 . S
C2405 C2400 1.479 . S
C2405 C2404 1.405 . S
C2405 H2431 0.931 . S
U2406 O2407 2.454 . S
U2406 O2408 2.458 . S
U2406 C2409 2.984 . S
U2406 C2410 2.847 . S
U2406 C2423 2.882 . S
U2406 O2424 2.441 . S
U2406 O2425 2.420 . S
U2406 O2426 2.455 . S
U2406 O2427 2.449 . S
O2407 U2406 2.454 . S
O2407 C2409 1.353 . S
O2408 U2406 2.458 . S
O2408 C2409 1.286 . S
C2409 U2406 2.984 . S
C2409 O2407 1.353 . S
C2409 O2408 1.286 . S
C2409 C2411 1.363 . S
C2410 C2400 1.465 . S
C2410 U2406 2.847 . S
C2410 O2424 1.249 . S
C2410 O2425 1.202 . S
C2411 C2409 1.363 . S
C2411 C2413 1.408 . S
C2411 C2416 1.342 . S
C2412 C2413 1.310 . S
C2412 C2415 1.461 . S
C2412 H2432 0.932 . S
C2413 C2411 1.408 . S
C2413 C2412 1.310 . S
C2413 H2433 0.930 . S
C2414 C2415 1.474 . S
C2414 C2416 1.285 . S
C2414 H2434 0.929 . S
C2415 C2412 1.461 . S
C2415 C2414 1.474 . S
C2416 C2411 1.342 . S
C2416 C2414 1.285 . S
C2416 H2435 0.930 . S
C2417 C2420 1.424 . S
C2417 C2422 1.245 . S
C2417 C2423 1.428 . S
C2418 C2421 1.260 . S
C2418 C2422 1.477 . S
C2418 H2436 0.932 . S
C2419 C2420 1.384 . S
C2419 C2421 1.479 . S
C2419 H2437 0.929 . S
C2420 C2417 1.424 . S
C2420 C2419 1.384 . S
C2420 H2438 0.928 . S
C2421 C2418 1.260 . S
C2421 C2419 1.479 . S
C2422 C2417 1.245 . S
C2422 C2418 1.477 . S
C2422 H2439 0.932 . S
C2423 U2406 2.882 . S
C2423 C2417 1.428 . S
C2423 O2426 1.301 . S
C2423 O2427 1.282 . S
O2424 U2406 2.441 . S
O2424 C2410 1.249 . S
O2425 U2406 2.420 . S
O2425 C2410 1.202 . S
O2426 U2406 2.455 . S
O2426 C2423 1.301 . S
O2427 U2406 2.449 . S
O2427 C2423 1.282 . S
H2428 C2401 0.931 . S
H2429 C2403 0.929 . S
H2430 C2404 0.930 . S
H2431 C2405 0.931 . S
H2432 C2412 0.932 . S
H2433 C2413 0.930 . S
H2434 C2414 0.929 . S
H2435 C2416 0.930 . S
H2436 C2418 0.932 . S
H2437 C2419 0.929 . S
H2438 C2420 0.928 . S
H2439 C2422 0.932 . S
C2440 C2441 1.264 . S
C2440 C2445 1.479 . S
C2440 C2450 1.465 . S
C2441 C2440 1.264 . S
C2441 C2443 1.339 . S
C2441 H2468 0.931 . S
C2442 C2443 1.395 . S
C2442 C2444 1.320 . S
C2443 C2441 1.339 . S
C2443 C2442 1.395 . S
C2443 H2469 0.929 . S
C2444 C2442 1.320 . S
C2444 C2445 1.405 . S
C2444 H2470 0.930 . S
C2445 C2440 1.479 . S
C2445 C2444 1.405 . S
C2445 H2471 0.931 . S
U2446 O2447 2.454 . S
U2446 O2448 2.458 . S
U2446 C2449 2.984 . S
U2446 C2450 2.847 . S
U2446 C2463 2.882 . S
U2446 O2464 2.441 . S
U2446 O2465 2.420 . S
U2446 O2466 2.455 . S
U2446 O2467 2.449 . S
O2447 U2446 2.454 . S
O2447 C2449 1.353 . S
O2448 U2446 2.458 . S
O2448 C2449 1.286 . S
C2449 U2446 2.984 . S
C2449 O2447 1.353 . S
C2449 O2448 1.286 . S
C2449 C2451 1.363 . S
C2450 C2440 1.465 . S
C2450 U2446 2.847 . S
C2450 O2464 1.249 . S
C2450 O2465 1.202 . S
C2451 C2449 1.363 . S
C2451 C2453 1.408 . S
C2451 C2456 1.342 . S
C2452 C2453 1.310 . S
C2452 C2455 1.461 . S
C2452 H2472 0.932 . S
C2453 C2451 1.408 . S
C2453 C2452 1.310 . S
C2453 H2473 0.930 . S
C2454 C2455 1.474 . S
C2454 C2456 1.285 . S
C2454 H2474 0.929 . S
C2455 C2452 1.461 . S
C2455 C2454 1.474 . S
C2456 C2451 1.342 . S
C2456 C2454 1.285 . S
C2456 H2475 0.930 . S
C2457 C2460 1.424 . S
C2457 C2462 1.245 . S
C2457 C2463 1.428 . S
C2458 C2461 1.260 . S
C2458 C2462 1.477 . S
C2458 H2476 0.932 . S
C2459 C2460 1.384 . S
C2459 C2461 1.479 . S
C2459 H2477 0.929 . S
C2460 C2457 1.424 . S
C2460 C2459 1.384 . S
C2460 H2478 0.928 . S
C2461 C2458 1.260 . S
C2461 C2459 1.479 . S
C2462 C2457 1.245 . S
C2462 C2458 1.477 . S
C2462 H2479 0.932 . S
C2463 U2446 2.882 . S
C2463 C2457 1.428 . S
C2463 O2466 1.301 . S
C2463 O2467 1.282 . S
O2464 U2446 2.441 . S
O2464 C2450 1.249 . S
O2465 U2446 2.420 . S
O2465 C2450 1.202 . S
O2466 U2446 2.455 . S
O2466 C2463 1.301 . S
O2467 U2446 2.449 . S
O2467 C2463 1.282 . S
H2468 C2441 0.931 . S
H2469 C2443 0.929 . S
H2470 C2444 0.930 . S
H2471 C2445 0.931 . S
H2472 C2452 0.932 . S
H2473 C2453 0.930 . S
H2474 C2454 0.929 . S
H2475 C2456 0.930 . S
H2476 C2458 0.932 . S
H2477 C2459 0.929 . S
H2478 C2460 0.928 . S
H2479 C2462 0.932 . S
C2480 C2481 1.264 . S
C2480 C2485 1.479 . S
C2480 C2490 1.465 . S
C2481 C2480 1.264 . S
C2481 C2483 1.339 . S
C2481 H2508 0.931 . S
C2482 C2483 1.395 . S
C2482 C2484 1.320 . S
C2483 C2481 1.339 . S
C2483 C2482 1.395 . S
C2483 H2509 0.929 . S
C2484 C2482 1.320 . S
C2484 C2485 1.405 . S
C2484 H2510 0.930 . S
C2485 C2480 1.479 . S
C2485 C2484 1.405 . S
C2485 H2511 0.931 . S
U2486 O2487 2.454 . S
U2486 O2488 2.458 . S
U2486 C2489 2.984 . S
U2486 C2490 2.847 . S
U2486 C2503 2.882 . S
U2486 O2504 2.441 . S
U2486 O2505 2.420 . S
U2486 O2506 2.455 . S
U2486 O2507 2.449 . S
O2487 U2486 2.454 . S
O2487 C2489 1.353 . S
O2488 U2486 2.458 . S
O2488 C2489 1.286 . S
C2489 U2486 2.984 . S
C2489 O2487 1.353 . S
C2489 O2488 1.286 . S
C2489 C2491 1.363 . S
C2490 C2480 1.465 . S
C2490 U2486 2.847 . S
C2490 O2504 1.249 . S
C2490 O2505 1.202 . S
C2491 C2489 1.363 . S
C2491 C2493 1.408 . S
C2491 C2496 1.342 . S
C2492 C2493 1.310 . S
C2492 C2495 1.461 . S
C2492 H2512 0.932 . S
C2493 C2491 1.408 . S
C2493 C2492 1.310 . S
C2493 H2513 0.930 . S
C2494 C2495 1.474 . S
C2494 C2496 1.285 . S
C2494 H2514 0.929 . S
C2495 C2492 1.461 . S
C2495 C2494 1.474 . S
C2496 C2491 1.342 . S
C2496 C2494 1.285 . S
C2496 H2515 0.930 . S
C2497 C2500 1.424 . S
C2497 C2502 1.245 . S
C2497 C2503 1.428 . S
C2498 C2501 1.260 . S
C2498 C2502 1.477 . S
C2498 H2516 0.932 . S
C2499 C2500 1.384 . S
C2499 C2501 1.479 . S
C2499 H2517 0.929 . S
C2500 C2497 1.424 . S
C2500 C2499 1.384 . S
C2500 H2518 0.928 . S
C2501 C2498 1.260 . S
C2501 C2499 1.479 . S
C2502 C2497 1.245 . S
C2502 C2498 1.477 . S
C2502 H2519 0.932 . S
C2503 U2486 2.882 . S
C2503 C2497 1.428 . S
C2503 O2506 1.301 . S
C2503 O2507 1.282 . S
O2504 U2486 2.441 . S
O2504 C2490 1.249 . S
O2505 U2486 2.420 . S
O2505 C2490 1.202 . S
O2506 U2486 2.455 . S
O2506 C2503 1.301 . S
O2507 U2486 2.449 . S
O2507 C2503 1.282 . S
H2508 C2481 0.931 . S
H2509 C2483 0.929 . S
H2510 C2484 0.930 . S
H2511 C2485 0.931 . S
H2512 C2492 0.932 . S
H2513 C2493 0.930 . S
H2514 C2494 0.929 . S
H2515 C2496 0.930 . S
H2516 C2498 0.932 . S
H2517 C2499 0.929 . S
H2518 C2500 0.928 . S
H2519 C2502 0.932 . S
C2520 C2521 1.264 . S
C2520 C2525 1.479 . S
C2520 C2530 1.465 . S
C2521 C2520 1.264 . S
C2521 C2523 1.339 . S
C2521 H2548 0.931 . S
C2522 C2523 1.395 . S
C2522 C2524 1.320 . S
C2523 C2521 1.339 . S
C2523 C2522 1.395 . S
C2523 H2549 0.929 . S
C2524 C2522 1.320 . S
C2524 C2525 1.405 . S
C2524 H2550 0.930 . S
C2525 C2520 1.479 . S
C2525 C2524 1.405 . S
C2525 H2551 0.931 . S
U2526 O2527 2.454 . S
U2526 O2528 2.458 . S
U2526 C2529 2.984 . S
U2526 C2530 2.847 . S
U2526 C2543 2.882 . S
U2526 O2544 2.441 . S
U2526 O2545 2.420 . S
U2526 O2546 2.455 . S
U2526 O2547 2.449 . S
O2527 U2526 2.454 . S
O2527 C2529 1.353 . S
O2528 U2526 2.458 . S
O2528 C2529 1.286 . S
C2529 U2526 2.984 . S
C2529 O2527 1.353 . S
C2529 O2528 1.286 . S
C2529 C2531 1.363 . S
C2530 C2520 1.465 . S
C2530 U2526 2.847 . S
C2530 O2544 1.249 . S
C2530 O2545 1.202 . S
C2531 C2529 1.363 . S
C2531 C2533 1.408 . S
C2531 C2536 1.342 . S
C2532 C2533 1.310 . S
C2532 C2535 1.461 . S
C2532 H2552 0.932 . S
C2533 C2531 1.408 . S
C2533 C2532 1.310 . S
C2533 H2553 0.930 . S
C2534 C2535 1.474 . S
C2534 C2536 1.285 . S
C2534 H2554 0.929 . S
C2535 C2532 1.461 . S
C2535 C2534 1.474 . S
C2536 C2531 1.342 . S
C2536 C2534 1.285 . S
C2536 H2555 0.930 . S
C2537 C2540 1.424 . S
C2537 C2542 1.245 . S
C2537 C2543 1.428 . S
C2538 C2541 1.260 . S
C2538 C2542 1.477 . S
C2538 H2556 0.932 . S
C2539 C2540 1.384 . S
C2539 C2541 1.479 . S
C2539 H2557 0.929 . S
C2540 C2537 1.424 . S
C2540 C2539 1.384 . S
C2540 H2558 0.928 . S
C2541 C2538 1.260 . S
C2541 C2539 1.479 . S
C2542 C2537 1.245 . S
C2542 C2538 1.477 . S
C2542 H2559 0.932 . S
C2543 U2526 2.882 . S
C2543 C2537 1.428 . S
C2543 O2546 1.301 . S
C2543 O2547 1.282 . S
O2544 U2526 2.441 . S
O2544 C2530 1.249 . S
O2545 U2526 2.420 . S
O2545 C2530 1.202 . S
O2546 U2526 2.455 . S
O2546 C2543 1.301 . S
O2547 U2526 2.449 . S
O2547 C2543 1.282 . S
H2548 C2521 0.931 . S
H2549 C2523 0.929 . S
H2550 C2524 0.930 . S
H2551 C2525 0.931 . S
H2552 C2532 0.932 . S
H2553 C2533 0.930 . S
H2554 C2534 0.929 . S
H2555 C2536 0.930 . S
H2556 C2538 0.932 . S
H2557 C2539 0.929 . S
H2558 C2540 0.928 . S
H2559 C2542 0.932 . S
C2560 C2561 1.264 . S
C2560 C2565 1.479 . S
C2560 C2570 1.465 . S
C2561 C2560 1.264 . S
C2561 C2563 1.339 . S
C2561 H2588 0.931 . S
C2562 C2563 1.395 . S
C2562 C2564 1.320 . S
C2563 C2561 1.339 . S
C2563 C2562 1.395 . S
C2563 H2589 0.929 . S
C2564 C2562 1.320 . S
C2564 C2565 1.405 . S
C2564 H2590 0.930 . S
C2565 C2560 1.479 . S
C2565 C2564 1.405 . S
C2565 H2591 0.931 . S
U2566 O2567 2.454 . S
U2566 O2568 2.458 . S
U2566 C2569 2.984 . S
U2566 C2570 2.847 . S
U2566 C2583 2.882 . S
U2566 O2584 2.441 . S
U2566 O2585 2.420 . S
U2566 O2586 2.455 . S
U2566 O2587 2.449 . S
O2567 U2566 2.454 . S
O2567 C2569 1.353 . S
O2568 U2566 2.458 . S
O2568 C2569 1.286 . S
C2569 U2566 2.984 . S
C2569 O2567 1.353 . S
C2569 O2568 1.286 . S
C2569 C2571 1.363 . S
C2570 C2560 1.465 . S
C2570 U2566 2.847 . S
C2570 O2584 1.249 . S
C2570 O2585 1.202 . S
C2571 C2569 1.363 . S
C2571 C2573 1.408 . S
C2571 C2576 1.342 . S
C2572 C2573 1.310 . S
C2572 C2575 1.461 . S
C2572 H2592 0.932 . S
C2573 C2571 1.408 . S
C2573 C2572 1.310 . S
C2573 H2593 0.930 . S
C2574 C2575 1.474 . S
C2574 C2576 1.285 . S
C2574 H2594 0.929 . S
C2575 C2572 1.461 . S
C2575 C2574 1.474 . S
C2576 C2571 1.342 . S
C2576 C2574 1.285 . S
C2576 H2595 0.930 . S
C2577 C2580 1.424 . S
C2577 C2582 1.245 . S
C2577 C2583 1.428 . S
C2578 C2581 1.260 . S
C2578 C2582 1.477 . S
C2578 H2596 0.932 . S
C2579 C2580 1.384 . S
C2579 C2581 1.479 . S
C2579 H2597 0.929 . S
C2580 C2577 1.424 . S
C2580 C2579 1.384 . S
C2580 H2598 0.928 . S
C2581 C2578 1.260 . S
C2581 C2579 1.479 . S
C2582 C2577 1.245 . S
C2582 C2578 1.477 . S
C2582 H2599 0.932 . S
C2583 U2566 2.882 . S
C2583 C2577 1.428 . S
C2583 O2586 1.301 . S
C2583 O2587 1.282 . S
O2584 U2566 2.441 . S
O2584 C2570 1.249 . S
O2585 U2566 2.420 . S
O2585 C2570 1.202 . S
O2586 U2566 2.455 . S
O2586 C2583 1.301 . S
O2587 U2566 2.449 . S
O2587 C2583 1.282 . S
H2588 C2561 0.931 . S
H2589 C2563 0.929 . S
H2590 C2564 0.930 . S
H2591 C2565 0.931 . S
H2592 C2572 0.932 . S
H2593 C2573 0.930 . S
H2594 C2574 0.929 . S
H2595 C2576 0.930 . S
H2596 C2578 0.932 . S
H2597 C2579 0.929 . S
H2598 C2580 0.928 . S
H2599 C2582 0.932 . S
C2600 C2601 1.264 . S
C2600 C2605 1.479 . S
C2600 C2610 1.465 . S
C2601 C2600 1.264 . S
C2601 C2603 1.339 . S
C2601 H2628 0.931 . S
C2602 C2603 1.395 . S
C2602 C2604 1.320 . S
C2603 C2601 1.339 . S
C2603 C2602 1.395 . S
C2603 H2629 0.929 . S
C2604 C2602 1.320 . S
C2604 C2605 1.405 . S
C2604 H2630 0.930 . S
C2605 C2600 1.479 . S
C2605 C2604 1.405 . S
C2605 H2631 0.931 . S
U2606 O2607 2.454 . S
U2606 O2608 2.458 . S
U2606 C2609 2.984 . S
U2606 C2610 2.847 . S
U2606 C2623 2.882 . S
U2606 O2624 2.441 . S
U2606 O2625 2.420 . S
U2606 O2626 2.455 . S
U2606 O2627 2.449 . S
O2607 U2606 2.454 . S
O2607 C2609 1.353 . S
O2608 U2606 2.458 . S
O2608 C2609 1.286 . S
C2609 U2606 2.984 . S
C2609 O2607 1.353 . S
C2609 O2608 1.286 . S
C2609 C2611 1.363 . S
C2610 C2600 1.465 . S
C2610 U2606 2.847 . S
C2610 O2624 1.249 . S
C2610 O2625 1.202 . S
C2611 C2609 1.363 . S
C2611 C2613 1.408 . S
C2611 C2616 1.342 . S
C2612 C2613 1.310 . S
C2612 C2615 1.461 . S
C2612 H2632 0.932 . S
C2613 C2611 1.408 . S
C2613 C2612 1.310 . S
C2613 H2633 0.930 . S
C2614 C2615 1.474 . S
C2614 C2616 1.285 . S
C2614 H2634 0.929 . S
C2615 C2612 1.461 . S
C2615 C2614 1.474 . S
C2616 C2611 1.342 . S
C2616 C2614 1.285 . S
C2616 H2635 0.930 . S
C2617 C2620 1.424 . S
C2617 C2622 1.245 . S
C2617 C2623 1.428 . S
C2618 C2621 1.260 . S
C2618 C2622 1.477 . S
C2618 H2636 0.932 . S
C2619 C2620 1.384 . S
C2619 C2621 1.479 . S
C2619 H2637 0.929 . S
C2620 C2617 1.424 . S
C2620 C2619 1.384 . S
C2620 H2638 0.928 . S
C2621 C2618 1.260 . S
C2621 C2619 1.479 . S
C2622 C2617 1.245 . S
C2622 C2618 1.477 . S
C2622 H2639 0.932 . S
C2623 U2606 2.882 . S
C2623 C2617 1.428 . S
C2623 O2626 1.301 . S
C2623 O2627 1.282 . S
O2624 U2606 2.441 . S
O2624 C2610 1.249 . S
O2625 U2606 2.420 . S
O2625 C2610 1.202 . S
O2626 U2606 2.455 . S
O2626 C2623 1.301 . S
O2627 U2606 2.449 . S
O2627 C2623 1.282 . S
H2628 C2601 0.931 . S
H2629 C2603 0.929 . S
H2630 C2604 0.930 . S
H2631 C2605 0.931 . S
H2632 C2612 0.932 . S
H2633 C2613 0.930 . S
H2634 C2614 0.929 . S
H2635 C2616 0.930 . S
H2636 C2618 0.932 . S
H2637 C2619 0.929 . S
H2638 C2620 0.928 . S
H2639 C2622 0.932 . S
C2640 C2641 1.264 . S
C2640 C2645 1.479 . S
C2640 C2650 1.465 . S
C2641 C2640 1.264 . S
C2641 C2643 1.339 . S
C2641 H2668 0.931 . S
C2642 C2643 1.395 . S
C2642 C2644 1.320 . S
C2643 C2641 1.339 . S
C2643 C2642 1.395 . S
C2643 H2669 0.929 . S
C2644 C2642 1.320 . S
C2644 C2645 1.405 . S
C2644 H2670 0.930 . S
C2645 C2640 1.479 . S
C2645 C2644 1.405 . S
C2645 H2671 0.931 . S
U2646 O2647 2.454 . S
U2646 O2648 2.458 . S
U2646 C2649 2.984 . S
U2646 C2650 2.847 . S
U2646 C2663 2.882 . S
U2646 O2664 2.441 . S
U2646 O2665 2.420 . S
U2646 O2666 2.455 . S
U2646 O2667 2.449 . S
O2647 U2646 2.454 . S
O2647 C2649 1.353 . S
O2648 U2646 2.458 . S
O2648 C2649 1.286 . S
C2649 U2646 2.984 . S
C2649 O2647 1.353 . S
C2649 O2648 1.286 . S
C2649 C2651 1.363 . S
C2650 C2640 1.465 . S
C2650 U2646 2.847 . S
C2650 O2664 1.249 . S
C2650 O2665 1.202 . S
C2651 C2649 1.363 . S
C2651 C2653 1.408 . S
C2651 C2656 1.342 . S
C2652 C2653 1.310 . S
C2652 C2655 1.461 . S
C2652 H2672 0.932 . S
C2653 C2651 1.408 . S
C2653 C2652 1.310 . S
C2653 H2673 0.930 . S
C2654 C2655 1.474 . S
C2654 C2656 1.285 . S
C2654 H2674 0.929 . S
C2655 C2652 1.461 . S
C2655 C2654 1.474 . S
C2656 C2651 1.342 . S
C2656 C2654 1.285 . S
C2656 H2675 0.930 . S
C2657 C2660 1.424 . S
C2657 C2662 1.245 . S
C2657 C2663 1.428 . S
C2658 C2661 1.260 . S
C2658 C2662 1.477 . S
C2658 H2676 0.932 . S
C2659 C2660 1.384 . S
C2659 C2661 1.479 . S
C2659 H2677 0.929 . S
C2660 C2657 1.424 . S
C2660 C2659 1.384 . S
C2660 H2678 0.928 . S
C2661 C2658 1.260 . S
C2661 C2659 1.479 . S
C2662 C2657 1.245 . S
C2662 C2658 1.477 . S
C2662 H2679 0.932 . S
C2663 U2646 2.882 . S
C2663 C2657 1.428 . S
C2663 O2666 1.301 . S
C2663 O2667 1.282 . S
O2664 U2646 2.441 . S
O2664 C2650 1.249 . S
O2665 U2646 2.420 . S
O2665 C2650 1.202 . S
O2666 U2646 2.455 . S
O2666 C2663 1.301 . S
O2667 U2646 2.449 . S
O2667 C2663 1.282 . S
H2668 C2641 0.931 . S
H2669 C2643 0.929 . S
H2670 C2644 0.930 . S
H2671 C2645 0.931 . S
H2672 C2652 0.932 . S
H2673 C2653 0.930 . S
H2674 C2654 0.929 . S
H2675 C2656 0.930 . S
H2676 C2658 0.932 . S
H2677 C2659 0.929 . S
H2678 C2660 0.928 . S
H2679 C2662 0.932 . S
C2680 C2681 1.264 . S
C2680 C2685 1.479 . S
C2680 C2690 1.465 . S
C2681 C2680 1.264 . S
C2681 C2683 1.339 . S
C2681 H2708 0.931 . S
C2682 C2683 1.395 . S
C2682 C2684 1.320 . S
C2683 C2681 1.339 . S
C2683 C2682 1.395 . S
C2683 H2709 0.929 . S
C2684 C2682 1.320 . S
C2684 C2685 1.405 . S
C2684 H2710 0.930 . S
C2685 C2680 1.479 . S
C2685 C2684 1.405 . S
C2685 H2711 0.931 . S
U2686 O2687 2.454 . S
U2686 O2688 2.458 . S
U2686 C2689 2.984 . S
U2686 C2690 2.847 . S
U2686 C2703 2.882 . S
U2686 O2704 2.441 . S
U2686 O2705 2.420 . S
U2686 O2706 2.455 . S
U2686 O2707 2.449 . S
O2687 U2686 2.454 . S
O2687 C2689 1.353 . S
O2688 U2686 2.458 . S
O2688 C2689 1.286 . S
C2689 U2686 2.984 . S
C2689 O2687 1.353 . S
C2689 O2688 1.286 . S
C2689 C2691 1.363 . S
C2690 C2680 1.465 . S
C2690 U2686 2.847 . S
C2690 O2704 1.249 . S
C2690 O2705 1.202 . S
C2691 C2689 1.363 . S
C2691 C2693 1.408 . S
C2691 C2696 1.342 . S
C2692 C2693 1.310 . S
C2692 C2695 1.461 . S
C2692 H2712 0.932 . S
C2693 C2691 1.408 . S
C2693 C2692 1.310 . S
C2693 H2713 0.930 . S
C2694 C2695 1.474 . S
C2694 C2696 1.285 . S
C2694 H2714 0.929 . S
C2695 C2692 1.461 . S
C2695 C2694 1.474 . S
C2696 C2691 1.342 . S
C2696 C2694 1.285 . S
C2696 H2715 0.930 . S
C2697 C2700 1.424 . S
C2697 C2702 1.245 . S
C2697 C2703 1.428 . S
C2698 C2701 1.260 . S
C2698 C2702 1.477 . S
C2698 H2716 0.932 . S
C2699 C2700 1.384 . S
C2699 C2701 1.479 . S
C2699 H2717 0.929 . S
C2700 C2697 1.424 . S
C2700 C2699 1.384 . S
C2700 H2718 0.928 . S
C2701 C2698 1.260 . S
C2701 C2699 1.479 . S
C2702 C2697 1.245 . S
C2702 C2698 1.477 . S
C2702 H2719 0.932 . S
C2703 U2686 2.882 . S
C2703 C2697 1.428 . S
C2703 O2706 1.301 . S
C2703 O2707 1.282 . S
O2704 U2686 2.441 . S
O2704 C2690 1.249 . S
O2705 U2686 2.420 . S
O2705 C2690 1.202 . S
O2706 U2686 2.455 . S
O2706 C2703 1.301 . S
O2707 U2686 2.449 . S
O2707 C2703 1.282 . S
H2708 C2681 0.931 . S
H2709 C2683 0.929 . S
H2710 C2684 0.930 . S
H2711 C2685 0.931 . S
H2712 C2692 0.932 . S
H2713 C2693 0.930 . S
H2714 C2694 0.929 . S
H2715 C2696 0.930 . S
H2716 C2698 0.932 . S
H2717 C2699 0.929 . S
H2718 C2700 0.928 . S
H2719 C2702 0.932 . S
C2720 C2721 1.264 . S
C2720 C2725 1.479 . S
C2720 C2730 1.465 . S
C2721 C2720 1.264 . S
C2721 C2723 1.339 . S
C2721 H2748 0.931 . S
C2722 C2723 1.395 . S
C2722 C2724 1.320 . S
C2723 C2721 1.339 . S
C2723 C2722 1.395 . S
C2723 H2749 0.929 . S
C2724 C2722 1.320 . S
C2724 C2725 1.405 . S
C2724 H2750 0.930 . S
C2725 C2720 1.479 . S
C2725 C2724 1.405 . S
C2725 H2751 0.931 . S
U2726 O2727 2.454 . S
U2726 O2728 2.458 . S
U2726 C2729 2.984 . S
U2726 C2730 2.847 . S
U2726 C2743 2.882 . S
U2726 O2744 2.441 . S
U2726 O2745 2.420 . S
U2726 O2746 2.455 . S
U2726 O2747 2.449 . S
O2727 U2726 2.454 . S
O2727 C2729 1.353 . S
O2728 U2726 2.458 . S
O2728 C2729 1.286 . S
C2729 U2726 2.984 . S
C2729 O2727 1.353 . S
C2729 O2728 1.286 . S
C2729 C2731 1.363 . S
C2730 C2720 1.465 . S
C2730 U2726 2.847 . S
C2730 O2744 1.249 . S
C2730 O2745 1.202 . S
C2731 C2729 1.363 . S
C2731 C2733 1.408 . S
C2731 C2736 1.342 . S
C2732 C2733 1.310 . S
C2732 C2735 1.461 . S
C2732 H2752 0.932 . S
C2733 C2731 1.408 . S
C2733 C2732 1.310 . S
C2733 H2753 0.930 . S
C2734 C2735 1.474 . S
C2734 C2736 1.285 . S
C2734 H2754 0.929 . S
C2735 C2732 1.461 . S
C2735 C2734 1.474 . S
C2736 C2731 1.342 . S
C2736 C2734 1.285 . S
C2736 H2755 0.930 . S
C2737 C2740 1.424 . S
C2737 C2742 1.245 . S
C2737 C2743 1.428 . S
C2738 C2741 1.260 . S
C2738 C2742 1.477 . S
C2738 H2756 0.932 . S
C2739 C2740 1.384 . S
C2739 C2741 1.479 . S
C2739 H2757 0.929 . S
C2740 C2737 1.424 . S
C2740 C2739 1.384 . S
C2740 H2758 0.928 . S
C2741 C2738 1.260 . S
C2741 C2739 1.479 . S
C2742 C2737 1.245 . S
C2742 C2738 1.477 . S
C2742 H2759 0.932 . S
C2743 U2726 2.882 . S
C2743 C2737 1.428 . S
C2743 O2746 1.301 . S
C2743 O2747 1.282 . S
O2744 U2726 2.441 . S
O2744 C2730 1.249 . S
O2745 U2726 2.420 . S
O2745 C2730 1.202 . S
O2746 U2726 2.455 . S
O2746 C2743 1.301 . S
O2747 U2726 2.449 . S
O2747 C2743 1.282 . S
H2748 C2721 0.931 . S
H2749 C2723 0.929 . S
H2750 C2724 0.930 . S
H2751 C2725 0.931 . S
H2752 C2732 0.932 . S
H2753 C2733 0.930 . S
H2754 C2734 0.929 . S
H2755 C2736 0.930 . S
H2756 C2738 0.932 . S
H2757 C2739 0.929 . S
H2758 C2740 0.928 . S
H2759 C2742 0.932 . S
C2760 C2761 1.264 . S
C2760 C2765 1.479 . S
C2760 C2770 1.465 . S
C2761 C2760 1.264 . S
C2761 C2763 1.339 . S
C2761 H2788 0.931 . S
C2762 C2763 1.395 . S
C2762 C2764 1.320 . S
C2763 C2761 1.339 . S
C2763 C2762 1.395 . S
C2763 H2789 0.929 . S
C2764 C2762 1.320 . S
C2764 C2765 1.405 . S
C2764 H2790 0.930 . S
C2765 C2760 1.479 . S
C2765 C2764 1.405 . S
C2765 H2791 0.931 . S
U2766 O2767 2.454 . S
U2766 O2768 2.458 . S
U2766 C2769 2.984 . S
U2766 C2770 2.847 . S
U2766 C2783 2.882 . S
U2766 O2784 2.441 . S
U2766 O2785 2.420 . S
U2766 O2786 2.455 . S
U2766 O2787 2.449 . S
O2767 U2766 2.454 . S
O2767 C2769 1.353 . S
O2768 U2766 2.458 . S
O2768 C2769 1.286 . S
C2769 U2766 2.984 . S
C2769 O2767 1.353 . S
C2769 O2768 1.286 . S
C2769 C2771 1.363 . S
C2770 C2760 1.465 . S
C2770 U2766 2.847 . S
C2770 O2784 1.249 . S
C2770 O2785 1.202 . S
C2771 C2769 1.363 . S
C2771 C2773 1.408 . S
C2771 C2776 1.342 . S
C2772 C2773 1.310 . S
C2772 C2775 1.461 . S
C2772 H2792 0.932 . S
C2773 C2771 1.408 . S
C2773 C2772 1.310 . S
C2773 H2793 0.930 . S
C2774 C2775 1.474 . S
C2774 C2776 1.285 . S
C2774 H2794 0.929 . S
C2775 C2772 1.461 . S
C2775 C2774 1.474 . S
C2776 C2771 1.342 . S
C2776 C2774 1.285 . S
C2776 H2795 0.930 . S
C2777 C2780 1.424 . S
C2777 C2782 1.245 . S
C2777 C2783 1.428 . S
C2778 C2781 1.260 . S
C2778 C2782 1.477 . S
C2778 H2796 0.932 . S
C2779 C2780 1.384 . S
C2779 C2781 1.479 . S
C2779 H2797 0.929 . S
C2780 C2777 1.424 . S
C2780 C2779 1.384 . S
C2780 H2798 0.928 . S
C2781 C2778 1.260 . S
C2781 C2779 1.479 . S
C2782 C2777 1.245 . S
C2782 C2778 1.477 . S
C2782 H2799 0.932 . S
C2783 U2766 2.882 . S
C2783 C2777 1.428 . S
C2783 O2786 1.301 . S
C2783 O2787 1.282 . S
O2784 U2766 2.441 . S
O2784 C2770 1.249 . S
O2785 U2766 2.420 . S
O2785 C2770 1.202 . S
O2786 U2766 2.455 . S
O2786 C2783 1.301 . S
O2787 U2766 2.449 . S
O2787 C2783 1.282 . S
H2788 C2761 0.931 . S
H2789 C2763 0.929 . S
H2790 C2764 0.930 . S
H2791 C2765 0.931 . S
H2792 C2772 0.932 . S
H2793 C2773 0.930 . S
H2794 C2774 0.929 . S
H2795 C2776 0.930 . S
H2796 C2778 0.932 . S
H2797 C2779 0.929 . S
H2798 C2780 0.928 . S
H2799 C2782 0.932 . S
C2800 C2801 1.264 . S
C2800 C2805 1.479 . S
C2800 C2810 1.465 . S
C2801 C2800 1.264 . S
C2801 C2803 1.339 . S
C2801 H2828 0.931 . S
C2802 C2803 1.395 . S
C2802 C2804 1.320 . S
C2803 C2801 1.339 . S
C2803 C2802 1.395 . S
C2803 H2829 0.929 . S
C2804 C2802 1.320 . S
C2804 C2805 1.405 . S
C2804 H2830 0.930 . S
C2805 C2800 1.479 . S
C2805 C2804 1.405 . S
C2805 H2831 0.931 . S
U2806 O2807 2.454 . S
U2806 O2808 2.458 . S
U2806 C2809 2.984 . S
U2806 C2810 2.847 . S
U2806 C2823 2.882 . S
U2806 O2824 2.441 . S
U2806 O2825 2.420 . S
U2806 O2826 2.455 . S
U2806 O2827 2.449 . S
O2807 U2806 2.454 . S
O2807 C2809 1.353 . S
O2808 U2806 2.458 . S
O2808 C2809 1.286 . S
C2809 U2806 2.984 . S
C2809 O2807 1.353 . S
C2809 O2808 1.286 . S
C2809 C2811 1.363 . S
C2810 C2800 1.465 . S
C2810 U2806 2.847 . S
C2810 O2824 1.249 . S
C2810 O2825 1.202 . S
C2811 C2809 1.363 . S
C2811 C2813 1.408 . S
C2811 C2816 1.342 . S
C2812 C2813 1.310 . S
C2812 C2815 1.461 . S
C2812 H2832 0.932 . S
C2813 C2811 1.408 . S
C2813 C2812 1.310 . S
C2813 H2833 0.930 . S
C2814 C2815 1.474 . S
C2814 C2816 1.285 . S
C2814 H2834 0.929 . S
C2815 C2812 1.461 . S
C2815 C2814 1.474 . S
C2816 C2811 1.342 . S
C2816 C2814 1.285 . S
C2816 H2835 0.930 . S
C2817 C2820 1.424 . S
C2817 C2822 1.245 . S
C2817 C2823 1.428 . S
C2818 C2821 1.260 . S
C2818 C2822 1.477 . S
C2818 H2836 0.932 . S
C2819 C2820 1.384 . S
C2819 C2821 1.479 . S
C2819 H2837 0.929 . S
C2820 C2817 1.424 . S
C2820 C2819 1.384 . S
C2820 H2838 0.928 . S
C2821 C2818 1.260 . S
C2821 C2819 1.479 . S
C2822 C2817 1.245 . S
C2822 C2818 1.477 . S
C2822 H2839 0.932 . S
C2823 U2806 2.882 . S
C2823 C2817 1.428 . S
C2823 O2826 1.301 . S
C2823 O2827 1.282 . S
O2824 U2806 2.441 . S
O2824 C2810 1.249 . S
O2825 U2806 2.420 . S
O2825 C2810 1.202 . S
O2826 U2806 2.455 . S
O2826 C2823 1.301 . S
O2827 U2806 2.449 . S
O2827 C2823 1.282 . S
H2828 C2801 0.931 . S
H2829 C2803 0.929 . S
H2830 C2804 0.930 . S
H2831 C2805 0.931 . S
H2832 C2812 0.932 . S
H2833 C2813 0.930 . S
H2834 C2814 0.929 . S
H2835 C2816 0.930 . S
H2836 C2818 0.932 . S
H2837 C2819 0.929 . S
H2838 C2820 0.928 . S
H2839 C2822 0.932 . S
C2840 C2841 1.264 . S
C2840 C2845 1.479 . S
C2840 C2850 1.465 . S
C2841 C2840 1.264 . S
C2841 C2843 1.339 . S
C2841 H2868 0.931 . S
C2842 C2843 1.395 . S
C2842 C2844 1.320 . S
C2843 C2841 1.339 . S
C2843 C2842 1.395 . S
C2843 H2869 0.929 . S
C2844 C2842 1.320 . S
C2844 C2845 1.405 . S
C2844 H2870 0.930 . S
C2845 C2840 1.479 . S
C2845 C2844 1.405 . S
C2845 H2871 0.931 . S
U2846 O2847 2.454 . S
U2846 O2848 2.458 . S
U2846 C2849 2.984 . S
U2846 C2850 2.847 . S
U2846 C2863 2.882 . S
U2846 O2864 2.441 . S
U2846 O2865 2.420 . S
U2846 O2866 2.455 . S
U2846 O2867 2.449 . S
O2847 U2846 2.454 . S
O2847 C2849 1.353 . S
O2848 U2846 2.458 . S
O2848 C2849 1.286 . S
C2849 U2846 2.984 . S
C2849 O2847 1.353 . S
C2849 O2848 1.286 . S
C2849 C2851 1.363 . S
C2850 C2840 1.465 . S
C2850 U2846 2.847 . S
C2850 O2864 1.249 . S
C2850 O2865 1.202 . S
C2851 C2849 1.363 . S
C2851 C2853 1.408 . S
C2851 C2856 1.342 . S
C2852 C2853 1.310 . S
C2852 C2855 1.461 . S
C2852 H2872 0.932 . S
C2853 C2851 1.408 . S
C2853 C2852 1.310 . S
C2853 H2873 0.930 . S
C2854 C2855 1.474 . S
C2854 C2856 1.285 . S
C2854 H2874 0.929 . S
C2855 C2852 1.461 . S
C2855 C2854 1.474 . S
C2856 C2851 1.342 . S
C2856 C2854 1.285 . S
C2856 H2875 0.930 . S
C2857 C2860 1.424 . S
C2857 C2862 1.245 . S
C2857 C2863 1.428 . S
C2858 C2861 1.260 . S
C2858 C2862 1.477 . S
C2858 H2876 0.932 . S
C2859 C2860 1.384 . S
C2859 C2861 1.479 . S
C2859 H2877 0.929 . S
C2860 C2857 1.424 . S
C2860 C2859 1.384 . S
C2860 H2878 0.928 . S
C2861 C2858 1.260 . S
C2861 C2859 1.479 . S
C2862 C2857 1.245 . S
C2862 C2858 1.477 . S
C2862 H2879 0.932 . S
C2863 U2846 2.882 . S
C2863 C2857 1.428 . S
C2863 O2866 1.301 . S
C2863 O2867 1.282 . S
O2864 U2846 2.441 . S
O2864 C2850 1.249 . S
O2865 U2846 2.420 . S
O2865 C2850 1.202 . S
O2866 U2846 2.455 . S
O2866 C2863 1.301 . S
O2867 U2846 2.449 . S
O2867 C2863 1.282 . S
H2868 C2841 0.931 . S
H2869 C2843 0.929 . S
H2870 C2844 0.930 . S
H2871 C2845 0.931 . S
H2872 C2852 0.932 . S
H2873 C2853 0.930 . S
H2874 C2854 0.929 . S
H2875 C2856 0.930 . S
H2876 C2858 0.932 . S
H2877 C2859 0.929 . S
H2878 C2860 0.928 . S
H2879 C2862 0.932 . S
C2880 C2881 1.264 . S
C2880 C2885 1.479 . S
C2880 C2890 1.465 . S
C2881 C2880 1.264 . S
C2881 C2883 1.339 . S
C2881 H2908 0.931 . S
C2882 C2883 1.395 . S
C2882 C2884 1.320 . S
C2883 C2881 1.339 . S
C2883 C2882 1.395 . S
C2883 H2909 0.929 . S
C2884 C2882 1.320 . S
C2884 C2885 1.405 . S
C2884 H2910 0.930 . S
C2885 C2880 1.479 . S
C2885 C2884 1.405 . S
C2885 H2911 0.931 . S
U2886 O2887 2.454 . S
U2886 O2888 2.458 . S
U2886 C2889 2.984 . S
U2886 C2890 2.847 . S
U2886 C2903 2.882 . S
U2886 O2904 2.441 . S
U2886 O2905 2.420 . S
U2886 O2906 2.455 . S
U2886 O2907 2.449 . S
O2887 U2886 2.454 . S
O2887 C2889 1.353 . S
O2888 U2886 2.458 . S
O2888 C2889 1.286 . S
C2889 U2886 2.984 . S
C2889 O2887 1.353 . S
C2889 O2888 1.286 . S
C2889 C2891 1.363 . S
C2890 C2880 1.465 . S
C2890 U2886 2.847 . S
C2890 O2904 1.249 . S
C2890 O2905 1.202 . S
C2891 C2889 1.363 . S
C2891 C2893 1.408 . S
C2891 C2896 1.342 . S
C2892 C2893 1.310 . S
C2892 C2895 1.461 . S
C2892 H2912 0.932 . S
C2893 C2891 1.408 . S
C2893 C2892 1.310 . S
C2893 H2913 0.930 . S
C2894 C2895 1.474 . S
C2894 C2896 1.285 . S
C2894 H2914 0.929 . S
C2895 C2892 1.461 . S
C2895 C2894 1.474 . S
C2896 C2891 1.342 . S
C2896 C2894 1.285 . S
C2896 H2915 0.930 . S
C2897 C2900 1.424 . S
C2897 C2902 1.245 . S
C2897 C2903 1.428 . S
C2898 C2901 1.260 . S
C2898 C2902 1.477 . S
C2898 H2916 0.932 . S
C2899 C2900 1.384 . S
C2899 C2901 1.479 . S
C2899 H2917 0.929 . S
C2900 C2897 1.424 . S
C2900 C2899 1.384 . S
C2900 H2918 0.928 . S
C2901 C2898 1.260 . S
C2901 C2899 1.479 . S
C2902 C2897 1.245 . S
C2902 C2898 1.477 . S
C2902 H2919 0.932 . S
C2903 U2886 2.882 . S
C2903 C2897 1.428 . S
C2903 O2906 1.301 . S
C2903 O2907 1.282 . S
O2904 U2886 2.441 . S
O2904 C2890 1.249 . S
O2905 U2886 2.420 . S
O2905 C2890 1.202 . S
O2906 U2886 2.455 . S
O2906 C2903 1.301 . S
O2907 U2886 2.449 . S
O2907 C2903 1.282 . S
H2908 C2881 0.931 . S
H2909 C2883 0.929 . S
H2910 C2884 0.930 . S
H2911 C2885 0.931 . S
H2912 C2892 0.932 . S
H2913 C2893 0.930 . S
H2914 C2894 0.929 . S
H2915 C2896 0.930 . S
H2916 C2898 0.932 . S
H2917 C2899 0.929 . S
H2918 C2900 0.928 . S
H2919 C2902 0.932 . S
C2920 C2921 1.264 . S
C2920 C2925 1.479 . S
C2920 C2930 1.465 . S
C2921 C2920 1.264 . S
C2921 C2923 1.339 . S
C2921 H2948 0.931 . S
C2922 C2923 1.395 . S
C2922 C2924 1.320 . S
C2923 C2921 1.339 . S
C2923 C2922 1.395 . S
C2923 H2949 0.929 . S
C2924 C2922 1.320 . S
C2924 C2925 1.405 . S
C2924 H2950 0.930 . S
C2925 C2920 1.479 . S
C2925 C2924 1.405 . S
C2925 H2951 0.931 . S
U2926 O2927 2.454 . S
U2926 O2928 2.458 . S
U2926 C2929 2.984 . S
U2926 C2930 2.847 . S
U2926 C2943 2.882 . S
U2926 O2944 2.441 . S
U2926 O2945 2.420 . S
U2926 O2946 2.455 . S
U2926 O2947 2.449 . S
O2927 U2926 2.454 . S
O2927 C2929 1.353 . S
O2928 U2926 2.458 . S
O2928 C2929 1.286 . S
C2929 U2926 2.984 . S
C2929 O2927 1.353 . S
C2929 O2928 1.286 . S
C2929 C2931 1.363 . S
C2930 C2920 1.465 . S
C2930 U2926 2.847 . S
C2930 O2944 1.249 . S
C2930 O2945 1.202 . S
C2931 C2929 1.363 . S
C2931 C2933 1.408 . S
C2931 C2936 1.342 . S
C2932 C2933 1.310 . S
C2932 C2935 1.461 . S
C2932 H2952 0.932 . S
C2933 C2931 1.408 . S
C2933 C2932 1.310 . S
C2933 H2953 0.930 . S
C2934 C2935 1.474 . S
C2934 C2936 1.285 . S
C2934 H2954 0.929 . S
C2935 C2932 1.461 . S
C2935 C2934 1.474 . S
C2936 C2931 1.342 . S
C2936 C2934 1.285 . S
C2936 H2955 0.930 . S
C2937 C2940 1.424 . S
C2937 C2942 1.245 . S
C2937 C2943 1.428 . S
C2938 C2941 1.260 . S
C2938 C2942 1.477 . S
C2938 H2956 0.932 . S
C2939 C2940 1.384 . S
C2939 C2941 1.479 . S
C2939 H2957 0.929 . S
C2940 C2937 1.424 . S
C2940 C2939 1.384 . S
C2940 H2958 0.928 . S
C2941 C2938 1.260 . S
C2941 C2939 1.479 . S
C2942 C2937 1.245 . S
C2942 C2938 1.477 . S
C2942 H2959 0.932 . S
C2943 U2926 2.882 . S
C2943 C2937 1.428 . S
C2943 O2946 1.301 . S
C2943 O2947 1.282 . S
O2944 U2926 2.441 . S
O2944 C2930 1.249 . S
O2945 U2926 2.420 . S
O2945 C2930 1.202 . S
O2946 U2926 2.455 . S
O2946 C2943 1.301 . S
O2947 U2926 2.449 . S
O2947 C2943 1.282 . S
H2948 C2921 0.931 . S
H2949 C2923 0.929 . S
H2950 C2924 0.930 . S
H2951 C2925 0.931 . S
H2952 C2932 0.932 . S
H2953 C2933 0.930 . S
H2954 C2934 0.929 . S
H2955 C2936 0.930 . S
H2956 C2938 0.932 . S
H2957 C2939 0.929 . S
H2958 C2940 0.928 . S
H2959 C2942 0.932 . S
C2960 C2961 1.264 . S
C2960 C2965 1.479 . S
C2960 C2970 1.465 . S
C2961 C2960 1.264 . S
C2961 C2963 1.339 . S
C2961 H2988 0.931 . S
C2962 C2963 1.395 . S
C2962 C2964 1.320 . S
C2963 C2961 1.339 . S
C2963 C2962 1.395 . S
C2963 H2989 0.929 . S
C2964 C2962 1.320 . S
C2964 C2965 1.405 . S
C2964 H2990 0.930 . S
C2965 C2960 1.479 . S
C2965 C2964 1.405 . S
C2965 H2991 0.931 . S
U2966 O2967 2.454 . S
U2966 O2968 2.458 . S
U2966 C2969 2.984 . S
U2966 C2970 2.847 . S
U2966 C2983 2.882 . S
U2966 O2984 2.441 . S
U2966 O2985 2.420 . S
U2966 O2986 2.455 . S
U2966 O2987 2.449 . S
O2967 U2966 2.454 . S
O2967 C2969 1.353 . S
O2968 U2966 2.458 . S
O2968 C2969 1.286 . S
C2969 U2966 2.984 . S
C2969 O2967 1.353 . S
C2969 O2968 1.286 . S
C2969 C2971 1.363 . S
C2970 C2960 1.465 . S
C2970 U2966 2.847 . S
C2970 O2984 1.249 . S
C2970 O2985 1.202 . S
C2971 C2969 1.363 . S
C2971 C2973 1.408 . S
C2971 C2976 1.342 . S
C2972 C2973 1.310 . S
C2972 C2975 1.461 . S
C2972 H2992 0.932 . S
C2973 C2971 1.408 . S
C2973 C2972 1.310 . S
C2973 H2993 0.930 . S
C2974 C2975 1.474 . S
C2974 C2976 1.285 . S
C2974 H2994 0.929 . S
C2975 C2972 1.461 . S
C2975 C2974 1.474 . S
C2976 C2971 1.342 . S
C2976 C2974 1.285 . S
C2976 H2995 0.930 . S
C2977 C2980 1.424 . S
C2977 C2982 1.245 . S
C2977 C2983 1.428 . S
C2978 C2981 1.260 . S
C2978 C2982 1.477 . S
C2978 H2996 0.932 . S
C2979 C2980 1.384 . S
C2979 C2981 1.479 . S
C2979 H2997 0.929 . S
C2980 C2977 1.424 . S
C2980 C2979 1.384 . S
C2980 H2998 0.928 . S
C2981 C2978 1.260 . S
C2981 C2979 1.479 . S
C2982 C2977 1.245 . S
C2982 C2978 1.477 . S
C2982 H2999 0.932 . S
C2983 U2966 2.882 . S
C2983 C2977 1.428 . S
C2983 O2986 1.301 . S
C2983 O2987 1.282 . S
O2984 U2966 2.441 . S
O2984 C2970 1.249 . S
O2985 U2966 2.420 . S
O2985 C2970 1.202 . S
O2986 U2966 2.455 . S
O2986 C2983 1.301 . S
O2987 U2966 2.449 . S
O2987 C2983 1.282 . S
H2988 C2961 0.931 . S
H2989 C2963 0.929 . S
H2990 C2964 0.930 . S
H2991 C2965 0.931 . S
H2992 C2972 0.932 . S
H2993 C2973 0.930 . S
H2994 C2974 0.929 . S
H2995 C2976 0.930 . S
H2996 C2978 0.932 . S
H2997 C2979 0.929 . S
H2998 C2980 0.928 . S
H2999 C2982 0.932 . S
C3000 C3001 1.264 . S
C3000 C3005 1.479 . S
C3000 C3010 1.465 . S
C3001 C3000 1.264 . S
C3001 C3003 1.339 . S
C3001 H3028 0.931 . S
C3002 C3003 1.395 . S
C3002 C3004 1.320 . S
C3003 C3001 1.339 . S
C3003 C3002 1.395 . S
C3003 H3029 0.929 . S
C3004 C3002 1.320 . S
C3004 C3005 1.405 . S
C3004 H3030 0.930 . S
C3005 C3000 1.479 . S
C3005 C3004 1.405 . S
C3005 H3031 0.931 . S
U3006 O3007 2.454 . S
U3006 O3008 2.458 . S
U3006 C3009 2.984 . S
U3006 C3010 2.847 . S
U3006 C3023 2.882 . S
U3006 O3024 2.441 . S
U3006 O3025 2.420 . S
U3006 O3026 2.455 . S
U3006 O3027 2.449 . S
O3007 U3006 2.454 . S
O3007 C3009 1.353 . S
O3008 U3006 2.458 . S
O3008 C3009 1.286 . S
C3009 U3006 2.984 . S
C3009 O3007 1.353 . S
C3009 O3008 1.286 . S
C3009 C3011 1.363 . S
C3010 C3000 1.465 . S
C3010 U3006 2.847 . S
C3010 O3024 1.249 . S
C3010 O3025 1.202 . S
C3011 C3009 1.363 . S
C3011 C3013 1.408 . S
C3011 C3016 1.342 . S
C3012 C3013 1.310 . S
C3012 C3015 1.461 . S
C3012 H3032 0.932 . S
C3013 C3011 1.408 . S
C3013 C3012 1.310 . S
C3013 H3033 0.930 . S
C3014 C3015 1.474 . S
C3014 C3016 1.285 . S
C3014 H3034 0.929 . S
C3015 C3012 1.461 . S
C3015 C3014 1.474 . S
C3016 C3011 1.342 . S
C3016 C3014 1.285 . S
C3016 H3035 0.930 . S
C3017 C3020 1.424 . S
C3017 C3022 1.245 . S
C3017 C3023 1.428 . S
C3018 C3021 1.260 . S
C3018 C3022 1.477 . S
C3018 H3036 0.932 . S
C3019 C3020 1.384 . S
C3019 C3021 1.479 . S
C3019 H3037 0.929 . S
C3020 C3017 1.424 . S
C3020 C3019 1.384 . S
C3020 H3038 0.928 . S
C3021 C3018 1.260 . S
C3021 C3019 1.479 . S
C3022 C3017 1.245 . S
C3022 C3018 1.477 . S
C3022 H3039 0.932 . S
C3023 U3006 2.882 . S
C3023 C3017 1.428 . S
C3023 O3026 1.301 . S
C3023 O3027 1.282 . S
O3024 U3006 2.441 . S
O3024 C3010 1.249 . S
O3025 U3006 2.420 . S
O3025 C3010 1.202 . S
O3026 U3006 2.455 . S
O3026 C3023 1.301 . S
O3027 U3006 2.449 . S
O3027 C3023 1.282 . S
H3028 C3001 0.931 . S
H3029 C3003 0.929 . S
H3030 C3004 0.930 . S
H3031 C3005 0.931 . S
H3032 C3012 0.932 . S
H3033 C3013 0.930 . S
H3034 C3014 0.929 . S
H3035 C3016 0.930 . S
H3036 C3018 0.932 . S
H3037 C3019 0.929 . S
H3038 C3020 0.928 . S
H3039 C3022 0.932 . S
C3040 C3041 1.264 . S
C3040 C3045 1.479 . S
C3040 C3050 1.465 . S
C3041 C3040 1.264 . S
C3041 C3043 1.339 . S
C3041 H3068 0.931 . S
C3042 C3043 1.395 . S
C3042 C3044 1.320 . S
C3043 C3041 1.339 . S
C3043 C3042 1.395 . S
C3043 H3069 0.929 . S
C3044 C3042 1.320 . S
C3044 C3045 1.405 . S
C3044 H3070 0.930 . S
C3045 C3040 1.479 . S
C3045 C3044 1.405 . S
C3045 H3071 0.931 . S
U3046 O3047 2.454 . S
U3046 O3048 2.458 . S
U3046 C3049 2.984 . S
U3046 C3050 2.847 . S
U3046 C3063 2.882 . S
U3046 O3064 2.441 . S
U3046 O3065 2.420 . S
U3046 O3066 2.455 . S
U3046 O3067 2.449 . S
O3047 U3046 2.454 . S
O3047 C3049 1.353 . S
O3048 U3046 2.458 . S
O3048 C3049 1.286 . S
C3049 U3046 2.984 . S
C3049 O3047 1.353 . S
C3049 O3048 1.286 . S
C3049 C3051 1.363 . S
C3050 C3040 1.465 . S
C3050 U3046 2.847 . S
C3050 O3064 1.249 . S
C3050 O3065 1.202 . S
C3051 C3049 1.363 . S
C3051 C3053 1.408 . S
C3051 C3056 1.342 . S
C3052 C3053 1.310 . S
C3052 C3055 1.461 . S
C3052 H3072 0.932 . S
C3053 C3051 1.408 . S
C3053 C3052 1.310 . S
C3053 H3073 0.930 . S
C3054 C3055 1.474 . S
C3054 C3056 1.285 . S
C3054 H3074 0.929 . S
C3055 C3052 1.461 . S
C3055 C3054 1.474 . S
C3056 C3051 1.342 . S
C3056 C3054 1.285 . S
C3056 H3075 0.930 . S
C3057 C3060 1.424 . S
C3057 C3062 1.245 . S
C3057 C3063 1.428 . S
C3058 C3061 1.260 . S
C3058 C3062 1.477 . S
C3058 H3076 0.932 . S
C3059 C3060 1.384 . S
C3059 C3061 1.479 . S
C3059 H3077 0.929 . S
C3060 C3057 1.424 . S
C3060 C3059 1.384 . S
C3060 H3078 0.928 . S
C3061 C3058 1.260 . S
C3061 C3059 1.479 . S
C3062 C3057 1.245 . S
C3062 C3058 1.477 . S
C3062 H3079 0.932 . S
C3063 U3046 2.882 . S
C3063 C3057 1.428 . S
C3063 O3066 1.301 . S
C3063 O3067 1.282 . S
O3064 U3046 2.441 . S
O3064 C3050 1.249 . S
O3065 U3046 2.420 . S
O3065 C3050 1.202 . S
O3066 U3046 2.455 . S
O3066 C3063 1.301 . S
O3067 U3046 2.449 . S
O3067 C3063 1.282 . S
H3068 C3041 0.931 . S
H3069 C3043 0.929 . S
H3070 C3044 0.930 . S
H3071 C3045 0.931 . S
H3072 C3052 0.932 . S
H3073 C3053 0.930 . S
H3074 C3054 0.929 . S
H3075 C3056 0.930 . S
H3076 C3058 0.932 . S
H3077 C3059 0.929 . S
H3078 C3060 0.928 . S
H3079 C3062 0.932 . S
C3080 C3081 1.264 . S
C3080 C3085 1.479 . S
C3080 C3090 1.465 . S
C3081 C3080 1.264 . S
C3081 C3083 1.339 . S
C3081 H3108 0.931 . S
C3082 C3083 1.395 . S
C3082 C3084 1.320 . S
C3083 C3081 1.339 . S
C3083 C3082 1.395 . S
C3083 H3109 0.929 . S
C3084 C3082 1.320 . S
C3084 C3085 1.405 . S
C3084 H3110 0.930 . S
C3085 C3080 1.479 . S
C3085 C3084 1.405 . S
C3085 H3111 0.931 . S
U3086 O3087 2.454 . S
U3086 O3088 2.458 . S
U3086 C3089 2.984 . S
U3086 C3090 2.847 . S
U3086 C3103 2.882 . S
U3086 O3104 2.441 . S
U3086 O3105 2.420 . S
U3086 O3106 2.455 . S
U3086 O3107 2.449 . S
O3087 U3086 2.454 . S
O3087 C3089 1.353 . S
O3088 U3086 2.458 . S
O3088 C3089 1.286 . S
C3089 U3086 2.984 . S
C3089 O3087 1.353 . S
C3089 O3088 1.286 . S
C3089 C3091 1.363 . S
C3090 C3080 1.465 . S
C3090 U3086 2.847 . S
C3090 O3104 1.249 . S
C3090 O3105 1.202 . S
C3091 C3089 1.363 . S
C3091 C3093 1.408 . S
C3091 C3096 1.342 . S
C3092 C3093 1.310 . S
C3092 C3095 1.461 . S
C3092 H3112 0.932 . S
C3093 C3091 1.408 . S
C3093 C3092 1.310 . S
C3093 H3113 0.930 . S
C3094 C3095 1.474 . S
C3094 C3096 1.285 . S
C3094 H3114 0.929 . S
C3095 C3092 1.461 . S
C3095 C3094 1.474 . S
C3096 C3091 1.342 . S
C3096 C3094 1.285 . S
C3096 H3115 0.930 . S
C3097 C3100 1.424 . S
C3097 C3102 1.245 . S
C3097 C3103 1.428 . S
C3098 C3101 1.260 . S
C3098 C3102 1.477 . S
C3098 H3116 0.932 . S
C3099 C3100 1.384 . S
C3099 C3101 1.479 . S
C3099 H3117 0.929 . S
C3100 C3097 1.424 . S
C3100 C3099 1.384 . S
C3100 H3118 0.928 . S
C3101 C3098 1.260 . S
C3101 C3099 1.479 . S
C3102 C3097 1.245 . S
C3102 C3098 1.477 . S
C3102 H3119 0.932 . S
C3103 U3086 2.882 . S
C3103 C3097 1.428 . S
C3103 O3106 1.301 . S
C3103 O3107 1.282 . S
O3104 U3086 2.441 . S
O3104 C3090 1.249 . S
O3105 U3086 2.420 . S
O3105 C3090 1.202 . S
O3106 U3086 2.455 . S
O3106 C3103 1.301 . S
O3107 U3086 2.449 . S
O3107 C3103 1.282 . S
H3108 C3081 0.931 . S
H3109 C3083 0.929 . S
H3110 C3084 0.930 . S
H3111 C3085 0.931 . S
H3112 C3092 0.932 . S
H3113 C3093 0.930 . S
H3114 C3094 0.929 . S
H3115 C3096 0.930 . S
H3116 C3098 0.932 . S
H3117 C3099 0.929 . S
H3118 C3100 0.928 . S
H3119 C3102 0.932 . S
C3120 C3121 1.264 . S
C3120 C3125 1.479 . S
C3120 C3130 1.465 . S
C3121 C3120 1.264 . S
C3121 C3123 1.339 . S
C3121 H3148 0.931 . S
C3122 C3123 1.395 . S
C3122 C3124 1.320 . S
C3123 C3121 1.339 . S
C3123 C3122 1.395 . S
C3123 H3149 0.929 . S
C3124 C3122 1.320 . S
C3124 C3125 1.405 . S
C3124 H3150 0.930 . S
C3125 C3120 1.479 . S
C3125 C3124 1.405 . S
C3125 H3151 0.931 . S
U3126 O3127 2.454 . S
U3126 O3128 2.458 . S
U3126 C3129 2.984 . S
U3126 C3130 2.847 . S
U3126 C3143 2.882 . S
U3126 O3144 2.441 . S
U3126 O3145 2.420 . S
U3126 O3146 2.455 . S
U3126 O3147 2.449 . S
O3127 U3126 2.454 . S
O3127 C3129 1.353 . S
O3128 U3126 2.458 . S
O3128 C3129 1.286 . S
C3129 U3126 2.984 . S
C3129 O3127 1.353 . S
C3129 O3128 1.286 . S
C3129 C3131 1.363 . S
C3130 C3120 1.465 . S
C3130 U3126 2.847 . S
C3130 O3144 1.249 . S
C3130 O3145 1.202 . S
C3131 C3129 1.363 . S
C3131 C3133 1.408 . S
C3131 C3136 1.342 . S
C3132 C3133 1.310 . S
C3132 C3135 1.461 . S
C3132 H3152 0.932 . S
C3133 C3131 1.408 . S
C3133 C3132 1.310 . S
C3133 H3153 0.930 . S
C3134 C3135 1.474 . S
C3134 C3136 1.285 . S
C3134 H3154 0.929 . S
C3135 C3132 1.461 . S
C3135 C3134 1.474 . S
C3136 C3131 1.342 . S
C3136 C3134 1.285 . S
C3136 H3155 0.930 . S
C3137 C3140 1.424 . S
C3137 C3142 1.245 . S
C3137 C3143 1.428 . S
C3138 C3141 1.260 . S
C3138 C3142 1.477 . S
C3138 H3156 0.932 . S
C3139 C3140 1.384 . S
C3139 C3141 1.479 . S
C3139 H3157 0.929 . S
C3140 C3137 1.424 . S
C3140 C3139 1.384 . S
C3140 H3158 0.928 . S
C3141 C3138 1.260 . S
C3141 C3139 1.479 . S
C3142 C3137 1.245 . S
C3142 C3138 1.477 . S
C3142 H3159 0.932 . S
C3143 U3126 2.882 . S
C3143 C3137 1.428 . S
C3143 O3146 1.301 . S
C3143 O3147 1.282 . S
O3144 U3126 2.441 . S
O3144 C3130 1.249 . S
O3145 U3126 2.420 . S
O3145 C3130 1.202 . S
O3146 U3126 2.455 . S
O3146 C3143 1.301 . S
O3147 U3126 2.449 . S
O3147 C3143 1.282 . S
H3148 C3121 0.931 . S
H3149 C3123 0.929 . S
H3150 C3124 0.930 . S
H3151 C3125 0.931 . S
H3152 C3132 0.932 . S
H3153 C3133 0.930 . S
H3154 C3134 0.929 . S
H3155 C3136 0.930 . S
H3156 C3138 0.932 . S
H3157 C3139 0.929 . S
H3158 C3140 0.928 . S
H3159 C3142 0.932 . S
C3160 C3161 1.264 . S
C3160 C3165 1.479 . S
C3160 C3170 1.465 . S
C3161 C3160 1.264 . S
C3161 C3163 1.339 . S
C3161 H3188 0.931 . S
C3162 C3163 1.395 . S
C3162 C3164 1.320 . S
C3163 C3161 1.339 . S
C3163 C3162 1.395 . S
C3163 H3189 0.929 . S
C3164 C3162 1.320 . S
C3164 C3165 1.405 . S
C3164 H3190 0.930 . S
C3165 C3160 1.479 . S
C3165 C3164 1.405 . S
C3165 H3191 0.931 . S
U3166 O3167 2.454 . S
U3166 O3168 2.458 . S
U3166 C3169 2.984 . S
U3166 C3170 2.847 . S
U3166 C3183 2.882 . S
U3166 O3184 2.441 . S
U3166 O3185 2.420 . S
U3166 O3186 2.455 . S
U3166 O3187 2.449 . S
O3167 U3166 2.454 . S
O3167 C3169 1.353 . S
O3168 U3166 2.458 . S
O3168 C3169 1.286 . S
C3169 U3166 2.984 . S
C3169 O3167 1.353 . S
C3169 O3168 1.286 . S
C3169 C3171 1.363 . S
C3170 C3160 1.465 . S
C3170 U3166 2.847 . S
C3170 O3184 1.249 . S
C3170 O3185 1.202 . S
C3171 C3169 1.363 . S
C3171 C3173 1.408 . S
C3171 C3176 1.342 . S
C3172 C3173 1.310 . S
C3172 C3175 1.461 . S
C3172 H3192 0.932 . S
C3173 C3171 1.408 . S
C3173 C3172 1.310 . S
C3173 H3193 0.930 . S
C3174 C3175 1.474 . S
C3174 C3176 1.285 . S
C3174 H3194 0.929 . S
C3175 C3172 1.461 . S
C3175 C3174 1.474 . S
C3176 C3171 1.342 . S
C3176 C3174 1.285 . S
C3176 H3195 0.930 . S
C3177 C3180 1.424 . S
C3177 C3182 1.245 . S
C3177 C3183 1.428 . S
C3178 C3181 1.260 . S
C3178 C3182 1.477 . S
C3178 H3196 0.932 . S
C3179 C3180 1.384 . S
C3179 C3181 1.479 . S
C3179 H3197 0.929 . S
C3180 C3177 1.424 . S
C3180 C3179 1.384 . S
C3180 H3198 0.928 . S
C3181 C3178 1.260 . S
C3181 C3179 1.479 . S
C3182 C3177 1.245 . S
C3182 C3178 1.477 . S
C3182 H3199 0.932 . S
C3183 U3166 2.882 . S
C3183 C3177 1.428 . S
C3183 O3186 1.301 . S
C3183 O3187 1.282 . S
O3184 U3166 2.441 . S
O3184 C3170 1.249 . S
O3185 U3166 2.420 . S
O3185 C3170 1.202 . S
O3186 U3166 2.455 . S
O3186 C3183 1.301 . S
O3187 U3166 2.449 . S
O3187 C3183 1.282 . S
H3188 C3161 0.931 . S
H3189 C3163 0.929 . S
H3190 C3164 0.930 . S
H3191 C3165 0.931 . S
H3192 C3172 0.932 . S
H3193 C3173 0.930 . S
H3194 C3174 0.929 . S
H3195 C3176 0.930 . S
H3196 C3178 0.932 . S
H3197 C3179 0.929 . S
H3198 C3180 0.928 . S
H3199 C3182 0.932 . S
C3200 C3201 1.264 . S
C3200 C3205 1.479 . S
C3200 C3210 1.465 . S
C3201 C3200 1.264 . S
C3201 C3203 1.339 . S
C3201 H3228 0.931 . S
C3202 C3203 1.395 . S
C3202 C3204 1.320 . S
C3203 C3201 1.339 . S
C3203 C3202 1.395 . S
C3203 H3229 0.929 . S
C3204 C3202 1.320 . S
C3204 C3205 1.405 . S
C3204 H3230 0.930 . S
C3205 C3200 1.479 . S
C3205 C3204 1.405 . S
C3205 H3231 0.931 . S
U3206 O3207 2.454 . S
U3206 O3208 2.458 . S
U3206 C3209 2.984 . S
U3206 C3210 2.847 . S
U3206 C3223 2.882 . S
U3206 O3224 2.441 . S
U3206 O3225 2.420 . S
U3206 O3226 2.455 . S
U3206 O3227 2.449 . S
O3207 U3206 2.454 . S
O3207 C3209 1.353 . S
O3208 U3206 2.458 . S
O3208 C3209 1.286 . S
C3209 U3206 2.984 . S
C3209 O3207 1.353 . S
C3209 O3208 1.286 . S
C3209 C3211 1.363 . S
C3210 C3200 1.465 . S
C3210 U3206 2.847 . S
C3210 O3224 1.249 . S
C3210 O3225 1.202 . S
C3211 C3209 1.363 . S
C3211 C3213 1.408 . S
C3211 C3216 1.342 . S
C3212 C3213 1.310 . S
C3212 C3215 1.461 . S
C3212 H3232 0.932 . S
C3213 C3211 1.408 . S
C3213 C3212 1.310 . S
C3213 H3233 0.930 . S
C3214 C3215 1.474 . S
C3214 C3216 1.285 . S
C3214 H3234 0.929 . S
C3215 C3212 1.461 . S
C3215 C3214 1.474 . S
C3216 C3211 1.342 . S
C3216 C3214 1.285 . S
C3216 H3235 0.930 . S
C3217 C3220 1.424 . S
C3217 C3222 1.245 . S
C3217 C3223 1.428 . S
C3218 C3221 1.260 . S
C3218 C3222 1.477 . S
C3218 H3236 0.932 . S
C3219 C3220 1.384 . S
C3219 C3221 1.479 . S
C3219 H3237 0.929 . S
C3220 C3217 1.424 . S
C3220 C3219 1.384 . S
C3220 H3238 0.928 . S
C3221 C3218 1.260 . S
C3221 C3219 1.479 . S
C3222 C3217 1.245 . S
C3222 C3218 1.477 . S
C3222 H3239 0.932 . S
C3223 U3206 2.882 . S
C3223 C3217 1.428 . S
C3223 O3226 1.301 . S
C3223 O3227 1.282 . S
O3224 U3206 2.441 . S
O3224 C3210 1.249 . S
O3225 U3206 2.420 . S
O3225 C3210 1.202 . S
O3226 U3206 2.455 . S
O3226 C3223 1.301 . S
O3227 U3206 2.449 . S
O3227 C3223 1.282 . S
H3228 C3201 0.931 . S
H3229 C3203 0.929 . S
H3230 C3204 0.930 . S
H3231 C3205 0.931 . S
H3232 C3212 0.932 . S
H3233 C3213 0.930 . S
H3234 C3214 0.929 . S
H3235 C3216 0.930 . S
H3236 C3218 0.932 . S
H3237 C3219 0.929 . S
H3238 C3220 0.928 . S
H3239 C3222 0.932 . S
C3240 C3241 1.264 . S
C3240 C3245 1.479 . S
C3240 C3250 1.465 . S
C3241 C3240 1.264 . S
C3241 C3243 1.339 . S
C3241 H3268 0.931 . S
C3242 C3243 1.395 . S
C3242 C3244 1.320 . S
C3243 C3241 1.339 . S
C3243 C3242 1.395 . S
C3243 H3269 0.929 . S
C3244 C3242 1.320 . S
C3244 C3245 1.405 . S
C3244 H3270 0.930 . S
C3245 C3240 1.479 . S
C3245 C3244 1.405 . S
C3245 H3271 0.931 . S
U3246 O3247 2.454 . S
U3246 O3248 2.458 . S
U3246 C3249 2.984 . S
U3246 C3250 2.847 . S
U3246 C3263 2.882 . S
U3246 O3264 2.441 . S
U3246 O3265 2.420 . S
U3246 O3266 2.455 . S
U3246 O3267 2.449 . S
O3247 U3246 2.454 . S
O3247 C3249 1.353 . S
O3248 U3246 2.458 . S
O3248 C3249 1.286 . S
C3249 U3246 2.984 . S
C3249 O3247 1.353 . S
C3249 O3248 1.286 . S
C3249 C3251 1.363 . S
C3250 C3240 1.465 . S
C3250 U3246 2.847 . S
C3250 O3264 1.249 . S
C3250 O3265 1.202 . S
C3251 C3249 1.363 . S
C3251 C3253 1.408 . S
C3251 C3256 1.342 . S
C3252 C3253 1.310 . S
C3252 C3255 1.461 . S
C3252 H3272 0.932 . S
C3253 C3251 1.408 . S
C3253 C3252 1.310 . S
C3253 H3273 0.930 . S
C3254 C3255 1.474 . S
C3254 C3256 1.285 . S
C3254 H3274 0.929 . S
C3255 C3252 1.461 . S
C3255 C3254 1.474 . S
C3256 C3251 1.342 . S
C3256 C3254 1.285 . S
C3256 H3275 0.930 . S
C3257 C3260 1.424 . S
C3257 C3262 1.245 . S
C3257 C3263 1.428 . S
C3258 C3261 1.260 . S
C3258 C3262 1.477 . S
C3258 H3276 0.932 . S
C3259 C3260 1.384 . S
C3259 C3261 1.479 . S
C3259 H3277 0.929 . S
C3260 C3257 1.424 . S
C3260 C3259 1.384 . S
C3260 H3278 0.928 . S
C3261 C3258 1.260 . S
C3261 C3259 1.479 . S
C3262 C3257 1.245 . S
C3262 C3258 1.477 . S
C3262 H3279 0.932 . S
C3263 U3246 2.882 . S
C3263 C3257 1.428 . S
C3263 O3266 1.301 . S
C3263 O3267 1.282 . S
O3264 U3246 2.441 . S
O3264 C3250 1.249 . S
O3265 U3246 2.420 . S
O3265 C3250 1.202 . S
O3266 U3246 2.455 . S
O3266 C3263 1.301 . S
O3267 U3246 2.449 . S
O3267 C3263 1.282 . S
H3268 C3241 0.931 . S
H3269 C3243 0.929 . S
H3270 C3244 0.930 . S
H3271 C3245 0.931 . S
H3272 C3252 0.932 . S
H3273 C3253 0.930 . S
H3274 C3254 0.929 . S
H3275 C3256 0.930 . S
H3276 C3258 0.932 . S
H3277 C3259 0.929 . S
H3278 C3260 0.928 . S
H3279 C3262 0.932 . S
C3280 C3281 1.264 . S
C3280 C3285 1.479 . S
C3280 C3290 1.465 . S
C3281 C3280 1.264 . S
C3281 C3283 1.339 . S
C3281 H3308 0.931 . S
C3282 C3283 1.395 . S
C3282 C3284 1.320 . S
C3283 C3281 1.339 . S
C3283 C3282 1.395 . S
C3283 H3309 0.929 . S
C3284 C3282 1.320 . S
C3284 C3285 1.405 . S
C3284 H3310 0.930 . S
C3285 C3280 1.479 . S
C3285 C3284 1.405 . S
C3285 H3311 0.931 . S
U3286 O3287 2.454 . S
U3286 O3288 2.458 . S
U3286 C3289 2.984 . S
U3286 C3290 2.847 . S
U3286 C3303 2.882 . S
U3286 O3304 2.441 . S
U3286 O3305 2.420 . S
U3286 O3306 2.455 . S
U3286 O3307 2.449 . S
O3287 U3286 2.454 . S
O3287 C3289 1.353 . S
O3288 U3286 2.458 . S
O3288 C3289 1.286 . S
C3289 U3286 2.984 . S
C3289 O3287 1.353 . S
C3289 O3288 1.286 . S
C3289 C3291 1.363 . S
C3290 C3280 1.465 . S
C3290 U3286 2.847 . S
C3290 O3304 1.249 . S
C3290 O3305 1.202 . S
C3291 C3289 1.363 . S
C3291 C3293 1.408 . S
C3291 C3296 1.342 . S
C3292 C3293 1.310 . S
C3292 C3295 1.461 . S
C3292 H3312 0.932 . S
C3293 C3291 1.408 . S
C3293 C3292 1.310 . S
C3293 H3313 0.930 . S
C3294 C3295 1.474 . S
C3294 C3296 1.285 . S
C3294 H3314 0.929 . S
C3295 C3292 1.461 . S
C3295 C3294 1.474 . S
C3296 C3291 1.342 . S
C3296 C3294 1.285 . S
C3296 H3315 0.930 . S
C3297 C3300 1.424 . S
C3297 C3302 1.245 . S
C3297 C3303 1.428 . S
C3298 C3301 1.260 . S
C3298 C3302 1.477 . S
C3298 H3316 0.932 . S
C3299 C3300 1.384 . S
C3299 C3301 1.479 . S
C3299 H3317 0.929 . S
C3300 C3297 1.424 . S
C3300 C3299 1.384 . S
C3300 H3318 0.928 . S
C3301 C3298 1.260 . S
C3301 C3299 1.479 . S
C3302 C3297 1.245 . S
C3302 C3298 1.477 . S
C3302 H3319 0.932 . S
C3303 U3286 2.882 . S
C3303 C3297 1.428 . S
C3303 O3306 1.301 . S
C3303 O3307 1.282 . S
O3304 U3286 2.441 . S
O3304 C3290 1.249 . S
O3305 U3286 2.420 . S
O3305 C3290 1.202 . S
O3306 U3286 2.455 . S
O3306 C3303 1.301 . S
O3307 U3286 2.449 . S
O3307 C3303 1.282 . S
H3308 C3281 0.931 . S
H3309 C3283 0.929 . S
H3310 C3284 0.930 . S
H3311 C3285 0.931 . S
H3312 C3292 0.932 . S
H3313 C3293 0.930 . S
H3314 C3294 0.929 . S
H3315 C3296 0.930 . S
H3316 C3298 0.932 . S
H3317 C3299 0.929 . S
H3318 C3300 0.928 . S
H3319 C3302 0.932 . S
C3320 C3321 1.264 . S
C3320 C3325 1.479 . S
C3320 C3330 1.465 . S
C3321 C3320 1.264 . S
C3321 C3323 1.339 . S
C3321 H3348 0.931 . S
C3322 C3323 1.395 . S
C3322 C3324 1.320 . S
C3323 C3321 1.339 . S
C3323 C3322 1.395 . S
C3323 H3349 0.929 . S
C3324 C3322 1.320 . S
C3324 C3325 1.405 . S
C3324 H3350 0.930 . S
C3325 C3320 1.479 . S
C3325 C3324 1.405 . S
C3325 H3351 0.931 . S
U3326 O3327 2.454 . S
U3326 O3328 2.458 . S
U3326 C3329 2.984 . S
U3326 C3330 2.847 . S
U3326 C3343 2.882 . S
U3326 O3344 2.441 . S
U3326 O3345 2.420 . S
U3326 O3346 2.455 . S
U3326 O3347 2.449 . S
O3327 U3326 2.454 . S
O3327 C3329 1.353 . S
O3328 U3326 2.458 . S
O3328 C3329 1.286 . S
C3329 U3326 2.984 . S
C3329 O3327 1.353 . S
C3329 O3328 1.286 . S
C3329 C3331 1.363 . S
C3330 C3320 1.465 . S
C3330 U3326 2.847 . S
C3330 O3344 1.249 . S
C3330 O3345 1.202 . S
C3331 C3329 1.363 . S
C3331 C3333 1.408 . S
C3331 C3336 1.342 . S
C3332 C3333 1.310 . S
C3332 C3335 1.461 . S
C3332 H3352 0.932 . S
C3333 C3331 1.408 . S
C3333 C3332 1.310 . S
C3333 H3353 0.930 . S
C3334 C3335 1.474 . S
C3334 C3336 1.285 . S
C3334 H3354 0.929 . S
C3335 C3332 1.461 . S
C3335 C3334 1.474 . S
C3336 C3331 1.342 . S
C3336 C3334 1.285 . S
C3336 H3355 0.930 . S
C3337 C3340 1.424 . S
C3337 C3342 1.245 . S
C3337 C3343 1.428 . S
C3338 C3341 1.260 . S
C3338 C3342 1.477 . S
C3338 H3356 0.932 . S
C3339 C3340 1.384 . S
C3339 C3341 1.479 . S
C3339 H3357 0.929 . S
C3340 C3337 1.424 . S
C3340 C3339 1.384 . S
C3340 H3358 0.928 . S
C3341 C3338 1.260 . S
C3341 C3339 1.479 . S
C3342 C3337 1.245 . S
C3342 C3338 1.477 . S
C3342 H3359 0.932 . S
C3343 U3326 2.882 . S
C3343 C3337 1.428 . S
C3343 O3346 1.301 . S
C3343 O3347 1.282 . S
O3344 U3326 2.441 . S
O3344 C3330 1.249 . S
O3345 U3326 2.420 . S
O3345 C3330 1.202 . S
O3346 U3326 2.455 . S
O3346 C3343 1.301 . S
O3347 U3326 2.449 . S
O3347 C3343 1.282 . S
H3348 C3321 0.931 . S
H3349 C3323 0.929 . S
H3350 C3324 0.930 . S
H3351 C3325 0.931 . S
H3352 C3332 0.932 . S
H3353 C3333 0.930 . S
H3354 C3334 0.929 . S
H3355 C3336 0.930 . S
H3356 C3338 0.932 . S
H3357 C3339 0.929 . S
H3358 C3340 0.928 . S
H3359 C3342 0.932 . S
C3360 C3361 1.264 . S
C3360 C3365 1.479 . S
C3360 C3370 1.465 . S
C3361 C3360 1.264 . S
C3361 C3363 1.339 . S
C3361 H3388 0.931 . S
C3362 C3363 1.395 . S
C3362 C3364 1.320 . S
C3363 C3361 1.339 . S
C3363 C3362 1.395 . S
C3363 H3389 0.929 . S
C3364 C3362 1.320 . S
C3364 C3365 1.405 . S
C3364 H3390 0.930 . S
C3365 C3360 1.479 . S
C3365 C3364 1.405 . S
C3365 H3391 0.931 . S
U3366 O3367 2.454 . S
U3366 O3368 2.458 . S
U3366 C3369 2.984 . S
U3366 C3370 2.847 . S
U3366 C3383 2.882 . S
U3366 O3384 2.441 . S
U3366 O3385 2.420 . S
U3366 O3386 2.455 . S
U3366 O3387 2.449 . S
O3367 U3366 2.454 . S
O3367 C3369 1.353 . S
O3368 U3366 2.458 . S
O3368 C3369 1.286 . S
C3369 U3366 2.984 . S
C3369 O3367 1.353 . S
C3369 O3368 1.286 . S
C3369 C3371 1.363 . S
C3370 C3360 1.465 . S
C3370 U3366 2.847 . S
C3370 O3384 1.249 . S
C3370 O3385 1.202 . S
C3371 C3369 1.363 . S
C3371 C3373 1.408 . S
C3371 C3376 1.342 . S
C3372 C3373 1.310 . S
C3372 C3375 1.461 . S
C3372 H3392 0.932 . S
C3373 C3371 1.408 . S
C3373 C3372 1.310 . S
C3373 H3393 0.930 . S
C3374 C3375 1.474 . S
C3374 C3376 1.285 . S
C3374 H3394 0.929 . S
C3375 C3372 1.461 . S
C3375 C3374 1.474 . S
C3376 C3371 1.342 . S
C3376 C3374 1.285 . S
C3376 H3395 0.930 . S
C3377 C3380 1.424 . S
C3377 C3382 1.245 . S
C3377 C3383 1.428 . S
C3378 C3381 1.260 . S
C3378 C3382 1.477 . S
C3378 H3396 0.932 . S
C3379 C3380 1.384 . S
C3379 C3381 1.479 . S
C3379 H3397 0.929 . S
C3380 C3377 1.424 . S
C3380 C3379 1.384 . S
C3380 H3398 0.928 . S
C3381 C3378 1.260 . S
C3381 C3379 1.479 . S
C3382 C3377 1.245 . S
C3382 C3378 1.477 . S
C3382 H3399 0.932 . S
C3383 U3366 2.882 . S
C3383 C3377 1.428 . S
C3383 O3386 1.301 . S
C3383 O3387 1.282 . S
O3384 U3366 2.441 . S
O3384 C3370 1.249 . S
O3385 U3366 2.420 . S
O3385 C3370 1.202 . S
O3386 U3366 2.455 . S
O3386 C3383 1.301 . S
O3387 U3366 2.449 . S
O3387 C3383 1.282 . S
H3388 C3361 0.931 . S
H3389 C3363 0.929 . S
H3390 C3364 0.930 . S
H3391 C3365 0.931 . S
H3392 C3372 0.932 . S
H3393 C3373 0.930 . S
H3394 C3374 0.929 . S
H3395 C3376 0.930 . S
H3396 C3378 0.932 . S
H3397 C3379 0.929 . S
H3398 C3380 0.928 . S
H3399 C3382 0.932 . S
C3400 C3401 1.264 . S
C3400 C3405 1.479 . S
C3400 C3410 1.465 . S
C3401 C3400 1.264 . S
C3401 C3403 1.339 . S
C3401 H3428 0.931 . S
C3402 C3403 1.395 . S
C3402 C3404 1.320 . S
C3403 C3401 1.339 . S
C3403 C3402 1.395 . S
C3403 H3429 0.929 . S
C3404 C3402 1.320 . S
C3404 C3405 1.405 . S
C3404 H3430 0.930 . S
C3405 C3400 1.479 . S
C3405 C3404 1.405 . S
C3405 H3431 0.931 . S
U3406 O3407 2.454 . S
U3406 O3408 2.458 . S
U3406 C3409 2.984 . S
U3406 C3410 2.847 . S
U3406 C3423 2.882 . S
U3406 O3424 2.441 . S
U3406 O3425 2.420 . S
U3406 O3426 2.455 . S
U3406 O3427 2.449 . S
O3407 U3406 2.454 . S
O3407 C3409 1.353 . S
O3408 U3406 2.458 . S
O3408 C3409 1.286 . S
C3409 U3406 2.984 . S
C3409 O3407 1.353 . S
C3409 O3408 1.286 . S
C3409 C3411 1.363 . S
C3410 C3400 1.465 . S
C3410 U3406 2.847 . S
C3410 O3424 1.249 . S
C3410 O3425 1.202 . S
C3411 C3409 1.363 . S
C3411 C3413 1.408 . S
C3411 C3416 1.342 . S
C3412 C3413 1.310 . S
C3412 C3415 1.461 . S
C3412 H3432 0.932 . S
C3413 C3411 1.408 . S
C3413 C3412 1.310 . S
C3413 H3433 0.930 . S
C3414 C3415 1.474 . S
C3414 C3416 1.285 . S
C3414 H3434 0.929 . S
C3415 C3412 1.461 . S
C3415 C3414 1.474 . S
C3416 C3411 1.342 . S
C3416 C3414 1.285 . S
C3416 H3435 0.930 . S
C3417 C3420 1.424 . S
C3417 C3422 1.245 . S
C3417 C3423 1.428 . S
C3418 C3421 1.260 . S
C3418 C3422 1.477 . S
C3418 H3436 0.932 . S
C3419 C3420 1.384 . S
C3419 C3421 1.479 . S
C3419 H3437 0.929 . S
C3420 C3417 1.424 . S
C3420 C3419 1.384 . S
C3420 H3438 0.928 . S
C3421 C3418 1.260 . S
C3421 C3419 1.479 . S
C3422 C3417 1.245 . S
C3422 C3418 1.477 . S
C3422 H3439 0.932 . S
C3423 U3406 2.882 . S
C3423 C3417 1.428 . S
C3423 O3426 1.301 . S
C3423 O3427 1.282 . S
O3424 U3406 2.441 . S
O3424 C3410 1.249 . S
O3425 U3406 2.420 . S
O3425 C3410 1.202 . S
O3426 U3406 2.455 . S
O3426 C3423 1.301 . S
O3427 U3406 2.449 . S
O3427 C3423 1.282 . S
H3428 C3401 0.931 . S
H3429 C3403 0.929 . S
H3430 C3404 0.930 . S
H3431 C3405 0.931 . S
H3432 C3412 0.932 . S
H3433 C3413 0.930 . S
H3434 C3414 0.929 . S
H3435 C3416 0.930 . S
H3436 C3418 0.932 . S
H3437 C3419 0.929 . S
H3438 C3420 0.928 . S
H3439 C3422 0.932 . S
C3440 C3441 1.264 . S
C3440 C3445 1.479 . S
C3440 C3450 1.465 . S
C3441 C3440 1.264 . S
C3441 C3443 1.339 . S
C3441 H3468 0.931 . S
C3442 C3443 1.395 . S
C3442 C3444 1.320 . S
C3443 C3441 1.339 . S
C3443 C3442 1.395 . S
C3443 H3469 0.929 . S
C3444 C3442 1.320 . S
C3444 C3445 1.405 . S
C3444 H3470 0.930 . S
C3445 C3440 1.479 . S
C3445 C3444 1.405 . S
C3445 H3471 0.931 . S
U3446 O3447 2.454 . S
U3446 O3448 2.458 . S
U3446 C3449 2.984 . S
U3446 C3450 2.847 . S
U3446 C3463 2.882 . S
U3446 O3464 2.441 . S
U3446 O3465 2.420 . S
U3446 O3466 2.455 . S
U3446 O3467 2.449 . S
O3447 U3446 2.454 . S
O3447 C3449 1.353 . S
O3448 U3446 2.458 . S
O3448 C3449 1.286 . S
C3449 U3446 2.984 . S
C3449 O3447 1.353 . S
C3449 O3448 1.286 . S
C3449 C3451 1.363 . S
C3450 C3440 1.465 . S
C3450 U3446 2.847 . S
C3450 O3464 1.249 . S
C3450 O3465 1.202 . S
C3451 C3449 1.363 . S
C3451 C3453 1.408 . S
C3451 C3456 1.342 . S
C3452 C3453 1.310 . S
C3452 C3455 1.461 . S
C3452 H3472 0.932 . S
C3453 C3451 1.408 . S
C3453 C3452 1.310 . S
C3453 H3473 0.930 . S
C3454 C3455 1.474 . S
C3454 C3456 1.285 . S
C3454 H3474 0.929 . S
C3455 C3452 1.461 . S
C3455 C3454 1.474 . S
C3456 C3451 1.342 . S
C3456 C3454 1.285 . S
C3456 H3475 0.930 . S
C3457 C3460 1.424 . S
C3457 C3462 1.245 . S
C3457 C3463 1.428 . S
C3458 C3461 1.260 . S
C3458 C3462 1.477 . S
C3458 H3476 0.932 . S
C3459 C3460 1.384 . S
C3459 C3461 1.479 . S
C3459 H3477 0.929 . S
C3460 C3457 1.424 . S
C3460 C3459 1.384 . S
C3460 H3478 0.928 . S
C3461 C3458 1.260 . S
C3461 C3459 1.479 . S
C3462 C3457 1.245 . S
C3462 C3458 1.477 . S
C3462 H3479 0.932 . S
C3463 U3446 2.882 . S
C3463 C3457 1.428 . S
C3463 O3466 1.301 . S
C3463 O3467 1.282 . S
O3464 U3446 2.441 . S
O3464 C3450 1.249 . S
O3465 U3446 2.420 . S
O3465 C3450 1.202 . S
O3466 U3446 2.455 . S
O3466 C3463 1.301 . S
O3467 U3446 2.449 . S
O3467 C3463 1.282 . S
H3468 C3441 0.931 . S
H3469 C3443 0.929 . S
H3470 C3444 0.930 . S
H3471 C3445 0.931 . S
H3472 C3452 0.932 . S
H3473 C3453 0.930 . S
H3474 C3454 0.929 . S
H3475 C3456 0.930 . S
H3476 C3458 0.932 . S
H3477 C3459 0.929 . S
H3478 C3460 0.928 . S
H3479 C3462 0.932 . S
C3480 C3481 1.264 . S
C3480 C3485 1.479 . S
C3480 C3490 1.465 . S
C3481 C3480 1.264 . S
C3481 C3483 1.339 . S
C3481 H3508 0.931 . S
C3482 C3483 1.395 . S
C3482 C3484 1.320 . S
C3483 C3481 1.339 . S
C3483 C3482 1.395 . S
C3483 H3509 0.929 . S
C3484 C3482 1.320 . S
C3484 C3485 1.405 . S
C3484 H3510 0.930 . S
C3485 C3480 1.479 . S
C3485 C3484 1.405 . S
C3485 H3511 0.931 . S
U3486 O3487 2.454 . S
U3486 O3488 2.458 . S
U3486 C3489 2.984 . S
U3486 C3490 2.847 . S
U3486 C3503 2.882 . S
U3486 O3504 2.441 . S
U3486 O3505 2.420 . S
U3486 O3506 2.455 . S
U3486 O3507 2.449 . S
O3487 U3486 2.454 . S
O3487 C3489 1.353 . S
O3488 U3486 2.458 . S
O3488 C3489 1.286 . S
C3489 U3486 2.984 . S
C3489 O3487 1.353 . S
C3489 O3488 1.286 . S
C3489 C3491 1.363 . S
C3490 C3480 1.465 . S
C3490 U3486 2.847 . S
C3490 O3504 1.249 . S
C3490 O3505 1.202 . S
C3491 C3489 1.363 . S
C3491 C3493 1.408 . S
C3491 C3496 1.342 . S
C3492 C3493 1.310 . S
C3492 C3495 1.461 . S
C3492 H3512 0.932 . S
C3493 C3491 1.408 . S
C3493 C3492 1.310 . S
C3493 H3513 0.930 . S
C3494 C3495 1.474 . S
C3494 C3496 1.285 . S
C3494 H3514 0.929 . S
C3495 C3492 1.461 . S
C3495 C3494 1.474 . S
C3496 C3491 1.342 . S
C3496 C3494 1.285 . S
C3496 H3515 0.930 . S
C3497 C3500 1.424 . S
C3497 C3502 1.245 . S
C3497 C3503 1.428 . S
C3498 C3501 1.260 . S
C3498 C3502 1.477 . S
C3498 H3516 0.932 . S
C3499 C3500 1.384 . S
C3499 C3501 1.479 . S
C3499 H3517 0.929 . S
C3500 C3497 1.424 . S
C3500 C3499 1.384 . S
C3500 H3518 0.928 . S
C3501 C3498 1.260 . S
C3501 C3499 1.479 . S
C3502 C3497 1.245 . S
C3502 C3498 1.477 . S
C3502 H3519 0.932 . S
C3503 U3486 2.882 . S
C3503 C3497 1.428 . S
C3503 O3506 1.301 . S
C3503 O3507 1.282 . S
O3504 U3486 2.441 . S
O3504 C3490 1.249 . S
O3505 U3486 2.420 . S
O3505 C3490 1.202 . S
O3506 U3486 2.455 . S
O3506 C3503 1.301 . S
O3507 U3486 2.449 . S
O3507 C3503 1.282 . S
H3508 C3481 0.931 . S
H3509 C3483 0.929 . S
H3510 C3484 0.930 . S
H3511 C3485 0.931 . S
H3512 C3492 0.932 . S
H3513 C3493 0.930 . S
H3514 C3494 0.929 . S
H3515 C3496 0.930 . S
H3516 C3498 0.932 . S
H3517 C3499 0.929 . S
H3518 C3500 0.928 . S
H3519 C3502 0.932 . S
C3520 C3521 1.264 . S
C3520 C3525 1.479 . S
C3520 C3530 1.465 . S
C3521 C3520 1.264 . S
C3521 C3523 1.339 . S
C3521 H3548 0.931 . S
C3522 C3523 1.395 . S
C3522 C3524 1.320 . S
C3523 C3521 1.339 . S
C3523 C3522 1.395 . S
C3523 H3549 0.929 . S
C3524 C3522 1.320 . S
C3524 C3525 1.405 . S
C3524 H3550 0.930 . S
C3525 C3520 1.479 . S
C3525 C3524 1.405 . S
C3525 H3551 0.931 . S
U3526 O3527 2.454 . S
U3526 O3528 2.458 . S
U3526 C3529 2.984 . S
U3526 C3530 2.847 . S
U3526 C3543 2.882 . S
U3526 O3544 2.441 . S
U3526 O3545 2.420 . S
U3526 O3546 2.455 . S
U3526 O3547 2.449 . S
O3527 U3526 2.454 . S
O3527 C3529 1.353 . S
O3528 U3526 2.458 . S
O3528 C3529 1.286 . S
C3529 U3526 2.984 . S
C3529 O3527 1.353 . S
C3529 O3528 1.286 . S
C3529 C3531 1.363 . S
C3530 C3520 1.465 . S
C3530 U3526 2.847 . S
C3530 O3544 1.249 . S
C3530 O3545 1.202 . S
C3531 C3529 1.363 . S
C3531 C3533 1.408 . S
C3531 C3536 1.342 . S
C3532 C3533 1.310 . S
C3532 C3535 1.461 . S
C3532 H3552 0.932 . S
C3533 C3531 1.408 . S
C3533 C3532 1.310 . S
C3533 H3553 0.930 . S
C3534 C3535 1.474 . S
C3534 C3536 1.285 . S
C3534 H3554 0.929 . S
C3535 C3532 1.461 . S
C3535 C3534 1.474 . S
C3536 C3531 1.342 . S
C3536 C3534 1.285 . S
C3536 H3555 0.930 . S
C3537 C3540 1.424 . S
C3537 C3542 1.245 . S
C3537 C3543 1.428 . S
C3538 C3541 1.260 . S
C3538 C3542 1.477 . S
C3538 H3556 0.932 . S
C3539 C3540 1.384 . S
C3539 C3541 1.479 . S
C3539 H3557 0.929 . S
C3540 C3537 1.424 . S
C3540 C3539 1.384 . S
C3540 H3558 0.928 . S
C3541 C3538 1.260 . S
C3541 C3539 1.479 . S
C3542 C3537 1.245 . S
C3542 C3538 1.477 . S
C3542 H3559 0.932 . S
C3543 U3526 2.882 . S
C3543 C3537 1.428 . S
C3543 O3546 1.301 . S
C3543 O3547 1.282 . S
O3544 U3526 2.441 . S
O3544 C3530 1.249 . S
O3545 U3526 2.420 . S
O3545 C3530 1.202 . S
O3546 U3526 2.455 . S
O3546 C3543 1.301 . S
O3547 U3526 2.449 . S
O3547 C3543 1.282 . S
H3548 C3521 0.931 . S
H3549 C3523 0.929 . S
H3550 C3524 0.930 . S
H3551 C3525 0.931 . S
H3552 C3532 0.932 . S
H3553 C3533 0.930 . S
H3554 C3534 0.929 . S
H3555 C3536 0.930 . S
H3556 C3538 0.932 . S
H3557 C3539 0.929 . S
H3558 C3540 0.928 . S
H3559 C3542 0.932 . S
C3560 C3561 1.264 . S
C3560 C3565 1.479 . S
C3560 C3570 1.465 . S
C3561 C3560 1.264 . S
C3561 C3563 1.339 . S
C3561 H3588 0.931 . S
C3562 C3563 1.395 . S
C3562 C3564 1.320 . S
C3563 C3561 1.339 . S
C3563 C3562 1.395 . S
C3563 H3589 0.929 . S
C3564 C3562 1.320 . S
C3564 C3565 1.405 . S
C3564 H3590 0.930 . S
C3565 C3560 1.479 . S
C3565 C3564 1.405 . S
C3565 H3591 0.931 . S
U3566 O3567 2.454 . S
U3566 O3568 2.458 . S
U3566 C3569 2.984 . S
U3566 C3570 2.847 . S
U3566 C3583 2.882 . S
U3566 O3584 2.441 . S
U3566 O3585 2.420 . S
U3566 O3586 2.455 . S
U3566 O3587 2.449 . S
O3567 U3566 2.454 . S
O3567 C3569 1.353 . S
O3568 U3566 2.458 . S
O3568 C3569 1.286 . S
C3569 U3566 2.984 . S
C3569 O3567 1.353 . S
C3569 O3568 1.286 . S
C3569 C3571 1.363 . S
C3570 C3560 1.465 . S
C3570 U3566 2.847 . S
C3570 O3584 1.249 . S
C3570 O3585 1.202 . S
C3571 C3569 1.363 . S
C3571 C3573 1.408 . S
C3571 C3576 1.342 . S
C3572 C3573 1.310 . S
C3572 C3575 1.461 . S
C3572 H3592 0.932 . S
C3573 C3571 1.408 . S
C3573 C3572 1.310 . S
C3573 H3593 0.930 . S
C3574 C3575 1.474 . S
C3574 C3576 1.285 . S
C3574 H3594 0.929 . S
C3575 C3572 1.461 . S
C3575 C3574 1.474 . S
C3576 C3571 1.342 . S
C3576 C3574 1.285 . S
C3576 H3595 0.930 . S
C3577 C3580 1.424 . S
C3577 C3582 1.245 . S
C3577 C3583 1.428 . S
C3578 C3581 1.260 . S
C3578 C3582 1.477 . S
C3578 H3596 0.932 . S
C3579 C3580 1.384 . S
C3579 C3581 1.479 . S
C3579 H3597 0.929 . S
C3580 C3577 1.424 . S
C3580 C3579 1.384 . S
C3580 H3598 0.928 . S
C3581 C3578 1.260 . S
C3581 C3579 1.479 . S
C3582 C3577 1.245 . S
C3582 C3578 1.477 . S
C3582 H3599 0.932 . S
C3583 U3566 2.882 . S
C3583 C3577 1.428 . S
C3583 O3586 1.301 . S
C3583 O3587 1.282 . S
O3584 U3566 2.441 . S
O3584 C3570 1.249 . S
O3585 U3566 2.420 . S
O3585 C3570 1.202 . S
O3586 U3566 2.455 . S
O3586 C3583 1.301 . S
O3587 U3566 2.449 . S
O3587 C3583 1.282 . S
H3588 C3561 0.931 . S
H3589 C3563 0.929 . S
H3590 C3564 0.930 . S
H3591 C3565 0.931 . S
H3592 C3572 0.932 . S
H3593 C3573 0.930 . S
H3594 C3574 0.929 . S
H3595 C3576 0.930 . S
H3596 C3578 0.932 . S
H3597 C3579 0.929 . S
H3598 C3580 0.928 . S
H3599 C3582 0.932 . S
C3600 C3601 1.264 . S
C3600 C3605 1.479 . S
C3600 C3610 1.465 . S
C3601 C3600 1.264 . S
C3601 C3603 1.339 . S
C3601 H3628 0.931 . S
C3602 C3603 1.395 . S
C3602 C3604 1.320 . S
C3603 C3601 1.339 . S
C3603 C3602 1.395 . S
C3603 H3629 0.929 . S
C3604 C3602 1.320 . S
C3604 C3605 1.405 . S
C3604 H3630 0.930 . S
C3605 C3600 1.479 . S
C3605 C3604 1.405 . S
C3605 H3631 0.931 . S
U3606 O3607 2.454 . S
U3606 O3608 2.458 . S
U3606 C3609 2.984 . S
U3606 C3610 2.847 . S
U3606 C3623 2.882 . S
U3606 O3624 2.441 . S
U3606 O3625 2.420 . S
U3606 O3626 2.455 . S
U3606 O3627 2.449 . S
O3607 U3606 2.454 . S
O3607 C3609 1.353 . S
O3608 U3606 2.458 . S
O3608 C3609 1.286 . S
C3609 U3606 2.984 . S
C3609 O3607 1.353 . S
C3609 O3608 1.286 . S
C3609 C3611 1.363 . S
C3610 C3600 1.465 . S
C3610 U3606 2.847 . S
C3610 O3624 1.249 . S
C3610 O3625 1.202 . S
C3611 C3609 1.363 . S
C3611 C3613 1.408 . S
C3611 C3616 1.342 . S
C3612 C3613 1.310 . S
C3612 C3615 1.461 . S
C3612 H3632 0.932 . S
C3613 C3611 1.408 . S
C3613 C3612 1.310 . S
C3613 H3633 0.930 . S
C3614 C3615 1.474 . S
C3614 C3616 1.285 . S
C3614 H3634 0.929 . S
C3615 C3612 1.461 . S
C3615 C3614 1.474 . S
C3616 C3611 1.342 . S
C3616 C3614 1.285 . S
C3616 H3635 0.930 . S
C3617 C3620 1.424 . S
C3617 C3622 1.245 . S
C3617 C3623 1.428 . S
C3618 C3621 1.260 . S
C3618 C3622 1.477 . S
C3618 H3636 0.932 . S
C3619 C3620 1.384 . S
C3619 C3621 1.479 . S
C3619 H3637 0.929 . S
C3620 C3617 1.424 . S
C3620 C3619 1.384 . S
C3620 H3638 0.928 . S
C3621 C3618 1.260 . S
C3621 C3619 1.479 . S
C3622 C3617 1.245 . S
C3622 C3618 1.477 . S
C3622 H3639 0.932 . S
C3623 U3606 2.882 . S
C3623 C3617 1.428 . S
C3623 O3626 1.301 . S
C3623 O3627 1.282 . S
O3624 U3606 2.441 . S
O3624 C3610 1.249 . S
O3625 U3606 2.420 . S
O3625 C3610 1.202 . S
O3626 U3606 2.455 . S
O3626 C3623 1.301 . S
O3627 U3606 2.449 . S
O3627 C3623 1.282 . S
H3628 C3601 0.931 . S
H3629 C3603 0.929 . S
H3630 C3604 0.930 . S
H3631 C3605 0.931 . S
H3632 C3612 0.932 . S
H3633 C3613 0.930 . S
H3634 C3614 0.929 . S
H3635 C3616 0.930 . S
H3636 C3618 0.932 . S
H3637 C3619 0.929 . S
H3638 C3620 0.928 . S
H3639 C3622 0.932 . S
C3640 C3641 1.264 . S
C3640 C3645 1.479 . S
C3640 C3650 1.465 . S
C3641 C3640 1.264 . S
C3641 C3643 1.339 . S
C3641 H3668 0.931 . S
C3642 C3643 1.395 . S
C3642 C3644 1.320 . S
C3643 C3641 1.339 . S
C3643 C3642 1.395 . S
C3643 H3669 0.929 . S
C3644 C3642 1.320 . S
C3644 C3645 1.405 . S
C3644 H3670 0.930 . S
C3645 C3640 1.479 . S
C3645 C3644 1.405 . S
C3645 H3671 0.931 . S
U3646 O3647 2.454 . S
U3646 O3648 2.458 . S
U3646 C3649 2.984 . S
U3646 C3650 2.847 . S
U3646 C3663 2.882 . S
U3646 O3664 2.441 . S
U3646 O3665 2.420 . S
U3646 O3666 2.455 . S
U3646 O3667 2.449 . S
O3647 U3646 2.454 . S
O3647 C3649 1.353 . S
O3648 U3646 2.458 . S
O3648 C3649 1.286 . S
C3649 U3646 2.984 . S
C3649 O3647 1.353 . S
C3649 O3648 1.286 . S
C3649 C3651 1.363 . S
C3650 C3640 1.465 . S
C3650 U3646 2.847 . S
C3650 O3664 1.249 . S
C3650 O3665 1.202 . S
C3651 C3649 1.363 . S
C3651 C3653 1.408 . S
C3651 C3656 1.342 . S
C3652 C3653 1.310 . S
C3652 C3655 1.461 . S
C3652 H3672 0.932 . S
C3653 C3651 1.408 . S
C3653 C3652 1.310 . S
C3653 H3673 0.930 . S
C3654 C3655 1.474 . S
C3654 C3656 1.285 . S
C3654 H3674 0.929 . S
C3655 C3652 1.461 . S
C3655 C3654 1.474 . S
C3656 C3651 1.342 . S
C3656 C3654 1.285 . S
C3656 H3675 0.930 . S
C3657 C3660 1.424 . S
C3657 C3662 1.245 . S
C3657 C3663 1.428 . S
C3658 C3661 1.260 . S
C3658 C3662 1.477 . S
C3658 H3676 0.932 . S
C3659 C3660 1.384 . S
C3659 C3661 1.479 . S
C3659 H3677 0.929 . S
C3660 C3657 1.424 . S
C3660 C3659 1.384 . S
C3660 H3678 0.928 . S
C3661 C3658 1.260 . S
C3661 C3659 1.479 . S
C3662 C3657 1.245 . S
C3662 C3658 1.477 . S
C3662 H3679 0.932 . S
C3663 U3646 2.882 . S
C3663 C3657 1.428 . S
C3663 O3666 1.301 . S
C3663 O3667 1.282 . S
O3664 U3646 2.441 . S
O3664 C3650 1.249 . S
O3665 U3646 2.420 . S
O3665 C3650 1.202 . S
O3666 U3646 2.455 . S
O3666 C3663 1.301 . S
O3667 U3646 2.449 . S
O3667 C3663 1.282 . S
H3668 C3641 0.931 . S
H3669 C3643 0.929 . S
H3670 C3644 0.930 . S
H3671 C3645 0.931 . S
H3672 C3652 0.932 . S
H3673 C3653 0.930 . S
H3674 C3654 0.929 . S
H3675 C3656 0.930 . S
H3676 C3658 0.932 . S
H3677 C3659 0.929 . S
H3678 C3660 0.928 . S
H3679 C3662 0.932 . S
C3680 C3681 1.264 . S
C3680 C3685 1.479 . S
C3680 C3690 1.465 . S
C3681 C3680 1.264 . S
C3681 C3683 1.339 . S
C3681 H3708 0.931 . S
C3682 C3683 1.395 . S
C3682 C3684 1.320 . S
C3683 C3681 1.339 . S
C3683 C3682 1.395 . S
C3683 H3709 0.929 . S
C3684 C3682 1.320 . S
C3684 C3685 1.405 . S
C3684 H3710 0.930 . S
C3685 C3680 1.479 . S
C3685 C3684 1.405 . S
C3685 H3711 0.931 . S
U3686 O3687 2.454 . S
U3686 O3688 2.458 . S
U3686 C3689 2.984 . S
U3686 C3690 2.847 . S
U3686 C3703 2.882 . S
U3686 O3704 2.441 . S
U3686 O3705 2.420 . S
U3686 O3706 2.455 . S
U3686 O3707 2.449 . S
O3687 U3686 2.454 . S
O3687 C3689 1.353 . S
O3688 U3686 2.458 . S
O3688 C3689 1.286 . S
C3689 U3686 2.984 . S
C3689 O3687 1.353 . S
C3689 O3688 1.286 . S
C3689 C3691 1.363 . S
C3690 C3680 1.465 . S
C3690 U3686 2.847 . S
C3690 O3704 1.249 . S
C3690 O3705 1.202 . S
C3691 C3689 1.363 . S
C3691 C3693 1.408 . S
C3691 C3696 1.342 . S
C3692 C3693 1.310 . S
C3692 C3695 1.461 . S
C3692 H3712 0.932 . S
C3693 C3691 1.408 . S
C3693 C3692 1.310 . S
C3693 H3713 0.930 . S
C3694 C3695 1.474 . S
C3694 C3696 1.285 . S
C3694 H3714 0.929 . S
C3695 C3692 1.461 . S
C3695 C3694 1.474 . S
C3696 C3691 1.342 . S
C3696 C3694 1.285 . S
C3696 H3715 0.930 . S
C3697 C3700 1.424 . S
C3697 C3702 1.245 . S
C3697 C3703 1.428 . S
C3698 C3701 1.260 . S
C3698 C3702 1.477 . S
C3698 H3716 0.932 . S
C3699 C3700 1.384 . S
C3699 C3701 1.479 . S
C3699 H3717 0.929 . S
C3700 C3697 1.424 . S
C3700 C3699 1.384 . S
C3700 H3718 0.928 . S
C3701 C3698 1.260 . S
C3701 C3699 1.479 . S
C3702 C3697 1.245 . S
C3702 C3698 1.477 . S
C3702 H3719 0.932 . S
C3703 U3686 2.882 . S
C3703 C3697 1.428 . S
C3703 O3706 1.301 . S
C3703 O3707 1.282 . S
O3704 U3686 2.441 . S
O3704 C3690 1.249 . S
O3705 U3686 2.420 . S
O3705 C3690 1.202 . S
O3706 U3686 2.455 . S
O3706 C3703 1.301 . S
O3707 U3686 2.449 . S
O3707 C3703 1.282 . S
H3708 C3681 0.931 . S
H3709 C3683 0.929 . S
H3710 C3684 0.930 . S
H3711 C3685 0.931 . S
H3712 C3692 0.932 . S
H3713 C3693 0.930 . S
H3714 C3694 0.929 . S
H3715 C3696 0.930 . S
H3716 C3698 0.932 . S
H3717 C3699 0.929 . S
H3718 C3700 0.928 . S
H3719 C3702 0.932 . S
C3720 C3721 1.264 . S
C3720 C3725 1.479 . S
C3720 C3730 1.465 . S
C3721 C3720 1.264 . S
C3721 C3723 1.339 . S
C3721 H3748 0.931 . S
C3722 C3723 1.395 . S
C3722 C3724 1.320 . S
C3723 C3721 1.339 . S
C3723 C3722 1.395 . S
C3723 H3749 0.929 . S
C3724 C3722 1.320 . S
C3724 C3725 1.405 . S
C3724 H3750 0.930 . S
C3725 C3720 1.479 . S
C3725 C3724 1.405 . S
C3725 H3751 0.931 . S
U3726 O3727 2.454 . S
U3726 O3728 2.458 . S
U3726 C3729 2.984 . S
U3726 C3730 2.847 . S
U3726 C3743 2.882 . S
U3726 O3744 2.441 . S
U3726 O3745 2.420 . S
U3726 O3746 2.455 . S
U3726 O3747 2.449 . S
O3727 U3726 2.454 . S
O3727 C3729 1.353 . S
O3728 U3726 2.458 . S
O3728 C3729 1.286 . S
C3729 U3726 2.984 . S
C3729 O3727 1.353 . S
C3729 O3728 1.286 . S
C3729 C3731 1.363 . S
C3730 C3720 1.465 . S
C3730 U3726 2.847 . S
C3730 O3744 1.249 . S
C3730 O3745 1.202 . S
C3731 C3729 1.363 . S
C3731 C3733 1.408 . S
C3731 C3736 1.342 . S
C3732 C3733 1.310 . S
C3732 C3735 1.461 . S
C3732 H3752 0.932 . S
C3733 C3731 1.408 . S
C3733 C3732 1.310 . S
C3733 H3753 0.930 . S
C3734 C3735 1.474 . S
C3734 C3736 1.285 . S
C3734 H3754 0.929 . S
C3735 C3732 1.461 . S
C3735 C3734 1.474 . S
C3736 C3731 1.342 . S
C3736 C3734 1.285 . S
C3736 H3755 0.930 . S
C3737 C3740 1.424 . S
C3737 C3742 1.245 . S
C3737 C3743 1.428 . S
C3738 C3741 1.260 . S
C3738 C3742 1.477 . S
C3738 H3756 0.932 . S
C3739 C3740 1.384 . S
C3739 C3741 1.479 . S
C3739 H3757 0.929 . S
C3740 C3737 1.424 . S
C3740 C3739 1.384 . S
C3740 H3758 0.928 . S
C3741 C3738 1.260 . S
C3741 C3739 1.479 . S
C3742 C3737 1.245 . S
C3742 C3738 1.477 . S
C3742 H3759 0.932 . S
C3743 U3726 2.882 . S
C3743 C3737 1.428 . S
C3743 O3746 1.301 . S
C3743 O3747 1.282 . S
O3744 U3726 2.441 . S
O3744 C3730 1.249 . S
O3745 U3726 2.420 . S
O3745 C3730 1.202 . S
O3746 U3726 2.455 . S
O3746 C3743 1.301 . S
O3747 U3726 2.449 . S
O3747 C3743 1.282 . S
H3748 C3721 0.931 . S
H3749 C3723 0.929 . S
H3750 C3724 0.930 . S
H3751 C3725 0.931 . S
H3752 C3732 0.932 . S
H3753 C3733 0.930 . S
H3754 C3734 0.929 . S
H3755 C3736 0.930 . S
H3756 C3738 0.932 . S
H3757 C3739 0.929 . S
H3758 C3740 0.928 . S
H3759 C3742 0.932 . S
C3760 C3761 1.264 . S
C3760 C3765 1.479 . S
C3760 C3770 1.465 . S
C3761 C3760 1.264 . S
C3761 C3763 1.339 . S
C3761 H3788 0.931 . S
C3762 C3763 1.395 . S
C3762 C3764 1.320 . S
C3763 C3761 1.339 . S
C3763 C3762 1.395 . S
C3763 H3789 0.929 . S
C3764 C3762 1.320 . S
C3764 C3765 1.405 . S
C3764 H3790 0.930 . S
C3765 C3760 1.479 . S
C3765 C3764 1.405 . S
C3765 H3791 0.931 . S
U3766 O3767 2.454 . S
U3766 O3768 2.458 . S
U3766 C3769 2.984 . S
U3766 C3770 2.847 . S
U3766 C3783 2.882 . S
U3766 O3784 2.441 . S
U3766 O3785 2.420 . S
U3766 O3786 2.455 . S
U3766 O3787 2.449 . S
O3767 U3766 2.454 . S
O3767 C3769 1.353 . S
O3768 U3766 2.458 . S
O3768 C3769 1.286 . S
C3769 U3766 2.984 . S
C3769 O3767 1.353 . S
C3769 O3768 1.286 . S
C3769 C3771 1.363 . S
C3770 C3760 1.465 . S
C3770 U3766 2.847 . S
C3770 O3784 1.249 . S
C3770 O3785 1.202 . S
C3771 C3769 1.363 . S
C3771 C3773 1.408 . S
C3771 C3776 1.342 . S
C3772 C3773 1.310 . S
C3772 C3775 1.461 . S
C3772 H3792 0.932 . S
C3773 C3771 1.408 . S
C3773 C3772 1.310 . S
C3773 H3793 0.930 . S
C3774 C3775 1.474 . S
C3774 C3776 1.285 . S
C3774 H3794 0.929 . S
C3775 C3772 1.461 . S
C3775 C3774 1.474 . S
C3776 C3771 1.342 . S
C3776 C3774 1.285 . S
C3776 H3795 0.930 . S
C3777 C3780 1.424 . S
C3777 C3782 1.245 . S
C3777 C3783 1.428 . S
C3778 C3781 1.260 . S
C3778 C3782 1.477 . S
C3778 H3796 0.932 . S
C3779 C3780 1.384 . S
C3779 C3781 1.479 . S
C3779 H3797 0.929 . S
C3780 C3777 1.424 . S
C3780 C3779 1.384 . S
C3780 H3798 0.928 . S
C3781 C3778 1.260 . S
C3781 C3779 1.479 . S
C3782 C3777 1.245 . S
C3782 C3778 1.477 . S
C3782 H3799 0.932 . S
C3783 U3766 2.882 . S
C3783 C3777 1.428 . S
C3783 O3786 1.301 . S
C3783 O3787 1.282 . S
O3784 U3766 2.441 . S
O3784 C3770 1.249 . S
O3785 U3766 2.420 . S
O3785 C3770 1.202 . S
O3786 U3766 2.455 . S
O3786 C3783 1.301 . S
O3787 U3766 2.449 . S
O3787 C3783 1.282 . S
H3788 C3761 0.931 . S
H3789 C3763 0.929 . S
H3790 C3764 0.930 . S
H3791 C3765 0.931 . S
H3792 C3772 0.932 . S
H3793 C3773 0.930 . S
H3794 C3774 0.929 . S
H3795 C3776 0.930 . S
H3796 C3778 0.932 . S
H3797 C3779 0.929 . S
H3798 C3780 0.928 . S
H3799 C3782 0.932 . S
C3800 C3801 1.264 . S
C3800 C3805 1.479 . S
C3800 C3810 1.465 . S
C3801 C3800 1.264 . S
C3801 C3803 1.339 . S
C3801 H3828 0.931 . S
C3802 C3803 1.395 . S
C3802 C3804 1.320 . S
C3803 C3801 1.339 . S
C3803 C3802 1.395 . S
C3803 H3829 0.929 . S
C3804 C3802 1.320 . S
C3804 C3805 1.405 . S
C3804 H3830 0.930 . S
C3805 C3800 1.479 . S
C3805 C3804 1.405 . S
C3805 H3831 0.931 . S
U3806 O3807 2.454 . S
U3806 O3808 2.458 . S
U3806 C3809 2.984 . S
U3806 C3810 2.847 . S
U3806 C3823 2.882 . S
U3806 O3824 2.441 . S
U3806 O3825 2.420 . S
U3806 O3826 2.455 . S
U3806 O3827 2.449 . S
O3807 U3806 2.454 . S
O3807 C3809 1.353 . S
O3808 U3806 2.458 . S
O3808 C3809 1.286 . S
C3809 U3806 2.984 . S
C3809 O3807 1.353 . S
C3809 O3808 1.286 . S
C3809 C3811 1.363 . S
C3810 C3800 1.465 . S
C3810 U3806 2.847 . S
C3810 O3824 1.249 . S
C3810 O3825 1.202 . S
C3811 C3809 1.363 . S
C3811 C3813 1.408 . S
C3811 C3816 1.342 . S
C3812 C3813 1.310 . S
C3812 C3815 1.461 . S
C3812 H3832 0.932 . S
C3813 C3811 1.408 . S
C3813 C3812 1.310 . S
C3813 H3833 0.930 . S
C3814 C3815 1.474 . S
C3814 C3816 1.285 . S
C3814 H3834 0.929 . S
C3815 C3812 1.461 . S
C3815 C3814 1.474 . S
C3816 C3811 1.342 . S
C3816 C3814 1.285 . S
C3816 H3835 0.930 . S
C3817 C3820 1.424 . S
C3817 C3822 1.245 . S
C3817 C3823 1.428 . S
C3818 C3821 1.260 . S
C3818 C3822 1.477 . S
C3818 H3836 0.932 . S
C3819 C3820 1.384 . S
C3819 C3821 1.479 . S
C3819 H3837 0.929 . S
C3820 C3817 1.424 . S
C3820 C3819 1.384 . S
C3820 H3838 0.928 . S
C3821 C3818 1.260 . S
C3821 C3819 1.479 . S
C3822 C3817 1.245 . S
C3822 C3818 1.477 . S
C3822 H3839 0.932 . S
C3823 U3806 2.882 . S
C3823 C3817 1.428 . S
C3823 O3826 1.301 . S
C3823 O3827 1.282 . S
O3824 U3806 2.441 . S
O3824 C3810 1.249 . S
O3825 U3806 2.420 . S
O3825 C3810 1.202 . S
O3826 U3806 2.455 . S
O3826 C3823 1.301 . S
O3827 U3806 2.449 . S
O3827 C3823 1.282 . S
H3828 C3801 0.931 . S
H3829 C3803 0.929 . S
H3830 C3804 0.930 . S
H3831 C3805 0.931 . S
H3832 C3812 0.932 . S
H3833 C3813 0.930 . S
H3834 C3814 0.929 . S
H3835 C3816 0.930 . S
H3836 C3818 0.932 . S
H3837 C3819 0.929 . S
H3838 C3820 0.928 . S
H3839 C3822 0.932 . S
O3840 Cd3841 2.300 . S
O3840 C3847 1.275 . S
Cd3841 O3840 2.300 . S
Cd3841 O3849 2.381 . S
Cd3841 O3850 2.378 . S
O3842 Cd3843 2.385 . S
O3842 C3847 1.255 . S
Cd3843 O3842 2.385 . S
Cd3843 O3844 2.317 . S
O3844 Cd3843 2.317 . S
O3844 C3845 1.232 . S
C3845 O3844 1.232 . S
C3845 O3846 1.218 . S
O3846 C3845 1.218 . S
C3847 O3840 1.275 . S
C3847 O3842 1.255 . S
C3848 O3849 1.258 . S
C3848 O3850 1.256 . S
O3849 Cd3841 2.381 . S
O3849 C3848 1.258 . S
O3850 Cd3841 2.378 . S
O3850 C3848 1.256 . S
O3851 Cd3852 2.300 . S
O3851 C3858 1.275 . S
Cd3852 O3851 2.300 . S
Cd3852 O3860 2.381 . S
Cd3852 O3861 2.378 . S
O3853 Cd3854 2.385 . S
O3853 C3858 1.255 . S
Cd3854 O3853 2.385 . S
Cd3854 O3855 2.317 . S
O3855 Cd3854 2.317 . S
O3855 C3856 1.232 . S
C3856 O3855 1.232 . S
C3856 O3857 1.218 . S
O3857 C3856 1.218 . S
C3858 O3851 1.275 . S
C3858 O3853 1.255 . S
C3859 O3860 1.258 . S
C3859 O3861 1.256 . S
O3860 Cd3852 2.381 . S
O3860 C3859 1.258 . S
O3861 Cd3852 2.378 . S
O3861 C3859 1.256 . S
O3862 Cd3863 2.300 . S
O3862 C3869 1.275 . S
Cd3863 O3862 2.300 . S
Cd3863 O3871 2.381 . S
Cd3863 O3872 2.378 . S
O3864 Cd3865 2.385 . S
O3864 C3869 1.255 . S
Cd3865 O3864 2.385 . S
Cd3865 O3866 2.317 . S
O3866 Cd3865 2.317 . S
O3866 C3867 1.232 . S
C3867 O3866 1.232 . S
C3867 O3868 1.218 . S
O3868 C3867 1.218 . S
C3869 O3862 1.275 . S
C3869 O3864 1.255 . S
C3870 O3871 1.258 . S
C3870 O3872 1.256 . S
O3871 Cd3863 2.381 . S
O3871 C3870 1.258 . S
O3872 Cd3863 2.378 . S
O3872 C3870 1.256 . S
O3873 Cd3874 2.300 . S
O3873 C3880 1.275 . S
Cd3874 O3873 2.300 . S
Cd3874 O3882 2.381 . S
Cd3874 O3883 2.378 . S
O3875 Cd3876 2.385 . S
O3875 C3880 1.255 . S
Cd3876 O3875 2.385 . S
Cd3876 O3877 2.317 . S
O3877 Cd3876 2.317 . S
O3877 C3878 1.232 . S
C3878 O3877 1.232 . S
C3878 O3879 1.218 . S
O3879 C3878 1.218 . S
C3880 O3873 1.275 . S
C3880 O3875 1.255 . S
C3881 O3882 1.258 . S
C3881 O3883 1.256 . S
O3882 Cd3874 2.381 . S
O3882 C3881 1.258 . S
O3883 Cd3874 2.378 . S
O3883 C3881 1.256 . S
O3884 Cd3885 2.300 . S
O3884 C3891 1.275 . S
Cd3885 O3884 2.300 . S
Cd3885 O3893 2.381 . S
Cd3885 O3894 2.378 . S
O3886 Cd3887 2.385 . S
O3886 C3891 1.255 . S
Cd3887 O3886 2.385 . S
Cd3887 O3888 2.317 . S
O3888 Cd3887 2.317 . S
O3888 C3889 1.232 . S
C3889 O3888 1.232 . S
C3889 O3890 1.218 . S
O3890 C3889 1.218 . S
C3891 O3884 1.275 . S
C3891 O3886 1.255 . S
C3892 O3893 1.258 . S
C3892 O3894 1.256 . S
O3893 Cd3885 2.381 . S
O3893 C3892 1.258 . S
O3894 Cd3885 2.378 . S
O3894 C3892 1.256 . S
O3895 Cd3896 2.300 . S
O3895 C3902 1.275 . S
Cd3896 O3895 2.300 . S
Cd3896 O3904 2.381 . S
Cd3896 O3905 2.378 . S
O3897 Cd3898 2.385 . S
O3897 C3902 1.255 . S
Cd3898 O3897 2.385 . S
Cd3898 O3899 2.317 . S
O3899 Cd3898 2.317 . S
O3899 C3900 1.232 . S
C3900 O3899 1.232 . S
C3900 O3901 1.218 . S
O3901 C3900 1.218 . S
C3902 O3895 1.275 . S
C3902 O3897 1.255 . S
C3903 O3904 1.258 . S
C3903 O3905 1.256 . S
O3904 Cd3896 2.381 . S
O3904 C3903 1.258 . S
O3905 Cd3896 2.378 . S
O3905 C3903 1.256 . S
O3906 Cd3907 2.300 . S
O3906 C3913 1.275 . S
Cd3907 O3906 2.300 . S
Cd3907 O3915 2.381 . S
Cd3907 O3916 2.378 . S
O3908 Cd3909 2.385 . S
O3908 C3913 1.255 . S
Cd3909 O3908 2.385 . S
Cd3909 O3910 2.317 . S
O3910 Cd3909 2.317 . S
O3910 C3911 1.232 . S
C3911 O3910 1.232 . S
C3911 O3912 1.218 . S
O3912 C3911 1.218 . S
C3913 O3906 1.275 . S
C3913 O3908 1.255 . S
C3914 O3915 1.258 . S
C3914 O3916 1.256 . S
O3915 Cd3907 2.381 . S
O3915 C3914 1.258 . S
O3916 Cd3907 2.378 . S
O3916 C3914 1.256 . S
O3917 Cd3918 2.300 . S
O3917 C3924 1.275 . S
Cd3918 O3917 2.300 . S
Cd3918 O3926 2.381 . S
Cd3918 O3927 2.378 . S
O3919 Cd3920 2.385 . S
O3919 C3924 1.255 . S
Cd3920 O3919 2.385 . S
Cd3920 O3921 2.317 . S
O3921 Cd3920 2.317 . S
O3921 C3922 1.232 . S
C3922 O3921 1.232 . S
C3922 O3923 1.218 . S
O3923 C3922 1.218 . S
C3924 O3917 1.275 . S
C3924 O3919 1.255 . S
C3925 O3926 1.258 . S
C3925 O3927 1.256 . S
O3926 Cd3918 2.381 . S
O3926 C3925 1.258 . S
O3927 Cd3918 2.378 . S
O3927 C3925 1.256 . S
O3928 Cd3929 2.300 . S
O3928 C3935 1.275 . S
Cd3929 O3928 2.300 . S
Cd3929 O3937 2.381 . S
Cd3929 O3938 2.378 . S
O3930 Cd3931 2.385 . S
O3930 C3935 1.255 . S
Cd3931 O3930 2.385 . S
Cd3931 O3932 2.317 . S
O3932 Cd3931 2.317 . S
O3932 C3933 1.232 . S
C3933 O3932 1.232 . S
C3933 O3934 1.218 . S
O3934 C3933 1.218 . S
C3935 O3928 1.275 . S
C3935 O3930 1.255 . S
C3936 O3937 1.258 . S
C3936 O3938 1.256 . S
O3937 Cd3929 2.381 . S
O3937 C3936 1.258 . S
O3938 Cd3929 2.378 . S
O3938 C3936 1.256 . S
O3939 Cd3940 2.300 . S
O3939 C3946 1.275 . S
Cd3940 O3939 2.300 . S
Cd3940 O3948 2.381 . S
Cd3940 O3949 2.378 . S
O3941 Cd3942 2.385 . S
O3941 C3946 1.255 . S
Cd3942 O3941 2.385 . S
Cd3942 O3943 2.317 . S
O3943 Cd3942 2.317 . S
O3943 C3944 1.232 . S
C3944 O3943 1.232 . S
C3944 O3945 1.218 . S
O3945 C3944 1.218 . S
C3946 O3939 1.275 . S
C3946 O3941 1.255 . S
C3947 O3948 1.258 . S
C3947 O3949 1.256 . S
O3948 Cd3940 2.381 . S
O3948 C3947 1.258 . S
O3949 Cd3940 2.378 . S
O3949 C3947 1.256 . S
O3950 Cd3951 2.300 . S
O3950 C3957 1.275 . S
Cd3951 O3950 2.300 . S
Cd3951 O3959 2.381 . S
Cd3951 O3960 2.378 . S
O3952 Cd3953 2.385 . S
O3952 C3957 1.255 . S
Cd3953 O3952 2.385 . S
Cd3953 O3954 2.317 . S
O3954 Cd3953 2.317 . S
O3954 C3955 1.232 . S
C3955 O3954 1.232 . S
C3955 O3956 1.218 . S
O3956 C3955 1.218 . S
C3957 O3950 1.275 . S
C3957 O3952 1.255 . S
C3958 O3959 1.258 . S
C3958 O3960 1.256 . S
O3959 Cd3951 2.381 . S
O3959 C3958 1.258 . S
O3960 Cd3951 2.378 . S
O3960 C3958 1.256 . S
O3961 Cd3962 2.300 . S
O3961 C3968 1.275 . S
Cd3962 O3961 2.300 . S
Cd3962 O3970 2.381 . S
Cd3962 O3971 2.378 . S
O3963 Cd3964 2.385 . S
O3963 C3968 1.255 . S
Cd3964 O3963 2.385 . S
Cd3964 O3965 2.317 . S
O3965 Cd3964 2.317 . S
O3965 C3966 1.232 . S
C3966 O3965 1.232 . S
C3966 O3967 1.218 . S
O3967 C3966 1.218 . S
C3968 O3961 1.275 . S
C3968 O3963 1.255 . S
C3969 O3970 1.258 . S
C3969 O3971 1.256 . S
O3970 Cd3962 2.381 . S
O3970 C3969 1.258 . S
O3971 Cd3962 2.378 . S
O3971 C3969 1.256 . S
O3972 Cd3973 2.300 . S
O3972 C3979 1.275 . S
Cd3973 O3972 2.300 . S
Cd3973 O3981 2.381 . S
Cd3973 O3982 2.378 . S
O3974 Cd3975 2.385 . S
O3974 C3979 1.255 . S
Cd3975 O3974 2.385 . S
Cd3975 O3976 2.317 . S
O3976 Cd3975 2.317 . S
O3976 C3977 1.232 . S
C3977 O3976 1.232 . S
C3977 O3978 1.218 . S
O3978 C3977 1.218 . S
C3979 O3972 1.275 . S
C3979 O3974 1.255 . S
C3980 O3981 1.258 . S
C3980 O3982 1.256 . S
O3981 Cd3973 2.381 . S
O3981 C3980 1.258 . S
O3982 Cd3973 2.378 . S
O3982 C3980 1.256 . S
O3983 Cd3984 2.300 . S
O3983 C3990 1.275 . S
Cd3984 O3983 2.300 . S
Cd3984 O3992 2.381 . S
Cd3984 O3993 2.378 . S
O3985 Cd3986 2.385 . S
O3985 C3990 1.255 . S
Cd3986 O3985 2.385 . S
Cd3986 O3987 2.317 . S
O3987 Cd3986 2.317 . S
O3987 C3988 1.232 . S
C3988 O3987 1.232 . S
C3988 O3989 1.218 . S
O3989 C3988 1.218 . S
C3990 O3983 1.275 . S
C3990 O3985 1.255 . S
C3991 O3992 1.258 . S
C3991 O3993 1.256 . S
O3992 Cd3984 2.381 . S
O3992 C3991 1.258 . S
O3993 Cd3984 2.378 . S
O3993 C3991 1.256 . S
O3994 Cd3995 2.300 . S
O3994 C4001 1.275 . S
Cd3995 O3994 2.300 . S
Cd3995 O4003 2.381 . S
Cd3995 O4004 2.378 . S
O3996 Cd3997 2.385 . S
O3996 C4001 1.255 . S
Cd3997 O3996 2.385 . S
Cd3997 O3998 2.317 . S
O3998 Cd3997 2.317 . S
O3998 C3999 1.232 . S
C3999 O3998 1.232 . S
C3999 O4000 1.218 . S
O4000 C3999 1.218 . S
C4001 O3994 1.275 . S
C4001 O3996 1.255 . S
C4002 O4003 1.258 . S
C4002 O4004 1.256 . S
O4003 Cd3995 2.381 . S
O4003 C4002 1.258 . S
O4004 Cd3995 2.378 . S
O4004 C4002 1.256 . S
O4005 Cd4006 2.300 . S
O4005 C4012 1.275 . S
Cd4006 O4005 2.300 . S
Cd4006 O4014 2.381 . S
Cd4006 O4015 2.378 . S
O4007 Cd4008 2.385 . S
O4007 C4012 1.255 . S
Cd4008 O4007 2.385 . S
Cd4008 O4009 2.317 . S
O4009 Cd4008 2.317 . S
O4009 C4010 1.232 . S
C4010 O4009 1.232 . S
C4010 O4011 1.218 . S
O4011 C4010 1.218 . S
C4012 O4005 1.275 . S
C4012 O4007 1.255 . S
C4013 O4014 1.258 . S
C4013 O4015 1.256 . S
O4014 Cd4006 2.381 . S
O4014 C4013 1.258 . S
O4015 Cd4006 2.378 . S
O4015 C4013 1.256 . S
O4016 Cd4017 2.300 . S
O4016 C4023 1.275 . S
Cd4017 O4016 2.300 . S
Cd4017 O4025 2.381 . S
Cd4017 O4026 2.378 . S
O4018 Cd4019 2.385 . S
O4018 C4023 1.255 . S
Cd4019 O4018 2.385 . S
Cd4019 O4020 2.317 . S
O4020 Cd4019 2.317 . S
O4020 C4021 1.232 . S
C4021 O4020 1.232 . S
C4021 O4022 1.218 . S
O4022 C4021 1.218 . S
C4023 O4016 1.275 . S
C4023 O4018 1.255 . S
C4024 O4025 1.258 . S
C4024 O4026 1.256 . S
O4025 Cd4017 2.381 . S
O4025 C4024 1.258 . S
O4026 Cd4017 2.378 . S
O4026 C4024 1.256 . S
O4027 Cd4028 2.300 . S
O4027 C4034 1.275 . S
Cd4028 O4027 2.300 . S
Cd4028 O4036 2.381 . S
Cd4028 O4037 2.378 . S
O4029 Cd4030 2.385 . S
O4029 C4034 1.255 . S
Cd4030 O4029 2.385 . S
Cd4030 O4031 2.317 . S
O4031 Cd4030 2.317 . S
O4031 C4032 1.232 . S
C4032 O4031 1.232 . S
C4032 O4033 1.218 . S
O4033 C4032 1.218 . S
C4034 O4027 1.275 . S
C4034 O4029 1.255 . S
C4035 O4036 1.258 . S
C4035 O4037 1.256 . S
O4036 Cd4028 2.381 . S
O4036 C4035 1.258 . S
O4037 Cd4028 2.378 . S
O4037 C4035 1.256 . S
O4038 Cd4039 2.300 . S
O4038 C4045 1.275 . S
Cd4039 O4038 2.300 . S
Cd4039 O4047 2.381 . S
Cd4039 O4048 2.378 . S
O4040 Cd4041 2.385 . S
O4040 C4045 1.255 . S
Cd4041 O4040 2.385 . S
Cd4041 O4042 2.317 . S
O4042 Cd4041 2.317 . S
O4042 C4043 1.232 . S
C4043 O4042 1.232 . S
C4043 O4044 1.218 . S
O4044 C4043 1.218 . S
C4045 O4038 1.275 . S
C4045 O4040 1.255 . S
C4046 O4047 1.258 . S
C4046 O4048 1.256 . S
O4047 Cd4039 2.381 . S
O4047 C4046 1.258 . S
O4048 Cd4039 2.378 . S
O4048 C4046 1.256 . S
O4049 Cd4050 2.300 . S
O4049 C4056 1.275 . S
Cd4050 O4049 2.300 . S
Cd4050 O4058 2.381 . S
Cd4050 O4059 2.378 . S
O4051 Cd4052 2.385 . S
O4051 C4056 1.255 . S
Cd4052 O4051 2.385 . S
Cd4052 O4053 2.317 . S
O4053 Cd4052 2.317 . S
O4053 C4054 1.232 . S
C4054 O4053 1.232 . S
C4054 O4055 1.218 . S
O4055 C4054 1.218 . S
C4056 O4049 1.275 . S
C4056 O4051 1.255 . S
C4057 O4058 1.258 . S
C4057 O4059 1.256 . S
O4058 Cd4050 2.381 . S
O4058 C4057 1.258 . S
O4059 Cd4050 2.378 . S
O4059 C4057 1.256 . S
O4060 Cd4061 2.300 . S
O4060 C4067 1.275 . S
Cd4061 O4060 2.300 . S
Cd4061 O4069 2.381 . S
Cd4061 O4070 2.378 . S
O4062 Cd4063 2.385 . S
O4062 C4067 1.255 . S
Cd4063 O4062 2.385 . S
Cd4063 O4064 2.317 . S
O4064 Cd4063 2.317 . S
O4064 C4065 1.232 . S
C4065 O4064 1.232 . S
C4065 O4066 1.218 . S
O4066 C4065 1.218 . S
C4067 O4060 1.275 . S
C4067 O4062 1.255 . S
C4068 O4069 1.258 . S
C4068 O4070 1.256 . S
O4069 Cd4061 2.381 . S
O4069 C4068 1.258 . S
O4070 Cd4061 2.378 . S
O4070 C4068 1.256 . S
O4071 Cd4072 2.300 . S
O4071 C4078 1.275 . S
Cd4072 O4071 2.300 . S
Cd4072 O4080 2.381 . S
Cd4072 O4081 2.378 . S
O4073 Cd4074 2.385 . S
O4073 C4078 1.255 . S
Cd4074 O4073 2.385 . S
Cd4074 O4075 2.317 . S
O4075 Cd4074 2.317 . S
O4075 C4076 1.232 . S
C4076 O4075 1.232 . S
C4076 O4077 1.218 . S
O4077 C4076 1.218 . S
C4078 O4071 1.275 . S
C4078 O4073 1.255 . S
C4079 O4080 1.258 . S
C4079 O4081 1.256 . S
O4080 Cd4072 2.381 . S
O4080 C4079 1.258 . S
O4081 Cd4072 2.378 . S
O4081 C4079 1.256 . S
O4082 Cd4083 2.300 . S
O4082 C4089 1.275 . S
Cd4083 O4082 2.300 . S
Cd4083 O4091 2.381 . S
Cd4083 O4092 2.378 . S
O4084 Cd4085 2.385 . S
O4084 C4089 1.255 . S
Cd4085 O4084 2.385 . S
Cd4085 O4086 2.317 . S
O4086 Cd4085 2.317 . S
O4086 C4087 1.232 . S
C4087 O4086 1.232 . S
C4087 O4088 1.218 . S
O4088 C4087 1.218 . S
C4089 O4082 1.275 . S
C4089 O4084 1.255 . S
C4090 O4091 1.258 . S
C4090 O4092 1.256 . S
O4091 Cd4083 2.381 . S
O4091 C4090 1.258 . S
O4092 Cd4083 2.378 . S
O4092 C4090 1.256 . S
O4093 Cd4094 2.300 . S
O4093 C4100 1.275 . S
Cd4094 O4093 2.300 . S
Cd4094 O4102 2.381 . S
Cd4094 O4103 2.378 . S
O4095 Cd4096 2.385 . S
O4095 C4100 1.255 . S
Cd4096 O4095 2.385 . S
Cd4096 O4097 2.317 . S
O4097 Cd4096 2.317 . S
O4097 C4098 1.232 . S
C4098 O4097 1.232 . S
C4098 O4099 1.218 . S
O4099 C4098 1.218 . S
C4100 O4093 1.275 . S
C4100 O4095 1.255 . S
C4101 O4102 1.258 . S
C4101 O4103 1.256 . S
O4102 Cd4094 2.381 . S
O4102 C4101 1.258 . S
O4103 Cd4094 2.378 . S
O4103 C4101 1.256 . S
O4104 Cd4105 2.300 . S
O4104 C4111 1.275 . S
Cd4105 O4104 2.300 . S
Cd4105 O4113 2.381 . S
Cd4105 O4114 2.378 . S
O4106 Cd4107 2.385 . S
O4106 C4111 1.255 . S
Cd4107 O4106 2.385 . S
Cd4107 O4108 2.317 . S
O4108 Cd4107 2.317 . S
O4108 C4109 1.232 . S
C4109 O4108 1.232 . S
C4109 O4110 1.218 . S
O4110 C4109 1.218 . S
C4111 O4104 1.275 . S
C4111 O4106 1.255 . S
C4112 O4113 1.258 . S
C4112 O4114 1.256 . S
O4113 Cd4105 2.381 . S
O4113 C4112 1.258 . S
O4114 Cd4105 2.378 . S
O4114 C4112 1.256 . S
O4115 Cd4116 2.300 . S
O4115 C4122 1.275 . S
Cd4116 O4115 2.300 . S
Cd4116 O4124 2.381 . S
Cd4116 O4125 2.378 . S
O4117 Cd4118 2.385 . S
O4117 C4122 1.255 . S
Cd4118 O4117 2.385 . S
Cd4118 O4119 2.317 . S
O4119 Cd4118 2.317 . S
O4119 C4120 1.232 . S
C4120 O4119 1.232 . S
C4120 O4121 1.218 . S
O4121 C4120 1.218 . S
C4122 O4115 1.275 . S
C4122 O4117 1.255 . S
C4123 O4124 1.258 . S
C4123 O4125 1.256 . S
O4124 Cd4116 2.381 . S
O4124 C4123 1.258 . S
O4125 Cd4116 2.378 . S
O4125 C4123 1.256 . S
O4126 Cd4127 2.300 . S
O4126 C4133 1.275 . S
Cd4127 O4126 2.300 . S
Cd4127 O4135 2.381 . S
Cd4127 O4136 2.378 . S
O4128 Cd4129 2.385 . S
O4128 C4133 1.255 . S
Cd4129 O4128 2.385 . S
Cd4129 O4130 2.317 . S
O4130 Cd4129 2.317 . S
O4130 C4131 1.232 . S
C4131 O4130 1.232 . S
C4131 O4132 1.218 . S
O4132 C4131 1.218 . S
C4133 O4126 1.275 . S
C4133 O4128 1.255 . S
C4134 O4135 1.258 . S
C4134 O4136 1.256 . S
O4135 Cd4127 2.381 . S
O4135 C4134 1.258 . S
O4136 Cd4127 2.378 . S
O4136 C4134 1.256 . S
O4137 Cd4138 2.300 . S
O4137 C4144 1.275 . S
Cd4138 O4137 2.300 . S
Cd4138 O4146 2.381 . S
Cd4138 O4147 2.378 . S
O4139 Cd4140 2.385 . S
O4139 C4144 1.255 . S
Cd4140 O4139 2.385 . S
Cd4140 O4141 2.317 . S
O4141 Cd4140 2.317 . S
O4141 C4142 1.232 . S
C4142 O4141 1.232 . S
C4142 O4143 1.218 . S
O4143 C4142 1.218 . S
C4144 O4137 1.275 . S
C4144 O4139 1.255 . S
C4145 O4146 1.258 . S
C4145 O4147 1.256 . S
O4146 Cd4138 2.381 . S
O4146 C4145 1.258 . S
O4147 Cd4138 2.378 . S
O4147 C4145 1.256 . S
O4148 Cd4149 2.300 . S
O4148 C4155 1.275 . S
Cd4149 O4148 2.300 . S
Cd4149 O4157 2.381 . S
Cd4149 O4158 2.378 . S
O4150 Cd4151 2.385 . S
O4150 C4155 1.255 . S
Cd4151 O4150 2.385 . S
Cd4151 O4152 2.317 . S
O4152 Cd4151 2.317 . S
O4152 C4153 1.232 . S
C4153 O4152 1.232 . S
C4153 O4154 1.218 . S
O4154 C4153 1.218 . S
C4155 O4148 1.275 . S
C4155 O4150 1.255 . S
C4156 O4157 1.258 . S
C4156 O4158 1.256 . S
O4157 Cd4149 2.381 . S
O4157 C4156 1.258 . S
O4158 Cd4149 2.378 . S
O4158 C4156 1.256 . S
O4159 Cd4160 2.300 . S
O4159 C4166 1.275 . S
Cd4160 O4159 2.300 . S
Cd4160 O4168 2.381 . S
Cd4160 O4169 2.378 . S
O4161 Cd4162 2.385 . S
O4161 C4166 1.255 . S
Cd4162 O4161 2.385 . S
Cd4162 O4163 2.317 . S
O4163 Cd4162 2.317 . S
O4163 C4164 1.232 . S
C4164 O4163 1.232 . S
C4164 O4165 1.218 . S
O4165 C4164 1.218 . S
C4166 O4159 1.275 . S
C4166 O4161 1.255 . S
C4167 O4168 1.258 . S
C4167 O4169 1.256 . S
O4168 Cd4160 2.381 . S
O4168 C4167 1.258 . S
O4169 Cd4160 2.378 . S
O4169 C4167 1.256 . S
O4170 Cd4171 2.300 . S
O4170 C4177 1.275 . S
Cd4171 O4170 2.300 . S
Cd4171 O4179 2.381 . S
Cd4171 O4180 2.378 . S
O4172 Cd4173 2.385 . S
O4172 C4177 1.255 . S
Cd4173 O4172 2.385 . S
Cd4173 O4174 2.317 . S
O4174 Cd4173 2.317 . S
O4174 C4175 1.232 . S
C4175 O4174 1.232 . S
C4175 O4176 1.218 . S
O4176 C4175 1.218 . S
C4177 O4170 1.275 . S
C4177 O4172 1.255 . S
C4178 O4179 1.258 . S
C4178 O4180 1.256 . S
O4179 Cd4171 2.381 . S
O4179 C4178 1.258 . S
O4180 Cd4171 2.378 . S
O4180 C4178 1.256 . S
O4181 Cd4182 2.300 . S
O4181 C4188 1.275 . S
Cd4182 O4181 2.300 . S
Cd4182 O4190 2.381 . S
Cd4182 O4191 2.378 . S
O4183 Cd4184 2.385 . S
O4183 C4188 1.255 . S
Cd4184 O4183 2.385 . S
Cd4184 O4185 2.317 . S
O4185 Cd4184 2.317 . S
O4185 C4186 1.232 . S
C4186 O4185 1.232 . S
C4186 O4187 1.218 . S
O4187 C4186 1.218 . S
C4188 O4181 1.275 . S
C4188 O4183 1.255 . S
C4189 O4190 1.258 . S
C4189 O4191 1.256 . S
O4190 Cd4182 2.381 . S
O4190 C4189 1.258 . S
O4191 Cd4182 2.378 . S
O4191 C4189 1.256 . S
O4192 Cd4193 2.300 . S
O4192 C4199 1.275 . S
Cd4193 O4192 2.300 . S
Cd4193 O4201 2.381 . S
Cd4193 O4202 2.378 . S
O4194 Cd4195 2.385 . S
O4194 C4199 1.255 . S
Cd4195 O4194 2.385 . S
Cd4195 O4196 2.317 . S
O4196 Cd4195 2.317 . S
O4196 C4197 1.232 . S
C4197 O4196 1.232 . S
C4197 O4198 1.218 . S
O4198 C4197 1.218 . S
C4199 O4192 1.275 . S
C4199 O4194 1.255 . S
C4200 O4201 1.258 . S
C4200 O4202 1.256 . S
O4201 Cd4193 2.381 . S
O4201 C4200 1.258 . S
O4202 Cd4193 2.378 . S
O4202 C4200 1.256 . S
O4203 Cd4204 2.300 . S
O4203 C4210 1.275 . S
Cd4204 O4203 2.300 . S
Cd4204 O4212 2.381 . S
Cd4204 O4213 2.378 . S
O4205 Cd4206 2.385 . S
O4205 C4210 1.255 . S
Cd4206 O4205 2.385 . S
Cd4206 O4207 2.317 . S
O4207 Cd4206 2.317 . S
O4207 C4208 1.232 . S
C4208 O4207 1.232 . S
C4208 O4209 1.218 . S
O4209 C4208 1.218 . S
C4210 O4203 1.275 . S
C4210 O4205 1.255 . S
C4211 O4212 1.258 . S
C4211 O4213 1.256 . S
O4212 Cd4204 2.381 . S
O4212 C4211 1.258 . S
O4213 Cd4204 2.378 . S
O4213 C4211 1.256 . S
O4214 Cd4215 2.300 . S
O4214 C4221 1.275 . S
Cd4215 O4214 2.300 . S
Cd4215 O4223 2.381 . S
Cd4215 O4224 2.378 . S
O4216 Cd4217 2.385 . S
O4216 C4221 1.255 . S
Cd4217 O4216 2.385 . S
Cd4217 O4218 2.317 . S
O4218 Cd4217 2.317 . S
O4218 C4219 1.232 . S
C4219 O4218 1.232 . S
C4219 O4220 1.218 . S
O4220 C4219 1.218 . S
C4221 O4214 1.275 . S
C4221 O4216 1.255 . S
C4222 O4223 1.258 . S
C4222 O4224 1.256 . S
O4223 Cd4215 2.381 . S
O4223 C4222 1.258 . S
O4224 Cd4215 2.378 . S
O4224 C4222 1.256 . S
O4225 Cd4226 2.300 . S
O4225 C4232 1.275 . S
Cd4226 O4225 2.300 . S
Cd4226 O4234 2.381 . S
Cd4226 O4235 2.378 . S
O4227 Cd4228 2.385 . S
O4227 C4232 1.255 . S
Cd4228 O4227 2.385 . S
Cd4228 O4229 2.317 . S
O4229 Cd4228 2.317 . S
O4229 C4230 1.232 . S
C4230 O4229 1.232 . S
C4230 O4231 1.218 . S
O4231 C4230 1.218 . S
C4232 O4225 1.275 . S
C4232 O4227 1.255 . S
C4233 O4234 1.258 . S
C4233 O4235 1.256 . S
O4234 Cd4226 2.381 . S
O4234 C4233 1.258 . S
O4235 Cd4226 2.378 . S
O4235 C4233 1.256 . S
O4236 Cd4237 2.300 . S
O4236 C4243 1.275 . S
Cd4237 O4236 2.300 . S
Cd4237 O4245 2.381 . S
Cd4237 O4246 2.378 . S
O4238 Cd4239 2.385 . S
O4238 C4243 1.255 . S
Cd4239 O4238 2.385 . S
Cd4239 O4240 2.317 . S
O4240 Cd4239 2.317 . S
O4240 C4241 1.232 . S
C4241 O4240 1.232 . S
C4241 O4242 1.218 . S
O4242 C4241 1.218 . S
C4243 O4236 1.275 . S
C4243 O4238 1.255 . S
C4244 O4245 1.258 . S
C4244 O4246 1.256 . S
O4245 Cd4237 2.381 . S
O4245 C4244 1.258 . S
O4246 Cd4237 2.378 . S
O4246 C4244 1.256 . S
O4247 Cd4248 2.300 . S
O4247 C4254 1.275 . S
Cd4248 O4247 2.300 . S
Cd4248 O4256 2.381 . S
Cd4248 O4257 2.378 . S
O4249 Cd4250 2.385 . S
O4249 C4254 1.255 . S
Cd4250 O4249 2.385 . S
Cd4250 O4251 2.317 . S
O4251 Cd4250 2.317 . S
O4251 C4252 1.232 . S
C4252 O4251 1.232 . S
C4252 O4253 1.218 . S
O4253 C4252 1.218 . S
C4254 O4247 1.275 . S
C4254 O4249 1.255 . S
C4255 O4256 1.258 . S
C4255 O4257 1.256 . S
O4256 Cd4248 2.381 . S
O4256 C4255 1.258 . S
O4257 Cd4248 2.378 . S
O4257 C4255 1.256 . S
O4258 Cd4259 2.300 . S
O4258 C4265 1.275 . S
Cd4259 O4258 2.300 . S
Cd4259 O4267 2.381 . S
Cd4259 O4268 2.378 . S
O4260 Cd4261 2.385 . S
O4260 C4265 1.255 . S
Cd4261 O4260 2.385 . S
Cd4261 O4262 2.317 . S
O4262 Cd4261 2.317 . S
O4262 C4263 1.232 . S
C4263 O4262 1.232 . S
C4263 O4264 1.218 . S
O4264 C4263 1.218 . S
C4265 O4258 1.275 . S
C4265 O4260 1.255 . S
C4266 O4267 1.258 . S
C4266 O4268 1.256 . S
O4267 Cd4259 2.381 . S
O4267 C4266 1.258 . S
O4268 Cd4259 2.378 . S
O4268 C4266 1.256 . S
O4269 Cd4270 2.300 . S
O4269 C4276 1.275 . S
Cd4270 O4269 2.300 . S
Cd4270 O4278 2.381 . S
Cd4270 O4279 2.378 . S
O4271 Cd4272 2.385 . S
O4271 C4276 1.255 . S
Cd4272 O4271 2.385 . S
Cd4272 O4273 2.317 . S
O4273 Cd4272 2.317 . S
O4273 C4274 1.232 . S
C4274 O4273 1.232 . S
C4274 O4275 1.218 . S
O4275 C4274 1.218 . S
C4276 O4269 1.275 . S
C4276 O4271 1.255 . S
C4277 O4278 1.258 . S
C4277 O4279 1.256 . S
O4278 Cd4270 2.381 . S
O4278 C4277 1.258 . S
O4279 Cd4270 2.378 . S
O4279 C4277 1.256 . S
O4280 Cd4281 2.300 . S
O4280 C4287 1.275 . S
Cd4281 O4280 2.300 . S
Cd4281 O4289 2.381 . S
Cd4281 O4290 2.378 . S
O4282 Cd4283 2.385 . S
O4282 C4287 1.255 . S
Cd4283 O4282 2.385 . S
Cd4283 O4284 2.317 . S
O4284 Cd4283 2.317 . S
O4284 C4285 1.232 . S
C4285 O4284 1.232 . S
C4285 O4286 1.218 . S
O4286 C4285 1.218 . S
C4287 O4280 1.275 . S
C4287 O4282 1.255 . S
C4288 O4289 1.258 . S
C4288 O4290 1.256 . S
O4289 Cd4281 2.381 . S
O4289 C4288 1.258 . S
O4290 Cd4281 2.378 . S
O4290 C4288 1.256 . S
O4291 Cd4292 2.300 . S
O4291 C4298 1.275 . S
Cd4292 O4291 2.300 . S
Cd4292 O4300 2.381 . S
Cd4292 O4301 2.378 . S
O4293 Cd4294 2.385 . S
O4293 C4298 1.255 . S
Cd4294 O4293 2.385 . S
Cd4294 O4295 2.317 . S
O4295 Cd4294 2.317 . S
O4295 C4296 1.232 . S
C4296 O4295 1.232 . S
C4296 O4297 1.218 . S
O4297 C4296 1.218 . S
C4298 O4291 1.275 . S
C4298 O4293 1.255 . S
C4299 O4300 1.258 . S
C4299 O4301 1.256 . S
O4300 Cd4292 2.381 . S
O4300 C4299 1.258 . S
O4301 Cd4292 2.378 . S
O4301 C4299 1.256 . S
O4302 Cd4303 2.300 . S
O4302 C4309 1.275 . S
Cd4303 O4302 2.300 . S
Cd4303 O4311 2.381 . S
Cd4303 O4312 2.378 . S
O4304 Cd4305 2.385 . S
O4304 C4309 1.255 . S
Cd4305 O4304 2.385 . S
Cd4305 O4306 2.317 . S
O4306 Cd4305 2.317 . S
O4306 C4307 1.232 . S
C4307 O4306 1.232 . S
C4307 O4308 1.218 . S
O4308 C4307 1.218 . S
C4309 O4302 1.275 . S
C4309 O4304 1.255 . S
C4310 O4311 1.258 . S
C4310 O4312 1.256 . S
O4311 Cd4303 2.381 . S
O4311 C4310 1.258 . S
O4312 Cd4303 2.378 . S
O4312 C4310 1.256 . S
O4313 Cd4314 2.300 . S
O4313 C4320 1.275 . S
Cd4314 O4313 2.300 . S
Cd4314 O4322 2.381 . S
Cd4314 O4323 2.378 . S
O4315 Cd4316 2.385 . S
O4315 C4320 1.255 . S
Cd4316 O4315 2.385 . S
Cd4316 O4317 2.317 . S
O4317 Cd4316 2.317 . S
O4317 C4318 1.232 . S
C4318 O4317 1.232 . S
C4318 O4319 1.218 . S
O4319 C4318 1.218 . S
C4320 O4313 1.275 . S
C4320 O4315 1.255 . S
C4321 O4322 1.258 . S
C4321 O4323 1.256 . S
O4322 Cd4314 2.381 . S
O4322 C4321 1.258 . S
O4323 Cd4314 2.378 . S
O4323 C4321 1.256 . S
O4324 Cd4325 2.300 . S
O4324 C4331 1.275 . S
Cd4325 O4324 2.300 . S
Cd4325 O4333 2.381 . S
Cd4325 O4334 2.378 . S
O4326 Cd4327 2.385 . S
O4326 C4331 1.255 . S
Cd4327 O4326 2.385 . S
Cd4327 O4328 2.317 . S
O4328 Cd4327 2.317 . S
O4328 C4329 1.232 . S
C4329 O4328 1.232 . S
C4329 O4330 1.218 . S
O4330 C4329 1.218 . S
C4331 O4324 1.275 . S
C4331 O4326 1.255 . S
C4332 O4333 1.258 . S
C4332 O4334 1.256 . S
O4333 Cd4325 2.381 . S
O4333 C4332 1.258 . S
O4334 Cd4325 2.378 . S
O4334 C4332 1.256 . S
O4335 Cd4336 2.300 . S
O4335 C4342 1.275 . S
Cd4336 O4335 2.300 . S
Cd4336 O4344 2.381 . S
Cd4336 O4345 2.378 . S
O4337 Cd4338 2.385 . S
O4337 C4342 1.255 . S
Cd4338 O4337 2.385 . S
Cd4338 O4339 2.317 . S
O4339 Cd4338 2.317 . S
O4339 C4340 1.232 . S
C4340 O4339 1.232 . S
C4340 O4341 1.218 . S
O4341 C4340 1.218 . S
C4342 O4335 1.275 . S
C4342 O4337 1.255 . S
C4343 O4344 1.258 . S
C4343 O4345 1.256 . S
O4344 Cd4336 2.381 . S
O4344 C4343 1.258 . S
O4345 Cd4336 2.378 . S
O4345 C4343 1.256 . S
O4346 Cd4347 2.300 . S
O4346 C4353 1.275 . S
Cd4347 O4346 2.300 . S
Cd4347 O4355 2.381 . S
Cd4347 O4356 2.378 . S
O4348 Cd4349 2.385 . S
O4348 C4353 1.255 . S
Cd4349 O4348 2.385 . S
Cd4349 O4350 2.317 . S
O4350 Cd4349 2.317 . S
O4350 C4351 1.232 . S
C4351 O4350 1.232 . S
C4351 O4352 1.218 . S
O4352 C4351 1.218 . S
C4353 O4346 1.275 . S
C4353 O4348 1.255 . S
C4354 O4355 1.258 . S
C4354 O4356 1.256 . S
O4355 Cd4347 2.381 . S
O4355 C4354 1.258 . S
O4356 Cd4347 2.378 . S
O4356 C4354 1.256 . S
O4357 Cd4358 2.300 . S
O4357 C4364 1.275 . S
Cd4358 O4357 2.300 . S
Cd4358 O4366 2.381 . S
Cd4358 O4367 2.378 . S
O4359 Cd4360 2.385 . S
O4359 C4364 1.255 . S
Cd4360 O4359 2.385 . S
Cd4360 O4361 2.317 . S
O4361 Cd4360 2.317 . S
O4361 C4362 1.232 . S
C4362 O4361 1.232 . S
C4362 O4363 1.218 . S
O4363 C4362 1.218 . S
C4364 O4357 1.275 . S
C4364 O4359 1.255 . S
C4365 O4366 1.258 . S
C4365 O4367 1.256 . S
O4366 Cd4358 2.381 . S
O4366 C4365 1.258 . S
O4367 Cd4358 2.378 . S
O4367 C4365 1.256 . S
O4368 Cd4369 2.300 . S
O4368 C4375 1.275 . S
Cd4369 O4368 2.300 . S
Cd4369 O4377 2.381 . S
Cd4369 O4378 2.378 . S
O4370 Cd4371 2.385 . S
O4370 C4375 1.255 . S
Cd4371 O4370 2.385 . S
Cd4371 O4372 2.317 . S
O4372 Cd4371 2.317 . S
O4372 C4373 1.232 . S
C4373 O4372 1.232 . S
C4373 O4374 1.218 . S
O4374 C4373 1.218 . S
C4375 O4368 1.275 . S
C4375 O4370 1.255 . S
C4376 O4377 1.258 . S
C4376 O4378 1.256 . S
O4377 Cd4369 2.381 . S
O4377 C4376 1.258 . S
O4378 Cd4369 2.378 . S
O4378 C4376 1.256 . S
O4379 Cd4380 2.300 . S
O4379 C4386 1.275 . S
Cd4380 O4379 2.300 . S
Cd4380 O4388 2.381 . S
Cd4380 O4389 2.378 . S
O4381 Cd4382 2.385 . S
O4381 C4386 1.255 . S
Cd4382 O4381 2.385 . S
Cd4382 O4383 2.317 . S
O4383 Cd4382 2.317 . S
O4383 C4384 1.232 . S
C4384 O4383 1.232 . S
C4384 O4385 1.218 . S
O4385 C4384 1.218 . S
C4386 O4379 1.275 . S
C4386 O4381 1.255 . S
C4387 O4388 1.258 . S
C4387 O4389 1.256 . S
O4388 Cd4380 2.381 . S
O4388 C4387 1.258 . S
O4389 Cd4380 2.378 . S
O4389 C4387 1.256 . S
O4390 Cd4391 2.300 . S
O4390 C4397 1.275 . S
Cd4391 O4390 2.300 . S
Cd4391 O4399 2.381 . S
Cd4391 O4400 2.378 . S
O4392 Cd4393 2.385 . S
O4392 C4397 1.255 . S
Cd4393 O4392 2.385 . S
Cd4393 O4394 2.317 . S
O4394 Cd4393 2.317 . S
O4394 C4395 1.232 . S
C4395 O4394 1.232 . S
C4395 O4396 1.218 . S
O4396 C4395 1.218 . S
C4397 O4390 1.275 . S
C4397 O4392 1.255 . S
C4398 O4399 1.258 . S
C4398 O4400 1.256 . S
O4399 Cd4391 2.381 . S
O4399 C4398 1.258 . S
O4400 Cd4391 2.378 . S
O4400 C4398 1.256 . S
O4401 Cd4402 2.300 . S
O4401 C4408 1.275 . S
Cd4402 O4401 2.300 . S
Cd4402 O4410 2.381 . S
Cd4402 O4411 2.378 . S
O4403 Cd4404 2.385 . S
O4403 C4408 1.255 . S
Cd4404 O4403 2.385 . S
Cd4404 O4405 2.317 . S
O4405 Cd4404 2.317 . S
O4405 C4406 1.232 . S
C4406 O4405 1.232 . S
C4406 O4407 1.218 . S
O4407 C4406 1.218 . S
C4408 O4401 1.275 . S
C4408 O4403 1.255 . S
C4409 O4410 1.258 . S
C4409 O4411 1.256 . S
O4410 Cd4402 2.381 . S
O4410 C4409 1.258 . S
O4411 Cd4402 2.378 . S
O4411 C4409 1.256 . S
O4412 Cd4413 2.300 . S
O4412 C4419 1.275 . S
Cd4413 O4412 2.300 . S
Cd4413 O4421 2.381 . S
Cd4413 O4422 2.378 . S
O4414 Cd4415 2.385 . S
O4414 C4419 1.255 . S
Cd4415 O4414 2.385 . S
Cd4415 O4416 2.317 . S
O4416 Cd4415 2.317 . S
O4416 C4417 1.232 . S
C4417 O4416 1.232 . S
C4417 O4418 1.218 . S
O4418 C4417 1.218 . S
C4419 O4412 1.275 . S
C4419 O4414 1.255 . S
C4420 O4421 1.258 . S
C4420 O4422 1.256 . S
O4421 Cd4413 2.381 . S
O4421 C4420 1.258 . S
O4422 Cd4413 2.378 . S
O4422 C4420 1.256 . S
O4423 Cd4424 2.300 . S
O4423 C4430 1.275 . S
Cd4424 O4423 2.300 . S
Cd4424 O4432 2.381 . S
Cd4424 O4433 2.378 . S
O4425 Cd4426 2.385 . S
O4425 C4430 1.255 . S
Cd4426 O4425 2.385 . S
Cd4426 O4427 2.317 . S
O4427 Cd4426 2.317 . S
O4427 C4428 1.232 . S
C4428 O4427 1.232 . S
C4428 O4429 1.218 . S
O4429 C4428 1.218 . S
C4430 O4423 1.275 . S
C4430 O4425 1.255 . S
C4431 O4432 1.258 . S
C4431 O4433 1.256 . S
O4432 Cd4424 2.381 . S
O4432 C4431 1.258 . S
O4433 Cd4424 2.378 . S
O4433 C4431 1.256 . S
O4434 Cd4435 2.300 . S
O4434 C4441 1.275 . S
Cd4435 O4434 2.300 . S
Cd4435 O4443 2.381 . S
Cd4435 O4444 2.378 . S
O4436 Cd4437 2.385 . S
O4436 C4441 1.255 . S
Cd4437 O4436 2.385 . S
Cd4437 O4438 2.317 . S
O4438 Cd4437 2.317 . S
O4438 C4439 1.232 . S
C4439 O4438 1.232 . S
C4439 O4440 1.218 . S
O4440 C4439 1.218 . S
C4441 O4434 1.275 . S
C4441 O4436 1.255 . S
C4442 O4443 1.258 . S
C4442 O4444 1.256 . S
O4443 Cd4435 2.381 . S
O4443 C4442 1.258 . S
O4444 Cd4435 2.378 . S
O4444 C4442 1.256 . S
O4445 Cd4446 2.300 . S
O4445 C4452 1.275 . S
Cd4446 O4445 2.300 . S
Cd4446 O4454 2.381 . S
Cd4446 O4455 2.378 . S
O4447 Cd4448 2.385 . S
O4447 C4452 1.255 . S
Cd4448 O4447 2.385 . S
Cd4448 O4449 2.317 . S
O4449 Cd4448 2.317 . S
O4449 C4450 1.232 . S
C4450 O4449 1.232 . S
C4450 O4451 1.218 . S
O4451 C4450 1.218 . S
C4452 O4445 1.275 . S
C4452 O4447 1.255 . S
C4453 O4454 1.258 . S
C4453 O4455 1.256 . S
O4454 Cd4446 2.381 . S
O4454 C4453 1.258 . S
O4455 Cd4446 2.378 . S
O4455 C4453 1.256 . S
O4456 Cd4457 2.300 . S
O4456 C4463 1.275 . S
Cd4457 O4456 2.300 . S
Cd4457 O4465 2.381 . S
Cd4457 O4466 2.378 . S
O4458 Cd4459 2.385 . S
O4458 C4463 1.255 . S
Cd4459 O4458 2.385 . S
Cd4459 O4460 2.317 . S
O4460 Cd4459 2.317 . S
O4460 C4461 1.232 . S
C4461 O4460 1.232 . S
C4461 O4462 1.218 . S
O4462 C4461 1.218 . S
C4463 O4456 1.275 . S
C4463 O4458 1.255 . S
C4464 O4465 1.258 . S
C4464 O4466 1.256 . S
O4465 Cd4457 2.381 . S
O4465 C4464 1.258 . S
O4466 Cd4457 2.378 . S
O4466 C4464 1.256 . S
O4467 Cd4468 2.300 . S
O4467 C4474 1.275 . S
Cd4468 O4467 2.300 . S
Cd4468 O4476 2.381 . S
Cd4468 O4477 2.378 . S
O4469 Cd4470 2.385 . S
O4469 C4474 1.255 . S
Cd4470 O4469 2.385 . S
Cd4470 O4471 2.317 . S
O4471 Cd4470 2.317 . S
O4471 C4472 1.232 . S
C4472 O4471 1.232 . S
C4472 O4473 1.218 . S
O4473 C4472 1.218 . S
C4474 O4467 1.275 . S
C4474 O4469 1.255 . S
C4475 O4476 1.258 . S
C4475 O4477 1.256 . S
O4476 Cd4468 2.381 . S
O4476 C4475 1.258 . S
O4477 Cd4468 2.378 . S
O4477 C4475 1.256 . S
O4478 Cd4479 2.300 . S
O4478 C4485 1.275 . S
Cd4479 O4478 2.300 . S
Cd4479 O4487 2.381 . S
Cd4479 O4488 2.378 . S
O4480 Cd4481 2.385 . S
O4480 C4485 1.255 . S
Cd4481 O4480 2.385 . S
Cd4481 O4482 2.317 . S
O4482 Cd4481 2.317 . S
O4482 C4483 1.232 . S
C4483 O4482 1.232 . S
C4483 O4484 1.218 . S
O4484 C4483 1.218 . S
C4485 O4478 1.275 . S
C4485 O4480 1.255 . S
C4486 O4487 1.258 . S
C4486 O4488 1.256 . S
O4487 Cd4479 2.381 . S
O4487 C4486 1.258 . S
O4488 Cd4479 2.378 . S
O4488 C4486 1.256 . S
O4489 Cd4490 2.300 . S
O4489 C4496 1.275 . S
Cd4490 O4489 2.300 . S
Cd4490 O4498 2.381 . S
Cd4490 O4499 2.378 . S
O4491 Cd4492 2.385 . S
O4491 C4496 1.255 . S
Cd4492 O4491 2.385 . S
Cd4492 O4493 2.317 . S
O4493 Cd4492 2.317 . S
O4493 C4494 1.232 . S
C4494 O4493 1.232 . S
C4494 O4495 1.218 . S
O4495 C4494 1.218 . S
C4496 O4489 1.275 . S
C4496 O4491 1.255 . S
C4497 O4498 1.258 . S
C4497 O4499 1.256 . S
O4498 Cd4490 2.381 . S
O4498 C4497 1.258 . S
O4499 Cd4490 2.378 . S
O4499 C4497 1.256 . S
O4500 Cd4501 2.300 . S
O4500 C4507 1.275 . S
Cd4501 O4500 2.300 . S
Cd4501 O4509 2.381 . S
Cd4501 O4510 2.378 . S
O4502 Cd4503 2.385 . S
O4502 C4507 1.255 . S
Cd4503 O4502 2.385 . S
Cd4503 O4504 2.317 . S
O4504 Cd4503 2.317 . S
O4504 C4505 1.232 . S
C4505 O4504 1.232 . S
C4505 O4506 1.218 . S
O4506 C4505 1.218 . S
C4507 O4500 1.275 . S
C4507 O4502 1.255 . S
C4508 O4509 1.258 . S
C4508 O4510 1.256 . S
O4509 Cd4501 2.381 . S
O4509 C4508 1.258 . S
O4510 Cd4501 2.378 . S
O4510 C4508 1.256 . S
O4511 Cd4512 2.300 . S
O4511 C4518 1.275 . S
Cd4512 O4511 2.300 . S
Cd4512 O4520 2.381 . S
Cd4512 O4521 2.378 . S
O4513 Cd4514 2.385 . S
O4513 C4518 1.255 . S
Cd4514 O4513 2.385 . S
Cd4514 O4515 2.317 . S
O4515 Cd4514 2.317 . S
O4515 C4516 1.232 . S
C4516 O4515 1.232 . S
C4516 O4517 1.218 . S
O4517 C4516 1.218 . S
C4518 O4511 1.275 . S
C4518 O4513 1.255 . S
C4519 O4520 1.258 . S
C4519 O4521 1.256 . S
O4520 Cd4512 2.381 . S
O4520 C4519 1.258 . S
O4521 Cd4512 2.378 . S
O4521 C4519 1.256 . S
O4522 Cd4523 2.300 . S
O4522 C4529 1.275 . S
Cd4523 O4522 2.300 . S
Cd4523 O4531 2.381 . S
Cd4523 O4532 2.378 . S
O4524 Cd4525 2.385 . S
O4524 C4529 1.255 . S
Cd4525 O4524 2.385 . S
Cd4525 O4526 2.317 . S
O4526 Cd4525 2.317 . S
O4526 C4527 1.232 . S
C4527 O4526 1.232 . S
C4527 O4528 1.218 . S
O4528 C4527 1.218 . S
C4529 O4522 1.275 . S
C4529 O4524 1.255 . S
C4530 O4531 1.258 . S
C4530 O4532 1.256 . S
O4531 Cd4523 2.381 . S
O4531 C4530 1.258 . S
O4532 Cd4523 2.378 . S
O4532 C4530 1.256 . S
O4533 Cd4534 2.300 . S
O4533 C4540 1.275 . S
Cd4534 O4533 2.300 . S
Cd4534 O4542 2.381 . S
Cd4534 O4543 2.378 . S
O4535 Cd4536 2.385 . S
O4535 C4540 1.255 . S
Cd4536 O4535 2.385 . S
Cd4536 O4537 2.317 . S
O4537 Cd4536 2.317 . S
O4537 C4538 1.232 . S
C4538 O4537 1.232 . S
C4538 O4539 1.218 . S
O4539 C4538 1.218 . S
C4540 O4533 1.275 . S
C4540 O4535 1.255 . S
C4541 O4542 1.258 . S
C4541 O4543 1.256 . S
O4542 Cd4534 2.381 . S
O4542 C4541 1.258 . S
O4543 Cd4534 2.378 . S
O4543 C4541 1.256 . S
O4544 Cd4545 2.300 . S
O4544 C4551 1.275 . S
Cd4545 O4544 2.300 . S
Cd4545 O4553 2.381 . S
Cd4545 O4554 2.378 . S
O4546 Cd4547 2.385 . S
O4546 C4551 1.255 . S
Cd4547 O4546 2.385 . S
Cd4547 O4548 2.317 . S
O4548 Cd4547 2.317 . S
O4548 C4549 1.232 . S
C4549 O4548 1.232 . S
C4549 O4550 1.218 . S
O4550 C4549 1.218 . S
C4551 O4544 1.275 . S
C4551 O4546 1.255 . S
C4552 O4553 1.258 . S
C4552 O4554 1.256 . S
O4553 Cd4545 2.381 . S
O4553 C4552 1.258 . S
O4554 Cd4545 2.378 . S
O4554 C4552 1.256 . S
O4555 Cd4556 2.300 . S
O4555 C4562 1.275 . S
Cd4556 O4555 2.300 . S
Cd4556 O4564 2.381 . S
Cd4556 O4565 2.378 . S
O4557 Cd4558 2.385 . S
O4557 C4562 1.255 . S
Cd4558 O4557 2.385 . S
Cd4558 O4559 2.317 . S
O4559 Cd4558 2.317 . S
O4559 C4560 1.232 . S
C4560 O4559 1.232 . S
C4560 O4561 1.218 . S
O4561 C4560 1.218 . S
C4562 O4555 1.275 . S
C4562 O4557 1.255 . S
C4563 O4564 1.258 . S
C4563 O4565 1.256 . S
O4564 Cd4556 2.381 . S
O4564 C4563 1.258 . S
O4565 Cd4556 2.378 . S
O4565 C4563 1.256 . S
O4566 Cd4567 2.300 . S
O4566 C4573 1.275 . S
Cd4567 O4566 2.300 . S
Cd4567 O4575 2.381 . S
Cd4567 O4576 2.378 . S
O4568 Cd4569 2.385 . S
O4568 C4573 1.255 . S
Cd4569 O4568 2.385 . S
Cd4569 O4570 2.317 . S
O4570 Cd4569 2.317 . S
O4570 C4571 1.232 . S
C4571 O4570 1.232 . S
C4571 O4572 1.218 . S
O4572 C4571 1.218 . S
C4573 O4566 1.275 . S
C4573 O4568 1.255 . S
C4574 O4575 1.258 . S
C4574 O4576 1.256 . S
O4575 Cd4567 2.381 . S
O4575 C4574 1.258 . S
O4576 Cd4567 2.378 . S
O4576 C4574 1.256 . S
O4577 Cd4578 2.300 . S
O4577 C4584 1.275 . S
Cd4578 O4577 2.300 . S
Cd4578 O4586 2.381 . S
Cd4578 O4587 2.378 . S
O4579 Cd4580 2.385 . S
O4579 C4584 1.255 . S
Cd4580 O4579 2.385 . S
Cd4580 O4581 2.317 . S
O4581 Cd4580 2.317 . S
O4581 C4582 1.232 . S
C4582 O4581 1.232 . S
C4582 O4583 1.218 . S
O4583 C4582 1.218 . S
C4584 O4577 1.275 . S
C4584 O4579 1.255 . S
C4585 O4586 1.258 . S
C4585 O4587 1.256 . S
O4586 Cd4578 2.381 . S
O4586 C4585 1.258 . S
O4587 Cd4578 2.378 . S
O4587 C4585 1.256 . S
O4588 Cd4589 2.300 . S
O4588 C4595 1.275 . S
Cd4589 O4588 2.300 . S
Cd4589 O4597 2.381 . S
Cd4589 O4598 2.378 . S
O4590 Cd4591 2.385 . S
O4590 C4595 1.255 . S
Cd4591 O4590 2.385 . S
Cd4591 O4592 2.317 . S
O4592 Cd4591 2.317 . S
O4592 C4593 1.232 . S
C4593 O4592 1.232 . S
C4593 O4594 1.218 . S
O4594 C4593 1.218 . S
C4595 O4588 1.275 . S
C4595 O4590 1.255 . S
C4596 O4597 1.258 . S
C4596 O4598 1.256 . S
O4597 Cd4589 2.381 . S
O4597 C4596 1.258 . S
O4598 Cd4589 2.378 . S
O4598 C4596 1.256 . S
O4599 Cd4600 2.300 . S
O4599 C4606 1.275 . S
Cd4600 O4599 2.300 . S
Cd4600 O4608 2.381 . S
Cd4600 O4609 2.378 . S
O4601 Cd4602 2.385 . S
O4601 C4606 1.255 . S
Cd4602 O4601 2.385 . S
Cd4602 O4603 2.317 . S
O4603 Cd4602 2.317 . S
O4603 C4604 1.232 . S
C4604 O4603 1.232 . S
C4604 O4605 1.218 . S
O4605 C4604 1.218 . S
C4606 O4599 1.275 . S
C4606 O4601 1.255 . S
C4607 O4608 1.258 . S
C4607 O4609 1.256 . S
O4608 Cd4600 2.381 . S
O4608 C4607 1.258 . S
O4609 Cd4600 2.378 . S
O4609 C4607 1.256 . S
O4610 Cd4611 2.300 . S
O4610 C4617 1.275 . S
Cd4611 O4610 2.300 . S
Cd4611 O4619 2.381 . S
Cd4611 O4620 2.378 . S
O4612 Cd4613 2.385 . S
O4612 C4617 1.255 . S
Cd4613 O4612 2.385 . S
Cd4613 O4614 2.317 . S
O4614 Cd4613 2.317 . S
O4614 C4615 1.232 . S
C4615 O4614 1.232 . S
C4615 O4616 1.218 . S
O4616 C4615 1.218 . S
C4617 O4610 1.275 . S
C4617 O4612 1.255 . S
C4618 O4619 1.258 . S
C4618 O4620 1.256 . S
O4619 Cd4611 2.381 . S
O4619 C4618 1.258 . S
O4620 Cd4611 2.378 . S
O4620 C4618 1.256 . S
O4621 Cd4622 2.300 . S
O4621 C4628 1.275 . S
Cd4622 O4621 2.300 . S
Cd4622 O4630 2.381 . S
Cd4622 O4631 2.378 . S
O4623 Cd4624 2.385 . S
O4623 C4628 1.255 . S
Cd4624 O4623 2.385 . S
Cd4624 O4625 2.317 . S
O4625 Cd4624 2.317 . S
O4625 C4626 1.232 . S
C4626 O4625 1.232 . S
C4626 O4627 1.218 . S
O4627 C4626 1.218 . S
C4628 O4621 1.275 . S
C4628 O4623 1.255 . S
C4629 O4630 1.258 . S
C4629 O4631 1.256 . S
O4630 Cd4622 2.381 . S
O4630 C4629 1.258 . S
O4631 Cd4622 2.378 . S
O4631 C4629 1.256 . S
O4632 Cd4633 2.300 . S
O4632 C4639 1.275 . S
Cd4633 O4632 2.300 . S
Cd4633 O4641 2.381 . S
Cd4633 O4642 2.378 . S
O4634 Cd4635 2.385 . S
O4634 C4639 1.255 . S
Cd4635 O4634 2.385 . S
Cd4635 O4636 2.317 . S
O4636 Cd4635 2.317 . S
O4636 C4637 1.232 . S
C4637 O4636 1.232 . S
C4637 O4638 1.218 . S
O4638 C4637 1.218 . S
C4639 O4632 1.275 . S
C4639 O4634 1.255 . S
C4640 O4641 1.258 . S
C4640 O4642 1.256 . S
O4641 Cd4633 2.381 . S
O4641 C4640 1.258 . S
O4642 Cd4633 2.378 . S
O4642 C4640 1.256 . S
O4643 Cd4644 2.300 . S
O4643 C4650 1.275 . S
Cd4644 O4643 2.300 . S
Cd4644 O4652 2.381 . S
Cd4644 O4653 2.378 . S
O4645 Cd4646 2.385 . S
O4645 C4650 1.255 . S
Cd4646 O4645 2.385 . S
Cd4646 O4647 2.317 . S
O4647 Cd4646 2.317 . S
O4647 C4648 1.232 . S
C4648 O4647 1.232 . S
C4648 O4649 1.218 . S
O4649 C4648 1.218 . S
C4650 O4643 1.275 . S
C4650 O4645 1.255 . S
C4651 O4652 1.258 . S
C4651 O4653 1.256 . S
O4652 Cd4644 2.381 . S
O4652 C4651 1.258 . S
O4653 Cd4644 2.378 . S
O4653 C4651 1.256 . S
O4654 Cd4655 2.300 . S
O4654 C4661 1.275 . S
Cd4655 O4654 2.300 . S
Cd4655 O4663 2.381 . S
Cd4655 O4664 2.378 . S
O4656 Cd4657 2.385 . S
O4656 C4661 1.255 . S
Cd4657 O4656 2.385 . S
Cd4657 O4658 2.317 . S
O4658 Cd4657 2.317 . S
O4658 C4659 1.232 . S
C4659 O4658 1.232 . S
C4659 O4660 1.218 . S
O4660 C4659 1.218 . S
C4661 O4654 1.275 . S
C4661 O4656 1.255 . S
C4662 O4663 1.258 . S
C4662 O4664 1.256 . S
O4663 Cd4655 2.381 . S
O4663 C4662 1.258 . S
O4664 Cd4655 2.378 . S
O4664 C4662 1.256 . S
O4665 Cd4666 2.300 . S
O4665 C4672 1.275 . S
Cd4666 O4665 2.300 . S
Cd4666 O4674 2.381 . S
Cd4666 O4675 2.378 . S
O4667 Cd4668 2.385 . S
O4667 C4672 1.255 . S
Cd4668 O4667 2.385 . S
Cd4668 O4669 2.317 . S
O4669 Cd4668 2.317 . S
O4669 C4670 1.232 . S
C4670 O4669 1.232 . S
C4670 O4671 1.218 . S
O4671 C4670 1.218 . S
C4672 O4665 1.275 . S
C4672 O4667 1.255 . S
C4673 O4674 1.258 . S
C4673 O4675 1.256 . S
O4674 Cd4666 2.381 . S
O4674 C4673 1.258 . S
O4675 Cd4666 2.378 . S
O4675 C4673 1.256 . S
O4676 Cd4677 2.300 . S
O4676 C4683 1.275 . S
Cd4677 O4676 2.300 . S
Cd4677 O4685 2.381 . S
Cd4677 O4686 2.378 . S
O4678 Cd4679 2.385 . S
O4678 C4683 1.255 . S
Cd4679 O4678 2.385 . S
Cd4679 O4680 2.317 . S
O4680 Cd4679 2.317 . S
O4680 C4681 1.232 . S
C4681 O4680 1.232 . S
C4681 O4682 1.218 . S
O4682 C4681 1.218 . S
C4683 O4676 1.275 . S
C4683 O4678 1.255 . S
C4684 O4685 1.258 . S
C4684 O4686 1.256 . S
O4685 Cd4677 2.381 . S
O4685 C4684 1.258 . S
O4686 Cd4677 2.378 . S
O4686 C4684 1.256 . S
O4687 Cd4688 2.300 . S
O4687 C4694 1.275 . S
Cd4688 O4687 2.300 . S
Cd4688 O4696 2.381 . S
Cd4688 O4697 2.378 . S
O4689 Cd4690 2.385 . S
O4689 C4694 1.255 . S
Cd4690 O4689 2.385 . S
Cd4690 O4691 2.317 . S
O4691 Cd4690 2.317 . S
O4691 C4692 1.232 . S
C4692 O4691 1.232 . S
C4692 O4693 1.218 . S
O4693 C4692 1.218 . S
C4694 O4687 1.275 . S
C4694 O4689 1.255 . S
C4695 O4696 1.258 . S
C4695 O4697 1.256 . S
O4696 Cd4688 2.381 . S
O4696 C4695 1.258 . S
O4697 Cd4688 2.378 . S
O4697 C4695 1.256 . S
O4698 Cd4699 2.300 . S
O4698 C4705 1.275 . S
Cd4699 O4698 2.300 . S
Cd4699 O4707 2.381 . S
Cd4699 O4708 2.378 . S
O4700 Cd4701 2.385 . S
O4700 C4705 1.255 . S
Cd4701 O4700 2.385 . S
Cd4701 O4702 2.317 . S
O4702 Cd4701 2.317 . S
O4702 C4703 1.232 . S
C4703 O4702 1.232 . S
C4703 O4704 1.218 . S
O4704 C4703 1.218 . S
C4705 O4698 1.275 . S
C4705 O4700 1.255 . S
C4706 O4707 1.258 . S
C4706 O4708 1.256 . S
O4707 Cd4699 2.381 . S
O4707 C4706 1.258 . S
O4708 Cd4699 2.378 . S
O4708 C4706 1.256 . S
O4709 Cd4710 2.300 . S
O4709 C4716 1.275 . S
Cd4710 O4709 2.300 . S
Cd4710 O4718 2.381 . S
Cd4710 O4719 2.378 . S
O4711 Cd4712 2.385 . S
O4711 C4716 1.255 . S
Cd4712 O4711 2.385 . S
Cd4712 O4713 2.317 . S
O4713 Cd4712 2.317 . S
O4713 C4714 1.232 . S
C4714 O4713 1.232 . S
C4714 O4715 1.218 . S
O4715 C4714 1.218 . S
C4716 O4709 1.275 . S
C4716 O4711 1.255 . S
C4717 O4718 1.258 . S
C4717 O4719 1.256 . S
O4718 Cd4710 2.381 . S
O4718 C4717 1.258 . S
O4719 Cd4710 2.378 . S
O4719 C4717 1.256 . S
O4720 Cd4721 2.300 . S
O4720 C4727 1.275 . S
Cd4721 O4720 2.300 . S
Cd4721 O4729 2.381 . S
Cd4721 O4730 2.378 . S
O4722 Cd4723 2.385 . S
O4722 C4727 1.255 . S
Cd4723 O4722 2.385 . S
Cd4723 O4724 2.317 . S
O4724 Cd4723 2.317 . S
O4724 C4725 1.232 . S
C4725 O4724 1.232 . S
C4725 O4726 1.218 . S
O4726 C4725 1.218 . S
C4727 O4720 1.275 . S
C4727 O4722 1.255 . S
C4728 O4729 1.258 . S
C4728 O4730 1.256 . S
O4729 Cd4721 2.381 . S
O4729 C4728 1.258 . S
O4730 Cd4721 2.378 . S
O4730 C4728 1.256 . S
O4731 Cd4732 2.300 . S
O4731 C4738 1.275 . S
Cd4732 O4731 2.300 . S
Cd4732 O4740 2.381 . S
Cd4732 O4741 2.378 . S
O4733 Cd4734 2.385 . S
O4733 C4738 1.255 . S
Cd4734 O4733 2.385 . S
Cd4734 O4735 2.317 . S
O4735 Cd4734 2.317 . S
O4735 C4736 1.232 . S
C4736 O4735 1.232 . S
C4736 O4737 1.218 . S
O4737 C4736 1.218 . S
C4738 O4731 1.275 . S
C4738 O4733 1.255 . S
C4739 O4740 1.258 . S
C4739 O4741 1.256 . S
O4740 Cd4732 2.381 . S
O4740 C4739 1.258 . S
O4741 Cd4732 2.378 . S
O4741 C4739 1.256 . S
O4742 Cd4743 2.300 . S
O4742 C4749 1.275 . S
Cd4743 O4742 2.300 . S
Cd4743 O4751 2.381 . S
Cd4743 O4752 2.378 . S
O4744 Cd4745 2.385 . S
O4744 C4749 1.255 . S
Cd4745 O4744 2.385 . S
Cd4745 O4746 2.317 . S
O4746 Cd4745 2.317 . S
O4746 C4747 1.232 . S
C4747 O4746 1.232 . S
C4747 O4748 1.218 . S
O4748 C4747 1.218 . S
C4749 O4742 1.275 . S
C4749 O4744 1.255 . S
C4750 O4751 1.258 . S
C4750 O4752 1.256 . S
O4751 Cd4743 2.381 . S
O4751 C4750 1.258 . S
O4752 Cd4743 2.378 . S
O4752 C4750 1.256 . S
O4753 Cd4754 2.300 . S
O4753 C4760 1.275 . S
Cd4754 O4753 2.300 . S
Cd4754 O4762 2.381 . S
Cd4754 O4763 2.378 . S
O4755 Cd4756 2.385 . S
O4755 C4760 1.255 . S
Cd4756 O4755 2.385 . S
Cd4756 O4757 2.317 . S
O4757 Cd4756 2.317 . S
O4757 C4758 1.232 . S
C4758 O4757 1.232 . S
C4758 O4759 1.218 . S
O4759 C4758 1.218 . S
C4760 O4753 1.275 . S
C4760 O4755 1.255 . S
C4761 O4762 1.258 . S
C4761 O4763 1.256 . S
O4762 Cd4754 2.381 . S
O4762 C4761 1.258 . S
O4763 Cd4754 2.378 . S
O4763 C4761 1.256 . S
O4764 Cd4765 2.300 . S
O4764 C4771 1.275 . S
Cd4765 O4764 2.300 . S
Cd4765 O4773 2.381 . S
Cd4765 O4774 2.378 . S
O4766 Cd4767 2.385 . S
O4766 C4771 1.255 . S
Cd4767 O4766 2.385 . S
Cd4767 O4768 2.317 . S
O4768 Cd4767 2.317 . S
O4768 C4769 1.232 . S
C4769 O4768 1.232 . S
C4769 O4770 1.218 . S
O4770 C4769 1.218 . S
C4771 O4764 1.275 . S
C4771 O4766 1.255 . S
C4772 O4773 1.258 . S
C4772 O4774 1.256 . S
O4773 Cd4765 2.381 . S
O4773 C4772 1.258 . S
O4774 Cd4765 2.378 . S
O4774 C4772 1.256 . S
O4775 Cd4776 2.300 . S
O4775 C4782 1.275 . S
Cd4776 O4775 2.300 . S
Cd4776 O4784 2.381 . S
Cd4776 O4785 2.378 . S
O4777 Cd4778 2.385 . S
O4777 C4782 1.255 . S
Cd4778 O4777 2.385 . S
Cd4778 O4779 2.317 . S
O4779 Cd4778 2.317 . S
O4779 C4780 1.232 . S
C4780 O4779 1.232 . S
C4780 O4781 1.218 . S
O4781 C4780 1.218 . S
C4782 O4775 1.275 . S
C4782 O4777 1.255 . S
C4783 O4784 1.258 . S
C4783 O4785 1.256 . S
O4784 Cd4776 2.381 . S
O4784 C4783 1.258 . S
O4785 Cd4776 2.378 . S
O4785 C4783 1.256 . S
O4786 Cd4787 2.300 . S
O4786 C4793 1.275 . S
Cd4787 O4786 2.300 . S
Cd4787 O4795 2.381 . S
Cd4787 O4796 2.378 . S
O4788 Cd4789 2.385 . S
O4788 C4793 1.255 . S
Cd4789 O4788 2.385 . S
Cd4789 O4790 2.317 . S
O4790 Cd4789 2.317 . S
O4790 C4791 1.232 . S
C4791 O4790 1.232 . S
C4791 O4792 1.218 . S
O4792 C4791 1.218 . S
C4793 O4786 1.275 . S
C4793 O4788 1.255 . S
C4794 O4795 1.258 . S
C4794 O4796 1.256 . S
O4795 Cd4787 2.381 . S
O4795 C4794 1.258 . S
O4796 Cd4787 2.378 . S
O4796 C4794 1.256 . S
O4797 Cd4798 2.300 . S
O4797 C4804 1.275 . S
Cd4798 O4797 2.300 . S
Cd4798 O4806 2.381 . S
Cd4798 O4807 2.378 . S
O4799 Cd4800 2.385 . S
O4799 C4804 1.255 . S
Cd4800 O4799 2.385 . S
Cd4800 O4801 2.317 . S
O4801 Cd4800 2.317 . S
O4801 C4802 1.232 . S
C4802 O4801 1.232 . S
C4802 O4803 1.218 . S
O4803 C4802 1.218 . S
C4804 O4797 1.275 . S
C4804 O4799 1.255 . S
C4805 O4806 1.258 . S
C4805 O4807 1.256 . S
O4806 Cd4798 2.381 . S
O4806 C4805 1.258 . S
O4807 Cd4798 2.378 . S
O4807 C4805 1.256 . S
O4808 Cd4809 2.300 . S
O4808 C4815 1.275 . S
Cd4809 O4808 2.300 . S
Cd4809 O4817 2.381 . S
Cd4809 O4818 2.378 . S
O4810 Cd4811 2.385 . S
O4810 C4815 1.255 . S
Cd4811 O4810 2.385 . S
Cd4811 O4812 2.317 . S
O4812 Cd4811 2.317 . S
O4812 C4813 1.232 . S
C4813 O4812 1.232 . S
C4813 O4814 1.218 . S
O4814 C4813 1.218 . S
C4815 O4808 1.275 . S
C4815 O4810 1.255 . S
C4816 O4817 1.258 . S
C4816 O4818 1.256 . S
O4817 Cd4809 2.381 . S
O4817 C4816 1.258 . S
O4818 Cd4809 2.378 . S
O4818 C4816 1.256 . S
O4819 Cd4820 2.300 . S
O4819 C4826 1.275 . S
Cd4820 O4819 2.300 . S
Cd4820 O4828 2.381 . S
Cd4820 O4829 2.378 . S
O4821 Cd4822 2.385 . S
O4821 C4826 1.255 . S
Cd4822 O4821 2.385 . S
Cd4822 O4823 2.317 . S
O4823 Cd4822 2.317 . S
O4823 C4824 1.232 . S
C4824 O4823 1.232 . S
C4824 O4825 1.218 . S
O4825 C4824 1.218 . S
C4826 O4819 1.275 . S
C4826 O4821 1.255 . S
C4827 O4828 1.258 . S
C4827 O4829 1.256 . S
O4828 Cd4820 2.381 . S
O4828 C4827 1.258 . S
O4829 Cd4820 2.378 . S
O4829 C4827 1.256 . S
O4830 Cd4831 2.300 . S
O4830 C4837 1.275 . S
Cd4831 O4830 2.300 . S
Cd4831 O4839 2.381 . S
Cd4831 O4840 2.378 . S
O4832 Cd4833 2.385 . S
O4832 C4837 1.255 . S
Cd4833 O4832 2.385 . S
Cd4833 O4834 2.317 . S
O4834 Cd4833 2.317 . S
O4834 C4835 1.232 . S
C4835 O4834 1.232 . S
C4835 O4836 1.218 . S
O4836 C4835 1.218 . S
C4837 O4830 1.275 . S
C4837 O4832 1.255 . S
C4838 O4839 1.258 . S
C4838 O4840 1.256 . S
O4839 Cd4831 2.381 . S
O4839 C4838 1.258 . S
O4840 Cd4831 2.378 . S
O4840 C4838 1.256 . S
O4841 Cd4842 2.300 . S
O4841 C4848 1.275 . S
Cd4842 O4841 2.300 . S
Cd4842 O4850 2.381 . S
Cd4842 O4851 2.378 . S
O4843 Cd4844 2.385 . S
O4843 C4848 1.255 . S
Cd4844 O4843 2.385 . S
Cd4844 O4845 2.317 . S
O4845 Cd4844 2.317 . S
O4845 C4846 1.232 . S
C4846 O4845 1.232 . S
C4846 O4847 1.218 . S
O4847 C4846 1.218 . S
C4848 O4841 1.275 . S
C4848 O4843 1.255 . S
C4849 O4850 1.258 . S
C4849 O4851 1.256 . S
O4850 Cd4842 2.381 . S
O4850 C4849 1.258 . S
O4851 Cd4842 2.378 . S
O4851 C4849 1.256 . S
O4852 Cd4853 2.300 . S
O4852 C4859 1.275 . S
Cd4853 O4852 2.300 . S
Cd4853 O4861 2.381 . S
Cd4853 O4862 2.378 . S
O4854 Cd4855 2.385 . S
O4854 C4859 1.255 . S
Cd4855 O4854 2.385 . S
Cd4855 O4856 2.317 . S
O4856 Cd4855 2.317 . S
O4856 C4857 1.232 . S
C4857 O4856 1.232 . S
C4857 O4858 1.218 . S
O4858 C4857 1.218 . S
C4859 O4852 1.275 . S
C4859 O4854 1.255 . S
C4860 O4861 1.258 . S
C4860 O4862 1.256 . S
O4861 Cd4853 2.381 . S
O4861 C4860 1.258 . S
O4862 Cd4853 2.378 . S
O4862 C4860 1.256 . S
O4863 Cd4864 2.300 . S
O4863 C4870 1.275 . S
Cd4864 O4863 2.300 . S
Cd4864 O4872 2.381 . S
Cd4864 O4873 2.378 . S
O4865 Cd4866 2.385 . S
O4865 C4870 1.255 . S
Cd4866 O4865 2.385 . S
Cd4866 O4867 2.317 . S
O4867 Cd4866 2.317 . S
O4867 C4868 1.232 . S
C4868 O4867 1.232 . S
C4868 O4869 1.218 . S
O4869 C4868 1.218 . S
C4870 O4863 1.275 . S
C4870 O4865 1.255 . S
C4871 O4872 1.258 . S
C4871 O4873 1.256 . S
O4872 Cd4864 2.381 . S
O4872 C4871 1.258 . S
O4873 Cd4864 2.378 . S
O4873 C4871 1.256 . S
O4874 Cd4875 2.300 . S
O4874 C4881 1.275 . S
Cd4875 O4874 2.300 . S
Cd4875 O4883 2.381 . S
Cd4875 O4884 2.378 . S
O4876 Cd4877 2.385 . S
O4876 C4881 1.255 . S
Cd4877 O4876 2.385 . S
Cd4877 O4878 2.317 . S
O4878 Cd4877 2.317 . S
O4878 C4879 1.232 . S
C4879 O4878 1.232 . S
C4879 O4880 1.218 . S
O4880 C4879 1.218 . S
C4881 O4874 1.275 . S
C4881 O4876 1.255 . S
C4882 O4883 1.258 . S
C4882 O4884 1.256 . S
O4883 Cd4875 2.381 . S
O4883 C4882 1.258 . S
O4884 Cd4875 2.378 . S
O4884 C4882 1.256 . S
O4885 Cd4886 2.300 . S
O4885 C4892 1.275 . S
Cd4886 O4885 2.300 . S
Cd4886 O4894 2.381 . S
Cd4886 O4895 2.378 . S
O4887 Cd4888 2.385 . S
O4887 C4892 1.255 . S
Cd4888 O4887 2.385 . S
Cd4888 O4889 2.317 . S
O4889 Cd4888 2.317 . S
O4889 C4890 1.232 . S
C4890 O4889 1.232 . S
C4890 O4891 1.218 . S
O4891 C4890 1.218 . S
C4892 O4885 1.275 . S
C4892 O4887 1.255 . S
C4893 O4894 1.258 . S
C4893 O4895 1.256 . S
O4894 Cd4886 2.381 . S
O4894 C4893 1.258 . S
O4895 Cd4886 2.378 . S
O4895 C4893 1.256 . S
H4896 C4902 0.930 . S
H4897 C4906 0.930 . S
H4898 C4911 0.929 . S
H4899 C4909 0.929 . S
H4900 C4904 0.929 . S
H4901 C4910 0.929 . S
C4902 H4896 0.930 . S
C4902 C4903 1.367 . S
C4902 C4910 1.378 . S
C4903 C4902 1.367 . S
C4903 C4911 1.433 . S
C4904 H4900 0.929 . S
C4904 C4906 1.378 1_455 S
C4904 C4908 1.350 . S
C4905 C4908 1.463 . S
C4905 C4910 1.350 . S
C4905 N4913 1.427 . S
C4906 H4897 0.930 . S
C4906 C4904 1.378 1_655 S
C4906 C4907 1.367 . S
C4907 C4906 1.367 . S
C4907 C4909 1.433 . S
C4908 C4904 1.350 . S
C4908 C4905 1.463 . S
C4908 N4912 1.427 1_455 S
C4909 H4899 0.929 . S
C4909 C4907 1.433 . S
C4909 N4912 1.384 . S
C4910 H4901 0.929 . S
C4910 C4902 1.378 . S
C4910 C4905 1.350 . S
C4911 H4898 0.929 . S
C4911 C4903 1.433 . S
C4911 N4913 1.384 . S
N4912 C4908 1.427 1_655 S
N4912 C4909 1.384 . S
N4913 C4905 1.427 . S
N4913 C4911 1.384 . S
H4914 C4920 0.930 . S
H4915 C4924 0.930 . S
H4916 C4929 0.929 . S
H4917 C4927 0.929 . S
H4918 C4922 0.929 . S
H4919 C4928 0.929 . S
C4920 H4914 0.930 . S
C4920 C4921 1.367 . S
C4920 C4928 1.378 . S
C4921 C4920 1.367 . S
C4921 C4929 1.433 . S
C4922 H4918 0.929 . S
C4922 C4924 1.378 . S
C4922 C4926 1.350 . S
C4923 C4926 1.463 . S
C4923 C4928 1.350 . S
C4923 N4931 1.427 . S
C4924 H4915 0.930 . S
C4924 C4922 1.378 . S
C4924 C4925 1.367 . S
C4925 C4924 1.367 . S
C4925 C4927 1.433 . S
C4926 C4922 1.350 . S
C4926 C4923 1.463 . S
C4926 N4930 1.427 . S
C4927 H4917 0.929 . S
C4927 C4925 1.433 . S
C4927 N4930 1.384 . S
C4928 H4919 0.929 . S
C4928 C4920 1.378 . S
C4928 C4923 1.350 . S
C4929 H4916 0.929 . S
C4929 C4921 1.433 . S
C4929 N4931 1.384 . S
N4930 C4926 1.427 . S
N4930 C4927 1.384 . S
N4931 C4923 1.427 . S
N4931 C4929 1.384 . S
H4932 C4938 0.930 . S
H4933 C4942 0.930 . S
H4934 C4947 0.929 . S
H4935 C4945 0.929 . S
H4936 C4940 0.929 . S
H4937 C4946 0.929 . S
C4938 H4932 0.930 . S
C4938 C4939 1.367 . S
C4938 C4946 1.378 . S
C4939 C4938 1.367 . S
C4939 C4947 1.433 . S
C4940 H4936 0.929 . S
C4940 C4942 1.378 . S
C4940 C4944 1.350 . S
C4941 C4944 1.463 . S
C4941 C4946 1.350 . S
C4941 N4949 1.427 . S
C4942 H4933 0.930 . S
C4942 C4940 1.378 . S
C4942 C4943 1.367 . S
C4943 C4942 1.367 . S
C4943 C4945 1.433 . S
C4944 C4940 1.350 . S
C4944 C4941 1.463 . S
C4944 N4948 1.427 . S
C4945 H4935 0.929 . S
C4945 C4943 1.433 . S
C4945 N4948 1.384 . S
C4946 H4937 0.929 . S
C4946 C4938 1.378 . S
C4946 C4941 1.350 . S
C4947 H4934 0.929 . S
C4947 C4939 1.433 . S
C4947 N4949 1.384 . S
N4948 C4944 1.427 . S
N4948 C4945 1.384 . S
N4949 C4941 1.427 . S
N4949 C4947 1.384 . S
H4950 C4956 0.930 . S
H4951 C4960 0.930 . S
H4952 C4965 0.929 . S
H4953 C4963 0.929 . S
H4954 C4958 0.929 . S
H4955 C4964 0.929 . S
C4956 H4950 0.930 . S
C4956 C4957 1.367 . S
C4956 C4964 1.378 . S
C4957 C4956 1.367 . S
C4957 C4965 1.433 . S
C4958 H4954 0.929 . S
C4958 C4960 1.378 . S
C4958 C4962 1.350 . S
C4959 C4962 1.463 . S
C4959 C4964 1.350 . S
C4959 N4967 1.427 . S
C4960 H4951 0.930 . S
C4960 C4958 1.378 . S
C4960 C4961 1.367 . S
C4961 C4960 1.367 . S
C4961 C4963 1.433 . S
C4962 C4958 1.350 . S
C4962 C4959 1.463 . S
C4962 N4966 1.427 . S
C4963 H4953 0.929 . S
C4963 C4961 1.433 . S
C4963 N4966 1.384 . S
C4964 H4955 0.929 . S
C4964 C4956 1.378 . S
C4964 C4959 1.350 . S
C4965 H4952 0.929 . S
C4965 C4957 1.433 . S
C4965 N4967 1.384 . S
N4966 C4962 1.427 . S
N4966 C4963 1.384 . S
N4967 C4959 1.427 . S
N4967 C4965 1.384 . S
H4968 C4974 0.930 . S
H4969 C4978 0.930 . S
H4970 C4983 0.929 . S
H4971 C4981 0.929 . S
H4972 C4976 0.929 . S
H4973 C4982 0.929 . S
C4974 H4968 0.930 . S
C4974 C4975 1.367 . S
C4974 C4982 1.378 . S
C4975 C4974 1.367 . S
C4975 C4983 1.433 . S
C4976 H4972 0.929 . S
C4976 C4978 1.378 1_455 S
C4976 C4980 1.350 . S
C4977 C4980 1.463 . S
C4977 C4982 1.350 . S
C4977 N4985 1.427 . S
C4978 H4969 0.930 . S
C4978 C4976 1.378 1_655 S
C4978 C4979 1.367 . S
C4979 C4978 1.367 . S
C4979 C4981 1.433 . S
C4980 C4976 1.350 . S
C4980 C4977 1.463 . S
C4980 N4984 1.427 1_455 S
C4981 H4971 0.929 . S
C4981 C4979 1.433 . S
C4981 N4984 1.384 . S
C4982 H4973 0.929 . S
C4982 C4974 1.378 . S
C4982 C4977 1.350 . S
C4983 H4970 0.929 . S
C4983 C4975 1.433 . S
C4983 N4985 1.384 . S
N4984 C4980 1.427 1_655 S
N4984 C4981 1.384 . S
N4985 C4977 1.427 . S
N4985 C4983 1.384 . S
H4986 C4992 0.930 . S
H4987 C4996 0.930 . S
H4988 C5001 0.929 . S
H4989 C4999 0.929 . S
H4990 C4994 0.929 . S
H4991 C5000 0.929 . S
C4992 H4986 0.930 . S
C4992 C4993 1.367 . S
C4992 C5000 1.378 . S
C4993 C4992 1.367 . S
C4993 C5001 1.433 . S
C4994 H4990 0.929 . S
C4994 C4996 1.378 . S
C4994 C4998 1.350 . S
C4995 C4998 1.463 . S
C4995 C5000 1.350 . S
C4995 N5003 1.427 . S
C4996 H4987 0.930 . S
C4996 C4994 1.378 . S
C4996 C4997 1.367 . S
C4997 C4996 1.367 . S
C4997 C4999 1.433 . S
C4998 C4994 1.350 . S
C4998 C4995 1.463 . S
C4998 N5002 1.427 . S
C4999 H4989 0.929 . S
C4999 C4997 1.433 . S
C4999 N5002 1.384 . S
C5000 H4991 0.929 . S
C5000 C4992 1.378 . S
C5000 C4995 1.350 . S
C5001 H4988 0.929 . S
C5001 C4993 1.433 . S
C5001 N5003 1.384 . S
N5002 C4998 1.427 . S
N5002 C4999 1.384 . S
N5003 C4995 1.427 . S
N5003 C5001 1.384 . S
H5004 C5010 0.930 . S
H5005 C5014 0.930 . S
H5006 C5019 0.929 . S
H5007 C5017 0.929 . S
H5008 C5012 0.929 . S
H5009 C5018 0.929 . S
C5010 H5004 0.930 . S
C5010 C5011 1.367 . S
C5010 C5018 1.378 . S
C5011 C5010 1.367 . S
C5011 C5019 1.433 . S
C5012 H5008 0.929 . S
C5012 C5014 1.378 . S
C5012 C5016 1.350 . S
C5013 C5016 1.463 . S
C5013 C5018 1.350 . S
C5013 N5021 1.427 . S
C5014 H5005 0.930 . S
C5014 C5012 1.378 . S
C5014 C5015 1.367 . S
C5015 C5014 1.367 . S
C5015 C5017 1.433 . S
C5016 C5012 1.350 . S
C5016 C5013 1.463 . S
C5016 N5020 1.427 . S
C5017 H5007 0.929 . S
C5017 C5015 1.433 . S
C5017 N5020 1.384 . S
C5018 H5009 0.929 . S
C5018 C5010 1.378 . S
C5018 C5013 1.350 . S
C5019 H5006 0.929 . S
C5019 C5011 1.433 . S
C5019 N5021 1.384 . S
N5020 C5016 1.427 . S
N5020 C5017 1.384 . S
N5021 C5013 1.427 . S
N5021 C5019 1.384 . S
H5022 C5028 0.930 . S
H5023 C5032 0.930 . S
H5024 C5037 0.929 . S
H5025 C5035 0.929 . S
H5026 C5030 0.929 . S
H5027 C5036 0.929 . S
C5028 H5022 0.930 . S
C5028 C5029 1.367 . S
C5028 C5036 1.378 . S
C5029 C5028 1.367 . S
C5029 C5037 1.433 . S
C5030 H5026 0.929 . S
C5030 C5032 1.378 . S
C5030 C5034 1.350 . S
C5031 C5034 1.463 . S
C5031 C5036 1.350 . S
C5031 N5039 1.427 . S
C5032 H5023 0.930 . S
C5032 C5030 1.378 . S
C5032 C5033 1.367 . S
C5033 C5032 1.367 . S
C5033 C5035 1.433 . S
C5034 C5030 1.350 . S
C5034 C5031 1.463 . S
C5034 N5038 1.427 . S
C5035 H5025 0.929 . S
C5035 C5033 1.433 . S
C5035 N5038 1.384 . S
C5036 H5027 0.929 . S
C5036 C5028 1.378 . S
C5036 C5031 1.350 . S
C5037 H5024 0.929 . S
C5037 C5029 1.433 . S
C5037 N5039 1.384 . S
N5038 C5034 1.427 . S
N5038 C5035 1.384 . S
N5039 C5031 1.427 . S
N5039 C5037 1.384 . S
H5040 C5046 0.930 . S
H5041 C5050 0.930 . S
H5042 C5055 0.929 . S
H5043 C5053 0.929 . S
H5044 C5048 0.929 . S
H5045 C5054 0.929 . S
C5046 H5040 0.930 . S
C5046 C5047 1.367 . S
C5046 C5054 1.378 . S
C5047 C5046 1.367 . S
C5047 C5055 1.433 . S
C5048 H5044 0.929 . S
C5048 C5050 1.378 1_545 S
C5048 C5052 1.350 . S
C5049 C5052 1.463 . S
C5049 C5054 1.350 . S
C5049 N5057 1.427 . S
C5050 H5041 0.930 . S
C5050 C5048 1.378 1_565 S
C5050 C5051 1.367 . S
C5051 C5050 1.367 . S
C5051 C5053 1.433 . S
C5052 C5048 1.350 . S
C5052 C5049 1.463 . S
C5052 N5056 1.427 1_545 S
C5053 H5043 0.929 . S
C5053 C5051 1.433 . S
C5053 N5056 1.384 . S
C5054 H5045 0.929 . S
C5054 C5046 1.378 . S
C5054 C5049 1.350 . S
C5055 H5042 0.929 . S
C5055 C5047 1.433 . S
C5055 N5057 1.384 . S
N5056 C5052 1.427 1_565 S
N5056 C5053 1.384 . S
N5057 C5049 1.427 . S
N5057 C5055 1.384 . S
H5058 C5064 0.930 . S
H5059 C5068 0.930 . S
H5060 C5073 0.929 . S
H5061 C5071 0.929 . S
H5062 C5066 0.929 . S
H5063 C5072 0.929 . S
C5064 H5058 0.930 . S
C5064 C5065 1.367 . S
C5064 C5072 1.378 . S
C5065 C5064 1.367 . S
C5065 C5073 1.433 . S
C5066 H5062 0.929 . S
C5066 C5068 1.378 . S
C5066 C5070 1.350 . S
C5067 C5070 1.463 . S
C5067 C5072 1.350 . S
C5067 N5075 1.427 . S
C5068 H5059 0.930 . S
C5068 C5066 1.378 . S
C5068 C5069 1.367 . S
C5069 C5068 1.367 . S
C5069 C5071 1.433 . S
C5070 C5066 1.350 . S
C5070 C5067 1.463 . S
C5070 N5074 1.427 . S
C5071 H5061 0.929 . S
C5071 C5069 1.433 . S
C5071 N5074 1.384 . S
C5072 H5063 0.929 . S
C5072 C5064 1.378 . S
C5072 C5067 1.350 . S
C5073 H5060 0.929 . S
C5073 C5065 1.433 . S
C5073 N5075 1.384 . S
N5074 C5070 1.427 . S
N5074 C5071 1.384 . S
N5075 C5067 1.427 . S
N5075 C5073 1.384 . S
H5076 C5082 0.930 . S
H5077 C5086 0.930 . S
H5078 C5091 0.929 . S
H5079 C5089 0.929 . S
H5080 C5084 0.929 . S
H5081 C5090 0.929 . S
C5082 H5076 0.930 . S
C5082 C5083 1.367 . S
C5082 C5090 1.378 . S
C5083 C5082 1.367 . S
C5083 C5091 1.433 . S
C5084 H5080 0.929 . S
C5084 C5086 1.378 1_565 S
C5084 C5088 1.350 . S
C5085 C5088 1.463 . S
C5085 C5090 1.350 . S
C5085 N5093 1.427 . S
C5086 H5077 0.930 . S
C5086 C5084 1.378 1_545 S
C5086 C5087 1.367 . S
C5087 C5086 1.367 . S
C5087 C5089 1.433 . S
C5088 C5084 1.350 . S
C5088 C5085 1.463 . S
C5088 N5092 1.427 1_565 S
C5089 H5079 0.929 . S
C5089 C5087 1.433 . S
C5089 N5092 1.384 . S
C5090 H5081 0.929 . S
C5090 C5082 1.378 . S
C5090 C5085 1.350 . S
C5091 H5078 0.929 . S
C5091 C5083 1.433 . S
C5091 N5093 1.384 . S
N5092 C5088 1.427 1_545 S
N5092 C5089 1.384 . S
N5093 C5085 1.427 . S
N5093 C5091 1.384 . S
H5094 C5100 0.930 . S
H5095 C5104 0.930 . S
H5096 C5109 0.929 . S
H5097 C5107 0.929 . S
H5098 C5102 0.929 . S
H5099 C5108 0.929 . S
C5100 H5094 0.930 . S
C5100 C5101 1.367 . S
C5100 C5108 1.378 . S
C5101 C5100 1.367 . S
C5101 C5109 1.433 . S
C5102 H5098 0.929 . S
C5102 C5104 1.378 . S
C5102 C5106 1.350 . S
C5103 C5106 1.463 . S
C5103 C5108 1.350 . S
C5103 N5111 1.427 . S
C5104 H5095 0.930 . S
C5104 C5102 1.378 . S
C5104 C5105 1.367 . S
C5105 C5104 1.367 . S
C5105 C5107 1.433 . S
C5106 C5102 1.350 . S
C5106 C5103 1.463 . S
C5106 N5110 1.427 . S
C5107 H5097 0.929 . S
C5107 C5105 1.433 . S
C5107 N5110 1.384 . S
C5108 H5099 0.929 . S
C5108 C5100 1.378 . S
C5108 C5103 1.350 . S
C5109 H5096 0.929 . S
C5109 C5101 1.433 . S
C5109 N5111 1.384 . S
N5110 C5106 1.427 . S
N5110 C5107 1.384 . S
N5111 C5103 1.427 . S
N5111 C5109 1.384 . S
H5112 C5118 0.930 . S
H5113 C5122 0.930 . S
H5114 C5127 0.929 . S
H5115 C5125 0.929 . S
H5116 C5120 0.929 . S
H5117 C5126 0.929 . S
C5118 H5112 0.930 . S
C5118 C5119 1.367 . S
C5118 C5126 1.378 . S
C5119 C5118 1.367 . S
C5119 C5127 1.433 . S
C5120 H5116 0.929 . S
C5120 C5122 1.378 . S
C5120 C5124 1.350 1_545 S
C5121 C5124 1.463 . S
C5121 C5126 1.350 . S
C5121 N5129 1.427 . S
C5122 H5113 0.930 . S
C5122 C5120 1.378 . S
C5122 C5123 1.367 . S
C5123 C5122 1.367 . S
C5123 C5125 1.433 . S
C5124 C5120 1.350 1_565 S
C5124 C5121 1.463 . S
C5124 N5128 1.427 . S
C5125 H5115 0.929 . S
C5125 C5123 1.433 . S
C5125 N5128 1.384 1_545 S
C5126 H5117 0.929 . S
C5126 C5118 1.378 . S
C5126 C5121 1.350 . S
C5127 H5114 0.929 . S
C5127 C5119 1.433 . S
C5127 N5129 1.384 . S
N5128 C5124 1.427 . S
N5128 C5125 1.384 1_565 S
N5129 C5121 1.427 . S
N5129 C5127 1.384 . S
H5130 C5136 0.930 . S
H5131 C5140 0.930 . S
H5132 C5145 0.929 . S
H5133 C5143 0.929 . S
H5134 C5138 0.929 . S
H5135 C5144 0.929 . S
C5136 H5130 0.930 . S
C5136 C5137 1.367 . S
C5136 C5144 1.378 . S
C5137 C5136 1.367 . S
C5137 C5145 1.433 . S
C5138 H5134 0.929 . S
C5138 C5140 1.378 . S
C5138 C5142 1.350 . S
C5139 C5142 1.463 . S
C5139 C5144 1.350 . S
C5139 N5147 1.427 . S
C5140 H5131 0.930 . S
C5140 C5138 1.378 . S
C5140 C5141 1.367 . S
C5141 C5140 1.367 . S
C5141 C5143 1.433 . S
C5142 C5138 1.350 . S
C5142 C5139 1.463 . S
C5142 N5146 1.427 . S
C5143 H5133 0.929 . S
C5143 C5141 1.433 . S
C5143 N5146 1.384 . S
C5144 H5135 0.929 . S
C5144 C5136 1.378 . S
C5144 C5139 1.350 . S
C5145 H5132 0.929 . S
C5145 C5137 1.433 . S
C5145 N5147 1.384 . S
N5146 C5142 1.427 . S
N5146 C5143 1.384 . S
N5147 C5139 1.427 . S
N5147 C5145 1.384 . S
H5148 C5154 0.930 . S
H5149 C5158 0.930 . S
H5150 C5163 0.929 . S
H5151 C5161 0.929 . S
H5152 C5156 0.929 . S
H5153 C5162 0.929 . S
C5154 H5148 0.930 . S
C5154 C5155 1.367 . S
C5154 C5162 1.378 . S
C5155 C5154 1.367 . S
C5155 C5163 1.433 . S
C5156 H5152 0.929 . S
C5156 C5158 1.378 1_545 S
C5156 C5160 1.350 . S
C5157 C5160 1.463 . S
C5157 C5162 1.350 . S
C5157 N5165 1.427 . S
C5158 H5149 0.930 . S
C5158 C5156 1.378 1_565 S
C5158 C5159 1.367 . S
C5159 C5158 1.367 . S
C5159 C5161 1.433 . S
C5160 C5156 1.350 . S
C5160 C5157 1.463 . S
C5160 N5164 1.427 1_545 S
C5161 H5151 0.929 . S
C5161 C5159 1.433 . S
C5161 N5164 1.384 . S
C5162 H5153 0.929 . S
C5162 C5154 1.378 . S
C5162 C5157 1.350 . S
C5163 H5150 0.929 . S
C5163 C5155 1.433 . S
C5163 N5165 1.384 . S
N5164 C5160 1.427 1_565 S
N5164 C5161 1.384 . S
N5165 C5157 1.427 . S
N5165 C5163 1.384 . S
H5166 C5172 0.930 . S
H5167 C5176 0.930 . S
H5168 C5181 0.929 . S
H5169 C5179 0.929 . S
H5170 C5174 0.929 . S
H5171 C5180 0.929 . S
C5172 H5166 0.930 . S
C5172 C5173 1.367 . S
C5172 C5180 1.378 . S
C5173 C5172 1.367 . S
C5173 C5181 1.433 . S
C5174 H5170 0.929 . S
C5174 C5176 1.378 . S
C5174 C5178 1.350 . S
C5175 C5178 1.463 . S
C5175 C5180 1.350 . S
C5175 N5183 1.427 . S
C5176 H5167 0.930 . S
C5176 C5174 1.378 . S
C5176 C5177 1.367 . S
C5177 C5176 1.367 . S
C5177 C5179 1.433 . S
C5178 C5174 1.350 . S
C5178 C5175 1.463 . S
C5178 N5182 1.427 . S
C5179 H5169 0.929 . S
C5179 C5177 1.433 . S
C5179 N5182 1.384 . S
C5180 H5171 0.929 . S
C5180 C5172 1.378 . S
C5180 C5175 1.350 . S
C5181 H5168 0.929 . S
C5181 C5173 1.433 . S
C5181 N5183 1.384 . S
N5182 C5178 1.427 . S
N5182 C5179 1.384 . S
N5183 C5175 1.427 . S
N5183 C5181 1.384 . S
H5184 C5190 0.930 . S
H5185 C5194 0.930 . S
H5186 C5199 0.929 . S
H5187 C5197 0.929 . S
H5188 C5192 0.929 . S
H5189 C5198 0.929 . S
C5190 H5184 0.930 . S
C5190 C5191 1.367 . S
C5190 C5198 1.378 . S
C5191 C5190 1.367 . S
C5191 C5199 1.433 . S
C5192 H5188 0.929 . S
C5192 C5194 1.378 1_554 S
C5192 C5196 1.350 . S
C5193 C5196 1.463 . S
C5193 C5198 1.350 . S
C5193 N5201 1.427 . S
C5194 H5185 0.930 . S
C5194 C5192 1.378 1_556 S
C5194 C5195 1.367 . S
C5195 C5194 1.367 . S
C5195 C5197 1.433 . S
C5196 C5192 1.350 . S
C5196 C5193 1.463 . S
C5196 N5200 1.427 1_554 S
C5197 H5187 0.929 . S
C5197 C5195 1.433 . S
C5197 N5200 1.384 . S
C5198 H5189 0.929 . S
C5198 C5190 1.378 . S
C5198 C5193 1.350 . S
C5199 H5186 0.929 . S
C5199 C5191 1.433 . S
C5199 N5201 1.384 . S
N5200 C5196 1.427 1_556 S
N5200 C5197 1.384 . S
N5201 C5193 1.427 . S
N5201 C5199 1.384 . S
H5202 C5208 0.930 . S
H5203 C5212 0.930 . S
H5204 C5217 0.929 . S
H5205 C5215 0.929 . S
H5206 C5210 0.929 . S
H5207 C5216 0.929 . S
C5208 H5202 0.930 . S
C5208 C5209 1.367 . S
C5208 C5216 1.378 . S
C5209 C5208 1.367 . S
C5209 C5217 1.433 . S
C5210 H5206 0.929 . S
C5210 C5212 1.378 1_556 S
C5210 C5214 1.350 . S
C5211 C5214 1.463 . S
C5211 C5216 1.350 . S
C5211 N5219 1.427 . S
C5212 H5203 0.930 . S
C5212 C5210 1.378 1_554 S
C5212 C5213 1.367 . S
C5213 C5212 1.367 . S
C5213 C5215 1.433 . S
C5214 C5210 1.350 . S
C5214 C5211 1.463 . S
C5214 N5218 1.427 1_556 S
C5215 H5205 0.929 . S
C5215 C5213 1.433 . S
C5215 N5218 1.384 . S
C5216 H5207 0.929 . S
C5216 C5208 1.378 . S
C5216 C5211 1.350 . S
C5217 H5204 0.929 . S
C5217 C5209 1.433 . S
C5217 N5219 1.384 . S
N5218 C5214 1.427 1_554 S
N5218 C5215 1.384 . S
N5219 C5211 1.427 . S
N5219 C5217 1.384 . S
H5220 C5226 0.930 . S
H5221 C5230 0.930 . S
H5222 C5235 0.929 . S
H5223 C5233 0.929 . S
H5224 C5228 0.929 . S
H5225 C5234 0.929 . S
C5226 H5220 0.930 . S
C5226 C5227 1.367 . S
C5226 C5234 1.378 . S
C5227 C5226 1.367 . S
C5227 C5235 1.433 . S
C5228 H5224 0.929 . S
C5228 C5230 1.378 . S
C5228 C5232 1.350 . S
C5229 C5232 1.463 . S
C5229 C5234 1.350 . S
C5229 N5237 1.427 . S
C5230 H5221 0.930 . S
C5230 C5228 1.378 . S
C5230 C5231 1.367 . S
C5231 C5230 1.367 . S
C5231 C5233 1.433 . S
C5232 C5228 1.350 . S
C5232 C5229 1.463 . S
C5232 N5236 1.427 . S
C5233 H5223 0.929 . S
C5233 C5231 1.433 . S
C5233 N5236 1.384 . S
C5234 H5225 0.929 . S
C5234 C5226 1.378 . S
C5234 C5229 1.350 . S
C5235 H5222 0.929 . S
C5235 C5227 1.433 . S
C5235 N5237 1.384 . S
N5236 C5232 1.427 . S
N5236 C5233 1.384 . S
N5237 C5229 1.427 . S
N5237 C5235 1.384 . S
H5238 C5244 0.930 . S
H5239 C5248 0.930 . S
H5240 C5253 0.929 . S
H5241 C5251 0.929 . S
H5242 C5246 0.929 . S
H5243 C5252 0.929 . S
C5244 H5238 0.930 . S
C5244 C5245 1.367 . S
C5244 C5252 1.378 . S
C5245 C5244 1.367 . S
C5245 C5253 1.433 . S
C5246 H5242 0.929 . S
C5246 C5248 1.378 . S
C5246 C5250 1.350 . S
C5247 C5250 1.463 . S
C5247 C5252 1.350 . S
C5247 N5255 1.427 . S
C5248 H5239 0.930 . S
C5248 C5246 1.378 . S
C5248 C5249 1.367 . S
C5249 C5248 1.367 . S
C5249 C5251 1.433 . S
C5250 C5246 1.350 . S
C5250 C5247 1.463 . S
C5250 N5254 1.427 . S
C5251 H5241 0.929 . S
C5251 C5249 1.433 . S
C5251 N5254 1.384 . S
C5252 H5243 0.929 . S
C5252 C5244 1.378 . S
C5252 C5247 1.350 . S
C5253 H5240 0.929 . S
C5253 C5245 1.433 . S
C5253 N5255 1.384 . S
N5254 C5250 1.427 . S
N5254 C5251 1.384 . S
N5255 C5247 1.427 . S
N5255 C5253 1.384 . S
H5256 C5262 0.930 . S
H5257 C5266 0.930 . S
H5258 C5271 0.929 . S
H5259 C5269 0.929 . S
H5260 C5264 0.929 . S
H5261 C5270 0.929 . S
C5262 H5256 0.930 . S
C5262 C5263 1.367 . S
C5262 C5270 1.378 . S
C5263 C5262 1.367 . S
C5263 C5271 1.433 . S
C5264 H5260 0.929 . S
C5264 C5266 1.378 . S
C5264 C5268 1.350 . S
C5265 C5268 1.463 . S
C5265 C5270 1.350 . S
C5265 N5273 1.427 . S
C5266 H5257 0.930 . S
C5266 C5264 1.378 . S
C5266 C5267 1.367 . S
C5267 C5266 1.367 . S
C5267 C5269 1.433 . S
C5268 C5264 1.350 . S
C5268 C5265 1.463 . S
C5268 N5272 1.427 . S
C5269 H5259 0.929 . S
C5269 C5267 1.433 . S
C5269 N5272 1.384 . S
C5270 H5261 0.929 . S
C5270 C5262 1.378 . S
C5270 C5265 1.350 . S
C5271 H5258 0.929 . S
C5271 C5263 1.433 . S
C5271 N5273 1.384 . S
N5272 C5268 1.427 . S
N5272 C5269 1.384 . S
N5273 C5265 1.427 . S
N5273 C5271 1.384 . S
H5274 C5280 0.930 . S
H5275 C5284 0.930 . S
H5276 C5289 0.929 . S
H5277 C5287 0.929 . S
H5278 C5282 0.929 . S
H5279 C5288 0.929 . S
C5280 H5274 0.930 . S
C5280 C5281 1.367 . S
C5280 C5288 1.378 . S
C5281 C5280 1.367 . S
C5281 C5289 1.433 . S
C5282 H5278 0.929 . S
C5282 C5284 1.378 . S
C5282 C5286 1.350 . S
C5283 C5286 1.463 . S
C5283 C5288 1.350 . S
C5283 N5291 1.427 . S
C5284 H5275 0.930 . S
C5284 C5282 1.378 . S
C5284 C5285 1.367 . S
C5285 C5284 1.367 . S
C5285 C5287 1.433 . S
C5286 C5282 1.350 . S
C5286 C5283 1.463 . S
C5286 N5290 1.427 . S
C5287 H5277 0.929 . S
C5287 C5285 1.433 . S
C5287 N5290 1.384 . S
C5288 H5279 0.929 . S
C5288 C5280 1.378 . S
C5288 C5283 1.350 . S
C5289 H5276 0.929 . S
C5289 C5281 1.433 . S
C5289 N5291 1.384 . S
N5290 C5286 1.427 . S
N5290 C5287 1.384 . S
N5291 C5283 1.427 . S
N5291 C5289 1.384 . S
H5292 C5298 0.930 . S
H5293 C5302 0.930 . S
H5294 C5307 0.929 . S
H5295 C5305 0.929 . S
H5296 C5300 0.929 . S
H5297 C5306 0.929 . S
C5298 H5292 0.930 . S
C5298 C5299 1.367 . S
C5298 C5306 1.378 . S
C5299 C5298 1.367 . S
C5299 C5307 1.433 . S
C5300 H5296 0.929 . S
C5300 C5302 1.378 . S
C5300 C5304 1.350 . S
C5301 C5304 1.463 . S
C5301 C5306 1.350 . S
C5301 N5309 1.427 . S
C5302 H5293 0.930 . S
C5302 C5300 1.378 . S
C5302 C5303 1.367 . S
C5303 C5302 1.367 . S
C5303 C5305 1.433 . S
C5304 C5300 1.350 . S
C5304 C5301 1.463 . S
C5304 N5308 1.427 . S
C5305 H5295 0.929 . S
C5305 C5303 1.433 . S
C5305 N5308 1.384 . S
C5306 H5297 0.929 . S
C5306 C5298 1.378 . S
C5306 C5301 1.350 . S
C5307 H5294 0.929 . S
C5307 C5299 1.433 . S
C5307 N5309 1.384 . S
N5308 C5304 1.427 . S
N5308 C5305 1.384 . S
N5309 C5301 1.427 . S
N5309 C5307 1.384 . S
H5310 C5316 0.930 . S
H5311 C5320 0.930 . S
H5312 C5325 0.929 . S
H5313 C5323 0.929 . S
H5314 C5318 0.929 . S
H5315 C5324 0.929 . S
C5316 H5310 0.930 . S
C5316 C5317 1.367 . S
C5316 C5324 1.378 . S
C5317 C5316 1.367 . S
C5317 C5325 1.433 . S
C5318 H5314 0.929 . S
C5318 C5320 1.378 . S
C5318 C5322 1.350 . S
C5319 C5322 1.463 . S
C5319 C5324 1.350 . S
C5319 N5327 1.427 . S
C5320 H5311 0.930 . S
C5320 C5318 1.378 . S
C5320 C5321 1.367 . S
C5321 C5320 1.367 . S
C5321 C5323 1.433 . S
C5322 C5318 1.350 . S
C5322 C5319 1.463 . S
C5322 N5326 1.427 . S
C5323 H5313 0.929 . S
C5323 C5321 1.433 . S
C5323 N5326 1.384 . S
C5324 H5315 0.929 . S
C5324 C5316 1.378 . S
C5324 C5319 1.350 . S
C5325 H5312 0.929 . S
C5325 C5317 1.433 . S
C5325 N5327 1.384 . S
N5326 C5322 1.427 . S
N5326 C5323 1.384 . S
N5327 C5319 1.427 . S
N5327 C5325 1.384 . S
H5328 C5334 0.930 . S
H5329 C5338 0.930 . S
H5330 C5343 0.929 . S
H5331 C5341 0.929 . S
H5332 C5336 0.929 . S
H5333 C5342 0.929 . S
C5334 H5328 0.930 . S
C5334 C5335 1.367 . S
C5334 C5342 1.378 . S
C5335 C5334 1.367 . S
C5335 C5343 1.433 . S
C5336 H5332 0.929 . S
C5336 C5338 1.378 . S
C5336 C5340 1.350 1_455 S
C5337 C5340 1.463 . S
C5337 C5342 1.350 . S
C5337 N5345 1.427 . S
C5338 H5329 0.930 . S
C5338 C5336 1.378 . S
C5338 C5339 1.367 . S
C5339 C5338 1.367 . S
C5339 C5341 1.433 . S
C5340 C5336 1.350 1_655 S
C5340 C5337 1.463 . S
C5340 N5344 1.427 . S
C5341 H5331 0.929 . S
C5341 C5339 1.433 . S
C5341 N5344 1.384 1_455 S
C5342 H5333 0.929 . S
C5342 C5334 1.378 . S
C5342 C5337 1.350 . S
C5343 H5330 0.929 . S
C5343 C5335 1.433 . S
C5343 N5345 1.384 . S
N5344 C5340 1.427 . S
N5344 C5341 1.384 1_655 S
N5345 C5337 1.427 . S
N5345 C5343 1.384 . S
H5346 C5352 0.930 . S
H5347 C5356 0.930 . S
H5348 C5361 0.929 . S
H5349 C5359 0.929 . S
H5350 C5354 0.929 . S
H5351 C5360 0.929 . S
C5352 H5346 0.930 . S
C5352 C5353 1.367 . S
C5352 C5360 1.378 . S
C5353 C5352 1.367 . S
C5353 C5361 1.433 . S
C5354 H5350 0.929 . S
C5354 C5356 1.378 . S
C5354 C5358 1.350 . S
C5355 C5358 1.463 . S
C5355 C5360 1.350 . S
C5355 N5363 1.427 . S
C5356 H5347 0.930 . S
C5356 C5354 1.378 . S
C5356 C5357 1.367 . S
C5357 C5356 1.367 . S
C5357 C5359 1.433 . S
C5358 C5354 1.350 . S
C5358 C5355 1.463 . S
C5358 N5362 1.427 . S
C5359 H5349 0.929 . S
C5359 C5357 1.433 . S
C5359 N5362 1.384 . S
C5360 H5351 0.929 . S
C5360 C5352 1.378 . S
C5360 C5355 1.350 . S
C5361 H5348 0.929 . S
C5361 C5353 1.433 . S
C5361 N5363 1.384 . S
N5362 C5358 1.427 . S
N5362 C5359 1.384 . S
N5363 C5355 1.427 . S
N5363 C5361 1.384 . S
H5364 C5370 0.930 . S
H5365 C5374 0.930 . S
H5366 C5379 0.929 . S
H5367 C5377 0.929 . S
H5368 C5372 0.929 . S
H5369 C5378 0.929 . S
C5370 H5364 0.930 . S
C5370 C5371 1.367 . S
C5370 C5378 1.378 . S
C5371 C5370 1.367 . S
C5371 C5379 1.433 . S
C5372 H5368 0.929 . S
C5372 C5374 1.378 . S
C5372 C5376 1.350 . S
C5373 C5376 1.463 . S
C5373 C5378 1.350 . S
C5373 N5381 1.427 . S
C5374 H5365 0.930 . S
C5374 C5372 1.378 . S
C5374 C5375 1.367 . S
C5375 C5374 1.367 . S
C5375 C5377 1.433 . S
C5376 C5372 1.350 . S
C5376 C5373 1.463 . S
C5376 N5380 1.427 . S
C5377 H5367 0.929 . S
C5377 C5375 1.433 . S
C5377 N5380 1.384 . S
C5378 H5369 0.929 . S
C5378 C5370 1.378 . S
C5378 C5373 1.350 . S
C5379 H5366 0.929 . S
C5379 C5371 1.433 . S
C5379 N5381 1.384 . S
N5380 C5376 1.427 . S
N5380 C5377 1.384 . S
N5381 C5373 1.427 . S
N5381 C5379 1.384 . S
H5382 C5388 0.930 . S
H5383 C5392 0.930 . S
H5384 C5397 0.929 . S
H5385 C5395 0.929 . S
H5386 C5390 0.929 . S
H5387 C5396 0.929 . S
C5388 H5382 0.930 . S
C5388 C5389 1.367 . S
C5388 C5396 1.378 . S
C5389 C5388 1.367 . S
C5389 C5397 1.433 . S
C5390 H5386 0.929 . S
C5390 C5392 1.378 . S
C5390 C5394 1.350 . S
C5391 C5394 1.463 . S
C5391 C5396 1.350 . S
C5391 N5399 1.427 . S
C5392 H5383 0.930 . S
C5392 C5390 1.378 . S
C5392 C5393 1.367 . S
C5393 C5392 1.367 . S
C5393 C5395 1.433 . S
C5394 C5390 1.350 . S
C5394 C5391 1.463 . S
C5394 N5398 1.427 . S
C5395 H5385 0.929 . S
C5395 C5393 1.433 . S
C5395 N5398 1.384 . S
C5396 H5387 0.929 . S
C5396 C5388 1.378 . S
C5396 C5391 1.350 . S
C5397 H5384 0.929 . S
C5397 C5389 1.433 . S
C5397 N5399 1.384 . S
N5398 C5394 1.427 . S
N5398 C5395 1.384 . S
N5399 C5391 1.427 . S
N5399 C5397 1.384 . S
H5400 C5406 0.930 . S
H5401 C5410 0.930 . S
H5402 C5415 0.929 . S
H5403 C5413 0.929 . S
H5404 C5408 0.880 1_655 S
H5405 C5414 0.929 . S
C5406 H5400 0.930 . S
C5406 C5407 1.367 . S
C5406 C5414 1.378 . S
C5407 C5406 1.367 . S
C5407 C5415 1.433 . S
C5408 H5404 0.880 1_455 S
C5408 C5410 1.486 . S
C5408 C5412 1.289 1_455 S
C5409 C5412 1.463 . S
C5409 C5414 1.350 . S
C5409 N5417 1.427 . S
C5410 H5401 0.930 . S
C5410 C5408 1.486 . S
C5410 C5411 1.367 . S
C5411 C5410 1.367 . S
C5411 C5413 1.433 . S
C5412 C5408 1.289 1_655 S
C5412 C5409 1.463 . S
C5412 N5416 1.470 . S
C5413 H5403 0.929 . S
C5413 C5411 1.433 . S
C5413 N5416 1.275 1_455 S
C5414 H5405 0.929 . S
C5414 C5406 1.378 . S
C5414 C5409 1.350 . S
C5415 H5402 0.929 . S
C5415 C5407 1.433 . S
C5415 N5417 1.384 . S
N5416 C5412 1.470 . S
N5416 C5413 1.275 1_655 S
N5417 C5409 1.427 . S
N5417 C5415 1.384 . S
H5418 C5424 0.930 . S
H5419 C5428 0.930 . S
H5420 C5433 0.929 . S
H5421 C5431 0.929 . S
H5422 C5426 0.929 . S
H5423 C5432 0.929 . S
C5424 H5418 0.930 . S
C5424 C5425 1.367 . S
C5424 C5432 1.378 . S
C5425 C5424 1.367 . S
C5425 C5433 1.433 . S
C5426 H5422 0.929 . S
C5426 C5428 1.378 . S
C5426 C5430 1.350 . S
C5427 C5430 1.463 . S
C5427 C5432 1.350 . S
C5427 N5435 1.427 . S
C5428 H5419 0.930 . S
C5428 C5426 1.378 . S
C5428 C5429 1.367 . S
C5429 C5428 1.367 . S
C5429 C5431 1.433 . S
C5430 C5426 1.350 . S
C5430 C5427 1.463 . S
C5430 N5434 1.427 . S
C5431 H5421 0.929 . S
C5431 C5429 1.433 . S
C5431 N5434 1.384 . S
C5432 H5423 0.929 . S
C5432 C5424 1.378 . S
C5432 C5427 1.350 . S
C5433 H5420 0.929 . S
C5433 C5425 1.433 . S
C5433 N5435 1.384 . S
N5434 C5430 1.427 . S
N5434 C5431 1.384 . S
N5435 C5427 1.427 . S
N5435 C5433 1.384 . S
H5436 C5442 0.930 . S
H5437 C5446 0.930 . S
H5438 C5451 0.929 . S
H5439 C5449 0.929 . S
H5440 C5444 0.929 . S
H5441 C5450 0.929 . S
C5442 H5436 0.930 . S
C5442 C5443 1.367 . S
C5442 C5450 1.378 . S
C5443 C5442 1.367 . S
C5443 C5451 1.433 . S
C5444 H5440 0.929 . S
C5444 C5446 1.378 . S
C5444 C5448 1.350 . S
C5445 C5448 1.463 . S
C5445 C5450 1.350 . S
C5445 N5453 1.427 . S
C5446 H5437 0.930 . S
C5446 C5444 1.378 . S
C5446 C5447 1.367 . S
C5447 C5446 1.367 . S
C5447 C5449 1.433 . S
C5448 C5444 1.350 . S
C5448 C5445 1.463 . S
C5448 N5452 1.427 . S
C5449 H5439 0.929 . S
C5449 C5447 1.433 . S
C5449 N5452 1.384 . S
C5450 H5441 0.929 . S
C5450 C5442 1.378 . S
C5450 C5445 1.350 . S
C5451 H5438 0.929 . S
C5451 C5443 1.433 . S
C5451 N5453 1.384 . S
N5452 C5448 1.427 . S
N5452 C5449 1.384 . S
N5453 C5445 1.427 . S
N5453 C5451 1.384 . S
H5454 C5460 0.930 . S
H5455 C5464 0.930 . S
H5456 C5469 0.929 . S
H5457 C5467 0.929 . S
H5458 C5462 0.929 . S
H5459 C5468 0.929 . S
C5460 H5454 0.930 . S
C5460 C5461 1.367 . S
C5460 C5468 1.378 . S
C5461 C5460 1.367 . S
C5461 C5469 1.433 . S
C5462 H5458 0.929 . S
C5462 C5464 1.378 . S
C5462 C5466 1.350 . S
C5463 C5466 1.463 . S
C5463 C5468 1.350 . S
C5463 N5471 1.427 . S
C5464 H5455 0.930 . S
C5464 C5462 1.378 . S
C5464 C5465 1.367 . S
C5465 C5464 1.367 . S
C5465 C5467 1.433 . S
C5466 C5462 1.350 . S
C5466 C5463 1.463 . S
C5466 N5470 1.427 . S
C5467 H5457 0.929 . S
C5467 C5465 1.433 . S
C5467 N5470 1.384 . S
C5468 H5459 0.929 . S
C5468 C5460 1.378 . S
C5468 C5463 1.350 . S
C5469 H5456 0.929 . S
C5469 C5461 1.433 . S
C5469 N5471 1.384 . S
N5470 C5466 1.427 . S
N5470 C5467 1.384 . S
N5471 C5463 1.427 . S
N5471 C5469 1.384 . S
H5472 C5478 0.930 . S
H5473 C5482 0.930 . S
H5474 C5487 0.929 . S
H5475 C5485 0.929 . S
H5476 C5480 0.929 . S
H5477 C5486 0.929 . S
C5478 H5472 0.930 . S
C5478 C5479 1.367 . S
C5478 C5486 1.378 . S
C5479 C5478 1.367 . S
C5479 C5487 1.433 . S
C5480 H5476 0.929 . S
C5480 C5482 1.378 1_565 S
C5480 C5484 1.350 . S
C5481 C5484 1.463 . S
C5481 C5486 1.350 . S
C5481 N5489 1.427 . S
C5482 H5473 0.930 . S
C5482 C5480 1.378 1_545 S
C5482 C5483 1.367 . S
C5483 C5482 1.367 . S
C5483 C5485 1.433 . S
C5484 C5480 1.350 . S
C5484 C5481 1.463 . S
C5484 N5488 1.427 1_565 S
C5485 H5475 0.929 . S
C5485 C5483 1.433 . S
C5485 N5488 1.384 . S
C5486 H5477 0.929 . S
C5486 C5478 1.378 . S
C5486 C5481 1.350 . S
C5487 H5474 0.929 . S
C5487 C5479 1.433 . S
C5487 N5489 1.384 . S
N5488 C5484 1.427 1_545 S
N5488 C5485 1.384 . S
N5489 C5481 1.427 . S
N5489 C5487 1.384 . S
H5490 C5496 0.930 . S
H5491 C5500 0.930 . S
H5492 C5505 0.929 . S
H5493 C5503 0.929 . S
H5494 C5498 0.929 . S
H5495 C5504 0.929 . S
C5496 H5490 0.930 . S
C5496 C5497 1.367 . S
C5496 C5504 1.378 . S
C5497 C5496 1.367 . S
C5497 C5505 1.433 . S
C5498 H5494 0.929 . S
C5498 C5500 1.378 . S
C5498 C5502 1.350 . S
C5499 C5502 1.463 . S
C5499 C5504 1.350 . S
C5499 N5507 1.427 . S
C5500 H5491 0.930 . S
C5500 C5498 1.378 . S
C5500 C5501 1.367 . S
C5501 C5500 1.367 . S
C5501 C5503 1.433 . S
C5502 C5498 1.350 . S
C5502 C5499 1.463 . S
C5502 N5506 1.427 . S
C5503 H5493 0.929 . S
C5503 C5501 1.433 . S
C5503 N5506 1.384 . S
C5504 H5495 0.929 . S
C5504 C5496 1.378 . S
C5504 C5499 1.350 . S
C5505 H5492 0.929 . S
C5505 C5497 1.433 . S
C5505 N5507 1.384 . S
N5506 C5502 1.427 . S
N5506 C5503 1.384 . S
N5507 C5499 1.427 . S
N5507 C5505 1.384 . S
H5508 C5514 0.930 . S
H5509 C5518 0.930 . S
H5510 C5523 0.929 . S
H5511 C5521 0.929 . S
H5512 C5516 0.929 . S
H5513 C5522 0.929 . S
C5514 H5508 0.930 . S
C5514 C5515 1.367 . S
C5514 C5522 1.378 . S
C5515 C5514 1.367 . S
C5515 C5523 1.433 . S
C5516 H5512 0.929 . S
C5516 C5518 1.378 . S
C5516 C5520 1.350 1_565 S
C5517 C5520 1.463 . S
C5517 C5522 1.350 . S
C5517 N5525 1.427 . S
C5518 H5509 0.930 . S
C5518 C5516 1.378 . S
C5518 C5519 1.367 . S
C5519 C5518 1.367 . S
C5519 C5521 1.433 . S
C5520 C5516 1.350 1_545 S
C5520 C5517 1.463 . S
C5520 N5524 1.427 . S
C5521 H5511 0.929 . S
C5521 C5519 1.433 . S
C5521 N5524 1.384 1_565 S
C5522 H5513 0.929 . S
C5522 C5514 1.378 . S
C5522 C5517 1.350 . S
C5523 H5510 0.929 . S
C5523 C5515 1.433 . S
C5523 N5525 1.384 . S
N5524 C5520 1.427 . S
N5524 C5521 1.384 1_545 S
N5525 C5517 1.427 . S
N5525 C5523 1.384 . S
H5526 C5532 0.930 . S
H5527 C5536 0.930 . S
H5528 C5541 0.929 . S
H5529 C5539 0.929 . S
H5530 C5534 0.929 . S
H5531 C5540 0.929 . S
C5532 H5526 0.930 . S
C5532 C5533 1.367 . S
C5532 C5540 1.378 . S
C5533 C5532 1.367 . S
C5533 C5541 1.433 . S
C5534 H5530 0.929 . S
C5534 C5536 1.378 . S
C5534 C5538 1.350 . S
C5535 C5538 1.463 . S
C5535 C5540 1.350 . S
C5535 N5543 1.427 . S
C5536 H5527 0.930 . S
C5536 C5534 1.378 . S
C5536 C5537 1.367 . S
C5537 C5536 1.367 . S
C5537 C5539 1.433 . S
C5538 C5534 1.350 . S
C5538 C5535 1.463 . S
C5538 N5542 1.427 . S
C5539 H5529 0.929 . S
C5539 C5537 1.433 . S
C5539 N5542 1.384 . S
C5540 H5531 0.929 . S
C5540 C5532 1.378 . S
C5540 C5535 1.350 . S
C5541 H5528 0.929 . S
C5541 C5533 1.433 . S
C5541 N5543 1.384 . S
N5542 C5538 1.427 . S
N5542 C5539 1.384 . S
N5543 C5535 1.427 . S
N5543 C5541 1.384 . S
H5544 C5550 0.930 . S
H5545 C5554 0.930 . S
H5546 C5559 0.929 . S
H5547 C5557 0.929 . S
H5548 C5552 0.929 . S
H5549 C5558 0.929 . S
C5550 H5544 0.930 . S
C5550 C5551 1.367 . S
C5550 C5558 1.378 . S
C5551 C5550 1.367 . S
C5551 C5559 1.433 . S
C5552 H5548 0.929 . S
C5552 C5554 1.378 1_545 S
C5552 C5556 1.350 . S
C5553 C5556 1.463 . S
C5553 C5558 1.350 . S
C5553 N5561 1.427 . S
C5554 H5545 0.930 . S
C5554 C5552 1.378 1_565 S
C5554 C5555 1.367 . S
C5555 C5554 1.367 . S
C5555 C5557 1.433 . S
C5556 C5552 1.350 . S
C5556 C5553 1.463 . S
C5556 N5560 1.427 1_545 S
C5557 H5547 0.929 . S
C5557 C5555 1.433 . S
C5557 N5560 1.384 . S
C5558 H5549 0.929 . S
C5558 C5550 1.378 . S
C5558 C5553 1.350 . S
C5559 H5546 0.929 . S
C5559 C5551 1.433 . S
C5559 N5561 1.384 . S
N5560 C5556 1.427 1_565 S
N5560 C5557 1.384 . S
N5561 C5553 1.427 . S
N5561 C5559 1.384 . S
H5562 C5568 0.930 . S
H5563 C5572 0.930 . S
H5564 C5577 0.929 . S
H5565 C5575 0.929 . S
H5566 C5570 0.929 . S
H5567 C5576 0.929 . S
C5568 H5562 0.930 . S
C5568 C5569 1.367 . S
C5568 C5576 1.378 . S
C5569 C5568 1.367 . S
C5569 C5577 1.433 . S
C5570 H5566 0.929 . S
C5570 C5572 1.378 . S
C5570 C5574 1.350 . S
C5571 C5574 1.463 . S
C5571 C5576 1.350 . S
C5571 N5579 1.427 . S
C5572 H5563 0.930 . S
C5572 C5570 1.378 . S
C5572 C5573 1.367 . S
C5573 C5572 1.367 . S
C5573 C5575 1.433 . S
C5574 C5570 1.350 . S
C5574 C5571 1.463 . S
C5574 N5578 1.427 . S
C5575 H5565 0.929 . S
C5575 C5573 1.433 . S
C5575 N5578 1.384 . S
C5576 H5567 0.929 . S
C5576 C5568 1.378 . S
C5576 C5571 1.350 . S
C5577 H5564 0.929 . S
C5577 C5569 1.433 . S
C5577 N5579 1.384 . S
N5578 C5574 1.427 . S
N5578 C5575 1.384 . S
N5579 C5571 1.427 . S
N5579 C5577 1.384 . S
H5580 C5586 0.930 . S
H5581 C5590 0.930 . S
H5582 C5595 0.929 . S
H5583 C5593 0.929 . S
H5584 C5588 0.929 . S
H5585 C5594 0.929 . S
C5586 H5580 0.930 . S
C5586 C5587 1.367 . S
C5586 C5594 1.378 . S
C5587 C5586 1.367 . S
C5587 C5595 1.433 . S
C5588 H5584 0.929 . S
C5588 C5590 1.378 1_565 S
C5588 C5592 1.350 . S
C5589 C5592 1.463 . S
C5589 C5594 1.350 . S
C5589 N5597 1.427 . S
C5590 H5581 0.930 . S
C5590 C5588 1.378 1_545 S
C5590 C5591 1.367 . S
C5591 C5590 1.367 . S
C5591 C5593 1.433 . S
C5592 C5588 1.350 . S
C5592 C5589 1.463 . S
C5592 N5596 1.427 1_565 S
C5593 H5583 0.929 . S
C5593 C5591 1.433 . S
C5593 N5596 1.384 . S
C5594 H5585 0.929 . S
C5594 C5586 1.378 . S
C5594 C5589 1.350 . S
C5595 H5582 0.929 . S
C5595 C5587 1.433 . S
C5595 N5597 1.384 . S
N5596 C5592 1.427 1_545 S
N5596 C5593 1.384 . S
N5597 C5589 1.427 . S
N5597 C5595 1.384 . S
H5598 C5604 0.930 . S
H5599 C5608 0.930 . S
H5600 C5613 0.929 . S
H5601 C5611 0.929 . S
H5602 C5606 0.929 . S
H5603 C5612 0.929 . S
C5604 H5598 0.930 . S
C5604 C5605 1.367 . S
C5604 C5612 1.378 . S
C5605 C5604 1.367 . S
C5605 C5613 1.433 . S
C5606 H5602 0.929 . S
C5606 C5608 1.378 . S
C5606 C5610 1.350 . S
C5607 C5610 1.463 . S
C5607 C5612 1.350 . S
C5607 N5615 1.427 . S
C5608 H5599 0.930 . S
C5608 C5606 1.378 . S
C5608 C5609 1.367 . S
C5609 C5608 1.367 . S
C5609 C5611 1.433 . S
C5610 C5606 1.350 . S
C5610 C5607 1.463 . S
C5610 N5614 1.427 . S
C5611 H5601 0.929 . S
C5611 C5609 1.433 . S
C5611 N5614 1.384 . S
C5612 H5603 0.929 . S
C5612 C5604 1.378 . S
C5612 C5607 1.350 . S
C5613 H5600 0.929 . S
C5613 C5605 1.433 . S
C5613 N5615 1.384 . S
N5614 C5610 1.427 . S
N5614 C5611 1.384 . S
N5615 C5607 1.427 . S
N5615 C5613 1.384 . S
H5616 C5622 0.930 . S
H5617 C5626 0.930 . S
H5618 C5631 0.929 . S
H5619 C5629 0.929 . S
H5620 C5624 0.929 . S
H5621 C5630 0.929 . S
C5622 H5616 0.930 . S
C5622 C5623 1.367 . S
C5622 C5630 1.378 . S
C5623 C5622 1.367 . S
C5623 C5631 1.433 . S
C5624 H5620 0.929 . S
C5624 C5626 1.378 1_556 S
C5624 C5628 1.350 . S
C5625 C5628 1.463 . S
C5625 C5630 1.350 . S
C5625 N5633 1.427 . S
C5626 H5617 0.930 . S
C5626 C5624 1.378 1_554 S
C5626 C5627 1.367 . S
C5627 C5626 1.367 . S
C5627 C5629 1.433 . S
C5628 C5624 1.350 . S
C5628 C5625 1.463 . S
C5628 N5632 1.427 1_556 S
C5629 H5619 0.929 . S
C5629 C5627 1.433 . S
C5629 N5632 1.384 . S
C5630 H5621 0.929 . S
C5630 C5622 1.378 . S
C5630 C5625 1.350 . S
C5631 H5618 0.929 . S
C5631 C5623 1.433 . S
C5631 N5633 1.384 . S
N5632 C5628 1.427 1_554 S
N5632 C5629 1.384 . S
N5633 C5625 1.427 . S
N5633 C5631 1.384 . S
H5634 C5640 0.930 . S
H5635 C5644 0.930 . S
H5636 C5649 0.929 . S
H5637 C5647 0.929 . S
H5638 C5642 0.929 . S
H5639 C5648 0.929 . S
C5640 H5634 0.930 . S
C5640 C5641 1.367 . S
C5640 C5648 1.378 . S
C5641 C5640 1.367 . S
C5641 C5649 1.433 . S
C5642 H5638 0.929 . S
C5642 C5644 1.378 . S
C5642 C5646 1.350 1_556 S
C5643 C5646 1.463 . S
C5643 C5648 1.350 . S
C5643 N5651 1.427 . S
C5644 H5635 0.930 . S
C5644 C5642 1.378 . S
C5644 C5645 1.367 . S
C5645 C5644 1.367 . S
C5645 C5647 1.433 . S
C5646 C5642 1.350 1_554 S
C5646 C5643 1.463 . S
C5646 N5650 1.427 . S
C5647 H5637 0.929 . S
C5647 C5645 1.433 . S
C5647 N5650 1.384 1_556 S
C5648 H5639 0.929 . S
C5648 C5640 1.378 . S
C5648 C5643 1.350 . S
C5649 H5636 0.929 . S
C5649 C5641 1.433 . S
C5649 N5651 1.384 . S
N5650 C5646 1.427 . S
N5650 C5647 1.384 1_554 S
N5651 C5643 1.427 . S
N5651 C5649 1.384 . S
H5652 C5658 0.930 . S
H5653 C5662 0.930 . S
H5654 C5667 0.929 . S
H5655 C5665 0.929 . S
H5656 C5660 0.929 . S
H5657 C5666 0.929 . S
C5658 H5652 0.930 . S
C5658 C5659 1.367 . S
C5658 C5666 1.378 . S
C5659 C5658 1.367 . S
C5659 C5667 1.433 . S
C5660 H5656 0.929 . S
C5660 C5662 1.378 . S
C5660 C5664 1.350 . S
C5661 C5664 1.463 . S
C5661 C5666 1.350 . S
C5661 N5669 1.427 . S
C5662 H5653 0.930 . S
C5662 C5660 1.378 . S
C5662 C5663 1.367 . S
C5663 C5662 1.367 . S
C5663 C5665 1.433 . S
C5664 C5660 1.350 . S
C5664 C5661 1.463 . S
C5664 N5668 1.427 . S
C5665 H5655 0.929 . S
C5665 C5663 1.433 . S
C5665 N5668 1.384 . S
C5666 H5657 0.929 . S
C5666 C5658 1.378 . S
C5666 C5661 1.350 . S
C5667 H5654 0.929 . S
C5667 C5659 1.433 . S
C5667 N5669 1.384 . S
N5668 C5664 1.427 . S
N5668 C5665 1.384 . S
N5669 C5661 1.427 . S
N5669 C5667 1.384 . S
H5670 C5676 0.930 . S
H5671 C5680 0.930 . S
H5672 C5685 0.929 . S
H5673 C5683 0.929 . S
H5674 C5678 0.929 . S
H5675 C5684 0.929 . S
C5676 H5670 0.930 . S
C5676 C5677 1.367 . S
C5676 C5684 1.378 . S
C5677 C5676 1.367 . S
C5677 C5685 1.433 . S
C5678 H5674 0.929 . S
C5678 C5680 1.378 . S
C5678 C5682 1.350 . S
C5679 C5682 1.463 . S
C5679 C5684 1.350 . S
C5679 N5687 1.427 . S
C5680 H5671 0.930 . S
C5680 C5678 1.378 . S
C5680 C5681 1.367 . S
C5681 C5680 1.367 . S
C5681 C5683 1.433 . S
C5682 C5678 1.350 . S
C5682 C5679 1.463 . S
C5682 N5686 1.427 . S
C5683 H5673 0.929 . S
C5683 C5681 1.433 . S
C5683 N5686 1.384 . S
C5684 H5675 0.929 . S
C5684 C5676 1.378 . S
C5684 C5679 1.350 . S
C5685 H5672 0.929 . S
C5685 C5677 1.433 . S
C5685 N5687 1.384 . S
N5686 C5682 1.427 . S
N5686 C5683 1.384 . S
N5687 C5679 1.427 . S
N5687 C5685 1.384 . S
H5688 C5694 0.930 . S
H5689 C5698 0.930 . S
H5690 C5703 0.929 . S
H5691 C5701 0.929 . S
H5692 C5696 0.929 . S
H5693 C5702 0.929 . S
C5694 H5688 0.930 . S
C5694 C5695 1.367 . S
C5694 C5702 1.378 . S
C5695 C5694 1.367 . S
C5695 C5703 1.433 . S
C5696 H5692 0.929 . S
C5696 C5698 1.378 . S
C5696 C5700 1.350 . S
C5697 C5700 1.463 . S
C5697 C5702 1.350 . S
C5697 N5705 1.427 . S
C5698 H5689 0.930 . S
C5698 C5696 1.378 . S
C5698 C5699 1.367 . S
C5699 C5698 1.367 . S
C5699 C5701 1.433 . S
C5700 C5696 1.350 . S
C5700 C5697 1.463 . S
C5700 N5704 1.427 . S
C5701 H5691 0.929 . S
C5701 C5699 1.433 . S
C5701 N5704 1.384 . S
C5702 H5693 0.929 . S
C5702 C5694 1.378 . S
C5702 C5697 1.350 . S
C5703 H5690 0.929 . S
C5703 C5695 1.433 . S
C5703 N5705 1.384 . S
N5704 C5700 1.427 . S
N5704 C5701 1.384 . S
N5705 C5697 1.427 . S
N5705 C5703 1.384 . S
H5706 C5712 0.930 . S
H5707 C5716 0.930 . S
H5708 C5721 0.929 . S
H5709 C5719 0.929 . S
H5710 C5714 0.929 . S
H5711 C5720 0.929 . S
C5712 H5706 0.930 . S
C5712 C5713 1.367 . S
C5712 C5720 1.378 . S
C5713 C5712 1.367 . S
C5713 C5721 1.433 . S
C5714 H5710 0.929 . S
C5714 C5716 1.378 . S
C5714 C5718 1.350 . S
C5715 C5718 1.463 . S
C5715 C5720 1.350 . S
C5715 N5723 1.427 . S
C5716 H5707 0.930 . S
C5716 C5714 1.378 . S
C5716 C5717 1.367 . S
C5717 C5716 1.367 . S
C5717 C5719 1.433 . S
C5718 C5714 1.350 . S
C5718 C5715 1.463 . S
C5718 N5722 1.427 . S
C5719 H5709 0.929 . S
C5719 C5717 1.433 . S
C5719 N5722 1.384 . S
C5720 H5711 0.929 . S
C5720 C5712 1.378 . S
C5720 C5715 1.350 . S
C5721 H5708 0.929 . S
C5721 C5713 1.433 . S
C5721 N5723 1.384 . S
N5722 C5718 1.427 . S
N5722 C5719 1.384 . S
N5723 C5715 1.427 . S
N5723 C5721 1.384 . S
H5724 C5730 0.930 . S
H5725 C5734 0.930 . S
H5726 C5739 0.929 . S
H5727 C5737 0.929 . S
H5728 C5732 0.929 . S
H5729 C5738 0.929 . S
C5730 H5724 0.930 . S
C5730 C5731 1.367 . S
C5730 C5738 1.378 . S
C5731 C5730 1.367 . S
C5731 C5739 1.433 . S
C5732 H5728 0.929 . S
C5732 C5734 1.378 . S
C5732 C5736 1.350 . S
C5733 C5736 1.463 . S
C5733 C5738 1.350 . S
C5733 N5741 1.427 . S
C5734 H5725 0.930 . S
C5734 C5732 1.378 . S
C5734 C5735 1.367 . S
C5735 C5734 1.367 . S
C5735 C5737 1.433 . S
C5736 C5732 1.350 . S
C5736 C5733 1.463 . S
C5736 N5740 1.427 . S
C5737 H5727 0.929 . S
C5737 C5735 1.433 . S
C5737 N5740 1.384 . S
C5738 H5729 0.929 . S
C5738 C5730 1.378 . S
C5738 C5733 1.350 . S
C5739 H5726 0.929 . S
C5739 C5731 1.433 . S
C5739 N5741 1.384 . S
N5740 C5736 1.427 . S
N5740 C5737 1.384 . S
N5741 C5733 1.427 . S
N5741 C5739 1.384 . S
H5742 C5748 0.930 . S
H5743 C5752 0.930 . S
H5744 C5757 0.929 . S
H5745 C5755 0.929 . S
H5746 C5750 0.929 . S
H5747 C5756 0.929 . S
C5748 H5742 0.930 . S
C5748 C5749 1.367 . S
C5748 C5756 1.378 . S
C5749 C5748 1.367 . S
C5749 C5757 1.433 . S
C5750 H5746 0.929 . S
C5750 C5752 1.378 . S
C5750 C5754 1.350 . S
C5751 C5754 1.463 . S
C5751 C5756 1.350 . S
C5751 N5759 1.427 . S
C5752 H5743 0.930 . S
C5752 C5750 1.378 . S
C5752 C5753 1.367 . S
C5753 C5752 1.367 . S
C5753 C5755 1.433 . S
C5754 C5750 1.350 . S
C5754 C5751 1.463 . S
C5754 N5758 1.427 . S
C5755 H5745 0.929 . S
C5755 C5753 1.433 . S
C5755 N5758 1.384 . S
C5756 H5747 0.929 . S
C5756 C5748 1.378 . S
C5756 C5751 1.350 . S
C5757 H5744 0.929 . S
C5757 C5749 1.433 . S
C5757 N5759 1.384 . S
N5758 C5754 1.427 . S
N5758 C5755 1.384 . S
N5759 C5751 1.427 . S
N5759 C5757 1.384 . S
H5760 C5766 0.930 . S
H5761 C5770 0.930 . S
H5762 C5775 0.929 . S
H5763 C5773 0.929 . S
H5764 C5768 0.929 . S
H5765 C5774 0.929 . S
C5766 H5760 0.930 . S
C5766 C5767 1.367 . S
C5766 C5774 1.378 . S
C5767 C5766 1.367 . S
C5767 C5775 1.433 . S
C5768 H5764 0.929 . S
C5768 C5770 1.378 . S
C5768 C5772 1.350 . S
C5769 C5772 1.463 . S
C5769 C5774 1.350 . S
C5769 N5777 1.427 . S
C5770 H5761 0.930 . S
C5770 C5768 1.378 . S
C5770 C5771 1.367 . S
C5771 C5770 1.367 . S
C5771 C5773 1.433 . S
C5772 C5768 1.350 . S
C5772 C5769 1.463 . S
C5772 N5776 1.427 . S
C5773 H5763 0.929 . S
C5773 C5771 1.433 . S
C5773 N5776 1.384 . S
C5774 H5765 0.929 . S
C5774 C5766 1.378 . S
C5774 C5769 1.350 . S
C5775 H5762 0.929 . S
C5775 C5767 1.433 . S
C5775 N5777 1.384 . S
N5776 C5772 1.427 . S
N5776 C5773 1.384 . S
N5777 C5769 1.427 . S
N5777 C5775 1.384 . S
H5778 C5784 0.930 . S
H5779 C5788 0.930 . S
H5780 C5793 0.929 . S
H5781 C5791 0.929 . S
H5782 C5786 0.929 . S
H5783 C5792 0.929 . S
C5784 H5778 0.930 . S
C5784 C5785 1.367 . S
C5784 C5792 1.378 . S
C5785 C5784 1.367 . S
C5785 C5793 1.433 . S
C5786 H5782 0.929 . S
C5786 C5788 1.378 . S
C5786 C5790 1.350 . S
C5787 C5790 1.463 . S
C5787 C5792 1.350 . S
C5787 N5795 1.427 . S
C5788 H5779 0.930 . S
C5788 C5786 1.378 . S
C5788 C5789 1.367 . S
C5789 C5788 1.367 . S
C5789 C5791 1.433 . S
C5790 C5786 1.350 . S
C5790 C5787 1.463 . S
C5790 N5794 1.427 . S
C5791 H5781 0.929 . S
C5791 C5789 1.433 . S
C5791 N5794 1.384 . S
C5792 H5783 0.929 . S
C5792 C5784 1.378 . S
C5792 C5787 1.350 . S
C5793 H5780 0.929 . S
C5793 C5785 1.433 . S
C5793 N5795 1.384 . S
N5794 C5790 1.427 . S
N5794 C5791 1.384 . S
N5795 C5787 1.427 . S
N5795 C5793 1.384 . S
H5796 C5802 0.930 . S
H5797 C5806 0.930 . S
H5798 C5811 0.929 . S
H5799 C5809 0.929 . S
H5800 C5804 0.929 . S
H5801 C5810 0.929 . S
C5802 H5796 0.930 . S
C5802 C5803 1.367 . S
C5802 C5810 1.378 . S
C5803 C5802 1.367 . S
C5803 C5811 1.433 . S
C5804 H5800 0.929 . S
C5804 C5806 1.378 1_655 S
C5804 C5808 1.350 . S
C5805 C5808 1.463 . S
C5805 C5810 1.350 . S
C5805 N5813 1.427 . S
C5806 H5797 0.930 . S
C5806 C5804 1.378 1_455 S
C5806 C5807 1.367 . S
C5807 C5806 1.367 . S
C5807 C5809 1.433 . S
C5808 C5804 1.350 . S
C5808 C5805 1.463 . S
C5808 N5812 1.427 1_655 S
C5809 H5799 0.929 . S
C5809 C5807 1.433 . S
C5809 N5812 1.384 . S
C5810 H5801 0.929 . S
C5810 C5802 1.378 . S
C5810 C5805 1.350 . S
C5811 H5798 0.929 . S
C5811 C5803 1.433 . S
C5811 N5813 1.384 . S
N5812 C5808 1.427 1_455 S
N5812 C5809 1.384 . S
N5813 C5805 1.427 . S
N5813 C5811 1.384 . S
H5814 C5820 0.930 . S
H5815 C5824 0.930 . S
H5816 C5829 0.929 . S
H5817 C5827 0.929 . S
H5818 C5822 0.929 . S
H5819 C5828 0.929 . S
C5820 H5814 0.930 . S
C5820 C5821 1.367 . S
C5820 C5828 1.378 . S
C5821 C5820 1.367 . S
C5821 C5829 1.433 . S
C5822 H5818 0.929 . S
C5822 C5824 1.378 . S
C5822 C5826 1.350 . S
C5823 C5826 1.463 . S
C5823 C5828 1.350 . S
C5823 N5831 1.427 . S
C5824 H5815 0.930 . S
C5824 C5822 1.378 . S
C5824 C5825 1.367 . S
C5825 C5824 1.367 . S
C5825 C5827 1.433 . S
C5826 C5822 1.350 . S
C5826 C5823 1.463 . S
C5826 N5830 1.427 . S
C5827 H5817 0.929 . S
C5827 C5825 1.433 . S
C5827 N5830 1.384 . S
C5828 H5819 0.929 . S
C5828 C5820 1.378 . S
C5828 C5823 1.350 . S
C5829 H5816 0.929 . S
C5829 C5821 1.433 . S
C5829 N5831 1.384 . S
N5830 C5826 1.427 . S
N5830 C5827 1.384 . S
N5831 C5823 1.427 . S
N5831 C5829 1.384 . S
H5832 C5838 0.930 . S
H5833 C5842 0.930 . S
H5834 C5847 0.929 . S
H5835 C5845 0.929 . S
H5836 C5840 0.929 . S
H5837 C5846 0.929 . S
C5838 H5832 0.930 . S
C5838 C5839 1.367 . S
C5838 C5846 1.378 . S
C5839 C5838 1.367 . S
C5839 C5847 1.433 . S
C5840 H5836 0.929 . S
C5840 C5842 1.378 . S
C5840 C5844 1.350 . S
C5841 C5844 1.463 . S
C5841 C5846 1.350 . S
C5841 N5849 1.427 . S
C5842 H5833 0.930 . S
C5842 C5840 1.378 . S
C5842 C5843 1.367 . S
C5843 C5842 1.367 . S
C5843 C5845 1.433 . S
C5844 C5840 1.350 . S
C5844 C5841 1.463 . S
C5844 N5848 1.427 . S
C5845 H5835 0.929 . S
C5845 C5843 1.433 . S
C5845 N5848 1.384 . S
C5846 H5837 0.929 . S
C5846 C5838 1.378 . S
C5846 C5841 1.350 . S
C5847 H5834 0.929 . S
C5847 C5839 1.433 . S
C5847 N5849 1.384 . S
N5848 C5844 1.427 . S
N5848 C5845 1.384 . S
N5849 C5841 1.427 . S
N5849 C5847 1.384 . S
H5850 C5856 0.930 . S
H5851 C5860 0.930 . S
H5852 C5865 0.929 . S
H5853 C5863 0.929 . S
H5854 C5858 0.929 . S
H5855 C5864 0.929 . S
C5856 H5850 0.930 . S
C5856 C5857 1.367 . S
C5856 C5864 1.378 . S
C5857 C5856 1.367 . S
C5857 C5865 1.433 . S
C5858 H5854 0.929 . S
C5858 C5860 1.378 . S
C5858 C5862 1.350 . S
C5859 C5862 1.463 . S
C5859 C5864 1.350 . S
C5859 N5867 1.427 . S
C5860 H5851 0.930 . S
C5860 C5858 1.378 . S
C5860 C5861 1.367 . S
C5861 C5860 1.367 . S
C5861 C5863 1.433 . S
C5862 C5858 1.350 . S
C5862 C5859 1.463 . S
C5862 N5866 1.427 . S
C5863 H5853 0.929 . S
C5863 C5861 1.433 . S
C5863 N5866 1.384 . S
C5864 H5855 0.929 . S
C5864 C5856 1.378 . S
C5864 C5859 1.350 . S
C5865 H5852 0.929 . S
C5865 C5857 1.433 . S
C5865 N5867 1.384 . S
N5866 C5862 1.427 . S
N5866 C5863 1.384 . S
N5867 C5859 1.427 . S
N5867 C5865 1.384 . S
H5868 C5874 0.930 . S
H5869 C5878 0.930 . S
H5870 C5883 0.929 . S
H5871 C5881 0.929 . S
H5872 C5876 0.923 1_655 S
H5873 C5882 0.929 . S
C5874 H5868 0.930 . S
C5874 C5875 1.367 . S
C5874 C5882 1.378 . S
C5875 C5874 1.367 . S
C5875 C5883 1.433 . S
C5876 H5872 0.923 1_455 S
C5876 C5878 1.391 . S
C5876 C5880 1.343 1_455 S
C5877 C5880 1.463 . S
C5877 C5882 1.350 . S
C5877 N5885 1.427 . S
C5878 H5869 0.930 . S
C5878 C5876 1.391 . S
C5878 C5879 1.367 . S
C5879 C5878 1.367 . S
C5879 C5881 1.433 . S
C5880 C5876 1.343 1_655 S
C5880 C5877 1.463 . S
C5880 N5884 1.435 . S
C5881 H5871 0.929 . S
C5881 C5879 1.433 . S
C5881 N5884 1.367 1_455 S
C5882 H5873 0.929 . S
C5882 C5874 1.378 . S
C5882 C5877 1.350 . S
C5883 H5870 0.929 . S
C5883 C5875 1.433 . S
C5883 N5885 1.384 . S
N5884 C5880 1.435 . S
N5884 C5881 1.367 1_655 S
N5885 C5877 1.427 . S
N5885 C5883 1.384 . S
H5886 C5892 0.930 . S
H5887 C5896 0.930 . S
H5888 C5901 0.929 . S
H5889 C5899 0.929 . S
H5890 C5894 0.929 . S
H5891 C5900 0.929 . S
C5892 H5886 0.930 . S
C5892 C5893 1.367 . S
C5892 C5900 1.378 . S
C5893 C5892 1.367 . S
C5893 C5901 1.433 . S
C5894 H5890 0.929 . S
C5894 C5896 1.378 . S
C5894 C5898 1.350 . S
C5895 C5898 1.463 . S
C5895 C5900 1.350 . S
C5895 N5903 1.427 . S
C5896 H5887 0.930 . S
C5896 C5894 1.378 . S
C5896 C5897 1.367 . S
C5897 C5896 1.367 . S
C5897 C5899 1.433 . S
C5898 C5894 1.350 . S
C5898 C5895 1.463 . S
C5898 N5902 1.427 . S
C5899 H5889 0.929 . S
C5899 C5897 1.433 . S
C5899 N5902 1.384 . S
C5900 H5891 0.929 . S
C5900 C5892 1.378 . S
C5900 C5895 1.350 . S
C5901 H5888 0.929 . S
C5901 C5893 1.433 . S
C5901 N5903 1.384 . S
N5902 C5898 1.427 . S
N5902 C5899 1.384 . S
N5903 C5895 1.427 . S
N5903 C5901 1.384 . S
H5904 C5910 0.930 . S
H5905 C5914 0.930 . S
H5906 C5919 0.929 . S
H5907 C5917 0.929 . S
H5908 C5912 0.929 . S
H5909 C5918 0.929 . S
C5910 H5904 0.930 . S
C5910 C5911 1.367 . S
C5910 C5918 1.378 . S
C5911 C5910 1.367 . S
C5911 C5919 1.433 . S
C5912 H5908 0.929 . S
C5912 C5914 1.378 . S
C5912 C5916 1.350 . S
C5913 C5916 1.463 . S
C5913 C5918 1.350 . S
C5913 N5921 1.427 . S
C5914 H5905 0.930 . S
C5914 C5912 1.378 . S
C5914 C5915 1.367 . S
C5915 C5914 1.367 . S
C5915 C5917 1.433 . S
C5916 C5912 1.350 . S
C5916 C5913 1.463 . S
C5916 N5920 1.427 . S
C5917 H5907 0.929 . S
C5917 C5915 1.433 . S
C5917 N5920 1.384 . S
C5918 H5909 0.929 . S
C5918 C5910 1.378 . S
C5918 C5913 1.350 . S
C5919 H5906 0.929 . S
C5919 C5911 1.433 . S
C5919 N5921 1.384 . S
N5920 C5916 1.427 . S
N5920 C5917 1.384 . S
N5921 C5913 1.427 . S
N5921 C5919 1.384 . S
H5922 C5928 0.930 . S
H5923 C5932 0.930 . S
H5924 C5937 0.929 . S
H5925 C5935 0.929 . S
H5926 C5930 0.929 . S
H5927 C5936 0.929 . S
C5928 H5922 0.930 . S
C5928 C5929 1.367 . S
C5928 C5936 1.378 . S
C5929 C5928 1.367 . S
C5929 C5937 1.433 . S
C5930 H5926 0.929 . S
C5930 C5932 1.378 . S
C5930 C5934 1.350 . S
C5931 C5934 1.463 . S
C5931 C5936 1.350 . S
C5931 N5939 1.427 . S
C5932 H5923 0.930 . S
C5932 C5930 1.378 . S
C5932 C5933 1.367 . S
C5933 C5932 1.367 . S
C5933 C5935 1.433 . S
C5934 C5930 1.350 . S
C5934 C5931 1.463 . S
C5934 N5938 1.427 . S
C5935 H5925 0.929 . S
C5935 C5933 1.433 . S
C5935 N5938 1.384 . S
C5936 H5927 0.929 . S
C5936 C5928 1.378 . S
C5936 C5931 1.350 . S
C5937 H5924 0.929 . S
C5937 C5929 1.433 . S
C5937 N5939 1.384 . S
N5938 C5934 1.427 . S
N5938 C5935 1.384 . S
N5939 C5931 1.427 . S
N5939 C5937 1.384 . S
H5940 C5946 0.930 . S
H5941 C5950 0.930 . S
H5942 C5955 0.929 . S
H5943 C5953 0.929 . S
H5944 C5948 0.929 . S
H5945 C5954 0.929 . S
C5946 H5940 0.930 . S
C5946 C5947 1.367 . S
C5946 C5954 1.378 . S
C5947 C5946 1.367 . S
C5947 C5955 1.433 . S
C5948 H5944 0.929 . S
C5948 C5950 1.378 . S
C5948 C5952 1.350 . S
C5949 C5952 1.463 . S
C5949 C5954 1.350 . S
C5949 N5957 1.427 . S
C5950 H5941 0.930 . S
C5950 C5948 1.378 . S
C5950 C5951 1.367 . S
C5951 C5950 1.367 . S
C5951 C5953 1.433 . S
C5952 C5948 1.350 . S
C5952 C5949 1.463 . S
C5952 N5956 1.427 . S
C5953 H5943 0.929 . S
C5953 C5951 1.433 . S
C5953 N5956 1.384 . S
C5954 H5945 0.929 . S
C5954 C5946 1.378 . S
C5954 C5949 1.350 . S
C5955 H5942 0.929 . S
C5955 C5947 1.433 . S
C5955 N5957 1.384 . S
N5956 C5952 1.427 . S
N5956 C5953 1.384 . S
N5957 C5949 1.427 . S
N5957 C5955 1.384 . S
H5958 C5964 0.930 . S
H5959 C5968 0.930 . S
H5960 C5973 0.929 . S
H5961 C5971 0.929 . S
H5962 C5966 0.929 . S
H5963 C5972 0.929 . S
C5964 H5958 0.930 . S
C5964 C5965 1.367 . S
C5964 C5972 1.378 . S
C5965 C5964 1.367 . S
C5965 C5973 1.433 . S
C5966 H5962 0.929 . S
C5966 C5968 1.378 . S
C5966 C5970 1.350 . S
C5967 C5970 1.463 . S
C5967 C5972 1.350 . S
C5967 N5975 1.427 . S
C5968 H5959 0.930 . S
C5968 C5966 1.378 . S
C5968 C5969 1.367 . S
C5969 C5968 1.367 . S
C5969 C5971 1.433 . S
C5970 C5966 1.350 . S
C5970 C5967 1.463 . S
C5970 N5974 1.427 . S
C5971 H5961 0.929 . S
C5971 C5969 1.433 . S
C5971 N5974 1.384 . S
C5972 H5963 0.929 . S
C5972 C5964 1.378 . S
C5972 C5967 1.350 . S
C5973 H5960 0.929 . S
C5973 C5965 1.433 . S
C5973 N5975 1.384 . S
N5974 C5970 1.427 . S
N5974 C5971 1.384 . S
N5975 C5967 1.427 . S
N5975 C5973 1.384 . S
H5976 C5982 0.930 . S
H5977 C5986 0.930 . S
H5978 C5991 0.929 . S
H5979 C5989 0.929 . S
H5980 C5984 0.929 . S
H5981 C5990 0.929 . S
C5982 H5976 0.930 . S
C5982 C5983 1.367 . S
C5982 C5990 1.378 . S
C5983 C5982 1.367 . S
C5983 C5991 1.433 . S
C5984 H5980 0.929 . S
C5984 C5986 1.378 . S
C5984 C5988 1.350 . S
C5985 C5988 1.463 . S
C5985 C5990 1.350 . S
C5985 N5993 1.427 . S
C5986 H5977 0.930 . S
C5986 C5984 1.378 . S
C5986 C5987 1.367 . S
C5987 C5986 1.367 . S
C5987 C5989 1.433 . S
C5988 C5984 1.350 . S
C5988 C5985 1.463 . S
C5988 N5992 1.427 . S
C5989 H5979 0.929 . S
C5989 C5987 1.433 . S
C5989 N5992 1.384 . S
C5990 H5981 0.929 . S
C5990 C5982 1.378 . S
C5990 C5985 1.350 . S
C5991 H5978 0.929 . S
C5991 C5983 1.433 . S
C5991 N5993 1.384 . S
N5992 C5988 1.427 . S
N5992 C5989 1.384 . S
N5993 C5985 1.427 . S
N5993 C5991 1.384 . S
H5994 C6000 0.930 . S
H5995 C6004 0.930 . S
H5996 C6009 0.929 . S
H5997 C6007 0.929 . S
H5998 C6002 0.929 . S
H5999 C6008 0.929 . S
C6000 H5994 0.930 . S
C6000 C6001 1.367 . S
C6000 C6008 1.378 . S
C6001 C6000 1.367 . S
C6001 C6009 1.433 . S
C6002 H5998 0.929 . S
C6002 C6004 1.378 . S
C6002 C6006 1.350 . S
C6003 C6006 1.463 . S
C6003 C6008 1.350 . S
C6003 N6011 1.427 . S
C6004 H5995 0.930 . S
C6004 C6002 1.378 . S
C6004 C6005 1.367 . S
C6005 C6004 1.367 . S
C6005 C6007 1.433 . S
C6006 C6002 1.350 . S
C6006 C6003 1.463 . S
C6006 N6010 1.427 . S
C6007 H5997 0.929 . S
C6007 C6005 1.433 . S
C6007 N6010 1.384 . S
C6008 H5999 0.929 . S
C6008 C6000 1.378 . S
C6008 C6003 1.350 . S
C6009 H5996 0.929 . S
C6009 C6001 1.433 . S
C6009 N6011 1.384 . S
N6010 C6006 1.427 . S
N6010 C6007 1.384 . S
N6011 C6003 1.427 . S
N6011 C6009 1.384 . S
H6012 C6018 0.930 . S
H6013 C6022 0.930 . S
H6014 C6027 0.929 . S
H6015 C6025 0.929 . S
H6016 C6020 0.929 . S
H6017 C6026 0.929 . S
C6018 H6012 0.930 . S
C6018 C6019 1.367 . S
C6018 C6026 1.378 . S
C6019 C6018 1.367 . S
C6019 C6027 1.433 . S
C6020 H6016 0.929 . S
C6020 C6022 1.378 . S
C6020 C6024 1.350 . S
C6021 C6024 1.463 . S
C6021 C6026 1.350 . S
C6021 N6029 1.427 . S
C6022 H6013 0.930 . S
C6022 C6020 1.378 . S
C6022 C6023 1.367 . S
C6023 C6022 1.367 . S
C6023 C6025 1.433 . S
C6024 C6020 1.350 . S
C6024 C6021 1.463 . S
C6024 N6028 1.427 . S
C6025 H6015 0.929 . S
C6025 C6023 1.433 . S
C6025 N6028 1.384 . S
C6026 H6017 0.929 . S
C6026 C6018 1.378 . S
C6026 C6021 1.350 . S
C6027 H6014 0.929 . S
C6027 C6019 1.433 . S
C6027 N6029 1.384 . S
N6028 C6024 1.427 . S
N6028 C6025 1.384 . S
N6029 C6021 1.427 . S
N6029 C6027 1.384 . S
H6030 C6036 0.930 . S
H6031 C6040 0.930 . S
H6032 C6045 0.929 . S
H6033 C6043 0.929 . S
H6034 C6038 0.929 . S
H6035 C6044 0.929 . S
C6036 H6030 0.930 . S
C6036 C6037 1.367 . S
C6036 C6044 1.378 . S
C6037 C6036 1.367 . S
C6037 C6045 1.433 . S
C6038 H6034 0.929 . S
C6038 C6040 1.378 . S
C6038 C6042 1.350 . S
C6039 C6042 1.463 . S
C6039 C6044 1.350 . S
C6039 N6047 1.427 . S
C6040 H6031 0.930 . S
C6040 C6038 1.378 . S
C6040 C6041 1.367 . S
C6041 C6040 1.367 . S
C6041 C6043 1.433 . S
C6042 C6038 1.350 . S
C6042 C6039 1.463 . S
C6042 N6046 1.427 . S
C6043 H6033 0.929 . S
C6043 C6041 1.433 . S
C6043 N6046 1.384 . S
C6044 H6035 0.929 . S
C6044 C6036 1.378 . S
C6044 C6039 1.350 . S
C6045 H6032 0.929 . S
C6045 C6037 1.433 . S
C6045 N6047 1.384 . S
N6046 C6042 1.427 . S
N6046 C6043 1.384 . S
N6047 C6039 1.427 . S
N6047 C6045 1.384 . S
H6048 C6054 0.930 . S
H6049 C6058 0.930 . S
H6050 C6063 0.929 . S
H6051 C6061 0.929 . S
H6052 C6056 0.929 . S
H6053 C6062 0.929 . S
C6054 H6048 0.930 . S
C6054 C6055 1.367 . S
C6054 C6062 1.378 . S
C6055 C6054 1.367 . S
C6055 C6063 1.433 . S
C6056 H6052 0.929 . S
C6056 C6058 1.378 . S
C6056 C6060 1.350 . S
C6057 C6060 1.463 . S
C6057 C6062 1.350 . S
C6057 N6065 1.427 . S
C6058 H6049 0.930 . S
C6058 C6056 1.378 . S
C6058 C6059 1.367 . S
C6059 C6058 1.367 . S
C6059 C6061 1.433 . S
C6060 C6056 1.350 . S
C6060 C6057 1.463 . S
C6060 N6064 1.427 . S
C6061 H6051 0.929 . S
C6061 C6059 1.433 . S
C6061 N6064 1.384 . S
C6062 H6053 0.929 . S
C6062 C6054 1.378 . S
C6062 C6057 1.350 . S
C6063 H6050 0.929 . S
C6063 C6055 1.433 . S
C6063 N6065 1.384 . S
N6064 C6060 1.427 . S
N6064 C6061 1.384 . S
N6065 C6057 1.427 . S
N6065 C6063 1.384 . S
H6066 C6072 0.930 . S
H6067 C6076 0.930 . S
H6068 C6081 0.929 . S
H6069 C6079 0.929 . S
H6070 C6074 0.929 . S
H6071 C6080 0.929 . S
C6072 H6066 0.930 . S
C6072 C6073 1.367 . S
C6072 C6080 1.378 . S
C6073 C6072 1.367 . S
C6073 C6081 1.433 . S
C6074 H6070 0.929 . S
C6074 C6076 1.378 . S
C6074 C6078 1.350 . S
C6075 C6078 1.463 . S
C6075 C6080 1.350 . S
C6075 N6083 1.427 . S
C6076 H6067 0.930 . S
C6076 C6074 1.378 . S
C6076 C6077 1.367 . S
C6077 C6076 1.367 . S
C6077 C6079 1.433 . S
C6078 C6074 1.350 . S
C6078 C6075 1.463 . S
C6078 N6082 1.427 . S
C6079 H6069 0.929 . S
C6079 C6077 1.433 . S
C6079 N6082 1.384 . S
C6080 H6071 0.929 . S
C6080 C6072 1.378 . S
C6080 C6075 1.350 . S
C6081 H6068 0.929 . S
C6081 C6073 1.433 . S
C6081 N6083 1.384 . S
N6082 C6078 1.427 . S
N6082 C6079 1.384 . S
N6083 C6075 1.427 . S
N6083 C6081 1.384 . S
H6084 C6090 0.930 . S
H6085 C6094 0.930 . S
H6086 C6099 0.929 . S
H6087 C6097 0.929 . S
H6088 C6092 0.929 . S
H6089 C6098 0.929 . S
C6090 H6084 0.930 . S
C6090 C6091 1.367 . S
C6090 C6098 1.378 . S
C6091 C6090 1.367 . S
C6091 C6099 1.433 . S
C6092 H6088 0.929 . S
C6092 C6094 1.378 . S
C6092 C6096 1.350 . S
C6093 C6096 1.463 . S
C6093 C6098 1.350 . S
C6093 N6101 1.427 . S
C6094 H6085 0.930 . S
C6094 C6092 1.378 . S
C6094 C6095 1.367 . S
C6095 C6094 1.367 . S
C6095 C6097 1.433 . S
C6096 C6092 1.350 . S
C6096 C6093 1.463 . S
C6096 N6100 1.427 . S
C6097 H6087 0.929 . S
C6097 C6095 1.433 . S
C6097 N6100 1.384 . S
C6098 H6089 0.929 . S
C6098 C6090 1.378 . S
C6098 C6093 1.350 . S
C6099 H6086 0.929 . S
C6099 C6091 1.433 . S
C6099 N6101 1.384 . S
N6100 C6096 1.427 . S
N6100 C6097 1.384 . S
N6101 C6093 1.427 . S
N6101 C6099 1.384 . S
H6102 C6108 0.930 . S
H6103 C6112 0.930 . S
H6104 C6117 0.929 . S
H6105 C6115 0.929 . S
H6106 C6110 0.929 . S
H6107 C6116 0.929 . S
C6108 H6102 0.930 . S
C6108 C6109 1.367 . S
C6108 C6116 1.378 . S
C6109 C6108 1.367 . S
C6109 C6117 1.433 . S
C6110 H6106 0.929 . S
C6110 C6112 1.378 . S
C6110 C6114 1.350 1_554 S
C6111 C6114 1.463 . S
C6111 C6116 1.350 . S
C6111 N6119 1.427 . S
C6112 H6103 0.930 . S
C6112 C6110 1.378 . S
C6112 C6113 1.367 . S
C6113 C6112 1.367 . S
C6113 C6115 1.433 . S
C6114 C6110 1.350 1_556 S
C6114 C6111 1.463 . S
C6114 N6118 1.427 . S
C6115 H6105 0.929 . S
C6115 C6113 1.433 . S
C6115 N6118 1.384 1_554 S
C6116 H6107 0.929 . S
C6116 C6108 1.378 . S
C6116 C6111 1.350 . S
C6117 H6104 0.929 . S
C6117 C6109 1.433 . S
C6117 N6119 1.384 . S
N6118 C6114 1.427 . S
N6118 C6115 1.384 1_556 S
N6119 C6111 1.427 . S
N6119 C6117 1.384 . S
H6120 C6126 0.930 . S
H6121 C6130 0.930 . S
H6122 C6135 0.929 . S
H6123 C6133 0.929 . S
H6124 C6128 0.929 . S
H6125 C6134 0.929 . S
C6126 H6120 0.930 . S
C6126 C6127 1.367 . S
C6126 C6134 1.378 . S
C6127 C6126 1.367 . S
C6127 C6135 1.433 . S
C6128 H6124 0.929 . S
C6128 C6130 1.378 . S
C6128 C6132 1.350 . S
C6129 C6132 1.463 . S
C6129 C6134 1.350 . S
C6129 N6137 1.427 . S
C6130 H6121 0.930 . S
C6130 C6128 1.378 . S
C6130 C6131 1.367 . S
C6131 C6130 1.367 . S
C6131 C6133 1.433 . S
C6132 C6128 1.350 . S
C6132 C6129 1.463 . S
C6132 N6136 1.427 . S
C6133 H6123 0.929 . S
C6133 C6131 1.433 . S
C6133 N6136 1.384 . S
C6134 H6125 0.929 . S
C6134 C6126 1.378 . S
C6134 C6129 1.350 . S
C6135 H6122 0.929 . S
C6135 C6127 1.433 . S
C6135 N6137 1.384 . S
N6136 C6132 1.427 . S
N6136 C6133 1.384 . S
N6137 C6129 1.427 . S
N6137 C6135 1.384 . S
H6138 C6144 0.930 . S
H6139 C6148 0.930 . S
H6140 C6153 0.929 . S
H6141 C6151 0.929 . S
H6142 C6146 0.950 . S
H6143 C6152 0.929 . S
C6144 H6138 0.930 . S
C6144 C6145 1.367 . S
C6144 C6152 1.378 . S
C6145 C6144 1.367 . S
C6145 C6153 1.433 . S
C6146 H6142 0.950 . S
C6146 C6148 1.378 . S
C6146 C6150 1.350 1_556 S
C6147 C6150 1.463 . S
C6147 C6152 1.350 . S
C6147 N6155 1.427 . S
C6148 H6139 0.930 . S
C6148 C6146 1.378 . S
C6148 C6149 1.367 . S
C6149 C6148 1.367 . S
C6149 C6151 1.433 . S
C6150 C6146 1.350 1_554 S
C6150 C6147 1.463 . S
C6150 N6154 1.427 . S
C6151 H6141 0.929 . S
C6151 C6149 1.433 . S
C6151 N6154 1.384 1_556 S
C6152 H6143 0.929 . S
C6152 C6144 1.378 . S
C6152 C6147 1.350 . S
C6153 H6140 0.929 . S
C6153 C6145 1.433 . S
C6153 N6155 1.384 . S
N6154 C6150 1.427 . S
N6154 C6151 1.384 1_554 S
N6155 C6147 1.427 . S
N6155 C6153 1.384 . S
H6156 C6162 0.930 . S
H6157 C6166 0.930 . S
H6158 C6171 0.929 . S
H6159 C6169 0.929 . S
H6160 C6164 0.929 . S
H6161 C6170 0.929 . S
C6162 H6156 0.930 . S
C6162 C6163 1.367 . S
C6162 C6170 1.378 . S
C6163 C6162 1.367 . S
C6163 C6171 1.433 . S
C6164 H6160 0.929 . S
C6164 C6166 1.378 . S
C6164 C6168 1.350 . S
C6165 C6168 1.463 . S
C6165 C6170 1.350 . S
C6165 N6173 1.427 . S
C6166 H6157 0.930 . S
C6166 C6164 1.378 . S
C6166 C6167 1.367 . S
C6167 C6166 1.367 . S
C6167 C6169 1.433 . S
C6168 C6164 1.350 . S
C6168 C6165 1.463 . S
C6168 N6172 1.427 . S
C6169 H6159 0.929 . S
C6169 C6167 1.433 . S
C6169 N6172 1.384 . S
C6170 H6161 0.929 . S
C6170 C6162 1.378 . S
C6170 C6165 1.350 . S
C6171 H6158 0.929 . S
C6171 C6163 1.433 . S
C6171 N6173 1.384 . S
N6172 C6168 1.427 . S
N6172 C6169 1.384 . S
N6173 C6165 1.427 . S
N6173 C6171 1.384 . S
H6174 C6180 0.930 . S
H6175 C6184 0.930 . S
H6176 C6189 0.929 . S
H6177 C6187 0.929 . S
H6178 C6182 0.929 . S
H6179 C6188 0.929 . S
C6180 H6174 0.930 . S
C6180 C6181 1.367 . S
C6180 C6188 1.378 . S
C6181 C6180 1.367 . S
C6181 C6189 1.433 . S
C6182 H6178 0.929 . S
C6182 C6184 1.378 . S
C6182 C6186 1.350 . S
C6183 C6186 1.463 . S
C6183 C6188 1.350 . S
C6183 N6191 1.427 . S
C6184 H6175 0.930 . S
C6184 C6182 1.378 . S
C6184 C6185 1.367 . S
C6185 C6184 1.367 . S
C6185 C6187 1.433 . S
C6186 C6182 1.350 . S
C6186 C6183 1.463 . S
C6186 N6190 1.427 . S
C6187 H6177 0.929 . S
C6187 C6185 1.433 . S
C6187 N6190 1.384 . S
C6188 H6179 0.929 . S
C6188 C6180 1.378 . S
C6188 C6183 1.350 . S
C6189 H6176 0.929 . S
C6189 C6181 1.433 . S
C6189 N6191 1.384 . S
N6190 C6186 1.427 . S
N6190 C6187 1.384 . S
N6191 C6183 1.427 . S
N6191 C6189 1.384 . S
H6192 C6198 0.930 . S
H6193 C6202 0.930 . S
H6194 C6207 0.929 . S
H6195 C6205 0.929 . S
H6196 C6200 0.929 . S
H6197 C6206 0.929 . S
C6198 H6192 0.930 . S
C6198 C6199 1.367 . S
C6198 C6206 1.378 . S
C6199 C6198 1.367 . S
C6199 C6207 1.433 . S
C6200 H6196 0.929 . S
C6200 C6202 1.378 . S
C6200 C6204 1.350 . S
C6201 C6204 1.463 . S
C6201 C6206 1.350 . S
C6201 N6209 1.427 . S
C6202 H6193 0.930 . S
C6202 C6200 1.378 . S
C6202 C6203 1.367 . S
C6203 C6202 1.367 . S
C6203 C6205 1.433 . S
C6204 C6200 1.350 . S
C6204 C6201 1.463 . S
C6204 N6208 1.427 . S
C6205 H6195 0.929 . S
C6205 C6203 1.433 . S
C6205 N6208 1.384 . S
C6206 H6197 0.929 . S
C6206 C6198 1.378 . S
C6206 C6201 1.350 . S
C6207 H6194 0.929 . S
C6207 C6199 1.433 . S
C6207 N6209 1.384 . S
N6208 C6204 1.427 . S
N6208 C6205 1.384 . S
N6209 C6201 1.427 . S
N6209 C6207 1.384 . S
H6210 C6216 0.930 . S
H6211 C6220 0.930 . S
H6212 C6225 0.929 . S
H6213 C6223 0.929 . S
H6214 C6218 0.929 . S
H6215 C6224 0.929 . S
C6216 H6210 0.930 . S
C6216 C6217 1.367 . S
C6216 C6224 1.378 . S
C6217 C6216 1.367 . S
C6217 C6225 1.433 . S
C6218 H6214 0.929 . S
C6218 C6220 1.378 . S
C6218 C6222 1.350 . S
C6219 C6222 1.463 . S
C6219 C6224 1.350 . S
C6219 N6227 1.427 . S
C6220 H6211 0.930 . S
C6220 C6218 1.378 . S
C6220 C6221 1.367 . S
C6221 C6220 1.367 . S
C6221 C6223 1.433 . S
C6222 C6218 1.350 . S
C6222 C6219 1.463 . S
C6222 N6226 1.427 . S
C6223 H6213 0.929 . S
C6223 C6221 1.433 . S
C6223 N6226 1.384 . S
C6224 H6215 0.929 . S
C6224 C6216 1.378 . S
C6224 C6219 1.350 . S
C6225 H6212 0.929 . S
C6225 C6217 1.433 . S
C6225 N6227 1.384 . S
N6226 C6222 1.427 . S
N6226 C6223 1.384 . S
N6227 C6219 1.427 . S
N6227 C6225 1.384 . S
H6228 C6234 0.930 . S
H6229 C6238 0.930 . S
H6230 C6243 0.929 . S
H6231 C6241 0.929 . S
H6232 C6236 0.886 1_455 S
H6233 C6242 0.929 . S
C6234 H6228 0.930 . S
C6234 C6235 1.367 . S
C6234 C6242 1.378 . S
C6235 C6234 1.367 . S
C6235 C6243 1.433 . S
C6236 H6232 0.886 1_655 S
C6236 C6238 1.506 . S
C6236 C6240 1.276 1_655 S
C6237 C6240 1.463 . S
C6237 C6242 1.350 . S
C6237 N6245 1.427 . S
C6238 H6229 0.930 . S
C6238 C6236 1.506 . S
C6238 C6239 1.367 . S
C6239 C6238 1.367 . S
C6239 C6241 1.433 . S
C6240 C6236 1.276 1_455 S
C6240 C6237 1.463 . S
C6240 N6244 1.477 . S
C6241 H6231 0.929 . S
C6241 C6239 1.433 . S
C6241 N6244 1.255 1_655 S
C6242 H6233 0.929 . S
C6242 C6234 1.378 . S
C6242 C6237 1.350 . S
C6243 H6230 0.929 . S
C6243 C6235 1.433 . S
C6243 N6245 1.384 . S
N6244 C6240 1.477 . S
N6244 C6241 1.255 1_455 S
N6245 C6237 1.427 . S
N6245 C6243 1.384 . S
H6246 C6252 0.930 . S
H6247 C6256 0.930 . S
H6248 C6261 0.929 . S
H6249 C6259 0.929 . S
H6250 C6254 0.929 . S
H6251 C6260 0.929 . S
C6252 H6246 0.930 . S
C6252 C6253 1.367 . S
C6252 C6260 1.378 . S
C6253 C6252 1.367 . S
C6253 C6261 1.433 . S
C6254 H6250 0.929 . S
C6254 C6256 1.378 . S
C6254 C6258 1.350 . S
C6255 C6258 1.463 . S
C6255 C6260 1.350 . S
C6255 N6263 1.427 . S
C6256 H6247 0.930 . S
C6256 C6254 1.378 . S
C6256 C6257 1.367 . S
C6257 C6256 1.367 . S
C6257 C6259 1.433 . S
C6258 C6254 1.350 . S
C6258 C6255 1.463 . S
C6258 N6262 1.427 . S
C6259 H6249 0.929 . S
C6259 C6257 1.433 . S
C6259 N6262 1.384 . S
C6260 H6251 0.929 . S
C6260 C6252 1.378 . S
C6260 C6255 1.350 . S
C6261 H6248 0.929 . S
C6261 C6253 1.433 . S
C6261 N6263 1.384 . S
N6262 C6258 1.427 . S
N6262 C6259 1.384 . S
N6263 C6255 1.427 . S
N6263 C6261 1.384 . S
H6264 C6270 0.930 . S
H6265 C6274 0.930 . S
H6266 C6279 0.929 . S
H6267 C6277 0.929 . S
H6268 C6272 0.929 . S
H6269 C6278 0.929 . S
C6270 H6264 0.930 . S
C6270 C6271 1.367 . S
C6270 C6278 1.378 . S
C6271 C6270 1.367 . S
C6271 C6279 1.433 . S
C6272 H6268 0.929 . S
C6272 C6274 1.378 . S
C6272 C6276 1.350 . S
C6273 C6276 1.463 . S
C6273 C6278 1.350 . S
C6273 N6281 1.427 . S
C6274 H6265 0.930 . S
C6274 C6272 1.378 . S
C6274 C6275 1.367 . S
C6275 C6274 1.367 . S
C6275 C6277 1.433 . S
C6276 C6272 1.350 . S
C6276 C6273 1.463 . S
C6276 N6280 1.427 . S
C6277 H6267 0.929 . S
C6277 C6275 1.433 . S
C6277 N6280 1.384 . S
C6278 H6269 0.929 . S
C6278 C6270 1.378 . S
C6278 C6273 1.350 . S
C6279 H6266 0.929 . S
C6279 C6271 1.433 . S
C6279 N6281 1.384 . S
N6280 C6276 1.427 . S
N6280 C6277 1.384 . S
N6281 C6273 1.427 . S
N6281 C6279 1.384 . S
H6282 C6288 0.930 . S
H6283 C6292 0.930 . S
H6284 C6297 0.929 . S
H6285 C6295 0.929 . S
H6286 C6290 0.929 . S
H6287 C6296 0.929 . S
C6288 H6282 0.930 . S
C6288 C6289 1.367 . S
C6288 C6296 1.378 . S
C6289 C6288 1.367 . S
C6289 C6297 1.433 . S
C6290 H6286 0.929 . S
C6290 C6292 1.378 . S
C6290 C6294 1.350 . S
C6291 C6294 1.463 . S
C6291 C6296 1.350 . S
C6291 N6299 1.427 . S
C6292 H6283 0.930 . S
C6292 C6290 1.378 . S
C6292 C6293 1.367 . S
C6293 C6292 1.367 . S
C6293 C6295 1.433 . S
C6294 C6290 1.350 . S
C6294 C6291 1.463 . S
C6294 N6298 1.427 . S
C6295 H6285 0.929 . S
C6295 C6293 1.433 . S
C6295 N6298 1.384 . S
C6296 H6287 0.929 . S
C6296 C6288 1.378 . S
C6296 C6291 1.350 . S
C6297 H6284 0.929 . S
C6297 C6289 1.433 . S
C6297 N6299 1.384 . S
N6298 C6294 1.427 . S
N6298 C6295 1.384 . S
N6299 C6291 1.427 . S
N6299 C6297 1.384 . S
H6300 C6306 0.930 . S
H6301 C6310 0.930 . S
H6302 C6315 0.929 . S
H6303 C6313 0.929 . S
H6304 C6308 0.922 1_455 S
H6305 C6314 0.929 . S
C6306 H6300 0.930 . S
C6306 C6307 1.367 . S
C6306 C6314 1.378 . S
C6307 C6306 1.367 . S
C6307 C6315 1.433 . S
C6308 H6304 0.922 1_655 S
C6308 C6310 1.393 . S
C6308 C6312 1.342 1_655 S
C6309 C6312 1.463 . S
C6309 C6314 1.350 . S
C6309 N6317 1.427 . S
C6310 H6301 0.930 . S
C6310 C6308 1.393 . S
C6310 C6311 1.367 . S
C6311 C6310 1.367 . S
C6311 C6313 1.433 . S
C6312 C6308 1.342 1_455 S
C6312 C6309 1.463 . S
C6312 N6316 1.436 . S
C6313 H6303 0.929 . S
C6313 C6311 1.433 . S
C6313 N6316 1.365 1_655 S
C6314 H6305 0.929 . S
C6314 C6306 1.378 . S
C6314 C6309 1.350 . S
C6315 H6302 0.929 . S
C6315 C6307 1.433 . S
C6315 N6317 1.384 . S
N6316 C6312 1.436 . S
N6316 C6313 1.365 1_455 S
N6317 C6309 1.427 . S
N6317 C6315 1.384 . S
H6318 C6324 0.930 . S
H6319 C6328 0.930 . S
H6320 C6333 0.929 . S
H6321 C6331 0.929 . S
H6322 C6326 0.929 . S
H6323 C6332 0.929 . S
C6324 H6318 0.930 . S
C6324 C6325 1.367 . S
C6324 C6332 1.378 . S
C6325 C6324 1.367 . S
C6325 C6333 1.433 . S
C6326 H6322 0.929 . S
C6326 C6328 1.378 . S
C6326 C6330 1.350 . S
C6327 C6330 1.463 . S
C6327 C6332 1.350 . S
C6327 N6335 1.427 . S
C6328 H6319 0.930 . S
C6328 C6326 1.378 . S
C6328 C6329 1.367 . S
C6329 C6328 1.367 . S
C6329 C6331 1.433 . S
C6330 C6326 1.350 . S
C6330 C6327 1.463 . S
C6330 N6334 1.427 . S
C6331 H6321 0.929 . S
C6331 C6329 1.433 . S
C6331 N6334 1.384 . S
C6332 H6323 0.929 . S
C6332 C6324 1.378 . S
C6332 C6327 1.350 . S
C6333 H6320 0.929 . S
C6333 C6325 1.433 . S
C6333 N6335 1.384 . S
N6334 C6330 1.427 . S
N6334 C6331 1.384 . S
N6335 C6327 1.427 . S
N6335 C6333 1.384 . S
H6336 C6342 0.930 . S
H6337 C6346 0.930 . S
H6338 C6351 0.929 . S
H6339 C6349 0.929 . S
H6340 C6344 0.929 . S
H6341 C6350 0.929 . S
C6342 H6336 0.930 . S
C6342 C6343 1.367 . S
C6342 C6350 1.378 . S
C6343 C6342 1.367 . S
C6343 C6351 1.433 . S
C6344 H6340 0.929 . S
C6344 C6346 1.378 . S
C6344 C6348 1.350 . S
C6345 C6348 1.463 . S
C6345 C6350 1.350 . S
C6345 N6353 1.427 . S
C6346 H6337 0.930 . S
C6346 C6344 1.378 . S
C6346 C6347 1.367 . S
C6347 C6346 1.367 . S
C6347 C6349 1.433 . S
C6348 C6344 1.350 . S
C6348 C6345 1.463 . S
C6348 N6352 1.427 . S
C6349 H6339 0.929 . S
C6349 C6347 1.433 . S
C6349 N6352 1.384 . S
C6350 H6341 0.929 . S
C6350 C6342 1.378 . S
C6350 C6345 1.350 . S
C6351 H6338 0.929 . S
C6351 C6343 1.433 . S
C6351 N6353 1.384 . S
N6352 C6348 1.427 . S
N6352 C6349 1.384 . S
N6353 C6345 1.427 . S
N6353 C6351 1.384 . S
H6354 C6360 0.930 . S
H6355 C6364 0.930 . S
H6356 C6369 0.929 . S
H6357 C6367 0.929 . S
H6358 C6362 0.929 . S
H6359 C6368 0.929 . S
C6360 H6354 0.930 . S
C6360 C6361 1.367 . S
C6360 C6368 1.378 . S
C6361 C6360 1.367 . S
C6361 C6369 1.433 . S
C6362 H6358 0.929 . S
C6362 C6364 1.378 . S
C6362 C6366 1.350 . S
C6363 C6366 1.463 . S
C6363 C6368 1.350 . S
C6363 N6371 1.427 . S
C6364 H6355 0.930 . S
C6364 C6362 1.378 . S
C6364 C6365 1.367 . S
C6365 C6364 1.367 . S
C6365 C6367 1.433 . S
C6366 C6362 1.350 . S
C6366 C6363 1.463 . S
C6366 N6370 1.427 . S
C6367 H6357 0.929 . S
C6367 C6365 1.433 . S
C6367 N6370 1.384 . S
C6368 H6359 0.929 . S
C6368 C6360 1.378 . S
C6368 C6363 1.350 . S
C6369 H6356 0.929 . S
C6369 C6361 1.433 . S
C6369 N6371 1.384 . S
N6370 C6366 1.427 . S
N6370 C6367 1.384 . S
N6371 C6363 1.427 . S
N6371 C6369 1.384 . S
H6372 C6378 0.930 . S
H6373 C6382 0.930 . S
H6374 C6387 0.929 . S
H6375 C6385 0.929 . S
H6376 C6380 0.929 . S
H6377 C6386 0.929 . S
C6378 H6372 0.930 . S
C6378 C6379 1.367 . S
C6378 C6386 1.378 . S
C6379 C6378 1.367 . S
C6379 C6387 1.433 . S
C6380 H6376 0.929 . S
C6380 C6382 1.378 . S
C6380 C6384 1.350 . S
C6381 C6384 1.463 . S
C6381 C6386 1.350 . S
C6381 N6389 1.427 . S
C6382 H6373 0.930 . S
C6382 C6380 1.378 . S
C6382 C6383 1.367 . S
C6383 C6382 1.367 . S
C6383 C6385 1.433 . S
C6384 C6380 1.350 . S
C6384 C6381 1.463 . S
C6384 N6388 1.427 . S
C6385 H6375 0.929 . S
C6385 C6383 1.433 . S
C6385 N6388 1.384 . S
C6386 H6377 0.929 . S
C6386 C6378 1.378 . S
C6386 C6381 1.350 . S
C6387 H6374 0.929 . S
C6387 C6379 1.433 . S
C6387 N6389 1.384 . S
N6388 C6384 1.427 . S
N6388 C6385 1.384 . S
N6389 C6381 1.427 . S
N6389 C6387 1.384 . S
H6390 C6396 0.930 . S
H6391 C6400 0.930 . S
H6392 C6405 0.929 . S
H6393 C6403 0.929 . S
H6394 C6398 0.929 . S
H6395 C6404 0.929 . S
C6396 H6390 0.930 . S
C6396 C6397 1.367 . S
C6396 C6404 1.378 . S
C6397 C6396 1.367 . S
C6397 C6405 1.433 . S
C6398 H6394 0.929 . S
C6398 C6400 1.378 . S
C6398 C6402 1.350 . S
C6399 C6402 1.463 . S
C6399 C6404 1.350 . S
C6399 N6407 1.427 . S
C6400 H6391 0.930 . S
C6400 C6398 1.378 . S
C6400 C6401 1.367 . S
C6401 C6400 1.367 . S
C6401 C6403 1.433 . S
C6402 C6398 1.350 . S
C6402 C6399 1.463 . S
C6402 N6406 1.427 . S
C6403 H6393 0.929 . S
C6403 C6401 1.433 . S
C6403 N6406 1.384 . S
C6404 H6395 0.929 . S
C6404 C6396 1.378 . S
C6404 C6399 1.350 . S
C6405 H6392 0.929 . S
C6405 C6397 1.433 . S
C6405 N6407 1.384 . S
N6406 C6402 1.427 . S
N6406 C6403 1.384 . S
N6407 C6399 1.427 . S
N6407 C6405 1.384 . S
H6408 C6414 0.930 . S
H6409 C6418 0.930 . S
H6410 C6423 0.929 . S
H6411 C6421 0.929 . S
H6412 C6416 0.929 . S
H6413 C6422 0.929 . S
C6414 H6408 0.930 . S
C6414 C6415 1.367 . S
C6414 C6422 1.378 . S
C6415 C6414 1.367 . S
C6415 C6423 1.433 . S
C6416 H6412 0.929 . S
C6416 C6418 1.378 . S
C6416 C6420 1.350 . S
C6417 C6420 1.463 . S
C6417 C6422 1.350 . S
C6417 N6425 1.427 . S
C6418 H6409 0.930 . S
C6418 C6416 1.378 . S
C6418 C6419 1.367 . S
C6419 C6418 1.367 . S
C6419 C6421 1.433 . S
C6420 C6416 1.350 . S
C6420 C6417 1.463 . S
C6420 N6424 1.427 . S
C6421 H6411 0.929 . S
C6421 C6419 1.433 . S
C6421 N6424 1.384 . S
C6422 H6413 0.929 . S
C6422 C6414 1.378 . S
C6422 C6417 1.350 . S
C6423 H6410 0.929 . S
C6423 C6415 1.433 . S
C6423 N6425 1.384 . S
N6424 C6420 1.427 . S
N6424 C6421 1.384 . S
N6425 C6417 1.427 . S
N6425 C6423 1.384 . S
H6426 C6432 0.930 . S
H6427 C6436 0.930 . S
H6428 C6441 0.929 . S
H6429 C6439 0.929 . S
H6430 C6434 0.929 . S
H6431 C6440 0.929 . S
C6432 H6426 0.930 . S
C6432 C6433 1.367 . S
C6432 C6440 1.378 . S
C6433 C6432 1.367 . S
C6433 C6441 1.433 . S
C6434 H6430 0.929 . S
C6434 C6436 1.378 . S
C6434 C6438 1.350 . S
C6435 C6438 1.463 . S
C6435 C6440 1.350 . S
C6435 N6443 1.427 . S
C6436 H6427 0.930 . S
C6436 C6434 1.378 . S
C6436 C6437 1.367 . S
C6437 C6436 1.367 . S
C6437 C6439 1.433 . S
C6438 C6434 1.350 . S
C6438 C6435 1.463 . S
C6438 N6442 1.427 . S
C6439 H6429 0.929 . S
C6439 C6437 1.433 . S
C6439 N6442 1.384 . S
C6440 H6431 0.929 . S
C6440 C6432 1.378 . S
C6440 C6435 1.350 . S
C6441 H6428 0.929 . S
C6441 C6433 1.433 . S
C6441 N6443 1.384 . S
N6442 C6438 1.427 . S
N6442 C6439 1.384 . S
N6443 C6435 1.427 . S
N6443 C6441 1.384 . S
H6444 C6450 0.930 . S
H6445 C6454 0.930 . S
H6446 C6459 0.929 . S
H6447 C6457 0.929 . S
H6448 C6452 0.929 . S
H6449 C6458 0.929 . S
C6450 H6444 0.930 . S
C6450 C6451 1.367 . S
C6450 C6458 1.378 . S
C6451 C6450 1.367 . S
C6451 C6459 1.433 . S
C6452 H6448 0.929 . S
C6452 C6454 1.378 . S
C6452 C6456 1.350 . S
C6453 C6456 1.463 . S
C6453 C6458 1.350 . S
C6453 N6461 1.427 . S
C6454 H6445 0.930 . S
C6454 C6452 1.378 . S
C6454 C6455 1.367 . S
C6455 C6454 1.367 . S
C6455 C6457 1.433 . S
C6456 C6452 1.350 . S
C6456 C6453 1.463 . S
C6456 N6460 1.427 . S
C6457 H6447 0.929 . S
C6457 C6455 1.433 . S
C6457 N6460 1.384 . S
C6458 H6449 0.929 . S
C6458 C6450 1.378 . S
C6458 C6453 1.350 . S
C6459 H6446 0.929 . S
C6459 C6451 1.433 . S
C6459 N6461 1.384 . S
N6460 C6456 1.427 . S
N6460 C6457 1.384 . S
N6461 C6453 1.427 . S
N6461 C6459 1.384 . S
H6462 C6468 0.930 . S
H6463 C6472 0.930 . S
H6464 C6477 0.929 . S
H6465 C6475 0.929 . S
H6466 C6470 0.929 . S
H6467 C6476 0.929 . S
C6468 H6462 0.930 . S
C6468 C6469 1.367 . S
C6468 C6476 1.378 . S
C6469 C6468 1.367 . S
C6469 C6477 1.433 . S
C6470 H6466 0.929 . S
C6470 C6472 1.378 . S
C6470 C6474 1.350 . S
C6471 C6474 1.463 . S
C6471 C6476 1.350 . S
C6471 N6479 1.427 . S
C6472 H6463 0.930 . S
C6472 C6470 1.378 . S
C6472 C6473 1.367 . S
C6473 C6472 1.367 . S
C6473 C6475 1.433 . S
C6474 C6470 1.350 . S
C6474 C6471 1.463 . S
C6474 N6478 1.427 . S
C6475 H6465 0.929 . S
C6475 C6473 1.433 . S
C6475 N6478 1.384 . S
C6476 H6467 0.929 . S
C6476 C6468 1.378 . S
C6476 C6471 1.350 . S
C6477 H6464 0.929 . S
C6477 C6469 1.433 . S
C6477 N6479 1.384 . S
N6478 C6474 1.427 . S
N6478 C6475 1.384 . S
N6479 C6471 1.427 . S
N6479 C6477 1.384 . S
H6480 C6486 0.930 . S
H6481 C6490 0.930 . S
H6482 C6495 0.929 . S
H6483 C6493 0.929 . S
H6484 C6488 0.929 . S
H6485 C6494 0.929 . S
C6486 H6480 0.930 . S
C6486 C6487 1.367 . S
C6486 C6494 1.378 . S
C6487 C6486 1.367 . S
C6487 C6495 1.433 . S
C6488 H6484 0.929 . S
C6488 C6490 1.378 . S
C6488 C6492 1.350 . S
C6489 C6492 1.463 . S
C6489 C6494 1.350 . S
C6489 N6497 1.427 . S
C6490 H6481 0.930 . S
C6490 C6488 1.378 . S
C6490 C6491 1.367 . S
C6491 C6490 1.367 . S
C6491 C6493 1.433 . S
C6492 C6488 1.350 . S
C6492 C6489 1.463 . S
C6492 N6496 1.427 . S
C6493 H6483 0.929 . S
C6493 C6491 1.433 . S
C6493 N6496 1.384 . S
C6494 H6485 0.929 . S
C6494 C6486 1.378 . S
C6494 C6489 1.350 . S
C6495 H6482 0.929 . S
C6495 C6487 1.433 . S
C6495 N6497 1.384 . S
N6496 C6492 1.427 . S
N6496 C6493 1.384 . S
N6497 C6489 1.427 . S
N6497 C6495 1.384 . S
H6498 C6504 0.930 . S
H6499 C6508 0.930 . S
H6500 C6513 0.929 . S
H6501 C6511 0.929 . S
H6502 C6506 0.929 . S
H6503 C6512 0.929 . S
C6504 H6498 0.930 . S
C6504 C6505 1.367 . S
C6504 C6512 1.378 . S
C6505 C6504 1.367 . S
C6505 C6513 1.433 . S
C6506 H6502 0.929 . S
C6506 C6508 1.378 . S
C6506 C6510 1.350 . S
C6507 C6510 1.463 . S
C6507 C6512 1.350 . S
C6507 N6515 1.427 . S
C6508 H6499 0.930 . S
C6508 C6506 1.378 . S
C6508 C6509 1.367 . S
C6509 C6508 1.367 . S
C6509 C6511 1.433 . S
C6510 C6506 1.350 . S
C6510 C6507 1.463 . S
C6510 N6514 1.427 . S
C6511 H6501 0.929 . S
C6511 C6509 1.433 . S
C6511 N6514 1.384 . S
C6512 H6503 0.929 . S
C6512 C6504 1.378 . S
C6512 C6507 1.350 . S
C6513 H6500 0.929 . S
C6513 C6505 1.433 . S
C6513 N6515 1.384 . S
N6514 C6510 1.427 . S
N6514 C6511 1.384 . S
N6515 C6507 1.427 . S
N6515 C6513 1.384 . S
H6516 C6522 0.930 . S
H6517 C6526 0.930 . S
H6518 C6531 0.929 . S
H6519 C6529 0.929 . S
H6520 C6524 0.929 . S
H6521 C6530 0.929 . S
C6522 H6516 0.930 . S
C6522 C6523 1.367 . S
C6522 C6530 1.378 . S
C6523 C6522 1.367 . S
C6523 C6531 1.433 . S
C6524 H6520 0.929 . S
C6524 C6526 1.378 . S
C6524 C6528 1.350 . S
C6525 C6528 1.463 . S
C6525 C6530 1.350 . S
C6525 N6533 1.427 . S
C6526 H6517 0.930 . S
C6526 C6524 1.378 . S
C6526 C6527 1.367 . S
C6527 C6526 1.367 . S
C6527 C6529 1.433 . S
C6528 C6524 1.350 . S
C6528 C6525 1.463 . S
C6528 N6532 1.427 . S
C6529 H6519 0.929 . S
C6529 C6527 1.433 . S
C6529 N6532 1.384 . S
C6530 H6521 0.929 . S
C6530 C6522 1.378 . S
C6530 C6525 1.350 . S
C6531 H6518 0.929 . S
C6531 C6523 1.433 . S
C6531 N6533 1.384 . S
N6532 C6528 1.427 . S
N6532 C6529 1.384 . S
N6533 C6525 1.427 . S
N6533 C6531 1.384 . S
H6534 C6540 0.930 . S
H6535 C6544 0.930 . S
H6536 C6549 0.929 . S
H6537 C6547 0.929 . S
H6538 C6542 0.881 1_554 S
H6539 C6548 0.929 . S
C6540 H6534 0.930 . S
C6540 C6541 1.367 . S
C6540 C6548 1.378 . S
C6541 C6540 1.367 . S
C6541 C6549 1.433 . S
C6542 H6538 0.881 1_556 S
C6542 C6544 1.489 . S
C6542 C6546 1.287 1_556 S
C6543 C6546 1.463 . S
C6543 C6548 1.350 . S
C6543 N6551 1.427 . S
C6544 H6535 0.930 . S
C6544 C6542 1.489 . S
C6544 C6545 1.367 . S
C6545 C6544 1.367 . S
C6545 C6547 1.433 . S
C6546 C6542 1.287 1_554 S
C6546 C6543 1.463 . S
C6546 N6550 1.471 . S
C6547 H6537 0.929 . S
C6547 C6545 1.433 . S
C6547 N6550 1.272 1_556 S
C6548 H6539 0.929 . S
C6548 C6540 1.378 . S
C6548 C6543 1.350 . S
C6549 H6536 0.929 . S
C6549 C6541 1.433 . S
C6549 N6551 1.384 . S
N6550 C6546 1.471 . S
N6550 C6547 1.272 1_554 S
N6551 C6543 1.427 . S
N6551 C6549 1.384 . S
H6552 C6558 0.930 . S
H6553 C6562 0.930 . S
H6554 C6567 0.929 . S
H6555 C6565 0.929 . S
H6556 C6560 0.929 . S
H6557 C6566 0.929 . S
C6558 H6552 0.930 . S
C6558 C6559 1.367 . S
C6558 C6566 1.378 . S
C6559 C6558 1.367 . S
C6559 C6567 1.433 . S
C6560 H6556 0.929 . S
C6560 C6562 1.378 . S
C6560 C6564 1.350 . S
C6561 C6564 1.463 . S
C6561 C6566 1.350 . S
C6561 N6569 1.427 . S
C6562 H6553 0.930 . S
C6562 C6560 1.378 . S
C6562 C6563 1.367 . S
C6563 C6562 1.367 . S
C6563 C6565 1.433 . S
C6564 C6560 1.350 . S
C6564 C6561 1.463 . S
C6564 N6568 1.427 . S
C6565 H6555 0.929 . S
C6565 C6563 1.433 . S
C6565 N6568 1.384 . S
C6566 H6557 0.929 . S
C6566 C6558 1.378 . S
C6566 C6561 1.350 . S
C6567 H6554 0.929 . S
C6567 C6559 1.433 . S
C6567 N6569 1.384 . S
N6568 C6564 1.427 . S
N6568 C6565 1.384 . S
N6569 C6561 1.427 . S
N6569 C6567 1.384 . S
H6570 C6576 0.930 . S
H6571 C6580 0.930 . S
H6572 C6585 0.929 . S
H6573 C6583 0.929 . S
H6574 C6578 0.929 . S
H6575 C6584 0.929 . S
C6576 H6570 0.930 . S
C6576 C6577 1.367 . S
C6576 C6584 1.378 . S
C6577 C6576 1.367 . S
C6577 C6585 1.433 . S
C6578 H6574 0.929 . S
C6578 C6580 1.378 1_556 S
C6578 C6582 1.350 . S
C6579 C6582 1.463 . S
C6579 C6584 1.350 . S
C6579 N6587 1.427 . S
C6580 H6571 0.930 . S
C6580 C6578 1.378 1_554 S
C6580 C6581 1.367 . S
C6581 C6580 1.367 . S
C6581 C6583 1.433 . S
C6582 C6578 1.350 . S
C6582 C6579 1.463 . S
C6582 N6586 1.427 1_556 S
C6583 H6573 0.929 . S
C6583 C6581 1.433 . S
C6583 N6586 1.384 . S
C6584 H6575 0.929 . S
C6584 C6576 1.378 . S
C6584 C6579 1.350 . S
C6585 H6572 0.929 . S
C6585 C6577 1.433 . S
C6585 N6587 1.384 . S
N6586 C6582 1.427 1_554 S
N6586 C6583 1.384 . S
N6587 C6579 1.427 . S
N6587 C6585 1.384 . S
H6588 C6594 0.930 . S
H6589 C6598 0.930 . S
H6590 C6603 0.929 . S
H6591 C6601 0.929 . S
H6592 C6596 0.929 . S
H6593 C6602 0.929 . S
C6594 H6588 0.930 . S
C6594 C6595 1.367 . S
C6594 C6602 1.378 . S
C6595 C6594 1.367 . S
C6595 C6603 1.433 . S
C6596 H6592 0.929 . S
C6596 C6598 1.378 . S
C6596 C6600 1.350 . S
C6597 C6600 1.463 . S
C6597 C6602 1.350 . S
C6597 N6605 1.427 . S
C6598 H6589 0.930 . S
C6598 C6596 1.378 . S
C6598 C6599 1.367 . S
C6599 C6598 1.367 . S
C6599 C6601 1.433 . S
C6600 C6596 1.350 . S
C6600 C6597 1.463 . S
C6600 N6604 1.427 . S
C6601 H6591 0.929 . S
C6601 C6599 1.433 . S
C6601 N6604 1.384 . S
C6602 H6593 0.929 . S
C6602 C6594 1.378 . S
C6602 C6597 1.350 . S
C6603 H6590 0.929 . S
C6603 C6595 1.433 . S
C6603 N6605 1.384 . S
N6604 C6600 1.427 . S
N6604 C6601 1.384 . S
N6605 C6597 1.427 . S
N6605 C6603 1.384 . S
H6606 C6612 0.930 . S
H6607 C6616 0.930 . S
H6608 C6621 0.929 . S
H6609 C6619 0.929 . S
H6610 C6614 0.929 . S
H6611 C6620 0.929 . S
C6612 H6606 0.930 . S
C6612 C6613 1.367 . S
C6612 C6620 1.378 . S
C6613 C6612 1.367 . S
C6613 C6621 1.433 . S
C6614 H6610 0.929 . S
C6614 C6616 1.378 . S
C6614 C6618 1.350 . S
C6615 C6618 1.463 . S
C6615 C6620 1.350 . S
C6615 N6623 1.427 . S
C6616 H6607 0.930 . S
C6616 C6614 1.378 . S
C6616 C6617 1.367 . S
C6617 C6616 1.367 . S
C6617 C6619 1.433 . S
C6618 C6614 1.350 . S
C6618 C6615 1.463 . S
C6618 N6622 1.427 . S
C6619 H6609 0.929 . S
C6619 C6617 1.433 . S
C6619 N6622 1.384 . S
C6620 H6611 0.929 . S
C6620 C6612 1.378 . S
C6620 C6615 1.350 . S
C6621 H6608 0.929 . S
C6621 C6613 1.433 . S
C6621 N6623 1.384 . S
N6622 C6618 1.427 . S
N6622 C6619 1.384 . S
N6623 C6615 1.427 . S
N6623 C6621 1.384 . S
H6624 C6630 0.930 . S
H6625 C6634 0.930 . S
H6626 C6639 0.929 . S
H6627 C6637 0.929 . S
H6628 C6632 0.929 . S
H6629 C6638 0.929 . S
C6630 H6624 0.930 . S
C6630 C6631 1.367 . S
C6630 C6638 1.378 . S
C6631 C6630 1.367 . S
C6631 C6639 1.433 . S
C6632 H6628 0.929 . S
C6632 C6634 1.378 . S
C6632 C6636 1.350 . S
C6633 C6636 1.463 . S
C6633 C6638 1.350 . S
C6633 N6641 1.427 . S
C6634 H6625 0.930 . S
C6634 C6632 1.378 . S
C6634 C6635 1.367 . S
C6635 C6634 1.367 . S
C6635 C6637 1.433 . S
C6636 C6632 1.350 . S
C6636 C6633 1.463 . S
C6636 N6640 1.427 . S
C6637 H6627 0.929 . S
C6637 C6635 1.433 . S
C6637 N6640 1.384 . S
C6638 H6629 0.929 . S
C6638 C6630 1.378 . S
C6638 C6633 1.350 . S
C6639 H6626 0.929 . S
C6639 C6631 1.433 . S
C6639 N6641 1.384 . S
N6640 C6636 1.427 . S
N6640 C6637 1.384 . S
N6641 C6633 1.427 . S
N6641 C6639 1.384 . S
H6642 C6648 0.930 . S
H6643 C6652 0.930 . S
H6644 C6657 0.929 . S
H6645 C6655 0.929 . S
H6646 C6650 0.929 . S
H6647 C6656 0.929 . S
C6648 H6642 0.930 . S
C6648 C6649 1.367 . S
C6648 C6656 1.378 . S
C6649 C6648 1.367 . S
C6649 C6657 1.433 . S
C6650 H6646 0.929 . S
C6650 C6652 1.378 . S
C6650 C6654 1.350 . S
C6651 C6654 1.463 . S
C6651 C6656 1.350 . S
C6651 N6659 1.427 . S
C6652 H6643 0.930 . S
C6652 C6650 1.378 . S
C6652 C6653 1.367 . S
C6653 C6652 1.367 . S
C6653 C6655 1.433 . S
C6654 C6650 1.350 . S
C6654 C6651 1.463 . S
C6654 N6658 1.427 . S
C6655 H6645 0.929 . S
C6655 C6653 1.433 . S
C6655 N6658 1.384 . S
C6656 H6647 0.929 . S
C6656 C6648 1.378 . S
C6656 C6651 1.350 . S
C6657 H6644 0.929 . S
C6657 C6649 1.433 . S
C6657 N6659 1.384 . S
N6658 C6654 1.427 . S
N6658 C6655 1.384 . S
N6659 C6651 1.427 . S
N6659 C6657 1.384 . S
H6660 C6666 0.930 . S
H6661 C6670 0.930 . S
H6662 C6675 0.929 . S
H6663 C6673 0.929 . S
H6664 C6668 0.929 . S
H6665 C6674 0.929 . S
C6666 H6660 0.930 . S
C6666 C6667 1.367 . S
C6666 C6674 1.378 . S
C6667 C6666 1.367 . S
C6667 C6675 1.433 . S
C6668 H6664 0.929 . S
C6668 C6670 1.378 . S
C6668 C6672 1.350 . S
C6669 C6672 1.463 . S
C6669 C6674 1.350 . S
C6669 N6677 1.427 . S
C6670 H6661 0.930 . S
C6670 C6668 1.378 . S
C6670 C6671 1.367 . S
C6671 C6670 1.367 . S
C6671 C6673 1.433 . S
C6672 C6668 1.350 . S
C6672 C6669 1.463 . S
C6672 N6676 1.427 . S
C6673 H6663 0.929 . S
C6673 C6671 1.433 . S
C6673 N6676 1.384 . S
C6674 H6665 0.929 . S
C6674 C6666 1.378 . S
C6674 C6669 1.350 . S
C6675 H6662 0.929 . S
C6675 C6667 1.433 . S
C6675 N6677 1.384 . S
N6676 C6672 1.427 . S
N6676 C6673 1.384 . S
N6677 C6669 1.427 . S
N6677 C6675 1.384 . S
H6678 C6684 0.930 . S
H6679 C6688 0.930 . S
H6680 C6693 0.929 . S
H6681 C6691 0.929 . S
H6682 C6686 0.929 . S
H6683 C6692 0.929 . S
C6684 H6678 0.930 . S
C6684 C6685 1.367 . S
C6684 C6692 1.378 . S
C6685 C6684 1.367 . S
C6685 C6693 1.433 . S
C6686 H6682 0.929 . S
C6686 C6688 1.378 . S
C6686 C6690 1.350 . S
C6687 C6690 1.463 . S
C6687 C6692 1.350 . S
C6687 N6695 1.427 . S
C6688 H6679 0.930 . S
C6688 C6686 1.378 . S
C6688 C6689 1.367 . S
C6689 C6688 1.367 . S
C6689 C6691 1.433 . S
C6690 C6686 1.350 . S
C6690 C6687 1.463 . S
C6690 N6694 1.427 . S
C6691 H6681 0.929 . S
C6691 C6689 1.433 . S
C6691 N6694 1.384 . S
C6692 H6683 0.929 . S
C6692 C6684 1.378 . S
C6692 C6687 1.350 . S
C6693 H6680 0.929 . S
C6693 C6685 1.433 . S
C6693 N6695 1.384 . S
N6694 C6690 1.427 . S
N6694 C6691 1.384 . S
N6695 C6687 1.427 . S
N6695 C6693 1.384 . S
H6696 C6702 0.930 . S
H6697 C6706 0.930 . S
H6698 C6711 0.929 . S
H6699 C6709 0.929 . S
H6700 C6704 0.929 . S
H6701 C6710 0.929 . S
C6702 H6696 0.930 . S
C6702 C6703 1.367 . S
C6702 C6710 1.378 . S
C6703 C6702 1.367 . S
C6703 C6711 1.433 . S
C6704 H6700 0.929 . S
C6704 C6706 1.378 . S
C6704 C6708 1.350 . S
C6705 C6708 1.463 . S
C6705 C6710 1.350 . S
C6705 N6713 1.427 . S
C6706 H6697 0.930 . S
C6706 C6704 1.378 . S
C6706 C6707 1.367 . S
C6707 C6706 1.367 . S
C6707 C6709 1.433 . S
C6708 C6704 1.350 . S
C6708 C6705 1.463 . S
C6708 N6712 1.427 . S
C6709 H6699 0.929 . S
C6709 C6707 1.433 . S
C6709 N6712 1.384 . S
C6710 H6701 0.929 . S
C6710 C6702 1.378 . S
C6710 C6705 1.350 . S
C6711 H6698 0.929 . S
C6711 C6703 1.433 . S
C6711 N6713 1.384 . S
N6712 C6708 1.427 . S
N6712 C6709 1.384 . S
N6713 C6705 1.427 . S
N6713 C6711 1.384 . S
H6714 C6720 0.930 . S
H6715 C6724 0.930 . S
H6716 C6729 0.929 . S
H6717 C6727 0.929 . S
H6718 C6722 0.929 . S
H6719 C6728 0.929 . S
C6720 H6714 0.930 . S
C6720 C6721 1.367 . S
C6720 C6728 1.378 . S
C6721 C6720 1.367 . S
C6721 C6729 1.433 . S
C6722 H6718 0.929 . S
C6722 C6724 1.378 . S
C6722 C6726 1.350 . S
C6723 C6726 1.463 . S
C6723 C6728 1.350 . S
C6723 N6731 1.427 . S
C6724 H6715 0.930 . S
C6724 C6722 1.378 . S
C6724 C6725 1.367 . S
C6725 C6724 1.367 . S
C6725 C6727 1.433 . S
C6726 C6722 1.350 . S
C6726 C6723 1.463 . S
C6726 N6730 1.427 . S
C6727 H6717 0.929 . S
C6727 C6725 1.433 . S
C6727 N6730 1.384 . S
C6728 H6719 0.929 . S
C6728 C6720 1.378 . S
C6728 C6723 1.350 . S
C6729 H6716 0.929 . S
C6729 C6721 1.433 . S
C6729 N6731 1.384 . S
N6730 C6726 1.427 . S
N6730 C6727 1.384 . S
N6731 C6723 1.427 . S
N6731 C6729 1.384 . S
H6732 C6738 0.930 . S
H6733 C6742 0.930 . S
H6734 C6747 0.929 . S
H6735 C6745 0.929 . S
H6736 C6740 0.929 . S
H6737 C6746 0.929 . S
C6738 H6732 0.930 . S
C6738 C6739 1.367 . S
C6738 C6746 1.378 . S
C6739 C6738 1.367 . S
C6739 C6747 1.433 . S
C6740 H6736 0.929 . S
C6740 C6742 1.378 . S
C6740 C6744 1.350 . S
C6741 C6744 1.463 . S
C6741 C6746 1.350 . S
C6741 N6749 1.427 . S
C6742 H6733 0.930 . S
C6742 C6740 1.378 . S
C6742 C6743 1.367 . S
C6743 C6742 1.367 . S
C6743 C6745 1.433 . S
C6744 C6740 1.350 . S
C6744 C6741 1.463 . S
C6744 N6748 1.427 . S
C6745 H6735 0.929 . S
C6745 C6743 1.433 . S
C6745 N6748 1.384 . S
C6746 H6737 0.929 . S
C6746 C6738 1.378 . S
C6746 C6741 1.350 . S
C6747 H6734 0.929 . S
C6747 C6739 1.433 . S
C6747 N6749 1.384 . S
N6748 C6744 1.427 . S
N6748 C6745 1.384 . S
N6749 C6741 1.427 . S
N6749 C6747 1.384 . S
H6750 C6756 0.930 . S
H6751 C6760 0.930 . S
H6752 C6765 0.929 . S
H6753 C6763 0.929 . S
H6754 C6758 0.929 . S
H6755 C6764 0.929 . S
C6756 H6750 0.930 . S
C6756 C6757 1.367 . S
C6756 C6764 1.378 . S
C6757 C6756 1.367 . S
C6757 C6765 1.433 . S
C6758 H6754 0.929 . S
C6758 C6760 1.378 . S
C6758 C6762 1.350 . S
C6759 C6762 1.463 . S
C6759 C6764 1.350 . S
C6759 N6767 1.427 . S
C6760 H6751 0.930 . S
C6760 C6758 1.378 . S
C6760 C6761 1.367 . S
C6761 C6760 1.367 . S
C6761 C6763 1.433 . S
C6762 C6758 1.350 . S
C6762 C6759 1.463 . S
C6762 N6766 1.427 . S
C6763 H6753 0.929 . S
C6763 C6761 1.433 . S
C6763 N6766 1.384 . S
C6764 H6755 0.929 . S
C6764 C6756 1.378 . S
C6764 C6759 1.350 . S
C6765 H6752 0.929 . S
C6765 C6757 1.433 . S
C6765 N6767 1.384 . S
N6766 C6762 1.427 . S
N6766 C6763 1.384 . S
N6767 C6759 1.427 . S
N6767 C6765 1.384 . S
H6768 C6774 0.930 . S
H6769 C6778 0.930 . S
H6770 C6783 0.929 . S
H6771 C6781 0.929 . S
H6772 C6776 0.929 . S
H6773 C6782 0.929 . S
C6774 H6768 0.930 . S
C6774 C6775 1.367 . S
C6774 C6782 1.378 . S
C6775 C6774 1.367 . S
C6775 C6783 1.433 . S
C6776 H6772 0.929 . S
C6776 C6778 1.378 . S
C6776 C6780 1.350 . S
C6777 C6780 1.463 . S
C6777 C6782 1.350 . S
C6777 N6785 1.427 . S
C6778 H6769 0.930 . S
C6778 C6776 1.378 . S
C6778 C6779 1.367 . S
C6779 C6778 1.367 . S
C6779 C6781 1.433 . S
C6780 C6776 1.350 . S
C6780 C6777 1.463 . S
C6780 N6784 1.427 . S
C6781 H6771 0.929 . S
C6781 C6779 1.433 . S
C6781 N6784 1.384 . S
C6782 H6773 0.929 . S
C6782 C6774 1.378 . S
C6782 C6777 1.350 . S
C6783 H6770 0.929 . S
C6783 C6775 1.433 . S
C6783 N6785 1.384 . S
N6784 C6780 1.427 . S
N6784 C6781 1.384 . S
N6785 C6777 1.427 . S
N6785 C6783 1.384 . S
H6786 C6792 0.930 . S
H6787 C6796 0.930 . S
H6788 C6801 0.929 . S
H6789 C6799 0.929 . S
H6790 C6794 0.929 . S
H6791 C6800 0.929 . S
C6792 H6786 0.930 . S
C6792 C6793 1.367 . S
C6792 C6800 1.378 . S
C6793 C6792 1.367 . S
C6793 C6801 1.433 . S
C6794 H6790 0.929 . S
C6794 C6796 1.378 . S
C6794 C6798 1.350 . S
C6795 C6798 1.463 . S
C6795 C6800 1.350 . S
C6795 N6803 1.427 . S
C6796 H6787 0.930 . S
C6796 C6794 1.378 . S
C6796 C6797 1.367 . S
C6797 C6796 1.367 . S
C6797 C6799 1.433 . S
C6798 C6794 1.350 . S
C6798 C6795 1.463 . S
C6798 N6802 1.427 . S
C6799 H6789 0.929 . S
C6799 C6797 1.433 . S
C6799 N6802 1.384 . S
C6800 H6791 0.929 . S
C6800 C6792 1.378 . S
C6800 C6795 1.350 . S
C6801 H6788 0.929 . S
C6801 C6793 1.433 . S
C6801 N6803 1.384 . S
N6802 C6798 1.427 . S
N6802 C6799 1.384 . S
N6803 C6795 1.427 . S
N6803 C6801 1.384 . S
H6804 C6810 0.930 . S
H6805 C6814 0.930 . S
H6806 C6819 0.929 . S
H6807 C6817 0.929 . S
H6808 C6812 0.929 . S
H6809 C6818 0.929 . S
C6810 H6804 0.930 . S
C6810 C6811 1.367 . S
C6810 C6818 1.378 . S
C6811 C6810 1.367 . S
C6811 C6819 1.433 . S
C6812 H6808 0.929 . S
C6812 C6814 1.378 . S
C6812 C6816 1.350 . S
C6813 C6816 1.463 . S
C6813 C6818 1.350 . S
C6813 N6821 1.427 . S
C6814 H6805 0.930 . S
C6814 C6812 1.378 . S
C6814 C6815 1.367 . S
C6815 C6814 1.367 . S
C6815 C6817 1.433 . S
C6816 C6812 1.350 . S
C6816 C6813 1.463 . S
C6816 N6820 1.427 . S
C6817 H6807 0.929 . S
C6817 C6815 1.433 . S
C6817 N6820 1.384 . S
C6818 H6809 0.929 . S
C6818 C6810 1.378 . S
C6818 C6813 1.350 . S
C6819 H6806 0.929 . S
C6819 C6811 1.433 . S
C6819 N6821 1.384 . S
N6820 C6816 1.427 . S
N6820 C6817 1.384 . S
N6821 C6813 1.427 . S
N6821 C6819 1.384 . S
H6822 C6828 0.930 . S
H6823 C6832 0.930 . S
H6824 C6837 0.929 . S
H6825 C6835 0.929 . S
H6826 C6830 0.929 . S
H6827 C6836 0.929 . S
C6828 H6822 0.930 . S
C6828 C6829 1.367 . S
C6828 C6836 1.378 . S
C6829 C6828 1.367 . S
C6829 C6837 1.433 . S
C6830 H6826 0.929 . S
C6830 C6832 1.378 . S
C6830 C6834 1.350 . S
C6831 C6834 1.463 . S
C6831 C6836 1.350 . S
C6831 N6839 1.427 . S
C6832 H6823 0.930 . S
C6832 C6830 1.378 . S
C6832 C6833 1.367 . S
C6833 C6832 1.367 . S
C6833 C6835 1.433 . S
C6834 C6830 1.350 . S
C6834 C6831 1.463 . S
C6834 N6838 1.427 . S
C6835 H6825 0.929 . S
C6835 C6833 1.433 . S
C6835 N6838 1.384 . S
C6836 H6827 0.929 . S
C6836 C6828 1.378 . S
C6836 C6831 1.350 . S
C6837 H6824 0.929 . S
C6837 C6829 1.433 . S
C6837 N6839 1.384 . S
N6838 C6834 1.427 . S
N6838 C6835 1.384 . S
N6839 C6831 1.427 . S
N6839 C6837 1.384 . S
H6840 C6846 0.930 . S
H6841 C6850 0.930 . S
H6842 C6855 0.929 . S
H6843 C6853 0.929 . S
H6844 C6848 0.929 . S
H6845 C6854 0.929 . S
C6846 H6840 0.930 . S
C6846 C6847 1.367 . S
C6846 C6854 1.378 . S
C6847 C6846 1.367 . S
C6847 C6855 1.433 . S
C6848 H6844 0.929 . S
C6848 C6850 1.378 . S
C6848 C6852 1.350 . S
C6849 C6852 1.463 . S
C6849 C6854 1.350 . S
C6849 N6857 1.427 . S
C6850 H6841 0.930 . S
C6850 C6848 1.378 . S
C6850 C6851 1.367 . S
C6851 C6850 1.367 . S
C6851 C6853 1.433 . S
C6852 C6848 1.350 . S
C6852 C6849 1.463 . S
C6852 N6856 1.427 . S
C6853 H6843 0.929 . S
C6853 C6851 1.433 . S
C6853 N6856 1.384 . S
C6854 H6845 0.929 . S
C6854 C6846 1.378 . S
C6854 C6849 1.350 . S
C6855 H6842 0.929 . S
C6855 C6847 1.433 . S
C6855 N6857 1.384 . S
N6856 C6852 1.427 . S
N6856 C6853 1.384 . S
N6857 C6849 1.427 . S
N6857 C6855 1.384 . S
H6858 C6864 0.930 . S
H6859 C6868 0.930 . S
H6860 C6873 0.929 . S
H6861 C6871 0.929 . S
H6862 C6866 0.929 . S
H6863 C6872 0.929 . S
C6864 H6858 0.930 . S
C6864 C6865 1.367 . S
C6864 C6872 1.378 . S
C6865 C6864 1.367 . S
C6865 C6873 1.433 . S
C6866 H6862 0.929 . S
C6866 C6868 1.378 . S
C6866 C6870 1.350 . S
C6867 C6870 1.463 . S
C6867 C6872 1.350 . S
C6867 N6875 1.427 . S
C6868 H6859 0.930 . S
C6868 C6866 1.378 . S
C6868 C6869 1.367 . S
C6869 C6868 1.367 . S
C6869 C6871 1.433 . S
C6870 C6866 1.350 . S
C6870 C6867 1.463 . S
C6870 N6874 1.427 . S
C6871 H6861 0.929 . S
C6871 C6869 1.433 . S
C6871 N6874 1.384 . S
C6872 H6863 0.929 . S
C6872 C6864 1.378 . S
C6872 C6867 1.350 . S
C6873 H6860 0.929 . S
C6873 C6865 1.433 . S
C6873 N6875 1.384 . S
N6874 C6870 1.427 . S
N6874 C6871 1.384 . S
N6875 C6867 1.427 . S
N6875 C6873 1.384 . S
H6876 C6882 0.930 . S
H6877 C6886 0.930 . S
H6878 C6891 0.929 . S
H6879 C6889 0.929 . S
H6880 C6884 0.929 . S
H6881 C6890 0.929 . S
C6882 H6876 0.930 . S
C6882 C6883 1.367 . S
C6882 C6890 1.378 . S
C6883 C6882 1.367 . S
C6883 C6891 1.433 . S
C6884 H6880 0.929 . S
C6884 C6886 1.378 . S
C6884 C6888 1.350 . S
C6885 C6888 1.463 . S
C6885 C6890 1.350 . S
C6885 N6893 1.427 . S
C6886 H6877 0.930 . S
C6886 C6884 1.378 . S
C6886 C6887 1.367 . S
C6887 C6886 1.367 . S
C6887 C6889 1.433 . S
C6888 C6884 1.350 . S
C6888 C6885 1.463 . S
C6888 N6892 1.427 . S
C6889 H6879 0.929 . S
C6889 C6887 1.433 . S
C6889 N6892 1.384 . S
C6890 H6881 0.929 . S
C6890 C6882 1.378 . S
C6890 C6885 1.350 . S
C6891 H6878 0.929 . S
C6891 C6883 1.433 . S
C6891 N6893 1.384 . S
N6892 C6888 1.427 . S
N6892 C6889 1.384 . S
N6893 C6885 1.427 . S
N6893 C6891 1.384 . S
H6894 C6900 0.930 . S
H6895 C6904 0.930 . S
H6896 C6909 0.929 . S
H6897 C6907 0.929 . S
H6898 C6902 0.929 . S
H6899 C6908 0.929 . S
C6900 H6894 0.930 . S
C6900 C6901 1.367 . S
C6900 C6908 1.378 . S
C6901 C6900 1.367 . S
C6901 C6909 1.433 . S
C6902 H6898 0.929 . S
C6902 C6904 1.378 . S
C6902 C6906 1.350 . S
C6903 C6906 1.463 . S
C6903 C6908 1.350 . S
C6903 N6911 1.427 . S
C6904 H6895 0.930 . S
C6904 C6902 1.378 . S
C6904 C6905 1.367 . S
C6905 C6904 1.367 . S
C6905 C6907 1.433 . S
C6906 C6902 1.350 . S
C6906 C6903 1.463 . S
C6906 N6910 1.427 . S
C6907 H6897 0.929 . S
C6907 C6905 1.433 . S
C6907 N6910 1.384 . S
C6908 H6899 0.929 . S
C6908 C6900 1.378 . S
C6908 C6903 1.350 . S
C6909 H6896 0.929 . S
C6909 C6901 1.433 . S
C6909 N6911 1.384 . S
N6910 C6906 1.427 . S
N6910 C6907 1.384 . S
N6911 C6903 1.427 . S
N6911 C6909 1.384 . S
H6912 C6918 0.930 . S
H6913 C6922 0.930 . S
H6914 C6927 0.929 . S
H6915 C6925 0.929 . S
H6916 C6920 0.929 . S
H6917 C6926 0.929 . S
C6918 H6912 0.930 . S
C6918 C6919 1.367 . S
C6918 C6926 1.378 . S
C6919 C6918 1.367 . S
C6919 C6927 1.433 . S
C6920 H6916 0.929 . S
C6920 C6922 1.378 . S
C6920 C6924 1.350 . S
C6921 C6924 1.463 . S
C6921 C6926 1.350 . S
C6921 N6929 1.427 . S
C6922 H6913 0.930 . S
C6922 C6920 1.378 . S
C6922 C6923 1.367 . S
C6923 C6922 1.367 . S
C6923 C6925 1.433 . S
C6924 C6920 1.350 . S
C6924 C6921 1.463 . S
C6924 N6928 1.427 . S
C6925 H6915 0.929 . S
C6925 C6923 1.433 . S
C6925 N6928 1.384 . S
C6926 H6917 0.929 . S
C6926 C6918 1.378 . S
C6926 C6921 1.350 . S
C6927 H6914 0.929 . S
C6927 C6919 1.433 . S
C6927 N6929 1.384 . S
N6928 C6924 1.427 . S
N6928 C6925 1.384 . S
N6929 C6921 1.427 . S
N6929 C6927 1.384 . S
H6930 C6936 0.930 . S
H6931 C6940 0.930 . S
H6932 C6945 0.929 . S
H6933 C6943 0.929 . S
H6934 C6938 0.929 . S
H6935 C6944 0.929 . S
C6936 H6930 0.930 . S
C6936 C6937 1.367 . S
C6936 C6944 1.378 . S
C6937 C6936 1.367 . S
C6937 C6945 1.433 . S
C6938 H6934 0.929 . S
C6938 C6940 1.378 . S
C6938 C6942 1.350 . S
C6939 C6942 1.463 . S
C6939 C6944 1.350 . S
C6939 N6947 1.427 . S
C6940 H6931 0.930 . S
C6940 C6938 1.378 . S
C6940 C6941 1.367 . S
C6941 C6940 1.367 . S
C6941 C6943 1.433 . S
C6942 C6938 1.350 . S
C6942 C6939 1.463 . S
C6942 N6946 1.427 . S
C6943 H6933 0.929 . S
C6943 C6941 1.433 . S
C6943 N6946 1.384 . S
C6944 H6935 0.929 . S
C6944 C6936 1.378 . S
C6944 C6939 1.350 . S
C6945 H6932 0.929 . S
C6945 C6937 1.433 . S
C6945 N6947 1.384 . S
N6946 C6942 1.427 . S
N6946 C6943 1.384 . S
N6947 C6939 1.427 . S
N6947 C6945 1.384 . S
H6948 C6954 0.930 . S
H6949 C6958 0.930 . S
H6950 C6963 0.929 . S
H6951 C6961 0.929 . S
H6952 C6956 0.929 . S
H6953 C6962 0.929 . S
C6954 H6948 0.930 . S
C6954 C6955 1.367 . S
C6954 C6962 1.378 . S
C6955 C6954 1.367 . S
C6955 C6963 1.433 . S
C6956 H6952 0.929 . S
C6956 C6958 1.378 . S
C6956 C6960 1.350 . S
C6957 C6960 1.463 . S
C6957 C6962 1.350 . S
C6957 N6965 1.427 . S
C6958 H6949 0.930 . S
C6958 C6956 1.378 . S
C6958 C6959 1.367 . S
C6959 C6958 1.367 . S
C6959 C6961 1.433 . S
C6960 C6956 1.350 . S
C6960 C6957 1.463 . S
C6960 N6964 1.427 . S
C6961 H6951 0.929 . S
C6961 C6959 1.433 . S
C6961 N6964 1.384 . S
C6962 H6953 0.929 . S
C6962 C6954 1.378 . S
C6962 C6957 1.350 . S
C6963 H6950 0.929 . S
C6963 C6955 1.433 . S
C6963 N6965 1.384 . S
N6964 C6960 1.427 . S
N6964 C6961 1.384 . S
N6965 C6957 1.427 . S
N6965 C6963 1.384 . S
H6966 C6972 0.930 . S
H6967 C6976 0.930 . S
H6968 C6981 0.929 . S
H6969 C6979 0.929 . S
H6970 C6974 0.929 . S
H6971 C6980 0.929 . S
C6972 H6966 0.930 . S
C6972 C6973 1.367 . S
C6972 C6980 1.378 . S
C6973 C6972 1.367 . S
C6973 C6981 1.433 . S
C6974 H6970 0.929 . S
C6974 C6976 1.378 . S
C6974 C6978 1.350 . S
C6975 C6978 1.463 . S
C6975 C6980 1.350 . S
C6975 N6983 1.427 . S
C6976 H6967 0.930 . S
C6976 C6974 1.378 . S
C6976 C6977 1.367 . S
C6977 C6976 1.367 . S
C6977 C6979 1.433 . S
C6978 C6974 1.350 . S
C6978 C6975 1.463 . S
C6978 N6982 1.427 . S
C6979 H6969 0.929 . S
C6979 C6977 1.433 . S
C6979 N6982 1.384 . S
C6980 H6971 0.929 . S
C6980 C6972 1.378 . S
C6980 C6975 1.350 . S
C6981 H6968 0.929 . S
C6981 C6973 1.433 . S
C6981 N6983 1.384 . S
N6982 C6978 1.427 . S
N6982 C6979 1.384 . S
N6983 C6975 1.427 . S
N6983 C6981 1.384 . S
H6984 C6990 0.930 . S
H6985 C6994 0.930 . S
H6986 C6999 0.929 . S
H6987 C6997 0.929 . S
H6988 C6992 0.929 . S
H6989 C6998 0.929 . S
C6990 H6984 0.930 . S
C6990 C6991 1.367 . S
C6990 C6998 1.378 . S
C6991 C6990 1.367 . S
C6991 C6999 1.433 . S
C6992 H6988 0.929 . S
C6992 C6994 1.378 . S
C6992 C6996 1.350 . S
C6993 C6996 1.463 . S
C6993 C6998 1.350 . S
C6993 N7001 1.427 . S
C6994 H6985 0.930 . S
C6994 C6992 1.378 . S
C6994 C6995 1.367 . S
C6995 C6994 1.367 . S
C6995 C6997 1.433 . S
C6996 C6992 1.350 . S
C6996 C6993 1.463 . S
C6996 N7000 1.427 . S
C6997 H6987 0.929 . S
C6997 C6995 1.433 . S
C6997 N7000 1.384 . S
C6998 H6989 0.929 . S
C6998 C6990 1.378 . S
C6998 C6993 1.350 . S
C6999 H6986 0.929 . S
C6999 C6991 1.433 . S
C6999 N7001 1.384 . S
N7000 C6996 1.427 . S
N7000 C6997 1.384 . S
N7001 C6993 1.427 . S
N7001 C6999 1.384 . S
H7002 C7008 0.930 . S
H7003 C7012 0.930 . S
H7004 C7017 0.929 . S
H7005 C7015 0.929 . S
H7006 C7010 0.929 . S
H7007 C7016 0.929 . S
C7008 H7002 0.930 . S
C7008 C7009 1.367 . S
C7008 C7016 1.378 . S
C7009 C7008 1.367 . S
C7009 C7017 1.433 . S
C7010 H7006 0.929 . S
C7010 C7012 1.378 . S
C7010 C7014 1.350 . S
C7011 C7014 1.463 . S
C7011 C7016 1.350 . S
C7011 N7019 1.427 . S
C7012 H7003 0.930 . S
C7012 C7010 1.378 . S
C7012 C7013 1.367 . S
C7013 C7012 1.367 . S
C7013 C7015 1.433 . S
C7014 C7010 1.350 . S
C7014 C7011 1.463 . S
C7014 N7018 1.427 . S
C7015 H7005 0.929 . S
C7015 C7013 1.433 . S
C7015 N7018 1.384 . S
C7016 H7007 0.929 . S
C7016 C7008 1.378 . S
C7016 C7011 1.350 . S
C7017 H7004 0.929 . S
C7017 C7009 1.433 . S
C7017 N7019 1.384 . S
N7018 C7014 1.427 . S
N7018 C7015 1.384 . S
N7019 C7011 1.427 . S
N7019 C7017 1.384 . S
H7020 C7026 0.930 . S
H7021 C7030 0.930 . S
H7022 C7035 0.929 . S
H7023 C7033 0.929 . S
H7024 C7028 0.929 . S
H7025 C7034 0.929 . S
C7026 H7020 0.930 . S
C7026 C7027 1.367 . S
C7026 C7034 1.378 . S
C7027 C7026 1.367 . S
C7027 C7035 1.433 . S
C7028 H7024 0.929 . S
C7028 C7030 1.378 . S
C7028 C7032 1.350 . S
C7029 C7032 1.463 . S
C7029 C7034 1.350 . S
C7029 N7037 1.427 . S
C7030 H7021 0.930 . S
C7030 C7028 1.378 . S
C7030 C7031 1.367 . S
C7031 C7030 1.367 . S
C7031 C7033 1.433 . S
C7032 C7028 1.350 . S
C7032 C7029 1.463 . S
C7032 N7036 1.427 . S
C7033 H7023 0.929 . S
C7033 C7031 1.433 . S
C7033 N7036 1.384 . S
C7034 H7025 0.929 . S
C7034 C7026 1.378 . S
C7034 C7029 1.350 . S
C7035 H7022 0.929 . S
C7035 C7027 1.433 . S
C7035 N7037 1.384 . S
N7036 C7032 1.427 . S
N7036 C7033 1.384 . S
N7037 C7029 1.427 . S
N7037 C7035 1.384 . S
H7038 C7044 0.930 . S
H7039 C7048 0.930 . S
H7040 C7053 0.929 . S
H7041 C7051 0.929 . S
H7042 C7046 0.929 . S
H7043 C7052 0.929 . S
C7044 H7038 0.930 . S
C7044 C7045 1.367 . S
C7044 C7052 1.378 . S
C7045 C7044 1.367 . S
C7045 C7053 1.433 . S
C7046 H7042 0.929 . S
C7046 C7048 1.378 . S
C7046 C7050 1.350 . S
C7047 C7050 1.463 . S
C7047 C7052 1.350 . S
C7047 N7055 1.427 . S
C7048 H7039 0.930 . S
C7048 C7046 1.378 . S
C7048 C7049 1.367 . S
C7049 C7048 1.367 . S
C7049 C7051 1.433 . S
C7050 C7046 1.350 . S
C7050 C7047 1.463 . S
C7050 N7054 1.427 . S
C7051 H7041 0.929 . S
C7051 C7049 1.433 . S
C7051 N7054 1.384 . S
C7052 H7043 0.929 . S
C7052 C7044 1.378 . S
C7052 C7047 1.350 . S
C7053 H7040 0.929 . S
C7053 C7045 1.433 . S
C7053 N7055 1.384 . S
N7054 C7050 1.427 . S
N7054 C7051 1.384 . S
N7055 C7047 1.427 . S
N7055 C7053 1.384 . S
H7056 C7062 0.930 . S
H7057 C7066 0.930 . S
H7058 C7071 0.929 . S
H7059 C7069 0.929 . S
H7060 C7064 0.929 . S
H7061 C7070 0.929 . S
C7062 H7056 0.930 . S
C7062 C7063 1.367 . S
C7062 C7070 1.378 . S
C7063 C7062 1.367 . S
C7063 C7071 1.433 . S
C7064 H7060 0.929 . S
C7064 C7066 1.378 . S
C7064 C7068 1.350 . S
C7065 C7068 1.463 . S
C7065 C7070 1.350 . S
C7065 N7073 1.427 . S
C7066 H7057 0.930 . S
C7066 C7064 1.378 . S
C7066 C7067 1.367 . S
C7067 C7066 1.367 . S
C7067 C7069 1.433 . S
C7068 C7064 1.350 . S
C7068 C7065 1.463 . S
C7068 N7072 1.427 . S
C7069 H7059 0.929 . S
C7069 C7067 1.433 . S
C7069 N7072 1.384 . S
C7070 H7061 0.929 . S
C7070 C7062 1.378 . S
C7070 C7065 1.350 . S
C7071 H7058 0.929 . S
C7071 C7063 1.433 . S
C7071 N7073 1.384 . S
N7072 C7068 1.427 . S
N7072 C7069 1.384 . S
N7073 C7065 1.427 . S
N7073 C7071 1.384 . S
H7074 C7080 0.930 . S
H7075 C7084 0.930 . S
H7076 C7089 0.929 . S
H7077 C7087 0.929 . S
H7078 C7082 0.929 . S
H7079 C7088 0.929 . S
C7080 H7074 0.930 . S
C7080 C7081 1.367 . S
C7080 C7088 1.378 . S
C7081 C7080 1.367 . S
C7081 C7089 1.433 . S
C7082 H7078 0.929 . S
C7082 C7084 1.378 . S
C7082 C7086 1.350 . S
C7083 C7086 1.463 . S
C7083 C7088 1.350 . S
C7083 N7091 1.427 . S
C7084 H7075 0.930 . S
C7084 C7082 1.378 . S
C7084 C7085 1.367 . S
C7085 C7084 1.367 . S
C7085 C7087 1.433 . S
C7086 C7082 1.350 . S
C7086 C7083 1.463 . S
C7086 N7090 1.427 . S
C7087 H7077 0.929 . S
C7087 C7085 1.433 . S
C7087 N7090 1.384 . S
C7088 H7079 0.929 . S
C7088 C7080 1.378 . S
C7088 C7083 1.350 . S
C7089 H7076 0.929 . S
C7089 C7081 1.433 . S
C7089 N7091 1.384 . S
N7090 C7086 1.427 . S
N7090 C7087 1.384 . S
N7091 C7083 1.427 . S
N7091 C7089 1.384 . S
H7092 C7098 0.930 . S
H7093 C7102 0.930 . S
H7094 C7107 0.929 . S
H7095 C7105 0.929 . S
H7096 C7100 0.929 . S
H7097 C7106 0.929 . S
C7098 H7092 0.930 . S
C7098 C7099 1.367 . S
C7098 C7106 1.378 . S
C7099 C7098 1.367 . S
C7099 C7107 1.433 . S
C7100 H7096 0.929 . S
C7100 C7102 1.378 . S
C7100 C7104 1.350 . S
C7101 C7104 1.463 . S
C7101 C7106 1.350 . S
C7101 N7109 1.427 . S
C7102 H7093 0.930 . S
C7102 C7100 1.378 . S
C7102 C7103 1.367 . S
C7103 C7102 1.367 . S
C7103 C7105 1.433 . S
C7104 C7100 1.350 . S
C7104 C7101 1.463 . S
C7104 N7108 1.427 . S
C7105 H7095 0.929 . S
C7105 C7103 1.433 . S
C7105 N7108 1.384 . S
C7106 H7097 0.929 . S
C7106 C7098 1.378 . S
C7106 C7101 1.350 . S
C7107 H7094 0.929 . S
C7107 C7099 1.433 . S
C7107 N7109 1.384 . S
N7108 C7104 1.427 . S
N7108 C7105 1.384 . S
N7109 C7101 1.427 . S
N7109 C7107 1.384 . S
H7110 C7116 0.930 . S
H7111 C7120 0.930 . S
H7112 C7125 0.929 . S
H7113 C7123 0.929 . S
H7114 C7118 0.929 . S
H7115 C7124 0.929 . S
C7116 H7110 0.930 . S
C7116 C7117 1.367 . S
C7116 C7124 1.378 . S
C7117 C7116 1.367 . S
C7117 C7125 1.433 . S
C7118 H7114 0.929 . S
C7118 C7120 1.378 . S
C7118 C7122 1.350 . S
C7119 C7122 1.463 . S
C7119 C7124 1.350 . S
C7119 N7127 1.427 . S
C7120 H7111 0.930 . S
C7120 C7118 1.378 . S
C7120 C7121 1.367 . S
C7121 C7120 1.367 . S
C7121 C7123 1.433 . S
C7122 C7118 1.350 . S
C7122 C7119 1.463 . S
C7122 N7126 1.427 . S
C7123 H7113 0.929 . S
C7123 C7121 1.433 . S
C7123 N7126 1.384 . S
C7124 H7115 0.929 . S
C7124 C7116 1.378 . S
C7124 C7119 1.350 . S
C7125 H7112 0.929 . S
C7125 C7117 1.433 . S
C7125 N7127 1.384 . S
N7126 C7122 1.427 . S
N7126 C7123 1.384 . S
N7127 C7119 1.427 . S
N7127 C7125 1.384 . S
H7128 C7134 0.930 . S
H7129 C7138 0.930 . S
H7130 C7143 0.929 . S
H7131 C7141 0.929 . S
H7132 C7136 0.929 . S
H7133 C7142 0.929 . S
C7134 H7128 0.930 . S
C7134 C7135 1.367 . S
C7134 C7142 1.378 . S
C7135 C7134 1.367 . S
C7135 C7143 1.433 . S
C7136 H7132 0.929 . S
C7136 C7138 1.378 . S
C7136 C7140 1.350 . S
C7137 C7140 1.463 . S
C7137 C7142 1.350 . S
C7137 N7145 1.427 . S
C7138 H7129 0.930 . S
C7138 C7136 1.378 . S
C7138 C7139 1.367 . S
C7139 C7138 1.367 . S
C7139 C7141 1.433 . S
C7140 C7136 1.350 . S
C7140 C7137 1.463 . S
C7140 N7144 1.427 . S
C7141 H7131 0.929 . S
C7141 C7139 1.433 . S
C7141 N7144 1.384 . S
C7142 H7133 0.929 . S
C7142 C7134 1.378 . S
C7142 C7137 1.350 . S
C7143 H7130 0.929 . S
C7143 C7135 1.433 . S
C7143 N7145 1.384 . S
N7144 C7140 1.427 . S
N7144 C7141 1.384 . S
N7145 C7137 1.427 . S
N7145 C7143 1.384 . S
H7146 C7152 0.930 . S
H7147 C7156 0.930 . S
H7148 C7161 0.929 . S
H7149 C7159 0.929 . S
H7150 C7154 0.929 . S
H7151 C7160 0.929 . S
C7152 H7146 0.930 . S
C7152 C7153 1.367 . S
C7152 C7160 1.378 . S
C7153 C7152 1.367 . S
C7153 C7161 1.433 . S
C7154 H7150 0.929 . S
C7154 C7156 1.378 . S
C7154 C7158 1.350 . S
C7155 C7158 1.463 . S
C7155 C7160 1.350 . S
C7155 N7163 1.427 . S
C7156 H7147 0.930 . S
C7156 C7154 1.378 . S
C7156 C7157 1.367 . S
C7157 C7156 1.367 . S
C7157 C7159 1.433 . S
C7158 C7154 1.350 . S
C7158 C7155 1.463 . S
C7158 N7162 1.427 . S
C7159 H7149 0.929 . S
C7159 C7157 1.433 . S
C7159 N7162 1.384 . S
C7160 H7151 0.929 . S
C7160 C7152 1.378 . S
C7160 C7155 1.350 . S
C7161 H7148 0.929 . S
C7161 C7153 1.433 . S
C7161 N7163 1.384 . S
N7162 C7158 1.427 . S
N7162 C7159 1.384 . S
N7163 C7155 1.427 . S
N7163 C7161 1.384 . S
H7164 C7170 0.930 . S
H7165 C7174 0.930 . S
H7166 C7179 0.929 . S
H7167 C7177 0.929 . S
H7168 C7172 0.929 . S
H7169 C7178 0.929 . S
C7170 H7164 0.930 . S
C7170 C7171 1.367 . S
C7170 C7178 1.378 . S
C7171 C7170 1.367 . S
C7171 C7179 1.433 . S
C7172 H7168 0.929 . S
C7172 C7174 1.378 . S
C7172 C7176 1.350 . S
C7173 C7176 1.463 . S
C7173 C7178 1.350 . S
C7173 N7181 1.427 . S
C7174 H7165 0.930 . S
C7174 C7172 1.378 . S
C7174 C7175 1.367 . S
C7175 C7174 1.367 . S
C7175 C7177 1.433 . S
C7176 C7172 1.350 . S
C7176 C7173 1.463 . S
C7176 N7180 1.427 . S
C7177 H7167 0.929 . S
C7177 C7175 1.433 . S
C7177 N7180 1.384 . S
C7178 H7169 0.929 . S
C7178 C7170 1.378 . S
C7178 C7173 1.350 . S
C7179 H7166 0.929 . S
C7179 C7171 1.433 . S
C7179 N7181 1.384 . S
N7180 C7176 1.427 . S
N7180 C7177 1.384 . S
N7181 C7173 1.427 . S
N7181 C7179 1.384 . S
H7182 C7188 0.930 . S
H7183 C7192 0.930 . S
H7184 C7197 0.929 . S
H7185 C7195 0.929 . S
H7186 C7190 0.929 . S
H7187 C7196 0.929 . S
C7188 H7182 0.930 . S
C7188 C7189 1.367 . S
C7188 C7196 1.378 . S
C7189 C7188 1.367 . S
C7189 C7197 1.433 . S
C7190 H7186 0.929 . S
C7190 C7192 1.378 . S
C7190 C7194 1.350 . S
C7191 C7194 1.463 . S
C7191 C7196 1.350 . S
C7191 N7199 1.427 . S
C7192 H7183 0.930 . S
C7192 C7190 1.378 . S
C7192 C7193 1.367 . S
C7193 C7192 1.367 . S
C7193 C7195 1.433 . S
C7194 C7190 1.350 . S
C7194 C7191 1.463 . S
C7194 N7198 1.427 . S
C7195 H7185 0.929 . S
C7195 C7193 1.433 . S
C7195 N7198 1.384 . S
C7196 H7187 0.929 . S
C7196 C7188 1.378 . S
C7196 C7191 1.350 . S
C7197 H7184 0.929 . S
C7197 C7189 1.433 . S
C7197 N7199 1.384 . S
N7198 C7194 1.427 . S
N7198 C7195 1.384 . S
N7199 C7191 1.427 . S
N7199 C7197 1.384 . S
H7200 C7206 0.930 . S
H7201 C7210 0.930 . S
H7202 C7215 0.929 . S
H7203 C7213 0.929 . S
H7204 C7208 0.929 . S
H7205 C7214 0.929 . S
C7206 H7200 0.930 . S
C7206 C7207 1.367 . S
C7206 C7214 1.378 . S
C7207 C7206 1.367 . S
C7207 C7215 1.433 . S
C7208 H7204 0.929 . S
C7208 C7210 1.378 . S
C7208 C7212 1.350 . S
C7209 C7212 1.463 . S
C7209 C7214 1.350 . S
C7209 N7217 1.427 . S
C7210 H7201 0.930 . S
C7210 C7208 1.378 . S
C7210 C7211 1.367 . S
C7211 C7210 1.367 . S
C7211 C7213 1.433 . S
C7212 C7208 1.350 . S
C7212 C7209 1.463 . S
C7212 N7216 1.427 . S
C7213 H7203 0.929 . S
C7213 C7211 1.433 . S
C7213 N7216 1.384 . S
C7214 H7205 0.929 . S
C7214 C7206 1.378 . S
C7214 C7209 1.350 . S
C7215 H7202 0.929 . S
C7215 C7207 1.433 . S
C7215 N7217 1.384 . S
N7216 C7212 1.427 . S
N7216 C7213 1.384 . S
N7217 C7209 1.427 . S
N7217 C7215 1.384 . S
H7218 C7224 0.930 . S
H7219 C7228 0.930 . S
H7220 C7233 0.929 . S
H7221 C7231 0.929 . S
H7222 C7226 0.929 . S
H7223 C7232 0.929 . S
C7224 H7218 0.930 . S
C7224 C7225 1.367 . S
C7224 C7232 1.378 . S
C7225 C7224 1.367 . S
C7225 C7233 1.433 . S
C7226 H7222 0.929 . S
C7226 C7228 1.378 . S
C7226 C7230 1.350 . S
C7227 C7230 1.463 . S
C7227 C7232 1.350 . S
C7227 N7235 1.427 . S
C7228 H7219 0.930 . S
C7228 C7226 1.378 . S
C7228 C7229 1.367 . S
C7229 C7228 1.367 . S
C7229 C7231 1.433 . S
C7230 C7226 1.350 . S
C7230 C7227 1.463 . S
C7230 N7234 1.427 . S
C7231 H7221 0.929 . S
C7231 C7229 1.433 . S
C7231 N7234 1.384 . S
C7232 H7223 0.929 . S
C7232 C7224 1.378 . S
C7232 C7227 1.350 . S
C7233 H7220 0.929 . S
C7233 C7225 1.433 . S
C7233 N7235 1.384 . S
N7234 C7230 1.427 . S
N7234 C7231 1.384 . S
N7235 C7227 1.427 . S
N7235 C7233 1.384 . S
H7236 C7242 0.930 . S
H7237 C7246 0.930 . S
H7238 C7251 0.929 . S
H7239 C7249 0.929 . S
H7240 C7244 0.929 . S
H7241 C7250 0.929 . S
C7242 H7236 0.930 . S
C7242 C7243 1.367 . S
C7242 C7250 1.378 . S
C7243 C7242 1.367 . S
C7243 C7251 1.433 . S
C7244 H7240 0.929 . S
C7244 C7246 1.378 . S
C7244 C7248 1.350 . S
C7245 C7248 1.463 . S
C7245 C7250 1.350 . S
C7245 N7253 1.427 . S
C7246 H7237 0.930 . S
C7246 C7244 1.378 . S
C7246 C7247 1.367 . S
C7247 C7246 1.367 . S
C7247 C7249 1.433 . S
C7248 C7244 1.350 . S
C7248 C7245 1.463 . S
C7248 N7252 1.427 . S
C7249 H7239 0.929 . S
C7249 C7247 1.433 . S
C7249 N7252 1.384 . S
C7250 H7241 0.929 . S
C7250 C7242 1.378 . S
C7250 C7245 1.350 . S
C7251 H7238 0.929 . S
C7251 C7243 1.433 . S
C7251 N7253 1.384 . S
N7252 C7248 1.427 . S
N7252 C7249 1.384 . S
N7253 C7245 1.427 . S
N7253 C7251 1.384 . S
H7254 C7260 0.930 . S
H7255 C7264 0.930 . S
H7256 C7269 0.929 . S
H7257 C7267 0.929 . S
H7258 C7262 0.929 . S
H7259 C7268 0.929 . S
C7260 H7254 0.930 . S
C7260 C7261 1.367 . S
C7260 C7268 1.378 . S
C7261 C7260 1.367 . S
C7261 C7269 1.433 . S
C7262 H7258 0.929 . S
C7262 C7264 1.378 . S
C7262 C7266 1.350 . S
C7263 C7266 1.463 . S
C7263 C7268 1.350 . S
C7263 N7271 1.427 . S
C7264 H7255 0.930 . S
C7264 C7262 1.378 . S
C7264 C7265 1.367 . S
C7265 C7264 1.367 . S
C7265 C7267 1.433 . S
C7266 C7262 1.350 . S
C7266 C7263 1.463 . S
C7266 N7270 1.427 . S
C7267 H7257 0.929 . S
C7267 C7265 1.433 . S
C7267 N7270 1.384 . S
C7268 H7259 0.929 . S
C7268 C7260 1.378 . S
C7268 C7263 1.350 . S
C7269 H7256 0.929 . S
C7269 C7261 1.433 . S
C7269 N7271 1.384 . S
N7270 C7266 1.427 . S
N7270 C7267 1.384 . S
N7271 C7263 1.427 . S
N7271 C7269 1.384 . S
H7272 C7278 0.930 . S
H7273 C7282 0.930 . S
H7274 C7287 0.929 . S
H7275 C7285 0.929 . S
H7276 C7280 0.929 . S
H7277 C7286 0.929 . S
C7278 H7272 0.930 . S
C7278 C7279 1.367 . S
C7278 C7286 1.378 . S
C7279 C7278 1.367 . S
C7279 C7287 1.433 . S
C7280 H7276 0.929 . S
C7280 C7282 1.378 . S
C7280 C7284 1.350 . S
C7281 C7284 1.463 . S
C7281 C7286 1.350 . S
C7281 N7289 1.427 . S
C7282 H7273 0.930 . S
C7282 C7280 1.378 . S
C7282 C7283 1.367 . S
C7283 C7282 1.367 . S
C7283 C7285 1.433 . S
C7284 C7280 1.350 . S
C7284 C7281 1.463 . S
C7284 N7288 1.427 . S
C7285 H7275 0.929 . S
C7285 C7283 1.433 . S
C7285 N7288 1.384 . S
C7286 H7277 0.929 . S
C7286 C7278 1.378 . S
C7286 C7281 1.350 . S
C7287 H7274 0.929 . S
C7287 C7279 1.433 . S
C7287 N7289 1.384 . S
N7288 C7284 1.427 . S
N7288 C7285 1.384 . S
N7289 C7281 1.427 . S
N7289 C7287 1.384 . S
H7290 C7296 0.930 . S
H7291 C7300 0.930 . S
H7292 C7305 0.929 . S
H7293 C7303 0.929 . S
H7294 C7298 0.929 . S
H7295 C7304 0.929 . S
C7296 H7290 0.930 . S
C7296 C7297 1.367 . S
C7296 C7304 1.378 . S
C7297 C7296 1.367 . S
C7297 C7305 1.433 . S
C7298 H7294 0.929 . S
C7298 C7300 1.378 . S
C7298 C7302 1.350 . S
C7299 C7302 1.463 . S
C7299 C7304 1.350 . S
C7299 N7307 1.427 . S
C7300 H7291 0.930 . S
C7300 C7298 1.378 . S
C7300 C7301 1.367 . S
C7301 C7300 1.367 . S
C7301 C7303 1.433 . S
C7302 C7298 1.350 . S
C7302 C7299 1.463 . S
C7302 N7306 1.427 . S
C7303 H7293 0.929 . S
C7303 C7301 1.433 . S
C7303 N7306 1.384 . S
C7304 H7295 0.929 . S
C7304 C7296 1.378 . S
C7304 C7299 1.350 . S
C7305 H7292 0.929 . S
C7305 C7297 1.433 . S
C7305 N7307 1.384 . S
N7306 C7302 1.427 . S
N7306 C7303 1.384 . S
N7307 C7299 1.427 . S
N7307 C7305 1.384 . S
H7308 C7314 0.930 . S
H7309 C7318 0.930 . S
H7310 C7323 0.929 . S
H7311 C7321 0.929 . S
H7312 C7316 0.929 . S
H7313 C7322 0.929 . S
C7314 H7308 0.930 . S
C7314 C7315 1.367 . S
C7314 C7322 1.378 . S
C7315 C7314 1.367 . S
C7315 C7323 1.433 . S
C7316 H7312 0.929 . S
C7316 C7318 1.378 . S
C7316 C7320 1.350 . S
C7317 C7320 1.463 . S
C7317 C7322 1.350 . S
C7317 N7325 1.427 . S
C7318 H7309 0.930 . S
C7318 C7316 1.378 . S
C7318 C7319 1.367 . S
C7319 C7318 1.367 . S
C7319 C7321 1.433 . S
C7320 C7316 1.350 . S
C7320 C7317 1.463 . S
C7320 N7324 1.427 . S
C7321 H7311 0.929 . S
C7321 C7319 1.433 . S
C7321 N7324 1.384 . S
C7322 H7313 0.929 . S
C7322 C7314 1.378 . S
C7322 C7317 1.350 . S
C7323 H7310 0.929 . S
C7323 C7315 1.433 . S
C7323 N7325 1.384 . S
N7324 C7320 1.427 . S
N7324 C7321 1.384 . S
N7325 C7317 1.427 . S
N7325 C7323 1.384 . S
H7326 C7332 0.930 . S
H7327 C7336 0.930 . S
H7328 C7341 0.929 . S
H7329 C7339 0.929 . S
H7330 C7334 0.929 . S
H7331 C7340 0.929 . S
C7332 H7326 0.930 . S
C7332 C7333 1.367 . S
C7332 C7340 1.378 . S
C7333 C7332 1.367 . S
C7333 C7341 1.433 . S
C7334 H7330 0.929 . S
C7334 C7336 1.378 . S
C7334 C7338 1.350 . S
C7335 C7338 1.463 . S
C7335 C7340 1.350 . S
C7335 N7343 1.427 . S
C7336 H7327 0.930 . S
C7336 C7334 1.378 . S
C7336 C7337 1.367 . S
C7337 C7336 1.367 . S
C7337 C7339 1.433 . S
C7338 C7334 1.350 . S
C7338 C7335 1.463 . S
C7338 N7342 1.427 . S
C7339 H7329 0.929 . S
C7339 C7337 1.433 . S
C7339 N7342 1.384 . S
C7340 H7331 0.929 . S
C7340 C7332 1.378 . S
C7340 C7335 1.350 . S
C7341 H7328 0.929 . S
C7341 C7333 1.433 . S
C7341 N7343 1.384 . S
N7342 C7338 1.427 . S
N7342 C7339 1.384 . S
N7343 C7335 1.427 . S
N7343 C7341 1.384 . S
H7344 C7350 0.930 . S
H7345 C7354 0.930 . S
H7346 C7359 0.929 . S
H7347 C7357 0.929 . S
H7348 C7352 0.929 . S
H7349 C7358 0.929 . S
C7350 H7344 0.930 . S
C7350 C7351 1.367 . S
C7350 C7358 1.378 . S
C7351 C7350 1.367 . S
C7351 C7359 1.433 . S
C7352 H7348 0.929 . S
C7352 C7354 1.378 . S
C7352 C7356 1.350 . S
C7353 C7356 1.463 . S
C7353 C7358 1.350 . S
C7353 N7361 1.427 . S
C7354 H7345 0.930 . S
C7354 C7352 1.378 . S
C7354 C7355 1.367 . S
C7355 C7354 1.367 . S
C7355 C7357 1.433 . S
C7356 C7352 1.350 . S
C7356 C7353 1.463 . S
C7356 N7360 1.427 . S
C7357 H7347 0.929 . S
C7357 C7355 1.433 . S
C7357 N7360 1.384 . S
C7358 H7349 0.929 . S
C7358 C7350 1.378 . S
C7358 C7353 1.350 . S
C7359 H7346 0.929 . S
C7359 C7351 1.433 . S
C7359 N7361 1.384 . S
N7360 C7356 1.427 . S
N7360 C7357 1.384 . S
N7361 C7353 1.427 . S
N7361 C7359 1.384 . S
H7362 C7368 0.930 . S
H7363 C7372 0.930 . S
H7364 C7377 0.929 . S
H7365 C7375 0.929 . S
H7366 C7370 0.929 . S
H7367 C7376 0.929 . S
C7368 H7362 0.930 . S
C7368 C7369 1.367 . S
C7368 C7376 1.378 . S
C7369 C7368 1.367 . S
C7369 C7377 1.433 . S
C7370 H7366 0.929 . S
C7370 C7372 1.378 . S
C7370 C7374 1.350 . S
C7371 C7374 1.463 . S
C7371 C7376 1.350 . S
C7371 N7379 1.427 . S
C7372 H7363 0.930 . S
C7372 C7370 1.378 . S
C7372 C7373 1.367 . S
C7373 C7372 1.367 . S
C7373 C7375 1.433 . S
C7374 C7370 1.350 . S
C7374 C7371 1.463 . S
C7374 N7378 1.427 . S
C7375 H7365 0.929 . S
C7375 C7373 1.433 . S
C7375 N7378 1.384 . S
C7376 H7367 0.929 . S
C7376 C7368 1.378 . S
C7376 C7371 1.350 . S
C7377 H7364 0.929 . S
C7377 C7369 1.433 . S
C7377 N7379 1.384 . S
N7378 C7374 1.427 . S
N7378 C7375 1.384 . S
N7379 C7371 1.427 . S
N7379 C7377 1.384 . S
H7380 C7386 0.930 . S
H7381 C7390 0.930 . S
H7382 C7395 0.929 . S
H7383 C7393 0.929 . S
H7384 C7388 0.929 . S
H7385 C7394 0.929 . S
C7386 H7380 0.930 . S
C7386 C7387 1.367 . S
C7386 C7394 1.378 . S
C7387 C7386 1.367 . S
C7387 C7395 1.433 . S
C7388 H7384 0.929 . S
C7388 C7390 1.378 . S
C7388 C7392 1.350 . S
C7389 C7392 1.463 . S
C7389 C7394 1.350 . S
C7389 N7397 1.427 . S
C7390 H7381 0.930 . S
C7390 C7388 1.378 . S
C7390 C7391 1.367 . S
C7391 C7390 1.367 . S
C7391 C7393 1.433 . S
C7392 C7388 1.350 . S
C7392 C7389 1.463 . S
C7392 N7396 1.427 . S
C7393 H7383 0.929 . S
C7393 C7391 1.433 . S
C7393 N7396 1.384 . S
C7394 H7385 0.929 . S
C7394 C7386 1.378 . S
C7394 C7389 1.350 . S
C7395 H7382 0.929 . S
C7395 C7387 1.433 . S
C7395 N7397 1.384 . S
N7396 C7392 1.427 . S
N7396 C7393 1.384 . S
N7397 C7389 1.427 . S
N7397 C7395 1.384 . S
H7398 C7404 0.930 . S
H7399 C7408 0.930 . S
H7400 C7413 0.929 . S
H7401 C7411 0.929 . S
H7402 C7406 0.929 . S
H7403 C7412 0.929 . S
C7404 H7398 0.930 . S
C7404 C7405 1.367 . S
C7404 C7412 1.378 . S
C7405 C7404 1.367 . S
C7405 C7413 1.433 . S
C7406 H7402 0.929 . S
C7406 C7408 1.378 . S
C7406 C7410 1.350 . S
C7407 C7410 1.463 . S
C7407 C7412 1.350 . S
C7407 N7415 1.427 . S
C7408 H7399 0.930 . S
C7408 C7406 1.378 . S
C7408 C7409 1.367 . S
C7409 C7408 1.367 . S
C7409 C7411 1.433 . S
C7410 C7406 1.350 . S
C7410 C7407 1.463 . S
C7410 N7414 1.427 . S
C7411 H7401 0.929 . S
C7411 C7409 1.433 . S
C7411 N7414 1.384 . S
C7412 H7403 0.929 . S
C7412 C7404 1.378 . S
C7412 C7407 1.350 . S
C7413 H7400 0.929 . S
C7413 C7405 1.433 . S
C7413 N7415 1.384 . S
N7414 C7410 1.427 . S
N7414 C7411 1.384 . S
N7415 C7407 1.427 . S
N7415 C7413 1.384 . S
H7416 C7422 0.930 . S
H7417 C7426 0.930 . S
H7418 C7431 0.929 . S
H7419 C7429 0.929 . S
H7420 C7424 0.929 . S
H7421 C7430 0.929 . S
C7422 H7416 0.930 . S
C7422 C7423 1.367 . S
C7422 C7430 1.378 . S
C7423 C7422 1.367 . S
C7423 C7431 1.433 . S
C7424 H7420 0.929 . S
C7424 C7426 1.378 . S
C7424 C7428 1.350 . S
C7425 C7428 1.463 . S
C7425 C7430 1.350 . S
C7425 N7433 1.427 . S
C7426 H7417 0.930 . S
C7426 C7424 1.378 . S
C7426 C7427 1.367 . S
C7427 C7426 1.367 . S
C7427 C7429 1.433 . S
C7428 C7424 1.350 . S
C7428 C7425 1.463 . S
C7428 N7432 1.427 . S
C7429 H7419 0.929 . S
C7429 C7427 1.433 . S
C7429 N7432 1.384 . S
C7430 H7421 0.929 . S
C7430 C7422 1.378 . S
C7430 C7425 1.350 . S
C7431 H7418 0.929 . S
C7431 C7423 1.433 . S
C7431 N7433 1.384 . S
N7432 C7428 1.427 . S
N7432 C7429 1.384 . S
N7433 C7425 1.427 . S
N7433 C7431 1.384 . S
H7434 C7440 0.930 . S
H7435 C7444 0.930 . S
H7436 C7449 0.929 . S
H7437 C7447 0.929 . S
H7438 C7442 0.929 . S
H7439 C7448 0.929 . S
C7440 H7434 0.930 . S
C7440 C7441 1.367 . S
C7440 C7448 1.378 . S
C7441 C7440 1.367 . S
C7441 C7449 1.433 . S
C7442 H7438 0.929 . S
C7442 C7444 1.378 . S
C7442 C7446 1.350 . S
C7443 C7446 1.463 . S
C7443 C7448 1.350 . S
C7443 N7451 1.427 . S
C7444 H7435 0.930 . S
C7444 C7442 1.378 . S
C7444 C7445 1.367 . S
C7445 C7444 1.367 . S
C7445 C7447 1.433 . S
C7446 C7442 1.350 . S
C7446 C7443 1.463 . S
C7446 N7450 1.427 . S
C7447 H7437 0.929 . S
C7447 C7445 1.433 . S
C7447 N7450 1.384 . S
C7448 H7439 0.929 . S
C7448 C7440 1.378 . S
C7448 C7443 1.350 . S
C7449 H7436 0.929 . S
C7449 C7441 1.433 . S
C7449 N7451 1.384 . S
N7450 C7446 1.427 . S
N7450 C7447 1.384 . S
N7451 C7443 1.427 . S
N7451 C7449 1.384 . S
H7452 C7458 0.930 . S
H7453 C7462 0.930 . S
H7454 C7467 0.929 . S
H7455 C7465 0.929 . S
H7456 C7460 0.929 . S
H7457 C7466 0.929 . S
C7458 H7452 0.930 . S
C7458 C7459 1.367 . S
C7458 C7466 1.378 . S
C7459 C7458 1.367 . S
C7459 C7467 1.433 . S
C7460 H7456 0.929 . S
C7460 C7462 1.378 . S
C7460 C7464 1.350 . S
C7461 C7464 1.463 . S
C7461 C7466 1.350 . S
C7461 N7469 1.427 . S
C7462 H7453 0.930 . S
C7462 C7460 1.378 . S
C7462 C7463 1.367 . S
C7463 C7462 1.367 . S
C7463 C7465 1.433 . S
C7464 C7460 1.350 . S
C7464 C7461 1.463 . S
C7464 N7468 1.427 . S
C7465 H7455 0.929 . S
C7465 C7463 1.433 . S
C7465 N7468 1.384 . S
C7466 H7457 0.929 . S
C7466 C7458 1.378 . S
C7466 C7461 1.350 . S
C7467 H7454 0.929 . S
C7467 C7459 1.433 . S
C7467 N7469 1.384 . S
N7468 C7464 1.427 . S
N7468 C7465 1.384 . S
N7469 C7461 1.427 . S
N7469 C7467 1.384 . S
H7470 C7476 0.930 . S
H7471 C7480 0.930 . S
H7472 C7485 0.929 . S
H7473 C7483 0.929 . S
H7474 C7478 0.929 . S
H7475 C7484 0.929 . S
C7476 H7470 0.930 . S
C7476 C7477 1.367 . S
C7476 C7484 1.378 . S
C7477 C7476 1.367 . S
C7477 C7485 1.433 . S
C7478 H7474 0.929 . S
C7478 C7480 1.378 . S
C7478 C7482 1.350 . S
C7479 C7482 1.463 . S
C7479 C7484 1.350 . S
C7479 N7487 1.427 . S
C7480 H7471 0.930 . S
C7480 C7478 1.378 . S
C7480 C7481 1.367 . S
C7481 C7480 1.367 . S
C7481 C7483 1.433 . S
C7482 C7478 1.350 . S
C7482 C7479 1.463 . S
C7482 N7486 1.427 . S
C7483 H7473 0.929 . S
C7483 C7481 1.433 . S
C7483 N7486 1.384 . S
C7484 H7475 0.929 . S
C7484 C7476 1.378 . S
C7484 C7479 1.350 . S
C7485 H7472 0.929 . S
C7485 C7477 1.433 . S
C7485 N7487 1.384 . S
N7486 C7482 1.427 . S
N7486 C7483 1.384 . S
N7487 C7479 1.427 . S
N7487 C7485 1.384 . S
H7488 C7494 0.930 . S
H7489 C7498 0.930 . S
H7490 C7503 0.929 . S
H7491 C7501 0.929 . S
H7492 C7496 0.929 . S
H7493 C7502 0.929 . S
C7494 H7488 0.930 . S
C7494 C7495 1.367 . S
C7494 C7502 1.378 . S
C7495 C7494 1.367 . S
C7495 C7503 1.433 . S
C7496 H7492 0.929 . S
C7496 C7498 1.378 . S
C7496 C7500 1.350 . S
C7497 C7500 1.463 . S
C7497 C7502 1.350 . S
C7497 N7505 1.427 . S
C7498 H7489 0.930 . S
C7498 C7496 1.378 . S
C7498 C7499 1.367 . S
C7499 C7498 1.367 . S
C7499 C7501 1.433 . S
C7500 C7496 1.350 . S
C7500 C7497 1.463 . S
C7500 N7504 1.427 . S
C7501 H7491 0.929 . S
C7501 C7499 1.433 . S
C7501 N7504 1.384 . S
C7502 H7493 0.929 . S
C7502 C7494 1.378 . S
C7502 C7497 1.350 . S
C7503 H7490 0.929 . S
C7503 C7495 1.433 . S
C7503 N7505 1.384 . S
N7504 C7500 1.427 . S
N7504 C7501 1.384 . S
N7505 C7497 1.427 . S
N7505 C7503 1.384 . S
H7506 C7512 0.930 . S
H7507 C7516 0.930 . S
H7508 C7521 0.929 . S
H7509 C7519 0.929 . S
H7510 C7514 0.929 . S
H7511 C7520 0.929 . S
C7512 H7506 0.930 . S
C7512 C7513 1.367 . S
C7512 C7520 1.378 . S
C7513 C7512 1.367 . S
C7513 C7521 1.433 . S
C7514 H7510 0.929 . S
C7514 C7516 1.378 . S
C7514 C7518 1.350 . S
C7515 C7518 1.463 . S
C7515 C7520 1.350 . S
C7515 N7523 1.427 . S
C7516 H7507 0.930 . S
C7516 C7514 1.378 . S
C7516 C7517 1.367 . S
C7517 C7516 1.367 . S
C7517 C7519 1.433 . S
C7518 C7514 1.350 . S
C7518 C7515 1.463 . S
C7518 N7522 1.427 . S
C7519 H7509 0.929 . S
C7519 C7517 1.433 . S
C7519 N7522 1.384 . S
C7520 H7511 0.929 . S
C7520 C7512 1.378 . S
C7520 C7515 1.350 . S
C7521 H7508 0.929 . S
C7521 C7513 1.433 . S
C7521 N7523 1.384 . S
N7522 C7518 1.427 . S
N7522 C7519 1.384 . S
N7523 C7515 1.427 . S
N7523 C7521 1.384 . S
H7524 C7530 0.930 . S
H7525 C7534 0.930 . S
H7526 C7539 0.929 . S
H7527 C7537 0.929 . S
H7528 C7532 0.929 . S
H7529 C7538 0.929 . S
C7530 H7524 0.930 . S
C7530 C7531 1.367 . S
C7530 C7538 1.378 . S
C7531 C7530 1.367 . S
C7531 C7539 1.433 . S
C7532 H7528 0.929 . S
C7532 C7534 1.378 . S
C7532 C7536 1.350 . S
C7533 C7536 1.463 . S
C7533 C7538 1.350 . S
C7533 N7541 1.427 . S
C7534 H7525 0.930 . S
C7534 C7532 1.378 . S
C7534 C7535 1.367 . S
C7535 C7534 1.367 . S
C7535 C7537 1.433 . S
C7536 C7532 1.350 . S
C7536 C7533 1.463 . S
C7536 N7540 1.427 . S
C7537 H7527 0.929 . S
C7537 C7535 1.433 . S
C7537 N7540 1.384 . S
C7538 H7529 0.929 . S
C7538 C7530 1.378 . S
C7538 C7533 1.350 . S
C7539 H7526 0.929 . S
C7539 C7531 1.433 . S
C7539 N7541 1.384 . S
N7540 C7536 1.427 . S
N7540 C7537 1.384 . S
N7541 C7533 1.427 . S
N7541 C7539 1.384 . S
H7542 C7548 0.930 . S
H7543 C7552 0.930 . S
H7544 C7557 0.929 . S
H7545 C7555 0.929 . S
H7546 C7550 0.929 . S
H7547 C7556 0.929 . S
C7548 H7542 0.930 . S
C7548 C7549 1.367 . S
C7548 C7556 1.378 . S
C7549 C7548 1.367 . S
C7549 C7557 1.433 . S
C7550 H7546 0.929 . S
C7550 C7552 1.378 . S
C7550 C7554 1.350 . S
C7551 C7554 1.463 . S
C7551 C7556 1.350 . S
C7551 N7559 1.427 . S
C7552 H7543 0.930 . S
C7552 C7550 1.378 . S
C7552 C7553 1.367 . S
C7553 C7552 1.367 . S
C7553 C7555 1.433 . S
C7554 C7550 1.350 . S
C7554 C7551 1.463 . S
C7554 N7558 1.427 . S
C7555 H7545 0.929 . S
C7555 C7553 1.433 . S
C7555 N7558 1.384 . S
C7556 H7547 0.929 . S
C7556 C7548 1.378 . S
C7556 C7551 1.350 . S
C7557 H7544 0.929 . S
C7557 C7549 1.433 . S
C7557 N7559 1.384 . S
N7558 C7554 1.427 . S
N7558 C7555 1.384 . S
N7559 C7551 1.427 . S
N7559 C7557 1.384 . S
H7560 C7566 0.930 . S
H7561 C7570 0.930 . S
H7562 C7575 0.929 . S
H7563 C7573 0.929 . S
H7564 C7568 0.929 . S
H7565 C7574 0.929 . S
C7566 H7560 0.930 . S
C7566 C7567 1.367 . S
C7566 C7574 1.378 . S
C7567 C7566 1.367 . S
C7567 C7575 1.433 . S
C7568 H7564 0.929 . S
C7568 C7570 1.378 . S
C7568 C7572 1.350 . S
C7569 C7572 1.463 . S
C7569 C7574 1.350 . S
C7569 N7577 1.427 . S
C7570 H7561 0.930 . S
C7570 C7568 1.378 . S
C7570 C7571 1.367 . S
C7571 C7570 1.367 . S
C7571 C7573 1.433 . S
C7572 C7568 1.350 . S
C7572 C7569 1.463 . S
C7572 N7576 1.427 . S
C7573 H7563 0.929 . S
C7573 C7571 1.433 . S
C7573 N7576 1.384 . S
C7574 H7565 0.929 . S
C7574 C7566 1.378 . S
C7574 C7569 1.350 . S
C7575 H7562 0.929 . S
C7575 C7567 1.433 . S
C7575 N7577 1.384 . S
N7576 C7572 1.427 . S
N7576 C7573 1.384 . S
N7577 C7569 1.427 . S
N7577 C7575 1.384 . S
H7578 C7584 0.930 . S
H7579 C7588 0.930 . S
H7580 C7593 0.929 . S
H7581 C7591 0.929 . S
H7582 C7586 0.929 . S
H7583 C7592 0.929 . S
C7584 H7578 0.930 . S
C7584 C7585 1.367 . S
C7584 C7592 1.378 . S
C7585 C7584 1.367 . S
C7585 C7593 1.433 . S
C7586 H7582 0.929 . S
C7586 C7588 1.378 . S
C7586 C7590 1.350 . S
C7587 C7590 1.463 . S
C7587 C7592 1.350 . S
C7587 N7595 1.427 . S
C7588 H7579 0.930 . S
C7588 C7586 1.378 . S
C7588 C7589 1.367 . S
C7589 C7588 1.367 . S
C7589 C7591 1.433 . S
C7590 C7586 1.350 . S
C7590 C7587 1.463 . S
C7590 N7594 1.427 . S
C7591 H7581 0.929 . S
C7591 C7589 1.433 . S
C7591 N7594 1.384 . S
C7592 H7583 0.929 . S
C7592 C7584 1.378 . S
C7592 C7587 1.350 . S
C7593 H7580 0.929 . S
C7593 C7585 1.433 . S
C7593 N7595 1.384 . S
N7594 C7590 1.427 . S
N7594 C7591 1.384 . S
N7595 C7587 1.427 . S
N7595 C7593 1.384 . S
H7596 C7602 0.930 . S
H7597 C7606 0.930 . S
H7598 C7611 0.929 . S
H7599 C7609 0.929 . S
H7600 C7604 0.929 . S
H7601 C7610 0.929 . S
C7602 H7596 0.930 . S
C7602 C7603 1.367 . S
C7602 C7610 1.378 . S
C7603 C7602 1.367 . S
C7603 C7611 1.433 . S
C7604 H7600 0.929 . S
C7604 C7606 1.378 . S
C7604 C7608 1.350 . S
C7605 C7608 1.463 . S
C7605 C7610 1.350 . S
C7605 N7613 1.427 . S
C7606 H7597 0.930 . S
C7606 C7604 1.378 . S
C7606 C7607 1.367 . S
C7607 C7606 1.367 . S
C7607 C7609 1.433 . S
C7608 C7604 1.350 . S
C7608 C7605 1.463 . S
C7608 N7612 1.427 . S
C7609 H7599 0.929 . S
C7609 C7607 1.433 . S
C7609 N7612 1.384 . S
C7610 H7601 0.929 . S
C7610 C7602 1.378 . S
C7610 C7605 1.350 . S
C7611 H7598 0.929 . S
C7611 C7603 1.433 . S
C7611 N7613 1.384 . S
N7612 C7608 1.427 . S
N7612 C7609 1.384 . S
N7613 C7605 1.427 . S
N7613 C7611 1.384 . S
H7614 C7620 0.930 . S
H7615 C7624 0.930 . S
H7616 C7629 0.929 . S
H7617 C7627 0.929 . S
H7618 C7622 0.929 . S
H7619 C7628 0.929 . S
C7620 H7614 0.930 . S
C7620 C7621 1.367 . S
C7620 C7628 1.378 . S
C7621 C7620 1.367 . S
C7621 C7629 1.433 . S
C7622 H7618 0.929 . S
C7622 C7624 1.378 . S
C7622 C7626 1.350 . S
C7623 C7626 1.463 . S
C7623 C7628 1.350 . S
C7623 N7631 1.427 . S
C7624 H7615 0.930 . S
C7624 C7622 1.378 . S
C7624 C7625 1.367 . S
C7625 C7624 1.367 . S
C7625 C7627 1.433 . S
C7626 C7622 1.350 . S
C7626 C7623 1.463 . S
C7626 N7630 1.427 . S
C7627 H7617 0.929 . S
C7627 C7625 1.433 . S
C7627 N7630 1.384 . S
C7628 H7619 0.929 . S
C7628 C7620 1.378 . S
C7628 C7623 1.350 . S
C7629 H7616 0.929 . S
C7629 C7621 1.433 . S
C7629 N7631 1.384 . S
N7630 C7626 1.427 . S
N7630 C7627 1.384 . S
N7631 C7623 1.427 . S
N7631 C7629 1.384 . S
H7632 C7638 0.930 . S
H7633 C7642 0.930 . S
H7634 C7647 0.929 . S
H7635 C7645 0.929 . S
H7636 C7640 0.929 . S
H7637 C7646 0.929 . S
C7638 H7632 0.930 . S
C7638 C7639 1.367 . S
C7638 C7646 1.378 . S
C7639 C7638 1.367 . S
C7639 C7647 1.433 . S
C7640 H7636 0.929 . S
C7640 C7642 1.378 . S
C7640 C7644 1.350 . S
C7641 C7644 1.463 . S
C7641 C7646 1.350 . S
C7641 N7649 1.427 . S
C7642 H7633 0.930 . S
C7642 C7640 1.378 . S
C7642 C7643 1.367 . S
C7643 C7642 1.367 . S
C7643 C7645 1.433 . S
C7644 C7640 1.350 . S
C7644 C7641 1.463 . S
C7644 N7648 1.427 . S
C7645 H7635 0.929 . S
C7645 C7643 1.433 . S
C7645 N7648 1.384 . S
C7646 H7637 0.929 . S
C7646 C7638 1.378 . S
C7646 C7641 1.350 . S
C7647 H7634 0.929 . S
C7647 C7639 1.433 . S
C7647 N7649 1.384 . S
N7648 C7644 1.427 . S
N7648 C7645 1.384 . S
N7649 C7641 1.427 . S
N7649 C7647 1.384 . S
H7650 C7656 0.930 . S
H7651 C7660 0.930 . S
H7652 C7665 0.929 . S
H7653 C7663 0.929 . S
H7654 C7658 0.929 . S
H7655 C7664 0.929 . S
C7656 H7650 0.930 . S
C7656 C7657 1.367 . S
C7656 C7664 1.378 . S
C7657 C7656 1.367 . S
C7657 C7665 1.433 . S
C7658 H7654 0.929 . S
C7658 C7660 1.378 . S
C7658 C7662 1.350 . S
C7659 C7662 1.463 . S
C7659 C7664 1.350 . S
C7659 N7667 1.427 . S
C7660 H7651 0.930 . S
C7660 C7658 1.378 . S
C7660 C7661 1.367 . S
C7661 C7660 1.367 . S
C7661 C7663 1.433 . S
C7662 C7658 1.350 . S
C7662 C7659 1.463 . S
C7662 N7666 1.427 . S
C7663 H7653 0.929 . S
C7663 C7661 1.433 . S
C7663 N7666 1.384 . S
C7664 H7655 0.929 . S
C7664 C7656 1.378 . S
C7664 C7659 1.350 . S
C7665 H7652 0.929 . S
C7665 C7657 1.433 . S
C7665 N7667 1.384 . S
N7666 C7662 1.427 . S
N7666 C7663 1.384 . S
N7667 C7659 1.427 . S
N7667 C7665 1.384 . S
H7668 C7674 0.930 . S
H7669 C7678 0.930 . S
H7670 C7683 0.929 . S
H7671 C7681 0.929 . S
H7672 C7676 0.929 . S
H7673 C7682 0.929 . S
C7674 H7668 0.930 . S
C7674 C7675 1.367 . S
C7674 C7682 1.378 . S
C7675 C7674 1.367 . S
C7675 C7683 1.433 . S
C7676 H7672 0.929 . S
C7676 C7678 1.378 . S
C7676 C7680 1.350 . S
C7677 C7680 1.463 . S
C7677 C7682 1.350 . S
C7677 N7685 1.427 . S
C7678 H7669 0.930 . S
C7678 C7676 1.378 . S
C7678 C7679 1.367 . S
C7679 C7678 1.367 . S
C7679 C7681 1.433 . S
C7680 C7676 1.350 . S
C7680 C7677 1.463 . S
C7680 N7684 1.427 . S
C7681 H7671 0.929 . S
C7681 C7679 1.433 . S
C7681 N7684 1.384 . S
C7682 H7673 0.929 . S
C7682 C7674 1.378 . S
C7682 C7677 1.350 . S
C7683 H7670 0.929 . S
C7683 C7675 1.433 . S
C7683 N7685 1.384 . S
N7684 C7680 1.427 . S
N7684 C7681 1.384 . S
N7685 C7677 1.427 . S
N7685 C7683 1.384 . S
H7686 C7692 0.930 . S
H7687 C7696 0.930 . S
H7688 C7701 0.929 . S
H7689 C7699 0.929 . S
H7690 C7694 0.929 . S
H7691 C7700 0.929 . S
C7692 H7686 0.930 . S
C7692 C7693 1.367 . S
C7692 C7700 1.378 . S
C7693 C7692 1.367 . S
C7693 C7701 1.433 . S
C7694 H7690 0.929 . S
C7694 C7696 1.378 . S
C7694 C7698 1.350 . S
C7695 C7698 1.463 . S
C7695 C7700 1.350 . S
C7695 N7703 1.427 . S
C7696 H7687 0.930 . S
C7696 C7694 1.378 . S
C7696 C7697 1.367 . S
C7697 C7696 1.367 . S
C7697 C7699 1.433 . S
C7698 C7694 1.350 . S
C7698 C7695 1.463 . S
C7698 N7702 1.427 . S
C7699 H7689 0.929 . S
C7699 C7697 1.433 . S
C7699 N7702 1.384 . S
C7700 H7691 0.929 . S
C7700 C7692 1.378 . S
C7700 C7695 1.350 . S
C7701 H7688 0.929 . S
C7701 C7693 1.433 . S
C7701 N7703 1.384 . S
N7702 C7698 1.427 . S
N7702 C7699 1.384 . S
N7703 C7695 1.427 . S
N7703 C7701 1.384 . S
H7704 C7710 0.930 . S
H7705 C7714 0.930 . S
H7706 C7719 0.929 . S
H7707 C7717 0.929 . S
H7708 C7712 0.929 . S
H7709 C7718 0.929 . S
C7710 H7704 0.930 . S
C7710 C7711 1.367 . S
C7710 C7718 1.378 . S
C7711 C7710 1.367 . S
C7711 C7719 1.433 . S
C7712 H7708 0.929 . S
C7712 C7714 1.378 . S
C7712 C7716 1.350 . S
C7713 C7716 1.463 . S
C7713 C7718 1.350 . S
C7713 N7721 1.427 . S
C7714 H7705 0.930 . S
C7714 C7712 1.378 . S
C7714 C7715 1.367 . S
C7715 C7714 1.367 . S
C7715 C7717 1.433 . S
C7716 C7712 1.350 . S
C7716 C7713 1.463 . S
C7716 N7720 1.427 . S
C7717 H7707 0.929 . S
C7717 C7715 1.433 . S
C7717 N7720 1.384 . S
C7718 H7709 0.929 . S
C7718 C7710 1.378 . S
C7718 C7713 1.350 . S
C7719 H7706 0.929 . S
C7719 C7711 1.433 . S
C7719 N7721 1.384 . S
N7720 C7716 1.427 . S
N7720 C7717 1.384 . S
N7721 C7713 1.427 . S
N7721 C7719 1.384 . S
H7722 C7728 0.930 . S
H7723 C7732 0.930 . S
H7724 C7737 0.929 . S
H7725 C7735 0.929 . S
H7726 C7730 0.929 . S
H7727 C7736 0.929 . S
C7728 H7722 0.930 . S
C7728 C7729 1.367 . S
C7728 C7736 1.378 . S
C7729 C7728 1.367 . S
C7729 C7737 1.433 . S
C7730 H7726 0.929 . S
C7730 C7732 1.378 . S
C7730 C7734 1.350 . S
C7731 C7734 1.463 . S
C7731 C7736 1.350 . S
C7731 N7739 1.427 . S
C7732 H7723 0.930 . S
C7732 C7730 1.378 . S
C7732 C7733 1.367 . S
C7733 C7732 1.367 . S
C7733 C7735 1.433 . S
C7734 C7730 1.350 . S
C7734 C7731 1.463 . S
C7734 N7738 1.427 . S
C7735 H7725 0.929 . S
C7735 C7733 1.433 . S
C7735 N7738 1.384 . S
C7736 H7727 0.929 . S
C7736 C7728 1.378 . S
C7736 C7731 1.350 . S
C7737 H7724 0.929 . S
C7737 C7729 1.433 . S
C7737 N7739 1.384 . S
N7738 C7734 1.427 . S
N7738 C7735 1.384 . S
N7739 C7731 1.427 . S
N7739 C7737 1.384 . S
H7740 C7746 0.930 . S
H7741 C7750 0.930 . S
H7742 C7755 0.929 . S
H7743 C7753 0.929 . S
H7744 C7748 0.929 . S
H7745 C7754 0.929 . S
C7746 H7740 0.930 . S
C7746 C7747 1.367 . S
C7746 C7754 1.378 . S
C7747 C7746 1.367 . S
C7747 C7755 1.433 . S
C7748 H7744 0.929 . S
C7748 C7750 1.378 . S
C7748 C7752 1.350 . S
C7749 C7752 1.463 . S
C7749 C7754 1.350 . S
C7749 N7757 1.427 . S
C7750 H7741 0.930 . S
C7750 C7748 1.378 . S
C7750 C7751 1.367 . S
C7751 C7750 1.367 . S
C7751 C7753 1.433 . S
C7752 C7748 1.350 . S
C7752 C7749 1.463 . S
C7752 N7756 1.427 . S
C7753 H7743 0.929 . S
C7753 C7751 1.433 . S
C7753 N7756 1.384 . S
C7754 H7745 0.929 . S
C7754 C7746 1.378 . S
C7754 C7749 1.350 . S
C7755 H7742 0.929 . S
C7755 C7747 1.433 . S
C7755 N7757 1.384 . S
N7756 C7752 1.427 . S
N7756 C7753 1.384 . S
N7757 C7749 1.427 . S
N7757 C7755 1.384 . S
H7758 C7764 0.930 . S
H7759 C7768 0.930 . S
H7760 C7773 0.929 . S
H7761 C7771 0.929 . S
H7762 C7766 0.929 . S
H7763 C7772 0.929 . S
C7764 H7758 0.930 . S
C7764 C7765 1.367 . S
C7764 C7772 1.378 . S
C7765 C7764 1.367 . S
C7765 C7773 1.433 . S
C7766 H7762 0.929 . S
C7766 C7768 1.378 . S
C7766 C7770 1.350 . S
C7767 C7770 1.463 . S
C7767 C7772 1.350 . S
C7767 N7775 1.427 . S
C7768 H7759 0.930 . S
C7768 C7766 1.378 . S
C7768 C7769 1.367 . S
C7769 C7768 1.367 . S
C7769 C7771 1.433 . S
C7770 C7766 1.350 . S
C7770 C7767 1.463 . S
C7770 N7774 1.427 . S
C7771 H7761 0.929 . S
C7771 C7769 1.433 . S
C7771 N7774 1.384 . S
C7772 H7763 0.929 . S
C7772 C7764 1.378 . S
C7772 C7767 1.350 . S
C7773 H7760 0.929 . S
C7773 C7765 1.433 . S
C7773 N7775 1.384 . S
N7774 C7770 1.427 . S
N7774 C7771 1.384 . S
N7775 C7767 1.427 . S
N7775 C7773 1.384 . S
H7776 C7782 0.930 . S
H7777 C7786 0.930 . S
H7778 C7791 0.929 . S
H7779 C7789 0.929 . S
H7780 C7784 0.929 . S
H7781 C7790 0.929 . S
C7782 H7776 0.930 . S
C7782 C7783 1.367 . S
C7782 C7790 1.378 . S
C7783 C7782 1.367 . S
C7783 C7791 1.433 . S
C7784 H7780 0.929 . S
C7784 C7786 1.378 . S
C7784 C7788 1.350 . S
C7785 C7788 1.463 . S
C7785 C7790 1.350 . S
C7785 N7793 1.427 . S
C7786 H7777 0.930 . S
C7786 C7784 1.378 . S
C7786 C7787 1.367 . S
C7787 C7786 1.367 . S
C7787 C7789 1.433 . S
C7788 C7784 1.350 . S
C7788 C7785 1.463 . S
C7788 N7792 1.427 . S
C7789 H7779 0.929 . S
C7789 C7787 1.433 . S
C7789 N7792 1.384 . S
C7790 H7781 0.929 . S
C7790 C7782 1.378 . S
C7790 C7785 1.350 . S
C7791 H7778 0.929 . S
C7791 C7783 1.433 . S
C7791 N7793 1.384 . S
N7792 C7788 1.427 . S
N7792 C7789 1.384 . S
N7793 C7785 1.427 . S
N7793 C7791 1.384 . S
H7794 C7800 0.930 . S
H7795 C7804 0.930 . S
H7796 C7809 0.929 . S
H7797 C7807 0.929 . S
H7798 C7802 0.929 . S
H7799 C7808 0.929 . S
C7800 H7794 0.930 . S
C7800 C7801 1.367 . S
C7800 C7808 1.378 . S
C7801 C7800 1.367 . S
C7801 C7809 1.433 . S
C7802 H7798 0.929 . S
C7802 C7804 1.378 . S
C7802 C7806 1.350 . S
C7803 C7806 1.463 . S
C7803 C7808 1.350 . S
C7803 N7811 1.427 . S
C7804 H7795 0.930 . S
C7804 C7802 1.378 . S
C7804 C7805 1.367 . S
C7805 C7804 1.367 . S
C7805 C7807 1.433 . S
C7806 C7802 1.350 . S
C7806 C7803 1.463 . S
C7806 N7810 1.427 . S
C7807 H7797 0.929 . S
C7807 C7805 1.433 . S
C7807 N7810 1.384 . S
C7808 H7799 0.929 . S
C7808 C7800 1.378 . S
C7808 C7803 1.350 . S
C7809 H7796 0.929 . S
C7809 C7801 1.433 . S
C7809 N7811 1.384 . S
N7810 C7806 1.427 . S
N7810 C7807 1.384 . S
N7811 C7803 1.427 . S
N7811 C7809 1.384 . S
H7812 C7818 0.930 . S
H7813 C7822 0.930 . S
H7814 C7827 0.929 . S
H7815 C7825 0.929 . S
H7816 C7820 0.929 . S
H7817 C7826 0.929 . S
C7818 H7812 0.930 . S
C7818 C7819 1.367 . S
C7818 C7826 1.378 . S
C7819 C7818 1.367 . S
C7819 C7827 1.433 . S
C7820 H7816 0.929 . S
C7820 C7822 1.378 . S
C7820 C7824 1.350 . S
C7821 C7824 1.463 . S
C7821 C7826 1.350 . S
C7821 N7829 1.427 . S
C7822 H7813 0.930 . S
C7822 C7820 1.378 . S
C7822 C7823 1.367 . S
C7823 C7822 1.367 . S
C7823 C7825 1.433 . S
C7824 C7820 1.350 . S
C7824 C7821 1.463 . S
C7824 N7828 1.427 . S
C7825 H7815 0.929 . S
C7825 C7823 1.433 . S
C7825 N7828 1.384 . S
C7826 H7817 0.929 . S
C7826 C7818 1.378 . S
C7826 C7821 1.350 . S
C7827 H7814 0.929 . S
C7827 C7819 1.433 . S
C7827 N7829 1.384 . S
N7828 C7824 1.427 . S
N7828 C7825 1.384 . S
N7829 C7821 1.427 . S
N7829 C7827 1.384 . S
H7830 C7836 0.930 . S
H7831 C7840 0.930 . S
H7832 C7845 0.929 . S
H7833 C7843 0.929 . S
H7834 C7838 0.929 . S
H7835 C7844 0.929 . S
C7836 H7830 0.930 . S
C7836 C7837 1.367 . S
C7836 C7844 1.378 . S
C7837 C7836 1.367 . S
C7837 C7845 1.433 . S
C7838 H7834 0.929 . S
C7838 C7840 1.378 . S
C7838 C7842 1.350 . S
C7839 C7842 1.463 . S
C7839 C7844 1.350 . S
C7839 N7847 1.427 . S
C7840 H7831 0.930 . S
C7840 C7838 1.378 . S
C7840 C7841 1.367 . S
C7841 C7840 1.367 . S
C7841 C7843 1.433 . S
C7842 C7838 1.350 . S
C7842 C7839 1.463 . S
C7842 N7846 1.427 . S
C7843 H7833 0.929 . S
C7843 C7841 1.433 . S
C7843 N7846 1.384 . S
C7844 H7835 0.929 . S
C7844 C7836 1.378 . S
C7844 C7839 1.350 . S
C7845 H7832 0.929 . S
C7845 C7837 1.433 . S
C7845 N7847 1.384 . S
N7846 C7842 1.427 . S
N7846 C7843 1.384 . S
N7847 C7839 1.427 . S
N7847 C7845 1.384 . S
H7848 C7854 0.930 . S
H7849 C7858 0.930 . S
H7850 C7863 0.929 . S
H7851 C7861 0.929 . S
H7852 C7856 0.929 . S
H7853 C7862 0.929 . S
C7854 H7848 0.930 . S
C7854 C7855 1.367 . S
C7854 C7862 1.378 . S
C7855 C7854 1.367 . S
C7855 C7863 1.433 . S
C7856 H7852 0.929 . S
C7856 C7858 1.378 . S
C7856 C7860 1.350 . S
C7857 C7860 1.463 . S
C7857 C7862 1.350 . S
C7857 N7865 1.427 . S
C7858 H7849 0.930 . S
C7858 C7856 1.378 . S
C7858 C7859 1.367 . S
C7859 C7858 1.367 . S
C7859 C7861 1.433 . S
C7860 C7856 1.350 . S
C7860 C7857 1.463 . S
C7860 N7864 1.427 . S
C7861 H7851 0.929 . S
C7861 C7859 1.433 . S
C7861 N7864 1.384 . S
C7862 H7853 0.929 . S
C7862 C7854 1.378 . S
C7862 C7857 1.350 . S
C7863 H7850 0.929 . S
C7863 C7855 1.433 . S
C7863 N7865 1.384 . S
N7864 C7860 1.427 . S
N7864 C7861 1.384 . S
N7865 C7857 1.427 . S
N7865 C7863 1.384 . S
H7866 C7872 0.930 . S
H7867 C7876 0.930 . S
H7868 C7881 0.929 . S
H7869 C7879 0.929 . S
H7870 C7874 0.929 . S
H7871 C7880 0.929 . S
C7872 H7866 0.930 . S
C7872 C7873 1.367 . S
C7872 C7880 1.378 . S
C7873 C7872 1.367 . S
C7873 C7881 1.433 . S
C7874 H7870 0.929 . S
C7874 C7876 1.378 . S
C7874 C7878 1.350 . S
C7875 C7878 1.463 . S
C7875 C7880 1.350 . S
C7875 N7883 1.427 . S
C7876 H7867 0.930 . S
C7876 C7874 1.378 . S
C7876 C7877 1.367 . S
C7877 C7876 1.367 . S
C7877 C7879 1.433 . S
C7878 C7874 1.350 . S
C7878 C7875 1.463 . S
C7878 N7882 1.427 . S
C7879 H7869 0.929 . S
C7879 C7877 1.433 . S
C7879 N7882 1.384 . S
C7880 H7871 0.929 . S
C7880 C7872 1.378 . S
C7880 C7875 1.350 . S
C7881 H7868 0.929 . S
C7881 C7873 1.433 . S
C7881 N7883 1.384 . S
N7882 C7878 1.427 . S
N7882 C7879 1.384 . S
N7883 C7875 1.427 . S
N7883 C7881 1.384 . S
H7884 C7890 0.930 . S
H7885 C7894 0.930 . S
H7886 C7899 0.929 . S
H7887 C7897 0.929 . S
H7888 C7892 0.929 . S
H7889 C7898 0.929 . S
C7890 H7884 0.930 . S
C7890 C7891 1.367 . S
C7890 C7898 1.378 . S
C7891 C7890 1.367 . S
C7891 C7899 1.433 . S
C7892 H7888 0.929 . S
C7892 C7894 1.378 . S
C7892 C7896 1.350 . S
C7893 C7896 1.463 . S
C7893 C7898 1.350 . S
C7893 N7901 1.427 . S
C7894 H7885 0.930 . S
C7894 C7892 1.378 . S
C7894 C7895 1.367 . S
C7895 C7894 1.367 . S
C7895 C7897 1.433 . S
C7896 C7892 1.350 . S
C7896 C7893 1.463 . S
C7896 N7900 1.427 . S
C7897 H7887 0.929 . S
C7897 C7895 1.433 . S
C7897 N7900 1.384 . S
C7898 H7889 0.929 . S
C7898 C7890 1.378 . S
C7898 C7893 1.350 . S
C7899 H7886 0.929 . S
C7899 C7891 1.433 . S
C7899 N7901 1.384 . S
N7900 C7896 1.427 . S
N7900 C7897 1.384 . S
N7901 C7893 1.427 . S
N7901 C7899 1.384 . S
H7902 C7908 0.930 . S
H7903 C7912 0.930 . S
H7904 C7917 0.929 . S
H7905 C7915 0.929 . S
H7906 C7910 0.929 . S
H7907 C7916 0.929 . S
C7908 H7902 0.930 . S
C7908 C7909 1.367 . S
C7908 C7916 1.378 . S
C7909 C7908 1.367 . S
C7909 C7917 1.433 . S
C7910 H7906 0.929 . S
C7910 C7912 1.378 . S
C7910 C7914 1.350 . S
C7911 C7914 1.463 . S
C7911 C7916 1.350 . S
C7911 N7919 1.427 . S
C7912 H7903 0.930 . S
C7912 C7910 1.378 . S
C7912 C7913 1.367 . S
C7913 C7912 1.367 . S
C7913 C7915 1.433 . S
C7914 C7910 1.350 . S
C7914 C7911 1.463 . S
C7914 N7918 1.427 . S
C7915 H7905 0.929 . S
C7915 C7913 1.433 . S
C7915 N7918 1.384 . S
C7916 H7907 0.929 . S
C7916 C7908 1.378 . S
C7916 C7911 1.350 . S
C7917 H7904 0.929 . S
C7917 C7909 1.433 . S
C7917 N7919 1.384 . S
N7918 C7914 1.427 . S
N7918 C7915 1.384 . S
N7919 C7911 1.427 . S
N7919 C7917 1.384 . S
H7920 C7926 0.930 . S
H7921 C7930 0.930 . S
H7922 C7935 0.929 . S
H7923 C7933 0.929 . S
H7924 C7928 0.929 . S
H7925 C7934 0.929 . S
C7926 H7920 0.930 . S
C7926 C7927 1.367 . S
C7926 C7934 1.378 . S
C7927 C7926 1.367 . S
C7927 C7935 1.433 . S
C7928 H7924 0.929 . S
C7928 C7930 1.378 . S
C7928 C7932 1.350 . S
C7929 C7932 1.463 . S
C7929 C7934 1.350 . S
C7929 N7937 1.427 . S
C7930 H7921 0.930 . S
C7930 C7928 1.378 . S
C7930 C7931 1.367 . S
C7931 C7930 1.367 . S
C7931 C7933 1.433 . S
C7932 C7928 1.350 . S
C7932 C7929 1.463 . S
C7932 N7936 1.427 . S
C7933 H7923 0.929 . S
C7933 C7931 1.433 . S
C7933 N7936 1.384 . S
C7934 H7925 0.929 . S
C7934 C7926 1.378 . S
C7934 C7929 1.350 . S
C7935 H7922 0.929 . S
C7935 C7927 1.433 . S
C7935 N7937 1.384 . S
N7936 C7932 1.427 . S
N7936 C7933 1.384 . S
N7937 C7929 1.427 . S
N7937 C7935 1.384 . S
H7938 C7944 0.930 . S
H7939 C7948 0.930 . S
H7940 C7953 0.929 . S
H7941 C7951 0.929 . S
H7942 C7946 0.929 . S
H7943 C7952 0.929 . S
C7944 H7938 0.930 . S
C7944 C7945 1.367 . S
C7944 C7952 1.378 . S
C7945 C7944 1.367 . S
C7945 C7953 1.433 . S
C7946 H7942 0.929 . S
C7946 C7948 1.378 . S
C7946 C7950 1.350 . S
C7947 C7950 1.463 . S
C7947 C7952 1.350 . S
C7947 N7955 1.427 . S
C7948 H7939 0.930 . S
C7948 C7946 1.378 . S
C7948 C7949 1.367 . S
C7949 C7948 1.367 . S
C7949 C7951 1.433 . S
C7950 C7946 1.350 . S
C7950 C7947 1.463 . S
C7950 N7954 1.427 . S
C7951 H7941 0.929 . S
C7951 C7949 1.433 . S
C7951 N7954 1.384 . S
C7952 H7943 0.929 . S
C7952 C7944 1.378 . S
C7952 C7947 1.350 . S
C7953 H7940 0.929 . S
C7953 C7945 1.433 . S
C7953 N7955 1.384 . S
N7954 C7950 1.427 . S
N7954 C7951 1.384 . S
N7955 C7947 1.427 . S
N7955 C7953 1.384 . S
H7956 C7962 0.930 . S
H7957 C7966 0.930 . S
H7958 C7971 0.929 . S
H7959 C7969 0.929 . S
H7960 C7964 0.929 . S
H7961 C7970 0.929 . S
C7962 H7956 0.930 . S
C7962 C7963 1.367 . S
C7962 C7970 1.378 . S
C7963 C7962 1.367 . S
C7963 C7971 1.433 . S
C7964 H7960 0.929 . S
C7964 C7966 1.378 . S
C7964 C7968 1.350 . S
C7965 C7968 1.463 . S
C7965 C7970 1.350 . S
C7965 N7973 1.427 . S
C7966 H7957 0.930 . S
C7966 C7964 1.378 . S
C7966 C7967 1.367 . S
C7967 C7966 1.367 . S
C7967 C7969 1.433 . S
C7968 C7964 1.350 . S
C7968 C7965 1.463 . S
C7968 N7972 1.427 . S
C7969 H7959 0.929 . S
C7969 C7967 1.433 . S
C7969 N7972 1.384 . S
C7970 H7961 0.929 . S
C7970 C7962 1.378 . S
C7970 C7965 1.350 . S
C7971 H7958 0.929 . S
C7971 C7963 1.433 . S
C7971 N7973 1.384 . S
N7972 C7968 1.427 . S
N7972 C7969 1.384 . S
N7973 C7965 1.427 . S
N7973 C7971 1.384 . S
H7974 C7980 0.930 . S
H7975 C7984 0.930 . S
H7976 C7989 0.929 . S
H7977 C7987 0.929 . S
H7978 C7982 0.929 . S
H7979 C7988 0.929 . S
C7980 H7974 0.930 . S
C7980 C7981 1.367 . S
C7980 C7988 1.378 . S
C7981 C7980 1.367 . S
C7981 C7989 1.433 . S
C7982 H7978 0.929 . S
C7982 C7984 1.378 . S
C7982 C7986 1.350 . S
C7983 C7986 1.463 . S
C7983 C7988 1.350 . S
C7983 N7991 1.427 . S
C7984 H7975 0.930 . S
C7984 C7982 1.378 . S
C7984 C7985 1.367 . S
C7985 C7984 1.367 . S
C7985 C7987 1.433 . S
C7986 C7982 1.350 . S
C7986 C7983 1.463 . S
C7986 N7990 1.427 . S
C7987 H7977 0.929 . S
C7987 C7985 1.433 . S
C7987 N7990 1.384 . S
C7988 H7979 0.929 . S
C7988 C7980 1.378 . S
C7988 C7983 1.350 . S
C7989 H7976 0.929 . S
C7989 C7981 1.433 . S
C7989 N7991 1.384 . S
N7990 C7986 1.427 . S
N7990 C7987 1.384 . S
N7991 C7983 1.427 . S
N7991 C7989 1.384 . S
H7992 C7998 0.930 . S
H7993 C8002 0.930 . S
H7994 C8007 0.929 . S
H7995 C8005 0.929 . S
H7996 C8000 0.929 . S
H7997 C8006 0.929 . S
C7998 H7992 0.930 . S
C7998 C7999 1.367 . S
C7998 C8006 1.378 . S
C7999 C7998 1.367 . S
C7999 C8007 1.433 . S
C8000 H7996 0.929 . S
C8000 C8002 1.378 . S
C8000 C8004 1.350 . S
C8001 C8004 1.463 . S
C8001 C8006 1.350 . S
C8001 N8009 1.427 . S
C8002 H7993 0.930 . S
C8002 C8000 1.378 . S
C8002 C8003 1.367 . S
C8003 C8002 1.367 . S
C8003 C8005 1.433 . S
C8004 C8000 1.350 . S
C8004 C8001 1.463 . S
C8004 N8008 1.427 . S
C8005 H7995 0.929 . S
C8005 C8003 1.433 . S
C8005 N8008 1.384 . S
C8006 H7997 0.929 . S
C8006 C7998 1.378 . S
C8006 C8001 1.350 . S
C8007 H7994 0.929 . S
C8007 C7999 1.433 . S
C8007 N8009 1.384 . S
N8008 C8004 1.427 . S
N8008 C8005 1.384 . S
N8009 C8001 1.427 . S
N8009 C8007 1.384 . S
H8010 C8016 0.930 . S
H8011 C8020 0.930 . S
H8012 C8025 0.929 . S
H8013 C8023 0.929 . S
H8014 C8018 0.929 . S
H8015 C8024 0.929 . S
C8016 H8010 0.930 . S
C8016 C8017 1.367 . S
C8016 C8024 1.378 . S
C8017 C8016 1.367 . S
C8017 C8025 1.433 . S
C8018 H8014 0.929 . S
C8018 C8020 1.378 . S
C8018 C8022 1.350 . S
C8019 C8022 1.463 . S
C8019 C8024 1.350 . S
C8019 N8027 1.427 . S
C8020 H8011 0.930 . S
C8020 C8018 1.378 . S
C8020 C8021 1.367 . S
C8021 C8020 1.367 . S
C8021 C8023 1.433 . S
C8022 C8018 1.350 . S
C8022 C8019 1.463 . S
C8022 N8026 1.427 . S
C8023 H8013 0.929 . S
C8023 C8021 1.433 . S
C8023 N8026 1.384 . S
C8024 H8015 0.929 . S
C8024 C8016 1.378 . S
C8024 C8019 1.350 . S
C8025 H8012 0.929 . S
C8025 C8017 1.433 . S
C8025 N8027 1.384 . S
N8026 C8022 1.427 . S
N8026 C8023 1.384 . S
N8027 C8019 1.427 . S
N8027 C8025 1.384 . S
H8028 C8034 0.930 . S
H8029 C8038 0.930 . S
H8030 C8043 0.929 . S
H8031 C8041 0.929 . S
H8032 C8036 0.929 . S
H8033 C8042 0.929 . S
C8034 H8028 0.930 . S
C8034 C8035 1.367 . S
C8034 C8042 1.378 . S
C8035 C8034 1.367 . S
C8035 C8043 1.433 . S
C8036 H8032 0.929 . S
C8036 C8038 1.378 . S
C8036 C8040 1.350 . S
C8037 C8040 1.463 . S
C8037 C8042 1.350 . S
C8037 N8045 1.427 . S
C8038 H8029 0.930 . S
C8038 C8036 1.378 . S
C8038 C8039 1.367 . S
C8039 C8038 1.367 . S
C8039 C8041 1.433 . S
C8040 C8036 1.350 . S
C8040 C8037 1.463 . S
C8040 N8044 1.427 . S
C8041 H8031 0.929 . S
C8041 C8039 1.433 . S
C8041 N8044 1.384 . S
C8042 H8033 0.929 . S
C8042 C8034 1.378 . S
C8042 C8037 1.350 . S
C8043 H8030 0.929 . S
C8043 C8035 1.433 . S
C8043 N8045 1.384 . S
N8044 C8040 1.427 . S
N8044 C8041 1.384 . S
N8045 C8037 1.427 . S
N8045 C8043 1.384 . S
H8046 C8052 0.930 . S
H8047 C8056 0.930 . S
H8048 C8061 0.929 . S
H8049 C8059 0.929 . S
H8050 C8054 0.929 . S
H8051 C8060 0.929 . S
C8052 H8046 0.930 . S
C8052 C8053 1.367 . S
C8052 C8060 1.378 . S
C8053 C8052 1.367 . S
C8053 C8061 1.433 . S
C8054 H8050 0.929 . S
C8054 C8056 1.378 . S
C8054 C8058 1.350 . S
C8055 C8058 1.463 . S
C8055 C8060 1.350 . S
C8055 N8063 1.427 . S
C8056 H8047 0.930 . S
C8056 C8054 1.378 . S
C8056 C8057 1.367 . S
C8057 C8056 1.367 . S
C8057 C8059 1.433 . S
C8058 C8054 1.350 . S
C8058 C8055 1.463 . S
C8058 N8062 1.427 . S
C8059 H8049 0.929 . S
C8059 C8057 1.433 . S
C8059 N8062 1.384 . S
C8060 H8051 0.929 . S
C8060 C8052 1.378 . S
C8060 C8055 1.350 . S
C8061 H8048 0.929 . S
C8061 C8053 1.433 . S
C8061 N8063 1.384 . S
N8062 C8058 1.427 . S
N8062 C8059 1.384 . S
N8063 C8055 1.427 . S
N8063 C8061 1.384 . S
H8064 C8070 0.930 . S
H8065 C8074 0.930 . S
H8066 C8079 0.929 . S
H8067 C8077 0.929 . S
H8068 C8072 0.929 . S
H8069 C8078 0.929 . S
C8070 H8064 0.930 . S
C8070 C8071 1.367 . S
C8070 C8078 1.378 . S
C8071 C8070 1.367 . S
C8071 C8079 1.433 . S
C8072 H8068 0.929 . S
C8072 C8074 1.378 . S
C8072 C8076 1.350 . S
C8073 C8076 1.463 . S
C8073 C8078 1.350 . S
C8073 N8081 1.427 . S
C8074 H8065 0.930 . S
C8074 C8072 1.378 . S
C8074 C8075 1.367 . S
C8075 C8074 1.367 . S
C8075 C8077 1.433 . S
C8076 C8072 1.350 . S
C8076 C8073 1.463 . S
C8076 N8080 1.427 . S
C8077 H8067 0.929 . S
C8077 C8075 1.433 . S
C8077 N8080 1.384 . S
C8078 H8069 0.929 . S
C8078 C8070 1.378 . S
C8078 C8073 1.350 . S
C8079 H8066 0.929 . S
C8079 C8071 1.433 . S
C8079 N8081 1.384 . S
N8080 C8076 1.427 . S
N8080 C8077 1.384 . S
N8081 C8073 1.427 . S
N8081 C8079 1.384 . S
H8082 C8088 0.930 . S
H8083 C8092 0.930 . S
H8084 C8097 0.929 . S
H8085 C8095 0.929 . S
H8086 C8090 0.929 . S
H8087 C8096 0.929 . S
C8088 H8082 0.930 . S
C8088 C8089 1.367 . S
C8088 C8096 1.378 . S
C8089 C8088 1.367 . S
C8089 C8097 1.433 . S
C8090 H8086 0.929 . S
C8090 C8092 1.378 . S
C8090 C8094 1.350 . S
C8091 C8094 1.463 . S
C8091 C8096 1.350 . S
C8091 N8099 1.427 . S
C8092 H8083 0.930 . S
C8092 C8090 1.378 . S
C8092 C8093 1.367 . S
C8093 C8092 1.367 . S
C8093 C8095 1.433 . S
C8094 C8090 1.350 . S
C8094 C8091 1.463 . S
C8094 N8098 1.427 . S
C8095 H8085 0.929 . S
C8095 C8093 1.433 . S
C8095 N8098 1.384 . S
C8096 H8087 0.929 . S
C8096 C8088 1.378 . S
C8096 C8091 1.350 . S
C8097 H8084 0.929 . S
C8097 C8089 1.433 . S
C8097 N8099 1.384 . S
N8098 C8094 1.427 . S
N8098 C8095 1.384 . S
N8099 C8091 1.427 . S
N8099 C8097 1.384 . S
H8100 C8106 0.930 . S
H8101 C8110 0.930 . S
H8102 C8115 0.929 . S
H8103 C8113 0.929 . S
H8104 C8108 0.929 . S
H8105 C8114 0.929 . S
C8106 H8100 0.930 . S
C8106 C8107 1.367 . S
C8106 C8114 1.378 . S
C8107 C8106 1.367 . S
C8107 C8115 1.433 . S
C8108 H8104 0.929 . S
C8108 C8110 1.378 . S
C8108 C8112 1.350 . S
C8109 C8112 1.463 . S
C8109 C8114 1.350 . S
C8109 N8117 1.427 . S
C8110 H8101 0.930 . S
C8110 C8108 1.378 . S
C8110 C8111 1.367 . S
C8111 C8110 1.367 . S
C8111 C8113 1.433 . S
C8112 C8108 1.350 . S
C8112 C8109 1.463 . S
C8112 N8116 1.427 . S
C8113 H8103 0.929 . S
C8113 C8111 1.433 . S
C8113 N8116 1.384 . S
C8114 H8105 0.929 . S
C8114 C8106 1.378 . S
C8114 C8109 1.350 . S
C8115 H8102 0.929 . S
C8115 C8107 1.433 . S
C8115 N8117 1.384 . S
N8116 C8112 1.427 . S
N8116 C8113 1.384 . S
N8117 C8109 1.427 . S
N8117 C8115 1.384 . S
H8118 C8124 0.930 . S
H8119 C8128 0.930 . S
H8120 C8133 0.929 . S
H8121 C8131 0.929 . S
H8122 C8126 0.929 . S
H8123 C8132 0.929 . S
C8124 H8118 0.930 . S
C8124 C8125 1.367 . S
C8124 C8132 1.378 . S
C8125 C8124 1.367 . S
C8125 C8133 1.433 . S
C8126 H8122 0.929 . S
C8126 C8128 1.378 . S
C8126 C8130 1.350 . S
C8127 C8130 1.463 . S
C8127 C8132 1.350 . S
C8127 N8135 1.427 . S
C8128 H8119 0.930 . S
C8128 C8126 1.378 . S
C8128 C8129 1.367 . S
C8129 C8128 1.367 . S
C8129 C8131 1.433 . S
C8130 C8126 1.350 . S
C8130 C8127 1.463 . S
C8130 N8134 1.427 . S
C8131 H8121 0.929 . S
C8131 C8129 1.433 . S
C8131 N8134 1.384 . S
C8132 H8123 0.929 . S
C8132 C8124 1.378 . S
C8132 C8127 1.350 . S
C8133 H8120 0.929 . S
C8133 C8125 1.433 . S
C8133 N8135 1.384 . S
N8134 C8130 1.427 . S
N8134 C8131 1.384 . S
N8135 C8127 1.427 . S
N8135 C8133 1.384 . S
H8136 C8142 0.930 . S
H8137 C8146 0.930 . S
H8138 C8151 0.929 . S
H8139 C8149 0.929 . S
H8140 C8144 0.929 . S
H8141 C8150 0.929 . S
C8142 H8136 0.930 . S
C8142 C8143 1.367 . S
C8142 C8150 1.378 . S
C8143 C8142 1.367 . S
C8143 C8151 1.433 . S
C8144 H8140 0.929 . S
C8144 C8146 1.378 . S
C8144 C8148 1.350 . S
C8145 C8148 1.463 . S
C8145 C8150 1.350 . S
C8145 N8153 1.427 . S
C8146 H8137 0.930 . S
C8146 C8144 1.378 . S
C8146 C8147 1.367 . S
C8147 C8146 1.367 . S
C8147 C8149 1.433 . S
C8148 C8144 1.350 . S
C8148 C8145 1.463 . S
C8148 N8152 1.427 . S
C8149 H8139 0.929 . S
C8149 C8147 1.433 . S
C8149 N8152 1.384 . S
C8150 H8141 0.929 . S
C8150 C8142 1.378 . S
C8150 C8145 1.350 . S
C8151 H8138 0.929 . S
C8151 C8143 1.433 . S
C8151 N8153 1.384 . S
N8152 C8148 1.427 . S
N8152 C8149 1.384 . S
N8153 C8145 1.427 . S
N8153 C8151 1.384 . S
H8154 C8160 0.930 . S
H8155 C8164 0.930 . S
H8156 C8169 0.929 . S
H8157 C8167 0.929 . S
H8158 C8162 0.929 . S
H8159 C8168 0.929 . S
C8160 H8154 0.930 . S
C8160 C8161 1.367 . S
C8160 C8168 1.378 . S
C8161 C8160 1.367 . S
C8161 C8169 1.433 . S
C8162 H8158 0.929 . S
C8162 C8164 1.378 . S
C8162 C8166 1.350 . S
C8163 C8166 1.463 . S
C8163 C8168 1.350 . S
C8163 N8171 1.427 . S
C8164 H8155 0.930 . S
C8164 C8162 1.378 . S
C8164 C8165 1.367 . S
C8165 C8164 1.367 . S
C8165 C8167 1.433 . S
C8166 C8162 1.350 . S
C8166 C8163 1.463 . S
C8166 N8170 1.427 . S
C8167 H8157 0.929 . S
C8167 C8165 1.433 . S
C8167 N8170 1.384 . S
C8168 H8159 0.929 . S
C8168 C8160 1.378 . S
C8168 C8163 1.350 . S
C8169 H8156 0.929 . S
C8169 C8161 1.433 . S
C8169 N8171 1.384 . S
N8170 C8166 1.427 . S
N8170 C8167 1.384 . S
N8171 C8163 1.427 . S
N8171 C8169 1.384 . S
H8172 C8178 0.930 . S
H8173 C8182 0.930 . S
H8174 C8187 0.929 . S
H8175 C8185 0.929 . S
H8176 C8180 0.929 . S
H8177 C8186 0.929 . S
C8178 H8172 0.930 . S
C8178 C8179 1.367 . S
C8178 C8186 1.378 . S
C8179 C8178 1.367 . S
C8179 C8187 1.433 . S
C8180 H8176 0.929 . S
C8180 C8182 1.378 . S
C8180 C8184 1.350 . S
C8181 C8184 1.463 . S
C8181 C8186 1.350 . S
C8181 N8189 1.427 . S
C8182 H8173 0.930 . S
C8182 C8180 1.378 . S
C8182 C8183 1.367 . S
C8183 C8182 1.367 . S
C8183 C8185 1.433 . S
C8184 C8180 1.350 . S
C8184 C8181 1.463 . S
C8184 N8188 1.427 . S
C8185 H8175 0.929 . S
C8185 C8183 1.433 . S
C8185 N8188 1.384 . S
C8186 H8177 0.929 . S
C8186 C8178 1.378 . S
C8186 C8181 1.350 . S
C8187 H8174 0.929 . S
C8187 C8179 1.433 . S
C8187 N8189 1.384 . S
N8188 C8184 1.427 . S
N8188 C8185 1.384 . S
N8189 C8181 1.427 . S
N8189 C8187 1.384 . S
H8190 C8196 0.930 . S
H8191 C8200 0.930 . S
H8192 C8205 0.929 . S
H8193 C8203 0.929 . S
H8194 C8198 0.929 . S
H8195 C8204 0.929 . S
C8196 H8190 0.930 . S
C8196 C8197 1.367 . S
C8196 C8204 1.378 . S
C8197 C8196 1.367 . S
C8197 C8205 1.433 . S
C8198 H8194 0.929 . S
C8198 C8200 1.378 . S
C8198 C8202 1.350 . S
C8199 C8202 1.463 . S
C8199 C8204 1.350 . S
C8199 N8207 1.427 . S
C8200 H8191 0.930 . S
C8200 C8198 1.378 . S
C8200 C8201 1.367 . S
C8201 C8200 1.367 . S
C8201 C8203 1.433 . S
C8202 C8198 1.350 . S
C8202 C8199 1.463 . S
C8202 N8206 1.427 . S
C8203 H8193 0.929 . S
C8203 C8201 1.433 . S
C8203 N8206 1.384 . S
C8204 H8195 0.929 . S
C8204 C8196 1.378 . S
C8204 C8199 1.350 . S
C8205 H8192 0.929 . S
C8205 C8197 1.433 . S
C8205 N8207 1.384 . S
N8206 C8202 1.427 . S
N8206 C8203 1.384 . S
N8207 C8199 1.427 . S
N8207 C8205 1.384 . S
H8208 C8214 0.930 . S
H8209 C8218 0.930 . S
H8210 C8223 0.929 . S
H8211 C8221 0.929 . S
H8212 C8216 0.929 . S
H8213 C8222 0.929 . S
C8214 H8208 0.930 . S
C8214 C8215 1.367 . S
C8214 C8222 1.378 . S
C8215 C8214 1.367 . S
C8215 C8223 1.433 . S
C8216 H8212 0.929 . S
C8216 C8218 1.378 . S
C8216 C8220 1.350 . S
C8217 C8220 1.463 . S
C8217 C8222 1.350 . S
C8217 N8225 1.427 . S
C8218 H8209 0.930 . S
C8218 C8216 1.378 . S
C8218 C8219 1.367 . S
C8219 C8218 1.367 . S
C8219 C8221 1.433 . S
C8220 C8216 1.350 . S
C8220 C8217 1.463 . S
C8220 N8224 1.427 . S
C8221 H8211 0.929 . S
C8221 C8219 1.433 . S
C8221 N8224 1.384 . S
C8222 H8213 0.929 . S
C8222 C8214 1.378 . S
C8222 C8217 1.350 . S
C8223 H8210 0.929 . S
C8223 C8215 1.433 . S
C8223 N8225 1.384 . S
N8224 C8220 1.427 . S
N8224 C8221 1.384 . S
N8225 C8217 1.427 . S
N8225 C8223 1.384 . S
H8226 C8232 0.930 . S
H8227 C8236 0.930 . S
H8228 C8241 0.929 . S
H8229 C8239 0.929 . S
H8230 C8234 0.929 . S
H8231 C8240 0.929 . S
C8232 H8226 0.930 . S
C8232 C8233 1.367 . S
C8232 C8240 1.378 . S
C8233 C8232 1.367 . S
C8233 C8241 1.433 . S
C8234 H8230 0.929 . S
C8234 C8236 1.378 . S
C8234 C8238 1.350 . S
C8235 C8238 1.463 . S
C8235 C8240 1.350 . S
C8235 N8243 1.427 . S
C8236 H8227 0.930 . S
C8236 C8234 1.378 . S
C8236 C8237 1.367 . S
C8237 C8236 1.367 . S
C8237 C8239 1.433 . S
C8238 C8234 1.350 . S
C8238 C8235 1.463 . S
C8238 N8242 1.427 . S
C8239 H8229 0.929 . S
C8239 C8237 1.433 . S
C8239 N8242 1.384 . S
C8240 H8231 0.929 . S
C8240 C8232 1.378 . S
C8240 C8235 1.350 . S
C8241 H8228 0.929 . S
C8241 C8233 1.433 . S
C8241 N8243 1.384 . S
N8242 C8238 1.427 . S
N8242 C8239 1.384 . S
N8243 C8235 1.427 . S
N8243 C8241 1.384 . S
H8244 C8250 0.930 . S
H8245 C8254 0.930 . S
H8246 C8259 0.929 . S
H8247 C8257 0.929 . S
H8248 C8252 0.929 . S
H8249 C8258 0.929 . S
C8250 H8244 0.930 . S
C8250 C8251 1.367 . S
C8250 C8258 1.378 . S
C8251 C8250 1.367 . S
C8251 C8259 1.433 . S
C8252 H8248 0.929 . S
C8252 C8254 1.378 . S
C8252 C8256 1.350 . S
C8253 C8256 1.463 . S
C8253 C8258 1.350 . S
C8253 N8261 1.427 . S
C8254 H8245 0.930 . S
C8254 C8252 1.378 . S
C8254 C8255 1.367 . S
C8255 C8254 1.367 . S
C8255 C8257 1.433 . S
C8256 C8252 1.350 . S
C8256 C8253 1.463 . S
C8256 N8260 1.427 . S
C8257 H8247 0.929 . S
C8257 C8255 1.433 . S
C8257 N8260 1.384 . S
C8258 H8249 0.929 . S
C8258 C8250 1.378 . S
C8258 C8253 1.350 . S
C8259 H8246 0.929 . S
C8259 C8251 1.433 . S
C8259 N8261 1.384 . S
N8260 C8256 1.427 . S
N8260 C8257 1.384 . S
N8261 C8253 1.427 . S
N8261 C8259 1.384 . S
H8262 C8268 0.930 . S
H8263 C8272 0.930 . S
H8264 C8277 0.929 . S
H8265 C8275 0.929 . S
H8266 C8270 0.929 . S
H8267 C8276 0.929 . S
C8268 H8262 0.930 . S
C8268 C8269 1.367 . S
C8268 C8276 1.378 . S
C8269 C8268 1.367 . S
C8269 C8277 1.433 . S
C8270 H8266 0.929 . S
C8270 C8272 1.378 . S
C8270 C8274 1.350 . S
C8271 C8274 1.463 . S
C8271 C8276 1.350 . S
C8271 N8279 1.427 . S
C8272 H8263 0.930 . S
C8272 C8270 1.378 . S
C8272 C8273 1.367 . S
C8273 C8272 1.367 . S
C8273 C8275 1.433 . S
C8274 C8270 1.350 . S
C8274 C8271 1.463 . S
C8274 N8278 1.427 . S
C8275 H8265 0.929 . S
C8275 C8273 1.433 . S
C8275 N8278 1.384 . S
C8276 H8267 0.929 . S
C8276 C8268 1.378 . S
C8276 C8271 1.350 . S
C8277 H8264 0.929 . S
C8277 C8269 1.433 . S
C8277 N8279 1.384 . S
N8278 C8274 1.427 . S
N8278 C8275 1.384 . S
N8279 C8271 1.427 . S
N8279 C8277 1.384 . S
H8280 C8286 0.930 . S
H8281 C8290 0.930 . S
H8282 C8295 0.929 . S
H8283 C8293 0.929 . S
H8284 C8288 0.929 . S
H8285 C8294 0.929 . S
C8286 H8280 0.930 . S
C8286 C8287 1.367 . S
C8286 C8294 1.378 . S
C8287 C8286 1.367 . S
C8287 C8295 1.433 . S
C8288 H8284 0.929 . S
C8288 C8290 1.378 . S
C8288 C8292 1.350 . S
C8289 C8292 1.463 . S
C8289 C8294 1.350 . S
C8289 N8297 1.427 . S
C8290 H8281 0.930 . S
C8290 C8288 1.378 . S
C8290 C8291 1.367 . S
C8291 C8290 1.367 . S
C8291 C8293 1.433 . S
C8292 C8288 1.350 . S
C8292 C8289 1.463 . S
C8292 N8296 1.427 . S
C8293 H8283 0.929 . S
C8293 C8291 1.433 . S
C8293 N8296 1.384 . S
C8294 H8285 0.929 . S
C8294 C8286 1.378 . S
C8294 C8289 1.350 . S
C8295 H8282 0.929 . S
C8295 C8287 1.433 . S
C8295 N8297 1.384 . S
N8296 C8292 1.427 . S
N8296 C8293 1.384 . S
N8297 C8289 1.427 . S
N8297 C8295 1.384 . S
H8298 C8304 0.930 . S
H8299 C8308 0.930 . S
H8300 C8313 0.929 . S
H8301 C8311 0.929 . S
H8302 C8306 0.929 . S
H8303 C8312 0.929 . S
C8304 H8298 0.930 . S
C8304 C8305 1.367 . S
C8304 C8312 1.378 . S
C8305 C8304 1.367 . S
C8305 C8313 1.433 . S
C8306 H8302 0.929 . S
C8306 C8308 1.378 . S
C8306 C8310 1.350 . S
C8307 C8310 1.463 . S
C8307 C8312 1.350 . S
C8307 N8315 1.427 . S
C8308 H8299 0.930 . S
C8308 C8306 1.378 . S
C8308 C8309 1.367 . S
C8309 C8308 1.367 . S
C8309 C8311 1.433 . S
C8310 C8306 1.350 . S
C8310 C8307 1.463 . S
C8310 N8314 1.427 . S
C8311 H8301 0.929 . S
C8311 C8309 1.433 . S
C8311 N8314 1.384 . S
C8312 H8303 0.929 . S
C8312 C8304 1.378 . S
C8312 C8307 1.350 . S
C8313 H8300 0.929 . S
C8313 C8305 1.433 . S
C8313 N8315 1.384 . S
N8314 C8310 1.427 . S
N8314 C8311 1.384 . S
N8315 C8307 1.427 . S
N8315 C8313 1.384 . S
H8316 C8322 0.930 . S
H8317 C8326 0.930 . S
H8318 C8331 0.929 . S
H8319 C8329 0.929 . S
H8320 C8324 0.929 . S
H8321 C8330 0.929 . S
C8322 H8316 0.930 . S
C8322 C8323 1.367 . S
C8322 C8330 1.378 . S
C8323 C8322 1.367 . S
C8323 C8331 1.433 . S
C8324 H8320 0.929 . S
C8324 C8326 1.378 . S
C8324 C8328 1.350 . S
C8325 C8328 1.463 . S
C8325 C8330 1.350 . S
C8325 N8333 1.427 . S
C8326 H8317 0.930 . S
C8326 C8324 1.378 . S
C8326 C8327 1.367 . S
C8327 C8326 1.367 . S
C8327 C8329 1.433 . S
C8328 C8324 1.350 . S
C8328 C8325 1.463 . S
C8328 N8332 1.427 . S
C8329 H8319 0.929 . S
C8329 C8327 1.433 . S
C8329 N8332 1.384 . S
C8330 H8321 0.929 . S
C8330 C8322 1.378 . S
C8330 C8325 1.350 . S
C8331 H8318 0.929 . S
C8331 C8323 1.433 . S
C8331 N8333 1.384 . S
N8332 C8328 1.427 . S
N8332 C8329 1.384 . S
N8333 C8325 1.427 . S
N8333 C8331 1.384 . S
H8334 C8340 0.930 . S
H8335 C8344 0.930 . S
H8336 C8349 0.929 . S
H8337 C8347 0.929 . S
H8338 C8342 0.929 . S
H8339 C8348 0.929 . S
C8340 H8334 0.930 . S
C8340 C8341 1.367 . S
C8340 C8348 1.378 . S
C8341 C8340 1.367 . S
C8341 C8349 1.433 . S
C8342 H8338 0.929 . S
C8342 C8344 1.378 . S
C8342 C8346 1.350 . S
C8343 C8346 1.463 . S
C8343 C8348 1.350 . S
C8343 N8351 1.427 . S
C8344 H8335 0.930 . S
C8344 C8342 1.378 . S
C8344 C8345 1.367 . S
C8345 C8344 1.367 . S
C8345 C8347 1.433 . S
C8346 C8342 1.350 . S
C8346 C8343 1.463 . S
C8346 N8350 1.427 . S
C8347 H8337 0.929 . S
C8347 C8345 1.433 . S
C8347 N8350 1.384 . S
C8348 H8339 0.929 . S
C8348 C8340 1.378 . S
C8348 C8343 1.350 . S
C8349 H8336 0.929 . S
C8349 C8341 1.433 . S
C8349 N8351 1.384 . S
N8350 C8346 1.427 . S
N8350 C8347 1.384 . S
N8351 C8343 1.427 . S
N8351 C8349 1.384 . S
H8352 C8358 0.930 . S
H8353 C8362 0.930 . S
H8354 C8367 0.929 . S
H8355 C8365 0.929 . S
H8356 C8360 0.929 . S
H8357 C8366 0.929 . S
C8358 H8352 0.930 . S
C8358 C8359 1.367 . S
C8358 C8366 1.378 . S
C8359 C8358 1.367 . S
C8359 C8367 1.433 . S
C8360 H8356 0.929 . S
C8360 C8362 1.378 . S
C8360 C8364 1.350 . S
C8361 C8364 1.463 . S
C8361 C8366 1.350 . S
C8361 N8369 1.427 . S
C8362 H8353 0.930 . S
C8362 C8360 1.378 . S
C8362 C8363 1.367 . S
C8363 C8362 1.367 . S
C8363 C8365 1.433 . S
C8364 C8360 1.350 . S
C8364 C8361 1.463 . S
C8364 N8368 1.427 . S
C8365 H8355 0.929 . S
C8365 C8363 1.433 . S
C8365 N8368 1.384 . S
C8366 H8357 0.929 . S
C8366 C8358 1.378 . S
C8366 C8361 1.350 . S
C8367 H8354 0.929 . S
C8367 C8359 1.433 . S
C8367 N8369 1.384 . S
N8368 C8364 1.427 . S
N8368 C8365 1.384 . S
N8369 C8361 1.427 . S
N8369 C8367 1.384 . S
H8370 C8376 0.930 . S
H8371 C8380 0.930 . S
H8372 C8385 0.929 . S
H8373 C8383 0.929 . S
H8374 C8378 0.929 . S
H8375 C8384 0.929 . S
C8376 H8370 0.930 . S
C8376 C8377 1.367 . S
C8376 C8384 1.378 . S
C8377 C8376 1.367 . S
C8377 C8385 1.433 . S
C8378 H8374 0.929 . S
C8378 C8380 1.378 . S
C8378 C8382 1.350 . S
C8379 C8382 1.463 . S
C8379 C8384 1.350 . S
C8379 N8387 1.427 . S
C8380 H8371 0.930 . S
C8380 C8378 1.378 . S
C8380 C8381 1.367 . S
C8381 C8380 1.367 . S
C8381 C8383 1.433 . S
C8382 C8378 1.350 . S
C8382 C8379 1.463 . S
C8382 N8386 1.427 . S
C8383 H8373 0.929 . S
C8383 C8381 1.433 . S
C8383 N8386 1.384 . S
C8384 H8375 0.929 . S
C8384 C8376 1.378 . S
C8384 C8379 1.350 . S
C8385 H8372 0.929 . S
C8385 C8377 1.433 . S
C8385 N8387 1.384 . S
N8386 C8382 1.427 . S
N8386 C8383 1.384 . S
N8387 C8379 1.427 . S
N8387 C8385 1.384 . S
H8388 C8394 0.930 . S
H8389 C8398 0.930 . S
H8390 C8403 0.929 . S
H8391 C8401 0.929 . S
H8392 C8396 0.929 . S
H8393 C8402 0.929 . S
C8394 H8388 0.930 . S
C8394 C8395 1.367 . S
C8394 C8402 1.378 . S
C8395 C8394 1.367 . S
C8395 C8403 1.433 . S
C8396 H8392 0.929 . S
C8396 C8398 1.378 . S
C8396 C8400 1.350 . S
C8397 C8400 1.463 . S
C8397 C8402 1.350 . S
C8397 N8405 1.427 . S
C8398 H8389 0.930 . S
C8398 C8396 1.378 . S
C8398 C8399 1.367 . S
C8399 C8398 1.367 . S
C8399 C8401 1.433 . S
C8400 C8396 1.350 . S
C8400 C8397 1.463 . S
C8400 N8404 1.427 . S
C8401 H8391 0.929 . S
C8401 C8399 1.433 . S
C8401 N8404 1.384 . S
C8402 H8393 0.929 . S
C8402 C8394 1.378 . S
C8402 C8397 1.350 . S
C8403 H8390 0.929 . S
C8403 C8395 1.433 . S
C8403 N8405 1.384 . S
N8404 C8400 1.427 . S
N8404 C8401 1.384 . S
N8405 C8397 1.427 . S
N8405 C8403 1.384 . S
H8406 C8412 0.930 . S
H8407 C8416 0.930 . S
H8408 C8421 0.929 . S
H8409 C8419 0.929 . S
H8410 C8414 0.929 . S
H8411 C8420 0.929 . S
C8412 H8406 0.930 . S
C8412 C8413 1.367 . S
C8412 C8420 1.378 . S
C8413 C8412 1.367 . S
C8413 C8421 1.433 . S
C8414 H8410 0.929 . S
C8414 C8416 1.378 . S
C8414 C8418 1.350 . S
C8415 C8418 1.463 . S
C8415 C8420 1.350 . S
C8415 N8423 1.427 . S
C8416 H8407 0.930 . S
C8416 C8414 1.378 . S
C8416 C8417 1.367 . S
C8417 C8416 1.367 . S
C8417 C8419 1.433 . S
C8418 C8414 1.350 . S
C8418 C8415 1.463 . S
C8418 N8422 1.427 . S
C8419 H8409 0.929 . S
C8419 C8417 1.433 . S
C8419 N8422 1.384 . S
C8420 H8411 0.929 . S
C8420 C8412 1.378 . S
C8420 C8415 1.350 . S
C8421 H8408 0.929 . S
C8421 C8413 1.433 . S
C8421 N8423 1.384 . S
N8422 C8418 1.427 . S
N8422 C8419 1.384 . S
N8423 C8415 1.427 . S
N8423 C8421 1.384 . S
H8424 C8430 0.930 . S
H8425 C8434 0.930 . S
H8426 C8439 0.929 . S
H8427 C8437 0.929 . S
H8428 C8432 0.929 . S
H8429 C8438 0.929 . S
C8430 H8424 0.930 . S
C8430 C8431 1.367 . S
C8430 C8438 1.378 . S
C8431 C8430 1.367 . S
C8431 C8439 1.433 . S
C8432 H8428 0.929 . S
C8432 C8434 1.378 . S
C8432 C8436 1.350 . S
C8433 C8436 1.463 . S
C8433 C8438 1.350 . S
C8433 N8441 1.427 . S
C8434 H8425 0.930 . S
C8434 C8432 1.378 . S
C8434 C8435 1.367 . S
C8435 C8434 1.367 . S
C8435 C8437 1.433 . S
C8436 C8432 1.350 . S
C8436 C8433 1.463 . S
C8436 N8440 1.427 . S
C8437 H8427 0.929 . S
C8437 C8435 1.433 . S
C8437 N8440 1.384 . S
C8438 H8429 0.929 . S
C8438 C8430 1.378 . S
C8438 C8433 1.350 . S
C8439 H8426 0.929 . S
C8439 C8431 1.433 . S
C8439 N8441 1.384 . S
N8440 C8436 1.427 . S
N8440 C8437 1.384 . S
N8441 C8433 1.427 . S
N8441 C8439 1.384 . S
H8442 C8448 0.930 . S
H8443 C8452 0.930 . S
H8444 C8457 0.929 . S
H8445 C8455 0.929 . S
H8446 C8450 0.929 . S
H8447 C8456 0.929 . S
C8448 H8442 0.930 . S
C8448 C8449 1.367 . S
C8448 C8456 1.378 . S
C8449 C8448 1.367 . S
C8449 C8457 1.433 . S
C8450 H8446 0.929 . S
C8450 C8452 1.378 . S
C8450 C8454 1.350 . S
C8451 C8454 1.463 . S
C8451 C8456 1.350 . S
C8451 N8459 1.427 . S
C8452 H8443 0.930 . S
C8452 C8450 1.378 . S
C8452 C8453 1.367 . S
C8453 C8452 1.367 . S
C8453 C8455 1.433 . S
C8454 C8450 1.350 . S
C8454 C8451 1.463 . S
C8454 N8458 1.427 . S
C8455 H8445 0.929 . S
C8455 C8453 1.433 . S
C8455 N8458 1.384 . S
C8456 H8447 0.929 . S
C8456 C8448 1.378 . S
C8456 C8451 1.350 . S
C8457 H8444 0.929 . S
C8457 C8449 1.433 . S
C8457 N8459 1.384 . S
N8458 C8454 1.427 . S
N8458 C8455 1.384 . S
N8459 C8451 1.427 . S
N8459 C8457 1.384 . S
H8460 C8466 0.930 . S
H8461 C8470 0.930 . S
H8462 C8475 0.929 . S
H8463 C8473 0.929 . S
H8464 C8468 0.929 . S
H8465 C8474 0.929 . S
C8466 H8460 0.930 . S
C8466 C8467 1.367 . S
C8466 C8474 1.378 . S
C8467 C8466 1.367 . S
C8467 C8475 1.433 . S
C8468 H8464 0.929 . S
C8468 C8470 1.378 . S
C8468 C8472 1.350 . S
C8469 C8472 1.463 . S
C8469 C8474 1.350 . S
C8469 N8477 1.427 . S
C8470 H8461 0.930 . S
C8470 C8468 1.378 . S
C8470 C8471 1.367 . S
C8471 C8470 1.367 . S
C8471 C8473 1.433 . S
C8472 C8468 1.350 . S
C8472 C8469 1.463 . S
C8472 N8476 1.427 . S
C8473 H8463 0.929 . S
C8473 C8471 1.433 . S
C8473 N8476 1.384 . S
C8474 H8465 0.929 . S
C8474 C8466 1.378 . S
C8474 C8469 1.350 . S
C8475 H8462 0.929 . S
C8475 C8467 1.433 . S
C8475 N8477 1.384 . S
N8476 C8472 1.427 . S
N8476 C8473 1.384 . S
N8477 C8469 1.427 . S
N8477 C8475 1.384 . S
H8478 C8484 0.930 . S
H8479 C8488 0.930 . S
H8480 C8493 0.929 . S
H8481 C8491 0.929 . S
H8482 C8486 0.929 . S
H8483 C8492 0.929 . S
C8484 H8478 0.930 . S
C8484 C8485 1.367 . S
C8484 C8492 1.378 . S
C8485 C8484 1.367 . S
C8485 C8493 1.433 . S
C8486 H8482 0.929 . S
C8486 C8488 1.378 . S
C8486 C8490 1.350 . S
C8487 C8490 1.463 . S
C8487 C8492 1.350 . S
C8487 N8495 1.427 . S
C8488 H8479 0.930 . S
C8488 C8486 1.378 . S
C8488 C8489 1.367 . S
C8489 C8488 1.367 . S
C8489 C8491 1.433 . S
C8490 C8486 1.350 . S
C8490 C8487 1.463 . S
C8490 N8494 1.427 . S
C8491 H8481 0.929 . S
C8491 C8489 1.433 . S
C8491 N8494 1.384 . S
C8492 H8483 0.929 . S
C8492 C8484 1.378 . S
C8492 C8487 1.350 . S
C8493 H8480 0.929 . S
C8493 C8485 1.433 . S
C8493 N8495 1.384 . S
N8494 C8490 1.427 . S
N8494 C8491 1.384 . S
N8495 C8487 1.427 . S
N8495 C8493 1.384 . S
H8496 C8502 0.930 . S
H8497 C8506 0.930 . S
H8498 C8511 0.929 . S
H8499 C8509 0.929 . S
H8500 C8504 0.929 . S
H8501 C8510 0.929 . S
C8502 H8496 0.930 . S
C8502 C8503 1.367 . S
C8502 C8510 1.378 . S
C8503 C8502 1.367 . S
C8503 C8511 1.433 . S
C8504 H8500 0.929 . S
C8504 C8506 1.378 . S
C8504 C8508 1.350 . S
C8505 C8508 1.463 . S
C8505 C8510 1.350 . S
C8505 N8513 1.427 . S
C8506 H8497 0.930 . S
C8506 C8504 1.378 . S
C8506 C8507 1.367 . S
C8507 C8506 1.367 . S
C8507 C8509 1.433 . S
C8508 C8504 1.350 . S
C8508 C8505 1.463 . S
C8508 N8512 1.427 . S
C8509 H8499 0.929 . S
C8509 C8507 1.433 . S
C8509 N8512 1.384 . S
C8510 H8501 0.929 . S
C8510 C8502 1.378 . S
C8510 C8505 1.350 . S
C8511 H8498 0.929 . S
C8511 C8503 1.433 . S
C8511 N8513 1.384 . S
N8512 C8508 1.427 . S
N8512 C8509 1.384 . S
N8513 C8505 1.427 . S
N8513 C8511 1.384 . S
H8514 C8520 0.930 . S
H8515 C8524 0.930 . S
H8516 C8529 0.929 . S
H8517 C8527 0.929 . S
H8518 C8522 0.929 . S
H8519 C8528 0.929 . S
C8520 H8514 0.930 . S
C8520 C8521 1.367 . S
C8520 C8528 1.378 . S
C8521 C8520 1.367 . S
C8521 C8529 1.433 . S
C8522 H8518 0.929 . S
C8522 C8524 1.378 . S
C8522 C8526 1.350 . S
C8523 C8526 1.463 . S
C8523 C8528 1.350 . S
C8523 N8531 1.427 . S
C8524 H8515 0.930 . S
C8524 C8522 1.378 . S
C8524 C8525 1.367 . S
C8525 C8524 1.367 . S
C8525 C8527 1.433 . S
C8526 C8522 1.350 . S
C8526 C8523 1.463 . S
C8526 N8530 1.427 . S
C8527 H8517 0.929 . S
C8527 C8525 1.433 . S
C8527 N8530 1.384 . S
C8528 H8519 0.929 . S
C8528 C8520 1.378 . S
C8528 C8523 1.350 . S
C8529 H8516 0.929 . S
C8529 C8521 1.433 . S
C8529 N8531 1.384 . S
N8530 C8526 1.427 . S
N8530 C8527 1.384 . S
N8531 C8523 1.427 . S
N8531 C8529 1.384 . S
H8532 C8538 0.930 . S
H8533 C8542 0.930 . S
H8534 C8547 0.929 . S
H8535 C8545 0.929 . S
H8536 C8540 0.929 . S
H8537 C8546 0.929 . S
C8538 H8532 0.930 . S
C8538 C8539 1.367 . S
C8538 C8546 1.378 . S
C8539 C8538 1.367 . S
C8539 C8547 1.433 . S
C8540 H8536 0.929 . S
C8540 C8542 1.378 . S
C8540 C8544 1.350 . S
C8541 C8544 1.463 . S
C8541 C8546 1.350 . S
C8541 N8549 1.427 . S
C8542 H8533 0.930 . S
C8542 C8540 1.378 . S
C8542 C8543 1.367 . S
C8543 C8542 1.367 . S
C8543 C8545 1.433 . S
C8544 C8540 1.350 . S
C8544 C8541 1.463 . S
C8544 N8548 1.427 . S
C8545 H8535 0.929 . S
C8545 C8543 1.433 . S
C8545 N8548 1.384 . S
C8546 H8537 0.929 . S
C8546 C8538 1.378 . S
C8546 C8541 1.350 . S
C8547 H8534 0.929 . S
C8547 C8539 1.433 . S
C8547 N8549 1.384 . S
N8548 C8544 1.427 . S
N8548 C8545 1.384 . S
N8549 C8541 1.427 . S
N8549 C8547 1.384 . S
H8550 C8556 0.930 . S
H8551 C8560 0.930 . S
H8552 C8565 0.929 . S
H8553 C8563 0.929 . S
H8554 C8558 0.929 . S
H8555 C8564 0.929 . S
C8556 H8550 0.930 . S
C8556 C8557 1.367 . S
C8556 C8564 1.378 . S
C8557 C8556 1.367 . S
C8557 C8565 1.433 . S
C8558 H8554 0.929 . S
C8558 C8560 1.378 . S
C8558 C8562 1.350 . S
C8559 C8562 1.463 . S
C8559 C8564 1.350 . S
C8559 N8567 1.427 . S
C8560 H8551 0.930 . S
C8560 C8558 1.378 . S
C8560 C8561 1.367 . S
C8561 C8560 1.367 . S
C8561 C8563 1.433 . S
C8562 C8558 1.350 . S
C8562 C8559 1.463 . S
C8562 N8566 1.427 . S
C8563 H8553 0.929 . S
C8563 C8561 1.433 . S
C8563 N8566 1.384 . S
C8564 H8555 0.929 . S
C8564 C8556 1.378 . S
C8564 C8559 1.350 . S
C8565 H8552 0.929 . S
C8565 C8557 1.433 . S
C8565 N8567 1.384 . S
N8566 C8562 1.427 . S
N8566 C8563 1.384 . S
N8567 C8559 1.427 . S
N8567 C8565 1.384 . S
H8568 C8574 0.930 . S
H8569 C8578 0.930 . S
H8570 C8583 0.929 . S
H8571 C8581 0.929 . S
H8572 C8576 0.929 . S
H8573 C8582 0.929 . S
C8574 H8568 0.930 . S
C8574 C8575 1.367 . S
C8574 C8582 1.378 . S
C8575 C8574 1.367 . S
C8575 C8583 1.433 . S
C8576 H8572 0.929 . S
C8576 C8578 1.378 . S
C8576 C8580 1.350 . S
C8577 C8580 1.463 . S
C8577 C8582 1.350 . S
C8577 N8585 1.427 . S
C8578 H8569 0.930 . S
C8578 C8576 1.378 . S
C8578 C8579 1.367 . S
C8579 C8578 1.367 . S
C8579 C8581 1.433 . S
C8580 C8576 1.350 . S
C8580 C8577 1.463 . S
C8580 N8584 1.427 . S
C8581 H8571 0.929 . S
C8581 C8579 1.433 . S
C8581 N8584 1.384 . S
C8582 H8573 0.929 . S
C8582 C8574 1.378 . S
C8582 C8577 1.350 . S
C8583 H8570 0.929 . S
C8583 C8575 1.433 . S
C8583 N8585 1.384 . S
N8584 C8580 1.427 . S
N8584 C8581 1.384 . S
N8585 C8577 1.427 . S
N8585 C8583 1.384 . S
H8586 C8592 0.930 . S
H8587 C8596 0.930 . S
H8588 C8601 0.929 . S
H8589 C8599 0.929 . S
H8590 C8594 0.929 . S
H8591 C8600 0.929 . S
C8592 H8586 0.930 . S
C8592 C8593 1.367 . S
C8592 C8600 1.378 . S
C8593 C8592 1.367 . S
C8593 C8601 1.433 . S
C8594 H8590 0.929 . S
C8594 C8596 1.378 . S
C8594 C8598 1.350 . S
C8595 C8598 1.463 . S
C8595 C8600 1.350 . S
C8595 N8603 1.427 . S
C8596 H8587 0.930 . S
C8596 C8594 1.378 . S
C8596 C8597 1.367 . S
C8597 C8596 1.367 . S
C8597 C8599 1.433 . S
C8598 C8594 1.350 . S
C8598 C8595 1.463 . S
C8598 N8602 1.427 . S
C8599 H8589 0.929 . S
C8599 C8597 1.433 . S
C8599 N8602 1.384 . S
C8600 H8591 0.929 . S
C8600 C8592 1.378 . S
C8600 C8595 1.350 . S
C8601 H8588 0.929 . S
C8601 C8593 1.433 . S
C8601 N8603 1.384 . S
N8602 C8598 1.427 . S
N8602 C8599 1.384 . S
N8603 C8595 1.427 . S
N8603 C8601 1.384 . S
H8604 C8610 0.930 . S
H8605 C8614 0.930 . S
H8606 C8619 0.929 . S
H8607 C8617 0.929 . S
H8608 C8612 0.929 . S
H8609 C8618 0.929 . S
C8610 H8604 0.930 . S
C8610 C8611 1.367 . S
C8610 C8618 1.378 . S
C8611 C8610 1.367 . S
C8611 C8619 1.433 . S
C8612 H8608 0.929 . S
C8612 C8614 1.378 . S
C8612 C8616 1.350 . S
C8613 C8616 1.463 . S
C8613 C8618 1.350 . S
C8613 N8621 1.427 . S
C8614 H8605 0.930 . S
C8614 C8612 1.378 . S
C8614 C8615 1.367 . S
C8615 C8614 1.367 . S
C8615 C8617 1.433 . S
C8616 C8612 1.350 . S
C8616 C8613 1.463 . S
C8616 N8620 1.427 . S
C8617 H8607 0.929 . S
C8617 C8615 1.433 . S
C8617 N8620 1.384 . S
C8618 H8609 0.929 . S
C8618 C8610 1.378 . S
C8618 C8613 1.350 . S
C8619 H8606 0.929 . S
C8619 C8611 1.433 . S
C8619 N8621 1.384 . S
N8620 C8616 1.427 . S
N8620 C8617 1.384 . S
N8621 C8613 1.427 . S
N8621 C8619 1.384 . S
H8622 C8628 0.930 . S
H8623 C8632 0.930 . S
H8624 C8637 0.929 . S
H8625 C8635 0.929 . S
H8626 C8630 0.929 . S
H8627 C8636 0.929 . S
C8628 H8622 0.930 . S
C8628 C8629 1.367 . S
C8628 C8636 1.378 . S
C8629 C8628 1.367 . S
C8629 C8637 1.433 . S
C8630 H8626 0.929 . S
C8630 C8632 1.378 . S
C8630 C8634 1.350 . S
C8631 C8634 1.463 . S
C8631 C8636 1.350 . S
C8631 N8639 1.427 . S
C8632 H8623 0.930 . S
C8632 C8630 1.378 . S
C8632 C8633 1.367 . S
C8633 C8632 1.367 . S
C8633 C8635 1.433 . S
C8634 C8630 1.350 . S
C8634 C8631 1.463 . S
C8634 N8638 1.427 . S
C8635 H8625 0.929 . S
C8635 C8633 1.433 . S
C8635 N8638 1.384 . S
C8636 H8627 0.929 . S
C8636 C8628 1.378 . S
C8636 C8631 1.350 . S
C8637 H8624 0.929 . S
C8637 C8629 1.433 . S
C8637 N8639 1.384 . S
N8638 C8634 1.427 . S
N8638 C8635 1.384 . S
N8639 C8631 1.427 . S
N8639 C8637 1.384 . S
H8640 C8646 0.930 . S
H8641 C8650 0.930 . S
H8642 C8655 0.929 . S
H8643 C8653 0.929 . S
H8644 C8648 0.929 . S
H8645 C8654 0.929 . S
C8646 H8640 0.930 . S
C8646 C8647 1.367 . S
C8646 C8654 1.378 . S
C8647 C8646 1.367 . S
C8647 C8655 1.433 . S
C8648 H8644 0.929 . S
C8648 C8650 1.378 . S
C8648 C8652 1.350 . S
C8649 C8652 1.463 . S
C8649 C8654 1.350 . S
C8649 N8657 1.427 . S
C8650 H8641 0.930 . S
C8650 C8648 1.378 . S
C8650 C8651 1.367 . S
C8651 C8650 1.367 . S
C8651 C8653 1.433 . S
C8652 C8648 1.350 . S
C8652 C8649 1.463 . S
C8652 N8656 1.427 . S
C8653 H8643 0.929 . S
C8653 C8651 1.433 . S
C8653 N8656 1.384 . S
C8654 H8645 0.929 . S
C8654 C8646 1.378 . S
C8654 C8649 1.350 . S
C8655 H8642 0.929 . S
C8655 C8647 1.433 . S
C8655 N8657 1.384 . S
N8656 C8652 1.427 . S
N8656 C8653 1.384 . S
N8657 C8649 1.427 . S
N8657 C8655 1.384 . S
H8658 C8664 0.930 . S
H8659 C8668 0.930 . S
H8660 C8673 0.929 . S
H8661 C8671 0.929 . S
H8662 C8666 0.929 . S
H8663 C8672 0.929 . S
C8664 H8658 0.930 . S
C8664 C8665 1.367 . S
C8664 C8672 1.378 . S
C8665 C8664 1.367 . S
C8665 C8673 1.433 . S
C8666 H8662 0.929 . S
C8666 C8668 1.378 . S
C8666 C8670 1.350 . S
C8667 C8670 1.463 . S
C8667 C8672 1.350 . S
C8667 N8675 1.427 . S
C8668 H8659 0.930 . S
C8668 C8666 1.378 . S
C8668 C8669 1.367 . S
C8669 C8668 1.367 . S
C8669 C8671 1.433 . S
C8670 C8666 1.350 . S
C8670 C8667 1.463 . S
C8670 N8674 1.427 . S
C8671 H8661 0.929 . S
C8671 C8669 1.433 . S
C8671 N8674 1.384 . S
C8672 H8663 0.929 . S
C8672 C8664 1.378 . S
C8672 C8667 1.350 . S
C8673 H8660 0.929 . S
C8673 C8665 1.433 . S
C8673 N8675 1.384 . S
N8674 C8670 1.427 . S
N8674 C8671 1.384 . S
N8675 C8667 1.427 . S
N8675 C8673 1.384 . S
H8676 C8682 0.930 . S
H8677 C8686 0.930 . S
H8678 C8691 0.929 . S
H8679 C8689 0.929 . S
H8680 C8684 0.929 . S
H8681 C8690 0.929 . S
C8682 H8676 0.930 . S
C8682 C8683 1.367 . S
C8682 C8690 1.378 . S
C8683 C8682 1.367 . S
C8683 C8691 1.433 . S
C8684 H8680 0.929 . S
C8684 C8686 1.378 . S
C8684 C8688 1.350 . S
C8685 C8688 1.463 . S
C8685 C8690 1.350 . S
C8685 N8693 1.427 . S
C8686 H8677 0.930 . S
C8686 C8684 1.378 . S
C8686 C8687 1.367 . S
C8687 C8686 1.367 . S
C8687 C8689 1.433 . S
C8688 C8684 1.350 . S
C8688 C8685 1.463 . S
C8688 N8692 1.427 . S
C8689 H8679 0.929 . S
C8689 C8687 1.433 . S
C8689 N8692 1.384 . S
C8690 H8681 0.929 . S
C8690 C8682 1.378 . S
C8690 C8685 1.350 . S
C8691 H8678 0.929 . S
C8691 C8683 1.433 . S
C8691 N8693 1.384 . S
N8692 C8688 1.427 . S
N8692 C8689 1.384 . S
N8693 C8685 1.427 . S
N8693 C8691 1.384 . S
H8694 C8700 0.930 . S
H8695 C8704 0.930 . S
H8696 C8709 0.929 . S
H8697 C8707 0.929 . S
H8698 C8702 0.929 . S
H8699 C8708 0.929 . S
C8700 H8694 0.930 . S
C8700 C8701 1.367 . S
C8700 C8708 1.378 . S
C8701 C8700 1.367 . S
C8701 C8709 1.433 . S
C8702 H8698 0.929 . S
C8702 C8704 1.378 . S
C8702 C8706 1.350 . S
C8703 C8706 1.463 . S
C8703 C8708 1.350 . S
C8703 N8711 1.427 . S
C8704 H8695 0.930 . S
C8704 C8702 1.378 . S
C8704 C8705 1.367 . S
C8705 C8704 1.367 . S
C8705 C8707 1.433 . S
C8706 C8702 1.350 . S
C8706 C8703 1.463 . S
C8706 N8710 1.427 . S
C8707 H8697 0.929 . S
C8707 C8705 1.433 . S
C8707 N8710 1.384 . S
C8708 H8699 0.929 . S
C8708 C8700 1.378 . S
C8708 C8703 1.350 . S
C8709 H8696 0.929 . S
C8709 C8701 1.433 . S
C8709 N8711 1.384 . S
N8710 C8706 1.427 . S
N8710 C8707 1.384 . S
N8711 C8703 1.427 . S
N8711 C8709 1.384 . S
H8712 C8718 0.930 . S
H8713 C8722 0.930 . S
H8714 C8727 0.929 . S
H8715 C8725 0.929 . S
H8716 C8720 0.929 . S
H8717 C8726 0.929 . S
C8718 H8712 0.930 . S
C8718 C8719 1.367 . S
C8718 C8726 1.378 . S
C8719 C8718 1.367 . S
C8719 C8727 1.433 . S
C8720 H8716 0.929 . S
C8720 C8722 1.378 . S
C8720 C8724 1.350 . S
C8721 C8724 1.463 . S
C8721 C8726 1.350 . S
C8721 N8729 1.427 . S
C8722 H8713 0.930 . S
C8722 C8720 1.378 . S
C8722 C8723 1.367 . S
C8723 C8722 1.367 . S
C8723 C8725 1.433 . S
C8724 C8720 1.350 . S
C8724 C8721 1.463 . S
C8724 N8728 1.427 . S
C8725 H8715 0.929 . S
C8725 C8723 1.433 . S
C8725 N8728 1.384 . S
C8726 H8717 0.929 . S
C8726 C8718 1.378 . S
C8726 C8721 1.350 . S
C8727 H8714 0.929 . S
C8727 C8719 1.433 . S
C8727 N8729 1.384 . S
N8728 C8724 1.427 . S
N8728 C8725 1.384 . S
N8729 C8721 1.427 . S
N8729 C8727 1.384 . S
H8730 C8736 0.930 . S
H8731 C8740 0.930 . S
H8732 C8745 0.929 . S
H8733 C8743 0.929 . S
H8734 C8738 0.929 . S
H8735 C8744 0.929 . S
C8736 H8730 0.930 . S
C8736 C8737 1.367 . S
C8736 C8744 1.378 . S
C8737 C8736 1.367 . S
C8737 C8745 1.433 . S
C8738 H8734 0.929 . S
C8738 C8740 1.378 . S
C8738 C8742 1.350 . S
C8739 C8742 1.463 . S
C8739 C8744 1.350 . S
C8739 N8747 1.427 . S
C8740 H8731 0.930 . S
C8740 C8738 1.378 . S
C8740 C8741 1.367 . S
C8741 C8740 1.367 . S
C8741 C8743 1.433 . S
C8742 C8738 1.350 . S
C8742 C8739 1.463 . S
C8742 N8746 1.427 . S
C8743 H8733 0.929 . S
C8743 C8741 1.433 . S
C8743 N8746 1.384 . S
C8744 H8735 0.929 . S
C8744 C8736 1.378 . S
C8744 C8739 1.350 . S
C8745 H8732 0.929 . S
C8745 C8737 1.433 . S
C8745 N8747 1.384 . S
N8746 C8742 1.427 . S
N8746 C8743 1.384 . S
N8747 C8739 1.427 . S
N8747 C8745 1.384 . S
H8748 C8754 0.930 . S
H8749 C8758 0.930 . S
H8750 C8763 0.929 . S
H8751 C8761 0.929 . S
H8752 C8756 0.929 . S
H8753 C8762 0.929 . S
C8754 H8748 0.930 . S
C8754 C8755 1.367 . S
C8754 C8762 1.378 . S
C8755 C8754 1.367 . S
C8755 C8763 1.433 . S
C8756 H8752 0.929 . S
C8756 C8758 1.378 . S
C8756 C8760 1.350 . S
C8757 C8760 1.463 . S
C8757 C8762 1.350 . S
C8757 N8765 1.427 . S
C8758 H8749 0.930 . S
C8758 C8756 1.378 . S
C8758 C8759 1.367 . S
C8759 C8758 1.367 . S
C8759 C8761 1.433 . S
C8760 C8756 1.350 . S
C8760 C8757 1.463 . S
C8760 N8764 1.427 . S
C8761 H8751 0.929 . S
C8761 C8759 1.433 . S
C8761 N8764 1.384 . S
C8762 H8753 0.929 . S
C8762 C8754 1.378 . S
C8762 C8757 1.350 . S
C8763 H8750 0.929 . S
C8763 C8755 1.433 . S
C8763 N8765 1.384 . S
N8764 C8760 1.427 . S
N8764 C8761 1.384 . S
N8765 C8757 1.427 . S
N8765 C8763 1.384 . S
H8766 C8772 0.930 . S
H8767 C8776 0.930 . S
H8768 C8781 0.929 . S
H8769 C8779 0.929 . S
H8770 C8774 0.929 . S
H8771 C8780 0.929 . S
C8772 H8766 0.930 . S
C8772 C8773 1.367 . S
C8772 C8780 1.378 . S
C8773 C8772 1.367 . S
C8773 C8781 1.433 . S
C8774 H8770 0.929 . S
C8774 C8776 1.378 . S
C8774 C8778 1.350 . S
C8775 C8778 1.463 . S
C8775 C8780 1.350 . S
C8775 N8783 1.427 . S
C8776 H8767 0.930 . S
C8776 C8774 1.378 . S
C8776 C8777 1.367 . S
C8777 C8776 1.367 . S
C8777 C8779 1.433 . S
C8778 C8774 1.350 . S
C8778 C8775 1.463 . S
C8778 N8782 1.427 . S
C8779 H8769 0.929 . S
C8779 C8777 1.433 . S
C8779 N8782 1.384 . S
C8780 H8771 0.929 . S
C8780 C8772 1.378 . S
C8780 C8775 1.350 . S
C8781 H8768 0.929 . S
C8781 C8773 1.433 . S
C8781 N8783 1.384 . S
N8782 C8778 1.427 . S
N8782 C8779 1.384 . S
N8783 C8775 1.427 . S
N8783 C8781 1.384 . S
H8784 C8790 0.930 . S
H8785 C8794 0.930 . S
H8786 C8799 0.929 . S
H8787 C8797 0.929 . S
H8788 C8792 0.929 . S
H8789 C8798 0.929 . S
C8790 H8784 0.930 . S
C8790 C8791 1.367 . S
C8790 C8798 1.378 . S
C8791 C8790 1.367 . S
C8791 C8799 1.433 . S
C8792 H8788 0.929 . S
C8792 C8794 1.378 . S
C8792 C8796 1.350 . S
C8793 C8796 1.463 . S
C8793 C8798 1.350 . S
C8793 N8801 1.427 . S
C8794 H8785 0.930 . S
C8794 C8792 1.378 . S
C8794 C8795 1.367 . S
C8795 C8794 1.367 . S
C8795 C8797 1.433 . S
C8796 C8792 1.350 . S
C8796 C8793 1.463 . S
C8796 N8800 1.427 . S
C8797 H8787 0.929 . S
C8797 C8795 1.433 . S
C8797 N8800 1.384 . S
C8798 H8789 0.929 . S
C8798 C8790 1.378 . S
C8798 C8793 1.350 . S
C8799 H8786 0.929 . S
C8799 C8791 1.433 . S
C8799 N8801 1.384 . S
N8800 C8796 1.427 . S
N8800 C8797 1.384 . S
N8801 C8793 1.427 . S
N8801 C8799 1.384 . S
H8802 C8808 0.930 . S
H8803 C8812 0.930 . S
H8804 C8817 0.929 . S
H8805 C8815 0.929 . S
H8806 C8810 0.929 . S
H8807 C8816 0.929 . S
C8808 H8802 0.930 . S
C8808 C8809 1.367 . S
C8808 C8816 1.378 . S
C8809 C8808 1.367 . S
C8809 C8817 1.433 . S
C8810 H8806 0.929 . S
C8810 C8812 1.378 . S
C8810 C8814 1.350 . S
C8811 C8814 1.463 . S
C8811 C8816 1.350 . S
C8811 N8819 1.427 . S
C8812 H8803 0.930 . S
C8812 C8810 1.378 . S
C8812 C8813 1.367 . S
C8813 C8812 1.367 . S
C8813 C8815 1.433 . S
C8814 C8810 1.350 . S
C8814 C8811 1.463 . S
C8814 N8818 1.427 . S
C8815 H8805 0.929 . S
C8815 C8813 1.433 . S
C8815 N8818 1.384 . S
C8816 H8807 0.929 . S
C8816 C8808 1.378 . S
C8816 C8811 1.350 . S
C8817 H8804 0.929 . S
C8817 C8809 1.433 . S
C8817 N8819 1.384 . S
N8818 C8814 1.427 . S
N8818 C8815 1.384 . S
N8819 C8811 1.427 . S
N8819 C8817 1.384 . S
H8820 C8826 0.930 . S
H8821 C8830 0.930 . S
H8822 C8835 0.929 . S
H8823 C8833 0.929 . S
H8824 C8828 0.929 . S
H8825 C8834 0.929 . S
C8826 H8820 0.930 . S
C8826 C8827 1.367 . S
C8826 C8834 1.378 . S
C8827 C8826 1.367 . S
C8827 C8835 1.433 . S
C8828 H8824 0.929 . S
C8828 C8830 1.378 . S
C8828 C8832 1.350 . S
C8829 C8832 1.463 . S
C8829 C8834 1.350 . S
C8829 N8837 1.427 . S
C8830 H8821 0.930 . S
C8830 C8828 1.378 . S
C8830 C8831 1.367 . S
C8831 C8830 1.367 . S
C8831 C8833 1.433 . S
C8832 C8828 1.350 . S
C8832 C8829 1.463 . S
C8832 N8836 1.427 . S
C8833 H8823 0.929 . S
C8833 C8831 1.433 . S
C8833 N8836 1.384 . S
C8834 H8825 0.929 . S
C8834 C8826 1.378 . S
C8834 C8829 1.350 . S
C8835 H8822 0.929 . S
C8835 C8827 1.433 . S
C8835 N8837 1.384 . S
N8836 C8832 1.427 . S
N8836 C8833 1.384 . S
N8837 C8829 1.427 . S
N8837 C8835 1.384 . S
H8838 C8844 0.930 . S
H8839 C8848 0.930 . S
H8840 C8853 0.929 . S
H8841 C8851 0.929 . S
H8842 C8846 0.929 . S
H8843 C8852 0.929 . S
C8844 H8838 0.930 . S
C8844 C8845 1.367 . S
C8844 C8852 1.378 . S
C8845 C8844 1.367 . S
C8845 C8853 1.433 . S
C8846 H8842 0.929 . S
C8846 C8848 1.378 . S
C8846 C8850 1.350 . S
C8847 C8850 1.463 . S
C8847 C8852 1.350 . S
C8847 N8855 1.427 . S
C8848 H8839 0.930 . S
C8848 C8846 1.378 . S
C8848 C8849 1.367 . S
C8849 C8848 1.367 . S
C8849 C8851 1.433 . S
C8850 C8846 1.350 . S
C8850 C8847 1.463 . S
C8850 N8854 1.427 . S
C8851 H8841 0.929 . S
C8851 C8849 1.433 . S
C8851 N8854 1.384 . S
C8852 H8843 0.929 . S
C8852 C8844 1.378 . S
C8852 C8847 1.350 . S
C8853 H8840 0.929 . S
C8853 C8845 1.433 . S
C8853 N8855 1.384 . S
N8854 C8850 1.427 . S
N8854 C8851 1.384 . S
N8855 C8847 1.427 . S
N8855 C8853 1.384 . S
H8856 C8862 0.930 . S
H8857 C8866 0.930 . S
H8858 C8871 0.929 . S
H8859 C8869 0.929 . S
H8860 C8864 0.929 . S
H8861 C8870 0.929 . S
C8862 H8856 0.930 . S
C8862 C8863 1.367 . S
C8862 C8870 1.378 . S
C8863 C8862 1.367 . S
C8863 C8871 1.433 . S
C8864 H8860 0.929 . S
C8864 C8866 1.378 . S
C8864 C8868 1.350 . S
C8865 C8868 1.463 . S
C8865 C8870 1.350 . S
C8865 N8873 1.427 . S
C8866 H8857 0.930 . S
C8866 C8864 1.378 . S
C8866 C8867 1.367 . S
C8867 C8866 1.367 . S
C8867 C8869 1.433 . S
C8868 C8864 1.350 . S
C8868 C8865 1.463 . S
C8868 N8872 1.427 . S
C8869 H8859 0.929 . S
C8869 C8867 1.433 . S
C8869 N8872 1.384 . S
C8870 H8861 0.929 . S
C8870 C8862 1.378 . S
C8870 C8865 1.350 . S
C8871 H8858 0.929 . S
C8871 C8863 1.433 . S
C8871 N8873 1.384 . S
N8872 C8868 1.427 . S
N8872 C8869 1.384 . S
N8873 C8865 1.427 . S
N8873 C8871 1.384 . S
H8874 C8880 0.930 . S
H8875 C8884 0.930 . S
H8876 C8889 0.929 . S
H8877 C8887 0.929 . S
H8878 C8882 0.929 . S
H8879 C8888 0.929 . S
C8880 H8874 0.930 . S
C8880 C8881 1.367 . S
C8880 C8888 1.378 . S
C8881 C8880 1.367 . S
C8881 C8889 1.433 . S
C8882 H8878 0.929 . S
C8882 C8884 1.378 . S
C8882 C8886 1.350 . S
C8883 C8886 1.463 . S
C8883 C8888 1.350 . S
C8883 N8891 1.427 . S
C8884 H8875 0.930 . S
C8884 C8882 1.378 . S
C8884 C8885 1.367 . S
C8885 C8884 1.367 . S
C8885 C8887 1.433 . S
C8886 C8882 1.350 . S
C8886 C8883 1.463 . S
C8886 N8890 1.427 . S
C8887 H8877 0.929 . S
C8887 C8885 1.433 . S
C8887 N8890 1.384 . S
C8888 H8879 0.929 . S
C8888 C8880 1.378 . S
C8888 C8883 1.350 . S
C8889 H8876 0.929 . S
C8889 C8881 1.433 . S
C8889 N8891 1.384 . S
N8890 C8886 1.427 . S
N8890 C8887 1.384 . S
N8891 C8883 1.427 . S
N8891 C8889 1.384 . S
H8892 C8898 0.930 . S
H8893 C8902 0.930 . S
H8894 C8907 0.929 . S
H8895 C8905 0.929 . S
H8896 C8900 0.929 . S
H8897 C8906 0.929 . S
C8898 H8892 0.930 . S
C8898 C8899 1.367 . S
C8898 C8906 1.378 . S
C8899 C8898 1.367 . S
C8899 C8907 1.433 . S
C8900 H8896 0.929 . S
C8900 C8902 1.378 . S
C8900 C8904 1.350 . S
C8901 C8904 1.463 . S
C8901 C8906 1.350 . S
C8901 N8909 1.427 . S
C8902 H8893 0.930 . S
C8902 C8900 1.378 . S
C8902 C8903 1.367 . S
C8903 C8902 1.367 . S
C8903 C8905 1.433 . S
C8904 C8900 1.350 . S
C8904 C8901 1.463 . S
C8904 N8908 1.427 . S
C8905 H8895 0.929 . S
C8905 C8903 1.433 . S
C8905 N8908 1.384 . S
C8906 H8897 0.929 . S
C8906 C8898 1.378 . S
C8906 C8901 1.350 . S
C8907 H8894 0.929 . S
C8907 C8899 1.433 . S
C8907 N8909 1.384 . S
N8908 C8904 1.427 . S
N8908 C8905 1.384 . S
N8909 C8901 1.427 . S
N8909 C8907 1.384 . S
H8910 C8916 0.930 . S
H8911 C8920 0.930 . S
H8912 C8925 0.929 . S
H8913 C8923 0.929 . S
H8914 C8918 0.929 . S
H8915 C8924 0.929 . S
C8916 H8910 0.930 . S
C8916 C8917 1.367 . S
C8916 C8924 1.378 . S
C8917 C8916 1.367 . S
C8917 C8925 1.433 . S
C8918 H8914 0.929 . S
C8918 C8920 1.378 . S
C8918 C8922 1.350 . S
C8919 C8922 1.463 . S
C8919 C8924 1.350 . S
C8919 N8927 1.427 . S
C8920 H8911 0.930 . S
C8920 C8918 1.378 . S
C8920 C8921 1.367 . S
C8921 C8920 1.367 . S
C8921 C8923 1.433 . S
C8922 C8918 1.350 . S
C8922 C8919 1.463 . S
C8922 N8926 1.427 . S
C8923 H8913 0.929 . S
C8923 C8921 1.433 . S
C8923 N8926 1.384 . S
C8924 H8915 0.929 . S
C8924 C8916 1.378 . S
C8924 C8919 1.350 . S
C8925 H8912 0.929 . S
C8925 C8917 1.433 . S
C8925 N8927 1.384 . S
N8926 C8922 1.427 . S
N8926 C8923 1.384 . S
N8927 C8919 1.427 . S
N8927 C8925 1.384 . S
H8928 C8934 0.930 . S
H8929 C8938 0.930 . S
H8930 C8943 0.929 . S
H8931 C8941 0.929 . S
H8932 C8936 0.929 . S
H8933 C8942 0.929 . S
C8934 H8928 0.930 . S
C8934 C8935 1.367 . S
C8934 C8942 1.378 . S
C8935 C8934 1.367 . S
C8935 C8943 1.433 . S
C8936 H8932 0.929 . S
C8936 C8938 1.378 . S
C8936 C8940 1.350 . S
C8937 C8940 1.463 . S
C8937 C8942 1.350 . S
C8937 N8945 1.427 . S
C8938 H8929 0.930 . S
C8938 C8936 1.378 . S
C8938 C8939 1.367 . S
C8939 C8938 1.367 . S
C8939 C8941 1.433 . S
C8940 C8936 1.350 . S
C8940 C8937 1.463 . S
C8940 N8944 1.427 . S
C8941 H8931 0.929 . S
C8941 C8939 1.433 . S
C8941 N8944 1.384 . S
C8942 H8933 0.929 . S
C8942 C8934 1.378 . S
C8942 C8937 1.350 . S
C8943 H8930 0.929 . S
C8943 C8935 1.433 . S
C8943 N8945 1.384 . S
N8944 C8940 1.427 . S
N8944 C8941 1.384 . S
N8945 C8937 1.427 . S
N8945 C8943 1.384 . S
H8946 C8952 0.930 . S
H8947 C8956 0.930 . S
H8948 C8961 0.929 . S
H8949 C8959 0.929 . S
H8950 C8954 0.929 . S
H8951 C8960 0.929 . S
C8952 H8946 0.930 . S
C8952 C8953 1.367 . S
C8952 C8960 1.378 . S
C8953 C8952 1.367 . S
C8953 C8961 1.433 . S
C8954 H8950 0.929 . S
C8954 C8956 1.378 . S
C8954 C8958 1.350 . S
C8955 C8958 1.463 . S
C8955 C8960 1.350 . S
C8955 N8963 1.427 . S
C8956 H8947 0.930 . S
C8956 C8954 1.378 . S
C8956 C8957 1.367 . S
C8957 C8956 1.367 . S
C8957 C8959 1.433 . S
C8958 C8954 1.350 . S
C8958 C8955 1.463 . S
C8958 N8962 1.427 . S
C8959 H8949 0.929 . S
C8959 C8957 1.433 . S
C8959 N8962 1.384 . S
C8960 H8951 0.929 . S
C8960 C8952 1.378 . S
C8960 C8955 1.350 . S
C8961 H8948 0.929 . S
C8961 C8953 1.433 . S
C8961 N8963 1.384 . S
N8962 C8958 1.427 . S
N8962 C8959 1.384 . S
N8963 C8955 1.427 . S
N8963 C8961 1.384 . S
H8964 C8970 0.930 . S
H8965 C8974 0.930 . S
H8966 C8979 0.929 . S
H8967 C8977 0.929 . S
H8968 C8972 0.929 . S
H8969 C8978 0.929 . S
C8970 H8964 0.930 . S
C8970 C8971 1.367 . S
C8970 C8978 1.378 . S
C8971 C8970 1.367 . S
C8971 C8979 1.433 . S
C8972 H8968 0.929 . S
C8972 C8974 1.378 . S
C8972 C8976 1.350 . S
C8973 C8976 1.463 . S
C8973 C8978 1.350 . S
C8973 N8981 1.427 . S
C8974 H8965 0.930 . S
C8974 C8972 1.378 . S
C8974 C8975 1.367 . S
C8975 C8974 1.367 . S
C8975 C8977 1.433 . S
C8976 C8972 1.350 . S
C8976 C8973 1.463 . S
C8976 N8980 1.427 . S
C8977 H8967 0.929 . S
C8977 C8975 1.433 . S
C8977 N8980 1.384 . S
C8978 H8969 0.929 . S
C8978 C8970 1.378 . S
C8978 C8973 1.350 . S
C8979 H8966 0.929 . S
C8979 C8971 1.433 . S
C8979 N8981 1.384 . S
N8980 C8976 1.427 . S
N8980 C8977 1.384 . S
N8981 C8973 1.427 . S
N8981 C8979 1.384 . S
H8982 C8988 0.930 . S
H8983 C8992 0.930 . S
H8984 C8997 0.929 . S
H8985 C8995 0.929 . S
H8986 C8990 0.929 . S
H8987 C8996 0.929 . S
C8988 H8982 0.930 . S
C8988 C8989 1.367 . S
C8988 C8996 1.378 . S
C8989 C8988 1.367 . S
C8989 C8997 1.433 . S
C8990 H8986 0.929 . S
C8990 C8992 1.378 . S
C8990 C8994 1.350 . S
C8991 C8994 1.463 . S
C8991 C8996 1.350 . S
C8991 N8999 1.427 . S
C8992 H8983 0.930 . S
C8992 C8990 1.378 . S
C8992 C8993 1.367 . S
C8993 C8992 1.367 . S
C8993 C8995 1.433 . S
C8994 C8990 1.350 . S
C8994 C8991 1.463 . S
C8994 N8998 1.427 . S
C8995 H8985 0.929 . S
C8995 C8993 1.433 . S
C8995 N8998 1.384 . S
C8996 H8987 0.929 . S
C8996 C8988 1.378 . S
C8996 C8991 1.350 . S
C8997 H8984 0.929 . S
C8997 C8989 1.433 . S
C8997 N8999 1.384 . S
N8998 C8994 1.427 . S
N8998 C8995 1.384 . S
N8999 C8991 1.427 . S
N8999 C8997 1.384 . S
H9000 C9006 0.930 . S
H9001 C9010 0.930 . S
H9002 C9015 0.929 . S
H9003 C9013 0.929 . S
H9004 C9008 0.929 . S
H9005 C9014 0.929 . S
C9006 H9000 0.930 . S
C9006 C9007 1.367 . S
C9006 C9014 1.378 . S
C9007 C9006 1.367 . S
C9007 C9015 1.433 . S
C9008 H9004 0.929 . S
C9008 C9010 1.378 . S
C9008 C9012 1.350 . S
C9009 C9012 1.463 . S
C9009 C9014 1.350 . S
C9009 N9017 1.427 . S
C9010 H9001 0.930 . S
C9010 C9008 1.378 . S
C9010 C9011 1.367 . S
C9011 C9010 1.367 . S
C9011 C9013 1.433 . S
C9012 C9008 1.350 . S
C9012 C9009 1.463 . S
C9012 N9016 1.427 . S
C9013 H9003 0.929 . S
C9013 C9011 1.433 . S
C9013 N9016 1.384 . S
C9014 H9005 0.929 . S
C9014 C9006 1.378 . S
C9014 C9009 1.350 . S
C9015 H9002 0.929 . S
C9015 C9007 1.433 . S
C9015 N9017 1.384 . S
N9016 C9012 1.427 . S
N9016 C9013 1.384 . S
N9017 C9009 1.427 . S
N9017 C9015 1.384 . S
H9018 C9024 0.930 . S
H9019 C9028 0.930 . S
H9020 C9033 0.929 . S
H9021 C9031 0.929 . S
H9022 C9026 0.929 . S
H9023 C9032 0.929 . S
C9024 H9018 0.930 . S
C9024 C9025 1.367 . S
C9024 C9032 1.378 . S
C9025 C9024 1.367 . S
C9025 C9033 1.433 . S
C9026 H9022 0.929 . S
C9026 C9028 1.378 . S
C9026 C9030 1.350 . S
C9027 C9030 1.463 . S
C9027 C9032 1.350 . S
C9027 N9035 1.427 . S
C9028 H9019 0.930 . S
C9028 C9026 1.378 . S
C9028 C9029 1.367 . S
C9029 C9028 1.367 . S
C9029 C9031 1.433 . S
C9030 C9026 1.350 . S
C9030 C9027 1.463 . S
C9030 N9034 1.427 . S
C9031 H9021 0.929 . S
C9031 C9029 1.433 . S
C9031 N9034 1.384 . S
C9032 H9023 0.929 . S
C9032 C9024 1.378 . S
C9032 C9027 1.350 . S
C9033 H9020 0.929 . S
C9033 C9025 1.433 . S
C9033 N9035 1.384 . S
N9034 C9030 1.427 . S
N9034 C9031 1.384 . S
N9035 C9027 1.427 . S
N9035 C9033 1.384 . S
H9036 C9042 0.930 . S
H9037 C9046 0.930 . S
H9038 C9051 0.929 . S
H9039 C9049 0.929 . S
H9040 C9044 0.929 . S
H9041 C9050 0.929 . S
C9042 H9036 0.930 . S
C9042 C9043 1.367 . S
C9042 C9050 1.378 . S
C9043 C9042 1.367 . S
C9043 C9051 1.433 . S
C9044 H9040 0.929 . S
C9044 C9046 1.378 . S
C9044 C9048 1.350 . S
C9045 C9048 1.463 . S
C9045 C9050 1.350 . S
C9045 N9053 1.427 . S
C9046 H9037 0.930 . S
C9046 C9044 1.378 . S
C9046 C9047 1.367 . S
C9047 C9046 1.367 . S
C9047 C9049 1.433 . S
C9048 C9044 1.350 . S
C9048 C9045 1.463 . S
C9048 N9052 1.427 . S
C9049 H9039 0.929 . S
C9049 C9047 1.433 . S
C9049 N9052 1.384 . S
C9050 H9041 0.929 . S
C9050 C9042 1.378 . S
C9050 C9045 1.350 . S
C9051 H9038 0.929 . S
C9051 C9043 1.433 . S
C9051 N9053 1.384 . S
N9052 C9048 1.427 . S
N9052 C9049 1.384 . S
N9053 C9045 1.427 . S
N9053 C9051 1.384 . S
H9054 C9060 0.930 . S
H9055 C9064 0.930 . S
H9056 C9069 0.929 . S
H9057 C9067 0.929 . S
H9058 C9062 0.929 . S
H9059 C9068 0.929 . S
C9060 H9054 0.930 . S
C9060 C9061 1.367 . S
C9060 C9068 1.378 . S
C9061 C9060 1.367 . S
C9061 C9069 1.433 . S
C9062 H9058 0.929 . S
C9062 C9064 1.378 . S
C9062 C9066 1.350 . S
C9063 C9066 1.463 . S
C9063 C9068 1.350 . S
C9063 N9071 1.427 . S
C9064 H9055 0.930 . S
C9064 C9062 1.378 . S
C9064 C9065 1.367 . S
C9065 C9064 1.367 . S
C9065 C9067 1.433 . S
C9066 C9062 1.350 . S
C9066 C9063 1.463 . S
C9066 N9070 1.427 . S
C9067 H9057 0.929 . S
C9067 C9065 1.433 . S
C9067 N9070 1.384 . S
C9068 H9059 0.929 . S
C9068 C9060 1.378 . S
C9068 C9063 1.350 . S
C9069 H9056 0.929 . S
C9069 C9061 1.433 . S
C9069 N9071 1.384 . S
N9070 C9066 1.427 . S
N9070 C9067 1.384 . S
N9071 C9063 1.427 . S
N9071 C9069 1.384 . S
H9072 C9078 0.930 . S
H9073 C9082 0.930 . S
H9074 C9087 0.929 . S
H9075 C9085 0.929 . S
H9076 C9080 0.929 . S
H9077 C9086 0.929 . S
C9078 H9072 0.930 . S
C9078 C9079 1.367 . S
C9078 C9086 1.378 . S
C9079 C9078 1.367 . S
C9079 C9087 1.433 . S
C9080 H9076 0.929 . S
C9080 C9082 1.378 . S
C9080 C9084 1.350 . S
C9081 C9084 1.463 . S
C9081 C9086 1.350 . S
C9081 N9089 1.427 . S
C9082 H9073 0.930 . S
C9082 C9080 1.378 . S
C9082 C9083 1.367 . S
C9083 C9082 1.367 . S
C9083 C9085 1.433 . S
C9084 C9080 1.350 . S
C9084 C9081 1.463 . S
C9084 N9088 1.427 . S
C9085 H9075 0.929 . S
C9085 C9083 1.433 . S
C9085 N9088 1.384 . S
C9086 H9077 0.929 . S
C9086 C9078 1.378 . S
C9086 C9081 1.350 . S
C9087 H9074 0.929 . S
C9087 C9079 1.433 . S
C9087 N9089 1.384 . S
N9088 C9084 1.427 . S
N9088 C9085 1.384 . S
N9089 C9081 1.427 . S
N9089 C9087 1.384 . S
H9090 C9096 0.930 . S
H9091 C9100 0.930 . S
H9092 C9105 0.929 . S
H9093 C9103 0.929 . S
H9094 C9098 0.929 . S
H9095 C9104 0.929 . S
C9096 H9090 0.930 . S
C9096 C9097 1.367 . S
C9096 C9104 1.378 . S
C9097 C9096 1.367 . S
C9097 C9105 1.433 . S
C9098 H9094 0.929 . S
C9098 C9100 1.378 . S
C9098 C9102 1.350 . S
C9099 C9102 1.463 . S
C9099 C9104 1.350 . S
C9099 N9107 1.427 . S
C9100 H9091 0.930 . S
C9100 C9098 1.378 . S
C9100 C9101 1.367 . S
C9101 C9100 1.367 . S
C9101 C9103 1.433 . S
C9102 C9098 1.350 . S
C9102 C9099 1.463 . S
C9102 N9106 1.427 . S
C9103 H9093 0.929 . S
C9103 C9101 1.433 . S
C9103 N9106 1.384 . S
C9104 H9095 0.929 . S
C9104 C9096 1.378 . S
C9104 C9099 1.350 . S
C9105 H9092 0.929 . S
C9105 C9097 1.433 . S
C9105 N9107 1.384 . S
N9106 C9102 1.427 . S
N9106 C9103 1.384 . S
N9107 C9099 1.427 . S
N9107 C9105 1.384 . S
H9108 C9114 0.930 . S
H9109 C9118 0.930 . S
H9110 C9123 0.929 . S
H9111 C9121 0.929 . S
H9112 C9116 0.929 . S
H9113 C9122 0.929 . S
C9114 H9108 0.930 . S
C9114 C9115 1.367 . S
C9114 C9122 1.378 . S
C9115 C9114 1.367 . S
C9115 C9123 1.433 . S
C9116 H9112 0.929 . S
C9116 C9118 1.378 . S
C9116 C9120 1.350 . S
C9117 C9120 1.463 . S
C9117 C9122 1.350 . S
C9117 N9125 1.427 . S
C9118 H9109 0.930 . S
C9118 C9116 1.378 . S
C9118 C9119 1.367 . S
C9119 C9118 1.367 . S
C9119 C9121 1.433 . S
C9120 C9116 1.350 . S
C9120 C9117 1.463 . S
C9120 N9124 1.427 . S
C9121 H9111 0.929 . S
C9121 C9119 1.433 . S
C9121 N9124 1.384 . S
C9122 H9113 0.929 . S
C9122 C9114 1.378 . S
C9122 C9117 1.350 . S
C9123 H9110 0.929 . S
C9123 C9115 1.433 . S
C9123 N9125 1.384 . S
N9124 C9120 1.427 . S
N9124 C9121 1.384 . S
N9125 C9117 1.427 . S
N9125 C9123 1.384 . S
H9126 C9132 0.930 . S
H9127 C9136 0.930 . S
H9128 C9141 0.929 . S
H9129 C9139 0.929 . S
H9130 C9134 0.929 . S
H9131 C9140 0.929 . S
C9132 H9126 0.930 . S
C9132 C9133 1.367 . S
C9132 C9140 1.378 . S
C9133 C9132 1.367 . S
C9133 C9141 1.433 . S
C9134 H9130 0.929 . S
C9134 C9136 1.378 . S
C9134 C9138 1.350 . S
C9135 C9138 1.463 . S
C9135 C9140 1.350 . S
C9135 N9143 1.427 . S
C9136 H9127 0.930 . S
C9136 C9134 1.378 . S
C9136 C9137 1.367 . S
C9137 C9136 1.367 . S
C9137 C9139 1.433 . S
C9138 C9134 1.350 . S
C9138 C9135 1.463 . S
C9138 N9142 1.427 . S
C9139 H9129 0.929 . S
C9139 C9137 1.433 . S
C9139 N9142 1.384 . S
C9140 H9131 0.929 . S
C9140 C9132 1.378 . S
C9140 C9135 1.350 . S
C9141 H9128 0.929 . S
C9141 C9133 1.433 . S
C9141 N9143 1.384 . S
N9142 C9138 1.427 . S
N9142 C9139 1.384 . S
N9143 C9135 1.427 . S
N9143 C9141 1.384 . S
H9144 C9150 0.930 . S
H9145 C9154 0.930 . S
H9146 C9159 0.929 . S
H9147 C9157 0.929 . S
H9148 C9152 0.929 . S
H9149 C9158 0.929 . S
C9150 H9144 0.930 . S
C9150 C9151 1.367 . S
C9150 C9158 1.378 . S
C9151 C9150 1.367 . S
C9151 C9159 1.433 . S
C9152 H9148 0.929 . S
C9152 C9154 1.378 . S
C9152 C9156 1.350 . S
C9153 C9156 1.463 . S
C9153 C9158 1.350 . S
C9153 N9161 1.427 . S
C9154 H9145 0.930 . S
C9154 C9152 1.378 . S
C9154 C9155 1.367 . S
C9155 C9154 1.367 . S
C9155 C9157 1.433 . S
C9156 C9152 1.350 . S
C9156 C9153 1.463 . S
C9156 N9160 1.427 . S
C9157 H9147 0.929 . S
C9157 C9155 1.433 . S
C9157 N9160 1.384 . S
C9158 H9149 0.929 . S
C9158 C9150 1.378 . S
C9158 C9153 1.350 . S
C9159 H9146 0.929 . S
C9159 C9151 1.433 . S
C9159 N9161 1.384 . S
N9160 C9156 1.427 . S
N9160 C9157 1.384 . S
N9161 C9153 1.427 . S
N9161 C9159 1.384 . S
H9162 C9168 0.930 . S
H9163 C9172 0.930 . S
H9164 C9177 0.929 . S
H9165 C9175 0.929 . S
H9166 C9170 0.929 . S
H9167 C9176 0.929 . S
C9168 H9162 0.930 . S
C9168 C9169 1.367 . S
C9168 C9176 1.378 . S
C9169 C9168 1.367 . S
C9169 C9177 1.433 . S
C9170 H9166 0.929 . S
C9170 C9172 1.378 . S
C9170 C9174 1.350 . S
C9171 C9174 1.463 . S
C9171 C9176 1.350 . S
C9171 N9179 1.427 . S
C9172 H9163 0.930 . S
C9172 C9170 1.378 . S
C9172 C9173 1.367 . S
C9173 C9172 1.367 . S
C9173 C9175 1.433 . S
C9174 C9170 1.350 . S
C9174 C9171 1.463 . S
C9174 N9178 1.427 . S
C9175 H9165 0.929 . S
C9175 C9173 1.433 . S
C9175 N9178 1.384 . S
C9176 H9167 0.929 . S
C9176 C9168 1.378 . S
C9176 C9171 1.350 . S
C9177 H9164 0.929 . S
C9177 C9169 1.433 . S
C9177 N9179 1.384 . S
N9178 C9174 1.427 . S
N9178 C9175 1.384 . S
N9179 C9171 1.427 . S
N9179 C9177 1.384 . S
H9180 C9186 0.930 . S
H9181 C9190 0.930 . S
H9182 C9195 0.929 . S
H9183 C9193 0.929 . S
H9184 C9188 0.929 . S
H9185 C9194 0.929 . S
C9186 H9180 0.930 . S
C9186 C9187 1.367 . S
C9186 C9194 1.378 . S
C9187 C9186 1.367 . S
C9187 C9195 1.433 . S
C9188 H9184 0.929 . S
C9188 C9190 1.378 . S
C9188 C9192 1.350 . S
C9189 C9192 1.463 . S
C9189 C9194 1.350 . S
C9189 N9197 1.427 . S
C9190 H9181 0.930 . S
C9190 C9188 1.378 . S
C9190 C9191 1.367 . S
C9191 C9190 1.367 . S
C9191 C9193 1.433 . S
C9192 C9188 1.350 . S
C9192 C9189 1.463 . S
C9192 N9196 1.427 . S
C9193 H9183 0.929 . S
C9193 C9191 1.433 . S
C9193 N9196 1.384 . S
C9194 H9185 0.929 . S
C9194 C9186 1.378 . S
C9194 C9189 1.350 . S
C9195 H9182 0.929 . S
C9195 C9187 1.433 . S
C9195 N9197 1.384 . S
N9196 C9192 1.427 . S
N9196 C9193 1.384 . S
N9197 C9189 1.427 . S
N9197 C9195 1.384 . S
H9198 C9204 0.930 . S
H9199 C9208 0.930 . S
H9200 C9213 0.929 . S
H9201 C9211 0.929 . S
H9202 C9206 0.929 . S
H9203 C9212 0.929 . S
C9204 H9198 0.930 . S
C9204 C9205 1.367 . S
C9204 C9212 1.378 . S
C9205 C9204 1.367 . S
C9205 C9213 1.433 . S
C9206 H9202 0.929 . S
C9206 C9208 1.378 . S
C9206 C9210 1.350 . S
C9207 C9210 1.463 . S
C9207 C9212 1.350 . S
C9207 N9215 1.427 . S
C9208 H9199 0.930 . S
C9208 C9206 1.378 . S
C9208 C9209 1.367 . S
C9209 C9208 1.367 . S
C9209 C9211 1.433 . S
C9210 C9206 1.350 . S
C9210 C9207 1.463 . S
C9210 N9214 1.427 . S
C9211 H9201 0.929 . S
C9211 C9209 1.433 . S
C9211 N9214 1.384 . S
C9212 H9203 0.929 . S
C9212 C9204 1.378 . S
C9212 C9207 1.350 . S
C9213 H9200 0.929 . S
C9213 C9205 1.433 . S
C9213 N9215 1.384 . S
N9214 C9210 1.427 . S
N9214 C9211 1.384 . S
N9215 C9207 1.427 . S
N9215 C9213 1.384 . S
H9216 C9222 0.930 . S
H9217 C9226 0.930 . S
H9218 C9231 0.929 . S
H9219 C9229 0.929 . S
H9220 C9224 0.929 . S
H9221 C9230 0.929 . S
C9222 H9216 0.930 . S
C9222 C9223 1.367 . S
C9222 C9230 1.378 . S
C9223 C9222 1.367 . S
C9223 C9231 1.433 . S
C9224 H9220 0.929 . S
C9224 C9226 1.378 . S
C9224 C9228 1.350 . S
C9225 C9228 1.463 . S
C9225 C9230 1.350 . S
C9225 N9233 1.427 . S
C9226 H9217 0.930 . S
C9226 C9224 1.378 . S
C9226 C9227 1.367 . S
C9227 C9226 1.367 . S
C9227 C9229 1.433 . S
C9228 C9224 1.350 . S
C9228 C9225 1.463 . S
C9228 N9232 1.427 . S
C9229 H9219 0.929 . S
C9229 C9227 1.433 . S
C9229 N9232 1.384 . S
C9230 H9221 0.929 . S
C9230 C9222 1.378 . S
C9230 C9225 1.350 . S
C9231 H9218 0.929 . S
C9231 C9223 1.433 . S
C9231 N9233 1.384 . S
N9232 C9228 1.427 . S
N9232 C9229 1.384 . S
N9233 C9225 1.427 . S
N9233 C9231 1.384 . S
H9234 C9240 0.930 . S
H9235 C9244 0.930 . S
H9236 C9249 0.929 . S
H9237 C9247 0.929 . S
H9238 C9242 0.929 . S
H9239 C9248 0.929 . S
C9240 H9234 0.930 . S
C9240 C9241 1.367 . S
C9240 C9248 1.378 . S
C9241 C9240 1.367 . S
C9241 C9249 1.433 . S
C9242 H9238 0.929 . S
C9242 C9244 1.378 . S
C9242 C9246 1.350 . S
C9243 C9246 1.463 . S
C9243 C9248 1.350 . S
C9243 N9251 1.427 . S
C9244 H9235 0.930 . S
C9244 C9242 1.378 . S
C9244 C9245 1.367 . S
C9245 C9244 1.367 . S
C9245 C9247 1.433 . S
C9246 C9242 1.350 . S
C9246 C9243 1.463 . S
C9246 N9250 1.427 . S
C9247 H9237 0.929 . S
C9247 C9245 1.433 . S
C9247 N9250 1.384 . S
C9248 H9239 0.929 . S
C9248 C9240 1.378 . S
C9248 C9243 1.350 . S
C9249 H9236 0.929 . S
C9249 C9241 1.433 . S
C9249 N9251 1.384 . S
N9250 C9246 1.427 . S
N9250 C9247 1.384 . S
N9251 C9243 1.427 . S
N9251 C9249 1.384 . S
H9252 C9258 0.930 . S
H9253 C9262 0.930 . S
H9254 C9267 0.929 . S
H9255 C9265 0.929 . S
H9256 C9260 0.929 . S
H9257 C9266 0.929 . S
C9258 H9252 0.930 . S
C9258 C9259 1.367 . S
C9258 C9266 1.378 . S
C9259 C9258 1.367 . S
C9259 C9267 1.433 . S
C9260 H9256 0.929 . S
C9260 C9262 1.378 . S
C9260 C9264 1.350 . S
C9261 C9264 1.463 . S
C9261 C9266 1.350 . S
C9261 N9269 1.427 . S
C9262 H9253 0.930 . S
C9262 C9260 1.378 . S
C9262 C9263 1.367 . S
C9263 C9262 1.367 . S
C9263 C9265 1.433 . S
C9264 C9260 1.350 . S
C9264 C9261 1.463 . S
C9264 N9268 1.427 . S
C9265 H9255 0.929 . S
C9265 C9263 1.433 . S
C9265 N9268 1.384 . S
C9266 H9257 0.929 . S
C9266 C9258 1.378 . S
C9266 C9261 1.350 . S
C9267 H9254 0.929 . S
C9267 C9259 1.433 . S
C9267 N9269 1.384 . S
N9268 C9264 1.427 . S
N9268 C9265 1.384 . S
N9269 C9261 1.427 . S
N9269 C9267 1.384 . S
H9270 C9276 0.930 . S
H9271 C9280 0.930 . S
H9272 C9285 0.929 . S
H9273 C9283 0.929 . S
H9274 C9278 0.929 . S
H9275 C9284 0.929 . S
C9276 H9270 0.930 . S
C9276 C9277 1.367 . S
C9276 C9284 1.378 . S
C9277 C9276 1.367 . S
C9277 C9285 1.433 . S
C9278 H9274 0.929 . S
C9278 C9280 1.378 . S
C9278 C9282 1.350 . S
C9279 C9282 1.463 . S
C9279 C9284 1.350 . S
C9279 N9287 1.427 . S
C9280 H9271 0.930 . S
C9280 C9278 1.378 . S
C9280 C9281 1.367 . S
C9281 C9280 1.367 . S
C9281 C9283 1.433 . S
C9282 C9278 1.350 . S
C9282 C9279 1.463 . S
C9282 N9286 1.427 . S
C9283 H9273 0.929 . S
C9283 C9281 1.433 . S
C9283 N9286 1.384 . S
C9284 H9275 0.929 . S
C9284 C9276 1.378 . S
C9284 C9279 1.350 . S
C9285 H9272 0.929 . S
C9285 C9277 1.433 . S
C9285 N9287 1.384 . S
N9286 C9282 1.427 . S
N9286 C9283 1.384 . S
N9287 C9279 1.427 . S
N9287 C9285 1.384 . S
H9288 C9294 0.930 . S
H9289 C9298 0.930 . S
H9290 C9303 0.929 . S
H9291 C9301 0.929 . S
H9292 C9296 0.929 . S
H9293 C9302 0.929 . S
C9294 H9288 0.930 . S
C9294 C9295 1.367 . S
C9294 C9302 1.378 . S
C9295 C9294 1.367 . S
C9295 C9303 1.433 . S
C9296 H9292 0.929 . S
C9296 C9298 1.378 . S
C9296 C9300 1.350 . S
C9297 C9300 1.463 . S
C9297 C9302 1.350 . S
C9297 N9305 1.427 . S
C9298 H9289 0.930 . S
C9298 C9296 1.378 . S
C9298 C9299 1.367 . S
C9299 C9298 1.367 . S
C9299 C9301 1.433 . S
C9300 C9296 1.350 . S
C9300 C9297 1.463 . S
C9300 N9304 1.427 . S
C9301 H9291 0.929 . S
C9301 C9299 1.433 . S
C9301 N9304 1.384 . S
C9302 H9293 0.929 . S
C9302 C9294 1.378 . S
C9302 C9297 1.350 . S
C9303 H9290 0.929 . S
C9303 C9295 1.433 . S
C9303 N9305 1.384 . S
N9304 C9300 1.427 . S
N9304 C9301 1.384 . S
N9305 C9297 1.427 . S
N9305 C9303 1.384 . S
H9306 C9312 0.930 . S
H9307 C9316 0.930 . S
H9308 C9321 0.929 . S
H9309 C9319 0.929 . S
H9310 C9314 0.929 . S
H9311 C9320 0.929 . S
C9312 H9306 0.930 . S
C9312 C9313 1.367 . S
C9312 C9320 1.378 . S
C9313 C9312 1.367 . S
C9313 C9321 1.433 . S
C9314 H9310 0.929 . S
C9314 C9316 1.378 . S
C9314 C9318 1.350 . S
C9315 C9318 1.463 . S
C9315 C9320 1.350 . S
C9315 N9323 1.427 . S
C9316 H9307 0.930 . S
C9316 C9314 1.378 . S
C9316 C9317 1.367 . S
C9317 C9316 1.367 . S
C9317 C9319 1.433 . S
C9318 C9314 1.350 . S
C9318 C9315 1.463 . S
C9318 N9322 1.427 . S
C9319 H9309 0.929 . S
C9319 C9317 1.433 . S
C9319 N9322 1.384 . S
C9320 H9311 0.929 . S
C9320 C9312 1.378 . S
C9320 C9315 1.350 . S
C9321 H9308 0.929 . S
C9321 C9313 1.433 . S
C9321 N9323 1.384 . S
N9322 C9318 1.427 . S
N9322 C9319 1.384 . S
N9323 C9315 1.427 . S
N9323 C9321 1.384 . S
H9324 C9330 0.930 . S
H9325 C9334 0.930 . S
H9326 C9339 0.929 . S
H9327 C9337 0.929 . S
H9328 C9332 0.929 . S
H9329 C9338 0.929 . S
C9330 H9324 0.930 . S
C9330 C9331 1.367 . S
C9330 C9338 1.378 . S
C9331 C9330 1.367 . S
C9331 C9339 1.433 . S
C9332 H9328 0.929 . S
C9332 C9334 1.378 . S
C9332 C9336 1.350 . S
C9333 C9336 1.463 . S
C9333 C9338 1.350 . S
C9333 N9341 1.427 . S
C9334 H9325 0.930 . S
C9334 C9332 1.378 . S
C9334 C9335 1.367 . S
C9335 C9334 1.367 . S
C9335 C9337 1.433 . S
C9336 C9332 1.350 . S
C9336 C9333 1.463 . S
C9336 N9340 1.427 . S
C9337 H9327 0.929 . S
C9337 C9335 1.433 . S
C9337 N9340 1.384 . S
C9338 H9329 0.929 . S
C9338 C9330 1.378 . S
C9338 C9333 1.350 . S
C9339 H9326 0.929 . S
C9339 C9331 1.433 . S
C9339 N9341 1.384 . S
N9340 C9336 1.427 . S
N9340 C9337 1.384 . S
N9341 C9333 1.427 . S
N9341 C9339 1.384 . S
H9342 C9348 0.930 . S
H9343 C9352 0.930 . S
H9344 C9357 0.929 . S
H9345 C9355 0.929 . S
H9346 C9350 0.929 . S
H9347 C9356 0.929 . S
C9348 H9342 0.930 . S
C9348 C9349 1.367 . S
C9348 C9356 1.378 . S
C9349 C9348 1.367 . S
C9349 C9357 1.433 . S
C9350 H9346 0.929 . S
C9350 C9352 1.378 . S
C9350 C9354 1.350 . S
C9351 C9354 1.463 . S
C9351 C9356 1.350 . S
C9351 N9359 1.427 . S
C9352 H9343 0.930 . S
C9352 C9350 1.378 . S
C9352 C9353 1.367 . S
C9353 C9352 1.367 . S
C9353 C9355 1.433 . S
C9354 C9350 1.350 . S
C9354 C9351 1.463 . S
C9354 N9358 1.427 . S
C9355 H9345 0.929 . S
C9355 C9353 1.433 . S
C9355 N9358 1.384 . S
C9356 H9347 0.929 . S
C9356 C9348 1.378 . S
C9356 C9351 1.350 . S
C9357 H9344 0.929 . S
C9357 C9349 1.433 . S
C9357 N9359 1.384 . S
N9358 C9354 1.427 . S
N9358 C9355 1.384 . S
N9359 C9351 1.427 . S
N9359 C9357 1.384 . S
H9360 C9366 0.930 . S
H9361 C9370 0.930 . S
H9362 C9375 0.929 . S
H9363 C9373 0.929 . S
H9364 C9368 0.929 . S
H9365 C9374 0.929 . S
C9366 H9360 0.930 . S
C9366 C9367 1.367 . S
C9366 C9374 1.378 . S
C9367 C9366 1.367 . S
C9367 C9375 1.433 . S
C9368 H9364 0.929 . S
C9368 C9370 1.378 . S
C9368 C9372 1.350 . S
C9369 C9372 1.463 . S
C9369 C9374 1.350 . S
C9369 N9377 1.427 . S
C9370 H9361 0.930 . S
C9370 C9368 1.378 . S
C9370 C9371 1.367 . S
C9371 C9370 1.367 . S
C9371 C9373 1.433 . S
C9372 C9368 1.350 . S
C9372 C9369 1.463 . S
C9372 N9376 1.427 . S
C9373 H9363 0.929 . S
C9373 C9371 1.433 . S
C9373 N9376 1.384 . S
C9374 H9365 0.929 . S
C9374 C9366 1.378 . S
C9374 C9369 1.350 . S
C9375 H9362 0.929 . S
C9375 C9367 1.433 . S
C9375 N9377 1.384 . S
N9376 C9372 1.427 . S
N9376 C9373 1.384 . S
N9377 C9369 1.427 . S
N9377 C9375 1.384 . S
H9378 C9384 0.930 . S
H9379 C9388 0.930 . S
H9380 C9393 0.929 . S
H9381 C9391 0.929 . S
H9382 C9386 0.929 . S
H9383 C9392 0.929 . S
C9384 H9378 0.930 . S
C9384 C9385 1.367 . S
C9384 C9392 1.378 . S
C9385 C9384 1.367 . S
C9385 C9393 1.433 . S
C9386 H9382 0.929 . S
C9386 C9388 1.378 . S
C9386 C9390 1.350 . S
C9387 C9390 1.463 . S
C9387 C9392 1.350 . S
C9387 N9395 1.427 . S
C9388 H9379 0.930 . S
C9388 C9386 1.378 . S
C9388 C9389 1.367 . S
C9389 C9388 1.367 . S
C9389 C9391 1.433 . S
C9390 C9386 1.350 . S
C9390 C9387 1.463 . S
C9390 N9394 1.427 . S
C9391 H9381 0.929 . S
C9391 C9389 1.433 . S
C9391 N9394 1.384 . S
C9392 H9383 0.929 . S
C9392 C9384 1.378 . S
C9392 C9387 1.350 . S
C9393 H9380 0.929 . S
C9393 C9385 1.433 . S
C9393 N9395 1.384 . S
N9394 C9390 1.427 . S
N9394 C9391 1.384 . S
N9395 C9387 1.427 . S
N9395 C9393 1.384 . S
H9396 C9402 0.930 . S
H9397 C9406 0.930 . S
H9398 C9411 0.929 . S
H9399 C9409 0.929 . S
H9400 C9404 0.929 . S
H9401 C9410 0.929 . S
C9402 H9396 0.930 . S
C9402 C9403 1.367 . S
C9402 C9410 1.378 . S
C9403 C9402 1.367 . S
C9403 C9411 1.433 . S
C9404 H9400 0.929 . S
C9404 C9406 1.378 . S
C9404 C9408 1.350 . S
C9405 C9408 1.463 . S
C9405 C9410 1.350 . S
C9405 N9413 1.427 . S
C9406 H9397 0.930 . S
C9406 C9404 1.378 . S
C9406 C9407 1.367 . S
C9407 C9406 1.367 . S
C9407 C9409 1.433 . S
C9408 C9404 1.350 . S
C9408 C9405 1.463 . S
C9408 N9412 1.427 . S
C9409 H9399 0.929 . S
C9409 C9407 1.433 . S
C9409 N9412 1.384 . S
C9410 H9401 0.929 . S
C9410 C9402 1.378 . S
C9410 C9405 1.350 . S
C9411 H9398 0.929 . S
C9411 C9403 1.433 . S
C9411 N9413 1.384 . S
N9412 C9408 1.427 . S
N9412 C9409 1.384 . S
N9413 C9405 1.427 . S
N9413 C9411 1.384 . S
H9414 C9420 0.930 . S
H9415 C9424 0.930 . S
H9416 C9429 0.929 . S
H9417 C9427 0.929 . S
H9418 C9422 0.929 . S
H9419 C9428 0.929 . S
C9420 H9414 0.930 . S
C9420 C9421 1.367 . S
C9420 C9428 1.378 . S
C9421 C9420 1.367 . S
C9421 C9429 1.433 . S
C9422 H9418 0.929 . S
C9422 C9424 1.378 . S
C9422 C9426 1.350 . S
C9423 C9426 1.463 . S
C9423 C9428 1.350 . S
C9423 N9431 1.427 . S
C9424 H9415 0.930 . S
C9424 C9422 1.378 . S
C9424 C9425 1.367 . S
C9425 C9424 1.367 . S
C9425 C9427 1.433 . S
C9426 C9422 1.350 . S
C9426 C9423 1.463 . S
C9426 N9430 1.427 . S
C9427 H9417 0.929 . S
C9427 C9425 1.433 . S
C9427 N9430 1.384 . S
C9428 H9419 0.929 . S
C9428 C9420 1.378 . S
C9428 C9423 1.350 . S
C9429 H9416 0.929 . S
C9429 C9421 1.433 . S
C9429 N9431 1.384 . S
N9430 C9426 1.427 . S
N9430 C9427 1.384 . S
N9431 C9423 1.427 . S
N9431 C9429 1.384 . S
H9432 C9438 0.930 . S
H9433 C9442 0.930 . S
H9434 C9447 0.929 . S
H9435 C9445 0.929 . S
H9436 C9440 0.929 . S
H9437 C9446 0.929 . S
C9438 H9432 0.930 . S
C9438 C9439 1.367 . S
C9438 C9446 1.378 . S
C9439 C9438 1.367 . S
C9439 C9447 1.433 . S
C9440 H9436 0.929 . S
C9440 C9442 1.378 . S
C9440 C9444 1.350 . S
C9441 C9444 1.463 . S
C9441 C9446 1.350 . S
C9441 N9449 1.427 . S
C9442 H9433 0.930 . S
C9442 C9440 1.378 . S
C9442 C9443 1.367 . S
C9443 C9442 1.367 . S
C9443 C9445 1.433 . S
C9444 C9440 1.350 . S
C9444 C9441 1.463 . S
C9444 N9448 1.427 . S
C9445 H9435 0.929 . S
C9445 C9443 1.433 . S
C9445 N9448 1.384 . S
C9446 H9437 0.929 . S
C9446 C9438 1.378 . S
C9446 C9441 1.350 . S
C9447 H9434 0.929 . S
C9447 C9439 1.433 . S
C9447 N9449 1.384 . S
N9448 C9444 1.427 . S
N9448 C9445 1.384 . S
N9449 C9441 1.427 . S
N9449 C9447 1.384 . S
H9450 C9456 0.930 . S
H9451 C9460 0.930 . S
H9452 C9465 0.929 . S
H9453 C9463 0.929 . S
H9454 C9458 0.929 . S
H9455 C9464 0.929 . S
C9456 H9450 0.930 . S
C9456 C9457 1.367 . S
C9456 C9464 1.378 . S
C9457 C9456 1.367 . S
C9457 C9465 1.433 . S
C9458 H9454 0.929 . S
C9458 C9460 1.378 . S
C9458 C9462 1.350 . S
C9459 C9462 1.463 . S
C9459 C9464 1.350 . S
C9459 N9467 1.427 . S
C9460 H9451 0.930 . S
C9460 C9458 1.378 . S
C9460 C9461 1.367 . S
C9461 C9460 1.367 . S
C9461 C9463 1.433 . S
C9462 C9458 1.350 . S
C9462 C9459 1.463 . S
C9462 N9466 1.427 . S
C9463 H9453 0.929 . S
C9463 C9461 1.433 . S
C9463 N9466 1.384 . S
C9464 H9455 0.929 . S
C9464 C9456 1.378 . S
C9464 C9459 1.350 . S
C9465 H9452 0.929 . S
C9465 C9457 1.433 . S
C9465 N9467 1.384 . S
N9466 C9462 1.427 . S
N9466 C9463 1.384 . S
N9467 C9459 1.427 . S
N9467 C9465 1.384 . S
H9468 C9474 0.930 . S
H9469 C9478 0.930 . S
H9470 C9483 0.929 . S
H9471 C9481 0.929 . S
H9472 C9476 0.929 . S
H9473 C9482 0.929 . S
C9474 H9468 0.930 . S
C9474 C9475 1.367 . S
C9474 C9482 1.378 . S
C9475 C9474 1.367 . S
C9475 C9483 1.433 . S
C9476 H9472 0.929 . S
C9476 C9478 1.378 . S
C9476 C9480 1.350 . S
C9477 C9480 1.463 . S
C9477 C9482 1.350 . S
C9477 N9485 1.427 . S
C9478 H9469 0.930 . S
C9478 C9476 1.378 . S
C9478 C9479 1.367 . S
C9479 C9478 1.367 . S
C9479 C9481 1.433 . S
C9480 C9476 1.350 . S
C9480 C9477 1.463 . S
C9480 N9484 1.427 . S
C9481 H9471 0.929 . S
C9481 C9479 1.433 . S
C9481 N9484 1.384 . S
C9482 H9473 0.929 . S
C9482 C9474 1.378 . S
C9482 C9477 1.350 . S
C9483 H9470 0.929 . S
C9483 C9475 1.433 . S
C9483 N9485 1.384 . S
N9484 C9480 1.427 . S
N9484 C9481 1.384 . S
N9485 C9477 1.427 . S
N9485 C9483 1.384 . S
H9486 C9492 0.930 . S
H9487 C9496 0.930 . S
H9488 C9501 0.929 . S
H9489 C9499 0.929 . S
H9490 C9494 0.929 . S
H9491 C9500 0.929 . S
C9492 H9486 0.930 . S
C9492 C9493 1.367 . S
C9492 C9500 1.378 . S
C9493 C9492 1.367 . S
C9493 C9501 1.433 . S
C9494 H9490 0.929 . S
C9494 C9496 1.378 . S
C9494 C9498 1.350 . S
C9495 C9498 1.463 . S
C9495 C9500 1.350 . S
C9495 N9503 1.427 . S
C9496 H9487 0.930 . S
C9496 C9494 1.378 . S
C9496 C9497 1.367 . S
C9497 C9496 1.367 . S
C9497 C9499 1.433 . S
C9498 C9494 1.350 . S
C9498 C9495 1.463 . S
C9498 N9502 1.427 . S
C9499 H9489 0.929 . S
C9499 C9497 1.433 . S
C9499 N9502 1.384 . S
C9500 H9491 0.929 . S
C9500 C9492 1.378 . S
C9500 C9495 1.350 . S
C9501 H9488 0.929 . S
C9501 C9493 1.433 . S
C9501 N9503 1.384 . S
N9502 C9498 1.427 . S
N9502 C9499 1.384 . S
N9503 C9495 1.427 . S
N9503 C9501 1.384 . S
H9504 C9510 0.930 . S
H9505 C9514 0.930 . S
H9506 C9519 0.929 . S
H9507 C9517 0.929 . S
H9508 C9512 0.929 . S
H9509 C9518 0.929 . S
C9510 H9504 0.930 . S
C9510 C9511 1.367 . S
C9510 C9518 1.378 . S
C9511 C9510 1.367 . S
C9511 C9519 1.433 . S
C9512 H9508 0.929 . S
C9512 C9514 1.378 . S
C9512 C9516 1.350 . S
C9513 C9516 1.463 . S
C9513 C9518 1.350 . S
C9513 N9521 1.427 . S
C9514 H9505 0.930 . S
C9514 C9512 1.378 . S
C9514 C9515 1.367 . S
C9515 C9514 1.367 . S
C9515 C9517 1.433 . S
C9516 C9512 1.350 . S
C9516 C9513 1.463 . S
C9516 N9520 1.427 . S
C9517 H9507 0.929 . S
C9517 C9515 1.433 . S
C9517 N9520 1.384 . S
C9518 H9509 0.929 . S
C9518 C9510 1.378 . S
C9518 C9513 1.350 . S
C9519 H9506 0.929 . S
C9519 C9511 1.433 . S
C9519 N9521 1.384 . S
N9520 C9516 1.427 . S
N9520 C9517 1.384 . S
N9521 C9513 1.427 . S
N9521 C9519 1.384 . S
H9522 C9528 0.930 . S
H9523 C9532 0.930 . S
H9524 C9537 0.929 . S
H9525 C9535 0.929 . S
H9526 C9530 0.929 . S
H9527 C9536 0.929 . S
C9528 H9522 0.930 . S
C9528 C9529 1.367 . S
C9528 C9536 1.378 . S
C9529 C9528 1.367 . S
C9529 C9537 1.433 . S
C9530 H9526 0.929 . S
C9530 C9532 1.378 . S
C9530 C9534 1.350 . S
C9531 C9534 1.463 . S
C9531 C9536 1.350 . S
C9531 N9539 1.427 . S
C9532 H9523 0.930 . S
C9532 C9530 1.378 . S
C9532 C9533 1.367 . S
C9533 C9532 1.367 . S
C9533 C9535 1.433 . S
C9534 C9530 1.350 . S
C9534 C9531 1.463 . S
C9534 N9538 1.427 . S
C9535 H9525 0.929 . S
C9535 C9533 1.433 . S
C9535 N9538 1.384 . S
C9536 H9527 0.929 . S
C9536 C9528 1.378 . S
C9536 C9531 1.350 . S
C9537 H9524 0.929 . S
C9537 C9529 1.433 . S
C9537 N9539 1.384 . S
N9538 C9534 1.427 . S
N9538 C9535 1.384 . S
N9539 C9531 1.427 . S
N9539 C9537 1.384 . S
H9540 C9546 0.930 . S
H9541 C9550 0.930 . S
H9542 C9555 0.929 . S
H9543 C9553 0.929 . S
H9544 C9548 0.929 . S
H9545 C9554 0.929 . S
C9546 H9540 0.930 . S
C9546 C9547 1.367 . S
C9546 C9554 1.378 . S
C9547 C9546 1.367 . S
C9547 C9555 1.433 . S
C9548 H9544 0.929 . S
C9548 C9550 1.378 . S
C9548 C9552 1.350 . S
C9549 C9552 1.463 . S
C9549 C9554 1.350 . S
C9549 N9557 1.427 . S
C9550 H9541 0.930 . S
C9550 C9548 1.378 . S
C9550 C9551 1.367 . S
C9551 C9550 1.367 . S
C9551 C9553 1.433 . S
C9552 C9548 1.350 . S
C9552 C9549 1.463 . S
C9552 N9556 1.427 . S
C9553 H9543 0.929 . S
C9553 C9551 1.433 . S
C9553 N9556 1.384 . S
C9554 H9545 0.929 . S
C9554 C9546 1.378 . S
C9554 C9549 1.350 . S
C9555 H9542 0.929 . S
C9555 C9547 1.433 . S
C9555 N9557 1.384 . S
N9556 C9552 1.427 . S
N9556 C9553 1.384 . S
N9557 C9549 1.427 . S
N9557 C9555 1.384 . S
H9558 C9564 0.930 . S
H9559 C9568 0.930 . S
H9560 C9573 0.929 . S
H9561 C9571 0.929 . S
H9562 C9566 0.929 . S
H9563 C9572 0.929 . S
C9564 H9558 0.930 . S
C9564 C9565 1.367 . S
C9564 C9572 1.378 . S
C9565 C9564 1.367 . S
C9565 C9573 1.433 . S
C9566 H9562 0.929 . S
C9566 C9568 1.378 . S
C9566 C9570 1.350 . S
C9567 C9570 1.463 . S
C9567 C9572 1.350 . S
C9567 N9575 1.427 . S
C9568 H9559 0.930 . S
C9568 C9566 1.378 . S
C9568 C9569 1.367 . S
C9569 C9568 1.367 . S
C9569 C9571 1.433 . S
C9570 C9566 1.350 . S
C9570 C9567 1.463 . S
C9570 N9574 1.427 . S
C9571 H9561 0.929 . S
C9571 C9569 1.433 . S
C9571 N9574 1.384 . S
C9572 H9563 0.929 . S
C9572 C9564 1.378 . S
C9572 C9567 1.350 . S
C9573 H9560 0.929 . S
C9573 C9565 1.433 . S
C9573 N9575 1.384 . S
N9574 C9570 1.427 . S
N9574 C9571 1.384 . S
N9575 C9567 1.427 . S
N9575 C9573 1.384 . S
H9576 C9582 0.930 . S
H9577 C9586 0.930 . S
H9578 C9591 0.929 . S
H9579 C9589 0.929 . S
H9580 C9584 0.929 . S
H9581 C9590 0.929 . S
C9582 H9576 0.930 . S
C9582 C9583 1.367 . S
C9582 C9590 1.378 . S
C9583 C9582 1.367 . S
C9583 C9591 1.433 . S
C9584 H9580 0.929 . S
C9584 C9586 1.378 . S
C9584 C9588 1.350 . S
C9585 C9588 1.463 . S
C9585 C9590 1.350 . S
C9585 N9593 1.427 . S
C9586 H9577 0.930 . S
C9586 C9584 1.378 . S
C9586 C9587 1.367 . S
C9587 C9586 1.367 . S
C9587 C9589 1.433 . S
C9588 C9584 1.350 . S
C9588 C9585 1.463 . S
C9588 N9592 1.427 . S
C9589 H9579 0.929 . S
C9589 C9587 1.433 . S
C9589 N9592 1.384 . S
C9590 H9581 0.929 . S
C9590 C9582 1.378 . S
C9590 C9585 1.350 . S
C9591 H9578 0.929 . S
C9591 C9583 1.433 . S
C9591 N9593 1.384 . S
N9592 C9588 1.427 . S
N9592 C9589 1.384 . S
N9593 C9585 1.427 . S
N9593 C9591 1.384 . S
H9594 C9600 0.930 . S
H9595 C9604 0.930 . S
H9596 C9609 0.929 . S
H9597 C9607 0.929 . S
H9598 C9602 0.929 . S
H9599 C9608 0.929 . S
C9600 H9594 0.930 . S
C9600 C9601 1.367 . S
C9600 C9608 1.378 . S
C9601 C9600 1.367 . S
C9601 C9609 1.433 . S
C9602 H9598 0.929 . S
C9602 C9604 1.378 . S
C9602 C9606 1.350 . S
C9603 C9606 1.463 . S
C9603 C9608 1.350 . S
C9603 N9611 1.427 . S
C9604 H9595 0.930 . S
C9604 C9602 1.378 . S
C9604 C9605 1.367 . S
C9605 C9604 1.367 . S
C9605 C9607 1.433 . S
C9606 C9602 1.350 . S
C9606 C9603 1.463 . S
C9606 N9610 1.427 . S
C9607 H9597 0.929 . S
C9607 C9605 1.433 . S
C9607 N9610 1.384 . S
C9608 H9599 0.929 . S
C9608 C9600 1.378 . S
C9608 C9603 1.350 . S
C9609 H9596 0.929 . S
C9609 C9601 1.433 . S
C9609 N9611 1.384 . S
N9610 C9606 1.427 . S
N9610 C9607 1.384 . S
N9611 C9603 1.427 . S
N9611 C9609 1.384 . S
H9612 C9618 0.930 . S
H9613 C9622 0.930 . S
H9614 C9627 0.929 . S
H9615 C9625 0.929 . S
H9616 C9620 0.929 . S
H9617 C9626 0.929 . S
C9618 H9612 0.930 . S
C9618 C9619 1.367 . S
C9618 C9626 1.378 . S
C9619 C9618 1.367 . S
C9619 C9627 1.433 . S
C9620 H9616 0.929 . S
C9620 C9622 1.378 . S
C9620 C9624 1.350 . S
C9621 C9624 1.463 . S
C9621 C9626 1.350 . S
C9621 N9629 1.427 . S
C9622 H9613 0.930 . S
C9622 C9620 1.378 . S
C9622 C9623 1.367 . S
C9623 C9622 1.367 . S
C9623 C9625 1.433 . S
C9624 C9620 1.350 . S
C9624 C9621 1.463 . S
C9624 N9628 1.427 . S
C9625 H9615 0.929 . S
C9625 C9623 1.433 . S
C9625 N9628 1.384 . S
C9626 H9617 0.929 . S
C9626 C9618 1.378 . S
C9626 C9621 1.350 . S
C9627 H9614 0.929 . S
C9627 C9619 1.433 . S
C9627 N9629 1.384 . S
N9628 C9624 1.427 . S
N9628 C9625 1.384 . S
N9629 C9621 1.427 . S
N9629 C9627 1.384 . S
H9630 C9636 0.930 . S
H9631 C9640 0.930 . S
H9632 C9645 0.929 . S
H9633 C9643 0.929 . S
H9634 C9638 0.929 . S
H9635 C9644 0.929 . S
C9636 H9630 0.930 . S
C9636 C9637 1.367 . S
C9636 C9644 1.378 . S
C9637 C9636 1.367 . S
C9637 C9645 1.433 . S
C9638 H9634 0.929 . S
C9638 C9640 1.378 . S
C9638 C9642 1.350 . S
C9639 C9642 1.463 . S
C9639 C9644 1.350 . S
C9639 N9647 1.427 . S
C9640 H9631 0.930 . S
C9640 C9638 1.378 . S
C9640 C9641 1.367 . S
C9641 C9640 1.367 . S
C9641 C9643 1.433 . S
C9642 C9638 1.350 . S
C9642 C9639 1.463 . S
C9642 N9646 1.427 . S
C9643 H9633 0.929 . S
C9643 C9641 1.433 . S
C9643 N9646 1.384 . S
C9644 H9635 0.929 . S
C9644 C9636 1.378 . S
C9644 C9639 1.350 . S
C9645 H9632 0.929 . S
C9645 C9637 1.433 . S
C9645 N9647 1.384 . S
N9646 C9642 1.427 . S
N9646 C9643 1.384 . S
N9647 C9639 1.427 . S
N9647 C9645 1.384 . S
H9648 C9654 0.930 . S
H9649 C9658 0.930 . S
H9650 C9663 0.929 . S
H9651 C9661 0.929 . S
H9652 C9656 0.929 . S
H9653 C9662 0.929 . S
C9654 H9648 0.930 . S
C9654 C9655 1.367 . S
C9654 C9662 1.378 . S
C9655 C9654 1.367 . S
C9655 C9663 1.433 . S
C9656 H9652 0.929 . S
C9656 C9658 1.378 . S
C9656 C9660 1.350 . S
C9657 C9660 1.463 . S
C9657 C9662 1.350 . S
C9657 N9665 1.427 . S
C9658 H9649 0.930 . S
C9658 C9656 1.378 . S
C9658 C9659 1.367 . S
C9659 C9658 1.367 . S
C9659 C9661 1.433 . S
C9660 C9656 1.350 . S
C9660 C9657 1.463 . S
C9660 N9664 1.427 . S
C9661 H9651 0.929 . S
C9661 C9659 1.433 . S
C9661 N9664 1.384 . S
C9662 H9653 0.929 . S
C9662 C9654 1.378 . S
C9662 C9657 1.350 . S
C9663 H9650 0.929 . S
C9663 C9655 1.433 . S
C9663 N9665 1.384 . S
N9664 C9660 1.427 . S
N9664 C9661 1.384 . S
N9665 C9657 1.427 . S
N9665 C9663 1.384 . S
H9666 C9672 0.930 . S
H9667 C9676 0.930 . S
H9668 C9681 0.929 . S
H9669 C9679 0.929 . S
H9670 C9674 0.929 . S
H9671 C9680 0.929 . S
C9672 H9666 0.930 . S
C9672 C9673 1.367 . S
C9672 C9680 1.378 . S
C9673 C9672 1.367 . S
C9673 C9681 1.433 . S
C9674 H9670 0.929 . S
C9674 C9676 1.378 . S
C9674 C9678 1.350 . S
C9675 C9678 1.463 . S
C9675 C9680 1.350 . S
C9675 N9683 1.427 . S
C9676 H9667 0.930 . S
C9676 C9674 1.378 . S
C9676 C9677 1.367 . S
C9677 C9676 1.367 . S
C9677 C9679 1.433 . S
C9678 C9674 1.350 . S
C9678 C9675 1.463 . S
C9678 N9682 1.427 . S
C9679 H9669 0.929 . S
C9679 C9677 1.433 . S
C9679 N9682 1.384 . S
C9680 H9671 0.929 . S
C9680 C9672 1.378 . S
C9680 C9675 1.350 . S
C9681 H9668 0.929 . S
C9681 C9673 1.433 . S
C9681 N9683 1.384 . S
N9682 C9678 1.427 . S
N9682 C9679 1.384 . S
N9683 C9675 1.427 . S
N9683 C9681 1.384 . S
H9684 C9690 0.930 . S
H9685 C9694 0.930 . S
H9686 C9699 0.929 . S
H9687 C9697 0.929 . S
H9688 C9692 0.929 . S
H9689 C9698 0.929 . S
C9690 H9684 0.930 . S
C9690 C9691 1.367 . S
C9690 C9698 1.378 . S
C9691 C9690 1.367 . S
C9691 C9699 1.433 . S
C9692 H9688 0.929 . S
C9692 C9694 1.378 . S
C9692 C9696 1.350 . S
C9693 C9696 1.463 . S
C9693 C9698 1.350 . S
C9693 N9701 1.427 . S
C9694 H9685 0.930 . S
C9694 C9692 1.378 . S
C9694 C9695 1.367 . S
C9695 C9694 1.367 . S
C9695 C9697 1.433 . S
C9696 C9692 1.350 . S
C9696 C9693 1.463 . S
C9696 N9700 1.427 . S
C9697 H9687 0.929 . S
C9697 C9695 1.433 . S
C9697 N9700 1.384 . S
C9698 H9689 0.929 . S
C9698 C9690 1.378 . S
C9698 C9693 1.350 . S
C9699 H9686 0.929 . S
C9699 C9691 1.433 . S
C9699 N9701 1.384 . S
N9700 C9696 1.427 . S
N9700 C9697 1.384 . S
N9701 C9693 1.427 . S
N9701 C9699 1.384 . S
H9702 C9708 0.930 . S
H9703 C9712 0.930 . S
H9704 C9717 0.929 . S
H9705 C9715 0.929 . S
H9706 C9710 0.929 . S
H9707 C9716 0.929 . S
C9708 H9702 0.930 . S
C9708 C9709 1.367 . S
C9708 C9716 1.378 . S
C9709 C9708 1.367 . S
C9709 C9717 1.433 . S
C9710 H9706 0.929 . S
C9710 C9712 1.378 . S
C9710 C9714 1.350 . S
C9711 C9714 1.463 . S
C9711 C9716 1.350 . S
C9711 N9719 1.427 . S
C9712 H9703 0.930 . S
C9712 C9710 1.378 . S
C9712 C9713 1.367 . S
C9713 C9712 1.367 . S
C9713 C9715 1.433 . S
C9714 C9710 1.350 . S
C9714 C9711 1.463 . S
C9714 N9718 1.427 . S
C9715 H9705 0.929 . S
C9715 C9713 1.433 . S
C9715 N9718 1.384 . S
C9716 H9707 0.929 . S
C9716 C9708 1.378 . S
C9716 C9711 1.350 . S
C9717 H9704 0.929 . S
C9717 C9709 1.433 . S
C9717 N9719 1.384 . S
N9718 C9714 1.427 . S
N9718 C9715 1.384 . S
N9719 C9711 1.427 . S
N9719 C9717 1.384 . S
H9720 C9726 0.930 . S
H9721 C9730 0.930 . S
H9722 C9735 0.929 . S
H9723 C9733 0.929 . S
H9724 C9728 0.929 . S
H9725 C9734 0.929 . S
C9726 H9720 0.930 . S
C9726 C9727 1.367 . S
C9726 C9734 1.378 . S
C9727 C9726 1.367 . S
C9727 C9735 1.433 . S
C9728 H9724 0.929 . S
C9728 C9730 1.378 . S
C9728 C9732 1.350 . S
C9729 C9732 1.463 . S
C9729 C9734 1.350 . S
C9729 N9737 1.427 . S
C9730 H9721 0.930 . S
C9730 C9728 1.378 . S
C9730 C9731 1.367 . S
C9731 C9730 1.367 . S
C9731 C9733 1.433 . S
C9732 C9728 1.350 . S
C9732 C9729 1.463 . S
C9732 N9736 1.427 . S
C9733 H9723 0.929 . S
C9733 C9731 1.433 . S
C9733 N9736 1.384 . S
C9734 H9725 0.929 . S
C9734 C9726 1.378 . S
C9734 C9729 1.350 . S
C9735 H9722 0.929 . S
C9735 C9727 1.433 . S
C9735 N9737 1.384 . S
N9736 C9732 1.427 . S
N9736 C9733 1.384 . S
N9737 C9729 1.427 . S
N9737 C9735 1.384 . S
H9738 C9744 0.930 . S
H9739 C9748 0.930 . S
H9740 C9753 0.929 . S
H9741 C9751 0.929 . S
H9742 C9746 0.929 . S
H9743 C9752 0.929 . S
C9744 H9738 0.930 . S
C9744 C9745 1.367 . S
C9744 C9752 1.378 . S
C9745 C9744 1.367 . S
C9745 C9753 1.433 . S
C9746 H9742 0.929 . S
C9746 C9748 1.378 . S
C9746 C9750 1.350 . S
C9747 C9750 1.463 . S
C9747 C9752 1.350 . S
C9747 N9755 1.427 . S
C9748 H9739 0.930 . S
C9748 C9746 1.378 . S
C9748 C9749 1.367 . S
C9749 C9748 1.367 . S
C9749 C9751 1.433 . S
C9750 C9746 1.350 . S
C9750 C9747 1.463 . S
C9750 N9754 1.427 . S
C9751 H9741 0.929 . S
C9751 C9749 1.433 . S
C9751 N9754 1.384 . S
C9752 H9743 0.929 . S
C9752 C9744 1.378 . S
C9752 C9747 1.350 . S
C9753 H9740 0.929 . S
C9753 C9745 1.433 . S
C9753 N9755 1.384 . S
N9754 C9750 1.427 . S
N9754 C9751 1.384 . S
N9755 C9747 1.427 . S
N9755 C9753 1.384 . S
H9756 C9762 0.930 . S
H9757 C9766 0.930 . S
H9758 C9771 0.929 . S
H9759 C9769 0.929 . S
H9760 C9764 0.929 . S
H9761 C9770 0.929 . S
C9762 H9756 0.930 . S
C9762 C9763 1.367 . S
C9762 C9770 1.378 . S
C9763 C9762 1.367 . S
C9763 C9771 1.433 . S
C9764 H9760 0.929 . S
C9764 C9766 1.378 . S
C9764 C9768 1.350 . S
C9765 C9768 1.463 . S
C9765 C9770 1.350 . S
C9765 N9773 1.427 . S
C9766 H9757 0.930 . S
C9766 C9764 1.378 . S
C9766 C9767 1.367 . S
C9767 C9766 1.367 . S
C9767 C9769 1.433 . S
C9768 C9764 1.350 . S
C9768 C9765 1.463 . S
C9768 N9772 1.427 . S
C9769 H9759 0.929 . S
C9769 C9767 1.433 . S
C9769 N9772 1.384 . S
C9770 H9761 0.929 . S
C9770 C9762 1.378 . S
C9770 C9765 1.350 . S
C9771 H9758 0.929 . S
C9771 C9763 1.433 . S
C9771 N9773 1.384 . S
N9772 C9768 1.427 . S
N9772 C9769 1.384 . S
N9773 C9765 1.427 . S
N9773 C9771 1.384 . S
H9774 C9780 0.930 . S
H9775 C9784 0.930 . S
H9776 C9789 0.929 . S
H9777 C9787 0.929 . S
H9778 C9782 0.929 . S
H9779 C9788 0.929 . S
C9780 H9774 0.930 . S
C9780 C9781 1.367 . S
C9780 C9788 1.378 . S
C9781 C9780 1.367 . S
C9781 C9789 1.433 . S
C9782 H9778 0.929 . S
C9782 C9784 1.378 . S
C9782 C9786 1.350 . S
C9783 C9786 1.463 . S
C9783 C9788 1.350 . S
C9783 N9791 1.427 . S
C9784 H9775 0.930 . S
C9784 C9782 1.378 . S
C9784 C9785 1.367 . S
C9785 C9784 1.367 . S
C9785 C9787 1.433 . S
C9786 C9782 1.350 . S
C9786 C9783 1.463 . S
C9786 N9790 1.427 . S
C9787 H9777 0.929 . S
C9787 C9785 1.433 . S
C9787 N9790 1.384 . S
C9788 H9779 0.929 . S
C9788 C9780 1.378 . S
C9788 C9783 1.350 . S
C9789 H9776 0.929 . S
C9789 C9781 1.433 . S
C9789 N9791 1.384 . S
N9790 C9786 1.427 . S
N9790 C9787 1.384 . S
N9791 C9783 1.427 . S
N9791 C9789 1.384 . S
H9792 C9798 0.930 . S
H9793 C9802 0.930 . S
H9794 C9807 0.929 . S
H9795 C9805 0.929 . S
H9796 C9800 0.929 . S
H9797 C9806 0.929 . S
C9798 H9792 0.930 . S
C9798 C9799 1.367 . S
C9798 C9806 1.378 . S
C9799 C9798 1.367 . S
C9799 C9807 1.433 . S
C9800 H9796 0.929 . S
C9800 C9802 1.378 . S
C9800 C9804 1.350 . S
C9801 C9804 1.463 . S
C9801 C9806 1.350 . S
C9801 N9809 1.427 . S
C9802 H9793 0.930 . S
C9802 C9800 1.378 . S
C9802 C9803 1.367 . S
C9803 C9802 1.367 . S
C9803 C9805 1.433 . S
C9804 C9800 1.350 . S
C9804 C9801 1.463 . S
C9804 N9808 1.427 . S
C9805 H9795 0.929 . S
C9805 C9803 1.433 . S
C9805 N9808 1.384 . S
C9806 H9797 0.929 . S
C9806 C9798 1.378 . S
C9806 C9801 1.350 . S
C9807 H9794 0.929 . S
C9807 C9799 1.433 . S
C9807 N9809 1.384 . S
N9808 C9804 1.427 . S
N9808 C9805 1.384 . S
N9809 C9801 1.427 . S
N9809 C9807 1.384 . S
H9810 C9816 0.930 . S
H9811 C9820 0.930 . S
H9812 C9825 0.929 . S
H9813 C9823 0.929 . S
H9814 C9818 0.929 . S
H9815 C9824 0.929 . S
C9816 H9810 0.930 . S
C9816 C9817 1.367 . S
C9816 C9824 1.378 . S
C9817 C9816 1.367 . S
C9817 C9825 1.433 . S
C9818 H9814 0.929 . S
C9818 C9820 1.378 . S
C9818 C9822 1.350 . S
C9819 C9822 1.463 . S
C9819 C9824 1.350 . S
C9819 N9827 1.427 . S
C9820 H9811 0.930 . S
C9820 C9818 1.378 . S
C9820 C9821 1.367 . S
C9821 C9820 1.367 . S
C9821 C9823 1.433 . S
C9822 C9818 1.350 . S
C9822 C9819 1.463 . S
C9822 N9826 1.427 . S
C9823 H9813 0.929 . S
C9823 C9821 1.433 . S
C9823 N9826 1.384 . S
C9824 H9815 0.929 . S
C9824 C9816 1.378 . S
C9824 C9819 1.350 . S
C9825 H9812 0.929 . S
C9825 C9817 1.433 . S
C9825 N9827 1.384 . S
N9826 C9822 1.427 . S
N9826 C9823 1.384 . S
N9827 C9819 1.427 . S
N9827 C9825 1.384 . S
H9828 C9834 0.930 . S
H9829 C9838 0.930 . S
H9830 C9843 0.929 . S
H9831 C9841 0.929 . S
H9832 C9836 0.929 . S
H9833 C9842 0.929 . S
C9834 H9828 0.930 . S
C9834 C9835 1.367 . S
C9834 C9842 1.378 . S
C9835 C9834 1.367 . S
C9835 C9843 1.433 . S
C9836 H9832 0.929 . S
C9836 C9838 1.378 . S
C9836 C9840 1.350 . S
C9837 C9840 1.463 . S
C9837 C9842 1.350 . S
C9837 N9845 1.427 . S
C9838 H9829 0.930 . S
C9838 C9836 1.378 . S
C9838 C9839 1.367 . S
C9839 C9838 1.367 . S
C9839 C9841 1.433 . S
C9840 C9836 1.350 . S
C9840 C9837 1.463 . S
C9840 N9844 1.427 . S
C9841 H9831 0.929 . S
C9841 C9839 1.433 . S
C9841 N9844 1.384 . S
C9842 H9833 0.929 . S
C9842 C9834 1.378 . S
C9842 C9837 1.350 . S
C9843 H9830 0.929 . S
C9843 C9835 1.433 . S
C9843 N9845 1.384 . S
N9844 C9840 1.427 . S
N9844 C9841 1.384 . S
N9845 C9837 1.427 . S
N9845 C9843 1.384 . S
H9846 C9852 0.930 . S
H9847 C9856 0.930 . S
H9848 C9861 0.929 . S
H9849 C9859 0.929 . S
H9850 C9854 0.929 . S
H9851 C9860 0.929 . S
C9852 H9846 0.930 . S
C9852 C9853 1.367 . S
C9852 C9860 1.378 . S
C9853 C9852 1.367 . S
C9853 C9861 1.433 . S
C9854 H9850 0.929 . S
C9854 C9856 1.378 . S
C9854 C9858 1.350 . S
C9855 C9858 1.463 . S
C9855 C9860 1.350 . S
C9855 N9863 1.427 . S
C9856 H9847 0.930 . S
C9856 C9854 1.378 . S
C9856 C9857 1.367 . S
C9857 C9856 1.367 . S
C9857 C9859 1.433 . S
C9858 C9854 1.350 . S
C9858 C9855 1.463 . S
C9858 N9862 1.427 . S
C9859 H9849 0.929 . S
C9859 C9857 1.433 . S
C9859 N9862 1.384 . S
C9860 H9851 0.929 . S
C9860 C9852 1.378 . S
C9860 C9855 1.350 . S
C9861 H9848 0.929 . S
C9861 C9853 1.433 . S
C9861 N9863 1.384 . S
N9862 C9858 1.427 . S
N9862 C9859 1.384 . S
N9863 C9855 1.427 . S
N9863 C9861 1.384 . S
H9864 C9870 0.930 . S
H9865 C9874 0.930 . S
H9866 C9879 0.929 . S
H9867 C9877 0.929 . S
H9868 C9872 0.929 . S
H9869 C9878 0.929 . S
C9870 H9864 0.930 . S
C9870 C9871 1.367 . S
C9870 C9878 1.378 . S
C9871 C9870 1.367 . S
C9871 C9879 1.433 . S
C9872 H9868 0.929 . S
C9872 C9874 1.378 . S
C9872 C9876 1.350 . S
C9873 C9876 1.463 . S
C9873 C9878 1.350 . S
C9873 N9881 1.427 . S
C9874 H9865 0.930 . S
C9874 C9872 1.378 . S
C9874 C9875 1.367 . S
C9875 C9874 1.367 . S
C9875 C9877 1.433 . S
C9876 C9872 1.350 . S
C9876 C9873 1.463 . S
C9876 N9880 1.427 . S
C9877 H9867 0.929 . S
C9877 C9875 1.433 . S
C9877 N9880 1.384 . S
C9878 H9869 0.929 . S
C9878 C9870 1.378 . S
C9878 C9873 1.350 . S
C9879 H9866 0.929 . S
C9879 C9871 1.433 . S
C9879 N9881 1.384 . S
N9880 C9876 1.427 . S
N9880 C9877 1.384 . S
N9881 C9873 1.427 . S
N9881 C9879 1.384 . S
H9882 C9888 0.930 . S
H9883 C9892 0.930 . S
H9884 C9897 0.929 . S
H9885 C9895 0.929 . S
H9886 C9890 0.929 . S
H9887 C9896 0.929 . S
C9888 H9882 0.930 . S
C9888 C9889 1.367 . S
C9888 C9896 1.378 . S
C9889 C9888 1.367 . S
C9889 C9897 1.433 . S
C9890 H9886 0.929 . S
C9890 C9892 1.378 . S
C9890 C9894 1.350 . S
C9891 C9894 1.463 . S
C9891 C9896 1.350 . S
C9891 N9899 1.427 . S
C9892 H9883 0.930 . S
C9892 C9890 1.378 . S
C9892 C9893 1.367 . S
C9893 C9892 1.367 . S
C9893 C9895 1.433 . S
C9894 C9890 1.350 . S
C9894 C9891 1.463 . S
C9894 N9898 1.427 . S
C9895 H9885 0.929 . S
C9895 C9893 1.433 . S
C9895 N9898 1.384 . S
C9896 H9887 0.929 . S
C9896 C9888 1.378 . S
C9896 C9891 1.350 . S
C9897 H9884 0.929 . S
C9897 C9889 1.433 . S
C9897 N9899 1.384 . S
N9898 C9894 1.427 . S
N9898 C9895 1.384 . S
N9899 C9891 1.427 . S
N9899 C9897 1.384 . S
H9900 C9906 0.930 . S
H9901 C9910 0.930 . S
H9902 C9915 0.929 . S
H9903 C9913 0.929 . S
H9904 C9908 0.929 . S
H9905 C9914 0.929 . S
C9906 H9900 0.930 . S
C9906 C9907 1.367 . S
C9906 C9914 1.378 . S
C9907 C9906 1.367 . S
C9907 C9915 1.433 . S
C9908 H9904 0.929 . S
C9908 C9910 1.378 . S
C9908 C9912 1.350 . S
C9909 C9912 1.463 . S
C9909 C9914 1.350 . S
C9909 N9917 1.427 . S
C9910 H9901 0.930 . S
C9910 C9908 1.378 . S
C9910 C9911 1.367 . S
C9911 C9910 1.367 . S
C9911 C9913 1.433 . S
C9912 C9908 1.350 . S
C9912 C9909 1.463 . S
C9912 N9916 1.427 . S
C9913 H9903 0.929 . S
C9913 C9911 1.433 . S
C9913 N9916 1.384 . S
C9914 H9905 0.929 . S
C9914 C9906 1.378 . S
C9914 C9909 1.350 . S
C9915 H9902 0.929 . S
C9915 C9907 1.433 . S
C9915 N9917 1.384 . S
N9916 C9912 1.427 . S
N9916 C9913 1.384 . S
N9917 C9909 1.427 . S
N9917 C9915 1.384 . S
H9918 C9924 0.930 . S
H9919 C9928 0.930 . S
H9920 C9933 0.929 . S
H9921 C9931 0.929 . S
H9922 C9926 0.929 . S
H9923 C9932 0.929 . S
C9924 H9918 0.930 . S
C9924 C9925 1.367 . S
C9924 C9932 1.378 . S
C9925 C9924 1.367 . S
C9925 C9933 1.433 . S
C9926 H9922 0.929 . S
C9926 C9928 1.378 . S
C9926 C9930 1.350 . S
C9927 C9930 1.463 . S
C9927 C9932 1.350 . S
C9927 N9935 1.427 . S
C9928 H9919 0.930 . S
C9928 C9926 1.378 . S
C9928 C9929 1.367 . S
C9929 C9928 1.367 . S
C9929 C9931 1.433 . S
C9930 C9926 1.350 . S
C9930 C9927 1.463 . S
C9930 N9934 1.427 . S
C9931 H9921 0.929 . S
C9931 C9929 1.433 . S
C9931 N9934 1.384 . S
C9932 H9923 0.929 . S
C9932 C9924 1.378 . S
C9932 C9927 1.350 . S
C9933 H9920 0.929 . S
C9933 C9925 1.433 . S
C9933 N9935 1.384 . S
N9934 C9930 1.427 . S
N9934 C9931 1.384 . S
N9935 C9927 1.427 . S
N9935 C9933 1.384 . S
H9936 C9942 0.930 . S
H9937 C9946 0.930 . S
H9938 C9951 0.929 . S
H9939 C9949 0.929 . S
H9940 C9944 0.929 . S
H9941 C9950 0.929 . S
C9942 H9936 0.930 . S
C9942 C9943 1.367 . S
C9942 C9950 1.378 . S
C9943 C9942 1.367 . S
C9943 C9951 1.433 . S
C9944 H9940 0.929 . S
C9944 C9946 1.378 . S
C9944 C9948 1.350 . S
C9945 C9948 1.463 . S
C9945 C9950 1.350 . S
C9945 N9953 1.427 . S
C9946 H9937 0.930 . S
C9946 C9944 1.378 . S
C9946 C9947 1.367 . S
C9947 C9946 1.367 . S
C9947 C9949 1.433 . S
C9948 C9944 1.350 . S
C9948 C9945 1.463 . S
C9948 N9952 1.427 . S
C9949 H9939 0.929 . S
C9949 C9947 1.433 . S
C9949 N9952 1.384 . S
C9950 H9941 0.929 . S
C9950 C9942 1.378 . S
C9950 C9945 1.350 . S
C9951 H9938 0.929 . S
C9951 C9943 1.433 . S
C9951 N9953 1.384 . S
N9952 C9948 1.427 . S
N9952 C9949 1.384 . S
N9953 C9945 1.427 . S
N9953 C9951 1.384 . S
H9954 C9960 0.930 . S
H9955 C9964 0.930 . S
H9956 C9969 0.929 . S
H9957 C9967 0.929 . S
H9958 C9962 0.929 . S
H9959 C9968 0.929 . S
C9960 H9954 0.930 . S
C9960 C9961 1.367 . S
C9960 C9968 1.378 . S
C9961 C9960 1.367 . S
C9961 C9969 1.433 . S
C9962 H9958 0.929 . S
C9962 C9964 1.378 . S
C9962 C9966 1.350 . S
C9963 C9966 1.463 . S
C9963 C9968 1.350 . S
C9963 N9971 1.427 . S
C9964 H9955 0.930 . S
C9964 C9962 1.378 . S
C9964 C9965 1.367 . S
C9965 C9964 1.367 . S
C9965 C9967 1.433 . S
C9966 C9962 1.350 . S
C9966 C9963 1.463 . S
C9966 N9970 1.427 . S
C9967 H9957 0.929 . S
C9967 C9965 1.433 . S
C9967 N9970 1.384 . S
C9968 H9959 0.929 . S
C9968 C9960 1.378 . S
C9968 C9963 1.350 . S
C9969 H9956 0.929 . S
C9969 C9961 1.433 . S
C9969 N9971 1.384 . S
N9970 C9966 1.427 . S
N9970 C9967 1.384 . S
N9971 C9963 1.427 . S
N9971 C9969 1.384 . S
H9972 C9978 0.930 . S
H9973 C9982 0.930 . S
H9974 C9987 0.929 . S
H9975 C9985 0.929 . S
H9976 C9980 0.929 . S
H9977 C9986 0.929 . S
C9978 H9972 0.930 . S
C9978 C9979 1.367 . S
C9978 C9986 1.378 . S
C9979 C9978 1.367 . S
C9979 C9987 1.433 . S
C9980 H9976 0.929 . S
C9980 C9982 1.378 . S
C9980 C9984 1.350 . S
C9981 C9984 1.463 . S
C9981 C9986 1.350 . S
C9981 N9989 1.427 . S
C9982 H9973 0.930 . S
C9982 C9980 1.378 . S
C9982 C9983 1.367 . S
C9983 C9982 1.367 . S
C9983 C9985 1.433 . S
C9984 C9980 1.350 . S
C9984 C9981 1.463 . S
C9984 N9988 1.427 . S
C9985 H9975 0.929 . S
C9985 C9983 1.433 . S
C9985 N9988 1.384 . S
C9986 H9977 0.929 . S
C9986 C9978 1.378 . S
C9986 C9981 1.350 . S
C9987 H9974 0.929 . S
C9987 C9979 1.433 . S
C9987 N9989 1.384 . S
N9988 C9984 1.427 . S
N9988 C9985 1.384 . S
N9989 C9981 1.427 . S
N9989 C9987 1.384 . S
H9990 C9996 0.930 . S
H9991 C10000 0.930 . S
H9992 C10005 0.929 . S
H9993 C10003 0.929 . S
H9994 C9998 0.929 . S
H9995 C10004 0.929 . S
C9996 H9990 0.930 . S
C9996 C9997 1.367 . S
C9996 C10004 1.378 . S
C9997 C9996 1.367 . S
C9997 C10005 1.433 . S
C9998 H9994 0.929 . S
C9998 C10000 1.378 . S
C9998 C10002 1.350 . S
C9999 C10002 1.463 . S
C9999 C10004 1.350 . S
C9999 N10007 1.427 . S
C10000 H9991 0.930 . S
C10000 C9998 1.378 . S
C10000 C10001 1.367 . S
C10001 C10000 1.367 . S
C10001 C10003 1.433 . S
C10002 C9998 1.350 . S
C10002 C9999 1.463 . S
C10002 N10006 1.427 . S
C10003 H9993 0.929 . S
C10003 C10001 1.433 . S
C10003 N10006 1.384 . S
C10004 H9995 0.929 . S
C10004 C9996 1.378 . S
C10004 C9999 1.350 . S
C10005 H9992 0.929 . S
C10005 C9997 1.433 . S
C10005 N10007 1.384 . S
N10006 C10002 1.427 . S
N10006 C10003 1.384 . S
N10007 C9999 1.427 . S
N10007 C10005 1.384 . S
H10008 C10014 0.930 . S
H10009 C10018 0.930 . S
H10010 C10023 0.929 . S
H10011 C10021 0.929 . S
H10012 C10016 0.929 . S
H10013 C10022 0.929 . S
C10014 H10008 0.930 . S
C10014 C10015 1.367 . S
C10014 C10022 1.378 . S
C10015 C10014 1.367 . S
C10015 C10023 1.433 . S
C10016 H10012 0.929 . S
C10016 C10018 1.378 . S
C10016 C10020 1.350 . S
C10017 C10020 1.463 . S
C10017 C10022 1.350 . S
C10017 N10025 1.427 . S
C10018 H10009 0.930 . S
C10018 C10016 1.378 . S
C10018 C10019 1.367 . S
C10019 C10018 1.367 . S
C10019 C10021 1.433 . S
C10020 C10016 1.350 . S
C10020 C10017 1.463 . S
C10020 N10024 1.427 . S
C10021 H10011 0.929 . S
C10021 C10019 1.433 . S
C10021 N10024 1.384 . S
C10022 H10013 0.929 . S
C10022 C10014 1.378 . S
C10022 C10017 1.350 . S
C10023 H10010 0.929 . S
C10023 C10015 1.433 . S
C10023 N10025 1.384 . S
N10024 C10020 1.427 . S
N10024 C10021 1.384 . S
N10025 C10017 1.427 . S
N10025 C10023 1.384 . S
H10026 C10032 0.930 . S
H10027 C10036 0.930 . S
H10028 C10041 0.929 . S
H10029 C10039 0.929 . S
H10030 C10034 0.929 . S
H10031 C10040 0.929 . S
C10032 H10026 0.930 . S
C10032 C10033 1.367 . S
C10032 C10040 1.378 . S
C10033 C10032 1.367 . S
C10033 C10041 1.433 . S
C10034 H10030 0.929 . S
C10034 C10036 1.378 . S
C10034 C10038 1.350 . S
C10035 C10038 1.463 . S
C10035 C10040 1.350 . S
C10035 N10043 1.427 . S
C10036 H10027 0.930 . S
C10036 C10034 1.378 . S
C10036 C10037 1.367 . S
C10037 C10036 1.367 . S
C10037 C10039 1.433 . S
C10038 C10034 1.350 . S
C10038 C10035 1.463 . S
C10038 N10042 1.427 . S
C10039 H10029 0.929 . S
C10039 C10037 1.433 . S
C10039 N10042 1.384 . S
C10040 H10031 0.929 . S
C10040 C10032 1.378 . S
C10040 C10035 1.350 . S
C10041 H10028 0.929 . S
C10041 C10033 1.433 . S
C10041 N10043 1.384 . S
N10042 C10038 1.427 . S
N10042 C10039 1.384 . S
N10043 C10035 1.427 . S
N10043 C10041 1.384 . S
H10044 C10050 0.930 . S
H10045 C10054 0.930 . S
H10046 C10059 0.929 . S
H10047 C10057 0.929 . S
H10048 C10052 0.929 . S
H10049 C10058 0.929 . S
C10050 H10044 0.930 . S
C10050 C10051 1.367 . S
C10050 C10058 1.378 . S
C10051 C10050 1.367 . S
C10051 C10059 1.433 . S
C10052 H10048 0.929 . S
C10052 C10054 1.378 . S
C10052 C10056 1.350 . S
C10053 C10056 1.463 . S
C10053 C10058 1.350 . S
C10053 N10061 1.427 . S
C10054 H10045 0.930 . S
C10054 C10052 1.378 . S
C10054 C10055 1.367 . S
C10055 C10054 1.367 . S
C10055 C10057 1.433 . S
C10056 C10052 1.350 . S
C10056 C10053 1.463 . S
C10056 N10060 1.427 . S
C10057 H10047 0.929 . S
C10057 C10055 1.433 . S
C10057 N10060 1.384 . S
C10058 H10049 0.929 . S
C10058 C10050 1.378 . S
C10058 C10053 1.350 . S
C10059 H10046 0.929 . S
C10059 C10051 1.433 . S
C10059 N10061 1.384 . S
N10060 C10056 1.427 . S
N10060 C10057 1.384 . S
N10061 C10053 1.427 . S
N10061 C10059 1.384 . S
H10062 C10068 0.930 . S
H10063 C10072 0.930 . S
H10064 C10077 0.929 . S
H10065 C10075 0.929 . S
H10066 C10070 0.929 . S
H10067 C10076 0.929 . S
C10068 H10062 0.930 . S
C10068 C10069 1.367 . S
C10068 C10076 1.378 . S
C10069 C10068 1.367 . S
C10069 C10077 1.433 . S
C10070 H10066 0.929 . S
C10070 C10072 1.378 . S
C10070 C10074 1.350 . S
C10071 C10074 1.463 . S
C10071 C10076 1.350 . S
C10071 N10079 1.427 . S
C10072 H10063 0.930 . S
C10072 C10070 1.378 . S
C10072 C10073 1.367 . S
C10073 C10072 1.367 . S
C10073 C10075 1.433 . S
C10074 C10070 1.350 . S
C10074 C10071 1.463 . S
C10074 N10078 1.427 . S
C10075 H10065 0.929 . S
C10075 C10073 1.433 . S
C10075 N10078 1.384 . S
C10076 H10067 0.929 . S
C10076 C10068 1.378 . S
C10076 C10071 1.350 . S
C10077 H10064 0.929 . S
C10077 C10069 1.433 . S
C10077 N10079 1.384 . S
N10078 C10074 1.427 . S
N10078 C10075 1.384 . S
N10079 C10071 1.427 . S
N10079 C10077 1.384 . S
C4907 C4123 1.579 . S
C4903 C15 1.575 . S
C4925 C4662 1.577 . S
C4921 C55 1.569 . S
C4943 C4145 1.580 . S
C4939 C95 1.576 . S
C4961 C4640 1.578 . S
C4957 C135 1.569 . S
C4979 C4189 1.579 . S
C4975 C175 1.575 . S
C4993 C215 1.575 . S
C4997 C4684 1.579 . S
C5015 C4167 1.577 . S
C5011 C255 1.569 . S
C5033 C4706 1.581 . S
C5029 C295 1.573 . S
C5051 C4882 1.582 . S
C5047 C335 1.576 . S
C5065 C375 1.569 . S
C5069 C4816 1.578 . S
C5087 C4893 1.582 . S
C5083 C415 1.574 . S
C5101 C455 1.570 . S
C5105 C4871 1.576 . S
C5123 C4838 1.576 . S
C5119 C495 1.570 . S
C5141 C4321 1.582 . S
C5137 C535 1.577 . S
C5159 C4332 1.583 . S
C5155 C575 1.576 . S
C5173 C615 1.569 . S
C5177 C4299 1.577 . S
C5191 C655 1.576 . S
C5195 C4783 1.582 . S
C5213 C4233 1.582 . S
C5209 C695 1.574 . S
C5231 C4728 1.579 . S
C5227 C735 1.570 . S
C5249 C4211 1.577 . S
C5245 C775 1.569 . S
C5263 C815 1.570 . S
C5267 C4222 1.578 . S
C5285 C4805 1.583 . S
C5281 C855 1.577 . S
C5303 C4772 1.582 . S
C5299 C895 1.576 . S
C5317 C935 1.573 . S
C5321 C4794 1.581 . S
C5335 C975 1.575 . S
C5339 C3859 1.547 . S
C5353 C1015 1.574 . S
C5357 C4398 1.554 . S
C5375 C3881 1.557 . S
C5371 C1055 1.576 . S
C5389 C1095 1.575 . S
C5393 C4376 1.549 . S
C5411 C3925 1.546 . S
C5407 C1135 1.577 . S
C5425 C1175 1.577 . S
C5429 C4420 1.557 . S
C5447 C3903 1.557 . S
C5443 C1215 1.577 . S
C5465 C4442 1.545 . S
C5461 C1255 1.578 . S
C5479 C1295 1.580 . S
C5483 C4618 1.553 . S
C5501 C4552 1.558 . S
C5497 C1335 1.577 . S
C5515 C1375 1.575 . S
C5519 C4629 1.548 . S
C5537 C4607 1.547 . S
C5533 C1415 1.575 . S
C5555 C4574 1.551 . S
C5551 C1455 1.581 . S
C5569 C1495 1.576 . S
C5573 C4057 1.546 . S
C5587 C1535 1.580 . S
C5591 C4068 1.546 . S
C5609 C4035 1.553 . S
C5605 C1575 1.580 . S
C5623 C1615 1.580 . S
C5627 C4519 1.554 . S
C5645 C3969 1.554 . S
C5641 C1655 1.574 . S
C5659 C1695 1.576 . S
C5663 C4464 1.557 . S
C5681 C3947 1.547 . S
C5677 C1735 1.575 . S
C5695 C1775 1.577 . S
C5699 C3958 1.545 . S
C5717 C4541 1.551 . S
C5713 C1815 1.574 . S
C5735 C4508 1.549 . S
C5731 C1855 1.574 . S
C5753 C4530 1.547 . S
C5749 C1895 1.575 . S
C5767 C1935 1.571 . S
C5771 C4651 1.579 . S
C5789 C4134 1.579 . S
C5785 C1975 1.574 . S
C5807 C4673 1.579 . S
C5803 C2015 1.575 . S
C5825 C4112 1.577 . S
C5821 C2055 1.569 . S
C5839 C2095 1.569 . S
C5843 C4717 1.577 . S
C5861 C4156 1.577 . S
C5857 C2135 1.568 . S
C5879 C4695 1.577 . S
C5875 C2175 1.572 . S
C5897 C4178 1.576 . S
C5893 C2215 1.571 . S
C5911 C2255 1.576 . S
C5915 C4354 1.582 . S
C5933 C4288 1.579 . S
C5929 C2295 1.575 . S
C5951 C4365 1.580 . S
C5947 C2335 1.571 . S
C5965 C2375 1.576 . S
C5969 C4343 1.581 . S
C5983 C2415 1.576 . S
C5987 C4310 1.580 . S
C6001 C2455 1.569 . S
C6005 C4849 1.578 . S
C6019 C2495 1.570 . S
C6023 C4860 1.579 . S
C6041 C4827 1.576 . S
C6037 C2535 1.568 . S
C6055 C2575 1.570 . S
C6059 C4255 1.576 . S
C6077 C4761 1.579 . S
C6073 C2615 1.575 . S
C6095 C4200 1.581 . S
C6091 C2655 1.573 . S
C6113 C4739 1.578 . S
C6109 C2695 1.570 . S
C6127 C2735 1.575 . S
C6131 C4750 1.582 . S
C6145 C2775 1.571 . S
C6149 C4277 1.576 . S
C6167 C4244 1.580 . S
C6163 C2815 1.576 . S
C6181 C2855 1.573 . S
C6185 C4266 1.581 . S
C6199 C2895 1.579 . S
C6203 C4387 1.556 . S
C6221 C3870 1.557 . S
C6217 C2935 1.576 . S
C6239 C4409 1.557 . S
C6235 C2975 1.576 . S
C6253 C3015 1.575 . S
C6257 C3848 1.556 . S
C6275 C4453 1.548 . S
C6271 C3055 1.575 . S
C6293 C3892 1.545 . S
C6289 C3095 1.577 . S
C6307 C3135 1.577 . S
C6311 C4431 1.557 . S
C6325 C3175 1.580 . S
C6329 C3914 1.547 . S
C6347 C4090 1.557 . S
C6343 C3215 1.576 . S
C6361 C3255 1.577 . S
C6365 C4024 1.546 . S
C6383 C4101 1.545 . S
C6379 C3295 1.579 . S
C6401 C4079 1.557 . S
C6397 C3335 1.577 . S
C6415 C3375 1.575 . S
C6419 C4046 1.548 . S
C6433 C3415 1.581 . S
C6437 C4585 1.550 . S
C6455 C4596 1.551 . S
C6451 C3455 1.574 . S
C6469 C3495 1.576 . S
C6473 C4563 1.557 . S
C6491 C3991 1.546 . S
C6487 C3535 1.576 . S
C6509 C4497 1.552 . S
C6505 C3575 1.581 . S
C6523 C3615 1.575 . S
C6527 C3936 1.556 . S
C6541 C3655 1.576 . S
C6545 C4475 1.546 . S
C6559 C3695 1.574 . S
C6563 C4486 1.554 . S
C6577 C3735 1.580 . S
C6581 C4013 1.546 . S
C6595 C3775 1.579 . S
C6599 C3980 1.546 . S
C6617 C4002 1.547 . S
C6613 C3815 1.580 . S
C6635 C3944 1.282 . S
C6631 C2 1.621 . S
C6653 C3955 1.273 . S
C6649 C42 1.628 . S
C6667 C82 1.632 . S
C6671 C3966 1.281 . S
C6685 C122 1.630 . S
C6689 C3933 1.275 . S
C6703 C162 1.617 . S
C6707 C4010 1.265 . S
C6725 C3977 1.291 . S
C6721 C202 1.633 . S
C6743 C3988 1.265 . S
C6739 C242 1.617 . S
C6757 C282 1.631 . S
C6761 C3999 1.280 . S
C6775 C322 1.632 . S
C6779 C3878 1.288 . S
C6793 C362 1.620 . S
C6797 C3845 1.262 . S
C6811 C402 1.619 . S
C6815 C3856 1.261 . S
C6833 C3867 1.294 . S
C6829 C442 1.630 . S
C6847 C482 1.633 . S
C6851 C3900 1.293 . S
C6865 C522 1.629 . S
C6869 C3911 1.275 . S
C6883 C562 1.626 . S
C6887 C3922 1.267 . S
C6901 C602 1.629 . S
C6905 C3889 1.275 . S
C6923 C4043 1.269 . S
C6919 C642 1.617 . S
C6937 C682 1.619 . S
C6941 C4615 1.261 . S
C6959 C4021 1.261 . S
C6955 C722 1.620 . S
C6977 C4626 1.291 . S
C6973 C762 1.627 . S
C6991 C802 1.619 . S
C6995 C4604 1.261 . S
C7009 C842 1.618 . S
C7013 C4593 1.262 . S
C7031 C4560 1.285 . S
C7027 C882 1.632 . S
C7049 C4582 1.271 . S
C7045 C922 1.618 . S
C7067 C4208 1.603 . S
C7063 C962 1.707 . S
C7085 C4219 1.604 . S
C7081 C1002 1.708 . S
C7103 C4230 1.607 . S
C7099 C1042 1.706 . S
C7117 C1082 1.708 . S
C7121 C4197 1.606 . S
C7135 C1122 1.704 . S
C7139 C4274 1.620 . S
C7157 C4241 1.620 . S
C7153 C1162 1.703 . S
C7171 C1202 1.703 . S
C7175 C4252 1.620 . S
C7193 C4263 1.603 . S
C7189 C1242 1.708 . S
C7207 C1282 1.707 . S
C7211 C4142 1.605 . S
C7229 C4109 1.605 . S
C7225 C1322 1.708 . S
C7243 C1362 1.706 . S
C7247 C4120 1.607 . S
C7265 C4131 1.611 . S
C7261 C1402 1.706 . S
C7283 C4164 1.612 . S
C7279 C1442 1.706 . S
C7297 C1482 1.707 . S
C7301 C4175 1.605 . S
C7319 C4186 1.609 . S
C7315 C1522 1.707 . S
C7337 C4153 1.618 . S
C7333 C1562 1.703 . S
C7355 C4307 1.616 . S
C7351 C1602 1.704 . S
C7373 C4879 1.604 . S
C7369 C1642 1.708 . S
C7391 C4285 1.615 . S
C7387 C1682 1.705 . S
C7405 C1722 1.707 . S
C7409 C4890 1.604 . S
C7423 C1762 1.707 . S
C7427 C4868 1.605 . S
C7445 C4857 1.617 . S
C7441 C1802 1.705 . S
C7463 C4824 1.620 . S
C7459 C1842 1.703 . S
C7481 C4846 1.608 . S
C7477 C1882 1.706 . S
C7495 C1922 1.617 . S
C7499 C4472 1.268 . S
C7517 C4483 1.270 . S
C7513 C1962 1.627 . S
C7531 C2002 1.626 . S
C7535 C4494 1.267 . S
C7553 C4461 1.280 . S
C7549 C2042 1.621 . S
C7567 C2082 1.626 . S
C7571 C4538 1.268 . S
C7585 C2122 1.623 . S
C7589 C4505 1.285 . S
C7603 C2162 1.629 . S
C7607 C4516 1.275 . S
C7621 C2202 1.631 . S
C7625 C4527 1.281 . S
C7639 C2242 1.620 . S
C7643 C4406 1.261 . S
C7661 C4373 1.286 . S
C7657 C2282 1.633 . S
C7679 C4384 1.267 . S
C7675 C2322 1.617 . S
C7693 C2362 1.633 . S
C7697 C4395 1.288 . S
C7711 C2402 1.630 . S
C7715 C4428 1.275 . S
C7729 C2442 1.617 . S
C7733 C4439 1.263 . S
C7747 C2482 1.632 . S
C7751 C4450 1.294 . S
C7765 C2522 1.629 . S
C7769 C4417 1.275 . S
C7787 C4571 1.276 . S
C7783 C2562 1.630 . S
C7805 C4087 1.280 . S
C7801 C2602 1.631 . S
C7823 C4549 1.294 . S
C7819 C2642 1.630 . S
C7841 C4098 1.286 . S
C7837 C2682 1.633 . S
C7859 C4076 1.294 . S
C7855 C2722 1.630 . S
C7877 C4065 1.283 . S
C7873 C2762 1.622 . S
C7891 C2802 1.633 . S
C7895 C4032 1.286 . S
C7913 C4054 1.261 . S
C7909 C2842 1.619 . S
C7927 C2882 1.707 . S
C7931 C4736 1.603 . S
C7945 C2922 1.704 . S
C7949 C4747 1.618 . S
C7967 C4758 1.613 . S
C7963 C2962 1.705 . S
C7981 C3002 1.707 . S
C7985 C4725 1.606 . S
C8003 C4802 1.611 . S
C7999 C3042 1.706 . S
C8017 C3082 1.704 . S
C8021 C4769 1.615 . S
C8035 C3122 1.704 . S
C8039 C4780 1.618 . S
C8057 C4791 1.616 . S
C8053 C3162 1.703 . S
C8075 C4670 1.617 . S
C8071 C3202 1.703 . S
C8093 C4637 1.605 . S
C8089 C3242 1.708 . S
C8111 C4648 1.609 . S
C8107 C3282 1.706 . S
C8129 C4659 1.619 . S
C8125 C3322 1.704 . S
C8143 C3362 1.708 . S
C8147 C4692 1.604 . S
C8165 C4703 1.606 . S
C8161 C3402 1.706 . S
C8179 C3442 1.705 . S
C8183 C4714 1.615 . S
C8197 C3482 1.707 . S
C8201 C4681 1.603 . S
C8215 C3522 1.707 . S
C8219 C4835 1.605 . S
C8233 C3562 1.708 . S
C8237 C4351 1.603 . S
C8251 C3602 1.706 . S
C8255 C4813 1.610 . S
C8273 C4362 1.603 . S
C8269 C3642 1.708 . S
C8287 C3682 1.706 . S
C8291 C4340 1.606 . S
C8305 C3722 1.706 . S
C8309 C4329 1.613 . S
C8323 C3762 1.708 . S
C8327 C4296 1.604 . S
C8345 C4318 1.615 . S
C8341 C3802 1.705 . S
C8359 C21 1.672 . S
C8363 C3847 1.630 . S
C8377 C61 1.661 . S
C8381 C3858 1.621 . S
C8395 C101 1.674 . S
C8399 C3869 1.634 . S
C8417 C3880 1.627 . S
C8413 C141 1.670 . S
C8435 C3891 1.615 . S
C8431 C181 1.658 . S
C8449 C221 1.660 . S
C8453 C3902 1.619 . S
C8467 C261 1.658 . S
C8471 C3913 1.616 . S
C8485 C301 1.667 . S
C8489 C3924 1.623 . S
C8507 C3935 1.616 . S
C8503 C341 1.658 . S
C8525 C3946 1.623 . S
C8521 C381 1.667 . S
C8539 C421 1.657 . S
C8543 C3957 1.615 . S
C8561 C3968 1.633 . S
C8557 C461 1.673 . S
C8575 C501 1.658 . S
C8579 C3979 1.615 . S
C8593 C541 1.674 . S
C8597 C3990 1.634 . S
C8611 C581 1.667 . S
C8615 C4001 1.624 . S
C8629 C621 1.673 . S
C8633 C4012 1.632 . S
C8647 C661 1.661 . S
C8651 C4023 1.617 . S
C8665 C701 1.670 . S
C8669 C4034 1.628 . S
C8687 C4045 1.616 . S
C8683 C741 1.660 . S
C8705 C4056 1.633 . S
C8701 C781 1.674 . S
C8723 C4067 1.622 . S
C8719 C821 1.665 . S
C8741 C4078 1.625 . S
C8737 C861 1.668 . S
C8755 C901 1.674 . S
C8759 C4089 1.633 . S
C8777 C4100 1.615 . S
C8773 C941 1.658 . S
C8791 C981 1.760 . S
C8795 C4111 1.750 . S
C8809 C1021 1.756 . S
C8813 C4122 1.744 . S
C8827 C1061 1.761 . S
C8831 C4133 1.750 . S
C8849 C4144 1.744 . S
C8845 C1101 1.757 . S
C8863 C1141 1.755 . S
C8867 C4155 1.743 . S
C8885 C4166 1.750 . S
C8881 C1181 1.761 . S
C8899 C1221 1.755 . S
C8903 C4177 1.743 . S
C8917 C1261 1.758 . S
C8921 C4188 1.747 . S
C8939 C4199 1.751 . S
C8935 C1301 1.761 . S
C8953 C1341 1.758 . S
C8957 C4210 1.747 . S
C8975 C4221 1.743 . S
C8971 C1381 1.756 . S
C8989 C1421 1.756 . S
C8993 C4232 1.745 . S
C9011 C4243 1.743 . S
C9007 C1461 1.755 . S
C9029 C4254 1.744 . S
C9025 C1501 1.755 . S
C9047 C4265 1.743 . S
C9043 C1541 1.755 . S
C9061 C1581 1.761 . S
C9065 C4276 1.750 . S
C9079 C1621 1.761 . S
C9083 C4287 1.751 . S
C9097 C1661 1.758 . S
C9101 C4298 1.746 . S
C9115 C1701 1.760 . S
C9119 C4309 1.749 . S
C9133 C1741 1.759 . S
C9137 C4320 1.749 . S
C9151 C1781 1.755 . S
C9155 C4331 1.743 . S
C9173 C4342 1.747 . S
C9169 C1821 1.758 . S
C9187 C1861 1.759 . S
C9191 C4353 1.748 . S
C9209 C4364 1.750 . S
C9205 C1901 1.761 . S
C9223 C1941 1.659 . S
C9227 C4375 1.617 . S
C9245 C4386 1.616 . S
C9241 C1981 1.658 . S
C9263 C4397 1.625 . S
C9259 C2021 1.668 . S
C9281 C4408 1.626 . S
C9277 C2061 1.669 . S
C9295 C2101 1.663 . S
C9299 C4419 1.619 . S
C9313 C2141 1.658 . S
C9317 C4430 1.615 . S
C9335 C4441 1.626 . S
C9331 C2181 1.666 . S
C9353 C4452 1.630 . S
C9349 C2221 1.672 . S
C9367 C2261 1.660 . S
C9371 C4463 1.620 . S
C9385 C2301 1.671 . S
C9389 C4474 1.629 . S
C9403 C2341 1.672 . S
C9407 C4485 1.633 . S
C9421 C2381 1.659 . S
C9425 C4496 1.616 . S
C9439 C2421 1.671 . S
C9443 C4507 1.629 . S
C9461 C4518 1.614 . S
C9457 C2461 1.658 . S
C9479 C4529 1.633 . S
C9475 C2501 1.674 . S
C9497 C4540 1.633 . S
C9493 C2541 1.674 . S
C9515 C4551 1.627 . S
C9511 C2581 1.670 . S
C9529 C2621 1.672 . S
C9533 C4562 1.633 . S
C9547 C2661 1.661 . S
C9551 C4573 1.620 . S
C9569 C4584 1.619 . S
C9565 C2701 1.663 . S
C9583 C2741 1.673 . S
C9587 C4595 1.634 . S
C9605 C4606 1.628 . S
C9601 C2781 1.671 . S
C9623 C4617 1.616 . S
C9619 C2821 1.660 . S
C9641 C4628 1.631 . S
C9637 C2861 1.673 . S
C9655 C2901 1.757 . S
C9659 C4639 1.746 . S
C9673 C2941 1.759 . S
C9677 C4650 1.747 . S
C9691 C2981 1.756 . S
C9695 C4661 1.743 . S
C9709 C3021 1.755 . S
C9713 C4672 1.743 . S
C9731 C4683 1.743 . S
C9727 C3061 1.755 . S
C9749 C4694 1.744 . S
C9745 C3101 1.756 . S
C9767 C4705 1.748 . S
C9763 C3141 1.759 . S
C9781 C3181 1.759 . S
C9785 C4716 1.747 . S
C9799 C3221 1.761 . S
C9803 C4727 1.751 . S
C9821 C4738 1.743 . S
C9817 C3261 1.756 . S
C9839 C4749 1.743 . S
C9835 C3301 1.755 . S
C9857 C4760 1.750 . S
C9853 C3341 1.761 . S
C9875 C4771 1.743 . S
C9871 C3381 1.755 . S
C9893 C4782 1.743 . S
C9889 C3421 1.755 . S
C9911 C4793 1.743 . S
C9907 C3461 1.755 . S
C9929 C4804 1.751 . S
C9925 C3501 1.761 . S
C9947 C4815 1.745 . S
C9943 C3541 1.757 . S
C9965 C4826 1.747 . S
C9961 C3581 1.758 . S
C9983 C4837 1.745 . S
C9979 C3621 1.757 . S
C9997 C3661 1.760 . S
C10001 C4848 1.749 . S
C10019 C4859 1.745 . S
C10015 C3701 1.756 . S
C10033 C3741 1.758 . S
C10037 C4870 1.747 . S
C10055 C4881 1.743 . S
C10051 C3781 1.756 . S
C10073 C4892 1.743 . S
C10069 C3821 1.756 . S
