# Generated by pormake.
# Topology pts, (4,4)-cn, num edge types: 1
# Building blocks:
#     Node 0, Type 0, BuildingBlock: ESEHIV_clean_sbu_0, # of connection points: 4
#     Node 1, Type 0, BuildingBlock: ESEHIV_clean_sbu_0, # of connection points: 4
#     Node 2, Type 1, BuildingBlock: QUQFOY_clean_sbu_1, # of connection points: 4
#     Node 3, Type 1, BuildingBlock: QUQFOY_clean_sbu_1, # of connection points: 4
#     Edge 4, Type (0, 1), BuildingBlock: XUDNAN_clean_linker_2, # of connection points: 2
#     Edge 5, Type (0, 1), BuildingBlock: XUDNAN_clean_linker_2, # of connection points: 2
#     Edge 6, Type (0, 1), BuildingBlock: XUDNAN_clean_linker_2, # of connection points: 2
#     Edge 7, Type (0, 1), BuildingBlock: XUDNAN_clean_linker_2, # of connection points: 2
#     Edge 8, Type (0, 1), BuildingBlock: XUDNAN_clean_linker_2, # of connection points: 2
#     Edge 9, Type (0, 1), BuildingBlock: XUDNAN_clean_linker_2, # of connection points: 2
#     Edge 10, Type (0, 1), BuildingBlock: XUDNAN_clean_linker_2, # of connection points: 2
#     Edge 11, Type (0, 1), BuildingBlock: XUDNAN_clean_linker_2, # of connection points: 2
# Relax obj value: 0.097
# Max RMSD: 0.250
# Mean RMSD: 0.176
data_MOF--net-pts--node1-ESEHIV_clean_sbu_0--node2-QUQFOY_clean_sbu_1--edge1-XUDNAN_clean_linker_2
_symmetry_space_group_name_H-M    P1
_symmetry_Int_Tables_number       1
_symmetry_cell_setting            triclinic
loop_
_symmetry_equiv_pos_as_xyz
'x, y, z'
_cell_length_a     23.569511
_cell_length_b     25.899324
_cell_length_c     38.855933
_cell_angle_alpha  93.732604
_cell_angle_beta   93.959325
_cell_angle_gamma 89.834583
loop_
_atom_site_label
_atom_site_type_symbol
_atom_site_fract_x
_atom_site_fract_y
_atom_site_fract_z
_atom_type_partial_charge
Cu0 Cu 0.57629 0.07242 0.03669 0.0
N1 N 0.64422 0.09846 0.02268 0.0
N2 N 0.7183 0.09929 0.98966 0.0
C3 C 0.67398 0.07195 0.99912 0.0
C4 C 0.7163 0.1452 1.0082 0.0
C5 C 0.67038 0.1446 0.02858 0.0
O6 O 0.5892 1.00085 0.04795 0.0
C7 C 0.487 0.04301 0.98439 0.0
O8 O 0.48437 0.99858 0.99869 0.0
H9 H 0.66133 0.03401 0.98796 0.0
H10 H 0.65631 0.17593 0.04569 0.0
N11 N 0.5426 0.10779 0.0736 0.0
N12 N 0.48482 0.11804 0.11688 0.0
C13 C 0.5102 0.0841 0.09502 0.0
C14 C 0.53782 0.15874 0.08205 0.0
C15 C 0.50212 0.1652 0.10882 0.0
C16 C 0.62542 0.97851 0.06814 0.0
O17 O 0.62184 0.92793 0.0686 0.0
H18 H 0.50306 0.04273 0.09321 0.0
H19 H 0.55709 0.18901 0.06888 0.0
O20 O 0.52275 0.07707 0.99688 0.0
H21 H 0.74535 0.17717 1.00684 0.0
H22 H 0.48907 0.20176 0.12087 0.0
Cu23 Cu 0.02295 0.57604 0.52596 0.0
N24 N 0.98193 0.54039 0.55652 0.0
N25 N 0.96421 0.486 0.59691 0.0
C26 C 1.00202 0.50105 0.57498 0.0
C27 C 0.91852 0.51681 0.59196 0.0
C28 C 0.92939 0.55006 0.56687 0.0
O29 O 0.05264 0.52271 0.49408 0.0
C30 C 0.09731 0.66091 0.54296 0.0
O31 O 0.09331 0.66585 0.50947 0.0
H32 H 0.04444 0.48531 0.57343 0.0
H33 H 0.90131 0.57982 0.55745 0.0
N34 N 0.97667 0.62215 0.50133 0.0
N35 N 0.95887 0.6827 0.46328 0.0
C36 C 0.98442 0.637 0.46931 0.0
C37 C 0.94423 0.65937 0.51574 0.0
C38 C 0.93292 0.69647 0.49236 0.0
C39 C 0.08693 0.5284 0.47073 0.0
O40 O 0.11076 0.57368 0.46843 0.0
H41 H 0.01351 0.61789 0.45235 0.0
H42 H 0.93453 0.66227 0.54259 0.0
O43 O 0.07703 0.6204 0.55453 0.0
H44 H 0.88031 0.51579 0.60585 0.0
H45 H 0.91066 0.7325 0.49734 0.0
O46 O 0.97577 0.04057 0.24039 0.0
Cd47 Cd 0.04587 0.02558 0.27339 0.0
Cd48 Cd 0.04693 0.14391 0.27116 0.0
O49 O 0.97153 0.12615 0.24174 0.0
O50 O 0.0428 0.94826 0.27317 0.0
O51 O 0.03363 0.99839 0.3204 0.0
C52 C 0.03453 0.95232 0.30561 0.0
C53 C 0.05441 0.22251 0.30562 0.0
C54 C 0.95141 0.08186 0.23116 0.0
C55 C 0.14879 0.0794 0.24796 0.0
O56 O 0.12284 0.12243 0.25057 0.0
O57 O 0.1265 0.03823 0.25719 0.0
O58 O 0.05351 0.22109 0.27242 0.0
O59 O 0.04849 0.1792 0.31969 0.0
O60 O 1.00374 0.09906 0.80121 0.0
Cd61 Cd 0.07018 0.12092 0.77299 0.0
Cd62 Cd 0.07943 1.00871 0.76709 0.0
O63 O 0.00575 1.01384 0.79312 0.0
O64 O 0.05954 0.19774 0.77632 0.0
O65 O 0.05558 0.15238 0.7263 0.0
C66 C 0.05151 0.19665 0.74321 0.0
C67 C 0.0867 0.95038 0.71868 0.0
C68 C 0.98373 0.05484 0.80626 0.0
C69 C 0.17642 0.07031 0.80461 0.0
O70 O 0.15385 0.02622 0.79662 0.0
O71 O 0.15157 0.11158 0.79567 0.0
O72 O 0.08642 0.93451 0.74944 0.0
O73 O 0.08139 0.99951 0.71523 0.0
H74 H 0.3979 0.17879 0.13908 0.0
H75 H 0.47762 0.02882 0.14927 0.0
H76 H 0.40253 1.00396 0.18614 0.0
H77 H 0.35129 0.19378 0.22786 0.0
H78 H 0.28559 0.22467 0.21436 0.0
H79 H 0.34777 0.23192 0.19058 0.0
H80 H 0.29109 0.19734 0.13433 0.0
H81 H 0.22891 0.1897 0.15793 0.0
H82 H 0.25638 0.13523 0.13303 0.0
H83 H 0.31512 0.99293 0.21852 0.0
H84 H 0.22331 0.99775 0.24557 0.0
H85 H 0.20152 0.15566 0.21567 0.0
C86 C 0.40031 0.14116 0.14964 0.0
C87 C 0.44373 0.10571 0.14106 0.0
C88 C 0.4445 0.05643 0.15501 0.0
C89 C 0.40218 0.04203 0.17619 0.0
C90 C 0.35939 0.07743 0.1835 0.0
C91 C 0.35836 0.12615 0.17091 0.0
C92 C 0.3064 0.15615 0.18163 0.0
C93 C 0.32382 0.20449 0.205 0.0
C94 C 0.26847 0.17042 0.14983 0.0
C95 C 0.27793 0.11634 0.20166 0.0
C96 C 0.3093 0.07127 0.20254 0.0
C97 C 0.29047 0.02824 0.21832 0.0
C98 C 0.23814 0.03131 0.23355 0.0
C99 C 0.20515 0.07713 0.23297 0.0
C100 C 0.22583 0.12022 0.21694 0.0
H101 H 0.01359 0.39099 0.58968 0.0
H102 H 0.93438 0.49716 0.66266 0.0
H103 H 0.94962 0.43478 0.70789 0.0
H104 H 0.95204 0.27496 0.61921 0.0
H105 H 0.01411 0.23563 0.61278 0.0
H106 H 0.9989 0.28922 0.5863 0.0
H107 H 0.0987 0.32755 0.60433 0.0
H108 H 0.11422 0.2741 0.63089 0.0
H109 H 0.12013 0.33957 0.64958 0.0
H110 H 0.97616 0.36321 0.74552 0.0
H111 H 0.00511 0.28316 0.77273 0.0
H112 H 0.06175 0.21882 0.67498 0.0
C113 C 0.99979 0.40094 0.61527 0.0
C114 C 0.97295 0.44891 0.62284 0.0
C115 C 0.95464 0.46051 0.65638 0.0
C116 C 0.96338 0.42545 0.68222 0.0
C117 C 0.98979 0.37849 0.67398 0.0
C118 C 0.00716 0.36575 0.64126 0.0
C119 C 0.03248 0.31167 0.63913 0.0
C120 C 0.99727 0.27575 0.61279 0.0
C121 C 0.09511 0.31335 0.63047 0.0
C122 C 0.02704 0.29629 0.67584 0.0
C123 C 1.00282 0.33581 0.69549 0.0
C124 C 0.99477 0.33183 0.73036 0.0
C125 C 0.01157 0.2862 0.74561 0.0
C126 C 0.0355 0.2446 0.726 0.0
C127 C 0.04315 0.24977 0.69056 0.0
H128 H 0.71536 0.93471 0.10376 0.0
H129 H 0.63993 0.08403 0.08619 0.0
H130 H 0.71452 0.12661 0.12464 0.0
H131 H 0.75262 0.96236 0.19394 0.0
H132 H 0.81816 0.92635 0.19365 0.0
H133 H 0.75952 0.90788 0.1632 0.0
H134 H 0.82418 0.91563 0.11247 0.0
H135 H 0.88308 0.93396 0.14276 0.0
H136 H 0.86171 0.97532 0.10863 0.0
H137 H 0.79853 0.1531 0.16646 0.0
H138 H 0.88338 0.16063 0.20764 0.0
H139 H 0.9021 0.9935 0.19949 0.0
C140 C 0.71433 0.97646 0.10773 0.0
C141 C 0.67121 1.00595 0.09091 0.0
C142 C 0.67212 0.06031 0.09754 0.0
C143 C 0.71462 0.08498 0.11981 0.0
C144 C 0.75615 0.05466 0.13583 0.0
C145 C 0.75623 1.0015 0.13013 0.0
C146 C 0.80486 0.97749 0.15108 0.0
C147 C 0.78243 0.9414 0.177 0.0
C148 C 0.84589 0.94893 0.12731 0.0
C149 C 0.83221 0.02551 0.16941 0.0
C150 C 0.80359 0.06971 0.16026 0.0
C151 C 0.82124 0.1187 0.17382 0.0
C152 C 0.86951 0.1226 0.19723 0.0
C153 C 0.89957 0.07774 0.20698 0.0
C154 C 0.8802 0.02865 0.19279 0.0
H155 H 0.0852 0.67426 0.61323 0.0
H156 H 0.13855 0.75361 0.52581 0.0
H157 H 0.14483 0.83552 0.56183 0.0
H158 H 0.99715 0.77169 0.64488 0.0
H159 H 0.01499 0.76362 0.69007 0.0
H160 H 0.02063 0.70966 0.65889 0.0
H161 H 0.12631 0.69723 0.67958 0.0
H162 H 0.12081 0.75068 0.71128 0.0
H163 H 0.17483 0.75109 0.68064 0.0
H164 H 0.13424 0.91079 0.60506 0.0
H165 H 0.11753 0.97246 0.65459 0.0
H166 H 0.07409 0.84458 0.71471 0.0
C167 C 0.09982 0.70851 0.60191 0.0
C168 C 0.11156 0.70723 0.56661 0.0
C169 C 0.12952 0.75332 0.55275 0.0
C170 C 0.13306 0.80022 0.573 0.0
C171 C 0.11909 0.80053 0.60726 0.0
C172 C 0.10382 0.75576 0.62184 0.0
C173 C 0.08873 0.76721 0.65892 0.0
C174 C 0.0267 0.75215 0.66343 0.0
C175 C 0.13015 0.73994 0.68409 0.0
C176 C 0.09677 0.82547 0.66261 0.0
C177 C 0.11416 0.84392 0.63247 0.0
C178 C 0.12148 0.8967 0.62898 0.0
C179 C 0.11152 0.93149 0.65718 0.0
C180 C 0.09481 0.91341 0.68859 0.0
C181 C 0.0874 0.85961 0.69118 0.0
H182 H 0.40518 0.97966 0.94951 0.0
H183 H 0.47921 0.13334 0.95168 0.0
H184 H 0.41178 0.15499 0.90352 0.0
H185 H 0.37795 0.96304 0.85544 0.0
H186 H 0.31167 0.92946 0.85809 0.0
H187 H 0.36778 0.9248 0.89167 0.0
H188 H 0.29894 0.9572 0.93759 0.0
H189 H 0.24268 0.96187 0.90419 0.0
H190 H 0.26204 1.01765 0.93272 0.0
H191 H 0.33256 0.16232 0.85777 0.0
H192 H 0.24742 0.15407 0.81703 0.0
H193 H 0.22612 0.99517 0.84327 0.0
C194 C 0.40757 1.0177 0.93967 0.0
C195 C 0.44762 0.05474 0.95446 0.0
C196 C 0.44907 0.10418 0.94083 0.0
C197 C 0.41096 0.11691 0.9134 0.0
C198 C 0.37181 0.07971 0.8996 0.0
C199 C 0.36995 0.03103 0.91211 0.0
C200 C 0.32246 0.99879 0.89328 0.0
C201 C 0.34641 0.95121 0.87344 0.0
C202 C 0.27896 0.98297 0.91845 0.0
C203 C 0.29734 0.03731 0.86873 0.0
C204 C 0.32658 0.08368 0.87272 0.0
C205 C 0.30968 0.12599 0.85411 0.0
C206 C 0.26121 0.12096 0.83107 0.0
C207 C 0.23029 0.07389 0.82671 0.0
C208 C 0.24927 0.03142 0.84556 0.0
H209 H 0.05179 0.42674 0.4702 0.0
H210 H 0.13571 0.53452 0.40922 0.0
H211 H 0.13775 0.46742 0.36129 0.0
H212 H 0.12977 0.31125 0.43958 0.0
H213 H 0.06871 0.2695 0.43957 0.0
H214 H 0.0762 0.32525 0.46979 0.0
H215 H 0.97725 0.35776 0.4475 0.0
H216 H 0.96963 0.30242 0.41699 0.0
H217 H 0.96336 0.36678 0.40207 0.0
H218 H 0.1233 0.3918 0.31822 0.0
H219 H 0.10199 0.30947 0.28449 0.0
H220 H 0.03162 0.24788 0.37371 0.0
C221 C 0.0713 0.43604 0.44694 0.0
C222 C 0.09359 0.4861 0.44355 0.0
C223 C 0.11861 0.49656 0.41261 0.0
C224 C 0.11979 0.4587 0.38514 0.0
C225 C 0.09642 0.41023 0.38907 0.0
C226 C 0.07343 0.39843 0.41935 0.0
C227 C 0.05078 0.34333 0.41664 0.0
C228 C 0.08332 0.31038 0.44296 0.0
C229 C 0.98644 0.34256 0.42106 0.0
C230 C 0.06374 0.32631 0.37987 0.0
C231 C 0.08978 0.36574 0.36446 0.0
C232 C 0.10357 0.36045 0.33015 0.0
C233 C 0.09096 0.31355 0.31113 0.0
C234 C 0.0653 0.27208 0.32644 0.0
C235 C 0.05169 0.27866 0.36137 0.0
H236 H 0.77833 0.16095 0.95046 0.0
H237 H 0.74534 1.00062 0.969 0.0
H238 H 0.8048 0.97212 0.92175 0.0
H239 H 0.77842 0.14407 0.85785 0.0
H240 H 0.83589 0.18893 0.85478 0.0
H241 H 0.78977 0.19734 0.88981 0.0
H242 H 0.87685 0.1961 0.93426 0.0
H243 H 0.92324 0.18828 0.89937 0.0
H244 H 0.92554 0.14233 0.93235 0.0
H245 H 0.86765 0.9605 0.87235 0.0
H246 H 0.93536 0.96682 0.82712 0.0
H247 H 0.92968 0.1345 0.84124 0.0
C248 C 0.78397 0.11987 0.94485 0.0
C249 C 0.75638 0.08312 0.96338 0.0
C250 C 0.76485 0.02966 0.95486 0.0
C251 C 0.79879 1.013 0.92808 0.0
C252 C 0.82443 0.05015 0.90998 0.0
C253 C 0.81793 0.10247 0.91817 0.0
C254 C 0.85132 0.1343 0.89509 0.0
C255 C 0.81146 0.16815 0.87308 0.0
C256 C 0.89695 0.16718 0.91655 0.0
C257 C 0.87786 0.09165 0.87289 0.0
C258 C 0.86139 0.04342 0.88173 0.0
C259 C 0.88088 0.99808 0.86517 0.0
C260 C 0.91922 1.00209 0.83939 0.0
C261 C 0.93798 0.05111 0.83047 0.0
C262 C 0.91612 0.09639 0.84723 0.0
H263 H 0.96152 0.78835 0.46505 0.0
H264 H 0.97849 0.64987 0.39749 0.0
H265 H 1.00003 0.70403 0.34993 0.0
H266 H 0.89467 0.86832 0.40034 0.0
H267 H 0.93177 0.92618 0.41744 0.0
H268 H 0.91629 0.87648 0.44579 0.0
H269 H 0.0232 0.87133 0.46574 0.0
H270 H 0.0391 0.92074 0.4373 0.0
H271 H 0.07467 0.85909 0.43397 0.0
H272 H 0.02105 0.77302 0.31011 0.0
H273 H 0.03895 0.85177 0.28023 0.0
H274 H 0.00854 0.94618 0.37364 0.0
C275 C 0.96872 0.76933 0.44012 0.0
C276 C 0.96792 0.71464 0.43498 0.0
C277 C 0.97909 0.69153 0.40209 0.0
C278 C 0.99123 0.72202 0.37492 0.0
C279 C 0.99221 0.77568 0.381 0.0
C280 C 0.98114 0.79919 0.41275 0.0
C281 C 0.98599 0.85763 0.41266 0.0
C282 C 0.92877 0.88368 0.41945 0.0
C283 C 0.03357 0.8784 0.43898 0.0
C284 C 1.00148 0.86335 0.37585 0.0
C285 C 1.0048 0.81554 0.35809 0.0
C286 C 0.01847 0.81065 0.32374 0.0
C287 C 0.02864 0.85574 0.307 0.0
C288 C 0.02523 0.90532 0.32452 0.0
C289 C 0.01164 0.90894 0.35951 0.0
loop_
_geom_bond_atom_site_label_1
_geom_bond_atom_site_label_2
_geom_bond_distance
_geom_bond_site_symmetry_2
_ccdc_geom_bond_type
Cu0 N1 1.999 1_554 S
Cu0 O6 1.974 . S
Cu0 N11 1.985 . S
Cu0 O20 1.959 1_554 S
N1 Cu0 1.999 1_556 S
N1 C3 1.263 . S
N1 C5 1.389 . S
N2 C3 1.358 . S
N2 C4 1.400 . S
C3 N1 1.263 . S
C3 N2 1.358 . S
C3 H9 0.930 . S
C4 N2 1.400 . S
C4 C5 1.351 . S
C4 H21 0.930 . S
C5 N1 1.389 . S
C5 C4 1.351 . S
C5 H10 0.930 . S
O6 Cu0 1.974 . S
O6 C16 1.282 . S
C7 O8 1.261 . S
C7 O20 1.251 . S
O8 C7 1.261 . S
H9 C3 0.930 . S
H10 C5 0.930 . S
N11 Cu0 1.985 . S
N11 C13 1.335 . S
N11 C14 1.390 . S
N12 C13 1.345 . S
N12 C15 1.336 . S
C13 N11 1.335 . S
C13 N12 1.345 . S
C13 H18 0.930 . S
C14 N11 1.390 . S
C14 C15 1.346 . S
C14 H19 0.930 . S
C15 N12 1.336 . S
C15 C14 1.346 . S
C15 H22 0.929 . S
C16 O6 1.282 . S
C16 O17 1.216 . S
O17 C16 1.216 . S
H18 C13 0.930 . S
H19 C14 0.930 . S
O20 Cu0 1.959 1_556 S
O20 C7 1.251 . S
H21 C4 0.930 . S
H22 C15 0.929 . S
Cu23 N24 1.999 . S
Cu23 O29 1.974 . S
Cu23 N34 1.985 . S
Cu23 O43 1.959 . S
N24 Cu23 1.999 . S
N24 C26 1.263 . S
N24 C28 1.389 1_455 S
N25 C26 1.358 . S
N25 C27 1.400 1_455 S
C26 N24 1.263 . S
C26 N25 1.358 . S
C26 H32 0.930 . S
C27 N25 1.400 1_655 S
C27 C28 1.351 . S
C27 H44 0.930 . S
C28 N24 1.389 1_655 S
C28 C27 1.351 . S
C28 H33 0.930 . S
O29 Cu23 1.974 . S
O29 C39 1.282 . S
C30 O31 1.261 . S
C30 O43 1.251 . S
O31 C30 1.261 . S
H32 C26 0.930 . S
H33 C28 0.930 . S
N34 Cu23 1.985 . S
N34 C36 1.335 . S
N34 C37 1.390 . S
N35 C36 1.345 . S
N35 C38 1.336 . S
C36 N34 1.335 . S
C36 N35 1.345 . S
C36 H41 0.922 1_455 S
C37 N34 1.390 . S
C37 C38 1.346 . S
C37 H42 0.930 . S
C38 N35 1.336 . S
C38 C37 1.346 . S
C38 H45 0.929 . S
C39 O29 1.282 . S
C39 O40 1.216 . S
O40 C39 1.216 . S
H41 C36 0.922 1_655 S
H42 C37 0.930 . S
O43 Cu23 1.959 . S
O43 C30 1.251 . S
H44 C27 0.930 . S
H45 C38 0.929 . S
O46 Cd47 2.223 . S
O46 C54 1.315 1_465 S
Cd47 O46 2.223 . S
Cd47 O50 2.297 . S
Cd47 O51 2.439 . S
Cd47 O57 2.240 1_565 S
Cd48 O49 2.240 1_455 S
Cd48 O56 2.223 . S
Cd48 O58 2.297 . S
Cd48 O59 2.439 . S
O49 Cd48 2.240 1_655 S
O49 C54 1.279 . S
O50 Cd47 2.297 . S
O50 C52 1.247 . S
O51 Cd47 2.439 . S
O51 C52 1.214 . S
C52 O50 1.247 . S
C52 O51 1.214 . S
C53 O58 1.247 . S
C53 O59 1.208 . S
C54 O46 1.315 1_645 S
C54 O49 1.279 . S
C55 O56 1.315 . S
C55 O57 1.279 . S
O56 Cd48 2.223 . S
O56 C55 1.315 . S
O57 Cd47 2.240 1_545 S
O57 C55 1.279 . S
O58 Cd48 2.297 . S
O58 C53 1.247 . S
O59 Cd48 2.439 . S
O59 C53 1.208 . S
O60 Cd61 2.223 . S
O60 C68 1.315 . S
Cd61 O60 2.223 . S
Cd61 O64 2.297 . S
Cd61 O65 2.439 . S
Cd61 O71 2.240 . S
Cd62 O63 2.240 1_565 S
Cd62 O70 2.223 . S
Cd62 O72 2.297 . S
Cd62 O73 2.439 . S
O63 Cd62 2.240 1_545 S
O63 C68 1.279 . S
O64 Cd61 2.297 . S
O64 C66 1.247 . S
O65 Cd61 2.439 . S
O65 C66 1.208 . S
C66 O64 1.247 . S
C66 O65 1.208 . S
C67 O72 1.247 . S
C67 O73 1.208 . S
C68 O60 1.315 . S
C68 O63 1.279 . S
C69 O70 1.315 1_545 S
C69 O71 1.279 . S
O70 Cd62 2.223 . S
O70 C69 1.315 1_565 S
O71 Cd61 2.240 . S
O71 C69 1.279 . S
O72 Cd62 2.297 . S
O72 C67 1.247 . S
O73 Cd62 2.439 . S
O73 C67 1.208 . S
H74 C86 0.930 . S
H75 C88 0.930 . S
H76 C89 0.930 1_565 S
H77 C93 0.959 . S
H78 C93 0.959 . S
H79 C93 0.961 . S
H80 C94 0.960 . S
H81 C94 0.961 . S
H82 C94 0.959 . S
H83 C97 0.929 1_565 S
H84 C98 0.931 . S
H85 C100 0.930 . S
C86 H74 0.930 . S
C86 C87 1.399 . S
C86 C91 1.399 . S
C87 C86 1.399 . S
C87 C88 1.376 . S
C88 H75 0.930 . S
C88 C87 1.376 . S
C88 C89 1.388 . S
C89 H76 0.930 1_545 S
C89 C88 1.388 . S
C89 C90 1.390 . S
C90 C89 1.390 . S
C90 C91 1.394 . S
C90 C96 1.465 . S
C91 C86 1.399 . S
C91 C90 1.394 . S
C91 C92 1.516 . S
C92 C91 1.516 . S
C92 C93 1.502 . S
C92 C94 1.561 . S
C92 C95 1.526 . S
C93 H77 0.959 . S
C93 H78 0.959 . S
C93 H79 0.961 . S
C93 C92 1.502 . S
C94 H80 0.960 . S
C94 H81 0.961 . S
C94 H82 0.959 . S
C94 C92 1.561 . S
C95 C92 1.526 . S
C95 C96 1.396 . S
C95 C100 1.390 . S
C96 C90 1.465 . S
C96 C95 1.396 . S
C96 C97 1.399 . S
C97 H83 0.929 1_545 S
C97 C96 1.399 . S
C97 C98 1.385 . S
C98 H84 0.931 . S
C98 C97 1.385 . S
C98 C99 1.389 . S
C99 C98 1.389 . S
C99 C100 1.387 . S
C100 H85 0.930 . S
C100 C95 1.390 . S
C100 C99 1.387 . S
H101 C113 0.930 . S
H102 C115 0.930 . S
H103 C116 0.930 . S
H104 C120 0.959 . S
H105 C120 0.959 . S
H106 C120 0.961 . S
H107 C121 0.960 . S
H108 C121 0.961 . S
H109 C121 0.959 . S
H110 C124 0.929 . S
H111 C125 0.931 . S
H112 C127 0.930 . S
C113 H101 0.930 . S
C113 C114 1.399 . S
C113 C118 1.399 . S
C114 C113 1.399 . S
C114 C115 1.376 . S
C115 H102 0.930 . S
C115 C114 1.376 . S
C115 C116 1.388 . S
C116 H103 0.930 . S
C116 C115 1.388 . S
C116 C117 1.390 . S
C117 C116 1.390 . S
C117 C118 1.394 . S
C117 C123 1.465 . S
C118 C113 1.399 . S
C118 C117 1.394 . S
C118 C119 1.516 . S
C119 C118 1.516 . S
C119 C120 1.502 1_455 S
C119 C121 1.561 . S
C119 C122 1.526 . S
C120 H104 0.959 . S
C120 H105 0.959 . S
C120 H106 0.961 . S
C120 C119 1.502 1_655 S
C121 H107 0.960 . S
C121 H108 0.961 . S
C121 H109 0.959 . S
C121 C119 1.561 . S
C122 C119 1.526 . S
C122 C123 1.396 . S
C122 C127 1.390 . S
C123 C117 1.465 . S
C123 C122 1.396 . S
C123 C124 1.399 . S
C124 H110 0.929 . S
C124 C123 1.399 . S
C124 C125 1.385 . S
C125 H111 0.931 . S
C125 C124 1.385 . S
C125 C126 1.389 . S
C126 C125 1.389 . S
C126 C127 1.387 . S
C127 H112 0.930 . S
C127 C122 1.390 . S
C127 C126 1.387 . S
H128 C140 0.930 1_565 S
H129 C142 0.930 . S
H130 C143 0.930 . S
H131 C147 0.959 . S
H132 C147 0.959 . S
H133 C147 0.961 . S
H134 C148 0.960 . S
H135 C148 0.961 . S
H136 C148 0.959 . S
H137 C151 0.929 . S
H138 C152 0.931 . S
H139 C154 0.930 1_565 S
C140 H128 0.930 1_545 S
C140 C141 1.399 . S
C140 C145 1.399 . S
C141 C140 1.399 . S
C141 C142 1.376 . S
C142 H129 0.930 . S
C142 C141 1.376 . S
C142 C143 1.388 . S
C143 H130 0.930 . S
C143 C142 1.388 . S
C143 C144 1.390 . S
C144 C143 1.390 . S
C144 C145 1.394 . S
C144 C150 1.465 . S
C145 C140 1.399 . S
C145 C144 1.394 . S
C145 C146 1.516 1_545 S
C146 C145 1.516 1_565 S
C146 C147 1.502 . S
C146 C148 1.561 . S
C146 C149 1.526 1_565 S
C147 H131 0.959 . S
C147 H132 0.959 . S
C147 H133 0.961 . S
C147 C146 1.502 . S
C148 H134 0.960 . S
C148 H135 0.961 . S
C148 H136 0.959 . S
C148 C146 1.561 . S
C149 C146 1.526 1_545 S
C149 C150 1.396 . S
C149 C154 1.390 . S
C150 C144 1.465 . S
C150 C149 1.396 . S
C150 C151 1.399 . S
C151 H137 0.929 . S
C151 C150 1.399 . S
C151 C152 1.385 . S
C152 H138 0.931 . S
C152 C151 1.385 . S
C152 C153 1.389 . S
C153 C152 1.389 . S
C153 C154 1.387 . S
C154 H139 0.930 1_545 S
C154 C149 1.390 . S
C154 C153 1.387 . S
H155 C167 0.930 . S
H156 C169 0.930 . S
H157 C170 0.930 . S
H158 C174 0.959 . S
H159 C174 0.959 . S
H160 C174 0.961 . S
H161 C175 0.960 . S
H162 C175 0.961 . S
H163 C175 0.959 . S
H164 C178 0.929 . S
H165 C179 0.931 . S
H166 C181 0.930 . S
C167 H155 0.930 . S
C167 C168 1.399 . S
C167 C172 1.399 . S
C168 C167 1.399 . S
C168 C169 1.376 . S
C169 H156 0.930 . S
C169 C168 1.376 . S
C169 C170 1.388 . S
C170 H157 0.930 . S
C170 C169 1.388 . S
C170 C171 1.390 . S
C171 C170 1.390 . S
C171 C172 1.394 . S
C171 C177 1.465 . S
C172 C167 1.399 . S
C172 C171 1.394 . S
C172 C173 1.516 . S
C173 C172 1.516 . S
C173 C174 1.502 1_455 S
C173 C175 1.561 . S
C173 C176 1.526 . S
C174 H158 0.959 . S
C174 H159 0.959 . S
C174 H160 0.961 . S
C174 C173 1.502 1_655 S
C175 H161 0.960 . S
C175 H162 0.961 . S
C175 H163 0.959 . S
C175 C173 1.561 . S
C176 C173 1.526 . S
C176 C177 1.396 . S
C176 C181 1.390 . S
C177 C171 1.465 . S
C177 C176 1.396 . S
C177 C178 1.399 . S
C178 H164 0.929 . S
C178 C177 1.399 . S
C178 C179 1.385 . S
C179 H165 0.931 . S
C179 C178 1.385 . S
C179 C180 1.389 . S
C180 C179 1.389 . S
C180 C181 1.387 . S
C181 H166 0.930 . S
C181 C176 1.390 . S
C181 C180 1.387 . S
H182 C194 0.930 1_565 S
H183 C196 0.930 . S
H184 C197 0.930 . S
H185 C201 0.959 . S
H186 C201 0.959 . S
H187 C201 0.961 . S
H188 C202 0.960 . S
H189 C202 0.961 . S
H190 C202 0.959 . S
H191 C205 0.929 . S
H192 C206 0.931 . S
H193 C208 0.930 . S
C194 H182 0.930 1_545 S
C194 C195 1.399 . S
C194 C199 1.399 . S
C195 C194 1.399 . S
C195 C196 1.376 . S
C196 H183 0.930 . S
C196 C195 1.376 . S
C196 C197 1.388 . S
C197 H184 0.930 . S
C197 C196 1.388 . S
C197 C198 1.390 . S
C198 C197 1.390 . S
C198 C199 1.394 . S
C198 C204 1.465 . S
C199 C194 1.399 . S
C199 C198 1.394 . S
C199 C200 1.516 1_545 S
C200 C199 1.516 1_565 S
C200 C201 1.502 . S
C200 C202 1.561 . S
C200 C203 1.526 1_565 S
C201 H185 0.959 . S
C201 H186 0.959 . S
C201 H187 0.961 . S
C201 C200 1.502 . S
C202 H188 0.960 . S
C202 H189 0.961 . S
C202 H190 0.959 . S
C202 C200 1.561 . S
C203 C200 1.526 1_545 S
C203 C204 1.396 . S
C203 C208 1.390 1_545 S
C204 C198 1.465 . S
C204 C203 1.396 . S
C204 C205 1.399 . S
C205 H191 0.929 . S
C205 C204 1.399 . S
C205 C206 1.385 . S
C206 H192 0.931 . S
C206 C205 1.385 . S
C206 C207 1.389 . S
C207 C206 1.389 . S
C207 C208 1.387 1_545 S
C208 H193 0.930 . S
C208 C203 1.390 1_565 S
C208 C207 1.387 1_565 S
H209 C221 0.930 1_655 S
H210 C223 0.930 . S
H211 C224 0.930 . S
H212 C228 0.959 1_455 S
H213 C228 0.959 . S
H214 C228 0.961 . S
H215 C229 0.960 . S
H216 C229 0.961 . S
H217 C229 0.959 . S
H218 C232 0.929 . S
H219 C233 0.931 . S
H220 C235 0.930 . S
C221 H209 0.930 1_455 S
C221 C222 1.399 . S
C221 C226 1.399 . S
C222 C221 1.399 . S
C222 C223 1.376 . S
C223 H210 0.930 . S
C223 C222 1.376 . S
C223 C224 1.388 . S
C224 H211 0.930 . S
C224 C223 1.388 . S
C224 C225 1.390 . S
C225 C224 1.390 . S
C225 C226 1.394 . S
C225 C231 1.465 . S
C226 C221 1.399 . S
C226 C225 1.394 . S
C226 C227 1.516 . S
C227 C226 1.516 . S
C227 C228 1.502 1_455 S
C227 C229 1.561 1_455 S
C227 C230 1.526 . S
C228 H212 0.959 1_655 S
C228 H213 0.959 . S
C228 H214 0.961 . S
C228 C227 1.502 1_655 S
C229 H215 0.960 . S
C229 H216 0.961 . S
C229 H217 0.959 . S
C229 C227 1.561 1_655 S
C230 C227 1.526 . S
C230 C231 1.396 . S
C230 C235 1.390 . S
C231 C225 1.465 . S
C231 C230 1.396 . S
C231 C232 1.399 . S
C232 H218 0.929 . S
C232 C231 1.399 . S
C232 C233 1.385 . S
C233 H219 0.931 . S
C233 C232 1.385 . S
C233 C234 1.389 . S
C234 C233 1.389 . S
C234 C235 1.387 . S
C235 H220 0.930 . S
C235 C230 1.390 . S
C235 C234 1.387 . S
H236 C248 0.930 . S
H237 C250 0.930 . S
H238 C251 0.930 1_565 S
H239 C255 0.959 . S
H240 C255 0.959 . S
H241 C255 0.961 . S
H242 C256 0.960 . S
H243 C256 0.961 . S
H244 C256 0.959 . S
H245 C259 0.929 1_565 S
H246 C260 0.931 1_565 S
H247 C262 0.930 . S
C248 H236 0.930 . S
C248 C249 1.399 . S
C248 C253 1.399 . S
C249 C248 1.399 . S
C249 C250 1.376 . S
C250 H237 0.930 . S
C250 C249 1.376 . S
C250 C251 1.388 . S
C251 H238 0.930 1_545 S
C251 C250 1.388 . S
C251 C252 1.390 . S
C252 C251 1.390 . S
C252 C253 1.394 . S
C252 C258 1.465 . S
C253 C248 1.399 . S
C253 C252 1.394 . S
C253 C254 1.516 . S
C254 C253 1.516 . S
C254 C255 1.502 . S
C254 C256 1.561 . S
C254 C257 1.526 . S
C255 H239 0.959 . S
C255 H240 0.959 . S
C255 H241 0.961 . S
C255 C254 1.502 . S
C256 H242 0.960 . S
C256 H243 0.961 . S
C256 H244 0.959 . S
C256 C254 1.561 . S
C257 C254 1.526 . S
C257 C258 1.396 . S
C257 C262 1.390 . S
C258 C252 1.465 . S
C258 C257 1.396 . S
C258 C259 1.399 . S
C259 H245 0.929 1_545 S
C259 C258 1.399 . S
C259 C260 1.385 . S
C260 H246 0.931 1_545 S
C260 C259 1.385 . S
C260 C261 1.389 . S
C261 C260 1.389 . S
C261 C262 1.387 . S
C262 H247 0.930 . S
C262 C257 1.390 . S
C262 C261 1.387 . S
H263 C275 0.922 1_655 S
H264 C277 0.930 . S
H265 C278 0.930 . S
H266 C282 0.959 . S
H267 C282 0.959 . S
H268 C282 0.961 . S
H269 C283 0.965 . S
H270 C283 0.961 1_655 S
H271 C283 0.959 . S
H272 C286 0.929 . S
H273 C287 0.931 . S
H274 C289 0.930 . S
C275 H263 0.922 1_455 S
C275 C276 1.405 . S
C275 C280 1.401 . S
C276 C275 1.405 . S
C276 C277 1.376 . S
C277 H264 0.930 . S
C277 C276 1.376 . S
C277 C278 1.388 . S
C278 H265 0.930 . S
C278 C277 1.388 . S
C278 C279 1.390 . S
C279 C278 1.390 . S
C279 C280 1.394 . S
C279 C285 1.465 . S
C280 C275 1.401 . S
C280 C279 1.394 . S
C280 C281 1.516 1_455 S
C281 C280 1.516 1_655 S
C281 C282 1.502 . S
C281 C283 1.561 1_655 S
C281 C284 1.526 1_655 S
C282 H266 0.959 . S
C282 H267 0.959 . S
C282 H268 0.961 . S
C282 C281 1.502 . S
C283 H269 0.965 . S
C283 H270 0.961 1_455 S
C283 H271 0.959 . S
C283 C281 1.561 1_455 S
C284 C281 1.526 1_455 S
C284 C285 1.396 . S
C284 C289 1.390 1_455 S
C285 C279 1.465 . S
C285 C284 1.396 . S
C285 C286 1.399 . S
C286 H272 0.929 . S
C286 C285 1.399 . S
C286 C287 1.385 . S
C287 H273 0.931 . S
C287 C286 1.385 . S
C287 C288 1.389 . S
C288 C287 1.389 . S
C288 C289 1.387 1_455 S
C289 H274 0.930 . S
C289 C284 1.390 1_655 S
C289 C288 1.387 1_655 S
C99 C55 1.552 . S
C87 N12 1.518 . S
C126 C66 1.494 . S
C114 N25 1.527 . S
C153 C54 1.554 . S
C141 C16 1.553 . S
C180 C67 1.564 . S
C168 C30 1.584 . S
C207 C69 1.593 . S
C195 C7 1.595 . S
C234 C53 1.493 . S
C222 C39 1.510 . S
C261 C68 1.585 1_655 S
C249 N2 1.568 . S
C276 N35 1.484 . S
C288 C52 1.452 . S
