# Generated by pormake.
# Topology gar, (4,6)-cn, num edge types: 1
# Building blocks:
#     Node 0, Type 0, BuildingBlock: CEKHIL_clean_sbu_0, # of connection points: 4
#     Node 1, Type 0, BuildingBlock: CEKHIL_clean_sbu_0, # of connection points: 4
#     Node 2, Type 0, BuildingBlock: CEKHIL_clean_sbu_0, # of connection points: 4
#     Node 3, Type 0, BuildingBlock: CEKHIL_clean_sbu_0, # of connection points: 4
#     Node 4, Type 0, BuildingBlock: CEKHIL_clean_sbu_0, # of connection points: 4
#     Node 5, Type 0, BuildingBlock: CEKHIL_clean_sbu_0, # of connection points: 4
#     Node 6, Type 0, BuildingBlock: CEKHIL_clean_sbu_0, # of connection points: 4
#     Node 7, Type 0, BuildingBlock: CEKHIL_clean_sbu_0, # of connection points: 4
#     Node 8, Type 0, BuildingBlock: CEKHIL_clean_sbu_0, # of connection points: 4
#     Node 9, Type 0, BuildingBlock: CEKHIL_clean_sbu_0, # of connection points: 4
#     Node 10, Type 0, BuildingBlock: CEKHIL_clean_sbu_0, # of connection points: 4
#     Node 11, Type 0, BuildingBlock: CEKHIL_clean_sbu_0, # of connection points: 4
#     Node 12, Type 0, BuildingBlock: CEKHIL_clean_sbu_0, # of connection points: 4
#     Node 13, Type 0, BuildingBlock: CEKHIL_clean_sbu_0, # of connection points: 4
#     Node 14, Type 0, BuildingBlock: CEKHIL_clean_sbu_0, # of connection points: 4
#     Node 15, Type 0, BuildingBlock: CEKHIL_clean_sbu_0, # of connection points: 4
#     Node 16, Type 0, BuildingBlock: CEKHIL_clean_sbu_0, # of connection points: 4
#     Node 17, Type 0, BuildingBlock: CEKHIL_clean_sbu_0, # of connection points: 4
#     Node 18, Type 0, BuildingBlock: CEKHIL_clean_sbu_0, # of connection points: 4
#     Node 19, Type 0, BuildingBlock: CEKHIL_clean_sbu_0, # of connection points: 4
#     Node 20, Type 0, BuildingBlock: CEKHIL_clean_sbu_0, # of connection points: 4
#     Node 21, Type 0, BuildingBlock: CEKHIL_clean_sbu_0, # of connection points: 4
#     Node 22, Type 0, BuildingBlock: CEKHIL_clean_sbu_0, # of connection points: 4
#     Node 23, Type 0, BuildingBlock: CEKHIL_clean_sbu_0, # of connection points: 4
#     Node 24, Type 1, BuildingBlock: BETDEL_clean_sbu_0, # of connection points: 6
#     Node 25, Type 1, BuildingBlock: BETDEL_clean_sbu_0, # of connection points: 6
#     Node 26, Type 1, BuildingBlock: BETDEL_clean_sbu_0, # of connection points: 6
#     Node 27, Type 1, BuildingBlock: BETDEL_clean_sbu_0, # of connection points: 6
#     Node 28, Type 1, BuildingBlock: BETDEL_clean_sbu_0, # of connection points: 6
#     Node 29, Type 1, BuildingBlock: BETDEL_clean_sbu_0, # of connection points: 6
#     Node 30, Type 1, BuildingBlock: BETDEL_clean_sbu_0, # of connection points: 6
#     Node 31, Type 1, BuildingBlock: BETDEL_clean_sbu_0, # of connection points: 6
#     Node 32, Type 1, BuildingBlock: BETDEL_clean_sbu_0, # of connection points: 6
#     Node 33, Type 1, BuildingBlock: BETDEL_clean_sbu_0, # of connection points: 6
#     Node 34, Type 1, BuildingBlock: BETDEL_clean_sbu_0, # of connection points: 6
#     Node 35, Type 1, BuildingBlock: BETDEL_clean_sbu_0, # of connection points: 6
#     Node 36, Type 1, BuildingBlock: BETDEL_clean_sbu_0, # of connection points: 6
#     Node 37, Type 1, BuildingBlock: BETDEL_clean_sbu_0, # of connection points: 6
#     Node 38, Type 1, BuildingBlock: BETDEL_clean_sbu_0, # of connection points: 6
#     Node 39, Type 1, BuildingBlock: BETDEL_clean_sbu_0, # of connection points: 6
#     Edge 40, Type (0, 1), BuildingBlock: UVAHIK_clean_linker_0, # of connection points: 2
#     Edge 41, Type (0, 1), BuildingBlock: UVAHIK_clean_linker_0, # of connection points: 2
#     Edge 42, Type (0, 1), BuildingBlock: UVAHIK_clean_linker_0, # of connection points: 2
#     Edge 43, Type (0, 1), BuildingBlock: UVAHIK_clean_linker_0, # of connection points: 2
#     Edge 44, Type (0, 1), BuildingBlock: UVAHIK_clean_linker_0, # of connection points: 2
#     Edge 45, Type (0, 1), BuildingBlock: UVAHIK_clean_linker_0, # of connection points: 2
#     Edge 46, Type (0, 1), BuildingBlock: UVAHIK_clean_linker_0, # of connection points: 2
#     Edge 47, Type (0, 1), BuildingBlock: UVAHIK_clean_linker_0, # of connection points: 2
#     Edge 48, Type (0, 1), BuildingBlock: UVAHIK_clean_linker_0, # of connection points: 2
#     Edge 49, Type (0, 1), BuildingBlock: UVAHIK_clean_linker_0, # of connection points: 2
#     Edge 50, Type (0, 1), BuildingBlock: UVAHIK_clean_linker_0, # of connection points: 2
#     Edge 51, Type (0, 1), BuildingBlock: UVAHIK_clean_linker_0, # of connection points: 2
#     Edge 52, Type (0, 1), BuildingBlock: UVAHIK_clean_linker_0, # of connection points: 2
#     Edge 53, Type (0, 1), BuildingBlock: UVAHIK_clean_linker_0, # of connection points: 2
#     Edge 54, Type (0, 1), BuildingBlock: UVAHIK_clean_linker_0, # of connection points: 2
#     Edge 55, Type (0, 1), BuildingBlock: UVAHIK_clean_linker_0, # of connection points: 2
#     Edge 56, Type (0, 1), BuildingBlock: UVAHIK_clean_linker_0, # of connection points: 2
#     Edge 57, Type (0, 1), BuildingBlock: UVAHIK_clean_linker_0, # of connection points: 2
#     Edge 58, Type (0, 1), BuildingBlock: UVAHIK_clean_linker_0, # of connection points: 2
#     Edge 59, Type (0, 1), BuildingBlock: UVAHIK_clean_linker_0, # of connection points: 2
#     Edge 60, Type (0, 1), BuildingBlock: UVAHIK_clean_linker_0, # of connection points: 2
#     Edge 61, Type (0, 1), BuildingBlock: UVAHIK_clean_linker_0, # of connection points: 2
#     Edge 62, Type (0, 1), BuildingBlock: UVAHIK_clean_linker_0, # of connection points: 2
#     Edge 63, Type (0, 1), BuildingBlock: UVAHIK_clean_linker_0, # of connection points: 2
#     Edge 64, Type (0, 1), BuildingBlock: UVAHIK_clean_linker_0, # of connection points: 2
#     Edge 65, Type (0, 1), BuildingBlock: UVAHIK_clean_linker_0, # of connection points: 2
#     Edge 66, Type (0, 1), BuildingBlock: UVAHIK_clean_linker_0, # of connection points: 2
#     Edge 67, Type (0, 1), BuildingBlock: UVAHIK_clean_linker_0, # of connection points: 2
#     Edge 68, Type (0, 1), BuildingBlock: UVAHIK_clean_linker_0, # of connection points: 2
#     Edge 69, Type (0, 1), BuildingBlock: UVAHIK_clean_linker_0, # of connection points: 2
#     Edge 70, Type (0, 1), BuildingBlock: UVAHIK_clean_linker_0, # of connection points: 2
#     Edge 71, Type (0, 1), BuildingBlock: UVAHIK_clean_linker_0, # of connection points: 2
#     Edge 72, Type (0, 1), BuildingBlock: UVAHIK_clean_linker_0, # of connection points: 2
#     Edge 73, Type (0, 1), BuildingBlock: UVAHIK_clean_linker_0, # of connection points: 2
#     Edge 74, Type (0, 1), BuildingBlock: UVAHIK_clean_linker_0, # of connection points: 2
#     Edge 75, Type (0, 1), BuildingBlock: UVAHIK_clean_linker_0, # of connection points: 2
#     Edge 76, Type (0, 1), BuildingBlock: UVAHIK_clean_linker_0, # of connection points: 2
#     Edge 77, Type (0, 1), BuildingBlock: UVAHIK_clean_linker_0, # of connection points: 2
#     Edge 78, Type (0, 1), BuildingBlock: UVAHIK_clean_linker_0, # of connection points: 2
#     Edge 79, Type (0, 1), BuildingBlock: UVAHIK_clean_linker_0, # of connection points: 2
#     Edge 80, Type (0, 1), BuildingBlock: UVAHIK_clean_linker_0, # of connection points: 2
#     Edge 81, Type (0, 1), BuildingBlock: UVAHIK_clean_linker_0, # of connection points: 2
#     Edge 82, Type (0, 1), BuildingBlock: UVAHIK_clean_linker_0, # of connection points: 2
#     Edge 83, Type (0, 1), BuildingBlock: UVAHIK_clean_linker_0, # of connection points: 2
#     Edge 84, Type (0, 1), BuildingBlock: UVAHIK_clean_linker_0, # of connection points: 2
#     Edge 85, Type (0, 1), BuildingBlock: UVAHIK_clean_linker_0, # of connection points: 2
#     Edge 86, Type (0, 1), BuildingBlock: UVAHIK_clean_linker_0, # of connection points: 2
#     Edge 87, Type (0, 1), BuildingBlock: UVAHIK_clean_linker_0, # of connection points: 2
#     Edge 88, Type (0, 1), BuildingBlock: UVAHIK_clean_linker_0, # of connection points: 2
#     Edge 89, Type (0, 1), BuildingBlock: UVAHIK_clean_linker_0, # of connection points: 2
#     Edge 90, Type (0, 1), BuildingBlock: UVAHIK_clean_linker_0, # of connection points: 2
#     Edge 91, Type (0, 1), BuildingBlock: UVAHIK_clean_linker_0, # of connection points: 2
#     Edge 92, Type (0, 1), BuildingBlock: UVAHIK_clean_linker_0, # of connection points: 2
#     Edge 93, Type (0, 1), BuildingBlock: UVAHIK_clean_linker_0, # of connection points: 2
#     Edge 94, Type (0, 1), BuildingBlock: UVAHIK_clean_linker_0, # of connection points: 2
#     Edge 95, Type (0, 1), BuildingBlock: UVAHIK_clean_linker_0, # of connection points: 2
#     Edge 96, Type (0, 1), BuildingBlock: UVAHIK_clean_linker_0, # of connection points: 2
#     Edge 97, Type (0, 1), BuildingBlock: UVAHIK_clean_linker_0, # of connection points: 2
#     Edge 98, Type (0, 1), BuildingBlock: UVAHIK_clean_linker_0, # of connection points: 2
#     Edge 99, Type (0, 1), BuildingBlock: UVAHIK_clean_linker_0, # of connection points: 2
#     Edge 100, Type (0, 1), BuildingBlock: UVAHIK_clean_linker_0, # of connection points: 2
#     Edge 101, Type (0, 1), BuildingBlock: UVAHIK_clean_linker_0, # of connection points: 2
#     Edge 102, Type (0, 1), BuildingBlock: UVAHIK_clean_linker_0, # of connection points: 2
#     Edge 103, Type (0, 1), BuildingBlock: UVAHIK_clean_linker_0, # of connection points: 2
#     Edge 104, Type (0, 1), BuildingBlock: UVAHIK_clean_linker_0, # of connection points: 2
#     Edge 105, Type (0, 1), BuildingBlock: UVAHIK_clean_linker_0, # of connection points: 2
#     Edge 106, Type (0, 1), BuildingBlock: UVAHIK_clean_linker_0, # of connection points: 2
#     Edge 107, Type (0, 1), BuildingBlock: UVAHIK_clean_linker_0, # of connection points: 2
#     Edge 108, Type (0, 1), BuildingBlock: UVAHIK_clean_linker_0, # of connection points: 2
#     Edge 109, Type (0, 1), BuildingBlock: UVAHIK_clean_linker_0, # of connection points: 2
#     Edge 110, Type (0, 1), BuildingBlock: UVAHIK_clean_linker_0, # of connection points: 2
#     Edge 111, Type (0, 1), BuildingBlock: UVAHIK_clean_linker_0, # of connection points: 2
#     Edge 112, Type (0, 1), BuildingBlock: UVAHIK_clean_linker_0, # of connection points: 2
#     Edge 113, Type (0, 1), BuildingBlock: UVAHIK_clean_linker_0, # of connection points: 2
#     Edge 114, Type (0, 1), BuildingBlock: UVAHIK_clean_linker_0, # of connection points: 2
#     Edge 115, Type (0, 1), BuildingBlock: UVAHIK_clean_linker_0, # of connection points: 2
#     Edge 116, Type (0, 1), BuildingBlock: UVAHIK_clean_linker_0, # of connection points: 2
#     Edge 117, Type (0, 1), BuildingBlock: UVAHIK_clean_linker_0, # of connection points: 2
#     Edge 118, Type (0, 1), BuildingBlock: UVAHIK_clean_linker_0, # of connection points: 2
#     Edge 119, Type (0, 1), BuildingBlock: UVAHIK_clean_linker_0, # of connection points: 2
#     Edge 120, Type (0, 1), BuildingBlock: UVAHIK_clean_linker_0, # of connection points: 2
#     Edge 121, Type (0, 1), BuildingBlock: UVAHIK_clean_linker_0, # of connection points: 2
#     Edge 122, Type (0, 1), BuildingBlock: UVAHIK_clean_linker_0, # of connection points: 2
#     Edge 123, Type (0, 1), BuildingBlock: UVAHIK_clean_linker_0, # of connection points: 2
#     Edge 124, Type (0, 1), BuildingBlock: UVAHIK_clean_linker_0, # of connection points: 2
#     Edge 125, Type (0, 1), BuildingBlock: UVAHIK_clean_linker_0, # of connection points: 2
#     Edge 126, Type (0, 1), BuildingBlock: UVAHIK_clean_linker_0, # of connection points: 2
#     Edge 127, Type (0, 1), BuildingBlock: UVAHIK_clean_linker_0, # of connection points: 2
#     Edge 128, Type (0, 1), BuildingBlock: UVAHIK_clean_linker_0, # of connection points: 2
#     Edge 129, Type (0, 1), BuildingBlock: UVAHIK_clean_linker_0, # of connection points: 2
#     Edge 130, Type (0, 1), BuildingBlock: UVAHIK_clean_linker_0, # of connection points: 2
#     Edge 131, Type (0, 1), BuildingBlock: UVAHIK_clean_linker_0, # of connection points: 2
#     Edge 132, Type (0, 1), BuildingBlock: UVAHIK_clean_linker_0, # of connection points: 2
#     Edge 133, Type (0, 1), BuildingBlock: UVAHIK_clean_linker_0, # of connection points: 2
#     Edge 134, Type (0, 1), BuildingBlock: UVAHIK_clean_linker_0, # of connection points: 2
#     Edge 135, Type (0, 1), BuildingBlock: UVAHIK_clean_linker_0, # of connection points: 2
# Relax obj value: 0.138
# Max RMSD: 0.261
# Mean RMSD: 0.140
data_MOF--net-gar--node1-CEKHIL_clean_sbu_0--node2-BETDEL_clean_sbu_0--edge1-UVAHIK_clean_linker_0
_symmetry_space_group_name_H-M    P1
_symmetry_Int_Tables_number       1
_symmetry_cell_setting            triclinic
loop_
_symmetry_equiv_pos_as_xyz
'x, y, z'
_cell_length_a     71.915953
_cell_length_b     68.410648
_cell_length_c     69.146803
_cell_angle_alpha  95.057311
_cell_angle_beta   92.643392
_cell_angle_gamma 100.21447
loop_
_atom_site_label
_atom_site_type_symbol
_atom_site_fract_x
_atom_site_fract_y
_atom_site_fract_z
_atom_type_partial_charge
Co0 Co 0.02972 0.27786 0.38898 0.0
O1 O 0.05556 0.27382 0.38939 0.0
O2 O 0.03459 0.26458 0.36437 0.0
C3 C 0.03637 0.30995 0.402 0.0
O4 O 0.00231 0.28049 0.38242 0.0
Co5 Co 0.01022 0.28853 0.42671 0.0
O6 O 0.99039 0.29458 0.40852 0.0
C7 C 0.01832 0.24791 0.4179 0.0
C8 C 0.05185 0.26589 0.37156 0.0
C9 C 0.98929 0.28848 0.39048 0.0
O10 O 0.02179 0.25147 0.40028 0.0
O11 O 0.01518 0.26128 0.43087 0.0
O12 O 0.03795 0.30567 0.38352 0.0
O13 O 0.03229 0.29487 0.41194 0.0
Co14 Co 0.99348 0.7781 0.63396 0.0
O15 O 0.96665 0.7777 0.63337 0.0
O16 O 0.9836 0.76984 0.6581 0.0
C17 C 0.00096 0.80812 0.6223 0.0
O18 O 0.02134 0.7774 0.64029 0.0
Co19 Co 0.01548 0.77981 0.5962 0.0
O20 O 0.03829 0.78374 0.61431 0.0
C21 C 0.99029 0.74261 0.60398 0.0
C22 C 0.96724 0.7723 0.65089 0.0
C23 C 0.03721 0.78054 0.63215 0.0
O24 O 0.98899 0.7496 0.62169 0.0
O25 O 0.99847 0.75307 0.59126 0.0
O26 O 0.99828 0.80712 0.64067 0.0
O27 O 0.99777 0.79132 0.61164 0.0
Co28 Co 0.53161 0.77872 0.8906 0.0
O29 O 0.55779 0.77595 0.89056 0.0
O30 O 0.53661 0.76582 0.86584 0.0
C31 C 0.537 0.81083 0.90344 0.0
O32 O 0.50385 0.78011 0.8846 0.0
Co33 Co 0.5125 0.78839 0.9289 0.0
O34 O 0.49167 0.79309 0.91113 0.0
C35 C 0.52171 0.74835 0.91953 0.0
C36 C 0.55407 0.76801 0.87273 0.0
C37 C 0.49053 0.7872 0.89304 0.0
O38 O 0.5249 0.75217 0.90192 0.0
O39 O 0.51842 0.76144 0.9327 0.0
O40 O 0.53845 0.80659 0.88494 0.0
O41 O 0.53396 0.79574 0.91353 0.0
Co42 Co 0.49204 0.27873 0.13604 0.0
O43 O 0.46545 0.27981 0.13566 0.0
O44 O 0.48221 0.27231 0.16072 0.0
C45 C 0.50049 0.30773 0.12263 0.0
O46 O 0.51948 0.2766 0.14241 0.0
Co47 Co 0.51409 0.27733 0.0985 0.0
O48 O 0.53702 0.28122 0.11658 0.0
C49 C 0.48711 0.2419 0.10774 0.0
C50 C 0.46602 0.2752 0.15347 0.0
C51 C 0.53547 0.27861 0.13449 0.0
O52 O 0.48615 0.24981 0.12518 0.0
O53 O 0.49576 0.25126 0.09456 0.0
O54 O 0.49831 0.30791 0.14121 0.0
O55 O 0.49661 0.29043 0.11288 0.0
Co56 Co 0.02171 0.78847 0.14143 0.0
O57 O 0.99455 0.78206 0.13816 0.0
O58 O 0.01152 0.77774 0.16447 0.0
C59 C 0.02414 0.81871 0.13033 0.0
O60 O 0.04961 0.79421 0.15063 0.0
Co61 Co 0.04675 0.79643 0.10635 0.0
O62 O 0.06786 0.80433 0.12655 0.0
C63 C 0.02768 0.75555 0.11176 0.0
C64 C 0.99492 0.77693 0.15579 0.0
C65 C 0.06581 0.80086 0.14421 0.0
O66 O 0.02386 0.7611 0.12919 0.0
O67 O 0.03469 0.76773 0.09983 0.0
O68 O 0.02016 0.81651 0.14823 0.0
O69 O 0.02515 0.80261 0.11959 0.0
Co70 Co 0.50577 0.76302 0.37755 0.0
O71 O 0.53282 0.76509 0.3791 0.0
O72 O 0.51402 0.75316 0.35288 0.0
C73 C 0.50601 0.79378 0.39207 0.0
O74 O 0.47749 0.75965 0.36999 0.0
Co75 Co 0.4829 0.76672 0.41456 0.0
O76 O 0.46209 0.76913 0.39578 0.0
C77 C 0.49692 0.7294 0.40329 0.0
C78 C 0.53111 0.7578 0.361 0.0
C79 C 0.46252 0.76385 0.3777 0.0
O80 O 0.50274 0.73567 0.38721 0.0
O81 O 0.48981 0.73991 0.41621 0.0
O82 O 0.50856 0.79138 0.37357 0.0
O83 O 0.50463 0.77801 0.40115 0.0
Co84 Co 0.5193 0.28701 0.64067 0.0
O85 O 0.49212 0.28086 0.63755 0.0
O86 O 0.50917 0.27614 0.66366 0.0
C87 C 0.52203 0.31734 0.62984 0.0
O88 O 0.54721 0.29237 0.64966 0.0
Co89 Co 0.54416 0.29493 0.6054 0.0
O90 O 0.56553 0.30183 0.6254 0.0
C91 C 0.52473 0.2542 0.61066 0.0
C92 C 0.49256 0.27553 0.6551 0.0
C93 C 0.56346 0.29847 0.64309 0.0
O94 O 0.52117 0.25968 0.6282 0.0
O95 O 0.53165 0.2664 0.59872 0.0
O96 O 0.51804 0.31508 0.64773 0.0
O97 O 0.52281 0.30126 0.61896 0.0
Co98 Co 0.00498 0.2644 0.87743 0.0
O99 O 0.03204 0.26667 0.87864 0.0
O100 O 0.01305 0.25558 0.85235 0.0
C101 C 0.00498 0.29456 0.89312 0.0
O102 O 0.97667 0.26097 0.87023 0.0
Co103 Co 0.98227 0.26615 0.91465 0.0
O104 O 0.96193 0.27081 0.89633 0.0
C105 C 0.99629 0.22932 0.90149 0.0
C106 C 0.03018 0.26 0.86036 0.0
C107 C 0.96203 0.26578 0.87816 0.0
O108 O 0.0022 0.23659 0.88586 0.0
O109 O 0.989 0.23905 0.91489 0.0
O110 O 0.00749 0.29295 0.87458 0.0
O111 O 0.00386 0.2784 0.90158 0.0
Co112 Co 0.39591 0.04464 0.28299 0.0
O113 O 0.39602 0.07048 0.27375 0.0
O114 O 0.37196 0.04498 0.26972 0.0
C115 C 0.40896 0.05627 0.31281 0.0
O116 O 0.38922 0.01652 0.29084 0.0
Co117 Co 0.43115 0.02842 0.29694 0.0
O118 O 0.41305 0.00713 0.30745 0.0
C119 C 0.42275 0.03062 0.25485 0.0
C120 C 0.37866 0.0634 0.26717 0.0
C121 C 0.39577 0.00429 0.30119 0.0
O122 O 0.40647 0.0351 0.25815 0.0
O123 O 0.43488 0.02867 0.26838 0.0
O124 O 0.39087 0.05505 0.3091 0.0
O125 O 0.41854 0.05134 0.29845 0.0
Co126 Co 0.26953 0.14634 0.48913 0.0
O127 O 0.29673 0.14972 0.49205 0.0
O128 O 0.27683 0.12246 0.49758 0.0
C129 C 0.26872 0.15888 0.46 0.0
O130 O 0.24107 0.13652 0.48696 0.0
Co131 Co 0.24847 0.18178 0.48628 0.0
O132 O 0.2251 0.16115 0.48182 0.0
C133 C 0.26595 0.17514 0.52397 0.0
C134 C 0.29422 0.13155 0.49686 0.0
C135 C 0.22554 0.14289 0.48379 0.0
O136 O 0.26851 0.1578 0.51697 0.0
O137 O 0.26014 0.1877 0.51358 0.0
O138 O 0.27027 0.14035 0.46099 0.0
O139 O 0.26881 0.16938 0.47645 0.0
Co140 Co 0.13897 0.00122 0.7817 0.0
O141 O 0.13698 0.97275 0.77576 0.0
O142 O 0.16247 0.9952 0.77225 0.0
C143 C 0.12576 -0.00088 0.81081 0.0
O144 O 0.14716 0.03141 0.78699 0.0
Co145 Co 0.10407 0.02153 0.78815 0.0
O146 O 0.12283 0.04647 0.79486 0.0
C147 C 0.11313 0.00867 0.7481 0.0
C148 C 0.15448 0.9765 0.77118 0.0
C149 C 0.14032 0.04709 0.79217 0.0
O150 O 0.12894 0.0043 0.75437 0.0
O151 O 0.10086 0.01379 0.75944 0.0
O152 O 0.1436 0.99841 0.80951 0.0
O153 O 0.11645 -8e-05 0.79463 0.0
Co154 Co 0.23764 0.90282 0.99441 0.0
O155 O 0.21247 0.90491 0.00163 0.0
O156 O 0.23747 0.92939 0.00595 0.0
C157 C 0.22925 0.88679 0.96469 0.0
O158 O 0.26532 0.90716 0.98847 0.0
Co159 Co 0.25107 0.86254 0.98465 0.0
O160 O 0.2745 0.87903 0.97665 0.0
C161 C 0.24758 0.87741 0.02566 0.0
C162 C 0.21952 0.92338 0.00775 0.0
C163 C 0.27775 0.89783 0.98114 0.0
O164 O 0.24382 0.89399 0.02056 0.0
O165 O 0.24954 0.86278 0.01351 0.0
O166 O 0.23084 0.90609 0.96734 0.0
O167 O 0.23136 0.87786 0.98007 0.0
Co168 Co 0.25551 0.3957 0.02146 0.0
O169 O 0.22835 0.39285 0.01876 0.0
O170 O 0.24782 0.42034 0.03106 0.0
C171 C 0.25903 0.38173 0.99134 0.0
O172 O 0.28419 0.40474 0.02552 0.0
Co173 Co 0.27525 0.35867 0.01884 0.0
O174 O 0.29857 0.37881 0.01747 0.0
C175 C 0.25373 0.36747 0.05274 0.0
C176 C 0.23056 0.41133 0.02604 0.0
C177 C 0.29915 0.39738 0.02207 0.0
O178 O 0.25364 0.38526 0.048 0.0
O179 O 0.25981 0.35408 0.04197 0.0
O180 O 0.25722 0.40034 0.99397 0.0
O181 O 0.25704 0.37201 0.00648 0.0
Co182 Co 0.78073 0.13694 0.00758 0.0
O183 O 0.80745 0.13722 0.00897 0.0
O184 O 0.78607 0.11444 0.0205 0.0
C185 C 0.77926 0.14276 0.97617 0.0
O186 O 0.75211 0.13112 0.0081 0.0
Co187 Co 0.7637 0.17364 0.99708 0.0
O188 O 0.7394 0.15429 0.99369 0.0
C189 C 0.78204 0.1731 0.03625 0.0
C190 C 0.80367 0.1207 0.01711 0.0
C191 C 0.7378 0.13776 0.00119 0.0
O192 O 0.78295 0.15448 0.03287 0.0
O193 O 0.77658 0.18356 0.02335 0.0
O194 O 0.77867 0.12464 0.98069 0.0
O195 O 0.78158 0.15656 0.99043 0.0
Co196 Co 0.13336 0.50899 0.25106 0.0
O197 O 0.13221 0.48074 0.25248 0.0
O198 O 0.15721 0.50202 0.24492 0.0
C199 C 0.11975 0.51462 0.27908 0.0
O200 O 0.14104 0.53867 0.24899 0.0
Co201 Co 0.09853 0.53004 0.24938 0.0
O202 O 0.11701 0.55543 0.25167 0.0
C203 C 0.1085 0.50699 0.21428 0.0
C204 C 0.14983 0.48395 0.24812 0.0
C205 C 0.13449 0.55498 0.25 0.0
O206 O 0.12386 0.50408 0.2229 0.0
O207 O 0.09632 0.51583 0.2226 0.0
O208 O 0.13763 0.51359 0.27926 0.0
O209 O 0.1105 0.51105 0.26234 0.0
Co210 Co 0.75402 0.89382 0.52167 0.0
O211 O 0.72688 0.89061 0.51881 0.0
O212 O 0.7458 0.91768 0.53284 0.0
C213 C 0.75748 0.88193 0.4908 0.0
O214 O 0.78268 0.90318 0.52609 0.0
Co215 Co 0.77443 0.85752 0.51616 0.0
O216 O 0.79732 0.87829 0.51526 0.0
C217 C 0.75326 0.86356 0.55116 0.0
C218 C 0.72869 0.90866 0.52711 0.0
C219 C 0.79771 0.89648 0.52143 0.0
O220 O 0.75216 0.88145 0.5473 0.0
O221 O 0.76002 0.85129 0.53963 0.0
O222 O 0.75584 0.90046 0.49472 0.0
O223 O 0.7557 0.87113 0.50519 0.0
Co224 Co 0.88305 0.04086 0.2463 0.0
O225 O 0.88507 0.06934 0.25141 0.0
O226 O 0.85976 0.04886 0.23758 0.0
C227 C 0.89512 0.03575 0.27578 0.0
O228 O 0.87523 0.01068 0.23982 0.0
Co229 Co 0.91882 0.02103 0.24717 0.0
O230 O 0.89988 0.99615 0.24771 0.0
C231 C 0.9111 0.0444 0.21486 0.0
C232 C 0.86775 0.06695 0.24416 0.0
C233 C 0.8824 0.99512 0.24278 0.0
O234 O 0.89408 0.04434 0.22003 0.0
O235 O 0.92358 0.03775 0.22491 0.0
O236 O 0.87745 0.0374 0.27343 0.0
O237 O 0.90503 0.03906 0.26095 0.0
Co238 Co 0.28095 0.6383 0.50956 0.0
O239 O 0.3068 0.63603 0.50626 0.0
O240 O 0.28614 0.61434 0.52001 0.0
C241 C 0.27523 0.64587 0.47912 0.0
O242 O 0.25299 0.63525 0.51453 0.0
Co243 Co 0.26725 0.67849 0.50498 0.0
O244 O 0.24167 0.6621 0.50606 0.0
C245 C 0.2907 0.67371 0.53977 0.0
C246 C 0.30308 0.61931 0.51404 0.0
C247 C 0.23924 0.64461 0.51167 0.0
O248 O 0.28818 0.65469 0.5354 0.0
O249 O 0.2854 0.68578 0.52843 0.0
O250 O 0.27417 0.62732 0.48247 0.0
O251 O 0.28089 0.65889 0.49375 0.0
Co252 Co 0.38266 0.54005 0.74726 0.0
O253 O 0.38464 0.56859 0.75178 0.0
O254 O 0.35925 0.54785 0.73852 0.0
C255 C 0.39513 0.53566 0.77684 0.0
O256 O 0.37486 0.50979 0.74144 0.0
Co257 Co 0.41849 0.52028 0.74832 0.0
O258 O 0.39961 0.49546 0.74944 0.0
C259 C 0.41029 0.54266 0.71538 0.0
C260 C 0.36726 0.56605 0.74468 0.0
C261 C 0.38209 0.49433 0.74462 0.0
O262 O 0.39337 0.54286 0.72075 0.0
O263 O 0.42291 0.53629 0.7255 0.0
O264 O 0.37742 0.53722 0.77461 0.0
O265 O 0.40481 0.53862 0.76181 0.0
Co266 Co 0.63244 0.00189 0.7548 0.0
O267 O 0.63216 0.97375 0.75537 0.0
O268 O 0.65358 0.9948 0.7417 0.0
C269 C 0.6271 0.00818 0.78614 0.0
O270 O 0.63833 0.03148 0.75183 0.0
Co271 Co 0.59766 0.02167 0.76354 0.0
O272 O 0.6154 0.04732 0.7624 0.0
C273 C 0.5981 0.99641 0.7268 0.0
C274 C 0.64769 0.97684 0.74629 0.0
C275 C 0.63168 0.04748 0.75583 0.0
O276 O 0.61591 0.99661 0.72998 0.0
O277 O 0.58796 0.00373 0.73929 0.0
O278 O 0.64411 0.00694 0.78129 0.0
O279 O 0.61386 0.00403 0.77241 0.0
Co280 Co 0.7718 0.64715 0.9895 0.0
O281 O 0.79894 0.65043 0.99335 0.0
O282 O 0.77869 0.62319 -0.00179 0.0
C283 C 0.77194 0.65982 0.9604 0.0
O284 O 0.74331 0.63745 0.98649 0.0
Co285 Co 0.75105 0.68274 0.98595 0.0
O286 O 0.72764 0.66223 0.981 0.0
C287 C 0.76745 0.6759 0.02408 0.0
C288 C 0.79618 0.63227 -0.00181 0.0
C289 C 0.7279 0.64393 0.98297 0.0
O290 O 0.77002 0.65852 0.01721 0.0
O291 O 0.76205 0.68855 0.0135 0.0
O292 O 0.77335 0.64125 0.96145 0.0
O293 O 0.77161 0.67027 0.9768 0.0
Co294 Co 0.89022 0.54423 0.78355 0.0
O295 O 0.88892 0.56939 0.77332 0.0
O296 O 0.86541 0.54339 0.77177 0.0
C297 C 0.90489 0.55707 0.81242 0.0
O298 O 0.88481 0.51668 0.79293 0.0
Co299 Co 0.9269 0.52943 0.79556 0.0
O300 O 0.91026 0.50782 0.80718 0.0
C301 C 0.91464 0.52777 0.75388 0.0
C302 C 0.87136 0.56162 0.76803 0.0
C303 C 0.89256 0.50482 0.8027 0.0
O304 O 0.89916 0.53364 0.75816 0.0
O305 O 0.92768 0.52612 0.76655 0.0
O306 O 0.88666 0.55563 0.8097 0.0
O307 O 0.9137 0.55195 0.79749 0.0
Co308 Co 0.74203 0.40185 0.49834 0.0
O309 O 0.71699 0.40304 0.50662 0.0
O310 O 0.74118 0.42842 0.50944 0.0
C311 C 0.73292 0.38492 0.4691 0.0
O312 O 0.76934 0.40723 0.49112 0.0
Co313 Co 0.75692 0.36239 0.48811 0.0
O314 O 0.77895 0.37966 0.47845 0.0
C315 C 0.75615 0.3785 0.52934 0.0
C316 C 0.72348 0.42181 0.51199 0.0
C317 C 0.78173 0.39844 0.48295 0.0
O318 O 0.74996 0.39402 0.52446 0.0
O319 O 0.75882 0.36419 0.51718 0.0
O320 O 0.73375 0.40414 0.47143 0.0
O321 O 0.73618 0.37655 0.48456 0.0
Co322 Co 0.64048 0.50329 0.28232 0.0
O323 O 0.63774 0.47482 0.27562 0.0
O324 O 0.66366 0.49688 0.27257 0.0
C325 C 0.62761 0.50132 0.31159 0.0
O326 O 0.64942 0.53335 0.28812 0.0
Co327 Co 0.60625 0.52462 0.28943 0.0
O328 O 0.62557 0.54902 0.2964 0.0
C329 C 0.61432 0.51113 0.24927 0.0
C330 C 0.65526 0.47832 0.27099 0.0
C331 C 0.64299 0.54923 0.2936 0.0
O332 O 0.63034 0.50704 0.25524 0.0
O333 O 0.60226 0.51628 0.26085 0.0
O334 O 0.6452 0.49966 0.3099 0.0
O335 O 0.61822 0.50262 0.29558 0.0
Dy336 Dy 0.99585 0.02112 0.00715 0.0
C337 C 0.0753 0.03318 0.03078 0.0
C338 C 0.95798 0.02063 0.00086 0.0
Dy339 Dy 0.03766 0.03221 0.02254 0.0
O340 O 0.97112 0.02924 0.99058 0.0
O341 O 0.9655 0.01181 0.01423 0.0
O342 O 0.00281 0.00057 0.9824 0.0
O343 O 0.02292 0.02537 0.99376 0.0
C344 C 0.02029 0.0097 0.98219 0.0
C345 C 0.01277 0.04407 0.04673 0.0
O346 O 0.03572 0.05873 0.00672 0.0
O347 O 0.003 0.05448 0.00699 0.0
O348 O 0.0623 0.03045 0.04317 0.0
O349 O 0.06776 0.03573 0.014 0.0
O350 O 0.03005 0.05368 0.04633 0.0
O351 O 0.01055 0.02808 0.0357 0.0
O352 O 0.99812 0.99464 0.02295 0.0
O353 O 0.03085 -0.00106 0.02314 0.0
C354 C 0.01964 0.0652 0.00375 0.0
C355 C 0.01416 0.98809 0.02583 0.0
Dy356 Dy 0.26516 0.78871 0.24342 0.0
C357 C 0.2523 0.75139 0.31633 0.0
C358 C 0.26135 0.80688 0.21064 0.0
Dy359 Dy 0.25594 0.77296 0.28516 0.0
O360 O 0.26898 0.79106 0.21169 0.0
O361 O 0.25565 0.8126 0.22744 0.0
O362 O 0.29643 0.78638 0.24481 0.0
O363 O 0.27949 0.77908 0.26734 0.0
C364 C 0.29602 0.78014 0.26208 0.0
C365 C 0.22876 0.78749 0.26609 0.0
O366 O 0.27247 0.80333 0.29433 0.0
O367 O 0.26955 0.81645 0.26442 0.0
O368 O 0.24097 0.74797 0.30076 0.0
O369 O 0.26543 0.76688 0.31506 0.0
O370 O 0.23025 0.78801 0.28497 0.0
O371 O 0.24046 0.7778 0.25894 0.0
O372 O 0.25163 0.75678 0.23532 0.0
O373 O 0.25813 0.74573 0.26546 0.0
C374 C 0.27435 0.81849 0.28341 0.0
C375 C 0.25292 0.74228 0.24662 0.0
Dy376 Dy 0.53014 0.014 0.51221 0.0
C377 C 0.45442 0.03267 0.50896 0.0
C378 C 0.56405 0.0011 0.51475 0.0
Dy379 Dy 0.4876 0.0193 0.51486 0.0
O380 O 0.55108 0.99568 0.50067 0.0
O381 O 0.55864 0.01382 0.52734 0.0
O382 O 0.53202 0.03111 0.48562 0.0
O383 O 0.50623 0.01407 0.492 0.0
C384 C 0.51392 0.02637 0.48106 0.0
C385 C 0.5035 0.00787 0.5467 0.0
O386 O 0.4845 0.98918 0.49867 0.0
O387 O 0.51291 0.98304 0.51188 0.0
O388 O 0.45634 0.01756 0.51858 0.0
O389 O 0.47051 0.04022 0.5025 0.0
O390 O 0.4853 0.00417 0.54269 0.0
O391 O 0.5114 0.0193 0.53508 0.0
O392 O 0.53504 0.04547 0.52582 0.0
O393 O 0.50401 0.05063 0.52041 0.0
C394 C 0.49604 0.97673 0.50258 0.0
C395 C 0.52223 0.05723 0.52555 0.0
Dy396 Dy 0.24184 0.26853 0.76077 0.0
C397 C 0.3216 0.27362 0.75331 0.0
C398 C 0.20438 0.26228 0.76813 0.0
Dy399 Dy 0.28455 0.2675 0.7621 0.0
O400 O 0.21255 0.2758 0.75768 0.0
O401 O 0.21663 0.25212 0.77442 0.0
O402 O 0.24669 0.29596 0.74457 0.0
O403 O 0.26776 0.2909 0.76451 0.0
C404 C 0.26402 0.30188 0.75173 0.0
C405 C 0.26234 0.23399 0.77081 0.0
O406 O 0.28341 0.28366 0.79145 0.0
O407 O 0.25076 0.27526 0.79277 0.0
O408 O 0.3144 0.26175 0.76581 0.0
O409 O 0.30866 0.28234 0.74602 0.0
O410 O 0.27975 0.23965 0.77778 0.0
O411 O 0.25868 0.2452 0.75824 0.0
O412 O 0.24315 0.2526 0.73124 0.0
O413 O 0.27577 0.26156 0.73013 0.0
C414 C 0.26787 0.28248 0.80125 0.0
C415 C 0.25877 0.2543 0.72154 0.0
Dy416 Dy 0.00605 0.01015 0.48782 0.0
C417 C 0.04734 0.04514 0.56067 0.0
C418 C 0.98663 0.99783 0.45271 0.0
Dy419 Dy 0.02135 0.03296 0.53014 0.0
O420 O 0.0048 0.00395 0.45527 0.0
O421 O 0.97911 0.99799 0.46943 0.0
O422 O 0.036 0.00535 0.48362 0.0
O423 O 0.03098 0.03036 0.5009 0.0
C424 C 0.04362 0.02111 0.49517 0.0
C425 C 0.98398 0.01764 0.52869 0.0
O426 O 0.01841 0.0593 0.51389 0.0
O427 O 0.00198 0.04184 0.48558 0.0
O428 O 0.03105 0.05092 0.55888 0.0
O429 O 0.04956 0.03339 0.54546 0.0
O430 O 0.99319 0.02728 0.54434 0.0
O431 O 0.99549 0.01736 0.5156 0.0
O432 O 0.00519 0.98407 0.50519 0.0
O433 O 0.02493 0.00111 0.53146 0.0
C434 C 0.00913 0.05873 0.49663 0.0
C435 C 0.01559 0.98441 0.52165 0.0
Dy436 Dy 0.28537 0.78619 0.76207 0.0
C437 C 0.21151 0.753 0.72639 0.0
C438 C 0.31863 0.79841 0.78399 0.0
Dy439 Dy 0.24512 0.7643 0.74788 0.0
O440 O 0.31642 0.79955 0.76539 0.0
O441 O 0.30256 0.79103 0.79067 0.0
O442 O 0.2915 0.79253 0.73147 0.0
O443 O 0.27303 0.76649 0.73665 0.0
C444 C 0.27985 0.77679 0.72359 0.0
C445 C 0.25099 0.77405 0.78634 0.0
O446 O 0.25892 0.73745 0.74855 0.0
O447 O 0.28597 0.75394 0.76693 0.0
O448 O 0.2141 0.75069 0.74472 0.0
O449 O 0.22744 0.76083 0.71972 0.0
O450 O 0.23898 0.75844 0.77878 0.0
O451 O 0.25755 0.78404 0.77304 0.0
O452 O 0.27136 0.81293 0.7613 0.0
O453 O 0.24461 0.79644 0.7425 0.0
C454 C 0.27497 0.73722 0.7588 0.0
C455 C 0.25549 0.81314 0.75075 0.0
Dy456 Dy 0.50591 0.02556 0.0292 0.0
C457 C 0.51435 0.02924 0.94536 0.0
C458 C 0.49755 0.03299 0.06663 0.0
Dy459 Dy 0.50559 0.03082 0.98314 0.0
O460 O 0.51221 0.02551 0.06135 0.0
O461 O 0.48769 0.03645 0.05151 0.0
O462 O 0.51216 0.99402 0.02709 0.0
O463 O 0.50944 0.00899 0.00266 0.0
C464 C 0.51282 0.99294 0.00821 0.0
C465 C 0.4941 0.05906 0.0065 0.0
O466 O 0.47769 0.01124 0.98429 0.0
O467 O 0.47554 0.01446 0.01808 0.0
O468 O 0.51727 0.04537 0.95735 0.0
O469 O 0.50596 0.0142 0.95385 0.0
O470 O 0.488 0.05488 0.98829 0.0
O471 O 0.5069 0.04941 0.01032 0.0
O472 O 0.53556 0.04194 0.02696 0.0
O473 O 0.53628 0.03696 0.99304 0.0
C474 C 0.46817 0.00838 7e-05 0.0
C475 C 0.54469 0.04279 0.01064 0.0
Dy476 Dy 0.25569 0.28508 0.26032 0.0
C477 C 0.25573 0.20102 0.24566 0.0
C478 C 0.25071 0.32347 0.25906 0.0
Dy479 Dy 0.25054 0.23968 0.24811 0.0
O480 O 0.25734 0.31648 0.27433 0.0
O481 O 0.24703 0.30958 0.24471 0.0
O482 O 0.27117 0.28164 0.28849 0.0
O483 O 0.25026 0.25827 0.27517 0.0
C484 C 0.26294 0.26309 0.28881 0.0
C485 C 0.24322 0.26226 0.22012 0.0
O486 O 0.22175 0.23989 0.25891 0.0
O487 O 0.22417 0.27446 0.26126 0.0
O488 O 0.25255 0.21067 0.23086 0.0
O489 O 0.25553 0.21234 0.26167 0.0
O490 O 0.23421 0.24406 0.22071 0.0
O491 O 0.25625 0.26654 0.23341 0.0
O492 O 0.28453 0.28446 0.25008 0.0
O493 O 0.28224 0.25007 0.24954 0.0
C494 C 0.2142 0.25619 0.26186 0.0
C495 C 0.29225 0.26821 0.24845 0.0
Dy496 Dy 0.50873 0.5096 0.98746 0.0
C497 C 0.5484 0.54632 0.06058 0.0
C498 C 0.48959 0.49707 0.95222 0.0
Dy499 Dy 0.52312 0.5332 0.02963 0.0
O500 O 0.50753 0.5045 0.95482 0.0
O501 O 0.4822 0.49593 0.96896 0.0
O502 O 0.53888 0.50534 0.98376 0.0
O503 O 0.53327 0.53036 0.00061 0.0
C504 C 0.54617 0.5213 0.9952 0.0
C505 C 0.48585 0.51749 0.02777 0.0
O506 O 0.51984 0.55913 0.01305 0.0
O507 O 0.50384 0.54101 0.98485 0.0
O508 O 0.53185 0.55144 0.05836 0.0
O509 O 0.55129 0.53475 0.0455 0.0
O510 O 0.49476 0.52758 0.04336 0.0
O511 O 0.49756 0.51703 0.01488 0.0
O512 O 0.50854 0.48369 0.00504 0.0
O513 O 0.52666 0.50153 0.03204 0.0
C514 C 0.51058 0.55812 0.99573 0.0
C515 C 0.51809 0.48454 0.02212 0.0
Dy516 Dy 0.78296 0.28578 0.26134 0.0
C517 C 0.70635 0.24939 0.23527 0.0
C518 C 0.81751 0.29945 0.28056 0.0
Dy519 Dy 0.7422 0.26215 0.25176 0.0
O520 O 0.81451 0.29637 0.26177 0.0
O521 O 0.80156 0.29558 0.28877 0.0
O522 O 0.78548 0.29137 0.22998 0.0
O523 O 0.76867 0.26512 0.23754 0.0
C524 C 0.77353 0.27519 0.22362 0.0
C525 C 0.75208 0.2731 0.28945 0.0
O526 O 0.75651 0.23583 0.25257 0.0
O527 O 0.78502 0.254 0.26699 0.0
O528 O 0.71068 0.25485 0.2536 0.0
O529 O 0.72173 0.25017 0.22596 0.0
O530 O 0.74047 0.25663 0.28331 0.0
O531 O 0.7565 0.28301 0.27535 0.0
O532 O 0.76819 0.31187 0.25989 0.0
O533 O 0.74061 0.29325 0.2441 0.0
C534 C 0.77372 0.23672 0.26083 0.0
C535 C 0.75135 0.31066 0.25065 0.0
Dy536 Dy 0.01025 0.51884 0.53528 0.0
C537 C 0.02047 0.51658 0.45253 0.0
C538 C 0.00136 0.51825 0.57307 0.0
Dy539 Dy 0.01085 0.52424 0.48944 0.0
O540 O 0.99916 0.50262 0.5605 0.0
O541 O 0.00886 0.53404 0.56513 0.0
O542 O 0.02878 0.49568 0.53028 0.0
O543 O 0.00947 0.50022 0.50815 0.0
C544 C 0.02261 0.49108 0.51215 0.0
C545 C 0.00331 0.55686 0.5101 0.0
O546 O 0.98169 0.50736 0.49061 0.0
O547 O 0.97945 0.5119 0.52437 0.0
O548 O 0.00621 0.52509 0.45714 0.0
O549 O 0.02914 0.51221 0.46801 0.0
O550 O 0.00409 0.55557 0.49123 0.0
O551 O 0.00693 0.54099 0.51589 0.0
O552 O 0.03866 0.53833 0.53455 0.0
O553 O 0.04095 0.53437 0.50084 0.0
C554 C 0.9718 0.50633 0.50635 0.0
C555 C 0.04837 0.54052 0.51875 0.0
Dy556 Dy 0.7431 0.76955 0.26077 0.0
C557 C 0.82305 0.7758 0.25246 0.0
C558 C 0.70574 0.76271 0.26864 0.0
Dy559 Dy 0.78608 0.76945 0.26155 0.0
O560 O 0.71363 0.77648 0.25829 0.0
O561 O 0.71821 0.75263 0.27454 0.0
O562 O 0.74718 0.79686 0.24429 0.0
O563 O 0.76872 0.79232 0.26391 0.0
C564 C 0.76459 0.80307 0.2511 0.0
C565 C 0.76455 0.73575 0.2708 0.0
O566 O 0.78488 0.7865 0.29046 0.0
O567 O 0.7525 0.77639 0.29267 0.0
O568 O 0.81622 0.76469 0.26571 0.0
O569 O 0.80979 0.78366 0.24456 0.0
O570 O 0.78199 0.74177 0.27755 0.0
O571 O 0.76052 0.74674 0.25819 0.0
O572 O 0.74434 0.75353 0.23128 0.0
O573 O 0.77687 0.76316 0.2297 0.0
C574 C 0.76958 0.7846 0.30065 0.0
C575 C 0.75983 0.75549 0.22137 0.0
Dy576 Dy 0.7618 0.2822 0.74571 0.0
C577 C 0.75182 0.25662 0.8218 0.0
C578 C 0.76125 0.29789 0.711 0.0
Dy579 Dy 0.75356 0.27365 0.78766 0.0
O580 O 0.77227 0.28577 0.7159 0.0
O581 O 0.75035 0.30114 0.72491 0.0
O582 O 0.78791 0.26849 0.7471 0.0
O583 O 0.77902 0.28252 0.77238 0.0
C584 C 0.79055 0.27208 0.7659 0.0
C585 C 0.72518 0.28381 0.76676 0.0
O586 O 0.76603 0.30584 0.79435 0.0
O587 O 0.7671 0.3129 0.76203 0.0
O588 O 0.73789 0.25479 0.80879 0.0
O589 O 0.76653 0.26833 0.81644 0.0
O590 O 0.72783 0.2882 0.78551 0.0
O591 O 0.73658 0.27301 0.76084 0.0
O592 O 0.747 0.25047 0.74055 0.0
O593 O 0.75483 0.24385 0.7718 0.0
C594 C 0.76921 0.31862 0.78101 0.0
C595 C 0.74872 0.23767 0.75353 0.0
Dy596 Dy 0.7596 0.78675 0.76183 0.0
C597 C 0.75432 0.7022 0.74307 0.0
C598 C 0.75876 0.82658 0.76474 0.0
Dy599 Dy 0.75198 0.74166 0.74818 0.0
O600 O 0.75291 0.81461 0.77765 0.0
O601 O 0.7656 0.81687 0.75064 0.0
O602 O 0.77708 0.7819 0.78826 0.0
O603 O 0.75483 0.7595 0.77612 0.0
C604 C 0.76856 0.76349 0.78867 0.0
C605 C 0.74132 0.76474 0.72208 0.0
O606 O 0.72449 0.74348 0.7612 0.0
O607 O 0.72778 0.77797 0.76135 0.0
O608 O 0.75461 0.71392 0.72927 0.0
O609 O 0.75223 0.71193 0.75955 0.0
O610 O 0.73333 0.74619 0.72265 0.0
O611 O 0.75579 0.76901 0.7338 0.0
O612 O 0.78764 0.78474 0.75025 0.0
O613 O 0.78366 0.75017 0.74799 0.0
C614 C 0.71751 0.76018 0.76349 0.0
C615 C 0.7943 0.76798 0.74717 0.0
Dy616 Dy 0.49583 0.5195 0.50655 0.0
C617 C 0.57561 0.52936 0.52797 0.0
C618 C 0.45797 0.51922 0.50071 0.0
Dy619 Dy 0.53792 0.52962 0.52213 0.0
O620 O 0.47069 0.52538 0.4888 0.0
O621 O 0.46591 0.51286 0.51553 0.0
O622 O 0.50357 0.50032 0.48096 0.0
O623 O 0.52292 0.52519 0.49366 0.0
C624 C 0.52083 0.51023 0.48129 0.0
C625 C 0.513 0.53945 0.54721 0.0
O626 O 0.5361 0.55751 0.50862 0.0
O627 O 0.50326 0.55306 0.50818 0.0
O628 O 0.56397 0.53031 0.54169 0.0
O629 O 0.56671 0.52896 0.51115 0.0
O630 O 0.53027 0.54929 0.54733 0.0
O631 O 0.51077 0.52424 0.53507 0.0
O632 O 0.49767 0.49139 0.51971 0.0
O633 O 0.53057 0.49628 0.52232 0.0
C634 C 0.52005 0.56418 0.5061 0.0
C635 C 0.51368 0.48498 0.52326 0.0
Dy636 Dy 0.03204 0.51608 0.00959 0.0
C637 C 0.95532 0.5325 0.01534 0.0
C638 C 0.06604 0.50309 0.01024 0.0
Dy639 Dy 0.98961 0.52054 0.01617 0.0
O640 O 0.0497 0.49224 0.00465 0.0
O641 O 0.06392 0.52128 0.01536 0.0
O642 O 0.03211 0.53256 0.98267 0.0
O643 O 0.00685 0.51667 0.99147 0.0
C644 C 0.01376 0.52879 0.97997 0.0
C645 C 0.008 0.50652 0.04493 0.0
O646 O 0.98469 0.48966 0.0016 0.0
O647 O 0.01553 0.48467 0.00832 0.0
O648 O 0.96599 0.53231 0.03099 0.0
O649 O 0.96326 0.52586 0.00025 0.0
O650 O 0.98964 0.50222 0.04198 0.0
O651 O 0.01478 0.51936 0.03403 0.0
O652 O 0.03587 0.54573 0.02724 0.0
O653 O 0.006 0.55187 0.01842 0.0
C654 C 0.99747 0.47794 0.00248 0.0
C655 C 0.02367 0.55805 0.02566 0.0
C656 C 0.98484 0.19737 0.91502 0.0
C657 C 0.99854 0.20896 0.90496 0.0
C658 C 0.98821 0.17968 0.92175 0.0
C659 C 0.02703 0.15882 0.94054 0.0
H660 H 0.98815 0.11194 0.94225 0.0
C661 C 0.03577 0.09191 0.98455 0.0
C662 C 0.01974 0.08353 0.99394 0.0
C663 C 0.03467 0.10678 0.97215 0.0
C664 C 0.99912 0.12499 0.942 0.0
H665 H 0.02607 0.21079 0.89307 0.0
H666 H 0.03219 0.17969 0.90525 0.0
H667 H 0.9832 0.13702 0.92057 0.0
H668 H 0.99046 0.08522 -0.00114 0.0
H669 H 0.9887 0.11141 0.97762 0.0
H670 H 0.04265 0.14712 0.96254 0.0
C671 C 0.01881 0.18436 0.90779 0.0
C672 C 0.99634 0.13923 0.92947 0.0
C673 C 0.01527 0.202 0.90073 0.0
C674 C 0.003 0.0912 0.99168 0.0
C675 C 0.00193 0.10607 0.97935 0.0
C676 C 0.0298 0.14456 0.95315 0.0
C677 C 0.00547 0.17334 0.91878 0.0
C678 C 0.01002 0.15654 0.92903 0.0
C679 C 0.01755 0.11354 0.96897 0.0
C680 C 0.01561 0.12781 0.95441 0.0
H681 H 0.9718 0.20244 0.9184 0.0
H682 H 0.97775 0.17161 0.93033 0.0
H683 H 0.03772 0.17216 0.94064 0.0
H684 H 0.04887 0.08627 0.98595 0.0
H685 H 0.04695 0.11231 0.96437 0.0
C686 C 0.08153 0.80349 0.17778 0.0
C687 C 0.08296 0.80336 0.15755 0.0
C688 C 0.09766 0.80431 0.19015 0.0
C689 C 0.1434 0.78919 0.19017 0.0
H690 H 0.15693 0.8255 0.23701 0.0
C691 C 0.21289 0.79043 0.23408 0.0
C692 C 0.21305 0.79285 0.25445 0.0
C693 C 0.19751 0.79382 0.2227 0.0
C694 C 0.15322 0.81508 0.22412 0.0
H695 H 0.10256 0.8045 0.13452 0.0
H696 H 0.13056 0.80557 0.1561 0.0
H697 H 0.1288 0.82754 0.21649 0.0
H698 H 0.19735 0.8009 0.27898 0.0
H699 H 0.16991 0.80602 0.25907 0.0
H700 H 0.16713 0.77612 0.19788 0.0
C701 C 0.11696 0.80511 0.16235 0.0
C702 C 0.13717 0.81633 0.21236 0.0
C703 C 0.10092 0.80459 0.15002 0.0
C704 C 0.19761 0.79905 0.26328 0.0
C705 C 0.18196 0.80208 0.25185 0.0
C706 C 0.1592 0.78772 0.20202 0.0
C707 C 0.11545 0.80471 0.18248 0.0
C708 C 0.13225 0.8035 0.19519 0.0
C709 C 0.18159 0.79917 0.23139 0.0
C710 C 0.16448 0.80077 0.21906 0.0
H711 H 0.06791 0.80265 0.18405 0.0
H712 H 0.09614 0.8039 0.20563 0.0
H713 H 0.13969 0.77886 0.17719 0.0
H714 H 0.22451 0.78547 0.22686 0.0
H715 H 0.19802 0.79193 0.20703 0.0
C716 C 0.49829 0.8282 0.39252 0.0
C717 C 0.50387 0.81289 0.40238 0.0
C718 C 0.49561 0.84586 0.40299 0.0
C719 C 0.5118 0.87744 0.44728 0.0
H720 H 0.46352 0.89526 0.4458 0.0
C721 C 0.50063 0.94144 0.50103 0.0
C722 C 0.49172 0.95604 0.49352 0.0
C723 C 0.49968 0.92298 0.49039 0.0
C724 C 0.47715 0.89061 0.44622 0.0
H725 H 0.5113 0.80401 0.43067 0.0
H726 H 0.50718 0.83494 0.44874 0.0
H727 H 0.46764 0.86595 0.42451 0.0
H728 H 0.47385 0.96247 0.46965 0.0
H729 H 0.47272 0.9305 0.45074 0.0
H730 H 0.52166 0.90209 0.46845 0.0
C731 C 0.50466 0.83324 0.43305 0.0
C732 C 0.47947 0.8739 0.43402 0.0
C733 C 0.50697 0.81557 0.42271 0.0
C734 C 0.48079 0.95142 0.47581 0.0
C735 C 0.48014 0.93306 0.46498 0.0
C736 C 0.50959 0.89423 0.45922 0.0
C737 C 0.49892 0.84849 0.42332 0.0
C738 C 0.49676 0.8671 0.43468 0.0
C739 C 0.49017 0.91892 0.47183 0.0
C740 C 0.49217 0.90088 0.45907 0.0
H741 H 0.4957 0.82637 0.37685 0.0
H742 H 0.49123 0.85754 0.39526 0.0
H743 H 0.5253 0.8725 0.44788 0.0
H744 H 0.50893 0.94457 0.51479 0.0
H745 H 0.50703 0.91216 0.49641 0.0
C746 C 0.47538 0.26537 0.68447 0.0
C747 C 0.47505 0.27154 0.6656 0.0
C748 C 0.45933 0.26444 0.69532 0.0
C749 C 0.41927 0.28913 0.70125 0.0
H750 H 0.39501 0.24325 0.72571 0.0
C751 C 0.34547 0.28544 0.7301 0.0
C752 C 0.34077 0.27499 0.74627 0.0
C753 C 0.36284 0.28527 0.72198 0.0
C754 C 0.40182 0.25634 0.71932 0.0
H755 H 0.45741 0.28071 0.64303 0.0
H756 H 0.42963 0.27939 0.66208 0.0
H757 H 0.42339 0.2413 0.70795 0.0
H758 H 0.35066 0.25668 0.76709 0.0
H759 H 0.38144 0.25692 0.75332 0.0
H760 H 0.39821 0.30444 0.71277 0.0
C761 C 0.44227 0.27529 0.66844 0.0
C762 C 0.41799 0.25514 0.70906 0.0
C763 C 0.45816 0.27592 0.65752 0.0
C764 C 0.35398 0.26485 0.75459 0.0
C765 C 0.37152 0.26485 0.74658 0.0
C766 C 0.40337 0.29047 0.71173 0.0
C767 C 0.44284 0.26996 0.68757 0.0
C768 C 0.42658 0.2714 0.6996 0.0
C769 C 0.37606 0.27485 0.72999 0.0
C770 C 0.39414 0.27396 0.72054 0.0
H771 H 0.4882 0.26189 0.69107 0.0
H772 H 0.46006 0.26027 0.71006 0.0
H773 H 0.42588 0.302 0.69436 0.0
H774 H 0.33548 0.29326 0.72329 0.0
H775 H 0.36559 0.29282 0.709 0.0
C776 C 0.00273 0.84508 0.62272 0.0
C777 C 0.00623 0.82707 0.61357 0.0
C778 C 0.00541 0.86239 0.613 0.0
C779 C 0.00793 0.87743 0.5628 0.0
H780 H 0.02451 0.93047 0.58914 0.0
C781 C 0.00205 0.94869 0.52556 0.0
C782 C 0.0163 0.96554 0.53032 0.0
C783 C 0.00173 0.93166 0.53545 0.0
C784 C 0.02007 0.91575 0.58149 0.0
H785 H 0.01644 0.81327 0.5877 0.0
H786 H 0.0218 0.84344 0.57113 0.0
H787 H 0.02343 0.90153 0.60747 0.0
H788 H 0.04191 0.97742 0.54852 0.0
H789 H 0.04169 0.94761 0.56525 0.0
H790 H 0.0051 0.89156 0.53673 0.0
C791 C 0.01631 0.84417 0.58545 0.0
C792 C 0.0192 0.89916 0.59208 0.0
C793 C 0.01339 0.82689 0.59502 0.0
C794 C 0.03061 0.96475 0.54463 0.0
C795 C 0.0304 0.94769 0.55436 0.0
C796 C 0.00895 0.89399 0.5522 0.0
C797 C 0.01184 0.86201 0.59405 0.0
C798 C 0.01311 0.87978 0.58287 0.0
C799 C 0.01577 0.93106 0.55016 0.0
C800 C 0.01498 0.91338 0.5614 0.0
H801 H 0.99712 0.84559 0.63699 0.0
H802 H 0.00171 0.87583 0.62004 0.0
H803 H 0.00284 0.86277 0.55525 0.0
H804 H 0.99074 0.94891 0.51472 0.0
H805 H 0.99013 0.91921 0.53196 0.0
C806 C 0.47308 0.78816 0.8609 0.0
C807 C 0.47323 0.78894 0.88129 0.0
C808 C 0.45699 0.79081 0.84998 0.0
C809 C 0.41205 0.81038 0.855 0.0
H810 H 0.39761 0.77962 0.8051 0.0
C811 C 0.33782 0.80066 0.81539 0.0
C812 C 0.33704 0.80174 0.79519 0.0
C813 C 0.35516 0.80134 0.82568 0.0
C814 C 0.4016 0.78849 0.81891 0.0
H815 H 0.45637 0.79261 0.90614 0.0
H816 H 0.42824 0.79654 0.88716 0.0
H817 H 0.42624 0.77556 0.82339 0.0
H818 H 0.35372 0.80498 0.76997 0.0
H819 H 0.38404 0.80594 0.78795 0.0
H820 H 0.38697 0.82275 0.85071 0.0
C821 C 0.4407 0.79451 0.87956 0.0
C822 C 0.41804 0.78621 0.8294 0.0
C823 C 0.45682 0.79208 0.89047 0.0
C824 C 0.35394 0.80416 0.78555 0.0
C825 C 0.37125 0.80457 0.7958 0.0
C826 C 0.3955 0.81248 0.84461 0.0
C827 C 0.4406 0.7941 0.85918 0.0
C828 C 0.42343 0.79702 0.84766 0.0
C829 C 0.37199 0.80284 0.81591 0.0
C830 C 0.39006 0.80148 0.8265 0.0
H831 H 0.48553 0.78593 0.85337 0.0
H832 H 0.45756 0.79065 0.83435 0.0
H833 H 0.41594 0.81929 0.8688 0.0
H834 H 0.32498 0.79875 0.82315 0.0
H835 H 0.3553 0.79986 0.84115 0.0
C836 C 0.48276 0.20644 0.11541 0.0
C837 C 0.47947 0.22053 0.10268 0.0
C838 C 0.47968 0.18613 0.10875 0.0
C839 C 0.49057 0.15206 0.08229 0.0
H840 H 0.44799 0.12178 0.04972 0.0
C841 C 0.47556 0.08612 0.01445 0.0
C842 C 0.48881 0.07464 0.02017 0.0
C843 C 0.47153 0.10164 0.02723 0.0
C844 C 0.46008 0.13009 0.05863 0.0
H845 H 0.46881 0.22453 0.07376 0.0
H846 H 0.46287 0.18907 0.06234 0.0
H847 H 0.44484 0.15317 0.06798 0.0
H848 H 0.50812 0.07022 0.0437 0.0
H849 H 0.50014 0.0961 0.06639 0.0
H850 H 0.5064 0.1302 0.072 0.0
C851 C 0.468 0.19363 0.07732 0.0
C852 C 0.45816 0.14793 0.06925 0.0
C853 C 0.47148 0.21391 0.08382 0.0
C854 C 0.49761 0.07863 0.03899 0.0
C855 C 0.49324 0.09373 0.05191 0.0
C856 C 0.49262 0.13449 0.07143 0.0
C857 C 0.47284 0.17967 0.08945 0.0
C858 C 0.4735 0.15922 0.08091 0.0
C859 C 0.48046 0.10579 0.0461 0.0
C860 C 0.47752 0.12341 0.05914 0.0
H861 H 0.48906 0.21123 0.12998 0.0
H862 H 0.4835 0.1756 0.11835 0.0
H863 H 0.50274 0.16069 0.09088 0.0
H864 H 0.46867 0.08344 -4e-05 0.0
H865 H 0.46188 0.11076 0.02202 0.0
C866 C 0.06339 0.25378 0.33971 0.0
C867 C 0.067 0.26027 0.35962 0.0
C868 C 0.07827 0.25083 0.32804 0.0
C869 C 0.12917 0.26894 0.32612 0.0
H870 H 0.12722 0.22563 0.28546 0.0
C871 C 0.18644 0.27154 0.27131 0.0
C872 C 0.19473 0.25444 0.26859 0.0
C873 C 0.16952 0.27084 0.28056 0.0
C874 C 0.12795 0.23778 0.29679 0.0
H875 H 0.0889 0.2677 0.38308 0.0
H876 H 0.11472 0.26248 0.3628 0.0
H877 H 0.10048 0.22611 0.30621 0.0
H878 H 0.19104 0.22287 0.27242 0.0
H879 H 0.1614 0.22169 0.28861 0.0
H880 H 0.15656 0.2806 0.31695 0.0
C881 C 0.10046 0.25997 0.35613 0.0
C882 C 0.11262 0.23812 0.30857 0.0
C883 C 0.08564 0.26286 0.36777 0.0
C884 C 0.18506 0.23632 0.27428 0.0
C885 C 0.16806 0.23563 0.28354 0.0
C886 C 0.14435 0.26869 0.3143 0.0
C887 C 0.09703 0.2544 0.33605 0.0
C888 C 0.11314 0.25367 0.32344 0.0
C889 C 0.16043 0.25304 0.28731 0.0
C890 C 0.14394 0.25314 0.29949 0.0
H891 H 0.04918 0.25163 0.33299 0.0
H892 H 0.07518 0.2466 0.3126 0.0
H893 H 0.12993 0.28128 0.33725 0.0
H894 H 0.19334 0.28571 0.26693 0.0
H895 H 0.16379 0.28441 0.28288 0.0
C896 C 0.90499 0.04518 0.17896 0.0
C897 C 0.91674 0.0513 0.19598 0.0
C898 C 0.91215 0.04813 0.1607 0.0
C899 C 0.95147 0.07498 0.13508 0.0
H900 H 0.94852 0.02448 0.10391 0.0
C901 C 0.00482 0.06316 0.07697 0.0
C902 C 0.99925 0.04853 0.06125 0.0
C903 C 0.99241 0.06597 0.09158 0.0
C904 C 0.94919 0.03888 0.11204 0.0
H905 H 0.94455 0.06663 0.20747 0.0
H906 H 0.95681 0.07231 0.17574 0.0
H907 H 0.92993 0.02617 0.13219 0.0
H908 H 0.97616 0.02595 0.04815 0.0
H909 H 0.95413 0.03161 0.07266 0.0
H910 H 0.97077 0.08775 0.115 0.0
C911 C 0.9422 0.06508 0.17639 0.0
C912 C 0.93849 0.03979 0.12834 0.0
C913 C 0.93521 0.06175 0.19454 0.0
C914 C 0.98082 0.03737 0.06001 0.0
C915 C 0.96826 0.04046 0.0743 0.0
C916 C 0.96195 0.07416 0.11854 0.0
C917 C 0.931 0.05766 0.15926 0.0
C918 C 0.93985 0.05772 0.14029 0.0
C919 C 0.974 0.05444 0.09061 0.0
C920 C 0.96134 0.05598 0.10703 0.0
H921 H 0.89075 0.03696 0.1797 0.0
H922 H 0.90321 0.04231 0.14769 0.0
H923 H 0.95271 0.08902 0.14402 0.0
H924 H 0.019 0.07194 0.07835 0.0
H925 H 0.99755 0.07668 0.10397 0.0
C926 C 0.27628 0.67233 0.45683 0.0
C927 C 0.27071 0.65219 0.45994 0.0
C928 C 0.27282 0.67879 0.43876 0.0
C929 C 0.24229 0.6744 0.39751 0.0
H930 H 0.28651 0.70006 0.37318 0.0
C931 C 0.23888 0.71999 0.33046 0.0
C932 C 0.25192 0.73804 0.33186 0.0
C933 C 0.23989 0.70633 0.34419 0.0
C934 C 0.27402 0.69295 0.37977 0.0
H935 H 0.25674 0.62303 0.44677 0.0
H936 H 0.25019 0.63468 0.4148 0.0
H937 H 0.29047 0.6805 0.40041 0.0
H938 H 0.27573 0.75641 0.34891 0.0
H939 H 0.27731 0.73282 0.37308 0.0
H940 H 0.22587 0.68792 0.37764 0.0
C941 C 0.25746 0.64523 0.42651 0.0
C942 C 0.2763 0.6816 0.39516 0.0
C943 C 0.26123 0.63863 0.44467 0.0
C944 C 0.26557 0.74255 0.34748 0.0
C945 C 0.26658 0.72895 0.36118 0.0
C946 C 0.23999 0.6859 0.3821 0.0
C947 C 0.26349 0.66533 0.42347 0.0
C948 C 0.26051 0.67283 0.40453 0.0
C949 C 0.25401 0.71054 0.35946 0.0
C950 C 0.25592 0.6959 0.37363 0.0
H951 H 0.28362 0.68315 0.4683 0.0
H952 H 0.27743 0.69439 0.43669 0.0
H953 H 0.22997 0.66786 0.40474 0.0
H954 H 0.22824 0.71617 0.31847 0.0
H955 H 0.23002 0.69226 0.34254 0.0
C956 C 0.60012 0.98944 0.69096 0.0
C957 C 0.58913 0.98922 0.70725 0.0
C958 C 0.59137 0.98642 0.67224 0.0
C959 C 0.56785 0.00138 0.64089 0.0
H960 H 0.5265 0.96017 0.61838 0.0
C961 C 0.533 0.00831 0.56681 0.0
C962 C 0.51338 0.00206 0.56376 0.0
C963 C 0.54269 0.00337 0.583 0.0
C964 C 0.53789 0.9719 0.62457 0.0
H965 H 0.56048 0.98369 0.71676 0.0
H966 H 0.54526 0.97818 0.68395 0.0
H967 H 0.54285 0.95606 0.64925 0.0
H968 H 0.48832 0.98588 0.57525 0.0
H969 H 0.50507 0.97822 0.60445 0.0
H970 H 0.56238 0.01797 0.61735 0.0
C971 C 0.56058 0.98087 0.68573 0.0
C972 C 0.54733 0.96942 0.64209 0.0
C973 C 0.5693 0.98418 0.70446 0.0
C974 C 0.50351 0.99079 0.57727 0.0
C975 C 0.51316 0.98625 0.59387 0.0
C976 C 0.55824 0.00405 0.62369 0.0
C977 C 0.57154 0.98279 0.66953 0.0
C978 C 0.5624 0.98415 0.65031 0.0
C979 C 0.53288 0.99268 0.59701 0.0
C980 C 0.54316 0.98935 0.61523 0.0
H981 H 0.61542 0.99322 0.69265 0.0
H982 H 0.60006 0.9879 0.65987 0.0
H983 H 0.57913 0.01318 0.64724 0.0
H984 H 0.54086 0.01739 0.55687 0.0
H985 H 0.5579 0.00823 0.58462 0.0
C986 C 0.26664 0.35247 0.97117 0.0
C987 C 0.26324 0.37212 0.97246 0.0
C988 C 0.26949 0.34272 0.95325 0.0
C989 C 0.28056 0.35058 0.90235 0.0
H990 H 0.25418 0.29578 0.89201 0.0
C991 C 0.25309 0.28925 0.83263 0.0
C992 C 0.26927 0.29113 0.8218 0.0
C993 C 0.25395 0.29851 0.85155 0.0
C994 C 0.2616 0.31108 0.89464 0.0
H995 H 0.26068 0.39721 0.9561 0.0
H996 H 0.26535 0.38004 0.92463 0.0
H997 H 0.25282 0.31379 0.92369 0.0
H998 H 0.29919 0.3039 0.82258 0.0
H999 H 0.30069 0.31999 0.85574 0.0
H1000 H 0.28882 0.34797 0.87299 0.0
C1001 C 0.26605 0.37224 0.93753 0.0
C1002 C 0.261 0.32136 0.91289 0.0
C1003 C 0.26327 0.38205 0.95553 0.0
C1004 C 0.28645 0.30216 0.8305 0.0
C1005 C 0.28729 0.3115 0.84945 0.0
C1006 C 0.28118 0.34026 0.88406 0.0
C1007 C 0.26889 0.35234 0.93616 0.0
C1008 C 0.27033 0.34129 0.91693 0.0
C1009 C 0.271 0.3099 0.86013 0.0
C1010 C 0.27151 0.32046 0.87993 0.0
H1011 H 0.26688 0.34446 0.98398 0.0
H1012 H 0.27201 0.32755 0.95279 0.0
H1013 H 0.28806 0.36585 0.90506 0.0
H1014 H 0.23962 0.28088 0.82642 0.0
H1015 H 0.24109 0.29716 0.85927 0.0
C1016 C 0.92228 0.02675 0.29451 0.0
C1017 C 0.90326 0.02909 0.29354 0.0
C1018 C 0.93037 0.02082 0.31123 0.0
C1019 C 0.91958 0.99709 0.35637 0.0
H1020 H 0.97002 0.02544 0.37361 0.0
C1021 C 0.95622 0.99392 0.43253 0.0
C1022 C 0.97596 0.99523 0.43366 0.0
C1023 C 0.94657 0.99516 0.41476 0.0
C1024 C 0.95606 0.01711 0.36885 0.0
H1025 H 0.87767 0.02671 0.30921 0.0
H1026 H 0.89195 0.01655 0.33871 0.0
H1027 H 0.95453 0.03377 0.34432 0.0
H1028 H 0.00091 0.99734 0.41703 0.0
H1029 H 0.98407 -0.00094 0.38598 0.0
H1030 H 0.92116 0.98058 0.3812 0.0
C1031 C 0.90052 0.01913 0.32639 0.0
C1032 C 0.94715 0.02194 0.35206 0.0
C1033 C 0.89239 0.02507 0.30957 0.0
C1034 C 0.9857 0.99645 0.41658 0.0
C1035 C 0.97607 0.9976 0.39883 0.0
C1036 C 0.92854 0.99223 0.37326 0.0
C1037 C 0.91969 0.01716 0.32746 0.0
C1038 C 0.92884 0.01196 0.34555 0.0
C1039 C 0.9565 0.99769 0.39783 0.0
C1040 C 0.94694 0.00215 0.37964 0.0
H1041 H 0.93103 0.02959 0.28237 0.0
H1042 H 0.94507 0.01911 0.31143 0.0
H1043 H 0.90553 0.98901 0.35164 0.0
H1044 H 0.94838 0.99299 0.44552 0.0
H1045 H 0.93151 0.99524 0.41451 0.0
C1046 C 0.30757 0.70198 0.56264 0.0
C1047 C 0.2976 0.68226 0.55961 0.0
C1048 C 0.30971 0.71224 0.58117 0.0
C1049 C 0.301 0.7072 0.63345 0.0
H1050 H 0.28896 0.76015 0.63155 0.0
C1051 C 0.27208 0.74812 0.6981 0.0
C1052 C 0.28118 0.76786 0.70366 0.0
C1053 C 0.27566 0.73829 0.68052 0.0
C1054 C 0.29254 0.74549 0.63231 0.0
H1055 H 0.28341 0.65722 0.57368 0.0
H1056 H 0.28665 0.67525 0.60601 0.0
H1057 H 0.29458 0.74119 0.60162 0.0
H1058 H 0.30026 0.79325 0.69477 0.0
H1059 H 0.30626 0.77611 0.66369 0.0
H1060 H 0.29814 0.71136 0.66416 0.0
C1061 C 0.29312 0.68278 0.59421 0.0
C1062 C 0.29591 0.73464 0.6152 0.0
C1063 C 0.29126 0.67239 0.57567 0.0
C1064 C 0.29309 0.77801 0.69082 0.0
C1065 C 0.29654 0.76821 0.6731 0.0
C1066 C 0.29744 0.718 0.65055 0.0
C1067 C 0.3016 0.70311 0.59697 0.0
C1068 C 0.29999 0.71527 0.61551 0.0
C1069 C 0.28825 0.7481 0.66806 0.0
C1070 C 0.29294 0.73713 0.65008 0.0
H1071 H 0.31277 0.70984 0.55047 0.0
H1072 H 0.31685 0.72768 0.58289 0.0
H1073 H 0.30436 0.69247 0.63427 0.0
H1074 H 0.26271 0.73997 0.70765 0.0
H1075 H 0.26878 0.72292 0.67678 0.0
C1076 C 0.61493 0.03064 0.81036 0.0
C1077 C 0.62263 0.01345 0.80607 0.0
C1078 C 0.60629 0.0334 0.82777 0.0
C1079 C 0.57635 0.00378 0.85697 0.0
H1080 H 0.58199 0.05071 0.894 0.0
C1081 C 0.52774 0.00839 0.92044 0.0
C1082 C 0.52413 0.02716 0.92735 0.0
C1083 C 0.54042 0.00675 0.906 0.0
C1084 C 0.58001 0.03763 0.88358 0.0
H1085 H 0.62824 0.98605 0.8165 0.0
H1086 H 0.6125 0.99055 0.84695 0.0
H1087 H 0.60548 0.0485 0.86988 0.0
H1088 H 0.52978 0.05876 0.92388 0.0
H1089 H 0.55103 0.05582 0.89769 0.0
H1090 H 0.55041 0.99329 0.8696 0.0
C1091 C 0.61354 0.00206 0.83704 0.0
C1092 C 0.59362 0.03629 0.87001 0.0
C1093 C 0.62258 -0.00046 0.81978 0.0
C1094 C 0.5324 0.04412 0.91875 0.0
C1095 C 0.54479 0.04244 0.90399 0.0
C1096 C 0.56254 0.00527 0.87024 0.0
C1097 C 0.60482 0.0187 0.84082 0.0
C1098 C 0.59185 0.01937 0.8566 0.0
C1099 C 0.54944 0.02381 0.89788 0.0
C1100 C 0.56413 0.02226 0.88367 0.0
H1101 H 0.61473 0.04142 0.79983 0.0
H1102 H 0.59951 0.04624 0.83035 0.0
H1103 H 0.57453 0.99077 0.84645 0.0
H1104 H 0.52171 0.9951 0.92704 0.0
H1105 H 0.54376 0.99219 0.9019 0.0
C1106 C 0.25621 0.37054 0.08908 0.0
C1107 C 0.24674 0.36167 0.07144 0.0
C1108 C 0.25236 0.36176 0.10638 0.0
C1109 C 0.23383 0.31171 0.12159 0.0
H1110 H 0.2406 0.33957 0.17342 0.0
C1111 C 0.22572 0.26937 0.19014 0.0
C1112 C 0.24066 0.27506 0.20444 0.0
C1113 C 0.22387 0.28116 0.17486 0.0
C1114 C 0.23867 0.33162 0.15901 0.0
H1115 H 0.22496 0.33779 0.05802 0.0
H1116 H 0.2174 0.32313 0.08819 0.0
H1117 H 0.2412 0.35866 0.14508 0.0
H1118 H 0.26535 0.29755 0.21403 0.0
H1119 H 0.26195 0.31825 0.18758 0.0
H1120 H 0.23142 0.28473 0.13547 0.0
C1121 C 0.22832 0.33632 0.08877 0.0
C1122 C 0.23907 0.34254 0.14276 0.0
C1123 C 0.23245 0.34484 0.07151 0.0
C1124 C 0.25352 0.29292 0.20337 0.0
C1125 C 0.25156 0.30481 0.18824 0.0
C1126 C 0.23324 0.30084 0.13778 0.0
C1127 C 0.23881 0.3441 0.10631 0.0
C1128 C 0.23687 0.33273 0.1238 0.0
C1129 C 0.23686 0.29895 0.17368 0.0
C1130 C 0.2359 0.31065 0.15666 0.0
H1131 H 0.26747 0.3834 0.08927 0.0
H1132 H 0.26083 0.36814 0.11952 0.0
H1133 H 0.23257 0.30355 0.10731 0.0
H1134 H 0.21559 0.25568 0.19063 0.0
H1135 H 0.21233 0.27632 0.1639 0.0
C1136 C 0.188 0.9306 0.01669 0.0
C1137 C 0.20754 0.93714 0.01581 0.0
C1138 C 0.17645 0.94393 0.02307 0.0
C1139 C 0.15573 0.97303 0.0445 0.0
H1140 H 0.16326 0.02366 0.02213 0.0
C1141 C 0.1006 0.02362 0.05188 0.0
C1142 C 0.09469 0.02953 0.03403 0.0
C1143 C 0.1175 0.01635 0.05374 0.0
C1144 C 0.16103 0.00964 0.02858 0.0
H1145 H 0.23047 0.96258 0.02163 0.0
H1146 H 0.21028 0.98586 0.03293 0.0
H1147 H 0.18643 0.00185 0.01783 0.0
H1148 H 0.10229 0.03391 0.00456 0.0
H1149 H 0.13161 0.02104 0.00765 0.0
H1150 H 0.12976 0.98019 0.0542 0.0
C1151 C 0.20386 0.97048 0.02843 0.0
C1152 C 0.1744 0.99721 0.02629 0.0
C1153 C 0.21542 0.95713 0.02203 0.0
C1154 C 0.10655 0.02944 0.01849 0.0
C1155 C 0.12341 0.02215 0.02032 0.0
C1156 C 0.14235 0.98542 0.04675 0.0
C1157 C 0.18421 0.96408 0.02877 0.0
C1158 C 0.17159 0.9785 0.03372 0.0
C1159 C 0.12874 0.01486 0.03775 0.0
C1160 C 0.14457 0.00359 0.03832 0.0
H1161 H 0.18151 0.91528 0.01199 0.0
H1162 H 0.16133 0.93857 0.02286 0.0
H1163 H 0.15332 0.95885 0.05067 0.0
H1164 H 0.09172 0.02365 0.06412 0.0
H1165 H 0.12139 0.01116 0.06745 0.0
C1166 C 0.69295 0.63686 0.98685 0.0
C1167 C 0.70968 0.6298 0.98271 0.0
C1168 C 0.67615 0.6235 0.98865 0.0
C1169 C 0.65026 0.57334 0.97452 0.0
H1170 H 0.62469 0.58081 0.02204 0.0
C1171 C 0.58014 0.52148 0.98807 0.0
C1172 C 0.56632 0.53094 0.99661 0.0
C1173 C 0.59878 0.53179 0.98768 0.0
C1174 C 0.63148 0.5786 0.00857 0.0
H1175 H 0.72168 0.60315 0.97639 0.0
H1176 H 0.69205 0.57981 0.97898 0.0
H1177 H 0.65442 0.60275 0.01747 0.0
H1178 H 0.56122 0.55835 0.01192 0.0
H1179 H 0.59322 0.57641 0.01074 0.0
H1180 H 0.62697 0.54982 0.96513 0.0
C1181 C 0.69211 0.5957 0.98109 0.0
C1182 C 0.64856 0.59115 0.00602 0.0
C1183 C 0.70904 0.60906 0.97966 0.0
C1184 C 0.57158 0.55061 0.00529 0.0
C1185 C 0.59005 0.56095 0.00472 0.0
C1186 C 0.63296 0.56097 0.9769 0.0
C1187 C 0.67562 0.60282 0.98598 0.0
C1188 C 0.65799 0.5888 0.98889 0.0
C1189 C 0.60389 0.55182 0.99568 0.0
C1190 C 0.62318 0.56363 0.99386 0.0
H1191 H 0.69297 0.65271 0.98938 0.0
H1192 H 0.66356 0.62934 0.99226 0.0
H1193 H 0.65728 0.57127 0.96116 0.0
H1194 H 0.57645 0.50628 0.98133 0.0
H1195 H 0.6091 0.52414 0.98089 0.0
C1196 C 0.68539 0.46537 0.266 0.0
C1197 C 0.66551 0.46184 0.26559 0.0
C1198 C 0.69518 0.44954 0.26272 0.0
C1199 C 0.68828 0.39425 0.26323 0.0
H1200 H 0.73638 0.40041 0.23917 0.0
C1201 C 0.72397 0.32723 0.24261 0.0
C1202 C 0.74304 0.32896 0.24927 0.0
C1203 C 0.71521 0.34391 0.24331 0.0
C1204 C 0.72301 0.39854 0.24601 0.0
H1205 H 0.64028 0.43903 0.26054 0.0
H1206 H 0.6572 0.41154 0.25404 0.0
H1207 H 0.71936 0.42837 0.2421 0.0
H1208 H 0.76805 0.34992 0.26113 0.0
H1209 H 0.75271 0.37925 0.262 0.0
H1210 H 0.69178 0.36431 0.26674 0.0
C1211 C 0.66537 0.42643 0.25757 0.0
C1212 C 0.71325 0.41457 0.24777 0.0
C1213 C 0.65561 0.44223 0.26112 0.0
C1214 C 0.75335 0.34803 0.25589 0.0
C1215 C 0.74459 0.36483 0.25636 0.0
C1216 C 0.6979 0.37821 0.26123 0.0
C1217 C 0.68532 0.42977 0.25871 0.0
C1218 C 0.69572 0.41266 0.25642 0.0
C1219 C 0.7253 0.36284 0.25048 0.0
C1220 C 0.71535 0.38014 0.2526 0.0
H1221 H 0.69345 0.48032 0.26952 0.0
H1222 H 0.7105 0.45278 0.26398 0.0
H1223 H 0.67513 0.39224 0.27044 0.0
H1224 H 0.71551 0.31285 0.23737 0.0
H1225 H 0.7004 0.34196 0.23843 0.0
C1226 C 0.81625 0.40107 0.47758 0.0
C1227 C 0.80061 0.41043 0.48077 0.0
C1228 C 0.83452 0.41235 0.47868 0.0
C1229 C 0.86211 0.46303 0.47819 0.0
H1230 H 0.89843 0.44377 0.51148 0.0
C1231 C 0.94222 0.4952 0.48492 0.0
C1232 C 0.95141 0.49778 0.50361 0.0
C1233 C 0.9233 0.48588 0.48195 0.0
C1234 C 0.88839 0.4494 0.50228 0.0
H1235 H 0.79179 0.43907 0.48626 0.0
H1236 H 0.8237 0.45869 0.48804 0.0
H1237 H 0.8665 0.42438 0.50503 0.0
H1238 H 0.94776 0.49314 0.53395 0.0
H1239 H 0.91464 0.47671 0.52869 0.0
H1240 H 0.88405 0.48812 0.47553 0.0
C1241 C 0.8218 0.44265 0.48481 0.0
C1242 C 0.87022 0.43818 0.49837 0.0
C1243 C 0.80354 0.43138 0.48387 0.0
C1244 C 0.94111 0.49134 0.51937 0.0
C1245 C 0.9222 0.48184 0.51636 0.0
C1246 C 0.88036 0.47418 0.48197 0.0
C1247 C 0.83749 0.43319 0.48279 0.0
C1248 C 0.85692 0.44487 0.48628 0.0
C1249 C 0.91321 0.47882 0.49758 0.0
C1250 C 0.89366 0.46746 0.49407 0.0
H1251 H 0.81449 0.38498 0.47511 0.0
H1252 H 0.84639 0.40473 0.47677 0.0
H1253 H 0.85211 0.46851 0.46881 0.0
H1254 H 0.94971 0.50012 0.47247 0.0
H1255 H 0.91676 0.48362 0.4673 0.0
C1256 C 0.34747 0.06815 0.25276 0.0
C1257 C 0.36645 0.07613 0.25878 0.0
C1258 C 0.33504 0.08063 0.24763 0.0
C1259 C 0.32869 0.1318 0.25969 0.0
H1260 H 0.28733 0.11883 0.21997 0.0
C1261 C 0.26766 0.17437 0.26193 0.0
C1262 C 0.26327 0.18235 0.24465 0.0
C1263 C 0.27864 0.15949 0.26175 0.0
C1264 C 0.29885 0.12263 0.23107 0.0
H1265 H 0.38763 0.10322 0.26277 0.0
H1266 H 0.36593 0.12503 0.25368 0.0
H1267 H 0.31132 0.09751 0.2214 0.0
H1268 H 0.26561 0.18011 0.21343 0.0
H1269 H 0.28491 0.154 0.2131 0.0
H1270 H 0.31639 0.15683 0.2694 0.0
C1271 C 0.3606 0.10915 0.25325 0.0
C1272 C 0.31252 0.11043 0.23193 0.0
C1273 C 0.37305 0.09666 0.25837 0.0
C1274 C 0.2688 0.17415 0.22695 0.0
C1275 C 0.27983 0.15923 0.22677 0.0
C1276 C 0.31503 0.14386 0.2589 0.0
C1277 C 0.34134 0.10134 0.24845 0.0
C1278 C 0.32754 0.11487 0.24633 0.0
C1279 C 0.28548 0.15236 0.24428 0.0
C1280 C 0.29986 0.13931 0.24474 0.0
H1281 H 0.34199 0.05235 0.25282 0.0
H1282 H 0.32028 0.07418 0.24409 0.0
H1283 H 0.3399 0.13547 0.27112 0.0
H1284 H 0.26347 0.18035 0.27576 0.0
H1285 H 0.28244 0.15415 0.27541 0.0
C1286 C 0.30771 0.10214 0.50647 0.0
C1287 C 0.31042 0.12131 0.50003 0.0
C1288 C 0.32287 0.09193 0.50798 0.0
C1289 C 0.36834 0.08896 0.48734 0.0
H1290 H 0.37891 0.06197 0.53249 0.0
C1291 C 0.43748 0.05879 0.49786 0.0
C1292 C 0.43704 0.04114 0.50687 0.0
C1293 C 0.42147 0.06767 0.49679 0.0
C1294 C 0.37598 0.06913 0.51962 0.0
H1295 H 0.33121 0.14498 0.49056 0.0
H1296 H 0.35757 0.12711 0.49305 0.0
H1297 H 0.35206 0.07938 0.53168 0.0
H1298 H 0.41947 0.01862 0.52145 0.0
H1299 H 0.39122 0.03382 0.51916 0.0
H1300 H 0.39195 0.07856 0.47506 0.0
C1301 C 0.34372 0.11995 0.49685 0.0
C1302 C 0.36065 0.07918 0.51922 0.0
C1303 C 0.32865 0.13023 0.49554 0.0
C1304 C 0.42018 0.03227 0.51446 0.0
C1305 C 0.40406 0.04108 0.51328 0.0
C1306 C 0.38352 0.07876 0.48763 0.0
C1307 C 0.34096 0.10061 0.50285 0.0
C1308 C 0.35682 0.08939 0.50317 0.0
C1309 C 0.40455 0.059 0.50457 0.0
C1310 C 0.3877 0.06891 0.50387 0.0
H1311 H 0.29382 0.09489 0.51004 0.0
H1312 H 0.32033 0.07701 0.51259 0.0
H1313 H 0.36551 0.09639 0.47461 0.0
H1314 H 0.45034 0.066 0.49194 0.0
H1315 H 0.42253 0.08161 0.49026 0.0
C1316 C 0.67571 0.5701 0.29714 0.0
C1317 C 0.65597 0.56878 0.29484 0.0
C1318 C 0.6879 0.58838 0.29634 0.0
C1319 C 0.69174 0.63299 0.27237 0.0
H1320 H 0.72838 0.65935 0.31355 0.0
C1321 C 0.73395 0.71158 0.26599 0.0
C1322 C 0.75242 0.71684 0.27457 0.0
C1323 C 0.72239 0.69371 0.26942 0.0
C1324 C 0.71849 0.65207 0.30172 0.0
H1325 H 0.63359 0.58571 0.29022 0.0
H1326 H 0.65492 0.61739 0.28827 0.0
H1327 H 0.70827 0.62754 0.31815 0.0
H1328 H 0.77352 0.70735 0.29313 0.0
H1329 H 0.75381 0.6756 0.29831 0.0
H1330 H 0.70224 0.65668 0.25547 0.0
C1331 C 0.66088 0.60432 0.29095 0.0
C1332 C 0.7069 0.63391 0.30448 0.0
C1333 C 0.6487 0.58621 0.29217 0.0
C1334 C 0.75925 0.70373 0.28645 0.0
C1335 C 0.74784 0.68558 0.28955 0.0
C1336 C 0.70356 0.65086 0.26942 0.0
C1337 C 0.68056 0.60551 0.2928 0.0
C1338 C 0.6933 0.62437 0.28989 0.0
C1339 C 0.72921 0.68029 0.28108 0.0
C1340 C 0.71698 0.66084 0.28414 0.0
H1341 H 0.68173 0.55695 0.29923 0.0
H1342 H 0.70306 0.58898 0.29776 0.0
H1343 H 0.68148 0.62573 0.26082 0.0
H1344 H 0.72838 0.72127 0.25655 0.0
H1345 H 0.70806 0.69053 0.26295 0.0
C1346 C 0.88777 0.46913 0.81014 0.0
C1347 C 0.88034 0.48646 0.80768 0.0
C1348 C 0.87562 0.45106 0.81184 0.0
C1349 C 0.82669 0.42772 0.82059 0.0
H1350 H 0.83448 0.3867 0.78095 0.0
C1351 C 0.78353 0.34597 0.80688 0.0
C1352 C 0.77809 0.33959 0.78719 0.0
C1353 C 0.79501 0.36463 0.81213 0.0
C1354 C 0.83217 0.39801 0.79212 0.0
H1355 H 0.8546 0.49889 0.80668 0.0
H1356 H 0.83351 0.46743 0.80982 0.0
H1357 H 0.85778 0.41746 0.78695 0.0
H1358 H 0.77917 0.34852 0.7578 0.0
H1359 H 0.79926 0.3808 0.76701 0.0
H1360 H 0.80081 0.40816 0.82545 0.0
C1361 C 0.84864 0.46774 0.81031 0.0
C1362 C 0.8456 0.41549 0.79571 0.0
C1363 C 0.86072 0.4857 0.80834 0.0
C1364 C 0.78327 0.35279 0.77307 0.0
C1365 C 0.79483 0.37127 0.7783 0.0
C1366 C 0.81333 0.41003 0.81718 0.0
C1367 C 0.85592 0.45013 0.81143 0.0
C1368 C 0.84284 0.43067 0.80972 0.0
C1369 C 0.80131 0.37706 0.79776 0.0
C1370 C 0.8158 0.39525 0.80259 0.0
H1371 H 0.90283 0.46928 0.80971 0.0
H1372 H 0.88158 0.43767 0.8128 0.0
H1373 H 0.82426 0.43923 0.83148 0.0
H1374 H 0.77971 0.3362 0.81813 0.0
H1375 H 0.79979 0.36885 0.82725 0.0
C1376 C 0.03635 0.84105 0.10562 0.0
C1377 C 0.02579 0.8379 0.12196 0.0
C1378 C 0.03584 0.85785 0.09573 0.0
C1379 C 0.01968 0.90685 0.09845 0.0
H1380 H 0.01986 0.89806 0.04223 0.0
C1381 C 0.99922 0.9621 0.04623 0.0
C1382 C 0.01377 0.96904 0.0343 0.0
C1383 C 0.00023 0.94565 0.05657 0.0
C1384 C 0.01982 0.90067 0.05792 0.0
H1385 H 0.00693 0.84998 0.14131 0.0
H1386 H 0.00533 0.87903 0.12361 0.0
H1387 H 0.02321 0.87093 0.06194 0.0
H1388 H 0.04024 0.96372 0.02298 0.0
H1389 H 0.04163 0.93444 0.04058 0.0
H1390 H 0.01557 0.93648 0.09411 0.0
C1391 C 0.01444 0.86886 0.11864 0.0
C1392 C 0.02193 0.88523 0.06927 0.0
C1393 C 0.0153 0.85221 0.12879 0.0
C1394 C 0.02886 0.95867 0.03211 0.0
C1395 C 0.02965 0.94197 0.04213 0.0
C1396 C 0.01721 0.92216 0.08704 0.0
C1397 C 0.02435 0.87162 0.10169 0.0
C1398 C 0.02207 0.88817 0.08971 0.0
C1399 C 0.01558 0.93565 0.05477 0.0
C1400 C 0.01739 0.9192 0.06672 0.0
H1401 H 0.04474 0.83031 0.10021 0.0
H1402 H 0.04417 0.85979 0.08316 0.0
H1403 H 0.01998 0.90978 0.11412 0.0
H1404 H 0.9875 0.96991 0.04829 0.0
H1405 H 0.98918 0.9409 0.06618 0.0
C1406 C 0.9427 0.25714 0.84632 0.0
C1407 C 0.9444 0.26504 0.86593 0.0
C1408 C 0.92586 0.25625 0.83502 0.0
C1409 C 0.87491 0.25756 0.83947 0.0
H1410 H 0.87649 0.27148 0.78634 0.0
C1411 C 0.81057 0.27614 0.79693 0.0
C1412 C 0.80735 0.26873 0.77725 0.0
C1413 C 0.82695 0.27389 0.80747 0.0
C1414 C 0.87582 0.26729 0.80107 0.0
H1415 H 0.9298 0.27857 0.88889 0.0
H1416 H 0.90075 0.27733 0.86918 0.0
H1417 H 0.90599 0.27119 0.80514 0.0
H1418 H 0.81849 0.25292 0.75318 0.0
H1419 H 0.84725 0.24903 0.77162 0.0
H1420 H 0.84477 0.25406 0.83551 0.0
C1421 C 0.91222 0.27138 0.86262 0.0
C1422 C 0.89271 0.26711 0.81184 0.0
C1423 C 0.92897 0.27221 0.8739 0.0
C1424 C 0.82067 0.25881 0.76834 0.0
C1425 C 0.83714 0.25667 0.77886 0.0
C1426 C 0.85805 0.25783 0.82874 0.0
C1427 C 0.91041 0.2633 0.84308 0.0
C1428 C 0.89246 0.26246 0.83124 0.0
C1429 C 0.84051 0.26431 0.7985 0.0
C1430 C 0.85833 0.26289 0.80949 0.0
H1431 H 0.95429 0.25146 0.83972 0.0
H1432 H 0.92487 0.24979 0.82006 0.0
H1433 H 0.87419 0.25351 0.85424 0.0
H1434 H 0.80063 0.28406 0.80409 0.0
H1435 H 0.82926 0.28017 0.82251 0.0
C1436 C 0.52831 0.21941 0.61604 0.0
C1437 C 0.52233 0.23286 0.60399 0.0
C1438 C 0.52981 0.20019 0.60826 0.0
C1439 C 0.53476 0.17305 0.5604 0.0
H1440 H 0.52446 0.12585 0.58814 0.0
C1441 C 0.51872 0.09251 0.52459 0.0
C1442 C 0.52769 0.07837 0.53288 0.0
C1443 C 0.52135 0.11204 0.53329 0.0
C1444 C 0.52768 0.13901 0.58039 0.0
H1445 H 0.51175 0.23651 0.57495 0.0
H1446 H 0.51333 0.2028 0.56162 0.0
H1447 H 0.52042 0.15807 0.60399 0.0
H1448 H 0.54691 0.07345 0.55626 0.0
H1449 H 0.55113 0.10775 0.57191 0.0
H1450 H 0.54107 0.15371 0.53648 0.0
C1451 C 0.51774 0.2072 0.5768 0.0
C1452 C 0.52534 0.15744 0.58943 0.0
C1453 C 0.51659 0.22642 0.58447 0.0
C1454 C 0.53999 0.0842 0.54956 0.0
C1455 C 0.54228 0.10369 0.55855 0.0
C1456 C 0.53681 0.15461 0.55131 0.0
C1457 C 0.52509 0.19411 0.58838 0.0
C1458 C 0.5285 0.17462 0.57939 0.0
C1459 C 0.53268 0.11761 0.55065 0.0
C1460 C 0.53302 0.13742 0.56112 0.0
H1461 H 0.53297 0.22414 0.63111 0.0
H1462 H 0.53554 0.19052 0.61759 0.0
H1463 H 0.5379 0.18605 0.55243 0.0
H1464 H 0.50918 0.0883 0.51172 0.0
H1465 H 0.51373 0.12251 0.527 0.0
C1466 C 0.56614 0.76414 0.35866 0.0
C1467 C 0.54802 0.75599 0.35006 0.0
C1468 C 0.58218 0.7638 0.34813 0.0
C1469 C 0.60123 0.73843 0.30691 0.0
H1470 H 0.63756 0.78794 0.30908 0.0
C1471 C 0.67868 0.74401 0.28477 0.0
C1472 C 0.68605 0.76013 0.27444 0.0
C1473 C 0.66059 0.74248 0.29176 0.0
C1474 C 0.62748 0.77405 0.30817 0.0
H1475 H 0.53256 0.74056 0.32382 0.0
H1476 H 0.56082 0.73971 0.30543 0.0
H1477 H 0.6084 0.7871 0.32589 0.0
H1478 H 0.68018 0.78693 0.2628 0.0
H1479 H 0.64862 0.78439 0.27521 0.0
H1480 H 0.62058 0.72532 0.28944 0.0
C1481 C 0.56248 0.74644 0.32033 0.0
C1482 C 0.61087 0.77353 0.31794 0.0
C1483 C 0.54633 0.74698 0.33083 0.0
C1484 C 0.67483 0.77437 0.27074 0.0
C1485 C 0.65683 0.77296 0.27791 0.0
C1486 C 0.618 0.73889 0.29731 0.0
C1487 C 0.58053 0.75514 0.32881 0.0
C1488 C 0.59765 0.75569 0.31756 0.0
C1489 C 0.64964 0.75716 0.28874 0.0
C1490 C 0.63134 0.7567 0.29793 0.0
H1491 H 0.56795 0.77116 0.37346 0.0
H1492 H 0.59594 0.77037 0.35512 0.0
H1493 H 0.5913 0.72448 0.30645 0.0
H1494 H 0.68706 0.73281 0.2878 0.0
H1495 H 0.65548 0.73023 0.30019 0.0
C1496 C 0.01564 0.2106 0.41059 0.0
C1497 C 0.01812 0.22764 0.42406 0.0
C1498 C 0.01483 0.19159 0.41707 0.0
C1499 C 0.02925 0.16668 0.45885 0.0
H1500 H 0.98703 0.1241 0.44182 0.0
C1501 C 0.01416 0.09621 0.49935 0.0
C1502 C 0.00828 0.07778 0.48819 0.0
C1503 C 0.01499 0.1141 0.49077 0.0
C1504 C 0.99907 0.13572 0.44656 0.0
H1505 H 0.02219 0.23807 0.45484 0.0
H1506 H 0.021 0.20527 0.46591 0.0
H1507 H 0.99034 0.15564 0.4271 0.0
H1508 H 0.99826 0.0638 0.45925 0.0
H1509 H 0.00011 0.09484 0.44433 0.0
H1510 H 0.03816 0.14695 0.47816 0.0
C1511 C 0.01961 0.20649 0.45041 0.0
C1512 C 0.00095 0.15377 0.43808 0.0
C1513 C 0.02015 0.2253 0.44402 0.0
C1514 C 0.00278 0.0777 0.46837 0.0
C1515 C 0.00377 0.09556 0.45977 0.0
C1516 C 0.02748 0.14864 0.46719 0.0
C1517 C 0.01687 0.18942 0.43707 0.0
C1518 C 0.01589 0.16953 0.44439 0.0
C1519 C 0.01013 0.114 0.47079 0.0
C1520 C 0.0122 0.13301 0.4614 0.0
H1521 H 0.01401 0.21191 0.39513 0.0
H1522 H 0.01277 0.17863 0.40648 0.0
H1523 H 0.04105 0.17851 0.46382 0.0
H1524 H 0.01838 0.09685 0.51466 0.0
H1525 H 0.01954 0.12803 0.49983 0.0
C1526 C 0.55054 0.26351 0.16137 0.0
C1527 C 0.55242 0.27596 0.14621 0.0
C1528 C 0.56654 0.25935 0.1713 0.0
C1529 C 0.60185 0.25868 0.19639 0.0
H1530 H 0.64746 0.25846 0.16875 0.0
C1531 C 0.67324 0.25524 0.23619 0.0
C1532 C 0.68717 0.24756 0.22596 0.0
C1533 C 0.65609 0.25681 0.22669 0.0
C1534 C 0.63479 0.25803 0.17667 0.0
H1535 H 0.57251 0.29451 0.1301 0.0
H1536 H 0.60043 0.28832 0.14814 0.0
H1537 H 0.61934 0.26503 0.15192 0.0
H1538 H 0.69377 0.23434 0.19811 0.0
H1539 H 0.66334 0.23583 0.18168 0.0
H1540 H 0.61695 0.25046 0.22078 0.0
C1541 C 0.58666 0.28096 0.15187 0.0
C1542 C 0.61866 0.2623 0.16707 0.0
C1543 C 0.57064 0.28473 0.14163 0.0
C1544 C 0.68325 0.24039 0.2063 0.0
C1545 C 0.66588 0.24153 0.19686 0.0
C1546 C 0.61785 0.25395 0.20585 0.0
C1547 C 0.58488 0.2679 0.16663 0.0
C1548 C 0.602 0.26295 0.17684 0.0
C1549 C 0.65225 0.25033 0.20676 0.0
C1550 C 0.63467 0.25382 0.19623 0.0
H1551 H 0.53668 0.25633 0.16509 0.0
H1552 H 0.56443 0.24894 0.18225 0.0
H1553 H 0.58947 0.25924 0.20459 0.0
H1554 H 0.67597 0.26107 0.25134 0.0
H1555 H 0.64625 0.26398 0.23486 0.0
C1556 C 0.53543 0.83442 0.93253 0.0
C1557 C 0.53714 0.83126 0.91241 0.0
C1558 C 0.53511 0.85344 0.94135 0.0
C1559 C 0.52459 0.90231 0.93164 0.0
H1560 H 0.54916 0.91781 0.98322 0.0
C1561 C 0.52217 0.97777 0.97668 0.0
C1562 C 0.51725 0.9759 0.99591 0.0
C1563 C 0.52634 0.96143 0.96516 0.0
C1564 C 0.54221 0.91367 0.96884 0.0
H1565 H 0.53998 0.84558 0.88569 0.0
H1566 H 0.53954 0.87914 0.90123 0.0
H1567 H 0.5539 0.88708 0.96512 0.0
H1568 H 0.51324 0.95576 0.01845 0.0
H1569 H 0.52066 0.92726 -0.00151 0.0
H1570 H 0.51274 0.92894 0.93559 0.0
C1571 C 0.53832 0.86676 0.91012 0.0
C1572 C 0.5449 0.89608 0.95847 0.0
C1573 C 0.53865 0.8476 0.90124 0.0
C1574 C 0.51694 0.95757 0.00362 0.0
C1575 C 0.52126 0.94131 0.99222 0.0
C1576 C 0.52199 0.92004 0.94201 0.0
C1577 C 0.53657 0.86985 0.93029 0.0
C1578 C 0.53569 0.88989 0.94 0.0
C1579 C 0.52598 0.94305 0.97287 0.0
C1580 C 0.53037 0.92559 0.96091 0.0
H1581 H 0.53417 0.82214 0.94155 0.0
H1582 H 0.53335 0.8552 0.95684 0.0
H1583 H 0.51722 0.8979 0.91749 0.0
H1584 H 0.52321 0.99194 0.9707 0.0
H1585 H 0.53019 0.96327 0.95038 0.0
C1586 C 0.93275 0.77236 0.6536 0.0
C1587 C 0.95024 0.77031 0.66234 0.0
C1588 C 0.91692 0.77213 0.66456 0.0
C1589 C 0.89687 0.75751 0.71054 0.0
H1590 H 0.8642 0.79516 0.69966 0.0
C1591 C 0.82101 0.75132 0.73654 0.0
C1592 C 0.81404 0.76895 0.74142 0.0
C1593 C 0.8389 0.75209 0.72924 0.0
C1594 C 0.87328 0.78473 0.70311 0.0
H1595 H 0.96472 0.76594 0.68938 0.0
H1596 H 0.937 0.76568 0.70865 0.0
H1597 H 0.8928 0.79513 0.68228 0.0
H1598 H 0.82087 0.80129 0.74334 0.0
H1599 H 0.85218 0.80262 0.73086 0.0
H1600 H 0.87734 0.74725 0.73154 0.0
C1601 C 0.93554 0.76731 0.69324 0.0
C1602 C 0.88956 0.78452 0.69292 0.0
C1603 C 0.95142 0.7675 0.68222 0.0
C1604 C 0.82571 0.7874 0.73959 0.0
C1605 C 0.84363 0.78817 0.73232 0.0
C1606 C 0.88054 0.75773 0.72077 0.0
C1607 C 0.91817 0.76993 0.68458 0.0
C1608 C 0.90141 0.77072 0.69628 0.0
C1609 C 0.85029 0.77051 0.72669 0.0
C1610 C 0.86843 0.77119 0.71701 0.0
H1611 H 0.93132 0.77442 0.63828 0.0
H1612 H 0.90367 0.77373 0.65733 0.0
H1613 H 0.90565 0.74665 0.71345 0.0
H1614 H 0.81244 0.73683 0.73776 0.0
H1615 H 0.84346 0.73819 0.72487 0.0
C1616 C 0.09655 0.99335 0.82899 0.0
C1617 C 0.1163 -0.0009 0.82937 0.0
C1618 C 0.08711 0.99355 0.84616 0.0
C1619 C 0.09457 0.99724 0.90042 0.0
H1620 H 0.04388 0.00937 0.89753 0.0
C1621 C 0.05088 0.01795 0.96617 0.0
C1622 C 0.03265 0.00639 0.96614 0.0
C1623 C 0.06205 0.01592 0.95032 0.0
C1624 C 0.05798 0.00584 0.8985 0.0
H1625 H 0.14174 0.00952 0.84807 0.0
H1626 H 0.12518 0.01082 0.87819 0.0
H1627 H 0.0617 0.00923 0.86851 0.0
H1628 H 0.01187 0.9835 0.94952 0.0
H1629 H 0.03114 0.98052 0.92147 0.0
H1630 H 0.09085 0.99491 0.93087 0.0
C1631 C 0.11696 0.00557 0.86464 0.0
C1632 C 0.06822 0.0056 0.88183 0.0
C1633 C 0.12649 0.00496 0.84737 0.0
C1634 C 0.02589 0.99257 0.95002 0.0
C1635 C 0.03687 0.99088 0.93397 0.0
C1636 C 0.08442 0.99793 0.91723 0.0
C1637 C 0.09708 -1e-05 0.86425 0.0
C1638 C 0.08658 0.00102 0.88242 0.0
C1639 C 0.05499 0.00264 0.93393 0.0
C1640 C 0.06595 0.00199 0.91633 0.0
H1641 H 0.08832 0.98849 0.81535 0.0
H1642 H 0.07193 0.98851 0.84515 0.0
H1643 H 0.10853 0.99342 0.90152 0.0
H1644 H 0.05634 0.02894 0.97821 0.0
H1645 H 0.0759 0.02528 0.95054 0.0
C1646 C 0.77563 0.36722 0.55507 0.0
C1647 C 0.76054 0.37662 0.54998 0.0
C1648 C 0.77824 0.36221 0.57392 0.0
C1649 C 0.76316 0.36765 0.62425 0.0
H1650 H 0.7702 0.31262 0.6232 0.0
C1651 C 0.74928 0.32055 0.68917 0.0
C1652 C 0.76205 0.30787 0.69306 0.0
C1653 C 0.7505 0.33069 0.6725 0.0
C1654 C 0.76852 0.32809 0.62382 0.0
H1655 H 0.73717 0.38956 0.56074 0.0
H1656 H 0.74136 0.38018 0.59387 0.0
H1657 H 0.77069 0.32857 0.59323 0.0
H1658 H 0.78618 0.29588 0.68288 0.0
H1659 H 0.78844 0.3137 0.65378 0.0
H1660 H 0.76066 0.36688 0.65495 0.0
C1661 C 0.75132 0.37693 0.5833 0.0
C1662 C 0.76883 0.33726 0.60664 0.0
C1663 C 0.74887 0.38224 0.56438 0.0
C1664 C 0.77606 0.30546 0.68008 0.0
C1665 C 0.77733 0.31564 0.66344 0.0
C1666 C 0.76285 0.35842 0.64152 0.0
C1667 C 0.76559 0.36616 0.588 0.0
C1668 C 0.76613 0.35712 0.60664 0.0
C1669 C 0.76454 0.32833 0.65947 0.0
C1670 C 0.76546 0.33851 0.64143 0.0
H1671 H 0.78507 0.36312 0.54426 0.0
H1672 H 0.7897 0.35444 0.57727 0.0
H1673 H 0.76114 0.38299 0.62468 0.0
H1674 H 0.73835 0.32263 0.69902 0.0
H1675 H 0.74028 0.34013 0.66967 0.0
C1676 C 0.40919 0.05348 0.34862 0.0
C1677 C 0.41819 0.06073 0.33247 0.0
C1678 C 0.41954 0.05449 0.36645 0.0
C1679 C 0.46913 0.05686 0.3842 0.0
H1680 H 0.44856 0.05952 0.435 0.0
C1681 C 0.51281 0.04822 0.45402 0.0
C1682 C 0.50353 0.03404 0.46546 0.0
C1683 C 0.5027 0.0551 0.43907 0.0
C1684 C 0.45448 0.05882 0.42088 0.0
H1685 H 0.44433 0.07623 0.3224 0.0
H1686 H 0.46212 0.07894 0.35359 0.0
H1687 H 0.42982 0.066 0.40662 0.0
H1688 H 0.47652 0.01593 0.47039 0.0
H1689 H 0.45889 0.0281 0.44455 0.0
H1690 H 0.49364 0.04944 0.39838 0.0
C1691 C 0.44739 0.07172 0.35249 0.0
C1692 C 0.44374 0.06245 0.40464 0.0
C1693 C 0.43718 0.07033 0.33467 0.0
C1694 C 0.484 0.02703 0.4619 0.0
C1695 C 0.47387 0.03407 0.44718 0.0
C1696 C 0.47989 0.05344 0.40042 0.0
C1697 C 0.43895 0.06305 0.36837 0.0
C1698 C 0.45083 0.06119 0.38605 0.0
C1699 C 0.48313 0.04803 0.43551 0.0
C1700 C 0.47255 0.05402 0.41885 0.0
H1701 H 0.39456 0.04588 0.34715 0.0
H1702 H 0.41261 0.04754 0.37833 0.0
H1703 H 0.47493 0.05529 0.37009 0.0
H1704 H 0.52786 0.05386 0.45651 0.0
H1705 H 0.51015 0.0659 0.43026 0.0
C1706 C 0.76269 0.66762 0.05827 0.0
C1707 C 0.76958 0.68145 0.04526 0.0
C1708 C 0.76204 0.67388 0.07804 0.0
C1709 C 0.78275 0.71156 0.11697 0.0
H1710 H 0.73286 0.70672 0.13711 0.0
C1711 C 0.77195 0.75602 0.1883 0.0
C1712 C 0.75881 0.74729 0.20083 0.0
C1713 C 0.77274 0.74713 0.16949 0.0
C1714 C 0.74695 0.7079 0.13192 0.0
H1715 H 0.78205 0.71228 0.04271 0.0
H1716 H 0.78167 0.72299 0.07734 0.0
H1717 H 0.73653 0.69125 0.10462 0.0
H1718 H 0.73591 0.72266 0.20349 0.0
H1719 H 0.73769 0.70658 0.17081 0.0
H1720 H 0.79342 0.72773 0.14416 0.0
C1721 C 0.77649 0.70746 0.07223 0.0
C1722 C 0.74901 0.69905 0.11329 0.0
C1723 C 0.77668 0.70134 0.05246 0.0
C1724 C 0.74606 0.72978 0.19402 0.0
C1725 C 0.74711 0.7206 0.17527 0.0
C1726 C 0.78078 0.72006 0.1357 0.0
C1727 C 0.76876 0.6939 0.08509 0.0
C1728 C 0.76688 0.70113 0.10556 0.0
C1729 C 0.76072 0.72898 0.16286 0.0
C1730 C 0.7628 0.71876 0.1433 0.0
H1731 H 0.75696 0.65224 0.05301 0.0
H1732 H 0.75606 0.66318 0.08776 0.0
H1733 H 0.79669 0.71323 0.11132 0.0
H1734 H 0.78182 0.76966 0.19314 0.0
H1735 H 0.78296 0.75446 0.16022 0.0
C1736 C 0.12347 0.01043 0.71366 0.0
C1737 C 0.1092 0.00999 0.72698 0.0
C1738 C 0.1201 0.01518 0.69458 0.0
C1739 C 0.10084 0.01527 0.65217 0.0
H1740 H 0.08138 0.06454 0.65044 0.0
C1741 C 0.07655 0.04018 0.57906 0.0
C1742 C 0.05933 0.04719 0.57892 0.0
C1743 C 0.08617 0.0383 0.59667 0.0
C1744 C 0.08667 0.05069 0.65059 0.0
H1745 H 0.07979 0.01279 0.7301 0.0
H1746 H 0.07424 0.02126 0.6973 0.0
H1747 H 0.09108 0.05426 0.68165 0.0
H1748 H 0.03914 0.05867 0.59697 0.0
H1749 H 0.05556 0.05504 0.62764 0.0
H1750 H 0.09541 0.01097 0.62127 0.0
C1751 C 0.08804 0.0182 0.70163 0.0
C1752 C 0.09235 0.04489 0.66847 0.0
C1753 C 0.09127 0.01326 0.72044 0.0
C1754 C 0.05246 0.05337 0.59665 0.0
C1755 C 0.06196 0.0513 0.61426 0.0
C1756 C 0.09489 0.02091 0.63423 0.0
C1757 C 0.10252 0.01974 0.68868 0.0
C1758 C 0.09909 0.02693 0.66947 0.0
C1759 C 0.07867 0.0432 0.61453 0.0
C1760 C 0.08729 0.03849 0.63325 0.0
H1761 H 0.13743 0.008 0.71818 0.0
H1762 H 0.13145 0.01615 0.68474 0.0
H1763 H 0.10589 0.00129 0.65259 0.0
H1764 H 0.08221 0.03538 0.56556 0.0
H1765 H 0.0992 0.03246 0.59624 0.0
C1766 C 0.73888 0.38313 0.43368 0.0
C1767 C 0.73231 0.37366 0.4499 0.0
C1768 C 0.74111 0.37173 0.41642 0.0
C1769 C 0.72651 0.32251 0.38913 0.0
H1770 H 0.77572 0.33349 0.36763 0.0
C1771 C 0.74476 0.27228 0.3244 0.0
C1772 C 0.75361 0.28245 0.30959 0.0
C1773 C 0.74368 0.28243 0.34267 0.0
C1774 C 0.76185 0.33033 0.37333 0.0
H1775 H 0.722 0.34515 0.46064 0.0
H1776 H 0.72548 0.32533 0.4304 0.0
H1777 H 0.76902 0.35429 0.39602 0.0
H1778 H 0.76925 0.31076 0.30247 0.0
H1779 H 0.76703 0.32848 0.33396 0.0
H1780 H 0.71907 0.29891 0.36625 0.0
C1781 C 0.72904 0.34145 0.43102 0.0
C1782 C 0.75802 0.34228 0.38954 0.0
C1783 C 0.72709 0.35279 0.44831 0.0
C1784 C 0.76231 0.30254 0.31363 0.0
C1785 C 0.76112 0.31269 0.33177 0.0
C1786 C 0.73025 0.31069 0.37278 0.0
C1787 C 0.7365 0.35078 0.41508 0.0
C1788 C 0.74029 0.33852 0.39753 0.0
C1789 C 0.75133 0.30292 0.34634 0.0
C1790 C 0.74794 0.31451 0.36462 0.0
H1791 H 0.74313 0.39921 0.43463 0.0
H1792 H 0.74674 0.37925 0.40422 0.0
H1793 H 0.71271 0.31935 0.39501 0.0
H1794 H 0.73807 0.25674 0.32167 0.0
H1795 H 0.73641 0.27435 0.35373 0.0
C1796 C 0.41884 0.03629 0.21965 0.0
C1797 C 0.42837 0.02856 0.23458 0.0
C1798 C 0.42566 0.03633 0.20104 0.0
C1799 C 0.45741 0.01387 0.16881 0.0
H1800 H 0.46198 0.06362 0.14498 0.0
C1801 C 0.50048 0.02716 0.10167 0.0
C1802 C 0.49152 0.03517 0.08659 0.0
C1803 C 0.49313 0.02712 0.12002 0.0
C1804 C 0.46066 0.04958 0.15139 0.0
H1805 H 0.45195 0.01389 0.24143 0.0
H1806 H 0.46375 0.01401 0.2091 0.0
H1807 H 0.44684 0.06057 0.17572 0.0
H1808 H 0.46855 0.05027 0.07891 0.0
H1809 H 0.45569 0.05016 0.11089 0.0
H1810 H 0.47124 0.00288 0.14452 0.0
C1811 C 0.45104 0.02003 0.21172 0.0
C1812 C 0.45192 0.04781 0.16892 0.0
C1813 C 0.44433 0.02009 0.2303 0.0
C1814 C 0.47567 0.04393 0.09032 0.0
C1815 C 0.46836 0.04395 0.10865 0.0
C1816 C 0.46614 0.01564 0.15129 0.0
C1817 C 0.44201 0.0285 0.197 0.0
C1818 C 0.45028 0.02996 0.17784 0.0
C1819 C 0.47676 0.03516 0.12357 0.0
C1820 C 0.46792 0.03354 0.14243 0.0
H1821 H 0.4065 0.04292 0.22248 0.0
H1822 H 0.41828 0.04273 0.18987 0.0
H1823 H 0.45615 -0.00014 0.17525 0.0
H1824 H 0.51276 0.02037 0.09912 0.0
H1825 H 0.50007 0.02052 0.13136 0.0
C1826 C 0.76674 0.65735 0.92403 0.0
C1827 C 0.77196 0.669 0.94186 0.0
C1828 C 0.76693 0.66639 0.90661 0.0
C1829 C 0.78979 0.70846 0.88315 0.0
H1830 H 0.74283 0.70501 0.85218 0.0
C1831 C 0.78374 0.75858 0.82081 0.0
C1832 C 0.77067 0.75135 0.80501 0.0
C1833 C 0.78464 0.74759 0.83688 0.0
C1834 C 0.75621 0.70582 0.86032 0.0
H1835 H 0.78179 0.69911 0.95545 0.0
H1836 H 0.7827 0.71472 0.92498 0.0
H1837 H 0.74319 0.6868 0.88087 0.0
H1838 H 0.74833 0.72696 0.79361 0.0
H1839 H 0.75081 0.70714 0.82067 0.0
H1840 H 0.80307 0.72695 0.8625 0.0
C1841 C 0.77823 0.6987 0.92453 0.0
C1842 C 0.75632 0.69545 0.87684 0.0
C1843 C 0.77759 0.68976 0.94193 0.0
C1844 C 0.75882 0.73275 0.80537 0.0
C1845 C 0.76 0.72155 0.82117 0.0
C1846 C 0.78981 0.71849 0.86637 0.0
C1847 C 0.77283 0.68712 0.90675 0.0
C1848 C 0.77305 0.69687 0.8885 0.0
C1849 C 0.77269 0.72894 0.83735 0.0
C1850 C 0.77295 0.71753 0.85481 0.0
H1851 H 0.76232 0.64132 0.92359 0.0
H1852 H 0.76269 0.65721 0.89301 0.0
H1853 H 0.80289 0.70968 0.89194 0.0
H1854 H 0.79294 0.77298 0.82101 0.0
H1855 H 0.79437 0.75404 0.84913 0.0
C1856 C 0.81416 0.08969 0.02701 0.0
C1857 C 0.81836 0.1084 0.01965 0.0
C1858 C 0.82727 0.07678 0.02619 0.0
C1859 C 0.86182 0.06278 0.99529 0.0
H1860 H 0.88904 0.04643 0.03893 0.0
C1861 C 0.93292 0.03759 0.9879 0.0
C1862 C 0.93841 0.02422 0.00032 0.0
C1863 C 0.91563 0.04392 0.98971 0.0
C1864 C 0.88125 0.0504 0.02654 0.0
H1865 H 0.83995 0.12867 0.0067 0.0
H1866 H 0.8625 0.10602 0.00501 0.0
H1867 H 0.8638 0.06556 0.04481 0.0
H1868 H 0.92979 0.00602 0.02358 0.0
H1869 H 0.89923 0.01663 0.02641 0.0
H1870 H 0.87908 0.04786 0.97693 0.0
C1871 C 0.84912 0.10139 0.01136 0.0
C1872 C 0.8669 0.06143 0.02997 0.0
C1873 C 0.83622 0.11435 0.01242 0.0
C1874 C 0.92585 0.01636 0.01382 0.0
C1875 C 0.90846 0.0226 0.01556 0.0
C1876 C 0.87591 0.05153 0.99183 0.0
C1877 C 0.84456 0.08237 0.01777 0.0
C1878 C 0.85754 0.06819 0.01437 0.0
C1879 C 0.90338 0.03689 0.00389 0.0
C1880 C 0.88627 0.04579 0.00743 0.0
H1881 H 0.80051 0.08472 0.03266 0.0
H1882 H 0.82358 0.06214 0.03127 0.0
H1883 H 0.85458 0.06773 0.98305 0.0
H1884 H 0.9424 0.04397 0.97744 0.0
H1885 H 0.91239 0.05515 0.98065 0.0
C1886 C 0.33442 0.40309 0.02003 0.0
C1887 C 0.31786 0.41093 0.0231 0.0
C1888 C 0.35198 0.41569 0.02018 0.0
C1889 C 0.38527 0.44555 0.00947 0.0
H1890 H 0.39934 0.49112 0.04804 0.0
C1891 C 0.45594 0.50096 0.0085 0.0
C1892 C 0.46596 0.50704 0.02651 0.0
C1893 C 0.4373 0.49044 0.00755 0.0
C1894 C 0.39566 0.4784 0.03721 0.0
H1895 H 0.30697 0.43835 0.02894 0.0
H1896 H 0.3377 0.46037 0.02909 0.0
H1897 H 0.36809 0.47016 0.04775 0.0
H1898 H 0.46427 0.5075 0.05774 0.0
H1899 H 0.43188 0.48899 0.05619 0.0
H1900 H 0.413 0.45339 -0.00072 0.0
C1901 C 0.33704 0.4444 0.02672 0.0
C1902 C 0.37766 0.46651 0.03691 0.0
C1903 C 0.31941 0.43176 0.02658 0.0
C1904 C 0.45686 0.50294 0.04362 0.0
C1905 C 0.43826 0.49241 0.04272 0.0
C1906 C 0.40325 0.45743 0.00976 0.0
C1907 C 0.35353 0.43651 0.02337 0.0
C1908 C 0.37232 0.4498 0.02317 0.0
C1909 C 0.42828 0.48587 0.02467 0.0
C1910 C 0.40876 0.47389 0.02375 0.0
H1911 H 0.33386 0.38715 0.01741 0.0
H1912 H 0.36441 0.40907 0.01793 0.0
H1913 H 0.38154 0.43297 -0.00151 0.0
H1914 H 0.46238 0.50461 0.9952 0.0
H1915 H 0.42991 0.48601 0.99341 0.0
C1916 C 0.338 0.58029 0.7373 0.0
C1917 C 0.35687 0.58298 0.74487 0.0
C1918 C 0.32797 0.59613 0.73877 0.0
C1919 C 0.32753 0.64378 0.76822 0.0
H1920 H 0.2964 0.65546 0.725 0.0
C1921 C 0.29998 0.71797 0.76845 0.0
C1922 C 0.28218 0.71816 0.75923 0.0
C1923 C 0.30776 0.7006 0.7673 0.0
C1924 C 0.30477 0.65223 0.73734 0.0
H1925 H 0.38009 0.60457 0.75956 0.0
H1926 H 0.36268 0.63204 0.76211 0.0
H1927 H 0.31256 0.62693 0.72127 0.0
H1928 H 0.25836 0.69987 0.74201 0.0
H1929 H 0.27177 0.66943 0.74035 0.0
H1930 H 0.31977 0.66891 0.78437 0.0
C1931 C 0.35553 0.61767 0.75521 0.0
C1932 C 0.31408 0.63589 0.73516 0.0
C1933 C 0.36557 0.60193 0.75361 0.0
C1934 C 0.27211 0.70032 0.74929 0.0
C1935 C 0.27989 0.68287 0.74818 0.0
C1936 C 0.31814 0.66 0.77045 0.0
C1937 C 0.33655 0.61494 0.74801 0.0
C1938 C 0.3258 0.63165 0.75049 0.0
C1939 C 0.29794 0.68284 0.75697 0.0
C1940 C 0.30684 0.66466 0.75496 0.0
H1941 H 0.33088 0.56587 0.73049 0.0
H1942 H 0.31334 0.59351 0.73314 0.0
H1943 H 0.33614 0.64069 0.78046 0.0
H1944 H 0.30823 0.73141 0.77618 0.0
H1945 H 0.3218 0.70131 0.77402 0.0
C1946 C 0.20432 0.64425 0.51154 0.0
C1947 C 0.21976 0.6347 0.51503 0.0
C1948 C 0.18589 0.63473 0.5141 0.0
C1949 C 0.15769 0.59346 0.5371 0.0
H1950 H 0.12017 0.59604 0.49575 0.0
C1951 C 0.07698 0.56066 0.53828 0.0
C1952 C 0.0685 0.55048 0.52062 0.0
C1953 C 0.0957 0.57106 0.53922 0.0
C1954 C 0.13049 0.59514 0.50741 0.0
H1955 H 0.22787 0.60775 0.5244 0.0
H1956 H 0.19562 0.59108 0.52866 0.0
H1957 H 0.15233 0.6141 0.49449 0.0
H1958 H 0.07341 0.54245 0.49039 0.0
H1959 H 0.10571 0.56037 0.49213 0.0
H1960 H 0.13574 0.57403 0.54973 0.0
C1961 C 0.19786 0.60603 0.52412 0.0
C1962 C 0.14887 0.60566 0.50679 0.0
C1963 C 0.21633 0.61554 0.52153 0.0
C1964 C 0.07931 0.55037 0.50418 0.0
C1965 C 0.09786 0.56071 0.50513 0.0
C1966 C 0.13919 0.58295 0.53776 0.0
C1967 C 0.18243 0.61543 0.52021 0.0
C1968 C 0.16273 0.60483 0.52153 0.0
C1969 C 0.10617 0.57148 0.52252 0.0
C1970 C 0.12549 0.5835 0.52276 0.0
H1971 H 0.2064 0.65904 0.50664 0.0
H1972 H 0.17431 0.64247 0.51121 0.0
H1973 H 0.16805 0.59267 0.54875 0.0
H1974 H 0.06906 0.56099 0.55121 0.0
H1975 H 0.10179 0.57926 0.55283 0.0
C1976 C 0.65194 0.9414 0.7461 0.0
C1977 C 0.65935 0.9613 0.74344 0.0
C1978 C 0.66379 0.92731 0.74637 0.0
C1979 C 0.71274 0.91906 0.73706 0.0
H1980 H 0.70196 0.88198 0.77607 0.0
C1981 C 0.75212 0.85346 0.74508 0.0
C1982 C 0.75323 0.84608 0.76331 0.0
C1983 C 0.74269 0.86928 0.74253 0.0
C1984 C 0.70544 0.89246 0.76536 0.0
H1985 H 0.68472 0.98193 0.73805 0.0
H1986 H 0.7055 0.95765 0.73926 0.0
H1987 H 0.68081 0.90498 0.77049 0.0
H1988 H 0.74705 0.8504 0.79355 0.0
H1989 H 0.73154 0.87886 0.78946 0.0
H1990 H 0.73791 0.90712 0.73264 0.0
C1991 C 0.69052 0.95268 0.7407 0.0
C1992 C 0.693 0.90539 0.76182 0.0
C1993 C 0.67861 0.96666 0.74008 0.0
C1994 C 0.74623 0.85579 0.77933 0.0
C1995 C 0.73714 0.8719 0.77688 0.0
C1996 C 0.72537 0.90632 0.74083 0.0
C1997 C 0.68336 0.93295 0.74438 0.0
C1998 C 0.69641 0.91878 0.74755 0.0
C1999 C 0.73449 0.87825 0.75828 0.0
C2000 C 0.72184 0.89279 0.75499 0.0
H2001 H 0.63708 0.93683 0.74851 0.0
H2002 H 0.65767 0.91212 0.74866 0.0
H2003 H 0.71575 0.92905 0.72584 0.0
H2004 H 0.75732 0.84612 0.73245 0.0
H2005 H 0.74084 0.87359 0.72797 0.0
C2006 C 0.69492 0.90984 0.51818 0.0
C2007 C 0.71212 0.91876 0.52839 0.0
C2008 C 0.67961 0.91983 0.51772 0.0
C2009 C 0.65758 0.95805 0.54266 0.0
H2010 H 0.63462 0.96134 0.49148 0.0
C2011 C 0.5958 0.00117 0.53136 0.0
C2012 C 0.58176 0.99308 0.51663 0.0
C2013 C 0.61239 0.99322 0.53326 0.0
C2014 C 0.64062 0.96034 0.50593 0.0
H2015 H 0.72649 0.94491 0.54673 0.0
H2016 H 0.69935 0.96226 0.54628 0.0
H2017 H 0.66192 0.94508 0.49459 0.0
H2018 H 0.57383 0.97019 0.49254 0.0
H2019 H 0.6023 0.95591 0.49615 0.0
H2020 H 0.63589 0.97265 0.55411 0.0
C2021 C 0.69792 0.94757 0.5385 0.0
C2022 C 0.65637 0.95112 0.50767 0.0
C2023 C 0.71343 0.93767 0.53872 0.0
C2024 C 0.58452 0.97686 0.50391 0.0
C2025 C 0.60095 0.96877 0.50593 0.0
C2026 C 0.64159 0.96705 0.54095 0.0
C2027 C 0.68099 0.93887 0.52766 0.0
C2028 C 0.66491 0.94969 0.52604 0.0
C2029 C 0.6152 0.97687 0.52057 0.0
C2030 C 0.63276 0.96814 0.52254 0.0
H2031 H 0.6934 0.89531 0.51007 0.0
H2032 H 0.66666 0.91268 0.50944 0.0
H2033 H 0.66385 0.95705 0.55701 0.0
H2034 H 0.594 0.01369 0.54138 0.0
H2035 H 0.62308 6e-05 0.54455 0.0
C2036 C 0.37639 0.45802 0.74996 0.0
C2037 C 0.36965 0.47435 0.74298 0.0
C2038 C 0.36471 0.4393 0.74909 0.0
C2039 C 0.31418 0.41448 0.74407 0.0
H2040 H 0.33596 0.36669 0.73573 0.0
C2041 C 0.2692 0.33451 0.73712 0.0
C2042 C 0.27609 0.32105 0.74855 0.0
C2043 C 0.28036 0.35306 0.73491 0.0
C2044 C 0.3297 0.37991 0.73815 0.0
H2045 H 0.34527 0.48357 0.72937 0.0
H2046 H 0.32499 0.45071 0.7274 0.0
H2047 H 0.35571 0.3993 0.73416 0.0
H2048 H 0.30012 0.31629 0.76644 0.0
H2049 H 0.31975 0.34846 0.76227 0.0
H2050 H 0.28809 0.3949 0.74787 0.0
C2051 C 0.33925 0.45252 0.73392 0.0
C2052 C 0.34102 0.39864 0.73733 0.0
C2053 C 0.35092 0.47137 0.73494 0.0
C2054 C 0.29448 0.32631 0.75744 0.0
C2055 C 0.30573 0.34471 0.75502 0.0
C2056 C 0.3028 0.39571 0.74468 0.0
C2057 C 0.34597 0.43624 0.74106 0.0
C2058 C 0.33351 0.41622 0.74059 0.0
C2059 C 0.29874 0.35837 0.74387 0.0
C2060 C 0.3105 0.37823 0.742 0.0
H2061 H 0.39066 0.45974 0.75644 0.0
H2062 H 0.37032 0.42731 0.75513 0.0
H2063 H 0.30792 0.42764 0.74692 0.0
H2064 H 0.25507 0.33084 0.7301 0.0
H2065 H 0.27466 0.36321 0.72611 0.0
C2066 C 0.16733 0.57475 0.25222 0.0
C2067 C 0.14781 0.57372 0.24822 0.0
C2068 C 0.18016 0.592 0.24958 0.0
C2069 C 0.18701 0.63582 0.22255 0.0
H2070 H 0.22309 0.65943 0.26523 0.0
C2071 C 0.22852 0.71663 0.22759 0.0
C2072 C 0.2455 0.72143 0.23921 0.0
C2073 C 0.21846 0.69702 0.22529 0.0
C2074 C 0.21349 0.65284 0.25292 0.0
H2075 H 0.12644 0.58992 0.23826 0.0
H2076 H 0.14903 0.62012 0.23345 0.0
H2077 H 0.2014 0.62862 0.26864 0.0
H2078 H 0.26648 0.70946 0.25567 0.0
H2079 H 0.2496 0.67507 0.25069 0.0
H2080 H 0.19918 0.65995 0.20672 0.0
C2081 C 0.15428 0.60751 0.23864 0.0
C2082 C 0.20093 0.63525 0.255 0.0
C2083 C 0.14138 0.59033 0.24158 0.0
C2084 C 0.25328 0.7061 0.24679 0.0
C2085 C 0.24348 0.68646 0.24413 0.0
C2086 C 0.19979 0.65332 0.22034 0.0
C2087 C 0.17377 0.60846 0.24262 0.0
C2088 C 0.18744 0.62672 0.23995 0.0
C2089 C 0.22543 0.68187 0.23432 0.0
C2090 C 0.21307 0.66219 0.2356 0.0
H2091 H 0.17271 0.5622 0.25738 0.0
H2092 H 0.19512 0.59238 0.25271 0.0
H2093 H 0.17684 0.62935 0.21065 0.0
H2094 H 0.22216 0.72826 0.22174 0.0
H2095 H 0.20461 0.69414 0.21769 0.0
C2096 C 0.5165 0.70295 0.40627 0.0
C2097 C 0.49916 0.70945 0.40815 0.0
C2098 C 0.52019 0.68672 0.41589 0.0
C2099 C 0.50556 0.66342 0.45971 0.0
H2100 H 0.5312 0.62081 0.44109 0.0
C2101 C 0.50414 0.59213 0.49761 0.0
C2102 C 0.52054 0.58366 0.49835 0.0
C2103 C 0.50359 0.6088 0.48752 0.0
C2104 C 0.5243 0.63284 0.44656 0.0
H2105 H 0.47143 0.70313 0.4196 0.0
H2106 H 0.47759 0.67454 0.43577 0.0
H2107 H 0.52552 0.64591 0.41944 0.0
H2108 H 0.54953 0.58657 0.48986 0.0
H2109 H 0.5485 0.6158 0.47224 0.0
H2110 H 0.50407 0.65034 0.48667 0.0
C2111 C 0.48857 0.68226 0.42753 0.0
C2112 C 0.52099 0.64711 0.43415 0.0
C2113 C 0.48498 0.69847 0.41814 0.0
C2114 C 0.53668 0.59278 0.4896 0.0
C2115 C 0.53607 0.60939 0.47935 0.0
C2116 C 0.50884 0.64922 0.47205 0.0
C2117 C 0.50651 0.67686 0.42734 0.0
C2118 C 0.5112 0.66226 0.4405 0.0
C2119 C 0.51938 0.61728 0.47789 0.0
C2120 C 0.5179 0.63356 0.46549 0.0
H2121 H 0.52766 0.71133 0.39872 0.0
H2122 H 0.53411 0.68278 0.41544 0.0
H2123 H 0.49846 0.67529 0.46519 0.0
H2124 H 0.49149 0.58548 0.50423 0.0
H2125 H 0.49048 0.61449 0.48653 0.0
C2126 C 0.5982 0.29927 0.64863 0.0
C2127 C 0.58059 0.30036 0.65628 0.0
C2128 C 0.61407 0.29911 0.66097 0.0
C2129 C 0.63569 0.31299 0.70987 0.0
H2130 H 0.66053 0.26757 0.69981 0.0
C2131 C 0.69474 0.29646 0.76268 0.0
C2132 C 0.70915 0.28767 0.75453 0.0
C2133 C 0.67912 0.29904 0.75097 0.0
C2134 C 0.65405 0.28058 0.70267 0.0
H2135 H 0.56603 0.30303 0.68292 0.0
H2136 H 0.59404 0.30325 0.70453 0.0
H2137 H 0.6336 0.27109 0.67868 0.0
H2138 H 0.71875 0.27495 0.72779 0.0
H2139 H 0.6923 0.28048 0.70726 0.0
H2140 H 0.65643 0.32287 0.73351 0.0
C2141 C 0.59538 0.30231 0.68895 0.0
C2142 C 0.63853 0.28249 0.6906 0.0
C2143 C 0.57938 0.30209 0.67659 0.0
C2144 C 0.7079 0.28189 0.73447 0.0
C2145 C 0.69255 0.28481 0.72273 0.0
C2146 C 0.65147 0.31129 0.72179 0.0
C2147 C 0.61274 0.30041 0.68121 0.0
C2148 C 0.62923 0.29869 0.69408 0.0
C2149 C 0.67776 0.29311 0.73083 0.0
C2150 C 0.66088 0.29506 0.71832 0.0
H2151 H 0.5996 0.29784 0.63306 0.0
H2152 H 0.62736 0.29775 0.65469 0.0
H2153 H 0.62873 0.32566 0.71276 0.0
H2154 H 0.69534 0.30094 0.77815 0.0
H2155 H 0.66793 0.30523 0.7578 0.0
C2156 C 0.9966 0.32871 0.89466 0.0
C2157 C 0.00234 0.31318 0.90404 0.0
C2158 C 0.99359 0.34596 0.90561 0.0
C2159 C 0.00995 0.37672 0.9499 0.0
H2160 H 0.96173 0.39467 0.94962 0.0
C2161 C 0.00142 0.44264 0.00229 0.0
C2162 C 0.99227 0.45695 0.99461 0.0
C2163 C 0.99967 0.42368 0.99244 0.0
C2164 C 0.97533 0.38998 0.94972 0.0
H2165 H 0.00957 0.30342 0.93199 0.0
H2166 H 0.00492 0.33371 0.95091 0.0
H2167 H 0.9653 0.36515 0.92831 0.0
H2168 H 0.9732 0.46255 0.97142 0.0
H2169 H 0.97079 0.42972 0.95367 0.0
H2170 H 0.02042 0.40162 0.97054 0.0
C2171 C 0.0025 0.33246 0.93523 0.0
C2172 C 0.97733 0.37313 0.93753 0.0
C2173 C 0.00514 0.31517 0.92439 0.0
C2174 C 0.98031 0.45166 0.97766 0.0
C2175 C 0.97892 0.43282 0.96752 0.0
C2176 C 0.00808 0.39366 0.96178 0.0
C2177 C 0.99669 0.34795 0.92595 0.0
C2178 C 0.99463 0.36635 0.9377 0.0
C2179 C 0.98922 0.41889 0.97441 0.0
C2180 C 0.99071 0.40042 0.96203 0.0
H2181 H 0.99422 0.32741 0.87898 0.0
H2182 H 0.98918 0.35786 0.89823 0.0
H2183 H 0.02346 0.37178 0.9501 0.0
H2184 H 0.01053 0.44637 0.01551 0.0
H2185 H 0.00724 0.41308 -0.00145 0.0
C2186 C 0.97765 0.76755 0.18535 0.0
C2187 C 0.97735 0.77302 0.16621 0.0
C2188 C 0.9615 0.76678 0.19605 0.0
C2189 C 0.92074 0.79082 0.20033 0.0
H2190 H 0.89745 0.74603 0.22689 0.0
C2191 C 0.84666 0.78677 0.22866 0.0
C2192 C 0.84223 0.7772 0.24542 0.0
C2193 C 0.86409 0.78658 0.22067 0.0
C2194 C 0.90398 0.75883 0.21989 0.0
H2195 H 0.95965 0.78112 0.14304 0.0
H2196 H 0.93171 0.78005 0.16179 0.0
H2197 H 0.92602 0.74392 0.20951 0.0
H2198 H 0.85268 0.76046 0.26738 0.0
H2199 H 0.88354 0.76068 0.2538 0.0
H2200 H 0.89918 0.806 0.21085 0.0
C2201 C 0.94441 0.77639 0.16849 0.0
C2202 C 0.92026 0.75754 0.20986 0.0
C2203 C 0.96039 0.77687 0.15774 0.0
C2204 C 0.85577 0.76794 0.25442 0.0
C2205 C 0.87336 0.76792 0.24652 0.0
C2206 C 0.9047 0.79225 0.21058 0.0
C2207 C 0.94494 0.77178 0.18786 0.0
C2208 C 0.92852 0.77337 0.19966 0.0
C2209 C 0.87765 0.77704 0.22939 0.0
C2210 C 0.89583 0.77613 0.22014 0.0
H2211 H 0.99052 0.7645 0.19226 0.0
H2212 H 0.96222 0.76317 0.21097 0.0
H2213 H 0.92708 0.80339 0.19287 0.0
H2214 H 0.83641 0.79389 0.22134 0.0
H2215 H 0.86665 0.79343 0.20728 0.0
C2216 C 0.5054 0.32441 0.09222 0.0
C2217 C 0.50561 0.32599 0.11264 0.0
C2218 C 0.50843 0.34145 0.08229 0.0
C2219 C 0.52876 0.39458 0.08643 0.0
H2220 H 0.49121 0.39672 0.04493 0.0
C2221 C 0.52467 0.46703 0.0512 0.0
C2222 C 0.51868 0.46592 0.03141 0.0
C2223 C 0.52431 0.44976 0.06059 0.0
C2224 C 0.50204 0.39627 0.05619 0.0
H2225 H 0.5099 0.34669 0.13873 0.0
H2226 H 0.51552 0.37671 0.12123 0.0
H2227 H 0.48869 0.36725 0.06265 0.0
H2228 H 0.5081 0.44566 0.00584 0.0
H2229 H 0.50804 0.41536 0.02208 0.0
H2230 H 0.54237 0.4234 0.07981 0.0
C2231 C 0.51289 0.36216 0.113 0.0
C2232 C 0.50052 0.37941 0.06644 0.0
C2233 C 0.50964 0.34503 0.12299 0.0
C2234 C 0.51271 0.44704 0.02111 0.0
C2235 C 0.51256 0.42968 0.03049 0.0
C2236 C 0.53045 0.41137 0.07601 0.0
C2237 C 0.51193 0.36049 0.09253 0.0
C2238 C 0.51379 0.37844 0.08172 0.0
C2239 C 0.51817 0.43083 0.05042 0.0
C2240 C 0.51702 0.41251 0.06084 0.0
H2241 H 0.50242 0.30997 0.0838 0.0
H2242 H 0.50787 0.33973 0.06654 0.0
H2243 H 0.53931 0.3941 0.098 0.0
H2244 H 0.5292 0.4813 0.05971 0.0
H2245 H 0.52837 0.45134 0.076 0.0
C2246 C 0.9569 0.29712 0.38742 0.0
C2247 C 0.97222 0.29064 0.37849 0.0
C2248 C 0.94081 0.2993 0.37634 0.0
C2249 C 0.92331 0.30656 0.32715 0.0
H2250 H 0.87431 0.28585 0.34567 0.0
C2251 C 0.85249 0.3007 0.28121 0.0
C2252 C 0.83628 0.30298 0.29112 0.0
C2253 C 0.86973 0.30091 0.29156 0.0
C2254 C 0.88785 0.29206 0.34042 0.0
H2255 H 0.98262 0.28163 0.35073 0.0
H2256 H 0.95439 0.28548 0.33135 0.0
H2257 H 0.90297 0.28232 0.36402 0.0
H2258 H 0.82557 0.3085 0.31945 0.0
H2259 H 0.85573 0.30961 0.33751 0.0
H2260 H 0.90815 0.31645 0.30359 0.0
C2261 C 0.95496 0.28891 0.34699 0.0
C2262 C 0.90429 0.28993 0.35092 0.0
C2263 C 0.97107 0.28657 0.35811 0.0
C2264 C 0.83783 0.30657 0.31146 0.0
C2265 C 0.85509 0.307 0.3218 0.0
C2266 C 0.90681 0.30883 0.31667 0.0
C2267 C 0.93961 0.29518 0.35602 0.0
C2268 C 0.92222 0.29719 0.34446 0.0
C2269 C 0.87113 0.30358 0.31203 0.0
C2270 C 0.88885 0.30165 0.32322 0.0
H2271 H 0.95725 0.30048 0.40305 0.0
H2272 H 0.92932 0.30441 0.38371 0.0
H2273 H 0.93693 0.31248 0.3219 0.0
H2274 H 0.85164 0.2978 0.26551 0.0
H2275 H 0.88171 0.29809 0.28352 0.0
C2276 C 0.98344 0.70676 0.61114 0.0
C2277 C 0.98342 0.7212 0.5979 0.0
C2278 C 0.98045 0.68645 0.6044 0.0
C2279 C 0.96527 0.65051 0.56034 0.0
H2280 H 0.00546 0.62445 0.57873 0.0
C2281 C 0.99304 0.58989 0.51323 0.0
C2282 C 0.99777 0.57358 0.52206 0.0
C2283 C 0.98779 0.60579 0.52446 0.0
C2284 C 0.99393 0.63133 0.57365 0.0
H2285 H 0.97865 0.72571 0.56754 0.0
H2286 H 0.9735 0.69061 0.55589 0.0
H2287 H 0.00096 0.65585 0.59572 0.0
H2288 H 0.00046 0.56104 0.54932 0.0
H2289 H 0.99148 0.58879 0.56914 0.0
H2290 H 0.95886 0.62643 0.53771 0.0
C2291 C 0.9758 0.69475 0.57141 0.0
C2292 C 0.99129 0.6493 0.58345 0.0
C2293 C 0.97893 0.71493 0.57808 0.0
C2294 C 0.99702 0.57342 0.54226 0.0
C2295 C 0.99189 0.58934 0.55355 0.0
C2296 C 0.96798 0.63261 0.5505 0.0
C2297 C 0.97715 0.6803 0.58438 0.0
C2298 C 0.97733 0.65942 0.57652 0.0
C2299 C 0.98725 0.60573 0.54476 0.0
C2300 C 0.98271 0.62317 0.5567 0.0
H2301 H 0.98686 0.71118 0.6265 0.0
H2302 H 0.98138 0.67562 0.61476 0.0
H2303 H 0.95418 0.65776 0.55484 0.0
H2304 H 0.99349 0.59042 0.49765 0.0
H2305 H 0.98458 0.61835 0.51728 0.0
C2306 C 0.56578 0.75728 0.84051 0.0
C2307 C 0.5694 0.76344 0.86048 0.0
C2308 C 0.58072 0.7553 0.8286 0.0
C2309 C 0.63157 0.77476 0.82657 0.0
H2310 H 0.63019 0.7318 0.78571 0.0
C2311 C 0.69061 0.77687 0.7734 0.0
C2312 C 0.69818 0.75933 0.7704 0.0
C2313 C 0.67355 0.77665 0.78233 0.0
C2314 C 0.63078 0.74387 0.79709 0.0
H2315 H 0.59144 0.77142 0.88377 0.0
H2316 H 0.61736 0.76781 0.86311 0.0
H2317 H 0.60328 0.73189 0.80617 0.0
H2318 H 0.69317 0.72758 0.77356 0.0
H2319 H 0.66345 0.72726 0.78926 0.0
H2320 H 0.65909 0.78661 0.81787 0.0
C2321 C 0.60304 0.76484 0.85656 0.0
C2322 C 0.61532 0.744 0.8087 0.0
C2323 C 0.58815 0.76678 0.86842 0.0
C2324 C 0.68778 0.74137 0.77565 0.0
C2325 C 0.67068 0.74116 0.7846 0.0
C2326 C 0.64691 0.7747 0.81495 0.0
C2327 C 0.59955 0.75952 0.83644 0.0
C2328 C 0.61564 0.75936 0.8237 0.0
C2329 C 0.66363 0.7589 0.78849 0.0
C2330 C 0.64677 0.75922 0.80013 0.0
H2331 H 0.55147 0.75461 0.83395 0.0
H2332 H 0.57758 0.75123 0.81315 0.0
H2333 H 0.63216 0.78698 0.83781 0.0
H2334 H 0.69812 0.79096 0.7694 0.0
H2335 H 0.66831 0.79051 0.78479 0.0
C2336 C 0.43369 0.56003 0.69439 0.0
C2337 C 0.41563 0.54876 0.69615 0.0
C2338 C 0.44074 0.56244 0.6761 0.0
C2339 C 0.43926 0.53394 0.62995 0.0
H2340 H 0.468 0.58218 0.61297 0.0
C2341 C 0.48182 0.53009 0.56167 0.0
C2342 C 0.49935 0.54299 0.56192 0.0
C2343 C 0.46913 0.53281 0.57594 0.0
C2344 C 0.46022 0.56852 0.61756 0.0
H2345 H 0.39041 0.53186 0.68026 0.0
H2346 H 0.40301 0.53558 0.64806 0.0
H2347 H 0.44967 0.58423 0.64172 0.0
H2348 H 0.51744 0.56883 0.57739 0.0
H2349 H 0.49585 0.57301 0.60297 0.0
H2350 H 0.45066 0.51794 0.6069 0.0
C2351 C 0.41154 0.54281 0.66089 0.0
C2352 C 0.44955 0.56976 0.63392 0.0
C2353 C 0.4043 0.5408 0.67924 0.0
C2354 C 0.50395 0.55873 0.57675 0.0
C2355 C 0.49143 0.56121 0.59133 0.0
C2356 C 0.45018 0.53263 0.61384 0.0
C2357 C 0.43003 0.55321 0.65921 0.0
C2358 C 0.43916 0.55245 0.64041 0.0
C2359 C 0.47387 0.54818 0.59124 0.0
C2360 C 0.46106 0.54987 0.60753 0.0
H2361 H 0.44272 0.56625 0.70725 0.0
H2362 H 0.45508 0.57039 0.67527 0.0
H2363 H 0.43166 0.52031 0.63483 0.0
H2364 H 0.47803 0.5176 0.55067 0.0
H2365 H 0.45567 0.52266 0.57503 0.0
C2366 C 0.76279 0.13747 0.94298 0.0
C2367 C 0.77732 0.1479 0.95618 0.0
C2368 C 0.75928 0.14496 0.92521 0.0
C2369 C 0.78001 0.18001 0.89124 0.0
H2370 H 0.7305 0.1948 0.8862 0.0
C2371 C 0.76877 0.24579 0.8499 0.0
C2372 C 0.75235 0.24371 0.83762 0.0
C2373 C 0.77064 0.23155 0.86275 0.0
C2374 C 0.74427 0.19049 0.88716 0.0
H2375 H 0.80025 0.17332 0.96109 0.0
H2376 H 0.79459 0.18597 0.92997 0.0
H2377 H 0.73652 0.17177 0.90985 0.0
H2378 H 0.72468 0.22569 0.82953 0.0
H2379 H 0.72796 0.20067 0.85197 0.0
H2380 H 0.788 0.19904 0.86899 0.0
C2381 C 0.7858 0.17222 0.93322 0.0
C2382 C 0.74767 0.17724 0.90061 0.0
C2383 C 0.78898 0.16507 0.95103 0.0
C2384 C 0.73745 0.22767 0.83897 0.0
C2385 C 0.73935 0.21334 0.85177 0.0
C2386 C 0.7766 0.19312 0.87774 0.0
C2387 C 0.77062 0.16258 0.92038 0.0
C2388 C 0.76576 0.17247 0.90321 0.0
C2389 C 0.75617 0.21488 0.86343 0.0
C2390 C 0.75891 0.19909 0.87607 0.0
H2391 H 0.75354 0.12429 0.94686 0.0
H2392 H 0.74745 0.13735 0.9155 0.0
H2393 H 0.79403 0.1764 0.89291 0.0
H2394 H 0.78045 0.25806 0.84914 0.0
H2395 H 0.78357 0.23345 0.87193 0.0
C2396 C 0.10298 0.48119 0.18566 0.0
C2397 C 0.10488 0.50116 0.1934 0.0
C2398 C 0.09617 0.47558 0.16628 0.0
C2399 C 0.08782 0.49612 0.11975 0.0
H2400 H 0.04018 0.45868 0.11395 0.0
C2401 C 0.03854 0.49708 0.05418 0.0
C2402 C 0.01965 0.49718 0.05809 0.0
C2403 C 0.05063 0.49029 0.06724 0.0
C2404 C 0.0535 0.46911 0.11529 0.0
H2405 H 0.10233 0.53105 0.18721 0.0
H2406 H 0.09103 0.52151 0.15345 0.0
H2407 H 0.06065 0.46115 0.14365 0.0
H2408 H 0.99809 0.48943 0.07829 0.0
H2409 H 0.01959 0.47904 0.10222 0.0
H2410 H 0.08025 0.50559 0.09255 0.0
C2411 C 0.09465 0.51011 0.16211 0.0
C2412 C 0.06534 0.47027 0.13215 0.0
C2413 C 0.10102 0.51558 0.18142 0.0
C2414 C 0.01268 0.48952 0.075 0.0
C2415 C 0.025 0.48337 0.08857 0.0
C2416 C 0.07601 0.49509 0.10306 0.0
C2417 C 0.0917 0.49001 0.15446 0.0
C2418 C 0.08216 0.48449 0.13487 0.0
C2419 C 0.04432 0.48435 0.0851 0.0
C2420 C 0.0583 0.48218 0.10094 0.0
H2421 H 0.10574 0.46985 0.19485 0.0
H2422 H 0.09394 0.45999 0.16068 0.0
H2423 H 0.1008 0.5071 0.12146 0.0
H2424 H 0.04413 0.50282 0.04123 0.0
H2425 H 0.0652 0.49067 0.06369 0.0
C2426 C 0.75682 0.85248 0.46683 0.0
C2427 C 0.76071 0.8733 0.4712 0.0
C2428 C 0.75902 0.84396 0.4482 0.0
C2429 C 0.78466 0.8469 0.40613 0.0
H2430 H 0.73882 0.819 0.37704 0.0
C2431 C 0.78463 0.81102 0.32681 0.0
C2432 C 0.77097 0.79394 0.32085 0.0
C2433 C 0.78441 0.82126 0.34522 0.0
C2434 C 0.75183 0.8264 0.38503 0.0
H2435 H 0.77047 0.90155 0.45971 0.0
H2436 H 0.77488 0.8864 0.42698 0.0
H2437 H 0.73682 0.8363 0.40899 0.0
H2438 H 0.7471 0.77344 0.32976 0.0
H2439 H 0.74729 0.79052 0.36215 0.0
H2440 H 0.79986 0.83628 0.38273 0.0
C2441 C 0.76989 0.87685 0.43806 0.0
C2442 C 0.7506 0.8365 0.40322 0.0
C2443 C 0.76731 0.88546 0.45668 0.0
C2444 C 0.75766 0.78672 0.33391 0.0
C2445 C 0.75767 0.79668 0.35243 0.0
C2446 C 0.78596 0.83645 0.38804 0.0
C2447 C 0.76552 0.85605 0.4337 0.0
C2448 C 0.76698 0.84673 0.41391 0.0
C2449 C 0.77071 0.8144 0.35817 0.0
C2450 C 0.76955 0.8259 0.3773 0.0
H2451 H 0.75167 0.84273 0.4777 0.0
H2452 H 0.75559 0.82788 0.44508 0.0
H2453 H 0.79748 0.8546 0.41431 0.0
H2454 H 0.79496 0.81701 0.31694 0.0
H2455 H 0.79456 0.83492 0.34897 0.0
C2456 C 0.39276 0.52497 0.8107 0.0
C2457 C 0.40355 0.5294 0.79468 0.0
C2458 C 0.40115 0.51922 0.8275 0.0
C2459 C 0.44794 0.52326 0.85324 0.0
H2460 H 0.42346 0.48017 0.8813 0.0
C2461 C 0.48828 0.49718 0.91618 0.0
C2462 C 0.47872 0.49471 0.93328 0.0
C2463 C 0.47834 0.49868 0.89871 0.0
C2464 C 0.43041 0.49232 0.87368 0.0
H2465 H 0.43145 0.53092 0.78357 0.0
H2466 H 0.44592 0.52086 0.8126 0.0
H2467 H 0.40724 0.48885 0.85219 0.0
H2468 H 0.45119 0.49067 0.94537 0.0
H2469 H 0.43378 0.49355 0.91484 0.0
H2470 H 0.47095 0.52701 0.87464 0.0
C2471 C 0.43109 0.52206 0.81239 0.0
C2472 C 0.42111 0.49731 0.85705 0.0
C2473 C 0.42275 0.52774 0.79569 0.0
C2474 C 0.4589 0.49253 0.93236 0.0
C2475 C 0.44893 0.49415 0.91486 0.0
C2476 C 0.45718 0.51831 0.86978 0.0
C2477 C 0.42047 0.5179 0.82857 0.0
C2478 C 0.42985 0.51276 0.84657 0.0
C2479 C 0.45864 0.49793 0.89799 0.0
C2480 C 0.44863 0.5027 0.88016 0.0
H2481 H 0.37791 0.52606 0.8103 0.0
H2482 H 0.39262 0.51623 0.83977 0.0
H2483 H 0.4549 0.53552 0.84576 0.0
H2484 H 0.50355 0.49877 0.91647 0.0
H2485 H 0.4862 0.50109 0.88587 0.0
C2486 C 0.79138 0.20363 0.05941 0.0
C2487 C 0.78565 0.18281 0.05628 0.0
C2488 C 0.79147 0.21351 0.07793 0.0
C2489 C 0.76579 0.20912 0.12137 0.0
H2490 H 0.80557 0.25149 0.14491 0.0
C2491 C 0.76358 0.246 0.19904 0.0
C2492 C 0.77208 0.26612 0.20339 0.0
C2493 C 0.7647 0.23627 0.18067 0.0
C2494 C 0.79418 0.23994 0.13837 0.0
H2495 H 0.77646 0.15585 0.07017 0.0
H2496 H 0.7764 0.17325 0.10268 0.0
H2497 H 0.81049 0.23282 0.11443 0.0
H2498 H 0.78727 0.29227 0.19171 0.0
H2499 H 0.78868 0.27545 0.15926 0.0
H2500 H 0.74921 0.2165 0.14485 0.0
C2501 C 0.78082 0.18184 0.09073 0.0
C2502 C 0.79711 0.22914 0.12104 0.0
C2503 C 0.78102 0.1719 0.07221 0.0
C2504 C 0.78074 0.27669 0.18873 0.0
C2505 C 0.7817 0.26699 0.17024 0.0
C2506 C 0.76276 0.22007 0.13856 0.0
C2507 C 0.78559 0.20277 0.09361 0.0
C2508 C 0.78298 0.21358 0.11246 0.0
C2509 C 0.77414 0.24652 0.16618 0.0
C2510 C 0.77695 0.23556 0.14733 0.0
H2511 H 0.79509 0.21239 0.04738 0.0
H2512 H 0.79515 0.22965 0.07977 0.0
H2513 H 0.75452 0.19745 0.11479 0.0
H2514 H 0.7568 0.23748 0.21008 0.0
H2515 H 0.75887 0.22048 0.17818 0.0
C2516 C 0.11814 0.51629 0.31513 0.0
C2517 C 0.11013 0.51883 0.29687 0.0
C2518 C 0.10788 0.51796 0.33167 0.0
C2519 C 0.05848 0.51433 0.34559 0.0
H2520 H 0.08286 0.53344 0.39659 0.0
C2521 C 0.01982 0.52288 0.41746 0.0
C2522 C 0.02786 0.51488 0.43315 0.0
C2523 C 0.02877 0.52374 0.39993 0.0
C2524 C 0.07591 0.52803 0.38241 0.0
H2525 H 0.0857 0.52631 0.2816 0.0
H2526 H 0.06811 0.52995 0.31051 0.0
H2527 H 0.10134 0.53631 0.36797 0.0
H2528 H 0.05076 0.50047 0.44266 0.0
H2529 H 0.06638 0.50211 0.41218 0.0
H2530 H 0.03299 0.50627 0.36023 0.0
C2531 C 0.08199 0.52599 0.31205 0.0
C2532 C 0.08648 0.52961 0.36604 0.0
C2533 C 0.09213 0.52405 0.29551 0.0
C2534 C 0.04437 0.50688 0.43082 0.0
C2535 C 0.05336 0.5079 0.41345 0.0
C2536 C 0.04786 0.513 0.36198 0.0
C2537 C 0.08954 0.52248 0.33025 0.0
C2538 C 0.07798 0.52244 0.34747 0.0
C2539 C 0.04591 0.51678 0.39806 0.0
C2540 C 0.0566 0.51948 0.38052 0.0
H2541 H 0.13197 0.51216 0.31653 0.0
H2542 H 0.11406 0.51491 0.34541 0.0
H2543 H 0.05152 0.50839 0.33154 0.0
H2544 H 0.00708 0.52913 0.41896 0.0
H2545 H 0.02277 0.53059 0.38818 0.0
C2546 C 0.74167 0.83572 0.57098 0.0
C2547 C 0.74673 0.85637 0.56974 0.0
C2548 C 0.73703 0.8283 0.58859 0.0
C2549 C 0.74691 0.83996 0.64076 0.0
H2550 H 0.70834 0.79284 0.64282 0.0
C2551 C 0.73945 0.79756 0.70955 0.0
C2552 C 0.73754 0.77678 0.70616 0.0
C2553 C 0.73733 0.80913 0.69417 0.0
C2554 C 0.7192 0.80595 0.64249 0.0
H2555 H 0.75028 0.88549 0.586 0.0
H2556 H 0.74232 0.87238 0.61716 0.0
H2557 H 0.71004 0.8104 0.61357 0.0
H2558 H 0.7309 0.75154 0.68426 0.0
H2559 H 0.72739 0.7716 0.65727 0.0
H2560 H 0.75654 0.83509 0.66939 0.0
C2561 C 0.74198 0.86201 0.60432 0.0
C2562 C 0.72013 0.81607 0.62576 0.0
C2563 C 0.74644 0.86951 0.5865 0.0
C2564 C 0.73253 0.76759 0.68725 0.0
C2565 C 0.73045 0.77911 0.67182 0.0
C2566 C 0.746 0.82981 0.65751 0.0
C2567 C 0.73741 0.84129 0.60555 0.0
C2568 C 0.73435 0.83282 0.62448 0.0
C2569 C 0.73312 0.80007 0.67504 0.0
C2570 C 0.73248 0.81234 0.65835 0.0
H2571 H 0.7416 0.82516 0.55833 0.0
H2572 H 0.73384 0.81227 0.58905 0.0
H2573 H 0.75812 0.85271 0.64017 0.0
H2574 H 0.74232 0.80483 0.7241 0.0
H2575 H 0.73901 0.82517 0.69726 0.0
C2576 C 0.69174 0.42811 0.52135 0.0
C2577 C 0.71105 0.43534 0.51955 0.0
C2578 C 0.67962 0.44123 0.52665 0.0
C2579 C 0.65786 0.47129 0.54527 0.0
H2580 H 0.66251 0.51816 0.51685 0.0
C2581 C 0.60201 0.52177 0.54905 0.0
C2582 C 0.59494 0.52531 0.53067 0.0
C2583 C 0.61891 0.51448 0.55096 0.0
C2584 C 0.66109 0.50521 0.52498 0.0
H2585 H 0.73298 0.46185 0.52277 0.0
H2586 H 0.71179 0.48475 0.53213 0.0
H2587 H 0.68658 0.4972 0.51471 0.0
H2588 H 0.60039 0.52526 0.50012 0.0
H2589 H 0.62979 0.51251 0.50338 0.0
H2590 H 0.63186 0.47869 0.5547 0.0
C2591 C 0.706 0.46897 0.5292 0.0
C2592 C 0.67497 0.49329 0.52391 0.0
C2593 C 0.71814 0.45584 0.52392 0.0
C2594 C 0.60557 0.52266 0.51446 0.0
C2595 C 0.62246 0.51544 0.51636 0.0
C2596 C 0.644 0.48322 0.54636 0.0
C2597 C 0.68655 0.46185 0.53026 0.0
C2598 C 0.67324 0.47591 0.53363 0.0
C2599 C 0.62903 0.5107 0.53453 0.0
C2600 C 0.64521 0.50001 0.53581 0.0
H2601 H 0.68587 0.41239 0.51809 0.0
H2602 H 0.66466 0.43529 0.52712 0.0
H2603 H 0.65627 0.45813 0.55311 0.0
H2604 H 0.59407 0.52373 0.56179 0.0
H2605 H 0.62375 0.5112 0.56518 0.0
C2606 C 0.19074 0.13552 0.48838 0.0
C2607 C 0.20744 0.12863 0.48378 0.0
C2608 C 0.17405 0.12201 0.49023 0.0
C2609 C 0.14816 0.07215 0.47528 0.0
H2610 H 0.12301 0.07841 0.52325 0.0
C2611 C 0.07747 0.02072 0.48787 0.0
C2612 C 0.06389 0.0303 0.49671 0.0
C2613 C 0.09626 0.0307 0.48769 0.0
C2614 C 0.12969 0.07654 0.50967 0.0
H2615 H 0.21953 0.10217 0.47677 0.0
H2616 H 0.19007 0.07857 0.47944 0.0
H2617 H 0.15282 0.10035 0.51897 0.0
H2618 H 0.05935 0.05756 0.51277 0.0
H2619 H 0.09158 0.07504 0.512 0.0
H2620 H 0.12464 0.04902 0.4655 0.0
C2621 C 0.19008 0.09443 0.48187 0.0
C2622 C 0.14682 0.08908 0.50728 0.0
C2623 C 0.2069 0.10794 0.48039 0.0
C2624 C 0.06951 0.04973 0.5059 0.0
C2625 C 0.08813 0.05973 0.50557 0.0
C2626 C 0.13081 0.05979 0.47751 0.0
C2627 C 0.17361 0.10136 0.48716 0.0
C2628 C 0.15606 0.0872 0.48997 0.0
C2629 C 0.10174 0.05051 0.49624 0.0
C2630 C 0.12117 0.06206 0.49462 0.0
H2631 H 0.19069 0.15134 0.49118 0.0
H2632 H 0.16147 0.12771 0.49416 0.0
H2633 H 0.15504 0.07044 0.46178 0.0
H2634 H 0.0735 0.00571 0.48073 0.0
H2635 H 0.1064 0.02299 0.48064 0.0
C2636 C 0.15822 0.9408 0.77125 0.0
C2637 C 0.16517 0.9602 0.76649 0.0
C2638 C 0.16894 0.92571 0.76846 0.0
C2639 C 0.2062 0.90906 0.7407 0.0
H2640 H 0.21439 0.87946 0.78472 0.0
C2641 C 0.23413 0.83395 0.73608 0.0
C2642 C 0.24813 0.83206 0.75033 0.0
C2643 C 0.2255 0.8508 0.73701 0.0
C2644 C 0.21232 0.88767 0.77234 0.0
H2645 H 0.18858 0.9788 0.75448 0.0
H2646 H 0.2071 0.95217 0.74906 0.0
H2647 H 0.1958 0.90612 0.78808 0.0
H2648 H 0.26426 0.84659 0.77656 0.0
H2649 H 0.24892 0.87583 0.77835 0.0
H2650 H 0.22234 0.89019 0.72482 0.0
C2651 C 0.19342 0.94878 0.75515 0.0
C2652 C 0.20156 0.90281 0.77421 0.0
C2653 C 0.18284 0.96401 0.75829 0.0
C2654 C 0.25365 0.84765 0.76526 0.0
C2655 C 0.24477 0.86432 0.76638 0.0
C2656 C 0.21667 0.89362 0.73871 0.0
C2657 C 0.18671 0.92956 0.76052 0.0
C2658 C 0.19837 0.91366 0.75842 0.0
C2659 C 0.23042 0.86595 0.75241 0.0
C2660 C 0.21986 0.88278 0.75453 0.0
H2661 H 0.1447 0.93738 0.77765 0.0
H2662 H 0.16335 0.91099 0.77258 0.0
H2663 H 0.2039 0.91714 0.72828 0.0
H2664 H 0.22954 0.8222 0.72441 0.0
H2665 H 0.21442 0.8516 0.7261 0.0
C2666 C 0.31235 0.89961 0.97618 0.0
C2667 C 0.29697 0.90935 0.97945 0.0
C2668 C 0.33079 0.91054 0.97701 0.0
C2669 C 0.3678 0.93836 0.97135 0.0
H2670 H 0.38053 0.98118 0.01306 0.0
C2671 C 0.4396 0.99228 0.9786 0.0
C2672 C 0.44835 0.99758 0.9974 0.0
C2673 C 0.42107 0.98167 0.97596 0.0
C2674 C 0.37725 0.96918 0.00144 0.0
H2675 H 0.28882 0.93832 0.98499 0.0
H2676 H 0.32085 0.9573 0.98609 0.0
H2677 H 0.3484 0.96215 0.00864 0.0
H2678 H 0.44441 0.9959 0.02819 0.0
H2679 H 0.41214 0.97717 0.02353 0.0
H2680 H 0.39681 0.94506 0.9645 0.0
C2681 C 0.31873 0.94119 0.98339 0.0
C2682 C 0.35877 0.95844 -0.00127 0.0
C2683 C 0.30035 0.9303 0.98264 0.0
C2684 C 0.43809 0.99214 0.01351 0.0
C2685 C 0.41955 0.98147 0.01085 0.0
C2686 C 0.3863 0.94909 0.97408 0.0
C2687 C 0.3342 0.93142 0.98104 0.0
C2688 C 0.35382 0.94293 0.98364 0.0
C2689 C 0.41087 0.97606 0.99204 0.0
C2690 C 0.39123 0.96462 0.98916 0.0
H2691 H 0.31026 0.88349 0.97372 0.0
H2692 H 0.34243 0.90255 0.97524 0.0
H2693 H 0.36441 0.92658 0.95953 0.0
H2694 H 0.44702 0.99631 0.96585 0.0
H2695 H 0.41468 0.97802 0.9613 0.0
C2696 C 0.86382 0.59378 0.758 0.0
C2697 C 0.85824 0.57325 0.7594 0.0
C2698 C 0.85062 0.60511 0.75202 0.0
C2699 C 0.82106 0.62459 0.73203 0.0
H2700 H 0.77365 0.615 0.75725 0.0
C2701 C 0.76613 0.67517 0.7234 0.0
C2702 C 0.76016 0.68261 0.74118 0.0
C2703 C 0.77531 0.65877 0.72252 0.0
C2704 C 0.78677 0.61779 0.75002 0.0
H2705 H 0.83476 0.54825 0.75453 0.0
H2706 H 0.81183 0.56798 0.74394 0.0
H2707 H 0.79629 0.59278 0.76097 0.0
H2708 H 0.75789 0.6781 0.77167 0.0
H2709 H 0.77391 0.64951 0.77018 0.0
H2710 H 0.81192 0.65017 0.72186 0.0
C2711 C 0.82629 0.57539 0.7478 0.0
C2712 C 0.79968 0.60496 0.752 0.0
C2713 C 0.83946 0.56409 0.75379 0.0
C2714 C 0.76232 0.6726 0.75776 0.0
C2715 C 0.77146 0.65619 0.75688 0.0
C2716 C 0.80813 0.6374 0.73002 0.0
C2717 C 0.83161 0.5961 0.7473 0.0
C2718 C 0.81714 0.60847 0.74335 0.0
C2719 C 0.77861 0.64952 0.73939 0.0
C2720 C 0.79102 0.63437 0.73934 0.0
H2721 H 0.8782 0.60124 0.76223 0.0
H2722 H 0.85513 0.62107 0.75194 0.0
H2723 H 0.83431 0.62755 0.72504 0.0
H2724 H 0.76459 0.68263 0.71039 0.0
H2725 H 0.78042 0.65377 0.70879 0.0
C2726 C 0.80906 0.6022 0.00691 0.0
C2727 C 0.81224 0.62212 0.00241 0.0
C2728 C 0.82426 0.59223 0.0095 0.0
C2729 C 0.87328 0.59352 0.99577 0.0
H2730 H 0.87576 0.5577 0.03588 0.0
C2731 C 0.92837 0.54191 0.99652 0.0
C2732 C 0.93777 0.54083 0.01453 0.0
C2733 C 0.91254 0.55112 0.99553 0.0
C2734 C 0.87531 0.56773 0.02466 0.0
H2735 H 0.83387 0.64737 0.99768 0.0
H2736 H 0.86032 0.63005 0.00231 0.0
H2737 H 0.84946 0.57587 0.03399 0.0
H2738 H 0.93784 0.54812 0.04567 0.0
H2739 H 0.91015 0.56428 0.04397 0.0
H2740 H 0.89919 0.58564 0.98656 0.0
C2741 C 0.84609 0.62203 0.00358 0.0
C2742 C 0.86016 0.578 0.02347 0.0
C2743 C 0.83093 0.632 0.00104 0.0
C2744 C 0.9308 0.5487 0.03159 0.0
C2745 C 0.91492 0.55788 0.03062 0.0
C2746 C 0.88835 0.58321 0.9969 0.0
C2747 C 0.84293 0.60195 0.00757 0.0
C2748 C 0.85901 0.59105 0.00903 0.0
C2749 C 0.90575 0.55942 0.01254 0.0
C2750 C 0.88955 0.57019 0.01135 0.0
H2751 H 0.79482 0.59417 0.00805 0.0
H2752 H 0.82133 0.57673 0.01243 0.0
H2753 H 0.87271 0.60328 0.98432 0.0
H2754 H 0.93345 0.53595 0.98313 0.0
H2755 H 0.90564 0.55179 0.98141 0.0
C2756 C 0.14542 0.08401 0.79016 0.0
C2757 C 0.15296 0.06686 0.79333 0.0
C2758 C 0.15737 0.1023 0.78902 0.0
C2759 C 0.20332 0.13235 0.80347 0.0
H2760 H 0.19869 0.15588 0.75489 0.0
C2761 C 0.2564 0.20179 0.78611 0.0
C2762 C 0.24987 0.2152 0.77436 0.0
C2763 C 0.24471 0.18377 0.78903 0.0
C2764 C 0.2 0.14984 0.76874 0.0
H2765 H 0.17895 0.05569 0.79863 0.0
H2766 H 0.19984 0.08798 0.79729 0.0
H2767 H 0.17782 0.12488 0.75988 0.0
H2768 H 0.22604 0.22026 0.75642 0.0
H2769 H 0.20522 0.1897 0.76253 0.0
H2770 H 0.22494 0.15757 0.81278 0.0
C2771 C 0.18465 0.08706 0.79543 0.0
C2772 C 0.18809 0.13195 0.77149 0.0
C2773 C 0.17271 0.06862 0.79614 0.0
C2774 C 0.23139 0.21034 0.76574 0.0
C2775 C 0.21954 0.19257 0.76902 0.0
C2776 C 0.21499 0.15051 0.80092 0.0
C2777 C 0.17708 0.10395 0.79145 0.0
C2778 C 0.18968 0.12302 0.78883 0.0
C2779 C 0.22606 0.17888 0.78056 0.0
C2780 C 0.21355 0.15954 0.78347 0.0
H2781 H 0.13029 0.08316 0.7878 0.0
H2782 H 0.15121 0.11516 0.78601 0.0
H2783 H 0.20472 0.12576 0.81703 0.0
H2784 H 0.27067 0.20509 0.7928 0.0
H2785 H 0.25047 0.17356 0.79768 0.0
C2786 C 0.36408 0.98199 0.29664 0.0
C2787 C 0.38262 0.98606 0.30528 0.0
C2788 C 0.35164 0.96466 0.29976 0.0
C2789 C 0.35104 0.91377 0.31305 0.0
H2790 H 0.29694 0.91312 0.31226 0.0
C2791 C 0.29656 0.84036 0.30858 0.0
C2792 C 0.28368 0.83842 0.29229 0.0
C2793 C 0.30755 0.85894 0.31516 0.0
C2794 C 0.31202 0.91311 0.31265 0.0
H2795 H 0.40241 0.97526 0.32448 0.0
H2796 H 0.38047 0.94493 0.33014 0.0
H2797 H 0.3189 0.94497 0.31516 0.0
H2798 H 0.27134 0.85452 0.27091 0.0
H2799 H 0.29025 0.88697 0.28262 0.0
H2800 H 0.34403 0.88184 0.31018 0.0
C2801 C 0.37572 0.95512 0.3207 0.0
C2802 C 0.32461 0.93131 0.31421 0.0
C2803 C 0.38828 0.97251 0.31749 0.0
C2804 C 0.2812 0.85556 0.28344 0.0
C2805 C 0.29194 0.87415 0.29022 0.0
C2806 C 0.33844 0.89556 0.31172 0.0
C2807 C 0.35729 0.95094 0.31174 0.0
C2808 C 0.34423 0.93185 0.31367 0.0
C2809 C 0.30557 0.87592 0.3058 0.0
C2810 C 0.3188 0.89507 0.31084 0.0
H2811 H 0.35919 0.99201 0.2871 0.0
H2812 H 0.33774 0.96177 0.29224 0.0
H2813 H 0.36602 0.91359 0.31243 0.0
H2814 H 0.29885 0.82738 0.31563 0.0
H2815 H 0.31793 0.85995 0.32724 0.0
C2816 C 0.53555 0.34004 0.60603 0.0
C2817 C 0.52398 0.33656 0.62159 0.0
C2818 C 0.53515 0.35664 0.59583 0.0
C2819 C 0.51691 0.40438 0.59607 0.0
H2820 H 0.52045 0.39485 0.54029 0.0
C2821 C 0.49759 0.45791 0.54176 0.0
C2822 C 0.51289 0.46554 0.53103 0.0
C2823 C 0.49831 0.44141 0.55209 0.0
C2824 C 0.51946 0.39765 0.55585 0.0
H2825 H 0.50346 0.34788 0.6393 0.0
H2826 H 0.50206 0.37655 0.62098 0.0
H2827 H 0.52379 0.36847 0.56096 0.0
H2828 H 0.54036 0.46123 0.52162 0.0
H2829 H 0.54128 0.43187 0.53921 0.0
H2830 H 0.51188 0.43341 0.59061 0.0
C2831 C 0.51187 0.36682 0.61691 0.0
C2832 C 0.52156 0.38267 0.56776 0.0
C2833 C 0.51263 0.35041 0.62742 0.0
C2834 C 0.5284 0.45566 0.52982 0.0
C2835 C 0.52893 0.4389 0.53983 0.0
C2836 C 0.51444 0.41922 0.58409 0.0
C2837 C 0.52276 0.36982 0.60063 0.0
C2838 C 0.5205 0.38589 0.58806 0.0
C2839 C 0.51414 0.43205 0.55148 0.0
C2840 C 0.51582 0.41598 0.56392 0.0
H2841 H 0.5446 0.32965 0.60144 0.0
H2842 H 0.54422 0.35881 0.58384 0.0
H2843 H 0.51626 0.40752 0.61162 0.0
H2844 H 0.48552 0.46532 0.54305 0.0
H2845 H 0.48671 0.43623 0.56091 0.0
C2846 C 0.42759 0.76259 0.37377 0.0
C2847 C 0.44496 0.76263 0.36523 0.0
C2848 C 0.4111 0.76252 0.36232 0.0
C2849 C 0.39001 0.75337 0.3116 0.0
H2850 H 0.356 0.78722 0.33182 0.0
C2851 C 0.32966 0.77575 0.26493 0.0
C2852 C 0.3123 0.77566 0.27343 0.0
C2853 C 0.34542 0.77244 0.27589 0.0
C2854 C 0.36523 0.77751 0.32608 0.0
H2855 H 0.45854 0.76223 0.33788 0.0
H2856 H 0.42975 0.76258 0.31786 0.0
H2857 H 0.38446 0.78482 0.35119 0.0
H2858 H 0.29765 0.77183 0.29983 0.0
H2859 H 0.32519 0.7661 0.3191 0.0
H2860 H 0.37084 0.74651 0.28625 0.0
C2861 C 0.42885 0.76226 0.33342 0.0
C2862 C 0.38154 0.77609 0.33718 0.0
C2863 C 0.44538 0.76215 0.3449 0.0
C2864 C 0.31086 0.77193 0.29297 0.0
C2865 C 0.32665 0.76877 0.30399 0.0
C2866 C 0.37371 0.75492 0.30042 0.0
C2867 C 0.41155 0.7627 0.34204 0.0
C2868 C 0.39414 0.76399 0.33012 0.0
C2869 C 0.34414 0.76916 0.2956 0.0
C2870 C 0.36117 0.767 0.30756 0.0
H2871 H 0.42669 0.76269 0.38937 0.0
H2872 H 0.39797 0.76239 0.36942 0.0
H2873 H 0.39925 0.74371 0.30582 0.0
H2874 H 0.33112 0.77861 0.24986 0.0
H2875 H 0.35875 0.77301 0.26908 0.0
C2876 C 0.03048 0.72051 0.11735 0.0
C2877 C 0.02521 0.73416 0.1051 0.0
C2878 C 0.03168 0.70115 0.10971 0.0
C2879 C 0.03723 0.67367 0.0622 0.0
H2880 H 0.02449 0.62645 0.0895 0.0
C2881 C 0.02075 0.5936 0.02528 0.0
C2882 C 0.02894 0.57901 0.03377 0.0
C2883 C 0.02327 0.61298 0.03436 0.0
C2884 C 0.02837 0.6396 0.08187 0.0
H2885 H 0.01555 0.73801 0.07578 0.0
H2886 H 0.01666 0.70412 0.06268 0.0
H2887 H 0.02107 0.65897 0.10523 0.0
H2888 H 0.0466 0.57319 0.05806 0.0
H2889 H 0.05065 0.60723 0.07433 0.0
H2890 H 0.04368 0.65412 0.03853 0.0
C2891 C 0.02075 0.70845 0.07794 0.0
C2892 C 0.0264 0.6582 0.09084 0.0
C2893 C 0.01988 0.7278 0.08547 0.0
C2894 C 0.04029 0.58427 0.05117 0.0
C2895 C 0.04247 0.60361 0.06052 0.0
C2896 C 0.03895 0.65509 0.05318 0.0
C2897 C 0.02738 0.69512 0.08976 0.0
C2898 C 0.03045 0.67541 0.08094 0.0
C2899 C 0.03373 0.618 0.0523 0.0
C2900 C 0.03426 0.63787 0.06281 0.0
H2901 H 0.03478 0.72516 0.13252 0.0
H2902 H 0.03683 0.69127 0.11924 0.0
H2903 H 0.04107 0.68666 0.05435 0.0
H2904 H 0.01194 0.58988 0.01185 0.0
H2905 H 0.01631 0.62379 0.02779 0.0
C2906 C 0.0451 0.24938 0.82996 0.0
C2907 C 0.04697 0.25842 0.84918 0.0
C2908 C 0.06113 0.24875 0.81932 0.0
C2909 C 0.10966 0.27528 0.81646 0.0
H2910 H 0.11878 0.22645 0.78865 0.0
C2911 C 0.17367 0.2744 0.76961 0.0
C2912 C 0.18464 0.26005 0.7737 0.0
C2913 C 0.15563 0.27337 0.77661 0.0
C2914 C 0.11636 0.24019 0.79631 0.0
H2915 H 0.06709 0.27367 0.87238 0.0
H2916 H 0.0949 0.27273 0.85379 0.0
H2917 H 0.08957 0.22627 0.80564 0.0
H2918 H 0.18519 0.23294 0.78756 0.0
H2919 H 0.15356 0.23102 0.79966 0.0
H2920 H 0.13646 0.28919 0.80743 0.0
C2921 C 0.08109 0.26619 0.84692 0.0
C2922 C 0.09963 0.24011 0.80591 0.0
C2923 C 0.06515 0.26661 0.8576 0.0
C2924 C 0.177 0.2442 0.78423 0.0
C2925 C 0.15888 0.24305 0.79106 0.0
C2926 C 0.12623 0.27542 0.80669 0.0
C2927 C 0.07925 0.25739 0.82764 0.0
C2928 C 0.09628 0.2576 0.81632 0.0
C2929 C 0.14817 0.25785 0.78766 0.0
C2930 C 0.12987 0.25783 0.79672 0.0
H2931 H 0.03127 0.24292 0.8231 0.0
H2932 H 0.05934 0.24192 0.80445 0.0
H2933 H 0.10735 0.28901 0.82424 0.0
H2934 H 0.17924 0.28676 0.7615 0.0
H2935 H 0.14761 0.28487 0.77363 0.0
C2936 C 0.51727 0.71097 0.91172 0.0
C2937 C 0.52134 0.72793 0.9253 0.0
C2938 C 0.5151 0.69177 0.918 0.0
C2939 C 0.50457 0.66615 0.96248 0.0
H2940 H 0.5242 0.62267 0.93576 0.0
C2941 C 0.51418 0.59547 -0.00153 0.0
C2942 C 0.50905 0.57698 0.98723 0.0
C2943 C 0.5141 0.61327 0.99 0.0
C2944 C 0.51845 0.63463 0.94325 0.0
H2945 H 0.52755 0.73804 0.95596 0.0
H2946 H 0.52428 0.70496 0.96671 0.0
H2947 H 0.52766 0.65485 0.92216 0.0
H2948 H 0.49952 0.56277 0.95825 0.0
H2949 H 0.49949 0.59387 0.94355 0.0
H2950 H 0.49576 0.64614 0.98378 0.0
C2951 C 0.52204 0.7063 0.95132 0.0
C2952 C 0.52041 0.65304 0.93544 0.0
C2953 C 0.52405 0.72532 0.94511 0.0
C2954 C 0.50352 0.57672 0.96739 0.0
C2955 C 0.50363 0.59454 0.95889 0.0
C2956 C 0.50274 0.64785 0.97032 0.0
C2957 C 0.51709 0.68926 0.93796 0.0
C2958 C 0.51379 0.66914 0.94517 0.0
C2959 C 0.50906 0.613 0.97007 0.0
C2960 C 0.5099 0.63198 0.96096 0.0
H2961 H 0.5151 0.71252 0.89636 0.0
H2962 H 0.5113 0.67894 0.90732 0.0
H2963 H 0.49885 0.67806 0.9701 0.0
H2964 H 0.51852 0.59624 0.01377 0.0
H2965 H 0.51849 0.6273 -0.00105 0.0
C2966 C 0.05437 0.77257 0.66221 0.0
C2967 C 0.05488 0.77902 0.64344 0.0
C2968 C 0.07093 0.76953 0.67204 0.0
C2969 C 0.12328 0.78184 0.67218 0.0
H2970 H 0.12179 0.73385 0.69849 0.0
C2971 C 0.19173 0.75692 0.69695 0.0
C2972 C 0.19285 0.75146 0.716 0.0
C2973 C 0.17437 0.75896 0.68821 0.0
C2974 C 0.1224 0.74738 0.69134 0.0
H2975 H 0.07341 0.78786 0.62058 0.0
H2976 H 0.10205 0.78245 0.63758 0.0
H2977 H 0.09253 0.74132 0.68396 0.0
H2978 H 0.17663 0.74282 0.74051 0.0
H2979 H 0.14622 0.74637 0.72521 0.0
H2980 H 0.15309 0.78788 0.67941 0.0
C2981 C 0.08892 0.77988 0.64481 0.0
C2982 C 0.10563 0.75172 0.68308 0.0
C2983 C 0.07242 0.78288 0.635 0.0
C2984 C 0.17614 0.74699 0.72576 0.0
C2985 C 0.15874 0.74902 0.717 0.0
C2986 C 0.14 0.77749 0.68037 0.0
C2987 C 0.08837 0.77296 0.66335 0.0
C2988 C 0.10592 0.7689 0.67323 0.0
C2989 C 0.15777 0.75561 0.69834 0.0
C2990 C 0.1398 0.76012 0.68986 0.0
H2991 H 0.04113 0.76947 0.66918 0.0
H2992 H 0.07007 0.76444 0.68642 0.0
H2993 H 0.12397 0.7954 0.66505 0.0
H2994 H 0.20438 0.76039 0.68907 0.0
H2995 H 0.17403 0.76365 0.67365 0.0
C2996 C 0.03392 0.3336 0.43079 0.0
C2997 C 0.03815 0.33056 0.41127 0.0
C2998 C 0.03573 0.35281 0.44005 0.0
C2999 C 0.04987 0.39359 0.46017 0.0
H3000 H 0.03201 0.43512 0.43392 0.0
C3001 C 0.04507 0.46835 0.50274 0.0
C3002 C 0.02859 0.47588 0.49858 0.0
C3003 C 0.04997 0.45309 0.49026 0.0
C3004 C 0.037 0.42367 0.4415 0.0
H3005 H 0.04762 0.3453 0.38605 0.0
H3006 H 0.05113 0.37917 0.40243 0.0
H3007 H 0.03294 0.40314 0.41578 0.0
H3008 H 0.00455 0.4739 0.47795 0.0
H3009 H 0.01253 0.44684 0.45669 0.0
H3010 H 0.05268 0.41337 0.48615 0.0
C3011 C 0.04617 0.36658 0.41049 0.0
C3012 C 0.03778 0.40541 0.43101 0.0
C3013 C 0.04422 0.34722 0.40112 0.0
C3014 C 0.01737 0.46834 0.4815 0.0
C3015 C 0.02209 0.45293 0.46919 0.0
C3016 C 0.04886 0.41169 0.47069 0.0
C3017 C 0.04204 0.36957 0.43013 0.0
C3018 C 0.04369 0.38993 0.44037 0.0
C3019 C 0.03828 0.44484 0.47354 0.0
C3020 C 0.04192 0.4268 0.46164 0.0
H3021 H 0.0291 0.32111 0.43902 0.0
H3022 H 0.0319 0.35447 0.45499 0.0
H3023 H 0.05497 0.3822 0.46775 0.0
H3024 H 0.05407 0.47412 0.51572 0.0
H3025 H 0.06276 0.44756 0.4939 0.0
C3026 C 0.4317 0.27626 0.15636 0.0
C3027 C 0.44915 0.27408 0.16508 0.0
C3028 C 0.4159 0.2762 0.16737 0.0
C3029 C 0.39611 0.26139 0.21346 0.0
H3030 H 0.36221 0.29765 0.20201 0.0
C3031 C 0.32005 0.25275 0.23905 0.0
C3032 C 0.31225 0.26997 0.24335 0.0
C3033 C 0.33809 0.25417 0.23201 0.0
C3034 C 0.37164 0.28762 0.20564 0.0
H3035 H 0.46367 0.2699 0.19217 0.0
H3036 H 0.43607 0.27003 0.2115 0.0
H3037 H 0.391 0.29842 0.1848 0.0
H3038 H 0.31781 0.3023 0.24461 0.0
H3039 H 0.34943 0.30479 0.23267 0.0
H3040 H 0.3768 0.25077 0.2345 0.0
C3041 C 0.43456 0.27156 0.19608 0.0
C3042 C 0.38803 0.28785 0.19553 0.0
C3043 C 0.45039 0.27155 0.18502 0.0
C3044 C 0.32329 0.28871 0.2413 0.0
C3045 C 0.34139 0.29013 0.23433 0.0
C3046 C 0.37971 0.26119 0.22363 0.0
C3047 C 0.41716 0.27406 0.1874 0.0
C3048 C 0.40033 0.27453 0.19908 0.0
C3049 C 0.34884 0.27285 0.22917 0.0
C3050 C 0.36713 0.27413 0.21966 0.0
H3051 H 0.43024 0.27812 0.141 0.0
H3052 H 0.40264 0.27773 0.16011 0.0
H3053 H 0.40521 0.25086 0.21651 0.0
H3054 H 0.31198 0.23805 0.24045 0.0
H3055 H 0.34326 0.24052 0.22802 0.0
C3056 C 0.60137 0.5089 0.33169 0.0
C3057 C 0.6188 0.50242 0.3305 0.0
C3058 C 0.59256 0.50962 0.34924 0.0
C3059 C 0.58776 0.48749 0.39505 0.0
H3060 H 0.56836 0.53515 0.41209 0.0
C3061 C 0.53109 0.491 0.45232 0.0
C3062 C 0.5342 0.50785 0.46601 0.0
C3063 C 0.54315 0.48965 0.43708 0.0
C3064 C 0.57381 0.52178 0.40762 0.0
H3065 H 0.6406 0.49141 0.34677 0.0
H3066 H 0.62487 0.4923 0.37759 0.0
H3067 H 0.58646 0.53456 0.38311 0.0
H3068 H 0.55255 0.5363 0.47476 0.0
H3069 H 0.57345 0.534 0.44821 0.0
H3070 H 0.57464 0.47458 0.4194 0.0
C3071 C 0.61819 0.49696 0.36485 0.0
C3072 C 0.58407 0.52141 0.39097 0.0
C3073 C 0.62722 0.49657 0.34729 0.0
C3074 C 0.54981 0.52309 0.46447 0.0
C3075 C 0.56172 0.52184 0.44919 0.0
C3076 C 0.57722 0.48776 0.41161 0.0
C3077 C 0.6008 0.50359 0.36598 0.0
C3078 C 0.59105 0.50424 0.38443 0.0
C3079 C 0.55839 0.50526 0.43517 0.0
C3080 C 0.57008 0.5049 0.41801 0.0
H3081 H 0.59446 0.51345 0.31904 0.0
H3082 H 0.57909 0.5146 0.34963 0.0
H3083 H 0.59287 0.47401 0.39025 0.0
H3084 H 0.51916 0.47904 0.45318 0.0
H3085 H 0.54017 0.47675 0.42641 0.0
C3086 C 0.25983 0.85997 0.05223 0.0
C3087 C 0.25041 0.87505 0.04654 0.0
C3088 C 0.2625 0.85728 0.07178 0.0
C3089 C 0.24176 0.86305 0.11792 0.0
H3090 H 0.289 0.8499 0.1375 0.0
C3091 C 0.25163 0.83439 0.19356 0.0
C3092 C 0.26034 0.81755 0.19324 0.0
C3093 C 0.25134 0.84499 0.17722 0.0
C3094 C 0.27573 0.85356 0.13224 0.0
H3095 H 0.23657 0.89934 0.05695 0.0
H3096 H 0.24101 0.89431 0.09145 0.0
H3097 H 0.28729 0.86317 0.106 0.0
H3098 H 0.2754 0.79841 0.17577 0.0
H3099 H 0.27478 0.81678 0.14717 0.0
H3100 H 0.23 0.85265 0.14385 0.0
C3101 C 0.24637 0.8847 0.08059 0.0
C3102 C 0.27478 0.86121 0.11429 0.0
C3103 C 0.24387 0.88758 0.06091 0.0
C3104 C 0.26863 0.81137 0.17636 0.0
C3105 C 0.26842 0.82199 0.16009 0.0
C3106 C 0.24271 0.85537 0.13593 0.0
C3107 C 0.25572 0.86951 0.08614 0.0
C3108 C 0.25762 0.86534 0.10666 0.0
C3109 C 0.25987 0.83897 0.16039 0.0
C3110 C 0.25953 0.84989 0.1429 0.0
H3111 H 0.26518 0.85015 0.04157 0.0
H3112 H 0.26948 0.84524 0.07563 0.0
H3113 H 0.22834 0.86602 0.11229 0.0
H3114 H 0.24515 0.83944 0.20646 0.0
H3115 H 0.24469 0.85804 0.17783 0.0
C3116 C 0.90608 0.55393 0.84814 0.0
C3117 C 0.91484 0.56096 0.83177 0.0
C3118 C 0.9168 0.55442 0.86565 0.0
C3119 C 0.96667 0.55587 0.88257 0.0
H3120 H 0.94665 0.55848 0.93365 0.0
C3121 C 0.01129 0.55013 0.95279 0.0
C3122 C 0.00276 0.53547 0.96419 0.0
C3123 C 0.00074 0.55615 0.93765 0.0
C3124 C 0.95239 0.5578 0.91945 0.0
H3125 H 0.94105 0.57546 0.82101 0.0
H3126 H 0.95951 0.5774 0.85173 0.0
H3127 H 0.92763 0.56501 0.90552 0.0
H3128 H 0.97683 0.51516 0.96839 0.0
H3129 H 0.95824 0.5262 0.94247 0.0
H3130 H 0.99142 0.5487 0.89656 0.0
C3131 C 0.94465 0.57068 0.851 0.0
C3132 C 0.9415 0.56143 0.90333 0.0
C3133 C 0.93406 0.56976 0.83346 0.0
C3134 C 0.98357 0.52696 0.96025 0.0
C3135 C 0.97296 0.53321 0.94537 0.0
C3136 C 0.97763 0.55255 0.8987 0.0
C3137 C 0.93636 0.56229 0.86711 0.0
C3138 C 0.94839 0.56022 0.88463 0.0
C3139 C 0.98147 0.54776 0.93386 0.0
C3140 C 0.97049 0.55318 0.91721 0.0
H3141 H 0.89129 0.54691 0.84707 0.0
H3142 H 0.90993 0.54766 0.87766 0.0
H3143 H 0.97233 0.55429 0.8684 0.0
H3144 H 0.0261 0.55684 0.95551 0.0
H3145 H 0.00761 0.56737 0.92891 0.0
C3146 C 0.2756 0.2006 0.55229 0.0
C3147 C 0.26845 0.1807 0.54515 0.0
C3148 C 0.27556 0.20677 0.57206 0.0
C3149 C 0.24818 0.1985 0.61319 0.0
H3150 H 0.29262 0.22701 0.64413 0.0
C3151 C 0.24503 0.22887 0.69395 0.0
C3152 C 0.25788 0.24625 0.70096 0.0
C3153 C 0.24614 0.21982 0.67516 0.0
C3154 C 0.27997 0.2194 0.63565 0.0
H3155 H 0.25594 0.15151 0.55304 0.0
H3156 H 0.2553 0.16254 0.5878 0.0
H3157 H 0.29588 0.2126 0.61125 0.0
H3158 H 0.28115 0.26849 0.69361 0.0
H3159 H 0.2824 0.25354 0.6606 0.0
H3160 H 0.23203 0.20615 0.637 0.0
C3161 C 0.26121 0.1732 0.57802 0.0
C3162 C 0.28193 0.21094 0.61689 0.0
C3163 C 0.26172 0.1669 0.55824 0.0
C3164 C 0.2712 0.25496 0.6886 0.0
C3165 C 0.27204 0.24621 0.66974 0.0
C3166 C 0.24613 0.20732 0.63183 0.0
C3167 C 0.26792 0.19325 0.58501 0.0
C3168 C 0.26606 0.20054 0.60547 0.0
C3169 C 0.2599 0.22819 0.66289 0.0
C3170 C 0.26198 0.2181 0.64326 0.0
H3171 H 0.28084 0.21153 0.54247 0.0
H3172 H 0.28074 0.22231 0.57712 0.0
H3173 H 0.2357 0.19073 0.6045 0.0
H3174 H 0.23474 0.22176 0.70329 0.0
H3175 H 0.23663 0.20589 0.67055 0.0
C3176 C 0.59095 0.51242 0.22186 0.0
C3177 C 0.60959 0.51139 0.22816 0.0
C3178 C 0.58645 0.51549 0.20271 0.0
C3179 C 0.60778 0.53596 0.15947 0.0
H3180 H 0.55741 0.51442 0.13615 0.0
C3181 C 0.57726 0.54201 0.08006 0.0
C3182 C 0.55958 0.5481 0.0793 0.0
C3183 C 0.58584 0.53904 0.09789 0.0
C3184 C 0.57149 0.5206 0.14254 0.0
H3185 H 0.63802 0.51188 0.21883 0.0
H3186 H 0.63002 0.5168 0.18492 0.0
H3187 H 0.56762 0.50316 0.16662 0.0
H3188 H 0.53761 0.55711 0.09659 0.0
H3189 H 0.55244 0.55152 0.12768 0.0
H3190 H 0.61158 0.55301 0.13476 0.0
C3191 C 0.61897 0.51562 0.19509 0.0
C3192 C 0.57738 0.5142 0.16002 0.0
C3193 C 0.62352 0.51258 0.21446 0.0
C3194 C 0.55126 0.55249 0.09674 0.0
C3195 C 0.55967 0.54917 0.1145 0.0
C3196 C 0.60197 0.54211 0.14169 0.0
C3197 C 0.60039 0.51742 0.18907 0.0
C3198 C 0.59539 0.5222 0.16906 0.0
C3199 C 0.5767 0.54179 0.11515 0.0
C3200 C 0.58359 0.53484 0.13338 0.0
H3201 H 0.57978 0.51149 0.23192 0.0
H3202 H 0.57208 0.51711 0.19885 0.0
H3203 H 0.6217 0.54256 0.16603 0.0
H3204 H 0.58394 0.5385 0.06679 0.0
H3205 H 0.59896 0.53333 0.09804 0.0
C3206 C 0.22136 0.85519 0.94315 0.0
C3207 C 0.22856 0.87578 0.94537 0.0
C3208 C 0.22308 0.84379 0.92583 0.0
C3209 C 0.25449 0.84182 0.88692 0.0
H3210 H 0.21351 0.8033 0.85966 0.0
C3211 C 0.26163 0.80225 0.81174 0.0
C3212 C 0.25114 0.78302 0.8065 0.0
C3213 C 0.25965 0.81243 0.82965 0.0
C3214 C 0.2252 0.81369 0.86732 0.0
H3215 H 0.24269 0.90081 0.93122 0.0
H3216 H 0.24602 0.88067 0.90082 0.0
H3217 H 0.20716 0.82435 0.88806 0.0
H3218 H 0.23137 0.75873 0.81629 0.0
H3219 H 0.22831 0.77633 0.84805 0.0
H3220 H 0.27269 0.83094 0.86665 0.0
C3221 C 0.23894 0.87347 0.9125 0.0
C3222 C 0.22149 0.82587 0.88343 0.0
C3223 C 0.2369 0.88497 0.92976 0.0
C3224 C 0.23952 0.77362 0.81997 0.0
C3225 C 0.23764 0.78378 0.83804 0.0
C3226 C 0.25827 0.82946 0.87099 0.0
C3227 C 0.23233 0.85273 0.91056 0.0
C3228 C 0.23607 0.84017 0.89322 0.0
C3229 C 0.24729 0.80353 0.84284 0.0
C3230 C 0.24363 0.8154 0.86085 0.0
H3231 H 0.21488 0.84779 0.95503 0.0
H3232 H 0.21795 0.82783 0.92471 0.0
H3233 H 0.26605 0.85246 0.89452 0.0
H3234 H 0.27074 0.80987 0.80165 0.0
H3235 H 0.26715 0.82766 0.83269 0.0
C3236 C 0.92818 0.50828 0.72777 0.0
C3237 C 0.91837 0.52369 0.73332 0.0
C3238 C 0.93458 0.50632 0.70908 0.0
C3239 C 0.95533 0.5365 0.67465 0.0
H3240 H 0.94501 0.49019 0.63659 0.0
C3241 C 0.98963 0.5367 0.60111 0.0
C3242 C 0.99327 0.51867 0.5922 0.0
C3243 C 0.97977 0.53695 0.61801 0.0
C3244 C 0.94833 0.50312 0.6472 0.0
H3245 H 0.90686 0.54862 0.72364 0.0
H3246 H 0.91879 0.54562 0.69099 0.0
H3247 H 0.92738 0.49052 0.66596 0.0
H3248 H 0.99027 0.48689 0.59419 0.0
H3249 H 0.97406 0.48737 0.62442 0.0
H3250 H 0.977 0.54876 0.65686 0.0
C3251 C 0.92113 0.5349 0.70106 0.0
C3252 C 0.93803 0.50336 0.66385 0.0
C3253 C 0.91428 0.53655 0.71962 0.0
C3254 C 0.98757 0.50097 0.60083 0.0
C3255 C 0.97806 0.50126 0.61801 0.0
C3256 C 0.96593 0.53611 0.65828 0.0
C3257 C 0.93165 0.52002 0.69585 0.0
C3258 C 0.94143 0.52009 0.67761 0.0
C3259 C 0.97369 0.5192 0.62663 0.0
C3260 C 0.96256 0.51944 0.64427 0.0
H3261 H 0.93144 0.49817 0.73811 0.0
H3262 H 0.94275 0.49481 0.70534 0.0
H3263 H 0.95839 0.54939 0.68534 0.0
H3264 H 0.99369 0.55053 0.59457 0.0
H3265 H 0.97643 0.55101 0.6239 0.0
C3266 C 0.27351 0.18879 0.44146 0.0
C3267 C 0.26824 0.168 0.44145 0.0
C3268 C 0.27379 0.19767 0.42404 0.0
C3269 C 0.25161 0.19381 0.37629 0.0
H3270 H 0.29768 0.22686 0.36236 0.0
C3271 C 0.25335 0.23214 0.30528 0.0
C3272 C 0.26482 0.25101 0.30523 0.0
C3273 C 0.25467 0.2208 0.32095 0.0
C3274 C 0.2846 0.21796 0.36611 0.0
H3275 H 0.25886 0.14021 0.42328 0.0
H3276 H 0.25861 0.15598 0.39267 0.0
H3277 H 0.29799 0.20939 0.39162 0.0
H3278 H 0.28643 0.27302 0.32171 0.0
H3279 H 0.28805 0.25381 0.3496 0.0
H3280 H 0.23781 0.20311 0.35165 0.0
C3281 C 0.26283 0.16524 0.40623 0.0
C3282 C 0.28487 0.20781 0.38279 0.0
C3283 C 0.26299 0.15626 0.42367 0.0
C3284 C 0.27753 0.25842 0.32128 0.0
C3285 C 0.27856 0.24727 0.3372 0.0
C3286 C 0.25121 0.20429 0.35985 0.0
C3287 C 0.2684 0.18601 0.4063 0.0
C3288 C 0.26837 0.19572 0.38803 0.0
C3289 C 0.2671 0.22828 0.33729 0.0
C3290 C 0.26769 0.2166 0.35453 0.0
H3291 H 0.27772 0.19821 0.45493 0.0
H3292 H 0.278 0.21372 0.42444 0.0
H3293 H 0.23866 0.18473 0.38021 0.0
H3294 H 0.24313 0.22619 0.2933 0.0
H3295 H 0.24584 0.20615 0.32019 0.0
C3296 C 0.31419 0.58861 0.52409 0.0
C3297 C 0.31703 0.60587 0.51415 0.0
C3298 C 0.32696 0.57534 0.5227 0.0
C3299 C 0.36024 0.55816 0.49009 0.0
H3300 H 0.38819 0.54647 0.5356 0.0
C3301 C 0.43243 0.53432 0.48577 0.0
C3302 C 0.4383 0.52254 0.49961 0.0
C3303 C 0.4149 0.54033 0.48673 0.0
C3304 C 0.38022 0.54911 0.52273 0.0
H3305 H 0.33551 0.62284 0.49519 0.0
H3306 H 0.35742 0.5996 0.49257 0.0
H3307 H 0.36235 0.56499 0.53962 0.0
H3308 H 0.43014 0.5067 0.52456 0.0
H3309 H 0.39921 0.51662 0.5259 0.0
H3310 H 0.37803 0.5425 0.4731 0.0
C3311 C 0.3454 0.59634 0.50141 0.0
C3312 C 0.36548 0.55979 0.52508 0.0
C3313 C 0.33292 0.60972 0.50306 0.0
C3314 C 0.42593 0.51587 0.51375 0.0
C3315 C 0.4083 0.5217 0.51461 0.0
C3316 C 0.37477 0.54724 0.48772 0.0
C3317 C 0.34246 0.57897 0.51103 0.0
C3318 C 0.3558 0.56494 0.50877 0.0
C3319 C 0.40279 0.5345 0.50146 0.0
C3320 C 0.38538 0.54316 0.50399 0.0
H3321 H 0.30205 0.58529 0.53273 0.0
H3322 H 0.3245 0.56203 0.53032 0.0
H3323 H 0.35278 0.56177 0.47729 0.0
H3324 H 0.44177 0.53977 0.47479 0.0
H3325 H 0.41132 0.5504 0.47651 0.0
C3326 C 0.81766 0.93099 0.5277 0.0
C3327 C 0.81628 0.91034 0.52289 0.0
C3328 C 0.83517 0.94393 0.52808 0.0
C3329 C 0.87592 0.96605 0.53813 0.0
H3330 H 0.91045 0.95541 0.4987 0.0
C3331 C 0.95521 0.00239 0.54453 0.0
C3332 C 0.96403 0.00736 0.52749 0.0
C3333 C 0.93656 0.99196 0.54359 0.0
C3334 C 0.90093 0.95877 0.5097 0.0
H3335 H 0.83248 0.88716 0.51512 0.0
H3336 H 0.86277 0.90954 0.51606 0.0
H3337 H 0.87907 0.93484 0.49764 0.0
H3338 H 0.95991 0.00667 0.49633 0.0
H3339 H 0.92737 0.98829 0.49444 0.0
H3340 H 0.89777 0.99015 0.55005 0.0
C3341 C 0.85031 0.91584 0.51916 0.0
C3342 C 0.883 0.94679 0.50924 0.0
C3343 C 0.83289 0.90296 0.51877 0.0
C3344 C 0.95368 0.0023 0.50954 0.0
C3345 C 0.935 0.99191 0.50854 0.0
C3346 C 0.89389 0.97805 0.53859 0.0
C3347 C 0.85168 0.93651 0.52363 0.0
C3348 C 0.87034 0.95009 0.52359 0.0
C3349 C 0.92625 0.98642 0.52555 0.0
C3350 C 0.90671 0.97443 0.5245 0.0
H3351 H 0.80518 0.93722 0.53088 0.0
H3352 H 0.83571 0.95978 0.53147 0.0
H3353 H 0.86658 0.96896 0.54946 0.0
H3354 H 0.96288 0.00617 0.55861 0.0
H3355 H 0.93041 0.98781 0.55697 0.0
C3356 C 0.83823 0.08109 0.23801 0.0
C3357 C 0.85738 0.08389 0.24465 0.0
C3358 C 0.82823 0.09692 0.2399 0.0
C3359 C 0.8293 0.14533 0.26884 0.0
H3360 H 0.79473 0.15496 0.22756 0.0
C3361 C 0.80014 0.21869 0.26899 0.0
C3362 C 0.78153 0.21804 0.26139 0.0
C3363 C 0.80829 0.20156 0.26776 0.0
C3364 C 0.8041 0.15232 0.23937 0.0
H3365 H 0.88116 0.10567 0.25803 0.0
H3366 H 0.86383 0.13318 0.26117 0.0
H3367 H 0.81114 0.12671 0.22319 0.0
H3368 H 0.75672 0.19852 0.24705 0.0
H3369 H 0.77086 0.16856 0.24519 0.0
H3370 H 0.82235 0.17089 0.28503 0.0
C3371 C 0.85642 0.11871 0.25477 0.0
C3372 C 0.81355 0.13612 0.23683 0.0
C3373 C 0.8664 0.10295 0.25282 0.0
C3374 C 0.77109 0.19962 0.25304 0.0
C3375 C 0.77926 0.18245 0.25182 0.0
C3376 C 0.81983 0.16146 0.27141 0.0
C3377 C 0.83714 0.11586 0.24857 0.0
C3378 C 0.82645 0.13257 0.25145 0.0
C3379 C 0.79806 0.18325 0.25893 0.0
C3380 C 0.80726 0.16532 0.25663 0.0
H3381 H 0.83086 0.06658 0.23168 0.0
H3382 H 0.81338 0.09418 0.23506 0.0
H3383 H 0.83883 0.1428 0.28057 0.0
H3384 H 0.80868 0.23258 0.27548 0.0
H3385 H 0.82287 0.20285 0.27319 0.0
C3386 C 0.71526 0.11337 0.01764 0.0
C3387 C 0.71869 0.12608 0.00278 0.0
C3388 C 0.69706 0.10279 0.01959 0.0
C3389 C 0.65297 0.08118 0.99249 0.0
H3390 H 0.62823 0.08902 0.04052 0.0
C3391 C 0.57303 0.05862 0.99474 0.0
C3392 C 0.56513 0.05124 0.01144 0.0
C3393 C 0.59227 0.06629 0.99477 0.0
C3394 C 0.63503 0.08632 0.02714 0.0
H3395 H 0.70592 0.13737 0.97806 0.0
H3396 H 0.67417 0.11836 0.98113 0.0
H3397 H 0.66126 0.10484 0.03835 0.0
H3398 H 0.57123 0.04623 0.04139 0.0
H3399 H 0.60527 0.05923 0.04134 0.0
H3400 H 0.62713 0.06243 0.98125 0.0
C3401 C 0.68556 0.11684 0.99139 0.0
C3402 C 0.65388 0.09546 0.0259 0.0
C3403 C 0.70366 0.12775 0.98969 0.0
C3404 C 0.57694 0.05186 0.02832 0.0
C3405 C 0.5964 0.05935 0.02828 0.0
C3406 C 0.63428 0.07176 0.99382 0.0
C3407 C 0.6821 0.1044 0.00643 0.0
C3408 C 0.66282 0.09333 0.00841 0.0
C3409 C 0.6043 0.06654 0.01142 0.0
C3410 C 0.62488 0.07466 0.01097 0.0
H3411 H 0.72657 0.11187 0.028 0.0
H3412 H 0.69469 0.09323 0.03125 0.0
H3413 H 0.65971 0.07908 0.97895 0.0
H3414 H 0.5643 0.0587 0.98156 0.0
H3415 H 0.59765 0.07226 0.98172 0.0
C3416 C 0.15388 0.44911 0.25308 0.0
C3417 C 0.16149 0.46826 0.24818 0.0
C3418 C 0.16543 0.43484 0.25463 0.0
C3419 C 0.21082 0.4221 0.23992 0.0
H3420 H 0.20448 0.38843 0.2823 0.0
C3421 C 0.2391 0.34884 0.24063 0.0
C3422 C 0.24553 0.34324 0.25843 0.0
C3423 C 0.23153 0.36618 0.24004 0.0
C3424 C 0.20663 0.39792 0.27056 0.0
H3425 H 0.18706 0.48739 0.24074 0.0
H3426 H 0.20717 0.46257 0.24355 0.0
H3427 H 0.18524 0.41417 0.27974 0.0
H3428 H 0.25008 0.35172 0.28944 0.0
H3429 H 0.23687 0.38231 0.28843 0.0
H3430 H 0.23224 0.40588 0.23077 0.0
C3431 C 0.19228 0.45849 0.24603 0.0
C3432 C 0.1954 0.41245 0.26892 0.0
C3433 C 0.18075 0.47273 0.24447 0.0
C3434 C 0.24517 0.35576 0.27555 0.0
C3435 C 0.2375 0.37313 0.27497 0.0
C3436 C 0.22204 0.40757 0.24155 0.0
C3437 C 0.1848 0.43945 0.25131 0.0
C3438 C 0.19719 0.42451 0.25343 0.0
C3439 C 0.23021 0.37826 0.25725 0.0
C3440 C 0.21988 0.39514 0.25673 0.0
H3441 H 0.13908 0.44523 0.25601 0.0
H3442 H 0.15919 0.42018 0.2584 0.0
H3443 H 0.21249 0.4311 0.22777 0.0
H3444 H 0.23925 0.33942 0.22721 0.0
H3445 H 0.22588 0.36958 0.22619 0.0
C3446 C 0.19575 0.41112 0.02261 0.0
C3447 C 0.21419 0.42174 0.02751 0.0
C3448 C 0.18031 0.42096 0.02268 0.0
C3449 C 0.16777 0.47049 0.01866 0.0
H3450 H 0.11963 0.44501 0.03581 0.0
C3451 C 0.10087 0.50768 0.01929 0.0
C3452 C 0.08374 0.49515 0.01254 0.0
C3453 C 0.11733 0.49971 0.02229 0.0
C3454 C 0.13293 0.45227 0.03083 0.0
H3455 H 0.23084 0.45101 0.03667 0.0
H3456 H 0.20376 0.46823 0.03689 0.0
H3457 H 0.14732 0.42938 0.03965 0.0
H3458 H 0.07036 0.46455 0.00353 0.0
H3459 H 0.09895 0.4507 0.00864 0.0
H3460 H 0.15325 0.49329 0.00966 0.0
C3461 C 0.20131 0.45229 0.03283 0.0
C3462 C 0.14882 0.44331 0.03304 0.0
C3463 C 0.2168 0.4424 0.03283 0.0
C3464 C 0.08338 0.47459 0.00872 0.0
C3465 C 0.09973 0.46662 0.01181 0.0
C3466 C 0.15184 0.47948 0.01647 0.0
C3467 C 0.18288 0.44169 0.02762 0.0
C3468 C 0.16638 0.45213 0.0267 0.0
C3469 C 0.11689 0.47905 0.01876 0.0
C3470 C 0.13416 0.4703 0.02224 0.0
H3471 H 0.19324 0.3952 0.0184 0.0
H3472 H 0.16637 0.41235 0.01833 0.0
H3473 H 0.18102 0.47759 0.01343 0.0
H3474 H 0.10151 0.52359 0.02243 0.0
H3475 H 0.13029 0.50967 0.02776 0.0
C3476 C 0.85111 0.97239 0.23303 0.0
C3477 C 0.86991 0.97516 0.24084 0.0
C3478 C 0.83936 0.95358 0.23188 0.0
C3479 C 0.8409 0.89953 0.23447 0.0
H3480 H 0.78833 0.896 0.2464 0.0
C3481 C 0.79504 0.82753 0.25587 0.0
C3482 C 0.77646 0.8222 0.24748 0.0
C3483 C 0.80615 0.84588 0.25307 0.0
C3484 C 0.80292 0.89676 0.24281 0.0
H3485 H 0.89098 0.96019 0.25367 0.0
H3486 H 0.87052 0.92782 0.25212 0.0
H3487 H 0.80818 0.92869 0.2452 0.0
H3488 H 0.75494 0.83181 0.22956 0.0
H3489 H 0.77432 0.86414 0.22491 0.0
H3490 H 0.83573 0.86758 0.23275 0.0
C3491 C 0.8649 0.93996 0.24638 0.0
C3492 C 0.81432 0.9155 0.24206 0.0
C3493 C 0.87665 0.95865 0.24738 0.0
C3494 C 0.76922 0.83554 0.23617 0.0
C3495 C 0.78027 0.85405 0.23359 0.0
C3496 C 0.82957 0.88083 0.23542 0.0
C3497 C 0.84608 0.93712 0.23863 0.0
C3498 C 0.83354 0.91716 0.23812 0.0
C3499 C 0.79885 0.85942 0.24203 0.0
C3500 C 0.81052 0.87924 0.23981 0.0
H3501 H 0.84545 0.98474 0.2278 0.0
H3502 H 0.82503 0.95194 0.2256 0.0
H3503 H 0.85549 0.90013 0.23093 0.0
H3504 H 0.80095 0.8176 0.26477 0.0
H3505 H 0.82034 0.84968 0.25995 0.0
C3506 C 0.6394 0.08486 0.76089 0.0
C3507 C 0.64364 0.06674 0.75274 0.0
C3508 C 0.65139 0.10289 0.75878 0.0
C3509 C 0.68882 0.12695 0.72956 0.0
H3510 H 0.70342 0.16269 0.7766 0.0
C3511 C 0.72801 0.20944 0.73292 0.0
C3512 C 0.74116 0.21619 0.74881 0.0
C3513 C 0.71773 0.18991 0.73114 0.0
C3514 C 0.69961 0.15279 0.76336 0.0
H3515 H 0.66344 0.05342 0.73539 0.0
H3516 H 0.68426 0.08489 0.73172 0.0
H3517 H 0.68112 0.13168 0.77794 0.0
H3518 H 0.75532 0.20725 0.7741 0.0
H3519 H 0.73754 0.17328 0.77087 0.0
H3520 H 0.7074 0.14824 0.71502 0.0
C3521 C 0.67168 0.08513 0.73971 0.0
C3522 C 0.68665 0.13517 0.76409 0.0
C3523 C 0.65981 0.0671 0.74196 0.0
C3524 C 0.74504 0.2026 0.76187 0.0
C3525 C 0.73482 0.18317 0.76009 0.0
C3526 C 0.7017 0.14474 0.72878 0.0
C3527 C 0.66773 0.10316 0.74832 0.0
C3528 C 0.68113 0.12207 0.74722 0.0
C3529 C 0.72051 0.1769 0.74521 0.0
C3530 C 0.70728 0.15776 0.74572 0.0
H3531 H 0.62706 0.08511 0.76925 0.0
H3532 H 0.64795 0.11664 0.76542 0.0
H3533 H 0.68472 0.11712 0.71632 0.0
H3534 H 0.72473 0.21957 0.72261 0.0
H3535 H 0.70678 0.18543 0.71951 0.0
loop_
_geom_bond_atom_site_label_1
_geom_bond_atom_site_label_2
_geom_bond_distance
_geom_bond_site_symmetry_2
_ccdc_geom_bond_type
Co0 O1 2.216 . S
Co0 O2 2.091 . S
Co0 O4 2.004 1_455 S
Co0 O10 2.021 . S
Co0 O12 2.137 . S
Co0 O13 2.244 . S
O1 Co0 2.216 . S
O1 C8 1.247 . S
O2 Co0 2.091 . S
O2 C8 1.261 . S
C3 O12 1.247 . S
C3 O13 1.272 . S
O4 Co0 2.004 1_655 S
O4 C9 1.259 . S
Co5 O6 2.061 . S
Co5 O11 2.052 1_655 S
Co5 O13 2.135 1_655 S
O6 Co5 2.061 . S
O6 C9 1.235 . S
C7 O10 1.238 . S
C7 O11 1.241 . S
C8 O1 1.247 . S
C8 O2 1.261 . S
C9 O4 1.259 . S
C9 O6 1.235 . S
O10 Co0 2.021 . S
O10 C7 1.238 . S
O11 Co5 2.052 1_455 S
O11 C7 1.241 . S
O12 Co0 2.137 . S
O12 C3 1.247 . S
O13 Co0 2.244 . S
O13 C3 1.272 . S
O13 Co5 2.135 1_455 S
Co14 O15 2.216 1_455 S
Co14 O16 2.091 1_455 S
Co14 O18 2.004 . S
Co14 O24 2.021 . S
Co14 O26 2.137 . S
Co14 O27 2.244 . S
O15 Co14 2.216 1_655 S
O15 C22 1.247 . S
O16 Co14 2.091 1_655 S
O16 C22 1.261 . S
C17 O26 1.247 . S
C17 O27 1.272 . S
O18 Co14 2.004 . S
O18 C23 1.259 . S
Co19 O20 2.061 . S
Co19 O25 2.052 . S
Co19 O27 2.135 . S
O20 Co19 2.061 . S
O20 C23 1.235 . S
C21 O24 1.238 . S
C21 O25 1.241 . S
C22 O15 1.247 . S
C22 O16 1.261 . S
C23 O18 1.259 . S
C23 O20 1.235 . S
O24 Co14 2.021 . S
O24 C21 1.238 . S
O25 Co19 2.052 . S
O25 C21 1.241 . S
O26 Co14 2.137 . S
O26 C17 1.247 . S
O27 Co14 2.244 . S
O27 C17 1.272 . S
O27 Co19 2.135 . S
Co28 O29 2.216 . S
Co28 O30 2.091 . S
Co28 O32 2.004 . S
Co28 O38 2.021 . S
Co28 O40 2.137 . S
Co28 O41 2.244 . S
O29 Co28 2.216 . S
O29 C36 1.247 . S
O30 Co28 2.091 . S
O30 C36 1.261 . S
C31 O40 1.247 . S
C31 O41 1.272 . S
O32 Co28 2.004 . S
O32 C37 1.259 . S
Co33 O34 2.061 . S
Co33 O39 2.052 . S
Co33 O41 2.135 . S
O34 Co33 2.061 . S
O34 C37 1.235 . S
C35 O38 1.238 . S
C35 O39 1.241 . S
C36 O29 1.247 . S
C36 O30 1.261 . S
C37 O32 1.259 . S
C37 O34 1.235 . S
O38 Co28 2.021 . S
O38 C35 1.238 . S
O39 Co33 2.052 . S
O39 C35 1.241 . S
O40 Co28 2.137 . S
O40 C31 1.247 . S
O41 Co28 2.244 . S
O41 C31 1.272 . S
O41 Co33 2.135 . S
Co42 O43 2.216 . S
Co42 O44 2.091 . S
Co42 O46 2.004 . S
Co42 O52 2.021 . S
Co42 O54 2.137 . S
Co42 O55 2.244 . S
O43 Co42 2.216 . S
O43 C50 1.247 . S
O44 Co42 2.091 . S
O44 C50 1.261 . S
C45 O54 1.247 . S
C45 O55 1.272 . S
O46 Co42 2.004 . S
O46 C51 1.259 . S
Co47 O48 2.061 . S
Co47 O53 2.052 . S
Co47 O55 2.135 . S
O48 Co47 2.061 . S
O48 C51 1.235 . S
C49 O52 1.238 . S
C49 O53 1.241 . S
C50 O43 1.247 . S
C50 O44 1.261 . S
C51 O46 1.259 . S
C51 O48 1.235 . S
O52 Co42 2.021 . S
O52 C49 1.238 . S
O53 Co47 2.052 . S
O53 C49 1.241 . S
O54 Co42 2.137 . S
O54 C45 1.247 . S
O55 Co42 2.244 . S
O55 C45 1.272 . S
O55 Co47 2.135 . S
Co56 O57 2.216 1_455 S
Co56 O58 2.091 1_455 S
Co56 O60 2.004 . S
Co56 O66 2.021 . S
Co56 O68 2.137 . S
Co56 O69 2.244 . S
O57 Co56 2.216 1_655 S
O57 C64 1.247 . S
O58 Co56 2.091 1_655 S
O58 C64 1.261 . S
C59 O68 1.247 . S
C59 O69 1.272 . S
O60 Co56 2.004 . S
O60 C65 1.259 . S
Co61 O62 2.061 . S
Co61 O67 2.052 . S
Co61 O69 2.135 . S
O62 Co61 2.061 . S
O62 C65 1.235 . S
C63 O66 1.238 . S
C63 O67 1.241 . S
C64 O57 1.247 . S
C64 O58 1.261 . S
C65 O60 1.259 . S
C65 O62 1.235 . S
O66 Co56 2.021 . S
O66 C63 1.238 . S
O67 Co61 2.052 . S
O67 C63 1.241 . S
O68 Co56 2.137 . S
O68 C59 1.247 . S
O69 Co56 2.244 . S
O69 C59 1.272 . S
O69 Co61 2.135 . S
Co70 O71 2.216 . S
Co70 O72 2.091 . S
Co70 O74 2.004 . S
Co70 O80 2.021 . S
Co70 O82 2.137 . S
Co70 O83 2.244 . S
O71 Co70 2.216 . S
O71 C78 1.247 . S
O72 Co70 2.091 . S
O72 C78 1.261 . S
C73 O82 1.247 . S
C73 O83 1.272 . S
O74 Co70 2.004 . S
O74 C79 1.259 . S
Co75 O76 2.061 . S
Co75 O81 2.052 . S
Co75 O83 2.135 . S
O76 Co75 2.061 . S
O76 C79 1.235 . S
C77 O80 1.238 . S
C77 O81 1.241 . S
C78 O71 1.247 . S
C78 O72 1.261 . S
C79 O74 1.259 . S
C79 O76 1.235 . S
O80 Co70 2.021 . S
O80 C77 1.238 . S
O81 Co75 2.052 . S
O81 C77 1.241 . S
O82 Co70 2.137 . S
O82 C73 1.247 . S
O83 Co70 2.244 . S
O83 C73 1.272 . S
O83 Co75 2.135 . S
Co84 O85 2.216 . S
Co84 O86 2.091 . S
Co84 O88 2.004 . S
Co84 O94 2.021 . S
Co84 O96 2.137 . S
Co84 O97 2.244 . S
O85 Co84 2.216 . S
O85 C92 1.247 . S
O86 Co84 2.091 . S
O86 C92 1.261 . S
C87 O96 1.247 . S
C87 O97 1.272 . S
O88 Co84 2.004 . S
O88 C93 1.259 . S
Co89 O90 2.061 . S
Co89 O95 2.052 . S
Co89 O97 2.135 . S
O90 Co89 2.061 . S
O90 C93 1.235 . S
C91 O94 1.238 . S
C91 O95 1.241 . S
C92 O85 1.247 . S
C92 O86 1.261 . S
C93 O88 1.259 . S
C93 O90 1.235 . S
O94 Co84 2.021 . S
O94 C91 1.238 . S
O95 Co89 2.052 . S
O95 C91 1.241 . S
O96 Co84 2.137 . S
O96 C87 1.247 . S
O97 Co84 2.244 . S
O97 C87 1.272 . S
O97 Co89 2.135 . S
Co98 O99 2.216 . S
Co98 O100 2.091 . S
Co98 O102 2.004 1_455 S
Co98 O108 2.021 . S
Co98 O110 2.137 . S
Co98 O111 2.262 . S
O99 Co98 2.216 . S
O99 C106 1.247 . S
O100 Co98 2.091 . S
O100 C106 1.261 . S
C101 O110 1.247 . S
C101 O111 1.283 . S
O102 Co98 2.004 1_655 S
O102 C107 1.259 . S
Co103 O104 2.061 . S
Co103 O109 2.052 . S
Co103 O111 2.097 1_655 S
O104 Co103 2.061 . S
O104 C107 1.235 . S
C105 O108 1.238 1_655 S
C105 O109 1.241 . S
C106 O99 1.247 . S
C106 O100 1.261 . S
C107 O102 1.259 . S
C107 O104 1.235 . S
O108 Co98 2.021 . S
O108 C105 1.238 1_455 S
O109 Co103 2.052 . S
O109 C105 1.241 . S
O110 Co98 2.137 . S
O110 C101 1.247 . S
O111 Co98 2.262 . S
O111 C101 1.283 . S
O111 Co103 2.097 1_455 S
Co112 O113 2.216 . S
Co112 O114 2.091 . S
Co112 O116 1.973 1_545 S
Co112 O122 2.021 . S
Co112 O124 2.137 . S
Co112 O125 2.244 . S
O113 Co112 2.216 . S
O113 C120 1.247 . S
O114 Co112 2.091 . S
O114 C120 1.261 . S
C115 O124 1.247 . S
C115 O125 1.272 . S
O116 Co112 1.973 1_565 S
O116 C121 1.294 . S
Co117 O118 2.061 . S
Co117 O123 2.052 1_565 S
Co117 O125 2.135 1_565 S
O118 Co117 2.061 . S
O118 C121 1.235 . S
C119 O122 1.238 . S
C119 O123 1.241 . S
C120 O113 1.247 . S
C120 O114 1.261 . S
C121 O116 1.294 . S
C121 O118 1.235 . S
O122 Co112 2.021 . S
O122 C119 1.238 . S
O123 Co117 2.052 1_545 S
O123 C119 1.241 . S
O124 Co112 2.137 . S
O124 C115 1.247 . S
O125 Co112 2.244 . S
O125 C115 1.272 . S
O125 Co117 2.135 1_545 S
Co126 O127 2.216 . S
Co126 O128 2.091 . S
Co126 O130 2.004 . S
Co126 O136 2.021 . S
Co126 O138 2.137 . S
Co126 O139 2.244 . S
O127 Co126 2.216 . S
O127 C134 1.247 . S
O128 Co126 2.091 . S
O128 C134 1.261 . S
C129 O138 1.247 . S
C129 O139 1.272 . S
O130 Co126 2.004 . S
O130 C135 1.259 . S
Co131 O132 2.061 . S
Co131 O137 2.052 . S
Co131 O139 2.135 . S
O132 Co131 2.061 . S
O132 C135 1.235 . S
C133 O136 1.238 . S
C133 O137 1.241 . S
C134 O127 1.247 . S
C134 O128 1.261 . S
C135 O130 1.259 . S
C135 O132 1.235 . S
O136 Co126 2.021 . S
O136 C133 1.238 . S
O137 Co131 2.052 . S
O137 C133 1.241 . S
O138 Co126 2.137 . S
O138 C129 1.247 . S
O139 Co126 2.244 . S
O139 C129 1.272 . S
O139 Co131 2.135 . S
Co140 O141 2.216 . S
Co140 O142 2.091 . S
Co140 O144 2.004 1_565 S
Co140 O150 2.021 . S
Co140 O152 2.137 . S
Co140 O153 2.244 1_565 S
O141 Co140 2.216 . S
O141 C148 1.247 . S
O142 Co140 2.091 . S
O142 C148 1.261 . S
C143 O152 1.235 1_545 S
C143 O153 1.282 . S
O144 Co140 2.004 1_545 S
O144 C149 1.259 . S
Co145 O146 2.061 . S
Co145 O151 2.052 . S
Co145 O153 2.135 . S
O146 Co145 2.061 . S
O146 C149 1.235 . S
C147 O150 1.245 . S
C147 O151 1.231 1_565 S
C148 O141 1.247 . S
C148 O142 1.261 . S
C149 O144 1.259 . S
C149 O146 1.235 . S
O150 Co140 2.021 . S
O150 C147 1.245 . S
O151 Co145 2.052 . S
O151 C147 1.231 1_545 S
O152 Co140 2.137 . S
O152 C143 1.235 1_565 S
O153 Co140 2.244 1_545 S
O153 C143 1.282 . S
O153 Co145 2.135 . S
Co154 O155 2.216 . S
Co154 O156 2.091 . S
Co154 O158 2.004 . S
Co154 O164 2.021 . S
Co154 O166 2.137 1_554 S
Co154 O167 2.244 . S
O155 Co154 2.216 . S
O155 C162 1.247 . S
O156 Co154 2.091 . S
O156 C162 1.261 . S
C157 O166 1.247 . S
C157 O167 1.272 1_556 S
O158 Co154 2.004 . S
O158 C163 1.259 . S
Co159 O160 2.061 . S
Co159 O165 2.052 . S
Co159 O167 2.135 . S
O160 Co159 2.061 . S
O160 C163 1.235 . S
C161 O164 1.238 . S
C161 O165 1.241 . S
C162 O155 1.247 . S
C162 O156 1.261 . S
C163 O158 1.259 . S
C163 O160 1.235 . S
O164 Co154 2.021 . S
O164 C161 1.238 . S
O165 Co159 2.052 . S
O165 C161 1.241 . S
O166 Co154 2.137 1_556 S
O166 C157 1.247 . S
O167 Co154 2.244 . S
O167 C157 1.272 1_554 S
O167 Co159 2.135 . S
Co168 O169 2.216 . S
Co168 O170 2.091 . S
Co168 O172 2.004 . S
Co168 O178 2.021 . S
Co168 O180 2.137 1_554 S
Co168 O181 2.244 1_554 S
O169 Co168 2.216 . S
O169 C176 1.247 . S
O170 Co168 2.091 . S
O170 C176 1.261 . S
C171 O180 1.247 . S
C171 O181 1.272 . S
O172 Co168 2.004 . S
O172 C177 1.259 . S
Co173 O174 2.061 . S
Co173 O179 2.052 . S
Co173 O181 2.135 1_554 S
O174 Co173 2.061 . S
O174 C177 1.235 . S
C175 O178 1.238 . S
C175 O179 1.241 . S
C176 O169 1.247 . S
C176 O170 1.261 . S
C177 O172 1.259 . S
C177 O174 1.235 . S
O178 Co168 2.021 . S
O178 C175 1.238 . S
O179 Co173 2.052 . S
O179 C175 1.241 . S
O180 Co168 2.137 1_556 S
O180 C171 1.247 . S
O181 Co168 2.244 1_556 S
O181 C171 1.272 . S
O181 Co173 2.135 1_556 S
Co182 O183 2.217 . S
Co182 O184 2.091 . S
Co182 O186 2.004 . S
Co182 O192 2.021 1_556 S
Co182 O194 2.137 . S
Co182 O195 2.244 . S
O183 Co182 2.217 . S
O183 C190 1.243 . S
O184 Co182 2.091 . S
O184 C190 1.261 . S
C185 O194 1.247 . S
C185 O195 1.272 . S
O186 Co182 2.004 . S
O186 C191 1.259 . S
Co187 O188 2.060 . S
Co187 O193 2.052 . S
Co187 O195 2.135 1_554 S
O188 Co187 2.060 . S
O188 C191 1.234 1_554 S
C189 O192 1.238 . S
C189 O193 1.241 . S
C190 O183 1.243 . S
C190 O184 1.261 . S
C191 O186 1.259 . S
C191 O188 1.234 1_556 S
O192 Co182 2.021 1_554 S
O192 C189 1.238 . S
O193 Co187 2.052 . S
O193 C189 1.241 . S
O194 Co182 2.137 . S
O194 C185 1.247 . S
O195 Co182 2.244 . S
O195 C185 1.272 . S
O195 Co187 2.135 1_556 S
Co196 O197 2.216 . S
Co196 O198 2.091 . S
Co196 O200 2.004 . S
Co196 O206 2.021 . S
Co196 O208 2.137 . S
Co196 O209 2.244 . S
O197 Co196 2.216 . S
O197 C204 1.247 . S
O198 Co196 2.091 . S
O198 C204 1.261 . S
C199 O208 1.247 . S
C199 O209 1.272 . S
O200 Co196 2.004 . S
O200 C205 1.259 . S
Co201 O202 2.061 . S
Co201 O207 2.052 . S
Co201 O209 2.135 . S
O202 Co201 2.061 . S
O202 C205 1.235 . S
C203 O206 1.238 . S
C203 O207 1.241 . S
C204 O197 1.247 . S
C204 O198 1.261 . S
C205 O200 1.259 . S
C205 O202 1.235 . S
O206 Co196 2.021 . S
O206 C203 1.238 . S
O207 Co201 2.052 . S
O207 C203 1.241 . S
O208 Co196 2.137 . S
O208 C199 1.247 . S
O209 Co196 2.244 . S
O209 C199 1.272 . S
O209 Co201 2.135 . S
Co210 O211 2.216 . S
Co210 O212 2.091 . S
Co210 O214 2.004 . S
Co210 O220 2.021 . S
Co210 O222 2.137 . S
Co210 O223 2.244 . S
O211 Co210 2.216 . S
O211 C218 1.247 . S
O212 Co210 2.091 . S
O212 C218 1.261 . S
C213 O222 1.247 . S
C213 O223 1.272 . S
O214 Co210 2.004 . S
O214 C219 1.259 . S
Co215 O216 2.061 . S
Co215 O221 2.052 . S
Co215 O223 2.135 . S
O216 Co215 2.061 . S
O216 C219 1.235 . S
C217 O220 1.238 . S
C217 O221 1.241 . S
C218 O211 1.247 . S
C218 O212 1.261 . S
C219 O214 1.259 . S
C219 O216 1.235 . S
O220 Co210 2.021 . S
O220 C217 1.238 . S
O221 Co215 2.052 . S
O221 C217 1.241 . S
O222 Co210 2.137 . S
O222 C213 1.247 . S
O223 Co210 2.244 . S
O223 C213 1.272 . S
O223 Co215 2.135 . S
Co224 O225 2.216 . S
Co224 O226 2.091 . S
Co224 O228 2.004 . S
Co224 O234 2.021 . S
Co224 O236 2.137 . S
Co224 O237 2.244 . S
O225 Co224 2.216 . S
O225 C232 1.247 . S
O226 Co224 2.091 . S
O226 C232 1.261 . S
C227 O236 1.247 . S
C227 O237 1.272 . S
O228 Co224 2.004 . S
O228 C233 1.259 . S
Co229 O230 2.061 . S
Co229 O235 2.052 . S
Co229 O237 2.135 . S
O230 Co229 2.061 . S
O230 C233 1.235 . S
C231 O234 1.238 . S
C231 O235 1.241 . S
C232 O225 1.247 . S
C232 O226 1.261 . S
C233 O228 1.259 . S
C233 O230 1.235 . S
O234 Co224 2.021 . S
O234 C231 1.238 . S
O235 Co229 2.052 . S
O235 C231 1.241 . S
O236 Co224 2.137 . S
O236 C227 1.247 . S
O237 Co224 2.244 . S
O237 C227 1.272 . S
O237 Co229 2.135 . S
Co238 O239 2.216 . S
Co238 O240 2.091 . S
Co238 O242 2.004 . S
Co238 O248 2.021 . S
Co238 O250 2.137 . S
Co238 O251 2.244 . S
O239 Co238 2.216 . S
O239 C246 1.247 . S
O240 Co238 2.091 . S
O240 C246 1.261 . S
C241 O250 1.247 . S
C241 O251 1.272 . S
O242 Co238 2.004 . S
O242 C247 1.259 . S
Co243 O244 2.061 . S
Co243 O249 2.052 . S
Co243 O251 2.135 . S
O244 Co243 2.061 . S
O244 C247 1.235 . S
C245 O248 1.238 . S
C245 O249 1.241 . S
C246 O239 1.247 . S
C246 O240 1.261 . S
C247 O242 1.259 . S
C247 O244 1.235 . S
O248 Co238 2.021 . S
O248 C245 1.238 . S
O249 Co243 2.052 . S
O249 C245 1.241 . S
O250 Co238 2.137 . S
O250 C241 1.247 . S
O251 Co238 2.244 . S
O251 C241 1.272 . S
O251 Co243 2.135 . S
Co252 O253 2.216 . S
Co252 O254 2.091 . S
Co252 O256 2.004 . S
Co252 O262 2.021 . S
Co252 O264 2.137 . S
Co252 O265 2.244 . S
O253 Co252 2.216 . S
O253 C260 1.247 . S
O254 Co252 2.091 . S
O254 C260 1.261 . S
C255 O264 1.247 . S
C255 O265 1.272 . S
O256 Co252 2.004 . S
O256 C261 1.259 . S
Co257 O258 2.061 . S
Co257 O263 2.052 . S
Co257 O265 2.135 . S
O258 Co257 2.061 . S
O258 C261 1.235 . S
C259 O262 1.238 . S
C259 O263 1.241 . S
C260 O253 1.247 . S
C260 O254 1.261 . S
C261 O256 1.259 . S
C261 O258 1.235 . S
O262 Co252 2.021 . S
O262 C259 1.238 . S
O263 Co257 2.052 . S
O263 C259 1.241 . S
O264 Co252 2.137 . S
O264 C255 1.247 . S
O265 Co252 2.244 . S
O265 C255 1.272 . S
O265 Co257 2.135 . S
Co266 O267 2.216 1_545 S
Co266 O268 2.091 . S
Co266 O270 2.004 . S
Co266 O276 2.021 . S
Co266 O278 2.137 . S
Co266 O279 2.244 . S
O267 Co266 2.216 1_565 S
O267 C274 1.247 . S
O268 Co266 2.091 . S
O268 C274 1.261 1_545 S
C269 O278 1.247 . S
C269 O279 1.272 . S
O270 Co266 2.004 . S
O270 C275 1.259 . S
Co271 O272 2.061 . S
Co271 O277 2.052 . S
Co271 O279 2.135 . S
O272 Co271 2.061 . S
O272 C275 1.235 . S
C273 O276 1.238 . S
C273 O277 1.241 . S
C274 O267 1.247 . S
C274 O268 1.261 1_565 S
C275 O270 1.259 . S
C275 O272 1.235 . S
O276 Co266 2.021 . S
O276 C273 1.238 . S
O277 Co271 2.052 . S
O277 C273 1.241 . S
O278 Co266 2.137 . S
O278 C269 1.247 . S
O279 Co266 2.244 . S
O279 C269 1.272 . S
O279 Co271 2.135 . S
Co280 O281 2.216 . S
Co280 O282 2.091 . S
Co280 O284 2.004 . S
Co280 O290 2.021 . S
Co280 O292 2.137 1_554 S
Co280 O293 2.244 1_554 S
O281 Co280 2.216 . S
O281 C288 1.247 . S
O282 Co280 2.091 . S
O282 C288 1.261 . S
C283 O292 1.247 . S
C283 O293 1.272 . S
O284 Co280 2.004 . S
O284 C289 1.259 . S
Co285 O286 2.061 . S
Co285 O291 2.052 . S
Co285 O293 2.135 1_554 S
O286 Co285 2.061 . S
O286 C289 1.235 . S
C287 O290 1.238 . S
C287 O291 1.241 . S
C288 O281 1.247 . S
C288 O282 1.261 . S
C289 O284 1.259 . S
C289 O286 1.235 . S
O290 Co280 2.021 . S
O290 C287 1.238 . S
O291 Co285 2.052 . S
O291 C287 1.241 . S
O292 Co280 2.137 1_556 S
O292 C283 1.247 . S
O293 Co280 2.244 1_556 S
O293 C283 1.272 . S
O293 Co285 2.135 1_556 S
Co294 O295 2.216 . S
Co294 O296 2.091 . S
Co294 O298 2.004 . S
Co294 O304 2.021 . S
Co294 O306 2.137 . S
Co294 O307 2.244 . S
O295 Co294 2.216 . S
O295 C302 1.247 . S
O296 Co294 2.091 . S
O296 C302 1.261 . S
C297 O306 1.247 . S
C297 O307 1.272 . S
O298 Co294 2.004 . S
O298 C303 1.259 . S
Co299 O300 2.061 . S
Co299 O305 2.052 . S
Co299 O307 2.135 . S
O300 Co299 2.061 . S
O300 C303 1.235 . S
C301 O304 1.238 . S
C301 O305 1.241 . S
C302 O295 1.247 . S
C302 O296 1.261 . S
C303 O298 1.259 . S
C303 O300 1.235 . S
O304 Co294 2.021 . S
O304 C301 1.238 . S
O305 Co299 2.052 . S
O305 C301 1.241 . S
O306 Co294 2.137 . S
O306 C297 1.247 . S
O307 Co294 2.244 . S
O307 C297 1.272 . S
O307 Co299 2.135 . S
Co308 O309 2.216 . S
Co308 O310 2.091 . S
Co308 O312 2.004 . S
Co308 O318 2.021 . S
Co308 O320 2.137 . S
Co308 O321 2.244 . S
O309 Co308 2.216 . S
O309 C316 1.247 . S
O310 Co308 2.091 . S
O310 C316 1.261 . S
C311 O320 1.247 . S
C311 O321 1.272 . S
O312 Co308 2.004 . S
O312 C317 1.259 . S
Co313 O314 2.061 . S
Co313 O319 2.052 . S
Co313 O321 2.135 . S
O314 Co313 2.061 . S
O314 C317 1.235 . S
C315 O318 1.238 . S
C315 O319 1.241 . S
C316 O309 1.247 . S
C316 O310 1.261 . S
C317 O312 1.259 . S
C317 O314 1.235 . S
O318 Co308 2.021 . S
O318 C315 1.238 . S
O319 Co313 2.052 . S
O319 C315 1.241 . S
O320 Co308 2.137 . S
O320 C311 1.247 . S
O321 Co308 2.244 . S
O321 C311 1.272 . S
O321 Co313 2.135 . S
Co322 O323 2.216 . S
Co322 O324 2.091 . S
Co322 O326 2.004 . S
Co322 O332 2.021 . S
Co322 O334 2.137 . S
Co322 O335 2.244 . S
O323 Co322 2.216 . S
O323 C330 1.247 . S
O324 Co322 2.091 . S
O324 C330 1.261 . S
C325 O334 1.247 . S
C325 O335 1.272 . S
O326 Co322 2.004 . S
O326 C331 1.259 . S
Co327 O328 2.061 . S
Co327 O333 2.052 . S
Co327 O335 2.135 . S
O328 Co327 2.061 . S
O328 C331 1.235 . S
C329 O332 1.238 . S
C329 O333 1.241 . S
C330 O323 1.247 . S
C330 O324 1.261 . S
C331 O326 1.259 . S
C331 O328 1.235 . S
O332 Co322 2.021 . S
O332 C329 1.238 . S
O333 Co327 2.052 . S
O333 C329 1.241 . S
O334 Co322 2.137 . S
O334 C325 1.247 . S
O335 Co322 2.244 . S
O335 C325 1.272 . S
O335 Co327 2.135 . S
Dy336 O340 2.398 1_554 S
Dy336 O341 2.491 . S
Dy336 O342 2.405 1_654 S
Dy336 O343 2.664 1_654 S
Dy336 O347 2.326 1_654 S
Dy336 O351 2.310 1_655 S
Dy336 O352 2.351 1_545 S
C337 O348 1.185 . S
C337 O349 1.355 . S
C338 O340 1.185 . S
C338 O341 1.355 1_556 S
Dy339 O343 2.310 1_554 S
Dy339 O346 2.351 . S
Dy339 O348 2.398 . S
Dy339 O349 2.491 . S
Dy339 O350 2.403 . S
Dy339 O351 2.664 . S
Dy339 O353 2.326 . S
O340 Dy336 2.398 1_556 S
O340 C338 1.185 . S
O341 Dy336 2.491 . S
O341 C338 1.355 1_554 S
O342 Dy336 2.405 1_456 S
O342 C344 1.251 . S
O343 Dy336 2.664 1_456 S
O343 Dy339 2.310 1_556 S
O343 C344 1.268 . S
C344 O342 1.251 . S
C344 O343 1.268 . S
C345 O350 1.254 . S
C345 O351 1.268 . S
O346 Dy339 2.351 . S
O346 C354 1.249 . S
O347 Dy336 2.326 1_456 S
O347 C354 1.267 1_556 S
O348 C337 1.185 . S
O348 Dy339 2.398 . S
O349 C337 1.355 . S
O349 Dy339 2.491 . S
O350 Dy339 2.403 . S
O350 C345 1.254 . S
O351 Dy336 2.310 1_455 S
O351 Dy339 2.664 . S
O351 C345 1.268 . S
O352 Dy336 2.351 1_565 S
O352 C355 1.249 1_655 S
O353 Dy339 2.326 . S
O353 C355 1.267 1_545 S
C354 O346 1.249 . S
C354 O347 1.267 1_554 S
C355 O352 1.249 1_455 S
C355 O353 1.267 1_565 S
Dy356 O360 2.398 . S
Dy356 O361 2.491 . S
Dy356 O362 2.403 . S
Dy356 O363 2.664 . S
Dy356 O367 2.326 . S
Dy356 O371 2.310 . S
Dy356 O372 2.351 . S
C357 O368 1.185 . S
C357 O369 1.355 . S
C358 O360 1.185 . S
C358 O361 1.355 . S
Dy359 O363 2.310 . S
Dy359 O366 2.351 . S
Dy359 O368 2.398 . S
Dy359 O369 2.491 . S
Dy359 O370 2.403 . S
Dy359 O371 2.664 . S
Dy359 O373 2.326 . S
O360 Dy356 2.398 . S
O360 C358 1.185 . S
O361 Dy356 2.491 . S
O361 C358 1.355 . S
O362 Dy356 2.403 . S
O362 C364 1.254 . S
O363 Dy356 2.664 . S
O363 Dy359 2.310 . S
O363 C364 1.268 . S
C364 O362 1.254 . S
C364 O363 1.268 . S
C365 O370 1.254 . S
C365 O371 1.268 . S
O366 Dy359 2.351 . S
O366 C374 1.249 . S
O367 Dy356 2.326 . S
O367 C374 1.267 . S
O368 C357 1.185 . S
O368 Dy359 2.398 . S
O369 C357 1.355 . S
O369 Dy359 2.491 . S
O370 Dy359 2.403 . S
O370 C365 1.254 . S
O371 Dy356 2.310 . S
O371 Dy359 2.664 . S
O371 C365 1.268 . S
O372 Dy356 2.351 . S
O372 C375 1.249 . S
O373 Dy359 2.326 . S
O373 C375 1.267 . S
C374 O366 1.249 . S
C374 O367 1.267 . S
C375 O372 1.249 . S
C375 O373 1.267 . S
Dy376 O380 2.398 . S
Dy376 O381 2.491 . S
Dy376 O382 2.403 . S
Dy376 O383 2.664 . S
Dy376 O387 2.326 1_545 S
Dy376 O391 2.310 . S
Dy376 O392 2.351 . S
C377 O388 1.185 . S
C377 O389 1.355 . S
C378 O380 1.203 . S
C378 O381 1.356 . S
Dy379 O383 2.310 . S
Dy379 O386 2.351 1_545 S
Dy379 O388 2.398 . S
Dy379 O389 2.491 . S
Dy379 O390 2.403 . S
Dy379 O391 2.664 . S
Dy379 O393 2.326 . S
O380 Dy376 2.398 . S
O380 C378 1.203 . S
O381 Dy376 2.491 . S
O381 C378 1.356 . S
O382 Dy376 2.403 . S
O382 C384 1.254 . S
O383 Dy376 2.664 . S
O383 Dy379 2.310 . S
O383 C384 1.268 . S
C384 O382 1.254 . S
C384 O383 1.268 . S
C385 O390 1.254 . S
C385 O391 1.268 . S
O386 Dy379 2.351 1_565 S
O386 C394 1.249 . S
O387 Dy376 2.326 1_565 S
O387 C394 1.267 . S
O388 C377 1.185 . S
O388 Dy379 2.398 . S
O389 C377 1.355 . S
O389 Dy379 2.491 . S
O390 Dy379 2.403 . S
O390 C385 1.254 . S
O391 Dy376 2.310 . S
O391 Dy379 2.664 . S
O391 C385 1.268 . S
O392 Dy376 2.351 . S
O392 C395 1.249 . S
O393 Dy379 2.326 . S
O393 C395 1.267 . S
C394 O386 1.249 . S
C394 O387 1.267 . S
C395 O392 1.249 . S
C395 O393 1.267 . S
Dy396 O400 2.398 . S
Dy396 O401 2.491 . S
Dy396 O402 2.403 . S
Dy396 O403 2.664 . S
Dy396 O407 2.326 . S
Dy396 O411 2.310 . S
Dy396 O412 2.351 . S
C397 O408 1.185 . S
C397 O409 1.355 . S
C398 O400 1.185 . S
C398 O401 1.355 . S
Dy399 O403 2.310 . S
Dy399 O406 2.351 . S
Dy399 O408 2.398 . S
Dy399 O409 2.491 . S
Dy399 O410 2.403 . S
Dy399 O411 2.664 . S
Dy399 O413 2.326 . S
O400 Dy396 2.398 . S
O400 C398 1.185 . S
O401 Dy396 2.491 . S
O401 C398 1.355 . S
O402 Dy396 2.403 . S
O402 C404 1.254 . S
O403 Dy396 2.664 . S
O403 Dy399 2.310 . S
O403 C404 1.268 . S
C404 O402 1.254 . S
C404 O403 1.268 . S
C405 O410 1.254 . S
C405 O411 1.268 . S
O406 Dy399 2.351 . S
O406 C414 1.249 . S
O407 Dy396 2.326 . S
O407 C414 1.267 . S
O408 C397 1.185 . S
O408 Dy399 2.398 . S
O409 C397 1.355 . S
O409 Dy399 2.491 . S
O410 Dy399 2.403 . S
O410 C405 1.254 . S
O411 Dy396 2.310 . S
O411 Dy399 2.664 . S
O411 C405 1.268 . S
O412 Dy396 2.351 . S
O412 C415 1.249 . S
O413 Dy399 2.326 . S
O413 C415 1.267 . S
C414 O406 1.249 . S
C414 O407 1.267 . S
C415 O412 1.249 . S
C415 O413 1.267 . S
Dy416 O420 2.398 . S
Dy416 O421 2.491 1_455 S
Dy416 O422 2.403 . S
Dy416 O423 2.664 . S
Dy416 O427 2.326 . S
Dy416 O431 2.310 1_455 S
Dy416 O432 2.351 1_545 S
C417 O428 1.185 . S
C417 O429 1.355 . S
C418 O420 1.185 1_655 S
C418 O421 1.355 . S
Dy419 O423 2.310 . S
Dy419 O426 2.351 . S
Dy419 O428 2.398 . S
Dy419 O429 2.491 . S
Dy419 O430 2.403 1_455 S
Dy419 O431 2.664 1_455 S
Dy419 O433 2.319 1_545 S
O420 Dy416 2.398 . S
O420 C418 1.185 1_455 S
O421 Dy416 2.491 1_655 S
O421 C418 1.355 . S
O422 Dy416 2.403 . S
O422 C424 1.254 . S
O423 Dy416 2.664 . S
O423 Dy419 2.310 . S
O423 C424 1.268 . S
C424 O422 1.254 . S
C424 O423 1.268 . S
C425 O430 1.254 . S
C425 O431 1.268 . S
O426 Dy419 2.351 . S
O426 C434 1.249 . S
O427 Dy416 2.326 . S
O427 C434 1.267 . S
O428 C417 1.185 . S
O428 Dy419 2.398 . S
O429 C417 1.355 . S
O429 Dy419 2.491 . S
O430 Dy419 2.403 1_655 S
O430 C425 1.254 . S
O431 Dy416 2.310 1_655 S
O431 Dy419 2.664 1_655 S
O431 C425 1.268 . S
O432 Dy416 2.351 1_565 S
O432 C435 1.249 . S
O433 Dy419 2.319 1_565 S
O433 C435 1.272 . S
C434 O426 1.249 . S
C434 O427 1.267 . S
C435 O432 1.249 . S
C435 O433 1.272 . S
Dy436 O440 2.398 . S
Dy436 O441 2.491 . S
Dy436 O442 2.403 . S
Dy436 O443 2.664 . S
Dy436 O447 2.326 . S
Dy436 O451 2.310 . S
Dy436 O452 2.351 . S
C437 O448 1.185 . S
C437 O449 1.355 . S
C438 O440 1.185 . S
C438 O441 1.355 . S
Dy439 O443 2.310 . S
Dy439 O446 2.351 . S
Dy439 O448 2.398 . S
Dy439 O449 2.491 . S
Dy439 O450 2.403 . S
Dy439 O451 2.664 . S
Dy439 O453 2.326 . S
O440 Dy436 2.398 . S
O440 C438 1.185 . S
O441 Dy436 2.491 . S
O441 C438 1.355 . S
O442 Dy436 2.403 . S
O442 C444 1.254 . S
O443 Dy436 2.664 . S
O443 Dy439 2.310 . S
O443 C444 1.268 . S
C444 O442 1.254 . S
C444 O443 1.268 . S
C445 O450 1.254 . S
C445 O451 1.268 . S
O446 Dy439 2.351 . S
O446 C454 1.249 . S
O447 Dy436 2.326 . S
O447 C454 1.267 . S
O448 C437 1.185 . S
O448 Dy439 2.398 . S
O449 C437 1.355 . S
O449 Dy439 2.491 . S
O450 Dy439 2.403 . S
O450 C445 1.254 . S
O451 Dy436 2.310 . S
O451 Dy439 2.664 . S
O451 C445 1.268 . S
O452 Dy436 2.351 . S
O452 C455 1.249 . S
O453 Dy439 2.326 . S
O453 C455 1.267 . S
C454 O446 1.249 . S
C454 O447 1.267 . S
C455 O452 1.249 . S
C455 O453 1.267 . S
Dy456 O460 2.398 1_545 S
Dy456 O461 2.491 . S
Dy456 O462 2.403 1_545 S
Dy456 O463 2.700 . S
Dy456 O467 2.326 . S
Dy456 O471 2.310 . S
Dy456 O472 2.351 . S
C457 O468 1.185 . S
C457 O469 1.355 . S
C458 O460 1.185 1_545 S
C458 O461 1.355 . S
Dy459 O463 2.289 1_556 S
Dy459 O466 2.351 . S
Dy459 O468 2.398 . S
Dy459 O469 2.491 . S
Dy459 O470 2.416 . S
Dy459 O471 2.664 1_556 S
Dy459 O473 2.326 . S
O460 Dy456 2.398 1_565 S
O460 C458 1.185 1_565 S
O461 Dy456 2.491 . S
O461 C458 1.355 . S
O462 Dy456 2.403 1_565 S
O462 C464 1.254 . S
O463 Dy456 2.700 . S
O463 Dy459 2.289 1_554 S
O463 C464 1.282 1_545 S
C464 O462 1.254 . S
C464 O463 1.282 1_565 S
C465 O470 1.219 1_554 S
C465 O471 1.268 . S
O466 Dy459 2.351 . S
O466 C474 1.249 1_556 S
O467 Dy456 2.326 . S
O467 C474 1.267 . S
O468 C457 1.185 . S
O468 Dy459 2.398 . S
O469 C457 1.355 . S
O469 Dy459 2.491 . S
O470 Dy459 2.416 . S
O470 C465 1.219 1_556 S
O471 Dy456 2.310 . S
O471 Dy459 2.664 1_554 S
O471 C465 1.268 . S
O472 Dy456 2.351 . S
O472 C475 1.249 . S
O473 Dy459 2.326 . S
O473 C475 1.267 1_556 S
C474 O466 1.249 1_554 S
C474 O467 1.267 . S
C475 O472 1.249 . S
C475 O473 1.267 1_554 S
Dy476 O480 2.398 . S
Dy476 O481 2.491 . S
Dy476 O482 2.403 . S
Dy476 O483 2.664 . S
Dy476 O487 2.326 . S
Dy476 O491 2.310 . S
Dy476 O492 2.351 . S
C477 O488 1.185 . S
C477 O489 1.355 . S
C478 O480 1.185 . S
C478 O481 1.355 . S
Dy479 O483 2.310 . S
Dy479 O486 2.351 . S
Dy479 O488 2.398 . S
Dy479 O489 2.491 . S
Dy479 O490 2.403 . S
Dy479 O491 2.664 . S
Dy479 O493 2.326 . S
O480 Dy476 2.398 . S
O480 C478 1.185 . S
O481 Dy476 2.491 . S
O481 C478 1.355 . S
O482 Dy476 2.403 . S
O482 C484 1.254 . S
O483 Dy476 2.664 . S
O483 Dy479 2.310 . S
O483 C484 1.268 . S
C484 O482 1.254 . S
C484 O483 1.268 . S
C485 O490 1.254 . S
C485 O491 1.268 . S
O486 Dy479 2.351 . S
O486 C494 1.249 . S
O487 Dy476 2.326 . S
O487 C494 1.267 . S
O488 C477 1.185 . S
O488 Dy479 2.398 . S
O489 C477 1.355 . S
O489 Dy479 2.491 . S
O490 Dy479 2.403 . S
O490 C485 1.254 . S
O491 Dy476 2.310 . S
O491 Dy479 2.664 . S
O491 C485 1.268 . S
O492 Dy476 2.351 . S
O492 C495 1.249 . S
O493 Dy479 2.326 . S
O493 C495 1.267 . S
C494 O486 1.249 . S
C494 O487 1.267 . S
C495 O492 1.249 . S
C495 O493 1.267 . S
Dy496 O500 2.398 . S
Dy496 O501 2.491 . S
Dy496 O502 2.403 . S
Dy496 O503 2.664 1_556 S
Dy496 O507 2.326 . S
Dy496 O511 2.310 1_556 S
Dy496 O512 2.351 1_556 S
C497 O508 1.185 . S
C497 O509 1.355 . S
C498 O500 1.185 . S
C498 O501 1.355 . S
Dy499 O503 2.310 . S
Dy499 O506 2.351 . S
Dy499 O508 2.398 . S
Dy499 O509 2.491 . S
Dy499 O510 2.403 . S
Dy499 O511 2.664 . S
Dy499 O513 2.326 . S
O500 Dy496 2.398 . S
O500 C498 1.185 . S
O501 Dy496 2.491 . S
O501 C498 1.355 . S
O502 Dy496 2.403 . S
O502 C504 1.254 1_556 S
O503 Dy496 2.664 1_554 S
O503 Dy499 2.310 . S
O503 C504 1.268 . S
C504 O502 1.254 1_554 S
C504 O503 1.268 . S
C505 O510 1.254 . S
C505 O511 1.268 . S
O506 Dy499 2.351 . S
O506 C514 1.249 1_554 S
O507 Dy496 2.326 . S
O507 C514 1.267 . S
O508 C497 1.185 . S
O508 Dy499 2.398 . S
O509 C497 1.355 . S
O509 Dy499 2.491 . S
O510 Dy499 2.403 . S
O510 C505 1.254 . S
O511 Dy496 2.310 1_554 S
O511 Dy499 2.664 . S
O511 C505 1.268 . S
O512 Dy496 2.351 1_554 S
O512 C515 1.249 . S
O513 Dy499 2.326 . S
O513 C515 1.267 . S
C514 O506 1.249 1_556 S
C514 O507 1.267 . S
C515 O512 1.249 . S
C515 O513 1.267 . S
Dy516 O520 2.398 . S
Dy516 O521 2.491 . S
Dy516 O522 2.403 . S
Dy516 O523 2.664 . S
Dy516 O527 2.326 . S
Dy516 O531 2.310 . S
Dy516 O532 2.351 . S
C517 O528 1.185 . S
C517 O529 1.355 . S
C518 O520 1.185 . S
C518 O521 1.355 . S
Dy519 O523 2.310 . S
Dy519 O526 2.351 . S
Dy519 O528 2.398 . S
Dy519 O529 2.491 . S
Dy519 O530 2.403 . S
Dy519 O531 2.664 . S
Dy519 O533 2.326 . S
O520 Dy516 2.398 . S
O520 C518 1.185 . S
O521 Dy516 2.491 . S
O521 C518 1.355 . S
O522 Dy516 2.403 . S
O522 C524 1.254 . S
O523 Dy516 2.664 . S
O523 Dy519 2.310 . S
O523 C524 1.268 . S
C524 O522 1.254 . S
C524 O523 1.268 . S
C525 O530 1.254 . S
C525 O531 1.268 . S
O526 Dy519 2.351 . S
O526 C534 1.249 . S
O527 Dy516 2.326 . S
O527 C534 1.267 . S
O528 C517 1.185 . S
O528 Dy519 2.398 . S
O529 C517 1.355 . S
O529 Dy519 2.491 . S
O530 Dy519 2.403 . S
O530 C525 1.254 . S
O531 Dy516 2.310 . S
O531 Dy519 2.664 . S
O531 C525 1.268 . S
O532 Dy516 2.351 . S
O532 C535 1.249 . S
O533 Dy519 2.326 . S
O533 C535 1.267 . S
C534 O526 1.249 . S
C534 O527 1.267 . S
C535 O532 1.249 . S
C535 O533 1.267 . S
Dy536 O540 2.398 1_455 S
Dy536 O541 2.491 1_455 S
Dy536 O542 2.403 . S
Dy536 O543 2.664 . S
Dy536 O547 2.326 1_455 S
Dy536 O551 2.310 . S
Dy536 O552 2.351 . S
C537 O548 1.185 . S
C537 O549 1.355 . S
C538 O540 1.185 . S
C538 O541 1.355 . S
Dy539 O543 2.310 . S
Dy539 O546 2.351 1_455 S
Dy539 O548 2.398 . S
Dy539 O549 2.491 . S
Dy539 O550 2.403 . S
Dy539 O551 2.664 . S
Dy539 O553 2.326 . S
O540 Dy536 2.398 1_655 S
O540 C538 1.185 . S
O541 Dy536 2.491 1_655 S
O541 C538 1.355 . S
O542 Dy536 2.403 . S
O542 C544 1.254 . S
O543 Dy536 2.664 . S
O543 Dy539 2.310 . S
O543 C544 1.268 . S
C544 O542 1.254 . S
C544 O543 1.268 . S
C545 O550 1.254 . S
C545 O551 1.268 . S
O546 Dy539 2.351 1_655 S
O546 C554 1.249 . S
O547 Dy536 2.326 1_655 S
O547 C554 1.267 . S
O548 C537 1.185 . S
O548 Dy539 2.398 . S
O549 C537 1.355 . S
O549 Dy539 2.491 . S
O550 Dy539 2.403 . S
O550 C545 1.254 . S
O551 Dy536 2.310 . S
O551 Dy539 2.664 . S
O551 C545 1.268 . S
O552 Dy536 2.351 . S
O552 C555 1.249 . S
O553 Dy539 2.326 . S
O553 C555 1.267 . S
C554 O546 1.249 . S
C554 O547 1.267 . S
C555 O552 1.249 . S
C555 O553 1.267 . S
Dy556 O560 2.398 . S
Dy556 O561 2.491 . S
Dy556 O562 2.403 . S
Dy556 O563 2.664 . S
Dy556 O567 2.326 . S
Dy556 O571 2.310 . S
Dy556 O572 2.351 . S
C557 O568 1.185 . S
C557 O569 1.355 . S
C558 O560 1.185 . S
C558 O561 1.355 . S
Dy559 O563 2.310 . S
Dy559 O566 2.351 . S
Dy559 O568 2.398 . S
Dy559 O569 2.491 . S
Dy559 O570 2.403 . S
Dy559 O571 2.664 . S
Dy559 O573 2.326 . S
O560 Dy556 2.398 . S
O560 C558 1.185 . S
O561 Dy556 2.491 . S
O561 C558 1.355 . S
O562 Dy556 2.403 . S
O562 C564 1.254 . S
O563 Dy556 2.664 . S
O563 Dy559 2.310 . S
O563 C564 1.268 . S
C564 O562 1.254 . S
C564 O563 1.268 . S
C565 O570 1.254 . S
C565 O571 1.268 . S
O566 Dy559 2.351 . S
O566 C574 1.249 . S
O567 Dy556 2.326 . S
O567 C574 1.267 . S
O568 C557 1.185 . S
O568 Dy559 2.398 . S
O569 C557 1.355 . S
O569 Dy559 2.491 . S
O570 Dy559 2.403 . S
O570 C565 1.254 . S
O571 Dy556 2.310 . S
O571 Dy559 2.664 . S
O571 C565 1.268 . S
O572 Dy556 2.351 . S
O572 C575 1.249 . S
O573 Dy559 2.326 . S
O573 C575 1.267 . S
C574 O566 1.249 . S
C574 O567 1.267 . S
C575 O572 1.249 . S
C575 O573 1.267 . S
Dy576 O580 2.398 . S
Dy576 O581 2.491 . S
Dy576 O582 2.403 . S
Dy576 O583 2.664 . S
Dy576 O587 2.326 . S
Dy576 O591 2.310 . S
Dy576 O592 2.351 . S
C577 O588 1.185 . S
C577 O589 1.355 . S
C578 O580 1.185 . S
C578 O581 1.355 . S
Dy579 O583 2.310 . S
Dy579 O586 2.351 . S
Dy579 O588 2.398 . S
Dy579 O589 2.491 . S
Dy579 O590 2.403 . S
Dy579 O591 2.664 . S
Dy579 O593 2.326 . S
O580 Dy576 2.398 . S
O580 C578 1.185 . S
O581 Dy576 2.491 . S
O581 C578 1.355 . S
O582 Dy576 2.403 . S
O582 C584 1.254 . S
O583 Dy576 2.664 . S
O583 Dy579 2.310 . S
O583 C584 1.268 . S
C584 O582 1.254 . S
C584 O583 1.268 . S
C585 O590 1.254 . S
C585 O591 1.268 . S
O586 Dy579 2.351 . S
O586 C594 1.249 . S
O587 Dy576 2.326 . S
O587 C594 1.267 . S
O588 C577 1.185 . S
O588 Dy579 2.398 . S
O589 C577 1.355 . S
O589 Dy579 2.491 . S
O590 Dy579 2.403 . S
O590 C585 1.254 . S
O591 Dy576 2.310 . S
O591 Dy579 2.664 . S
O591 C585 1.268 . S
O592 Dy576 2.351 . S
O592 C595 1.249 . S
O593 Dy579 2.326 . S
O593 C595 1.267 . S
C594 O586 1.249 . S
C594 O587 1.267 . S
C595 O592 1.249 . S
C595 O593 1.267 . S
Dy596 O600 2.398 . S
Dy596 O601 2.491 . S
Dy596 O602 2.403 . S
Dy596 O603 2.664 . S
Dy596 O607 2.326 . S
Dy596 O611 2.310 . S
Dy596 O612 2.351 . S
C597 O608 1.185 . S
C597 O609 1.355 . S
C598 O600 1.185 . S
C598 O601 1.355 . S
Dy599 O603 2.310 . S
Dy599 O606 2.351 . S
Dy599 O608 2.398 . S
Dy599 O609 2.491 . S
Dy599 O610 2.403 . S
Dy599 O611 2.664 . S
Dy599 O613 2.326 . S
O600 Dy596 2.398 . S
O600 C598 1.185 . S
O601 Dy596 2.491 . S
O601 C598 1.355 . S
O602 Dy596 2.403 . S
O602 C604 1.254 . S
O603 Dy596 2.664 . S
O603 Dy599 2.310 . S
O603 C604 1.268 . S
C604 O602 1.254 . S
C604 O603 1.268 . S
C605 O610 1.254 . S
C605 O611 1.268 . S
O606 Dy599 2.351 . S
O606 C614 1.249 . S
O607 Dy596 2.326 . S
O607 C614 1.267 . S
O608 C597 1.185 . S
O608 Dy599 2.398 . S
O609 C597 1.355 . S
O609 Dy599 2.491 . S
O610 Dy599 2.403 . S
O610 C605 1.254 . S
O611 Dy596 2.310 . S
O611 Dy599 2.664 . S
O611 C605 1.268 . S
O612 Dy596 2.351 . S
O612 C615 1.249 . S
O613 Dy599 2.326 . S
O613 C615 1.267 . S
C614 O606 1.249 . S
C614 O607 1.267 . S
C615 O612 1.249 . S
C615 O613 1.267 . S
Dy616 O620 2.398 . S
Dy616 O621 2.491 . S
Dy616 O622 2.403 . S
Dy616 O623 2.664 . S
Dy616 O627 2.326 . S
Dy616 O631 2.310 . S
Dy616 O632 2.351 . S
C617 O628 1.185 . S
C617 O629 1.355 . S
C618 O620 1.185 . S
C618 O621 1.355 . S
Dy619 O623 2.310 . S
Dy619 O626 2.351 . S
Dy619 O628 2.398 . S
Dy619 O629 2.491 . S
Dy619 O630 2.403 . S
Dy619 O631 2.664 . S
Dy619 O633 2.326 . S
O620 Dy616 2.398 . S
O620 C618 1.185 . S
O621 Dy616 2.491 . S
O621 C618 1.355 . S
O622 Dy616 2.403 . S
O622 C624 1.254 . S
O623 Dy616 2.664 . S
O623 Dy619 2.310 . S
O623 C624 1.268 . S
C624 O622 1.254 . S
C624 O623 1.268 . S
C625 O630 1.254 . S
C625 O631 1.268 . S
O626 Dy619 2.351 . S
O626 C634 1.249 . S
O627 Dy616 2.326 . S
O627 C634 1.267 . S
O628 C617 1.185 . S
O628 Dy619 2.398 . S
O629 C617 1.355 . S
O629 Dy619 2.491 . S
O630 Dy619 2.403 . S
O630 C625 1.254 . S
O631 Dy616 2.310 . S
O631 Dy619 2.664 . S
O631 C625 1.268 . S
O632 Dy616 2.351 . S
O632 C635 1.249 . S
O633 Dy619 2.326 . S
O633 C635 1.267 . S
C634 O626 1.249 . S
C634 O627 1.267 . S
C635 O632 1.249 . S
C635 O633 1.267 . S
Dy636 O640 2.398 1_554 S
Dy636 O641 2.491 . S
Dy636 O642 2.403 1_554 S
Dy636 O643 2.664 1_554 S
Dy636 O647 2.326 1_554 S
Dy636 O651 2.310 . S
Dy636 O652 2.351 . S
C637 O648 1.185 . S
C637 O649 1.355 . S
C638 O640 1.217 . S
C638 O641 1.315 1_556 S
Dy639 O643 2.310 1_654 S
Dy639 O646 2.351 . S
Dy639 O648 2.398 . S
Dy639 O649 2.491 . S
Dy639 O650 2.403 . S
Dy639 O651 2.664 1_655 S
Dy639 O653 2.311 1_655 S
O640 Dy636 2.398 1_556 S
O640 C638 1.217 . S
O641 Dy636 2.491 . S
O641 C638 1.315 1_554 S
O642 Dy636 2.403 1_556 S
O642 C644 1.254 . S
O643 Dy636 2.664 1_556 S
O643 Dy639 2.310 1_456 S
O643 C644 1.268 . S
C644 O642 1.254 . S
C644 O643 1.268 . S
C645 O650 1.254 1_455 S
C645 O651 1.268 . S
O646 Dy639 2.351 . S
O646 C654 1.249 1_655 S
O647 Dy636 2.326 1_556 S
O647 C654 1.267 1_556 S
O648 C637 1.185 . S
O648 Dy639 2.398 . S
O649 C637 1.355 . S
O649 Dy639 2.491 . S
O650 Dy639 2.403 . S
O650 C645 1.254 1_655 S
O651 Dy636 2.310 . S
O651 Dy639 2.664 1_455 S
O651 C645 1.268 . S
O652 Dy636 2.351 . S
O652 C655 1.249 . S
O653 Dy639 2.311 1_455 S
O653 C655 1.299 . S
C654 O646 1.249 1_455 S
C654 O647 1.267 1_554 S
C655 O652 1.249 . S
C655 O653 1.299 . S
C656 C657 1.349 1_655 S
C656 C658 1.327 . S
C656 H681 0.950 . S
C657 C656 1.349 1_455 S
C657 C673 1.349 . S
C658 C656 1.327 . S
C658 C677 1.429 1_655 S
C658 H682 0.950 . S
C659 C676 1.574 . S
C659 C678 1.368 . S
C659 H683 0.949 . S
H660 C664 0.950 1_655 S
C661 C662 1.319 1_556 S
C661 C663 1.327 . S
C661 H684 0.950 . S
C662 C661 1.319 1_554 S
C662 C674 1.363 . S
C663 C661 1.327 . S
C663 C679 1.429 . S
C663 H685 0.950 . S
C664 H660 0.950 1_455 S
C664 C672 1.574 . S
C664 C680 1.368 . S
H665 C673 0.950 . S
H666 C671 0.950 . S
H667 C672 0.949 1_655 S
H668 C674 0.950 . S
H669 C675 0.950 . S
H670 C676 0.949 . S
C671 H666 0.950 . S
C671 C673 1.327 . S
C671 C677 1.429 . S
C672 C664 1.574 . S
C672 H667 0.949 1_455 S
C672 C678 1.368 . S
C673 C657 1.349 . S
C673 H665 0.950 . S
C673 C671 1.327 . S
C674 C662 1.363 . S
C674 H668 0.950 . S
C674 C675 1.327 . S
C675 H669 0.950 . S
C675 C674 1.327 . S
C675 C679 1.429 1_554 S
C676 C659 1.574 . S
C676 H670 0.949 . S
C676 C680 1.368 . S
C677 C658 1.429 1_455 S
C677 C671 1.429 . S
C677 C678 1.523 . S
C678 C659 1.368 . S
C678 C672 1.368 . S
C678 C677 1.523 . S
C679 C663 1.429 . S
C679 C675 1.429 1_556 S
C679 C680 1.523 . S
C680 C664 1.368 . S
C680 C676 1.368 . S
C680 C679 1.523 . S
H681 C656 0.950 . S
H682 C658 0.950 . S
H683 C659 0.949 . S
H684 C661 0.950 . S
H685 C663 0.950 . S
C686 C687 1.349 . S
C686 C688 1.327 . S
C686 H711 0.950 . S
C687 C686 1.349 . S
C687 C703 1.349 . S
C688 C686 1.327 . S
C688 C707 1.429 . S
C688 H712 0.950 . S
C689 C706 1.574 . S
C689 C708 1.368 . S
C689 H713 0.949 . S
H690 C694 0.949 . S
C691 C692 1.349 . S
C691 C693 1.327 . S
C691 H714 0.950 . S
C692 C691 1.349 . S
C692 C704 1.349 . S
C693 C691 1.327 . S
C693 C709 1.429 . S
C693 H715 0.950 . S
C694 H690 0.949 . S
C694 C702 1.574 . S
C694 C710 1.368 . S
H695 C703 0.950 . S
H696 C701 0.950 . S
H697 C702 0.949 . S
H698 C704 0.950 . S
H699 C705 0.950 . S
H700 C706 0.949 . S
C701 H696 0.950 . S
C701 C703 1.327 . S
C701 C707 1.429 . S
C702 C694 1.574 . S
C702 H697 0.949 . S
C702 C708 1.368 . S
C703 C687 1.349 . S
C703 H695 0.950 . S
C703 C701 1.327 . S
C704 C692 1.349 . S
C704 H698 0.950 . S
C704 C705 1.327 . S
C705 H699 0.950 . S
C705 C704 1.327 . S
C705 C709 1.429 . S
C706 C689 1.574 . S
C706 H700 0.949 . S
C706 C710 1.368 . S
C707 C688 1.429 . S
C707 C701 1.429 . S
C707 C708 1.523 . S
C708 C689 1.368 . S
C708 C702 1.368 . S
C708 C707 1.523 . S
C709 C693 1.429 . S
C709 C705 1.429 . S
C709 C710 1.523 . S
C710 C694 1.368 . S
C710 C706 1.368 . S
C710 C709 1.523 . S
H711 C686 0.950 . S
H712 C688 0.950 . S
H713 C689 0.949 . S
H714 C691 0.950 . S
H715 C693 0.950 . S
C716 C717 1.349 . S
C716 C718 1.327 . S
C716 H741 0.950 . S
C717 C716 1.349 . S
C717 C733 1.349 . S
C718 C716 1.327 . S
C718 C737 1.429 . S
C718 H742 0.950 . S
C719 C736 1.574 . S
C719 C738 1.368 . S
C719 H743 0.949 . S
H720 C724 0.949 . S
C721 C722 1.349 . S
C721 C723 1.327 . S
C721 H744 0.950 . S
C722 C721 1.349 . S
C722 C734 1.349 . S
C723 C721 1.327 . S
C723 C739 1.429 . S
C723 H745 0.950 . S
C724 H720 0.949 . S
C724 C732 1.574 . S
C724 C740 1.368 . S
H725 C733 0.950 . S
H726 C731 0.950 . S
H727 C732 0.949 . S
H728 C734 0.950 . S
H729 C735 0.950 . S
H730 C736 0.949 . S
C731 H726 0.950 . S
C731 C733 1.327 . S
C731 C737 1.429 . S
C732 C724 1.574 . S
C732 H727 0.949 . S
C732 C738 1.368 . S
C733 C717 1.349 . S
C733 H725 0.950 . S
C733 C731 1.327 . S
C734 C722 1.349 . S
C734 H728 0.950 . S
C734 C735 1.327 . S
C735 H729 0.950 . S
C735 C734 1.327 . S
C735 C739 1.429 . S
C736 C719 1.574 . S
C736 H730 0.949 . S
C736 C740 1.368 . S
C737 C718 1.429 . S
C737 C731 1.429 . S
C737 C738 1.523 . S
C738 C719 1.368 . S
C738 C732 1.368 . S
C738 C737 1.523 . S
C739 C723 1.429 . S
C739 C735 1.429 . S
C739 C740 1.523 . S
C740 C724 1.368 . S
C740 C736 1.368 . S
C740 C739 1.523 . S
H741 C716 0.950 . S
H742 C718 0.950 . S
H743 C719 0.949 . S
H744 C721 0.950 . S
H745 C723 0.950 . S
C746 C747 1.349 . S
C746 C748 1.327 . S
C746 H771 0.950 . S
C747 C746 1.349 . S
C747 C763 1.349 . S
C748 C746 1.327 . S
C748 C767 1.429 . S
C748 H772 0.950 . S
C749 C766 1.574 . S
C749 C768 1.368 . S
C749 H773 0.949 . S
H750 C754 0.949 . S
C751 C752 1.349 . S
C751 C753 1.327 . S
C751 H774 0.950 . S
C752 C751 1.349 . S
C752 C764 1.349 . S
C753 C751 1.327 . S
C753 C769 1.429 . S
C753 H775 0.950 . S
C754 H750 0.949 . S
C754 C762 1.574 . S
C754 C770 1.368 . S
H755 C763 0.950 . S
H756 C761 0.950 . S
H757 C762 0.949 . S
H758 C764 0.950 . S
H759 C765 0.950 . S
H760 C766 0.949 . S
C761 H756 0.950 . S
C761 C763 1.327 . S
C761 C767 1.429 . S
C762 C754 1.574 . S
C762 H757 0.949 . S
C762 C768 1.368 . S
C763 C747 1.349 . S
C763 H755 0.950 . S
C763 C761 1.327 . S
C764 C752 1.349 . S
C764 H758 0.950 . S
C764 C765 1.327 . S
C765 H759 0.950 . S
C765 C764 1.327 . S
C765 C769 1.429 . S
C766 C749 1.574 . S
C766 H760 0.949 . S
C766 C770 1.368 . S
C767 C748 1.429 . S
C767 C761 1.429 . S
C767 C768 1.523 . S
C768 C749 1.368 . S
C768 C762 1.368 . S
C768 C767 1.523 . S
C769 C753 1.429 . S
C769 C765 1.429 . S
C769 C770 1.523 . S
C770 C754 1.368 . S
C770 C766 1.368 . S
C770 C769 1.523 . S
H771 C746 0.950 . S
H772 C748 0.950 . S
H773 C749 0.949 . S
H774 C751 0.950 . S
H775 C753 0.950 . S
C776 C777 1.349 . S
C776 C778 1.327 . S
C776 H801 0.950 . S
C777 C776 1.349 . S
C777 C793 1.349 . S
C778 C776 1.327 . S
C778 C797 1.429 . S
C778 H802 0.950 . S
C779 C796 1.574 . S
C779 C798 1.368 . S
C779 H803 0.949 1_455 S
H780 C784 0.949 . S
C781 C782 1.349 . S
C781 C783 1.327 . S
C781 H804 0.950 . S
C782 C781 1.349 . S
C782 C794 1.349 . S
C783 C781 1.327 . S
C783 C799 1.429 . S
C783 H805 0.947 1_455 S
C784 H780 0.949 . S
C784 C792 1.574 . S
C784 C800 1.368 . S
H785 C793 0.950 1_655 S
H786 C791 0.950 1_655 S
H787 C792 0.949 . S
H788 C794 0.950 . S
H789 C795 0.950 . S
H790 C796 0.949 1_655 S
C791 H786 0.950 1_455 S
C791 C793 1.327 . S
C791 C797 1.429 . S
C792 C784 1.574 . S
C792 H787 0.949 . S
C792 C798 1.368 . S
C793 C777 1.349 . S
C793 H785 0.950 1_455 S
C793 C791 1.327 . S
C794 C782 1.349 . S
C794 H788 0.950 . S
C794 C795 1.327 . S
C795 H789 0.950 . S
C795 C794 1.327 . S
C795 C799 1.429 . S
C796 C779 1.574 . S
C796 H790 0.949 1_455 S
C796 C800 1.368 . S
C797 C778 1.429 . S
C797 C791 1.429 . S
C797 C798 1.523 . S
C798 C779 1.368 . S
C798 C792 1.368 . S
C798 C797 1.523 . S
C799 C783 1.429 . S
C799 C795 1.429 . S
C799 C800 1.523 . S
C800 C784 1.368 . S
C800 C796 1.368 . S
C800 C799 1.523 . S
H801 C776 0.950 . S
H802 C778 0.950 . S
H803 C779 0.949 1_655 S
H804 C781 0.950 . S
H805 C783 0.947 1_655 S
C806 C807 1.349 . S
C806 C808 1.327 . S
C806 H831 0.950 . S
C807 C806 1.349 . S
C807 C823 1.349 . S
C808 C806 1.327 . S
C808 C827 1.429 . S
C808 H832 0.950 . S
C809 C826 1.574 . S
C809 C828 1.368 . S
C809 H833 0.949 . S
H810 C814 0.949 . S
C811 C812 1.349 . S
C811 C813 1.327 . S
C811 H834 0.950 . S
C812 C811 1.349 . S
C812 C824 1.349 . S
C813 C811 1.327 . S
C813 C829 1.429 . S
C813 H835 0.950 . S
C814 H810 0.949 . S
C814 C822 1.574 . S
C814 C830 1.368 . S
H815 C823 0.950 . S
H816 C821 0.950 . S
H817 C822 0.949 . S
H818 C824 0.950 . S
H819 C825 0.950 . S
H820 C826 0.949 . S
C821 H816 0.950 . S
C821 C823 1.327 . S
C821 C827 1.429 . S
C822 C814 1.574 . S
C822 H817 0.949 . S
C822 C828 1.368 . S
C823 C807 1.349 . S
C823 H815 0.950 . S
C823 C821 1.327 . S
C824 C812 1.349 . S
C824 H818 0.950 . S
C824 C825 1.327 . S
C825 H819 0.950 . S
C825 C824 1.327 . S
C825 C829 1.429 . S
C826 C809 1.574 . S
C826 H820 0.949 . S
C826 C830 1.368 . S
C827 C808 1.429 . S
C827 C821 1.429 . S
C827 C828 1.523 . S
C828 C809 1.368 . S
C828 C822 1.368 . S
C828 C827 1.523 . S
C829 C813 1.429 . S
C829 C825 1.429 . S
C829 C830 1.523 . S
C830 C814 1.368 . S
C830 C826 1.368 . S
C830 C829 1.523 . S
H831 C806 0.950 . S
H832 C808 0.950 . S
H833 C809 0.949 . S
H834 C811 0.950 . S
H835 C813 0.950 . S
C836 C837 1.349 . S
C836 C838 1.327 . S
C836 H861 0.950 . S
C837 C836 1.349 . S
C837 C853 1.349 . S
C838 C836 1.327 . S
C838 C857 1.429 . S
C838 H862 0.950 . S
C839 C856 1.574 . S
C839 C858 1.368 . S
C839 H863 0.949 . S
H840 C844 0.949 . S
C841 C842 1.349 . S
C841 C843 1.327 . S
C841 H864 0.950 . S
C842 C841 1.349 . S
C842 C854 1.349 . S
C843 C841 1.327 . S
C843 C859 1.429 . S
C843 H865 0.950 . S
C844 H840 0.949 . S
C844 C852 1.574 . S
C844 C860 1.368 . S
H845 C853 0.950 . S
H846 C851 0.950 . S
H847 C852 0.949 . S
H848 C854 0.950 . S
H849 C855 0.950 . S
H850 C856 0.949 . S
C851 H846 0.950 . S
C851 C853 1.327 . S
C851 C857 1.429 . S
C852 C844 1.574 . S
C852 H847 0.949 . S
C852 C858 1.368 . S
C853 C837 1.349 . S
C853 H845 0.950 . S
C853 C851 1.327 . S
C854 C842 1.349 . S
C854 H848 0.950 . S
C854 C855 1.327 . S
C855 H849 0.950 . S
C855 C854 1.327 . S
C855 C859 1.429 . S
C856 C839 1.574 . S
C856 H850 0.949 . S
C856 C860 1.368 . S
C857 C838 1.429 . S
C857 C851 1.429 . S
C857 C858 1.523 . S
C858 C839 1.368 . S
C858 C852 1.368 . S
C858 C857 1.523 . S
C859 C843 1.429 . S
C859 C855 1.429 . S
C859 C860 1.523 . S
C860 C844 1.368 . S
C860 C856 1.368 . S
C860 C859 1.523 . S
H861 C836 0.950 . S
H862 C838 0.950 . S
H863 C839 0.949 . S
H864 C841 0.950 . S
H865 C843 0.950 . S
C866 C867 1.349 . S
C866 C868 1.327 . S
C866 H891 0.950 . S
C867 C866 1.349 . S
C867 C883 1.349 . S
C868 C866 1.327 . S
C868 C887 1.429 . S
C868 H892 0.950 . S
C869 C886 1.574 . S
C869 C888 1.368 . S
C869 H893 0.949 . S
H870 C874 0.949 . S
C871 C872 1.349 . S
C871 C873 1.327 . S
C871 H894 0.950 . S
C872 C871 1.349 . S
C872 C884 1.349 . S
C873 C871 1.327 . S
C873 C889 1.429 . S
C873 H895 0.950 . S
C874 H870 0.949 . S
C874 C882 1.574 . S
C874 C890 1.368 . S
H875 C883 0.950 . S
H876 C881 0.950 . S
H877 C882 0.949 . S
H878 C884 0.950 . S
H879 C885 0.950 . S
H880 C886 0.949 . S
C881 H876 0.950 . S
C881 C883 1.327 . S
C881 C887 1.429 . S
C882 C874 1.574 . S
C882 H877 0.949 . S
C882 C888 1.368 . S
C883 C867 1.349 . S
C883 H875 0.950 . S
C883 C881 1.327 . S
C884 C872 1.349 . S
C884 H878 0.950 . S
C884 C885 1.327 . S
C885 H879 0.950 . S
C885 C884 1.327 . S
C885 C889 1.429 . S
C886 C869 1.574 . S
C886 H880 0.949 . S
C886 C890 1.368 . S
C887 C868 1.429 . S
C887 C881 1.429 . S
C887 C888 1.523 . S
C888 C869 1.368 . S
C888 C882 1.368 . S
C888 C887 1.523 . S
C889 C873 1.429 . S
C889 C885 1.429 . S
C889 C890 1.523 . S
C890 C874 1.368 . S
C890 C886 1.368 . S
C890 C889 1.523 . S
H891 C866 0.950 . S
H892 C868 0.950 . S
H893 C869 0.949 . S
H894 C871 0.950 . S
H895 C873 0.950 . S
C896 C897 1.349 . S
C896 C898 1.327 . S
C896 H921 0.950 . S
C897 C896 1.349 . S
C897 C913 1.349 . S
C898 C896 1.327 . S
C898 C917 1.429 . S
C898 H922 0.950 . S
C899 C916 1.574 . S
C899 C918 1.368 . S
C899 H923 0.949 . S
H900 C904 0.949 . S
C901 C902 1.349 1_455 S
C901 C903 1.327 1_455 S
C901 H924 0.950 . S
C902 C901 1.349 1_655 S
C902 C914 1.349 . S
C903 C901 1.327 1_655 S
C903 C919 1.429 . S
C903 H925 0.950 . S
C904 H900 0.949 . S
C904 C912 1.574 . S
C904 C920 1.368 . S
H905 C913 0.950 . S
H906 C911 0.950 . S
H907 C912 0.949 . S
H908 C914 0.950 . S
H909 C915 0.950 . S
H910 C916 0.949 . S
C911 H906 0.950 . S
C911 C913 1.327 . S
C911 C917 1.429 . S
C912 C904 1.574 . S
C912 H907 0.949 . S
C912 C918 1.368 . S
C913 C897 1.349 . S
C913 H905 0.950 . S
C913 C911 1.327 . S
C914 C902 1.349 . S
C914 H908 0.950 . S
C914 C915 1.327 . S
C915 H909 0.950 . S
C915 C914 1.327 . S
C915 C919 1.429 . S
C916 C899 1.574 . S
C916 H910 0.949 . S
C916 C920 1.368 . S
C917 C898 1.429 . S
C917 C911 1.429 . S
C917 C918 1.523 . S
C918 C899 1.368 . S
C918 C912 1.368 . S
C918 C917 1.523 . S
C919 C903 1.429 . S
C919 C915 1.429 . S
C919 C920 1.523 . S
C920 C904 1.368 . S
C920 C916 1.368 . S
C920 C919 1.523 . S
H921 C896 0.950 . S
H922 C898 0.950 . S
H923 C899 0.949 . S
H924 C901 0.950 . S
H925 C903 0.950 . S
C926 C927 1.349 . S
C926 C928 1.327 . S
C926 H951 0.950 . S
C927 C926 1.349 . S
C927 C943 1.349 . S
C928 C926 1.327 . S
C928 C947 1.429 . S
C928 H952 0.950 . S
C929 C946 1.574 . S
C929 C948 1.368 . S
C929 H953 0.949 . S
H930 C934 0.949 . S
C931 C932 1.349 . S
C931 C933 1.327 . S
C931 H954 0.950 . S
C932 C931 1.349 . S
C932 C944 1.349 . S
C933 C931 1.327 . S
C933 C949 1.429 . S
C933 H955 0.950 . S
C934 H930 0.949 . S
C934 C942 1.574 . S
C934 C950 1.368 . S
H935 C943 0.950 . S
H936 C941 0.950 . S
H937 C942 0.949 . S
H938 C944 0.950 . S
H939 C945 0.950 . S
H940 C946 0.949 . S
C941 H936 0.950 . S
C941 C943 1.327 . S
C941 C947 1.429 . S
C942 C934 1.574 . S
C942 H937 0.949 . S
C942 C948 1.368 . S
C943 C927 1.349 . S
C943 H935 0.950 . S
C943 C941 1.327 . S
C944 C932 1.349 . S
C944 H938 0.950 . S
C944 C945 1.327 . S
C945 H939 0.950 . S
C945 C944 1.327 . S
C945 C949 1.429 . S
C946 C929 1.574 . S
C946 H940 0.949 . S
C946 C950 1.368 . S
C947 C928 1.429 . S
C947 C941 1.429 . S
C947 C948 1.523 . S
C948 C929 1.368 . S
C948 C942 1.368 . S
C948 C947 1.523 . S
C949 C933 1.429 . S
C949 C945 1.429 . S
C949 C950 1.523 . S
C950 C934 1.368 . S
C950 C946 1.368 . S
C950 C949 1.523 . S
H951 C926 0.950 . S
H952 C928 0.950 . S
H953 C929 0.949 . S
H954 C931 0.950 . S
H955 C933 0.950 . S
C956 C957 1.349 . S
C956 C958 1.327 . S
C956 H981 0.950 1_545 S
C957 C956 1.349 . S
C957 C973 1.349 . S
C958 C956 1.327 . S
C958 C977 1.429 . S
C958 H982 0.950 1_545 S
C959 C976 1.574 . S
C959 C978 1.368 . S
C959 H983 0.949 . S
H960 C964 0.918 1_565 S
C961 C962 1.349 . S
C961 C963 1.327 . S
C961 H984 0.950 . S
C962 C961 1.349 . S
C962 C974 1.393 . S
C963 C961 1.327 . S
C963 C979 1.429 . S
C963 H985 0.950 . S
C964 H960 0.918 1_545 S
C964 C972 1.566 . S
C964 C980 1.413 . S
H965 C973 0.950 . S
H966 C971 0.950 . S
H967 C972 0.949 1_565 S
H968 C974 0.916 1_565 S
H969 C975 0.907 1_565 S
H970 C976 0.949 . S
C971 H966 0.950 . S
C971 C973 1.327 . S
C971 C977 1.429 . S
C972 C964 1.566 . S
C972 H967 0.949 1_545 S
C972 C978 1.368 . S
C973 C957 1.349 . S
C973 H965 0.950 . S
C973 C971 1.327 . S
C974 C962 1.393 . S
C974 H968 0.916 1_545 S
C974 C975 1.327 . S
C975 H969 0.907 1_545 S
C975 C974 1.327 . S
C975 C979 1.462 . S
C976 C959 1.574 . S
C976 H970 0.949 . S
C976 C980 1.368 . S
C977 C958 1.429 . S
C977 C971 1.429 . S
C977 C978 1.523 . S
C978 C959 1.368 . S
C978 C972 1.368 . S
C978 C977 1.523 . S
C979 C963 1.429 . S
C979 C975 1.462 . S
C979 C980 1.523 . S
C980 C964 1.413 . S
C980 C976 1.368 . S
C980 C979 1.523 . S
H981 C956 0.950 1_565 S
H982 C958 0.950 1_565 S
H983 C959 0.949 . S
H984 C961 0.950 . S
H985 C963 0.950 . S
C986 C987 1.349 . S
C986 C988 1.327 . S
C986 H1011 0.950 . S
C987 C986 1.349 . S
C987 C1003 1.349 . S
C988 C986 1.327 . S
C988 C1007 1.429 . S
C988 H1012 0.950 . S
C989 C1006 1.574 . S
C989 C1008 1.368 . S
C989 H1013 0.949 . S
H990 C994 0.949 . S
C991 C992 1.349 . S
C991 C993 1.327 . S
C991 H1014 0.950 . S
C992 C991 1.349 . S
C992 C1004 1.349 . S
C993 C991 1.327 . S
C993 C1009 1.429 . S
C993 H1015 0.950 . S
C994 H990 0.949 . S
C994 C1002 1.574 . S
C994 C1010 1.368 . S
H995 C1003 0.950 . S
H996 C1001 0.950 . S
H997 C1002 0.949 . S
H998 C1004 0.950 . S
H999 C1005 0.950 . S
H1000 C1006 0.949 . S
C1001 H996 0.950 . S
C1001 C1003 1.327 . S
C1001 C1007 1.429 . S
C1002 C994 1.574 . S
C1002 H997 0.949 . S
C1002 C1008 1.368 . S
C1003 C987 1.349 . S
C1003 H995 0.950 . S
C1003 C1001 1.327 . S
C1004 C992 1.349 . S
C1004 H998 0.950 . S
C1004 C1005 1.327 . S
C1005 H999 0.950 . S
C1005 C1004 1.327 . S
C1005 C1009 1.429 . S
C1006 C989 1.574 . S
C1006 H1000 0.949 . S
C1006 C1010 1.368 . S
C1007 C988 1.429 . S
C1007 C1001 1.429 . S
C1007 C1008 1.523 . S
C1008 C989 1.368 . S
C1008 C1002 1.368 . S
C1008 C1007 1.523 . S
C1009 C993 1.429 . S
C1009 C1005 1.429 . S
C1009 C1010 1.523 . S
C1010 C994 1.368 . S
C1010 C1006 1.368 . S
C1010 C1009 1.523 . S
H1011 C986 0.950 . S
H1012 C988 0.950 . S
H1013 C989 0.949 . S
H1014 C991 0.950 . S
H1015 C993 0.950 . S
C1016 C1017 1.349 . S
C1016 C1018 1.327 . S
C1016 H1041 0.950 . S
C1017 C1016 1.349 . S
C1017 C1033 1.349 . S
C1018 C1016 1.327 . S
C1018 C1037 1.429 . S
C1018 H1042 0.950 . S
C1019 C1036 1.574 . S
C1019 C1038 1.368 . S
C1019 H1043 0.949 . S
H1020 C1024 0.949 . S
C1021 C1022 1.349 . S
C1021 C1023 1.327 . S
C1021 H1044 0.950 . S
C1022 C1021 1.349 . S
C1022 C1034 1.349 1_655 S
C1023 C1021 1.327 . S
C1023 C1039 1.429 . S
C1023 H1045 0.950 . S
C1024 H1020 0.949 . S
C1024 C1032 1.574 . S
C1024 C1040 1.368 . S
H1025 C1033 0.950 . S
H1026 C1031 0.950 . S
H1027 C1032 0.949 . S
H1028 C1034 0.950 . S
H1029 C1035 0.950 1_455 S
H1030 C1036 0.949 . S
C1031 H1026 0.950 . S
C1031 C1033 1.327 . S
C1031 C1037 1.429 . S
C1032 C1024 1.574 . S
C1032 H1027 0.949 . S
C1032 C1038 1.368 . S
C1033 C1017 1.349 . S
C1033 H1025 0.950 . S
C1033 C1031 1.327 . S
C1034 C1022 1.349 1_455 S
C1034 H1028 0.950 . S
C1034 C1035 1.327 1_455 S
C1035 H1029 0.950 1_655 S
C1035 C1034 1.327 1_655 S
C1035 C1039 1.429 . S
C1036 C1019 1.574 . S
C1036 H1030 0.949 . S
C1036 C1040 1.368 . S
C1037 C1018 1.429 . S
C1037 C1031 1.429 . S
C1037 C1038 1.523 . S
C1038 C1019 1.368 . S
C1038 C1032 1.368 . S
C1038 C1037 1.523 . S
C1039 C1023 1.429 . S
C1039 C1035 1.429 . S
C1039 C1040 1.523 . S
C1040 C1024 1.368 . S
C1040 C1036 1.368 . S
C1040 C1039 1.523 . S
H1041 C1016 0.950 . S
H1042 C1018 0.950 . S
H1043 C1019 0.949 . S
H1044 C1021 0.950 . S
H1045 C1023 0.950 . S
C1046 C1047 1.349 . S
C1046 C1048 1.327 . S
C1046 H1071 0.950 . S
C1047 C1046 1.349 . S
C1047 C1063 1.349 . S
C1048 C1046 1.327 . S
C1048 C1067 1.429 . S
C1048 H1072 0.950 . S
C1049 C1066 1.574 . S
C1049 C1068 1.368 . S
C1049 H1073 0.949 . S
H1050 C1054 0.949 . S
C1051 C1052 1.349 . S
C1051 C1053 1.327 . S
C1051 H1074 0.950 . S
C1052 C1051 1.349 . S
C1052 C1064 1.349 . S
C1053 C1051 1.327 . S
C1053 C1069 1.429 . S
C1053 H1075 0.950 . S
C1054 H1050 0.949 . S
C1054 C1062 1.574 . S
C1054 C1070 1.368 . S
H1055 C1063 0.950 . S
H1056 C1061 0.950 . S
H1057 C1062 0.949 . S
H1058 C1064 0.950 . S
H1059 C1065 0.950 . S
H1060 C1066 0.949 . S
C1061 H1056 0.950 . S
C1061 C1063 1.327 . S
C1061 C1067 1.429 . S
C1062 C1054 1.574 . S
C1062 H1057 0.949 . S
C1062 C1068 1.368 . S
C1063 C1047 1.349 . S
C1063 H1055 0.950 . S
C1063 C1061 1.327 . S
C1064 C1052 1.349 . S
C1064 H1058 0.950 . S
C1064 C1065 1.327 . S
C1065 H1059 0.950 . S
C1065 C1064 1.327 . S
C1065 C1069 1.429 . S
C1066 C1049 1.574 . S
C1066 H1060 0.949 . S
C1066 C1070 1.368 . S
C1067 C1048 1.429 . S
C1067 C1061 1.429 . S
C1067 C1068 1.523 . S
C1068 C1049 1.368 . S
C1068 C1062 1.368 . S
C1068 C1067 1.523 . S
C1069 C1053 1.429 . S
C1069 C1065 1.429 . S
C1069 C1070 1.523 . S
C1070 C1054 1.368 . S
C1070 C1066 1.368 . S
C1070 C1069 1.523 . S
H1071 C1046 0.950 . S
H1072 C1048 0.950 . S
H1073 C1049 0.949 . S
H1074 C1051 0.950 . S
H1075 C1053 0.950 . S
C1076 C1077 1.349 . S
C1076 C1078 1.327 . S
C1076 H1101 0.950 . S
C1077 C1076 1.349 . S
C1077 C1093 1.349 . S
C1078 C1076 1.327 . S
C1078 C1097 1.429 . S
C1078 H1102 0.950 . S
C1079 C1096 1.574 . S
C1079 C1098 1.368 . S
C1079 H1103 0.949 . S
H1080 C1084 0.949 . S
C1081 C1082 1.349 . S
C1081 C1083 1.327 . S
C1081 H1104 0.950 . S
C1082 C1081 1.349 . S
C1082 C1094 1.349 . S
C1083 C1081 1.327 . S
C1083 C1099 1.429 . S
C1083 H1105 0.950 . S
C1084 H1080 0.949 . S
C1084 C1092 1.574 . S
C1084 C1100 1.368 . S
H1085 C1093 0.950 . S
H1086 C1091 0.950 . S
H1087 C1092 0.949 . S
H1088 C1094 0.950 . S
H1089 C1095 0.950 . S
H1090 C1096 0.949 . S
C1091 H1086 0.950 . S
C1091 C1093 1.327 . S
C1091 C1097 1.429 . S
C1092 C1084 1.574 . S
C1092 H1087 0.949 . S
C1092 C1098 1.368 . S
C1093 C1077 1.349 . S
C1093 H1085 0.950 . S
C1093 C1091 1.327 . S
C1094 C1082 1.349 . S
C1094 H1088 0.950 . S
C1094 C1095 1.327 . S
C1095 H1089 0.950 . S
C1095 C1094 1.327 . S
C1095 C1099 1.429 . S
C1096 C1079 1.574 . S
C1096 H1090 0.949 . S
C1096 C1100 1.368 . S
C1097 C1078 1.429 . S
C1097 C1091 1.429 . S
C1097 C1098 1.523 . S
C1098 C1079 1.368 . S
C1098 C1092 1.368 . S
C1098 C1097 1.523 . S
C1099 C1083 1.429 . S
C1099 C1095 1.429 . S
C1099 C1100 1.523 . S
C1100 C1084 1.368 . S
C1100 C1096 1.368 . S
C1100 C1099 1.523 . S
H1101 C1076 0.950 . S
H1102 C1078 0.950 . S
H1103 C1079 0.949 . S
H1104 C1081 0.950 . S
H1105 C1083 0.950 . S
C1106 C1107 1.349 . S
C1106 C1108 1.327 . S
C1106 H1131 0.950 . S
C1107 C1106 1.349 . S
C1107 C1123 1.349 . S
C1108 C1106 1.327 . S
C1108 C1127 1.429 . S
C1108 H1132 0.950 . S
C1109 C1126 1.574 . S
C1109 C1128 1.368 . S
C1109 H1133 0.949 . S
H1110 C1114 0.949 . S
C1111 C1112 1.349 . S
C1111 C1113 1.327 . S
C1111 H1134 0.950 . S
C1112 C1111 1.349 . S
C1112 C1124 1.349 . S
C1113 C1111 1.327 . S
C1113 C1129 1.429 . S
C1113 H1135 0.950 . S
C1114 H1110 0.949 . S
C1114 C1122 1.574 . S
C1114 C1130 1.368 . S
H1115 C1123 0.950 . S
H1116 C1121 0.950 . S
H1117 C1122 0.949 . S
H1118 C1124 0.950 . S
H1119 C1125 0.950 . S
H1120 C1126 0.949 . S
C1121 H1116 0.950 . S
C1121 C1123 1.327 . S
C1121 C1127 1.429 . S
C1122 C1114 1.574 . S
C1122 H1117 0.949 . S
C1122 C1128 1.368 . S
C1123 C1107 1.349 . S
C1123 H1115 0.950 . S
C1123 C1121 1.327 . S
C1124 C1112 1.349 . S
C1124 H1118 0.950 . S
C1124 C1125 1.327 . S
C1125 H1119 0.950 . S
C1125 C1124 1.327 . S
C1125 C1129 1.429 . S
C1126 C1109 1.574 . S
C1126 H1120 0.949 . S
C1126 C1130 1.368 . S
C1127 C1108 1.429 . S
C1127 C1121 1.429 . S
C1127 C1128 1.523 . S
C1128 C1109 1.368 . S
C1128 C1122 1.368 . S
C1128 C1127 1.523 . S
C1129 C1113 1.429 . S
C1129 C1125 1.429 . S
C1129 C1130 1.523 . S
C1130 C1114 1.368 . S
C1130 C1126 1.368 . S
C1130 C1129 1.523 . S
H1131 C1106 0.950 . S
H1132 C1108 0.950 . S
H1133 C1109 0.949 . S
H1134 C1111 0.950 . S
H1135 C1113 0.950 . S
C1136 C1137 1.349 . S
C1136 C1138 1.327 . S
C1136 H1161 0.950 . S
C1137 C1136 1.349 . S
C1137 C1153 1.349 . S
C1138 C1136 1.327 . S
C1138 C1157 1.429 . S
C1138 H1162 0.950 . S
C1139 C1156 1.574 . S
C1139 C1158 1.368 . S
C1139 H1163 0.949 . S
H1140 C1144 0.949 . S
C1141 C1142 1.348 1_545 S
C1141 C1143 1.327 1_545 S
C1141 H1164 0.950 . S
C1142 C1141 1.348 1_565 S
C1142 C1154 1.354 . S
C1143 C1141 1.327 1_565 S
C1143 C1159 1.429 . S
C1143 H1165 0.947 1_565 S
C1144 H1140 0.949 . S
C1144 C1152 1.574 . S
C1144 C1160 1.368 . S
H1145 C1153 0.950 . S
H1146 C1151 0.950 . S
H1147 C1152 0.949 . S
H1148 C1154 0.950 . S
H1149 C1155 0.950 . S
H1150 C1156 0.949 . S
C1151 H1146 0.950 . S
C1151 C1153 1.327 . S
C1151 C1157 1.429 . S
C1152 C1144 1.574 . S
C1152 H1147 0.949 . S
C1152 C1158 1.368 . S
C1153 C1137 1.349 . S
C1153 H1145 0.950 . S
C1153 C1151 1.327 . S
C1154 C1142 1.354 . S
C1154 H1148 0.950 . S
C1154 C1155 1.327 . S
C1155 H1149 0.950 . S
C1155 C1154 1.327 . S
C1155 C1159 1.429 . S
C1156 C1139 1.574 . S
C1156 H1150 0.949 . S
C1156 C1160 1.368 . S
C1157 C1138 1.429 . S
C1157 C1151 1.429 . S
C1157 C1158 1.523 . S
C1158 C1139 1.368 . S
C1158 C1152 1.368 . S
C1158 C1157 1.523 . S
C1159 C1143 1.429 . S
C1159 C1155 1.429 . S
C1159 C1160 1.523 . S
C1160 C1144 1.368 . S
C1160 C1156 1.368 . S
C1160 C1159 1.523 . S
H1161 C1136 0.950 . S
H1162 C1138 0.950 . S
H1163 C1139 0.949 . S
H1164 C1141 0.950 . S
H1165 C1143 0.947 1_545 S
C1166 C1167 1.349 . S
C1166 C1168 1.327 . S
C1166 H1191 0.950 . S
C1167 C1166 1.349 . S
C1167 C1183 1.349 1_554 S
C1168 C1166 1.327 . S
C1168 C1187 1.429 . S
C1168 H1192 0.950 . S
C1169 C1186 1.574 . S
C1169 C1188 1.368 1_556 S
C1169 H1193 0.949 . S
H1170 C1174 0.949 . S
C1171 C1172 1.349 1_556 S
C1171 C1173 1.327 . S
C1171 H1194 0.950 . S
C1172 C1171 1.349 1_554 S
C1172 C1184 1.349 . S
C1173 C1171 1.327 . S
C1173 C1189 1.429 1_556 S
C1173 H1195 0.950 . S
C1174 H1170 0.949 . S
C1174 C1182 1.574 . S
C1174 C1190 1.368 . S
H1175 C1183 0.950 . S
H1176 C1181 0.950 . S
H1177 C1182 0.949 . S
H1178 C1184 0.950 . S
H1179 C1185 0.950 . S
H1180 C1186 0.949 . S
C1181 H1176 0.950 . S
C1181 C1183 1.327 . S
C1181 C1187 1.429 1_556 S
C1182 C1174 1.574 . S
C1182 H1177 0.949 . S
C1182 C1188 1.368 . S
C1183 C1167 1.349 1_556 S
C1183 H1175 0.950 . S
C1183 C1181 1.327 . S
C1184 C1172 1.349 . S
C1184 H1178 0.950 . S
C1184 C1185 1.327 . S
C1185 H1179 0.950 . S
C1185 C1184 1.327 . S
C1185 C1189 1.429 . S
C1186 C1169 1.574 . S
C1186 H1180 0.949 . S
C1186 C1190 1.368 1_556 S
C1187 C1168 1.429 . S
C1187 C1181 1.429 1_554 S
C1187 C1188 1.523 . S
C1188 C1169 1.368 1_554 S
C1188 C1182 1.368 . S
C1188 C1187 1.523 . S
C1189 C1173 1.429 1_554 S
C1189 C1185 1.429 . S
C1189 C1190 1.523 . S
C1190 C1174 1.368 . S
C1190 C1186 1.368 1_554 S
C1190 C1189 1.523 . S
H1191 C1166 0.950 . S
H1192 C1168 0.950 . S
H1193 C1169 0.949 . S
H1194 C1171 0.950 . S
H1195 C1173 0.950 . S
C1196 C1197 1.349 . S
C1196 C1198 1.327 . S
C1196 H1221 0.950 . S
C1197 C1196 1.349 . S
C1197 C1213 1.349 . S
C1198 C1196 1.327 . S
C1198 C1217 1.429 . S
C1198 H1222 0.950 . S
C1199 C1216 1.574 . S
C1199 C1218 1.368 . S
C1199 H1223 0.949 . S
H1200 C1204 0.949 . S
C1201 C1202 1.349 . S
C1201 C1203 1.327 . S
C1201 H1224 0.950 . S
C1202 C1201 1.349 . S
C1202 C1214 1.349 . S
C1203 C1201 1.327 . S
C1203 C1219 1.429 . S
C1203 H1225 0.950 . S
C1204 H1200 0.949 . S
C1204 C1212 1.574 . S
C1204 C1220 1.368 . S
H1205 C1213 0.950 . S
H1206 C1211 0.950 . S
H1207 C1212 0.949 . S
H1208 C1214 0.950 . S
H1209 C1215 0.950 . S
H1210 C1216 0.949 . S
C1211 H1206 0.950 . S
C1211 C1213 1.327 . S
C1211 C1217 1.429 . S
C1212 C1204 1.574 . S
C1212 H1207 0.949 . S
C1212 C1218 1.368 . S
C1213 C1197 1.349 . S
C1213 H1205 0.950 . S
C1213 C1211 1.327 . S
C1214 C1202 1.349 . S
C1214 H1208 0.950 . S
C1214 C1215 1.327 . S
C1215 H1209 0.950 . S
C1215 C1214 1.327 . S
C1215 C1219 1.429 . S
C1216 C1199 1.574 . S
C1216 H1210 0.949 . S
C1216 C1220 1.368 . S
C1217 C1198 1.429 . S
C1217 C1211 1.429 . S
C1217 C1218 1.523 . S
C1218 C1199 1.368 . S
C1218 C1212 1.368 . S
C1218 C1217 1.523 . S
C1219 C1203 1.429 . S
C1219 C1215 1.429 . S
C1219 C1220 1.523 . S
C1220 C1204 1.368 . S
C1220 C1216 1.368 . S
C1220 C1219 1.523 . S
H1221 C1196 0.950 . S
H1222 C1198 0.950 . S
H1223 C1199 0.949 . S
H1224 C1201 0.950 . S
H1225 C1203 0.950 . S
C1226 C1227 1.349 . S
C1226 C1228 1.327 . S
C1226 H1251 0.950 . S
C1227 C1226 1.349 . S
C1227 C1243 1.349 . S
C1228 C1226 1.327 . S
C1228 C1247 1.429 . S
C1228 H1252 0.950 . S
C1229 C1246 1.574 . S
C1229 C1248 1.368 . S
C1229 H1253 0.949 . S
H1230 C1234 0.949 . S
C1231 C1232 1.349 . S
C1231 C1233 1.327 . S
C1231 H1254 0.950 . S
C1232 C1231 1.349 . S
C1232 C1244 1.349 . S
C1233 C1231 1.327 . S
C1233 C1249 1.429 . S
C1233 H1255 0.950 . S
C1234 H1230 0.949 . S
C1234 C1242 1.574 . S
C1234 C1250 1.368 . S
H1235 C1243 0.950 . S
H1236 C1241 0.950 . S
H1237 C1242 0.949 . S
H1238 C1244 0.950 . S
H1239 C1245 0.950 . S
H1240 C1246 0.949 . S
C1241 H1236 0.950 . S
C1241 C1243 1.327 . S
C1241 C1247 1.429 . S
C1242 C1234 1.574 . S
C1242 H1237 0.949 . S
C1242 C1248 1.368 . S
C1243 C1227 1.349 . S
C1243 H1235 0.950 . S
C1243 C1241 1.327 . S
C1244 C1232 1.349 . S
C1244 H1238 0.950 . S
C1244 C1245 1.327 . S
C1245 H1239 0.950 . S
C1245 C1244 1.327 . S
C1245 C1249 1.429 . S
C1246 C1229 1.574 . S
C1246 H1240 0.949 . S
C1246 C1250 1.368 . S
C1247 C1228 1.429 . S
C1247 C1241 1.429 . S
C1247 C1248 1.523 . S
C1248 C1229 1.368 . S
C1248 C1242 1.368 . S
C1248 C1247 1.523 . S
C1249 C1233 1.429 . S
C1249 C1245 1.429 . S
C1249 C1250 1.523 . S
C1250 C1234 1.368 . S
C1250 C1246 1.368 . S
C1250 C1249 1.523 . S
H1251 C1226 0.950 . S
H1252 C1228 0.950 . S
H1253 C1229 0.949 . S
H1254 C1231 0.950 . S
H1255 C1233 0.950 . S
C1256 C1257 1.349 . S
C1256 C1258 1.327 . S
C1256 H1281 0.950 . S
C1257 C1256 1.349 . S
C1257 C1273 1.349 . S
C1258 C1256 1.327 . S
C1258 C1277 1.429 . S
C1258 H1282 0.950 . S
C1259 C1276 1.574 . S
C1259 C1278 1.368 . S
C1259 H1283 0.949 . S
H1260 C1264 0.949 . S
C1261 C1262 1.349 . S
C1261 C1263 1.327 . S
C1261 H1284 0.950 . S
C1262 C1261 1.349 . S
C1262 C1274 1.349 . S
C1263 C1261 1.327 . S
C1263 C1279 1.429 . S
C1263 H1285 0.950 . S
C1264 H1260 0.949 . S
C1264 C1272 1.574 . S
C1264 C1280 1.368 . S
H1265 C1273 0.950 . S
H1266 C1271 0.950 . S
H1267 C1272 0.949 . S
H1268 C1274 0.950 . S
H1269 C1275 0.950 . S
H1270 C1276 0.949 . S
C1271 H1266 0.950 . S
C1271 C1273 1.327 . S
C1271 C1277 1.429 . S
C1272 C1264 1.574 . S
C1272 H1267 0.949 . S
C1272 C1278 1.368 . S
C1273 C1257 1.349 . S
C1273 H1265 0.950 . S
C1273 C1271 1.327 . S
C1274 C1262 1.349 . S
C1274 H1268 0.950 . S
C1274 C1275 1.327 . S
C1275 H1269 0.950 . S
C1275 C1274 1.327 . S
C1275 C1279 1.429 . S
C1276 C1259 1.574 . S
C1276 H1270 0.949 . S
C1276 C1280 1.368 . S
C1277 C1258 1.429 . S
C1277 C1271 1.429 . S
C1277 C1278 1.523 . S
C1278 C1259 1.368 . S
C1278 C1272 1.368 . S
C1278 C1277 1.523 . S
C1279 C1263 1.429 . S
C1279 C1275 1.429 . S
C1279 C1280 1.523 . S
C1280 C1264 1.368 . S
C1280 C1276 1.368 . S
C1280 C1279 1.523 . S
H1281 C1256 0.950 . S
H1282 C1258 0.950 . S
H1283 C1259 0.949 . S
H1284 C1261 0.950 . S
H1285 C1263 0.950 . S
C1286 C1287 1.349 . S
C1286 C1288 1.327 . S
C1286 H1311 0.950 . S
C1287 C1286 1.349 . S
C1287 C1303 1.349 . S
C1288 C1286 1.327 . S
C1288 C1307 1.429 . S
C1288 H1312 0.950 . S
C1289 C1306 1.574 . S
C1289 C1308 1.368 . S
C1289 H1313 0.949 . S
H1290 C1294 0.949 . S
C1291 C1292 1.349 . S
C1291 C1293 1.327 . S
C1291 H1314 0.950 . S
C1292 C1291 1.349 . S
C1292 C1304 1.349 . S
C1293 C1291 1.327 . S
C1293 C1309 1.429 . S
C1293 H1315 0.950 . S
C1294 H1290 0.949 . S
C1294 C1302 1.574 . S
C1294 C1310 1.368 . S
H1295 C1303 0.950 . S
H1296 C1301 0.950 . S
H1297 C1302 0.949 . S
H1298 C1304 0.950 . S
H1299 C1305 0.950 . S
H1300 C1306 0.949 . S
C1301 H1296 0.950 . S
C1301 C1303 1.327 . S
C1301 C1307 1.429 . S
C1302 C1294 1.574 . S
C1302 H1297 0.949 . S
C1302 C1308 1.368 . S
C1303 C1287 1.349 . S
C1303 H1295 0.950 . S
C1303 C1301 1.327 . S
C1304 C1292 1.349 . S
C1304 H1298 0.950 . S
C1304 C1305 1.327 . S
C1305 H1299 0.950 . S
C1305 C1304 1.327 . S
C1305 C1309 1.429 . S
C1306 C1289 1.574 . S
C1306 H1300 0.949 . S
C1306 C1310 1.368 . S
C1307 C1288 1.429 . S
C1307 C1301 1.429 . S
C1307 C1308 1.523 . S
C1308 C1289 1.368 . S
C1308 C1302 1.368 . S
C1308 C1307 1.523 . S
C1309 C1293 1.429 . S
C1309 C1305 1.429 . S
C1309 C1310 1.523 . S
C1310 C1294 1.368 . S
C1310 C1306 1.368 . S
C1310 C1309 1.523 . S
H1311 C1286 0.950 . S
H1312 C1288 0.950 . S
H1313 C1289 0.949 . S
H1314 C1291 0.950 . S
H1315 C1293 0.950 . S
C1316 C1317 1.349 . S
C1316 C1318 1.327 . S
C1316 H1341 0.950 . S
C1317 C1316 1.349 . S
C1317 C1333 1.349 . S
C1318 C1316 1.327 . S
C1318 C1337 1.429 . S
C1318 H1342 0.950 . S
C1319 C1336 1.574 . S
C1319 C1338 1.368 . S
C1319 H1343 0.949 . S
H1320 C1324 0.949 . S
C1321 C1322 1.349 . S
C1321 C1323 1.327 . S
C1321 H1344 0.950 . S
C1322 C1321 1.349 . S
C1322 C1334 1.349 . S
C1323 C1321 1.327 . S
C1323 C1339 1.429 . S
C1323 H1345 0.950 . S
C1324 H1320 0.949 . S
C1324 C1332 1.574 . S
C1324 C1340 1.368 . S
H1325 C1333 0.950 . S
H1326 C1331 0.950 . S
H1327 C1332 0.949 . S
H1328 C1334 0.950 . S
H1329 C1335 0.950 . S
H1330 C1336 0.949 . S
C1331 H1326 0.950 . S
C1331 C1333 1.327 . S
C1331 C1337 1.429 . S
C1332 C1324 1.574 . S
C1332 H1327 0.949 . S
C1332 C1338 1.368 . S
C1333 C1317 1.349 . S
C1333 H1325 0.950 . S
C1333 C1331 1.327 . S
C1334 C1322 1.349 . S
C1334 H1328 0.950 . S
C1334 C1335 1.327 . S
C1335 H1329 0.950 . S
C1335 C1334 1.327 . S
C1335 C1339 1.429 . S
C1336 C1319 1.574 . S
C1336 H1330 0.949 . S
C1336 C1340 1.368 . S
C1337 C1318 1.429 . S
C1337 C1331 1.429 . S
C1337 C1338 1.523 . S
C1338 C1319 1.368 . S
C1338 C1332 1.368 . S
C1338 C1337 1.523 . S
C1339 C1323 1.429 . S
C1339 C1335 1.429 . S
C1339 C1340 1.523 . S
C1340 C1324 1.368 . S
C1340 C1336 1.368 . S
C1340 C1339 1.523 . S
H1341 C1316 0.950 . S
H1342 C1318 0.950 . S
H1343 C1319 0.949 . S
H1344 C1321 0.950 . S
H1345 C1323 0.950 . S
C1346 C1347 1.349 . S
C1346 C1348 1.327 . S
C1346 H1371 0.950 . S
C1347 C1346 1.349 . S
C1347 C1363 1.349 . S
C1348 C1346 1.327 . S
C1348 C1367 1.429 . S
C1348 H1372 0.950 . S
C1349 C1366 1.574 . S
C1349 C1368 1.368 . S
C1349 H1373 0.949 . S
H1350 C1354 0.949 . S
C1351 C1352 1.349 . S
C1351 C1353 1.327 . S
C1351 H1374 0.950 . S
C1352 C1351 1.349 . S
C1352 C1364 1.349 . S
C1353 C1351 1.327 . S
C1353 C1369 1.429 . S
C1353 H1375 0.950 . S
C1354 H1350 0.949 . S
C1354 C1362 1.574 . S
C1354 C1370 1.368 . S
H1355 C1363 0.950 . S
H1356 C1361 0.950 . S
H1357 C1362 0.949 . S
H1358 C1364 0.950 . S
H1359 C1365 0.950 . S
H1360 C1366 0.949 . S
C1361 H1356 0.950 . S
C1361 C1363 1.327 . S
C1361 C1367 1.429 . S
C1362 C1354 1.574 . S
C1362 H1357 0.949 . S
C1362 C1368 1.368 . S
C1363 C1347 1.349 . S
C1363 H1355 0.950 . S
C1363 C1361 1.327 . S
C1364 C1352 1.349 . S
C1364 H1358 0.950 . S
C1364 C1365 1.327 . S
C1365 H1359 0.950 . S
C1365 C1364 1.327 . S
C1365 C1369 1.429 . S
C1366 C1349 1.574 . S
C1366 H1360 0.949 . S
C1366 C1370 1.368 . S
C1367 C1348 1.429 . S
C1367 C1361 1.429 . S
C1367 C1368 1.523 . S
C1368 C1349 1.368 . S
C1368 C1362 1.368 . S
C1368 C1367 1.523 . S
C1369 C1353 1.429 . S
C1369 C1365 1.429 . S
C1369 C1370 1.523 . S
C1370 C1354 1.368 . S
C1370 C1366 1.368 . S
C1370 C1369 1.523 . S
H1371 C1346 0.950 . S
H1372 C1348 0.950 . S
H1373 C1349 0.949 . S
H1374 C1351 0.950 . S
H1375 C1353 0.950 . S
C1376 C1377 1.349 . S
C1376 C1378 1.327 . S
C1376 H1401 0.950 . S
C1377 C1376 1.349 . S
C1377 C1393 1.349 . S
C1378 C1376 1.327 . S
C1378 C1397 1.429 . S
C1378 H1402 0.950 . S
C1379 C1396 1.574 . S
C1379 C1398 1.368 . S
C1379 H1403 0.949 . S
H1380 C1384 0.949 1_655 S
C1381 C1382 1.349 . S
C1381 C1383 1.327 . S
C1381 H1404 0.950 . S
C1382 C1381 1.349 . S
C1382 C1394 1.349 . S
C1383 C1381 1.327 . S
C1383 C1399 1.429 . S
C1383 H1405 0.950 . S
C1384 H1380 0.949 1_455 S
C1384 C1392 1.574 . S
C1384 C1400 1.368 . S
H1385 C1393 0.950 . S
H1386 C1391 0.950 . S
H1387 C1392 0.945 1_655 S
H1388 C1394 0.950 1_655 S
H1389 C1395 0.950 1_655 S
H1390 C1396 0.949 . S
C1391 H1386 0.950 . S
C1391 C1393 1.327 . S
C1391 C1397 1.429 . S
C1392 C1384 1.574 . S
C1392 H1387 0.945 1_455 S
C1392 C1398 1.368 . S
C1393 C1377 1.349 . S
C1393 H1385 0.950 . S
C1393 C1391 1.327 . S
C1394 C1382 1.349 . S
C1394 H1388 0.950 1_455 S
C1394 C1395 1.327 . S
C1395 H1389 0.950 1_455 S
C1395 C1394 1.327 . S
C1395 C1399 1.429 . S
C1396 C1379 1.574 . S
C1396 H1390 0.949 . S
C1396 C1400 1.368 . S
C1397 C1378 1.429 . S
C1397 C1391 1.429 . S
C1397 C1398 1.523 . S
C1398 C1379 1.368 . S
C1398 C1392 1.368 . S
C1398 C1397 1.523 . S
C1399 C1383 1.429 . S
C1399 C1395 1.429 . S
C1399 C1400 1.523 . S
C1400 C1384 1.368 . S
C1400 C1396 1.368 . S
C1400 C1399 1.523 . S
H1401 C1376 0.950 . S
H1402 C1378 0.950 . S
H1403 C1379 0.949 . S
H1404 C1381 0.950 . S
H1405 C1383 0.950 . S
C1406 C1407 1.349 . S
C1406 C1408 1.327 . S
C1406 H1431 0.950 . S
C1407 C1406 1.349 . S
C1407 C1423 1.349 . S
C1408 C1406 1.327 . S
C1408 C1427 1.429 . S
C1408 H1432 0.950 . S
C1409 C1426 1.574 . S
C1409 C1428 1.368 . S
C1409 H1433 0.949 . S
H1410 C1414 0.949 . S
C1411 C1412 1.349 . S
C1411 C1413 1.327 . S
C1411 H1434 0.950 . S
C1412 C1411 1.349 . S
C1412 C1424 1.349 . S
C1413 C1411 1.327 . S
C1413 C1429 1.429 . S
C1413 H1435 0.950 . S
C1414 H1410 0.949 . S
C1414 C1422 1.574 . S
C1414 C1430 1.368 . S
H1415 C1423 0.950 . S
H1416 C1421 0.950 . S
H1417 C1422 0.949 . S
H1418 C1424 0.950 . S
H1419 C1425 0.950 . S
H1420 C1426 0.949 . S
C1421 H1416 0.950 . S
C1421 C1423 1.327 . S
C1421 C1427 1.429 . S
C1422 C1414 1.574 . S
C1422 H1417 0.949 . S
C1422 C1428 1.368 . S
C1423 C1407 1.349 . S
C1423 H1415 0.950 . S
C1423 C1421 1.327 . S
C1424 C1412 1.349 . S
C1424 H1418 0.950 . S
C1424 C1425 1.327 . S
C1425 H1419 0.950 . S
C1425 C1424 1.327 . S
C1425 C1429 1.429 . S
C1426 C1409 1.574 . S
C1426 H1420 0.949 . S
C1426 C1430 1.368 . S
C1427 C1408 1.429 . S
C1427 C1421 1.429 . S
C1427 C1428 1.523 . S
C1428 C1409 1.368 . S
C1428 C1422 1.368 . S
C1428 C1427 1.523 . S
C1429 C1413 1.429 . S
C1429 C1425 1.429 . S
C1429 C1430 1.523 . S
C1430 C1414 1.368 . S
C1430 C1426 1.368 . S
C1430 C1429 1.523 . S
H1431 C1406 0.950 . S
H1432 C1408 0.950 . S
H1433 C1409 0.949 . S
H1434 C1411 0.950 . S
H1435 C1413 0.950 . S
C1436 C1437 1.349 . S
C1436 C1438 1.327 . S
C1436 H1461 0.950 . S
C1437 C1436 1.349 . S
C1437 C1453 1.349 . S
C1438 C1436 1.327 . S
C1438 C1457 1.429 . S
C1438 H1462 0.950 . S
C1439 C1456 1.574 . S
C1439 C1458 1.368 . S
C1439 H1463 0.949 . S
H1440 C1444 0.949 . S
C1441 C1442 1.349 . S
C1441 C1443 1.327 . S
C1441 H1464 0.950 . S
C1442 C1441 1.349 . S
C1442 C1454 1.349 . S
C1443 C1441 1.327 . S
C1443 C1459 1.429 . S
C1443 H1465 0.950 . S
C1444 H1440 0.949 . S
C1444 C1452 1.574 . S
C1444 C1460 1.368 . S
H1445 C1453 0.950 . S
H1446 C1451 0.950 . S
H1447 C1452 0.949 . S
H1448 C1454 0.950 . S
H1449 C1455 0.950 . S
H1450 C1456 0.949 . S
C1451 H1446 0.950 . S
C1451 C1453 1.327 . S
C1451 C1457 1.429 . S
C1452 C1444 1.574 . S
C1452 H1447 0.949 . S
C1452 C1458 1.368 . S
C1453 C1437 1.349 . S
C1453 H1445 0.950 . S
C1453 C1451 1.327 . S
C1454 C1442 1.349 . S
C1454 H1448 0.950 . S
C1454 C1455 1.327 . S
C1455 H1449 0.950 . S
C1455 C1454 1.327 . S
C1455 C1459 1.429 . S
C1456 C1439 1.574 . S
C1456 H1450 0.949 . S
C1456 C1460 1.368 . S
C1457 C1438 1.429 . S
C1457 C1451 1.429 . S
C1457 C1458 1.523 . S
C1458 C1439 1.368 . S
C1458 C1452 1.368 . S
C1458 C1457 1.523 . S
C1459 C1443 1.429 . S
C1459 C1455 1.429 . S
C1459 C1460 1.523 . S
C1460 C1444 1.368 . S
C1460 C1456 1.368 . S
C1460 C1459 1.523 . S
H1461 C1436 0.950 . S
H1462 C1438 0.950 . S
H1463 C1439 0.949 . S
H1464 C1441 0.950 . S
H1465 C1443 0.950 . S
C1466 C1467 1.349 . S
C1466 C1468 1.327 . S
C1466 H1491 0.950 . S
C1467 C1466 1.349 . S
C1467 C1483 1.349 . S
C1468 C1466 1.327 . S
C1468 C1487 1.429 . S
C1468 H1492 0.950 . S
C1469 C1486 1.574 . S
C1469 C1488 1.368 . S
C1469 H1493 0.949 . S
H1470 C1474 0.949 . S
C1471 C1472 1.349 . S
C1471 C1473 1.327 . S
C1471 H1494 0.950 . S
C1472 C1471 1.349 . S
C1472 C1484 1.349 . S
C1473 C1471 1.327 . S
C1473 C1489 1.429 . S
C1473 H1495 0.950 . S
C1474 H1470 0.949 . S
C1474 C1482 1.574 . S
C1474 C1490 1.368 . S
H1475 C1483 0.950 . S
H1476 C1481 0.950 . S
H1477 C1482 0.949 . S
H1478 C1484 0.950 . S
H1479 C1485 0.950 . S
H1480 C1486 0.949 . S
C1481 H1476 0.950 . S
C1481 C1483 1.327 . S
C1481 C1487 1.429 . S
C1482 C1474 1.574 . S
C1482 H1477 0.949 . S
C1482 C1488 1.368 . S
C1483 C1467 1.349 . S
C1483 H1475 0.950 . S
C1483 C1481 1.327 . S
C1484 C1472 1.349 . S
C1484 H1478 0.950 . S
C1484 C1485 1.327 . S
C1485 H1479 0.950 . S
C1485 C1484 1.327 . S
C1485 C1489 1.429 . S
C1486 C1469 1.574 . S
C1486 H1480 0.949 . S
C1486 C1490 1.368 . S
C1487 C1468 1.429 . S
C1487 C1481 1.429 . S
C1487 C1488 1.523 . S
C1488 C1469 1.368 . S
C1488 C1482 1.368 . S
C1488 C1487 1.523 . S
C1489 C1473 1.429 . S
C1489 C1485 1.429 . S
C1489 C1490 1.523 . S
C1490 C1474 1.368 . S
C1490 C1486 1.368 . S
C1490 C1489 1.523 . S
H1491 C1466 0.950 . S
H1492 C1468 0.950 . S
H1493 C1469 0.949 . S
H1494 C1471 0.950 . S
H1495 C1473 0.950 . S
C1496 C1497 1.349 . S
C1496 C1498 1.327 . S
C1496 H1521 0.950 . S
C1497 C1496 1.349 . S
C1497 C1513 1.369 . S
C1498 C1496 1.327 . S
C1498 C1517 1.429 . S
C1498 H1522 0.950 . S
C1499 C1516 1.574 . S
C1499 C1518 1.368 1_655 S
C1499 H1523 0.949 . S
H1500 C1504 0.949 . S
C1501 C1502 1.349 1_655 S
C1501 C1503 1.327 . S
C1501 H1524 0.950 . S
C1502 C1501 1.349 1_455 S
C1502 C1514 1.349 . S
C1503 C1501 1.327 . S
C1503 C1519 1.429 1_655 S
C1503 H1525 0.950 . S
C1504 H1500 0.949 . S
C1504 C1512 1.574 . S
C1504 C1520 1.368 . S
H1505 C1513 0.928 1_655 S
H1506 C1511 0.988 . S
H1507 C1512 0.949 . S
H1508 C1514 0.950 . S
H1509 C1515 0.950 . S
H1510 C1516 0.949 . S
C1511 H1506 0.988 . S
C1511 C1513 1.334 1_655 S
C1511 C1517 1.390 1_655 S
C1512 C1504 1.574 . S
C1512 H1507 0.949 . S
C1512 C1518 1.368 . S
C1513 C1497 1.369 . S
C1513 H1505 0.928 1_455 S
C1513 C1511 1.334 1_455 S
C1514 C1502 1.349 . S
C1514 H1508 0.950 . S
C1514 C1515 1.327 . S
C1515 H1509 0.950 . S
C1515 C1514 1.327 . S
C1515 C1519 1.429 . S
C1516 C1499 1.574 . S
C1516 H1510 0.949 . S
C1516 C1520 1.368 1_655 S
C1517 C1498 1.429 . S
C1517 C1511 1.390 1_455 S
C1517 C1518 1.523 . S
C1518 C1499 1.368 1_455 S
C1518 C1512 1.368 . S
C1518 C1517 1.523 . S
C1519 C1503 1.429 1_455 S
C1519 C1515 1.429 . S
C1519 C1520 1.523 . S
C1520 C1504 1.368 . S
C1520 C1516 1.368 1_455 S
C1520 C1519 1.523 . S
H1521 C1496 0.950 . S
H1522 C1498 0.950 . S
H1523 C1499 0.949 . S
H1524 C1501 0.950 . S
H1525 C1503 0.950 . S
C1526 C1527 1.349 . S
C1526 C1528 1.327 . S
C1526 H1551 0.950 . S
C1527 C1526 1.349 . S
C1527 C1543 1.349 . S
C1528 C1526 1.327 . S
C1528 C1547 1.429 . S
C1528 H1552 0.950 . S
C1529 C1546 1.574 . S
C1529 C1548 1.368 . S
C1529 H1553 0.949 . S
H1530 C1534 0.949 . S
C1531 C1532 1.349 . S
C1531 C1533 1.327 . S
C1531 H1554 0.950 . S
C1532 C1531 1.349 . S
C1532 C1544 1.349 . S
C1533 C1531 1.327 . S
C1533 C1549 1.429 . S
C1533 H1555 0.950 . S
C1534 H1530 0.949 . S
C1534 C1542 1.574 . S
C1534 C1550 1.368 . S
H1535 C1543 0.950 . S
H1536 C1541 0.950 . S
H1537 C1542 0.949 . S
H1538 C1544 0.950 . S
H1539 C1545 0.950 . S
H1540 C1546 0.949 . S
C1541 H1536 0.950 . S
C1541 C1543 1.327 . S
C1541 C1547 1.429 . S
C1542 C1534 1.574 . S
C1542 H1537 0.949 . S
C1542 C1548 1.368 . S
C1543 C1527 1.349 . S
C1543 H1535 0.950 . S
C1543 C1541 1.327 . S
C1544 C1532 1.349 . S
C1544 H1538 0.950 . S
C1544 C1545 1.327 . S
C1545 H1539 0.950 . S
C1545 C1544 1.327 . S
C1545 C1549 1.429 . S
C1546 C1529 1.574 . S
C1546 H1540 0.949 . S
C1546 C1550 1.368 . S
C1547 C1528 1.429 . S
C1547 C1541 1.429 . S
C1547 C1548 1.523 . S
C1548 C1529 1.368 . S
C1548 C1542 1.368 . S
C1548 C1547 1.523 . S
C1549 C1533 1.429 . S
C1549 C1545 1.429 . S
C1549 C1550 1.523 . S
C1550 C1534 1.368 . S
C1550 C1546 1.368 . S
C1550 C1549 1.523 . S
H1551 C1526 0.950 . S
H1552 C1528 0.950 . S
H1553 C1529 0.949 . S
H1554 C1531 0.950 . S
H1555 C1533 0.950 . S
C1556 C1557 1.349 . S
C1556 C1558 1.327 . S
C1556 H1581 0.950 . S
C1557 C1556 1.349 . S
C1557 C1573 1.349 . S
C1558 C1556 1.327 . S
C1558 C1577 1.429 . S
C1558 H1582 0.950 . S
C1559 C1576 1.574 . S
C1559 C1578 1.368 . S
C1559 H1583 0.949 . S
H1560 C1564 0.949 . S
C1561 C1562 1.349 . S
C1561 C1563 1.327 . S
C1561 H1584 0.950 . S
C1562 C1561 1.349 . S
C1562 C1574 1.349 1_556 S
C1563 C1561 1.327 . S
C1563 C1579 1.429 . S
C1563 H1585 0.950 . S
C1564 H1560 0.949 . S
C1564 C1572 1.574 . S
C1564 C1580 1.368 . S
H1565 C1573 0.950 . S
H1566 C1571 0.950 . S
H1567 C1572 0.949 . S
H1568 C1574 0.950 . S
H1569 C1575 0.952 . S
H1570 C1576 0.949 . S
C1571 H1566 0.950 . S
C1571 C1573 1.327 . S
C1571 C1577 1.429 . S
C1572 C1564 1.574 . S
C1572 H1567 0.949 . S
C1572 C1578 1.368 . S
C1573 C1557 1.349 . S
C1573 H1565 0.950 . S
C1573 C1571 1.327 . S
C1574 C1562 1.349 1_554 S
C1574 H1568 0.950 . S
C1574 C1575 1.327 1_554 S
C1575 H1569 0.952 . S
C1575 C1574 1.327 1_556 S
C1575 C1579 1.429 . S
C1576 C1559 1.574 . S
C1576 H1570 0.949 . S
C1576 C1580 1.368 . S
C1577 C1558 1.429 . S
C1577 C1571 1.429 . S
C1577 C1578 1.523 . S
C1578 C1559 1.368 . S
C1578 C1572 1.368 . S
C1578 C1577 1.523 . S
C1579 C1563 1.429 . S
C1579 C1575 1.429 . S
C1579 C1580 1.523 . S
C1580 C1564 1.368 . S
C1580 C1576 1.368 . S
C1580 C1579 1.523 . S
H1581 C1556 0.950 . S
H1582 C1558 0.950 . S
H1583 C1559 0.949 . S
H1584 C1561 0.950 . S
H1585 C1563 0.950 . S
C1586 C1587 1.349 . S
C1586 C1588 1.327 . S
C1586 H1611 0.950 . S
C1587 C1586 1.349 . S
C1587 C1603 1.349 . S
C1588 C1586 1.327 . S
C1588 C1607 1.429 . S
C1588 H1612 0.950 . S
C1589 C1606 1.574 . S
C1589 C1608 1.368 . S
C1589 H1613 0.949 . S
H1590 C1594 0.949 . S
C1591 C1592 1.349 . S
C1591 C1593 1.327 . S
C1591 H1614 0.950 . S
C1592 C1591 1.349 . S
C1592 C1604 1.349 . S
C1593 C1591 1.327 . S
C1593 C1609 1.429 . S
C1593 H1615 0.950 . S
C1594 H1590 0.949 . S
C1594 C1602 1.574 . S
C1594 C1610 1.368 . S
H1595 C1603 0.950 . S
H1596 C1601 0.950 . S
H1597 C1602 0.949 . S
H1598 C1604 0.950 . S
H1599 C1605 0.950 . S
H1600 C1606 0.949 . S
C1601 H1596 0.950 . S
C1601 C1603 1.327 . S
C1601 C1607 1.429 . S
C1602 C1594 1.574 . S
C1602 H1597 0.949 . S
C1602 C1608 1.368 . S
C1603 C1587 1.349 . S
C1603 H1595 0.950 . S
C1603 C1601 1.327 . S
C1604 C1592 1.349 . S
C1604 H1598 0.950 . S
C1604 C1605 1.327 . S
C1605 H1599 0.950 . S
C1605 C1604 1.327 . S
C1605 C1609 1.429 . S
C1606 C1589 1.574 . S
C1606 H1600 0.949 . S
C1606 C1610 1.368 . S
C1607 C1588 1.429 . S
C1607 C1601 1.429 . S
C1607 C1608 1.523 . S
C1608 C1589 1.368 . S
C1608 C1602 1.368 . S
C1608 C1607 1.523 . S
C1609 C1593 1.429 . S
C1609 C1605 1.429 . S
C1609 C1610 1.523 . S
C1610 C1594 1.368 . S
C1610 C1606 1.368 . S
C1610 C1609 1.523 . S
H1611 C1586 0.950 . S
H1612 C1588 0.950 . S
H1613 C1589 0.949 . S
H1614 C1591 0.950 . S
H1615 C1593 0.950 . S
C1616 C1617 1.349 . S
C1616 C1618 1.327 . S
C1616 H1641 0.950 . S
C1617 C1616 1.349 . S
C1617 C1633 1.349 1_545 S
C1618 C1616 1.327 . S
C1618 C1637 1.429 . S
C1618 H1642 0.950 . S
C1619 C1636 1.574 . S
C1619 C1638 1.368 . S
C1619 H1643 0.949 1_545 S
H1620 C1624 0.949 . S
C1621 C1622 1.349 . S
C1621 C1623 1.327 . S
C1621 H1644 0.950 . S
C1622 C1621 1.349 . S
C1622 C1634 1.349 . S
C1623 C1621 1.327 . S
C1623 C1639 1.429 . S
C1623 H1645 0.950 . S
C1624 H1620 0.949 . S
C1624 C1632 1.574 . S
C1624 C1640 1.368 . S
H1625 C1633 0.950 . S
H1626 C1631 0.963 . S
H1627 C1632 0.949 . S
H1628 C1634 0.950 . S
H1629 C1635 0.950 . S
H1630 C1636 0.949 . S
C1631 H1626 0.963 . S
C1631 C1633 1.330 . S
C1631 C1637 1.414 1_565 S
C1632 C1624 1.574 . S
C1632 H1627 0.949 . S
C1632 C1638 1.368 . S
C1633 C1617 1.349 1_565 S
C1633 H1625 0.950 . S
C1633 C1631 1.330 . S
C1634 C1622 1.349 . S
C1634 H1628 0.950 . S
C1634 C1635 1.327 . S
C1635 H1629 0.950 . S
C1635 C1634 1.327 . S
C1635 C1639 1.429 . S
C1636 C1619 1.574 . S
C1636 H1630 0.949 . S
C1636 C1640 1.368 . S
C1637 C1618 1.429 . S
C1637 C1631 1.414 1_545 S
C1637 C1638 1.523 . S
C1638 C1619 1.368 . S
C1638 C1632 1.368 . S
C1638 C1637 1.523 . S
C1639 C1623 1.429 . S
C1639 C1635 1.429 . S
C1639 C1640 1.523 . S
C1640 C1624 1.368 . S
C1640 C1636 1.368 . S
C1640 C1639 1.523 . S
H1641 C1616 0.950 . S
H1642 C1618 0.950 . S
H1643 C1619 0.949 1_565 S
H1644 C1621 0.950 . S
H1645 C1623 0.950 . S
C1646 C1647 1.349 . S
C1646 C1648 1.327 . S
C1646 H1671 0.950 . S
C1647 C1646 1.349 . S
C1647 C1663 1.349 . S
C1648 C1646 1.327 . S
C1648 C1667 1.429 . S
C1648 H1672 0.950 . S
C1649 C1666 1.574 . S
C1649 C1668 1.368 . S
C1649 H1673 0.949 . S
H1650 C1654 0.949 . S
C1651 C1652 1.349 . S
C1651 C1653 1.327 . S
C1651 H1674 0.950 . S
C1652 C1651 1.349 . S
C1652 C1664 1.349 . S
C1653 C1651 1.327 . S
C1653 C1669 1.429 . S
C1653 H1675 0.950 . S
C1654 H1650 0.949 . S
C1654 C1662 1.574 . S
C1654 C1670 1.368 . S
H1655 C1663 0.950 . S
H1656 C1661 0.950 . S
H1657 C1662 0.949 . S
H1658 C1664 0.950 . S
H1659 C1665 0.950 . S
H1660 C1666 0.949 . S
C1661 H1656 0.950 . S
C1661 C1663 1.327 . S
C1661 C1667 1.429 . S
C1662 C1654 1.574 . S
C1662 H1657 0.949 . S
C1662 C1668 1.368 . S
C1663 C1647 1.349 . S
C1663 H1655 0.950 . S
C1663 C1661 1.327 . S
C1664 C1652 1.349 . S
C1664 H1658 0.950 . S
C1664 C1665 1.327 . S
C1665 H1659 0.950 . S
C1665 C1664 1.327 . S
C1665 C1669 1.429 . S
C1666 C1649 1.574 . S
C1666 H1660 0.949 . S
C1666 C1670 1.368 . S
C1667 C1648 1.429 . S
C1667 C1661 1.429 . S
C1667 C1668 1.523 . S
C1668 C1649 1.368 . S
C1668 C1662 1.368 . S
C1668 C1667 1.523 . S
C1669 C1653 1.429 . S
C1669 C1665 1.429 . S
C1669 C1670 1.523 . S
C1670 C1654 1.368 . S
C1670 C1666 1.368 . S
C1670 C1669 1.523 . S
H1671 C1646 0.950 . S
H1672 C1648 0.950 . S
H1673 C1649 0.949 . S
H1674 C1651 0.950 . S
H1675 C1653 0.950 . S
C1676 C1677 1.349 . S
C1676 C1678 1.327 . S
C1676 H1701 0.950 . S
C1677 C1676 1.349 . S
C1677 C1693 1.349 . S
C1678 C1676 1.327 . S
C1678 C1697 1.429 . S
C1678 H1702 0.950 . S
C1679 C1696 1.574 . S
C1679 C1698 1.368 . S
C1679 H1703 0.949 . S
H1680 C1684 0.949 . S
C1681 C1682 1.349 . S
C1681 C1683 1.327 . S
C1681 H1704 0.950 . S
C1682 C1681 1.349 . S
C1682 C1694 1.349 . S
C1683 C1681 1.327 . S
C1683 C1699 1.429 . S
C1683 H1705 0.950 . S
C1684 H1680 0.949 . S
C1684 C1692 1.574 . S
C1684 C1700 1.368 . S
H1685 C1693 0.950 . S
H1686 C1691 0.950 . S
H1687 C1692 0.949 . S
H1688 C1694 0.950 . S
H1689 C1695 0.950 . S
H1690 C1696 0.949 . S
C1691 H1686 0.950 . S
C1691 C1693 1.327 . S
C1691 C1697 1.429 . S
C1692 C1684 1.574 . S
C1692 H1687 0.949 . S
C1692 C1698 1.368 . S
C1693 C1677 1.349 . S
C1693 H1685 0.950 . S
C1693 C1691 1.327 . S
C1694 C1682 1.349 . S
C1694 H1688 0.950 . S
C1694 C1695 1.327 . S
C1695 H1689 0.950 . S
C1695 C1694 1.327 . S
C1695 C1699 1.429 . S
C1696 C1679 1.574 . S
C1696 H1690 0.949 . S
C1696 C1700 1.368 . S
C1697 C1678 1.429 . S
C1697 C1691 1.429 . S
C1697 C1698 1.523 . S
C1698 C1679 1.368 . S
C1698 C1692 1.368 . S
C1698 C1697 1.523 . S
C1699 C1683 1.429 . S
C1699 C1695 1.429 . S
C1699 C1700 1.523 . S
C1700 C1684 1.368 . S
C1700 C1696 1.368 . S
C1700 C1699 1.523 . S
H1701 C1676 0.950 . S
H1702 C1678 0.950 . S
H1703 C1679 0.949 . S
H1704 C1681 0.950 . S
H1705 C1683 0.950 . S
C1706 C1707 1.349 . S
C1706 C1708 1.327 . S
C1706 H1731 0.950 . S
C1707 C1706 1.349 . S
C1707 C1723 1.349 . S
C1708 C1706 1.327 . S
C1708 C1727 1.429 . S
C1708 H1732 0.950 . S
C1709 C1726 1.574 . S
C1709 C1728 1.368 . S
C1709 H1733 0.949 . S
H1710 C1714 0.949 . S
C1711 C1712 1.349 . S
C1711 C1713 1.327 . S
C1711 H1734 0.950 . S
C1712 C1711 1.349 . S
C1712 C1724 1.349 . S
C1713 C1711 1.327 . S
C1713 C1729 1.429 . S
C1713 H1735 0.950 . S
C1714 H1710 0.949 . S
C1714 C1722 1.574 . S
C1714 C1730 1.368 . S
H1715 C1723 0.950 . S
H1716 C1721 0.950 . S
H1717 C1722 0.949 . S
H1718 C1724 0.950 . S
H1719 C1725 0.950 . S
H1720 C1726 0.949 . S
C1721 H1716 0.950 . S
C1721 C1723 1.327 . S
C1721 C1727 1.429 . S
C1722 C1714 1.574 . S
C1722 H1717 0.949 . S
C1722 C1728 1.368 . S
C1723 C1707 1.349 . S
C1723 H1715 0.950 . S
C1723 C1721 1.327 . S
C1724 C1712 1.349 . S
C1724 H1718 0.950 . S
C1724 C1725 1.327 . S
C1725 H1719 0.950 . S
C1725 C1724 1.327 . S
C1725 C1729 1.429 . S
C1726 C1709 1.574 . S
C1726 H1720 0.949 . S
C1726 C1730 1.368 . S
C1727 C1708 1.429 . S
C1727 C1721 1.429 . S
C1727 C1728 1.523 . S
C1728 C1709 1.368 . S
C1728 C1722 1.368 . S
C1728 C1727 1.523 . S
C1729 C1713 1.429 . S
C1729 C1725 1.429 . S
C1729 C1730 1.523 . S
C1730 C1714 1.368 . S
C1730 C1726 1.368 . S
C1730 C1729 1.523 . S
H1731 C1706 0.950 . S
H1732 C1708 0.950 . S
H1733 C1709 0.949 . S
H1734 C1711 0.950 . S
H1735 C1713 0.950 . S
C1736 C1737 1.349 1_545 S
C1736 C1738 1.327 . S
C1736 H1761 0.950 . S
C1737 C1736 1.349 1_565 S
C1737 C1753 1.349 . S
C1738 C1736 1.327 . S
C1738 C1757 1.429 . S
C1738 H1762 0.950 . S
C1739 C1756 1.574 . S
C1739 C1758 1.368 1_565 S
C1739 H1763 0.949 . S
H1740 C1744 0.949 . S
C1741 C1742 1.349 . S
C1741 C1743 1.327 . S
C1741 H1764 0.950 1_545 S
C1742 C1741 1.349 . S
C1742 C1754 1.349 . S
C1743 C1741 1.327 . S
C1743 C1759 1.429 . S
C1743 H1765 0.950 1_545 S
C1744 H1740 0.949 . S
C1744 C1752 1.574 . S
C1744 C1760 1.368 . S
H1745 C1753 0.950 . S
H1746 C1751 0.950 . S
H1747 C1752 0.949 . S
H1748 C1754 0.950 . S
H1749 C1755 0.950 . S
H1750 C1756 0.949 . S
C1751 H1746 0.950 . S
C1751 C1753 1.327 . S
C1751 C1757 1.429 1_565 S
C1752 C1744 1.574 . S
C1752 H1747 0.949 . S
C1752 C1758 1.368 . S
C1753 C1737 1.349 . S
C1753 H1745 0.950 . S
C1753 C1751 1.327 . S
C1754 C1742 1.349 . S
C1754 H1748 0.950 . S
C1754 C1755 1.327 . S
C1755 H1749 0.950 . S
C1755 C1754 1.327 . S
C1755 C1759 1.429 . S
C1756 C1739 1.574 . S
C1756 H1750 0.949 . S
C1756 C1760 1.368 1_565 S
C1757 C1738 1.429 . S
C1757 C1751 1.429 1_545 S
C1757 C1758 1.523 . S
C1758 C1739 1.368 1_545 S
C1758 C1752 1.368 . S
C1758 C1757 1.523 . S
C1759 C1743 1.429 . S
C1759 C1755 1.429 . S
C1759 C1760 1.523 . S
C1760 C1744 1.368 . S
C1760 C1756 1.368 1_545 S
C1760 C1759 1.523 . S
H1761 C1736 0.950 . S
H1762 C1738 0.950 . S
H1763 C1739 0.949 . S
H1764 C1741 0.950 1_565 S
H1765 C1743 0.950 1_565 S
C1766 C1767 1.349 . S
C1766 C1768 1.327 . S
C1766 H1791 0.950 . S
C1767 C1766 1.349 . S
C1767 C1783 1.349 . S
C1768 C1766 1.327 . S
C1768 C1787 1.429 . S
C1768 H1792 0.950 . S
C1769 C1786 1.574 . S
C1769 C1788 1.368 . S
C1769 H1793 0.949 . S
H1770 C1774 0.949 . S
C1771 C1772 1.349 . S
C1771 C1773 1.327 . S
C1771 H1794 0.950 . S
C1772 C1771 1.349 . S
C1772 C1784 1.349 . S
C1773 C1771 1.327 . S
C1773 C1789 1.429 . S
C1773 H1795 0.950 . S
C1774 H1770 0.949 . S
C1774 C1782 1.574 . S
C1774 C1790 1.368 . S
H1775 C1783 0.950 . S
H1776 C1781 0.950 . S
H1777 C1782 0.949 . S
H1778 C1784 0.950 . S
H1779 C1785 0.950 . S
H1780 C1786 0.949 . S
C1781 H1776 0.950 . S
C1781 C1783 1.327 . S
C1781 C1787 1.429 . S
C1782 C1774 1.574 . S
C1782 H1777 0.949 . S
C1782 C1788 1.368 . S
C1783 C1767 1.349 . S
C1783 H1775 0.950 . S
C1783 C1781 1.327 . S
C1784 C1772 1.349 . S
C1784 H1778 0.950 . S
C1784 C1785 1.327 . S
C1785 H1779 0.950 . S
C1785 C1784 1.327 . S
C1785 C1789 1.429 . S
C1786 C1769 1.574 . S
C1786 H1780 0.949 . S
C1786 C1790 1.368 . S
C1787 C1768 1.429 . S
C1787 C1781 1.429 . S
C1787 C1788 1.523 . S
C1788 C1769 1.368 . S
C1788 C1782 1.368 . S
C1788 C1787 1.523 . S
C1789 C1773 1.429 . S
C1789 C1785 1.429 . S
C1789 C1790 1.523 . S
C1790 C1774 1.368 . S
C1790 C1786 1.368 . S
C1790 C1789 1.523 . S
H1791 C1766 0.950 . S
H1792 C1768 0.950 . S
H1793 C1769 0.949 . S
H1794 C1771 0.950 . S
H1795 C1773 0.950 . S
C1796 C1797 1.349 . S
C1796 C1798 1.327 . S
C1796 H1821 0.950 . S
C1797 C1796 1.349 . S
C1797 C1813 1.349 . S
C1798 C1796 1.327 . S
C1798 C1817 1.429 . S
C1798 H1822 0.950 . S
C1799 C1816 1.577 . S
C1799 C1818 1.346 1_565 S
C1799 H1823 0.967 . S
H1800 C1804 0.949 . S
C1801 C1802 1.349 1_565 S
C1801 C1803 1.327 . S
C1801 H1824 0.950 . S
C1802 C1801 1.349 1_545 S
C1802 C1814 1.349 . S
C1803 C1801 1.327 . S
C1803 C1819 1.429 1_565 S
C1803 H1825 0.950 . S
C1804 H1800 0.949 . S
C1804 C1812 1.574 . S
C1804 C1820 1.368 . S
H1805 C1813 0.950 1_565 S
H1806 C1811 0.950 1_565 S
H1807 C1812 0.949 . S
H1808 C1814 0.950 . S
H1809 C1815 0.950 . S
H1810 C1816 0.949 . S
C1811 H1806 0.950 1_545 S
C1811 C1813 1.327 . S
C1811 C1817 1.429 . S
C1812 C1804 1.574 . S
C1812 H1807 0.949 . S
C1812 C1818 1.368 . S
C1813 C1797 1.349 . S
C1813 H1805 0.950 1_545 S
C1813 C1811 1.327 . S
C1814 C1802 1.349 . S
C1814 H1808 0.950 . S
C1814 C1815 1.327 . S
C1815 H1809 0.950 . S
C1815 C1814 1.327 . S
C1815 C1819 1.429 . S
C1816 C1799 1.577 . S
C1816 H1810 0.949 . S
C1816 C1820 1.368 1_565 S
C1817 C1798 1.429 . S
C1817 C1811 1.429 . S
C1817 C1818 1.523 . S
C1818 C1799 1.346 1_545 S
C1818 C1812 1.368 . S
C1818 C1817 1.523 . S
C1819 C1803 1.429 1_545 S
C1819 C1815 1.429 . S
C1819 C1820 1.523 . S
C1820 C1804 1.368 . S
C1820 C1816 1.368 1_545 S
C1820 C1819 1.523 . S
H1821 C1796 0.950 . S
H1822 C1798 0.950 . S
H1823 C1799 0.967 . S
H1824 C1801 0.950 . S
H1825 C1803 0.950 . S
C1826 C1827 1.349 . S
C1826 C1828 1.327 . S
C1826 H1851 0.950 . S
C1827 C1826 1.349 . S
C1827 C1843 1.349 . S
C1828 C1826 1.327 . S
C1828 C1847 1.429 . S
C1828 H1852 0.950 . S
C1829 C1846 1.574 . S
C1829 C1848 1.368 . S
C1829 H1853 0.949 . S
H1830 C1834 0.949 . S
C1831 C1832 1.349 . S
C1831 C1833 1.327 . S
C1831 H1854 0.950 . S
C1832 C1831 1.349 . S
C1832 C1844 1.349 . S
C1833 C1831 1.327 . S
C1833 C1849 1.429 . S
C1833 H1855 0.950 . S
C1834 H1830 0.949 . S
C1834 C1842 1.574 . S
C1834 C1850 1.368 . S
H1835 C1843 0.950 . S
H1836 C1841 0.950 . S
H1837 C1842 0.949 . S
H1838 C1844 0.950 . S
H1839 C1845 0.950 . S
H1840 C1846 0.949 . S
C1841 H1836 0.950 . S
C1841 C1843 1.327 . S
C1841 C1847 1.429 . S
C1842 C1834 1.574 . S
C1842 H1837 0.949 . S
C1842 C1848 1.368 . S
C1843 C1827 1.349 . S
C1843 H1835 0.950 . S
C1843 C1841 1.327 . S
C1844 C1832 1.349 . S
C1844 H1838 0.950 . S
C1844 C1845 1.327 . S
C1845 H1839 0.950 . S
C1845 C1844 1.327 . S
C1845 C1849 1.429 . S
C1846 C1829 1.574 . S
C1846 H1840 0.949 . S
C1846 C1850 1.368 . S
C1847 C1828 1.429 . S
C1847 C1841 1.429 . S
C1847 C1848 1.523 . S
C1848 C1829 1.368 . S
C1848 C1842 1.368 . S
C1848 C1847 1.523 . S
C1849 C1833 1.429 . S
C1849 C1845 1.429 . S
C1849 C1850 1.523 . S
C1850 C1834 1.368 . S
C1850 C1846 1.368 . S
C1850 C1849 1.523 . S
H1851 C1826 0.950 . S
H1852 C1828 0.950 . S
H1853 C1829 0.949 . S
H1854 C1831 0.950 . S
H1855 C1833 0.950 . S
C1856 C1857 1.356 . S
C1856 C1858 1.327 . S
C1856 H1881 0.950 . S
C1857 C1856 1.356 . S
C1857 C1873 1.341 1_554 S
C1858 C1856 1.327 . S
C1858 C1877 1.429 1_554 S
C1858 H1882 0.950 . S
C1859 C1876 1.574 . S
C1859 C1878 1.368 . S
C1859 H1883 0.949 . S
H1860 C1864 0.949 . S
C1861 C1862 1.349 . S
C1861 C1863 1.327 . S
C1861 H1884 0.950 . S
C1862 C1861 1.349 . S
C1862 C1874 1.349 1_556 S
C1863 C1861 1.327 . S
C1863 C1879 1.429 . S
C1863 H1885 0.950 . S
C1864 H1860 0.949 . S
C1864 C1872 1.574 . S
C1864 C1880 1.368 1_554 S
H1865 C1873 0.950 . S
H1866 C1871 0.950 . S
H1867 C1872 0.949 . S
H1868 C1874 0.950 . S
H1869 C1875 0.950 . S
H1870 C1876 0.949 . S
C1871 H1866 0.950 . S
C1871 C1873 1.327 . S
C1871 C1877 1.429 . S
C1872 C1864 1.574 . S
C1872 H1867 0.949 . S
C1872 C1878 1.368 1_554 S
C1873 C1857 1.341 1_556 S
C1873 H1865 0.950 . S
C1873 C1871 1.327 . S
C1874 C1862 1.349 1_554 S
C1874 H1868 0.950 . S
C1874 C1875 1.327 . S
C1875 H1869 0.950 . S
C1875 C1874 1.327 . S
C1875 C1879 1.429 1_554 S
C1876 C1859 1.574 . S
C1876 H1870 0.949 . S
C1876 C1880 1.368 . S
C1877 C1858 1.429 1_556 S
C1877 C1871 1.429 . S
C1877 C1878 1.523 . S
C1878 C1859 1.368 . S
C1878 C1872 1.368 1_556 S
C1878 C1877 1.523 . S
C1879 C1863 1.429 . S
C1879 C1875 1.429 1_556 S
C1879 C1880 1.523 . S
C1880 C1864 1.368 1_556 S
C1880 C1876 1.368 . S
C1880 C1879 1.523 . S
H1881 C1856 0.950 . S
H1882 C1858 0.950 . S
H1883 C1859 0.949 . S
H1884 C1861 0.950 . S
H1885 C1863 0.950 . S
C1886 C1887 1.349 . S
C1886 C1888 1.327 . S
C1886 H1911 0.950 . S
C1887 C1886 1.349 . S
C1887 C1903 1.349 . S
C1888 C1886 1.327 . S
C1888 C1907 1.429 . S
C1888 H1912 0.950 . S
C1889 C1906 1.574 . S
C1889 C1908 1.408 . S
C1889 H1913 0.918 1_554 S
H1890 C1894 0.949 . S
C1891 C1892 1.349 . S
C1891 C1893 1.327 . S
C1891 H1914 0.950 1_554 S
C1892 C1891 1.349 . S
C1892 C1904 1.349 . S
C1893 C1891 1.327 . S
C1893 C1909 1.429 . S
C1893 H1915 0.950 1_554 S
C1894 H1890 0.949 . S
C1894 C1902 1.574 . S
C1894 C1910 1.368 . S
H1895 C1903 0.950 1_556 S
H1896 C1901 0.950 1_556 S
H1897 C1902 0.949 . S
H1898 C1904 0.950 . S
H1899 C1905 0.950 . S
H1900 C1906 0.912 1_556 S
C1901 H1896 0.950 1_554 S
C1901 C1903 1.327 . S
C1901 C1907 1.429 . S
C1902 C1894 1.574 . S
C1902 H1897 0.949 . S
C1902 C1908 1.368 . S
C1903 C1887 1.349 . S
C1903 H1895 0.950 1_554 S
C1903 C1901 1.327 . S
C1904 C1892 1.349 . S
C1904 H1898 0.950 . S
C1904 C1905 1.327 . S
C1905 H1899 0.950 . S
C1905 C1904 1.327 . S
C1905 C1909 1.429 . S
C1906 C1889 1.574 . S
C1906 H1900 0.912 1_554 S
C1906 C1910 1.405 . S
C1907 C1888 1.429 . S
C1907 C1901 1.429 . S
C1907 C1908 1.523 . S
C1908 C1889 1.408 . S
C1908 C1902 1.368 . S
C1908 C1907 1.523 . S
C1909 C1893 1.429 . S
C1909 C1905 1.429 . S
C1909 C1910 1.523 . S
C1910 C1894 1.368 . S
C1910 C1906 1.405 . S
C1910 C1909 1.523 . S
H1911 C1886 0.950 . S
H1912 C1888 0.950 . S
H1913 C1889 0.918 1_556 S
H1914 C1891 0.950 1_556 S
H1915 C1893 0.950 1_556 S
C1916 C1917 1.349 . S
C1916 C1918 1.327 . S
C1916 H1941 0.950 . S
C1917 C1916 1.349 . S
C1917 C1933 1.349 . S
C1918 C1916 1.327 . S
C1918 C1937 1.429 . S
C1918 H1942 0.950 . S
C1919 C1936 1.574 . S
C1919 C1938 1.368 . S
C1919 H1943 0.949 . S
H1920 C1924 0.949 . S
C1921 C1922 1.349 . S
C1921 C1923 1.327 . S
C1921 H1944 0.950 . S
C1922 C1921 1.349 . S
C1922 C1934 1.349 . S
C1923 C1921 1.327 . S
C1923 C1939 1.429 . S
C1923 H1945 0.950 . S
C1924 H1920 0.949 . S
C1924 C1932 1.574 . S
C1924 C1940 1.368 . S
H1925 C1933 0.950 . S
H1926 C1931 0.950 . S
H1927 C1932 0.949 . S
H1928 C1934 0.950 . S
H1929 C1935 0.950 . S
H1930 C1936 0.949 . S
C1931 H1926 0.950 . S
C1931 C1933 1.327 . S
C1931 C1937 1.429 . S
C1932 C1924 1.574 . S
C1932 H1927 0.949 . S
C1932 C1938 1.368 . S
C1933 C1917 1.349 . S
C1933 H1925 0.950 . S
C1933 C1931 1.327 . S
C1934 C1922 1.349 . S
C1934 H1928 0.950 . S
C1934 C1935 1.327 . S
C1935 H1929 0.950 . S
C1935 C1934 1.327 . S
C1935 C1939 1.429 . S
C1936 C1919 1.574 . S
C1936 H1930 0.949 . S
C1936 C1940 1.368 . S
C1937 C1918 1.429 . S
C1937 C1931 1.429 . S
C1937 C1938 1.523 . S
C1938 C1919 1.368 . S
C1938 C1932 1.368 . S
C1938 C1937 1.523 . S
C1939 C1923 1.429 . S
C1939 C1935 1.429 . S
C1939 C1940 1.523 . S
C1940 C1924 1.368 . S
C1940 C1936 1.368 . S
C1940 C1939 1.523 . S
H1941 C1916 0.950 . S
H1942 C1918 0.950 . S
H1943 C1919 0.949 . S
H1944 C1921 0.950 . S
H1945 C1923 0.950 . S
C1946 C1947 1.349 . S
C1946 C1948 1.327 . S
C1946 H1971 0.950 . S
C1947 C1946 1.349 . S
C1947 C1963 1.349 . S
C1948 C1946 1.327 . S
C1948 C1967 1.429 . S
C1948 H1972 0.950 . S
C1949 C1966 1.574 . S
C1949 C1968 1.368 . S
C1949 H1973 0.949 . S
H1950 C1954 0.949 . S
C1951 C1952 1.349 . S
C1951 C1953 1.327 . S
C1951 H1974 0.950 . S
C1952 C1951 1.349 . S
C1952 C1964 1.349 . S
C1953 C1951 1.327 . S
C1953 C1969 1.429 . S
C1953 H1975 0.950 . S
C1954 H1950 0.949 . S
C1954 C1962 1.574 . S
C1954 C1970 1.368 . S
H1955 C1963 0.950 . S
H1956 C1961 0.950 . S
H1957 C1962 0.949 . S
H1958 C1964 0.950 . S
H1959 C1965 0.950 . S
H1960 C1966 0.949 . S
C1961 H1956 0.950 . S
C1961 C1963 1.327 . S
C1961 C1967 1.429 . S
C1962 C1954 1.574 . S
C1962 H1957 0.949 . S
C1962 C1968 1.368 . S
C1963 C1947 1.349 . S
C1963 H1955 0.950 . S
C1963 C1961 1.327 . S
C1964 C1952 1.349 . S
C1964 H1958 0.950 . S
C1964 C1965 1.327 . S
C1965 H1959 0.950 . S
C1965 C1964 1.327 . S
C1965 C1969 1.429 . S
C1966 C1949 1.574 . S
C1966 H1960 0.949 . S
C1966 C1970 1.368 . S
C1967 C1948 1.429 . S
C1967 C1961 1.429 . S
C1967 C1968 1.523 . S
C1968 C1949 1.368 . S
C1968 C1962 1.368 . S
C1968 C1967 1.523 . S
C1969 C1953 1.429 . S
C1969 C1965 1.429 . S
C1969 C1970 1.523 . S
C1970 C1954 1.368 . S
C1970 C1966 1.368 . S
C1970 C1969 1.523 . S
H1971 C1946 0.950 . S
H1972 C1948 0.950 . S
H1973 C1949 0.949 . S
H1974 C1951 0.950 . S
H1975 C1953 0.950 . S
C1976 C1977 1.349 . S
C1976 C1978 1.327 . S
C1976 H2001 0.950 . S
C1977 C1976 1.349 . S
C1977 C1993 1.349 . S
C1978 C1976 1.327 . S
C1978 C1997 1.429 . S
C1978 H2002 0.950 . S
C1979 C1996 1.574 . S
C1979 C1998 1.368 . S
C1979 H2003 0.949 . S
H1980 C1984 0.949 . S
C1981 C1982 1.349 . S
C1981 C1983 1.327 . S
C1981 H2004 0.950 . S
C1982 C1981 1.349 . S
C1982 C1994 1.349 . S
C1983 C1981 1.327 . S
C1983 C1999 1.429 . S
C1983 H2005 0.950 . S
C1984 H1980 0.949 . S
C1984 C1992 1.574 . S
C1984 C2000 1.368 . S
H1985 C1993 0.950 . S
H1986 C1991 0.950 . S
H1987 C1992 0.949 . S
H1988 C1994 0.950 . S
H1989 C1995 0.950 . S
H1990 C1996 0.949 . S
C1991 H1986 0.950 . S
C1991 C1993 1.327 . S
C1991 C1997 1.429 . S
C1992 C1984 1.574 . S
C1992 H1987 0.949 . S
C1992 C1998 1.368 . S
C1993 C1977 1.349 . S
C1993 H1985 0.950 . S
C1993 C1991 1.327 . S
C1994 C1982 1.349 . S
C1994 H1988 0.950 . S
C1994 C1995 1.327 . S
C1995 H1989 0.950 . S
C1995 C1994 1.327 . S
C1995 C1999 1.429 . S
C1996 C1979 1.574 . S
C1996 H1990 0.949 . S
C1996 C2000 1.368 . S
C1997 C1978 1.429 . S
C1997 C1991 1.429 . S
C1997 C1998 1.523 . S
C1998 C1979 1.368 . S
C1998 C1992 1.368 . S
C1998 C1997 1.523 . S
C1999 C1983 1.429 . S
C1999 C1995 1.429 . S
C1999 C2000 1.523 . S
C2000 C1984 1.368 . S
C2000 C1996 1.368 . S
C2000 C1999 1.523 . S
H2001 C1976 0.950 . S
H2002 C1978 0.950 . S
H2003 C1979 0.949 . S
H2004 C1981 0.950 . S
H2005 C1983 0.950 . S
C2006 C2007 1.349 . S
C2006 C2008 1.327 . S
C2006 H2031 0.950 . S
C2007 C2006 1.349 . S
C2007 C2023 1.349 . S
C2008 C2006 1.327 . S
C2008 C2027 1.429 . S
C2008 H2032 0.950 . S
C2009 C2026 1.574 . S
C2009 C2028 1.368 . S
C2009 H2033 0.949 . S
H2010 C2014 0.949 . S
C2011 C2012 1.349 . S
C2011 C2013 1.327 . S
C2011 H2034 0.950 1_565 S
C2012 C2011 1.349 . S
C2012 C2024 1.349 . S
C2013 C2011 1.327 . S
C2013 C2029 1.429 . S
C2013 H2035 0.950 . S
C2014 H2010 0.949 . S
C2014 C2022 1.574 . S
C2014 C2030 1.368 . S
H2015 C2023 0.950 . S
H2016 C2021 0.950 . S
H2017 C2022 0.949 . S
H2018 C2024 0.950 . S
H2019 C2025 0.950 . S
H2020 C2026 0.949 . S
C2021 H2016 0.950 . S
C2021 C2023 1.327 . S
C2021 C2027 1.429 . S
C2022 C2014 1.574 . S
C2022 H2017 0.949 . S
C2022 C2028 1.368 . S
C2023 C2007 1.349 . S
C2023 H2015 0.950 . S
C2023 C2021 1.327 . S
C2024 C2012 1.349 . S
C2024 H2018 0.950 . S
C2024 C2025 1.327 . S
C2025 H2019 0.950 . S
C2025 C2024 1.327 . S
C2025 C2029 1.429 . S
C2026 C2009 1.574 . S
C2026 H2020 0.949 . S
C2026 C2030 1.368 . S
C2027 C2008 1.429 . S
C2027 C2021 1.429 . S
C2027 C2028 1.523 . S
C2028 C2009 1.368 . S
C2028 C2022 1.368 . S
C2028 C2027 1.523 . S
C2029 C2013 1.429 . S
C2029 C2025 1.429 . S
C2029 C2030 1.523 . S
C2030 C2014 1.368 . S
C2030 C2026 1.368 . S
C2030 C2029 1.523 . S
H2031 C2006 0.950 . S
H2032 C2008 0.950 . S
H2033 C2009 0.949 . S
H2034 C2011 0.950 1_545 S
H2035 C2013 0.950 . S
C2036 C2037 1.349 . S
C2036 C2038 1.327 . S
C2036 H2061 0.950 . S
C2037 C2036 1.349 . S
C2037 C2053 1.349 . S
C2038 C2036 1.327 . S
C2038 C2057 1.429 . S
C2038 H2062 0.950 . S
C2039 C2056 1.574 . S
C2039 C2058 1.368 . S
C2039 H2063 0.949 . S
H2040 C2044 0.949 . S
C2041 C2042 1.349 . S
C2041 C2043 1.327 . S
C2041 H2064 0.950 . S
C2042 C2041 1.349 . S
C2042 C2054 1.349 . S
C2043 C2041 1.327 . S
C2043 C2059 1.429 . S
C2043 H2065 0.950 . S
C2044 H2040 0.949 . S
C2044 C2052 1.574 . S
C2044 C2060 1.368 . S
H2045 C2053 0.950 . S
H2046 C2051 0.950 . S
H2047 C2052 0.949 . S
H2048 C2054 0.950 . S
H2049 C2055 0.950 . S
H2050 C2056 0.949 . S
C2051 H2046 0.950 . S
C2051 C2053 1.327 . S
C2051 C2057 1.429 . S
C2052 C2044 1.574 . S
C2052 H2047 0.949 . S
C2052 C2058 1.368 . S
C2053 C2037 1.349 . S
C2053 H2045 0.950 . S
C2053 C2051 1.327 . S
C2054 C2042 1.349 . S
C2054 H2048 0.950 . S
C2054 C2055 1.327 . S
C2055 H2049 0.950 . S
C2055 C2054 1.327 . S
C2055 C2059 1.429 . S
C2056 C2039 1.574 . S
C2056 H2050 0.949 . S
C2056 C2060 1.368 . S
C2057 C2038 1.429 . S
C2057 C2051 1.429 . S
C2057 C2058 1.523 . S
C2058 C2039 1.368 . S
C2058 C2052 1.368 . S
C2058 C2057 1.523 . S
C2059 C2043 1.429 . S
C2059 C2055 1.429 . S
C2059 C2060 1.523 . S
C2060 C2044 1.368 . S
C2060 C2056 1.368 . S
C2060 C2059 1.523 . S
H2061 C2036 0.950 . S
H2062 C2038 0.950 . S
H2063 C2039 0.949 . S
H2064 C2041 0.950 . S
H2065 C2043 0.950 . S
C2066 C2067 1.349 . S
C2066 C2068 1.327 . S
C2066 H2091 0.950 . S
C2067 C2066 1.349 . S
C2067 C2083 1.349 . S
C2068 C2066 1.327 . S
C2068 C2087 1.429 . S
C2068 H2092 0.950 . S
C2069 C2086 1.574 . S
C2069 C2088 1.368 . S
C2069 H2093 0.949 . S
H2070 C2074 0.949 . S
C2071 C2072 1.349 . S
C2071 C2073 1.327 . S
C2071 H2094 0.950 . S
C2072 C2071 1.349 . S
C2072 C2084 1.349 . S
C2073 C2071 1.327 . S
C2073 C2089 1.429 . S
C2073 H2095 0.950 . S
C2074 H2070 0.949 . S
C2074 C2082 1.574 . S
C2074 C2090 1.368 . S
H2075 C2083 0.950 . S
H2076 C2081 0.950 . S
H2077 C2082 0.949 . S
H2078 C2084 0.950 . S
H2079 C2085 0.950 . S
H2080 C2086 0.949 . S
C2081 H2076 0.950 . S
C2081 C2083 1.327 . S
C2081 C2087 1.429 . S
C2082 C2074 1.574 . S
C2082 H2077 0.949 . S
C2082 C2088 1.368 . S
C2083 C2067 1.349 . S
C2083 H2075 0.950 . S
C2083 C2081 1.327 . S
C2084 C2072 1.349 . S
C2084 H2078 0.950 . S
C2084 C2085 1.327 . S
C2085 H2079 0.950 . S
C2085 C2084 1.327 . S
C2085 C2089 1.429 . S
C2086 C2069 1.574 . S
C2086 H2080 0.949 . S
C2086 C2090 1.368 . S
C2087 C2068 1.429 . S
C2087 C2081 1.429 . S
C2087 C2088 1.523 . S
C2088 C2069 1.368 . S
C2088 C2082 1.368 . S
C2088 C2087 1.523 . S
C2089 C2073 1.429 . S
C2089 C2085 1.429 . S
C2089 C2090 1.523 . S
C2090 C2074 1.368 . S
C2090 C2086 1.368 . S
C2090 C2089 1.523 . S
H2091 C2066 0.950 . S
H2092 C2068 0.950 . S
H2093 C2069 0.949 . S
H2094 C2071 0.950 . S
H2095 C2073 0.950 . S
C2096 C2097 1.349 . S
C2096 C2098 1.327 . S
C2096 H2121 0.950 . S
C2097 C2096 1.349 . S
C2097 C2113 1.349 . S
C2098 C2096 1.327 . S
C2098 C2117 1.429 . S
C2098 H2122 0.950 . S
C2099 C2116 1.574 . S
C2099 C2118 1.368 . S
C2099 H2123 0.949 . S
H2100 C2104 0.949 . S
C2101 C2102 1.349 . S
C2101 C2103 1.327 . S
C2101 H2124 0.950 . S
C2102 C2101 1.349 . S
C2102 C2114 1.349 . S
C2103 C2101 1.327 . S
C2103 C2119 1.429 . S
C2103 H2125 0.950 . S
C2104 H2100 0.949 . S
C2104 C2112 1.574 . S
C2104 C2120 1.368 . S
H2105 C2113 0.950 . S
H2106 C2111 0.950 . S
H2107 C2112 0.949 . S
H2108 C2114 0.950 . S
H2109 C2115 0.950 . S
H2110 C2116 0.949 . S
C2111 H2106 0.950 . S
C2111 C2113 1.327 . S
C2111 C2117 1.429 . S
C2112 C2104 1.574 . S
C2112 H2107 0.949 . S
C2112 C2118 1.368 . S
C2113 C2097 1.349 . S
C2113 H2105 0.950 . S
C2113 C2111 1.327 . S
C2114 C2102 1.349 . S
C2114 H2108 0.950 . S
C2114 C2115 1.327 . S
C2115 H2109 0.950 . S
C2115 C2114 1.327 . S
C2115 C2119 1.429 . S
C2116 C2099 1.574 . S
C2116 H2110 0.949 . S
C2116 C2120 1.368 . S
C2117 C2098 1.429 . S
C2117 C2111 1.429 . S
C2117 C2118 1.523 . S
C2118 C2099 1.368 . S
C2118 C2112 1.368 . S
C2118 C2117 1.523 . S
C2119 C2103 1.429 . S
C2119 C2115 1.429 . S
C2119 C2120 1.523 . S
C2120 C2104 1.368 . S
C2120 C2116 1.368 . S
C2120 C2119 1.523 . S
H2121 C2096 0.950 . S
H2122 C2098 0.950 . S
H2123 C2099 0.949 . S
H2124 C2101 0.950 . S
H2125 C2103 0.950 . S
C2126 C2127 1.349 . S
C2126 C2128 1.327 . S
C2126 H2151 0.950 . S
C2127 C2126 1.349 . S
C2127 C2143 1.349 . S
C2128 C2126 1.327 . S
C2128 C2147 1.429 . S
C2128 H2152 0.950 . S
C2129 C2146 1.574 . S
C2129 C2148 1.368 . S
C2129 H2153 0.949 . S
H2130 C2134 0.949 . S
C2131 C2132 1.349 . S
C2131 C2133 1.327 . S
C2131 H2154 0.950 . S
C2132 C2131 1.349 . S
C2132 C2144 1.349 . S
C2133 C2131 1.327 . S
C2133 C2149 1.429 . S
C2133 H2155 0.950 . S
C2134 H2130 0.949 . S
C2134 C2142 1.574 . S
C2134 C2150 1.368 . S
H2135 C2143 0.950 . S
H2136 C2141 0.950 . S
H2137 C2142 0.949 . S
H2138 C2144 0.950 . S
H2139 C2145 0.950 . S
H2140 C2146 0.949 . S
C2141 H2136 0.950 . S
C2141 C2143 1.327 . S
C2141 C2147 1.429 . S
C2142 C2134 1.574 . S
C2142 H2137 0.949 . S
C2142 C2148 1.368 . S
C2143 C2127 1.349 . S
C2143 H2135 0.950 . S
C2143 C2141 1.327 . S
C2144 C2132 1.349 . S
C2144 H2138 0.950 . S
C2144 C2145 1.327 . S
C2145 H2139 0.950 . S
C2145 C2144 1.327 . S
C2145 C2149 1.429 . S
C2146 C2129 1.574 . S
C2146 H2140 0.949 . S
C2146 C2150 1.368 . S
C2147 C2128 1.429 . S
C2147 C2141 1.429 . S
C2147 C2148 1.523 . S
C2148 C2129 1.368 . S
C2148 C2142 1.368 . S
C2148 C2147 1.523 . S
C2149 C2133 1.429 . S
C2149 C2145 1.429 . S
C2149 C2150 1.523 . S
C2150 C2134 1.368 . S
C2150 C2146 1.368 . S
C2150 C2149 1.523 . S
H2151 C2126 0.950 . S
H2152 C2128 0.950 . S
H2153 C2129 0.949 . S
H2154 C2131 0.950 . S
H2155 C2133 0.950 . S
C2156 C2157 1.349 1_655 S
C2156 C2158 1.327 . S
C2156 H2181 0.950 . S
C2157 C2156 1.349 1_455 S
C2157 C2173 1.349 . S
C2158 C2156 1.327 . S
C2158 C2177 1.429 1_655 S
C2158 H2182 0.950 . S
C2159 C2176 1.574 . S
C2159 C2178 1.368 . S
C2159 H2183 0.949 . S
H2160 C2164 0.949 . S
C2161 C2162 1.349 . S
C2161 C2163 1.327 . S
C2161 H2184 0.950 . S
C2162 C2161 1.349 . S
C2162 C2174 1.349 1_454 S
C2163 C2161 1.327 . S
C2163 C2179 1.429 1_554 S
C2163 H2185 0.950 . S
C2164 H2160 0.949 . S
C2164 C2172 1.574 . S
C2164 C2180 1.368 1_655 S
H2165 C2173 0.950 . S
H2166 C2171 0.950 . S
H2167 C2172 0.949 . S
H2168 C2174 0.950 . S
H2169 C2175 0.950 . S
H2170 C2176 0.949 . S
C2171 H2166 0.950 . S
C2171 C2173 1.327 . S
C2171 C2177 1.429 . S
C2172 C2164 1.574 . S
C2172 H2167 0.949 . S
C2172 C2178 1.368 1_655 S
C2173 C2157 1.349 . S
C2173 H2165 0.950 . S
C2173 C2171 1.327 . S
C2174 C2162 1.349 1_656 S
C2174 H2168 0.950 . S
C2174 C2175 1.327 . S
C2175 H2169 0.950 . S
C2175 C2174 1.327 . S
C2175 C2179 1.429 1_655 S
C2176 C2159 1.574 . S
C2176 H2170 0.949 . S
C2176 C2180 1.368 . S
C2177 C2158 1.429 1_455 S
C2177 C2171 1.429 . S
C2177 C2178 1.523 . S
C2178 C2159 1.368 . S
C2178 C2172 1.368 1_455 S
C2178 C2177 1.523 . S
C2179 C2163 1.429 1_556 S
C2179 C2175 1.429 1_455 S
C2179 C2180 1.523 . S
C2180 C2164 1.368 1_455 S
C2180 C2176 1.368 . S
C2180 C2179 1.523 . S
H2181 C2156 0.950 . S
H2182 C2158 0.950 . S
H2183 C2159 0.949 . S
H2184 C2161 0.950 . S
H2185 C2163 0.950 . S
C2186 C2187 1.349 . S
C2186 C2188 1.327 . S
C2186 H2211 0.950 . S
C2187 C2186 1.349 . S
C2187 C2203 1.349 . S
C2188 C2186 1.327 . S
C2188 C2207 1.429 . S
C2188 H2212 0.950 . S
C2189 C2206 1.574 . S
C2189 C2208 1.368 . S
C2189 H2213 0.949 . S
H2190 C2194 0.949 . S
C2191 C2192 1.349 . S
C2191 C2193 1.327 . S
C2191 H2214 0.950 . S
C2192 C2191 1.349 . S
C2192 C2204 1.349 . S
C2193 C2191 1.327 . S
C2193 C2209 1.429 . S
C2193 H2215 0.950 . S
C2194 H2190 0.949 . S
C2194 C2202 1.574 . S
C2194 C2210 1.368 . S
H2195 C2203 0.950 . S
H2196 C2201 0.950 . S
H2197 C2202 0.949 . S
H2198 C2204 0.950 . S
H2199 C2205 0.950 . S
H2200 C2206 0.949 . S
C2201 H2196 0.950 . S
C2201 C2203 1.327 . S
C2201 C2207 1.429 . S
C2202 C2194 1.574 . S
C2202 H2197 0.949 . S
C2202 C2208 1.368 . S
C2203 C2187 1.349 . S
C2203 H2195 0.950 . S
C2203 C2201 1.327 . S
C2204 C2192 1.349 . S
C2204 H2198 0.950 . S
C2204 C2205 1.327 . S
C2205 H2199 0.950 . S
C2205 C2204 1.327 . S
C2205 C2209 1.429 . S
C2206 C2189 1.574 . S
C2206 H2200 0.949 . S
C2206 C2210 1.368 . S
C2207 C2188 1.429 . S
C2207 C2201 1.429 . S
C2207 C2208 1.523 . S
C2208 C2189 1.368 . S
C2208 C2202 1.368 . S
C2208 C2207 1.523 . S
C2209 C2193 1.429 . S
C2209 C2205 1.429 . S
C2209 C2210 1.523 . S
C2210 C2194 1.368 . S
C2210 C2206 1.368 . S
C2210 C2209 1.523 . S
H2211 C2186 0.950 . S
H2212 C2188 0.950 . S
H2213 C2189 0.949 . S
H2214 C2191 0.950 . S
H2215 C2193 0.950 . S
C2216 C2217 1.349 . S
C2216 C2218 1.327 . S
C2216 H2241 0.950 . S
C2217 C2216 1.349 . S
C2217 C2233 1.349 . S
C2218 C2216 1.327 . S
C2218 C2237 1.429 . S
C2218 H2242 0.950 . S
C2219 C2236 1.574 . S
C2219 C2238 1.368 . S
C2219 H2243 0.949 . S
H2220 C2224 0.949 . S
C2221 C2222 1.349 . S
C2221 C2223 1.327 . S
C2221 H2244 0.950 . S
C2222 C2221 1.349 . S
C2222 C2234 1.349 . S
C2223 C2221 1.327 . S
C2223 C2239 1.429 . S
C2223 H2245 0.950 . S
C2224 H2220 0.949 . S
C2224 C2232 1.574 . S
C2224 C2240 1.368 . S
H2225 C2233 0.950 . S
H2226 C2231 0.950 . S
H2227 C2232 0.949 . S
H2228 C2234 0.950 . S
H2229 C2235 0.950 . S
H2230 C2236 0.949 . S
C2231 H2226 0.950 . S
C2231 C2233 1.327 . S
C2231 C2237 1.429 . S
C2232 C2224 1.574 . S
C2232 H2227 0.949 . S
C2232 C2238 1.368 . S
C2233 C2217 1.349 . S
C2233 H2225 0.950 . S
C2233 C2231 1.327 . S
C2234 C2222 1.349 . S
C2234 H2228 0.950 . S
C2234 C2235 1.327 . S
C2235 H2229 0.950 . S
C2235 C2234 1.327 . S
C2235 C2239 1.429 . S
C2236 C2219 1.574 . S
C2236 H2230 0.949 . S
C2236 C2240 1.368 . S
C2237 C2218 1.429 . S
C2237 C2231 1.429 . S
C2237 C2238 1.523 . S
C2238 C2219 1.368 . S
C2238 C2232 1.368 . S
C2238 C2237 1.523 . S
C2239 C2223 1.429 . S
C2239 C2235 1.429 . S
C2239 C2240 1.523 . S
C2240 C2224 1.368 . S
C2240 C2236 1.368 . S
C2240 C2239 1.523 . S
H2241 C2216 0.950 . S
H2242 C2218 0.950 . S
H2243 C2219 0.949 . S
H2244 C2221 0.950 . S
H2245 C2223 0.950 . S
C2246 C2247 1.349 . S
C2246 C2248 1.327 . S
C2246 H2271 0.950 . S
C2247 C2246 1.349 . S
C2247 C2263 1.349 . S
C2248 C2246 1.327 . S
C2248 C2267 1.429 . S
C2248 H2272 0.950 . S
C2249 C2266 1.574 . S
C2249 C2268 1.368 . S
C2249 H2273 0.949 . S
H2250 C2254 0.949 . S
C2251 C2252 1.349 . S
C2251 C2253 1.327 . S
C2251 H2274 0.950 . S
C2252 C2251 1.349 . S
C2252 C2264 1.349 . S
C2253 C2251 1.327 . S
C2253 C2269 1.429 . S
C2253 H2275 0.950 . S
C2254 H2250 0.949 . S
C2254 C2262 1.574 . S
C2254 C2270 1.368 . S
H2255 C2263 0.950 . S
H2256 C2261 0.950 . S
H2257 C2262 0.949 . S
H2258 C2264 0.950 . S
H2259 C2265 0.950 . S
H2260 C2266 0.949 . S
C2261 H2256 0.950 . S
C2261 C2263 1.327 . S
C2261 C2267 1.429 . S
C2262 C2254 1.574 . S
C2262 H2257 0.949 . S
C2262 C2268 1.368 . S
C2263 C2247 1.349 . S
C2263 H2255 0.950 . S
C2263 C2261 1.327 . S
C2264 C2252 1.349 . S
C2264 H2258 0.950 . S
C2264 C2265 1.327 . S
C2265 H2259 0.950 . S
C2265 C2264 1.327 . S
C2265 C2269 1.429 . S
C2266 C2249 1.574 . S
C2266 H2260 0.949 . S
C2266 C2270 1.368 . S
C2267 C2248 1.429 . S
C2267 C2261 1.429 . S
C2267 C2268 1.523 . S
C2268 C2249 1.368 . S
C2268 C2262 1.368 . S
C2268 C2267 1.523 . S
C2269 C2253 1.429 . S
C2269 C2265 1.429 . S
C2269 C2270 1.523 . S
C2270 C2254 1.368 . S
C2270 C2266 1.368 . S
C2270 C2269 1.523 . S
H2271 C2246 0.950 . S
H2272 C2248 0.950 . S
H2273 C2249 0.949 . S
H2274 C2251 0.950 . S
H2275 C2253 0.950 . S
C2276 C2277 1.349 1_655 S
C2276 C2278 1.327 . S
C2276 H2301 0.950 . S
C2277 C2276 1.349 1_455 S
C2277 C2293 1.349 . S
C2278 C2276 1.327 . S
C2278 C2297 1.429 1_655 S
C2278 H2302 0.950 . S
C2279 C2296 1.574 . S
C2279 C2298 1.368 . S
C2279 H2303 0.949 . S
H2280 C2284 0.949 . S
C2281 C2282 1.349 . S
C2281 C2283 1.327 . S
C2281 H2304 0.950 . S
C2282 C2281 1.349 . S
C2282 C2294 1.349 1_455 S
C2283 C2281 1.327 . S
C2283 C2299 1.429 . S
C2283 H2305 0.950 . S
C2284 H2280 0.949 . S
C2284 C2292 1.574 . S
C2284 C2300 1.368 1_655 S
H2285 C2293 0.950 . S
H2286 C2291 0.950 . S
H2287 C2292 0.949 . S
H2288 C2294 0.950 . S
H2289 C2295 0.950 . S
H2290 C2296 0.949 . S
C2291 H2286 0.950 . S
C2291 C2293 1.327 . S
C2291 C2297 1.429 . S
C2292 C2284 1.574 . S
C2292 H2287 0.949 . S
C2292 C2298 1.368 1_655 S
C2293 C2277 1.349 . S
C2293 H2285 0.950 . S
C2293 C2291 1.327 . S
C2294 C2282 1.349 1_655 S
C2294 H2288 0.950 . S
C2294 C2295 1.327 . S
C2295 H2289 0.950 . S
C2295 C2294 1.327 . S
C2295 C2299 1.429 1_655 S
C2296 C2279 1.574 . S
C2296 H2290 0.949 . S
C2296 C2300 1.368 . S
C2297 C2278 1.429 1_455 S
C2297 C2291 1.429 . S
C2297 C2298 1.523 . S
C2298 C2279 1.368 . S
C2298 C2292 1.368 1_455 S
C2298 C2297 1.523 . S
C2299 C2283 1.429 . S
C2299 C2295 1.429 1_455 S
C2299 C2300 1.523 . S
C2300 C2284 1.368 1_455 S
C2300 C2296 1.368 . S
C2300 C2299 1.523 . S
H2301 C2276 0.950 . S
H2302 C2278 0.950 . S
H2303 C2279 0.949 . S
H2304 C2281 0.950 . S
H2305 C2283 0.950 . S
C2306 C2307 1.349 . S
C2306 C2308 1.327 . S
C2306 H2331 0.950 . S
C2307 C2306 1.349 . S
C2307 C2323 1.349 . S
C2308 C2306 1.327 . S
C2308 C2327 1.429 . S
C2308 H2332 0.950 . S
C2309 C2326 1.574 . S
C2309 C2328 1.368 . S
C2309 H2333 0.949 . S
H2310 C2314 0.949 . S
C2311 C2312 1.349 . S
C2311 C2313 1.327 . S
C2311 H2334 0.950 . S
C2312 C2311 1.349 . S
C2312 C2324 1.349 . S
C2313 C2311 1.327 . S
C2313 C2329 1.429 . S
C2313 H2335 0.950 . S
C2314 H2310 0.949 . S
C2314 C2322 1.574 . S
C2314 C2330 1.368 . S
H2315 C2323 0.950 . S
H2316 C2321 0.950 . S
H2317 C2322 0.949 . S
H2318 C2324 0.950 . S
H2319 C2325 0.950 . S
H2320 C2326 0.949 . S
C2321 H2316 0.950 . S
C2321 C2323 1.327 . S
C2321 C2327 1.429 . S
C2322 C2314 1.574 . S
C2322 H2317 0.949 . S
C2322 C2328 1.368 . S
C2323 C2307 1.349 . S
C2323 H2315 0.950 . S
C2323 C2321 1.327 . S
C2324 C2312 1.349 . S
C2324 H2318 0.950 . S
C2324 C2325 1.327 . S
C2325 H2319 0.950 . S
C2325 C2324 1.327 . S
C2325 C2329 1.429 . S
C2326 C2309 1.574 . S
C2326 H2320 0.949 . S
C2326 C2330 1.368 . S
C2327 C2308 1.429 . S
C2327 C2321 1.429 . S
C2327 C2328 1.523 . S
C2328 C2309 1.368 . S
C2328 C2322 1.368 . S
C2328 C2327 1.523 . S
C2329 C2313 1.429 . S
C2329 C2325 1.429 . S
C2329 C2330 1.523 . S
C2330 C2314 1.368 . S
C2330 C2326 1.368 . S
C2330 C2329 1.523 . S
H2331 C2306 0.950 . S
H2332 C2308 0.950 . S
H2333 C2309 0.949 . S
H2334 C2311 0.950 . S
H2335 C2313 0.950 . S
C2336 C2337 1.349 . S
C2336 C2338 1.327 . S
C2336 H2361 0.950 . S
C2337 C2336 1.349 . S
C2337 C2353 1.349 . S
C2338 C2336 1.327 . S
C2338 C2357 1.429 . S
C2338 H2362 0.950 . S
C2339 C2356 1.574 . S
C2339 C2358 1.368 . S
C2339 H2363 0.949 . S
H2340 C2344 0.949 . S
C2341 C2342 1.349 . S
C2341 C2343 1.327 . S
C2341 H2364 0.950 . S
C2342 C2341 1.349 . S
C2342 C2354 1.349 . S
C2343 C2341 1.327 . S
C2343 C2359 1.429 . S
C2343 H2365 0.950 . S
C2344 H2340 0.949 . S
C2344 C2352 1.574 . S
C2344 C2360 1.368 . S
H2345 C2353 0.950 . S
H2346 C2351 0.950 . S
H2347 C2352 0.949 . S
H2348 C2354 0.950 . S
H2349 C2355 0.950 . S
H2350 C2356 0.949 . S
C2351 H2346 0.950 . S
C2351 C2353 1.327 . S
C2351 C2357 1.429 . S
C2352 C2344 1.574 . S
C2352 H2347 0.949 . S
C2352 C2358 1.368 . S
C2353 C2337 1.349 . S
C2353 H2345 0.950 . S
C2353 C2351 1.327 . S
C2354 C2342 1.349 . S
C2354 H2348 0.950 . S
C2354 C2355 1.327 . S
C2355 H2349 0.950 . S
C2355 C2354 1.327 . S
C2355 C2359 1.429 . S
C2356 C2339 1.574 . S
C2356 H2350 0.949 . S
C2356 C2360 1.368 . S
C2357 C2338 1.429 . S
C2357 C2351 1.429 . S
C2357 C2358 1.523 . S
C2358 C2339 1.368 . S
C2358 C2352 1.368 . S
C2358 C2357 1.523 . S
C2359 C2343 1.429 . S
C2359 C2355 1.429 . S
C2359 C2360 1.523 . S
C2360 C2344 1.368 . S
C2360 C2356 1.368 . S
C2360 C2359 1.523 . S
H2361 C2336 0.950 . S
H2362 C2338 0.950 . S
H2363 C2339 0.949 . S
H2364 C2341 0.950 . S
H2365 C2343 0.950 . S
C2366 C2367 1.349 . S
C2366 C2368 1.327 . S
C2366 H2391 0.950 . S
C2367 C2366 1.349 . S
C2367 C2383 1.349 . S
C2368 C2366 1.327 . S
C2368 C2387 1.429 . S
C2368 H2392 0.950 . S
C2369 C2386 1.574 . S
C2369 C2388 1.368 . S
C2369 H2393 0.949 . S
H2370 C2374 0.949 . S
C2371 C2372 1.349 . S
C2371 C2373 1.327 . S
C2371 H2394 0.950 . S
C2372 C2371 1.349 . S
C2372 C2384 1.349 . S
C2373 C2371 1.327 . S
C2373 C2389 1.429 . S
C2373 H2395 0.950 . S
C2374 H2370 0.949 . S
C2374 C2382 1.574 . S
C2374 C2390 1.368 . S
H2375 C2383 0.950 . S
H2376 C2381 0.950 . S
H2377 C2382 0.949 . S
H2378 C2384 0.950 . S
H2379 C2385 0.950 . S
H2380 C2386 0.949 . S
C2381 H2376 0.950 . S
C2381 C2383 1.327 . S
C2381 C2387 1.429 . S
C2382 C2374 1.574 . S
C2382 H2377 0.949 . S
C2382 C2388 1.368 . S
C2383 C2367 1.349 . S
C2383 H2375 0.950 . S
C2383 C2381 1.327 . S
C2384 C2372 1.349 . S
C2384 H2378 0.950 . S
C2384 C2385 1.327 . S
C2385 H2379 0.950 . S
C2385 C2384 1.327 . S
C2385 C2389 1.429 . S
C2386 C2369 1.574 . S
C2386 H2380 0.949 . S
C2386 C2390 1.368 . S
C2387 C2368 1.429 . S
C2387 C2381 1.429 . S
C2387 C2388 1.523 . S
C2388 C2369 1.368 . S
C2388 C2382 1.368 . S
C2388 C2387 1.523 . S
C2389 C2373 1.429 . S
C2389 C2385 1.429 . S
C2389 C2390 1.523 . S
C2390 C2374 1.368 . S
C2390 C2386 1.368 . S
C2390 C2389 1.523 . S
H2391 C2366 0.950 . S
H2392 C2368 0.950 . S
H2393 C2369 0.949 . S
H2394 C2371 0.950 . S
H2395 C2373 0.950 . S
C2396 C2397 1.349 . S
C2396 C2398 1.327 . S
C2396 H2421 0.950 . S
C2397 C2396 1.349 . S
C2397 C2413 1.349 . S
C2398 C2396 1.327 . S
C2398 C2417 1.429 . S
C2398 H2422 0.950 . S
C2399 C2416 1.574 . S
C2399 C2418 1.368 . S
C2399 H2423 0.949 . S
H2400 C2404 0.949 . S
C2401 C2402 1.349 . S
C2401 C2403 1.327 . S
C2401 H2424 0.950 . S
C2402 C2401 1.349 . S
C2402 C2414 1.349 . S
C2403 C2401 1.327 . S
C2403 C2419 1.429 . S
C2403 H2425 0.950 . S
C2404 H2400 0.949 . S
C2404 C2412 1.574 . S
C2404 C2420 1.368 . S
H2405 C2413 0.950 . S
H2406 C2411 0.950 . S
H2407 C2412 0.949 . S
H2408 C2414 0.950 . S
H2409 C2415 0.950 . S
H2410 C2416 0.949 . S
C2411 H2406 0.950 . S
C2411 C2413 1.327 . S
C2411 C2417 1.429 . S
C2412 C2404 1.574 . S
C2412 H2407 0.949 . S
C2412 C2418 1.368 . S
C2413 C2397 1.349 . S
C2413 H2405 0.950 . S
C2413 C2411 1.327 . S
C2414 C2402 1.349 . S
C2414 H2408 0.950 . S
C2414 C2415 1.327 . S
C2415 H2409 0.950 . S
C2415 C2414 1.327 . S
C2415 C2419 1.429 . S
C2416 C2399 1.574 . S
C2416 H2410 0.949 . S
C2416 C2420 1.368 . S
C2417 C2398 1.429 . S
C2417 C2411 1.429 . S
C2417 C2418 1.523 . S
C2418 C2399 1.368 . S
C2418 C2412 1.368 . S
C2418 C2417 1.523 . S
C2419 C2403 1.429 . S
C2419 C2415 1.429 . S
C2419 C2420 1.523 . S
C2420 C2404 1.368 . S
C2420 C2416 1.368 . S
C2420 C2419 1.523 . S
H2421 C2396 0.950 . S
H2422 C2398 0.950 . S
H2423 C2399 0.949 . S
H2424 C2401 0.950 . S
H2425 C2403 0.950 . S
C2426 C2427 1.349 . S
C2426 C2428 1.327 . S
C2426 H2451 0.950 . S
C2427 C2426 1.349 . S
C2427 C2443 1.349 . S
C2428 C2426 1.327 . S
C2428 C2447 1.429 . S
C2428 H2452 0.950 . S
C2429 C2446 1.574 . S
C2429 C2448 1.368 . S
C2429 H2453 0.949 . S
H2430 C2434 0.949 . S
C2431 C2432 1.349 . S
C2431 C2433 1.327 . S
C2431 H2454 0.950 . S
C2432 C2431 1.349 . S
C2432 C2444 1.349 . S
C2433 C2431 1.327 . S
C2433 C2449 1.429 . S
C2433 H2455 0.950 . S
C2434 H2430 0.949 . S
C2434 C2442 1.574 . S
C2434 C2450 1.368 . S
H2435 C2443 0.950 . S
H2436 C2441 0.950 . S
H2437 C2442 0.949 . S
H2438 C2444 0.950 . S
H2439 C2445 0.950 . S
H2440 C2446 0.949 . S
C2441 H2436 0.950 . S
C2441 C2443 1.327 . S
C2441 C2447 1.429 . S
C2442 C2434 1.574 . S
C2442 H2437 0.949 . S
C2442 C2448 1.368 . S
C2443 C2427 1.349 . S
C2443 H2435 0.950 . S
C2443 C2441 1.327 . S
C2444 C2432 1.349 . S
C2444 H2438 0.950 . S
C2444 C2445 1.327 . S
C2445 H2439 0.950 . S
C2445 C2444 1.327 . S
C2445 C2449 1.429 . S
C2446 C2429 1.574 . S
C2446 H2440 0.949 . S
C2446 C2450 1.368 . S
C2447 C2428 1.429 . S
C2447 C2441 1.429 . S
C2447 C2448 1.523 . S
C2448 C2429 1.368 . S
C2448 C2442 1.368 . S
C2448 C2447 1.523 . S
C2449 C2433 1.429 . S
C2449 C2445 1.429 . S
C2449 C2450 1.523 . S
C2450 C2434 1.368 . S
C2450 C2446 1.368 . S
C2450 C2449 1.523 . S
H2451 C2426 0.950 . S
H2452 C2428 0.950 . S
H2453 C2429 0.949 . S
H2454 C2431 0.950 . S
H2455 C2433 0.950 . S
C2456 C2457 1.349 . S
C2456 C2458 1.327 . S
C2456 H2481 0.950 . S
C2457 C2456 1.349 . S
C2457 C2473 1.349 . S
C2458 C2456 1.327 . S
C2458 C2477 1.429 . S
C2458 H2482 0.950 . S
C2459 C2476 1.574 . S
C2459 C2478 1.368 . S
C2459 H2483 0.949 . S
H2460 C2464 0.949 . S
C2461 C2462 1.349 . S
C2461 C2463 1.327 . S
C2461 H2484 0.950 . S
C2462 C2461 1.349 . S
C2462 C2474 1.349 . S
C2463 C2461 1.327 . S
C2463 C2479 1.429 . S
C2463 H2485 0.950 . S
C2464 H2460 0.949 . S
C2464 C2472 1.574 . S
C2464 C2480 1.368 . S
H2465 C2473 0.950 . S
H2466 C2471 0.950 . S
H2467 C2472 0.949 . S
H2468 C2474 0.950 . S
H2469 C2475 0.950 . S
H2470 C2476 0.949 . S
C2471 H2466 0.950 . S
C2471 C2473 1.327 . S
C2471 C2477 1.429 . S
C2472 C2464 1.574 . S
C2472 H2467 0.949 . S
C2472 C2478 1.368 . S
C2473 C2457 1.349 . S
C2473 H2465 0.950 . S
C2473 C2471 1.327 . S
C2474 C2462 1.349 . S
C2474 H2468 0.950 . S
C2474 C2475 1.327 . S
C2475 H2469 0.950 . S
C2475 C2474 1.327 . S
C2475 C2479 1.429 . S
C2476 C2459 1.574 . S
C2476 H2470 0.949 . S
C2476 C2480 1.368 . S
C2477 C2458 1.429 . S
C2477 C2471 1.429 . S
C2477 C2478 1.523 . S
C2478 C2459 1.368 . S
C2478 C2472 1.368 . S
C2478 C2477 1.523 . S
C2479 C2463 1.429 . S
C2479 C2475 1.429 . S
C2479 C2480 1.523 . S
C2480 C2464 1.368 . S
C2480 C2476 1.368 . S
C2480 C2479 1.523 . S
H2481 C2456 0.950 . S
H2482 C2458 0.950 . S
H2483 C2459 0.949 . S
H2484 C2461 0.950 . S
H2485 C2463 0.950 . S
C2486 C2487 1.349 . S
C2486 C2488 1.327 . S
C2486 H2511 0.950 . S
C2487 C2486 1.349 . S
C2487 C2503 1.349 . S
C2488 C2486 1.327 . S
C2488 C2507 1.429 . S
C2488 H2512 0.950 . S
C2489 C2506 1.574 . S
C2489 C2508 1.368 . S
C2489 H2513 0.949 . S
H2490 C2494 0.949 . S
C2491 C2492 1.349 . S
C2491 C2493 1.327 . S
C2491 H2514 0.950 . S
C2492 C2491 1.349 . S
C2492 C2504 1.349 . S
C2493 C2491 1.327 . S
C2493 C2509 1.429 . S
C2493 H2515 0.950 . S
C2494 H2490 0.949 . S
C2494 C2502 1.574 . S
C2494 C2510 1.368 . S
H2495 C2503 0.950 . S
H2496 C2501 0.950 . S
H2497 C2502 0.949 . S
H2498 C2504 0.950 . S
H2499 C2505 0.950 . S
H2500 C2506 0.949 . S
C2501 H2496 0.950 . S
C2501 C2503 1.327 . S
C2501 C2507 1.429 . S
C2502 C2494 1.574 . S
C2502 H2497 0.949 . S
C2502 C2508 1.368 . S
C2503 C2487 1.349 . S
C2503 H2495 0.950 . S
C2503 C2501 1.327 . S
C2504 C2492 1.349 . S
C2504 H2498 0.950 . S
C2504 C2505 1.327 . S
C2505 H2499 0.950 . S
C2505 C2504 1.327 . S
C2505 C2509 1.429 . S
C2506 C2489 1.574 . S
C2506 H2500 0.949 . S
C2506 C2510 1.368 . S
C2507 C2488 1.429 . S
C2507 C2501 1.429 . S
C2507 C2508 1.523 . S
C2508 C2489 1.368 . S
C2508 C2502 1.368 . S
C2508 C2507 1.523 . S
C2509 C2493 1.429 . S
C2509 C2505 1.429 . S
C2509 C2510 1.523 . S
C2510 C2494 1.368 . S
C2510 C2506 1.368 . S
C2510 C2509 1.523 . S
H2511 C2486 0.950 . S
H2512 C2488 0.950 . S
H2513 C2489 0.949 . S
H2514 C2491 0.950 . S
H2515 C2493 0.950 . S
C2516 C2517 1.349 . S
C2516 C2518 1.327 . S
C2516 H2541 0.950 . S
C2517 C2516 1.349 . S
C2517 C2533 1.349 . S
C2518 C2516 1.327 . S
C2518 C2537 1.429 . S
C2518 H2542 0.950 . S
C2519 C2536 1.574 . S
C2519 C2538 1.368 . S
C2519 H2543 0.949 . S
H2520 C2524 0.949 . S
C2521 C2522 1.349 . S
C2521 C2523 1.327 . S
C2521 H2544 0.950 . S
C2522 C2521 1.349 . S
C2522 C2534 1.349 . S
C2523 C2521 1.327 . S
C2523 C2539 1.429 . S
C2523 H2545 0.950 . S
C2524 H2520 0.949 . S
C2524 C2532 1.574 . S
C2524 C2540 1.368 . S
H2525 C2533 0.950 . S
H2526 C2531 0.950 . S
H2527 C2532 0.949 . S
H2528 C2534 0.950 . S
H2529 C2535 0.950 . S
H2530 C2536 0.949 . S
C2531 H2526 0.950 . S
C2531 C2533 1.327 . S
C2531 C2537 1.429 . S
C2532 C2524 1.574 . S
C2532 H2527 0.949 . S
C2532 C2538 1.368 . S
C2533 C2517 1.349 . S
C2533 H2525 0.950 . S
C2533 C2531 1.327 . S
C2534 C2522 1.349 . S
C2534 H2528 0.950 . S
C2534 C2535 1.327 . S
C2535 H2529 0.950 . S
C2535 C2534 1.327 . S
C2535 C2539 1.429 . S
C2536 C2519 1.574 . S
C2536 H2530 0.949 . S
C2536 C2540 1.368 . S
C2537 C2518 1.429 . S
C2537 C2531 1.429 . S
C2537 C2538 1.523 . S
C2538 C2519 1.368 . S
C2538 C2532 1.368 . S
C2538 C2537 1.523 . S
C2539 C2523 1.429 . S
C2539 C2535 1.429 . S
C2539 C2540 1.523 . S
C2540 C2524 1.368 . S
C2540 C2536 1.368 . S
C2540 C2539 1.523 . S
H2541 C2516 0.950 . S
H2542 C2518 0.950 . S
H2543 C2519 0.949 . S
H2544 C2521 0.950 . S
H2545 C2523 0.950 . S
C2546 C2547 1.349 . S
C2546 C2548 1.327 . S
C2546 H2571 0.950 . S
C2547 C2546 1.349 . S
C2547 C2563 1.349 . S
C2548 C2546 1.327 . S
C2548 C2567 1.429 . S
C2548 H2572 0.950 . S
C2549 C2566 1.574 . S
C2549 C2568 1.368 . S
C2549 H2573 0.949 . S
H2550 C2554 0.949 . S
C2551 C2552 1.349 . S
C2551 C2553 1.327 . S
C2551 H2574 0.950 . S
C2552 C2551 1.349 . S
C2552 C2564 1.349 . S
C2553 C2551 1.327 . S
C2553 C2569 1.429 . S
C2553 H2575 0.950 . S
C2554 H2550 0.949 . S
C2554 C2562 1.574 . S
C2554 C2570 1.368 . S
H2555 C2563 0.950 . S
H2556 C2561 0.950 . S
H2557 C2562 0.949 . S
H2558 C2564 0.950 . S
H2559 C2565 0.950 . S
H2560 C2566 0.949 . S
C2561 H2556 0.950 . S
C2561 C2563 1.327 . S
C2561 C2567 1.429 . S
C2562 C2554 1.574 . S
C2562 H2557 0.949 . S
C2562 C2568 1.368 . S
C2563 C2547 1.349 . S
C2563 H2555 0.950 . S
C2563 C2561 1.327 . S
C2564 C2552 1.349 . S
C2564 H2558 0.950 . S
C2564 C2565 1.327 . S
C2565 H2559 0.950 . S
C2565 C2564 1.327 . S
C2565 C2569 1.429 . S
C2566 C2549 1.574 . S
C2566 H2560 0.949 . S
C2566 C2570 1.368 . S
C2567 C2548 1.429 . S
C2567 C2561 1.429 . S
C2567 C2568 1.523 . S
C2568 C2549 1.368 . S
C2568 C2562 1.368 . S
C2568 C2567 1.523 . S
C2569 C2553 1.429 . S
C2569 C2565 1.429 . S
C2569 C2570 1.523 . S
C2570 C2554 1.368 . S
C2570 C2566 1.368 . S
C2570 C2569 1.523 . S
H2571 C2546 0.950 . S
H2572 C2548 0.950 . S
H2573 C2549 0.949 . S
H2574 C2551 0.950 . S
H2575 C2553 0.950 . S
C2576 C2577 1.349 . S
C2576 C2578 1.327 . S
C2576 H2601 0.950 . S
C2577 C2576 1.349 . S
C2577 C2593 1.349 . S
C2578 C2576 1.327 . S
C2578 C2597 1.429 . S
C2578 H2602 0.950 . S
C2579 C2596 1.574 . S
C2579 C2598 1.368 . S
C2579 H2603 0.949 . S
H2580 C2584 0.949 . S
C2581 C2582 1.349 . S
C2581 C2583 1.327 . S
C2581 H2604 0.950 . S
C2582 C2581 1.349 . S
C2582 C2594 1.349 . S
C2583 C2581 1.327 . S
C2583 C2599 1.429 . S
C2583 H2605 0.950 . S
C2584 H2580 0.949 . S
C2584 C2592 1.574 . S
C2584 C2600 1.368 . S
H2585 C2593 0.950 . S
H2586 C2591 0.950 . S
H2587 C2592 0.949 . S
H2588 C2594 0.950 . S
H2589 C2595 0.950 . S
H2590 C2596 0.949 . S
C2591 H2586 0.950 . S
C2591 C2593 1.327 . S
C2591 C2597 1.429 . S
C2592 C2584 1.574 . S
C2592 H2587 0.949 . S
C2592 C2598 1.368 . S
C2593 C2577 1.349 . S
C2593 H2585 0.950 . S
C2593 C2591 1.327 . S
C2594 C2582 1.349 . S
C2594 H2588 0.950 . S
C2594 C2595 1.327 . S
C2595 H2589 0.950 . S
C2595 C2594 1.327 . S
C2595 C2599 1.429 . S
C2596 C2579 1.574 . S
C2596 H2590 0.949 . S
C2596 C2600 1.368 . S
C2597 C2578 1.429 . S
C2597 C2591 1.429 . S
C2597 C2598 1.523 . S
C2598 C2579 1.368 . S
C2598 C2592 1.368 . S
C2598 C2597 1.523 . S
C2599 C2583 1.429 . S
C2599 C2595 1.429 . S
C2599 C2600 1.523 . S
C2600 C2584 1.368 . S
C2600 C2596 1.368 . S
C2600 C2599 1.523 . S
H2601 C2576 0.950 . S
H2602 C2578 0.950 . S
H2603 C2579 0.949 . S
H2604 C2581 0.950 . S
H2605 C2583 0.950 . S
C2606 C2607 1.349 . S
C2606 C2608 1.327 . S
C2606 H2631 0.950 . S
C2607 C2606 1.349 . S
C2607 C2623 1.349 . S
C2608 C2606 1.327 . S
C2608 C2627 1.429 . S
C2608 H2632 0.950 . S
C2609 C2626 1.574 . S
C2609 C2628 1.368 . S
C2609 H2633 0.949 . S
H2610 C2614 0.949 . S
C2611 C2612 1.349 . S
C2611 C2613 1.327 . S
C2611 H2634 0.950 . S
C2612 C2611 1.349 . S
C2612 C2624 1.349 . S
C2613 C2611 1.327 . S
C2613 C2629 1.429 . S
C2613 H2635 0.950 . S
C2614 H2610 0.949 . S
C2614 C2622 1.574 . S
C2614 C2630 1.368 . S
H2615 C2623 0.950 . S
H2616 C2621 0.950 . S
H2617 C2622 0.949 . S
H2618 C2624 0.950 . S
H2619 C2625 0.950 . S
H2620 C2626 0.949 . S
C2621 H2616 0.950 . S
C2621 C2623 1.327 . S
C2621 C2627 1.429 . S
C2622 C2614 1.574 . S
C2622 H2617 0.949 . S
C2622 C2628 1.368 . S
C2623 C2607 1.349 . S
C2623 H2615 0.950 . S
C2623 C2621 1.327 . S
C2624 C2612 1.349 . S
C2624 H2618 0.950 . S
C2624 C2625 1.327 . S
C2625 H2619 0.950 . S
C2625 C2624 1.327 . S
C2625 C2629 1.429 . S
C2626 C2609 1.574 . S
C2626 H2620 0.949 . S
C2626 C2630 1.368 . S
C2627 C2608 1.429 . S
C2627 C2621 1.429 . S
C2627 C2628 1.523 . S
C2628 C2609 1.368 . S
C2628 C2622 1.368 . S
C2628 C2627 1.523 . S
C2629 C2613 1.429 . S
C2629 C2625 1.429 . S
C2629 C2630 1.523 . S
C2630 C2614 1.368 . S
C2630 C2626 1.368 . S
C2630 C2629 1.523 . S
H2631 C2606 0.950 . S
H2632 C2608 0.950 . S
H2633 C2609 0.949 . S
H2634 C2611 0.950 . S
H2635 C2613 0.950 . S
C2636 C2637 1.349 . S
C2636 C2638 1.327 . S
C2636 H2661 0.950 . S
C2637 C2636 1.349 . S
C2637 C2653 1.349 . S
C2638 C2636 1.327 . S
C2638 C2657 1.429 . S
C2638 H2662 0.950 . S
C2639 C2656 1.574 . S
C2639 C2658 1.368 . S
C2639 H2663 0.949 . S
H2640 C2644 0.949 . S
C2641 C2642 1.349 . S
C2641 C2643 1.327 . S
C2641 H2664 0.950 . S
C2642 C2641 1.349 . S
C2642 C2654 1.349 . S
C2643 C2641 1.327 . S
C2643 C2659 1.429 . S
C2643 H2665 0.950 . S
C2644 H2640 0.949 . S
C2644 C2652 1.574 . S
C2644 C2660 1.368 . S
H2645 C2653 0.950 . S
H2646 C2651 0.950 . S
H2647 C2652 0.949 . S
H2648 C2654 0.950 . S
H2649 C2655 0.950 . S
H2650 C2656 0.949 . S
C2651 H2646 0.950 . S
C2651 C2653 1.327 . S
C2651 C2657 1.429 . S
C2652 C2644 1.574 . S
C2652 H2647 0.949 . S
C2652 C2658 1.368 . S
C2653 C2637 1.349 . S
C2653 H2645 0.950 . S
C2653 C2651 1.327 . S
C2654 C2642 1.349 . S
C2654 H2648 0.950 . S
C2654 C2655 1.327 . S
C2655 H2649 0.950 . S
C2655 C2654 1.327 . S
C2655 C2659 1.429 . S
C2656 C2639 1.574 . S
C2656 H2650 0.949 . S
C2656 C2660 1.368 . S
C2657 C2638 1.429 . S
C2657 C2651 1.429 . S
C2657 C2658 1.523 . S
C2658 C2639 1.368 . S
C2658 C2652 1.368 . S
C2658 C2657 1.523 . S
C2659 C2643 1.429 . S
C2659 C2655 1.429 . S
C2659 C2660 1.523 . S
C2660 C2644 1.368 . S
C2660 C2656 1.368 . S
C2660 C2659 1.523 . S
H2661 C2636 0.950 . S
H2662 C2638 0.950 . S
H2663 C2639 0.949 . S
H2664 C2641 0.950 . S
H2665 C2643 0.950 . S
C2666 C2667 1.349 . S
C2666 C2668 1.327 . S
C2666 H2691 0.950 . S
C2667 C2666 1.349 . S
C2667 C2683 1.349 . S
C2668 C2666 1.327 . S
C2668 C2687 1.429 . S
C2668 H2692 0.950 . S
C2669 C2686 1.574 . S
C2669 C2688 1.368 . S
C2669 H2693 0.949 1_554 S
H2670 C2674 0.949 . S
C2671 C2672 1.347 1_556 S
C2671 C2673 1.327 1_556 S
C2671 H2694 0.953 . S
C2672 C2671 1.347 1_554 S
C2672 C2684 1.358 . S
C2673 C2671 1.327 1_554 S
C2673 C2689 1.429 1_545 S
C2673 H2695 0.950 1_554 S
C2674 H2670 0.949 . S
C2674 C2682 1.574 . S
C2674 C2690 1.368 . S
H2675 C2683 0.950 . S
H2676 C2681 0.950 1_556 S
H2677 C2682 0.949 . S
H2678 C2684 0.947 1_565 S
H2679 C2685 0.950 . S
H2680 C2686 0.949 1_556 S
C2681 H2676 0.950 1_554 S
C2681 C2683 1.327 . S
C2681 C2687 1.429 . S
C2682 C2674 1.574 . S
C2682 H2677 0.949 . S
C2682 C2688 1.368 . S
C2683 C2667 1.349 . S
C2683 H2675 0.950 . S
C2683 C2681 1.327 . S
C2684 C2672 1.358 . S
C2684 H2678 0.947 1_545 S
C2684 C2685 1.322 1_545 S
C2685 H2679 0.950 . S
C2685 C2684 1.322 1_565 S
C2685 C2689 1.429 . S
C2686 C2669 1.574 . S
C2686 H2680 0.949 1_554 S
C2686 C2690 1.368 . S
C2687 C2668 1.429 . S
C2687 C2681 1.429 . S
C2687 C2688 1.523 . S
C2688 C2669 1.368 . S
C2688 C2682 1.368 . S
C2688 C2687 1.523 . S
C2689 C2673 1.429 1_565 S
C2689 C2685 1.429 . S
C2689 C2690 1.523 . S
C2690 C2674 1.368 . S
C2690 C2686 1.368 . S
C2690 C2689 1.523 . S
H2691 C2666 0.950 . S
H2692 C2668 0.950 . S
H2693 C2669 0.949 1_556 S
H2694 C2671 0.953 . S
H2695 C2673 0.950 1_556 S
C2696 C2697 1.349 . S
C2696 C2698 1.327 . S
C2696 H2721 0.950 . S
C2697 C2696 1.349 . S
C2697 C2713 1.349 . S
C2698 C2696 1.327 . S
C2698 C2717 1.429 . S
C2698 H2722 0.950 . S
C2699 C2716 1.574 . S
C2699 C2718 1.368 . S
C2699 H2723 0.949 . S
H2700 C2704 0.949 . S
C2701 C2702 1.349 . S
C2701 C2703 1.327 . S
C2701 H2724 0.950 . S
C2702 C2701 1.349 . S
C2702 C2714 1.349 . S
C2703 C2701 1.327 . S
C2703 C2719 1.429 . S
C2703 H2725 0.950 . S
C2704 H2700 0.949 . S
C2704 C2712 1.574 . S
C2704 C2720 1.368 . S
H2705 C2713 0.950 . S
H2706 C2711 0.950 . S
H2707 C2712 0.949 . S
H2708 C2714 0.950 . S
H2709 C2715 0.950 . S
H2710 C2716 0.949 . S
C2711 H2706 0.950 . S
C2711 C2713 1.327 . S
C2711 C2717 1.429 . S
C2712 C2704 1.574 . S
C2712 H2707 0.949 . S
C2712 C2718 1.368 . S
C2713 C2697 1.349 . S
C2713 H2705 0.950 . S
C2713 C2711 1.327 . S
C2714 C2702 1.349 . S
C2714 H2708 0.950 . S
C2714 C2715 1.327 . S
C2715 H2709 0.950 . S
C2715 C2714 1.327 . S
C2715 C2719 1.429 . S
C2716 C2699 1.574 . S
C2716 H2710 0.949 . S
C2716 C2720 1.368 . S
C2717 C2698 1.429 . S
C2717 C2711 1.429 . S
C2717 C2718 1.523 . S
C2718 C2699 1.368 . S
C2718 C2712 1.368 . S
C2718 C2717 1.523 . S
C2719 C2703 1.429 . S
C2719 C2715 1.429 . S
C2719 C2720 1.523 . S
C2720 C2704 1.368 . S
C2720 C2716 1.368 . S
C2720 C2719 1.523 . S
H2721 C2696 0.950 . S
H2722 C2698 0.950 . S
H2723 C2699 0.949 . S
H2724 C2701 0.950 . S
H2725 C2703 0.950 . S
C2726 C2727 1.349 . S
C2726 C2728 1.327 . S
C2726 H2751 0.950 . S
C2727 C2726 1.349 . S
C2727 C2743 1.349 1_554 S
C2728 C2726 1.327 . S
C2728 C2747 1.429 . S
C2728 H2752 0.950 . S
C2729 C2746 1.574 . S
C2729 C2748 1.368 . S
C2729 H2753 0.949 1_554 S
H2730 C2734 0.949 . S
C2731 C2732 1.349 . S
C2731 C2733 1.327 . S
C2731 H2754 0.950 . S
C2732 C2731 1.349 . S
C2732 C2744 1.349 . S
C2733 C2731 1.327 . S
C2733 C2749 1.429 . S
C2733 H2755 0.950 1_554 S
C2734 H2730 0.949 . S
C2734 C2742 1.574 . S
C2734 C2750 1.368 . S
H2735 C2743 0.950 . S
H2736 C2741 0.964 . S
H2737 C2742 0.949 . S
H2738 C2744 0.950 . S
H2739 C2745 0.950 . S
H2740 C2746 0.949 1_556 S
C2741 H2736 0.964 . S
C2741 C2743 1.329 . S
C2741 C2747 1.413 1_556 S
C2742 C2734 1.574 . S
C2742 H2737 0.949 . S
C2742 C2748 1.368 . S
C2743 C2727 1.349 1_556 S
C2743 H2735 0.950 . S
C2743 C2741 1.329 . S
C2744 C2732 1.349 . S
C2744 H2738 0.950 . S
C2744 C2745 1.327 . S
C2745 H2739 0.950 . S
C2745 C2744 1.327 . S
C2745 C2749 1.429 . S
C2746 C2729 1.574 . S
C2746 H2740 0.949 1_554 S
C2746 C2750 1.368 . S
C2747 C2728 1.429 . S
C2747 C2741 1.413 1_554 S
C2747 C2748 1.523 . S
C2748 C2729 1.368 . S
C2748 C2742 1.368 . S
C2748 C2747 1.523 . S
C2749 C2733 1.429 . S
C2749 C2745 1.429 . S
C2749 C2750 1.523 . S
C2750 C2734 1.368 . S
C2750 C2746 1.368 . S
C2750 C2749 1.523 . S
H2751 C2726 0.950 . S
H2752 C2728 0.950 . S
H2753 C2729 0.949 1_556 S
H2754 C2731 0.950 . S
H2755 C2733 0.950 1_556 S
C2756 C2757 1.349 . S
C2756 C2758 1.327 . S
C2756 H2781 0.950 . S
C2757 C2756 1.349 . S
C2757 C2773 1.349 . S
C2758 C2756 1.327 . S
C2758 C2777 1.429 . S
C2758 H2782 0.950 . S
C2759 C2776 1.574 . S
C2759 C2778 1.368 . S
C2759 H2783 0.949 . S
H2760 C2764 0.949 . S
C2761 C2762 1.349 . S
C2761 C2763 1.327 . S
C2761 H2784 0.950 . S
C2762 C2761 1.349 . S
C2762 C2774 1.349 . S
C2763 C2761 1.327 . S
C2763 C2779 1.429 . S
C2763 H2785 0.950 . S
C2764 H2760 0.949 . S
C2764 C2772 1.574 . S
C2764 C2780 1.368 . S
H2765 C2773 0.950 . S
H2766 C2771 0.950 . S
H2767 C2772 0.949 . S
H2768 C2774 0.950 . S
H2769 C2775 0.950 . S
H2770 C2776 0.949 . S
C2771 H2766 0.950 . S
C2771 C2773 1.327 . S
C2771 C2777 1.429 . S
C2772 C2764 1.574 . S
C2772 H2767 0.949 . S
C2772 C2778 1.368 . S
C2773 C2757 1.349 . S
C2773 H2765 0.950 . S
C2773 C2771 1.327 . S
C2774 C2762 1.349 . S
C2774 H2768 0.950 . S
C2774 C2775 1.327 . S
C2775 H2769 0.950 . S
C2775 C2774 1.327 . S
C2775 C2779 1.429 . S
C2776 C2759 1.574 . S
C2776 H2770 0.949 . S
C2776 C2780 1.368 . S
C2777 C2758 1.429 . S
C2777 C2771 1.429 . S
C2777 C2778 1.523 . S
C2778 C2759 1.368 . S
C2778 C2772 1.368 . S
C2778 C2777 1.523 . S
C2779 C2763 1.429 . S
C2779 C2775 1.429 . S
C2779 C2780 1.523 . S
C2780 C2764 1.368 . S
C2780 C2776 1.368 . S
C2780 C2779 1.523 . S
H2781 C2756 0.950 . S
H2782 C2758 0.950 . S
H2783 C2759 0.949 . S
H2784 C2761 0.950 . S
H2785 C2763 0.950 . S
C2786 C2787 1.349 . S
C2786 C2788 1.327 . S
C2786 H2811 0.950 . S
C2787 C2786 1.349 . S
C2787 C2803 1.349 . S
C2788 C2786 1.327 . S
C2788 C2807 1.429 . S
C2788 H2812 0.950 . S
C2789 C2806 1.574 . S
C2789 C2808 1.368 . S
C2789 H2813 0.949 . S
H2790 C2794 0.949 . S
C2791 C2792 1.349 . S
C2791 C2793 1.327 . S
C2791 H2814 0.950 . S
C2792 C2791 1.349 . S
C2792 C2804 1.349 . S
C2793 C2791 1.327 . S
C2793 C2809 1.429 . S
C2793 H2815 0.950 . S
C2794 H2790 0.949 . S
C2794 C2802 1.574 . S
C2794 C2810 1.368 . S
H2795 C2803 0.950 . S
H2796 C2801 0.950 . S
H2797 C2802 0.949 . S
H2798 C2804 0.950 . S
H2799 C2805 0.950 . S
H2800 C2806 0.949 . S
C2801 H2796 0.950 . S
C2801 C2803 1.327 . S
C2801 C2807 1.429 . S
C2802 C2794 1.574 . S
C2802 H2797 0.949 . S
C2802 C2808 1.368 . S
C2803 C2787 1.349 . S
C2803 H2795 0.950 . S
C2803 C2801 1.327 . S
C2804 C2792 1.349 . S
C2804 H2798 0.950 . S
C2804 C2805 1.327 . S
C2805 H2799 0.950 . S
C2805 C2804 1.327 . S
C2805 C2809 1.429 . S
C2806 C2789 1.574 . S
C2806 H2800 0.949 . S
C2806 C2810 1.368 . S
C2807 C2788 1.429 . S
C2807 C2801 1.429 . S
C2807 C2808 1.523 . S
C2808 C2789 1.368 . S
C2808 C2802 1.368 . S
C2808 C2807 1.523 . S
C2809 C2793 1.429 . S
C2809 C2805 1.429 . S
C2809 C2810 1.523 . S
C2810 C2794 1.368 . S
C2810 C2806 1.368 . S
C2810 C2809 1.523 . S
H2811 C2786 0.950 . S
H2812 C2788 0.950 . S
H2813 C2789 0.949 . S
H2814 C2791 0.950 . S
H2815 C2793 0.950 . S
C2816 C2817 1.349 . S
C2816 C2818 1.327 . S
C2816 H2841 0.950 . S
C2817 C2816 1.349 . S
C2817 C2833 1.349 . S
C2818 C2816 1.327 . S
C2818 C2837 1.429 . S
C2818 H2842 0.950 . S
C2819 C2836 1.574 . S
C2819 C2838 1.368 . S
C2819 H2843 0.949 . S
H2820 C2824 0.949 . S
C2821 C2822 1.349 . S
C2821 C2823 1.327 . S
C2821 H2844 0.950 . S
C2822 C2821 1.349 . S
C2822 C2834 1.349 . S
C2823 C2821 1.327 . S
C2823 C2839 1.429 . S
C2823 H2845 0.950 . S
C2824 H2820 0.949 . S
C2824 C2832 1.574 . S
C2824 C2840 1.368 . S
H2825 C2833 0.950 . S
H2826 C2831 0.950 . S
H2827 C2832 0.949 . S
H2828 C2834 0.950 . S
H2829 C2835 0.950 . S
H2830 C2836 0.949 . S
C2831 H2826 0.950 . S
C2831 C2833 1.327 . S
C2831 C2837 1.429 . S
C2832 C2824 1.574 . S
C2832 H2827 0.949 . S
C2832 C2838 1.368 . S
C2833 C2817 1.349 . S
C2833 H2825 0.950 . S
C2833 C2831 1.327 . S
C2834 C2822 1.349 . S
C2834 H2828 0.950 . S
C2834 C2835 1.327 . S
C2835 H2829 0.950 . S
C2835 C2834 1.327 . S
C2835 C2839 1.429 . S
C2836 C2819 1.574 . S
C2836 H2830 0.949 . S
C2836 C2840 1.368 . S
C2837 C2818 1.429 . S
C2837 C2831 1.429 . S
C2837 C2838 1.523 . S
C2838 C2819 1.368 . S
C2838 C2832 1.368 . S
C2838 C2837 1.523 . S
C2839 C2823 1.429 . S
C2839 C2835 1.429 . S
C2839 C2840 1.523 . S
C2840 C2824 1.368 . S
C2840 C2836 1.368 . S
C2840 C2839 1.523 . S
H2841 C2816 0.950 . S
H2842 C2818 0.950 . S
H2843 C2819 0.949 . S
H2844 C2821 0.950 . S
H2845 C2823 0.950 . S
C2846 C2847 1.349 . S
C2846 C2848 1.327 . S
C2846 H2871 0.950 . S
C2847 C2846 1.349 . S
C2847 C2863 1.349 . S
C2848 C2846 1.327 . S
C2848 C2867 1.429 . S
C2848 H2872 0.950 . S
C2849 C2866 1.574 . S
C2849 C2868 1.368 . S
C2849 H2873 0.949 . S
H2850 C2854 0.949 . S
C2851 C2852 1.349 . S
C2851 C2853 1.327 . S
C2851 H2874 0.950 . S
C2852 C2851 1.349 . S
C2852 C2864 1.349 . S
C2853 C2851 1.327 . S
C2853 C2869 1.429 . S
C2853 H2875 0.950 . S
C2854 H2850 0.949 . S
C2854 C2862 1.574 . S
C2854 C2870 1.368 . S
H2855 C2863 0.950 . S
H2856 C2861 0.950 . S
H2857 C2862 0.949 . S
H2858 C2864 0.950 . S
H2859 C2865 0.950 . S
H2860 C2866 0.949 . S
C2861 H2856 0.950 . S
C2861 C2863 1.327 . S
C2861 C2867 1.429 . S
C2862 C2854 1.574 . S
C2862 H2857 0.949 . S
C2862 C2868 1.368 . S
C2863 C2847 1.349 . S
C2863 H2855 0.950 . S
C2863 C2861 1.327 . S
C2864 C2852 1.349 . S
C2864 H2858 0.950 . S
C2864 C2865 1.327 . S
C2865 H2859 0.950 . S
C2865 C2864 1.327 . S
C2865 C2869 1.429 . S
C2866 C2849 1.574 . S
C2866 H2860 0.949 . S
C2866 C2870 1.368 . S
C2867 C2848 1.429 . S
C2867 C2861 1.429 . S
C2867 C2868 1.523 . S
C2868 C2849 1.368 . S
C2868 C2862 1.368 . S
C2868 C2867 1.523 . S
C2869 C2853 1.429 . S
C2869 C2865 1.429 . S
C2869 C2870 1.523 . S
C2870 C2854 1.368 . S
C2870 C2866 1.368 . S
C2870 C2869 1.523 . S
H2871 C2846 0.950 . S
H2872 C2848 0.950 . S
H2873 C2849 0.949 . S
H2874 C2851 0.950 . S
H2875 C2853 0.950 . S
C2876 C2877 1.349 . S
C2876 C2878 1.327 . S
C2876 H2901 0.950 . S
C2877 C2876 1.349 . S
C2877 C2893 1.349 . S
C2878 C2876 1.327 . S
C2878 C2897 1.429 . S
C2878 H2902 0.950 . S
C2879 C2896 1.574 . S
C2879 C2898 1.368 . S
C2879 H2903 0.949 . S
H2880 C2884 0.949 . S
C2881 C2882 1.349 . S
C2881 C2883 1.327 . S
C2881 H2904 0.950 . S
C2882 C2881 1.349 . S
C2882 C2894 1.349 . S
C2883 C2881 1.327 . S
C2883 C2899 1.429 . S
C2883 H2905 0.950 . S
C2884 H2880 0.949 . S
C2884 C2892 1.574 . S
C2884 C2900 1.368 . S
H2885 C2893 0.950 . S
H2886 C2891 0.950 . S
H2887 C2892 0.949 . S
H2888 C2894 0.950 . S
H2889 C2895 0.950 . S
H2890 C2896 0.949 . S
C2891 H2886 0.950 . S
C2891 C2893 1.327 . S
C2891 C2897 1.429 . S
C2892 C2884 1.574 . S
C2892 H2887 0.949 . S
C2892 C2898 1.368 . S
C2893 C2877 1.349 . S
C2893 H2885 0.950 . S
C2893 C2891 1.327 . S
C2894 C2882 1.349 . S
C2894 H2888 0.950 . S
C2894 C2895 1.327 . S
C2895 H2889 0.950 . S
C2895 C2894 1.327 . S
C2895 C2899 1.429 . S
C2896 C2879 1.574 . S
C2896 H2890 0.949 . S
C2896 C2900 1.368 . S
C2897 C2878 1.429 . S
C2897 C2891 1.429 . S
C2897 C2898 1.523 . S
C2898 C2879 1.368 . S
C2898 C2892 1.368 . S
C2898 C2897 1.523 . S
C2899 C2883 1.429 . S
C2899 C2895 1.429 . S
C2899 C2900 1.523 . S
C2900 C2884 1.368 . S
C2900 C2896 1.368 . S
C2900 C2899 1.523 . S
H2901 C2876 0.950 . S
H2902 C2878 0.950 . S
H2903 C2879 0.949 . S
H2904 C2881 0.950 . S
H2905 C2883 0.950 . S
C2906 C2907 1.349 . S
C2906 C2908 1.327 . S
C2906 H2931 0.950 . S
C2907 C2906 1.349 . S
C2907 C2923 1.349 . S
C2908 C2906 1.327 . S
C2908 C2927 1.429 . S
C2908 H2932 0.950 . S
C2909 C2926 1.574 . S
C2909 C2928 1.368 . S
C2909 H2933 0.949 . S
H2910 C2914 0.949 . S
C2911 C2912 1.349 . S
C2911 C2913 1.327 . S
C2911 H2934 0.950 . S
C2912 C2911 1.349 . S
C2912 C2924 1.349 . S
C2913 C2911 1.327 . S
C2913 C2929 1.429 . S
C2913 H2935 0.950 . S
C2914 H2910 0.949 . S
C2914 C2922 1.574 . S
C2914 C2930 1.368 . S
H2915 C2923 0.950 . S
H2916 C2921 0.950 . S
H2917 C2922 0.949 . S
H2918 C2924 0.950 . S
H2919 C2925 0.950 . S
H2920 C2926 0.949 . S
C2921 H2916 0.950 . S
C2921 C2923 1.327 . S
C2921 C2927 1.429 . S
C2922 C2914 1.574 . S
C2922 H2917 0.949 . S
C2922 C2928 1.368 . S
C2923 C2907 1.349 . S
C2923 H2915 0.950 . S
C2923 C2921 1.327 . S
C2924 C2912 1.349 . S
C2924 H2918 0.950 . S
C2924 C2925 1.327 . S
C2925 H2919 0.950 . S
C2925 C2924 1.327 . S
C2925 C2929 1.429 . S
C2926 C2909 1.574 . S
C2926 H2920 0.949 . S
C2926 C2930 1.368 . S
C2927 C2908 1.429 . S
C2927 C2921 1.429 . S
C2927 C2928 1.523 . S
C2928 C2909 1.368 . S
C2928 C2922 1.368 . S
C2928 C2927 1.523 . S
C2929 C2913 1.429 . S
C2929 C2925 1.429 . S
C2929 C2930 1.523 . S
C2930 C2914 1.368 . S
C2930 C2926 1.368 . S
C2930 C2929 1.523 . S
H2931 C2906 0.950 . S
H2932 C2908 0.950 . S
H2933 C2909 0.949 . S
H2934 C2911 0.950 . S
H2935 C2913 0.950 . S
C2936 C2937 1.349 . S
C2936 C2938 1.327 . S
C2936 H2961 0.950 . S
C2937 C2936 1.349 . S
C2937 C2953 1.349 . S
C2938 C2936 1.327 . S
C2938 C2957 1.429 . S
C2938 H2962 0.950 . S
C2939 C2956 1.574 . S
C2939 C2958 1.368 . S
C2939 H2963 0.949 . S
H2940 C2944 0.949 . S
C2941 C2942 1.349 . S
C2941 C2943 1.327 . S
C2941 H2964 0.950 1_556 S
C2942 C2941 1.349 . S
C2942 C2954 1.349 . S
C2943 C2941 1.327 . S
C2943 C2959 1.429 . S
C2943 H2965 0.950 . S
C2944 H2940 0.949 . S
C2944 C2952 1.574 . S
C2944 C2960 1.368 . S
H2945 C2953 0.950 . S
H2946 C2951 0.950 . S
H2947 C2952 0.949 . S
H2948 C2954 0.950 . S
H2949 C2955 0.950 . S
H2950 C2956 0.949 . S
C2951 H2946 0.950 . S
C2951 C2953 1.327 . S
C2951 C2957 1.429 . S
C2952 C2944 1.574 . S
C2952 H2947 0.949 . S
C2952 C2958 1.368 . S
C2953 C2937 1.349 . S
C2953 H2945 0.950 . S
C2953 C2951 1.327 . S
C2954 C2942 1.349 . S
C2954 H2948 0.950 . S
C2954 C2955 1.327 . S
C2955 H2949 0.950 . S
C2955 C2954 1.327 . S
C2955 C2959 1.429 . S
C2956 C2939 1.574 . S
C2956 H2950 0.949 . S
C2956 C2960 1.368 . S
C2957 C2938 1.429 . S
C2957 C2951 1.429 . S
C2957 C2958 1.523 . S
C2958 C2939 1.368 . S
C2958 C2952 1.368 . S
C2958 C2957 1.523 . S
C2959 C2943 1.429 . S
C2959 C2955 1.429 . S
C2959 C2960 1.523 . S
C2960 C2944 1.368 . S
C2960 C2956 1.368 . S
C2960 C2959 1.523 . S
H2961 C2936 0.950 . S
H2962 C2938 0.950 . S
H2963 C2939 0.949 . S
H2964 C2941 0.950 1_554 S
H2965 C2943 0.950 . S
C2966 C2967 1.349 . S
C2966 C2968 1.327 . S
C2966 H2991 0.950 . S
C2967 C2966 1.349 . S
C2967 C2983 1.349 . S
C2968 C2966 1.327 . S
C2968 C2987 1.429 . S
C2968 H2992 0.950 . S
C2969 C2986 1.574 . S
C2969 C2988 1.368 . S
C2969 H2993 0.949 . S
H2970 C2974 0.949 . S
C2971 C2972 1.349 . S
C2971 C2973 1.327 . S
C2971 H2994 0.950 . S
C2972 C2971 1.349 . S
C2972 C2984 1.349 . S
C2973 C2971 1.327 . S
C2973 C2989 1.429 . S
C2973 H2995 0.950 . S
C2974 H2970 0.949 . S
C2974 C2982 1.574 . S
C2974 C2990 1.368 . S
H2975 C2983 0.950 . S
H2976 C2981 0.950 . S
H2977 C2982 0.949 . S
H2978 C2984 0.950 . S
H2979 C2985 0.950 . S
H2980 C2986 0.949 . S
C2981 H2976 0.950 . S
C2981 C2983 1.327 . S
C2981 C2987 1.429 . S
C2982 C2974 1.574 . S
C2982 H2977 0.949 . S
C2982 C2988 1.368 . S
C2983 C2967 1.349 . S
C2983 H2975 0.950 . S
C2983 C2981 1.327 . S
C2984 C2972 1.349 . S
C2984 H2978 0.950 . S
C2984 C2985 1.327 . S
C2985 H2979 0.950 . S
C2985 C2984 1.327 . S
C2985 C2989 1.429 . S
C2986 C2969 1.574 . S
C2986 H2980 0.949 . S
C2986 C2990 1.368 . S
C2987 C2968 1.429 . S
C2987 C2981 1.429 . S
C2987 C2988 1.523 . S
C2988 C2969 1.368 . S
C2988 C2982 1.368 . S
C2988 C2987 1.523 . S
C2989 C2973 1.429 . S
C2989 C2985 1.429 . S
C2989 C2990 1.523 . S
C2990 C2974 1.368 . S
C2990 C2986 1.368 . S
C2990 C2989 1.523 . S
H2991 C2966 0.950 . S
H2992 C2968 0.950 . S
H2993 C2969 0.949 . S
H2994 C2971 0.950 . S
H2995 C2973 0.950 . S
C2996 C2997 1.349 . S
C2996 C2998 1.327 . S
C2996 H3021 0.950 1_455 S
C2997 C2996 1.349 . S
C2997 C3013 1.349 . S
C2998 C2996 1.327 . S
C2998 C3017 1.429 . S
C2998 H3022 0.950 1_455 S
C2999 C3016 1.574 . S
C2999 C3018 1.368 . S
C2999 H3023 0.949 . S
H3000 C3004 0.963 . S
C3001 C3002 1.349 . S
C3001 C3003 1.327 . S
C3001 H3024 0.950 . S
C3002 C3001 1.349 . S
C3002 C3014 1.333 1_455 S
C3003 C3001 1.327 . S
C3003 C3019 1.429 . S
C3003 H3025 0.950 . S
C3004 H3000 0.963 . S
C3004 C3012 1.569 1_655 S
C3004 C3020 1.356 1_655 S
H3005 C3013 0.950 . S
H3006 C3011 0.950 . S
H3007 C3012 0.943 1_655 S
H3008 C3014 0.970 . S
H3009 C3015 0.965 . S
H3010 C3016 0.949 . S
C3011 H3006 0.950 . S
C3011 C3013 1.327 . S
C3011 C3017 1.429 . S
C3012 C3004 1.569 1_455 S
C3012 H3007 0.943 1_455 S
C3012 C3018 1.377 . S
C3013 C2997 1.349 . S
C3013 H3005 0.950 . S
C3013 C3011 1.327 . S
C3014 C3002 1.333 1_655 S
C3014 H3008 0.970 . S
C3014 C3015 1.327 . S
C3015 H3009 0.965 . S
C3015 C3014 1.327 . S
C3015 C3019 1.410 1_655 S
C3016 C2999 1.574 . S
C3016 H3010 0.949 . S
C3016 C3020 1.368 . S
C3017 C2998 1.429 . S
C3017 C3011 1.429 . S
C3017 C3018 1.523 . S
C3018 C2999 1.368 . S
C3018 C3012 1.377 . S
C3018 C3017 1.523 . S
C3019 C3003 1.429 . S
C3019 C3015 1.410 1_455 S
C3019 C3020 1.523 . S
C3020 C3004 1.356 1_455 S
C3020 C3016 1.368 . S
C3020 C3019 1.523 . S
H3021 C2996 0.950 1_655 S
H3022 C2998 0.950 1_655 S
H3023 C2999 0.949 . S
H3024 C3001 0.950 . S
H3025 C3003 0.950 . S
C3026 C3027 1.349 . S
C3026 C3028 1.327 . S
C3026 H3051 0.950 . S
C3027 C3026 1.349 . S
C3027 C3043 1.349 . S
C3028 C3026 1.327 . S
C3028 C3047 1.429 . S
C3028 H3052 0.950 . S
C3029 C3046 1.574 . S
C3029 C3048 1.368 . S
C3029 H3053 0.949 . S
H3030 C3034 0.949 . S
C3031 C3032 1.349 . S
C3031 C3033 1.327 . S
C3031 H3054 0.950 . S
C3032 C3031 1.349 . S
C3032 C3044 1.349 . S
C3033 C3031 1.327 . S
C3033 C3049 1.429 . S
C3033 H3055 0.950 . S
C3034 H3030 0.949 . S
C3034 C3042 1.574 . S
C3034 C3050 1.368 . S
H3035 C3043 0.950 . S
H3036 C3041 0.950 . S
H3037 C3042 0.949 . S
H3038 C3044 0.950 . S
H3039 C3045 0.950 . S
H3040 C3046 0.949 . S
C3041 H3036 0.950 . S
C3041 C3043 1.327 . S
C3041 C3047 1.429 . S
C3042 C3034 1.574 . S
C3042 H3037 0.949 . S
C3042 C3048 1.368 . S
C3043 C3027 1.349 . S
C3043 H3035 0.950 . S
C3043 C3041 1.327 . S
C3044 C3032 1.349 . S
C3044 H3038 0.950 . S
C3044 C3045 1.327 . S
C3045 H3039 0.950 . S
C3045 C3044 1.327 . S
C3045 C3049 1.429 . S
C3046 C3029 1.574 . S
C3046 H3040 0.949 . S
C3046 C3050 1.368 . S
C3047 C3028 1.429 . S
C3047 C3041 1.429 . S
C3047 C3048 1.523 . S
C3048 C3029 1.368 . S
C3048 C3042 1.368 . S
C3048 C3047 1.523 . S
C3049 C3033 1.429 . S
C3049 C3045 1.429 . S
C3049 C3050 1.523 . S
C3050 C3034 1.368 . S
C3050 C3046 1.368 . S
C3050 C3049 1.523 . S
H3051 C3026 0.950 . S
H3052 C3028 0.950 . S
H3053 C3029 0.949 . S
H3054 C3031 0.950 . S
H3055 C3033 0.950 . S
C3056 C3057 1.349 . S
C3056 C3058 1.327 . S
C3056 H3081 0.950 . S
C3057 C3056 1.349 . S
C3057 C3073 1.349 . S
C3058 C3056 1.327 . S
C3058 C3077 1.429 . S
C3058 H3082 0.950 . S
C3059 C3076 1.574 . S
C3059 C3078 1.368 . S
C3059 H3083 0.949 . S
H3060 C3064 0.949 . S
C3061 C3062 1.349 . S
C3061 C3063 1.327 . S
C3061 H3084 0.950 . S
C3062 C3061 1.349 . S
C3062 C3074 1.349 . S
C3063 C3061 1.327 . S
C3063 C3079 1.429 . S
C3063 H3085 0.950 . S
C3064 H3060 0.949 . S
C3064 C3072 1.574 . S
C3064 C3080 1.368 . S
H3065 C3073 0.950 . S
H3066 C3071 0.950 . S
H3067 C3072 0.949 . S
H3068 C3074 0.950 . S
H3069 C3075 0.950 . S
H3070 C3076 0.949 . S
C3071 H3066 0.950 . S
C3071 C3073 1.327 . S
C3071 C3077 1.429 . S
C3072 C3064 1.574 . S
C3072 H3067 0.949 . S
C3072 C3078 1.368 . S
C3073 C3057 1.349 . S
C3073 H3065 0.950 . S
C3073 C3071 1.327 . S
C3074 C3062 1.349 . S
C3074 H3068 0.950 . S
C3074 C3075 1.327 . S
C3075 H3069 0.950 . S
C3075 C3074 1.327 . S
C3075 C3079 1.429 . S
C3076 C3059 1.574 . S
C3076 H3070 0.949 . S
C3076 C3080 1.368 . S
C3077 C3058 1.429 . S
C3077 C3071 1.429 . S
C3077 C3078 1.523 . S
C3078 C3059 1.368 . S
C3078 C3072 1.368 . S
C3078 C3077 1.523 . S
C3079 C3063 1.429 . S
C3079 C3075 1.429 . S
C3079 C3080 1.523 . S
C3080 C3064 1.368 . S
C3080 C3076 1.368 . S
C3080 C3079 1.523 . S
H3081 C3056 0.950 . S
H3082 C3058 0.950 . S
H3083 C3059 0.949 . S
H3084 C3061 0.950 . S
H3085 C3063 0.950 . S
C3086 C3087 1.349 . S
C3086 C3088 1.327 . S
C3086 H3111 0.950 . S
C3087 C3086 1.349 . S
C3087 C3103 1.349 . S
C3088 C3086 1.327 . S
C3088 C3107 1.429 . S
C3088 H3112 0.950 . S
C3089 C3106 1.574 . S
C3089 C3108 1.368 . S
C3089 H3113 0.949 . S
H3090 C3094 0.949 . S
C3091 C3092 1.349 . S
C3091 C3093 1.327 . S
C3091 H3114 0.950 . S
C3092 C3091 1.349 . S
C3092 C3104 1.349 . S
C3093 C3091 1.327 . S
C3093 C3109 1.429 . S
C3093 H3115 0.950 . S
C3094 H3090 0.949 . S
C3094 C3102 1.574 . S
C3094 C3110 1.368 . S
H3095 C3103 0.950 . S
H3096 C3101 0.950 . S
H3097 C3102 0.949 . S
H3098 C3104 0.950 . S
H3099 C3105 0.950 . S
H3100 C3106 0.949 . S
C3101 H3096 0.950 . S
C3101 C3103 1.327 . S
C3101 C3107 1.429 . S
C3102 C3094 1.574 . S
C3102 H3097 0.949 . S
C3102 C3108 1.368 . S
C3103 C3087 1.349 . S
C3103 H3095 0.950 . S
C3103 C3101 1.327 . S
C3104 C3092 1.349 . S
C3104 H3098 0.950 . S
C3104 C3105 1.327 . S
C3105 H3099 0.950 . S
C3105 C3104 1.327 . S
C3105 C3109 1.429 . S
C3106 C3089 1.574 . S
C3106 H3100 0.949 . S
C3106 C3110 1.368 . S
C3107 C3088 1.429 . S
C3107 C3101 1.429 . S
C3107 C3108 1.523 . S
C3108 C3089 1.368 . S
C3108 C3102 1.368 . S
C3108 C3107 1.523 . S
C3109 C3093 1.429 . S
C3109 C3105 1.429 . S
C3109 C3110 1.523 . S
C3110 C3094 1.368 . S
C3110 C3106 1.368 . S
C3110 C3109 1.523 . S
H3111 C3086 0.950 . S
H3112 C3088 0.950 . S
H3113 C3089 0.949 . S
H3114 C3091 0.950 . S
H3115 C3093 0.950 . S
C3116 C3117 1.349 . S
C3116 C3118 1.327 . S
C3116 H3141 0.950 . S
C3117 C3116 1.349 . S
C3117 C3133 1.349 . S
C3118 C3116 1.327 . S
C3118 C3137 1.429 . S
C3118 H3142 0.950 . S
C3119 C3136 1.574 . S
C3119 C3138 1.368 . S
C3119 H3143 0.949 . S
H3120 C3124 0.949 . S
C3121 C3122 1.349 . S
C3121 C3123 1.327 . S
C3121 H3144 0.950 1_655 S
C3122 C3121 1.349 . S
C3122 C3134 1.349 . S
C3123 C3121 1.327 . S
C3123 C3139 1.429 . S
C3123 H3145 0.950 . S
C3124 H3120 0.949 . S
C3124 C3132 1.574 . S
C3124 C3140 1.368 . S
H3125 C3133 0.950 . S
H3126 C3131 0.950 . S
H3127 C3132 0.949 . S
H3128 C3134 0.950 . S
H3129 C3135 0.950 . S
H3130 C3136 0.949 . S
C3131 H3126 0.950 . S
C3131 C3133 1.327 . S
C3131 C3137 1.429 . S
C3132 C3124 1.574 . S
C3132 H3127 0.949 . S
C3132 C3138 1.368 . S
C3133 C3117 1.349 . S
C3133 H3125 0.950 . S
C3133 C3131 1.327 . S
C3134 C3122 1.349 . S
C3134 H3128 0.950 . S
C3134 C3135 1.327 . S
C3135 H3129 0.950 . S
C3135 C3134 1.327 . S
C3135 C3139 1.429 . S
C3136 C3119 1.574 . S
C3136 H3130 0.949 . S
C3136 C3140 1.368 . S
C3137 C3118 1.429 . S
C3137 C3131 1.429 . S
C3137 C3138 1.523 . S
C3138 C3119 1.368 . S
C3138 C3132 1.368 . S
C3138 C3137 1.523 . S
C3139 C3123 1.429 . S
C3139 C3135 1.429 . S
C3139 C3140 1.523 . S
C3140 C3124 1.368 . S
C3140 C3136 1.368 . S
C3140 C3139 1.523 . S
H3141 C3116 0.950 . S
H3142 C3118 0.950 . S
H3143 C3119 0.949 . S
H3144 C3121 0.950 1_455 S
H3145 C3123 0.950 . S
C3146 C3147 1.349 . S
C3146 C3148 1.327 . S
C3146 H3171 0.950 . S
C3147 C3146 1.349 . S
C3147 C3163 1.349 . S
C3148 C3146 1.327 . S
C3148 C3167 1.429 . S
C3148 H3172 0.950 . S
C3149 C3166 1.574 . S
C3149 C3168 1.368 . S
C3149 H3173 0.949 . S
H3150 C3154 0.949 . S
C3151 C3152 1.349 . S
C3151 C3153 1.327 . S
C3151 H3174 0.950 . S
C3152 C3151 1.349 . S
C3152 C3164 1.349 . S
C3153 C3151 1.327 . S
C3153 C3169 1.429 . S
C3153 H3175 0.950 . S
C3154 H3150 0.949 . S
C3154 C3162 1.574 . S
C3154 C3170 1.368 . S
H3155 C3163 0.950 . S
H3156 C3161 0.950 . S
H3157 C3162 0.949 . S
H3158 C3164 0.950 . S
H3159 C3165 0.950 . S
H3160 C3166 0.949 . S
C3161 H3156 0.950 . S
C3161 C3163 1.327 . S
C3161 C3167 1.429 . S
C3162 C3154 1.574 . S
C3162 H3157 0.949 . S
C3162 C3168 1.368 . S
C3163 C3147 1.349 . S
C3163 H3155 0.950 . S
C3163 C3161 1.327 . S
C3164 C3152 1.349 . S
C3164 H3158 0.950 . S
C3164 C3165 1.327 . S
C3165 H3159 0.950 . S
C3165 C3164 1.327 . S
C3165 C3169 1.429 . S
C3166 C3149 1.574 . S
C3166 H3160 0.949 . S
C3166 C3170 1.368 . S
C3167 C3148 1.429 . S
C3167 C3161 1.429 . S
C3167 C3168 1.523 . S
C3168 C3149 1.368 . S
C3168 C3162 1.368 . S
C3168 C3167 1.523 . S
C3169 C3153 1.429 . S
C3169 C3165 1.429 . S
C3169 C3170 1.523 . S
C3170 C3154 1.368 . S
C3170 C3166 1.368 . S
C3170 C3169 1.523 . S
H3171 C3146 0.950 . S
H3172 C3148 0.950 . S
H3173 C3149 0.949 . S
H3174 C3151 0.950 . S
H3175 C3153 0.950 . S
C3176 C3177 1.349 . S
C3176 C3178 1.327 . S
C3176 H3201 0.950 . S
C3177 C3176 1.349 . S
C3177 C3193 1.349 . S
C3178 C3176 1.327 . S
C3178 C3197 1.429 . S
C3178 H3202 0.950 . S
C3179 C3196 1.574 . S
C3179 C3198 1.368 . S
C3179 H3203 0.949 . S
H3180 C3184 0.949 . S
C3181 C3182 1.349 . S
C3181 C3183 1.327 . S
C3181 H3204 0.950 . S
C3182 C3181 1.349 . S
C3182 C3194 1.349 . S
C3183 C3181 1.327 . S
C3183 C3199 1.429 . S
C3183 H3205 0.950 . S
C3184 H3180 0.949 . S
C3184 C3192 1.574 . S
C3184 C3200 1.368 . S
H3185 C3193 0.950 . S
H3186 C3191 0.950 . S
H3187 C3192 0.949 . S
H3188 C3194 0.950 . S
H3189 C3195 0.950 . S
H3190 C3196 0.949 . S
C3191 H3186 0.950 . S
C3191 C3193 1.327 . S
C3191 C3197 1.429 . S
C3192 C3184 1.574 . S
C3192 H3187 0.949 . S
C3192 C3198 1.368 . S
C3193 C3177 1.349 . S
C3193 H3185 0.950 . S
C3193 C3191 1.327 . S
C3194 C3182 1.349 . S
C3194 H3188 0.950 . S
C3194 C3195 1.327 . S
C3195 H3189 0.950 . S
C3195 C3194 1.327 . S
C3195 C3199 1.429 . S
C3196 C3179 1.574 . S
C3196 H3190 0.949 . S
C3196 C3200 1.368 . S
C3197 C3178 1.429 . S
C3197 C3191 1.429 . S
C3197 C3198 1.523 . S
C3198 C3179 1.368 . S
C3198 C3192 1.368 . S
C3198 C3197 1.523 . S
C3199 C3183 1.429 . S
C3199 C3195 1.429 . S
C3199 C3200 1.523 . S
C3200 C3184 1.368 . S
C3200 C3196 1.368 . S
C3200 C3199 1.523 . S
H3201 C3176 0.950 . S
H3202 C3178 0.950 . S
H3203 C3179 0.949 . S
H3204 C3181 0.950 . S
H3205 C3183 0.950 . S
C3206 C3207 1.349 . S
C3206 C3208 1.327 . S
C3206 H3231 0.950 . S
C3207 C3206 1.349 . S
C3207 C3223 1.349 . S
C3208 C3206 1.327 . S
C3208 C3227 1.429 . S
C3208 H3232 0.950 . S
C3209 C3226 1.574 . S
C3209 C3228 1.368 . S
C3209 H3233 0.949 . S
H3210 C3214 0.949 . S
C3211 C3212 1.349 . S
C3211 C3213 1.327 . S
C3211 H3234 0.950 . S
C3212 C3211 1.349 . S
C3212 C3224 1.349 . S
C3213 C3211 1.327 . S
C3213 C3229 1.429 . S
C3213 H3235 0.950 . S
C3214 H3210 0.949 . S
C3214 C3222 1.574 . S
C3214 C3230 1.368 . S
H3215 C3223 0.950 . S
H3216 C3221 0.950 . S
H3217 C3222 0.949 . S
H3218 C3224 0.950 . S
H3219 C3225 0.950 . S
H3220 C3226 0.949 . S
C3221 H3216 0.950 . S
C3221 C3223 1.327 . S
C3221 C3227 1.429 . S
C3222 C3214 1.574 . S
C3222 H3217 0.949 . S
C3222 C3228 1.368 . S
C3223 C3207 1.349 . S
C3223 H3215 0.950 . S
C3223 C3221 1.327 . S
C3224 C3212 1.349 . S
C3224 H3218 0.950 . S
C3224 C3225 1.327 . S
C3225 H3219 0.950 . S
C3225 C3224 1.327 . S
C3225 C3229 1.429 . S
C3226 C3209 1.574 . S
C3226 H3220 0.949 . S
C3226 C3230 1.368 . S
C3227 C3208 1.429 . S
C3227 C3221 1.429 . S
C3227 C3228 1.523 . S
C3228 C3209 1.368 . S
C3228 C3222 1.368 . S
C3228 C3227 1.523 . S
C3229 C3213 1.429 . S
C3229 C3225 1.429 . S
C3229 C3230 1.523 . S
C3230 C3214 1.368 . S
C3230 C3226 1.368 . S
C3230 C3229 1.523 . S
H3231 C3206 0.950 . S
H3232 C3208 0.950 . S
H3233 C3209 0.949 . S
H3234 C3211 0.950 . S
H3235 C3213 0.950 . S
C3236 C3237 1.349 . S
C3236 C3238 1.327 . S
C3236 H3261 0.950 . S
C3237 C3236 1.349 . S
C3237 C3253 1.349 . S
C3238 C3236 1.327 . S
C3238 C3257 1.429 . S
C3238 H3262 0.950 . S
C3239 C3256 1.574 . S
C3239 C3258 1.368 . S
C3239 H3263 0.949 . S
H3240 C3244 0.949 . S
C3241 C3242 1.349 . S
C3241 C3243 1.327 . S
C3241 H3264 0.950 . S
C3242 C3241 1.349 . S
C3242 C3254 1.349 . S
C3243 C3241 1.327 . S
C3243 C3259 1.429 . S
C3243 H3265 0.950 . S
C3244 H3240 0.949 . S
C3244 C3252 1.574 . S
C3244 C3260 1.368 . S
H3245 C3253 0.950 . S
H3246 C3251 0.950 . S
H3247 C3252 0.949 . S
H3248 C3254 0.950 . S
H3249 C3255 0.950 . S
H3250 C3256 0.949 . S
C3251 H3246 0.950 . S
C3251 C3253 1.327 . S
C3251 C3257 1.429 . S
C3252 C3244 1.574 . S
C3252 H3247 0.949 . S
C3252 C3258 1.368 . S
C3253 C3237 1.349 . S
C3253 H3245 0.950 . S
C3253 C3251 1.327 . S
C3254 C3242 1.349 . S
C3254 H3248 0.950 . S
C3254 C3255 1.327 . S
C3255 H3249 0.950 . S
C3255 C3254 1.327 . S
C3255 C3259 1.429 . S
C3256 C3239 1.574 . S
C3256 H3250 0.949 . S
C3256 C3260 1.368 . S
C3257 C3238 1.429 . S
C3257 C3251 1.429 . S
C3257 C3258 1.523 . S
C3258 C3239 1.368 . S
C3258 C3252 1.368 . S
C3258 C3257 1.523 . S
C3259 C3243 1.429 . S
C3259 C3255 1.429 . S
C3259 C3260 1.523 . S
C3260 C3244 1.368 . S
C3260 C3256 1.368 . S
C3260 C3259 1.523 . S
H3261 C3236 0.950 . S
H3262 C3238 0.950 . S
H3263 C3239 0.949 . S
H3264 C3241 0.950 . S
H3265 C3243 0.950 . S
C3266 C3267 1.349 . S
C3266 C3268 1.327 . S
C3266 H3291 0.950 . S
C3267 C3266 1.349 . S
C3267 C3283 1.349 . S
C3268 C3266 1.327 . S
C3268 C3287 1.429 . S
C3268 H3292 0.950 . S
C3269 C3286 1.574 . S
C3269 C3288 1.368 . S
C3269 H3293 0.949 . S
H3270 C3274 0.949 . S
C3271 C3272 1.349 . S
C3271 C3273 1.327 . S
C3271 H3294 0.950 . S
C3272 C3271 1.349 . S
C3272 C3284 1.349 . S
C3273 C3271 1.327 . S
C3273 C3289 1.429 . S
C3273 H3295 0.950 . S
C3274 H3270 0.949 . S
C3274 C3282 1.574 . S
C3274 C3290 1.368 . S
H3275 C3283 0.950 . S
H3276 C3281 0.950 . S
H3277 C3282 0.949 . S
H3278 C3284 0.950 . S
H3279 C3285 0.950 . S
H3280 C3286 0.949 . S
C3281 H3276 0.950 . S
C3281 C3283 1.327 . S
C3281 C3287 1.429 . S
C3282 C3274 1.574 . S
C3282 H3277 0.949 . S
C3282 C3288 1.368 . S
C3283 C3267 1.349 . S
C3283 H3275 0.950 . S
C3283 C3281 1.327 . S
C3284 C3272 1.349 . S
C3284 H3278 0.950 . S
C3284 C3285 1.327 . S
C3285 H3279 0.950 . S
C3285 C3284 1.327 . S
C3285 C3289 1.429 . S
C3286 C3269 1.574 . S
C3286 H3280 0.949 . S
C3286 C3290 1.368 . S
C3287 C3268 1.429 . S
C3287 C3281 1.429 . S
C3287 C3288 1.523 . S
C3288 C3269 1.368 . S
C3288 C3282 1.368 . S
C3288 C3287 1.523 . S
C3289 C3273 1.429 . S
C3289 C3285 1.429 . S
C3289 C3290 1.523 . S
C3290 C3274 1.368 . S
C3290 C3286 1.368 . S
C3290 C3289 1.523 . S
H3291 C3266 0.950 . S
H3292 C3268 0.950 . S
H3293 C3269 0.949 . S
H3294 C3271 0.950 . S
H3295 C3273 0.950 . S
C3296 C3297 1.349 . S
C3296 C3298 1.327 . S
C3296 H3321 0.950 . S
C3297 C3296 1.349 . S
C3297 C3313 1.349 . S
C3298 C3296 1.327 . S
C3298 C3317 1.429 . S
C3298 H3322 0.950 . S
C3299 C3316 1.574 . S
C3299 C3318 1.368 . S
C3299 H3323 0.949 . S
H3300 C3304 0.949 . S
C3301 C3302 1.349 . S
C3301 C3303 1.327 . S
C3301 H3324 0.950 . S
C3302 C3301 1.349 . S
C3302 C3314 1.349 . S
C3303 C3301 1.327 . S
C3303 C3319 1.429 . S
C3303 H3325 0.950 . S
C3304 H3300 0.949 . S
C3304 C3312 1.574 . S
C3304 C3320 1.368 . S
H3305 C3313 0.950 . S
H3306 C3311 0.950 . S
H3307 C3312 0.949 . S
H3308 C3314 0.950 . S
H3309 C3315 0.950 . S
H3310 C3316 0.949 . S
C3311 H3306 0.950 . S
C3311 C3313 1.327 . S
C3311 C3317 1.429 . S
C3312 C3304 1.574 . S
C3312 H3307 0.949 . S
C3312 C3318 1.368 . S
C3313 C3297 1.349 . S
C3313 H3305 0.950 . S
C3313 C3311 1.327 . S
C3314 C3302 1.349 . S
C3314 H3308 0.950 . S
C3314 C3315 1.327 . S
C3315 H3309 0.950 . S
C3315 C3314 1.327 . S
C3315 C3319 1.429 . S
C3316 C3299 1.574 . S
C3316 H3310 0.949 . S
C3316 C3320 1.368 . S
C3317 C3298 1.429 . S
C3317 C3311 1.429 . S
C3317 C3318 1.523 . S
C3318 C3299 1.368 . S
C3318 C3312 1.368 . S
C3318 C3317 1.523 . S
C3319 C3303 1.429 . S
C3319 C3315 1.429 . S
C3319 C3320 1.523 . S
C3320 C3304 1.368 . S
C3320 C3316 1.368 . S
C3320 C3319 1.523 . S
H3321 C3296 0.950 . S
H3322 C3298 0.950 . S
H3323 C3299 0.949 . S
H3324 C3301 0.950 . S
H3325 C3303 0.950 . S
C3326 C3327 1.349 . S
C3326 C3328 1.327 . S
C3326 H3351 0.950 . S
C3327 C3326 1.349 . S
C3327 C3343 1.349 . S
C3328 C3326 1.327 . S
C3328 C3347 1.429 . S
C3328 H3352 0.950 . S
C3329 C3346 1.574 . S
C3329 C3348 1.368 . S
C3329 H3353 0.949 . S
H3330 C3334 0.949 . S
C3331 C3332 1.353 1_565 S
C3331 C3333 1.327 . S
C3331 H3354 0.950 . S
C3332 C3331 1.353 1_545 S
C3332 C3344 1.347 . S
C3333 C3331 1.327 . S
C3333 C3349 1.429 . S
C3333 H3355 0.950 . S
C3334 H3330 0.949 . S
C3334 C3342 1.574 . S
C3334 C3350 1.368 . S
H3335 C3343 0.950 . S
H3336 C3341 0.950 . S
H3337 C3342 0.949 . S
H3338 C3344 0.950 . S
H3339 C3345 0.950 . S
H3340 C3346 0.949 . S
C3341 H3336 0.950 . S
C3341 C3343 1.327 . S
C3341 C3347 1.429 . S
C3342 C3334 1.574 . S
C3342 H3337 0.949 . S
C3342 C3348 1.368 . S
C3343 C3327 1.349 . S
C3343 H3335 0.950 . S
C3343 C3341 1.327 . S
C3344 C3332 1.347 . S
C3344 H3338 0.950 . S
C3344 C3345 1.327 1_545 S
C3345 H3339 0.950 . S
C3345 C3344 1.327 1_565 S
C3345 C3349 1.429 . S
C3346 C3329 1.574 . S
C3346 H3340 0.949 . S
C3346 C3350 1.368 . S
C3347 C3328 1.429 . S
C3347 C3341 1.429 . S
C3347 C3348 1.523 . S
C3348 C3329 1.368 . S
C3348 C3342 1.368 . S
C3348 C3347 1.523 . S
C3349 C3333 1.429 . S
C3349 C3345 1.429 . S
C3349 C3350 1.523 . S
C3350 C3334 1.368 . S
C3350 C3346 1.368 . S
C3350 C3349 1.523 . S
H3351 C3326 0.950 . S
H3352 C3328 0.950 . S
H3353 C3329 0.949 . S
H3354 C3331 0.950 . S
H3355 C3333 0.950 . S
C3356 C3357 1.349 . S
C3356 C3358 1.327 . S
C3356 H3381 0.950 . S
C3357 C3356 1.349 . S
C3357 C3373 1.349 . S
C3358 C3356 1.327 . S
C3358 C3377 1.429 . S
C3358 H3382 0.950 . S
C3359 C3376 1.574 . S
C3359 C3378 1.368 . S
C3359 H3383 0.949 . S
H3360 C3364 0.949 . S
C3361 C3362 1.349 . S
C3361 C3363 1.327 . S
C3361 H3384 0.950 . S
C3362 C3361 1.349 . S
C3362 C3374 1.349 . S
C3363 C3361 1.327 . S
C3363 C3379 1.429 . S
C3363 H3385 0.950 . S
C3364 H3360 0.949 . S
C3364 C3372 1.574 . S
C3364 C3380 1.368 . S
H3365 C3373 0.950 . S
H3366 C3371 0.950 . S
H3367 C3372 0.949 . S
H3368 C3374 0.950 . S
H3369 C3375 0.950 . S
H3370 C3376 0.949 . S
C3371 H3366 0.950 . S
C3371 C3373 1.327 . S
C3371 C3377 1.429 . S
C3372 C3364 1.574 . S
C3372 H3367 0.949 . S
C3372 C3378 1.368 . S
C3373 C3357 1.349 . S
C3373 H3365 0.950 . S
C3373 C3371 1.327 . S
C3374 C3362 1.349 . S
C3374 H3368 0.950 . S
C3374 C3375 1.327 . S
C3375 H3369 0.950 . S
C3375 C3374 1.327 . S
C3375 C3379 1.429 . S
C3376 C3359 1.574 . S
C3376 H3370 0.949 . S
C3376 C3380 1.368 . S
C3377 C3358 1.429 . S
C3377 C3371 1.429 . S
C3377 C3378 1.523 . S
C3378 C3359 1.368 . S
C3378 C3372 1.368 . S
C3378 C3377 1.523 . S
C3379 C3363 1.429 . S
C3379 C3375 1.429 . S
C3379 C3380 1.523 . S
C3380 C3364 1.368 . S
C3380 C3376 1.368 . S
C3380 C3379 1.523 . S
H3381 C3356 0.950 . S
H3382 C3358 0.950 . S
H3383 C3359 0.949 . S
H3384 C3361 0.950 . S
H3385 C3363 0.950 . S
C3386 C3387 1.349 1_554 S
C3386 C3388 1.327 . S
C3386 H3411 0.950 . S
C3387 C3386 1.349 1_556 S
C3387 C3403 1.349 . S
C3388 C3386 1.327 . S
C3388 C3407 1.430 1_554 S
C3388 H3412 0.950 . S
C3389 C3406 1.574 . S
C3389 C3408 1.368 1_556 S
C3389 H3413 0.949 . S
H3390 C3394 0.949 . S
C3391 C3392 1.349 1_556 S
C3391 C3393 1.327 . S
C3391 H3414 0.950 . S
C3392 C3391 1.349 1_554 S
C3392 C3404 1.349 . S
C3393 C3391 1.327 . S
C3393 C3409 1.429 1_556 S
C3393 H3415 0.950 . S
C3394 H3390 0.949 . S
C3394 C3402 1.574 . S
C3394 C3410 1.368 . S
H3395 C3403 0.950 . S
H3396 C3401 0.950 . S
H3397 C3402 0.949 . S
H3398 C3404 0.950 . S
H3399 C3405 0.950 . S
H3400 C3406 0.949 . S
C3401 H3396 0.950 . S
C3401 C3403 1.327 . S
C3401 C3407 1.426 . S
C3402 C3394 1.574 . S
C3402 H3397 0.949 . S
C3402 C3408 1.368 . S
C3403 C3387 1.349 . S
C3403 H3395 0.950 . S
C3403 C3401 1.327 . S
C3404 C3392 1.349 . S
C3404 H3398 0.950 . S
C3404 C3405 1.327 . S
C3405 H3399 0.950 . S
C3405 C3404 1.327 . S
C3405 C3409 1.429 . S
C3406 C3389 1.574 . S
C3406 H3400 0.949 . S
C3406 C3410 1.368 1_556 S
C3407 C3388 1.430 1_556 S
C3407 C3401 1.426 . S
C3407 C3408 1.523 1_556 S
C3408 C3389 1.368 1_554 S
C3408 C3402 1.368 . S
C3408 C3407 1.523 1_554 S
C3409 C3393 1.429 1_554 S
C3409 C3405 1.429 . S
C3409 C3410 1.523 . S
C3410 C3394 1.368 . S
C3410 C3406 1.368 1_554 S
C3410 C3409 1.523 . S
H3411 C3386 0.950 . S
H3412 C3388 0.950 . S
H3413 C3389 0.949 . S
H3414 C3391 0.950 . S
H3415 C3393 0.950 . S
C3416 C3417 1.349 . S
C3416 C3418 1.327 . S
C3416 H3441 0.950 . S
C3417 C3416 1.349 . S
C3417 C3433 1.349 . S
C3418 C3416 1.327 . S
C3418 C3437 1.429 . S
C3418 H3442 0.950 . S
C3419 C3436 1.574 . S
C3419 C3438 1.368 . S
C3419 H3443 0.949 . S
H3420 C3424 0.949 . S
C3421 C3422 1.349 . S
C3421 C3423 1.327 . S
C3421 H3444 0.950 . S
C3422 C3421 1.349 . S
C3422 C3434 1.349 . S
C3423 C3421 1.327 . S
C3423 C3439 1.429 . S
C3423 H3445 0.950 . S
C3424 H3420 0.949 . S
C3424 C3432 1.574 . S
C3424 C3440 1.368 . S
H3425 C3433 0.950 . S
H3426 C3431 0.950 . S
H3427 C3432 0.949 . S
H3428 C3434 0.950 . S
H3429 C3435 0.950 . S
H3430 C3436 0.949 . S
C3431 H3426 0.950 . S
C3431 C3433 1.327 . S
C3431 C3437 1.429 . S
C3432 C3424 1.574 . S
C3432 H3427 0.949 . S
C3432 C3438 1.368 . S
C3433 C3417 1.349 . S
C3433 H3425 0.950 . S
C3433 C3431 1.327 . S
C3434 C3422 1.349 . S
C3434 H3428 0.950 . S
C3434 C3435 1.327 . S
C3435 H3429 0.950 . S
C3435 C3434 1.327 . S
C3435 C3439 1.429 . S
C3436 C3419 1.574 . S
C3436 H3430 0.949 . S
C3436 C3440 1.368 . S
C3437 C3418 1.429 . S
C3437 C3431 1.429 . S
C3437 C3438 1.523 . S
C3438 C3419 1.368 . S
C3438 C3432 1.368 . S
C3438 C3437 1.523 . S
C3439 C3423 1.429 . S
C3439 C3435 1.429 . S
C3439 C3440 1.523 . S
C3440 C3424 1.368 . S
C3440 C3436 1.368 . S
C3440 C3439 1.523 . S
H3441 C3416 0.950 . S
H3442 C3418 0.950 . S
H3443 C3419 0.949 . S
H3444 C3421 0.950 . S
H3445 C3423 0.950 . S
C3446 C3447 1.381 . S
C3446 C3448 1.322 1_554 S
C3446 H3471 0.926 1_554 S
C3447 C3446 1.381 . S
C3447 C3463 1.349 . S
C3448 C3446 1.322 1_556 S
C3448 C3467 1.429 1_556 S
C3448 H3472 0.950 . S
C3449 C3466 1.574 . S
C3449 C3468 1.368 . S
C3449 H3473 0.949 . S
H3450 C3454 0.949 . S
C3451 C3452 1.349 1_554 S
C3451 C3453 1.327 . S
C3451 H3474 0.950 . S
C3452 C3451 1.349 1_556 S
C3452 C3464 1.349 . S
C3453 C3451 1.327 . S
C3453 C3469 1.429 . S
C3453 H3475 0.950 . S
C3454 H3450 0.949 . S
C3454 C3462 1.574 . S
C3454 C3470 1.368 1_556 S
H3455 C3463 0.950 . S
H3456 C3461 0.950 . S
H3457 C3462 0.949 . S
H3458 C3464 0.950 . S
H3459 C3465 0.950 . S
H3460 C3466 0.949 . S
C3461 H3456 0.950 . S
C3461 C3463 1.327 . S
C3461 C3467 1.429 . S
C3462 C3454 1.574 . S
C3462 H3457 0.949 . S
C3462 C3468 1.368 1_556 S
C3463 C3447 1.349 . S
C3463 H3455 0.950 . S
C3463 C3461 1.327 . S
C3464 C3452 1.349 . S
C3464 H3458 0.950 . S
C3464 C3465 1.327 . S
C3465 H3459 0.950 . S
C3465 C3464 1.327 . S
C3465 C3469 1.429 1_556 S
C3466 C3449 1.574 . S
C3466 H3460 0.949 . S
C3466 C3470 1.368 . S
C3467 C3448 1.429 1_554 S
C3467 C3461 1.429 . S
C3467 C3468 1.523 . S
C3468 C3449 1.368 . S
C3468 C3462 1.368 1_554 S
C3468 C3467 1.523 . S
C3469 C3453 1.429 . S
C3469 C3465 1.429 1_554 S
C3469 C3470 1.523 . S
C3470 C3454 1.368 1_554 S
C3470 C3466 1.368 . S
C3470 C3469 1.523 . S
H3471 C3446 0.926 1_556 S
H3472 C3448 0.950 . S
H3473 C3449 0.949 . S
H3474 C3451 0.950 . S
H3475 C3453 0.950 . S
C3476 C3477 1.349 . S
C3476 C3478 1.327 . S
C3476 H3501 0.950 . S
C3477 C3476 1.349 . S
C3477 C3493 1.349 . S
C3478 C3476 1.327 . S
C3478 C3497 1.429 . S
C3478 H3502 0.950 . S
C3479 C3496 1.574 . S
C3479 C3498 1.368 . S
C3479 H3503 0.949 . S
H3480 C3484 0.949 . S
C3481 C3482 1.349 . S
C3481 C3483 1.327 . S
C3481 H3504 0.950 . S
C3482 C3481 1.349 . S
C3482 C3494 1.349 . S
C3483 C3481 1.327 . S
C3483 C3499 1.429 . S
C3483 H3505 0.950 . S
C3484 H3480 0.949 . S
C3484 C3492 1.574 . S
C3484 C3500 1.368 . S
H3485 C3493 0.950 . S
H3486 C3491 0.950 . S
H3487 C3492 0.949 . S
H3488 C3494 0.950 . S
H3489 C3495 0.950 . S
H3490 C3496 0.949 . S
C3491 H3486 0.950 . S
C3491 C3493 1.327 . S
C3491 C3497 1.429 . S
C3492 C3484 1.574 . S
C3492 H3487 0.949 . S
C3492 C3498 1.368 . S
C3493 C3477 1.349 . S
C3493 H3485 0.950 . S
C3493 C3491 1.327 . S
C3494 C3482 1.349 . S
C3494 H3488 0.950 . S
C3494 C3495 1.327 . S
C3495 H3489 0.950 . S
C3495 C3494 1.327 . S
C3495 C3499 1.429 . S
C3496 C3479 1.574 . S
C3496 H3490 0.949 . S
C3496 C3500 1.368 . S
C3497 C3478 1.429 . S
C3497 C3491 1.429 . S
C3497 C3498 1.523 . S
C3498 C3479 1.368 . S
C3498 C3492 1.368 . S
C3498 C3497 1.523 . S
C3499 C3483 1.429 . S
C3499 C3495 1.429 . S
C3499 C3500 1.523 . S
C3500 C3484 1.368 . S
C3500 C3496 1.368 . S
C3500 C3499 1.523 . S
H3501 C3476 0.950 . S
H3502 C3478 0.950 . S
H3503 C3479 0.949 . S
H3504 C3481 0.950 . S
H3505 C3483 0.950 . S
C3506 C3507 1.349 . S
C3506 C3508 1.327 . S
C3506 H3531 0.950 . S
C3507 C3506 1.349 . S
C3507 C3523 1.349 . S
C3508 C3506 1.327 . S
C3508 C3527 1.429 . S
C3508 H3532 0.950 . S
C3509 C3526 1.574 . S
C3509 C3528 1.368 . S
C3509 H3533 0.949 . S
H3510 C3514 0.949 . S
C3511 C3512 1.349 . S
C3511 C3513 1.327 . S
C3511 H3534 0.950 . S
C3512 C3511 1.349 . S
C3512 C3524 1.349 . S
C3513 C3511 1.327 . S
C3513 C3529 1.429 . S
C3513 H3535 0.950 . S
C3514 H3510 0.949 . S
C3514 C3522 1.574 . S
C3514 C3530 1.368 . S
H3515 C3523 0.950 . S
H3516 C3521 0.950 . S
H3517 C3522 0.949 . S
H3518 C3524 0.950 . S
H3519 C3525 0.950 . S
H3520 C3526 0.949 . S
C3521 H3516 0.950 . S
C3521 C3523 1.327 . S
C3521 C3527 1.429 . S
C3522 C3514 1.574 . S
C3522 H3517 0.949 . S
C3522 C3528 1.368 . S
C3523 C3507 1.349 . S
C3523 H3515 0.950 . S
C3523 C3521 1.327 . S
C3524 C3512 1.349 . S
C3524 H3518 0.950 . S
C3524 C3525 1.327 . S
C3525 H3519 0.950 . S
C3525 C3524 1.327 . S
C3525 C3529 1.429 . S
C3526 C3509 1.574 . S
C3526 H3520 0.949 . S
C3526 C3530 1.368 . S
C3527 C3508 1.429 . S
C3527 C3521 1.429 . S
C3527 C3528 1.523 . S
C3528 C3509 1.368 . S
C3528 C3522 1.368 . S
C3528 C3527 1.523 . S
C3529 C3513 1.429 . S
C3529 C3525 1.429 . S
C3529 C3530 1.523 . S
C3530 C3514 1.368 . S
C3530 C3526 1.368 . S
C3530 C3529 1.523 . S
H3531 C3506 0.950 . S
H3532 C3508 0.950 . S
H3533 C3509 0.949 . S
H3534 C3511 0.950 . S
H3535 C3513 0.950 . S
C657 C105 1.529 1_455 S
C662 C354 1.514 . S
C687 C65 1.600 . S
C692 C365 1.597 . S
C717 C73 0.864 . S
C722 C394 0.853 . S
C752 C397 1.451 . S
C747 C92 1.455 . S
C777 C17 1.661 . S
C782 C435 1.606 . S
C812 C438 0.821 . S
C807 C37 0.819 . S
C842 C465 1.433 . S
C837 C49 1.392 . S
C867 C8 1.620 . S
C872 C494 1.565 . S
C902 C345 1.500 1_655 S
C897 C231 1.460 . S
C927 C241 0.707 . S
C932 C357 0.709 . S
C962 C385 1.615 . S
C957 C273 1.579 . S
C992 C414 0.943 . S
C987 C171 0.954 . S
C1017 C227 0.845 . S
C1022 C418 0.845 . S
C1052 C444 1.629 . S
C1047 C245 1.609 . S
C1082 C457 0.624 . S
C1077 C269 0.616 . S
C1112 C485 1.557 . S
C1107 C175 1.534 . S
C1142 C337 1.519 1_565 S
C1137 C162 1.540 . S
C1167 C289 1.761 . S
C1172 C504 1.739 . S
C1202 C535 1.476 . S
C1197 C330 1.524 . S
C1232 C554 0.815 . S
C1227 C317 0.819 . S
C1257 C120 1.293 . S
C1262 C477 1.287 . S
C1287 C134 1.441 . S
C1292 C377 1.438 . S
C1317 C331 1.555 . S
C1322 C565 1.549 . S
C1352 C594 0.755 . S
C1347 C303 0.756 . S
C1382 C355 1.536 . S
C1377 C59 1.573 . S
C1412 C584 1.636 . S
C1407 C107 1.635 . S
C1437 C91 0.906 . S
C1442 C395 0.905 . S
C1467 C78 1.489 . S
C1472 C558 1.484 . S
C1502 C434 1.652 . S
C1497 C7 1.665 . S
C1527 C51 0.853 . S
C1532 C517 0.854 . S
C1562 C464 1.476 1_556 S
C1557 C31 1.484 . S
C1592 C615 1.596 . S
C1587 C22 1.647 . S
C1622 C344 1.531 . S
C1617 C143 1.542 . S
C1652 C578 0.752 . S
C1647 C315 0.752 . S
C1677 C115 1.655 . S
C1682 C384 1.645 . S
C1707 C287 0.992 . S
C1712 C575 1.001 . S
C1737 C147 0.875 . S
C1742 C417 0.890 . S
C1772 C525 1.658 . S
C1767 C311 1.683 . S
C1797 C119 0.675 . S
C1802 C458 0.667 . S
C1827 C283 1.601 . S
C1832 C604 1.590 . S
C1857 C190 1.560 1_554 S
C1862 C338 1.545 . S
C1887 C177 1.793 . S
C1892 C505 1.773 . S
C1917 C260 1.544 . S
C1922 C454 1.501 . S
C1947 C247 0.877 . S
C1952 C555 0.871 . S
C1982 C598 1.310 . S
C1977 C274 1.314 . S
C2007 C218 1.461 . S
C2012 C378 1.445 1_565 S
C2042 C404 1.591 . S
C2037 C261 1.595 . S
C2072 C375 0.799 . S
C2067 C205 0.805 . S
C2097 C77 1.529 . S
C2102 C634 1.504 . S
C2132 C585 1.598 . S
C2127 C93 1.600 . S
C2157 C101 0.865 . S
C2162 C654 0.853 . S
C2187 C64 1.455 . S
C2192 C557 1.451 . S
C2217 C45 1.661 . S
C2222 C515 1.606 . S
C2252 C518 0.820 . S
C2247 C9 0.819 . S
C2282 C545 1.433 . S
C2277 C21 1.392 . S
C2312 C614 1.565 . S
C2307 C36 1.619 . S
C2342 C625 1.500 . S
C2337 C259 1.460 . S
C2367 C185 0.707 . S
C2372 C577 0.712 . S
C2402 C645 1.615 . S
C2397 C203 1.579 . S
C2432 C574 0.943 . S
C2427 C213 0.954 . S
C2462 C498 0.846 . S
C2457 C255 0.845 . S
C2487 C189 1.609 . S
C2492 C524 1.626 . S
C2522 C537 0.625 . S
C2517 C199 0.616 . S
C2547 C217 1.534 . S
C2552 C605 1.557 . S
C2582 C617 1.524 . S
C2577 C316 1.539 . S
C2607 C135 1.761 . S
C2612 C424 1.739 . S
C2642 C455 1.476 . S
C2637 C148 1.530 . S
C2672 C474 0.815 . S
C2667 C163 0.819 . S
C2702 C597 1.287 . S
C2697 C302 1.293 . S
C2727 C288 1.441 . S
C2732 C637 1.438 . S
C2762 C405 1.549 . S
C2757 C149 1.550 . S
C2792 C374 0.756 . S
C2787 C121 0.756 . S
C2817 C87 1.573 . S
C2822 C635 1.535 . S
C2852 C364 1.636 . S
C2847 C79 1.635 . S
C2877 C63 0.906 . S
C2882 C655 0.905 . S
C2907 C106 1.489 . S
C2912 C398 1.485 . S
C2937 C35 1.665 . S
C2942 C514 1.652 . S
C2972 C437 0.854 . S
C2967 C23 0.853 . S
C2997 C3 1.484 . S
C3002 C544 1.475 . S
C3027 C50 1.647 . S
C3032 C495 1.596 . S
C3062 C624 1.531 . S
C3057 C325 1.540 . S
C3087 C161 0.751 . S
C3092 C358 0.752 . S
C3122 C644 1.645 1_655 S
C3117 C297 1.656 . S
C3147 C133 0.992 . S
C3152 C415 1.001 . S
C3177 C329 0.871 . S
C3182 C497 0.893 . S
C3212 C445 1.658 . S
C3207 C157 1.683 . S
C3237 C301 0.675 . S
C3242 C538 0.667 . S
C3272 C484 1.590 . S
C3267 C129 1.601 . S
C3302 C618 1.546 . S
C3297 C246 1.560 . S
C3332 C425 1.772 . S
C3327 C219 1.793 . S
C3357 C232 1.544 . S
C3362 C534 1.501 . S
C3392 C475 0.871 . S
C3387 C191 0.877 . S
C3417 C204 1.314 . S
C3422 C478 1.310 . S
C3447 C176 1.462 . S
C3452 C638 1.465 . S
C3482 C564 1.591 . S
C3477 C233 1.595 1_565 S
C3512 C595 0.799 . S
C3507 C275 0.805 . S
