# Generated by pormake.
# Topology iac, (4,6)-cn, num edge types: 1
# Building blocks:
#     Node 0, Type 0, BuildingBlock: AZAVOO_clean_sbu_0, # of connection points: 4
#     Node 1, Type 0, BuildingBlock: AZAVOO_clean_sbu_0, # of connection points: 4
#     Node 2, Type 0, BuildingBlock: AZAVOO_clean_sbu_0, # of connection points: 4
#     Node 3, Type 0, BuildingBlock: AZAVOO_clean_sbu_0, # of connection points: 4
#     Node 4, Type 0, BuildingBlock: AZAVOO_clean_sbu_0, # of connection points: 4
#     Node 5, Type 0, BuildingBlock: AZAVOO_clean_sbu_0, # of connection points: 4
#     Node 6, Type 0, BuildingBlock: AZAVOO_clean_sbu_0, # of connection points: 4
#     Node 7, Type 0, BuildingBlock: AZAVOO_clean_sbu_0, # of connection points: 4
#     Node 8, Type 0, BuildingBlock: AZAVOO_clean_sbu_0, # of connection points: 4
#     Node 9, Type 0, BuildingBlock: AZAVOO_clean_sbu_0, # of connection points: 4
#     Node 10, Type 0, BuildingBlock: AZAVOO_clean_sbu_0, # of connection points: 4
#     Node 11, Type 0, BuildingBlock: AZAVOO_clean_sbu_0, # of connection points: 4
#     Node 12, Type 0, BuildingBlock: AZAVOO_clean_sbu_0, # of connection points: 4
#     Node 13, Type 0, BuildingBlock: AZAVOO_clean_sbu_0, # of connection points: 4
#     Node 14, Type 0, BuildingBlock: AZAVOO_clean_sbu_0, # of connection points: 4
#     Node 15, Type 0, BuildingBlock: AZAVOO_clean_sbu_0, # of connection points: 4
#     Node 16, Type 0, BuildingBlock: AZAVOO_clean_sbu_0, # of connection points: 4
#     Node 17, Type 0, BuildingBlock: AZAVOO_clean_sbu_0, # of connection points: 4
#     Node 18, Type 0, BuildingBlock: AZAVOO_clean_sbu_0, # of connection points: 4
#     Node 19, Type 0, BuildingBlock: AZAVOO_clean_sbu_0, # of connection points: 4
#     Node 20, Type 0, BuildingBlock: AZAVOO_clean_sbu_0, # of connection points: 4
#     Node 21, Type 0, BuildingBlock: AZAVOO_clean_sbu_0, # of connection points: 4
#     Node 22, Type 0, BuildingBlock: AZAVOO_clean_sbu_0, # of connection points: 4
#     Node 23, Type 0, BuildingBlock: AZAVOO_clean_sbu_0, # of connection points: 4
#     Node 24, Type 1, BuildingBlock: JUFBIX_clean_sbu_0, # of connection points: 6
#     Node 25, Type 1, BuildingBlock: JUFBIX_clean_sbu_0, # of connection points: 6
#     Node 26, Type 1, BuildingBlock: JUFBIX_clean_sbu_0, # of connection points: 6
#     Node 27, Type 1, BuildingBlock: JUFBIX_clean_sbu_0, # of connection points: 6
#     Node 28, Type 1, BuildingBlock: JUFBIX_clean_sbu_0, # of connection points: 6
#     Node 29, Type 1, BuildingBlock: JUFBIX_clean_sbu_0, # of connection points: 6
#     Node 30, Type 1, BuildingBlock: JUFBIX_clean_sbu_0, # of connection points: 6
#     Node 31, Type 1, BuildingBlock: JUFBIX_clean_sbu_0, # of connection points: 6
#     Node 32, Type 1, BuildingBlock: JUFBIX_clean_sbu_0, # of connection points: 6
#     Node 33, Type 1, BuildingBlock: JUFBIX_clean_sbu_0, # of connection points: 6
#     Node 34, Type 1, BuildingBlock: JUFBIX_clean_sbu_0, # of connection points: 6
#     Node 35, Type 1, BuildingBlock: JUFBIX_clean_sbu_0, # of connection points: 6
#     Node 36, Type 1, BuildingBlock: JUFBIX_clean_sbu_0, # of connection points: 6
#     Node 37, Type 1, BuildingBlock: JUFBIX_clean_sbu_0, # of connection points: 6
#     Node 38, Type 1, BuildingBlock: JUFBIX_clean_sbu_0, # of connection points: 6
#     Node 39, Type 1, BuildingBlock: JUFBIX_clean_sbu_0, # of connection points: 6
#     Edge 40, Type (0, 1), BuildingBlock: KIFKEQ_clean_linker_1, # of connection points: 2
#     Edge 41, Type (0, 1), BuildingBlock: KIFKEQ_clean_linker_1, # of connection points: 2
#     Edge 42, Type (0, 1), BuildingBlock: KIFKEQ_clean_linker_1, # of connection points: 2
#     Edge 43, Type (0, 1), BuildingBlock: KIFKEQ_clean_linker_1, # of connection points: 2
#     Edge 44, Type (0, 1), BuildingBlock: KIFKEQ_clean_linker_1, # of connection points: 2
#     Edge 45, Type (0, 1), BuildingBlock: KIFKEQ_clean_linker_1, # of connection points: 2
#     Edge 46, Type (0, 1), BuildingBlock: KIFKEQ_clean_linker_1, # of connection points: 2
#     Edge 47, Type (0, 1), BuildingBlock: KIFKEQ_clean_linker_1, # of connection points: 2
#     Edge 48, Type (0, 1), BuildingBlock: KIFKEQ_clean_linker_1, # of connection points: 2
#     Edge 49, Type (0, 1), BuildingBlock: KIFKEQ_clean_linker_1, # of connection points: 2
#     Edge 50, Type (0, 1), BuildingBlock: KIFKEQ_clean_linker_1, # of connection points: 2
#     Edge 51, Type (0, 1), BuildingBlock: KIFKEQ_clean_linker_1, # of connection points: 2
#     Edge 52, Type (0, 1), BuildingBlock: KIFKEQ_clean_linker_1, # of connection points: 2
#     Edge 53, Type (0, 1), BuildingBlock: KIFKEQ_clean_linker_1, # of connection points: 2
#     Edge 54, Type (0, 1), BuildingBlock: KIFKEQ_clean_linker_1, # of connection points: 2
#     Edge 55, Type (0, 1), BuildingBlock: KIFKEQ_clean_linker_1, # of connection points: 2
#     Edge 56, Type (0, 1), BuildingBlock: KIFKEQ_clean_linker_1, # of connection points: 2
#     Edge 57, Type (0, 1), BuildingBlock: KIFKEQ_clean_linker_1, # of connection points: 2
#     Edge 58, Type (0, 1), BuildingBlock: KIFKEQ_clean_linker_1, # of connection points: 2
#     Edge 59, Type (0, 1), BuildingBlock: KIFKEQ_clean_linker_1, # of connection points: 2
#     Edge 60, Type (0, 1), BuildingBlock: KIFKEQ_clean_linker_1, # of connection points: 2
#     Edge 61, Type (0, 1), BuildingBlock: KIFKEQ_clean_linker_1, # of connection points: 2
#     Edge 62, Type (0, 1), BuildingBlock: KIFKEQ_clean_linker_1, # of connection points: 2
#     Edge 63, Type (0, 1), BuildingBlock: KIFKEQ_clean_linker_1, # of connection points: 2
#     Edge 64, Type (0, 1), BuildingBlock: KIFKEQ_clean_linker_1, # of connection points: 2
#     Edge 65, Type (0, 1), BuildingBlock: KIFKEQ_clean_linker_1, # of connection points: 2
#     Edge 66, Type (0, 1), BuildingBlock: KIFKEQ_clean_linker_1, # of connection points: 2
#     Edge 67, Type (0, 1), BuildingBlock: KIFKEQ_clean_linker_1, # of connection points: 2
#     Edge 68, Type (0, 1), BuildingBlock: KIFKEQ_clean_linker_1, # of connection points: 2
#     Edge 69, Type (0, 1), BuildingBlock: KIFKEQ_clean_linker_1, # of connection points: 2
#     Edge 70, Type (0, 1), BuildingBlock: KIFKEQ_clean_linker_1, # of connection points: 2
#     Edge 71, Type (0, 1), BuildingBlock: KIFKEQ_clean_linker_1, # of connection points: 2
#     Edge 72, Type (0, 1), BuildingBlock: KIFKEQ_clean_linker_1, # of connection points: 2
#     Edge 73, Type (0, 1), BuildingBlock: KIFKEQ_clean_linker_1, # of connection points: 2
#     Edge 74, Type (0, 1), BuildingBlock: KIFKEQ_clean_linker_1, # of connection points: 2
#     Edge 75, Type (0, 1), BuildingBlock: KIFKEQ_clean_linker_1, # of connection points: 2
#     Edge 76, Type (0, 1), BuildingBlock: KIFKEQ_clean_linker_1, # of connection points: 2
#     Edge 77, Type (0, 1), BuildingBlock: KIFKEQ_clean_linker_1, # of connection points: 2
#     Edge 78, Type (0, 1), BuildingBlock: KIFKEQ_clean_linker_1, # of connection points: 2
#     Edge 79, Type (0, 1), BuildingBlock: KIFKEQ_clean_linker_1, # of connection points: 2
#     Edge 80, Type (0, 1), BuildingBlock: KIFKEQ_clean_linker_1, # of connection points: 2
#     Edge 81, Type (0, 1), BuildingBlock: KIFKEQ_clean_linker_1, # of connection points: 2
#     Edge 82, Type (0, 1), BuildingBlock: KIFKEQ_clean_linker_1, # of connection points: 2
#     Edge 83, Type (0, 1), BuildingBlock: KIFKEQ_clean_linker_1, # of connection points: 2
#     Edge 84, Type (0, 1), BuildingBlock: KIFKEQ_clean_linker_1, # of connection points: 2
#     Edge 85, Type (0, 1), BuildingBlock: KIFKEQ_clean_linker_1, # of connection points: 2
#     Edge 86, Type (0, 1), BuildingBlock: KIFKEQ_clean_linker_1, # of connection points: 2
#     Edge 87, Type (0, 1), BuildingBlock: KIFKEQ_clean_linker_1, # of connection points: 2
#     Edge 88, Type (0, 1), BuildingBlock: KIFKEQ_clean_linker_1, # of connection points: 2
#     Edge 89, Type (0, 1), BuildingBlock: KIFKEQ_clean_linker_1, # of connection points: 2
#     Edge 90, Type (0, 1), BuildingBlock: KIFKEQ_clean_linker_1, # of connection points: 2
#     Edge 91, Type (0, 1), BuildingBlock: KIFKEQ_clean_linker_1, # of connection points: 2
#     Edge 92, Type (0, 1), BuildingBlock: KIFKEQ_clean_linker_1, # of connection points: 2
#     Edge 93, Type (0, 1), BuildingBlock: KIFKEQ_clean_linker_1, # of connection points: 2
#     Edge 94, Type (0, 1), BuildingBlock: KIFKEQ_clean_linker_1, # of connection points: 2
#     Edge 95, Type (0, 1), BuildingBlock: KIFKEQ_clean_linker_1, # of connection points: 2
#     Edge 96, Type (0, 1), BuildingBlock: KIFKEQ_clean_linker_1, # of connection points: 2
#     Edge 97, Type (0, 1), BuildingBlock: KIFKEQ_clean_linker_1, # of connection points: 2
#     Edge 98, Type (0, 1), BuildingBlock: KIFKEQ_clean_linker_1, # of connection points: 2
#     Edge 99, Type (0, 1), BuildingBlock: KIFKEQ_clean_linker_1, # of connection points: 2
#     Edge 100, Type (0, 1), BuildingBlock: KIFKEQ_clean_linker_1, # of connection points: 2
#     Edge 101, Type (0, 1), BuildingBlock: KIFKEQ_clean_linker_1, # of connection points: 2
#     Edge 102, Type (0, 1), BuildingBlock: KIFKEQ_clean_linker_1, # of connection points: 2
#     Edge 103, Type (0, 1), BuildingBlock: KIFKEQ_clean_linker_1, # of connection points: 2
#     Edge 104, Type (0, 1), BuildingBlock: KIFKEQ_clean_linker_1, # of connection points: 2
#     Edge 105, Type (0, 1), BuildingBlock: KIFKEQ_clean_linker_1, # of connection points: 2
#     Edge 106, Type (0, 1), BuildingBlock: KIFKEQ_clean_linker_1, # of connection points: 2
#     Edge 107, Type (0, 1), BuildingBlock: KIFKEQ_clean_linker_1, # of connection points: 2
#     Edge 108, Type (0, 1), BuildingBlock: KIFKEQ_clean_linker_1, # of connection points: 2
#     Edge 109, Type (0, 1), BuildingBlock: KIFKEQ_clean_linker_1, # of connection points: 2
#     Edge 110, Type (0, 1), BuildingBlock: KIFKEQ_clean_linker_1, # of connection points: 2
#     Edge 111, Type (0, 1), BuildingBlock: KIFKEQ_clean_linker_1, # of connection points: 2
#     Edge 112, Type (0, 1), BuildingBlock: KIFKEQ_clean_linker_1, # of connection points: 2
#     Edge 113, Type (0, 1), BuildingBlock: KIFKEQ_clean_linker_1, # of connection points: 2
#     Edge 114, Type (0, 1), BuildingBlock: KIFKEQ_clean_linker_1, # of connection points: 2
#     Edge 115, Type (0, 1), BuildingBlock: KIFKEQ_clean_linker_1, # of connection points: 2
#     Edge 116, Type (0, 1), BuildingBlock: KIFKEQ_clean_linker_1, # of connection points: 2
#     Edge 117, Type (0, 1), BuildingBlock: KIFKEQ_clean_linker_1, # of connection points: 2
#     Edge 118, Type (0, 1), BuildingBlock: KIFKEQ_clean_linker_1, # of connection points: 2
#     Edge 119, Type (0, 1), BuildingBlock: KIFKEQ_clean_linker_1, # of connection points: 2
#     Edge 120, Type (0, 1), BuildingBlock: KIFKEQ_clean_linker_1, # of connection points: 2
#     Edge 121, Type (0, 1), BuildingBlock: KIFKEQ_clean_linker_1, # of connection points: 2
#     Edge 122, Type (0, 1), BuildingBlock: KIFKEQ_clean_linker_1, # of connection points: 2
#     Edge 123, Type (0, 1), BuildingBlock: KIFKEQ_clean_linker_1, # of connection points: 2
#     Edge 124, Type (0, 1), BuildingBlock: KIFKEQ_clean_linker_1, # of connection points: 2
#     Edge 125, Type (0, 1), BuildingBlock: KIFKEQ_clean_linker_1, # of connection points: 2
#     Edge 126, Type (0, 1), BuildingBlock: KIFKEQ_clean_linker_1, # of connection points: 2
#     Edge 127, Type (0, 1), BuildingBlock: KIFKEQ_clean_linker_1, # of connection points: 2
#     Edge 128, Type (0, 1), BuildingBlock: KIFKEQ_clean_linker_1, # of connection points: 2
#     Edge 129, Type (0, 1), BuildingBlock: KIFKEQ_clean_linker_1, # of connection points: 2
#     Edge 130, Type (0, 1), BuildingBlock: KIFKEQ_clean_linker_1, # of connection points: 2
#     Edge 131, Type (0, 1), BuildingBlock: KIFKEQ_clean_linker_1, # of connection points: 2
#     Edge 132, Type (0, 1), BuildingBlock: KIFKEQ_clean_linker_1, # of connection points: 2
#     Edge 133, Type (0, 1), BuildingBlock: KIFKEQ_clean_linker_1, # of connection points: 2
#     Edge 134, Type (0, 1), BuildingBlock: KIFKEQ_clean_linker_1, # of connection points: 2
#     Edge 135, Type (0, 1), BuildingBlock: KIFKEQ_clean_linker_1, # of connection points: 2
# Relax obj value: 0.259
# Max RMSD: 0.230
# Mean RMSD: 0.173
data_MOF--net-iac--node1-AZAVOO_clean_sbu_0--node2-JUFBIX_clean_sbu_0--edge1-KIFKEQ_clean_linker_1
_symmetry_space_group_name_H-M    P1
_symmetry_Int_Tables_number       1
_symmetry_cell_setting            triclinic
loop_
_symmetry_equiv_pos_as_xyz
'x, y, z'
_cell_length_a     56.257792
_cell_length_b     54.86536
_cell_length_c     55.609111
_cell_angle_alpha  91.31638
_cell_angle_beta   87.96674
_cell_angle_gamma 89.589281
loop_
_atom_site_label
_atom_site_type_symbol
_atom_site_fract_x
_atom_site_fract_y
_atom_site_fract_z
_atom_type_partial_charge
Mg0 Mg 0.02443 0.28709 0.16053 0.0
O1 O 0.02498 0.25208 0.13501 0.0
O2 O 0.99302 0.2557 0.11267 0.0
Mg3 Mg 0.97158 0.29029 0.12343 0.0
C4 C 0.01146 0.24386 0.11862 0.0
C5 C 0.07094 0.29522 0.18825 0.0
O6 O 0.05665 0.31291 0.19618 0.0
O7 O 0.03488 0.31476 0.1305 0.0
O8 O 0.00076 0.31686 0.1111 0.0
O9 O 0.00053 0.26816 0.18825 0.0
O10 O 0.98719 0.28995 0.15901 0.0
C11 C 0.02192 0.32419 0.1145 0.0
C12 C 0.9825 0.27702 0.17746 0.0
O13 O 0.06346 0.28055 0.1721 0.0
Mg14 Mg 0.03531 0.73606 0.38746 0.0
O15 O 0.01423 0.76849 0.40379 0.0
O16 O 0.97853 0.75628 0.41721 0.0
Mg17 Mg 0.97659 0.71549 0.40843 0.0
C18 C 0.99399 0.77291 0.41408 0.0
C19 C 0.06659 0.77886 0.37465 0.0
O20 O 0.04563 0.78543 0.36722 0.0
O21 O 0.0417 0.72311 0.42486 0.0
O22 O 0.00581 0.70895 0.43573 0.0
O23 O 0.02161 0.74174 0.35167 0.0
O24 O 0.00362 0.71881 0.37895 0.0
C25 C 0.02772 0.71273 0.43991 0.0
C26 C 0.00367 0.72845 0.35799 0.0
O27 O 0.06842 0.75913 0.38605 0.0
Mg28 Mg 0.5251 0.79112 0.65965 0.0
O29 O 0.52714 0.75613 0.63433 0.0
O30 O 0.49704 0.75935 0.60937 0.0
Mg31 Mg 0.47403 0.79302 0.62006 0.0
C32 C 0.51514 0.74791 0.61675 0.0
C33 C 0.56818 0.78124 0.69361 0.0
O34 O 0.5499 0.77836 0.70861 0.0
O35 O 0.53592 0.81908 0.63009 0.0
O36 O 0.5027 0.82072 0.60921 0.0
O37 O 0.50065 0.77156 0.68644 0.0
O38 O 0.48796 0.79289 0.65656 0.0
C39 C 0.5235 0.82846 0.61367 0.0
C40 C 0.48287 0.77987 0.67486 0.0
O41 O 0.5642 0.78587 0.67171 0.0
Mg42 Mg 0.53256 0.22723 0.87833 0.0
O43 O 0.51072 0.2601 0.89285 0.0
O44 O 0.47638 0.24674 0.90879 0.0
Mg45 Mg 0.47575 0.20542 0.90343 0.0
C46 C 0.49067 0.264 0.9038 0.0
C47 C 0.57384 0.24984 0.85273 0.0
O48 O 0.56501 0.23411 0.83735 0.0
O49 O 0.54105 0.2179 0.91634 0.0
O50 O 0.50631 0.20289 0.92982 0.0
O51 O 0.51673 0.22886 0.84277 0.0
O52 O 0.50156 0.20765 0.87297 0.0
C53 C 0.52814 0.2082 0.93276 0.0
C54 C 0.5001 0.21502 0.85124 0.0
O55 O 0.56476 0.25133 0.87393 0.0
Mg56 Mg 0.1567 0.98507 0.30406 0.0
O57 O 0.17042 0.02389 0.30948 0.0
O58 O 0.18607 0.02556 0.34586 0.0
Mg59 Mg 0.18094 0.98911 0.36412 0.0
C60 C 0.18111 0.03542 0.32605 0.0
C61 C 0.14289 0.00929 0.25643 0.0
O62 O 0.13613 0.02676 0.27179 0.0
O63 O 0.19478 0.97204 0.29882 0.0
O64 O 0.20766 0.97151 0.33642 0.0
O65 O 0.12112 0.99532 0.31969 0.0
O66 O 0.15094 0.98194 0.34079 0.0
C67 C 0.21078 0.96743 0.31379 0.0
C68 C 0.12952 0.99039 0.34042 0.0
O69 O 0.15312 0.99046 0.26414 0.0
Mg70 Mg 0.25748 0.90506 0.54878 0.0
O71 O 0.26767 0.88483 0.51324 0.0
O72 O 0.30493 0.87114 0.517 0.0
Mg73 Mg 0.31854 0.88288 0.5534 0.0
C74 C 0.2861 0.87317 0.50502 0.0
C75 C 0.20572 0.90559 0.56102 0.0
O76 O 0.21671 0.90445 0.58143 0.0
O77 O 0.25384 0.86863 0.56618 0.0
O78 O 0.29142 0.85643 0.57024 0.0
O79 O 0.27152 0.93977 0.53439 0.0
O80 O 0.29259 0.91287 0.55389 0.0
C81 C 0.26902 0.85315 0.57299 0.0
C82 C 0.29187 0.93275 0.54209 0.0
O83 O 0.21815 0.90534 0.54146 0.0
Mg84 Mg 0.39203 0.07759 0.78209 0.0
O85 O 0.38169 0.03741 0.78536 0.0
O86 O 0.3642 0.03378 0.8219 0.0
Mg87 Mg 0.36454 0.07043 0.84198 0.0
C88 C 0.37119 0.0247 0.80147 0.0
C89 C 0.41094 0.09044 0.73297 0.0
O90 O 0.41672 0.1089 0.74701 0.0
O91 O 0.35338 0.08617 0.77774 0.0
O92 O 0.33745 0.08483 0.8151 0.0
O93 O 0.42747 0.07076 0.79601 0.0
O94 O 0.39551 0.07997 0.81898 0.0
C95 C 0.33571 0.08851 0.7926 0.0
C96 C 0.41762 0.07346 0.8173 0.0
O97 O 0.39869 0.07332 0.74194 0.0
Mg98 Mg 0.29362 0.14578 0.01366 0.0
O99 O 0.28977 0.17127 0.04836 0.0
O100 O 0.32148 0.19569 0.04676 0.0
Mg101 Mg 0.3468 0.18397 0.01493 0.0
C102 C 0.30211 0.18876 0.05711 0.0
C103 C 0.24338 0.12232 0.03153 0.0
O104 O 0.25525 0.1177 0.05086 0.0
O105 O 0.28664 0.17641 0.98605 0.0
O106 O 0.32138 0.19577 0.98529 0.0
O107 O 0.31333 0.11741 0.03448 0.0
O108 O 0.33121 0.14718 0.01563 0.0
C109 C 0.30079 0.19219 0.97687 0.0
C110 C 0.33299 0.1283 0.02878 0.0
O111 O 0.25362 0.13418 0.01468 0.0
Mg112 Mg 0.75017 0.42165 0.0647 0.0
O113 O 0.76388 0.40251 0.02978 0.0
O114 O 0.80243 0.39368 0.03389 0.0
Mg115 Mg 0.81259 0.40503 0.0717 0.0
C116 C 0.78371 0.39367 0.02156 0.0
C117 C 0.69737 0.41523 0.0721 0.0
O118 O 0.70594 0.41391 0.09371 0.0
O119 O 0.74874 0.38482 0.08172 0.0
O120 O 0.78709 0.37554 0.0858 0.0
O121 O 0.76244 0.45719 0.05046 0.0
O122 O 0.78413 0.43253 0.072 0.0
C123 C 0.76502 0.37029 0.08801 0.0
C124 C 0.78275 0.45178 0.05934 0.0
O125 O 0.71176 0.41802 0.05425 0.0
Mg126 Mg 0.89681 0.57835 0.27945 0.0
O127 O 0.88649 0.53824 0.28382 0.0
O128 O 0.87008 0.53541 0.32093 0.0
Mg129 Mg 0.87094 0.57246 0.34021 0.0
C130 C 0.87648 0.52589 0.30052 0.0
C131 C 0.91485 0.59005 0.22984 0.0
O132 O 0.92126 0.60854 0.24352 0.0
O133 O 0.85804 0.58705 0.276 0.0
O134 O 0.84321 0.58638 0.31381 0.0
O135 O 0.93264 0.57172 0.29256 0.0
O136 O 0.90124 0.58148 0.31612 0.0
C137 C 0.8408 0.58973 0.29134 0.0
C138 C 0.92329 0.57486 0.31401 0.0
O139 O 0.90246 0.57329 0.23928 0.0
Mg140 Mg 0.79182 0.64798 0.51287 0.0
O141 O 0.79084 0.67348 0.54771 0.0
O142 O 0.82411 0.69536 0.54498 0.0
Mg143 Mg 0.84675 0.68364 0.51127 0.0
C144 C 0.80479 0.68971 0.55623 0.0
C145 C 0.74286 0.62465 0.50106 0.0
O146 O 0.75633 0.61921 0.48186 0.0
O147 O 0.78429 0.67912 0.48586 0.0
O148 O 0.81976 0.6971 0.48382 0.0
O149 O 0.81174 0.61874 0.53231 0.0
O150 O 0.82963 0.64769 0.5122 0.0
C151 C 0.79863 0.69459 0.47638 0.0
C152 C 0.83145 0.62877 0.5253 0.0
O153 O 0.75176 0.63764 0.51777 0.0
Mg154 Mg 0.65655 0.48775 0.80131 0.0
O155 O 0.66501 0.52786 0.8085 0.0
O156 O 0.67674 0.53191 0.84635 0.0
Mg157 Mg 0.67584 0.49444 0.86328 0.0
C158 C 0.67226 0.54088 0.82602 0.0
C159 C 0.64028 0.51147 0.75547 0.0
O160 O 0.62954 0.52495 0.77247 0.0
O161 O 0.69613 0.48001 0.79844 0.0
O162 O 0.70621 0.48153 0.83702 0.0
O163 O 0.61921 0.49276 0.81502 0.0
O164 O 0.64915 0.48274 0.83761 0.0
C165 C 0.71146 0.47785 0.81466 0.0
C166 C 0.62697 0.48825 0.83611 0.0
O167 O 0.65433 0.4946 0.76142 0.0
Mg168 Mg 0.01688 0.776 0.88783 0.0
O169 O 0.01941 0.81271 0.90986 0.0
O170 O 0.98531 0.8166 0.93137 0.0
Mg171 Mg 0.96117 0.78374 0.92324 0.0
C172 C 0.00579 0.8246 0.92496 0.0
C173 C 0.06402 0.79111 0.86075 0.0
O174 O 0.04844 0.80583 0.85152 0.0
O175 O 0.0224 0.75222 0.9212 0.0
O176 O 0.98643 0.75541 0.93943 0.0
O177 O 0.99819 0.79383 0.85714 0.0
O178 O 0.9793 0.77756 0.88787 0.0
C179 C 0.00727 0.74587 0.93763 0.0
C180 C 0.97814 0.78823 0.86761 0.0
O181 O 0.05701 0.77694 0.87735 0.0
Mg182 Mg 0.99694 0.30089 0.66149 0.0
O183 O 0.00238 0.26637 0.63823 0.0
O184 O 0.96768 0.25844 0.62137 0.0
Mg185 Mg 0.93999 0.28677 0.63507 0.0
C186 C 0.98955 0.25341 0.62451 0.0
C187 C 0.04454 0.3246 0.67362 0.0
O188 O 0.02973 0.34253 0.67962 0.0
O189 O 0.99633 0.32328 0.62814 0.0
O190 O 0.9596 0.31747 0.615 0.0
O191 O 0.98673 0.27906 0.69338 0.0
O192 O 0.9617 0.29244 0.66664 0.0
C193 C 0.9798 0.32797 0.61381 0.0
C194 C 0.96544 0.27968 0.6853 0.0
O195 O 0.03647 0.30521 0.66418 0.0
Mg196 Mg 0.51602 0.27853 0.3895 0.0
O197 O 0.51794 0.3159 0.41032 0.0
O198 O 0.48364 0.32015 0.43144 0.0
Mg199 Mg 0.4599 0.28683 0.42409 0.0
C200 C 0.50411 0.32812 0.42495 0.0
C201 C 0.5636 0.2941 0.36341 0.0
O202 O 0.54829 0.30909 0.35411 0.0
O203 O 0.52144 0.25617 0.42374 0.0
O204 O 0.48529 0.2595 0.44156 0.0
O205 O 0.49759 0.29505 0.358 0.0
O206 O 0.47849 0.27967 0.38911 0.0
C207 C 0.50626 0.25024 0.44028 0.0
C208 C 0.47748 0.28963 0.36847 0.0
O209 O 0.5562 0.27964 0.37958 0.0
Mg210 Mg 0.48454 0.78822 0.15719 0.0
O211 O 0.49334 0.75848 0.12907 0.0
O212 O 0.46361 0.75665 0.10353 0.0
Mg213 Mg 0.4352 0.7845 0.11648 0.0
C214 C 0.48377 0.74933 0.11051 0.0
C215 C 0.52692 0.80059 0.18729 0.0
O216 O 0.50961 0.81337 0.19804 0.0
O217 O 0.49215 0.81741 0.1302 0.0
O218 O 0.46025 0.81628 0.10739 0.0
O219 O 0.46686 0.76109 0.18035 0.0
O220 O 0.44868 0.78267 0.15317 0.0
C221 C 0.47999 0.82572 0.11325 0.0
C222 C 0.44771 0.76588 0.16901 0.0
O223 O 0.52255 0.78797 0.1686 0.0
Mg224 Mg 0.87844 0.08487 0.76668 0.0
O225 O 0.86889 0.04535 0.77187 0.0
O226 O 0.85642 0.03925 0.80974 0.0
Mg227 Mg 0.85802 0.07634 0.82907 0.0
C228 C 0.86112 0.03143 0.78831 0.0
C229 C 0.89722 0.08716 0.71503 0.0
O230 O 0.90846 0.1051 0.72568 0.0
O231 O 0.83932 0.09429 0.76657 0.0
O232 O 0.82828 0.09044 0.80532 0.0
O233 O 0.91504 0.07741 0.77746 0.0
O234 O 0.88566 0.08872 0.80298 0.0
C235 C 0.82358 0.09561 0.78367 0.0
C236 C 0.9074 0.08151 0.79942 0.0
O237 O 0.88089 0.07634 0.72678 0.0
Mg238 Mg 0.80317 0.16765 0.49038 0.0
O239 O 0.80272 0.1868 0.5269 0.0
O240 O 0.83739 0.20523 0.53226 0.0
Mg241 Mg 0.86133 0.19551 0.49923 0.0
C242 C 0.81626 0.2001 0.53943 0.0
C243 C 0.75685 0.14061 0.49282 0.0
O244 O 0.77257 0.12439 0.48455 0.0
O245 O 0.80019 0.20437 0.47263 0.0
O246 O 0.83719 0.21849 0.47617 0.0
O247 O 0.81761 0.13396 0.50575 0.0
O248 O 0.83982 0.16335 0.49057 0.0
C249 C 0.81613 0.22038 0.46847 0.0
C250 C 0.83852 0.14267 0.50095 0.0
O251 O 0.76333 0.16261 0.49546 0.0
Mg252 Mg 0.67169 0.98516 0.31548 0.0
O253 O 0.68061 0.02471 0.32349 0.0
O254 O 0.6982 0.028 0.35878 0.0
Mg255 Mg 0.69751 0.99008 0.375 0.0
C256 C 0.69065 0.03738 0.33967 0.0
C257 C 0.65821 0.98069 0.26107 0.0
O258 O 0.65614 0.95749 0.26603 0.0
O259 O 0.71088 0.97733 0.30866 0.0
O260 O 0.72494 0.97683 0.34578 0.0
O261 O 0.6359 0.99004 0.33214 0.0
O262 O 0.66777 0.97962 0.35211 0.0
C263 C 0.7278 0.97398 0.32297 0.0
C264 C 0.64561 0.98586 0.35241 0.0
O265 O 0.66578 0.9954 0.27694 0.0
Mg266 Mg 0.79233 0.91309 0.02528 0.0
O267 O 0.79 0.8901 0.98927 0.0
O268 O 0.82107 0.86463 0.98836 0.0
Mg269 Mg 0.8442 0.87295 0.0211 0.0
C270 C 0.80227 0.87279 0.97899 0.0
C271 C 0.746 0.94316 0.01175 0.0
O272 O 0.76152 0.95449 0.99787 0.0
O273 O 0.78218 0.88087 0.04988 0.0
O274 O 0.81584 0.85896 0.04868 0.0
O275 O 0.81499 0.94204 0.00707 0.0
O276 O 0.82983 0.9106 0.02525 0.0
C277 C 0.7947 0.86308 0.05715 0.0
C278 C 0.83361 0.93049 0.01397 0.0
O279 O 0.75299 0.9252 0.02386 0.0
Mg280 Mg 0.29688 0.66511 0.97744 0.0
O281 O 0.29845 0.68238 0.01446 0.0
O282 O 0.33417 0.69803 0.02066 0.0
Mg283 Mg 0.35711 0.68731 0.98711 0.0
C284 C 0.31267 0.69421 0.0275 0.0
C285 C 0.24512 0.64728 0.97426 0.0
O286 O 0.25538 0.63352 0.95718 0.0
O287 O 0.29683 0.70297 0.96185 0.0
O288 O 0.33489 0.71373 0.96565 0.0
O289 O 0.30872 0.62933 0.99068 0.0
O290 O 0.33298 0.65765 0.97663 0.0
C291 C 0.31394 0.71787 0.95844 0.0
C292 C 0.3302 0.63653 0.98586 0.0
O293 O 0.25705 0.66402 0.98414 0.0
Mg294 Mg 0.17027 0.47873 0.80984 0.0
O295 O 0.17995 0.51895 0.81254 0.0
O296 O 0.19578 0.52651 0.84822 0.0
Mg297 Mg 0.19537 0.49104 0.86882 0.0
C298 C 0.18935 0.53346 0.82768 0.0
C299 C 0.14423 0.47308 0.76427 0.0
O300 O 0.13268 0.45973 0.78007 0.0
O301 O 0.20936 0.46969 0.80406 0.0
O302 O 0.22288 0.47479 0.84118 0.0
O303 O 0.13442 0.48599 0.82579 0.0
O304 O 0.16605 0.47792 0.847 0.0
C305 C 0.22609 0.4687 0.81896 0.0
C306 C 0.14388 0.48392 0.8465 0.0
O307 O 0.16373 0.48268 0.77015 0.0
Mg308 Mg 0.29208 0.41364 0.52533 0.0
O309 O 0.29037 0.39031 0.48953 0.0
O310 O 0.32148 0.36496 0.48891 0.0
Mg311 Mg 0.34412 0.37379 0.52195 0.0
C312 C 0.30273 0.37302 0.47938 0.0
C313 C 0.24616 0.4443 0.53491 0.0
O314 O 0.26174 0.45506 0.54856 0.0
O315 O 0.28171 0.38167 0.55035 0.0
O316 O 0.31555 0.36004 0.54941 0.0
O317 O 0.31481 0.44241 0.50707 0.0
O318 O 0.32966 0.41147 0.52607 0.0
C319 C 0.29437 0.36406 0.55783 0.0
C320 C 0.33341 0.43122 0.5145 0.0
O321 O 0.2529 0.42577 0.52213 0.0
Mg322 Mg 0.37755 0.58229 0.26346 0.0
O323 O 0.36789 0.54407 0.27464 0.0
O324 O 0.3567 0.54244 0.31343 0.0
Mg325 Mg 0.35963 0.5816 0.32774 0.0
C326 C 0.36068 0.53221 0.29285 0.0
C327 C 0.39183 0.54958 0.22082 0.0
O328 O 0.40169 0.5396 0.23927 0.0
O329 O 0.33788 0.59117 0.26369 0.0
O330 O 0.32942 0.59206 0.30335 0.0
O331 O 0.4147 0.57676 0.27413 0.0
O332 O 0.38583 0.59064 0.29891 0.0
C333 C 0.32324 0.59441 0.28162 0.0
C334 C 0.40754 0.5833 0.29569 0.0
O335 O 0.3793 0.56884 0.2243 0.0
Co336 Co 0.03291 0.04087 0.00254 0.0
C337 C 0.02801 0.07284 0.04239 0.0
Co338 Co 0.03943 0.02306 0.03656 0.0
C339 C 0.01328 0.04975 0.95666 0.0
C340 C 0.03809 0.07724 0.96673 0.0
N341 N 0.02806 0.05633 0.97415 0.0
N342 N 0.01361 0.06577 0.93864 0.0
C343 C 0.02926 0.08307 0.94485 0.0
H344 H 0.00241 0.03356 0.95723 0.0
H345 H 0.05063 0.08783 0.97683 0.0
C346 C 0.04346 0.99127 0.99635 0.0
N347 N 0.0447 0.00773 0.06498 0.0
C348 C 0.05788 0.01598 0.08316 0.0
C349 C 0.03779 0.98528 0.07134 0.0
N350 N 0.0598 0.99947 0.10068 0.0
C351 C 0.04705 0.98012 0.09321 0.0
C352 C 0.99226 0.01919 0.02239 0.0
O353 O 0.03874 0.01063 0.98522 0.0
O354 O 0.04602 0.99279 0.01899 0.0
O355 O 0.0066 0.01389 0.03871 0.0
O356 O 0.99965 0.03235 0.00516 0.0
O357 O 0.03262 0.05372 0.05407 0.0
H358 H 0.02722 0.9732 0.06048 0.0
H359 H 0.06613 0.0337 0.08317 0.0
O360 O 0.02674 0.07088 0.01966 0.0
O361 O 0.06623 0.04931 0.0001 0.0
O362 O 0.07233 0.03186 0.03426 0.0
C363 C 0.08031 0.04413 0.01667 0.0
H364 H 0.03342 0.0992 0.93472 0.0
H365 H 0.04497 0.96308 0.1024 0.0
Co366 Co 0.26011 0.77214 0.28027 0.0
C367 C 0.23624 0.73163 0.26336 0.0
Co368 Co 0.24462 0.77693 0.24489 0.0
C369 C 0.26893 0.78588 0.32863 0.0
C370 C 0.28313 0.75032 0.32017 0.0
N371 N 0.27107 0.76893 0.31079 0.0
N372 N 0.27926 0.7788 0.34885 0.0
C373 C 0.2882 0.75633 0.34361 0.0
H374 H 0.25978 0.80309 0.32671 0.0
H375 H 0.28812 0.73362 0.3105 0.0
C376 C 0.26863 0.81748 0.26153 0.0
N377 N 0.23419 0.78031 0.21404 0.0
C378 C 0.24103 0.76522 0.19565 0.0
C379 C 0.22393 0.79951 0.20363 0.0
N380 N 0.23649 0.77452 0.17415 0.0
C381 C 0.2254 0.79599 0.17891 0.0
C382 C 0.21388 0.79144 0.28116 0.0
O383 O 0.2731 0.80387 0.27898 0.0
O384 O 0.25616 0.80922 0.24464 0.0
O385 O 0.21499 0.78858 0.25838 0.0
O386 O 0.2315 0.78532 0.29334 0.0
O387 O 0.23331 0.74463 0.24512 0.0
H388 H 0.21784 0.81591 0.21318 0.0
H389 H 0.25119 0.74863 0.19783 0.0
O390 O 0.24701 0.74041 0.28127 0.0
O391 O 0.2888 0.75902 0.26727 0.0
O392 O 0.27447 0.76519 0.23187 0.0
C393 C 0.29117 0.75763 0.24457 0.0
H394 H 0.29809 0.74518 0.35563 0.0
H395 H 0.22083 0.80914 0.16557 0.0
Co396 Co 0.50923 0.04093 0.52994 0.0
C397 C 0.52269 0.08892 0.52308 0.0
Co398 Co 0.542 0.05001 0.54846 0.0
C399 C 0.46279 0.0213 0.52437 0.0
C400 C 0.47541 0.03904 0.49258 0.0
N401 N 0.48163 0.03317 0.51492 0.0
N402 N 0.44489 0.01964 0.50891 0.0
C403 C 0.45281 0.03072 0.4888 0.0
H404 H 0.46232 0.01403 0.5423 0.0
H405 H 0.48647 0.04907 0.48 0.0
C406 C 0.52858 0.00169 0.55477 0.0
N407 N 0.56999 0.05846 0.56265 0.0
C408 C 0.5868 0.07239 0.55212 0.0
C409 C 0.57908 0.05196 0.58371 0.0
N410 N 0.60605 0.07493 0.56558 0.0
C411 C 0.60145 0.06196 0.58549 0.0
C412 C 0.50159 0.05854 0.57675 0.0
O413 O 0.51174 0.00826 0.54155 0.0
O414 O 0.54412 0.01739 0.56049 0.0
O415 O 0.52414 0.06016 0.57652 0.0
O416 O 0.49155 0.05047 0.55812 0.0
O417 O 0.53972 0.0826 0.53607 0.0
H418 H 0.57026 0.04033 0.59663 0.0
H419 H 0.58537 0.07972 0.53431 0.0
O420 O 0.50684 0.07333 0.51841 0.0
O421 O 0.52691 0.03147 0.50189 0.0
O422 O 0.55968 0.03966 0.5205 0.0
C423 C 0.54942 0.03217 0.50183 0.0
H424 H 0.44284 0.03316 0.47274 0.0
H425 H 0.61344 0.05969 0.60008 0.0
Co426 Co 0.29517 0.27026 0.76182 0.0
C427 C 0.27353 0.28741 0.7212 0.0
Co428 Co 0.25671 0.27559 0.76798 0.0
C429 C 0.33969 0.24569 0.76393 0.0
C430 C 0.34289 0.27903 0.74489 0.0
N431 N 0.32702 0.26473 0.75634 0.0
N432 N 0.36308 0.2476 0.75812 0.0
C433 C 0.36507 0.26861 0.74601 0.0
H434 H 0.33176 0.2311 0.77411 0.0
H435 H 0.33869 0.29629 0.73697 0.0
C436 C 0.27929 0.25848 0.8087 0.0
N437 N 0.22445 0.28081 0.77333 0.0
C438 C 0.20993 0.29516 0.76094 0.0
C439 C 0.20987 0.26864 0.78856 0.0
N440 N 0.18687 0.29203 0.76742 0.0
C441 C 0.18676 0.27549 0.78495 0.0
C442 C 0.26801 0.22951 0.75137 0.0
O443 O 0.29755 0.25963 0.79461 0.0
O444 O 0.25929 0.26483 0.80075 0.0
O445 O 0.25052 0.24309 0.75792 0.0
O446 O 0.28892 0.23803 0.7516 0.0
O447 O 0.25476 0.28649 0.73469 0.0
H448 H 0.21546 0.25463 0.80055 0.0
H449 H 0.21593 0.30638 0.74621 0.0
O450 O 0.29305 0.28069 0.72974 0.0
O451 O 0.30135 0.30263 0.7719 0.0
O452 O 0.26286 0.30783 0.77842 0.0
C453 C 0.28389 0.3161 0.77873 0.0
H454 H 0.38146 0.27672 0.73949 0.0
H455 H 0.17105 0.26792 0.79365 0.0
Co456 Co 0.00329 0.99367 0.53249 0.0
C457 C 0.99348 0.01167 0.57849 0.0
Co458 Co 0.02517 0.02537 0.54223 0.0
C459 C 0.99337 0.94723 0.51065 0.0
C460 C 0.96245 0.96275 0.52874 0.0
N461 N 0.98576 0.96671 0.52405 0.0
N462 N 0.97574 0.93126 0.50661 0.0
C463 C 0.95622 0.94096 0.51801 0.0
H464 H 0.01141 0.94521 0.50341 0.0
H465 H 0.95068 0.97509 0.53898 0.0
C466 C 0.03478 0.00851 0.49614 0.0
N467 N 0.04226 0.05281 0.55063 0.0
C468 C 0.0325 0.07458 0.55706 0.0
C469 C 0.06597 0.05633 0.55123 0.0
N470 N 0.04898 0.0916 0.56131 0.0
C471 C 0.07017 0.08028 0.55799 0.0
C472 C 0.04654 0.98193 0.55228 0.0
O473 O 0.01857 0.99328 0.50133 0.0
O474 O 0.04058 0.02435 0.51179 0.0
O475 O 0.04891 0.00491 0.55395 0.0
O476 O 0.02775 0.9731 0.54362 0.0
O477 O 0.00976 0.02648 0.57263 0.0
H478 H 0.07932 0.04252 0.54672 0.0
H479 H 0.01354 0.07802 0.55871 0.0
O480 O 0.98791 0.99482 0.56369 0.0
O481 O 0.97917 0.014 0.52138 0.0
O482 O 0.00098 0.04555 0.53029 0.0
C483 C 0.98186 0.0369 0.52237 0.0
H484 H 0.9387 0.93292 0.51859 0.0
H485 H 0.08733 0.08884 0.55967 0.0
Co486 Co 0.27117 0.79971 0.7619 0.0
C487 C 0.2289 0.78113 0.78072 0.0
Co488 Co 0.27056 0.7596 0.76073 0.0
C489 C 0.29028 0.84756 0.76786 0.0
C490 C 0.25476 0.84869 0.75531 0.0
N491 N 0.27188 0.83324 0.7621 0.0
N492 N 0.28544 0.87136 0.76478 0.0
C493 C 0.26307 0.87217 0.7569 0.0
H494 H 0.30715 0.84055 0.77358 0.0
H495 H 0.23748 0.84318 0.7493 0.0
C496 C 0.31317 0.77828 0.74247 0.0
N497 N 0.26993 0.72606 0.75965 0.0
C498 C 0.25936 0.71073 0.77524 0.0
C499 C 0.27839 0.71172 0.74126 0.0
N500 N 0.26065 0.6873 0.76718 0.0
C501 C 0.27272 0.68797 0.74579 0.0
C502 C 0.25354 0.78 0.72007 0.0
O503 O 0.30276 0.79854 0.74741 0.0
O504 O 0.30213 0.75869 0.74688 0.0
O505 O 0.25793 0.7598 0.72961 0.0
O506 O 0.25821 0.79972 0.73122 0.0
O507 O 0.23883 0.76078 0.77498 0.0
H508 H 0.28729 0.71825 0.72512 0.0
H509 H 0.25047 0.71683 0.79188 0.0
O510 O 0.24004 0.80069 0.77631 0.0
O511 O 0.28377 0.7996 0.79282 0.0
O512 O 0.28324 0.75951 0.79171 0.0
C513 C 0.28765 0.77944 0.80273 0.0
H514 H 0.25337 0.88855 0.7527 0.0
H515 H 0.27632 0.67261 0.73364 0.0
Co516 Co 0.53465 0.02719 0.02181 0.0
C517 C 0.57965 0.01443 0.03517 0.0
Co518 Co 0.54085 0.03852 0.05923 0.0
C519 C 0.51744 0.03181 0.97451 0.0
C520 C 0.53195 0.9962 0.97969 0.0
N521 N 0.52851 0.01822 0.99063 0.0
N522 N 0.5135 0.01908 0.95408 0.0
C523 C 0.52254 0.99663 0.95719 0.0
H524 H 0.51132 0.05033 0.97815 0.0
H525 H 0.54004 0.98064 0.98787 0.0
C526 C 0.49565 0.05139 0.04506 0.0
N527 N 0.54735 0.0471 0.09054 0.0
C528 C 0.55861 0.03293 0.10608 0.0
C529 C 0.54512 0.0691 0.10176 0.0
N530 N 0.56391 0.04525 0.12638 0.0
C531 C 0.5555 0.06806 0.12381 0.0
C532 C 0.55345 0.07343 0.02661 0.0
O533 O 0.50327 0.04061 0.0258 0.0
O534 O 0.50929 0.05284 0.06286 0.0
O535 O 0.55268 0.06875 0.04883 0.0
O536 O 0.54626 0.05765 0.01151 0.0
O537 O 0.57242 0.0243 0.05508 0.0
H538 H 0.53745 0.0851 0.09397 0.0
H539 H 0.56413 0.01431 0.10197 0.0
O540 O 0.56568 0.01387 0.01775 0.0
O541 O 0.52332 0.99686 0.03223 0.0
O542 O 0.52896 0.00808 0.06961 0.0
C543 C 0.52246 0.99205 0.05442 0.0
H544 H 0.522 0.98157 0.94431 0.0
H545 H 0.55727 0.083 0.13666 0.0
Co546 Co 0.27562 0.26313 0.27782 0.0
C547 C 0.32295 0.27941 0.28014 0.0
Co548 Co 0.28184 0.29911 0.26265 0.0
C549 C 0.25844 0.21382 0.2854 0.0
C550 C 0.28267 0.2264 0.31173 0.0
N551 N 0.27181 0.23313 0.29166 0.0
N552 N 0.26078 0.19529 0.30075 0.0
C553 C 0.27599 0.20322 0.31732 0.0
H554 H 0.24732 0.21336 0.2699 0.0
H555 H 0.29452 0.23779 0.3219 0.0
C556 C 0.23447 0.2835 0.26044 0.0
N557 N 0.28619 0.32935 0.24993 0.0
C558 C 0.29836 0.34741 0.26048 0.0
C559 C 0.27741 0.33911 0.23004 0.0
N560 N 0.29737 0.36827 0.2483 0.0
C561 C 0.28431 0.36314 0.22896 0.0
C562 C 0.28631 0.26091 0.22823 0.0
O563 O 0.24217 0.26487 0.27113 0.0
O564 O 0.24883 0.30072 0.25583 0.0
O565 O 0.2882 0.28389 0.23139 0.0
O566 O 0.28131 0.24791 0.24642 0.0
O567 O 0.31478 0.29769 0.2695 0.0
H568 H 0.26627 0.32957 0.21753 0.0
H569 H 0.30764 0.34521 0.27701 0.0
O570 O 0.30911 0.26168 0.28437 0.0
O571 O 0.26999 0.27839 0.30919 0.0
O572 O 0.27571 0.31427 0.29409 0.0
C573 C 0.27178 0.30131 0.31244 0.0
H574 H 0.28141 0.19323 0.33278 0.0
H575 H 0.27944 0.37597 0.21546 0.0
Co576 Co 0.49257 0.48443 0.0232 0.0
C577 C 0.48031 0.50353 0.06842 0.0
Co578 Co 0.51286 0.51713 0.03302 0.0
C579 C 0.48428 0.43774 0.00115 0.0
C580 C 0.45275 0.45211 0.01906 0.0
N581 N 0.47597 0.45684 0.01471 0.0
N582 N 0.46716 0.42132 0.99662 0.0
C583 C 0.44727 0.43028 0.00794 0.0
H584 H 0.5024 0.4364 0.99402 0.0
H585 H 0.44051 0.46403 0.02922 0.0
C586 C 0.52474 0.49922 0.98762 0.0
N587 N 0.52924 0.54501 0.04096 0.0
C588 C 0.51927 0.56624 0.04878 0.0
C589 C 0.55261 0.54977 0.03788 0.0
N590 N 0.53529 0.58433 0.05027 0.0
C591 C 0.55641 0.57398 0.04363 0.0
C592 C 0.53503 0.47468 0.04519 0.0
O593 O 0.50852 0.48388 0.9923 0.0
O594 O 0.52966 0.51529 0.00336 0.0
O595 O 0.53622 0.49776 0.0467 0.0
O596 O 0.51737 0.46476 0.03532 0.0
O597 O 0.49591 0.51911 0.0626 0.0
H598 H 0.56584 0.53676 0.03098 0.0
H599 H 0.50041 0.56841 0.05281 0.0
O600 O 0.47655 0.48562 0.05415 0.0
O601 O 0.46809 0.50411 0.01116 0.0
O602 O 0.48924 0.53638 0.01934 0.0
C603 C 0.47045 0.5271 0.01134 0.0
H604 H 0.42997 0.42178 0.0081 0.0
H605 H 0.5732 0.5834 0.04202 0.0
Co606 Co 0.7729 0.30111 0.26934 0.0
C607 C 0.72997 0.28341 0.28715 0.0
Co608 Co 0.77135 0.26106 0.26721 0.0
C609 C 0.79313 0.3487 0.27446 0.0
C610 C 0.75718 0.35028 0.26314 0.0
N611 N 0.77428 0.33463 0.26957 0.0
N612 N 0.78857 0.37253 0.2711 0.0
C613 C 0.76593 0.37361 0.26403 0.0
H614 H 0.81012 0.34149 0.27961 0.0
H615 H 0.73964 0.345 0.25769 0.0
C616 C 0.81451 0.27882 0.24976 0.0
N617 N 0.76994 0.22759 0.26633 0.0
C618 C 0.75849 0.21302 0.28203 0.0
C619 C 0.77895 0.21246 0.24881 0.0
N620 N 0.75973 0.18939 0.27486 0.0
C621 C 0.7727 0.18895 0.254 0.0
C622 C 0.75518 0.28224 0.22691 0.0
O623 O 0.80453 0.29924 0.25495 0.0
O624 O 0.80304 0.25942 0.25385 0.0
O625 O 0.75927 0.26164 0.23582 0.0
O626 O 0.76006 0.30155 0.23864 0.0
O627 O 0.73942 0.26299 0.2809 0.0
H628 H 0.78892 0.21822 0.23297 0.0
H629 H 0.74862 0.21976 0.2979 0.0
O630 O 0.74172 0.30276 0.2836 0.0
O631 O 0.78532 0.30057 0.30034 0.0
O632 O 0.78346 0.26056 0.29846 0.0
C633 C 0.78833 0.28008 0.30996 0.0
H634 H 0.75637 0.39007 0.25979 0.0
H635 H 0.77713 0.17285 0.2431 0.0
Co636 Co 0.03459 0.52625 0.52011 0.0
C637 C 0.07785 0.51295 0.53735 0.0
Co638 Co 0.03674 0.53596 0.55855 0.0
C639 C 0.02131 0.53276 0.47158 0.0
C640 C 0.03701 0.49762 0.47637 0.0
N641 N 0.03163 0.51892 0.48799 0.0
N642 N 0.01966 0.52082 0.4503 0.0
C643 C 0.02947 0.49868 0.45316 0.0
H644 H 0.01391 0.55074 0.47556 0.0
H645 H 0.04501 0.482 0.48456 0.0
C646 C 0.99342 0.54945 0.54084 0.0
N647 N 0.04012 0.5426 0.59092 0.0
C648 C 0.05295 0.52896 0.60564 0.0
C649 C 0.03239 0.56185 0.60465 0.0
N650 N 0.05395 0.539 0.62786 0.0
C651 C 0.04082 0.55961 0.62753 0.0
C652 C 0.05218 0.5725 0.52916 0.0
O653 O 0.00275 0.53962 0.52177 0.0
O654 O 0.0053 0.54991 0.5599 0.0
O655 O 0.04925 0.56684 0.55107 0.0
O656 O 0.04688 0.55726 0.51268 0.0
O657 O 0.06845 0.52209 0.55667 0.0
H658 H 0.02191 0.57683 0.59828 0.0
H659 H 0.06166 0.51199 0.60011 0.0
O660 O 0.06594 0.51302 0.51842 0.0
O661 O 0.02252 0.4954 0.52766 0.0
O662 O 0.02392 0.50494 0.56605 0.0
C663 C 0.01908 0.4897 0.54943 0.0
H664 H 0.0305 0.48414 0.43965 0.0
H665 H 0.03828 0.57252 0.64243 0.0
Co666 Co 0.79351 0.77422 0.26271 0.0
C667 C 0.77105 0.78783 0.22054 0.0
Co668 Co 0.75463 0.77745 0.26712 0.0
C669 C 0.84107 0.75612 0.26874 0.0
C670 C 0.83956 0.78274 0.24131 0.0
N671 N 0.82584 0.77048 0.25724 0.0
N672 N 0.86378 0.75913 0.2608 0.0
C673 C 0.86283 0.77574 0.24337 0.0
H674 H 0.83571 0.74456 0.28343 0.0
H675 H 0.83323 0.7965 0.22942 0.0
C676 C 0.77763 0.76365 0.30941 0.0
N677 N 0.7224 0.78197 0.27248 0.0
C678 C 0.70486 0.77866 0.25688 0.0
C679 C 0.71156 0.79143 0.29264 0.0
N680 N 0.6835 0.78585 0.26644 0.0
C681 C 0.68764 0.79378 0.28901 0.0
C682 C 0.76847 0.73145 0.25358 0.0
O683 O 0.7962 0.76538 0.29584 0.0
O684 O 0.75758 0.76851 0.30061 0.0
O685 O 0.75004 0.7442 0.25898 0.0
O686 O 0.78889 0.74121 0.254 0.0
O687 O 0.752 0.78636 0.2335 0.0
H688 H 0.72059 0.79709 0.30866 0.0
H689 H 0.70781 0.7715 0.23872 0.0
O690 O 0.79062 0.78289 0.23001 0.0
O691 O 0.79811 0.80737 0.27123 0.0
O692 O 0.75929 0.81059 0.27505 0.0
C693 C 0.77966 0.82037 0.27541 0.0
H694 H 0.8779 0.78288 0.23324 0.0
H695 H 0.67454 0.80174 0.30163 0.0
Co696 Co 0.77554 0.28801 0.79621 0.0
C697 C 0.75442 0.24524 0.78101 0.0
Co698 Co 0.76126 0.28985 0.76001 0.0
C699 C 0.7828 0.30441 0.84417 0.0
C700 C 0.79761 0.26871 0.83788 0.0
N701 N 0.78611 0.28685 0.82707 0.0
N702 N 0.79159 0.29803 0.86539 0.0
C703 C 0.80103 0.27555 0.86149 0.0
H704 H 0.77407 0.3216 0.84096 0.0
H705 H 0.80281 0.25152 0.82925 0.0
C706 C 0.78226 0.33267 0.77517 0.0
N707 N 0.75082 0.29104 0.72906 0.0
C708 C 0.75583 0.27428 0.71154 0.0
C709 C 0.74002 0.30951 0.71801 0.0
N710 N 0.74912 0.28165 0.68988 0.0
C711 C 0.73914 0.30385 0.69377 0.0
C712 C 0.72831 0.30357 0.79495 0.0
O713 O 0.78627 0.32062 0.79384 0.0
O714 O 0.77139 0.32249 0.75809 0.0
O715 O 0.73127 0.3006 0.77232 0.0
O716 O 0.7455 0.29929 0.80845 0.0
O717 O 0.75109 0.25703 0.76204 0.0
H718 H 0.73438 0.3265 0.72677 0.0
H719 H 0.76586 0.25772 0.71434 0.0
O720 O 0.76478 0.25559 0.79837 0.0
O721 O 0.80538 0.2765 0.784 0.0
O722 O 0.79142 0.27904 0.74787 0.0
C723 C 0.80834 0.2738 0.76137 0.0
H724 H 0.80929 0.26455 0.87483 0.0
H725 H 0.73258 0.3155 0.67998 0.0
Co726 Co 0.77649 0.76283 0.77736 0.0
C727 C 0.82332 0.77965 0.77962 0.0
Co728 Co 0.78159 0.79908 0.76229 0.0
C729 C 0.75524 0.71609 0.78849 0.0
C730 C 0.78574 0.72401 0.8091 0.0
N731 N 0.77249 0.73278 0.79146 0.0
N732 N 0.75716 0.69734 0.8037 0.0
C733 C 0.77654 0.70227 0.81649 0.0
H734 H 0.74106 0.71816 0.77605 0.0
H735 H 0.80077 0.73314 0.81675 0.0
C736 C 0.73469 0.78288 0.76016 0.0
N737 N 0.78598 0.82902 0.7489 0.0
C738 C 0.7981 0.8476 0.75863 0.0
C739 C 0.77909 0.837 0.72748 0.0
N740 N 0.79926 0.86696 0.74416 0.0
C741 C 0.78722 0.8604 0.72451 0.0
C742 C 0.78668 0.7606 0.72786 0.0
O743 O 0.743 0.76467 0.77103 0.0
O744 O 0.74857 0.80039 0.75514 0.0
O745 O 0.78811 0.78357 0.73132 0.0
O746 O 0.78204 0.74734 0.74595 0.0
O747 O 0.81465 0.79801 0.76945 0.0
H748 H 0.76906 0.8264 0.71477 0.0
H749 H 0.8058 0.84687 0.77615 0.0
O750 O 0.80993 0.76151 0.7835 0.0
O751 O 0.77115 0.77828 0.80866 0.0
O752 O 0.77518 0.81446 0.79352 0.0
C753 C 0.77204 0.8013 0.8119 0.0
H754 H 0.78358 0.69117 0.83044 0.0
H755 H 0.78477 0.87147 0.70893 0.0
Co756 Co 0.52986 0.54509 0.50145 0.0
C757 C 0.52659 0.57642 0.54185 0.0
Co758 Co 0.53874 0.52701 0.53472 0.0
C759 C 0.50951 0.55434 0.45583 0.0
C760 C 0.53383 0.58209 0.46643 0.0
N761 N 0.524 0.56097 0.47354 0.0
N762 N 0.51 0.57046 0.43789 0.0
C763 C 0.52531 0.58794 0.44444 0.0
H764 H 0.49895 0.53792 0.45602 0.0
H765 H 0.5463 0.59266 0.47666 0.0
C766 C 0.54116 0.49572 0.49423 0.0
N767 N 0.54525 0.51144 0.56271 0.0
C768 C 0.55969 0.51931 0.58002 0.0
C769 C 0.53749 0.48952 0.56996 0.0
N770 N 0.5614 0.50317 0.59782 0.0
C771 C 0.54739 0.48438 0.59156 0.0
C772 C 0.49061 0.52276 0.52247 0.0
O773 O 0.53534 0.51506 0.4836 0.0
O774 O 0.54496 0.4971 0.51665 0.0
O775 O 0.50584 0.51745 0.53799 0.0
O776 O 0.49694 0.53632 0.50517 0.0
O777 O 0.53246 0.55726 0.55281 0.0
H778 H 0.52556 0.47797 0.56007 0.0
H779 H 0.56918 0.53637 0.57922 0.0
O780 O 0.52393 0.57491 0.51927 0.0
O781 O 0.56293 0.5537 0.49767 0.0
O782 O 0.57152 0.53628 0.53118 0.0
C783 C 0.57816 0.54872 0.51321 0.0
H784 H 0.52957 0.60407 0.43435 0.0
H785 H 0.54433 0.46815 0.60189 0.0
Co786 Co 0.00776 0.53494 0.02584 0.0
C787 C 0.02237 0.5824 0.01748 0.0
Co788 Co 0.04118 0.54366 0.04342 0.0
C789 C 0.9606 0.51634 0.02215 0.0
C790 C 0.97215 0.53451 0.9902 0.0
N791 N 0.97942 0.52763 0.01192 0.0
N792 N 0.94176 0.51619 0.00784 0.0
C793 C 0.94888 0.52762 0.98771 0.0
H794 H 0.96035 0.5094 0.04023 0.0
H795 H 0.98286 0.54457 0.97735 0.0
C796 C 0.02691 0.49598 0.05143 0.0
N797 N 0.0699 0.55208 0.0565 0.0
C798 C 0.08887 0.55962 0.04329 0.0
C799 C 0.0759 0.55583 0.0796 0.0
N800 N 0.10635 0.56796 0.05699 0.0
C801 C 0.09836 0.56591 0.07993 0.0
C802 C 0.00168 0.55406 0.07236 0.0
O803 O 0.01006 0.50239 0.0381 0.0
O804 O 0.04269 0.51162 0.05669 0.0
O805 O 0.02423 0.55547 0.07146 0.0
O806 O 0.9911 0.54538 0.05434 0.0
O807 O 0.03974 0.57574 0.02985 0.0
H808 H 0.06433 0.55255 0.09512 0.0
H809 H 0.08937 0.56058 0.02386 0.0
O810 O 0.0058 0.56729 0.01384 0.0
O811 O 0.02426 0.5246 0.99735 0.0
O812 O 0.05757 0.53154 0.01537 0.0
C813 C 0.04678 0.52436 0.99693 0.0
H814 H 0.93795 0.53103 0.97249 0.0
H815 H 0.10779 0.5718 0.09565 0.0
H816 H 0.98772 0.22269 0.0816 0.0
H817 H 0.04435 0.20819 0.12983 0.0
H818 H 0.99166 0.18177 0.06467 0.0
H819 H 0.04874 0.16688 0.11224 0.0
H820 H 0.03248 0.0859 0.0905 0.0
H821 H 0.02976 0.12694 0.109 0.0
H822 H 0.01659 0.15678 0.03949 0.0
H823 H 0.0187 0.11618 0.02135 0.0
C824 C 0.00128 0.21089 0.08848 0.0
C825 C 0.01577 0.21907 0.10714 0.0
C826 C 0.00362 0.18725 0.0786 0.0
C827 C 0.0206 0.17075 0.08689 0.0
C828 C 0.03528 0.17888 0.10548 0.0
C829 C 0.03294 0.20272 0.11542 0.0
C830 C 0.0288 0.10123 0.07924 0.0
C831 C 0.02556 0.09752 0.05442 0.0
C832 C 0.02747 0.12485 0.08982 0.0
C833 C 0.02282 0.14542 0.07587 0.0
C834 C 0.01974 0.14156 0.05105 0.0
C835 C 0.02104 0.1181 0.04055 0.0
H836 H 0.11235 0.77159 0.38753 0.0
H837 H 0.06951 0.81279 0.33954 0.0
H838 H 0.14808 0.78368 0.36517 0.0
H839 H 0.10543 0.82492 0.31714 0.0
H840 H 0.16832 0.79201 0.26537 0.0
H841 H 0.1321 0.79803 0.29046 0.0
H842 H 0.17447 0.81692 0.35135 0.0
H843 H 0.21053 0.81064 0.32648 0.0
C844 C 0.11062 0.78377 0.37262 0.0
C845 C 0.08814 0.79085 0.36502 0.0
C846 C 0.1311 0.79083 0.35987 0.0
C847 C 0.12945 0.80502 0.33924 0.0
C848 C 0.10712 0.81374 0.33281 0.0
C849 C 0.08661 0.80686 0.34572 0.0
C850 C 0.16981 0.79811 0.28392 0.0
C851 C 0.19214 0.80025 0.29416 0.0
C852 C 0.14912 0.80168 0.29827 0.0
C853 C 0.15057 0.80756 0.32295 0.0
C854 C 0.17289 0.81199 0.3325 0.0
C855 C 0.19349 0.80834 0.31824 0.0
H856 H 0.55064 0.86554 0.63211 0.0
H857 H 0.51184 0.84454 0.56952 0.0
H858 H 0.55357 0.90715 0.61749 0.0
H859 H 0.51552 0.88562 0.55439 0.0
H860 H 0.49568 0.96557 0.55001 0.0
H861 H 0.4979 0.92361 0.56274 0.0
H862 H 0.5677 0.93675 0.59011 0.0
H863 H 0.56502 0.97925 0.57801 0.0
C864 C 0.54347 0.86956 0.6148 0.0
C865 C 0.53093 0.85163 0.60206 0.0
C866 C 0.54504 0.89355 0.60641 0.0
C867 C 0.53428 0.90019 0.58493 0.0
C868 C 0.52335 0.88165 0.57138 0.0
C869 C 0.52154 0.85787 0.57989 0.0
C870 C 0.51154 0.95959 0.55873 0.0
C871 C 0.53016 0.97594 0.56292 0.0
C872 C 0.51295 0.93529 0.56589 0.0
C873 C 0.53314 0.92635 0.57728 0.0
C874 C 0.55176 0.9428 0.58159 0.0
C875 C 0.55027 0.96724 0.57455 0.0
H876 H 0.50093 0.20367 0.80383 0.0
H877 H 0.45346 0.21428 0.86587 0.0
H878 H 0.46702 0.20095 0.77786 0.0
H879 H 0.41953 0.21314 0.84001 0.0
H880 H 0.36047 0.21296 0.79279 0.0
H881 H 0.39351 0.19505 0.81278 0.0
H882 H 0.44252 0.23172 0.76438 0.0
H883 H 0.40963 0.24814 0.74324 0.0
C884 C 0.48313 0.20512 0.81187 0.0
C885 C 0.47962 0.20948 0.83667 0.0
C886 C 0.46374 0.20366 0.79704 0.0
C887 C 0.44055 0.20734 0.80672 0.0
C888 C 0.43708 0.20994 0.83188 0.0
C889 C 0.4565 0.21078 0.84677 0.0
C890 C 0.37819 0.21676 0.78583 0.0
C891 C 0.38223 0.23299 0.76686 0.0
C892 C 0.39722 0.20653 0.79753 0.0
C893 C 0.42069 0.21249 0.79072 0.0
C894 C 0.42472 0.22668 0.77026 0.0
C895 C 0.40571 0.23658 0.75833 0.0
H896 H 0.02221 0.81313 0.41052 0.0
H897 H 0.95524 0.78862 0.44161 0.0
H898 H 0.01674 0.85228 0.43149 0.0
H899 H 0.95006 0.82771 0.46291 0.0
H900 H 0.01491 0.90299 0.49815 0.0
H901 H 0.01806 0.86582 0.47357 0.0
H902 H 0.94355 0.87161 0.45807 0.0
H903 H 0.9404 0.90896 0.48269 0.0
C904 C 0.00623 0.81612 0.42166 0.0
C905 C 0.98926 0.79761 0.42454 0.0
C906 C 0.00318 0.83852 0.4338 0.0
C907 C 0.98313 0.84296 0.4491 0.0
C908 C 0.96564 0.82489 0.45115 0.0
C909 C 0.96867 0.80244 0.43899 0.0
C910 C 0.99924 0.89652 0.48932 0.0
C911 C 0.97742 0.90901 0.49236 0.0
C912 C 0.00106 0.87522 0.47518 0.0
C913 C 0.98109 0.86587 0.46374 0.0
C914 C 0.95921 0.87825 0.46684 0.0
C915 C 0.95739 0.89961 0.481 0.0
H916 H 0.44321 0.80014 0.65648 0.0
H917 H 0.46538 0.75256 0.71244 0.0
H918 H 0.40241 0.79872 0.67232 0.0
H919 H 0.42423 0.75122 0.72842 0.0
H920 H 0.34249 0.73839 0.73559 0.0
H921 H 0.38321 0.73704 0.71866 0.0
H922 H 0.38068 0.81483 0.70891 0.0
H923 H 0.34004 0.81624 0.72582 0.0
C924 C 0.43937 0.78909 0.672 0.0
C925 C 0.45768 0.77643 0.68315 0.0
C926 C 0.41593 0.78848 0.68123 0.0
C927 C 0.41004 0.77508 0.7018 0.0
C928 C 0.42814 0.76166 0.71249 0.0
C929 C 0.45173 0.76243 0.70334 0.0
C930 C 0.3506 0.75522 0.72981 0.0
C931 C 0.33791 0.77744 0.73202 0.0
C932 C 0.37401 0.75444 0.72023 0.0
C933 C 0.38522 0.77579 0.71234 0.0
C934 C 0.3725 0.79798 0.71452 0.0
C935 C 0.34921 0.79881 0.72433 0.0
H936 H 0.50687 0.19805 0.9761 0.0
H937 H 0.57508 0.1973 0.93779 0.0
H938 H 0.52262 0.17086 0.00565 0.0
H939 H 0.59075 0.16982 0.96736 0.0
H940 H 0.57073 0.08549 0.98234 0.0
H941 H 0.57344 0.12627 0.96632 0.0
H942 H 0.55339 0.15722 0.0363 0.0
H943 H 0.55109 0.11618 0.05255 0.0
C944 C 0.52548 0.19282 0.97452 0.0
C945 C 0.53954 0.19914 0.9543 0.0
C946 C 0.53459 0.17743 0.99159 0.0
C947 C 0.55777 0.16794 0.98846 0.0
C948 C 0.57276 0.17679 0.96999 0.0
C949 C 0.56374 0.19249 0.95308 0.0
C950 C 0.56767 0.10102 0.99447 0.0
C951 C 0.56029 0.09777 0.01851 0.0
C952 C 0.56949 0.12439 0.98539 0.0
C953 C 0.56354 0.14486 0.00011 0.0
C954 C 0.55812 0.1417 0.02467 0.0
C955 C 0.55674 0.11826 0.03389 0.0
H956 H 0.10387 0.25761 0.18177 0.0
H957 H 0.09244 0.32695 0.21884 0.0
H958 H 0.14283 0.254 0.20006 0.0
H959 H 0.13087 0.32327 0.23702 0.0
H960 H 0.2117 0.3229 0.24255 0.0
H961 H 0.17277 0.32473 0.22498 0.0
H962 H 0.16202 0.24863 0.23975 0.0
H963 H 0.20137 0.24672 0.25736 0.0
C964 C 0.10962 0.27208 0.19374 0.0
C965 C 0.09495 0.29262 0.19868 0.0
C966 C 0.13189 0.26993 0.20439 0.0
C967 C 0.14012 0.28838 0.22002 0.0
C968 C 0.12537 0.30883 0.22488 0.0
C969 C 0.10318 0.31089 0.21446 0.0
C970 C 0.20102 0.30655 0.2423 0.0
C971 C 0.20972 0.2847 0.25159 0.0
C972 C 0.17859 0.30762 0.23222 0.0
C973 C 0.16411 0.28684 0.2309 0.0
C974 C 0.17273 0.26495 0.24025 0.0
C975 C 0.1952 0.26392 0.25059 0.0
H976 H 0.14516 0.97188 0.22325 0.0
H977 H 0.12258 0.04707 0.23308 0.0
H978 H 0.12676 0.97021 0.18424 0.0
H979 H 0.10429 0.0453 0.19384 0.0
H980 H 0.09192 0.03483 0.11206 0.0
H981 H 0.11458 0.0382 0.1483 0.0
H982 H 0.08239 0.97239 0.17456 0.0
H983 H 0.05908 0.96912 0.13886 0.0
C984 C 0.13663 0.98818 0.21693 0.0
C985 C 0.13508 0.00955 0.23137 0.0
C986 C 0.126 0.98714 0.19467 0.0
C987 C 0.1139 0.00752 0.18626 0.0
C988 C 0.11355 0.02934 0.19997 0.0
C989 C 0.12396 0.03032 0.22242 0.0
C990 C 0.08933 0.0211 0.12549 0.0
C991 C 0.07343 0.00163 0.12219 0.0
C992 C 0.10249 0.02307 0.14627 0.0
C993 C 0.10034 0.00546 0.16405 0.0
C994 C 0.08464 0.986 0.16087 0.0
C995 C 0.07125 0.98418 0.1403 0.0
H996 H 0.25273 0.87756 0.47056 0.0
H997 H 0.31784 0.83953 0.48613 0.0
H998 H 0.25105 0.85468 0.4324 0.0
H999 H 0.31602 0.81685 0.44817 0.0
H1000 H 0.28681 0.76131 0.39326 0.0
H1001 H 0.28859 0.78482 0.43087 0.0
H1002 H 0.2757 0.8511 0.3929 0.0
H1003 H 0.27459 0.82791 0.35523 0.0
C1004 C 0.26669 0.86444 0.46584 0.0
C1005 C 0.2854 0.86038 0.48139 0.0
C1006 C 0.26576 0.85143 0.444 0.0
C1007 C 0.28334 0.83395 0.4375 0.0
C1008 C 0.3021 0.83003 0.45292 0.0
C1009 C 0.3032 0.84318 0.47457 0.0
C1010 C 0.28462 0.78089 0.39282 0.0
C1011 C 0.28047 0.79261 0.37113 0.0
C1012 C 0.28555 0.79433 0.41438 0.0
C1013 C 0.28218 0.81972 0.41472 0.0
C1014 C 0.27801 0.83148 0.39315 0.0
C1015 C 0.27731 0.81811 0.37156 0.0
H1016 H 0.40461 0.05356 0.69993 0.0
H1017 H 0.44073 0.12212 0.71013 0.0
H1018 H 0.42547 0.04762 0.66103 0.0
H1019 H 0.46134 0.11626 0.67113 0.0
H1020 H 0.51679 0.07821 0.61906 0.0
H1021 H 0.49288 0.0878 0.65553 0.0
H1022 H 0.42969 0.06408 0.62006 0.0
H1023 H 0.45356 0.05421 0.58367 0.0
C1024 C 0.41672 0.06753 0.69372 0.0
C1025 C 0.42118 0.0882 0.7082 0.0
C1026 C 0.4286 0.06417 0.6714 0.0
C1027 C 0.44519 0.08138 0.66317 0.0
C1028 C 0.44893 0.10251 0.67721 0.0
C1029 C 0.437 0.10592 0.69948 0.0
C1030 C 0.49778 0.07517 0.619 0.0
C1031 C 0.48709 0.06539 0.59852 0.0
C1032 C 0.48407 0.0808 0.63983 0.0
C1033 C 0.45942 0.07669 0.64061 0.0
C1034 C 0.44868 0.06723 0.62003 0.0
C1035 C 0.46236 0.06168 0.59918 0.0
H1036 H 0.26235 0.18486 0.94771 0.0
H1037 H 0.32614 0.22759 0.95344 0.0
H1038 H 0.25635 0.2013 0.90777 0.0
H1039 H 0.32002 0.24407 0.91393 0.0
H1040 H 0.31966 0.24531 0.83172 0.0
H1041 H 0.32317 0.23069 0.87251 0.0
H1042 H 0.24706 0.2369 0.88408 0.0
H1043 H 0.24353 0.25133 0.84301 0.0
C1044 C 0.27489 0.19805 0.94073 0.0
C1045 C 0.29481 0.2047 0.95402 0.0
C1046 C 0.27145 0.20752 0.91771 0.0
C1047 C 0.28787 0.22384 0.90723 0.0
C1048 C 0.30724 0.23116 0.92097 0.0
C1049 C 0.31063 0.22181 0.9439 0.0
C1050 C 0.30363 0.24364 0.84292 0.0
C1051 C 0.28131 0.24966 0.83391 0.0
C1052 C 0.30565 0.23535 0.86649 0.0
C1053 C 0.28543 0.23268 0.88192 0.0
C1054 C 0.26306 0.23851 0.87283 0.0
C1055 C 0.26104 0.24694 0.84924 0.0
H1056 H 0.14372 0.98625 0.38663 0.0
H1057 H 0.08263 0.00349 0.34496 0.0
H1058 H 0.11979 0.99221 0.42357 0.0
H1059 H 0.05852 0.00896 0.38223 0.0
H1060 H 0.07546 0.03202 0.48314 0.0
H1061 H 0.09766 0.02893 0.44476 0.0
H1062 H 0.04505 0.97975 0.4172 0.0
H1063 H 0.02274 0.98259 0.4558 0.0
C1064 C 0.12529 0.99151 0.3853 0.0
C1065 C 0.11516 0.99464 0.36285 0.0
C1066 C 0.11159 0.9949 0.40649 0.0
C1067 C 0.08741 0.00109 0.40563 0.0
C1068 C 0.07715 0.0041 0.38326 0.0
C1069 C 0.09097 0.00109 0.36201 0.0
C1070 C 0.0685 0.02066 0.46888 0.0
C1071 C 0.04741 0.00745 0.47248 0.0
C1072 C 0.08126 0.01885 0.44698 0.0
C1073 C 0.07303 0.00407 0.42818 0.0
C1074 C 0.05162 0.99138 0.43146 0.0
C1075 C 0.03898 0.99291 0.45353 0.0
H1076 H 0.29542 0.81591 0.59039 0.0
H1077 H 0.22306 0.84231 0.58633 0.0
H1078 H 0.28281 0.78802 0.62143 0.0
H1079 H 0.21045 0.81405 0.61731 0.0
H1080 H 0.22667 0.81537 0.70143 0.0
H1081 H 0.22261 0.82326 0.65906 0.0
H1082 H 0.25844 0.75509 0.64041 0.0
H1083 H 0.26234 0.74712 0.68326 0.0
C1084 C 0.27669 0.81523 0.59556 0.0
C1085 C 0.26043 0.832 0.58664 0.0
C1086 C 0.26938 0.79895 0.61314 0.0
C1087 C 0.2457 0.79924 0.62211 0.0
C1088 C 0.22887 0.81374 0.61092 0.0
C1089 C 0.23617 0.83002 0.59329 0.0
C1090 C 0.2329 0.80167 0.68828 0.0
C1091 C 0.24531 0.78099 0.69541 0.0
C1092 C 0.23034 0.80601 0.66398 0.0
C1093 C 0.24052 0.78991 0.64642 0.0
C1094 C 0.25059 0.76784 0.65363 0.0
C1095 C 0.25282 0.76331 0.67808 0.0
H1096 H 0.40077 0.05516 0.85991 0.0
H1097 H 0.46507 0.07761 0.82212 0.0
H1098 H 0.42425 0.0424 0.89371 0.0
H1099 H 0.48843 0.06516 0.85604 0.0
H1100 H 0.51468 0.06371 0.93502 0.0
H1101 H 0.49066 0.07835 0.90229 0.0
H1102 H 0.45775 0.00772 0.8964 0.0
H1103 H 0.48196 0.99304 0.92894 0.0
C1104 C 0.41981 0.05774 0.859 0.0
C1105 C 0.43114 0.06743 0.83851 0.0
C1106 C 0.43322 0.05026 0.8782 0.0
C1107 C 0.45804 0.05283 0.87731 0.0
C1108 C 0.46928 0.06314 0.85711 0.0
C1109 C 0.45595 0.07016 0.83775 0.0
C1110 C 0.50233 0.05138 0.92664 0.0
C1111 C 0.50016 0.02728 0.93429 0.0
C1112 C 0.48869 0.05969 0.90799 0.0
C1113 C 0.47236 0.04413 0.89707 0.0
C1114 C 0.47012 0.02005 0.90476 0.0
C1115 C 0.48409 0.01161 0.9231 0.0
H1116 H 0.28512 0.16592 0.09753 0.0
H1117 H 0.30585 0.23638 0.07189 0.0
H1118 H 0.28172 0.18244 0.13852 0.0
H1119 H 0.30055 0.25371 0.11232 0.0
H1120 H 0.31241 0.27689 0.18921 0.0
H1121 H 0.31505 0.25956 0.14862 0.0
H1122 H 0.26531 0.20348 0.16983 0.0
H1123 H 0.2645 0.21991 0.21086 0.0
C1124 C 0.28821 0.18519 0.10058 0.0
C1125 C 0.2957 0.1998 0.08135 0.0
C1126 C 0.28625 0.19485 0.12428 0.0
C1127 C 0.29112 0.21966 0.12949 0.0
C1128 C 0.29741 0.23442 0.10979 0.0
C1129 C 0.30007 0.22457 0.08628 0.0
C1130 C 0.30224 0.2607 0.18519 0.0
C1131 C 0.28841 0.24974 0.20342 0.0
C1132 C 0.30344 0.2508 0.16162 0.0
C1133 C 0.29019 0.22996 0.15514 0.0
C1134 C 0.27624 0.21913 0.17361 0.0
C1135 C 0.27563 0.22866 0.19736 0.0
H1136 H 0.21387 0.10322 0.06637 0.0
H1137 H 0.21772 0.11768 0.9904 0.0
H1138 H 0.17518 0.08453 0.06194 0.0
H1139 H 0.17938 0.09793 0.98562 0.0
H1140 H 0.09962 0.08001 0.98855 0.0
H1141 H 0.13822 0.09949 0.99189 0.0
H1142 H 0.15568 0.05019 0.04829 0.0
H1143 H 0.11669 0.0316 0.04562 0.0
C1144 C 0.20649 0.10234 0.04864 0.0
C1145 C 0.21903 0.11203 0.02877 0.0
C1146 C 0.18427 0.09132 0.04601 0.0
C1147 C 0.17392 0.08927 0.02333 0.0
C1148 C 0.1864 0.09928 0.00347 0.0
C1149 C 0.20854 0.1106 0.00617 0.0
C1150 C 0.1118 0.07318 0.00152 0.0
C1151 C 0.10494 0.05418 0.01681 0.0
C1152 C 0.13409 0.08436 0.00342 0.0
C1153 C 0.15035 0.07673 0.02054 0.0
C1154 C 0.14365 0.05716 0.03528 0.0
C1155 C 0.12128 0.04621 0.03357 0.0
H1156 H 0.6733 0.41663 0.03018 0.0
H1157 H 0.66271 0.41714 0.10759 0.0
H1158 H 0.63098 0.42522 0.02603 0.0
H1159 H 0.62054 0.42585 0.10332 0.0
H1160 H 0.56597 0.48644 0.07976 0.0
H1161 H 0.60325 0.46583 0.08782 0.0
H1162 H 0.58777 0.4097 0.03509 0.0
H1163 H 0.55003 0.43023 0.02723 0.0
C1164 C 0.66189 0.41812 0.04626 0.0
C1165 C 0.6714 0.41661 0.06921 0.0
C1166 C 0.63766 0.42284 0.04387 0.0
C1167 C 0.62262 0.42633 0.06439 0.0
C1168 C 0.63185 0.42338 0.08725 0.0
C1169 C 0.65599 0.41841 0.08964 0.0
C1170 C 0.57026 0.4694 0.07031 0.0
C1171 C 0.55523 0.45994 0.05284 0.0
C1172 C 0.59152 0.45755 0.07499 0.0
C1173 C 0.59834 0.43623 0.06202 0.0
C1174 C 0.58286 0.42615 0.04527 0.0
C1175 C 0.56128 0.43779 0.0409 0.0
H1176 H 0.8749 0.50231 0.25666 0.0
H1177 H 0.86234 0.4918 0.33287 0.0
H1178 H 0.85725 0.46265 0.24812 0.0
H1179 H 0.84456 0.45243 0.32427 0.0
H1180 H 0.82472 0.37587 0.30183 0.0
H1181 H 0.85115 0.41053 0.30748 0.0
H1182 H 0.81513 0.44918 0.25241 0.0
H1183 H 0.78915 0.41439 0.24639 0.0
C1184 C 0.86883 0.49137 0.2716 0.0
C1185 C 0.86975 0.50034 0.29543 0.0
C1186 C 0.85858 0.46875 0.26669 0.0
C1187 C 0.8493 0.45461 0.28552 0.0
C1188 C 0.85167 0.46286 0.30939 0.0
C1189 C 0.86173 0.48551 0.31429 0.0
C1190 C 0.82271 0.39163 0.2907 0.0
C1191 C 0.80474 0.39251 0.27381 0.0
C1192 C 0.83774 0.41149 0.29402 0.0
C1193 C 0.8352 0.43253 0.28038 0.0
C1194 C 0.8177 0.4331 0.26299 0.0
C1195 C 0.80259 0.41333 0.25979 0.0
H1196 H 0.84113 0.58168 0.53664 0.0
H1197 H 0.87522 0.65095 0.52557 0.0
H1198 H 0.88006 0.56247 0.54146 0.0
H1199 H 0.91412 0.63178 0.53121 0.0
H1200 H 0.97479 0.58655 0.56982 0.0
H1201 H 0.93566 0.60643 0.56764 0.0
H1202 H 0.9182 0.55759 0.50915 0.0
H1203 H 0.95751 0.53828 0.51069 0.0
C1204 C 0.85687 0.59292 0.53564 0.0
C1205 C 0.855 0.6179 0.5307 0.0
C1206 C 0.87917 0.58186 0.53828 0.0
C1207 C 0.90013 0.59561 0.53668 0.0
C1208 C 0.89826 0.62075 0.53262 0.0
C1209 C 0.87598 0.63171 0.52934 0.0
C1210 C 0.96256 0.58 0.55655 0.0
C1211 C 0.96927 0.56078 0.54046 0.0
C1212 C 0.94023 0.59147 0.55524 0.0
C1213 C 0.92386 0.58352 0.53826 0.0
C1214 C 0.93039 0.56402 0.5225 0.0
C1215 C 0.95292 0.55301 0.52337 0.0
H1216 H 0.17796 0.06184 0.28484 0.0
H1217 H 0.20366 0.06568 0.35725 0.0
H1218 H 0.19639 0.10118 0.27651 0.0
H1219 H 0.22176 0.10473 0.34887 0.0
H1220 H 0.27809 0.15299 0.31663 0.0
H1221 H 0.25668 0.11504 0.32168 0.0
H1222 H 0.19521 0.14672 0.28964 0.0
H1223 H 0.21678 0.18514 0.28475 0.0
C1224 C 0.18724 0.07116 0.29906 0.0
C1225 C 0.18961 0.06043 0.32162 0.0
C1226 C 0.19772 0.09368 0.29427 0.0
C1227 C 0.21081 0.10571 0.31192 0.0
C1228 C 0.21217 0.09556 0.33477 0.0
C1229 C 0.20169 0.07321 0.33959 0.0
C1230 C 0.26002 0.15191 0.31067 0.0
C1231 C 0.24895 0.17215 0.30071 0.0
C1232 C 0.24777 0.13019 0.31356 0.0
C1233 C 0.22415 0.12816 0.30651 0.0
C1234 C 0.21341 0.14789 0.29528 0.0
C1235 C 0.22574 0.16979 0.29242 0.0
H1236 H 0.33461 0.92717 0.56254 0.0
H1237 H 0.29862 0.96897 0.50961 0.0
H1238 H 0.37111 0.94935 0.55392 0.0
H1239 H 0.33536 0.99136 0.50109 0.0
H1240 H 0.41517 0.00158 0.47559 0.0
H1241 H 0.37708 0.98167 0.48329 0.0
H1242 H 0.38478 0.99268 0.55973 0.0
H1243 H 0.42247 0.01299 0.55217 0.0
C1244 C 0.33452 0.94105 0.549 0.0
C1245 C 0.31381 0.94631 0.53668 0.0
C1246 C 0.35536 0.95386 0.54422 0.0
C1247 C 0.35595 0.97208 0.52693 0.0
C1248 C 0.33533 0.97727 0.51443 0.0
C1249 C 0.31434 0.96458 0.51938 0.0
C1250 C 0.40861 1.00007 0.49401 0.0
C1251 C 0.42203 0.00866 0.51327 0.0
C1252 C 0.38682 0.98866 0.49839 0.0
C1253 C 0.37817 0.98552 0.52208 0.0
C1254 C 0.39129 0.99454 0.54129 0.0
C1255 C 0.41294 0.00606 0.53694 0.0
H1256 H 0.80608 0.61398 0.31806 0.0
H1257 H 0.82481 0.58895 0.24557 0.0
H1258 H 0.77694 0.64177 0.30254 0.0
H1259 H 0.79506 0.61635 0.23003 0.0
H1260 H 0.79748 0.70274 0.22531 0.0
H1261 H 0.80407 0.65951 0.22999 0.0
H1262 H 0.7434 0.65678 0.2798 0.0
H1263 H 0.73685 0.70053 0.27496 0.0
C1264 C 0.80326 0.61365 0.29888 0.0
C1265 C 0.81835 0.60006 0.28295 0.0
C1266 C 0.78633 0.62946 0.28994 0.0
C1267 C 0.78419 0.63176 0.26495 0.0
C1268 C 0.79676 0.61538 0.24933 0.0
C1269 C 0.81385 0.59978 0.25824 0.0
C1270 C 0.78497 0.69269 0.23647 0.0
C1271 C 0.76703 0.70491 0.25017 0.0
C1272 C 0.78858 0.6678 0.23905 0.0
C1273 C 0.7745 0.65476 0.25567 0.0
C1274 C 0.75469 0.66645 0.26711 0.0
C1275 C 0.75089 0.69143 0.26427 0.0
H1276 H 0.73447 0.47729 0.77038 0.0
H1277 H 0.7412 0.45338 0.84328 0.0
H1278 H 0.76602 0.44902 0.75685 0.0
H1279 H 0.77116 0.42417 0.82984 0.0
H1280 H 0.76621 0.36506 0.74313 0.0
H1281 H 0.76108 0.40818 0.75019 0.0
H1282 H 0.80385 0.40427 0.81323 0.0
H1283 H 0.80756 0.3603 0.80686 0.0
C1284 C 0.74305 0.46636 0.78358 0.0
C1285 C 0.73479 0.46685 0.80771 0.0
C1286 C 0.76106 0.45003 0.77584 0.0
C1287 C 0.77045 0.43335 0.79195 0.0
C1288 C 0.76442 0.43641 0.81666 0.0
C1289 C 0.74691 0.45314 0.82446 0.0
C1290 C 0.77509 0.37344 0.75816 0.0
C1291 C 0.7864 0.35917 0.77503 0.0
C1292 C 0.77237 0.39847 0.76214 0.0
C1293 C 0.78123 0.40981 0.78294 0.0
C1294 C 0.79587 0.39602 0.79763 0.0
C1295 C 0.79814 0.37082 0.79391 0.0
H1296 H 0.05126 0.84182 0.93126 0.0
H1297 H 0.97732 0.86258 0.94089 0.0
H1298 H 0.06287 0.88185 0.9478 0.0
H1299 H 0.98897 0.90257 0.95653 0.0
H1300 H 0.0222 0.98021 0.95408 0.0
H1301 H 0.01459 0.93989 0.93648 0.0
H1302 H 0.05371 0.90647 0.99242 0.0
H1303 H 0.06075 0.94691 0.01068 0.0
C1304 C 0.0375 0.8549 0.93677 0.0
C1305 C 0.01333 0.84887 0.93478 0.0
C1306 C 0.04416 0.87777 0.94631 0.0
C1307 C 0.02683 0.89539 0.95339 0.0
C1308 C 0.00274 0.88945 0.95113 0.0
C1309 C 0.99608 0.86645 0.94225 0.0
C1310 C 0.02958 0.96436 0.96247 0.0
C1311 C 0.04221 0.96692 0.9838 0.0
C1312 C 0.02506 0.94122 0.95243 0.0
C1313 C 0.03351 0.91999 0.96306 0.0
C1314 C 0.04707 0.9225 0.98375 0.0
C1315 C 0.05111 0.94568 0.99418 0.0
H1316 H 0.95574 0.27961 0.7332 0.0
H1317 H 0.93064 0.25293 0.66519 0.0
H1318 H 0.9177 0.26991 0.75264 0.0
H1319 H 0.893 0.24152 0.68474 0.0
H1320 H 0.82229 0.27462 0.71423 0.0
H1321 H 0.8616 0.26699 0.69686 0.0
H1322 H 0.88602 0.24598 0.76643 0.0
H1323 H 0.84651 0.25498 0.78414 0.0
C1324 C 0.94233 0.2707 0.72267 0.0
C1325 C 0.94564 0.26756 0.69772 0.0
C1326 C 0.92052 0.26498 0.73379 0.0
C1327 C 0.90195 0.25555 0.72012 0.0
C1328 C 0.90657 0.24963 0.69563 0.0
C1329 C 0.92811 0.25601 0.68442 0.0
C1330 C 0.83595 0.26809 0.7258 0.0
C1331 C 0.83148 0.26588 0.75062 0.0
C1332 C 0.85854 0.26336 0.71576 0.0
C1333 C 0.87716 0.25592 0.73023 0.0
C1334 C 0.87223 0.25212 0.75484 0.0
C1335 C 0.84961 0.25723 0.76499 0.0
H1336 H 0.54656 0.22107 0.44068 0.0
H1337 H 0.47756 0.23181 0.47616 0.0
H1338 H 0.55163 0.18318 0.46247 0.0
H1339 H 0.48269 0.19417 0.49767 0.0
H1340 H 0.48508 0.11037 0.50182 0.0
H1341 H 0.48298 0.15062 0.48436 0.0
H1342 H 0.55539 0.16441 0.5036 0.0
H1343 H 0.55752 0.12392 0.52129 0.0
C1344 C 0.53267 0.21569 0.45342 0.0
C1345 C 0.51155 0.22956 0.45641 0.0
C1346 C 0.53559 0.19392 0.46592 0.0
C1347 C 0.5174 0.1854 0.48155 0.0
C1348 C 0.49687 0.19991 0.48543 0.0
C1349 C 0.49403 0.22167 0.47316 0.0
C1350 C 0.50056 0.12197 0.50248 0.0
C1351 C 0.52144 0.11386 0.51306 0.0
C1352 C 0.49931 0.14515 0.49255 0.0
C1353 C 0.51898 0.16087 0.49266 0.0
C1354 C 0.53995 0.15276 0.50313 0.0
C1355 C 0.54111 0.1296 0.51338 0.0
H1356 H 0.56597 0.77481 0.1703 0.0
H1357 H 0.54138 0.82382 0.22807 0.0
H1358 H 0.60422 0.77091 0.18917 0.0
H1359 H 0.57975 0.82018 0.24668 0.0
H1360 H 0.63933 0.78397 0.28705 0.0
H1361 H 0.60169 0.7882 0.26714 0.0
H1362 H 0.63966 0.79494 0.19874 0.0
H1363 H 0.67731 0.79081 0.21867 0.0
C1364 C 0.56879 0.78491 0.1869 0.0
C1365 C 0.55061 0.79952 0.19778 0.0
C1366 C 0.59073 0.78274 0.19764 0.0
C1367 C 0.59489 0.7951 0.21947 0.0
C1368 C 0.57689 0.81012 0.23006 0.0
C1369 C 0.55498 0.81232 0.21931 0.0
C1370 C 0.63964 0.78646 0.2678 0.0
C1371 C 0.6613 0.78709 0.25446 0.0
C1372 C 0.61811 0.78892 0.2564 0.0
C1373 C 0.61777 0.79205 0.23142 0.0
C1374 C 0.63938 0.7923 0.218 0.0
C1375 C 0.66094 0.78986 0.22941 0.0
H1376 H 0.96614 0.21586 0.60316 0.0
H1377 H 0.03668 0.24054 0.61954 0.0
H1378 H 0.98283 0.17818 0.58616 0.0
H1379 H 0.05359 0.20301 0.60156 0.0
H1380 H 0.06954 0.11948 0.59528 0.0
H1381 H 0.05668 0.1604 0.60903 0.0
H1382 H 0.00503 0.1613 0.55323 0.0
H1383 H 0.01726 0.12021 0.54052 0.0
C1384 C 0.98528 0.21342 0.60277 0.0
C1385 C 1.00006 0.23121 0.61273 0.0
C1386 C 0.99491 0.19182 0.59286 0.0
C1387 C 0.01962 0.18755 0.59233 0.0
C1388 C 0.03448 0.20555 0.60192 0.0
C1389 C 0.02479 0.22711 0.61211 0.0
C1390 C 0.05571 0.12874 0.58587 0.0
C1391 C 0.04412 0.11678 0.56714 0.0
C1392 C 0.04835 0.15214 0.59364 0.0
C1393 C 0.02951 0.16402 0.58249 0.0
C1394 C 0.01908 0.15246 0.56271 0.0
C1395 C 0.02615 0.12903 0.55529 0.0
H1396 H 0.58447 0.32327 0.32976 0.0
H1397 H 0.59932 0.26227 0.37478 0.0
H1398 H 0.62447 0.32031 0.31186 0.0
H1399 H 0.63971 0.25957 0.35706 0.0
H1400 H 0.70044 0.24571 0.29966 0.0
H1401 H 0.66077 0.24838 0.31902 0.0
H1402 H 0.66549 0.32694 0.32111 0.0
H1403 H 0.70479 0.32431 0.30145 0.0
C1404 C 0.59633 0.30933 0.33602 0.0
C1405 C 0.5886 0.29301 0.35375 0.0
C1406 C 0.61938 0.30771 0.3258 0.0
C1407 C 0.63541 0.2897 0.33298 0.0
C1408 C 0.62777 0.27349 0.35089 0.0
C1409 C 0.60467 0.27516 0.36119 0.0
C1410 C 0.69298 0.26355 0.30421 0.0
C1411 C 0.70579 0.28479 0.29885 0.0
C1412 C 0.67029 0.26508 0.31549 0.0
C1413 C 0.65985 0.28789 0.32162 0.0
C1414 C 0.67278 0.30908 0.31636 0.0
C1415 C 0.69542 0.30756 0.30515 0.0
H1416 H 0.51995 0.85208 0.12201 0.0
H1417 H 0.45771 0.85094 0.07847 0.0
H1418 H 0.53027 0.89196 0.1067 0.0
H1419 H 0.46797 0.89103 0.06348 0.0
H1420 H 0.50704 0.95422 0.02649 0.0
H1421 H 0.498 0.9129 0.03896 0.0
H1422 H 0.51292 0.93325 0.11239 0.0
H1423 H 0.52233 0.97446 0.09993 0.0
C1424 C 0.50857 0.8602 0.10902 0.0
C1425 C 0.48787 0.84839 0.10163 0.0
C1426 C 0.51441 0.88314 0.10041 0.0
C1427 C 0.49973 0.89472 0.08419 0.0
C1428 C 0.47964 0.88249 0.07593 0.0
C1429 C 0.47376 0.85954 0.08457 0.0
C1430 C 0.50828 0.94991 0.04532 0.0
C1431 C 0.5154 0.96758 0.06225 0.0
C1432 C 0.50305 0.92627 0.05244 0.0
C1433 C 0.50494 0.91984 0.07659 0.0
C1434 C 0.51171 0.9376 0.09357 0.0
C1435 C 0.51688 0.96126 0.08648 0.0
H1436 H 0.934 0.77382 0.88367 0.0
H1437 H 0.97015 0.80732 0.8233 0.0
H1438 H 0.89749 0.7722 0.8614 0.0
H1439 H 0.93357 0.80545 0.80085 0.0
H1440 H 0.84553 0.74526 0.80611 0.0
H1441 H 0.88259 0.74916 0.82723 0.0
H1442 H 0.89267 0.82094 0.79851 0.0
H1443 H 0.85561 0.81697 0.77715 0.0
C1444 C 0.93412 0.78116 0.86576 0.0
C1445 C 0.95511 0.79071 0.85534 0.0
C1446 C 0.91319 0.77996 0.85284 0.0
C1447 C 0.91258 0.78833 0.82912 0.0
C1448 C 0.9333 0.79887 0.81906 0.0
C1449 C 0.95431 0.79997 0.83197 0.0
C1450 C 0.85576 0.76177 0.804 0.0
C1451 C 0.84749 0.78077 0.78984 0.0
C1452 C 0.87694 0.76413 0.81636 0.0
C1453 C 0.89057 0.78552 0.8149 0.0
C1454 C 0.88275 0.80417 0.80003 0.0
C1455 C 0.86146 0.80187 0.78774 0.0
H1456 H 0.8968 0.08871 0.84739 0.0
H1457 H 0.95313 0.06457 0.7973 0.0
H1458 H 0.92291 0.0826 0.88076 0.0
H1459 H 0.97923 0.05851 0.83079 0.0
H1460 H 0.02462 0.08385 0.89492 0.0
H1461 H 0.9987 0.0859 0.86072 0.0
H1462 H 0.94361 0.04888 0.90145 0.0
H1463 H 0.96932 0.04734 0.9358 0.0
C1464 C 0.91463 0.08184 0.8435 0.0
C1465 C 0.92287 0.07705 0.81972 0.0
C1466 C 0.92956 0.07829 0.86263 0.0
C1467 C 0.95305 0.07007 0.85831 0.0
C1468 C 0.96124 0.06506 0.83456 0.0
C1469 C 0.94627 0.06846 0.81544 0.0
C1470 C 0.00698 0.07617 0.89652 0.0
C1471 C 0.99895 0.06553 0.91802 0.0
C1472 C 0.99225 0.07712 0.87691 0.0
C1473 C 0.96917 0.06759 0.87851 0.0
C1474 C 0.96128 0.05654 0.89984 0.0
C1475 C 0.97607 0.05544 0.91939 0.0
H1476 H 0.77493 0.18833 0.56347 0.0
H1477 H 0.83499 0.23694 0.5667 0.0
H1478 H 0.75705 0.20835 0.59933 0.0
H1479 H 0.81698 0.25687 0.60268 0.0
H1480 H 0.76397 0.30345 0.64903 0.0
H1481 H 0.78008 0.28314 0.61227 0.0
H1482 H 0.7661 0.21305 0.6434 0.0
H1483 H 0.7499 0.23342 0.68004 0.0
C1484 C 0.7844 0.20318 0.5719 0.0
C1485 C 0.8064 0.21107 0.56221 0.0
C1486 C 0.77415 0.21458 0.59244 0.0
C1487 C 0.78556 0.23424 0.6036 0.0
C1488 C 0.80768 0.24195 0.59417 0.0
C1489 C 0.81807 0.23039 0.57373 0.0
C1490 C 0.76392 0.28373 0.64776 0.0
C1491 C 0.75569 0.26994 0.66726 0.0
C1492 C 0.7734 0.27213 0.62692 0.0
C1493 C 0.7745 0.24656 0.62515 0.0
C1494 C 0.7654 0.23279 0.64429 0.0
C1495 C 0.75621 0.24439 0.66522 0.0
H1496 H 0.59936 0.97561 0.3618 0.0
H1497 H 0.6613 0.00708 0.39349 0.0
H1498 H 0.57605 0.98476 0.39874 0.0
H1499 H 0.63798 0.01745 0.42993 0.0
H1500 H 0.59523 0.01605 0.49978 0.0
H1501 H 0.61853 0.00237 0.46424 0.0
H1502 H 0.55887 0.01808 0.41987 0.0
H1503 H 0.53526 0.03034 0.45564 0.0
C1504 C 0.60793 0.9845 0.37675 0.0
C1505 C 0.6321 0.9904 0.37505 0.0
C1506 C 0.59459 0.98993 0.39781 0.0
C1507 C 0.6051 0.00195 0.41732 0.0
C1508 C 0.62941 0.00771 0.41552 0.0
C1509 C 0.64283 0.00179 0.39463 0.0
C1510 C 0.58715 0.01647 0.48239 0.0
C1511 C 0.56351 0.02422 0.48035 0.0
C1512 C 0.60051 0.00877 0.46201 0.0
C1513 C 0.59062 0.00915 0.43914 0.0
C1514 C 0.56693 0.01703 0.43721 0.0
C1515 C 0.55343 0.02425 0.45766 0.0
H1516 H 0.81074 0.81857 0.07109 0.0
H1517 H 0.7596 0.875 0.09143 0.0
H1518 H 0.80197 0.79817 0.1087 0.0
H1519 H 0.75135 0.85498 0.12965 0.0
H1520 H 0.80915 0.78938 0.1891 0.0
H1521 H 0.81153 0.80537 0.14898 0.0
H1522 H 0.73618 0.82134 0.15313 0.0
H1523 H 0.73391 0.80566 0.1942 0.0
C1524 C 0.79741 0.82654 0.08349 0.0
C1525 C 0.78606 0.8486 0.07817 0.0
C1526 C 0.7925 0.81492 0.10527 0.0
C1527 C 0.77631 0.82512 0.1227 0.0
C1528 C 0.76388 0.84644 0.11679 0.0
C1529 C 0.76864 0.85799 0.09479 0.0
C1530 C 0.79294 0.79612 0.18156 0.0
C1531 C 0.77131 0.79616 0.19509 0.0
C1532 C 0.79429 0.80517 0.15826 0.0
C1533 C 0.77403 0.81456 0.14743 0.0
C1534 C 0.75222 0.81442 0.16082 0.0
C1535 C 0.75086 0.80526 0.18434 0.0
H1536 H 0.93009 0.10665 0.68413 0.0
H1537 H 0.88766 0.04225 0.6953 0.0
H1538 H 0.9523 0.0856 0.65146 0.0
H1539 H 0.91038 0.02094 0.66294 0.0
H1540 H 0.94673 0.00069 0.58756 0.0
H1541 H 0.92082 0.01874 0.61961 0.0
H1542 H 0.98177 0.0531 0.65077 0.0
H1543 H 0.00736 0.03568 0.61859 0.0
C1544 C 0.92532 0.0881 0.67942 0.0
C1545 C 0.90732 0.07605 0.69246 0.0
C1546 C 0.9382 0.07593 0.66088 0.0
C1547 C 0.93351 0.05138 0.65509 0.0
C1548 C 0.91447 0.03981 0.66705 0.0
C1549 C 0.90144 0.05206 0.68556 0.0
C1550 C 0.9546 0.01157 0.60166 0.0
C1551 C 0.97899 0.01696 0.60056 0.0
C1552 C 0.93977 0.02202 0.6199 0.0
C1553 C 0.94918 0.03788 0.63731 0.0
C1554 C 0.97387 0.04161 0.63716 0.0
C1555 C 0.98858 0.03138 0.61893 0.0
H1556 H 0.77348 0.23306 0.44968 0.0
H1557 H 0.84838 0.25073 0.44719 0.0
H1558 H 0.76833 0.25599 0.41302 0.0
H1559 H 0.84304 0.27299 0.41037 0.0
H1560 H 0.77626 0.31138 0.34714 0.0
H1561 H 0.78306 0.30516 0.39005 0.0
H1562 H 0.82333 0.23979 0.37147 0.0
H1563 H 0.81587 0.24538 0.3289 0.0
C1564 C 0.78864 0.24245 0.44183 0.0
C1565 C 0.81143 0.23956 0.451 0.0
C1566 C 0.78563 0.25568 0.421 0.0
C1567 C 0.80537 0.26599 0.40909 0.0
C1568 C 0.82763 0.26521 0.41948 0.0
C1569 C 0.83061 0.25235 0.44049 0.0
C1570 C 0.78699 0.29601 0.35229 0.0
C1571 C 0.79556 0.27878 0.33493 0.0
C1572 C 0.79078 0.29249 0.37668 0.0
C1573 C 0.80379 0.27215 0.3837 0.0
C1574 C 0.81344 0.25572 0.36624 0.0
C1575 C 0.80913 0.25886 0.34202 0.0
H1576 H 0.64656 0.02789 0.25269 0.0
H1577 H 0.64588 0.95559 0.22029 0.0
H1578 H 0.62445 0.04343 0.2197 0.0
H1579 H 0.62483 0.97142 0.18629 0.0
H1580 H 0.56216 0.00068 0.14553 0.0
H1581 H 0.58696 0.98503 0.17687 0.0
H1582 H 0.62404 0.05384 0.17966 0.0
H1583 H 0.59823 0.06962 0.14926 0.0
C1584 C 0.64218 0.01538 0.23818 0.0
C1585 C 0.64785 0.99045 0.23917 0.0
C1586 C 0.62954 0.02435 0.21911 0.0
C1587 C 0.62262 0.00871 0.20027 0.0
C1588 C 0.62931 0.98393 0.20073 0.0
C1589 C 0.64161 0.97486 0.22009 0.0
C1590 C 0.57559 0.01237 0.15302 0.0
C1591 C 0.57818 0.03638 0.14525 0.0
C1592 C 0.59 0.00339 0.17079 0.0
C1593 C 0.60767 0.01809 0.18086 0.0
C1594 C 0.61036 0.04209 0.17276 0.0
C1595 C 0.59561 0.0512 0.15533 0.0
H1596 H 0.81885 0.83083 0.95624 0.0
H1597 H 0.76995 0.89065 0.94719 0.0
H1598 H 0.80926 0.8142 0.91683 0.0
H1599 H 0.76031 0.87386 0.90747 0.0
H1600 H 0.77353 0.84986 0.82591 0.0
H1601 H 0.77877 0.86706 0.86639 0.0
H1602 H 0.77724 0.79466 0.89509 0.0
H1603 H 0.77205 0.77751 0.85478 0.0
C1604 C 0.80592 0.84043 0.94594 0.0
C1605 C 0.79521 0.86217 0.95514 0.0
C1606 C 0.80029 0.83076 0.92326 0.0
C1607 C 0.78392 0.84256 0.90878 0.0
C1608 C 0.77312 0.86429 0.91795 0.0
C1609 C 0.77854 0.87385 0.94086 0.0
C1610 C 0.77394 0.83761 0.84089 0.0
C1611 C 0.77231 0.81222 0.83689 0.0
C1612 C 0.77693 0.84751 0.86419 0.0
C1613 C 0.77866 0.83231 0.88417 0.0
C1614 C 0.77636 0.80699 0.88021 0.0
C1615 C 0.77316 0.79713 0.85701 0.0
H1616 H 0.87019 0.92244 0.04353 0.0
H1617 H 0.85119 0.96492 0.98279 0.0
H1618 H 0.90704 0.94445 0.04633 0.0
H1619 H 0.88929 0.98579 0.98393 0.0
H1620 H 0.95096 0.0354 0.00248 0.0
H1621 H 0.9132 0.01402 0.99989 0.0
H1622 H 0.94408 0.95236 0.03512 0.0
H1623 H 0.98055 0.97475 0.0395 0.0
C1624 C 0.87427 0.93605 0.03022 0.0
C1625 C 0.85771 0.94175 0.01284 0.0
C1626 C 0.89571 0.94879 0.0317 0.0
C1627 C 0.90183 0.96724 0.01534 0.0
C1628 C 0.88543 0.9723 0.99736 0.0
C1629 C 0.86357 0.96001 0.99638 0.0
C1630 C 0.94937 0.01744 0.01004 0.0
C1631 C 0.96864 0.00704 0.02165 0.0
C1632 C 0.92773 0.00486 0.00826 0.0
C1633 C 0.92495 0.9811 0.01732 0.0
C1634 C 0.94464 0.97074 0.02854 0.0
C1635 C 0.96588 0.98362 0.031 0.0
H1636 H 0.33092 0.59269 0.00824 0.0
H1637 H 0.3763 0.64491 0.97247 0.0
H1638 H 0.36529 0.56604 0.01307 0.0
H1639 H 0.41036 0.61814 0.97677 0.0
H1640 H 0.46909 0.57668 0.01355 0.0
H1641 H 0.43509 0.6031 0.00772 0.0
H1642 H 0.393 0.54042 0.98866 0.0
H1643 H 0.42697 0.51374 0.99517 0.0
C1644 C 0.34822 0.59849 0.00148 0.0
C1645 C 0.35096 0.62094 0.99014 0.0
C1646 C 0.36783 0.58315 0.00404 0.0
C1647 C 0.39049 0.58997 0.99521 0.0
C1648 C 0.39319 0.61252 0.98403 0.0
C1649 C 0.37365 0.62786 0.98157 0.0
C1650 C 0.45268 0.56851 0.00785 0.0
C1651 C 0.45068 0.54312 0.00484 0.0
C1652 C 0.4332 0.58368 0.00447 0.0
C1653 C 0.41134 0.57381 0.99787 0.0
C1654 C 0.40952 0.54848 0.99415 0.0
C1655 C 0.42903 0.53325 0.99762 0.0
H1656 H 0.20299 0.57211 0.85595 0.0
H1657 H 0.18979 0.55101 0.7822 0.0
H1658 H 0.21875 0.6111 0.84228 0.0
H1659 H 0.20575 0.58975 0.76878 0.0
H1660 H 0.27101 0.63975 0.75673 0.0
H1661 H 0.25041 0.60431 0.772 0.0
H1662 H 0.20533 0.65071 0.81798 0.0
H1663 H 0.22517 0.6866 0.80202 0.0
C1664 C 0.20311 0.57591 0.83692 0.0
C1665 C 0.19538 0.55837 0.82013 0.0
C1666 C 0.21204 0.59821 0.82916 0.0
C1667 C 0.21366 0.60312 0.80452 0.0
C1668 C 0.20487 0.58616 0.78788 0.0
C1669 C 0.19564 0.56407 0.79561 0.0
C1670 C 0.25656 0.64263 0.76984 0.0
C1671 C 0.24964 0.66624 0.77779 0.0
C1672 C 0.24482 0.62225 0.77863 0.0
C1673 C 0.22616 0.62493 0.79588 0.0
C1674 C 0.21969 0.6483 0.80461 0.0
C1675 C 0.2312 0.66881 0.79552 0.0
H1676 H 0.22754 0.48385 0.55977 0.0
H1677 H 0.20833 0.42637 0.50993 0.0
H1678 H 0.18714 0.49981 0.56011 0.0
H1679 H 0.1675 0.44212 0.51067 0.0
H1680 H 0.10344 0.49305 0.49877 0.0
H1681 H 0.14367 0.47606 0.49797 0.0
H1682 H 0.14755 0.49096 0.57434 0.0
H1683 H 0.10757 0.50844 0.57502 0.0
C1684 C 0.21466 0.4745 0.54893 0.0
C1685 C 0.22127 0.45377 0.53482 0.0
C1686 C 0.19136 0.4836 0.54927 0.0
C1687 C 0.17389 0.47224 0.53554 0.0
C1688 C 0.18049 0.45152 0.52131 0.0
C1689 C 0.2039 0.44239 0.52097 0.0
C1690 C 0.11288 0.49272 0.5154 0.0
C1691 C 0.10227 0.50227 0.53694 0.0
C1692 C 0.13593 0.48279 0.51497 0.0
C1693 C 0.149 0.48214 0.53606 0.0
C1694 C 0.13824 0.49149 0.55765 0.0
C1695 C 0.11522 0.50143 0.55807 0.0
H1696 H 0.86142 0.01084 0.74319 0.0
H1697 H 0.84835 0.99437 0.81822 0.0
H1698 H 0.84863 0.97007 0.73165 0.0
H1699 H 0.83559 0.95348 0.80646 0.0
H1700 H 0.8348 0.87527 0.77507 0.0
H1701 H 0.85214 0.91439 0.78561 0.0
H1702 H 0.80797 0.94966 0.73465 0.0
H1703 H 0.78999 0.91068 0.72452 0.0
C1704 C 0.85609 0.99846 0.75726 0.0
C1705 C 0.85572 0.00592 0.78165 0.0
C1706 C 0.84866 0.97519 0.75058 0.0
C1707 C 0.84099 0.95882 0.76816 0.0
C1708 C 0.84154 0.96581 0.79259 0.0
C1709 C 0.84875 0.98922 0.79929 0.0
C1710 C 0.82855 0.89132 0.76623 0.0
C1711 C 0.81072 0.88981 0.74913 0.0
C1712 C 0.83861 0.91369 0.77221 0.0
C1713 C 0.83131 0.93494 0.76098 0.0
C1714 C 0.81406 0.93343 0.74339 0.0
C1715 C 0.80379 0.91109 0.73757 0.0
H1716 H 0.74057 0.09408 0.49501 0.0
H1717 H 0.7206 0.16865 0.5133 0.0
H1718 H 0.70418 0.07994 0.51488 0.0
H1719 H 0.68402 0.15432 0.53327 0.0
H1720 H 0.60974 0.11579 0.53979 0.0
H1721 H 0.64615 0.1331 0.52239 0.0
H1722 H 0.68762 0.07867 0.55747 0.0
H1723 H 0.65106 0.06117 0.57461 0.0
C1724 C 0.72834 0.1075 0.50311 0.0
C1725 C 0.73351 0.13251 0.50261 0.0
C1726 C 0.70761 0.09934 0.51471 0.0
C1727 C 0.69148 0.116 0.52592 0.0
C1728 C 0.6962 0.14108 0.52478 0.0
C1729 C 0.71709 0.14927 0.51332 0.0
C1730 C 0.62668 0.1077 0.54393 0.0
C1731 C 0.62763 0.08703 0.55835 0.0
C1732 C 0.64749 0.11769 0.53412 0.0
C1733 C 0.66966 0.10706 0.53838 0.0
C1734 C 0.6707 0.08701 0.55365 0.0
C1735 C 0.64986 0.07716 0.56367 0.0
H1736 H 0.2624 0.45473 0.84722 0.0
H1737 H 0.24033 0.45327 0.77348 0.0
H1738 H 0.28959 0.42089 0.83786 0.0
H1739 H 0.26763 0.41954 0.7643 0.0
H1740 H 0.30969 0.35085 0.75569 0.0
H1741 H 0.30844 0.3949 0.76514 0.0
H1742 H 0.26523 0.38118 0.82913 0.0
H1743 H 0.26579 0.33776 0.8192 0.0
C1744 C 0.26405 0.44797 0.82878 0.0
C1745 C 0.2484 0.45588 0.81133 0.0
C1746 C 0.27977 0.42867 0.82344 0.0
C1747 C 0.28015 0.41728 0.80058 0.0
C1748 C 0.26756 0.42794 0.78213 0.0
C1749 C 0.2517 0.44713 0.78748 0.0
C1750 C 0.30059 0.35739 0.77212 0.0
C1751 C 0.28761 0.3413 0.78668 0.0
C1752 C 0.29995 0.38243 0.77753 0.0
C1753 C 0.28694 0.39133 0.79793 0.0
C1754 C 0.27577 0.37479 0.81352 0.0
C1755 C 0.27584 0.35001 0.80776 0.0
H1756 H 0.29924 0.5959 0.23936 0.0
H1757 H 0.29253 0.61485 0.31512 0.0
H1758 H 0.26393 0.62022 0.23217 0.0
H1759 H 0.25917 0.64047 0.30803 0.0
H1760 H 0.21751 0.70148 0.29739 0.0
H1761 H 0.22524 0.65782 0.29889 0.0
H1762 H 0.25874 0.66004 0.22754 0.0
H1763 H 0.24829 0.70247 0.22535 0.0
C1764 C 0.29009 0.60508 0.2545 0.0
C1765 C 0.29921 0.60422 0.27764 0.0
C1766 C 0.26989 0.61923 0.25041 0.0
C1767 C 0.25904 0.63354 0.26921 0.0
C1768 C 0.26667 0.63013 0.29278 0.0
C1769 C 0.2863 0.61549 0.29693 0.0
C1770 C 0.22544 0.69213 0.28169 0.0
C1771 C 0.23286 0.70522 0.26151 0.0
C1772 C 0.23031 0.66717 0.2826 0.0
C1773 C 0.2442 0.65543 0.26406 0.0
C1774 C 0.24843 0.66804 0.24252 0.0
C1775 C 0.2425 0.69267 0.24119 0.0
H1776 H 0.53037 0.70661 0.63891 0.0
H1777 H 0.51109 0.73317 0.5699 0.0
H1778 H 0.53258 0.66509 0.62221 0.0
H1779 H 0.51499 0.69227 0.55254 0.0
H1780 H 0.49934 0.61536 0.52996 0.0
H1781 H 0.49757 0.65587 0.54838 0.0
H1782 H 0.54924 0.63388 0.59965 0.0
H1783 H 0.54943 0.59271 0.58204 0.0
C1784 C 0.52726 0.70365 0.61995 0.0
C1785 C 0.52052 0.72326 0.60577 0.0
C1786 C 0.52853 0.6797 0.61024 0.0
C1787 C 0.52358 0.67469 0.58587 0.0
C1788 C 0.51808 0.69474 0.57153 0.0
C1789 C 0.5162 0.71848 0.58139 0.0
C1790 C 0.51011 0.61913 0.54536 0.0
C1791 C 0.52443 0.60069 0.55454 0.0
C1792 C 0.50942 0.64264 0.55584 0.0
C1793 C 0.52361 0.64888 0.57549 0.0
C1794 C 0.53775 0.63017 0.58484 0.0
C1795 C 0.53795 0.60639 0.57468 0.0
H1796 H 0.59478 0.25165 0.80817 0.0
H1797 H 0.59791 0.28331 0.87989 0.0
H1798 H 0.62954 0.27433 0.79573 0.0
H1799 H 0.63281 0.30676 0.86714 0.0
H1800 H 0.71409 0.29992 0.84205 0.0
H1801 H 0.67353 0.29491 0.85726 0.0
H1802 H 0.64747 0.31292 0.7876 0.0
H1803 H 0.68826 0.31696 0.77205 0.0
C1804 C 0.60271 0.26377 0.82123 0.0
C1805 C 0.59386 0.26537 0.84512 0.0
C1806 C 0.62249 0.27712 0.81398 0.0
C1807 C 0.63392 0.29248 0.83042 0.0
C1808 C 0.62446 0.29496 0.85411 0.0
C1809 C 0.60454 0.28151 0.86141 0.0
C1810 C 0.6997 0.30351 0.83014 0.0
C1811 C 0.70431 0.30801 0.80565 0.0
C1812 C 0.67638 0.3008 0.83894 0.0
C1813 C 0.65733 0.30284 0.82343 0.0
C1814 C 0.66188 0.31054 0.79977 0.0
C1815 C 0.68522 0.31293 0.79088 0.0
H1816 H 0.04979 0.36146 0.13138 0.0
H1817 H 0.00924 0.33935 0.07037 0.0
H1818 H 0.05253 0.40272 0.11581 0.0
H1819 H 0.01272 0.38005 0.05424 0.0
H1820 H 0.99355 0.46003 0.04813 0.0
H1821 H 0.99568 0.41837 0.06184 0.0
H1822 H 0.0661 0.43162 0.08762 0.0
H1823 H 0.06351 0.47378 0.07458 0.0
C1824 C 0.0422 0.36515 0.1142 0.0
C1825 C 0.02925 0.34701 0.10218 0.0
C1826 C 0.04364 0.38894 0.10525 0.0
C1827 C 0.03235 0.39518 0.08393 0.0
C1828 C 0.02098 0.37642 0.07109 0.0
C1829 C 0.01929 0.35284 0.08017 0.0
C1830 C 0.00952 0.45413 0.05673 0.0
C1831 C 0.02834 0.47042 0.06019 0.0
C1832 C 0.01088 0.43 0.06445 0.0
C1833 C 0.03122 0.42117 0.0757 0.0
C1834 C 0.05003 0.43757 0.07927 0.0
C1835 C 0.04859 0.46183 0.07168 0.0
H1836 H 0.95712 0.71776 0.36972 0.0
H1837 H 0.00512 0.73359 0.30984 0.0
H1838 H 0.92349 0.72022 0.34328 0.0
H1839 H 0.97175 0.73522 0.28333 0.0
H1840 H 0.90728 0.77974 0.26036 0.0
H1841 H 0.94148 0.76663 0.28179 0.0
H1842 H 0.90256 0.70431 0.30772 0.0
H1843 H 0.86792 0.71748 0.28589 0.0
C1844 C 0.96053 0.72119 0.35085 0.0
C1845 C 0.9836 0.72606 0.34192 0.0
C1846 C 0.94131 0.72243 0.33567 0.0
C1847 C 0.94501 0.7283 0.31134 0.0
C1848 C 0.96833 0.73122 0.30213 0.0
C1849 C 0.98741 0.73029 0.3173 0.0
C1850 C 0.90606 0.76291 0.27005 0.0
C1851 C 0.88478 0.74972 0.27144 0.0
C1852 C 0.92575 0.75536 0.28239 0.0
C1853 C 0.92471 0.7344 0.29639 0.0
C1854 C 0.90374 0.72068 0.29722 0.0
C1855 C 0.88395 0.72824 0.28478 0.0
H1856 H 0.451 0.27918 0.93011 0.0
H1857 H 0.5176 0.30518 0.89948 0.0
H1858 H 0.44455 0.31829 0.9509 0.0
H1859 H 0.51084 0.34445 0.91998 0.0
H1860 H 0.5072 0.39449 0.98759 0.0
H1861 H 0.51156 0.358 0.96214 0.0
H1862 H 0.43701 0.36191 0.94636 0.0
H1863 H 0.43265 0.39859 0.97183 0.0
C1864 C 0.46407 0.29335 0.92743 0.0
C1865 C 0.48497 0.28889 0.91333 0.0
C1866 C 0.4603 0.31583 0.93931 0.0
C1867 C 0.47733 0.33436 0.93733 0.0
C1868 C 0.49761 0.33035 0.92223 0.0
C1869 C 0.50139 0.30789 0.91034 0.0
C1870 C 0.49178 0.38777 0.9785 0.0
C1871 C 0.46958 0.3995 0.98177 0.0
C1872 C 0.49429 0.36686 0.96385 0.0
C1873 C 0.47466 0.35715 0.9521 0.0
C1874 C 0.45243 0.36884 0.95535 0.0
C1875 C 0.44992 0.3898 0.97001 0.0
H1876 H 0.94269 0.29862 0.16084 0.0
H1877 H 0.96568 0.24981 0.21542 0.0
H1878 H 0.9024 0.29806 0.1781 0.0
H1879 H 0.92502 0.24934 0.23284 0.0
H1880 H 0.84292 0.23837 0.24203 0.0
H1881 H 0.88327 0.23628 0.22419 0.0
H1882 H 0.8823 0.31427 0.21559 0.0
H1883 H 0.84203 0.31641 0.2334 0.0
C1884 C 0.93913 0.28748 0.17636 0.0
C1885 C 0.95752 0.27421 0.1867 0.0
C1886 C 0.91599 0.28738 0.18641 0.0
C1887 C 0.91048 0.27389 0.20702 0.0
C1888 C 0.92864 0.25988 0.21691 0.0
C1889 C 0.95195 0.26015 0.20694 0.0
C1890 C 0.85131 0.25509 0.23634 0.0
C1891 C 0.83916 0.27757 0.2391 0.0
C1892 C 0.8745 0.25388 0.22623 0.0
C1893 C 0.88601 0.27507 0.21836 0.0
C1894 C 0.87386 0.29754 0.22118 0.0
C1895 C 0.85079 0.29879 0.23151 0.0
H1896 H 0.0743 0.70157 0.44714 0.0
H1897 H 0.00387 0.69807 0.48053 0.0
H1898 H 0.08872 0.67257 0.47597 0.0
H1899 H 0.01835 0.66927 0.5093 0.0
H1900 H 0.07301 0.58704 0.48722 0.0
H1901 H 0.07455 0.62846 0.47266 0.0
H1902 H 0.0468 0.65579 0.54159 0.0
H1903 H 0.04555 0.61413 0.55636 0.0
C1904 C 0.0621 0.69536 0.46117 0.0
C1905 C 0.03779 0.70151 0.46119 0.0
C1906 C 0.0704 0.67878 0.47766 0.0
C1907 C 0.05458 0.66845 0.49457 0.0
C1908 C 0.03098 0.67701 0.49649 0.0
C1909 C 0.02261 0.69332 0.47985 0.0
C1910 C 0.06803 0.60197 0.49952 0.0
C1911 C 0.05879 0.59744 0.52272 0.0
C1912 C 0.06912 0.62572 0.49128 0.0
C1913 C 0.06062 0.64529 0.50599 0.0
C1914 C 0.05341 0.64097 0.52994 0.0
C1915 C 0.05271 0.61717 0.53834 0.0
H1916 H 0.61051 0.79299 0.67017 0.0
H1917 H 0.58186 0.76762 0.73808 0.0
H1918 H 0.65041 0.79316 0.6864 0.0
H1919 H 0.6215 0.768 0.75429 0.0
H1920 H 0.69972 0.74882 0.7679 0.0
H1921 H 0.66008 0.74761 0.7513 0.0
H1922 H 0.67373 0.81554 0.71586 0.0
H1923 H 0.71336 0.81667 0.73225 0.0
C1924 C 0.61269 0.78735 0.6885 0.0
C1925 C 0.59286 0.78031 0.70276 0.0
C1926 C 0.63558 0.78761 0.6979 0.0
C1927 C 0.6393 0.78066 0.72175 0.0
C1928 C 0.61948 0.77324 0.73581 0.0
C1929 C 0.59664 0.77314 0.7265 0.0
C1930 C 0.69422 0.76361 0.75673 0.0
C1931 C 0.70981 0.7829 0.75157 0.0
C1932 C 0.67142 0.76294 0.7472 0.0
C1933 C 0.6636 0.78142 0.73208 0.0
C1934 C 0.67916 0.80079 0.7271 0.0
C1935 C 0.70187 0.80155 0.73674 0.0
H1936 H 0.60868 0.54365 0.73756 0.0
H1937 H 0.65541 0.48339 0.71649 0.0
H1938 H 0.5921 0.54271 0.69779 0.0
H1939 H 0.63912 0.48284 0.67641 0.0
H1940 H 0.5787 0.46661 0.6243 0.0
H1941 H 0.60096 0.47062 0.66086 0.0
H1942 H 0.59931 0.54902 0.65521 0.0
H1943 H 0.57612 0.54507 0.61924 0.0
C1944 C 0.61575 0.5305 0.72429 0.0
C1945 C 0.63314 0.51338 0.73028 0.0
C1946 C 0.60632 0.53005 0.70143 0.0
C1947 C 0.61412 0.51252 0.68404 0.0
C1948 C 0.63245 0.49627 0.68959 0.0
C1949 C 0.64189 0.4967 0.71249 0.0
C1950 C 0.58294 0.48471 0.6309 0.0
C1951 C 0.57544 0.50551 0.6189 0.0
C1952 C 0.59603 0.487 0.65167 0.0
C1953 C 0.60195 0.51015 0.6609 0.0
C1954 C 0.59487 0.53094 0.64864 0.0
C1955 C 0.58174 0.52865 0.62789 0.0
H1956 H 0.74659 0.37946 0.99423 0.0
H1957 H 0.82342 0.3804 0.99463 0.0
H1958 H 0.74857 0.35638 0.95631 0.0
H1959 H 0.82539 0.358 0.95634 0.0
H1960 H 0.82006 0.2938 0.9035 0.0
H1961 H 0.81786 0.31768 0.94094 0.0
H1962 H 0.75909 0.35923 0.91452 0.0
H1963 H 0.76033 0.3345 0.87784 0.0
C1964 C 0.7639 0.37508 0.98605 0.0
C1965 C 0.78484 0.38166 0.9975 0.0
C1966 C 0.76504 0.36189 0.96427 0.0
C1967 C 0.78715 0.3552 0.95337 0.0
C1968 C 0.80808 0.36242 0.96451 0.0
C1969 C 0.80694 0.37542 0.98637 0.0
C1970 C 0.80651 0.30782 0.90577 0.0
C1971 C 0.79045 0.31221 0.88754 0.0
C1972 C 0.80544 0.32175 0.92712 0.0
C1973 C 0.78837 0.34046 0.93067 0.0
C1974 C 0.77232 0.34482 0.91247 0.0
C1975 C 0.77327 0.33081 0.89123 0.0
H1976 H 0.90723 0.55291 0.19745 0.0
H1977 H 0.94476 0.62089 0.20601 0.0
H1978 H 0.92721 0.54613 0.15822 0.0
H1979 H 0.96448 0.61418 0.16667 0.0
H1980 H 0.01818 0.57431 0.11387 0.0
H1981 H 0.99522 0.585 0.15069 0.0
H1982 H 0.93078 0.56203 0.11705 0.0
H1983 H 0.95369 0.55105 0.08035 0.0
C1984 C 0.91945 0.56657 0.19081 0.0
C1985 C 0.92457 0.58732 0.20491 0.0
C1986 C 0.93083 0.56273 0.16831 0.0
C1987 C 0.94755 0.57954 0.15951 0.0
C1988 C 0.95195 0.60075 0.17319 0.0
C1989 C 0.94053 0.60463 0.19564 0.0
C1990 C 0.9991 0.57168 0.11429 0.0
C1991 C 0.98777 0.56175 0.09426 0.0
C1992 C 0.98594 0.57794 0.1353 0.0
C1993 C 0.96121 0.57433 0.13671 0.0
C1994 C 0.94984 0.56478 0.11654 0.0
C1995 C 0.96298 0.5586 0.09551 0.0
H1996 H 0.82275 0.73188 0.45475 0.0
H1997 H 0.76051 0.68726 0.44676 0.0
H1998 H 0.81651 0.74953 0.41579 0.0
H1999 H 0.75442 0.70482 0.4073 0.0
H2000 H 0.74136 0.75501 0.34286 0.0
H2001 H 0.74445 0.74024 0.38387 0.0
H2002 H 0.82093 0.73768 0.37433 0.0
H2003 H 0.81784 0.75269 0.33369 0.0
C2004 C 0.80753 0.72593 0.44482 0.0
C2005 C 0.79222 0.70794 0.45413 0.0
C2006 C 0.80408 0.73597 0.4222 0.0
C2007 C 0.78518 0.72842 0.40792 0.0
C2008 C 0.76916 0.71124 0.41766 0.0
C2009 C 0.77263 0.70114 0.44041 0.0
C2010 C 0.75886 0.75143 0.34956 0.0
C2011 C 0.77935 0.75523 0.33481 0.0
C2012 C 0.76063 0.74276 0.37311 0.0
C2013 C 0.78296 0.73778 0.38274 0.0
C2014 C 0.8034 0.74167 0.36793 0.0
C2015 C 0.80163 0.7502 0.34442 0.0
H2016 H 0.63875 0.48152 0.88266 0.0
H2017 H 0.57924 0.49834 0.83861 0.0
H2018 H 0.61288 0.4847 0.91853 0.0
H2019 H 0.55317 0.50095 0.87481 0.0
H2020 H 0.56539 0.52344 0.9764 0.0
H2021 H 0.58914 0.52093 0.93899 0.0
H2022 H 0.53898 0.47046 0.90907 0.0
H2023 H 0.51504 0.4727 0.94681 0.0
C2024 C 0.62023 0.48608 0.88059 0.0
C2025 C 0.61115 0.49009 0.8578 0.0
C2026 C 0.60541 0.48781 0.90115 0.0
C2027 C 0.58115 0.49318 0.89932 0.0
C2028 C 0.57185 0.49672 0.87657 0.0
C2029 C 0.58679 0.49534 0.85595 0.0
C2030 C 0.5593 0.51187 0.96185 0.0
C2031 C 0.5384 0.49818 0.96453 0.0
C2032 C 0.57295 0.51041 0.9405 0.0
C2033 C 0.56585 0.49546 0.92132 0.0
C2034 C 0.54468 0.4822 0.92367 0.0
C2035 C 0.53112 0.48339 0.94523 0.0
H2036 H 0.72008 0.35472 0.1 0.0
H2037 H 0.79426 0.33407 0.10283 0.0
H2038 H 0.70964 0.32243 0.12773 0.0
H2039 H 0.78383 0.30224 0.13068 0.0
H2040 H 0.76706 0.2537 0.18746 0.0
H2041 H 0.76263 0.26553 0.14559 0.0
H2042 H 0.72004 0.32771 0.17027 0.0
H2043 H 0.72465 0.31601 0.21159 0.0
C2044 C 0.7341 0.34293 0.10602 0.0
C2045 C 0.75812 0.34754 0.09999 0.0
C2046 C 0.72806 0.32434 0.12176 0.0
C2047 C 0.74594 0.31014 0.13171 0.0
C2048 C 0.7696 0.31281 0.1233 0.0
C2049 C 0.77565 0.33138 0.10759 0.0
C2050 C 0.75594 0.26927 0.18371 0.0
C2051 C 0.74661 0.28434 0.20251 0.0
C2052 C 0.75343 0.27604 0.15984 0.0
C2053 C 0.74132 0.29772 0.1547 0.0
C2054 C 0.72939 0.31084 0.17354 0.0
C2055 C 0.73221 0.30431 0.19727 0.0
H2056 H 0.97071 0.5801 0.31836 0.0
H2057 H 0.9073 0.55578 0.35646 0.0
H2058 H 0.9947 0.56779 0.35196 0.0
H2059 H 0.93137 0.54313 0.38984 0.0
H2060 H 0.9904 0.49411 0.42316 0.0
H2061 H 0.96639 0.50876 0.39048 0.0
H2062 H 0.99599 0.58062 0.39949 0.0
H2063 H 0.01976 0.566 0.4325 0.0
C2064 C 0.96193 0.57229 0.334 0.0
C2065 C 0.93719 0.569 0.33498 0.0
C2066 C 0.9756 0.56535 0.35315 0.0
C2067 C 0.96476 0.55453 0.37327 0.0
C2068 C 0.94002 0.55142 0.37438 0.0
C2069 C 0.92627 0.55884 0.35544 0.0
C2070 C 0.99191 0.51294 0.41794 0.0
C2071 C 0.0069 0.52897 0.43013 0.0
C2072 C 0.97806 0.52134 0.39951 0.0
C2073 C 0.97938 0.54577 0.39274 0.0
C2074 C 0.99477 0.5617 0.40452 0.0
C2075 C 0.00826 0.5534 0.42329 0.0
H2076 H 0.82817 0.72766 0.5775 0.0
H2077 H 0.77095 0.6773 0.59132 0.0
H2078 H 0.8236 0.74391 0.61835 0.0
H2079 H 0.76602 0.69405 0.63248 0.0
H2080 H 0.78196 0.7126 0.71255 0.0
H2081 H 0.78485 0.69592 0.67128 0.0
H2082 H 0.7988 0.76802 0.64493 0.0
H2083 H 0.79637 0.78447 0.68594 0.0
C2084 C 0.81435 0.72018 0.58913 0.0
C2085 C 0.79992 0.70108 0.58081 0.0
C2086 C 0.81165 0.72965 0.61273 0.0
C2087 C 0.79441 0.72042 0.62902 0.0
C2088 C 0.77969 0.70152 0.62067 0.0
C2089 C 0.78235 0.69205 0.5969 0.0
C2090 C 0.78579 0.72486 0.69795 0.0
C2091 C 0.78913 0.74991 0.70278 0.0
C2092 C 0.78723 0.71532 0.67418 0.0
C2093 C 0.79212 0.73051 0.6545 0.0
C2094 C 0.79538 0.75555 0.65944 0.0
C2095 C 0.79391 0.76507 0.68311 0.0
H2096 H 0.71837 0.60081 0.46629 0.0
H2097 H 0.71162 0.62509 0.54063 0.0
H2098 H 0.6793 0.5823 0.46946 0.0
H2099 H 0.67208 0.60661 0.54377 0.0
H2100 H 0.61329 0.54746 0.54637 0.0
H2101 H 0.65254 0.56639 0.54393 0.0
H2102 H 0.63749 0.59291 0.47353 0.0
H2103 H 0.59848 0.57388 0.47586 0.0
C2104 C 0.7085 0.60237 0.48333 0.0
C2105 C 0.71827 0.61455 0.5032 0.0
C2106 C 0.68593 0.59179 0.48511 0.0
C2107 C 0.67237 0.59289 0.50686 0.0
C2108 C 0.68207 0.60515 0.52678 0.0
C2109 C 0.70468 0.61594 0.52494 0.0
C2110 C 0.61843 0.55716 0.53027 0.0
C2111 C 0.60269 0.55893 0.51123 0.0
C2112 C 0.64088 0.56824 0.52898 0.0
C2113 C 0.6483 0.58127 0.50854 0.0
C2114 C 0.63259 0.58283 0.48945 0.0
C2115 C 0.61013 0.57191 0.4908 0.0
H2116 H 0.17614 0.91378 0.60022 0.0
H2117 H 0.17684 0.90852 0.52249 0.0
H2118 H 0.13493 0.92776 0.60076 0.0
H2119 H 0.13541 0.92239 0.52319 0.0
H2120 H 0.0556 0.93575 0.53493 0.0
H2121 H 0.09234 0.91214 0.53868 0.0
H2122 H 0.11957 0.96863 0.58526 0.0
H2123 H 0.08316 0.99233 0.58131 0.0
C2124 C 0.1674 0.91518 0.58326 0.0
C2125 C 0.17985 0.91039 0.56127 0.0
C2126 C 0.14382 0.9232 0.58363 0.0
C2127 C 0.13213 0.92628 0.56204 0.0
C2128 C 0.14403 0.92 0.5401 0.0
C2129 C 0.16775 0.91221 0.5397 0.0
C2130 C 0.06924 0.94284 0.54639 0.0
C2131 C 0.06663 0.9659 0.55778 0.0
C2132 C 0.09026 0.92941 0.54839 0.0
C2133 C 0.10872 0.93863 0.5622 0.0
C2134 C 0.1055 0.96103 0.57468 0.0
C2135 C 0.08472 0.97462 0.57235 0.0
H2136 H 0.35577 0.98991 0.83251 0.0
H2137 H 0.37103 0.0022 0.75701 0.0
H2138 H 0.33826 0.95077 0.82232 0.0
H2139 H 0.35363 0.9628 0.74689 0.0
H2140 H 0.2862 0.914 0.74136 0.0
H2141 H 0.31142 0.94901 0.74934 0.0
H2142 H 0.34583 0.9093 0.80475 0.0
H2143 H 0.32018 0.87446 0.79713 0.0
C2144 C 0.3558 0.98406 0.81376 0.0
C2145 C 0.36453 0.99931 0.79555 0.0
C2146 C 0.34588 0.96156 0.80795 0.0
C2147 C 0.34437 0.95388 0.7838 0.0
C2148 C 0.3543 0.96846 0.76565 0.0
C2149 C 0.36441 0.99092 0.77147 0.0
C2150 C 0.29911 0.91277 0.75526 0.0
C2151 C 0.30107 0.89157 0.76875 0.0
C2152 C 0.31379 0.93267 0.7596 0.0
C2153 C 0.33063 0.93183 0.77762 0.0
C2154 C 0.33293 0.91046 0.79081 0.0
C2155 C 0.31835 0.89049 0.78635 0.0
H2156 H 0.34293 0.08245 0.04389 0.0
H2157 H 0.37658 0.15101 0.0282 0.0
H2158 H 0.38189 0.06406 0.05014 0.0
H2159 H 0.41558 0.13266 0.03514 0.0
H2160 H 0.47882 0.09097 0.07215 0.0
H2161 H 0.4394 0.1106 0.07075 0.0
H2162 H 0.4182 0.05617 0.01877 0.0
H2163 H 0.45753 0.0371 0.01957 0.0
C2164 C 0.35857 0.09376 0.04221 0.0
C2165 C 0.35654 0.11825 0.03548 0.0
C2166 C 0.38092 0.08316 0.0457 0.0
C2167 C 0.40183 0.09688 0.0431 0.0
C2168 C 0.39979 0.12165 0.03741 0.0
C2169 C 0.37743 0.13214 0.03338 0.0
C2170 C 0.46565 0.08312 0.06059 0.0
C2171 C 0.47132 0.06242 0.04602 0.0
C2172 C 0.44316 0.09444 0.05968 0.0
C2173 C 0.42567 0.0849 0.04469 0.0
C2174 C 0.4312 0.06387 0.03062 0.0
C2175 C 0.45378 0.05298 0.03106 0.0
H2176 H 0.67369 0.57791 0.85942 0.0
H2177 H 0.68446 0.56184 0.78341 0.0
H2178 H 0.68954 0.61862 0.85368 0.0
H2179 H 0.70155 0.60199 0.77779 0.0
H2180 H 0.72505 0.67986 0.77212 0.0
H2181 H 0.69894 0.64503 0.77747 0.0
H2182 H 0.72809 0.63313 0.84718 0.0
H2183 H 0.75265 0.66858 0.84265 0.0
C2184 C 0.67929 0.58319 0.84145 0.0
C2185 C 0.67815 0.56664 0.82193 0.0
C2186 C 0.68854 0.60644 0.83816 0.0
C2187 C 0.69738 0.61344 0.81537 0.0
C2188 C 0.69481 0.59736 0.79557 0.0
C2189 C 0.6851 0.57426 0.7988 0.0
C2190 C 0.72558 0.67009 0.78877 0.0
C2191 C 0.74125 0.67704 0.80682 0.0
C2192 C 0.71074 0.64994 0.79174 0.0
C2193 C 0.71135 0.6362 0.81277 0.0
C2194 C 0.72672 0.64345 0.83092 0.0
C2195 C 0.74129 0.66365 0.82807 0.0
H2196 H 0.8224 0.45567 0.08509 0.0
H2197 H 0.79231 0.47689 0.0183 0.0
H2198 H 0.86038 0.47288 0.07245 0.0
H2199 H 0.83077 0.49314 0.00493 0.0
H2200 H 0.89988 0.5368 0.99696 0.0
H2201 H 0.86021 0.52354 0.01006 0.0
H2202 H 0.89164 0.46214 0.04505 0.0
H2203 H 0.93109 0.4761 0.03271 0.0
C2204 C 0.82397 0.46413 0.06769 0.0
C2205 C 0.80456 0.46491 0.0526 0.0
C2206 C 0.84578 0.47377 0.06032 0.0
C2207 C 0.8488 0.48394 0.03745 0.0
C2208 C 0.82904 0.48557 0.02271 0.0
C2209 C 0.80702 0.47627 0.03032 0.0
C2210 C 0.89814 0.52038 0.00729 0.0
C2211 C 0.91842 0.50748 0.01398 0.0
C2212 C 0.87548 0.51277 0.01479 0.0
C2213 C 0.87272 0.49193 0.02886 0.0
C2214 C 0.89309 0.47867 0.03484 0.0
C2215 C 0.91569 0.4865 0.02766 0.0
H2216 H 0.30091 0.11382 0.81812 0.0
H2217 H 0.32032 0.08632 0.74666 0.0
H2218 H 0.27228 0.14134 0.80134 0.0
H2219 H 0.29101 0.11337 0.72982 0.0
H2220 H 0.2347 0.20026 0.77248 0.0
H2221 H 0.23959 0.15645 0.77797 0.0
H2222 H 0.30035 0.15611 0.72808 0.0
H2223 H 0.29533 0.19941 0.72269 0.0
C2224 C 0.29831 0.11288 0.79892 0.0
C2225 C 0.31346 0.09868 0.7836 0.0
C2226 C 0.28167 0.12854 0.78924 0.0
C2227 C 0.27988 0.13005 0.76412 0.0
C2228 C 0.29245 0.11305 0.74919 0.0
C2229 C 0.30929 0.09764 0.75883 0.0
C2230 C 0.24834 0.19049 0.76183 0.0
C2231 C 0.26505 0.20315 0.74762 0.0
C2232 C 0.25122 0.16545 0.76508 0.0
C2233 C 0.2707 0.15289 0.75397 0.0
C2234 C 0.28513 0.16508 0.73698 0.0
C2235 C 0.28241 0.19003 0.73396 0.0
H2236 H 0.2382 0.93702 0.33919 0.0
H2237 H 0.23141 0.96669 0.2685 0.0
H2238 H 0.26443 0.90551 0.3226 0.0
H2239 H 0.25919 0.93593 0.25182 0.0
H2240 H 0.25268 0.85315 0.23289 0.0
H2241 H 0.25023 0.89596 0.2432 0.0
H2242 H 0.29561 0.88473 0.3033 0.0
H2243 H 0.29676 0.8412 0.29363 0.0
C2244 C 0.24316 0.93743 0.3202 0.0
C2245 C 0.2321 0.95371 0.30498 0.0
C2246 C 0.2585 0.91937 0.31059 0.0
C2247 C 0.2634 0.91752 0.28559 0.0
C2248 C 0.25507 0.93616 0.27099 0.0
C2249 C 0.23923 0.95387 0.28053 0.0
C2250 C 0.26271 0.85986 0.24791 0.0
C2251 C 0.27411 0.8437 0.26302 0.0
C2252 C 0.26152 0.88467 0.25378 0.0
C2253 C 0.27203 0.89387 0.2747 0.0
C2254 C 0.2865 0.87815 0.28763 0.0
C2255 C 0.2873 0.8532 0.28201 0.0
H2256 H 0.47536 0.36612 0.44031 0.0
H2257 H 0.54943 0.34592 0.4305 0.0
H2258 H 0.48676 0.40647 0.45517 0.0
H2259 H 0.56081 0.38633 0.44618 0.0
H2260 H 0.56031 0.4518 0.50732 0.0
H2261 H 0.55329 0.41128 0.48935 0.0
H2262 H 0.51052 0.44392 0.43573 0.0
H2263 H 0.51803 0.48436 0.45309 0.0
C2264 C 0.4941 0.37021 0.44143 0.0
C2265 C 0.51146 0.35267 0.43418 0.0
C2266 C 0.50062 0.39342 0.44986 0.0
C2267 C 0.52468 0.39964 0.45182 0.0
C2268 C 0.54212 0.38207 0.44491 0.0
C2269 C 0.5356 0.35897 0.43586 0.0
C2270 C 0.54985 0.45039 0.49138 0.0
C2271 C 0.53988 0.47144 0.48161 0.0
C2272 C 0.54582 0.42717 0.4811 0.0
C2273 C 0.53124 0.42438 0.46119 0.0
C2274 C 0.52175 0.44545 0.45111 0.0
C2275 C 0.52622 0.46866 0.46099 0.0
H2276 H 0.40464 0.77359 0.14955 0.0
H2277 H 0.43933 0.73212 0.20361 0.0
H2278 H 0.36619 0.76215 0.16641 0.0
H2279 H 0.40055 0.72025 0.22037 0.0
H2280 H 0.29809 0.74059 0.19852 0.0
H2281 H 0.33614 0.73261 0.17726 0.0
H2282 H 0.37249 0.74635 0.24339 0.0
H2283 H 0.33451 0.754 0.26452 0.0
C2284 C 0.40408 0.76138 0.16457 0.0
C2285 C 0.42499 0.75419 0.17557 0.0
C2286 C 0.38196 0.75464 0.17417 0.0
C2287 C 0.38034 0.74058 0.19496 0.0
C2288 C 0.40129 0.73146 0.20457 0.0
C2289 C 0.42347 0.73821 0.19494 0.0
C2290 C 0.31424 0.74164 0.20847 0.0
C2291 C 0.31351 0.74869 0.23291 0.0
C2292 C 0.33597 0.7369 0.19638 0.0
C2293 C 0.35732 0.7392 0.20856 0.0
C2294 C 0.35636 0.74421 0.2335 0.0
C2295 C 0.33461 0.74883 0.24559 0.0
H2296 H 0.04713 0.71592 0.93662 0.0
H2297 H 0.97862 0.72662 0.9731 0.0
H2298 H 0.0519 0.67725 0.9572 0.0
H2299 H 0.98343 0.68824 0.9934 0.0
H2300 H 0.05783 0.61669 0.01483 0.0
H2301 H 0.05602 0.65736 0.99754 0.0
H2302 H 0.98301 0.645 0.9796 0.0
H2303 H 0.98479 0.60454 0.9967 0.0
C2304 C 0.03328 0.71034 0.94931 0.0
C2305 C 0.0124 0.72449 0.95296 0.0
C2306 C 0.03602 0.68812 0.96111 0.0
C2307 C 0.01787 0.67939 0.97669 0.0
C2308 C 0.99757 0.69411 0.98118 0.0
C2309 C 0.99491 0.71631 0.96961 0.0
C2310 C 0.04137 0.62269 0.00725 0.0
C2311 C 0.02142 0.6073 0.00726 0.0
C2312 C 0.04038 0.64597 0.99722 0.0
C2313 C 0.01933 0.65458 0.98729 0.0
C2314 C 0.99942 0.63916 0.98739 0.0
C2315 C 0.00049 0.61585 0.9971 0.0
H2316 H 0.06543 0.359 0.70231 0.0
H2317 H 0.07879 0.28988 0.6651 0.0
H2318 H 0.10207 0.35379 0.72415 0.0
H2319 H 0.11513 0.28484 0.68697 0.0
H2320 H 0.14702 0.26666 0.75923 0.0
H2321 H 0.11499 0.27802 0.7334 0.0
H2322 H 0.1494 0.34651 0.71906 0.0
H2323 H 0.18178 0.33508 0.74525 0.0
C2324 C 0.07645 0.34304 0.69833 0.0
C2325 C 0.06897 0.32458 0.6824 0.0
C2326 C 0.09739 0.34012 0.71081 0.0
C2327 C 0.11098 0.3187 0.70752 0.0
C2328 C 0.10462 0.30131 0.69007 0.0
C2329 C 0.08386 0.30426 0.67754 0.0
C2330 C 0.1476 0.28432 0.75097 0.0
C2331 C 0.16685 0.30002 0.75427 0.0
C2332 C 0.12945 0.29066 0.73592 0.0
C2333 C 0.13004 0.31293 0.72402 0.0
C2334 C 0.14873 0.32917 0.72798 0.0
C2335 C 0.16715 0.32264 0.74287 0.0
H2336 H 0.51981 0.72106 0.12651 0.0
H2337 H 0.47395 0.72943 0.06645 0.0
H2338 H 0.53466 0.68266 0.10913 0.0
H2339 H 0.48956 0.69141 0.04852 0.0
H2340 H 0.49341 0.60823 0.04572 0.0
H2341 H 0.48401 0.64988 0.05769 0.0
H2342 H 0.55669 0.66072 0.07806 0.0
H2343 H 0.56581 0.6182 0.06734 0.0
C2344 C 0.51329 0.71499 0.1093 0.0
C2345 C 0.4954 0.7281 0.09805 0.0
C2346 C 0.52194 0.693 0.09924 0.0
C2347 C 0.51308 0.68376 0.07758 0.0
C2348 C 0.49634 0.69771 0.06554 0.0
C2349 C 0.48748 0.71957 0.07574 0.0
C2350 C 0.5074 0.6193 0.05298 0.0
C2351 C 0.53029 0.60964 0.05598 0.0
C2352 C 0.50209 0.64345 0.05943 0.0
C2353 C 0.51959 0.65874 0.06881 0.0
C2354 C 0.54272 0.64935 0.07114 0.0
C2355 C 0.54801 0.62504 0.06481 0.0
H2356 H 0.10035 0.75979 0.87186 0.0
H2357 H 0.08384 0.81965 0.826 0.0
H2358 H 0.14039 0.75713 0.8532 0.0
H2359 H 0.12341 0.8167 0.80718 0.0
H2360 H 0.20324 0.82179 0.79468 0.0
H2361 H 0.1644 0.82413 0.81526 0.0
H2362 H 0.16106 0.7455 0.81506 0.0
H2363 H 0.20035 0.74313 0.79479 0.0
C2364 C 0.10525 0.77243 0.85789 0.0
C2365 C 0.08883 0.78997 0.8505 0.0
C2366 C 0.12815 0.77078 0.84704 0.0
C2367 C 0.13521 0.7867 0.82864 0.0
C2368 C 0.1188 0.80435 0.82149 0.0
C2369 C 0.09599 0.80597 0.83226 0.0
C2370 C 0.19427 0.80495 0.79898 0.0
C2371 C 0.20493 0.78226 0.79293 0.0
C2372 C 0.17188 0.80631 0.81072 0.0
C2373 C 0.15945 0.78502 0.81677 0.0
C2374 C 0.17019 0.76228 0.81091 0.0
C2375 C 0.19264 0.76091 0.7991 0.0
H2376 H 0.02132 0.34287 0.5925 0.0
H2377 H 0.94622 0.35986 0.59942 0.0
H2378 H 0.02827 0.38158 0.57251 0.0
H2379 H 0.95341 0.39889 0.58005 0.0
H2380 H 0.02345 0.4484 0.52159 0.0
H2381 H 0.01165 0.40707 0.53246 0.0
H2382 H 0.98308 0.43468 0.60086 0.0
H2383 H 0.99546 0.47592 0.59042 0.0
C2384 C 0.00627 0.35463 0.58924 0.0
C2385 C 0.98327 0.34849 0.59754 0.0
C2386 C 0.01024 0.37666 0.5778 0.0
C2387 C 0.99135 0.39303 0.57499 0.0
C2388 C 0.96818 0.3864 0.58211 0.0
C2389 C 0.9641 0.36409 0.59303 0.0
C2390 C 0.01443 0.44566 0.53884 0.0
C2391 C 0.01043 0.46525 0.55527 0.0
C2392 C 0.00772 0.4221 0.54498 0.0
C2393 C 0.99637 0.41797 0.56733 0.0
C2394 C 0.99161 0.43763 0.5834 0.0
C2395 C 0.99881 0.46109 0.57752 0.0
H2396 H 0.43317 0.27614 0.38492 0.0
H2397 H 0.46991 0.30658 0.32323 0.0
H2398 H 0.39676 0.2738 0.36255 0.0
H2399 H 0.43348 0.30391 0.30067 0.0
H2400 H 0.34403 0.24584 0.30853 0.0
H2401 H 0.38115 0.24983 0.3296 0.0
H2402 H 0.39321 0.31969 0.29729 0.0
H2403 H 0.35624 0.31554 0.27593 0.0
C2404 C 0.43344 0.28263 0.36667 0.0
C2405 C 0.45456 0.29157 0.35594 0.0
C2406 C 0.41257 0.281 0.3537 0.0
C2407 C 0.41216 0.2883 0.32961 0.0
C2408 C 0.43304 0.29817 0.31918 0.0
C2409 C 0.45397 0.29973 0.33215 0.0
C2410 C 0.35475 0.26189 0.30561 0.0
C2411 C 0.34707 0.28032 0.29043 0.0
C2412 C 0.37595 0.26434 0.31795 0.0
C2413 C 0.39014 0.28525 0.31545 0.0
C2414 C 0.38288 0.30328 0.2996 0.0
C2415 C 0.36162 0.30088 0.28732 0.0
H2416 H 0.39778 0.59608 0.34273 0.0
H2417 H 0.45267 0.56461 0.29496 0.0
H2418 H 0.42311 0.5906 0.37677 0.0
H2419 H 0.4782 0.55957 0.32918 0.0
H2420 H 0.46552 0.55309 0.43406 0.0
H2421 H 0.44095 0.55467 0.39876 0.0
H2422 H 0.4985 0.58862 0.35881 0.0
H2423 H 0.52315 0.58682 0.39408 0.0
C2424 C 0.41513 0.58779 0.3395 0.0
C2425 C 0.4231 0.58049 0.3162 0.0
C2426 C 0.42962 0.58466 0.359 0.0
C2427 C 0.45246 0.5745 0.35553 0.0
C2428 C 0.46063 0.56749 0.33224 0.0
C2429 C 0.44602 0.57036 0.31272 0.0
C2430 C 0.473 0.56055 0.41763 0.0
C2431 C 0.49614 0.56994 0.41675 0.0
C2432 C 0.45891 0.56163 0.39755 0.0
C2433 C 0.46787 0.57186 0.3762 0.0
C2434 C 0.49127 0.58054 0.37506 0.0
C2435 C 0.50525 0.57971 0.39523 0.0
H2436 H 0.33325 0.7291 0.05591 0.0
H2437 H 0.26938 0.68636 0.04942 0.0
H2438 H 0.31473 0.75155 0.09011 0.0
H2439 H 0.25118 0.70845 0.08373 0.0
H2440 H 0.21612 0.76735 0.13135 0.0
H2441 H 0.23539 0.74903 0.0948 0.0
H2442 H 0.30186 0.74503 0.13135 0.0
H2443 H 0.28272 0.76402 0.16704 0.0
C2444 C 0.31543 0.72425 0.06197 0.0
C2445 C 0.30282 0.70594 0.04992 0.0
C2446 C 0.30478 0.73717 0.08149 0.0
C2447 C 0.28137 0.73198 0.0894 0.0
C2448 C 0.26902 0.71328 0.07771 0.0
C2449 C 0.2796 0.70043 0.05821 0.0
C2450 C 0.23489 0.76284 0.13119 0.0
C2451 C 0.24792 0.7665 0.15192 0.0
C2452 C 0.24589 0.7522 0.11051 0.0
C2453 C 0.27009 0.7453 0.11033 0.0
C2454 C 0.28326 0.75018 0.13082 0.0
C2455 C 0.27228 0.76073 0.15134 0.0
H2456 H 0.15852 0.5053 0.88806 0.0
H2457 H 0.09728 0.47438 0.85449 0.0
H2458 H 0.13461 0.51426 0.92447 0.0
H2459 H 0.07344 0.48212 0.89133 0.0
H2460 H 0.03191 0.52376 0.95095 0.0
H2461 H 0.05549 0.51374 0.91449 0.0
H2462 H 0.1156 0.4963 0.95762 0.0
H2463 H 0.09235 0.50773 0.99388 0.0
C2464 C 0.14004 0.5 0.88869 0.0
C2465 C 0.12972 0.48903 0.86865 0.0
C2466 C 0.12631 0.50505 0.90957 0.0
C2467 C 0.1021 0.49878 0.91092 0.0
C2468 C 0.0919 0.48758 0.8908 0.0
C2469 C 0.10554 0.48301 0.86977 0.0
C2470 C 0.05014 0.51766 0.95255 0.0
C2471 C 0.0604 0.51659 0.97511 0.0
C2472 C 0.06363 0.51179 0.9317 0.0
C2473 C 0.0875 0.50428 0.93309 0.0
C2474 C 0.09747 0.50255 0.95582 0.0
C2475 C 0.08412 0.5089 0.97662 0.0
H2476 H 0.26002 0.37638 0.59283 0.0
H2477 H 0.31028 0.31945 0.57151 0.0
H2478 H 0.25252 0.35654 0.63133 0.0
H2479 H 0.30229 0.29929 0.60938 0.0
H2480 H 0.31121 0.28998 0.68931 0.0
H2481 H 0.31289 0.30657 0.64941 0.0
H2482 H 0.23766 0.32291 0.65527 0.0
H2483 H 0.2361 0.30657 0.69609 0.0
C2484 C 0.269 0.35929 0.59604 0.0
C2485 C 0.28597 0.34971 0.57904 0.0
C2486 C 0.2647 0.34787 0.61821 0.0
C2487 C 0.27715 0.32648 0.62391 0.0
C2488 C 0.29284 0.31609 0.60613 0.0
C2489 C 0.29729 0.32757 0.58418 0.0
C2490 C 0.29488 0.29693 0.6822 0.0
C2491 C 0.27348 0.29678 0.6961 0.0
C2492 C 0.29582 0.30635 0.65902 0.0
C2493 C 0.27537 0.31594 0.64869 0.0
C2494 C 0.25383 0.31581 0.66254 0.0
C2495 C 0.25289 0.30629 0.68593 0.0
H2496 H 0.38955 0.57351 0.17833 0.0
H2497 H 0.40896 0.50448 0.2083 0.0
H2498 H 0.40778 0.56038 0.13955 0.0
H2499 H 0.42713 0.49146 0.16961 0.0
H2500 H 0.44726 0.47317 0.08939 0.0
H2501 H 0.42074 0.48266 0.12445 0.0
H2502 H 0.45228 0.55391 0.13099 0.0
H2503 H 0.47866 0.54458 0.09655 0.0
C2504 C 0.39716 0.55535 0.17647 0.0
C2505 C 0.39821 0.54017 0.19638 0.0
C2506 C 0.40768 0.54789 0.15436 0.0
C2507 C 0.41911 0.52505 0.15176 0.0
C2508 C 0.4184 0.50912 0.17112 0.0
C2509 C 0.40814 0.51667 0.19329 0.0
C2510 C 0.44856 0.49078 0.09845 0.0
C2511 C 0.46515 0.50804 0.09031 0.0
C2512 C 0.43335 0.49622 0.11837 0.0
C2513 C 0.43425 0.51915 0.13011 0.0
C2514 C 0.45086 0.53629 0.12196 0.0
C2515 C 0.4662 0.53078 0.1024 0.0
H2516 H 0.34825 0.74669 0.93836 0.0
H2517 H 0.27215 0.7354 0.94146 0.0
H2518 H 0.34429 0.77088 0.90257 0.0
H2519 H 0.2684 0.76017 0.90587 0.0
H2520 H 0.31819 0.74735 0.82138 0.0
H2521 H 0.32656 0.7427 0.86383 0.0
H2522 H 0.28159 0.80483 0.88257 0.0
H2523 H 0.27393 0.81015 0.83974 0.0
C2524 C 0.33057 0.75015 0.93206 0.0
C2525 C 0.31056 0.73847 0.94227 0.0
C2526 C 0.32839 0.76411 0.91164 0.0
C2527 C 0.30613 0.76705 0.90155 0.0
C2528 C 0.28574 0.75815 0.91353 0.0
C2529 C 0.28793 0.74382 0.93375 0.0
C2530 C 0.31067 0.76039 0.83452 0.0
C2531 C 0.29544 0.77902 0.82753 0.0
C2532 C 0.31556 0.75787 0.85868 0.0
C2533 C 0.3048 0.77357 0.8762 0.0
C2534 C 0.29023 0.79278 0.8692 0.0
C2535 C 0.2859 0.79576 0.84485 0.0
H2536 H 0.09873 0.46367 0.75205 0.0
H2537 H 0.16277 0.49972 0.72702 0.0
H2538 H 0.07738 0.4802 0.71868 0.0
H2539 H 0.14124 0.51607 0.69337 0.0
H2540 H 0.09693 0.51699 0.62363 0.0
H2541 H 0.1198 0.50003 0.65592 0.0
H2542 H 0.06518 0.52397 0.70785 0.0
H2543 H 0.04224 0.54097 0.67539 0.0
C2544 C 0.10836 0.47485 0.73926 0.0
C2545 C 0.13244 0.48047 0.74223 0.0
C2546 C 0.09604 0.48447 0.72029 0.0
C2547 C 0.10761 0.49963 0.70371 0.0
C2548 C 0.13194 0.50443 0.70599 0.0
C2549 C 0.14423 0.49506 0.7252 0.0
C2550 C 0.08982 0.51856 0.64194 0.0
C2551 C 0.06775 0.53009 0.64708 0.0
C2552 C 0.10297 0.50905 0.66039 0.0
C2553 C 0.09416 0.51059 0.68428 0.0
C2554 C 0.07222 0.52236 0.68949 0.0
C2555 C 0.05922 0.53222 0.67104 0.0
H2556 H 0.27067 0.39092 0.44741 0.0
H2557 H 0.31923 0.33088 0.45678 0.0
H2558 H 0.26101 0.37407 0.40775 0.0
H2559 H 0.30956 0.31414 0.41738 0.0
H2560 H 0.27151 0.27761 0.3554 0.0
H2561 H 0.27712 0.29479 0.39566 0.0
H2562 H 0.27974 0.36705 0.36672 0.0
H2563 H 0.27416 0.34984 0.3263 0.0
C2564 C 0.27919 0.37406 0.44116 0.0
C2565 C 0.29576 0.36234 0.45551 0.0
C2566 C 0.27375 0.36446 0.41828 0.0
C2567 C 0.28443 0.34264 0.4092 0.0
C2568 C 0.30071 0.33078 0.42374 0.0
C2569 C 0.30638 0.34052 0.4464 0.0
C2570 C 0.27294 0.29721 0.35758 0.0
C2571 C 0.27228 0.31226 0.33742 0.0
C2572 C 0.27638 0.30708 0.38074 0.0
C2573 C 0.27908 0.33237 0.38461 0.0
C2574 C 0.27758 0.34753 0.36458 0.0
C2575 C 0.27439 0.33762 0.34132 0.0
H2576 H 0.36988 0.42389 0.54452 0.0
H2577 H 0.35082 0.46566 0.48331 0.0
H2578 H 0.4064 0.44656 0.54754 0.0
H2579 H 0.38851 0.48721 0.48476 0.0
H2580 H 0.4487 0.53822 0.50343 0.0
H2581 H 0.41137 0.51613 0.50117 0.0
H2582 H 0.44351 0.45525 0.53648 0.0
H2583 H 0.47971 0.47831 0.54044 0.0
C2584 C 0.37387 0.4375 0.53118 0.0
C2585 C 0.35738 0.44281 0.5136 0.0
C2586 C 0.39509 0.45062 0.53281 0.0
C2587 C 0.40103 0.46912 0.51643 0.0
C2588 C 0.38475 0.47374 0.49823 0.0
C2589 C 0.36313 0.46105 0.49708 0.0
C2590 C 0.44751 0.52028 0.51111 0.0
C2591 C 0.4671 0.51027 0.52251 0.0
C2592 C 0.4261 0.50729 0.5095 0.0
C2593 C 0.42384 0.48349 0.51855 0.0
C2594 C 0.44374 0.47359 0.52981 0.0
C2595 C 0.46481 0.48687 0.53205 0.0
H2596 H 0.84161 0.09966 0.52428 0.0
H2597 H 0.88431 0.15422 0.48864 0.0
H2598 H 0.87712 0.07473 0.52887 0.0
H2599 H 0.91967 0.12911 0.49286 0.0
H2600 H 0.98042 0.08654 0.52683 0.0
H2601 H 0.94596 0.11307 0.52289 0.0
H2602 H 0.90411 0.05093 0.50174 0.0
H2603 H 0.93837 0.02427 0.50619 0.0
C2604 C 0.85859 0.10641 0.51761 0.0
C2605 C 0.86019 0.12886 0.50609 0.0
C2606 C 0.87887 0.09205 0.52004 0.0
C2607 C 0.90109 0.09987 0.51095 0.0
C2608 C 0.9028 0.1227 0.50016 0.0
C2609 C 0.88253 0.13707 0.49775 0.0
C2610 C 0.96394 0.07857 0.52109 0.0
C2611 C 0.96205 0.0533 0.51692 0.0
C2612 C 0.94422 0.09378 0.51882 0.0
C2613 C 0.9223 0.084 0.51231 0.0
C2614 C 0.92067 0.05887 0.50729 0.0
C2615 C 0.94035 0.04366 0.50959 0.0
H2616 H 0.72184 0.06749 0.36238 0.0
H2617 H 0.67183 0.06533 0.30508 0.0
H2618 H 0.73635 0.10668 0.34841 0.0
H2619 H 0.68605 0.10461 0.29149 0.0
H2620 H 0.74395 0.14865 0.25265 0.0
H2621 H 0.72408 0.11439 0.27125 0.0
H2622 H 0.72776 0.15031 0.34097 0.0
H2623 H 0.74846 0.1845 0.3223 0.0
C2624 C 0.71352 0.07564 0.34721 0.0
C2625 C 0.69602 0.06309 0.33455 0.0
C2626 C 0.7218 0.09812 0.33925 0.0
C2627 C 0.71264 0.10842 0.31858 0.0
C2628 C 0.69382 0.09679 0.30714 0.0
C2629 C 0.68563 0.07434 0.315 0.0
C2630 C 0.74073 0.1492 0.27195 0.0
C2631 C 0.7479 0.16921 0.28602 0.0
C2632 C 0.729 0.12973 0.28258 0.0
C2633 C 0.72415 0.1298 0.30754 0.0
C2634 C 0.73129 0.14979 0.32169 0.0
C2635 C 0.74299 0.16938 0.31099 0.0
H2636 H 0.72389 0.97703 0.98474 0.0
H2637 H 0.71182 0.93072 0.04568 0.0
H2638 H 0.68384 0.99398 0.99074 0.0
H2639 H 0.67168 0.94775 0.05165 0.0
H2640 H 0.61215 0.00563 0.06981 0.0
H2641 H 0.65203 0.9877 0.0641 0.0
H2642 H 0.64184 0.9809 0.98767 0.0
H2643 H 0.60218 0.99872 0.9933 0.0
C2644 C 0.71267 0.97036 0.99935 0.0
C2645 C 0.72112 0.95246 0.01469 0.0
C2646 C 0.68966 0.98003 0.00274 0.0
C2647 C 0.67455 0.97227 0.02172 0.0
C2648 C 0.68294 0.95431 0.03702 0.0
C2649 C 0.70589 0.94441 0.03346 0.0
C2650 C 0.61844 1.00033 0.0518 0.0
C2651 C 0.60395 0.00368 0.03202 0.0
C2652 C 0.64123 0.98991 0.04854 0.0
C2653 C 0.65015 0.98289 0.02541 0.0
C2654 C 0.63564 0.98633 0.00568 0.0
C2655 C 0.61283 0.99645 0.00895 0.0
H2656 H 0.33059 0.50439 0.32018 0.0
H2657 H 0.37689 0.5018 0.25645 0.0
H2658 H 0.31587 0.46395 0.30983 0.0
H2659 H 0.36275 0.46122 0.2465 0.0
H2660 H 0.30954 0.40567 0.21947 0.0
H2661 H 0.3264 0.44457 0.23179 0.0
H2662 H 0.32567 0.42142 0.30559 0.0
H2663 H 0.30759 0.38329 0.29356 0.0
C2664 C 0.33802 0.49496 0.30429 0.0
C2665 C 0.35469 0.50636 0.289 0.0
C2666 C 0.3296 0.4718 0.29834 0.0
C2667 C 0.33789 0.45957 0.27713 0.0
C2668 C 0.35556 0.47045 0.26262 0.0
C2669 C 0.3638 0.49363 0.26844 0.0
C2670 C 0.31276 0.40899 0.23833 0.0
C2671 C 0.30734 0.39128 0.25544 0.0
C2672 C 0.32273 0.43113 0.24537 0.0
C2673 C 0.32756 0.43597 0.26966 0.0
C2674 C 0.32204 0.41831 0.28677 0.0
C2675 C 0.31196 0.39627 0.27977 0.0
H2676 H 0.2106 0.6193 0.95465 0.0
H2677 H 0.22888 0.65731 0.02022 0.0
H2678 H 0.17642 0.60145 0.97557 0.0
H2679 H 0.1957 0.6384 0.04155 0.0
H2680 H 0.12284 0.61227 0.06967 0.0
H2681 H 0.15484 0.63438 0.04889 0.0
H2682 H 0.16941 0.57082 0.00302 0.0
H2683 H 0.13659 0.5497 0.023 0.0
C2684 C 0.20719 0.62395 0.9735 0.0
C2685 C 0.22243 0.6396 0.98578 0.0
C2686 C 0.18779 0.61348 0.98563 0.0
C2687 C 0.18354 0.61797 0.01048 0.0
C2688 C 0.19822 0.63458 0.02245 0.0
C2689 C 0.21732 0.64543 0.01018 0.0
C2690 C 0.13328 0.60309 0.0554 0.0
C2691 C 0.12753 0.57938 0.04788 0.0
C2692 C 0.15153 0.61569 0.0434 0.0
C2693 C 0.16456 0.60458 0.02393 0.0
C2694 C 0.15935 0.58033 0.01734 0.0
C2695 C 0.14086 0.56802 0.029 0.0
H2696 H 0.74373 0.97018 0.27598 0.0
H2697 H 0.76125 0.94964 0.34786 0.0
H2698 H 0.76838 0.9368 0.2594 0.0
H2699 H 0.78531 0.91602 0.33123 0.0
H2700 H 0.81498 0.84724 0.29598 0.0
H2701 H 0.81472 0.89171 0.30331 0.0
H2702 H 0.74798 0.89689 0.26747 0.0
H2703 H 0.74808 0.85321 0.26072 0.0
C2704 C 0.7536 0.95921 0.28821 0.0
C2705 C 0.74964 0.96173 0.31323 0.0
C2706 C 0.76781 0.94017 0.27869 0.0
C2707 C 0.77788 0.92331 0.2941 0.0
C2708 C 0.7775 0.92857 0.31893 0.0
C2709 C 0.76349 0.94779 0.32847 0.0
C2710 C 0.80053 0.85812 0.28945 0.0
C2711 C 0.78129 0.84694 0.27829 0.0
C2712 C 0.80047 0.88344 0.29346 0.0
C2713 C 0.78152 0.89777 0.28569 0.0
C2714 C 0.76312 0.88649 0.27324 0.0
C2715 C 0.76292 0.86139 0.26976 0.0
H2716 H 0.78419 0.09947 0.81405 0.0
H2717 H 0.81061 0.11869 0.74311 0.0
H2718 H 0.75288 0.13015 0.81197 0.0
H2719 H 0.78021 0.14977 0.74144 0.0
H2720 H 0.75786 0.21567 0.81932 0.0
H2721 H 0.76188 0.17186 0.81771 0.0
H2722 H 0.74324 0.1708 0.74289 0.0
H2723 H 0.73997 0.21518 0.74438 0.0
C2724 C 0.78293 0.10974 0.79774 0.0
C2725 C 0.80051 0.10745 0.7792 0.0
C2726 C 0.76498 0.12734 0.79655 0.0
C2727 C 0.76463 0.14316 0.77701 0.0
C2728 C 0.77996 0.13817 0.75693 0.0
C2729 C 0.79768 0.12038 0.75798 0.0
C2730 C 0.75393 0.20609 0.80269 0.0
C2731 C 0.7495 0.21889 0.78175 0.0
C2732 C 0.75594 0.18078 0.8018 0.0
C2733 C 0.75352 0.16775 0.77993 0.0
C2734 C 0.74582 0.18036 0.75984 0.0
C2735 C 0.74391 0.20579 0.76071 0.0
loop_
_geom_bond_atom_site_label_1
_geom_bond_atom_site_label_2
_geom_bond_distance
_geom_bond_site_symmetry_2
_ccdc_geom_bond_type
Mg0 O1 2.028 . S
Mg0 O7 1.986 . S
Mg0 O9 2.114 . S
Mg0 O10 2.251 1_455 S
Mg0 O13 2.010 . S
O1 Mg0 2.028 . S
O1 C4 1.250 . S
O2 Mg3 2.028 1_455 S
O2 C4 1.248 . S
Mg3 O2 2.028 1_655 S
Mg3 O8 2.032 1_655 S
Mg3 O10 2.079 . S
C4 O1 1.250 . S
C4 O2 1.248 . S
C5 O6 1.264 . S
C5 O13 1.249 . S
O6 C5 1.264 . S
O7 Mg0 1.986 . S
O7 C11 1.246 . S
O8 Mg3 2.032 1_455 S
O8 C11 1.259 . S
O9 Mg0 2.114 . S
O9 C12 1.252 1_455 S
O10 Mg0 2.251 1_655 S
O10 Mg3 2.079 . S
O10 C12 1.273 . S
C11 O7 1.246 . S
C11 O8 1.259 . S
C12 O9 1.252 1_655 S
C12 O10 1.273 . S
O13 Mg0 2.010 . S
O13 C5 1.249 . S
Mg14 O15 2.028 . S
Mg14 O21 1.986 . S
Mg14 O23 2.114 . S
Mg14 O24 2.251 . S
Mg14 O27 2.010 . S
O15 Mg14 2.028 . S
O15 C18 1.250 . S
O16 Mg17 2.043 . S
O16 C18 1.248 . S
Mg17 O16 2.043 . S
Mg17 O22 2.046 . S
Mg17 O24 2.083 . S
C18 O15 1.250 . S
C18 O16 1.248 . S
C19 O20 1.264 . S
C19 O27 1.249 . S
O20 C19 1.264 . S
O21 Mg14 1.986 . S
O21 C25 1.246 . S
O22 Mg17 2.046 . S
O22 C25 1.259 . S
O23 Mg14 2.114 . S
O23 C26 1.252 . S
O24 Mg14 2.251 . S
O24 Mg17 2.083 . S
O24 C26 1.273 . S
C25 O21 1.246 . S
C25 O22 1.259 . S
C26 O23 1.252 . S
C26 O24 1.273 . S
O27 Mg14 2.010 . S
O27 C19 1.249 . S
Mg28 O29 2.028 . S
Mg28 O35 1.986 . S
Mg28 O37 2.114 . S
Mg28 O38 2.251 . S
Mg28 O41 2.010 . S
O29 Mg28 2.028 . S
O29 C32 1.250 . S
O30 Mg31 2.028 . S
O30 C32 1.248 . S
Mg31 O30 2.028 . S
Mg31 O36 2.032 . S
Mg31 O38 2.079 . S
C32 O29 1.250 . S
C32 O30 1.248 . S
C33 O34 1.264 . S
C33 O41 1.249 . S
O34 C33 1.264 . S
O35 Mg28 1.986 . S
O35 C39 1.246 . S
O36 Mg31 2.032 . S
O36 C39 1.259 . S
O37 Mg28 2.114 . S
O37 C40 1.252 . S
O38 Mg28 2.251 . S
O38 Mg31 2.079 . S
O38 C40 1.273 . S
C39 O35 1.246 . S
C39 O36 1.259 . S
C40 O37 1.252 . S
C40 O38 1.273 . S
O41 Mg28 2.010 . S
O41 C33 1.249 . S
Mg42 O43 2.028 . S
Mg42 O49 1.986 . S
Mg42 O51 2.114 . S
Mg42 O52 2.251 . S
Mg42 O55 2.010 . S
O43 Mg42 2.028 . S
O43 C46 1.250 . S
O44 Mg45 2.028 . S
O44 C46 1.248 . S
Mg45 O44 2.028 . S
Mg45 O50 2.032 . S
Mg45 O52 2.079 . S
C46 O43 1.250 . S
C46 O44 1.248 . S
C47 O48 1.264 . S
C47 O55 1.249 . S
O48 C47 1.264 . S
O49 Mg42 1.986 . S
O49 C53 1.246 . S
O50 Mg45 2.032 . S
O50 C53 1.259 . S
O51 Mg42 2.114 . S
O51 C54 1.252 . S
O52 Mg42 2.251 . S
O52 Mg45 2.079 . S
O52 C54 1.273 . S
C53 O49 1.246 . S
C53 O50 1.259 . S
C54 O51 1.252 . S
C54 O52 1.273 . S
O55 Mg42 2.010 . S
O55 C47 1.249 . S
Mg56 O57 2.028 1_565 S
Mg56 O63 1.986 . S
Mg56 O65 2.114 1_565 S
Mg56 O66 2.254 . S
Mg56 O69 2.010 . S
O57 Mg56 2.028 1_545 S
O57 C60 1.250 . S
O58 Mg59 2.028 . S
O58 C60 1.248 . S
Mg59 O58 2.028 . S
Mg59 O64 2.032 1_545 S
Mg59 O66 2.075 1_545 S
C60 O57 1.250 . S
C60 O58 1.248 . S
C61 O62 1.283 . S
C61 O69 1.257 . S
O62 C61 1.283 . S
O63 Mg56 1.986 . S
O63 C67 1.246 . S
O64 Mg59 2.032 1_565 S
O64 C67 1.259 . S
O65 Mg56 2.114 1_545 S
O65 C68 1.252 . S
O66 Mg56 2.254 . S
O66 Mg59 2.075 1_565 S
O66 C68 1.258 1_565 S
C67 O63 1.246 . S
C67 O64 1.259 . S
C68 O65 1.252 . S
C68 O66 1.258 1_545 S
O69 Mg56 2.010 . S
O69 C61 1.257 . S
Mg70 O71 2.028 . S
Mg70 O77 1.986 . S
Mg70 O79 2.114 . S
Mg70 O80 2.251 . S
Mg70 O83 2.010 . S
O71 Mg70 2.028 . S
O71 C74 1.250 . S
O72 Mg73 2.028 . S
O72 C74 1.248 . S
Mg73 O72 2.028 . S
Mg73 O78 2.032 . S
Mg73 O80 2.079 . S
C74 O71 1.250 . S
C74 O72 1.248 . S
C75 O76 1.264 . S
C75 O83 1.249 . S
O76 C75 1.264 . S
O77 Mg70 1.986 . S
O77 C81 1.246 . S
O78 Mg73 2.032 . S
O78 C81 1.259 . S
O79 Mg70 2.114 . S
O79 C82 1.252 . S
O80 Mg70 2.251 . S
O80 Mg73 2.079 . S
O80 C82 1.273 . S
C81 O77 1.246 . S
C81 O78 1.259 . S
C82 O79 1.252 . S
C82 O80 1.273 . S
O83 Mg70 2.010 . S
O83 C75 1.249 . S
Mg84 O85 2.028 . S
Mg84 O91 1.986 . S
Mg84 O93 2.114 . S
Mg84 O94 2.251 . S
Mg84 O97 2.010 . S
O85 Mg84 2.028 . S
O85 C88 1.250 . S
O86 Mg87 2.028 . S
O86 C88 1.248 . S
Mg87 O86 2.028 . S
Mg87 O92 2.032 . S
Mg87 O94 2.079 . S
C88 O85 1.250 . S
C88 O86 1.248 . S
C89 O90 1.264 . S
C89 O97 1.249 . S
O90 C89 1.264 . S
O91 Mg84 1.986 . S
O91 C95 1.246 . S
O92 Mg87 2.032 . S
O92 C95 1.259 . S
O93 Mg84 2.114 . S
O93 C96 1.252 . S
O94 Mg84 2.251 . S
O94 Mg87 2.079 . S
O94 C96 1.273 . S
C95 O91 1.246 . S
C95 O92 1.259 . S
C96 O93 1.252 . S
C96 O94 1.273 . S
O97 Mg84 2.010 . S
O97 C89 1.249 . S
Mg98 O99 2.028 . S
Mg98 O105 1.979 1_554 S
Mg98 O107 2.114 . S
Mg98 O108 2.251 . S
Mg98 O111 2.010 . S
O99 Mg98 2.028 . S
O99 C102 1.250 . S
O100 Mg101 2.028 . S
O100 C102 1.248 . S
Mg101 O100 2.028 . S
Mg101 O106 2.032 . S
Mg101 O108 2.079 . S
C102 O99 1.250 . S
C102 O100 1.248 . S
C103 O104 1.264 . S
C103 O111 1.249 . S
O104 C103 1.264 . S
O105 Mg98 1.979 1_556 S
O105 C109 1.249 . S
O106 Mg101 2.032 . S
O106 C109 1.259 1_554 S
O107 Mg98 2.114 . S
O107 C110 1.252 . S
O108 Mg98 2.251 . S
O108 Mg101 2.079 . S
O108 C110 1.273 . S
C109 O105 1.249 . S
C109 O106 1.259 1_556 S
C110 O107 1.252 . S
C110 O108 1.273 . S
O111 Mg98 2.010 . S
O111 C103 1.249 . S
Mg112 O113 2.028 . S
Mg112 O119 1.986 . S
Mg112 O121 2.114 . S
Mg112 O122 2.251 . S
Mg112 O125 2.010 . S
O113 Mg112 2.028 . S
O113 C116 1.250 . S
O114 Mg115 2.028 . S
O114 C116 1.248 . S
Mg115 O114 2.028 . S
Mg115 O120 2.032 . S
Mg115 O122 2.079 . S
C116 O113 1.250 . S
C116 O114 1.248 . S
C117 O118 1.264 . S
C117 O125 1.249 . S
O118 C117 1.264 . S
O119 Mg112 1.986 . S
O119 C123 1.246 . S
O120 Mg115 2.032 . S
O120 C123 1.259 . S
O121 Mg112 2.114 . S
O121 C124 1.252 . S
O122 Mg112 2.251 . S
O122 Mg115 2.079 . S
O122 C124 1.273 . S
C123 O119 1.246 . S
C123 O120 1.259 . S
C124 O121 1.252 . S
C124 O122 1.273 . S
O125 Mg112 2.010 . S
O125 C117 1.249 . S
Mg126 O127 2.028 . S
Mg126 O133 1.986 . S
Mg126 O135 2.114 . S
Mg126 O136 2.251 . S
Mg126 O139 2.010 . S
O127 Mg126 2.028 . S
O127 C130 1.250 . S
O128 Mg129 2.028 . S
O128 C130 1.248 . S
Mg129 O128 2.028 . S
Mg129 O134 2.032 . S
Mg129 O136 2.079 . S
C130 O127 1.250 . S
C130 O128 1.248 . S
C131 O132 1.264 . S
C131 O139 1.249 . S
O132 C131 1.264 . S
O133 Mg126 1.986 . S
O133 C137 1.246 . S
O134 Mg129 2.032 . S
O134 C137 1.259 . S
O135 Mg126 2.114 . S
O135 C138 1.252 . S
O136 Mg126 2.251 . S
O136 Mg129 2.079 . S
O136 C138 1.273 . S
C137 O133 1.246 . S
C137 O134 1.259 . S
C138 O135 1.252 . S
C138 O136 1.273 . S
O139 Mg126 2.010 . S
O139 C131 1.249 . S
Mg140 O141 2.028 . S
Mg140 O147 1.986 . S
Mg140 O149 2.114 . S
Mg140 O150 2.251 . S
Mg140 O153 2.010 . S
O141 Mg140 2.028 . S
O141 C144 1.250 . S
O142 Mg143 2.028 . S
O142 C144 1.248 . S
Mg143 O142 2.028 . S
Mg143 O148 2.032 . S
Mg143 O150 2.079 . S
C144 O141 1.250 . S
C144 O142 1.248 . S
C145 O146 1.264 . S
C145 O153 1.249 . S
O146 C145 1.264 . S
O147 Mg140 1.986 . S
O147 C151 1.246 . S
O148 Mg143 2.032 . S
O148 C151 1.259 . S
O149 Mg140 2.114 . S
O149 C152 1.252 . S
O150 Mg140 2.251 . S
O150 Mg143 2.079 . S
O150 C152 1.273 . S
C151 O147 1.246 . S
C151 O148 1.259 . S
C152 O149 1.252 . S
C152 O150 1.273 . S
O153 Mg140 2.010 . S
O153 C145 1.249 . S
Mg154 O155 2.028 . S
Mg154 O161 1.986 . S
Mg154 O163 2.114 . S
Mg154 O164 2.251 . S
Mg154 O167 2.010 . S
O155 Mg154 2.028 . S
O155 C158 1.250 . S
O156 Mg157 2.028 . S
O156 C158 1.248 . S
Mg157 O156 2.028 . S
Mg157 O162 2.032 . S
Mg157 O164 2.079 . S
C158 O155 1.250 . S
C158 O156 1.248 . S
C159 O160 1.264 . S
C159 O167 1.249 . S
O160 C159 1.264 . S
O161 Mg154 1.986 . S
O161 C165 1.246 . S
O162 Mg157 2.032 . S
O162 C165 1.259 . S
O163 Mg154 2.114 . S
O163 C166 1.252 . S
O164 Mg154 2.251 . S
O164 Mg157 2.079 . S
O164 C166 1.273 . S
C165 O161 1.246 . S
C165 O162 1.259 . S
C166 O163 1.252 . S
C166 O164 1.273 . S
O167 Mg154 2.010 . S
O167 C159 1.249 . S
Mg168 O169 2.028 . S
Mg168 O175 1.986 . S
Mg168 O177 2.114 . S
Mg168 O178 2.251 1_455 S
Mg168 O181 2.010 . S
O169 Mg168 2.028 . S
O169 C172 1.250 . S
O170 Mg171 2.028 . S
O170 C172 1.248 1_655 S
Mg171 O170 2.028 . S
Mg171 O176 2.032 . S
Mg171 O178 2.079 . S
C172 O169 1.250 . S
C172 O170 1.248 1_455 S
C173 O174 1.264 . S
C173 O181 1.249 . S
O174 C173 1.264 . S
O175 Mg168 1.986 . S
O175 C179 1.246 . S
O176 Mg171 2.032 . S
O176 C179 1.259 1_655 S
O177 Mg168 2.114 . S
O177 C180 1.252 1_455 S
O178 Mg168 2.251 1_655 S
O178 Mg171 2.079 . S
O178 C180 1.273 . S
C179 O175 1.246 . S
C179 O176 1.259 1_455 S
C180 O177 1.252 1_655 S
C180 O178 1.273 . S
O181 Mg168 2.010 . S
O181 C173 1.249 . S
Mg182 O183 2.028 . S
Mg182 O189 1.986 . S
Mg182 O191 2.114 1_455 S
Mg182 O192 2.251 1_455 S
Mg182 O195 2.010 . S
O183 Mg182 2.028 . S
O183 C186 1.250 1_455 S
O184 Mg185 2.028 . S
O184 C186 1.248 . S
Mg185 O184 2.028 . S
Mg185 O190 2.032 . S
Mg185 O192 2.079 . S
C186 O183 1.250 1_655 S
C186 O184 1.248 . S
C187 O188 1.264 . S
C187 O195 1.249 . S
O188 C187 1.264 . S
O189 Mg182 1.986 . S
O189 C193 1.246 1_455 S
O190 Mg185 2.032 . S
O190 C193 1.259 . S
O191 Mg182 2.114 1_655 S
O191 C194 1.252 . S
O192 Mg182 2.251 1_655 S
O192 Mg185 2.079 . S
O192 C194 1.273 . S
C193 O189 1.246 1_655 S
C193 O190 1.259 . S
C194 O191 1.252 . S
C194 O192 1.273 . S
O195 Mg182 2.010 . S
O195 C187 1.249 . S
Mg196 O197 2.028 . S
Mg196 O203 1.986 . S
Mg196 O205 2.114 . S
Mg196 O206 2.251 . S
Mg196 O209 2.010 . S
O197 Mg196 2.028 . S
O197 C200 1.250 . S
O198 Mg199 2.028 . S
O198 C200 1.248 . S
Mg199 O198 2.028 . S
Mg199 O204 2.032 . S
Mg199 O206 2.079 . S
C200 O197 1.250 . S
C200 O198 1.248 . S
C201 O202 1.264 . S
C201 O209 1.249 . S
O202 C201 1.264 . S
O203 Mg196 1.986 . S
O203 C207 1.246 . S
O204 Mg199 2.032 . S
O204 C207 1.259 . S
O205 Mg196 2.114 . S
O205 C208 1.252 . S
O206 Mg196 2.251 . S
O206 Mg199 2.079 . S
O206 C208 1.273 . S
C207 O203 1.246 . S
C207 O204 1.259 . S
C208 O205 1.252 . S
C208 O206 1.273 . S
O209 Mg196 2.010 . S
O209 C201 1.249 . S
Mg210 O211 2.028 . S
Mg210 O217 1.986 . S
Mg210 O219 2.114 . S
Mg210 O220 2.251 . S
Mg210 O223 2.010 . S
O211 Mg210 2.028 . S
O211 C214 1.250 . S
O212 Mg213 2.028 . S
O212 C214 1.248 . S
Mg213 O212 2.028 . S
Mg213 O218 2.032 . S
Mg213 O220 2.079 . S
C214 O211 1.250 . S
C214 O212 1.248 . S
C215 O216 1.264 . S
C215 O223 1.249 . S
O216 C215 1.264 . S
O217 Mg210 1.986 . S
O217 C221 1.246 . S
O218 Mg213 2.032 . S
O218 C221 1.259 . S
O219 Mg210 2.114 . S
O219 C222 1.252 . S
O220 Mg210 2.251 . S
O220 Mg213 2.079 . S
O220 C222 1.273 . S
C221 O217 1.246 . S
C221 O218 1.259 . S
C222 O219 1.252 . S
C222 O220 1.273 . S
O223 Mg210 2.010 . S
O223 C215 1.249 . S
Mg224 O225 2.028 . S
Mg224 O231 1.986 . S
Mg224 O233 2.114 . S
Mg224 O234 2.251 . S
Mg224 O237 2.010 . S
O225 Mg224 2.028 . S
O225 C228 1.250 . S
O226 Mg227 2.028 . S
O226 C228 1.248 . S
Mg227 O226 2.028 . S
Mg227 O232 2.032 . S
Mg227 O234 2.079 . S
C228 O225 1.250 . S
C228 O226 1.248 . S
C229 O230 1.264 . S
C229 O237 1.249 . S
O230 C229 1.264 . S
O231 Mg224 1.986 . S
O231 C235 1.246 . S
O232 Mg227 2.032 . S
O232 C235 1.259 . S
O233 Mg224 2.114 . S
O233 C236 1.252 . S
O234 Mg224 2.251 . S
O234 Mg227 2.079 . S
O234 C236 1.273 . S
C235 O231 1.246 . S
C235 O232 1.259 . S
C236 O233 1.252 . S
C236 O234 1.273 . S
O237 Mg224 2.010 . S
O237 C229 1.249 . S
Mg238 O239 2.028 . S
Mg238 O245 1.986 . S
Mg238 O247 2.114 . S
Mg238 O248 2.251 . S
Mg238 O251 2.010 . S
O239 Mg238 2.028 . S
O239 C242 1.250 . S
O240 Mg241 2.028 . S
O240 C242 1.248 . S
Mg241 O240 2.028 . S
Mg241 O246 2.032 . S
Mg241 O248 2.079 . S
C242 O239 1.250 . S
C242 O240 1.248 . S
C243 O244 1.264 . S
C243 O251 1.249 . S
O244 C243 1.264 . S
O245 Mg238 1.986 . S
O245 C249 1.246 . S
O246 Mg241 2.032 . S
O246 C249 1.259 . S
O247 Mg238 2.114 . S
O247 C250 1.252 . S
O248 Mg238 2.251 . S
O248 Mg241 2.079 . S
O248 C250 1.273 . S
C249 O245 1.246 . S
C249 O246 1.259 . S
C250 O247 1.252 . S
C250 O248 1.273 . S
O251 Mg238 2.010 . S
O251 C243 1.249 . S
Mg252 O253 2.028 1_565 S
Mg252 O259 1.986 . S
Mg252 O261 2.114 1_565 S
Mg252 O262 2.251 1_565 S
Mg252 O265 2.010 . S
O253 Mg252 2.028 1_545 S
O253 C256 1.250 . S
O254 Mg255 2.028 . S
O254 C256 1.248 . S
Mg255 O254 2.028 . S
Mg255 O260 2.032 1_545 S
Mg255 O262 2.081 . S
C256 O253 1.250 . S
C256 O254 1.248 . S
C257 O258 1.247 1_545 S
C257 O265 1.244 1_545 S
O258 C257 1.247 1_565 S
O259 Mg252 1.986 . S
O259 C263 1.246 . S
O260 Mg255 2.032 1_565 S
O260 C263 1.259 . S
O261 Mg252 2.114 1_545 S
O261 C264 1.252 . S
O262 Mg252 2.251 1_545 S
O262 Mg255 2.081 . S
O262 C264 1.280 . S
C263 O259 1.246 . S
C263 O260 1.259 . S
C264 O261 1.252 . S
C264 O262 1.280 . S
O265 Mg252 2.010 . S
O265 C257 1.244 1_565 S
Mg266 O267 2.028 . S
Mg266 O273 1.986 . S
Mg266 O275 2.114 . S
Mg266 O276 2.251 . S
Mg266 O279 2.010 . S
O267 Mg266 2.028 . S
O267 C270 1.250 1_554 S
O268 Mg269 2.028 1_556 S
O268 C270 1.248 . S
Mg269 O268 2.028 1_554 S
Mg269 O274 2.032 . S
Mg269 O276 2.079 . S
C270 O267 1.250 1_556 S
C270 O268 1.248 . S
C271 O272 1.264 . S
C271 O279 1.249 . S
O272 C271 1.264 . S
O273 Mg266 1.986 . S
O273 C277 1.246 . S
O274 Mg269 2.032 . S
O274 C277 1.259 . S
O275 Mg266 2.114 . S
O275 C278 1.252 . S
O276 Mg266 2.251 . S
O276 Mg269 2.079 . S
O276 C278 1.273 . S
C277 O273 1.246 . S
C277 O274 1.259 . S
C278 O275 1.252 . S
C278 O276 1.273 . S
O279 Mg266 2.010 . S
O279 C271 1.249 . S
Mg280 O281 2.028 1_556 S
Mg280 O287 1.986 . S
Mg280 O289 2.114 1_556 S
Mg280 O290 2.251 . S
Mg280 O293 2.010 . S
O281 Mg280 2.028 1_554 S
O281 C284 1.250 . S
O282 Mg283 2.028 1_554 S
O282 C284 1.248 . S
Mg283 O282 2.028 1_556 S
Mg283 O288 2.032 . S
Mg283 O290 2.079 . S
C284 O281 1.250 . S
C284 O282 1.248 . S
C285 O286 1.264 . S
C285 O293 1.249 . S
O286 C285 1.264 . S
O287 Mg280 1.986 . S
O287 C291 1.246 . S
O288 Mg283 2.032 . S
O288 C291 1.259 . S
O289 Mg280 2.114 1_554 S
O289 C292 1.263 . S
O290 Mg280 2.251 . S
O290 Mg283 2.079 . S
O290 C292 1.258 1_556 S
C291 O287 1.246 . S
C291 O288 1.259 . S
C292 O289 1.263 . S
C292 O290 1.258 1_554 S
O293 Mg280 2.010 . S
O293 C285 1.249 . S
Mg294 O295 2.028 . S
Mg294 O301 1.986 . S
Mg294 O303 2.114 . S
Mg294 O304 2.251 . S
Mg294 O307 2.010 . S
O295 Mg294 2.028 . S
O295 C298 1.250 . S
O296 Mg297 2.028 . S
O296 C298 1.248 . S
Mg297 O296 2.028 . S
Mg297 O302 2.032 . S
Mg297 O304 2.079 . S
C298 O295 1.250 . S
C298 O296 1.248 . S
C299 O300 1.264 . S
C299 O307 1.249 . S
O300 C299 1.264 . S
O301 Mg294 1.986 . S
O301 C305 1.246 . S
O302 Mg297 2.032 . S
O302 C305 1.259 . S
O303 Mg294 2.114 . S
O303 C306 1.252 . S
O304 Mg294 2.251 . S
O304 Mg297 2.079 . S
O304 C306 1.273 . S
C305 O301 1.246 . S
C305 O302 1.259 . S
C306 O303 1.252 . S
C306 O304 1.273 . S
O307 Mg294 2.010 . S
O307 C299 1.249 . S
Mg308 O309 2.028 . S
Mg308 O315 1.986 . S
Mg308 O317 2.114 . S
Mg308 O318 2.251 . S
Mg308 O321 2.010 . S
O309 Mg308 2.028 . S
O309 C312 1.250 . S
O310 Mg311 2.028 . S
O310 C312 1.248 . S
Mg311 O310 2.028 . S
Mg311 O316 2.032 . S
Mg311 O318 2.079 . S
C312 O309 1.250 . S
C312 O310 1.248 . S
C313 O314 1.264 . S
C313 O321 1.249 . S
O314 C313 1.264 . S
O315 Mg308 1.986 . S
O315 C319 1.246 . S
O316 Mg311 2.032 . S
O316 C319 1.259 . S
O317 Mg308 2.114 . S
O317 C320 1.252 . S
O318 Mg308 2.251 . S
O318 Mg311 2.079 . S
O318 C320 1.273 . S
C319 O315 1.246 . S
C319 O316 1.259 . S
C320 O317 1.252 . S
C320 O318 1.273 . S
O321 Mg308 2.010 . S
O321 C313 1.249 . S
Mg322 O323 2.028 . S
Mg322 O329 1.986 . S
Mg322 O331 2.114 . S
Mg322 O332 2.251 . S
Mg322 O335 2.010 . S
O323 Mg322 2.028 . S
O323 C326 1.250 . S
O324 Mg325 2.028 . S
O324 C326 1.248 . S
Mg325 O324 2.028 . S
Mg325 O330 2.032 . S
Mg325 O332 2.079 . S
C326 O323 1.250 . S
C326 O324 1.248 . S
C327 O328 1.264 . S
C327 O335 1.249 . S
O328 C327 1.264 . S
O329 Mg322 1.986 . S
O329 C333 1.246 . S
O330 Mg325 2.032 . S
O330 C333 1.259 . S
O331 Mg322 2.114 . S
O331 C334 1.252 . S
O332 Mg322 2.251 . S
O332 Mg325 2.079 . S
O332 C334 1.273 . S
C333 O329 1.246 . S
C333 O330 1.259 . S
C334 O331 1.252 . S
C334 O332 1.273 . S
O335 Mg322 2.010 . S
O335 C327 1.249 . S
Co336 N341 2.057 1_554 S
Co336 O353 2.021 1_554 S
Co336 O356 2.062 1_455 S
Co336 O360 2.117 . S
Co336 O361 2.020 . S
C337 O357 1.259 . S
C337 O360 1.258 . S
Co338 N347 2.057 . S
Co338 O354 2.117 1_545 S
Co338 O355 2.020 1_455 S
Co338 O357 2.021 . S
Co338 O362 2.062 . S
C339 N341 1.316 1_655 S
C339 N342 1.347 . S
C339 H344 0.931 . S
C340 N341 1.375 1_655 S
C340 C343 1.350 . S
C340 H345 0.930 . S
N341 Co336 2.057 1_556 S
N341 C339 1.316 1_455 S
N341 C340 1.375 1_455 S
N342 C339 1.347 . S
N342 C343 1.373 . S
C343 C340 1.350 . S
C343 N342 1.373 . S
C343 H364 0.931 . S
H344 C339 0.931 . S
H345 C340 0.930 . S
C346 O353 1.259 1_564 S
C346 O354 1.258 . S
N347 Co338 2.057 . S
N347 C348 1.316 . S
N347 C349 1.375 1_545 S
C348 N347 1.316 . S
C348 N350 1.372 . S
C348 H359 0.931 . S
C349 N347 1.375 1_565 S
C349 C351 1.350 . S
C349 H358 0.930 . S
N350 C348 1.372 . S
N350 C351 1.340 1_545 S
C351 C349 1.350 . S
C351 N350 1.340 1_565 S
C351 H365 0.931 . S
C352 O355 1.256 . S
C352 O356 1.255 . S
O353 Co336 2.021 1_556 S
O353 C346 1.259 1_546 S
O354 Co338 2.117 1_565 S
O354 C346 1.258 . S
O355 Co338 2.020 1_655 S
O355 C352 1.256 . S
O356 Co336 2.062 1_655 S
O356 C352 1.255 . S
O357 C337 1.259 . S
O357 Co338 2.021 . S
H358 C349 0.930 . S
H359 C348 0.931 . S
O360 Co336 2.117 . S
O360 C337 1.258 . S
O361 Co336 2.020 . S
O361 C363 1.256 . S
O362 Co338 2.062 . S
O362 C363 1.255 . S
C363 O361 1.256 . S
C363 O362 1.255 . S
H364 C343 0.931 . S
H365 C351 0.931 . S
Co366 N371 2.057 . S
Co366 O383 2.021 . S
Co366 O386 2.062 . S
Co366 O390 2.117 . S
Co366 O391 2.020 . S
C367 O387 1.259 . S
C367 O390 1.258 . S
Co368 N377 2.057 . S
Co368 O384 2.117 . S
Co368 O385 2.020 . S
Co368 O387 2.021 . S
Co368 O392 2.062 . S
C369 N371 1.316 . S
C369 N372 1.347 . S
C369 H374 0.931 . S
C370 N371 1.375 . S
C370 C373 1.350 . S
C370 H375 0.930 . S
N371 Co366 2.057 . S
N371 C369 1.316 . S
N371 C370 1.375 . S
N372 C369 1.347 . S
N372 C373 1.373 . S
C373 C370 1.350 . S
C373 N372 1.373 . S
C373 H394 0.931 . S
H374 C369 0.931 . S
H375 C370 0.930 . S
C376 O383 1.259 . S
C376 O384 1.258 . S
N377 Co368 2.057 . S
N377 C378 1.316 . S
N377 C379 1.375 . S
C378 N377 1.316 . S
C378 N380 1.347 . S
C378 H389 0.931 . S
C379 N377 1.375 . S
C379 C381 1.350 . S
C379 H388 0.930 . S
N380 C378 1.347 . S
N380 C381 1.373 . S
C381 C379 1.350 . S
C381 N380 1.373 . S
C381 H395 0.931 . S
C382 O385 1.256 . S
C382 O386 1.255 . S
O383 Co366 2.021 . S
O383 C376 1.259 . S
O384 Co368 2.117 . S
O384 C376 1.258 . S
O385 Co368 2.020 . S
O385 C382 1.256 . S
O386 Co366 2.062 . S
O386 C382 1.255 . S
O387 C367 1.259 . S
O387 Co368 2.021 . S
H388 C379 0.930 . S
H389 C378 0.931 . S
O390 Co366 2.117 . S
O390 C367 1.258 . S
O391 Co366 2.020 . S
O391 C393 1.256 . S
O392 Co368 2.062 . S
O392 C393 1.255 . S
C393 O391 1.256 . S
C393 O392 1.255 . S
H394 C373 0.931 . S
H395 C381 0.931 . S
Co396 N401 2.057 . S
Co396 O413 2.021 1_545 S
Co396 O416 2.062 . S
Co396 O420 2.117 . S
Co396 O421 2.020 . S
C397 O417 1.259 . S
C397 O420 1.258 . S
Co398 N407 2.057 . S
Co398 O414 2.117 . S
Co398 O415 2.020 . S
Co398 O417 2.021 . S
Co398 O422 2.062 . S
C399 N401 1.316 1_565 S
C399 N402 1.347 . S
C399 H404 0.931 . S
C400 N401 1.375 . S
C400 C403 1.350 . S
C400 H405 0.930 . S
N401 Co396 2.057 . S
N401 C399 1.316 1_545 S
N401 C400 1.375 . S
N402 C399 1.347 . S
N402 C403 1.373 1_565 S
C403 C400 1.350 . S
C403 N402 1.373 1_545 S
C403 H424 0.931 . S
H404 C399 0.931 . S
H405 C400 0.930 . S
C406 O413 1.259 . S
C406 O414 1.258 1_565 S
N407 Co398 2.057 . S
N407 C408 1.316 . S
N407 C409 1.375 . S
C408 N407 1.316 . S
C408 N410 1.347 . S
C408 H419 0.931 . S
C409 N407 1.375 . S
C409 C411 1.350 . S
C409 H418 0.930 . S
N410 C408 1.347 . S
N410 C411 1.373 . S
C411 C409 1.350 . S
C411 N410 1.373 . S
C411 H425 0.931 . S
C412 O415 1.256 . S
C412 O416 1.255 . S
O413 Co396 2.021 1_565 S
O413 C406 1.259 . S
O414 Co398 2.117 . S
O414 C406 1.258 1_545 S
O415 Co398 2.020 . S
O415 C412 1.256 . S
O416 Co396 2.062 . S
O416 C412 1.255 . S
O417 C397 1.259 . S
O417 Co398 2.021 . S
H418 C409 0.930 . S
H419 C408 0.931 . S
O420 Co396 2.117 . S
O420 C397 1.258 . S
O421 Co396 2.020 . S
O421 C423 1.256 . S
O422 Co398 2.062 . S
O422 C423 1.255 . S
C423 O421 1.256 . S
C423 O422 1.255 . S
H424 C403 0.931 . S
H425 C411 0.931 . S
Co426 N431 2.057 . S
Co426 O443 2.021 . S
Co426 O446 2.062 . S
Co426 O450 2.117 . S
Co426 O451 2.020 . S
C427 O447 1.259 . S
C427 O450 1.258 . S
Co428 N437 2.057 . S
Co428 O444 2.117 . S
Co428 O445 2.020 . S
Co428 O447 2.021 . S
Co428 O452 2.062 . S
C429 N431 1.316 . S
C429 N432 1.347 . S
C429 H434 0.931 . S
C430 N431 1.375 . S
C430 C433 1.350 . S
C430 H435 0.930 . S
N431 Co426 2.057 . S
N431 C429 1.316 . S
N431 C430 1.375 . S
N432 C429 1.347 . S
N432 C433 1.373 . S
C433 C430 1.350 . S
C433 N432 1.373 . S
C433 H454 0.931 . S
H434 C429 0.931 . S
H435 C430 0.930 . S
C436 O443 1.259 . S
C436 O444 1.258 . S
N437 Co428 2.057 . S
N437 C438 1.316 . S
N437 C439 1.375 . S
C438 N437 1.316 . S
C438 N440 1.347 . S
C438 H449 0.931 . S
C439 N437 1.375 . S
C439 C441 1.350 . S
C439 H448 0.930 . S
N440 C438 1.347 . S
N440 C441 1.373 . S
C441 C439 1.350 . S
C441 N440 1.373 . S
C441 H455 0.931 . S
C442 O445 1.256 . S
C442 O446 1.255 . S
O443 Co426 2.021 . S
O443 C436 1.259 . S
O444 Co428 2.117 . S
O444 C436 1.258 . S
O445 Co428 2.020 . S
O445 C442 1.256 . S
O446 Co426 2.062 . S
O446 C442 1.255 . S
O447 C427 1.259 . S
O447 Co428 2.021 . S
H448 C439 0.930 . S
H449 C438 0.931 . S
O450 Co426 2.117 . S
O450 C427 1.258 . S
O451 Co426 2.020 . S
O451 C453 1.256 . S
O452 Co428 2.062 . S
O452 C453 1.255 . S
C453 O451 1.256 . S
C453 O452 1.255 . S
H454 C433 0.931 . S
H455 C441 0.931 . S
Co456 N461 2.057 1_545 S
Co456 O473 2.021 . S
Co456 O476 2.053 1_545 S
Co456 O480 2.117 . S
Co456 O481 2.020 1_455 S
C457 O477 1.259 . S
C457 O480 1.258 . S
Co458 N467 2.057 . S
Co458 O474 2.117 . S
Co458 O475 2.020 . S
Co458 O477 2.021 . S
Co458 O482 2.062 1_455 S
C459 N461 1.316 . S
C459 N462 1.347 . S
C459 H464 0.931 . S
C460 N461 1.375 1_655 S
C460 C463 1.350 . S
C460 H465 0.930 . S
N461 Co456 2.057 1_565 S
N461 C459 1.316 . S
N461 C460 1.375 1_455 S
N462 C459 1.347 . S
N462 C463 1.373 1_455 S
C463 C460 1.350 . S
C463 N462 1.373 1_655 S
C463 H484 0.931 . S
H464 C459 0.931 . S
H465 C460 0.930 . S
C466 O473 1.259 . S
C466 O474 1.258 . S
N467 Co458 2.057 . S
N467 C468 1.316 . S
N467 C469 1.375 . S
C468 N467 1.316 . S
C468 N470 1.347 . S
C468 H479 0.931 . S
C469 N467 1.375 . S
C469 C471 1.350 . S
C469 H478 0.930 . S
N470 C468 1.347 . S
N470 C471 1.373 . S
C471 C469 1.350 . S
C471 N470 1.373 . S
C471 H485 0.931 . S
C472 O475 1.256 . S
C472 O476 1.231 1_545 S
O473 Co456 2.021 . S
O473 C466 1.259 . S
O474 Co458 2.117 . S
O474 C466 1.258 . S
O475 Co458 2.020 . S
O475 C472 1.256 . S
O476 Co456 2.053 1_565 S
O476 C472 1.231 1_565 S
O477 C457 1.259 . S
O477 Co458 2.021 . S
H478 C469 0.930 . S
H479 C468 0.931 . S
O480 Co456 2.117 . S
O480 C457 1.258 . S
O481 Co456 2.020 1_655 S
O481 C483 1.256 . S
O482 Co458 2.062 1_655 S
O482 C483 1.255 . S
C483 O481 1.256 . S
C483 O482 1.255 . S
H484 C463 0.931 . S
H485 C471 0.931 . S
Co486 N491 2.057 . S
Co486 O503 2.021 . S
Co486 O506 2.062 . S
Co486 O510 2.117 . S
Co486 O511 2.020 . S
C487 O507 1.259 . S
C487 O510 1.258 . S
Co488 N497 2.057 . S
Co488 O504 2.117 . S
Co488 O505 2.020 . S
Co488 O507 2.021 . S
Co488 O512 2.062 . S
C489 N491 1.316 . S
C489 N492 1.347 . S
C489 H494 0.931 . S
C490 N491 1.375 . S
C490 C493 1.350 . S
C490 H495 0.930 . S
N491 Co486 2.057 . S
N491 C489 1.316 . S
N491 C490 1.375 . S
N492 C489 1.347 . S
N492 C493 1.373 . S
C493 C490 1.350 . S
C493 N492 1.373 . S
C493 H514 0.931 . S
H494 C489 0.931 . S
H495 C490 0.930 . S
C496 O503 1.259 . S
C496 O504 1.258 . S
N497 Co488 2.057 . S
N497 C498 1.316 . S
N497 C499 1.375 . S
C498 N497 1.316 . S
C498 N500 1.347 . S
C498 H509 0.931 . S
C499 N497 1.375 . S
C499 C501 1.350 . S
C499 H508 0.930 . S
N500 C498 1.347 . S
N500 C501 1.373 . S
C501 C499 1.350 . S
C501 N500 1.373 . S
C501 H515 0.931 . S
C502 O505 1.256 . S
C502 O506 1.255 . S
O503 Co486 2.021 . S
O503 C496 1.259 . S
O504 Co488 2.117 . S
O504 C496 1.258 . S
O505 Co488 2.020 . S
O505 C502 1.256 . S
O506 Co486 2.062 . S
O506 C502 1.255 . S
O507 C487 1.259 . S
O507 Co488 2.021 . S
H508 C499 0.930 . S
H509 C498 0.931 . S
O510 Co486 2.117 . S
O510 C487 1.258 . S
O511 Co486 2.020 . S
O511 C513 1.256 . S
O512 Co488 2.062 . S
O512 C513 1.255 . S
C513 O511 1.256 . S
C513 O512 1.255 . S
H514 C493 0.931 . S
H515 C501 0.931 . S
Co516 N521 2.057 1_554 S
Co516 O533 2.021 . S
Co516 O536 2.062 1_554 S
Co516 O540 2.117 . S
Co516 O541 2.020 1_545 S
C517 O537 1.259 . S
C517 O540 1.258 . S
Co518 N527 2.057 . S
Co518 O534 2.117 . S
Co518 O535 2.020 . S
Co518 O537 2.021 . S
Co518 O542 2.062 . S
C519 N521 1.316 . S
C519 N522 1.347 . S
C519 H524 0.931 . S
C520 N521 1.381 . S
C520 C523 1.349 1_545 S
C520 H525 0.925 1_545 S
N521 Co516 2.057 1_556 S
N521 C519 1.316 . S
N521 C520 1.381 . S
N522 C519 1.347 . S
N522 C523 1.355 1_545 S
C523 C520 1.349 1_565 S
C523 N522 1.355 1_565 S
C523 H544 0.948 . S
H524 C519 0.931 . S
H525 C520 0.925 1_565 S
C526 O533 1.259 . S
C526 O534 1.258 . S
N527 Co518 2.057 . S
N527 C528 1.316 . S
N527 C529 1.375 . S
C528 N527 1.316 . S
C528 N530 1.347 . S
C528 H539 0.931 . S
C529 N527 1.375 . S
C529 C531 1.350 . S
C529 H538 0.930 . S
N530 C528 1.347 . S
N530 C531 1.373 . S
C531 C529 1.350 . S
C531 N530 1.373 . S
C531 H545 0.931 . S
C532 O535 1.256 . S
C532 O536 1.255 1_554 S
O533 Co516 2.021 . S
O533 C526 1.259 . S
O534 Co518 2.117 . S
O534 C526 1.258 . S
O535 Co518 2.020 . S
O535 C532 1.256 . S
O536 Co516 2.062 1_556 S
O536 C532 1.255 1_556 S
O537 C517 1.259 . S
O537 Co518 2.021 . S
H538 C529 0.930 . S
H539 C528 0.931 . S
O540 Co516 2.117 . S
O540 C517 1.258 . S
O541 Co516 2.020 1_565 S
O541 C543 1.256 . S
O542 Co518 2.062 . S
O542 C543 1.255 1_545 S
C543 O541 1.256 . S
C543 O542 1.255 1_565 S
H544 C523 0.948 . S
H545 C531 0.931 . S
Co546 N551 2.057 . S
Co546 O563 2.021 . S
Co546 O566 2.062 . S
Co546 O570 2.117 . S
Co546 O571 2.020 . S
C547 O567 1.259 . S
C547 O570 1.258 . S
Co548 N557 2.057 . S
Co548 O564 2.117 . S
Co548 O565 2.020 . S
Co548 O567 2.021 . S
Co548 O572 2.062 . S
C549 N551 1.316 . S
C549 N552 1.347 . S
C549 H554 0.931 . S
C550 N551 1.375 . S
C550 C553 1.350 . S
C550 H555 0.930 . S
N551 Co546 2.057 . S
N551 C549 1.316 . S
N551 C550 1.375 . S
N552 C549 1.347 . S
N552 C553 1.373 . S
C553 C550 1.350 . S
C553 N552 1.373 . S
C553 H574 0.931 . S
H554 C549 0.931 . S
H555 C550 0.930 . S
C556 O563 1.259 . S
C556 O564 1.258 . S
N557 Co548 2.057 . S
N557 C558 1.316 . S
N557 C559 1.375 . S
C558 N557 1.316 . S
C558 N560 1.347 . S
C558 H569 0.931 . S
C559 N557 1.375 . S
C559 C561 1.350 . S
C559 H568 0.930 . S
N560 C558 1.347 . S
N560 C561 1.373 . S
C561 C559 1.350 . S
C561 N560 1.373 . S
C561 H575 0.931 . S
C562 O565 1.256 . S
C562 O566 1.255 . S
O563 Co546 2.021 . S
O563 C556 1.259 . S
O564 Co548 2.117 . S
O564 C556 1.258 . S
O565 Co548 2.020 . S
O565 C562 1.256 . S
O566 Co546 2.062 . S
O566 C562 1.255 . S
O567 C547 1.259 . S
O567 Co548 2.021 . S
H568 C559 0.930 . S
H569 C558 0.931 . S
O570 Co546 2.117 . S
O570 C547 1.258 . S
O571 Co546 2.020 . S
O571 C573 1.256 . S
O572 Co548 2.062 . S
O572 C573 1.255 . S
C573 O571 1.256 . S
C573 O572 1.255 . S
H574 C553 0.931 . S
H575 C561 0.931 . S
Co576 N581 2.057 . S
Co576 O593 2.021 1_554 S
Co576 O596 2.062 . S
Co576 O600 2.117 . S
Co576 O601 2.020 . S
C577 O597 1.259 . S
C577 O600 1.258 . S
Co578 N587 2.057 . S
Co578 O594 2.117 1_554 S
Co578 O595 2.020 . S
Co578 O597 2.021 . S
Co578 O602 2.062 . S
C579 N581 1.316 1_556 S
C579 N582 1.347 . S
C579 H584 0.931 . S
C580 N581 1.375 . S
C580 C583 1.350 . S
C580 H585 0.930 . S
N581 Co576 2.057 . S
N581 C579 1.316 1_554 S
N581 C580 1.375 . S
N582 C579 1.347 . S
N582 C583 1.373 1_556 S
C583 C580 1.350 . S
C583 N582 1.373 1_554 S
C583 H604 0.931 . S
H584 C579 0.931 . S
H585 C580 0.930 . S
C586 O593 1.259 . S
C586 O594 1.258 . S
N587 Co578 2.057 . S
N587 C588 1.316 . S
N587 C589 1.375 . S
C588 N587 1.316 . S
C588 N590 1.347 . S
C588 H599 0.931 . S
C589 N587 1.375 . S
C589 C591 1.350 . S
C589 H598 0.930 . S
N590 C588 1.347 . S
N590 C591 1.373 . S
C591 C589 1.350 . S
C591 N590 1.373 . S
C591 H605 0.931 . S
C592 O595 1.256 . S
C592 O596 1.255 . S
O593 Co576 2.021 1_556 S
O593 C586 1.259 . S
O594 Co578 2.117 1_556 S
O594 C586 1.258 . S
O595 Co578 2.020 . S
O595 C592 1.256 . S
O596 Co576 2.062 . S
O596 C592 1.255 . S
O597 C577 1.259 . S
O597 Co578 2.021 . S
H598 C589 0.930 . S
H599 C588 0.931 . S
O600 Co576 2.117 . S
O600 C577 1.258 . S
O601 Co576 2.020 . S
O601 C603 1.256 . S
O602 Co578 2.062 . S
O602 C603 1.255 . S
C603 O601 1.256 . S
C603 O602 1.255 . S
H604 C583 0.931 . S
H605 C591 0.931 . S
Co606 N611 2.057 . S
Co606 O623 2.021 . S
Co606 O626 2.062 . S
Co606 O630 2.117 . S
Co606 O631 2.020 . S
C607 O627 1.259 . S
C607 O630 1.258 . S
Co608 N617 2.057 . S
Co608 O624 2.117 . S
Co608 O625 2.020 . S
Co608 O627 2.021 . S
Co608 O632 2.062 . S
C609 N611 1.316 . S
C609 N612 1.347 . S
C609 H614 0.931 . S
C610 N611 1.375 . S
C610 C613 1.350 . S
C610 H615 0.930 . S
N611 Co606 2.057 . S
N611 C609 1.316 . S
N611 C610 1.375 . S
N612 C609 1.347 . S
N612 C613 1.373 . S
C613 C610 1.350 . S
C613 N612 1.373 . S
C613 H634 0.931 . S
H614 C609 0.931 . S
H615 C610 0.930 . S
C616 O623 1.259 . S
C616 O624 1.258 . S
N617 Co608 2.057 . S
N617 C618 1.316 . S
N617 C619 1.375 . S
C618 N617 1.316 . S
C618 N620 1.347 . S
C618 H629 0.931 . S
C619 N617 1.375 . S
C619 C621 1.350 . S
C619 H628 0.930 . S
N620 C618 1.347 . S
N620 C621 1.373 . S
C621 C619 1.350 . S
C621 N620 1.373 . S
C621 H635 0.931 . S
C622 O625 1.256 . S
C622 O626 1.255 . S
O623 Co606 2.021 . S
O623 C616 1.259 . S
O624 Co608 2.117 . S
O624 C616 1.258 . S
O625 Co608 2.020 . S
O625 C622 1.256 . S
O626 Co606 2.062 . S
O626 C622 1.255 . S
O627 C607 1.259 . S
O627 Co608 2.021 . S
H628 C619 0.930 . S
H629 C618 0.931 . S
O630 Co606 2.117 . S
O630 C607 1.258 . S
O631 Co606 2.020 . S
O631 C633 1.256 . S
O632 Co608 2.062 . S
O632 C633 1.255 . S
C633 O631 1.256 . S
C633 O632 1.255 . S
H634 C613 0.931 . S
H635 C621 0.931 . S
Co636 N641 2.057 . S
Co636 O653 2.021 1_455 S
Co636 O656 2.062 . S
Co636 O660 2.117 . S
Co636 O661 2.020 . S
C637 O657 1.259 . S
C637 O660 1.258 . S
Co638 N647 2.057 . S
Co638 O654 2.117 1_455 S
Co638 O655 2.020 . S
Co638 O657 2.021 . S
Co638 O662 2.062 . S
C639 N641 1.316 1_655 S
C639 N642 1.347 . S
C639 H644 0.931 . S
C640 N641 1.375 . S
C640 C643 1.350 . S
C640 H645 0.930 . S
N641 Co636 2.057 . S
N641 C639 1.316 1_455 S
N641 C640 1.375 . S
N642 C639 1.347 . S
N642 C643 1.373 1_655 S
C643 C640 1.350 . S
C643 N642 1.373 1_455 S
C643 H664 0.931 . S
H644 C639 0.931 . S
H645 C640 0.930 . S
C646 O653 1.259 . S
C646 O654 1.258 . S
N647 Co638 2.057 . S
N647 C648 1.316 . S
N647 C649 1.375 . S
C648 N647 1.316 . S
C648 N650 1.347 . S
C648 H659 0.931 . S
C649 N647 1.375 . S
C649 C651 1.350 . S
C649 H658 0.930 . S
N650 C648 1.347 . S
N650 C651 1.373 . S
C651 C649 1.350 . S
C651 N650 1.373 . S
C651 H665 0.931 . S
C652 O655 1.256 . S
C652 O656 1.255 . S
O653 Co636 2.021 1_655 S
O653 C646 1.259 . S
O654 Co638 2.117 1_655 S
O654 C646 1.258 . S
O655 Co638 2.020 . S
O655 C652 1.256 . S
O656 Co636 2.062 . S
O656 C652 1.255 . S
O657 C637 1.259 . S
O657 Co638 2.021 . S
H658 C649 0.930 . S
H659 C648 0.931 . S
O660 Co636 2.117 . S
O660 C637 1.258 . S
O661 Co636 2.020 . S
O661 C663 1.256 . S
O662 Co638 2.062 . S
O662 C663 1.255 . S
C663 O661 1.256 . S
C663 O662 1.255 . S
H664 C643 0.931 . S
H665 C651 0.931 . S
Co666 N671 2.057 . S
Co666 O683 2.021 . S
Co666 O686 2.062 . S
Co666 O690 2.117 . S
Co666 O691 2.020 . S
C667 O687 1.259 . S
C667 O690 1.258 . S
Co668 N677 2.057 . S
Co668 O684 2.117 . S
Co668 O685 2.020 . S
Co668 O687 2.021 . S
Co668 O692 2.062 . S
C669 N671 1.316 . S
C669 N672 1.347 . S
C669 H674 0.931 . S
C670 N671 1.375 . S
C670 C673 1.350 . S
C670 H675 0.930 . S
N671 Co666 2.057 . S
N671 C669 1.316 . S
N671 C670 1.375 . S
N672 C669 1.347 . S
N672 C673 1.373 . S
C673 C670 1.350 . S
C673 N672 1.373 . S
C673 H694 0.931 . S
H674 C669 0.931 . S
H675 C670 0.930 . S
C676 O683 1.259 . S
C676 O684 1.258 . S
N677 Co668 2.057 . S
N677 C678 1.316 . S
N677 C679 1.375 . S
C678 N677 1.316 . S
C678 N680 1.347 . S
C678 H689 0.931 . S
C679 N677 1.375 . S
C679 C681 1.350 . S
C679 H688 0.930 . S
N680 C678 1.347 . S
N680 C681 1.373 . S
C681 C679 1.350 . S
C681 N680 1.373 . S
C681 H695 0.931 . S
C682 O685 1.256 . S
C682 O686 1.255 . S
O683 Co666 2.021 . S
O683 C676 1.259 . S
O684 Co668 2.117 . S
O684 C676 1.258 . S
O685 Co668 2.020 . S
O685 C682 1.256 . S
O686 Co666 2.062 . S
O686 C682 1.255 . S
O687 C667 1.259 . S
O687 Co668 2.021 . S
H688 C679 0.930 . S
H689 C678 0.931 . S
O690 Co666 2.117 . S
O690 C667 1.258 . S
O691 Co666 2.020 . S
O691 C693 1.256 . S
O692 Co668 2.062 . S
O692 C693 1.255 . S
C693 O691 1.256 . S
C693 O692 1.255 . S
H694 C673 0.931 . S
H695 C681 0.931 . S
Co696 N701 2.057 . S
Co696 O713 2.021 . S
Co696 O716 2.062 . S
Co696 O720 2.117 . S
Co696 O721 2.020 . S
C697 O717 1.259 . S
C697 O720 1.258 . S
Co698 N707 2.057 . S
Co698 O714 2.117 . S
Co698 O715 2.020 . S
Co698 O717 2.021 . S
Co698 O722 2.062 . S
C699 N701 1.316 . S
C699 N702 1.347 . S
C699 H704 0.931 . S
C700 N701 1.375 . S
C700 C703 1.350 . S
C700 H705 0.930 . S
N701 Co696 2.057 . S
N701 C699 1.316 . S
N701 C700 1.375 . S
N702 C699 1.347 . S
N702 C703 1.373 . S
C703 C700 1.350 . S
C703 N702 1.373 . S
C703 H724 0.931 . S
H704 C699 0.931 . S
H705 C700 0.930 . S
C706 O713 1.259 . S
C706 O714 1.258 . S
N707 Co698 2.057 . S
N707 C708 1.316 . S
N707 C709 1.375 . S
C708 N707 1.316 . S
C708 N710 1.347 . S
C708 H719 0.931 . S
C709 N707 1.375 . S
C709 C711 1.350 . S
C709 H718 0.930 . S
N710 C708 1.347 . S
N710 C711 1.373 . S
C711 C709 1.350 . S
C711 N710 1.373 . S
C711 H725 0.931 . S
C712 O715 1.256 . S
C712 O716 1.255 . S
O713 Co696 2.021 . S
O713 C706 1.259 . S
O714 Co698 2.117 . S
O714 C706 1.258 . S
O715 Co698 2.020 . S
O715 C712 1.256 . S
O716 Co696 2.062 . S
O716 C712 1.255 . S
O717 C697 1.259 . S
O717 Co698 2.021 . S
H718 C709 0.930 . S
H719 C708 0.931 . S
O720 Co696 2.117 . S
O720 C697 1.258 . S
O721 Co696 2.020 . S
O721 C723 1.256 . S
O722 Co698 2.062 . S
O722 C723 1.255 . S
C723 O721 1.256 . S
C723 O722 1.255 . S
H724 C703 0.931 . S
H725 C711 0.931 . S
Co726 N731 2.057 . S
Co726 O743 2.021 . S
Co726 O746 2.062 . S
Co726 O750 2.117 . S
Co726 O751 2.020 . S
C727 O747 1.259 . S
C727 O750 1.258 . S
Co728 N737 2.057 . S
Co728 O744 2.117 . S
Co728 O745 2.020 . S
Co728 O747 2.021 . S
Co728 O752 2.062 . S
C729 N731 1.316 . S
C729 N732 1.347 . S
C729 H734 0.931 . S
C730 N731 1.375 . S
C730 C733 1.350 . S
C730 H735 0.930 . S
N731 Co726 2.057 . S
N731 C729 1.316 . S
N731 C730 1.375 . S
N732 C729 1.347 . S
N732 C733 1.373 . S
C733 C730 1.350 . S
C733 N732 1.373 . S
C733 H754 0.931 . S
H734 C729 0.931 . S
H735 C730 0.930 . S
C736 O743 1.259 . S
C736 O744 1.258 . S
N737 Co728 2.057 . S
N737 C738 1.316 . S
N737 C739 1.375 . S
C738 N737 1.316 . S
C738 N740 1.347 . S
C738 H749 0.931 . S
C739 N737 1.375 . S
C739 C741 1.350 . S
C739 H748 0.930 . S
N740 C738 1.347 . S
N740 C741 1.373 . S
C741 C739 1.350 . S
C741 N740 1.373 . S
C741 H755 0.931 . S
C742 O745 1.256 . S
C742 O746 1.255 . S
O743 Co726 2.021 . S
O743 C736 1.259 . S
O744 Co728 2.117 . S
O744 C736 1.258 . S
O745 Co728 2.020 . S
O745 C742 1.256 . S
O746 Co726 2.062 . S
O746 C742 1.255 . S
O747 C727 1.259 . S
O747 Co728 2.021 . S
H748 C739 0.930 . S
H749 C738 0.931 . S
O750 Co726 2.117 . S
O750 C727 1.258 . S
O751 Co726 2.020 . S
O751 C753 1.256 . S
O752 Co728 2.062 . S
O752 C753 1.255 . S
C753 O751 1.256 . S
C753 O752 1.255 . S
H754 C733 0.931 . S
H755 C741 0.931 . S
Co756 N761 2.057 . S
Co756 O773 2.021 . S
Co756 O776 2.062 . S
Co756 O780 2.117 . S
Co756 O781 2.020 . S
C757 O777 1.259 . S
C757 O780 1.258 . S
Co758 N767 2.057 . S
Co758 O774 2.117 . S
Co758 O775 2.020 . S
Co758 O777 2.021 . S
Co758 O782 2.062 . S
C759 N761 1.316 . S
C759 N762 1.347 . S
C759 H764 0.931 . S
C760 N761 1.375 . S
C760 C763 1.350 . S
C760 H765 0.930 . S
N761 Co756 2.057 . S
N761 C759 1.316 . S
N761 C760 1.375 . S
N762 C759 1.347 . S
N762 C763 1.373 . S
C763 C760 1.350 . S
C763 N762 1.373 . S
C763 H784 0.931 . S
H764 C759 0.931 . S
H765 C760 0.930 . S
C766 O773 1.259 . S
C766 O774 1.258 . S
N767 Co758 2.057 . S
N767 C768 1.316 . S
N767 C769 1.375 . S
C768 N767 1.316 . S
C768 N770 1.347 . S
C768 H779 0.931 . S
C769 N767 1.375 . S
C769 C771 1.350 . S
C769 H778 0.930 . S
N770 C768 1.347 . S
N770 C771 1.373 . S
C771 C769 1.350 . S
C771 N770 1.373 . S
C771 H785 0.931 . S
C772 O775 1.256 . S
C772 O776 1.255 . S
O773 Co756 2.021 . S
O773 C766 1.259 . S
O774 Co758 2.117 . S
O774 C766 1.258 . S
O775 Co758 2.020 . S
O775 C772 1.256 . S
O776 Co756 2.062 . S
O776 C772 1.255 . S
O777 C757 1.259 . S
O777 Co758 2.021 . S
H778 C769 0.930 . S
H779 C768 0.931 . S
O780 Co756 2.117 . S
O780 C757 1.258 . S
O781 Co756 2.020 . S
O781 C783 1.256 . S
O782 Co758 2.062 . S
O782 C783 1.255 . S
C783 O781 1.256 . S
C783 O782 1.255 . S
H784 C763 0.931 . S
H785 C771 0.931 . S
Co786 N791 2.026 1_455 S
Co786 O803 2.030 . S
Co786 O806 2.056 1_455 S
Co786 O810 2.117 . S
Co786 O811 2.036 1_554 S
C787 O807 1.259 . S
C787 O810 1.276 . S
Co788 N797 2.057 . S
Co788 O804 2.117 . S
Co788 O805 2.020 . S
Co788 O807 2.021 . S
Co788 O812 2.062 1_554 S
C789 N791 1.316 . S
C789 N792 1.347 . S
C789 H794 0.931 . S
C790 N791 1.375 1_556 S
C790 C793 1.350 . S
C790 H795 0.930 . S
N791 Co786 2.026 1_655 S
N791 C789 1.316 . S
N791 C790 1.375 1_554 S
N792 C789 1.347 . S
N792 C793 1.373 1_554 S
C793 C790 1.350 . S
C793 N792 1.373 1_556 S
C793 H814 0.931 . S
H794 C789 0.931 . S
H795 C790 0.930 . S
C796 O803 1.259 . S
C796 O804 1.258 . S
N797 Co788 2.057 . S
N797 C798 1.316 . S
N797 C799 1.375 . S
C798 N797 1.316 . S
C798 N800 1.347 . S
C798 H809 0.931 . S
C799 N797 1.375 . S
C799 C801 1.350 . S
C799 H808 0.930 . S
N800 C798 1.347 . S
N800 C801 1.373 . S
C801 C799 1.350 . S
C801 N800 1.373 . S
C801 H815 0.931 . S
C802 O805 1.256 . S
C802 O806 1.255 1_455 S
O803 Co786 2.030 . S
O803 C796 1.259 . S
O804 Co788 2.117 . S
O804 C796 1.258 . S
O805 Co788 2.020 . S
O805 C802 1.256 . S
O806 Co786 2.056 1_655 S
O806 C802 1.255 1_655 S
O807 C787 1.259 . S
O807 Co788 2.021 . S
H808 C799 0.930 . S
H809 C798 0.931 . S
O810 Co786 2.117 . S
O810 C787 1.276 . S
O811 Co786 2.036 1_556 S
O811 C813 1.256 . S
O812 Co788 2.062 1_556 S
O812 C813 1.255 . S
C813 O811 1.256 . S
C813 O812 1.255 . S
H814 C793 0.931 . S
H815 C801 0.931 . S
H816 C824 0.950 . S
H817 C829 0.950 . S
H818 C826 0.950 . S
H819 C828 0.950 . S
H820 C830 0.950 . S
H821 C832 0.950 . S
H822 C834 0.950 . S
H823 C835 0.950 . S
C824 H816 0.950 . S
C824 C825 1.386 . S
C824 C826 1.391 . S
C825 C824 1.386 . S
C825 C829 1.393 . S
C826 H818 0.950 . S
C826 C824 1.391 . S
C826 C827 1.400 . S
C827 C826 1.400 . S
C827 C828 1.398 . S
C827 C833 1.491 . S
C828 H819 0.950 . S
C828 C827 1.398 . S
C828 C829 1.391 . S
C829 H817 0.950 . S
C829 C825 1.393 . S
C829 C828 1.391 . S
C830 H820 0.950 . S
C830 C831 1.386 . S
C830 C832 1.391 . S
C831 C830 1.386 . S
C831 C835 1.393 . S
C832 H821 0.950 . S
C832 C830 1.391 . S
C832 C833 1.400 . S
C833 C827 1.491 . S
C833 C832 1.400 . S
C833 C834 1.398 . S
C834 H822 0.950 . S
C834 C833 1.398 . S
C834 C835 1.391 . S
C835 H823 0.950 . S
C835 C831 1.393 . S
C835 C834 1.391 . S
H836 C844 0.950 . S
H837 C849 0.950 . S
H838 C846 0.950 . S
H839 C848 0.950 . S
H840 C850 0.950 . S
H841 C852 0.950 . S
H842 C854 0.950 . S
H843 C855 0.950 . S
C844 H836 0.950 . S
C844 C845 1.386 . S
C844 C846 1.391 . S
C845 C844 1.386 . S
C845 C849 1.393 . S
C846 H838 0.950 . S
C846 C844 1.391 . S
C846 C847 1.400 . S
C847 C846 1.400 . S
C847 C848 1.398 . S
C847 C853 1.491 . S
C848 H839 0.950 . S
C848 C847 1.398 . S
C848 C849 1.391 . S
C849 H837 0.950 . S
C849 C845 1.393 . S
C849 C848 1.391 . S
C850 H840 0.950 . S
C850 C851 1.386 . S
C850 C852 1.391 . S
C851 C850 1.386 . S
C851 C855 1.393 . S
C852 H841 0.950 . S
C852 C850 1.391 . S
C852 C853 1.400 . S
C853 C847 1.491 . S
C853 C852 1.400 . S
C853 C854 1.398 . S
C854 H842 0.950 . S
C854 C853 1.398 . S
C854 C855 1.391 . S
C855 H843 0.950 . S
C855 C851 1.393 . S
C855 C854 1.391 . S
H856 C864 0.950 . S
H857 C869 0.950 . S
H858 C866 0.950 . S
H859 C868 0.950 . S
H860 C870 0.950 . S
H861 C872 0.950 . S
H862 C874 0.950 . S
H863 C875 0.950 . S
C864 H856 0.950 . S
C864 C865 1.386 . S
C864 C866 1.391 . S
C865 C864 1.386 . S
C865 C869 1.393 . S
C866 H858 0.950 . S
C866 C864 1.391 . S
C866 C867 1.400 . S
C867 C866 1.400 . S
C867 C868 1.398 . S
C867 C873 1.491 . S
C868 H859 0.950 . S
C868 C867 1.398 . S
C868 C869 1.391 . S
C869 H857 0.950 . S
C869 C865 1.393 . S
C869 C868 1.391 . S
C870 H860 0.950 . S
C870 C871 1.386 . S
C870 C872 1.391 . S
C871 C870 1.386 . S
C871 C875 1.393 . S
C872 H861 0.950 . S
C872 C870 1.391 . S
C872 C873 1.400 . S
C873 C867 1.491 . S
C873 C872 1.400 . S
C873 C874 1.398 . S
C874 H862 0.950 . S
C874 C873 1.398 . S
C874 C875 1.391 . S
C875 H863 0.950 . S
C875 C871 1.393 . S
C875 C874 1.391 . S
H876 C884 0.950 . S
H877 C889 0.950 . S
H878 C886 0.950 . S
H879 C888 0.950 . S
H880 C890 0.950 . S
H881 C892 0.950 . S
H882 C894 0.950 . S
H883 C895 0.950 . S
C884 H876 0.950 . S
C884 C885 1.386 . S
C884 C886 1.391 . S
C885 C884 1.386 . S
C885 C889 1.393 . S
C886 H878 0.950 . S
C886 C884 1.391 . S
C886 C887 1.400 . S
C887 C886 1.400 . S
C887 C888 1.398 . S
C887 C893 1.491 . S
C888 H879 0.950 . S
C888 C887 1.398 . S
C888 C889 1.391 . S
C889 H877 0.950 . S
C889 C885 1.393 . S
C889 C888 1.391 . S
C890 H880 0.950 . S
C890 C891 1.386 . S
C890 C892 1.391 . S
C891 C890 1.386 . S
C891 C895 1.393 . S
C892 H881 0.950 . S
C892 C890 1.391 . S
C892 C893 1.400 . S
C893 C887 1.491 . S
C893 C892 1.400 . S
C893 C894 1.398 . S
C894 H882 0.950 . S
C894 C893 1.398 . S
C894 C895 1.391 . S
C895 H883 0.950 . S
C895 C891 1.393 . S
C895 C894 1.391 . S
H896 C904 0.950 . S
H897 C909 0.950 . S
H898 C906 0.950 . S
H899 C908 0.950 . S
H900 C910 0.950 . S
H901 C912 0.950 . S
H902 C914 0.950 . S
H903 C915 0.950 . S
C904 H896 0.950 . S
C904 C905 1.386 . S
C904 C906 1.391 . S
C905 C904 1.386 . S
C905 C909 1.393 . S
C906 H898 0.950 . S
C906 C904 1.391 . S
C906 C907 1.400 . S
C907 C906 1.400 . S
C907 C908 1.398 . S
C907 C913 1.491 . S
C908 H899 0.950 . S
C908 C907 1.398 . S
C908 C909 1.391 . S
C909 H897 0.950 . S
C909 C905 1.393 . S
C909 C908 1.391 . S
C910 H900 0.950 . S
C910 C911 1.386 . S
C910 C912 1.391 . S
C911 C910 1.386 . S
C911 C915 1.393 . S
C912 H901 0.950 . S
C912 C910 1.391 . S
C912 C913 1.400 . S
C913 C907 1.491 . S
C913 C912 1.400 . S
C913 C914 1.398 . S
C914 H902 0.950 . S
C914 C913 1.398 . S
C914 C915 1.391 . S
C915 H903 0.950 . S
C915 C911 1.393 . S
C915 C914 1.391 . S
H916 C924 0.950 . S
H917 C929 0.950 . S
H918 C926 0.950 . S
H919 C928 0.950 . S
H920 C930 0.950 . S
H921 C932 0.950 . S
H922 C934 0.950 . S
H923 C935 0.950 . S
C924 H916 0.950 . S
C924 C925 1.386 . S
C924 C926 1.391 . S
C925 C924 1.386 . S
C925 C929 1.393 . S
C926 H918 0.950 . S
C926 C924 1.391 . S
C926 C927 1.400 . S
C927 C926 1.400 . S
C927 C928 1.398 . S
C927 C933 1.491 . S
C928 H919 0.950 . S
C928 C927 1.398 . S
C928 C929 1.391 . S
C929 H917 0.950 . S
C929 C925 1.393 . S
C929 C928 1.391 . S
C930 H920 0.950 . S
C930 C931 1.386 . S
C930 C932 1.391 . S
C931 C930 1.386 . S
C931 C935 1.393 . S
C932 H921 0.950 . S
C932 C930 1.391 . S
C932 C933 1.400 . S
C933 C927 1.491 . S
C933 C932 1.400 . S
C933 C934 1.398 . S
C934 H922 0.950 . S
C934 C933 1.398 . S
C934 C935 1.391 . S
C935 H923 0.950 . S
C935 C931 1.393 . S
C935 C934 1.391 . S
H936 C944 0.950 . S
H937 C949 0.950 . S
H938 C946 0.950 . S
H939 C948 0.950 . S
H940 C950 0.950 . S
H941 C952 0.950 . S
H942 C954 0.950 . S
H943 C955 0.950 . S
C944 H936 0.950 . S
C944 C945 1.386 . S
C944 C946 1.391 . S
C945 C944 1.386 . S
C945 C949 1.393 . S
C946 H938 0.950 . S
C946 C944 1.391 . S
C946 C947 1.400 . S
C947 C946 1.400 . S
C947 C948 1.398 . S
C947 C953 1.491 . S
C948 H939 0.950 . S
C948 C947 1.398 . S
C948 C949 1.391 . S
C949 H937 0.950 . S
C949 C945 1.393 . S
C949 C948 1.391 . S
C950 H940 0.950 . S
C950 C951 1.384 . S
C950 C952 1.391 . S
C951 C950 1.384 . S
C951 C955 1.393 1_556 S
C952 H941 0.950 . S
C952 C950 1.391 . S
C952 C953 1.400 . S
C953 C947 1.491 . S
C953 C952 1.400 . S
C953 C954 1.398 . S
C954 H942 0.950 . S
C954 C953 1.398 . S
C954 C955 1.391 1_556 S
C955 H943 0.950 . S
C955 C951 1.393 1_554 S
C955 C954 1.391 1_554 S
H956 C964 0.950 . S
H957 C969 0.950 . S
H958 C966 0.950 . S
H959 C968 0.950 . S
H960 C970 0.950 . S
H961 C972 0.950 . S
H962 C974 0.950 . S
H963 C975 0.950 . S
C964 H956 0.950 . S
C964 C965 1.386 . S
C964 C966 1.391 . S
C965 C964 1.386 . S
C965 C969 1.393 . S
C966 H958 0.950 . S
C966 C964 1.391 . S
C966 C967 1.400 . S
C967 C966 1.400 . S
C967 C968 1.398 . S
C967 C973 1.491 . S
C968 H959 0.950 . S
C968 C967 1.398 . S
C968 C969 1.391 . S
C969 H957 0.950 . S
C969 C965 1.393 . S
C969 C968 1.391 . S
C970 H960 0.950 . S
C970 C971 1.386 . S
C970 C972 1.391 . S
C971 C970 1.386 . S
C971 C975 1.393 . S
C972 H961 0.950 . S
C972 C970 1.391 . S
C972 C973 1.400 . S
C973 C967 1.491 . S
C973 C972 1.400 . S
C973 C974 1.398 . S
C974 H962 0.950 . S
C974 C973 1.398 . S
C974 C975 1.391 . S
C975 H963 0.950 . S
C975 C971 1.393 . S
C975 C974 1.391 . S
H976 C984 0.950 . S
H977 C989 0.950 . S
H978 C986 0.950 . S
H979 C988 0.950 . S
H980 C990 0.950 . S
H981 C992 0.950 . S
H982 C994 0.950 . S
H983 C995 0.950 . S
C984 H976 0.950 . S
C984 C985 1.386 1_565 S
C984 C986 1.391 . S
C985 C984 1.386 1_545 S
C985 C989 1.393 . S
C986 H978 0.950 . S
C986 C984 1.391 . S
C986 C987 1.400 1_565 S
C987 C986 1.400 1_545 S
C987 C988 1.398 . S
C987 C993 1.491 . S
C988 H979 0.950 . S
C988 C987 1.398 . S
C988 C989 1.391 . S
C989 H977 0.950 . S
C989 C985 1.393 . S
C989 C988 1.391 . S
C990 H980 0.950 . S
C990 C991 1.386 . S
C990 C992 1.391 . S
C991 C990 1.386 . S
C991 C995 1.393 1_545 S
C992 H981 0.950 . S
C992 C990 1.391 . S
C992 C993 1.400 . S
C993 C987 1.491 . S
C993 C992 1.400 . S
C993 C994 1.398 1_545 S
C994 H982 0.950 . S
C994 C993 1.398 1_565 S
C994 C995 1.391 . S
C995 H983 0.950 . S
C995 C991 1.393 1_565 S
C995 C994 1.391 . S
H996 C1004 0.950 . S
H997 C1009 0.950 . S
H998 C1006 0.950 . S
H999 C1008 0.950 . S
H1000 C1010 0.950 . S
H1001 C1012 0.950 . S
H1002 C1014 0.950 . S
H1003 C1015 0.950 . S
C1004 H996 0.950 . S
C1004 C1005 1.386 . S
C1004 C1006 1.391 . S
C1005 C1004 1.386 . S
C1005 C1009 1.393 . S
C1006 H998 0.950 . S
C1006 C1004 1.391 . S
C1006 C1007 1.400 . S
C1007 C1006 1.400 . S
C1007 C1008 1.398 . S
C1007 C1013 1.491 . S
C1008 H999 0.950 . S
C1008 C1007 1.398 . S
C1008 C1009 1.391 . S
C1009 H997 0.950 . S
C1009 C1005 1.393 . S
C1009 C1008 1.391 . S
C1010 H1000 0.950 . S
C1010 C1011 1.386 . S
C1010 C1012 1.391 . S
C1011 C1010 1.386 . S
C1011 C1015 1.393 . S
C1012 H1001 0.950 . S
C1012 C1010 1.391 . S
C1012 C1013 1.400 . S
C1013 C1007 1.491 . S
C1013 C1012 1.400 . S
C1013 C1014 1.398 . S
C1014 H1002 0.950 . S
C1014 C1013 1.398 . S
C1014 C1015 1.391 . S
C1015 H1003 0.950 . S
C1015 C1011 1.393 . S
C1015 C1014 1.391 . S
H1016 C1024 0.950 . S
H1017 C1029 0.950 . S
H1018 C1026 0.950 . S
H1019 C1028 0.950 . S
H1020 C1030 0.950 . S
H1021 C1032 0.950 . S
H1022 C1034 0.950 . S
H1023 C1035 0.950 . S
C1024 H1016 0.950 . S
C1024 C1025 1.386 . S
C1024 C1026 1.391 . S
C1025 C1024 1.386 . S
C1025 C1029 1.393 . S
C1026 H1018 0.950 . S
C1026 C1024 1.391 . S
C1026 C1027 1.400 . S
C1027 C1026 1.400 . S
C1027 C1028 1.398 . S
C1027 C1033 1.491 . S
C1028 H1019 0.950 . S
C1028 C1027 1.398 . S
C1028 C1029 1.391 . S
C1029 H1017 0.950 . S
C1029 C1025 1.393 . S
C1029 C1028 1.391 . S
C1030 H1020 0.950 . S
C1030 C1031 1.386 . S
C1030 C1032 1.391 . S
C1031 C1030 1.386 . S
C1031 C1035 1.393 . S
C1032 H1021 0.950 . S
C1032 C1030 1.391 . S
C1032 C1033 1.400 . S
C1033 C1027 1.491 . S
C1033 C1032 1.400 . S
C1033 C1034 1.398 . S
C1034 H1022 0.950 . S
C1034 C1033 1.398 . S
C1034 C1035 1.391 . S
C1035 H1023 0.950 . S
C1035 C1031 1.393 . S
C1035 C1034 1.391 . S
H1036 C1044 0.950 . S
H1037 C1049 0.950 . S
H1038 C1046 0.950 . S
H1039 C1048 0.950 . S
H1040 C1050 0.950 . S
H1041 C1052 0.950 . S
H1042 C1054 0.950 . S
H1043 C1055 0.950 . S
C1044 H1036 0.950 . S
C1044 C1045 1.386 . S
C1044 C1046 1.391 . S
C1045 C1044 1.386 . S
C1045 C1049 1.393 . S
C1046 H1038 0.950 . S
C1046 C1044 1.391 . S
C1046 C1047 1.400 . S
C1047 C1046 1.400 . S
C1047 C1048 1.398 . S
C1047 C1053 1.491 . S
C1048 H1039 0.950 . S
C1048 C1047 1.398 . S
C1048 C1049 1.391 . S
C1049 H1037 0.950 . S
C1049 C1045 1.393 . S
C1049 C1048 1.391 . S
C1050 H1040 0.950 . S
C1050 C1051 1.386 . S
C1050 C1052 1.391 . S
C1051 C1050 1.386 . S
C1051 C1055 1.393 . S
C1052 H1041 0.950 . S
C1052 C1050 1.391 . S
C1052 C1053 1.400 . S
C1053 C1047 1.491 . S
C1053 C1052 1.400 . S
C1053 C1054 1.398 . S
C1054 H1042 0.950 . S
C1054 C1053 1.398 . S
C1054 C1055 1.391 . S
C1055 H1043 0.950 . S
C1055 C1051 1.393 . S
C1055 C1054 1.391 . S
H1056 C1064 0.926 1_565 S
H1057 C1069 0.950 . S
H1058 C1066 0.950 1_565 S
H1059 C1068 0.950 . S
H1060 C1070 0.950 . S
H1061 C1072 0.950 . S
H1062 C1074 0.950 . S
H1063 C1075 0.950 . S
C1064 H1056 0.926 1_545 S
C1064 C1065 1.403 . S
C1064 C1066 1.399 . S
C1065 C1064 1.403 . S
C1065 C1069 1.393 . S
C1066 H1058 0.950 1_545 S
C1066 C1064 1.399 . S
C1066 C1067 1.400 . S
C1067 C1066 1.400 . S
C1067 C1068 1.398 . S
C1067 C1073 1.491 . S
C1068 H1059 0.950 . S
C1068 C1067 1.398 . S
C1068 C1069 1.391 . S
C1069 H1057 0.950 . S
C1069 C1065 1.393 . S
C1069 C1068 1.391 . S
C1070 H1060 0.950 . S
C1070 C1071 1.386 . S
C1070 C1072 1.391 . S
C1071 C1070 1.386 . S
C1071 C1075 1.393 . S
C1072 H1061 0.950 . S
C1072 C1070 1.391 . S
C1072 C1073 1.400 . S
C1073 C1067 1.491 . S
C1073 C1072 1.400 . S
C1073 C1074 1.398 . S
C1074 H1062 0.950 . S
C1074 C1073 1.398 . S
C1074 C1075 1.391 . S
C1075 H1063 0.950 . S
C1075 C1071 1.393 . S
C1075 C1074 1.391 . S
H1076 C1084 0.950 . S
H1077 C1089 0.950 . S
H1078 C1086 0.950 . S
H1079 C1088 0.950 . S
H1080 C1090 0.950 . S
H1081 C1092 0.950 . S
H1082 C1094 0.950 . S
H1083 C1095 0.950 . S
C1084 H1076 0.950 . S
C1084 C1085 1.386 . S
C1084 C1086 1.391 . S
C1085 C1084 1.386 . S
C1085 C1089 1.393 . S
C1086 H1078 0.950 . S
C1086 C1084 1.391 . S
C1086 C1087 1.400 . S
C1087 C1086 1.400 . S
C1087 C1088 1.398 . S
C1087 C1093 1.491 . S
C1088 H1079 0.950 . S
C1088 C1087 1.398 . S
C1088 C1089 1.391 . S
C1089 H1077 0.950 . S
C1089 C1085 1.393 . S
C1089 C1088 1.391 . S
C1090 H1080 0.950 . S
C1090 C1091 1.386 . S
C1090 C1092 1.391 . S
C1091 C1090 1.386 . S
C1091 C1095 1.393 . S
C1092 H1081 0.950 . S
C1092 C1090 1.391 . S
C1092 C1093 1.400 . S
C1093 C1087 1.491 . S
C1093 C1092 1.400 . S
C1093 C1094 1.398 . S
C1094 H1082 0.950 . S
C1094 C1093 1.398 . S
C1094 C1095 1.391 . S
C1095 H1083 0.950 . S
C1095 C1091 1.393 . S
C1095 C1094 1.391 . S
H1096 C1104 0.950 . S
H1097 C1109 0.950 . S
H1098 C1106 0.950 . S
H1099 C1108 0.950 . S
H1100 C1110 0.950 . S
H1101 C1112 0.950 . S
H1102 C1114 0.950 1_565 S
H1103 C1115 0.950 . S
C1104 H1096 0.950 . S
C1104 C1105 1.386 . S
C1104 C1106 1.391 . S
C1105 C1104 1.386 . S
C1105 C1109 1.393 . S
C1106 H1098 0.950 . S
C1106 C1104 1.391 . S
C1106 C1107 1.400 . S
C1107 C1106 1.400 . S
C1107 C1108 1.398 . S
C1107 C1113 1.491 . S
C1108 H1099 0.950 . S
C1108 C1107 1.398 . S
C1108 C1109 1.391 . S
C1109 H1097 0.950 . S
C1109 C1105 1.393 . S
C1109 C1108 1.391 . S
C1110 H1100 0.950 . S
C1110 C1111 1.386 . S
C1110 C1112 1.391 . S
C1111 C1110 1.386 . S
C1111 C1115 1.393 1_545 S
C1112 H1101 0.950 . S
C1112 C1110 1.391 . S
C1112 C1113 1.400 . S
C1113 C1107 1.491 . S
C1113 C1112 1.400 . S
C1113 C1114 1.398 . S
C1114 H1102 0.950 1_545 S
C1114 C1113 1.398 . S
C1114 C1115 1.391 1_545 S
C1115 H1103 0.950 . S
C1115 C1111 1.393 1_565 S
C1115 C1114 1.391 1_565 S
H1116 C1124 0.950 . S
H1117 C1129 0.950 . S
H1118 C1126 0.950 . S
H1119 C1128 0.950 . S
H1120 C1130 0.950 . S
H1121 C1132 0.950 . S
H1122 C1134 0.950 . S
H1123 C1135 0.950 . S
C1124 H1116 0.950 . S
C1124 C1125 1.386 . S
C1124 C1126 1.391 . S
C1125 C1124 1.386 . S
C1125 C1129 1.393 . S
C1126 H1118 0.950 . S
C1126 C1124 1.391 . S
C1126 C1127 1.400 . S
C1127 C1126 1.400 . S
C1127 C1128 1.398 . S
C1127 C1133 1.491 . S
C1128 H1119 0.950 . S
C1128 C1127 1.398 . S
C1128 C1129 1.391 . S
C1129 H1117 0.950 . S
C1129 C1125 1.393 . S
C1129 C1128 1.391 . S
C1130 H1120 0.950 . S
C1130 C1131 1.386 . S
C1130 C1132 1.391 . S
C1131 C1130 1.386 . S
C1131 C1135 1.393 . S
C1132 H1121 0.950 . S
C1132 C1130 1.391 . S
C1132 C1133 1.400 . S
C1133 C1127 1.491 . S
C1133 C1132 1.400 . S
C1133 C1134 1.398 . S
C1134 H1122 0.950 . S
C1134 C1133 1.398 . S
C1134 C1135 1.391 . S
C1135 H1123 0.950 . S
C1135 C1131 1.393 . S
C1135 C1134 1.391 . S
H1136 C1144 0.950 . S
H1137 C1149 0.950 . S
H1138 C1146 0.950 . S
H1139 C1148 0.950 . S
H1140 C1150 0.950 . S
H1141 C1152 0.950 . S
H1142 C1154 0.950 . S
H1143 C1155 0.950 . S
C1144 H1136 0.950 . S
C1144 C1145 1.386 . S
C1144 C1146 1.391 . S
C1145 C1144 1.386 . S
C1145 C1149 1.393 . S
C1146 H1138 0.950 . S
C1146 C1144 1.391 . S
C1146 C1147 1.400 . S
C1147 C1146 1.400 . S
C1147 C1148 1.398 . S
C1147 C1153 1.491 . S
C1148 H1139 0.950 . S
C1148 C1147 1.398 . S
C1148 C1149 1.391 . S
C1149 H1137 0.950 . S
C1149 C1145 1.393 . S
C1149 C1148 1.391 . S
C1150 H1140 0.950 . S
C1150 C1151 1.386 . S
C1150 C1152 1.391 . S
C1151 C1150 1.386 . S
C1151 C1155 1.393 . S
C1152 H1141 0.950 . S
C1152 C1150 1.391 . S
C1152 C1153 1.400 . S
C1153 C1147 1.491 . S
C1153 C1152 1.400 . S
C1153 C1154 1.398 . S
C1154 H1142 0.950 . S
C1154 C1153 1.398 . S
C1154 C1155 1.391 . S
C1155 H1143 0.950 . S
C1155 C1151 1.393 . S
C1155 C1154 1.391 . S
H1156 C1164 0.950 . S
H1157 C1169 0.950 . S
H1158 C1166 0.950 . S
H1159 C1168 0.950 . S
H1160 C1170 0.950 . S
H1161 C1172 0.950 . S
H1162 C1174 0.950 . S
H1163 C1175 0.950 . S
C1164 H1156 0.950 . S
C1164 C1165 1.386 . S
C1164 C1166 1.391 . S
C1165 C1164 1.386 . S
C1165 C1169 1.393 . S
C1166 H1158 0.950 . S
C1166 C1164 1.391 . S
C1166 C1167 1.400 . S
C1167 C1166 1.400 . S
C1167 C1168 1.398 . S
C1167 C1173 1.491 . S
C1168 H1159 0.950 . S
C1168 C1167 1.398 . S
C1168 C1169 1.391 . S
C1169 H1157 0.950 . S
C1169 C1165 1.393 . S
C1169 C1168 1.391 . S
C1170 H1160 0.950 . S
C1170 C1171 1.386 . S
C1170 C1172 1.391 . S
C1171 C1170 1.386 . S
C1171 C1175 1.393 . S
C1172 H1161 0.950 . S
C1172 C1170 1.391 . S
C1172 C1173 1.400 . S
C1173 C1167 1.491 . S
C1173 C1172 1.400 . S
C1173 C1174 1.398 . S
C1174 H1162 0.950 . S
C1174 C1173 1.398 . S
C1174 C1175 1.391 . S
C1175 H1163 0.950 . S
C1175 C1171 1.393 . S
C1175 C1174 1.391 . S
H1176 C1184 0.950 . S
H1177 C1189 0.950 . S
H1178 C1186 0.950 . S
H1179 C1188 0.950 . S
H1180 C1190 0.950 . S
H1181 C1192 0.950 . S
H1182 C1194 0.950 . S
H1183 C1195 0.950 . S
C1184 H1176 0.950 . S
C1184 C1185 1.386 . S
C1184 C1186 1.391 . S
C1185 C1184 1.386 . S
C1185 C1189 1.393 . S
C1186 H1178 0.950 . S
C1186 C1184 1.391 . S
C1186 C1187 1.400 . S
C1187 C1186 1.400 . S
C1187 C1188 1.398 . S
C1187 C1193 1.491 . S
C1188 H1179 0.950 . S
C1188 C1187 1.398 . S
C1188 C1189 1.391 . S
C1189 H1177 0.950 . S
C1189 C1185 1.393 . S
C1189 C1188 1.391 . S
C1190 H1180 0.950 . S
C1190 C1191 1.386 . S
C1190 C1192 1.391 . S
C1191 C1190 1.386 . S
C1191 C1195 1.393 . S
C1192 H1181 0.950 . S
C1192 C1190 1.391 . S
C1192 C1193 1.400 . S
C1193 C1187 1.491 . S
C1193 C1192 1.400 . S
C1193 C1194 1.398 . S
C1194 H1182 0.950 . S
C1194 C1193 1.398 . S
C1194 C1195 1.391 . S
C1195 H1183 0.950 . S
C1195 C1191 1.393 . S
C1195 C1194 1.391 . S
H1196 C1204 0.950 . S
H1197 C1209 0.950 . S
H1198 C1206 0.950 . S
H1199 C1208 0.950 . S
H1200 C1210 0.950 . S
H1201 C1212 0.950 . S
H1202 C1214 0.950 . S
H1203 C1215 0.950 . S
C1204 H1196 0.950 . S
C1204 C1205 1.386 . S
C1204 C1206 1.391 . S
C1205 C1204 1.386 . S
C1205 C1209 1.393 . S
C1206 H1198 0.950 . S
C1206 C1204 1.391 . S
C1206 C1207 1.400 . S
C1207 C1206 1.400 . S
C1207 C1208 1.398 . S
C1207 C1213 1.491 . S
C1208 H1199 0.950 . S
C1208 C1207 1.398 . S
C1208 C1209 1.391 . S
C1209 H1197 0.950 . S
C1209 C1205 1.393 . S
C1209 C1208 1.391 . S
C1210 H1200 0.950 . S
C1210 C1211 1.386 . S
C1210 C1212 1.391 . S
C1211 C1210 1.386 . S
C1211 C1215 1.393 . S
C1212 H1201 0.950 . S
C1212 C1210 1.391 . S
C1212 C1213 1.400 . S
C1213 C1207 1.491 . S
C1213 C1212 1.400 . S
C1213 C1214 1.398 . S
C1214 H1202 0.950 . S
C1214 C1213 1.398 . S
C1214 C1215 1.391 . S
C1215 H1203 0.950 . S
C1215 C1211 1.393 . S
C1215 C1214 1.391 . S
H1216 C1224 0.950 . S
H1217 C1229 0.950 . S
H1218 C1226 0.950 . S
H1219 C1228 0.950 . S
H1220 C1230 0.950 . S
H1221 C1232 0.950 . S
H1222 C1234 0.950 . S
H1223 C1235 0.950 . S
C1224 H1216 0.950 . S
C1224 C1225 1.386 . S
C1224 C1226 1.391 . S
C1225 C1224 1.386 . S
C1225 C1229 1.393 . S
C1226 H1218 0.950 . S
C1226 C1224 1.391 . S
C1226 C1227 1.400 . S
C1227 C1226 1.400 . S
C1227 C1228 1.398 . S
C1227 C1233 1.491 . S
C1228 H1219 0.950 . S
C1228 C1227 1.398 . S
C1228 C1229 1.391 . S
C1229 H1217 0.950 . S
C1229 C1225 1.393 . S
C1229 C1228 1.391 . S
C1230 H1220 0.950 . S
C1230 C1231 1.386 . S
C1230 C1232 1.391 . S
C1231 C1230 1.386 . S
C1231 C1235 1.393 . S
C1232 H1221 0.950 . S
C1232 C1230 1.391 . S
C1232 C1233 1.400 . S
C1233 C1227 1.491 . S
C1233 C1232 1.400 . S
C1233 C1234 1.398 . S
C1234 H1222 0.950 . S
C1234 C1233 1.398 . S
C1234 C1235 1.391 . S
C1235 H1223 0.950 . S
C1235 C1231 1.393 . S
C1235 C1234 1.391 . S
H1236 C1244 0.950 . S
H1237 C1249 0.950 . S
H1238 C1246 0.950 . S
H1239 C1248 0.950 . S
H1240 C1250 0.950 . S
H1241 C1252 0.950 . S
H1242 C1254 0.950 . S
H1243 C1255 0.950 . S
C1244 H1236 0.950 . S
C1244 C1245 1.386 . S
C1244 C1246 1.391 . S
C1245 C1244 1.386 . S
C1245 C1249 1.393 . S
C1246 H1238 0.950 . S
C1246 C1244 1.391 . S
C1246 C1247 1.400 . S
C1247 C1246 1.400 . S
C1247 C1248 1.398 . S
C1247 C1253 1.491 . S
C1248 H1239 0.950 . S
C1248 C1247 1.398 . S
C1248 C1249 1.391 . S
C1249 H1237 0.950 . S
C1249 C1245 1.393 . S
C1249 C1248 1.391 . S
C1250 H1240 0.950 . S
C1250 C1251 1.386 . S
C1250 C1252 1.391 . S
C1251 C1250 1.386 . S
C1251 C1255 1.393 . S
C1252 H1241 0.950 . S
C1252 C1250 1.391 . S
C1252 C1253 1.400 . S
C1253 C1247 1.491 . S
C1253 C1252 1.400 . S
C1253 C1254 1.398 . S
C1254 H1242 0.950 . S
C1254 C1253 1.398 . S
C1254 C1255 1.391 . S
C1255 H1243 0.950 . S
C1255 C1251 1.393 . S
C1255 C1254 1.391 . S
H1256 C1264 0.950 . S
H1257 C1269 0.950 . S
H1258 C1266 0.950 . S
H1259 C1268 0.950 . S
H1260 C1270 0.950 . S
H1261 C1272 0.950 . S
H1262 C1274 0.950 . S
H1263 C1275 0.950 . S
C1264 H1256 0.950 . S
C1264 C1265 1.386 . S
C1264 C1266 1.391 . S
C1265 C1264 1.386 . S
C1265 C1269 1.393 . S
C1266 H1258 0.950 . S
C1266 C1264 1.391 . S
C1266 C1267 1.400 . S
C1267 C1266 1.400 . S
C1267 C1268 1.398 . S
C1267 C1273 1.491 . S
C1268 H1259 0.950 . S
C1268 C1267 1.398 . S
C1268 C1269 1.391 . S
C1269 H1257 0.950 . S
C1269 C1265 1.393 . S
C1269 C1268 1.391 . S
C1270 H1260 0.950 . S
C1270 C1271 1.386 . S
C1270 C1272 1.391 . S
C1271 C1270 1.386 . S
C1271 C1275 1.393 . S
C1272 H1261 0.950 . S
C1272 C1270 1.391 . S
C1272 C1273 1.400 . S
C1273 C1267 1.491 . S
C1273 C1272 1.400 . S
C1273 C1274 1.398 . S
C1274 H1262 0.950 . S
C1274 C1273 1.398 . S
C1274 C1275 1.391 . S
C1275 H1263 0.950 . S
C1275 C1271 1.393 . S
C1275 C1274 1.391 . S
H1276 C1284 0.950 . S
H1277 C1289 0.950 . S
H1278 C1286 0.950 . S
H1279 C1288 0.950 . S
H1280 C1290 0.950 . S
H1281 C1292 0.950 . S
H1282 C1294 0.950 . S
H1283 C1295 0.950 . S
C1284 H1276 0.950 . S
C1284 C1285 1.386 . S
C1284 C1286 1.391 . S
C1285 C1284 1.386 . S
C1285 C1289 1.393 . S
C1286 H1278 0.950 . S
C1286 C1284 1.391 . S
C1286 C1287 1.400 . S
C1287 C1286 1.400 . S
C1287 C1288 1.398 . S
C1287 C1293 1.491 . S
C1288 H1279 0.950 . S
C1288 C1287 1.398 . S
C1288 C1289 1.391 . S
C1289 H1277 0.950 . S
C1289 C1285 1.393 . S
C1289 C1288 1.391 . S
C1290 H1280 0.950 . S
C1290 C1291 1.386 . S
C1290 C1292 1.391 . S
C1291 C1290 1.386 . S
C1291 C1295 1.393 . S
C1292 H1281 0.950 . S
C1292 C1290 1.391 . S
C1292 C1293 1.400 . S
C1293 C1287 1.491 . S
C1293 C1292 1.400 . S
C1293 C1294 1.398 . S
C1294 H1282 0.950 . S
C1294 C1293 1.398 . S
C1294 C1295 1.391 . S
C1295 H1283 0.950 . S
C1295 C1291 1.393 . S
C1295 C1294 1.391 . S
H1296 C1304 0.950 . S
H1297 C1309 0.950 1_655 S
H1298 C1306 0.950 . S
H1299 C1308 0.950 1_655 S
H1300 C1310 0.950 1_655 S
H1301 C1312 0.950 1_655 S
H1302 C1314 0.950 . S
H1303 C1315 0.950 . S
C1304 H1296 0.950 . S
C1304 C1305 1.386 . S
C1304 C1306 1.391 . S
C1305 C1304 1.386 . S
C1305 C1309 1.393 . S
C1306 H1298 0.950 . S
C1306 C1304 1.391 . S
C1306 C1307 1.400 . S
C1307 C1306 1.400 . S
C1307 C1308 1.398 . S
C1307 C1313 1.491 . S
C1308 H1299 0.950 1_455 S
C1308 C1307 1.398 . S
C1308 C1309 1.391 . S
C1309 H1297 0.950 1_455 S
C1309 C1305 1.393 . S
C1309 C1308 1.391 . S
C1310 H1300 0.950 1_455 S
C1310 C1311 1.386 . S
C1310 C1312 1.391 . S
C1311 C1310 1.386 . S
C1311 C1315 1.393 . S
C1312 H1301 0.950 1_455 S
C1312 C1310 1.391 . S
C1312 C1313 1.400 . S
C1313 C1307 1.491 . S
C1313 C1312 1.400 . S
C1313 C1314 1.398 . S
C1314 H1302 0.950 . S
C1314 C1313 1.398 . S
C1314 C1315 1.391 . S
C1315 H1303 0.950 . S
C1315 C1311 1.393 . S
C1315 C1314 1.391 . S
H1316 C1324 0.950 . S
H1317 C1329 0.950 . S
H1318 C1326 0.950 . S
H1319 C1328 0.950 . S
H1320 C1330 0.950 . S
H1321 C1332 0.950 . S
H1322 C1334 0.950 . S
H1323 C1335 0.950 . S
C1324 H1316 0.950 . S
C1324 C1325 1.386 . S
C1324 C1326 1.391 . S
C1325 C1324 1.386 . S
C1325 C1329 1.393 . S
C1326 H1318 0.950 . S
C1326 C1324 1.391 . S
C1326 C1327 1.400 . S
C1327 C1326 1.400 . S
C1327 C1328 1.398 . S
C1327 C1333 1.491 . S
C1328 H1319 0.950 . S
C1328 C1327 1.398 . S
C1328 C1329 1.391 . S
C1329 H1317 0.950 . S
C1329 C1325 1.393 . S
C1329 C1328 1.391 . S
C1330 H1320 0.950 . S
C1330 C1331 1.386 . S
C1330 C1332 1.391 . S
C1331 C1330 1.386 . S
C1331 C1335 1.393 . S
C1332 H1321 0.950 . S
C1332 C1330 1.391 . S
C1332 C1333 1.400 . S
C1333 C1327 1.491 . S
C1333 C1332 1.400 . S
C1333 C1334 1.398 . S
C1334 H1322 0.950 . S
C1334 C1333 1.398 . S
C1334 C1335 1.391 . S
C1335 H1323 0.950 . S
C1335 C1331 1.393 . S
C1335 C1334 1.391 . S
H1336 C1344 0.950 . S
H1337 C1349 0.950 . S
H1338 C1346 0.950 . S
H1339 C1348 0.950 . S
H1340 C1350 0.950 . S
H1341 C1352 0.950 . S
H1342 C1354 0.950 . S
H1343 C1355 0.950 . S
C1344 H1336 0.950 . S
C1344 C1345 1.386 . S
C1344 C1346 1.391 . S
C1345 C1344 1.386 . S
C1345 C1349 1.393 . S
C1346 H1338 0.950 . S
C1346 C1344 1.391 . S
C1346 C1347 1.400 . S
C1347 C1346 1.400 . S
C1347 C1348 1.398 . S
C1347 C1353 1.491 . S
C1348 H1339 0.950 . S
C1348 C1347 1.398 . S
C1348 C1349 1.391 . S
C1349 H1337 0.950 . S
C1349 C1345 1.393 . S
C1349 C1348 1.391 . S
C1350 H1340 0.950 . S
C1350 C1351 1.386 . S
C1350 C1352 1.391 . S
C1351 C1350 1.386 . S
C1351 C1355 1.393 . S
C1352 H1341 0.950 . S
C1352 C1350 1.391 . S
C1352 C1353 1.400 . S
C1353 C1347 1.491 . S
C1353 C1352 1.400 . S
C1353 C1354 1.398 . S
C1354 H1342 0.950 . S
C1354 C1353 1.398 . S
C1354 C1355 1.391 . S
C1355 H1343 0.950 . S
C1355 C1351 1.393 . S
C1355 C1354 1.391 . S
H1356 C1364 0.950 . S
H1357 C1369 0.950 . S
H1358 C1366 0.950 . S
H1359 C1368 0.950 . S
H1360 C1370 0.950 . S
H1361 C1372 0.950 . S
H1362 C1374 0.950 . S
H1363 C1375 0.950 . S
C1364 H1356 0.950 . S
C1364 C1365 1.386 . S
C1364 C1366 1.391 . S
C1365 C1364 1.386 . S
C1365 C1369 1.393 . S
C1366 H1358 0.950 . S
C1366 C1364 1.391 . S
C1366 C1367 1.400 . S
C1367 C1366 1.400 . S
C1367 C1368 1.398 . S
C1367 C1373 1.491 . S
C1368 H1359 0.950 . S
C1368 C1367 1.398 . S
C1368 C1369 1.391 . S
C1369 H1357 0.950 . S
C1369 C1365 1.393 . S
C1369 C1368 1.391 . S
C1370 H1360 0.950 . S
C1370 C1371 1.386 . S
C1370 C1372 1.391 . S
C1371 C1370 1.386 . S
C1371 C1375 1.393 . S
C1372 H1361 0.950 . S
C1372 C1370 1.391 . S
C1372 C1373 1.400 . S
C1373 C1367 1.491 . S
C1373 C1372 1.400 . S
C1373 C1374 1.398 . S
C1374 H1362 0.950 . S
C1374 C1373 1.398 . S
C1374 C1375 1.391 . S
C1375 H1363 0.950 . S
C1375 C1371 1.393 . S
C1375 C1374 1.391 . S
H1376 C1384 0.950 . S
H1377 C1389 0.950 . S
H1378 C1386 0.950 . S
H1379 C1388 0.950 . S
H1380 C1390 0.950 . S
H1381 C1392 0.950 . S
H1382 C1394 0.950 1_655 S
H1383 C1395 0.950 . S
C1384 H1376 0.950 . S
C1384 C1385 1.386 1_655 S
C1384 C1386 1.391 . S
C1385 C1384 1.386 1_455 S
C1385 C1389 1.393 . S
C1386 H1378 0.950 . S
C1386 C1384 1.391 . S
C1386 C1387 1.400 1_655 S
C1387 C1386 1.400 1_455 S
C1387 C1388 1.398 . S
C1387 C1393 1.491 . S
C1388 H1379 0.950 . S
C1388 C1387 1.398 . S
C1388 C1389 1.391 . S
C1389 H1377 0.950 . S
C1389 C1385 1.393 . S
C1389 C1388 1.391 . S
C1390 H1380 0.950 . S
C1390 C1391 1.386 . S
C1390 C1392 1.391 . S
C1391 C1390 1.386 . S
C1391 C1395 1.393 . S
C1392 H1381 0.950 . S
C1392 C1390 1.391 . S
C1392 C1393 1.400 . S
C1393 C1387 1.491 . S
C1393 C1392 1.400 . S
C1393 C1394 1.398 . S
C1394 H1382 0.950 1_455 S
C1394 C1393 1.398 . S
C1394 C1395 1.391 . S
C1395 H1383 0.950 . S
C1395 C1391 1.393 . S
C1395 C1394 1.391 . S
H1396 C1404 0.950 . S
H1397 C1409 0.950 . S
H1398 C1406 0.950 . S
H1399 C1408 0.950 . S
H1400 C1410 0.950 . S
H1401 C1412 0.950 . S
H1402 C1414 0.950 . S
H1403 C1415 0.950 . S
C1404 H1396 0.950 . S
C1404 C1405 1.386 . S
C1404 C1406 1.391 . S
C1405 C1404 1.386 . S
C1405 C1409 1.393 . S
C1406 H1398 0.950 . S
C1406 C1404 1.391 . S
C1406 C1407 1.400 . S
C1407 C1406 1.400 . S
C1407 C1408 1.398 . S
C1407 C1413 1.491 . S
C1408 H1399 0.950 . S
C1408 C1407 1.398 . S
C1408 C1409 1.391 . S
C1409 H1397 0.950 . S
C1409 C1405 1.393 . S
C1409 C1408 1.391 . S
C1410 H1400 0.950 . S
C1410 C1411 1.386 . S
C1410 C1412 1.391 . S
C1411 C1410 1.386 . S
C1411 C1415 1.393 . S
C1412 H1401 0.950 . S
C1412 C1410 1.391 . S
C1412 C1413 1.400 . S
C1413 C1407 1.491 . S
C1413 C1412 1.400 . S
C1413 C1414 1.398 . S
C1414 H1402 0.950 . S
C1414 C1413 1.398 . S
C1414 C1415 1.391 . S
C1415 H1403 0.950 . S
C1415 C1411 1.393 . S
C1415 C1414 1.391 . S
H1416 C1424 0.950 . S
H1417 C1429 0.950 . S
H1418 C1426 0.950 . S
H1419 C1428 0.950 . S
H1420 C1430 0.950 . S
H1421 C1432 0.950 . S
H1422 C1434 0.950 . S
H1423 C1435 0.950 . S
C1424 H1416 0.950 . S
C1424 C1425 1.386 . S
C1424 C1426 1.391 . S
C1425 C1424 1.386 . S
C1425 C1429 1.393 . S
C1426 H1418 0.950 . S
C1426 C1424 1.391 . S
C1426 C1427 1.400 . S
C1427 C1426 1.400 . S
C1427 C1428 1.398 . S
C1427 C1433 1.491 . S
C1428 H1419 0.950 . S
C1428 C1427 1.398 . S
C1428 C1429 1.391 . S
C1429 H1417 0.950 . S
C1429 C1425 1.393 . S
C1429 C1428 1.391 . S
C1430 H1420 0.950 . S
C1430 C1431 1.386 . S
C1430 C1432 1.391 . S
C1431 C1430 1.386 . S
C1431 C1435 1.393 . S
C1432 H1421 0.950 . S
C1432 C1430 1.391 . S
C1432 C1433 1.400 . S
C1433 C1427 1.491 . S
C1433 C1432 1.400 . S
C1433 C1434 1.398 . S
C1434 H1422 0.950 . S
C1434 C1433 1.398 . S
C1434 C1435 1.391 . S
C1435 H1423 0.950 . S
C1435 C1431 1.393 . S
C1435 C1434 1.391 . S
H1436 C1444 0.950 . S
H1437 C1449 0.950 . S
H1438 C1446 0.950 . S
H1439 C1448 0.950 . S
H1440 C1450 0.950 . S
H1441 C1452 0.950 . S
H1442 C1454 0.950 . S
H1443 C1455 0.950 . S
C1444 H1436 0.950 . S
C1444 C1445 1.386 . S
C1444 C1446 1.391 . S
C1445 C1444 1.386 . S
C1445 C1449 1.393 . S
C1446 H1438 0.950 . S
C1446 C1444 1.391 . S
C1446 C1447 1.400 . S
C1447 C1446 1.400 . S
C1447 C1448 1.398 . S
C1447 C1453 1.491 . S
C1448 H1439 0.950 . S
C1448 C1447 1.398 . S
C1448 C1449 1.391 . S
C1449 H1437 0.950 . S
C1449 C1445 1.393 . S
C1449 C1448 1.391 . S
C1450 H1440 0.950 . S
C1450 C1451 1.386 . S
C1450 C1452 1.391 . S
C1451 C1450 1.386 . S
C1451 C1455 1.393 . S
C1452 H1441 0.950 . S
C1452 C1450 1.391 . S
C1452 C1453 1.400 . S
C1453 C1447 1.491 . S
C1453 C1452 1.400 . S
C1453 C1454 1.398 . S
C1454 H1442 0.950 . S
C1454 C1453 1.398 . S
C1454 C1455 1.391 . S
C1455 H1443 0.950 . S
C1455 C1451 1.393 . S
C1455 C1454 1.391 . S
H1456 C1464 0.950 . S
H1457 C1469 0.950 . S
H1458 C1466 0.950 . S
H1459 C1468 0.950 . S
H1460 C1470 0.950 1_455 S
H1461 C1472 0.950 . S
H1462 C1474 0.950 . S
H1463 C1475 0.950 . S
C1464 H1456 0.950 . S
C1464 C1465 1.386 . S
C1464 C1466 1.391 . S
C1465 C1464 1.386 . S
C1465 C1469 1.393 . S
C1466 H1458 0.950 . S
C1466 C1464 1.391 . S
C1466 C1467 1.400 . S
C1467 C1466 1.400 . S
C1467 C1468 1.398 . S
C1467 C1473 1.491 . S
C1468 H1459 0.950 . S
C1468 C1467 1.398 . S
C1468 C1469 1.391 . S
C1469 H1457 0.950 . S
C1469 C1465 1.393 . S
C1469 C1468 1.391 . S
C1470 H1460 0.950 1_655 S
C1470 C1471 1.386 . S
C1470 C1472 1.391 . S
C1471 C1470 1.386 . S
C1471 C1475 1.393 . S
C1472 H1461 0.950 . S
C1472 C1470 1.391 . S
C1472 C1473 1.400 . S
C1473 C1467 1.491 . S
C1473 C1472 1.400 . S
C1473 C1474 1.398 . S
C1474 H1462 0.950 . S
C1474 C1473 1.398 . S
C1474 C1475 1.391 . S
C1475 H1463 0.950 . S
C1475 C1471 1.393 . S
C1475 C1474 1.391 . S
H1476 C1484 0.950 . S
H1477 C1489 0.950 . S
H1478 C1486 0.950 . S
H1479 C1488 0.950 . S
H1480 C1490 0.950 . S
H1481 C1492 0.950 . S
H1482 C1494 0.950 . S
H1483 C1495 0.950 . S
C1484 H1476 0.950 . S
C1484 C1485 1.386 . S
C1484 C1486 1.391 . S
C1485 C1484 1.386 . S
C1485 C1489 1.393 . S
C1486 H1478 0.950 . S
C1486 C1484 1.391 . S
C1486 C1487 1.400 . S
C1487 C1486 1.400 . S
C1487 C1488 1.398 . S
C1487 C1493 1.491 . S
C1488 H1479 0.950 . S
C1488 C1487 1.398 . S
C1488 C1489 1.391 . S
C1489 H1477 0.950 . S
C1489 C1485 1.393 . S
C1489 C1488 1.391 . S
C1490 H1480 0.950 . S
C1490 C1491 1.386 . S
C1490 C1492 1.391 . S
C1491 C1490 1.386 . S
C1491 C1495 1.393 . S
C1492 H1481 0.950 . S
C1492 C1490 1.391 . S
C1492 C1493 1.400 . S
C1493 C1487 1.491 . S
C1493 C1492 1.400 . S
C1493 C1494 1.398 . S
C1494 H1482 0.950 . S
C1494 C1493 1.398 . S
C1494 C1495 1.391 . S
C1495 H1483 0.950 . S
C1495 C1491 1.393 . S
C1495 C1494 1.391 . S
H1496 C1504 0.950 . S
H1497 C1509 0.950 1_565 S
H1498 C1506 0.950 . S
H1499 C1508 0.950 1_565 S
H1500 C1510 0.950 . S
H1501 C1512 0.963 . S
H1502 C1514 0.950 . S
H1503 C1515 0.950 . S
C1504 H1496 0.950 . S
C1504 C1505 1.386 . S
C1504 C1506 1.391 . S
C1505 C1504 1.386 . S
C1505 C1509 1.393 . S
C1506 H1498 0.950 . S
C1506 C1504 1.391 . S
C1506 C1507 1.400 . S
C1507 C1506 1.400 . S
C1507 C1508 1.398 . S
C1507 C1513 1.491 . S
C1508 H1499 0.950 1_545 S
C1508 C1507 1.398 . S
C1508 C1509 1.391 . S
C1509 H1497 0.950 1_545 S
C1509 C1505 1.393 . S
C1509 C1508 1.391 . S
C1510 H1500 0.950 . S
C1510 C1511 1.386 . S
C1510 C1512 1.391 . S
C1511 C1510 1.386 . S
C1511 C1515 1.393 . S
C1512 H1501 0.963 . S
C1512 C1510 1.391 . S
C1512 C1513 1.400 . S
C1513 C1507 1.491 . S
C1513 C1512 1.400 . S
C1513 C1514 1.398 . S
C1514 H1502 0.950 . S
C1514 C1513 1.398 . S
C1514 C1515 1.391 . S
C1515 H1503 0.950 . S
C1515 C1511 1.393 . S
C1515 C1514 1.391 . S
H1516 C1524 0.950 . S
H1517 C1529 0.950 . S
H1518 C1526 0.950 . S
H1519 C1528 0.950 . S
H1520 C1530 0.950 . S
H1521 C1532 0.950 . S
H1522 C1534 0.950 . S
H1523 C1535 0.950 . S
C1524 H1516 0.950 . S
C1524 C1525 1.386 . S
C1524 C1526 1.391 . S
C1525 C1524 1.386 . S
C1525 C1529 1.393 . S
C1526 H1518 0.950 . S
C1526 C1524 1.391 . S
C1526 C1527 1.400 . S
C1527 C1526 1.400 . S
C1527 C1528 1.398 . S
C1527 C1533 1.491 . S
C1528 H1519 0.950 . S
C1528 C1527 1.398 . S
C1528 C1529 1.391 . S
C1529 H1517 0.950 . S
C1529 C1525 1.393 . S
C1529 C1528 1.391 . S
C1530 H1520 0.950 . S
C1530 C1531 1.386 . S
C1530 C1532 1.391 . S
C1531 C1530 1.386 . S
C1531 C1535 1.393 . S
C1532 H1521 0.950 . S
C1532 C1530 1.391 . S
C1532 C1533 1.400 . S
C1533 C1527 1.491 . S
C1533 C1532 1.400 . S
C1533 C1534 1.398 . S
C1534 H1522 0.950 . S
C1534 C1533 1.398 . S
C1534 C1535 1.391 . S
C1535 H1523 0.950 . S
C1535 C1531 1.393 . S
C1535 C1534 1.391 . S
H1536 C1544 0.950 . S
H1537 C1549 0.950 . S
H1538 C1546 0.950 . S
H1539 C1548 0.950 . S
H1540 C1550 0.950 . S
H1541 C1552 0.950 . S
H1542 C1554 0.935 1_455 S
H1543 C1555 0.950 . S
C1544 H1536 0.950 . S
C1544 C1545 1.386 . S
C1544 C1546 1.391 . S
C1545 C1544 1.386 . S
C1545 C1549 1.393 . S
C1546 H1538 0.950 . S
C1546 C1544 1.391 . S
C1546 C1547 1.400 . S
C1547 C1546 1.400 . S
C1547 C1548 1.398 . S
C1547 C1553 1.491 . S
C1548 H1539 0.950 . S
C1548 C1547 1.398 . S
C1548 C1549 1.391 . S
C1549 H1537 0.950 . S
C1549 C1545 1.393 . S
C1549 C1548 1.391 . S
C1550 H1540 0.950 . S
C1550 C1551 1.386 . S
C1550 C1552 1.391 . S
C1551 C1550 1.386 . S
C1551 C1555 1.393 1_655 S
C1552 H1541 0.950 . S
C1552 C1550 1.391 . S
C1552 C1553 1.400 . S
C1553 C1547 1.491 . S
C1553 C1552 1.400 . S
C1553 C1554 1.398 . S
C1554 H1542 0.935 1_655 S
C1554 C1553 1.398 . S
C1554 C1555 1.391 1_655 S
C1555 H1543 0.950 . S
C1555 C1551 1.393 1_455 S
C1555 C1554 1.391 1_455 S
H1556 C1564 0.950 . S
H1557 C1569 0.950 . S
H1558 C1566 0.950 . S
H1559 C1568 0.950 . S
H1560 C1570 0.950 . S
H1561 C1572 0.950 . S
H1562 C1574 0.950 . S
H1563 C1575 0.950 . S
C1564 H1556 0.950 . S
C1564 C1565 1.386 . S
C1564 C1566 1.391 . S
C1565 C1564 1.386 . S
C1565 C1569 1.393 . S
C1566 H1558 0.950 . S
C1566 C1564 1.391 . S
C1566 C1567 1.400 . S
C1567 C1566 1.400 . S
C1567 C1568 1.398 . S
C1567 C1573 1.491 . S
C1568 H1559 0.950 . S
C1568 C1567 1.398 . S
C1568 C1569 1.391 . S
C1569 H1557 0.950 . S
C1569 C1565 1.393 . S
C1569 C1568 1.391 . S
C1570 H1560 0.950 . S
C1570 C1571 1.386 . S
C1570 C1572 1.391 . S
C1571 C1570 1.386 . S
C1571 C1575 1.393 . S
C1572 H1561 0.950 . S
C1572 C1570 1.391 . S
C1572 C1573 1.400 . S
C1573 C1567 1.491 . S
C1573 C1572 1.400 . S
C1573 C1574 1.398 . S
C1574 H1562 0.950 . S
C1574 C1573 1.398 . S
C1574 C1575 1.391 . S
C1575 H1563 0.950 . S
C1575 C1571 1.393 . S
C1575 C1574 1.391 . S
H1576 C1584 0.950 . S
H1577 C1589 0.950 . S
H1578 C1586 0.950 . S
H1579 C1588 0.950 1_565 S
H1580 C1590 0.950 . S
H1581 C1592 0.919 1_565 S
H1582 C1594 0.950 . S
H1583 C1595 0.950 . S
C1584 H1576 0.950 . S
C1584 C1585 1.386 . S
C1584 C1586 1.391 . S
C1585 C1584 1.386 . S
C1585 C1589 1.393 1_545 S
C1586 H1578 0.950 . S
C1586 C1584 1.391 . S
C1586 C1587 1.400 . S
C1587 C1586 1.400 . S
C1587 C1588 1.398 . S
C1587 C1593 1.491 . S
C1588 H1579 0.950 1_545 S
C1588 C1587 1.398 . S
C1588 C1589 1.391 1_545 S
C1589 H1577 0.950 . S
C1589 C1585 1.393 1_565 S
C1589 C1588 1.391 1_565 S
C1590 H1580 0.950 . S
C1590 C1591 1.386 . S
C1590 C1592 1.391 . S
C1591 C1590 1.386 . S
C1591 C1595 1.393 . S
C1592 H1581 0.919 1_545 S
C1592 C1590 1.391 . S
C1592 C1593 1.400 . S
C1593 C1587 1.491 . S
C1593 C1592 1.400 . S
C1593 C1594 1.398 . S
C1594 H1582 0.950 . S
C1594 C1593 1.398 . S
C1594 C1595 1.391 . S
C1595 H1583 0.950 . S
C1595 C1591 1.393 . S
C1595 C1594 1.391 . S
H1596 C1604 0.950 . S
H1597 C1609 0.950 . S
H1598 C1606 0.950 . S
H1599 C1608 0.950 . S
H1600 C1610 0.950 . S
H1601 C1612 0.950 . S
H1602 C1614 0.950 . S
H1603 C1615 0.950 . S
C1604 H1596 0.950 . S
C1604 C1605 1.386 . S
C1604 C1606 1.391 . S
C1605 C1604 1.386 . S
C1605 C1609 1.393 . S
C1606 H1598 0.950 . S
C1606 C1604 1.391 . S
C1606 C1607 1.400 . S
C1607 C1606 1.400 . S
C1607 C1608 1.398 . S
C1607 C1613 1.491 . S
C1608 H1599 0.950 . S
C1608 C1607 1.398 . S
C1608 C1609 1.391 . S
C1609 H1597 0.950 . S
C1609 C1605 1.393 . S
C1609 C1608 1.391 . S
C1610 H1600 0.950 . S
C1610 C1611 1.386 . S
C1610 C1612 1.391 . S
C1611 C1610 1.386 . S
C1611 C1615 1.393 . S
C1612 H1601 0.950 . S
C1612 C1610 1.391 . S
C1612 C1613 1.400 . S
C1613 C1607 1.491 . S
C1613 C1612 1.400 . S
C1613 C1614 1.398 . S
C1614 H1602 0.950 . S
C1614 C1613 1.398 . S
C1614 C1615 1.391 . S
C1615 H1603 0.950 . S
C1615 C1611 1.393 . S
C1615 C1614 1.391 . S
H1616 C1624 0.950 . S
H1617 C1629 0.950 1_556 S
H1618 C1626 0.950 . S
H1619 C1628 0.950 1_556 S
H1620 C1630 0.943 1_546 S
H1621 C1632 0.950 1_556 S
H1622 C1634 0.950 . S
H1623 C1635 0.950 . S
C1624 H1616 0.950 . S
C1624 C1625 1.386 . S
C1624 C1626 1.391 . S
C1625 C1624 1.386 . S
C1625 C1629 1.393 . S
C1626 H1618 0.950 . S
C1626 C1624 1.391 . S
C1626 C1627 1.400 . S
C1627 C1626 1.400 . S
C1627 C1628 1.398 . S
C1627 C1633 1.491 . S
C1628 H1619 0.950 1_554 S
C1628 C1627 1.398 . S
C1628 C1629 1.391 . S
C1629 H1617 0.950 1_554 S
C1629 C1625 1.393 . S
C1629 C1628 1.391 . S
C1630 H1620 0.943 1_564 S
C1630 C1631 1.386 1_565 S
C1630 C1632 1.391 . S
C1631 C1630 1.386 1_545 S
C1631 C1635 1.393 . S
C1632 H1621 0.950 1_554 S
C1632 C1630 1.391 . S
C1632 C1633 1.400 . S
C1633 C1627 1.491 . S
C1633 C1632 1.400 . S
C1633 C1634 1.398 . S
C1634 H1622 0.950 . S
C1634 C1633 1.398 . S
C1634 C1635 1.391 1_565 S
C1635 H1623 0.950 . S
C1635 C1631 1.393 . S
C1635 C1634 1.391 1_545 S
H1636 C1644 0.950 . S
H1637 C1649 0.950 . S
H1638 C1646 0.950 . S
H1639 C1648 0.950 . S
H1640 C1650 0.950 . S
H1641 C1652 0.950 . S
H1642 C1654 0.950 . S
H1643 C1655 0.950 . S
C1644 H1636 0.950 . S
C1644 C1645 1.357 1_556 S
C1644 C1646 1.391 . S
C1645 C1644 1.357 1_554 S
C1645 C1649 1.425 . S
C1646 H1638 0.950 . S
C1646 C1644 1.391 . S
C1646 C1647 1.400 1_556 S
C1647 C1646 1.400 1_554 S
C1647 C1648 1.398 . S
C1647 C1653 1.491 . S
C1648 H1639 0.950 . S
C1648 C1647 1.398 . S
C1648 C1649 1.391 . S
C1649 H1637 0.950 . S
C1649 C1645 1.425 . S
C1649 C1648 1.391 . S
C1650 H1640 0.950 . S
C1650 C1651 1.386 . S
C1650 C1652 1.391 . S
C1651 C1650 1.386 . S
C1651 C1655 1.393 1_554 S
C1652 H1641 0.950 . S
C1652 C1650 1.391 . S
C1652 C1653 1.400 . S
C1653 C1647 1.491 . S
C1653 C1652 1.400 . S
C1653 C1654 1.398 1_554 S
C1654 H1642 0.950 . S
C1654 C1653 1.398 1_556 S
C1654 C1655 1.391 . S
C1655 H1643 0.950 . S
C1655 C1651 1.393 1_556 S
C1655 C1654 1.391 . S
H1656 C1664 0.950 . S
H1657 C1669 0.950 . S
H1658 C1666 0.950 . S
H1659 C1668 0.950 . S
H1660 C1670 0.950 . S
H1661 C1672 0.950 . S
H1662 C1674 0.950 . S
H1663 C1675 0.950 . S
C1664 H1656 0.950 . S
C1664 C1665 1.386 . S
C1664 C1666 1.391 . S
C1665 C1664 1.386 . S
C1665 C1669 1.393 . S
C1666 H1658 0.950 . S
C1666 C1664 1.391 . S
C1666 C1667 1.400 . S
C1667 C1666 1.400 . S
C1667 C1668 1.398 . S
C1667 C1673 1.491 . S
C1668 H1659 0.950 . S
C1668 C1667 1.398 . S
C1668 C1669 1.391 . S
C1669 H1657 0.950 . S
C1669 C1665 1.393 . S
C1669 C1668 1.391 . S
C1670 H1660 0.950 . S
C1670 C1671 1.386 . S
C1670 C1672 1.391 . S
C1671 C1670 1.386 . S
C1671 C1675 1.393 . S
C1672 H1661 0.950 . S
C1672 C1670 1.391 . S
C1672 C1673 1.400 . S
C1673 C1667 1.491 . S
C1673 C1672 1.400 . S
C1673 C1674 1.398 . S
C1674 H1662 0.950 . S
C1674 C1673 1.398 . S
C1674 C1675 1.391 . S
C1675 H1663 0.950 . S
C1675 C1671 1.393 . S
C1675 C1674 1.391 . S
H1676 C1684 0.950 . S
H1677 C1689 0.950 . S
H1678 C1686 0.950 . S
H1679 C1688 0.950 . S
H1680 C1690 0.950 . S
H1681 C1692 0.950 . S
H1682 C1694 0.950 . S
H1683 C1695 0.950 . S
C1684 H1676 0.950 . S
C1684 C1685 1.386 . S
C1684 C1686 1.391 . S
C1685 C1684 1.386 . S
C1685 C1689 1.393 . S
C1686 H1678 0.950 . S
C1686 C1684 1.391 . S
C1686 C1687 1.400 . S
C1687 C1686 1.400 . S
C1687 C1688 1.398 . S
C1687 C1693 1.491 . S
C1688 H1679 0.950 . S
C1688 C1687 1.398 . S
C1688 C1689 1.391 . S
C1689 H1677 0.950 . S
C1689 C1685 1.393 . S
C1689 C1688 1.391 . S
C1690 H1680 0.950 . S
C1690 C1691 1.386 . S
C1690 C1692 1.391 . S
C1691 C1690 1.386 . S
C1691 C1695 1.393 . S
C1692 H1681 0.950 . S
C1692 C1690 1.391 . S
C1692 C1693 1.400 . S
C1693 C1687 1.491 . S
C1693 C1692 1.400 . S
C1693 C1694 1.398 . S
C1694 H1682 0.950 . S
C1694 C1693 1.398 . S
C1694 C1695 1.391 . S
C1695 H1683 0.950 . S
C1695 C1691 1.393 . S
C1695 C1694 1.391 . S
H1696 C1704 0.985 . S
H1697 C1709 0.950 . S
H1698 C1706 0.950 . S
H1699 C1708 0.950 . S
H1700 C1710 0.950 . S
H1701 C1712 0.950 . S
H1702 C1714 0.950 . S
H1703 C1715 0.950 . S
C1704 H1696 0.985 . S
C1704 C1705 1.393 . S
C1704 C1706 1.350 1_545 S
C1705 C1704 1.393 . S
C1705 C1709 1.393 1_545 S
C1706 H1698 0.950 . S
C1706 C1704 1.350 1_565 S
C1706 C1707 1.400 . S
C1707 C1706 1.400 . S
C1707 C1708 1.398 . S
C1707 C1713 1.491 . S
C1708 H1699 0.950 . S
C1708 C1707 1.398 . S
C1708 C1709 1.391 . S
C1709 H1697 0.950 . S
C1709 C1705 1.393 1_565 S
C1709 C1708 1.391 . S
C1710 H1700 0.950 . S
C1710 C1711 1.386 . S
C1710 C1712 1.391 . S
C1711 C1710 1.386 . S
C1711 C1715 1.393 . S
C1712 H1701 0.950 . S
C1712 C1710 1.391 . S
C1712 C1713 1.400 . S
C1713 C1707 1.491 . S
C1713 C1712 1.400 . S
C1713 C1714 1.398 . S
C1714 H1702 0.950 . S
C1714 C1713 1.398 . S
C1714 C1715 1.391 . S
C1715 H1703 0.950 . S
C1715 C1711 1.393 . S
C1715 C1714 1.391 . S
H1716 C1724 0.950 . S
H1717 C1729 0.950 . S
H1718 C1726 0.950 . S
H1719 C1728 0.950 . S
H1720 C1730 0.950 . S
H1721 C1732 0.950 . S
H1722 C1734 0.950 . S
H1723 C1735 0.950 . S
C1724 H1716 0.950 . S
C1724 C1725 1.386 . S
C1724 C1726 1.391 . S
C1725 C1724 1.386 . S
C1725 C1729 1.393 . S
C1726 H1718 0.950 . S
C1726 C1724 1.391 . S
C1726 C1727 1.400 . S
C1727 C1726 1.400 . S
C1727 C1728 1.398 . S
C1727 C1733 1.491 . S
C1728 H1719 0.950 . S
C1728 C1727 1.398 . S
C1728 C1729 1.391 . S
C1729 H1717 0.950 . S
C1729 C1725 1.393 . S
C1729 C1728 1.391 . S
C1730 H1720 0.950 . S
C1730 C1731 1.386 . S
C1730 C1732 1.391 . S
C1731 C1730 1.386 . S
C1731 C1735 1.393 . S
C1732 H1721 0.950 . S
C1732 C1730 1.391 . S
C1732 C1733 1.400 . S
C1733 C1727 1.491 . S
C1733 C1732 1.400 . S
C1733 C1734 1.398 . S
C1734 H1722 0.950 . S
C1734 C1733 1.398 . S
C1734 C1735 1.391 . S
C1735 H1723 0.950 . S
C1735 C1731 1.393 . S
C1735 C1734 1.391 . S
H1736 C1744 0.950 . S
H1737 C1749 0.950 . S
H1738 C1746 0.950 . S
H1739 C1748 0.950 . S
H1740 C1750 0.950 . S
H1741 C1752 0.950 . S
H1742 C1754 0.950 . S
H1743 C1755 0.950 . S
C1744 H1736 0.950 . S
C1744 C1745 1.386 . S
C1744 C1746 1.391 . S
C1745 C1744 1.386 . S
C1745 C1749 1.393 . S
C1746 H1738 0.950 . S
C1746 C1744 1.391 . S
C1746 C1747 1.400 . S
C1747 C1746 1.400 . S
C1747 C1748 1.398 . S
C1747 C1753 1.491 . S
C1748 H1739 0.950 . S
C1748 C1747 1.398 . S
C1748 C1749 1.391 . S
C1749 H1737 0.950 . S
C1749 C1745 1.393 . S
C1749 C1748 1.391 . S
C1750 H1740 0.950 . S
C1750 C1751 1.386 . S
C1750 C1752 1.391 . S
C1751 C1750 1.386 . S
C1751 C1755 1.393 . S
C1752 H1741 0.950 . S
C1752 C1750 1.391 . S
C1752 C1753 1.400 . S
C1753 C1747 1.491 . S
C1753 C1752 1.400 . S
C1753 C1754 1.398 . S
C1754 H1742 0.950 . S
C1754 C1753 1.398 . S
C1754 C1755 1.391 . S
C1755 H1743 0.950 . S
C1755 C1751 1.393 . S
C1755 C1754 1.391 . S
H1756 C1764 0.950 . S
H1757 C1769 0.950 . S
H1758 C1766 0.950 . S
H1759 C1768 0.950 . S
H1760 C1770 0.950 . S
H1761 C1772 0.950 . S
H1762 C1774 0.950 . S
H1763 C1775 0.950 . S
C1764 H1756 0.950 . S
C1764 C1765 1.386 . S
C1764 C1766 1.391 . S
C1765 C1764 1.386 . S
C1765 C1769 1.393 . S
C1766 H1758 0.950 . S
C1766 C1764 1.391 . S
C1766 C1767 1.400 . S
C1767 C1766 1.400 . S
C1767 C1768 1.398 . S
C1767 C1773 1.491 . S
C1768 H1759 0.950 . S
C1768 C1767 1.398 . S
C1768 C1769 1.391 . S
C1769 H1757 0.950 . S
C1769 C1765 1.393 . S
C1769 C1768 1.391 . S
C1770 H1760 0.950 . S
C1770 C1771 1.386 . S
C1770 C1772 1.391 . S
C1771 C1770 1.386 . S
C1771 C1775 1.393 . S
C1772 H1761 0.950 . S
C1772 C1770 1.391 . S
C1772 C1773 1.400 . S
C1773 C1767 1.491 . S
C1773 C1772 1.400 . S
C1773 C1774 1.398 . S
C1774 H1762 0.950 . S
C1774 C1773 1.398 . S
C1774 C1775 1.391 . S
C1775 H1763 0.950 . S
C1775 C1771 1.393 . S
C1775 C1774 1.391 . S
H1776 C1784 0.950 . S
H1777 C1789 0.950 . S
H1778 C1786 0.950 . S
H1779 C1788 0.950 . S
H1780 C1790 0.950 . S
H1781 C1792 0.950 . S
H1782 C1794 0.950 . S
H1783 C1795 0.950 . S
C1784 H1776 0.950 . S
C1784 C1785 1.386 . S
C1784 C1786 1.391 . S
C1785 C1784 1.386 . S
C1785 C1789 1.393 . S
C1786 H1778 0.950 . S
C1786 C1784 1.391 . S
C1786 C1787 1.400 . S
C1787 C1786 1.400 . S
C1787 C1788 1.398 . S
C1787 C1793 1.491 . S
C1788 H1779 0.950 . S
C1788 C1787 1.398 . S
C1788 C1789 1.391 . S
C1789 H1777 0.950 . S
C1789 C1785 1.393 . S
C1789 C1788 1.391 . S
C1790 H1780 0.950 . S
C1790 C1791 1.386 . S
C1790 C1792 1.391 . S
C1791 C1790 1.386 . S
C1791 C1795 1.393 . S
C1792 H1781 0.950 . S
C1792 C1790 1.391 . S
C1792 C1793 1.400 . S
C1793 C1787 1.491 . S
C1793 C1792 1.400 . S
C1793 C1794 1.398 . S
C1794 H1782 0.950 . S
C1794 C1793 1.398 . S
C1794 C1795 1.391 . S
C1795 H1783 0.950 . S
C1795 C1791 1.393 . S
C1795 C1794 1.391 . S
H1796 C1804 0.950 . S
H1797 C1809 0.950 . S
H1798 C1806 0.950 . S
H1799 C1808 0.950 . S
H1800 C1810 0.950 . S
H1801 C1812 0.950 . S
H1802 C1814 0.950 . S
H1803 C1815 0.950 . S
C1804 H1796 0.950 . S
C1804 C1805 1.386 . S
C1804 C1806 1.391 . S
C1805 C1804 1.386 . S
C1805 C1809 1.393 . S
C1806 H1798 0.950 . S
C1806 C1804 1.391 . S
C1806 C1807 1.400 . S
C1807 C1806 1.400 . S
C1807 C1808 1.398 . S
C1807 C1813 1.491 . S
C1808 H1799 0.950 . S
C1808 C1807 1.398 . S
C1808 C1809 1.391 . S
C1809 H1797 0.950 . S
C1809 C1805 1.393 . S
C1809 C1808 1.391 . S
C1810 H1800 0.950 . S
C1810 C1811 1.386 . S
C1810 C1812 1.391 . S
C1811 C1810 1.386 . S
C1811 C1815 1.393 . S
C1812 H1801 0.950 . S
C1812 C1810 1.391 . S
C1812 C1813 1.400 . S
C1813 C1807 1.491 . S
C1813 C1812 1.400 . S
C1813 C1814 1.398 . S
C1814 H1802 0.950 . S
C1814 C1813 1.398 . S
C1814 C1815 1.391 . S
C1815 H1803 0.950 . S
C1815 C1811 1.393 . S
C1815 C1814 1.391 . S
H1816 C1824 0.950 . S
H1817 C1829 0.950 1_655 S
H1818 C1826 0.950 . S
H1819 C1828 0.950 1_655 S
H1820 C1830 0.950 . S
H1821 C1832 0.939 1_655 S
H1822 C1834 0.950 . S
H1823 C1835 0.950 . S
C1824 H1816 0.950 . S
C1824 C1825 1.386 . S
C1824 C1826 1.391 . S
C1825 C1824 1.386 . S
C1825 C1829 1.393 . S
C1826 H1818 0.950 . S
C1826 C1824 1.391 . S
C1826 C1827 1.400 . S
C1827 C1826 1.400 . S
C1827 C1828 1.398 . S
C1827 C1833 1.491 . S
C1828 H1819 0.950 1_455 S
C1828 C1827 1.398 . S
C1828 C1829 1.391 . S
C1829 H1817 0.950 1_455 S
C1829 C1825 1.393 . S
C1829 C1828 1.391 . S
C1830 H1820 0.950 . S
C1830 C1831 1.386 . S
C1830 C1832 1.391 . S
C1831 C1830 1.386 . S
C1831 C1835 1.393 . S
C1832 H1821 0.939 1_455 S
C1832 C1830 1.391 . S
C1832 C1833 1.400 . S
C1833 C1827 1.491 . S
C1833 C1832 1.400 . S
C1833 C1834 1.398 . S
C1834 H1822 0.950 . S
C1834 C1833 1.398 . S
C1834 C1835 1.391 . S
C1835 H1823 0.950 . S
C1835 C1831 1.393 . S
C1835 C1834 1.391 . S
H1836 C1844 0.950 . S
H1837 C1849 0.950 1_455 S
H1838 C1846 0.950 . S
H1839 C1848 0.950 . S
H1840 C1850 0.950 . S
H1841 C1852 0.950 . S
H1842 C1854 0.950 . S
H1843 C1855 0.950 . S
C1844 H1836 0.950 . S
C1844 C1845 1.386 . S
C1844 C1846 1.391 . S
C1845 C1844 1.386 . S
C1845 C1849 1.393 . S
C1846 H1838 0.950 . S
C1846 C1844 1.391 . S
C1846 C1847 1.400 . S
C1847 C1846 1.400 . S
C1847 C1848 1.398 . S
C1847 C1853 1.491 . S
C1848 H1839 0.950 . S
C1848 C1847 1.398 . S
C1848 C1849 1.391 . S
C1849 H1837 0.950 1_655 S
C1849 C1845 1.393 . S
C1849 C1848 1.391 . S
C1850 H1840 0.950 . S
C1850 C1851 1.386 . S
C1850 C1852 1.391 . S
C1851 C1850 1.386 . S
C1851 C1855 1.393 . S
C1852 H1841 0.950 . S
C1852 C1850 1.391 . S
C1852 C1853 1.400 . S
C1853 C1847 1.491 . S
C1853 C1852 1.400 . S
C1853 C1854 1.398 . S
C1854 H1842 0.950 . S
C1854 C1853 1.398 . S
C1854 C1855 1.391 . S
C1855 H1843 0.950 . S
C1855 C1851 1.393 . S
C1855 C1854 1.391 . S
H1856 C1864 0.950 . S
H1857 C1869 0.950 . S
H1858 C1866 0.950 . S
H1859 C1868 0.950 . S
H1860 C1870 0.950 . S
H1861 C1872 0.950 . S
H1862 C1874 0.950 . S
H1863 C1875 0.903 1_554 S
C1864 H1856 0.950 . S
C1864 C1865 1.386 . S
C1864 C1866 1.391 . S
C1865 C1864 1.386 . S
C1865 C1869 1.393 . S
C1866 H1858 0.950 . S
C1866 C1864 1.391 . S
C1866 C1867 1.400 . S
C1867 C1866 1.400 . S
C1867 C1868 1.398 . S
C1867 C1873 1.491 . S
C1868 H1859 0.950 . S
C1868 C1867 1.398 . S
C1868 C1869 1.391 . S
C1869 H1857 0.950 . S
C1869 C1865 1.393 . S
C1869 C1868 1.391 . S
C1870 H1860 0.950 . S
C1870 C1871 1.386 . S
C1870 C1872 1.391 . S
C1871 C1870 1.386 . S
C1871 C1875 1.420 . S
C1872 H1861 0.950 . S
C1872 C1870 1.391 . S
C1872 C1873 1.400 . S
C1873 C1867 1.491 . S
C1873 C1872 1.400 . S
C1873 C1874 1.398 . S
C1874 H1862 0.950 . S
C1874 C1873 1.398 . S
C1874 C1875 1.412 . S
C1875 H1863 0.903 1_556 S
C1875 C1871 1.420 . S
C1875 C1874 1.412 . S
H1876 C1884 0.950 . S
H1877 C1889 0.950 . S
H1878 C1886 0.950 . S
H1879 C1888 0.950 . S
H1880 C1890 0.950 . S
H1881 C1892 0.950 . S
H1882 C1894 0.950 . S
H1883 C1895 0.950 . S
C1884 H1876 0.950 . S
C1884 C1885 1.386 . S
C1884 C1886 1.391 . S
C1885 C1884 1.386 . S
C1885 C1889 1.393 . S
C1886 H1878 0.950 . S
C1886 C1884 1.391 . S
C1886 C1887 1.400 . S
C1887 C1886 1.400 . S
C1887 C1888 1.398 . S
C1887 C1893 1.491 . S
C1888 H1879 0.950 . S
C1888 C1887 1.398 . S
C1888 C1889 1.391 . S
C1889 H1877 0.950 . S
C1889 C1885 1.393 . S
C1889 C1888 1.391 . S
C1890 H1880 0.950 . S
C1890 C1891 1.386 . S
C1890 C1892 1.391 . S
C1891 C1890 1.386 . S
C1891 C1895 1.393 . S
C1892 H1881 0.950 . S
C1892 C1890 1.391 . S
C1892 C1893 1.400 . S
C1893 C1887 1.491 . S
C1893 C1892 1.400 . S
C1893 C1894 1.398 . S
C1894 H1882 0.950 . S
C1894 C1893 1.398 . S
C1894 C1895 1.391 . S
C1895 H1883 0.950 . S
C1895 C1891 1.393 . S
C1895 C1894 1.391 . S
H1896 C1904 0.950 . S
H1897 C1909 0.950 . S
H1898 C1906 0.950 . S
H1899 C1908 0.950 . S
H1900 C1910 0.907 1_655 S
H1901 C1912 0.950 . S
H1902 C1914 0.950 . S
H1903 C1915 0.950 . S
C1904 H1896 0.950 . S
C1904 C1905 1.386 . S
C1904 C1906 1.391 . S
C1905 C1904 1.386 . S
C1905 C1909 1.393 . S
C1906 H1898 0.950 . S
C1906 C1904 1.391 . S
C1906 C1907 1.400 . S
C1907 C1906 1.400 . S
C1907 C1908 1.398 . S
C1907 C1913 1.491 . S
C1908 H1899 0.950 . S
C1908 C1907 1.398 . S
C1908 C1909 1.391 . S
C1909 H1897 0.950 . S
C1909 C1905 1.393 . S
C1909 C1908 1.391 . S
C1910 H1900 0.907 1_455 S
C1910 C1911 1.386 . S
C1910 C1912 1.391 . S
C1911 C1910 1.386 . S
C1911 C1915 1.393 . S
C1912 H1901 0.950 . S
C1912 C1910 1.391 . S
C1912 C1913 1.400 . S
C1913 C1907 1.491 . S
C1913 C1912 1.400 . S
C1913 C1914 1.398 . S
C1914 H1902 0.950 . S
C1914 C1913 1.398 . S
C1914 C1915 1.391 . S
C1915 H1903 0.950 . S
C1915 C1911 1.393 . S
C1915 C1914 1.391 . S
H1916 C1924 0.950 . S
H1917 C1929 0.950 . S
H1918 C1926 0.950 . S
H1919 C1928 0.950 . S
H1920 C1930 0.950 . S
H1921 C1932 0.950 . S
H1922 C1934 0.950 . S
H1923 C1935 0.950 . S
C1924 H1916 0.950 . S
C1924 C1925 1.386 . S
C1924 C1926 1.391 . S
C1925 C1924 1.386 . S
C1925 C1929 1.393 . S
C1926 H1918 0.950 . S
C1926 C1924 1.391 . S
C1926 C1927 1.400 . S
C1927 C1926 1.400 . S
C1927 C1928 1.398 . S
C1927 C1933 1.491 . S
C1928 H1919 0.950 . S
C1928 C1927 1.398 . S
C1928 C1929 1.391 . S
C1929 H1917 0.950 . S
C1929 C1925 1.393 . S
C1929 C1928 1.391 . S
C1930 H1920 0.950 . S
C1930 C1931 1.386 . S
C1930 C1932 1.391 . S
C1931 C1930 1.386 . S
C1931 C1935 1.393 . S
C1932 H1921 0.950 . S
C1932 C1930 1.391 . S
C1932 C1933 1.400 . S
C1933 C1927 1.491 . S
C1933 C1932 1.400 . S
C1933 C1934 1.398 . S
C1934 H1922 0.950 . S
C1934 C1933 1.398 . S
C1934 C1935 1.391 . S
C1935 H1923 0.950 . S
C1935 C1931 1.393 . S
C1935 C1934 1.391 . S
H1936 C1944 0.950 . S
H1937 C1949 0.950 . S
H1938 C1946 0.950 . S
H1939 C1948 0.950 . S
H1940 C1950 0.950 . S
H1941 C1952 0.950 . S
H1942 C1954 0.950 . S
H1943 C1955 0.950 . S
C1944 H1936 0.950 . S
C1944 C1945 1.386 . S
C1944 C1946 1.391 . S
C1945 C1944 1.386 . S
C1945 C1949 1.393 . S
C1946 H1938 0.950 . S
C1946 C1944 1.391 . S
C1946 C1947 1.400 . S
C1947 C1946 1.400 . S
C1947 C1948 1.398 . S
C1947 C1953 1.491 . S
C1948 H1939 0.950 . S
C1948 C1947 1.398 . S
C1948 C1949 1.391 . S
C1949 H1937 0.950 . S
C1949 C1945 1.393 . S
C1949 C1948 1.391 . S
C1950 H1940 0.950 . S
C1950 C1951 1.386 . S
C1950 C1952 1.391 . S
C1951 C1950 1.386 . S
C1951 C1955 1.393 . S
C1952 H1941 0.950 . S
C1952 C1950 1.391 . S
C1952 C1953 1.400 . S
C1953 C1947 1.491 . S
C1953 C1952 1.400 . S
C1953 C1954 1.398 . S
C1954 H1942 0.950 . S
C1954 C1953 1.398 . S
C1954 C1955 1.391 . S
C1955 H1943 0.950 . S
C1955 C1951 1.393 . S
C1955 C1954 1.391 . S
H1956 C1964 0.950 1_554 S
H1957 C1969 0.950 . S
H1958 C1966 0.950 . S
H1959 C1968 0.950 . S
H1960 C1970 0.950 . S
H1961 C1972 0.950 . S
H1962 C1974 0.950 . S
H1963 C1975 0.950 . S
C1964 H1956 0.950 1_556 S
C1964 C1965 1.386 1_556 S
C1964 C1966 1.391 . S
C1965 C1964 1.386 1_554 S
C1965 C1969 1.393 1_554 S
C1966 H1958 0.950 . S
C1966 C1964 1.391 . S
C1966 C1967 1.400 . S
C1967 C1966 1.400 . S
C1967 C1968 1.398 . S
C1967 C1973 1.491 . S
C1968 H1959 0.950 . S
C1968 C1967 1.398 . S
C1968 C1969 1.391 . S
C1969 H1957 0.950 . S
C1969 C1965 1.393 1_556 S
C1969 C1968 1.391 . S
C1970 H1960 0.950 . S
C1970 C1971 1.386 . S
C1970 C1972 1.391 . S
C1971 C1970 1.386 . S
C1971 C1975 1.393 . S
C1972 H1961 0.950 . S
C1972 C1970 1.391 . S
C1972 C1973 1.400 . S
C1973 C1967 1.491 . S
C1973 C1972 1.400 . S
C1973 C1974 1.398 . S
C1974 H1962 0.950 . S
C1974 C1973 1.398 . S
C1974 C1975 1.391 . S
C1975 H1963 0.950 . S
C1975 C1971 1.393 . S
C1975 C1974 1.391 . S
H1976 C1984 0.950 . S
H1977 C1989 0.950 . S
H1978 C1986 0.950 . S
H1979 C1988 0.950 . S
H1980 C1990 0.950 . S
H1981 C1992 0.950 . S
H1982 C1994 0.950 . S
H1983 C1995 0.950 . S
C1984 H1976 0.950 . S
C1984 C1985 1.386 . S
C1984 C1986 1.391 . S
C1985 C1984 1.386 . S
C1985 C1989 1.393 . S
C1986 H1978 0.950 . S
C1986 C1984 1.391 . S
C1986 C1987 1.400 . S
C1987 C1986 1.400 . S
C1987 C1988 1.398 . S
C1987 C1993 1.491 . S
C1988 H1979 0.950 . S
C1988 C1987 1.398 . S
C1988 C1989 1.391 . S
C1989 H1977 0.950 . S
C1989 C1985 1.393 . S
C1989 C1988 1.391 . S
C1990 H1980 0.950 . S
C1990 C1991 1.386 1_455 S
C1990 C1992 1.391 1_455 S
C1991 C1990 1.386 1_655 S
C1991 C1995 1.393 . S
C1992 H1981 0.950 . S
C1992 C1990 1.391 1_655 S
C1992 C1993 1.400 . S
C1993 C1987 1.491 . S
C1993 C1992 1.400 . S
C1993 C1994 1.398 . S
C1994 H1982 0.950 . S
C1994 C1993 1.398 . S
C1994 C1995 1.391 . S
C1995 H1983 0.950 . S
C1995 C1991 1.393 . S
C1995 C1994 1.391 . S
H1996 C2004 0.950 . S
H1997 C2009 0.950 . S
H1998 C2006 0.950 . S
H1999 C2008 0.950 . S
H2000 C2010 0.950 . S
H2001 C2012 0.950 . S
H2002 C2014 0.950 . S
H2003 C2015 0.950 . S
C2004 H1996 0.950 . S
C2004 C2005 1.386 . S
C2004 C2006 1.391 . S
C2005 C2004 1.386 . S
C2005 C2009 1.393 . S
C2006 H1998 0.950 . S
C2006 C2004 1.391 . S
C2006 C2007 1.400 . S
C2007 C2006 1.400 . S
C2007 C2008 1.398 . S
C2007 C2013 1.491 . S
C2008 H1999 0.950 . S
C2008 C2007 1.398 . S
C2008 C2009 1.391 . S
C2009 H1997 0.950 . S
C2009 C2005 1.393 . S
C2009 C2008 1.391 . S
C2010 H2000 0.950 . S
C2010 C2011 1.386 . S
C2010 C2012 1.391 . S
C2011 C2010 1.386 . S
C2011 C2015 1.393 . S
C2012 H2001 0.950 . S
C2012 C2010 1.391 . S
C2012 C2013 1.400 . S
C2013 C2007 1.491 . S
C2013 C2012 1.400 . S
C2013 C2014 1.398 . S
C2014 H2002 0.950 . S
C2014 C2013 1.398 . S
C2014 C2015 1.391 . S
C2015 H2003 0.950 . S
C2015 C2011 1.393 . S
C2015 C2014 1.391 . S
H2016 C2024 0.950 . S
H2017 C2029 0.950 . S
H2018 C2026 0.950 . S
H2019 C2028 0.950 . S
H2020 C2030 0.950 . S
H2021 C2032 0.950 . S
H2022 C2034 0.950 . S
H2023 C2035 0.950 . S
C2024 H2016 0.950 . S
C2024 C2025 1.386 . S
C2024 C2026 1.391 . S
C2025 C2024 1.386 . S
C2025 C2029 1.393 . S
C2026 H2018 0.950 . S
C2026 C2024 1.391 . S
C2026 C2027 1.400 . S
C2027 C2026 1.400 . S
C2027 C2028 1.398 . S
C2027 C2033 1.491 . S
C2028 H2019 0.950 . S
C2028 C2027 1.398 . S
C2028 C2029 1.391 . S
C2029 H2017 0.950 . S
C2029 C2025 1.393 . S
C2029 C2028 1.391 . S
C2030 H2020 0.950 . S
C2030 C2031 1.386 . S
C2030 C2032 1.391 . S
C2031 C2030 1.386 . S
C2031 C2035 1.393 . S
C2032 H2021 0.950 . S
C2032 C2030 1.391 . S
C2032 C2033 1.400 . S
C2033 C2027 1.491 . S
C2033 C2032 1.400 . S
C2033 C2034 1.398 . S
C2034 H2022 0.950 . S
C2034 C2033 1.398 . S
C2034 C2035 1.391 . S
C2035 H2023 0.950 . S
C2035 C2031 1.393 . S
C2035 C2034 1.391 . S
H2036 C2044 0.950 . S
H2037 C2049 0.950 . S
H2038 C2046 0.950 . S
H2039 C2048 0.950 . S
H2040 C2050 0.950 . S
H2041 C2052 0.950 . S
H2042 C2054 0.950 . S
H2043 C2055 0.950 . S
C2044 H2036 0.950 . S
C2044 C2045 1.386 . S
C2044 C2046 1.391 . S
C2045 C2044 1.386 . S
C2045 C2049 1.393 . S
C2046 H2038 0.950 . S
C2046 C2044 1.391 . S
C2046 C2047 1.400 . S
C2047 C2046 1.400 . S
C2047 C2048 1.398 . S
C2047 C2053 1.491 . S
C2048 H2039 0.950 . S
C2048 C2047 1.398 . S
C2048 C2049 1.391 . S
C2049 H2037 0.950 . S
C2049 C2045 1.393 . S
C2049 C2048 1.391 . S
C2050 H2040 0.950 . S
C2050 C2051 1.386 . S
C2050 C2052 1.391 . S
C2051 C2050 1.386 . S
C2051 C2055 1.393 . S
C2052 H2041 0.950 . S
C2052 C2050 1.391 . S
C2052 C2053 1.400 . S
C2053 C2047 1.491 . S
C2053 C2052 1.400 . S
C2053 C2054 1.398 . S
C2054 H2042 0.950 . S
C2054 C2053 1.398 . S
C2054 C2055 1.391 . S
C2055 H2043 0.950 . S
C2055 C2051 1.393 . S
C2055 C2054 1.391 . S
H2056 C2064 0.950 . S
H2057 C2069 0.950 . S
H2058 C2066 0.950 . S
H2059 C2068 0.950 . S
H2060 C2070 0.950 . S
H2061 C2072 0.950 . S
H2062 C2074 0.950 . S
H2063 C2075 0.950 1_455 S
C2064 H2056 0.950 . S
C2064 C2065 1.386 . S
C2064 C2066 1.391 . S
C2065 C2064 1.386 . S
C2065 C2069 1.393 . S
C2066 H2058 0.950 . S
C2066 C2064 1.391 . S
C2066 C2067 1.400 . S
C2067 C2066 1.400 . S
C2067 C2068 1.398 . S
C2067 C2073 1.491 . S
C2068 H2059 0.950 . S
C2068 C2067 1.398 . S
C2068 C2069 1.391 . S
C2069 H2057 0.950 . S
C2069 C2065 1.393 . S
C2069 C2068 1.391 . S
C2070 H2060 0.950 . S
C2070 C2071 1.386 . S
C2070 C2072 1.391 . S
C2071 C2070 1.386 . S
C2071 C2075 1.393 . S
C2072 H2061 0.950 . S
C2072 C2070 1.391 . S
C2072 C2073 1.400 . S
C2073 C2067 1.491 . S
C2073 C2072 1.400 . S
C2073 C2074 1.398 . S
C2074 H2062 0.950 . S
C2074 C2073 1.398 . S
C2074 C2075 1.391 . S
C2075 H2063 0.950 1_655 S
C2075 C2071 1.393 . S
C2075 C2074 1.391 . S
H2076 C2084 0.950 . S
H2077 C2089 0.950 . S
H2078 C2086 0.950 . S
H2079 C2088 0.950 . S
H2080 C2090 0.950 . S
H2081 C2092 0.950 . S
H2082 C2094 0.950 . S
H2083 C2095 0.950 . S
C2084 H2076 0.950 . S
C2084 C2085 1.386 . S
C2084 C2086 1.391 . S
C2085 C2084 1.386 . S
C2085 C2089 1.393 . S
C2086 H2078 0.950 . S
C2086 C2084 1.391 . S
C2086 C2087 1.400 . S
C2087 C2086 1.400 . S
C2087 C2088 1.398 . S
C2087 C2093 1.491 . S
C2088 H2079 0.950 . S
C2088 C2087 1.398 . S
C2088 C2089 1.391 . S
C2089 H2077 0.950 . S
C2089 C2085 1.393 . S
C2089 C2088 1.391 . S
C2090 H2080 0.950 . S
C2090 C2091 1.386 . S
C2090 C2092 1.391 . S
C2091 C2090 1.386 . S
C2091 C2095 1.393 . S
C2092 H2081 0.950 . S
C2092 C2090 1.391 . S
C2092 C2093 1.400 . S
C2093 C2087 1.491 . S
C2093 C2092 1.400 . S
C2093 C2094 1.398 . S
C2094 H2082 0.950 . S
C2094 C2093 1.398 . S
C2094 C2095 1.391 . S
C2095 H2083 0.950 . S
C2095 C2091 1.393 . S
C2095 C2094 1.391 . S
H2096 C2104 0.950 . S
H2097 C2109 0.950 . S
H2098 C2106 0.950 . S
H2099 C2108 0.950 . S
H2100 C2110 0.950 . S
H2101 C2112 0.950 . S
H2102 C2114 0.950 . S
H2103 C2115 0.950 . S
C2104 H2096 0.950 . S
C2104 C2105 1.386 . S
C2104 C2106 1.391 . S
C2105 C2104 1.386 . S
C2105 C2109 1.393 . S
C2106 H2098 0.950 . S
C2106 C2104 1.391 . S
C2106 C2107 1.400 . S
C2107 C2106 1.400 . S
C2107 C2108 1.398 . S
C2107 C2113 1.491 . S
C2108 H2099 0.950 . S
C2108 C2107 1.398 . S
C2108 C2109 1.391 . S
C2109 H2097 0.950 . S
C2109 C2105 1.393 . S
C2109 C2108 1.391 . S
C2110 H2100 0.950 . S
C2110 C2111 1.386 . S
C2110 C2112 1.391 . S
C2111 C2110 1.386 . S
C2111 C2115 1.393 . S
C2112 H2101 0.950 . S
C2112 C2110 1.391 . S
C2112 C2113 1.400 . S
C2113 C2107 1.491 . S
C2113 C2112 1.400 . S
C2113 C2114 1.398 . S
C2114 H2102 0.950 . S
C2114 C2113 1.398 . S
C2114 C2115 1.391 . S
C2115 H2103 0.950 . S
C2115 C2111 1.393 . S
C2115 C2114 1.391 . S
H2116 C2124 0.950 . S
H2117 C2129 0.950 . S
H2118 C2126 0.950 . S
H2119 C2128 0.950 . S
H2120 C2130 0.950 . S
H2121 C2132 0.950 . S
H2122 C2134 0.950 . S
H2123 C2135 0.950 . S
C2124 H2116 0.950 . S
C2124 C2125 1.386 . S
C2124 C2126 1.391 . S
C2125 C2124 1.386 . S
C2125 C2129 1.393 . S
C2126 H2118 0.950 . S
C2126 C2124 1.391 . S
C2126 C2127 1.400 . S
C2127 C2126 1.400 . S
C2127 C2128 1.398 . S
C2127 C2133 1.491 . S
C2128 H2119 0.950 . S
C2128 C2127 1.398 . S
C2128 C2129 1.391 . S
C2129 H2117 0.950 . S
C2129 C2125 1.393 . S
C2129 C2128 1.391 . S
C2130 H2120 0.950 . S
C2130 C2131 1.386 1_565 S
C2130 C2132 1.391 . S
C2131 C2130 1.386 1_545 S
C2131 C2135 1.393 . S
C2132 H2121 0.950 . S
C2132 C2130 1.391 . S
C2132 C2133 1.400 . S
C2133 C2127 1.491 . S
C2133 C2132 1.400 . S
C2133 C2134 1.398 . S
C2134 H2122 0.950 . S
C2134 C2133 1.398 . S
C2134 C2135 1.391 1_565 S
C2135 H2123 0.950 . S
C2135 C2131 1.393 . S
C2135 C2134 1.391 1_545 S
H2136 C2144 0.950 . S
H2137 C2149 0.950 . S
H2138 C2146 0.950 . S
H2139 C2148 0.950 . S
H2140 C2150 0.950 . S
H2141 C2152 0.950 . S
H2142 C2154 0.950 . S
H2143 C2155 0.950 . S
C2144 H2136 0.950 . S
C2144 C2145 1.386 1_565 S
C2144 C2146 1.391 . S
C2145 C2144 1.386 1_545 S
C2145 C2149 1.393 . S
C2146 H2138 0.950 . S
C2146 C2144 1.391 . S
C2146 C2147 1.400 . S
C2147 C2146 1.400 . S
C2147 C2148 1.398 . S
C2147 C2153 1.491 . S
C2148 H2139 0.950 . S
C2148 C2147 1.398 . S
C2148 C2149 1.391 1_565 S
C2149 H2137 0.950 . S
C2149 C2145 1.393 . S
C2149 C2148 1.391 1_545 S
C2150 H2140 0.950 . S
C2150 C2151 1.386 . S
C2150 C2152 1.391 . S
C2151 C2150 1.386 . S
C2151 C2155 1.393 . S
C2152 H2141 0.950 . S
C2152 C2150 1.391 . S
C2152 C2153 1.400 . S
C2153 C2147 1.491 . S
C2153 C2152 1.400 . S
C2153 C2154 1.398 . S
C2154 H2142 0.950 . S
C2154 C2153 1.398 . S
C2154 C2155 1.391 . S
C2155 H2143 0.950 . S
C2155 C2151 1.393 . S
C2155 C2154 1.391 . S
H2156 C2164 0.950 . S
H2157 C2169 0.950 . S
H2158 C2166 0.950 . S
H2159 C2168 0.950 . S
H2160 C2170 0.950 . S
H2161 C2172 0.950 . S
H2162 C2174 0.950 . S
H2163 C2175 0.950 . S
C2164 H2156 0.950 . S
C2164 C2165 1.386 . S
C2164 C2166 1.391 . S
C2165 C2164 1.386 . S
C2165 C2169 1.393 . S
C2166 H2158 0.950 . S
C2166 C2164 1.391 . S
C2166 C2167 1.400 . S
C2167 C2166 1.400 . S
C2167 C2168 1.398 . S
C2167 C2173 1.491 . S
C2168 H2159 0.950 . S
C2168 C2167 1.398 . S
C2168 C2169 1.391 . S
C2169 H2157 0.950 . S
C2169 C2165 1.393 . S
C2169 C2168 1.391 . S
C2170 H2160 0.950 . S
C2170 C2171 1.386 . S
C2170 C2172 1.391 . S
C2171 C2170 1.386 . S
C2171 C2175 1.393 . S
C2172 H2161 0.950 . S
C2172 C2170 1.391 . S
C2172 C2173 1.400 . S
C2173 C2167 1.491 . S
C2173 C2172 1.400 . S
C2173 C2174 1.398 . S
C2174 H2162 0.950 . S
C2174 C2173 1.398 . S
C2174 C2175 1.391 . S
C2175 H2163 0.950 . S
C2175 C2171 1.393 . S
C2175 C2174 1.391 . S
H2176 C2184 0.950 . S
H2177 C2189 0.950 . S
H2178 C2186 0.950 . S
H2179 C2188 0.950 . S
H2180 C2190 0.950 . S
H2181 C2192 0.950 . S
H2182 C2194 0.950 . S
H2183 C2195 0.950 . S
C2184 H2176 0.950 . S
C2184 C2185 1.386 . S
C2184 C2186 1.391 . S
C2185 C2184 1.386 . S
C2185 C2189 1.393 . S
C2186 H2178 0.950 . S
C2186 C2184 1.391 . S
C2186 C2187 1.400 . S
C2187 C2186 1.400 . S
C2187 C2188 1.398 . S
C2187 C2193 1.491 . S
C2188 H2179 0.950 . S
C2188 C2187 1.398 . S
C2188 C2189 1.391 . S
C2189 H2177 0.950 . S
C2189 C2185 1.393 . S
C2189 C2188 1.391 . S
C2190 H2180 0.950 . S
C2190 C2191 1.386 . S
C2190 C2192 1.391 . S
C2191 C2190 1.386 . S
C2191 C2195 1.393 . S
C2192 H2181 0.950 . S
C2192 C2190 1.391 . S
C2192 C2193 1.400 . S
C2193 C2187 1.491 . S
C2193 C2192 1.400 . S
C2193 C2194 1.398 . S
C2194 H2182 0.950 . S
C2194 C2193 1.398 . S
C2194 C2195 1.391 . S
C2195 H2183 0.950 . S
C2195 C2191 1.393 . S
C2195 C2194 1.391 . S
H2196 C2204 0.950 . S
H2197 C2209 0.950 . S
H2198 C2206 0.950 . S
H2199 C2208 0.950 . S
H2200 C2210 0.950 1_556 S
H2201 C2212 0.950 . S
H2202 C2214 0.950 . S
H2203 C2215 0.950 . S
C2204 H2196 0.950 . S
C2204 C2205 1.386 . S
C2204 C2206 1.391 . S
C2205 C2204 1.386 . S
C2205 C2209 1.393 . S
C2206 H2198 0.950 . S
C2206 C2204 1.391 . S
C2206 C2207 1.400 . S
C2207 C2206 1.400 . S
C2207 C2208 1.398 . S
C2207 C2213 1.491 . S
C2208 H2199 0.950 . S
C2208 C2207 1.398 . S
C2208 C2209 1.391 . S
C2209 H2197 0.950 . S
C2209 C2205 1.393 . S
C2209 C2208 1.391 . S
C2210 H2200 0.950 1_554 S
C2210 C2211 1.386 . S
C2210 C2212 1.391 . S
C2211 C2210 1.386 . S
C2211 C2215 1.393 . S
C2212 H2201 0.950 . S
C2212 C2210 1.391 . S
C2212 C2213 1.400 . S
C2213 C2207 1.491 . S
C2213 C2212 1.400 . S
C2213 C2214 1.398 . S
C2214 H2202 0.950 . S
C2214 C2213 1.398 . S
C2214 C2215 1.391 . S
C2215 H2203 0.950 . S
C2215 C2211 1.393 . S
C2215 C2214 1.391 . S
H2216 C2224 0.950 . S
H2217 C2229 0.950 . S
H2218 C2226 0.950 . S
H2219 C2228 0.950 . S
H2220 C2230 0.950 . S
H2221 C2232 0.950 . S
H2222 C2234 0.950 . S
H2223 C2235 0.950 . S
C2224 H2216 0.950 . S
C2224 C2225 1.386 . S
C2224 C2226 1.391 . S
C2225 C2224 1.386 . S
C2225 C2229 1.393 . S
C2226 H2218 0.950 . S
C2226 C2224 1.391 . S
C2226 C2227 1.400 . S
C2227 C2226 1.400 . S
C2227 C2228 1.398 . S
C2227 C2233 1.491 . S
C2228 H2219 0.950 . S
C2228 C2227 1.398 . S
C2228 C2229 1.391 . S
C2229 H2217 0.950 . S
C2229 C2225 1.393 . S
C2229 C2228 1.391 . S
C2230 H2220 0.950 . S
C2230 C2231 1.386 . S
C2230 C2232 1.391 . S
C2231 C2230 1.386 . S
C2231 C2235 1.393 . S
C2232 H2221 0.950 . S
C2232 C2230 1.391 . S
C2232 C2233 1.400 . S
C2233 C2227 1.491 . S
C2233 C2232 1.400 . S
C2233 C2234 1.398 . S
C2234 H2222 0.950 . S
C2234 C2233 1.398 . S
C2234 C2235 1.391 . S
C2235 H2223 0.950 . S
C2235 C2231 1.393 . S
C2235 C2234 1.391 . S
H2236 C2244 0.950 . S
H2237 C2249 0.950 . S
H2238 C2246 0.950 . S
H2239 C2248 0.950 . S
H2240 C2250 0.950 . S
H2241 C2252 0.950 . S
H2242 C2254 0.950 . S
H2243 C2255 0.950 . S
C2244 H2236 0.950 . S
C2244 C2245 1.386 . S
C2244 C2246 1.391 . S
C2245 C2244 1.386 . S
C2245 C2249 1.393 . S
C2246 H2238 0.950 . S
C2246 C2244 1.391 . S
C2246 C2247 1.400 . S
C2247 C2246 1.400 . S
C2247 C2248 1.398 . S
C2247 C2253 1.491 . S
C2248 H2239 0.950 . S
C2248 C2247 1.398 . S
C2248 C2249 1.391 . S
C2249 H2237 0.950 . S
C2249 C2245 1.393 . S
C2249 C2248 1.391 . S
C2250 H2240 0.950 . S
C2250 C2251 1.386 . S
C2250 C2252 1.391 . S
C2251 C2250 1.386 . S
C2251 C2255 1.393 . S
C2252 H2241 0.950 . S
C2252 C2250 1.391 . S
C2252 C2253 1.400 . S
C2253 C2247 1.491 . S
C2253 C2252 1.400 . S
C2253 C2254 1.398 . S
C2254 H2242 0.950 . S
C2254 C2253 1.398 . S
C2254 C2255 1.391 . S
C2255 H2243 0.950 . S
C2255 C2251 1.393 . S
C2255 C2254 1.391 . S
H2256 C2264 0.950 . S
H2257 C2269 0.950 . S
H2258 C2266 0.950 . S
H2259 C2268 0.950 . S
H2260 C2270 0.950 . S
H2261 C2272 0.950 . S
H2262 C2274 0.950 . S
H2263 C2275 0.950 . S
C2264 H2256 0.950 . S
C2264 C2265 1.386 . S
C2264 C2266 1.391 . S
C2265 C2264 1.386 . S
C2265 C2269 1.393 . S
C2266 H2258 0.950 . S
C2266 C2264 1.391 . S
C2266 C2267 1.400 . S
C2267 C2266 1.400 . S
C2267 C2268 1.398 . S
C2267 C2273 1.491 . S
C2268 H2259 0.950 . S
C2268 C2267 1.398 . S
C2268 C2269 1.391 . S
C2269 H2257 0.950 . S
C2269 C2265 1.393 . S
C2269 C2268 1.391 . S
C2270 H2260 0.950 . S
C2270 C2271 1.386 . S
C2270 C2272 1.391 . S
C2271 C2270 1.386 . S
C2271 C2275 1.393 . S
C2272 H2261 0.950 . S
C2272 C2270 1.391 . S
C2272 C2273 1.400 . S
C2273 C2267 1.491 . S
C2273 C2272 1.400 . S
C2273 C2274 1.398 . S
C2274 H2262 0.950 . S
C2274 C2273 1.398 . S
C2274 C2275 1.391 . S
C2275 H2263 0.950 . S
C2275 C2271 1.393 . S
C2275 C2274 1.391 . S
H2276 C2284 0.950 . S
H2277 C2289 0.950 . S
H2278 C2286 0.950 . S
H2279 C2288 0.950 . S
H2280 C2290 0.950 . S
H2281 C2292 0.950 . S
H2282 C2294 0.950 . S
H2283 C2295 0.950 . S
C2284 H2276 0.950 . S
C2284 C2285 1.386 . S
C2284 C2286 1.391 . S
C2285 C2284 1.386 . S
C2285 C2289 1.393 . S
C2286 H2278 0.950 . S
C2286 C2284 1.391 . S
C2286 C2287 1.400 . S
C2287 C2286 1.400 . S
C2287 C2288 1.398 . S
C2287 C2293 1.491 . S
C2288 H2279 0.950 . S
C2288 C2287 1.398 . S
C2288 C2289 1.391 . S
C2289 H2277 0.950 . S
C2289 C2285 1.393 . S
C2289 C2288 1.391 . S
C2290 H2280 0.950 . S
C2290 C2291 1.386 . S
C2290 C2292 1.391 . S
C2291 C2290 1.386 . S
C2291 C2295 1.393 . S
C2292 H2281 0.950 . S
C2292 C2290 1.391 . S
C2292 C2293 1.400 . S
C2293 C2287 1.491 . S
C2293 C2292 1.400 . S
C2293 C2294 1.398 . S
C2294 H2282 0.950 . S
C2294 C2293 1.398 . S
C2294 C2295 1.391 . S
C2295 H2283 0.950 . S
C2295 C2291 1.393 . S
C2295 C2294 1.391 . S
H2296 C2304 0.950 . S
H2297 C2309 0.950 . S
H2298 C2306 0.950 . S
H2299 C2308 0.950 . S
H2300 C2310 0.950 . S
H2301 C2312 0.970 . S
H2302 C2314 0.950 . S
H2303 C2315 0.950 . S
C2304 H2296 0.950 . S
C2304 C2305 1.386 . S
C2304 C2306 1.391 . S
C2305 C2304 1.386 . S
C2305 C2309 1.393 . S
C2306 H2298 0.950 . S
C2306 C2304 1.391 . S
C2306 C2307 1.400 . S
C2307 C2306 1.400 . S
C2307 C2308 1.398 . S
C2307 C2313 1.491 . S
C2308 H2299 0.950 . S
C2308 C2307 1.398 . S
C2308 C2309 1.391 . S
C2309 H2297 0.950 . S
C2309 C2305 1.393 . S
C2309 C2308 1.391 . S
C2310 H2300 0.950 . S
C2310 C2311 1.386 1_554 S
C2310 C2312 1.405 . S
C2311 C2310 1.386 1_556 S
C2311 C2315 1.393 . S
C2312 H2301 0.970 . S
C2312 C2310 1.405 . S
C2312 C2313 1.367 1_554 S
C2313 C2307 1.491 . S
C2313 C2312 1.367 1_556 S
C2313 C2314 1.398 . S
C2314 H2302 0.950 . S
C2314 C2313 1.398 . S
C2314 C2315 1.391 . S
C2315 H2303 0.950 . S
C2315 C2311 1.393 . S
C2315 C2314 1.391 . S
H2316 C2324 0.950 . S
H2317 C2329 0.950 . S
H2318 C2326 0.950 . S
H2319 C2328 0.950 . S
H2320 C2330 0.950 . S
H2321 C2332 0.950 . S
H2322 C2334 0.950 . S
H2323 C2335 0.950 . S
C2324 H2316 0.950 . S
C2324 C2325 1.386 . S
C2324 C2326 1.391 . S
C2325 C2324 1.386 . S
C2325 C2329 1.393 . S
C2326 H2318 0.950 . S
C2326 C2324 1.391 . S
C2326 C2327 1.400 . S
C2327 C2326 1.400 . S
C2327 C2328 1.398 . S
C2327 C2333 1.491 . S
C2328 H2319 0.950 . S
C2328 C2327 1.398 . S
C2328 C2329 1.391 . S
C2329 H2317 0.950 . S
C2329 C2325 1.393 . S
C2329 C2328 1.391 . S
C2330 H2320 0.950 . S
C2330 C2331 1.386 . S
C2330 C2332 1.391 . S
C2331 C2330 1.386 . S
C2331 C2335 1.393 . S
C2332 H2321 0.950 . S
C2332 C2330 1.391 . S
C2332 C2333 1.400 . S
C2333 C2327 1.491 . S
C2333 C2332 1.400 . S
C2333 C2334 1.398 . S
C2334 H2322 0.950 . S
C2334 C2333 1.398 . S
C2334 C2335 1.391 . S
C2335 H2323 0.950 . S
C2335 C2331 1.393 . S
C2335 C2334 1.391 . S
H2336 C2344 0.950 . S
H2337 C2349 0.950 . S
H2338 C2346 0.950 . S
H2339 C2348 0.950 . S
H2340 C2350 0.950 . S
H2341 C2352 0.950 . S
H2342 C2354 0.950 . S
H2343 C2355 0.950 . S
C2344 H2336 0.950 . S
C2344 C2345 1.386 . S
C2344 C2346 1.391 . S
C2345 C2344 1.386 . S
C2345 C2349 1.393 . S
C2346 H2338 0.950 . S
C2346 C2344 1.391 . S
C2346 C2347 1.400 . S
C2347 C2346 1.400 . S
C2347 C2348 1.398 . S
C2347 C2353 1.491 . S
C2348 H2339 0.950 . S
C2348 C2347 1.398 . S
C2348 C2349 1.391 . S
C2349 H2337 0.950 . S
C2349 C2345 1.393 . S
C2349 C2348 1.391 . S
C2350 H2340 0.950 . S
C2350 C2351 1.386 . S
C2350 C2352 1.391 . S
C2351 C2350 1.386 . S
C2351 C2355 1.393 . S
C2352 H2341 0.950 . S
C2352 C2350 1.391 . S
C2352 C2353 1.400 . S
C2353 C2347 1.491 . S
C2353 C2352 1.400 . S
C2353 C2354 1.398 . S
C2354 H2342 0.950 . S
C2354 C2353 1.398 . S
C2354 C2355 1.391 . S
C2355 H2343 0.950 . S
C2355 C2351 1.393 . S
C2355 C2354 1.391 . S
H2356 C2364 0.950 . S
H2357 C2369 0.950 . S
H2358 C2366 0.950 . S
H2359 C2368 0.950 . S
H2360 C2370 0.950 . S
H2361 C2372 0.950 . S
H2362 C2374 0.950 . S
H2363 C2375 0.950 . S
C2364 H2356 0.950 . S
C2364 C2365 1.386 . S
C2364 C2366 1.391 . S
C2365 C2364 1.386 . S
C2365 C2369 1.393 . S
C2366 H2358 0.950 . S
C2366 C2364 1.391 . S
C2366 C2367 1.400 . S
C2367 C2366 1.400 . S
C2367 C2368 1.398 . S
C2367 C2373 1.491 . S
C2368 H2359 0.950 . S
C2368 C2367 1.398 . S
C2368 C2369 1.391 . S
C2369 H2357 0.950 . S
C2369 C2365 1.393 . S
C2369 C2368 1.391 . S
C2370 H2360 0.950 . S
C2370 C2371 1.386 . S
C2370 C2372 1.391 . S
C2371 C2370 1.386 . S
C2371 C2375 1.393 . S
C2372 H2361 0.950 . S
C2372 C2370 1.391 . S
C2372 C2373 1.400 . S
C2373 C2367 1.491 . S
C2373 C2372 1.400 . S
C2373 C2374 1.398 . S
C2374 H2362 0.950 . S
C2374 C2373 1.398 . S
C2374 C2375 1.391 . S
C2375 H2363 0.950 . S
C2375 C2371 1.393 . S
C2375 C2374 1.391 . S
H2376 C2384 0.950 . S
H2377 C2389 0.950 . S
H2378 C2386 0.950 . S
H2379 C2388 0.950 . S
H2380 C2390 0.950 . S
H2381 C2392 0.950 . S
H2382 C2394 0.950 . S
H2383 C2395 0.950 . S
C2384 H2376 0.950 . S
C2384 C2385 1.364 1_455 S
C2384 C2386 1.391 . S
C2385 C2384 1.364 1_655 S
C2385 C2389 1.414 . S
C2386 H2378 0.950 . S
C2386 C2384 1.391 . S
C2386 C2387 1.400 . S
C2387 C2386 1.400 . S
C2387 C2388 1.398 1_455 S
C2387 C2393 1.491 . S
C2388 H2379 0.950 . S
C2388 C2387 1.398 1_655 S
C2388 C2389 1.391 . S
C2389 H2377 0.950 . S
C2389 C2385 1.414 . S
C2389 C2388 1.391 . S
C2390 H2380 0.950 . S
C2390 C2391 1.386 1_655 S
C2390 C2392 1.391 . S
C2391 C2390 1.386 1_455 S
C2391 C2395 1.393 . S
C2392 H2381 0.950 . S
C2392 C2390 1.391 . S
C2392 C2393 1.400 1_655 S
C2393 C2387 1.491 . S
C2393 C2392 1.400 1_455 S
C2393 C2394 1.398 . S
C2394 H2382 0.950 . S
C2394 C2393 1.398 . S
C2394 C2395 1.391 . S
C2395 H2383 0.950 . S
C2395 C2391 1.393 . S
C2395 C2394 1.391 . S
H2396 C2404 0.950 . S
H2397 C2409 0.950 . S
H2398 C2406 0.950 . S
H2399 C2408 0.950 . S
H2400 C2410 0.950 . S
H2401 C2412 0.950 . S
H2402 C2414 0.950 . S
H2403 C2415 0.950 . S
C2404 H2396 0.950 . S
C2404 C2405 1.386 . S
C2404 C2406 1.391 . S
C2405 C2404 1.386 . S
C2405 C2409 1.393 . S
C2406 H2398 0.950 . S
C2406 C2404 1.391 . S
C2406 C2407 1.400 . S
C2407 C2406 1.400 . S
C2407 C2408 1.398 . S
C2407 C2413 1.491 . S
C2408 H2399 0.950 . S
C2408 C2407 1.398 . S
C2408 C2409 1.391 . S
C2409 H2397 0.950 . S
C2409 C2405 1.393 . S
C2409 C2408 1.391 . S
C2410 H2400 0.950 . S
C2410 C2411 1.386 . S
C2410 C2412 1.391 . S
C2411 C2410 1.386 . S
C2411 C2415 1.393 . S
C2412 H2401 0.950 . S
C2412 C2410 1.391 . S
C2412 C2413 1.400 . S
C2413 C2407 1.491 . S
C2413 C2412 1.400 . S
C2413 C2414 1.398 . S
C2414 H2402 0.950 . S
C2414 C2413 1.398 . S
C2414 C2415 1.391 . S
C2415 H2403 0.950 . S
C2415 C2411 1.393 . S
C2415 C2414 1.391 . S
H2416 C2424 0.950 . S
H2417 C2429 0.950 . S
H2418 C2426 0.950 . S
H2419 C2428 0.950 . S
H2420 C2430 0.950 . S
H2421 C2432 0.950 . S
H2422 C2434 0.950 . S
H2423 C2435 0.950 . S
C2424 H2416 0.950 . S
C2424 C2425 1.386 . S
C2424 C2426 1.391 . S
C2425 C2424 1.386 . S
C2425 C2429 1.393 . S
C2426 H2418 0.950 . S
C2426 C2424 1.391 . S
C2426 C2427 1.400 . S
C2427 C2426 1.400 . S
C2427 C2428 1.398 . S
C2427 C2433 1.491 . S
C2428 H2419 0.950 . S
C2428 C2427 1.398 . S
C2428 C2429 1.391 . S
C2429 H2417 0.950 . S
C2429 C2425 1.393 . S
C2429 C2428 1.391 . S
C2430 H2420 0.950 . S
C2430 C2431 1.386 . S
C2430 C2432 1.391 . S
C2431 C2430 1.386 . S
C2431 C2435 1.393 . S
C2432 H2421 0.950 . S
C2432 C2430 1.391 . S
C2432 C2433 1.400 . S
C2433 C2427 1.491 . S
C2433 C2432 1.400 . S
C2433 C2434 1.398 . S
C2434 H2422 0.950 . S
C2434 C2433 1.398 . S
C2434 C2435 1.391 . S
C2435 H2423 0.950 . S
C2435 C2431 1.393 . S
C2435 C2434 1.391 . S
H2436 C2444 0.950 . S
H2437 C2449 0.950 . S
H2438 C2446 0.950 . S
H2439 C2448 0.950 . S
H2440 C2450 0.950 . S
H2441 C2452 0.950 . S
H2442 C2454 0.950 . S
H2443 C2455 0.950 . S
C2444 H2436 0.950 . S
C2444 C2445 1.386 . S
C2444 C2446 1.391 . S
C2445 C2444 1.386 . S
C2445 C2449 1.393 . S
C2446 H2438 0.950 . S
C2446 C2444 1.391 . S
C2446 C2447 1.400 . S
C2447 C2446 1.400 . S
C2447 C2448 1.398 . S
C2447 C2453 1.491 . S
C2448 H2439 0.950 . S
C2448 C2447 1.398 . S
C2448 C2449 1.391 . S
C2449 H2437 0.950 . S
C2449 C2445 1.393 . S
C2449 C2448 1.391 . S
C2450 H2440 0.950 . S
C2450 C2451 1.386 . S
C2450 C2452 1.391 . S
C2451 C2450 1.386 . S
C2451 C2455 1.393 . S
C2452 H2441 0.950 . S
C2452 C2450 1.391 . S
C2452 C2453 1.400 . S
C2453 C2447 1.491 . S
C2453 C2452 1.400 . S
C2453 C2454 1.398 . S
C2454 H2442 0.950 . S
C2454 C2453 1.398 . S
C2454 C2455 1.391 . S
C2455 H2443 0.950 . S
C2455 C2451 1.393 . S
C2455 C2454 1.391 . S
H2456 C2464 0.950 . S
H2457 C2469 0.950 . S
H2458 C2466 0.950 . S
H2459 C2468 0.950 . S
H2460 C2470 0.950 . S
H2461 C2472 0.950 . S
H2462 C2474 0.950 . S
H2463 C2475 0.950 . S
C2464 H2456 0.950 . S
C2464 C2465 1.386 . S
C2464 C2466 1.391 . S
C2465 C2464 1.386 . S
C2465 C2469 1.393 . S
C2466 H2458 0.950 . S
C2466 C2464 1.391 . S
C2466 C2467 1.400 . S
C2467 C2466 1.400 . S
C2467 C2468 1.398 . S
C2467 C2473 1.491 . S
C2468 H2459 0.950 . S
C2468 C2467 1.398 . S
C2468 C2469 1.391 . S
C2469 H2457 0.950 . S
C2469 C2465 1.393 . S
C2469 C2468 1.391 . S
C2470 H2460 0.950 . S
C2470 C2471 1.386 . S
C2470 C2472 1.391 . S
C2471 C2470 1.386 . S
C2471 C2475 1.393 . S
C2472 H2461 0.950 . S
C2472 C2470 1.391 . S
C2472 C2473 1.400 . S
C2473 C2467 1.491 . S
C2473 C2472 1.400 . S
C2473 C2474 1.398 . S
C2474 H2462 0.950 . S
C2474 C2473 1.398 . S
C2474 C2475 1.391 . S
C2475 H2463 0.950 . S
C2475 C2471 1.393 . S
C2475 C2474 1.391 . S
H2476 C2484 0.950 . S
H2477 C2489 0.950 . S
H2478 C2486 0.950 . S
H2479 C2488 0.950 . S
H2480 C2490 0.950 . S
H2481 C2492 0.950 . S
H2482 C2494 0.950 . S
H2483 C2495 0.950 . S
C2484 H2476 0.950 . S
C2484 C2485 1.386 . S
C2484 C2486 1.391 . S
C2485 C2484 1.386 . S
C2485 C2489 1.393 . S
C2486 H2478 0.950 . S
C2486 C2484 1.391 . S
C2486 C2487 1.400 . S
C2487 C2486 1.400 . S
C2487 C2488 1.398 . S
C2487 C2493 1.491 . S
C2488 H2479 0.950 . S
C2488 C2487 1.398 . S
C2488 C2489 1.391 . S
C2489 H2477 0.950 . S
C2489 C2485 1.393 . S
C2489 C2488 1.391 . S
C2490 H2480 0.950 . S
C2490 C2491 1.386 . S
C2490 C2492 1.391 . S
C2491 C2490 1.386 . S
C2491 C2495 1.393 . S
C2492 H2481 0.950 . S
C2492 C2490 1.391 . S
C2492 C2493 1.400 . S
C2493 C2487 1.491 . S
C2493 C2492 1.400 . S
C2493 C2494 1.398 . S
C2494 H2482 0.950 . S
C2494 C2493 1.398 . S
C2494 C2495 1.391 . S
C2495 H2483 0.950 . S
C2495 C2491 1.393 . S
C2495 C2494 1.391 . S
H2496 C2504 0.950 . S
H2497 C2509 0.950 . S
H2498 C2506 0.950 . S
H2499 C2508 0.950 . S
H2500 C2510 0.950 . S
H2501 C2512 0.950 . S
H2502 C2514 0.950 . S
H2503 C2515 0.950 . S
C2504 H2496 0.950 . S
C2504 C2505 1.386 . S
C2504 C2506 1.391 . S
C2505 C2504 1.386 . S
C2505 C2509 1.393 . S
C2506 H2498 0.950 . S
C2506 C2504 1.391 . S
C2506 C2507 1.400 . S
C2507 C2506 1.400 . S
C2507 C2508 1.398 . S
C2507 C2513 1.491 . S
C2508 H2499 0.950 . S
C2508 C2507 1.398 . S
C2508 C2509 1.391 . S
C2509 H2497 0.950 . S
C2509 C2505 1.393 . S
C2509 C2508 1.391 . S
C2510 H2500 0.950 . S
C2510 C2511 1.386 . S
C2510 C2512 1.391 . S
C2511 C2510 1.386 . S
C2511 C2515 1.393 . S
C2512 H2501 0.950 . S
C2512 C2510 1.391 . S
C2512 C2513 1.400 . S
C2513 C2507 1.491 . S
C2513 C2512 1.400 . S
C2513 C2514 1.398 . S
C2514 H2502 0.950 . S
C2514 C2513 1.398 . S
C2514 C2515 1.391 . S
C2515 H2503 0.950 . S
C2515 C2511 1.393 . S
C2515 C2514 1.391 . S
H2516 C2524 0.950 . S
H2517 C2529 0.950 . S
H2518 C2526 0.950 . S
H2519 C2528 0.950 . S
H2520 C2530 0.950 . S
H2521 C2532 0.950 . S
H2522 C2534 0.950 . S
H2523 C2535 0.950 . S
C2524 H2516 0.950 . S
C2524 C2525 1.386 . S
C2524 C2526 1.391 . S
C2525 C2524 1.386 . S
C2525 C2529 1.393 . S
C2526 H2518 0.950 . S
C2526 C2524 1.391 . S
C2526 C2527 1.400 . S
C2527 C2526 1.400 . S
C2527 C2528 1.398 . S
C2527 C2533 1.491 . S
C2528 H2519 0.950 . S
C2528 C2527 1.398 . S
C2528 C2529 1.391 . S
C2529 H2517 0.950 . S
C2529 C2525 1.393 . S
C2529 C2528 1.391 . S
C2530 H2520 0.950 . S
C2530 C2531 1.386 . S
C2530 C2532 1.391 . S
C2531 C2530 1.386 . S
C2531 C2535 1.393 . S
C2532 H2521 0.950 . S
C2532 C2530 1.391 . S
C2532 C2533 1.400 . S
C2533 C2527 1.491 . S
C2533 C2532 1.400 . S
C2533 C2534 1.398 . S
C2534 H2522 0.950 . S
C2534 C2533 1.398 . S
C2534 C2535 1.391 . S
C2535 H2523 0.950 . S
C2535 C2531 1.393 . S
C2535 C2534 1.391 . S
H2536 C2544 0.950 . S
H2537 C2549 0.950 . S
H2538 C2546 0.950 . S
H2539 C2548 0.950 . S
H2540 C2550 0.950 . S
H2541 C2552 0.950 . S
H2542 C2554 0.950 . S
H2543 C2555 0.950 . S
C2544 H2536 0.950 . S
C2544 C2545 1.386 . S
C2544 C2546 1.391 . S
C2545 C2544 1.386 . S
C2545 C2549 1.393 . S
C2546 H2538 0.950 . S
C2546 C2544 1.391 . S
C2546 C2547 1.400 . S
C2547 C2546 1.400 . S
C2547 C2548 1.398 . S
C2547 C2553 1.491 . S
C2548 H2539 0.950 . S
C2548 C2547 1.398 . S
C2548 C2549 1.391 . S
C2549 H2537 0.950 . S
C2549 C2545 1.393 . S
C2549 C2548 1.391 . S
C2550 H2540 0.950 . S
C2550 C2551 1.386 . S
C2550 C2552 1.391 . S
C2551 C2550 1.386 . S
C2551 C2555 1.393 . S
C2552 H2541 0.950 . S
C2552 C2550 1.391 . S
C2552 C2553 1.400 . S
C2553 C2547 1.491 . S
C2553 C2552 1.400 . S
C2553 C2554 1.398 . S
C2554 H2542 0.950 . S
C2554 C2553 1.398 . S
C2554 C2555 1.391 . S
C2555 H2543 0.950 . S
C2555 C2551 1.393 . S
C2555 C2554 1.391 . S
H2556 C2564 0.950 . S
H2557 C2569 0.950 . S
H2558 C2566 0.950 . S
H2559 C2568 0.950 . S
H2560 C2570 0.950 . S
H2561 C2572 0.950 . S
H2562 C2574 0.950 . S
H2563 C2575 0.950 . S
C2564 H2556 0.950 . S
C2564 C2565 1.386 . S
C2564 C2566 1.391 . S
C2565 C2564 1.386 . S
C2565 C2569 1.393 . S
C2566 H2558 0.950 . S
C2566 C2564 1.391 . S
C2566 C2567 1.400 . S
C2567 C2566 1.400 . S
C2567 C2568 1.398 . S
C2567 C2573 1.491 . S
C2568 H2559 0.950 . S
C2568 C2567 1.398 . S
C2568 C2569 1.391 . S
C2569 H2557 0.950 . S
C2569 C2565 1.393 . S
C2569 C2568 1.391 . S
C2570 H2560 0.950 . S
C2570 C2571 1.386 . S
C2570 C2572 1.391 . S
C2571 C2570 1.386 . S
C2571 C2575 1.393 . S
C2572 H2561 0.950 . S
C2572 C2570 1.391 . S
C2572 C2573 1.400 . S
C2573 C2567 1.491 . S
C2573 C2572 1.400 . S
C2573 C2574 1.398 . S
C2574 H2562 0.950 . S
C2574 C2573 1.398 . S
C2574 C2575 1.391 . S
C2575 H2563 0.950 . S
C2575 C2571 1.393 . S
C2575 C2574 1.391 . S
H2576 C2584 0.950 . S
H2577 C2589 0.950 . S
H2578 C2586 0.950 . S
H2579 C2588 0.950 . S
H2580 C2590 0.950 . S
H2581 C2592 0.950 . S
H2582 C2594 0.950 . S
H2583 C2595 0.950 . S
C2584 H2576 0.950 . S
C2584 C2585 1.386 . S
C2584 C2586 1.391 . S
C2585 C2584 1.386 . S
C2585 C2589 1.393 . S
C2586 H2578 0.950 . S
C2586 C2584 1.391 . S
C2586 C2587 1.400 . S
C2587 C2586 1.400 . S
C2587 C2588 1.398 . S
C2587 C2593 1.491 . S
C2588 H2579 0.950 . S
C2588 C2587 1.398 . S
C2588 C2589 1.391 . S
C2589 H2577 0.950 . S
C2589 C2585 1.393 . S
C2589 C2588 1.391 . S
C2590 H2580 0.950 . S
C2590 C2591 1.386 . S
C2590 C2592 1.391 . S
C2591 C2590 1.386 . S
C2591 C2595 1.393 . S
C2592 H2581 0.950 . S
C2592 C2590 1.391 . S
C2592 C2593 1.400 . S
C2593 C2587 1.491 . S
C2593 C2592 1.400 . S
C2593 C2594 1.398 . S
C2594 H2582 0.950 . S
C2594 C2593 1.398 . S
C2594 C2595 1.391 . S
C2595 H2583 0.950 . S
C2595 C2591 1.393 . S
C2595 C2594 1.391 . S
H2596 C2604 0.950 . S
H2597 C2609 0.950 . S
H2598 C2606 0.950 . S
H2599 C2608 0.950 . S
H2600 C2610 0.950 . S
H2601 C2612 0.950 . S
H2602 C2614 0.950 . S
H2603 C2615 0.950 . S
C2604 H2596 0.950 . S
C2604 C2605 1.386 . S
C2604 C2606 1.391 . S
C2605 C2604 1.386 . S
C2605 C2609 1.393 . S
C2606 H2598 0.950 . S
C2606 C2604 1.391 . S
C2606 C2607 1.400 . S
C2607 C2606 1.400 . S
C2607 C2608 1.398 . S
C2607 C2613 1.491 . S
C2608 H2599 0.950 . S
C2608 C2607 1.398 . S
C2608 C2609 1.391 . S
C2609 H2597 0.950 . S
C2609 C2605 1.393 . S
C2609 C2608 1.391 . S
C2610 H2600 0.950 . S
C2610 C2611 1.386 . S
C2610 C2612 1.391 . S
C2611 C2610 1.386 . S
C2611 C2615 1.393 . S
C2612 H2601 0.950 . S
C2612 C2610 1.391 . S
C2612 C2613 1.400 . S
C2613 C2607 1.491 . S
C2613 C2612 1.400 . S
C2613 C2614 1.398 . S
C2614 H2602 0.950 . S
C2614 C2613 1.398 . S
C2614 C2615 1.391 . S
C2615 H2603 0.950 . S
C2615 C2611 1.393 . S
C2615 C2614 1.391 . S
H2616 C2624 0.950 . S
H2617 C2629 0.950 . S
H2618 C2626 0.950 . S
H2619 C2628 0.950 . S
H2620 C2630 0.950 . S
H2621 C2632 0.950 . S
H2622 C2634 0.950 . S
H2623 C2635 0.950 . S
C2624 H2616 0.950 . S
C2624 C2625 1.386 . S
C2624 C2626 1.391 . S
C2625 C2624 1.386 . S
C2625 C2629 1.393 . S
C2626 H2618 0.950 . S
C2626 C2624 1.391 . S
C2626 C2627 1.400 . S
C2627 C2626 1.400 . S
C2627 C2628 1.398 . S
C2627 C2633 1.491 . S
C2628 H2619 0.950 . S
C2628 C2627 1.398 . S
C2628 C2629 1.391 . S
C2629 H2617 0.950 . S
C2629 C2625 1.393 . S
C2629 C2628 1.391 . S
C2630 H2620 0.950 . S
C2630 C2631 1.386 . S
C2630 C2632 1.391 . S
C2631 C2630 1.386 . S
C2631 C2635 1.393 . S
C2632 H2621 0.950 . S
C2632 C2630 1.391 . S
C2632 C2633 1.400 . S
C2633 C2627 1.491 . S
C2633 C2632 1.400 . S
C2633 C2634 1.398 . S
C2634 H2622 0.950 . S
C2634 C2633 1.398 . S
C2634 C2635 1.391 . S
C2635 H2623 0.950 . S
C2635 C2631 1.393 . S
C2635 C2634 1.391 . S
H2636 C2644 0.950 . S
H2637 C2649 0.950 . S
H2638 C2646 0.950 . S
H2639 C2648 0.950 . S
H2640 C2650 0.950 . S
H2641 C2652 0.950 . S
H2642 C2654 0.950 . S
H2643 C2655 0.967 . S
C2644 H2636 0.950 . S
C2644 C2645 1.386 1_556 S
C2644 C2646 1.391 . S
C2645 C2644 1.386 1_554 S
C2645 C2649 1.393 . S
C2646 H2638 0.950 . S
C2646 C2644 1.391 . S
C2646 C2647 1.400 1_556 S
C2647 C2646 1.400 1_554 S
C2647 C2648 1.398 . S
C2647 C2653 1.491 . S
C2648 H2639 0.950 . S
C2648 C2647 1.398 . S
C2648 C2649 1.391 . S
C2649 H2637 0.950 . S
C2649 C2645 1.393 . S
C2649 C2648 1.391 . S
C2650 H2640 0.950 . S
C2650 C2651 1.386 1_565 S
C2650 C2652 1.391 . S
C2651 C2650 1.386 1_545 S
C2651 C2655 1.394 1_554 S
C2652 H2641 0.950 . S
C2652 C2650 1.391 . S
C2652 C2653 1.400 . S
C2653 C2647 1.491 . S
C2653 C2652 1.400 . S
C2653 C2654 1.398 1_554 S
C2654 H2642 0.950 . S
C2654 C2653 1.398 1_556 S
C2654 C2655 1.375 1_565 S
C2655 H2643 0.967 . S
C2655 C2651 1.394 1_556 S
C2655 C2654 1.375 1_545 S
H2656 C2664 0.950 . S
H2657 C2669 0.950 . S
H2658 C2666 0.950 . S
H2659 C2668 0.950 . S
H2660 C2670 0.950 . S
H2661 C2672 0.950 . S
H2662 C2674 0.950 . S
H2663 C2675 0.950 . S
C2664 H2656 0.950 . S
C2664 C2665 1.386 . S
C2664 C2666 1.391 . S
C2665 C2664 1.386 . S
C2665 C2669 1.393 . S
C2666 H2658 0.950 . S
C2666 C2664 1.391 . S
C2666 C2667 1.400 . S
C2667 C2666 1.400 . S
C2667 C2668 1.398 . S
C2667 C2673 1.491 . S
C2668 H2659 0.950 . S
C2668 C2667 1.398 . S
C2668 C2669 1.391 . S
C2669 H2657 0.950 . S
C2669 C2665 1.393 . S
C2669 C2668 1.391 . S
C2670 H2660 0.950 . S
C2670 C2671 1.386 . S
C2670 C2672 1.391 . S
C2671 C2670 1.386 . S
C2671 C2675 1.393 . S
C2672 H2661 0.950 . S
C2672 C2670 1.391 . S
C2672 C2673 1.400 . S
C2673 C2667 1.491 . S
C2673 C2672 1.400 . S
C2673 C2674 1.398 . S
C2674 H2662 0.950 . S
C2674 C2673 1.398 . S
C2674 C2675 1.391 . S
C2675 H2663 0.950 . S
C2675 C2671 1.393 . S
C2675 C2674 1.391 . S
H2676 C2684 0.950 . S
H2677 C2689 0.950 . S
H2678 C2686 0.950 . S
H2679 C2688 0.950 . S
H2680 C2690 0.950 . S
H2681 C2692 0.950 . S
H2682 C2694 0.950 1_556 S
H2683 C2695 0.950 . S
C2684 H2676 0.950 . S
C2684 C2685 1.386 1_556 S
C2684 C2686 1.391 . S
C2685 C2684 1.386 1_554 S
C2685 C2689 1.393 . S
C2686 H2678 0.950 . S
C2686 C2684 1.391 . S
C2686 C2687 1.400 1_556 S
C2687 C2686 1.400 1_554 S
C2687 C2688 1.398 . S
C2687 C2693 1.491 . S
C2688 H2679 0.950 . S
C2688 C2687 1.398 . S
C2688 C2689 1.391 . S
C2689 H2677 0.950 . S
C2689 C2685 1.393 . S
C2689 C2688 1.391 . S
C2690 H2680 0.950 . S
C2690 C2691 1.386 . S
C2690 C2692 1.391 . S
C2691 C2690 1.386 . S
C2691 C2695 1.393 . S
C2692 H2681 0.950 . S
C2692 C2690 1.391 . S
C2692 C2693 1.400 . S
C2693 C2687 1.491 . S
C2693 C2692 1.400 . S
C2693 C2694 1.398 . S
C2694 H2682 0.950 1_554 S
C2694 C2693 1.398 . S
C2694 C2695 1.391 . S
C2695 H2683 0.950 . S
C2695 C2691 1.393 . S
C2695 C2694 1.391 . S
H2696 C2704 0.950 . S
H2697 C2709 0.950 . S
H2698 C2706 0.950 . S
H2699 C2708 0.950 . S
H2700 C2710 0.950 . S
H2701 C2712 0.950 . S
H2702 C2714 0.950 . S
H2703 C2715 0.950 . S
C2704 H2696 0.950 . S
C2704 C2705 1.386 . S
C2704 C2706 1.391 . S
C2705 C2704 1.386 . S
C2705 C2709 1.393 . S
C2706 H2698 0.950 . S
C2706 C2704 1.391 . S
C2706 C2707 1.400 . S
C2707 C2706 1.400 . S
C2707 C2708 1.398 . S
C2707 C2713 1.491 . S
C2708 H2699 0.950 . S
C2708 C2707 1.398 . S
C2708 C2709 1.391 . S
C2709 H2697 0.950 . S
C2709 C2705 1.393 . S
C2709 C2708 1.391 . S
C2710 H2700 0.950 . S
C2710 C2711 1.386 . S
C2710 C2712 1.391 . S
C2711 C2710 1.386 . S
C2711 C2715 1.393 . S
C2712 H2701 0.950 . S
C2712 C2710 1.391 . S
C2712 C2713 1.400 . S
C2713 C2707 1.491 . S
C2713 C2712 1.400 . S
C2713 C2714 1.398 . S
C2714 H2702 0.950 . S
C2714 C2713 1.398 . S
C2714 C2715 1.391 . S
C2715 H2703 0.950 . S
C2715 C2711 1.393 . S
C2715 C2714 1.391 . S
H2716 C2724 0.950 . S
H2717 C2729 0.950 . S
H2718 C2726 0.950 . S
H2719 C2728 0.950 . S
H2720 C2730 0.950 . S
H2721 C2732 0.950 . S
H2722 C2734 0.950 . S
H2723 C2735 0.950 . S
C2724 H2716 0.950 . S
C2724 C2725 1.386 . S
C2724 C2726 1.391 . S
C2725 C2724 1.386 . S
C2725 C2729 1.393 . S
C2726 H2718 0.950 . S
C2726 C2724 1.391 . S
C2726 C2727 1.400 . S
C2727 C2726 1.400 . S
C2727 C2728 1.398 . S
C2727 C2733 1.491 . S
C2728 H2719 0.950 . S
C2728 C2727 1.398 . S
C2728 C2729 1.391 . S
C2729 H2717 0.950 . S
C2729 C2725 1.393 . S
C2729 C2728 1.391 . S
C2730 H2720 0.950 . S
C2730 C2731 1.386 . S
C2730 C2732 1.391 . S
C2731 C2730 1.386 . S
C2731 C2735 1.393 . S
C2732 H2721 0.950 . S
C2732 C2730 1.391 . S
C2732 C2733 1.400 . S
C2733 C2727 1.491 . S
C2733 C2732 1.400 . S
C2733 C2734 1.398 . S
C2734 H2722 0.950 . S
C2734 C2733 1.398 . S
C2734 C2735 1.391 . S
C2735 H2723 0.950 . S
C2735 C2731 1.393 . S
C2735 C2734 1.391 . S
C831 C337 1.709 . S
C825 C4 1.685 . S
C845 C19 0.775 . S
C851 C382 0.860 . S
C865 C39 1.547 . S
C871 C406 1.529 . S
C891 N432 0.964 . S
C885 C54 0.967 . S
C905 C18 0.966 . S
C911 N462 1.030 . S
C931 C496 1.522 . S
C925 C40 1.552 . S
C951 C532 0.997 1_556 S
C945 C53 0.977 . S
C965 C5 1.371 . S
C971 C556 1.638 . S
C985 C61 0.748 1_545 S
C991 N350 0.816 . S
C1005 C74 1.015 . S
C1011 N372 1.085 . S
C1031 C412 0.788 . S
C1025 C89 0.731 . S
C1051 C436 1.690 . S
C1045 C109 1.713 . S
C1065 C68 1.056 . S
C1071 C466 1.023 . S
C1091 C502 1.033 . S
C1085 C81 1.007 . S
C1111 N522 0.975 . S
C1105 C96 0.969 . S
C1131 C562 1.725 . S
C1125 C102 1.689 . S
C1151 C363 1.544 . S
C1145 C103 1.290 . S
C1171 C592 0.905 . S
C1165 C117 0.838 . S
C1185 C130 1.045 . S
C1191 N612 1.074 . S
C1211 C646 1.527 . S
C1205 C152 1.544 . S
C1225 C60 0.898 . S
C1231 N552 0.930 . S
C1251 N402 0.952 . S
C1245 C82 0.949 . S
C1265 C137 0.874 . S
C1271 C682 0.896 . S
C1291 C706 0.922 . S
C1285 C165 0.916 . S
C1305 C172 1.741 . S
C1311 C346 1.741 1_556 S
C1331 C723 0.929 . S
C1325 C194 0.929 . S
C1345 C207 1.549 . S
C1351 C397 1.544 . S
C1365 C215 0.876 . S
C1371 N680 0.977 . S
C1391 N470 1.086 . S
C1385 C186 1.075 1_455 S
C1411 C607 1.522 . S
C1405 C201 1.370 . S
C1431 C543 1.013 . S
C1425 C221 1.013 . S
C1451 C727 1.673 . S
C1445 C180 1.700 . S
C1471 N342 0.865 . S
C1465 C236 0.875 . S
C1485 C242 1.148 . S
C1491 N710 1.143 . S
C1511 C423 0.906 . S
C1505 C264 0.921 . S
C1525 C277 1.748 . S
C1531 C667 1.739 . S
C1545 C229 0.942 . S
C1551 C457 0.966 1_655 S
C1565 C249 1.000 . S
C1571 C633 0.997 . S
C1591 N530 0.972 . S
C1585 C257 0.946 . S
C1605 C270 1.745 . S
C1611 C753 1.739 . S
C1625 C278 1.567 . S
C1631 C352 1.562 . S
C1645 C292 0.965 . S
C1651 C603 0.957 . S
C1665 C298 1.162 . S
C1671 N500 1.172 . S
C1685 C313 1.409 . S
C1691 C637 1.559 . S
C1711 N740 0.945 . S
C1705 C228 0.951 . S
C1731 N410 0.925 . S
C1725 C243 0.901 . S
C1751 C453 0.923 . S
C1745 C305 0.923 . S
C1771 C367 0.855 . S
C1765 C333 0.853 . S
C1785 C32 1.668 . S
C1791 C757 1.700 . S
C1811 C712 0.879 . S
C1805 C47 0.853 . S
C1831 C796 1.535 . S
C1825 C11 1.543 . S
C1845 C26 0.950 1_655 S
C1851 N672 0.956 . S
C1865 C46 1.010 . S
C1871 N582 1.033 . S
C1891 C616 1.525 . S
C1885 C12 1.552 . S
C1911 C652 0.990 . S
C1905 C25 0.987 . S
C1931 C736 1.637 . S
C1925 C33 1.347 . S
C1951 N770 0.814 . S
C1945 C159 0.790 . S
C1965 C116 1.056 . S
C1971 N702 1.086 . S
C1985 C131 0.733 . S
C1991 C802 0.790 1_655 S
C2011 C676 1.692 . S
C2005 C151 1.709 . S
C2031 C586 1.051 . S
C2025 C166 1.065 . S
C2045 C123 1.024 . S
C2051 C622 1.030 . S
C2071 N642 0.966 . S
C2065 C138 0.968 . S
C2085 C144 1.708 . S
C2091 C742 1.738 . S
C2111 C783 1.543 . S
C2105 C145 1.285 . S
C2131 C472 0.912 . S
C2125 C75 0.866 . S
C2151 N492 1.069 . S
C2145 C88 1.000 . S
C2165 C110 1.546 . S
C2171 C526 1.529 . S
C2191 N732 0.931 . S
C2185 C158 0.910 . S
C2205 C124 0.947 . S
C2211 N792 0.954 . S
C2231 C442 0.880 . S
C2225 C95 0.899 . S
C2251 C376 0.907 . S
C2245 C67 0.919 . S
C2265 C200 1.736 . S
C2271 C766 1.735 . S
C2291 C393 0.931 . S
C2285 C222 0.929 . S
C2311 C787 1.552 1_556 S
C2305 C179 1.558 . S
C2325 C187 0.931 . S
C2331 N440 0.970 . S
C2345 C214 1.081 . S
C2351 N590 1.083 . S
C2365 C173 1.334 . S
C2371 C487 1.535 . S
C2385 C193 1.007 . S
C2391 C663 1.000 . S
C2405 C208 1.700 . S
C2411 C547 1.673 . S
C2431 N762 0.871 . S
C2425 C334 0.864 . S
C2445 C284 1.142 . S
C2451 N380 1.146 . S
C2471 C813 0.910 . S
C2465 C306 0.922 . S
C2485 C319 1.762 . S
C2491 C427 1.755 . S
C2505 C327 0.874 . S
C2511 C577 0.993 . S
C2531 C513 0.993 . S
C2525 C291 0.999 . S
C2545 C299 0.937 . S
C2551 N650 0.972 . S
C2571 C573 1.748 . S
C2565 C312 1.736 . S
C2591 C772 1.561 . S
C2585 C320 1.566 . S
C2611 C483 0.959 . S
C2605 C250 0.965 . S
C2625 C256 1.168 . S
C2631 N620 1.169 . S
C2651 C517 1.564 . S
C2645 C271 1.400 . S
C2671 N560 0.953 . S
C2665 C326 0.939 . S
C2685 C285 0.871 1_554 S
C2691 N800 0.937 . S
C2711 C693 0.917 . S
C2705 C263 0.918 . S
C2731 C697 0.834 . S
C2725 C235 0.836 . S
