# Generated by pormake.
# Topology pyr, (3,6)-cn, num edge types: 1
# Building blocks:
#     Node 0, Type 0, BuildingBlock: WUSLED_clean_sbu_0, # of connection points: 3
#     Node 1, Type 0, BuildingBlock: WUSLED_clean_sbu_0, # of connection points: 3
#     Node 2, Type 0, BuildingBlock: WUSLED_clean_sbu_0, # of connection points: 3
#     Node 3, Type 0, BuildingBlock: WUSLED_clean_sbu_0, # of connection points: 3
#     Node 4, Type 0, BuildingBlock: WUSLED_clean_sbu_0, # of connection points: 3
#     Node 5, Type 0, BuildingBlock: WUSLED_clean_sbu_0, # of connection points: 3
#     Node 6, Type 0, BuildingBlock: WUSLED_clean_sbu_0, # of connection points: 3
#     Node 7, Type 0, BuildingBlock: WUSLED_clean_sbu_0, # of connection points: 3
#     Node 8, Type 1, BuildingBlock: MIDCAF_clean_sbu_0, # of connection points: 6
#     Node 9, Type 1, BuildingBlock: MIDCAF_clean_sbu_0, # of connection points: 6
#     Node 10, Type 1, BuildingBlock: MIDCAF_clean_sbu_0, # of connection points: 6
#     Node 11, Type 1, BuildingBlock: MIDCAF_clean_sbu_0, # of connection points: 6
#     Edge 12, Type (0, 1), BuildingBlock: OJICUG_clean_linker_0, # of connection points: 2
#     Edge 13, Type (0, 1), BuildingBlock: OJICUG_clean_linker_0, # of connection points: 2
#     Edge 14, Type (0, 1), BuildingBlock: OJICUG_clean_linker_0, # of connection points: 2
#     Edge 15, Type (0, 1), BuildingBlock: OJICUG_clean_linker_0, # of connection points: 2
#     Edge 16, Type (0, 1), BuildingBlock: OJICUG_clean_linker_0, # of connection points: 2
#     Edge 17, Type (0, 1), BuildingBlock: OJICUG_clean_linker_0, # of connection points: 2
#     Edge 18, Type (0, 1), BuildingBlock: OJICUG_clean_linker_0, # of connection points: 2
#     Edge 19, Type (0, 1), BuildingBlock: OJICUG_clean_linker_0, # of connection points: 2
#     Edge 20, Type (0, 1), BuildingBlock: OJICUG_clean_linker_0, # of connection points: 2
#     Edge 21, Type (0, 1), BuildingBlock: OJICUG_clean_linker_0, # of connection points: 2
#     Edge 22, Type (0, 1), BuildingBlock: OJICUG_clean_linker_0, # of connection points: 2
#     Edge 23, Type (0, 1), BuildingBlock: OJICUG_clean_linker_0, # of connection points: 2
#     Edge 24, Type (0, 1), BuildingBlock: OJICUG_clean_linker_0, # of connection points: 2
#     Edge 25, Type (0, 1), BuildingBlock: OJICUG_clean_linker_0, # of connection points: 2
#     Edge 26, Type (0, 1), BuildingBlock: OJICUG_clean_linker_0, # of connection points: 2
#     Edge 27, Type (0, 1), BuildingBlock: OJICUG_clean_linker_0, # of connection points: 2
#     Edge 28, Type (0, 1), BuildingBlock: OJICUG_clean_linker_0, # of connection points: 2
#     Edge 29, Type (0, 1), BuildingBlock: OJICUG_clean_linker_0, # of connection points: 2
#     Edge 30, Type (0, 1), BuildingBlock: OJICUG_clean_linker_0, # of connection points: 2
#     Edge 31, Type (0, 1), BuildingBlock: OJICUG_clean_linker_0, # of connection points: 2
#     Edge 32, Type (0, 1), BuildingBlock: OJICUG_clean_linker_0, # of connection points: 2
#     Edge 33, Type (0, 1), BuildingBlock: OJICUG_clean_linker_0, # of connection points: 2
#     Edge 34, Type (0, 1), BuildingBlock: OJICUG_clean_linker_0, # of connection points: 2
#     Edge 35, Type (0, 1), BuildingBlock: OJICUG_clean_linker_0, # of connection points: 2
# Relax obj value: 0.020
# Max RMSD: 0.063
# Mean RMSD: 0.028
data_MOF--net-pyr--node1-WUSLED_clean_sbu_0--node2-MIDCAF_clean_sbu_0--edge1-OJICUG_clean_linker_0
_symmetry_space_group_name_H-M    P1
_symmetry_Int_Tables_number       1
_symmetry_cell_setting            triclinic
loop_
_symmetry_equiv_pos_as_xyz
'x, y, z'
_cell_length_a     36.435923
_cell_length_b     36.538086
_cell_length_c     36.479119
_cell_angle_alpha  89.467874
_cell_angle_beta   90.366824
_cell_angle_gamma 90.354035
loop_
_atom_site_label
_atom_site_type_symbol
_atom_site_fract_x
_atom_site_fract_y
_atom_site_fract_z
_atom_type_partial_charge
C0 C 0.2223 0.32222 0.1747 0.0
C1 C 0.2045 0.34386 0.20067 0.0
C2 C 0.17751 0.38145 0.15176 0.0
C3 C 0.18248 0.37326 0.18932 0.0
C4 C 0.19594 0.35991 0.12597 0.0
C5 C 0.21809 0.33071 0.13735 0.0
U6 U 0.24422 0.23937 0.23712 0.0
O7 O 0.26099 0.18382 0.22158 0.0
O8 O 0.29764 0.21762 0.2553 0.0
C9 C 0.29354 0.18703 0.23695 0.0
C10 C 0.24472 0.29027 0.18561 0.0
C11 C 0.3248 0.17557 0.21424 0.0
C12 C 0.37413 0.18887 0.17132 0.0
C13 C 0.34529 0.20082 0.19342 0.0
C14 C 0.36247 0.12636 0.19071 0.0
C15 C 0.38291 0.15138 0.16935 0.0
C16 C 0.33382 0.13836 0.21289 0.0
C17 C 0.18098 0.21681 0.31901 0.0
C18 C 0.19395 0.17565 0.37031 0.0
C19 C 0.13112 0.19163 0.35574 0.0
C20 C 0.14343 0.2138 0.32678 0.0
C21 C 0.15615 0.17196 0.37779 0.0
C22 C 0.20622 0.19772 0.34114 0.0
C23 C 0.19277 0.23955 0.28743 0.0
O24 O 0.26348 0.29291 0.21642 0.0
O25 O 0.2288 0.25819 0.1816 0.0
O26 O 0.18838 0.22463 0.25505 0.0
O27 O 0.22412 0.25729 0.29083 0.0
H28 H 0.2073 0.33786 0.22968 0.0
H29 H 0.16915 0.38942 0.21004 0.0
H30 H 0.19237 0.36478 0.09685 0.0
H31 H 0.23148 0.31429 0.11684 0.0
H32 H 0.38944 0.20904 0.15566 0.0
H33 H 0.33881 0.2297 0.194 0.0
H34 H 0.3678 0.09728 0.1895 0.0
H35 H 0.31826 0.1184 0.22863 0.0
H36 H 0.21411 0.16132 0.38686 0.0
H37 H 0.10185 0.18906 0.36005 0.0
H38 H 0.12347 0.22821 0.30999 0.0
H39 H 0.23537 0.1996 0.33571 0.0
C40 C 0.23289 0.84 0.68445 0.0
C41 C 0.20041 0.8221 0.67388 0.0
C42 C 0.17335 0.88007 0.65444 0.0
C43 C 0.17096 0.84186 0.65914 0.0
C44 C 0.20512 0.89826 0.66708 0.0
C45 C 0.23464 0.87842 0.68191 0.0
U46 U 0.31802 0.81501 0.744 0.0
O47 O 0.33845 0.76003 0.75906 0.0
O48 O 0.37263 0.79748 0.72636 0.0
C49 C 0.36869 0.76425 0.73999 0.0
C50 C 0.2653 0.81767 0.69451 0.0
C51 C 0.37863 0.73393 0.71542 0.0
C52 C 0.38577 0.70896 0.65423 0.0
C53 C 0.37204 0.73591 0.67747 0.0
C54 C 0.41103 0.67659 0.7067 0.0
C55 C 0.40621 0.67939 0.66847 0.0
C56 C 0.39746 0.70364 0.72988 0.0
C57 C 0.34286 0.87517 0.82784 0.0
C58 C 0.39978 0.87361 0.86319 0.0
C59 C 0.35202 0.9163 0.87909 0.0
C60 C 0.33008 0.90287 0.85062 0.0
C61 C 0.38739 0.90222 0.88561 0.0
C62 C 0.3777 0.86022 0.83452 0.0
C63 C 0.32001 0.86415 0.79626 0.0
O64 O 0.29772 0.833 0.68997 0.0
O65 O 0.26298 0.79796 0.72475 0.0
O66 O 0.30223 0.83286 0.79928 0.0
O67 O 0.33462 0.86933 0.76377 0.0
H68 H 0.19832 0.79253 0.67568 0.0
H69 H 0.14673 0.82702 0.6502 0.0
H70 H 0.20803 0.92761 0.66364 0.0
H71 H 0.25931 0.89301 0.68999 0.0
H72 H 0.38121 0.71176 0.62497 0.0
H73 H 0.35731 0.75888 0.66566 0.0
H74 H 0.42696 0.65451 0.71862 0.0
H75 H 0.40288 0.70158 0.75907 0.0
H76 H 0.42668 0.86184 0.86751 0.0
H77 H 0.34166 0.9388 0.89503 0.0
H78 H 0.30335 0.91492 0.84576 0.0
H79 H 0.38806 0.83875 0.81717 0.0
C80 C 0.68044 0.34568 0.73937 0.0
C81 C 0.70581 0.3667 0.7193 0.0
C82 C 0.65624 0.39215 0.68167 0.0
C83 C 0.69385 0.38959 0.69064 0.0
C84 C 0.63108 0.37059 0.70169 0.0
C85 C 0.64309 0.34761 0.73014 0.0
U86 U 0.74401 0.32159 0.82075 0.0
O87 O 0.72958 0.3027 0.87618 0.0
O88 O 0.76208 0.26736 0.84077 0.0
C89 C 0.74411 0.27021 0.87173 0.0
C90 C 0.6919 0.32228 0.77053 0.0
C91 C 0.72054 0.23876 0.88193 0.0
C92 C 0.66034 0.21013 0.8865 0.0
C93 C 0.6827 0.23911 0.87467 0.0
C94 C 0.71347 0.17935 0.91199 0.0
C95 C 0.67533 0.17988 0.90552 0.0
C96 C 0.7358 0.20855 0.90035 0.0
C97 C 0.82568 0.38312 0.84592 0.0
C98 C 0.8527 0.38767 0.90682 0.0
C99 C 0.88464 0.41367 0.85464 0.0
C100 C 0.85614 0.40186 0.83153 0.0
C101 C 0.88312 0.40712 0.89272 0.0
C102 C 0.82446 0.37564 0.88369 0.0
C103 C 0.79468 0.3731 0.82167 0.0
O104 O 0.72287 0.30437 0.76688 0.0
O105 O 0.6882 0.33679 0.8031 0.0
O106 O 0.76186 0.37694 0.83584 0.0
O107 O 0.79817 0.3426 0.80321 0.0
H108 H 0.73481 0.36569 0.72599 0.0
H109 H 0.7141 0.40541 0.67562 0.0
H110 H 0.6019 0.37224 0.69617 0.0
H111 H 0.62305 0.33172 0.74542 0.0
H112 H 0.63108 0.21204 0.88155 0.0
H113 H 0.67028 0.26213 0.86048 0.0
H114 H 0.72611 0.15643 0.92609 0.0
H115 H 0.76499 0.20772 0.90612 0.0
H116 H 0.85003 0.38262 0.93597 0.0
H117 H 0.90776 0.42806 0.84265 0.0
H118 H 0.85765 0.40781 0.80242 0.0
H119 H 0.80124 0.36119 0.89546 0.0
C120 C 0.7375 0.68346 0.33521 0.0
C121 C 0.73775 0.69222 0.37255 0.0
C122 C 0.68038 0.65855 0.38152 0.0
C123 C 0.7097 0.67971 0.39547 0.0
C124 C 0.67977 0.65068 0.34379 0.0
C125 C 0.70815 0.66296 0.3209 0.0
U126 U 0.8183 0.74643 0.31258 0.0
O127 O 0.8748 0.7326 0.29716 0.0
O128 O 0.84052 0.76511 0.25958 0.0
C129 C 0.87161 0.74753 0.26441 0.0
C130 C 0.76851 0.69412 0.31155 0.0
C131 C 0.88392 0.72452 0.23391 0.0
C132 C 0.87167 0.6813 0.18495 0.0
C133 C 0.85897 0.70438 0.2125 0.0
C134 C 0.93432 0.6984 0.19974 0.0
C135 C 0.90958 0.6776 0.17852 0.0
C136 C 0.92158 0.72162 0.22706 0.0
C137 C 0.83992 0.82774 0.3744 0.0
C138 C 0.89989 0.85695 0.37787 0.0
C139 C 0.84759 0.88556 0.40624 0.0
C140 C 0.82511 0.85669 0.39436 0.0
C141 C 0.8854 0.8859 0.39846 0.0
C142 C 0.87738 0.82833 0.36581 0.0
C143 C 0.81645 0.79654 0.36375 0.0
O144 O 0.76487 0.72502 0.29314 0.0
O145 O 0.80117 0.69038 0.32658 0.0
O146 O 0.83106 0.76404 0.36865 0.0
O147 O 0.79909 0.79991 0.33221 0.0
H148 H 0.76015 0.70802 0.38421 0.0
H149 H 0.71172 0.68578 0.4244 0.0
H150 H 0.6575 0.6349 0.33194 0.0
H151 H 0.70743 0.65602 0.29209 0.0
H152 H 0.85177 0.6661 0.16891 0.0
H153 H 0.82974 0.70611 0.21739 0.0
H154 H 0.96366 0.69586 0.19617 0.0
H155 H 0.94127 0.73679 0.24343 0.0
H156 H 0.92892 0.85572 0.37188 0.0
H157 H 0.83535 0.90751 0.4216 0.0
H158 H 0.7962 0.85676 0.40112 0.0
H159 H 0.88939 0.80626 0.35039 0.0
C160 C 0.89901 0.81288 0.96016 0.0
C161 C 0.88989 0.77735 0.94849 0.0
C162 C 0.9337 0.75087 0.99191 0.0
C163 C 0.90708 0.74673 0.96413 0.0
C164 C 0.94189 0.7863 1.00441 0.0
C165 C 0.92465 0.81689 0.98887 0.0
U166 U 0.89025 0.88977 0.88712 0.0
O167 O 0.84063 0.91313 0.86149 0.0
O168 O 0.87703 0.94793 0.89433 0.0
C169 C 0.84543 0.94517 0.87696 0.0
C170 C 0.88093 0.84558 0.94372 0.0
C171 C 0.81353 0.95924 0.89693 0.0
C172 C 0.77347 0.95724 0.94982 0.0
C173 C 0.80343 0.94361 0.93063 0.0
C174 C 0.76292 1.00214 0.9017 0.0
C175 C 0.75292 0.98682 0.93576 0.0
C176 C 0.79308 0.9885 0.88251 0.0
C177 C 0.95927 0.89741 0.80869 0.0
C178 C 0.96091 0.94991 0.76747 0.0
C179 C 1.00117 0.89861 0.75691 0.0
C180 C 0.98663 0.88074 0.78781 0.0
C181 C 0.98871 0.9336 0.74658 0.0
C182 C 0.94634 0.932 0.79817 0.0
C183 C 0.94482 0.87887 0.84166 0.0
O184 O 0.89936 0.87659 0.94544 0.0
O185 O 0.86409 0.84114 0.91205 0.0
O186 O 0.9124 0.86331 0.83797 0.0
O187 O 0.94823 0.8973 0.87228 0.0
H188 H 0.86977 0.77313 0.92694 0.0
H189 H 0.90037 0.71988 0.95357 0.0
H190 H 0.9619 0.79043 0.02609 0.0
H191 H 0.93167 0.84375 0.99919 0.0
H192 H 0.76611 0.94422 0.97556 0.0
H193 H 0.81874 0.92084 0.94208 0.0
H194 H 0.74778 0.02496 0.89015 0.0
H195 H 0.8005 1.00088 0.85647 0.0
H196 H 0.95007 0.97647 0.75987 0.0
H197 H 0.02254 0.88535 0.74149 0.0
H198 H 0.99693 0.854 0.79556 0.0
H199 H 0.92505 0.9452 0.81379 0.0
C200 C 0.60527 0.16737 0.30869 0.0
C201 C 0.62108 0.13405 0.29886 0.0
C202 C 0.57814 0.12842 0.24761 0.0
C203 C 0.60768 0.11479 0.26867 0.0
C204 C 0.56274 0.1622 0.25721 0.0
C205 C 0.57615 0.18146 0.28763 0.0
U206 U 0.67374 0.17627 0.38705 0.0
O207 O 0.70053 0.22466 0.41123 0.0
O208 O 0.66554 0.18927 0.44519 0.0
C209 C 0.68412 0.22018 0.443 0.0
C210 C 0.61884 0.18704 0.34116 0.0
C211 C 0.66648 0.25291 0.45901 0.0
C212 C 0.65907 0.31912 0.46221 0.0
C213 C 0.67586 0.28845 0.44701 0.0
C214 C 0.62418 0.27956 0.50273 0.0
C215 C 0.6326 0.31501 0.48988 0.0
C216 C 0.64102 0.24893 0.48762 0.0
C217 C 0.74985 0.10543 0.3968 0.0
C218 C 0.79061 0.10467 0.44966 0.0
C219 C 0.80019 0.062 0.40022 0.0
C220 C 0.76989 0.07674 0.38151 0.0
C221 C 0.81074 0.07564 0.43468 0.0
C222 C 0.7605 0.1194 0.43091 0.0
C223 C 0.71779 0.12048 0.37726 0.0
O224 O 0.61553 0.16906 0.37235 0.0
O225 O 0.65109 0.20294 0.3375 0.0
O226 O 0.7228 0.15267 0.36163 0.0
O227 O 0.68656 0.11798 0.39497 0.0
H228 H 0.64375 0.12287 0.31465 0.0
H229 H 0.62074 0.08928 0.26161 0.0
H230 H 0.53997 0.17339 0.24161 0.0
H231 H 0.56364 0.2072 0.29486 0.0
H232 H 0.66594 0.34598 0.4514 0.0
H233 H 0.69586 0.29265 0.42552 0.0
H234 H 0.60429 0.27545 0.52435 0.0
H235 H 0.63383 0.22205 0.49821 0.0
H236 H 0.79842 0.11638 0.47575 0.0
H237 H 0.81502 0.03966 0.388 0.0
H238 H 0.76201 0.06564 0.35514 0.0
H239 H 0.7455 0.14172 0.44303 0.0
C240 C 0.31656 0.60086 0.16158 0.0
C241 C 0.30554 0.61664 0.12817 0.0
C242 C 0.25407 0.57385 0.12426 0.0
C243 C 0.27464 0.60329 0.10971 0.0
C244 C 0.26498 0.55837 0.15803 0.0
C245 C 0.2961 0.57173 0.17648 0.0
U246 U 0.3939 0.6705 0.16913 0.0
O247 O 0.41841 0.6971 0.21747 0.0
O248 O 0.45248 0.66337 0.18199 0.0
C249 C 0.45042 0.68145 0.21289 0.0
C250 C 0.34937 0.61477 0.1807 0.0
C251 C 0.46518 0.66213 0.24525 0.0
C252 C 0.46462 0.60962 0.28639 0.0
C253 C 0.45036 0.62825 0.25597 0.0
C254 C 0.50854 0.6587 0.29618 0.0
C255 C 0.49401 0.62448 0.30678 0.0
C256 C 0.49427 0.67732 0.26552 0.0
C257 C 0.40032 0.74797 0.09725 0.0
C258 C 0.44553 0.77557 0.05635 0.0
C259 C 0.40755 0.81428 0.09368 0.0
C260 C 0.3898 0.78326 0.10795 0.0
C261 C 0.43609 0.81077 0.06821 0.0
C262 C 0.42777 0.74456 0.07058 0.0
C263 C 0.38229 0.71498 0.11326 0.0
O264 O 0.38013 0.61226 0.16228 0.0
O265 O 0.3455 0.64669 0.1965 0.0
O266 O 0.36669 0.71893 0.14539 0.0
O267 O 0.40029 0.68402 0.11064 0.0
H268 H 0.32085 0.63934 0.11639 0.0
H269 H 0.26657 0.61642 0.08419 0.0
H270 H 0.24977 0.53567 0.1699 0.0
H271 H 0.30425 0.55928 0.20232 0.0
H272 H 0.45223 0.58372 0.29426 0.0
H273 H 0.42771 0.61624 0.24078 0.0
H274 H 0.53116 0.67082 0.31127 0.0
H275 H 0.506 0.70351 0.25759 0.0
H276 H 0.46702 0.77194 0.03636 0.0
H277 H 0.3998 0.84095 0.10367 0.0
H278 H 0.36828 0.78696 0.1279 0.0
H279 H 0.43598 0.71788 0.06101 0.0
C280 C 0.11189 0.31313 0.62944 0.0
C281 C 0.1414 0.29464 0.61346 0.0
C282 C 0.09867 0.25309 0.58286 0.0
C283 C 0.13483 0.26471 0.59044 0.0
C284 C 0.06938 0.27247 0.59833 0.0
C285 C 0.07596 0.30212 0.62129 0.0
U286 U 0.16485 0.39621 0.66711 0.0
O287 O 0.14311 0.44862 0.68654 0.0
O288 O 0.17416 0.41287 0.72415 0.0
C289 C 0.15432 0.44263 0.72036 0.0
C290 C 0.11741 0.34329 0.65541 0.0
C291 C 0.12734 0.44969 0.74926 0.0
C292 C 0.08588 0.42926 0.7975 0.0
C293 C 0.10904 0.42129 0.76809 0.0
C294 C 0.0981 0.49395 0.78842 0.0
C295 C 0.08052 0.46573 0.80831 0.0
C296 C 0.12117 0.48598 0.75927 0.0
C297 C 0.25401 0.43023 0.62234 0.0
C298 C 0.32012 0.44002 0.62247 0.0
C299 C 0.27974 0.48916 0.6036 0.0
C300 C 0.24928 0.46666 0.61039 0.0
C301 C 0.31552 0.4758 0.60871 0.0
C302 C 0.2897 0.41746 0.62903 0.0
C303 C 0.22257 0.40448 0.62525 0.0
O304 O 0.14525 0.34023 0.67835 0.0
O305 O 0.11362 0.37642 0.64168 0.0
O306 O 0.19001 0.41744 0.61663 0.0
O307 O 0.2222 0.38282 0.65426 0.0
H308 H 0.16942 0.30294 0.61923 0.0
H309 H 0.15797 0.25046 0.57892 0.0
H310 H 0.04121 0.26389 0.59392 0.0
H311 H 0.05285 0.316 0.63339 0.0
H312 H 0.07267 0.40692 0.81213 0.0
H313 H 0.11327 0.39302 0.76061 0.0
H314 H 0.09545 0.52229 0.79635 0.0
H315 H 0.13511 0.50824 0.74515 0.0
H316 H 0.3473 0.42864 0.62611 0.0
H317 H 0.27535 0.51664 0.59313 0.0
H318 H 0.22215 0.4775 0.60507 0.0
H319 H 0.29418 0.38949 0.63803 0.0
Zn320 Zn 0.98893 0.06993 0.57043 0.0
Zn321 Zn 0.06839 0.98953 0.48389 0.0
Zn322 Zn 0.02897 0.03007 0.52836 0.0
C323 C 0.09291 0.06134 0.4733 0.0
C324 C 0.99535 0.97958 0.46288 0.0
O325 O 0.03233 1.00663 0.58541 0.0
O326 O 0.99827 0.04461 0.61729 0.0
C327 C 0.04162 0.11673 0.54178 0.0
O328 O 0.06875 0.06674 0.49844 0.0
O329 O 0.09876 0.02928 0.46219 0.0
O330 O 0.0272 0.96955 0.45417 0.0
O331 O 0.99095 1.00247 0.48921 0.0
O332 O 0.01374 0.11713 0.56204 0.0
O333 O 0.05181 0.0868 0.52649 0.0
O334 O 0.97091 0.02965 0.50738 0.0
O335 O 0.9406 0.06303 0.54716 0.0
C336 C 0.94077 0.04434 0.51828 0.0
O337 O 0.05796 0.98859 0.56324 0.0
O338 O 0.09006 0.95775 0.5227 0.0
C339 C 0.01804 0.01644 0.61608 0.0
C340 C 0.08101 0.96313 0.55557 0.0
Zn341 Zn 0.49472 0.06814 0.9884 0.0
Zn342 Zn 0.57801 0.98676 0.07527 0.0
Zn343 Zn 0.5367 0.02772 0.03305 0.0
C344 C 0.62416 0.01384 0.02098 0.0
C345 C 0.52408 0.94044 0.04843 0.0
O346 O 0.50618 0.06668 0.06826 0.0
O347 O 0.46995 0.09517 0.0285 0.0
C348 C 0.56776 0.082 0.96884 0.0
O349 O 0.59404 0.02973 1.01115 0.0
O350 O 0.62477 0.99347 0.04909 0.0
O351 O 0.55177 0.93977 0.06936 0.0
O352 O 0.51484 0.97049 0.03201 0.0
O353 O 0.5355 0.09214 0.9612 0.0
O354 O 0.57328 0.05735 0.99382 0.0
O355 O 0.49736 0.99057 1.00408 0.0
O356 O 0.46818 0.02684 0.96471 0.0
C357 C 0.47407 0.99526 0.97768 0.0
O358 O 0.53476 0.05092 0.0895 0.0
O359 O 0.5712 0.01394 0.12112 0.0
C360 C 0.48024 0.08969 0.06125 0.0
C361 C 0.55092 0.0418 0.11981 0.0
Zn362 Zn 0.5759 0.57501 0.56552 0.0
Zn363 Zn 0.4926 0.48898 0.48504 0.0
Zn364 Zn 0.53363 0.53068 0.52614 0.0
C365 C 0.54645 0.44354 0.51402 0.0
C366 C 0.5203 0.54138 0.43791 0.0
O367 O 0.49717 0.56047 0.56489 0.0
O368 O 0.5349 0.6018 0.58861 0.0
C369 C 0.59532 0.50209 0.58349 0.0
O370 O 0.55626 0.47393 0.52913 0.0
O371 O 0.51812 0.44233 0.49398 0.0
O372 O 0.50024 0.51314 0.43732 0.0
O373 O 0.53536 0.55173 0.46827 0.0
O374 O 0.60124 0.53479 0.59305 0.0
O375 O 0.57237 0.49525 0.5573 0.0
O376 O 0.56298 0.56929 0.48856 0.0
O377 O 0.60114 0.60016 0.5244 0.0
C378 C 0.58892 0.59313 0.49277 0.0
O379 O 0.47669 0.53266 0.54785 0.0
O380 O 0.44549 0.49727 0.50965 0.0
C381 C 0.50293 0.58874 0.58512 0.0
C382 C 0.44634 0.51749 0.53748 0.0
Zn383 Zn 0.07406 0.57766 0.98987 0.0
Zn384 Zn 0.9925 0.49216 0.07448 0.0
Zn385 Zn 0.03399 0.53532 0.03173 0.0
C386 C 0.06628 0.47915 0.09384 0.0
C387 C 0.97856 0.47165 1.0018 0.0
O388 O 1.01172 0.59235 0.03371 0.0
O389 O 0.04897 0.62436 0.99787 0.0
C390 C 0.12172 0.54914 0.04224 0.0
O391 O 0.07155 0.50477 0.06976 0.0
O392 O 0.03403 0.46865 0.10118 0.0
O393 O 0.96834 0.4644 0.0341 0.0
O394 O 1.00339 0.49635 0.99602 0.0
O395 O 0.12173 0.56978 0.01432 0.0
O396 O 0.09172 0.53327 0.05261 0.0
O397 O 0.02983 0.51452 0.97469 0.0
O398 O 0.06446 0.55319 0.94289 0.0
C399 C 0.04394 0.5253 0.94409 0.0
O400 O 0.99593 0.57107 0.06227 0.0
O401 O 0.96551 0.53269 0.09839 0.0
C402 C 0.02104 0.62287 0.01809 0.0
C403 C 0.97222 0.56507 0.0878 0.0
C404 C 0.11099 0.15337 0.42729 0.0
C405 C 0.14261 0.14585 0.40662 0.0
H406 H 0.07025 0.13261 0.46439 0.0
C407 C 0.15972 0.11177 0.41172 0.0
H408 H 0.09729 0.17948 0.42453 0.0
C409 C 0.14465 0.08535 0.43523 0.0
C410 C 0.11202 0.09211 0.45436 0.0
H411 H 0.18378 0.10463 0.39612 0.0
H412 H 0.15785 0.05891 0.43725 0.0
C413 C 0.0958 0.12675 0.45078 0.0
C414 C 0.44937 0.92561 0.90649 0.0
C415 C 0.41186 0.91959 0.91371 0.0
H416 H 0.4988 0.954 0.92201 0.0
C417 C 0.39716 0.93399 0.94616 0.0
H418 H 0.46169 0.91541 0.8817 0.0
C419 C 0.41844 0.95646 0.96892 0.0
C420 C 0.45511 0.96418 0.96029 0.0
H421 H 0.36866 0.92933 0.95314 0.0
H422 H 0.40572 0.96932 0.99223 0.0
C423 C 0.47074 0.94772 0.92957 0.0
C424 C 0.65919 0.4536 0.65004 0.0
C425 C 0.64294 0.41871 0.6532 0.0
H426 H 0.65729 0.50682 0.62526 0.0
C427 C 0.6125 0.41048 0.63062 0.0
H428 H 0.68228 0.46126 0.66721 0.0
C429 C 0.59777 0.43698 0.6068 0.0
C430 C 0.61336 0.4722 0.60466 0.0
H431 H 0.5995 0.38378 0.63191 0.0
H432 H 0.57322 0.43033 0.59137 0.0
C433 C 0.64462 0.47992 0.62611 0.0
C434 C 0.95537 0.65753 0.13107 0.0
C435 C 0.92348 0.65045 0.15169 0.0
H436 H 0.9962 0.63604 0.09533 0.0
C437 C 0.90634 0.61603 0.1484 0.0
H438 H 0.96911 0.68385 0.13253 0.0
C439 C 0.92139 0.58903 0.1263 0.0
C440 C 0.95402 0.59562 0.10689 0.0
H441 H 0.88212 0.60925 0.16416 0.0
H442 H 0.90798 0.56251 0.12529 0.0
C443 C 0.97059 0.63033 0.10914 0.0
C444 C 0.43377 0.10775 0.15236 0.0
C445 C 0.41151 0.13806 0.14347 0.0
H446 H 0.47267 0.06845 0.13347 0.0
C447 C 0.41506 0.15411 0.10848 0.0
H448 H 0.43222 0.09491 0.17918 0.0
C449 C 0.43887 0.13941 0.08266 0.0
C450 C 0.45986 0.10819 0.09095 0.0
H451 H 0.39819 0.1771 0.10029 0.0
H452 H 0.43987 0.15188 0.05562 0.0
C453 C 0.45753 0.0929 0.12635 0.0
C454 C 0.13189 0.88461 0.59965 0.0
C455 C 0.14502 0.90001 0.63241 0.0
H456 H 0.10111 0.8924 0.55018 0.0
C457 C 0.13317 0.93535 0.64181 0.0
H458 H 0.14068 0.85773 0.59121 0.0
C459 C 0.11001 0.95531 0.61811 0.0
C460 C 0.09882 0.94045 0.58441 0.0
H461 H 0.14258 0.9479 0.66698 0.0
H462 H 0.1026 0.98302 0.62518 0.0
C463 C 0.10929 0.9046 0.57596 0.0
C464 C 0.92184 0.40217 0.95001 0.0
C465 C 0.91204 0.42173 0.91804 0.0
H466 H 0.9507 0.40259 1.0013 0.0
C467 C 0.92823 0.4564 0.91195 0.0
H468 H 0.91087 0.37504 0.95527 0.0
C469 C 0.95187 0.47186 0.93814 0.0
C470 C 0.95957 0.45313 0.97106 0.0
H471 H 0.92119 0.47251 0.88789 0.0
H472 H 0.9622 0.49937 0.93362 0.0
C473 C 0.94499 0.41781 0.9763 0.0
C474 C 0.64096 0.66368 0.43759 0.0
C475 C 0.65182 0.64354 0.40685 0.0
H476 H 0.61249 0.66339 0.48872 0.0
C477 C 0.63735 0.60796 0.40235 0.0
H478 H 0.65049 0.6915 0.44152 0.0
C479 C 0.61463 0.59218 0.42915 0.0
C480 C 0.6063 0.61154 0.46105 0.0
H481 H 0.64516 0.59146 0.3792 0.0
H482 H 0.60553 0.5641 0.42599 0.0
C483 C 0.61887 0.64773 0.46452 0.0
C484 C 0.11794 0.41532 0.15776 0.0
C485 C 0.15133 0.4105 0.13933 0.0
H486 H 0.06549 0.44119 0.15824 0.0
C487 C 0.15803 0.43179 0.10759 0.0
H488 H 0.11141 0.39924 0.18195 0.0
C489 C 0.13126 0.45572 0.09366 0.0
C490 C 0.09731 0.45917 0.11131 0.0
H491 H 0.1836 0.42927 0.0929 0.0
H492 H 0.13648 0.47002 0.0681 0.0
C493 C 0.09138 0.43929 0.14396 0.0
C494 C 0.61934 0.13959 0.89974 0.0
C495 C 0.65083 0.15003 0.91966 0.0
H496 H 0.56869 0.10965 0.89961 0.0
C497 C 0.65708 0.13355 0.95425 0.0
H498 H 0.61405 0.15072 0.87262 0.0
C499 C 0.63129 0.10918 0.96941 0.0
C500 C 0.59862 0.10108 0.95043 0.0
H501 H 0.68087 0.14096 0.97055 0.0
H502 H 0.63584 0.09857 0.99687 0.0
C503 C 0.59346 0.11572 0.91505 0.0
C504 C 0.9407 0.92707 0.39256 0.0
C505 C 0.91022 0.91512 0.41301 0.0
H506 H 0.99131 0.95711 0.39231 0.0
C507 C 0.90548 0.92921 0.44851 0.0
H508 H 0.94478 0.91778 0.36479 0.0
C509 C 0.9319 0.95258 0.46399 0.0
C510 C 0.96366 0.96205 0.44439 0.0
H511 H 0.8825 0.92056 0.46522 0.0
H512 H 0.92862 0.96121 0.4921 0.0
C513 C 0.96723 0.94994 0.40818 0.0
C514 C 0.42889 0.61631 0.65159 0.0
C515 C 0.42591 0.65404 0.64358 0.0
H516 H 0.45538 0.56551 0.63875 0.0
C517 C 0.44512 0.66834 0.61332 0.0
H518 H 0.41433 0.60439 0.67462 0.0
C519 C 0.46835 0.64615 0.59302 0.0
C520 C 0.47257 0.60899 0.602 0.0
H521 H 0.44398 0.69725 0.60659 0.0
H522 H 0.48436 0.65845 0.57114 0.0
C523 C 0.45196 0.59392 0.63085 0.0
C524 C 1.00941 0.93533 0.68049 0.0
C525 C 1.00395 0.95329 0.71404 0.0
H526 H 0.01901 0.94142 0.6226 0.0
C527 C 1.01031 0.9912 0.71562 0.0
H528 H 1.00486 0.90611 0.67837 0.0
C529 C 0.01841 1.01119 0.68392 0.0
C530 C 0.02063 0.99381 0.64982 0.0
H531 H 1.00742 1.00574 0.74117 0.0
H532 H 0.02083 0.04069 0.68576 0.0
C533 C 0.01773 0.95548 0.64857 0.0
C534 C 0.56116 0.06889 0.21847 0.0
C535 C 0.56412 0.10716 0.21575 0.0
H536 H 0.55384 0.01839 0.19025 0.0
C537 C 0.55643 0.12421 0.18177 0.0
H538 H 0.56586 0.05495 0.2444 0.0
C539 C 0.54898 0.10309 0.15058 0.0
C540 C 0.54918 0.06468 0.15299 0.0
H541 H 0.55838 0.15367 0.17879 0.0
H542 H 0.54557 0.11668 0.12427 0.0
C543 C 0.55395 0.04794 0.18749 0.0
C544 C 0.51543 0.62219 0.37273 0.0
C545 C 0.50844 0.60427 0.33936 0.0
H546 H 0.52527 0.61612 0.43063 0.0
C547 C 0.51209 0.56606 0.3381 0.0
H548 H 0.51292 0.65163 0.37458 0.0
C549 C 0.51907 0.54592 0.36999 0.0
C550 C 0.52289 0.56348 0.40389 0.0
H551 H 0.50792 0.55151 0.31266 0.0
H552 H 0.51955 0.51632 0.36841 0.0
C553 C 0.52264 0.60191 0.40481 0.0
C554 C 0.04006 0.50758 0.84394 0.0
C555 C 0.0601 0.47486 0.84224 0.0
H556 H 0.0187 0.54932 0.87851 0.0
C557 C 0.0656 0.45449 0.87478 0.0
H558 H 0.03435 0.5234 0.81933 0.0
C559 C 0.05544 0.46892 0.90868 0.0
C560 C 0.04007 0.50396 0.91036 0.0
H561 H 0.08088 0.42917 0.87454 0.0
H562 H 0.06327 0.45455 0.93361 0.0
C563 C 0.03062 0.52224 0.87775 0.0
C564 C 0.7232 1.00331 0.99507 0.0
C565 C 0.72101 1.00084 0.95671 0.0
H566 H 0.69433 1.01021 0.04529 0.0
C567 C 0.6874 1.0091 0.93924 0.0
H568 H 0.74884 0.99819 1.00936 0.0
C569 C 0.65602 0.01658 0.96 0.0
C570 C 0.65781 0.01584 0.99849 0.0
H571 H 0.68478 1.00754 0.90971 0.0
H572 H 0.62997 0.02032 0.94603 0.0
C573 C 0.69201 1.01054 0.01566 0.0
C574 C 0.84129 0.05598 0.49326 0.0
C575 C 0.8429 0.0605 0.45502 0.0
H576 H 0.87098 0.04641 0.54309 0.0
C577 C 0.87621 0.05325 0.43715 0.0
H578 H 0.81588 0.06034 0.50779 0.0
C579 C 0.90791 0.04473 0.4575 0.0
C580 C 0.90672 0.04335 0.49598 0.0
H581 H 0.87836 0.05643 0.4077 0.0
H582 H 0.93374 0.04186 0.44331 0.0
C583 C 0.87281 0.04765 0.51347 0.0
C584 C 0.18788 0.55289 0.12242 0.0
C585 C 0.2211 0.56027 0.10414 0.0
H586 H 0.12987 0.54298 0.11695 0.0
C587 C 0.22189 0.55764 0.06576 0.0
H588 H 0.18638 0.55463 0.15199 0.0
C589 C 0.18975 0.55111 0.04591 0.0
C590 C 0.15605 0.54668 0.0639 0.0
H591 H 0.24719 0.56215 0.0509 0.0
H592 H 0.191 0.55128 0.01623 0.0
C593 C 0.15555 0.54611 0.10241 0.0
C594 C 0.34658 0.51171 0.55918 0.0
C595 C 0.34779 0.49658 0.59473 0.0
H596 H 0.37757 0.53096 0.51317 0.0
C597 C 0.38146 0.49641 0.61389 0.0
H598 H 0.32121 0.51201 0.54355 0.0
C599 C 0.41379 0.50781 0.59649 0.0
C600 C 0.41285 0.51917 0.55966 0.0
H601 H 0.38315 0.4852 0.64144 0.0
H602 H 0.4398 0.50429 0.6106 0.0
C603 C 0.37885 0.52261 0.54173 0.0
C604 C 0.99341 0.72157 1.00902 0.0
C605 C 0.95509 0.71875 1.00537 0.0
H606 H 0.04416 0.69336 0.01658 0.0
C607 C 0.93821 0.68446 1.01157 0.0
H608 H 1.00739 0.7474 1.0042 0.0
C609 C 0.95946 0.65331 0.01896 0.0
C610 C 0.99793 0.65594 0.01989 0.0
H611 H 0.90868 0.68149 1.00943 0.0
H612 H 0.94597 0.62693 0.02158 0.0
C613 C 0.01454 0.69055 0.01603 0.0
C614 C 0.49659 0.84123 0.05626 0.0
C615 C 0.4581 0.84333 0.05677 0.0
H616 H 0.54751 0.87037 0.05264 0.0
C617 C 0.44142 0.87735 0.04955 0.0
H618 H 0.5104 0.81564 0.06206 0.0
C619 C 0.46288 0.90889 0.04406 0.0
C620 C 0.50132 0.90694 0.04589 0.0
H621 H 0.41181 0.8798 0.04941 0.0
H622 H 0.44941 0.93505 0.04083 0.0
C623 C 0.5179 0.87266 0.05102 0.0
C624 C 0.11087 0.18689 0.56904 0.0
C625 C 0.09082 0.21906 0.56196 0.0
H626 H 0.11106 0.12817 0.56665 0.0
C627 C 0.05943 0.21691 0.5394 0.0
H628 H 0.13514 0.1875 0.58631 0.0
C629 C 0.04555 0.18297 0.52865 0.0
C630 C 0.06331 0.15065 0.53938 0.0
H631 H 0.04391 0.24125 0.53255 0.0
H632 H 0.01926 0.1818 0.51463 0.0
C633 C 0.09722 0.15286 0.55766 0.0
C634 C 0.62876 0.38131 0.50881 0.0
C635 C 0.61156 0.34721 0.50281 0.0
H636 H 0.62152 0.43882 0.51824 0.0
C637 C 0.57323 0.34468 0.50614 0.0
H638 H 0.6583 0.38404 0.50692 0.0
C639 C 0.5524 0.37583 0.51264 0.0
C640 C 0.56931 0.41027 0.51629 0.0
H641 H 0.55902 0.31901 0.50148 0.0
H642 H 0.52276 0.37324 0.51296 0.0
C643 C 0.6078 0.41257 0.51572 0.0
loop_
_geom_bond_atom_site_label_1
_geom_bond_atom_site_label_2
_geom_bond_distance
_geom_bond_site_symmetry_2
_ccdc_geom_bond_type
C0 C1 1.264 . S
C0 C5 1.479 . S
C0 C10 1.465 . S
C1 C0 1.264 . S
C1 C3 1.339 . S
C1 H28 0.931 . S
C2 C3 1.395 . S
C2 C4 1.320 . S
C3 C1 1.339 . S
C3 C2 1.395 . S
C3 H29 0.929 . S
C4 C2 1.320 . S
C4 C5 1.405 . S
C4 H30 0.930 . S
C5 C0 1.479 . S
C5 C4 1.405 . S
C5 H31 0.931 . S
U6 O7 2.454 . S
U6 O8 2.458 . S
U6 C9 2.984 . S
U6 C10 2.847 . S
U6 C23 2.882 . S
U6 O24 2.441 . S
U6 O25 2.420 . S
U6 O26 2.455 . S
U6 O27 2.449 . S
O7 U6 2.454 . S
O7 C9 1.353 . S
O8 U6 2.458 . S
O8 C9 1.286 . S
C9 U6 2.984 . S
C9 O7 1.353 . S
C9 O8 1.286 . S
C9 C11 1.363 . S
C10 C0 1.465 . S
C10 U6 2.847 . S
C10 O24 1.249 . S
C10 O25 1.202 . S
C11 C9 1.363 . S
C11 C13 1.408 . S
C11 C16 1.342 . S
C12 C13 1.310 . S
C12 C15 1.461 . S
C12 H32 0.932 . S
C13 C11 1.408 . S
C13 C12 1.310 . S
C13 H33 0.930 . S
C14 C15 1.474 . S
C14 C16 1.285 . S
C14 H34 0.929 . S
C15 C12 1.461 . S
C15 C14 1.474 . S
C16 C11 1.342 . S
C16 C14 1.285 . S
C16 H35 0.930 . S
C17 C20 1.424 . S
C17 C22 1.245 . S
C17 C23 1.428 . S
C18 C21 1.260 . S
C18 C22 1.477 . S
C18 H36 0.932 . S
C19 C20 1.384 . S
C19 C21 1.479 . S
C19 H37 0.929 . S
C20 C17 1.424 . S
C20 C19 1.384 . S
C20 H38 0.928 . S
C21 C18 1.260 . S
C21 C19 1.479 . S
C22 C17 1.245 . S
C22 C18 1.477 . S
C22 H39 0.932 . S
C23 U6 2.882 . S
C23 C17 1.428 . S
C23 O26 1.301 . S
C23 O27 1.282 . S
O24 U6 2.441 . S
O24 C10 1.249 . S
O25 U6 2.420 . S
O25 C10 1.202 . S
O26 U6 2.455 . S
O26 C23 1.301 . S
O27 U6 2.449 . S
O27 C23 1.282 . S
H28 C1 0.931 . S
H29 C3 0.929 . S
H30 C4 0.930 . S
H31 C5 0.931 . S
H32 C12 0.932 . S
H33 C13 0.930 . S
H34 C14 0.929 . S
H35 C16 0.930 . S
H36 C18 0.932 . S
H37 C19 0.929 . S
H38 C20 0.928 . S
H39 C22 0.932 . S
C40 C41 1.264 . S
C40 C45 1.479 . S
C40 C50 1.465 . S
C41 C40 1.264 . S
C41 C43 1.339 . S
C41 H68 0.931 . S
C42 C43 1.395 . S
C42 C44 1.320 . S
C43 C41 1.339 . S
C43 C42 1.395 . S
C43 H69 0.929 . S
C44 C42 1.320 . S
C44 C45 1.405 . S
C44 H70 0.930 . S
C45 C40 1.479 . S
C45 C44 1.405 . S
C45 H71 0.931 . S
U46 O47 2.454 . S
U46 O48 2.458 . S
U46 C49 2.984 . S
U46 C50 2.847 . S
U46 C63 2.882 . S
U46 O64 2.441 . S
U46 O65 2.420 . S
U46 O66 2.455 . S
U46 O67 2.449 . S
O47 U46 2.454 . S
O47 C49 1.353 . S
O48 U46 2.458 . S
O48 C49 1.286 . S
C49 U46 2.984 . S
C49 O47 1.353 . S
C49 O48 1.286 . S
C49 C51 1.363 . S
C50 C40 1.465 . S
C50 U46 2.847 . S
C50 O64 1.249 . S
C50 O65 1.202 . S
C51 C49 1.363 . S
C51 C53 1.408 . S
C51 C56 1.342 . S
C52 C53 1.310 . S
C52 C55 1.461 . S
C52 H72 0.932 . S
C53 C51 1.408 . S
C53 C52 1.310 . S
C53 H73 0.930 . S
C54 C55 1.474 . S
C54 C56 1.285 . S
C54 H74 0.929 . S
C55 C52 1.461 . S
C55 C54 1.474 . S
C56 C51 1.342 . S
C56 C54 1.285 . S
C56 H75 0.930 . S
C57 C60 1.424 . S
C57 C62 1.245 . S
C57 C63 1.428 . S
C58 C61 1.260 . S
C58 C62 1.477 . S
C58 H76 0.932 . S
C59 C60 1.384 . S
C59 C61 1.479 . S
C59 H77 0.929 . S
C60 C57 1.424 . S
C60 C59 1.384 . S
C60 H78 0.928 . S
C61 C58 1.260 . S
C61 C59 1.479 . S
C62 C57 1.245 . S
C62 C58 1.477 . S
C62 H79 0.932 . S
C63 U46 2.882 . S
C63 C57 1.428 . S
C63 O66 1.301 . S
C63 O67 1.282 . S
O64 U46 2.441 . S
O64 C50 1.249 . S
O65 U46 2.420 . S
O65 C50 1.202 . S
O66 U46 2.455 . S
O66 C63 1.301 . S
O67 U46 2.449 . S
O67 C63 1.282 . S
H68 C41 0.931 . S
H69 C43 0.929 . S
H70 C44 0.930 . S
H71 C45 0.931 . S
H72 C52 0.932 . S
H73 C53 0.930 . S
H74 C54 0.929 . S
H75 C56 0.930 . S
H76 C58 0.932 . S
H77 C59 0.929 . S
H78 C60 0.928 . S
H79 C62 0.932 . S
C80 C81 1.264 . S
C80 C85 1.479 . S
C80 C90 1.465 . S
C81 C80 1.264 . S
C81 C83 1.339 . S
C81 H108 0.931 . S
C82 C83 1.395 . S
C82 C84 1.320 . S
C83 C81 1.339 . S
C83 C82 1.395 . S
C83 H109 0.929 . S
C84 C82 1.320 . S
C84 C85 1.405 . S
C84 H110 0.930 . S
C85 C80 1.479 . S
C85 C84 1.405 . S
C85 H111 0.931 . S
U86 O87 2.454 . S
U86 O88 2.458 . S
U86 C89 2.984 . S
U86 C90 2.847 . S
U86 C103 2.882 . S
U86 O104 2.441 . S
U86 O105 2.420 . S
U86 O106 2.455 . S
U86 O107 2.449 . S
O87 U86 2.454 . S
O87 C89 1.353 . S
O88 U86 2.458 . S
O88 C89 1.286 . S
C89 U86 2.984 . S
C89 O87 1.353 . S
C89 O88 1.286 . S
C89 C91 1.363 . S
C90 C80 1.465 . S
C90 U86 2.847 . S
C90 O104 1.249 . S
C90 O105 1.202 . S
C91 C89 1.363 . S
C91 C93 1.408 . S
C91 C96 1.342 . S
C92 C93 1.310 . S
C92 C95 1.461 . S
C92 H112 0.932 . S
C93 C91 1.408 . S
C93 C92 1.310 . S
C93 H113 0.930 . S
C94 C95 1.474 . S
C94 C96 1.285 . S
C94 H114 0.929 . S
C95 C92 1.461 . S
C95 C94 1.474 . S
C96 C91 1.342 . S
C96 C94 1.285 . S
C96 H115 0.930 . S
C97 C100 1.424 . S
C97 C102 1.245 . S
C97 C103 1.428 . S
C98 C101 1.260 . S
C98 C102 1.477 . S
C98 H116 0.932 . S
C99 C100 1.384 . S
C99 C101 1.479 . S
C99 H117 0.929 . S
C100 C97 1.424 . S
C100 C99 1.384 . S
C100 H118 0.928 . S
C101 C98 1.260 . S
C101 C99 1.479 . S
C102 C97 1.245 . S
C102 C98 1.477 . S
C102 H119 0.932 . S
C103 U86 2.882 . S
C103 C97 1.428 . S
C103 O106 1.301 . S
C103 O107 1.282 . S
O104 U86 2.441 . S
O104 C90 1.249 . S
O105 U86 2.420 . S
O105 C90 1.202 . S
O106 U86 2.455 . S
O106 C103 1.301 . S
O107 U86 2.449 . S
O107 C103 1.282 . S
H108 C81 0.931 . S
H109 C83 0.929 . S
H110 C84 0.930 . S
H111 C85 0.931 . S
H112 C92 0.932 . S
H113 C93 0.930 . S
H114 C94 0.929 . S
H115 C96 0.930 . S
H116 C98 0.932 . S
H117 C99 0.929 . S
H118 C100 0.928 . S
H119 C102 0.932 . S
C120 C121 1.264 . S
C120 C125 1.479 . S
C120 C130 1.465 . S
C121 C120 1.264 . S
C121 C123 1.339 . S
C121 H148 0.931 . S
C122 C123 1.395 . S
C122 C124 1.320 . S
C123 C121 1.339 . S
C123 C122 1.395 . S
C123 H149 0.929 . S
C124 C122 1.320 . S
C124 C125 1.405 . S
C124 H150 0.930 . S
C125 C120 1.479 . S
C125 C124 1.405 . S
C125 H151 0.931 . S
U126 O127 2.454 . S
U126 O128 2.458 . S
U126 C129 2.984 . S
U126 C130 2.847 . S
U126 C143 2.882 . S
U126 O144 2.441 . S
U126 O145 2.420 . S
U126 O146 2.455 . S
U126 O147 2.449 . S
O127 U126 2.454 . S
O127 C129 1.353 . S
O128 U126 2.458 . S
O128 C129 1.286 . S
C129 U126 2.984 . S
C129 O127 1.353 . S
C129 O128 1.286 . S
C129 C131 1.363 . S
C130 C120 1.465 . S
C130 U126 2.847 . S
C130 O144 1.249 . S
C130 O145 1.202 . S
C131 C129 1.363 . S
C131 C133 1.408 . S
C131 C136 1.342 . S
C132 C133 1.310 . S
C132 C135 1.461 . S
C132 H152 0.932 . S
C133 C131 1.408 . S
C133 C132 1.310 . S
C133 H153 0.930 . S
C134 C135 1.474 . S
C134 C136 1.285 . S
C134 H154 0.929 . S
C135 C132 1.461 . S
C135 C134 1.474 . S
C136 C131 1.342 . S
C136 C134 1.285 . S
C136 H155 0.930 . S
C137 C140 1.424 . S
C137 C142 1.245 . S
C137 C143 1.428 . S
C138 C141 1.260 . S
C138 C142 1.477 . S
C138 H156 0.932 . S
C139 C140 1.384 . S
C139 C141 1.479 . S
C139 H157 0.929 . S
C140 C137 1.424 . S
C140 C139 1.384 . S
C140 H158 0.928 . S
C141 C138 1.260 . S
C141 C139 1.479 . S
C142 C137 1.245 . S
C142 C138 1.477 . S
C142 H159 0.932 . S
C143 U126 2.882 . S
C143 C137 1.428 . S
C143 O146 1.301 . S
C143 O147 1.282 . S
O144 U126 2.441 . S
O144 C130 1.249 . S
O145 U126 2.420 . S
O145 C130 1.202 . S
O146 U126 2.455 . S
O146 C143 1.301 . S
O147 U126 2.449 . S
O147 C143 1.282 . S
H148 C121 0.931 . S
H149 C123 0.929 . S
H150 C124 0.930 . S
H151 C125 0.931 . S
H152 C132 0.932 . S
H153 C133 0.930 . S
H154 C134 0.929 . S
H155 C136 0.930 . S
H156 C138 0.932 . S
H157 C139 0.929 . S
H158 C140 0.928 . S
H159 C142 0.932 . S
C160 C161 1.264 1_655 S
C160 C165 1.479 . S
C160 C170 1.465 . S
C161 C160 1.264 1_455 S
C161 C163 1.339 . S
C161 H188 0.931 . S
C162 C163 1.395 . S
C162 C164 1.320 1_456 S
C163 C161 1.339 . S
C163 C162 1.395 . S
C163 H189 0.929 . S
C164 C162 1.320 1_654 S
C164 C165 1.405 1_554 S
C164 H190 0.930 . S
C165 C160 1.479 . S
C165 C164 1.405 1_556 S
C165 H191 0.931 1_556 S
U166 O167 2.454 . S
U166 O168 2.458 . S
U166 C169 2.984 . S
U166 C170 2.847 . S
U166 C183 2.882 . S
U166 O184 2.441 . S
U166 O185 2.420 . S
U166 O186 2.455 . S
U166 O187 2.449 . S
O167 U166 2.454 . S
O167 C169 1.353 . S
O168 U166 2.458 . S
O168 C169 1.286 . S
C169 U166 2.984 . S
C169 O167 1.353 . S
C169 O168 1.286 . S
C169 C171 1.363 . S
C170 C160 1.465 . S
C170 U166 2.847 . S
C170 O184 1.249 . S
C170 O185 1.202 . S
C171 C169 1.363 . S
C171 C173 1.408 1_556 S
C171 C176 1.342 1_565 S
C172 C173 1.310 . S
C172 C175 1.461 1_565 S
C172 H192 0.932 . S
C173 C171 1.408 1_554 S
C173 C172 1.310 . S
C173 H193 0.930 . S
C174 C175 1.474 1_556 S
C174 C176 1.285 . S
C174 H194 0.929 . S
C175 C172 1.461 1_545 S
C175 C174 1.474 1_554 S
C176 C171 1.342 1_545 S
C176 C174 1.285 . S
C176 H195 0.930 . S
C177 C180 1.424 . S
C177 C182 1.250 . S
C177 C183 1.428 . S
C178 C181 1.260 1_655 S
C178 C182 1.475 1_545 S
C178 H196 0.932 . S
C179 C180 1.384 1_455 S
C179 C181 1.479 1_565 S
C179 H197 0.929 . S
C180 C177 1.424 . S
C180 C179 1.384 1_655 S
C180 H198 0.928 1_655 S
C181 C178 1.260 1_455 S
C181 C179 1.479 1_545 S
C182 C177 1.250 . S
C182 C178 1.475 1_565 S
C182 H199 0.929 1_565 S
C183 U166 2.882 . S
C183 C177 1.428 . S
C183 O186 1.301 . S
C183 O187 1.282 . S
O184 U166 2.441 . S
O184 C170 1.249 . S
O185 U166 2.420 . S
O185 C170 1.202 . S
O186 U166 2.455 . S
O186 C183 1.301 . S
O187 U166 2.449 . S
O187 C183 1.282 . S
H188 C161 0.931 . S
H189 C163 0.929 . S
H190 C164 0.930 . S
H191 C165 0.931 1_554 S
H192 C172 0.932 . S
H193 C173 0.930 . S
H194 C174 0.929 . S
H195 C176 0.930 . S
H196 C178 0.932 . S
H197 C179 0.929 . S
H198 C180 0.928 1_455 S
H199 C182 0.929 1_545 S
C200 C201 1.264 . S
C200 C205 1.479 . S
C200 C210 1.465 . S
C201 C200 1.264 . S
C201 C203 1.339 . S
C201 H228 0.931 . S
C202 C203 1.395 . S
C202 C204 1.320 . S
C203 C201 1.339 . S
C203 C202 1.395 . S
C203 H229 0.929 . S
C204 C202 1.320 . S
C204 C205 1.405 . S
C204 H230 0.930 . S
C205 C200 1.479 . S
C205 C204 1.405 . S
C205 H231 0.931 . S
U206 O207 2.454 . S
U206 O208 2.458 . S
U206 C209 2.984 . S
U206 C210 2.847 . S
U206 C223 2.882 . S
U206 O224 2.441 . S
U206 O225 2.420 . S
U206 O226 2.455 . S
U206 O227 2.449 . S
O207 U206 2.454 . S
O207 C209 1.353 . S
O208 U206 2.458 . S
O208 C209 1.286 . S
C209 U206 2.984 . S
C209 O207 1.353 . S
C209 O208 1.286 . S
C209 C211 1.363 . S
C210 C200 1.465 . S
C210 U206 2.847 . S
C210 O224 1.249 . S
C210 O225 1.202 . S
C211 C209 1.363 . S
C211 C213 1.408 . S
C211 C216 1.342 . S
C212 C213 1.310 . S
C212 C215 1.461 . S
C212 H232 0.932 . S
C213 C211 1.408 . S
C213 C212 1.310 . S
C213 H233 0.930 . S
C214 C215 1.474 . S
C214 C216 1.285 . S
C214 H234 0.929 . S
C215 C212 1.461 . S
C215 C214 1.474 . S
C216 C211 1.342 . S
C216 C214 1.285 . S
C216 H235 0.930 . S
C217 C220 1.424 . S
C217 C222 1.245 . S
C217 C223 1.428 . S
C218 C221 1.260 . S
C218 C222 1.477 . S
C218 H236 0.932 . S
C219 C220 1.384 . S
C219 C221 1.479 . S
C219 H237 0.929 . S
C220 C217 1.424 . S
C220 C219 1.384 . S
C220 H238 0.928 . S
C221 C218 1.260 . S
C221 C219 1.479 . S
C222 C217 1.245 . S
C222 C218 1.477 . S
C222 H239 0.932 . S
C223 U206 2.882 . S
C223 C217 1.428 . S
C223 O226 1.301 . S
C223 O227 1.282 . S
O224 U206 2.441 . S
O224 C210 1.249 . S
O225 U206 2.420 . S
O225 C210 1.202 . S
O226 U206 2.455 . S
O226 C223 1.301 . S
O227 U206 2.449 . S
O227 C223 1.282 . S
H228 C201 0.931 . S
H229 C203 0.929 . S
H230 C204 0.930 . S
H231 C205 0.931 . S
H232 C212 0.932 . S
H233 C213 0.930 . S
H234 C214 0.929 . S
H235 C216 0.930 . S
H236 C218 0.932 . S
H237 C219 0.929 . S
H238 C220 0.928 . S
H239 C222 0.932 . S
C240 C241 1.264 . S
C240 C245 1.479 . S
C240 C250 1.465 . S
C241 C240 1.264 . S
C241 C243 1.339 . S
C241 H268 0.931 . S
C242 C243 1.395 . S
C242 C244 1.320 . S
C243 C241 1.339 . S
C243 C242 1.395 . S
C243 H269 0.929 1_554 S
C244 C242 1.320 . S
C244 C245 1.405 . S
C244 H270 0.930 . S
C245 C240 1.479 . S
C245 C244 1.405 . S
C245 H271 0.931 . S
U246 O247 2.454 . S
U246 O248 2.458 . S
U246 C249 2.984 . S
U246 C250 2.847 . S
U246 C263 2.882 . S
U246 O264 2.441 . S
U246 O265 2.420 . S
U246 O266 2.455 . S
U246 O267 2.449 . S
O247 U246 2.454 . S
O247 C249 1.353 . S
O248 U246 2.458 . S
O248 C249 1.286 . S
C249 U246 2.984 . S
C249 O247 1.353 . S
C249 O248 1.286 . S
C249 C251 1.363 . S
C250 C240 1.465 . S
C250 U246 2.847 . S
C250 O264 1.249 . S
C250 O265 1.202 . S
C251 C249 1.363 . S
C251 C253 1.408 . S
C251 C256 1.342 . S
C252 C253 1.310 . S
C252 C255 1.461 . S
C252 H272 0.932 . S
C253 C251 1.408 . S
C253 C252 1.310 . S
C253 H273 0.930 . S
C254 C255 1.474 . S
C254 C256 1.285 . S
C254 H274 0.929 . S
C255 C252 1.461 . S
C255 C254 1.474 . S
C256 C251 1.342 . S
C256 C254 1.285 . S
C256 H275 0.930 . S
C257 C260 1.424 . S
C257 C262 1.245 . S
C257 C263 1.428 . S
C258 C261 1.260 . S
C258 C262 1.477 . S
C258 H276 0.932 . S
C259 C260 1.384 . S
C259 C261 1.479 . S
C259 H277 0.944 . S
C260 C257 1.424 . S
C260 C259 1.384 . S
C260 H278 0.928 . S
C261 C258 1.260 . S
C261 C259 1.479 . S
C262 C257 1.245 . S
C262 C258 1.477 . S
C262 H279 0.932 . S
C263 U246 2.882 . S
C263 C257 1.428 . S
C263 O266 1.301 . S
C263 O267 1.282 . S
O264 U246 2.441 . S
O264 C250 1.249 . S
O265 U246 2.420 . S
O265 C250 1.202 . S
O266 U246 2.455 . S
O266 C263 1.301 . S
O267 U246 2.449 . S
O267 C263 1.282 . S
H268 C241 0.931 . S
H269 C243 0.929 1_556 S
H270 C244 0.930 . S
H271 C245 0.931 . S
H272 C252 0.932 . S
H273 C253 0.930 . S
H274 C254 0.929 . S
H275 C256 0.930 . S
H276 C258 0.932 . S
H277 C259 0.944 . S
H278 C260 0.928 . S
H279 C262 0.932 . S
C280 C281 1.264 . S
C280 C285 1.479 . S
C280 C290 1.465 . S
C281 C280 1.264 . S
C281 C283 1.339 . S
C281 H308 0.931 . S
C282 C283 1.395 . S
C282 C284 1.320 . S
C283 C281 1.339 . S
C283 C282 1.395 . S
C283 H309 0.929 . S
C284 C282 1.320 . S
C284 C285 1.405 . S
C284 H310 0.930 1_455 S
C285 C280 1.479 . S
C285 C284 1.405 . S
C285 H311 0.931 . S
U286 O287 2.454 . S
U286 O288 2.458 . S
U286 C289 2.984 . S
U286 C290 2.847 . S
U286 C303 2.882 . S
U286 O304 2.441 . S
U286 O305 2.420 . S
U286 O306 2.455 . S
U286 O307 2.449 . S
O287 U286 2.454 . S
O287 C289 1.353 . S
O288 U286 2.458 . S
O288 C289 1.286 . S
C289 U286 2.984 . S
C289 O287 1.353 . S
C289 O288 1.286 . S
C289 C291 1.363 . S
C290 C280 1.465 . S
C290 U286 2.847 . S
C290 O304 1.249 . S
C290 O305 1.202 . S
C291 C289 1.363 . S
C291 C293 1.408 . S
C291 C296 1.342 . S
C292 C293 1.310 . S
C292 C295 1.461 . S
C292 H312 0.930 . S
C293 C291 1.408 . S
C293 C292 1.310 . S
C293 H313 0.930 . S
C294 C295 1.474 . S
C294 C296 1.285 . S
C294 H314 0.929 . S
C295 C292 1.461 . S
C295 C294 1.474 . S
C296 C291 1.342 . S
C296 C294 1.285 . S
C296 H315 0.930 . S
C297 C300 1.424 . S
C297 C302 1.245 . S
C297 C303 1.428 . S
C298 C301 1.260 . S
C298 C302 1.477 . S
C298 H316 0.932 . S
C299 C300 1.384 . S
C299 C301 1.479 . S
C299 H317 0.929 . S
C300 C297 1.424 . S
C300 C299 1.384 . S
C300 H318 0.928 . S
C301 C298 1.260 . S
C301 C299 1.479 . S
C302 C297 1.245 . S
C302 C298 1.477 . S
C302 H319 0.932 . S
C303 U286 2.882 . S
C303 C297 1.428 . S
C303 O306 1.301 . S
C303 O307 1.282 . S
O304 U286 2.441 . S
O304 C290 1.249 . S
O305 U286 2.420 . S
O305 C290 1.202 . S
O306 U286 2.455 . S
O306 C303 1.301 . S
O307 U286 2.449 . S
O307 C303 1.282 . S
H308 C281 0.931 . S
H309 C283 0.929 . S
H310 C284 0.930 1_655 S
H311 C285 0.931 . S
H312 C292 0.930 . S
H313 C293 0.930 . S
H314 C294 0.929 . S
H315 C296 0.930 . S
H316 C298 0.932 . S
H317 C299 0.929 . S
H318 C300 0.928 . S
H319 C302 0.932 . S
Zn320 O326 1.920 . S
Zn320 O332 1.898 . S
Zn320 O335 1.905 . S
Zn321 O329 1.905 1_565 S
Zn321 O330 1.898 . S
Zn321 O338 1.920 . S
Zn322 O325 2.080 1_455 S
Zn322 O328 2.114 . S
Zn322 O331 2.120 1_445 S
Zn322 O333 2.120 . S
Zn322 O334 2.114 1_455 S
Zn322 O337 2.080 . S
C323 O328 1.166 . S
C323 O329 1.182 . S
C324 O330 1.167 1_655 S
C324 O331 1.299 . S
O325 Zn322 2.080 1_655 S
O325 C339 1.305 . S
O326 Zn320 1.920 . S
O326 C339 1.234 . S
C327 O332 1.167 1_455 S
C327 O333 1.299 . S
O328 Zn322 2.114 . S
O328 C323 1.166 . S
O329 Zn321 1.905 1_545 S
O329 C323 1.182 . S
O330 Zn321 1.898 . S
O330 C324 1.167 1_455 S
O331 Zn322 2.120 1_665 S
O331 C324 1.299 . S
O332 Zn320 1.898 . S
O332 C327 1.167 1_655 S
O333 Zn322 2.120 . S
O333 C327 1.299 . S
O334 Zn322 2.114 1_655 S
O334 C336 1.166 . S
O335 Zn320 1.905 . S
O335 C336 1.182 . S
C336 O334 1.166 . S
C336 O335 1.182 . S
O337 Zn322 2.080 . S
O337 C340 1.305 1_545 S
O338 Zn321 1.920 . S
O338 C340 1.234 . S
C339 O325 1.305 . S
C339 O326 1.234 . S
C340 O337 1.305 1_565 S
C340 O338 1.234 . S
Zn341 O347 1.920 1_556 S
Zn341 O353 1.898 . S
Zn341 O356 1.905 . S
Zn342 O350 1.905 . S
Zn342 O351 1.898 . S
Zn342 O359 1.920 . S
Zn343 O346 2.080 . S
Zn343 O349 2.114 1_545 S
Zn343 O352 2.120 1_545 S
Zn343 O354 2.120 . S
Zn343 O355 2.114 1_544 S
Zn343 O358 2.080 . S
C344 O349 1.166 . S
C344 O350 1.182 . S
C345 O351 1.167 . S
C345 O352 1.299 . S
O346 Zn343 2.080 . S
O346 C360 1.305 . S
O347 Zn341 1.920 1_554 S
O347 C360 1.234 . S
C348 O353 1.167 . S
C348 O354 1.299 1_556 S
O349 Zn343 2.114 1_565 S
O349 C344 1.166 . S
O350 Zn342 1.905 . S
O350 C344 1.182 . S
O351 Zn342 1.898 . S
O351 C345 1.167 . S
O352 Zn343 2.120 1_565 S
O352 C345 1.299 . S
O353 Zn341 1.898 . S
O353 C348 1.167 . S
O354 Zn343 2.120 . S
O354 C348 1.299 1_554 S
O355 Zn343 2.114 1_566 S
O355 C357 1.166 . S
O356 Zn341 1.905 . S
O356 C357 1.182 1_545 S
C357 O355 1.166 . S
C357 O356 1.182 1_565 S
O358 Zn343 2.080 . S
O358 C361 1.305 . S
O359 Zn342 1.920 . S
O359 C361 1.234 1_565 S
C360 O346 1.305 . S
C360 O347 1.234 . S
C361 O358 1.305 . S
C361 O359 1.234 1_545 S
Zn362 O368 1.920 . S
Zn362 O374 1.898 . S
Zn362 O377 1.905 . S
Zn363 O371 1.905 . S
Zn363 O372 1.898 . S
Zn363 O380 1.920 . S
Zn364 O367 2.080 . S
Zn364 O370 2.114 . S
Zn364 O373 2.120 . S
Zn364 O375 2.120 . S
Zn364 O376 2.114 . S
Zn364 O379 2.080 . S
C365 O370 1.166 . S
C365 O371 1.182 . S
C366 O372 1.167 . S
C366 O373 1.299 . S
O367 Zn364 2.080 . S
O367 C381 1.305 . S
O368 Zn362 1.920 . S
O368 C381 1.234 . S
C369 O374 1.167 . S
C369 O375 1.299 . S
O370 Zn364 2.114 . S
O370 C365 1.166 . S
O371 Zn363 1.905 . S
O371 C365 1.182 . S
O372 Zn363 1.898 . S
O372 C366 1.167 . S
O373 Zn364 2.120 . S
O373 C366 1.299 . S
O374 Zn362 1.898 . S
O374 C369 1.167 . S
O375 Zn364 2.120 . S
O375 C369 1.299 . S
O376 Zn364 2.114 . S
O376 C378 1.166 . S
O377 Zn362 1.905 . S
O377 C378 1.182 . S
C378 O376 1.166 . S
C378 O377 1.182 . S
O379 Zn364 2.080 . S
O379 C382 1.305 . S
O380 Zn363 1.920 . S
O380 C382 1.234 . S
C381 O367 1.305 . S
C381 O368 1.234 . S
C382 O379 1.305 . S
C382 O380 1.234 . S
Zn383 O389 1.920 . S
Zn383 O395 1.898 . S
Zn383 O398 1.905 . S
Zn384 O392 1.905 1_655 S
Zn384 O393 1.898 . S
Zn384 O401 1.920 . S
Zn385 O388 2.080 1_554 S
Zn385 O391 2.114 . S
Zn385 O394 2.120 1_454 S
Zn385 O396 2.120 . S
Zn385 O397 2.114 1_554 S
Zn385 O400 2.080 . S
C386 O391 1.166 . S
C386 O392 1.182 . S
C387 O393 1.167 1_556 S
C387 O394 1.299 . S
O388 Zn385 2.080 1_556 S
O388 C402 1.305 . S
O389 Zn383 1.920 . S
O389 C402 1.234 . S
C390 O395 1.167 1_554 S
C390 O396 1.299 . S
O391 Zn385 2.114 . S
O391 C386 1.166 . S
O392 Zn384 1.905 1_455 S
O392 C386 1.182 . S
O393 Zn384 1.898 . S
O393 C387 1.167 1_554 S
O394 Zn385 2.120 1_656 S
O394 C387 1.299 . S
O395 Zn383 1.898 . S
O395 C390 1.167 1_556 S
O396 Zn385 2.120 . S
O396 C390 1.299 . S
O397 Zn385 2.114 1_556 S
O397 C399 1.166 . S
O398 Zn383 1.905 . S
O398 C399 1.182 . S
C399 O397 1.166 . S
C399 O398 1.182 . S
O400 Zn385 2.080 . S
O400 C403 1.305 1_455 S
O401 Zn384 1.920 . S
O401 C403 1.234 . S
C402 O388 1.305 . S
C402 O389 1.234 . S
C403 O400 1.305 1_655 S
C403 O401 1.234 . S
C404 C405 1.387 . S
C404 H408 0.950 . S
C404 C413 1.390 . S
C405 C404 1.387 . S
C405 C407 1.387 . S
H406 C413 0.950 . S
C407 C405 1.387 . S
C407 C409 1.390 . S
C407 H411 0.950 . S
H408 C404 0.950 . S
C409 C407 1.390 . S
C409 C410 1.387 . S
C409 H412 0.950 . S
C410 C409 1.387 . S
C410 C413 1.387 . S
H411 C407 0.950 . S
H412 C409 0.950 . S
C413 C404 1.390 . S
C413 H406 0.950 . S
C413 C410 1.387 . S
C414 C415 1.387 . S
C414 H418 0.950 . S
C414 C423 1.390 . S
C415 C414 1.387 . S
C415 C417 1.387 . S
H416 C423 0.950 . S
C417 C415 1.387 . S
C417 C419 1.390 . S
C417 H421 0.950 . S
H418 C414 0.950 . S
C419 C417 1.390 . S
C419 C420 1.387 . S
C419 H422 0.950 . S
C420 C419 1.387 . S
C420 C423 1.387 . S
H421 C417 0.950 . S
H422 C419 0.950 . S
C423 C414 1.390 . S
C423 H416 0.950 . S
C423 C420 1.387 . S
C424 C425 1.387 . S
C424 H428 0.950 . S
C424 C433 1.390 . S
C425 C424 1.387 . S
C425 C427 1.387 . S
H426 C433 0.950 . S
C427 C425 1.387 . S
C427 C429 1.390 . S
C427 H431 0.950 . S
H428 C424 0.950 . S
C429 C427 1.390 . S
C429 C430 1.387 . S
C429 H432 0.950 . S
C430 C429 1.387 . S
C430 C433 1.387 . S
H431 C427 0.950 . S
H432 C429 0.950 . S
C433 C424 1.390 . S
C433 H426 0.950 . S
C433 C430 1.387 . S
C434 C435 1.387 . S
C434 H438 0.950 . S
C434 C443 1.390 . S
C435 C434 1.387 . S
C435 C437 1.387 . S
H436 C443 0.950 . S
C437 C435 1.387 . S
C437 C439 1.390 . S
C437 H441 0.950 . S
H438 C434 0.950 . S
C439 C437 1.390 . S
C439 C440 1.387 . S
C439 H442 0.950 . S
C440 C439 1.387 . S
C440 C443 1.387 . S
H441 C437 0.950 . S
H442 C439 0.950 . S
C443 C434 1.390 . S
C443 H436 0.950 . S
C443 C440 1.387 . S
C444 C445 1.387 . S
C444 H448 0.950 . S
C444 C453 1.390 . S
C445 C444 1.387 . S
C445 C447 1.387 . S
H446 C453 0.950 . S
C447 C445 1.387 . S
C447 C449 1.390 . S
C447 H451 0.950 . S
H448 C444 0.950 . S
C449 C447 1.390 . S
C449 C450 1.387 . S
C449 H452 0.950 . S
C450 C449 1.387 . S
C450 C453 1.387 . S
H451 C447 0.950 . S
H452 C449 0.950 . S
C453 C444 1.390 . S
C453 H446 0.950 . S
C453 C450 1.387 . S
C454 C455 1.387 . S
C454 H458 0.950 . S
C454 C463 1.390 . S
C455 C454 1.387 . S
C455 C457 1.387 . S
H456 C463 0.950 . S
C457 C455 1.387 . S
C457 C459 1.390 . S
C457 H461 0.950 . S
H458 C454 0.950 . S
C459 C457 1.390 . S
C459 C460 1.387 . S
C459 H462 0.950 . S
C460 C459 1.387 . S
C460 C463 1.387 . S
H461 C457 0.950 . S
H462 C459 0.950 . S
C463 C454 1.390 . S
C463 H456 0.950 . S
C463 C460 1.387 . S
C464 C465 1.387 . S
C464 H468 0.950 . S
C464 C473 1.390 . S
C465 C464 1.387 . S
C465 C467 1.387 . S
H466 C473 0.950 . S
C467 C465 1.387 . S
C467 C469 1.390 . S
C467 H471 0.950 . S
H468 C464 0.950 . S
C469 C467 1.390 . S
C469 C470 1.387 . S
C469 H472 0.950 . S
C470 C469 1.387 . S
C470 C473 1.387 . S
H471 C467 0.950 . S
H472 C469 0.950 . S
C473 C464 1.390 . S
C473 H466 0.950 . S
C473 C470 1.387 . S
C474 C475 1.387 . S
C474 H478 0.950 . S
C474 C483 1.390 . S
C475 C474 1.387 . S
C475 C477 1.387 . S
H476 C483 0.950 . S
C477 C475 1.387 . S
C477 C479 1.390 . S
C477 H481 0.950 . S
H478 C474 0.950 . S
C479 C477 1.390 . S
C479 C480 1.387 . S
C479 H482 0.950 . S
C480 C479 1.387 . S
C480 C483 1.387 . S
H481 C477 0.950 . S
H482 C479 0.950 . S
C483 C474 1.390 . S
C483 H476 0.950 . S
C483 C480 1.387 . S
C484 C485 1.387 . S
C484 H488 0.950 . S
C484 C493 1.390 . S
C485 C484 1.387 . S
C485 C487 1.387 . S
H486 C493 0.950 . S
C487 C485 1.387 . S
C487 C489 1.390 . S
C487 H491 0.950 . S
H488 C484 0.950 . S
C489 C487 1.390 . S
C489 C490 1.387 . S
C489 H492 0.950 . S
C490 C489 1.387 . S
C490 C493 1.387 . S
H491 C487 0.950 . S
H492 C489 0.950 . S
C493 C484 1.390 . S
C493 H486 0.950 . S
C493 C490 1.387 . S
C494 C495 1.387 . S
C494 H498 0.950 . S
C494 C503 1.390 . S
C495 C494 1.387 . S
C495 C497 1.387 . S
H496 C503 0.950 . S
C497 C495 1.387 . S
C497 C499 1.390 . S
C497 H501 0.950 . S
H498 C494 0.950 . S
C499 C497 1.390 . S
C499 C500 1.387 . S
C499 H502 0.950 1_556 S
C500 C499 1.387 . S
C500 C503 1.387 . S
H501 C497 0.950 . S
H502 C499 0.950 1_554 S
C503 C494 1.390 . S
C503 H496 0.950 . S
C503 C500 1.387 . S
C504 C505 1.387 . S
C504 H508 0.950 . S
C504 C513 1.390 . S
C505 C504 1.387 . S
C505 C507 1.387 . S
H506 C513 0.950 . S
C507 C505 1.387 . S
C507 C509 1.390 . S
C507 H511 0.950 . S
H508 C504 0.950 . S
C509 C507 1.390 . S
C509 C510 1.387 . S
C509 H512 0.950 . S
C510 C509 1.387 . S
C510 C513 1.387 . S
H511 C507 0.950 . S
H512 C509 0.950 . S
C513 C504 1.390 . S
C513 H506 0.950 . S
C513 C510 1.387 . S
C514 C515 1.387 . S
C514 H518 0.950 . S
C514 C523 1.390 . S
C515 C514 1.387 . S
C515 C517 1.387 . S
H516 C523 0.950 . S
C517 C515 1.387 . S
C517 C519 1.390 . S
C517 H521 0.950 . S
H518 C514 0.950 . S
C519 C517 1.390 . S
C519 C520 1.387 . S
C519 H522 0.950 . S
C520 C519 1.387 . S
C520 C523 1.387 . S
H521 C517 0.950 . S
H522 C519 0.950 . S
C523 C514 1.390 . S
C523 H516 0.950 . S
C523 C520 1.387 . S
C524 C525 1.387 1_565 S
C524 H528 0.950 . S
C524 C533 1.390 . S
C525 C524 1.387 1_545 S
C525 C527 1.387 . S
H526 C533 0.950 1_655 S
C527 C525 1.387 . S
C527 C529 1.390 1_455 S
C527 H531 0.950 . S
H528 C524 0.950 . S
C529 C527 1.390 1_655 S
C529 C530 1.387 . S
C529 H532 0.950 . S
C530 C529 1.387 . S
C530 C533 1.387 1_645 S
H531 C527 0.950 . S
H532 C529 0.950 . S
C533 C524 1.390 . S
C533 H526 0.950 1_455 S
C533 C530 1.387 1_465 S
C534 C535 1.387 1_565 S
C534 H538 0.950 . S
C534 C543 1.390 . S
C535 C534 1.387 1_545 S
C535 C537 1.387 . S
H536 C543 0.950 . S
C537 C535 1.387 . S
C537 C539 1.390 . S
C537 H541 0.950 . S
H538 C534 0.950 . S
C539 C537 1.390 . S
C539 C540 1.387 . S
C539 H542 0.950 . S
C540 C539 1.387 . S
C540 C543 1.387 1_545 S
H541 C537 0.950 . S
H542 C539 0.950 . S
C543 C534 1.390 . S
C543 H536 0.950 . S
C543 C540 1.387 1_565 S
C544 C545 1.387 . S
C544 H548 0.950 . S
C544 C553 1.390 . S
C545 C544 1.387 . S
C545 C547 1.387 . S
H546 C553 0.950 . S
C547 C545 1.387 . S
C547 C549 1.390 . S
C547 H551 0.950 . S
H548 C544 0.950 . S
C549 C547 1.390 . S
C549 C550 1.387 . S
C549 H552 0.950 . S
C550 C549 1.387 . S
C550 C553 1.387 . S
H551 C547 0.950 . S
H552 C549 0.950 . S
C553 C544 1.390 . S
C553 H546 0.950 . S
C553 C550 1.387 . S
C554 C555 1.387 . S
C554 H558 0.950 . S
C554 C563 1.390 . S
C555 C554 1.387 . S
C555 C557 1.387 . S
H556 C563 0.950 . S
C557 C555 1.387 . S
C557 C559 1.390 . S
C557 H561 0.950 . S
H558 C554 0.950 . S
C559 C557 1.390 . S
C559 C560 1.387 . S
C559 H562 0.950 . S
C560 C559 1.387 . S
C560 C563 1.387 . S
H561 C557 0.950 . S
H562 C559 0.950 . S
C563 C554 1.390 . S
C563 H556 0.950 . S
C563 C560 1.387 . S
C564 C565 1.387 1_565 S
C564 H568 0.950 . S
C564 C573 1.390 . S
C565 C564 1.387 1_545 S
C565 C567 1.387 1_554 S
H566 C573 0.950 . S
C567 C565 1.387 1_556 S
C567 C569 1.390 . S
C567 H571 0.950 . S
H568 C564 0.950 . S
C569 C567 1.390 . S
C569 C570 1.387 1_546 S
C569 H572 0.950 . S
C570 C569 1.387 1_564 S
C570 C573 1.387 . S
H571 C567 0.950 . S
H572 C569 0.950 . S
C573 C564 1.390 . S
C573 H566 0.950 . S
C573 C570 1.387 . S
C574 C575 1.387 . S
C574 H578 0.950 . S
C574 C583 1.390 . S
C575 C574 1.387 . S
C575 C577 1.387 . S
H576 C583 0.950 . S
C577 C575 1.387 . S
C577 C579 1.390 . S
C577 H581 0.950 . S
H578 C574 0.950 . S
C579 C577 1.390 . S
C579 C580 1.387 . S
C579 H582 0.950 . S
C580 C579 1.387 . S
C580 C583 1.387 . S
H581 C577 0.950 . S
H582 C579 0.950 . S
C583 C574 1.390 . S
C583 H576 0.950 . S
C583 C580 1.387 . S
C584 C585 1.387 . S
C584 H588 0.950 . S
C584 C593 1.390 . S
C585 C584 1.387 . S
C585 C587 1.387 1_554 S
H586 C593 0.950 . S
C587 C585 1.387 1_556 S
C587 C589 1.390 . S
C587 H591 0.950 . S
H588 C584 0.950 . S
C589 C587 1.390 . S
C589 C590 1.387 1_556 S
C589 H592 0.950 . S
C590 C589 1.387 1_554 S
C590 C593 1.387 . S
H591 C587 0.950 . S
H592 C589 0.950 . S
C593 C584 1.390 . S
C593 H586 0.950 . S
C593 C590 1.387 . S
C594 C595 1.387 . S
C594 H598 0.950 . S
C594 C603 1.390 . S
C595 C594 1.387 . S
C595 C597 1.387 . S
H596 C603 0.950 . S
C597 C595 1.387 . S
C597 C599 1.390 . S
C597 H601 0.950 . S
H598 C594 0.950 . S
C599 C597 1.390 . S
C599 C600 1.387 . S
C599 H602 0.950 . S
C600 C599 1.387 . S
C600 C603 1.387 . S
H601 C597 0.950 . S
H602 C599 0.950 . S
C603 C594 1.390 . S
C603 H596 0.950 . S
C603 C600 1.387 . S
C604 C605 1.387 1_554 S
C604 H608 0.950 . S
C604 C613 1.390 . S
C605 C604 1.387 1_556 S
C605 C607 1.387 . S
H606 C613 0.950 . S
C607 C605 1.387 . S
C607 C609 1.391 . S
C607 H611 0.950 1_455 S
H608 C604 0.950 . S
C609 C607 1.391 . S
C609 C610 1.392 . S
C609 H612 0.944 1_455 S
C610 C609 1.392 . S
C610 C613 1.387 1_556 S
H611 C607 0.950 1_655 S
H612 C609 0.944 1_655 S
C613 C604 1.390 . S
C613 H606 0.950 . S
C613 C610 1.387 1_554 S
C614 C615 1.387 . S
C614 H618 0.950 . S
C614 C623 1.390 . S
C615 C614 1.387 . S
C615 C617 1.387 . S
H616 C623 0.950 . S
C617 C615 1.387 . S
C617 C619 1.390 . S
C617 H621 0.950 1_554 S
H618 C614 0.950 . S
C619 C617 1.390 . S
C619 C620 1.387 . S
C619 H622 0.950 1_554 S
C620 C619 1.387 . S
C620 C623 1.387 . S
H621 C617 0.950 1_556 S
H622 C619 0.950 1_556 S
C623 C614 1.390 . S
C623 H616 0.950 . S
C623 C620 1.387 . S
C624 C625 1.387 . S
C624 H628 0.950 . S
C624 C633 1.390 . S
C625 C624 1.387 . S
C625 C627 1.387 1_455 S
H626 C633 0.950 . S
C627 C625 1.387 1_655 S
C627 C629 1.390 . S
C627 H631 0.950 . S
H628 C624 0.950 . S
C629 C627 1.390 . S
C629 C630 1.387 1_655 S
C629 H632 0.950 . S
C630 C629 1.387 1_455 S
C630 C633 1.387 . S
H631 C627 0.950 . S
H632 C629 0.950 . S
C633 C624 1.390 . S
C633 H626 0.950 . S
C633 C630 1.387 . S
C634 C635 1.387 . S
C634 H638 0.950 . S
C634 C643 1.390 . S
C635 C634 1.387 . S
C635 C637 1.387 . S
H636 C643 0.950 . S
C637 C635 1.387 . S
C637 C639 1.390 . S
C637 H641 0.950 . S
H638 C634 0.950 . S
C639 C637 1.390 . S
C639 C640 1.387 . S
C639 H642 0.950 . S
C640 C639 1.387 . S
C640 C643 1.387 . S
H641 C637 0.950 . S
H642 C639 0.950 . S
C643 C634 1.390 . S
C643 H636 0.950 . S
C643 C640 1.387 . S
C405 C21 1.556 . S
C410 C323 1.467 . S
C415 C61 1.522 . S
C420 C357 1.428 . S
C430 C369 1.356 . S
C425 C82 1.438 . S
C435 C135 1.520 . S
C440 C403 1.430 . S
C450 C360 1.432 . S
C445 C15 1.534 . S
C460 C340 1.445 . S
C455 C42 1.517 . S
C470 C387 1.406 . S
C465 C101 1.485 . S
C480 C378 1.396 . S
C475 C122 1.473 . S
C485 C2 1.550 . S
C490 C386 1.449 . S
C500 C348 1.381 . S
C495 C95 1.465 . S
C505 C141 1.514 . S
C510 C324 1.418 . S
C515 C55 1.507 . S
C520 C381 1.407 . S
C530 C339 1.803 . S
C525 C181 1.766 . S
C535 C202 1.732 . S
C540 C361 1.764 . S
C545 C255 1.830 . S
C550 C366 1.788 . S
C555 C295 1.843 . S
C560 C399 1.788 . S
C565 C175 1.832 . S
C570 C344 1.805 . S
C580 C336 1.820 . S
C575 C221 1.776 . S
C590 C390 1.772 . S
C585 C242 1.735 . S
C600 C382 1.796 . S
C595 C301 1.930 . S
C605 C162 1.722 . S
C610 C402 1.754 . S
C620 C345 1.796 . S
C615 C261 1.748 . S
C630 C327 1.778 . S
C625 C282 1.887 . S
C635 C215 1.848 . S
C640 C365 1.811 . S
