# Generated by pormake.
# Topology apo, (3,6)-cn, num edge types: 1
# Building blocks:
#     Node 0, Type 0, BuildingBlock: OLANEW_clean_sbu_2, # of connection points: 3
#     Node 1, Type 0, BuildingBlock: OLANEW_clean_sbu_2, # of connection points: 3
#     Node 2, Type 0, BuildingBlock: OLANEW_clean_sbu_2, # of connection points: 3
#     Node 3, Type 0, BuildingBlock: OLANEW_clean_sbu_2, # of connection points: 3
#     Node 4, Type 0, BuildingBlock: OLANEW_clean_sbu_2, # of connection points: 3
#     Node 5, Type 0, BuildingBlock: OLANEW_clean_sbu_2, # of connection points: 3
#     Node 6, Type 0, BuildingBlock: OLANEW_clean_sbu_2, # of connection points: 3
#     Node 7, Type 0, BuildingBlock: OLANEW_clean_sbu_2, # of connection points: 3
#     Node 8, Type 1, BuildingBlock: KUMBUR_clean_sbu_1, # of connection points: 6
#     Node 9, Type 1, BuildingBlock: KUMBUR_clean_sbu_1, # of connection points: 6
#     Node 10, Type 1, BuildingBlock: KUMBUR_clean_sbu_1, # of connection points: 6
#     Node 11, Type 1, BuildingBlock: KUMBUR_clean_sbu_1, # of connection points: 6
#     Edge 12, Type (0, 1), BuildingBlock: XIVTED_clean_linker_0, # of connection points: 2
#     Edge 13, Type (0, 1), BuildingBlock: XIVTED_clean_linker_0, # of connection points: 2
#     Edge 14, Type (0, 1), BuildingBlock: XIVTED_clean_linker_0, # of connection points: 2
#     Edge 15, Type (0, 1), BuildingBlock: XIVTED_clean_linker_0, # of connection points: 2
#     Edge 16, Type (0, 1), BuildingBlock: XIVTED_clean_linker_0, # of connection points: 2
#     Edge 17, Type (0, 1), BuildingBlock: XIVTED_clean_linker_0, # of connection points: 2
#     Edge 18, Type (0, 1), BuildingBlock: XIVTED_clean_linker_0, # of connection points: 2
#     Edge 19, Type (0, 1), BuildingBlock: XIVTED_clean_linker_0, # of connection points: 2
#     Edge 20, Type (0, 1), BuildingBlock: XIVTED_clean_linker_0, # of connection points: 2
#     Edge 21, Type (0, 1), BuildingBlock: XIVTED_clean_linker_0, # of connection points: 2
#     Edge 22, Type (0, 1), BuildingBlock: XIVTED_clean_linker_0, # of connection points: 2
#     Edge 23, Type (0, 1), BuildingBlock: XIVTED_clean_linker_0, # of connection points: 2
#     Edge 24, Type (0, 1), BuildingBlock: XIVTED_clean_linker_0, # of connection points: 2
#     Edge 25, Type (0, 1), BuildingBlock: XIVTED_clean_linker_0, # of connection points: 2
#     Edge 26, Type (0, 1), BuildingBlock: XIVTED_clean_linker_0, # of connection points: 2
#     Edge 27, Type (0, 1), BuildingBlock: XIVTED_clean_linker_0, # of connection points: 2
#     Edge 28, Type (0, 1), BuildingBlock: XIVTED_clean_linker_0, # of connection points: 2
#     Edge 29, Type (0, 1), BuildingBlock: XIVTED_clean_linker_0, # of connection points: 2
#     Edge 30, Type (0, 1), BuildingBlock: XIVTED_clean_linker_0, # of connection points: 2
#     Edge 31, Type (0, 1), BuildingBlock: XIVTED_clean_linker_0, # of connection points: 2
#     Edge 32, Type (0, 1), BuildingBlock: XIVTED_clean_linker_0, # of connection points: 2
#     Edge 33, Type (0, 1), BuildingBlock: XIVTED_clean_linker_0, # of connection points: 2
#     Edge 34, Type (0, 1), BuildingBlock: XIVTED_clean_linker_0, # of connection points: 2
#     Edge 35, Type (0, 1), BuildingBlock: XIVTED_clean_linker_0, # of connection points: 2
# Relax obj value: 0.030
# Max RMSD: 0.224
# Mean RMSD: 0.134
data_MOF--net-apo--node1-OLANEW_clean_sbu_2--node2-KUMBUR_clean_sbu_1--edge1-XIVTED_clean_linker_0
_symmetry_space_group_name_H-M    P1
_symmetry_Int_Tables_number       1
_symmetry_cell_setting            triclinic
loop_
_symmetry_equiv_pos_as_xyz
'x, y, z'
_cell_length_a     27.600998
_cell_length_b     45.28487
_cell_length_c     55.875832
_cell_angle_alpha  89.023132
_cell_angle_beta   89.802755
_cell_angle_gamma 91.504579
loop_
_atom_site_label
_atom_site_type_symbol
_atom_site_fract_x
_atom_site_fract_y
_atom_site_fract_z
_atom_type_partial_charge
O0 O 0.31109 0.37905 0.37345 0.0
Cd1 Cd 0.28793 0.33337 0.39523 0.0
O2 O 0.38316 0.37841 0.39019 0.0
Cd3 Cd 0.36907 0.34131 0.41493 0.0
O4 O 0.37926 0.33767 0.45349 0.0
C5 C 0.37847 0.36326 0.46239 0.0
O6 O 0.36917 0.38578 0.44812 0.0
C7 C 0.35346 0.39033 0.37587 0.0
C8 C 0.23987 0.29162 0.36719 0.0
O9 O 0.21614 0.30749 0.38168 0.0
O10 O 0.28591 0.29565 0.36582 0.0
O11 O 0.29307 0.14255 0.9454 0.0
Cd12 Cd 0.34501 0.13771 0.91013 0.0
O13 O 0.28816 0.09393 0.94701 0.0
Cd14 Cd 0.32484 0.0842 0.91383 0.0
O15 O 0.29678 0.05779 0.88474 0.0
C16 C 0.2512 0.05944 0.88216 0.0
O17 O 0.2273 0.07744 0.89582 0.0
C18 C 0.2775 0.11879 0.95555 0.0
C19 C 0.37481 0.18993 0.88686 0.0
O20 O 0.33523 0.17648 0.88105 0.0
O21 O 0.39958 0.17904 0.9041 0.0
O22 O 0.81823 0.11661 0.63988 0.0
Cd23 Cd 0.78025 0.1542 0.61459 0.0
O24 O 0.87686 0.10966 0.61394 0.0
Cd25 Cd 0.85871 0.1434 0.58783 0.0
O26 O 0.8775 0.14369 0.55014 0.0
C27 C 0.87393 0.11854 0.54043 0.0
O28 O 0.85678 0.09589 0.55313 0.0
C29 C 0.85553 0.10282 0.63348 0.0
C30 C 0.74083 0.20004 0.6404 0.0
O31 O 0.71944 0.17463 0.63956 0.0
O32 O 0.7811 0.2039 0.62915 0.0
O33 O 0.76755 0.34903 0.06638 0.0
Cd34 Cd 0.79576 0.34432 0.10809 0.0
O35 O 0.79767 0.39419 0.06145 0.0
Cd36 Cd 0.81892 0.39695 0.09878 0.0
O37 O 0.78185 0.41899 0.12755 0.0
C38 C 0.74971 0.43594 0.1193 0.0
O39 O 0.74404 0.43792 0.09598 0.0
C40 C 0.77416 0.3721 0.05327 0.0
C41 C 0.85044 0.29611 0.12302 0.0
O42 O 0.80443 0.2936 0.12032 0.0
O43 O 0.87117 0.32099 0.11753 0.0
O44 O 0.74906 0.60892 0.6282 0.0
Cd45 Cd 0.78676 0.64635 0.60175 0.0
O46 O 0.77336 0.57214 0.60629 0.0
Cd47 Cd 0.80108 0.6018 0.57834 0.0
O48 O 0.76877 0.61786 0.54551 0.0
C49 C 0.72541 0.60825 0.54313 0.0
O50 O 0.70626 0.59127 0.56018 0.0
C51 C 0.75141 0.58135 0.62462 0.0
C52 C 0.82903 0.69158 0.62806 0.0
O53 O 0.78486 0.69275 0.62118 0.0
O54 O 0.85336 0.66902 0.62231 0.0
O55 O 0.8116 0.88676 0.12808 0.0
Cd56 Cd 0.77388 0.8476 0.10403 0.0
O57 O 0.77716 0.92388 0.10958 0.0
Cd58 Cd 0.75039 0.8945 0.08196 0.0
O59 O 0.78002 0.8803 0.04806 0.0
C60 C 0.82004 0.89349 0.04294 0.0
O61 O 0.83762 0.91307 0.05792 0.0
C62 C 0.8048 0.91435 0.12596 0.0
C63 C 0.72046 0.80601 0.13142 0.0
O64 O 0.76685 0.80622 0.13101 0.0
O65 O 0.6987 0.82559 0.11896 0.0
O66 O 0.23345 0.87752 0.36758 0.0
Cd67 Cd 0.27065 0.83991 0.39325 0.0
O68 O 0.28038 0.91308 0.38173 0.0
Cd69 Cd 0.29629 0.88608 0.41297 0.0
O70 O 0.25887 0.8756 0.44648 0.0
C71 C 0.22709 0.89391 0.45256 0.0
O72 O 0.22029 0.91732 0.43889 0.0
C73 C 0.24859 0.90433 0.36686 0.0
C74 C 0.31634 0.79615 0.36741 0.0
O75 O 0.27287 0.79223 0.3752 0.0
O76 O 0.33817 0.82082 0.37169 0.0
O77 O 0.3057 0.60416 0.86567 0.0
Cd78 Cd 0.26778 0.64235 0.88978 0.0
O79 O 0.28394 0.56784 0.89047 0.0
Cd80 Cd 0.25303 0.59471 0.91792 0.0
O81 O 0.27965 0.59427 0.95441 0.0
C82 C 0.32512 0.59834 0.9567 0.0
O83 O 0.35175 0.60443 0.93763 0.0
C84 C 0.3053 0.57683 0.87145 0.0
C85 C 0.21955 0.68631 0.86408 0.0
O86 O 0.26589 0.68648 0.86538 0.0
O87 O 0.1957 0.6651 0.87454 0.0
Tb88 Tb 0.10095 0.09604 0.21879 0.0
C89 C 0.88777 0.07867 0.24991 0.0
N90 N 0.91618 0.10363 0.24968 0.0
C91 C 0.85178 0.13096 0.232 0.0
C92 C 0.84066 0.07866 0.24025 0.0
C93 C 0.89824 0.12987 0.24181 0.0
C94 C 0.82302 0.10518 0.23097 0.0
C95 C 0.87779 0.02674 0.2605 0.0
C96 C 0.90622 0.05307 0.25992 0.0
C97 C 0.83112 0.02645 0.2505 0.0
C98 C 0.8126 0.05235 0.24041 0.0
Tb99 Tb 0.99081 0.09931 0.26647 0.0
N100 N 0.95169 0.05414 0.26935 0.0
C101 C 0.89681 0.00162 0.27147 0.0
C102 C 0.9693 0.03007 0.28114 0.0
C103 C 0.94252 0.0034 0.28206 0.0
H104 H 0.91916 0.15019 0.24341 0.0
H105 H 0.95688 0.98433 0.29126 0.0
H106 H 0.17363 0.04429 0.24234 0.0
H107 H 0.13985 0.20678 0.18721 0.0
H108 H 1.0032 0.03136 0.29054 0.0
H109 H 0.87607 0.98098 0.27236 0.0
H110 H 0.09009 0.16111 0.19279 0.0
H111 H 0.83799 0.15175 0.22549 0.0
H112 H 0.80882 0.0064 0.25073 0.0
H113 H 0.77636 0.05186 0.23301 0.0
H114 H 0.25479 0.04298 0.25982 0.0
H115 H 0.78697 0.10612 0.22344 0.0
H116 H 0.22203 0.21027 0.2047 0.0
N117 N 0.1755 0.09104 0.23625 0.0
C118 C 0.20471 0.11577 0.2351 0.0
C119 C 0.24081 0.06373 0.25335 0.0
C120 C 0.25269 0.11557 0.24371 0.0
C121 C 0.19392 0.06481 0.24402 0.0
C122 C 0.27012 0.0893 0.25349 0.0
N123 N 0.14172 0.14007 0.21502 0.0
C124 C 0.12504 0.16286 0.20129 0.0
C125 C 0.21784 0.16622 0.22045 0.0
C126 C 0.18769 0.14084 0.22363 0.0
C127 C 0.19993 0.1904 0.2076 0.0
C128 C 0.15348 0.18858 0.19777 0.0
H129 H 0.30679 0.08822 0.26026 0.0
H130 H 0.3193 0.1414 0.24791 0.0
H131 H 0.28872 0.18572 0.22755 0.0
O132 O 0.08931 0.09845 0.18137 0.0
O133 O 0.09815 0.1328 0.24389 0.0
O134 O 0.06452 0.11109 0.27734 0.0
O135 O 0.15431 0.0801 0.1961 0.0
O136 O 0.03496 0.11863 0.20821 0.0
O137 O 1.00469 0.1384 0.24318 0.0
O138 O 0.96157 0.09174 0.30105 0.0
O139 O 0.97974 0.08159 0.23057 0.0
O140 O 0.04964 0.05822 0.22035 0.0
O141 O 0.96679 0.13628 0.28522 0.0
O142 O 0.05321 0.07319 0.27764 0.0
O143 O 0.09159 0.05727 0.24294 0.0
C144 C 0.09136 0.13194 0.26713 0.0
C145 C 0.13817 0.06994 0.15539 0.0
C146 C 0.149 0.06983 0.11215 0.0
C147 C 0.16527 0.04072 0.11387 0.0
C148 C 0.15455 0.04087 0.15688 0.0
C149 C 0.168 0.02637 0.13612 0.0
C150 C 0.13541 0.0843 0.13299 0.0
C151 C 1.0109 0.1388 0.21971 0.0
C152 C 0.13146 0.08764 0.1768 0.0
C153 C 0.28239 0.14116 0.24136 0.0
C154 C 0.26504 0.16639 0.22972 0.0
C155 C 1.00208 0.05964 0.2207 0.0
C156 C 0.93171 0.13157 0.32519 0.0
C157 C 0.91878 0.13018 0.36829 0.0
C158 C 0.88864 0.15453 0.36608 0.0
C159 C 0.9018 0.15608 0.32331 0.0
C160 C 0.94004 0.11848 0.3478 0.0
C161 C 0.88015 0.16735 0.34368 0.0
C162 C 0.08198 0.05536 0.26611 0.0
C163 C 0.95352 0.11968 0.30349 0.0
H164 H 0.17718 0.02939 0.09806 0.0
H165 H 0.15832 0.02973 0.17405 0.0
H166 H 0.18158 0.00419 0.13732 0.0
H167 H 0.12413 0.10705 0.13184 0.0
H168 H 0.87196 0.16374 0.38178 0.0
H169 H 0.89475 0.1663 0.30604 0.0
H170 H 0.96341 0.09969 0.34949 0.0
H171 H 0.85687 0.18615 0.34213 0.0
Tb172 Tb 0.49022 0.39625 0.73597 0.0
C173 C 0.70631 0.41991 0.77131 0.0
N174 N 0.67994 0.39444 0.76858 0.0
C175 C 0.74889 0.37151 0.75129 0.0
C176 C 0.75507 0.4223 0.76377 0.0
C177 C 0.70068 0.37019 0.75909 0.0
C178 C 0.77618 0.39771 0.75355 0.0
C179 C 0.71007 0.47065 0.78451 0.0
C180 C 0.68387 0.44382 0.78139 0.0
C181 C 0.7587 0.47314 0.77705 0.0
C182 C 0.78111 0.44905 0.76667 0.0
Tb183 Tb 0.60268 0.39455 0.78325 0.0
N184 N 0.63622 0.4409 0.78774 0.0
C185 C 0.68649 0.49423 0.79488 0.0
C186 C 0.61391 0.46344 0.79893 0.0
C187 C 0.63833 0.49052 0.80226 0.0
H188 H 0.68075 0.34948 0.75834 0.0
H189 H 0.62017 0.50839 0.8109 0.0
H190 H 0.4121 0.44167 0.76026 0.0
H191 H 0.47526 0.28104 0.71182 0.0
H192 H 0.57797 0.46066 0.80613 0.0
H193 H 0.70527 0.51522 0.79754 0.0
H194 H 0.51676 0.3291 0.71556 0.0
H195 H 0.76514 0.35219 0.74383 0.0
H196 H 0.77928 0.49362 0.77921 0.0
H197 H 0.81862 0.45131 0.761 0.0
H198 H 0.32706 0.43932 0.77391 0.0
H199 H 0.81359 0.39862 0.74758 0.0
H200 H 0.38966 0.27458 0.72445 0.0
N201 N 0.41297 0.39661 0.75037 0.0
C202 C 0.38679 0.37106 0.74777 0.0
C203 C 0.34353 0.41988 0.76679 0.0
C204 C 0.33773 0.36886 0.75481 0.0
C205 C 0.39204 0.42101 0.75949 0.0
C206 C 0.31621 0.39369 0.76445 0.0
N207 N 0.45783 0.34947 0.73283 0.0
C208 C 0.48073 0.32649 0.72257 0.0
C209 C 0.38407 0.31969 0.73614 0.0
C210 C 0.40993 0.34672 0.73871 0.0
C211 C 0.40826 0.2957 0.72677 0.0
C212 C 0.45668 0.2992 0.7198 0.0
H213 H 0.27857 0.39291 0.77005 0.0
H214 H 0.2741 0.33991 0.7574 0.0
H215 H 0.31455 0.29692 0.74093 0.0
O216 O 0.48839 0.39164 0.69797 0.0
O217 O 0.47633 0.37375 0.77073 0.0
O218 O 0.55162 0.35724 0.78026 0.0
O219 O 0.44405 0.4232 0.71649 0.0
O220 O 0.55795 0.37612 0.72423 0.0
O221 O 0.59106 0.35748 0.75913 0.0
O222 O 0.60145 0.39695 0.82155 0.0
O223 O 0.61613 0.41904 0.74944 0.0
O224 O 0.54082 0.43398 0.73671 0.0
O225 O 0.64904 0.36772 0.80253 0.0
O226 O 0.53547 0.41572 0.79438 0.0
O227 O 0.50289 0.43403 0.75914 0.0
C228 C 0.5048 0.35756 0.7841 0.0
C229 C 0.43383 0.4223 0.67369 0.0
C230 C 0.42354 0.42055 0.63041 0.0
C231 C 0.39102 0.44384 0.63169 0.0
C232 C 0.40102 0.44553 0.67446 0.0
C233 C 0.37976 0.45614 0.65359 0.0
C234 C 0.44473 0.40957 0.65153 0.0
C235 C 0.58828 0.35883 0.73559 0.0
C236 C 0.45574 0.41183 0.69623 0.0
C237 C 0.3119 0.342 0.75219 0.0
C238 C 0.33498 0.3175 0.74285 0.0
C239 C 0.58824 0.43437 0.73511 0.0
C240 C 0.65638 0.36576 0.84543 0.0
C241 C 0.66801 0.36583 0.88869 0.0
C242 C 0.69928 0.34204 0.88664 0.0
C243 C 0.68799 0.34195 0.84397 0.0
C244 C 0.64659 0.37793 0.86799 0.0
C245 C 0.70924 0.33026 0.86444 0.0
C246 C 0.50663 0.43358 0.78261 0.0
C247 C 0.63528 0.37747 0.82304 0.0
H248 H 0.37386 0.45236 0.61567 0.0
H249 H 0.39166 0.45562 0.69123 0.0
H250 H 0.35448 0.47397 0.65438 0.0
H251 H 0.46981 0.39159 0.65064 0.0
H252 H 0.71648 0.33272 0.90236 0.0
H253 H 0.6965 0.33223 0.82693 0.0
H254 H 0.62274 0.39646 0.86947 0.0
H255 H 0.73362 0.31202 0.86307 0.0
Tb256 Tb 0.0773 0.88716 0.72348 0.0
C257 C 0.86135 0.87268 0.75912 0.0
N258 N 0.89014 0.89747 0.75814 0.0
C259 C 0.8242 0.92523 0.74239 0.0
C260 C 0.81286 0.8731 0.75129 0.0
C261 C 0.87215 0.92365 0.75019 0.0
C262 C 0.79443 0.89982 0.74286 0.0
C263 C 0.85315 0.82012 0.7676 0.0
C264 C 0.88138 0.84653 0.76712 0.0
C265 C 0.80472 0.82043 0.75995 0.0
C266 C 0.78462 0.84685 0.75184 0.0
Tb267 Tb 0.96745 0.89247 0.77183 0.0
N268 N 0.92892 0.84691 0.77372 0.0
C269 C 0.87444 0.79416 0.77573 0.0
C270 C 0.9489 0.82185 0.7828 0.0
C271 C 0.92236 0.79511 0.78357 0.0
H272 H 0.89422 0.94356 0.75063 0.0
H273 H 0.93876 0.77529 0.79052 0.0
H274 H 0.15749 0.8382 0.74009 0.0
H275 H 0.09793 0.00401 0.70085 0.0
H276 H 0.98466 0.82212 0.79013 0.0
H277 H 0.85401 0.7734 0.77637 0.0
H278 H 0.05739 0.95538 0.70076 0.0
H279 H 0.81015 0.94609 0.73618 0.0
H280 H 0.78253 0.80033 0.76019 0.0
H281 H 0.74729 0.84672 0.74589 0.0
H282 H 0.24296 0.83795 0.75291 0.0
H283 H 0.75732 0.90108 0.73674 0.0
H284 H 0.18126 0.00945 0.71659 0.0
N285 N 0.15706 0.88448 0.73384 0.0
C286 C 0.18334 0.91024 0.73348 0.0
C287 C 0.22657 0.8585 0.74763 0.0
C288 C 0.23223 0.91128 0.7407 0.0
C289 C 0.178 0.8587 0.74056 0.0
C290 C 0.25376 0.88494 0.74784 0.0
N291 N 0.11321 0.93353 0.71966 0.0
C292 C 0.09184 0.95743 0.70936 0.0
C293 C 0.18632 0.96301 0.72578 0.0
C294 C 0.16054 0.93569 0.72632 0.0
C295 C 0.1628 0.98804 0.71731 0.0
C296 C 0.11566 0.98509 0.7086 0.0
H297 H 0.29129 0.88476 0.75346 0.0
H298 H 0.29529 0.93982 0.74634 0.0
H299 H 0.25512 0.98517 0.73317 0.0
O300 O 0.07224 0.892 0.68587 0.0
O301 O 0.09625 0.90602 0.75813 0.0
O302 O 0.0248 0.92675 0.76916 0.0
O303 O 0.11047 0.85608 0.70201 0.0
O304 O 1.01182 0.91145 0.71348 0.0
O305 O 0.9839 0.93079 0.74874 0.0
O306 O 0.9663 0.88643 0.80983 0.0
O307 O 0.95046 0.87237 0.73713 0.0
O308 O 0.02315 0.85237 0.72981 0.0
O309 O 0.92648 0.9212 0.79187 0.0
O310 O 0.03122 0.86733 0.78352 0.0
O311 O 0.06725 0.84993 0.7489 0.0
C312 C 0.07155 0.92341 0.77187 0.0
C313 C 0.13589 0.87147 0.6633 0.0
C314 C 0.15566 0.87296 0.62084 0.0
C315 C 0.20443 0.86834 0.62638 0.0
C316 C 0.18506 0.86732 0.6686 0.0
C317 C 0.21905 0.86573 0.65017 0.0
C318 C 0.12141 0.87463 0.63931 0.0
C319 C 0.98602 0.93063 0.72523 0.0
C320 C 0.09859 0.86911 0.68213 0.0
C321 C 0.25778 0.93852 0.74072 0.0
C322 C 0.23485 0.96434 0.73329 0.0
C323 C 0.97724 0.85438 0.72505 0.0
C324 C 0.91868 0.91954 0.83479 0.0
C325 C 0.91046 0.91666 0.87813 0.0
C326 C 0.88352 0.94253 0.87754 0.0
C327 C 0.8913 0.94534 0.8346 0.0
C328 C 0.92792 0.90501 0.85672 0.0
C329 C 0.87386 0.95669 0.85586 0.0
C330 C 0.06128 0.84973 0.77243 0.0
C331 C 0.93752 0.90858 0.81199 0.0
H332 H 0.23116 0.86671 0.61224 0.0
H333 H 0.19711 0.86458 0.6869 0.0
H334 H 0.25671 0.86205 0.65431 0.0
H335 H 0.08351 0.87747 0.63499 0.0
H336 H 0.86944 0.95156 0.89392 0.0
H337 H 0.88344 0.95691 0.81799 0.0
H338 H 0.94864 0.885 0.85719 0.0
H339 H 0.85279 0.97651 0.85554 0.0
Tb340 Tb 0.46328 0.60312 0.2283 0.0
C341 C 0.68013 0.62348 0.26349 0.0
N342 N 0.65302 0.59832 0.26059 0.0
C343 C 0.72121 0.57497 0.24293 0.0
C344 C 0.72876 0.62557 0.2557 0.0
C345 C 0.67325 0.57392 0.25111 0.0
C346 C 0.74901 0.60099 0.24504 0.0
C347 C 0.68608 0.67348 0.27825 0.0
C348 C 0.65887 0.6472 0.27439 0.0
C349 C 0.73442 0.6758 0.27032 0.0
C350 C 0.75565 0.65195 0.259 0.0
Tb351 Tb 0.57552 0.59927 0.27501 0.0
N352 N 0.61134 0.64459 0.28093 0.0
C353 C 0.66369 0.69669 0.2898 0.0
C354 C 0.59019 0.66662 0.29325 0.0
C355 C 0.61568 0.69313 0.29751 0.0
H356 H 0.65317 0.55328 0.25071 0.0
H357 H 0.59846 0.71064 0.30705 0.0
H358 H 0.38665 0.64745 0.25552 0.0
H359 H 0.44593 0.48999 0.1993 0.0
H360 H 0.55437 0.66366 0.3006 0.0
H361 H 0.68328 0.71727 0.29309 0.0
H362 H 0.48896 0.53722 0.20565 0.0
H363 H 0.73692 0.55556 0.23535 0.0
H364 H 0.75571 0.69593 0.2729 0.0
H365 H 0.79301 0.65403 0.25305 0.0
H366 H 0.30217 0.64442 0.26981 0.0
H367 H 0.78626 0.6017 0.23883 0.0
H368 H 0.35975 0.48374 0.21102 0.0
N369 N 0.38639 0.60322 0.24317 0.0
C370 C 0.35955 0.57816 0.23937 0.0
C371 C 0.318 0.62553 0.26147 0.0
C372 C 0.31075 0.57569 0.24681 0.0
C373 C 0.36624 0.62699 0.25371 0.0
C374 C 0.29015 0.59976 0.25806 0.0
N375 N 0.42969 0.55715 0.22296 0.0
C376 C 0.45237 0.53461 0.21198 0.0
C377 C 0.35507 0.52807 0.2246 0.0
C378 C 0.38165 0.55458 0.22855 0.0
C379 C 0.37878 0.50452 0.21422 0.0
C380 C 0.42756 0.50788 0.2078 0.0
H381 H 0.25275 0.59874 0.26404 0.0
H382 H 0.24666 0.54702 0.24849 0.0
H383 H 0.28541 0.50537 0.22903 0.0
O384 O 0.4635 0.59966 0.19035 0.0
O385 O 0.45045 0.57759 0.26189 0.0
O386 O 0.52592 0.56128 0.27225 0.0
O387 O 0.4162 0.62975 0.20889 0.0
O388 O 0.53149 0.58424 0.21639 0.0
O389 O 0.56517 0.56295 0.2501 0.0
O390 O 0.5712 0.60155 0.31292 0.0
O391 O 0.58789 0.62697 0.2425 0.0
O392 O 0.51267 0.64142 0.22874 0.0
O393 O 0.62178 0.57273 0.29514 0.0
O394 O 0.50781 0.61972 0.28643 0.0
O395 O 0.4748 0.64027 0.25212 0.0
C396 C 0.47877 0.56102 0.27508 0.0
C397 C 0.40967 0.63006 0.16578 0.0
C398 C 0.40316 0.62881 0.12236 0.0
C399 C 0.37204 0.65281 0.12296 0.0
C400 C 0.37804 0.6539 0.16597 0.0
C401 C 0.35938 0.66515 0.14467 0.0
C402 C 0.42182 0.61725 0.14382 0.0
C403 C 0.56076 0.56549 0.22673 0.0
C404 C 0.43022 0.61946 0.18855 0.0
C405 C 0.28422 0.54933 0.24289 0.0
C406 C 0.30627 0.52563 0.23177 0.0
C407 C 0.56024 0.64306 0.22849 0.0
C408 C 0.62372 0.57158 0.33837 0.0
C409 C 0.63221 0.57565 0.38151 0.0
C410 C 0.65904 0.54975 0.38197 0.0
C411 C 0.65107 0.54583 0.33916 0.0
C412 C 0.6146 0.58667 0.35967 0.0
C413 C 0.66856 0.53501 0.36087 0.0
C414 C 0.48092 0.63928 0.27542 0.0
C415 C 0.60539 0.58241 0.31524 0.0
H416 H 0.35691 0.66173 0.10658 0.0
H417 H 0.3679 0.66408 0.18259 0.0
H418 H 0.33506 0.6835 0.14499 0.0
H419 H 0.44579 0.59868 0.14337 0.0
H420 H 0.6733 0.5412 0.39868 0.0
H421 H 0.65882 0.53392 0.323 0.0
H422 H 0.59416 0.60679 0.3593 0.0
H423 H 0.68965 0.5152 0.36134 0.0
H424 H 0.27999 0.96091 0.35648 0.0
H425 H 0.06361 -0.00401 0.26624 0.0
H426 H 0.16648 0.89716 0.33992 0.0
H427 H 0.15456 0.06329 0.29798 0.0
H428 H 0.10461 0.95833 0.29042 0.0
H429 H 0.23951 -0.00244 0.3316 0.0
C430 C 0.24667 0.95456 0.34751 0.0
C431 C 0.22663 0.92589 0.35025 0.0
C432 C 0.11578 0.98131 0.29201 0.0
C433 C 0.17987 0.96787 0.32192 0.0
C434 C 0.0925 0.00267 0.27823 0.0
C435 C 0.10607 0.03251 0.28027 0.0
C436 C 0.15363 0.98993 0.30738 0.0
C437 C 0.14319 0.04037 0.29611 0.0
C438 C 0.22347 0.97555 0.3334 0.0
C439 C 0.18344 0.91892 0.33815 0.0
N440 N 0.16606 0.01916 0.30893 0.0
N441 N 0.16141 0.93979 0.32456 0.0
H442 H 0.32737 0.52056 0.88462 0.0
H443 H 0.47823 0.48761 0.76643 0.0
H444 H 0.34981 0.58499 0.82751 0.0
H445 H 0.47587 0.43076 0.8292 0.0
H446 H 0.42995 0.52317 0.78787 0.0
H447 H 0.37917 0.48681 0.86371 0.0
C448 C 0.34274 0.52754 0.86751 0.0
C449 C 0.33382 0.55565 0.85771 0.0
C450 C 0.44015 0.503 0.797 0.0
C451 C 0.39374 0.51692 0.8337 0.0
C452 C 0.46762 0.48267 0.78478 0.0
C453 C 0.48049 0.45606 0.79601 0.0
C454 C 0.42527 0.49662 0.8206 0.0
C455 C 0.46648 0.45096 0.81987 0.0
C456 C 0.3727 0.50827 0.85567 0.0
C457 C 0.35546 0.56351 0.83566 0.0
N458 N 0.43924 0.47096 0.83132 0.0
N459 N 0.38433 0.54418 0.82434 0.0
H460 H 0.71171 0.52782 0.61339 0.0
H461 H 0.64623 0.48106 0.74741 0.0
H462 H 0.73282 0.58694 0.67241 0.0
H463 H 0.57856 0.4395 0.68702 0.0
H464 H 0.68502 0.51775 0.72051 0.0
H465 H 0.66864 0.49284 0.64025 0.0
C466 C 0.7076 0.53328 0.63208 0.0
C467 C 0.72623 0.56008 0.64084 0.0
C468 C 0.66181 0.50057 0.7131 0.0
C469 C 0.67737 0.52024 0.67157 0.0
C470 C 0.64052 0.47937 0.72843 0.0
C471 C 0.61095 0.45678 0.71924 0.0
C472 C 0.65344 0.49897 0.6884 0.0
C473 C 0.60202 0.45643 0.69461 0.0
C474 C 0.68272 0.51346 0.64732 0.0
C475 C 0.71911 0.56642 0.66504 0.0
N476 N 0.62365 0.47708 0.67992 0.0
N477 N 0.69563 0.54646 0.67968 0.0
H478 H 0.8715 0.90187 0.16067 0.0
H479 H 0.91929 0.07001 0.19612 0.0
H480 H 0.80158 0.97486 0.12549 0.0
H481 H 1.01895 0.00117 0.21361 0.0
H482 H 0.87056 0.03461 0.17331 0.0
H483 H 0.92034 0.93712 0.18363 0.0
C484 C 0.8661 0.92528 0.15789 0.0
C485 C 0.83209 0.93539 0.1412 0.0
C486 C 0.90308 0.02722 0.1821 0.0
C487 C 0.88813 0.97579 0.16737 0.0
C488 C 0.93078 0.04736 0.19518 0.0
C489 C 0.97315 0.0384 0.20668 0.0
C490 C 0.91737 -0.00223 0.18085 0.0
C491 C 0.98668 0.00892 0.20479 0.0
C492 C 0.89424 0.94537 0.1709 0.0
C493 C 0.82701 0.96601 0.13827 0.0
N494 N 0.95864 0.98953 0.19223 0.0
N495 N 0.85466 0.98511 0.15125 0.0
H496 H 0.8377 0.08911 0.68088 0.0
H497 H 0.96793 0.93414 0.6771 0.0
H498 H 0.91226 0.05858 0.61829 0.0
H499 H 0.95461 0.98324 0.74227 0.0
H500 H 0.93418 0.97581 0.65483 0.0
H501 H 0.86715 0.04621 0.70352 0.0
C502 C 0.8602 0.07342 0.67194 0.0
C503 C 0.87294 0.07753 0.64777 0.0
C504 C 0.93843 0.9773 0.67404 0.0
C505 C 0.90581 0.02845 0.67329 0.0
C506 C 0.95759 0.95355 0.68675 0.0
C507 C 0.96373 0.95508 0.71162 0.0
C508 C 0.92479 0.00258 0.68631 0.0
C509 C 0.94984 0.98088 0.72317 0.0
C510 C 0.877 0.04905 0.68483 0.0
C511 C 0.90203 0.05647 0.63698 0.0
N512 N 0.93079 0.00356 0.71044 0.0
N513 N 0.91727 0.03277 0.64978 0.0
H514 H 0.68967 0.48014 0.10642 0.0
H515 H 0.59825 0.51175 0.23911 0.0
H516 H 0.74095 0.43206 0.16831 0.0
H517 H 0.58065 0.57171 0.17907 0.0
H518 H 0.64289 0.47881 0.21317 0.0
H519 H 0.64124 0.5102 0.13256 0.0
C520 C 0.69068 0.47584 0.12554 0.0
C521 C 0.71969 0.45369 0.13522 0.0
C522 C 0.62929 0.49921 0.20573 0.0
C523 C 0.66406 0.48808 0.1653 0.0
C524 C 0.60398 0.51805 0.22051 0.0
C525 C 0.58656 0.54479 0.21132 0.0
C526 C 0.63644 0.50696 0.18153 0.0
C527 C 0.59379 0.55145 0.18696 0.0
C528 C 0.66305 0.49309 0.14046 0.0
C529 C 0.7194 0.4491 0.16014 0.0
N530 N 0.61825 0.53269 0.17293 0.0
N531 N 0.69195 0.46618 0.17436 0.0
H532 H 0.42789 0.42873 0.38634 0.0
H533 H 0.40388 0.52263 0.26538 0.0
H534 H 0.31388 0.41386 0.33493 0.0
H535 H 0.50541 0.54563 0.32052 0.0
H536 H 0.36985 0.48328 0.29074 0.0
H537 H 0.45573 0.47214 0.36315 0.0
C538 C 0.40873 0.43458 0.37012 0.0
C539 C 0.36882 0.41742 0.36239 0.0
C540 C 0.39905 0.49716 0.29756 0.0
C541 C 0.40075 0.46711 0.33568 0.0
C542 C 0.41815 0.51991 0.28303 0.0
C543 C 0.45673 0.53784 0.29088 0.0
C544 C 0.4188 0.49216 0.32031 0.0
C545 C 0.47551 0.53228 0.31376 0.0
C546 C 0.42458 0.45945 0.35695 0.0
C547 C 0.3449 0.42637 0.34149 0.0
N548 N 0.45634 0.50992 0.32771 0.0
N549 N 0.36153 0.45044 0.32874 0.0
H550 H 0.15635 0.06226 0.86874 0.0
H551 H 0.16649 0.92058 0.78541 0.0
H552 H 0.28569 0.01268 0.8574 0.0
H553 H 0.03796 0.97141 0.79539 0.0
H554 H 0.21068 0.95402 0.8118 0.0
H555 H 0.11235 0.02923 0.84189 0.0
C556 C 0.17555 0.04446 0.86055 0.0
C557 C 0.22483 0.04028 0.86523 0.0
C558 C 0.17285 0.95791 0.80817 0.0
C559 C 0.17459 0.00226 0.8346 0.0
C560 C 0.14761 0.93887 0.79303 0.0
C561 C 0.09854 0.94332 0.78802 0.0
C562 C 0.14886 0.98159 0.81843 0.0
C563 C 0.07577 0.96713 0.79873 0.0
C564 C 0.15038 0.0256 0.84523 0.0
C565 C 0.24782 0.01685 0.85414 0.0
N566 N 0.10116 0.98539 0.81341 0.0
N567 N 0.22246 -0.00133 0.83938 0.0
H568 H 0.26817 0.16235 0.98929 0.0
H569 H 0.10645 0.05197 0.07095 0.0
H570 H 0.21368 0.07583 0.96991 0.0
H571 H 0.19359 0.1229 0.10021 0.0
H572 H 0.12288 0.07178 0.03075 0.0
H573 H 0.22098 0.15801 0.02686 0.0
C574 C 0.24586 0.1427 0.99278 0.0
C575 C 0.24572 0.11909 0.97682 0.0
C576 C 0.13786 0.08334 0.04596 0.0
C577 C 0.19152 0.11428 0.01909 0.0
C578 C 0.12842 0.07203 0.06884 0.0
C579 C 0.14979 0.0854 0.0887 0.0
C580 C 0.16982 0.10779 0.0429 0.0
C581 C 0.17711 0.11174 0.08519 0.0
C582 C 0.21901 0.14027 0.01412 0.0
C583 C 0.21579 0.09429 0.98196 0.0
N584 N 0.1874 0.12177 0.06258 0.0
N585 N 0.19029 0.09247 0.00266 0.0
H586 H 0.39632 0.32249 0.4985 0.0
H587 H 0.45809 0.45032 0.59134 0.0
H588 H 0.39041 0.41626 0.48375 0.0
H589 H 0.41096 0.36334 0.61554 0.0
H590 H 0.45561 0.43361 0.5501 0.0
H591 H 0.41926 0.33338 0.5401 0.0
C592 C 0.39985 0.34528 0.50397 0.0
C593 C 0.39126 0.36852 0.48765 0.0
C594 C 0.44644 0.41798 0.5644 0.0
C595 C 0.41828 0.38094 0.53469 0.0
C596 C 0.44821 0.42747 0.58791 0.0
C597 C 0.43399 0.40827 0.60668 0.0
C598 C 0.42991 0.38913 0.55958 0.0
C599 C 0.42192 0.37879 0.60141 0.0
C600 C 0.41303 0.35142 0.52761 0.0
C601 C 0.39651 0.3976 0.49563 0.0
N602 N 0.41932 0.37014 0.57819 0.0
N603 N 0.40973 0.40292 0.51849 0.0
H604 H 0.71035 0.33285 0.03269 0.0
H605 H 0.70633 0.41643 0.90747 0.0
H606 H 0.782 0.41765 0.02027 0.0
H607 H 0.61674 0.33983 0.92503 0.0
H608 H 0.72327 0.42276 0.95017 0.0
H609 H 0.66845 0.33845 0.99461 0.0
C610 C 0.71754 0.35259 0.0219 0.0
C611 C 0.75047 0.37455 0.02956 0.0
C612 C 0.69871 0.40507 0.94479 0.0
C613 C 0.70198 0.38133 0.98587 0.0
C614 C 0.68847 0.40178 0.92045 0.0
C615 C 0.66047 0.37745 0.91287 0.0
C616 C 0.68142 0.38354 0.96138 0.0
C617 C 0.63867 0.3588 0.93028 0.0
C618 C 0.69312 0.35595 1.00024 0.0
C619 C 0.75752 0.39991 0.01495 0.0
N620 N 0.65051 0.36179 0.95369 0.0
N621 N 0.73387 0.40247 0.99372 0.0
H622 H 0.85295 0.07208 0.51128 0.0
H623 H 0.98768 0.14926 0.39911 0.0
H624 H 0.93191 0.15556 0.51306 0.0
H625 H 0.86979 0.0858 0.39232 0.0
H626 H 0.98759 0.14022 0.4425 0.0
H627 H 0.87689 0.067 0.46929 0.0
C628 C 0.87561 0.08922 0.50289 0.0
C629 C 0.88976 0.11455 0.51549 0.0
C630 C 0.96249 0.12776 0.43147 0.0
C631 C 0.91787 0.10858 0.4678 0.0
C632 C 0.96288 0.1327 0.40678 0.0
C633 C 0.92854 0.11832 0.39241 0.0
C634 C 0.92714 0.10855 0.44173 0.0
C635 C 0.89676 0.09726 0.40299 0.0
C636 C 0.88932 0.08624 0.479 0.0
C637 C 0.91945 0.13594 0.50387 0.0
N638 N 0.89628 0.09329 0.42716 0.0
N639 N 0.93235 0.13252 0.48063 0.0
H640 H 0.79768 0.85265 0.00861 0.0
H641 H 0.96939 0.93513 0.91384 0.0
H642 H 0.89966 0.92329 0.025 0.0
H643 H 0.86548 0.86668 0.89559 0.0
H644 H 0.95992 0.92137 0.95611 0.0
H645 H 0.83519 0.8489 0.96904 0.0
C646 C 0.8282 0.86718 0.00397 0.0
C647 C 0.84499 0.88867 0.01996 0.0
C648 C 0.94005 0.90877 0.9429 0.0
C649 C 0.88798 0.88453 0.9748 0.0
C650 C 0.94589 0.91646 0.91879 0.0
C651 C 0.9179 0.90206 0.90147 0.0
C652 C 0.90505 0.88706 0.94964 0.0
C653 C 0.88759 0.87822 0.90859 0.0
C654 C 0.84973 0.86494 0.98143 0.0
C655 C 0.88511 0.90661 0.01317 0.0
N656 N 0.88107 0.87185 0.93226 0.0
N657 N 0.90476 0.9044 0.991 0.0
H658 H 0.74978 0.64561 0.50561 0.0
H659 H 0.57585 0.55812 0.41921 0.0
H660 H 0.6405 0.5816 0.52931 0.0
H661 H 0.67546 0.62725 0.3952 0.0
H662 H 0.58491 0.57511 0.46027 0.0
H663 H 0.71119 0.64742 0.46631 0.0
C664 C 0.71734 0.63222 0.50263 0.0
C665 C 0.69892 0.61296 0.52056 0.0
C666 C 0.60391 0.58714 0.44602 0.0
C667 C 0.65483 0.61473 0.47566 0.0
C668 C 0.59841 0.57754 0.42261 0.0
C669 C 0.62531 0.59124 0.40408 0.0
C670 C 0.63763 0.61004 0.45089 0.0
C671 C 0.65428 0.61616 0.40918 0.0
C672 C 0.69519 0.63334 0.48022 0.0
C673 C 0.65635 0.59648 0.51589 0.0
N674 N 0.66062 0.62439 0.43226 0.0
N675 N 0.63626 0.59735 0.49378 0.0
H676 H 0.29715 0.56308 0.99458 0.0
H677 H 0.4548 0.65369 0.08553 0.0
H678 H 0.40519 0.62851 0.97242 0.0
H679 H 0.37166 0.57546 0.106 0.0
H680 H 0.44841 0.63967 0.04359 0.0
H681 H 0.3324 0.56239 0.0347 0.0
C682 C 0.32836 0.57728 0.99823 0.0
C683 C 0.34781 0.59632 0.98043 0.0
C684 C 0.43264 0.62506 0.05722 0.0
C685 C 0.38808 0.59586 0.02618 0.0
C686 C 0.43664 0.63299 0.08114 0.0
C687 C 0.41339 0.61575 0.099 0.0
C688 C 0.40407 0.60016 0.05121 0.0
C689 C 0.38995 0.58928 0.09259 0.0
C690 C 0.34876 0.5767 0.02103 0.0
C691 C 0.38893 0.61372 0.98579 0.0
N692 N 0.38487 0.5826 0.0691 0.0
N693 N 0.40719 0.6135 0.00833 0.0
H694 H 0.17474 0.93477 0.47637 0.0
H695 H 0.13821 0.82803 0.59033 0.0
H696 H 0.21711 0.84373 0.48022 0.0
H697 H 0.14382 0.92295 0.5941 0.0
H698 H 0.13802 0.83206 0.54649 0.0
H699 H 0.13716 0.92886 0.51601 0.0
C700 C 0.17559 0.91344 0.48541 0.0
C701 C 0.19997 0.88984 0.47525 0.0
C702 C 0.1382 0.85202 0.5569 0.0
C703 C 0.15656 0.88293 0.52029 0.0
C704 C 0.13797 0.8497 0.58182 0.0
C705 C 0.14155 0.87522 0.59554 0.0
C706 C 0.14277 0.88003 0.54583 0.0
C707 C 0.14123 0.90284 0.58392 0.0
C708 C 0.15407 0.91011 0.50798 0.0
C709 C 0.19954 0.86265 0.48762 0.0
N710 N 0.14277 0.90457 0.55962 0.0
N711 N 0.17854 0.86 0.50958 0.0
H712 H 0.15773 0.25896 0.3782 0.0
H713 H 0.14075 0.18199 0.25188 0.0
H714 H 0.26607 0.27294 0.32307 0.0
H715 H 0.08493 0.13848 0.31589 0.0
H716 H 0.17616 0.22093 0.27619 0.0
H717 H 0.11943 0.22002 0.354 0.0
C718 C 0.17315 0.25397 0.36093 0.0
C719 C 0.21513 0.26903 0.35258 0.0
C720 C 0.15638 0.20276 0.28491 0.0
C721 C 0.17139 0.22512 0.32487 0.0
C722 C 0.13654 0.18029 0.27104 0.0
C723 C 0.11123 0.15629 0.28183 0.0
C724 C 0.14974 0.20177 0.30979 0.0
C725 C 0.10484 0.15629 0.3068 0.0
C726 C 0.15151 0.23172 0.34725 0.0
C727 C 0.23394 0.26166 0.33019 0.0
N728 N 0.12391 0.17875 0.31997 0.0
N729 N 0.21173 0.24036 0.31702 0.0
H730 H 0.45824 0.22258 0.89408 0.0
H731 H 0.40949 0.33828 0.78797 0.0
H732 H 0.33174 0.21784 0.84893 0.0
H733 H 0.5507 0.32582 0.81884 0.0
H734 H 0.37679 0.2984 0.81352 0.0
H735 H 0.48874 0.26495 0.87029 0.0
C736 C 0.43675 0.23051 0.87924 0.0
C737 C 0.39239 0.21658 0.87346 0.0
C738 C 0.41492 0.30443 0.81471 0.0
C739 C 0.42716 0.26504 0.84617 0.0
C740 C 0.43371 0.32719 0.80001 0.0
C741 C 0.4832 0.33501 0.80073 0.0
C742 C 0.44557 0.28987 0.83077 0.0
C743 C 0.51246 0.32021 0.81733 0.0
C744 C 0.45427 0.25465 0.86563 0.0
C745 C 0.36609 0.22789 0.85405 0.0
N746 N 0.49321 0.29839 0.83171 0.0
N747 N 0.3839 0.25144 0.84108 0.0
H748 H 0.74214 0.25903 0.6292 0.0
H749 H 0.61746 0.30479 0.7515 0.0
H750 H 0.69117 0.19551 0.68249 0.0
H751 H 0.61354 0.36039 0.68807 0.0
H752 H 0.65547 0.2665 0.72821 0.0
H753 H 0.70512 0.2985 0.65213 0.0
C754 C 0.72345 0.25349 0.64582 0.0
C755 C 0.71959 0.22409 0.65405 0.0
C756 C 0.64629 0.28707 0.71938 0.0
C757 C 0.6781 0.26889 0.68041 0.0
C758 C 0.62488 0.30902 0.73268 0.0
C759 C 0.61258 0.33589 0.72171 0.0
C760 C 0.65586 0.29204 0.69495 0.0
C761 C 0.62253 0.33999 0.69721 0.0
C762 C 0.70219 0.27592 0.65879 0.0
C763 C 0.69463 0.21792 0.67551 0.0
N764 N 0.64384 0.31833 0.68463 0.0
N765 N 0.67519 0.24017 0.68808 0.0
H766 H 0.82598 0.23714 0.12505 0.0
H767 H 1.01189 0.19811 0.22757 0.0
H768 H 0.93659 0.29998 0.14703 0.0
H769 H 0.95915 0.13195 0.1789 0.0
H770 H 0.97632 0.23652 0.20188 0.0
H771 H 0.86703 0.19837 0.14777 0.0
C772 C 0.85912 0.24271 0.13447 0.0
C773 C 0.87786 0.27183 0.13419 0.0
C774 C 0.9726 0.21358 0.19686 0.0
C775 C 0.92413 0.22783 0.16065 0.0
C776 C 0.99244 0.19176 0.21157 0.0
C777 C 0.9882 0.16204 0.20523 0.0
C778 C 0.9473 0.20539 0.17611 0.0
C779 C 0.96324 0.15476 0.18424 0.0
C780 C 0.88248 0.22061 0.14741 0.0
C781 C 0.92098 0.27781 0.14671 0.0
N782 N 0.94322 0.17627 0.17052 0.0
N783 N 0.94229 0.25609 0.15974 0.0
H784 H 0.92218 0.69631 0.6445 0.0
H785 H 0.88169 0.84865 0.71158 0.0
H786 H 0.78616 0.7413 0.64421 0.0
H787 H 1.02034 0.80744 0.70482 0.0
H788 H 0.84483 0.80872 0.68829 0.0
H789 H 0.95781 0.73613 0.66811 0.0
C790 C 0.8998 0.71457 0.64938 0.0
C791 C 0.85114 0.71552 0.64232 0.0
C792 C 0.88333 0.80849 0.69192 0.0
C793 C 0.89167 0.76119 0.66938 0.0
C794 C 0.90433 0.83123 0.70527 0.0
C795 C 0.95405 0.83128 0.71035 0.0
C796 C 0.91235 0.78576 0.68355 0.0
C797 C 0.9818 0.80831 0.70144 0.0
C798 C 0.92017 0.73733 0.66286 0.0
C799 C 0.82385 0.73971 0.64922 0.0
N800 N 0.96055 0.78649 0.68854 0.0
N801 N 0.84449 0.76159 0.66238 0.0
H802 H 0.63541 0.77698 0.12023 0.0
H803 H 0.62075 0.68686 0.24401 0.0
H804 H 0.74415 0.784 0.17518 0.0
H805 H 0.54719 0.65624 0.18117 0.0
H806 H 0.65844 0.72717 0.22063 0.0
H807 H 0.59421 0.73724 0.14376 0.0
C808 C 0.65021 0.77034 0.13737 0.0
C809 C 0.69324 0.78356 0.14582 0.0
C810 C 0.63463 0.71143 0.2118 0.0
C811 C 0.64636 0.73871 0.17278 0.0
C812 C 0.61392 0.6881 0.22513 0.0
C813 C 0.58294 0.66746 0.21433 0.0
C814 C 0.62357 0.71447 0.1874 0.0
C815 C 0.57178 0.6715 0.19003 0.0
C816 C 0.62694 0.74763 0.15067 0.0
C817 C 0.71128 0.77412 0.16798 0.0
N818 N 0.59226 0.69454 0.17728 0.0
N819 N 0.68762 0.75239 0.18075 0.0
H820 H 0.28988 0.73765 0.36472 0.0
H821 H 0.48226 0.69811 0.26546 0.0
H822 H 0.39829 0.80142 0.33968 0.0
H823 H 0.42921 0.63307 0.31701 0.0
H824 H 0.44311 0.73678 0.28829 0.0
H825 H 0.33137 0.69918 0.34286 0.0
C826 C 0.32233 0.74358 0.3546 0.0
C827 C 0.34073 0.77277 0.35406 0.0
C828 C 0.44015 0.71406 0.29462 0.0
C829 C 0.38793 0.72897 0.32892 0.0
C830 C 0.46221 0.69207 0.2816 0.0
C831 C 0.45881 0.66256 0.28951 0.0
C832 C 0.41336 0.70628 0.31528 0.0
C833 C 0.43284 0.6557 0.31054 0.0
C834 C 0.34606 0.72159 0.34226 0.0
C835 C 0.38297 0.77918 0.34066 0.0
N836 N 0.4105 0.6774 0.32259 0.0
N837 N 0.40497 0.75748 0.32846 0.0
H838 H 0.1305 0.70879 0.87368 0.0
H839 H 0.10788 0.80173 0.75527 0.0
H840 H 0.25196 0.71812 0.82511 0.0
H841 H 0.06335 0.841 0.82146 0.0
H842 H 0.14726 0.76295 0.77813 0.0
H843 H 0.09101 0.74958 0.85223 0.0
C844 C 0.14865 0.7193 0.85844 0.0
C845 C 0.19453 0.71015 0.8511 0.0
C846 C 0.12908 0.7802 0.78758 0.0
C847 C 0.14942 0.75606 0.8265 0.0
C848 C 0.10704 0.80263 0.7746 0.0
C849 C 0.08374 0.82548 0.78641 0.0
C850 C 0.12622 0.77978 0.81259 0.0
C851 C 0.08153 0.82416 0.81157 0.0
C852 C 0.12631 0.7426 0.8464 0.0
C853 C 0.21668 0.72459 0.83137 0.0
N854 N 0.10226 0.80153 0.82387 0.0
N855 N 0.19365 0.74659 0.81954 0.0
loop_
_geom_bond_atom_site_label_1
_geom_bond_atom_site_label_2
_geom_bond_distance
_geom_bond_site_symmetry_2
_ccdc_geom_bond_type
O0 Cd1 2.300 . S
O0 C7 1.275 . S
Cd1 O0 2.300 . S
Cd1 O9 2.381 . S
Cd1 O10 2.378 . S
O2 Cd3 2.385 . S
O2 C7 1.255 . S
Cd3 O2 2.385 . S
Cd3 O4 2.317 . S
O4 Cd3 2.317 . S
O4 C5 1.232 . S
C5 O4 1.232 . S
C5 O6 1.218 . S
O6 C5 1.218 . S
C7 O0 1.275 . S
C7 O2 1.255 . S
C8 O9 1.258 . S
C8 O10 1.256 . S
O9 Cd1 2.381 . S
O9 C8 1.258 . S
O10 Cd1 2.378 . S
O10 C8 1.256 . S
O11 Cd12 2.300 . S
O11 C18 1.275 . S
Cd12 O11 2.300 . S
Cd12 O20 2.381 . S
Cd12 O21 2.378 . S
O13 Cd14 2.385 . S
O13 C18 1.255 . S
Cd14 O13 2.385 . S
Cd14 O15 2.317 . S
O15 Cd14 2.317 . S
O15 C16 1.232 . S
C16 O15 1.232 . S
C16 O17 1.218 . S
O17 C16 1.218 . S
C18 O11 1.275 . S
C18 O13 1.255 . S
C19 O20 1.258 . S
C19 O21 1.256 . S
O20 Cd12 2.381 . S
O20 C19 1.258 . S
O21 Cd12 2.378 . S
O21 C19 1.256 . S
O22 Cd23 2.300 . S
O22 C29 1.275 . S
Cd23 O22 2.300 . S
Cd23 O31 2.381 . S
Cd23 O32 2.378 . S
O24 Cd25 2.385 . S
O24 C29 1.255 . S
Cd25 O24 2.385 . S
Cd25 O26 2.317 . S
O26 Cd25 2.317 . S
O26 C27 1.232 . S
C27 O26 1.232 . S
C27 O28 1.218 . S
O28 C27 1.218 . S
C29 O22 1.275 . S
C29 O24 1.255 . S
C30 O31 1.258 . S
C30 O32 1.256 . S
O31 Cd23 2.381 . S
O31 C30 1.258 . S
O32 Cd23 2.378 . S
O32 C30 1.256 . S
O33 Cd34 2.300 . S
O33 C40 1.275 . S
Cd34 O33 2.300 . S
Cd34 O42 2.381 . S
Cd34 O43 2.378 . S
O35 Cd36 2.385 . S
O35 C40 1.255 . S
Cd36 O35 2.385 . S
Cd36 O37 2.317 . S
O37 Cd36 2.317 . S
O37 C38 1.232 . S
C38 O37 1.232 . S
C38 O39 1.218 . S
O39 C38 1.218 . S
C40 O33 1.275 . S
C40 O35 1.255 . S
C41 O42 1.258 . S
C41 O43 1.256 . S
O42 Cd34 2.381 . S
O42 C41 1.258 . S
O43 Cd34 2.378 . S
O43 C41 1.256 . S
O44 Cd45 2.300 . S
O44 C51 1.275 . S
Cd45 O44 2.300 . S
Cd45 O53 2.381 . S
Cd45 O54 2.378 . S
O46 Cd47 2.385 . S
O46 C51 1.255 . S
Cd47 O46 2.385 . S
Cd47 O48 2.317 . S
O48 Cd47 2.317 . S
O48 C49 1.232 . S
C49 O48 1.232 . S
C49 O50 1.218 . S
O50 C49 1.218 . S
C51 O44 1.275 . S
C51 O46 1.255 . S
C52 O53 1.258 . S
C52 O54 1.256 . S
O53 Cd45 2.381 . S
O53 C52 1.258 . S
O54 Cd45 2.378 . S
O54 C52 1.256 . S
O55 Cd56 2.300 . S
O55 C62 1.275 . S
Cd56 O55 2.300 . S
Cd56 O64 2.381 . S
Cd56 O65 2.378 . S
O57 Cd58 2.385 . S
O57 C62 1.255 . S
Cd58 O57 2.385 . S
Cd58 O59 2.317 . S
O59 Cd58 2.317 . S
O59 C60 1.232 . S
C60 O59 1.232 . S
C60 O61 1.218 . S
O61 C60 1.218 . S
C62 O55 1.275 . S
C62 O57 1.255 . S
C63 O64 1.258 . S
C63 O65 1.256 . S
O64 Cd56 2.381 . S
O64 C63 1.258 . S
O65 Cd56 2.378 . S
O65 C63 1.256 . S
O66 Cd67 2.300 . S
O66 C73 1.275 . S
Cd67 O66 2.300 . S
Cd67 O75 2.381 . S
Cd67 O76 2.378 . S
O68 Cd69 2.385 . S
O68 C73 1.255 . S
Cd69 O68 2.385 . S
Cd69 O70 2.317 . S
O70 Cd69 2.317 . S
O70 C71 1.232 . S
C71 O70 1.232 . S
C71 O72 1.218 . S
O72 C71 1.218 . S
C73 O66 1.275 . S
C73 O68 1.255 . S
C74 O75 1.258 . S
C74 O76 1.256 . S
O75 Cd67 2.381 . S
O75 C74 1.258 . S
O76 Cd67 2.378 . S
O76 C74 1.256 . S
O77 Cd78 2.300 . S
O77 C84 1.275 . S
Cd78 O77 2.300 . S
Cd78 O86 2.381 . S
Cd78 O87 2.378 . S
O79 Cd80 2.385 . S
O79 C84 1.255 . S
Cd80 O79 2.385 . S
Cd80 O81 2.317 . S
O81 Cd80 2.317 . S
O81 C82 1.232 . S
C82 O81 1.232 . S
C82 O83 1.218 . S
O83 C82 1.218 . S
C84 O77 1.275 . S
C84 O79 1.255 . S
C85 O86 1.258 . S
C85 O87 1.256 . S
O86 Cd78 2.381 . S
O86 C85 1.258 . S
O87 Cd78 2.378 . S
O87 C85 1.256 . S
Tb88 N117 2.617 . S
Tb88 N123 2.572 . S
Tb88 O132 2.465 . S
Tb88 O133 2.387 . S
Tb88 O135 2.428 . S
Tb88 O136 2.308 . S
Tb88 O140 2.349 . S
Tb88 O143 2.393 . S
Tb88 C152 2.802 . S
C89 N90 1.379 . S
C89 C92 1.416 . S
C89 C96 1.424 . S
N90 C89 1.379 . S
N90 C93 1.334 . S
N90 Tb99 2.617 . S
C91 C93 1.390 . S
C91 C94 1.339 . S
C91 H111 0.930 . S
C92 C89 1.416 . S
C92 C94 1.416 . S
C92 C98 1.448 . S
C93 N90 1.334 . S
C93 C91 1.390 . S
C93 H104 0.930 . S
C94 C91 1.339 . S
C94 C92 1.416 . S
C94 H115 0.930 . S
C95 C96 1.413 . S
C95 C97 1.427 . S
C95 C101 1.416 . S
C96 C89 1.424 . S
C96 C95 1.413 . S
C96 N100 1.361 . S
C97 C95 1.427 . S
C97 C98 1.328 . S
C97 H112 0.929 . S
C98 C92 1.448 . S
C98 C97 1.328 . S
C98 H113 0.930 . S
Tb99 N90 2.617 . S
Tb99 N100 2.572 . S
Tb99 O134 2.349 1_655 S
Tb99 O137 2.393 . S
Tb99 O138 2.465 . S
Tb99 O139 2.387 . S
Tb99 O141 2.428 . S
Tb99 O142 2.308 1_655 S
Tb99 C163 2.802 . S
N100 C96 1.361 . S
N100 Tb99 2.572 . S
N100 C102 1.340 . S
C101 C95 1.416 . S
C101 C103 1.332 . S
C101 H109 0.931 1_545 S
C102 N100 1.340 . S
C102 C103 1.407 . S
C102 H108 0.930 . S
C103 C101 1.332 . S
C103 C102 1.407 . S
C103 H105 0.929 1_545 S
H104 C93 0.930 . S
H105 C103 0.929 1_565 S
H106 C121 0.930 . S
H107 C128 0.929 . S
H108 C102 0.930 . S
H109 C101 0.931 1_565 S
H110 C124 0.930 . S
H111 C91 0.930 . S
H112 C97 0.929 . S
H113 C98 0.930 . S
H114 C119 0.930 . S
H115 C94 0.930 . S
H116 C127 0.931 . S
N117 Tb88 2.617 . S
N117 C118 1.379 . S
N117 C121 1.334 . S
C118 N117 1.379 . S
C118 C120 1.416 . S
C118 C126 1.424 . S
C119 H114 0.930 . S
C119 C121 1.390 . S
C119 C122 1.339 . S
C120 C118 1.416 . S
C120 C122 1.416 . S
C120 C153 1.448 . S
C121 H106 0.930 . S
C121 N117 1.334 . S
C121 C119 1.390 . S
C122 C119 1.339 . S
C122 C120 1.416 . S
C122 H129 0.930 . S
N123 Tb88 2.572 . S
N123 C124 1.340 . S
N123 C126 1.361 . S
C124 H110 0.930 . S
C124 N123 1.340 . S
C124 C128 1.407 . S
C125 C126 1.413 . S
C125 C127 1.416 . S
C125 C154 1.427 . S
C126 C118 1.424 . S
C126 N123 1.361 . S
C126 C125 1.413 . S
C127 H116 0.931 . S
C127 C125 1.416 . S
C127 C128 1.332 . S
C128 H107 0.929 . S
C128 C124 1.407 . S
C128 C127 1.332 . S
H129 C122 0.930 . S
H130 C153 0.930 . S
H131 C154 0.929 . S
O132 Tb88 2.465 . S
O132 C152 1.264 . S
O133 Tb88 2.387 . S
O133 C144 1.264 . S
O134 Tb99 2.349 1_455 S
O134 C144 1.243 . S
O135 Tb88 2.428 . S
O135 C152 1.256 . S
O136 Tb88 2.308 . S
O136 C151 1.266 1_455 S
O137 Tb99 2.393 . S
O137 C151 1.248 . S
O138 Tb99 2.465 . S
O138 C163 1.264 . S
O139 Tb99 2.387 . S
O139 C155 1.264 . S
O140 Tb88 2.349 . S
O140 C155 1.243 1_455 S
O141 Tb99 2.428 . S
O141 C163 1.256 . S
O142 Tb99 2.308 1_455 S
O142 C162 1.266 . S
O143 Tb88 2.393 . S
O143 C162 1.248 . S
C144 O133 1.264 . S
C144 O134 1.243 . S
C145 C148 1.399 . S
C145 C150 1.383 . S
C145 C152 1.496 . S
C146 C147 1.399 . S
C146 C150 1.389 . S
C147 C146 1.399 . S
C147 C149 1.380 . S
C147 H164 0.929 . S
C148 C145 1.399 . S
C148 C149 1.392 . S
C148 H165 0.929 . S
C149 C147 1.380 . S
C149 C148 1.392 . S
C149 H166 0.929 . S
C150 C145 1.383 . S
C150 C146 1.389 . S
C150 H167 0.931 . S
C151 O136 1.266 1_655 S
C151 O137 1.248 . S
C152 Tb88 2.802 . S
C152 O132 1.264 . S
C152 O135 1.256 . S
C152 C145 1.496 . S
C153 C120 1.448 . S
C153 H130 0.930 . S
C153 C154 1.328 . S
C154 C125 1.427 . S
C154 H131 0.929 . S
C154 C153 1.328 . S
C155 O139 1.264 . S
C155 O140 1.243 1_655 S
C156 C159 1.399 . S
C156 C160 1.383 . S
C156 C163 1.496 . S
C157 C158 1.399 . S
C157 C160 1.389 . S
C158 C157 1.399 . S
C158 C161 1.380 . S
C158 H168 0.929 . S
C159 C156 1.399 . S
C159 C161 1.392 . S
C159 H169 0.929 . S
C160 C156 1.383 . S
C160 C157 1.389 . S
C160 H170 0.931 . S
C161 C158 1.380 . S
C161 C159 1.392 . S
C161 H171 0.929 . S
C162 O142 1.266 . S
C162 O143 1.248 . S
C163 Tb99 2.802 . S
C163 O138 1.264 . S
C163 O141 1.256 . S
C163 C156 1.496 . S
H164 C147 0.929 . S
H165 C148 0.929 . S
H166 C149 0.929 . S
H167 C150 0.931 . S
H168 C158 0.929 . S
H169 C159 0.929 . S
H170 C160 0.931 . S
H171 C161 0.929 . S
Tb172 N201 2.617 . S
Tb172 N207 2.572 . S
Tb172 O216 2.465 . S
Tb172 O217 2.387 . S
Tb172 O219 2.428 . S
Tb172 O220 2.308 . S
Tb172 O224 2.349 . S
Tb172 O227 2.393 . S
Tb172 C236 2.802 . S
C173 N174 1.379 . S
C173 C176 1.416 . S
C173 C180 1.424 . S
N174 C173 1.379 . S
N174 C177 1.334 . S
N174 Tb183 2.617 . S
C175 C177 1.390 . S
C175 C178 1.339 . S
C175 H195 0.930 . S
C176 C173 1.416 . S
C176 C178 1.416 . S
C176 C182 1.448 . S
C177 N174 1.334 . S
C177 C175 1.390 . S
C177 H188 0.930 . S
C178 C175 1.339 . S
C178 C176 1.416 . S
C178 H199 0.930 . S
C179 C180 1.413 . S
C179 C181 1.427 . S
C179 C185 1.416 . S
C180 C173 1.424 . S
C180 C179 1.413 . S
C180 N184 1.361 . S
C181 C179 1.427 . S
C181 C182 1.328 . S
C181 H196 0.929 . S
C182 C176 1.448 . S
C182 C181 1.328 . S
C182 H197 0.930 . S
Tb183 N174 2.617 . S
Tb183 N184 2.572 . S
Tb183 O218 2.349 . S
Tb183 O221 2.393 . S
Tb183 O222 2.465 . S
Tb183 O223 2.387 . S
Tb183 O225 2.428 . S
Tb183 O226 2.308 . S
Tb183 C247 2.802 . S
N184 C180 1.361 . S
N184 Tb183 2.572 . S
N184 C186 1.340 . S
C185 C179 1.416 . S
C185 C187 1.332 . S
C185 H193 0.931 . S
C186 N184 1.340 . S
C186 C187 1.407 . S
C186 H192 0.930 . S
C187 C185 1.332 . S
C187 C186 1.407 . S
C187 H189 0.929 . S
H188 C177 0.930 . S
H189 C187 0.929 . S
H190 C205 0.930 . S
H191 C212 0.929 . S
H192 C186 0.930 . S
H193 C185 0.931 . S
H194 C208 0.930 . S
H195 C175 0.930 . S
H196 C181 0.929 . S
H197 C182 0.930 . S
H198 C203 0.930 . S
H199 C178 0.930 . S
H200 C211 0.931 . S
N201 Tb172 2.617 . S
N201 C202 1.379 . S
N201 C205 1.334 . S
C202 N201 1.379 . S
C202 C204 1.416 . S
C202 C210 1.424 . S
C203 H198 0.930 . S
C203 C205 1.390 . S
C203 C206 1.339 . S
C204 C202 1.416 . S
C204 C206 1.416 . S
C204 C237 1.448 . S
C205 H190 0.930 . S
C205 N201 1.334 . S
C205 C203 1.390 . S
C206 C203 1.339 . S
C206 C204 1.416 . S
C206 H213 0.930 . S
N207 Tb172 2.572 . S
N207 C208 1.340 . S
N207 C210 1.361 . S
C208 H194 0.930 . S
C208 N207 1.340 . S
C208 C212 1.407 . S
C209 C210 1.413 . S
C209 C211 1.416 . S
C209 C238 1.427 . S
C210 C202 1.424 . S
C210 N207 1.361 . S
C210 C209 1.413 . S
C211 H200 0.931 . S
C211 C209 1.416 . S
C211 C212 1.332 . S
C212 H191 0.929 . S
C212 C208 1.407 . S
C212 C211 1.332 . S
H213 C206 0.930 . S
H214 C237 0.930 . S
H215 C238 0.929 . S
O216 Tb172 2.465 . S
O216 C236 1.264 . S
O217 Tb172 2.387 . S
O217 C228 1.264 . S
O218 Tb183 2.349 . S
O218 C228 1.243 . S
O219 Tb172 2.428 . S
O219 C236 1.256 . S
O220 Tb172 2.308 . S
O220 C235 1.266 . S
O221 Tb183 2.393 . S
O221 C235 1.248 . S
O222 Tb183 2.465 . S
O222 C247 1.264 . S
O223 Tb183 2.387 . S
O223 C239 1.264 . S
O224 Tb172 2.349 . S
O224 C239 1.243 . S
O225 Tb183 2.428 . S
O225 C247 1.256 . S
O226 Tb183 2.308 . S
O226 C246 1.266 . S
O227 Tb172 2.393 . S
O227 C246 1.248 . S
C228 O217 1.264 . S
C228 O218 1.243 . S
C229 C232 1.399 . S
C229 C234 1.383 . S
C229 C236 1.496 . S
C230 C231 1.399 . S
C230 C234 1.389 . S
C231 C230 1.399 . S
C231 C233 1.380 . S
C231 H248 0.929 . S
C232 C229 1.399 . S
C232 C233 1.392 . S
C232 H249 0.929 . S
C233 C231 1.380 . S
C233 C232 1.392 . S
C233 H250 0.929 . S
C234 C229 1.383 . S
C234 C230 1.389 . S
C234 H251 0.931 . S
C235 O220 1.266 . S
C235 O221 1.248 . S
C236 Tb172 2.802 . S
C236 O216 1.264 . S
C236 O219 1.256 . S
C236 C229 1.496 . S
C237 C204 1.448 . S
C237 H214 0.930 . S
C237 C238 1.328 . S
C238 C209 1.427 . S
C238 H215 0.929 . S
C238 C237 1.328 . S
C239 O223 1.264 . S
C239 O224 1.243 . S
C240 C243 1.399 . S
C240 C244 1.383 . S
C240 C247 1.496 . S
C241 C242 1.399 . S
C241 C244 1.389 . S
C242 C241 1.399 . S
C242 C245 1.380 . S
C242 H252 0.929 . S
C243 C240 1.399 . S
C243 C245 1.392 . S
C243 H253 0.929 . S
C244 C240 1.383 . S
C244 C241 1.389 . S
C244 H254 0.931 . S
C245 C242 1.380 . S
C245 C243 1.392 . S
C245 H255 0.929 . S
C246 O226 1.266 . S
C246 O227 1.248 . S
C247 Tb183 2.802 . S
C247 O222 1.264 . S
C247 O225 1.256 . S
C247 C240 1.496 . S
H248 C231 0.929 . S
H249 C232 0.929 . S
H250 C233 0.929 . S
H251 C234 0.931 . S
H252 C242 0.929 . S
H253 C243 0.929 . S
H254 C244 0.931 . S
H255 C245 0.929 . S
Tb256 N285 2.617 . S
Tb256 N291 2.572 . S
Tb256 O300 2.465 . S
Tb256 O301 2.387 . S
Tb256 O303 2.428 . S
Tb256 O304 2.308 . S
Tb256 O308 2.361 . S
Tb256 O311 2.393 . S
Tb256 C320 2.802 . S
C257 N258 1.379 . S
C257 C260 1.416 . S
C257 C264 1.424 . S
N258 C257 1.379 . S
N258 C261 1.334 . S
N258 Tb267 2.617 . S
C259 C261 1.390 . S
C259 C262 1.339 . S
C259 H279 0.930 . S
C260 C257 1.416 . S
C260 C262 1.416 . S
C260 C266 1.448 . S
C261 N258 1.334 . S
C261 C259 1.390 . S
C261 H272 0.930 . S
C262 C259 1.339 . S
C262 C260 1.416 . S
C262 H283 0.930 . S
C263 C264 1.413 . S
C263 C265 1.427 . S
C263 C269 1.416 . S
C264 C257 1.424 . S
C264 C263 1.413 . S
C264 N268 1.361 . S
C265 C263 1.427 . S
C265 C266 1.328 . S
C265 H280 0.929 . S
C266 C260 1.448 . S
C266 C265 1.328 . S
C266 H281 0.930 . S
Tb267 N258 2.617 . S
Tb267 N268 2.572 . S
Tb267 O302 2.349 1_655 S
Tb267 O305 2.393 . S
Tb267 O306 2.465 . S
Tb267 O307 2.387 . S
Tb267 O309 2.428 . S
Tb267 O310 2.308 1_655 S
Tb267 C331 2.802 . S
N268 C264 1.361 . S
N268 Tb267 2.572 . S
N268 C270 1.340 . S
C269 C263 1.416 . S
C269 C271 1.332 . S
C269 H277 0.931 . S
C270 N268 1.340 . S
C270 C271 1.407 . S
C270 H276 0.930 . S
C271 C269 1.332 . S
C271 C270 1.407 . S
C271 H273 0.929 . S
H272 C261 0.930 . S
H273 C271 0.929 . S
H274 C289 0.930 . S
H275 C296 0.929 1_545 S
H276 C270 0.930 . S
H277 C269 0.931 . S
H278 C292 0.930 . S
H279 C259 0.930 . S
H280 C265 0.929 . S
H281 C266 0.930 . S
H282 C287 0.930 . S
H283 C262 0.930 . S
H284 C295 0.931 1_545 S
N285 Tb256 2.617 . S
N285 C286 1.379 . S
N285 C289 1.334 . S
C286 N285 1.379 . S
C286 C288 1.416 . S
C286 C294 1.424 . S
C287 H282 0.930 . S
C287 C289 1.390 . S
C287 C290 1.339 . S
C288 C286 1.416 . S
C288 C290 1.416 . S
C288 C321 1.448 . S
C289 H274 0.930 . S
C289 N285 1.334 . S
C289 C287 1.390 . S
C290 C287 1.339 . S
C290 C288 1.416 . S
C290 H297 0.930 . S
N291 Tb256 2.572 . S
N291 C292 1.340 . S
N291 C294 1.361 . S
C292 H278 0.930 . S
C292 N291 1.340 . S
C292 C296 1.407 . S
C293 C294 1.413 . S
C293 C295 1.416 . S
C293 C322 1.427 . S
C294 C286 1.424 . S
C294 N291 1.361 . S
C294 C293 1.413 . S
C295 H284 0.931 1_565 S
C295 C293 1.416 . S
C295 C296 1.332 . S
C296 H275 0.929 1_565 S
C296 C292 1.407 . S
C296 C295 1.332 . S
H297 C290 0.930 . S
H298 C321 0.930 . S
H299 C322 0.929 . S
O300 Tb256 2.465 . S
O300 C320 1.264 . S
O301 Tb256 2.387 . S
O301 C312 1.264 . S
O302 Tb267 2.349 1_455 S
O302 C312 1.243 . S
O303 Tb256 2.428 . S
O303 C320 1.256 . S
O304 Tb256 2.308 . S
O304 C319 1.266 1_455 S
O305 Tb267 2.393 . S
O305 C319 1.248 . S
O306 Tb267 2.465 . S
O306 C331 1.264 . S
O307 Tb267 2.387 . S
O307 C323 1.264 . S
O308 Tb256 2.361 . S
O308 C323 1.229 1_455 S
O309 Tb267 2.428 . S
O309 C331 1.256 . S
O310 Tb267 2.308 1_455 S
O310 C330 1.266 . S
O311 Tb256 2.393 . S
O311 C330 1.248 . S
C312 O301 1.264 . S
C312 O302 1.243 . S
C313 C316 1.399 . S
C313 C318 1.383 . S
C313 C320 1.496 . S
C314 C315 1.399 . S
C314 C318 1.389 . S
C315 C314 1.399 . S
C315 C317 1.380 . S
C315 H332 0.929 . S
C316 C313 1.399 . S
C316 C317 1.392 . S
C316 H333 0.929 . S
C317 C315 1.380 . S
C317 C316 1.392 . S
C317 H334 0.929 . S
C318 C313 1.383 . S
C318 C314 1.389 . S
C318 H335 0.931 . S
C319 O304 1.266 1_655 S
C319 O305 1.248 . S
C320 Tb256 2.802 . S
C320 O300 1.264 . S
C320 O303 1.256 . S
C320 C313 1.496 . S
C321 C288 1.448 . S
C321 H298 0.930 . S
C321 C322 1.328 . S
C322 C293 1.427 . S
C322 H299 0.929 . S
C322 C321 1.328 . S
C323 O307 1.264 . S
C323 O308 1.229 1_655 S
C324 C327 1.399 . S
C324 C328 1.383 . S
C324 C331 1.496 . S
C325 C326 1.399 . S
C325 C328 1.389 . S
C326 C325 1.399 . S
C326 C329 1.380 . S
C326 H336 0.929 . S
C327 C324 1.399 . S
C327 C329 1.392 . S
C327 H337 0.929 . S
C328 C324 1.383 . S
C328 C325 1.389 . S
C328 H338 0.931 . S
C329 C326 1.380 . S
C329 C327 1.392 . S
C329 H339 0.929 . S
C330 O310 1.266 . S
C330 O311 1.248 . S
C331 Tb267 2.802 . S
C331 O306 1.264 . S
C331 O309 1.256 . S
C331 C324 1.496 . S
H332 C315 0.929 . S
H333 C316 0.929 . S
H334 C317 0.929 . S
H335 C318 0.931 . S
H336 C326 0.929 . S
H337 C327 0.929 . S
H338 C328 0.931 . S
H339 C329 0.929 . S
Tb340 N369 2.617 . S
Tb340 N375 2.572 . S
Tb340 O384 2.465 . S
Tb340 O385 2.387 . S
Tb340 O387 2.428 . S
Tb340 O388 2.308 . S
Tb340 O392 2.349 . S
Tb340 O395 2.393 . S
Tb340 C404 2.802 . S
C341 N342 1.379 . S
C341 C344 1.416 . S
C341 C348 1.424 . S
N342 C341 1.379 . S
N342 C345 1.334 . S
N342 Tb351 2.617 . S
C343 C345 1.390 . S
C343 C346 1.339 . S
C343 H363 0.930 . S
C344 C341 1.416 . S
C344 C346 1.416 . S
C344 C350 1.448 . S
C345 N342 1.334 . S
C345 C343 1.390 . S
C345 H356 0.930 . S
C346 C343 1.339 . S
C346 C344 1.416 . S
C346 H367 0.930 . S
C347 C348 1.413 . S
C347 C349 1.427 . S
C347 C353 1.416 . S
C348 C341 1.424 . S
C348 C347 1.413 . S
C348 N352 1.361 . S
C349 C347 1.427 . S
C349 C350 1.328 . S
C349 H364 0.929 . S
C350 C344 1.448 . S
C350 C349 1.328 . S
C350 H365 0.930 . S
Tb351 N342 2.617 . S
Tb351 N352 2.572 . S
Tb351 O386 2.349 . S
Tb351 O389 2.393 . S
Tb351 O390 2.465 . S
Tb351 O391 2.387 . S
Tb351 O393 2.428 . S
Tb351 O394 2.308 . S
Tb351 C415 2.802 . S
N352 C348 1.361 . S
N352 Tb351 2.572 . S
N352 C354 1.340 . S
C353 C347 1.416 . S
C353 C355 1.332 . S
C353 H361 0.931 . S
C354 N352 1.340 . S
C354 C355 1.407 . S
C354 H360 0.930 . S
C355 C353 1.332 . S
C355 C354 1.407 . S
C355 H357 0.929 . S
H356 C345 0.930 . S
H357 C355 0.929 . S
H358 C373 0.930 . S
H359 C380 0.929 . S
H360 C354 0.930 . S
H361 C353 0.931 . S
H362 C376 0.930 . S
H363 C343 0.930 . S
H364 C349 0.929 . S
H365 C350 0.930 . S
H366 C371 0.930 . S
H367 C346 0.930 . S
H368 C379 0.931 . S
N369 Tb340 2.617 . S
N369 C370 1.379 . S
N369 C373 1.334 . S
C370 N369 1.379 . S
C370 C372 1.416 . S
C370 C378 1.424 . S
C371 H366 0.930 . S
C371 C373 1.390 . S
C371 C374 1.339 . S
C372 C370 1.416 . S
C372 C374 1.416 . S
C372 C405 1.448 . S
C373 H358 0.930 . S
C373 N369 1.334 . S
C373 C371 1.390 . S
C374 C371 1.339 . S
C374 C372 1.416 . S
C374 H381 0.930 . S
N375 Tb340 2.572 . S
N375 C376 1.340 . S
N375 C378 1.361 . S
C376 H362 0.930 . S
C376 N375 1.340 . S
C376 C380 1.407 . S
C377 C378 1.413 . S
C377 C379 1.416 . S
C377 C406 1.427 . S
C378 C370 1.424 . S
C378 N375 1.361 . S
C378 C377 1.413 . S
C379 H368 0.931 . S
C379 C377 1.416 . S
C379 C380 1.332 . S
C380 H359 0.929 . S
C380 C376 1.407 . S
C380 C379 1.332 . S
H381 C374 0.930 . S
H382 C405 0.930 . S
H383 C406 0.929 . S
O384 Tb340 2.465 . S
O384 C404 1.264 . S
O385 Tb340 2.387 . S
O385 C396 1.264 . S
O386 Tb351 2.349 . S
O386 C396 1.243 . S
O387 Tb340 2.428 . S
O387 C404 1.256 . S
O388 Tb340 2.308 . S
O388 C403 1.266 . S
O389 Tb351 2.393 . S
O389 C403 1.248 . S
O390 Tb351 2.465 . S
O390 C415 1.264 . S
O391 Tb351 2.387 . S
O391 C407 1.264 . S
O392 Tb340 2.349 . S
O392 C407 1.243 . S
O393 Tb351 2.428 . S
O393 C415 1.256 . S
O394 Tb351 2.308 . S
O394 C414 1.266 . S
O395 Tb340 2.393 . S
O395 C414 1.248 . S
C396 O385 1.264 . S
C396 O386 1.243 . S
C397 C400 1.399 . S
C397 C402 1.383 . S
C397 C404 1.496 . S
C398 C399 1.399 . S
C398 C402 1.389 . S
C399 C398 1.399 . S
C399 C401 1.380 . S
C399 H416 0.929 . S
C400 C397 1.399 . S
C400 C401 1.392 . S
C400 H417 0.929 . S
C401 C399 1.380 . S
C401 C400 1.392 . S
C401 H418 0.929 . S
C402 C397 1.383 . S
C402 C398 1.389 . S
C402 H419 0.931 . S
C403 O388 1.266 . S
C403 O389 1.248 . S
C404 Tb340 2.802 . S
C404 O384 1.264 . S
C404 O387 1.256 . S
C404 C397 1.496 . S
C405 C372 1.448 . S
C405 H382 0.930 . S
C405 C406 1.328 . S
C406 C377 1.427 . S
C406 H383 0.929 . S
C406 C405 1.328 . S
C407 O391 1.264 . S
C407 O392 1.243 . S
C408 C411 1.399 . S
C408 C412 1.383 . S
C408 C415 1.496 . S
C409 C410 1.399 . S
C409 C412 1.389 . S
C410 C409 1.399 . S
C410 C413 1.380 . S
C410 H420 0.929 . S
C411 C408 1.399 . S
C411 C413 1.392 . S
C411 H421 0.929 . S
C412 C408 1.383 . S
C412 C409 1.389 . S
C412 H422 0.931 . S
C413 C410 1.380 . S
C413 C411 1.392 . S
C413 H423 0.929 . S
C414 O394 1.266 . S
C414 O395 1.248 . S
C415 Tb351 2.802 . S
C415 O390 1.264 . S
C415 O393 1.256 . S
C415 C408 1.496 . S
H416 C399 0.929 . S
H417 C400 0.929 . S
H418 C401 0.929 . S
H419 C402 0.931 . S
H420 C410 0.929 . S
H421 C411 0.929 . S
H422 C412 0.931 . S
H423 C413 0.929 . S
H424 C430 0.930 . S
H425 C434 0.930 . S
H426 C439 0.929 . S
H427 C437 0.929 . S
H428 C432 0.929 . S
H429 C438 0.929 . S
C430 H424 0.930 . S
C430 C431 1.367 . S
C430 C438 1.378 . S
C431 C430 1.367 . S
C431 C439 1.433 . S
C432 H428 0.929 . S
C432 C434 1.378 1_565 S
C432 C436 1.350 . S
C433 C436 1.463 . S
C433 C438 1.350 . S
C433 N441 1.427 . S
C434 H425 0.930 . S
C434 C432 1.378 1_545 S
C434 C435 1.367 . S
C435 C434 1.367 . S
C435 C437 1.433 . S
C436 C432 1.350 . S
C436 C433 1.463 . S
C436 N440 1.427 1_565 S
C437 H427 0.929 . S
C437 C435 1.433 . S
C437 N440 1.384 . S
C438 H429 0.929 . S
C438 C430 1.378 . S
C438 C433 1.350 . S
C439 H426 0.929 . S
C439 C431 1.433 . S
C439 N441 1.384 . S
N440 C436 1.427 1_545 S
N440 C437 1.384 . S
N441 C433 1.427 . S
N441 C439 1.384 . S
H442 C448 0.930 . S
H443 C452 0.930 . S
H444 C457 0.929 . S
H445 C455 0.929 . S
H446 C450 0.929 . S
H447 C456 0.929 . S
C448 H442 0.930 . S
C448 C449 1.367 . S
C448 C456 1.378 . S
C449 C448 1.367 . S
C449 C457 1.433 . S
C450 H446 0.929 . S
C450 C452 1.378 . S
C450 C454 1.350 . S
C451 C454 1.463 . S
C451 C456 1.350 . S
C451 N459 1.427 . S
C452 H443 0.930 . S
C452 C450 1.378 . S
C452 C453 1.367 . S
C453 C452 1.367 . S
C453 C455 1.433 . S
C454 C450 1.350 . S
C454 C451 1.463 . S
C454 N458 1.427 . S
C455 H445 0.929 . S
C455 C453 1.433 . S
C455 N458 1.384 . S
C456 H447 0.929 . S
C456 C448 1.378 . S
C456 C451 1.350 . S
C457 H444 0.929 . S
C457 C449 1.433 . S
C457 N459 1.384 . S
N458 C454 1.427 . S
N458 C455 1.384 . S
N459 C451 1.427 . S
N459 C457 1.384 . S
H460 C466 0.930 . S
H461 C470 0.930 . S
H462 C475 0.929 . S
H463 C473 0.929 . S
H464 C468 0.929 . S
H465 C474 0.929 . S
C466 H460 0.930 . S
C466 C467 1.367 . S
C466 C474 1.378 . S
C467 C466 1.367 . S
C467 C475 1.433 . S
C468 H464 0.929 . S
C468 C470 1.378 . S
C468 C472 1.350 . S
C469 C472 1.463 . S
C469 C474 1.350 . S
C469 N477 1.427 . S
C470 H461 0.930 . S
C470 C468 1.378 . S
C470 C471 1.367 . S
C471 C470 1.367 . S
C471 C473 1.433 . S
C472 C468 1.350 . S
C472 C469 1.463 . S
C472 N476 1.427 . S
C473 H463 0.929 . S
C473 C471 1.433 . S
C473 N476 1.384 . S
C474 H465 0.929 . S
C474 C466 1.378 . S
C474 C469 1.350 . S
C475 H462 0.929 . S
C475 C467 1.433 . S
C475 N477 1.384 . S
N476 C472 1.427 . S
N476 C473 1.384 . S
N477 C469 1.427 . S
N477 C475 1.384 . S
H478 C484 0.930 . S
H479 C488 0.930 . S
H480 C493 0.929 . S
H481 C491 0.929 1_565 S
H482 C486 0.929 . S
H483 C492 0.929 . S
C484 H478 0.930 . S
C484 C485 1.367 . S
C484 C492 1.378 . S
C485 C484 1.367 . S
C485 C493 1.433 . S
C486 H482 0.929 . S
C486 C488 1.378 . S
C486 C490 1.350 1_545 S
C487 C490 1.463 . S
C487 C492 1.350 . S
C487 N495 1.427 . S
C488 H479 0.930 . S
C488 C486 1.378 . S
C488 C489 1.367 . S
C489 C488 1.367 . S
C489 C491 1.433 . S
C490 C486 1.350 1_565 S
C490 C487 1.463 . S
C490 N494 1.427 . S
C491 H481 0.929 1_545 S
C491 C489 1.433 . S
C491 N494 1.384 1_545 S
C492 H483 0.929 . S
C492 C484 1.378 . S
C492 C487 1.350 . S
C493 H480 0.929 . S
C493 C485 1.433 . S
C493 N495 1.384 . S
N494 C490 1.427 . S
N494 C491 1.384 1_565 S
N495 C487 1.427 . S
N495 C493 1.384 . S
H496 C502 0.930 . S
H497 C506 0.930 . S
H498 C511 0.929 . S
H499 C509 0.929 . S
H500 C504 0.929 . S
H501 C510 0.929 . S
C502 H496 0.930 . S
C502 C503 1.367 . S
C502 C510 1.378 . S
C503 C502 1.367 . S
C503 C511 1.433 . S
C504 H500 0.929 . S
C504 C506 1.378 . S
C504 C508 1.350 1_565 S
C505 C508 1.463 . S
C505 C510 1.350 . S
C505 N513 1.427 . S
C506 H497 0.930 . S
C506 C504 1.378 . S
C506 C507 1.367 . S
C507 C506 1.367 . S
C507 C509 1.433 . S
C508 C504 1.350 1_545 S
C508 C505 1.463 . S
C508 N512 1.427 . S
C509 H499 0.929 . S
C509 C507 1.433 . S
C509 N512 1.384 1_565 S
C510 H501 0.929 . S
C510 C502 1.378 . S
C510 C505 1.350 . S
C511 H498 0.929 . S
C511 C503 1.433 . S
C511 N513 1.384 . S
N512 C508 1.427 . S
N512 C509 1.384 1_545 S
N513 C505 1.427 . S
N513 C511 1.384 . S
H514 C520 0.930 . S
H515 C524 0.930 . S
H516 C529 0.929 . S
H517 C527 0.929 . S
H518 C522 0.929 . S
H519 C528 0.929 . S
C520 H514 0.930 . S
C520 C521 1.367 . S
C520 C528 1.378 . S
C521 C520 1.367 . S
C521 C529 1.433 . S
C522 H518 0.929 . S
C522 C524 1.378 . S
C522 C526 1.350 . S
C523 C526 1.463 . S
C523 C528 1.350 . S
C523 N531 1.427 . S
C524 H515 0.930 . S
C524 C522 1.378 . S
C524 C525 1.367 . S
C525 C524 1.367 . S
C525 C527 1.433 . S
C526 C522 1.350 . S
C526 C523 1.463 . S
C526 N530 1.427 . S
C527 H517 0.929 . S
C527 C525 1.433 . S
C527 N530 1.384 . S
C528 H519 0.929 . S
C528 C520 1.378 . S
C528 C523 1.350 . S
C529 H516 0.929 . S
C529 C521 1.433 . S
C529 N531 1.384 . S
N530 C526 1.427 . S
N530 C527 1.384 . S
N531 C523 1.427 . S
N531 C529 1.384 . S
H532 C538 0.930 . S
H533 C542 0.930 . S
H534 C547 0.929 . S
H535 C545 0.929 . S
H536 C540 0.929 . S
H537 C546 0.929 . S
C538 H532 0.930 . S
C538 C539 1.367 . S
C538 C546 1.378 . S
C539 C538 1.367 . S
C539 C547 1.433 . S
C540 H536 0.929 . S
C540 C542 1.378 . S
C540 C544 1.350 . S
C541 C544 1.463 . S
C541 C546 1.350 . S
C541 N549 1.427 . S
C542 H533 0.930 . S
C542 C540 1.378 . S
C542 C543 1.367 . S
C543 C542 1.367 . S
C543 C545 1.433 . S
C544 C540 1.350 . S
C544 C541 1.463 . S
C544 N548 1.427 . S
C545 H535 0.929 . S
C545 C543 1.433 . S
C545 N548 1.384 . S
C546 H537 0.929 . S
C546 C538 1.378 . S
C546 C541 1.350 . S
C547 H534 0.929 . S
C547 C539 1.433 . S
C547 N549 1.384 . S
N548 C544 1.427 . S
N548 C545 1.384 . S
N549 C541 1.427 . S
N549 C547 1.384 . S
H550 C556 0.930 . S
H551 C560 0.930 . S
H552 C565 0.929 . S
H553 C563 0.929 . S
H554 C558 0.929 . S
H555 C564 0.929 . S
C556 H550 0.930 . S
C556 C557 1.367 . S
C556 C564 1.378 . S
C557 C556 1.367 . S
C557 C565 1.433 . S
C558 H554 0.929 . S
C558 C560 1.378 . S
C558 C562 1.350 . S
C559 C562 1.463 1_545 S
C559 C564 1.350 . S
C559 N567 1.427 . S
C560 H551 0.930 . S
C560 C558 1.378 . S
C560 C561 1.367 . S
C561 C560 1.367 . S
C561 C563 1.433 . S
C562 C558 1.350 . S
C562 C559 1.463 1_565 S
C562 N566 1.427 1_565 S
C563 H553 0.929 . S
C563 C561 1.433 . S
C563 N566 1.384 1_565 S
C564 H555 0.929 . S
C564 C556 1.378 . S
C564 C559 1.350 . S
C565 H552 0.929 . S
C565 C557 1.433 . S
C565 N567 1.384 . S
N566 C562 1.427 1_545 S
N566 C563 1.384 1_545 S
N567 C559 1.427 . S
N567 C565 1.384 . S
H568 C574 0.930 . S
H569 C578 0.930 . S
H570 C583 0.929 . S
H571 C581 0.929 . S
H572 C576 0.929 . S
H573 C582 0.929 . S
C574 H568 0.930 . S
C574 C575 1.367 . S
C574 C582 1.378 1_556 S
C575 C574 1.367 . S
C575 C583 1.433 . S
C576 H572 0.929 . S
C576 C578 1.378 . S
C576 C580 1.350 . S
C577 C580 1.463 . S
C577 C582 1.350 . S
C577 N585 1.427 1_554 S
C578 H569 0.930 . S
C578 C576 1.378 . S
C578 C579 1.367 . S
C579 C578 1.367 . S
C579 C581 1.433 . S
C580 C576 1.350 . S
C580 C577 1.463 . S
C580 N584 1.427 . S
C581 H571 0.929 . S
C581 C579 1.433 . S
C581 N584 1.384 . S
C582 H573 0.929 . S
C582 C574 1.378 1_554 S
C582 C577 1.350 . S
C583 H570 0.929 . S
C583 C575 1.433 . S
C583 N585 1.384 . S
N584 C580 1.427 . S
N584 C581 1.384 . S
N585 C577 1.427 1_556 S
N585 C583 1.384 . S
H586 C592 0.930 . S
H587 C596 0.930 . S
H588 C601 0.929 . S
H589 C599 0.929 . S
H590 C594 0.929 . S
H591 C600 0.929 . S
C592 H586 0.930 . S
C592 C593 1.367 . S
C592 C600 1.378 . S
C593 C592 1.367 . S
C593 C601 1.433 . S
C594 H590 0.929 . S
C594 C596 1.378 . S
C594 C598 1.350 . S
C595 C598 1.463 . S
C595 C600 1.350 . S
C595 N603 1.427 . S
C596 H587 0.930 . S
C596 C594 1.378 . S
C596 C597 1.367 . S
C597 C596 1.367 . S
C597 C599 1.433 . S
C598 C594 1.350 . S
C598 C595 1.463 . S
C598 N602 1.427 . S
C599 H589 0.929 . S
C599 C597 1.433 . S
C599 N602 1.384 . S
C600 H591 0.929 . S
C600 C592 1.378 . S
C600 C595 1.350 . S
C601 H588 0.929 . S
C601 C593 1.433 . S
C601 N603 1.384 . S
N602 C598 1.427 . S
N602 C599 1.384 . S
N603 C595 1.427 . S
N603 C601 1.384 . S
H604 C610 0.930 . S
H605 C614 0.930 . S
H606 C619 0.929 . S
H607 C617 0.929 . S
H608 C612 0.929 . S
H609 C618 0.912 1_556 S
C610 H604 0.930 . S
C610 C611 1.367 . S
C610 C618 1.421 . S
C611 C610 1.367 . S
C611 C619 1.433 . S
C612 H608 0.929 . S
C612 C614 1.378 . S
C612 C616 1.350 . S
C613 C616 1.463 . S
C613 C618 1.325 1_556 S
C613 N621 1.427 . S
C614 H605 0.930 . S
C614 C612 1.378 . S
C614 C615 1.367 . S
C615 C614 1.367 . S
C615 C617 1.433 . S
C616 C612 1.350 . S
C616 C613 1.463 . S
C616 N620 1.427 . S
C617 H607 0.929 . S
C617 C615 1.433 . S
C617 N620 1.384 . S
C618 H609 0.912 1_554 S
C618 C610 1.421 . S
C618 C613 1.325 1_554 S
C619 H606 0.929 . S
C619 C611 1.433 . S
C619 N621 1.384 1_554 S
N620 C616 1.427 . S
N620 C617 1.384 . S
N621 C613 1.427 . S
N621 C619 1.384 1_556 S
H622 C628 0.930 . S
H623 C632 0.930 . S
H624 C637 0.929 . S
H625 C635 0.929 . S
H626 C630 0.929 . S
H627 C636 0.929 . S
C628 H622 0.930 . S
C628 C629 1.367 . S
C628 C636 1.378 . S
C629 C628 1.367 . S
C629 C637 1.433 . S
C630 H626 0.929 . S
C630 C632 1.378 . S
C630 C634 1.350 . S
C631 C634 1.463 . S
C631 C636 1.350 . S
C631 N639 1.427 . S
C632 H623 0.930 . S
C632 C630 1.378 . S
C632 C633 1.367 . S
C633 C632 1.367 . S
C633 C635 1.433 . S
C634 C630 1.350 . S
C634 C631 1.463 . S
C634 N638 1.427 . S
C635 H625 0.929 . S
C635 C633 1.433 . S
C635 N638 1.384 . S
C636 H627 0.929 . S
C636 C628 1.378 . S
C636 C631 1.350 . S
C637 H624 0.929 . S
C637 C629 1.433 . S
C637 N639 1.384 . S
N638 C634 1.427 . S
N638 C635 1.384 . S
N639 C631 1.427 . S
N639 C637 1.384 . S
H640 C646 0.930 . S
H641 C650 0.930 . S
H642 C655 0.929 . S
H643 C653 0.929 . S
H644 C648 0.929 . S
H645 C654 0.929 . S
C646 H640 0.930 . S
C646 C647 1.367 . S
C646 C654 1.378 1_554 S
C647 C646 1.367 . S
C647 C655 1.433 . S
C648 H644 0.929 . S
C648 C650 1.378 . S
C648 C652 1.350 . S
C649 C652 1.463 . S
C649 C654 1.350 . S
C649 N657 1.427 . S
C650 H641 0.930 . S
C650 C648 1.378 . S
C650 C651 1.367 . S
C651 C650 1.367 . S
C651 C653 1.433 . S
C652 C648 1.350 . S
C652 C649 1.463 . S
C652 N656 1.427 . S
C653 H643 0.929 . S
C653 C651 1.433 . S
C653 N656 1.384 . S
C654 H645 0.929 . S
C654 C646 1.378 1_556 S
C654 C649 1.350 . S
C655 H642 0.929 . S
C655 C647 1.433 . S
C655 N657 1.384 1_554 S
N656 C652 1.427 . S
N656 C653 1.384 . S
N657 C649 1.427 . S
N657 C655 1.384 1_556 S
H658 C664 0.930 . S
H659 C668 0.930 . S
H660 C673 0.929 . S
H661 C671 0.929 . S
H662 C666 0.929 . S
H663 C672 0.929 . S
C664 H658 0.930 . S
C664 C665 1.367 . S
C664 C672 1.378 . S
C665 C664 1.367 . S
C665 C673 1.433 . S
C666 H662 0.929 . S
C666 C668 1.378 . S
C666 C670 1.350 . S
C667 C670 1.463 . S
C667 C672 1.350 . S
C667 N675 1.427 . S
C668 H659 0.930 . S
C668 C666 1.378 . S
C668 C669 1.367 . S
C669 C668 1.367 . S
C669 C671 1.433 . S
C670 C666 1.350 . S
C670 C667 1.463 . S
C670 N674 1.427 . S
C671 H661 0.929 . S
C671 C669 1.433 . S
C671 N674 1.384 . S
C672 H663 0.929 . S
C672 C664 1.378 . S
C672 C667 1.350 . S
C673 H660 0.929 . S
C673 C665 1.433 . S
C673 N675 1.384 . S
N674 C670 1.427 . S
N674 C671 1.384 . S
N675 C667 1.427 . S
N675 C673 1.384 . S
H676 C682 0.930 . S
H677 C686 0.930 . S
H678 C691 0.929 . S
H679 C689 0.929 . S
H680 C684 0.929 . S
H681 C690 0.929 . S
C682 H676 0.930 . S
C682 C683 1.367 . S
C682 C690 1.378 1_556 S
C683 C682 1.367 . S
C683 C691 1.433 . S
C684 H680 0.929 . S
C684 C686 1.378 . S
C684 C688 1.350 . S
C685 C688 1.463 . S
C685 C690 1.350 . S
C685 N693 1.427 . S
C686 H677 0.930 . S
C686 C684 1.378 . S
C686 C687 1.367 . S
C687 C686 1.367 . S
C687 C689 1.433 . S
C688 C684 1.350 . S
C688 C685 1.463 . S
C688 N692 1.427 . S
C689 H679 0.929 . S
C689 C687 1.433 . S
C689 N692 1.384 . S
C690 H681 0.929 . S
C690 C682 1.378 1_554 S
C690 C685 1.350 . S
C691 H678 0.929 . S
C691 C683 1.433 . S
C691 N693 1.384 1_556 S
N692 C688 1.427 . S
N692 C689 1.384 . S
N693 C685 1.427 . S
N693 C691 1.384 1_554 S
H694 C700 0.930 . S
H695 C704 0.930 . S
H696 C709 0.929 . S
H697 C707 0.929 . S
H698 C702 0.929 . S
H699 C708 0.929 . S
C700 H694 0.930 . S
C700 C701 1.367 . S
C700 C708 1.378 . S
C701 C700 1.367 . S
C701 C709 1.433 . S
C702 H698 0.929 . S
C702 C704 1.378 . S
C702 C706 1.350 . S
C703 C706 1.463 . S
C703 C708 1.350 . S
C703 N711 1.427 . S
C704 H695 0.930 . S
C704 C702 1.378 . S
C704 C705 1.367 . S
C705 C704 1.367 . S
C705 C707 1.433 . S
C706 C702 1.350 . S
C706 C703 1.463 . S
C706 N710 1.427 . S
C707 H697 0.929 . S
C707 C705 1.433 . S
C707 N710 1.384 . S
C708 H699 0.929 . S
C708 C700 1.378 . S
C708 C703 1.350 . S
C709 H696 0.929 . S
C709 C701 1.433 . S
C709 N711 1.384 . S
N710 C706 1.427 . S
N710 C707 1.384 . S
N711 C703 1.427 . S
N711 C709 1.384 . S
H712 C718 0.930 . S
H713 C722 0.930 . S
H714 C727 0.929 . S
H715 C725 0.929 . S
H716 C720 0.929 . S
H717 C726 0.929 . S
C718 H712 0.930 . S
C718 C719 1.367 . S
C718 C726 1.378 . S
C719 C718 1.367 . S
C719 C727 1.433 . S
C720 H716 0.929 . S
C720 C722 1.378 . S
C720 C724 1.350 . S
C721 C724 1.463 . S
C721 C726 1.350 . S
C721 N729 1.427 . S
C722 H713 0.930 . S
C722 C720 1.378 . S
C722 C723 1.367 . S
C723 C722 1.367 . S
C723 C725 1.433 . S
C724 C720 1.350 . S
C724 C721 1.463 . S
C724 N728 1.427 . S
C725 H715 0.929 . S
C725 C723 1.433 . S
C725 N728 1.384 . S
C726 H717 0.929 . S
C726 C718 1.378 . S
C726 C721 1.350 . S
C727 H714 0.929 . S
C727 C719 1.433 . S
C727 N729 1.384 . S
N728 C724 1.427 . S
N728 C725 1.384 . S
N729 C721 1.427 . S
N729 C727 1.384 . S
H730 C736 0.930 . S
H731 C740 0.930 . S
H732 C745 0.929 . S
H733 C743 0.929 . S
H734 C738 0.929 . S
H735 C744 0.929 . S
C736 H730 0.930 . S
C736 C737 1.367 . S
C736 C744 1.378 . S
C737 C736 1.367 . S
C737 C745 1.433 . S
C738 H734 0.929 . S
C738 C740 1.378 . S
C738 C742 1.350 . S
C739 C742 1.463 . S
C739 C744 1.350 . S
C739 N747 1.427 . S
C740 H731 0.930 . S
C740 C738 1.378 . S
C740 C741 1.367 . S
C741 C740 1.367 . S
C741 C743 1.433 . S
C742 C738 1.350 . S
C742 C739 1.463 . S
C742 N746 1.427 . S
C743 H733 0.929 . S
C743 C741 1.433 . S
C743 N746 1.384 . S
C744 H735 0.929 . S
C744 C736 1.378 . S
C744 C739 1.350 . S
C745 H732 0.929 . S
C745 C737 1.433 . S
C745 N747 1.384 . S
N746 C742 1.427 . S
N746 C743 1.384 . S
N747 C739 1.427 . S
N747 C745 1.384 . S
H748 C754 0.930 . S
H749 C758 0.930 . S
H750 C763 0.929 . S
H751 C761 0.929 . S
H752 C756 0.929 . S
H753 C762 0.929 . S
C754 H748 0.930 . S
C754 C755 1.367 . S
C754 C762 1.378 . S
C755 C754 1.367 . S
C755 C763 1.433 . S
C756 H752 0.929 . S
C756 C758 1.378 . S
C756 C760 1.350 . S
C757 C760 1.463 . S
C757 C762 1.350 . S
C757 N765 1.427 . S
C758 H749 0.930 . S
C758 C756 1.378 . S
C758 C759 1.367 . S
C759 C758 1.367 . S
C759 C761 1.433 . S
C760 C756 1.350 . S
C760 C757 1.463 . S
C760 N764 1.427 . S
C761 H751 0.929 . S
C761 C759 1.433 . S
C761 N764 1.384 . S
C762 H753 0.929 . S
C762 C754 1.378 . S
C762 C757 1.350 . S
C763 H750 0.929 . S
C763 C755 1.433 . S
C763 N765 1.384 . S
N764 C760 1.427 . S
N764 C761 1.384 . S
N765 C757 1.427 . S
N765 C763 1.384 . S
H766 C772 0.930 . S
H767 C776 0.930 1_455 S
H768 C781 0.929 . S
H769 C779 0.929 . S
H770 C774 0.929 . S
H771 C780 0.929 . S
C772 H766 0.930 . S
C772 C773 1.367 . S
C772 C780 1.378 . S
C773 C772 1.367 . S
C773 C781 1.433 . S
C774 H770 0.929 . S
C774 C776 1.378 . S
C774 C778 1.350 . S
C775 C778 1.463 . S
C775 C780 1.350 . S
C775 N783 1.427 . S
C776 H767 0.930 1_655 S
C776 C774 1.378 . S
C776 C777 1.367 . S
C777 C776 1.367 . S
C777 C779 1.433 . S
C778 C774 1.350 . S
C778 C775 1.463 . S
C778 N782 1.427 . S
C779 H769 0.929 . S
C779 C777 1.433 . S
C779 N782 1.384 . S
C780 H771 0.929 . S
C780 C772 1.378 . S
C780 C775 1.350 . S
C781 H768 0.929 . S
C781 C773 1.433 . S
C781 N783 1.384 . S
N782 C778 1.427 . S
N782 C779 1.384 . S
N783 C775 1.427 . S
N783 C781 1.384 . S
H784 C790 0.930 . S
H785 C794 0.930 . S
H786 C799 0.929 . S
H787 C797 0.929 . S
H788 C792 0.929 . S
H789 C798 0.929 . S
C790 H784 0.930 . S
C790 C791 1.367 . S
C790 C798 1.378 . S
C791 C790 1.367 . S
C791 C799 1.433 . S
C792 H788 0.929 . S
C792 C794 1.378 . S
C792 C796 1.350 . S
C793 C796 1.463 . S
C793 C798 1.350 . S
C793 N801 1.427 . S
C794 H785 0.930 . S
C794 C792 1.378 . S
C794 C795 1.367 . S
C795 C794 1.367 . S
C795 C797 1.433 . S
C796 C792 1.350 . S
C796 C793 1.463 . S
C796 N800 1.427 . S
C797 H787 0.929 . S
C797 C795 1.433 . S
C797 N800 1.384 . S
C798 H789 0.929 . S
C798 C790 1.378 . S
C798 C793 1.350 . S
C799 H786 0.929 . S
C799 C791 1.433 . S
C799 N801 1.384 . S
N800 C796 1.427 . S
N800 C797 1.384 . S
N801 C793 1.427 . S
N801 C799 1.384 . S
H802 C808 0.930 . S
H803 C812 0.930 . S
H804 C817 0.929 . S
H805 C815 0.929 . S
H806 C810 0.929 . S
H807 C816 0.929 . S
C808 H802 0.930 . S
C808 C809 1.367 . S
C808 C816 1.378 . S
C809 C808 1.367 . S
C809 C817 1.433 . S
C810 H806 0.929 . S
C810 C812 1.378 . S
C810 C814 1.350 . S
C811 C814 1.463 . S
C811 C816 1.350 . S
C811 N819 1.427 . S
C812 H803 0.930 . S
C812 C810 1.378 . S
C812 C813 1.367 . S
C813 C812 1.367 . S
C813 C815 1.433 . S
C814 C810 1.350 . S
C814 C811 1.463 . S
C814 N818 1.427 . S
C815 H805 0.929 . S
C815 C813 1.433 . S
C815 N818 1.384 . S
C816 H807 0.929 . S
C816 C808 1.378 . S
C816 C811 1.350 . S
C817 H804 0.929 . S
C817 C809 1.433 . S
C817 N819 1.384 . S
N818 C814 1.427 . S
N818 C815 1.384 . S
N819 C811 1.427 . S
N819 C817 1.384 . S
H820 C826 0.930 . S
H821 C830 0.930 . S
H822 C835 0.929 . S
H823 C833 0.929 . S
H824 C828 0.929 . S
H825 C834 0.929 . S
C826 H820 0.930 . S
C826 C827 1.367 . S
C826 C834 1.378 . S
C827 C826 1.367 . S
C827 C835 1.433 . S
C828 H824 0.929 . S
C828 C830 1.378 . S
C828 C832 1.350 . S
C829 C832 1.463 . S
C829 C834 1.350 . S
C829 N837 1.427 . S
C830 H821 0.930 . S
C830 C828 1.378 . S
C830 C831 1.367 . S
C831 C830 1.367 . S
C831 C833 1.433 . S
C832 C828 1.350 . S
C832 C829 1.463 . S
C832 N836 1.427 . S
C833 H823 0.929 . S
C833 C831 1.433 . S
C833 N836 1.384 . S
C834 H825 0.929 . S
C834 C826 1.378 . S
C834 C829 1.350 . S
C835 H822 0.929 . S
C835 C827 1.433 . S
C835 N837 1.384 . S
N836 C832 1.427 . S
N836 C833 1.384 . S
N837 C829 1.427 . S
N837 C835 1.384 . S
H838 C844 0.930 . S
H839 C848 0.930 . S
H840 C853 0.929 . S
H841 C851 0.929 . S
H842 C846 0.929 . S
H843 C852 0.929 . S
C844 H838 0.930 . S
C844 C845 1.367 . S
C844 C852 1.378 . S
C845 C844 1.367 . S
C845 C853 1.433 . S
C846 H842 0.929 . S
C846 C848 1.378 . S
C846 C850 1.350 . S
C847 C850 1.463 . S
C847 C852 1.350 . S
C847 N855 1.427 . S
C848 H839 0.930 . S
C848 C846 1.378 . S
C848 C849 1.367 . S
C849 C848 1.367 . S
C849 C851 1.433 . S
C850 C846 1.350 . S
C850 C847 1.463 . S
C850 N854 1.427 . S
C851 H841 0.929 . S
C851 C849 1.433 . S
C851 N854 1.384 . S
C852 H843 0.929 . S
C852 C844 1.378 . S
C852 C847 1.350 . S
C853 H840 0.929 . S
C853 C845 1.433 . S
C853 N855 1.384 . S
N854 C850 1.427 . S
N854 C851 1.384 . S
N855 C847 1.427 . S
N855 C853 1.384 . S
C431 C73 1.605 . S
C435 C162 1.647 . S
C453 C246 1.748 . S
C449 C84 1.742 . S
C471 C239 1.648 . S
C467 C51 1.608 . S
C485 C62 1.732 . S
C489 C155 1.762 . S
C507 C319 1.651 . S
C503 C29 1.586 . S
C525 C403 1.589 . S
C521 C38 1.469 . S
C539 C7 1.581 . S
C543 C396 1.653 . S
C557 C16 1.496 . S
C561 C312 1.587 . S
C579 C146 1.494 . S
C575 C18 1.656 . S
C597 C230 1.503 . S
C593 C5 1.415 . S
C615 C241 1.461 . S
C611 C40 1.664 . S
C633 C157 1.475 . S
C629 C27 1.450 . S
C651 C325 1.327 . S
C647 C60 1.361 . S
C665 C49 1.370 . S
C669 C409 1.364 . S
C687 C398 1.326 . S
C683 C82 1.347 . S
C701 C71 1.362 . S
C705 C314 1.333 . S
C723 C144 1.660 . S
C719 C8 1.639 . S
C741 C228 1.562 . S
C737 C19 1.558 . S
C755 C30 1.640 . S
C759 C235 1.633 . S
C777 C151 1.533 . S
C773 C41 1.548 . S
C795 C323 1.424 . S
C791 C52 1.422 . S
C809 C63 1.553 . S
C813 C407 1.551 . S
C827 C74 1.417 . S
C831 C414 1.386 . S
C845 C85 1.542 . S
C849 C330 1.506 . S
