# Generated by pormake.
# Topology pts, (4,4)-cn, num edge types: 1
# Building blocks:
#     Node 0, Type 0, BuildingBlock: NAWXER_clean_sbu_0, # of connection points: 4
#     Node 1, Type 0, BuildingBlock: NAWXER_clean_sbu_0, # of connection points: 4
#     Node 2, Type 1, BuildingBlock: UXUYUI_clean_sbu_0, # of connection points: 4
#     Node 3, Type 1, BuildingBlock: UXUYUI_clean_sbu_0, # of connection points: 4
#     Edge 4, Type (0, 1), BuildingBlock: OJICUG_clean_linker_0, # of connection points: 2
#     Edge 5, Type (0, 1), BuildingBlock: OJICUG_clean_linker_0, # of connection points: 2
#     Edge 6, Type (0, 1), BuildingBlock: OJICUG_clean_linker_0, # of connection points: 2
#     Edge 7, Type (0, 1), BuildingBlock: OJICUG_clean_linker_0, # of connection points: 2
#     Edge 8, Type (0, 1), BuildingBlock: OJICUG_clean_linker_0, # of connection points: 2
#     Edge 9, Type (0, 1), BuildingBlock: OJICUG_clean_linker_0, # of connection points: 2
#     Edge 10, Type (0, 1), BuildingBlock: OJICUG_clean_linker_0, # of connection points: 2
#     Edge 11, Type (0, 1), BuildingBlock: OJICUG_clean_linker_0, # of connection points: 2
# Relax obj value: 0.015
# Max RMSD: 0.059
# Mean RMSD: 0.051
data_MOF--net-pts--node1-NAWXER_clean_sbu_0--node2-UXUYUI_clean_sbu_0--edge1-OJICUG_clean_linker_0
_symmetry_space_group_name_H-M    P1
_symmetry_Int_Tables_number       1
_symmetry_cell_setting            triclinic
loop_
_symmetry_equiv_pos_as_xyz
'x, y, z'
_cell_length_a     22.456515
_cell_length_b     22.455976
_cell_length_c     35.638131
_cell_angle_alpha  89.915399
_cell_angle_beta   90.000159
_cell_angle_gamma 90.002092
loop_
_atom_site_label
_atom_site_type_symbol
_atom_site_fract_x
_atom_site_fract_y
_atom_site_fract_z
_atom_type_partial_charge
C0 C 0.43671 0.04903 0.9655 0.0
C1 C 0.5922 0.05758 0.06324 0.0
O2 O 0.45508 0.99912 0.97843 0.0
Zn3 Zn 0.51523 0.96204 0.0175 0.0
O4 O 0.45913 0.09737 0.97793 0.0
Zn5 Zn 0.51523 0.06021 1.01353 0.0
O6 O 0.57359 0.01657 0.97663 0.0
O7 O 0.57152 0.91907 0.98472 0.0
O8 O 0.57165 0.10318 0.04624 0.0
O9 O 0.57373 1.00567 0.05432 0.0
O10 O 0.45927 0.92488 0.05318 0.0
O11 O 0.45523 0.02313 0.05271 0.0
C12 C 0.59202 0.96466 0.96769 0.0
C13 C 0.43691 0.97322 0.06566 0.0
C14 C 0.04645 0.59151 0.46807 0.0
C15 C 0.0465 0.43027 0.56282 0.0
O16 O 0.99576 0.57226 0.47897 0.0
Zn17 Zn 0.95555 0.51095 0.5155 0.0
O18 O 0.09382 0.56905 0.48195 0.0
Zn19 Zn 0.05401 0.51092 0.51547 0.0
O20 O 0.01338 0.45373 0.4761 0.0
O21 O 0.91523 0.45673 0.48043 0.0
O22 O 0.09386 0.45275 0.54894 0.0
O23 O 0.99581 0.44957 0.55197 0.0
O24 O 0.91535 0.56517 0.55062 0.0
O25 O 0.01351 0.56813 0.55488 0.0
C26 C 0.96215 0.43612 0.46502 0.0
C27 C 0.96232 0.58575 0.56601 0.0
Li28 Li 1.01079 0.06728 0.28979 0.0
Li29 Li 0.01218 0.96016 0.28921 0.0
Li30 Li 0.06684 0.01395 0.24212 0.0
Li31 Li 0.95981 0.0154 0.24056 0.0
C32 C 0.09799 0.01298 0.33384 0.0
N33 N 0.1326 1.0093 0.4082 0.0
C34 C 0.05546 0.01754 0.36235 0.0
C35 C 0.15807 1.00647 0.34314 0.0
C36 C 0.07386 0.0156 0.39976 0.0
C37 C 0.17469 1.00474 0.38091 0.0
C38 C 0.89102 0.98088 0.30103 0.0
C39 C 0.83142 0.89311 0.29049 0.0
N40 N 0.78823 0.91592 0.31303 0.0
C41 C 0.84605 1.00344 0.32408 0.0
C42 C 0.88371 0.92523 0.28408 0.0
C43 C 0.79442 0.96993 0.32981 0.0
C44 C 0.94626 0.15886 0.32303 0.0
N45 N 1.00238 0.13661 0.32004 0.0
C46 C 0.04005 0.21321 0.35987 0.0
C47 C 0.04909 0.16268 0.33779 0.0
C48 C 0.98245 0.23741 0.36353 0.0
C49 C 0.93517 0.20938 0.34479 0.0
H50 H 0.91005 0.13735 0.30832 0.0
H51 H 0.09331 0.14415 0.33493 0.0
C52 C 0.06155 0.85081 0.31201 0.0
N53 N 0.01839 0.89123 0.32033 0.0
C54 C 0.0709 0.80142 0.33529 0.0
C55 C 0.9915 0.83668 0.3753 0.0
C56 C 0.98406 0.88548 0.35151 0.0
C57 C 0.03515 0.79368 0.36721 0.0
H58 H 0.089 0.85725 0.28738 0.0
H59 H 0.95139 0.91913 0.35824 0.0
C60 C 0.04661 0.13481 0.22904 0.0
N61 N 0.11207 0.23719 0.2167 0.0
C62 C 0.02497 0.17903 0.20503 0.0
C63 C 0.10161 0.14264 0.24677 0.0
C64 C 0.05872 0.23047 0.19914 0.0
C65 C 0.134 0.19471 0.24017 0.0
C66 C 0.01459 0.92735 0.19772 0.0
C67 C 1.01084 0.96947 0.16888 0.0
C68 C 0.02054 0.86706 0.18889 0.0
C69 C 0.01303 0.95044 0.13161 0.0
C70 C 0.02254 0.8498 0.15126 0.0
N71 N 0.01879 0.8915 0.12364 0.0
C72 C 0.17671 0.96441 0.22105 0.0
C73 C 0.14315 0.04112 0.18046 0.0
C74 C 0.22675 0.95465 0.19847 0.0
N75 N 0.13649 1.00733 0.21184 0.0
C76 C 0.19264 0.03329 0.15736 0.0
C77 C 0.23537 0.98977 0.16633 0.0
H78 H 0.16956 0.93743 0.24582 0.0
H79 H 0.10967 0.07361 0.17303 0.0
C80 C 0.86982 0.07958 0.205 0.0
N81 N 0.89117 0.02334 0.20951 0.0
C82 C 0.8198 0.09015 0.18263 0.0
C83 C 0.81455 0.98452 0.17009 0.0
C84 C 0.8647 0.97603 0.19265 0.0
C85 C 0.79125 0.04221 0.16493 0.0
H86 H 0.89161 0.11629 0.21902 0.0
H87 H 0.88256 0.93175 0.19666 0.0
O88 O 0.08127 0.0141 0.29694 0.0
O89 O 0.9416 0.01358 0.29517 0.0
O90 O 0.01367 0.08443 0.23507 0.0
O91 O 0.013 0.94465 0.23449 0.0
H92 H 1.00874 0.02248 0.35574 0.0
H93 H 0.19147 1.00271 0.32137 0.0
H94 H 0.04143 0.01906 0.4221 0.0
H95 H 0.22105 0.99972 0.38852 0.0
H96 H 0.8252 0.85 0.27756 0.0
H97 H 0.85105 0.04642 0.33744 0.0
H98 H 0.91796 0.9068 0.26627 0.0
H99 H 0.75927 0.98686 0.3476 0.0
H100 H 0.07775 0.23271 0.37427 0.0
H101 H 0.89028 0.22676 0.34643 0.0
H102 H 0.10481 0.76913 0.32804 0.0
H103 H 0.9636 0.8328 0.39998 0.0
H104 H 0.98252 0.17362 0.19104 0.0
H105 H 0.11935 0.10897 0.26533 0.0
H106 H 0.04249 0.26506 0.18062 0.0
H107 H 0.1766 0.20134 0.2537 0.0
H108 H 1.00628 0.01634 0.17511 0.0
H109 H 0.02362 0.83396 0.21093 0.0
H110 H 1.01018 0.98254 0.10902 0.0
H111 H 0.02713 0.80327 0.14402 0.0
H112 H 0.25877 0.92083 0.20638 0.0
H113 H 0.19717 0.06064 0.13246 0.0
H114 H 0.80307 0.13516 0.17978 0.0
H115 H 0.79455 0.9463 0.15654 0.0
Li116 Li 0.95961 1.00662 0.79036 0.0
Li117 Li 0.06666 1.0081 0.78901 0.0
Li118 Li 0.01222 0.06164 0.74171 0.0
Li119 Li 1.01087 0.95451 0.74133 0.0
C120 C 0.01414 0.0949 0.83314 0.0
N121 N 0.01784 0.13114 0.90715 0.0
C122 C 1.01027 0.05293 0.86206 0.0
C123 C 0.01994 0.15525 0.84185 0.0
C124 C 0.01222 0.07216 0.89929 0.0
C125 C 0.0217 0.1727 0.87945 0.0
C126 C 0.04641 0.88731 0.80231 0.0
C127 C 0.13383 0.82734 0.79146 0.0
N128 N 0.11188 0.78508 0.81507 0.0
C129 C 0.02473 0.8433 0.82647 0.0
C130 C 0.10144 0.87934 0.78465 0.0
C131 C 0.05849 0.79193 0.83256 0.0
C132 C 0.86952 0.94253 0.82585 0.0
N133 N 0.89083 0.99878 0.82129 0.0
C134 C 0.8141 0.03766 0.8606 0.0
C135 C 0.86429 0.04612 0.83805 0.0
C136 C 0.79085 0.97996 0.86582 0.0
C137 C 0.81947 0.93199 0.84821 0.0
H138 H 0.89138 0.90578 0.81191 0.0
H139 H 0.88212 0.0904 0.83401 0.0
C140 C 0.17651 0.05764 0.81012 0.0
N141 N 0.13617 0.01487 0.8194 0.0
C142 C 0.22651 0.06744 0.83273 0.0
C143 C 0.19209 0.98917 0.87402 0.0
C144 C 0.14266 0.98128 0.85087 0.0
C145 C 0.23496 0.03251 0.86497 0.0
H146 H 0.16951 0.08446 0.78526 0.0
H147 H 0.10909 0.94889 0.85834 0.0
C148 C 0.89114 0.0408 0.72965 0.0
N149 N 0.78842 0.10566 0.71724 0.0
C150 C 0.84637 0.01814 0.70649 0.0
C151 C 0.88367 0.0965 0.74651 0.0
C152 C 0.79477 0.05161 0.70055 0.0
C153 C 0.83142 0.12858 0.73989 0.0
C154 C 0.09829 1.00862 0.69735 0.0
C155 C 0.05591 1.00395 0.66876 0.0
C156 C 0.15842 0.01502 0.68817 0.0
C157 C 0.07452 1.00567 0.63138 0.0
C158 C 0.17526 0.01653 0.65044 0.0
N159 N 0.13331 0.01187 0.62306 0.0
C160 C 0.06154 0.17101 0.71888 0.0
C161 C 0.98441 0.13602 0.67921 0.0
C162 C 0.0709 0.22036 0.69558 0.0
N163 N 0.01854 0.13045 0.71049 0.0
C164 C 0.99188 0.18476 0.65539 0.0
C165 C 0.03534 0.22793 0.66355 0.0
H166 H 0.08883 0.16472 0.7436 0.0
H167 H 0.95186 0.10226 0.67244 0.0
C168 C 0.94647 0.86278 0.70817 0.0
N169 N 1.00258 0.88505 0.71118 0.0
C170 C 0.93541 0.81226 0.68641 0.0
C171 C 0.04031 0.80842 0.67139 0.0
C172 C 0.04933 0.85896 0.69347 0.0
C173 C 0.98271 0.78424 0.66769 0.0
H174 H 0.91023 0.88431 0.72284 0.0
H175 H 0.09353 0.8775 0.69634 0.0
O176 O 0.01275 0.07741 0.7964 0.0
O177 O 0.01347 0.93764 0.79609 0.0
O178 O 0.9417 1.00817 0.73571 0.0
O179 O 0.08137 1.00769 0.73422 0.0
H180 H 1.00581 1.00602 0.85591 0.0
H181 H 0.02309 0.18824 0.81975 0.0
H182 H 1.00928 0.04017 0.92194 0.0
H183 H 0.02617 0.21929 0.88661 0.0
H184 H 0.17646 0.82061 0.77799 0.0
H185 H 0.98226 0.84883 0.84041 0.0
H186 H 0.1192 0.91285 0.76598 0.0
H187 H 0.04224 0.75752 0.8512 0.0
H188 H 0.79406 0.07591 0.87409 0.0
H189 H 0.80278 0.88698 0.85111 0.0
H190 H 0.25864 0.10112 0.82476 0.0
H191 H 0.19649 0.96196 0.89899 0.0
H192 H 0.8515 0.97513 0.6932 0.0
H193 H 0.91776 0.11501 0.76441 0.0
H194 H 0.75977 0.0346 0.68267 0.0
H195 H 0.82507 0.17172 0.75275 0.0
H196 H 1.00915 0.99908 0.67528 0.0
H197 H 0.19171 0.01886 0.71001 0.0
H198 H 0.04222 1.00212 0.60898 0.0
H199 H 0.22167 0.02146 0.64292 0.0
H200 H 0.10466 0.25278 0.70289 0.0
H201 H 0.96412 0.18851 0.63064 0.0
H202 H 0.89052 0.79489 0.68475 0.0
H203 H 0.07803 0.78894 0.65701 0.0
C204 C 0.36902 0.03013 0.10751 0.0
C205 C 0.38831 0.97454 0.09388 0.0
H206 H 0.30655 0.07806 0.14098 0.0
C207 C 0.35879 0.92282 0.10613 0.0
H208 H 0.39089 0.07107 0.09919 0.0
C209 C 0.30978 0.92714 0.13055 0.0
C210 C 0.28946 0.98323 0.14276 0.0
H211 H 0.37256 0.87939 0.0962 0.0
H212 H 0.28668 0.88692 0.13893 0.0
C213 C 0.32034 0.03438 0.13146 0.0
C214 C 0.09925 0.35175 0.60202 0.0
C215 C 0.04684 0.38082 0.59056 0.0
H216 H 0.13693 0.28001 0.63445 0.0
C217 C 0.99191 0.36076 0.6049 0.0
H218 H 0.1422 0.36614 0.59158 0.0
C219 C 0.98894 0.31202 0.62888 0.0
C220 C 0.04074 0.28175 0.63956 0.0
H221 H 0.95043 0.38216 0.59722 0.0
H222 H 0.94571 0.29781 0.63903 0.0
C223 C 0.09622 0.30263 0.62654 0.0
C224 C 0.68338 0.10468 0.09205 0.0
C225 C 0.63841 0.06127 0.0927 0.0
H226 H 0.76803 0.13223 0.1141 0.0
C227 C 0.64153 0.01533 0.11948 0.0
H228 H 0.68224 0.14031 0.07155 0.0
C229 C 0.69002 1.01067 0.14364 0.0
C230 C 0.73706 0.05165 0.14161 0.0
H231 H 0.6071 0.98159 0.12104 0.0
H232 H 0.69116 0.97409 0.16348 0.0
C233 C 0.73248 0.09983 0.11632 0.0
C234 C 0.91635 0.67561 0.59684 0.0
C235 C 0.96073 0.63163 0.59569 0.0
H236 H 0.88899 0.75938 0.62008 0.0
C237 C 1.00905 0.63559 0.62064 0.0
H238 H 0.87889 0.67385 0.57773 0.0
C239 C 0.01477 0.68392 0.64481 0.0
C240 C 0.97258 0.73002 0.64453 0.0
H241 H 0.04364 0.60194 0.62075 0.0
H242 H 0.05305 0.68566 0.66327 0.0
C243 C 0.92232 0.72458 0.62102 0.0
C244 C 0.35862 0.09944 0.925 0.0
C245 C 0.38798 0.04769 0.93736 0.0
H246 H 0.28662 0.13537 0.89213 0.0
C247 C 0.36846 0.99208 0.9239 0.0
H248 H 0.37258 0.14288 0.93479 0.0
C249 C 0.31974 0.98784 0.89999 0.0
C250 C 0.28905 0.03902 0.88855 0.0
H251 H 0.39019 0.95112 0.93232 0.0
H252 H 0.30579 0.94414 0.89059 0.0
C253 C 0.30957 0.09512 0.90061 0.0
C254 C 1.00877 0.3862 0.41038 0.0
C255 C 0.96049 0.3902 0.43536 0.0
H256 H 0.05274 0.33602 0.36779 0.0
C257 C 0.91613 0.3462 0.43429 0.0
H258 H 0.04335 0.41987 0.41022 0.0
C259 C 0.92209 0.29716 0.41015 0.0
C260 C 0.97232 0.29168 0.38663 0.0
H261 H 0.87871 0.34798 0.45342 0.0
H262 H 0.88877 0.26234 0.41115 0.0
C263 C 0.01448 0.33781 0.38626 0.0
C264 C 0.68314 0.91756 0.93882 0.0
C265 C 0.63815 0.96095 0.93818 0.0
H266 H 0.76776 0.89002 0.91672 0.0
C267 C 0.6412 1.00685 0.91137 0.0
H268 H 0.68206 0.88196 0.95934 0.0
C269 C 0.68963 0.01149 0.88717 0.0
C270 C 0.7367 0.97054 0.88918 0.0
H271 H 0.60675 0.04057 0.90983 0.0
H272 H 0.69072 0.04804 0.86731 0.0
C273 C 0.73219 0.92239 0.91451 0.0
C274 C 0.99186 0.66069 0.42578 0.0
C275 C 0.04677 0.64087 0.44027 0.0
H276 H 0.94564 0.72342 0.39151 0.0
C277 C 0.09915 0.67012 0.42891 0.0
H278 H 0.95042 0.63913 0.43337 0.0
C279 C 0.09609 0.71919 0.40436 0.0
C280 C 0.0406 0.73986 0.3912 0.0
H281 H 0.14209 0.6559 0.43947 0.0
H282 H 0.13676 0.74196 0.39654 0.0
C283 C 0.98886 0.70939 0.40176 0.0
loop_
_geom_bond_atom_site_label_1
_geom_bond_atom_site_label_2
_geom_bond_distance
_geom_bond_site_symmetry_2
_ccdc_geom_bond_type
C0 O2 1.247 . S
C0 O4 1.258 1_565 S
C1 O8 1.251 . S
C1 O9 1.254 1_545 S
O2 C0 1.247 . S
O2 Zn3 2.028 1_556 S
Zn3 O2 2.028 1_554 S
Zn3 O7 2.035 1_554 S
Zn3 O9 2.035 . S
Zn3 O10 2.028 . S
O4 C0 1.258 1_545 S
O4 Zn5 2.035 1_556 S
Zn5 O4 2.035 1_554 S
Zn5 O6 2.028 1_554 S
Zn5 O8 2.028 . S
Zn5 O11 2.035 . S
O6 Zn5 2.028 1_556 S
O6 C12 1.251 . S
O7 Zn3 2.035 1_556 S
O7 C12 1.254 1_565 S
O8 C1 1.251 . S
O8 Zn5 2.028 . S
O9 C1 1.254 1_565 S
O9 Zn3 2.035 . S
O10 Zn3 2.028 . S
O10 C13 1.247 . S
O11 Zn5 2.035 . S
O11 C13 1.258 1_545 S
C12 O6 1.251 . S
C12 O7 1.254 1_545 S
C13 O10 1.247 . S
C13 O11 1.258 1_565 S
C14 O16 1.247 . S
C14 O18 1.258 1_655 S
C15 O22 1.251 . S
C15 O23 1.254 1_455 S
O16 C14 1.247 . S
O16 Zn17 2.028 . S
Zn17 O16 2.028 . S
Zn17 O21 2.035 . S
Zn17 O23 2.035 . S
Zn17 O24 2.028 . S
O18 C14 1.258 1_455 S
O18 Zn19 2.035 . S
Zn19 O18 2.035 . S
Zn19 O20 2.028 . S
Zn19 O22 2.028 . S
Zn19 O25 2.035 . S
O20 Zn19 2.028 . S
O20 C26 1.251 . S
O21 Zn17 2.035 . S
O21 C26 1.254 1_655 S
O22 C15 1.251 . S
O22 Zn19 2.028 . S
O23 C15 1.254 1_655 S
O23 Zn17 2.035 . S
O24 Zn17 2.028 . S
O24 C27 1.247 . S
O25 Zn19 2.035 . S
O25 C27 1.258 1_455 S
C26 O20 1.251 . S
C26 O21 1.254 1_455 S
C27 O24 1.247 . S
C27 O25 1.258 1_655 S
Li28 N45 1.990 . S
Li28 O88 1.956 1_545 S
Li28 O89 1.970 1_455 S
Li28 O90 1.961 1_455 S
Li29 N53 1.990 . S
Li29 O88 1.970 1_655 S
Li29 O89 1.956 1_565 S
Li29 O91 1.961 1_655 S
Li30 N75 1.990 . S
Li30 O88 1.961 1_545 S
Li30 O90 1.956 1_455 S
Li30 O91 1.970 1_545 S
Li31 N81 1.990 . S
Li31 O89 1.961 1_565 S
Li31 O90 1.970 1_565 S
Li31 O91 1.956 1_655 S
C32 C34 1.348 1_545 S
C32 C35 1.356 . S
C32 O88 1.325 1_545 S
N33 C36 1.314 1_545 S
N33 C37 1.279 . S
C34 C32 1.348 1_565 S
C34 C36 1.353 . S
C34 H92 0.929 . S
C35 C32 1.356 . S
C35 C37 1.358 . S
C35 H93 0.930 . S
C36 N33 1.314 1_565 S
C36 C34 1.353 . S
C36 H94 0.930 . S
C37 N33 1.279 . S
C37 C35 1.358 . S
C37 H95 0.930 . S
C38 C41 1.348 . S
C38 C42 1.356 1_545 S
C38 O89 1.325 . S
C39 N40 1.279 . S
C39 C42 1.358 . S
C39 H96 0.930 . S
N40 C39 1.279 . S
N40 C43 1.314 1_565 S
C41 C38 1.348 . S
C41 C43 1.353 . S
C41 H97 0.929 . S
C42 C38 1.356 1_565 S
C42 C39 1.358 . S
C42 H98 0.930 . S
C43 N40 1.314 1_545 S
C43 C41 1.353 . S
C43 H99 0.930 . S
C44 N45 1.314 1_655 S
C44 C49 1.353 . S
C44 H50 0.930 . S
N45 Li28 1.990 . S
N45 C44 1.314 1_455 S
N45 C47 1.279 . S
C46 C47 1.358 . S
C46 C48 1.356 . S
C46 H100 0.930 . S
C47 N45 1.279 . S
C47 C46 1.358 . S
C47 H51 0.930 . S
C48 C46 1.356 . S
C48 C49 1.348 1_455 S
C49 C44 1.353 . S
C49 C48 1.348 1_655 S
C49 H101 0.929 . S
H50 C44 0.930 . S
H51 C47 0.930 . S
C52 N53 1.314 1_455 S
C52 C54 1.353 . S
C52 H58 0.930 . S
N53 Li29 1.990 . S
N53 C52 1.314 1_655 S
N53 C56 1.279 . S
C54 C52 1.353 . S
C54 C57 1.348 . S
C54 H102 0.929 . S
C55 C56 1.358 . S
C55 C57 1.356 1_655 S
C55 H103 0.930 . S
C56 N53 1.279 . S
C56 C55 1.358 . S
C56 H59 0.930 . S
C57 C54 1.348 . S
C57 C55 1.356 1_455 S
H58 C52 0.930 . S
H59 C56 0.930 . S
C60 C62 1.348 1_455 S
C60 C63 1.356 . S
C60 O90 1.325 1_455 S
N61 C64 1.314 1_455 S
N61 C65 1.279 . S
C62 C60 1.348 1_655 S
C62 C64 1.353 . S
C62 H104 0.929 . S
C63 C60 1.356 . S
C63 C65 1.358 . S
C63 H105 0.930 . S
C64 N61 1.314 1_655 S
C64 C62 1.353 . S
C64 H106 0.930 . S
C65 N61 1.279 . S
C65 C63 1.358 . S
C65 H107 0.930 . S
C66 C67 1.348 . S
C66 C68 1.356 1_455 S
C66 O91 1.325 . S
C67 C66 1.348 . S
C67 C69 1.353 . S
C67 H108 0.929 . S
C68 C66 1.356 1_655 S
C68 C70 1.358 . S
C68 H109 0.930 . S
C69 C67 1.353 . S
C69 N71 1.314 1_455 S
C69 H110 0.930 . S
C70 C68 1.358 . S
C70 N71 1.279 . S
C70 H111 0.930 . S
N71 C69 1.314 1_655 S
N71 C70 1.279 . S
C72 C74 1.353 . S
C72 N75 1.314 1_565 S
C72 H78 0.930 . S
C73 N75 1.279 . S
C73 C76 1.358 . S
C73 H79 0.930 . S
C74 C72 1.353 . S
C74 C77 1.348 1_565 S
C74 H112 0.929 . S
N75 Li30 1.990 . S
N75 C72 1.314 1_545 S
N75 C73 1.279 . S
C76 C73 1.358 . S
C76 C77 1.356 . S
C76 H113 0.930 . S
C77 C74 1.348 1_545 S
C77 C76 1.356 . S
H78 C72 0.930 . S
H79 C73 0.930 . S
C80 N81 1.314 1_545 S
C80 C82 1.353 . S
C80 H86 0.930 . S
N81 Li31 1.990 . S
N81 C80 1.314 1_565 S
N81 C84 1.279 . S
C82 C80 1.353 . S
C82 C85 1.348 . S
C82 H114 0.929 . S
C83 C84 1.358 . S
C83 C85 1.356 1_565 S
C83 H115 0.930 . S
C84 N81 1.279 . S
C84 C83 1.358 . S
C84 H87 0.930 . S
C85 C82 1.348 . S
C85 C83 1.356 1_545 S
H86 C80 0.930 . S
H87 C84 0.930 . S
O88 Li28 1.956 1_565 S
O88 Li29 1.970 1_455 S
O88 Li30 1.961 1_565 S
O88 C32 1.325 1_565 S
O89 Li28 1.970 1_655 S
O89 Li29 1.956 1_545 S
O89 Li31 1.961 1_545 S
O89 C38 1.325 . S
O90 Li28 1.961 1_655 S
O90 Li30 1.956 1_655 S
O90 Li31 1.970 1_545 S
O90 C60 1.325 1_655 S
O91 Li29 1.961 1_455 S
O91 Li30 1.970 1_565 S
O91 Li31 1.956 1_455 S
O91 C66 1.325 . S
H92 C34 0.929 . S
H93 C35 0.930 . S
H94 C36 0.930 . S
H95 C37 0.930 . S
H96 C39 0.930 . S
H97 C41 0.929 . S
H98 C42 0.930 . S
H99 C43 0.930 . S
H100 C46 0.930 . S
H101 C49 0.929 . S
H102 C54 0.929 . S
H103 C55 0.930 . S
H104 C62 0.929 . S
H105 C63 0.930 . S
H106 C64 0.930 . S
H107 C65 0.930 . S
H108 C67 0.929 . S
H109 C68 0.930 . S
H110 C69 0.930 . S
H111 C70 0.930 . S
H112 C74 0.929 . S
H113 C76 0.930 . S
H114 C82 0.929 . S
H115 C83 0.930 . S
Li116 N133 1.990 . S
Li116 O176 1.956 1_655 S
Li116 O177 1.970 1_545 S
Li116 O178 1.961 1_545 S
Li117 N141 1.990 . S
Li117 O176 1.970 1_565 S
Li117 O177 1.956 1_455 S
Li117 O179 1.961 1_565 S
Li118 N163 1.990 . S
Li118 O176 1.961 1_655 S
Li118 O178 1.956 1_545 S
Li118 O179 1.970 1_655 S
Li119 N169 1.990 . S
Li119 O177 1.961 1_455 S
Li119 O178 1.970 1_455 S
Li119 O179 1.956 1_565 S
C120 C122 1.348 . S
C120 C123 1.356 1_455 S
C120 O176 1.325 . S
N121 C124 1.314 1_655 S
N121 C125 1.279 . S
C122 C120 1.348 . S
C122 C124 1.353 . S
C122 H180 0.929 . S
C123 C120 1.356 1_655 S
C123 C125 1.358 . S
C123 H181 0.930 . S
C124 N121 1.314 1_455 S
C124 C122 1.353 . S
C124 H182 0.930 . S
C125 N121 1.279 . S
C125 C123 1.358 . S
C125 H183 0.930 . S
C126 C129 1.348 1_455 S
C126 C130 1.356 . S
C126 O177 1.325 1_455 S
C127 N128 1.279 . S
C127 C130 1.358 . S
C127 H184 0.930 . S
N128 C127 1.279 . S
N128 C131 1.314 1_455 S
C129 C126 1.348 1_655 S
C129 C131 1.353 . S
C129 H185 0.929 . S
C130 C126 1.356 . S
C130 C127 1.358 . S
C130 H186 0.930 . S
C131 N128 1.314 1_655 S
C131 C129 1.353 . S
C131 H187 0.930 . S
C132 N133 1.314 1_565 S
C132 C137 1.353 . S
C132 H138 0.930 . S
N133 Li116 1.990 . S
N133 C132 1.314 1_545 S
N133 C135 1.279 . S
C134 C135 1.358 . S
C134 C136 1.356 . S
C134 H188 0.930 . S
C135 N133 1.279 . S
C135 C134 1.358 . S
C135 H139 0.930 . S
C136 C134 1.356 . S
C136 C137 1.348 1_545 S
C137 C132 1.353 . S
C137 C136 1.348 1_565 S
C137 H189 0.929 . S
H138 C132 0.930 . S
H139 C135 0.930 . S
C140 N141 1.314 1_545 S
C140 C142 1.353 . S
C140 H146 0.930 . S
N141 Li117 1.990 . S
N141 C140 1.314 1_565 S
N141 C144 1.279 . S
C142 C140 1.353 . S
C142 C145 1.348 . S
C142 H190 0.929 . S
C143 C144 1.358 . S
C143 C145 1.356 1_565 S
C143 H191 0.930 . S
C144 N141 1.279 . S
C144 C143 1.358 . S
C144 H147 0.930 . S
C145 C142 1.348 . S
C145 C143 1.356 1_545 S
H146 C140 0.930 . S
H147 C144 0.930 . S
C148 C150 1.348 1_545 S
C148 C151 1.356 . S
C148 O178 1.325 1_545 S
N149 C152 1.314 1_545 S
N149 C153 1.279 . S
C150 C148 1.348 1_565 S
C150 C152 1.353 . S
C150 H192 0.929 . S
C151 C148 1.356 . S
C151 C153 1.358 . S
C151 H193 0.930 . S
C152 N149 1.314 1_565 S
C152 C150 1.353 . S
C152 H194 0.930 . S
C153 N149 1.279 . S
C153 C151 1.358 . S
C153 H195 0.930 . S
C154 C155 1.348 . S
C154 C156 1.356 1_545 S
C154 O179 1.325 . S
C155 C154 1.348 . S
C155 C157 1.353 . S
C155 H196 0.929 . S
C156 C154 1.356 1_565 S
C156 C158 1.358 . S
C156 H197 0.930 . S
C157 C155 1.353 . S
C157 N159 1.314 1_545 S
C157 H198 0.930 . S
C158 C156 1.358 . S
C158 N159 1.279 . S
C158 H199 0.930 . S
N159 C157 1.314 1_565 S
N159 C158 1.279 . S
C160 C162 1.353 . S
C160 N163 1.314 1_455 S
C160 H166 0.930 . S
C161 N163 1.279 . S
C161 C164 1.358 . S
C161 H167 0.930 . S
C162 C160 1.353 . S
C162 C165 1.348 . S
C162 H200 0.929 . S
N163 Li118 1.990 . S
N163 C160 1.314 1_655 S
N163 C161 1.279 . S
C164 C161 1.358 . S
C164 C165 1.356 1_655 S
C164 H201 0.930 . S
C165 C162 1.348 . S
C165 C164 1.356 1_455 S
H166 C160 0.930 . S
H167 C161 0.930 . S
C168 N169 1.314 1_655 S
C168 C170 1.353 . S
C168 H174 0.930 . S
N169 Li119 1.990 . S
N169 C168 1.314 1_455 S
N169 C172 1.279 . S
C170 C168 1.353 . S
C170 C173 1.348 1_655 S
C170 H202 0.929 . S
C171 C172 1.358 . S
C171 C173 1.356 . S
C171 H203 0.930 . S
C172 N169 1.279 . S
C172 C171 1.358 . S
C172 H175 0.930 . S
C173 C170 1.348 1_455 S
C173 C171 1.356 . S
H174 C168 0.930 . S
H175 C172 0.930 . S
O176 Li116 1.956 1_455 S
O176 Li117 1.970 1_545 S
O176 Li118 1.961 1_455 S
O176 C120 1.325 . S
O177 Li116 1.970 1_565 S
O177 Li117 1.956 1_655 S
O177 Li119 1.961 1_655 S
O177 C126 1.325 1_655 S
O178 Li116 1.961 1_565 S
O178 Li118 1.956 1_565 S
O178 Li119 1.970 1_655 S
O178 C148 1.325 1_565 S
O179 Li117 1.961 1_545 S
O179 Li118 1.970 1_455 S
O179 Li119 1.956 1_545 S
O179 C154 1.325 . S
H180 C122 0.929 . S
H181 C123 0.930 . S
H182 C124 0.930 . S
H183 C125 0.930 . S
H184 C127 0.930 . S
H185 C129 0.929 . S
H186 C130 0.930 . S
H187 C131 0.930 . S
H188 C134 0.930 . S
H189 C137 0.929 . S
H190 C142 0.929 . S
H191 C143 0.930 . S
H192 C150 0.929 . S
H193 C151 0.930 . S
H194 C152 0.930 . S
H195 C153 0.930 . S
H196 C155 0.929 . S
H197 C156 0.930 . S
H198 C157 0.930 . S
H199 C158 0.930 . S
H200 C162 0.929 . S
H201 C164 0.930 . S
H202 C170 0.929 . S
H203 C171 0.930 . S
C204 C205 1.387 1_545 S
C204 H208 0.950 . S
C204 C213 1.390 . S
C205 C204 1.387 1_565 S
C205 C207 1.388 . S
H206 C213 0.950 . S
C207 C205 1.388 . S
C207 C209 1.390 . S
C207 H211 0.950 . S
H208 C204 0.950 . S
C209 C207 1.390 . S
C209 C210 1.387 . S
C209 H212 0.950 . S
C210 C209 1.387 . S
C210 C213 1.387 1_565 S
H211 C207 0.950 . S
H212 C209 0.950 . S
C213 C204 1.390 . S
C213 H206 0.950 . S
C213 C210 1.387 1_545 S
C214 C215 1.392 . S
C214 H218 0.950 . S
C214 C223 1.390 . S
C215 C214 1.392 . S
C215 C217 1.383 1_455 S
H216 C223 0.950 . S
C217 C215 1.383 1_655 S
C217 C219 1.390 . S
C217 H221 0.950 . S
H218 C214 0.950 . S
C219 C217 1.390 . S
C219 C220 1.387 1_655 S
C219 H222 0.950 . S
C220 C219 1.387 1_455 S
C220 C223 1.387 . S
H221 C217 0.950 . S
H222 C219 0.950 . S
C223 C214 1.390 . S
C223 H216 0.950 . S
C223 C220 1.387 . S
C224 C225 1.392 . S
C224 H228 0.950 . S
C224 C233 1.390 . S
C225 C224 1.392 . S
C225 C227 1.383 1_545 S
H226 C233 0.950 . S
C227 C225 1.383 1_565 S
C227 C229 1.390 . S
C227 H231 0.950 . S
H228 C224 0.950 . S
C229 C227 1.390 . S
C229 C230 1.387 1_565 S
C229 H232 0.950 . S
C230 C229 1.387 1_545 S
C230 C233 1.387 . S
H231 C227 0.950 . S
H232 C229 0.950 . S
C233 C224 1.390 . S
C233 H226 0.950 . S
C233 C230 1.387 . S
C234 C235 1.388 . S
C234 H238 0.950 . S
C234 C243 1.390 . S
C235 C234 1.388 . S
C235 C237 1.387 1_655 S
H236 C243 0.950 . S
C237 C235 1.387 1_455 S
C237 C239 1.390 . S
C237 H241 0.950 . S
H238 C234 0.950 . S
C239 C237 1.390 . S
C239 C240 1.387 1_455 S
C239 H242 0.950 . S
C240 C239 1.387 1_655 S
C240 C243 1.387 . S
H241 C237 0.950 . S
H242 C239 0.950 . S
C243 C234 1.390 . S
C243 H236 0.950 . S
C243 C240 1.387 . S
C244 C245 1.392 . S
C244 H248 0.950 . S
C244 C253 1.390 . S
C245 C244 1.392 . S
C245 C247 1.383 1_545 S
H246 C253 0.950 . S
C247 C245 1.383 1_565 S
C247 C249 1.390 . S
C247 H251 0.950 . S
H248 C244 0.950 . S
C249 C247 1.390 . S
C249 C250 1.387 1_565 S
C249 H252 0.950 . S
C250 C249 1.387 1_545 S
C250 C253 1.387 . S
H251 C247 0.950 . S
H252 C249 0.950 . S
C253 C244 1.390 . S
C253 H246 0.950 . S
C253 C250 1.387 . S
C254 C255 1.386 1_455 S
C254 H258 0.950 . S
C254 C263 1.390 . S
C255 C254 1.386 1_655 S
C255 C257 1.389 . S
H256 C263 0.950 . S
C257 C255 1.389 . S
C257 C259 1.390 . S
C257 H261 0.950 . S
H258 C254 0.950 . S
C259 C257 1.390 . S
C259 C260 1.404 . S
C259 H262 0.950 . S
C260 C259 1.404 . S
C260 C263 1.371 1_655 S
H261 C257 0.950 . S
H262 C259 0.950 . S
C263 C254 1.390 . S
C263 H256 0.950 . S
C263 C260 1.371 1_455 S
C264 C265 1.388 . S
C264 H268 0.950 . S
C264 C273 1.390 . S
C265 C264 1.388 . S
C265 C267 1.387 1_565 S
H266 C273 0.950 . S
C267 C265 1.387 1_545 S
C267 C269 1.390 . S
C267 H271 0.950 . S
H268 C264 0.950 . S
C269 C267 1.390 . S
C269 C270 1.387 1_545 S
C269 H272 0.950 . S
C270 C269 1.387 1_565 S
C270 C273 1.387 . S
H271 C267 0.950 . S
H272 C269 0.950 . S
C273 C264 1.390 . S
C273 H266 0.950 . S
C273 C270 1.387 . S
C274 C275 1.383 1_655 S
C274 H278 0.950 . S
C274 C283 1.390 . S
C275 C274 1.383 1_455 S
C275 C277 1.392 . S
H276 C283 0.950 . S
C277 C275 1.392 . S
C277 C279 1.390 . S
C277 H281 0.950 . S
H278 C274 0.950 . S
C279 C277 1.390 . S
C279 C280 1.387 . S
C279 H282 0.950 . S
C280 C279 1.387 . S
C280 C283 1.387 1_455 S
H281 C277 0.950 . S
H282 C279 0.950 . S
C283 C274 1.390 . S
C283 H276 0.950 . S
C283 C280 1.387 1_655 S
C210 C77 1.470 1_565 S
C205 C13 1.467 . S
C220 C165 1.471 . S
C215 C15 1.472 . S
C230 C85 1.471 . S
C225 C1 1.471 . S
C240 C173 1.471 1_655 S
C235 C27 1.472 . S
C250 C145 1.471 . S
C245 C0 1.473 1_545 S
C260 C48 1.470 1_655 S
C255 C26 1.471 1_655 S
C270 C136 1.471 1_565 S
C265 C12 1.475 1_565 S
C275 C14 1.471 1_455 S
C280 C57 1.470 . S
