# Generated by pormake.
# Topology gar, (4,6)-cn, num edge types: 1
# Building blocks:
#     Node 0, Type 0, BuildingBlock: TATPOV_clean_sbu_0, # of connection points: 4
#     Node 1, Type 0, BuildingBlock: TATPOV_clean_sbu_0, # of connection points: 4
#     Node 2, Type 0, BuildingBlock: TATPOV_clean_sbu_0, # of connection points: 4
#     Node 3, Type 0, BuildingBlock: TATPOV_clean_sbu_0, # of connection points: 4
#     Node 4, Type 0, BuildingBlock: TATPOV_clean_sbu_0, # of connection points: 4
#     Node 5, Type 0, BuildingBlock: TATPOV_clean_sbu_0, # of connection points: 4
#     Node 6, Type 0, BuildingBlock: TATPOV_clean_sbu_0, # of connection points: 4
#     Node 7, Type 0, BuildingBlock: TATPOV_clean_sbu_0, # of connection points: 4
#     Node 8, Type 0, BuildingBlock: TATPOV_clean_sbu_0, # of connection points: 4
#     Node 9, Type 0, BuildingBlock: TATPOV_clean_sbu_0, # of connection points: 4
#     Node 10, Type 0, BuildingBlock: TATPOV_clean_sbu_0, # of connection points: 4
#     Node 11, Type 0, BuildingBlock: TATPOV_clean_sbu_0, # of connection points: 4
#     Node 12, Type 0, BuildingBlock: TATPOV_clean_sbu_0, # of connection points: 4
#     Node 13, Type 0, BuildingBlock: TATPOV_clean_sbu_0, # of connection points: 4
#     Node 14, Type 0, BuildingBlock: TATPOV_clean_sbu_0, # of connection points: 4
#     Node 15, Type 0, BuildingBlock: TATPOV_clean_sbu_0, # of connection points: 4
#     Node 16, Type 0, BuildingBlock: TATPOV_clean_sbu_0, # of connection points: 4
#     Node 17, Type 0, BuildingBlock: TATPOV_clean_sbu_0, # of connection points: 4
#     Node 18, Type 0, BuildingBlock: TATPOV_clean_sbu_0, # of connection points: 4
#     Node 19, Type 0, BuildingBlock: TATPOV_clean_sbu_0, # of connection points: 4
#     Node 20, Type 0, BuildingBlock: TATPOV_clean_sbu_0, # of connection points: 4
#     Node 21, Type 0, BuildingBlock: TATPOV_clean_sbu_0, # of connection points: 4
#     Node 22, Type 0, BuildingBlock: TATPOV_clean_sbu_0, # of connection points: 4
#     Node 23, Type 0, BuildingBlock: TATPOV_clean_sbu_0, # of connection points: 4
#     Node 24, Type 1, BuildingBlock: KUMBOL_clean_sbu_1, # of connection points: 6
#     Node 25, Type 1, BuildingBlock: KUMBOL_clean_sbu_1, # of connection points: 6
#     Node 26, Type 1, BuildingBlock: KUMBOL_clean_sbu_1, # of connection points: 6
#     Node 27, Type 1, BuildingBlock: KUMBOL_clean_sbu_1, # of connection points: 6
#     Node 28, Type 1, BuildingBlock: KUMBOL_clean_sbu_1, # of connection points: 6
#     Node 29, Type 1, BuildingBlock: KUMBOL_clean_sbu_1, # of connection points: 6
#     Node 30, Type 1, BuildingBlock: KUMBOL_clean_sbu_1, # of connection points: 6
#     Node 31, Type 1, BuildingBlock: KUMBOL_clean_sbu_1, # of connection points: 6
#     Node 32, Type 1, BuildingBlock: KUMBOL_clean_sbu_1, # of connection points: 6
#     Node 33, Type 1, BuildingBlock: KUMBOL_clean_sbu_1, # of connection points: 6
#     Node 34, Type 1, BuildingBlock: KUMBOL_clean_sbu_1, # of connection points: 6
#     Node 35, Type 1, BuildingBlock: KUMBOL_clean_sbu_1, # of connection points: 6
#     Node 36, Type 1, BuildingBlock: KUMBOL_clean_sbu_1, # of connection points: 6
#     Node 37, Type 1, BuildingBlock: KUMBOL_clean_sbu_1, # of connection points: 6
#     Node 38, Type 1, BuildingBlock: KUMBOL_clean_sbu_1, # of connection points: 6
#     Node 39, Type 1, BuildingBlock: KUMBOL_clean_sbu_1, # of connection points: 6
#     Edge 40, Type (0, 1), BuildingBlock: TEMPAE_clean_linker_10, # of connection points: 2
#     Edge 41, Type (0, 1), BuildingBlock: TEMPAE_clean_linker_10, # of connection points: 2
#     Edge 42, Type (0, 1), BuildingBlock: TEMPAE_clean_linker_10, # of connection points: 2
#     Edge 43, Type (0, 1), BuildingBlock: TEMPAE_clean_linker_10, # of connection points: 2
#     Edge 44, Type (0, 1), BuildingBlock: TEMPAE_clean_linker_10, # of connection points: 2
#     Edge 45, Type (0, 1), BuildingBlock: TEMPAE_clean_linker_10, # of connection points: 2
#     Edge 46, Type (0, 1), BuildingBlock: TEMPAE_clean_linker_10, # of connection points: 2
#     Edge 47, Type (0, 1), BuildingBlock: TEMPAE_clean_linker_10, # of connection points: 2
#     Edge 48, Type (0, 1), BuildingBlock: TEMPAE_clean_linker_10, # of connection points: 2
#     Edge 49, Type (0, 1), BuildingBlock: TEMPAE_clean_linker_10, # of connection points: 2
#     Edge 50, Type (0, 1), BuildingBlock: TEMPAE_clean_linker_10, # of connection points: 2
#     Edge 51, Type (0, 1), BuildingBlock: TEMPAE_clean_linker_10, # of connection points: 2
#     Edge 52, Type (0, 1), BuildingBlock: TEMPAE_clean_linker_10, # of connection points: 2
#     Edge 53, Type (0, 1), BuildingBlock: TEMPAE_clean_linker_10, # of connection points: 2
#     Edge 54, Type (0, 1), BuildingBlock: TEMPAE_clean_linker_10, # of connection points: 2
#     Edge 55, Type (0, 1), BuildingBlock: TEMPAE_clean_linker_10, # of connection points: 2
#     Edge 56, Type (0, 1), BuildingBlock: TEMPAE_clean_linker_10, # of connection points: 2
#     Edge 57, Type (0, 1), BuildingBlock: TEMPAE_clean_linker_10, # of connection points: 2
#     Edge 58, Type (0, 1), BuildingBlock: TEMPAE_clean_linker_10, # of connection points: 2
#     Edge 59, Type (0, 1), BuildingBlock: TEMPAE_clean_linker_10, # of connection points: 2
#     Edge 60, Type (0, 1), BuildingBlock: TEMPAE_clean_linker_10, # of connection points: 2
#     Edge 61, Type (0, 1), BuildingBlock: TEMPAE_clean_linker_10, # of connection points: 2
#     Edge 62, Type (0, 1), BuildingBlock: TEMPAE_clean_linker_10, # of connection points: 2
#     Edge 63, Type (0, 1), BuildingBlock: TEMPAE_clean_linker_10, # of connection points: 2
#     Edge 64, Type (0, 1), BuildingBlock: TEMPAE_clean_linker_10, # of connection points: 2
#     Edge 65, Type (0, 1), BuildingBlock: TEMPAE_clean_linker_10, # of connection points: 2
#     Edge 66, Type (0, 1), BuildingBlock: TEMPAE_clean_linker_10, # of connection points: 2
#     Edge 67, Type (0, 1), BuildingBlock: TEMPAE_clean_linker_10, # of connection points: 2
#     Edge 68, Type (0, 1), BuildingBlock: TEMPAE_clean_linker_10, # of connection points: 2
#     Edge 69, Type (0, 1), BuildingBlock: TEMPAE_clean_linker_10, # of connection points: 2
#     Edge 70, Type (0, 1), BuildingBlock: TEMPAE_clean_linker_10, # of connection points: 2
#     Edge 71, Type (0, 1), BuildingBlock: TEMPAE_clean_linker_10, # of connection points: 2
#     Edge 72, Type (0, 1), BuildingBlock: TEMPAE_clean_linker_10, # of connection points: 2
#     Edge 73, Type (0, 1), BuildingBlock: TEMPAE_clean_linker_10, # of connection points: 2
#     Edge 74, Type (0, 1), BuildingBlock: TEMPAE_clean_linker_10, # of connection points: 2
#     Edge 75, Type (0, 1), BuildingBlock: TEMPAE_clean_linker_10, # of connection points: 2
#     Edge 76, Type (0, 1), BuildingBlock: TEMPAE_clean_linker_10, # of connection points: 2
#     Edge 77, Type (0, 1), BuildingBlock: TEMPAE_clean_linker_10, # of connection points: 2
#     Edge 78, Type (0, 1), BuildingBlock: TEMPAE_clean_linker_10, # of connection points: 2
#     Edge 79, Type (0, 1), BuildingBlock: TEMPAE_clean_linker_10, # of connection points: 2
#     Edge 80, Type (0, 1), BuildingBlock: TEMPAE_clean_linker_10, # of connection points: 2
#     Edge 81, Type (0, 1), BuildingBlock: TEMPAE_clean_linker_10, # of connection points: 2
#     Edge 82, Type (0, 1), BuildingBlock: TEMPAE_clean_linker_10, # of connection points: 2
#     Edge 83, Type (0, 1), BuildingBlock: TEMPAE_clean_linker_10, # of connection points: 2
#     Edge 84, Type (0, 1), BuildingBlock: TEMPAE_clean_linker_10, # of connection points: 2
#     Edge 85, Type (0, 1), BuildingBlock: TEMPAE_clean_linker_10, # of connection points: 2
#     Edge 86, Type (0, 1), BuildingBlock: TEMPAE_clean_linker_10, # of connection points: 2
#     Edge 87, Type (0, 1), BuildingBlock: TEMPAE_clean_linker_10, # of connection points: 2
#     Edge 88, Type (0, 1), BuildingBlock: TEMPAE_clean_linker_10, # of connection points: 2
#     Edge 89, Type (0, 1), BuildingBlock: TEMPAE_clean_linker_10, # of connection points: 2
#     Edge 90, Type (0, 1), BuildingBlock: TEMPAE_clean_linker_10, # of connection points: 2
#     Edge 91, Type (0, 1), BuildingBlock: TEMPAE_clean_linker_10, # of connection points: 2
#     Edge 92, Type (0, 1), BuildingBlock: TEMPAE_clean_linker_10, # of connection points: 2
#     Edge 93, Type (0, 1), BuildingBlock: TEMPAE_clean_linker_10, # of connection points: 2
#     Edge 94, Type (0, 1), BuildingBlock: TEMPAE_clean_linker_10, # of connection points: 2
#     Edge 95, Type (0, 1), BuildingBlock: TEMPAE_clean_linker_10, # of connection points: 2
#     Edge 96, Type (0, 1), BuildingBlock: TEMPAE_clean_linker_10, # of connection points: 2
#     Edge 97, Type (0, 1), BuildingBlock: TEMPAE_clean_linker_10, # of connection points: 2
#     Edge 98, Type (0, 1), BuildingBlock: TEMPAE_clean_linker_10, # of connection points: 2
#     Edge 99, Type (0, 1), BuildingBlock: TEMPAE_clean_linker_10, # of connection points: 2
#     Edge 100, Type (0, 1), BuildingBlock: TEMPAE_clean_linker_10, # of connection points: 2
#     Edge 101, Type (0, 1), BuildingBlock: TEMPAE_clean_linker_10, # of connection points: 2
#     Edge 102, Type (0, 1), BuildingBlock: TEMPAE_clean_linker_10, # of connection points: 2
#     Edge 103, Type (0, 1), BuildingBlock: TEMPAE_clean_linker_10, # of connection points: 2
#     Edge 104, Type (0, 1), BuildingBlock: TEMPAE_clean_linker_10, # of connection points: 2
#     Edge 105, Type (0, 1), BuildingBlock: TEMPAE_clean_linker_10, # of connection points: 2
#     Edge 106, Type (0, 1), BuildingBlock: TEMPAE_clean_linker_10, # of connection points: 2
#     Edge 107, Type (0, 1), BuildingBlock: TEMPAE_clean_linker_10, # of connection points: 2
#     Edge 108, Type (0, 1), BuildingBlock: TEMPAE_clean_linker_10, # of connection points: 2
#     Edge 109, Type (0, 1), BuildingBlock: TEMPAE_clean_linker_10, # of connection points: 2
#     Edge 110, Type (0, 1), BuildingBlock: TEMPAE_clean_linker_10, # of connection points: 2
#     Edge 111, Type (0, 1), BuildingBlock: TEMPAE_clean_linker_10, # of connection points: 2
#     Edge 112, Type (0, 1), BuildingBlock: TEMPAE_clean_linker_10, # of connection points: 2
#     Edge 113, Type (0, 1), BuildingBlock: TEMPAE_clean_linker_10, # of connection points: 2
#     Edge 114, Type (0, 1), BuildingBlock: TEMPAE_clean_linker_10, # of connection points: 2
#     Edge 115, Type (0, 1), BuildingBlock: TEMPAE_clean_linker_10, # of connection points: 2
#     Edge 116, Type (0, 1), BuildingBlock: TEMPAE_clean_linker_10, # of connection points: 2
#     Edge 117, Type (0, 1), BuildingBlock: TEMPAE_clean_linker_10, # of connection points: 2
#     Edge 118, Type (0, 1), BuildingBlock: TEMPAE_clean_linker_10, # of connection points: 2
#     Edge 119, Type (0, 1), BuildingBlock: TEMPAE_clean_linker_10, # of connection points: 2
#     Edge 120, Type (0, 1), BuildingBlock: TEMPAE_clean_linker_10, # of connection points: 2
#     Edge 121, Type (0, 1), BuildingBlock: TEMPAE_clean_linker_10, # of connection points: 2
#     Edge 122, Type (0, 1), BuildingBlock: TEMPAE_clean_linker_10, # of connection points: 2
#     Edge 123, Type (0, 1), BuildingBlock: TEMPAE_clean_linker_10, # of connection points: 2
#     Edge 124, Type (0, 1), BuildingBlock: TEMPAE_clean_linker_10, # of connection points: 2
#     Edge 125, Type (0, 1), BuildingBlock: TEMPAE_clean_linker_10, # of connection points: 2
#     Edge 126, Type (0, 1), BuildingBlock: TEMPAE_clean_linker_10, # of connection points: 2
#     Edge 127, Type (0, 1), BuildingBlock: TEMPAE_clean_linker_10, # of connection points: 2
#     Edge 128, Type (0, 1), BuildingBlock: TEMPAE_clean_linker_10, # of connection points: 2
#     Edge 129, Type (0, 1), BuildingBlock: TEMPAE_clean_linker_10, # of connection points: 2
#     Edge 130, Type (0, 1), BuildingBlock: TEMPAE_clean_linker_10, # of connection points: 2
#     Edge 131, Type (0, 1), BuildingBlock: TEMPAE_clean_linker_10, # of connection points: 2
#     Edge 132, Type (0, 1), BuildingBlock: TEMPAE_clean_linker_10, # of connection points: 2
#     Edge 133, Type (0, 1), BuildingBlock: TEMPAE_clean_linker_10, # of connection points: 2
#     Edge 134, Type (0, 1), BuildingBlock: TEMPAE_clean_linker_10, # of connection points: 2
#     Edge 135, Type (0, 1), BuildingBlock: TEMPAE_clean_linker_10, # of connection points: 2
# Relax obj value: 0.088
# Max RMSD: 0.187
# Mean RMSD: 0.130
data_MOF--net-gar--node1-TATPOV_clean_sbu_0--node2-KUMBOL_clean_sbu_1--edge1-TEMPAE_clean_linker_10
_symmetry_space_group_name_H-M    P1
_symmetry_Int_Tables_number       1
_symmetry_cell_setting            triclinic
loop_
_symmetry_equiv_pos_as_xyz
'x, y, z'
_cell_length_a     60.812394
_cell_length_b     60.860566
_cell_length_c     57.285225
_cell_angle_alpha  96.57952
_cell_angle_beta   97.058971
_cell_angle_gamma 103.30885
loop_
_atom_site_label
_atom_site_type_symbol
_atom_site_fract_x
_atom_site_fract_y
_atom_site_fract_z
_atom_type_partial_charge
Zn0 Zn 0.02899 0.31193 0.38898 0.0
Zn1 Zn 0.05409 0.31721 0.3593 0.0
O2 O 0.06026 0.35081 0.38229 0.0
O3 O 0.03515 0.34219 0.40634 0.0
O4 O 0.08521 0.31689 0.34279 0.0
O5 O 0.03769 0.2894 0.40732 0.0
O6 O 0.05571 0.28765 0.37647 0.0
C7 C 0.05037 0.35695 0.39982 0.0
C8 C 1.0003 0.30517 0.34434 0.0
O9 O 0.01977 0.31121 0.33676 0.0
O10 O 1.00053 0.30283 0.36598 0.0
C11 C 0.09123 0.31405 0.32199 0.0
O12 O 0.07565 0.31184 0.30326 0.0
C13 C 0.04969 0.27982 0.39521 0.0
Zn14 Zn 0.01991 0.72816 0.7215 0.0
Zn15 Zn 0.02118 0.75508 0.68919 0.0
O16 O 0.99101 0.75789 0.70476 0.0
O17 O 0.99122 0.73729 0.73372 0.0
O18 O 0.02537 0.78131 0.66966 0.0
O19 O 0.054 0.74206 0.73759 0.0
O20 O 0.0556 0.76084 0.70718 0.0
C21 C 0.98167 0.75002 0.72201 0.0
C22 C 0.01435 0.70546 0.67057 0.0
O23 O 0.01516 0.72542 0.66532 0.0
O24 O 0.01592 0.70236 0.69227 0.0
C25 C 0.01326 0.78228 0.6502 0.0
O26 O 0.99604 0.76488 0.64087 0.0
C27 C 0.06595 0.75489 0.72539 0.0
Zn28 Zn 0.53006 0.81363 0.88831 0.0
Zn29 Zn 0.55272 0.81385 0.85446 0.0
O30 O 0.56028 0.84884 0.87403 0.0
O31 O 0.54064 0.84521 0.9039 0.0
O32 O 0.58215 0.80972 0.83665 0.0
O33 O 0.53717 0.78946 0.90563 0.0
O34 O 0.55312 0.78556 0.87349 0.0
C35 C 0.55383 0.85777 0.8928 0.0
C36 C 0.49956 0.80518 0.84282 0.0
O37 O 0.51816 0.80763 0.83342 0.0
O38 O 0.50115 0.80638 0.86519 0.0
C39 C 0.59448 0.81865 0.82169 0.0
O40 O 0.58878 0.83539 0.81181 0.0
C41 C 0.54753 0.77852 0.89268 0.0
Zn42 Zn 0.52088 0.22514 0.21931 0.0
Zn43 Zn 0.52144 0.25261 0.18753 0.0
O44 O 0.4918 0.25536 0.20424 0.0
O45 O 0.4911 0.23214 0.23075 0.0
O46 O 0.52417 0.2775 0.16593 0.0
O47 O 0.55438 0.24037 0.23589 0.0
O48 O 0.55612 0.25952 0.20573 0.0
C49 C 0.48191 0.24596 0.22044 0.0
C50 C 0.5165 0.20273 0.16908 0.0
O51 O 0.51561 0.22242 0.16396 0.0
O52 O 0.51887 0.19968 0.19075 0.0
C53 C 0.50901 0.28839 0.16108 0.0
O54 O 0.48983 0.28338 0.16988 0.0
C55 C 0.56636 0.25362 0.22408 0.0
Zn56 Zn 0.09445 0.79844 0.07999 0.0
Zn57 Zn 0.06374 0.79401 0.10797 0.0
O58 O 0.06097 0.82453 0.09239 0.0
O59 O 0.08509 0.8267 0.06687 0.0
O60 O 0.037 0.78995 0.12695 0.0
O61 O 0.08325 0.76366 0.0651 0.0
O62 O 0.05675 0.76029 0.08812 0.0
C63 C 0.07053 0.83509 0.07664 0.0
C64 C 0.11451 0.80213 0.1302 0.0
O65 O 0.09348 0.79819 0.13316 0.0
O66 O 0.11946 0.80431 0.10953 0.0
C67 C 0.03445 0.80422 0.14388 0.0
O68 O 0.05038 0.8233 0.1508 0.0
C69 C 0.06675 0.75101 0.0727 0.0
Zn70 Zn 0.47669 0.76168 0.47017 0.0
Zn71 Zn 0.50441 0.76452 0.43946 0.0
O72 O 0.51215 0.79913 0.45842 0.0
O73 O 0.48866 0.79585 0.48473 0.0
O74 O 0.53036 0.76496 0.41939 0.0
O75 O 0.48577 0.73365 0.48402 0.0
O76 O 0.5066 0.73406 0.4555 0.0
C77 C 0.5034 0.80857 0.47501 0.0
C78 C 0.45383 0.75915 0.4206 0.0
O79 O 0.47402 0.76078 0.4155 0.0
O80 O 0.45055 0.75794 0.44198 0.0
C81 C 0.5363 0.77824 0.4044 0.0
O82 O 0.52484 0.79362 0.4003 0.0
C83 C 0.49881 0.72441 0.47265 0.0
Zn84 Zn 0.59363 0.29743 0.58005 0.0
Zn85 Zn 0.56359 0.29372 0.60866 0.0
O86 O 0.55982 0.32375 0.59244 0.0
O87 O 0.58415 0.32593 0.56713 0.0
O88 O 0.5381 0.2897 0.62914 0.0
O89 O 0.58211 0.26252 0.56568 0.0
O90 O 0.55621 0.25963 0.58937 0.0
C91 C 0.56938 0.33424 0.57662 0.0
C92 C 0.61464 0.30148 0.62993 0.0
O93 O 0.59381 0.29857 0.63337 0.0
O94 O 0.61917 0.30276 0.60897 0.0
C95 C 0.53274 0.30563 0.64192 0.0
O96 O 0.54447 0.3268 0.64277 0.0
C97 C 0.56592 0.25004 0.57388 0.0
Zn98 Zn 0.97502 0.26073 0.97015 0.0
Zn99 Zn 0.00518 0.26502 0.94123 0.0
O100 O 0.01117 0.29869 0.95968 0.0
O101 O 0.98822 0.29505 0.98648 0.0
O102 O 0.03261 0.26813 0.9232 0.0
O103 O 0.98304 0.23141 0.98194 0.0
O104 O 0.00903 0.23566 0.95844 0.0
C105 C 1.003 0.30781 0.9768 0.0
C106 C 0.9544 0.258 0.91979 0.0
O107 O 0.97517 0.26055 0.9161 0.0
O108 O 0.94995 0.25666 0.94078 0.0
C109 C 0.03344 0.27214 0.90196 0.0
O110 O 0.01494 0.27462 0.88916 0.0
C111 C 0.99891 0.22435 0.97336 0.0
Zn112 Zn 0.42987 0.98714 0.29515 0.0
Zn113 Zn 0.39927 0.01557 0.28923 0.0
O114 O 0.40258 0.01553 0.32394 0.0
O115 O 0.43684 0.00858 0.32586 0.0
O116 O 0.38203 0.0384 0.28363 0.0
O117 O 0.43869 0.99875 0.26591 0.0
O118 O 0.4288 0.02941 0.27939 0.0
C119 C 0.42183 0.01613 0.33549 0.0
C120 C 0.38146 0.96693 0.27643 0.0
O121 O 0.38015 0.98616 0.27083 0.0
O122 O 0.39922 0.96447 0.28893 0.0
C123 C 0.36693 0.04182 0.29601 0.0
O124 O 0.3614 0.0288 0.31221 0.0
C125 C 0.43575 0.01825 0.26322 0.0
Zn126 Zn 0.24696 0.20918 0.51212 0.0
Zn127 Zn 0.27423 0.18225 0.51482 0.0
O128 O 0.27895 0.19603 0.48326 0.0
O129 O 0.25512 0.21819 0.48094 0.0
O130 O 0.29899 0.16509 0.51777 0.0
O131 O 0.2603 0.2279 0.54438 0.0
O132 O 0.28031 0.20243 0.54836 0.0
C133 C 0.26961 0.20929 0.47196 0.0
C134 C 0.22361 0.16146 0.51035 0.0
O135 O 0.24361 0.1581 0.51118 0.0
O136 O 0.22093 0.18153 0.51083 0.0
C137 C 0.29694 0.14458 0.50846 0.0
O138 O 0.27726 0.13283 0.4961 0.0
C139 C 0.27375 0.21959 0.55734 0.0
Zn140 Zn 0.11079 0.07643 0.79166 0.0
Zn141 Zn 0.13331 0.04423 0.78579 0.0
O142 O 0.1191 0.03857 0.81652 0.0
O143 O 0.09933 0.06447 0.82086 0.0
O144 O 0.14956 0.01924 0.78214 0.0
O145 O 0.09384 0.06597 0.75764 0.0
O146 O 0.1124 0.03914 0.75317 0.0
C147 C 0.10615 0.04791 0.82803 0.0
C148 C 0.15928 0.09437 0.79351 0.0
O149 O 0.15919 0.07338 0.7891 0.0
O150 O 0.14098 0.1003 0.79603 0.0
C151 C 0.16853 0.02022 0.79482 0.0
O152 O 0.17799 0.0382 0.81091 0.0
C153 C 0.09822 0.04974 0.74455 0.0
Zn154 Zn 0.32127 0.90988 0.00633 0.0
Zn155 Zn 0.29074 0.92595 -0.0024 0.0
O156 O 0.2898 0.90505 0.96739 0.0
O157 O 0.32628 0.90523 0.97285 0.0
O158 O 0.26379 0.93773 0.99113 0.0
O159 O 0.30273 0.88403 0.0188 0.0
O160 O 0.28681 0.91183 0.02821 0.0
C161 C 0.30731 0.90114 0.95939 0.0
C162 C 0.33592 0.95506 0.01656 0.0
O163 O 0.31849 0.95274 0.00102 0.0
O164 O 0.33715 0.93887 0.0282 0.0
C165 C 0.26343 0.95336 0.9784 0.0
O166 O 0.28165 0.96219 0.96923 0.0
C167 C 0.29129 0.8931 0.0322 0.0
Zn168 Zn 0.32614 0.35485 0.03713 0.0
Zn169 Zn 0.29803 0.38099 0.03797 0.0
O170 O 0.29074 0.36272 0.00349 0.0
O171 O 0.30887 0.33553 0.0064 0.0
O172 O 0.27304 0.39806 0.03917 0.0
O173 O 0.3215 0.34596 0.06938 0.0
O174 O 0.29358 0.36341 0.06707 0.0
C175 C 0.2957 0.34472 0.99417 0.0
C176 C 0.34818 0.40251 0.03823 0.0
O177 O 0.32878 0.40563 0.04196 0.0
O178 O 0.35095 0.38249 0.03449 0.0
C179 C 0.27405 0.41746 0.03258 0.0
O180 O 0.29232 0.42757 0.02421 0.0
C181 C 0.30492 0.35137 0.07789 0.0
Zn182 Zn 0.74806 0.15224 0.05349 0.0
Zn183 Zn 0.77544 0.13197 0.05295 0.0
O184 O 0.78484 0.15392 0.02937 0.0
O185 O 0.74919 0.15518 0.01976 0.0
O186 O 0.79907 0.11508 0.05585 0.0
O187 O 0.76774 0.17714 0.07755 0.0
O188 O 0.77819 0.14686 0.0871 0.0
C189 C 0.76957 0.1594 0.01567 0.0
C190 C 0.72737 0.10856 0.04919 0.0
O191 O 0.74531 0.10886 0.03994 0.0
O192 O 0.72603 0.126 0.06261 0.0
C193 C 0.79574 0.09391 0.04906 0.0
O194 O 0.77542 0.08183 0.03864 0.0
C195 C 0.77727 0.16736 0.09259 0.0
Zn196 Zn 0.15612 0.567 0.23094 0.0
Zn197 Zn 0.18708 0.53643 0.24691 0.0
O198 O 0.17084 0.53116 0.2741 0.0
O199 O 0.14937 0.55367 0.26187 0.0
O200 O 0.20733 0.51612 0.24394 0.0
O201 O 0.17586 0.5586 0.20591 0.0
O202 O 0.16475 0.52577 0.21676 0.0
C203 C 0.15482 0.54094 0.27659 0.0
C204 C 0.20548 0.58471 0.2419 0.0
O205 O 0.20657 0.5688 0.25405 0.0
O206 O 0.18851 0.58264 0.22579 0.0
C207 C 0.22806 0.52217 0.24105 0.0
O208 O 0.2386 0.54384 0.243 0.0
C209 C 0.16639 0.53768 0.20015 0.0
Zn210 Zn 0.82694 0.85808 0.54196 0.0
Zn211 Zn 0.7982 0.88327 0.53815 0.0
O212 O 0.79248 0.86352 0.50411 0.0
O213 O 0.81647 0.84173 0.50897 0.0
O214 O 0.77267 0.89989 0.53774 0.0
O215 O 0.81645 0.84421 0.56996 0.0
O216 O 0.79335 0.86719 0.56837 0.0
C217 C 0.8018 0.84817 0.49558 0.0
C218 C 0.84904 0.90573 0.54373 0.0
O219 O 0.82865 0.90825 0.54161 0.0
O220 O 0.85266 0.88623 0.54528 0.0
C221 C 0.77259 0.91831 0.52929 0.0
O222 O 0.79004 0.92781 0.51935 0.0
C223 C 0.80124 0.85229 0.57836 0.0
Zn224 Zn 0.95817 0.98966 0.25696 0.0
Zn225 Zn 0.93264 0.01842 0.25862 0.0
O226 O 0.95206 0.02438 0.2925 0.0
O227 O 0.97326 0.99954 0.29086 0.0
O228 O 0.91636 0.04388 0.26045 0.0
O229 O 0.97198 1.0005 0.22924 0.0
O230 O 0.9486 0.02319 0.22865 0.0
C231 C 0.96694 0.01529 0.3025 0.0
C232 C 0.90993 0.96776 0.25042 0.0
O233 O 0.9075 0.98811 0.25387 0.0
O234 O 0.9297 0.96438 0.25037 0.0
C235 C 0.89688 0.0432 0.24895 0.0
O236 O 0.88547 0.02442 0.23485 0.0
C237 C 0.96356 0.01491 0.21938 0.0
Zn238 Zn 0.23901 0.6392 0.56133 0.0
Zn239 Zn 0.27365 0.62654 0.55742 0.0
O240 O 0.27766 0.64704 0.53213 0.0
O241 O 0.24125 0.64695 0.52823 0.0
O242 O 0.2994 0.61216 0.55897 0.0
O243 O 0.25152 0.66231 0.58901 0.0
O244 O 0.27763 0.64265 0.59141 0.0
C245 C 0.26022 0.65115 0.52052 0.0
C246 C 0.22749 0.59455 0.55248 0.0
O247 O 0.24599 0.60049 0.54437 0.0
O248 O 0.22256 0.60848 0.56774 0.0
C249 C 0.29749 0.59287 0.54689 0.0
O250 O 0.27857 0.58294 0.53219 0.0
C251 C 0.26822 0.65735 0.60068 0.0
Zn252 Zn 0.46554 0.49277 0.76094 0.0
Zn253 Zn 0.43628 0.51881 0.75864 0.0
O254 O 0.45368 0.52726 0.7932 0.0
O255 O 0.4806 0.50845 0.79379 0.0
O256 O 0.41752 0.54208 0.7569 0.0
O257 O 0.47875 0.50283 0.73236 0.0
O258 O 0.45426 0.52431 0.73027 0.0
C259 C 0.47092 0.52216 0.80422 0.0
C260 C 0.41726 0.46793 0.7555 0.0
O261 O 0.41326 0.48754 0.75486 0.0
O262 O 0.43771 0.46598 0.75766 0.0
C263 C 0.40583 0.54576 0.77317 0.0
O264 O 0.40523 0.53334 0.79051 0.0
C265 C 0.47034 0.51706 0.72216 0.0
Zn266 Zn 0.67527 0.07906 0.75126 0.0
Zn267 Zn 0.69075 0.04633 0.74947 0.0
O268 O 0.66737 0.03852 0.77106 0.0
O269 O 0.67255 0.07465 0.78537 0.0
O270 O 0.70285 0.01955 0.74575 0.0
O271 O 0.64941 0.06167 0.72699 0.0
O272 O 0.67701 0.04718 0.71585 0.0
C273 C 0.6654 0.05375 0.78711 0.0
C274 C 0.72054 0.09032 0.75488 0.0
O275 O 0.71687 0.07299 0.76542 0.0
O276 O 0.70486 0.09224 0.73932 0.0
C277 C 0.72149 0.01976 0.73804 0.0
O278 O 0.73424 0.03892 0.73362 0.0
C279 C 0.65737 0.05083 0.71135 0.0
Zn280 Zn 0.74361 0.7092 0.0076 0.0
Zn281 Zn 0.77509 0.68604 0.01311 0.0
O282 O 0.77986 0.70044 0.98218 0.0
O283 O 0.75514 0.72158 0.97899 0.0
O284 O 0.80031 0.66954 0.01588 0.0
O285 O 0.75359 0.7251 0.04165 0.0
O286 O 0.78062 0.70665 0.04607 0.0
C287 C 0.7708 0.71389 0.97093 0.0
C288 C 0.72454 0.66117 0.00471 0.0
O289 O 0.7454 0.66066 0.00969 0.0
O290 O 0.7192 0.67973 0.0021 0.0
C291 C 0.79841 0.64976 0.00461 0.0
O292 O 0.77912 0.63914 0.99081 0.0
C293 C 0.76984 0.72055 0.05474 0.0
Zn294 Zn 0.90756 0.50085 0.78645 0.0
Zn295 Zn 0.88829 0.52857 0.79577 0.0
O296 O 0.91013 0.52971 0.82573 0.0
O297 O 0.90924 0.49327 0.81954 0.0
O298 O 0.87272 0.5525 0.80474 0.0
O299 O 0.93277 0.52417 0.77731 0.0
O300 O 0.90343 0.53788 0.76721 0.0
C301 C 0.91335 0.51181 0.83348 0.0
C302 C 0.86381 0.48214 0.77241 0.0
O303 O 0.86396 0.49834 0.78857 0.0
O304 O 0.88117 0.48307 0.76217 0.0
C305 C 0.8557 0.54945 0.81579 0.0
O306 O 0.84676 0.52912 0.8209 0.0
C307 C 0.92358 0.53644 0.76485 0.0
Zn308 Zn 0.82898 0.41071 0.50007 0.0
Zn309 Zn 0.80071 0.43114 0.50265 0.0
O310 O 0.79496 0.41677 0.4689 0.0
O311 O 0.83078 0.41806 0.46711 0.0
O312 O 0.77648 0.44609 0.50578 0.0
O313 O 0.80772 0.38182 0.50547 0.0
O314 O 0.7949 0.40817 0.52456 0.0
C315 C 0.81045 0.41437 0.4567 0.0
C316 C 0.84705 0.45204 0.52689 0.0
O317 O 0.83007 0.45541 0.51377 0.0
O318 O 0.84868 0.43186 0.52799 0.0
C319 C 0.77243 0.46128 0.49382 0.0
O320 O 0.7857 0.4685 0.4784 0.0
C321 C 0.79659 0.38774 0.52125 0.0
Zn322 Zn 0.60864 0.57415 0.28966 0.0
Zn323 Zn 0.63399 0.54507 0.28657 0.0
O324 O 0.61869 0.54016 0.31708 0.0
O325 O 0.5935 0.56097 0.31618 0.0
O326 O 0.65003 0.51957 0.28362 0.0
O327 O 0.59406 0.56525 0.25522 0.0
O328 O 0.61462 0.54001 0.25271 0.0
C329 C 0.60273 0.54702 0.32594 0.0
C330 C 0.65767 0.59522 0.29586 0.0
O331 O 0.65938 0.57475 0.29118 0.0
O332 O 0.63824 0.59912 0.29733 0.0
C333 C 0.66739 0.5184 0.29779 0.0
O334 O 0.67616 0.53487 0.31571 0.0
C335 C 0.60021 0.54977 0.24288 0.0
C336 C 0.99171 0.96484 0.97991 0.0
C337 C 0.97596 0.94092 0.00807 0.0
C338 C 0.98689 0.96246 0.00282 0.0
C339 C 0.96919 0.92207 0.98993 0.0
C340 C 0.98543 0.94577 0.96184 0.0
C341 C 0.97393 0.92448 0.96691 0.0
N342 N 1.00285 0.98567 0.97543 0.0
C343 C 0.0081 0.98861 0.95329 0.0
C344 C 0.99093 0.94864 0.93917 0.0
C345 C 1.00237 0.97014 0.93491 0.0
Gd346 Gd 0.06763 0.04623 0.04272 0.0
Gd347 Gd 0.00764 0.0156 0.00665 0.0
N348 N 0.99415 0.98088 0.02024 0.0
C349 C 0.97267 0.93883 0.03156 0.0
C350 C 0.99111 0.97889 0.04315 0.0
C351 C 0.98045 0.95786 0.04919 0.0
H352 H 0.99707 0.99331 0.05687 0.0
H353 H 0.97818 0.95637 0.06744 0.0
H354 H 0.09014 0.06129 0.99385 0.0
H355 H 0.01563 0.00536 0.94941 0.0
H356 H 0.10384 0.09597 0.97662 0.0
H357 H 0.96445 0.92254 0.03632 0.0
H358 H 0.96064 0.90543 0.99362 0.0
H359 H 0.07277 0.0629 0.10148 0.0
H360 H 0.98634 0.93441 0.92481 0.0
H361 H 0.00637 0.97258 0.91735 0.0
H362 H 0.10931 0.1564 0.04005 0.0
H363 H 0.96883 0.90969 0.95318 0.0
H364 H 0.09336 0.13571 0.11545 0.0
H365 H 0.08131 0.09859 0.12971 0.0
N366 N 0.0768 0.07948 0.07114 0.0
C367 C 0.08468 0.09958 0.06318 0.0
C368 C 0.07629 0.079 0.09483 0.0
C369 C 0.08877 0.12007 0.10287 0.0
C370 C 0.08187 0.09919 0.11097 0.0
C371 C 0.09067 0.12045 0.07881 0.0
H372 H 0.10367 0.15709 0.08187 0.0
N373 N 0.0832 0.0786 0.02535 0.0
C374 C 0.08794 0.09915 0.0396 0.0
C375 C 0.10198 0.11846 0.00778 0.0
C376 C 0.0972 0.11964 0.03109 0.0
C377 C 0.09011 0.07736 0.00357 0.0
C378 C 0.09886 0.09717 0.99414 0.0
O379 O 0.03102 0.99168 0.01578 0.0
O380 O 0.05369 0.01003 0.0507 0.0
O381 O 0.10083 0.04101 0.03654 0.0
O382 O 0.09271 0.04565 0.07276 0.0
O383 O 0.00681 0.03327 0.04344 0.0
O384 O 0.04148 0.03556 0.06658 0.0
O385 O 0.04391 0.07029 0.03541 0.0
O386 O 0.02073 0.05273 0.00029 0.0
O387 O 0.97423 0.01888 0.01325 0.0
O388 O 0.98042 0.01114 0.97715 0.0
O389 O 0.06512 0.02673 0.00529 0.0
O390 O 0.03289 0.03343 0.98595 0.0
C391 C 0.04446 0.99112 0.03562 0.0
C392 C 0.0198 0.03608 0.06423 0.0
C393 C 0.13037 0.04108 0.06924 0.0
C394 C 0.16451 0.02837 0.06353 0.0
C395 C 0.16207 0.04913 0.1016 0.0
C396 C 0.14014 0.05069 0.09273 0.0
C397 C 0.17434 0.03816 0.08705 0.0
C398 C 0.14236 0.02961 0.055 0.0
C399 C 0.10769 0.04276 0.05932 0.0
C400 C 0.10227 0.14052 0.04633 0.0
C401 C 0.09906 0.14092 0.07014 0.0
H402 H 0.10914 0.13378 0.0006 0.0
C403 C 0.03058 0.07137 0.01571 0.0
C404 C 0.05289 0.02924 0.98558 0.0
C405 C 0.95396 0.03319 0.98297 0.0
C406 C 0.92827 0.05716 0.99177 0.0
C407 C 0.93749 0.05107 0.95179 0.0
C408 C 0.95128 0.03698 0.95916 0.0
C409 C 0.92574 0.06086 0.96787 0.0
C410 C 0.94307 0.04397 -0.00076 0.0
C411 C 0.96627 0.01654 0.99064 0.0
H412 H 0.16968 0.05667 0.11967 0.0
H413 H 0.13094 0.05955 0.10408 0.0
H414 H 0.19155 0.03766 0.09408 0.0
H415 H 0.13424 0.02144 0.03721 0.0
H416 H 0.93526 0.05375 0.93338 0.0
H417 H 0.95944 0.02874 0.94615 0.0
H418 H 0.91405 0.07053 0.9613 0.0
H419 H 0.94548 0.04134 0.01768 0.0
C420 C 0.31533 0.74758 0.22379 0.0
C421 C 0.28704 0.73513 0.18828 0.0
C422 C 0.29646 0.75045 0.20944 0.0
C423 C 0.29613 0.7163 0.18258 0.0
C424 C 0.32501 0.72919 0.21782 0.0
C425 C 0.31509 0.71334 0.19731 0.0
N426 N 0.3241 0.7628 0.24386 0.0
C427 C 0.34335 0.76151 0.25804 0.0
C428 C 0.3444 0.72732 0.23265 0.0
C429 C 0.35375 0.7437 0.25271 0.0
Gd430 Gd 0.26245 0.78245 0.31002 0.0
Gd431 Gd 0.3043 0.79052 0.25337 0.0
N432 N 0.28794 0.7687 0.2157 0.0
C433 C 0.26916 0.73952 0.17321 0.0
C434 C 0.27202 0.77418 0.19988 0.0
C435 C 0.26199 0.75942 0.17877 0.0
H436 H 0.26698 0.78999 0.20318 0.0
H437 H 0.24888 0.76352 0.16671 0.0
H438 H 0.30757 0.79095 0.35528 0.0
H439 H 0.35046 0.77405 0.27366 0.0
H440 H 0.32297 0.81659 0.39256 0.0
H441 H 0.26142 0.72815 0.15682 0.0
H442 H 0.28891 0.70419 0.16657 0.0
H443 H 0.21234 0.79376 0.29142 0.0
H444 H 0.35238 0.71343 0.22866 0.0
H445 H 0.36885 0.74253 0.26417 0.0
H446 H 0.26815 0.86086 0.40215 0.0
H447 H 0.32212 0.69893 0.19253 0.0
H448 H 0.20223 0.84623 0.34225 0.0
H449 H 0.18916 0.81975 0.3044 0.0
N450 N 0.23869 0.80577 0.3213 0.0
C451 C 0.24595 0.81978 0.34247 0.0
C452 C 0.21847 0.80544 0.3078 0.0
C453 C 0.21255 0.83487 0.33662 0.0
C454 C 0.20515 0.82002 0.31521 0.0
C455 C 0.23313 0.83488 0.35057 0.0
H456 H 0.23174 0.86144 0.37858 0.0
N457 N 0.27898 0.80514 0.34712 0.0
C458 C 0.26666 0.81951 0.35571 0.0
C459 C 0.29549 0.83344 0.39058 0.0
C460 C 0.2748 0.83426 0.37749 0.0
C461 C 0.29858 0.80349 0.36057 0.0
C462 C 0.30727 0.8178 0.38221 0.0
O463 O 0.29608 0.75575 0.26325 0.0
O464 O 0.26406 0.76148 0.27563 0.0
O465 O 0.26112 0.75428 0.32968 0.0
O466 O 0.22961 0.76193 0.31538 0.0
O467 O 0.26762 0.79456 0.24438 0.0
O468 O 0.24343 0.78426 0.27309 0.0
O469 O 0.2746 0.81985 0.30892 0.0
O470 O 0.28992 0.80221 0.28373 0.0
O471 O 0.3087 0.82079 0.23667 0.0
O472 O 0.33851 0.80999 0.25069 0.0
O473 O 0.29877 0.77583 0.31531 0.0
O474 O 0.32309 0.79601 0.29163 0.0
C475 C 0.27844 0.74868 0.27357 0.0
C476 C 0.24745 0.79069 0.25215 0.0
C477 C 0.23234 0.74964 0.35312 0.0
C478 C 0.23871 0.73737 0.39162 0.0
C479 C 0.21557 0.76451 0.38587 0.0
C480 C 0.21911 0.76378 0.36219 0.0
C481 C 0.22547 0.75151 0.40064 0.0
C482 C 0.24166 0.7362 0.36778 0.0
C483 C 0.23917 0.75043 0.32956 0.0
C484 C 0.26208 0.84935 0.38554 0.0
C485 C 0.24132 0.84966 0.37213 0.0
H486 H 0.30231 0.84451 0.40735 0.0
C487 C 0.28742 0.82175 0.29285 0.0
C488 C 0.31938 0.78383 0.30931 0.0
C489 C 0.33859 0.82505 0.21433 0.0
C490 C 0.33116 0.83454 0.17473 0.0
C491 C 0.35984 0.81364 0.18382 0.0
C492 C 0.3552 0.81414 0.20716 0.0
C493 C 0.34758 0.82347 0.16749 0.0
C494 C 0.32734 0.83595 0.19823 0.0
C495 C 0.33062 0.8232 0.23731 0.0
H496 H 0.20546 0.77545 0.3929 0.0
H497 H 0.21195 0.77457 0.35126 0.0
H498 H 0.22273 0.75242 0.41902 0.0
H499 H 0.25224 0.72563 0.36088 0.0
H500 H 0.37249 0.8051 0.17823 0.0
H501 H 0.36414 0.80555 0.21928 0.0
H502 H 0.35085 0.82243 0.14927 0.0
H503 H 0.31443 0.84434 0.20359 0.0
C504 C 0.58005 0.07655 0.48865 0.0
C505 C 0.60788 0.10169 0.52038 0.0
C506 C 0.59148 0.08092 0.51198 0.0
C507 C 0.61259 0.11808 0.50513 0.0
C508 C 0.58503 0.09288 0.47324 0.0
C509 C 0.60123 0.11368 0.48164 0.0
N510 N 0.56417 0.05638 0.48106 0.0
C511 C 0.55364 0.05101 0.45795 0.0
C512 C 0.57365 0.0878 0.44977 0.0
C513 C 0.55803 0.06671 0.44206 0.0
Gd514 Gd 0.5009 0.02367 0.5402 0.0
Gd515 Gd 0.55887 0.03151 0.50944 0.0
N516 N 0.5861 0.06504 0.52664 0.0
C517 C 0.61912 0.10532 0.54387 0.0
C518 C 0.59792 0.06788 0.54901 0.0
C519 C 0.61431 0.08821 0.55815 0.0
H520 H 0.59513 0.0543 0.55956 0.0
H521 H 0.62342 0.09054 0.57607 0.0
H522 H 0.46821 0.99943 0.48775 0.0
H523 H 0.54218 0.03448 0.45144 0.0
H524 H 0.44276 0.9621 0.4699 0.0
H525 H 0.63184 0.12106 0.55099 0.0
H526 H 0.62508 0.13418 0.51129 0.0
H527 H 0.51657 0.02032 0.59816 0.0
H528 H 0.57703 0.09989 0.43738 0.0
H529 H 0.54951 0.06245 0.42381 0.0
H530 H 0.44037 0.91802 0.53424 0.0
H531 H 0.60518 0.12646 0.47005 0.0
H532 H 0.48395 0.9533 0.61011 0.0
H533 H 0.50953 0.99152 0.62507 0.0
N534 N 0.49603 0.99825 0.56788 0.0
C535 C 0.48133 0.97751 0.55936 0.0
C536 C 0.50584 0.00353 0.5912 0.0
C537 C 0.48712 0.96579 0.5981 0.0
C538 C 0.50165 0.98733 0.6066 0.0
C539 C 0.47669 0.96066 0.57427 0.0
H540 H 0.45818 0.92611 0.57622 0.0
N541 N 0.47633 0.98916 0.52114 0.0
C542 C 0.47107 0.9729 0.53549 0.0
C543 C 0.44629 0.94742 0.50224 0.0
C544 C 0.45621 0.95142 0.52622 0.0
C545 C 0.46574 0.98581 0.4982 0.0
C546 C 0.45088 0.96479 0.48825 0.0
O547 O 0.54982 0.06516 0.5236 0.0
O548 O 0.52313 0.06057 0.54996 0.0
O549 O 0.47034 0.03453 0.52775 0.0
O550 O 0.47868 0.03127 0.56496 0.0
O551 O 0.55323 0.01862 0.54374 0.0
O552 O 0.53275 0.03741 0.56582 0.0
O553 O 0.51384 0.99141 0.52922 0.0
O554 O 0.53372 0.99667 0.49747 0.0
O555 O 0.58785 0.01669 0.5208 0.0
O556 O 0.57872 0.02148 0.48379 0.0
O557 O 0.50758 0.03951 0.50791 0.0
O558 O 0.52606 0.02003 0.48444 0.0
C559 C 0.53831 0.07365 0.53924 0.0
C560 C 0.55152 0.03111 0.56319 0.0
C561 C 0.46034 0.0602 0.55643 0.0
C562 C 0.43378 0.08465 0.55489 0.0
C563 C 0.46995 0.09705 0.58163 0.0
C564 C 0.47563 0.07684 0.57368 0.0
C565 C 0.44905 0.10087 0.57248 0.0
C566 C 0.43956 0.06435 0.54676 0.0
C567 C 0.46545 0.03814 0.5492 0.0
C568 C 0.45171 0.93464 0.54108 0.0
C569 C 0.46188 0.93925 0.565 0.0
H570 H 0.43478 0.93113 0.49446 0.0
C571 C 0.5224 0.98321 0.51085 0.0
C572 C 0.50849 0.02828 0.4876 0.0
C573 C 0.61146 0.00597 0.49107 0.0
C574 C 0.64151 0.98549 0.49607 0.0
C575 C 0.63362 1.00048 0.45928 0.0
C576 C 0.61649 0.00899 0.46813 0.0
C577 C 0.64599 0.98877 0.47306 0.0
C578 C 0.62432 0.9944 0.50529 0.0
C579 C 0.59244 0.01474 0.49907 0.0
H580 H 0.48171 0.10971 0.59505 0.0
H581 H 0.49181 0.07409 0.58127 0.0
H582 H 0.44485 0.11661 0.57895 0.0
H583 H 0.42769 0.05162 0.53342 0.0
H584 H 0.63727 0.0029 0.44159 0.0
H585 H 0.60711 0.01794 0.45685 0.0
H586 H 0.65927 0.98229 0.46574 0.0
H587 H 0.62069 0.99187 0.52298 0.0
C588 C 0.24083 0.30359 0.72416 0.0
C589 C 0.21432 0.26995 0.70097 0.0
C590 C 0.22897 0.281 0.72213 0.0
C591 C 0.21243 0.28183 0.6815 0.0
C592 C 0.23817 0.31592 0.70504 0.0
C593 C 0.22434 0.30478 0.68353 0.0
N594 N 0.25393 0.31384 0.74528 0.0
C595 C 0.26282 0.33693 0.74917 0.0
C596 C 0.24891 0.33923 0.70837 0.0
C597 C 0.26094 0.34985 0.73067 0.0
Gd598 Gd 0.32024 0.27317 0.78019 0.0
Gd599 Gd 0.25784 0.28998 0.77448 0.0
N600 N 0.23152 0.2699 0.74112 0.0
C601 C 0.20179 0.2474 0.70018 0.0
C602 C 0.21859 0.24832 0.74089 0.0
C603 C 0.20373 0.23663 0.72035 0.0
H604 H 0.22018 0.24002 0.75639 0.0
H605 H 0.19387 0.21933 0.72006 0.0
H606 H 0.35274 0.32789 0.79193 0.0
H607 H 0.27123 0.34562 0.76657 0.0
H608 H 0.37937 0.353 0.82517 0.0
H609 H 0.19037 0.23829 0.68424 0.0
H610 H 0.20148 0.27357 0.66498 0.0
H611 H 0.31215 0.2209 0.79448 0.0
H612 H 0.24732 0.34932 0.69414 0.0
H613 H 0.26855 0.36805 0.73373 0.0
H614 H 0.38945 0.30364 0.88301 0.0
H615 H 0.2223 0.31391 0.66857 0.0
H616 H 0.34987 0.22456 0.86349 0.0
H617 H 0.3235 0.20182 0.82812 0.0
N618 N 0.33039 0.25397 0.81124 0.0
C619 C 0.34583 0.26661 0.82983 0.0
C620 C 0.32289 0.23095 0.81014 0.0
C621 C 0.34462 0.23299 0.84888 0.0
C622 C 0.32965 0.22011 0.82901 0.0
C623 C 0.35309 0.25651 0.84938 0.0
H624 H 0.37438 0.26266 0.88385 0.0
N625 N 0.3472 0.29886 0.8099 0.0
C626 C 0.35444 0.28971 0.82918 0.0
C627 C 0.37903 0.32643 0.84702 0.0
C628 C 0.37045 0.3033 0.84831 0.0
C629 C 0.35662 0.32108 0.80799 0.0
C630 C 0.37227 0.33529 0.82666 0.0
O631 O 0.26513 0.26653 0.74376 0.0
O632 O 0.30314 0.28211 0.74683 0.0
O633 O 0.35429 0.27748 0.7701 0.0
O634 O 0.32835 0.24505 0.75879 0.0
O635 O 0.26138 0.25855 0.7904 0.0
O636 O 0.28833 0.24352 0.77306 0.0
O637 O 0.30475 0.27746 0.81425 0.0
O638 O 0.28618 0.3046 0.80523 0.0
O639 O 0.23055 0.27788 0.79509 0.0
O640 O 0.23821 0.31262 0.7879 0.0
O641 O 0.31858 0.30616 0.76576 0.0
O642 O 0.29016 0.319 0.78266 0.0
C643 C 0.28409 0.2695 0.73441 0.0
C644 C 0.26895 0.24112 0.78195 0.0
C645 C 0.3655 0.24738 0.74596 0.0
C646 C 0.39957 0.25206 0.72653 0.0
C647 C 0.37841 0.21423 0.7313 0.0
C648 C 0.36284 0.22365 0.74239 0.0
C649 C 0.39672 0.22831 0.72351 0.0
C650 C 0.3839 0.26164 0.73781 0.0
C651 C 0.3491 0.25687 0.7584 0.0
C652 C 0.37733 0.29341 0.86809 0.0
C653 C 0.36871 0.27008 0.8686 0.0
H654 H 0.39122 0.33747 0.86141 0.0
C655 C 0.29361 0.29271 0.82065 0.0
C656 C 0.30828 0.32237 0.77181 0.0
C657 C 0.20077 0.29756 0.79524 0.0
C658 C 0.16631 0.29608 0.81354 0.0
C659 C 0.16851 0.30872 0.77497 0.0
C660 C 0.19047 0.30531 0.77553 0.0
C661 C 0.15657 0.30434 0.79392 0.0
C662 C 0.18847 0.2926 0.81413 0.0
C663 C 0.22514 0.29739 0.79761 0.0
H664 H 0.37629 0.19592 0.72877 0.0
H665 H 0.34886 0.21237 0.74847 0.0
H666 H 0.4086 0.22064 0.71488 0.0
H667 H 0.38605 0.27998 0.74024 0.0
H668 H 0.16083 0.31507 0.75992 0.0
H669 H 0.19963 0.30932 0.76088 0.0
H670 H 0.1396 0.30726 0.79322 0.0
H671 H 0.19633 0.28678 0.82951 0.0
C672 C 0.0177 0.08191 0.5777 0.0
C673 C 0.05396 0.10139 0.60231 0.0
C674 C 0.04146 0.08902 0.58055 0.0
C675 C 0.04233 0.10618 0.62125 0.0
C676 C 0.00598 0.08679 0.59663 0.0
C677 C 0.01843 0.09889 0.61842 0.0
N678 N 0.0061 0.06999 0.5565 0.0
C679 C 0.98281 0.06294 0.55281 0.0
C680 C 0.98209 0.0793 0.5931 0.0
C681 C 0.97046 0.06739 0.57107 0.0
Gd682 Gd 0.04389 1.00173 0.51717 0.0
Gd683 Gd 0.02853 0.06264 0.52756 0.0
N684 N 0.05232 0.08357 0.5621 0.0
C685 C 0.07778 0.10873 0.6043 0.0
C686 C 0.0753 0.09191 0.56344 0.0
C687 C 0.08845 0.10425 0.58466 0.0
H688 H 0.08344 0.0896 0.54807 0.0
H689 H 0.10676 0.11053 0.58575 0.0
H690 H 0.98814 0.97627 0.49712 0.0
H691 H 0.97369 0.05413 0.53568 0.0
H692 H 0.96456 0.95434 0.46017 0.0
H693 H 0.08801 0.11829 0.62072 0.0
H694 H 0.05166 0.11559 0.63813 0.0
H695 H 0.0983 0.01211 0.50697 0.0
H696 H 0.97245 0.08272 0.60721 0.0
H697 H 0.95199 0.06171 0.56812 0.0
H698 H 0.01873 0.94695 0.4074 0.0
H699 H 0.00971 0.10276 0.63319 0.0
H700 H 0.09801 0.98169 0.43576 0.0
H701 H 0.11913 0.00428 0.4739 0.0
N702 N 0.0656 0.99508 0.48736 0.0
C703 C 0.05364 0.98229 0.4667 0.0
C704 C 0.08883 1.00275 0.49021 0.0
C705 C 0.08873 0.98526 0.45014 0.0
C706 C 0.10072 0.99809 0.47161 0.0
C707 C 0.06493 0.97713 0.44747 0.0
H708 H 0.06056 0.96018 0.41122 0.0
N709 N 0.01932 0.98093 0.48302 0.0
C710 C 0.0299 0.97491 0.4645 0.0
C711 C 0.99329 0.95491 0.44147 0.0
C712 C 0.01708 0.96204 0.44309 0.0
C713 C 0.99628 0.97312 0.4819 0.0
C714 C 0.98289 0.96029 0.46105 0.0
O715 O 0.0343 0.04455 0.55971 0.0
O716 O 0.06085 0.02425 0.55182 0.0
O717 O 0.03083 0.97225 0.53441 0.0
O718 O 0.06339 0.97654 0.52179 0.0
O719 O 0.06096 0.0603 0.51253 0.0
O720 O 0.07397 0.03184 0.52905 0.0
O721 O 0.03777 0.02 0.48514 0.0
O722 O 0.01089 0.0393 0.49395 0.0
O723 O 0.0422 0.09071 0.50865 0.0
O724 O 0.01022 0.08868 0.52201 0.0
O725 O 0.01192 0.00375 0.53306 0.0
O726 O 0.99835 0.03213 0.51697 0.0
C727 C 0.05028 0.0344 0.56675 0.0
C728 C 0.07734 0.05034 0.51889 0.0
C729 C 0.05898 0.95709 0.5549 0.0
C730 C 0.05967 0.92731 0.57991 0.0
C731 C 0.0896 0.96257 0.58814 0.0
C732 C 0.07913 0.97069 0.569 0.0
C733 C 0.08005 0.94092 0.59347 0.0
C734 C 0.0491 0.93549 0.56065 0.0
C735 C 0.04902 0.96453 0.53329 0.0
C736 C 0.02833 0.95677 0.42399 0.0
C737 C 0.05216 0.96429 0.42618 0.0
H738 H 0.98285 0.94499 0.42533 0.0
C739 C 0.02141 0.02989 0.47845 0.0
C740 C 0.99539 0.01383 0.5276 0.0
C741 C 0.01459 0.10606 0.48737 0.0
C742 C 0.01498 0.1338 0.45953 0.0
C743 C 0.983 0.10045 0.45513 0.0
C744 C 0.99328 0.09324 0.47499 0.0
C745 C 0.99367 0.1206 0.4475 0.0
C746 C 0.02557 0.12626 0.47937 0.0
C747 C 0.02457 0.09938 0.50955 0.0
H748 H 0.10526 0.97301 0.59877 0.0
H749 H 0.08698 0.98742 0.56497 0.0
H750 H 0.08847 0.93483 0.60831 0.0
H751 H 0.03355 0.92487 0.54988 0.0
H752 H 0.96646 0.09062 0.44587 0.0
H753 H 0.98433 0.0779 0.481 0.0
H754 H 0.98518 0.12602 0.43222 0.0
H755 H 0.04182 0.13651 0.48905 0.0
C756 C 0.24294 0.72492 0.81174 0.0
C757 C 0.21357 0.70018 0.78087 0.0
C758 C 0.23462 0.71665 0.7876 0.0
C759 C 0.20055 0.69275 0.79836 0.0
C760 C 0.23025 0.71647 0.82928 0.0
C761 C 0.20884 0.70085 0.82244 0.0
N762 N 0.26388 0.73993 0.81815 0.0
C763 C 0.27407 0.74487 0.84146 0.0
C764 C 0.23981 0.72324 0.85328 0.0
C765 C 0.26198 0.73712 0.85935 0.0
Gd766 Gd 0.29272 0.81891 0.75822 0.0
Gd767 Gd 0.28126 0.75099 0.78554 0.0
N768 N 0.24743 0.72388 0.77077 0.0
C769 C 0.2064 0.69128 0.75674 0.0
C770 C 0.24069 0.71527 0.74725 0.0
C771 C 0.22007 0.69876 0.73988 0.0
H772 H 0.25117 0.72134 0.73428 0.0
H773 H 0.21463 0.69196 0.72123 0.0
H774 H 0.31193 0.86014 0.804 0.0
H775 H 0.29158 0.75484 0.84631 0.0
H776 H 0.34806 0.88878 0.82114 0.0
H777 H 0.19038 0.67854 0.75095 0.0
H778 H 0.18423 0.68029 0.79347 0.0
H779 H 0.29313 0.81427 0.6972 0.0
H780 H 0.23058 0.71708 0.86721 0.0
H781 H 0.26989 0.7416 0.87781 0.0
H782 H 0.39768 0.88125 0.76353 0.0
H783 H 0.19882 0.69443 0.83571 0.0
H784 H 0.36248 0.83924 0.68746 0.0
H785 H 0.32226 0.82022 0.67083 0.0
N786 N 0.31721 0.82622 0.72924 0.0
C787 C 0.3387 0.83903 0.73841 0.0
C788 C 0.31084 0.82138 0.70502 0.0
C789 C 0.34992 0.83588 0.69932 0.0
C790 C 0.32723 0.82516 0.68986 0.0
C791 C 0.35567 0.84396 0.72368 0.0
H792 H 0.39063 0.86178 0.72233 0.0
N793 N 0.32582 0.84643 0.77521 0.0
C794 C 0.34295 0.84984 0.76188 0.0
C795 C 0.36596 0.87941 0.7929 0.0
C796 C 0.36383 0.86601 0.77077 0.0
C797 C 0.32688 0.86097 0.79546 0.0
C798 C 0.34712 0.87741 0.80489 0.0
O799 O 0.24935 0.76196 0.76828 0.0
O800 O 0.25516 0.79732 0.75258 0.0
O801 O 0.27308 0.84059 0.77479 0.0
O802 O 0.28646 0.8475 0.74224 0.0
O803 O 0.28406 0.76969 0.7548 0.0
O804 O 0.28788 0.7911 0.72723 0.0
O805 O 0.32238 0.81099 0.78242 0.0
O806 O 0.31687 0.77097 0.77934 0.0
O807 O 0.2834 0.71576 0.77569 0.0
O808 O 0.3125 0.74121 0.79593 0.0
O809 O 0.28703 0.7982 0.78725 0.0
O810 O 0.28418 0.77819 0.81626 0.0
C811 C 0.24183 0.77825 0.75797 0.0
C812 C 0.28775 0.77119 0.73322 0.0
C813 C 0.25343 0.85919 0.74783 0.0
C814 C 0.23173 0.88792 0.74643 0.0
C815 C 0.22284 0.85545 0.71503 0.0
C816 C 0.24016 0.84707 0.72641 0.0
C817 C 0.21878 0.87597 0.72483 0.0
C818 C 0.24889 0.87936 0.75798 0.0
C819 C 0.27419 0.85321 0.75783 0.0
C820 C 0.38135 0.86928 0.75678 0.0
C821 C 0.37733 0.85816 0.73331 0.0
H822 H 0.38161 0.89221 0.80019 0.0
C823 C 0.33024 0.79219 0.7824 0.0
C824 C 0.2859 0.79806 0.80966 0.0
C825 C 0.31106 0.70308 0.8001 0.0
C826 C 0.33171 0.67356 0.80376 0.0
C827 C 0.31655 0.68872 0.83763 0.0
C828 C 0.30779 0.70321 0.82392 0.0
C829 C 0.32861 0.67405 0.82766 0.0
C830 C 0.32288 0.68807 0.79001 0.0
C831 C 0.30449 0.71997 0.78624 0.0
H832 H 0.21281 0.84625 0.69839 0.0
H833 H 0.24365 0.83155 0.71819 0.0
H834 H 0.20545 0.88241 0.71571 0.0
H835 H 0.25936 0.88894 0.7743 0.0
H836 H 0.31417 0.68902 0.85606 0.0
H837 H 0.29898 0.7148 0.83205 0.0
H838 H 0.33536 0.66294 0.83852 0.0
H839 H 0.32591 0.68814 0.77178 0.0
C840 C 0.56711 0.99817 0.07993 0.0
C841 C 0.58561 0.02847 0.11249 0.0
C842 C 0.56915 0.01989 0.09189 0.0
C843 C 0.59989 0.01498 0.12079 0.0
C844 C 0.58134 0.98453 0.08832 0.0
C845 C 0.59775 0.99307 0.10876 0.0
N846 N 0.5516 0.99059 0.05974 0.0
C847 C 0.54881 0.96924 0.04772 0.0
C848 C 0.5788 0.96274 0.07579 0.0
C849 C 0.56234 0.955 0.05549 0.0
Gd850 Gd 0.53764 0.05728 0.99065 0.0
Gd851 Gd 0.5301 0.01571 0.04721 0.0
N852 N 0.55559 0.03288 0.08287 0.0
C853 C 0.58738 0.05044 0.12409 0.0
C854 C 0.55681 0.05403 0.09479 0.0
C855 C 0.57276 0.06316 0.11532 0.0
H856 H 0.54555 0.06409 0.08903 0.0
H857 H 0.5737 0.08004 0.1244 0.0
H858 H 0.52512 0.01081 0.94609 0.0
H859 H 0.53579 0.96298 0.0324 0.0
H860 H 0.49608 0.99407 0.91173 0.0
H861 H 0.59982 0.05764 0.13993 0.0
H862 H 0.61269 0.02137 0.1365 0.0
H863 H 0.52877 0.10786 0.00793 0.0
H864 H 0.58938 0.95173 0.08169 0.0
H865 H 0.56003 0.93807 0.04584 0.0
H866 H 0.45083 0.04846 0.90494 0.0
H867 H 0.60892 0.98287 0.11537 0.0
H868 H 0.47188 0.11697 0.96153 0.0
H869 H 0.5021 0.13124 -0.0034 0.0
N870 N 0.51386 0.08079 0.97967 0.0
C871 C 0.49779 0.07286 0.96006 0.0
C872 C 0.51565 0.10151 0.99265 0.0
C873 C 0.48364 0.10672 0.96638 0.0
C874 C 0.50063 0.11481 0.98621 0.0
C875 C 0.48202 0.0855 0.95303 0.0
H876 H 0.45273 0.0859 0.92753 0.0
N877 N 0.51226 0.04006 0.95486 0.0
C878 C 0.49683 0.0518 0.94737 0.0
C879 C 0.47946 0.02164 0.91455 0.0
C880 C 0.47992 0.04281 0.9272 0.0
C881 C 0.51239 0.01982 0.94176 0.0
C882 C 0.49594 0.01024 0.92173 0.0
O883 O 0.56741 0.02838 0.04593 0.0
O884 O 0.54871 0.04411 0.02192 0.0
O885 O 0.5659 0.05967 0.97096 0.0
O886 O 0.56097 0.09024 0.99071 0.0
O887 O 0.52177 0.05109 0.0523 0.0
O888 O 0.54043 0.07641 0.0284 0.0
O889 O 0.50211 0.04793 -0.00203 0.0
O890 O 0.50905 0.01692 0.01213 0.0
O891 O 0.50426 0.01552 0.0694 0.0
O892 O 0.50735 0.98346 0.05105 0.0
O893 O 0.54549 0.02201 0.98369 0.0
O894 O 0.53264 0.99683 0.01072 0.0
C895 C 0.56855 0.04203 0.03054 0.0
C896 C 0.52899 0.07195 0.04651 0.0
C897 C 0.5726 0.0925 0.95294 0.0
C898 C 0.58286 0.09074 0.9133 0.0
C899 C 0.56011 0.1166 0.92577 0.0
C900 C 0.56065 0.10905 0.94792 0.0
C901 C 0.57107 0.10742 0.90842 0.0
C902 C 0.58402 0.08383 0.93573 0.0
C903 C 0.57137 0.08191 0.97461 0.0
C904 C 0.464 0.05519 0.92027 0.0
C905 C 0.46509 0.07651 0.93312 0.0
H906 H 0.46671 0.01413 0.89904 0.0
C907 C 0.49549 0.03061 0.00895 0.0
C908 C 0.54114 1.00149 0.99085 0.0
C909 C 0.49433 0.98369 0.08839 0.0
C910 C 0.47984 0.98675 0.12577 0.0
C911 C 0.50008 0.95764 0.1162 0.0
C912 C 0.50312 0.96534 0.09446 0.0
C913 C 0.48855 0.96833 0.1319 0.0
C914 C 0.48262 0.99407 0.10397 0.0
C915 C 0.49744 0.99334 0.06652 0.0
H916 H 0.55078 0.12922 0.92187 0.0
H917 H 0.55139 0.11581 0.96082 0.0
H918 H 0.56995 0.11297 0.89111 0.0
H919 H 0.59331 0.0711 0.93962 0.0
H920 H 0.50683 0.94351 0.12098 0.0
H921 H 0.51239 0.95713 0.08264 0.0
H922 H 0.48643 0.96224 0.14872 0.0
H923 H 0.47635 0.00859 0.09939 0.0
C924 C 0.35208 0.32706 0.31097 0.0
C925 C 0.37154 0.34399 0.28044 0.0
C926 C 0.35146 0.33218 0.288 0.0
C927 C 0.39226 0.35026 0.29623 0.0
C928 C 0.37275 0.33395 0.32712 0.0
C929 C 0.39286 0.34527 0.31953 0.0
N930 N 0.3323 0.31622 0.31782 0.0
C931 C 0.33179 0.31343 0.34104 0.0
C932 C 0.37246 0.32984 0.35063 0.0
C933 C 0.35178 0.31985 0.3577 0.0
Gd934 Gd 0.26792 0.2444 0.25464 0.0
Gd935 Gd 0.29931 0.30619 0.28862 0.0
N936 N 0.33115 0.32581 0.27312 0.0
C937 C 0.37013 0.34946 0.25734 0.0
C938 C 0.32947 0.33266 0.25129 0.0
C939 C 0.3489 0.34404 0.24281 0.0
H940 H 0.31315 0.33012 0.2407 0.0
H941 H 0.34739 0.34903 0.22525 0.0
H942 H 0.24862 0.22844 0.30469 0.0
H943 H 0.31578 0.30767 0.34697 0.0
H944 H 0.21261 0.20825 0.3159 0.0
H945 H 0.38515 0.35845 0.25082 0.0
H946 H 0.40786 0.35924 0.2907 0.0
H947 H 0.25461 0.25481 0.19834 0.0
H948 H 0.38791 0.33503 0.36361 0.0
H949 H 0.35112 0.31757 0.37609 0.0
H950 H 0.15804 0.19661 0.24501 0.0
H951 H 0.40889 0.35057 0.33165 0.0
H952 H 0.18293 0.22761 0.17695 0.0
H953 H 0.2205 0.24774 0.16819 0.0
N954 N 0.23654 0.24157 0.22516 0.0
C955 C 0.21611 0.22996 0.23018 0.0
C956 C 0.23826 0.24763 0.2031 0.0
C957 C 0.19781 0.23146 0.19063 0.0
C958 C 0.21895 0.24297 0.18566 0.0
C959 C 0.19621 0.22462 0.21299 0.0
H960 H 0.15999 0.20814 0.20545 0.0
N961 N 0.23422 0.22945 0.26932 0.0
C962 C 0.21503 0.22332 0.25263 0.0
C963 C 0.19324 0.2058 0.2812 0.0
C964 C 0.194 0.21131 0.2582 0.0
C965 C 0.23351 0.2241 0.29172 0.0
C966 C 0.21304 0.21239 0.29806 0.0
O967 O 0.32515 0.28731 0.27546 0.0
O968 O 0.30638 0.2526 0.25221 0.0
O969 O 0.26802 0.20953 0.25901 0.0
O970 O 0.26291 0.21887 0.22375 0.0
O971 O 0.27985 0.30161 0.25103 0.0
O972 O 0.28555 0.26871 0.23239 0.0
O973 O 0.24475 0.26839 0.26435 0.0
O974 O 0.26474 0.29033 0.29885 0.0
O975 O 0.28513 0.33453 0.28013 0.0
O976 O 0.30115 0.33376 0.31655 0.0
O977 O 0.28599 0.24445 0.29184 0.0
O978 O 0.28967 0.2802 0.31308 0.0
C979 C 0.32537 0.26836 0.26169 0.0
C980 C 0.28323 0.28946 0.2319 0.0
C981 C 0.28199 0.18981 0.22851 0.0
C982 C 0.30117 0.15984 0.23469 0.0
C983 C 0.30559 0.17892 0.20011 0.0
C984 C 0.29142 0.19258 0.20746 0.0
C985 C 0.31038 0.16246 0.21362 0.0
C986 C 0.28705 0.17344 0.24208 0.0
C987 C 0.26619 0.20306 0.23619 0.0
C988 C 0.1743 0.2058 0.24099 0.0
C989 C 0.17539 0.21245 0.21849 0.0
H990 H 0.17739 0.19673 0.2862 0.0
C991 C 0.24538 0.28227 0.28413 0.0
C992 C 0.28899 0.25832 0.31204 0.0
C993 C 0.28507 0.36555 0.31091 0.0
C994 C 0.27012 0.39766 0.3022 0.0
C995 C 0.28004 0.39248 0.3432 0.0
C996 C 0.28681 0.37286 0.33538 0.0
C997 C 0.27168 0.40489 0.32669 0.0
C998 C 0.27666 0.37791 0.29446 0.0
C999 C 0.29014 0.34409 0.30237 0.0
H1000 H 0.31279 0.18105 0.18391 0.0
H1001 H 0.28778 0.20513 0.19659 0.0
H1002 H 0.32139 0.15191 0.20781 0.0
H1003 H 0.27976 0.17101 0.25825 0.0
H1004 H 0.2813 0.39809 0.36205 0.0
H1005 H 0.29299 0.36324 0.34841 0.0
H1006 H 0.26687 0.42032 0.33303 0.0
H1007 H 0.27496 0.37207 0.27555 0.0
C1008 C 0.51675 0.58155 0.07798 0.0
C1009 C 0.55292 0.60194 0.10225 0.0
C1010 C 0.54051 0.58894 0.08072 0.0
C1011 C 0.54122 0.60727 0.12095 0.0
C1012 C 0.50498 0.58697 0.0967 0.0
C1013 C 0.51734 0.59983 0.11818 0.0
N1014 N 0.50517 0.56902 0.05704 0.0
C1015 C 0.4819 0.56184 0.05344 0.0
C1016 C 0.4811 0.57933 0.09326 0.0
C1017 C 0.46952 0.56678 0.07151 0.0
Gd1018 Gd 0.54578 0.50162 0.01714 0.0
Gd1019 Gd 0.52755 0.56204 0.02797 0.0
N1020 N 0.55147 0.58302 0.0625 0.0
C1021 C 0.57673 0.6093 0.10429 0.0
C1022 C 0.57454 0.59093 0.06407 0.0
C1023 C 0.58754 0.60399 0.08503 0.0
H1024 H 0.583 0.58739 0.04925 0.0
H1025 H 0.6059 0.60997 0.08629 0.0
H1026 H 0.49012 0.47291 0.00207 0.0
H1027 H 0.47285 0.55291 0.03639 0.0
H1028 H 0.46516 0.44682 0.96848 0.0
H1029 H 0.58687 0.61932 0.12054 0.0
H1030 H 0.55049 0.61721 0.13762 0.0
H1031 H 0.5986 0.50945 0.00353 0.0
H1032 H 0.47144 0.5832 0.1072 0.0
H1033 H 0.45104 0.56108 0.06856 0.0
H1034 H 0.51592 0.43409 0.91351 0.0
H1035 H 0.50858 0.60415 0.13276 0.0
H1036 H 0.59526 0.47245 0.93467 0.0
H1037 H 0.61788 0.4985 0.97023 0.0
N1038 N 0.56545 0.49185 0.98632 0.0
C1039 C 0.55281 0.47693 0.96736 0.0
C1040 C 0.58855 0.49927 0.98763 0.0
C1041 C 0.58671 0.47776 0.94904 0.0
C1042 C 0.59952 0.49256 0.969 0.0
C1043 C 0.5631 0.46957 0.94812 0.0
H1044 H 0.55722 0.44835 0.91379 0.0
N1045 N 0.52002 0.47674 0.98585 0.0
C1046 C 0.5295 0.46889 0.96726 0.0
C1047 C 0.49248 0.44561 0.94815 0.0
C1048 C 0.51594 0.45325 0.94783 0.0
C1049 C 0.49735 0.46842 0.98668 0.0
C1050 C 0.48319 0.4531 0.96776 0.0
O1051 O 0.53614 0.54497 0.06006 0.0
O1052 O 0.56348 0.52725 0.04929 0.0
O1053 O 0.53587 0.47254 0.03693 0.0
O1054 O 0.56971 0.48189 0.02627 0.0
O1055 O 0.5588 0.56128 0.0105 0.0
O1056 O 0.57522 0.53323 0.02364 0.0
O1057 O 0.53616 0.51693 0.98402 0.0
O1058 O 0.5107 0.53794 0.99445 0.0
O1059 O 0.54016 0.59127 0.01002 0.0
O1060 O 0.50753 0.58665 0.02247 0.0
O1061 O 0.51448 0.50343 0.0346 0.0
O1062 O 0.49841 0.53046 0.01862 0.0
C1063 C 0.55263 0.53496 0.06545 0.0
C1064 C 0.57653 0.55266 0.0151 0.0
C1065 C 0.56343 0.44952 0.0474 0.0
C1066 C 0.55793 0.41762 0.07023 0.0
C1067 C 0.59381 0.43021 0.05554 0.0
C1068 C 0.58559 0.44701 0.04537 0.0
C1069 C 0.58014 0.41567 0.06797 0.0
C1070 C 0.54943 0.43454 0.05979 0.0
C1071 C 0.55589 0.46816 0.03676 0.0
C1072 C 0.52611 0.44598 0.92861 0.0
C1073 C 0.54961 0.45415 0.92873 0.0
H1074 H 0.48147 0.43371 0.93353 0.0
C1075 C 0.52101 0.52867 0.97852 0.0
C1076 C 0.49678 0.51197 0.02892 0.0
C1077 C 0.5121 0.60729 0.98989 0.0
C1078 C 0.51466 0.63619 0.96325 0.0
C1079 C 0.47931 0.60709 0.96083 0.0
C1080 C 0.4893 0.5976 0.97913 0.0
C1081 C 0.49184 0.62631 0.95299 0.0
C1082 C 0.52482 0.6266 0.98171 0.0
C1083 C 0.52188 0.59886 0.01109 0.0
H1084 H 0.6109 0.42852 0.05386 0.0
H1085 H 0.59677 0.45813 0.03594 0.0
H1086 H 0.58689 0.40273 0.07581 0.0
H1087 H 0.53232 0.43618 0.06158 0.0
H1088 H 0.46172 0.59959 0.95277 0.0
H1089 H 0.47908 0.58282 0.98502 0.0
H1090 H 0.48368 0.63359 0.93895 0.0
H1091 H 0.54225 0.63456 0.99015 0.0
C1092 C 0.74076 0.22861 0.30608 0.0
C1093 C 0.71515 0.20221 0.27363 0.0
C1094 C 0.73589 0.21868 0.28224 0.0
C1095 C 0.6991 0.19644 0.28896 0.0
C1096 C 0.72533 0.22152 0.32184 0.0
C1097 C 0.70421 0.20599 0.31301 0.0
N1098 N 0.76134 0.24362 0.31428 0.0
C1099 C 0.76898 0.24888 0.33812 0.0
C1100 C 0.73209 0.22932 0.34622 0.0
C1101 C 0.75429 0.24252 0.35445 0.0
Gd1102 Gd 0.79263 0.31883 0.26132 0.0
Gd1103 Gd 0.78408 0.25354 0.28514 0.0
N1104 N 0.75173 0.22457 0.26767 0.0
C1105 C 0.71134 0.19168 0.24995 0.0
C1106 C 0.74868 0.21334 0.2451 0.0
C1107 C 0.72833 0.19704 0.23573 0.0
H1108 H 0.76204 0.21643 0.23449 0.0
H1109 H 0.72588 0.18843 0.21765 0.0
H1110 H 0.81825 0.35671 0.30927 0.0
H1111 H 0.78666 0.25736 0.3446 0.0
H1112 H 0.856 0.38332 0.32394 0.0
H1113 H 0.69561 0.17898 0.24267 0.0
H1114 H 0.68296 0.18405 0.28255 0.0
H1115 H 0.79433 0.30166 0.2012 0.0
H1116 H 0.7208 0.22415 0.3589 0.0
H1117 H 0.76026 0.24733 0.37335 0.0
H1118 H 0.90048 0.37155 0.26237 0.0
H1119 H 0.69203 0.20065 0.32481 0.0
H1120 H 0.86331 0.32285 0.19046 0.0
H1121 H 0.82323 0.30227 0.17561 0.0
N1122 N 0.81793 0.31827 0.23284 0.0
C1123 C 0.83963 0.3314 0.24078 0.0
C1124 C 0.81183 0.30914 0.20921 0.0
C1125 C 0.85077 0.32179 0.20246 0.0
C1126 C 0.8282 0.31007 0.19404 0.0
C1127 C 0.8566 0.33327 0.22577 0.0
H1128 H 0.89176 0.34875 0.22269 0.0
N1129 N 0.82824 0.34306 0.27763 0.0
C1130 C 0.84472 0.34449 0.26339 0.0
C1131 C 0.87066 0.37328 0.29328 0.0
C1132 C 0.86658 0.35939 0.27116 0.0
C1133 C 0.83179 0.35729 0.29873 0.0
C1134 C 0.85311 0.37239 0.307 0.0
O1135 O 0.74991 0.2612 0.26942 0.0
O1136 O 0.75509 0.29824 0.25839 0.0
O1137 O 0.78085 0.34858 0.27425 0.0
O1138 O 0.78731 0.34338 0.23818 0.0
O1139 O 0.79434 0.27268 0.25644 0.0
O1140 O 0.77705 0.29003 0.23184 0.0
O1141 O 0.82236 0.31101 0.28639 0.0
O1142 O 0.81803 0.2726 0.27499 0.0
O1143 O 0.79609 0.2224 0.27501 0.0
O1144 O 0.80626 0.24317 0.31061 0.0
O1145 O 0.7762 0.30671 0.29223 0.0
O1146 O 0.79168 0.28335 0.31407 0.0
C1147 C 0.74194 0.27814 0.26134 0.0
C1148 C 0.78158 0.27113 0.2364 0.0
C1149 C 0.75777 0.36127 0.24498 0.0
C1150 C 0.73296 0.38734 0.24726 0.0
C1151 C 0.72404 0.35547 0.21522 0.0
C1152 C 0.74328 0.3486 0.22443 0.0
C1153 C 0.71898 0.37486 0.22645 0.0
C1154 C 0.75233 0.38048 0.25657 0.0
C1155 C 0.7792 0.35541 0.25361 0.0
C1156 C 0.88356 0.36036 0.25656 0.0
C1157 C 0.87861 0.34731 0.23399 0.0
H1158 H 0.8872 0.38497 0.29977 0.0
C1159 C 0.83117 0.29293 0.28485 0.0
C1160 C 0.78622 0.30279 0.31234 0.0
C1161 C 0.82277 0.21124 0.30551 0.0
C1162 C 0.83938 0.17837 0.30168 0.0
C1163 C 0.84923 0.20532 0.33828 0.0
C1164 C 0.83502 0.21799 0.32876 0.0
C1165 C 0.85143 0.18567 0.3249 0.0
C1166 C 0.82517 0.1914 0.29182 0.0
C1167 C 0.80797 0.22551 0.2964 0.0
H1168 H 0.71313 0.34584 0.19923 0.0
H1169 H 0.74699 0.33361 0.21527 0.0
H1170 H 0.70408 0.3801 0.219 0.0
H1171 H 0.76336 0.39035 0.27244 0.0
H1172 H 0.85858 0.21076 0.35614 0.0
H1173 H 0.83372 0.2332 0.33977 0.0
H1174 H 0.86276 0.17618 0.3327 0.0
H1175 H 0.81588 0.18596 0.27391 0.0
C1176 C 0.0697 0.5016 0.5748 0.0
C1177 C 0.0914 0.53197 0.60589 0.0
C1178 C 0.07306 0.52344 0.58695 0.0
C1179 C 0.10593 0.51812 0.61258 0.0
C1180 C 0.08436 0.48769 0.58134 0.0
C1181 C 0.1024 0.49602 0.60036 0.0
N1182 N 0.05254 0.49417 0.55609 0.0
C1183 C 0.04889 0.47302 0.54325 0.0
C1184 C 0.08067 0.46591 0.56832 0.0
C1185 C 0.06285 0.45855 0.54918 0.0
Gd1186 Gd 0.03202 0.56015 0.48855 0.0
Gd1187 Gd 0.03014 0.51931 0.54665 0.0
N1188 N 0.05897 0.5366 0.5797 0.0
C1189 C 0.09489 0.5543 0.61733 0.0
C1190 C 0.06255 0.55853 0.59087 0.0
C1191 C 0.0804 0.56762 0.60976 0.0
H1192 H 0.05213 0.56954 0.58551 0.0
H1193 H 0.08305 0.58502 0.61837 0.0
H1194 H 0.02461 0.51599 0.443 0.0
H1195 H 0.03512 0.46719 0.52844 0.0
H1196 H 0.99672 0.4981 0.40763 0.0
H1197 H 0.10882 0.56148 0.63187 0.0
H1198 H 0.12008 0.52442 0.62705 0.0
H1199 H 0.02195 0.61096 0.50388 0.0
H1200 H 0.09156 0.45472 0.57279 0.0
H1201 H 0.05989 0.44177 0.53894 0.0
H1202 H 0.9468 0.54831 0.40054 0.0
H1203 H 0.11386 0.4856 0.60561 0.0
H1204 H 0.96367 0.61657 0.45715 0.0
H1205 H 0.99373 0.63257 0.49207 0.0
N1206 N 0.00742 0.58275 0.47692 0.0
C1207 C 0.99173 0.5741 0.45708 0.0
C1208 C 0.00855 0.60364 0.48913 0.0
C1209 C 0.97592 0.60698 0.46244 0.0
C1210 C 0.99279 0.61602 0.48221 0.0
C1211 C 0.97535 0.58586 0.44947 0.0
H1212 H 0.94618 0.58496 0.42319 0.0
N1213 N 0.00826 0.54258 0.45217 0.0
C1214 C 0.99213 0.55342 0.44432 0.0
C1215 C 0.97744 0.52357 0.41066 0.0
C1216 C 0.97608 0.54401 0.42359 0.0
C1217 C 0.01058 0.52349 0.43859 0.0
C1218 C 0.995 0.51348 0.41799 0.0
O1219 O 0.0647 0.53044 0.53699 0.0
O1220 O 0.05368 0.55978 0.52307 0.0
O1221 O 0.06042 0.5619 0.46904 0.0
O1222 O 0.05147 0.59297 0.48217 0.0
O1223 O 0.0224 0.55428 0.55479 0.0
O1224 O 0.02939 0.5788 0.52555 0.0
O1225 O 0.99525 0.54393 0.4906 0.0
O1226 O 0.01644 0.53184 0.51593 0.0
O1227 O 1.0042 0.51851 0.5691 0.0
O1228 O 0.00601 0.48716 0.5481 0.0
O1229 O 0.04064 0.52486 0.48277 0.0
O1230 O 0.02601 0.49977 0.50909 0.0
C1231 C 0.06843 0.54733 0.52481 0.0
C1232 C 0.02401 0.57434 0.54689 0.0
C1233 C 0.06503 0.59087 0.44517 0.0
C1234 C 0.08006 0.58742 0.40801 0.0
C1235 C 0.05417 0.61181 0.41385 0.0
C1236 C 0.05261 0.6059 0.43655 0.0
C1237 C 0.0679 0.60267 0.39959 0.0
C1238 C 0.07872 0.58176 0.4308 0.0
C1239 C 0.06359 0.58374 0.46864 0.0
C1240 C 0.95937 0.55539 0.41629 0.0
C1241 C 0.95903 0.57627 0.42918 0.0
H1242 H 0.96541 0.51577 0.39468 0.0
C1243 C 0.99588 0.53164 0.50722 0.0
C1244 C 0.03574 0.50442 0.49001 0.0
C1245 C 0.99424 0.48527 0.586 0.0
C1246 C 0.98162 0.48656 0.62462 0.0
C1247 C 1.00329 0.45934 0.61271 0.0
C1248 C 1.00471 0.46769 0.59105 0.0
C1249 C 0.99195 0.46881 0.62954 0.0
C1250 C 0.98236 0.49413 0.60256 0.0
C1251 C 0.99681 0.49636 0.56479 0.0
H1252 H 0.04459 0.62334 0.40721 0.0
H1253 H 0.04166 0.61297 0.44721 0.0
H1254 H 0.0687 0.60712 0.38188 0.0
H1255 H 0.08829 0.5701 0.43731 0.0
H1256 H 0.01149 0.44591 0.61671 0.0
H1257 H 0.01424 0.46072 0.57857 0.0
H1258 H 0.99186 0.46275 0.64659 0.0
H1259 H 0.97429 0.50767 0.59845 0.0
C1260 C 0.73884 0.80308 0.22202 0.0
C1261 C 0.7142 0.76808 0.19939 0.0
C1262 C 0.72871 0.77994 0.22032 0.0
C1263 C 0.71093 0.77957 0.17981 0.0
C1264 C 0.73514 0.81484 0.20268 0.0
C1265 C 0.72141 0.80288 0.18144 0.0
N1266 N 0.75213 0.8141 0.24276 0.0
C1267 C 0.76121 0.83711 0.24582 0.0
C1268 C 0.74517 0.83831 0.20538 0.0
C1269 C 0.75805 0.84953 0.22713 0.0
Gd1270 Gd 0.81729 0.77137 0.2808 0.0
Gd1271 Gd 0.75777 0.79145 0.27238 0.0
N1272 N 0.73259 0.76921 0.23942 0.0
C1273 C 0.70295 0.7452 0.19904 0.0
C1274 C 0.72027 0.74762 0.23988 0.0
C1275 C 0.70561 0.73508 0.21957 0.0
H1276 H 0.72122 0.74032 0.2561 0.0
H1277 H 0.69612 0.71776 0.21988 0.0
H1278 H 0.84786 0.82493 0.30015 0.0
H1279 H 0.77084 0.84594 0.26273 0.0
H1280 H 0.87013 0.84793 0.33753 0.0
H1281 H 0.69154 0.73549 0.18336 0.0
H1282 H 0.70001 0.77068 0.16349 0.0
H1283 H 0.80664 0.71661 0.28926 0.0
H1284 H 0.74276 0.84798 0.19093 0.0
H1285 H 0.76556 0.86773 0.22953 0.0
H1286 H 0.87206 0.79282 0.39093 0.0
H1287 H 0.71848 0.81159 0.16632 0.0
H1288 H 0.83576 0.71431 0.36066 0.0
H1289 H 0.8138 0.69446 0.32172 0.0
N1290 N 0.82375 0.74861 0.30994 0.0
C1291 C 0.83627 0.75985 0.33102 0.0
C1292 C 0.81596 0.72543 0.30632 0.0
C1293 C 0.83256 0.72412 0.34654 0.0
C1294 C 0.82014 0.71284 0.32459 0.0
C1295 C 0.8409 0.7479 0.34996 0.0
H1296 H 0.85737 0.75111 0.38638 0.0
N1297 N 0.83944 0.7945 0.31508 0.0
C1298 C 0.8444 0.78345 0.33365 0.0
C1299 C 0.86637 0.81918 0.35676 0.0
C1300 C 0.85763 0.79558 0.35518 0.0
C1301 C 0.84939 0.81706 0.31588 0.0
C1302 C 0.86257 0.82989 0.33686 0.0
O1303 O 0.77443 0.78463 0.23954 0.0
O1304 O 0.79294 0.7564 0.24676 0.0
O1305 O 0.84681 0.78371 0.26333 0.0
O1306 O 0.84065 0.7502 0.274 0.0
O1307 O 0.7571 0.7571 0.28499 0.0
O1308 O 0.78557 0.74262 0.26969 0.0
O1309 O 0.7994 0.7768 0.31309 0.0
O1310 O 0.78368 0.80623 0.30503 0.0
O1311 O 0.72922 0.7819 0.29295 0.0
O1312 O 0.73792 0.81528 0.28111 0.0
O1313 O 0.81735 0.80445 0.26578 0.0
O1314 O 0.79033 0.8191 0.28293 0.0
C1315 C 0.78343 0.76788 0.23215 0.0
C1316 C 0.76649 0.74016 0.27893 0.0
C1317 C 0.86108 0.75567 0.24153 0.0
C1318 C 0.89077 0.757 0.21609 0.0
C1319 C 0.85712 0.72511 0.20884 0.0
C1320 C 0.84855 0.73487 0.2279 0.0
C1321 C 0.87817 0.73599 0.20308 0.0
C1322 C 0.88212 0.76688 0.23531 0.0
C1323 C 0.85343 0.76482 0.26333 0.0
C1324 C 0.86203 0.78376 0.37421 0.0
C1325 C 0.85369 0.76 0.3716 0.0
H1326 H 0.87666 0.82913 0.37296 0.0
C1327 C 0.79087 0.79394 0.3201 0.0
C1328 C 0.80776 0.82128 0.27122 0.0
C1329 C 0.70639 0.80961 0.30347 0.0
C1330 C 0.67466 0.80465 0.32662 0.0
C1331 C 0.68853 0.8408 0.31273 0.0
C1332 C 0.70475 0.83215 0.30215 0.0
C1333 C 0.67366 0.82724 0.3249 0.0
C1334 C 0.69102 0.79566 0.31567 0.0
C1335 C 0.72471 0.80181 0.29245 0.0
H1336 H 0.84753 0.70893 0.19865 0.0
H1337 H 0.83235 0.72593 0.23225 0.0
H1338 H 0.88464 0.72803 0.18838 0.0
H1339 H 0.892 0.78288 0.24575 0.0
H1340 H 0.68753 0.85818 0.31154 0.0
H1341 H 0.71617 0.84333 0.29301 0.0
H1342 H 0.66115 0.8344 0.33297 0.0
H1343 H 0.69198 0.77827 0.31696 0.0
C1344 C 0.81917 0.25001 0.71813 0.0
C1345 C 0.78892 0.23241 0.68501 0.0
C1346 C 0.79792 0.24898 0.70532 0.0
C1347 C 0.80156 0.21693 0.67778 0.0
C1348 C 0.83207 0.23474 0.71066 0.0
C1349 C 0.82309 0.21813 0.69054 0.0
N1350 N 0.82708 0.26573 0.73804 0.0
C1351 C 0.84842 0.26813 0.7503 0.0
C1352 C 0.85359 0.23656 0.72371 0.0
C1353 C 0.8619 0.2535 0.74344 0.0
Gd1354 Gd 0.76328 0.28239 0.80856 0.0
Gd1355 Gd 0.80235 0.28817 0.74931 0.0
N1356 N 0.78566 0.26358 0.71339 0.0
C1357 C 0.76736 0.23171 0.67273 0.0
C1358 C 0.76503 0.26355 0.70086 0.0
C1359 C 0.75548 0.24751 0.68055 0.0
H1360 H 0.75576 0.27583 0.70622 0.0
H1361 H 0.73895 0.24735 0.67094 0.0
H1362 H 0.80253 0.28519 0.85773 0.0
H1363 H 0.85523 0.28138 0.76537 0.0
H1364 H 0.82068 0.3126 0.89357 0.0
H1365 H 0.75982 0.21918 0.65711 0.0
H1366 H 0.79484 0.20397 0.66234 0.0
H1367 H 0.7152 0.29609 0.78921 0.0
H1368 H 0.86402 0.22514 0.71856 0.0
H1369 H 0.87868 0.25528 0.75342 0.0
H1370 H 0.77671 0.36877 0.89469 0.0
H1371 H 0.83267 0.20611 0.68469 0.0
H1372 H 0.7112 0.35586 0.83418 0.0
H1373 H 0.69522 0.32618 0.79906 0.0
N1374 N 0.74199 0.30858 0.8185 0.0
C1375 C 0.7506 0.32417 0.8383 0.0
C1376 C 0.72217 0.30886 0.80466 0.0
C1377 C 0.71991 0.34258 0.83004 0.0
C1378 C 0.71083 0.32587 0.81019 0.0
C1379 C 0.74001 0.34184 0.84444 0.0
H1380 H 0.74204 0.37198 0.86956 0.0
N1381 N 0.77949 0.30475 0.84591 0.0
C1382 C 0.77017 0.32239 0.85226 0.0
C1383 C 0.79845 0.33498 0.88763 0.0
C1384 C 0.77958 0.33818 0.87307 0.0
C1385 C 0.7966 0.30046 0.86118 0.0
C1386 C 0.80668 0.31576 0.88191 0.0
O1387 O 0.785 0.2513 0.74855 0.0
O1388 O 0.77717 0.27061 0.77835 0.0
O1389 O 0.76059 0.253 0.82646 0.0
O1390 O 0.72983 0.26031 0.80957 0.0
O1391 O 0.76679 0.29625 0.74557 0.0
O1392 O 0.74308 0.27737 0.77082 0.0
O1393 O 0.77157 0.31738 0.79913 0.0
O1394 O 0.80183 0.31005 0.78389 0.0
O1395 O 0.80297 0.31265 0.72503 0.0
O1396 O 0.83436 0.31192 0.74691 0.0
O1397 O 0.80049 0.27898 0.81631 0.0
O1398 O 0.8221 0.28298 0.78446 0.0
C1399 C 0.77466 0.25063 0.76663 0.0
C1400 C 0.74646 0.28814 0.75207 0.0
C1401 C 0.72907 0.24557 0.84605 0.0
C1402 C 0.73381 0.23355 0.88468 0.0
C1403 C 0.70676 0.25619 0.87589 0.0
C1404 C 0.7127 0.25689 0.8531 0.0
C1405 C 0.71748 0.24472 0.89182 0.0
C1406 C 0.73904 0.23343 0.86176 0.0
C1407 C 0.73838 0.24825 0.82389 0.0
C1408 C 0.76956 0.35631 0.87893 0.0
C1409 C 0.74978 0.3581 0.86466 0.0
H1410 H 0.80625 0.34677 0.90373 0.0
C1411 C 0.78805 0.32347 0.78695 0.0
C1412 C 0.81952 0.27951 0.80667 0.0
C1413 C 0.83691 0.32353 0.70908 0.0
C1414 C 0.836 0.33233 0.66886 0.0
C1415 C 0.86992 0.32398 0.68907 0.0
C1416 C 0.85927 0.32085 0.70913 0.0
C1417 C 0.85831 0.32959 0.66892 0.0
C1418 C 0.82558 0.3296 0.68903 0.0
C1419 C 0.82508 0.32061 0.72971 0.0
H1420 H 0.6943 0.26503 0.88141 0.0
H1421 H 0.70496 0.26668 0.84135 0.0
H1422 H 0.71335 0.24483 0.90969 0.0
H1423 H 0.75187 0.22482 0.85658 0.0
H1424 H 0.88715 0.32198 0.68912 0.0
H1425 H 0.8685 0.31638 0.72455 0.0
H1426 H 0.86676 0.33196 0.65348 0.0
H1427 H 0.80835 0.33177 0.6889 0.0
C1428 C 0.84799 0.83036 0.80996 0.0
C1429 C 0.8666 0.84776 0.77922 0.0
C1430 C 0.84704 0.83513 0.78695 0.0
C1431 C 0.88742 0.85471 0.79486 0.0
C1432 C 0.86846 0.8386 0.82623 0.0
C1433 C 0.88832 0.85023 0.81838 0.0
N1434 N 0.82842 0.81928 0.81693 0.0
C1435 C 0.82763 0.81798 0.84046 0.0
C1436 C 0.8681 0.83576 0.85008 0.0
C1437 C 0.84746 0.82583 0.85731 0.0
Gd1438 Gd 0.76899 0.74345 0.75216 0.0
Gd1439 Gd 0.79611 0.80542 0.78711 0.0
N1440 N 0.82653 0.82854 0.77251 0.0
C1441 C 0.86442 0.85371 0.75631 0.0
C1442 C 0.82392 0.8361 0.75108 0.0
C1443 C 0.84285 0.84823 0.74235 0.0
H1444 H 0.80722 0.83318 0.74086 0.0
H1445 H 0.84074 0.85364 0.72503 0.0
H1446 H 0.74814 0.72983 0.8031 0.0
H1447 H 0.81156 0.81114 0.84632 0.0
H1448 H 0.71177 0.71027 0.81379 0.0
H1449 H 0.87904 0.86332 0.74965 0.0
H1450 H 0.9027 0.86424 0.7892 0.0
H1451 H 0.75651 0.75438 0.69622 0.0
H1452 H 0.88341 0.84199 0.86318 0.0
H1453 H 0.84674 0.82442 0.87588 0.0
H1454 H 0.65864 0.6967 0.74162 0.0
H1455 H 0.90428 0.85645 0.83054 0.0
H1456 H 0.68498 0.72644 0.67354 0.0
H1457 H 0.72274 0.74682 0.66545 0.0
N1458 N 0.73789 0.74054 0.72254 0.0
C1459 C 0.71742 0.7286 0.72716 0.0
C1460 C 0.74002 0.74669 0.70057 0.0
C1461 C 0.6997 0.73024 0.6874 0.0
C1462 C 0.72095 0.7419 0.68282 0.0
C1463 C 0.69772 0.72337 0.70971 0.0
H1464 H 0.66143 0.70727 0.70178 0.0
N1465 N 0.735 0.72817 0.76659 0.0
C1466 C 0.71594 0.72216 0.74968 0.0
C1467 C 0.69324 0.7064 0.77844 0.0
C1468 C 0.69459 0.71099 0.75521 0.0
C1469 C 0.73356 0.72428 0.78942 0.0
C1470 C 0.71275 0.71332 0.79565 0.0
O1471 O 0.82131 0.79093 0.76694 0.0
O1472 O 0.80823 0.75163 0.76339 0.0
O1473 O 0.76267 0.70673 0.74892 0.0
O1474 O 0.77372 0.72401 0.71977 0.0
O1475 O 0.77616 0.80013 0.74981 0.0
O1476 O 0.78628 0.76959 0.73153 0.0
O1477 O 0.74468 0.76665 0.75975 0.0
O1478 O 0.76314 0.78418 0.79592 0.0
O1479 O 0.7801 0.83273 0.77932 0.0
O1480 O 0.78908 0.82757 0.81577 0.0
O1481 O 0.78387 0.74121 0.78977 0.0
O1482 O 0.79689 0.7782 0.81082 0.0
C1483 C 0.82476 0.77019 0.76323 0.0
C1484 C 0.78166 0.78943 0.73105 0.0
C1485 C 0.78125 0.68796 0.72179 0.0
C1486 C 0.80069 0.65932 0.73358 0.0
C1487 C 0.79079 0.66197 0.69165 0.0
C1488 C 0.78112 0.68003 0.69781 0.0
C1489 C 0.80015 0.65137 0.70934 0.0
C1490 C 0.79174 0.67815 0.73959 0.0
C1491 C 0.76811 0.70461 0.72762 0.0
C1492 C 0.67512 0.7054 0.73768 0.0
C1493 C 0.67669 0.71152 0.71502 0.0
H1494 H 0.67713 0.69798 0.78339 0.0
C1495 C 0.74423 0.77829 0.78048 0.0
C1496 C 0.79269 0.75575 0.80948 0.0
C1497 C 0.78831 0.8648 0.80941 0.0
C1498 C 0.78118 0.90156 0.80472 0.0
C1499 C 0.8085 0.89821 0.83784 0.0
C1500 C 0.80435 0.87483 0.82989 0.0
C1501 C 0.79684 0.91159 0.82538 0.0
C1502 C 0.7769 0.87824 0.79697 0.0
C1503 C 0.78122 0.84021 0.80181 0.0
H1504 H 0.79033 0.65565 0.6731 0.0
H1505 H 0.77296 0.68741 0.68385 0.0
H1506 H 0.8063 0.63654 0.70389 0.0
H1507 H 0.79231 0.68479 0.75808 0.0
H1508 H 0.82067 0.90592 0.8537 0.0
H1509 H 0.81331 0.86466 0.83995 0.0
H1510 H 0.80025 0.92971 0.83161 0.0
H1511 H 0.76421 0.87042 0.78143 0.0
C1512 C 0.49238 0.46186 0.47794 0.0
C1513 C 0.47035 0.43773 0.50225 0.0
C1514 C 0.48239 0.45948 0.49846 0.0
C1515 C 0.46891 0.41848 0.48557 0.0
C1516 C 0.49036 0.44256 0.46086 0.0
C1517 C 0.47885 0.42089 0.46494 0.0
N1518 N 0.50363 0.48303 0.47443 0.0
C1519 C 0.5112 0.48623 0.4533 0.0
C1520 C 0.49955 0.44564 0.4399 0.0
C1521 C 0.50972 0.46762 0.43596 0.0
Gd1522 Gd 0.56494 0.54388 0.54028 0.0
Gd1523 Gd 0.50443 0.51301 0.50451 0.0
N1524 N 0.48385 0.47841 0.5143 0.0
C1525 C 0.45959 0.43599 0.52242 0.0
C1526 C 0.47184 0.47691 0.53298 0.0
C1527 C 0.46005 0.45572 0.53766 0.0
H1528 H 0.47049 0.49206 0.54388 0.0
H1529 H 0.45092 0.45468 0.55272 0.0
H1530 H 0.59354 0.55725 0.49524 0.0
H1531 H 0.51758 0.50314 0.44922 0.0
H1532 H 0.61552 0.59161 0.48194 0.0
H1533 H 0.45021 0.41959 0.52594 0.0
H1534 H 0.45982 0.40167 0.48828 0.0
H1535 H 0.56301 0.55841 0.59854 0.0
H1536 H 0.49825 0.43125 0.42633 0.0
H1537 H 0.51604 0.47029 0.41939 0.0
H1538 H 0.62377 0.65087 0.54759 0.0
H1539 H 0.47724 0.40589 0.45206 0.0
H1540 H 0.59474 0.62969 0.61794 0.0
H1541 H 0.57459 0.59295 0.62866 0.0
N1542 N 0.57504 0.57568 0.57054 0.0
C1543 C 0.58729 0.59537 0.56468 0.0
C1544 C 0.57123 0.57449 0.59346 0.0
C1545 C 0.58938 0.61465 0.60453 0.0
C1546 C 0.57799 0.59396 0.61065 0.0
C1547 C 0.59451 0.61548 0.58144 0.0
H1548 H 0.6128 0.65118 0.58751 0.0
N1549 N 0.58794 0.57513 0.52709 0.0
C1550 C 0.59389 0.5951 0.54232 0.0
C1551 C 0.61457 0.61386 0.51369 0.0
C1552 C 0.60734 0.61505 0.53597 0.0
C1553 C 0.59633 0.57353 0.50611 0.0
C1554 C 0.6093 0.59292 0.49883 0.0
O1555 O 0.5283 0.4893 0.51181 0.0
O1556 O 0.54858 0.50773 0.54761 0.0
O1557 O 0.59874 0.53865 0.53857 0.0
O1558 O 0.58377 0.53604 0.57158 0.0
O1559 O 0.50668 0.51746 0.54457 0.0
O1560 O 0.53578 0.54935 0.55905 0.0
O1561 O 0.54964 0.56813 0.51921 0.0
O1562 O 0.51063 0.55232 0.51487 0.0
O1563 O 0.46901 0.51264 0.50492 0.0
O1564 O 0.48295 0.51497 0.47203 0.0
O1565 O 0.56195 0.52394 0.50353 0.0
O1566 O 0.53032 0.53217 0.48474 0.0
C1567 C 0.5406 0.48872 0.53231 0.0
C1568 C 0.51754 0.5341 0.56164 0.0
C1569 C 0.62198 0.53067 0.57253 0.0
C1570 C 0.65852 0.52213 0.56926 0.0
C1571 C 0.64379 0.52143 0.60676 0.0
C1572 C 0.62427 0.52721 0.59643 0.0
C1573 C 0.66082 0.5187 0.59321 0.0
C1574 C 0.63935 0.52868 0.55931 0.0
C1575 C 0.60128 0.53547 0.56081 0.0
C1576 C 0.61357 0.63536 0.55221 0.0
C1577 C 0.60728 0.63555 0.57493 0.0
H1578 H 0.62483 0.62882 0.50813 0.0
C1579 C 0.52829 0.56998 0.51476 0.0
C1580 C 0.5507 0.52874 0.48453 0.0
C1581 C 0.45367 0.53362 0.47781 0.0
C1582 C 0.42892 0.55749 0.49007 0.0
C1583 C 0.4376 0.55472 0.44965 0.0
C1584 C 0.45097 0.53961 0.45489 0.0
C1585 C 0.42624 0.56329 0.46696 0.0
C1586 C 0.44337 0.54334 0.49547 0.0
C1587 C 0.4655 0.51583 0.48282 0.0
H1588 H 0.6455 0.51862 0.62514 0.0
H1589 H 0.61097 0.52874 0.60701 0.0
H1590 H 0.67542 0.51335 0.60125 0.0
H1591 H 0.63774 0.53176 0.54098 0.0
H1592 H 0.43535 0.55914 0.43189 0.0
H1593 H 0.45879 0.53228 0.44094 0.0
H1594 H 0.41485 0.57383 0.46195 0.0
H1595 H 0.44598 0.53926 0.51336 0.0
C1596 C 0.08297 0.57793 0.9886 0.0
C1597 C 0.11191 0.60281 0.01971 0.0
C1598 C 0.0952 0.58216 0.01171 0.0
C1599 C 0.11621 0.6192 0.0044 0.0
C1600 C 0.08749 0.59441 0.97323 0.0
C1601 C 0.10408 0.61501 0.98127 0.0
N1602 N 0.06669 0.55791 0.98126 0.0
C1603 C 0.05543 0.55292 0.95839 0.0
C1604 C 0.07525 0.58973 0.95015 0.0
C1605 C 0.0593 0.56885 0.94267 0.0
Gd1606 Gd 1.00133 0.52514 0.03699 0.0
Gd1607 Gd 0.0633 0.5329 0.00973 0.0
N1608 N 0.09034 0.56633 0.02655 0.0
C1609 C 0.12387 0.60634 0.04289 0.0
C1610 C 0.10263 0.56913 0.04865 0.0
C1611 C 0.11936 0.58932 0.05733 0.0
H1612 H 0.09993 0.55548 0.0592 0.0
H1613 H 0.12897 0.59162 0.07502 0.0
H1614 H 0.96525 0.49838 0.98805 0.0
H1615 H 0.0438 0.53657 0.9517 0.0
H1616 H 0.9364 0.46191 0.97484 0.0
H1617 H 0.13687 0.62197 0.04966 0.0
H1618 H 0.12894 0.6352 0.01027 0.0
H1619 H 0.01805 0.52729 0.09692 0.0
H1620 H 0.07823 0.60197 0.93786 0.0
H1621 H 0.05016 0.56488 0.92466 0.0
H1622 H 0.93545 0.42475 0.04427 0.0
H1623 H 0.10767 0.62786 0.96969 0.0
H1624 H 0.98526 0.46334 0.11554 0.0
H1625 H 0.012 0.50146 0.12654 0.0
N1626 N 0.99711 0.50314 0.0681 0.0
C1627 C 0.98142 0.48259 0.06192 0.0
C1628 C 0.00731 0.51031 0.09122 0.0
C1629 C 0.98834 0.47437 0.10211 0.0
C1630 C 1.00351 0.49585 0.10837 0.0
C1631 C 0.9767 0.46769 0.07883 0.0
H1632 H 0.95651 0.43515 0.08497 0.0
N1633 N 0.97475 0.49064 0.02234 0.0
C1634 C 0.96951 0.4765 0.03871 0.0
C1635 C 0.94103 0.45022 0.00881 0.0
C1636 C 0.9527 0.45567 0.03218 0.0
C1637 C 0.96254 0.48606 1e-05 0.0
C1638 C 0.94582 0.46562 0.99273 0.0
O1639 O 0.05269 0.56625 0.02256 0.0
O1640 O 0.02309 0.56215 0.04577 0.0
O1641 O 0.97391 0.53877 0.02078 0.0
O1642 O 0.97596 0.53285 0.05751 0.0
O1643 O 0.05439 0.52126 0.04382 0.0
O1644 O 0.03255 0.53993 0.06364 0.0
O1645 O 0.01004 0.49124 0.02286 0.0
O1646 O 0.04416 0.49563 0.00682 0.0
O1647 O 0.09469 0.52212 0.0217 0.0
O1648 O 0.08262 0.52201 0.98386 0.0
O1649 O 0.01261 0.5365 0.00394 0.0
O1650 O 0.0325 0.51731 0.98287 0.0
C1651 C 0.03952 0.57492 0.0362 0.0
C1652 C 0.05207 0.53479 0.06221 0.0
C1653 C 0.96065 0.56323 0.04798 0.0
C1654 C 0.93387 0.58736 0.04707 0.0
C1655 C 0.96935 0.599 0.0749 0.0
C1656 C 0.97535 0.57917 0.06627 0.0
C1657 C 0.94862 0.60301 0.06552 0.0
C1658 C 0.94005 0.56756 0.03813 0.0
C1659 C 0.96568 0.54122 0.04064 0.0
C1660 C 0.94818 0.44088 0.04902 0.0
C1661 C 0.96025 0.44678 0.07219 0.0
H1662 H 0.92806 0.43437 0.00312 0.0
C1663 C 0.02556 0.48279 0.01278 0.0
C1664 C 0.01318 0.52225 0.98549 0.0
C1665 C 0.11781 0.51073 0.992 0.0
C1666 C 0.14727 0.48949 0.9961 0.0
C1667 C 0.14176 0.50819 0.96133 0.0
C1668 C 0.12417 0.51596 0.97012 0.0
C1669 C 0.15317 0.49498 0.97413 0.0
C1670 C 0.1297 0.49772 0.00528 0.0
C1671 C 0.09801 0.5181 -0.00033 0.0
H1672 H 0.98061 0.61109 0.08917 0.0
H1673 H 0.99115 0.57598 0.07431 0.0
H1674 H 0.94408 0.61837 0.07262 0.0
H1675 H 0.92851 0.5552 0.02421 0.0
H1676 H 0.14647 0.5123 0.94444 0.0
H1677 H 0.11541 0.52602 0.95965 0.0
H1678 H 0.16679 0.48909 0.96687 0.0
H1679 H 0.12488 0.49341 0.02209 0.0
C1680 C 0.02727 0.20006 0.98409 0.0
C1681 C 1.00462 0.20235 0.97985 0.0
C1682 C 0.03246 0.17966 0.99072 0.0
C1683 C 0.01466 0.16026 0.99234 0.0
C1684 C 0.99176 0.1624 0.98763 0.0
C1685 C 0.98712 0.18327 0.98197 0.0
C1686 C 0.05715 0.17891 0.99609 0.0
C1687 C 0.97196 0.14245 0.98836 0.0
C1688 C 0.02439 0.09885 0.98629 0.0
C1689 C 0.02735 0.09443 0.00996 0.0
C1690 C 0.02108 0.12014 0.98049 0.0
C1691 C 0.01979 0.13774 -0.00142 0.0
C1692 C 0.02278 0.13332 0.02254 0.0
C1693 C 0.02691 0.11215 0.0279 0.0
C1694 C 0.01883 0.12374 0.95479 0.0
C1695 C 0.02123 0.15089 0.04266 0.0
H1696 H 0.04108 0.2145 0.98277 0.0
H1697 H 0.96953 0.18446 0.97865 0.0
H1698 H 0.06069 0.17412 0.01404 0.0
H1699 H 0.06068 0.16564 0.98314 0.0
H1700 H 0.0691 0.19556 0.99536 0.0
H1701 H 0.95515 0.14645 0.98394 0.0
H1702 H 0.9727 0.12758 0.97558 0.0
H1703 H 0.97315 0.13725 0.00632 0.0
H1704 H 0.02498 0.08564 0.97215 0.0
H1705 H 0.02915 0.10922 0.04625 0.0
H1706 H 0.03156 0.13941 0.9527 0.0
H1707 H 1.00162 0.12627 0.94896 0.0
H1708 H 0.02139 0.10909 0.94288 0.0
H1709 H 0.03415 0.16708 0.04273 0.0
H1710 H 0.02393 0.14513 0.06027 0.0
H1711 H 1.00415 0.15464 0.04006 0.0
C1712 C 0.12872 0.79251 0.17054 0.0
C1713 C 0.13331 0.80245 0.1501 0.0
C1714 C 0.14661 0.79062 0.18796 0.0
C1715 C 0.16983 0.79922 0.18528 0.0
C1716 C 0.1745 0.80984 0.16504 0.0
C1717 C 0.15634 0.81115 0.14775 0.0
C1718 C 0.14067 0.77881 0.20894 0.0
C1719 C 0.1988 0.81956 0.16138 0.0
C1720 C 0.21752 0.81113 0.23935 0.0
C1721 C 0.22734 0.79259 0.23547 0.0
C1722 C 0.19879 0.81344 0.22337 0.0
C1723 C 0.18926 0.79658 0.20314 0.0
C1724 C 0.19893 0.77754 0.19953 0.0
C1725 C 0.21788 0.77588 0.21559 0.0
C1726 C 0.1895 0.83421 0.22793 0.0
C1727 C 0.18926 0.75888 0.17863 0.0
H1728 H 0.1111 0.78548 0.17255 0.0
H1729 H 0.16026 0.81888 0.13215 0.0
H1730 H 0.14794 0.76367 0.209 0.0
H1731 H 0.14839 0.79042 0.22578 0.0
H1732 H 0.12191 0.77317 0.20866 0.0
H1733 H 0.19965 0.82836 0.14544 0.0
H1734 H 0.20823 0.83187 0.17721 0.0
H1735 H 0.20776 0.80567 0.15928 0.0
H1736 H 0.22478 0.82407 0.25472 0.0
H1737 H 0.22523 0.76135 0.2127 0.0
H1738 H 0.17101 0.82894 0.22916 0.0
H1739 H 0.19123 0.84406 0.21283 0.0
H1740 H 0.19851 0.84559 0.24458 0.0
H1741 H 0.17077 0.75174 0.17874 0.0
H1742 H 0.19807 0.74479 0.17877 0.0
H1743 H 0.19088 0.76599 0.16176 0.0
C1744 C 0.52813 0.84977 0.47858 0.0
C1745 C 0.50758 0.8344 0.4809 0.0
C1746 C 0.53128 0.8739 0.48381 0.0
C1747 C 0.51319 0.88333 0.49058 0.0
C1748 C 0.49228 0.86784 0.49237 0.0
C1749 C 0.48994 0.84392 0.48803 0.0
C1750 C 0.55418 0.88936 0.48239 0.0
C1751 C 0.47201 0.87654 0.49834 0.0
C1752 C 0.52291 0.94481 0.52403 0.0
C1753 C 0.51978 0.9577 0.50557 0.0
C1754 C 0.52162 0.92107 0.5194 0.0
C1755 C 0.5159 0.9092 0.49571 0.0
C1756 C 0.51201 0.9221 0.47706 0.0
C1757 C 0.51454 0.94607 0.48212 0.0
C1758 C 0.5268 0.90875 0.54001 0.0
C1759 C 0.50477 0.91054 0.45164 0.0
H1760 H 0.54194 0.84294 0.47306 0.0
H1761 H 0.47378 0.83252 0.48952 0.0
H1762 H 0.55231 0.90025 0.4684 0.0
H1763 H 0.56081 0.90092 0.4995 0.0
H1764 H 0.56698 0.87964 0.47834 0.0
H1765 H 0.45657 0.86247 0.49789 0.0
H1766 H 0.47614 0.88679 0.5163 0.0
H1767 H 0.46789 0.88794 0.48554 0.0
H1768 H 0.52707 0.9535 0.54221 0.0
H1769 H 0.51184 0.95567 0.46767 0.0
H1770 H 0.54008 0.8995 0.53652 0.0
H1771 H 0.51126 0.89586 0.54205 0.0
H1772 H 0.53286 0.92058 0.55704 0.0
H1773 H 0.51886 0.90391 0.44534 0.0
H1774 H 0.50013 0.92231 0.43952 0.0
H1775 H 0.48986 0.89573 0.4504 0.0
C1776 C 0.50005 0.27782 0.6537 0.0
C1777 C 0.51321 0.30033 0.65545 0.0
C1778 C 0.48151 0.27252 0.66624 0.0
C1779 C 0.47591 0.29009 0.68104 0.0
C1780 C 0.48906 0.31285 0.68287 0.0
C1781 C 0.50752 0.3177 0.67006 0.0
C1782 C 0.46791 0.24801 0.66369 0.0
C1783 C 0.48374 0.33206 0.69849 0.0
C1784 C 0.41537 0.27462 0.69592 0.0
C1785 C 0.419 0.26622 0.71745 0.0
C1786 C 0.43387 0.28361 0.68439 0.0
C1787 C 0.45649 0.28432 0.69479 0.0
C1788 C 0.46022 0.27724 0.71735 0.0
C1789 C 0.4414 0.26805 0.72828 0.0
C1790 C 0.42909 0.29091 0.66037 0.0
C1791 C 0.48398 0.27802 0.72931 0.0
H1792 H 0.50422 0.26426 0.64247 0.0
H1793 H 0.51753 0.33515 0.67156 0.0
H1794 H 0.46884 0.24202 0.68128 0.0
H1795 H 0.44963 0.24672 0.65721 0.0
H1796 H 0.47419 0.2364 0.65118 0.0
H1797 H 0.49521 0.34891 0.69755 0.0
H1798 H 0.46578 0.33278 0.69319 0.0
H1799 H 0.48548 0.32891 0.71725 0.0
H1800 H 0.39799 0.27291 0.68743 0.0
H1801 H 0.44413 0.26138 0.74487 0.0
H1802 H 0.43267 0.27853 0.64645 0.0
H1803 H 0.4405 0.30784 0.6597 0.0
H1804 H 0.41104 0.29182 0.656 0.0
H1805 H 0.49073 0.26493 0.71936 0.0
H1806 H 0.48422 0.2747 0.748 0.0
H1807 H 0.49573 0.29489 0.72917 0.0
C1808 C 0.03595 0.82214 0.64921 0.0
C1809 C 0.0186 0.80296 0.63829 0.0
C1810 C 0.04126 0.84181 0.63826 0.0
C1811 C 0.02906 0.84237 0.61571 0.0
C1812 C 0.01152 0.8231 0.60456 0.0
C1813 C 0.00646 0.80366 0.616 0.0
C1814 C 0.05999 0.86203 0.65086 0.0
C1815 C 0.99822 0.82295 0.58046 0.0
C1816 C 0.03154 0.90166 0.59919 0.0
C1817 C 0.04975 0.90461 0.58618 0.0
C1818 C 0.02404 0.88115 0.60823 0.0
C1819 C 0.03491 0.86314 0.60388 0.0
C1820 C 0.0526 0.86575 0.58969 0.0
C1821 C 0.05999 0.88658 0.58122 0.0
C1822 C 0.00529 0.87919 0.62342 0.0
C1823 C 0.06437 0.84688 0.58425 0.0
H1824 H 0.04542 0.82186 0.66644 0.0
H1825 H 0.99305 0.78895 0.60737 0.0
H1826 H 0.07385 0.86575 0.6399 0.0
H1827 H 0.05318 0.87743 0.65326 0.0
H1828 H 0.06748 0.85911 0.66858 0.0
H1829 H 0.98469 0.80688 0.57446 0.0
H1830 H 0.99011 0.83753 0.58094 0.0
H1831 H 0.01001 0.82506 0.56711 0.0
H1832 H 0.02381 0.91577 0.60313 0.0
H1833 H 0.07414 0.889 0.57118 0.0
H1834 H 0.01245 0.87848 0.64201 0.0
H1835 H 0.99184 0.86317 0.61709 0.0
H1836 H 0.99725 0.89384 0.62339 0.0
H1837 H 0.07448 0.84445 0.60081 0.0
H1838 H 0.07604 0.85067 0.57096 0.0
H1839 H 0.05154 0.83053 0.57741 0.0
C1840 C 0.47009 0.80457 0.80558 0.0
C1841 C 0.47544 0.80184 0.82954 0.0
C1842 C 0.44709 0.80313 0.79515 0.0
C1843 C 0.4289 0.79918 0.80893 0.0
C1844 C 0.43429 0.79611 0.83287 0.0
C1845 C 0.45702 0.79723 0.84259 0.0
C1846 C 0.44227 0.80622 0.76946 0.0
C1847 C 0.41597 0.79192 0.84861 0.0
C1848 C 0.37144 0.81576 0.79617 0.0
C1849 C 0.35584 0.7946 0.78744 0.0
C1850 C 0.3953 0.81775 0.80168 0.0
C1851 C 0.40417 0.79807 0.79893 0.0
C1852 C 0.38855 0.77675 0.78966 0.0
C1853 C 0.36488 0.77532 0.78398 0.0
C1854 C 0.41097 0.8409 0.81137 0.0
C1855 C 0.39671 0.75515 0.78651 0.0
H1856 H 0.48382 0.80819 0.79511 0.0
H1857 H 0.46032 0.79481 0.86102 0.0
H1858 H 0.42811 0.79198 0.75973 0.0
H1859 H 0.43667 0.82223 0.76836 0.0
H1860 H 0.45754 0.80704 0.76044 0.0
H1861 H 0.42287 0.79001 0.86694 0.0
H1862 H 0.40761 0.80632 0.84973 0.0
H1863 H 0.40255 0.77622 0.84087 0.0
H1864 H 0.36497 0.83076 0.79947 0.0
H1865 H 0.35335 0.75881 0.77711 0.0
H1866 H 0.42562 0.84434 0.80139 0.0
H1867 H 0.41806 0.84119 0.83023 0.0
H1868 H 0.40203 0.85482 0.81037 0.0
H1869 H 0.41129 0.7575 0.77637 0.0
H1870 H 0.38297 0.7403 0.77711 0.0
H1871 H 0.40291 0.75114 0.80418 0.0
C1872 C 0.53425 0.1719 0.15336 0.0
C1873 C 0.5173 0.18397 0.15014 0.0
C1874 C 0.53603 0.15448 0.13572 0.0
C1875 C 0.51992 0.1482 0.11449 0.0
C1876 C 0.50256 0.16019 0.11125 0.0
C1877 C 0.50173 0.17821 0.12885 0.0
C1878 C 0.55528 0.14285 0.13981 0.0
C1879 C 0.48463 0.15374 0.0893 0.0
C1880 C 0.53649 0.11442 0.06133 0.0
C1881 C 0.52569 0.09171 0.06299 0.0
C1882 C 0.53415 0.13292 0.07736 0.0
C1883 C 0.52111 0.12882 0.09605 0.0
C1884 C 0.51001 0.10597 0.09772 0.0
C1885 C 0.51222 0.08786 0.08115 0.0
C1886 C 0.54613 0.15689 0.07459 0.0
C1887 C 0.49609 0.10057 0.11735 0.0
H1888 H 0.54655 0.17648 0.1696 0.0
H1889 H 0.48856 0.18743 0.12624 0.0
H1890 H 0.54821 0.12438 0.14002 0.0
H1891 H 0.56548 0.14438 0.12503 0.0
H1892 H 0.56688 0.15023 0.15683 0.0
H1893 H 0.47238 0.16475 0.08923 0.0
H1894 H 0.4929 0.155 0.07312 0.0
H1895 H 0.47494 0.13572 0.0882 0.0
H1896 H 0.54722 0.11783 0.04776 0.0
H1897 H 0.50366 0.07053 0.08278 0.0
H1898 H 0.55959 0.16436 0.09019 0.0
H1899 H 0.53385 0.16784 0.07402 0.0
H1900 H 0.55417 0.15743 0.0582 0.0
H1901 H 0.50728 0.10599 0.13487 0.0
H1902 H 0.48776 0.08208 0.11573 0.0
H1903 H 0.4827 0.11025 0.1172 0.0
C1904 C 0.12223 0.3132 0.29562 0.0
C1905 C 0.11524 0.31179 0.31817 0.0
C1906 C 0.14372 0.30982 0.29073 0.0
C1907 C 0.15916 0.3043 0.30855 0.0
C1908 C 0.15236 0.30301 0.33144 0.0
C1909 C 0.13086 0.30694 0.336 0.0
C1910 C 0.14978 0.31193 0.26617 0.0
C1911 C 0.16761 0.29677 0.35107 0.0
C1912 C 0.20234 0.2717 0.28607 0.0
C1913 C 0.22345 0.28807 0.29059 0.0
C1914 C 0.18185 0.27648 0.2924 0.0
C1915 C 0.18162 0.29879 0.30279 0.0
C1916 C 0.20283 0.31571 0.3069 0.0
C1917 C 0.22333 0.31007 0.30134 0.0
C1918 C 0.16034 0.25738 0.28804 0.0
C1919 C 0.20383 0.34005 0.31668 0.0
H1920 H 0.11072 0.31693 0.28147 0.0
H1921 H 0.12601 0.30553 0.35344 0.0
H1922 H 0.16708 0.3234 0.26738 0.0
H1923 H 0.15021 0.29497 0.25708 0.0
H1924 H 0.13732 0.31864 0.255 0.0
H1925 H 0.16031 0.2966 0.36791 0.0
H1926 H 0.17031 0.27962 0.34552 0.0
H1927 H 0.18464 0.30905 0.35447 0.0
H1928 H 0.20181 0.25479 0.27802 0.0
H1929 H 0.23925 0.32318 0.30482 0.0
H1930 H 0.14745 0.26109 0.27462 0.0
H1931 H 0.15282 0.25602 0.30467 0.0
H1932 H 0.16351 0.24064 0.28159 0.0
H1933 H 0.19193 0.34674 0.30479 0.0
H1934 H 0.22131 0.35138 0.31845 0.0
H1935 H 0.19818 0.34079 0.33437 0.0
C1936 C 0.98051 0.00602 0.18306 0.0
C1937 C 0.96986 0.02037 0.19611 0.0
C1938 C 0.98612 0.01006 0.16069 0.0
C1939 C 0.98137 0.0292 0.15114 0.0
C1940 C 0.97055 0.04378 0.1641 0.0
C1941 C 0.96471 0.03907 0.18638 0.0
C1942 C 0.99752 0.99399 0.14743 0.0
C1943 C 0.96563 0.06458 0.15465 0.0
C1944 C 0.02168 0.04777 0.10805 0.0
C1945 C 0.00871 0.03743 0.086 0.0
C1946 C 0.01244 0.04681 0.12922 0.0
C1947 C 0.98954 0.03466 0.12851 0.0
C1948 C 0.97572 0.02536 0.10621 0.0
C1949 C 0.98536 0.02727 0.08518 0.0
C1950 C 0.02771 0.05765 0.15248 0.0
C1951 C 0.95126 0.012 0.10461 0.0
H1952 H 0.9843 0.99135 0.19023 0.0
H1953 H 0.95641 0.05018 0.19631 0.0
H1954 H 0.98807 0.98786 0.12913 0.0
H1955 H 0.01516 0.00316 0.14584 0.0
H1956 H 0.99844 0.97896 0.15647 0.0
H1957 H 0.9564 0.07375 0.16644 0.0
H1958 H 0.98192 0.07651 0.15281 0.0
H1959 H 0.95525 0.05959 0.13669 0.0
H1960 H 0.03919 0.05642 0.10902 0.0
H1961 H 0.97487 0.01962 0.06822 0.0
H1962 H 0.032 0.04412 0.16229 0.0
H1963 H 0.0188 0.06755 0.16388 0.0
H1964 H 0.04394 0.06919 0.14976 0.0
H1965 H 0.95107 0.99509 0.11018 0.0
H1966 H 0.9418 0.00921 0.08622 0.0
H1967 H 0.94213 0.02084 0.11676 0.0
C1968 C 0.28179 0.66507 0.48821 0.0
C1969 C 0.26163 0.66111 0.49835 0.0
C1970 C 0.28302 0.67562 0.46768 0.0
C1971 C 0.2638 0.68263 0.45763 0.0
C1972 C 0.24315 0.6777 0.46723 0.0
C1973 C 0.24232 0.66691 0.48735 0.0
C1974 C 0.30509 0.67995 0.45749 0.0
C1975 C 0.22212 0.68474 0.45694 0.0
C1976 C 0.26178 0.73424 0.42946 0.0
C1977 C 0.24976 0.72398 0.407 0.0
C1978 C 0.26979 0.72107 0.4454 0.0
C1979 C 0.26519 0.69716 0.43869 0.0
C1980 C 0.25569 0.68723 0.41502 0.0
C1981 C 0.24788 0.7008 0.39939 0.0
C1982 C 0.28079 0.73236 0.47026 0.0
C1983 C 0.25147 0.66193 0.40697 0.0
H1984 H 0.29666 0.66025 0.49643 0.0
H1985 H 0.22657 0.6636 0.49485 0.0
H1986 H 0.30208 0.67992 0.43798 0.0
H1987 H 0.31604 0.69691 0.46587 0.0
H1988 H 0.31467 0.66695 0.46128 0.0
H1989 H 0.20728 0.67895 0.4662 0.0
H1990 H 0.22589 0.70361 0.45832 0.0
H1991 H 0.21709 0.67756 0.43783 0.0
H1992 H 0.26405 0.75238 0.4349 0.0
H1993 H 0.23902 0.69295 0.38176 0.0
H1994 H 0.29564 0.72563 0.47629 0.0
H1995 H 0.26823 0.7285 0.48266 0.0
H1996 H 0.28662 0.7512 0.47139 0.0
H1997 H 0.26559 0.6552 0.41514 0.0
H1998 H 0.24963 0.65796 0.3873 0.0
H1999 H 0.23542 0.65289 0.41262 0.0
C2000 C 0.62088 0.03143 0.68713 0.0
C2001 C 0.64377 0.04275 0.68828 0.0
C2002 C 0.60618 0.02672 0.66566 0.0
C2003 C 0.6148 0.03413 0.64537 0.0
C2004 C 0.63825 0.04451 0.64617 0.0
C2005 C 0.65273 0.04851 0.66788 0.0
C2006 C 0.58121 0.01536 0.66511 0.0
C2007 C 0.64757 0.0529 0.62465 0.0
C2008 C 0.57747 0.01344 0.58645 0.0
C2009 C 0.56702 0.03147 0.58446 0.0
C2010 C 0.59326 0.01406 0.60635 0.0
C2011 C 0.59872 0.03334 0.62411 0.0
C2012 C 0.5882 0.05163 0.62214 0.0
C2013 C 0.57212 0.05033 0.60224 0.0
C2014 C 0.604 0.99419 0.60842 0.0
C2015 C 0.59404 0.07255 0.64089 0.0
H2016 H 0.61435 0.02701 0.70323 0.0
H2017 H 0.67056 0.05746 0.66924 0.0
H2018 H 0.57092 0.02808 0.66305 0.0
H2019 H 0.57499 1.00155 0.6497 0.0
H2020 H 0.57808 0.00804 0.68165 0.0
H2021 H 0.66655 0.05856 0.62773 0.0
H2022 H 0.64205 0.03932 0.60898 0.0
H2023 H 0.64063 0.0675 0.62016 0.0
H2024 H 0.57317 0.99879 0.57254 0.0
H2025 H 0.564 0.06427 0.60023 0.0
H2026 H 0.60076 0.98719 0.62508 0.0
H2027 H 0.62281 1.00004 0.60938 0.0
H2028 H 0.5973 0.98023 0.59316 0.0
H2029 H 0.59018 0.06759 0.65826 0.0
H2030 H 0.58441 0.08532 0.6363 0.0
H2031 H 0.61261 0.08076 0.64317 0.0
C2032 C 0.28617 0.31311 0.95982 0.0
C2033 C 0.28926 0.33632 0.9683 0.0
C2034 C 0.28432 0.30532 0.93541 0.0
C2035 C 0.28638 0.32122 0.91909 0.0
C2036 C 0.28861 0.34461 0.92744 0.0
C2037 C 0.28969 0.35183 0.95192 0.0
C2038 C 0.28122 0.28018 0.92723 0.0
C2039 C 0.29136 0.36222 0.91078 0.0
C2040 C 0.31096 0.3045 0.8635 0.0
C2041 C 0.29164 0.29877 0.84594 0.0
C2042 C 0.30955 0.31226 0.88722 0.0
C2043 C 0.28807 0.31361 0.89373 0.0
C2044 C 0.26838 0.30738 0.87606 0.0
C2045 C 0.27049 0.3004 0.85233 0.0
C2046 C 0.33115 0.31943 0.90522 0.0
C2047 C 0.24506 0.30792 0.88221 0.0
H2048 H 0.28583 0.30106 0.97241 0.0
H2049 H 0.29241 0.36985 0.9584 0.0
H2050 H 0.26722 0.27408 0.91188 0.0
H2051 H 0.2971 0.27726 0.92118 0.0
H2052 H 0.27726 0.26978 0.94159 0.0
H2053 H 0.29142 0.37943 0.91971 0.0
H2054 H 0.30771 0.36329 0.9037 0.0
H2055 H 0.2774 0.35715 0.89535 0.0
H2056 H 0.32733 0.30375 0.85857 0.0
H2057 H 0.25552 0.29595 0.83878 0.0
H2058 H 0.32991 0.30835 0.91933 0.0
H2059 H 0.33334 0.33721 0.91394 0.0
H2060 H 0.34662 0.31846 0.89706 0.0
H2061 H 0.24065 0.29627 0.89541 0.0
H2062 H 0.23149 0.30273 0.86636 0.0
H2063 H 0.24516 0.32532 0.89053 0.0
C2064 C 0.98905 0.04026 0.33979 0.0
C2065 C 0.97385 0.01984 0.32849 0.0
C2066 C 0.99714 0.04326 0.36437 0.0
C2067 C 0.98954 0.02554 0.37779 0.0
C2068 C 0.97358 0.00522 0.3664 0.0
C2069 C 0.96612 1.00255 0.34186 0.0
C2070 C 0.01422 0.0651 0.37589 0.0
C2071 C 0.96462 0.98614 0.38009 0.0
C2072 C 0.02568 0.02126 0.43547 0.0
C2073 C 0.01376 0.02938 0.45267 0.0
C2074 C 0.01809 0.02007 0.41107 0.0
C2075 C 0.99849 0.02785 0.40362 0.0
C2076 C 0.98671 0.03657 0.42089 0.0
C2077 C 0.99434 0.03701 0.44513 0.0
C2078 C 0.03073 0.00997 0.39324 0.0
C2079 C 0.96595 0.04536 0.4138 0.0
H2080 H 0.9951 0.05351 0.32931 0.0
H2081 H 0.95429 0.98679 0.33298 0.0
H2082 H 0.00771 0.07324 0.39104 0.0
H2083 H 0.03046 0.06124 0.38318 0.0
H2084 H 0.01795 0.07747 0.3632 0.0
H2085 H 0.95182 0.97169 0.36868 0.0
H2086 H 0.97896 0.97963 0.38811 0.0
H2087 H 0.95654 0.99264 0.39489 0.0
H2088 H 0.04091 0.0157 0.44101 0.0
H2089 H 0.98486 0.04311 0.45818 0.0
H2090 H 0.03539 0.02184 0.38031 0.0
H2091 H 0.01943 0.99389 0.38303 0.0
H2092 H 0.04652 0.00613 0.40185 0.0
H2093 H 0.97126 0.06131 0.40607 0.0
H2094 H 0.95718 0.04904 0.42915 0.0
H2095 H 0.95351 0.03283 0.39997 0.0
C2096 C 0.26011 0.67505 0.63807 0.0
C2097 C 0.27604 0.66832 0.62511 0.0
C2098 C 0.26728 0.68926 0.65971 0.0
C2099 C 0.29099 0.69697 0.6682 0.0
C2100 C 0.30696 0.68809 0.6566 0.0
C2101 C 0.29921 0.67366 0.63488 0.0
C2102 C 0.24961 0.6978 0.67213 0.0
C2103 C 0.33222 0.69538 0.66601 0.0
C2104 C 0.29633 0.75659 0.69417 0.0
C2105 C 0.29352 0.75351 0.71751 0.0
C2106 C 0.29937 0.73877 0.67835 0.0
C2107 C 0.2986 0.71737 0.6861 0.0
C2108 C 0.29854 0.71515 0.71027 0.0
C2109 C 0.29656 0.73368 0.72579 0.0
C2110 C 0.30039 0.74201 0.65273 0.0
C2111 C 0.29758 0.69266 0.71926 0.0
H2112 H 0.24207 0.67013 0.63068 0.0
H2113 H 0.31138 0.66793 0.62487 0.0
H2114 H 0.25229 0.69633 0.69132 0.0
H2115 H 0.25126 0.71611 0.67058 0.0
H2116 H 0.23186 0.68823 0.6644 0.0
H2117 H 0.34152 0.68341 0.65807 0.0
H2118 H 0.33944 0.7126 0.66161 0.0
H2119 H 0.33532 0.69648 0.68565 0.0
H2120 H 0.29501 0.77243 0.68789 0.0
H2121 H 0.29612 0.73235 0.74409 0.0
H2122 H 0.28331 0.73424 0.64196 0.0
H2123 H 0.31282 0.73345 0.64538 0.0
H2124 H 0.30528 0.76037 0.65074 0.0
H2125 H 0.27943 0.6833 0.71817 0.0
H2126 H 0.30553 0.69544 0.73815 0.0
H2127 H 0.3062 0.68176 0.70867 0.0
C2128 C 0.62789 0.0455 0.79998 0.0
C2129 C 0.65139 0.0477 0.8052 0.0
C2130 C 0.61486 0.04649 0.81833 0.0
C2131 C 0.62591 0.04985 0.84213 0.0
C2132 C 0.64904 0.04898 0.84714 0.0
C2133 C 0.66175 0.04831 0.82845 0.0
C2134 C 0.59006 0.04678 0.81239 0.0
C2135 C 0.66098 0.05143 0.87233 0.0
C2136 C 0.60787 0.09376 0.88214 0.0
C2137 C 0.59371 0.08008 0.89504 0.0
C2138 C 0.61878 0.08397 0.86518 0.0
C2139 C 0.61528 0.05991 0.86104 0.0
C2140 C 0.60123 0.04598 0.87424 0.0
C2141 C 0.59046 0.05627 0.89107 0.0
C2142 C 0.63394 0.09943 0.85157 0.0
C2143 C 0.59704 0.0203 0.8703 0.0
H2144 H 0.62013 0.045 0.78176 0.0
H2145 H 0.68001 0.04986 0.83215 0.0
H2146 H 0.57948 0.03625 0.82345 0.0
H2147 H 0.58835 0.06454 0.81632 0.0
H2148 H 0.58322 0.04035 0.79332 0.0
H2149 H 0.67703 0.04557 0.87297 0.0
H2150 H 0.66536 0.06966 0.88041 0.0
H2151 H 0.64965 0.04156 0.88328 0.0
H2152 H 0.61061 0.11216 0.88555 0.0
H2153 H 0.57931 0.04568 0.901 0.0
H2154 H 0.62703 0.09543 0.83231 0.0
H2155 H 0.65139 0.09654 0.85383 0.0
H2156 H 0.63531 0.11779 0.85751 0.0
H2157 H 0.58281 0.01308 0.85536 0.0
H2158 H 0.59208 0.01292 0.8863 0.0
H2159 H 0.61232 0.01479 0.86563 0.0
C2160 C 0.27709 0.33392 0.10357 0.0
C2161 C 0.29952 0.34427 0.10081 0.0
C2162 C 0.27241 0.32521 0.12469 0.0
C2163 C 0.29048 0.3278 0.14379 0.0
C2164 C 0.31298 0.33928 0.14138 0.0
C2165 C 0.31728 0.34693 0.11977 0.0
C2166 C 0.24836 0.31236 0.12618 0.0
C2167 C 0.33265 0.34309 0.16147 0.0
C2168 C 0.2779 0.31965 0.20638 0.0
C2169 C 0.28338 0.29874 0.20884 0.0
C2170 C 0.27994 0.3293 0.1853 0.0
C2171 C 0.2864 0.31722 0.16569 0.0
C2172 C 0.29065 0.29553 0.1676 0.0
C2173 C 0.2897 0.28688 0.18926 0.0
C2174 C 0.2762 0.35288 0.18442 0.0
C2175 C 0.29673 0.28161 0.1469 0.0
H2176 H 0.26339 0.33172 0.08882 0.0
H2177 H 0.33462 0.35511 0.11769 0.0
H2178 H 0.24816 0.29452 0.12876 0.0
H2179 H 0.24226 0.32023 0.14177 0.0
H2180 H 0.2362 0.31203 0.10992 0.0
H2181 H 0.34851 0.35448 0.15773 0.0
H2182 H 0.32812 0.35069 0.17822 0.0
H2183 H 0.33627 0.32651 0.16449 0.0
H2184 H 0.27294 0.32895 0.22131 0.0
H2185 H 0.294 0.27073 0.19081 0.0
H2186 H 0.26316 0.35265 0.169 0.0
H2187 H 0.29234 0.3647 0.18197 0.0
H2188 H 0.27062 0.35976 0.20089 0.0
H2189 H 0.28453 0.28069 0.13052 0.0
H2190 H 0.29661 0.26396 0.15023 0.0
H2191 H 0.31403 0.28995 0.14349 0.0
C2192 C 0.22322 0.95266 0.98065 0.0
C2193 C 0.24552 0.96535 0.98052 0.0
C2194 C 0.20756 0.96283 0.99074 0.0
C2195 C 0.21486 0.98593 0.00137 0.0
C2196 C 0.23675 0.99926 -0.00056 0.0
C2197 C 0.25181 0.98879 0.9886 0.0
C2198 C 0.18403 0.94838 0.99186 0.0
C2199 C 0.24515 0.02388 0.01103 0.0
C2200 C 0.17476 0.01937 0.02329 0.0
C2201 C 0.17714 0.01705 0.04754 0.0
C2202 C 0.18606 0.00832 0.00773 0.0
C2203 C 0.2008 0.99551 0.01688 0.0
C2204 C 0.20327 0.99298 0.04126 0.0
C2205 C 0.19112 0.00358 0.05628 0.0
C2206 C 0.18259 0.01068 0.98164 0.0
C2207 C 0.21909 0.97951 0.0516 0.0
H2208 H 0.21859 0.93444 0.97441 0.0
H2209 H 0.26925 0.99838 0.98878 0.0
H2210 H 0.18317 0.94431 0.01016 0.0
H2211 H 0.1708 0.95778 0.98757 0.0
H2212 H 0.17986 0.93206 0.97943 0.0
H2213 H 0.26176 0.03234 0.00603 0.0
H2214 H 0.23245 0.03368 0.00609 0.0
H2215 H 0.24734 0.02464 0.03066 0.0
H2216 H 0.16426 0.03007 0.01643 0.0
H2217 H 0.19257 1.0013 0.07484 0.0
H2218 H 0.17856 0.99365 0.97055 0.0
H2219 H 0.19859 0.02091 0.97696 0.0
H2220 H 0.16859 0.01909 0.97697 0.0
H2221 H 0.21406 0.96165 0.0424 0.0
H2222 H 0.21898 0.97927 0.07096 0.0
H2223 H 0.23685 0.987 0.04882 0.0
C2224 C 0.69917 0.637 0.02701 0.0
C2225 C 0.70613 0.64106 0.00521 0.0
C2226 C 0.67868 0.62113 0.0279 0.0
C2227 C 0.6652 0.60876 0.00644 0.0
C2228 C 0.6729 0.61196 0.98441 0.0
C2229 C 0.69318 0.62846 0.98404 0.0
C2230 C 0.67075 0.61874 0.05168 0.0
C2231 C 0.6593 0.59863 0.96124 0.0
C2232 C 0.61895 0.55838 0.01561 0.0
C2233 C 0.59922 0.56653 0.01188 0.0
C2234 C 0.64023 0.57125 0.01206 0.0
C2235 C 0.64233 0.59378 0.00706 0.0
C2236 C 0.62272 0.60258 0.00426 0.0
C2237 C 0.60133 0.58861 0.0059 0.0
C2238 C 0.66051 0.56082 0.01403 0.0
C2239 C 0.62443 0.62704 0.00044 0.0
H2240 H 0.70913 0.64721 0.04327 0.0
H2241 H 0.69857 0.632 0.96721 0.0
H2242 H 0.65436 0.62381 0.0518 0.0
H2243 H 0.66754 0.6007 0.05476 0.0
H2244 H 0.68343 0.62942 0.06669 0.0
H2245 H 0.66918 0.60074 0.94621 0.0
H2246 H 0.65398 0.5802 0.96272 0.0
H2247 H 0.64353 0.60453 0.957 0.0
H2248 H 0.61803 0.54212 0.02168 0.0
H2249 H 0.58638 0.59542 0.00344 0.0
H2250 H 0.67212 0.56839 0.03094 0.0
H2251 H 0.67039 0.56445 -0.00075 0.0
H2252 H 0.65522 0.54203 0.01363 0.0
H2253 H 0.63626 0.63876 0.01539 0.0
H2254 H 0.60759 0.63138 -0.00083 0.0
H2255 H 0.63161 0.63025 0.98392 0.0
C2256 C 0.69937 0.49933 0.30608 0.0
C2257 C 0.67785 0.49885 0.29365 0.0
C2258 C 0.70994 0.48141 0.30125 0.0
C2259 C 0.69861 0.46254 0.28372 0.0
C2260 C 0.67652 0.46157 0.27177 0.0
C2261 C 0.66648 0.47978 0.27678 0.0
C2262 C 0.73354 0.4831 0.31426 0.0
C2263 C 0.66371 0.44153 0.25324 0.0
C2264 C 0.73065 0.42757 0.2483 0.0
C2265 C 0.72721 0.40768 0.25881 0.0
C2266 C 0.72249 0.44611 0.25713 0.0
C2267 C 0.71025 0.44442 0.27663 0.0
C2268 C 0.70753 0.42459 0.28785 0.0
C2269 C 0.7162 0.40643 0.27883 0.0
C2270 C 0.72604 0.46707 0.2449 0.0
C2271 C 0.69438 0.42204 0.30848 0.0
H2272 H 0.70825 0.51397 0.31918 0.0
H2273 H 0.64974 0.47914 0.26727 0.0
H2274 H 0.73421 0.46706 0.32144 0.0
H2275 H 0.74606 0.48556 0.30165 0.0
H2276 H 0.73894 0.49755 0.32914 0.0
H2277 H 0.64601 0.44257 0.24691 0.0
H2278 H 0.67294 0.44084 0.23773 0.0
H2279 H 0.66285 0.4253 0.26057 0.0
H2280 H 0.73919 0.42833 0.23275 0.0
H2281 H 0.7135 0.39085 0.28673 0.0
H2282 H 0.73319 0.48268 0.25815 0.0
H2283 H 0.70935 0.46853 0.2358 0.0
H2284 H 0.73772 0.46654 0.2315 0.0
H2285 H 0.70066 0.43725 0.32237 0.0
H2286 H 0.69571 0.40659 0.31662 0.0
H2287 H 0.67606 0.42078 0.30224 0.0
C2288 C 0.87196 0.48887 0.52255 0.0
C2289 C 0.86736 0.47063 0.53545 0.0
C2290 C 0.89433 0.50175 0.5238 0.0
C2291 C 0.91206 0.49645 0.53883 0.0
C2292 C 0.90691 0.4804 0.55454 0.0
C2293 C 0.88443 0.46745 0.55257 0.0
C2294 C 0.89927 0.51865 0.50657 0.0
C2295 C 0.92539 0.47547 0.57176 0.0
C2296 C 0.96364 0.49954 0.50847 0.0
C2297 C 0.97603 0.52173 0.51742 0.0
C2298 C 0.94319 0.49047 0.51648 0.0
C2299 C 0.93561 0.50398 0.53418 0.0
C2300 C 0.94911 0.52584 0.54445 0.0
C2301 C 0.96897 0.53479 0.53536 0.0
C2302 C 0.92905 0.46707 0.50495 0.0
C2303 C 0.94198 0.54031 0.56392 0.0
H2304 H 0.85867 0.49139 0.50942 0.0
H2305 H 0.88059 0.45358 0.56292 0.0
H2306 H 0.91159 0.53465 0.51553 0.0
H2307 H 0.90711 0.51123 0.49205 0.0
H2308 H 0.88351 0.52292 0.49849 0.0
H2309 H 0.91843 0.46247 0.58283 0.0
H2310 H 0.93806 0.46938 0.56202 0.0
H2311 H 0.93457 0.49143 0.58369 0.0
H2312 H 0.96949 0.48969 0.49457 0.0
H2313 H 0.97862 0.55213 0.54193 0.0
H2314 H 0.91268 0.46857 0.49512 0.0
H2315 H 0.92484 0.45603 0.5187 0.0
H2316 H 0.93801 0.45851 0.49229 0.0
H2317 H 0.92929 0.54889 0.55596 0.0
H2318 H 0.9568 0.5537 0.57399 0.0
H2319 H 0.93385 0.52972 0.57654 0.0
C2320 C 0.36411 0.07546 0.27639 0.0
C2321 C 0.35607 0.06052 0.29207 0.0
C2322 C 0.35338 0.0926 0.27121 0.0
C2323 C 0.3341 0.09475 0.28194 0.0
C2324 C 0.32653 0.08049 0.29866 0.0
C2325 C 0.33765 0.0634 0.30353 0.0
C2326 C 0.36213 0.10777 0.25346 0.0
C2327 C 0.30612 0.08249 0.31053 0.0
C2328 C 0.32011 0.14988 0.27129 0.0
C2329 C 0.30629 0.14286 0.24909 0.0
C2330 C 0.32771 0.1339 0.28374 0.0
C2331 C 0.32097 0.1106 0.27362 0.0
C2332 C 0.30508 0.10334 0.25236 0.0
C2333 C 0.29811 0.11971 0.24011 0.0
C2334 C 0.34459 0.14216 0.30642 0.0
C2335 C 0.29712 0.07853 0.2414 0.0
H2336 H 0.3786 0.07354 0.26776 0.0
H2337 H 0.33155 0.05199 0.31584 0.0
H2338 H 0.3491 0.10452 0.23728 0.0
H2339 H 0.36521 0.12601 0.26108 0.0
H2340 H 0.37827 0.10483 0.24804 0.0
H2341 H 0.30577 0.07406 0.32673 0.0
H2342 H 0.306 0.10062 0.31548 0.0
H2343 H 0.29023 0.07415 0.29794 0.0
H2344 H 0.32602 0.16794 0.27818 0.0
H2345 H 0.28697 0.11454 0.22311 0.0
H2346 H 0.3621 0.14267 0.30247 0.0
H2347 H 0.34105 0.13038 0.31967 0.0
H2348 H 0.34426 0.15958 0.31441 0.0
H2349 H 0.31112 0.07333 0.23324 0.0
H2350 H 0.28195 0.0754 0.22737 0.0
H2351 H 0.29278 0.06753 0.25516 0.0
C2352 C 0.33855 0.14767 0.52084 0.0
C2353 C 0.31651 0.134 0.51205 0.0
C2354 C 0.35712 0.13793 0.5254 0.0
C2355 C 0.35353 0.11389 0.52144 0.0
C2356 C 0.33146 0.1 0.51195 0.0
C2357 C 0.31322 0.11024 0.50722 0.0
C2358 C 0.3805 0.15336 0.53507 0.0
C2359 C 0.32693 0.07431 0.50766 0.0
C2360 C 0.40697 0.09149 0.52143 0.0
C2361 C 0.4118 0.08911 0.54541 0.0
C2362 C 0.38757 0.09883 0.51305 0.0
C2363 C 0.37257 0.10343 0.529 0.0
C2364 C 0.3768 0.09974 0.55294 0.0
C2365 C 0.39653 0.09286 0.56091 0.0
C2366 C 0.38385 0.10288 0.48751 0.0
C2367 C 0.36101 0.10397 0.5704 0.0
H2368 H 0.3413 0.16606 0.52435 0.0
H2369 H 0.29625 0.09956 0.50037 0.0
H2370 H 0.38583 0.15064 0.55353 0.0
H2371 H 0.39334 0.14917 0.52428 0.0
H2372 H 0.38082 0.1717 0.53522 0.0
H2373 H 0.30938 0.06607 0.49817 0.0
H2374 H 0.33944 0.06896 0.49712 0.0
H2375 H 0.32909 0.06789 0.52495 0.0
H2376 H 0.41894 0.08866 0.50955 0.0
H2377 H 0.40031 0.09083 0.57942 0.0
H2378 H 0.38701 0.1215 0.48696 0.0
H2379 H 0.3659 0.09498 0.47913 0.0
H2380 H 0.39544 0.09598 0.47678 0.0
H2381 H 0.36187 0.12249 0.5738 0.0
H2382 H 0.36553 0.09819 0.58766 0.0
H2383 H 0.34306 0.09502 0.5629 0.0
C2384 C 0.69715 0.61236 0.28756 0.0
C2385 C 0.67772 0.61483 0.2975 0.0
C2386 C 0.71453 0.63158 0.28581 0.0
C2387 C 0.71231 0.6537 0.29408 0.0
C2388 C 0.69336 0.65614 0.30532 0.0
C2389 C 0.67639 0.63669 0.30697 0.0
C2390 C 0.73472 0.62824 0.27417 0.0
C2391 C 0.6902 0.67938 0.31426 0.0
C2392 C 0.75864 0.70898 0.30354 0.0
C2393 C 0.75449 0.71705 0.28194 0.0
C2394 C 0.74644 0.68731 0.30696 0.0
C2395 C 0.7284 0.67444 0.28911 0.0
C2396 C 0.7244 0.68258 0.26715 0.0
C2397 C 0.73831 0.70329 0.26347 0.0
C2398 C 0.75253 0.67842 0.3298 0.0
C2399 C 0.70483 0.66998 0.24792 0.0
H2400 H 0.69831 0.59552 0.28019 0.0
H2401 H 0.66157 0.63872 0.31493 0.0
H2402 H 0.7325 0.63215 0.25572 0.0
H2403 H 0.75084 0.63998 0.28385 0.0
H2404 H 0.73643 0.6104 0.27337 0.0
H2405 H 0.67492 0.67827 0.32332 0.0
H2406 H 0.70543 0.68938 0.32691 0.0
H2407 H 0.68831 0.68899 0.2991 0.0
H2408 H 0.77134 0.71964 0.31776 0.0
H2409 H 0.73594 0.70912 0.24639 0.0
H2410 H 0.75359 0.66043 0.32594 0.0
H2411 H 0.73902 0.67872 0.3411 0.0
H2412 H 0.76911 0.68877 0.34005 0.0
H2413 H 0.70788 0.65348 0.24059 0.0
H2414 H 0.70261 0.6799 0.23307 0.0
H2415 H 0.68859 0.66616 0.25539 0.0
C2416 C 0.82593 0.4558 0.77337 0.0
C2417 C 0.84947 0.45957 0.77323 0.0
C2418 C 0.81308 0.43421 0.77619 0.0
C2419 C 0.82442 0.41671 0.77977 0.0
C2420 C 0.84832 0.42085 0.78055 0.0
C2421 C 0.86049 0.44217 0.77692 0.0
C2422 C 0.78752 0.42999 0.77515 0.0
C2423 C 0.86109 0.40278 0.7851 0.0
C2424 C 0.80082 0.36368 0.80543 0.0
C2425 C 0.79534 0.34749 0.7849 0.0
C2426 C 0.80877 0.38683 0.80394 0.0
C2427 C 0.81149 0.39351 0.78139 0.0
C2428 C 0.80477 0.3772 0.76054 0.0
C2429 C 0.79624 0.35432 0.76261 0.0
C2430 C 0.81558 0.4038 0.82654 0.0
C2431 C 0.80778 0.38369 0.73623 0.0
H2432 H 0.81767 0.46957 0.77109 0.0
H2433 H 0.87891 0.44547 0.77774 0.0
H2434 H 0.77878 0.41672 0.75981 0.0
H2435 H 0.78232 0.42338 0.79143 0.0
H2436 H 0.78147 0.44568 0.77333 0.0
H2437 H 0.8799 0.40937 0.78657 0.0
H2438 H 0.85733 0.39613 0.8018 0.0
H2439 H 0.85535 0.38819 0.77042 0.0
H2440 H 0.79944 0.35814 0.82266 0.0
H2441 H 0.79022 0.34185 0.74684 0.0
H2442 H 0.8093 0.41927 0.82431 0.0
H2443 H 0.83451 0.40926 0.83079 0.0
H2444 H 0.80886 0.3964 0.84187 0.0
H2445 H 0.80003 0.39812 0.73316 0.0
H2446 H 0.80003 0.36919 0.72173 0.0
H2447 H 0.82629 0.38945 0.73521 0.0
C2448 C 0.05015 0.86793 0.08113 0.0
C2449 C 0.06571 0.85763 0.07039 0.0
C2450 C 0.04631 0.88927 0.07584 0.0
C2451 C 0.05834 0.9013 0.05943 0.0
C2452 C 0.07402 0.89096 0.04853 0.0
C2453 C 0.0774 0.86958 0.054 0.0
C2454 C 0.0292 0.89897 0.08788 0.0
C2455 C 0.08755 0.90268 0.03111 0.0
C2456 C 0.03614 0.94721 0.02775 0.0
C2457 C 0.04815 0.96816 0.04172 0.0
C2458 C 0.03863 0.92571 0.03368 0.0
C2459 C 0.05459 0.92446 0.05356 0.0
C2460 C 0.06741 0.94557 0.06731 0.0
C2461 C 0.06379 0.96683 0.06156 0.0
C2462 C 0.02393 0.90419 0.01857 0.0
C2463 C 0.0853 0.94577 0.08808 0.0
H2464 H 0.04091 0.85931 0.09385 0.0
H2465 H 0.08956 0.86228 0.04545 0.0
H2466 H 0.03777 0.91587 0.09847 0.0
H2467 H 0.01579 0.90165 0.07429 0.0
H2468 H 0.02086 0.88764 0.09984 0.0
H2469 H 0.09925 0.8928 0.02423 0.0
H2470 H 0.07578 0.90521 0.01582 0.0
H2471 H 0.09781 0.91984 0.03978 0.0
H2472 H 0.02464 0.94748 0.01193 0.0
H2473 H 0.07362 0.98255 0.07253 0.0
H2474 H 0.01365 0.89357 0.02982 0.0
H2475 H 0.03483 0.89395 0.01074 0.0
H2476 H 0.01212 0.90778 0.00393 0.0
H2477 H 0.07718 0.93665 0.10171 0.0
H2478 H 0.09459 0.96337 0.09646 0.0
H2479 H 0.09789 0.93658 0.08213 0.0
C2480 C 0.93963 0.27039 0.8811 0.0
C2481 C 0.93538 0.25858 0.90046 0.0
C2482 C 0.92148 0.27362 0.8648 0.0
C2483 C 0.89834 0.26445 0.86745 0.0
C2484 C 0.89405 0.25174 0.8864 0.0
C2485 C 0.91244 0.24923 0.90268 0.0
C2486 C 0.92711 0.28773 0.84534 0.0
C2487 C 0.86988 0.24109 0.88981 0.0
C2488 C 0.84963 0.29051 0.84335 0.0
C2489 C 0.83983 0.27593 0.82199 0.0
C2490 C 0.86896 0.28739 0.85782 0.0
C2491 C 0.87861 0.26885 0.8512 0.0
C2492 C 0.86871 0.2541 0.82952 0.0
C2493 C 0.84975 0.25801 0.8151 0.0
C2494 C 0.87913 0.30405 0.88023 0.0
C2495 C 0.87784 0.23386 0.82174 0.0
H2496 H 0.95717 0.27801 0.87926 0.0
H2497 H 0.9088 0.24006 0.91746 0.0
H2498 H 0.91797 0.27832 0.82781 0.0
H2499 H 0.92121 0.30363 0.8484 0.0
H2500 H 0.94574 0.29242 0.84456 0.0
H2501 H 0.86932 0.23033 0.90424 0.0
H2502 H 0.86099 0.25466 0.89425 0.0
H2503 H 0.8602 0.23042 0.87306 0.0
H2504 H 0.84243 0.3047 0.84854 0.0
H2505 H 0.8423 0.24669 0.79859 0.0
H2506 H 0.89758 0.31141 0.88007 0.0
H2507 H 0.8778 0.29505 0.89597 0.0
H2508 H 0.87047 0.3182 0.88233 0.0
H2509 H 0.89613 0.23964 0.8199 0.0
H2510 H 0.86828 0.22397 0.80453 0.0
H2511 H 0.87677 0.22236 0.83548 0.0
C2512 C 0.57886 0.21317 0.57285 0.0
C2513 C 0.56108 0.22414 0.56829 0.0
C2514 C 0.57512 0.18901 0.56878 0.0
C2515 C 0.55313 0.17486 0.55881 0.0
C2516 C 0.53516 0.1859 0.55369 0.0
C2517 C 0.53918 0.21014 0.55898 0.0
C2518 C 0.59479 0.17859 0.57558 0.0
C2519 C 0.51164 0.17207 0.54222 0.0
C2520 C 0.55068 0.11371 0.5281 0.0
C2521 C 0.54233 0.09954 0.54453 0.0
C2522 C 0.55386 0.13781 0.53227 0.0
C2523 C 0.54909 0.14874 0.55375 0.0
C2524 C 0.54085 0.13451 0.57051 0.0
C2525 C 0.53736 0.11036 0.56564 0.0
C2526 C 0.5621 0.15158 0.51335 0.0
C2527 C 0.53606 0.14486 0.59397 0.0
H2528 H 0.59581 0.2236 0.58028 0.0
H2529 H 0.52523 0.21817 0.55527 0.0
H2530 H 0.58983 0.1657 0.58744 0.0
H2531 H 0.59912 0.16962 0.55946 0.0
H2532 H 0.61033 0.19158 0.58477 0.0
H2533 H 0.49989 0.18302 0.53773 0.0
H2534 H 0.51282 0.1612 0.52572 0.0
H2535 H 0.50411 0.16051 0.55435 0.0
H2536 H 0.55426 0.10588 0.51152 0.0
H2537 H 0.53104 0.09994 0.57866 0.0
H2538 H 0.57918 0.16316 0.5202 0.0
H2539 H 0.55028 0.16239 0.50868 0.0
H2540 H 0.5634 0.1406 0.49694 0.0
H2541 H 0.55191 0.15686 0.60391 0.0
H2542 H 0.52976 0.13173 0.60517 0.0
H2543 H 0.52312 0.15483 0.59095 0.0
C2544 C 0.56909 0.76075 0.39659 0.0
C2545 C 0.55658 0.77707 0.3924 0.0
C2546 C 0.58886 0.76028 0.38615 0.0
C2547 C 0.59653 0.77667 0.37134 0.0
C2548 C 0.58364 0.79278 0.3666 0.0
C2549 C 0.56389 0.79274 0.37708 0.0
C2550 C 0.60184 0.74266 0.39156 0.0
C2551 C 0.59111 0.81059 0.35093 0.0
C2552 C 0.65832 0.79973 0.36392 0.0
C2553 C 0.65804 0.79146 0.33998 0.0
C2554 C 0.63898 0.79338 0.37509 0.0
C2555 C 0.61876 0.77838 0.36199 0.0
C2556 C 0.61922 0.76812 0.33857 0.0
C2557 C 0.63886 0.77489 0.32777 0.0
C2558 C 0.63951 0.80459 0.40013 0.0
C2559 C 0.59833 0.75155 0.32416 0.0
H2560 H 0.56361 0.74847 0.40829 0.0
H2561 H 0.5544 0.80536 0.37358 0.0
H2562 H 0.60714 0.73516 0.37522 0.0
H2563 H 0.61761 0.75092 0.40436 0.0
H2564 H 0.59156 0.72868 0.39948 0.0
H2565 H 0.57888 0.82145 0.34836 0.0
H2566 H 0.60813 0.82175 0.35894 0.0
H2567 H 0.59285 0.80223 0.33323 0.0
H2568 H 0.67311 0.81267 0.37334 0.0
H2569 H 0.63849 0.76863 0.30919 0.0
H2570 H 0.63185 0.79183 0.41106 0.0
H2571 H 0.62921 0.81745 0.3997 0.0
H2572 H 0.65719 0.81331 0.40893 0.0
H2573 H 0.58999 0.73921 0.33518 0.0
H2574 H 0.6026 0.74195 0.30836 0.0
H2575 H 0.58576 0.76106 0.31793 0.0
C2576 C 0.0454 0.23781 0.3874 0.0
C2577 C 0.05444 0.25863 0.40238 0.0
C2578 C 0.04273 0.21701 0.39659 0.0
C2579 C 0.04955 0.21714 0.42123 0.0
C2580 C 0.06077 0.23808 0.43583 0.0
C2581 C 0.06279 0.25858 0.42629 0.0
C2582 C 0.03064 0.19512 0.38037 0.0
C2583 C 0.06876 0.23911 0.46203 0.0
C2584 C 0.01205 0.17197 0.44964 0.0
C2585 C 0.02513 0.15591 0.45176 0.0
C2586 C 0.02007 0.19208 0.44021 0.0
C2587 C 0.04167 0.1962 0.43235 0.0
C2588 C 0.05527 0.18033 0.43504 0.0
C2589 C 0.04687 0.16038 0.44485 0.0
C2590 C 0.00519 0.20873 0.43827 0.0
C2591 C 0.07834 0.18409 0.42692 0.0
H2592 H 0.03853 0.23787 0.36902 0.0
H2593 H 0.06959 0.27473 0.43793 0.0
H2594 H 0.0397 0.18154 0.38321 0.0
H2595 H 0.01311 0.18915 0.38458 0.0
H2596 H 0.02932 0.19739 0.36133 0.0
H2597 H 0.08054 0.25586 0.46987 0.0
H2598 H 0.05374 0.23642 0.47154 0.0
H2599 H 0.07758 0.22541 0.46515 0.0
H2600 H 0.99533 0.16864 0.45519 0.0
H2601 H 0.05694 0.1479 0.44634 0.0
H2602 H 1.00081 0.21065 0.41935 0.0
H2603 H 0.0146 0.22579 0.44796 0.0
H2604 H 0.98905 0.20319 0.44561 0.0
H2605 H 0.07605 0.18255 0.40723 0.0
H2606 H 0.08783 0.17153 0.43251 0.0
H2607 H 0.08887 0.20156 0.43407 0.0
C2608 C 0.60633 0.26461 0.21256 0.0
C2609 C 0.59233 0.25989 0.23015 0.0
C2610 C 0.63047 0.26778 0.21732 0.0
C2611 C 0.64146 0.26691 0.2405 0.0
C2612 C 0.62748 0.26293 0.25851 0.0
C2613 C 0.60333 0.25914 0.25309 0.0
C2614 C 0.64417 0.27136 0.19724 0.0
C2615 C 0.63807 0.26254 0.28365 0.0
C2616 C 0.70101 0.25333 0.24958 0.0
C2617 C 0.71624 0.27504 0.25582 0.0
C2618 C 0.67696 0.25047 0.24441 0.0
C2619 C 0.66736 0.26975 0.24578 0.0
C2620 C 0.6827 0.29174 0.25224 0.0
C2621 C 0.70668 0.29409 0.25686 0.0
C2622 C 0.66177 0.22667 0.23721 0.0
C2623 C 0.6738 0.31294 0.25455 0.0
H2624 H 0.5983 0.26494 0.19468 0.0
H2625 H 0.59298 0.25551 0.26694 0.0
H2626 H 0.65742 0.28774 0.2017 0.0
H2627 H 0.6532 0.25756 0.19466 0.0
H2628 H 0.63331 0.27151 0.18022 0.0
H2629 H 0.62523 0.26056 0.29598 0.0
H2630 H 0.64653 0.24825 0.28409 0.0
H2631 H 0.65145 0.27858 0.29026 0.0
H2632 H 0.70794 0.23849 0.24821 0.0
H2633 H 0.71799 0.31103 0.26173 0.0
H2634 H 0.65088 0.22554 0.21987 0.0
H2635 H 0.65018 0.22269 0.25049 0.0
H2636 H 0.67172 0.21352 0.23569 0.0
H2637 H 0.6648 0.31471 0.23709 0.0
H2638 H 0.6877 0.32867 0.26091 0.0
H2639 H 0.66122 0.31153 0.26713 0.0
C2640 C 0.57579 0.89461 0.9182 0.0
C2641 C 0.55766 0.88279 0.90033 0.0
C2642 C 0.57517 0.91546 0.93164 0.0
C2643 C 0.55569 0.9245 0.9276 0.0
C2644 C 0.53785 0.9131 0.90882 0.0
C2645 C 0.53908 0.89254 0.89551 0.0
C2646 C 0.59464 0.92693 0.95135 0.0
C2647 C 0.51662 0.92172 0.90381 0.0
C2648 C 0.53754 0.95923 0.97876 0.0
C2649 C 0.54542 0.9819 0.97486 0.0
C2650 C 0.54158 0.94069 0.96422 0.0
C2651 C 0.55289 0.94449 0.94426 0.0
C2652 C 0.56056 0.96727 0.93987 0.0
C2653 C 0.55718 0.98562 0.9554 0.0
C2654 C 0.53341 0.91691 0.97012 0.0
C2655 C 0.5721 0.97227 0.91855 0.0
H2656 H 0.58978 0.88682 0.92273 0.0
H2657 H 0.52458 0.88309 0.8824 0.0
H2658 H 0.60007 0.94549 0.95055 0.0
H2659 H 0.58885 0.92498 0.96879 0.0
H2660 H 0.60964 0.91952 0.95047 0.0
H2661 H 0.50544 0.91243 0.88714 0.0
H2662 H 0.50666 0.91955 0.91874 0.0
H2663 H 0.52129 0.94021 0.90247 0.0
H2664 H 0.52778 0.95577 0.99302 0.0
H2665 H 0.56354 0.00293 0.95201 0.0
H2666 H 0.54755 0.90816 0.97089 0.0
H2667 H 0.51953 0.90673 0.95597 0.0
H2668 H 0.52688 0.91698 0.98741 0.0
H2669 H 0.58789 0.96601 0.9195 0.0
H2670 H 0.57664 0.99079 0.91728 0.0
H2671 H 0.56066 0.96307 0.90202 0.0
C2672 C 0.95699 0.76448 0.75049 0.0
C2673 C 0.95909 0.75453 0.72768 0.0
C2674 C 0.93574 0.76789 0.75628 0.0
C2675 C 0.91536 0.76036 0.73929 0.0
C2676 C 0.91742 0.75009 0.71627 0.0
C2677 C 0.93906 0.74768 0.7107 0.0
C2678 C 0.93511 0.77958 0.78077 0.0
C2679 C 0.89656 0.74123 0.69749 0.0
C2680 C 0.85585 0.74805 0.76079 0.0
C2681 C 0.84802 0.76769 0.75738 0.0
C2682 C 0.87753 0.74563 0.75538 0.0
C2683 C 0.89206 0.76296 0.74562 0.0
C2684 C 0.88409 0.78273 0.74191 0.0
C2685 C 0.86258 0.78493 0.74799 0.0
C2686 C 0.88492 0.72437 0.76022 0.0
C2687 C 0.8983 0.80169 0.73133 0.0
H2688 H 0.97215 0.76988 0.76387 0.0
H2689 H 0.94016 0.7397 0.69311 0.0
H2690 H 0.92777 0.79456 0.77938 0.0
H2691 H 0.92385 0.76773 0.79016 0.0
H2692 H 0.95236 0.78544 0.79167 0.0
H2693 H 0.90068 0.7334 0.6806 0.0
H2694 H 0.8837 0.72825 0.70404 0.0
H2695 H 0.88854 0.75534 0.69377 0.0
H2696 H 0.84509 0.73454 0.76805 0.0
H2697 H 0.85695 0.80014 0.7449 0.0
H2698 H 0.90135 0.72906 0.77259 0.0
H2699 H 0.88785 0.71522 0.74344 0.0
H2700 H 0.87205 0.71256 0.76809 0.0
H2701 H 0.91504 0.8088 0.74293 0.0
H2702 H 0.88974 0.81575 0.72904 0.0
H2703 H 0.90182 0.79487 0.71374 0.0
C2704 C 0.08276 0.02298 0.8525 0.0
C2705 C 0.10104 0.04136 0.85119 0.0
C2706 C 0.07611 0.01865 0.87459 0.0
C2707 C 0.08808 0.03304 0.89578 0.0
C2708 C 0.10723 0.05098 0.89447 0.0
C2709 C 0.11338 0.05498 0.87218 0.0
C2710 C 0.05554 0.99944 0.87513 0.0
C2711 C 0.12046 0.06676 0.91651 0.0
C2712 C 0.05462 0.04268 0.94622 0.0
C2713 C 0.06222 0.02968 0.96278 0.0
C2714 C 0.06285 0.04377 0.92447 0.0
C2715 C 0.07894 0.03129 0.91879 0.0
C2716 C 0.08665 0.01801 0.93537 0.0
C2717 C 0.07834 0.01753 0.95731 0.0
C2718 C 0.05449 0.05856 0.90768 0.0
C2719 C 0.1036 0.0043 0.92989 0.0
H2720 H 0.07316 0.01256 0.83619 0.0
H2721 H 0.12749 0.06923 0.87107 0.0
H2722 H 0.05946 0.98891 0.88892 0.0
H2723 H 0.04121 0.00662 0.87991 0.0
H2724 H 0.04976 0.98824 0.85769 0.0
H2725 H 0.13619 0.07841 0.9128 0.0
H2726 H 0.10951 0.07725 0.92387 0.0
H2727 H 0.12537 0.05678 0.93044 0.0
H2728 H 0.04237 0.05238 0.95043 0.0
H2729 H 0.08421 0.00743 0.97002 0.0
H2730 H 0.04634 0.04807 0.89031 0.0
H2731 H 0.06916 0.07182 0.90431 0.0
H2732 H 0.04194 0.06718 0.91477 0.0
H2733 H 0.09653 0.99189 0.91344 0.0
H2734 H 0.10788 0.99483 0.94458 0.0
H2735 H 0.11959 0.01573 0.92655 0.0
C2736 C 0.77725 0.36303 0.54795 0.0
C2737 C 0.79696 0.37663 0.54207 0.0
C2738 C 0.77815 0.35478 0.56981 0.0
C2739 C 0.7991 0.36083 0.58565 0.0
C2740 C 0.81866 0.37559 0.57994 0.0
C2741 C 0.81739 0.38297 0.55795 0.0
C2742 C 0.75698 0.33957 0.57589 0.0
C2743 C 0.84105 0.38336 0.59685 0.0
C2744 C 0.812 0.35532 0.64969 0.0
C2745 C 0.82321 0.33763 0.64771 0.0
C2746 C 0.80127 0.36157 0.6294 0.0
C2747 C 0.80206 0.34985 0.60688 0.0
C2748 C 0.81153 0.33068 0.60501 0.0
C2749 C 0.82216 0.32486 0.62555 0.0
C2750 C 0.79126 0.38207 0.63214 0.0
C2751 C 0.81263 0.31786 0.58116 0.0
H2752 H 0.76137 0.35896 0.53561 0.0
H2753 H 0.83231 0.39423 0.55329 0.0
H2754 H 0.75929 0.32202 0.57591 0.0
H2755 H 0.75414 0.3457 0.59401 0.0
H2756 H 0.7415 0.33884 0.56301 0.0
H2757 H 0.85417 0.39572 0.58984 0.0
H2758 H 0.83827 0.39163 0.61416 0.0
H2759 H 0.84792 0.36846 0.60023 0.0
H2760 H 0.81261 0.36503 0.66697 0.0
H2761 H 0.83029 0.31076 0.62424 0.0
H2762 H 0.77802 0.38176 0.61686 0.0
H2763 H 0.80511 0.39783 0.63342 0.0
H2764 H 0.78362 0.38307 0.64876 0.0
H2765 H 0.79605 0.31448 0.56921 0.0
H2766 H 0.81712 0.30137 0.58287 0.0
H2767 H 0.82584 0.32843 0.57257 0.0
C2768 C 0.44895 0.04207 0.36667 0.0
C2769 C 0.42771 0.02657 0.35997 0.0
C2770 C 0.4593 0.04651 0.39021 0.0
C2771 C 0.44773 0.03514 0.40701 0.0
C2772 C 0.42483 0.02211 0.40083 0.0
C2773 C 0.41491 0.01783 0.37693 0.0
C2774 C 0.4839 0.06023 0.39614 0.0
C2775 C 0.41214 0.01016 0.4187 0.0
C2776 C 0.4886 0.01354 0.44695 0.0
C2777 C 0.49283 0.02995 0.4671 0.0
C2778 C 0.47277 0.01435 0.42759 0.0
C2779 C 0.46145 0.03228 0.4286 0.0
C2780 C 0.46545 0.04871 0.44905 0.0
C2781 C 0.48116 0.0473 0.46826 0.0
C2782 C 0.46867 0.99642 0.40587 0.0
C2783 C 0.45369 0.06804 0.45033 0.0
H2784 H 0.45843 0.04886 0.35312 0.0
H2785 H 0.39835 0.00587 0.37132 0.0
H2786 H 0.48708 0.07124 0.41362 0.0
H2787 H 0.49529 0.04837 0.39715 0.0
H2788 H 0.48872 0.07113 0.38238 0.0
H2789 H 0.3934 0.00492 0.41249 0.0
H2790 H 0.41812 0.99461 0.42147 0.0
H2791 H 0.41556 0.0213 0.43616 0.0
H2792 H 0.49744 0.99995 0.4465 0.0
H2793 H 0.48454 0.05998 0.48403 0.0
H2794 H 0.47403 0.00458 0.39044 0.0
H2795 H 0.45019 0.98789 0.40123 0.0
H2796 H 0.47821 0.98316 0.40859 0.0
H2797 H 0.45891 0.07919 0.43692 0.0
H2798 H 0.45785 0.07866 0.46816 0.0
H2799 H 0.43489 0.06119 0.44604 0.0
C2800 C 0.79489 0.73062 0.09502 0.0
C2801 C 0.774 0.7292 0.0807 0.0
C2802 C 0.79802 0.7377 0.11982 0.0
C2803 C 0.77959 0.74268 0.13063 0.0
C2804 C 0.75847 0.74108 0.11623 0.0
C2805 C 0.75607 0.73474 0.09153 0.0
C2806 C 0.821 0.73979 0.13446 0.0
C2807 C 0.73813 0.74548 0.12701 0.0
C2808 C 0.77828 0.73849 0.1964 0.0
C2809 C 0.78272 0.7615 0.20632 0.0
C2810 C 0.77741 0.73212 0.17185 0.0
C2811 C 0.78199 0.74921 0.15699 0.0
C2812 C 0.78721 0.77253 0.16716 0.0
C2813 C 0.787 0.77838 0.19161 0.0
C2814 C 0.77088 0.70708 0.16172 0.0
C2815 C 0.793 0.7913 0.15221 0.0
H2816 H 0.80879 0.72632 0.08684 0.0
H2817 H 0.73973 0.73334 0.08073 0.0
H2818 H 0.82706 0.75688 0.14548 0.0
H2819 H 0.81944 0.72696 0.14683 0.0
H2820 H 0.83411 0.73722 0.12323 0.0
H2821 H 0.72268 0.7428 0.11346 0.0
H2822 H 0.73405 0.73398 0.14042 0.0
H2823 H 0.7422 0.76325 0.13637 0.0
H2824 H 0.77484 0.72544 0.20778 0.0
H2825 H 0.79069 0.7962 0.19934 0.0
H2826 H 0.78457 0.70268 0.15239 0.0
H2827 H 0.75511 0.70326 0.14841 0.0
H2828 H 0.76782 0.69593 0.17566 0.0
H2829 H 0.80674 0.78856 0.14197 0.0
H2830 H 0.79869 0.80848 0.16314 0.0
H2831 H 0.77782 0.79097 0.13915 0.0
C2832 C 0.09182 0.02617 0.70388 0.0
C2833 C 0.08889 0.04507 0.71862 0.0
C2834 C 0.08497 0.02305 0.67904 0.0
C2835 C 0.07538 0.03942 0.66856 0.0
C2836 C 0.0721 0.05831 0.68336 0.0
C2837 C 0.07866 0.06077 0.70812 0.0
C2838 C 0.08835 1.00243 0.66393 0.0
C2839 C 0.0623 0.07637 0.67296 0.0
C2840 C 0.07944 0.04504 0.60342 0.0
C2841 C 0.05691 0.03504 0.5925 0.0
C2842 C 0.08569 0.04662 0.62815 0.0
C2843 C 0.06919 0.03718 0.64212 0.0
C2844 C 0.04651 0.02651 0.6309 0.0
C2845 C 0.04054 0.026 0.60629 0.0
C2846 C 0.10981 0.05888 0.6394 0.0
C2847 C 0.02854 0.01564 0.64489 0.0
H2848 H 0.09972 0.01394 0.71172 0.0
H2849 H 0.07646 0.07554 0.7192 0.0
H2850 H 0.0721 0.99322 0.65231 0.0
H2851 H 0.10109 0.00795 0.65214 0.0
H2852 H 0.09438 0.99039 0.67484 0.0
H2853 H 0.06078 0.09002 0.68685 0.0
H2854 H 0.07335 0.0843 0.6606 0.0
H2855 H 0.04512 0.06854 0.66247 0.0
H2856 H 0.09199 0.05224 0.59268 0.0
H2857 H 0.02311 0.01822 0.59771 0.0
H2858 H 0.11801 0.04721 0.64884 0.0
H2859 H 0.10952 0.07345 0.65282 0.0
H2860 H 0.1205 0.06547 0.62611 0.0
H2861 H 0.03469 0.00301 0.65478 0.0
H2862 H 0.01209 0.0069 0.63332 0.0
H2863 H 0.02538 0.02882 0.65821 0.0
C2864 C 0.82081 0.39143 0.42361 0.0
C2865 C 0.80394 0.39967 0.43375 0.0
C2866 C 0.81483 0.37288 0.40557 0.0
C2867 C 0.79144 0.36303 0.39695 0.0
C2868 C 0.77425 0.37128 0.4068 0.0
C2869 C 0.78072 0.38984 0.42501 0.0
C2870 C 0.83355 0.36385 0.39578 0.0
C2871 C 0.74917 0.36023 0.39837 0.0
C2872 C 0.78259 0.33931 0.33282 0.0
C2873 C 0.78491 0.31719 0.33412 0.0
C2874 C 0.78392 0.35439 0.35333 0.0
C2875 C 0.78543 0.34632 0.37544 0.0
C2876 C 0.78499 0.32325 0.37676 0.0
C2877 C 0.78586 0.30921 0.35611 0.0
C2878 C 0.78557 0.37928 0.35143 0.0
C2879 C 0.78501 0.31363 0.39993 0.0
H2880 H 0.83875 0.39875 0.43054 0.0
H2881 H 0.76761 0.39594 0.43309 0.0
H2882 H 0.831 0.34545 0.39722 0.0
H2883 H 0.83293 0.36558 0.37665 0.0
H2884 H 0.85086 0.37295 0.40533 0.0
H2885 H 0.73809 0.36648 0.41026 0.0
H2886 H 0.74418 0.36392 0.38022 0.0
H2887 H 0.74585 0.3414 0.39731 0.0
H2888 H 0.781 0.34534 0.31591 0.0
H2889 H 0.78753 0.29224 0.3575 0.0
H2890 H 0.80244 0.38977 0.36081 0.0
H2891 H 0.77223 0.38517 0.36013 0.0
H2892 H 0.78373 0.38254 0.33269 0.0
H2893 H 0.80288 0.31519 0.40817 0.0
H2894 H 0.77603 0.29521 0.39686 0.0
H2895 H 0.77668 0.3228 0.41271 0.0
C2896 C 0.41831 0.00347 0.22208 0.0
C2897 C 0.43007 0.02219 0.23902 0.0
C2898 C 0.41897 0.00451 0.19812 0.0
C2899 C 0.43181 0.02478 0.1917 0.0
C2900 C 0.43777 0.0452 0.20805 0.0
C2901 C 0.43741 0.04365 0.23219 0.0
C2902 C 0.41035 0.98263 0.1808 0.0
C2903 C 0.44831 0.06773 0.20071 0.0
C2904 C 0.47855 0.00522 0.16611 0.0
C2905 C 0.46878 0.9993 0.14226 0.0
C2906 C 0.46791 0.01629 0.1823 0.0
C2907 C 0.44694 0.02162 0.17417 0.0
C2908 C 0.43835 0.01788 0.14966 0.0
C2909 C 0.44919 0.00636 0.13395 0.0
C2910 C 0.47831 0.02033 0.20831 0.0
C2911 C 0.41705 0.02462 0.13991 0.0
H2912 H 0.41083 0.98731 0.22767 0.0
H2913 H 0.44494 0.0585 0.24553 0.0
H2914 H 0.40142 0.98585 0.16397 0.0
H2915 H 0.42502 0.97568 0.17667 0.0
H2916 H 0.39837 0.96942 0.18811 0.0
H2917 H 0.44373 0.08188 0.21153 0.0
H2918 H 0.46722 0.07081 0.20379 0.0
H2919 H 0.44262 0.06788 0.18156 0.0
H2920 H 0.49429 1.00069 0.17223 0.0
H2921 H 0.44183 1.00223 0.11529 0.0
H2922 H 0.46705 0.00915 0.21828 0.0
H2923 H 0.48032 0.03832 0.21613 0.0
H2924 H 0.49541 0.01661 0.21104 0.0
H2925 H 0.40305 0.00905 0.13341 0.0
H2926 H 0.42022 0.03354 0.12433 0.0
H2927 H 0.41132 0.03591 0.15323 0.0
C2928 C 0.76271 0.72852 0.93251 0.0
C2929 C 0.77696 0.71906 0.94744 0.0
C2930 C 0.76726 0.73247 0.90972 0.0
C2931 C 0.78673 0.72712 0.90155 0.0
C2932 C 0.8013 0.7177 0.91652 0.0
C2933 C 0.79617 0.71365 0.93923 0.0
C2934 C 0.75123 0.74252 0.89438 0.0
C2935 C 0.82237 0.71205 0.90858 0.0
C2936 C 0.78434 0.7239 0.83437 0.0
C2937 C 0.79548 0.74641 0.83244 0.0
C2938 C 0.78254 0.71681 0.8568 0.0
C2939 C 0.79218 0.73256 0.87779 0.0
C2940 C 0.80526 0.75452 0.87587 0.0
C2941 C 0.80716 0.76086 0.85328 0.0
C2942 C 0.76903 0.69296 0.85799 0.0
C2943 C 0.81596 0.77195 0.89764 0.0
H2944 H 0.74768 0.73256 0.9385 0.0
H2945 H 0.80726 0.7063 0.95058 0.0
H2946 H 0.76061 0.75923 0.89036 0.0
H2947 H 0.74461 0.73115 0.87717 0.0
H2948 H 0.73646 0.74509 0.90305 0.0
H2949 H 0.83141 0.7039 0.92183 0.0
H2950 H 0.81766 0.70042 0.89138 0.0
H2951 H 0.83437 0.72785 0.90562 0.0
H2952 H 0.77601 0.71207 0.81847 0.0
H2953 H 0.81732 0.77747 0.85209 0.0
H2954 H 0.7524 0.6937 0.86371 0.0
H2955 H 0.77825 0.68506 0.87131 0.0
H2956 H 0.76561 0.68183 0.8405 0.0
H2957 H 0.80227 0.77709 0.90645 0.0
H2958 H 0.82728 0.78752 0.89321 0.0
H2959 H 0.82603 0.76454 0.91068 0.0
C2960 C 0.81637 0.06868 0.02918 0.0
C2961 C 0.8158 0.0847 0.04843 0.0
C2962 C 0.83714 0.06439 0.0247 0.0
C2963 C 0.85747 0.07604 0.04029 0.0
C2964 C 0.85659 0.09042 0.06111 0.0
C2965 C 0.83565 0.09484 0.06481 0.0
C2966 C 0.83752 0.0489 0.00223 0.0
C2967 C 0.87783 0.10239 0.07855 0.0
C2968 C 0.90492 0.05069 0.02451 0.0
C2969 C 0.91369 0.06478 0.00825 0.0
C2970 C 0.88832 0.05579 0.0375 0.0
C2971 C 0.87957 0.07469 0.0332 0.0
C2972 C 0.88956 0.09001 0.01841 0.0
C2973 C 0.90687 0.08504 0.0064 0.0
C2974 C 0.8787 0.03979 0.05411 0.0
C2975 C 0.88056 0.11043 0.01347 0.0
H2976 H 0.80096 0.06096 0.01654 0.0
H2977 H 0.83501 0.1071 0.07987 0.0
H2978 H 0.84726 0.05893 0.99016 0.0
H2979 H 0.84628 0.03543 0.00646 0.0
H2980 H 0.82007 0.04053 0.99257 0.0
H2981 H 0.87358 0.10842 0.09609 0.0
H2982 H 0.88949 0.09098 0.08116 0.0
H2983 H 0.88723 0.11745 0.07151 0.0
H2984 H 0.90982 0.03485 0.02613 0.0
H2985 H 0.91418 0.09641 0.99458 0.0
H2986 H 0.8622 0.02826 0.04511 0.0
H2987 H 0.87531 0.04944 0.07036 0.0
H2988 H 0.89048 0.02912 0.05946 0.0
H2989 H 0.86332 0.1045 0.00257 0.0
H2990 H 0.89184 0.12193 0.00371 0.0
H2991 H 0.87879 0.12038 0.03028 0.0
C2992 C 0.37466 0.44072 0.05481 0.0
C2993 C 0.36754 0.42178 0.03688 0.0
C2994 C 0.39504 0.45739 0.05484 0.0
C2995 C 0.40809 0.45523 0.0362 0.0
C2996 C 0.40024 0.43666 0.01749 0.0
C2997 C 0.38024 0.42004 0.01824 0.0
C2998 C 0.40309 0.47679 0.07525 0.0
C2999 C 0.41342 0.43385 -0.00292 0.0
C3000 C 0.45388 0.50409 0.02266 0.0
C3001 C 0.47397 0.49904 0.03285 0.0
C3002 C 0.43225 0.49076 0.02479 0.0
C3003 C 0.43066 0.47148 0.03675 0.0
C3004 C 0.45086 0.46649 0.04741 0.0
C3005 C 0.47222 0.48047 0.04559 0.0
C3006 C 0.41112 0.49676 0.01338 0.0
C3007 C 0.44996 0.4458 0.05988 0.0
H3008 H 0.36492 0.4419 0.06933 0.0
H3009 H 0.3746 0.4054 0.00431 0.0
H3010 H 0.41928 0.47534 0.08548 0.0
H3011 H 0.40674 0.49338 0.06843 0.0
H3012 H 0.39032 0.47688 0.08755 0.0
H3013 H 0.4042 0.41925 0.98321 0.0
H3014 H 0.41667 0.4496 0.9887 0.0
H3015 H 0.4303 0.43104 0.00382 0.0
H3016 H 0.45495 0.51804 0.01235 0.0
H3017 H 0.48761 0.47634 0.05352 0.0
H3018 H 0.39878 0.49691 0.0261 0.0
H3019 H 0.40255 0.48362 -0.00212 0.0
H3020 H 0.41516 0.51367 0.00719 0.0
H3021 H 0.43872 0.44586 0.07372 0.0
H3022 H 0.46715 0.44501 0.06835 0.0
H3023 H 0.44254 0.43005 0.04688 0.0
C3024 C 0.3815 0.56859 0.79158 0.0
C3025 C 0.39442 0.56482 0.77357 0.0
C3026 C 0.37168 0.58728 0.79323 0.0
C3027 C 0.37487 0.60269 0.77648 0.0
C3028 C 0.38748 0.59878 0.7579 0.0
C3029 C 0.39713 0.57987 0.75667 0.0
C3030 C 0.35819 0.59076 0.81322 0.0
C3031 C 0.39142 0.61491 0.73983 0.0
C3032 C 0.33226 0.63921 0.776 0.0
C3033 C 0.34403 0.65766 0.79331 0.0
C3034 C 0.34268 0.62175 0.76894 0.0
C3035 C 0.36546 0.62314 0.77923 0.0
C3036 C 0.37801 0.64286 0.7951 0.0
C3037 C 0.367 0.65978 0.80223 0.0
C3038 C 0.32877 0.60106 0.75192 0.0
C3039 C 0.40256 0.64537 0.8058 0.0
H3040 H 0.37927 0.55706 0.80467 0.0
H3041 H 0.40716 0.57713 0.74272 0.0
H3042 H 0.36675 0.60703 0.82503 0.0
H3043 H 0.34083 0.59202 0.80593 0.0
H3044 H 0.35647 0.57669 0.82415 0.0
H3045 H 0.39832 0.60759 0.72448 0.0
H3046 H 0.37534 0.61935 0.7331 0.0
H3047 H 0.40385 0.63102 0.7484 0.0
H3048 H 0.31448 0.63777 0.76908 0.0
H3049 H 0.37608 0.67432 0.81539 0.0
H3050 H 0.32453 0.58637 0.7618 0.0
H3051 H 0.33873 0.59628 0.73804 0.0
H3052 H 0.31256 0.60394 0.74313 0.0
H3053 H 0.40323 0.6335 0.81905 0.0
H3054 H 0.41082 0.66303 0.81484 0.0
H3055 H 0.4126 0.64084 0.79189 0.0
C3056 C 0.19891 0.58884 0.51782 0.0
C3057 C 0.20827 0.57947 0.5367 0.0
C3058 C 0.17558 0.58187 0.50933 0.0
C3059 C 0.16204 0.56427 0.51916 0.0
C3060 C 0.17228 0.55214 0.53525 0.0
C3061 C 0.19545 0.56044 0.5445 0.0
C3062 C 0.16509 0.59592 0.49315 0.0
C3063 C 0.15822 0.53271 0.54536 0.0
C3064 C 0.10657 0.5719 0.53644 0.0
C3065 C 0.09114 0.55547 0.51963 0.0
C3066 C 0.12991 0.57563 0.53584 0.0
C3067 C 0.13752 0.56265 0.51774 0.0
C3068 C 0.12174 0.54717 0.49973 0.0
C3069 C 0.09848 0.54352 0.50108 0.0
C3070 C 0.14634 0.59217 0.55558 0.0
C3071 C 0.12946 0.53339 0.48014 0.0
H3072 H 0.20907 0.60389 0.51223 0.0
H3073 H 0.20292 0.55349 0.55926 0.0
H3074 H 0.15071 0.58504 0.47998 0.0
H3075 H 0.15813 0.60826 0.50402 0.0
H3076 H 0.17791 0.60578 0.48357 0.0
H3077 H 0.16904 0.52216 0.55319 0.0
H3078 H 0.14978 0.5397 0.5596 0.0
H3079 H 0.14464 0.52162 0.53147 0.0
H3080 H 0.10046 0.58055 0.55102 0.0
H3081 H 0.08617 0.5306 0.48837 0.0
H3082 H 0.15938 0.60414 0.54814 0.0
H3083 H 0.15545 0.58261 0.56715 0.0
H3084 H 0.13746 0.60227 0.56688 0.0
H3085 H 0.14191 0.54472 0.47141 0.0
H3086 H 0.11491 0.5236 0.46642 0.0
H3087 H 0.13829 0.52121 0.48782 0.0
C3088 C 0.75286 1.00128 0.7474 0.0
C3089 C 0.73 0.99932 0.73842 0.0
C3090 C 0.75971 0.98238 0.75451 0.0
C3091 C 0.74326 0.96125 0.75204 0.0
C3092 C 0.72072 0.95868 0.74059 0.0
C3093 C 0.71427 0.97795 0.73408 0.0
C3094 C 0.78395 0.98557 0.76671 0.0
C3095 C 0.70286 0.93629 0.73718 0.0
C3096 C 0.76994 0.91376 0.76623 0.0
C3097 C 0.76937 0.91522 0.79073 0.0
C3098 C 0.75987 0.92756 0.75277 0.0
C3099 C 0.74916 0.94302 0.76427 0.0
C3100 C 0.74698 0.94323 0.78863 0.0
C3101 C 0.75736 0.92936 0.8017 0.0
C3102 C 0.7619 0.92661 0.72669 0.0
C3103 C 0.73481 0.95897 0.80117 0.0
H3104 H 0.76488 0.01791 0.75084 0.0
H3105 H 0.69656 0.97659 0.72691 0.0
H3106 H 0.7839 0.98424 0.78587 0.0
H3107 H 0.7915 0.97196 0.75905 0.0
H3108 H 0.79507 1.00243 0.76518 0.0
H3109 H 0.68888 0.93549 0.72243 0.0
H3110 H 0.71037 0.92153 0.73345 0.0
H3111 H 0.69522 0.93458 0.75371 0.0
H3112 H 0.77902 0.90245 0.75781 0.0
H3113 H 0.7564 0.92977 0.82052 0.0
H3114 H 0.77483 0.94192 0.7241 0.0
H3115 H 0.74542 0.92679 0.71607 0.0
H3116 H 0.76722 0.91117 0.71968 0.0
H3117 H 0.74488 0.9769 0.80267 0.0
H3118 H 0.73242 0.9551 0.81932 0.0
H3119 H 0.71779 0.95764 0.79079 0.0
C3120 C 0.73562 0.92076 0.54371 0.0
C3121 C 0.75264 0.92852 0.52994 0.0
C3122 C 0.71617 0.92962 0.54351 0.0
C3123 C 0.71341 0.94627 0.52879 0.0
C3124 C 0.73088 0.95465 0.51546 0.0
C3125 C 0.7503 0.94581 0.51634 0.0
C3126 C 0.69826 0.92057 0.55841 0.0
C3127 C 0.72864 0.97233 0.49942 0.0
C3128 C 0.65619 0.951 0.4988 0.0
C3129 C 0.6553 0.9726 0.5095 0.0
C3130 C 0.67412 0.94129 0.50628 0.0
C3131 C 0.69148 0.95339 0.52514 0.0
C3132 C 0.68922 0.974 0.53779 0.0
C3133 C 0.67115 0.9835 0.5297 0.0
C3134 C 0.67565 0.91923 0.49233 0.0
C3135 C 0.7069 0.98695 0.55857 0.0
H3136 H 0.73738 0.90758 0.55452 0.0
H3137 H 0.76336 0.952 0.50574 0.0
H3138 H 0.69157 0.93454 0.56678 0.0
H3139 H 0.68366 0.90812 0.54688 0.0
H3140 H 0.70509 0.91181 0.57258 0.0
H3141 H 0.74412 0.97772 0.49098 0.0
H3142 H 0.71371 0.96532 0.48518 0.0
H3143 H 0.72557 0.98764 0.50968 0.0
H3144 H 0.64382 0.94256 0.48324 0.0
H3145 H 0.67049 1.00023 0.53797 0.0
H3146 H 0.67938 0.90719 0.50449 0.0
H3147 H 0.6899 0.92276 0.48181 0.0
H3148 H 0.65963 0.9108 0.47991 0.0
H3149 H 0.71177 0.97513 0.57048 0.0
H3150 H 0.70065 1.00013 0.56906 0.0
H3151 H 0.72256 0.99557 0.55195 0.0
C3152 C 0.40361 0.42626 0.75705 0.0
C3153 C 0.39846 0.44743 0.75548 0.0
C3154 C 0.38672 0.40693 0.75917 0.0
C3155 C 0.36393 0.40861 0.75944 0.0
C3156 C 0.35838 0.42972 0.75725 0.0
C3157 C 0.37575 0.44895 0.75539 0.0
C3158 C 0.3934 0.38476 0.76159 0.0
C3159 C 0.33419 0.43201 0.75724 0.0
C3160 C 0.32236 0.35039 0.7456 0.0
C3161 C 0.31927 0.34562 0.76843 0.0
C3162 C 0.33529 0.37173 0.74225 0.0
C3163 C 0.34622 0.38814 0.76234 0.0
C3164 C 0.34241 0.38356 0.78543 0.0
C3165 C 0.32852 0.36243 0.78814 0.0
C3166 C 0.33822 0.37621 0.71731 0.0
C3167 C 0.35435 0.40019 0.80738 0.0
H3168 H 0.42105 0.42481 0.75712 0.0
H3169 H 0.37159 0.46521 0.75425 0.0
H3170 H 0.38894 0.37881 0.77841 0.0
H3171 H 0.38373 0.37134 0.74678 0.0
H3172 H 0.41196 0.38643 0.76151 0.0
H3173 H 0.33239 0.4492 0.75398 0.0
H3174 H 0.32232 0.41897 0.74338 0.0
H3175 H 0.32878 0.42887 0.77461 0.0
H3176 H 0.31494 0.33726 0.73041 0.0
H3177 H 0.32616 0.35846 0.80579 0.0
H3178 H 0.35579 0.37579 0.71425 0.0
H3179 H 0.33597 0.39342 0.71481 0.0
H3180 H 0.32586 0.36331 0.70368 0.0
H3181 H 0.37292 0.401 0.80965 0.0
H3182 H 0.34771 0.39513 0.82371 0.0
H3183 H 0.35239 0.4176 0.80551 0.0
C3184 C 0.24279 0.61323 0.25489 0.0
C3185 C 0.21892 0.60768 0.25094 0.0
C3186 C 0.25493 0.6361 0.26154 0.0
C3187 C 0.24262 0.65306 0.26456 0.0
C3188 C 0.21853 0.64711 0.26212 0.0
C3189 C 0.20697 0.6244 0.25517 0.0
C3190 C 0.28069 0.6423 0.26396 0.0
C3191 C 0.20485 0.66478 0.26534 0.0
C3192 C 0.26971 0.71381 0.2921 0.0
C3193 C 0.27019 0.7243 0.27173 0.0
C3194 C 0.26139 0.69021 0.29015 0.0
C3195 C 0.25433 0.67724 0.26723 0.0
C3196 C 0.2559 0.68786 0.24657 0.0
C3197 C 0.26367 0.71147 0.24914 0.0
C3198 C 0.25941 0.6793 0.31244 0.0
C3199 C 0.24846 0.67449 0.22183 0.0
H3200 H 0.25179 0.59998 0.25175 0.0
H3201 H 0.1884 0.61971 0.25255 0.0
H3202 H 0.28605 0.65179 0.24934 0.0
H3203 H 0.2883 0.65376 0.28093 0.0
H3204 H 0.28776 0.62701 0.26328 0.0
H3205 H 0.18648 0.6569 0.26553 0.0
H3206 H 0.21181 0.67665 0.28217 0.0
H3207 H 0.20605 0.67506 0.25054 0.0
H3208 H 0.27587 0.72396 0.30943 0.0
H3209 H 0.26442 0.71998 0.23352 0.0
H3210 H 0.26893 0.66581 0.31248 0.0
H3211 H 0.24123 0.67097 0.31288 0.0
H3212 H 0.26605 0.6919 0.32886 0.0
H3213 H 0.25657 0.65996 0.21984 0.0
H3214 H 0.25289 0.68522 0.20782 0.0
H3215 H 0.22966 0.66731 0.21879 0.0
C3216 C 0.50438 0.69673 0.50228 0.0
C3217 C 0.50425 0.7022 0.47897 0.0
C3218 C 0.50881 0.67591 0.50843 0.0
C3219 C 0.51247 0.65914 0.49084 0.0
C3220 C 0.51215 0.66448 0.46722 0.0
C3221 C 0.50848 0.68581 0.46173 0.0
C3222 C 0.5097 0.67193 0.534 0.0
C3223 C 0.51529 0.6474 0.44747 0.0
C3224 C 0.54242 0.61198 0.50904 0.0
C3225 C 0.52409 0.59285 0.50894 0.0
C3226 C 0.53896 0.63331 0.50345 0.0
C3227 C 0.5165 0.63618 0.49712 0.0
C3228 C 0.49792 0.61693 0.49697 0.0
C3229 C 0.50187 0.59582 0.50282 0.0
C3230 C 0.55956 0.65292 0.50447 0.0
C3231 C 0.47364 0.61852 0.49034 0.0
H3232 H 0.50129 0.70899 0.51598 0.0
H3233 H 0.50827 0.68938 0.44361 0.0
H3234 H 0.49628 0.65655 0.53539 0.0
H3235 H 0.52645 0.66867 0.54052 0.0
H3236 H 0.50726 0.68669 0.54581 0.0
H3237 H 0.5141 0.65361 0.42997 0.0
H3238 H 0.53221 0.64356 0.45148 0.0
H3239 H 0.50208 0.63114 0.44614 0.0
H3240 H 0.55972 0.61037 0.5135 0.0
H3241 H 0.48738 0.58152 0.50243 0.0
H3242 H 0.55819 0.66783 0.51679 0.0
H3243 H 0.56021 0.65827 0.48664 0.0
H3244 H 0.57585 0.64845 0.51045 0.0
H3245 H 0.47036 0.63311 0.50167 0.0
H3246 H 0.46101 0.60274 0.49229 0.0
H3247 H 0.47088 0.62165 0.47163 0.0
C3248 C 0.65551 0.30109 0.64432 0.0
C3249 C 0.63355 0.30141 0.6496 0.0
C3250 C 0.67321 0.2992 0.66178 0.0
C3251 C 0.66932 0.29788 0.68554 0.0
C3252 C 0.64738 0.29867 0.69121 0.0
C3253 C 0.62978 0.30025 0.67324 0.0
C3254 C 0.69607 0.29812 0.6546 0.0
C3255 C 0.64246 0.29772 0.71631 0.0
C3256 C 0.70908 0.27133 0.72481 0.0
C3257 C 0.72594 0.29059 0.73639 0.0
C3258 C 0.69051 0.27343 0.70849 0.0
C3259 C 0.6882 0.29539 0.70416 0.0
C3260 C 0.70482 0.31491 0.71664 0.0
C3261 C 0.72367 0.31225 0.73216 0.0
C3262 C 0.67377 0.25208 0.69524 0.0
C3263 C 0.7029 0.33868 0.71338 0.0
H3264 H 0.65882 0.30183 0.62623 0.0
H3265 H 0.61301 0.30041 0.6777 0.0
H3266 H 0.70976 0.31236 0.66508 0.0
H3267 H 0.7002 0.28196 0.65853 0.0
H3268 H 0.69638 0.29911 0.6354 0.0
H3269 H 0.62491 0.29936 0.71816 0.0
H3270 H 0.64444 0.28134 0.72188 0.0
H3271 H 0.65497 0.31161 0.72871 0.0
H3272 H 0.71091 0.25453 0.72785 0.0
H3273 H 0.73663 0.32719 0.74115 0.0
H3274 H 0.6743 0.25134 0.67587 0.0
H3275 H 0.6561 0.25238 0.69799 0.0
H3276 H 0.67755 0.23632 0.70095 0.0
H3277 H 0.70555 0.34173 0.69509 0.0
H3278 H 0.71567 0.352 0.72623 0.0
H3279 H 0.68552 0.34054 0.71558 0.0
C3280 C 0.02136 0.34613 0.0032 0.0
C3281 C 0.00748 0.3335 0.98231 0.0
C3282 C 0.02496 0.37026 0.00828 0.0
C3283 C 0.01394 0.38231 0.99252 0.0
C3284 C 0.99973 0.36947 0.97153 0.0
C3285 C 0.99694 0.34551 0.96661 0.0
C3286 C 0.0406 0.38293 0.03062 0.0
C3287 C 0.98709 0.38102 0.95433 0.0
C3288 C 0.00567 0.44158 0.01671 0.0
C3289 C 0.02226 0.45699 0.00752 0.0
C3290 C 1.00275 0.41756 0.01199 0.0
C3291 C 0.01704 0.40815 -0.00202 0.0
C3292 C 0.03413 0.4236 0.989 0.0
C3293 C 0.03642 0.44751 0.9937 0.0
C3294 C 0.98405 0.40218 0.02183 0.0
C3295 C 0.05026 0.41486 0.9745 0.0
H3296 H 0.02958 0.33715 0.01552 0.0
H3297 H 0.98602 0.33599 0.95053 0.0
H3298 H 0.05421 0.39663 0.02611 0.0
H3299 H 0.03083 0.39127 0.04247 0.0
H3300 H 0.04875 0.37149 0.04055 0.0
H3301 H 0.9764 0.36876 0.93903 0.0
H3302 H 0.9759 0.38988 0.96365 0.0
H3303 H 0.99943 0.39417 0.94741 0.0
H3304 H 0.99512 0.44822 0.02801 0.0
H3305 H 0.04953 0.45883 0.9865 0.0
H3306 H 0.99077 0.38941 0.03093 0.0
H3307 H 0.97053 0.39267 0.00697 0.0
H3308 H 0.97617 0.41188 0.0346 0.0
H3309 H 0.05961 0.40463 0.98491 0.0
H3310 H 0.06293 0.42891 0.96912 0.0
H3311 H 0.04047 0.40344 0.95824 0.0
C3312 C 0.0124 0.81284 0.17678 0.0
C3313 C 0.01358 0.79942 0.15553 0.0
C3314 C 0.99293 0.80818 0.18817 0.0
C3315 C 0.97404 0.78978 0.178 0.0
C3316 C 0.97493 0.77653 0.15626 0.0
C3317 C 0.99469 0.78139 0.14542 0.0
C3318 C 0.99281 0.82265 0.21137 0.0
C3319 C 0.95504 0.75703 0.14452 0.0
C3320 C 0.93211 0.7592 0.21502 0.0
C3321 C 0.91307 0.76799 0.20947 0.0
C3322 C 0.95246 0.76701 0.20586 0.0
C3323 C 0.95364 0.78368 0.19037 0.0
C3324 C 0.93464 0.79318 0.18543 0.0
C3325 C 0.91459 0.78525 0.19512 0.0
C3326 C 0.97238 0.75671 0.21196 0.0
C3327 C 0.93507 0.81087 0.16896 0.0
H3328 H 0.02687 0.82683 0.18476 0.0
H3329 H 0.99529 0.77105 0.1289 0.0
H3330 H 0.97715 0.82912 0.21053 0.0
H3331 H 0.9926 0.81207 0.22591 0.0
H3332 H 0.00799 0.83742 0.21596 0.0
H3333 H 0.95789 0.74917 0.12703 0.0
H3334 H 0.95217 0.74365 0.15622 0.0
H3335 H 0.93917 0.76309 0.14187 0.0
H3336 H 0.93082 0.74572 0.22601 0.0
H3337 H 0.89972 0.79182 0.19065 0.0
H3338 H 0.98826 0.77037 0.2183 0.0
H3339 H 0.97519 0.74646 0.1958 0.0
H3340 H 0.96951 0.74549 0.22586 0.0
H3341 H 0.95071 0.82501 0.1743 0.0
H3342 H 0.91986 0.8181 0.1687 0.0
H3343 H 0.93552 0.803 0.15062 0.0
C3344 C 0.53205 0.31086 0.13422 0.0
C3345 C 0.51324 0.30724 0.1465 0.0
C3346 C 0.53656 0.32913 0.12109 0.0
C3347 C 0.5221 0.34437 0.12041 0.0
C3348 C 0.5029 0.3406 0.13245 0.0
C3349 C 0.49863 0.32204 0.14522 0.0
C3350 C 0.55708 0.33238 0.10826 0.0
C3351 C 0.48717 0.35651 0.13234 0.0
C3352 C 0.55143 0.40321 0.10825 0.0
C3353 C 0.54443 0.4016 0.08376 0.0
C3354 C 0.54325 0.38518 0.12065 0.0
C3355 C 0.52792 0.36489 0.10818 0.0
C3356 C 0.51978 0.36374 0.08366 0.0
C3357 C 0.52816 0.38217 0.07172 0.0
C3358 C 0.55222 0.38729 0.1468 0.0
C3359 C 0.50349 0.34248 0.06966 0.0
H3360 H 0.54336 0.29946 0.13495 0.0
H3361 H 0.48406 0.31944 0.15464 0.0
H3362 H 0.55176 0.33326 0.08922 0.0
H3363 H 0.56947 0.34879 0.11597 0.0
H3364 H 0.56591 0.31837 0.10942 0.0
H3365 H 0.47251 0.35078 0.14186 0.0
H3366 H 0.49685 0.3739 0.14092 0.0
H3367 H 0.48044 0.3578 0.11379 0.0
H3368 H 0.5643 0.41814 0.11742 0.0
H3369 H 0.52313 0.38078 0.05268 0.0
H3370 H 0.56359 0.3756 0.1494 0.0
H3371 H 0.53791 0.38219 0.15692 0.0
H3372 H 0.56205 0.40495 0.15439 0.0
H3373 H 0.51264 0.32875 0.06734 0.0
H3374 H 0.49641 0.34539 0.05178 0.0
H3375 H 0.48912 0.33627 0.07935 0.0
C3376 C 0.95754 0.29167 0.3405 0.0
C3377 C 0.97658 0.30193 0.33016 0.0
C3378 C 0.93485 0.29121 0.33125 0.0
C3379 C 0.93013 0.30055 0.31025 0.0
C3380 C 0.94898 0.31001 0.29881 0.0
C3381 C 0.97193 0.31083 0.30897 0.0
C3382 C 0.91587 0.2812 0.34459 0.0
C3383 C 0.94493 0.31975 0.27609 0.0
C3384 C 0.86686 0.2785 0.2814 0.0
C3385 C 0.85683 0.29588 0.29003 0.0
C3386 C 0.89069 0.28041 0.28654 0.0
C3387 C 0.9054 0.30017 0.30089 0.0
C3388 C 0.89547 0.31806 0.30911 0.0
C3389 C 0.87152 0.31565 0.30375 0.0
C3390 C 0.90001 0.26078 0.2772 0.0
C3391 C 0.91008 0.33948 0.32446 0.0
H3392 H 0.96034 0.2844 0.35669 0.0
H3393 H 0.98612 0.31897 0.30068 0.0
H3394 H 0.90658 0.29426 0.34974 0.0
H3395 H 0.90332 0.26674 0.333 0.0
H3396 H 0.92231 0.27498 0.36095 0.0
H3397 H 0.9606 0.32367 0.26764 0.0
H3398 H 0.93107 0.30763 0.26326 0.0
H3399 H 0.93931 0.3357 0.27992 0.0
H3400 H 0.85599 0.2631 0.27071 0.0
H3401 H 0.8642 0.32904 0.31098 0.0
H3402 H 0.90537 0.25213 0.29215 0.0
H3403 H 0.91535 0.26713 0.26888 0.0
H3404 H 0.88716 0.24797 0.26392 0.0
H3405 H 0.91708 0.33524 0.34172 0.0
H3406 H 0.90033 0.35255 0.32798 0.0
H3407 H 0.92481 0.34695 0.31578 0.0
C3408 C 0.03522 0.68029 0.64959 0.0
C3409 C 0.01465 0.68646 0.65181 0.0
C3410 C 0.03625 0.66232 0.63218 0.0
C3411 C 0.01612 0.64985 0.61666 0.0
C3412 C 0.99525 0.65605 0.6189 0.0
C3413 C 0.99479 0.67437 0.63631 0.0
C3414 C 0.05892 0.6566 0.6305 0.0
C3415 C 0.97337 0.64325 0.60291 0.0
C3416 C 0.0248 0.61609 0.55913 0.0
C3417 C 0.02093 0.59361 0.56426 0.0
C3418 C 0.02236 0.63425 0.57549 0.0
C3419 C 0.017 0.6303 0.5983 0.0
C3420 C 0.01336 0.60774 0.60382 0.0
C3421 C 0.01485 0.58973 0.58668 0.0
C3422 C 0.02594 0.6578 0.56842 0.0
C3423 C 0.00826 0.60263 0.62804 0.0
H3424 H 0.05063 0.68968 0.66149 0.0
H3425 H 0.97885 0.67906 0.638 0.0
H3426 H 0.05766 0.6386 0.63316 0.0
H3427 H 0.06345 0.65828 0.6125 0.0
H3428 H 0.07299 0.66784 0.64385 0.0
H3429 H 0.95866 0.65042 0.60642 0.0
H3430 H 0.97551 0.64374 0.584 0.0
H3431 H 0.96929 0.62505 0.60551 0.0
H3432 H 0.03017 0.61975 0.54246 0.0
H3433 H 0.01173 0.57258 0.59119 0.0
H3434 H 0.0417 0.66918 0.57918 0.0
H3435 H 0.01145 0.66524 0.57202 0.0
H3436 H 0.02756 0.65764 0.54929 0.0
H3437 H 0.02168 0.61371 0.64212 0.0
H3438 H 0.00735 0.58453 0.6301 0.0
H3439 H 0.99175 0.60642 0.63101 0.0
C3440 C 0.62483 0.79514 0.82729 0.0
C3441 C 0.61595 0.81127 0.81581 0.0
C3442 C 0.64529 0.78915 0.82204 0.0
C3443 C 0.6577 0.7994 0.80484 0.0
C3444 C 0.64871 0.81554 0.79313 0.0
C3445 C 0.62829 0.82115 0.79864 0.0
C3446 C 0.65369 0.77174 0.83502 0.0
C3447 C 0.66087 0.8272 0.77475 0.0
C3448 C 0.7222 0.80013 0.80625 0.0
C3449 C 0.72208 0.78355 0.78686 0.0
C3450 C 0.70173 0.80551 0.8121 0.0
C3451 C 0.67996 0.79348 0.79905 0.0
C3452 C 0.67975 0.77645 0.77971 0.0
C3453 C 0.70055 0.77223 0.77356 0.0
C3454 C 0.70349 0.82452 0.83211 0.0
C3455 C 0.65741 0.76249 0.76541 0.0
H3456 H 0.61587 0.78725 0.84059 0.0
H3457 H 0.62202 0.83358 0.7894 0.0
H3458 H 0.65552 0.75752 0.82203 0.0
H3459 H 0.67085 0.77965 0.84552 0.0
H3460 H 0.64198 0.76463 0.84723 0.0
H3461 H 0.65218 0.83968 0.76748 0.0
H3462 H 0.6787 0.83624 0.7827 0.0
H3463 H 0.66183 0.81432 0.75981 0.0
H3464 H 0.73848 0.80939 0.81665 0.0
H3465 H 0.6998 0.75985 0.75823 0.0
H3466 H 0.69387 0.81785 0.8461 0.0
H3467 H 0.69563 0.83778 0.82538 0.0
H3468 H 0.7215 0.83268 0.84027 0.0
H3469 H 0.6463 0.75395 0.77739 0.0
H3470 H 0.65987 0.74926 0.75161 0.0
H3471 H 0.64819 0.77377 0.75655 0.0
C3472 C 0.46552 0.53377 0.68427 0.0
C3473 C 0.47869 0.52429 0.70028 0.0
C3474 C 0.47216 0.53809 0.66222 0.0
C3475 C 0.4926 0.53314 0.65622 0.0
C3476 C 0.50665 0.52494 0.67296 0.0
C3477 C 0.49943 0.52043 0.69465 0.0
C3478 C 0.45662 0.54666 0.64478 0.0
C3479 C 0.52888 0.51998 0.66758 0.0
C3480 C 0.4975 0.51442 0.59196 0.0
C3481 C 0.51002 0.53452 0.58539 0.0
C3482 C 0.4909 0.5141 0.61454 0.0
C3483 C 0.49808 0.53408 0.63162 0.0
C3484 C 0.51104 0.55441 0.62531 0.0
C3485 C 0.51627 0.55454 0.60206 0.0
C3486 C 0.47662 0.49215 0.62025 0.0
C3487 C 0.51986 0.57582 0.64326 0.0
H3488 H 0.4495 0.53686 0.6885 0.0
H3489 H 0.5099 0.51342 0.70705 0.0
H3490 H 0.46644 0.56154 0.63779 0.0
H3491 H 0.4491 0.53305 0.62938 0.0
H3492 H 0.44249 0.55169 0.65288 0.0
H3493 H 0.53917 0.51653 0.68352 0.0
H3494 H 0.52525 0.50484 0.65364 0.0
H3495 H 0.53926 0.53456 0.66061 0.0
H3496 H 0.49333 0.49866 0.5797 0.0
H3497 H 0.52556 0.57028 0.59705 0.0
H3498 H 0.46151 0.49534 0.62784 0.0
H3499 H 0.48682 0.48538 0.63381 0.0
H3500 H 0.47055 0.47885 0.60432 0.0
H3501 H 0.50537 0.58149 0.64983 0.0
H3502 H 0.5303 0.59001 0.63573 0.0
H3503 H 0.53051 0.57226 0.65886 0.0
C3504 C 0.76402 0.19152 0.99615 0.0
C3505 C 0.77524 0.17403 -0.00223 0.0
C3506 C 0.76395 0.20272 0.97641 0.0
C3507 C 0.77579 0.19639 0.95799 0.0
C3508 C 0.7895 0.18066 0.96082 0.0
C3509 C 0.78899 0.1694 0.98091 0.0
C3510 C 0.74909 0.21945 0.97426 0.0
C3511 C 0.80323 0.17464 0.94193 0.0
C3512 C 0.73825 0.19999 0.9032 0.0
C3513 C 0.74659 0.22291 0.90126 0.0
C3514 C 0.74974 0.18983 0.91982 0.0
C3515 C 0.76987 0.20319 0.93469 0.0
C3516 C 0.77965 0.22562 0.9308 0.0
C3517 C 0.76768 0.23539 0.91412 0.0
C3518 C 0.73883 0.16572 0.92326 0.0
C3519 C 0.80147 0.24 0.9458 0.0
H3520 H 0.75392 0.19541 0.00972 0.0
H3521 H 0.79796 0.15605 0.98259 0.0
H3522 H 0.75895 0.23577 0.96993 0.0
H3523 H 0.73451 0.21233 0.95965 0.0
H3524 H 0.74207 0.22321 0.99086 0.0
H3525 H 0.81526 0.16455 0.94821 0.0
H3526 H 0.79159 0.1645 0.92595 0.0
H3527 H 0.81308 0.19036 0.93634 0.0
H3528 H 0.72227 0.19036 0.89242 0.0
H3529 H 0.77433 0.25298 0.91171 0.0
H3530 H 0.73075 0.16616 0.93961 0.0
H3531 H 0.75181 0.1557 0.92555 0.0
H3532 H 0.72545 0.15671 0.90802 0.0
H3533 H 0.79763 0.24731 0.96303 0.0
H3534 H 0.80965 0.25435 0.93691 0.0
H3535 H 0.8138 0.22952 0.94973 0.0
C3536 C 0.12608 0.5342 0.18596 0.0
C3537 C 0.1475 0.53225 0.1808 0.0
C3538 C 0.1087 0.53433 0.16775 0.0
C3539 C 0.11301 0.53199 0.14406 0.0
C3540 C 0.13436 0.52902 0.13872 0.0
C3541 C 0.15163 0.52953 0.15739 0.0
C3542 C 0.08621 0.53799 0.17389 0.0
C3543 C 0.13919 0.52625 0.11344 0.0
C3544 C 0.06568 0.51366 0.0923 0.0
C3545 C 0.06562 0.53457 0.08459 0.0
C3546 C 0.08015 0.51275 0.11275 0.0
C3547 C 0.09538 0.53315 0.12478 0.0
C3548 C 0.0947 0.55446 0.11746 0.0
C3549 C 0.07908 0.55496 0.09768 0.0
C3550 C 0.07983 0.48994 0.12084 0.0
C3551 C 0.11125 0.57644 0.12962 0.0
H3552 H 0.12338 0.53693 0.20433 0.0
H3553 H 0.16851 0.52854 0.1538 0.0
H3554 H 0.08386 0.55446 0.16884 0.0
H3555 H 0.07177 0.52435 0.16366 0.0
H3556 H 0.08529 0.53827 0.19316 0.0
H3557 H 0.15645 0.52336 0.11239 0.0
H3558 H 0.12624 0.51164 0.10253 0.0
H3559 H 0.13792 0.54175 0.10541 0.0
H3560 H 0.05456 0.49805 0.08216 0.0
H3561 H 0.07843 0.57103 0.0915 0.0
H3562 H 0.07861 0.49096 0.14008 0.0
H3563 H 0.09604 0.48522 0.11829 0.0
H3564 H 0.06532 0.47616 0.11085 0.0
H3565 H 0.11028 0.57889 0.14892 0.0
H3566 H 0.1079 0.59156 0.12201 0.0
H3567 H 0.12899 0.57558 0.12776 0.0
C3568 C 0.77933 0.84158 0.45402 0.0
C3569 C 0.79823 0.83966 0.46963 0.0
C3570 C 0.77697 0.83404 0.42937 0.0
C3571 C 0.79418 0.82496 0.42015 0.0
C3572 C 0.81341 0.82337 0.43582 0.0
C3573 C 0.81504 0.83043 0.46025 0.0
C3574 C 0.75605 0.83568 0.4132 0.0
C3575 C 0.83256 0.81455 0.42673 0.0
C3576 C 0.78378 0.78614 0.36068 0.0
C3577 C 0.79219 0.8016 0.34569 0.0
C3578 C 0.78336 0.79371 0.38474 0.0
C3579 C 0.79243 0.81711 0.39415 0.0
C3580 C 0.80144 0.83265 0.37904 0.0
C3581 C 0.80081 0.82476 0.35489 0.0
C3582 C 0.7732 0.77668 0.40009 0.0
C3583 C 0.81215 0.85753 0.38846 0.0
H3584 H 0.76636 0.8488 0.46105 0.0
H3585 H 0.82996 0.82922 0.47201 0.0
H3586 H 0.76117 0.84669 0.39966 0.0
H3587 H 0.74695 0.81851 0.4035 0.0
H3588 H 0.74401 0.84275 0.4231 0.0
H3589 H 0.84674 0.81513 0.44118 0.0
H3590 H 0.82593 0.79666 0.41778 0.0
H3591 H 0.83958 0.82481 0.4133 0.0
H3592 H 0.77693 0.76826 0.35342 0.0
H3593 H 0.80745 0.83665 0.34322 0.0
H3594 H 0.76003 0.78274 0.409 0.0
H3595 H 0.78668 0.77508 0.41424 0.0
H3596 H 0.76526 0.75951 0.38968 0.0
H3597 H 0.79943 0.8655 0.39602 0.0
H3598 H 0.81878 0.86726 0.37446 0.0
H3599 H 0.8265 0.8591 0.40304 0.0
C3600 C 0.5011 0.53698 0.83957 0.0
C3601 C 0.47787 0.52944 0.83002 0.0
C3602 C 0.50827 0.5399 0.86422 0.0
C3603 C 0.49189 0.53406 0.87948 0.0
C3604 C 0.46831 0.52742 0.86997 0.0
C3605 C 0.46155 0.52553 0.84531 0.0
C3606 C 0.53343 0.54843 0.87386 0.0
C3607 C 0.45036 0.52101 0.88566 0.0
C3608 C 0.51288 0.51206 0.93531 0.0
C3609 C 0.51388 0.53013 0.95317 0.0
C3610 C 0.50528 0.51297 0.91139 0.0
C3611 C 0.49957 0.53298 0.90496 0.0
C3612 C 0.50141 0.5517 0.92282 0.0
C3613 C 0.50805 0.54983 0.94675 0.0
C3614 C 0.50314 0.49239 0.89302 0.0
C3615 C 0.49631 0.57373 0.91698 0.0
H3616 H 0.51368 0.54008 0.82769 0.0
H3617 H 0.44358 0.51945 0.83784 0.0
H3618 H 0.53616 0.56228 0.88912 0.0
H3619 H 0.54001 0.53437 0.88048 0.0
H3620 H 0.54357 0.55497 0.86015 0.0
H3621 H 0.43272 0.5168 0.87565 0.0
H3622 H 0.45291 0.50599 0.89397 0.0
H3623 H 0.45212 0.53525 0.90025 0.0
H3624 H 0.51752 0.49697 0.93999 0.0
H3625 H 0.50924 0.56403 0.96044 0.0
H3626 H 0.51518 0.49678 0.88024 0.0
H3627 H 0.48559 0.48709 0.88275 0.0
H3628 H 0.50681 0.47765 0.90113 0.0
H3629 H 0.49891 0.57669 0.89866 0.0
H3630 H 0.50737 0.58846 0.92959 0.0
H3631 H 0.47823 0.5732 0.91871 0.0
C3632 C 0.79486 0.20133 0.12163 0.0
C3633 C 0.78295 0.17842 0.11697 0.0
C3634 C 0.79529 0.21424 0.1434 0.0
C3635 C 0.783 0.20385 0.16031 0.0
C3636 C 0.77215 0.18031 0.15626 0.0
C3637 C 0.77245 0.16766 0.13444 0.0
C3638 C 0.80749 0.23932 0.14761 0.0
C3639 C 0.75878 0.16899 0.17406 0.0
C3640 C 0.79741 0.24052 0.21936 0.0
C3641 C 0.78044 0.25268 0.21768 0.0
C3642 C 0.79728 0.22301 0.20155 0.0
C3643 C 0.78029 0.2183 0.18136 0.0
C3644 C 0.76269 0.23005 0.17985 0.0
C3645 C 0.76305 0.24736 0.19819 0.0
C3646 C 0.81608 0.21054 0.20377 0.0
C3647 C 0.74427 0.22514 0.15838 0.0
H3648 H 0.80279 0.20938 0.10777 0.0
H3649 H 0.76291 0.14992 0.13033 0.0
H3650 H 0.79483 0.24979 0.14873 0.0
H3651 H 0.81929 0.24362 0.16477 0.0
H3652 H 0.81747 0.24424 0.13321 0.0
H3653 H 0.7544 0.15008 0.1698 0.0
H3654 H 0.76852 0.17415 0.19233 0.0
H3655 H 0.74264 0.17456 0.17405 0.0
H3656 H 0.811 0.24481 0.23447 0.0
H3657 H 0.74999 0.25687 0.19721 0.0
H3658 H 0.82875 0.2169 0.19219 0.0
H3659 H 0.80915 0.19195 0.19786 0.0
H3660 H 0.82512 0.2132 0.22234 0.0
H3661 H 0.75193 0.23088 0.14282 0.0
H3662 H 0.73053 0.23397 0.16124 0.0
H3663 H 0.73651 0.20652 0.15389 0.0
C3664 C 0.12136 0.54315 0.2961 0.0
C3665 C 0.14328 0.53937 0.29755 0.0
C3666 C 0.11173 0.54696 0.31657 0.0
C3667 C 0.12443 0.54702 0.33899 0.0
C3668 C 0.1457 0.54115 0.34046 0.0
C3669 C 0.15495 0.53729 0.31953 0.0
C3670 C 0.08884 0.55293 0.31425 0.0
C3671 C 0.15939 0.54069 0.36415 0.0
C3672 C 0.11072 0.59055 0.38292 0.0
C3673 C 0.09369 0.57684 0.39283 0.0
C3674 C 0.1226 0.58074 0.36694 0.0
C3675 C 0.11679 0.5567 0.36046 0.0
C3676 C 0.10064 0.5427 0.37167 0.0
C3677 C 0.08927 0.55301 0.38789 0.0
C3678 C 0.14014 0.5962 0.35571 0.0
C3679 C 0.09407 0.51705 0.36523 0.0
H3680 H 0.11221 0.54437 0.279 0.0
H3681 H 0.1719 0.53426 0.32059 0.0
H3682 H 0.07737 0.54288 0.32493 0.0
H3683 H 0.09132 0.57127 0.32116 0.0
H3684 H 0.08021 0.54975 0.29549 0.0
H3685 H 0.17432 0.53339 0.36212 0.0
H3686 H 0.16571 0.55831 0.37393 0.0
H3687 H 0.14846 0.53056 0.37524 0.0
H3688 H 0.11436 0.60898 0.38727 0.0
H3689 H 0.07612 0.54248 0.39583 0.0
H3690 H 0.13318 0.59618 0.33687 0.0
H3691 H 0.1559 0.58995 0.35588 0.0
H3692 H 0.1448 0.61407 0.365 0.0
H3693 H 0.08211 0.51224 0.34818 0.0
H3694 H 0.08543 0.5086 0.37902 0.0
H3695 H 0.10926 0.51038 0.36274 0.0
C3696 C 0.7999 0.8595 0.62182 0.0
C3697 C 0.79349 0.84473 0.60019 0.0
C3698 C 0.7964 0.85132 0.64343 0.0
C3699 C 0.78572 0.82796 0.64323 0.0
C3700 C 0.77801 0.81336 0.62119 0.0
C3701 C 0.7824 0.82184 0.59996 0.0
C3702 C 0.80544 0.86731 0.66652 0.0
C3703 C 0.76599 0.78854 0.62007 0.0
C3704 C 0.80066 0.79879 0.69616 0.0
C3705 C 0.78248 0.79948 0.70879 0.0
C3706 C 0.80217 0.80852 0.67517 0.0
C3707 C 0.78452 0.81832 0.66602 0.0
C3708 C 0.76585 0.81863 0.67854 0.0
C3709 C 0.7653 0.80963 0.70009 0.0
C3710 C 0.82276 0.80847 0.6629 0.0
C3711 C 0.74634 0.82821 0.66903 0.0
H3712 H 0.80884 0.87713 0.62194 0.0
H3713 H 0.7776 0.81043 0.58318 0.0
H3714 H 0.79185 0.86679 0.67784 0.0
H3715 H 0.81948 0.86171 0.67654 0.0
H3716 H 0.81208 0.88522 0.66364 0.0
H3717 H 0.7585 0.78029 0.60159 0.0
H3718 H 0.7783 0.77916 0.62726 0.0
H3719 H 0.75215 0.78681 0.6312 0.0
H3720 H 0.81406 0.79112 0.70308 0.0
H3721 H 0.75115 0.80995 0.70983 0.0
H3722 H 0.8311 0.82612 0.66046 0.0
H3723 H 0.81734 0.79819 0.64497 0.0
H3724 H 0.83559 0.80137 0.67305 0.0
H3725 H 0.75263 0.84676 0.66867 0.0
H3726 H 0.73232 0.82563 0.67994 0.0
H3727 H 0.7393 0.81999 0.65047 0.0
C3728 C 0.73837 0.46072 0.51305 0.0
C3729 C 0.75364 0.47137 0.49895 0.0
C3730 C 0.72223 0.4712 0.5213 0.0
C3731 C 0.7212 0.49272 0.51495 0.0
C3732 C 0.73544 0.5029 0.49938 0.0
C3733 C 0.75175 0.49207 0.49158 0.0
C3734 C 0.70711 0.4597 0.53776 0.0
C3735 C 0.73413 0.52557 0.49185 0.0
C3736 C 0.66742 0.50571 0.53077 0.0
C3737 C 0.67516 0.51753 0.55395 0.0
C3738 C 0.68275 0.49958 0.51661 0.0
C3739 C 0.70616 0.50488 0.52621 0.0
C3740 C 0.71425 0.51795 0.54899 0.0
C3741 C 0.69857 0.52425 0.56261 0.0
C3742 C 0.67361 0.48568 0.49232 0.0
C3743 C 0.73917 0.52355 0.55983 0.0
H3744 H 0.7395 0.44444 0.51841 0.0
H3745 H 0.76349 0.50018 0.48052 0.0
H3746 H 0.71058 0.47053 0.55541 0.0
H3747 H 0.68884 0.45752 0.53056 0.0
H3748 H 0.70984 0.44266 0.54039 0.0
H3749 H 0.74382 0.52937 0.47696 0.0
H3750 H 0.71608 0.52587 0.48633 0.0
H3751 H 0.74135 0.53936 0.50713 0.0
H3752 H 0.64927 0.50025 0.52404 0.0
H3753 H 0.70454 0.5338 0.58031 0.0
H3754 H 0.67196 0.46733 0.49356 0.0
H3755 H 0.68543 0.4905 0.47942 0.0
H3756 H 0.65649 0.48782 0.48529 0.0
H3757 H 0.74364 0.50777 0.56461 0.0
H3758 H 0.74307 0.53639 0.57615 0.0
H3759 H 0.75024 0.5301 0.54688 0.0
C3760 C 0.20489 0.11965 0.50835 0.0
C3761 C 0.20327 0.14238 0.5097 0.0
C3762 C 0.18551 0.10187 0.5086 0.0
C3763 C 0.16421 0.10707 0.51055 0.0
C3764 C 0.16248 0.12993 0.51167 0.0
C3765 C 0.18194 0.14722 0.51108 0.0
C3766 C 0.18777 0.07759 0.5069 0.0
C3767 C 0.14012 0.13625 0.51396 0.0
C3768 C 0.10574 0.06627 0.49385 0.0
C3769 C 0.1007 0.06162 0.5162 0.0
C3770 C 0.12733 0.07937 0.49144 0.0
C3771 C 0.14363 0.08895 0.51207 0.0
C3772 C 0.13875 0.08355 0.53461 0.0
C3773 C 0.11749 0.06933 0.53627 0.0
C3774 C 0.13221 0.08395 0.46701 0.0
C3775 C 0.15518 0.0942 0.55715 0.0
H3776 H 0.22128 0.11576 0.50718 0.0
H3777 H 0.18043 0.16469 0.51211 0.0
H3778 H 0.18363 0.07056 0.5233 0.0
H3779 H 0.17535 0.06675 0.49181 0.0
H3780 H 0.20527 0.07625 0.5044 0.0
H3781 H 0.14183 0.15493 0.51519 0.0
H3782 H 0.12707 0.12756 0.49839 0.0
H3783 H 0.1336 0.13043 0.53005 0.0
H3784 H 0.09268 0.05992 0.47833 0.0
H3785 H 0.11335 0.06563 0.55353 0.0
H3786 H 0.14961 0.08224 0.46464 0.0
H3787 H 0.13156 0.10169 0.46491 0.0
H3788 H 0.11957 0.07212 0.45271 0.0
H3789 H 0.17247 0.09173 0.55556 0.0
H3790 H 0.14948 0.087 0.57299 0.0
H3791 H 0.1567 0.11287 0.56011 0.0
C3792 C 0.16811 0.98092 0.77664 0.0
C3793 C 0.18 1.00149 0.79093 0.0
C3794 C 0.17886 0.96326 0.77186 0.0
C3795 C 0.20215 0.96637 0.78136 0.0
C3796 C 0.21417 0.98689 0.79622 0.0
C3797 C 0.20289 0.00423 0.80093 0.0
C3798 C 0.16537 0.94142 0.75624 0.0
C3799 C 0.23908 0.9908 0.8065 0.0
C3800 C 0.2204 0.911 0.77933 0.0
C3801 C 0.2273 0.90937 0.75693 0.0
C3802 C 0.21342 0.93024 0.78835 0.0
C3803 C 0.21385 0.94828 0.77472 0.0
C3804 C 0.22259 0.94741 0.75293 0.0
C3805 C 0.22895 0.92774 0.7441 0.0
C3806 C 0.20401 0.93041 0.81154 0.0
C3807 C 0.22398 0.96665 0.73828 0.0
H3808 H 0.15036 0.9786 0.76904 0.0
H3809 H 0.21216 0.02011 0.81198 0.0
H3810 H 0.17268 0.9393 0.73955 0.0
H3811 H 0.16652 0.9265 0.76536 0.0
H3812 H 0.14703 0.94119 0.75152 0.0
H3813 H 0.24527 0.00667 0.81959 0.0
H3814 H 0.24193 0.97617 0.8153 0.0
H3815 H 0.24956 0.99211 0.79194 0.0
H3816 H 0.21932 0.89671 0.7892 0.0
H3817 H 0.23474 0.92648 0.72694 0.0
H3818 H 0.1851 0.92704 0.80777 0.0
H3819 H 0.21048 0.94734 0.82278 0.0
H3820 H 0.20845 0.91717 0.82176 0.0
H3821 H 0.20649 0.96696 0.73033 0.0
H3822 H 0.23416 0.96477 0.72367 0.0
H3823 H 0.23174 0.98333 0.74966 0.0
C3824 C 0.37413 0.95781 0.00671 0.0
C3825 C 0.35754 0.96914 0.0126 0.0
C3826 C 0.3954 0.96987 0.003 0.0
C3827 C 0.40017 0.99389 0.00545 0.0
C3828 C 0.383 0.00542 0.00984 0.0
C3829 C 0.36153 0.99275 0.01324 0.0
C3830 C 0.41312 0.95692 -0.00222 0.0
C3831 C 0.38769 0.03105 0.01178 0.0
C3832 C 0.46205 0.01978 0.02922 0.0
C3833 C 0.47103 0.02234 0.00823 0.0
C3834 C 0.43862 0.01146 0.02867 0.0
C3835 C 0.42397 0.00662 0.00653 0.0
C3836 C 0.43289 0.01081 0.98536 0.0
C3837 C 0.45652 0.01841 0.98646 0.0
C3838 C 0.42973 0.00677 0.05158 0.0
C3839 C 0.41785 0.00614 0.96144 0.0
H3840 H 0.37048 0.93934 0.00521 0.0
H3841 H 0.34826 1.00124 0.01706 0.0
H3842 H 0.42042 0.9619 0.9818 0.0
H3843 H 0.42737 0.96122 0.01294 0.0
H3844 H 0.40595 0.93813 0.99477 0.0
H3845 H 0.37189 0.03715 0.01251 0.0
H3846 H 0.40003 0.03906 0.02812 0.0
H3847 H 0.39565 0.03694 -0.00357 0.0
H3848 H 0.47322 0.02446 0.04604 0.0
H3849 H 0.46369 0.02092 0.97026 0.0
H3850 H 0.42271 0.98812 0.05081 0.0
H3851 H 0.41561 0.01514 0.054 0.0
H3852 H 0.44327 0.01282 0.06739 0.0
H3853 H 0.41508 0.98793 0.95389 0.0
H3854 H 0.42599 0.01667 0.94873 0.0
H3855 H 0.40088 0.00954 0.96293 0.0
C3856 C 0.82138 0.56195 0.8025 0.0
C3857 C 0.84297 0.56698 0.81631 0.0
C3858 C 0.81283 0.57942 0.79394 0.0
C3859 C 0.82602 0.60228 0.80019 0.0
C3860 C 0.84614 0.60755 0.81713 0.0
C3861 C 0.85473 0.58967 0.82463 0.0
C3862 C 0.79149 0.57305 0.77559 0.0
C3863 C 0.85998 0.63182 0.82513 0.0
C3864 C 0.82664 0.63614 0.74911 0.0
C3865 C 0.8091 0.64705 0.75239 0.0
C3866 C 0.83262 0.62187 0.76489 0.0
C3867 C 0.82161 0.61942 0.78519 0.0
C3868 C 0.80532 0.63186 0.78979 0.0
C3869 C 0.7988 0.6451 0.77301 0.0
C3870 C 0.84997 0.60861 0.75917 0.0
C3871 C 0.79414 0.63048 0.81189 0.0
H3872 H 0.81256 0.54428 0.79595 0.0
H3873 H 0.87149 0.59337 0.83537 0.0
H3874 H 0.78022 0.58464 0.77892 0.0
H3875 H 0.79637 0.57475 0.75771 0.0
H3876 H 0.78162 0.5552 0.77531 0.0
H3877 H 0.87163 0.63339 0.8421 0.0
H3878 H 0.87056 0.63739 0.81141 0.0
H3879 H 0.84866 0.64357 0.82746 0.0
H3880 H 0.83533 0.6382 0.73379 0.0
H3881 H 0.78504 0.6532 0.77579 0.0
H3882 H 0.84215 0.59002 0.75751 0.0
H3883 H 0.86471 0.61293 0.77377 0.0
H3884 H 0.8565 0.61217 0.74236 0.0
H3885 H 0.78119 0.61398 0.80993 0.0
H3886 H 0.78548 0.64449 0.81518 0.0
H3887 H 0.80695 0.63123 0.82772 0.0
C3888 C 0.81399 0.61505 0.00101 0.0
C3889 C 0.81766 0.63871 0.00742 0.0
C3890 C 0.83191 0.60426 0.00495 0.0
C3891 C 0.85402 0.61752 0.01523 0.0
C3892 C 0.85801 0.64152 0.02076 0.0
C3893 C 0.83974 0.6518 0.017 0.0
C3894 C 0.82694 0.57861 -0.00091 0.0
C3895 C 0.88148 0.65631 0.03129 0.0
C3896 C 0.89623 0.59439 0.05318 0.0
C3897 C 0.91186 0.59176 0.03773 0.0
C3898 C 0.87652 0.60141 0.04555 0.0
C3899 C 0.87269 0.60638 0.02206 0.0
C3900 C 0.88794 0.60272 0.00605 0.0
C3901 C 0.90733 0.59521 0.01406 0.0
C3902 C 0.8604 0.60458 0.063 0.0
C3903 C 0.88454 0.60802 0.98095 0.0
H3904 H 0.79696 0.60485 0.99359 0.0
H3905 H 0.84275 0.67012 0.02169 0.0
H3906 H 0.83997 0.57355 0.98914 0.0
H3907 H 0.82775 0.5711 0.01584 0.0
H3908 H 0.80975 0.57114 0.98841 0.0
H3909 H 0.88216 0.67481 0.03256 0.0
H3910 H 0.88644 0.65247 0.04938 0.0
H3911 H 0.89439 0.65254 0.02035 0.0
H3912 H 0.89976 0.59146 0.07143 0.0
H3913 H 0.91955 0.59315 0.00221 0.0
H3914 H 0.8425 0.59601 0.05492 0.0
H3915 H 0.86137 0.62303 0.06758 0.0
H3916 H 0.86454 0.5977 0.07969 0.0
H3917 H 0.86677 0.6 0.97208 0.0
H3918 H 0.89655 0.60205 0.97008 0.0
H3919 H 0.88729 0.62674 0.98139 0.0
C3920 C 0.19378 0.12457 0.81289 0.0
C3921 C 0.17979 0.11211 0.7922 0.0
C3922 C 0.21111 0.14401 0.81173 0.0
C3923 C 0.21381 0.15141 0.78942 0.0
C3924 C 0.20018 0.13821 0.7684 0.0
C3925 C 0.18346 0.11855 0.77007 0.0
C3926 C 0.22563 0.15722 0.8345 0.0
C3927 C 0.2019 0.14583 0.74436 0.0
C3928 C 0.23357 0.21536 0.79087 0.0
C3929 C 0.25531 0.21794 0.78399 0.0
C3930 C 0.21977 0.1938 0.79206 0.0
C3931 C 0.22856 0.17432 0.78826 0.0
C3932 C 0.25087 0.17679 0.78242 0.0
C3933 C 0.26355 0.19841 0.77928 0.0
C3934 C 0.19559 0.1919 0.79698 0.0
C3935 C 0.26144 0.15668 0.77984 0.0
H3936 H 0.19069 0.11956 0.82999 0.0
H3937 H 0.17232 0.1089 0.75416 0.0
H3938 H 0.24362 0.16373 0.83185 0.0
H3939 H 0.21899 0.17214 0.84028 0.0
H3940 H 0.22533 0.1466 0.84904 0.0
H3941 H 0.19099 0.13296 0.72967 0.0
H3942 H 0.19652 0.16205 0.74408 0.0
H3943 H 0.21982 0.1492 0.74091 0.0
H3944 H 0.2269 0.23019 0.79477 0.0
H3945 H 0.27993 0.1999 0.77331 0.0
H3946 H 0.19391 0.18653 0.81465 0.0
H3947 H 0.18334 0.17874 0.78353 0.0
H3948 H 0.19055 0.20831 0.79674 0.0
H3949 H 0.26069 0.14834 0.79608 0.0
H3950 H 0.27955 0.16175 0.77699 0.0
H3951 H 0.25163 0.14377 0.76467 0.0
C3952 C 0.34756 0.93841 0.25306 0.0
C3953 C 0.36057 0.94936 0.27485 0.0
C3954 C 0.33001 0.91873 0.25239 0.0
C3955 C 0.32592 0.91047 0.27399 0.0
C3956 C 0.33742 0.92322 0.29607 0.0
C3957 C 0.35471 0.94256 0.29614 0.0
C3958 C 0.31757 0.90558 0.22869 0.0
C3959 C 0.33382 0.91491 0.31953 0.0
C3960 C 0.28234 0.85857 0.28253 0.0
C3961 C 0.29626 0.84336 0.28498 0.0
C3962 C 0.29128 0.88037 0.27719 0.0
C3963 C 0.31439 0.88651 0.27384 0.0
C3964 C 0.32815 0.87071 0.27535 0.0
C3965 C 0.31907 0.8496 0.28196 0.0
C3966 C 0.27661 0.89728 0.27693 0.0
C3967 C 0.35289 0.87664 0.27157 0.0
H3968 H 0.35208 0.94423 0.23668 0.0
H3969 H 0.36468 0.95166 0.31293 0.0
H3970 H 0.32499 0.89092 0.22397 0.0
H3971 H 0.2992 0.89859 0.22953 0.0
H3972 H 0.31909 0.9164 0.21432 0.0
H3973 H 0.34077 0.92878 0.33483 0.0
H3974 H 0.31544 0.90777 0.32007 0.0
H3975 H 0.34278 0.90115 0.32183 0.0
H3976 H 0.26473 0.85367 0.28558 0.0
H3977 H 0.32997 0.83816 0.28523 0.0
H3978 H 0.27837 0.90642 0.26133 0.0
H3979 H 0.28244 0.91027 0.2931 0.0
H3980 H 0.25827 0.88892 0.2766 0.0
H3981 H 0.35431 0.88318 0.25438 0.0
H3982 H 0.36054 0.86173 0.27156 0.0
H3983 H 0.36314 0.89029 0.28588 0.0
C3984 C 0.57699 0.36929 0.55471 0.0
C3985 C 0.56425 0.35658 0.56991 0.0
C3986 C 0.57323 0.39044 0.54881 0.0
C3987 C 0.55603 0.39976 0.55795 0.0
C3988 C 0.54295 0.38695 0.57314 0.0
C3989 C 0.54724 0.3659 0.57897 0.0
C3990 C 0.58798 0.40302 0.53283 0.0
C3991 C 0.52422 0.39549 0.58329 0.0
C3992 C 0.55929 0.46498 0.55963 0.0
C3993 C 0.54451 0.46594 0.53892 0.0
C3994 C 0.5632 0.44397 0.5659 0.0
C3995 C 0.55181 0.42268 0.55157 0.0
C3996 C 0.53678 0.42355 0.53073 0.0
C3997 C 0.53363 0.44483 0.52461 0.0
C3998 C 0.57986 0.44464 0.5879 0.0
C3999 C 0.52383 0.40182 0.51474 0.0
H4000 H 0.59029 0.3628 0.54748 0.0
H4001 H 0.53714 0.3567 0.59072 0.0
H4002 H 0.57713 0.40542 0.51675 0.0
H4003 H 0.59724 0.42025 0.54222 0.0
H4004 H 0.60068 0.39384 0.52712 0.0
H4005 H 0.5153 0.38372 0.59453 0.0
H4006 H 0.53145 0.41251 0.59418 0.0
H4007 H 0.51148 0.39759 0.56863 0.0
H4008 H 0.56816 0.48083 0.57097 0.0
H4009 H 0.5225 0.44481 0.5084 0.0
H4010 H 0.59371 0.43671 0.58311 0.0
H4011 H 0.57105 0.43455 0.6005 0.0
H4012 H 0.58768 0.46233 0.59708 0.0
H4013 H 0.53597 0.39246 0.50805 0.0
H4014 H 0.51277 0.40507 0.49926 0.0
H4015 H 0.51298 0.39052 0.52499 0.0
C4016 C 0.41765 0.77174 0.41067 0.0
C4017 C 0.43452 0.7616 0.40275 0.0
C4018 C 0.39975 0.7755 0.39474 0.0
C4019 C 0.39788 0.76831 0.36999 0.0
C4020 C 0.41468 0.75779 0.36178 0.0
C4021 C 0.433 0.75498 0.37815 0.0
C4022 C 0.38294 0.78751 0.40447 0.0
C4023 C 0.41317 0.74932 0.33569 0.0
C4024 C 0.33765 0.7599 0.33509 0.0
C4025 C 0.3397 0.77965 0.32417 0.0
C4026 C 0.35657 0.75556 0.34908 0.0
C4027 C 0.37816 0.77164 0.35302 0.0
C4028 C 0.38033 0.79159 0.34192 0.0
C4029 C 0.36126 0.79517 0.32744 0.0
C4030 C 0.35339 0.73371 0.35975 0.0
C4031 C 0.40263 0.80962 0.34599 0.0
H4032 H 0.41877 0.77736 0.42953 0.0
H4033 H 0.4459 0.74724 0.37172 0.0
H4034 H 0.3823 0.80264 0.39553 0.0
H4035 H 0.36552 0.77594 0.40076 0.0
H4036 H 0.38743 0.7932 0.42396 0.0
H4037 H 0.4267 0.74039 0.33219 0.0
H4038 H 0.3962 0.73744 0.3289 0.0
H4039 H 0.41475 0.76384 0.32544 0.0
H4040 H 0.3212 0.7476 0.33246 0.0
H4041 H 0.36309 0.81051 0.31916 0.0
H4042 H 0.35559 0.73765 0.37941 0.0
H4043 H 0.36661 0.7247 0.35532 0.0
H4044 H 0.33622 0.72203 0.35335 0.0
H4045 H 0.4067 0.81732 0.36501 0.0
H4046 H 0.40204 0.82342 0.33498 0.0
H4047 H 0.41681 0.80191 0.34192 0.0
C4048 C 0.04146 0.71163 0.05333 0.0
C4049 C 0.06202 0.72521 0.06681 0.0
C4050 C 0.03763 0.68745 0.04771 0.0
C4051 C 0.05433 0.67608 0.05636 0.0
C4052 C 0.07492 0.6898 0.07032 0.0
C4053 C 0.07859 0.71393 0.07498 0.0
C4054 C 0.0157 0.67404 0.03224 0.0
C4055 C 0.09311 0.67896 0.08065 0.0
C4056 C 0.03592 0.61135 0.06107 0.0
C4057 C 0.04365 0.60084 0.04152 0.0
C4058 C 0.03915 0.63543 0.06598 0.0
C4059 C 0.05037 0.65001 0.05101 0.0
C4060 C 0.05817 0.6395 0.0312 0.0
C4061 C 0.0548 0.61537 0.0268 0.0
C4062 C 0.03053 0.64529 0.0874 0.0
C4063 C 0.0701 0.65377 0.01444 0.0
H4064 H 0.0285 0.71996 0.04678 0.0
H4065 H 0.09448 0.72406 0.08552 0.0
H4066 H 0.01958 0.66367 0.01676 0.0
H4067 H 0.00563 0.66202 0.04242 0.0
H4068 H 1.00502 0.68525 0.02562 0.0
H4069 H 0.10771 0.69168 0.09195 0.0
H4070 H 0.08568 0.66602 0.09155 0.0
H4071 H 0.09968 0.66995 0.06613 0.0
H4072 H 0.0275 0.60072 0.07287 0.0
H4073 H 0.06053 0.60786 0.01138 0.0
H4074 H 0.0167 0.65347 0.08154 0.0
H4075 H 0.04449 0.6587 0.09873 0.0
H4076 H 0.02377 0.63209 0.09833 0.0
H4077 H 0.06005 0.6658 0.00865 0.0
H4078 H 0.07276 0.64316 -0.00157 0.0
H4079 H 0.08702 0.66412 0.02376 0.0
C4080 C 0.05587 0.27832 0.86828 0.0
C4081 C 0.05517 0.2743 0.89183 0.0
C4082 C 0.07623 0.28086 0.85848 0.0
C4083 C 0.09659 0.2794 0.87252 0.0
C4084 C 0.09602 0.27505 0.89624 0.0
C4085 C 0.07535 0.27259 0.90561 0.0
C4086 C 0.07599 0.28534 0.83306 0.0
C4087 C 0.11727 0.27341 0.91187 0.0
C4088 C 0.14109 0.26893 0.83429 0.0
C4089 C 0.15284 0.29133 0.83306 0.0
C4090 C 0.12385 0.26456 0.84866 0.0
C4091 C 0.11835 0.28306 0.86214 0.0
C4092 C 0.1317 0.30555 0.86255 0.0
C4093 C 0.14861 0.30944 0.84777 0.0
C4094 C 0.11027 0.24031 0.84781 0.0
C4095 C 0.12693 0.32571 0.87714 0.0
H4096 H 0.04045 0.27963 0.85741 0.0
H4097 H 0.07506 0.26949 0.92384 0.0
H4098 H 0.08771 0.30216 0.83256 0.0
H4099 H 0.08225 0.27219 0.82259 0.0
H4100 H 0.05865 0.28531 0.82427 0.0
H4101 H 0.11343 0.26718 0.92876 0.0
H4102 H 0.12602 0.26181 0.90241 0.0
H4103 H 0.12942 0.2905 0.91623 0.0
H4104 H 0.14432 0.25496 0.82278 0.0
H4105 H 0.15774 0.32677 0.84677 0.0
H4106 H 0.09335 0.23777 0.8367 0.0
H4107 H 0.10719 0.23677 0.86586 0.0
H4108 H 0.11905 0.22775 0.84008 0.0
H4109 H 0.11077 0.32901 0.86882 0.0
H4110 H 0.14088 0.34143 0.87842 0.0
H4111 H 0.12471 0.32208 0.89536 0.0
C4112 C 0.53164 0.737 0.89012 0.0
C4113 C 0.54978 0.75614 0.89859 0.0
C4114 C 0.52967 0.7169 0.90041 0.0
C4115 C 0.54639 0.71586 0.91955 0.0
C4116 C 0.56569 0.73464 0.92693 0.0
C4117 C 0.56696 0.75474 0.91662 0.0
C4118 C 0.5087 0.69746 0.89203 0.0
C4119 C 0.58422 0.73407 0.94677 0.0
C4120 C 0.52186 0.67806 0.96323 0.0
C4121 C 0.52682 0.65738 0.95532 0.0
C4122 C 0.52934 0.69759 0.95263 0.0
C4123 C 0.54199 0.69638 0.93351 0.0
C4124 C 0.54816 0.67581 0.92639 0.0
C4125 C 0.54035 0.65646 0.9373 0.0
C4126 C 0.52241 0.71912 0.96093 0.0
C4127 C 0.56185 0.67384 0.90634 0.0
H4128 H 0.5181 0.73833 0.87654 0.0
H4129 H 0.58077 0.76973 0.92345 0.0
H4130 H 0.51365 0.68112 0.88834 0.0
H4131 H 0.49783 0.69574 0.90625 0.0
H4132 H 0.49833 0.70014 0.87572 0.0
H4133 H 0.59973 0.74818 0.94763 0.0
H4134 H 0.57779 0.73571 0.96402 0.0
H4135 H 0.58908 0.71755 0.94447 0.0
H4136 H 0.51118 0.67863 0.97701 0.0
H4137 H 0.54392 0.64034 0.93101 0.0
H4138 H 0.51031 0.72271 0.94658 0.0
H4139 H 0.53756 0.7339 0.96488 0.0
H4140 H 0.51407 0.71778 0.97709 0.0
H4141 H 0.55076 0.67271 0.88914 0.0
H4142 H 0.56874 0.65843 0.90585 0.0
H4143 H 0.57627 0.68917 0.90799 0.0
C4144 C 0.10508 0.76156 0.71202 0.0
C4145 C 0.09192 0.76061 0.73064 0.0
C4146 C 0.12919 0.76448 0.71623 0.0
C4147 C 0.14108 0.7675 0.73982 0.0
C4148 C 0.12794 0.76727 0.75877 0.0
C4149 C 0.10371 0.76336 0.75396 0.0
C4150 C 0.14186 0.76356 0.69524 0.0
C4151 C 0.1395 0.7712 0.78427 0.0
C4152 C 0.20045 0.75394 0.75149 0.0
C4153 C 0.21602 0.77529 0.7527 0.0
C4154 C 0.17637 0.75115 0.74707 0.0
C4155 C 0.16702 0.77029 0.74453 0.0
C4156 C 0.18263 0.792 0.74628 0.0
C4157 C 0.20663 0.79415 0.74999 0.0
C4158 C 0.16087 0.72754 0.74491 0.0
C4159 C 0.17401 0.81318 0.74459 0.0
H4160 H 0.09637 0.75906 0.69388 0.0
H4161 H 0.09396 0.76262 0.76859 0.0
H4162 H 0.15516 0.7797 0.69637 0.0
H4163 H 0.15074 0.74954 0.69552 0.0
H4164 H 0.13031 0.76074 0.678 0.0
H4165 H 0.12733 0.77234 0.79706 0.0
H4166 H 0.14758 0.75707 0.78768 0.0
H4167 H 0.1533 0.78721 0.78773 0.0
H4168 H 0.20704 0.73923 0.75382 0.0
H4169 H 0.21811 0.81089 0.75141 0.0
H4170 H 0.14911 0.72347 0.72772 0.0
H4171 H 0.15016 0.7268 0.75926 0.0
H4172 H 0.17055 0.71421 0.74599 0.0
H4173 H 0.16447 0.81215 0.72656 0.0
H4174 H 0.18813 0.82899 0.74817 0.0
H4175 H 0.16197 0.81449 0.75747 0.0
C4176 C 0.04716 0.3833 0.43523 0.0
C4177 C 0.05473 0.38078 0.41298 0.0
C4178 C 0.04603 0.40453 0.44679 0.0
C4179 C 0.05333 0.42445 0.43646 0.0
C4180 C 0.06243 0.42247 0.41476 0.0
C4181 C 0.06286 0.40065 0.40314 0.0
C4182 C 0.03587 0.40538 0.46959 0.0
C4183 C 0.07102 0.44335 0.40347 0.0
C4184 C 0.02469 0.47186 0.45618 0.0
C4185 C 0.04083 0.48505 0.47515 0.0
C4186 C 0.02912 0.45294 0.44256 0.0
C4187 C 0.05014 0.44682 0.44811 0.0
C4188 C 0.06664 0.46049 0.46707 0.0
C4189 C 0.06175 0.47932 0.48036 0.0
C4190 C 0.0108 0.43886 0.42287 0.0
C4191 C 0.08916 0.45472 0.47397 0.0
H4192 H 0.04106 0.36828 0.44338 0.0
H4193 H 0.06867 0.39909 0.38603 0.0
H4194 H 0.04792 0.41763 0.48394 0.0
H4195 H 0.02 0.41145 0.46688 0.0
H4196 H 0.0316 0.38845 0.47571 0.0
H4197 H 0.07933 0.4394 0.38783 0.0
H4198 H 0.05655 0.45073 0.39768 0.0
H4199 H 0.08346 0.45659 0.41666 0.0
H4200 H 0.00839 0.47608 0.45228 0.0
H4201 H 0.07417 0.48936 0.49518 0.0
H4202 H 1.00394 0.4218 0.42786 0.0
H4203 H 0.0181 0.43615 0.40627 0.0
H4204 H 0.99642 0.44701 0.41922 0.0
H4205 H 0.08622 0.439 0.48241 0.0
H4206 H 0.10133 0.46865 0.4867 0.0
H4207 H 0.09714 0.45128 0.45797 0.0
C4208 C 0.44664 0.26249 0.21315 0.0
C4209 C 0.45926 0.25022 0.22663 0.0
C4210 C 0.42505 0.26556 0.21827 0.0
C4211 C 0.41534 0.25635 0.23755 0.0
C4212 C 0.42813 0.24419 0.25136 0.0
C4213 C 0.44955 0.24122 0.24575 0.0
C4214 C 0.41253 0.27866 0.20284 0.0
C4215 C 0.41911 0.23416 0.27222 0.0
C4216 C 0.36922 0.2809 0.26559 0.0
C4217 C 0.34838 0.26511 0.25555 0.0
C4218 C 0.39071 0.27847 0.25974 0.0
C4219 C 0.39211 0.25952 0.24346 0.0
C4220 C 0.37119 0.24335 0.23341 0.0
C4221 C 0.34987 0.24633 0.23942 0.0
C4222 C 0.41206 0.29638 0.27108 0.0
C4223 C 0.37128 0.22268 0.21623 0.0
H4224 H 0.45352 0.26954 0.19828 0.0
H4225 H 0.45875 0.23171 0.25649 0.0
H4226 H 0.39538 0.2678 0.19479 0.0
H4227 H 0.40985 0.29376 0.21386 0.0
H4228 H 0.42194 0.28454 0.18836 0.0
H4229 H 0.43097 0.2254 0.28148 0.0
H4230 H 0.41625 0.24783 0.2852 0.0
H4231 H 0.40235 0.22173 0.2661 0.0
H4232 H 0.36888 0.29527 0.27832 0.0
H4233 H 0.33426 0.2338 0.23137 0.0
H4234 H 0.42002 0.30518 0.25716 0.0
H4235 H 0.42475 0.2883 0.27995 0.0
H4236 H 0.40853 0.30934 0.28441 0.0
H4237 H 0.37892 0.22814 0.20057 0.0
H4238 H 0.35383 0.21155 0.20997 0.0
H4239 H 0.38204 0.2125 0.22482 0.0
C4240 C 0.61282 0.54358 0.3688 0.0
C4241 C 0.59613 0.54051 0.34871 0.0
C4242 C 0.60659 0.54108 0.39142 0.0
C4243 C 0.58314 0.53444 0.39383 0.0
C4244 C 0.5663 0.53018 0.37329 0.0
C4245 C 0.57299 0.53378 0.35111 0.0
C4246 C 0.62504 0.54671 0.41292 0.0
C4247 C 0.54116 0.52239 0.37483 0.0
C4248 C 0.56743 0.51219 0.4509 0.0
C4249 C 0.56076 0.53059 0.46239 0.0
C4250 C 0.57449 0.51305 0.42843 0.0
C4251 C 0.57611 0.53325 0.4179 0.0
C4252 C 0.57031 0.55223 0.43011 0.0
C4253 C 0.56204 0.5504 0.45183 0.0
C4254 C 0.57936 0.49206 0.41555 0.0
C4255 C 0.57273 0.57447 0.4202 0.0
H4256 H 0.63071 0.54921 0.36702 0.0
H4257 H 0.56009 0.53151 0.33558 0.0
H4258 H 0.62251 0.561 0.42534 0.0
H4259 H 0.62393 0.53186 0.42264 0.0
H4260 H 0.64246 0.55165 0.4081 0.0
H4261 H 0.53051 0.51708 0.35698 0.0
H4262 H 0.53804 0.50786 0.38509 0.0
H4263 H 0.53544 0.53646 0.38437 0.0
H4264 H 0.56599 0.49673 0.45893 0.0
H4265 H 0.55684 0.56462 0.4608 0.0
H4266 H 0.59721 0.49593 0.41185 0.0
H4267 H 0.56796 0.48672 0.39815 0.0
H4268 H 0.57678 0.47755 0.42588 0.0
H4269 H 0.5902 0.58024 0.41575 0.0
H4270 H 0.56951 0.58817 0.4329 0.0
H4271 H 0.56049 0.572 0.40353 0.0
C4272 C 0.31187 0.88394 0.06745 0.0
C4273 C 0.29131 0.88677 0.05594 0.0
C4274 C 0.31333 0.87743 0.08988 0.0
C4275 C 0.2935 0.87326 0.10093 0.0
C4276 C 0.27288 0.87725 0.08997 0.0
C4277 C 0.27207 0.88425 0.0674 0.0
C4278 C 0.33595 0.87407 0.1012 0.0
C4279 C 0.25164 0.87329 0.10157 0.0
C4280 C 0.30451 0.82955 0.13713 0.0
C4281 C 0.317 0.84369 0.15767 0.0
C4282 C 0.29288 0.83858 0.11955 0.0
C4283 C 0.29455 0.86235 0.12252 0.0
C4284 C 0.30464 0.87605 0.14457 0.0
C4285 C 0.31588 0.86648 0.16201 0.0
C4286 C 0.28165 0.8233 0.0965 0.0
C4287 C 0.30641 0.90136 0.14865 0.0
H4288 H 0.32696 0.88678 0.05877 0.0
H4289 H 0.25637 0.88701 0.05847 0.0
H4290 H 0.34111 0.88397 0.11932 0.0
H4291 H 0.33426 0.85578 0.10283 0.0
H4292 H 0.34992 0.87949 0.0907 0.0
H4293 H 0.2385 0.88101 0.09292 0.0
H4294 H 0.2442 0.85468 0.10027 0.0
H4295 H 0.25581 0.88043 0.12075 0.0
H4296 H 0.30468 0.81166 0.13438 0.0
H4297 H 0.32509 0.87719 0.17833 0.0
H4298 H 0.29366 0.82535 0.08334 0.0
H4299 H 0.26595 0.82797 0.08901 0.0
H4300 H 0.27716 0.80504 0.09894 0.0
H4301 H 0.32261 0.91054 0.14338 0.0
H4302 H 0.30678 0.90748 0.16776 0.0
H4303 H 0.29203 0.90585 0.13798 0.0
C4304 C 0.91539 0.49899 0.87273 0.0
C4305 C 0.92511 0.51322 0.85728 0.0
C4306 C 0.92758 0.49908 0.89506 0.0
C4307 C 0.95009 0.51302 0.90118 0.0
C4308 C 0.95993 0.52729 0.88542 0.0
C4309 C 0.94703 0.52752 0.86367 0.0
C4310 C 0.91655 0.48432 0.91201 0.0
C4311 C 0.98421 0.54187 0.89126 0.0
C4312 C 0.98089 0.53299 0.9632 0.0
C4313 C 0.99572 0.51854 0.96472 0.0
C4314 C 0.96454 0.53017 0.94315 0.0
C4315 C 0.96366 0.51297 0.92408 0.0
C4316 C 0.97804 0.49781 0.92581 0.0
C4317 C 0.99398 0.50074 0.94633 0.0
C4318 C 0.94914 0.54639 0.94189 0.0
C4319 C 0.97753 0.47941 0.90552 0.0
H4320 H 0.89834 0.48794 0.86733 0.0
H4321 H 0.95438 0.53814 0.85122 0.0
H4322 H 0.92649 0.47171 0.91611 0.0
H4323 H 0.91663 0.49502 0.92908 0.0
H4324 H 0.89863 0.47499 0.90467 0.0
H4325 H 0.98941 0.55135 0.87657 0.0
H4326 H 0.98607 0.55439 0.9075 0.0
H4327 H 0.99622 0.53101 0.89501 0.0
H4328 H 0.98235 0.54685 0.97743 0.0
H4329 H 0.00537 0.48946 0.9478 0.0
H4330 H 0.93121 0.53693 0.93493 0.0
H4331 H 0.95466 0.55856 0.92949 0.0
H4332 H 0.9496 0.55635 0.95954 0.0
H4333 H 0.95977 0.46915 0.89918 0.0
H4334 H 0.98832 0.46777 0.91064 0.0
H4335 H 0.98382 0.48744 0.89036 0.0
C4336 C 0.28754 0.21492 0.59947 0.0
C4337 C 0.27908 0.22797 0.58347 0.0
C4338 C 0.28931 0.22101 0.62428 0.0
C4339 C 0.28264 0.24074 0.63341 0.0
C4340 C 0.27497 0.25444 0.61738 0.0
C4341 C 0.27322 0.24789 0.59272 0.0
C4342 C 0.29755 0.20589 0.64069 0.0
C4343 C 0.26803 0.2758 0.62628 0.0
C4344 C 0.26419 0.24643 0.69488 0.0
C4345 C 0.28372 0.26123 0.70878 0.0
C4346 C 0.26374 0.23926 0.67049 0.0
C4347 C 0.28332 0.24699 0.65965 0.0
C4348 C 0.30325 0.26152 0.67375 0.0
C4349 C 0.30322 0.26838 0.69804 0.0
C4350 C 0.24217 0.22361 0.65623 0.0
C4351 C 0.32452 0.27023 0.66308 0.0
H4352 H 0.29196 0.19941 0.59261 0.0
H4353 H 0.26671 0.25817 0.58061 0.0
H4354 H 0.31182 0.2161 0.65444 0.0
H4355 H 0.28349 0.19813 0.65012 0.0
H4356 H 0.30343 0.19197 0.63099 0.0
H4357 H 0.26329 0.28511 0.61161 0.0
H4358 H 0.25322 0.27132 0.63588 0.0
H4359 H 0.28224 0.28745 0.63909 0.0
H4360 H 0.24923 0.24043 0.70304 0.0
H4361 H 0.31852 0.2797 0.70856 0.0
H4362 H 0.24606 0.20821 0.64705 0.0
H4363 H 0.23509 0.23245 0.64231 0.0
H4364 H 0.22886 0.21815 0.66748 0.0
H4365 H 0.33015 0.25572 0.65429 0.0
H4366 H 0.33888 0.28075 0.6766 0.0
H4367 H 0.32072 0.28073 0.64922 0.0
C4368 C 0.57852 0.55774 0.20597 0.0
C4369 C 0.59226 0.54484 0.21668 0.0
C4370 C 0.57252 0.55513 0.18115 0.0
C4371 C 0.58013 0.53898 0.16647 0.0
C4372 C 0.59356 0.5255 0.17708 0.0
C4373 C 0.59956 0.52865 0.20204 0.0
C4374 C 0.5584 0.57005 0.1706 0.0
C4375 C 0.60183 0.50796 0.16203 0.0
C4376 C 0.54614 0.5216 0.10399 0.0
C4377 C 0.5605 0.53469 0.09074 0.0
C4378 C 0.55287 0.5219 0.12843 0.0
C4379 C 0.57402 0.53644 0.14003 0.0
C4380 C 0.58858 0.54968 0.12653 0.0
C4381 C 0.58184 0.54823 0.1019 0.0
C4382 C 0.53714 0.507 0.14191 0.0
C4383 C 0.61086 0.56602 0.13821 0.0
H4384 H 0.57283 0.57038 0.21697 0.0
H4385 H 0.61024 0.51866 0.21003 0.0
H4386 H 0.56789 0.58018 0.15843 0.0
H4387 H 0.54229 0.5593 0.15987 0.0
H4388 H 0.55403 0.58198 0.18442 0.0
H4389 H 0.61119 0.49808 0.17297 0.0
H4390 H 0.58712 0.4959 0.15023 0.0
H4391 H 0.61335 0.51652 0.15042 0.0
H4392 H 0.52966 0.51105 0.09518 0.0
H4393 H 0.5929 0.55829 0.0915 0.0
H4394 H 0.53061 0.51783 0.15494 0.0
H4395 H 0.54666 0.49673 0.15208 0.0
H4396 H 0.52232 0.49522 0.12994 0.0
H4397 H 0.6074 0.57938 0.15112 0.0
H4398 H 0.62055 0.5745 0.12511 0.0
H4399 H 0.62175 0.55689 0.14831 0.0
C4400 C 0.31109 0.8682 0.93319 0.0
C4401 C 0.30489 0.88891 0.93575 0.0
C4402 C 0.30741 0.85502 0.91094 0.0
C4403 C 0.29837 0.86353 0.8909 0.0
C4404 C 0.2929 0.88494 0.89332 0.0
C4405 C 0.29573 0.89727 0.91606 0.0
C4406 C 0.31267 0.83182 0.90901 0.0
C4407 C 0.28402 0.89462 0.872 0.0
C4408 C 0.30956 0.83223 0.8353 0.0
C4409 C 0.28802 0.81781 0.82691 0.0
C4410 C 0.31267 0.84895 0.855 0.0
C4411 C 0.29417 0.84951 0.86755 0.0
C4412 C 0.27243 0.8344 0.85945 0.0
C4413 C 0.26953 0.81889 0.83878 0.0
C4414 C 0.33586 0.86536 0.86292 0.0
C4415 C 0.25296 0.83313 0.8737 0.0
H4416 H 0.31801 0.86195 0.94878 0.0
H4417 H 0.29111 0.91347 0.91846 0.0
H4418 H 0.29731 0.81848 0.9001 0.0
H4419 H 0.32639 0.83142 0.898 0.0
H4420 H 0.31829 0.82734 0.92666 0.0
H4421 H 0.28249 0.91236 0.8768 0.0
H4422 H 0.29558 0.89449 0.85844 0.0
H4423 H 0.26695 0.88383 0.86363 0.0
H4424 H 0.32408 0.83 0.8269 0.0
H4425 H 0.25323 0.80658 0.83274 0.0
H4426 H 0.34242 0.86459 0.88165 0.0
H4427 H 0.33426 0.88305 0.86201 0.0
H4428 H 0.34869 0.86178 0.85176 0.0
H4429 H 0.25753 0.82695 0.89069 0.0
H4430 H 0.2368 0.82139 0.86405 0.0
H4431 H 0.24992 0.85026 0.87824 0.0
C4432 C 0.91874 0.54126 0.72231 0.0
C4433 C 0.93336 0.54237 0.74357 0.0
C4434 C 0.926 0.53679 0.70037 0.0
C4435 C 0.94823 0.53346 0.70008 0.0
C4436 C 0.96398 0.538 0.7214 0.0
C4437 C 0.95636 0.54265 0.74299 0.0
C4438 C 0.90907 0.53297 0.67782 0.0
C4439 C 0.988 0.53502 0.72173 0.0
C4440 C 0.95806 0.48601 0.65743 0.0
C4441 C 0.97133 0.49837 0.64277 0.0
C4442 C 0.94932 0.49728 0.67544 0.0
C4443 C 0.95386 0.52144 0.67862 0.0
C4444 C 0.96608 0.53391 0.663 0.0
C4445 C 0.97503 0.52226 0.6455 0.0
C4446 C 0.93605 0.48339 0.6917 0.0
C4447 C 0.97071 0.55958 0.66537 0.0
H4448 H 0.90097 0.54131 0.72271 0.0
H4449 H 0.96775 0.54397 0.7595 0.0
H4450 H 0.91761 0.53912 0.66291 0.0
H4451 H 0.90118 0.51441 0.67274 0.0
H4452 H 0.89519 0.54171 0.68026 0.0
H4453 H 0.99881 0.54182 0.73931 0.0
H4454 H 0.98733 0.51658 0.71764 0.0
H4455 H 0.99628 0.54374 0.70794 0.0
H4456 H 0.95475 0.46755 0.65502 0.0
H4457 H 0.98552 0.53203 0.63442 0.0
H4458 H 0.91935 0.48767 0.69233 0.0
H4459 H 0.94568 0.4876 0.71006 0.0
H4460 H 0.93289 0.46473 0.68593 0.0
H4461 H 0.9562 0.56576 0.67127 0.0
H4462 H 0.97394 0.56568 0.64828 0.0
H4463 H 0.9861 0.56736 0.67884 0.0
C4464 C 0.29474 0.21186 0.43984 0.0
C4465 C 0.27395 0.213 0.44753 0.0
C4466 C 0.29888 0.21657 0.41697 0.0
C4467 C 0.28155 0.22181 0.40121 0.0
C4468 C 0.26009 0.22164 0.4085 0.0
C4469 C 0.25671 0.21763 0.43159 0.0
C4470 C 0.3222 0.21724 0.41021 0.0
C4471 C 0.24086 0.2265 0.39218 0.0
C4472 C 0.29188 0.26285 0.35665 0.0
C4473 C 0.28933 0.24854 0.33494 0.0
C4474 C 0.29198 0.25441 0.37838 0.0
C4475 C 0.28649 0.23058 0.37854 0.0
C4476 C 0.28304 0.21571 0.35672 0.0
C4477 C 0.28548 0.22489 0.33534 0.0
C4478 C 0.29687 0.27115 0.40112 0.0
C4479 C 0.27554 0.19017 0.35576 0.0
H4480 H 0.30808 0.20816 0.452 0.0
H4481 H 0.2404 0.21808 0.43718 0.0
H4482 H 0.32065 0.20693 0.39256 0.0
H4483 H 0.33089 0.23508 0.40879 0.0
H4484 H 0.33313 0.21081 0.42346 0.0
H4485 H 0.2243 0.22221 0.39902 0.0
H4486 H 0.24489 0.24489 0.39034 0.0
H4487 H 0.23883 0.21668 0.37416 0.0
H4488 H 0.29287 0.28071 0.35692 0.0
H4489 H 0.283 0.21344 0.31877 0.0
H4490 H 0.30812 0.26588 0.41504 0.0
H4491 H 0.28064 0.2716 0.40791 0.0
H4492 H 0.30525 0.28871 0.39836 0.0
H4493 H 0.28847 0.18411 0.36694 0.0
H4494 H 0.2729 0.18096 0.33734 0.0
H4495 H 0.25929 0.18564 0.36308 0.0
C4496 C 0.3366 0.5922 0.56457 0.0
C4497 C 0.31756 0.58359 0.54675 0.0
C4498 C 0.3574 0.58684 0.56209 0.0
C4499 C 0.35901 0.57318 0.54105 0.0
C4500 C 0.33925 0.5627 0.52416 0.0
C4501 C 0.31859 0.56788 0.52741 0.0
C4502 C 0.37783 0.59722 0.5811 0.0
C4503 C 0.34026 0.54777 0.50152 0.0
C4504 C 0.40876 0.58492 0.5082 0.0
C4505 C 0.41498 0.56415 0.5078 0.0
C4506 C 0.39173 0.58919 0.52104 0.0
C4507 C 0.38145 0.5726 0.53442 0.0
C4508 C 0.38987 0.55315 0.53681 0.0
C4509 C 0.40615 0.54879 0.52295 0.0
C4510 C 0.38317 0.6103 0.51826 0.0
C4511 C 0.38012 0.53588 0.55217 0.0
H4512 H 0.33556 0.60393 0.57991 0.0
H4513 H 0.30373 0.56096 0.51384 0.0
H4514 H 0.39 0.58618 0.58219 0.0
H4515 H 0.38697 0.61395 0.57692 0.0
H4516 H 0.37245 0.60027 0.5988 0.0
H4517 H 0.32306 0.54013 0.49092 0.0
H4518 H 0.351 0.55804 0.49036 0.0
H4519 H 0.34821 0.53373 0.50565 0.0
H4520 H 0.41621 0.59727 0.49737 0.0
H4521 H 0.41069 0.5326 0.52294 0.0
H4522 H 0.38237 0.61942 0.53591 0.0
H4523 H 0.36558 0.60529 0.50809 0.0
H4524 H 0.39419 0.62229 0.50875 0.0
H4525 H 0.37622 0.54445 0.56878 0.0
H4526 H 0.3921 0.52522 0.55689 0.0
H4527 H 0.36391 0.5244 0.54241 0.0
C4528 C 0.88579 0.91909 0.5292 0.0
C4529 C 0.86858 0.92447 0.5413 0.0
C4530 C 0.90496 0.93593 0.52667 0.0
C4531 C 0.90738 0.95875 0.53706 0.0
C4532 C 0.88988 0.96447 0.54895 0.0
C4533 C 0.87041 0.94724 0.55063 0.0
C4534 C 0.92289 0.92914 0.5133 0.0
C4535 C 0.8921 0.98859 0.56049 0.0
C4536 C 0.96973 0.99074 0.55113 0.0
C4537 C 0.97229 1.00256 0.53167 0.0
C4538 C 0.94828 0.97771 0.55399 0.0
C4539 C 0.92903 0.97603 0.53662 0.0
C4540 C 0.93139 0.98868 0.51739 0.0
C4541 C 0.95302 1.00205 0.51529 0.0
C4542 C 0.94649 0.96477 0.57493 0.0
C4543 C 0.91148 0.98688 0.49814 0.0
H4544 H 0.8842 0.90156 0.52151 0.0
H4545 H 0.85706 0.95143 0.55987 0.0
H4546 H 0.92677 0.94028 0.49954 0.0
H4547 H 0.93899 0.93137 0.52575 0.0
H4548 H 0.91742 0.91109 0.5045 0.0
H4549 H 0.87659 0.99049 0.56811 0.0
H4550 H 0.90703 0.99371 0.57494 0.0
H4551 H 0.8953 1.00056 0.54736 0.0
H4552 H 0.98465 0.99132 0.56392 0.0
H4553 H 0.95507 0.01105 0.50012 0.0
H4554 H 0.94347 0.94623 0.56865 0.0
H4555 H 0.93177 0.96725 0.58369 0.0
H4556 H 0.96227 0.97018 0.58833 0.0
H4557 H 0.90738 0.96984 0.48707 0.0
H4558 H 0.91529 1.00012 0.48638 0.0
H4559 H 0.89602 0.98846 0.50598 0.0
C4560 C 0.90048 0.08418 0.26462 0.0
C4561 C 0.88706 0.06333 0.25196 0.0
C4562 C 0.89114 0.10302 0.26893 0.0
C4563 C 0.86775 0.10094 0.26055 0.0
C4564 C 0.85437 0.08029 0.24687 0.0
C4565 C 0.86419 0.06172 0.2427 0.0
C4566 C 0.90608 0.12486 0.28336 0.0
C4567 C 0.82944 0.07755 0.23747 0.0
C4568 C 0.84088 0.13784 0.30005 0.0
C4569 C 0.84219 0.15707 0.28848 0.0
C4570 C 0.84827 0.11909 0.29058 0.0
C4571 C 0.85682 0.11934 0.2687 0.0
C4572 C 0.85655 0.13797 0.25598 0.0
C4573 C 0.84928 0.15675 0.2661 0.0
C4574 C 0.8483 0.09967 0.30482 0.0
C4575 C 0.86533 0.13881 0.2325 0.0
H4576 H 0.91825 0.08571 0.27156 0.0
H4577 H 0.85373 0.04574 0.23275 0.0
H4578 H 0.90499 0.13957 0.27389 0.0
H4579 H 0.89995 0.12798 0.30061 0.0
H4580 H 0.9243 0.1243 0.28699 0.0
H4581 H 0.82199 0.0613 0.22518 0.0
H4582 H 0.8196 0.07782 0.25254 0.0
H4583 H 0.82728 0.092 0.22799 0.0
H4584 H 0.8351 0.138 0.31723 0.0
H4585 H 0.85039 0.17166 0.25717 0.0
H4586 H 0.86618 0.09906 0.3108 0.0
H4587 H 0.83953 0.08313 0.29363 0.0
H4588 H 0.83976 0.10148 0.32075 0.0
H4589 H 0.8843 0.14391 0.23579 0.0
H4590 H 0.85918 0.15139 0.22249 0.0
H4591 H 0.86002 0.12181 0.22127 0.0
C4592 C 0.69272 0.08137 0.05493 0.0
C4593 C 0.70627 0.09177 0.03941 0.0
C4594 C 0.66964 0.071 0.04714 0.0
C4595 C 0.66008 0.07184 0.0235 0.0
C4596 C 0.67409 0.08103 0.00732 0.0
C4597 C 0.69732 0.09075 0.01549 0.0
C4598 C 0.65516 0.061 0.06484 0.0
C4599 C 0.66424 0.08254 0.98221 0.0
C4600 C 0.60087 0.03494 0.01213 0.0
C4601 C 0.58934 0.05051 0.02125 0.0
C4602 C 0.62379 0.04226 0.00958 0.0
C4603 C 0.63511 0.06546 0.01705 0.0
C4604 C 0.62268 0.0816 0.02373 0.0
C4605 C 0.59966 0.07381 0.02576 0.0
C4606 C 0.63644 0.02475 0.00191 0.0
C4607 C 0.63426 0.10655 0.03176 0.0
H4608 H 0.69988 0.08263 0.07348 0.0
H4609 H 0.70796 0.09944 0.00379 0.0
H4610 H 0.64351 0.07195 0.06921 0.0
H4611 H 0.64442 0.04375 0.05715 0.0
H4612 H 0.66572 0.05967 0.08163 0.0
H4613 H 0.67778 0.0869 0.97095 0.0
H4614 H 0.65203 0.06623 0.97384 0.0
H4615 H 0.6546 0.09597 0.98255 0.0
H4616 H 0.59247 0.01686 0.00867 0.0
H4617 H 0.59041 0.08561 0.03296 0.0
H4618 H 0.64559 0.02017 0.01791 0.0
H4619 H 0.64936 0.03164 0.99081 0.0
H4620 H 0.62456 0.00894 0.99175 0.0
H4621 H 0.64378 0.10871 0.05002 0.0
H4622 H 0.62169 0.11722 0.03203 0.0
H4623 H 0.64674 0.11294 0.02002 0.0
C4624 C 0.23011 0.48434 0.22327 0.0
C4625 C 0.24036 0.50446 0.23902 0.0
C4626 C 0.23608 0.46403 0.22673 0.0
C4627 C 0.25212 0.46413 0.24677 0.0
C4628 C 0.26442 0.48498 0.26102 0.0
C4629 C 0.25847 0.50514 0.25675 0.0
C4630 C 0.22322 0.44228 0.21068 0.0
C4631 C 0.28165 0.48563 0.28263 0.0
C4632 C 0.24352 0.41982 0.28694 0.0
C4633 C 0.26262 0.41117 0.28464 0.0
C4634 C 0.23838 0.43561 0.27271 0.0
C4635 C 0.25283 0.44273 0.25595 0.0
C4636 C 0.2705 0.43206 0.25168 0.0
C4637 C 0.27537 0.41642 0.26631 0.0
C4638 C 0.21881 0.44616 0.27716 0.0
C4639 C 0.28551 0.43864 0.23322 0.0
H4640 H 0.21606 0.48411 0.20951 0.0
H4641 H 0.26609 0.52081 0.26895 0.0
H4642 H 0.23365 0.42957 0.20942 0.0
H4643 H 0.20757 0.43462 0.21792 0.0
H4644 H 0.21779 0.44575 0.19252 0.0
H4645 H 0.2914 0.50332 0.29016 0.0
H4646 H 0.27264 0.47796 0.29659 0.0
H4647 H 0.29393 0.47546 0.27813 0.0
H4648 H 0.23325 0.415 0.30059 0.0
H4649 H 0.29 0.4094 0.26432 0.0
H4650 H 0.20802 0.44631 0.26015 0.0
H4651 H 0.2257 0.46412 0.28585 0.0
H4652 H 0.20782 0.43686 0.28882 0.0
H4653 H 0.27534 0.44163 0.21697 0.0
H4654 H 0.29455 0.42529 0.22823 0.0
H4655 H 0.29853 0.45476 0.24048 0.0
C4656 C 0.23556 0.41844 0.04394 0.0
C4657 C 0.25432 0.42798 0.0331 0.0
C4658 C 0.21618 0.42746 0.04306 0.0
C4659 C 0.21539 0.44615 0.03065 0.0
C4660 C 0.23465 0.45638 0.02053 0.0
C4661 C 0.25388 0.44726 0.02201 0.0
C4662 C 0.19627 0.4163 0.05453 0.0
C4663 C 0.23456 0.47632 0.00709 0.0
C4664 C 0.16189 0.45464 0.99608 0.0
C4665 C 0.1599 0.47507 0.00864 0.0
C4666 C 0.17866 0.4438 0.00427 0.0
C4667 C 0.1938 0.4536 0.02563 0.0
C4668 C 0.19018 0.47279 0.03975 0.0
C4669 C 0.17323 0.48341 0.03101 0.0
C4670 C 0.18156 0.42313 0.98883 0.0
C4671 C 0.20541 0.4832 0.06306 0.0
H4672 H 0.23582 0.40367 0.0528 0.0
H4673 H 0.26831 0.45485 0.01372 0.0
H4674 H 0.18808 0.42914 0.0627 0.0
H4675 H 0.1832 0.40434 0.04078 0.0
H4676 H 0.20165 0.40642 0.06839 0.0
H4677 H 0.25129 0.48304 0.00132 0.0
H4678 H 0.22122 0.47098 0.99108 0.0
H4679 H 0.23029 0.49038 0.01833 0.0
H4680 H 0.15134 0.44805 0.97891 0.0
H4681 H 0.17162 0.49916 0.0408 0.0
H4682 H 0.1834 0.40948 -0.00037 0.0
H4683 H 0.19739 0.42788 0.98082 0.0
H4684 H 0.1669 0.41616 0.97425 0.0
H4685 H 0.20849 0.46971 0.07361 0.0
H4686 H 0.19793 0.49516 0.07381 0.0
H4687 H 0.22225 0.49278 0.05955 0.0
C4688 C 0.86958 0.94938 0.25548 0.0
C4689 C 0.89041 0.9476 0.24828 0.0
C4690 C 0.85269 0.92966 0.25703 0.0
C4691 C 0.85704 0.90788 0.25168 0.0
C4692 C 0.87747 0.90605 0.24309 0.0
C4693 C 0.8937 0.92589 0.2412 0.0
C4694 C 0.83077 0.93229 0.26549 0.0
C4695 C 0.88304 0.88323 0.23752 0.0
C4696 C 0.83206 0.86038 0.28519 0.0
C4697 C 0.81874 0.84409 0.26659 0.0
C4698 C 0.84462 0.88136 0.28063 0.0
C4699 C 0.84173 0.88705 0.25733 0.0
C4700 C 0.82626 0.87147 0.23899 0.0
C4701 C 0.8158 0.84966 0.24359 0.0
C4702 C 0.86183 0.89682 0.30049 0.0
C4703 C 0.82096 0.87777 0.21457 0.0
H4704 H 0.86685 0.96609 0.26086 0.0
H4705 H 0.90957 0.92434 0.23519 0.0
H4706 H 0.81605 0.9181 0.25675 0.0
H4707 H 0.83239 0.93207 0.28494 0.0
H4708 H 0.82706 0.94876 0.26202 0.0
H4709 H 0.89974 0.88486 0.23102 0.0
H4710 H 0.88357 0.87483 0.25372 0.0
H4711 H 0.86959 0.87178 0.22378 0.0
H4712 H 0.83347 0.85634 0.30316 0.0
H4713 H 0.80496 0.83711 0.22935 0.0
H4714 H 0.85686 0.91306 0.3047 0.0
H4715 H 0.87896 0.90105 0.29487 0.0
H4716 H 0.86327 0.88891 0.31697 0.0
H4717 H 0.81652 0.89453 0.21615 0.0
H4718 H 0.80655 0.86481 0.20328 0.0
H4719 H 0.83621 0.87956 0.20547 0.0
C4720 C 0.75118 0.12452 0.75645 0.0
C4721 C 0.73461 0.11179 0.76765 0.0
C4722 C 0.757 0.14832 0.76138 0.0
C4723 C 0.74523 0.15922 0.77717 0.0
C4724 C 0.72963 0.14633 0.78973 0.0
C4725 C 0.72501 0.12257 0.78529 0.0
C4726 C 0.77407 0.16174 0.74796 0.0
C4727 C 0.71588 0.1574 0.80558 0.0
C4728 C 0.77356 0.22127 0.79233 0.0
C4729 C 0.76291 0.22952 0.77346 0.0
C4730 C 0.76612 0.19856 0.79552 0.0
C4731 C 0.74818 0.18398 0.77887 0.0
C4732 C 0.73607 0.19283 0.76096 0.0
C4733 C 0.74384 0.2157 0.75832 0.0
C4734 C 0.77917 0.18966 0.81492 0.0
C4735 C 0.71655 0.17779 0.74309 0.0
H4736 H 0.758 0.11599 0.74238 0.0
H4737 H 0.71158 0.11247 0.79326 0.0
H4738 H 0.76502 0.16972 0.73456 0.0
H4739 H 0.7866 0.17569 0.76027 0.0
H4740 H 0.78352 0.15079 0.73857 0.0
H4741 H 0.70624 0.14516 0.81591 0.0
H4742 H 0.72709 0.17207 0.81811 0.0
H4743 H 0.70343 0.16415 0.79445 0.0
H4744 H 0.78871 0.23211 0.80357 0.0
H4745 H 0.73599 0.22238 0.74354 0.0
H4746 H 0.7907 0.18022 0.807 0.0
H4747 H 0.76737 0.17761 0.82361 0.0
H4748 H 0.78969 0.20372 0.82872 0.0
H4749 H 0.72354 0.16857 0.72907 0.0
H4750 H 0.70582 0.18796 0.73436 0.0
H4751 H 0.70554 0.16486 0.7516 0.0
loop_
_geom_bond_atom_site_label_1
_geom_bond_atom_site_label_2
_geom_bond_distance
_geom_bond_site_symmetry_2
_ccdc_geom_bond_type
Zn0 O3 2.031 . S
Zn0 O5 2.049 . S
Zn0 O10 2.067 1_455 S
Zn1 O2 1.962 . S
Zn1 O4 1.986 . S
Zn1 O6 1.996 . S
Zn1 O9 1.943 . S
O2 Zn1 1.962 . S
O2 C7 1.254 . S
O3 Zn0 2.031 . S
O3 C7 1.269 . S
O4 Zn1 1.986 . S
O4 C11 1.262 . S
O5 Zn0 2.049 . S
O5 C13 1.260 . S
O6 Zn1 1.996 . S
O6 C13 1.257 . S
C7 O2 1.254 . S
C7 O3 1.269 . S
C8 O9 1.249 . S
C8 O10 1.270 1_455 S
O9 Zn1 1.943 . S
O9 C8 1.249 . S
O10 Zn0 2.067 1_655 S
O10 C8 1.270 1_655 S
C11 O4 1.262 . S
C11 O12 1.232 . S
O12 C11 1.232 . S
C13 O5 1.260 . S
C13 O6 1.257 . S
Zn14 O17 2.031 1_455 S
Zn14 O19 2.049 . S
Zn14 O24 2.067 . S
Zn15 O16 1.962 1_455 S
Zn15 O18 1.986 . S
Zn15 O20 1.996 . S
Zn15 O23 1.943 . S
O16 Zn15 1.962 1_655 S
O16 C21 1.254 . S
O17 Zn14 2.031 1_655 S
O17 C21 1.269 . S
O18 Zn15 1.986 . S
O18 C25 1.262 . S
O19 Zn14 2.049 . S
O19 C27 1.260 . S
O20 Zn15 1.996 . S
O20 C27 1.257 . S
C21 O16 1.254 . S
C21 O17 1.269 . S
C22 O23 1.249 . S
C22 O24 1.270 . S
O23 Zn15 1.943 . S
O23 C22 1.249 . S
O24 Zn14 2.067 . S
O24 C22 1.270 . S
C25 O18 1.262 . S
C25 O26 1.232 . S
O26 C25 1.232 . S
C27 O19 1.260 . S
C27 O20 1.257 . S
Zn28 O31 2.031 . S
Zn28 O33 2.049 . S
Zn28 O38 2.067 . S
Zn29 O30 1.962 . S
Zn29 O32 1.986 . S
Zn29 O34 1.996 . S
Zn29 O37 1.943 . S
O30 Zn29 1.962 . S
O30 C35 1.254 . S
O31 Zn28 2.031 . S
O31 C35 1.269 . S
O32 Zn29 1.986 . S
O32 C39 1.262 . S
O33 Zn28 2.049 . S
O33 C41 1.260 . S
O34 Zn29 1.996 . S
O34 C41 1.257 . S
C35 O30 1.254 . S
C35 O31 1.269 . S
C36 O37 1.249 . S
C36 O38 1.270 . S
O37 Zn29 1.943 . S
O37 C36 1.249 . S
O38 Zn28 2.067 . S
O38 C36 1.270 . S
C39 O32 1.262 . S
C39 O40 1.232 . S
O40 C39 1.232 . S
C41 O33 1.260 . S
C41 O34 1.257 . S
Zn42 O45 2.031 . S
Zn42 O47 2.049 . S
Zn42 O52 2.067 . S
Zn43 O44 1.962 . S
Zn43 O46 1.986 . S
Zn43 O48 1.996 . S
Zn43 O51 1.943 . S
O44 Zn43 1.962 . S
O44 C49 1.254 . S
O45 Zn42 2.031 . S
O45 C49 1.269 . S
O46 Zn43 1.986 . S
O46 C53 1.262 . S
O47 Zn42 2.049 . S
O47 C55 1.260 . S
O48 Zn43 1.996 . S
O48 C55 1.257 . S
C49 O44 1.254 . S
C49 O45 1.269 . S
C50 O51 1.249 . S
C50 O52 1.270 . S
O51 Zn43 1.943 . S
O51 C50 1.249 . S
O52 Zn42 2.067 . S
O52 C50 1.270 . S
C53 O46 1.262 . S
C53 O54 1.232 . S
O54 C53 1.232 . S
C55 O47 1.260 . S
C55 O48 1.257 . S
Zn56 O59 2.031 . S
Zn56 O61 2.049 . S
Zn56 O66 2.067 . S
Zn57 O58 1.962 . S
Zn57 O60 1.986 . S
Zn57 O62 1.996 . S
Zn57 O65 1.943 . S
O58 Zn57 1.962 . S
O58 C63 1.254 . S
O59 Zn56 2.031 . S
O59 C63 1.269 . S
O60 Zn57 1.986 . S
O60 C67 1.262 . S
O61 Zn56 2.049 . S
O61 C69 1.260 . S
O62 Zn57 1.996 . S
O62 C69 1.257 . S
C63 O58 1.254 . S
C63 O59 1.269 . S
C64 O65 1.249 . S
C64 O66 1.270 . S
O65 Zn57 1.943 . S
O65 C64 1.249 . S
O66 Zn56 2.067 . S
O66 C64 1.270 . S
C67 O60 1.262 . S
C67 O68 1.232 . S
O68 C67 1.232 . S
C69 O61 1.260 . S
C69 O62 1.257 . S
Zn70 O73 2.031 . S
Zn70 O75 2.049 . S
Zn70 O80 2.067 . S
Zn71 O72 1.962 . S
Zn71 O74 1.986 . S
Zn71 O76 1.996 . S
Zn71 O79 1.943 . S
O72 Zn71 1.962 . S
O72 C77 1.254 . S
O73 Zn70 2.031 . S
O73 C77 1.269 . S
O74 Zn71 1.986 . S
O74 C81 1.262 . S
O75 Zn70 2.049 . S
O75 C83 1.260 . S
O76 Zn71 1.996 . S
O76 C83 1.257 . S
C77 O72 1.254 . S
C77 O73 1.269 . S
C78 O79 1.249 . S
C78 O80 1.270 . S
O79 Zn71 1.943 . S
O79 C78 1.249 . S
O80 Zn70 2.067 . S
O80 C78 1.270 . S
C81 O74 1.262 . S
C81 O82 1.232 . S
O82 C81 1.232 . S
C83 O75 1.260 . S
C83 O76 1.257 . S
Zn84 O87 2.031 . S
Zn84 O89 2.049 . S
Zn84 O94 2.067 . S
Zn85 O86 1.962 . S
Zn85 O88 1.986 . S
Zn85 O90 1.996 . S
Zn85 O93 1.943 . S
O86 Zn85 1.962 . S
O86 C91 1.254 . S
O87 Zn84 2.031 . S
O87 C91 1.269 . S
O88 Zn85 1.986 . S
O88 C95 1.262 . S
O89 Zn84 2.049 . S
O89 C97 1.260 . S
O90 Zn85 1.996 . S
O90 C97 1.257 . S
C91 O86 1.254 . S
C91 O87 1.269 . S
C92 O93 1.249 . S
C92 O94 1.270 . S
O93 Zn85 1.943 . S
O93 C92 1.249 . S
O94 Zn84 2.067 . S
O94 C92 1.270 . S
C95 O88 1.262 . S
C95 O96 1.232 . S
O96 C95 1.232 . S
C97 O89 1.260 . S
C97 O90 1.257 . S
Zn98 O101 2.031 . S
Zn98 O103 2.049 . S
Zn98 O108 2.067 . S
Zn99 O100 1.962 . S
Zn99 O102 1.986 . S
Zn99 O104 1.996 . S
Zn99 O107 1.943 1_455 S
O100 Zn99 1.962 . S
O100 C105 1.254 . S
O101 Zn98 2.031 . S
O101 C105 1.269 1_655 S
O102 Zn99 1.986 . S
O102 C109 1.262 . S
O103 Zn98 2.049 . S
O103 C111 1.260 . S
O104 Zn99 1.996 . S
O104 C111 1.257 1_455 S
C105 O100 1.254 . S
C105 O101 1.269 1_455 S
C106 O107 1.249 . S
C106 O108 1.270 . S
O107 Zn99 1.943 1_655 S
O107 C106 1.249 . S
O108 Zn98 2.067 . S
O108 C106 1.270 . S
C109 O102 1.262 . S
C109 O110 1.232 . S
O110 C109 1.232 . S
C111 O103 1.260 . S
C111 O104 1.257 1_655 S
Zn112 O115 2.031 . S
Zn112 O117 2.049 . S
Zn112 O122 2.067 . S
Zn113 O114 1.962 . S
Zn113 O116 1.986 . S
Zn113 O118 1.996 . S
Zn113 O121 1.943 1_545 S
O114 Zn113 1.962 . S
O114 C119 1.254 . S
O115 Zn112 2.031 . S
O115 C119 1.269 1_565 S
O116 Zn113 1.986 . S
O116 C123 1.262 . S
O117 Zn112 2.049 . S
O117 C125 1.263 1_565 S
O118 Zn113 1.996 . S
O118 C125 1.256 . S
C119 O114 1.254 . S
C119 O115 1.269 1_545 S
C120 O121 1.249 . S
C120 O122 1.270 . S
O121 Zn113 1.943 1_565 S
O121 C120 1.249 . S
O122 Zn112 2.067 . S
O122 C120 1.270 . S
C123 O116 1.262 . S
C123 O124 1.232 . S
O124 C123 1.232 . S
C125 O117 1.263 1_545 S
C125 O118 1.256 . S
Zn126 O129 2.031 . S
Zn126 O131 2.049 . S
Zn126 O136 2.067 . S
Zn127 O128 1.962 . S
Zn127 O130 1.986 . S
Zn127 O132 1.996 . S
Zn127 O135 1.943 . S
O128 Zn127 1.962 . S
O128 C133 1.254 . S
O129 Zn126 2.031 . S
O129 C133 1.269 . S
O130 Zn127 1.986 . S
O130 C137 1.262 . S
O131 Zn126 2.049 . S
O131 C139 1.260 . S
O132 Zn127 1.996 . S
O132 C139 1.257 . S
C133 O128 1.254 . S
C133 O129 1.269 . S
C134 O135 1.249 . S
C134 O136 1.270 . S
O135 Zn127 1.943 . S
O135 C134 1.249 . S
O136 Zn126 2.067 . S
O136 C134 1.270 . S
C137 O130 1.262 . S
C137 O138 1.232 . S
O138 C137 1.232 . S
C139 O131 1.260 . S
C139 O132 1.257 . S
Zn140 O143 2.031 . S
Zn140 O145 2.049 . S
Zn140 O150 2.067 . S
Zn141 O142 1.962 . S
Zn141 O144 1.986 . S
Zn141 O146 1.996 . S
Zn141 O149 1.943 . S
O142 Zn141 1.962 . S
O142 C147 1.254 . S
O143 Zn140 2.031 . S
O143 C147 1.269 . S
O144 Zn141 1.986 . S
O144 C151 1.262 . S
O145 Zn140 2.049 . S
O145 C153 1.260 . S
O146 Zn141 1.996 . S
O146 C153 1.257 . S
C147 O142 1.254 . S
C147 O143 1.269 . S
C148 O149 1.249 . S
C148 O150 1.270 . S
O149 Zn141 1.943 . S
O149 C148 1.249 . S
O150 Zn140 2.067 . S
O150 C148 1.270 . S
C151 O144 1.262 . S
C151 O152 1.232 . S
O152 C151 1.232 . S
C153 O145 1.260 . S
C153 O146 1.257 . S
Zn154 O157 2.031 1_554 S
Zn154 O159 2.049 . S
Zn154 O164 2.067 . S
Zn155 O156 1.962 . S
Zn155 O158 1.986 1_556 S
Zn155 O160 1.996 1_556 S
Zn155 O163 1.943 1_556 S
O156 Zn155 1.962 . S
O156 C161 1.254 . S
O157 Zn154 2.031 1_556 S
O157 C161 1.269 . S
O158 Zn155 1.986 1_554 S
O158 C165 1.262 1_554 S
O159 Zn154 2.049 . S
O159 C167 1.260 . S
O160 Zn155 1.996 1_554 S
O160 C167 1.257 . S
C161 O156 1.254 . S
C161 O157 1.269 . S
C162 O163 1.249 . S
C162 O164 1.270 . S
O163 Zn155 1.943 1_554 S
O163 C162 1.249 . S
O164 Zn154 2.067 . S
O164 C162 1.270 . S
C165 O158 1.262 1_556 S
C165 O166 1.232 . S
O166 C165 1.232 . S
C167 O159 1.260 . S
C167 O160 1.257 . S
Zn168 O171 2.031 . S
Zn168 O173 2.049 . S
Zn168 O178 2.067 . S
Zn169 O170 1.962 . S
Zn169 O172 1.986 . S
Zn169 O174 1.996 . S
Zn169 O177 1.943 . S
O170 Zn169 1.962 . S
O170 C175 1.258 . S
O171 Zn168 2.031 . S
O171 C175 1.273 . S
O172 Zn169 1.986 . S
O172 C179 1.262 . S
O173 Zn168 2.049 . S
O173 C181 1.260 . S
O174 Zn169 1.996 . S
O174 C181 1.257 . S
C175 O170 1.258 . S
C175 O171 1.273 . S
C176 O177 1.249 . S
C176 O178 1.270 . S
O177 Zn169 1.943 . S
O177 C176 1.249 . S
O178 Zn168 2.067 . S
O178 C176 1.270 . S
C179 O172 1.262 . S
C179 O180 1.232 . S
O180 C179 1.232 . S
C181 O173 1.260 . S
C181 O174 1.257 . S
Zn182 O185 2.031 . S
Zn182 O187 2.049 . S
Zn182 O192 2.067 . S
Zn183 O184 1.962 . S
Zn183 O186 1.986 . S
Zn183 O188 1.996 . S
Zn183 O191 1.943 . S
O184 Zn183 1.962 . S
O184 C189 1.254 . S
O185 Zn182 2.031 . S
O185 C189 1.269 . S
O186 Zn183 1.986 . S
O186 C193 1.262 . S
O187 Zn182 2.049 . S
O187 C195 1.260 . S
O188 Zn183 1.996 . S
O188 C195 1.257 . S
C189 O184 1.254 . S
C189 O185 1.269 . S
C190 O191 1.249 . S
C190 O192 1.270 . S
O191 Zn183 1.943 . S
O191 C190 1.249 . S
O192 Zn182 2.067 . S
O192 C190 1.270 . S
C193 O186 1.262 . S
C193 O194 1.232 . S
O194 C193 1.232 . S
C195 O187 1.260 . S
C195 O188 1.257 . S
Zn196 O199 2.031 . S
Zn196 O201 2.049 . S
Zn196 O206 2.067 . S
Zn197 O198 1.962 . S
Zn197 O200 1.986 . S
Zn197 O202 1.996 . S
Zn197 O205 1.943 . S
O198 Zn197 1.962 . S
O198 C203 1.254 . S
O199 Zn196 2.031 . S
O199 C203 1.269 . S
O200 Zn197 1.986 . S
O200 C207 1.262 . S
O201 Zn196 2.049 . S
O201 C209 1.260 . S
O202 Zn197 1.996 . S
O202 C209 1.257 . S
C203 O198 1.254 . S
C203 O199 1.269 . S
C204 O205 1.249 . S
C204 O206 1.270 . S
O205 Zn197 1.943 . S
O205 C204 1.249 . S
O206 Zn196 2.067 . S
O206 C204 1.270 . S
C207 O200 1.262 . S
C207 O208 1.232 . S
O208 C207 1.232 . S
C209 O201 1.260 . S
C209 O202 1.257 . S
Zn210 O213 2.031 . S
Zn210 O215 2.049 . S
Zn210 O220 2.067 . S
Zn211 O212 1.962 . S
Zn211 O214 1.986 . S
Zn211 O216 1.996 . S
Zn211 O219 1.943 . S
O212 Zn211 1.962 . S
O212 C217 1.254 . S
O213 Zn210 2.031 . S
O213 C217 1.269 . S
O214 Zn211 1.986 . S
O214 C221 1.262 . S
O215 Zn210 2.049 . S
O215 C223 1.260 . S
O216 Zn211 1.996 . S
O216 C223 1.257 . S
C217 O212 1.254 . S
C217 O213 1.269 . S
C218 O219 1.249 . S
C218 O220 1.270 . S
O219 Zn211 1.943 . S
O219 C218 1.249 . S
O220 Zn210 2.067 . S
O220 C218 1.270 . S
C221 O214 1.262 . S
C221 O222 1.232 . S
O222 C221 1.232 . S
C223 O215 1.260 . S
C223 O216 1.257 . S
Zn224 O227 2.031 . S
Zn224 O229 2.049 . S
Zn224 O234 2.067 . S
Zn225 O226 1.962 . S
Zn225 O228 1.986 . S
Zn225 O230 1.996 . S
Zn225 O233 1.943 1_545 S
O226 Zn225 1.962 . S
O226 C231 1.254 . S
O227 Zn224 2.031 . S
O227 C231 1.269 1_565 S
O228 Zn225 1.986 . S
O228 C235 1.262 . S
O229 Zn224 2.049 . S
O229 C237 1.260 1_565 S
O230 Zn225 1.996 . S
O230 C237 1.257 . S
C231 O226 1.254 . S
C231 O227 1.269 1_545 S
C232 O233 1.249 . S
C232 O234 1.270 . S
O233 Zn225 1.943 1_565 S
O233 C232 1.249 . S
O234 Zn224 2.067 . S
O234 C232 1.270 . S
C235 O228 1.262 . S
C235 O236 1.232 . S
O236 C235 1.232 . S
C237 O229 1.260 1_545 S
C237 O230 1.257 . S
Zn238 O241 2.031 . S
Zn238 O243 2.049 . S
Zn238 O248 2.067 . S
Zn239 O240 1.962 . S
Zn239 O242 1.986 . S
Zn239 O244 1.996 . S
Zn239 O247 1.943 . S
O240 Zn239 1.962 . S
O240 C245 1.254 . S
O241 Zn238 2.031 . S
O241 C245 1.269 . S
O242 Zn239 1.986 . S
O242 C249 1.262 . S
O243 Zn238 2.049 . S
O243 C251 1.260 . S
O244 Zn239 1.996 . S
O244 C251 1.257 . S
C245 O240 1.254 . S
C245 O241 1.269 . S
C246 O247 1.249 . S
C246 O248 1.270 . S
O247 Zn239 1.943 . S
O247 C246 1.249 . S
O248 Zn238 2.067 . S
O248 C246 1.270 . S
C249 O242 1.262 . S
C249 O250 1.232 . S
O250 C249 1.232 . S
C251 O243 1.260 . S
C251 O244 1.257 . S
Zn252 O255 2.031 . S
Zn252 O257 2.049 . S
Zn252 O262 2.067 . S
Zn253 O254 1.962 . S
Zn253 O256 1.986 . S
Zn253 O258 1.996 . S
Zn253 O261 1.943 . S
O254 Zn253 1.962 . S
O254 C259 1.254 . S
O255 Zn252 2.031 . S
O255 C259 1.269 . S
O256 Zn253 1.986 . S
O256 C263 1.262 . S
O257 Zn252 2.049 . S
O257 C265 1.260 . S
O258 Zn253 1.996 . S
O258 C265 1.257 . S
C259 O254 1.254 . S
C259 O255 1.269 . S
C260 O261 1.249 . S
C260 O262 1.270 . S
O261 Zn253 1.943 . S
O261 C260 1.249 . S
O262 Zn252 2.067 . S
O262 C260 1.270 . S
C263 O256 1.262 . S
C263 O264 1.232 . S
O264 C263 1.232 . S
C265 O257 1.260 . S
C265 O258 1.257 . S
Zn266 O269 2.031 . S
Zn266 O271 2.049 . S
Zn266 O276 2.067 . S
Zn267 O268 1.962 . S
Zn267 O270 1.986 . S
Zn267 O272 1.996 . S
Zn267 O275 1.943 . S
O268 Zn267 1.962 . S
O268 C273 1.254 . S
O269 Zn266 2.031 . S
O269 C273 1.269 . S
O270 Zn267 1.986 . S
O270 C277 1.262 . S
O271 Zn266 2.049 . S
O271 C279 1.260 . S
O272 Zn267 1.996 . S
O272 C279 1.257 . S
C273 O268 1.254 . S
C273 O269 1.269 . S
C274 O275 1.249 . S
C274 O276 1.270 . S
O275 Zn267 1.943 . S
O275 C274 1.249 . S
O276 Zn266 2.067 . S
O276 C274 1.270 . S
C277 O270 1.262 . S
C277 O278 1.232 . S
O278 C277 1.232 . S
C279 O271 1.260 . S
C279 O272 1.257 . S
Zn280 O283 2.031 1_554 S
Zn280 O285 2.049 . S
Zn280 O290 2.067 . S
Zn281 O282 1.962 1_554 S
Zn281 O284 1.986 . S
Zn281 O286 1.996 . S
Zn281 O289 1.943 . S
O282 Zn281 1.962 1_556 S
O282 C287 1.254 . S
O283 Zn280 2.031 1_556 S
O283 C287 1.269 . S
O284 Zn281 1.986 . S
O284 C291 1.262 . S
O285 Zn280 2.049 . S
O285 C293 1.260 . S
O286 Zn281 1.996 . S
O286 C293 1.257 . S
C287 O282 1.254 . S
C287 O283 1.269 . S
C288 O289 1.249 . S
C288 O290 1.270 . S
O289 Zn281 1.943 . S
O289 C288 1.249 . S
O290 Zn280 2.067 . S
O290 C288 1.270 . S
C291 O284 1.262 . S
C291 O292 1.232 1_554 S
O292 C291 1.232 1_556 S
C293 O285 1.260 . S
C293 O286 1.257 . S
Zn294 O297 2.031 . S
Zn294 O299 2.049 . S
Zn294 O304 2.067 . S
Zn295 O296 1.962 . S
Zn295 O298 1.986 . S
Zn295 O300 1.996 . S
Zn295 O303 1.943 . S
O296 Zn295 1.962 . S
O296 C301 1.254 . S
O297 Zn294 2.031 . S
O297 C301 1.269 . S
O298 Zn295 1.986 . S
O298 C305 1.262 . S
O299 Zn294 2.049 . S
O299 C307 1.260 . S
O300 Zn295 1.996 . S
O300 C307 1.257 . S
C301 O296 1.254 . S
C301 O297 1.269 . S
C302 O303 1.249 . S
C302 O304 1.270 . S
O303 Zn295 1.943 . S
O303 C302 1.249 . S
O304 Zn294 2.067 . S
O304 C302 1.270 . S
C305 O298 1.262 . S
C305 O306 1.232 . S
O306 C305 1.232 . S
C307 O299 1.260 . S
C307 O300 1.257 . S
Zn308 O311 2.031 . S
Zn308 O313 2.049 . S
Zn308 O318 2.067 . S
Zn309 O310 1.962 . S
Zn309 O312 1.986 . S
Zn309 O314 1.996 . S
Zn309 O317 1.943 . S
O310 Zn309 1.962 . S
O310 C315 1.254 . S
O311 Zn308 2.031 . S
O311 C315 1.269 . S
O312 Zn309 1.986 . S
O312 C319 1.262 . S
O313 Zn308 2.049 . S
O313 C321 1.260 . S
O314 Zn309 1.996 . S
O314 C321 1.257 . S
C315 O310 1.254 . S
C315 O311 1.269 . S
C316 O317 1.249 . S
C316 O318 1.270 . S
O317 Zn309 1.943 . S
O317 C316 1.249 . S
O318 Zn308 2.067 . S
O318 C316 1.270 . S
C319 O312 1.262 . S
C319 O320 1.232 . S
O320 C319 1.232 . S
C321 O313 1.260 . S
C321 O314 1.257 . S
Zn322 O325 2.031 . S
Zn322 O327 2.049 . S
Zn322 O332 2.067 . S
Zn323 O324 1.962 . S
Zn323 O326 1.986 . S
Zn323 O328 1.996 . S
Zn323 O331 1.943 . S
O324 Zn323 1.962 . S
O324 C329 1.254 . S
O325 Zn322 2.031 . S
O325 C329 1.269 . S
O326 Zn323 1.986 . S
O326 C333 1.262 . S
O327 Zn322 2.049 . S
O327 C335 1.260 . S
O328 Zn323 1.996 . S
O328 C335 1.257 . S
C329 O324 1.254 . S
C329 O325 1.269 . S
C330 O331 1.249 . S
C330 O332 1.270 . S
O331 Zn323 1.943 . S
O331 C330 1.249 . S
O332 Zn322 2.067 . S
O332 C330 1.270 . S
C333 O326 1.262 . S
C333 O334 1.232 . S
O334 C333 1.232 . S
C335 O327 1.260 . S
C335 O328 1.257 . S
C336 C338 1.422 1_556 S
C336 C340 1.415 . S
C336 N342 1.369 . S
C337 C338 1.421 . S
C337 C339 1.417 1_554 S
C337 C349 1.422 . S
C338 C336 1.422 1_554 S
C338 C337 1.421 . S
C338 N348 1.359 . S
C339 C337 1.417 1_556 S
C339 C341 1.329 . S
C339 H358 0.936 . S
C340 C336 1.415 . S
C340 C341 1.437 . S
C340 C344 1.413 . S
C341 C339 1.329 . S
C341 C340 1.437 . S
C341 H363 0.929 . S
N342 C336 1.369 . S
N342 C343 1.338 . S
N342 Gd347 2.628 1_566 S
C343 N342 1.338 . S
C343 C345 1.378 . S
C343 H355 0.929 . S
C344 C340 1.413 . S
C344 C345 1.348 . S
C344 H360 0.931 . S
C345 C343 1.378 . S
C345 C344 1.348 . S
C345 H361 0.930 . S
Gd346 N366 2.622 . S
Gd346 N373 2.570 . S
Gd346 O380 2.353 . S
Gd346 O381 2.468 . S
Gd346 O382 2.427 . S
Gd346 O384 2.388 . S
Gd346 O385 2.386 . S
Gd346 O389 2.307 . S
Gd346 C399 2.805 . S
Gd347 N342 2.628 1_544 S
Gd347 N348 2.593 1_545 S
Gd347 O379 2.355 1_645 S
Gd347 O383 2.299 1_655 S
Gd347 O386 2.348 1_655 S
Gd347 O387 2.510 . S
Gd347 O388 2.462 1_554 S
Gd347 O390 2.357 1_654 S
Gd347 C411 2.848 . S
N348 C338 1.359 . S
N348 Gd347 2.593 1_565 S
N348 C350 1.343 . S
C349 C337 1.422 . S
C349 C351 1.321 . S
C349 H357 0.931 . S
C350 N348 1.343 . S
C350 C351 1.390 . S
C350 H352 0.931 . S
C351 C349 1.321 . S
C351 C350 1.390 . S
C351 H353 0.930 . S
H352 C350 0.931 . S
H353 C351 0.930 . S
H354 C377 0.931 . S
H355 C343 0.929 . S
H356 C378 0.930 1_556 S
H357 C349 0.931 . S
H358 C339 0.936 . S
H359 C368 0.929 . S
H360 C344 0.931 . S
H361 C345 0.930 . S
H362 C400 0.930 . S
H363 C341 0.929 . S
H364 C369 0.931 . S
H365 C370 0.930 . S
N366 Gd346 2.622 . S
N366 C367 1.369 . S
N366 C368 1.338 . S
C367 N366 1.369 . S
C367 C371 1.415 . S
C367 C374 1.422 . S
C368 H359 0.929 . S
C368 N366 1.338 . S
C368 C370 1.378 . S
C369 H364 0.931 . S
C369 C370 1.348 . S
C369 C371 1.413 . S
C370 H365 0.930 . S
C370 C368 1.378 . S
C370 C369 1.348 . S
C371 C367 1.415 . S
C371 C369 1.413 . S
C371 C401 1.437 . S
H372 C401 0.929 . S
N373 Gd346 2.570 . S
N373 C374 1.359 . S
N373 C377 1.343 . S
C374 C367 1.422 . S
C374 N373 1.359 . S
C374 C376 1.421 . S
C375 C376 1.422 . S
C375 C378 1.321 . S
C375 H402 0.931 . S
C376 C374 1.421 . S
C376 C375 1.422 . S
C376 C400 1.417 . S
C377 H354 0.931 . S
C377 N373 1.343 . S
C377 C378 1.390 . S
C378 H356 0.930 1_554 S
C378 C375 1.321 . S
C378 C377 1.390 . S
O379 Gd347 2.355 1_465 S
O379 C391 1.265 . S
O380 Gd346 2.353 . S
O380 C391 1.242 1_545 S
O381 Gd346 2.468 . S
O381 C399 1.263 . S
O382 Gd346 2.427 . S
O382 C399 1.252 . S
O383 Gd347 2.299 1_455 S
O383 C392 1.261 . S
O384 Gd346 2.388 . S
O384 C392 1.252 . S
O385 Gd346 2.386 . S
O385 C403 1.265 . S
O386 Gd347 2.348 1_455 S
O386 C403 1.242 . S
O387 Gd347 2.510 . S
O387 C411 1.263 . S
O388 Gd347 2.462 1_556 S
O388 C411 1.252 1_556 S
O389 Gd346 2.307 . S
O389 C404 1.261 1_554 S
O390 Gd347 2.357 1_456 S
O390 C404 1.252 . S
C391 O379 1.265 . S
C391 O380 1.242 1_565 S
C392 O383 1.261 . S
C392 O384 1.252 . S
C393 C396 1.394 . S
C393 C398 1.370 . S
C393 C399 1.500 . S
C394 C397 1.383 . S
C394 C398 1.395 . S
C395 C396 1.396 . S
C395 C397 1.365 . S
C395 H412 0.929 . S
C396 C393 1.394 . S
C396 C395 1.396 . S
C396 H413 0.930 . S
C397 C394 1.383 . S
C397 C395 1.365 . S
C397 H414 0.931 . S
C398 C393 1.370 . S
C398 C394 1.395 . S
C398 H415 0.930 . S
C399 Gd346 2.805 . S
C399 O381 1.263 . S
C399 O382 1.252 . S
C399 C393 1.500 . S
C400 H362 0.930 . S
C400 C376 1.417 . S
C400 C401 1.329 . S
C401 C371 1.437 . S
C401 H372 0.929 . S
C401 C400 1.329 . S
H402 C375 0.931 . S
C403 O385 1.265 . S
C403 O386 1.242 . S
C404 O389 1.261 1_556 S
C404 O390 1.252 . S
C405 C408 1.360 1_554 S
C405 C410 1.399 . S
C405 C411 1.504 . S
C406 C409 1.383 1_554 S
C406 C410 1.395 . S
C407 C408 1.396 . S
C407 C409 1.365 . S
C407 H416 0.929 . S
C408 C405 1.360 1_556 S
C408 C407 1.396 . S
C408 H417 0.930 . S
C409 C406 1.383 1_556 S
C409 C407 1.365 . S
C409 H418 0.931 . S
C410 C405 1.399 . S
C410 C406 1.395 . S
C410 H419 0.930 . S
C411 Gd347 2.848 . S
C411 O387 1.263 . S
C411 O388 1.252 1_554 S
C411 C405 1.504 . S
H412 C395 0.929 . S
H413 C396 0.930 . S
H414 C397 0.931 . S
H415 C398 0.930 . S
H416 C407 0.929 . S
H417 C408 0.930 . S
H418 C409 0.931 . S
H419 C410 0.930 . S
C420 C422 1.422 . S
C420 C424 1.415 . S
C420 N426 1.369 . S
C421 C422 1.421 . S
C421 C423 1.417 . S
C421 C433 1.422 . S
C422 C420 1.422 . S
C422 C421 1.421 . S
C422 N432 1.359 . S
C423 C421 1.417 . S
C423 C425 1.329 . S
C423 H442 0.930 . S
C424 C420 1.415 . S
C424 C425 1.437 . S
C424 C428 1.413 . S
C425 C423 1.329 . S
C425 C424 1.437 . S
C425 H447 0.929 . S
N426 C420 1.369 . S
N426 C427 1.338 . S
N426 Gd431 2.622 . S
C427 N426 1.338 . S
C427 C429 1.378 . S
C427 H439 0.929 . S
C428 C424 1.413 . S
C428 C429 1.348 . S
C428 H444 0.931 . S
C429 C427 1.378 . S
C429 C428 1.348 . S
C429 H445 0.930 . S
Gd430 N450 2.622 . S
Gd430 N457 2.570 . S
Gd430 O464 2.353 . S
Gd430 O465 2.468 . S
Gd430 O466 2.427 . S
Gd430 O468 2.388 . S
Gd430 O469 2.386 . S
Gd430 O473 2.307 . S
Gd430 C483 2.805 . S
Gd431 N426 2.622 . S
Gd431 N432 2.570 . S
Gd431 O463 2.386 . S
Gd431 O467 2.307 . S
Gd431 O470 2.353 . S
Gd431 O471 2.468 . S
Gd431 O472 2.427 . S
Gd431 O474 2.388 . S
Gd431 C495 2.805 . S
N432 C422 1.359 . S
N432 Gd431 2.570 . S
N432 C434 1.343 . S
C433 C421 1.422 . S
C433 C435 1.321 . S
C433 H441 0.931 . S
C434 N432 1.343 . S
C434 C435 1.390 . S
C434 H436 0.931 . S
C435 C433 1.321 . S
C435 C434 1.390 . S
C435 H437 0.930 . S
H436 C434 0.931 . S
H437 C435 0.930 . S
H438 C461 0.931 . S
H439 C427 0.929 . S
H440 C462 0.930 . S
H441 C433 0.931 . S
H442 C423 0.930 . S
H443 C452 0.929 . S
H444 C428 0.931 . S
H445 C429 0.930 . S
H446 C484 0.930 . S
H447 C425 0.929 . S
H448 C453 0.931 . S
H449 C454 0.930 . S
N450 Gd430 2.622 . S
N450 C451 1.369 . S
N450 C452 1.338 . S
C451 N450 1.369 . S
C451 C455 1.415 . S
C451 C458 1.422 . S
C452 H443 0.929 . S
C452 N450 1.338 . S
C452 C454 1.378 . S
C453 H448 0.931 . S
C453 C454 1.348 . S
C453 C455 1.413 . S
C454 H449 0.930 . S
C454 C452 1.378 . S
C454 C453 1.348 . S
C455 C451 1.415 . S
C455 C453 1.413 . S
C455 C485 1.437 . S
H456 C485 0.929 . S
N457 Gd430 2.570 . S
N457 C458 1.359 . S
N457 C461 1.343 . S
C458 C451 1.422 . S
C458 N457 1.359 . S
C458 C460 1.421 . S
C459 C460 1.422 . S
C459 C462 1.321 . S
C459 H486 0.931 . S
C460 C458 1.421 . S
C460 C459 1.422 . S
C460 C484 1.417 . S
C461 H438 0.931 . S
C461 N457 1.343 . S
C461 C462 1.390 . S
C462 H440 0.930 . S
C462 C459 1.321 . S
C462 C461 1.390 . S
O463 Gd431 2.386 . S
O463 C475 1.265 . S
O464 Gd430 2.353 . S
O464 C475 1.242 . S
O465 Gd430 2.468 . S
O465 C483 1.263 . S
O466 Gd430 2.427 . S
O466 C483 1.252 . S
O467 Gd431 2.307 . S
O467 C476 1.261 . S
O468 Gd430 2.388 . S
O468 C476 1.252 . S
O469 Gd430 2.386 . S
O469 C487 1.265 . S
O470 Gd431 2.353 . S
O470 C487 1.242 . S
O471 Gd431 2.468 . S
O471 C495 1.263 . S
O472 Gd431 2.427 . S
O472 C495 1.252 . S
O473 Gd430 2.307 . S
O473 C488 1.261 . S
O474 Gd431 2.388 . S
O474 C488 1.252 . S
C475 O463 1.265 . S
C475 O464 1.242 . S
C476 O467 1.261 . S
C476 O468 1.252 . S
C477 C480 1.394 . S
C477 C482 1.370 . S
C477 C483 1.500 . S
C478 C481 1.383 . S
C478 C482 1.395 . S
C479 C480 1.396 . S
C479 C481 1.365 . S
C479 H496 0.929 . S
C480 C477 1.394 . S
C480 C479 1.396 . S
C480 H497 0.930 . S
C481 C478 1.383 . S
C481 C479 1.365 . S
C481 H498 0.931 . S
C482 C477 1.370 . S
C482 C478 1.395 . S
C482 H499 0.930 . S
C483 Gd430 2.805 . S
C483 O465 1.263 . S
C483 O466 1.252 . S
C483 C477 1.500 . S
C484 H446 0.930 . S
C484 C460 1.417 . S
C484 C485 1.329 . S
C485 C455 1.437 . S
C485 H456 0.929 . S
C485 C484 1.329 . S
H486 C459 0.931 . S
C487 O469 1.265 . S
C487 O470 1.242 . S
C488 O473 1.261 . S
C488 O474 1.252 . S
C489 C492 1.394 . S
C489 C494 1.370 . S
C489 C495 1.500 . S
C490 C493 1.383 . S
C490 C494 1.395 . S
C491 C492 1.396 . S
C491 C493 1.365 . S
C491 H500 0.929 . S
C492 C489 1.394 . S
C492 C491 1.396 . S
C492 H501 0.930 . S
C493 C490 1.383 . S
C493 C491 1.365 . S
C493 H502 0.931 . S
C494 C489 1.370 . S
C494 C490 1.395 . S
C494 H503 0.930 . S
C495 Gd431 2.805 . S
C495 O471 1.263 . S
C495 O472 1.252 . S
C495 C489 1.500 . S
H496 C479 0.929 . S
H497 C480 0.930 . S
H498 C481 0.931 . S
H499 C482 0.930 . S
H500 C491 0.929 . S
H501 C492 0.930 . S
H502 C493 0.931 . S
H503 C494 0.930 . S
C504 C506 1.422 . S
C504 C508 1.415 . S
C504 N510 1.369 . S
C505 C506 1.421 . S
C505 C507 1.417 . S
C505 C517 1.422 . S
C506 C504 1.422 . S
C506 C505 1.421 . S
C506 N516 1.359 . S
C507 C505 1.417 . S
C507 C509 1.329 . S
C507 H526 0.930 . S
C508 C504 1.415 . S
C508 C509 1.437 . S
C508 C512 1.413 . S
C509 C507 1.329 . S
C509 C508 1.437 . S
C509 H531 0.929 . S
N510 C504 1.369 . S
N510 C511 1.338 . S
N510 Gd515 2.622 . S
C511 N510 1.338 . S
C511 C513 1.378 . S
C511 H523 0.929 . S
C512 C508 1.413 . S
C512 C513 1.348 . S
C512 H528 0.931 . S
C513 C511 1.378 . S
C513 C512 1.348 . S
C513 H529 0.930 . S
Gd514 N534 2.622 1_545 S
Gd514 N541 2.570 1_545 S
Gd514 O548 2.353 . S
Gd514 O549 2.468 . S
Gd514 O550 2.427 . S
Gd514 O552 2.388 . S
Gd514 O553 2.386 1_545 S
Gd514 O557 2.307 . S
Gd514 C567 2.805 . S
Gd515 N510 2.622 . S
Gd515 N516 2.570 . S
Gd515 O547 2.386 . S
Gd515 O551 2.307 . S
Gd515 O554 2.353 1_545 S
Gd515 O555 2.468 . S
Gd515 O556 2.427 . S
Gd515 O558 2.388 . S
Gd515 C579 2.805 . S
N516 C506 1.359 . S
N516 Gd515 2.570 . S
N516 C518 1.343 . S
C517 C505 1.422 . S
C517 C519 1.321 . S
C517 H525 0.931 . S
C518 N516 1.343 . S
C518 C519 1.390 . S
C518 H520 0.931 . S
C519 C517 1.321 . S
C519 C518 1.390 . S
C519 H521 0.930 . S
H520 C518 0.931 . S
H521 C519 0.930 . S
H522 C545 0.931 . S
H523 C511 0.929 . S
H524 C546 0.930 . S
H525 C517 0.931 . S
H526 C507 0.930 . S
H527 C536 0.896 1_545 S
H528 C512 0.931 . S
H529 C513 0.930 . S
H530 C568 0.930 . S
H531 C509 0.929 . S
H532 C537 0.931 . S
H533 C538 0.930 . S
N534 Gd514 2.622 1_565 S
N534 C535 1.369 . S
N534 C536 1.336 . S
C535 N534 1.369 . S
C535 C539 1.415 . S
C535 C542 1.422 . S
C536 H527 0.896 1_565 S
C536 N534 1.336 . S
C536 C538 1.414 . S
C537 H532 0.931 . S
C537 C538 1.348 . S
C537 C539 1.413 . S
C538 H533 0.930 . S
C538 C536 1.414 . S
C538 C537 1.348 . S
C539 C535 1.415 . S
C539 C537 1.413 . S
C539 C569 1.437 . S
H540 C569 0.929 . S
N541 Gd514 2.570 1_565 S
N541 C542 1.359 . S
N541 C545 1.343 . S
C542 C535 1.422 . S
C542 N541 1.359 . S
C542 C544 1.421 . S
C543 C544 1.422 . S
C543 C546 1.321 . S
C543 H570 0.931 . S
C544 C542 1.421 . S
C544 C543 1.422 . S
C544 C568 1.417 . S
C545 H522 0.931 . S
C545 N541 1.343 . S
C545 C546 1.390 . S
C546 H524 0.930 . S
C546 C543 1.321 . S
C546 C545 1.390 . S
O547 Gd515 2.386 . S
O547 C559 1.265 . S
O548 Gd514 2.353 . S
O548 C559 1.242 . S
O549 Gd514 2.468 . S
O549 C567 1.263 . S
O550 Gd514 2.427 . S
O550 C567 1.252 . S
O551 Gd515 2.307 . S
O551 C560 1.261 . S
O552 Gd514 2.388 . S
O552 C560 1.252 . S
O553 Gd514 2.386 1_565 S
O553 C571 1.265 . S
O554 Gd515 2.353 1_565 S
O554 C571 1.242 . S
O555 Gd515 2.468 . S
O555 C579 1.263 . S
O556 Gd515 2.427 . S
O556 C579 1.252 . S
O557 Gd514 2.307 . S
O557 C572 1.261 . S
O558 Gd515 2.388 . S
O558 C572 1.252 . S
C559 O547 1.265 . S
C559 O548 1.242 . S
C560 O551 1.261 . S
C560 O552 1.252 . S
C561 C564 1.394 . S
C561 C566 1.370 . S
C561 C567 1.500 . S
C562 C565 1.383 . S
C562 C566 1.395 . S
C563 C564 1.396 . S
C563 C565 1.365 . S
C563 H580 0.929 . S
C564 C561 1.394 . S
C564 C563 1.396 . S
C564 H581 0.930 . S
C565 C562 1.383 . S
C565 C563 1.365 . S
C565 H582 0.931 . S
C566 C561 1.370 . S
C566 C562 1.395 . S
C566 H583 0.930 . S
C567 Gd514 2.805 . S
C567 O549 1.263 . S
C567 O550 1.252 . S
C567 C561 1.500 . S
C568 H530 0.930 . S
C568 C544 1.417 . S
C568 C569 1.329 . S
C569 C539 1.437 . S
C569 H540 0.929 . S
C569 C568 1.329 . S
H570 C543 0.931 . S
C571 O553 1.265 . S
C571 O554 1.242 . S
C572 O557 1.261 . S
C572 O558 1.252 . S
C573 C576 1.394 . S
C573 C578 1.370 . S
C573 C579 1.500 1_565 S
C574 C577 1.383 . S
C574 C578 1.395 . S
C575 C576 1.396 . S
C575 C577 1.365 . S
C575 H584 0.929 . S
C576 C573 1.394 . S
C576 C575 1.396 . S
C576 H585 0.930 . S
C577 C574 1.383 . S
C577 C575 1.365 . S
C577 H586 0.931 . S
C578 C573 1.370 . S
C578 C574 1.395 . S
C578 H587 0.930 . S
C579 Gd515 2.805 . S
C579 O555 1.263 . S
C579 O556 1.252 . S
C579 C573 1.500 1_545 S
H580 C563 0.929 . S
H581 C564 0.930 . S
H582 C565 0.931 . S
H583 C566 0.930 . S
H584 C575 0.929 . S
H585 C576 0.930 . S
H586 C577 0.931 . S
H587 C578 0.930 . S
C588 C590 1.422 . S
C588 C592 1.415 . S
C588 N594 1.369 . S
C589 C590 1.421 . S
C589 C591 1.417 . S
C589 C601 1.422 . S
C590 C588 1.422 . S
C590 C589 1.421 . S
C590 N600 1.359 . S
C591 C589 1.417 . S
C591 C593 1.329 . S
C591 H610 0.930 . S
C592 C588 1.415 . S
C592 C593 1.437 . S
C592 C596 1.413 . S
C593 C591 1.329 . S
C593 C592 1.437 . S
C593 H615 0.929 . S
N594 C588 1.369 . S
N594 C595 1.338 . S
N594 Gd599 2.622 . S
C595 N594 1.338 . S
C595 C597 1.378 . S
C595 H607 0.929 . S
C596 C592 1.413 . S
C596 C597 1.348 . S
C596 H612 0.931 . S
C597 C595 1.378 . S
C597 C596 1.348 . S
C597 H613 0.930 . S
Gd598 N618 2.622 . S
Gd598 N625 2.570 . S
Gd598 O632 2.353 . S
Gd598 O633 2.468 . S
Gd598 O634 2.427 . S
Gd598 O636 2.388 . S
Gd598 O637 2.386 . S
Gd598 O641 2.307 . S
Gd598 C651 2.805 . S
Gd599 N594 2.622 . S
Gd599 N600 2.570 . S
Gd599 O631 2.386 . S
Gd599 O635 2.307 . S
Gd599 O638 2.353 . S
Gd599 O639 2.468 . S
Gd599 O640 2.427 . S
Gd599 O642 2.388 . S
Gd599 C663 2.805 . S
N600 C590 1.359 . S
N600 Gd599 2.570 . S
N600 C602 1.343 . S
C601 C589 1.422 . S
C601 C603 1.321 . S
C601 H609 0.931 . S
C602 N600 1.343 . S
C602 C603 1.390 . S
C602 H604 0.931 . S
C603 C601 1.321 . S
C603 C602 1.390 . S
C603 H605 0.930 . S
H604 C602 0.931 . S
H605 C603 0.930 . S
H606 C629 0.931 . S
H607 C595 0.929 . S
H608 C630 0.930 . S
H609 C601 0.931 . S
H610 C591 0.930 . S
H611 C620 0.929 . S
H612 C596 0.931 . S
H613 C597 0.930 . S
H614 C652 0.930 . S
H615 C593 0.929 . S
H616 C621 0.931 . S
H617 C622 0.930 . S
N618 Gd598 2.622 . S
N618 C619 1.369 . S
N618 C620 1.338 . S
C619 N618 1.369 . S
C619 C623 1.415 . S
C619 C626 1.422 . S
C620 H611 0.929 . S
C620 N618 1.338 . S
C620 C622 1.378 . S
C621 H616 0.931 . S
C621 C622 1.348 . S
C621 C623 1.413 . S
C622 H617 0.930 . S
C622 C620 1.378 . S
C622 C621 1.348 . S
C623 C619 1.415 . S
C623 C621 1.413 . S
C623 C653 1.437 . S
H624 C653 0.929 . S
N625 Gd598 2.570 . S
N625 C626 1.359 . S
N625 C629 1.343 . S
C626 C619 1.422 . S
C626 N625 1.359 . S
C626 C628 1.421 . S
C627 C628 1.422 . S
C627 C630 1.321 . S
C627 H654 0.931 . S
C628 C626 1.421 . S
C628 C627 1.422 . S
C628 C652 1.417 . S
C629 H606 0.931 . S
C629 N625 1.343 . S
C629 C630 1.390 . S
C630 H608 0.930 . S
C630 C627 1.321 . S
C630 C629 1.390 . S
O631 Gd599 2.386 . S
O631 C643 1.265 . S
O632 Gd598 2.353 . S
O632 C643 1.242 . S
O633 Gd598 2.468 . S
O633 C651 1.263 . S
O634 Gd598 2.427 . S
O634 C651 1.252 . S
O635 Gd599 2.307 . S
O635 C644 1.261 . S
O636 Gd598 2.388 . S
O636 C644 1.252 . S
O637 Gd598 2.386 . S
O637 C655 1.265 . S
O638 Gd599 2.353 . S
O638 C655 1.242 . S
O639 Gd599 2.468 . S
O639 C663 1.263 . S
O640 Gd599 2.427 . S
O640 C663 1.252 . S
O641 Gd598 2.307 . S
O641 C656 1.261 . S
O642 Gd599 2.388 . S
O642 C656 1.252 . S
C643 O631 1.265 . S
C643 O632 1.242 . S
C644 O635 1.261 . S
C644 O636 1.252 . S
C645 C648 1.394 . S
C645 C650 1.370 . S
C645 C651 1.500 . S
C646 C649 1.383 . S
C646 C650 1.395 . S
C647 C648 1.396 . S
C647 C649 1.365 . S
C647 H664 0.929 . S
C648 C645 1.394 . S
C648 C647 1.396 . S
C648 H665 0.930 . S
C649 C646 1.383 . S
C649 C647 1.365 . S
C649 H666 0.931 . S
C650 C645 1.370 . S
C650 C646 1.395 . S
C650 H667 0.930 . S
C651 Gd598 2.805 . S
C651 O633 1.263 . S
C651 O634 1.252 . S
C651 C645 1.500 . S
C652 H614 0.930 . S
C652 C628 1.417 . S
C652 C653 1.329 . S
C653 C623 1.437 . S
C653 H624 0.929 . S
C653 C652 1.329 . S
H654 C627 0.931 . S
C655 O637 1.265 . S
C655 O638 1.242 . S
C656 O641 1.261 . S
C656 O642 1.252 . S
C657 C660 1.394 . S
C657 C662 1.370 . S
C657 C663 1.500 . S
C658 C661 1.383 . S
C658 C662 1.395 . S
C659 C660 1.396 . S
C659 C661 1.365 . S
C659 H668 0.929 . S
C660 C657 1.394 . S
C660 C659 1.396 . S
C660 H669 0.930 . S
C661 C658 1.383 . S
C661 C659 1.365 . S
C661 H670 0.931 . S
C662 C657 1.370 . S
C662 C658 1.395 . S
C662 H671 0.930 . S
C663 Gd599 2.805 . S
C663 O639 1.263 . S
C663 O640 1.252 . S
C663 C657 1.500 . S
H664 C647 0.929 . S
H665 C648 0.930 . S
H666 C649 0.931 . S
H667 C650 0.930 . S
H668 C659 0.929 . S
H669 C660 0.930 . S
H670 C661 0.931 . S
H671 C662 0.930 . S
C672 C674 1.422 . S
C672 C676 1.415 1_455 S
C672 N678 1.369 1_455 S
C673 C674 1.421 . S
C673 C675 1.417 . S
C673 C685 1.422 . S
C674 C672 1.422 . S
C674 C673 1.421 . S
C674 N684 1.359 . S
C675 C673 1.417 . S
C675 C677 1.329 . S
C675 H694 0.930 . S
C676 C672 1.415 1_655 S
C676 C677 1.437 1_655 S
C676 C680 1.413 . S
C677 C675 1.329 . S
C677 C676 1.437 1_455 S
C677 H699 0.958 . S
N678 C672 1.369 1_655 S
N678 C679 1.338 . S
N678 Gd683 2.622 1_655 S
C679 N678 1.338 . S
C679 C681 1.378 . S
C679 H691 0.929 . S
C680 C676 1.413 . S
C680 C681 1.348 . S
C680 H696 0.931 . S
C681 C679 1.378 . S
C681 C680 1.348 . S
C681 H697 0.930 . S
Gd682 N702 2.622 . S
Gd682 N709 2.570 . S
Gd682 O716 2.353 1_565 S
Gd682 O717 2.468 . S
Gd682 O718 2.427 . S
Gd682 O720 2.388 1_565 S
Gd682 O721 2.386 1_565 S
Gd682 O725 2.307 1_565 S
Gd682 C735 2.805 . S
Gd683 N678 2.622 1_455 S
Gd683 N684 2.570 . S
Gd683 O715 2.386 . S
Gd683 O719 2.307 . S
Gd683 O722 2.353 . S
Gd683 O723 2.468 . S
Gd683 O724 2.427 1_455 S
Gd683 O726 2.388 1_455 S
Gd683 C747 2.805 . S
N684 C674 1.359 . S
N684 Gd683 2.570 . S
N684 C686 1.343 . S
C685 C673 1.422 . S
C685 C687 1.321 . S
C685 H693 0.931 . S
C686 N684 1.343 . S
C686 C687 1.390 . S
C686 H688 0.931 . S
C687 C685 1.321 . S
C687 C686 1.390 . S
C687 H689 0.930 . S
H688 C686 0.931 . S
H689 C687 0.930 . S
H690 C713 0.931 . S
H691 C679 0.929 . S
H692 C714 0.930 . S
H693 C685 0.931 . S
H694 C675 0.930 . S
H695 C704 0.929 1_545 S
H696 C680 0.931 . S
H697 C681 0.930 . S
H698 C736 0.930 . S
H699 C677 0.958 . S
H700 C705 0.931 . S
H701 C706 0.930 . S
N702 Gd682 2.622 . S
N702 C703 1.369 . S
N702 C704 1.338 . S
C703 N702 1.369 . S
C703 C707 1.415 . S
C703 C710 1.422 . S
C704 H695 0.929 1_565 S
C704 N702 1.338 . S
C704 C706 1.378 . S
C705 H700 0.931 . S
C705 C706 1.348 . S
C705 C707 1.413 . S
C706 H701 0.930 . S
C706 C704 1.378 . S
C706 C705 1.348 . S
C707 C703 1.415 . S
C707 C705 1.413 . S
C707 C737 1.437 . S
H708 C737 0.929 . S
N709 Gd682 2.570 . S
N709 C710 1.359 . S
N709 C713 1.343 1_455 S
C710 C703 1.422 . S
C710 N709 1.359 . S
C710 C712 1.421 . S
C711 C712 1.422 1_655 S
C711 C714 1.321 . S
C711 H738 0.931 . S
C712 C710 1.421 . S
C712 C711 1.422 1_455 S
C712 C736 1.417 . S
C713 H690 0.931 . S
C713 N709 1.343 1_655 S
C713 C714 1.390 . S
C714 H692 0.930 . S
C714 C711 1.321 . S
C714 C713 1.390 . S
O715 Gd683 2.386 . S
O715 C727 1.265 . S
O716 Gd682 2.353 1_545 S
O716 C727 1.242 . S
O717 Gd682 2.468 . S
O717 C735 1.263 . S
O718 Gd682 2.427 . S
O718 C735 1.252 . S
O719 Gd683 2.307 . S
O719 C728 1.261 . S
O720 Gd682 2.388 1_545 S
O720 C728 1.252 . S
O721 Gd682 2.386 1_545 S
O721 C739 1.265 . S
O722 Gd683 2.353 . S
O722 C739 1.242 . S
O723 Gd683 2.468 . S
O723 C747 1.263 . S
O724 Gd683 2.427 1_655 S
O724 C747 1.252 1_655 S
O725 Gd682 2.307 1_545 S
O725 C740 1.261 1_455 S
O726 Gd683 2.388 1_655 S
O726 C740 1.252 . S
C727 O715 1.265 . S
C727 O716 1.242 . S
C728 O719 1.261 . S
C728 O720 1.252 . S
C729 C732 1.394 . S
C729 C734 1.370 . S
C729 C735 1.500 . S
C730 C733 1.383 . S
C730 C734 1.395 . S
C731 C732 1.396 . S
C731 C733 1.365 . S
C731 H748 0.929 . S
C732 C729 1.394 . S
C732 C731 1.396 . S
C732 H749 0.930 . S
C733 C730 1.383 . S
C733 C731 1.365 . S
C733 H750 0.931 . S
C734 C729 1.370 . S
C734 C730 1.395 . S
C734 H751 0.930 . S
C735 Gd682 2.805 . S
C735 O717 1.263 . S
C735 O718 1.252 . S
C735 C729 1.500 . S
C736 H698 0.930 . S
C736 C712 1.417 . S
C736 C737 1.329 . S
C737 C707 1.437 . S
C737 H708 0.929 . S
C737 C736 1.329 . S
H738 C711 0.931 . S
C739 O721 1.265 . S
C739 O722 1.242 . S
C740 O725 1.261 1_655 S
C740 O726 1.252 . S
C741 C744 1.394 1_455 S
C741 C746 1.370 . S
C741 C747 1.500 . S
C742 C745 1.383 . S
C742 C746 1.395 . S
C743 C744 1.396 . S
C743 C745 1.365 1_655 S
C743 H752 0.929 . S
C744 C741 1.394 1_655 S
C744 C743 1.396 . S
C744 H753 0.930 . S
C745 C742 1.383 . S
C745 C743 1.365 1_455 S
C745 H754 0.931 1_455 S
C746 C741 1.370 . S
C746 C742 1.395 . S
C746 H755 0.930 . S
C747 Gd683 2.805 . S
C747 O723 1.263 . S
C747 O724 1.252 1_455 S
C747 C741 1.500 . S
H748 C731 0.929 . S
H749 C732 0.930 . S
H750 C733 0.931 . S
H751 C734 0.930 . S
H752 C743 0.929 . S
H753 C744 0.930 . S
H754 C745 0.931 1_655 S
H755 C746 0.930 . S
C756 C758 1.422 . S
C756 C760 1.415 . S
C756 N762 1.369 . S
C757 C758 1.421 . S
C757 C759 1.417 . S
C757 C769 1.422 . S
C758 C756 1.422 . S
C758 C757 1.421 . S
C758 N768 1.359 . S
C759 C757 1.417 . S
C759 C761 1.329 . S
C759 H778 0.930 . S
C760 C756 1.415 . S
C760 C761 1.437 . S
C760 C764 1.413 . S
C761 C759 1.329 . S
C761 C760 1.437 . S
C761 H783 0.929 . S
N762 C756 1.369 . S
N762 C763 1.338 . S
N762 Gd767 2.622 . S
C763 N762 1.338 . S
C763 C765 1.378 . S
C763 H775 0.929 . S
C764 C760 1.413 . S
C764 C765 1.348 . S
C764 H780 0.931 . S
C765 C763 1.378 . S
C765 C764 1.348 . S
C765 H781 0.930 . S
Gd766 N786 2.622 . S
Gd766 N793 2.570 . S
Gd766 O800 2.353 . S
Gd766 O801 2.468 . S
Gd766 O802 2.427 . S
Gd766 O804 2.388 . S
Gd766 O805 2.386 . S
Gd766 O809 2.307 . S
Gd766 C819 2.805 . S
Gd767 N762 2.622 . S
Gd767 N768 2.570 . S
Gd767 O799 2.386 . S
Gd767 O803 2.307 . S
Gd767 O806 2.353 . S
Gd767 O807 2.468 . S
Gd767 O808 2.427 . S
Gd767 O810 2.388 . S
Gd767 C831 2.805 . S
N768 C758 1.359 . S
N768 Gd767 2.570 . S
N768 C770 1.343 . S
C769 C757 1.422 . S
C769 C771 1.321 . S
C769 H777 0.931 . S
C770 N768 1.343 . S
C770 C771 1.390 . S
C770 H772 0.931 . S
C771 C769 1.321 . S
C771 C770 1.390 . S
C771 H773 0.930 . S
H772 C770 0.931 . S
H773 C771 0.930 . S
H774 C797 0.931 . S
H775 C763 0.929 . S
H776 C798 0.930 . S
H777 C769 0.931 . S
H778 C759 0.930 . S
H779 C788 0.929 . S
H780 C764 0.931 . S
H781 C765 0.930 . S
H782 C820 0.930 . S
H783 C761 0.929 . S
H784 C789 0.931 . S
H785 C790 0.930 . S
N786 Gd766 2.622 . S
N786 C787 1.369 . S
N786 C788 1.338 . S
C787 N786 1.369 . S
C787 C791 1.415 . S
C787 C794 1.422 . S
C788 H779 0.929 . S
C788 N786 1.338 . S
C788 C790 1.378 . S
C789 H784 0.931 . S
C789 C790 1.348 . S
C789 C791 1.413 . S
C790 H785 0.930 . S
C790 C788 1.378 . S
C790 C789 1.348 . S
C791 C787 1.415 . S
C791 C789 1.413 . S
C791 C821 1.437 . S
H792 C821 0.929 . S
N793 Gd766 2.570 . S
N793 C794 1.359 . S
N793 C797 1.343 . S
C794 C787 1.422 . S
C794 N793 1.359 . S
C794 C796 1.421 . S
C795 C796 1.422 . S
C795 C798 1.321 . S
C795 H822 0.931 . S
C796 C794 1.421 . S
C796 C795 1.422 . S
C796 C820 1.417 . S
C797 H774 0.931 . S
C797 N793 1.343 . S
C797 C798 1.390 . S
C798 H776 0.930 . S
C798 C795 1.321 . S
C798 C797 1.390 . S
O799 Gd767 2.386 . S
O799 C811 1.265 . S
O800 Gd766 2.353 . S
O800 C811 1.242 . S
O801 Gd766 2.468 . S
O801 C819 1.263 . S
O802 Gd766 2.427 . S
O802 C819 1.252 . S
O803 Gd767 2.307 . S
O803 C812 1.261 . S
O804 Gd766 2.388 . S
O804 C812 1.252 . S
O805 Gd766 2.386 . S
O805 C823 1.265 . S
O806 Gd767 2.353 . S
O806 C823 1.242 . S
O807 Gd767 2.468 . S
O807 C831 1.263 . S
O808 Gd767 2.427 . S
O808 C831 1.252 . S
O809 Gd766 2.307 . S
O809 C824 1.261 . S
O810 Gd767 2.388 . S
O810 C824 1.252 . S
C811 O799 1.265 . S
C811 O800 1.242 . S
C812 O803 1.261 . S
C812 O804 1.252 . S
C813 C816 1.394 . S
C813 C818 1.370 . S
C813 C819 1.500 . S
C814 C817 1.383 . S
C814 C818 1.395 . S
C815 C816 1.396 . S
C815 C817 1.365 . S
C815 H832 0.929 . S
C816 C813 1.394 . S
C816 C815 1.396 . S
C816 H833 0.930 . S
C817 C814 1.383 . S
C817 C815 1.365 . S
C817 H834 0.931 . S
C818 C813 1.370 . S
C818 C814 1.395 . S
C818 H835 0.930 . S
C819 Gd766 2.805 . S
C819 O801 1.263 . S
C819 O802 1.252 . S
C819 C813 1.500 . S
C820 H782 0.930 . S
C820 C796 1.417 . S
C820 C821 1.329 . S
C821 C791 1.437 . S
C821 H792 0.929 . S
C821 C820 1.329 . S
H822 C795 0.931 . S
C823 O805 1.265 . S
C823 O806 1.242 . S
C824 O809 1.261 . S
C824 O810 1.252 . S
C825 C828 1.394 . S
C825 C830 1.370 . S
C825 C831 1.500 . S
C826 C829 1.383 . S
C826 C830 1.395 . S
C827 C828 1.396 . S
C827 C829 1.365 . S
C827 H836 0.929 . S
C828 C825 1.394 . S
C828 C827 1.396 . S
C828 H837 0.930 . S
C829 C826 1.383 . S
C829 C827 1.365 . S
C829 H838 0.931 . S
C830 C825 1.370 . S
C830 C826 1.395 . S
C830 H839 0.930 . S
C831 Gd767 2.805 . S
C831 O807 1.263 . S
C831 O808 1.252 . S
C831 C825 1.500 . S
H832 C815 0.929 . S
H833 C816 0.930 . S
H834 C817 0.931 . S
H835 C818 0.930 . S
H836 C827 0.929 . S
H837 C828 0.930 . S
H838 C829 0.931 . S
H839 C830 0.930 . S
C840 C842 1.422 . S
C840 C844 1.415 1_545 S
C840 N846 1.369 1_545 S
C841 C842 1.421 . S
C841 C843 1.417 . S
C841 C853 1.422 . S
C842 C840 1.422 . S
C842 C841 1.421 . S
C842 N852 1.359 . S
C843 C841 1.417 . S
C843 C845 1.329 . S
C843 H862 0.930 . S
C844 C840 1.415 1_565 S
C844 C845 1.437 1_565 S
C844 C848 1.413 . S
C845 C843 1.329 . S
C845 C844 1.437 1_545 S
C845 H867 0.929 1_545 S
N846 C840 1.369 1_565 S
N846 C847 1.338 . S
N846 Gd851 2.622 1_565 S
C847 N846 1.338 . S
C847 C849 1.378 . S
C847 H859 0.929 . S
C848 C844 1.413 . S
C848 C849 1.348 . S
C848 H864 0.931 . S
C849 C847 1.378 . S
C849 C848 1.348 . S
C849 H865 0.930 . S
Gd850 N870 2.622 . S
Gd850 N877 2.570 . S
Gd850 O884 2.353 1_556 S
Gd850 O885 2.468 . S
Gd850 O886 2.427 . S
Gd850 O888 2.388 1_556 S
Gd850 O889 2.386 1_556 S
Gd850 O893 2.307 . S
Gd850 C903 2.805 . S
Gd851 N846 2.622 1_545 S
Gd851 N852 2.570 . S
Gd851 O883 2.386 . S
Gd851 O887 2.307 . S
Gd851 O890 2.353 . S
Gd851 O891 2.468 . S
Gd851 O892 2.427 1_545 S
Gd851 O894 2.388 1_545 S
Gd851 C915 2.805 . S
N852 C842 1.359 . S
N852 Gd851 2.570 . S
N852 C854 1.343 . S
C853 C841 1.422 . S
C853 C855 1.321 . S
C853 H861 0.931 . S
C854 N852 1.343 . S
C854 C855 1.390 . S
C854 H856 0.931 . S
C855 C853 1.321 . S
C855 C854 1.390 . S
C855 H857 0.930 . S
H856 C854 0.931 . S
H857 C855 0.930 . S
H858 C881 0.931 . S
H859 C847 0.929 . S
H860 C882 0.930 . S
H861 C853 0.931 . S
H862 C843 0.930 . S
H863 C872 0.930 . S
H864 C848 0.931 . S
H865 C849 0.930 . S
H866 C904 0.930 . S
H867 C845 0.929 1_565 S
H868 C873 0.931 . S
H869 C874 0.930 . S
N870 Gd850 2.622 . S
N870 C871 1.369 . S
N870 C872 1.338 . S
C871 N870 1.369 . S
C871 C875 1.415 . S
C871 C878 1.422 . S
C872 H863 0.930 . S
C872 N870 1.338 . S
C872 C874 1.378 . S
C873 H868 0.931 . S
C873 C874 1.348 . S
C873 C875 1.413 . S
C874 H869 0.930 . S
C874 C872 1.378 . S
C874 C873 1.348 . S
C875 C871 1.415 . S
C875 C873 1.413 . S
C875 C905 1.437 . S
H876 C905 0.929 . S
N877 Gd850 2.570 . S
N877 C878 1.359 . S
N877 C881 1.343 . S
C878 C871 1.422 . S
C878 N877 1.359 . S
C878 C880 1.421 . S
C879 C880 1.422 . S
C879 C882 1.321 1_545 S
C879 H906 0.934 . S
C880 C878 1.421 . S
C880 C879 1.422 . S
C880 C904 1.417 . S
C881 H858 0.931 . S
C881 N877 1.343 . S
C881 C882 1.390 1_545 S
C882 H860 0.930 . S
C882 C879 1.321 1_565 S
C882 C881 1.390 1_565 S
O883 Gd851 2.386 . S
O883 C895 1.265 . S
O884 Gd850 2.353 1_554 S
O884 C895 1.242 . S
O885 Gd850 2.468 . S
O885 C903 1.263 . S
O886 Gd850 2.427 . S
O886 C903 1.252 . S
O887 Gd851 2.307 . S
O887 C896 1.261 . S
O888 Gd850 2.388 1_554 S
O888 C896 1.252 . S
O889 Gd850 2.386 1_554 S
O889 C907 1.265 . S
O890 Gd851 2.353 . S
O890 C907 1.242 . S
O891 Gd851 2.468 . S
O891 C915 1.263 . S
O892 Gd851 2.427 1_565 S
O892 C915 1.252 1_565 S
O893 Gd850 2.307 . S
O893 C908 1.247 1_546 S
O894 Gd851 2.388 1_565 S
O894 C908 1.292 . S
C895 O883 1.265 . S
C895 O884 1.242 . S
C896 O887 1.261 . S
C896 O888 1.252 . S
C897 C900 1.394 . S
C897 C902 1.370 . S
C897 C903 1.500 . S
C898 C901 1.383 . S
C898 C902 1.395 . S
C899 C900 1.396 . S
C899 C901 1.365 . S
C899 H916 0.929 . S
C900 C897 1.394 . S
C900 C899 1.396 . S
C900 H917 0.930 . S
C901 C898 1.383 . S
C901 C899 1.365 . S
C901 H918 0.931 . S
C902 C897 1.370 . S
C902 C898 1.395 . S
C902 H919 0.930 . S
C903 Gd850 2.805 . S
C903 O885 1.263 . S
C903 O886 1.252 . S
C903 C897 1.500 . S
C904 H866 0.930 . S
C904 C880 1.417 . S
C904 C905 1.329 . S
C905 C875 1.437 . S
C905 H876 0.929 . S
C905 C904 1.329 . S
H906 C879 0.934 . S
C907 O889 1.265 . S
C907 O890 1.242 . S
C908 O893 1.247 1_564 S
C908 O894 1.292 . S
C909 C912 1.394 . S
C909 C914 1.370 1_565 S
C909 C915 1.500 1_565 S
C910 C913 1.383 1_545 S
C910 C914 1.395 . S
C911 C912 1.396 . S
C911 C913 1.365 . S
C911 H920 0.929 . S
C912 C909 1.394 . S
C912 C911 1.396 . S
C912 H921 0.930 . S
C913 C910 1.383 1_565 S
C913 C911 1.365 . S
C913 H922 0.931 . S
C914 C909 1.370 1_545 S
C914 C910 1.395 . S
C914 H923 0.930 . S
C915 Gd851 2.805 . S
C915 O891 1.263 . S
C915 O892 1.252 1_545 S
C915 C909 1.500 1_545 S
H916 C899 0.929 . S
H917 C900 0.930 . S
H918 C901 0.931 . S
H919 C902 0.930 . S
H920 C911 0.929 . S
H921 C912 0.930 . S
H922 C913 0.931 . S
H923 C914 0.930 . S
C924 C926 1.422 . S
C924 C928 1.415 . S
C924 N930 1.369 . S
C925 C926 1.421 . S
C925 C927 1.417 . S
C925 C937 1.422 . S
C926 C924 1.422 . S
C926 C925 1.421 . S
C926 N936 1.359 . S
C927 C925 1.417 . S
C927 C929 1.329 . S
C927 H946 0.930 . S
C928 C924 1.415 . S
C928 C929 1.437 . S
C928 C932 1.413 . S
C929 C927 1.329 . S
C929 C928 1.437 . S
C929 H951 0.929 . S
N930 C924 1.369 . S
N930 C931 1.338 . S
N930 Gd935 2.622 . S
C931 N930 1.338 . S
C931 C933 1.378 . S
C931 H943 0.929 . S
C932 C928 1.413 . S
C932 C933 1.348 . S
C932 H948 0.931 . S
C933 C931 1.378 . S
C933 C932 1.348 . S
C933 H949 0.930 . S
Gd934 N954 2.622 . S
Gd934 N961 2.570 . S
Gd934 O968 2.353 . S
Gd934 O969 2.468 . S
Gd934 O970 2.427 . S
Gd934 O972 2.388 . S
Gd934 O973 2.386 . S
Gd934 O977 2.307 . S
Gd934 C987 2.805 . S
Gd935 N930 2.622 . S
Gd935 N936 2.570 . S
Gd935 O967 2.386 . S
Gd935 O971 2.307 . S
Gd935 O974 2.353 . S
Gd935 O975 2.468 . S
Gd935 O976 2.427 . S
Gd935 O978 2.388 . S
Gd935 C999 2.805 . S
N936 C926 1.359 . S
N936 Gd935 2.570 . S
N936 C938 1.343 . S
C937 C925 1.422 . S
C937 C939 1.321 . S
C937 H945 0.931 . S
C938 N936 1.343 . S
C938 C939 1.390 . S
C938 H940 0.931 . S
C939 C937 1.321 . S
C939 C938 1.390 . S
C939 H941 0.930 . S
H940 C938 0.931 . S
H941 C939 0.930 . S
H942 C965 0.931 . S
H943 C931 0.929 . S
H944 C966 0.930 . S
H945 C937 0.931 . S
H946 C927 0.930 . S
H947 C956 0.929 . S
H948 C932 0.931 . S
H949 C933 0.930 . S
H950 C988 0.930 . S
H951 C929 0.929 . S
H952 C957 0.931 . S
H953 C958 0.930 . S
N954 Gd934 2.622 . S
N954 C955 1.369 . S
N954 C956 1.338 . S
C955 N954 1.369 . S
C955 C959 1.415 . S
C955 C962 1.422 . S
C956 H947 0.929 . S
C956 N954 1.338 . S
C956 C958 1.378 . S
C957 H952 0.931 . S
C957 C958 1.348 . S
C957 C959 1.413 . S
C958 H953 0.930 . S
C958 C956 1.378 . S
C958 C957 1.348 . S
C959 C955 1.415 . S
C959 C957 1.413 . S
C959 C989 1.437 . S
H960 C989 0.929 . S
N961 Gd934 2.570 . S
N961 C962 1.359 . S
N961 C965 1.343 . S
C962 C955 1.422 . S
C962 N961 1.359 . S
C962 C964 1.421 . S
C963 C964 1.422 . S
C963 C966 1.321 . S
C963 H990 0.931 . S
C964 C962 1.421 . S
C964 C963 1.422 . S
C964 C988 1.417 . S
C965 H942 0.931 . S
C965 N961 1.343 . S
C965 C966 1.390 . S
C966 H944 0.930 . S
C966 C963 1.321 . S
C966 C965 1.390 . S
O967 Gd935 2.386 . S
O967 C979 1.265 . S
O968 Gd934 2.353 . S
O968 C979 1.242 . S
O969 Gd934 2.468 . S
O969 C987 1.263 . S
O970 Gd934 2.427 . S
O970 C987 1.252 . S
O971 Gd935 2.307 . S
O971 C980 1.261 . S
O972 Gd934 2.388 . S
O972 C980 1.252 . S
O973 Gd934 2.386 . S
O973 C991 1.265 . S
O974 Gd935 2.353 . S
O974 C991 1.242 . S
O975 Gd935 2.468 . S
O975 C999 1.263 . S
O976 Gd935 2.427 . S
O976 C999 1.252 . S
O977 Gd934 2.307 . S
O977 C992 1.261 . S
O978 Gd935 2.388 . S
O978 C992 1.252 . S
C979 O967 1.265 . S
C979 O968 1.242 . S
C980 O971 1.261 . S
C980 O972 1.252 . S
C981 C984 1.394 . S
C981 C986 1.370 . S
C981 C987 1.500 . S
C982 C985 1.383 . S
C982 C986 1.395 . S
C983 C984 1.396 . S
C983 C985 1.365 . S
C983 H1000 0.929 . S
C984 C981 1.394 . S
C984 C983 1.396 . S
C984 H1001 0.930 . S
C985 C982 1.383 . S
C985 C983 1.365 . S
C985 H1002 0.931 . S
C986 C981 1.370 . S
C986 C982 1.395 . S
C986 H1003 0.930 . S
C987 Gd934 2.805 . S
C987 O969 1.263 . S
C987 O970 1.252 . S
C987 C981 1.500 . S
C988 H950 0.930 . S
C988 C964 1.417 . S
C988 C989 1.329 . S
C989 C959 1.437 . S
C989 H960 0.929 . S
C989 C988 1.329 . S
H990 C963 0.931 . S
C991 O973 1.265 . S
C991 O974 1.242 . S
C992 O977 1.261 . S
C992 O978 1.252 . S
C993 C996 1.394 . S
C993 C998 1.370 . S
C993 C999 1.500 . S
C994 C997 1.383 . S
C994 C998 1.395 . S
C995 C996 1.396 . S
C995 C997 1.365 . S
C995 H1004 0.929 . S
C996 C993 1.394 . S
C996 C995 1.396 . S
C996 H1005 0.930 . S
C997 C994 1.383 . S
C997 C995 1.365 . S
C997 H1006 0.931 . S
C998 C993 1.370 . S
C998 C994 1.395 . S
C998 H1007 0.930 . S
C999 Gd935 2.805 . S
C999 O975 1.263 . S
C999 O976 1.252 . S
C999 C993 1.500 . S
H1000 C983 0.929 . S
H1001 C984 0.930 . S
H1002 C985 0.931 . S
H1003 C986 0.930 . S
H1004 C995 0.929 . S
H1005 C996 0.930 . S
H1006 C997 0.931 . S
H1007 C998 0.930 . S
C1008 C1010 1.422 . S
C1008 C1012 1.415 . S
C1008 N1014 1.369 . S
C1009 C1010 1.421 . S
C1009 C1011 1.417 . S
C1009 C1021 1.422 . S
C1010 C1008 1.422 . S
C1010 C1009 1.421 . S
C1010 N1020 1.359 . S
C1011 C1009 1.417 . S
C1011 C1013 1.329 . S
C1011 H1030 0.930 . S
C1012 C1008 1.415 . S
C1012 C1013 1.437 . S
C1012 C1016 1.413 . S
C1013 C1011 1.329 . S
C1013 C1012 1.437 . S
C1013 H1035 0.929 . S
N1014 C1008 1.369 . S
N1014 C1015 1.338 . S
N1014 Gd1019 2.622 . S
C1015 N1014 1.338 . S
C1015 C1017 1.378 . S
C1015 H1027 0.929 . S
C1016 C1012 1.413 . S
C1016 C1017 1.348 . S
C1016 H1032 0.931 . S
C1017 C1015 1.378 . S
C1017 C1016 1.348 . S
C1017 H1033 0.930 . S
Gd1018 N1038 2.622 1_554 S
Gd1018 N1045 2.570 1_554 S
Gd1018 O1052 2.353 . S
Gd1018 O1053 2.468 . S
Gd1018 O1054 2.427 . S
Gd1018 O1056 2.388 . S
Gd1018 O1057 2.386 1_554 S
Gd1018 O1061 2.307 . S
Gd1018 C1071 2.805 . S
Gd1019 N1014 2.622 . S
Gd1019 N1020 2.570 . S
Gd1019 O1051 2.386 . S
Gd1019 O1055 2.307 . S
Gd1019 O1058 2.353 1_554 S
Gd1019 O1059 2.468 . S
Gd1019 O1060 2.427 . S
Gd1019 O1062 2.388 . S
Gd1019 C1083 2.805 . S
N1020 C1010 1.359 . S
N1020 Gd1019 2.570 . S
N1020 C1022 1.343 . S
C1021 C1009 1.422 . S
C1021 C1023 1.321 . S
C1021 H1029 0.931 . S
C1022 N1020 1.343 . S
C1022 C1023 1.390 . S
C1022 H1024 0.931 . S
C1023 C1021 1.321 . S
C1023 C1022 1.390 . S
C1023 H1025 0.930 . S
H1024 C1022 0.931 . S
H1025 C1023 0.930 . S
H1026 C1049 0.931 . S
H1027 C1015 0.929 . S
H1028 C1050 0.930 . S
H1029 C1021 0.931 . S
H1030 C1011 0.930 . S
H1031 C1040 0.936 . S
H1032 C1016 0.931 . S
H1033 C1017 0.930 . S
H1034 C1072 0.930 . S
H1035 C1013 0.929 . S
H1036 C1041 0.931 . S
H1037 C1042 0.930 . S
N1038 Gd1018 2.622 1_556 S
N1038 C1039 1.369 . S
N1038 C1040 1.338 . S
C1039 N1038 1.369 . S
C1039 C1043 1.415 . S
C1039 C1046 1.422 . S
C1040 H1031 0.936 . S
C1040 N1038 1.338 . S
C1040 C1042 1.378 . S
C1041 H1036 0.931 . S
C1041 C1042 1.348 . S
C1041 C1043 1.413 . S
C1042 H1037 0.930 . S
C1042 C1040 1.378 . S
C1042 C1041 1.348 . S
C1043 C1039 1.415 . S
C1043 C1041 1.413 . S
C1043 C1073 1.437 . S
H1044 C1073 0.929 . S
N1045 Gd1018 2.570 1_556 S
N1045 C1046 1.359 . S
N1045 C1049 1.343 . S
C1046 C1039 1.422 . S
C1046 N1045 1.359 . S
C1046 C1048 1.421 . S
C1047 C1048 1.422 . S
C1047 C1050 1.321 . S
C1047 H1074 0.931 . S
C1048 C1046 1.421 . S
C1048 C1047 1.422 . S
C1048 C1072 1.417 . S
C1049 H1026 0.931 . S
C1049 N1045 1.343 . S
C1049 C1050 1.390 . S
C1050 H1028 0.930 . S
C1050 C1047 1.321 . S
C1050 C1049 1.390 . S
O1051 Gd1019 2.386 . S
O1051 C1063 1.265 . S
O1052 Gd1018 2.353 . S
O1052 C1063 1.242 . S
O1053 Gd1018 2.468 . S
O1053 C1071 1.263 . S
O1054 Gd1018 2.427 . S
O1054 C1071 1.252 . S
O1055 Gd1019 2.307 . S
O1055 C1064 1.261 . S
O1056 Gd1018 2.388 . S
O1056 C1064 1.252 . S
O1057 Gd1018 2.386 1_556 S
O1057 C1075 1.265 . S
O1058 Gd1019 2.353 1_556 S
O1058 C1075 1.242 . S
O1059 Gd1019 2.468 . S
O1059 C1083 1.263 . S
O1060 Gd1019 2.427 . S
O1060 C1083 1.252 . S
O1061 Gd1018 2.307 . S
O1061 C1076 1.261 . S
O1062 Gd1019 2.388 . S
O1062 C1076 1.252 . S
C1063 O1051 1.265 . S
C1063 O1052 1.242 . S
C1064 O1055 1.261 . S
C1064 O1056 1.252 . S
C1065 C1068 1.394 . S
C1065 C1070 1.370 . S
C1065 C1071 1.500 . S
C1066 C1069 1.383 . S
C1066 C1070 1.395 . S
C1067 C1068 1.396 . S
C1067 C1069 1.365 . S
C1067 H1084 0.929 . S
C1068 C1065 1.394 . S
C1068 C1067 1.396 . S
C1068 H1085 0.930 . S
C1069 C1066 1.383 . S
C1069 C1067 1.365 . S
C1069 H1086 0.931 . S
C1070 C1065 1.370 . S
C1070 C1066 1.395 . S
C1070 H1087 0.930 . S
C1071 Gd1018 2.805 . S
C1071 O1053 1.263 . S
C1071 O1054 1.252 . S
C1071 C1065 1.500 . S
C1072 H1034 0.930 . S
C1072 C1048 1.417 . S
C1072 C1073 1.329 . S
C1073 C1043 1.437 . S
C1073 H1044 0.929 . S
C1073 C1072 1.329 . S
H1074 C1047 0.931 . S
C1075 O1057 1.265 . S
C1075 O1058 1.242 . S
C1076 O1061 1.261 . S
C1076 O1062 1.252 . S
C1077 C1080 1.394 . S
C1077 C1082 1.370 . S
C1077 C1083 1.500 1_556 S
C1078 C1081 1.383 . S
C1078 C1082 1.395 . S
C1079 C1080 1.396 . S
C1079 C1081 1.365 . S
C1079 H1088 0.929 . S
C1080 C1077 1.394 . S
C1080 C1079 1.396 . S
C1080 H1089 0.930 . S
C1081 C1078 1.383 . S
C1081 C1079 1.365 . S
C1081 H1090 0.931 . S
C1082 C1077 1.370 . S
C1082 C1078 1.395 . S
C1082 H1091 0.930 . S
C1083 Gd1019 2.805 . S
C1083 O1059 1.263 . S
C1083 O1060 1.252 . S
C1083 C1077 1.500 1_554 S
H1084 C1067 0.929 . S
H1085 C1068 0.930 . S
H1086 C1069 0.931 . S
H1087 C1070 0.930 . S
H1088 C1079 0.929 . S
H1089 C1080 0.930 . S
H1090 C1081 0.931 . S
H1091 C1082 0.930 . S
C1092 C1094 1.422 . S
C1092 C1096 1.415 . S
C1092 N1098 1.369 . S
C1093 C1094 1.421 . S
C1093 C1095 1.417 . S
C1093 C1105 1.422 . S
C1094 C1092 1.422 . S
C1094 C1093 1.421 . S
C1094 N1104 1.359 . S
C1095 C1093 1.417 . S
C1095 C1097 1.329 . S
C1095 H1114 0.930 . S
C1096 C1092 1.415 . S
C1096 C1097 1.437 . S
C1096 C1100 1.413 . S
C1097 C1095 1.329 . S
C1097 C1096 1.437 . S
C1097 H1119 0.929 . S
N1098 C1092 1.369 . S
N1098 C1099 1.338 . S
N1098 Gd1103 2.622 . S
C1099 N1098 1.338 . S
C1099 C1101 1.378 . S
C1099 H1111 0.929 . S
C1100 C1096 1.413 . S
C1100 C1101 1.348 . S
C1100 H1116 0.931 . S
C1101 C1099 1.378 . S
C1101 C1100 1.348 . S
C1101 H1117 0.930 . S
Gd1102 N1122 2.622 . S
Gd1102 N1129 2.570 . S
Gd1102 O1136 2.353 . S
Gd1102 O1137 2.468 . S
Gd1102 O1138 2.427 . S
Gd1102 O1140 2.388 . S
Gd1102 O1141 2.386 . S
Gd1102 O1145 2.307 . S
Gd1102 C1155 2.805 . S
Gd1103 N1098 2.622 . S
Gd1103 N1104 2.570 . S
Gd1103 O1135 2.386 . S
Gd1103 O1139 2.307 . S
Gd1103 O1142 2.353 . S
Gd1103 O1143 2.468 . S
Gd1103 O1144 2.427 . S
Gd1103 O1146 2.388 . S
Gd1103 C1167 2.805 . S
N1104 C1094 1.359 . S
N1104 Gd1103 2.570 . S
N1104 C1106 1.343 . S
C1105 C1093 1.422 . S
C1105 C1107 1.321 . S
C1105 H1113 0.931 . S
C1106 N1104 1.343 . S
C1106 C1107 1.390 . S
C1106 H1108 0.931 . S
C1107 C1105 1.321 . S
C1107 C1106 1.390 . S
C1107 H1109 0.930 . S
H1108 C1106 0.931 . S
H1109 C1107 0.930 . S
H1110 C1133 0.931 . S
H1111 C1099 0.929 . S
H1112 C1134 0.930 . S
H1113 C1105 0.931 . S
H1114 C1095 0.930 . S
H1115 C1124 0.929 . S
H1116 C1100 0.931 . S
H1117 C1101 0.930 . S
H1118 C1156 0.930 . S
H1119 C1097 0.929 . S
H1120 C1125 0.931 . S
H1121 C1126 0.930 . S
N1122 Gd1102 2.622 . S
N1122 C1123 1.369 . S
N1122 C1124 1.338 . S
C1123 N1122 1.369 . S
C1123 C1127 1.415 . S
C1123 C1130 1.422 . S
C1124 H1115 0.929 . S
C1124 N1122 1.338 . S
C1124 C1126 1.378 . S
C1125 H1120 0.931 . S
C1125 C1126 1.348 . S
C1125 C1127 1.413 . S
C1126 H1121 0.930 . S
C1126 C1124 1.378 . S
C1126 C1125 1.348 . S
C1127 C1123 1.415 . S
C1127 C1125 1.413 . S
C1127 C1157 1.437 . S
H1128 C1157 0.929 . S
N1129 Gd1102 2.570 . S
N1129 C1130 1.359 . S
N1129 C1133 1.343 . S
C1130 C1123 1.422 . S
C1130 N1129 1.359 . S
C1130 C1132 1.421 . S
C1131 C1132 1.422 . S
C1131 C1134 1.321 . S
C1131 H1158 0.931 . S
C1132 C1130 1.421 . S
C1132 C1131 1.422 . S
C1132 C1156 1.417 . S
C1133 H1110 0.931 . S
C1133 N1129 1.343 . S
C1133 C1134 1.390 . S
C1134 H1112 0.930 . S
C1134 C1131 1.321 . S
C1134 C1133 1.390 . S
O1135 Gd1103 2.386 . S
O1135 C1147 1.265 . S
O1136 Gd1102 2.353 . S
O1136 C1147 1.242 . S
O1137 Gd1102 2.468 . S
O1137 C1155 1.263 . S
O1138 Gd1102 2.427 . S
O1138 C1155 1.252 . S
O1139 Gd1103 2.307 . S
O1139 C1148 1.261 . S
O1140 Gd1102 2.388 . S
O1140 C1148 1.252 . S
O1141 Gd1102 2.386 . S
O1141 C1159 1.265 . S
O1142 Gd1103 2.353 . S
O1142 C1159 1.242 . S
O1143 Gd1103 2.468 . S
O1143 C1167 1.263 . S
O1144 Gd1103 2.427 . S
O1144 C1167 1.252 . S
O1145 Gd1102 2.307 . S
O1145 C1160 1.261 . S
O1146 Gd1103 2.388 . S
O1146 C1160 1.252 . S
C1147 O1135 1.265 . S
C1147 O1136 1.242 . S
C1148 O1139 1.261 . S
C1148 O1140 1.252 . S
C1149 C1152 1.394 . S
C1149 C1154 1.370 . S
C1149 C1155 1.500 . S
C1150 C1153 1.383 . S
C1150 C1154 1.395 . S
C1151 C1152 1.396 . S
C1151 C1153 1.365 . S
C1151 H1168 0.929 . S
C1152 C1149 1.394 . S
C1152 C1151 1.396 . S
C1152 H1169 0.930 . S
C1153 C1150 1.383 . S
C1153 C1151 1.365 . S
C1153 H1170 0.931 . S
C1154 C1149 1.370 . S
C1154 C1150 1.395 . S
C1154 H1171 0.930 . S
C1155 Gd1102 2.805 . S
C1155 O1137 1.263 . S
C1155 O1138 1.252 . S
C1155 C1149 1.500 . S
C1156 H1118 0.930 . S
C1156 C1132 1.417 . S
C1156 C1157 1.329 . S
C1157 C1127 1.437 . S
C1157 H1128 0.929 . S
C1157 C1156 1.329 . S
H1158 C1131 0.931 . S
C1159 O1141 1.265 . S
C1159 O1142 1.242 . S
C1160 O1145 1.261 . S
C1160 O1146 1.252 . S
C1161 C1164 1.394 . S
C1161 C1166 1.370 . S
C1161 C1167 1.500 . S
C1162 C1165 1.383 . S
C1162 C1166 1.395 . S
C1163 C1164 1.396 . S
C1163 C1165 1.365 . S
C1163 H1172 0.929 . S
C1164 C1161 1.394 . S
C1164 C1163 1.396 . S
C1164 H1173 0.930 . S
C1165 C1162 1.383 . S
C1165 C1163 1.365 . S
C1165 H1174 0.931 . S
C1166 C1161 1.370 . S
C1166 C1162 1.395 . S
C1166 H1175 0.930 . S
C1167 Gd1103 2.805 . S
C1167 O1143 1.263 . S
C1167 O1144 1.252 . S
C1167 C1161 1.500 . S
H1168 C1151 0.929 . S
H1169 C1152 0.930 . S
H1170 C1153 0.931 . S
H1171 C1154 0.930 . S
H1172 C1163 0.929 . S
H1173 C1164 0.930 . S
H1174 C1165 0.931 . S
H1175 C1166 0.930 . S
C1176 C1178 1.422 . S
C1176 C1180 1.415 . S
C1176 N1182 1.369 . S
C1177 C1178 1.421 . S
C1177 C1179 1.417 . S
C1177 C1189 1.422 . S
C1178 C1176 1.422 . S
C1178 C1177 1.421 . S
C1178 N1188 1.359 . S
C1179 C1177 1.417 . S
C1179 C1181 1.329 . S
C1179 H1198 0.930 . S
C1180 C1176 1.415 . S
C1180 C1181 1.437 . S
C1180 C1184 1.413 . S
C1181 C1179 1.329 . S
C1181 C1180 1.437 . S
C1181 H1203 0.929 . S
N1182 C1176 1.369 . S
N1182 C1183 1.338 . S
N1182 Gd1187 2.622 . S
C1183 N1182 1.338 . S
C1183 C1185 1.378 . S
C1183 H1195 0.929 . S
C1184 C1180 1.413 . S
C1184 C1185 1.348 . S
C1184 H1200 0.931 . S
C1185 C1183 1.378 . S
C1185 C1184 1.348 . S
C1185 H1201 0.930 . S
Gd1186 N1206 2.622 1_455 S
Gd1186 N1213 2.570 1_455 S
Gd1186 O1220 2.353 . S
Gd1186 O1221 2.468 . S
Gd1186 O1222 2.427 . S
Gd1186 O1224 2.388 . S
Gd1186 O1225 2.386 1_455 S
Gd1186 O1229 2.307 . S
Gd1186 C1239 2.805 . S
Gd1187 N1182 2.622 . S
Gd1187 N1188 2.570 . S
Gd1187 O1219 2.386 . S
Gd1187 O1223 2.307 . S
Gd1187 O1226 2.353 1_455 S
Gd1187 O1227 2.468 . S
Gd1187 O1228 2.427 . S
Gd1187 O1230 2.388 . S
Gd1187 C1251 2.805 . S
N1188 C1178 1.359 . S
N1188 Gd1187 2.570 . S
N1188 C1190 1.343 . S
C1189 C1177 1.422 . S
C1189 C1191 1.321 . S
C1189 H1197 0.931 . S
C1190 N1188 1.343 . S
C1190 C1191 1.390 . S
C1190 H1192 0.931 . S
C1191 C1189 1.321 . S
C1191 C1190 1.390 . S
C1191 H1193 0.930 . S
H1192 C1190 0.931 . S
H1193 C1191 0.930 . S
H1194 C1217 0.931 1_455 S
H1195 C1183 0.929 . S
H1196 C1218 0.930 . S
H1197 C1189 0.931 . S
H1198 C1179 0.930 . S
H1199 C1208 0.929 1_455 S
H1200 C1184 0.931 . S
H1201 C1185 0.930 . S
H1202 C1240 0.930 . S
H1203 C1181 0.929 . S
H1204 C1209 0.931 . S
H1205 C1210 0.930 . S
N1206 Gd1186 2.622 1_655 S
N1206 C1207 1.369 . S
N1206 C1208 1.338 . S
C1207 N1206 1.369 . S
C1207 C1211 1.415 . S
C1207 C1214 1.422 . S
C1208 H1199 0.929 1_655 S
C1208 N1206 1.338 . S
C1208 C1210 1.378 . S
C1209 H1204 0.931 . S
C1209 C1210 1.348 . S
C1209 C1211 1.413 . S
C1210 H1205 0.930 . S
C1210 C1208 1.378 . S
C1210 C1209 1.348 . S
C1211 C1207 1.415 . S
C1211 C1209 1.413 . S
C1211 C1241 1.437 . S
H1212 C1241 0.929 . S
N1213 Gd1186 2.570 1_655 S
N1213 C1214 1.359 . S
N1213 C1217 1.343 . S
C1214 C1207 1.422 . S
C1214 N1213 1.359 . S
C1214 C1216 1.421 . S
C1215 C1216 1.422 . S
C1215 C1218 1.321 . S
C1215 H1242 0.931 . S
C1216 C1214 1.421 . S
C1216 C1215 1.422 . S
C1216 C1240 1.417 . S
C1217 H1194 0.931 1_655 S
C1217 N1213 1.343 . S
C1217 C1218 1.390 . S
C1218 H1196 0.930 . S
C1218 C1215 1.321 . S
C1218 C1217 1.390 . S
O1219 Gd1187 2.386 . S
O1219 C1231 1.265 . S
O1220 Gd1186 2.353 . S
O1220 C1231 1.242 . S
O1221 Gd1186 2.468 . S
O1221 C1239 1.263 . S
O1222 Gd1186 2.427 . S
O1222 C1239 1.252 . S
O1223 Gd1187 2.307 . S
O1223 C1232 1.261 . S
O1224 Gd1186 2.388 . S
O1224 C1232 1.252 . S
O1225 Gd1186 2.386 1_655 S
O1225 C1243 1.265 . S
O1226 Gd1187 2.353 1_655 S
O1226 C1243 1.242 . S
O1227 Gd1187 2.468 . S
O1227 C1251 1.263 . S
O1228 Gd1187 2.427 . S
O1228 C1251 1.252 . S
O1229 Gd1186 2.307 . S
O1229 C1244 1.261 . S
O1230 Gd1187 2.388 . S
O1230 C1244 1.252 . S
C1231 O1219 1.265 . S
C1231 O1220 1.242 . S
C1232 O1223 1.261 . S
C1232 O1224 1.252 . S
C1233 C1236 1.394 . S
C1233 C1238 1.370 . S
C1233 C1239 1.500 . S
C1234 C1237 1.383 . S
C1234 C1238 1.395 . S
C1235 C1236 1.396 . S
C1235 C1237 1.365 . S
C1235 H1252 0.929 . S
C1236 C1233 1.394 . S
C1236 C1235 1.396 . S
C1236 H1253 0.930 . S
C1237 C1234 1.383 . S
C1237 C1235 1.365 . S
C1237 H1254 0.931 . S
C1238 C1233 1.370 . S
C1238 C1234 1.395 . S
C1238 H1255 0.930 . S
C1239 Gd1186 2.805 . S
C1239 O1221 1.263 . S
C1239 O1222 1.252 . S
C1239 C1233 1.500 . S
C1240 H1202 0.930 . S
C1240 C1216 1.417 . S
C1240 C1241 1.329 . S
C1241 C1211 1.437 . S
C1241 H1212 0.929 . S
C1241 C1240 1.329 . S
H1242 C1215 0.931 . S
C1243 O1225 1.265 . S
C1243 O1226 1.242 . S
C1244 O1229 1.261 . S
C1244 O1230 1.252 . S
C1245 C1248 1.394 . S
C1245 C1250 1.370 . S
C1245 C1251 1.500 1_655 S
C1246 C1249 1.383 . S
C1246 C1250 1.395 . S
C1247 C1248 1.396 . S
C1247 C1249 1.365 . S
C1247 H1256 0.929 . S
C1248 C1245 1.394 . S
C1248 C1247 1.396 . S
C1248 H1257 0.930 . S
C1249 C1246 1.383 . S
C1249 C1247 1.365 . S
C1249 H1258 0.931 . S
C1250 C1245 1.370 . S
C1250 C1246 1.395 . S
C1250 H1259 0.930 . S
C1251 Gd1187 2.805 . S
C1251 O1227 1.263 . S
C1251 O1228 1.252 . S
C1251 C1245 1.500 1_455 S
H1252 C1235 0.929 . S
H1253 C1236 0.930 . S
H1254 C1237 0.931 . S
H1255 C1238 0.930 . S
H1256 C1247 0.929 . S
H1257 C1248 0.930 . S
H1258 C1249 0.931 . S
H1259 C1250 0.930 . S
C1260 C1262 1.422 . S
C1260 C1264 1.415 . S
C1260 N1266 1.369 . S
C1261 C1262 1.421 . S
C1261 C1263 1.417 . S
C1261 C1273 1.422 . S
C1262 C1260 1.422 . S
C1262 C1261 1.421 . S
C1262 N1272 1.359 . S
C1263 C1261 1.417 . S
C1263 C1265 1.329 . S
C1263 H1282 0.930 . S
C1264 C1260 1.415 . S
C1264 C1265 1.437 . S
C1264 C1268 1.413 . S
C1265 C1263 1.329 . S
C1265 C1264 1.437 . S
C1265 H1287 0.929 . S
N1266 C1260 1.369 . S
N1266 C1267 1.338 . S
N1266 Gd1271 2.622 . S
C1267 N1266 1.338 . S
C1267 C1269 1.378 . S
C1267 H1279 0.929 . S
C1268 C1264 1.413 . S
C1268 C1269 1.348 . S
C1268 H1284 0.931 . S
C1269 C1267 1.378 . S
C1269 C1268 1.348 . S
C1269 H1285 0.930 . S
Gd1270 N1290 2.622 . S
Gd1270 N1297 2.570 . S
Gd1270 O1304 2.353 . S
Gd1270 O1305 2.468 . S
Gd1270 O1306 2.427 . S
Gd1270 O1308 2.388 . S
Gd1270 O1309 2.386 . S
Gd1270 O1313 2.307 . S
Gd1270 C1323 2.805 . S
Gd1271 N1266 2.622 . S
Gd1271 N1272 2.570 . S
Gd1271 O1303 2.386 . S
Gd1271 O1307 2.307 . S
Gd1271 O1310 2.353 . S
Gd1271 O1311 2.468 . S
Gd1271 O1312 2.427 . S
Gd1271 O1314 2.388 . S
Gd1271 C1335 2.805 . S
N1272 C1262 1.359 . S
N1272 Gd1271 2.570 . S
N1272 C1274 1.343 . S
C1273 C1261 1.422 . S
C1273 C1275 1.321 . S
C1273 H1281 0.931 . S
C1274 N1272 1.343 . S
C1274 C1275 1.390 . S
C1274 H1276 0.931 . S
C1275 C1273 1.321 . S
C1275 C1274 1.390 . S
C1275 H1277 0.930 . S
H1276 C1274 0.931 . S
H1277 C1275 0.930 . S
H1278 C1301 0.931 . S
H1279 C1267 0.929 . S
H1280 C1302 0.930 . S
H1281 C1273 0.931 . S
H1282 C1263 0.930 . S
H1283 C1292 0.929 . S
H1284 C1268 0.931 . S
H1285 C1269 0.930 . S
H1286 C1324 0.930 . S
H1287 C1265 0.929 . S
H1288 C1293 0.931 . S
H1289 C1294 0.930 . S
N1290 Gd1270 2.622 . S
N1290 C1291 1.369 . S
N1290 C1292 1.338 . S
C1291 N1290 1.369 . S
C1291 C1295 1.415 . S
C1291 C1298 1.422 . S
C1292 H1283 0.929 . S
C1292 N1290 1.338 . S
C1292 C1294 1.378 . S
C1293 H1288 0.931 . S
C1293 C1294 1.348 . S
C1293 C1295 1.413 . S
C1294 H1289 0.930 . S
C1294 C1292 1.378 . S
C1294 C1293 1.348 . S
C1295 C1291 1.415 . S
C1295 C1293 1.413 . S
C1295 C1325 1.437 . S
H1296 C1325 0.929 . S
N1297 Gd1270 2.570 . S
N1297 C1298 1.359 . S
N1297 C1301 1.343 . S
C1298 C1291 1.422 . S
C1298 N1297 1.359 . S
C1298 C1300 1.421 . S
C1299 C1300 1.422 . S
C1299 C1302 1.321 . S
C1299 H1326 0.931 . S
C1300 C1298 1.421 . S
C1300 C1299 1.422 . S
C1300 C1324 1.417 . S
C1301 H1278 0.931 . S
C1301 N1297 1.343 . S
C1301 C1302 1.390 . S
C1302 H1280 0.930 . S
C1302 C1299 1.321 . S
C1302 C1301 1.390 . S
O1303 Gd1271 2.386 . S
O1303 C1315 1.265 . S
O1304 Gd1270 2.353 . S
O1304 C1315 1.242 . S
O1305 Gd1270 2.468 . S
O1305 C1323 1.263 . S
O1306 Gd1270 2.427 . S
O1306 C1323 1.252 . S
O1307 Gd1271 2.307 . S
O1307 C1316 1.261 . S
O1308 Gd1270 2.388 . S
O1308 C1316 1.252 . S
O1309 Gd1270 2.386 . S
O1309 C1327 1.265 . S
O1310 Gd1271 2.353 . S
O1310 C1327 1.242 . S
O1311 Gd1271 2.468 . S
O1311 C1335 1.263 . S
O1312 Gd1271 2.427 . S
O1312 C1335 1.252 . S
O1313 Gd1270 2.307 . S
O1313 C1328 1.261 . S
O1314 Gd1271 2.388 . S
O1314 C1328 1.252 . S
C1315 O1303 1.265 . S
C1315 O1304 1.242 . S
C1316 O1307 1.261 . S
C1316 O1308 1.252 . S
C1317 C1320 1.394 . S
C1317 C1322 1.370 . S
C1317 C1323 1.500 . S
C1318 C1321 1.383 . S
C1318 C1322 1.395 . S
C1319 C1320 1.396 . S
C1319 C1321 1.365 . S
C1319 H1336 0.929 . S
C1320 C1317 1.394 . S
C1320 C1319 1.396 . S
C1320 H1337 0.930 . S
C1321 C1318 1.383 . S
C1321 C1319 1.365 . S
C1321 H1338 0.931 . S
C1322 C1317 1.370 . S
C1322 C1318 1.395 . S
C1322 H1339 0.930 . S
C1323 Gd1270 2.805 . S
C1323 O1305 1.263 . S
C1323 O1306 1.252 . S
C1323 C1317 1.500 . S
C1324 H1286 0.930 . S
C1324 C1300 1.417 . S
C1324 C1325 1.329 . S
C1325 C1295 1.437 . S
C1325 H1296 0.929 . S
C1325 C1324 1.329 . S
H1326 C1299 0.931 . S
C1327 O1309 1.265 . S
C1327 O1310 1.242 . S
C1328 O1313 1.261 . S
C1328 O1314 1.252 . S
C1329 C1332 1.394 . S
C1329 C1334 1.370 . S
C1329 C1335 1.500 . S
C1330 C1333 1.383 . S
C1330 C1334 1.395 . S
C1331 C1332 1.396 . S
C1331 C1333 1.365 . S
C1331 H1340 0.929 . S
C1332 C1329 1.394 . S
C1332 C1331 1.396 . S
C1332 H1341 0.930 . S
C1333 C1330 1.383 . S
C1333 C1331 1.365 . S
C1333 H1342 0.931 . S
C1334 C1329 1.370 . S
C1334 C1330 1.395 . S
C1334 H1343 0.930 . S
C1335 Gd1271 2.805 . S
C1335 O1311 1.263 . S
C1335 O1312 1.252 . S
C1335 C1329 1.500 . S
H1336 C1319 0.929 . S
H1337 C1320 0.930 . S
H1338 C1321 0.931 . S
H1339 C1322 0.930 . S
H1340 C1331 0.929 . S
H1341 C1332 0.930 . S
H1342 C1333 0.931 . S
H1343 C1334 0.930 . S
C1344 C1346 1.422 . S
C1344 C1348 1.415 . S
C1344 N1350 1.369 . S
C1345 C1346 1.421 . S
C1345 C1347 1.417 . S
C1345 C1357 1.422 . S
C1346 C1344 1.422 . S
C1346 C1345 1.421 . S
C1346 N1356 1.359 . S
C1347 C1345 1.417 . S
C1347 C1349 1.329 . S
C1347 H1366 0.930 . S
C1348 C1344 1.415 . S
C1348 C1349 1.437 . S
C1348 C1352 1.413 . S
C1349 C1347 1.329 . S
C1349 C1348 1.437 . S
C1349 H1371 0.929 . S
N1350 C1344 1.369 . S
N1350 C1351 1.338 . S
N1350 Gd1355 2.622 . S
C1351 N1350 1.338 . S
C1351 C1353 1.378 . S
C1351 H1363 0.929 . S
C1352 C1348 1.413 . S
C1352 C1353 1.348 . S
C1352 H1368 0.931 . S
C1353 C1351 1.378 . S
C1353 C1352 1.348 . S
C1353 H1369 0.930 . S
Gd1354 N1374 2.622 . S
Gd1354 N1381 2.570 . S
Gd1354 O1388 2.353 . S
Gd1354 O1389 2.468 . S
Gd1354 O1390 2.427 . S
Gd1354 O1392 2.388 . S
Gd1354 O1393 2.386 . S
Gd1354 O1397 2.307 . S
Gd1354 C1407 2.805 . S
Gd1355 N1350 2.622 . S
Gd1355 N1356 2.570 . S
Gd1355 O1387 2.386 . S
Gd1355 O1391 2.307 . S
Gd1355 O1394 2.353 . S
Gd1355 O1395 2.468 . S
Gd1355 O1396 2.427 . S
Gd1355 O1398 2.388 . S
Gd1355 C1419 2.805 . S
N1356 C1346 1.359 . S
N1356 Gd1355 2.570 . S
N1356 C1358 1.343 . S
C1357 C1345 1.422 . S
C1357 C1359 1.321 . S
C1357 H1365 0.931 . S
C1358 N1356 1.343 . S
C1358 C1359 1.390 . S
C1358 H1360 0.931 . S
C1359 C1357 1.321 . S
C1359 C1358 1.390 . S
C1359 H1361 0.930 . S
H1360 C1358 0.931 . S
H1361 C1359 0.930 . S
H1362 C1385 0.931 . S
H1363 C1351 0.929 . S
H1364 C1386 0.930 . S
H1365 C1357 0.931 . S
H1366 C1347 0.930 . S
H1367 C1376 0.929 . S
H1368 C1352 0.931 . S
H1369 C1353 0.930 . S
H1370 C1408 0.930 . S
H1371 C1349 0.929 . S
H1372 C1377 0.931 . S
H1373 C1378 0.930 . S
N1374 Gd1354 2.622 . S
N1374 C1375 1.369 . S
N1374 C1376 1.338 . S
C1375 N1374 1.369 . S
C1375 C1379 1.415 . S
C1375 C1382 1.422 . S
C1376 H1367 0.929 . S
C1376 N1374 1.338 . S
C1376 C1378 1.378 . S
C1377 H1372 0.931 . S
C1377 C1378 1.348 . S
C1377 C1379 1.413 . S
C1378 H1373 0.930 . S
C1378 C1376 1.378 . S
C1378 C1377 1.348 . S
C1379 C1375 1.415 . S
C1379 C1377 1.413 . S
C1379 C1409 1.437 . S
H1380 C1409 0.929 . S
N1381 Gd1354 2.570 . S
N1381 C1382 1.359 . S
N1381 C1385 1.343 . S
C1382 C1375 1.422 . S
C1382 N1381 1.359 . S
C1382 C1384 1.421 . S
C1383 C1384 1.422 . S
C1383 C1386 1.321 . S
C1383 H1410 0.931 . S
C1384 C1382 1.421 . S
C1384 C1383 1.422 . S
C1384 C1408 1.417 . S
C1385 H1362 0.931 . S
C1385 N1381 1.343 . S
C1385 C1386 1.390 . S
C1386 H1364 0.930 . S
C1386 C1383 1.321 . S
C1386 C1385 1.390 . S
O1387 Gd1355 2.386 . S
O1387 C1399 1.265 . S
O1388 Gd1354 2.353 . S
O1388 C1399 1.242 . S
O1389 Gd1354 2.468 . S
O1389 C1407 1.263 . S
O1390 Gd1354 2.427 . S
O1390 C1407 1.252 . S
O1391 Gd1355 2.307 . S
O1391 C1400 1.261 . S
O1392 Gd1354 2.388 . S
O1392 C1400 1.252 . S
O1393 Gd1354 2.386 . S
O1393 C1411 1.265 . S
O1394 Gd1355 2.353 . S
O1394 C1411 1.242 . S
O1395 Gd1355 2.468 . S
O1395 C1419 1.263 . S
O1396 Gd1355 2.427 . S
O1396 C1419 1.252 . S
O1397 Gd1354 2.307 . S
O1397 C1412 1.261 . S
O1398 Gd1355 2.388 . S
O1398 C1412 1.252 . S
C1399 O1387 1.265 . S
C1399 O1388 1.242 . S
C1400 O1391 1.261 . S
C1400 O1392 1.252 . S
C1401 C1404 1.394 . S
C1401 C1406 1.370 . S
C1401 C1407 1.500 . S
C1402 C1405 1.383 . S
C1402 C1406 1.395 . S
C1403 C1404 1.396 . S
C1403 C1405 1.365 . S
C1403 H1420 0.929 . S
C1404 C1401 1.394 . S
C1404 C1403 1.396 . S
C1404 H1421 0.930 . S
C1405 C1402 1.383 . S
C1405 C1403 1.365 . S
C1405 H1422 0.931 . S
C1406 C1401 1.370 . S
C1406 C1402 1.395 . S
C1406 H1423 0.930 . S
C1407 Gd1354 2.805 . S
C1407 O1389 1.263 . S
C1407 O1390 1.252 . S
C1407 C1401 1.500 . S
C1408 H1370 0.930 . S
C1408 C1384 1.417 . S
C1408 C1409 1.329 . S
C1409 C1379 1.437 . S
C1409 H1380 0.929 . S
C1409 C1408 1.329 . S
H1410 C1383 0.931 . S
C1411 O1393 1.265 . S
C1411 O1394 1.242 . S
C1412 O1397 1.261 . S
C1412 O1398 1.252 . S
C1413 C1416 1.394 . S
C1413 C1418 1.370 . S
C1413 C1419 1.500 . S
C1414 C1417 1.383 . S
C1414 C1418 1.395 . S
C1415 C1416 1.396 . S
C1415 C1417 1.365 . S
C1415 H1424 0.929 . S
C1416 C1413 1.394 . S
C1416 C1415 1.396 . S
C1416 H1425 0.930 . S
C1417 C1414 1.383 . S
C1417 C1415 1.365 . S
C1417 H1426 0.931 . S
C1418 C1413 1.370 . S
C1418 C1414 1.395 . S
C1418 H1427 0.930 . S
C1419 Gd1355 2.805 . S
C1419 O1395 1.263 . S
C1419 O1396 1.252 . S
C1419 C1413 1.500 . S
H1420 C1403 0.929 . S
H1421 C1404 0.930 . S
H1422 C1405 0.931 . S
H1423 C1406 0.930 . S
H1424 C1415 0.929 . S
H1425 C1416 0.930 . S
H1426 C1417 0.931 . S
H1427 C1418 0.930 . S
C1428 C1430 1.422 . S
C1428 C1432 1.415 . S
C1428 N1434 1.369 . S
C1429 C1430 1.421 . S
C1429 C1431 1.417 . S
C1429 C1441 1.422 . S
C1430 C1428 1.422 . S
C1430 C1429 1.421 . S
C1430 N1440 1.359 . S
C1431 C1429 1.417 . S
C1431 C1433 1.329 . S
C1431 H1450 0.930 . S
C1432 C1428 1.415 . S
C1432 C1433 1.437 . S
C1432 C1436 1.413 . S
C1433 C1431 1.329 . S
C1433 C1432 1.437 . S
C1433 H1455 0.929 . S
N1434 C1428 1.369 . S
N1434 C1435 1.338 . S
N1434 Gd1439 2.622 . S
C1435 N1434 1.338 . S
C1435 C1437 1.378 . S
C1435 H1447 0.929 . S
C1436 C1432 1.413 . S
C1436 C1437 1.348 . S
C1436 H1452 0.931 . S
C1437 C1435 1.378 . S
C1437 C1436 1.348 . S
C1437 H1453 0.930 . S
Gd1438 N1458 2.622 . S
Gd1438 N1465 2.570 . S
Gd1438 O1472 2.353 . S
Gd1438 O1473 2.468 . S
Gd1438 O1474 2.427 . S
Gd1438 O1476 2.388 . S
Gd1438 O1477 2.386 . S
Gd1438 O1481 2.307 . S
Gd1438 C1491 2.805 . S
Gd1439 N1434 2.622 . S
Gd1439 N1440 2.570 . S
Gd1439 O1471 2.386 . S
Gd1439 O1475 2.307 . S
Gd1439 O1478 2.353 . S
Gd1439 O1479 2.468 . S
Gd1439 O1480 2.427 . S
Gd1439 O1482 2.388 . S
Gd1439 C1503 2.805 . S
N1440 C1430 1.359 . S
N1440 Gd1439 2.570 . S
N1440 C1442 1.343 . S
C1441 C1429 1.422 . S
C1441 C1443 1.321 . S
C1441 H1449 0.931 . S
C1442 N1440 1.343 . S
C1442 C1443 1.390 . S
C1442 H1444 0.931 . S
C1443 C1441 1.321 . S
C1443 C1442 1.390 . S
C1443 H1445 0.930 . S
H1444 C1442 0.931 . S
H1445 C1443 0.930 . S
H1446 C1469 0.931 . S
H1447 C1435 0.929 . S
H1448 C1470 0.930 . S
H1449 C1441 0.931 . S
H1450 C1431 0.930 . S
H1451 C1460 0.929 . S
H1452 C1436 0.931 . S
H1453 C1437 0.930 . S
H1454 C1492 0.930 . S
H1455 C1433 0.929 . S
H1456 C1461 0.931 . S
H1457 C1462 0.930 . S
N1458 Gd1438 2.622 . S
N1458 C1459 1.369 . S
N1458 C1460 1.338 . S
C1459 N1458 1.369 . S
C1459 C1463 1.415 . S
C1459 C1466 1.422 . S
C1460 H1451 0.929 . S
C1460 N1458 1.338 . S
C1460 C1462 1.378 . S
C1461 H1456 0.931 . S
C1461 C1462 1.348 . S
C1461 C1463 1.413 . S
C1462 H1457 0.930 . S
C1462 C1460 1.378 . S
C1462 C1461 1.348 . S
C1463 C1459 1.415 . S
C1463 C1461 1.413 . S
C1463 C1493 1.437 . S
H1464 C1493 0.929 . S
N1465 Gd1438 2.570 . S
N1465 C1466 1.359 . S
N1465 C1469 1.343 . S
C1466 C1459 1.422 . S
C1466 N1465 1.359 . S
C1466 C1468 1.421 . S
C1467 C1468 1.422 . S
C1467 C1470 1.321 . S
C1467 H1494 0.931 . S
C1468 C1466 1.421 . S
C1468 C1467 1.422 . S
C1468 C1492 1.417 . S
C1469 H1446 0.931 . S
C1469 N1465 1.343 . S
C1469 C1470 1.390 . S
C1470 H1448 0.930 . S
C1470 C1467 1.321 . S
C1470 C1469 1.390 . S
O1471 Gd1439 2.386 . S
O1471 C1483 1.265 . S
O1472 Gd1438 2.353 . S
O1472 C1483 1.242 . S
O1473 Gd1438 2.468 . S
O1473 C1491 1.263 . S
O1474 Gd1438 2.427 . S
O1474 C1491 1.252 . S
O1475 Gd1439 2.307 . S
O1475 C1484 1.261 . S
O1476 Gd1438 2.388 . S
O1476 C1484 1.252 . S
O1477 Gd1438 2.386 . S
O1477 C1495 1.265 . S
O1478 Gd1439 2.353 . S
O1478 C1495 1.242 . S
O1479 Gd1439 2.468 . S
O1479 C1503 1.263 . S
O1480 Gd1439 2.427 . S
O1480 C1503 1.252 . S
O1481 Gd1438 2.307 . S
O1481 C1496 1.261 . S
O1482 Gd1439 2.388 . S
O1482 C1496 1.252 . S
C1483 O1471 1.265 . S
C1483 O1472 1.242 . S
C1484 O1475 1.261 . S
C1484 O1476 1.252 . S
C1485 C1488 1.394 . S
C1485 C1490 1.370 . S
C1485 C1491 1.500 . S
C1486 C1489 1.383 . S
C1486 C1490 1.395 . S
C1487 C1488 1.396 . S
C1487 C1489 1.365 . S
C1487 H1504 0.929 . S
C1488 C1485 1.394 . S
C1488 C1487 1.396 . S
C1488 H1505 0.930 . S
C1489 C1486 1.383 . S
C1489 C1487 1.365 . S
C1489 H1506 0.931 . S
C1490 C1485 1.370 . S
C1490 C1486 1.395 . S
C1490 H1507 0.930 . S
C1491 Gd1438 2.805 . S
C1491 O1473 1.263 . S
C1491 O1474 1.252 . S
C1491 C1485 1.500 . S
C1492 H1454 0.930 . S
C1492 C1468 1.417 . S
C1492 C1493 1.329 . S
C1493 C1463 1.437 . S
C1493 H1464 0.929 . S
C1493 C1492 1.329 . S
H1494 C1467 0.931 . S
C1495 O1477 1.265 . S
C1495 O1478 1.242 . S
C1496 O1481 1.261 . S
C1496 O1482 1.252 . S
C1497 C1500 1.394 . S
C1497 C1502 1.370 . S
C1497 C1503 1.500 . S
C1498 C1501 1.383 . S
C1498 C1502 1.395 . S
C1499 C1500 1.396 . S
C1499 C1501 1.365 . S
C1499 H1508 0.929 . S
C1500 C1497 1.394 . S
C1500 C1499 1.396 . S
C1500 H1509 0.930 . S
C1501 C1498 1.383 . S
C1501 C1499 1.365 . S
C1501 H1510 0.931 . S
C1502 C1497 1.370 . S
C1502 C1498 1.395 . S
C1502 H1511 0.930 . S
C1503 Gd1439 2.805 . S
C1503 O1479 1.263 . S
C1503 O1480 1.252 . S
C1503 C1497 1.500 . S
H1504 C1487 0.929 . S
H1505 C1488 0.930 . S
H1506 C1489 0.931 . S
H1507 C1490 0.930 . S
H1508 C1499 0.929 . S
H1509 C1500 0.930 . S
H1510 C1501 0.931 . S
H1511 C1502 0.930 . S
C1512 C1514 1.422 . S
C1512 C1516 1.415 . S
C1512 N1518 1.369 . S
C1513 C1514 1.421 . S
C1513 C1515 1.417 . S
C1513 C1525 1.422 . S
C1514 C1512 1.422 . S
C1514 C1513 1.421 . S
C1514 N1524 1.359 . S
C1515 C1513 1.417 . S
C1515 C1517 1.329 . S
C1515 H1534 0.930 . S
C1516 C1512 1.415 . S
C1516 C1517 1.437 . S
C1516 C1520 1.413 . S
C1517 C1515 1.329 . S
C1517 C1516 1.437 . S
C1517 H1539 0.929 . S
N1518 C1512 1.369 . S
N1518 C1519 1.338 . S
N1518 Gd1523 2.622 . S
C1519 N1518 1.338 . S
C1519 C1521 1.378 . S
C1519 H1531 0.929 . S
C1520 C1516 1.413 . S
C1520 C1521 1.348 . S
C1520 H1536 0.931 . S
C1521 C1519 1.378 . S
C1521 C1520 1.348 . S
C1521 H1537 0.930 . S
Gd1522 N1542 2.622 . S
Gd1522 N1549 2.570 . S
Gd1522 O1556 2.353 . S
Gd1522 O1557 2.468 . S
Gd1522 O1558 2.427 . S
Gd1522 O1560 2.388 . S
Gd1522 O1561 2.386 . S
Gd1522 O1565 2.307 . S
Gd1522 C1575 2.805 . S
Gd1523 N1518 2.622 . S
Gd1523 N1524 2.570 . S
Gd1523 O1555 2.386 . S
Gd1523 O1559 2.307 . S
Gd1523 O1562 2.353 . S
Gd1523 O1563 2.468 . S
Gd1523 O1564 2.427 . S
Gd1523 O1566 2.388 . S
Gd1523 C1587 2.805 . S
N1524 C1514 1.359 . S
N1524 Gd1523 2.570 . S
N1524 C1526 1.343 . S
C1525 C1513 1.422 . S
C1525 C1527 1.321 . S
C1525 H1533 0.931 . S
C1526 N1524 1.343 . S
C1526 C1527 1.390 . S
C1526 H1528 0.931 . S
C1527 C1525 1.321 . S
C1527 C1526 1.390 . S
C1527 H1529 0.930 . S
H1528 C1526 0.931 . S
H1529 C1527 0.930 . S
H1530 C1553 0.931 . S
H1531 C1519 0.929 . S
H1532 C1554 0.930 . S
H1533 C1525 0.931 . S
H1534 C1515 0.930 . S
H1535 C1544 0.929 . S
H1536 C1520 0.931 . S
H1537 C1521 0.930 . S
H1538 C1576 0.930 . S
H1539 C1517 0.929 . S
H1540 C1545 0.931 . S
H1541 C1546 0.930 . S
N1542 Gd1522 2.622 . S
N1542 C1543 1.369 . S
N1542 C1544 1.338 . S
C1543 N1542 1.369 . S
C1543 C1547 1.415 . S
C1543 C1550 1.422 . S
C1544 H1535 0.929 . S
C1544 N1542 1.338 . S
C1544 C1546 1.378 . S
C1545 H1540 0.931 . S
C1545 C1546 1.348 . S
C1545 C1547 1.413 . S
C1546 H1541 0.930 . S
C1546 C1544 1.378 . S
C1546 C1545 1.348 . S
C1547 C1543 1.415 . S
C1547 C1545 1.413 . S
C1547 C1577 1.437 . S
H1548 C1577 0.929 . S
N1549 Gd1522 2.570 . S
N1549 C1550 1.359 . S
N1549 C1553 1.343 . S
C1550 C1543 1.422 . S
C1550 N1549 1.359 . S
C1550 C1552 1.421 . S
C1551 C1552 1.422 . S
C1551 C1554 1.321 . S
C1551 H1578 0.931 . S
C1552 C1550 1.421 . S
C1552 C1551 1.422 . S
C1552 C1576 1.417 . S
C1553 H1530 0.931 . S
C1553 N1549 1.343 . S
C1553 C1554 1.390 . S
C1554 H1532 0.930 . S
C1554 C1551 1.321 . S
C1554 C1553 1.390 . S
O1555 Gd1523 2.386 . S
O1555 C1567 1.265 . S
O1556 Gd1522 2.353 . S
O1556 C1567 1.242 . S
O1557 Gd1522 2.468 . S
O1557 C1575 1.263 . S
O1558 Gd1522 2.427 . S
O1558 C1575 1.252 . S
O1559 Gd1523 2.307 . S
O1559 C1568 1.261 . S
O1560 Gd1522 2.388 . S
O1560 C1568 1.252 . S
O1561 Gd1522 2.386 . S
O1561 C1579 1.265 . S
O1562 Gd1523 2.353 . S
O1562 C1579 1.242 . S
O1563 Gd1523 2.468 . S
O1563 C1587 1.263 . S
O1564 Gd1523 2.427 . S
O1564 C1587 1.252 . S
O1565 Gd1522 2.307 . S
O1565 C1580 1.261 . S
O1566 Gd1523 2.388 . S
O1566 C1580 1.252 . S
C1567 O1555 1.265 . S
C1567 O1556 1.242 . S
C1568 O1559 1.261 . S
C1568 O1560 1.252 . S
C1569 C1572 1.394 . S
C1569 C1574 1.370 . S
C1569 C1575 1.500 . S
C1570 C1573 1.383 . S
C1570 C1574 1.395 . S
C1571 C1572 1.396 . S
C1571 C1573 1.365 . S
C1571 H1588 0.929 . S
C1572 C1569 1.394 . S
C1572 C1571 1.396 . S
C1572 H1589 0.930 . S
C1573 C1570 1.383 . S
C1573 C1571 1.365 . S
C1573 H1590 0.931 . S
C1574 C1569 1.370 . S
C1574 C1570 1.395 . S
C1574 H1591 0.930 . S
C1575 Gd1522 2.805 . S
C1575 O1557 1.263 . S
C1575 O1558 1.252 . S
C1575 C1569 1.500 . S
C1576 H1538 0.930 . S
C1576 C1552 1.417 . S
C1576 C1577 1.329 . S
C1577 C1547 1.437 . S
C1577 H1548 0.929 . S
C1577 C1576 1.329 . S
H1578 C1551 0.931 . S
C1579 O1561 1.265 . S
C1579 O1562 1.242 . S
C1580 O1565 1.261 . S
C1580 O1566 1.252 . S
C1581 C1584 1.394 . S
C1581 C1586 1.370 . S
C1581 C1587 1.500 . S
C1582 C1585 1.383 . S
C1582 C1586 1.395 . S
C1583 C1584 1.396 . S
C1583 C1585 1.365 . S
C1583 H1592 0.929 . S
C1584 C1581 1.394 . S
C1584 C1583 1.396 . S
C1584 H1593 0.930 . S
C1585 C1582 1.383 . S
C1585 C1583 1.365 . S
C1585 H1594 0.931 . S
C1586 C1581 1.370 . S
C1586 C1582 1.395 . S
C1586 H1595 0.930 . S
C1587 Gd1523 2.805 . S
C1587 O1563 1.263 . S
C1587 O1564 1.252 . S
C1587 C1581 1.500 . S
H1588 C1571 0.929 . S
H1589 C1572 0.930 . S
H1590 C1573 0.931 . S
H1591 C1574 0.930 . S
H1592 C1583 0.929 . S
H1593 C1584 0.930 . S
H1594 C1585 0.931 . S
H1595 C1586 0.930 . S
C1596 C1598 1.422 1_556 S
C1596 C1600 1.415 . S
C1596 N1602 1.369 . S
C1597 C1598 1.421 . S
C1597 C1599 1.417 . S
C1597 C1609 1.422 . S
C1598 C1596 1.422 1_554 S
C1598 C1597 1.421 . S
C1598 N1608 1.359 . S
C1599 C1597 1.417 . S
C1599 C1601 1.329 1_554 S
C1599 H1618 0.930 . S
C1600 C1596 1.415 . S
C1600 C1601 1.437 . S
C1600 C1604 1.413 . S
C1601 C1599 1.329 1_556 S
C1601 C1600 1.437 . S
C1601 H1623 0.929 . S
N1602 C1596 1.369 . S
N1602 C1603 1.338 . S
N1602 Gd1607 2.622 1_556 S
C1603 N1602 1.338 . S
C1603 C1605 1.378 . S
C1603 H1615 0.929 . S
C1604 C1600 1.413 . S
C1604 C1605 1.348 . S
C1604 H1620 0.931 . S
C1605 C1603 1.378 . S
C1605 C1604 1.348 . S
C1605 H1621 0.930 . S
Gd1606 N1626 2.622 . S
Gd1606 N1633 2.570 . S
Gd1606 O1640 2.353 1_655 S
Gd1606 O1641 2.468 . S
Gd1606 O1642 2.427 . S
Gd1606 O1644 2.388 1_655 S
Gd1606 O1645 2.386 1_655 S
Gd1606 O1649 2.307 1_655 S
Gd1606 C1659 2.805 . S
Gd1607 N1602 2.622 1_554 S
Gd1607 N1608 2.570 . S
Gd1607 O1639 2.386 . S
Gd1607 O1643 2.307 . S
Gd1607 O1646 2.353 . S
Gd1607 O1647 2.468 . S
Gd1607 O1648 2.427 1_554 S
Gd1607 O1650 2.388 1_554 S
Gd1607 C1671 2.805 . S
N1608 C1598 1.359 . S
N1608 Gd1607 2.570 . S
N1608 C1610 1.343 . S
C1609 C1597 1.422 . S
C1609 C1611 1.321 . S
C1609 H1617 0.931 . S
C1610 N1608 1.343 . S
C1610 C1611 1.390 . S
C1610 H1612 0.931 . S
C1611 C1609 1.321 . S
C1611 C1610 1.390 . S
C1611 H1613 0.930 . S
H1612 C1610 0.931 . S
H1613 C1611 0.930 . S
H1614 C1637 0.931 1_556 S
H1615 C1603 0.929 . S
H1616 C1638 0.946 . S
H1617 C1609 0.931 . S
H1618 C1599 0.930 . S
H1619 C1628 0.929 1_455 S
H1620 C1604 0.931 . S
H1621 C1605 0.930 . S
H1622 C1660 0.930 . S
H1623 C1601 0.929 . S
H1624 C1629 0.931 . S
H1625 C1630 0.930 . S
N1626 Gd1606 2.622 . S
N1626 C1627 1.369 . S
N1626 C1628 1.338 . S
C1627 N1626 1.369 . S
C1627 C1631 1.415 . S
C1627 C1634 1.422 . S
C1628 H1619 0.929 1_655 S
C1628 N1626 1.338 . S
C1628 C1630 1.378 . S
C1629 H1624 0.931 . S
C1629 C1630 1.348 . S
C1629 C1631 1.413 . S
C1630 H1625 0.930 . S
C1630 C1628 1.378 . S
C1630 C1629 1.348 . S
C1631 C1627 1.415 . S
C1631 C1629 1.413 . S
C1631 C1661 1.437 . S
H1632 C1661 0.929 . S
N1633 Gd1606 2.570 . S
N1633 C1634 1.359 . S
N1633 C1637 1.343 . S
C1634 C1627 1.422 . S
C1634 N1633 1.359 . S
C1634 C1636 1.421 . S
C1635 C1636 1.422 . S
C1635 C1638 1.309 1_554 S
C1635 H1662 0.931 . S
C1636 C1634 1.421 . S
C1636 C1635 1.422 . S
C1636 C1660 1.417 . S
C1637 H1614 0.931 1_554 S
C1637 N1633 1.343 . S
C1637 C1638 1.387 1_554 S
C1638 H1616 0.946 . S
C1638 C1635 1.309 1_556 S
C1638 C1637 1.387 1_556 S
O1639 Gd1607 2.386 . S
O1639 C1651 1.265 . S
O1640 Gd1606 2.353 1_455 S
O1640 C1651 1.242 . S
O1641 Gd1606 2.468 . S
O1641 C1659 1.263 . S
O1642 Gd1606 2.427 . S
O1642 C1659 1.252 . S
O1643 Gd1607 2.307 . S
O1643 C1652 1.261 . S
O1644 Gd1606 2.388 1_455 S
O1644 C1652 1.252 . S
O1645 Gd1606 2.386 1_455 S
O1645 C1663 1.265 . S
O1646 Gd1607 2.353 . S
O1646 C1663 1.242 . S
O1647 Gd1607 2.468 . S
O1647 C1671 1.263 . S
O1648 Gd1607 2.427 1_556 S
O1648 C1671 1.252 1_556 S
O1649 Gd1606 2.307 1_455 S
O1649 C1664 1.262 1_554 S
O1650 Gd1607 2.388 1_556 S
O1650 C1664 1.252 . S
C1651 O1639 1.265 . S
C1651 O1640 1.242 . S
C1652 O1643 1.261 . S
C1652 O1644 1.252 . S
C1653 C1656 1.394 . S
C1653 C1658 1.370 . S
C1653 C1659 1.500 . S
C1654 C1657 1.383 . S
C1654 C1658 1.395 . S
C1655 C1656 1.396 . S
C1655 C1657 1.365 . S
C1655 H1672 0.929 . S
C1656 C1653 1.394 . S
C1656 C1655 1.396 . S
C1656 H1673 0.930 . S
C1657 C1654 1.383 . S
C1657 C1655 1.365 . S
C1657 H1674 0.931 . S
C1658 C1653 1.370 . S
C1658 C1654 1.395 . S
C1658 H1675 0.930 . S
C1659 Gd1606 2.805 . S
C1659 O1641 1.263 . S
C1659 O1642 1.252 . S
C1659 C1653 1.500 . S
C1660 H1622 0.930 . S
C1660 C1636 1.417 . S
C1660 C1661 1.329 . S
C1661 C1631 1.437 . S
C1661 H1632 0.929 . S
C1661 C1660 1.329 . S
H1662 C1635 0.931 . S
C1663 O1645 1.265 . S
C1663 O1646 1.242 . S
C1664 O1649 1.262 1_556 S
C1664 O1650 1.252 . S
C1665 C1668 1.394 . S
C1665 C1670 1.370 1_556 S
C1665 C1671 1.500 1_556 S
C1666 C1669 1.383 1_554 S
C1666 C1670 1.395 . S
C1667 C1668 1.396 . S
C1667 C1669 1.365 . S
C1667 H1676 0.929 . S
C1668 C1665 1.394 . S
C1668 C1667 1.396 . S
C1668 H1677 0.930 . S
C1669 C1666 1.383 1_556 S
C1669 C1667 1.365 . S
C1669 H1678 0.931 . S
C1670 C1665 1.370 1_554 S
C1670 C1666 1.395 . S
C1670 H1679 0.930 . S
C1671 Gd1607 2.805 . S
C1671 O1647 1.263 . S
C1671 O1648 1.252 1_554 S
C1671 C1665 1.500 1_554 S
H1672 C1655 0.929 . S
H1673 C1656 0.930 . S
H1674 C1657 0.931 . S
H1675 C1658 0.930 . S
H1676 C1667 0.929 . S
H1677 C1668 0.930 . S
H1678 C1669 0.931 . S
H1679 C1670 0.930 . S
C1680 C1681 1.366 1_455 S
C1680 C1682 1.394 1_556 S
C1680 H1696 0.931 . S
C1681 C1680 1.366 1_655 S
C1681 C1685 1.391 . S
C1682 C1680 1.394 1_554 S
C1682 C1683 1.369 1_554 S
C1682 C1686 1.531 . S
C1683 C1682 1.369 1_556 S
C1683 C1684 1.411 1_455 S
C1683 C1691 1.502 1_556 S
C1684 C1683 1.411 1_655 S
C1684 C1685 1.392 . S
C1684 C1687 1.511 . S
C1685 C1681 1.391 . S
C1685 C1684 1.392 . S
C1685 H1697 0.929 . S
C1686 C1682 1.531 . S
C1686 H1698 0.960 . S
C1686 H1699 0.962 . S
C1686 H1700 0.960 . S
C1687 C1684 1.511 . S
C1687 H1701 0.961 . S
C1687 H1702 0.961 . S
C1687 H1703 0.961 . S
C1688 C1689 1.370 1_556 S
C1688 C1690 1.363 . S
C1688 H1704 0.931 . S
C1689 C1688 1.370 1_554 S
C1689 C1693 1.408 . S
C1690 C1688 1.363 . S
C1690 C1691 1.370 1_556 S
C1690 C1694 1.524 . S
C1691 C1683 1.502 1_554 S
C1691 C1690 1.370 1_554 S
C1691 C1692 1.403 . S
C1692 C1691 1.403 . S
C1692 C1693 1.404 . S
C1692 C1695 1.554 . S
C1693 C1689 1.408 . S
C1693 C1692 1.404 . S
C1693 H1705 0.930 . S
C1694 C1690 1.524 . S
C1694 H1706 0.956 . S
C1694 H1707 0.961 . S
C1694 H1708 0.961 . S
C1695 C1692 1.554 . S
C1695 H1709 0.969 . S
C1695 H1710 0.951 1_455 S
C1695 H1711 0.944 1_455 S
H1696 C1680 0.931 . S
H1697 C1685 0.929 . S
H1698 C1686 0.960 . S
H1699 C1686 0.962 . S
H1700 C1686 0.960 . S
H1701 C1687 0.961 . S
H1702 C1687 0.961 . S
H1703 C1687 0.961 . S
H1704 C1688 0.931 . S
H1705 C1693 0.930 . S
H1706 C1694 0.956 . S
H1707 C1694 0.961 . S
H1708 C1694 0.961 . S
H1709 C1695 0.969 . S
H1710 C1695 0.951 1_655 S
H1711 C1695 0.944 1_655 S
C1712 C1713 1.391 . S
C1712 C1714 1.394 . S
C1712 H1728 0.931 . S
C1713 C1712 1.391 . S
C1713 C1717 1.376 . S
C1714 C1712 1.394 . S
C1714 C1715 1.369 . S
C1714 C1718 1.531 . S
C1715 C1714 1.369 . S
C1715 C1716 1.410 . S
C1715 C1723 1.503 . S
C1716 C1715 1.410 . S
C1716 C1717 1.392 . S
C1716 C1719 1.511 . S
C1717 C1713 1.376 . S
C1717 C1716 1.392 . S
C1717 H1729 0.929 . S
C1718 C1714 1.531 . S
C1718 H1730 0.960 . S
C1718 H1731 0.962 . S
C1718 H1732 0.960 . S
C1719 C1716 1.511 . S
C1719 H1733 0.961 . S
C1719 H1734 0.961 . S
C1719 H1735 0.961 . S
C1720 C1721 1.370 . S
C1720 C1722 1.363 . S
C1720 H1736 0.931 . S
C1721 C1720 1.370 . S
C1721 C1725 1.408 . S
C1722 C1720 1.363 . S
C1722 C1723 1.370 . S
C1722 C1726 1.524 . S
C1723 C1715 1.503 . S
C1723 C1722 1.370 . S
C1723 C1724 1.403 . S
C1724 C1723 1.403 . S
C1724 C1725 1.404 . S
C1724 C1727 1.539 . S
C1725 C1721 1.408 . S
C1725 C1724 1.404 . S
C1725 H1737 0.930 . S
C1726 C1722 1.524 . S
C1726 H1738 0.956 . S
C1726 H1739 0.961 . S
C1726 H1740 0.961 . S
C1727 C1724 1.539 . S
C1727 H1741 0.958 . S
C1727 H1742 0.961 . S
C1727 H1743 0.960 . S
H1728 C1712 0.931 . S
H1729 C1717 0.929 . S
H1730 C1718 0.960 . S
H1731 C1718 0.962 . S
H1732 C1718 0.960 . S
H1733 C1719 0.961 . S
H1734 C1719 0.961 . S
H1735 C1719 0.961 . S
H1736 C1720 0.931 . S
H1737 C1725 0.930 . S
H1738 C1726 0.956 . S
H1739 C1726 0.961 . S
H1740 C1726 0.961 . S
H1741 C1727 0.958 . S
H1742 C1727 0.961 . S
H1743 C1727 0.960 . S
C1744 C1745 1.391 . S
C1744 C1746 1.394 . S
C1744 H1760 0.931 . S
C1745 C1744 1.391 . S
C1745 C1749 1.376 . S
C1746 C1744 1.394 . S
C1746 C1747 1.369 . S
C1746 C1750 1.531 . S
C1747 C1746 1.369 . S
C1747 C1748 1.410 . S
C1747 C1755 1.503 . S
C1748 C1747 1.410 . S
C1748 C1749 1.392 . S
C1748 C1751 1.511 . S
C1749 C1745 1.376 . S
C1749 C1748 1.392 . S
C1749 H1761 0.929 . S
C1750 C1746 1.531 . S
C1750 H1762 0.960 . S
C1750 H1763 0.962 . S
C1750 H1764 0.960 . S
C1751 C1748 1.511 . S
C1751 H1765 0.961 . S
C1751 H1766 0.961 . S
C1751 H1767 0.961 . S
C1752 C1753 1.370 . S
C1752 C1754 1.363 . S
C1752 H1768 0.931 . S
C1753 C1752 1.370 . S
C1753 C1757 1.408 . S
C1754 C1752 1.363 . S
C1754 C1755 1.370 . S
C1754 C1758 1.524 . S
C1755 C1747 1.503 . S
C1755 C1754 1.370 . S
C1755 C1756 1.403 . S
C1756 C1755 1.403 . S
C1756 C1757 1.404 . S
C1756 C1759 1.539 . S
C1757 C1753 1.408 . S
C1757 C1756 1.404 . S
C1757 H1769 0.930 . S
C1758 C1754 1.524 . S
C1758 H1770 0.956 . S
C1758 H1771 0.961 . S
C1758 H1772 0.961 . S
C1759 C1756 1.539 . S
C1759 H1773 0.958 . S
C1759 H1774 0.961 . S
C1759 H1775 0.960 . S
H1760 C1744 0.931 . S
H1761 C1749 0.929 . S
H1762 C1750 0.960 . S
H1763 C1750 0.962 . S
H1764 C1750 0.960 . S
H1765 C1751 0.961 . S
H1766 C1751 0.961 . S
H1767 C1751 0.961 . S
H1768 C1752 0.931 . S
H1769 C1757 0.930 . S
H1770 C1758 0.956 . S
H1771 C1758 0.961 . S
H1772 C1758 0.961 . S
H1773 C1759 0.958 . S
H1774 C1759 0.961 . S
H1775 C1759 0.960 . S
C1776 C1777 1.391 . S
C1776 C1778 1.394 . S
C1776 H1792 0.931 . S
C1777 C1776 1.391 . S
C1777 C1781 1.376 . S
C1778 C1776 1.394 . S
C1778 C1779 1.369 . S
C1778 C1782 1.531 . S
C1779 C1778 1.369 . S
C1779 C1780 1.410 . S
C1779 C1787 1.503 . S
C1780 C1779 1.410 . S
C1780 C1781 1.392 . S
C1780 C1783 1.511 . S
C1781 C1777 1.376 . S
C1781 C1780 1.392 . S
C1781 H1793 0.929 . S
C1782 C1778 1.531 . S
C1782 H1794 0.960 . S
C1782 H1795 0.962 . S
C1782 H1796 0.960 . S
C1783 C1780 1.511 . S
C1783 H1797 0.961 . S
C1783 H1798 0.961 . S
C1783 H1799 0.961 . S
C1784 C1785 1.370 . S
C1784 C1786 1.363 . S
C1784 H1800 0.931 . S
C1785 C1784 1.370 . S
C1785 C1789 1.408 . S
C1786 C1784 1.363 . S
C1786 C1787 1.370 . S
C1786 C1790 1.524 . S
C1787 C1779 1.503 . S
C1787 C1786 1.370 . S
C1787 C1788 1.403 . S
C1788 C1787 1.403 . S
C1788 C1789 1.404 . S
C1788 C1791 1.539 . S
C1789 C1785 1.408 . S
C1789 C1788 1.404 . S
C1789 H1801 0.930 . S
C1790 C1786 1.524 . S
C1790 H1802 0.956 . S
C1790 H1803 0.961 . S
C1790 H1804 0.961 . S
C1791 C1788 1.539 . S
C1791 H1805 0.958 . S
C1791 H1806 0.961 . S
C1791 H1807 0.960 . S
H1792 C1776 0.931 . S
H1793 C1781 0.929 . S
H1794 C1782 0.960 . S
H1795 C1782 0.962 . S
H1796 C1782 0.960 . S
H1797 C1783 0.961 . S
H1798 C1783 0.961 . S
H1799 C1783 0.961 . S
H1800 C1784 0.931 . S
H1801 C1789 0.930 . S
H1802 C1790 0.956 . S
H1803 C1790 0.961 . S
H1804 C1790 0.961 . S
H1805 C1791 0.958 . S
H1806 C1791 0.961 . S
H1807 C1791 0.960 . S
C1808 C1809 1.391 . S
C1808 C1810 1.394 . S
C1808 H1824 0.931 . S
C1809 C1808 1.391 . S
C1809 C1813 1.376 . S
C1810 C1808 1.394 . S
C1810 C1811 1.369 . S
C1810 C1814 1.531 . S
C1811 C1810 1.369 . S
C1811 C1812 1.410 . S
C1811 C1819 1.503 . S
C1812 C1811 1.410 . S
C1812 C1813 1.392 . S
C1812 C1815 1.511 . S
C1813 C1809 1.376 . S
C1813 C1812 1.392 . S
C1813 H1825 0.929 . S
C1814 C1810 1.531 . S
C1814 H1826 0.960 . S
C1814 H1827 0.962 . S
C1814 H1828 0.960 . S
C1815 C1812 1.511 . S
C1815 H1829 0.961 1_455 S
C1815 H1830 0.961 1_455 S
C1815 H1831 0.961 . S
C1816 C1817 1.370 . S
C1816 C1818 1.363 . S
C1816 H1832 0.931 . S
C1817 C1816 1.370 . S
C1817 C1821 1.408 . S
C1818 C1816 1.363 . S
C1818 C1819 1.370 . S
C1818 C1822 1.524 1_455 S
C1819 C1811 1.503 . S
C1819 C1818 1.370 . S
C1819 C1820 1.403 . S
C1820 C1819 1.403 . S
C1820 C1821 1.404 . S
C1820 C1823 1.539 . S
C1821 C1817 1.408 . S
C1821 C1820 1.404 . S
C1821 H1833 0.930 . S
C1822 C1818 1.524 1_655 S
C1822 H1834 0.956 1_655 S
C1822 H1835 0.961 . S
C1822 H1836 0.961 . S
C1823 C1820 1.539 . S
C1823 H1837 0.958 . S
C1823 H1838 0.961 . S
C1823 H1839 0.960 . S
H1824 C1808 0.931 . S
H1825 C1813 0.929 . S
H1826 C1814 0.960 . S
H1827 C1814 0.962 . S
H1828 C1814 0.960 . S
H1829 C1815 0.961 1_655 S
H1830 C1815 0.961 1_655 S
H1831 C1815 0.961 . S
H1832 C1816 0.931 . S
H1833 C1821 0.930 . S
H1834 C1822 0.956 1_455 S
H1835 C1822 0.961 . S
H1836 C1822 0.961 . S
H1837 C1823 0.958 . S
H1838 C1823 0.961 . S
H1839 C1823 0.960 . S
C1840 C1841 1.391 . S
C1840 C1842 1.394 . S
C1840 H1856 0.931 . S
C1841 C1840 1.391 . S
C1841 C1845 1.376 . S
C1842 C1840 1.394 . S
C1842 C1843 1.369 . S
C1842 C1846 1.531 . S
C1843 C1842 1.369 . S
C1843 C1844 1.410 . S
C1843 C1851 1.503 . S
C1844 C1843 1.410 . S
C1844 C1845 1.392 . S
C1844 C1847 1.511 . S
C1845 C1841 1.376 . S
C1845 C1844 1.392 . S
C1845 H1857 0.929 . S
C1846 C1842 1.531 . S
C1846 H1858 0.960 . S
C1846 H1859 0.962 . S
C1846 H1860 0.960 . S
C1847 C1844 1.511 . S
C1847 H1861 0.961 . S
C1847 H1862 0.961 . S
C1847 H1863 0.961 . S
C1848 C1849 1.370 . S
C1848 C1850 1.363 . S
C1848 H1864 0.931 . S
C1849 C1848 1.370 . S
C1849 C1853 1.408 . S
C1850 C1848 1.363 . S
C1850 C1851 1.370 . S
C1850 C1854 1.524 . S
C1851 C1843 1.503 . S
C1851 C1850 1.370 . S
C1851 C1852 1.403 . S
C1852 C1851 1.403 . S
C1852 C1853 1.404 . S
C1852 C1855 1.539 . S
C1853 C1849 1.408 . S
C1853 C1852 1.404 . S
C1853 H1865 0.930 . S
C1854 C1850 1.524 . S
C1854 H1866 0.956 . S
C1854 H1867 0.961 . S
C1854 H1868 0.961 . S
C1855 C1852 1.539 . S
C1855 H1869 0.958 . S
C1855 H1870 0.961 . S
C1855 H1871 0.960 . S
H1856 C1840 0.931 . S
H1857 C1845 0.929 . S
H1858 C1846 0.960 . S
H1859 C1846 0.962 . S
H1860 C1846 0.960 . S
H1861 C1847 0.961 . S
H1862 C1847 0.961 . S
H1863 C1847 0.961 . S
H1864 C1848 0.931 . S
H1865 C1853 0.930 . S
H1866 C1854 0.956 . S
H1867 C1854 0.961 . S
H1868 C1854 0.961 . S
H1869 C1855 0.958 . S
H1870 C1855 0.961 . S
H1871 C1855 0.960 . S
C1872 C1873 1.391 . S
C1872 C1874 1.394 . S
C1872 H1888 0.931 . S
C1873 C1872 1.391 . S
C1873 C1877 1.376 . S
C1874 C1872 1.394 . S
C1874 C1875 1.369 . S
C1874 C1878 1.531 . S
C1875 C1874 1.369 . S
C1875 C1876 1.410 . S
C1875 C1883 1.503 . S
C1876 C1875 1.410 . S
C1876 C1877 1.392 . S
C1876 C1879 1.511 . S
C1877 C1873 1.376 . S
C1877 C1876 1.392 . S
C1877 H1889 0.929 . S
C1878 C1874 1.531 . S
C1878 H1890 0.960 . S
C1878 H1891 0.962 . S
C1878 H1892 0.960 . S
C1879 C1876 1.511 . S
C1879 H1893 0.961 . S
C1879 H1894 0.961 . S
C1879 H1895 0.961 . S
C1880 C1881 1.370 . S
C1880 C1882 1.363 . S
C1880 H1896 0.931 . S
C1881 C1880 1.370 . S
C1881 C1885 1.408 . S
C1882 C1880 1.363 . S
C1882 C1883 1.370 . S
C1882 C1886 1.524 . S
C1883 C1875 1.503 . S
C1883 C1882 1.370 . S
C1883 C1884 1.403 . S
C1884 C1883 1.403 . S
C1884 C1885 1.404 . S
C1884 C1887 1.539 . S
C1885 C1881 1.408 . S
C1885 C1884 1.404 . S
C1885 H1897 0.930 . S
C1886 C1882 1.524 . S
C1886 H1898 0.956 . S
C1886 H1899 0.961 . S
C1886 H1900 0.961 . S
C1887 C1884 1.539 . S
C1887 H1901 0.958 . S
C1887 H1902 0.961 . S
C1887 H1903 0.960 . S
H1888 C1872 0.931 . S
H1889 C1877 0.929 . S
H1890 C1878 0.960 . S
H1891 C1878 0.962 . S
H1892 C1878 0.960 . S
H1893 C1879 0.961 . S
H1894 C1879 0.961 . S
H1895 C1879 0.961 . S
H1896 C1880 0.931 . S
H1897 C1885 0.930 . S
H1898 C1886 0.956 . S
H1899 C1886 0.961 . S
H1900 C1886 0.961 . S
H1901 C1887 0.958 . S
H1902 C1887 0.961 . S
H1903 C1887 0.960 . S
C1904 C1905 1.391 . S
C1904 C1906 1.394 . S
C1904 H1920 0.931 . S
C1905 C1904 1.391 . S
C1905 C1909 1.376 . S
C1906 C1904 1.394 . S
C1906 C1907 1.369 . S
C1906 C1910 1.531 . S
C1907 C1906 1.369 . S
C1907 C1908 1.410 . S
C1907 C1915 1.503 . S
C1908 C1907 1.410 . S
C1908 C1909 1.392 . S
C1908 C1911 1.511 . S
C1909 C1905 1.376 . S
C1909 C1908 1.392 . S
C1909 H1921 0.929 . S
C1910 C1906 1.531 . S
C1910 H1922 0.960 . S
C1910 H1923 0.962 . S
C1910 H1924 0.960 . S
C1911 C1908 1.511 . S
C1911 H1925 0.961 . S
C1911 H1926 0.961 . S
C1911 H1927 0.961 . S
C1912 C1913 1.370 . S
C1912 C1914 1.363 . S
C1912 H1928 0.931 . S
C1913 C1912 1.370 . S
C1913 C1917 1.408 . S
C1914 C1912 1.363 . S
C1914 C1915 1.370 . S
C1914 C1918 1.524 . S
C1915 C1907 1.503 . S
C1915 C1914 1.370 . S
C1915 C1916 1.403 . S
C1916 C1915 1.403 . S
C1916 C1917 1.404 . S
C1916 C1919 1.539 . S
C1917 C1913 1.408 . S
C1917 C1916 1.404 . S
C1917 H1929 0.930 . S
C1918 C1914 1.524 . S
C1918 H1930 0.956 . S
C1918 H1931 0.961 . S
C1918 H1932 0.961 . S
C1919 C1916 1.539 . S
C1919 H1933 0.958 . S
C1919 H1934 0.961 . S
C1919 H1935 0.960 . S
H1920 C1904 0.931 . S
H1921 C1909 0.929 . S
H1922 C1910 0.960 . S
H1923 C1910 0.962 . S
H1924 C1910 0.960 . S
H1925 C1911 0.961 . S
H1926 C1911 0.961 . S
H1927 C1911 0.961 . S
H1928 C1912 0.931 . S
H1929 C1917 0.930 . S
H1930 C1918 0.956 . S
H1931 C1918 0.961 . S
H1932 C1918 0.961 . S
H1933 C1919 0.958 . S
H1934 C1919 0.961 . S
H1935 C1919 0.960 . S
C1936 C1937 1.420 . S
C1936 C1938 1.400 . S
C1936 H1952 0.897 1_545 S
C1937 C1936 1.420 . S
C1937 C1941 1.376 . S
C1938 C1936 1.400 . S
C1938 C1939 1.369 . S
C1938 C1942 1.531 1_545 S
C1939 C1938 1.369 . S
C1939 C1940 1.410 . S
C1939 C1947 1.503 . S
C1940 C1939 1.410 . S
C1940 C1941 1.392 . S
C1940 C1943 1.511 . S
C1941 C1937 1.376 . S
C1941 C1940 1.392 . S
C1941 H1953 0.929 . S
C1942 C1938 1.531 1_565 S
C1942 H1954 0.960 . S
C1942 H1955 0.962 1_655 S
C1942 H1956 0.960 . S
C1943 C1940 1.511 . S
C1943 H1957 0.961 . S
C1943 H1958 0.961 . S
C1943 H1959 0.961 . S
C1944 C1945 1.370 . S
C1944 C1946 1.363 . S
C1944 H1960 0.931 . S
C1945 C1944 1.370 . S
C1945 C1949 1.408 1_455 S
C1946 C1944 1.363 . S
C1946 C1947 1.370 1_455 S
C1946 C1950 1.524 . S
C1947 C1939 1.503 . S
C1947 C1946 1.370 1_655 S
C1947 C1948 1.403 . S
C1948 C1947 1.403 . S
C1948 C1949 1.404 . S
C1948 C1951 1.554 . S
C1949 C1945 1.408 1_655 S
C1949 C1948 1.404 . S
C1949 H1961 0.930 . S
C1950 C1946 1.524 . S
C1950 H1962 0.956 . S
C1950 H1963 0.961 . S
C1950 H1964 0.961 . S
C1951 C1948 1.554 . S
C1951 H1965 0.916 1_545 S
C1951 H1966 0.977 . S
C1951 H1967 0.973 . S
H1952 C1936 0.897 1_565 S
H1953 C1941 0.929 . S
H1954 C1942 0.960 . S
H1955 C1942 0.962 1_455 S
H1956 C1942 0.960 . S
H1957 C1943 0.961 . S
H1958 C1943 0.961 . S
H1959 C1943 0.961 . S
H1960 C1944 0.931 . S
H1961 C1949 0.930 . S
H1962 C1950 0.956 . S
H1963 C1950 0.961 . S
H1964 C1950 0.961 . S
H1965 C1951 0.916 1_565 S
H1966 C1951 0.977 . S
H1967 C1951 0.973 . S
C1968 C1969 1.391 . S
C1968 C1970 1.394 . S
C1968 H1984 0.931 . S
C1969 C1968 1.391 . S
C1969 C1973 1.376 . S
C1970 C1968 1.394 . S
C1970 C1971 1.369 . S
C1970 C1974 1.531 . S
C1971 C1970 1.369 . S
C1971 C1972 1.410 . S
C1971 C1979 1.503 . S
C1972 C1971 1.410 . S
C1972 C1973 1.392 . S
C1972 C1975 1.511 . S
C1973 C1969 1.376 . S
C1973 C1972 1.392 . S
C1973 H1985 0.929 . S
C1974 C1970 1.531 . S
C1974 H1986 0.960 . S
C1974 H1987 0.962 . S
C1974 H1988 0.960 . S
C1975 C1972 1.511 . S
C1975 H1989 0.961 . S
C1975 H1990 0.961 . S
C1975 H1991 0.961 . S
C1976 C1977 1.370 . S
C1976 C1978 1.363 . S
C1976 H1992 0.931 . S
C1977 C1976 1.370 . S
C1977 C1981 1.408 . S
C1978 C1976 1.363 . S
C1978 C1979 1.370 . S
C1978 C1982 1.524 . S
C1979 C1971 1.503 . S
C1979 C1978 1.370 . S
C1979 C1980 1.403 . S
C1980 C1979 1.403 . S
C1980 C1981 1.404 . S
C1980 C1983 1.539 . S
C1981 C1977 1.408 . S
C1981 C1980 1.404 . S
C1981 H1993 0.930 . S
C1982 C1978 1.524 . S
C1982 H1994 0.956 . S
C1982 H1995 0.961 . S
C1982 H1996 0.961 . S
C1983 C1980 1.539 . S
C1983 H1997 0.958 . S
C1983 H1998 0.961 . S
C1983 H1999 0.960 . S
H1984 C1968 0.931 . S
H1985 C1973 0.929 . S
H1986 C1974 0.960 . S
H1987 C1974 0.962 . S
H1988 C1974 0.960 . S
H1989 C1975 0.961 . S
H1990 C1975 0.961 . S
H1991 C1975 0.961 . S
H1992 C1976 0.931 . S
H1993 C1981 0.930 . S
H1994 C1982 0.956 . S
H1995 C1982 0.961 . S
H1996 C1982 0.961 . S
H1997 C1983 0.958 . S
H1998 C1983 0.961 . S
H1999 C1983 0.960 . S
C2000 C2001 1.391 . S
C2000 C2002 1.394 . S
C2000 H2016 0.931 . S
C2001 C2000 1.391 . S
C2001 C2005 1.376 . S
C2002 C2000 1.394 . S
C2002 C2003 1.369 . S
C2002 C2006 1.531 . S
C2003 C2002 1.369 . S
C2003 C2004 1.410 . S
C2003 C2011 1.503 . S
C2004 C2003 1.410 . S
C2004 C2005 1.392 . S
C2004 C2007 1.511 . S
C2005 C2001 1.376 . S
C2005 C2004 1.392 . S
C2005 H2017 0.929 . S
C2006 C2002 1.531 . S
C2006 H2018 0.960 . S
C2006 H2019 0.962 . S
C2006 H2020 0.960 . S
C2007 C2004 1.511 . S
C2007 H2021 0.961 . S
C2007 H2022 0.961 . S
C2007 H2023 0.961 . S
C2008 C2009 1.370 . S
C2008 C2010 1.363 . S
C2008 H2024 0.931 1_545 S
C2009 C2008 1.370 . S
C2009 C2013 1.408 . S
C2010 C2008 1.363 . S
C2010 C2011 1.370 . S
C2010 C2014 1.524 1_545 S
C2011 C2003 1.503 . S
C2011 C2010 1.370 . S
C2011 C2012 1.403 . S
C2012 C2011 1.403 . S
C2012 C2013 1.404 . S
C2012 C2015 1.539 . S
C2013 C2009 1.408 . S
C2013 C2012 1.404 . S
C2013 H2025 0.930 . S
C2014 C2010 1.524 1_565 S
C2014 H2026 0.956 . S
C2014 H2027 0.961 1_565 S
C2014 H2028 0.961 . S
C2015 C2012 1.539 . S
C2015 H2029 0.958 . S
C2015 H2030 0.961 . S
C2015 H2031 0.960 . S
H2016 C2000 0.931 . S
H2017 C2005 0.929 . S
H2018 C2006 0.960 . S
H2019 C2006 0.962 . S
H2020 C2006 0.960 . S
H2021 C2007 0.961 . S
H2022 C2007 0.961 . S
H2023 C2007 0.961 . S
H2024 C2008 0.931 1_565 S
H2025 C2013 0.930 . S
H2026 C2014 0.956 . S
H2027 C2014 0.961 1_545 S
H2028 C2014 0.961 . S
H2029 C2015 0.958 . S
H2030 C2015 0.961 . S
H2031 C2015 0.960 . S
C2032 C2033 1.391 . S
C2032 C2034 1.394 . S
C2032 H2048 0.931 . S
C2033 C2032 1.391 . S
C2033 C2037 1.376 . S
C2034 C2032 1.394 . S
C2034 C2035 1.369 . S
C2034 C2038 1.531 . S
C2035 C2034 1.369 . S
C2035 C2036 1.410 . S
C2035 C2043 1.503 . S
C2036 C2035 1.410 . S
C2036 C2037 1.392 . S
C2036 C2039 1.511 . S
C2037 C2033 1.376 . S
C2037 C2036 1.392 . S
C2037 H2049 0.929 . S
C2038 C2034 1.531 . S
C2038 H2050 0.960 . S
C2038 H2051 0.962 . S
C2038 H2052 0.960 . S
C2039 C2036 1.511 . S
C2039 H2053 0.961 . S
C2039 H2054 0.961 . S
C2039 H2055 0.961 . S
C2040 C2041 1.370 . S
C2040 C2042 1.363 . S
C2040 H2056 0.931 . S
C2041 C2040 1.370 . S
C2041 C2045 1.408 . S
C2042 C2040 1.363 . S
C2042 C2043 1.370 . S
C2042 C2046 1.524 . S
C2043 C2035 1.503 . S
C2043 C2042 1.370 . S
C2043 C2044 1.403 . S
C2044 C2043 1.403 . S
C2044 C2045 1.404 . S
C2044 C2047 1.539 . S
C2045 C2041 1.408 . S
C2045 C2044 1.404 . S
C2045 H2057 0.930 . S
C2046 C2042 1.524 . S
C2046 H2058 0.956 . S
C2046 H2059 0.961 . S
C2046 H2060 0.961 . S
C2047 C2044 1.539 . S
C2047 H2061 0.958 . S
C2047 H2062 0.961 . S
C2047 H2063 0.960 . S
H2048 C2032 0.931 . S
H2049 C2037 0.929 . S
H2050 C2038 0.960 . S
H2051 C2038 0.962 . S
H2052 C2038 0.960 . S
H2053 C2039 0.961 . S
H2054 C2039 0.961 . S
H2055 C2039 0.961 . S
H2056 C2040 0.931 . S
H2057 C2045 0.930 . S
H2058 C2046 0.956 . S
H2059 C2046 0.961 . S
H2060 C2046 0.961 . S
H2061 C2047 0.958 . S
H2062 C2047 0.961 . S
H2063 C2047 0.960 . S
C2064 C2065 1.391 . S
C2064 C2066 1.394 . S
C2064 H2080 0.931 . S
C2065 C2064 1.391 . S
C2065 C2069 1.376 . S
C2066 C2064 1.394 . S
C2066 C2067 1.369 . S
C2066 C2070 1.531 1_655 S
C2067 C2066 1.369 . S
C2067 C2068 1.410 . S
C2067 C2075 1.503 . S
C2068 C2067 1.410 . S
C2068 C2069 1.392 . S
C2068 C2071 1.511 1_545 S
C2069 C2065 1.376 . S
C2069 C2068 1.392 . S
C2069 H2081 0.929 1_545 S
C2070 C2066 1.531 1_455 S
C2070 H2082 0.960 . S
C2070 H2083 0.962 . S
C2070 H2084 0.960 . S
C2071 C2068 1.511 1_565 S
C2071 H2085 0.961 . S
C2071 H2086 0.961 . S
C2071 H2087 0.961 . S
C2072 C2073 1.370 . S
C2072 C2074 1.363 . S
C2072 H2088 0.931 . S
C2073 C2072 1.370 . S
C2073 C2077 1.408 1_455 S
C2074 C2072 1.363 . S
C2074 C2075 1.370 1_455 S
C2074 C2078 1.537 . S
C2075 C2067 1.503 . S
C2075 C2074 1.370 1_655 S
C2075 C2076 1.403 . S
C2076 C2075 1.403 . S
C2076 C2077 1.404 . S
C2076 C2079 1.539 . S
C2077 C2073 1.408 1_655 S
C2077 C2076 1.404 . S
C2077 H2089 0.930 . S
C2078 C2074 1.537 . S
C2078 H2090 0.973 . S
C2078 H2091 0.950 1_545 S
C2078 H2092 0.943 1_545 S
C2079 C2076 1.539 . S
C2079 H2093 0.958 . S
C2079 H2094 0.961 . S
C2079 H2095 0.960 . S
H2080 C2064 0.931 . S
H2081 C2069 0.929 1_565 S
H2082 C2070 0.960 . S
H2083 C2070 0.962 . S
H2084 C2070 0.960 . S
H2085 C2071 0.961 . S
H2086 C2071 0.961 . S
H2087 C2071 0.961 . S
H2088 C2072 0.931 . S
H2089 C2077 0.930 . S
H2090 C2078 0.973 . S
H2091 C2078 0.950 1_565 S
H2092 C2078 0.943 1_565 S
H2093 C2079 0.958 . S
H2094 C2079 0.961 . S
H2095 C2079 0.960 . S
C2096 C2097 1.391 . S
C2096 C2098 1.394 . S
C2096 H2112 0.931 . S
C2097 C2096 1.391 . S
C2097 C2101 1.376 . S
C2098 C2096 1.394 . S
C2098 C2099 1.369 . S
C2098 C2102 1.531 . S
C2099 C2098 1.369 . S
C2099 C2100 1.410 . S
C2099 C2107 1.503 . S
C2100 C2099 1.410 . S
C2100 C2101 1.392 . S
C2100 C2103 1.511 . S
C2101 C2097 1.376 . S
C2101 C2100 1.392 . S
C2101 H2113 0.929 . S
C2102 C2098 1.531 . S
C2102 H2114 0.960 . S
C2102 H2115 0.962 . S
C2102 H2116 0.960 . S
C2103 C2100 1.511 . S
C2103 H2117 0.961 . S
C2103 H2118 0.961 . S
C2103 H2119 0.961 . S
C2104 C2105 1.370 . S
C2104 C2106 1.363 . S
C2104 H2120 0.931 . S
C2105 C2104 1.370 . S
C2105 C2109 1.408 . S
C2106 C2104 1.363 . S
C2106 C2107 1.370 . S
C2106 C2110 1.524 . S
C2107 C2099 1.503 . S
C2107 C2106 1.370 . S
C2107 C2108 1.403 . S
C2108 C2107 1.403 . S
C2108 C2109 1.404 . S
C2108 C2111 1.539 . S
C2109 C2105 1.408 . S
C2109 C2108 1.404 . S
C2109 H2121 0.930 . S
C2110 C2106 1.524 . S
C2110 H2122 0.956 . S
C2110 H2123 0.961 . S
C2110 H2124 0.961 . S
C2111 C2108 1.539 . S
C2111 H2125 0.958 . S
C2111 H2126 0.961 . S
C2111 H2127 0.960 . S
H2112 C2096 0.931 . S
H2113 C2101 0.929 . S
H2114 C2102 0.960 . S
H2115 C2102 0.962 . S
H2116 C2102 0.960 . S
H2117 C2103 0.961 . S
H2118 C2103 0.961 . S
H2119 C2103 0.961 . S
H2120 C2104 0.931 . S
H2121 C2109 0.930 . S
H2122 C2110 0.956 . S
H2123 C2110 0.961 . S
H2124 C2110 0.961 . S
H2125 C2111 0.958 . S
H2126 C2111 0.961 . S
H2127 C2111 0.960 . S
C2128 C2129 1.391 . S
C2128 C2130 1.394 . S
C2128 H2144 0.931 . S
C2129 C2128 1.391 . S
C2129 C2133 1.376 . S
C2130 C2128 1.394 . S
C2130 C2131 1.369 . S
C2130 C2134 1.531 . S
C2131 C2130 1.369 . S
C2131 C2132 1.410 . S
C2131 C2139 1.503 . S
C2132 C2131 1.410 . S
C2132 C2133 1.392 . S
C2132 C2135 1.511 . S
C2133 C2129 1.376 . S
C2133 C2132 1.392 . S
C2133 H2145 0.929 . S
C2134 C2130 1.531 . S
C2134 H2146 0.960 . S
C2134 H2147 0.962 . S
C2134 H2148 0.960 . S
C2135 C2132 1.511 . S
C2135 H2149 0.961 . S
C2135 H2150 0.961 . S
C2135 H2151 0.961 . S
C2136 C2137 1.370 . S
C2136 C2138 1.363 . S
C2136 H2152 0.931 . S
C2137 C2136 1.370 . S
C2137 C2141 1.408 . S
C2138 C2136 1.363 . S
C2138 C2139 1.370 . S
C2138 C2142 1.524 . S
C2139 C2131 1.503 . S
C2139 C2138 1.370 . S
C2139 C2140 1.403 . S
C2140 C2139 1.403 . S
C2140 C2141 1.404 . S
C2140 C2143 1.539 . S
C2141 C2137 1.408 . S
C2141 C2140 1.404 . S
C2141 H2153 0.930 . S
C2142 C2138 1.524 . S
C2142 H2154 0.956 . S
C2142 H2155 0.961 . S
C2142 H2156 0.961 . S
C2143 C2140 1.539 . S
C2143 H2157 0.949 1_545 S
C2143 H2158 0.939 1_545 S
C2143 H2159 0.960 . S
H2144 C2128 0.931 . S
H2145 C2133 0.929 . S
H2146 C2134 0.960 . S
H2147 C2134 0.962 . S
H2148 C2134 0.960 . S
H2149 C2135 0.961 . S
H2150 C2135 0.961 . S
H2151 C2135 0.961 . S
H2152 C2136 0.931 . S
H2153 C2141 0.930 . S
H2154 C2142 0.956 . S
H2155 C2142 0.961 . S
H2156 C2142 0.961 . S
H2157 C2143 0.949 1_565 S
H2158 C2143 0.939 1_565 S
H2159 C2143 0.960 . S
C2160 C2161 1.391 . S
C2160 C2162 1.394 . S
C2160 H2176 0.931 . S
C2161 C2160 1.391 . S
C2161 C2165 1.376 . S
C2162 C2160 1.394 . S
C2162 C2163 1.369 . S
C2162 C2166 1.531 . S
C2163 C2162 1.369 . S
C2163 C2164 1.410 . S
C2163 C2171 1.503 . S
C2164 C2163 1.410 . S
C2164 C2165 1.392 . S
C2164 C2167 1.511 . S
C2165 C2161 1.376 . S
C2165 C2164 1.392 . S
C2165 H2177 0.929 . S
C2166 C2162 1.531 . S
C2166 H2178 0.960 . S
C2166 H2179 0.962 . S
C2166 H2180 0.960 . S
C2167 C2164 1.511 . S
C2167 H2181 0.961 . S
C2167 H2182 0.961 . S
C2167 H2183 0.961 . S
C2168 C2169 1.370 . S
C2168 C2170 1.363 . S
C2168 H2184 0.931 . S
C2169 C2168 1.370 . S
C2169 C2173 1.408 . S
C2170 C2168 1.363 . S
C2170 C2171 1.370 . S
C2170 C2174 1.524 . S
C2171 C2163 1.503 . S
C2171 C2170 1.370 . S
C2171 C2172 1.403 . S
C2172 C2171 1.403 . S
C2172 C2173 1.404 . S
C2172 C2175 1.539 . S
C2173 C2169 1.408 . S
C2173 C2172 1.404 . S
C2173 H2185 0.930 . S
C2174 C2170 1.524 . S
C2174 H2186 0.956 . S
C2174 H2187 0.961 . S
C2174 H2188 0.961 . S
C2175 C2172 1.539 . S
C2175 H2189 0.958 . S
C2175 H2190 0.961 . S
C2175 H2191 0.960 . S
H2176 C2160 0.931 . S
H2177 C2165 0.929 . S
H2178 C2166 0.960 . S
H2179 C2166 0.962 . S
H2180 C2166 0.960 . S
H2181 C2167 0.961 . S
H2182 C2167 0.961 . S
H2183 C2167 0.961 . S
H2184 C2168 0.931 . S
H2185 C2173 0.930 . S
H2186 C2174 0.956 . S
H2187 C2174 0.961 . S
H2188 C2174 0.961 . S
H2189 C2175 0.958 . S
H2190 C2175 0.961 . S
H2191 C2175 0.960 . S
C2192 C2193 1.391 . S
C2192 C2194 1.394 . S
C2192 H2208 0.931 1_554 S
C2193 C2192 1.391 . S
C2193 C2197 1.376 . S
C2194 C2192 1.394 . S
C2194 C2195 1.369 . S
C2194 C2198 1.531 . S
C2195 C2194 1.369 . S
C2195 C2196 1.410 . S
C2195 C2203 1.503 . S
C2196 C2195 1.410 . S
C2196 C2197 1.392 . S
C2196 C2199 1.511 1_565 S
C2197 C2193 1.376 . S
C2197 C2196 1.392 . S
C2197 H2209 0.929 . S
C2198 C2194 1.531 . S
C2198 H2210 0.960 . S
C2198 H2211 0.962 1_554 S
C2198 H2212 0.960 . S
C2199 C2196 1.511 1_545 S
C2199 H2213 0.961 . S
C2199 H2214 0.961 . S
C2199 H2215 0.961 . S
C2200 C2201 1.372 . S
C2200 C2202 1.353 1_545 S
C2200 H2216 0.938 1_554 S
C2201 C2200 1.372 . S
C2201 C2205 1.408 1_545 S
C2202 C2200 1.353 1_565 S
C2202 C2203 1.370 . S
C2202 C2206 1.524 1_554 S
C2203 C2195 1.503 . S
C2203 C2202 1.370 . S
C2203 C2204 1.403 . S
C2204 C2203 1.403 . S
C2204 C2205 1.404 . S
C2204 C2207 1.539 . S
C2205 C2201 1.408 1_565 S
C2205 C2204 1.404 . S
C2205 H2217 0.930 . S
C2206 C2202 1.524 1_556 S
C2206 H2218 0.956 . S
C2206 H2219 0.961 . S
C2206 H2220 0.961 . S
C2207 C2204 1.539 . S
C2207 H2221 0.958 . S
C2207 H2222 0.961 . S
C2207 H2223 0.960 . S
H2208 C2192 0.931 1_556 S
H2209 C2197 0.929 . S
H2210 C2198 0.960 . S
H2211 C2198 0.962 1_556 S
H2212 C2198 0.960 . S
H2213 C2199 0.961 . S
H2214 C2199 0.961 . S
H2215 C2199 0.961 . S
H2216 C2200 0.938 1_556 S
H2217 C2205 0.930 . S
H2218 C2206 0.956 . S
H2219 C2206 0.961 . S
H2220 C2206 0.961 . S
H2221 C2207 0.958 . S
H2222 C2207 0.961 . S
H2223 C2207 0.960 . S
C2224 C2225 1.391 . S
C2224 C2226 1.394 . S
C2224 H2240 0.931 . S
C2225 C2224 1.391 . S
C2225 C2229 1.376 1_554 S
C2226 C2224 1.394 . S
C2226 C2227 1.369 . S
C2226 C2230 1.531 . S
C2227 C2226 1.369 . S
C2227 C2228 1.410 1_554 S
C2227 C2235 1.503 . S
C2228 C2227 1.410 1_556 S
C2228 C2229 1.392 . S
C2228 C2231 1.511 . S
C2229 C2225 1.376 1_556 S
C2229 C2228 1.392 . S
C2229 H2241 0.929 . S
C2230 C2226 1.531 . S
C2230 H2242 0.960 . S
C2230 H2243 0.962 . S
C2230 H2244 0.960 . S
C2231 C2228 1.511 . S
C2231 H2245 0.961 . S
C2231 H2246 0.961 . S
C2231 H2247 0.961 . S
C2232 C2233 1.370 . S
C2232 C2234 1.363 . S
C2232 H2248 0.931 . S
C2233 C2232 1.370 . S
C2233 C2237 1.408 . S
C2234 C2232 1.363 . S
C2234 C2235 1.370 . S
C2234 C2238 1.524 . S
C2235 C2227 1.503 . S
C2235 C2234 1.370 . S
C2235 C2236 1.403 . S
C2236 C2235 1.403 . S
C2236 C2237 1.404 . S
C2236 C2239 1.539 . S
C2237 C2233 1.408 . S
C2237 C2236 1.404 . S
C2237 H2249 0.930 . S
C2238 C2234 1.524 . S
C2238 H2250 0.956 . S
C2238 H2251 0.961 1_554 S
C2238 H2252 0.961 . S
C2239 C2236 1.539 . S
C2239 H2253 0.958 . S
C2239 H2254 0.961 . S
C2239 H2255 0.960 . S
H2240 C2224 0.931 . S
H2241 C2229 0.929 . S
H2242 C2230 0.960 . S
H2243 C2230 0.962 . S
H2244 C2230 0.960 . S
H2245 C2231 0.961 . S
H2246 C2231 0.961 . S
H2247 C2231 0.961 . S
H2248 C2232 0.931 . S
H2249 C2237 0.930 . S
H2250 C2238 0.956 . S
H2251 C2238 0.961 1_556 S
H2252 C2238 0.961 . S
H2253 C2239 0.958 . S
H2254 C2239 0.961 . S
H2255 C2239 0.960 . S
C2256 C2257 1.391 . S
C2256 C2258 1.394 . S
C2256 H2272 0.931 . S
C2257 C2256 1.391 . S
C2257 C2261 1.376 . S
C2258 C2256 1.394 . S
C2258 C2259 1.369 . S
C2258 C2262 1.531 . S
C2259 C2258 1.369 . S
C2259 C2260 1.410 . S
C2259 C2267 1.503 . S
C2260 C2259 1.410 . S
C2260 C2261 1.392 . S
C2260 C2263 1.511 . S
C2261 C2257 1.376 . S
C2261 C2260 1.392 . S
C2261 H2273 0.929 . S
C2262 C2258 1.531 . S
C2262 H2274 0.960 . S
C2262 H2275 0.962 . S
C2262 H2276 0.960 . S
C2263 C2260 1.511 . S
C2263 H2277 0.961 . S
C2263 H2278 0.961 . S
C2263 H2279 0.961 . S
C2264 C2265 1.370 . S
C2264 C2266 1.363 . S
C2264 H2280 0.931 . S
C2265 C2264 1.370 . S
C2265 C2269 1.408 . S
C2266 C2264 1.363 . S
C2266 C2267 1.370 . S
C2266 C2270 1.524 . S
C2267 C2259 1.503 . S
C2267 C2266 1.370 . S
C2267 C2268 1.403 . S
C2268 C2267 1.403 . S
C2268 C2269 1.404 . S
C2268 C2271 1.539 . S
C2269 C2265 1.408 . S
C2269 C2268 1.404 . S
C2269 H2281 0.930 . S
C2270 C2266 1.524 . S
C2270 H2282 0.956 . S
C2270 H2283 0.961 . S
C2270 H2284 0.961 . S
C2271 C2268 1.539 . S
C2271 H2285 0.958 . S
C2271 H2286 0.961 . S
C2271 H2287 0.960 . S
H2272 C2256 0.931 . S
H2273 C2261 0.929 . S
H2274 C2262 0.960 . S
H2275 C2262 0.962 . S
H2276 C2262 0.960 . S
H2277 C2263 0.961 . S
H2278 C2263 0.961 . S
H2279 C2263 0.961 . S
H2280 C2264 0.931 . S
H2281 C2269 0.930 . S
H2282 C2270 0.956 . S
H2283 C2270 0.961 . S
H2284 C2270 0.961 . S
H2285 C2271 0.958 . S
H2286 C2271 0.961 . S
H2287 C2271 0.960 . S
C2288 C2289 1.391 . S
C2288 C2290 1.394 . S
C2288 H2304 0.931 . S
C2289 C2288 1.391 . S
C2289 C2293 1.376 . S
C2290 C2288 1.394 . S
C2290 C2291 1.369 . S
C2290 C2294 1.531 . S
C2291 C2290 1.369 . S
C2291 C2292 1.410 . S
C2291 C2299 1.503 . S
C2292 C2291 1.410 . S
C2292 C2293 1.392 . S
C2292 C2295 1.511 . S
C2293 C2289 1.376 . S
C2293 C2292 1.392 . S
C2293 H2305 0.929 . S
C2294 C2290 1.531 . S
C2294 H2306 0.960 . S
C2294 H2307 0.962 . S
C2294 H2308 0.960 . S
C2295 C2292 1.511 . S
C2295 H2309 0.961 . S
C2295 H2310 0.961 . S
C2295 H2311 0.961 . S
C2296 C2297 1.370 . S
C2296 C2298 1.363 . S
C2296 H2312 0.931 . S
C2297 C2296 1.370 . S
C2297 C2301 1.408 . S
C2298 C2296 1.363 . S
C2298 C2299 1.370 . S
C2298 C2302 1.524 . S
C2299 C2291 1.503 . S
C2299 C2298 1.370 . S
C2299 C2300 1.403 . S
C2300 C2299 1.403 . S
C2300 C2301 1.404 . S
C2300 C2303 1.539 . S
C2301 C2297 1.408 . S
C2301 C2300 1.404 . S
C2301 H2313 0.930 . S
C2302 C2298 1.524 . S
C2302 H2314 0.956 . S
C2302 H2315 0.961 . S
C2302 H2316 0.961 . S
C2303 C2300 1.539 . S
C2303 H2317 0.958 . S
C2303 H2318 0.961 . S
C2303 H2319 0.960 . S
H2304 C2288 0.931 . S
H2305 C2293 0.929 . S
H2306 C2294 0.960 . S
H2307 C2294 0.962 . S
H2308 C2294 0.960 . S
H2309 C2295 0.961 . S
H2310 C2295 0.961 . S
H2311 C2295 0.961 . S
H2312 C2296 0.931 . S
H2313 C2301 0.930 . S
H2314 C2302 0.956 . S
H2315 C2302 0.961 . S
H2316 C2302 0.961 . S
H2317 C2303 0.958 . S
H2318 C2303 0.961 . S
H2319 C2303 0.960 . S
C2320 C2321 1.391 . S
C2320 C2322 1.394 . S
C2320 H2336 0.931 . S
C2321 C2320 1.391 . S
C2321 C2325 1.376 . S
C2322 C2320 1.394 . S
C2322 C2323 1.369 . S
C2322 C2326 1.531 . S
C2323 C2322 1.369 . S
C2323 C2324 1.410 . S
C2323 C2331 1.503 . S
C2324 C2323 1.410 . S
C2324 C2325 1.392 . S
C2324 C2327 1.511 . S
C2325 C2321 1.376 . S
C2325 C2324 1.392 . S
C2325 H2337 0.929 . S
C2326 C2322 1.531 . S
C2326 H2338 0.960 . S
C2326 H2339 0.962 . S
C2326 H2340 0.960 . S
C2327 C2324 1.511 . S
C2327 H2341 0.961 . S
C2327 H2342 0.961 . S
C2327 H2343 0.961 . S
C2328 C2329 1.370 . S
C2328 C2330 1.363 . S
C2328 H2344 0.931 . S
C2329 C2328 1.370 . S
C2329 C2333 1.408 . S
C2330 C2328 1.363 . S
C2330 C2331 1.370 . S
C2330 C2334 1.524 . S
C2331 C2323 1.503 . S
C2331 C2330 1.370 . S
C2331 C2332 1.403 . S
C2332 C2331 1.403 . S
C2332 C2333 1.404 . S
C2332 C2335 1.539 . S
C2333 C2329 1.408 . S
C2333 C2332 1.404 . S
C2333 H2345 0.930 . S
C2334 C2330 1.524 . S
C2334 H2346 0.956 . S
C2334 H2347 0.961 . S
C2334 H2348 0.961 . S
C2335 C2332 1.539 . S
C2335 H2349 0.958 . S
C2335 H2350 0.961 . S
C2335 H2351 0.960 . S
H2336 C2320 0.931 . S
H2337 C2325 0.929 . S
H2338 C2326 0.960 . S
H2339 C2326 0.962 . S
H2340 C2326 0.960 . S
H2341 C2327 0.961 . S
H2342 C2327 0.961 . S
H2343 C2327 0.961 . S
H2344 C2328 0.931 . S
H2345 C2333 0.930 . S
H2346 C2334 0.956 . S
H2347 C2334 0.961 . S
H2348 C2334 0.961 . S
H2349 C2335 0.958 . S
H2350 C2335 0.961 . S
H2351 C2335 0.960 . S
C2352 C2353 1.391 . S
C2352 C2354 1.394 . S
C2352 H2368 0.931 . S
C2353 C2352 1.391 . S
C2353 C2357 1.376 . S
C2354 C2352 1.394 . S
C2354 C2355 1.369 . S
C2354 C2358 1.531 . S
C2355 C2354 1.369 . S
C2355 C2356 1.410 . S
C2355 C2363 1.503 . S
C2356 C2355 1.410 . S
C2356 C2357 1.392 . S
C2356 C2359 1.511 . S
C2357 C2353 1.376 . S
C2357 C2356 1.392 . S
C2357 H2369 0.929 . S
C2358 C2354 1.531 . S
C2358 H2370 0.960 . S
C2358 H2371 0.962 . S
C2358 H2372 0.960 . S
C2359 C2356 1.511 . S
C2359 H2373 0.961 . S
C2359 H2374 0.961 . S
C2359 H2375 0.961 . S
C2360 C2361 1.370 . S
C2360 C2362 1.363 . S
C2360 H2376 0.931 . S
C2361 C2360 1.370 . S
C2361 C2365 1.408 . S
C2362 C2360 1.363 . S
C2362 C2363 1.370 . S
C2362 C2366 1.524 . S
C2363 C2355 1.503 . S
C2363 C2362 1.370 . S
C2363 C2364 1.403 . S
C2364 C2363 1.403 . S
C2364 C2365 1.404 . S
C2364 C2367 1.539 . S
C2365 C2361 1.408 . S
C2365 C2364 1.404 . S
C2365 H2377 0.930 . S
C2366 C2362 1.524 . S
C2366 H2378 0.956 . S
C2366 H2379 0.961 . S
C2366 H2380 0.961 . S
C2367 C2364 1.539 . S
C2367 H2381 0.958 . S
C2367 H2382 0.961 . S
C2367 H2383 0.960 . S
H2368 C2352 0.931 . S
H2369 C2357 0.929 . S
H2370 C2358 0.960 . S
H2371 C2358 0.962 . S
H2372 C2358 0.960 . S
H2373 C2359 0.961 . S
H2374 C2359 0.961 . S
H2375 C2359 0.961 . S
H2376 C2360 0.931 . S
H2377 C2365 0.930 . S
H2378 C2366 0.956 . S
H2379 C2366 0.961 . S
H2380 C2366 0.961 . S
H2381 C2367 0.958 . S
H2382 C2367 0.961 . S
H2383 C2367 0.960 . S
C2384 C2385 1.391 . S
C2384 C2386 1.394 . S
C2384 H2400 0.931 . S
C2385 C2384 1.391 . S
C2385 C2389 1.376 . S
C2386 C2384 1.394 . S
C2386 C2387 1.369 . S
C2386 C2390 1.531 . S
C2387 C2386 1.369 . S
C2387 C2388 1.410 . S
C2387 C2395 1.503 . S
C2388 C2387 1.410 . S
C2388 C2389 1.392 . S
C2388 C2391 1.511 . S
C2389 C2385 1.376 . S
C2389 C2388 1.392 . S
C2389 H2401 0.929 . S
C2390 C2386 1.531 . S
C2390 H2402 0.960 . S
C2390 H2403 0.962 . S
C2390 H2404 0.960 . S
C2391 C2388 1.511 . S
C2391 H2405 0.961 . S
C2391 H2406 0.961 . S
C2391 H2407 0.961 . S
C2392 C2393 1.370 . S
C2392 C2394 1.363 . S
C2392 H2408 0.931 . S
C2393 C2392 1.370 . S
C2393 C2397 1.408 . S
C2394 C2392 1.363 . S
C2394 C2395 1.370 . S
C2394 C2398 1.524 . S
C2395 C2387 1.503 . S
C2395 C2394 1.370 . S
C2395 C2396 1.403 . S
C2396 C2395 1.403 . S
C2396 C2397 1.404 . S
C2396 C2399 1.539 . S
C2397 C2393 1.408 . S
C2397 C2396 1.404 . S
C2397 H2409 0.930 . S
C2398 C2394 1.524 . S
C2398 H2410 0.956 . S
C2398 H2411 0.961 . S
C2398 H2412 0.961 . S
C2399 C2396 1.539 . S
C2399 H2413 0.958 . S
C2399 H2414 0.961 . S
C2399 H2415 0.960 . S
H2400 C2384 0.931 . S
H2401 C2389 0.929 . S
H2402 C2390 0.960 . S
H2403 C2390 0.962 . S
H2404 C2390 0.960 . S
H2405 C2391 0.961 . S
H2406 C2391 0.961 . S
H2407 C2391 0.961 . S
H2408 C2392 0.931 . S
H2409 C2397 0.930 . S
H2410 C2398 0.956 . S
H2411 C2398 0.961 . S
H2412 C2398 0.961 . S
H2413 C2399 0.958 . S
H2414 C2399 0.961 . S
H2415 C2399 0.960 . S
C2416 C2417 1.391 . S
C2416 C2418 1.394 . S
C2416 H2432 0.931 . S
C2417 C2416 1.391 . S
C2417 C2421 1.376 . S
C2418 C2416 1.394 . S
C2418 C2419 1.369 . S
C2418 C2422 1.531 . S
C2419 C2418 1.369 . S
C2419 C2420 1.410 . S
C2419 C2427 1.503 . S
C2420 C2419 1.410 . S
C2420 C2421 1.392 . S
C2420 C2423 1.511 . S
C2421 C2417 1.376 . S
C2421 C2420 1.392 . S
C2421 H2433 0.929 . S
C2422 C2418 1.531 . S
C2422 H2434 0.960 . S
C2422 H2435 0.962 . S
C2422 H2436 0.960 . S
C2423 C2420 1.511 . S
C2423 H2437 0.961 . S
C2423 H2438 0.961 . S
C2423 H2439 0.961 . S
C2424 C2425 1.370 . S
C2424 C2426 1.363 . S
C2424 H2440 0.931 . S
C2425 C2424 1.370 . S
C2425 C2429 1.408 . S
C2426 C2424 1.363 . S
C2426 C2427 1.370 . S
C2426 C2430 1.524 . S
C2427 C2419 1.503 . S
C2427 C2426 1.370 . S
C2427 C2428 1.403 . S
C2428 C2427 1.403 . S
C2428 C2429 1.404 . S
C2428 C2431 1.539 . S
C2429 C2425 1.408 . S
C2429 C2428 1.404 . S
C2429 H2441 0.930 . S
C2430 C2426 1.524 . S
C2430 H2442 0.956 . S
C2430 H2443 0.961 . S
C2430 H2444 0.961 . S
C2431 C2428 1.539 . S
C2431 H2445 0.958 . S
C2431 H2446 0.961 . S
C2431 H2447 0.960 . S
H2432 C2416 0.931 . S
H2433 C2421 0.929 . S
H2434 C2422 0.960 . S
H2435 C2422 0.962 . S
H2436 C2422 0.960 . S
H2437 C2423 0.961 . S
H2438 C2423 0.961 . S
H2439 C2423 0.961 . S
H2440 C2424 0.931 . S
H2441 C2429 0.930 . S
H2442 C2430 0.956 . S
H2443 C2430 0.961 . S
H2444 C2430 0.961 . S
H2445 C2431 0.958 . S
H2446 C2431 0.961 . S
H2447 C2431 0.960 . S
C2448 C2449 1.391 . S
C2448 C2450 1.394 . S
C2448 H2464 0.931 . S
C2449 C2448 1.391 . S
C2449 C2453 1.376 . S
C2450 C2448 1.394 . S
C2450 C2451 1.369 . S
C2450 C2454 1.531 . S
C2451 C2450 1.369 . S
C2451 C2452 1.410 . S
C2451 C2459 1.503 . S
C2452 C2451 1.410 . S
C2452 C2453 1.392 . S
C2452 C2455 1.511 . S
C2453 C2449 1.376 . S
C2453 C2452 1.392 . S
C2453 H2465 0.929 . S
C2454 C2450 1.531 . S
C2454 H2466 0.960 . S
C2454 H2467 0.962 . S
C2454 H2468 0.960 . S
C2455 C2452 1.511 . S
C2455 H2469 0.961 . S
C2455 H2470 0.961 . S
C2455 H2471 0.961 . S
C2456 C2457 1.370 . S
C2456 C2458 1.363 . S
C2456 H2472 0.931 . S
C2457 C2456 1.370 . S
C2457 C2461 1.408 . S
C2458 C2456 1.363 . S
C2458 C2459 1.370 . S
C2458 C2462 1.524 . S
C2459 C2451 1.503 . S
C2459 C2458 1.370 . S
C2459 C2460 1.403 . S
C2460 C2459 1.403 . S
C2460 C2461 1.404 . S
C2460 C2463 1.539 . S
C2461 C2457 1.408 . S
C2461 C2460 1.404 . S
C2461 H2473 0.930 . S
C2462 C2458 1.524 . S
C2462 H2474 0.956 . S
C2462 H2475 0.961 . S
C2462 H2476 0.961 . S
C2463 C2460 1.539 . S
C2463 H2477 0.958 . S
C2463 H2478 0.961 . S
C2463 H2479 0.960 . S
H2464 C2448 0.931 . S
H2465 C2453 0.929 . S
H2466 C2454 0.960 . S
H2467 C2454 0.962 . S
H2468 C2454 0.960 . S
H2469 C2455 0.961 . S
H2470 C2455 0.961 . S
H2471 C2455 0.961 . S
H2472 C2456 0.931 . S
H2473 C2461 0.930 . S
H2474 C2462 0.956 . S
H2475 C2462 0.961 . S
H2476 C2462 0.961 . S
H2477 C2463 0.958 . S
H2478 C2463 0.961 . S
H2479 C2463 0.960 . S
C2480 C2481 1.391 . S
C2480 C2482 1.394 . S
C2480 H2496 0.931 . S
C2481 C2480 1.391 . S
C2481 C2485 1.376 . S
C2482 C2480 1.394 . S
C2482 C2483 1.369 . S
C2482 C2486 1.531 . S
C2483 C2482 1.369 . S
C2483 C2484 1.410 . S
C2483 C2491 1.503 . S
C2484 C2483 1.410 . S
C2484 C2485 1.392 . S
C2484 C2487 1.511 . S
C2485 C2481 1.376 . S
C2485 C2484 1.392 . S
C2485 H2497 0.929 . S
C2486 C2482 1.531 . S
C2486 H2498 0.960 . S
C2486 H2499 0.962 . S
C2486 H2500 0.960 . S
C2487 C2484 1.511 . S
C2487 H2501 0.961 . S
C2487 H2502 0.961 . S
C2487 H2503 0.961 . S
C2488 C2489 1.370 . S
C2488 C2490 1.363 . S
C2488 H2504 0.931 . S
C2489 C2488 1.370 . S
C2489 C2493 1.408 . S
C2490 C2488 1.363 . S
C2490 C2491 1.370 . S
C2490 C2494 1.524 . S
C2491 C2483 1.503 . S
C2491 C2490 1.370 . S
C2491 C2492 1.403 . S
C2492 C2491 1.403 . S
C2492 C2493 1.404 . S
C2492 C2495 1.539 . S
C2493 C2489 1.408 . S
C2493 C2492 1.404 . S
C2493 H2505 0.930 . S
C2494 C2490 1.524 . S
C2494 H2506 0.956 . S
C2494 H2507 0.961 . S
C2494 H2508 0.961 . S
C2495 C2492 1.539 . S
C2495 H2509 0.958 . S
C2495 H2510 0.961 . S
C2495 H2511 0.960 . S
H2496 C2480 0.931 . S
H2497 C2485 0.929 . S
H2498 C2486 0.960 . S
H2499 C2486 0.962 . S
H2500 C2486 0.960 . S
H2501 C2487 0.961 . S
H2502 C2487 0.961 . S
H2503 C2487 0.961 . S
H2504 C2488 0.931 . S
H2505 C2493 0.930 . S
H2506 C2494 0.956 . S
H2507 C2494 0.961 . S
H2508 C2494 0.961 . S
H2509 C2495 0.958 . S
H2510 C2495 0.961 . S
H2511 C2495 0.960 . S
C2512 C2513 1.391 . S
C2512 C2514 1.394 . S
C2512 H2528 0.931 . S
C2513 C2512 1.391 . S
C2513 C2517 1.376 . S
C2514 C2512 1.394 . S
C2514 C2515 1.369 . S
C2514 C2518 1.531 . S
C2515 C2514 1.369 . S
C2515 C2516 1.410 . S
C2515 C2523 1.503 . S
C2516 C2515 1.410 . S
C2516 C2517 1.392 . S
C2516 C2519 1.511 . S
C2517 C2513 1.376 . S
C2517 C2516 1.392 . S
C2517 H2529 0.929 . S
C2518 C2514 1.531 . S
C2518 H2530 0.960 . S
C2518 H2531 0.962 . S
C2518 H2532 0.960 . S
C2519 C2516 1.511 . S
C2519 H2533 0.961 . S
C2519 H2534 0.961 . S
C2519 H2535 0.961 . S
C2520 C2521 1.370 . S
C2520 C2522 1.363 . S
C2520 H2536 0.931 . S
C2521 C2520 1.370 . S
C2521 C2525 1.408 . S
C2522 C2520 1.363 . S
C2522 C2523 1.370 . S
C2522 C2526 1.524 . S
C2523 C2515 1.503 . S
C2523 C2522 1.370 . S
C2523 C2524 1.403 . S
C2524 C2523 1.403 . S
C2524 C2525 1.404 . S
C2524 C2527 1.539 . S
C2525 C2521 1.408 . S
C2525 C2524 1.404 . S
C2525 H2537 0.930 . S
C2526 C2522 1.524 . S
C2526 H2538 0.956 . S
C2526 H2539 0.961 . S
C2526 H2540 0.961 . S
C2527 C2524 1.539 . S
C2527 H2541 0.958 . S
C2527 H2542 0.961 . S
C2527 H2543 0.960 . S
H2528 C2512 0.931 . S
H2529 C2517 0.929 . S
H2530 C2518 0.960 . S
H2531 C2518 0.962 . S
H2532 C2518 0.960 . S
H2533 C2519 0.961 . S
H2534 C2519 0.961 . S
H2535 C2519 0.961 . S
H2536 C2520 0.931 . S
H2537 C2525 0.930 . S
H2538 C2526 0.956 . S
H2539 C2526 0.961 . S
H2540 C2526 0.961 . S
H2541 C2527 0.958 . S
H2542 C2527 0.961 . S
H2543 C2527 0.960 . S
C2544 C2545 1.391 . S
C2544 C2546 1.394 . S
C2544 H2560 0.931 . S
C2545 C2544 1.391 . S
C2545 C2549 1.376 . S
C2546 C2544 1.394 . S
C2546 C2547 1.369 . S
C2546 C2550 1.531 . S
C2547 C2546 1.369 . S
C2547 C2548 1.410 . S
C2547 C2555 1.503 . S
C2548 C2547 1.410 . S
C2548 C2549 1.392 . S
C2548 C2551 1.511 . S
C2549 C2545 1.376 . S
C2549 C2548 1.392 . S
C2549 H2561 0.929 . S
C2550 C2546 1.531 . S
C2550 H2562 0.960 . S
C2550 H2563 0.962 . S
C2550 H2564 0.960 . S
C2551 C2548 1.511 . S
C2551 H2565 0.961 . S
C2551 H2566 0.961 . S
C2551 H2567 0.961 . S
C2552 C2553 1.370 . S
C2552 C2554 1.363 . S
C2552 H2568 0.931 . S
C2553 C2552 1.370 . S
C2553 C2557 1.408 . S
C2554 C2552 1.363 . S
C2554 C2555 1.370 . S
C2554 C2558 1.524 . S
C2555 C2547 1.503 . S
C2555 C2554 1.370 . S
C2555 C2556 1.403 . S
C2556 C2555 1.403 . S
C2556 C2557 1.404 . S
C2556 C2559 1.539 . S
C2557 C2553 1.408 . S
C2557 C2556 1.404 . S
C2557 H2569 0.930 . S
C2558 C2554 1.524 . S
C2558 H2570 0.956 . S
C2558 H2571 0.961 . S
C2558 H2572 0.961 . S
C2559 C2556 1.539 . S
C2559 H2573 0.958 . S
C2559 H2574 0.961 . S
C2559 H2575 0.960 . S
H2560 C2544 0.931 . S
H2561 C2549 0.929 . S
H2562 C2550 0.960 . S
H2563 C2550 0.962 . S
H2564 C2550 0.960 . S
H2565 C2551 0.961 . S
H2566 C2551 0.961 . S
H2567 C2551 0.961 . S
H2568 C2552 0.931 . S
H2569 C2557 0.930 . S
H2570 C2558 0.956 . S
H2571 C2558 0.961 . S
H2572 C2558 0.961 . S
H2573 C2559 0.958 . S
H2574 C2559 0.961 . S
H2575 C2559 0.960 . S
C2576 C2577 1.391 . S
C2576 C2578 1.394 . S
C2576 H2592 0.931 . S
C2577 C2576 1.391 . S
C2577 C2581 1.376 . S
C2578 C2576 1.394 . S
C2578 C2579 1.369 . S
C2578 C2582 1.531 . S
C2579 C2578 1.369 . S
C2579 C2580 1.410 . S
C2579 C2587 1.503 . S
C2580 C2579 1.410 . S
C2580 C2581 1.392 . S
C2580 C2583 1.511 . S
C2581 C2577 1.376 . S
C2581 C2580 1.392 . S
C2581 H2593 0.929 . S
C2582 C2578 1.531 . S
C2582 H2594 0.960 . S
C2582 H2595 0.962 . S
C2582 H2596 0.960 . S
C2583 C2580 1.511 . S
C2583 H2597 0.961 . S
C2583 H2598 0.961 . S
C2583 H2599 0.961 . S
C2584 C2585 1.370 . S
C2584 C2586 1.363 . S
C2584 H2600 0.931 . S
C2585 C2584 1.370 . S
C2585 C2589 1.408 . S
C2586 C2584 1.363 . S
C2586 C2587 1.370 . S
C2586 C2590 1.534 . S
C2587 C2579 1.503 . S
C2587 C2586 1.370 . S
C2587 C2588 1.403 . S
C2588 C2587 1.403 . S
C2588 C2589 1.404 . S
C2588 C2591 1.539 . S
C2589 C2585 1.408 . S
C2589 C2588 1.404 . S
C2589 H2601 0.930 . S
C2590 C2586 1.534 . S
C2590 H2602 0.952 1_455 S
C2590 H2603 0.962 . S
C2590 H2604 0.953 1_455 S
C2591 C2588 1.539 . S
C2591 H2605 0.958 . S
C2591 H2606 0.961 . S
C2591 H2607 0.960 . S
H2592 C2576 0.931 . S
H2593 C2581 0.929 . S
H2594 C2582 0.960 . S
H2595 C2582 0.962 . S
H2596 C2582 0.960 . S
H2597 C2583 0.961 . S
H2598 C2583 0.961 . S
H2599 C2583 0.961 . S
H2600 C2584 0.931 . S
H2601 C2589 0.930 . S
H2602 C2590 0.952 1_655 S
H2603 C2590 0.962 . S
H2604 C2590 0.953 1_655 S
H2605 C2591 0.958 . S
H2606 C2591 0.961 . S
H2607 C2591 0.960 . S
C2608 C2609 1.391 . S
C2608 C2610 1.394 . S
C2608 H2624 0.931 . S
C2609 C2608 1.391 . S
C2609 C2613 1.376 . S
C2610 C2608 1.394 . S
C2610 C2611 1.369 . S
C2610 C2614 1.531 . S
C2611 C2610 1.369 . S
C2611 C2612 1.410 . S
C2611 C2619 1.503 . S
C2612 C2611 1.410 . S
C2612 C2613 1.392 . S
C2612 C2615 1.511 . S
C2613 C2609 1.376 . S
C2613 C2612 1.392 . S
C2613 H2625 0.929 . S
C2614 C2610 1.531 . S
C2614 H2626 0.960 . S
C2614 H2627 0.962 . S
C2614 H2628 0.960 . S
C2615 C2612 1.511 . S
C2615 H2629 0.961 . S
C2615 H2630 0.961 . S
C2615 H2631 0.961 . S
C2616 C2617 1.370 . S
C2616 C2618 1.363 . S
C2616 H2632 0.931 . S
C2617 C2616 1.370 . S
C2617 C2621 1.408 . S
C2618 C2616 1.363 . S
C2618 C2619 1.370 . S
C2618 C2622 1.524 . S
C2619 C2611 1.503 . S
C2619 C2618 1.370 . S
C2619 C2620 1.403 . S
C2620 C2619 1.403 . S
C2620 C2621 1.404 . S
C2620 C2623 1.539 . S
C2621 C2617 1.408 . S
C2621 C2620 1.404 . S
C2621 H2633 0.930 . S
C2622 C2618 1.524 . S
C2622 H2634 0.956 . S
C2622 H2635 0.961 . S
C2622 H2636 0.961 . S
C2623 C2620 1.539 . S
C2623 H2637 0.958 . S
C2623 H2638 0.961 . S
C2623 H2639 0.960 . S
H2624 C2608 0.931 . S
H2625 C2613 0.929 . S
H2626 C2614 0.960 . S
H2627 C2614 0.962 . S
H2628 C2614 0.960 . S
H2629 C2615 0.961 . S
H2630 C2615 0.961 . S
H2631 C2615 0.961 . S
H2632 C2616 0.931 . S
H2633 C2621 0.930 . S
H2634 C2622 0.956 . S
H2635 C2622 0.961 . S
H2636 C2622 0.961 . S
H2637 C2623 0.958 . S
H2638 C2623 0.961 . S
H2639 C2623 0.960 . S
C2640 C2641 1.391 . S
C2640 C2642 1.394 . S
C2640 H2656 0.931 . S
C2641 C2640 1.391 . S
C2641 C2645 1.376 . S
C2642 C2640 1.394 . S
C2642 C2643 1.369 . S
C2642 C2646 1.531 . S
C2643 C2642 1.369 . S
C2643 C2644 1.410 . S
C2643 C2651 1.503 . S
C2644 C2643 1.410 . S
C2644 C2645 1.392 . S
C2644 C2647 1.511 . S
C2645 C2641 1.376 . S
C2645 C2644 1.392 . S
C2645 H2657 0.929 . S
C2646 C2642 1.531 . S
C2646 H2658 0.960 . S
C2646 H2659 0.962 . S
C2646 H2660 0.960 . S
C2647 C2644 1.511 . S
C2647 H2661 0.961 . S
C2647 H2662 0.961 . S
C2647 H2663 0.961 . S
C2648 C2649 1.370 . S
C2648 C2650 1.363 . S
C2648 H2664 0.912 1_556 S
C2649 C2648 1.370 . S
C2649 C2653 1.408 . S
C2650 C2648 1.363 . S
C2650 C2651 1.370 . S
C2650 C2654 1.524 . S
C2651 C2643 1.503 . S
C2651 C2650 1.370 . S
C2651 C2652 1.403 . S
C2652 C2651 1.403 . S
C2652 C2653 1.404 . S
C2652 C2655 1.539 . S
C2653 C2649 1.408 . S
C2653 C2652 1.404 . S
C2653 H2665 0.930 . S
C2654 C2650 1.524 . S
C2654 H2666 0.956 . S
C2654 H2667 0.961 . S
C2654 H2668 0.961 . S
C2655 C2652 1.539 . S
C2655 H2669 0.958 . S
C2655 H2670 0.961 . S
C2655 H2671 0.960 . S
H2656 C2640 0.931 . S
H2657 C2645 0.929 . S
H2658 C2646 0.960 . S
H2659 C2646 0.962 . S
H2660 C2646 0.960 . S
H2661 C2647 0.961 . S
H2662 C2647 0.961 . S
H2663 C2647 0.961 . S
H2664 C2648 0.912 1_554 S
H2665 C2653 0.930 . S
H2666 C2654 0.956 . S
H2667 C2654 0.961 . S
H2668 C2654 0.961 . S
H2669 C2655 0.958 . S
H2670 C2655 0.961 . S
H2671 C2655 0.960 . S
C2672 C2673 1.391 . S
C2672 C2674 1.394 . S
C2672 H2688 0.931 . S
C2673 C2672 1.391 . S
C2673 C2677 1.376 . S
C2674 C2672 1.394 . S
C2674 C2675 1.369 . S
C2674 C2678 1.531 . S
C2675 C2674 1.369 . S
C2675 C2676 1.410 . S
C2675 C2683 1.503 . S
C2676 C2675 1.410 . S
C2676 C2677 1.392 . S
C2676 C2679 1.511 . S
C2677 C2673 1.376 . S
C2677 C2676 1.392 . S
C2677 H2689 0.929 . S
C2678 C2674 1.531 . S
C2678 H2690 0.960 . S
C2678 H2691 0.962 . S
C2678 H2692 0.960 . S
C2679 C2676 1.511 . S
C2679 H2693 0.961 . S
C2679 H2694 0.961 . S
C2679 H2695 0.961 . S
C2680 C2681 1.370 . S
C2680 C2682 1.363 . S
C2680 H2696 0.931 . S
C2681 C2680 1.370 . S
C2681 C2685 1.408 . S
C2682 C2680 1.363 . S
C2682 C2683 1.370 . S
C2682 C2686 1.524 . S
C2683 C2675 1.503 . S
C2683 C2682 1.370 . S
C2683 C2684 1.403 . S
C2684 C2683 1.403 . S
C2684 C2685 1.404 . S
C2684 C2687 1.539 . S
C2685 C2681 1.408 . S
C2685 C2684 1.404 . S
C2685 H2697 0.930 . S
C2686 C2682 1.524 . S
C2686 H2698 0.956 . S
C2686 H2699 0.961 . S
C2686 H2700 0.961 . S
C2687 C2684 1.539 . S
C2687 H2701 0.958 . S
C2687 H2702 0.961 . S
C2687 H2703 0.960 . S
H2688 C2672 0.931 . S
H2689 C2677 0.929 . S
H2690 C2678 0.960 . S
H2691 C2678 0.962 . S
H2692 C2678 0.960 . S
H2693 C2679 0.961 . S
H2694 C2679 0.961 . S
H2695 C2679 0.961 . S
H2696 C2680 0.931 . S
H2697 C2685 0.930 . S
H2698 C2686 0.956 . S
H2699 C2686 0.961 . S
H2700 C2686 0.961 . S
H2701 C2687 0.958 . S
H2702 C2687 0.961 . S
H2703 C2687 0.960 . S
C2704 C2705 1.391 . S
C2704 C2706 1.394 . S
C2704 H2720 0.931 . S
C2705 C2704 1.391 . S
C2705 C2709 1.376 . S
C2706 C2704 1.394 . S
C2706 C2707 1.369 . S
C2706 C2710 1.531 . S
C2707 C2706 1.369 . S
C2707 C2708 1.410 . S
C2707 C2715 1.503 . S
C2708 C2707 1.410 . S
C2708 C2709 1.392 . S
C2708 C2711 1.511 . S
C2709 C2705 1.376 . S
C2709 C2708 1.392 . S
C2709 H2721 0.929 . S
C2710 C2706 1.531 . S
C2710 H2722 0.960 1_545 S
C2710 H2723 0.962 . S
C2710 H2724 0.960 1_545 S
C2711 C2708 1.511 . S
C2711 H2725 0.961 . S
C2711 H2726 0.961 . S
C2711 H2727 0.961 . S
C2712 C2713 1.370 . S
C2712 C2714 1.363 . S
C2712 H2728 0.931 . S
C2713 C2712 1.370 . S
C2713 C2717 1.408 . S
C2714 C2712 1.363 . S
C2714 C2715 1.370 . S
C2714 C2718 1.524 . S
C2715 C2707 1.503 . S
C2715 C2714 1.370 . S
C2715 C2716 1.403 . S
C2716 C2715 1.403 . S
C2716 C2717 1.404 . S
C2716 C2719 1.549 . S
C2717 C2713 1.408 . S
C2717 C2716 1.404 . S
C2717 H2729 0.930 . S
C2718 C2714 1.524 . S
C2718 H2730 0.956 . S
C2718 H2731 0.961 . S
C2718 H2732 0.961 . S
C2719 C2716 1.549 . S
C2719 H2733 0.948 1_545 S
C2719 H2734 0.956 1_545 S
C2719 H2735 0.966 . S
H2720 C2704 0.931 . S
H2721 C2709 0.929 . S
H2722 C2710 0.960 1_565 S
H2723 C2710 0.962 . S
H2724 C2710 0.960 1_565 S
H2725 C2711 0.961 . S
H2726 C2711 0.961 . S
H2727 C2711 0.961 . S
H2728 C2712 0.931 . S
H2729 C2717 0.930 . S
H2730 C2718 0.956 . S
H2731 C2718 0.961 . S
H2732 C2718 0.961 . S
H2733 C2719 0.948 1_565 S
H2734 C2719 0.956 1_565 S
H2735 C2719 0.966 . S
C2736 C2737 1.391 . S
C2736 C2738 1.394 . S
C2736 H2752 0.931 . S
C2737 C2736 1.391 . S
C2737 C2741 1.376 . S
C2738 C2736 1.394 . S
C2738 C2739 1.369 . S
C2738 C2742 1.531 . S
C2739 C2738 1.369 . S
C2739 C2740 1.410 . S
C2739 C2747 1.503 . S
C2740 C2739 1.410 . S
C2740 C2741 1.392 . S
C2740 C2743 1.511 . S
C2741 C2737 1.376 . S
C2741 C2740 1.392 . S
C2741 H2753 0.929 . S
C2742 C2738 1.531 . S
C2742 H2754 0.960 . S
C2742 H2755 0.962 . S
C2742 H2756 0.960 . S
C2743 C2740 1.511 . S
C2743 H2757 0.961 . S
C2743 H2758 0.961 . S
C2743 H2759 0.961 . S
C2744 C2745 1.370 . S
C2744 C2746 1.363 . S
C2744 H2760 0.931 . S
C2745 C2744 1.370 . S
C2745 C2749 1.408 . S
C2746 C2744 1.363 . S
C2746 C2747 1.370 . S
C2746 C2750 1.524 . S
C2747 C2739 1.503 . S
C2747 C2746 1.370 . S
C2747 C2748 1.403 . S
C2748 C2747 1.403 . S
C2748 C2749 1.404 . S
C2748 C2751 1.539 . S
C2749 C2745 1.408 . S
C2749 C2748 1.404 . S
C2749 H2761 0.930 . S
C2750 C2746 1.524 . S
C2750 H2762 0.956 . S
C2750 H2763 0.961 . S
C2750 H2764 0.961 . S
C2751 C2748 1.539 . S
C2751 H2765 0.958 . S
C2751 H2766 0.961 . S
C2751 H2767 0.960 . S
H2752 C2736 0.931 . S
H2753 C2741 0.929 . S
H2754 C2742 0.960 . S
H2755 C2742 0.962 . S
H2756 C2742 0.960 . S
H2757 C2743 0.961 . S
H2758 C2743 0.961 . S
H2759 C2743 0.961 . S
H2760 C2744 0.931 . S
H2761 C2749 0.930 . S
H2762 C2750 0.956 . S
H2763 C2750 0.961 . S
H2764 C2750 0.961 . S
H2765 C2751 0.958 . S
H2766 C2751 0.961 . S
H2767 C2751 0.960 . S
C2768 C2769 1.391 . S
C2768 C2770 1.394 . S
C2768 H2784 0.931 . S
C2769 C2768 1.391 . S
C2769 C2773 1.376 . S
C2770 C2768 1.394 . S
C2770 C2771 1.369 . S
C2770 C2774 1.531 . S
C2771 C2770 1.369 . S
C2771 C2772 1.410 . S
C2771 C2779 1.503 . S
C2772 C2771 1.410 . S
C2772 C2773 1.392 . S
C2772 C2775 1.511 . S
C2773 C2769 1.376 . S
C2773 C2772 1.392 . S
C2773 H2785 0.930 . S
C2774 C2770 1.531 . S
C2774 H2786 0.960 . S
C2774 H2787 0.962 . S
C2774 H2788 0.960 . S
C2775 C2772 1.511 . S
C2775 H2789 0.961 1_545 S
C2775 H2790 0.961 . S
C2775 H2791 0.961 . S
C2776 C2777 1.370 . S
C2776 C2778 1.363 . S
C2776 H2792 0.931 1_545 S
C2777 C2776 1.370 . S
C2777 C2781 1.408 . S
C2778 C2776 1.363 . S
C2778 C2779 1.370 . S
C2778 C2782 1.524 1_545 S
C2779 C2771 1.503 . S
C2779 C2778 1.370 . S
C2779 C2780 1.403 . S
C2780 C2779 1.403 . S
C2780 C2781 1.404 . S
C2780 C2783 1.539 . S
C2781 C2777 1.408 . S
C2781 C2780 1.404 . S
C2781 H2793 0.930 . S
C2782 C2778 1.524 1_565 S
C2782 H2794 0.956 . S
C2782 H2795 0.961 . S
C2782 H2796 0.961 . S
C2783 C2780 1.539 . S
C2783 H2797 0.958 . S
C2783 H2798 0.961 . S
C2783 H2799 0.960 . S
H2784 C2768 0.931 . S
H2785 C2773 0.930 . S
H2786 C2774 0.960 . S
H2787 C2774 0.962 . S
H2788 C2774 0.960 . S
H2789 C2775 0.961 1_565 S
H2790 C2775 0.961 . S
H2791 C2775 0.961 . S
H2792 C2776 0.931 1_565 S
H2793 C2781 0.930 . S
H2794 C2782 0.956 . S
H2795 C2782 0.961 . S
H2796 C2782 0.961 . S
H2797 C2783 0.958 . S
H2798 C2783 0.961 . S
H2799 C2783 0.960 . S
C2800 C2801 1.391 . S
C2800 C2802 1.394 . S
C2800 H2816 0.931 . S
C2801 C2800 1.391 . S
C2801 C2805 1.376 . S
C2802 C2800 1.394 . S
C2802 C2803 1.369 . S
C2802 C2806 1.531 . S
C2803 C2802 1.369 . S
C2803 C2804 1.410 . S
C2803 C2811 1.503 . S
C2804 C2803 1.410 . S
C2804 C2805 1.392 . S
C2804 C2807 1.511 . S
C2805 C2801 1.376 . S
C2805 C2804 1.392 . S
C2805 H2817 0.929 . S
C2806 C2802 1.531 . S
C2806 H2818 0.960 . S
C2806 H2819 0.962 . S
C2806 H2820 0.960 . S
C2807 C2804 1.511 . S
C2807 H2821 0.961 . S
C2807 H2822 0.961 . S
C2807 H2823 0.961 . S
C2808 C2809 1.370 . S
C2808 C2810 1.363 . S
C2808 H2824 0.931 . S
C2809 C2808 1.370 . S
C2809 C2813 1.408 . S
C2810 C2808 1.363 . S
C2810 C2811 1.370 . S
C2810 C2814 1.524 . S
C2811 C2803 1.503 . S
C2811 C2810 1.370 . S
C2811 C2812 1.403 . S
C2812 C2811 1.403 . S
C2812 C2813 1.404 . S
C2812 C2815 1.539 . S
C2813 C2809 1.408 . S
C2813 C2812 1.404 . S
C2813 H2825 0.930 . S
C2814 C2810 1.524 . S
C2814 H2826 0.956 . S
C2814 H2827 0.961 . S
C2814 H2828 0.961 . S
C2815 C2812 1.539 . S
C2815 H2829 0.958 . S
C2815 H2830 0.961 . S
C2815 H2831 0.960 . S
H2816 C2800 0.931 . S
H2817 C2805 0.929 . S
H2818 C2806 0.960 . S
H2819 C2806 0.962 . S
H2820 C2806 0.960 . S
H2821 C2807 0.961 . S
H2822 C2807 0.961 . S
H2823 C2807 0.961 . S
H2824 C2808 0.931 . S
H2825 C2813 0.930 . S
H2826 C2814 0.956 . S
H2827 C2814 0.961 . S
H2828 C2814 0.961 . S
H2829 C2815 0.958 . S
H2830 C2815 0.961 . S
H2831 C2815 0.960 . S
C2832 C2833 1.391 . S
C2832 C2834 1.394 . S
C2832 H2848 0.931 . S
C2833 C2832 1.391 . S
C2833 C2837 1.376 . S
C2834 C2832 1.394 . S
C2834 C2835 1.369 . S
C2834 C2838 1.531 1_545 S
C2835 C2834 1.369 . S
C2835 C2836 1.410 . S
C2835 C2843 1.503 . S
C2836 C2835 1.410 . S
C2836 C2837 1.392 . S
C2836 C2839 1.511 . S
C2837 C2833 1.376 . S
C2837 C2836 1.392 . S
C2837 H2849 0.929 . S
C2838 C2834 1.531 1_565 S
C2838 H2850 0.960 . S
C2838 H2851 0.957 1_565 S
C2838 H2852 0.960 . S
C2839 C2836 1.511 . S
C2839 H2853 0.961 . S
C2839 H2854 0.961 . S
C2839 H2855 0.961 . S
C2840 C2841 1.370 . S
C2840 C2842 1.363 . S
C2840 H2856 0.931 . S
C2841 C2840 1.370 . S
C2841 C2845 1.408 . S
C2842 C2840 1.363 . S
C2842 C2843 1.370 . S
C2842 C2846 1.524 . S
C2843 C2835 1.503 . S
C2843 C2842 1.370 . S
C2843 C2844 1.403 . S
C2844 C2843 1.403 . S
C2844 C2845 1.404 . S
C2844 C2847 1.539 . S
C2845 C2841 1.408 . S
C2845 C2844 1.404 . S
C2845 H2857 0.930 . S
C2846 C2842 1.524 . S
C2846 H2858 0.956 . S
C2846 H2859 0.961 . S
C2846 H2860 0.961 . S
C2847 C2844 1.539 . S
C2847 H2861 0.958 1_545 S
C2847 H2862 0.961 . S
C2847 H2863 0.960 . S
H2848 C2832 0.931 . S
H2849 C2837 0.929 . S
H2850 C2838 0.960 . S
H2851 C2838 0.957 1_545 S
H2852 C2838 0.960 . S
H2853 C2839 0.961 . S
H2854 C2839 0.961 . S
H2855 C2839 0.961 . S
H2856 C2840 0.931 . S
H2857 C2845 0.930 . S
H2858 C2846 0.956 . S
H2859 C2846 0.961 . S
H2860 C2846 0.961 . S
H2861 C2847 0.958 1_565 S
H2862 C2847 0.961 . S
H2863 C2847 0.960 . S
C2864 C2865 1.391 . S
C2864 C2866 1.394 . S
C2864 H2880 0.931 . S
C2865 C2864 1.391 . S
C2865 C2869 1.376 . S
C2866 C2864 1.394 . S
C2866 C2867 1.369 . S
C2866 C2870 1.531 . S
C2867 C2866 1.369 . S
C2867 C2868 1.410 . S
C2867 C2875 1.503 . S
C2868 C2867 1.410 . S
C2868 C2869 1.392 . S
C2868 C2871 1.511 . S
C2869 C2865 1.376 . S
C2869 C2868 1.392 . S
C2869 H2881 0.929 . S
C2870 C2866 1.531 . S
C2870 H2882 0.960 . S
C2870 H2883 0.962 . S
C2870 H2884 0.960 . S
C2871 C2868 1.511 . S
C2871 H2885 0.961 . S
C2871 H2886 0.961 . S
C2871 H2887 0.961 . S
C2872 C2873 1.370 . S
C2872 C2874 1.363 . S
C2872 H2888 0.931 . S
C2873 C2872 1.370 . S
C2873 C2877 1.408 . S
C2874 C2872 1.363 . S
C2874 C2875 1.370 . S
C2874 C2878 1.524 . S
C2875 C2867 1.503 . S
C2875 C2874 1.370 . S
C2875 C2876 1.403 . S
C2876 C2875 1.403 . S
C2876 C2877 1.404 . S
C2876 C2879 1.539 . S
C2877 C2873 1.408 . S
C2877 C2876 1.404 . S
C2877 H2889 0.930 . S
C2878 C2874 1.524 . S
C2878 H2890 0.956 . S
C2878 H2891 0.961 . S
C2878 H2892 0.961 . S
C2879 C2876 1.539 . S
C2879 H2893 0.958 . S
C2879 H2894 0.961 . S
C2879 H2895 0.960 . S
H2880 C2864 0.931 . S
H2881 C2869 0.929 . S
H2882 C2870 0.960 . S
H2883 C2870 0.962 . S
H2884 C2870 0.960 . S
H2885 C2871 0.961 . S
H2886 C2871 0.961 . S
H2887 C2871 0.961 . S
H2888 C2872 0.931 . S
H2889 C2877 0.930 . S
H2890 C2878 0.956 . S
H2891 C2878 0.961 . S
H2892 C2878 0.961 . S
H2893 C2879 0.958 . S
H2894 C2879 0.961 . S
H2895 C2879 0.960 . S
C2896 C2897 1.391 1_565 S
C2896 C2898 1.394 . S
C2896 H2912 0.931 . S
C2897 C2896 1.391 1_545 S
C2897 C2901 1.376 . S
C2898 C2896 1.394 . S
C2898 C2899 1.369 1_565 S
C2898 C2902 1.531 . S
C2899 C2898 1.369 1_545 S
C2899 C2900 1.410 . S
C2899 C2907 1.503 . S
C2900 C2899 1.410 . S
C2900 C2901 1.392 . S
C2900 C2903 1.511 . S
C2901 C2897 1.376 . S
C2901 C2900 1.392 . S
C2901 H2913 0.929 . S
C2902 C2898 1.531 . S
C2902 H2914 0.960 . S
C2902 H2915 0.962 . S
C2902 H2916 0.960 . S
C2903 C2900 1.511 . S
C2903 H2917 0.961 . S
C2903 H2918 0.961 . S
C2903 H2919 0.961 . S
C2904 C2905 1.370 . S
C2904 C2906 1.363 . S
C2904 H2920 0.931 . S
C2905 C2904 1.370 . S
C2905 C2909 1.408 . S
C2906 C2904 1.363 . S
C2906 C2907 1.370 . S
C2906 C2910 1.524 . S
C2907 C2899 1.503 . S
C2907 C2906 1.370 . S
C2907 C2908 1.403 . S
C2908 C2907 1.403 . S
C2908 C2909 1.404 . S
C2908 C2911 1.539 . S
C2909 C2905 1.408 . S
C2909 C2908 1.404 . S
C2909 H2921 0.930 . S
C2910 C2906 1.524 . S
C2910 H2922 0.956 1_545 S
C2910 H2923 0.961 . S
C2910 H2924 0.961 . S
C2911 C2908 1.539 . S
C2911 H2925 0.958 . S
C2911 H2926 0.961 . S
C2911 H2927 0.960 . S
H2912 C2896 0.931 . S
H2913 C2901 0.929 . S
H2914 C2902 0.960 . S
H2915 C2902 0.962 . S
H2916 C2902 0.960 . S
H2917 C2903 0.961 . S
H2918 C2903 0.961 . S
H2919 C2903 0.961 . S
H2920 C2904 0.931 . S
H2921 C2909 0.930 . S
H2922 C2910 0.956 1_565 S
H2923 C2910 0.961 . S
H2924 C2910 0.961 . S
H2925 C2911 0.958 . S
H2926 C2911 0.961 . S
H2927 C2911 0.960 . S
C2928 C2929 1.391 . S
C2928 C2930 1.394 . S
C2928 H2944 0.931 . S
C2929 C2928 1.391 . S
C2929 C2933 1.376 . S
C2930 C2928 1.394 . S
C2930 C2931 1.369 . S
C2930 C2934 1.531 . S
C2931 C2930 1.369 . S
C2931 C2932 1.410 . S
C2931 C2939 1.503 . S
C2932 C2931 1.410 . S
C2932 C2933 1.392 . S
C2932 C2935 1.511 . S
C2933 C2929 1.376 . S
C2933 C2932 1.392 . S
C2933 H2945 0.929 . S
C2934 C2930 1.531 . S
C2934 H2946 0.960 . S
C2934 H2947 0.962 . S
C2934 H2948 0.960 . S
C2935 C2932 1.511 . S
C2935 H2949 0.961 . S
C2935 H2950 0.961 . S
C2935 H2951 0.961 . S
C2936 C2937 1.370 . S
C2936 C2938 1.363 . S
C2936 H2952 0.931 . S
C2937 C2936 1.370 . S
C2937 C2941 1.408 . S
C2938 C2936 1.363 . S
C2938 C2939 1.370 . S
C2938 C2942 1.524 . S
C2939 C2931 1.503 . S
C2939 C2938 1.370 . S
C2939 C2940 1.403 . S
C2940 C2939 1.403 . S
C2940 C2941 1.404 . S
C2940 C2943 1.539 . S
C2941 C2937 1.408 . S
C2941 C2940 1.404 . S
C2941 H2953 0.930 . S
C2942 C2938 1.524 . S
C2942 H2954 0.956 . S
C2942 H2955 0.961 . S
C2942 H2956 0.961 . S
C2943 C2940 1.539 . S
C2943 H2957 0.958 . S
C2943 H2958 0.961 . S
C2943 H2959 0.960 . S
H2944 C2928 0.931 . S
H2945 C2933 0.929 . S
H2946 C2934 0.960 . S
H2947 C2934 0.962 . S
H2948 C2934 0.960 . S
H2949 C2935 0.961 . S
H2950 C2935 0.961 . S
H2951 C2935 0.961 . S
H2952 C2936 0.931 . S
H2953 C2941 0.930 . S
H2954 C2942 0.956 . S
H2955 C2942 0.961 . S
H2956 C2942 0.961 . S
H2957 C2943 0.958 . S
H2958 C2943 0.961 . S
H2959 C2943 0.960 . S
C2960 C2961 1.391 . S
C2960 C2962 1.394 . S
C2960 H2976 0.931 . S
C2961 C2960 1.391 . S
C2961 C2965 1.376 . S
C2962 C2960 1.394 . S
C2962 C2963 1.369 . S
C2962 C2966 1.531 . S
C2963 C2962 1.369 . S
C2963 C2964 1.410 . S
C2963 C2971 1.503 . S
C2964 C2963 1.410 . S
C2964 C2965 1.392 . S
C2964 C2967 1.511 . S
C2965 C2961 1.376 . S
C2965 C2964 1.392 . S
C2965 H2977 0.929 . S
C2966 C2962 1.531 . S
C2966 H2978 0.946 1_554 S
C2966 H2979 0.962 . S
C2966 H2980 0.960 1_554 S
C2967 C2964 1.511 . S
C2967 H2981 0.961 . S
C2967 H2982 0.961 . S
C2967 H2983 0.961 . S
C2968 C2969 1.370 . S
C2968 C2970 1.363 . S
C2968 H2984 0.931 . S
C2969 C2968 1.370 . S
C2969 C2973 1.408 . S
C2970 C2968 1.363 . S
C2970 C2971 1.370 . S
C2970 C2974 1.524 . S
C2971 C2963 1.503 . S
C2971 C2970 1.370 . S
C2971 C2972 1.403 . S
C2972 C2971 1.403 . S
C2972 C2973 1.404 . S
C2972 C2975 1.539 . S
C2973 C2969 1.408 . S
C2973 C2972 1.404 . S
C2973 H2985 0.930 . S
C2974 C2970 1.524 . S
C2974 H2986 0.956 . S
C2974 H2987 0.961 . S
C2974 H2988 0.961 . S
C2975 C2972 1.539 . S
C2975 H2989 0.958 1_554 S
C2975 H2990 0.961 . S
C2975 H2991 0.960 . S
H2976 C2960 0.931 . S
H2977 C2965 0.929 . S
H2978 C2966 0.946 1_556 S
H2979 C2966 0.962 . S
H2980 C2966 0.960 1_556 S
H2981 C2967 0.961 . S
H2982 C2967 0.961 . S
H2983 C2967 0.961 . S
H2984 C2968 0.931 . S
H2985 C2973 0.930 . S
H2986 C2974 0.956 . S
H2987 C2974 0.961 . S
H2988 C2974 0.961 . S
H2989 C2975 0.958 1_556 S
H2990 C2975 0.961 . S
H2991 C2975 0.960 . S
C2992 C2993 1.391 . S
C2992 C2994 1.394 . S
C2992 H3008 0.931 . S
C2993 C2992 1.391 . S
C2993 C2997 1.376 . S
C2994 C2992 1.394 . S
C2994 C2995 1.369 . S
C2994 C2998 1.531 . S
C2995 C2994 1.369 . S
C2995 C2996 1.410 . S
C2995 C3003 1.503 . S
C2996 C2995 1.410 . S
C2996 C2997 1.392 . S
C2996 C2999 1.511 1_554 S
C2997 C2993 1.376 . S
C2997 C2996 1.392 . S
C2997 H3009 0.929 . S
C2998 C2994 1.531 . S
C2998 H3010 0.960 . S
C2998 H3011 0.962 . S
C2998 H3012 0.960 . S
C2999 C2996 1.511 1_556 S
C2999 H3013 0.961 . S
C2999 H3014 0.961 . S
C2999 H3015 0.965 . S
C3000 C3001 1.370 . S
C3000 C3002 1.363 . S
C3000 H3016 0.931 . S
C3001 C3000 1.370 . S
C3001 C3005 1.408 . S
C3002 C3000 1.363 . S
C3002 C3003 1.370 . S
C3002 C3006 1.524 . S
C3003 C2995 1.503 . S
C3003 C3002 1.370 . S
C3003 C3004 1.403 . S
C3004 C3003 1.403 . S
C3004 C3005 1.404 . S
C3004 C3007 1.539 . S
C3005 C3001 1.408 . S
C3005 C3004 1.404 . S
C3005 H3017 0.930 . S
C3006 C3002 1.524 . S
C3006 H3018 0.956 . S
C3006 H3019 0.961 . S
C3006 H3020 0.961 . S
C3007 C3004 1.539 . S
C3007 H3021 0.958 . S
C3007 H3022 0.961 . S
C3007 H3023 0.960 . S
H3008 C2992 0.931 . S
H3009 C2997 0.929 . S
H3010 C2998 0.960 . S
H3011 C2998 0.962 . S
H3012 C2998 0.960 . S
H3013 C2999 0.961 . S
H3014 C2999 0.961 . S
H3015 C2999 0.965 . S
H3016 C3000 0.931 . S
H3017 C3005 0.930 . S
H3018 C3006 0.956 . S
H3019 C3006 0.961 . S
H3020 C3006 0.961 . S
H3021 C3007 0.958 . S
H3022 C3007 0.961 . S
H3023 C3007 0.960 . S
C3024 C3025 1.391 . S
C3024 C3026 1.394 . S
C3024 H3040 0.931 . S
C3025 C3024 1.391 . S
C3025 C3029 1.376 . S
C3026 C3024 1.394 . S
C3026 C3027 1.369 . S
C3026 C3030 1.531 . S
C3027 C3026 1.369 . S
C3027 C3028 1.410 . S
C3027 C3035 1.503 . S
C3028 C3027 1.410 . S
C3028 C3029 1.392 . S
C3028 C3031 1.511 . S
C3029 C3025 1.376 . S
C3029 C3028 1.392 . S
C3029 H3041 0.929 . S
C3030 C3026 1.531 . S
C3030 H3042 0.960 . S
C3030 H3043 0.962 . S
C3030 H3044 0.960 . S
C3031 C3028 1.511 . S
C3031 H3045 0.961 . S
C3031 H3046 0.961 . S
C3031 H3047 0.961 . S
C3032 C3033 1.370 . S
C3032 C3034 1.363 . S
C3032 H3048 0.931 . S
C3033 C3032 1.370 . S
C3033 C3037 1.408 . S
C3034 C3032 1.363 . S
C3034 C3035 1.370 . S
C3034 C3038 1.524 . S
C3035 C3027 1.503 . S
C3035 C3034 1.370 . S
C3035 C3036 1.403 . S
C3036 C3035 1.403 . S
C3036 C3037 1.404 . S
C3036 C3039 1.539 . S
C3037 C3033 1.408 . S
C3037 C3036 1.404 . S
C3037 H3049 0.930 . S
C3038 C3034 1.524 . S
C3038 H3050 0.956 . S
C3038 H3051 0.961 . S
C3038 H3052 0.961 . S
C3039 C3036 1.539 . S
C3039 H3053 0.958 . S
C3039 H3054 0.961 . S
C3039 H3055 0.960 . S
H3040 C3024 0.931 . S
H3041 C3029 0.929 . S
H3042 C3030 0.960 . S
H3043 C3030 0.962 . S
H3044 C3030 0.960 . S
H3045 C3031 0.961 . S
H3046 C3031 0.961 . S
H3047 C3031 0.961 . S
H3048 C3032 0.931 . S
H3049 C3037 0.930 . S
H3050 C3038 0.956 . S
H3051 C3038 0.961 . S
H3052 C3038 0.961 . S
H3053 C3039 0.958 . S
H3054 C3039 0.961 . S
H3055 C3039 0.960 . S
C3056 C3057 1.391 . S
C3056 C3058 1.394 . S
C3056 H3072 0.931 . S
C3057 C3056 1.391 . S
C3057 C3061 1.376 . S
C3058 C3056 1.394 . S
C3058 C3059 1.369 . S
C3058 C3062 1.531 . S
C3059 C3058 1.369 . S
C3059 C3060 1.410 . S
C3059 C3067 1.503 . S
C3060 C3059 1.410 . S
C3060 C3061 1.392 . S
C3060 C3063 1.511 . S
C3061 C3057 1.376 . S
C3061 C3060 1.392 . S
C3061 H3073 0.929 . S
C3062 C3058 1.531 . S
C3062 H3074 0.960 . S
C3062 H3075 0.962 . S
C3062 H3076 0.960 . S
C3063 C3060 1.511 . S
C3063 H3077 0.961 . S
C3063 H3078 0.961 . S
C3063 H3079 0.961 . S
C3064 C3065 1.370 . S
C3064 C3066 1.363 . S
C3064 H3080 0.931 . S
C3065 C3064 1.370 . S
C3065 C3069 1.408 . S
C3066 C3064 1.363 . S
C3066 C3067 1.370 . S
C3066 C3070 1.524 . S
C3067 C3059 1.503 . S
C3067 C3066 1.370 . S
C3067 C3068 1.403 . S
C3068 C3067 1.403 . S
C3068 C3069 1.404 . S
C3068 C3071 1.539 . S
C3069 C3065 1.408 . S
C3069 C3068 1.404 . S
C3069 H3081 0.930 . S
C3070 C3066 1.524 . S
C3070 H3082 0.956 . S
C3070 H3083 0.961 . S
C3070 H3084 0.961 . S
C3071 C3068 1.539 . S
C3071 H3085 0.958 . S
C3071 H3086 0.961 . S
C3071 H3087 0.960 . S
H3072 C3056 0.931 . S
H3073 C3061 0.929 . S
H3074 C3062 0.960 . S
H3075 C3062 0.962 . S
H3076 C3062 0.960 . S
H3077 C3063 0.961 . S
H3078 C3063 0.961 . S
H3079 C3063 0.961 . S
H3080 C3064 0.931 . S
H3081 C3069 0.930 . S
H3082 C3070 0.956 . S
H3083 C3070 0.961 . S
H3084 C3070 0.961 . S
H3085 C3071 0.958 . S
H3086 C3071 0.961 . S
H3087 C3071 0.960 . S
C3088 C3089 1.391 . S
C3088 C3090 1.394 1_545 S
C3088 H3104 0.931 . S
C3089 C3088 1.391 . S
C3089 C3093 1.376 1_545 S
C3090 C3088 1.394 1_565 S
C3090 C3091 1.369 . S
C3090 C3094 1.531 . S
C3091 C3090 1.369 . S
C3091 C3092 1.410 . S
C3091 C3099 1.503 . S
C3092 C3091 1.410 . S
C3092 C3093 1.392 . S
C3092 C3095 1.511 . S
C3093 C3089 1.376 1_565 S
C3093 C3092 1.392 . S
C3093 H3105 0.929 . S
C3094 C3090 1.531 . S
C3094 H3106 0.960 . S
C3094 H3107 0.962 . S
C3094 H3108 0.960 1_565 S
C3095 C3092 1.511 . S
C3095 H3109 0.961 . S
C3095 H3110 0.961 . S
C3095 H3111 0.961 . S
C3096 C3097 1.370 . S
C3096 C3098 1.363 . S
C3096 H3112 0.931 . S
C3097 C3096 1.370 . S
C3097 C3101 1.408 . S
C3098 C3096 1.363 . S
C3098 C3099 1.370 . S
C3098 C3102 1.524 . S
C3099 C3091 1.503 . S
C3099 C3098 1.370 . S
C3099 C3100 1.403 . S
C3100 C3099 1.403 . S
C3100 C3101 1.404 . S
C3100 C3103 1.539 . S
C3101 C3097 1.408 . S
C3101 C3100 1.404 . S
C3101 H3113 0.930 . S
C3102 C3098 1.524 . S
C3102 H3114 0.956 . S
C3102 H3115 0.961 . S
C3102 H3116 0.961 . S
C3103 C3100 1.539 . S
C3103 H3117 0.958 . S
C3103 H3118 0.961 . S
C3103 H3119 0.960 . S
H3104 C3088 0.931 . S
H3105 C3093 0.929 . S
H3106 C3094 0.960 . S
H3107 C3094 0.962 . S
H3108 C3094 0.960 1_545 S
H3109 C3095 0.961 . S
H3110 C3095 0.961 . S
H3111 C3095 0.961 . S
H3112 C3096 0.931 . S
H3113 C3101 0.930 . S
H3114 C3102 0.956 . S
H3115 C3102 0.961 . S
H3116 C3102 0.961 . S
H3117 C3103 0.958 . S
H3118 C3103 0.961 . S
H3119 C3103 0.960 . S
C3120 C3121 1.391 . S
C3120 C3122 1.394 . S
C3120 H3136 0.931 . S
C3121 C3120 1.391 . S
C3121 C3125 1.376 . S
C3122 C3120 1.394 . S
C3122 C3123 1.369 . S
C3122 C3126 1.531 . S
C3123 C3122 1.369 . S
C3123 C3124 1.410 . S
C3123 C3131 1.503 . S
C3124 C3123 1.410 . S
C3124 C3125 1.392 . S
C3124 C3127 1.511 . S
C3125 C3121 1.376 . S
C3125 C3124 1.392 . S
C3125 H3137 0.929 . S
C3126 C3122 1.531 . S
C3126 H3138 0.960 . S
C3126 H3139 0.962 . S
C3126 H3140 0.960 . S
C3127 C3124 1.511 . S
C3127 H3141 0.961 . S
C3127 H3142 0.961 . S
C3127 H3143 0.961 . S
C3128 C3129 1.370 . S
C3128 C3130 1.363 . S
C3128 H3144 0.931 . S
C3129 C3128 1.370 . S
C3129 C3133 1.408 . S
C3130 C3128 1.363 . S
C3130 C3131 1.370 . S
C3130 C3134 1.524 . S
C3131 C3123 1.503 . S
C3131 C3130 1.370 . S
C3131 C3132 1.403 . S
C3132 C3131 1.403 . S
C3132 C3133 1.404 . S
C3132 C3135 1.539 . S
C3133 C3129 1.408 . S
C3133 C3132 1.404 . S
C3133 H3145 0.930 . S
C3134 C3130 1.524 . S
C3134 H3146 0.956 . S
C3134 H3147 0.961 . S
C3134 H3148 0.961 . S
C3135 C3132 1.539 . S
C3135 H3149 0.958 . S
C3135 H3150 0.961 . S
C3135 H3151 0.960 . S
H3136 C3120 0.931 . S
H3137 C3125 0.929 . S
H3138 C3126 0.960 . S
H3139 C3126 0.962 . S
H3140 C3126 0.960 . S
H3141 C3127 0.961 . S
H3142 C3127 0.961 . S
H3143 C3127 0.961 . S
H3144 C3128 0.931 . S
H3145 C3133 0.930 . S
H3146 C3134 0.956 . S
H3147 C3134 0.961 . S
H3148 C3134 0.961 . S
H3149 C3135 0.958 . S
H3150 C3135 0.961 . S
H3151 C3135 0.960 . S
C3152 C3153 1.391 . S
C3152 C3154 1.394 . S
C3152 H3168 0.931 . S
C3153 C3152 1.391 . S
C3153 C3157 1.376 . S
C3154 C3152 1.394 . S
C3154 C3155 1.369 . S
C3154 C3158 1.531 . S
C3155 C3154 1.369 . S
C3155 C3156 1.410 . S
C3155 C3163 1.503 . S
C3156 C3155 1.410 . S
C3156 C3157 1.392 . S
C3156 C3159 1.511 . S
C3157 C3153 1.376 . S
C3157 C3156 1.392 . S
C3157 H3169 0.929 . S
C3158 C3154 1.531 . S
C3158 H3170 0.960 . S
C3158 H3171 0.962 . S
C3158 H3172 0.960 . S
C3159 C3156 1.511 . S
C3159 H3173 0.961 . S
C3159 H3174 0.961 . S
C3159 H3175 0.961 . S
C3160 C3161 1.370 . S
C3160 C3162 1.363 . S
C3160 H3176 0.931 . S
C3161 C3160 1.370 . S
C3161 C3165 1.408 . S
C3162 C3160 1.363 . S
C3162 C3163 1.370 . S
C3162 C3166 1.524 . S
C3163 C3155 1.503 . S
C3163 C3162 1.370 . S
C3163 C3164 1.403 . S
C3164 C3163 1.403 . S
C3164 C3165 1.404 . S
C3164 C3167 1.539 . S
C3165 C3161 1.408 . S
C3165 C3164 1.404 . S
C3165 H3177 0.930 . S
C3166 C3162 1.524 . S
C3166 H3178 0.956 . S
C3166 H3179 0.961 . S
C3166 H3180 0.961 . S
C3167 C3164 1.539 . S
C3167 H3181 0.958 . S
C3167 H3182 0.961 . S
C3167 H3183 0.960 . S
H3168 C3152 0.931 . S
H3169 C3157 0.929 . S
H3170 C3158 0.960 . S
H3171 C3158 0.962 . S
H3172 C3158 0.960 . S
H3173 C3159 0.961 . S
H3174 C3159 0.961 . S
H3175 C3159 0.961 . S
H3176 C3160 0.931 . S
H3177 C3165 0.930 . S
H3178 C3166 0.956 . S
H3179 C3166 0.961 . S
H3180 C3166 0.961 . S
H3181 C3167 0.958 . S
H3182 C3167 0.961 . S
H3183 C3167 0.960 . S
C3184 C3185 1.391 . S
C3184 C3186 1.394 . S
C3184 H3200 0.931 . S
C3185 C3184 1.391 . S
C3185 C3189 1.376 . S
C3186 C3184 1.394 . S
C3186 C3187 1.369 . S
C3186 C3190 1.531 . S
C3187 C3186 1.369 . S
C3187 C3188 1.410 . S
C3187 C3195 1.503 . S
C3188 C3187 1.410 . S
C3188 C3189 1.392 . S
C3188 C3191 1.511 . S
C3189 C3185 1.376 . S
C3189 C3188 1.392 . S
C3189 H3201 0.929 . S
C3190 C3186 1.531 . S
C3190 H3202 0.960 . S
C3190 H3203 0.962 . S
C3190 H3204 0.960 . S
C3191 C3188 1.511 . S
C3191 H3205 0.961 . S
C3191 H3206 0.961 . S
C3191 H3207 0.961 . S
C3192 C3193 1.370 . S
C3192 C3194 1.363 . S
C3192 H3208 0.931 . S
C3193 C3192 1.370 . S
C3193 C3197 1.408 . S
C3194 C3192 1.363 . S
C3194 C3195 1.370 . S
C3194 C3198 1.524 . S
C3195 C3187 1.503 . S
C3195 C3194 1.370 . S
C3195 C3196 1.403 . S
C3196 C3195 1.403 . S
C3196 C3197 1.404 . S
C3196 C3199 1.539 . S
C3197 C3193 1.408 . S
C3197 C3196 1.404 . S
C3197 H3209 0.930 . S
C3198 C3194 1.524 . S
C3198 H3210 0.956 . S
C3198 H3211 0.961 . S
C3198 H3212 0.961 . S
C3199 C3196 1.539 . S
C3199 H3213 0.958 . S
C3199 H3214 0.961 . S
C3199 H3215 0.960 . S
H3200 C3184 0.931 . S
H3201 C3189 0.929 . S
H3202 C3190 0.960 . S
H3203 C3190 0.962 . S
H3204 C3190 0.960 . S
H3205 C3191 0.961 . S
H3206 C3191 0.961 . S
H3207 C3191 0.961 . S
H3208 C3192 0.931 . S
H3209 C3197 0.930 . S
H3210 C3198 0.956 . S
H3211 C3198 0.961 . S
H3212 C3198 0.961 . S
H3213 C3199 0.958 . S
H3214 C3199 0.961 . S
H3215 C3199 0.960 . S
C3216 C3217 1.391 . S
C3216 C3218 1.394 . S
C3216 H3232 0.931 . S
C3217 C3216 1.391 . S
C3217 C3221 1.376 . S
C3218 C3216 1.394 . S
C3218 C3219 1.369 . S
C3218 C3222 1.531 . S
C3219 C3218 1.369 . S
C3219 C3220 1.410 . S
C3219 C3227 1.503 . S
C3220 C3219 1.410 . S
C3220 C3221 1.392 . S
C3220 C3223 1.511 . S
C3221 C3217 1.376 . S
C3221 C3220 1.392 . S
C3221 H3233 0.929 . S
C3222 C3218 1.531 . S
C3222 H3234 0.960 . S
C3222 H3235 0.962 . S
C3222 H3236 0.960 . S
C3223 C3220 1.511 . S
C3223 H3237 0.961 . S
C3223 H3238 0.961 . S
C3223 H3239 0.961 . S
C3224 C3225 1.370 . S
C3224 C3226 1.363 . S
C3224 H3240 0.931 . S
C3225 C3224 1.370 . S
C3225 C3229 1.408 . S
C3226 C3224 1.363 . S
C3226 C3227 1.370 . S
C3226 C3230 1.524 . S
C3227 C3219 1.503 . S
C3227 C3226 1.370 . S
C3227 C3228 1.403 . S
C3228 C3227 1.403 . S
C3228 C3229 1.404 . S
C3228 C3231 1.539 . S
C3229 C3225 1.408 . S
C3229 C3228 1.404 . S
C3229 H3241 0.930 . S
C3230 C3226 1.524 . S
C3230 H3242 0.956 . S
C3230 H3243 0.961 . S
C3230 H3244 0.961 . S
C3231 C3228 1.539 . S
C3231 H3245 0.958 . S
C3231 H3246 0.961 . S
C3231 H3247 0.960 . S
H3232 C3216 0.931 . S
H3233 C3221 0.929 . S
H3234 C3222 0.960 . S
H3235 C3222 0.962 . S
H3236 C3222 0.960 . S
H3237 C3223 0.961 . S
H3238 C3223 0.961 . S
H3239 C3223 0.961 . S
H3240 C3224 0.931 . S
H3241 C3229 0.930 . S
H3242 C3230 0.956 . S
H3243 C3230 0.961 . S
H3244 C3230 0.961 . S
H3245 C3231 0.958 . S
H3246 C3231 0.961 . S
H3247 C3231 0.960 . S
C3248 C3249 1.391 . S
C3248 C3250 1.394 . S
C3248 H3264 0.931 . S
C3249 C3248 1.391 . S
C3249 C3253 1.376 . S
C3250 C3248 1.394 . S
C3250 C3251 1.369 . S
C3250 C3254 1.531 . S
C3251 C3250 1.369 . S
C3251 C3252 1.410 . S
C3251 C3259 1.503 . S
C3252 C3251 1.410 . S
C3252 C3253 1.392 . S
C3252 C3255 1.511 . S
C3253 C3249 1.376 . S
C3253 C3252 1.392 . S
C3253 H3265 0.929 . S
C3254 C3250 1.531 . S
C3254 H3266 0.960 . S
C3254 H3267 0.962 . S
C3254 H3268 0.960 . S
C3255 C3252 1.511 . S
C3255 H3269 0.961 . S
C3255 H3270 0.961 . S
C3255 H3271 0.961 . S
C3256 C3257 1.370 . S
C3256 C3258 1.363 . S
C3256 H3272 0.931 . S
C3257 C3256 1.370 . S
C3257 C3261 1.408 . S
C3258 C3256 1.363 . S
C3258 C3259 1.370 . S
C3258 C3262 1.524 . S
C3259 C3251 1.503 . S
C3259 C3258 1.370 . S
C3259 C3260 1.403 . S
C3260 C3259 1.403 . S
C3260 C3261 1.404 . S
C3260 C3263 1.539 . S
C3261 C3257 1.408 . S
C3261 C3260 1.404 . S
C3261 H3273 0.930 . S
C3262 C3258 1.524 . S
C3262 H3274 0.956 . S
C3262 H3275 0.961 . S
C3262 H3276 0.961 . S
C3263 C3260 1.539 . S
C3263 H3277 0.958 . S
C3263 H3278 0.961 . S
C3263 H3279 0.960 . S
H3264 C3248 0.931 . S
H3265 C3253 0.929 . S
H3266 C3254 0.960 . S
H3267 C3254 0.962 . S
H3268 C3254 0.960 . S
H3269 C3255 0.961 . S
H3270 C3255 0.961 . S
H3271 C3255 0.961 . S
H3272 C3256 0.931 . S
H3273 C3261 0.930 . S
H3274 C3262 0.956 . S
H3275 C3262 0.961 . S
H3276 C3262 0.961 . S
H3277 C3263 0.958 . S
H3278 C3263 0.961 . S
H3279 C3263 0.960 . S
C3280 C3281 1.381 1_554 S
C3280 C3282 1.395 . S
C3280 H3296 0.940 . S
C3281 C3280 1.381 1_556 S
C3281 C3285 1.376 1_455 S
C3282 C3280 1.395 . S
C3282 C3283 1.369 1_554 S
C3282 C3286 1.531 . S
C3283 C3282 1.369 1_556 S
C3283 C3284 1.401 1_455 S
C3283 C3291 1.503 . S
C3284 C3283 1.401 1_655 S
C3284 C3285 1.390 . S
C3284 C3287 1.522 . S
C3285 C3281 1.376 1_655 S
C3285 C3284 1.390 . S
C3285 H3297 0.929 . S
C3286 C3282 1.531 . S
C3286 H3298 0.960 . S
C3286 H3299 0.962 . S
C3286 H3300 0.960 . S
C3287 C3284 1.522 . S
C3287 H3301 0.961 . S
C3287 H3302 0.961 . S
C3287 H3303 0.961 . S
C3288 C3289 1.370 . S
C3288 C3290 1.353 . S
C3288 H3304 0.931 1_455 S
C3289 C3288 1.370 . S
C3289 C3293 1.408 1_554 S
C3290 C3288 1.353 . S
C3290 C3291 1.410 1_554 S
C3290 C3294 1.496 1_455 S
C3291 C3283 1.503 . S
C3291 C3290 1.410 1_556 S
C3291 C3292 1.403 . S
C3292 C3291 1.403 . S
C3292 C3293 1.404 . S
C3292 C3295 1.539 . S
C3293 C3289 1.408 1_556 S
C3293 C3292 1.404 . S
C3293 H3305 0.930 . S
C3294 C3290 1.496 1_655 S
C3294 H3306 0.956 . S
C3294 H3307 0.961 . S
C3294 H3308 0.961 . S
C3295 C3292 1.539 . S
C3295 H3309 0.958 . S
C3295 H3310 0.961 . S
C3295 H3311 0.960 . S
H3296 C3280 0.940 . S
H3297 C3285 0.929 . S
H3298 C3286 0.960 . S
H3299 C3286 0.962 . S
H3300 C3286 0.960 . S
H3301 C3287 0.961 . S
H3302 C3287 0.961 . S
H3303 C3287 0.961 . S
H3304 C3288 0.931 1_655 S
H3305 C3293 0.930 . S
H3306 C3294 0.956 . S
H3307 C3294 0.961 . S
H3308 C3294 0.961 . S
H3309 C3295 0.958 . S
H3310 C3295 0.961 . S
H3311 C3295 0.960 . S
C3312 C3313 1.391 . S
C3312 C3314 1.394 1_455 S
C3312 H3328 0.931 . S
C3313 C3312 1.391 . S
C3313 C3317 1.376 1_455 S
C3314 C3312 1.394 1_655 S
C3314 C3315 1.369 . S
C3314 C3318 1.531 . S
C3315 C3314 1.369 . S
C3315 C3316 1.410 . S
C3315 C3323 1.503 . S
C3316 C3315 1.410 . S
C3316 C3317 1.392 . S
C3316 C3319 1.511 . S
C3317 C3313 1.376 1_655 S
C3317 C3316 1.392 . S
C3317 H3329 0.929 . S
C3318 C3314 1.531 . S
C3318 H3330 0.960 . S
C3318 H3331 0.962 . S
C3318 H3332 0.960 1_655 S
C3319 C3316 1.511 . S
C3319 H3333 0.961 . S
C3319 H3334 0.961 . S
C3319 H3335 0.961 . S
C3320 C3321 1.370 . S
C3320 C3322 1.363 . S
C3320 H3336 0.931 . S
C3321 C3320 1.370 . S
C3321 C3325 1.408 . S
C3322 C3320 1.363 . S
C3322 C3323 1.370 . S
C3322 C3326 1.524 . S
C3323 C3315 1.503 . S
C3323 C3322 1.370 . S
C3323 C3324 1.403 . S
C3324 C3323 1.403 . S
C3324 C3325 1.404 . S
C3324 C3327 1.539 . S
C3325 C3321 1.408 . S
C3325 C3324 1.404 . S
C3325 H3337 0.930 . S
C3326 C3322 1.524 . S
C3326 H3338 0.956 . S
C3326 H3339 0.961 . S
C3326 H3340 0.961 . S
C3327 C3324 1.539 . S
C3327 H3341 0.958 . S
C3327 H3342 0.961 . S
C3327 H3343 0.960 . S
H3328 C3312 0.931 . S
H3329 C3317 0.929 . S
H3330 C3318 0.960 . S
H3331 C3318 0.962 . S
H3332 C3318 0.960 1_455 S
H3333 C3319 0.961 . S
H3334 C3319 0.961 . S
H3335 C3319 0.961 . S
H3336 C3320 0.931 . S
H3337 C3325 0.930 . S
H3338 C3326 0.956 . S
H3339 C3326 0.961 . S
H3340 C3326 0.961 . S
H3341 C3327 0.958 . S
H3342 C3327 0.961 . S
H3343 C3327 0.960 . S
C3344 C3345 1.391 . S
C3344 C3346 1.394 . S
C3344 H3360 0.931 . S
C3345 C3344 1.391 . S
C3345 C3349 1.376 . S
C3346 C3344 1.394 . S
C3346 C3347 1.369 . S
C3346 C3350 1.531 . S
C3347 C3346 1.369 . S
C3347 C3348 1.410 . S
C3347 C3355 1.503 . S
C3348 C3347 1.410 . S
C3348 C3349 1.392 . S
C3348 C3351 1.511 . S
C3349 C3345 1.376 . S
C3349 C3348 1.392 . S
C3349 H3361 0.929 . S
C3350 C3346 1.531 . S
C3350 H3362 0.960 . S
C3350 H3363 0.962 . S
C3350 H3364 0.960 . S
C3351 C3348 1.511 . S
C3351 H3365 0.961 . S
C3351 H3366 0.961 . S
C3351 H3367 0.961 . S
C3352 C3353 1.370 . S
C3352 C3354 1.363 . S
C3352 H3368 0.931 . S
C3353 C3352 1.370 . S
C3353 C3357 1.408 . S
C3354 C3352 1.363 . S
C3354 C3355 1.370 . S
C3354 C3358 1.524 . S
C3355 C3347 1.503 . S
C3355 C3354 1.370 . S
C3355 C3356 1.403 . S
C3356 C3355 1.403 . S
C3356 C3357 1.404 . S
C3356 C3359 1.539 . S
C3357 C3353 1.408 . S
C3357 C3356 1.404 . S
C3357 H3369 0.930 . S
C3358 C3354 1.524 . S
C3358 H3370 0.956 . S
C3358 H3371 0.961 . S
C3358 H3372 0.961 . S
C3359 C3356 1.539 . S
C3359 H3373 0.958 . S
C3359 H3374 0.961 . S
C3359 H3375 0.960 . S
H3360 C3344 0.931 . S
H3361 C3349 0.929 . S
H3362 C3350 0.960 . S
H3363 C3350 0.962 . S
H3364 C3350 0.960 . S
H3365 C3351 0.961 . S
H3366 C3351 0.961 . S
H3367 C3351 0.961 . S
H3368 C3352 0.931 . S
H3369 C3357 0.930 . S
H3370 C3358 0.956 . S
H3371 C3358 0.961 . S
H3372 C3358 0.961 . S
H3373 C3359 0.958 . S
H3374 C3359 0.961 . S
H3375 C3359 0.960 . S
C3376 C3377 1.391 . S
C3376 C3378 1.394 . S
C3376 H3392 0.931 . S
C3377 C3376 1.391 . S
C3377 C3381 1.376 . S
C3378 C3376 1.394 . S
C3378 C3379 1.369 . S
C3378 C3382 1.531 . S
C3379 C3378 1.369 . S
C3379 C3380 1.410 . S
C3379 C3387 1.503 . S
C3380 C3379 1.410 . S
C3380 C3381 1.392 . S
C3380 C3383 1.511 . S
C3381 C3377 1.376 . S
C3381 C3380 1.392 . S
C3381 H3393 0.929 . S
C3382 C3378 1.531 . S
C3382 H3394 0.960 . S
C3382 H3395 0.962 . S
C3382 H3396 0.960 . S
C3383 C3380 1.511 . S
C3383 H3397 0.961 . S
C3383 H3398 0.961 . S
C3383 H3399 0.961 . S
C3384 C3385 1.370 . S
C3384 C3386 1.363 . S
C3384 H3400 0.931 . S
C3385 C3384 1.370 . S
C3385 C3389 1.408 . S
C3386 C3384 1.363 . S
C3386 C3387 1.370 . S
C3386 C3390 1.524 . S
C3387 C3379 1.503 . S
C3387 C3386 1.370 . S
C3387 C3388 1.403 . S
C3388 C3387 1.403 . S
C3388 C3389 1.404 . S
C3388 C3391 1.539 . S
C3389 C3385 1.408 . S
C3389 C3388 1.404 . S
C3389 H3401 0.930 . S
C3390 C3386 1.524 . S
C3390 H3402 0.956 . S
C3390 H3403 0.961 . S
C3390 H3404 0.961 . S
C3391 C3388 1.539 . S
C3391 H3405 0.958 . S
C3391 H3406 0.961 . S
C3391 H3407 0.960 . S
H3392 C3376 0.931 . S
H3393 C3381 0.929 . S
H3394 C3382 0.960 . S
H3395 C3382 0.962 . S
H3396 C3382 0.960 . S
H3397 C3383 0.961 . S
H3398 C3383 0.961 . S
H3399 C3383 0.961 . S
H3400 C3384 0.931 . S
H3401 C3389 0.930 . S
H3402 C3390 0.956 . S
H3403 C3390 0.961 . S
H3404 C3390 0.961 . S
H3405 C3391 0.958 . S
H3406 C3391 0.961 . S
H3407 C3391 0.960 . S
C3408 C3409 1.391 . S
C3408 C3410 1.394 . S
C3408 H3424 0.931 . S
C3409 C3408 1.391 . S
C3409 C3413 1.376 1_455 S
C3410 C3408 1.394 . S
C3410 C3411 1.369 . S
C3410 C3414 1.531 . S
C3411 C3410 1.369 . S
C3411 C3412 1.410 1_455 S
C3411 C3419 1.503 . S
C3412 C3411 1.410 1_655 S
C3412 C3413 1.392 . S
C3412 C3415 1.511 . S
C3413 C3409 1.376 1_655 S
C3413 C3412 1.392 . S
C3413 H3425 0.929 . S
C3414 C3410 1.531 . S
C3414 H3426 0.960 . S
C3414 H3427 0.962 . S
C3414 H3428 0.960 . S
C3415 C3412 1.511 . S
C3415 H3429 0.961 . S
C3415 H3430 0.961 . S
C3415 H3431 0.961 . S
C3416 C3417 1.370 . S
C3416 C3418 1.363 . S
C3416 H3432 0.931 . S
C3417 C3416 1.370 . S
C3417 C3421 1.408 . S
C3418 C3416 1.363 . S
C3418 C3419 1.370 . S
C3418 C3422 1.524 . S
C3419 C3411 1.503 . S
C3419 C3418 1.370 . S
C3419 C3420 1.403 . S
C3420 C3419 1.403 . S
C3420 C3421 1.404 . S
C3420 C3423 1.539 . S
C3421 C3417 1.408 . S
C3421 C3420 1.404 . S
C3421 H3433 0.930 . S
C3422 C3418 1.524 . S
C3422 H3434 0.956 . S
C3422 H3435 0.961 . S
C3422 H3436 0.961 . S
C3423 C3420 1.539 . S
C3423 H3437 0.958 . S
C3423 H3438 0.961 . S
C3423 H3439 0.960 . S
H3424 C3408 0.931 . S
H3425 C3413 0.929 . S
H3426 C3414 0.960 . S
H3427 C3414 0.962 . S
H3428 C3414 0.960 . S
H3429 C3415 0.961 . S
H3430 C3415 0.961 . S
H3431 C3415 0.961 . S
H3432 C3416 0.931 . S
H3433 C3421 0.930 . S
H3434 C3422 0.956 . S
H3435 C3422 0.961 . S
H3436 C3422 0.961 . S
H3437 C3423 0.958 . S
H3438 C3423 0.961 . S
H3439 C3423 0.960 . S
C3440 C3441 1.391 . S
C3440 C3442 1.394 . S
C3440 H3456 0.931 . S
C3441 C3440 1.391 . S
C3441 C3445 1.376 . S
C3442 C3440 1.394 . S
C3442 C3443 1.369 . S
C3442 C3446 1.531 . S
C3443 C3442 1.369 . S
C3443 C3444 1.410 . S
C3443 C3451 1.503 . S
C3444 C3443 1.410 . S
C3444 C3445 1.392 . S
C3444 C3447 1.511 . S
C3445 C3441 1.376 . S
C3445 C3444 1.392 . S
C3445 H3457 0.929 . S
C3446 C3442 1.531 . S
C3446 H3458 0.960 . S
C3446 H3459 0.962 . S
C3446 H3460 0.960 . S
C3447 C3444 1.511 . S
C3447 H3461 0.961 . S
C3447 H3462 0.961 . S
C3447 H3463 0.961 . S
C3448 C3449 1.370 . S
C3448 C3450 1.363 . S
C3448 H3464 0.931 . S
C3449 C3448 1.370 . S
C3449 C3453 1.408 . S
C3450 C3448 1.363 . S
C3450 C3451 1.370 . S
C3450 C3454 1.524 . S
C3451 C3443 1.503 . S
C3451 C3450 1.370 . S
C3451 C3452 1.403 . S
C3452 C3451 1.403 . S
C3452 C3453 1.404 . S
C3452 C3455 1.539 . S
C3453 C3449 1.408 . S
C3453 C3452 1.404 . S
C3453 H3465 0.930 . S
C3454 C3450 1.524 . S
C3454 H3466 0.956 . S
C3454 H3467 0.961 . S
C3454 H3468 0.961 . S
C3455 C3452 1.539 . S
C3455 H3469 0.958 . S
C3455 H3470 0.961 . S
C3455 H3471 0.960 . S
H3456 C3440 0.931 . S
H3457 C3445 0.929 . S
H3458 C3446 0.960 . S
H3459 C3446 0.962 . S
H3460 C3446 0.960 . S
H3461 C3447 0.961 . S
H3462 C3447 0.961 . S
H3463 C3447 0.961 . S
H3464 C3448 0.931 . S
H3465 C3453 0.930 . S
H3466 C3454 0.956 . S
H3467 C3454 0.961 . S
H3468 C3454 0.961 . S
H3469 C3455 0.958 . S
H3470 C3455 0.961 . S
H3471 C3455 0.960 . S
C3472 C3473 1.391 . S
C3472 C3474 1.394 . S
C3472 H3488 0.931 . S
C3473 C3472 1.391 . S
C3473 C3477 1.376 . S
C3474 C3472 1.394 . S
C3474 C3475 1.369 . S
C3474 C3478 1.531 . S
C3475 C3474 1.369 . S
C3475 C3476 1.410 . S
C3475 C3483 1.503 . S
C3476 C3475 1.410 . S
C3476 C3477 1.392 . S
C3476 C3479 1.511 . S
C3477 C3473 1.376 . S
C3477 C3476 1.392 . S
C3477 H3489 0.929 . S
C3478 C3474 1.531 . S
C3478 H3490 0.960 . S
C3478 H3491 0.962 . S
C3478 H3492 0.960 . S
C3479 C3476 1.511 . S
C3479 H3493 0.961 . S
C3479 H3494 0.961 . S
C3479 H3495 0.961 . S
C3480 C3481 1.370 . S
C3480 C3482 1.363 . S
C3480 H3496 0.931 . S
C3481 C3480 1.370 . S
C3481 C3485 1.408 . S
C3482 C3480 1.363 . S
C3482 C3483 1.370 . S
C3482 C3486 1.524 . S
C3483 C3475 1.503 . S
C3483 C3482 1.370 . S
C3483 C3484 1.403 . S
C3484 C3483 1.403 . S
C3484 C3485 1.404 . S
C3484 C3487 1.539 . S
C3485 C3481 1.408 . S
C3485 C3484 1.404 . S
C3485 H3497 0.930 . S
C3486 C3482 1.524 . S
C3486 H3498 0.956 . S
C3486 H3499 0.961 . S
C3486 H3500 0.961 . S
C3487 C3484 1.539 . S
C3487 H3501 0.958 . S
C3487 H3502 0.961 . S
C3487 H3503 0.960 . S
H3488 C3472 0.931 . S
H3489 C3477 0.929 . S
H3490 C3478 0.960 . S
H3491 C3478 0.962 . S
H3492 C3478 0.960 . S
H3493 C3479 0.961 . S
H3494 C3479 0.961 . S
H3495 C3479 0.961 . S
H3496 C3480 0.931 . S
H3497 C3485 0.930 . S
H3498 C3486 0.956 . S
H3499 C3486 0.961 . S
H3500 C3486 0.961 . S
H3501 C3487 0.958 . S
H3502 C3487 0.961 . S
H3503 C3487 0.960 . S
C3504 C3505 1.391 . S
C3504 C3506 1.394 1_554 S
C3504 H3520 0.931 . S
C3505 C3504 1.391 . S
C3505 C3509 1.376 1_554 S
C3506 C3504 1.394 1_556 S
C3506 C3507 1.369 . S
C3506 C3510 1.531 . S
C3507 C3506 1.369 . S
C3507 C3508 1.410 . S
C3507 C3515 1.503 . S
C3508 C3507 1.410 . S
C3508 C3509 1.392 . S
C3508 C3511 1.511 . S
C3509 C3505 1.376 1_556 S
C3509 C3508 1.392 . S
C3509 H3521 0.929 . S
C3510 C3506 1.531 . S
C3510 H3522 0.960 . S
C3510 H3523 0.962 . S
C3510 H3524 0.960 1_556 S
C3511 C3508 1.511 . S
C3511 H3525 0.961 . S
C3511 H3526 0.961 . S
C3511 H3527 0.961 . S
C3512 C3513 1.370 . S
C3512 C3514 1.363 . S
C3512 H3528 0.931 . S
C3513 C3512 1.370 . S
C3513 C3517 1.408 . S
C3514 C3512 1.363 . S
C3514 C3515 1.370 . S
C3514 C3518 1.524 . S
C3515 C3507 1.503 . S
C3515 C3514 1.370 . S
C3515 C3516 1.403 . S
C3516 C3515 1.403 . S
C3516 C3517 1.404 . S
C3516 C3519 1.539 . S
C3517 C3513 1.408 . S
C3517 C3516 1.404 . S
C3517 H3529 0.930 . S
C3518 C3514 1.524 . S
C3518 H3530 0.956 . S
C3518 H3531 0.961 . S
C3518 H3532 0.961 . S
C3519 C3516 1.539 . S
C3519 H3533 0.958 . S
C3519 H3534 0.961 . S
C3519 H3535 0.960 . S
H3520 C3504 0.931 . S
H3521 C3509 0.929 . S
H3522 C3510 0.960 . S
H3523 C3510 0.962 . S
H3524 C3510 0.960 1_554 S
H3525 C3511 0.961 . S
H3526 C3511 0.961 . S
H3527 C3511 0.961 . S
H3528 C3512 0.931 . S
H3529 C3517 0.930 . S
H3530 C3518 0.956 . S
H3531 C3518 0.961 . S
H3532 C3518 0.961 . S
H3533 C3519 0.958 . S
H3534 C3519 0.961 . S
H3535 C3519 0.960 . S
C3536 C3537 1.391 . S
C3536 C3538 1.394 . S
C3536 H3552 0.931 . S
C3537 C3536 1.391 . S
C3537 C3541 1.376 . S
C3538 C3536 1.394 . S
C3538 C3539 1.369 . S
C3538 C3542 1.531 . S
C3539 C3538 1.369 . S
C3539 C3540 1.410 . S
C3539 C3547 1.503 . S
C3540 C3539 1.410 . S
C3540 C3541 1.392 . S
C3540 C3543 1.511 . S
C3541 C3537 1.376 . S
C3541 C3540 1.392 . S
C3541 H3553 0.929 . S
C3542 C3538 1.531 . S
C3542 H3554 0.960 . S
C3542 H3555 0.962 . S
C3542 H3556 0.960 . S
C3543 C3540 1.511 . S
C3543 H3557 0.961 . S
C3543 H3558 0.961 . S
C3543 H3559 0.961 . S
C3544 C3545 1.370 . S
C3544 C3546 1.363 . S
C3544 H3560 0.931 . S
C3545 C3544 1.370 . S
C3545 C3549 1.408 . S
C3546 C3544 1.363 . S
C3546 C3547 1.370 . S
C3546 C3550 1.524 . S
C3547 C3539 1.503 . S
C3547 C3546 1.370 . S
C3547 C3548 1.403 . S
C3548 C3547 1.403 . S
C3548 C3549 1.404 . S
C3548 C3551 1.539 . S
C3549 C3545 1.408 . S
C3549 C3548 1.404 . S
C3549 H3561 0.930 . S
C3550 C3546 1.524 . S
C3550 H3562 0.956 . S
C3550 H3563 0.961 . S
C3550 H3564 0.961 . S
C3551 C3548 1.539 . S
C3551 H3565 0.958 . S
C3551 H3566 0.961 . S
C3551 H3567 0.960 . S
H3552 C3536 0.931 . S
H3553 C3541 0.929 . S
H3554 C3542 0.960 . S
H3555 C3542 0.962 . S
H3556 C3542 0.960 . S
H3557 C3543 0.961 . S
H3558 C3543 0.961 . S
H3559 C3543 0.961 . S
H3560 C3544 0.931 . S
H3561 C3549 0.930 . S
H3562 C3550 0.956 . S
H3563 C3550 0.961 . S
H3564 C3550 0.961 . S
H3565 C3551 0.958 . S
H3566 C3551 0.961 . S
H3567 C3551 0.960 . S
C3568 C3569 1.391 . S
C3568 C3570 1.394 . S
C3568 H3584 0.931 . S
C3569 C3568 1.391 . S
C3569 C3573 1.376 . S
C3570 C3568 1.394 . S
C3570 C3571 1.369 . S
C3570 C3574 1.531 . S
C3571 C3570 1.369 . S
C3571 C3572 1.410 . S
C3571 C3579 1.503 . S
C3572 C3571 1.410 . S
C3572 C3573 1.392 . S
C3572 C3575 1.511 . S
C3573 C3569 1.376 . S
C3573 C3572 1.392 . S
C3573 H3585 0.929 . S
C3574 C3570 1.531 . S
C3574 H3586 0.960 . S
C3574 H3587 0.962 . S
C3574 H3588 0.960 . S
C3575 C3572 1.511 . S
C3575 H3589 0.961 . S
C3575 H3590 0.961 . S
C3575 H3591 0.961 . S
C3576 C3577 1.370 . S
C3576 C3578 1.363 . S
C3576 H3592 0.931 . S
C3577 C3576 1.370 . S
C3577 C3581 1.408 . S
C3578 C3576 1.363 . S
C3578 C3579 1.370 . S
C3578 C3582 1.524 . S
C3579 C3571 1.503 . S
C3579 C3578 1.370 . S
C3579 C3580 1.403 . S
C3580 C3579 1.403 . S
C3580 C3581 1.404 . S
C3580 C3583 1.539 . S
C3581 C3577 1.408 . S
C3581 C3580 1.404 . S
C3581 H3593 0.930 . S
C3582 C3578 1.524 . S
C3582 H3594 0.956 . S
C3582 H3595 0.961 . S
C3582 H3596 0.961 . S
C3583 C3580 1.539 . S
C3583 H3597 0.958 . S
C3583 H3598 0.961 . S
C3583 H3599 0.960 . S
H3584 C3568 0.931 . S
H3585 C3573 0.929 . S
H3586 C3574 0.960 . S
H3587 C3574 0.962 . S
H3588 C3574 0.960 . S
H3589 C3575 0.961 . S
H3590 C3575 0.961 . S
H3591 C3575 0.961 . S
H3592 C3576 0.931 . S
H3593 C3581 0.930 . S
H3594 C3582 0.956 . S
H3595 C3582 0.961 . S
H3596 C3582 0.961 . S
H3597 C3583 0.958 . S
H3598 C3583 0.961 . S
H3599 C3583 0.960 . S
C3600 C3601 1.391 . S
C3600 C3602 1.394 . S
C3600 H3616 0.931 . S
C3601 C3600 1.391 . S
C3601 C3605 1.376 . S
C3602 C3600 1.394 . S
C3602 C3603 1.369 . S
C3602 C3606 1.531 . S
C3603 C3602 1.369 . S
C3603 C3604 1.410 . S
C3603 C3611 1.503 . S
C3604 C3603 1.410 . S
C3604 C3605 1.392 . S
C3604 C3607 1.511 . S
C3605 C3601 1.376 . S
C3605 C3604 1.392 . S
C3605 H3617 0.929 . S
C3606 C3602 1.531 . S
C3606 H3618 0.960 . S
C3606 H3619 0.962 . S
C3606 H3620 0.960 . S
C3607 C3604 1.511 . S
C3607 H3621 0.961 . S
C3607 H3622 0.961 . S
C3607 H3623 0.961 . S
C3608 C3609 1.370 . S
C3608 C3610 1.363 . S
C3608 H3624 0.931 . S
C3609 C3608 1.370 . S
C3609 C3613 1.408 . S
C3610 C3608 1.363 . S
C3610 C3611 1.370 . S
C3610 C3614 1.524 . S
C3611 C3603 1.503 . S
C3611 C3610 1.370 . S
C3611 C3612 1.403 . S
C3612 C3611 1.403 . S
C3612 C3613 1.404 . S
C3612 C3615 1.539 . S
C3613 C3609 1.408 . S
C3613 C3612 1.404 . S
C3613 H3625 0.930 . S
C3614 C3610 1.524 . S
C3614 H3626 0.956 . S
C3614 H3627 0.961 . S
C3614 H3628 0.961 . S
C3615 C3612 1.539 . S
C3615 H3629 0.958 . S
C3615 H3630 0.961 . S
C3615 H3631 0.960 . S
H3616 C3600 0.931 . S
H3617 C3605 0.929 . S
H3618 C3606 0.960 . S
H3619 C3606 0.962 . S
H3620 C3606 0.960 . S
H3621 C3607 0.961 . S
H3622 C3607 0.961 . S
H3623 C3607 0.961 . S
H3624 C3608 0.931 . S
H3625 C3613 0.930 . S
H3626 C3614 0.956 . S
H3627 C3614 0.961 . S
H3628 C3614 0.961 . S
H3629 C3615 0.958 . S
H3630 C3615 0.961 . S
H3631 C3615 0.960 . S
C3632 C3633 1.391 . S
C3632 C3634 1.394 . S
C3632 H3648 0.931 . S
C3633 C3632 1.391 . S
C3633 C3637 1.376 . S
C3634 C3632 1.394 . S
C3634 C3635 1.369 . S
C3634 C3638 1.531 . S
C3635 C3634 1.369 . S
C3635 C3636 1.410 . S
C3635 C3643 1.503 . S
C3636 C3635 1.410 . S
C3636 C3637 1.392 . S
C3636 C3639 1.511 . S
C3637 C3633 1.376 . S
C3637 C3636 1.392 . S
C3637 H3649 0.929 . S
C3638 C3634 1.531 . S
C3638 H3650 0.960 . S
C3638 H3651 0.962 . S
C3638 H3652 0.960 . S
C3639 C3636 1.511 . S
C3639 H3653 0.961 . S
C3639 H3654 0.961 . S
C3639 H3655 0.961 . S
C3640 C3641 1.370 . S
C3640 C3642 1.363 . S
C3640 H3656 0.931 . S
C3641 C3640 1.370 . S
C3641 C3645 1.408 . S
C3642 C3640 1.363 . S
C3642 C3643 1.370 . S
C3642 C3646 1.524 . S
C3643 C3635 1.503 . S
C3643 C3642 1.370 . S
C3643 C3644 1.403 . S
C3644 C3643 1.403 . S
C3644 C3645 1.404 . S
C3644 C3647 1.539 . S
C3645 C3641 1.408 . S
C3645 C3644 1.404 . S
C3645 H3657 0.930 . S
C3646 C3642 1.524 . S
C3646 H3658 0.956 . S
C3646 H3659 0.961 . S
C3646 H3660 0.961 . S
C3647 C3644 1.539 . S
C3647 H3661 0.958 . S
C3647 H3662 0.961 . S
C3647 H3663 0.960 . S
H3648 C3632 0.931 . S
H3649 C3637 0.929 . S
H3650 C3638 0.960 . S
H3651 C3638 0.962 . S
H3652 C3638 0.960 . S
H3653 C3639 0.961 . S
H3654 C3639 0.961 . S
H3655 C3639 0.961 . S
H3656 C3640 0.931 . S
H3657 C3645 0.930 . S
H3658 C3646 0.956 . S
H3659 C3646 0.961 . S
H3660 C3646 0.961 . S
H3661 C3647 0.958 . S
H3662 C3647 0.961 . S
H3663 C3647 0.960 . S
C3664 C3665 1.391 . S
C3664 C3666 1.394 . S
C3664 H3680 0.931 . S
C3665 C3664 1.391 . S
C3665 C3669 1.376 . S
C3666 C3664 1.394 . S
C3666 C3667 1.369 . S
C3666 C3670 1.531 . S
C3667 C3666 1.369 . S
C3667 C3668 1.410 . S
C3667 C3675 1.503 . S
C3668 C3667 1.410 . S
C3668 C3669 1.392 . S
C3668 C3671 1.511 . S
C3669 C3665 1.376 . S
C3669 C3668 1.392 . S
C3669 H3681 0.929 . S
C3670 C3666 1.531 . S
C3670 H3682 0.960 . S
C3670 H3683 0.962 . S
C3670 H3684 0.960 . S
C3671 C3668 1.511 . S
C3671 H3685 0.961 . S
C3671 H3686 0.961 . S
C3671 H3687 0.961 . S
C3672 C3673 1.370 . S
C3672 C3674 1.363 . S
C3672 H3688 0.931 . S
C3673 C3672 1.370 . S
C3673 C3677 1.408 . S
C3674 C3672 1.363 . S
C3674 C3675 1.370 . S
C3674 C3678 1.524 . S
C3675 C3667 1.503 . S
C3675 C3674 1.370 . S
C3675 C3676 1.403 . S
C3676 C3675 1.403 . S
C3676 C3677 1.404 . S
C3676 C3679 1.539 . S
C3677 C3673 1.408 . S
C3677 C3676 1.404 . S
C3677 H3689 0.930 . S
C3678 C3674 1.524 . S
C3678 H3690 0.956 . S
C3678 H3691 0.961 . S
C3678 H3692 0.961 . S
C3679 C3676 1.539 . S
C3679 H3693 0.958 . S
C3679 H3694 0.961 . S
C3679 H3695 0.960 . S
H3680 C3664 0.931 . S
H3681 C3669 0.929 . S
H3682 C3670 0.960 . S
H3683 C3670 0.962 . S
H3684 C3670 0.960 . S
H3685 C3671 0.961 . S
H3686 C3671 0.961 . S
H3687 C3671 0.961 . S
H3688 C3672 0.931 . S
H3689 C3677 0.930 . S
H3690 C3678 0.956 . S
H3691 C3678 0.961 . S
H3692 C3678 0.961 . S
H3693 C3679 0.958 . S
H3694 C3679 0.961 . S
H3695 C3679 0.960 . S
C3696 C3697 1.391 . S
C3696 C3698 1.394 . S
C3696 H3712 0.931 . S
C3697 C3696 1.391 . S
C3697 C3701 1.376 . S
C3698 C3696 1.394 . S
C3698 C3699 1.369 . S
C3698 C3702 1.531 . S
C3699 C3698 1.369 . S
C3699 C3700 1.410 . S
C3699 C3707 1.503 . S
C3700 C3699 1.410 . S
C3700 C3701 1.392 . S
C3700 C3703 1.511 . S
C3701 C3697 1.376 . S
C3701 C3700 1.392 . S
C3701 H3713 0.929 . S
C3702 C3698 1.531 . S
C3702 H3714 0.960 . S
C3702 H3715 0.962 . S
C3702 H3716 0.960 . S
C3703 C3700 1.511 . S
C3703 H3717 0.961 . S
C3703 H3718 0.961 . S
C3703 H3719 0.961 . S
C3704 C3705 1.370 . S
C3704 C3706 1.363 . S
C3704 H3720 0.931 . S
C3705 C3704 1.370 . S
C3705 C3709 1.408 . S
C3706 C3704 1.363 . S
C3706 C3707 1.370 . S
C3706 C3710 1.524 . S
C3707 C3699 1.503 . S
C3707 C3706 1.370 . S
C3707 C3708 1.403 . S
C3708 C3707 1.403 . S
C3708 C3709 1.404 . S
C3708 C3711 1.539 . S
C3709 C3705 1.408 . S
C3709 C3708 1.404 . S
C3709 H3721 0.930 . S
C3710 C3706 1.524 . S
C3710 H3722 0.956 . S
C3710 H3723 0.961 . S
C3710 H3724 0.961 . S
C3711 C3708 1.539 . S
C3711 H3725 0.958 . S
C3711 H3726 0.961 . S
C3711 H3727 0.960 . S
H3712 C3696 0.931 . S
H3713 C3701 0.929 . S
H3714 C3702 0.960 . S
H3715 C3702 0.962 . S
H3716 C3702 0.960 . S
H3717 C3703 0.961 . S
H3718 C3703 0.961 . S
H3719 C3703 0.961 . S
H3720 C3704 0.931 . S
H3721 C3709 0.930 . S
H3722 C3710 0.956 . S
H3723 C3710 0.961 . S
H3724 C3710 0.961 . S
H3725 C3711 0.958 . S
H3726 C3711 0.961 . S
H3727 C3711 0.960 . S
C3728 C3729 1.391 . S
C3728 C3730 1.394 . S
C3728 H3744 0.931 . S
C3729 C3728 1.391 . S
C3729 C3733 1.376 . S
C3730 C3728 1.394 . S
C3730 C3731 1.369 . S
C3730 C3734 1.531 . S
C3731 C3730 1.369 . S
C3731 C3732 1.410 . S
C3731 C3739 1.503 . S
C3732 C3731 1.410 . S
C3732 C3733 1.392 . S
C3732 C3735 1.511 . S
C3733 C3729 1.376 . S
C3733 C3732 1.392 . S
C3733 H3745 0.929 . S
C3734 C3730 1.531 . S
C3734 H3746 0.960 . S
C3734 H3747 0.962 . S
C3734 H3748 0.960 . S
C3735 C3732 1.511 . S
C3735 H3749 0.961 . S
C3735 H3750 0.961 . S
C3735 H3751 0.961 . S
C3736 C3737 1.370 . S
C3736 C3738 1.363 . S
C3736 H3752 0.931 . S
C3737 C3736 1.370 . S
C3737 C3741 1.408 . S
C3738 C3736 1.363 . S
C3738 C3739 1.370 . S
C3738 C3742 1.524 . S
C3739 C3731 1.503 . S
C3739 C3738 1.370 . S
C3739 C3740 1.403 . S
C3740 C3739 1.403 . S
C3740 C3741 1.404 . S
C3740 C3743 1.539 . S
C3741 C3737 1.408 . S
C3741 C3740 1.404 . S
C3741 H3753 0.930 . S
C3742 C3738 1.524 . S
C3742 H3754 0.956 . S
C3742 H3755 0.961 . S
C3742 H3756 0.961 . S
C3743 C3740 1.539 . S
C3743 H3757 0.958 . S
C3743 H3758 0.961 . S
C3743 H3759 0.960 . S
H3744 C3728 0.931 . S
H3745 C3733 0.929 . S
H3746 C3734 0.960 . S
H3747 C3734 0.962 . S
H3748 C3734 0.960 . S
H3749 C3735 0.961 . S
H3750 C3735 0.961 . S
H3751 C3735 0.961 . S
H3752 C3736 0.931 . S
H3753 C3741 0.930 . S
H3754 C3742 0.956 . S
H3755 C3742 0.961 . S
H3756 C3742 0.961 . S
H3757 C3743 0.958 . S
H3758 C3743 0.961 . S
H3759 C3743 0.960 . S
C3760 C3761 1.391 . S
C3760 C3762 1.394 . S
C3760 H3776 0.931 . S
C3761 C3760 1.391 . S
C3761 C3765 1.376 . S
C3762 C3760 1.394 . S
C3762 C3763 1.369 . S
C3762 C3766 1.531 . S
C3763 C3762 1.369 . S
C3763 C3764 1.410 . S
C3763 C3771 1.503 . S
C3764 C3763 1.410 . S
C3764 C3765 1.392 . S
C3764 C3767 1.511 . S
C3765 C3761 1.376 . S
C3765 C3764 1.392 . S
C3765 H3777 0.929 . S
C3766 C3762 1.531 . S
C3766 H3778 0.960 . S
C3766 H3779 0.962 . S
C3766 H3780 0.960 . S
C3767 C3764 1.511 . S
C3767 H3781 0.961 . S
C3767 H3782 0.961 . S
C3767 H3783 0.961 . S
C3768 C3769 1.370 . S
C3768 C3770 1.363 . S
C3768 H3784 0.931 . S
C3769 C3768 1.370 . S
C3769 C3773 1.408 . S
C3770 C3768 1.363 . S
C3770 C3771 1.370 . S
C3770 C3774 1.524 . S
C3771 C3763 1.503 . S
C3771 C3770 1.370 . S
C3771 C3772 1.403 . S
C3772 C3771 1.403 . S
C3772 C3773 1.404 . S
C3772 C3775 1.539 . S
C3773 C3769 1.408 . S
C3773 C3772 1.404 . S
C3773 H3785 0.930 . S
C3774 C3770 1.524 . S
C3774 H3786 0.956 . S
C3774 H3787 0.961 . S
C3774 H3788 0.961 . S
C3775 C3772 1.539 . S
C3775 H3789 0.958 . S
C3775 H3790 0.961 . S
C3775 H3791 0.960 . S
H3776 C3760 0.931 . S
H3777 C3765 0.929 . S
H3778 C3766 0.960 . S
H3779 C3766 0.962 . S
H3780 C3766 0.960 . S
H3781 C3767 0.961 . S
H3782 C3767 0.961 . S
H3783 C3767 0.961 . S
H3784 C3768 0.931 . S
H3785 C3773 0.930 . S
H3786 C3774 0.956 . S
H3787 C3774 0.961 . S
H3788 C3774 0.961 . S
H3789 C3775 0.958 . S
H3790 C3775 0.961 . S
H3791 C3775 0.960 . S
C3792 C3793 1.391 . S
C3792 C3794 1.394 . S
C3792 H3808 0.931 . S
C3793 C3792 1.391 . S
C3793 C3797 1.376 . S
C3794 C3792 1.394 . S
C3794 C3795 1.369 . S
C3794 C3798 1.531 . S
C3795 C3794 1.369 . S
C3795 C3796 1.410 . S
C3795 C3803 1.503 . S
C3796 C3795 1.410 . S
C3796 C3797 1.392 . S
C3796 C3799 1.511 . S
C3797 C3793 1.376 . S
C3797 C3796 1.392 . S
C3797 H3809 0.929 1_565 S
C3798 C3794 1.531 . S
C3798 H3810 0.960 . S
C3798 H3811 0.962 . S
C3798 H3812 0.960 . S
C3799 C3796 1.511 . S
C3799 H3813 0.961 . S
C3799 H3814 0.961 . S
C3799 H3815 0.961 . S
C3800 C3801 1.370 . S
C3800 C3802 1.363 . S
C3800 H3816 0.931 . S
C3801 C3800 1.370 . S
C3801 C3805 1.408 . S
C3802 C3800 1.363 . S
C3802 C3803 1.370 . S
C3802 C3806 1.524 . S
C3803 C3795 1.503 . S
C3803 C3802 1.370 . S
C3803 C3804 1.403 . S
C3804 C3803 1.403 . S
C3804 C3805 1.404 . S
C3804 C3807 1.539 . S
C3805 C3801 1.408 . S
C3805 C3804 1.404 . S
C3805 H3817 0.930 . S
C3806 C3802 1.524 . S
C3806 H3818 0.956 . S
C3806 H3819 0.961 . S
C3806 H3820 0.961 . S
C3807 C3804 1.539 . S
C3807 H3821 0.958 . S
C3807 H3822 0.961 . S
C3807 H3823 0.960 . S
H3808 C3792 0.931 . S
H3809 C3797 0.929 1_545 S
H3810 C3798 0.960 . S
H3811 C3798 0.962 . S
H3812 C3798 0.960 . S
H3813 C3799 0.961 . S
H3814 C3799 0.961 . S
H3815 C3799 0.961 . S
H3816 C3800 0.931 . S
H3817 C3805 0.930 . S
H3818 C3806 0.956 . S
H3819 C3806 0.961 . S
H3820 C3806 0.961 . S
H3821 C3807 0.958 . S
H3822 C3807 0.961 . S
H3823 C3807 0.960 . S
C3824 C3825 1.391 1_556 S
C3824 C3826 1.394 . S
C3824 H3840 0.931 . S
C3825 C3824 1.391 1_554 S
C3825 C3829 1.376 . S
C3826 C3824 1.394 . S
C3826 C3827 1.369 1_556 S
C3826 C3830 1.531 . S
C3827 C3826 1.369 1_554 S
C3827 C3828 1.410 . S
C3827 C3835 1.503 . S
C3828 C3827 1.410 . S
C3828 C3829 1.392 . S
C3828 C3831 1.511 1_565 S
C3829 C3825 1.376 . S
C3829 C3828 1.392 . S
C3829 H3841 0.929 . S
C3830 C3826 1.531 . S
C3830 H3842 0.960 . S
C3830 H3843 0.962 1_556 S
C3830 H3844 0.960 . S
C3831 C3828 1.511 1_545 S
C3831 H3845 0.961 . S
C3831 H3846 0.961 . S
C3831 H3847 0.961 1_554 S
C3832 C3833 1.370 . S
C3832 C3834 1.363 1_545 S
C3832 H3848 0.931 . S
C3833 C3832 1.370 . S
C3833 C3837 1.408 1_554 S
C3834 C3832 1.363 1_565 S
C3834 C3835 1.370 . S
C3834 C3838 1.524 . S
C3835 C3827 1.503 . S
C3835 C3834 1.370 . S
C3835 C3836 1.413 1_554 S
C3836 C3835 1.413 1_556 S
C3836 C3837 1.397 1_565 S
C3836 C3839 1.534 . S
C3837 C3833 1.408 1_556 S
C3837 C3836 1.397 1_545 S
C3837 H3849 0.930 . S
C3838 C3834 1.524 . S
C3838 H3850 0.956 . S
C3838 H3851 0.961 . S
C3838 H3852 0.961 . S
C3839 C3836 1.534 . S
C3839 H3853 0.958 . S
C3839 H3854 0.961 1_565 S
C3839 H3855 0.960 . S
H3840 C3824 0.931 . S
H3841 C3829 0.929 . S
H3842 C3830 0.960 . S
H3843 C3830 0.962 1_554 S
H3844 C3830 0.960 . S
H3845 C3831 0.961 . S
H3846 C3831 0.961 . S
H3847 C3831 0.961 1_556 S
H3848 C3832 0.931 . S
H3849 C3837 0.930 . S
H3850 C3838 0.956 . S
H3851 C3838 0.961 . S
H3852 C3838 0.961 . S
H3853 C3839 0.958 . S
H3854 C3839 0.961 1_545 S
H3855 C3839 0.960 . S
C3856 C3857 1.391 . S
C3856 C3858 1.394 . S
C3856 H3872 0.931 . S
C3857 C3856 1.391 . S
C3857 C3861 1.376 . S
C3858 C3856 1.394 . S
C3858 C3859 1.369 . S
C3858 C3862 1.531 . S
C3859 C3858 1.369 . S
C3859 C3860 1.410 . S
C3859 C3867 1.503 . S
C3860 C3859 1.410 . S
C3860 C3861 1.392 . S
C3860 C3863 1.511 . S
C3861 C3857 1.376 . S
C3861 C3860 1.392 . S
C3861 H3873 0.929 . S
C3862 C3858 1.531 . S
C3862 H3874 0.960 . S
C3862 H3875 0.962 . S
C3862 H3876 0.960 . S
C3863 C3860 1.511 . S
C3863 H3877 0.961 . S
C3863 H3878 0.961 . S
C3863 H3879 0.961 . S
C3864 C3865 1.370 . S
C3864 C3866 1.363 . S
C3864 H3880 0.931 . S
C3865 C3864 1.370 . S
C3865 C3869 1.408 . S
C3866 C3864 1.363 . S
C3866 C3867 1.370 . S
C3866 C3870 1.524 . S
C3867 C3859 1.503 . S
C3867 C3866 1.370 . S
C3867 C3868 1.403 . S
C3868 C3867 1.403 . S
C3868 C3869 1.404 . S
C3868 C3871 1.539 . S
C3869 C3865 1.408 . S
C3869 C3868 1.404 . S
C3869 H3881 0.930 . S
C3870 C3866 1.524 . S
C3870 H3882 0.956 . S
C3870 H3883 0.961 . S
C3870 H3884 0.961 . S
C3871 C3868 1.539 . S
C3871 H3885 0.958 . S
C3871 H3886 0.961 . S
C3871 H3887 0.960 . S
H3872 C3856 0.931 . S
H3873 C3861 0.929 . S
H3874 C3862 0.960 . S
H3875 C3862 0.962 . S
H3876 C3862 0.960 . S
H3877 C3863 0.961 . S
H3878 C3863 0.961 . S
H3879 C3863 0.961 . S
H3880 C3864 0.931 . S
H3881 C3869 0.930 . S
H3882 C3870 0.956 . S
H3883 C3870 0.961 . S
H3884 C3870 0.961 . S
H3885 C3871 0.958 . S
H3886 C3871 0.961 . S
H3887 C3871 0.960 . S
C3888 C3889 1.391 . S
C3888 C3890 1.394 . S
C3888 H3904 0.931 . S
C3889 C3888 1.391 . S
C3889 C3893 1.376 . S
C3890 C3888 1.394 . S
C3890 C3891 1.369 . S
C3890 C3894 1.531 . S
C3891 C3890 1.369 . S
C3891 C3892 1.410 . S
C3891 C3899 1.503 . S
C3892 C3891 1.410 . S
C3892 C3893 1.392 . S
C3892 C3895 1.511 . S
C3893 C3889 1.376 . S
C3893 C3892 1.392 . S
C3893 H3905 0.929 . S
C3894 C3890 1.531 . S
C3894 H3906 0.960 . S
C3894 H3907 0.962 . S
C3894 H3908 0.960 1_554 S
C3895 C3892 1.511 . S
C3895 H3909 0.961 . S
C3895 H3910 0.961 . S
C3895 H3911 0.961 . S
C3896 C3897 1.370 . S
C3896 C3898 1.363 . S
C3896 H3912 0.931 . S
C3897 C3896 1.370 . S
C3897 C3901 1.408 . S
C3898 C3896 1.363 . S
C3898 C3899 1.370 . S
C3898 C3902 1.524 . S
C3899 C3891 1.503 . S
C3899 C3898 1.370 . S
C3899 C3900 1.403 . S
C3900 C3899 1.403 . S
C3900 C3901 1.404 . S
C3900 C3903 1.539 1_554 S
C3901 C3897 1.408 . S
C3901 C3900 1.404 . S
C3901 H3913 0.930 1_554 S
C3902 C3898 1.524 . S
C3902 H3914 0.956 . S
C3902 H3915 0.961 . S
C3902 H3916 0.961 . S
C3903 C3900 1.539 1_556 S
C3903 H3917 0.958 . S
C3903 H3918 0.961 . S
C3903 H3919 0.960 . S
H3904 C3888 0.931 . S
H3905 C3893 0.929 . S
H3906 C3894 0.960 . S
H3907 C3894 0.962 . S
H3908 C3894 0.960 1_556 S
H3909 C3895 0.961 . S
H3910 C3895 0.961 . S
H3911 C3895 0.961 . S
H3912 C3896 0.931 . S
H3913 C3901 0.930 1_556 S
H3914 C3902 0.956 . S
H3915 C3902 0.961 . S
H3916 C3902 0.961 . S
H3917 C3903 0.958 . S
H3918 C3903 0.961 . S
H3919 C3903 0.960 . S
C3920 C3921 1.391 . S
C3920 C3922 1.394 . S
C3920 H3936 0.931 . S
C3921 C3920 1.391 . S
C3921 C3925 1.376 . S
C3922 C3920 1.394 . S
C3922 C3923 1.369 . S
C3922 C3926 1.531 . S
C3923 C3922 1.369 . S
C3923 C3924 1.410 . S
C3923 C3931 1.503 . S
C3924 C3923 1.410 . S
C3924 C3925 1.392 . S
C3924 C3927 1.511 . S
C3925 C3921 1.376 . S
C3925 C3924 1.392 . S
C3925 H3937 0.929 . S
C3926 C3922 1.531 . S
C3926 H3938 0.960 . S
C3926 H3939 0.962 . S
C3926 H3940 0.960 . S
C3927 C3924 1.511 . S
C3927 H3941 0.961 . S
C3927 H3942 0.961 . S
C3927 H3943 0.961 . S
C3928 C3929 1.370 . S
C3928 C3930 1.363 . S
C3928 H3944 0.931 . S
C3929 C3928 1.370 . S
C3929 C3933 1.408 . S
C3930 C3928 1.363 . S
C3930 C3931 1.370 . S
C3930 C3934 1.524 . S
C3931 C3923 1.503 . S
C3931 C3930 1.370 . S
C3931 C3932 1.403 . S
C3932 C3931 1.403 . S
C3932 C3933 1.404 . S
C3932 C3935 1.539 . S
C3933 C3929 1.408 . S
C3933 C3932 1.404 . S
C3933 H3945 0.930 . S
C3934 C3930 1.524 . S
C3934 H3946 0.956 . S
C3934 H3947 0.961 . S
C3934 H3948 0.961 . S
C3935 C3932 1.539 . S
C3935 H3949 0.958 . S
C3935 H3950 0.961 . S
C3935 H3951 0.960 . S
H3936 C3920 0.931 . S
H3937 C3925 0.929 . S
H3938 C3926 0.960 . S
H3939 C3926 0.962 . S
H3940 C3926 0.960 . S
H3941 C3927 0.961 . S
H3942 C3927 0.961 . S
H3943 C3927 0.961 . S
H3944 C3928 0.931 . S
H3945 C3933 0.930 . S
H3946 C3934 0.956 . S
H3947 C3934 0.961 . S
H3948 C3934 0.961 . S
H3949 C3935 0.958 . S
H3950 C3935 0.961 . S
H3951 C3935 0.960 . S
C3952 C3953 1.391 . S
C3952 C3954 1.394 . S
C3952 H3968 0.931 . S
C3953 C3952 1.391 . S
C3953 C3957 1.376 . S
C3954 C3952 1.394 . S
C3954 C3955 1.369 . S
C3954 C3958 1.531 . S
C3955 C3954 1.369 . S
C3955 C3956 1.410 . S
C3955 C3963 1.503 . S
C3956 C3955 1.410 . S
C3956 C3957 1.392 . S
C3956 C3959 1.511 . S
C3957 C3953 1.376 . S
C3957 C3956 1.392 . S
C3957 H3969 0.929 . S
C3958 C3954 1.531 . S
C3958 H3970 0.960 . S
C3958 H3971 0.962 . S
C3958 H3972 0.960 . S
C3959 C3956 1.511 . S
C3959 H3973 0.961 . S
C3959 H3974 0.961 . S
C3959 H3975 0.961 . S
C3960 C3961 1.370 . S
C3960 C3962 1.363 . S
C3960 H3976 0.931 . S
C3961 C3960 1.370 . S
C3961 C3965 1.408 . S
C3962 C3960 1.363 . S
C3962 C3963 1.370 . S
C3962 C3966 1.524 . S
C3963 C3955 1.503 . S
C3963 C3962 1.370 . S
C3963 C3964 1.403 . S
C3964 C3963 1.403 . S
C3964 C3965 1.404 . S
C3964 C3967 1.539 . S
C3965 C3961 1.408 . S
C3965 C3964 1.404 . S
C3965 H3977 0.930 . S
C3966 C3962 1.524 . S
C3966 H3978 0.956 . S
C3966 H3979 0.961 . S
C3966 H3980 0.961 . S
C3967 C3964 1.539 . S
C3967 H3981 0.958 . S
C3967 H3982 0.961 . S
C3967 H3983 0.960 . S
H3968 C3952 0.931 . S
H3969 C3957 0.929 . S
H3970 C3958 0.960 . S
H3971 C3958 0.962 . S
H3972 C3958 0.960 . S
H3973 C3959 0.961 . S
H3974 C3959 0.961 . S
H3975 C3959 0.961 . S
H3976 C3960 0.931 . S
H3977 C3965 0.930 . S
H3978 C3966 0.956 . S
H3979 C3966 0.961 . S
H3980 C3966 0.961 . S
H3981 C3967 0.958 . S
H3982 C3967 0.961 . S
H3983 C3967 0.960 . S
C3984 C3985 1.391 . S
C3984 C3986 1.394 . S
C3984 H4000 0.931 . S
C3985 C3984 1.391 . S
C3985 C3989 1.376 . S
C3986 C3984 1.394 . S
C3986 C3987 1.369 . S
C3986 C3990 1.531 . S
C3987 C3986 1.369 . S
C3987 C3988 1.410 . S
C3987 C3995 1.503 . S
C3988 C3987 1.410 . S
C3988 C3989 1.392 . S
C3988 C3991 1.511 . S
C3989 C3985 1.376 . S
C3989 C3988 1.392 . S
C3989 H4001 0.929 . S
C3990 C3986 1.531 . S
C3990 H4002 0.960 . S
C3990 H4003 0.962 . S
C3990 H4004 0.960 . S
C3991 C3988 1.511 . S
C3991 H4005 0.961 . S
C3991 H4006 0.961 . S
C3991 H4007 0.961 . S
C3992 C3993 1.370 . S
C3992 C3994 1.363 . S
C3992 H4008 0.931 . S
C3993 C3992 1.370 . S
C3993 C3997 1.408 . S
C3994 C3992 1.363 . S
C3994 C3995 1.370 . S
C3994 C3998 1.524 . S
C3995 C3987 1.503 . S
C3995 C3994 1.370 . S
C3995 C3996 1.403 . S
C3996 C3995 1.403 . S
C3996 C3997 1.404 . S
C3996 C3999 1.539 . S
C3997 C3993 1.408 . S
C3997 C3996 1.404 . S
C3997 H4009 0.930 . S
C3998 C3994 1.524 . S
C3998 H4010 0.956 . S
C3998 H4011 0.961 . S
C3998 H4012 0.961 . S
C3999 C3996 1.539 . S
C3999 H4013 0.958 . S
C3999 H4014 0.961 . S
C3999 H4015 0.960 . S
H4000 C3984 0.931 . S
H4001 C3989 0.929 . S
H4002 C3990 0.960 . S
H4003 C3990 0.962 . S
H4004 C3990 0.960 . S
H4005 C3991 0.961 . S
H4006 C3991 0.961 . S
H4007 C3991 0.961 . S
H4008 C3992 0.931 . S
H4009 C3997 0.930 . S
H4010 C3998 0.956 . S
H4011 C3998 0.961 . S
H4012 C3998 0.961 . S
H4013 C3999 0.958 . S
H4014 C3999 0.961 . S
H4015 C3999 0.960 . S
C4016 C4017 1.391 . S
C4016 C4018 1.394 . S
C4016 H4032 0.931 . S
C4017 C4016 1.391 . S
C4017 C4021 1.376 . S
C4018 C4016 1.394 . S
C4018 C4019 1.369 . S
C4018 C4022 1.531 . S
C4019 C4018 1.369 . S
C4019 C4020 1.410 . S
C4019 C4027 1.503 . S
C4020 C4019 1.410 . S
C4020 C4021 1.392 . S
C4020 C4023 1.511 . S
C4021 C4017 1.376 . S
C4021 C4020 1.392 . S
C4021 H4033 0.929 . S
C4022 C4018 1.531 . S
C4022 H4034 0.960 . S
C4022 H4035 0.962 . S
C4022 H4036 0.960 . S
C4023 C4020 1.511 . S
C4023 H4037 0.961 . S
C4023 H4038 0.961 . S
C4023 H4039 0.961 . S
C4024 C4025 1.370 . S
C4024 C4026 1.363 . S
C4024 H4040 0.931 . S
C4025 C4024 1.370 . S
C4025 C4029 1.408 . S
C4026 C4024 1.363 . S
C4026 C4027 1.370 . S
C4026 C4030 1.524 . S
C4027 C4019 1.503 . S
C4027 C4026 1.370 . S
C4027 C4028 1.403 . S
C4028 C4027 1.403 . S
C4028 C4029 1.404 . S
C4028 C4031 1.539 . S
C4029 C4025 1.408 . S
C4029 C4028 1.404 . S
C4029 H4041 0.930 . S
C4030 C4026 1.524 . S
C4030 H4042 0.956 . S
C4030 H4043 0.961 . S
C4030 H4044 0.961 . S
C4031 C4028 1.539 . S
C4031 H4045 0.958 . S
C4031 H4046 0.961 . S
C4031 H4047 0.960 . S
H4032 C4016 0.931 . S
H4033 C4021 0.929 . S
H4034 C4022 0.960 . S
H4035 C4022 0.962 . S
H4036 C4022 0.960 . S
H4037 C4023 0.961 . S
H4038 C4023 0.961 . S
H4039 C4023 0.961 . S
H4040 C4024 0.931 . S
H4041 C4029 0.930 . S
H4042 C4030 0.956 . S
H4043 C4030 0.961 . S
H4044 C4030 0.961 . S
H4045 C4031 0.958 . S
H4046 C4031 0.961 . S
H4047 C4031 0.960 . S
C4048 C4049 1.391 . S
C4048 C4050 1.394 . S
C4048 H4064 0.931 . S
C4049 C4048 1.391 . S
C4049 C4053 1.376 . S
C4050 C4048 1.394 . S
C4050 C4051 1.369 . S
C4050 C4054 1.531 . S
C4051 C4050 1.369 . S
C4051 C4052 1.410 . S
C4051 C4059 1.503 . S
C4052 C4051 1.410 . S
C4052 C4053 1.392 . S
C4052 C4055 1.511 . S
C4053 C4049 1.376 . S
C4053 C4052 1.392 . S
C4053 H4065 0.929 . S
C4054 C4050 1.531 . S
C4054 H4066 0.960 . S
C4054 H4067 0.962 1_455 S
C4054 H4068 0.960 . S
C4055 C4052 1.511 . S
C4055 H4069 0.961 . S
C4055 H4070 0.961 . S
C4055 H4071 0.961 . S
C4056 C4057 1.370 . S
C4056 C4058 1.363 . S
C4056 H4072 0.931 . S
C4057 C4056 1.370 . S
C4057 C4061 1.408 . S
C4058 C4056 1.363 . S
C4058 C4059 1.370 . S
C4058 C4062 1.524 . S
C4059 C4051 1.503 . S
C4059 C4058 1.370 . S
C4059 C4060 1.403 . S
C4060 C4059 1.403 . S
C4060 C4061 1.404 . S
C4060 C4063 1.539 . S
C4061 C4057 1.408 . S
C4061 C4060 1.404 . S
C4061 H4073 0.930 . S
C4062 C4058 1.524 . S
C4062 H4074 0.956 . S
C4062 H4075 0.961 . S
C4062 H4076 0.961 . S
C4063 C4060 1.539 . S
C4063 H4077 0.958 . S
C4063 H4078 0.961 . S
C4063 H4079 0.960 . S
H4064 C4048 0.931 . S
H4065 C4053 0.929 . S
H4066 C4054 0.960 . S
H4067 C4054 0.962 1_655 S
H4068 C4054 0.960 . S
H4069 C4055 0.961 . S
H4070 C4055 0.961 . S
H4071 C4055 0.961 . S
H4072 C4056 0.931 . S
H4073 C4061 0.930 . S
H4074 C4062 0.956 . S
H4075 C4062 0.961 . S
H4076 C4062 0.961 . S
H4077 C4063 0.958 . S
H4078 C4063 0.961 . S
H4079 C4063 0.960 . S
C4080 C4081 1.391 . S
C4080 C4082 1.394 . S
C4080 H4096 0.931 . S
C4081 C4080 1.391 . S
C4081 C4085 1.376 . S
C4082 C4080 1.394 . S
C4082 C4083 1.369 . S
C4082 C4086 1.531 . S
C4083 C4082 1.369 . S
C4083 C4084 1.410 . S
C4083 C4091 1.503 . S
C4084 C4083 1.410 . S
C4084 C4085 1.392 . S
C4084 C4087 1.511 . S
C4085 C4081 1.376 . S
C4085 C4084 1.392 . S
C4085 H4097 0.929 . S
C4086 C4082 1.531 . S
C4086 H4098 0.960 . S
C4086 H4099 0.962 . S
C4086 H4100 0.960 . S
C4087 C4084 1.511 . S
C4087 H4101 0.961 . S
C4087 H4102 0.961 . S
C4087 H4103 0.961 . S
C4088 C4089 1.370 . S
C4088 C4090 1.363 . S
C4088 H4104 0.931 . S
C4089 C4088 1.370 . S
C4089 C4093 1.408 . S
C4090 C4088 1.363 . S
C4090 C4091 1.370 . S
C4090 C4094 1.524 . S
C4091 C4083 1.503 . S
C4091 C4090 1.370 . S
C4091 C4092 1.403 . S
C4092 C4091 1.403 . S
C4092 C4093 1.404 . S
C4092 C4095 1.539 . S
C4093 C4089 1.408 . S
C4093 C4092 1.404 . S
C4093 H4105 0.930 . S
C4094 C4090 1.524 . S
C4094 H4106 0.956 . S
C4094 H4107 0.961 . S
C4094 H4108 0.961 . S
C4095 C4092 1.539 . S
C4095 H4109 0.958 . S
C4095 H4110 0.961 . S
C4095 H4111 0.960 . S
H4096 C4080 0.931 . S
H4097 C4085 0.929 . S
H4098 C4086 0.960 . S
H4099 C4086 0.962 . S
H4100 C4086 0.960 . S
H4101 C4087 0.961 . S
H4102 C4087 0.961 . S
H4103 C4087 0.961 . S
H4104 C4088 0.931 . S
H4105 C4093 0.930 . S
H4106 C4094 0.956 . S
H4107 C4094 0.961 . S
H4108 C4094 0.961 . S
H4109 C4095 0.958 . S
H4110 C4095 0.961 . S
H4111 C4095 0.960 . S
C4112 C4113 1.391 . S
C4112 C4114 1.394 . S
C4112 H4128 0.931 . S
C4113 C4112 1.391 . S
C4113 C4117 1.376 . S
C4114 C4112 1.394 . S
C4114 C4115 1.369 . S
C4114 C4118 1.531 . S
C4115 C4114 1.369 . S
C4115 C4116 1.410 . S
C4115 C4123 1.503 . S
C4116 C4115 1.410 . S
C4116 C4117 1.392 . S
C4116 C4119 1.511 . S
C4117 C4113 1.376 . S
C4117 C4116 1.392 . S
C4117 H4129 0.929 . S
C4118 C4114 1.531 . S
C4118 H4130 0.960 . S
C4118 H4131 0.962 . S
C4118 H4132 0.960 . S
C4119 C4116 1.511 . S
C4119 H4133 0.961 . S
C4119 H4134 0.961 . S
C4119 H4135 0.961 . S
C4120 C4121 1.370 . S
C4120 C4122 1.363 . S
C4120 H4136 0.931 . S
C4121 C4120 1.370 . S
C4121 C4125 1.408 . S
C4122 C4120 1.363 . S
C4122 C4123 1.370 . S
C4122 C4126 1.524 . S
C4123 C4115 1.503 . S
C4123 C4122 1.370 . S
C4123 C4124 1.403 . S
C4124 C4123 1.403 . S
C4124 C4125 1.404 . S
C4124 C4127 1.539 . S
C4125 C4121 1.408 . S
C4125 C4124 1.404 . S
C4125 H4137 0.930 . S
C4126 C4122 1.524 . S
C4126 H4138 0.956 . S
C4126 H4139 0.961 . S
C4126 H4140 0.961 . S
C4127 C4124 1.539 . S
C4127 H4141 0.958 . S
C4127 H4142 0.961 . S
C4127 H4143 0.960 . S
H4128 C4112 0.931 . S
H4129 C4117 0.929 . S
H4130 C4118 0.960 . S
H4131 C4118 0.962 . S
H4132 C4118 0.960 . S
H4133 C4119 0.961 . S
H4134 C4119 0.961 . S
H4135 C4119 0.961 . S
H4136 C4120 0.931 . S
H4137 C4125 0.930 . S
H4138 C4126 0.956 . S
H4139 C4126 0.961 . S
H4140 C4126 0.961 . S
H4141 C4127 0.958 . S
H4142 C4127 0.961 . S
H4143 C4127 0.960 . S
C4144 C4145 1.391 . S
C4144 C4146 1.394 . S
C4144 H4160 0.931 . S
C4145 C4144 1.391 . S
C4145 C4149 1.376 . S
C4146 C4144 1.394 . S
C4146 C4147 1.369 . S
C4146 C4150 1.531 . S
C4147 C4146 1.369 . S
C4147 C4148 1.410 . S
C4147 C4155 1.503 . S
C4148 C4147 1.410 . S
C4148 C4149 1.392 . S
C4148 C4151 1.511 . S
C4149 C4145 1.376 . S
C4149 C4148 1.392 . S
C4149 H4161 0.929 . S
C4150 C4146 1.531 . S
C4150 H4162 0.960 . S
C4150 H4163 0.962 . S
C4150 H4164 0.960 . S
C4151 C4148 1.511 . S
C4151 H4165 0.961 . S
C4151 H4166 0.961 . S
C4151 H4167 0.961 . S
C4152 C4153 1.370 . S
C4152 C4154 1.363 . S
C4152 H4168 0.931 . S
C4153 C4152 1.370 . S
C4153 C4157 1.408 . S
C4154 C4152 1.363 . S
C4154 C4155 1.370 . S
C4154 C4158 1.524 . S
C4155 C4147 1.503 . S
C4155 C4154 1.370 . S
C4155 C4156 1.403 . S
C4156 C4155 1.403 . S
C4156 C4157 1.404 . S
C4156 C4159 1.539 . S
C4157 C4153 1.408 . S
C4157 C4156 1.404 . S
C4157 H4169 0.930 . S
C4158 C4154 1.524 . S
C4158 H4170 0.956 . S
C4158 H4171 0.961 . S
C4158 H4172 0.961 . S
C4159 C4156 1.539 . S
C4159 H4173 0.958 . S
C4159 H4174 0.961 . S
C4159 H4175 0.960 . S
H4160 C4144 0.931 . S
H4161 C4149 0.929 . S
H4162 C4150 0.960 . S
H4163 C4150 0.962 . S
H4164 C4150 0.960 . S
H4165 C4151 0.961 . S
H4166 C4151 0.961 . S
H4167 C4151 0.961 . S
H4168 C4152 0.931 . S
H4169 C4157 0.930 . S
H4170 C4158 0.956 . S
H4171 C4158 0.961 . S
H4172 C4158 0.961 . S
H4173 C4159 0.958 . S
H4174 C4159 0.961 . S
H4175 C4159 0.960 . S
C4176 C4177 1.391 . S
C4176 C4178 1.394 . S
C4176 H4192 0.931 . S
C4177 C4176 1.391 . S
C4177 C4181 1.376 . S
C4178 C4176 1.394 . S
C4178 C4179 1.369 . S
C4178 C4182 1.531 . S
C4179 C4178 1.369 . S
C4179 C4180 1.410 . S
C4179 C4187 1.503 . S
C4180 C4179 1.410 . S
C4180 C4181 1.392 . S
C4180 C4183 1.511 . S
C4181 C4177 1.376 . S
C4181 C4180 1.392 . S
C4181 H4193 0.929 . S
C4182 C4178 1.531 . S
C4182 H4194 0.960 . S
C4182 H4195 0.962 . S
C4182 H4196 0.960 . S
C4183 C4180 1.511 . S
C4183 H4197 0.961 . S
C4183 H4198 0.961 . S
C4183 H4199 0.961 . S
C4184 C4185 1.370 . S
C4184 C4186 1.363 . S
C4184 H4200 0.931 . S
C4185 C4184 1.370 . S
C4185 C4189 1.408 . S
C4186 C4184 1.363 . S
C4186 C4187 1.370 . S
C4186 C4190 1.524 . S
C4187 C4179 1.503 . S
C4187 C4186 1.370 . S
C4187 C4188 1.403 . S
C4188 C4187 1.403 . S
C4188 C4189 1.404 . S
C4188 C4191 1.539 . S
C4189 C4185 1.408 . S
C4189 C4188 1.404 . S
C4189 H4201 0.930 . S
C4190 C4186 1.524 . S
C4190 H4202 0.956 1_455 S
C4190 H4203 0.961 . S
C4190 H4204 0.961 1_455 S
C4191 C4188 1.539 . S
C4191 H4205 0.958 . S
C4191 H4206 0.961 . S
C4191 H4207 0.960 . S
H4192 C4176 0.931 . S
H4193 C4181 0.929 . S
H4194 C4182 0.960 . S
H4195 C4182 0.962 . S
H4196 C4182 0.960 . S
H4197 C4183 0.961 . S
H4198 C4183 0.961 . S
H4199 C4183 0.961 . S
H4200 C4184 0.931 . S
H4201 C4189 0.930 . S
H4202 C4190 0.956 1_655 S
H4203 C4190 0.961 . S
H4204 C4190 0.961 1_655 S
H4205 C4191 0.958 . S
H4206 C4191 0.961 . S
H4207 C4191 0.960 . S
C4208 C4209 1.391 . S
C4208 C4210 1.394 . S
C4208 H4224 0.931 . S
C4209 C4208 1.391 . S
C4209 C4213 1.376 . S
C4210 C4208 1.394 . S
C4210 C4211 1.369 . S
C4210 C4214 1.531 . S
C4211 C4210 1.369 . S
C4211 C4212 1.410 . S
C4211 C4219 1.503 . S
C4212 C4211 1.410 . S
C4212 C4213 1.392 . S
C4212 C4215 1.511 . S
C4213 C4209 1.376 . S
C4213 C4212 1.392 . S
C4213 H4225 0.929 . S
C4214 C4210 1.531 . S
C4214 H4226 0.960 . S
C4214 H4227 0.962 . S
C4214 H4228 0.960 . S
C4215 C4212 1.511 . S
C4215 H4229 0.961 . S
C4215 H4230 0.961 . S
C4215 H4231 0.961 . S
C4216 C4217 1.370 . S
C4216 C4218 1.363 . S
C4216 H4232 0.931 . S
C4217 C4216 1.370 . S
C4217 C4221 1.408 . S
C4218 C4216 1.363 . S
C4218 C4219 1.370 . S
C4218 C4222 1.524 . S
C4219 C4211 1.503 . S
C4219 C4218 1.370 . S
C4219 C4220 1.403 . S
C4220 C4219 1.403 . S
C4220 C4221 1.404 . S
C4220 C4223 1.539 . S
C4221 C4217 1.408 . S
C4221 C4220 1.404 . S
C4221 H4233 0.930 . S
C4222 C4218 1.524 . S
C4222 H4234 0.956 . S
C4222 H4235 0.961 . S
C4222 H4236 0.961 . S
C4223 C4220 1.539 . S
C4223 H4237 0.958 . S
C4223 H4238 0.961 . S
C4223 H4239 0.960 . S
H4224 C4208 0.931 . S
H4225 C4213 0.929 . S
H4226 C4214 0.960 . S
H4227 C4214 0.962 . S
H4228 C4214 0.960 . S
H4229 C4215 0.961 . S
H4230 C4215 0.961 . S
H4231 C4215 0.961 . S
H4232 C4216 0.931 . S
H4233 C4221 0.930 . S
H4234 C4222 0.956 . S
H4235 C4222 0.961 . S
H4236 C4222 0.961 . S
H4237 C4223 0.958 . S
H4238 C4223 0.961 . S
H4239 C4223 0.960 . S
C4240 C4241 1.391 . S
C4240 C4242 1.394 . S
C4240 H4256 0.931 . S
C4241 C4240 1.391 . S
C4241 C4245 1.376 . S
C4242 C4240 1.394 . S
C4242 C4243 1.369 . S
C4242 C4246 1.531 . S
C4243 C4242 1.369 . S
C4243 C4244 1.410 . S
C4243 C4251 1.503 . S
C4244 C4243 1.410 . S
C4244 C4245 1.392 . S
C4244 C4247 1.511 . S
C4245 C4241 1.376 . S
C4245 C4244 1.392 . S
C4245 H4257 0.929 . S
C4246 C4242 1.531 . S
C4246 H4258 0.960 . S
C4246 H4259 0.962 . S
C4246 H4260 0.960 . S
C4247 C4244 1.511 . S
C4247 H4261 0.961 . S
C4247 H4262 0.961 . S
C4247 H4263 0.961 . S
C4248 C4249 1.370 . S
C4248 C4250 1.363 . S
C4248 H4264 0.931 . S
C4249 C4248 1.370 . S
C4249 C4253 1.408 . S
C4250 C4248 1.363 . S
C4250 C4251 1.370 . S
C4250 C4254 1.524 . S
C4251 C4243 1.503 . S
C4251 C4250 1.370 . S
C4251 C4252 1.403 . S
C4252 C4251 1.403 . S
C4252 C4253 1.404 . S
C4252 C4255 1.539 . S
C4253 C4249 1.408 . S
C4253 C4252 1.404 . S
C4253 H4265 0.930 . S
C4254 C4250 1.524 . S
C4254 H4266 0.956 . S
C4254 H4267 0.961 . S
C4254 H4268 0.961 . S
C4255 C4252 1.539 . S
C4255 H4269 0.958 . S
C4255 H4270 0.961 . S
C4255 H4271 0.960 . S
H4256 C4240 0.931 . S
H4257 C4245 0.929 . S
H4258 C4246 0.960 . S
H4259 C4246 0.962 . S
H4260 C4246 0.960 . S
H4261 C4247 0.961 . S
H4262 C4247 0.961 . S
H4263 C4247 0.961 . S
H4264 C4248 0.931 . S
H4265 C4253 0.930 . S
H4266 C4254 0.956 . S
H4267 C4254 0.961 . S
H4268 C4254 0.961 . S
H4269 C4255 0.958 . S
H4270 C4255 0.961 . S
H4271 C4255 0.960 . S
C4272 C4273 1.391 . S
C4272 C4274 1.394 . S
C4272 H4288 0.931 . S
C4273 C4272 1.391 . S
C4273 C4277 1.376 . S
C4274 C4272 1.394 . S
C4274 C4275 1.369 . S
C4274 C4278 1.531 . S
C4275 C4274 1.369 . S
C4275 C4276 1.410 . S
C4275 C4283 1.503 . S
C4276 C4275 1.410 . S
C4276 C4277 1.392 . S
C4276 C4279 1.511 . S
C4277 C4273 1.376 . S
C4277 C4276 1.392 . S
C4277 H4289 0.929 . S
C4278 C4274 1.531 . S
C4278 H4290 0.960 . S
C4278 H4291 0.962 . S
C4278 H4292 0.960 . S
C4279 C4276 1.511 . S
C4279 H4293 0.961 . S
C4279 H4294 0.961 . S
C4279 H4295 0.961 . S
C4280 C4281 1.370 . S
C4280 C4282 1.363 . S
C4280 H4296 0.931 . S
C4281 C4280 1.370 . S
C4281 C4285 1.408 . S
C4282 C4280 1.363 . S
C4282 C4283 1.370 . S
C4282 C4286 1.524 . S
C4283 C4275 1.503 . S
C4283 C4282 1.370 . S
C4283 C4284 1.403 . S
C4284 C4283 1.403 . S
C4284 C4285 1.404 . S
C4284 C4287 1.539 . S
C4285 C4281 1.408 . S
C4285 C4284 1.404 . S
C4285 H4297 0.930 . S
C4286 C4282 1.524 . S
C4286 H4298 0.956 . S
C4286 H4299 0.961 . S
C4286 H4300 0.961 . S
C4287 C4284 1.539 . S
C4287 H4301 0.958 . S
C4287 H4302 0.961 . S
C4287 H4303 0.960 . S
H4288 C4272 0.931 . S
H4289 C4277 0.929 . S
H4290 C4278 0.960 . S
H4291 C4278 0.962 . S
H4292 C4278 0.960 . S
H4293 C4279 0.961 . S
H4294 C4279 0.961 . S
H4295 C4279 0.961 . S
H4296 C4280 0.931 . S
H4297 C4285 0.930 . S
H4298 C4286 0.956 . S
H4299 C4286 0.961 . S
H4300 C4286 0.961 . S
H4301 C4287 0.958 . S
H4302 C4287 0.961 . S
H4303 C4287 0.960 . S
C4304 C4305 1.391 . S
C4304 C4306 1.394 . S
C4304 H4320 0.931 . S
C4305 C4304 1.391 . S
C4305 C4309 1.376 . S
C4306 C4304 1.394 . S
C4306 C4307 1.369 . S
C4306 C4310 1.531 . S
C4307 C4306 1.369 . S
C4307 C4308 1.410 . S
C4307 C4315 1.503 . S
C4308 C4307 1.410 . S
C4308 C4309 1.392 . S
C4308 C4311 1.511 . S
C4309 C4305 1.376 . S
C4309 C4308 1.392 . S
C4309 H4321 0.929 . S
C4310 C4306 1.531 . S
C4310 H4322 0.960 . S
C4310 H4323 0.962 . S
C4310 H4324 0.960 . S
C4311 C4308 1.511 . S
C4311 H4325 0.961 . S
C4311 H4326 0.961 . S
C4311 H4327 0.961 . S
C4312 C4313 1.370 . S
C4312 C4314 1.363 . S
C4312 H4328 0.931 . S
C4313 C4312 1.370 . S
C4313 C4317 1.408 . S
C4314 C4312 1.363 . S
C4314 C4315 1.370 . S
C4314 C4318 1.524 . S
C4315 C4307 1.503 . S
C4315 C4314 1.370 . S
C4315 C4316 1.403 . S
C4316 C4315 1.403 . S
C4316 C4317 1.404 . S
C4316 C4319 1.539 . S
C4317 C4313 1.408 . S
C4317 C4316 1.404 . S
C4317 H4329 0.930 1_655 S
C4318 C4314 1.524 . S
C4318 H4330 0.956 . S
C4318 H4331 0.961 . S
C4318 H4332 0.961 . S
C4319 C4316 1.539 . S
C4319 H4333 0.958 . S
C4319 H4334 0.961 . S
C4319 H4335 0.960 . S
H4320 C4304 0.931 . S
H4321 C4309 0.929 . S
H4322 C4310 0.960 . S
H4323 C4310 0.962 . S
H4324 C4310 0.960 . S
H4325 C4311 0.961 . S
H4326 C4311 0.961 . S
H4327 C4311 0.961 . S
H4328 C4312 0.931 . S
H4329 C4317 0.930 1_455 S
H4330 C4318 0.956 . S
H4331 C4318 0.961 . S
H4332 C4318 0.961 . S
H4333 C4319 0.958 . S
H4334 C4319 0.961 . S
H4335 C4319 0.960 . S
C4336 C4337 1.391 . S
C4336 C4338 1.394 . S
C4336 H4352 0.931 . S
C4337 C4336 1.391 . S
C4337 C4341 1.376 . S
C4338 C4336 1.394 . S
C4338 C4339 1.369 . S
C4338 C4342 1.531 . S
C4339 C4338 1.369 . S
C4339 C4340 1.410 . S
C4339 C4347 1.503 . S
C4340 C4339 1.410 . S
C4340 C4341 1.392 . S
C4340 C4343 1.511 . S
C4341 C4337 1.376 . S
C4341 C4340 1.392 . S
C4341 H4353 0.929 . S
C4342 C4338 1.531 . S
C4342 H4354 0.960 . S
C4342 H4355 0.962 . S
C4342 H4356 0.960 . S
C4343 C4340 1.511 . S
C4343 H4357 0.961 . S
C4343 H4358 0.961 . S
C4343 H4359 0.961 . S
C4344 C4345 1.370 . S
C4344 C4346 1.363 . S
C4344 H4360 0.931 . S
C4345 C4344 1.370 . S
C4345 C4349 1.408 . S
C4346 C4344 1.363 . S
C4346 C4347 1.370 . S
C4346 C4350 1.524 . S
C4347 C4339 1.503 . S
C4347 C4346 1.370 . S
C4347 C4348 1.403 . S
C4348 C4347 1.403 . S
C4348 C4349 1.404 . S
C4348 C4351 1.539 . S
C4349 C4345 1.408 . S
C4349 C4348 1.404 . S
C4349 H4361 0.930 . S
C4350 C4346 1.524 . S
C4350 H4362 0.956 . S
C4350 H4363 0.961 . S
C4350 H4364 0.961 . S
C4351 C4348 1.539 . S
C4351 H4365 0.958 . S
C4351 H4366 0.961 . S
C4351 H4367 0.960 . S
H4352 C4336 0.931 . S
H4353 C4341 0.929 . S
H4354 C4342 0.960 . S
H4355 C4342 0.962 . S
H4356 C4342 0.960 . S
H4357 C4343 0.961 . S
H4358 C4343 0.961 . S
H4359 C4343 0.961 . S
H4360 C4344 0.931 . S
H4361 C4349 0.930 . S
H4362 C4350 0.956 . S
H4363 C4350 0.961 . S
H4364 C4350 0.961 . S
H4365 C4351 0.958 . S
H4366 C4351 0.961 . S
H4367 C4351 0.960 . S
C4368 C4369 1.391 . S
C4368 C4370 1.394 . S
C4368 H4384 0.931 . S
C4369 C4368 1.391 . S
C4369 C4373 1.376 . S
C4370 C4368 1.394 . S
C4370 C4371 1.369 . S
C4370 C4374 1.531 . S
C4371 C4370 1.369 . S
C4371 C4372 1.410 . S
C4371 C4379 1.503 . S
C4372 C4371 1.410 . S
C4372 C4373 1.392 . S
C4372 C4375 1.511 . S
C4373 C4369 1.376 . S
C4373 C4372 1.392 . S
C4373 H4385 0.929 . S
C4374 C4370 1.531 . S
C4374 H4386 0.960 . S
C4374 H4387 0.962 . S
C4374 H4388 0.960 . S
C4375 C4372 1.511 . S
C4375 H4389 0.961 . S
C4375 H4390 0.961 . S
C4375 H4391 0.961 . S
C4376 C4377 1.370 . S
C4376 C4378 1.363 . S
C4376 H4392 0.931 . S
C4377 C4376 1.370 . S
C4377 C4381 1.408 . S
C4378 C4376 1.363 . S
C4378 C4379 1.370 . S
C4378 C4382 1.524 . S
C4379 C4371 1.503 . S
C4379 C4378 1.370 . S
C4379 C4380 1.403 . S
C4380 C4379 1.403 . S
C4380 C4381 1.404 . S
C4380 C4383 1.539 . S
C4381 C4377 1.408 . S
C4381 C4380 1.404 . S
C4381 H4393 0.930 . S
C4382 C4378 1.524 . S
C4382 H4394 0.956 . S
C4382 H4395 0.961 . S
C4382 H4396 0.961 . S
C4383 C4380 1.539 . S
C4383 H4397 0.958 . S
C4383 H4398 0.961 . S
C4383 H4399 0.960 . S
H4384 C4368 0.931 . S
H4385 C4373 0.929 . S
H4386 C4374 0.960 . S
H4387 C4374 0.962 . S
H4388 C4374 0.960 . S
H4389 C4375 0.961 . S
H4390 C4375 0.961 . S
H4391 C4375 0.961 . S
H4392 C4376 0.931 . S
H4393 C4381 0.930 . S
H4394 C4382 0.956 . S
H4395 C4382 0.961 . S
H4396 C4382 0.961 . S
H4397 C4383 0.958 . S
H4398 C4383 0.961 . S
H4399 C4383 0.960 . S
C4400 C4401 1.391 . S
C4400 C4402 1.394 . S
C4400 H4416 0.931 . S
C4401 C4400 1.391 . S
C4401 C4405 1.376 . S
C4402 C4400 1.394 . S
C4402 C4403 1.369 . S
C4402 C4406 1.531 . S
C4403 C4402 1.369 . S
C4403 C4404 1.410 . S
C4403 C4411 1.503 . S
C4404 C4403 1.410 . S
C4404 C4405 1.392 . S
C4404 C4407 1.511 . S
C4405 C4401 1.376 . S
C4405 C4404 1.392 . S
C4405 H4417 0.929 . S
C4406 C4402 1.531 . S
C4406 H4418 0.960 . S
C4406 H4419 0.962 . S
C4406 H4420 0.960 . S
C4407 C4404 1.511 . S
C4407 H4421 0.961 . S
C4407 H4422 0.961 . S
C4407 H4423 0.961 . S
C4408 C4409 1.370 . S
C4408 C4410 1.363 . S
C4408 H4424 0.931 . S
C4409 C4408 1.370 . S
C4409 C4413 1.408 . S
C4410 C4408 1.363 . S
C4410 C4411 1.370 . S
C4410 C4414 1.524 . S
C4411 C4403 1.503 . S
C4411 C4410 1.370 . S
C4411 C4412 1.403 . S
C4412 C4411 1.403 . S
C4412 C4413 1.404 . S
C4412 C4415 1.539 . S
C4413 C4409 1.408 . S
C4413 C4412 1.404 . S
C4413 H4425 0.930 . S
C4414 C4410 1.524 . S
C4414 H4426 0.956 . S
C4414 H4427 0.961 . S
C4414 H4428 0.961 . S
C4415 C4412 1.539 . S
C4415 H4429 0.958 . S
C4415 H4430 0.961 . S
C4415 H4431 0.960 . S
H4416 C4400 0.931 . S
H4417 C4405 0.929 . S
H4418 C4406 0.960 . S
H4419 C4406 0.962 . S
H4420 C4406 0.960 . S
H4421 C4407 0.961 . S
H4422 C4407 0.961 . S
H4423 C4407 0.961 . S
H4424 C4408 0.931 . S
H4425 C4413 0.930 . S
H4426 C4414 0.956 . S
H4427 C4414 0.961 . S
H4428 C4414 0.961 . S
H4429 C4415 0.958 . S
H4430 C4415 0.961 . S
H4431 C4415 0.960 . S
C4432 C4433 1.391 . S
C4432 C4434 1.394 . S
C4432 H4448 0.931 . S
C4433 C4432 1.391 . S
C4433 C4437 1.376 . S
C4434 C4432 1.394 . S
C4434 C4435 1.369 . S
C4434 C4438 1.531 . S
C4435 C4434 1.369 . S
C4435 C4436 1.410 . S
C4435 C4443 1.503 . S
C4436 C4435 1.410 . S
C4436 C4437 1.392 . S
C4436 C4439 1.511 . S
C4437 C4433 1.376 . S
C4437 C4436 1.392 . S
C4437 H4449 0.929 . S
C4438 C4434 1.531 . S
C4438 H4450 0.960 . S
C4438 H4451 0.962 . S
C4438 H4452 0.960 . S
C4439 C4436 1.511 . S
C4439 H4453 0.961 . S
C4439 H4454 0.961 . S
C4439 H4455 0.961 . S
C4440 C4441 1.370 . S
C4440 C4442 1.363 . S
C4440 H4456 0.931 . S
C4441 C4440 1.370 . S
C4441 C4445 1.408 . S
C4442 C4440 1.363 . S
C4442 C4443 1.370 . S
C4442 C4446 1.524 . S
C4443 C4435 1.503 . S
C4443 C4442 1.370 . S
C4443 C4444 1.403 . S
C4444 C4443 1.403 . S
C4444 C4445 1.404 . S
C4444 C4447 1.539 . S
C4445 C4441 1.408 . S
C4445 C4444 1.404 . S
C4445 H4457 0.930 . S
C4446 C4442 1.524 . S
C4446 H4458 0.956 . S
C4446 H4459 0.961 . S
C4446 H4460 0.961 . S
C4447 C4444 1.539 . S
C4447 H4461 0.958 . S
C4447 H4462 0.961 . S
C4447 H4463 0.960 . S
H4448 C4432 0.931 . S
H4449 C4437 0.929 . S
H4450 C4438 0.960 . S
H4451 C4438 0.962 . S
H4452 C4438 0.960 . S
H4453 C4439 0.961 . S
H4454 C4439 0.961 . S
H4455 C4439 0.961 . S
H4456 C4440 0.931 . S
H4457 C4445 0.930 . S
H4458 C4446 0.956 . S
H4459 C4446 0.961 . S
H4460 C4446 0.961 . S
H4461 C4447 0.958 . S
H4462 C4447 0.961 . S
H4463 C4447 0.960 . S
C4464 C4465 1.391 . S
C4464 C4466 1.394 . S
C4464 H4480 0.931 . S
C4465 C4464 1.391 . S
C4465 C4469 1.376 . S
C4466 C4464 1.394 . S
C4466 C4467 1.369 . S
C4466 C4470 1.531 . S
C4467 C4466 1.369 . S
C4467 C4468 1.410 . S
C4467 C4475 1.503 . S
C4468 C4467 1.410 . S
C4468 C4469 1.392 . S
C4468 C4471 1.511 . S
C4469 C4465 1.376 . S
C4469 C4468 1.392 . S
C4469 H4481 0.929 . S
C4470 C4466 1.531 . S
C4470 H4482 0.960 . S
C4470 H4483 0.962 . S
C4470 H4484 0.960 . S
C4471 C4468 1.511 . S
C4471 H4485 0.961 . S
C4471 H4486 0.961 . S
C4471 H4487 0.961 . S
C4472 C4473 1.370 . S
C4472 C4474 1.363 . S
C4472 H4488 0.931 . S
C4473 C4472 1.370 . S
C4473 C4477 1.408 . S
C4474 C4472 1.363 . S
C4474 C4475 1.370 . S
C4474 C4478 1.524 . S
C4475 C4467 1.503 . S
C4475 C4474 1.370 . S
C4475 C4476 1.403 . S
C4476 C4475 1.403 . S
C4476 C4477 1.404 . S
C4476 C4479 1.539 . S
C4477 C4473 1.408 . S
C4477 C4476 1.404 . S
C4477 H4489 0.930 . S
C4478 C4474 1.524 . S
C4478 H4490 0.956 . S
C4478 H4491 0.961 . S
C4478 H4492 0.961 . S
C4479 C4476 1.539 . S
C4479 H4493 0.958 . S
C4479 H4494 0.961 . S
C4479 H4495 0.960 . S
H4480 C4464 0.931 . S
H4481 C4469 0.929 . S
H4482 C4470 0.960 . S
H4483 C4470 0.962 . S
H4484 C4470 0.960 . S
H4485 C4471 0.961 . S
H4486 C4471 0.961 . S
H4487 C4471 0.961 . S
H4488 C4472 0.931 . S
H4489 C4477 0.930 . S
H4490 C4478 0.956 . S
H4491 C4478 0.961 . S
H4492 C4478 0.961 . S
H4493 C4479 0.958 . S
H4494 C4479 0.961 . S
H4495 C4479 0.960 . S
C4496 C4497 1.391 . S
C4496 C4498 1.394 . S
C4496 H4512 0.931 . S
C4497 C4496 1.391 . S
C4497 C4501 1.376 . S
C4498 C4496 1.394 . S
C4498 C4499 1.369 . S
C4498 C4502 1.531 . S
C4499 C4498 1.369 . S
C4499 C4500 1.410 . S
C4499 C4507 1.503 . S
C4500 C4499 1.410 . S
C4500 C4501 1.392 . S
C4500 C4503 1.511 . S
C4501 C4497 1.376 . S
C4501 C4500 1.392 . S
C4501 H4513 0.929 . S
C4502 C4498 1.531 . S
C4502 H4514 0.960 . S
C4502 H4515 0.962 . S
C4502 H4516 0.960 . S
C4503 C4500 1.511 . S
C4503 H4517 0.961 . S
C4503 H4518 0.961 . S
C4503 H4519 0.961 . S
C4504 C4505 1.370 . S
C4504 C4506 1.363 . S
C4504 H4520 0.931 . S
C4505 C4504 1.370 . S
C4505 C4509 1.408 . S
C4506 C4504 1.363 . S
C4506 C4507 1.370 . S
C4506 C4510 1.524 . S
C4507 C4499 1.503 . S
C4507 C4506 1.370 . S
C4507 C4508 1.403 . S
C4508 C4507 1.403 . S
C4508 C4509 1.404 . S
C4508 C4511 1.539 . S
C4509 C4505 1.408 . S
C4509 C4508 1.404 . S
C4509 H4521 0.930 . S
C4510 C4506 1.524 . S
C4510 H4522 0.956 . S
C4510 H4523 0.961 . S
C4510 H4524 0.961 . S
C4511 C4508 1.539 . S
C4511 H4525 0.958 . S
C4511 H4526 0.961 . S
C4511 H4527 0.960 . S
H4512 C4496 0.931 . S
H4513 C4501 0.929 . S
H4514 C4502 0.960 . S
H4515 C4502 0.962 . S
H4516 C4502 0.960 . S
H4517 C4503 0.961 . S
H4518 C4503 0.961 . S
H4519 C4503 0.961 . S
H4520 C4504 0.931 . S
H4521 C4509 0.930 . S
H4522 C4510 0.956 . S
H4523 C4510 0.961 . S
H4524 C4510 0.961 . S
H4525 C4511 0.958 . S
H4526 C4511 0.961 . S
H4527 C4511 0.960 . S
C4528 C4529 1.391 . S
C4528 C4530 1.394 . S
C4528 H4544 0.931 . S
C4529 C4528 1.391 . S
C4529 C4533 1.376 . S
C4530 C4528 1.394 . S
C4530 C4531 1.369 . S
C4530 C4534 1.531 . S
C4531 C4530 1.369 . S
C4531 C4532 1.410 . S
C4531 C4539 1.503 . S
C4532 C4531 1.410 . S
C4532 C4533 1.392 . S
C4532 C4535 1.511 . S
C4533 C4529 1.376 . S
C4533 C4532 1.392 . S
C4533 H4545 0.929 . S
C4534 C4530 1.531 . S
C4534 H4546 0.960 . S
C4534 H4547 0.962 . S
C4534 H4548 0.960 . S
C4535 C4532 1.511 . S
C4535 H4549 0.961 . S
C4535 H4550 0.961 . S
C4535 H4551 0.961 . S
C4536 C4537 1.370 . S
C4536 C4538 1.363 . S
C4536 H4552 0.931 . S
C4537 C4536 1.370 . S
C4537 C4541 1.408 . S
C4538 C4536 1.363 . S
C4538 C4539 1.370 . S
C4538 C4542 1.524 . S
C4539 C4531 1.503 . S
C4539 C4538 1.370 . S
C4539 C4540 1.403 . S
C4540 C4539 1.403 . S
C4540 C4541 1.404 . S
C4540 C4543 1.539 . S
C4541 C4537 1.408 . S
C4541 C4540 1.404 . S
C4541 H4553 0.930 . S
C4542 C4538 1.524 . S
C4542 H4554 0.956 . S
C4542 H4555 0.961 . S
C4542 H4556 0.961 . S
C4543 C4540 1.539 . S
C4543 H4557 0.958 . S
C4543 H4558 0.961 . S
C4543 H4559 0.960 . S
H4544 C4528 0.931 . S
H4545 C4533 0.929 . S
H4546 C4534 0.960 . S
H4547 C4534 0.962 . S
H4548 C4534 0.960 . S
H4549 C4535 0.961 . S
H4550 C4535 0.961 . S
H4551 C4535 0.961 . S
H4552 C4536 0.931 . S
H4553 C4541 0.930 . S
H4554 C4542 0.956 . S
H4555 C4542 0.961 . S
H4556 C4542 0.961 . S
H4557 C4543 0.958 . S
H4558 C4543 0.961 . S
H4559 C4543 0.960 . S
C4560 C4561 1.391 . S
C4560 C4562 1.394 . S
C4560 H4576 0.931 . S
C4561 C4560 1.391 . S
C4561 C4565 1.376 . S
C4562 C4560 1.394 . S
C4562 C4563 1.369 . S
C4562 C4566 1.531 . S
C4563 C4562 1.369 . S
C4563 C4564 1.410 . S
C4563 C4571 1.503 . S
C4564 C4563 1.410 . S
C4564 C4565 1.392 . S
C4564 C4567 1.511 . S
C4565 C4561 1.376 . S
C4565 C4564 1.392 . S
C4565 H4577 0.929 . S
C4566 C4562 1.531 . S
C4566 H4578 0.960 . S
C4566 H4579 0.962 . S
C4566 H4580 0.960 . S
C4567 C4564 1.511 . S
C4567 H4581 0.961 . S
C4567 H4582 0.961 . S
C4567 H4583 0.961 . S
C4568 C4569 1.370 . S
C4568 C4570 1.363 . S
C4568 H4584 0.931 . S
C4569 C4568 1.370 . S
C4569 C4573 1.408 . S
C4570 C4568 1.363 . S
C4570 C4571 1.370 . S
C4570 C4574 1.524 . S
C4571 C4563 1.503 . S
C4571 C4570 1.370 . S
C4571 C4572 1.403 . S
C4572 C4571 1.403 . S
C4572 C4573 1.404 . S
C4572 C4575 1.539 . S
C4573 C4569 1.408 . S
C4573 C4572 1.404 . S
C4573 H4585 0.930 . S
C4574 C4570 1.524 . S
C4574 H4586 0.956 . S
C4574 H4587 0.961 . S
C4574 H4588 0.961 . S
C4575 C4572 1.539 . S
C4575 H4589 0.958 . S
C4575 H4590 0.961 . S
C4575 H4591 0.960 . S
H4576 C4560 0.931 . S
H4577 C4565 0.929 . S
H4578 C4566 0.960 . S
H4579 C4566 0.962 . S
H4580 C4566 0.960 . S
H4581 C4567 0.961 . S
H4582 C4567 0.961 . S
H4583 C4567 0.961 . S
H4584 C4568 0.931 . S
H4585 C4573 0.930 . S
H4586 C4574 0.956 . S
H4587 C4574 0.961 . S
H4588 C4574 0.961 . S
H4589 C4575 0.958 . S
H4590 C4575 0.961 . S
H4591 C4575 0.960 . S
C4592 C4593 1.391 . S
C4592 C4594 1.394 . S
C4592 H4608 0.931 . S
C4593 C4592 1.391 . S
C4593 C4597 1.376 . S
C4594 C4592 1.394 . S
C4594 C4595 1.369 . S
C4594 C4598 1.531 . S
C4595 C4594 1.369 . S
C4595 C4596 1.410 . S
C4595 C4603 1.503 . S
C4596 C4595 1.410 . S
C4596 C4597 1.392 . S
C4596 C4599 1.511 . S
C4597 C4593 1.376 . S
C4597 C4596 1.392 . S
C4597 H4609 0.929 . S
C4598 C4594 1.531 . S
C4598 H4610 0.960 . S
C4598 H4611 0.962 . S
C4598 H4612 0.960 . S
C4599 C4596 1.511 . S
C4599 H4613 0.961 1_554 S
C4599 H4614 0.961 . S
C4599 H4615 0.961 . S
C4600 C4601 1.370 . S
C4600 C4602 1.363 . S
C4600 H4616 0.931 . S
C4601 C4600 1.370 . S
C4601 C4605 1.408 . S
C4602 C4600 1.363 . S
C4602 C4603 1.370 . S
C4602 C4606 1.524 . S
C4603 C4595 1.503 . S
C4603 C4602 1.370 . S
C4603 C4604 1.403 . S
C4604 C4603 1.403 . S
C4604 C4605 1.404 . S
C4604 C4607 1.539 . S
C4605 C4601 1.408 . S
C4605 C4604 1.404 . S
C4605 H4617 0.930 . S
C4606 C4602 1.524 . S
C4606 H4618 0.956 . S
C4606 H4619 0.961 . S
C4606 H4620 0.961 . S
C4607 C4604 1.539 . S
C4607 H4621 0.958 . S
C4607 H4622 0.961 . S
C4607 H4623 0.960 . S
H4608 C4592 0.931 . S
H4609 C4597 0.929 . S
H4610 C4598 0.960 . S
H4611 C4598 0.962 . S
H4612 C4598 0.960 . S
H4613 C4599 0.961 1_556 S
H4614 C4599 0.961 . S
H4615 C4599 0.961 . S
H4616 C4600 0.931 . S
H4617 C4605 0.930 . S
H4618 C4606 0.956 . S
H4619 C4606 0.961 . S
H4620 C4606 0.961 . S
H4621 C4607 0.958 . S
H4622 C4607 0.961 . S
H4623 C4607 0.960 . S
C4624 C4625 1.391 . S
C4624 C4626 1.394 . S
C4624 H4640 0.931 . S
C4625 C4624 1.391 . S
C4625 C4629 1.376 . S
C4626 C4624 1.394 . S
C4626 C4627 1.369 . S
C4626 C4630 1.531 . S
C4627 C4626 1.369 . S
C4627 C4628 1.410 . S
C4627 C4635 1.503 . S
C4628 C4627 1.410 . S
C4628 C4629 1.392 . S
C4628 C4631 1.511 . S
C4629 C4625 1.376 . S
C4629 C4628 1.392 . S
C4629 H4641 0.929 . S
C4630 C4626 1.531 . S
C4630 H4642 0.960 . S
C4630 H4643 0.962 . S
C4630 H4644 0.960 . S
C4631 C4628 1.511 . S
C4631 H4645 0.961 . S
C4631 H4646 0.961 . S
C4631 H4647 0.961 . S
C4632 C4633 1.370 . S
C4632 C4634 1.363 . S
C4632 H4648 0.931 . S
C4633 C4632 1.370 . S
C4633 C4637 1.408 . S
C4634 C4632 1.363 . S
C4634 C4635 1.370 . S
C4634 C4638 1.524 . S
C4635 C4627 1.503 . S
C4635 C4634 1.370 . S
C4635 C4636 1.403 . S
C4636 C4635 1.403 . S
C4636 C4637 1.404 . S
C4636 C4639 1.539 . S
C4637 C4633 1.408 . S
C4637 C4636 1.404 . S
C4637 H4649 0.930 . S
C4638 C4634 1.524 . S
C4638 H4650 0.956 . S
C4638 H4651 0.961 . S
C4638 H4652 0.961 . S
C4639 C4636 1.539 . S
C4639 H4653 0.958 . S
C4639 H4654 0.961 . S
C4639 H4655 0.960 . S
H4640 C4624 0.931 . S
H4641 C4629 0.929 . S
H4642 C4630 0.960 . S
H4643 C4630 0.962 . S
H4644 C4630 0.960 . S
H4645 C4631 0.961 . S
H4646 C4631 0.961 . S
H4647 C4631 0.961 . S
H4648 C4632 0.931 . S
H4649 C4637 0.930 . S
H4650 C4638 0.956 . S
H4651 C4638 0.961 . S
H4652 C4638 0.961 . S
H4653 C4639 0.958 . S
H4654 C4639 0.961 . S
H4655 C4639 0.960 . S
C4656 C4657 1.391 . S
C4656 C4658 1.394 . S
C4656 H4672 0.931 . S
C4657 C4656 1.391 . S
C4657 C4661 1.376 . S
C4658 C4656 1.394 . S
C4658 C4659 1.369 . S
C4658 C4662 1.531 . S
C4659 C4658 1.369 . S
C4659 C4660 1.410 . S
C4659 C4667 1.503 . S
C4660 C4659 1.410 . S
C4660 C4661 1.392 . S
C4660 C4663 1.511 . S
C4661 C4657 1.376 . S
C4661 C4660 1.392 . S
C4661 H4673 0.929 . S
C4662 C4658 1.531 . S
C4662 H4674 0.960 . S
C4662 H4675 0.962 . S
C4662 H4676 0.960 . S
C4663 C4660 1.511 . S
C4663 H4677 0.961 . S
C4663 H4678 0.961 . S
C4663 H4679 0.961 . S
C4664 C4665 1.370 . S
C4664 C4666 1.363 . S
C4664 H4680 0.931 1_554 S
C4665 C4664 1.370 . S
C4665 C4669 1.408 . S
C4666 C4664 1.363 . S
C4666 C4667 1.370 . S
C4666 C4670 1.524 1_554 S
C4667 C4659 1.503 . S
C4667 C4666 1.370 . S
C4667 C4668 1.403 . S
C4668 C4667 1.403 . S
C4668 C4669 1.404 . S
C4668 C4671 1.539 . S
C4669 C4665 1.408 . S
C4669 C4668 1.404 . S
C4669 H4681 0.930 . S
C4670 C4666 1.524 1_556 S
C4670 H4682 0.956 . S
C4670 H4683 0.961 . S
C4670 H4684 0.961 . S
C4671 C4668 1.539 . S
C4671 H4685 0.958 . S
C4671 H4686 0.961 . S
C4671 H4687 0.960 . S
H4672 C4656 0.931 . S
H4673 C4661 0.929 . S
H4674 C4662 0.960 . S
H4675 C4662 0.962 . S
H4676 C4662 0.960 . S
H4677 C4663 0.961 . S
H4678 C4663 0.961 . S
H4679 C4663 0.961 . S
H4680 C4664 0.931 1_556 S
H4681 C4669 0.930 . S
H4682 C4670 0.956 . S
H4683 C4670 0.961 . S
H4684 C4670 0.961 . S
H4685 C4671 0.958 . S
H4686 C4671 0.961 . S
H4687 C4671 0.960 . S
C4688 C4689 1.391 . S
C4688 C4690 1.394 . S
C4688 H4704 0.931 . S
C4689 C4688 1.391 . S
C4689 C4693 1.376 . S
C4690 C4688 1.394 . S
C4690 C4691 1.369 . S
C4690 C4694 1.531 . S
C4691 C4690 1.369 . S
C4691 C4692 1.410 . S
C4691 C4699 1.503 . S
C4692 C4691 1.410 . S
C4692 C4693 1.392 . S
C4692 C4695 1.511 . S
C4693 C4689 1.376 . S
C4693 C4692 1.392 . S
C4693 H4705 0.929 . S
C4694 C4690 1.531 . S
C4694 H4706 0.960 . S
C4694 H4707 0.962 . S
C4694 H4708 0.960 . S
C4695 C4692 1.511 . S
C4695 H4709 0.961 . S
C4695 H4710 0.961 . S
C4695 H4711 0.961 . S
C4696 C4697 1.370 . S
C4696 C4698 1.363 . S
C4696 H4712 0.931 . S
C4697 C4696 1.370 . S
C4697 C4701 1.408 . S
C4698 C4696 1.363 . S
C4698 C4699 1.370 . S
C4698 C4702 1.524 . S
C4699 C4691 1.503 . S
C4699 C4698 1.370 . S
C4699 C4700 1.403 . S
C4700 C4699 1.403 . S
C4700 C4701 1.404 . S
C4700 C4703 1.539 . S
C4701 C4697 1.408 . S
C4701 C4700 1.404 . S
C4701 H4713 0.930 . S
C4702 C4698 1.524 . S
C4702 H4714 0.956 . S
C4702 H4715 0.961 . S
C4702 H4716 0.961 . S
C4703 C4700 1.539 . S
C4703 H4717 0.958 . S
C4703 H4718 0.961 . S
C4703 H4719 0.960 . S
H4704 C4688 0.931 . S
H4705 C4693 0.929 . S
H4706 C4694 0.960 . S
H4707 C4694 0.962 . S
H4708 C4694 0.960 . S
H4709 C4695 0.961 . S
H4710 C4695 0.961 . S
H4711 C4695 0.961 . S
H4712 C4696 0.931 . S
H4713 C4701 0.930 . S
H4714 C4702 0.956 . S
H4715 C4702 0.961 . S
H4716 C4702 0.961 . S
H4717 C4703 0.958 . S
H4718 C4703 0.961 . S
H4719 C4703 0.960 . S
C4720 C4721 1.391 . S
C4720 C4722 1.394 . S
C4720 H4736 0.931 . S
C4721 C4720 1.391 . S
C4721 C4725 1.376 . S
C4722 C4720 1.394 . S
C4722 C4723 1.369 . S
C4722 C4726 1.531 . S
C4723 C4722 1.369 . S
C4723 C4724 1.410 . S
C4723 C4731 1.503 . S
C4724 C4723 1.410 . S
C4724 C4725 1.392 . S
C4724 C4727 1.511 . S
C4725 C4721 1.376 . S
C4725 C4724 1.392 . S
C4725 H4737 0.929 . S
C4726 C4722 1.531 . S
C4726 H4738 0.960 . S
C4726 H4739 0.962 . S
C4726 H4740 0.960 . S
C4727 C4724 1.511 . S
C4727 H4741 0.961 . S
C4727 H4742 0.961 . S
C4727 H4743 0.961 . S
C4728 C4729 1.370 . S
C4728 C4730 1.363 . S
C4728 H4744 0.931 . S
C4729 C4728 1.370 . S
C4729 C4733 1.408 . S
C4730 C4728 1.363 . S
C4730 C4731 1.370 . S
C4730 C4734 1.524 . S
C4731 C4723 1.503 . S
C4731 C4730 1.370 . S
C4731 C4732 1.403 . S
C4732 C4731 1.403 . S
C4732 C4733 1.404 . S
C4732 C4735 1.539 . S
C4733 C4729 1.408 . S
C4733 C4732 1.404 . S
C4733 H4745 0.930 . S
C4734 C4730 1.524 . S
C4734 H4746 0.956 . S
C4734 H4747 0.961 . S
C4734 H4748 0.961 . S
C4735 C4732 1.539 . S
C4735 H4749 0.958 . S
C4735 H4750 0.961 . S
C4735 H4751 0.960 . S
H4736 C4720 0.931 . S
H4737 C4725 0.929 . S
H4738 C4726 0.960 . S
H4739 C4726 0.962 . S
H4740 C4726 0.960 . S
H4741 C4727 0.961 . S
H4742 C4727 0.961 . S
H4743 C4727 0.961 . S
H4744 C4728 0.931 . S
H4745 C4733 0.930 . S
H4746 C4734 0.956 . S
H4747 C4734 0.961 . S
H4748 C4734 0.961 . S
H4749 C4735 0.958 . S
H4750 C4735 0.961 . S
H4751 C4735 0.960 . S
C1681 C111 2.066 . S
C1689 C403 2.085 . S
C1713 C64 1.816 . S
C1721 C476 1.909 . S
C1745 C77 1.766 . S
C1753 C571 1.785 . S
C1785 C646 1.226 . S
C1777 C95 1.330 . S
C1809 C25 1.345 . S
C1817 C730 1.220 . S
C1849 C823 1.863 . S
C1841 C36 1.745 . S
C1881 C896 1.895 . S
C1873 C50 1.825 . S
C1905 C11 2.002 . S
C1913 C991 2.013 . S
C1945 C392 1.597 . S
C1937 C237 1.595 . S
C1969 C245 0.887 . S
C1977 C478 0.828 . S
C2009 C560 1.013 . S
C2001 C279 0.916 . S
C2041 C655 1.545 . S
C2033 C175 1.544 1_556 S
C2065 C231 1.510 . S
C2073 C739 1.510 . S
C2105 C812 1.030 . S
C2097 C251 1.014 . S
C2137 C898 0.898 . S
C2129 C273 0.904 . S
C2169 C980 1.592 . S
C2161 C181 1.562 . S
C2201 C394 0.882 . S
C2193 C165 0.911 1_554 S
C2225 C288 1.597 . S
C2233 C1064 1.674 . S
C2265 C1150 1.270 . S
C2257 C333 1.329 . S
C2297 C1243 0.772 . S
C2289 C316 0.790 . S
C2321 C123 0.905 . S
C2329 C982 0.871 . S
C2353 C137 1.302 . S
C2361 C562 1.213 . S
C2385 C330 1.588 . S
C2393 C1316 1.670 . S
C2425 C1411 0.783 . S
C2417 C302 0.736 . S
C2457 C391 2.216 . S
C2449 C63 2.214 . S
C2489 C1412 1.954 . S
C2481 C106 1.952 . S
C2513 C97 1.817 . S
C2521 C559 1.867 . S
C2545 C81 1.390 . S
C2553 C1330 1.286 . S
C2585 C742 1.355 . S
C2577 C13 1.403 . S
C2609 C55 1.825 . S
C2617 C1147 1.865 . S
C2649 C908 1.844 1_556 S
C2641 C35 1.859 . S
C2681 C1483 2.218 . S
C2673 C21 2.195 . S
C2713 C404 1.740 . S
C2705 C147 1.774 . S
C2745 C1414 0.832 . S
C2737 C321 0.804 . S
C2769 C119 1.095 . S
C2777 C572 1.092 . S
C2801 C293 1.566 . S
C2809 C1315 1.652 . S
C2833 C153 1.576 . S
C2841 C727 1.654 . S
C2873 C1160 1.094 . S
C2865 C315 1.075 . S
C2897 C125 0.927 . S
C2905 C910 0.878 . S
C2929 C287 1.763 . S
C2937 C1496 1.718 . S
C2961 C193 0.917 . S
C2969 C406 0.942 . S
C2993 C176 1.663 . S
C3001 C1076 1.697 . S
C3025 C263 1.280 . S
C3033 C826 1.240 . S
C3057 C246 0.961 . S
C3065 C1231 0.942 . S
C3097 C1498 0.923 . S
C3089 C277 0.917 . S
C3121 C221 1.322 . S
C3129 C574 1.259 . S
C3161 C656 1.705 . S
C3153 C260 1.708 . S
C3193 C475 0.935 . S
C3185 C204 0.880 . S
C3217 C83 2.059 . S
C3225 C1579 2.083 . S
C3257 C1400 1.915 . S
C3249 C92 1.868 . S
C3281 C105 1.774 . S
C3289 C1663 1.782 . S
C3313 C67 1.313 . S
C3321 C1318 1.245 . S
C3345 C53 1.329 . S
C3353 C1066 1.251 . S
C3385 C1159 1.869 . S
C3377 C8 1.751 1_655 S
C3417 C1232 1.894 . S
C3409 C22 1.816 . S
C3449 C1495 2.021 . S
C3441 C39 2.005 . S
C3481 C1568 1.600 . S
C3473 C265 1.583 . S
C3505 C189 0.853 . S
C3513 C1402 0.866 . S
C3545 C1652 1.018 . S
C3537 C209 0.966 . S
C3577 C1327 1.551 . S
C3569 C217 1.540 . S
C3609 C1075 1.508 . S
C3601 C259 1.514 . S
C3633 C195 0.907 . S
C3641 C1148 1.015 . S
C3673 C1234 0.898 . S
C3665 C203 0.899 . S
C3697 C223 1.613 . S
C3705 C1484 1.611 . S
C3737 C1570 0.887 . S
C3729 C319 0.923 . S
C3761 C134 1.589 . S
C3769 C728 1.664 . S
C3801 C814 1.243 . S
C3793 C151 1.334 1_565 S
C3833 C907 0.782 . S
C3825 C162 0.821 . S
C3865 C1486 0.906 . S
C3857 C305 0.918 . S
C3889 C291 1.297 . S
C3897 C1654 1.248 . S
C3929 C644 1.664 . S
C3921 C148 1.636 . S
C3961 C487 0.786 . S
C3953 C120 0.716 . S
C3985 C91 2.205 . S
C3993 C1567 2.222 . S
C4025 C488 1.946 . S
C4017 C78 1.956 . S
C4049 C69 1.783 . S
C4057 C1651 1.868 . S
C4081 C109 1.368 . S
C4089 C658 1.258 . S
C4113 C41 1.407 . S
C4121 C1078 1.350 . S
C4153 C811 1.866 . S
C4145 C27 1.827 . S
C4177 C7 1.849 . S
C4185 C1244 1.867 . S
C4209 C49 2.211 . S
C4217 C979 2.213 . S
C4249 C1580 1.720 . S
C4241 C329 1.782 . S
C4273 C167 0.907 . S
C4281 C490 0.857 . S
C4313 C1664 1.069 1_655 S
C4305 C301 1.070 . S
C4337 C139 1.592 . S
C4345 C643 1.650 . S
C4369 C335 1.564 . S
C4377 C1063 1.660 . S
C4409 C824 1.101 . S
C4401 C161 1.090 . S
C4433 C307 0.915 . S
C4441 C1246 0.891 . S
C4473 C992 1.718 . S
C4465 C133 1.772 . S
C4505 C1582 0.963 . S
C4497 C249 1.001 . S
C4537 C740 1.684 1_565 S
C4529 C218 1.697 . S
C4561 C235 1.315 . S
C4569 C1162 1.266 . S
C4601 C895 0.953 . S
C4593 C190 0.855 . S
C4625 C207 0.996 . S
C4633 C994 0.956 . S
C4657 C179 1.323 . S
C4665 C1666 1.262 . S
C4697 C1328 1.714 . S
C4689 C232 1.710 . S
C4729 C1399 0.937 . S
C4721 C274 0.854 . S
