# Generated by pormake.
# Topology pyr, (3,6)-cn, num edge types: 1
# Building blocks:
#     Node 0, Type 0, BuildingBlock: WUSLED_clean_sbu_0, # of connection points: 3
#     Node 1, Type 0, BuildingBlock: WUSLED_clean_sbu_0, # of connection points: 3
#     Node 2, Type 0, BuildingBlock: WUSLED_clean_sbu_0, # of connection points: 3
#     Node 3, Type 0, BuildingBlock: WUSLED_clean_sbu_0, # of connection points: 3
#     Node 4, Type 0, BuildingBlock: WUSLED_clean_sbu_0, # of connection points: 3
#     Node 5, Type 0, BuildingBlock: WUSLED_clean_sbu_0, # of connection points: 3
#     Node 6, Type 0, BuildingBlock: WUSLED_clean_sbu_0, # of connection points: 3
#     Node 7, Type 0, BuildingBlock: WUSLED_clean_sbu_0, # of connection points: 3
#     Node 8, Type 1, BuildingBlock: BETFEN_clean_sbu_0, # of connection points: 6
#     Node 9, Type 1, BuildingBlock: BETFEN_clean_sbu_0, # of connection points: 6
#     Node 10, Type 1, BuildingBlock: BETFEN_clean_sbu_0, # of connection points: 6
#     Node 11, Type 1, BuildingBlock: BETFEN_clean_sbu_0, # of connection points: 6
#     Edge 12, Type (0, 1), BuildingBlock: UVAHIK_clean_linker_0, # of connection points: 2
#     Edge 13, Type (0, 1), BuildingBlock: UVAHIK_clean_linker_0, # of connection points: 2
#     Edge 14, Type (0, 1), BuildingBlock: UVAHIK_clean_linker_0, # of connection points: 2
#     Edge 15, Type (0, 1), BuildingBlock: UVAHIK_clean_linker_0, # of connection points: 2
#     Edge 16, Type (0, 1), BuildingBlock: UVAHIK_clean_linker_0, # of connection points: 2
#     Edge 17, Type (0, 1), BuildingBlock: UVAHIK_clean_linker_0, # of connection points: 2
#     Edge 18, Type (0, 1), BuildingBlock: UVAHIK_clean_linker_0, # of connection points: 2
#     Edge 19, Type (0, 1), BuildingBlock: UVAHIK_clean_linker_0, # of connection points: 2
#     Edge 20, Type (0, 1), BuildingBlock: UVAHIK_clean_linker_0, # of connection points: 2
#     Edge 21, Type (0, 1), BuildingBlock: UVAHIK_clean_linker_0, # of connection points: 2
#     Edge 22, Type (0, 1), BuildingBlock: UVAHIK_clean_linker_0, # of connection points: 2
#     Edge 23, Type (0, 1), BuildingBlock: UVAHIK_clean_linker_0, # of connection points: 2
#     Edge 24, Type (0, 1), BuildingBlock: UVAHIK_clean_linker_0, # of connection points: 2
#     Edge 25, Type (0, 1), BuildingBlock: UVAHIK_clean_linker_0, # of connection points: 2
#     Edge 26, Type (0, 1), BuildingBlock: UVAHIK_clean_linker_0, # of connection points: 2
#     Edge 27, Type (0, 1), BuildingBlock: UVAHIK_clean_linker_0, # of connection points: 2
#     Edge 28, Type (0, 1), BuildingBlock: UVAHIK_clean_linker_0, # of connection points: 2
#     Edge 29, Type (0, 1), BuildingBlock: UVAHIK_clean_linker_0, # of connection points: 2
#     Edge 30, Type (0, 1), BuildingBlock: UVAHIK_clean_linker_0, # of connection points: 2
#     Edge 31, Type (0, 1), BuildingBlock: UVAHIK_clean_linker_0, # of connection points: 2
#     Edge 32, Type (0, 1), BuildingBlock: UVAHIK_clean_linker_0, # of connection points: 2
#     Edge 33, Type (0, 1), BuildingBlock: UVAHIK_clean_linker_0, # of connection points: 2
#     Edge 34, Type (0, 1), BuildingBlock: UVAHIK_clean_linker_0, # of connection points: 2
#     Edge 35, Type (0, 1), BuildingBlock: UVAHIK_clean_linker_0, # of connection points: 2
# Relax obj value: 0.103
# Max RMSD: 0.211
# Mean RMSD: 0.097
data_MOF--net-pyr--node1-WUSLED_clean_sbu_0--node2-BETFEN_clean_sbu_0--edge1-UVAHIK_clean_linker_0
_symmetry_space_group_name_H-M    P1
_symmetry_Int_Tables_number       1
_symmetry_cell_setting            triclinic
loop_
_symmetry_equiv_pos_as_xyz
'x, y, z'
_cell_length_a     58.586661
_cell_length_b     63.153964
_cell_length_c     60.218696
_cell_angle_alpha  91.020072
_cell_angle_beta   98.745218
_cell_angle_gamma 106.12485
loop_
_atom_site_label
_atom_site_type_symbol
_atom_site_fract_x
_atom_site_fract_y
_atom_site_fract_z
_atom_type_partial_charge
C0 C 0.28344 0.30565 0.1828 0.0
C1 C 0.26215 0.30641 0.19024 0.0
C2 C 0.25775 0.33416 0.16402 0.0
C3 C 0.24933 0.32039 0.18085 0.0
C4 C 0.27943 0.33373 0.15689 0.0
C5 C 0.29223 0.31946 0.16626 0.0
U6 U 0.28316 0.26426 0.22451 0.0
O7 O 0.28437 0.22993 0.2227 0.0
O8 O 0.31135 0.2544 0.24669 0.0
C9 C 0.30483 0.23444 0.23676 0.0
C10 C 0.2954 0.28965 0.19214 0.0
C11 C 0.3238 0.22821 0.22765 0.0
C12 C 0.34822 0.23065 0.19832 0.0
C13 C 0.33148 0.23773 0.20824 0.0
C14 C 0.35039 0.20513 0.22773 0.0
C15 C 0.35761 0.21408 0.20782 0.0
C16 C 0.33344 0.21209 0.23753 0.0
C17 C 0.23585 0.255 0.26078 0.0
C18 C 0.23082 0.22291 0.2828 0.0
C19 C 0.20748 0.24868 0.28685 0.0
C20 C 0.21864 0.2615 0.27078 0.0
C21 C 0.21346 0.22925 0.29292 0.0
C22 C 0.24203 0.23577 0.26693 0.0
C23 C 0.24722 0.26787 0.24361 0.0
O24 O 0.30613 0.29455 0.21316 0.0
O25 O 0.2818 0.26911 0.18842 0.0
O26 O 0.2443 0.25656 0.22435 0.0
O27 O 0.26952 0.27989 0.25051 0.0
H28 H 0.2551 0.29575 0.20299 0.0
H29 H 0.23242 0.31987 0.18633 0.0
H30 H 0.28636 0.34426 0.14402 0.0
H31 H 0.3087 0.31899 0.16044 0.0
H32 H 0.35315 0.2376 0.18282 0.0
H33 H 0.32401 0.25021 0.20045 0.0
H34 H 0.35761 0.19255 0.23559 0.0
H35 H 0.32759 0.20467 0.25254 0.0
H36 H 0.23546 0.20782 0.28686 0.0
H37 H 0.19433 0.25401 0.2946 0.0
H38 H 0.21383 0.27638 0.26613 0.0
H39 H 0.25533 0.23059 0.25925 0.0
C40 C 0.22981 0.83283 0.66032 0.0
C41 C 0.21861 0.84095 0.67629 0.0
C42 C 0.19954 0.86027 0.64742 0.0
C43 C 0.20355 0.85444 0.66988 0.0
C44 C 0.21086 0.85205 0.63158 0.0
C45 C 0.22576 0.83853 0.63796 0.0
U46 U 0.27641 0.8148 0.70195 0.0
O47 O 0.28177 0.78203 0.70824 0.0
O48 O 0.31052 0.80835 0.69733 0.0
C49 C 0.30385 0.78807 0.70372 0.0
C50 C 0.24597 0.81867 0.66641 0.0
C51 C 0.31338 0.77146 0.69382 0.0
C52 C 0.31287 0.74351 0.6652 0.0
C53 C 0.30228 0.75876 0.67368 0.0
C54 C 0.34518 0.75334 0.69714 0.0
C55 C 0.33469 0.74089 0.67672 0.0
C56 C 0.3347 0.76844 0.70548 0.0
C57 C 0.29718 0.84538 0.76037 0.0
C58 C 0.33499 0.84782 0.78494 0.0
C59 C 0.30617 0.86465 0.79721 0.0
C60 C 0.29052 0.85708 0.77701 0.0
C61 C 0.32885 0.86066 0.80115 0.0
C62 C 0.31926 0.84026 0.76462 0.0
C63 C 0.2818 0.84056 0.73816 0.0
O64 O 0.26916 0.8288 0.66923 0.0
O65 O 0.24012 0.80426 0.68159 0.0
O66 O 0.26589 0.82103 0.73457 0.0
O67 O 0.29294 0.84669 0.72098 0.0
H68 H 0.22158 0.83696 0.69372 0.0
H69 H 0.19537 0.86062 0.6826 0.0
H70 H 0.20799 0.85585 0.61409 0.0
H71 H 0.23417 0.83249 0.62534 0.0
H72 H 0.30434 0.73421 0.6494 0.0
H73 H 0.28572 0.76078 0.66449 0.0
H74 H 0.3616 0.75145 0.70677 0.0
H75 H 0.34341 0.77792 0.72118 0.0
H76 H 0.35237 0.84454 0.7875 0.0
H77 H 0.30077 0.87416 0.80954 0.0
H78 H 0.27353 0.86108 0.77405 0.0
H79 H 0.32469 0.83118 0.75193 0.0
C80 C 0.62073 0.33852 0.76151 0.0
C81 C 0.6328 0.3612 0.76524 0.0
C82 C 0.61414 0.3684 0.7281 0.0
C83 C 0.62943 0.37598 0.74878 0.0
C84 C 0.60244 0.34562 0.72431 0.0
C85 C 0.60566 0.33088 0.74085 0.0
U86 U 0.65901 0.32257 0.8115 0.0
O87 O 0.65079 0.30947 0.84396 0.0
O88 O 0.6654 0.29091 0.8212 0.0
C89 C 0.65825 0.29203 0.84075 0.0
C90 C 0.62374 0.32277 0.77893 0.0
C91 C 0.646 0.27124 0.85006 0.0
C92 C 0.61239 0.23841 0.85062 0.0
C93 C 0.62293 0.25798 0.84066 0.0
C94 C 0.64788 0.24534 0.87922 0.0
C95 C 0.62482 0.23182 0.87002 0.0
C96 C 0.65829 0.26474 0.86935 0.0
C97 C 0.72158 0.36345 0.83026 0.0
C98 C 0.74983 0.35973 0.86291 0.0
C99 C 0.76004 0.39125 0.84019 0.0
C100 C 0.73793 0.38318 0.82606 0.0
C101 C 0.76625 0.3797 0.85885 0.0
C102 C 0.72763 0.35164 0.84868 0.0
C103 C 0.69818 0.35592 0.81544 0.0
O104 O 0.63989 0.31229 0.77682 0.0
O105 O 0.62472 0.32987 0.79982 0.0
O106 O 0.67941 0.35626 0.82475 0.0
O107 O 0.69468 0.33797 0.80249 0.0
H108 H 0.64477 0.36751 0.78094 0.0
H109 H 0.639 0.39333 0.75217 0.0
H110 H 0.59038 0.33921 0.70869 0.0
H111 H 0.59624 0.31348 0.73756 0.0
H112 H 0.59465 0.22834 0.843 0.0
H113 H 0.61315 0.26272 0.82575 0.0
H114 H 0.65783 0.24116 0.89435 0.0
H115 H 0.67607 0.27482 0.87693 0.0
H116 H 0.75416 0.35036 0.87702 0.0
H117 H 0.77203 0.40686 0.83679 0.0
H118 H 0.73346 0.39252 0.81195 0.0
H119 H 0.71515 0.33632 0.85213 0.0
C120 C 0.79374 0.64164 0.34777 0.0
C121 C 0.79161 0.65702 0.36393 0.0
C122 C 0.75753 0.62942 0.37564 0.0
C123 C 0.77362 0.65098 0.3777 0.0
C124 C 0.7597 0.6144 0.35908 0.0
C125 C 0.77751 0.62041 0.34547 0.0
U126 U 0.85093 0.67066 0.31821 0.0
O127 O 0.87394 0.65136 0.30682 0.0
O128 O 0.85124 0.66533 0.28182 0.0
C129 C 0.86703 0.654 0.28549 0.0
C130 C 0.81247 0.64636 0.333 0.0
C131 C 0.87613 0.64475 0.26675 0.0
C132 C 0.89308 0.61729 0.25172 0.0
C133 C 0.88413 0.62576 0.26925 0.0
C134 C 0.88676 0.64689 0.22892 0.0
C135 C 0.8947 0.62781 0.23132 0.0
C136 C 0.87744 0.65513 0.24631 0.0
C137 C 0.87951 0.73176 0.34867 0.0
C138 C 0.89802 0.77156 0.35306 0.0
C139 C 0.88326 0.75207 0.38454 0.0
C140 C 0.87588 0.73203 0.37119 0.0
C141 C 0.89461 0.77216 0.37569 0.0
C142 C 0.89048 0.75172 0.3398 0.0
C143 C 0.87439 0.71122 0.3342 0.0
O144 O 0.81139 0.66006 0.31694 0.0
O145 O 0.83457 0.64664 0.34159 0.0
O146 O 0.87896 0.6936 0.34297 0.0
O147 O 0.8563 0.7067 0.31738 0.0
H148 H 0.80391 0.67354 0.36603 0.0
H149 H 0.77266 0.66303 0.39027 0.0
H150 H 0.74747 0.59787 0.35644 0.0
H151 H 0.77867 0.60828 0.33305 0.0
H152 H 0.89917 0.6027 0.25432 0.0
H153 H 0.8834 0.61737 0.28477 0.0
H154 H 0.8875 0.65536 0.21345 0.0
H155 H 0.87153 0.66985 0.24386 0.0
H156 H 0.90716 0.78636 0.3456 0.0
H157 H 0.88004 0.75177 0.40178 0.0
H158 H 0.86762 0.71682 0.37851 0.0
H159 H 0.89386 0.7519 0.32258 0.0
C160 C 0.75141 0.72682 0.86044 0.0
C161 C 0.76588 0.71795 0.84868 0.0
C162 C 0.78086 0.70315 0.88293 0.0
C163 C 0.78044 0.70611 0.85983 0.0
C164 C 0.76533 0.71102 0.89435 0.0
C165 C 0.75071 0.72286 0.88314 0.0
U166 U 0.75126 0.76698 0.81616 0.0
O167 O 0.72264 0.77825 0.79632 0.0
O168 O 0.75241 0.80196 0.81846 0.0
C169 C 0.73086 0.79817 0.80639 0.0
C170 C 0.74068 0.74328 0.85021 0.0
C171 C 0.71379 0.80477 0.81818 0.0
C172 C 0.69305 0.80143 0.85029 0.0
C173 C 0.70859 0.79494 0.83821 0.0
C174 C 0.68734 0.82738 0.82215 0.0
C175 C 0.68241 0.81776 0.84242 0.0
C176 C 0.70308 0.82092 0.81008 0.0
C177 C 0.79462 0.77365 0.77614 0.0
C178 C 0.79628 0.80406 0.75201 0.0
C179 C 0.82793 0.78576 0.75575 0.0
C180 C 0.81612 0.77143 0.77041 0.0
C181 C 0.81835 0.80249 0.74688 0.0
C182 C 0.78451 0.78976 0.76662 0.0
C183 C 0.78418 0.76116 0.794 0.0
O184 O 0.7557 0.76325 0.85253 0.0
O185 O 0.72859 0.73785 0.82968 0.0
O186 O 0.76131 0.75003 0.78863 0.0
O187 O 0.78932 0.77264 0.81342 0.0
H188 H 0.76699 0.72129 0.83122 0.0
H189 H 0.79249 0.70052 0.8507 0.0
H190 H 0.76522 0.70879 0.91212 0.0
H191 H 0.73985 0.7299 0.89245 0.0
H192 H 0.68938 0.79373 0.8658 0.0
H193 H 0.71677 0.78237 0.8446 0.0
H194 H 0.6795 0.84023 0.81597 0.0
H195 H 0.70708 0.82865 0.79466 0.0
H196 H 0.78843 0.81668 0.74517 0.0
H197 H 0.84507 0.78441 0.75219 0.0
H198 H 0.8242 0.75922 0.77793 0.0
H199 H 0.76799 0.79177 0.77114 0.0
C200 C 0.71984 0.21326 0.29201 0.0
C201 C 0.733 0.20167 0.28156 0.0
C202 C 0.69927 0.18874 0.25069 0.0
C203 C 0.7228 0.18953 0.26099 0.0
C204 C 0.68627 0.20032 0.26148 0.0
C205 C 0.6965 0.21249 0.28183 0.0
U206 U 0.76126 0.22815 0.35 0.0
O207 O 0.7777 0.26145 0.36677 0.0
O208 O 0.75109 0.23678 0.38186 0.0
C209 C 0.76361 0.25761 0.38217 0.0
C210 C 0.7296 0.22618 0.31356 0.0
C211 C 0.75016 0.27386 0.38492 0.0
C212 C 0.71349 0.28544 0.37742 0.0
C213 C 0.72663 0.2707 0.37332 0.0
C214 C 0.74762 0.30721 0.40392 0.0
C215 C 0.72366 0.3037 0.3931 0.0
C216 C 0.76066 0.29242 0.39991 0.0
C217 C 0.80551 0.19141 0.36643 0.0
C218 C 0.83821 0.19365 0.39756 0.0
C219 C 0.8249 0.16195 0.37076 0.0
C220 C 0.80768 0.17098 0.35916 0.0
C221 C 0.84059 0.17316 0.39005 0.0
C222 C 0.82084 0.20275 0.3858 0.0
C223 C 0.78726 0.20006 0.35282 0.0
O224 O 0.72427 0.21574 0.33158 0.0
O225 O 0.75196 0.23875 0.31602 0.0
O226 O 0.79439 0.2198 0.34517 0.0
O227 O 0.76591 0.19573 0.3589 0.0
H228 H 0.75107 0.20202 0.28926 0.0
H229 H 0.73339 0.18093 0.2531 0.0
H230 H 0.66793 0.19969 0.25443 0.0
H231 H 0.68604 0.22123 0.28975 0.0
H232 H 0.69508 0.28205 0.36888 0.0
H233 H 0.7182 0.25656 0.36151 0.0
H234 H 0.75628 0.32131 0.41572 0.0
H235 H 0.77886 0.29529 0.40884 0.0
H236 H 0.85002 0.20282 0.41227 0.0
H237 H 0.8257 0.14598 0.36466 0.0
H238 H 0.79599 0.16191 0.3443 0.0
H239 H 0.81948 0.21858 0.39172 0.0
C240 C 0.32143 0.67969 0.227 0.0
C241 C 0.3175 0.69018 0.207 0.0
C242 C 0.27759 0.66406 0.19702 0.0
C243 C 0.29574 0.6824 0.1921 0.0
C244 C 0.28156 0.65397 0.21733 0.0
C245 C 0.30328 0.66173 0.23216 0.0
U246 U 0.38351 0.72032 0.24685 0.0
O247 O 0.40241 0.73075 0.28153 0.0
O248 O 0.41803 0.71347 0.25868 0.0
C249 C 0.41909 0.72089 0.27946 0.0
C250 C 0.34452 0.68676 0.24238 0.0
C251 C 0.42295 0.70561 0.29705 0.0
C252 C 0.41061 0.67019 0.31378 0.0
C253 C 0.4063 0.68481 0.29744 0.0
C254 C 0.4481 0.69708 0.32971 0.0
C255 C 0.43167 0.67606 0.33009 0.0
C256 C 0.44377 0.71165 0.31338 0.0
C257 C 0.39731 0.77224 0.20956 0.0
C258 C 0.43285 0.7969 0.1979 0.0
C259 C 0.39419 0.80421 0.18863 0.0
C260 C 0.38359 0.78562 0.19964 0.0
C261 C 0.41887 0.80991 0.1872 0.0
C262 C 0.42214 0.77817 0.20892 0.0
C263 C 0.38434 0.75115 0.21792 0.0
O264 O 0.36357 0.68659 0.23343 0.0
O265 O 0.3478 0.70447 0.2556 0.0
O266 O 0.37644 0.75178 0.23716 0.0
O267 O 0.39187 0.73374 0.21465 0.0
H268 H 0.33135 0.70418 0.20283 0.0
H269 H 0.29315 0.6907 0.17673 0.0
H270 H 0.26816 0.63963 0.22151 0.0
H271 H 0.30606 0.65345 0.24752 0.0
H272 H 0.39737 0.65433 0.31367 0.0
H273 H 0.39004 0.67983 0.28503 0.0
H274 H 0.46465 0.70213 0.34173 0.0
H275 H 0.45686 0.72759 0.31335 0.0
H276 H 0.45188 0.8007 0.19706 0.0
H277 H 0.38292 0.81398 0.18102 0.0
H278 H 0.36437 0.78128 0.1998 0.0
H279 H 0.43308 0.76801 0.21633 0.0
C280 C 0.15723 0.30939 0.70873 0.0
C281 C 0.16717 0.3084 0.68902 0.0
C282 C 0.14424 0.26933 0.68134 0.0
C283 C 0.16069 0.28854 0.67543 0.0
C284 C 0.1345 0.27064 0.70113 0.0
C285 C 0.14095 0.29033 0.71459 0.0
U286 U 0.19215 0.36991 0.73377 0.0
O287 O 0.17609 0.39487 0.7458 0.0
O288 O 0.20008 0.3818 0.76972 0.0
C289 C 0.18623 0.39506 0.76687 0.0
C290 C 0.16266 0.32982 0.72352 0.0
C291 C 0.17261 0.39804 0.78529 0.0
C292 C 0.13737 0.4047 0.79835 0.0
C293 C 0.14828 0.39807 0.78113 0.0
C294 C 0.17464 0.41103 0.82432 0.0
C295 C 0.15055 0.41177 0.82013 0.0
C296 C 0.18543 0.40429 0.80722 0.0
C297 C 0.2481 0.39314 0.69866 0.0
C298 C 0.27346 0.42305 0.68059 0.0
C299 C 0.2804 0.38706 0.68036 0.0
C300 C 0.26146 0.37925 0.69261 0.0
C301 C 0.28675 0.40911 0.6742 0.0
C302 C 0.25425 0.41511 0.69249 0.0
C303 C 0.22785 0.38477 0.71136 0.0
O304 O 0.18205 0.33421 0.73896 0.0
O305 O 0.15901 0.34754 0.71424 0.0
O306 O 0.20673 0.38833 0.70559 0.0
O307 O 0.22976 0.37315 0.7291 0.0
H308 H 0.17981 0.3229 0.68415 0.0
H309 H 0.16874 0.28819 0.66044 0.0
H310 H 0.12144 0.25651 0.70611 0.0
H311 H 0.13293 0.29071 0.72961 0.0
H312 H 0.11886 0.40514 0.79431 0.0
H313 H 0.13786 0.39367 0.76441 0.0
H314 H 0.18538 0.41594 0.84084 0.0
H315 H 0.20425 0.40476 0.81099 0.0
H316 H 0.27763 0.44005 0.67604 0.0
H317 H 0.29028 0.37586 0.67597 0.0
H318 H 0.25709 0.36224 0.69715 0.0
H319 H 0.24432 0.42621 0.69702 0.0
Pr320 Pr 1.00698 0.01802 0.54173 0.0
Pr321 Pr 0.03572 0.02489 0.51227 0.0
C322 C 0.97085 1.01045 0.56587 0.0
C323 C 0.96115 0.99455 0.5819 0.0
C324 C 0.96735 1.00045 0.60507 0.0
C325 C 0.95899 0.98533 0.62054 0.0
C326 C 0.94409 0.96414 0.61306 0.0
C327 C 0.93758 0.95832 0.58988 0.0
C328 C 0.94606 0.97341 0.57439 0.0
C329 C 0.04488 0.0563 0.55646 0.0
C330 C 0.04836 0.99474 0.55403 0.0
C331 C 0.07228 0.03211 0.48874 0.0
C332 C 0.08511 0.04983 0.47648 0.0
C333 C 0.10171 0.04595 0.46373 0.0
C334 C 0.11275 0.06222 0.45045 0.0
C335 C 0.1072 0.08247 0.44985 0.0
C336 C 0.0909 0.08646 0.46311 0.0
C337 C 0.07986 0.07015 0.47639 0.0
C338 C 0.99803 0.98638 0.49784 0.0
C339 C 0.99497 0.04871 0.50059 0.0
O340 O 0.96787 1.00322 0.54487 0.0
O341 O 0.99214 0.02396 0.57284 0.0
O342 O 0.03317 0.0525 0.53664 0.0
O343 O 0.03885 0.03928 0.56824 0.0
O344 O 0.05772 1.00948 0.54037 0.0
O345 O 0.02577 0.99181 0.55621 0.0
O346 O 0.07544 0.03587 0.51052 0.0
O347 O 0.0499 0.02286 0.47983 0.0
O348 O 1.00991 0.99041 0.51757 0.0
O349 O 1.00394 1.00324 0.48585 0.0
O350 O 0.98507 0.03308 0.51315 0.0
O351 O 1.01789 0.05225 0.4995 0.0
H352 H 0.97885 1.01672 0.61127 0.0
H353 H 0.96434 0.99015 0.63834 0.0
H354 H 0.92569 0.9422 0.5837 0.0
H355 H 0.9408 0.96847 0.55661 0.0
H356 H 0.10567 0.03018 0.46364 0.0
H357 H 0.12502 0.05869 0.44011 0.0
H358 H 0.08655 0.10205 0.46303 0.0
H359 H 0.06694 0.07321 0.48623 0.0
Pr360 Pr 0.49812 0.02316 0.03292 0.0
Pr361 Pr 0.54709 1.01297 1.01865 0.0
C362 C 0.46062 0.02349 0.05271 0.0
C363 C 0.45315 0.04141 0.06219 0.0
C364 C 0.45522 0.06119 0.05129 0.0
C365 C 0.45087 0.07913 0.06184 0.0
C366 C 0.44479 0.07763 0.08353 0.0
C367 C 0.44255 0.05772 0.09424 0.0
C368 C 0.44659 0.03971 0.08357 0.0
C369 C 0.51991 0.05442 1.00406 0.0
C370 C 0.55269 0.04885 0.06166 0.0
C371 C 0.58479 1.01302 0.99895 0.0
C372 C 0.59301 0.99549 0.98963 0.0
C373 C 0.59373 0.97672 1.00157 0.0
C374 C 0.59888 0.95903 0.99135 0.0
C375 C 0.60299 0.95978 0.96898 0.0
C376 C 0.60255 0.97874 0.95724 0.0
C377 C 0.59772 0.9965 0.96755 0.0
C378 C 0.52517 0.98216 0.04776 0.0
C379 C 0.49264 0.98583 0.99098 0.0
O380 O 0.48048 0.02055 0.0638 0.0
O381 O 0.45916 0.02218 0.03072 0.0
O382 O 0.52657 0.03835 1.01175 0.0
O383 O 0.50025 0.0547 1.01145 0.0
O384 O 0.56315 0.04152 0.04641 0.0
O385 O 0.52907 0.04332 0.0612 0.0
O386 O 0.56472 1.01544 0.98777 0.0
O387 O 0.58617 1.01444 1.02091 0.0
O388 O 0.51863 0.998 0.0395 0.0
O389 O 0.54506 0.98172 0.04089 0.0
O390 O 0.4824 0.9933 1.00638 0.0
O391 O 0.51615 0.99231 0.99071 0.0
H392 H 0.46072 0.06297 0.03488 0.0
H393 H 0.45246 0.09419 0.0531 0.0
H394 H 0.43838 0.05621 0.11116 0.0
H395 H 0.44541 0.0247 0.09234 0.0
H396 H 0.58979 0.97545 1.01858 0.0
H397 H 0.59938 0.94471 1.00084 0.0
H398 H 0.60519 0.97961 0.93982 0.0
H399 H 0.59682 1.01073 0.95802 0.0
Pr400 Pr 0.52716 0.54466 0.54161 0.0
Pr401 Pr 0.52222 0.49759 0.51508 0.0
C402 C 0.51766 0.58076 0.55805 0.0
C403 C 0.50071 0.58805 0.57027 0.0
C404 C 0.50898 0.59873 0.59182 0.0
C405 C 0.49416 0.60804 0.60257 0.0
C406 C 0.47072 0.60705 0.59194 0.0
C407 C 0.46218 0.5957 0.57064 0.0
C408 C 0.47698 0.58631 0.55994 0.0
C409 C 0.551 0.51658 0.56405 0.0
C410 C 0.48052 0.4992 0.54652 0.0
C411 C 0.53443 0.4608 0.50565 0.0
C412 C 0.54945 0.45238 0.49192 0.0
C413 C 0.53862 0.43522 0.47521 0.0
C414 C 0.55275 0.42529 0.46412 0.0
C415 C 0.57803 0.4322 0.46966 0.0
C416 C 0.58884 0.44995 0.48574 0.0
C417 C 0.57477 0.45994 0.49671 0.0
C418 C 0.50252 0.52494 0.48634 0.0
C419 C 0.56649 0.54363 0.50798 0.0
O420 O 0.50963 0.57224 0.53742 0.0
O421 O 0.53278 0.5714 0.56933 0.0
O422 O 0.53048 0.51093 0.55196 0.0
O423 O 0.56002 0.53803 0.56561 0.0
O424 O 0.48896 0.48634 0.5342 0.0
O425 O 0.49092 0.52082 0.55015 0.0
O426 O 0.54592 0.47525 0.52237 0.0
O427 O 0.51455 0.46451 0.49545 0.0
O428 O 0.5123 0.52894 0.50664 0.0
O429 O 0.50177 0.50488 0.48003 0.0
O430 O 0.55608 0.55646 0.51796 0.0
O431 O 0.55891 0.52173 0.50782 0.0
H432 H 0.52718 0.6004 0.60017 0.0
H433 H 0.50125 0.61632 0.6191 0.0
H434 H 0.44439 0.59481 0.56178 0.0
H435 H 0.47002 0.57829 0.54327 0.0
H436 H 0.51918 0.42898 0.47125 0.0
H437 H 0.54384 0.41157 0.45191 0.0
H438 H 0.60826 0.45592 0.49015 0.0
H439 H 0.58381 0.47319 0.5094 0.0
Pr440 Pr 0.02395 0.54032 1.01114 0.0
Pr441 Pr 0.02337 0.50405 0.0392 0.0
C442 C 1.01632 0.5731 0.98593 0.0
C443 C 1.00007 0.5871 0.98364 0.0
C444 C 1.00964 0.6099 0.98243 0.0
C445 C 0.99442 0.62346 0.97947 0.0
C446 C 0.96937 0.61434 0.97751 0.0
C447 C 0.95992 0.59151 0.97928 0.0
C448 C 0.97516 0.57801 0.98247 0.0
C449 C 0.06738 0.54691 0.04041 0.0
C450 C 1.00008 0.54021 0.05809 0.0
C451 C 0.0304 0.47158 0.06517 0.0
C452 C 0.04329 0.45488 0.06569 0.0
C453 C 0.03511 0.43565 0.07679 0.0
C454 C 0.04866 0.42066 0.07963 0.0
C455 C 0.07065 0.42487 0.0715 0.0
C456 C 0.07802 0.44356 0.05917 0.0
C457 C 0.06436 0.45845 0.05621 0.0
C458 C 0.97971 0.49785 1.01055 0.0
C459 C 0.04729 0.50392 0.99201 0.0
O460 O 1.00682 0.55218 0.97959 0.0
O461 O 0.03202 0.57656 1.00442 0.0
O462 O 0.04678 0.53991 0.04585 0.0
O463 O 0.06601 0.54986 1.01906 0.0
O464 O 1.01159 0.52564 0.06448 0.0
O465 O 0.99895 0.54624 0.0371 0.0
O466 O 0.04374 0.49207 0.06871 0.0
O467 O 1.01196 0.46875 0.04914 0.0
O468 O 1.00017 0.50456 1.0047 0.0
O469 O 0.98143 0.49503 0.03195 0.0
O470 O 0.03777 0.51998 0.98617 0.0
O471 O 0.04655 0.49643 1.01237 0.0
H472 H 0.02888 0.61717 0.98355 0.0
H473 H 1.00224 0.64103 0.9785 0.0
H474 H 0.94068 0.58391 0.97749 0.0
H475 H 0.96739 0.56044 0.9836 0.0
H476 H 1.01867 0.43263 0.08392 0.0
H477 H 0.04243 0.40622 0.08892 0.0
H478 H 0.09501 0.44736 0.05293 0.0
H479 H 0.07075 0.47318 0.04736 0.0
C480 C 0.17658 0.21096 0.30903 0.0
C481 C 0.20151 0.21533 0.30953 0.0
C482 C 0.16519 0.19676 0.32398 0.0
C483 C 0.17211 0.15107 0.35774 0.0
H484 H 0.12855 0.16751 0.39271 0.0
C485 C 0.14199 0.10364 0.43274 0.0
C486 C 0.11753 0.09892 0.43453 0.0
C487 C 0.15142 0.11814 0.41718 0.0
C488 C 0.14044 0.16262 0.38283 0.0
H489 H 0.23423 0.20906 0.32648 0.0
H490 H 0.21423 0.18404 0.35237 0.0
H491 H 0.14627 0.19235 0.36533 0.0
H492 H 0.08368 0.10554 0.42174 0.0
H493 H 0.10023 0.13098 0.39443 0.0
H494 H 0.16635 0.12137 0.37512 0.0
C495 C 0.20352 0.19136 0.34024 0.0
C496 C 0.15053 0.17679 0.36723 0.0
C497 C 0.21491 0.20563 0.32546 0.0
C498 C 0.1027 0.1092 0.42085 0.0
C499 C 0.11213 0.12369 0.40525 0.0
C500 C 0.16196 0.13688 0.37323 0.0
C501 C 0.17857 0.18669 0.33947 0.0
C502 C 0.16668 0.17122 0.35485 0.0
C503 C 0.1365 0.12807 0.40314 0.0
C504 C 0.14634 0.1427 0.38611 0.0
H505 H 0.1658 0.21802 0.29672 0.0
H506 H 0.14587 0.19323 0.32308 0.0
H507 H 0.18423 0.14631 0.34804 0.0
H508 H 0.15379 0.09607 0.44334 0.0
H509 H 0.17039 0.1216 0.41614 0.0
C510 C 0.36047 0.8599 0.83442 0.0
C511 C 0.34655 0.87144 0.82128 0.0
C512 C 0.37674 0.87041 0.85358 0.0
C513 C 0.38945 0.91915 0.89371 0.0
H514 H 0.45213 0.90925 0.90977 0.0
C515 C 0.45221 0.96075 0.97439 0.0
C516 C 0.47674 0.96974 0.97307 0.0
C517 C 0.43675 0.94661 0.95699 0.0
C518 C 0.43474 0.91229 0.90542 0.0
H519 H 0.3397 0.90327 0.81719 0.0
H520 H 0.36809 0.92158 0.85008 0.0
H521 H 0.42455 0.88905 0.87677 0.0
H522 H 0.50437 0.97032 0.95265 0.0
H523 H 0.4772 0.946 0.92198 0.0
H524 H 0.39979 0.943 0.92157 0.0
C525 C 0.36598 0.90426 0.84622 0.0
C526 C 0.41882 0.90051 0.88667 0.0
C527 C 0.34969 0.89376 0.8273 0.0
C528 C 0.48557 0.96372 0.95419 0.0
C529 C 0.47 0.94965 0.93666 0.0
C530 C 0.40535 0.93099 0.91226 0.0
C531 C 0.37949 0.89269 0.85981 0.0
C532 C 0.39608 0.90403 0.88043 0.0
C533 C 0.44531 0.94121 0.93769 0.0
C534 C 0.42825 0.92783 0.91832 0.0
H535 H 0.35841 0.84266 0.83017 0.0
H536 H 0.38677 0.86098 0.86374 0.0
H537 H 0.37193 0.922 0.8897 0.0
H538 H 0.4448 0.96477 0.98878 0.0
H539 H 0.41797 0.94003 0.95862 0.0
C540 C 0.60927 0.37885 0.68772 0.0
C541 C 0.61015 0.38418 0.71068 0.0
C542 C 0.60499 0.39343 0.67136 0.0
C543 C 0.60324 0.45201 0.66416 0.0
H544 H 0.56593 0.42721 0.60619 0.0
C545 C 0.5828 0.50833 0.59295 0.0
C546 C 0.56023 0.5013 0.57903 0.0
C547 C 0.59053 0.49412 0.60812 0.0
C548 C 0.57616 0.43453 0.62233 0.0
H549 H 0.60705 0.40912 0.7343 0.0
H550 H 0.59901 0.43422 0.7059 0.0
H551 H 0.57546 0.40281 0.63448 0.0
H552 H 0.52814 0.47374 0.56998 0.0
H553 H 0.54105 0.44939 0.59669 0.0
H554 H 0.60282 0.4837 0.6524 0.0
C555 C 0.60225 0.41905 0.70044 0.0
C556 C 0.58203 0.42044 0.63855 0.0
C557 C 0.60679 0.40457 0.71682 0.0
C558 C 0.54572 0.47967 0.58037 0.0
C559 C 0.55327 0.46559 0.59567 0.0
C560 C 0.59711 0.46611 0.64802 0.0
C561 C 0.60118 0.4137 0.67741 0.0
C562 C 0.59557 0.42891 0.65981 0.0
C563 C 0.57575 0.47258 0.60993 0.0
C564 C 0.58331 0.45761 0.62687 0.0
H565 H 0.61215 0.36346 0.68239 0.0
H566 H 0.60486 0.3888 0.65394 0.0
H567 H 0.61404 0.45933 0.6801 0.0
H568 H 0.59443 0.52489 0.59225 0.0
H569 H 0.60813 0.50009 0.61842 0.0
C570 C 0.89848 0.59616 0.20702 0.0
C571 C 0.9047 0.61898 0.21274 0.0
C572 C 0.90786 0.58788 0.18971 0.0
C573 C 0.94139 0.60541 0.14098 0.0
H574 H 0.95046 0.5471 0.14513 0.0
C575 C 0.97433 0.56399 0.06893 0.0
C576 C 0.98854 0.54965 0.07492 0.0
C577 C 0.96361 0.57253 0.08511 0.0
C578 C 0.94842 0.56355 0.14368 0.0
H579 H 0.92612 0.6509 0.20465 0.0
H580 H 0.94306 0.63659 0.17517 0.0
H581 H 0.93409 0.56187 0.17438 0.0
H582 H 1.0028 0.53349 0.10302 0.0
H583 H 0.98499 0.54862 0.13093 0.0
H584 H 0.95688 0.60742 0.11077 0.0
C585 C 0.93032 0.62496 0.1835 0.0
C586 C 0.93848 0.57196 0.16045 0.0
C587 C 0.92064 0.63325 0.2006 0.0
C588 C 0.99185 0.5443 0.09757 0.0
C589 C 0.98136 0.55292 0.11369 0.0
C590 C 0.95162 0.59708 0.12431 0.0
C591 C 0.92413 0.60208 0.17769 0.0
C592 C 0.93473 0.59307 0.15948 0.0
C593 C 0.96688 0.56709 0.10782 0.0
C594 C 0.95541 0.576 0.12537 0.0
H595 H 0.88599 0.58465 0.2157 0.0
H596 H 0.902 0.57024 0.18565 0.0
H597 H 0.93857 0.62155 0.13917 0.0
H598 H 0.97132 0.56851 0.05169 0.0
H599 H 0.95244 0.58314 0.07964 0.0
C600 C 0.37078 0.18239 0.19509 0.0
C601 C 0.37375 0.20522 0.19629 0.0
C602 C 0.38544 0.17374 0.18383 0.0
C603 C 0.41812 0.18149 0.13802 0.0
H604 H 0.44249 0.13531 0.16558 0.0
C605 C 0.45661 0.11825 0.09395 0.0
C606 C 0.44138 0.09687 0.09532 0.0
C607 C 0.45415 0.13612 0.10635 0.0
C608 C 0.43627 0.14852 0.15787 0.0
H609 H 0.39426 0.23692 0.18649 0.0
H610 H 0.41964 0.22143 0.16607 0.0
H611 H 0.42802 0.15931 0.18869 0.0
H612 H 0.41098 0.07761 0.10979 0.0
H613 H 0.40734 0.10867 0.13198 0.0
H614 H 0.42496 0.16951 0.10685 0.0
C615 C 0.40609 0.21048 0.1742 0.0
C616 C 0.42799 0.16212 0.17098 0.0
C617 C 0.39154 0.21923 0.18575 0.0
C618 C 0.42334 0.09377 0.10882 0.0
C619 C 0.42117 0.11148 0.1214 0.0
C620 C 0.42653 0.16784 0.12485 0.0
C621 C 0.40322 0.18771 0.1734 0.0
C622 C 0.41774 0.1779 0.16092 0.0
C623 C 0.43675 0.13262 0.12045 0.0
C624 C 0.4345 0.15066 0.13463 0.0
H625 H 0.35676 0.17111 0.20242 0.0
H626 H 0.38251 0.156 0.18283 0.0
H627 H 0.41014 0.19355 0.12999 0.0
H628 H 0.47083 0.12108 0.08383 0.0
H629 H 0.4662 0.15245 0.10547 0.0
C630 C 0.19033 0.89109 0.62489 0.0
C631 C 0.18384 0.87492 0.64037 0.0
C632 C 0.17544 0.9044 0.61763 0.0
C633 C 0.1123 0.90703 0.61213 0.0
H634 H 0.1411 0.96851 0.60232 0.0
C635 C 0.05435 0.96601 0.58143 0.0
C636 C 0.06327 0.98144 0.56602 0.0
C637 C 0.06861 0.95335 0.59217 0.0
C638 C 0.13267 0.95132 0.60468 0.0
H639 H 0.15635 0.86031 0.66038 0.0
H640 H 0.13044 0.88369 0.64785 0.0
H641 H 0.1666 0.94608 0.61784 0.0
H642 H 0.09424 0.99542 0.54979 0.0
H643 H 0.11864 0.97332 0.56797 0.0
H644 H 0.07836 0.91221 0.59861 0.0
C645 C 0.14706 0.88593 0.64119 0.0
C646 C 0.14738 0.93842 0.61367 0.0
C647 C 0.16206 0.87266 0.64857 0.0
C648 C 0.08675 0.98387 0.56167 0.0
C649 C 0.1009 0.97122 0.57228 0.0
C650 C 0.09755 0.91994 0.60303 0.0
C651 C 0.15351 0.90197 0.62556 0.0
C652 C 0.13749 0.916 0.61726 0.0
C653 C 0.09214 0.95578 0.58776 0.0
C654 C 0.10755 0.94223 0.59885 0.0
H655 H 0.20707 0.89357 0.61839 0.0
H656 H 0.18097 0.91636 0.60542 0.0
H657 H 0.104 0.8898 0.61447 0.0
H658 H 0.03635 0.9637 0.5852 0.0
H659 H 0.06124 0.94183 0.60412 0.0
C660 C 0.81044 0.39955 0.86571 0.0
C661 C 0.78941 0.38905 0.87431 0.0
C662 C 0.83169 0.41023 0.88021 0.0
C663 C 0.86221 0.41551 0.93945 0.0
H664 H 0.89707 0.47341 0.92342 0.0
C665 C 0.93658 0.47567 1.00259 0.0
C666 C 0.95759 0.48715 0.99456 0.0
C667 C 0.91633 0.46356 0.98765 0.0
C668 C 0.88772 0.45717 0.92802 0.0
H669 H 0.77449 0.38097 0.90494 0.0
H670 H 0.81161 0.39958 0.93026 0.0
H671 H 0.86175 0.45147 0.8979 0.0
H672 H 0.97374 0.49551 0.96463 0.0
H673 H 0.93832 0.47432 0.93847 0.0
H674 H 0.88813 0.42132 0.96967 0.0
C675 C 0.81169 0.39941 0.91228 0.0
C676 C 0.86749 0.44456 0.91338 0.0
C677 C 0.79041 0.38872 0.89777 0.0
C678 C 0.95775 0.48685 0.97127 0.0
C679 C 0.93745 0.47475 0.9563 0.0
C680 C 0.88246 0.42813 0.95411 0.0
C681 C 0.83244 0.41066 0.90365 0.0
C682 C 0.85444 0.42362 0.91895 0.0
C683 C 0.91663 0.46272 0.96436 0.0
C684 C 0.89536 0.44916 0.94861 0.0
H685 H 0.81042 0.39972 0.84773 0.0
H686 H 0.8475 0.41832 0.87302 0.0
H687 H 0.85276 0.39932 0.9441 0.0
H688 H 0.93593 0.47565 1.02047 0.0
H689 H 0.90044 0.45481 0.99437 0.0
C690 C 0.73289 0.6005 0.39782 0.0
C691 C 0.73873 0.62219 0.39063 0.0
C692 C 0.71479 0.59317 0.41102 0.0
C693 C 0.66152 0.60635 0.42929 0.0
H694 H 0.66839 0.56329 0.47299 0.0
C695 C 0.59321 0.57646 0.49167 0.0
C696 C 0.58702 0.55384 0.49583 0.0
C697 C 0.61182 0.58562 0.47936 0.0
C698 C 0.66597 0.57515 0.46073 0.0
H699 H 0.72972 0.65318 0.39218 0.0
H700 H 0.69863 0.64062 0.41573 0.0
H701 H 0.70033 0.57783 0.45121 0.0
H702 H 0.59593 0.52328 0.49012 0.0
H703 H 0.62812 0.53914 0.46893 0.0
H704 H 0.62713 0.60369 0.43912 0.0
C705 C 0.70784 0.62908 0.41077 0.0
C706 C 0.68439 0.58353 0.4481 0.0
C707 C 0.72599 0.63643 0.39745 0.0
C708 C 0.60013 0.54076 0.48743 0.0
C709 C 0.61879 0.54993 0.4753 0.0
C710 C 0.64311 0.59803 0.44206 0.0
C711 C 0.7019 0.60728 0.41778 0.0
C712 C 0.68244 0.59911 0.43196 0.0
C713 C 0.62495 0.5725 0.471 0.0
C714 C 0.64493 0.58212 0.45785 0.0
H715 H 0.7424 0.58902 0.39333 0.0
H716 H 0.71071 0.57619 0.41561 0.0
H717 H 0.65903 0.61807 0.41692 0.0
H718 H 0.5835 0.58709 0.49771 0.0
H719 H 0.61608 0.60309 0.47661 0.0
C720 C 0.23905 0.34876 0.12974 0.0
C721 C 0.24287 0.34773 0.15323 0.0
C722 C 0.22188 0.35848 0.11934 0.0
C723 C 0.1826 0.39302 0.13109 0.0
H724 H 0.14061 0.36036 0.07805 0.0
C725 C 0.09127 0.40633 0.10093 0.0
C726 C 0.08737 0.41164 0.07838 0.0
C727 C 0.10996 0.39741 0.10867 0.0
C728 C 0.15232 0.36965 0.09277 0.0
H729 H 0.23313 0.35753 0.1844 0.0
H730 H 0.20252 0.37347 0.16633 0.0
H731 H 0.17594 0.34916 0.09426 0.0
H732 H 0.09877 0.41034 0.04588 0.0
H733 H 0.13175 0.39473 0.05959 0.0
H734 H 0.15846 0.413 0.13001 0.0
C735 C 0.21291 0.36713 0.15584 0.0
C736 C 0.17263 0.36341 0.10195 0.0
C737 C 0.23026 0.35773 0.16621 0.0
C738 C 0.10157 0.40658 0.06339 0.0
C739 C 0.12028 0.39756 0.07116 0.0
C740 C 0.16218 0.39905 0.1221 0.0
C741 C 0.20814 0.36715 0.13227 0.0
C742 C 0.18784 0.37492 0.12135 0.0
C743 C 0.12505 0.39363 0.09401 0.0
C744 C 0.14678 0.38727 0.10304 0.0
H745 H 0.24842 0.34111 0.11929 0.0
H746 H 0.21892 0.35866 0.10116 0.0
H747 H 0.19419 0.40248 0.14577 0.0
H748 H 0.0808 0.41025 0.11294 0.0
H749 H 0.11317 0.39419 0.12632 0.0
C750 C 0.6283 0.19799 0.89038 0.0
C751 C 0.61395 0.21124 0.88109 0.0
C752 C 0.61866 0.17958 0.90216 0.0
C753 C 0.56043 0.14132 0.91223 0.0
H754 H 0.59949 0.12969 0.96607 0.0
C755 C 0.51932 0.0849 0.97856 0.0
C756 C 0.53157 0.0704 0.98859 0.0
C757 C 0.52992 0.10057 0.96433 0.0
C758 C 0.58845 0.13251 0.95091 0.0
H759 H 0.57796 0.21512 0.87679 0.0
H760 H 0.56115 0.18314 0.89735 0.0
H761 H 0.61658 0.1599 0.9434 0.0
H762 H 0.5647 0.061 0.99168 0.0
H763 H 0.58351 0.08868 0.96674 0.0
H764 H 0.53215 0.11424 0.92008 0.0
C765 C 0.57986 0.18679 0.89529 0.0
C766 C 0.59825 0.14986 0.93785 0.0
C767 C 0.5895 0.2052 0.88345 0.0
C768 C 0.55479 0.0719 0.98406 0.0
C769 C 0.56558 0.08783 0.96992 0.0
C770 C 0.55062 0.12408 0.92535 0.0
C771 C 0.59436 0.17382 0.90502 0.0
C772 C 0.58429 0.15468 0.91843 0.0
C773 C 0.5532 0.10233 0.95983 0.0
C774 C 0.56439 0.1196 0.94501 0.0
H775 H 0.6471 0.20185 0.88857 0.0
H776 H 0.63032 0.1698 0.90894 0.0
H777 H 0.54925 0.14412 0.89717 0.0
H778 H 0.50144 0.08422 0.98177 0.0
H779 H 0.52 0.11165 0.95719 0.0
C780 C 0.91278 0.79453 0.41285 0.0
C781 C 0.90333 0.79365 0.38978 0.0
C782 C 0.92187 0.81481 0.42562 0.0
C783 C 0.9217 0.87419 0.42461 0.0
H784 H 0.97774 0.88343 0.47102 0.0
C785 C 0.97462 0.96132 0.46445 0.0
C786 C 0.98494 0.96388 0.48735 0.0
C787 C 0.96382 0.94031 0.45367 0.0
C788 C 0.96188 0.88109 0.45834 0.0
H789 H 0.89564 0.81393 0.36245 0.0
H790 H 0.91223 0.84891 0.38424 0.0
H791 H 0.96082 0.84762 0.45022 0.0
H792 H 0.99163 0.94619 0.51699 0.0
H793 H 0.97239 0.90935 0.49826 0.0
H794 H 0.92289 0.90768 0.43251 0.0
C795 C 0.9123 0.83394 0.3927 0.0
C796 C 0.95212 0.86045 0.44635 0.0
C797 C 0.90306 0.81372 0.38002 0.0
C798 C 0.98381 0.9448 0.49934 0.0
C799 C 0.97296 0.92367 0.48851 0.0
C800 C 0.93149 0.8948 0.43653 0.0
C801 C 0.9219 0.83488 0.41572 0.0
C802 C 0.93195 0.85669 0.42915 0.0
C803 C 0.96291 0.92111 0.46545 0.0
C804 C 0.95185 0.89867 0.45348 0.0
H805 H 0.91362 0.77959 0.42104 0.0
H806 H 0.92878 0.81468 0.44332 0.0
H807 H 0.90588 0.87197 0.41191 0.0
H808 H 0.97527 0.97563 0.45465 0.0
H809 H 0.95671 0.93918 0.43587 0.0
C810 C 0.37244 0.73267 0.66928 0.0
C811 C 0.34721 0.72594 0.66747 0.0
C812 C 0.38465 0.71875 0.66141 0.0
C813 C 0.379 0.66041 0.64498 0.0
H814 H 0.43385 0.68751 0.61609 0.0
C815 C 0.43066 0.61016 0.60017 0.0
C816 C 0.45583 0.61896 0.60233 0.0
C817 C 0.41668 0.62216 0.60868 0.0
C818 C 0.41878 0.67966 0.62437 0.0
H819 H 0.31505 0.69908 0.65587 0.0
H820 H 0.33643 0.67481 0.64154 0.0
H821 H 0.41057 0.71015 0.62907 0.0
H822 H 0.48591 0.64732 0.6155 0.0
H823 H 0.46175 0.6678 0.63078 0.0
H824 H 0.38734 0.62981 0.64008 0.0
C825 C 0.34675 0.69086 0.6494 0.0
C826 C 0.40537 0.69268 0.63182 0.0
C827 C 0.33446 0.70487 0.65736 0.0
C828 C 0.46666 0.63983 0.6137 0.0
C829 C 0.45272 0.65176 0.62221 0.0
C830 C 0.39247 0.64731 0.63746 0.0
C831 C 0.37203 0.69771 0.65125 0.0
C832 C 0.38545 0.68332 0.64245 0.0
C833 C 0.42751 0.64327 0.61951 0.0
C834 C 0.41269 0.65684 0.62725 0.0
H835 H 0.38289 0.74886 0.67671 0.0
H836 H 0.40412 0.7245 0.6635 0.0
H837 H 0.36391 0.65266 0.65327 0.0
H838 H 0.42171 0.59404 0.59177 0.0
H839 H 0.39732 0.61513 0.6062 0.0
C840 C 0.8346 0.84168 0.73841 0.0
C841 C 0.83211 0.81924 0.73361 0.0
C842 C 0.84809 0.85771 0.72638 0.0
C843 C 0.89582 0.86739 0.6919 0.0
H844 H 0.8705 0.91542 0.67104 0.0
C845 C 0.93385 0.92598 0.62618 0.0
C846 C 0.93474 0.94828 0.62935 0.0
C847 C 0.92328 0.91068 0.6406 0.0
C848 C 0.87795 0.90229 0.67708 0.0
H849 H 0.84148 0.79583 0.71252 0.0
H850 H 0.86504 0.82399 0.69121 0.0
H851 H 0.84731 0.88731 0.69234 0.0
H852 H 0.92612 0.97231 0.65036 0.0
H853 H 0.90812 0.94557 0.67592 0.0
H854 H 0.92637 0.88232 0.67637 0.0
C855 C 0.8568 0.82913 0.7045 0.0
C856 C 0.86467 0.8862 0.68918 0.0
C857 C 0.84333 0.81306 0.71659 0.0
C858 C 0.92576 0.95521 0.64764 0.0
C859 C 0.91527 0.93992 0.6621 0.0
C860 C 0.90912 0.88351 0.67977 0.0
C861 C 0.85929 0.85156 0.70934 0.0
C862 C 0.87346 0.86859 0.69663 0.0
C863 C 0.91354 0.91749 0.65842 0.0
C864 C 0.90023 0.90103 0.67222 0.0
H865 H 0.8265 0.84688 0.75178 0.0
H866 H 0.85006 0.87493 0.73066 0.0
H867 H 0.9031 0.85411 0.69776 0.0
H868 H 0.94099 0.92033 0.61236 0.0
H869 H 0.922 0.89343 0.63733 0.0
C870 C 0.69137 0.15484 0.22476 0.0
C871 C 0.68781 0.17553 0.22915 0.0
C872 C 0.67879 0.14165 0.20543 0.0
C873 C 0.63933 0.14268 0.15041 0.0
H874 H 0.61798 0.07948 0.15635 0.0
C875 C 0.56153 0.08055 0.09022 0.0
C876 C 0.56858 0.06354 0.08044 0.0
C877 C 0.5771 0.09466 0.10771 0.0
C878 C 0.62391 0.09711 0.15451 0.0
H879 H 0.6692 0.19905 0.21583 0.0
H880 H 0.64634 0.17572 0.18312 0.0
H881 H 0.64402 0.10345 0.18777 0.0
H882 H 0.59699 0.0475 0.08145 0.0
H883 H 0.62375 0.07166 0.11261 0.0
H884 H 0.61803 0.13611 0.11742 0.0
C885 C 0.65916 0.1697 0.19424 0.0
C886 C 0.63905 0.11088 0.1724 0.0
C887 C 0.67202 0.183 0.21331 0.0
C888 C 0.5912 0.06061 0.08863 0.0
C889 C 0.60645 0.07431 0.10646 0.0
C890 C 0.62375 0.12893 0.13274 0.0
C891 C 0.66208 0.14868 0.19016 0.0
C892 C 0.64694 0.13389 0.17064 0.0
C893 C 0.59959 0.09152 0.11601 0.0
C894 C 0.61592 0.10608 0.1347 0.0
H895 H 0.70329 0.14848 0.2366 0.0
H896 H 0.68198 0.1258 0.20267 0.0
H897 H 0.6454 0.1602 0.14813 0.0
H898 H 0.54422 0.08317 0.08411 0.0
H899 H 0.57149 0.10783 0.11495 0.0
C900 C 0.43124 0.6375 0.34099 0.0
C901 C 0.43684 0.66021 0.34704 0.0
C902 C 0.43702 0.6228 0.35656 0.0
C903 C 0.45427 0.61694 0.418 0.0
H904 H 0.4785 0.5705 0.39652 0.0
C905 C 0.49827 0.56283 0.47828 0.0
C906 C 0.49339 0.54038 0.47156 0.0
C907 C 0.49039 0.57737 0.46366 0.0
C908 C 0.47148 0.58318 0.40282 0.0
H909 H 0.45233 0.68499 0.37472 0.0
H910 H 0.46288 0.65951 0.40163 0.0
H911 H 0.46639 0.59564 0.37019 0.0
H912 H 0.47628 0.51555 0.44433 0.0
H913 H 0.4624 0.54069 0.41897 0.0
H914 H 0.45962 0.60449 0.45072 0.0
C915 C 0.45381 0.65299 0.38485 0.0
C916 C 0.46448 0.59764 0.38765 0.0
C917 C 0.44802 0.6677 0.36928 0.0
C918 C 0.48035 0.53277 0.45001 0.0
C919 C 0.47252 0.54725 0.4354 0.0
C920 C 0.46133 0.60246 0.43321 0.0
C921 C 0.44861 0.63034 0.37867 0.0
C922 C 0.45576 0.61475 0.39497 0.0
C923 C 0.47758 0.56981 0.44191 0.0
C924 C 0.47001 0.58535 0.42582 0.0
H925 H 0.42286 0.63108 0.32402 0.0
H926 H 0.43237 0.60546 0.3512 0.0
H927 H 0.44735 0.62968 0.42427 0.0
H928 H 0.50868 0.56927 0.49459 0.0
H929 H 0.49493 0.59466 0.46919 0.0
C930 C 0.15364 0.43887 0.85286 0.0
C931 C 0.13976 0.42068 0.83817 0.0
C932 C 0.1438 0.44741 0.86965 0.0
C933 C 0.09304 0.43374 0.90282 0.0
H934 H 0.11113 0.49714 0.91538 0.0
C935 C 0.06546 0.47464 0.97889 0.0
C936 C 0.05863 0.49416 0.9752 0.0
C937 C 0.07535 0.46535 0.96255 0.0
C938 C 0.10572 0.47939 0.9121 0.0
H939 H 0.1043 0.39727 0.83014 0.0
H940 H 0.08711 0.41221 0.85928 0.0
H941 H 0.12752 0.48173 0.88619 0.0
H942 H 0.05719 0.51915 0.95119 0.0
H943 H 0.07437 0.50318 0.92308 0.0
H944 H 0.071 0.4315 0.92863 0.0
C945 C 0.10578 0.4198 0.85787 0.0
C946 C 0.11538 0.47048 0.89541 0.0
C947 C 0.11561 0.41134 0.84093 0.0
C948 C 0.06221 0.50416 0.95479 0.0
C949 C 0.07226 0.49501 0.93861 0.0
C950 C 0.0835 0.44267 0.91966 0.0
C951 C 0.11969 0.43806 0.87248 0.0
C952 C 0.1092 0.44749 0.89042 0.0
C953 C 0.07896 0.47541 0.94213 0.0
C954 C 0.08959 0.46567 0.92453 0.0
H955 H 0.17218 0.44681 0.85123 0.0
H956 H 0.15527 0.46129 0.88059 0.0
H957 H 0.08795 0.41598 0.89972 0.0
H958 H 0.06298 0.4664 0.99433 0.0
H959 H 0.08045 0.45038 0.96608 0.0
C960 C 0.64496 0.82807 0.84565 0.0
C961 C 0.66702 0.82537 0.85589 0.0
C962 C 0.63121 0.83666 0.85828 0.0
C963 C 0.62626 0.85292 0.91652 0.0
H964 H 0.60927 0.90216 0.88776 0.0
C965 C 0.59323 0.91905 0.96051 0.0
C966 C 0.60691 0.94064 0.95752 0.0
C967 C 0.59584 0.90115 0.94831 0.0
C968 C 0.61366 0.88828 0.89587 0.0
H969 H 0.69192 0.82889 0.88722 0.0
H970 H 0.6683 0.8445 0.90915 0.0
H971 H 0.62138 0.87591 0.86567 0.0
H972 H 0.63483 0.96037 0.94044 0.0
H973 H 0.63894 0.92919 0.91882 0.0
H974 H 0.62007 0.86652 0.94715 0.0
C975 C 0.66118 0.8394 0.89161 0.0
C976 C 0.62032 0.87312 0.88322 0.0
C977 C 0.6748 0.83064 0.87904 0.0
C978 C 0.62366 0.94398 0.94267 0.0
C979 C 0.62603 0.9262 0.93034 0.0
C980 C 0.61959 0.86819 0.92922 0.0
C981 C 0.63951 0.8429 0.88123 0.0
C982 C 0.62755 0.85578 0.89361 0.0
C983 C 0.61189 0.90475 0.93283 0.0
C984 C 0.61422 0.88639 0.91907 0.0
H985 H 0.63853 0.82381 0.82785 0.0
H986 H 0.61444 0.83903 0.84995 0.0
H987 H 0.6315 0.83952 0.92483 0.0
H988 H 0.58001 0.91603 0.97171 0.0
H989 H 0.58489 0.88464 0.95045 0.0
C990 C 0.87096 0.15158 0.38977 0.0
C991 C 0.8591 0.16318 0.40203 0.0
C992 C 0.88697 0.14081 0.40075 0.0
C993 C 0.9031 0.11829 0.45589 0.0
H994 H 0.95763 0.1124 0.4296 0.0
C995 C 0.9554 0.05668 0.48838 0.0
C996 C 0.98043 0.06233 0.48869 0.0
C997 C 0.9416 0.06975 0.47799 0.0
C998 C 0.94267 0.11403 0.43738 0.0
H999 H 0.85556 0.17292 0.43575 0.0
H1000 H 0.88401 0.15472 0.45494 0.0
H1001 H 0.93297 0.13477 0.41206 0.0
H1002 H 1.01052 0.08629 0.47814 0.0
H1003 H 0.98658 0.10939 0.46039 0.0
H1004 H 0.91317 0.09809 0.48156 0.0
C1005 C 0.8805 0.15353 0.43671 0.0
C1006 C 0.92824 0.12668 0.42709 0.0
C1007 C 0.86438 0.16427 0.42569 0.0
C1008 C 0.99128 0.08137 0.47814 0.0
C1009 C 0.97746 0.09458 0.46785 0.0
C1010 C 0.9176 0.10576 0.46624 0.0
C1011 C 0.89184 0.14139 0.42441 0.0
C1012 C 0.90807 0.12884 0.43605 0.0
C1013 C 0.95239 0.08905 0.46772 0.0
C1014 C 0.93748 0.1032 0.45704 0.0
H1015 H 0.86775 0.15065 0.37154 0.0
H1016 H 0.89504 0.13154 0.39057 0.0
H1017 H 0.88766 0.11927 0.46325 0.0
H1018 H 0.94636 0.04207 0.49619 0.0
H1019 H 0.92235 0.06454 0.47787 0.0
C1020 C 0.25566 0.65282 0.15753 0.0
C1021 C 0.25502 0.65477 0.18071 0.0
C1022 C 0.23479 0.64231 0.1424 0.0
C1023 C 0.17618 0.60096 0.1406 0.0
H1024 H 0.16147 0.62149 0.0813 0.0
C1025 C 0.08792 0.55921 0.07989 0.0
C1026 C 0.08915 0.55766 0.05683 0.0
C1027 C 0.10792 0.57131 0.09517 0.0
C1028 C 0.16548 0.61537 0.0977 0.0
H1029 H 0.23163 0.64824 0.20598 0.0
H1030 H 0.19526 0.62985 0.17961 0.0
H1031 H 0.19643 0.64316 0.10753 0.0
H1032 H 0.11239 0.5669 0.03174 0.0
H1033 H 0.14751 0.58753 0.05845 0.0
H1034 H 0.1455 0.57304 0.13075 0.0
C1035 C 0.21201 0.63609 0.17319 0.0
C1036 C 0.18547 0.62785 0.11275 0.0
C1037 C 0.23285 0.64663 0.1883 0.0
C1038 C 0.11093 0.56788 0.04942 0.0
C1039 C 0.13097 0.57988 0.0647 0.0
C1040 C 0.15626 0.58845 0.12554 0.0
C1041 C 0.21282 0.63348 0.15013 0.0
C1042 C 0.1911 0.62074 0.13435 0.0
C1043 C 0.12963 0.58199 0.08773 0.0
C1044 C 0.1507 0.59544 0.10386 0.0
H1045 H 0.27247 0.65866 0.15113 0.0
H1046 H 0.23607 0.64038 0.12477 0.0
H1047 H 0.18024 0.59483 0.15699 0.0
H1048 H 0.0713 0.55159 0.08606 0.0
H1049 H 0.10615 0.57276 0.11273 0.0
C1050 C 0.31027 0.40443 0.64331 0.0
C1051 C 0.30701 0.4175 0.66111 0.0
C1052 C 0.32901 0.41239 0.63088 0.0
C1053 C 0.38771 0.45627 0.6328 0.0
H1054 H 0.37699 0.44155 0.56856 0.0
C1055 C 0.45431 0.50153 0.57547 0.0
C1056 C 0.45982 0.48907 0.55846 0.0
C1057 C 0.43592 0.49207 0.58775 0.0
C1058 C 0.38042 0.44565 0.58652 0.0
H1059 H 0.32151 0.44925 0.67986 0.0
H1060 H 0.3538 0.46322 0.65812 0.0
H1061 H 0.34485 0.42672 0.59034 0.0
H1062 H 0.44979 0.45667 0.54105 0.0
H1063 H 0.41738 0.44023 0.56229 0.0
H1064 H 0.42315 0.47546 0.62888 0.0
C1065 C 0.34201 0.44667 0.6538 0.0
C1066 C 0.36193 0.43708 0.5991 0.0
C1067 C 0.32321 0.43874 0.66616 0.0
C1068 C 0.44607 0.46685 0.55392 0.0
C1069 C 0.42741 0.45742 0.56609 0.0
C1070 C 0.40611 0.46492 0.6202 0.0
C1071 C 0.34522 0.43367 0.63588 0.0
C1072 C 0.3652 0.44235 0.62245 0.0
C1073 C 0.42221 0.46986 0.58335 0.0
C1074 C 0.40272 0.45988 0.59684 0.0
H1075 H 0.29808 0.38808 0.63874 0.0
H1076 H 0.3309 0.40169 0.61745 0.0
H1077 H 0.39129 0.46039 0.65075 0.0
H1078 H 0.46447 0.51865 0.57963 0.0
H1079 H 0.43233 0.50231 0.60064 0.0
C1080 C 0.81307 0.70491 0.9157 0.0
C1081 C 0.79932 0.69409 0.89542 0.0
C1082 C 0.83239 0.69803 0.92628 0.0
C1083 C 0.87482 0.66799 0.91394 0.0
H1084 H 0.88748 0.66523 0.97879 0.0
C1085 C 0.95744 0.64426 0.95625 0.0
C1086 C 0.95293 0.62821 0.97213 0.0
C1087 C 0.94045 0.65534 0.94895 0.0
C1088 C 0.88414 0.6659 0.96066 0.0
H1089 H 0.79435 0.66715 0.87069 0.0
H1090 H 0.82796 0.65488 0.88936 0.0
H1091 H 0.85289 0.67689 0.96155 0.0
H1092 H 0.92789 0.61231 0.99398 0.0
H1093 H 0.89779 0.63097 0.98057 0.0
H1094 H 0.90536 0.65611 0.91288 0.0
C1095 C 0.82408 0.66895 0.89684 0.0
C1096 C 0.86448 0.67274 0.95082 0.0
C1097 C 0.8048 0.67587 0.88623 0.0
C1098 C 0.93166 0.6243 0.98141 0.0
C1099 C 0.91457 0.63523 0.97396 0.0
C1100 C 0.89437 0.66105 0.92375 0.0
C1101 C 0.83828 0.68018 0.91678 0.0
C1102 C 0.85948 0.67359 0.92735 0.0
C1103 C 0.91854 0.65044 0.95724 0.0
C1104 C 0.89908 0.65971 0.94719 0.0
H1105 H 0.80954 0.71929 0.92292 0.0
H1106 H 0.84319 0.70715 0.94148 0.0
H1107 H 0.87164 0.66887 0.89583 0.0
H1108 H 0.97359 0.64756 0.94865 0.0
H1109 H 0.94417 0.66728 0.93633 0.0
C1110 C 0.45286 0.84302 0.1813 0.0
C1111 C 0.4296 0.82886 0.17391 0.0
C1112 C 0.46281 0.86065 0.16864 0.0
C1113 C 0.44697 0.89656 0.12447 0.0
H1114 H 0.51258 0.90524 0.11445 0.0
C1115 C 0.48836 0.95824 0.06079 0.0
C1116 C 0.51346 0.96718 0.06386 0.0
C1117 C 0.47776 0.94222 0.07489 0.0
C1118 C 0.49442 0.90357 0.11737 0.0
H1119 H 0.39881 0.82211 0.14703 0.0
H1120 H 0.41604 0.85292 0.12523 0.0
H1121 H 0.49521 0.87646 0.13805 0.0
H1122 H 0.54707 0.96758 0.08465 0.0
H1123 H 0.52878 0.9413 0.11032 0.0
H1124 H 0.44622 0.92398 0.10435 0.0
C1125 C 0.42645 0.85056 0.14098 0.0
C1126 C 0.4844 0.88683 0.13089 0.0
C1127 C 0.41657 0.83288 0.15355 0.0
C1128 C 0.52767 0.96068 0.08181 0.0
C1129 C 0.51709 0.94533 0.09636 0.0
C1130 C 0.45714 0.91363 0.11126 0.0
C1131 C 0.44972 0.86463 0.14832 0.0
C1132 C 0.46052 0.88301 0.13451 0.0
C1133 C 0.492 0.93531 0.09283 0.0
C1134 C 0.48105 0.91739 0.10737 0.0
H1135 H 0.46331 0.84065 0.19702 0.0
H1136 H 0.48069 0.87133 0.17489 0.0
H1137 H 0.42856 0.89418 0.12709 0.0
H1138 H 0.47705 0.9629 0.0469 0.0
H1139 H 0.45848 0.93485 0.0712 0.0
C1140 C 0.13291 0.24752 0.64342 0.0
C1141 C 0.13684 0.24797 0.66712 0.0
C1142 C 0.12414 0.22736 0.63037 0.0
C1143 C 0.09155 0.16798 0.63515 0.0
H1144 H 0.11074 0.15887 0.57771 0.0
C1145 C 0.06569 0.0812 0.59069 0.0
C1146 C 0.05773 0.07873 0.5673 0.0
C1147 C 0.07597 0.10214 0.60172 0.0
C1148 C 0.105 0.1612 0.59362 0.0
H1149 H 0.13591 0.22714 0.69543 0.0
H1150 H 0.12093 0.19239 0.67296 0.0
H1151 H 0.1278 0.19457 0.59908 0.0
H1152 H 0.05501 0.09654 0.53705 0.0
H1153 H 0.07325 0.13336 0.55637 0.0
H1154 H 0.06894 0.1347 0.62987 0.0
C1155 C 0.12386 0.20756 0.66431 0.0
C1156 C 0.11479 0.18173 0.60591 0.0
C1157 C 0.13256 0.22763 0.67729 0.0
C1158 C 0.06099 0.09785 0.55508 0.0
C1159 C 0.07149 0.11895 0.56617 0.0
C1160 C 0.08191 0.14753 0.62297 0.0
C1161 C 0.11908 0.20704 0.64064 0.0
C1162 C 0.10838 0.18539 0.627 0.0
C1163 C 0.07876 0.12138 0.58974 0.0
C1164 C 0.08862 0.1437 0.60211 0.0
H1165 H 0.13582 0.26277 0.6349 0.0
H1166 H 0.12062 0.22776 0.61223 0.0
H1167 H 0.08555 0.17016 0.65095 0.0
H1168 H 0.06357 0.06689 0.60066 0.0
H1169 H 0.08172 0.10323 0.61977 0.0
C1170 C 0.71152 0.32625 0.42158 0.0
C1171 C 0.70903 0.31828 0.39912 0.0
C1172 C 0.69724 0.33908 0.42768 0.0
C1173 C 0.65734 0.37308 0.40535 0.0
H1174 H 0.63466 0.36182 0.46243 0.0
C1175 C 0.58821 0.41295 0.43694 0.0
C1176 C 0.59307 0.4201 0.45988 0.0
C1177 C 0.60207 0.40095 0.4282 0.0
C1178 C 0.64101 0.36536 0.44654 0.0
H1179 H 0.68971 0.31818 0.36536 0.0
H1180 H 0.66431 0.34016 0.37617 0.0
H1181 H 0.65917 0.3403 0.44959 0.0
H1182 H 0.6163 0.42012 0.49159 0.0
H1183 H 0.64047 0.39955 0.47639 0.0
H1184 H 0.63885 0.39815 0.4024 0.0
C1185 C 0.67758 0.33663 0.38901 0.0
C1186 C 0.65514 0.35301 0.43917 0.0
C1187 C 0.69198 0.3238 0.38286 0.0
C1188 C 0.61219 0.41511 0.4738 0.0
C1189 C 0.6259 0.40307 0.46512 0.0
C1190 C 0.64305 0.38544 0.41273 0.0
C1191 C 0.67984 0.3442 0.41158 0.0
C1192 C 0.66383 0.35689 0.41865 0.0
C1193 C 0.62089 0.39563 0.44228 0.0
C1194 C 0.63502 0.38192 0.43359 0.0
H1195 H 0.72415 0.32217 0.43468 0.0
H1196 H 0.69983 0.34492 0.44516 0.0
H1197 H 0.66379 0.37662 0.38951 0.0
H1198 H 0.57372 0.41667 0.42574 0.0
H1199 H 0.59769 0.39541 0.41054 0.0
loop_
_geom_bond_atom_site_label_1
_geom_bond_atom_site_label_2
_geom_bond_distance
_geom_bond_site_symmetry_2
_ccdc_geom_bond_type
C0 C1 1.264 . S
C0 C5 1.479 . S
C0 C10 1.465 . S
C1 C0 1.264 . S
C1 C3 1.339 . S
C1 H28 0.931 . S
C2 C3 1.395 . S
C2 C4 1.320 . S
C3 C1 1.339 . S
C3 C2 1.395 . S
C3 H29 0.929 . S
C4 C2 1.320 . S
C4 C5 1.405 . S
C4 H30 0.930 . S
C5 C0 1.479 . S
C5 C4 1.405 . S
C5 H31 0.931 . S
U6 O7 2.454 . S
U6 O8 2.458 . S
U6 C9 2.984 . S
U6 C10 2.847 . S
U6 C23 2.882 . S
U6 O24 2.441 . S
U6 O25 2.420 . S
U6 O26 2.455 . S
U6 O27 2.449 . S
O7 U6 2.454 . S
O7 C9 1.353 . S
O8 U6 2.458 . S
O8 C9 1.286 . S
C9 U6 2.984 . S
C9 O7 1.353 . S
C9 O8 1.286 . S
C9 C11 1.363 . S
C10 C0 1.465 . S
C10 U6 2.847 . S
C10 O24 1.249 . S
C10 O25 1.202 . S
C11 C9 1.363 . S
C11 C13 1.408 . S
C11 C16 1.342 . S
C12 C13 1.310 . S
C12 C15 1.461 . S
C12 H32 0.932 . S
C13 C11 1.408 . S
C13 C12 1.310 . S
C13 H33 0.930 . S
C14 C15 1.474 . S
C14 C16 1.285 . S
C14 H34 0.929 . S
C15 C12 1.461 . S
C15 C14 1.474 . S
C16 C11 1.342 . S
C16 C14 1.285 . S
C16 H35 0.930 . S
C17 C20 1.424 . S
C17 C22 1.245 . S
C17 C23 1.428 . S
C18 C21 1.260 . S
C18 C22 1.477 . S
C18 H36 0.932 . S
C19 C20 1.384 . S
C19 C21 1.479 . S
C19 H37 0.929 . S
C20 C17 1.424 . S
C20 C19 1.384 . S
C20 H38 0.928 . S
C21 C18 1.260 . S
C21 C19 1.479 . S
C22 C17 1.245 . S
C22 C18 1.477 . S
C22 H39 0.932 . S
C23 U6 2.882 . S
C23 C17 1.428 . S
C23 O26 1.301 . S
C23 O27 1.282 . S
O24 U6 2.441 . S
O24 C10 1.249 . S
O25 U6 2.420 . S
O25 C10 1.202 . S
O26 U6 2.455 . S
O26 C23 1.301 . S
O27 U6 2.449 . S
O27 C23 1.282 . S
H28 C1 0.931 . S
H29 C3 0.929 . S
H30 C4 0.930 . S
H31 C5 0.931 . S
H32 C12 0.932 . S
H33 C13 0.930 . S
H34 C14 0.929 . S
H35 C16 0.930 . S
H36 C18 0.932 . S
H37 C19 0.929 . S
H38 C20 0.928 . S
H39 C22 0.932 . S
C40 C41 1.264 . S
C40 C45 1.479 . S
C40 C50 1.465 . S
C41 C40 1.264 . S
C41 C43 1.339 . S
C41 H68 0.931 . S
C42 C43 1.395 . S
C42 C44 1.320 . S
C43 C41 1.339 . S
C43 C42 1.395 . S
C43 H69 0.929 . S
C44 C42 1.320 . S
C44 C45 1.405 . S
C44 H70 0.930 . S
C45 C40 1.479 . S
C45 C44 1.405 . S
C45 H71 0.931 . S
U46 O47 2.454 . S
U46 O48 2.458 . S
U46 C49 2.984 . S
U46 C50 2.847 . S
U46 C63 2.882 . S
U46 O64 2.441 . S
U46 O65 2.420 . S
U46 O66 2.455 . S
U46 O67 2.449 . S
O47 U46 2.454 . S
O47 C49 1.353 . S
O48 U46 2.458 . S
O48 C49 1.286 . S
C49 U46 2.984 . S
C49 O47 1.353 . S
C49 O48 1.286 . S
C49 C51 1.363 . S
C50 C40 1.465 . S
C50 U46 2.847 . S
C50 O64 1.249 . S
C50 O65 1.202 . S
C51 C49 1.363 . S
C51 C53 1.408 . S
C51 C56 1.342 . S
C52 C53 1.310 . S
C52 C55 1.461 . S
C52 H72 0.932 . S
C53 C51 1.408 . S
C53 C52 1.310 . S
C53 H73 0.930 . S
C54 C55 1.474 . S
C54 C56 1.285 . S
C54 H74 0.929 . S
C55 C52 1.461 . S
C55 C54 1.474 . S
C56 C51 1.342 . S
C56 C54 1.285 . S
C56 H75 0.930 . S
C57 C60 1.424 . S
C57 C62 1.245 . S
C57 C63 1.428 . S
C58 C61 1.260 . S
C58 C62 1.477 . S
C58 H76 0.932 . S
C59 C60 1.384 . S
C59 C61 1.479 . S
C59 H77 0.929 . S
C60 C57 1.424 . S
C60 C59 1.384 . S
C60 H78 0.928 . S
C61 C58 1.260 . S
C61 C59 1.479 . S
C62 C57 1.245 . S
C62 C58 1.477 . S
C62 H79 0.932 . S
C63 U46 2.882 . S
C63 C57 1.428 . S
C63 O66 1.301 . S
C63 O67 1.282 . S
O64 U46 2.441 . S
O64 C50 1.249 . S
O65 U46 2.420 . S
O65 C50 1.202 . S
O66 U46 2.455 . S
O66 C63 1.301 . S
O67 U46 2.449 . S
O67 C63 1.282 . S
H68 C41 0.931 . S
H69 C43 0.929 . S
H70 C44 0.930 . S
H71 C45 0.931 . S
H72 C52 0.932 . S
H73 C53 0.930 . S
H74 C54 0.929 . S
H75 C56 0.930 . S
H76 C58 0.932 . S
H77 C59 0.929 . S
H78 C60 0.928 . S
H79 C62 0.932 . S
C80 C81 1.264 . S
C80 C85 1.479 . S
C80 C90 1.465 . S
C81 C80 1.264 . S
C81 C83 1.339 . S
C81 H108 0.931 . S
C82 C83 1.395 . S
C82 C84 1.320 . S
C83 C81 1.339 . S
C83 C82 1.395 . S
C83 H109 0.929 . S
C84 C82 1.320 . S
C84 C85 1.405 . S
C84 H110 0.930 . S
C85 C80 1.479 . S
C85 C84 1.405 . S
C85 H111 0.931 . S
U86 O87 2.454 . S
U86 O88 2.458 . S
U86 C89 2.984 . S
U86 C90 2.847 . S
U86 C103 2.882 . S
U86 O104 2.441 . S
U86 O105 2.420 . S
U86 O106 2.455 . S
U86 O107 2.449 . S
O87 U86 2.454 . S
O87 C89 1.353 . S
O88 U86 2.458 . S
O88 C89 1.286 . S
C89 U86 2.984 . S
C89 O87 1.353 . S
C89 O88 1.286 . S
C89 C91 1.363 . S
C90 C80 1.465 . S
C90 U86 2.847 . S
C90 O104 1.249 . S
C90 O105 1.202 . S
C91 C89 1.363 . S
C91 C93 1.408 . S
C91 C96 1.342 . S
C92 C93 1.310 . S
C92 C95 1.461 . S
C92 H112 0.932 . S
C93 C91 1.408 . S
C93 C92 1.310 . S
C93 H113 0.930 . S
C94 C95 1.474 . S
C94 C96 1.285 . S
C94 H114 0.929 . S
C95 C92 1.461 . S
C95 C94 1.474 . S
C96 C91 1.342 . S
C96 C94 1.285 . S
C96 H115 0.930 . S
C97 C100 1.424 . S
C97 C102 1.245 . S
C97 C103 1.428 . S
C98 C101 1.260 . S
C98 C102 1.477 . S
C98 H116 0.932 . S
C99 C100 1.384 . S
C99 C101 1.479 . S
C99 H117 0.929 . S
C100 C97 1.424 . S
C100 C99 1.384 . S
C100 H118 0.928 . S
C101 C98 1.260 . S
C101 C99 1.479 . S
C102 C97 1.245 . S
C102 C98 1.477 . S
C102 H119 0.932 . S
C103 U86 2.882 . S
C103 C97 1.428 . S
C103 O106 1.301 . S
C103 O107 1.282 . S
O104 U86 2.441 . S
O104 C90 1.249 . S
O105 U86 2.420 . S
O105 C90 1.202 . S
O106 U86 2.455 . S
O106 C103 1.301 . S
O107 U86 2.449 . S
O107 C103 1.282 . S
H108 C81 0.931 . S
H109 C83 0.929 . S
H110 C84 0.930 . S
H111 C85 0.931 . S
H112 C92 0.932 . S
H113 C93 0.930 . S
H114 C94 0.929 . S
H115 C96 0.930 . S
H116 C98 0.932 . S
H117 C99 0.929 . S
H118 C100 0.928 . S
H119 C102 0.932 . S
C120 C121 1.264 . S
C120 C125 1.479 . S
C120 C130 1.465 . S
C121 C120 1.264 . S
C121 C123 1.339 . S
C121 H148 0.931 . S
C122 C123 1.395 . S
C122 C124 1.320 . S
C123 C121 1.339 . S
C123 C122 1.395 . S
C123 H149 0.929 . S
C124 C122 1.320 . S
C124 C125 1.405 . S
C124 H150 0.930 . S
C125 C120 1.479 . S
C125 C124 1.405 . S
C125 H151 0.931 . S
U126 O127 2.454 . S
U126 O128 2.458 . S
U126 C129 2.984 . S
U126 C130 2.847 . S
U126 C143 2.882 . S
U126 O144 2.441 . S
U126 O145 2.420 . S
U126 O146 2.455 . S
U126 O147 2.449 . S
O127 U126 2.454 . S
O127 C129 1.353 . S
O128 U126 2.458 . S
O128 C129 1.286 . S
C129 U126 2.984 . S
C129 O127 1.353 . S
C129 O128 1.286 . S
C129 C131 1.363 . S
C130 C120 1.465 . S
C130 U126 2.847 . S
C130 O144 1.249 . S
C130 O145 1.202 . S
C131 C129 1.363 . S
C131 C133 1.408 . S
C131 C136 1.342 . S
C132 C133 1.310 . S
C132 C135 1.461 . S
C132 H152 0.932 . S
C133 C131 1.408 . S
C133 C132 1.310 . S
C133 H153 0.930 . S
C134 C135 1.474 . S
C134 C136 1.285 . S
C134 H154 0.929 . S
C135 C132 1.461 . S
C135 C134 1.474 . S
C136 C131 1.342 . S
C136 C134 1.285 . S
C136 H155 0.930 . S
C137 C140 1.424 . S
C137 C142 1.245 . S
C137 C143 1.428 . S
C138 C141 1.260 . S
C138 C142 1.477 . S
C138 H156 0.932 . S
C139 C140 1.384 . S
C139 C141 1.479 . S
C139 H157 0.929 . S
C140 C137 1.424 . S
C140 C139 1.384 . S
C140 H158 0.928 . S
C141 C138 1.260 . S
C141 C139 1.479 . S
C142 C137 1.245 . S
C142 C138 1.477 . S
C142 H159 0.932 . S
C143 U126 2.882 . S
C143 C137 1.428 . S
C143 O146 1.301 . S
C143 O147 1.282 . S
O144 U126 2.441 . S
O144 C130 1.249 . S
O145 U126 2.420 . S
O145 C130 1.202 . S
O146 U126 2.455 . S
O146 C143 1.301 . S
O147 U126 2.449 . S
O147 C143 1.282 . S
H148 C121 0.931 . S
H149 C123 0.929 . S
H150 C124 0.930 . S
H151 C125 0.931 . S
H152 C132 0.932 . S
H153 C133 0.930 . S
H154 C134 0.929 . S
H155 C136 0.930 . S
H156 C138 0.932 . S
H157 C139 0.929 . S
H158 C140 0.928 . S
H159 C142 0.932 . S
C160 C161 1.264 . S
C160 C165 1.479 . S
C160 C170 1.465 . S
C161 C160 1.264 . S
C161 C163 1.339 . S
C161 H188 0.931 . S
C162 C163 1.395 . S
C162 C164 1.320 . S
C163 C161 1.339 . S
C163 C162 1.395 . S
C163 H189 0.929 . S
C164 C162 1.320 . S
C164 C165 1.405 . S
C164 H190 0.930 . S
C165 C160 1.479 . S
C165 C164 1.405 . S
C165 H191 0.931 . S
U166 O167 2.454 . S
U166 O168 2.458 . S
U166 C169 2.984 . S
U166 C170 2.847 . S
U166 C183 2.882 . S
U166 O184 2.441 . S
U166 O185 2.420 . S
U166 O186 2.455 . S
U166 O187 2.449 . S
O167 U166 2.454 . S
O167 C169 1.353 . S
O168 U166 2.458 . S
O168 C169 1.286 . S
C169 U166 2.984 . S
C169 O167 1.353 . S
C169 O168 1.286 . S
C169 C171 1.363 . S
C170 C160 1.465 . S
C170 U166 2.847 . S
C170 O184 1.249 . S
C170 O185 1.202 . S
C171 C169 1.363 . S
C171 C173 1.408 . S
C171 C176 1.342 . S
C172 C173 1.310 . S
C172 C175 1.461 . S
C172 H192 0.932 . S
C173 C171 1.408 . S
C173 C172 1.310 . S
C173 H193 0.930 . S
C174 C175 1.474 . S
C174 C176 1.285 . S
C174 H194 0.929 . S
C175 C172 1.461 . S
C175 C174 1.474 . S
C176 C171 1.342 . S
C176 C174 1.285 . S
C176 H195 0.930 . S
C177 C180 1.424 . S
C177 C182 1.245 . S
C177 C183 1.428 . S
C178 C181 1.260 . S
C178 C182 1.477 . S
C178 H196 0.932 . S
C179 C180 1.384 . S
C179 C181 1.479 . S
C179 H197 0.929 . S
C180 C177 1.424 . S
C180 C179 1.384 . S
C180 H198 0.928 . S
C181 C178 1.260 . S
C181 C179 1.479 . S
C182 C177 1.245 . S
C182 C178 1.477 . S
C182 H199 0.932 . S
C183 U166 2.882 . S
C183 C177 1.428 . S
C183 O186 1.301 . S
C183 O187 1.282 . S
O184 U166 2.441 . S
O184 C170 1.249 . S
O185 U166 2.420 . S
O185 C170 1.202 . S
O186 U166 2.455 . S
O186 C183 1.301 . S
O187 U166 2.449 . S
O187 C183 1.282 . S
H188 C161 0.931 . S
H189 C163 0.929 . S
H190 C164 0.930 . S
H191 C165 0.931 . S
H192 C172 0.932 . S
H193 C173 0.930 . S
H194 C174 0.929 . S
H195 C176 0.930 . S
H196 C178 0.932 . S
H197 C179 0.929 . S
H198 C180 0.928 . S
H199 C182 0.932 . S
C200 C201 1.264 . S
C200 C205 1.479 . S
C200 C210 1.465 . S
C201 C200 1.264 . S
C201 C203 1.339 . S
C201 H228 0.931 . S
C202 C203 1.395 . S
C202 C204 1.320 . S
C203 C201 1.339 . S
C203 C202 1.395 . S
C203 H229 0.929 . S
C204 C202 1.320 . S
C204 C205 1.405 . S
C204 H230 0.930 . S
C205 C200 1.479 . S
C205 C204 1.405 . S
C205 H231 0.931 . S
U206 O207 2.454 . S
U206 O208 2.458 . S
U206 C209 2.984 . S
U206 C210 2.847 . S
U206 C223 2.882 . S
U206 O224 2.441 . S
U206 O225 2.420 . S
U206 O226 2.455 . S
U206 O227 2.449 . S
O207 U206 2.454 . S
O207 C209 1.353 . S
O208 U206 2.458 . S
O208 C209 1.286 . S
C209 U206 2.984 . S
C209 O207 1.353 . S
C209 O208 1.286 . S
C209 C211 1.363 . S
C210 C200 1.465 . S
C210 U206 2.847 . S
C210 O224 1.249 . S
C210 O225 1.202 . S
C211 C209 1.363 . S
C211 C213 1.408 . S
C211 C216 1.342 . S
C212 C213 1.310 . S
C212 C215 1.461 . S
C212 H232 0.932 . S
C213 C211 1.408 . S
C213 C212 1.310 . S
C213 H233 0.930 . S
C214 C215 1.474 . S
C214 C216 1.285 . S
C214 H234 0.929 . S
C215 C212 1.461 . S
C215 C214 1.474 . S
C216 C211 1.342 . S
C216 C214 1.285 . S
C216 H235 0.930 . S
C217 C220 1.424 . S
C217 C222 1.245 . S
C217 C223 1.428 . S
C218 C221 1.260 . S
C218 C222 1.477 . S
C218 H236 0.932 . S
C219 C220 1.384 . S
C219 C221 1.479 . S
C219 H237 0.929 . S
C220 C217 1.424 . S
C220 C219 1.384 . S
C220 H238 0.928 . S
C221 C218 1.260 . S
C221 C219 1.479 . S
C222 C217 1.245 . S
C222 C218 1.477 . S
C222 H239 0.932 . S
C223 U206 2.882 . S
C223 C217 1.428 . S
C223 O226 1.301 . S
C223 O227 1.282 . S
O224 U206 2.441 . S
O224 C210 1.249 . S
O225 U206 2.420 . S
O225 C210 1.202 . S
O226 U206 2.455 . S
O226 C223 1.301 . S
O227 U206 2.449 . S
O227 C223 1.282 . S
H228 C201 0.931 . S
H229 C203 0.929 . S
H230 C204 0.930 . S
H231 C205 0.931 . S
H232 C212 0.932 . S
H233 C213 0.930 . S
H234 C214 0.929 . S
H235 C216 0.930 . S
H236 C218 0.932 . S
H237 C219 0.929 . S
H238 C220 0.928 . S
H239 C222 0.932 . S
C240 C241 1.264 . S
C240 C245 1.479 . S
C240 C250 1.465 . S
C241 C240 1.264 . S
C241 C243 1.339 . S
C241 H268 0.931 . S
C242 C243 1.395 . S
C242 C244 1.320 . S
C243 C241 1.339 . S
C243 C242 1.395 . S
C243 H269 0.929 . S
C244 C242 1.320 . S
C244 C245 1.405 . S
C244 H270 0.930 . S
C245 C240 1.479 . S
C245 C244 1.405 . S
C245 H271 0.931 . S
U246 O247 2.454 . S
U246 O248 2.458 . S
U246 C249 2.984 . S
U246 C250 2.847 . S
U246 C263 2.882 . S
U246 O264 2.441 . S
U246 O265 2.420 . S
U246 O266 2.455 . S
U246 O267 2.449 . S
O247 U246 2.454 . S
O247 C249 1.353 . S
O248 U246 2.458 . S
O248 C249 1.286 . S
C249 U246 2.984 . S
C249 O247 1.353 . S
C249 O248 1.286 . S
C249 C251 1.363 . S
C250 C240 1.465 . S
C250 U246 2.847 . S
C250 O264 1.249 . S
C250 O265 1.202 . S
C251 C249 1.363 . S
C251 C253 1.408 . S
C251 C256 1.342 . S
C252 C253 1.310 . S
C252 C255 1.461 . S
C252 H272 0.932 . S
C253 C251 1.408 . S
C253 C252 1.310 . S
C253 H273 0.930 . S
C254 C255 1.474 . S
C254 C256 1.285 . S
C254 H274 0.929 . S
C255 C252 1.461 . S
C255 C254 1.474 . S
C256 C251 1.342 . S
C256 C254 1.285 . S
C256 H275 0.930 . S
C257 C260 1.424 . S
C257 C262 1.245 . S
C257 C263 1.428 . S
C258 C261 1.260 . S
C258 C262 1.477 . S
C258 H276 0.932 . S
C259 C260 1.384 . S
C259 C261 1.479 . S
C259 H277 0.929 . S
C260 C257 1.424 . S
C260 C259 1.384 . S
C260 H278 0.928 . S
C261 C258 1.260 . S
C261 C259 1.479 . S
C262 C257 1.245 . S
C262 C258 1.477 . S
C262 H279 0.932 . S
C263 U246 2.882 . S
C263 C257 1.428 . S
C263 O266 1.301 . S
C263 O267 1.282 . S
O264 U246 2.441 . S
O264 C250 1.249 . S
O265 U246 2.420 . S
O265 C250 1.202 . S
O266 U246 2.455 . S
O266 C263 1.301 . S
O267 U246 2.449 . S
O267 C263 1.282 . S
H268 C241 0.931 . S
H269 C243 0.929 . S
H270 C244 0.930 . S
H271 C245 0.931 . S
H272 C252 0.932 . S
H273 C253 0.930 . S
H274 C254 0.929 . S
H275 C256 0.930 . S
H276 C258 0.932 . S
H277 C259 0.929 . S
H278 C260 0.928 . S
H279 C262 0.932 . S
C280 C281 1.264 . S
C280 C285 1.479 . S
C280 C290 1.465 . S
C281 C280 1.264 . S
C281 C283 1.339 . S
C281 H308 0.931 . S
C282 C283 1.395 . S
C282 C284 1.320 . S
C283 C281 1.339 . S
C283 C282 1.395 . S
C283 H309 0.929 . S
C284 C282 1.320 . S
C284 C285 1.405 . S
C284 H310 0.930 . S
C285 C280 1.479 . S
C285 C284 1.405 . S
C285 H311 0.931 . S
U286 O287 2.454 . S
U286 O288 2.458 . S
U286 C289 2.984 . S
U286 C290 2.847 . S
U286 C303 2.882 . S
U286 O304 2.441 . S
U286 O305 2.420 . S
U286 O306 2.455 . S
U286 O307 2.449 . S
O287 U286 2.454 . S
O287 C289 1.353 . S
O288 U286 2.458 . S
O288 C289 1.286 . S
C289 U286 2.984 . S
C289 O287 1.353 . S
C289 O288 1.286 . S
C289 C291 1.363 . S
C290 C280 1.465 . S
C290 U286 2.847 . S
C290 O304 1.249 . S
C290 O305 1.202 . S
C291 C289 1.363 . S
C291 C293 1.408 . S
C291 C296 1.342 . S
C292 C293 1.310 . S
C292 C295 1.461 . S
C292 H312 0.932 . S
C293 C291 1.408 . S
C293 C292 1.310 . S
C293 H313 0.930 . S
C294 C295 1.474 . S
C294 C296 1.285 . S
C294 H314 0.929 . S
C295 C292 1.461 . S
C295 C294 1.474 . S
C296 C291 1.342 . S
C296 C294 1.285 . S
C296 H315 0.930 . S
C297 C300 1.424 . S
C297 C302 1.245 . S
C297 C303 1.428 . S
C298 C301 1.260 . S
C298 C302 1.477 . S
C298 H316 0.932 . S
C299 C300 1.384 . S
C299 C301 1.479 . S
C299 H317 0.929 . S
C300 C297 1.424 . S
C300 C299 1.384 . S
C300 H318 0.928 . S
C301 C298 1.260 . S
C301 C299 1.479 . S
C302 C297 1.245 . S
C302 C298 1.477 . S
C302 H319 0.932 . S
C303 U286 2.882 . S
C303 C297 1.428 . S
C303 O306 1.301 . S
C303 O307 1.282 . S
O304 U286 2.441 . S
O304 C290 1.249 . S
O305 U286 2.420 . S
O305 C290 1.202 . S
O306 U286 2.455 . S
O306 C303 1.301 . S
O307 U286 2.449 . S
O307 C303 1.282 . S
H308 C281 0.931 . S
H309 C283 0.929 . S
H310 C284 0.930 . S
H311 C285 0.931 . S
H312 C292 0.932 . S
H313 C293 0.930 . S
H314 C294 0.929 . S
H315 C296 0.930 . S
H316 C298 0.932 . S
H317 C299 0.929 . S
H318 C300 0.928 . S
H319 C302 0.932 . S
Pr320 C322 2.880 . S
Pr320 O340 2.562 . S
Pr320 O341 2.490 . S
Pr320 O342 2.695 1_665 S
Pr320 O343 2.512 1_665 S
Pr320 O345 2.437 1_655 S
Pr320 O348 2.436 . S
Pr320 O350 2.438 1_565 S
Pr321 C331 2.880 . S
Pr321 O342 2.436 . S
Pr321 O344 2.438 1_545 S
Pr321 O346 2.562 . S
Pr321 O347 2.490 . S
Pr321 O348 2.695 1_445 S
Pr321 O349 2.505 1_445 S
Pr321 O351 2.437 1_455 S
C322 Pr320 2.880 . S
C322 C323 1.491 . S
C322 O340 1.254 . S
C322 O341 1.225 . S
C323 C322 1.491 . S
C323 C324 1.392 . S
C323 C328 1.356 . S
C324 C323 1.392 . S
C324 C325 1.368 . S
C324 H352 0.929 . S
C325 C324 1.368 . S
C325 C326 1.386 . S
C325 H353 0.929 . S
C326 C325 1.386 . S
C326 C327 1.373 . S
C327 C326 1.373 . S
C327 C328 1.409 . S
C327 H354 0.931 . S
C328 C323 1.356 . S
C328 C327 1.409 . S
C328 H355 0.930 . S
C329 O342 1.270 . S
C329 O343 1.248 . S
C330 O344 1.267 . S
C330 O345 1.278 . S
C331 Pr321 2.880 . S
C331 C332 1.491 . S
C331 O346 1.254 . S
C331 O347 1.225 . S
C332 C331 1.491 . S
C332 C333 1.392 . S
C332 C337 1.356 . S
C333 C332 1.392 . S
C333 C334 1.368 . S
C333 H356 0.929 . S
C334 C333 1.368 . S
C334 C335 1.386 . S
C334 H357 0.929 . S
C335 C334 1.386 . S
C335 C336 1.373 . S
C336 C335 1.373 . S
C336 C337 1.409 . S
C336 H358 0.931 . S
C337 C332 1.356 . S
C337 C336 1.409 . S
C337 H359 0.930 . S
C338 O348 1.270 . S
C338 O349 1.265 . S
C339 O350 1.267 . S
C339 O351 1.278 . S
O340 Pr320 2.562 . S
O340 C322 1.254 . S
O341 Pr320 2.490 . S
O341 C322 1.225 . S
O342 Pr320 2.695 1_445 S
O342 Pr321 2.436 . S
O342 C329 1.270 . S
O343 Pr320 2.512 1_445 S
O343 C329 1.248 . S
O344 Pr321 2.438 1_565 S
O344 C330 1.267 . S
O345 Pr320 2.437 1_455 S
O345 C330 1.278 . S
O346 Pr321 2.562 . S
O346 C331 1.254 . S
O347 Pr321 2.490 . S
O347 C331 1.225 . S
O348 Pr320 2.436 . S
O348 Pr321 2.695 1_665 S
O348 C338 1.270 . S
O349 Pr321 2.505 1_665 S
O349 C338 1.265 . S
O350 Pr320 2.438 1_545 S
O350 C339 1.267 . S
O351 Pr321 2.437 1_655 S
O351 C339 1.278 . S
H352 C324 0.929 . S
H353 C325 0.929 . S
H354 C327 0.931 . S
H355 C328 0.930 . S
H356 C333 0.929 . S
H357 C334 0.929 . S
H358 C336 0.931 . S
H359 C337 0.930 . S
Pr360 C362 2.880 . S
Pr360 O380 2.562 . S
Pr360 O381 2.490 . S
Pr360 O382 2.695 1_554 S
Pr360 O383 2.512 1_554 S
Pr360 O385 2.437 . S
Pr360 O388 2.436 1_545 S
Pr360 O390 2.438 1_544 S
Pr361 C371 2.880 1_554 S
Pr361 O382 2.436 1_564 S
Pr361 O384 2.438 1_565 S
Pr361 O386 2.562 1_554 S
Pr361 O387 2.490 1_554 S
Pr361 O388 2.695 . S
Pr361 O389 2.512 . S
Pr361 O391 2.437 1_554 S
C362 Pr360 2.880 . S
C362 C363 1.491 . S
C362 O380 1.254 . S
C362 O381 1.225 . S
C363 C362 1.491 . S
C363 C364 1.392 . S
C363 C368 1.356 . S
C364 C363 1.392 . S
C364 C365 1.368 . S
C364 H392 0.929 . S
C365 C364 1.368 . S
C365 C366 1.386 . S
C365 H393 0.929 . S
C366 C365 1.386 . S
C366 C367 1.373 . S
C367 C366 1.373 . S
C367 C368 1.409 . S
C367 H394 0.931 . S
C368 C363 1.356 . S
C368 C367 1.409 . S
C368 H395 0.930 . S
C369 O382 1.270 . S
C369 O383 1.248 . S
C370 O384 1.267 . S
C370 O385 1.278 . S
C371 Pr361 2.880 1_556 S
C371 C372 1.491 . S
C371 O386 1.254 . S
C371 O387 1.225 . S
C372 C371 1.491 . S
C372 C373 1.392 . S
C372 C377 1.356 . S
C373 C372 1.392 . S
C373 C374 1.368 . S
C373 H396 0.929 . S
C374 C373 1.368 . S
C374 C375 1.386 . S
C374 H397 0.929 . S
C375 C374 1.386 . S
C375 C376 1.373 . S
C376 C375 1.373 . S
C376 C377 1.409 . S
C376 H398 0.931 . S
C377 C372 1.356 . S
C377 C376 1.409 . S
C377 H399 0.930 . S
C378 O388 1.270 . S
C378 O389 1.248 . S
C379 O390 1.267 . S
C379 O391 1.278 . S
O380 Pr360 2.562 . S
O380 C362 1.254 . S
O381 Pr360 2.490 . S
O381 C362 1.225 . S
O382 Pr360 2.695 1_556 S
O382 Pr361 2.436 1_546 S
O382 C369 1.270 . S
O383 Pr360 2.512 1_556 S
O383 C369 1.248 . S
O384 Pr361 2.438 1_545 S
O384 C370 1.267 . S
O385 Pr360 2.437 . S
O385 C370 1.278 . S
O386 Pr361 2.562 1_556 S
O386 C371 1.254 . S
O387 Pr361 2.490 1_556 S
O387 C371 1.225 . S
O388 Pr360 2.436 1_565 S
O388 Pr361 2.695 . S
O388 C378 1.270 . S
O389 Pr361 2.512 . S
O389 C378 1.248 . S
O390 Pr360 2.438 1_566 S
O390 C379 1.267 . S
O391 Pr361 2.437 1_556 S
O391 C379 1.278 . S
H392 C364 0.929 . S
H393 C365 0.929 . S
H394 C367 0.931 . S
H395 C368 0.930 . S
H396 C373 0.929 . S
H397 C374 0.929 . S
H398 C376 0.931 . S
H399 C377 0.930 . S
Pr400 C402 2.880 . S
Pr400 O420 2.562 . S
Pr400 O421 2.490 . S
Pr400 O422 2.695 . S
Pr400 O423 2.512 . S
Pr400 O425 2.437 . S
Pr400 O428 2.436 . S
Pr400 O430 2.438 . S
Pr401 C411 2.880 . S
Pr401 O422 2.436 . S
Pr401 O424 2.438 . S
Pr401 O426 2.562 . S
Pr401 O427 2.490 . S
Pr401 O428 2.695 . S
Pr401 O429 2.512 . S
Pr401 O431 2.437 . S
C402 Pr400 2.880 . S
C402 C403 1.491 . S
C402 O420 1.254 . S
C402 O421 1.225 . S
C403 C402 1.491 . S
C403 C404 1.392 . S
C403 C408 1.356 . S
C404 C403 1.392 . S
C404 C405 1.368 . S
C404 H432 0.929 . S
C405 C404 1.368 . S
C405 C406 1.386 . S
C405 H433 0.929 . S
C406 C405 1.386 . S
C406 C407 1.373 . S
C407 C406 1.373 . S
C407 C408 1.409 . S
C407 H434 0.931 . S
C408 C403 1.356 . S
C408 C407 1.409 . S
C408 H435 0.930 . S
C409 O422 1.270 . S
C409 O423 1.248 . S
C410 O424 1.267 . S
C410 O425 1.278 . S
C411 Pr401 2.880 . S
C411 C412 1.491 . S
C411 O426 1.254 . S
C411 O427 1.225 . S
C412 C411 1.491 . S
C412 C413 1.392 . S
C412 C417 1.356 . S
C413 C412 1.392 . S
C413 C414 1.368 . S
C413 H436 0.929 . S
C414 C413 1.368 . S
C414 C415 1.386 . S
C414 H437 0.929 . S
C415 C414 1.386 . S
C415 C416 1.373 . S
C416 C415 1.373 . S
C416 C417 1.409 . S
C416 H438 0.931 . S
C417 C412 1.356 . S
C417 C416 1.409 . S
C417 H439 0.930 . S
C418 O428 1.270 . S
C418 O429 1.248 . S
C419 O430 1.267 . S
C419 O431 1.278 . S
O420 Pr400 2.562 . S
O420 C402 1.254 . S
O421 Pr400 2.490 . S
O421 C402 1.225 . S
O422 Pr400 2.695 . S
O422 Pr401 2.436 . S
O422 C409 1.270 . S
O423 Pr400 2.512 . S
O423 C409 1.248 . S
O424 Pr401 2.438 . S
O424 C410 1.267 . S
O425 Pr400 2.437 . S
O425 C410 1.278 . S
O426 Pr401 2.562 . S
O426 C411 1.254 . S
O427 Pr401 2.490 . S
O427 C411 1.225 . S
O428 Pr400 2.436 . S
O428 Pr401 2.695 . S
O428 C418 1.270 . S
O429 Pr401 2.512 . S
O429 C418 1.248 . S
O430 Pr400 2.438 . S
O430 C419 1.267 . S
O431 Pr401 2.437 . S
O431 C419 1.278 . S
H432 C404 0.929 . S
H433 C405 0.929 . S
H434 C407 0.931 . S
H435 C408 0.930 . S
H436 C413 0.929 . S
H437 C414 0.929 . S
H438 C416 0.931 . S
H439 C417 0.930 . S
Pr440 C442 2.880 1_455 S
Pr440 O460 2.562 1_455 S
Pr440 O461 2.490 1_455 S
Pr440 O462 2.695 1_556 S
Pr440 O463 2.512 1_556 S
Pr440 O465 2.437 1_456 S
Pr440 O468 2.436 1_455 S
Pr440 O470 2.438 . S
Pr441 C451 2.880 . S
Pr441 O462 2.436 . S
Pr441 O464 2.438 1_455 S
Pr441 O466 2.562 . S
Pr441 O467 2.490 . S
Pr441 O468 2.695 1_454 S
Pr441 O469 2.512 1_454 S
Pr441 O471 2.437 1_554 S
C442 Pr440 2.880 1_655 S
C442 C443 1.491 . S
C442 O460 1.254 . S
C442 O461 1.225 . S
C443 C442 1.491 . S
C443 C444 1.392 . S
C443 C448 1.356 . S
C444 C443 1.392 . S
C444 C445 1.368 . S
C444 H472 0.929 . S
C445 C444 1.368 . S
C445 C446 1.386 . S
C445 H473 0.929 . S
C446 C445 1.386 . S
C446 C447 1.373 . S
C447 C446 1.373 . S
C447 C448 1.409 . S
C447 H474 0.931 . S
C448 C443 1.356 . S
C448 C447 1.409 . S
C448 H475 0.930 . S
C449 O462 1.270 . S
C449 O463 1.248 . S
C450 O464 1.267 . S
C450 O465 1.278 . S
C451 Pr441 2.880 . S
C451 C452 1.491 . S
C451 O466 1.254 . S
C451 O467 1.225 . S
C452 C451 1.491 . S
C452 C453 1.392 . S
C452 C457 1.356 . S
C453 C452 1.392 . S
C453 C454 1.368 . S
C453 H476 0.929 . S
C454 C453 1.368 . S
C454 C455 1.386 . S
C454 H477 0.929 . S
C455 C454 1.386 . S
C455 C456 1.373 . S
C456 C455 1.373 . S
C456 C457 1.409 . S
C456 H478 0.931 . S
C457 C452 1.356 . S
C457 C456 1.409 . S
C457 H479 0.930 . S
C458 O468 1.270 . S
C458 O469 1.248 . S
C459 O470 1.267 . S
C459 O471 1.278 . S
O460 Pr440 2.562 1_655 S
O460 C442 1.254 . S
O461 Pr440 2.490 1_655 S
O461 C442 1.225 . S
O462 Pr440 2.695 1_554 S
O462 Pr441 2.436 . S
O462 C449 1.270 . S
O463 Pr440 2.512 1_554 S
O463 C449 1.248 . S
O464 Pr441 2.438 1_655 S
O464 C450 1.267 . S
O465 Pr440 2.437 1_654 S
O465 C450 1.278 . S
O466 Pr441 2.562 . S
O466 C451 1.254 . S
O467 Pr441 2.490 . S
O467 C451 1.225 . S
O468 Pr440 2.436 1_655 S
O468 Pr441 2.695 1_656 S
O468 C458 1.270 . S
O469 Pr441 2.512 1_656 S
O469 C458 1.248 . S
O470 Pr440 2.438 . S
O470 C459 1.267 . S
O471 Pr441 2.437 1_556 S
O471 C459 1.278 . S
H472 C444 0.929 . S
H473 C445 0.929 . S
H474 C447 0.931 . S
H475 C448 0.930 . S
H476 C453 0.929 . S
H477 C454 0.929 . S
H478 C456 0.931 . S
H479 C457 0.930 . S
C480 C481 1.349 . S
C480 C482 1.327 . S
C480 H505 0.950 . S
C481 C480 1.349 . S
C481 C497 1.349 . S
C482 C480 1.327 . S
C482 C501 1.429 . S
C482 H506 0.950 . S
C483 C500 1.574 . S
C483 C502 1.368 . S
C483 H507 0.949 . S
H484 C488 0.949 . S
C485 C486 1.349 . S
C485 C487 1.327 . S
C485 H508 0.950 . S
C486 C485 1.349 . S
C486 C498 1.349 . S
C487 C485 1.327 . S
C487 C503 1.429 . S
C487 H509 0.950 . S
C488 H484 0.949 . S
C488 C496 1.574 . S
C488 C504 1.368 . S
H489 C497 0.950 . S
H490 C495 0.950 . S
H491 C496 0.949 . S
H492 C498 0.950 . S
H493 C499 0.950 . S
H494 C500 0.949 . S
C495 H490 0.950 . S
C495 C497 1.327 . S
C495 C501 1.429 . S
C496 C488 1.574 . S
C496 H491 0.949 . S
C496 C502 1.368 . S
C497 C481 1.349 . S
C497 H489 0.950 . S
C497 C495 1.327 . S
C498 C486 1.349 . S
C498 H492 0.950 . S
C498 C499 1.327 . S
C499 H493 0.950 . S
C499 C498 1.327 . S
C499 C503 1.429 . S
C500 C483 1.574 . S
C500 H494 0.949 . S
C500 C504 1.368 . S
C501 C482 1.429 . S
C501 C495 1.429 . S
C501 C502 1.523 . S
C502 C483 1.368 . S
C502 C496 1.368 . S
C502 C501 1.523 . S
C503 C487 1.429 . S
C503 C499 1.429 . S
C503 C504 1.523 . S
C504 C488 1.368 . S
C504 C500 1.368 . S
C504 C503 1.523 . S
H505 C480 0.950 . S
H506 C482 0.950 . S
H507 C483 0.949 . S
H508 C485 0.950 . S
H509 C487 0.950 . S
C510 C511 1.349 . S
C510 C512 1.327 . S
C510 H535 0.950 . S
C511 C510 1.349 . S
C511 C527 1.349 . S
C512 C510 1.327 . S
C512 C531 1.429 . S
C512 H536 0.950 . S
C513 C530 1.574 . S
C513 C532 1.368 . S
C513 H537 0.949 . S
H514 C518 0.949 . S
C515 C516 1.349 . S
C515 C517 1.327 . S
C515 H538 0.950 . S
C516 C515 1.349 . S
C516 C528 1.349 . S
C517 C515 1.327 . S
C517 C533 1.429 . S
C517 H539 0.950 . S
C518 H514 0.949 . S
C518 C526 1.574 . S
C518 C534 1.368 . S
H519 C527 0.950 . S
H520 C525 0.950 . S
H521 C526 0.949 . S
H522 C528 0.950 . S
H523 C529 0.950 . S
H524 C530 0.949 . S
C525 H520 0.950 . S
C525 C527 1.327 . S
C525 C531 1.429 . S
C526 C518 1.574 . S
C526 H521 0.949 . S
C526 C532 1.368 . S
C527 C511 1.349 . S
C527 H519 0.950 . S
C527 C525 1.327 . S
C528 C516 1.349 . S
C528 H522 0.950 . S
C528 C529 1.327 . S
C529 H523 0.950 . S
C529 C528 1.327 . S
C529 C533 1.429 . S
C530 C513 1.574 . S
C530 H524 0.949 . S
C530 C534 1.368 . S
C531 C512 1.429 . S
C531 C525 1.429 . S
C531 C532 1.523 . S
C532 C513 1.368 . S
C532 C526 1.368 . S
C532 C531 1.523 . S
C533 C517 1.429 . S
C533 C529 1.429 . S
C533 C534 1.523 . S
C534 C518 1.368 . S
C534 C530 1.368 . S
C534 C533 1.523 . S
H535 C510 0.950 . S
H536 C512 0.950 . S
H537 C513 0.949 . S
H538 C515 0.950 . S
H539 C517 0.950 . S
C540 C541 1.349 . S
C540 C542 1.327 . S
C540 H565 0.950 . S
C541 C540 1.349 . S
C541 C557 1.349 . S
C542 C540 1.327 . S
C542 C561 1.429 . S
C542 H566 0.950 . S
C543 C560 1.574 . S
C543 C562 1.368 . S
C543 H567 0.949 . S
H544 C548 0.949 . S
C545 C546 1.349 . S
C545 C547 1.327 . S
C545 H568 0.950 . S
C546 C545 1.349 . S
C546 C558 1.349 . S
C547 C545 1.327 . S
C547 C563 1.429 . S
C547 H569 0.950 . S
C548 H544 0.949 . S
C548 C556 1.574 . S
C548 C564 1.368 . S
H549 C557 0.950 . S
H550 C555 0.950 . S
H551 C556 0.949 . S
H552 C558 0.950 . S
H553 C559 0.950 . S
H554 C560 0.949 . S
C555 H550 0.950 . S
C555 C557 1.327 . S
C555 C561 1.429 . S
C556 C548 1.574 . S
C556 H551 0.949 . S
C556 C562 1.368 . S
C557 C541 1.349 . S
C557 H549 0.950 . S
C557 C555 1.327 . S
C558 C546 1.349 . S
C558 H552 0.950 . S
C558 C559 1.327 . S
C559 H553 0.950 . S
C559 C558 1.327 . S
C559 C563 1.429 . S
C560 C543 1.574 . S
C560 H554 0.949 . S
C560 C564 1.368 . S
C561 C542 1.429 . S
C561 C555 1.429 . S
C561 C562 1.523 . S
C562 C543 1.368 . S
C562 C556 1.368 . S
C562 C561 1.523 . S
C563 C547 1.429 . S
C563 C559 1.429 . S
C563 C564 1.523 . S
C564 C548 1.368 . S
C564 C560 1.368 . S
C564 C563 1.523 . S
H565 C540 0.950 . S
H566 C542 0.950 . S
H567 C543 0.949 . S
H568 C545 0.950 . S
H569 C547 0.950 . S
C570 C571 1.349 . S
C570 C572 1.327 . S
C570 H595 0.950 . S
C571 C570 1.349 . S
C571 C587 1.349 . S
C572 C570 1.327 . S
C572 C591 1.429 . S
C572 H596 0.950 . S
C573 C590 1.574 . S
C573 C592 1.368 . S
C573 H597 0.949 . S
H574 C578 0.949 . S
C575 C576 1.349 . S
C575 C577 1.327 . S
C575 H598 0.950 . S
C576 C575 1.349 . S
C576 C588 1.349 . S
C577 C575 1.327 . S
C577 C593 1.429 . S
C577 H599 0.950 . S
C578 H574 0.949 . S
C578 C586 1.574 . S
C578 C594 1.368 . S
H579 C587 0.950 . S
H580 C585 0.950 . S
H581 C586 0.949 . S
H582 C588 0.950 . S
H583 C589 0.950 . S
H584 C590 0.949 . S
C585 H580 0.950 . S
C585 C587 1.327 . S
C585 C591 1.429 . S
C586 C578 1.574 . S
C586 H581 0.949 . S
C586 C592 1.368 . S
C587 C571 1.349 . S
C587 H579 0.950 . S
C587 C585 1.327 . S
C588 C576 1.349 . S
C588 H582 0.950 . S
C588 C589 1.327 . S
C589 H583 0.950 . S
C589 C588 1.327 . S
C589 C593 1.429 . S
C590 C573 1.574 . S
C590 H584 0.949 . S
C590 C594 1.368 . S
C591 C572 1.429 . S
C591 C585 1.429 . S
C591 C592 1.523 . S
C592 C573 1.368 . S
C592 C586 1.368 . S
C592 C591 1.523 . S
C593 C577 1.429 . S
C593 C589 1.429 . S
C593 C594 1.523 . S
C594 C578 1.368 . S
C594 C590 1.368 . S
C594 C593 1.523 . S
H595 C570 0.950 . S
H596 C572 0.950 . S
H597 C573 0.949 . S
H598 C575 0.950 . S
H599 C577 0.950 . S
C600 C601 1.349 . S
C600 C602 1.327 . S
C600 H625 0.950 . S
C601 C600 1.349 . S
C601 C617 1.349 . S
C602 C600 1.327 . S
C602 C621 1.429 . S
C602 H626 0.950 . S
C603 C620 1.574 . S
C603 C622 1.368 . S
C603 H627 0.949 . S
H604 C608 0.949 . S
C605 C606 1.349 . S
C605 C607 1.327 . S
C605 H628 0.950 . S
C606 C605 1.349 . S
C606 C618 1.349 . S
C607 C605 1.327 . S
C607 C623 1.429 . S
C607 H629 0.950 . S
C608 H604 0.949 . S
C608 C616 1.574 . S
C608 C624 1.368 . S
H609 C617 0.950 . S
H610 C615 0.950 . S
H611 C616 0.949 . S
H612 C618 0.950 . S
H613 C619 0.950 . S
H614 C620 0.949 . S
C615 H610 0.950 . S
C615 C617 1.327 . S
C615 C621 1.429 . S
C616 C608 1.574 . S
C616 H611 0.949 . S
C616 C622 1.368 . S
C617 C601 1.349 . S
C617 H609 0.950 . S
C617 C615 1.327 . S
C618 C606 1.349 . S
C618 H612 0.950 . S
C618 C619 1.327 . S
C619 H613 0.950 . S
C619 C618 1.327 . S
C619 C623 1.429 . S
C620 C603 1.574 . S
C620 H614 0.949 . S
C620 C624 1.368 . S
C621 C602 1.429 . S
C621 C615 1.429 . S
C621 C622 1.523 . S
C622 C603 1.368 . S
C622 C616 1.368 . S
C622 C621 1.523 . S
C623 C607 1.429 . S
C623 C619 1.429 . S
C623 C624 1.523 . S
C624 C608 1.368 . S
C624 C620 1.368 . S
C624 C623 1.523 . S
H625 C600 0.950 . S
H626 C602 0.950 . S
H627 C603 0.949 . S
H628 C605 0.950 . S
H629 C607 0.950 . S
C630 C631 1.349 . S
C630 C632 1.327 . S
C630 H655 0.950 . S
C631 C630 1.349 . S
C631 C647 1.349 . S
C632 C630 1.327 . S
C632 C651 1.429 . S
C632 H656 0.950 . S
C633 C650 1.574 . S
C633 C652 1.368 . S
C633 H657 0.949 . S
H634 C638 0.949 . S
C635 C636 1.349 . S
C635 C637 1.327 . S
C635 H658 0.950 . S
C636 C635 1.349 . S
C636 C648 1.349 . S
C637 C635 1.327 . S
C637 C653 1.429 . S
C637 H659 0.950 . S
C638 H634 0.949 . S
C638 C646 1.574 . S
C638 C654 1.368 . S
H639 C647 0.950 . S
H640 C645 0.950 . S
H641 C646 0.949 . S
H642 C648 0.950 . S
H643 C649 0.950 . S
H644 C650 0.949 . S
C645 H640 0.950 . S
C645 C647 1.327 . S
C645 C651 1.429 . S
C646 C638 1.574 . S
C646 H641 0.949 . S
C646 C652 1.368 . S
C647 C631 1.349 . S
C647 H639 0.950 . S
C647 C645 1.327 . S
C648 C636 1.349 . S
C648 H642 0.950 . S
C648 C649 1.327 . S
C649 H643 0.950 . S
C649 C648 1.327 . S
C649 C653 1.429 . S
C650 C633 1.574 . S
C650 H644 0.949 . S
C650 C654 1.368 . S
C651 C632 1.429 . S
C651 C645 1.429 . S
C651 C652 1.523 . S
C652 C633 1.368 . S
C652 C646 1.368 . S
C652 C651 1.523 . S
C653 C637 1.429 . S
C653 C649 1.429 . S
C653 C654 1.523 . S
C654 C638 1.368 . S
C654 C650 1.368 . S
C654 C653 1.523 . S
H655 C630 0.950 . S
H656 C632 0.950 . S
H657 C633 0.949 . S
H658 C635 0.950 . S
H659 C637 0.950 . S
C660 C661 1.349 . S
C660 C662 1.327 . S
C660 H685 0.950 . S
C661 C660 1.349 . S
C661 C677 1.349 . S
C662 C660 1.327 . S
C662 C681 1.429 . S
C662 H686 0.950 . S
C663 C680 1.574 . S
C663 C682 1.368 . S
C663 H687 0.949 . S
H664 C668 0.949 . S
C665 C666 1.349 . S
C665 C667 1.327 . S
C665 H688 0.950 . S
C666 C665 1.349 . S
C666 C678 1.349 . S
C667 C665 1.327 . S
C667 C683 1.429 . S
C667 H689 0.950 . S
C668 H664 0.949 . S
C668 C676 1.574 . S
C668 C684 1.368 . S
H669 C677 0.950 . S
H670 C675 0.950 . S
H671 C676 0.949 . S
H672 C678 0.950 . S
H673 C679 0.950 . S
H674 C680 0.949 . S
C675 H670 0.950 . S
C675 C677 1.327 . S
C675 C681 1.429 . S
C676 C668 1.574 . S
C676 H671 0.949 . S
C676 C682 1.368 . S
C677 C661 1.349 . S
C677 H669 0.950 . S
C677 C675 1.327 . S
C678 C666 1.349 . S
C678 H672 0.950 . S
C678 C679 1.327 . S
C679 H673 0.950 . S
C679 C678 1.327 . S
C679 C683 1.429 . S
C680 C663 1.574 . S
C680 H674 0.949 . S
C680 C684 1.368 . S
C681 C662 1.429 . S
C681 C675 1.429 . S
C681 C682 1.523 . S
C682 C663 1.368 . S
C682 C676 1.368 . S
C682 C681 1.523 . S
C683 C667 1.429 . S
C683 C679 1.429 . S
C683 C684 1.523 . S
C684 C668 1.368 . S
C684 C680 1.368 . S
C684 C683 1.523 . S
H685 C660 0.950 . S
H686 C662 0.950 . S
H687 C663 0.949 . S
H688 C665 0.950 . S
H689 C667 0.950 . S
C690 C691 1.349 . S
C690 C692 1.327 . S
C690 H715 0.950 . S
C691 C690 1.349 . S
C691 C707 1.349 . S
C692 C690 1.327 . S
C692 C711 1.429 . S
C692 H716 0.950 . S
C693 C710 1.574 . S
C693 C712 1.368 . S
C693 H717 0.949 . S
H694 C698 0.949 . S
C695 C696 1.349 . S
C695 C697 1.327 . S
C695 H718 0.950 . S
C696 C695 1.349 . S
C696 C708 1.349 . S
C697 C695 1.327 . S
C697 C713 1.429 . S
C697 H719 0.950 . S
C698 H694 0.949 . S
C698 C706 1.574 . S
C698 C714 1.368 . S
H699 C707 0.950 . S
H700 C705 0.950 . S
H701 C706 0.949 . S
H702 C708 0.950 . S
H703 C709 0.950 . S
H704 C710 0.949 . S
C705 H700 0.950 . S
C705 C707 1.327 . S
C705 C711 1.429 . S
C706 C698 1.574 . S
C706 H701 0.949 . S
C706 C712 1.368 . S
C707 C691 1.349 . S
C707 H699 0.950 . S
C707 C705 1.327 . S
C708 C696 1.349 . S
C708 H702 0.950 . S
C708 C709 1.327 . S
C709 H703 0.950 . S
C709 C708 1.327 . S
C709 C713 1.429 . S
C710 C693 1.574 . S
C710 H704 0.949 . S
C710 C714 1.368 . S
C711 C692 1.429 . S
C711 C705 1.429 . S
C711 C712 1.523 . S
C712 C693 1.368 . S
C712 C706 1.368 . S
C712 C711 1.523 . S
C713 C697 1.429 . S
C713 C709 1.429 . S
C713 C714 1.523 . S
C714 C698 1.368 . S
C714 C710 1.368 . S
C714 C713 1.523 . S
H715 C690 0.950 . S
H716 C692 0.950 . S
H717 C693 0.949 . S
H718 C695 0.950 . S
H719 C697 0.950 . S
C720 C721 1.349 . S
C720 C722 1.327 . S
C720 H745 0.950 . S
C721 C720 1.349 . S
C721 C737 1.349 . S
C722 C720 1.327 . S
C722 C741 1.429 . S
C722 H746 0.950 . S
C723 C740 1.574 . S
C723 C742 1.368 . S
C723 H747 0.949 . S
H724 C728 0.949 . S
C725 C726 1.349 . S
C725 C727 1.327 . S
C725 H748 0.950 . S
C726 C725 1.349 . S
C726 C738 1.349 . S
C727 C725 1.327 . S
C727 C743 1.429 . S
C727 H749 0.950 . S
C728 H724 0.949 . S
C728 C736 1.574 . S
C728 C744 1.368 . S
H729 C737 0.950 . S
H730 C735 0.950 . S
H731 C736 0.949 . S
H732 C738 0.950 . S
H733 C739 0.950 . S
H734 C740 0.949 . S
C735 H730 0.950 . S
C735 C737 1.327 . S
C735 C741 1.429 . S
C736 C728 1.574 . S
C736 H731 0.949 . S
C736 C742 1.368 . S
C737 C721 1.349 . S
C737 H729 0.950 . S
C737 C735 1.327 . S
C738 C726 1.349 . S
C738 H732 0.950 . S
C738 C739 1.327 . S
C739 H733 0.950 . S
C739 C738 1.327 . S
C739 C743 1.429 . S
C740 C723 1.574 . S
C740 H734 0.949 . S
C740 C744 1.368 . S
C741 C722 1.429 . S
C741 C735 1.429 . S
C741 C742 1.523 . S
C742 C723 1.368 . S
C742 C736 1.368 . S
C742 C741 1.523 . S
C743 C727 1.429 . S
C743 C739 1.429 . S
C743 C744 1.523 . S
C744 C728 1.368 . S
C744 C740 1.368 . S
C744 C743 1.523 . S
H745 C720 0.950 . S
H746 C722 0.950 . S
H747 C723 0.949 . S
H748 C725 0.950 . S
H749 C727 0.950 . S
C750 C751 1.349 . S
C750 C752 1.327 . S
C750 H775 0.950 . S
C751 C750 1.349 . S
C751 C767 1.349 . S
C752 C750 1.327 . S
C752 C771 1.429 . S
C752 H776 0.950 . S
C753 C770 1.574 . S
C753 C772 1.368 . S
C753 H777 0.949 . S
H754 C758 0.949 . S
C755 C756 1.349 . S
C755 C757 1.327 . S
C755 H778 0.950 . S
C756 C755 1.349 . S
C756 C768 1.349 . S
C757 C755 1.327 . S
C757 C773 1.429 . S
C757 H779 0.950 . S
C758 H754 0.949 . S
C758 C766 1.574 . S
C758 C774 1.368 . S
H759 C767 0.950 . S
H760 C765 0.950 . S
H761 C766 0.949 . S
H762 C768 0.950 . S
H763 C769 0.950 . S
H764 C770 0.949 . S
C765 H760 0.950 . S
C765 C767 1.327 . S
C765 C771 1.429 . S
C766 C758 1.574 . S
C766 H761 0.949 . S
C766 C772 1.368 . S
C767 C751 1.349 . S
C767 H759 0.950 . S
C767 C765 1.327 . S
C768 C756 1.349 . S
C768 H762 0.950 . S
C768 C769 1.327 . S
C769 H763 0.950 . S
C769 C768 1.327 . S
C769 C773 1.429 . S
C770 C753 1.574 . S
C770 H764 0.949 . S
C770 C774 1.368 . S
C771 C752 1.429 . S
C771 C765 1.429 . S
C771 C772 1.523 . S
C772 C753 1.368 . S
C772 C766 1.368 . S
C772 C771 1.523 . S
C773 C757 1.429 . S
C773 C769 1.429 . S
C773 C774 1.523 . S
C774 C758 1.368 . S
C774 C770 1.368 . S
C774 C773 1.523 . S
H775 C750 0.950 . S
H776 C752 0.950 . S
H777 C753 0.949 . S
H778 C755 0.950 . S
H779 C757 0.950 . S
C780 C781 1.349 . S
C780 C782 1.327 . S
C780 H805 0.950 . S
C781 C780 1.349 . S
C781 C797 1.349 . S
C782 C780 1.327 . S
C782 C801 1.429 . S
C782 H806 0.950 . S
C783 C800 1.574 . S
C783 C802 1.368 . S
C783 H807 0.949 . S
H784 C788 0.949 . S
C785 C786 1.349 . S
C785 C787 1.327 . S
C785 H808 0.950 . S
C786 C785 1.349 . S
C786 C798 1.349 . S
C787 C785 1.327 . S
C787 C803 1.429 . S
C787 H809 0.950 . S
C788 H784 0.949 . S
C788 C796 1.574 . S
C788 C804 1.368 . S
H789 C797 0.950 . S
H790 C795 0.950 . S
H791 C796 0.949 . S
H792 C798 0.950 . S
H793 C799 0.950 . S
H794 C800 0.949 . S
C795 H790 0.950 . S
C795 C797 1.327 . S
C795 C801 1.429 . S
C796 C788 1.574 . S
C796 H791 0.949 . S
C796 C802 1.368 . S
C797 C781 1.349 . S
C797 H789 0.950 . S
C797 C795 1.327 . S
C798 C786 1.349 . S
C798 H792 0.950 . S
C798 C799 1.327 . S
C799 H793 0.950 . S
C799 C798 1.327 . S
C799 C803 1.429 . S
C800 C783 1.574 . S
C800 H794 0.949 . S
C800 C804 1.368 . S
C801 C782 1.429 . S
C801 C795 1.429 . S
C801 C802 1.523 . S
C802 C783 1.368 . S
C802 C796 1.368 . S
C802 C801 1.523 . S
C803 C787 1.429 . S
C803 C799 1.429 . S
C803 C804 1.523 . S
C804 C788 1.368 . S
C804 C800 1.368 . S
C804 C803 1.523 . S
H805 C780 0.950 . S
H806 C782 0.950 . S
H807 C783 0.949 . S
H808 C785 0.950 . S
H809 C787 0.950 . S
C810 C811 1.349 . S
C810 C812 1.327 . S
C810 H835 0.950 . S
C811 C810 1.349 . S
C811 C827 1.349 . S
C812 C810 1.327 . S
C812 C831 1.429 . S
C812 H836 0.950 . S
C813 C830 1.574 . S
C813 C832 1.368 . S
C813 H837 0.949 . S
H814 C818 0.949 . S
C815 C816 1.349 . S
C815 C817 1.327 . S
C815 H838 0.950 . S
C816 C815 1.349 . S
C816 C828 1.349 . S
C817 C815 1.327 . S
C817 C833 1.429 . S
C817 H839 0.950 . S
C818 H814 0.949 . S
C818 C826 1.574 . S
C818 C834 1.368 . S
H819 C827 0.950 . S
H820 C825 0.950 . S
H821 C826 0.949 . S
H822 C828 0.950 . S
H823 C829 0.950 . S
H824 C830 0.949 . S
C825 H820 0.950 . S
C825 C827 1.327 . S
C825 C831 1.429 . S
C826 C818 1.574 . S
C826 H821 0.949 . S
C826 C832 1.368 . S
C827 C811 1.349 . S
C827 H819 0.950 . S
C827 C825 1.327 . S
C828 C816 1.349 . S
C828 H822 0.950 . S
C828 C829 1.327 . S
C829 H823 0.950 . S
C829 C828 1.327 . S
C829 C833 1.429 . S
C830 C813 1.574 . S
C830 H824 0.949 . S
C830 C834 1.368 . S
C831 C812 1.429 . S
C831 C825 1.429 . S
C831 C832 1.523 . S
C832 C813 1.368 . S
C832 C826 1.368 . S
C832 C831 1.523 . S
C833 C817 1.429 . S
C833 C829 1.429 . S
C833 C834 1.523 . S
C834 C818 1.368 . S
C834 C830 1.368 . S
C834 C833 1.523 . S
H835 C810 0.950 . S
H836 C812 0.950 . S
H837 C813 0.949 . S
H838 C815 0.950 . S
H839 C817 0.950 . S
C840 C841 1.349 . S
C840 C842 1.327 . S
C840 H865 0.950 . S
C841 C840 1.349 . S
C841 C857 1.349 . S
C842 C840 1.327 . S
C842 C861 1.429 . S
C842 H866 0.950 . S
C843 C860 1.574 . S
C843 C862 1.368 . S
C843 H867 0.949 . S
H844 C848 0.949 . S
C845 C846 1.349 . S
C845 C847 1.327 . S
C845 H868 0.950 . S
C846 C845 1.349 . S
C846 C858 1.349 . S
C847 C845 1.327 . S
C847 C863 1.429 . S
C847 H869 0.950 . S
C848 H844 0.949 . S
C848 C856 1.574 . S
C848 C864 1.368 . S
H849 C857 0.950 . S
H850 C855 0.950 . S
H851 C856 0.949 . S
H852 C858 0.950 . S
H853 C859 0.950 . S
H854 C860 0.949 . S
C855 H850 0.950 . S
C855 C857 1.327 . S
C855 C861 1.429 . S
C856 C848 1.574 . S
C856 H851 0.949 . S
C856 C862 1.368 . S
C857 C841 1.349 . S
C857 H849 0.950 . S
C857 C855 1.327 . S
C858 C846 1.349 . S
C858 H852 0.950 . S
C858 C859 1.327 . S
C859 H853 0.950 . S
C859 C858 1.327 . S
C859 C863 1.429 . S
C860 C843 1.574 . S
C860 H854 0.949 . S
C860 C864 1.368 . S
C861 C842 1.429 . S
C861 C855 1.429 . S
C861 C862 1.523 . S
C862 C843 1.368 . S
C862 C856 1.368 . S
C862 C861 1.523 . S
C863 C847 1.429 . S
C863 C859 1.429 . S
C863 C864 1.523 . S
C864 C848 1.368 . S
C864 C860 1.368 . S
C864 C863 1.523 . S
H865 C840 0.950 . S
H866 C842 0.950 . S
H867 C843 0.949 . S
H868 C845 0.950 . S
H869 C847 0.950 . S
C870 C871 1.349 . S
C870 C872 1.327 . S
C870 H895 0.950 . S
C871 C870 1.349 . S
C871 C887 1.349 . S
C872 C870 1.327 . S
C872 C891 1.429 . S
C872 H896 0.950 . S
C873 C890 1.574 . S
C873 C892 1.368 . S
C873 H897 0.949 . S
H874 C878 0.949 . S
C875 C876 1.349 . S
C875 C877 1.327 . S
C875 H898 0.950 . S
C876 C875 1.349 . S
C876 C888 1.349 . S
C877 C875 1.327 . S
C877 C893 1.429 . S
C877 H899 0.950 . S
C878 H874 0.949 . S
C878 C886 1.574 . S
C878 C894 1.368 . S
H879 C887 0.950 . S
H880 C885 0.950 . S
H881 C886 0.949 . S
H882 C888 0.950 . S
H883 C889 0.950 . S
H884 C890 0.949 . S
C885 H880 0.950 . S
C885 C887 1.327 . S
C885 C891 1.429 . S
C886 C878 1.574 . S
C886 H881 0.949 . S
C886 C892 1.368 . S
C887 C871 1.349 . S
C887 H879 0.950 . S
C887 C885 1.327 . S
C888 C876 1.349 . S
C888 H882 0.950 . S
C888 C889 1.327 . S
C889 H883 0.950 . S
C889 C888 1.327 . S
C889 C893 1.429 . S
C890 C873 1.574 . S
C890 H884 0.949 . S
C890 C894 1.368 . S
C891 C872 1.429 . S
C891 C885 1.429 . S
C891 C892 1.523 . S
C892 C873 1.368 . S
C892 C886 1.368 . S
C892 C891 1.523 . S
C893 C877 1.429 . S
C893 C889 1.429 . S
C893 C894 1.523 . S
C894 C878 1.368 . S
C894 C890 1.368 . S
C894 C893 1.523 . S
H895 C870 0.950 . S
H896 C872 0.950 . S
H897 C873 0.949 . S
H898 C875 0.950 . S
H899 C877 0.950 . S
C900 C901 1.349 . S
C900 C902 1.327 . S
C900 H925 0.950 . S
C901 C900 1.349 . S
C901 C917 1.349 . S
C902 C900 1.327 . S
C902 C921 1.429 . S
C902 H926 0.950 . S
C903 C920 1.574 . S
C903 C922 1.368 . S
C903 H927 0.949 . S
H904 C908 0.949 . S
C905 C906 1.349 . S
C905 C907 1.327 . S
C905 H928 0.950 . S
C906 C905 1.349 . S
C906 C918 1.349 . S
C907 C905 1.327 . S
C907 C923 1.429 . S
C907 H929 0.950 . S
C908 H904 0.949 . S
C908 C916 1.574 . S
C908 C924 1.368 . S
H909 C917 0.950 . S
H910 C915 0.950 . S
H911 C916 0.949 . S
H912 C918 0.950 . S
H913 C919 0.950 . S
H914 C920 0.949 . S
C915 H910 0.950 . S
C915 C917 1.327 . S
C915 C921 1.429 . S
C916 C908 1.574 . S
C916 H911 0.949 . S
C916 C922 1.368 . S
C917 C901 1.349 . S
C917 H909 0.950 . S
C917 C915 1.327 . S
C918 C906 1.349 . S
C918 H912 0.950 . S
C918 C919 1.327 . S
C919 H913 0.950 . S
C919 C918 1.327 . S
C919 C923 1.429 . S
C920 C903 1.574 . S
C920 H914 0.949 . S
C920 C924 1.368 . S
C921 C902 1.429 . S
C921 C915 1.429 . S
C921 C922 1.523 . S
C922 C903 1.368 . S
C922 C916 1.368 . S
C922 C921 1.523 . S
C923 C907 1.429 . S
C923 C919 1.429 . S
C923 C924 1.523 . S
C924 C908 1.368 . S
C924 C920 1.368 . S
C924 C923 1.523 . S
H925 C900 0.950 . S
H926 C902 0.950 . S
H927 C903 0.949 . S
H928 C905 0.950 . S
H929 C907 0.950 . S
C930 C931 1.349 . S
C930 C932 1.327 . S
C930 H955 0.950 . S
C931 C930 1.349 . S
C931 C947 1.349 . S
C932 C930 1.327 . S
C932 C951 1.429 . S
C932 H956 0.950 . S
C933 C950 1.574 . S
C933 C952 1.368 . S
C933 H957 0.949 . S
H934 C938 0.949 . S
C935 C936 1.349 . S
C935 C937 1.327 . S
C935 H958 0.950 . S
C936 C935 1.349 . S
C936 C948 1.349 . S
C937 C935 1.327 . S
C937 C953 1.429 . S
C937 H959 0.950 . S
C938 H934 0.949 . S
C938 C946 1.574 . S
C938 C954 1.368 . S
H939 C947 0.950 . S
H940 C945 0.950 . S
H941 C946 0.949 . S
H942 C948 0.950 . S
H943 C949 0.950 . S
H944 C950 0.949 . S
C945 H940 0.950 . S
C945 C947 1.327 . S
C945 C951 1.429 . S
C946 C938 1.574 . S
C946 H941 0.949 . S
C946 C952 1.368 . S
C947 C931 1.349 . S
C947 H939 0.950 . S
C947 C945 1.327 . S
C948 C936 1.349 . S
C948 H942 0.950 . S
C948 C949 1.327 . S
C949 H943 0.950 . S
C949 C948 1.327 . S
C949 C953 1.429 . S
C950 C933 1.574 . S
C950 H944 0.949 . S
C950 C954 1.368 . S
C951 C932 1.429 . S
C951 C945 1.429 . S
C951 C952 1.523 . S
C952 C933 1.368 . S
C952 C946 1.368 . S
C952 C951 1.523 . S
C953 C937 1.429 . S
C953 C949 1.429 . S
C953 C954 1.523 . S
C954 C938 1.368 . S
C954 C950 1.368 . S
C954 C953 1.523 . S
H955 C930 0.950 . S
H956 C932 0.950 . S
H957 C933 0.949 . S
H958 C935 0.950 . S
H959 C937 0.950 . S
C960 C961 1.349 . S
C960 C962 1.327 . S
C960 H985 0.950 . S
C961 C960 1.349 . S
C961 C977 1.349 . S
C962 C960 1.327 . S
C962 C981 1.429 . S
C962 H986 0.950 . S
C963 C980 1.574 . S
C963 C982 1.368 . S
C963 H987 0.949 . S
H964 C968 0.949 . S
C965 C966 1.349 . S
C965 C967 1.327 . S
C965 H988 0.950 . S
C966 C965 1.349 . S
C966 C978 1.349 . S
C967 C965 1.327 . S
C967 C983 1.429 . S
C967 H989 0.950 . S
C968 H964 0.949 . S
C968 C976 1.574 . S
C968 C984 1.368 . S
H969 C977 0.950 . S
H970 C975 0.950 . S
H971 C976 0.949 . S
H972 C978 0.950 . S
H973 C979 0.950 . S
H974 C980 0.949 . S
C975 H970 0.950 . S
C975 C977 1.327 . S
C975 C981 1.429 . S
C976 C968 1.574 . S
C976 H971 0.949 . S
C976 C982 1.368 . S
C977 C961 1.349 . S
C977 H969 0.950 . S
C977 C975 1.327 . S
C978 C966 1.349 . S
C978 H972 0.950 . S
C978 C979 1.327 . S
C979 H973 0.950 . S
C979 C978 1.327 . S
C979 C983 1.429 . S
C980 C963 1.574 . S
C980 H974 0.949 . S
C980 C984 1.368 . S
C981 C962 1.429 . S
C981 C975 1.429 . S
C981 C982 1.523 . S
C982 C963 1.368 . S
C982 C976 1.368 . S
C982 C981 1.523 . S
C983 C967 1.429 . S
C983 C979 1.429 . S
C983 C984 1.523 . S
C984 C968 1.368 . S
C984 C980 1.368 . S
C984 C983 1.523 . S
H985 C960 0.950 . S
H986 C962 0.950 . S
H987 C963 0.949 . S
H988 C965 0.950 . S
H989 C967 0.950 . S
C990 C991 1.349 . S
C990 C992 1.327 . S
C990 H1015 0.950 . S
C991 C990 1.349 . S
C991 C1007 1.349 . S
C992 C990 1.327 . S
C992 C1011 1.429 . S
C992 H1016 0.950 . S
C993 C1010 1.574 . S
C993 C1012 1.368 . S
C993 H1017 0.949 . S
H994 C998 0.949 . S
C995 C996 1.349 . S
C995 C997 1.327 . S
C995 H1018 0.950 . S
C996 C995 1.349 . S
C996 C1008 1.349 . S
C997 C995 1.327 . S
C997 C1013 1.429 . S
C997 H1019 0.950 . S
C998 H994 0.949 . S
C998 C1006 1.574 . S
C998 C1014 1.368 . S
H999 C1007 0.950 . S
H1000 C1005 0.950 . S
H1001 C1006 0.949 . S
H1002 C1008 0.950 . S
H1003 C1009 0.950 . S
H1004 C1010 0.949 . S
C1005 H1000 0.950 . S
C1005 C1007 1.327 . S
C1005 C1011 1.429 . S
C1006 C998 1.574 . S
C1006 H1001 0.949 . S
C1006 C1012 1.368 . S
C1007 C991 1.349 . S
C1007 H999 0.950 . S
C1007 C1005 1.327 . S
C1008 C996 1.349 . S
C1008 H1002 0.950 . S
C1008 C1009 1.327 . S
C1009 H1003 0.950 . S
C1009 C1008 1.327 . S
C1009 C1013 1.429 . S
C1010 C993 1.574 . S
C1010 H1004 0.949 . S
C1010 C1014 1.368 . S
C1011 C992 1.429 . S
C1011 C1005 1.429 . S
C1011 C1012 1.523 . S
C1012 C993 1.368 . S
C1012 C1006 1.368 . S
C1012 C1011 1.523 . S
C1013 C997 1.429 . S
C1013 C1009 1.429 . S
C1013 C1014 1.523 . S
C1014 C998 1.368 . S
C1014 C1010 1.368 . S
C1014 C1013 1.523 . S
H1015 C990 0.950 . S
H1016 C992 0.950 . S
H1017 C993 0.949 . S
H1018 C995 0.950 . S
H1019 C997 0.950 . S
C1020 C1021 1.349 . S
C1020 C1022 1.327 . S
C1020 H1045 0.950 . S
C1021 C1020 1.349 . S
C1021 C1037 1.349 . S
C1022 C1020 1.327 . S
C1022 C1041 1.429 . S
C1022 H1046 0.950 . S
C1023 C1040 1.574 . S
C1023 C1042 1.368 . S
C1023 H1047 0.949 . S
H1024 C1028 0.949 . S
C1025 C1026 1.349 . S
C1025 C1027 1.327 . S
C1025 H1048 0.950 . S
C1026 C1025 1.349 . S
C1026 C1038 1.349 . S
C1027 C1025 1.327 . S
C1027 C1043 1.429 . S
C1027 H1049 0.950 . S
C1028 H1024 0.949 . S
C1028 C1036 1.574 . S
C1028 C1044 1.368 . S
H1029 C1037 0.950 . S
H1030 C1035 0.950 . S
H1031 C1036 0.949 . S
H1032 C1038 0.950 . S
H1033 C1039 0.950 . S
H1034 C1040 0.949 . S
C1035 H1030 0.950 . S
C1035 C1037 1.327 . S
C1035 C1041 1.429 . S
C1036 C1028 1.574 . S
C1036 H1031 0.949 . S
C1036 C1042 1.368 . S
C1037 C1021 1.349 . S
C1037 H1029 0.950 . S
C1037 C1035 1.327 . S
C1038 C1026 1.349 . S
C1038 H1032 0.950 . S
C1038 C1039 1.327 . S
C1039 H1033 0.950 . S
C1039 C1038 1.327 . S
C1039 C1043 1.429 . S
C1040 C1023 1.574 . S
C1040 H1034 0.949 . S
C1040 C1044 1.368 . S
C1041 C1022 1.429 . S
C1041 C1035 1.429 . S
C1041 C1042 1.523 . S
C1042 C1023 1.368 . S
C1042 C1036 1.368 . S
C1042 C1041 1.523 . S
C1043 C1027 1.429 . S
C1043 C1039 1.429 . S
C1043 C1044 1.523 . S
C1044 C1028 1.368 . S
C1044 C1040 1.368 . S
C1044 C1043 1.523 . S
H1045 C1020 0.950 . S
H1046 C1022 0.950 . S
H1047 C1023 0.949 . S
H1048 C1025 0.950 . S
H1049 C1027 0.950 . S
C1050 C1051 1.349 . S
C1050 C1052 1.327 . S
C1050 H1075 0.950 . S
C1051 C1050 1.349 . S
C1051 C1067 1.349 . S
C1052 C1050 1.327 . S
C1052 C1071 1.429 . S
C1052 H1076 0.950 . S
C1053 C1070 1.574 . S
C1053 C1072 1.368 . S
C1053 H1077 0.949 . S
H1054 C1058 0.949 . S
C1055 C1056 1.349 . S
C1055 C1057 1.327 . S
C1055 H1078 0.950 . S
C1056 C1055 1.349 . S
C1056 C1068 1.349 . S
C1057 C1055 1.327 . S
C1057 C1073 1.429 . S
C1057 H1079 0.950 . S
C1058 H1054 0.949 . S
C1058 C1066 1.574 . S
C1058 C1074 1.368 . S
H1059 C1067 0.950 . S
H1060 C1065 0.950 . S
H1061 C1066 0.949 . S
H1062 C1068 0.950 . S
H1063 C1069 0.950 . S
H1064 C1070 0.949 . S
C1065 H1060 0.950 . S
C1065 C1067 1.327 . S
C1065 C1071 1.429 . S
C1066 C1058 1.574 . S
C1066 H1061 0.949 . S
C1066 C1072 1.368 . S
C1067 C1051 1.349 . S
C1067 H1059 0.950 . S
C1067 C1065 1.327 . S
C1068 C1056 1.349 . S
C1068 H1062 0.950 . S
C1068 C1069 1.327 . S
C1069 H1063 0.950 . S
C1069 C1068 1.327 . S
C1069 C1073 1.429 . S
C1070 C1053 1.574 . S
C1070 H1064 0.949 . S
C1070 C1074 1.368 . S
C1071 C1052 1.429 . S
C1071 C1065 1.429 . S
C1071 C1072 1.523 . S
C1072 C1053 1.368 . S
C1072 C1066 1.368 . S
C1072 C1071 1.523 . S
C1073 C1057 1.429 . S
C1073 C1069 1.429 . S
C1073 C1074 1.523 . S
C1074 C1058 1.368 . S
C1074 C1070 1.368 . S
C1074 C1073 1.523 . S
H1075 C1050 0.950 . S
H1076 C1052 0.950 . S
H1077 C1053 0.949 . S
H1078 C1055 0.950 . S
H1079 C1057 0.950 . S
C1080 C1081 1.349 . S
C1080 C1082 1.327 . S
C1080 H1105 0.950 . S
C1081 C1080 1.349 . S
C1081 C1097 1.349 . S
C1082 C1080 1.327 . S
C1082 C1101 1.429 . S
C1082 H1106 0.950 . S
C1083 C1100 1.574 . S
C1083 C1102 1.368 . S
C1083 H1107 0.949 . S
H1084 C1088 0.949 . S
C1085 C1086 1.349 . S
C1085 C1087 1.327 . S
C1085 H1108 0.950 . S
C1086 C1085 1.349 . S
C1086 C1098 1.349 . S
C1087 C1085 1.327 . S
C1087 C1103 1.429 . S
C1087 H1109 0.950 . S
C1088 H1084 0.949 . S
C1088 C1096 1.574 . S
C1088 C1104 1.368 . S
H1089 C1097 0.950 . S
H1090 C1095 0.950 . S
H1091 C1096 0.949 . S
H1092 C1098 0.950 . S
H1093 C1099 0.950 . S
H1094 C1100 0.949 . S
C1095 H1090 0.950 . S
C1095 C1097 1.327 . S
C1095 C1101 1.429 . S
C1096 C1088 1.574 . S
C1096 H1091 0.949 . S
C1096 C1102 1.368 . S
C1097 C1081 1.349 . S
C1097 H1089 0.950 . S
C1097 C1095 1.327 . S
C1098 C1086 1.349 . S
C1098 H1092 0.950 . S
C1098 C1099 1.327 . S
C1099 H1093 0.950 . S
C1099 C1098 1.327 . S
C1099 C1103 1.429 . S
C1100 C1083 1.574 . S
C1100 H1094 0.949 . S
C1100 C1104 1.368 . S
C1101 C1082 1.429 . S
C1101 C1095 1.429 . S
C1101 C1102 1.523 . S
C1102 C1083 1.368 . S
C1102 C1096 1.368 . S
C1102 C1101 1.523 . S
C1103 C1087 1.429 . S
C1103 C1099 1.429 . S
C1103 C1104 1.523 . S
C1104 C1088 1.368 . S
C1104 C1100 1.368 . S
C1104 C1103 1.523 . S
H1105 C1080 0.950 . S
H1106 C1082 0.950 . S
H1107 C1083 0.949 . S
H1108 C1085 0.950 . S
H1109 C1087 0.950 . S
C1110 C1111 1.349 . S
C1110 C1112 1.327 . S
C1110 H1135 0.950 . S
C1111 C1110 1.349 . S
C1111 C1127 1.349 . S
C1112 C1110 1.327 . S
C1112 C1131 1.429 . S
C1112 H1136 0.950 . S
C1113 C1130 1.574 . S
C1113 C1132 1.368 . S
C1113 H1137 0.949 . S
H1114 C1118 0.949 . S
C1115 C1116 1.349 . S
C1115 C1117 1.327 . S
C1115 H1138 0.950 . S
C1116 C1115 1.349 . S
C1116 C1128 1.349 . S
C1117 C1115 1.327 . S
C1117 C1133 1.429 . S
C1117 H1139 0.950 . S
C1118 H1114 0.949 . S
C1118 C1126 1.574 . S
C1118 C1134 1.368 . S
H1119 C1127 0.950 . S
H1120 C1125 0.950 . S
H1121 C1126 0.949 . S
H1122 C1128 0.950 . S
H1123 C1129 0.950 . S
H1124 C1130 0.949 . S
C1125 H1120 0.950 . S
C1125 C1127 1.327 . S
C1125 C1131 1.429 . S
C1126 C1118 1.574 . S
C1126 H1121 0.949 . S
C1126 C1132 1.368 . S
C1127 C1111 1.349 . S
C1127 H1119 0.950 . S
C1127 C1125 1.327 . S
C1128 C1116 1.349 . S
C1128 H1122 0.950 . S
C1128 C1129 1.327 . S
C1129 H1123 0.950 . S
C1129 C1128 1.327 . S
C1129 C1133 1.429 . S
C1130 C1113 1.574 . S
C1130 H1124 0.949 . S
C1130 C1134 1.368 . S
C1131 C1112 1.429 . S
C1131 C1125 1.429 . S
C1131 C1132 1.523 . S
C1132 C1113 1.368 . S
C1132 C1126 1.368 . S
C1132 C1131 1.523 . S
C1133 C1117 1.429 . S
C1133 C1129 1.429 . S
C1133 C1134 1.523 . S
C1134 C1118 1.368 . S
C1134 C1130 1.368 . S
C1134 C1133 1.523 . S
H1135 C1110 0.950 . S
H1136 C1112 0.950 . S
H1137 C1113 0.949 . S
H1138 C1115 0.950 . S
H1139 C1117 0.950 . S
C1140 C1141 1.349 . S
C1140 C1142 1.327 . S
C1140 H1165 0.950 . S
C1141 C1140 1.349 . S
C1141 C1157 1.349 . S
C1142 C1140 1.327 . S
C1142 C1161 1.429 . S
C1142 H1166 0.950 . S
C1143 C1160 1.574 . S
C1143 C1162 1.368 . S
C1143 H1167 0.949 . S
H1144 C1148 0.949 . S
C1145 C1146 1.349 . S
C1145 C1147 1.327 . S
C1145 H1168 0.950 . S
C1146 C1145 1.349 . S
C1146 C1158 1.349 . S
C1147 C1145 1.327 . S
C1147 C1163 1.429 . S
C1147 H1169 0.950 . S
C1148 H1144 0.949 . S
C1148 C1156 1.574 . S
C1148 C1164 1.368 . S
H1149 C1157 0.950 . S
H1150 C1155 0.950 . S
H1151 C1156 0.949 . S
H1152 C1158 0.950 . S
H1153 C1159 0.950 . S
H1154 C1160 0.949 . S
C1155 H1150 0.950 . S
C1155 C1157 1.327 . S
C1155 C1161 1.429 . S
C1156 C1148 1.574 . S
C1156 H1151 0.949 . S
C1156 C1162 1.368 . S
C1157 C1141 1.349 . S
C1157 H1149 0.950 . S
C1157 C1155 1.327 . S
C1158 C1146 1.349 . S
C1158 H1152 0.950 . S
C1158 C1159 1.327 . S
C1159 H1153 0.950 . S
C1159 C1158 1.327 . S
C1159 C1163 1.429 . S
C1160 C1143 1.574 . S
C1160 H1154 0.949 . S
C1160 C1164 1.368 . S
C1161 C1142 1.429 . S
C1161 C1155 1.429 . S
C1161 C1162 1.523 . S
C1162 C1143 1.368 . S
C1162 C1156 1.368 . S
C1162 C1161 1.523 . S
C1163 C1147 1.429 . S
C1163 C1159 1.429 . S
C1163 C1164 1.523 . S
C1164 C1148 1.368 . S
C1164 C1160 1.368 . S
C1164 C1163 1.523 . S
H1165 C1140 0.950 . S
H1166 C1142 0.950 . S
H1167 C1143 0.949 . S
H1168 C1145 0.950 . S
H1169 C1147 0.950 . S
C1170 C1171 1.349 . S
C1170 C1172 1.327 . S
C1170 H1195 0.950 . S
C1171 C1170 1.349 . S
C1171 C1187 1.349 . S
C1172 C1170 1.327 . S
C1172 C1191 1.429 . S
C1172 H1196 0.950 . S
C1173 C1190 1.574 . S
C1173 C1192 1.368 . S
C1173 H1197 0.949 . S
H1174 C1178 0.949 . S
C1175 C1176 1.349 . S
C1175 C1177 1.327 . S
C1175 H1198 0.950 . S
C1176 C1175 1.349 . S
C1176 C1188 1.349 . S
C1177 C1175 1.327 . S
C1177 C1193 1.429 . S
C1177 H1199 0.950 . S
C1178 H1174 0.949 . S
C1178 C1186 1.574 . S
C1178 C1194 1.368 . S
H1179 C1187 0.950 . S
H1180 C1185 0.950 . S
H1181 C1186 0.949 . S
H1182 C1188 0.950 . S
H1183 C1189 0.950 . S
H1184 C1190 0.949 . S
C1185 H1180 0.950 . S
C1185 C1187 1.327 . S
C1185 C1191 1.429 . S
C1186 C1178 1.574 . S
C1186 H1181 0.949 . S
C1186 C1192 1.368 . S
C1187 C1171 1.349 . S
C1187 H1179 0.950 . S
C1187 C1185 1.327 . S
C1188 C1176 1.349 . S
C1188 H1182 0.950 . S
C1188 C1189 1.327 . S
C1189 H1183 0.950 . S
C1189 C1188 1.327 . S
C1189 C1193 1.429 . S
C1190 C1173 1.574 . S
C1190 H1184 0.949 . S
C1190 C1194 1.368 . S
C1191 C1172 1.429 . S
C1191 C1185 1.429 . S
C1191 C1192 1.523 . S
C1192 C1173 1.368 . S
C1192 C1186 1.368 . S
C1192 C1191 1.523 . S
C1193 C1177 1.429 . S
C1193 C1189 1.429 . S
C1193 C1194 1.523 . S
C1194 C1178 1.368 . S
C1194 C1190 1.368 . S
C1194 C1193 1.523 . S
H1195 C1170 0.950 . S
H1196 C1172 0.950 . S
H1197 C1173 0.949 . S
H1198 C1175 0.950 . S
H1199 C1177 0.950 . S
C481 C21 0.960 . S
C486 C335 0.982 . S
C511 C61 1.694 . S
C516 C379 1.639 . S
C546 C409 1.929 . S
C541 C82 1.908 . S
C571 C135 2.827 . S
C576 C450 2.790 . S
C606 C366 0.729 . S
C601 C15 0.729 . S
C636 C330 2.733 . S
C631 C42 2.740 . S
C666 C458 1.098 . S
C661 C101 1.086 . S
C696 C419 2.119 . S
C691 C122 2.146 . S
C721 C2 0.712 . S
C726 C455 0.705 . S
C756 C369 1.907 . S
C751 C95 1.946 . S
C781 C141 2.166 . S
C786 C338 2.142 . S
C811 C55 1.927 . S
C816 C406 1.937 . S
C846 C326 0.993 . S
C841 C181 1.004 . S
C871 C202 1.657 . S
C876 C370 1.605 . S
C901 C255 1.960 . S
C906 C418 1.959 . S
C931 C295 2.800 . S
C936 C459 2.766 . S
C961 C175 0.710 . S
C966 C375 0.709 . S
C996 C339 2.745 . S
C991 C221 2.743 . S
C1026 C449 1.025 . S
C1021 C242 1.038 . S
C1056 C410 2.174 . S
C1051 C301 2.172 . S
C1081 C162 0.685 . S
C1086 C446 0.691 . S
C1116 C378 1.951 . S
C1111 C261 1.994 . S
C1146 C329 2.107 . S
C1141 C282 2.145 . S
C1171 C215 1.937 . S
C1176 C415 1.950 . S
