# Generated by pormake.
# Topology apo, (3,6)-cn, num edge types: 1
# Building blocks:
#     Node 0, Type 0, BuildingBlock: OLANEW_clean_sbu_2, # of connection points: 3
#     Node 1, Type 0, BuildingBlock: OLANEW_clean_sbu_2, # of connection points: 3
#     Node 2, Type 0, BuildingBlock: OLANEW_clean_sbu_2, # of connection points: 3
#     Node 3, Type 0, BuildingBlock: OLANEW_clean_sbu_2, # of connection points: 3
#     Node 4, Type 0, BuildingBlock: OLANEW_clean_sbu_2, # of connection points: 3
#     Node 5, Type 0, BuildingBlock: OLANEW_clean_sbu_2, # of connection points: 3
#     Node 6, Type 0, BuildingBlock: OLANEW_clean_sbu_2, # of connection points: 3
#     Node 7, Type 0, BuildingBlock: OLANEW_clean_sbu_2, # of connection points: 3
#     Node 8, Type 1, BuildingBlock: MIDCAF_clean_sbu_0, # of connection points: 6
#     Node 9, Type 1, BuildingBlock: MIDCAF_clean_sbu_0, # of connection points: 6
#     Node 10, Type 1, BuildingBlock: MIDCAF_clean_sbu_0, # of connection points: 6
#     Node 11, Type 1, BuildingBlock: MIDCAF_clean_sbu_0, # of connection points: 6
#     Edge 12, Type (0, 1), BuildingBlock: MIFKUJ_clean_linker_0, # of connection points: 2
#     Edge 13, Type (0, 1), BuildingBlock: MIFKUJ_clean_linker_0, # of connection points: 2
#     Edge 14, Type (0, 1), BuildingBlock: MIFKUJ_clean_linker_0, # of connection points: 2
#     Edge 15, Type (0, 1), BuildingBlock: MIFKUJ_clean_linker_0, # of connection points: 2
#     Edge 16, Type (0, 1), BuildingBlock: MIFKUJ_clean_linker_0, # of connection points: 2
#     Edge 17, Type (0, 1), BuildingBlock: MIFKUJ_clean_linker_0, # of connection points: 2
#     Edge 18, Type (0, 1), BuildingBlock: MIFKUJ_clean_linker_0, # of connection points: 2
#     Edge 19, Type (0, 1), BuildingBlock: MIFKUJ_clean_linker_0, # of connection points: 2
#     Edge 20, Type (0, 1), BuildingBlock: MIFKUJ_clean_linker_0, # of connection points: 2
#     Edge 21, Type (0, 1), BuildingBlock: MIFKUJ_clean_linker_0, # of connection points: 2
#     Edge 22, Type (0, 1), BuildingBlock: MIFKUJ_clean_linker_0, # of connection points: 2
#     Edge 23, Type (0, 1), BuildingBlock: MIFKUJ_clean_linker_0, # of connection points: 2
#     Edge 24, Type (0, 1), BuildingBlock: MIFKUJ_clean_linker_0, # of connection points: 2
#     Edge 25, Type (0, 1), BuildingBlock: MIFKUJ_clean_linker_0, # of connection points: 2
#     Edge 26, Type (0, 1), BuildingBlock: MIFKUJ_clean_linker_0, # of connection points: 2
#     Edge 27, Type (0, 1), BuildingBlock: MIFKUJ_clean_linker_0, # of connection points: 2
#     Edge 28, Type (0, 1), BuildingBlock: MIFKUJ_clean_linker_0, # of connection points: 2
#     Edge 29, Type (0, 1), BuildingBlock: MIFKUJ_clean_linker_0, # of connection points: 2
#     Edge 30, Type (0, 1), BuildingBlock: MIFKUJ_clean_linker_0, # of connection points: 2
#     Edge 31, Type (0, 1), BuildingBlock: MIFKUJ_clean_linker_0, # of connection points: 2
#     Edge 32, Type (0, 1), BuildingBlock: MIFKUJ_clean_linker_0, # of connection points: 2
#     Edge 33, Type (0, 1), BuildingBlock: MIFKUJ_clean_linker_0, # of connection points: 2
#     Edge 34, Type (0, 1), BuildingBlock: MIFKUJ_clean_linker_0, # of connection points: 2
#     Edge 35, Type (0, 1), BuildingBlock: MIFKUJ_clean_linker_0, # of connection points: 2
# Relax obj value: 0.030
# Max RMSD: 0.083
# Mean RMSD: 0.071
data_MOF--net-apo--node1-OLANEW_clean_sbu_2--node2-MIDCAF_clean_sbu_0--edge1-MIFKUJ_clean_linker_0
_symmetry_space_group_name_H-M    P1
_symmetry_Int_Tables_number       1
_symmetry_cell_setting            triclinic
loop_
_symmetry_equiv_pos_as_xyz
'x, y, z'
_cell_length_a     49.705591
_cell_length_b     55.727269
_cell_length_c     48.987452
_cell_angle_alpha  88.666097
_cell_angle_beta   90.050191
_cell_angle_gamma 90.223306
loop_
_atom_site_label
_atom_site_type_symbol
_atom_site_fract_x
_atom_site_fract_y
_atom_site_fract_z
_atom_type_partial_charge
O0 O 0.33745 0.34877 0.36342 0.0
Cd1 Cd 0.31324 0.31779 0.39014 0.0
O2 O 0.37649 0.33347 0.37561 0.0
Cd3 Cd 0.35976 0.30813 0.4055 0.0
O4 O 0.36348 0.30713 0.44975 0.0
C5 C 0.38258 0.3205 0.45768 0.0
O6 O 0.39708 0.33209 0.43918 0.0
C7 C 0.36302 0.34911 0.36222 0.0
C8 C 0.27793 0.28973 0.35996 0.0
O9 O 0.26983 0.30873 0.37166 0.0
O10 O 0.30285 0.28417 0.36221 0.0
O11 O 0.18749 0.19504 0.92846 0.0
Cd12 Cd 0.19972 0.19961 0.8804 0.0
O13 O 0.21265 0.16296 0.92872 0.0
Cd14 Cd 0.21905 0.12542 0.93981 0.0
O15 O 0.19915 0.09948 0.91396 0.0
C16 C 0.18069 0.10911 0.89948 0.0
O17 O 0.1756 0.13202 0.90237 0.0
C18 C 0.19561 0.17603 0.94059 0.0
C19 C 0.24739 0.22337 0.86749 0.0
O20 O 0.22504 0.23473 0.86849 0.0
O21 O 0.24732 0.20089 0.87368 0.0
O22 O 0.83277 0.14698 0.65536 0.0
Cd23 Cd 0.81603 0.18178 0.62897 0.0
O24 O 0.86489 0.15547 0.62656 0.0
Cd25 Cd 0.90202 0.15032 0.60426 0.0
O26 O 0.91525 0.15225 0.56223 0.0
C27 C 0.8958 0.15171 0.54542 0.0
O28 O 0.87118 0.14949 0.55494 0.0
C29 C 0.85529 0.1416 0.64505 0.0
C30 C 0.77732 0.20964 0.65372 0.0
O31 O 0.77047 0.19198 0.63886 0.0
O32 O 0.80247 0.2137 0.65725 0.0
O33 O 0.6967 0.2971 0.06879 0.0
Cd34 Cd 0.70337 0.28674 0.11697 0.0
O35 O 0.70856 0.33325 0.07998 0.0
Cd36 Cd 0.71376 0.37209 0.0781 0.0
O37 O 0.69583 0.40008 0.10218 0.0
C38 C 0.67494 0.39235 0.11451 0.0
O39 O 0.66727 0.37007 0.11079 0.0
C40 C 0.69946 0.31912 0.06216 0.0
C41 C 0.75461 0.27156 0.13198 0.0
O42 O 0.73704 0.25689 0.12281 0.0
O43 O 0.7482 0.29377 0.13332 0.0
O44 O 0.6543 0.67445 0.67148 0.0
Cd45 Cd 0.66647 0.71159 0.64746 0.0
O46 O 0.67067 0.65894 0.6346 0.0
Cd47 Cd 0.67835 0.63163 0.60468 0.0
O48 O 0.66974 0.63109 0.56132 0.0
C49 C 0.6499 0.64447 0.5552 0.0
O50 O 0.63729 0.65541 0.5749 0.0
C51 C 0.65873 0.65611 0.65735 0.0
C52 C 0.71476 0.7303 0.66565 0.0
O53 O 0.69224 0.73685 0.67576 0.0
O54 O 0.71445 0.71468 0.64686 0.0
O55 O 0.83347 0.84884 0.14271 0.0
Cd56 Cd 0.81308 0.81448 0.12005 0.0
O57 O 0.81089 0.8753 0.11793 0.0
Cd58 Cd 0.7957 0.84815 0.09079 0.0
O59 O 0.8116 0.83838 0.05127 0.0
C60 C 0.83361 0.84902 0.04546 0.0
O61 O 0.84416 0.86347 0.06344 0.0
C62 C 0.82771 0.87057 0.13683 0.0
C63 C 0.77021 0.79301 0.14827 0.0
O64 O 0.79452 0.78627 0.15251 0.0
O65 O 0.76619 0.81023 0.13095 0.0
O66 O 0.14344 0.8241 0.33778 0.0
Cd67 Cd 0.15677 0.78444 0.35395 0.0
O68 O 0.17102 0.83873 0.36787 0.0
Cd69 Cd 0.18592 0.86428 0.39735 0.0
O70 O 0.17423 0.8647 0.44005 0.0
C71 C 0.15199 0.85377 0.44373 0.0
O72 O 0.13956 0.84502 0.42244 0.0
C73 C 0.15345 0.84223 0.34934 0.0
C74 C 0.20757 0.77358 0.33471 0.0
O75 O 0.18641 0.76945 0.32058 0.0
O76 O 0.2047 0.78283 0.35824 0.0
O77 O 0.34728 0.66012 0.83021 0.0
Cd78 Cd 0.32945 0.69995 0.83787 0.0
O79 O 0.32483 0.64455 0.86466 0.0
Cd80 Cd 0.3165 0.61967 0.89862 0.0
O81 O 0.32632 0.61642 0.94174 0.0
C82 C 0.34839 0.6269 0.94703 0.0
O83 O 0.36213 0.63673 0.92673 0.0
C84 C 0.34186 0.6421 0.84557 0.0
C85 C 0.27461 0.70459 0.82883 0.0
O86 O 0.29133 0.70417 0.80897 0.0
O87 O 0.28371 0.70226 0.85324 0.0
Zn88 Zn 0.05649 0.10004 0.30087 0.0
Zn89 Zn 0.99203 0.11935 0.17476 0.0
Zn90 Zn 0.02568 0.10886 0.23437 0.0
C91 C 0.05278 0.12948 0.18922 0.0
C92 C 0.99527 0.0695 0.1923 0.0
O93 O 0.00259 0.12526 0.26752 0.0
O94 O 0.02454 0.12107 0.30778 0.0
C95 C 0.08735 0.12689 0.25916 0.0
O96 O 0.05997 0.12532 0.21374 0.0
O97 O 0.02878 0.12547 0.18354 0.0
O98 O 0.98616 0.08455 0.17487 0.0
O99 O 0.00968 0.07596 0.21304 0.0
O100 O 0.08645 0.11816 0.28337 0.0
O101 O 0.06787 0.12433 0.24164 0.0
O102 O 0.02613 0.06914 0.23519 0.0
O103 O 0.04158 0.08438 0.27083 0.0
C104 C 0.03871 0.0659 0.25743 0.0
O105 O 0.99006 0.13216 0.24023 0.0
O106 O 0.9688 0.13666 0.19994 0.0
C107 C 0.00497 0.12903 0.29337 0.0
C108 C 0.9707 0.14058 0.22525 0.0
Zn109 Zn 0.54913 0.39321 0.72333 0.0
Zn110 Zn 0.50143 0.37918 0.80734 0.0
Zn111 Zn 0.52222 0.38651 0.7661 0.0
C112 C 0.48384 0.42329 0.79384 0.0
C113 C 0.48053 0.34506 0.77789 0.0
O114 O 0.56239 0.36856 0.77036 0.0
O115 O 0.58409 0.3788 0.73243 0.0
C116 C 0.53503 0.43835 0.73818 0.0
O117 O 0.50561 0.42144 0.77969 0.0
O118 O 0.47399 0.40467 0.80513 0.0
O119 O 0.48969 0.3456 0.80187 0.0
O120 O 0.48769 0.36148 0.76036 0.0
O121 O 0.5472 0.42796 0.71931 0.0
O122 O 0.52421 0.4261 0.75799 0.0
O123 O 0.49891 0.36784 0.73413 0.0
O124 O 0.52585 0.37482 0.69906 0.0
C125 C 0.50453 0.36564 0.70866 0.0
O126 O 0.5525 0.37296 0.79664 0.0
O127 O 0.531 0.38526 0.83287 0.0
C128 C 0.58342 0.36744 0.75495 0.0
C129 C 0.55234 0.3778 0.82223 0.0
Zn130 Zn 0.02073 0.88027 0.80077 0.0
Zn131 Zn 0.97124 0.89148 0.67503 0.0
Zn132 Zn 0.00692 0.88409 0.75234 0.0
C133 C 0.99496 0.92433 0.71829 0.0
C134 C 0.94561 0.86548 0.72414 0.0
O135 O 0.04275 0.86024 0.75209 0.0
O136 O 0.04983 0.8572 0.79655 0.0
C137 C 0.02877 0.92791 0.78852 0.0
O138 O 0.00579 0.92199 0.74174 0.0
O139 O 0.99305 0.90524 0.70509 0.0
O140 O 0.94453 0.87299 0.69918 0.0
O141 O 0.96578 0.86922 0.74054 0.0
O142 O 0.03262 0.91333 0.80818 0.0
O143 O 0.01814 0.92067 0.76617 0.0
O144 O 0.97084 0.86937 0.7714 0.0
O145 O 0.98544 0.86903 0.81396 0.0
C146 C 0.96685 0.86546 0.79696 0.0
O147 O 0.03402 0.86554 0.72555 0.0
O148 O 0.00243 0.87959 0.69969 0.0
C149 C 0.0563 0.85186 0.77257 0.0
C150 C 0.02397 0.86755 0.70168 0.0
Zn151 Zn 0.52311 0.62096 0.18664 0.0
Zn152 Zn 0.48374 0.61273 0.30571 0.0
Zn153 Zn 0.49576 0.62031 0.25599 0.0
C154 C 0.53042 0.64092 0.30384 0.0
C155 C 0.4878 0.56781 0.28491 0.0
O156 O 0.46043 0.6355 0.23442 0.0
O157 O 0.49363 0.62894 0.20895 0.0
C158 C 0.54933 0.65041 0.22988 0.0
O159 O 0.52637 0.64065 0.27796 0.0
O160 O 0.51548 0.62906 0.32003 0.0
O161 O 0.48223 0.5773 0.30732 0.0
O162 O 0.49393 0.58105 0.26392 0.0
O163 O 0.54855 0.64318 0.20541 0.0
O164 O 0.53231 0.6435 0.24858 0.0
O165 O 0.50834 0.58527 0.23875 0.0
O166 O 0.52796 0.5864 0.19711 0.0
C167 C 0.52003 0.57502 0.21846 0.0
O168 O 0.45571 0.63728 0.26201 0.0
O169 O 0.45028 0.63186 0.30649 0.0
C170 C 0.46977 0.63538 0.21038 0.0
C171 C 0.44237 0.64096 0.28406 0.0
H172 H 0.10529 0.85306 0.32632 0.0
H173 H 0.08862 0.89234 0.3116 0.0
H174 H 0.16125 0.92556 0.34097 0.0
H175 H 0.17846 0.88603 0.35531 0.0
H176 H 0.11284 0.95038 0.35441 0.0
H177 H 0.15692 0.91924 0.27587 0.0
H178 H 0.16748 0.88872 0.24188 0.0
H179 H 0.08482 0.88755 0.21638 0.0
H180 H 0.07371 0.91788 0.25045 0.0
H181 H 0.08312 0.0613 0.2888 0.0
H182 H 0.10521 0.02463 0.30448 0.0
H183 H 0.04558 0.98259 0.26258 0.0
H184 H 0.02473 0.01949 0.24504 0.0
H185 H 0.09115 0.96312 0.25623 0.0
H186 H 0.04632 0.99295 0.33621 0.0
H187 H 0.03557 0.02326 0.37043 0.0
H188 H 0.11874 0.02667 0.39385 0.0
H189 H 0.13003 0.99657 0.35958 0.0
C190 C 0.11774 0.8687 0.32978 0.0
C191 C 0.14311 0.86643 0.34225 0.0
C192 C 0.10816 0.89112 0.32135 0.0
C193 C 0.12379 0.91178 0.32504 0.0
C194 C 0.14886 0.90978 0.33808 0.0
C195 C 0.15856 0.88722 0.34648 0.0
C196 C 0.11396 0.93523 0.31443 0.0
C197 C 0.10845 0.9534 0.3329 0.0
C198 C 0.10782 0.93886 0.28646 0.0
C199 C 0.11445 0.92071 0.26584 0.0
C200 C 0.14096 0.91235 0.26315 0.0
C201 C 0.14705 0.89511 0.24384 0.0
C202 C 0.12683 0.88617 0.22702 0.0
C203 C 0.10047 0.89449 0.22943 0.0
C204 C 0.09427 0.91173 0.2487 0.0
C205 C 0.07467 0.04423 0.28294 0.0
C206 C 0.05179 0.04325 0.2661 0.0
C207 C 0.08724 0.02324 0.29211 0.0
C208 C 0.07661 0.00074 0.28552 0.0
C209 C 0.05405 -0.00027 0.2682 0.0
C210 C 0.04197 0.02083 0.25828 0.0
C211 C 0.08929 0.97831 0.29626 0.0
C212 C 0.09549 0.96028 0.27777 0.0
C213 C 0.09591 0.97481 0.32427 0.0
C214 C 0.08904 0.99263 0.34519 0.0
C215 C 0.06233 0.00024 0.34858 0.0
C216 C 0.05614 0.01738 0.36799 0.0
C217 C 0.07647 0.02692 0.38426 0.0
C218 C 0.10301 0.01928 0.38123 0.0
C219 C 0.10931 0.00215 0.36185 0.0
H220 H 0.07164 0.0402 0.39925 0.0
H221 H 0.13158 0.87282 0.21208 0.0
H222 H 0.32763 0.59576 0.86095 0.0
H223 H 0.35361 0.55914 0.85394 0.0
H224 H 0.41575 0.60089 0.81363 0.0
H225 H 0.39041 0.63748 0.82119 0.0
H226 H 0.40085 0.56185 0.78448 0.0
H227 H 0.4251 0.57996 0.87651 0.0
H228 H 0.41688 0.58854 0.92494 0.0
H229 H 0.37975 0.51938 0.93655 0.0
H230 H 0.38717 0.51058 0.88803 0.0
H231 H 0.50037 0.46904 0.77847 0.0
H232 H 0.47761 0.50695 0.78772 0.0
H233 H 0.41433 0.46794 0.82969 0.0
H234 H 0.43654 0.4303 0.82022 0.0
H235 H 0.43138 0.50632 0.85869 0.0
H236 H 0.4039 0.48921 0.7671 0.0
H237 H 0.41073 0.48019 0.71857 0.0
H238 H 0.45291 0.54698 0.70647 0.0
H239 H 0.44669 0.55623 0.75508 0.0
C240 C 0.34713 0.59724 0.8513 0.0
C241 C 0.35716 0.61962 0.84214 0.0
C242 C 0.36184 0.57626 0.84706 0.0
C243 C 0.3867 0.57736 0.83343 0.0
C244 C 0.39663 0.59965 0.82418 0.0
C245 C 0.38207 0.62054 0.82853 0.0
C246 C 0.40216 0.55528 0.82798 0.0
C247 C 0.40785 0.54988 0.80074 0.0
C248 C 0.41081 0.53946 0.84921 0.0
C249 C 0.4064 0.54472 0.87847 0.0
C250 C 0.41491 0.56667 0.88929 0.0
C251 C 0.41043 0.57157 0.91678 0.0
C252 C 0.39772 0.55455 0.93378 0.0
C253 C 0.38953 0.53257 0.92334 0.0
C254 C 0.39386 0.52763 0.89583 0.0
C255 C 0.48149 0.46853 0.78928 0.0
C256 C 0.47028 0.44657 0.79827 0.0
C257 C 0.46855 0.49021 0.79473 0.0
C258 C 0.44424 0.49024 0.80941 0.0
C259 C 0.43312 0.46837 0.81848 0.0
C260 C 0.44587 0.44682 0.81288 0.0
C261 C 0.43 0.5129 0.8152 0.0
C262 C 0.4245 0.5184 0.84248 0.0
C263 C 0.42139 0.52877 0.79404 0.0
C264 C 0.42513 0.52327 0.76481 0.0
C265 C 0.41486 0.50187 0.75415 0.0
C266 C 0.41858 0.49673 0.72662 0.0
C267 C 0.43233 0.51296 0.70947 0.0
C268 C 0.44232 0.5344 0.7198 0.0
C269 C 0.4387 0.5396 0.74734 0.0
H270 H 0.43517 0.50896 0.68815 0.0
H271 H 0.39427 0.55838 0.95505 0.0
H272 H 0.63283 0.6234 0.62629 0.0
H273 H 0.60951 0.58686 0.64245 0.0
H274 H 0.63653 0.59963 0.72451 0.0
H275 H 0.65924 0.63659 0.7086 0.0
H276 H 0.63939 0.5468 0.69665 0.0
H277 H 0.58295 0.6159 0.72146 0.0
H278 H 0.55909 0.65331 0.70904 0.0
H279 H 0.51382 0.61616 0.6483 0.0
H280 H 0.53782 0.57861 0.66004 0.0
H281 H 0.56288 0.46547 0.77341 0.0
H282 H 0.58184 0.50512 0.76192 0.0
H283 H 0.53263 0.50894 0.68938 0.0
H284 H 0.51404 0.4692 0.70068 0.0
H285 H 0.5408 0.55356 0.71096 0.0
H286 H 0.5906 0.48648 0.68333 0.0
H287 H 0.61432 0.4478 0.68676 0.0
H288 H 0.67188 0.47821 0.74159 0.0
H289 H 0.64811 0.517 0.739 0.0
C290 C 0.6343 0.61809 0.64764 0.0
C291 C 0.64794 0.6326 0.66624 0.0
C292 C 0.62086 0.59736 0.65684 0.0
C293 C 0.62133 0.59073 0.68462 0.0
C294 C 0.63603 0.60456 0.70299 0.0
C295 C 0.6489 0.62559 0.69393 0.0
C296 C 0.60512 0.5702 0.69482 0.0
C297 C 0.61794 0.54829 0.70031 0.0
C298 C 0.57698 0.57206 0.69819 0.0
C299 C 0.5624 0.59455 0.69139 0.0
C300 C 0.56813 0.61578 0.70525 0.0
C301 C 0.55453 0.63699 0.69838 0.0
C302 C 0.53501 0.63713 0.67783 0.0
C303 C 0.52899 0.61604 0.66417 0.0
C304 C 0.54257 0.59479 0.67093 0.0
C305 C 0.55514 0.47538 0.75582 0.0
C306 C 0.53691 0.46456 0.73801 0.0
C307 C 0.56621 0.49783 0.74906 0.0
C308 C 0.55902 0.50966 0.7245 0.0
C309 C 0.53851 0.50005 0.70835 0.0
C310 C 0.52773 0.47748 0.71492 0.0
C311 C 0.57519 0.53022 0.71392 0.0
C312 C 0.56234 0.55206 0.70787 0.0
C313 C 0.60321 0.52804 0.70915 0.0
C314 C 0.61726 0.50457 0.71136 0.0
C315 C 0.60805 0.48485 0.69648 0.0
C316 C 0.62157 0.46291 0.69819 0.0
C317 C 0.64453 0.46051 0.71447 0.0
C318 C 0.65402 0.48007 0.72907 0.0
C319 C 0.64051 0.50203 0.72752 0.0
H320 H 0.65502 0.44354 0.7157 0.0
H321 H 0.52449 0.65357 0.67256 0.0
H322 H 0.83286 0.91646 0.11716 0.0
H323 H 0.86486 0.94685 0.13201 0.0
H324 H 0.89049 0.9 0.19818 0.0
H325 H 0.85888 0.86903 0.18306 0.0
H326 H 0.87912 0.9565 0.20656 0.0
H327 H 0.92947 0.89696 0.15497 0.0
H328 H 0.93625 0.87208 0.11458 0.0
H329 H 0.93732 0.93536 0.06288 0.0
H330 H 0.93006 0.96058 0.10292 0.0
H331 H 0.98448 0.03678 0.23327 0.0
H332 H 0.96174 0.99808 0.22898 0.0
H333 H 0.95711 0.00984 0.1416 0.0
H334 H 0.98269 0.04681 0.14567 0.0
H335 H 0.96042 0.9663 0.14857 0.0
H336 H 0.90483 0.02547 0.19107 0.0
H337 H 0.89266 0.05469 0.22602 0.0
H338 H 0.89471 -0.00111 0.28793 0.0
H339 H 0.9072 0.96939 0.25335 0.0
C340 C 0.84487 0.91272 0.13522 0.0
C341 C 0.84341 0.89028 0.14891 0.0
C342 C 0.86321 0.93009 0.14357 0.0
C343 C 0.88008 0.92548 0.16598 0.0
C344 C 0.8776 0.90375 0.18077 0.0
C345 C 0.85956 0.88613 0.17212 0.0
C346 C 0.90137 0.94291 0.17269 0.0
C347 C 0.89721 0.95844 0.19432 0.0
C348 C 0.92433 0.94584 0.15594 0.0
C349 C 0.92896 0.93063 0.13193 0.0
C350 C 0.93088 0.90555 0.13497 0.0
C351 C 0.93486 0.89139 0.11213 0.0
C352 C 0.93714 0.90213 0.08617 0.0
C353 C 0.93552 0.92706 0.08299 0.0
C354 C 0.93148 0.94129 0.10575 0.0
C355 C 0.98007 0.03033 0.21308 0.0
C356 C 0.98598 0.04449 0.1898 0.0
C357 C 0.9663 0.00854 0.21065 0.0
C358 C 0.95692 0.00125 0.18503 0.0
C359 C 0.964 0.01492 0.16165 0.0
C360 C 0.97855 0.03618 0.164 0.0
C361 C 0.93818 0.98052 0.18236 0.0
C362 C 0.94268 0.96428 0.16133 0.0
C363 C 0.91491 0.97763 0.19894 0.0
C364 C 0.90725 0.9953 0.2197 0.0
C365 C 0.90283 0.01948 0.21216 0.0
C366 C 0.89586 0.03608 0.2319 0.0
C367 C 0.893 0.02867 0.25919 0.0
C368 C 0.897 0.00462 0.26679 0.0
C369 C 0.90401 0.98795 0.24714 0.0
H370 H 0.88763 0.04155 0.27445 0.0
H371 H 0.94023 0.89113 0.06852 0.0
H372 H 0.88037 0.1106 0.6117 0.0
H373 H 0.90363 0.07338 0.62458 0.0
H374 H 0.8847 0.08467 0.70919 0.0
H375 H 0.86092 0.12193 0.69628 0.0
H376 H 0.94234 0.07235 0.69491 0.0
H377 H 0.8507 0.04596 0.68516 0.0
H378 H 0.80705 0.04229 0.66168 0.0
H379 H 0.84544 0.00699 0.59526 0.0
H380 H 0.88944 0.01081 0.61816 0.0
H381 H 0.97675 0.95918 0.75109 0.0
H382 H 0.95318 0.99597 0.73797 0.0
H383 H 0.95602 0.97587 0.65349 0.0
H384 H 0.97989 0.93883 0.66673 0.0
H385 H 0.90689 0.99313 0.66716 0.0
H386 H 0.99834 0.01888 0.67649 0.0
H387 H 0.04212 0.02154 0.69997 0.0
H388 H 0.00485 0.0577 0.76642 0.0
H389 H 0.96074 0.05503 0.74345 0.0
C390 C 0.88145 0.1053 0.63307 0.0
C391 C 0.86927 0.11926 0.65309 0.0
C392 C 0.89454 0.08398 0.64036 0.0
C393 C 0.89592 0.0764 0.66781 0.0
C394 C 0.88389 0.09034 0.68791 0.0
C395 C 0.87029 0.11149 0.68054 0.0
C396 C 0.90984 0.05377 0.6753 0.0
C397 C 0.93446 0.05499 0.68921 0.0
C398 C 0.89984 0.03127 0.66709 0.0
C399 C 0.87343 0.02896 0.65322 0.0
C400 C 0.84989 0.03767 0.6654 0.0
C401 C 0.82507 0.0355 0.65223 0.0
C402 C 0.82348 0.02449 0.62694 0.0
C403 C 0.84671 0.01556 0.61482 0.0
C404 C 0.8716 0.01771 0.62789 0.0
C405 C 0.97293 0.96287 0.72968 0.0
C406 C 0.98083 0.94654 0.70988 0.0
C407 C 0.95924 0.98379 0.72221 0.0
C408 C 0.95328 0.98891 0.69469 0.0
C409 C 0.96057 0.97234 0.67483 0.0
C410 C 0.97425 0.95127 0.68238 0.0
C411 C 0.93943 0.01161 0.68691 0.0
C412 C 0.91485 0.01046 0.67286 0.0
C413 C 0.94956 0.03421 0.69485 0.0
C414 C 0.97619 0.03661 0.70832 0.0
C415 C -0.00054 0.02735 0.69614 0.0
C416 C 0.02433 0.02886 0.70935 0.0
C417 C 0.02626 0.03977 0.73468 0.0
C418 C 0.00332 0.04929 0.74678 0.0
C419 C 0.97838 0.04782 0.73365 0.0
H420 H 0.04551 0.04084 0.74493 0.0
H421 H 0.80424 0.02281 0.61679 0.0
H422 H 0.62461 0.38382 0.13408 0.0
H423 H 0.5968 0.41033 0.16113 0.0
H424 H 0.66114 0.46237 0.1626 0.0
H425 H 0.68917 0.43605 0.13495 0.0
H426 H 0.62776 0.45127 0.21624 0.0
H427 H 0.6228 0.47765 0.12085 0.0
H428 H 0.61751 0.46982 0.07179 0.0
H429 H 0.53978 0.43843 0.08713 0.0
H430 H 0.54482 0.44582 0.1364 0.0
H431 H 0.56879 0.56356 0.23665 0.0
H432 H 0.59257 0.5265 0.22823 0.0
H433 H 0.51891 0.49452 0.19908 0.0
H434 H 0.49546 0.53269 0.20595 0.0
H435 H 0.55472 0.49067 0.16278 0.0
H436 H 0.55671 0.47278 0.25854 0.0
H437 H 0.56303 0.48208 0.30709 0.0
H438 H 0.64644 0.49791 0.29229 0.0
H439 H 0.64055 0.48905 0.24357 0.0
C440 C 0.63302 0.40079 0.14036 0.0
C441 C 0.65899 0.40797 0.13219 0.0
C442 C 0.61714 0.41582 0.15592 0.0
C443 C 0.62705 0.43814 0.1639 0.0
C444 C 0.65333 0.44504 0.15678 0.0
C445 C 0.66916 0.43013 0.1408 0.0
C446 C 0.60877 0.45521 0.17694 0.0
C447 C 0.61181 0.46007 0.20471 0.0
C448 C 0.58767 0.46602 0.16189 0.0
C449 C 0.5843 0.46204 0.13228 0.0
C450 C 0.60467 0.46892 0.11377 0.0
C451 C 0.60171 0.4646 0.08593 0.0
C452 C 0.57835 0.45356 0.07635 0.0
C453 C 0.55787 0.44694 0.09459 0.0
C454 C 0.56076 0.45121 0.12246 0.0
C455 C 0.55749 0.54825 0.22951 0.0
C456 C 0.53041 0.55068 0.22214 0.0
C457 C 0.57106 0.52696 0.22479 0.0
C458 C 0.55758 0.50747 0.21322 0.0
C459 C 0.52977 0.50929 0.20804 0.0
C460 C 0.51629 0.53092 0.21219 0.0
C461 C 0.57345 0.48719 0.2025 0.0
C462 C 0.57012 0.48165 0.17485 0.0
C463 C 0.59428 0.47585 0.21781 0.0
C464 C 0.59816 0.48027 0.24734 0.0
C465 C 0.5764 0.47827 0.26562 0.0
C466 C 0.5799 0.48349 0.29318 0.0
C467 C 0.60512 0.49058 0.30277 0.0
C468 C 0.62692 0.49237 0.28484 0.0
C469 C 0.62353 0.48718 0.25726 0.0
H470 H 0.60777 0.49469 0.32409 0.0
H471 H 0.5761 0.45019 0.0548 0.0
H472 H 0.34281 0.38208 0.32502 0.0
H473 H 0.36618 0.41746 0.30552 0.0
H474 H 0.43836 0.39727 0.34895 0.0
H475 H 0.41563 0.36178 0.36793 0.0
H476 H 0.41502 0.44811 0.35535 0.0
H477 H 0.44381 0.3888 0.28874 0.0
H478 H 0.43261 0.35766 0.25556 0.0
H479 H 0.38498 0.4084 0.20947 0.0
H480 H 0.39571 0.43979 0.24259 0.0
H481 H 0.50847 0.53276 0.31778 0.0
H482 H 0.49028 0.49216 0.32384 0.0
H483 H 0.4369 0.50456 0.25547 0.0
H484 H 0.45635 0.54476 0.24844 0.0
H485 H 0.44692 0.45826 0.25973 0.0
H486 H 0.41754 0.51776 0.32025 0.0
H487 H 0.42141 0.55038 0.35319 0.0
H488 H 0.46012 0.50244 0.41061 0.0
H489 H 0.45694 0.4696 0.3778 0.0
C490 C 0.36377 0.385 0.33007 0.0
C491 C 0.37737 0.36909 0.34797 0.0
C492 C 0.37704 0.4052 0.31897 0.0
C493 C 0.4039 0.4099 0.32594 0.0
C494 C 0.4176 0.39389 0.34339 0.0
C495 C 0.40458 0.37355 0.35408 0.0
C496 C 0.41765 0.432 0.316 0.0
C497 C 0.42233 0.45027 0.33457 0.0
C498 C 0.42598 0.43512 0.2886 0.0
C499 C 0.42045 0.41657 0.26816 0.0
C500 C 0.43089 0.39328 0.27156 0.0
C501 C 0.42463 0.3756 0.25278 0.0
C502 C 0.40806 0.38104 0.23044 0.0
C503 C 0.39783 0.40422 0.22678 0.0
C504 C 0.40404 0.42197 0.24551 0.0
C505 C 0.4937 0.52637 0.30335 0.0
C506 C 0.48364 0.54178 0.28278 0.0
C507 C 0.48309 0.5033 0.30697 0.0
C508 C 0.46146 0.49565 0.29079 0.0
C509 C 0.45334 0.51014 0.26841 0.0
C510 C 0.46452 0.53306 0.26433 0.0
C511 C 0.44535 0.47422 0.29941 0.0
C512 C 0.43985 0.45617 0.28059 0.0
C513 C 0.43542 0.47161 0.3265 0.0
C514 C 0.43726 0.49126 0.34643 0.0
C515 C 0.42707 0.5142 0.33982 0.0
C516 C 0.42912 0.53273 0.35847 0.0
C517 C 0.44107 0.5285 0.38395 0.0
C518 C 0.45092 0.5057 0.39084 0.0
C519 C 0.449 0.48712 0.37222 0.0
H520 H 0.44263 0.54286 0.39836 0.0
H521 H 0.40317 0.36731 0.21596 0.0
H522 H 0.18932 0.06304 0.88315 0.0
H523 H 0.16142 0.03977 0.85203 0.0
H524 H 0.10844 0.10027 0.84057 0.0
H525 H 0.13622 0.12371 0.87135 0.0
H526 H 0.0828 0.05749 0.85742 0.0
H527 H 0.14412 0.08505 0.78829 0.0
H528 H 0.18814 0.09278 0.76658 0.0
H529 H 0.20504 0.01727 0.76854 0.0
H530 H 0.16134 0.00908 0.79066 0.0
H531 H 0.00566 0.97266 0.78374 0.0
H532 H 0.02859 0.01138 0.78988 0.0
H533 H 0.10364 0.97405 0.80306 0.0
H534 H 0.08098 0.93585 0.79637 0.0
H535 H 0.11257 0.01451 0.77531 0.0
H536 H 0.0625 0.98829 0.8561 0.0
H537 H 0.02134 0.97706 0.88153 0.0
H538 H 0.98702 0.04596 0.86199 0.0
H539 H 0.0279 0.05744 0.8361 0.0
C540 C 0.17188 0.07145 0.8738 0.0
C541 C 0.16484 0.09512 0.87987 0.0
C542 C 0.15612 0.05823 0.85586 0.0
C543 C 0.13305 0.06845 0.84387 0.0
C544 C 0.12628 0.09218 0.8495 0.0
C545 C 0.14214 0.10548 0.86717 0.0
C546 C 0.11451 0.05345 0.82794 0.0
C547 C 0.089 0.04857 0.83901 0.0
C548 C 0.12292 0.04156 0.80427 0.0
C549 C 0.14945 0.04647 0.79131 0.0
C550 C 0.15732 0.0701 0.78435 0.0
C551 C 0.18221 0.07456 0.77191 0.0
C552 C 0.19938 0.05554 0.76621 0.0
C553 C 0.19172 0.032 0.77296 0.0
C554 C 0.16687 0.02744 0.78543 0.0
C555 C 0.02714 0.97295 0.78708 0.0
C556 C 0.04169 0.9515 0.78956 0.0
C557 C 0.04019 0.99497 0.79075 0.0
C558 C 0.06782 0.99556 0.79698 0.0
C559 C 0.08239 0.97408 0.79808 0.0
C560 C 0.06942 0.95227 0.79455 0.0
C561 C 0.08148 0.01777 0.80556 0.0
C562 C 0.10603 0.02408 0.79314 0.0
C563 C 0.07264 0.03048 0.82853 0.0
C564 C 0.04803 0.02358 0.84387 0.0
C565 C 0.04606 0.00095 0.85704 0.0
C566 C 0.02282 0.99456 0.87156 0.0
C567 C 0.00153 0.01076 0.87329 0.0
C568 C 0.00349 0.0334 0.86055 0.0
C569 C 0.02667 0.03986 0.84594 0.0
H570 H 0.98357 0.00579 0.88457 0.0
H571 H 0.21862 0.05903 0.75654 0.0
H572 H 0.14221 0.17596 0.95108 0.0
H573 H 0.11969 0.16439 0.99372 0.0
H574 H 0.19645 0.14663 0.03005 0.0
H575 H 0.21884 0.15659 0.98648 0.0
H576 H 0.15887 0.11672 0.04917 0.0
H577 H 0.16378 0.20465 0.03699 0.0
H578 H 0.15483 0.24269 0.01182 0.0
H579 H 0.0702 0.2269 0.01188 0.0
H580 H 0.07869 0.18872 0.03687 0.0
H581 H 0.10846 0.12763 0.18696 0.0
H582 H 0.13609 0.13359 0.14542 0.0
H583 H 0.06449 0.15076 0.09912 0.0
H584 H 0.03751 0.14582 0.13973 0.0
H585 H 0.10232 0.18112 0.08696 0.0
H586 H 0.09249 0.09604 0.09587 0.0
H587 H 0.0959 0.05626 0.11868 0.0
H588 H 0.18187 0.0634 0.12193 0.0
H589 H 0.17895 0.10342 0.09944 0.0
C590 C 0.15421 0.1694 0.96814 0.0
C591 C 0.18225 0.16763 0.96586 0.0
C592 C 0.14137 0.16286 0.99251 0.0
C593 C 0.15648 0.1555 0.01545 0.0
C594 C 0.18441 0.15254 0.01274 0.0
C595 C 0.19719 0.15834 0.98797 0.0
C596 C 0.14337 0.15249 0.04256 0.0
C597 C 0.14684 0.13092 0.05765 0.0
C598 C 0.12694 0.17071 0.05333 0.0
C599 C 0.12191 0.19382 0.03864 0.0
C600 C 0.1433 0.20929 0.03156 0.0
C601 C 0.13829 0.23086 0.01734 0.0
C602 C 0.11197 0.23719 0.01023 0.0
C603 C 0.09057 0.22199 0.0174 0.0
C604 C 0.09546 0.20042 0.03163 0.0
C605 C 0.0989 0.13318 0.16797 0.0
C606 C 0.07092 0.13629 0.1666 0.0
C607 C 0.11454 0.13624 0.14427 0.0
C608 C 0.10223 0.14237 0.11917 0.0
C609 C 0.07444 0.14609 0.1182 0.0
C610 C 0.05905 0.14326 0.14158 0.0
C611 C 0.11772 0.14539 0.09355 0.0
C612 C 0.11466 0.16699 0.0787 0.0
C613 C 0.13366 0.12692 0.08276 0.0
C614 C 0.13549 0.10288 0.09631 0.0
C615 C 0.11211 0.08924 0.10169 0.0
C616 C 0.11395 0.06662 0.1145 0.0
C617 C 0.13908 0.05735 0.12184 0.0
C618 C 0.16242 0.07064 0.11629 0.0
C619 C 0.16069 0.09329 0.1035 0.0
H620 H 0.14047 0.03983 0.13175 0.0
H621 H 0.10815 0.25388 0.99919 0.0
H622 H 0.42671 0.34166 0.47961 0.0
H623 H 0.43836 0.34471 0.5278 0.0
H624 H 0.36457 0.3086 0.55041 0.0
H625 H 0.35274 0.30509 0.50192 0.0
H626 H 0.38772 0.3583 0.5801 0.0
H627 H 0.40545 0.27343 0.55666 0.0
H628 H 0.42502 0.24456 0.52486 0.0
H629 H 0.50228 0.27852 0.53241 0.0
H630 H 0.48306 0.30778 0.56393 0.0
H631 H 0.44959 0.35805 0.71236 0.0
H632 H 0.41989 0.34412 0.67566 0.0
H633 H 0.48935 0.33448 0.62415 0.0
H634 H 0.51854 0.34668 0.6607 0.0
H635 H 0.45784 0.30175 0.61358 0.0
H636 H 0.44861 0.38698 0.62439 0.0
H637 H 0.43712 0.42451 0.64733 0.0
H638 H 0.35509 0.40097 0.65543 0.0
H639 H 0.36622 0.3631 0.6329 0.0
C640 C 0.41281 0.33447 0.49476 0.0
C641 C 0.38888 0.32297 0.48696 0.0
C642 C 0.41947 0.33634 0.52226 0.0
C643 C 0.40226 0.32694 0.54248 0.0
C644 C 0.37797 0.31605 0.53496 0.0
C645 C 0.37139 0.31392 0.50732 0.0
C646 C 0.41104 0.32703 0.57123 0.0
C647 C 0.40249 0.3456 0.58792 0.0
C648 C 0.43112 0.31105 0.58064 0.0
C649 C 0.44279 0.29278 0.5626 0.0
C650 C 0.42658 0.27476 0.55147 0.0
C651 C 0.43761 0.25834 0.53349 0.0
C652 C 0.46487 0.25971 0.52661 0.0
C653 C 0.48118 0.27745 0.53778 0.0
C654 C 0.47024 0.29392 0.55574 0.0
C655 C 0.4584 0.35212 0.69351 0.0
C656 C 0.48635 0.35356 0.68939 0.0
C657 C 0.44144 0.34452 0.67241 0.0
C658 C 0.4523 0.3386 0.64688 0.0
C659 C 0.48032 0.33883 0.64354 0.0
C660 C 0.49707 0.34602 0.66451 0.0
C661 C 0.43522 0.33357 0.6227 0.0
C662 C 0.44226 0.31402 0.60658 0.0
C663 C 0.41493 0.34958 0.61322 0.0
C664 C 0.40836 0.37201 0.62745 0.0
C665 C 0.4282 0.38967 0.63139 0.0
C666 C 0.42174 0.41103 0.64425 0.0
C667 C 0.39542 0.41507 0.65296 0.0
C668 C 0.3755 0.39777 0.64879 0.0
C669 C 0.38188 0.37633 0.63602 0.0
H670 H 0.39044 0.43165 0.66284 0.0
H671 H 0.47335 0.24702 0.51265 0.0
H672 H 0.67773 0.36297 0.04836 0.0
H673 H 0.65823 0.3754 0.00447 0.0
H674 H 0.67791 0.30652 0.97157 0.0
H675 H 0.6982 0.29428 0.01519 0.0
H676 H 0.68817 0.34349 0.9351 0.0
H677 H 0.61543 0.31802 0.99532 0.0
H678 H 0.58745 0.31924 0.03682 0.0
H679 H 0.56797 0.39294 0.01894 0.0
H680 H 0.59613 0.39226 0.97752 0.0
H681 H 0.58879 0.34065 0.82505 0.0
H682 H 0.62053 0.33278 0.86295 0.0
H683 H 0.60016 0.40097 0.89728 0.0
H684 H 0.56856 0.40859 0.86013 0.0
H685 H 0.59154 0.36502 0.93291 0.0
H686 H 0.65891 0.39037 0.87054 0.0
H687 H 0.68805 0.39176 0.83 0.0
H688 H 0.72129 0.32335 0.85305 0.0
H689 H 0.69064 0.32036 0.89236 0.0
C690 C 0.67879 0.35079 0.03155 0.0
C691 C 0.69005 0.32782 0.03507 0.0
C692 C 0.6672 0.35777 0.00659 0.0
C693 C 0.66644 0.3418 0.98482 0.0
C694 C 0.67833 0.31913 0.98807 0.0
C695 C 0.68986 0.31215 0.01301 0.0
C696 C 0.65241 0.34825 0.95896 0.0
C697 C 0.66693 0.34788 0.9344 0.0
C698 C 0.62493 0.35475 0.95841 0.0
C699 C 0.60817 0.35516 0.98348 0.0
C700 C 0.6054 0.33455 0.00037 0.0
C701 C 0.58945 0.33513 0.02386 0.0
C702 C 0.57601 0.35617 0.03056 0.0
C703 C 0.57844 0.37667 0.01376 0.0
C704 C 0.59438 0.37619 0.99027 0.0
C705 C 0.59183 0.35418 0.84029 0.0
C706 C 0.57614 0.37509 0.83995 0.0
C707 C 0.60982 0.34967 0.86194 0.0
C708 C 0.61238 0.36618 0.88315 0.0
C709 C 0.59826 0.38786 0.88139 0.0
C710 C 0.5803 0.39223 0.86009 0.0
C711 C 0.62723 0.36014 0.90869 0.0
C712 C 0.61278 0.36056 0.93332 0.0
C713 C 0.65483 0.354 0.9092 0.0
C714 C 0.6719 0.35492 0.88426 0.0
C715 C 0.67167 0.37516 0.86651 0.0
C716 C 0.68846 0.3762 0.84363 0.0
C717 C 0.70615 0.35741 0.83863 0.0
C718 C 0.70704 0.33754 0.85648 0.0
C719 C 0.6898 0.33609 0.87897 0.0
H720 H 0.71941 0.35838 0.82112 0.0
H721 H 0.56366 0.35657 0.04873 0.0
H722 H 0.94323 0.16143 0.51915 0.0
H723 H 0.95072 0.16498 0.4699 0.0
H724 H 0.86666 0.1506 0.45537 0.0
H725 H 0.85892 0.14704 0.5046 0.0
H726 H 0.90283 0.1225 0.42503 0.0
H727 H 0.88825 0.20619 0.44468 0.0
H728 H 0.89655 0.24303 0.47041 0.0
H729 H 0.97983 0.24192 0.44729 0.0
H730 H 0.97213 0.20494 0.42171 0.0
H731 H 0.94988 0.12513 0.28993 0.0
H732 H 0.91827 0.13747 0.32554 0.0
H733 H 0.98348 0.17296 0.36709 0.0
H734 H 0.01408 0.16197 0.33122 0.0
H735 H 0.94238 0.19468 0.37932 0.0
H736 H 0.96454 0.10945 0.3757 0.0
H737 H 0.96449 0.06879 0.3568 0.0
H738 H 0.8781 0.06845 0.35598 0.0
H739 H 0.87768 0.10926 0.37459 0.0
C740 C 0.92632 0.15911 0.5055 0.0
C741 C 0.9005 0.15394 0.51574 0.0
C742 C 0.93059 0.1613 0.4774 0.0
C743 C 0.90913 0.15837 0.45912 0.0
C744 C 0.88338 0.1531 0.46923 0.0
C745 C 0.87905 0.15106 0.49734 0.0
C746 C 0.91409 0.15951 0.42941 0.0
C747 C 0.91088 0.13842 0.41473 0.0
C748 C 0.92511 0.18017 0.41639 0.0
C749 C 0.92958 0.20277 0.43127 0.0
C750 C 0.90835 0.21376 0.44514 0.0
C751 C 0.91295 0.23468 0.45971 0.0
C752 C 0.93869 0.24481 0.46048 0.0
C753 C 0.95988 0.23409 0.44664 0.0
C754 C 0.95539 0.21318 0.43204 0.0
C755 C 0.95696 0.13657 0.30603 0.0
C756 C 0.98439 0.14234 0.30821 0.0
C757 C 0.93904 0.14331 0.32658 0.0
C758 C 0.94863 0.15544 0.34958 0.0
C759 C 0.97543 0.16347 0.34982 0.0
C760 C 0.99304 0.1571 0.32929 0.0
C761 C 0.93273 0.15717 0.37514 0.0
C762 C 0.93356 0.17889 0.38918 0.0
C763 C 0.92081 0.13669 0.38808 0.0
C764 C 0.92109 0.11256 0.37598 0.0
C765 C 0.94556 0.10081 0.37117 0.0
C766 C 0.94561 0.07772 0.36058 0.0
C767 C 0.92131 0.06609 0.35505 0.0
C768 C 0.89691 0.07753 0.36013 0.0
C769 C 0.89675 0.10064 0.37064 0.0
H770 H 0.92139 0.0482 0.34693 0.0
H771 H 0.94222 0.26098 0.4718 0.0
H772 H 0.87575 0.87498 0.02457 0.0
H773 H 0.89368 0.87424 0.97815 0.0
H774 H 0.83812 0.81763 0.95845 0.0
H775 H 0.81975 0.81834 0.00485 0.0
H776 H 0.89904 0.81535 0.93963 0.0
H777 H 0.8181 0.86936 0.94212 0.0
H778 H 0.79683 0.90452 0.96283 0.0
H779 H 0.86588 0.94777 0.94217 0.0
H780 H 0.88764 0.91282 0.92163 0.0
H781 H 0.93723 0.82399 0.80366 0.0
H782 H 0.90524 0.81773 0.84138 0.0
H783 H 0.90949 0.8936 0.8579 0.0
H784 H 0.93789 0.89985 0.81856 0.0
H785 H 0.8701 0.88293 0.879 0.0
H786 H 0.95486 0.84382 0.8856 0.0
H787 H 0.99185 0.81629 0.87465 0.0
H788 H 0.93945 0.75576 0.88828 0.0
H789 H 0.90201 0.78298 0.89891 0.0
C790 C 0.86751 0.86216 0.0105 0.0
C791 C 0.84611 0.84687 0.01828 0.0
C792 C 0.87784 0.86175 0.98404 0.0
C793 C 0.86707 0.84596 0.965 0.0
C794 C 0.84663 0.8299 0.97299 0.0
C795 C 0.8361 0.83043 0.99941 0.0
C796 C 0.87564 0.84757 0.93619 0.0
C797 C 0.89255 0.82986 0.92605 0.0
C798 C 0.86841 0.86734 0.91929 0.0
C799 C 0.85444 0.88849 0.93033 0.0
C800 C 0.8287 0.88637 0.94198 0.0
C801 C 0.81659 0.90626 0.95372 0.0
C802 C 0.82999 0.92836 0.95381 0.0
C803 C 0.85548 0.93066 0.94205 0.0
C804 C 0.86767 0.91085 0.9303 0.0
C805 C 0.92968 0.83938 0.81434 0.0
C806 C 0.93989 0.86239 0.80843 0.0
C807 C 0.91206 0.83578 0.83644 0.0
C808 C 0.90598 0.85492 0.85374 0.0
C809 C 0.91373 0.87827 0.84544 0.0
C810 C 0.93 0.88196 0.82267 0.0
C811 C 0.89451 0.85086 0.88172 0.0
C812 C 0.87675 0.86809 0.892 0.0
C813 C 0.90324 0.83188 0.89954 0.0
C814 C 0.92551 0.81545 0.89257 0.0
C815 C 0.95116 0.82465 0.88599 0.0
C816 C 0.97221 0.8091 0.87988 0.0
C817 C 0.96797 0.78429 0.88065 0.0
C818 C 0.94267 0.77498 0.88757 0.0
C819 C 0.92151 0.79046 0.8936 0.0
H820 H 0.98431 0.77228 0.87598 0.0
H821 H 0.82062 0.9437 0.963 0.0
H822 H 0.67648 0.63195 0.50867 0.0
H823 H 0.66162 0.63862 0.46134 0.0
H824 H 0.58925 0.67222 0.49003 0.0
H825 H 0.60393 0.66582 0.53717 0.0
H826 H 0.57965 0.63695 0.45304 0.0
H827 H 0.63451 0.70633 0.46197 0.0
H828 H 0.67521 0.72994 0.47199 0.0
H829 H 0.71815 0.69394 0.40899 0.0
H830 H 0.67779 0.6698 0.39888 0.0
H831 H 0.52421 0.68003 0.33373 0.0
H832 H 0.55188 0.6877 0.37377 0.0
H833 H 0.61183 0.63883 0.34471 0.0
H834 H 0.58366 0.63058 0.30488 0.0
H835 H 0.62921 0.68296 0.38096 0.0
H836 H 0.57161 0.61176 0.37514 0.0
H837 H 0.52912 0.59018 0.36678 0.0
H838 H 0.48933 0.6324 0.42669 0.0
H839 H 0.53146 0.65469 0.4349 0.0
C840 C 0.65744 0.6408 0.50485 0.0
C841 C 0.6413 0.64828 0.5266 0.0
C842 C 0.6491 0.64476 0.47785 0.0
C843 C 0.62446 0.65606 0.47229 0.0
C844 C 0.60838 0.66354 0.49397 0.0
C845 C 0.6168 0.65984 0.52087 0.0
C846 C 0.6145 0.65875 0.44397 0.0
C847 C 0.59036 0.64722 0.43737 0.0
C848 C 0.62873 0.67191 0.42353 0.0
C849 C 0.65322 0.68601 0.42992 0.0
C850 C 0.65273 0.7032 0.45049 0.0
C851 C 0.67572 0.71674 0.45613 0.0
C852 C 0.69928 0.71339 0.4412 0.0
C853 C 0.6999 0.69648 0.42059 0.0
C854 C 0.67697 0.68286 0.41489 0.0
C855 C 0.54411 0.67219 0.33496 0.0
C856 C 0.55197 0.65482 0.3163 0.0
C857 C 0.55975 0.67638 0.35798 0.0
C858 C 0.58355 0.66347 0.3623 0.0
C859 C 0.59347 0.64894 0.34159 0.0
C860 C 0.57756 0.64447 0.31866 0.0
C861 C 0.59449 0.66112 0.39021 0.0
C862 C 0.61867 0.67266 0.3967 0.0
C863 C 0.58015 0.64818 0.41078 0.0
C864 C 0.55459 0.63526 0.40519 0.0
C865 C 0.5537 0.61679 0.38614 0.0
C866 C 0.5297 0.60433 0.38153 0.0
C867 C 0.5065 0.61 0.39609 0.0
C868 C 0.50727 0.62812 0.41531 0.0
C869 C 0.53119 0.6407 0.41991 0.0
H870 H 0.48798 0.60027 0.39256 0.0
H871 H 0.71704 0.72393 0.44555 0.0
H872 H 0.39616 0.64554 0.9635 0.0
H873 H 0.41277 0.64927 0.01003 0.0
H874 H 0.3397 0.6171 0.04136 0.0
H875 H 0.3227 0.61329 0.99456 0.0
H876 H 0.35991 0.65977 0.07058 0.0
H877 H 0.38901 0.58164 0.04061 0.0
H878 H 0.40896 0.55501 0.00663 0.0
H879 H 0.48262 0.59546 0.00863 0.0
H880 H 0.46301 0.62241 0.04254 0.0
H881 H 0.41547 0.62958 0.2029 0.0
H882 H 0.3915 0.63064 0.15905 0.0
H883 H 0.46506 0.65106 0.11778 0.0
H884 H 0.48892 0.65005 0.1613 0.0
H885 H 0.44199 0.61325 0.09436 0.0
H886 H 0.41526 0.69111 0.12295 0.0
H887 H 0.39698 0.71968 0.15578 0.0
H888 H 0.32102 0.68272 0.15524 0.0
H889 H 0.33898 0.65374 0.12259 0.0
C890 C 0.38351 0.6393 0.98022 0.0
C891 C 0.35818 0.62897 0.97535 0.0
C892 C 0.39302 0.64153 0.00679 0.0
C893 C 0.37743 0.63344 0.02901 0.0
C894 C 0.3519 0.62354 0.02439 0.0
C895 C 0.34236 0.6212 0.99769 0.0
C896 C 0.38884 0.63401 0.05683 0.0
C897 C 0.37755 0.64931 0.07605 0.0
C898 C 0.41225 0.62084 0.06352 0.0
C899 C 0.42451 0.60408 0.04402 0.0
C900 C 0.40945 0.58486 0.03377 0.0
C901 C 0.42069 0.56972 0.01452 0.0
C902 C 0.44702 0.57358 0.00541 0.0
C903 C 0.46223 0.59249 0.0157 0.0
C904 C 0.45109 0.60765 0.03501 0.0
C905 C 0.42624 0.63502 0.18457 0.0
C906 C 0.45394 0.63985 0.18543 0.0
C907 C 0.41263 0.63544 0.15953 0.0
C908 C 0.42658 0.64083 0.13518 0.0
C909 C 0.45399 0.64666 0.13629 0.0
C910 C 0.46754 0.64618 0.16116 0.0
C911 C 0.41317 0.6391 0.10831 0.0
C912 C 0.42416 0.62357 0.08915 0.0
C913 C 0.38972 0.65229 0.10165 0.0
C914 C 0.37852 0.67014 0.12051 0.0
C915 C 0.39468 0.68902 0.12991 0.0
C916 C 0.38438 0.7053 0.14847 0.0
C917 C 0.35788 0.70298 0.15765 0.0
C918 C 0.34156 0.68448 0.14813 0.0
C919 C 0.35177 0.66815 0.12955 0.0
H920 H 0.34996 0.71555 0.17209 0.0
H921 H 0.45563 0.56191 0.99041 0.0
H922 H 0.17542 0.86226 0.49336 0.0
H923 H 0.15441 0.85794 0.53857 0.0
H924 H 0.08066 0.83444 0.50104 0.0
H925 H 0.10141 0.8384 0.45605 0.0
H926 H 0.07547 0.8734 0.53672 0.0
H927 H 0.11468 0.79503 0.53367 0.0
H928 H 0.15097 0.76536 0.52923 0.0
H929 H 0.19107 0.79413 0.59898 0.0
H930 H 0.15528 0.8243 0.60354 0.0
H931 H 0.00011 0.85427 0.65454 0.0
H932 H 0.02232 0.84488 0.61165 0.0
H933 H 0.09981 0.85178 0.65069 0.0
H934 H 0.07748 0.85965 0.69412 0.0
H935 H 0.10327 0.81958 0.61368 0.0
H936 H 0.06733 0.89979 0.61487 0.0
H937 H 0.03212 0.9305 0.61965 0.0
H938 H 0.98788 0.90014 0.55342 0.0
H939 H 0.0226 0.86901 0.54855 0.0
C940 C 0.15479 0.85605 0.4948 0.0
C941 C 0.14 0.85082 0.47117 0.0
C942 C 0.14292 0.85342 0.52059 0.0
C943 C 0.11608 0.84575 0.52302 0.0
C944 C 0.10144 0.84029 0.49951 0.0
C945 C 0.11333 0.84262 0.47384 0.0
C946 C 0.10244 0.8453 0.54979 0.0
C947 C 0.08127 0.86141 0.55347 0.0
C948 C 0.11065 0.83007 0.57171 0.0
C949 C 0.13244 0.81218 0.56871 0.0
C950 C 0.13142 0.79527 0.54784 0.0
C951 C 0.15186 0.7783 0.54535 0.0
C952 C 0.17337 0.77792 0.56374 0.0
C953 C 0.17445 0.79449 0.58469 0.0
C954 C 0.15408 0.81153 0.58723 0.0
C955 C 0.02187 0.85328 0.65404 0.0
C956 C 0.03717 0.85806 0.67738 0.0
C957 C 0.03455 0.84806 0.62952 0.0
C958 C 0.06275 0.84851 0.62769 0.0
C959 C 0.07803 0.85159 0.65152 0.0
C960 C 0.06529 0.85613 0.67629 0.0
C961 C 0.0762 0.84774 0.60068 0.0
C962 C 0.09739 0.83152 0.59694 0.0
C963 C 0.0683 0.86313 0.57867 0.0
C964 C 0.04744 0.88192 0.58154 0.0
C965 C 0.05 0.89957 0.60145 0.0
C966 C 0.03014 0.91706 0.60417 0.0
C967 C 0.00775 0.91723 0.58689 0.0
C968 C 0.0052 0.89996 0.56683 0.0
C969 C 0.02497 0.88239 0.56408 0.0
H970 H 0.9924 0.93079 0.58902 0.0
H971 H 0.18914 0.76474 0.56182 0.0
H972 H 0.22322 0.29372 0.35693 0.0
H973 H 0.19171 0.26753 0.33332 0.0
H974 H 0.2579 0.22485 0.3052 0.0
H975 H 0.28961 0.25098 0.32879 0.0
H976 H 0.22016 0.23365 0.26447 0.0
H977 H 0.22202 0.20427 0.35725 0.0
H978 H 0.21913 0.20693 0.40733 0.0
H979 H 0.13757 0.23148 0.40051 0.0
H980 H 0.14009 0.22924 0.35032 0.0
H981 H 0.14112 0.1191 0.26265 0.0
H982 H 0.17501 0.14999 0.27192 0.0
H983 H 0.11542 0.20497 0.25848 0.0
H984 H 0.08185 0.17418 0.24786 0.0
H985 H 0.1493 0.19095 0.31809 0.0
H986 H 0.14902 0.22118 0.2239 0.0
H987 H 0.15259 0.21573 0.17425 0.0
H988 H 0.23229 0.18746 0.18461 0.0
H989 H 0.2289 0.19224 0.23448 0.0
C990 C 0.23111 0.27884 0.34561 0.0
C991 C 0.25893 0.27439 0.3448 0.0
C992 C 0.21307 0.26385 0.33218 0.0
C993 C 0.22245 0.24415 0.31764 0.0
C994 C 0.25024 0.23997 0.31627 0.0
C995 C 0.26831 0.25487 0.32985 0.0
C996 C 0.20319 0.22755 0.30455 0.0
C997 C 0.20476 0.22424 0.27624 0.0
C998 C 0.18293 0.2154 0.31983 0.0
C999 C 0.18135 0.21683 0.35 0.0
C1000 C 0.20355 0.21044 0.36641 0.0
C1001 C 0.20196 0.21182 0.39482 0.0
C1002 C 0.17821 0.21944 0.40709 0.0
C1003 C 0.15597 0.22562 0.39097 0.0
C1004 C 0.15746 0.22427 0.36254 0.0
C1005 C 0.13574 0.13784 0.26007 0.0
C1006 C 0.1091 0.14435 0.25393 0.0
C1007 C 0.15499 0.15544 0.26567 0.0
C1008 C 0.14768 0.17971 0.26579 0.0
C1009 C 0.12153 0.18635 0.25802 0.0
C1010 C 0.10246 0.16878 0.25167 0.0
C1011 C 0.16606 0.19742 0.27808 0.0
C1012 C 0.1645 0.20066 0.30634 0.0
C1013 C 0.1863 0.2094 0.26281 0.0
C1014 C 0.18852 0.20667 0.23292 0.0
C1015 C 0.16714 0.21346 0.21564 0.0
C1016 C 0.16917 0.21057 0.18745 0.0
C1017 C 0.19261 0.20115 0.17629 0.0
C1018 C 0.21411 0.19468 0.1933 0.0
C1019 C 0.21214 0.19746 0.22152 0.0
H1020 H 0.19415 0.19894 0.15446 0.0
H1021 H 0.17701 0.22049 0.42909 0.0
H1022 H 0.29875 0.2059 0.86816 0.0
H1023 H 0.33895 0.2248 0.84827 0.0
H1024 H 0.2922 0.28683 0.82422 0.0
H1025 H 0.25195 0.26813 0.84412 0.0
H1026 H 0.32373 0.27042 0.78224 0.0
H1027 H 0.33351 0.29057 0.87609 0.0
H1028 H 0.3365 0.28352 0.92586 0.0
H1029 H 0.40597 0.2392 0.91506 0.0
H1030 H 0.40313 0.24564 0.86515 0.0
H1031 H 0.43061 0.35557 0.75897 0.0
H1032 H 0.39038 0.33122 0.76781 0.0
H1033 H 0.44024 0.27266 0.79663 0.0
H1034 H 0.48037 0.29727 0.78837 0.0
H1035 H 0.40693 0.28592 0.83495 0.0
H1036 H 0.39825 0.26838 0.74008 0.0
H1037 H 0.39554 0.27784 0.69075 0.0
H1038 H 0.3241 0.31914 0.70352 0.0
H1039 H 0.32665 0.31032 0.75302 0.0
C1040 C 0.29708 0.22365 0.85886 0.0
C1041 C 0.27218 0.23552 0.8577 0.0
C1042 C 0.32005 0.23442 0.84752 0.0
C1043 C 0.3185 0.25719 0.83473 0.0
C1044 C 0.29377 0.26921 0.83389 0.0
C1045 C 0.27085 0.25855 0.84543 0.0
C1046 C 0.34259 0.2683 0.82182 0.0
C1047 C 0.3419 0.27403 0.79375 0.0
C1048 C 0.36637 0.27254 0.83681 0.0
C1049 C 0.36788 0.26832 0.86682 0.0
C1050 C 0.34923 0.27907 0.88428 0.0
C1051 C 0.35094 0.27524 0.91254 0.0
C1052 C 0.37135 0.26085 0.92361 0.0
C1053 C 0.39012 0.25029 0.90645 0.0
C1054 C 0.38847 0.25402 0.87817 0.0
C1055 C 0.43298 0.33705 0.76573 0.0
C1056 C 0.45849 0.32814 0.77274 0.0
C1057 C 0.40996 0.32318 0.77102 0.0
C1058 C 0.41226 0.30014 0.7831 0.0
C1059 C 0.43797 0.29042 0.78747 0.0
C1060 C 0.46089 0.30437 0.78249 0.0
C1061 C 0.38835 0.28784 0.79515 0.0
C1062 C 0.38897 0.28204 0.82323 0.0
C1063 C 0.36451 0.28371 0.78016 0.0
C1064 C 0.3628 0.28886 0.75034 0.0
C1065 C 0.38209 0.27965 0.73242 0.0
C1066 C 0.38056 0.28488 0.70441 0.0
C1067 C 0.35971 0.29914 0.69402 0.0
C1068 C 0.34027 0.30813 0.71161 0.0
C1069 C 0.34174 0.30301 0.73964 0.0
H1070 H 0.35858 0.30318 0.67233 0.0
H1071 H 0.37268 0.25794 0.94549 0.0
H1072 H 0.72261 0.20766 0.6474 0.0
H1073 H 0.6889 0.23296 0.6689 0.0
H1074 H 0.75196 0.27174 0.70961 0.0
H1075 H 0.78572 0.24654 0.68837 0.0
H1076 H 0.71209 0.25819 0.74439 0.0
H1077 H 0.71985 0.29696 0.65615 0.0
H1078 H 0.71934 0.2996 0.60584 0.0
H1079 H 0.63677 0.27668 0.60524 0.0
H1080 H 0.6369 0.27359 0.65558 0.0
H1081 H 0.63765 0.37377 0.75689 0.0
H1082 H 0.67087 0.34279 0.74655 0.0
H1083 H 0.60801 0.28928 0.7478 0.0
H1084 H 0.57515 0.31989 0.75985 0.0
H1085 H 0.64552 0.30773 0.69325 0.0
H1086 H 0.63849 0.27237 0.78397 0.0
H1087 H 0.64133 0.27081 0.83411 0.0
H1088 H 0.72582 0.2867 0.82978 0.0
H1089 H 0.72301 0.29037 0.77973 0.0
C1090 C 0.7293 0.22159 0.66092 0.0
C1091 C 0.75683 0.22501 0.66632 0.0
C1092 C 0.71002 0.2361 0.67306 0.0
C1093 C 0.71796 0.25426 0.69078 0.0
C1094 C 0.74542 0.25778 0.69606 0.0
C1095 C 0.76468 0.24337 0.68387 0.0
C1096 C 0.69772 0.26916 0.70459 0.0
C1097 C 0.69765 0.26921 0.73323 0.0
C1098 C 0.67857 0.28305 0.68993 0.0
C1099 C 0.67849 0.28475 0.65964 0.0
C1100 C 0.70166 0.29224 0.64529 0.0
C1101 C 0.70142 0.29388 0.61677 0.0
C1102 C 0.67807 0.28823 0.60235 0.0
C1103 C 0.65487 0.281 0.61643 0.0
C1104 C 0.65501 0.27931 0.64496 0.0
C1105 C 0.63132 0.35515 0.75662 0.0
C1106 C 0.60405 0.34905 0.75965 0.0
C1107 C 0.65019 0.33754 0.75046 0.0
C1108 C 0.64185 0.31379 0.74657 0.0
C1109 C 0.61489 0.30743 0.75126 0.0
C1110 C 0.59621 0.32488 0.75838 0.0
C1111 C 0.66011 0.29691 0.73307 0.0
C1112 C 0.65983 0.29658 0.70442 0.0
C1113 C 0.67911 0.28293 0.74773 0.0
C1114 C 0.68033 0.28233 0.77799 0.0
C1115 C 0.65743 0.27649 0.79368 0.0
C1116 C 0.65906 0.27519 0.82216 0.0
C1117 C 0.68365 0.27904 0.8352 0.0
C1118 C 0.70664 0.28421 0.81975 0.0
C1119 C 0.70499 0.28612 0.79133 0.0
H1120 H 0.68494 0.27778 0.85724 0.0
H1121 H 0.67792 0.28953 0.58027 0.0
H1122 H 0.77505 0.22652 0.12798 0.0
H1123 H 0.81449 0.21003 0.15126 0.0
H1124 H 0.8325 0.27949 0.1838 0.0
H1125 H 0.79299 0.29634 0.1603 0.0
H1126 H 0.87939 0.24984 0.16554 0.0
H1127 H 0.80001 0.2448 0.22461 0.0
H1128 H 0.75205 0.23462 0.23113 0.0
H1129 H 0.76778 0.1617 0.20981 0.0
H1130 H 0.81579 0.17152 0.20295 0.0
H1131 H 0.97419 0.18629 0.24387 0.0
H1132 H 0.93764 0.2155 0.23797 0.0
H1133 H 0.88294 0.15761 0.21963 0.0
H1134 H 0.91868 0.12885 0.22742 0.0
H1135 H 0.85468 0.18929 0.23717 0.0
H1136 H 0.92629 0.19075 0.16977 0.0
H1137 H 0.97242 0.19687 0.15229 0.0
H1138 H 0.97112 0.27 0.17803 0.0
H1139 H 0.92507 0.26421 0.19592 0.0
C1140 C 0.78759 0.23843 0.1397 0.0
C1141 C 0.78067 0.26266 0.14262 0.0
C1142 C 0.81014 0.22897 0.15296 0.0
C1143 C 0.82609 0.24348 0.16955 0.0
C1144 C 0.82034 0.26802 0.17113 0.0
C1145 C 0.79774 0.27757 0.15776 0.0
C1146 C 0.84699 0.23228 0.18716 0.0
C1147 C 0.87416 0.23697 0.18165 0.0
C1148 C 0.83998 0.21509 0.2076 0.0
C1149 C 0.81147 0.20888 0.21337 0.0
C1150 C 0.79323 0.22659 0.22142 0.0
C1151 C 0.76604 0.22089 0.22512 0.0
C1152 C 0.75688 0.19752 0.22091 0.0
C1153 C 0.77492 0.17977 0.21314 0.0
C1154 C 0.80213 0.18537 0.20944 0.0
C1155 C 0.9539 0.17985 0.24042 0.0
C1156 C 0.94911 0.15539 0.23616 0.0
C1157 C 0.93314 0.19656 0.2363 0.0
C1158 C 0.90769 0.18895 0.22713 0.0
C1159 C 0.9023 0.1642 0.22643 0.0
C1160 C 0.92274 0.14761 0.23119 0.0
C1161 C 0.88761 0.20603 0.21511 0.0
C1162 C 0.8603 0.20257 0.22165 0.0
C1163 C 0.89457 0.22361 0.19475 0.0
C1164 C 0.92245 0.22693 0.18459 0.0
C1165 C 0.93596 0.20806 0.17193 0.0
C1166 C 0.96206 0.21148 0.1619 0.0
C1167 C 0.97474 0.23378 0.16415 0.0
C1168 C 0.96132 0.25271 0.1764 0.0
C1169 C 0.93523 0.24937 0.1865 0.0
H1170 H 0.99492 0.23641 0.15633 0.0
H1171 H 0.7358 0.19318 0.22367 0.0
H1172 H 0.76621 0.71633 0.65382 0.0
H1173 H 0.80827 0.73537 0.66855 0.0
H1174 H 0.76276 0.7874 0.71289 0.0
H1175 H 0.72087 0.76852 0.69859 0.0
H1176 H 0.80313 0.8062 0.67501 0.0
H1177 H 0.79191 0.74309 0.74658 0.0
H1178 H 0.78831 0.70039 0.76059 0.0
H1179 H 0.86509 0.68648 0.72424 0.0
H1180 H 0.86896 0.72903 0.70965 0.0
H1181 H 0.89481 0.87509 0.74091 0.0
H1182 H 0.85667 0.84727 0.73777 0.0
H1183 H 0.91121 0.79003 0.71833 0.0
H1184 H 0.94928 0.81755 0.7231 0.0
H1185 H 0.86917 0.77066 0.7402 0.0
H1186 H 0.88479 0.82607 0.66834 0.0
H1187 H 0.89295 0.86507 0.64501 0.0
H1188 H 0.81456 0.88909 0.66867 0.0
H1189 H 0.80613 0.85037 0.69265 0.0
C1190 C 0.76522 0.73174 0.66684 0.0
C1191 C 0.74025 0.74097 0.67505 0.0
C1192 C 0.78921 0.74251 0.67527 0.0
C1193 C 0.78848 0.76268 0.69184 0.0
C1194 C 0.76364 0.77179 0.70014 0.0
C1195 C 0.73975 0.76096 0.69198 0.0
C1196 C 0.81338 0.77522 0.69981 0.0
C1197 C 0.81741 0.79862 0.68956 0.0
C1198 C 0.83276 0.76461 0.71737 0.0
C1199 C 0.83062 0.73921 0.72685 0.0
C1200 C 0.80795 0.7309 0.74144 0.0
C1201 C 0.80587 0.70672 0.7495 0.0
C1202 C 0.82643 0.69072 0.74326 0.0
C1203 C 0.84917 0.69888 0.72904 0.0
C1204 C 0.85133 0.72303 0.72091 0.0
C1205 C 0.89859 0.85627 0.73741 0.0
C1206 C 0.92472 0.84826 0.73233 0.0
C1207 C 0.87688 0.84045 0.73525 0.0
C1208 C 0.88105 0.81677 0.72683 0.0
C1209 C 0.90745 0.80821 0.72463 0.0
C1210 C 0.92919 0.8239 0.72746 0.0
C1211 C 0.85819 0.8023 0.71658 0.0
C1212 C 0.8548 0.77843 0.72589 0.0
C1213 C 0.84003 0.812 0.69695 0.0
C1214 C 0.84496 0.8354 0.6826 0.0
C1215 C 0.86938 0.83974 0.6688 0.0
C1216 C 0.87405 0.86179 0.65543 0.0
C1217 C 0.85432 0.87957 0.65542 0.0
C1218 C 0.82985 0.87532 0.66875 0.0
C1219 C 0.82512 0.85332 0.68226 0.0
H1220 H 0.85795 0.89663 0.64503 0.0
H1221 H 0.82477 0.67201 0.74949 0.0
H1222 H 0.77257 0.75616 0.18595 0.0
H1223 H 0.73504 0.73444 0.2073 0.0
H1224 H 0.67885 0.77993 0.16356 0.0
H1225 H 0.71635 0.80199 0.14233 0.0
H1226 H 0.66225 0.77193 0.21517 0.0
H1227 H 0.69146 0.72467 0.14129 0.0
H1228 H 0.72339 0.70286 0.11255 0.0
H1229 H 0.74245 0.65554 0.18019 0.0
H1230 H 0.71085 0.6773 0.20947 0.0
H1231 H 0.54768 0.69597 0.21168 0.0
H1232 H 0.58601 0.72304 0.20631 0.0
H1233 H 0.63549 0.67324 0.25258 0.0
H1234 H 0.59693 0.64565 0.25712 0.0
H1235 H 0.65694 0.68379 0.20397 0.0
H1236 H 0.62006 0.73151 0.27581 0.0
H1237 H 0.58329 0.75281 0.29866 0.0
H1238 H 0.57387 0.79932 0.22821 0.0
H1239 H 0.61037 0.77813 0.20481 0.0
C1240 C 0.75224 0.76167 0.18098 0.0
C1241 C 0.74746 0.78073 0.16231 0.0
C1242 C 0.7308 0.74918 0.19316 0.0
C1243 C 0.70412 0.75538 0.1868 0.0
C1244 C 0.69927 0.77484 0.16878 0.0
C1245 C 0.72073 0.78737 0.15659 0.0
C1246 C 0.68137 0.74101 0.19825 0.0
C1247 C 0.66101 0.75267 0.21266 0.0
C1248 C 0.67983 0.71585 0.19512 0.0
C1249 C 0.69905 0.70282 0.17768 0.0
C1250 C 0.70266 0.70977 0.15013 0.0
C1251 C 0.72065 0.69738 0.13372 0.0
C1252 C 0.73501 0.67788 0.14457 0.0
C1253 C 0.73136 0.67069 0.17184 0.0
C1254 C 0.7134 0.68304 0.18835 0.0
C1255 C 0.56645 0.69135 0.22174 0.0
C1256 C 0.56935 0.66908 0.23531 0.0
C1257 C 0.5884 0.70681 0.21864 0.0
C1258 C 0.61367 0.70034 0.22924 0.0
C1259 C 0.61615 0.67868 0.24438 0.0
C1260 C 0.5941 0.66308 0.24734 0.0
C1261 C 0.63788 0.71461 0.22125 0.0
C1262 C 0.65846 0.70296 0.20715 0.0
C1263 C 0.6392 0.73983 0.22408 0.0
C1264 C 0.61793 0.75318 0.23854 0.0
C1265 C 0.61013 0.74626 0.26518 0.0
C1266 C 0.58932 0.75831 0.27822 0.0
C1267 C 0.57624 0.77739 0.26488 0.0
C1268 C 0.58404 0.78455 0.23853 0.0
C1269 C 0.60484 0.77257 0.2254 0.0
H1270 H 0.56008 0.78665 0.27498 0.0
H1271 H 0.74892 0.6683 0.13182 0.0
H1272 H 0.25501 0.77151 0.36303 0.0
H1273 H 0.29784 0.75547 0.34727 0.0
H1274 H 0.26356 0.74495 0.26745 0.0
H1275 H 0.22057 0.7604 0.28324 0.0
H1276 H 0.28456 0.70495 0.28713 0.0
H1277 H 0.31399 0.78694 0.27938 0.0
H1278 H 0.32258 0.82811 0.29467 0.0
H1279 H 0.37577 0.80098 0.35709 0.0
H1280 H 0.36714 0.75961 0.34256 0.0
H1281 H 0.40898 0.65453 0.24155 0.0
H1282 H 0.37123 0.68283 0.24325 0.0
H1283 H 0.38757 0.69432 0.32846 0.0
H1284 H 0.42459 0.66594 0.32708 0.0
H1285 H 0.37697 0.73703 0.29865 0.0
H1286 H 0.34125 0.65778 0.31522 0.0
H1287 H 0.33246 0.61536 0.30509 0.0
H1288 H 0.29062 0.63664 0.23177 0.0
H1289 H 0.29964 0.67926 0.24123 0.0
C1290 C 0.25675 0.76615 0.342 0.0
C1291 C 0.23435 0.76689 0.32446 0.0
C1292 C 0.2813 0.75716 0.33295 0.0
C1293 C 0.28393 0.7491 0.30612 0.0
C1294 C 0.26196 0.75103 0.28823 0.0
C1295 C 0.23739 0.7598 0.29731 0.0
C1296 C 0.30826 0.73588 0.2978 0.0
C1297 C 0.30473 0.71227 0.28893 0.0
C1298 C 0.33462 0.74512 0.3011 0.0
C1299 C 0.33974 0.77008 0.30995 0.0
C1300 C 0.32732 0.7897 0.29653 0.0
C1301 C 0.33223 0.8131 0.30505 0.0
C1302 C 0.34967 0.81715 0.32686 0.0
C1303 C 0.36225 0.79782 0.3402 0.0
C1304 C 0.35737 0.77439 0.33181 0.0
C1305 C 0.40445 0.66308 0.26057 0.0
C1306 C 0.41945 0.65772 0.28425 0.0
C1307 C 0.38304 0.6793 0.2615 0.0
C1308 C 0.37677 0.69066 0.28599 0.0
C1309 C 0.39221 0.68583 0.30936 0.0
C1310 C 0.41315 0.66937 0.30858 0.0
C1311 C 0.35301 0.70633 0.28819 0.0
C1312 C 0.35669 0.73017 0.29609 0.0
C1313 C 0.32673 0.69725 0.28461 0.0
C1314 C 0.32154 0.67167 0.27867 0.0
C1315 C 0.3305 0.65341 0.29674 0.0
C1316 C 0.32541 0.62933 0.29117 0.0
C1317 C 0.3111 0.6233 0.26773 0.0
C1318 C 0.3018 0.64134 0.24986 0.0
C1319 C 0.30692 0.66546 0.2553 0.0
H1320 H 0.30712 0.60464 0.26348 0.0
H1321 H 0.35346 0.83528 0.3334 0.0
H1322 H 0.24061 0.72953 0.86094 0.0
H1323 H 0.19768 0.74701 0.84723 0.0
H1324 H 0.201 0.70914 0.77136 0.0
H1325 H 0.24494 0.69292 0.7844 0.0
H1326 H 0.19385 0.75256 0.75991 0.0
H1327 H 0.14917 0.69993 0.82409 0.0
H1328 H 0.13962 0.67926 0.86812 0.0
H1329 H 0.12782 0.74713 0.90595 0.0
H1330 H 0.13764 0.76823 0.86232 0.0
H1331 H 0.06377 0.81626 0.73518 0.0
H1332 H 0.09785 0.78416 0.73883 0.0
H1333 H 0.13408 0.81954 0.80715 0.0
H1334 H 0.10077 0.85129 0.80353 0.0
H1335 H 0.11395 0.76984 0.81645 0.0
H1336 H 0.16927 0.82111 0.7568 0.0
H1337 H 0.17859 0.84342 0.71374 0.0
H1338 H 0.16969 0.77853 0.66894 0.0
H1339 H 0.16003 0.75589 0.71179 0.0
C1340 C 0.23178 0.72442 0.84168 0.0
C1341 C 0.24613 0.71015 0.82355 0.0
C1342 C 0.20707 0.73428 0.83389 0.0
C1343 C 0.19589 0.72936 0.80821 0.0
C1344 C 0.20924 0.71336 0.79116 0.0
C1345 C 0.2343 0.70406 0.79862 0.0
C1346 C 0.17288 0.74373 0.79752 0.0
C1347 C 0.17602 0.75568 0.77204 0.0
C1348 C 0.14974 0.74836 0.81342 0.0
C1349 C 0.14427 0.73567 0.83987 0.0
C1350 C 0.14475 0.71046 0.84184 0.0
C1351 C 0.13924 0.69866 0.86673 0.0
C1352 C 0.13314 0.71187 0.88981 0.0
C1353 C 0.13253 0.73691 0.88806 0.0
C1354 C 0.13803 0.7488 0.86324 0.0
C1355 C 0.07955 0.81742 0.75036 0.0
C1356 C 0.07949 0.8359 0.76939 0.0
C1357 C 0.0988 0.7991 0.75254 0.0
C1358 C 0.11799 0.7994 0.77363 0.0
C1359 C 0.11913 0.81889 0.79105 0.0
C1360 C 0.10015 0.837 0.78889 0.0
C1361 C 0.13563 0.77875 0.77962 0.0
C1362 C 0.13143 0.76581 0.80414 0.0
C1363 C 0.15782 0.77332 0.76307 0.0
C1364 C 0.16351 0.7869 0.73738 0.0
C1365 C 0.169 0.81166 0.73772 0.0
C1366 C 0.17444 0.82435 0.71338 0.0
C1367 C 0.17461 0.81242 0.6886 0.0
C1368 C 0.16947 0.78776 0.68814 0.0
C1369 C 0.16403 0.77499 0.71244 0.0
H1370 H 0.17881 0.82227 0.66977 0.0
H1371 H 0.12885 0.7027 0.90905 0.0
loop_
_geom_bond_atom_site_label_1
_geom_bond_atom_site_label_2
_geom_bond_distance
_geom_bond_site_symmetry_2
_ccdc_geom_bond_type
O0 Cd1 2.300 . S
O0 C7 1.275 . S
Cd1 O0 2.300 . S
Cd1 O9 2.381 . S
Cd1 O10 2.378 . S
O2 Cd3 2.385 . S
O2 C7 1.255 . S
Cd3 O2 2.385 . S
Cd3 O4 2.317 . S
O4 Cd3 2.317 . S
O4 C5 1.232 . S
C5 O4 1.232 . S
C5 O6 1.218 . S
O6 C5 1.218 . S
C7 O0 1.275 . S
C7 O2 1.255 . S
C8 O9 1.258 . S
C8 O10 1.256 . S
O9 Cd1 2.381 . S
O9 C8 1.258 . S
O10 Cd1 2.378 . S
O10 C8 1.256 . S
O11 Cd12 2.300 . S
O11 C18 1.275 . S
Cd12 O11 2.300 . S
Cd12 O20 2.381 . S
Cd12 O21 2.378 . S
O13 Cd14 2.385 . S
O13 C18 1.255 . S
Cd14 O13 2.385 . S
Cd14 O15 2.317 . S
O15 Cd14 2.317 . S
O15 C16 1.232 . S
C16 O15 1.232 . S
C16 O17 1.218 . S
O17 C16 1.218 . S
C18 O11 1.275 . S
C18 O13 1.255 . S
C19 O20 1.258 . S
C19 O21 1.256 . S
O20 Cd12 2.381 . S
O20 C19 1.258 . S
O21 Cd12 2.378 . S
O21 C19 1.256 . S
O22 Cd23 2.300 . S
O22 C29 1.275 . S
Cd23 O22 2.300 . S
Cd23 O31 2.381 . S
Cd23 O32 2.378 . S
O24 Cd25 2.385 . S
O24 C29 1.255 . S
Cd25 O24 2.385 . S
Cd25 O26 2.317 . S
O26 Cd25 2.317 . S
O26 C27 1.232 . S
C27 O26 1.232 . S
C27 O28 1.218 . S
O28 C27 1.218 . S
C29 O22 1.275 . S
C29 O24 1.255 . S
C30 O31 1.258 . S
C30 O32 1.256 . S
O31 Cd23 2.381 . S
O31 C30 1.258 . S
O32 Cd23 2.378 . S
O32 C30 1.256 . S
O33 Cd34 2.300 . S
O33 C40 1.275 . S
Cd34 O33 2.300 . S
Cd34 O42 2.381 . S
Cd34 O43 2.378 . S
O35 Cd36 2.385 . S
O35 C40 1.255 . S
Cd36 O35 2.385 . S
Cd36 O37 2.317 . S
O37 Cd36 2.317 . S
O37 C38 1.232 . S
C38 O37 1.232 . S
C38 O39 1.218 . S
O39 C38 1.218 . S
C40 O33 1.275 . S
C40 O35 1.255 . S
C41 O42 1.258 . S
C41 O43 1.256 . S
O42 Cd34 2.381 . S
O42 C41 1.258 . S
O43 Cd34 2.378 . S
O43 C41 1.256 . S
O44 Cd45 2.300 . S
O44 C51 1.275 . S
Cd45 O44 2.300 . S
Cd45 O53 2.381 . S
Cd45 O54 2.378 . S
O46 Cd47 2.385 . S
O46 C51 1.255 . S
Cd47 O46 2.385 . S
Cd47 O48 2.317 . S
O48 Cd47 2.317 . S
O48 C49 1.232 . S
C49 O48 1.232 . S
C49 O50 1.218 . S
O50 C49 1.218 . S
C51 O44 1.275 . S
C51 O46 1.255 . S
C52 O53 1.258 . S
C52 O54 1.256 . S
O53 Cd45 2.381 . S
O53 C52 1.258 . S
O54 Cd45 2.378 . S
O54 C52 1.256 . S
O55 Cd56 2.300 . S
O55 C62 1.275 . S
Cd56 O55 2.300 . S
Cd56 O64 2.381 . S
Cd56 O65 2.378 . S
O57 Cd58 2.385 . S
O57 C62 1.255 . S
Cd58 O57 2.385 . S
Cd58 O59 2.317 . S
O59 Cd58 2.317 . S
O59 C60 1.232 . S
C60 O59 1.232 . S
C60 O61 1.218 . S
O61 C60 1.218 . S
C62 O55 1.275 . S
C62 O57 1.255 . S
C63 O64 1.258 . S
C63 O65 1.256 . S
O64 Cd56 2.381 . S
O64 C63 1.258 . S
O65 Cd56 2.378 . S
O65 C63 1.256 . S
O66 Cd67 2.300 . S
O66 C73 1.275 . S
Cd67 O66 2.300 . S
Cd67 O75 2.381 . S
Cd67 O76 2.378 . S
O68 Cd69 2.385 . S
O68 C73 1.255 . S
Cd69 O68 2.385 . S
Cd69 O70 2.317 . S
O70 Cd69 2.317 . S
O70 C71 1.232 . S
C71 O70 1.232 . S
C71 O72 1.218 . S
O72 C71 1.218 . S
C73 O66 1.275 . S
C73 O68 1.255 . S
C74 O75 1.258 . S
C74 O76 1.256 . S
O75 Cd67 2.381 . S
O75 C74 1.258 . S
O76 Cd67 2.378 . S
O76 C74 1.256 . S
O77 Cd78 2.300 . S
O77 C84 1.275 . S
Cd78 O77 2.300 . S
Cd78 O86 2.381 . S
Cd78 O87 2.378 . S
O79 Cd80 2.385 . S
O79 C84 1.255 . S
Cd80 O79 2.385 . S
Cd80 O81 2.317 . S
O81 Cd80 2.317 . S
O81 C82 1.232 . S
C82 O81 1.232 . S
C82 O83 1.218 . S
O83 C82 1.218 . S
C84 O77 1.275 . S
C84 O79 1.255 . S
C85 O86 1.258 . S
C85 O87 1.256 . S
O86 Cd78 2.381 . S
O86 C85 1.258 . S
O87 Cd78 2.378 . S
O87 C85 1.256 . S
Zn88 O94 1.920 . S
Zn88 O100 1.898 . S
Zn88 O103 1.905 . S
Zn89 O97 1.905 1_655 S
Zn89 O98 1.898 . S
Zn89 O106 1.920 . S
Zn90 O93 2.080 . S
Zn90 O96 2.114 . S
Zn90 O99 2.120 1_455 S
Zn90 O101 2.120 . S
Zn90 O102 2.114 . S
Zn90 O105 2.062 1_455 S
C91 O96 1.166 . S
C91 O97 1.182 . S
C92 O98 1.167 . S
C92 O99 1.299 . S
O93 Zn90 2.080 . S
O93 C107 1.305 . S
O94 Zn88 1.920 . S
O94 C107 1.240 . S
C95 O100 1.167 . S
C95 O101 1.299 . S
O96 Zn90 2.114 . S
O96 C91 1.166 . S
O97 Zn89 1.905 1_455 S
O97 C91 1.182 . S
O98 Zn89 1.898 . S
O98 C92 1.167 . S
O99 Zn90 2.120 1_655 S
O99 C92 1.299 . S
O100 Zn88 1.898 . S
O100 C95 1.167 . S
O101 Zn90 2.120 . S
O101 C95 1.299 . S
O102 Zn90 2.114 . S
O102 C104 1.166 . S
O103 Zn88 1.905 . S
O103 C104 1.182 . S
C104 O102 1.166 . S
C104 O103 1.182 . S
O105 Zn90 2.062 1_655 S
O105 C108 1.336 . S
O106 Zn89 1.920 . S
O106 C108 1.234 . S
C107 O93 1.305 . S
C107 O94 1.240 . S
C108 O105 1.336 . S
C108 O106 1.234 . S
Zn109 O115 1.920 . S
Zn109 O121 1.898 . S
Zn109 O124 1.905 . S
Zn110 O118 1.905 . S
Zn110 O119 1.898 . S
Zn110 O127 1.920 . S
Zn111 O114 2.080 . S
Zn111 O117 2.114 . S
Zn111 O120 2.120 . S
Zn111 O122 2.120 . S
Zn111 O123 2.114 . S
Zn111 O126 2.080 . S
C112 O117 1.166 . S
C112 O118 1.182 . S
C113 O119 1.167 . S
C113 O120 1.299 . S
O114 Zn111 2.080 . S
O114 C128 1.305 . S
O115 Zn109 1.920 . S
O115 C128 1.234 . S
C116 O121 1.167 . S
C116 O122 1.299 . S
O117 Zn111 2.114 . S
O117 C112 1.166 . S
O118 Zn110 1.905 . S
O118 C112 1.182 . S
O119 Zn110 1.898 . S
O119 C113 1.167 . S
O120 Zn111 2.120 . S
O120 C113 1.299 . S
O121 Zn109 1.898 . S
O121 C116 1.167 . S
O122 Zn111 2.120 . S
O122 C116 1.299 . S
O123 Zn111 2.114 . S
O123 C125 1.166 . S
O124 Zn109 1.905 . S
O124 C125 1.182 . S
C125 O123 1.166 . S
C125 O124 1.182 . S
O126 Zn111 2.080 . S
O126 C129 1.305 . S
O127 Zn110 1.920 . S
O127 C129 1.234 . S
C128 O114 1.305 . S
C128 O115 1.234 . S
C129 O126 1.305 . S
C129 O127 1.234 . S
Zn130 O136 1.920 . S
Zn130 O142 1.898 . S
Zn130 O145 1.905 1_455 S
Zn131 O139 1.905 . S
Zn131 O140 1.898 . S
Zn131 O148 1.920 1_655 S
Zn132 O135 2.080 . S
Zn132 O138 2.114 1_455 S
Zn132 O141 2.120 1_455 S
Zn132 O143 2.120 . S
Zn132 O144 2.114 1_455 S
Zn132 O147 2.080 . S
C133 O138 1.166 . S
C133 O139 1.182 . S
C134 O140 1.167 . S
C134 O141 1.299 . S
O135 Zn132 2.080 . S
O135 C149 1.305 . S
O136 Zn130 1.920 . S
O136 C149 1.234 . S
C137 O142 1.167 . S
C137 O143 1.299 . S
O138 Zn132 2.114 1_655 S
O138 C133 1.166 . S
O139 Zn131 1.905 . S
O139 C133 1.182 . S
O140 Zn131 1.898 . S
O140 C134 1.167 . S
O141 Zn132 2.120 1_655 S
O141 C134 1.299 . S
O142 Zn130 1.898 . S
O142 C137 1.167 . S
O143 Zn132 2.120 . S
O143 C137 1.299 . S
O144 Zn132 2.114 1_655 S
O144 C146 1.166 . S
O145 Zn130 1.905 1_655 S
O145 C146 1.182 . S
C146 O144 1.166 . S
C146 O145 1.182 . S
O147 Zn132 2.080 . S
O147 C150 1.305 . S
O148 Zn131 1.920 1_455 S
O148 C150 1.234 . S
C149 O135 1.305 . S
C149 O136 1.234 . S
C150 O147 1.305 . S
C150 O148 1.234 . S
Zn151 O157 1.920 . S
Zn151 O163 1.898 . S
Zn151 O166 1.905 . S
Zn152 O160 1.905 . S
Zn152 O161 1.898 . S
Zn152 O169 1.920 . S
Zn153 O156 2.080 . S
Zn153 O159 2.114 . S
Zn153 O162 2.120 . S
Zn153 O164 2.120 . S
Zn153 O165 2.114 . S
Zn153 O168 2.080 . S
C154 O159 1.166 . S
C154 O160 1.182 . S
C155 O161 1.167 . S
C155 O162 1.299 . S
O156 Zn153 2.080 . S
O156 C170 1.305 . S
O157 Zn151 1.920 . S
O157 C170 1.234 . S
C158 O163 1.167 . S
C158 O164 1.299 . S
O159 Zn153 2.114 . S
O159 C154 1.166 . S
O160 Zn152 1.905 . S
O160 C154 1.182 . S
O161 Zn152 1.898 . S
O161 C155 1.167 . S
O162 Zn153 2.120 . S
O162 C155 1.299 . S
O163 Zn151 1.898 . S
O163 C158 1.167 . S
O164 Zn153 2.120 . S
O164 C158 1.299 . S
O165 Zn153 2.114 . S
O165 C167 1.166 . S
O166 Zn151 1.905 . S
O166 C167 1.182 . S
C167 O165 1.166 . S
C167 O166 1.182 . S
O168 Zn153 2.080 . S
O168 C171 1.305 . S
O169 Zn152 1.920 . S
O169 C171 1.234 . S
C170 O156 1.305 . S
C170 O157 1.234 . S
C171 O168 1.305 . S
C171 O169 1.234 . S
H172 C190 0.951 . S
H173 C192 0.951 . S
H174 C194 0.950 . S
H175 C195 0.950 . S
H176 C197 0.950 . S
H177 C200 0.950 . S
H178 C201 0.950 . S
H179 C203 0.950 . S
H180 C204 0.950 . S
H181 C205 0.951 . S
H182 C207 0.951 . S
H183 C209 0.950 1_565 S
H184 C210 0.950 . S
H185 C212 0.950 . S
H186 C215 0.950 1_565 S
H187 C216 0.950 . S
H188 C218 0.950 . S
H189 C219 0.934 1_565 S
C190 H172 0.951 . S
C190 C191 1.366 . S
C190 C192 1.388 . S
C191 C190 1.366 . S
C191 C195 1.385 . S
C192 H173 0.951 . S
C192 C190 1.388 . S
C192 C193 1.366 . S
C193 C192 1.366 . S
C193 C194 1.414 . S
C193 C196 1.499 . S
C194 H174 0.950 . S
C194 C193 1.414 . S
C194 C195 1.374 . S
C195 H175 0.950 . S
C195 C191 1.385 . S
C195 C194 1.374 . S
C196 C193 1.499 . S
C196 C197 1.373 . S
C196 C198 1.389 . S
C197 H176 0.950 . S
C197 C196 1.373 . S
C197 C213 1.377 . S
C198 C196 1.389 . S
C198 C199 1.524 . S
C198 C212 1.377 . S
C199 C198 1.524 . S
C199 C200 1.397 . S
C199 C204 1.363 . S
C200 H177 0.950 . S
C200 C199 1.397 . S
C200 C201 1.334 . S
C201 H178 0.950 . S
C201 C200 1.334 . S
C201 C202 1.287 . S
C202 C201 1.287 . S
C202 C203 1.524 . S
C202 H221 0.913 . S
C203 H179 0.950 . S
C203 C202 1.524 . S
C203 C204 1.415 . S
C204 H180 0.950 . S
C204 C199 1.363 . S
C204 C203 1.415 . S
C205 H181 0.951 . S
C205 C206 1.366 . S
C205 C207 1.388 . S
C206 C205 1.366 . S
C206 C210 1.385 . S
C207 H182 0.951 . S
C207 C205 1.388 . S
C207 C208 1.366 . S
C208 C207 1.366 . S
C208 C209 1.414 . S
C208 C211 1.499 1_545 S
C209 H183 0.950 1_545 S
C209 C208 1.414 . S
C209 C210 1.374 . S
C210 H184 0.950 . S
C210 C206 1.385 . S
C210 C209 1.374 . S
C211 C208 1.499 1_565 S
C211 C212 1.373 . S
C211 C213 1.389 . S
C212 H185 0.950 . S
C212 C198 1.377 . S
C212 C211 1.373 . S
C213 C197 1.377 . S
C213 C211 1.389 . S
C213 C214 1.524 . S
C214 C213 1.524 . S
C214 C215 1.397 1_565 S
C214 C219 1.363 1_565 S
C215 H186 0.950 1_545 S
C215 C214 1.397 1_545 S
C215 C216 1.334 . S
C216 H187 0.950 . S
C216 C215 1.334 . S
C216 C217 1.287 . S
C217 C216 1.287 . S
C217 C218 1.524 . S
C217 H220 0.999 . S
C218 H188 0.950 . S
C218 C217 1.524 . S
C218 C219 1.415 . S
C219 H189 0.934 1_545 S
C219 C214 1.363 1_545 S
C219 C218 1.415 . S
H220 C217 0.999 . S
H221 C202 0.913 . S
H222 C240 0.951 . S
H223 C242 0.951 . S
H224 C244 0.950 . S
H225 C245 0.950 . S
H226 C247 0.950 . S
H227 C250 0.950 . S
H228 C251 0.950 . S
H229 C253 0.950 . S
H230 C254 0.950 . S
H231 C255 0.951 . S
H232 C257 0.951 . S
H233 C259 0.950 . S
H234 C260 0.950 . S
H235 C262 0.950 . S
H236 C265 0.950 . S
H237 C266 0.950 . S
H238 C268 0.950 . S
H239 C269 0.950 . S
C240 H222 0.951 . S
C240 C241 1.366 . S
C240 C242 1.388 . S
C241 C240 1.366 . S
C241 C245 1.385 . S
C242 H223 0.951 . S
C242 C240 1.388 . S
C242 C243 1.366 . S
C243 C242 1.366 . S
C243 C244 1.414 . S
C243 C246 1.499 . S
C244 H224 0.950 . S
C244 C243 1.414 . S
C244 C245 1.374 . S
C245 H225 0.950 . S
C245 C241 1.385 . S
C245 C244 1.374 . S
C246 C243 1.499 . S
C246 C247 1.373 . S
C246 C248 1.389 . S
C247 H226 0.950 . S
C247 C246 1.373 . S
C247 C263 1.377 . S
C248 C246 1.389 . S
C248 C249 1.524 . S
C248 C262 1.377 . S
C249 C248 1.524 . S
C249 C250 1.397 . S
C249 C254 1.363 . S
C250 H227 0.950 . S
C250 C249 1.397 . S
C250 C251 1.334 . S
C251 H228 0.950 . S
C251 C250 1.334 . S
C251 C252 1.287 . S
C252 C251 1.287 . S
C252 C253 1.524 . S
C252 H271 0.913 . S
C253 H229 0.950 . S
C253 C252 1.524 . S
C253 C254 1.415 . S
C254 H230 0.950 . S
C254 C249 1.363 . S
C254 C253 1.415 . S
C255 H231 0.951 . S
C255 C256 1.366 . S
C255 C257 1.388 . S
C256 C255 1.366 . S
C256 C260 1.385 . S
C257 H232 0.951 . S
C257 C255 1.388 . S
C257 C258 1.366 . S
C258 C257 1.366 . S
C258 C259 1.414 . S
C258 C261 1.499 . S
C259 H233 0.950 . S
C259 C258 1.414 . S
C259 C260 1.374 . S
C260 H234 0.950 . S
C260 C256 1.385 . S
C260 C259 1.374 . S
C261 C258 1.499 . S
C261 C262 1.373 . S
C261 C263 1.389 . S
C262 H235 0.950 . S
C262 C248 1.377 . S
C262 C261 1.373 . S
C263 C247 1.377 . S
C263 C261 1.389 . S
C263 C264 1.524 . S
C264 C263 1.524 . S
C264 C265 1.397 . S
C264 C269 1.363 . S
C265 H236 0.950 . S
C265 C264 1.397 . S
C265 C266 1.334 . S
C266 H237 0.950 . S
C266 C265 1.334 . S
C266 C267 1.287 . S
C267 C266 1.287 . S
C267 C268 1.524 . S
C267 H270 0.999 . S
C268 H238 0.950 . S
C268 C267 1.524 . S
C268 C269 1.415 . S
C269 H239 0.950 . S
C269 C264 1.363 . S
C269 C268 1.415 . S
H270 C267 0.999 . S
H271 C252 0.913 . S
H272 C290 0.951 . S
H273 C292 0.951 . S
H274 C294 0.950 . S
H275 C295 0.950 . S
H276 C297 0.950 . S
H277 C300 0.950 . S
H278 C301 0.950 . S
H279 C303 0.950 . S
H280 C304 0.950 . S
H281 C305 0.951 . S
H282 C307 0.951 . S
H283 C309 0.950 . S
H284 C310 0.950 . S
H285 C312 0.950 . S
H286 C315 0.950 . S
H287 C316 0.950 . S
H288 C318 0.950 . S
H289 C319 0.950 . S
C290 H272 0.951 . S
C290 C291 1.366 . S
C290 C292 1.388 . S
C291 C290 1.366 . S
C291 C295 1.385 . S
C292 H273 0.951 . S
C292 C290 1.388 . S
C292 C293 1.366 . S
C293 C292 1.366 . S
C293 C294 1.414 . S
C293 C296 1.499 . S
C294 H274 0.950 . S
C294 C293 1.414 . S
C294 C295 1.374 . S
C295 H275 0.950 . S
C295 C291 1.385 . S
C295 C294 1.374 . S
C296 C293 1.499 . S
C296 C297 1.373 . S
C296 C298 1.389 . S
C297 H276 0.950 . S
C297 C296 1.373 . S
C297 C313 1.377 . S
C298 C296 1.389 . S
C298 C299 1.524 . S
C298 C312 1.377 . S
C299 C298 1.524 . S
C299 C300 1.397 . S
C299 C304 1.363 . S
C300 H277 0.950 . S
C300 C299 1.397 . S
C300 C301 1.334 . S
C301 H278 0.950 . S
C301 C300 1.334 . S
C301 C302 1.287 . S
C302 C301 1.287 . S
C302 C303 1.524 . S
C302 H321 0.913 . S
C303 H279 0.950 . S
C303 C302 1.524 . S
C303 C304 1.415 . S
C304 H280 0.950 . S
C304 C299 1.363 . S
C304 C303 1.415 . S
C305 H281 0.951 . S
C305 C306 1.366 . S
C305 C307 1.388 . S
C306 C305 1.366 . S
C306 C310 1.385 . S
C307 H282 0.951 . S
C307 C305 1.388 . S
C307 C308 1.366 . S
C308 C307 1.366 . S
C308 C309 1.414 . S
C308 C311 1.499 . S
C309 H283 0.950 . S
C309 C308 1.414 . S
C309 C310 1.374 . S
C310 H284 0.950 . S
C310 C306 1.385 . S
C310 C309 1.374 . S
C311 C308 1.499 . S
C311 C312 1.373 . S
C311 C313 1.389 . S
C312 H285 0.950 . S
C312 C298 1.377 . S
C312 C311 1.373 . S
C313 C297 1.377 . S
C313 C311 1.389 . S
C313 C314 1.524 . S
C314 C313 1.524 . S
C314 C315 1.397 . S
C314 C319 1.363 . S
C315 H286 0.950 . S
C315 C314 1.397 . S
C315 C316 1.334 . S
C316 H287 0.950 . S
C316 C315 1.334 . S
C316 C317 1.287 . S
C317 C316 1.287 . S
C317 C318 1.524 . S
C317 H320 0.999 . S
C318 H288 0.950 . S
C318 C317 1.524 . S
C318 C319 1.415 . S
C319 H289 0.950 . S
C319 C314 1.363 . S
C319 C318 1.415 . S
H320 C317 0.999 . S
H321 C302 0.913 . S
H322 C340 0.951 . S
H323 C342 0.951 . S
H324 C344 0.950 . S
H325 C345 0.950 . S
H326 C347 0.950 . S
H327 C350 0.950 . S
H328 C351 0.950 . S
H329 C353 0.950 . S
H330 C354 0.950 . S
H331 C355 0.951 . S
H332 C357 0.951 . S
H333 C359 0.950 . S
H334 C360 0.950 . S
H335 C362 0.950 . S
H336 C365 0.950 . S
H337 C366 0.950 . S
H338 C368 0.950 . S
H339 C369 0.950 . S
C340 H322 0.951 . S
C340 C341 1.366 . S
C340 C342 1.388 . S
C341 C340 1.366 . S
C341 C345 1.385 . S
C342 H323 0.951 . S
C342 C340 1.388 . S
C342 C343 1.366 . S
C343 C342 1.366 . S
C343 C344 1.414 . S
C343 C346 1.499 . S
C344 H324 0.950 . S
C344 C343 1.414 . S
C344 C345 1.374 . S
C345 H325 0.950 . S
C345 C341 1.385 . S
C345 C344 1.374 . S
C346 C343 1.499 . S
C346 C347 1.373 . S
C346 C348 1.389 . S
C347 H326 0.950 . S
C347 C346 1.373 . S
C347 C363 1.377 . S
C348 C346 1.389 . S
C348 C349 1.524 . S
C348 C362 1.377 . S
C349 C348 1.524 . S
C349 C350 1.397 . S
C349 C354 1.363 . S
C350 H327 0.950 . S
C350 C349 1.397 . S
C350 C351 1.334 . S
C351 H328 0.950 . S
C351 C350 1.334 . S
C351 C352 1.287 . S
C352 C351 1.287 . S
C352 C353 1.524 . S
C352 H371 0.913 . S
C353 H329 0.950 . S
C353 C352 1.524 . S
C353 C354 1.415 . S
C354 H330 0.950 . S
C354 C349 1.363 . S
C354 C353 1.415 . S
C355 H331 0.951 . S
C355 C356 1.366 . S
C355 C357 1.388 . S
C356 C355 1.366 . S
C356 C360 1.385 . S
C357 H332 0.951 . S
C357 C355 1.388 . S
C357 C358 1.366 . S
C358 C357 1.366 . S
C358 C359 1.414 . S
C358 C361 1.499 1_545 S
C359 H333 0.950 . S
C359 C358 1.414 . S
C359 C360 1.374 . S
C360 H334 0.950 . S
C360 C356 1.385 . S
C360 C359 1.374 . S
C361 C358 1.499 1_565 S
C361 C362 1.373 . S
C361 C363 1.389 . S
C362 H335 0.950 . S
C362 C348 1.377 . S
C362 C361 1.373 . S
C363 C347 1.377 . S
C363 C361 1.389 . S
C363 C364 1.524 . S
C364 C363 1.524 . S
C364 C365 1.397 1_565 S
C364 C369 1.363 . S
C365 H336 0.950 . S
C365 C364 1.397 1_545 S
C365 C366 1.334 . S
C366 H337 0.950 . S
C366 C365 1.334 . S
C366 C367 1.287 . S
C367 C366 1.287 . S
C367 C368 1.524 1_545 S
C367 H370 0.999 . S
C368 H338 0.950 . S
C368 C367 1.524 1_565 S
C368 C369 1.415 . S
C369 H339 0.950 . S
C369 C364 1.363 . S
C369 C368 1.415 . S
H370 C367 0.999 . S
H371 C352 0.913 . S
H372 C390 0.951 . S
H373 C392 0.951 . S
H374 C394 0.950 . S
H375 C395 0.950 . S
H376 C397 0.950 . S
H377 C400 0.950 . S
H378 C401 0.950 . S
H379 C403 0.950 . S
H380 C404 0.950 . S
H381 C405 0.951 . S
H382 C407 0.952 1_545 S
H383 C409 0.950 . S
H384 C410 0.950 . S
H385 C412 0.950 1_565 S
H386 C415 0.950 . S
H387 C416 0.950 . S
H388 C418 0.950 1_455 S
H389 C419 0.950 . S
C390 H372 0.951 . S
C390 C391 1.366 . S
C390 C392 1.388 . S
C391 C390 1.366 . S
C391 C395 1.385 . S
C392 H373 0.951 . S
C392 C390 1.388 . S
C392 C393 1.366 . S
C393 C392 1.366 . S
C393 C394 1.414 . S
C393 C396 1.499 . S
C394 H374 0.950 . S
C394 C393 1.414 . S
C394 C395 1.374 . S
C395 H375 0.950 . S
C395 C391 1.385 . S
C395 C394 1.374 . S
C396 C393 1.499 . S
C396 C397 1.373 . S
C396 C398 1.389 . S
C397 H376 0.950 . S
C397 C396 1.373 . S
C397 C413 1.377 . S
C398 C396 1.389 . S
C398 C399 1.524 . S
C398 C412 1.377 . S
C399 C398 1.524 . S
C399 C400 1.397 . S
C399 C404 1.363 . S
C400 H377 0.950 . S
C400 C399 1.397 . S
C400 C401 1.334 . S
C401 H378 0.950 . S
C401 C400 1.334 . S
C401 C402 1.287 . S
C402 C401 1.287 . S
C402 C403 1.524 . S
C402 H421 0.913 . S
C403 H379 0.950 . S
C403 C402 1.524 . S
C403 C404 1.415 . S
C404 H380 0.950 . S
C404 C399 1.363 . S
C404 C403 1.415 . S
C405 H381 0.951 . S
C405 C406 1.366 . S
C405 C407 1.388 . S
C406 C405 1.366 . S
C406 C410 1.385 . S
C407 H382 0.952 1_565 S
C407 C405 1.388 . S
C407 C408 1.366 . S
C408 C407 1.366 . S
C408 C409 1.414 . S
C408 C411 1.499 1_565 S
C409 H383 0.950 . S
C409 C408 1.414 . S
C409 C410 1.374 . S
C410 H384 0.950 . S
C410 C406 1.385 . S
C410 C409 1.374 . S
C411 C408 1.499 1_545 S
C411 C412 1.373 . S
C411 C413 1.389 . S
C412 H385 0.950 1_545 S
C412 C398 1.377 . S
C412 C411 1.373 . S
C413 C397 1.377 . S
C413 C411 1.389 . S
C413 C414 1.524 . S
C414 C413 1.524 . S
C414 C415 1.397 . S
C414 C419 1.363 . S
C415 H386 0.950 . S
C415 C414 1.397 . S
C415 C416 1.334 1_655 S
C416 H387 0.950 . S
C416 C415 1.334 1_455 S
C416 C417 1.287 . S
C417 C416 1.287 . S
C417 C418 1.524 1_455 S
C417 H420 0.999 . S
C418 H388 0.950 1_655 S
C418 C417 1.524 1_655 S
C418 C419 1.415 . S
C419 H389 0.950 . S
C419 C414 1.363 . S
C419 C418 1.415 . S
H420 C417 0.999 . S
H421 C402 0.913 . S
H422 C440 0.951 . S
H423 C442 0.951 . S
H424 C444 0.950 . S
H425 C445 0.950 . S
H426 C447 0.950 . S
H427 C450 0.950 . S
H428 C451 0.950 . S
H429 C453 0.950 . S
H430 C454 0.950 . S
H431 C455 0.951 . S
H432 C457 0.951 . S
H433 C459 0.950 . S
H434 C460 0.950 . S
H435 C462 0.950 . S
H436 C465 0.950 . S
H437 C466 0.950 . S
H438 C468 0.950 . S
H439 C469 0.950 . S
C440 H422 0.951 . S
C440 C441 1.366 . S
C440 C442 1.388 . S
C441 C440 1.366 . S
C441 C445 1.385 . S
C442 H423 0.951 . S
C442 C440 1.388 . S
C442 C443 1.366 . S
C443 C442 1.366 . S
C443 C444 1.414 . S
C443 C446 1.499 . S
C444 H424 0.950 . S
C444 C443 1.414 . S
C444 C445 1.374 . S
C445 H425 0.950 . S
C445 C441 1.385 . S
C445 C444 1.374 . S
C446 C443 1.499 . S
C446 C447 1.373 . S
C446 C448 1.389 . S
C447 H426 0.950 . S
C447 C446 1.373 . S
C447 C463 1.377 . S
C448 C446 1.389 . S
C448 C449 1.524 . S
C448 C462 1.377 . S
C449 C448 1.524 . S
C449 C450 1.397 . S
C449 C454 1.363 . S
C450 H427 0.950 . S
C450 C449 1.397 . S
C450 C451 1.334 . S
C451 H428 0.950 . S
C451 C450 1.334 . S
C451 C452 1.287 . S
C452 C451 1.287 . S
C452 C453 1.524 . S
C452 H471 0.913 . S
C453 H429 0.950 . S
C453 C452 1.524 . S
C453 C454 1.415 . S
C454 H430 0.950 . S
C454 C449 1.363 . S
C454 C453 1.415 . S
C455 H431 0.951 . S
C455 C456 1.366 . S
C455 C457 1.388 . S
C456 C455 1.366 . S
C456 C460 1.385 . S
C457 H432 0.951 . S
C457 C455 1.388 . S
C457 C458 1.366 . S
C458 C457 1.366 . S
C458 C459 1.414 . S
C458 C461 1.499 . S
C459 H433 0.950 . S
C459 C458 1.414 . S
C459 C460 1.374 . S
C460 H434 0.950 . S
C460 C456 1.385 . S
C460 C459 1.374 . S
C461 C458 1.499 . S
C461 C462 1.373 . S
C461 C463 1.389 . S
C462 H435 0.950 . S
C462 C448 1.377 . S
C462 C461 1.373 . S
C463 C447 1.377 . S
C463 C461 1.389 . S
C463 C464 1.524 . S
C464 C463 1.524 . S
C464 C465 1.397 . S
C464 C469 1.363 . S
C465 H436 0.950 . S
C465 C464 1.397 . S
C465 C466 1.334 . S
C466 H437 0.950 . S
C466 C465 1.334 . S
C466 C467 1.287 . S
C467 C466 1.287 . S
C467 C468 1.524 . S
C467 H470 0.999 . S
C468 H438 0.950 . S
C468 C467 1.524 . S
C468 C469 1.415 . S
C469 H439 0.950 . S
C469 C464 1.363 . S
C469 C468 1.415 . S
H470 C467 0.999 . S
H471 C452 0.913 . S
H472 C490 0.951 . S
H473 C492 0.951 . S
H474 C494 0.950 . S
H475 C495 0.950 . S
H476 C497 0.950 . S
H477 C500 0.950 . S
H478 C501 0.950 . S
H479 C503 0.950 . S
H480 C504 0.950 . S
H481 C505 0.951 . S
H482 C507 0.951 . S
H483 C509 0.950 . S
H484 C510 0.950 . S
H485 C512 0.950 . S
H486 C515 0.950 . S
H487 C516 0.950 . S
H488 C518 0.950 . S
H489 C519 0.950 . S
C490 H472 0.951 . S
C490 C491 1.366 . S
C490 C492 1.388 . S
C491 C490 1.366 . S
C491 C495 1.385 . S
C492 H473 0.951 . S
C492 C490 1.388 . S
C492 C493 1.366 . S
C493 C492 1.366 . S
C493 C494 1.414 . S
C493 C496 1.499 . S
C494 H474 0.950 . S
C494 C493 1.414 . S
C494 C495 1.374 . S
C495 H475 0.950 . S
C495 C491 1.385 . S
C495 C494 1.374 . S
C496 C493 1.499 . S
C496 C497 1.373 . S
C496 C498 1.389 . S
C497 H476 0.950 . S
C497 C496 1.373 . S
C497 C513 1.377 . S
C498 C496 1.389 . S
C498 C499 1.524 . S
C498 C512 1.377 . S
C499 C498 1.524 . S
C499 C500 1.397 . S
C499 C504 1.363 . S
C500 H477 0.950 . S
C500 C499 1.397 . S
C500 C501 1.334 . S
C501 H478 0.950 . S
C501 C500 1.334 . S
C501 C502 1.287 . S
C502 C501 1.287 . S
C502 C503 1.524 . S
C502 H521 0.913 . S
C503 H479 0.950 . S
C503 C502 1.524 . S
C503 C504 1.415 . S
C504 H480 0.950 . S
C504 C499 1.363 . S
C504 C503 1.415 . S
C505 H481 0.951 . S
C505 C506 1.366 . S
C505 C507 1.388 . S
C506 C505 1.366 . S
C506 C510 1.385 . S
C507 H482 0.951 . S
C507 C505 1.388 . S
C507 C508 1.366 . S
C508 C507 1.366 . S
C508 C509 1.414 . S
C508 C511 1.499 . S
C509 H483 0.950 . S
C509 C508 1.414 . S
C509 C510 1.374 . S
C510 H484 0.950 . S
C510 C506 1.385 . S
C510 C509 1.374 . S
C511 C508 1.499 . S
C511 C512 1.373 . S
C511 C513 1.389 . S
C512 H485 0.950 . S
C512 C498 1.377 . S
C512 C511 1.373 . S
C513 C497 1.377 . S
C513 C511 1.389 . S
C513 C514 1.524 . S
C514 C513 1.524 . S
C514 C515 1.397 . S
C514 C519 1.363 . S
C515 H486 0.950 . S
C515 C514 1.397 . S
C515 C516 1.334 . S
C516 H487 0.950 . S
C516 C515 1.334 . S
C516 C517 1.287 . S
C517 C516 1.287 . S
C517 C518 1.524 . S
C517 H520 0.999 . S
C518 H488 0.950 . S
C518 C517 1.524 . S
C518 C519 1.415 . S
C519 H489 0.950 . S
C519 C514 1.363 . S
C519 C518 1.415 . S
H520 C517 0.999 . S
H521 C502 0.913 . S
H522 C540 0.951 . S
H523 C542 0.951 . S
H524 C544 0.950 . S
H525 C545 0.950 . S
H526 C547 0.950 . S
H527 C550 0.950 . S
H528 C551 0.950 . S
H529 C553 0.950 . S
H530 C554 0.950 1_565 S
H531 C555 0.951 . S
H532 C557 0.951 . S
H533 C559 0.950 . S
H534 C560 0.950 . S
H535 C562 0.950 1_565 S
H536 C565 0.950 . S
H537 C566 0.950 . S
H538 C568 0.950 1_655 S
H539 C569 0.950 . S
C540 H522 0.951 . S
C540 C541 1.366 . S
C540 C542 1.388 . S
C541 C540 1.366 . S
C541 C545 1.385 . S
C542 H523 0.951 . S
C542 C540 1.388 . S
C542 C543 1.366 . S
C543 C542 1.366 . S
C543 C544 1.414 . S
C543 C546 1.499 . S
C544 H524 0.950 . S
C544 C543 1.414 . S
C544 C545 1.374 . S
C545 H525 0.950 . S
C545 C541 1.385 . S
C545 C544 1.374 . S
C546 C543 1.499 . S
C546 C547 1.373 . S
C546 C548 1.389 . S
C547 H526 0.950 . S
C547 C546 1.373 . S
C547 C563 1.377 . S
C548 C546 1.389 . S
C548 C549 1.524 . S
C548 C562 1.377 . S
C549 C548 1.524 . S
C549 C550 1.397 . S
C549 C554 1.363 . S
C550 H527 0.950 . S
C550 C549 1.397 . S
C550 C551 1.334 . S
C551 H528 0.950 . S
C551 C550 1.334 . S
C551 C552 1.287 . S
C552 C551 1.287 . S
C552 C553 1.524 . S
C552 H571 0.913 . S
C553 H529 0.950 . S
C553 C552 1.524 . S
C553 C554 1.415 . S
C554 H530 0.950 1_545 S
C554 C549 1.363 . S
C554 C553 1.415 . S
C555 H531 0.951 . S
C555 C556 1.366 . S
C555 C557 1.388 . S
C556 C555 1.366 . S
C556 C560 1.385 . S
C557 H532 0.951 . S
C557 C555 1.388 . S
C557 C558 1.366 . S
C558 C557 1.366 . S
C558 C559 1.414 . S
C558 C561 1.494 1_565 S
C559 H533 0.950 . S
C559 C558 1.414 . S
C559 C560 1.374 . S
C560 H534 0.950 . S
C560 C556 1.385 . S
C560 C559 1.374 . S
C561 C558 1.494 1_545 S
C561 C562 1.375 . S
C561 C563 1.393 . S
C562 H535 0.950 1_545 S
C562 C548 1.377 . S
C562 C561 1.375 . S
C563 C547 1.377 . S
C563 C561 1.393 . S
C563 C564 1.524 . S
C564 C563 1.524 . S
C564 C565 1.397 1_545 S
C564 C569 1.363 . S
C565 H536 0.950 . S
C565 C564 1.397 1_565 S
C565 C566 1.334 . S
C566 H537 0.950 . S
C566 C565 1.334 . S
C566 C567 1.287 . S
C567 C566 1.287 . S
C567 C568 1.524 1_565 S
C567 H570 0.999 1_455 S
C568 H538 0.950 1_455 S
C568 C567 1.524 1_545 S
C568 C569 1.415 . S
C569 H539 0.950 . S
C569 C564 1.363 . S
C569 C568 1.415 . S
H570 C567 0.999 1_655 S
H571 C552 0.913 . S
H572 C590 0.951 . S
H573 C592 0.951 . S
H574 C594 0.950 . S
H575 C595 0.950 . S
H576 C597 0.950 . S
H577 C600 0.950 . S
H578 C601 0.950 . S
H579 C603 0.950 . S
H580 C604 0.950 . S
H581 C605 0.951 . S
H582 C607 0.951 . S
H583 C609 0.950 . S
H584 C610 0.950 . S
H585 C612 0.950 . S
H586 C615 0.950 . S
H587 C616 0.950 . S
H588 C618 0.950 . S
H589 C619 0.950 . S
C590 H572 0.951 . S
C590 C591 1.366 . S
C590 C592 1.388 . S
C591 C590 1.366 . S
C591 C595 1.385 . S
C592 H573 0.951 . S
C592 C590 1.388 . S
C592 C593 1.366 1_556 S
C593 C592 1.366 1_554 S
C593 C594 1.414 . S
C593 C596 1.499 . S
C594 H574 0.950 . S
C594 C593 1.414 . S
C594 C595 1.374 1_554 S
C595 H575 0.950 . S
C595 C591 1.385 . S
C595 C594 1.374 1_556 S
C596 C593 1.499 . S
C596 C597 1.373 . S
C596 C598 1.389 . S
C597 H576 0.950 . S
C597 C596 1.373 . S
C597 C613 1.377 . S
C598 C596 1.389 . S
C598 C599 1.524 . S
C598 C612 1.377 . S
C599 C598 1.524 . S
C599 C600 1.397 . S
C599 C604 1.363 . S
C600 H577 0.950 . S
C600 C599 1.397 . S
C600 C601 1.334 . S
C601 H578 0.950 . S
C601 C600 1.334 . S
C601 C602 1.287 . S
C602 C601 1.287 . S
C602 C603 1.524 . S
C602 H621 0.923 . S
C603 H579 0.950 . S
C603 C602 1.524 . S
C603 C604 1.415 . S
C604 H580 0.950 . S
C604 C599 1.363 . S
C604 C603 1.415 . S
C605 H581 0.951 . S
C605 C606 1.366 . S
C605 C607 1.388 . S
C606 C605 1.366 . S
C606 C610 1.385 . S
C607 H582 0.951 . S
C607 C605 1.388 . S
C607 C608 1.366 . S
C608 C607 1.366 . S
C608 C609 1.414 . S
C608 C611 1.499 . S
C609 H583 0.950 . S
C609 C608 1.414 . S
C609 C610 1.374 . S
C610 H584 0.950 . S
C610 C606 1.385 . S
C610 C609 1.374 . S
C611 C608 1.499 . S
C611 C612 1.373 . S
C611 C613 1.389 . S
C612 H585 0.950 . S
C612 C598 1.377 . S
C612 C611 1.373 . S
C613 C597 1.377 . S
C613 C611 1.389 . S
C613 C614 1.524 . S
C614 C613 1.524 . S
C614 C615 1.397 . S
C614 C619 1.363 . S
C615 H586 0.950 . S
C615 C614 1.397 . S
C615 C616 1.334 . S
C616 H587 0.950 . S
C616 C615 1.334 . S
C616 C617 1.287 . S
C617 C616 1.287 . S
C617 C618 1.524 . S
C617 H620 0.999 . S
C618 H588 0.950 . S
C618 C617 1.524 . S
C618 C619 1.415 . S
C619 H589 0.950 . S
C619 C614 1.363 . S
C619 C618 1.415 . S
H620 C617 0.999 . S
H621 C602 0.923 . S
H622 C640 0.951 . S
H623 C642 0.951 . S
H624 C644 0.950 . S
H625 C645 0.950 . S
H626 C647 0.950 . S
H627 C650 0.950 . S
H628 C651 0.950 . S
H629 C653 0.950 . S
H630 C654 0.950 . S
H631 C655 0.951 . S
H632 C657 0.951 . S
H633 C659 0.950 . S
H634 C660 0.950 . S
H635 C662 0.950 . S
H636 C665 0.950 . S
H637 C666 0.950 . S
H638 C668 0.950 . S
H639 C669 0.950 . S
C640 H622 0.951 . S
C640 C641 1.366 . S
C640 C642 1.388 . S
C641 C640 1.366 . S
C641 C645 1.385 . S
C642 H623 0.951 . S
C642 C640 1.388 . S
C642 C643 1.366 . S
C643 C642 1.366 . S
C643 C644 1.414 . S
C643 C646 1.499 . S
C644 H624 0.950 . S
C644 C643 1.414 . S
C644 C645 1.374 . S
C645 H625 0.950 . S
C645 C641 1.385 . S
C645 C644 1.374 . S
C646 C643 1.499 . S
C646 C647 1.373 . S
C646 C648 1.389 . S
C647 H626 0.950 . S
C647 C646 1.373 . S
C647 C663 1.377 . S
C648 C646 1.389 . S
C648 C649 1.524 . S
C648 C662 1.377 . S
C649 C648 1.524 . S
C649 C650 1.397 . S
C649 C654 1.363 . S
C650 H627 0.950 . S
C650 C649 1.397 . S
C650 C651 1.334 . S
C651 H628 0.950 . S
C651 C650 1.334 . S
C651 C652 1.287 . S
C652 C651 1.287 . S
C652 C653 1.524 . S
C652 H671 0.913 . S
C653 H629 0.950 . S
C653 C652 1.524 . S
C653 C654 1.415 . S
C654 H630 0.950 . S
C654 C649 1.363 . S
C654 C653 1.415 . S
C655 H631 0.951 . S
C655 C656 1.366 . S
C655 C657 1.388 . S
C656 C655 1.366 . S
C656 C660 1.385 . S
C657 H632 0.951 . S
C657 C655 1.388 . S
C657 C658 1.366 . S
C658 C657 1.366 . S
C658 C659 1.414 . S
C658 C661 1.499 . S
C659 H633 0.950 . S
C659 C658 1.414 . S
C659 C660 1.374 . S
C660 H634 0.950 . S
C660 C656 1.385 . S
C660 C659 1.374 . S
C661 C658 1.499 . S
C661 C662 1.373 . S
C661 C663 1.389 . S
C662 H635 0.950 . S
C662 C648 1.377 . S
C662 C661 1.373 . S
C663 C647 1.377 . S
C663 C661 1.389 . S
C663 C664 1.524 . S
C664 C663 1.524 . S
C664 C665 1.397 . S
C664 C669 1.363 . S
C665 H636 0.950 . S
C665 C664 1.397 . S
C665 C666 1.334 . S
C666 H637 0.950 . S
C666 C665 1.334 . S
C666 C667 1.287 . S
C667 C666 1.287 . S
C667 C668 1.524 . S
C667 H670 0.999 . S
C668 H638 0.950 . S
C668 C667 1.524 . S
C668 C669 1.415 . S
C669 H639 0.950 . S
C669 C664 1.363 . S
C669 C668 1.415 . S
H670 C667 0.999 . S
H671 C652 0.913 . S
H672 C690 0.951 . S
H673 C692 0.951 . S
H674 C694 0.950 . S
H675 C695 0.950 . S
H676 C697 0.950 . S
H677 C700 0.950 . S
H678 C701 0.950 . S
H679 C703 0.950 . S
H680 C704 0.950 . S
H681 C705 0.951 . S
H682 C707 0.951 . S
H683 C709 0.950 . S
H684 C710 0.950 . S
H685 C712 0.950 . S
H686 C715 0.950 . S
H687 C716 0.950 . S
H688 C718 0.950 . S
H689 C719 0.950 . S
C690 H672 0.951 . S
C690 C691 1.366 . S
C690 C692 1.388 . S
C691 C690 1.366 . S
C691 C695 1.385 . S
C692 H673 0.951 . S
C692 C690 1.388 . S
C692 C693 1.366 1_554 S
C693 C692 1.366 1_556 S
C693 C694 1.414 . S
C693 C696 1.499 . S
C694 H674 0.950 . S
C694 C693 1.414 . S
C694 C695 1.374 1_556 S
C695 H675 0.950 . S
C695 C691 1.385 . S
C695 C694 1.374 1_554 S
C696 C693 1.499 . S
C696 C697 1.373 . S
C696 C698 1.389 . S
C697 H676 0.950 . S
C697 C696 1.373 . S
C697 C713 1.377 . S
C698 C696 1.389 . S
C698 C699 1.524 . S
C698 C712 1.377 . S
C699 C698 1.524 . S
C699 C700 1.397 1_556 S
C699 C704 1.363 . S
C700 H677 0.950 . S
C700 C699 1.397 1_554 S
C700 C701 1.334 . S
C701 H678 0.950 . S
C701 C700 1.334 . S
C701 C702 1.287 . S
C702 C701 1.287 . S
C702 C703 1.524 . S
C702 H721 0.913 . S
C703 H679 0.950 . S
C703 C702 1.524 . S
C703 C704 1.415 1_554 S
C704 H680 0.950 . S
C704 C699 1.363 . S
C704 C703 1.415 1_556 S
C705 H681 0.951 . S
C705 C706 1.366 . S
C705 C707 1.388 . S
C706 C705 1.366 . S
C706 C710 1.385 . S
C707 H682 0.951 . S
C707 C705 1.388 . S
C707 C708 1.366 . S
C708 C707 1.366 . S
C708 C709 1.414 . S
C708 C711 1.499 . S
C709 H683 0.950 . S
C709 C708 1.414 . S
C709 C710 1.374 . S
C710 H684 0.950 . S
C710 C706 1.385 . S
C710 C709 1.374 . S
C711 C708 1.499 . S
C711 C712 1.373 . S
C711 C713 1.389 . S
C712 H685 0.950 . S
C712 C698 1.377 . S
C712 C711 1.373 . S
C713 C697 1.377 . S
C713 C711 1.389 . S
C713 C714 1.524 . S
C714 C713 1.524 . S
C714 C715 1.397 . S
C714 C719 1.363 . S
C715 H686 0.950 . S
C715 C714 1.397 . S
C715 C716 1.334 . S
C716 H687 0.950 . S
C716 C715 1.334 . S
C716 C717 1.287 . S
C717 C716 1.287 . S
C717 C718 1.524 . S
C717 H720 0.999 . S
C718 H688 0.950 . S
C718 C717 1.524 . S
C718 C719 1.415 . S
C719 H689 0.950 . S
C719 C714 1.363 . S
C719 C718 1.415 . S
H720 C717 0.999 . S
H721 C702 0.913 . S
H722 C740 0.951 . S
H723 C742 0.951 . S
H724 C744 0.950 . S
H725 C745 0.950 . S
H726 C747 0.950 . S
H727 C750 0.950 . S
H728 C751 0.950 . S
H729 C753 0.950 . S
H730 C754 0.950 . S
H731 C755 0.951 . S
H732 C757 0.951 . S
H733 C759 0.950 . S
H734 C760 0.950 1_455 S
H735 C762 0.950 . S
H736 C765 0.950 . S
H737 C766 0.950 . S
H738 C768 0.950 . S
H739 C769 0.950 . S
C740 H722 0.951 . S
C740 C741 1.366 . S
C740 C742 1.388 . S
C741 C740 1.366 . S
C741 C745 1.385 . S
C742 H723 0.951 . S
C742 C740 1.388 . S
C742 C743 1.366 . S
C743 C742 1.366 . S
C743 C744 1.414 . S
C743 C746 1.499 . S
C744 H724 0.950 . S
C744 C743 1.414 . S
C744 C745 1.374 . S
C745 H725 0.950 . S
C745 C741 1.385 . S
C745 C744 1.374 . S
C746 C743 1.499 . S
C746 C747 1.373 . S
C746 C748 1.389 . S
C747 H726 0.950 . S
C747 C746 1.373 . S
C747 C763 1.377 . S
C748 C746 1.389 . S
C748 C749 1.524 . S
C748 C762 1.377 . S
C749 C748 1.524 . S
C749 C750 1.397 . S
C749 C754 1.363 . S
C750 H727 0.950 . S
C750 C749 1.397 . S
C750 C751 1.334 . S
C751 H728 0.950 . S
C751 C750 1.334 . S
C751 C752 1.287 . S
C752 C751 1.287 . S
C752 C753 1.524 . S
C752 H771 0.913 . S
C753 H729 0.950 . S
C753 C752 1.524 . S
C753 C754 1.415 . S
C754 H730 0.950 . S
C754 C749 1.363 . S
C754 C753 1.415 . S
C755 H731 0.951 . S
C755 C756 1.366 . S
C755 C757 1.388 . S
C756 C755 1.366 . S
C756 C760 1.385 . S
C757 H732 0.951 . S
C757 C755 1.388 . S
C757 C758 1.366 . S
C758 C757 1.366 . S
C758 C759 1.414 . S
C758 C761 1.499 . S
C759 H733 0.950 . S
C759 C758 1.414 . S
C759 C760 1.374 . S
C760 H734 0.950 1_655 S
C760 C756 1.385 . S
C760 C759 1.374 . S
C761 C758 1.499 . S
C761 C762 1.373 . S
C761 C763 1.389 . S
C762 H735 0.950 . S
C762 C748 1.377 . S
C762 C761 1.373 . S
C763 C747 1.377 . S
C763 C761 1.389 . S
C763 C764 1.524 . S
C764 C763 1.524 . S
C764 C765 1.397 . S
C764 C769 1.363 . S
C765 H736 0.950 . S
C765 C764 1.397 . S
C765 C766 1.334 . S
C766 H737 0.950 . S
C766 C765 1.334 . S
C766 C767 1.287 . S
C767 C766 1.287 . S
C767 C768 1.524 . S
C767 H770 0.999 . S
C768 H738 0.950 . S
C768 C767 1.524 . S
C768 C769 1.415 . S
C769 H739 0.950 . S
C769 C764 1.363 . S
C769 C768 1.415 . S
H770 C767 0.999 . S
H771 C752 0.913 . S
H772 C790 0.951 . S
H773 C792 0.951 . S
H774 C794 0.950 . S
H775 C795 0.950 . S
H776 C797 0.950 . S
H777 C800 0.950 . S
H778 C801 0.950 . S
H779 C803 0.950 . S
H780 C804 0.950 . S
H781 C805 0.951 . S
H782 C807 0.951 . S
H783 C809 0.950 . S
H784 C810 0.950 . S
H785 C812 0.950 . S
H786 C815 0.950 . S
H787 C816 0.950 1_455 S
H788 C818 0.950 . S
H789 C819 0.950 . S
C790 H772 0.951 . S
C790 C791 1.366 . S
C790 C792 1.388 1_554 S
C791 C790 1.366 . S
C791 C795 1.385 . S
C792 H773 0.951 . S
C792 C790 1.388 1_556 S
C792 C793 1.366 . S
C793 C792 1.366 . S
C793 C794 1.414 . S
C793 C796 1.499 . S
C794 H774 0.950 . S
C794 C793 1.414 . S
C794 C795 1.374 1_556 S
C795 H775 0.950 . S
C795 C791 1.385 . S
C795 C794 1.374 1_554 S
C796 C793 1.499 . S
C796 C797 1.373 . S
C796 C798 1.389 . S
C797 H776 0.950 . S
C797 C796 1.373 . S
C797 C813 1.377 . S
C798 C796 1.389 . S
C798 C799 1.524 . S
C798 C812 1.377 . S
C799 C798 1.524 . S
C799 C800 1.397 . S
C799 C804 1.363 . S
C800 H777 0.950 . S
C800 C799 1.397 . S
C800 C801 1.334 . S
C801 H778 0.950 . S
C801 C800 1.334 . S
C801 C802 1.287 . S
C802 C801 1.287 . S
C802 C803 1.524 . S
C802 H821 0.913 . S
C803 H779 0.950 . S
C803 C802 1.524 . S
C803 C804 1.415 . S
C804 H780 0.950 . S
C804 C799 1.363 . S
C804 C803 1.415 . S
C805 H781 0.951 . S
C805 C806 1.366 . S
C805 C807 1.388 . S
C806 C805 1.366 . S
C806 C810 1.385 . S
C807 H782 0.951 . S
C807 C805 1.388 . S
C807 C808 1.366 . S
C808 C807 1.366 . S
C808 C809 1.414 . S
C808 C811 1.499 . S
C809 H783 0.950 . S
C809 C808 1.414 . S
C809 C810 1.374 . S
C810 H784 0.950 . S
C810 C806 1.385 . S
C810 C809 1.374 . S
C811 C808 1.499 . S
C811 C812 1.373 . S
C811 C813 1.389 . S
C812 H785 0.950 . S
C812 C798 1.377 . S
C812 C811 1.373 . S
C813 C797 1.377 . S
C813 C811 1.389 . S
C813 C814 1.524 . S
C814 C813 1.524 . S
C814 C815 1.397 . S
C814 C819 1.363 . S
C815 H786 0.950 . S
C815 C814 1.397 . S
C815 C816 1.334 . S
C816 H787 0.950 1_655 S
C816 C815 1.334 . S
C816 C817 1.287 . S
C817 C816 1.287 . S
C817 C818 1.524 . S
C817 H820 0.999 . S
C818 H788 0.950 . S
C818 C817 1.524 . S
C818 C819 1.415 . S
C819 H789 0.950 . S
C819 C814 1.363 . S
C819 C818 1.415 . S
H820 C817 0.999 . S
H821 C802 0.913 . S
H822 C840 0.951 . S
H823 C842 0.951 . S
H824 C844 0.950 . S
H825 C845 0.950 . S
H826 C847 0.950 . S
H827 C850 0.950 . S
H828 C851 0.950 . S
H829 C853 0.950 . S
H830 C854 0.950 . S
H831 C855 0.951 . S
H832 C857 0.951 . S
H833 C859 0.950 . S
H834 C860 0.950 . S
H835 C862 0.950 . S
H836 C865 0.950 . S
H837 C866 0.950 . S
H838 C868 0.950 . S
H839 C869 0.950 . S
C840 H822 0.951 . S
C840 C841 1.366 . S
C840 C842 1.388 . S
C841 C840 1.366 . S
C841 C845 1.385 . S
C842 H823 0.951 . S
C842 C840 1.388 . S
C842 C843 1.366 . S
C843 C842 1.366 . S
C843 C844 1.414 . S
C843 C846 1.499 . S
C844 H824 0.950 . S
C844 C843 1.414 . S
C844 C845 1.374 . S
C845 H825 0.950 . S
C845 C841 1.385 . S
C845 C844 1.374 . S
C846 C843 1.499 . S
C846 C847 1.373 . S
C846 C848 1.389 . S
C847 H826 0.950 . S
C847 C846 1.373 . S
C847 C863 1.377 . S
C848 C846 1.389 . S
C848 C849 1.524 . S
C848 C862 1.377 . S
C849 C848 1.524 . S
C849 C850 1.397 . S
C849 C854 1.363 . S
C850 H827 0.950 . S
C850 C849 1.397 . S
C850 C851 1.334 . S
C851 H828 0.950 . S
C851 C850 1.334 . S
C851 C852 1.287 . S
C852 C851 1.287 . S
C852 C853 1.524 . S
C852 H871 0.913 . S
C853 H829 0.950 . S
C853 C852 1.524 . S
C853 C854 1.415 . S
C854 H830 0.950 . S
C854 C849 1.363 . S
C854 C853 1.415 . S
C855 H831 0.951 . S
C855 C856 1.366 . S
C855 C857 1.388 . S
C856 C855 1.366 . S
C856 C860 1.385 . S
C857 H832 0.951 . S
C857 C855 1.388 . S
C857 C858 1.366 . S
C858 C857 1.366 . S
C858 C859 1.414 . S
C858 C861 1.499 . S
C859 H833 0.950 . S
C859 C858 1.414 . S
C859 C860 1.374 . S
C860 H834 0.950 . S
C860 C856 1.385 . S
C860 C859 1.374 . S
C861 C858 1.499 . S
C861 C862 1.373 . S
C861 C863 1.389 . S
C862 H835 0.950 . S
C862 C848 1.377 . S
C862 C861 1.373 . S
C863 C847 1.377 . S
C863 C861 1.389 . S
C863 C864 1.524 . S
C864 C863 1.524 . S
C864 C865 1.397 . S
C864 C869 1.363 . S
C865 H836 0.950 . S
C865 C864 1.397 . S
C865 C866 1.334 . S
C866 H837 0.950 . S
C866 C865 1.334 . S
C866 C867 1.287 . S
C867 C866 1.287 . S
C867 C868 1.524 . S
C867 H870 0.999 . S
C868 H838 0.950 . S
C868 C867 1.524 . S
C868 C869 1.415 . S
C869 H839 0.950 . S
C869 C864 1.363 . S
C869 C868 1.415 . S
H870 C867 0.999 . S
H871 C852 0.913 . S
H872 C890 0.951 . S
H873 C892 0.948 1_554 S
H874 C894 0.950 . S
H875 C895 0.950 . S
H876 C897 0.950 . S
H877 C900 0.950 . S
H878 C901 0.950 1_556 S
H879 C903 0.950 . S
H880 C904 0.950 . S
H881 C905 0.951 . S
H882 C907 0.951 . S
H883 C909 0.950 . S
H884 C910 0.950 . S
H885 C912 0.950 . S
H886 C915 0.950 . S
H887 C916 0.950 . S
H888 C918 0.950 . S
H889 C919 0.950 . S
C890 H872 0.951 . S
C890 C891 1.366 . S
C890 C892 1.419 . S
C891 C890 1.366 . S
C891 C895 1.385 . S
C892 H873 0.948 1_556 S
C892 C890 1.419 . S
C892 C893 1.337 1_556 S
C893 C892 1.337 1_554 S
C893 C894 1.414 . S
C893 C896 1.499 . S
C894 H874 0.950 . S
C894 C893 1.414 . S
C894 C895 1.374 1_554 S
C895 H875 0.950 . S
C895 C891 1.385 . S
C895 C894 1.374 1_556 S
C896 C893 1.499 . S
C896 C897 1.373 . S
C896 C898 1.389 . S
C897 H876 0.950 . S
C897 C896 1.373 . S
C897 C913 1.377 . S
C898 C896 1.389 . S
C898 C899 1.524 . S
C898 C912 1.377 . S
C899 C898 1.524 . S
C899 C900 1.397 . S
C899 C904 1.363 . S
C900 H877 0.950 . S
C900 C899 1.397 . S
C900 C901 1.334 . S
C901 H878 0.950 1_554 S
C901 C900 1.334 . S
C901 C902 1.287 1_554 S
C902 C901 1.287 1_556 S
C902 C903 1.524 1_556 S
C902 H921 0.913 . S
C903 H879 0.950 . S
C903 C902 1.524 1_554 S
C903 C904 1.415 . S
C904 H880 0.950 . S
C904 C899 1.363 . S
C904 C903 1.415 . S
C905 H881 0.951 . S
C905 C906 1.366 . S
C905 C907 1.388 . S
C906 C905 1.366 . S
C906 C910 1.385 . S
C907 H882 0.951 . S
C907 C905 1.388 . S
C907 C908 1.366 . S
C908 C907 1.366 . S
C908 C909 1.414 . S
C908 C911 1.499 . S
C909 H883 0.950 . S
C909 C908 1.414 . S
C909 C910 1.374 . S
C910 H884 0.950 . S
C910 C906 1.385 . S
C910 C909 1.374 . S
C911 C908 1.499 . S
C911 C912 1.373 . S
C911 C913 1.389 . S
C912 H885 0.950 . S
C912 C898 1.377 . S
C912 C911 1.373 . S
C913 C897 1.377 . S
C913 C911 1.389 . S
C913 C914 1.524 . S
C914 C913 1.524 . S
C914 C915 1.397 . S
C914 C919 1.363 . S
C915 H886 0.950 . S
C915 C914 1.397 . S
C915 C916 1.334 . S
C916 H887 0.950 . S
C916 C915 1.334 . S
C916 C917 1.287 . S
C917 C916 1.287 . S
C917 C918 1.524 . S
C917 H920 0.999 . S
C918 H888 0.950 . S
C918 C917 1.524 . S
C918 C919 1.415 . S
C919 H889 0.950 . S
C919 C914 1.363 . S
C919 C918 1.415 . S
H920 C917 0.999 . S
H921 C902 0.913 . S
H922 C940 0.951 . S
H923 C942 0.951 . S
H924 C944 0.950 . S
H925 C945 0.950 . S
H926 C947 0.950 . S
H927 C950 0.950 . S
H928 C951 0.950 . S
H929 C953 0.950 . S
H930 C954 0.950 . S
H931 C955 0.951 . S
H932 C957 0.951 . S
H933 C959 0.950 . S
H934 C960 0.950 . S
H935 C962 0.950 . S
H936 C965 0.950 . S
H937 C966 0.950 . S
H938 C968 0.950 1_655 S
H939 C969 0.950 . S
C940 H922 0.951 . S
C940 C941 1.366 . S
C940 C942 1.388 . S
C941 C940 1.366 . S
C941 C945 1.385 . S
C942 H923 0.951 . S
C942 C940 1.388 . S
C942 C943 1.366 . S
C943 C942 1.366 . S
C943 C944 1.414 . S
C943 C946 1.499 . S
C944 H924 0.950 . S
C944 C943 1.414 . S
C944 C945 1.374 . S
C945 H925 0.950 . S
C945 C941 1.385 . S
C945 C944 1.374 . S
C946 C943 1.499 . S
C946 C947 1.373 . S
C946 C948 1.389 . S
C947 H926 0.950 . S
C947 C946 1.373 . S
C947 C963 1.377 . S
C948 C946 1.389 . S
C948 C949 1.524 . S
C948 C962 1.377 . S
C949 C948 1.524 . S
C949 C950 1.397 . S
C949 C954 1.363 . S
C950 H927 0.950 . S
C950 C949 1.397 . S
C950 C951 1.334 . S
C951 H928 0.950 . S
C951 C950 1.334 . S
C951 C952 1.287 . S
C952 C951 1.287 . S
C952 C953 1.524 . S
C952 H971 0.913 . S
C953 H929 0.950 . S
C953 C952 1.524 . S
C953 C954 1.415 . S
C954 H930 0.950 . S
C954 C949 1.363 . S
C954 C953 1.415 . S
C955 H931 0.951 . S
C955 C956 1.366 . S
C955 C957 1.388 . S
C956 C955 1.366 . S
C956 C960 1.385 . S
C957 H932 0.951 . S
C957 C955 1.388 . S
C957 C958 1.366 . S
C958 C957 1.366 . S
C958 C959 1.414 . S
C958 C961 1.499 . S
C959 H933 0.950 . S
C959 C958 1.414 . S
C959 C960 1.374 . S
C960 H934 0.950 . S
C960 C956 1.385 . S
C960 C959 1.374 . S
C961 C958 1.499 . S
C961 C962 1.373 . S
C961 C963 1.389 . S
C962 H935 0.950 . S
C962 C948 1.377 . S
C962 C961 1.373 . S
C963 C947 1.377 . S
C963 C961 1.389 . S
C963 C964 1.524 . S
C964 C963 1.524 . S
C964 C965 1.397 . S
C964 C969 1.363 . S
C965 H936 0.950 . S
C965 C964 1.397 . S
C965 C966 1.334 . S
C966 H937 0.950 . S
C966 C965 1.334 . S
C966 C967 1.287 . S
C967 C966 1.287 . S
C967 C968 1.524 . S
C967 H970 0.999 1_455 S
C968 H938 0.950 1_455 S
C968 C967 1.524 . S
C968 C969 1.415 . S
C969 H939 0.950 . S
C969 C964 1.363 . S
C969 C968 1.415 . S
H970 C967 0.999 1_655 S
H971 C952 0.913 . S
H972 C990 0.951 . S
H973 C992 0.951 . S
H974 C994 0.950 . S
H975 C995 0.950 . S
H976 C997 0.950 . S
H977 C1000 0.950 . S
H978 C1001 0.950 . S
H979 C1003 0.950 . S
H980 C1004 0.950 . S
H981 C1005 0.951 . S
H982 C1007 0.951 . S
H983 C1009 0.950 . S
H984 C1010 0.950 . S
H985 C1012 0.950 . S
H986 C1015 0.950 . S
H987 C1016 0.950 . S
H988 C1018 0.950 . S
H989 C1019 0.950 . S
C990 H972 0.951 . S
C990 C991 1.366 . S
C990 C992 1.388 . S
C991 C990 1.366 . S
C991 C995 1.385 . S
C992 H973 0.951 . S
C992 C990 1.388 . S
C992 C993 1.366 . S
C993 C992 1.366 . S
C993 C994 1.414 . S
C993 C996 1.499 . S
C994 H974 0.950 . S
C994 C993 1.414 . S
C994 C995 1.374 . S
C995 H975 0.950 . S
C995 C991 1.385 . S
C995 C994 1.374 . S
C996 C993 1.499 . S
C996 C997 1.373 . S
C996 C998 1.389 . S
C997 H976 0.950 . S
C997 C996 1.373 . S
C997 C1013 1.377 . S
C998 C996 1.389 . S
C998 C999 1.524 . S
C998 C1012 1.377 . S
C999 C998 1.524 . S
C999 C1000 1.397 . S
C999 C1004 1.363 . S
C1000 H977 0.950 . S
C1000 C999 1.397 . S
C1000 C1001 1.334 . S
C1001 H978 0.950 . S
C1001 C1000 1.334 . S
C1001 C1002 1.287 . S
C1002 C1001 1.287 . S
C1002 C1003 1.524 . S
C1002 H1021 0.913 . S
C1003 H979 0.950 . S
C1003 C1002 1.524 . S
C1003 C1004 1.415 . S
C1004 H980 0.950 . S
C1004 C999 1.363 . S
C1004 C1003 1.415 . S
C1005 H981 0.951 . S
C1005 C1006 1.366 . S
C1005 C1007 1.388 . S
C1006 C1005 1.366 . S
C1006 C1010 1.385 . S
C1007 H982 0.951 . S
C1007 C1005 1.388 . S
C1007 C1008 1.366 . S
C1008 C1007 1.366 . S
C1008 C1009 1.414 . S
C1008 C1011 1.499 . S
C1009 H983 0.950 . S
C1009 C1008 1.414 . S
C1009 C1010 1.374 . S
C1010 H984 0.950 . S
C1010 C1006 1.385 . S
C1010 C1009 1.374 . S
C1011 C1008 1.499 . S
C1011 C1012 1.373 . S
C1011 C1013 1.389 . S
C1012 H985 0.950 . S
C1012 C998 1.377 . S
C1012 C1011 1.373 . S
C1013 C997 1.377 . S
C1013 C1011 1.389 . S
C1013 C1014 1.524 . S
C1014 C1013 1.524 . S
C1014 C1015 1.397 . S
C1014 C1019 1.363 . S
C1015 H986 0.950 . S
C1015 C1014 1.397 . S
C1015 C1016 1.334 . S
C1016 H987 0.950 . S
C1016 C1015 1.334 . S
C1016 C1017 1.287 . S
C1017 C1016 1.287 . S
C1017 C1018 1.524 . S
C1017 H1020 0.999 . S
C1018 H988 0.950 . S
C1018 C1017 1.524 . S
C1018 C1019 1.415 . S
C1019 H989 0.950 . S
C1019 C1014 1.363 . S
C1019 C1018 1.415 . S
H1020 C1017 0.999 . S
H1021 C1002 0.913 . S
H1022 C1040 0.951 . S
H1023 C1042 0.951 . S
H1024 C1044 0.950 . S
H1025 C1045 0.950 . S
H1026 C1047 0.950 . S
H1027 C1050 0.950 . S
H1028 C1051 0.950 . S
H1029 C1053 0.950 . S
H1030 C1054 0.950 . S
H1031 C1055 0.951 . S
H1032 C1057 0.951 . S
H1033 C1059 0.950 . S
H1034 C1060 0.950 . S
H1035 C1062 0.950 . S
H1036 C1065 0.950 . S
H1037 C1066 0.950 . S
H1038 C1068 0.950 . S
H1039 C1069 0.950 . S
C1040 H1022 0.951 . S
C1040 C1041 1.366 . S
C1040 C1042 1.388 . S
C1041 C1040 1.366 . S
C1041 C1045 1.385 . S
C1042 H1023 0.951 . S
C1042 C1040 1.388 . S
C1042 C1043 1.366 . S
C1043 C1042 1.366 . S
C1043 C1044 1.414 . S
C1043 C1046 1.499 . S
C1044 H1024 0.950 . S
C1044 C1043 1.414 . S
C1044 C1045 1.374 . S
C1045 H1025 0.950 . S
C1045 C1041 1.385 . S
C1045 C1044 1.374 . S
C1046 C1043 1.499 . S
C1046 C1047 1.373 . S
C1046 C1048 1.389 . S
C1047 H1026 0.950 . S
C1047 C1046 1.373 . S
C1047 C1063 1.377 . S
C1048 C1046 1.389 . S
C1048 C1049 1.524 . S
C1048 C1062 1.377 . S
C1049 C1048 1.524 . S
C1049 C1050 1.397 . S
C1049 C1054 1.363 . S
C1050 H1027 0.950 . S
C1050 C1049 1.397 . S
C1050 C1051 1.334 . S
C1051 H1028 0.950 . S
C1051 C1050 1.334 . S
C1051 C1052 1.287 . S
C1052 C1051 1.287 . S
C1052 C1053 1.524 . S
C1052 H1071 0.913 . S
C1053 H1029 0.950 . S
C1053 C1052 1.524 . S
C1053 C1054 1.415 . S
C1054 H1030 0.950 . S
C1054 C1049 1.363 . S
C1054 C1053 1.415 . S
C1055 H1031 0.951 . S
C1055 C1056 1.366 . S
C1055 C1057 1.388 . S
C1056 C1055 1.366 . S
C1056 C1060 1.385 . S
C1057 H1032 0.951 . S
C1057 C1055 1.388 . S
C1057 C1058 1.366 . S
C1058 C1057 1.366 . S
C1058 C1059 1.414 . S
C1058 C1061 1.499 . S
C1059 H1033 0.950 . S
C1059 C1058 1.414 . S
C1059 C1060 1.374 . S
C1060 H1034 0.950 . S
C1060 C1056 1.385 . S
C1060 C1059 1.374 . S
C1061 C1058 1.499 . S
C1061 C1062 1.373 . S
C1061 C1063 1.389 . S
C1062 H1035 0.950 . S
C1062 C1048 1.377 . S
C1062 C1061 1.373 . S
C1063 C1047 1.377 . S
C1063 C1061 1.389 . S
C1063 C1064 1.524 . S
C1064 C1063 1.524 . S
C1064 C1065 1.397 . S
C1064 C1069 1.363 . S
C1065 H1036 0.950 . S
C1065 C1064 1.397 . S
C1065 C1066 1.334 . S
C1066 H1037 0.950 . S
C1066 C1065 1.334 . S
C1066 C1067 1.287 . S
C1067 C1066 1.287 . S
C1067 C1068 1.524 . S
C1067 H1070 0.999 . S
C1068 H1038 0.950 . S
C1068 C1067 1.524 . S
C1068 C1069 1.415 . S
C1069 H1039 0.950 . S
C1069 C1064 1.363 . S
C1069 C1068 1.415 . S
H1070 C1067 0.999 . S
H1071 C1052 0.913 . S
H1072 C1090 0.951 . S
H1073 C1092 0.951 . S
H1074 C1094 0.950 . S
H1075 C1095 0.950 . S
H1076 C1097 0.950 . S
H1077 C1100 0.950 . S
H1078 C1101 0.950 . S
H1079 C1103 0.950 . S
H1080 C1104 0.950 . S
H1081 C1105 0.951 . S
H1082 C1107 0.951 . S
H1083 C1109 0.950 . S
H1084 C1110 0.950 . S
H1085 C1112 0.950 . S
H1086 C1115 0.950 . S
H1087 C1116 0.950 . S
H1088 C1118 0.950 . S
H1089 C1119 0.950 . S
C1090 H1072 0.951 . S
C1090 C1091 1.366 . S
C1090 C1092 1.388 . S
C1091 C1090 1.366 . S
C1091 C1095 1.385 . S
C1092 H1073 0.951 . S
C1092 C1090 1.388 . S
C1092 C1093 1.366 . S
C1093 C1092 1.366 . S
C1093 C1094 1.414 . S
C1093 C1096 1.499 . S
C1094 H1074 0.950 . S
C1094 C1093 1.414 . S
C1094 C1095 1.374 . S
C1095 H1075 0.950 . S
C1095 C1091 1.385 . S
C1095 C1094 1.374 . S
C1096 C1093 1.499 . S
C1096 C1097 1.373 . S
C1096 C1098 1.389 . S
C1097 H1076 0.950 . S
C1097 C1096 1.373 . S
C1097 C1113 1.377 . S
C1098 C1096 1.389 . S
C1098 C1099 1.524 . S
C1098 C1112 1.377 . S
C1099 C1098 1.524 . S
C1099 C1100 1.397 . S
C1099 C1104 1.363 . S
C1100 H1077 0.950 . S
C1100 C1099 1.397 . S
C1100 C1101 1.334 . S
C1101 H1078 0.950 . S
C1101 C1100 1.334 . S
C1101 C1102 1.287 . S
C1102 C1101 1.287 . S
C1102 C1103 1.524 . S
C1102 H1121 0.913 . S
C1103 H1079 0.950 . S
C1103 C1102 1.524 . S
C1103 C1104 1.415 . S
C1104 H1080 0.950 . S
C1104 C1099 1.363 . S
C1104 C1103 1.415 . S
C1105 H1081 0.951 . S
C1105 C1106 1.366 . S
C1105 C1107 1.388 . S
C1106 C1105 1.366 . S
C1106 C1110 1.385 . S
C1107 H1082 0.951 . S
C1107 C1105 1.388 . S
C1107 C1108 1.366 . S
C1108 C1107 1.366 . S
C1108 C1109 1.414 . S
C1108 C1111 1.499 . S
C1109 H1083 0.950 . S
C1109 C1108 1.414 . S
C1109 C1110 1.374 . S
C1110 H1084 0.950 . S
C1110 C1106 1.385 . S
C1110 C1109 1.374 . S
C1111 C1108 1.499 . S
C1111 C1112 1.373 . S
C1111 C1113 1.389 . S
C1112 H1085 0.950 . S
C1112 C1098 1.377 . S
C1112 C1111 1.373 . S
C1113 C1097 1.377 . S
C1113 C1111 1.389 . S
C1113 C1114 1.524 . S
C1114 C1113 1.524 . S
C1114 C1115 1.397 . S
C1114 C1119 1.363 . S
C1115 H1086 0.950 . S
C1115 C1114 1.397 . S
C1115 C1116 1.334 . S
C1116 H1087 0.950 . S
C1116 C1115 1.334 . S
C1116 C1117 1.287 . S
C1117 C1116 1.287 . S
C1117 C1118 1.524 . S
C1117 H1120 0.999 . S
C1118 H1088 0.950 . S
C1118 C1117 1.524 . S
C1118 C1119 1.415 . S
C1119 H1089 0.950 . S
C1119 C1114 1.363 . S
C1119 C1118 1.415 . S
H1120 C1117 0.999 . S
H1121 C1102 0.913 . S
H1122 C1140 0.951 . S
H1123 C1142 0.951 . S
H1124 C1144 0.950 . S
H1125 C1145 0.950 . S
H1126 C1147 0.950 . S
H1127 C1150 0.950 . S
H1128 C1151 0.950 . S
H1129 C1153 0.950 . S
H1130 C1154 0.950 . S
H1131 C1155 0.951 . S
H1132 C1157 0.951 . S
H1133 C1159 0.950 . S
H1134 C1160 0.950 . S
H1135 C1162 0.950 . S
H1136 C1165 0.950 . S
H1137 C1166 0.950 . S
H1138 C1168 0.950 . S
H1139 C1169 0.950 . S
C1140 H1122 0.951 . S
C1140 C1141 1.366 . S
C1140 C1142 1.388 . S
C1141 C1140 1.366 . S
C1141 C1145 1.385 . S
C1142 H1123 0.951 . S
C1142 C1140 1.388 . S
C1142 C1143 1.366 . S
C1143 C1142 1.366 . S
C1143 C1144 1.414 . S
C1143 C1146 1.499 . S
C1144 H1124 0.950 . S
C1144 C1143 1.414 . S
C1144 C1145 1.374 . S
C1145 H1125 0.950 . S
C1145 C1141 1.385 . S
C1145 C1144 1.374 . S
C1146 C1143 1.499 . S
C1146 C1147 1.373 . S
C1146 C1148 1.389 . S
C1147 H1126 0.950 . S
C1147 C1146 1.373 . S
C1147 C1163 1.377 . S
C1148 C1146 1.389 . S
C1148 C1149 1.524 . S
C1148 C1162 1.377 . S
C1149 C1148 1.524 . S
C1149 C1150 1.397 . S
C1149 C1154 1.363 . S
C1150 H1127 0.950 . S
C1150 C1149 1.397 . S
C1150 C1151 1.334 . S
C1151 H1128 0.950 . S
C1151 C1150 1.334 . S
C1151 C1152 1.287 . S
C1152 C1151 1.287 . S
C1152 C1153 1.524 . S
C1152 H1171 0.913 . S
C1153 H1129 0.950 . S
C1153 C1152 1.524 . S
C1153 C1154 1.415 . S
C1154 H1130 0.950 . S
C1154 C1149 1.363 . S
C1154 C1153 1.415 . S
C1155 H1131 0.951 . S
C1155 C1156 1.366 . S
C1155 C1157 1.388 . S
C1156 C1155 1.366 . S
C1156 C1160 1.385 . S
C1157 H1132 0.951 . S
C1157 C1155 1.388 . S
C1157 C1158 1.366 . S
C1158 C1157 1.366 . S
C1158 C1159 1.414 . S
C1158 C1161 1.499 . S
C1159 H1133 0.950 . S
C1159 C1158 1.414 . S
C1159 C1160 1.374 . S
C1160 H1134 0.950 . S
C1160 C1156 1.385 . S
C1160 C1159 1.374 . S
C1161 C1158 1.499 . S
C1161 C1162 1.373 . S
C1161 C1163 1.389 . S
C1162 H1135 0.950 . S
C1162 C1148 1.377 . S
C1162 C1161 1.373 . S
C1163 C1147 1.377 . S
C1163 C1161 1.389 . S
C1163 C1164 1.524 . S
C1164 C1163 1.524 . S
C1164 C1165 1.397 . S
C1164 C1169 1.363 . S
C1165 H1136 0.950 . S
C1165 C1164 1.397 . S
C1165 C1166 1.334 . S
C1166 H1137 0.950 . S
C1166 C1165 1.334 . S
C1166 C1167 1.287 . S
C1167 C1166 1.287 . S
C1167 C1168 1.524 . S
C1167 H1170 0.999 . S
C1168 H1138 0.950 . S
C1168 C1167 1.524 . S
C1168 C1169 1.415 . S
C1169 H1139 0.950 . S
C1169 C1164 1.363 . S
C1169 C1168 1.415 . S
H1170 C1167 0.999 . S
H1171 C1152 0.913 . S
H1172 C1190 0.951 . S
H1173 C1192 0.951 . S
H1174 C1194 0.950 . S
H1175 C1195 0.950 . S
H1176 C1197 0.950 . S
H1177 C1200 0.950 . S
H1178 C1201 0.950 . S
H1179 C1203 0.950 . S
H1180 C1204 0.950 . S
H1181 C1205 0.951 . S
H1182 C1207 0.951 . S
H1183 C1209 0.950 . S
H1184 C1210 0.950 . S
H1185 C1212 0.950 . S
H1186 C1215 0.950 . S
H1187 C1216 0.950 . S
H1188 C1218 0.950 . S
H1189 C1219 0.950 . S
C1190 H1172 0.951 . S
C1190 C1191 1.366 . S
C1190 C1192 1.388 . S
C1191 C1190 1.366 . S
C1191 C1195 1.385 . S
C1192 H1173 0.951 . S
C1192 C1190 1.388 . S
C1192 C1193 1.366 . S
C1193 C1192 1.366 . S
C1193 C1194 1.414 . S
C1193 C1196 1.499 . S
C1194 H1174 0.950 . S
C1194 C1193 1.414 . S
C1194 C1195 1.374 . S
C1195 H1175 0.950 . S
C1195 C1191 1.385 . S
C1195 C1194 1.374 . S
C1196 C1193 1.499 . S
C1196 C1197 1.373 . S
C1196 C1198 1.389 . S
C1197 H1176 0.950 . S
C1197 C1196 1.373 . S
C1197 C1213 1.377 . S
C1198 C1196 1.389 . S
C1198 C1199 1.524 . S
C1198 C1212 1.377 . S
C1199 C1198 1.524 . S
C1199 C1200 1.397 . S
C1199 C1204 1.363 . S
C1200 H1177 0.950 . S
C1200 C1199 1.397 . S
C1200 C1201 1.334 . S
C1201 H1178 0.950 . S
C1201 C1200 1.334 . S
C1201 C1202 1.287 . S
C1202 C1201 1.287 . S
C1202 C1203 1.524 . S
C1202 H1221 0.913 . S
C1203 H1179 0.950 . S
C1203 C1202 1.524 . S
C1203 C1204 1.415 . S
C1204 H1180 0.950 . S
C1204 C1199 1.363 . S
C1204 C1203 1.415 . S
C1205 H1181 0.951 . S
C1205 C1206 1.366 . S
C1205 C1207 1.388 . S
C1206 C1205 1.366 . S
C1206 C1210 1.385 . S
C1207 H1182 0.951 . S
C1207 C1205 1.388 . S
C1207 C1208 1.366 . S
C1208 C1207 1.366 . S
C1208 C1209 1.414 . S
C1208 C1211 1.499 . S
C1209 H1183 0.950 . S
C1209 C1208 1.414 . S
C1209 C1210 1.374 . S
C1210 H1184 0.950 . S
C1210 C1206 1.385 . S
C1210 C1209 1.374 . S
C1211 C1208 1.499 . S
C1211 C1212 1.373 . S
C1211 C1213 1.389 . S
C1212 H1185 0.950 . S
C1212 C1198 1.377 . S
C1212 C1211 1.373 . S
C1213 C1197 1.377 . S
C1213 C1211 1.389 . S
C1213 C1214 1.524 . S
C1214 C1213 1.524 . S
C1214 C1215 1.397 . S
C1214 C1219 1.363 . S
C1215 H1186 0.950 . S
C1215 C1214 1.397 . S
C1215 C1216 1.334 . S
C1216 H1187 0.950 . S
C1216 C1215 1.334 . S
C1216 C1217 1.287 . S
C1217 C1216 1.287 . S
C1217 C1218 1.524 . S
C1217 H1220 0.999 . S
C1218 H1188 0.950 . S
C1218 C1217 1.524 . S
C1218 C1219 1.415 . S
C1219 H1189 0.950 . S
C1219 C1214 1.363 . S
C1219 C1218 1.415 . S
H1220 C1217 0.999 . S
H1221 C1202 0.913 . S
H1222 C1240 0.951 . S
H1223 C1242 0.951 . S
H1224 C1244 0.950 . S
H1225 C1245 0.950 . S
H1226 C1247 0.950 . S
H1227 C1250 0.950 . S
H1228 C1251 0.950 . S
H1229 C1253 0.950 . S
H1230 C1254 0.950 . S
H1231 C1255 0.951 . S
H1232 C1257 0.951 . S
H1233 C1259 0.950 . S
H1234 C1260 0.950 . S
H1235 C1262 0.950 . S
H1236 C1265 0.950 . S
H1237 C1266 0.950 . S
H1238 C1268 0.950 . S
H1239 C1269 0.950 . S
C1240 H1222 0.951 . S
C1240 C1241 1.366 . S
C1240 C1242 1.388 . S
C1241 C1240 1.366 . S
C1241 C1245 1.385 . S
C1242 H1223 0.951 . S
C1242 C1240 1.388 . S
C1242 C1243 1.366 . S
C1243 C1242 1.366 . S
C1243 C1244 1.414 . S
C1243 C1246 1.499 . S
C1244 H1224 0.950 . S
C1244 C1243 1.414 . S
C1244 C1245 1.374 . S
C1245 H1225 0.950 . S
C1245 C1241 1.385 . S
C1245 C1244 1.374 . S
C1246 C1243 1.499 . S
C1246 C1247 1.373 . S
C1246 C1248 1.389 . S
C1247 H1226 0.950 . S
C1247 C1246 1.373 . S
C1247 C1263 1.377 . S
C1248 C1246 1.389 . S
C1248 C1249 1.524 . S
C1248 C1262 1.377 . S
C1249 C1248 1.524 . S
C1249 C1250 1.397 . S
C1249 C1254 1.363 . S
C1250 H1227 0.950 . S
C1250 C1249 1.397 . S
C1250 C1251 1.334 . S
C1251 H1228 0.950 . S
C1251 C1250 1.334 . S
C1251 C1252 1.287 . S
C1252 C1251 1.287 . S
C1252 C1253 1.524 . S
C1252 H1271 0.913 . S
C1253 H1229 0.950 . S
C1253 C1252 1.524 . S
C1253 C1254 1.415 . S
C1254 H1230 0.950 . S
C1254 C1249 1.363 . S
C1254 C1253 1.415 . S
C1255 H1231 0.951 . S
C1255 C1256 1.366 . S
C1255 C1257 1.388 . S
C1256 C1255 1.366 . S
C1256 C1260 1.385 . S
C1257 H1232 0.951 . S
C1257 C1255 1.388 . S
C1257 C1258 1.366 . S
C1258 C1257 1.366 . S
C1258 C1259 1.414 . S
C1258 C1261 1.499 . S
C1259 H1233 0.950 . S
C1259 C1258 1.414 . S
C1259 C1260 1.374 . S
C1260 H1234 0.950 . S
C1260 C1256 1.385 . S
C1260 C1259 1.374 . S
C1261 C1258 1.499 . S
C1261 C1262 1.373 . S
C1261 C1263 1.389 . S
C1262 H1235 0.950 . S
C1262 C1248 1.377 . S
C1262 C1261 1.373 . S
C1263 C1247 1.377 . S
C1263 C1261 1.389 . S
C1263 C1264 1.524 . S
C1264 C1263 1.524 . S
C1264 C1265 1.397 . S
C1264 C1269 1.363 . S
C1265 H1236 0.950 . S
C1265 C1264 1.397 . S
C1265 C1266 1.334 . S
C1266 H1237 0.950 . S
C1266 C1265 1.334 . S
C1266 C1267 1.287 . S
C1267 C1266 1.287 . S
C1267 C1268 1.524 . S
C1267 H1270 0.999 . S
C1268 H1238 0.950 . S
C1268 C1267 1.524 . S
C1268 C1269 1.415 . S
C1269 H1239 0.950 . S
C1269 C1264 1.363 . S
C1269 C1268 1.415 . S
H1270 C1267 0.999 . S
H1271 C1252 0.913 . S
H1272 C1290 0.951 . S
H1273 C1292 0.951 . S
H1274 C1294 0.950 . S
H1275 C1295 0.950 . S
H1276 C1297 0.950 . S
H1277 C1300 0.950 . S
H1278 C1301 0.950 . S
H1279 C1303 0.950 . S
H1280 C1304 0.950 . S
H1281 C1305 0.951 . S
H1282 C1307 0.951 . S
H1283 C1309 0.950 . S
H1284 C1310 0.950 . S
H1285 C1312 0.950 . S
H1286 C1315 0.950 . S
H1287 C1316 0.950 . S
H1288 C1318 0.950 . S
H1289 C1319 0.950 . S
C1290 H1272 0.951 . S
C1290 C1291 1.366 . S
C1290 C1292 1.388 . S
C1291 C1290 1.366 . S
C1291 C1295 1.385 . S
C1292 H1273 0.951 . S
C1292 C1290 1.388 . S
C1292 C1293 1.366 . S
C1293 C1292 1.366 . S
C1293 C1294 1.414 . S
C1293 C1296 1.499 . S
C1294 H1274 0.950 . S
C1294 C1293 1.414 . S
C1294 C1295 1.374 . S
C1295 H1275 0.950 . S
C1295 C1291 1.385 . S
C1295 C1294 1.374 . S
C1296 C1293 1.499 . S
C1296 C1297 1.373 . S
C1296 C1298 1.389 . S
C1297 H1276 0.950 . S
C1297 C1296 1.373 . S
C1297 C1313 1.377 . S
C1298 C1296 1.389 . S
C1298 C1299 1.524 . S
C1298 C1312 1.377 . S
C1299 C1298 1.524 . S
C1299 C1300 1.397 . S
C1299 C1304 1.363 . S
C1300 H1277 0.950 . S
C1300 C1299 1.397 . S
C1300 C1301 1.334 . S
C1301 H1278 0.950 . S
C1301 C1300 1.334 . S
C1301 C1302 1.287 . S
C1302 C1301 1.287 . S
C1302 C1303 1.524 . S
C1302 H1321 0.913 . S
C1303 H1279 0.950 . S
C1303 C1302 1.524 . S
C1303 C1304 1.415 . S
C1304 H1280 0.950 . S
C1304 C1299 1.363 . S
C1304 C1303 1.415 . S
C1305 H1281 0.951 . S
C1305 C1306 1.366 . S
C1305 C1307 1.388 . S
C1306 C1305 1.366 . S
C1306 C1310 1.385 . S
C1307 H1282 0.951 . S
C1307 C1305 1.388 . S
C1307 C1308 1.366 . S
C1308 C1307 1.366 . S
C1308 C1309 1.414 . S
C1308 C1311 1.499 . S
C1309 H1283 0.950 . S
C1309 C1308 1.414 . S
C1309 C1310 1.374 . S
C1310 H1284 0.950 . S
C1310 C1306 1.385 . S
C1310 C1309 1.374 . S
C1311 C1308 1.499 . S
C1311 C1312 1.373 . S
C1311 C1313 1.389 . S
C1312 H1285 0.950 . S
C1312 C1298 1.377 . S
C1312 C1311 1.373 . S
C1313 C1297 1.377 . S
C1313 C1311 1.389 . S
C1313 C1314 1.524 . S
C1314 C1313 1.524 . S
C1314 C1315 1.397 . S
C1314 C1319 1.363 . S
C1315 H1286 0.950 . S
C1315 C1314 1.397 . S
C1315 C1316 1.334 . S
C1316 H1287 0.950 . S
C1316 C1315 1.334 . S
C1316 C1317 1.287 . S
C1317 C1316 1.287 . S
C1317 C1318 1.524 . S
C1317 H1320 0.999 . S
C1318 H1288 0.950 . S
C1318 C1317 1.524 . S
C1318 C1319 1.415 . S
C1319 H1289 0.950 . S
C1319 C1314 1.363 . S
C1319 C1318 1.415 . S
H1320 C1317 0.999 . S
H1321 C1302 0.913 . S
H1322 C1340 0.951 . S
H1323 C1342 0.951 . S
H1324 C1344 0.950 . S
H1325 C1345 0.950 . S
H1326 C1347 0.950 . S
H1327 C1350 0.950 . S
H1328 C1351 0.950 . S
H1329 C1353 0.950 . S
H1330 C1354 0.950 . S
H1331 C1355 0.951 . S
H1332 C1357 0.951 . S
H1333 C1359 0.950 . S
H1334 C1360 0.950 . S
H1335 C1362 0.950 . S
H1336 C1365 0.950 . S
H1337 C1366 0.950 . S
H1338 C1368 0.950 . S
H1339 C1369 0.950 . S
C1340 H1322 0.951 . S
C1340 C1341 1.366 . S
C1340 C1342 1.388 . S
C1341 C1340 1.366 . S
C1341 C1345 1.385 . S
C1342 H1323 0.951 . S
C1342 C1340 1.388 . S
C1342 C1343 1.366 . S
C1343 C1342 1.366 . S
C1343 C1344 1.414 . S
C1343 C1346 1.499 . S
C1344 H1324 0.950 . S
C1344 C1343 1.414 . S
C1344 C1345 1.374 . S
C1345 H1325 0.950 . S
C1345 C1341 1.385 . S
C1345 C1344 1.374 . S
C1346 C1343 1.499 . S
C1346 C1347 1.373 . S
C1346 C1348 1.389 . S
C1347 H1326 0.950 . S
C1347 C1346 1.373 . S
C1347 C1363 1.377 . S
C1348 C1346 1.389 . S
C1348 C1349 1.524 . S
C1348 C1362 1.377 . S
C1349 C1348 1.524 . S
C1349 C1350 1.397 . S
C1349 C1354 1.363 . S
C1350 H1327 0.950 . S
C1350 C1349 1.397 . S
C1350 C1351 1.334 . S
C1351 H1328 0.950 . S
C1351 C1350 1.334 . S
C1351 C1352 1.287 . S
C1352 C1351 1.287 . S
C1352 C1353 1.524 . S
C1352 H1371 0.913 . S
C1353 H1329 0.950 . S
C1353 C1352 1.524 . S
C1353 C1354 1.415 . S
C1354 H1330 0.950 . S
C1354 C1349 1.363 . S
C1354 C1353 1.415 . S
C1355 H1331 0.951 . S
C1355 C1356 1.366 . S
C1355 C1357 1.388 . S
C1356 C1355 1.366 . S
C1356 C1360 1.385 . S
C1357 H1332 0.951 . S
C1357 C1355 1.388 . S
C1357 C1358 1.366 . S
C1358 C1357 1.366 . S
C1358 C1359 1.414 . S
C1358 C1361 1.499 . S
C1359 H1333 0.950 . S
C1359 C1358 1.414 . S
C1359 C1360 1.374 . S
C1360 H1334 0.950 . S
C1360 C1356 1.385 . S
C1360 C1359 1.374 . S
C1361 C1358 1.499 . S
C1361 C1362 1.373 . S
C1361 C1363 1.389 . S
C1362 H1335 0.950 . S
C1362 C1348 1.377 . S
C1362 C1361 1.373 . S
C1363 C1347 1.377 . S
C1363 C1361 1.389 . S
C1363 C1364 1.524 . S
C1364 C1363 1.524 . S
C1364 C1365 1.397 . S
C1364 C1369 1.363 . S
C1365 H1336 0.950 . S
C1365 C1364 1.397 . S
C1365 C1366 1.334 . S
C1366 H1337 0.950 . S
C1366 C1365 1.334 . S
C1366 C1367 1.287 . S
C1367 C1366 1.287 . S
C1367 C1368 1.524 . S
C1367 H1370 0.999 . S
C1368 H1338 0.950 . S
C1368 C1367 1.524 . S
C1368 C1369 1.415 . S
C1369 H1339 0.950 . S
C1369 C1364 1.363 . S
C1369 C1368 1.415 . S
H1370 C1367 0.999 . S
H1371 C1352 0.913 . S
C191 C73 1.385 . S
C206 C104 1.331 . S
C256 C112 1.425 . S
C241 C84 1.505 . S
C306 C116 1.322 . S
C291 C51 1.380 . S
C341 C62 1.491 . S
C356 C92 1.408 . S
C406 C133 1.399 . S
C391 C29 1.483 . S
C456 C167 1.117 . S
C441 C38 1.039 . S
C491 C7 1.480 . S
C506 C155 1.390 . S
C541 C16 1.032 . S
C556 C137 1.109 . S
C606 C91 1.439 . S
C591 C18 1.547 . S
C656 C125 1.391 . S
C641 C5 1.380 . S
C706 C129 1.440 . S
C691 C40 1.554 . S
C756 C107 1.380 1_655 S
C741 C27 1.372 . S
C806 C146 1.187 . S
C791 C60 1.130 . S
C841 C49 1.152 . S
C856 C154 1.245 . S
C906 C170 1.187 . S
C891 C82 1.138 . S
C941 C71 1.155 . S
C956 C150 1.240 . S
C1006 C95 1.463 . S
C991 C8 1.654 . S
C1056 C113 1.329 . S
C1041 C19 1.486 . S
C1091 C30 1.644 . S
C1106 C128 1.462 . S
C1156 C108 1.330 . S
C1141 C41 1.478 . S
C1206 C134 1.262 . S
C1191 C52 1.387 . S
C1241 C63 1.554 . S
C1256 C158 1.401 . S
C1291 C74 1.379 . S
C1306 C171 1.259 . S
C1341 C85 1.552 . S
C1356 C149 1.406 . S
