# Generated by pormake.
# Topology bcu-b, (8,8)-cn, num edge types: 1
# Building blocks:
#     Node 0, Type 0, BuildingBlock: TAGTUT_clean_sbu_3, # of connection points: 8
#     Node 1, Type 1, BuildingBlock: VETTIZ_charged_sbu_0, # of connection points: 8
#     Edge 2, Type (0, 1), BuildingBlock: TEMPAE_clean_linker_10, # of connection points: 2
#     Edge 3, Type (0, 1), BuildingBlock: TEMPAE_clean_linker_10, # of connection points: 2
#     Edge 4, Type (0, 1), BuildingBlock: TEMPAE_clean_linker_10, # of connection points: 2
#     Edge 5, Type (0, 1), BuildingBlock: TEMPAE_clean_linker_10, # of connection points: 2
#     Edge 6, Type (0, 1), BuildingBlock: TEMPAE_clean_linker_10, # of connection points: 2
#     Edge 7, Type (0, 1), BuildingBlock: TEMPAE_clean_linker_10, # of connection points: 2
#     Edge 8, Type (0, 1), BuildingBlock: TEMPAE_clean_linker_10, # of connection points: 2
#     Edge 9, Type (0, 1), BuildingBlock: TEMPAE_clean_linker_10, # of connection points: 2
# Relax obj value: 0.021
# Max RMSD: 0.102
# Mean RMSD: 0.075
data_MOF--net-bcu-b--node1-TAGTUT_clean_sbu_3--node2-VETTIZ_charged_sbu_0--edge1-TEMPAE_clean_linker_10
_symmetry_space_group_name_H-M    P1
_symmetry_Int_Tables_number       1
_symmetry_cell_setting            triclinic
loop_
_symmetry_equiv_pos_as_xyz
'x, y, z'
_cell_length_a     20.102773
_cell_length_b     19.734527
_cell_length_c     20.500385
_cell_angle_alpha  90.266333
_cell_angle_beta   89.201777
_cell_angle_gamma 99.243369
loop_
_atom_site_label
_atom_site_type_symbol
_atom_site_fract_x
_atom_site_fract_y
_atom_site_fract_z
_atom_type_partial_charge
C0 C 0.1176 0.12454 0.06283 0.0
C1 C 0.20027 0.8821 0.09271 0.0
C2 C 0.10784 0.84105 0.90363 0.0
Mg3 Mg 0.98676 0.15746 0.98384 0.0
Mg4 Mg 0.85242 0.0383 0.98187 0.0
O5 O 0.9436 0.06314 0.95593 0.0
Mg6 Mg 0.00765 0.00812 0.99605 0.0
O7 O 0.07575 0.95785 0.03556 0.0
Mg8 Mg 0.15775 0.99363 0.98093 0.0
Mg9 Mg 0.05419 0.862 0.04008 0.0
C10 C 0.89096 0.89491 0.93243 0.0
O11 O 0.93286 0.96428 0.07878 0.0
O12 O 0.90764 0.19623 0.91618 0.0
O13 O 0.95851 0.85745 0.09045 0.0
O14 O 0.91647 0.16276 0.06991 0.0
O15 O 0.81764 0.11156 0.91828 0.0
O16 O 0.83542 0.07295 0.08132 0.0
O17 O 0.08604 0.04562 0.91678 0.0
O18 O 0.06143 0.15078 0.90052 0.0
C19 C 0.09662 0.10374 0.88761 0.0
C20 C 0.84735 0.17062 0.89878 0.0
O21 O 0.95438 0.91636 0.93876 0.0
O22 O 0.21821 0.93405 0.05468 0.0
O23 O 0.84546 0.93007 0.95174 0.0
O24 O 0.14478 0.89942 0.91212 0.0
O25 O 0.14021 0.84866 0.09456 0.0
O26 O 0.06291 0.8167 0.94545 0.0
O27 O 0.05567 0.1035 0.04958 0.0
O28 O 0.16401 0.0897 0.04633 0.0
C29 C 0.86684 0.13034 0.10194 0.0
C30 C 0.92174 0.90344 0.10324 0.0
Fe31 Fe 0.51688 0.6625 0.54807 0.0
O32 O 0.50451 0.56211 0.54106 0.0
Fe33 Fe 0.58087 0.51736 0.49523 0.0
Fe34 Fe 0.42556 0.50717 0.49717 0.0
O35 O 0.51113 0.56286 0.54038 0.0
O36 O 0.50204 0.46189 0.4518 0.0
O37 O 0.49541 0.46126 0.4523 0.0
Fe38 Fe 0.49163 0.36134 0.44663 0.0
C39 C 0.37675 0.60563 0.59989 0.0
O40 O 0.44646 0.67379 0.47857 0.0
O41 O 0.43223 0.57653 0.42137 0.0
O42 O 0.56872 0.38505 0.38017 0.0
O43 O 0.64374 0.46034 0.44085 0.0
O44 O 0.59005 0.58723 0.41993 0.0
O45 O 0.59049 0.68379 0.477 0.0
O46 O 0.35201 0.44337 0.44379 0.0
O47 O 0.41167 0.3701 0.3873 0.0
C48 C 0.60188 0.65246 0.4246 0.0
O49 O 0.56652 0.35266 0.5135 0.0
O50 O 0.57483 0.44918 0.57069 0.0
O51 O 0.43644 0.63917 0.61206 0.0
O52 O 0.36245 0.56288 0.55141 0.0
C53 C 0.43275 0.64102 0.42555 0.0
C54 C 0.35823 0.39778 0.39891 0.0
C55 C 0.40651 0.37229 0.57034 0.0
O56 O 0.41536 0.43763 0.57309 0.0
O57 O 0.42124 0.33974 0.51992 0.0
C58 C 0.6288 0.41646 0.3932 0.0
O59 O 0.6545 0.58058 0.54941 0.0
O60 O 0.59409 0.65038 0.60954 0.0
C61 C 0.58445 0.38756 0.56455 0.0
C62 C 0.64759 0.62312 0.59695 0.0
C63 C 0.09061 0.20499 0.15027 0.0
C64 C 0.13596 0.18641 0.10338 0.0
C65 C 0.11298 0.2531 0.19916 0.0
C66 C 0.18166 0.2836 0.19999 0.0
C67 C 0.22533 0.27087 0.14813 0.0
C68 C 0.20201 0.22196 0.10068 0.0
C69 C 0.06495 0.26676 0.25309 0.0
C70 C 0.29878 0.30304 0.14658 0.0
C71 C 0.26951 0.41454 0.31925 0.0
C72 C 0.29974 0.37122 0.35921 0.0
C73 C 0.22536 0.38682 0.26976 0.0
C74 C 0.21199 0.31464 0.2609 0.0
C75 C 0.23758 0.2711 0.30566 0.0
C76 C 0.28142 0.30009 0.35406 0.0
C77 C 0.198 0.43488 0.22398 0.0
C78 C 0.2239 0.19379 0.29889 0.0
H79 H 0.03916 0.17811 0.15192 0.0
H80 H 0.23667 0.20875 0.06348 0.0
H81 H 0.08271 0.25056 0.30068 0.0
H82 H 0.06359 0.32264 0.25649 0.0
H83 H 0.01307 0.23911 0.24544 0.0
H84 H 0.32318 0.29564 0.09868 0.0
H85 H 0.30442 0.35883 0.15703 0.0
H86 H 0.32604 0.27935 0.18486 0.0
H87 H 0.284 0.46971 0.32353 0.0
H88 H 0.30464 0.26696 0.38575 0.0
H89 H 0.14661 0.41298 0.20765 0.0
H90 H 0.23118 0.44331 0.18011 0.0
H91 H 0.19656 0.48561 0.24725 0.0
H92 H 0.16916 0.17532 0.29365 0.0
H93 H 0.24207 0.16761 0.34143 0.0
H94 H 0.24969 0.17826 0.25434 0.0
C95 C 0.77986 0.14341 0.18903 0.0
C96 C 0.84288 0.1658 0.15969 0.0
C97 C 0.75252 0.18503 0.23491 0.0
C98 C 0.78892 0.25051 0.25123 0.0
C99 C 0.85441 0.27101 0.22524 0.0
C100 C 0.88065 0.22835 0.18029 0.0
C101 C 0.6829 0.16084 0.26269 0.0
C102 C 0.89496 0.34022 0.24131 0.0
C103 C 0.68065 0.3866 0.28939 0.0
C104 C 0.68285 0.38968 0.3575 0.0
C105 C 0.71713 0.34339 0.25426 0.0
C106 C 0.75547 0.30102 0.28834 0.0
C107 C 0.76045 0.30646 0.35711 0.0
C108 C 0.72423 0.35122 0.39097 0.0
C109 C 0.71181 0.34059 0.18083 0.0
C110 C 0.80014 0.26174 0.39528 0.0
H111 H 0.75045 0.09516 0.1738 0.0
H112 H 0.92977 0.24612 0.15856 0.0
H113 H 0.68201 0.16941 0.3162 0.0
H114 H 0.64676 0.19096 0.24086 0.0
H115 H 0.66533 0.10554 0.25261 0.0
H116 H 0.94595 0.34769 0.21829 0.0
H117 H 0.86812 0.38164 0.22422 0.0
H118 H 0.9005 0.34614 0.29487 0.0
H119 H 0.64751 0.41547 0.26386 0.0
H120 H 0.72409 0.35209 0.44389 0.0
H121 H 0.68579 0.28919 0.16559 0.0
H122 H 0.76281 0.34839 0.15796 0.0
H123 H 0.68351 0.38 0.16164 0.0
H124 H 0.77444 0.20766 0.39301 0.0
H125 H 0.805 0.27742 0.44735 0.0
H126 H 0.85127 0.26337 0.37371 0.0
C127 C 0.79912 0.87593 0.13004 0.0
C128 C 0.86622 0.88431 0.15007 0.0
C129 C 0.74704 0.8427 0.17069 0.0
C130 C 0.76306 0.8183 0.23256 0.0
C131 C 0.83055 0.83081 0.25416 0.0
C132 C 0.88137 0.86296 0.21226 0.0
C133 C 0.6758 0.83001 0.14586 0.0
C134 C 0.84973 0.80701 0.32025 0.0
C135 C 0.63867 0.76569 0.37027 0.0
C136 C 0.63466 0.69393 0.36945 0.0
C137 C 0.6764 0.80691 0.32297 0.0
C138 C 0.71106 0.77569 0.2737 0.0
C139 C 0.70322 0.7031 0.26978 0.0
C140 C 0.66503 0.66302 0.31773 0.0
C141 C 0.68279 0.88401 0.32848 0.0
C142 C 0.73868 0.66782 0.21735 0.0
H143 H 0.78792 0.89155 0.08129 0.0
H144 H 0.93358 0.86922 0.22716 0.0
H145 H 0.66155 0.77481 0.13358 0.0
H146 H 0.63984 0.84238 0.18393 0.0
H147 H 0.67019 0.86065 0.10152 0.0
H148 H 0.90353 0.8254 0.33145 0.0
H149 H 0.818 0.82553 0.35904 0.0
H150 H 0.84067 0.75007 0.32193 0.0
H151 H 0.61406 0.79006 0.4092 0.0
H152 H 0.66154 0.60764 0.31621 0.0
H153 H 0.67753 0.90731 0.28007 0.0
H154 H 0.73359 0.9053 0.34677 0.0
H155 H 0.6445 0.89973 0.36249 0.0
H156 H 0.73084 0.68951 0.16875 0.0
H157 H 0.72086 0.61154 0.2161 0.0
H158 H 0.79371 0.67675 0.22635 0.0
C159 C 0.31357 0.85147 0.12014 0.0
C160 C 0.248 0.8595 0.13892 0.0
C161 C 0.35362 0.81854 0.16183 0.0
C162 C 0.32734 0.79408 0.2235 0.0
C163 C 0.26244 0.80552 0.24357 0.0
C164 C 0.22367 0.83768 0.20101 0.0
C165 C 0.42262 0.80726 0.13885 0.0
C166 C 0.23274 0.78163 0.30928 0.0
C167 C 0.37784 0.64503 0.31657 0.0
C168 C 0.41346 0.67932 0.36857 0.0
C169 C 0.35358 0.68191 0.26601 0.0
C170 C 0.36568 0.75473 0.2673 0.0
C171 C 0.40579 0.78934 0.31717 0.0
C172 C 0.42896 0.75128 0.36725 0.0
C173 C 0.31128 0.6429 0.21357 0.0
C174 C 0.42047 0.86675 0.32024 0.0
H175 H 0.33216 0.86773 0.07189 0.0
H176 H 0.17309 0.84435 0.2158 0.0
H177 H 0.46063 0.82365 0.17687 0.0
H178 H 0.42221 0.75169 0.13001 0.0
H179 H 0.43858 0.83554 0.09306 0.0
H180 H 0.18268 0.79711 0.31841 0.0
H181 H 0.22696 0.72486 0.31226 0.0
H182 H 0.26709 0.80305 0.3488 0.0
H183 H 0.36633 0.58945 0.31678 0.0
H184 H 0.45789 0.77822 0.40642 0.0
H185 H 0.32747 0.66369 0.16468 0.0
H186 H 0.2578 0.64914 0.22092 0.0
H187 H 0.31426 0.58716 0.21426 0.0
H188 H 0.4354 0.88864 0.27147 0.0
H189 H 0.46111 0.88538 0.35524 0.0
H190 H 0.3742 0.88669 0.33593 0.0
C191 C 0.10637 0.72655 0.84954 0.0
C192 C 0.12351 0.79834 0.84761 0.0
C193 C 0.13406 0.68509 0.80394 0.0
C194 C 0.17966 0.71633 0.7555 0.0
C195 C 0.19147 0.78874 0.74947 0.0
C196 C 0.1634 0.82883 0.79569 0.0
C197 C 0.11911 0.6081 0.8113 0.0
C198 C 0.23867 0.82427 0.69776 0.0
C199 C 0.33544 0.64288 0.70693 0.0
C200 C 0.32134 0.62162 0.64259 0.0
C201 C 0.28773 0.66943 0.74557 0.0
C202 C 0.22426 0.67551 0.7191 0.0
C203 C 0.20788 0.64978 0.65569 0.0
C204 C 0.25671 0.62281 0.61809 0.0
C205 C 0.30705 0.69506 0.81337 0.0
C206 C 0.14066 0.65486 0.62591 0.0
H207 H 0.07495 0.70253 0.88911 0.0
H208 H 0.17576 0.8843 0.79308 0.0
H209 H 0.11317 0.58244 0.76299 0.0
H210 H 0.16193 0.59017 0.83587 0.0
H211 H 0.07274 0.59175 0.84105 0.0
H212 H 0.2352 0.87974 0.69394 0.0
H213 H 0.29134 0.81941 0.70986 0.0
H214 H 0.22759 0.79982 0.64947 0.0
H215 H 0.38497 0.64098 0.72647 0.0
H216 H 0.24554 0.60642 0.56834 0.0
H217 H 0.26746 0.6739 0.84931 0.0
H218 H 0.31152 0.75184 0.81487 0.0
H219 H 0.35577 0.68089 0.82875 0.0
H220 H 0.0991 0.64216 0.66219 0.0
H221 H 0.13035 0.6203 0.58304 0.0
H222 H 0.14056 0.70836 0.60957 0.0
C223 C 0.14099 0.12885 0.7764 0.0
C224 C 0.15377 0.122 0.84264 0.0
C225 C 0.18966 0.16567 0.73487 0.0
C226 C 0.25203 0.1973 0.7608 0.0
C227 C 0.26656 0.187 0.82711 0.0
C228 C 0.21694 0.14938 0.86746 0.0
C229 C 0.17245 0.17465 0.66428 0.0
C230 C 0.33244 0.21967 0.85653 0.0
C231 C 0.38395 0.26267 0.63265 0.0
C232 C 0.37412 0.33113 0.62567 0.0
C233 C 0.34738 0.21944 0.67917 0.0
C234 C 0.29928 0.24506 0.71926 0.0
C235 C 0.29179 0.31517 0.71497 0.0
C236 C 0.3297 0.35759 0.66839 0.0
C237 C 0.35775 0.14546 0.68301 0.0
C238 C 0.24107 0.34447 0.75708 0.0
H239 H 0.09138 0.1088 0.75793 0.0
H240 H 0.22579 0.14547 0.91928 0.0
H241 H 0.16819 0.22918 0.65523 0.0
H242 H 0.2131 0.16149 0.63179 0.0
H243 H 0.1242 0.14222 0.65068 0.0
H244 H 0.33956 0.19913 0.90587 0.0
H245 H 0.37552 0.21139 0.82473 0.0
H246 H 0.33351 0.27591 0.86069 0.0
H247 H 0.4192 0.24224 0.60048 0.0
H248 H 0.32205 0.41045 0.6633 0.0
H249 H 0.31279 0.11171 0.66371 0.0
H250 H 0.36357 0.13044 0.73444 0.0
H251 H 0.40273 0.13589 0.65448 0.0
H252 H 0.18934 0.32052 0.74347 0.0
H253 H 0.24538 0.40101 0.75171 0.0
H254 H 0.2477 0.33244 0.80916 0.0
C255 C 0.74009 0.1913 0.84829 0.0
C256 C 0.81029 0.20924 0.85361 0.0
C257 C 0.70398 0.22367 0.80319 0.0
C258 C 0.73885 0.27487 0.7617 0.0
C259 C 0.80947 0.29456 0.76773 0.0
C260 C 0.84437 0.26174 0.81395 0.0
C261 C 0.62856 0.20198 0.79904 0.0
C262 C 0.8483 0.34894 0.72417 0.0
C263 C 0.65207 0.29946 0.60216 0.0
C264 C 0.62322 0.35831 0.6153 0.0
C265 C 0.69134 0.27294 0.64879 0.0
C266 C 0.70136 0.30553 0.71038 0.0
C267 C 0.67268 0.36515 0.72388 0.0
C268 C 0.6341 0.39091 0.67612 0.0
C269 C 0.72185 0.20978 0.63222 0.0
C270 C 0.68148 0.40094 0.78918 0.0
H271 H 0.71313 0.15137 0.87924 0.0
H272 H 0.89857 0.27584 0.81767 0.0
H273 H 0.60269 0.24737 0.80419 0.0
H274 H 0.61552 0.17889 0.75051 0.0
H275 H 0.60857 0.16401 0.83717 0.0
H276 H 0.90255 0.36033 0.73668 0.0
H277 H 0.84401 0.33173 0.67257 0.0
H278 H 0.8266 0.3971 0.72784 0.0
H279 H 0.64473 0.27448 0.55501 0.0
H280 H 0.61204 0.43646 0.6867 0.0
H281 H 0.70036 0.16699 0.66498 0.0
H282 H 0.77706 0.21994 0.64009 0.0
H283 H 0.71255 0.19293 0.5809 0.0
H284 H 0.66211 0.4506 0.78948 0.0
H285 H 0.73541 0.41062 0.80271 0.0
H286 H 0.65404 0.36739 0.82737 0.0
C287 C 0.91415 0.80679 0.85061 0.0
C288 C 0.86936 0.83126 0.89472 0.0
C289 C 0.8905 0.7571 0.80358 0.0
C290 C 0.82068 0.73178 0.80083 0.0
C291 C 0.77689 0.75003 0.85031 0.0
C292 C 0.80174 0.79986 0.89655 0.0
C293 C 0.93899 0.73675 0.75307 0.0
C294 C 0.70234 0.7225 0.85033 0.0
C295 C 0.7279 0.71764 0.64236 0.0
C296 C 0.70548 0.64705 0.63828 0.0
C297 C 0.77076 0.74517 0.69217 0.0
C298 C 0.79086 0.70078 0.73961 0.0
C299 C 0.77308 0.62868 0.73227 0.0
C300 C 0.73017 0.60244 0.6813 0.0
C301 C 0.78937 0.82234 0.69716 0.0
C302 C 0.79431 0.57929 0.78072 0.0
H303 H 0.96673 0.83015 0.8493 0.0
H304 H 0.76723 0.81718 0.93165 0.0
H305 H 0.93006 0.68027 0.74588 0.0
H306 H 0.93063 0.7606 0.70559 0.0
H307 H 0.99235 0.75342 0.76688 0.0
H308 H 0.6772 0.73373 0.89685 0.0
H309 H 0.67825 0.74633 0.80985 0.0
H310 H 0.69362 0.66618 0.84224 0.0
H311 H 0.70862 0.75172 0.60858 0.0
H312 H 0.71229 0.54769 0.67802 0.0
H313 H 0.84435 0.83717 0.70445 0.0
H314 H 0.76314 0.84112 0.73995 0.0
H315 H 0.7752 0.8488 0.65295 0.0
H316 H 0.79934 0.52967 0.75686 0.0
H317 H 0.75506 0.56868 0.81955 0.0
H318 H 0.84273 0.60039 0.80406 0.0
loop_
_geom_bond_atom_site_label_1
_geom_bond_atom_site_label_2
_geom_bond_distance
_geom_bond_site_symmetry_2
_ccdc_geom_bond_type
C0 O27 1.312 . S
C0 O28 1.208 . S
C1 O22 1.331 . S
C1 O25 1.244 . S
C2 O24 1.264 . S
C2 O26 1.273 . S
Mg3 O5 1.936 . S
Mg3 O12 2.081 . S
Mg3 O14 2.023 1_556 S
Mg3 O18 2.031 1_655 S
Mg3 O27 2.291 1_656 S
Mg4 O5 1.963 . S
Mg4 O15 1.942 . S
Mg4 O16 1.955 1_556 S
Mg4 O23 1.986 1_545 S
O5 Mg3 1.936 . S
O5 Mg4 1.963 . S
O5 Mg6 1.915 1_656 S
Mg6 O5 1.915 1_454 S
Mg6 O7 1.915 1_545 S
Mg6 O11 2.010 1_445 S
Mg6 O17 2.117 1_554 S
Mg6 O21 2.010 1_444 S
Mg6 O27 2.117 . S
O7 Mg6 1.915 1_565 S
O7 Mg8 1.936 . S
O7 Mg9 1.963 . S
Mg8 O7 1.936 . S
Mg8 O17 2.291 1_564 S
Mg8 O22 2.081 . S
Mg8 O24 2.023 1_554 S
Mg8 O28 2.031 1_565 S
Mg9 O7 1.963 . S
Mg9 O13 1.986 1_455 S
Mg9 O25 1.942 . S
Mg9 O26 1.955 1_554 S
C10 O21 1.191 . S
C10 O23 1.307 . S
O11 Mg6 2.010 1_665 S
O11 C30 1.191 . S
O12 Mg3 2.081 . S
O12 C20 1.331 . S
O13 Mg9 1.986 1_655 S
O13 C30 1.307 . S
O14 Mg3 2.023 1_554 S
O14 C29 1.264 . S
O15 Mg4 1.942 . S
O15 C20 1.244 . S
O16 Mg4 1.955 1_554 S
O16 C29 1.273 . S
O17 Mg6 2.117 1_556 S
O17 Mg8 2.291 1_546 S
O17 C19 1.312 . S
O18 Mg3 2.031 1_455 S
O18 C19 1.208 . S
C19 O17 1.312 . S
C19 O18 1.208 . S
C20 O12 1.331 . S
C20 O15 1.244 . S
O21 Mg6 2.010 1_666 S
O21 C10 1.191 . S
O22 C1 1.331 . S
O22 Mg8 2.081 . S
O23 Mg4 1.986 1_565 S
O23 C10 1.307 . S
O24 C2 1.264 . S
O24 Mg8 2.023 1_556 S
O25 C1 1.244 . S
O25 Mg9 1.942 . S
O26 C2 1.273 . S
O26 Mg9 1.955 1_556 S
O27 C0 1.312 . S
O27 Mg3 2.291 1_454 S
O27 Mg6 2.117 . S
O28 C0 1.208 . S
O28 Mg8 2.031 1_545 S
C29 O14 1.264 . S
C29 O16 1.273 . S
C30 O11 1.191 . S
C30 O13 1.307 . S
Fe31 O32 1.886 . S
Fe31 O35 1.715 . S
Fe31 O40 2.077 . S
Fe31 O45 1.935 . S
Fe31 O51 2.077 . S
Fe31 O60 1.935 . S
O32 Fe31 1.886 . S
O32 Fe34 1.715 . S
Fe33 O35 1.886 . S
Fe33 O36 1.715 . S
Fe33 O43 1.935 . S
Fe33 O44 2.077 . S
Fe33 O50 1.935 . S
Fe33 O59 2.077 . S
Fe34 O32 1.715 . S
Fe34 O37 1.886 . S
Fe34 O41 1.935 . S
Fe34 O46 2.077 . S
Fe34 O52 1.935 . S
Fe34 O56 2.077 . S
O35 Fe31 1.715 . S
O35 Fe33 1.886 . S
O36 Fe33 1.715 . S
O36 Fe38 1.886 . S
O37 Fe34 1.886 . S
O37 Fe38 1.715 . S
Fe38 O36 1.886 . S
Fe38 O37 1.715 . S
Fe38 O42 2.077 . S
Fe38 O47 1.935 . S
Fe38 O49 2.077 . S
Fe38 O57 1.935 . S
C39 O51 1.381 . S
C39 O52 1.421 . S
O40 Fe31 2.077 . S
O40 C53 1.381 . S
O41 Fe34 1.935 . S
O41 C53 1.421 . S
O42 Fe38 2.077 . S
O42 C58 1.381 . S
O43 Fe33 1.935 . S
O43 C58 1.421 . S
O44 Fe33 2.077 . S
O44 C48 1.381 . S
O45 Fe31 1.935 . S
O45 C48 1.421 . S
O46 Fe34 2.077 . S
O46 C54 1.381 . S
O47 Fe38 1.935 . S
O47 C54 1.421 . S
C48 O44 1.381 . S
C48 O45 1.421 . S
O49 Fe38 2.077 . S
O49 C61 1.381 . S
O50 Fe33 1.935 . S
O50 C61 1.421 . S
O51 Fe31 2.077 . S
O51 C39 1.381 . S
O52 Fe34 1.935 . S
O52 C39 1.421 . S
C53 O40 1.381 . S
C53 O41 1.421 . S
C54 O46 1.381 . S
C54 O47 1.421 . S
C55 O56 1.381 . S
C55 O57 1.421 . S
O56 Fe34 2.077 . S
O56 C55 1.381 . S
O57 Fe38 1.935 . S
O57 C55 1.421 . S
C58 O42 1.381 . S
C58 O43 1.421 . S
O59 Fe33 2.077 . S
O59 C62 1.381 . S
O60 Fe31 1.935 . S
O60 C62 1.421 . S
C61 O49 1.381 . S
C61 O50 1.421 . S
C62 O59 1.381 . S
C62 O60 1.421 . S
C63 C64 1.391 . S
C63 C65 1.394 . S
C63 H79 0.931 . S
C64 C63 1.391 . S
C64 C68 1.376 . S
C65 C63 1.394 . S
C65 C66 1.369 . S
C65 C69 1.531 . S
C66 C65 1.369 . S
C66 C67 1.410 . S
C66 C74 1.503 . S
C67 C66 1.410 . S
C67 C68 1.392 . S
C67 C70 1.511 . S
C68 C64 1.376 . S
C68 C67 1.392 . S
C68 H80 0.929 . S
C69 C65 1.531 . S
C69 H81 0.960 . S
C69 H82 0.962 . S
C69 H83 0.960 . S
C70 C67 1.511 . S
C70 H84 0.961 . S
C70 H85 0.961 . S
C70 H86 0.961 . S
C71 C72 1.370 . S
C71 C73 1.363 . S
C71 H87 0.931 . S
C72 C71 1.370 . S
C72 C76 1.408 . S
C73 C71 1.363 . S
C73 C74 1.370 . S
C73 C77 1.524 . S
C74 C66 1.503 . S
C74 C73 1.370 . S
C74 C75 1.403 . S
C75 C74 1.403 . S
C75 C76 1.404 . S
C75 C78 1.539 . S
C76 C72 1.408 . S
C76 C75 1.404 . S
C76 H88 0.930 . S
C77 C73 1.524 . S
C77 H89 0.956 . S
C77 H90 0.961 . S
C77 H91 0.961 . S
C78 C75 1.539 . S
C78 H92 0.958 . S
C78 H93 0.961 . S
C78 H94 0.960 . S
H79 C63 0.931 . S
H80 C68 0.929 . S
H81 C69 0.960 . S
H82 C69 0.962 . S
H83 C69 0.960 . S
H84 C70 0.961 . S
H85 C70 0.961 . S
H86 C70 0.961 . S
H87 C71 0.931 . S
H88 C76 0.930 . S
H89 C77 0.956 . S
H90 C77 0.961 . S
H91 C77 0.961 . S
H92 C78 0.958 . S
H93 C78 0.961 . S
H94 C78 0.960 . S
C95 C96 1.391 . S
C95 C97 1.394 . S
C95 H111 0.931 . S
C96 C95 1.391 . S
C96 C100 1.376 . S
C97 C95 1.394 . S
C97 C98 1.369 . S
C97 C101 1.531 . S
C98 C97 1.369 . S
C98 C99 1.410 . S
C98 C106 1.503 . S
C99 C98 1.410 . S
C99 C100 1.392 . S
C99 C102 1.511 . S
C100 C96 1.376 . S
C100 C99 1.392 . S
C100 H112 0.929 . S
C101 C97 1.531 . S
C101 H113 0.960 . S
C101 H114 0.962 . S
C101 H115 0.960 . S
C102 C99 1.511 . S
C102 H116 0.961 . S
C102 H117 0.961 . S
C102 H118 0.961 . S
C103 C104 1.370 . S
C103 C105 1.363 . S
C103 H119 0.931 . S
C104 C103 1.370 . S
C104 C108 1.408 . S
C105 C103 1.363 . S
C105 C106 1.370 . S
C105 C109 1.524 . S
C106 C98 1.503 . S
C106 C105 1.370 . S
C106 C107 1.403 . S
C107 C106 1.403 . S
C107 C108 1.404 . S
C107 C110 1.539 . S
C108 C104 1.408 . S
C108 C107 1.404 . S
C108 H120 0.930 . S
C109 C105 1.524 . S
C109 H121 0.956 . S
C109 H122 0.961 . S
C109 H123 0.961 . S
C110 C107 1.539 . S
C110 H124 0.958 . S
C110 H125 0.961 . S
C110 H126 0.960 . S
H111 C95 0.931 . S
H112 C100 0.929 . S
H113 C101 0.960 . S
H114 C101 0.962 . S
H115 C101 0.960 . S
H116 C102 0.961 . S
H117 C102 0.961 . S
H118 C102 0.961 . S
H119 C103 0.931 . S
H120 C108 0.930 . S
H121 C109 0.956 . S
H122 C109 0.961 . S
H123 C109 0.961 . S
H124 C110 0.958 . S
H125 C110 0.961 . S
H126 C110 0.960 . S
C127 C128 1.391 . S
C127 C129 1.394 . S
C127 H143 0.931 . S
C128 C127 1.391 . S
C128 C132 1.376 . S
C129 C127 1.394 . S
C129 C130 1.369 . S
C129 C133 1.531 . S
C130 C129 1.369 . S
C130 C131 1.410 . S
C130 C138 1.503 . S
C131 C130 1.410 . S
C131 C132 1.392 . S
C131 C134 1.511 . S
C132 C128 1.376 . S
C132 C131 1.392 . S
C132 H144 0.929 . S
C133 C129 1.531 . S
C133 H145 0.960 . S
C133 H146 0.962 . S
C133 H147 0.960 . S
C134 C131 1.511 . S
C134 H148 0.961 . S
C134 H149 0.961 . S
C134 H150 0.961 . S
C135 C136 1.370 . S
C135 C137 1.363 . S
C135 H151 0.931 . S
C136 C135 1.370 . S
C136 C140 1.408 . S
C137 C135 1.363 . S
C137 C138 1.370 . S
C137 C141 1.524 . S
C138 C130 1.503 . S
C138 C137 1.370 . S
C138 C139 1.403 . S
C139 C138 1.403 . S
C139 C140 1.404 . S
C139 C142 1.539 . S
C140 C136 1.408 . S
C140 C139 1.404 . S
C140 H152 0.930 . S
C141 C137 1.524 . S
C141 H153 0.956 . S
C141 H154 0.961 . S
C141 H155 0.961 . S
C142 C139 1.539 . S
C142 H156 0.958 . S
C142 H157 0.961 . S
C142 H158 0.960 . S
H143 C127 0.931 . S
H144 C132 0.929 . S
H145 C133 0.960 . S
H146 C133 0.962 . S
H147 C133 0.960 . S
H148 C134 0.961 . S
H149 C134 0.961 . S
H150 C134 0.961 . S
H151 C135 0.931 . S
H152 C140 0.930 . S
H153 C141 0.956 . S
H154 C141 0.961 . S
H155 C141 0.961 . S
H156 C142 0.958 . S
H157 C142 0.961 . S
H158 C142 0.960 . S
C159 C160 1.391 . S
C159 C161 1.394 . S
C159 H175 0.931 . S
C160 C159 1.391 . S
C160 C164 1.376 . S
C161 C159 1.394 . S
C161 C162 1.369 . S
C161 C165 1.531 . S
C162 C161 1.369 . S
C162 C163 1.410 . S
C162 C170 1.503 . S
C163 C162 1.410 . S
C163 C164 1.392 . S
C163 C166 1.511 . S
C164 C160 1.376 . S
C164 C163 1.392 . S
C164 H176 0.929 . S
C165 C161 1.531 . S
C165 H177 0.960 . S
C165 H178 0.962 . S
C165 H179 0.960 . S
C166 C163 1.511 . S
C166 H180 0.961 . S
C166 H181 0.961 . S
C166 H182 0.961 . S
C167 C168 1.370 . S
C167 C169 1.363 . S
C167 H183 0.931 . S
C168 C167 1.370 . S
C168 C172 1.408 . S
C169 C167 1.363 . S
C169 C170 1.370 . S
C169 C173 1.524 . S
C170 C162 1.503 . S
C170 C169 1.370 . S
C170 C171 1.403 . S
C171 C170 1.403 . S
C171 C172 1.404 . S
C171 C174 1.539 . S
C172 C168 1.408 . S
C172 C171 1.404 . S
C172 H184 0.930 . S
C173 C169 1.524 . S
C173 H185 0.956 . S
C173 H186 0.961 . S
C173 H187 0.961 . S
C174 C171 1.539 . S
C174 H188 0.958 . S
C174 H189 0.961 . S
C174 H190 0.960 . S
H175 C159 0.931 . S
H176 C164 0.929 . S
H177 C165 0.960 . S
H178 C165 0.962 . S
H179 C165 0.960 . S
H180 C166 0.961 . S
H181 C166 0.961 . S
H182 C166 0.961 . S
H183 C167 0.931 . S
H184 C172 0.930 . S
H185 C173 0.956 . S
H186 C173 0.961 . S
H187 C173 0.961 . S
H188 C174 0.958 . S
H189 C174 0.961 . S
H190 C174 0.960 . S
C191 C192 1.391 . S
C191 C193 1.394 . S
C191 H207 0.931 . S
C192 C191 1.391 . S
C192 C196 1.376 . S
C193 C191 1.394 . S
C193 C194 1.369 . S
C193 C197 1.531 . S
C194 C193 1.369 . S
C194 C195 1.410 . S
C194 C202 1.503 . S
C195 C194 1.410 . S
C195 C196 1.392 . S
C195 C198 1.511 . S
C196 C192 1.376 . S
C196 C195 1.392 . S
C196 H208 0.929 . S
C197 C193 1.531 . S
C197 H209 0.960 . S
C197 H210 0.962 . S
C197 H211 0.960 . S
C198 C195 1.511 . S
C198 H212 0.961 . S
C198 H213 0.961 . S
C198 H214 0.961 . S
C199 C200 1.370 . S
C199 C201 1.363 . S
C199 H215 0.931 . S
C200 C199 1.370 . S
C200 C204 1.408 . S
C201 C199 1.363 . S
C201 C202 1.370 . S
C201 C205 1.524 . S
C202 C194 1.503 . S
C202 C201 1.370 . S
C202 C203 1.403 . S
C203 C202 1.403 . S
C203 C204 1.404 . S
C203 C206 1.539 . S
C204 C200 1.408 . S
C204 C203 1.404 . S
C204 H216 0.930 . S
C205 C201 1.524 . S
C205 H217 0.956 . S
C205 H218 0.961 . S
C205 H219 0.961 . S
C206 C203 1.539 . S
C206 H220 0.958 . S
C206 H221 0.961 . S
C206 H222 0.960 . S
H207 C191 0.931 . S
H208 C196 0.929 . S
H209 C197 0.960 . S
H210 C197 0.962 . S
H211 C197 0.960 . S
H212 C198 0.961 . S
H213 C198 0.961 . S
H214 C198 0.961 . S
H215 C199 0.931 . S
H216 C204 0.930 . S
H217 C205 0.956 . S
H218 C205 0.961 . S
H219 C205 0.961 . S
H220 C206 0.958 . S
H221 C206 0.961 . S
H222 C206 0.960 . S
C223 C224 1.391 . S
C223 C225 1.394 . S
C223 H239 0.931 . S
C224 C223 1.391 . S
C224 C228 1.376 . S
C225 C223 1.394 . S
C225 C226 1.369 . S
C225 C229 1.531 . S
C226 C225 1.369 . S
C226 C227 1.410 . S
C226 C234 1.503 . S
C227 C226 1.410 . S
C227 C228 1.392 . S
C227 C230 1.511 . S
C228 C224 1.376 . S
C228 C227 1.392 . S
C228 H240 0.929 . S
C229 C225 1.531 . S
C229 H241 0.960 . S
C229 H242 0.962 . S
C229 H243 0.960 . S
C230 C227 1.511 . S
C230 H244 0.961 . S
C230 H245 0.961 . S
C230 H246 0.961 . S
C231 C232 1.370 . S
C231 C233 1.363 . S
C231 H247 0.931 . S
C232 C231 1.370 . S
C232 C236 1.408 . S
C233 C231 1.363 . S
C233 C234 1.370 . S
C233 C237 1.524 . S
C234 C226 1.503 . S
C234 C233 1.370 . S
C234 C235 1.403 . S
C235 C234 1.403 . S
C235 C236 1.404 . S
C235 C238 1.539 . S
C236 C232 1.408 . S
C236 C235 1.404 . S
C236 H248 0.930 . S
C237 C233 1.524 . S
C237 H249 0.956 . S
C237 H250 0.961 . S
C237 H251 0.961 . S
C238 C235 1.539 . S
C238 H252 0.958 . S
C238 H253 0.961 . S
C238 H254 0.960 . S
H239 C223 0.931 . S
H240 C228 0.929 . S
H241 C229 0.960 . S
H242 C229 0.962 . S
H243 C229 0.960 . S
H244 C230 0.961 . S
H245 C230 0.961 . S
H246 C230 0.961 . S
H247 C231 0.931 . S
H248 C236 0.930 . S
H249 C237 0.956 . S
H250 C237 0.961 . S
H251 C237 0.961 . S
H252 C238 0.958 . S
H253 C238 0.961 . S
H254 C238 0.960 . S
C255 C256 1.391 . S
C255 C257 1.394 . S
C255 H271 0.931 . S
C256 C255 1.391 . S
C256 C260 1.376 . S
C257 C255 1.394 . S
C257 C258 1.369 . S
C257 C261 1.531 . S
C258 C257 1.369 . S
C258 C259 1.410 . S
C258 C266 1.503 . S
C259 C258 1.410 . S
C259 C260 1.392 . S
C259 C262 1.511 . S
C260 C256 1.376 . S
C260 C259 1.392 . S
C260 H272 0.929 . S
C261 C257 1.531 . S
C261 H273 0.960 . S
C261 H274 0.962 . S
C261 H275 0.960 . S
C262 C259 1.511 . S
C262 H276 0.961 . S
C262 H277 0.961 . S
C262 H278 0.961 . S
C263 C264 1.370 . S
C263 C265 1.363 . S
C263 H279 0.931 . S
C264 C263 1.370 . S
C264 C268 1.408 . S
C265 C263 1.363 . S
C265 C266 1.370 . S
C265 C269 1.524 . S
C266 C258 1.503 . S
C266 C265 1.370 . S
C266 C267 1.403 . S
C267 C266 1.403 . S
C267 C268 1.404 . S
C267 C270 1.539 . S
C268 C264 1.408 . S
C268 C267 1.404 . S
C268 H280 0.930 . S
C269 C265 1.524 . S
C269 H281 0.956 . S
C269 H282 0.961 . S
C269 H283 0.961 . S
C270 C267 1.539 . S
C270 H284 0.958 . S
C270 H285 0.961 . S
C270 H286 0.960 . S
H271 C255 0.931 . S
H272 C260 0.929 . S
H273 C261 0.960 . S
H274 C261 0.962 . S
H275 C261 0.960 . S
H276 C262 0.961 . S
H277 C262 0.961 . S
H278 C262 0.961 . S
H279 C263 0.931 . S
H280 C268 0.930 . S
H281 C269 0.956 . S
H282 C269 0.961 . S
H283 C269 0.961 . S
H284 C270 0.958 . S
H285 C270 0.961 . S
H286 C270 0.960 . S
C287 C288 1.391 . S
C287 C289 1.394 . S
C287 H303 0.931 . S
C288 C287 1.391 . S
C288 C292 1.376 . S
C289 C287 1.394 . S
C289 C290 1.369 . S
C289 C293 1.531 . S
C290 C289 1.369 . S
C290 C291 1.410 . S
C290 C298 1.503 . S
C291 C290 1.410 . S
C291 C292 1.392 . S
C291 C294 1.511 . S
C292 C288 1.376 . S
C292 C291 1.392 . S
C292 H304 0.929 . S
C293 C289 1.531 . S
C293 H305 0.960 . S
C293 H306 0.962 . S
C293 H307 0.960 . S
C294 C291 1.511 . S
C294 H308 0.961 . S
C294 H309 0.961 . S
C294 H310 0.961 . S
C295 C296 1.370 . S
C295 C297 1.363 . S
C295 H311 0.931 . S
C296 C295 1.370 . S
C296 C300 1.408 . S
C297 C295 1.363 . S
C297 C298 1.370 . S
C297 C301 1.524 . S
C298 C290 1.503 . S
C298 C297 1.370 . S
C298 C299 1.403 . S
C299 C298 1.403 . S
C299 C300 1.404 . S
C299 C302 1.539 . S
C300 C296 1.408 . S
C300 C299 1.404 . S
C300 H312 0.930 . S
C301 C297 1.524 . S
C301 H313 0.956 . S
C301 H314 0.961 . S
C301 H315 0.961 . S
C302 C299 1.539 . S
C302 H316 0.958 . S
C302 H317 0.961 . S
C302 H318 0.960 . S
H303 C287 0.931 . S
H304 C292 0.929 . S
H305 C293 0.960 . S
H306 C293 0.962 . S
H307 C293 0.960 . S
H308 C294 0.961 . S
H309 C294 0.961 . S
H310 C294 0.961 . S
H311 C295 0.931 . S
H312 C300 0.930 . S
H313 C301 0.956 . S
H314 C301 0.961 . S
H315 C301 0.961 . S
H316 C302 0.958 . S
H317 C302 0.961 . S
H318 C302 0.960 . S
C64 C0 1.331 . S
C72 C54 1.381 . S
C96 C29 1.614 . S
C104 C58 1.567 . S
C128 C30 1.302 . S
C136 C48 1.333 . S
C160 C1 1.527 . S
C168 C53 1.517 . S
C192 C2 1.610 . S
C200 C39 1.568 . S
C232 C55 1.374 . S
C224 C19 1.370 . S
C256 C20 1.525 . S
C264 C61 1.513 . S
C296 C62 1.340 . S
C288 C10 1.344 . S
