# Generated by pormake.
# Topology gar, (4,6)-cn, num edge types: 1
# Building blocks:
#     Node 0, Type 0, BuildingBlock: KUFVIS_clean_sbu_0, # of connection points: 4
#     Node 1, Type 0, BuildingBlock: KUFVIS_clean_sbu_0, # of connection points: 4
#     Node 2, Type 0, BuildingBlock: KUFVIS_clean_sbu_0, # of connection points: 4
#     Node 3, Type 0, BuildingBlock: KUFVIS_clean_sbu_0, # of connection points: 4
#     Node 4, Type 0, BuildingBlock: KUFVIS_clean_sbu_0, # of connection points: 4
#     Node 5, Type 0, BuildingBlock: KUFVIS_clean_sbu_0, # of connection points: 4
#     Node 6, Type 0, BuildingBlock: KUFVIS_clean_sbu_0, # of connection points: 4
#     Node 7, Type 0, BuildingBlock: KUFVIS_clean_sbu_0, # of connection points: 4
#     Node 8, Type 0, BuildingBlock: KUFVIS_clean_sbu_0, # of connection points: 4
#     Node 9, Type 0, BuildingBlock: KUFVIS_clean_sbu_0, # of connection points: 4
#     Node 10, Type 0, BuildingBlock: KUFVIS_clean_sbu_0, # of connection points: 4
#     Node 11, Type 0, BuildingBlock: KUFVIS_clean_sbu_0, # of connection points: 4
#     Node 12, Type 0, BuildingBlock: KUFVIS_clean_sbu_0, # of connection points: 4
#     Node 13, Type 0, BuildingBlock: KUFVIS_clean_sbu_0, # of connection points: 4
#     Node 14, Type 0, BuildingBlock: KUFVIS_clean_sbu_0, # of connection points: 4
#     Node 15, Type 0, BuildingBlock: KUFVIS_clean_sbu_0, # of connection points: 4
#     Node 16, Type 0, BuildingBlock: KUFVIS_clean_sbu_0, # of connection points: 4
#     Node 17, Type 0, BuildingBlock: KUFVIS_clean_sbu_0, # of connection points: 4
#     Node 18, Type 0, BuildingBlock: KUFVIS_clean_sbu_0, # of connection points: 4
#     Node 19, Type 0, BuildingBlock: KUFVIS_clean_sbu_0, # of connection points: 4
#     Node 20, Type 0, BuildingBlock: KUFVIS_clean_sbu_0, # of connection points: 4
#     Node 21, Type 0, BuildingBlock: KUFVIS_clean_sbu_0, # of connection points: 4
#     Node 22, Type 0, BuildingBlock: KUFVIS_clean_sbu_0, # of connection points: 4
#     Node 23, Type 0, BuildingBlock: KUFVIS_clean_sbu_0, # of connection points: 4
#     Node 24, Type 1, BuildingBlock: BETDIP_clean_sbu_0, # of connection points: 6
#     Node 25, Type 1, BuildingBlock: BETDIP_clean_sbu_0, # of connection points: 6
#     Node 26, Type 1, BuildingBlock: BETDIP_clean_sbu_0, # of connection points: 6
#     Node 27, Type 1, BuildingBlock: BETDIP_clean_sbu_0, # of connection points: 6
#     Node 28, Type 1, BuildingBlock: BETDIP_clean_sbu_0, # of connection points: 6
#     Node 29, Type 1, BuildingBlock: BETDIP_clean_sbu_0, # of connection points: 6
#     Node 30, Type 1, BuildingBlock: BETDIP_clean_sbu_0, # of connection points: 6
#     Node 31, Type 1, BuildingBlock: BETDIP_clean_sbu_0, # of connection points: 6
#     Node 32, Type 1, BuildingBlock: BETDIP_clean_sbu_0, # of connection points: 6
#     Node 33, Type 1, BuildingBlock: BETDIP_clean_sbu_0, # of connection points: 6
#     Node 34, Type 1, BuildingBlock: BETDIP_clean_sbu_0, # of connection points: 6
#     Node 35, Type 1, BuildingBlock: BETDIP_clean_sbu_0, # of connection points: 6
#     Node 36, Type 1, BuildingBlock: BETDIP_clean_sbu_0, # of connection points: 6
#     Node 37, Type 1, BuildingBlock: BETDIP_clean_sbu_0, # of connection points: 6
#     Node 38, Type 1, BuildingBlock: BETDIP_clean_sbu_0, # of connection points: 6
#     Node 39, Type 1, BuildingBlock: BETDIP_clean_sbu_0, # of connection points: 6
#     Edge 40, Type (0, 1), BuildingBlock: CIFDUS_clean_linker_0, # of connection points: 2
#     Edge 41, Type (0, 1), BuildingBlock: CIFDUS_clean_linker_0, # of connection points: 2
#     Edge 42, Type (0, 1), BuildingBlock: CIFDUS_clean_linker_0, # of connection points: 2
#     Edge 43, Type (0, 1), BuildingBlock: CIFDUS_clean_linker_0, # of connection points: 2
#     Edge 44, Type (0, 1), BuildingBlock: CIFDUS_clean_linker_0, # of connection points: 2
#     Edge 45, Type (0, 1), BuildingBlock: CIFDUS_clean_linker_0, # of connection points: 2
#     Edge 46, Type (0, 1), BuildingBlock: CIFDUS_clean_linker_0, # of connection points: 2
#     Edge 47, Type (0, 1), BuildingBlock: CIFDUS_clean_linker_0, # of connection points: 2
#     Edge 48, Type (0, 1), BuildingBlock: CIFDUS_clean_linker_0, # of connection points: 2
#     Edge 49, Type (0, 1), BuildingBlock: CIFDUS_clean_linker_0, # of connection points: 2
#     Edge 50, Type (0, 1), BuildingBlock: CIFDUS_clean_linker_0, # of connection points: 2
#     Edge 51, Type (0, 1), BuildingBlock: CIFDUS_clean_linker_0, # of connection points: 2
#     Edge 52, Type (0, 1), BuildingBlock: CIFDUS_clean_linker_0, # of connection points: 2
#     Edge 53, Type (0, 1), BuildingBlock: CIFDUS_clean_linker_0, # of connection points: 2
#     Edge 54, Type (0, 1), BuildingBlock: CIFDUS_clean_linker_0, # of connection points: 2
#     Edge 55, Type (0, 1), BuildingBlock: CIFDUS_clean_linker_0, # of connection points: 2
#     Edge 56, Type (0, 1), BuildingBlock: CIFDUS_clean_linker_0, # of connection points: 2
#     Edge 57, Type (0, 1), BuildingBlock: CIFDUS_clean_linker_0, # of connection points: 2
#     Edge 58, Type (0, 1), BuildingBlock: CIFDUS_clean_linker_0, # of connection points: 2
#     Edge 59, Type (0, 1), BuildingBlock: CIFDUS_clean_linker_0, # of connection points: 2
#     Edge 60, Type (0, 1), BuildingBlock: CIFDUS_clean_linker_0, # of connection points: 2
#     Edge 61, Type (0, 1), BuildingBlock: CIFDUS_clean_linker_0, # of connection points: 2
#     Edge 62, Type (0, 1), BuildingBlock: CIFDUS_clean_linker_0, # of connection points: 2
#     Edge 63, Type (0, 1), BuildingBlock: CIFDUS_clean_linker_0, # of connection points: 2
#     Edge 64, Type (0, 1), BuildingBlock: CIFDUS_clean_linker_0, # of connection points: 2
#     Edge 65, Type (0, 1), BuildingBlock: CIFDUS_clean_linker_0, # of connection points: 2
#     Edge 66, Type (0, 1), BuildingBlock: CIFDUS_clean_linker_0, # of connection points: 2
#     Edge 67, Type (0, 1), BuildingBlock: CIFDUS_clean_linker_0, # of connection points: 2
#     Edge 68, Type (0, 1), BuildingBlock: CIFDUS_clean_linker_0, # of connection points: 2
#     Edge 69, Type (0, 1), BuildingBlock: CIFDUS_clean_linker_0, # of connection points: 2
#     Edge 70, Type (0, 1), BuildingBlock: CIFDUS_clean_linker_0, # of connection points: 2
#     Edge 71, Type (0, 1), BuildingBlock: CIFDUS_clean_linker_0, # of connection points: 2
#     Edge 72, Type (0, 1), BuildingBlock: CIFDUS_clean_linker_0, # of connection points: 2
#     Edge 73, Type (0, 1), BuildingBlock: CIFDUS_clean_linker_0, # of connection points: 2
#     Edge 74, Type (0, 1), BuildingBlock: CIFDUS_clean_linker_0, # of connection points: 2
#     Edge 75, Type (0, 1), BuildingBlock: CIFDUS_clean_linker_0, # of connection points: 2
#     Edge 76, Type (0, 1), BuildingBlock: CIFDUS_clean_linker_0, # of connection points: 2
#     Edge 77, Type (0, 1), BuildingBlock: CIFDUS_clean_linker_0, # of connection points: 2
#     Edge 78, Type (0, 1), BuildingBlock: CIFDUS_clean_linker_0, # of connection points: 2
#     Edge 79, Type (0, 1), BuildingBlock: CIFDUS_clean_linker_0, # of connection points: 2
#     Edge 80, Type (0, 1), BuildingBlock: CIFDUS_clean_linker_0, # of connection points: 2
#     Edge 81, Type (0, 1), BuildingBlock: CIFDUS_clean_linker_0, # of connection points: 2
#     Edge 82, Type (0, 1), BuildingBlock: CIFDUS_clean_linker_0, # of connection points: 2
#     Edge 83, Type (0, 1), BuildingBlock: CIFDUS_clean_linker_0, # of connection points: 2
#     Edge 84, Type (0, 1), BuildingBlock: CIFDUS_clean_linker_0, # of connection points: 2
#     Edge 85, Type (0, 1), BuildingBlock: CIFDUS_clean_linker_0, # of connection points: 2
#     Edge 86, Type (0, 1), BuildingBlock: CIFDUS_clean_linker_0, # of connection points: 2
#     Edge 87, Type (0, 1), BuildingBlock: CIFDUS_clean_linker_0, # of connection points: 2
#     Edge 88, Type (0, 1), BuildingBlock: CIFDUS_clean_linker_0, # of connection points: 2
#     Edge 89, Type (0, 1), BuildingBlock: CIFDUS_clean_linker_0, # of connection points: 2
#     Edge 90, Type (0, 1), BuildingBlock: CIFDUS_clean_linker_0, # of connection points: 2
#     Edge 91, Type (0, 1), BuildingBlock: CIFDUS_clean_linker_0, # of connection points: 2
#     Edge 92, Type (0, 1), BuildingBlock: CIFDUS_clean_linker_0, # of connection points: 2
#     Edge 93, Type (0, 1), BuildingBlock: CIFDUS_clean_linker_0, # of connection points: 2
#     Edge 94, Type (0, 1), BuildingBlock: CIFDUS_clean_linker_0, # of connection points: 2
#     Edge 95, Type (0, 1), BuildingBlock: CIFDUS_clean_linker_0, # of connection points: 2
#     Edge 96, Type (0, 1), BuildingBlock: CIFDUS_clean_linker_0, # of connection points: 2
#     Edge 97, Type (0, 1), BuildingBlock: CIFDUS_clean_linker_0, # of connection points: 2
#     Edge 98, Type (0, 1), BuildingBlock: CIFDUS_clean_linker_0, # of connection points: 2
#     Edge 99, Type (0, 1), BuildingBlock: CIFDUS_clean_linker_0, # of connection points: 2
#     Edge 100, Type (0, 1), BuildingBlock: CIFDUS_clean_linker_0, # of connection points: 2
#     Edge 101, Type (0, 1), BuildingBlock: CIFDUS_clean_linker_0, # of connection points: 2
#     Edge 102, Type (0, 1), BuildingBlock: CIFDUS_clean_linker_0, # of connection points: 2
#     Edge 103, Type (0, 1), BuildingBlock: CIFDUS_clean_linker_0, # of connection points: 2
#     Edge 104, Type (0, 1), BuildingBlock: CIFDUS_clean_linker_0, # of connection points: 2
#     Edge 105, Type (0, 1), BuildingBlock: CIFDUS_clean_linker_0, # of connection points: 2
#     Edge 106, Type (0, 1), BuildingBlock: CIFDUS_clean_linker_0, # of connection points: 2
#     Edge 107, Type (0, 1), BuildingBlock: CIFDUS_clean_linker_0, # of connection points: 2
#     Edge 108, Type (0, 1), BuildingBlock: CIFDUS_clean_linker_0, # of connection points: 2
#     Edge 109, Type (0, 1), BuildingBlock: CIFDUS_clean_linker_0, # of connection points: 2
#     Edge 110, Type (0, 1), BuildingBlock: CIFDUS_clean_linker_0, # of connection points: 2
#     Edge 111, Type (0, 1), BuildingBlock: CIFDUS_clean_linker_0, # of connection points: 2
#     Edge 112, Type (0, 1), BuildingBlock: CIFDUS_clean_linker_0, # of connection points: 2
#     Edge 113, Type (0, 1), BuildingBlock: CIFDUS_clean_linker_0, # of connection points: 2
#     Edge 114, Type (0, 1), BuildingBlock: CIFDUS_clean_linker_0, # of connection points: 2
#     Edge 115, Type (0, 1), BuildingBlock: CIFDUS_clean_linker_0, # of connection points: 2
#     Edge 116, Type (0, 1), BuildingBlock: CIFDUS_clean_linker_0, # of connection points: 2
#     Edge 117, Type (0, 1), BuildingBlock: CIFDUS_clean_linker_0, # of connection points: 2
#     Edge 118, Type (0, 1), BuildingBlock: CIFDUS_clean_linker_0, # of connection points: 2
#     Edge 119, Type (0, 1), BuildingBlock: CIFDUS_clean_linker_0, # of connection points: 2
#     Edge 120, Type (0, 1), BuildingBlock: CIFDUS_clean_linker_0, # of connection points: 2
#     Edge 121, Type (0, 1), BuildingBlock: CIFDUS_clean_linker_0, # of connection points: 2
#     Edge 122, Type (0, 1), BuildingBlock: CIFDUS_clean_linker_0, # of connection points: 2
#     Edge 123, Type (0, 1), BuildingBlock: CIFDUS_clean_linker_0, # of connection points: 2
#     Edge 124, Type (0, 1), BuildingBlock: CIFDUS_clean_linker_0, # of connection points: 2
#     Edge 125, Type (0, 1), BuildingBlock: CIFDUS_clean_linker_0, # of connection points: 2
#     Edge 126, Type (0, 1), BuildingBlock: CIFDUS_clean_linker_0, # of connection points: 2
#     Edge 127, Type (0, 1), BuildingBlock: CIFDUS_clean_linker_0, # of connection points: 2
#     Edge 128, Type (0, 1), BuildingBlock: CIFDUS_clean_linker_0, # of connection points: 2
#     Edge 129, Type (0, 1), BuildingBlock: CIFDUS_clean_linker_0, # of connection points: 2
#     Edge 130, Type (0, 1), BuildingBlock: CIFDUS_clean_linker_0, # of connection points: 2
#     Edge 131, Type (0, 1), BuildingBlock: CIFDUS_clean_linker_0, # of connection points: 2
#     Edge 132, Type (0, 1), BuildingBlock: CIFDUS_clean_linker_0, # of connection points: 2
#     Edge 133, Type (0, 1), BuildingBlock: CIFDUS_clean_linker_0, # of connection points: 2
#     Edge 134, Type (0, 1), BuildingBlock: CIFDUS_clean_linker_0, # of connection points: 2
#     Edge 135, Type (0, 1), BuildingBlock: CIFDUS_clean_linker_0, # of connection points: 2
# Relax obj value: 0.198
# Max RMSD: 0.323
# Mean RMSD: 0.154
data_MOF--net-gar--node1-KUFVIS_clean_sbu_0--node2-BETDIP_clean_sbu_0--edge1-CIFDUS_clean_linker_0
_symmetry_space_group_name_H-M    P1
_symmetry_Int_Tables_number       1
_symmetry_cell_setting            triclinic
loop_
_symmetry_equiv_pos_as_xyz
'x, y, z'
_cell_length_a     56.301831
_cell_length_b     49.964616
_cell_length_c     48.652666
_cell_angle_alpha  97.175701
_cell_angle_beta   98.92843
_cell_angle_gamma 101.49383
loop_
_atom_site_label
_atom_site_type_symbol
_atom_site_fract_x
_atom_site_fract_y
_atom_site_fract_z
_atom_type_partial_charge
Mn0 Mn 0.0364 0.32291 0.41987 0.0
Mn1 Mn 1.01918 0.35785 0.36824 0.0
C2 C 0.99513 0.31805 0.40269 0.0
C3 C 0.05088 0.28617 0.4348 0.0
C4 C 0.03669 0.38413 0.42979 0.0
O5 O 0.06767 0.33509 0.40477 0.0
O6 O 0.05336 0.35269 0.36687 0.0
C7 C 1.01773 0.31606 0.31875 0.0
N8 N 1.00619 0.33273 0.3337 0.0
C9 C 0.96826 0.31638 0.30006 0.0
C10 C 0.9798 0.29922 0.2842 0.0
C11 C 1.00463 0.29903 0.29363 0.0
C12 C 0.98225 0.33294 0.3249 0.0
H13 H 0.03676 0.31566 0.32598 0.0
C14 C 0.07037 0.34437 0.38197 0.0
O15 O 0.05526 0.30995 0.45095 0.0
O16 O 0.03769 0.28346 0.40976 0.0
N17 N 0.98632 0.36358 0.36642 0.0
C18 C 0.97761 0.38069 0.38451 0.0
C19 C 0.953 0.38311 0.37817 0.0
C20 C 0.93762 0.36808 0.35325 0.0
C21 C 0.94703 0.35084 0.3348 0.0
C22 C 0.9718 0.3495 0.34206 0.0
H23 H 0.98929 0.39238 0.40368 0.0
O24 O 1.00222 0.31147 0.42715 0.0
O25 O 1.01239 0.32645 0.38875 0.0
O26 O 0.03854 0.36179 0.43886 0.0
O27 O 0.03137 0.38554 0.40351 0.0
C28 C 0.93271 0.33464 0.30968 0.0
C29 C 0.9433 0.31734 0.29241 0.0
H30 H 0.96972 0.28597 0.26487 0.0
H31 H 1.01364 0.28571 0.2816 0.0
H32 H 0.94586 0.39644 0.39254 0.0
H33 H 0.91857 0.36974 0.34861 0.0
H34 H 0.91345 0.33504 0.30365 0.0
H35 H 0.93208 0.30467 0.27339 0.0
Mn36 Mn 0.07727 0.76243 0.72941 0.0
Mn37 Mn 0.10937 0.81138 0.78346 0.0
C38 C 0.11901 0.7785 0.73269 0.0
C39 C 0.06255 0.71743 0.70659 0.0
C40 C 0.07904 0.82452 0.7326 0.0
O41 O 0.05331 0.76108 0.75682 0.0
O42 O 0.07573 0.79599 0.79032 0.0
C43 C 0.11395 0.77264 0.82434 0.0
N44 N 0.12474 0.79211 0.81014 0.0
C45 C 0.1652 0.78605 0.82858 0.0
C46 C 0.15454 0.76608 0.84355 0.0
C47 C 0.12881 0.75942 0.8415 0.0
C48 C 0.14949 0.79879 0.81213 0.0
H49 H 0.09416 0.76705 0.82238 0.0
C50 C 0.05591 0.77762 0.77988 0.0
O51 O 0.05265 0.73729 0.69884 0.0
O52 O 0.07911 0.72322 0.72951 0.0
N53 N 0.14211 0.82818 0.77987 0.0
C54 C 0.14952 0.84891 0.76522 0.0
C55 C 0.17483 0.85906 0.76622 0.0
C56 C 0.19218 0.84764 0.78207 0.0
C57 C 0.18405 0.82673 0.79739 0.0
C58 C 0.15869 0.81828 0.79652 0.0
H59 H 0.13623 0.85752 0.75276 0.0
O60 O 0.1052 0.7672 0.70862 0.0
O61 O 0.10802 0.77991 0.75434 0.0
O62 O 0.07064 0.79931 0.72134 0.0
O63 O 0.09457 0.83216 0.7558 0.0
C64 C 0.20007 0.81356 0.81302 0.0
C65 C 0.19073 0.79333 0.82876 0.0
H66 H 0.16591 0.7556 0.85653 0.0
H67 H 0.12042 0.74391 0.85286 0.0
H68 H 0.18092 0.87532 0.75447 0.0
H69 H 0.21167 0.85502 0.78228 0.0
H70 H 0.21954 0.81855 0.81253 0.0
H71 H 0.20328 0.7833 0.84067 0.0
Mn72 Mn 0.5353 0.82705 0.91525 0.0
Mn73 Mn 0.51775 0.86347 0.86506 0.0
C74 C 0.49409 0.82509 0.90063 0.0
C75 C 0.54745 0.78868 0.92914 0.0
C76 C 0.53987 0.88896 0.92609 0.0
O77 O 0.56559 0.8367 0.89762 0.0
O78 O 0.5501 0.85467 0.86032 0.0
C79 C 0.51034 0.82119 0.81412 0.0
N80 N 0.50127 0.83908 0.83091 0.0
C81 C 0.46145 0.82606 0.80034 0.0
C82 C 0.47041 0.80755 0.78276 0.0
C83 C 0.49496 0.80508 0.78971 0.0
C84 C 0.47763 0.84153 0.82446 0.0
H85 H 0.52916 0.8192 0.8193 0.0
C86 C 0.56709 0.84543 0.87431 0.0
O87 O 0.55416 0.81266 0.94513 0.0
O88 O 0.53366 0.78687 0.90462 0.0
N89 N 0.48629 0.87228 0.86668 0.0
C90 C 0.48014 0.8904 0.88627 0.0
C91 C 0.45621 0.89525 0.88236 0.0
C92 C 0.43886 0.88159 0.85829 0.0
C93 C 0.44558 0.86315 0.83834 0.0
C94 C 0.46979 0.85934 0.84322 0.0
H95 H 0.49335 0.90111 0.90478 0.0
O96 O 0.50165 0.81824 0.92482 0.0
O97 O 0.51079 0.83233 0.88571 0.0
O98 O 0.54054 0.86622 0.93475 0.0
O99 O 0.53359 0.89071 0.90001 0.0
C100 C 0.42909 0.84811 0.814 0.0
C101 C 0.43698 0.82946 0.79509 0.0
H102 H 0.45858 0.79503 0.76395 0.0
H103 H 0.502 0.79079 0.77628 0.0
H104 H 0.45114 0.90946 0.8979 0.0
H105 H 0.42035 0.88519 0.85549 0.0
H106 H 0.4102 0.85043 0.80983 0.0
H107 H 0.42403 0.81771 0.77668 0.0
Mn108 Mn 0.57859 0.25832 0.23936 0.0
Mn109 Mn 0.52688 0.25034 0.19122 0.0
C110 C 0.56306 0.21699 0.20843 0.0
C111 C 0.6213 0.27167 0.25046 0.0
C112 C 0.52725 0.25262 0.25398 0.0
O113 O 0.57583 0.29788 0.23729 0.0
O114 O 0.54293 0.29005 0.20189 0.0
C115 C 0.55037 0.26824 0.14422 0.0
N116 N 0.53529 0.24868 0.15458 0.0
C117 C 0.52703 0.21726 0.11078 0.0
C118 C 0.54235 0.23712 0.09957 0.0
C119 C 0.55414 0.26269 0.11641 0.0
C120 C 0.52414 0.22389 0.1387 0.0
H121 H 0.55952 0.28787 0.15715 0.0
C122 C 0.56049 0.30618 0.22006 0.0
O123 O 0.60813 0.2712 0.27019 0.0
O124 O 0.60969 0.26477 0.22463 0.0
N125 N 0.50972 0.21259 0.17902 0.0
C126 C 0.49626 0.19536 0.19335 0.0
C127 C 0.48301 0.16905 0.17943 0.0
C128 C 0.48358 0.16084 0.15089 0.0
C129 C 0.49749 0.17898 0.13655 0.0
C130 C 0.51016 0.20501 0.15146 0.0
H131 H 0.49552 0.20172 0.21519 0.0
O132 O 0.5773 0.21746 0.23228 0.0
O133 O 0.55761 0.24031 0.20471 0.0
O134 O 0.55024 0.25364 0.26153 0.0
O135 O 0.5169 0.2514 0.22838 0.0
C136 C 0.49968 0.17206 0.1082 0.0
C137 C 0.51464 0.19108 0.09542 0.0
H138 H 0.54528 0.23293 0.07811 0.0
H139 H 0.56609 0.27807 0.10795 0.0
H140 H 0.47234 0.15515 0.19065 0.0
H141 H 0.47349 0.14045 0.14029 0.0
H142 H 0.49029 0.15198 0.0962 0.0
H143 H 0.51652 0.18536 0.07377 0.0
Mn144 Mn 0.10452 0.81636 0.18241 0.0
Mn145 Mn 0.05709 0.79785 0.1266 0.0
C146 C 0.09113 0.76999 0.15952 0.0
C147 C 0.14732 0.82721 0.2041 0.0
C148 C 0.0491 0.80902 0.18704 0.0
O149 O 0.10281 0.85462 0.16895 0.0
O150 O 0.0707 0.83865 0.13274 0.0
C151 C 0.08575 0.81108 0.08198 0.0
N152 N 0.07023 0.79244 0.09288 0.0
C153 C 0.06877 0.75634 0.05453 0.0
C154 C 0.08463 0.7752 0.04282 0.0
C155 C 0.09317 0.80268 0.05663 0.0
C156 C 0.06194 0.76593 0.07979 0.0
H157 H 0.09246 0.83219 0.09256 0.0
C158 C 0.08728 0.8586 0.14809 0.0
O159 O 0.13028 0.8325 0.21773 0.0
O160 O 0.1399 0.81859 0.17726 0.0
N161 N 0.04235 0.75906 0.1179 0.0
C162 C 0.02757 0.74328 0.13226 0.0
C163 C 1.01765 0.71519 0.12137 0.0
C164 C 0.02288 0.70366 0.09576 0.0
C165 C 0.03782 0.72039 0.08115 0.0
C166 C 0.04699 0.74832 0.09289 0.0
H167 H 0.02353 0.752 0.15199 0.0
O168 O 0.1023 0.77599 0.18559 0.0
O169 O 0.08747 0.79116 0.14774 0.0
O170 O 0.07208 0.81558 0.19817 0.0
O171 O 0.04154 0.80207 0.16043 0.0
C172 C 0.04424 0.71037 0.05558 0.0
C173 C 0.05975 0.72832 0.04232 0.0
H174 H 0.09048 0.76878 0.02334 0.0
H175 H 0.1055 0.81733 0.04779 0.0
H176 H 1.00613 0.70241 0.13277 0.0
H177 H 1.01543 0.68191 0.08759 0.0
H178 H 0.03755 0.68884 0.04609 0.0
H179 H 0.06475 0.72031 0.02281 0.0
Mn180 Mn 0.51582 0.77289 0.47072 0.0
Mn181 Mn 0.51019 0.81111 0.41749 0.0
C182 C 0.47612 0.77546 0.4463 0.0
C183 C 0.52074 0.73065 0.48862 0.0
C184 C 0.52227 0.8373 0.47917 0.0
O185 O 0.55063 0.77867 0.45986 0.0
O186 O 0.54408 0.80453 0.42591 0.0
C187 C 0.51542 0.7677 0.37289 0.0
N188 N 0.50247 0.78596 0.38269 0.0
C189 C 0.47136 0.7727 0.34057 0.0
C190 C 0.48444 0.75388 0.32996 0.0
C191 C 0.50652 0.7513 0.34625 0.0
C192 C 0.48099 0.78825 0.3674 0.0
H193 H 0.5324 0.76564 0.38532 0.0
C194 C 0.55801 0.79249 0.44105 0.0
O195 O 0.52725 0.75479 0.50434 0.0
O196 O 0.51132 0.73094 0.46254 0.0
N197 N 0.47884 0.81971 0.40597 0.0
C198 C 0.46907 0.83978 0.41863 0.0
C199 C 0.44744 0.84576 0.40466 0.0
C200 C 0.43626 0.83136 0.37761 0.0
C201 C 0.44701 0.81136 0.36464 0.0
C202 C 0.46875 0.80655 0.37947 0.0
H203 H 0.47777 0.85125 0.43916 0.0
O204 O 0.47892 0.76833 0.47118 0.0
O205 O 0.49635 0.78041 0.43626 0.0
O206 O 0.5231 0.81471 0.48903 0.0
O207 O 0.51731 0.83827 0.4528 0.0
C208 C 0.43708 0.79613 0.33751 0.0
C209 C 0.44913 0.77663 0.32558 0.0
H210 H 0.4777 0.74129 0.30936 0.0
H211 H 0.51668 0.73675 0.33826 0.0
H212 H 0.4394 0.86142 0.41472 0.0
H213 H 0.41946 0.83585 0.36699 0.0
H214 H 0.42014 0.79918 0.32568 0.0
H215 H 0.44124 0.76491 0.30478 0.0
Mn216 Mn 0.59744 0.31389 0.68382 0.0
Mn217 Mn 0.55529 0.29615 0.62295 0.0
C218 C 0.58477 0.26719 0.66187 0.0
C219 C 0.63897 0.32672 0.70989 0.0
C220 C 0.54067 0.30699 0.68038 0.0
O221 O 0.5973 0.35212 0.67013 0.0
O222 O 0.56902 0.33713 0.63018 0.0
C223 C 0.59076 0.30911 0.5849 0.0
N224 N 0.57285 0.29066 0.59284 0.0
C225 C 0.57563 0.25452 0.55662 0.0
C226 C 0.59399 0.27319 0.54794 0.0
C227 C 0.60161 0.30059 0.56217 0.0
C228 C 0.56555 0.26419 0.57946 0.0
H229 H 0.59679 0.33013 0.5959 0.0
C230 C 0.58422 0.35665 0.64771 0.0
O231 O 0.6203 0.33157 0.72075 0.0
O232 O 0.6339 0.31641 0.68328 0.0
N233 N 0.53993 0.25765 0.61238 0.0
C234 C 0.52136 0.24254 0.62271 0.0
C235 C 0.51129 0.21481 0.61044 0.0
C236 C 0.52014 0.20302 0.58744 0.0
C237 C 0.53867 0.21924 0.57658 0.0
C238 C 0.54782 0.24684 0.5895 0.0
H239 H 0.51441 0.25152 0.64031 0.0
O240 O 0.59453 0.27395 0.68839 0.0
O241 O 0.58277 0.28809 0.64865 0.0
O242 O 0.56275 0.31289 0.69472 0.0
O243 O 0.53594 0.30063 0.65344 0.0
C244 C 0.54848 0.20908 0.5535 0.0
C245 C 0.56704 0.22668 0.54362 0.0
H246 H 0.60241 0.2667 0.53042 0.0
H247 H 0.61584 0.31508 0.55567 0.0
H248 H 0.49681 0.20251 0.61877 0.0
H249 H 0.51251 0.18154 0.57823 0.0
H250 H 0.54196 0.18775 0.54328 0.0
H251 H 0.57454 0.2186 0.52596 0.0
Mn252 Mn 1.00962 0.27215 0.9709 0.0
Mn253 Mn 1.00664 0.30977 0.91713 0.0
C254 C 0.97075 0.27536 0.94548 0.0
C255 C 1.0139 0.22988 0.98854 0.0
C256 C 1.01862 0.33624 0.97892 0.0
O257 O 0.04497 0.27788 0.96141 0.0
O258 O 0.03929 0.29999 0.92413 0.0
C259 C 1.00766 0.26525 0.87138 0.0
N260 N 0.99655 0.28496 0.88214 0.0
C261 C 0.96449 0.27463 0.84093 0.0
C262 C 0.97567 0.25432 0.82933 0.0
C263 C 0.99729 0.24953 0.84468 0.0
C264 C 0.97554 0.28944 0.86775 0.0
H265 H 0.02429 0.26154 0.88312 0.0
C266 C 0.05273 0.28903 0.94109 0.0
O267 O 1.01998 0.25382 1.00464 0.0
O268 O 1.00523 0.23041 0.9623 0.0
N269 N 0.97641 0.32131 0.90731 0.0
C270 C 0.96818 0.342 0.92129 0.0
C271 C 0.94702 0.34983 0.90855 0.0
C272 C 0.93473 0.3366 0.88143 0.0
C273 C 0.94381 0.31577 0.86722 0.0
C274 C 0.96513 0.30905 0.88086 0.0
H275 H 0.97772 0.35254 0.94197 0.0
O276 O 0.97265 0.2677 0.97013 0.0
O277 O 0.99136 0.27999 0.93611 0.0
O278 O 1.01603 0.31363 0.98926 0.0
O279 O 1.01648 0.33688 0.95246 0.0
C280 C 0.93254 0.30138 0.84007 0.0
C281 C 0.94277 0.28067 0.82702 0.0
H282 H 0.96778 0.24222 0.8087 0.0
H283 H 1.00597 0.23382 0.8359 0.0
H284 H 0.9402 0.36603 0.9196 0.0
H285 H 0.9183 0.34255 0.87177 0.0
H286 H 0.9159 0.30593 0.82912 0.0
H287 H 0.93381 0.26957 0.80626 0.0
Mn288 Mn 0.43351 0.06401 0.30138 0.0
Mn289 Mn 0.3911 0.05603 0.34579 0.0
C290 C 0.41106 1.01676 0.3086 0.0
C291 C 0.45484 0.06598 0.25633 0.0
C292 C 0.4472 0.07038 0.36966 0.0
O293 O 0.41951 0.10428 0.30402 0.0
O294 O 0.39339 0.09404 0.33369 0.0
C295 C 0.34763 0.05425 0.30189 0.0
N296 N 0.35867 0.04337 0.32343 0.0
C297 C 0.32317 1.00579 0.31767 0.0
C298 C 0.31099 1.01744 0.29644 0.0
C299 C 0.32339 0.04159 0.28829 0.0
C300 C 0.3473 1.01943 0.33057 0.0
H301 H 0.35738 0.07214 0.29477 0.0
C302 C 0.40248 0.11115 0.31815 0.0
O303 O 0.46481 0.07629 0.28217 0.0
O304 O 0.43138 0.05648 0.25553 0.0
N305 N 0.38493 0.02124 0.35927 0.0
C306 C 0.39986 1.01132 0.37846 0.0
C307 C 0.39063 0.98655 0.38787 0.0
C308 C 0.36611 0.97223 0.37764 0.0
C309 C 0.35101 0.98288 0.35813 0.0
C310 C 0.36109 1.00792 0.34984 0.0
H311 H 0.41873 0.02208 0.38654 0.0
O312 O 0.4322 0.02122 0.30045 0.0
O313 O 0.40371 0.03989 0.31262 0.0
O314 O 0.45293 0.07133 0.34485 0.0
O315 O 0.42449 0.06728 0.37233 0.0
C316 C 0.32646 0.96936 0.34623 0.0
C317 C 0.3126 0.98072 0.32587 0.0
H318 H 0.29236 1.0076 0.28574 0.0
H319 H 0.31439 0.05026 0.27134 0.0
H320 H 0.40245 0.97842 0.40288 0.0
H321 H 0.35917 0.95292 0.38465 0.0
H322 H 0.31823 0.9499 0.35212 0.0
H323 H 0.29395 0.96976 0.31633 0.0
Mn324 Mn 0.26488 0.19291 0.55589 0.0
Mn325 Mn 0.24922 0.13601 0.50603 0.0
C326 C 0.2229 0.16837 0.5424 0.0
C327 C 0.27697 0.2145 0.60411 0.0
C328 C 0.26558 0.19461 0.49205 0.0
O329 O 0.29778 0.17999 0.556 0.0
O330 O 0.28448 0.14046 0.5246 0.0
C331 C 0.25214 0.09255 0.54179 0.0
N332 N 0.23879 0.10374 0.52231 0.0
C333 C 0.20235 0.06842 0.52048 0.0
C334 C 0.21575 0.05643 0.5404 0.0
C335 C 0.24075 0.06856 0.5511 0.0
C336 C 0.21474 0.09219 0.51181 0.0
H337 H 0.27131 0.10192 0.55026 0.0
C338 C 0.30149 0.15767 0.54274 0.0
O339 O 0.2817 0.22767 0.58354 0.0
O340 O 0.26571 0.18869 0.59686 0.0
N341 N 0.21558 0.12938 0.48727 0.0
C342 C 0.20479 0.14472 0.46993 0.0
C343 C 0.17956 0.13599 0.45823 0.0
C344 C 0.16569 0.11163 0.46451 0.0
C345 C 0.17718 0.09619 0.48243 0.0
C346 C 0.20245 0.10575 0.49323 0.0
H347 H 0.21532 0.16358 0.46521 0.0
O348 O 0.22861 0.19452 0.55301 0.0
O349 O 0.2419 0.15815 0.53866 0.0
O350 O 0.26742 0.20735 0.51719 0.0
O351 O 0.25929 0.16814 0.48631 0.0
C352 C 0.16443 0.07207 0.49054 0.0
C353 C 0.17701 0.05818 0.50953 0.0
H354 H 0.20697 0.0381 0.54786 0.0
H355 H 0.25118 0.05953 0.56661 0.0
H356 H 0.17079 0.1481 0.44454 0.0
H357 H 0.14617 0.10514 0.4557 0.0
H358 H 0.14487 0.06427 0.48264 0.0
H359 H 0.16692 0.03993 0.51597 0.0
Mn360 Mn 0.15589 0.0905 0.84661 0.0
Mn361 Mn 0.20137 0.10316 0.90408 0.0
C362 C 0.18006 0.13568 0.86343 0.0
C363 C 0.14142 0.08061 0.79698 0.0
C364 C 0.14689 0.08697 0.90781 0.0
O365 O 0.16457 0.05263 0.84791 0.0
O366 O 0.19617 0.06419 0.88528 0.0
C367 C 0.24443 0.09721 0.87769 0.0
N368 N 0.23302 0.11303 0.89381 0.0
C369 C 0.26803 0.15154 0.90232 0.0
C370 C 0.28018 0.1356 0.88592 0.0
C371 C 0.2683 0.10834 0.87351 0.0
C372 C 0.24436 0.13923 0.90601 0.0
H373 H 0.23539 0.07626 0.86806 0.0
C374 C 0.18223 0.04682 0.86451 0.0
O375 O 0.12685 0.07489 0.81466 0.0
O376 O 0.16437 0.09135 0.80798 0.0
N377 N 0.208 0.14066 0.92273 0.0
C378 C 0.19302 0.1539 0.93608 0.0
C379 C 0.20163 0.18182 0.94839 0.0
C380 C 0.2255 0.19584 0.94679 0.0
C381 C 0.24055 0.18181 0.93285 0.0
C382 C 0.23103 0.15395 0.92112 0.0
H383 H 0.17458 0.14327 0.93713 0.0
O384 O 0.15763 0.13194 0.84967 0.0
O385 O 0.18649 0.11313 0.86877 0.0
O386 O 0.13877 0.08613 0.88151 0.0
O387 O 0.16991 0.09341 0.91825 0.0
C388 C 0.26441 0.19456 0.92959 0.0
C389 C 0.27818 0.1794 0.91443 0.0
H390 H 0.29847 0.14422 0.88238 0.0
H391 H 0.27749 0.09597 0.86068 0.0
H392 H 0.18985 0.19256 0.95895 0.0
H393 H 0.23199 0.21745 0.95611 0.0
H394 H 0.27223 0.21611 0.93835 0.0
H395 H 0.29636 0.18954 0.91174 0.0
Mn396 Mn 0.25594 0.88775 1.00917 0.0
Mn397 Mn 0.26609 0.93596 0.96733 0.0
C398 C 0.29489 0.90277 1.00014 0.0
C399 C 0.2538 0.87653 0.05344 0.0
C400 C 0.24073 0.87573 0.94573 0.0
O401 O 0.22584 0.90443 1.00794 0.0
O402 O 0.23763 0.9403 0.98548 0.0
C403 C 0.281 0.98659 1.0105 0.0
N404 N 0.28558 0.97041 0.98815 0.0
C405 C 0.32313 1.00315 0.98764 0.0
C406 C 0.31824 0.02067 1.00989 0.0
C407 C 0.29723 1.01218 0.02159 0.0
C408 C 0.30615 0.97797 0.97731 0.0
H409 H 0.2653 0.97982 0.02006 0.0
C410 C 0.22348 0.92736 1.0001 0.0
O411 O 0.24239 0.85921 0.03087 0.0
O412 O 0.26544 0.90074 0.05017 0.0
N413 N 0.29401 0.9344 0.94955 0.0
C414 C 0.29799 0.91341 0.93136 0.0
C415 C 0.31971 0.91723 0.92009 0.0
C416 C 0.3369 0.94267 0.92723 0.0
C417 C 0.33254 0.96388 0.94617 0.0
C418 C 0.3107 0.95882 0.95697 0.0
H419 H 0.28487 0.89379 0.92574 0.0
O420 O 0.28919 0.8792 1.00879 0.0
O421 O 0.27778 0.91662 0.99727 0.0
O422 O 0.24378 0.86717 0.96927 0.0
O423 O 0.24657 0.90127 0.94322 0.0
C424 C 0.34946 0.98948 0.95552 0.0
C425 C 0.3447 1.00915 0.97616 0.0
H426 H 0.33088 0.04027 0.01872 0.0
H427 H 0.29367 0.02524 0.03927 0.0
H428 H 0.32335 0.90053 0.90613 0.0
H429 H 0.35367 0.94545 0.91859 0.0
H430 H 0.36651 0.99396 0.94755 0.0
H431 H 0.35817 0.02844 0.98376 0.0
Mn432 Mn 0.34717 0.41412 0.10771 0.0
Mn433 Mn 0.35664 0.46603 0.06833 0.0
C434 C 0.38819 0.4383 0.10517 0.0
C435 C 0.34015 0.39563 0.15057 0.0
C436 C 0.34122 0.40506 0.04201 0.0
O437 O 0.31306 0.42553 0.10191 0.0
O438 O 0.32285 0.46015 0.07729 0.0
C439 C 0.35466 0.51216 0.11193 0.0
N440 N 0.36662 0.50096 0.09273 0.0
C441 C 0.3993 0.54195 0.10204 0.0
C442 C 0.38722 0.55401 0.12174 0.0
C443 C 0.36487 0.53899 0.12681 0.0
C444 C 0.38831 0.51508 0.08799 0.0
H445 H 0.33747 0.50072 0.11588 0.0
C446 C 0.30763 0.44547 0.08951 0.0
O447 O 0.33383 0.38082 0.12571 0.0
O448 O 0.35038 0.42144 0.15078 0.0
N449 N 0.38846 0.47498 0.05808 0.0
C450 C 0.39839 0.45993 0.03945 0.0
C451 C 0.42082 0.47191 0.0321 0.0
C452 C 0.43277 0.4993 0.04389 0.0
C453 C 0.4222 0.51443 0.063 0.0
C454 C 0.39969 0.50147 0.06931 0.0
H455 H 0.38942 0.43886 0.03051 0.0
O456 O 0.38407 0.41378 0.11223 0.0
O457 O 0.36845 0.44792 0.09995 0.0
O458 O 0.3404 0.39575 0.06535 0.0
O459 O 0.34705 0.43092 0.04086 0.0
C460 C 0.43332 0.54171 0.07638 0.0
C461 C 0.42195 0.5554 0.09603 0.0
H462 H 0.39502 0.57471 0.13323 0.0
H463 H 0.3555 0.5481 0.14209 0.0
H464 H 0.42896 0.46 0.01752 0.0
H465 H 0.45021 0.50838 0.03842 0.0
H466 H 0.4508 0.55219 0.07207 0.0
H467 H 0.43087 0.5762 0.10652 0.0
Mn468 Mn 0.8738 0.20375 0.12555 0.0
Mn469 Mn 0.83921 0.14526 0.08446 0.0
C470 C 0.83617 0.18318 0.13532 0.0
C471 C 0.90086 0.23068 0.16449 0.0
C472 C 0.83954 0.20102 0.06898 0.0
O473 O 0.89957 0.19085 0.10528 0.0
O474 O 0.87249 0.15629 0.07551 0.0
C475 C 0.8702 0.1097 0.10935 0.0
N476 N 0.8476 0.11547 0.1022 0.0
C477 C 0.82789 0.07547 0.11973 0.0
C478 C 0.85093 0.06907 0.12721 0.0
C479 C 0.87219 0.08633 0.12209 0.0
C480 C 0.82711 0.09932 0.10758 0.0
H481 H 0.88659 0.12283 0.10539 0.0
C482 C 0.89391 0.17223 0.08345 0.0
O483 O 0.89608 0.2402 0.14114 0.0
O484 O 0.89274 0.20426 0.1637 0.0
N485 N 0.80629 0.13099 0.08951 0.0
C486 C 0.78528 0.13856 0.07855 0.0
C487 C 0.76221 0.12239 0.0801 0.0
C488 C 0.76092 0.09834 0.09246 0.0
C489 C 0.78272 0.09041 0.10271 0.0
C490 C 0.80517 0.10712 0.10016 0.0
H491 H 0.7861 0.15675 0.06857 0.0
O492 O 0.84536 0.20936 0.1435 0.0
O493 O 0.84906 0.1693 0.1215 0.0
O494 O 0.85731 0.2132 0.08891 0.0
O495 O 0.82939 0.17532 0.06585 0.0
C496 C 0.78304 0.06631 0.11488 0.0
C497 C 0.80564 0.05899 0.12365 0.0
H498 H 0.85252 0.05092 0.13681 0.0
H499 H 0.89005 0.08156 0.12782 0.0
H500 H 0.74546 0.12847 0.0718 0.0
H501 H 0.7431 0.08603 0.09378 0.0
H502 H 0.766 0.05318 0.11744 0.0
H503 H 0.80565 0.04041 0.13298 0.0
Mn504 Mn 0.18046 0.53603 0.32866 0.0
Mn505 Mn 0.23007 0.54973 0.38194 0.0
C506 C 0.2064 0.58392 0.34293 0.0
C507 C 0.15548 0.52854 0.27832 0.0
C508 C 0.17633 0.53866 0.39516 0.0
O509 O 0.19347 0.49603 0.32807 0.0
O510 O 0.2256 0.50864 0.36458 0.0
C511 C 0.27023 0.54307 0.35047 0.0
N512 N 0.26018 0.55921 0.36799 0.0
C513 C 0.29387 0.59829 0.37083 0.0
C514 C 0.30455 0.58198 0.35294 0.0
C515 C 0.29267 0.55426 0.34272 0.0
C516 C 0.27156 0.58593 0.37806 0.0
H517 H 0.26122 0.52183 0.34238 0.0
C518 C 0.21252 0.48996 0.34396 0.0
O519 O 0.1469 0.5219 0.3003 0.0
O520 O 0.17935 0.53694 0.28453 0.0
N521 N 0.23767 0.58779 0.39965 0.0
C522 C 0.22422 0.60145 0.41514 0.0
C523 C 0.23327 0.62964 0.42615 0.0
C524 C 0.25599 0.64361 0.4211 0.0
C525 C 0.26949 0.62923 0.40506 0.0
C526 C 0.25967 0.60104 0.39483 0.0
H527 H 0.20662 0.59108 0.41897 0.0
O528 O 0.18308 0.57875 0.33218 0.0
O529 O 0.21332 0.56088 0.34694 0.0
O530 O 0.16618 0.53539 0.36865 0.0
O531 O 0.19997 0.54188 0.40119 0.0
C532 C 0.29203 0.64195 0.39831 0.0
C533 C 0.30423 0.62649 0.38124 0.0
H534 H 0.32176 0.59061 0.34671 0.0
H535 H 0.30074 0.54155 0.32879 0.0
H536 H 0.22266 0.64064 0.43837 0.0
H537 H 0.26277 0.66543 0.42938 0.0
H538 H 0.29999 0.66373 0.40584 0.0
H539 H 0.32141 0.63659 0.37591 0.0
Mn540 Mn 0.84662 0.91235 0.60363 0.0
Mn541 Mn 0.85513 0.96338 0.56308 0.0
C542 C 0.88747 0.93537 0.59948 0.0
C543 C 0.84058 0.89468 0.64714 0.0
C544 C 0.83942 0.90213 0.53778 0.0
O545 O 0.81261 0.92383 0.59861 0.0
O546 O 0.82158 0.95779 0.57304 0.0
C547 C 0.85394 1.01024 0.60626 0.0
N548 N 0.86542 0.9987 0.58674 0.0
C549 C 0.89724 0.04024 0.59342 0.0
C550 C 0.88568 0.05263 0.61349 0.0
C551 C 0.86402 0.0375 0.62005 0.0
C552 C 0.88649 1.01291 0.58062 0.0
H553 H 0.83719 0.99875 0.61122 0.0
C554 C 0.80674 0.94337 0.58591 0.0
O555 O 0.8336 0.87956 0.62246 0.0
O556 O 0.85088 0.92035 0.64679 0.0
N557 N 0.8864 0.97223 0.55153 0.0
C558 C 0.89599 0.95683 0.5328 0.0
C559 C 0.91787 0.96877 0.52428 0.0
C560 C 0.92952 0.99653 0.53481 0.0
C561 C 0.91923 1.01206 0.55388 0.0
C562 C 0.89738 0.99903 0.5616 0.0
H563 H 0.88722 0.93549 0.52478 0.0
O564 O 0.883 0.91106 0.60695 0.0
O565 O 0.86805 0.94581 0.5948 0.0
O566 O 0.83893 0.89324 0.56137 0.0
O567 O 0.84517 0.92791 0.53621 0.0
C568 C 0.92999 0.03983 0.56587 0.0
C569 C 0.91908 0.05386 0.58575 0.0
H570 H 0.89333 0.07369 0.62407 0.0
H571 H 0.85504 0.04688 0.63559 0.0
H572 H 0.92576 0.95658 0.50967 0.0
H573 H 0.94648 1.00562 0.52833 0.0
H574 H 0.94692 0.05041 0.56037 0.0
H575 H 0.92777 0.07504 0.59522 0.0
Mn576 Mn 0.95764 0.99894 0.29372 0.0
Mn577 Mn 0.91127 0.99895 0.33075 0.0
C578 C 0.9315 0.9565 0.29716 0.0
C579 C 0.97512 1.00735 0.25288 0.0
C580 C 0.96551 1.01112 0.35817 0.0
O581 O 0.95326 0.03912 0.29844 0.0
O582 O 0.91705 0.03307 0.31389 0.0
C583 C 0.86874 0.99615 0.28539 0.0
N584 N 0.87932 0.98581 0.30762 0.0
C585 C 0.84153 0.95295 0.3068 0.0
C586 C 0.8302 0.96327 0.28392 0.0
C587 C 0.84393 0.98482 0.27303 0.0
C588 C 0.86644 0.9647 0.31787 0.0
H589 H 0.87914 1.01299 0.2773 0.0
C590 C 0.9342 0.04743 0.30398 0.0
O591 O 0.98815 1.01071 0.27793 0.0
O592 O 0.95158 0.99737 0.25083 0.0
N593 N 0.9033 0.9668 0.34817 0.0
C594 C 0.9172 0.95841 0.36957 0.0
C595 C 0.90641 0.93648 0.38227 0.0
C596 C 0.88132 0.92377 0.37329 0.0
C597 C 0.86727 0.93298 0.35154 0.0
C598 C 0.87909 0.95476 0.33949 0.0
H599 H 0.93635 0.96843 0.37704 0.0
O600 O 0.95285 0.95707 0.28981 0.0
O601 O 0.92586 0.98042 0.30138 0.0
O602 O 0.97338 1.00348 0.33587 0.0
O603 O 0.94311 1.01275 0.35779 0.0
C604 C 0.84203 0.92133 0.34126 0.0
C605 C 0.82917 0.93129 0.31888 0.0
H606 H 0.81102 0.95472 0.27446 0.0
H607 H 0.83533 0.99288 0.25535 0.0
H608 H 0.91735 0.92955 0.39913 0.0
H609 H 0.87304 0.90694 0.38321 0.0
H610 H 0.83241 0.90444 0.35014 0.0
H611 H 0.80988 0.92185 0.31083 0.0
Mn612 Mn 0.37431 0.69408 0.63158 0.0
Mn613 Mn 0.34212 0.63715 0.58637 0.0
C614 C 0.33568 0.67227 0.6371 0.0
C615 C 0.39788 0.71959 0.67334 0.0
C616 C 0.34369 0.69392 0.57342 0.0
O617 O 0.40191 0.68254 0.61371 0.0
O618 O 0.37634 0.64946 0.58067 0.0
C619 C 0.37184 0.60027 0.61095 0.0
N620 N 0.34947 0.60625 0.60286 0.0
C621 C 0.32842 0.5647 0.61677 0.0
C622 C 0.35123 0.55808 0.62519 0.0
C623 C 0.37303 0.576 0.62235 0.0
C624 C 0.32842 0.58939 0.60595 0.0
H625 H 0.38866 0.61388 0.60874 0.0
C626 C 0.39753 0.66522 0.59092 0.0
O627 O 0.39542 0.73022 0.65034 0.0
O628 O 0.39025 0.6929 0.67075 0.0
N629 N 0.30854 0.62202 0.58842 0.0
C630 C 0.28797 0.63023 0.57713 0.0
C631 C 0.26455 0.61382 0.57684 0.0
C632 C 0.26247 0.58887 0.58766 0.0
C633 C 0.28387 0.58033 0.59826 0.0
C634 C 0.30671 0.5974 0.59767 0.0
H635 H 0.28942 0.64918 0.56839 0.0
O636 O 0.34417 0.69836 0.64652 0.0
O637 O 0.34972 0.65927 0.62429 0.0
O638 O 0.36057 0.70532 0.59457 0.0
O639 O 0.33332 0.66823 0.56884 0.0
C640 C 0.28342 0.55539 0.60905 0.0
C641 C 0.30569 0.54769 0.61853 0.0
H642 H 0.35221 0.53927 0.63379 0.0
H643 H 0.39071 0.57104 0.62882 0.0
H644 H 0.24812 0.62041 0.56832 0.0
H645 H 0.24437 0.57636 0.58758 0.0
H646 H 0.26603 0.54193 0.61006 0.0
H647 H 0.30512 0.52847 0.62679 0.0
Mn648 Mn 0.45981 0.49805 0.79225 0.0
Mn649 Mn 0.41563 0.5007 0.83259 0.0
C650 C 0.43279 0.4568 0.79738 0.0
C651 C 0.47419 0.50323 0.74874 0.0
C652 C 0.47011 0.50903 0.8576 0.0
O653 O 0.45705 0.53869 0.79651 0.0
O654 O 0.42444 0.53608 0.81854 0.0
C655 C 0.37432 0.50439 0.78853 0.0
N656 N 0.38349 0.49172 0.80967 0.0
C657 C 0.34387 0.4616 0.80714 0.0
C658 C 0.33396 0.47435 0.78536 0.0
C659 C 0.34929 0.49571 0.77589 0.0
C660 C 0.36904 0.47078 0.81854 0.0
H661 H 0.38601 0.52109 0.78151 0.0
C662 C 0.44059 0.54922 0.80638 0.0
O663 O 0.48901 0.50741 0.77283 0.0
O664 O 0.45094 0.49492 0.74958 0.0
N665 N 0.40485 0.468 0.8481 0.0
C666 C 0.4174 0.45752 0.86894 0.0
C667 C 0.4048 0.43579 0.88057 0.0
C668 C 0.37934 0.42546 0.87113 0.0
C669 C 0.36672 0.43694 0.85008 0.0
C670 C 0.38028 0.45845 0.83917 0.0
H671 H 0.43685 0.46574 0.87673 0.0
O672 O 0.45359 0.45616 0.7891 0.0
O673 O 0.42825 0.48127 0.80198 0.0
O674 O 0.47746 0.50325 0.83433 0.0
O675 O 0.44778 0.50998 0.85869 0.0
C676 C 0.34122 0.42783 0.83944 0.0
C677 C 0.32982 0.44008 0.81791 0.0
H678 H 0.31462 0.46786 0.77571 0.0
H679 H 0.34178 0.50562 0.75907 0.0
H680 H 0.41464 0.42715 0.89693 0.0
H681 H 0.36968 0.40872 0.88015 0.0
H682 H 0.33027 0.41116 0.8474 0.0
H683 H 0.31029 0.4326 0.80959 0.0
Mn684 Mn 0.68222 0.03725 0.82743 0.0
Mn685 Mn 0.73194 0.0516 0.88051 0.0
C686 C 0.70777 0.08523 0.84131 0.0
C687 C 0.66007 0.03049 0.77609 0.0
C688 C 0.67811 0.04055 0.89382 0.0
O689 O 0.69471 0.99707 0.82788 0.0
O690 O 0.72768 1.0106 0.86326 0.0
C691 C 0.7718 0.04498 0.84856 0.0
N692 N 0.76194 0.06107 0.86637 0.0
C693 C 0.79561 0.10013 0.86914 0.0
C694 C 0.80621 0.08384 0.85113 0.0
C695 C 0.79423 0.05617 0.84077 0.0
C696 C 0.77335 0.08778 0.87646 0.0
H697 H 0.76264 0.02379 0.84018 0.0
C698 C 0.71436 0.99156 0.84316 0.0
O699 O 0.64938 0.02395 0.79681 0.0
O700 O 0.68383 0.03797 0.78439 0.0
N701 N 0.73945 0.08969 0.89805 0.0
C702 C 0.72596 0.1034 0.91343 0.0
C703 C 0.73495 0.13163 0.92429 0.0
C704 C 0.75768 0.14557 0.91922 0.0
C705 C 0.77122 0.13114 0.90331 0.0
C706 C 0.76145 0.10292 0.89321 0.0
H707 H 0.70836 0.09304 0.91726 0.0
O708 O 0.68452 0.0798 0.83033 0.0
O709 O 0.71488 0.06238 0.84568 0.0
O710 O 0.66775 0.0371 0.86732 0.0
O711 O 0.70178 0.04372 0.89974 0.0
C712 C 0.79377 0.14384 0.89654 0.0
C713 C 0.80597 0.12834 0.87951 0.0
H714 H 0.82339 0.09247 0.84483 0.0
H715 H 0.80219 0.04352 0.82666 0.0
H716 H 0.72431 0.14266 0.93641 0.0
H717 H 0.76442 0.16742 0.9274 0.0
H718 H 0.80171 0.16563 0.90399 0.0
H719 H 0.82313 0.13844 0.87412 0.0
Mn720 Mn 0.77046 0.6871 0.05271 0.0
Mn721 Mn 0.75366 0.63492 0.99744 0.0
C722 C 0.72861 0.66201 0.03886 0.0
C723 C 0.78011 0.70327 0.10259 0.0
C724 C 0.7692 0.69553 0.98967 0.0
O725 O 0.80348 0.67449 0.05066 0.0
O726 O 0.78936 0.63958 1.01371 0.0
C727 C 0.75996 0.58705 0.02588 0.0
N728 N 0.74517 0.60008 1.01001 0.0
C729 C 0.70997 0.5626 1.00639 0.0
C730 C 0.72485 0.5488 0.02267 0.0
C731 C 0.74995 0.56107 0.03243 0.0
C732 C 0.72104 0.58828 1.00019 0.0
H733 H 0.77925 0.59643 0.03357 0.0
C734 C 0.80669 0.65423 0.03345 0.0
O735 O 0.78579 0.71949 0.08459 0.0
O736 O 0.77056 0.67766 0.09178 0.0
N737 N 0.71938 0.62853 0.98122 0.0
C738 C 0.70713 0.64564 0.96799 0.0
C739 C 0.68158 0.63707 0.95818 0.0
C740 C 0.66887 0.61108 0.9622 0.0
C741 C 0.68184 0.59391 0.97606 0.0
C742 C 0.70734 0.60346 0.98518 0.0
H743 H 0.71674 0.66581 0.96524 0.0
O744 O 0.73393 0.68763 0.05109 0.0
O745 O 0.74772 0.65333 0.03279 0.0
O746 O 0.77315 0.70582 0.01604 0.0
O747 O 0.7616 0.66951 0.98116 0.0
C748 C 0.67036 0.56799 0.98179 0.0
C749 C 0.68443 0.5523 0.99685 0.0
H750 H 0.71713 0.52892 0.02808 0.0
H751 H 0.76153 0.5506 0.04511 0.0
H752 H 0.67166 0.65055 0.94773 0.0
H753 H 0.64911 0.60467 0.95486 0.0
H754 H 0.65067 0.5601 0.97505 0.0
H755 H 0.67534 0.53258 1.00146 0.0
Mn756 Mn 0.93361 0.56565 0.80355 0.0
Mn757 Mn 0.88903 0.56092 0.84532 0.0
C758 C 0.90898 0.5195 0.80983 0.0
C759 C 0.95172 0.56596 0.75667 0.0
C760 C 0.94488 0.57276 0.87188 0.0
O761 O 0.92227 0.60697 0.80648 0.0
O762 O 0.8928 0.59884 0.83276 0.0
C763 C 0.84602 0.56138 0.80175 0.0
N764 N 0.85689 0.54906 0.8222 0.0
C765 C 0.82077 0.5121 0.8153 0.0
C766 C 0.80909 0.52463 0.7945 0.0
C767 C 0.82182 0.54931 0.78761 0.0
C768 C 0.84493 0.52508 0.82869 0.0
H769 H 0.85574 0.58019 0.79612 0.0
C770 C 0.90449 0.61507 0.81828 0.0
O771 O 0.9642 0.575 0.78196 0.0
O772 O 0.92844 0.55878 0.75814 0.0
N773 N 0.8816 0.52639 0.85904 0.0
C774 C 0.89569 0.51624 0.87887 0.0
C775 C 0.88572 0.49143 0.88778 0.0
C776 C 0.86132 0.47736 0.87642 0.0
C777 C 0.84706 0.4883 0.85633 0.0
C778 C 0.85789 0.51327 0.84845 0.0
H779 H 0.91443 0.52687 0.88787 0.0
O780 O 0.93028 0.52273 0.80209 0.0
O781 O 0.90253 0.5433 0.81365 0.0
O782 O 0.95233 0.57178 0.84777 0.0
O783 O 0.92192 0.57181 0.87247 0.0
C784 C 0.82261 0.47517 0.84353 0.0
C785 C 0.80951 0.48701 0.82295 0.0
H786 H 0.79045 0.51535 0.78348 0.0
H787 H 0.81302 0.55897 0.77138 0.0
H788 H 0.89686 0.48312 0.90329 0.0
H789 H 0.85379 0.45806 0.88312 0.0
H790 H 0.81382 0.45577 0.84909 0.0
H791 H 0.79085 0.47651 0.81296 0.0
Mn792 Mn 0.75644 0.39272 0.50817 0.0
Mn793 Mn 0.75448 0.44262 0.46759 0.0
C794 C 0.79187 0.41546 0.49587 0.0
C795 C 0.76015 0.37735 0.55109 0.0
C796 C 0.73981 0.38146 0.44436 0.0
O797 O 0.72389 0.4024 0.51198 0.0
O798 O 0.72476 0.43623 0.48538 0.0
C799 C 0.75836 0.48987 0.51275 0.0
N800 N 0.76696 0.47819 0.49057 0.0
C801 C 0.79943 0.51875 0.49468 0.0
C802 C 0.79072 0.53129 0.51733 0.0
C803 C 0.77014 0.51674 0.52645 0.0
C804 C 0.78684 0.49197 0.48173 0.0
H805 H 0.74272 0.47878 0.52008 0.0
C806 C 0.71499 0.42156 0.50229 0.0
O807 O 0.74888 0.36081 0.52803 0.0
O808 O 0.76856 0.40314 0.54941 0.0
N809 N 0.78258 0.45163 0.44998 0.0
C810 C 0.78979 0.43595 0.42919 0.0
C811 C 0.81088 0.44702 0.41875 0.0
C812 C 0.82407 0.47423 0.42931 0.0
C813 C 0.81616 0.4901 0.45045 0.0
C814 C 0.79504 0.47795 0.46015 0.0
H815 H 0.77984 0.41499 0.42097 0.0
O816 O 0.79052 0.3911 0.50301 0.0
O817 O 0.77252 0.42588 0.4962 0.0
O818 O 0.74317 0.37335 0.46808 0.0
O819 O 0.7424 0.40693 0.44171 0.0
C820 C 0.8288 0.51723 0.46279 0.0
C821 C 0.82042 0.53156 0.48487 0.0
H822 H 0.79986 0.55194 0.52808 0.0
H823 H 0.76342 0.52619 0.54407 0.0
H824 H 0.81714 0.43448 0.40285 0.0
H825 H 0.84045 0.48259 0.42134 0.0
H826 H 0.84525 0.52709 0.4558 0.0
H827 H 0.83054 0.55223 0.49451 0.0
Mn828 Mn 0.66087 0.58173 0.34668 0.0
Mn829 Mn 0.70775 0.59855 0.40317 0.0
C830 C 0.68458 0.62762 0.36018 0.0
C831 C 0.64338 0.56796 0.29768 0.0
C832 C 0.65398 0.58256 0.40939 0.0
O833 O 0.67071 0.54455 0.35018 0.0
O834 O 0.7024 0.55867 0.38749 0.0
C835 C 0.74989 0.59035 0.37599 0.0
N836 N 0.73888 0.60724 0.39145 0.0
C837 C 0.77395 0.64534 0.39736 0.0
C838 C 0.78569 0.62832 0.3816 0.0
C839 C 0.77357 0.60074 0.37081 0.0
C840 C 0.75043 0.63378 0.40204 0.0
H841 H 0.74067 0.56912 0.3677 0.0
C842 C 0.6884 0.54004 0.36785 0.0
O843 O 0.63063 0.56376 0.31733 0.0
O844 O 0.66657 0.57969 0.30628 0.0
N845 N 0.71455 0.63688 0.41915 0.0
C846 C 0.69987 0.65106 0.43195 0.0
C847 C 0.70867 0.67939 0.44252 0.0
C848 C 0.73244 0.69278 0.43986 0.0
C849 C 0.74718 0.67774 0.42656 0.0
C850 C 0.73745 0.64955 0.41651 0.0
H851 H 0.68154 0.64087 0.43387 0.0
O852 O 0.66178 0.6228 0.34716 0.0
O853 O 0.69182 0.60583 0.36674 0.0
O854 O 0.64531 0.57966 0.38295 0.0
O855 O 0.67708 0.59016 0.41911 0.0
C856 C 0.77093 0.68974 0.42235 0.0
C857 C 0.78436 0.67352 0.40789 0.0
H858 H 0.80386 0.63633 0.37732 0.0
H859 H 0.78247 0.58752 0.3585 0.0
H860 H 0.69712 0.6909 0.4526 0.0
H861 H 0.73908 0.71468 0.44786 0.0
H862 H 0.77891 0.71152 0.42983 0.0
H863 H 0.80245 0.68308 0.40443 0.0
Tb864 Tb 0.0305 0.03244 0.05322 0.0
Tb865 Tb 0.07248 0.06271 0.09485 0.0
C866 C 0.98731 1.01648 0.02586 0.0
C867 C 0.97264 0.03166 1.00868 0.0
C868 C 0.94801 0.02998 1.01137 0.0
C869 C 0.93656 0.05131 1.00487 0.0
C870 C 0.94974 0.07449 0.99581 0.0
C871 C 0.97311 0.07431 0.98953 0.0
C872 C 0.98459 0.05295 0.99592 0.0
C873 C 0.07094 0.04363 0.03069 0.0
C874 C 0.04123 0.09958 0.06421 0.0
C875 C 0.11714 0.07908 0.11711 0.0
C876 C 0.1358 0.06547 0.10746 0.0
C877 C 0.12844 0.04692 0.08204 0.0
C878 C 0.14439 0.03222 0.07191 0.0
C879 C 0.16832 0.03586 0.08686 0.0
C880 C 0.17633 0.05482 0.11213 0.0
C881 C 0.1599 0.06952 0.12263 0.0
C882 C 0.03243 0.05173 0.11776 0.0
C883 C 0.06118 0.9957 0.08402 0.0
O884 O 0.99263 0.027 0.05268 0.0
O885 O 1.00642 1.01031 0.01645 0.0
O886 O 0.06457 0.05893 0.04973 0.0
O887 O 0.05374 0.02118 0.02328 0.0
O888 O 0.02722 0.07567 0.05037 0.0
O889 O 0.06034 0.09993 0.08405 0.0
O890 O 0.10618 0.09097 0.09802 0.0
O891 O 0.10117 0.06364 0.12863 0.0
O892 O 0.03847 0.03617 0.09857 0.0
O893 O 0.04988 0.07406 0.12507 0.0
O894 O 0.07794 1.01927 0.09264 0.0
O895 O 0.0394 0.99608 0.06949 0.0
H896 H 0.93857 1.01383 0.02131 0.0
H897 H 0.91849 0.0512 1.01001 0.0
H898 H 0.98324 0.09185 0.98211 0.0
H899 H 1.00364 0.05463 0.99361 0.0
H900 H 0.11016 0.04372 0.06983 0.0
H901 H 0.13805 1.01806 0.05213 0.0
H902 H 0.19497 0.05794 0.12371 0.0
H903 H 0.16589 0.08379 0.14232 0.0
Tb904 Tb 0.3159 0.78957 0.30747 0.0
Tb905 Tb 0.30218 0.81439 0.35435 0.0
C906 C 0.32165 0.77613 0.25775 0.0
C907 C 0.31433 0.78753 0.2324 0.0
C908 C 0.30317 0.8102 0.23455 0.0
C909 C 0.29249 0.81873 0.21039 0.0
C910 C 0.29301 0.80489 0.18361 0.0
C911 C 0.3049 0.78264 0.18154 0.0
C912 C 0.31539 0.77392 0.20585 0.0
C913 C 0.34596 0.78475 0.35415 0.0
C914 C 0.33618 0.85697 0.32579 0.0
C915 C 0.29206 0.82866 0.40199 0.0
C916 C 0.28496 0.81365 0.42451 0.0
C917 C 0.27209 0.78588 0.41831 0.0
C918 C 0.27143 0.76952 0.4395 0.0
C919 C 0.2834 0.78092 0.46723 0.0
C920 C 0.29349 0.80959 0.47388 0.0
C921 C 0.29451 0.82578 0.45257 0.0
C922 C 0.27386 0.8209 0.30705 0.0
C923 C 0.28335 0.74634 0.33714 0.0
O924 O 0.30301 0.76443 0.26819 0.0
O925 O 0.33884 0.79241 0.2772 0.0
O926 O 0.33727 0.80563 0.34952 0.0
O927 O 0.33894 0.76664 0.33146 0.0
O928 O 0.33027 0.83532 0.30483 0.0
O929 O 0.32891 0.85255 0.34986 0.0
O930 O 0.31435 0.82862 0.39762 0.0
O931 O 0.27613 0.82367 0.37845 0.0
O932 O 0.28083 0.79901 0.31217 0.0
O933 O 0.28365 0.8397 0.32879 0.0
O934 O 0.28627 0.76908 0.35619 0.0
O935 O 0.29315 0.7495 0.31433 0.0
H936 H 0.30178 0.82058 0.25494 0.0
H937 H 0.28314 0.83561 0.21276 0.0
H938 H 0.30595 0.77187 0.16117 0.0
H939 H 0.32373 0.75618 0.20393 0.0
H940 H 0.26401 0.77637 0.39687 0.0
H941 H 0.26341 0.74755 0.43368 0.0
H942 H 0.30228 0.81906 0.49524 0.0
H943 H 0.30425 0.8473 0.45776 0.0
Tb944 Tb 0.57783 0.05141 0.56182 0.0
Tb945 Tb 0.52903 0.05054 0.58457 0.0
C946 C 0.62153 0.04715 0.55758 0.0
C947 C 0.64247 0.03341 0.56641 0.0
C948 C 0.64147 1.00515 0.55715 0.0
C949 C 0.6628 0.99408 0.56167 0.0
C950 C 0.68587 1.01098 0.5752 0.0
C951 C 0.68647 0.03886 0.58549 0.0
C952 C 0.66524 0.04982 0.58117 0.0
C953 C 0.54096 0.05924 0.51968 0.0
C954 C 0.53938 0.9943 0.55642 0.0
C955 C 0.48544 0.0552 0.58853 0.0
C956 C 0.46449 0.06784 0.57745 0.0
C957 C 0.44156 0.05048 0.56468 0.0
C958 C 0.42068 0.06132 0.5572 0.0
C959 C 0.42184 0.09007 0.56217 0.0
C960 C 0.44493 0.10755 0.57476 0.0
C961 C 0.4659 0.09663 0.58231 0.0
C962 C 0.56422 0.04158 0.62741 0.0
C963 C 0.56677 0.10841 0.58771 0.0
O964 O 0.61638 0.06568 0.57596 0.0
O965 O 0.60159 0.03241 0.54061 0.0
O966 O 0.54089 0.05592 0.5454 0.0
O967 O 0.56372 0.05892 0.51776 0.0
O968 O 0.56292 1.00698 0.55997 0.0
O969 O 0.52232 1.00797 0.56213 0.0
O970 O 0.49048 0.03485 0.57234 0.0
O971 O 0.50548 0.07156 0.60377 0.0
O972 O 0.56631 0.04565 0.60205 0.0
O973 O 0.5411 0.04133 0.62741 0.0
O974 O 0.54396 0.09494 0.58746 0.0
O975 O 0.58376 0.09552 0.57993 0.0
H976 H 0.62441 0.99177 0.54547 0.0
H977 H 0.66146 0.97261 0.55326 0.0
H978 H 0.70368 0.0526 0.5963 0.0
H979 H 0.66695 0.07164 0.58843 0.0
H980 H 0.43955 0.02823 0.56114 0.0
H981 H 0.40337 0.04688 0.54816 0.0
H982 H 0.44688 0.12976 0.57876 0.0
H983 H 0.48312 0.11077 0.5924 0.0
Tb984 Tb 0.28101 0.30438 0.82539 0.0
Tb985 Tb 0.33106 0.28783 0.82865 0.0
C986 C 0.23713 0.30707 0.82956 0.0
C987 C 0.21787 0.30856 0.84729 0.0
C988 C 0.21755 0.29732 0.87245 0.0
C989 C 0.19755 0.29724 0.88687 0.0
C990 C 0.17747 0.30852 0.87651 0.0
C991 C 0.17804 0.31952 0.85122 0.0
C992 C 0.19786 0.3196 0.837 0.0
C993 C 0.31617 0.33886 0.80801 0.0
C994 C 0.31969 0.31965 0.88393 0.0
C995 C 0.37395 0.28173 0.82306 0.0
C996 C 0.39311 0.28431 0.80476 0.0
C997 C 0.39617 0.30454 0.78705 0.0
C998 C 0.41621 0.30791 0.77251 0.0
C999 C 0.43386 0.29145 0.77567 0.0
C1000 C 0.43026 0.2709 0.79294 0.0
C1001 C 0.41023 0.26738 0.80714 0.0
C1002 C 0.29518 0.25331 0.84559 0.0
C1003 C 0.2937 0.27621 0.76958 0.0
O1004 O 0.24463 0.28397 0.82562 0.0
O1005 O 0.2549 0.32887 0.83091 0.0
O1006 O 0.31881 0.32538 0.82806 0.0
O1007 O 0.29266 0.33507 0.79836 0.0
O1008 O 0.2962 0.31447 0.87122 0.0
O1009 O 0.33712 0.3133 0.8704 0.0
O1010 O 0.36922 0.30445 0.83512 0.0
O1011 O 0.35402 0.26194 0.81519 0.0
O1012 O 0.29327 0.26696 0.82565 0.0
O1013 O 0.31866 0.25616 0.85456 0.0
O1014 O 0.3171 0.28231 0.78269 0.0
O1015 O 0.27569 0.28023 0.7832 0.0
H1016 H 0.23265 0.28854 0.88092 0.0
H1017 H 0.19797 0.28869 0.90627 0.0
H1018 H 0.16286 0.32779 0.84196 0.0
H1019 H 0.1973 0.32792 0.81744 0.0
H1020 H 0.38342 0.31808 0.7849 0.0
H1021 H 0.41834 0.32404 0.75955 0.0
H1022 H 0.4431 0.25752 0.79567 0.0
H1023 H 0.40848 0.25172 0.82068 0.0
Tb1024 Tb 0.05457 0.07748 0.58358 0.0
Tb1025 Tb 0.06248 0.02115 0.56967 0.0
C1026 C 0.06375 0.12922 0.59101 0.0
C1027 C 0.07292 0.14888 0.57327 0.0
C1028 C 0.07541 0.13923 0.54579 0.0
C1029 C 0.08236 0.15786 0.52793 0.0
C1030 C 0.08644 0.18645 0.53716 0.0
C1031 C 0.08496 0.19602 0.56521 0.0
C1032 C 0.07829 0.17729 0.58317 0.0
C1033 C 1.01632 0.04218 0.59629 0.0
C1034 C 0.03643 0.04734 0.52016 0.0
C1035 C 0.05663 0.96977 0.55727 0.0
C1036 C 0.05082 0.94853 0.57478 0.0
C1037 C 0.04255 0.95537 0.59997 0.0
C1038 C 0.04007 0.9366 0.61876 0.0
C1039 C 0.04554 0.91062 0.61242 0.0
C1040 C 0.05265 0.90328 0.58657 0.0
C1041 C 0.05544 0.92226 0.56788 0.0
C1042 C 0.10225 0.06106 0.57017 0.0
C1043 C 0.07638 0.04915 0.63284 0.0
O1044 O 0.07946 0.11504 0.60081 0.0
O1045 O 0.04173 0.11368 0.58077 0.0
O1046 O 0.03461 0.03668 0.58638 0.0
O1047 O 1.02001 0.06889 0.60042 0.0
O1048 O 0.03814 0.06977 0.53865 0.0
O1049 O 0.04589 0.02647 0.52736 0.0
O1050 O 0.03921 0.98299 0.55091 0.0
O1051 O 0.07826 0.98655 0.56584 0.0
O1052 O 0.07991 0.06124 0.56046 0.0
O1053 O 0.10231 0.03755 0.57873 0.0
O1054 O 0.06723 0.02526 0.61583 0.0
O1055 O 0.07656 0.0727 0.62319 0.0
H1056 H 0.07123 0.11726 0.53789 0.0
H1057 H 0.08361 0.14989 0.50658 0.0
H1058 H 0.0876 0.21791 0.57283 0.0
H1059 H 0.07644 0.18497 0.60439 0.0
H1060 H 0.0387 0.97553 0.6055 0.0
H1061 H 0.0344 0.94257 0.63849 0.0
H1062 H 0.05714 0.88337 0.58142 0.0
H1063 H 0.06193 0.91678 0.54857 0.0
Tb1064 Tb 0.30706 0.76166 0.79784 0.0
Tb1065 Tb 0.30902 0.82465 0.80542 0.0
C1066 C 0.3167 0.71496 0.78676 0.0
C1067 C 0.33884 0.70321 0.78884 0.0
C1068 C 0.35901 0.71356 0.81111 0.0
C1069 C 0.37835 0.69986 0.81496 0.0
C1070 C 0.37789 0.67551 0.79669 0.0
C1071 C 0.35844 0.66627 0.77337 0.0
C1072 C 0.33907 0.67998 0.76954 0.0
C1073 C 0.28162 0.77942 0.83429 0.0
C1074 C 0.35224 0.80473 0.83834 0.0
C1075 C 0.30158 0.87262 0.81587 0.0
C1076 C 0.28295 0.88815 0.82331 0.0
C1077 C 0.2807 0.89427 0.85159 0.0
C1078 C 0.26619 0.91239 0.85965 0.0
C1079 C 0.25361 0.9252 0.83972 0.0
C1080 C 0.25504 0.91828 0.81114 0.0
C1081 C 0.26966 0.90003 0.80305 0.0
C1082 C 0.33676 0.80736 0.77144 0.0
C1083 C 0.26112 0.78059 0.77049 0.0
O1084 O 0.31392 0.73123 0.7679 0.0
O1085 O 0.31108 0.72428 0.81076 0.0
O1086 O 0.30166 0.79231 0.82938 0.0
O1087 O 0.27668 0.75414 0.82129 0.0
O1088 O 0.34385 0.78026 0.82217 0.0
O1089 O 0.3398 0.82456 0.83833 0.0
O1090 O 0.31089 0.85937 0.83498 0.0
O1091 O 0.29814 0.8589 0.79023 0.0
O1092 O 0.31593 0.79434 0.77441 0.0
O1093 O 0.34084 0.83248 0.78442 0.0
O1094 O 0.27081 0.80559 0.78521 0.0
O1095 O 0.27325 0.7605 0.76921 0.0
H1096 H 0.3594 0.73163 0.82613 0.0
H1097 H 0.39324 0.70774 0.83288 0.0
H1098 H 0.35738 0.64747 0.75904 0.0
H1099 H 0.32374 0.67174 0.75217 0.0
H1100 H 0.29032 0.88519 0.8677 0.0
H1101 H 0.26504 0.91655 0.88169 0.0
H1102 H 0.24589 0.92795 0.79517 0.0
H1103 H 0.27129 0.89609 0.7811 0.0
Tb1104 Tb 0.53867 0.05276 0.04803 0.0
Tb1105 Tb 0.58297 0.05311 0.0917 0.0
C1106 C 0.49894 0.03532 1.01376 0.0
C1107 C 0.47266 0.02967 1.01418 0.0
C1108 C 0.45621 1.01678 0.98935 0.0
C1109 C 0.43184 1.00511 0.99038 0.0
C1110 C 0.42382 1.0059 0.01637 0.0
C1111 C 0.43992 0.0208 0.0409 0.0
C1112 C 0.46425 0.03273 0.03977 0.0
C1113 C 0.5588 0.10145 0.0794 0.0
C1114 C 0.53022 0.04784 0.1149 0.0
C1115 C 0.62263 0.07352 0.12557 0.0
C1116 C 0.64921 0.08289 0.12687 0.0
C1117 C 0.65834 0.09151 0.10343 0.0
C1118 C 0.68251 0.10674 0.1067 0.0
C1119 C 0.69789 0.11345 0.13341 0.0
C1120 C 0.68929 0.10304 0.1564 0.0
C1121 C 0.66501 0.08796 0.15315 0.0
C1122 C 0.56112 1.00475 0.0616 0.0
C1123 C 0.59076 0.056 0.0241 0.0
O1124 O 0.51082 1.01932 0.02716 0.0
O1125 O 0.51077 0.06136 0.01883 0.0
O1126 O 0.55689 0.0777 0.0859 0.0
O1127 O 0.54787 0.09816 0.05319 0.0
O1128 O 0.52046 0.04539 0.08705 0.0
O1129 O 0.555 0.05157 0.12167 0.0
O1130 O 0.60902 0.08812 0.1123 0.0
O1131 O 0.61287 0.04681 0.12018 0.0
O1132 O 0.56429 0.02807 0.05414 0.0
O1133 O 0.57239 1.00756 0.08775 0.0
O1134 O 0.60115 0.05722 0.05163 0.0
O1135 O 0.5663 0.05448 0.0185 0.0
H1136 H 0.46255 1.01435 0.96944 0.0
H1137 H 0.41957 0.99435 0.97106 0.0
H1138 H 0.43421 0.02176 0.0612 0.0
H1139 H 0.4768 0.04283 0.05907 0.0
H1140 H 0.6464 0.08787 0.08298 0.0
H1141 H 0.68894 0.11409 0.08854 0.0
H1142 H 0.70085 0.10788 0.17715 0.0
H1143 H 0.65816 0.08166 0.17151 0.0
Tb1144 Tb 0.2858 0.28279 0.31362 0.0
Tb1145 Tb 0.32856 0.31946 0.34052 0.0
C1146 C 0.24139 0.25685 0.30393 0.0
C1147 C 0.21889 0.26599 0.30933 0.0
C1148 C 0.20301 0.25022 0.32375 0.0
C1149 C 0.1845 0.26087 0.33432 0.0
C1150 C 0.18153 0.28762 0.33082 0.0
C1151 C 0.19651 0.30279 0.31493 0.0
C1152 C 0.21502 0.29206 0.30426 0.0
C1153 C 0.30982 0.30618 0.2763 0.0
C1154 C 0.28209 0.3488 0.33381 0.0
C1155 C 0.37298 0.34542 0.35195 0.0
C1156 C 0.39583 0.3353 0.35136 0.0
C1157 C 0.41313 0.34794 0.33639 0.0
C1158 C 0.43113 0.33451 0.32847 0.0
C1159 C 0.43215 0.30835 0.33557 0.0
C1160 C 0.41631 0.29678 0.35264 0.0
C1161 C 0.39822 0.31016 0.36051 0.0
C1162 C 0.30404 0.29515 0.37718 0.0
C1163 C 0.33279 0.25364 0.31977 0.0
O1164 O 0.25705 0.25687 0.32669 0.0
O1165 O 0.25244 0.26716 0.28465 0.0
O1166 O 0.30685 0.31821 0.29975 0.0
O1167 O 0.29933 0.28011 0.27372 0.0
O1168 O 0.27076 0.32171 0.32701 0.0
O1169 O 0.3068 0.35369 0.33904 0.0
O1170 O 0.35894 0.34218 0.32722 0.0
O1171 O 0.36017 0.33841 0.37118 0.0
O1172 O 0.30765 0.28381 0.35384 0.0
O1173 O 0.31437 0.32131 0.38037 0.0
O1174 O 0.34402 0.28061 0.3283 0.0
O1175 O 0.30803 0.24873 0.31337 0.0
H1176 H 0.20566 0.23013 0.32799 0.0
H1177 H 0.17293 0.24841 0.34595 0.0
H1178 H 0.19474 0.32347 0.31191 0.0
H1179 H 0.22698 0.30472 0.29319 0.0
H1180 H 0.41151 0.36715 0.3289 0.0
H1181 H 0.44306 0.34358 0.31502 0.0
H1182 H 0.41671 0.27647 0.35806 0.0
H1183 H 0.38501 0.29982 0.37189 0.0
Tb1184 Tb 0.55309 0.57615 0.08372 0.0
Tb1185 Tb 0.5689 0.51934 0.07015 0.0
C1186 C 0.55385 0.62666 0.08742 0.0
C1187 C 0.55993 0.64661 0.06865 0.0
C1188 C 0.56588 0.67497 0.079 0.0
C1189 C 0.5714 0.69397 0.06092 0.0
C1190 C 0.57119 0.68475 0.0323 0.0
C1191 C 0.56588 0.65622 0.0223 0.0
C1192 C 0.56008 0.63734 0.04028 0.0
C1193 C 0.51965 0.53372 0.09456 0.0
C1194 C 0.53945 0.54182 0.02033 0.0
C1195 C 0.5686 0.46934 0.06827 0.0
C1196 C 0.56307 0.45242 0.08978 0.0
C1197 C 0.54987 0.46131 0.11008 0.0
C1198 C 0.54703 0.44733 0.13278 0.0
C1199 C 0.55792 0.42475 0.1358 0.0
C1200 C 0.57109 0.41584 0.11545 0.0
C1201 C 0.57362 0.42961 0.0925 0.0
C1202 C 0.60243 0.56179 0.05992 0.0
C1203 C 0.58389 0.55433 0.13289 0.0
O1204 O 0.5724 0.61701 0.09884 0.0
O1205 O 0.53384 0.60724 0.07765 0.0
O1206 O 0.5396 0.53366 0.08559 0.0
O1207 O 0.51886 0.55964 0.09936 0.0
O1208 O 0.54167 0.56539 0.03766 0.0
O1209 O 0.54776 0.52048 0.02861 0.0
O1210 O 0.55002 0.47826 0.05565 0.0
O1211 O 0.58878 0.48881 0.07639 0.0
O1212 O 0.58206 0.56169 0.06792 0.0
O1213 O 0.6041 0.53611 0.05682 0.0
O1214 O 0.57963 0.52969 0.11672 0.0
O1215 O 0.57687 0.57587 0.12356 0.0
H1216 H 0.56589 0.68239 0.1009 0.0
H1217 H 0.57501 0.71584 0.06914 0.0
H1218 H 0.5659 0.64849 1.00049 0.0
H1219 H 0.55571 0.6155 0.03195 0.0
H1220 H 0.54234 0.47952 0.10879 0.0
H1221 H 0.53685 0.4545 0.14829 0.0
H1222 H 0.57933 0.39816 0.11727 0.0
H1223 H 0.58426 0.4229 0.07729 0.0
Tb1224 Tb 0.80724 0.25958 0.29945 0.0
Tb1225 Tb 0.81526 0.32402 0.30675 0.0
C1226 C 0.80547 0.21024 0.27921 0.0
C1227 C 0.82396 0.19314 0.2769 0.0
C1228 C 0.82621 0.18053 0.25026 0.0
C1229 C 0.84316 0.16375 0.24773 0.0
C1230 C 0.85807 0.15889 0.27185 0.0
C1231 C 0.8562 0.1722 0.29844 0.0
C1232 C 0.83946 0.18922 0.30093 0.0
C1233 C 0.7906 0.28329 0.34169 0.0
C1234 C 0.85249 0.2972 0.34225 0.0
C1235 C 0.81092 0.37295 0.31794 0.0
C1236 C 0.79125 0.38823 0.3206 0.0
C1237 C 0.79637 0.41206 0.34092 0.0
C1238 C 0.77843 0.42731 0.34417 0.0
C1239 C 0.7549 0.41919 0.32695 0.0
C1240 C 0.74973 0.3952 0.30647 0.0
C1241 C 0.76772 0.37975 0.30342 0.0
C1242 C 0.84441 0.30225 0.27712 0.0
C1243 C 0.76547 0.28573 0.26871 0.0
O1244 O 0.80648 0.23023 0.26413 0.0
O1245 O 0.80145 0.21789 0.30451 0.0
O1246 O 0.79146 0.29056 0.31816 0.0
O1247 O 0.79723 0.25981 0.34157 0.0
O1248 O 0.84428 0.27387 0.32413 0.0
O1249 O 0.8407 0.3177 0.34284 0.0
O1250 O 0.81495 0.35739 0.33728 0.0
O1251 O 0.81191 0.3612 0.29251 0.0
O1252 O 0.82253 0.2919 0.27873 0.0
O1253 O 0.84982 0.32772 0.28963 0.0
O1254 O 0.77902 0.31094 0.2791 0.0
O1255 O 0.77258 0.26285 0.27416 0.0
H1256 H 0.81471 0.18352 0.23137 0.0
H1257 H 0.84436 0.15433 0.22685 0.0
H1258 H 0.867 0.16871 0.31756 0.0
H1259 H 0.83839 0.19887 0.32177 0.0
H1260 H 0.8145 0.41909 0.35408 0.0
H1261 H 0.78326 0.44597 0.3597 0.0
H1262 H 0.73176 0.38829 0.29296 0.0
H1263 H 0.76327 0.36132 0.28764 0.0
Tb1264 Tb 0.03768 0.55347 0.55152 0.0
Tb1265 Tb 0.08144 0.54903 0.59199 0.0
C1266 C 0.99697 0.54066 0.51853 0.0
C1267 C 0.97072 0.53874 0.51814 0.0
C1268 C 0.96102 0.53816 0.54297 0.0
C1269 C 0.93558 0.53006 0.54142 0.0
C1270 C 0.91976 0.52236 0.51503 0.0
C1271 C 0.92948 0.52531 0.49041 0.0
C1272 C 0.95485 0.53343 0.49199 0.0
C1273 C 0.06319 0.60106 0.58038 0.0
C1274 C 0.0313 0.55022 0.61909 0.0
C1275 C 0.12186 0.56283 0.62574 0.0
C1276 C 0.14827 0.57116 0.626 0.0
C1277 C 0.15676 0.58021 0.60241 0.0
C1278 C 0.18104 0.59481 0.60507 0.0
C1279 C 0.19706 0.60045 0.63131 0.0
C1280 C 0.18902 0.5895 0.65432 0.0
C1281 C 0.16467 0.57503 0.65168 0.0
C1282 C 0.05501 0.50185 0.56273 0.0
C1283 C 0.08838 0.55251 0.52505 0.0
O1284 O 1.0066 0.52309 0.53208 0.0
O1285 O 1.01129 0.56552 0.52313 0.0
O1286 O 0.05891 0.578 0.58856 0.0
O1287 O 0.05202 0.5979 0.5543 0.0
O1288 O 1.02041 0.5504 0.59213 0.0
O1289 O 0.05536 0.54947 0.6233 0.0
O1290 O 0.10913 0.58033 0.61676 0.0
O1291 O 0.11074 0.53693 0.61616 0.0
O1292 O 0.0601 0.52488 0.55485 0.0
O1293 O 0.06635 0.50428 0.58872 0.0
O1294 O 0.09928 0.55371 0.55223 0.0
O1295 O 0.06395 0.55157 0.5203 0.0
H1296 H 0.97312 0.54222 0.56334 0.0
H1297 H 0.9285 0.52779 0.56067 0.0
H1298 H 0.91756 0.51974 0.46987 0.0
H1299 H 0.96214 0.53387 0.47266 0.0
H1300 H 0.14428 0.57752 0.58246 0.0
H1301 H 0.18704 0.60263 0.5869 0.0
H1302 H 0.2011 0.59357 0.67472 0.0
H1303 H 0.15825 0.56837 0.67014 0.0
Tb1304 Tb 0.78247 0.79814 0.32083 0.0
Tb1305 Tb 0.83356 0.78425 0.32674 0.0
C1306 C 0.73815 0.79795 0.3256 0.0
C1307 C 0.72004 0.79359 0.3452 0.0
C1308 C 0.70138 0.76921 0.33987 0.0
C1309 C 0.68239 0.76583 0.35566 0.0
C1310 C 0.68122 0.7868 0.37738 0.0
C1311 C 0.70023 0.81105 0.38309 0.0
C1312 C 0.71928 0.81442 0.36723 0.0
C1313 C 0.81723 0.8349 0.30577 0.0
C1314 C 0.81993 0.81466 0.38069 0.0
C1315 C 0.87678 0.77985 0.32095 0.0
C1316 C 0.89455 0.78463 0.30102 0.0
C1317 C 0.91543 0.80682 0.30813 0.0
C1318 C 0.9335 0.81008 0.29099 0.0
C1319 C 0.93133 0.79122 0.26613 0.0
C1320 C 0.91027 0.76918 0.25894 0.0
C1321 C 0.89226 0.76591 0.27608 0.0
C1322 C 0.79763 0.74799 0.3417 0.0
C1323 C 0.79935 0.77491 0.26569 0.0
O1324 O 0.74559 0.7763 0.31511 0.0
O1325 O 0.75594 0.82033 0.33117 0.0
O1326 O 0.81987 0.82093 0.32545 0.0
O1327 O 0.79375 0.83055 0.29553 0.0
O1328 O 0.79658 0.80766 0.36716 0.0
O1329 O 0.83822 0.80984 0.36794 0.0
O1330 O 0.87182 0.80155 0.33491 0.0
O1331 O 0.85715 0.75961 0.31308 0.0
O1332 O 0.79601 0.76164 0.32175 0.0
O1333 O 0.82102 0.75182 0.35185 0.0
O1334 O 0.82198 0.78103 0.28085 0.0
O1335 O 0.77986 0.77706 0.27745 0.0
H1336 H 0.70104 0.75286 0.32285 0.0
H1337 H 0.66811 0.74701 0.35008 0.0
H1338 H 0.70038 0.82761 0.39979 0.0
H1339 H 0.73313 0.83363 0.37189 0.0
H1340 H 0.91802 0.82153 0.32728 0.0
H1341 H 0.94914 0.82752 0.29722 0.0
H1342 H 0.90791 0.75391 0.2403 0.0
H1343 H 0.87673 0.74833 0.26997 0.0
Tb1344 Tb 0.8143 0.29192 0.80476 0.0
Tb1345 Tb 0.79756 0.31625 0.85044 0.0
C1346 C 0.82417 0.27955 0.75672 0.0
C1347 C 0.82529 0.2939 0.73229 0.0
C1348 C 0.83323 0.3228 0.73576 0.0
C1349 C 0.8293 0.33669 0.71291 0.0
C1350 C 0.81759 0.32185 0.68618 0.0
C1351 C 0.81143 0.29276 0.68241 0.0
C1352 C 0.81512 0.27892 0.70534 0.0
C1353 C 0.84197 0.28748 0.85291 0.0
C1354 C 0.83252 0.35963 0.82389 0.0
C1355 C 0.78481 0.32997 0.89672 0.0
C1356 C 0.77649 0.31498 0.91873 0.0
C1357 C 0.7648 0.28682 0.91232 0.0
C1358 C 0.76345 0.27074 0.93371 0.0
C1359 C 0.77357 0.28285 0.96178 0.0
C1360 C 0.78208 0.31177 0.96837 0.0
C1361 C 0.78382 0.3277 0.94689 0.0
C1362 C 0.77036 0.32009 0.8016 0.0
C1363 C 0.78122 0.24804 0.83335 0.0
O1364 O 0.80215 0.27294 0.76269 0.0
O1365 O 0.84098 0.28994 0.77925 0.0
O1366 O 0.83349 0.30844 0.84761 0.0
O1367 O 0.83531 0.26887 0.83056 0.0
O1368 O 0.82827 0.33793 0.8032 0.0
O1369 O 0.82383 0.3551 0.84714 0.0
O1370 O 0.80755 0.33018 0.89397 0.0
O1371 O 0.76993 0.32478 0.8724 0.0
O1372 O 0.77846 0.29922 0.80781 0.0
O1373 O 0.77804 0.33964 0.82308 0.0
O1374 O 0.7829 0.27071 0.85207 0.0
O1375 O 0.7918 0.25139 0.81103 0.0
H1376 H 0.84147 0.33483 0.75626 0.0
H1377 H 0.83426 0.3591 0.71653 0.0
H1378 H 0.80296 0.2807 0.66191 0.0
H1379 H 0.80898 0.2566 0.70226 0.0
H1380 H 0.75838 0.27688 0.89072 0.0
H1381 H 0.75667 0.24856 0.92796 0.0
H1382 H 0.78947 0.3217 0.98995 0.0
H1383 H 0.79258 0.34952 0.95221 0.0
Tb1384 Tb 0.78651 0.78641 0.81187 0.0
Tb1385 Tb 0.83432 0.82143 0.83825 0.0
C1386 C 0.74139 0.76443 0.80332 0.0
C1387 C 0.72127 0.77717 0.81075 0.0
C1388 C 0.7249 0.79524 0.83637 0.0
C1389 C 0.70676 0.80913 0.84263 0.0
C1390 C 0.68454 0.80532 0.82344 0.0
C1391 C 0.68091 0.78722 0.79775 0.0
C1392 C 0.69917 0.77332 0.79145 0.0
C1393 C 0.8121 0.80726 0.77478 0.0
C1394 C 0.78794 0.85351 0.83328 0.0
C1395 C 0.87752 0.8478 0.83951 0.0
C1396 C 0.90215 0.84166 0.84524 0.0
C1397 C 0.92259 0.86074 0.841 0.0
C1398 C 0.94517 0.85318 0.84064 0.0
C1399 C 0.94756 0.82623 0.84407 0.0
C1400 C 0.92735 0.80754 0.8496 0.0
C1401 C 0.90489 0.81531 0.85047 0.0
C1402 C 0.81652 0.79643 0.87916 0.0
C1403 C 0.83211 0.75383 0.81995 0.0
O1404 O 0.75721 0.76101 0.82458 0.0
O1405 O 0.75234 0.77467 0.78395 0.0
O1406 O 0.81035 0.81972 0.79864 0.0
O1407 O 0.79967 0.78182 0.77191 0.0
O1408 O 0.77451 0.82783 0.82221 0.0
O1409 O 0.81248 0.85575 0.84127 0.0
O1410 O 0.86317 0.83261 0.81684 0.0
O1411 O 0.86588 0.8506 0.86071 0.0
O1412 O 0.80659 0.79398 0.85343 0.0
O1413 O 0.83694 0.8149 0.88265 0.0
O1414 O 0.84589 0.77984 0.82777 0.0
O1415 O 0.80746 0.75146 0.81385 0.0
H1416 H 0.7419 0.79889 0.85158 0.0
H1417 H 0.71002 0.82251 0.86278 0.0
H1418 H 0.66406 0.78401 0.7824 0.0
H1419 H 0.69616 0.75984 0.77139 0.0
H1420 H 0.92079 0.88105 0.83663 0.0
H1421 H 0.96039 0.86794 0.83613 0.0
H1422 H 0.92875 0.78674 0.85256 0.0
H1423 H 0.88943 0.80033 0.85405 0.0
Tb1424 Tb 0.54059 0.53486 0.55974 0.0
Tb1425 Tb 0.58194 0.56657 0.59882 0.0
C1426 C 0.49741 0.51668 0.53277 0.0
C1427 C 0.48183 0.53061 0.51513 0.0
C1428 C 0.45728 0.52825 0.51849 0.0
C1429 C 0.44517 0.54919 0.51243 0.0
C1430 C 0.45758 0.57256 0.503 0.0
C1431 C 0.48066 0.57287 0.49569 0.0
C1432 C 0.49285 0.55195 0.50177 0.0
C1433 C 0.58067 0.54456 0.5361 0.0
C1434 C 0.55056 0.60196 0.56645 0.0
C1435 C 0.62535 0.58429 0.62521 0.0
C1436 C 0.64561 0.56985 0.62341 0.0
C1437 C 0.66372 0.57983 0.60811 0.0
C1438 C 0.67497 0.56145 0.5937 0.0
C1439 C 0.66817 0.53288 0.59437 0.0
C1440 C 0.65357 0.52397 0.61388 0.0
C1441 C 0.64252 0.54239 0.62848 0.0
C1442 C 0.54224 0.55625 0.62321 0.0
C1443 C 0.57294 0.50048 0.59027 0.0
O1444 O 0.5027 0.52808 0.55932 0.0
O1445 O 0.51677 0.51109 0.5235 0.0
O1446 O 0.57415 0.56113 0.55381 0.0
O1447 O 0.5638 0.52178 0.53047 0.0
O1448 O 0.53581 0.57756 0.55516 0.0
O1449 O 0.57073 0.6031 0.58494 0.0
O1450 O 0.61693 0.59193 0.60158 0.0
O1451 O 0.60739 0.5726 0.63683 0.0
O1452 O 0.54879 0.53974 0.60534 0.0
O1453 O 0.55799 0.57973 0.62648 0.0
O1454 O 0.58967 0.52411 0.59411 0.0
O1455 O 0.54991 0.50023 0.57948 0.0
H1456 H 0.44854 0.51205 0.52889 0.0
H1457 H 0.42731 0.54871 0.5183 0.0
H1458 H 0.49009 0.59055 0.48784 0.0
H1459 H 0.5118 0.55415 0.4989 0.0
H1460 H 0.66689 0.60109 0.60442 0.0
H1461 H 0.68735 0.56934 0.58017 0.0
H1462 H 0.64854 0.50237 0.6159 0.0
H1463 H 0.62919 0.53415 0.64085 0.0
Tb1464 Tb 0.08264 0.5575 0.06124 0.0
Tb1465 Tb 0.03201 0.54751 0.08136 0.0
C1466 C 0.12747 0.55672 0.05976 0.0
C1467 C 0.14759 0.54195 0.06862 0.0
C1468 C 0.17025 0.5573 0.08466 0.0
C1469 C 0.19084 0.54536 0.08943 0.0
C1470 C 0.18964 0.51752 0.07832 0.0
C1471 C 0.16658 0.50163 0.06352 0.0
C1472 C 0.1459 0.5137 0.05859 0.0
C1473 C 0.04649 0.56364 0.01787 0.0
C1474 C 0.04853 0.49606 0.0526 0.0
C1475 C 0.9873 0.54797 0.08397 0.0
C1476 C 0.96867 0.56562 0.0799 0.0
C1477 C 0.96078 0.57344 0.05377 0.0
C1478 C 0.94214 0.58861 0.05043 0.0
C1479 C 0.93052 0.5962 0.07306 0.0
C1480 C 0.93859 0.58827 0.09916 0.0
C1481 C 0.95729 0.57336 0.10249 0.0
C1482 C 0.06916 0.54097 0.12356 0.0
C1483 C 0.06612 0.60885 0.09133 0.0
O1484 O 0.12053 0.57266 0.07907 0.0
O1485 O 0.10881 0.54346 0.04008 0.0
O1486 O 0.04452 0.55814 0.04289 0.0
O1487 O 0.07011 0.56702 0.01852 0.0
O1488 O 0.07065 0.51237 0.05491 0.0
O1489 O 0.02974 0.50526 0.06062 0.0
O1490 O 0.99441 0.53647 0.06184 0.0
O1491 O 1.00565 0.55667 0.10532 0.0
O1492 O 0.06985 0.54703 0.09872 0.0
O1493 O 0.04564 0.53691 0.12397 0.0
O1494 O 0.04406 0.59257 0.08938 0.0
O1495 O 0.08468 0.5997 0.08249 0.0
H1496 H 0.17238 0.57905 0.09263 0.0
H1497 H 0.20807 0.5583 0.10123 0.0
H1498 H 0.16483 0.48024 0.05447 0.0
H1499 H 0.12885 0.50111 0.04601 0.0
H1500 H 0.9688 0.56762 0.03575 0.0
H1501 H 0.93694 0.5944 0.03002 0.0
H1502 H 0.93003 0.59293 0.11708 0.0
H1503 H 0.96255 0.56735 0.12281 0.0
H1504 H 0.03205 0.22169 0.04278 0.0
H1505 H 1.00285 0.17753 0.95844 0.0
H1506 H 1.00826 0.1343 0.97413 0.0
H1507 H 0.02209 0.10836 1.01162 0.0
H1508 H 0.05157 0.15177 0.09588 0.0
H1509 H 0.04543 0.19533 0.08063 0.0
C1510 C 0.02671 0.2026 0.02782 0.0
C1511 C 1.01695 0.20329 0.99924 0.0
C1512 C 0.02986 0.17732 0.03712 0.0
C1513 C 1.01032 0.17805 0.98045 0.0
C1514 C 1.01338 0.15308 0.98948 0.0
C1515 C 0.02654 0.12719 0.02683 0.0
C1516 C 0.03672 0.12632 0.05512 0.0
C1517 C 0.02311 0.15235 0.01775 0.0
C1518 C 0.04353 0.15145 0.07409 0.0
C1519 C 0.03999 0.17649 0.06531 0.0
H1520 H 0.1663 0.83766 0.26112 0.0
H1521 H 0.18609 0.81462 0.1808 0.0
H1522 H 0.226 0.80897 0.2047 0.0
H1523 H 0.25555 0.80961 0.24907 0.0
H1524 H 0.23563 0.83416 0.3289 0.0
H1525 H 0.19587 0.83948 0.30484 0.0
C1526 C 0.17939 0.8317 0.24873 0.0
C1527 C 0.17291 0.82681 0.21897 0.0
C1528 C 0.20243 0.82823 0.26272 0.0
C1529 C 0.19034 0.81879 0.20361 0.0
C1530 C 0.21325 0.81534 0.21735 0.0
C1531 C 0.24249 0.81599 0.26117 0.0
C1532 C 0.24881 0.82131 0.29096 0.0
C1533 C 0.21951 0.81973 0.24698 0.0
C1534 C 0.23145 0.82979 0.30608 0.0
C1535 C 0.20862 0.83297 0.29227 0.0
H1536 H 0.49281 0.87412 0.48582 0.0
H1537 H 0.56513 0.8616 0.51615 0.0
H1538 H 0.57696 0.90867 0.54319 0.0
H1539 H 0.56744 0.95475 0.55591 0.0
H1540 H 0.49405 0.96577 0.52746 0.0
H1541 H 0.48203 0.9183 0.50222 0.0
C1542 C 0.51109 0.8816 0.49853 0.0
C1543 C 0.52809 0.86428 0.49882 0.0
C1544 C 0.51763 0.90865 0.51432 0.0
C1545 C 0.55162 0.87431 0.51571 0.0
C1546 C 0.55843 0.90136 0.53103 0.0
C1547 C 0.54873 0.9467 0.54443 0.0
C1548 C 0.53174 0.96417 0.54362 0.0
C1549 C 0.54172 0.91894 0.53019 0.0
C1550 C 0.50755 0.95305 0.5287 0.0
C1551 C 0.50065 0.92581 0.51408 0.0
H1552 H 0.53816 0.30321 0.73628 0.0
H1553 H 0.49375 0.30973 0.65779 0.0
H1554 H 0.45756 0.30677 0.67998 0.0
H1555 H 0.43754 0.30062 0.72138 0.0
H1556 H 0.48152 0.29251 0.79945 0.0
H1557 H 0.51822 0.2977 0.77791 0.0
C1558 C 0.52064 0.30424 0.72406 0.0
C1559 C 0.51902 0.30677 0.69523 0.0
C1560 C 0.49947 0.30202 0.73692 0.0
C1561 C 0.49585 0.30773 0.6799 0.0
C1562 C 0.47498 0.30604 0.69262 0.0
C1563 C 0.45518 0.30023 0.73378 0.0
C1564 C 0.45646 0.29598 0.76211 0.0
C1565 C 0.47643 0.30293 0.72107 0.0
C1566 C 0.47965 0.29532 0.77756 0.0
C1567 C 0.50081 0.29842 0.76525 0.0
H1568 H 0.04608 0.81502 0.6838 0.0
H1569 H 0.09545 0.88117 0.7443 0.0
H1570 H 0.08713 0.91439 0.71315 0.0
H1571 H 0.0693 0.9235 0.66658 0.0
H1572 H 0.02269 0.85631 0.60531 0.0
H1573 H 0.02661 0.82434 0.63908 0.0
C1574 C 0.05495 0.83672 0.69046 0.0
C1575 C 0.07166 0.84551 0.71624 0.0
C1576 C 0.05074 0.8554 0.67218 0.0
C1577 C 0.08263 0.8738 0.72451 0.0
C1578 C 0.07796 0.89278 0.70666 0.0
C1579 C 0.05968 0.90193 0.66091 0.0
C1580 C 0.04577 0.89207 0.63364 0.0
C1581 C 0.06258 0.88364 0.68014 0.0
C1582 C 0.03361 0.86413 0.6262 0.0
C1583 C 0.03584 0.84596 0.64545 0.0
H1584 H 0.45645 0.84456 0.91821 0.0
H1585 H 0.47384 0.7868 0.85509 0.0
H1586 H 0.43059 0.77333 0.83175 0.0
H1587 H 0.38893 0.78066 0.82725 0.0
H1588 H 0.37143 0.84173 0.88703 0.0
H1589 H 0.41376 0.85166 0.91372 0.0
C1590 C 0.45054 0.82896 0.89943 0.0
C1591 C 0.46799 0.81697 0.88786 0.0
C1592 C 0.42582 0.82212 0.88559 0.0
C1593 C 0.46051 0.79655 0.86383 0.0
C1594 C 0.43589 0.78883 0.8506 0.0
C1595 C 0.39423 0.79585 0.84637 0.0
C1596 C 0.37716 0.8103 0.85537 0.0
C1597 C 0.41853 0.80191 0.86096 0.0
C1598 C 0.38439 0.83038 0.87977 0.0
C1599 C 0.40849 0.83596 0.89505 0.0
H1600 H 0.53578 0.16521 0.18742 0.0
H1601 H 0.59567 0.22781 0.17438 0.0
H1602 H 0.59997 0.19838 0.13213 0.0
H1603 H 0.58679 0.15377 0.09912 0.0
H1604 H 0.5205 0.09706 0.10649 0.0
H1605 H 0.51858 0.12455 0.15057 0.0
C1606 C 0.54959 0.17231 0.17514 0.0
C1607 C 0.56533 0.19837 0.18371 0.0
C1608 C 0.55083 0.15616 0.14988 0.0
C1609 C 0.58334 0.2076 0.16791 0.0
C1610 C 0.58571 0.19092 0.14371 0.0
C1611 C 0.57159 0.14801 0.11 0.0
C1612 C 0.55447 0.12286 0.10041 0.0
C1613 C 0.56944 0.16516 0.13434 0.0
C1614 C 0.53461 0.11569 0.11439 0.0
C1615 C 0.53335 0.13152 0.13948 0.0
H1616 H 0.10877 0.32462 0.40629 0.0
H1617 H 0.0825 0.35632 0.33146 0.0
H1618 H 0.11555 0.34303 0.30948 0.0
H1619 H 0.14946 0.31811 0.30981 0.0
H1620 H 0.17426 0.28549 0.38453 0.0
H1621 H 0.14399 0.30311 0.40798 0.0
C1622 C 0.11038 0.32908 0.38532 0.0
C1623 C 0.09293 0.34134 0.37057 0.0
C1624 C 0.12894 0.32069 0.37251 0.0
C1625 C 0.09558 0.34693 0.34341 0.0
C1626 C 0.1144 0.33913 0.33071 0.0
C1627 C 0.1484 0.31515 0.33132 0.0
C1628 C 0.16383 0.30002 0.34517 0.0
C1629 C 0.13079 0.3253 0.34477 0.0
C1630 C 0.16221 0.2964 0.37309 0.0
C1631 C 0.14503 0.30667 0.38662 0.0
H1632 H 0.96312 0.98954 0.19423 0.0
H1633 H 1.01387 0.05033 0.25877 0.0
H1634 H 0.03451 0.07015 0.2233 0.0
H1635 H 0.03938 0.0703 0.17422 0.0
H1636 H 0.99214 1.00773 0.10885 0.0
H1637 H 0.96915 0.98887 0.14384 0.0
C1638 C 0.97865 1.00714 0.20046 0.0
C1639 C 0.98679 1.0183 0.22946 0.0
C1640 C 0.99119 1.01828 0.17964 0.0
C1641 C 1.00716 0.04102 0.23689 0.0
C1642 C 1.01903 0.05255 0.2165 0.0
C1643 C 0.02393 0.05265 0.16745 0.0
C1644 C 1.01741 0.04075 0.13867 0.0
C1645 C 1.01136 0.04135 0.18785 0.0
C1646 C 0.99754 1.01753 0.1307 0.0
C1647 C 0.9844 1.00667 0.15082 0.0
H1648 H 0.29846 0.68767 0.54048 0.0
H1649 H 0.37139 0.74093 0.5629 0.0
H1650 H 0.35852 0.77298 0.53308 0.0
H1651 H 0.32719 0.78566 0.5006 0.0
H1652 H 0.25368 0.734 0.47814 0.0
H1653 H 0.2662 0.70133 0.50807 0.0
C1654 C 0.31152 0.70619 0.53861 0.0
C1655 C 0.33581 0.71195 0.55381 0.0
C1656 C 0.30389 0.72485 0.52172 0.0
C1657 C 0.35254 0.73613 0.55149 0.0
C1658 C 0.34522 0.75449 0.5345 0.0
C1659 C 0.31365 0.76766 0.50276 0.0
C1660 C 0.28944 0.7625 0.48756 0.0
C1661 C 0.32095 0.74914 0.51973 0.0
C1662 C 0.27242 0.73847 0.48978 0.0
C1663 C 0.27958 0.7198 0.5068 0.0
H1664 H 0.6087 1.0173 0.75185 0.0
H1665 H 0.67901 0.04838 0.72991 0.0
H1666 H 0.65819 0.054 0.6834 0.0
H1667 H 0.61872 0.05164 0.6473 0.0
H1668 H 0.54918 1.0197 0.67128 0.0
H1669 H 0.57046 1.01324 0.71628 0.0
C1670 C 0.61976 0.02512 0.73703 0.0
C1671 C 0.6461 0.03213 0.74571 0.0
C1672 C 0.60738 0.02842 0.70948 0.0
C1673 C 0.65907 0.04243 0.725 0.0
C1674 C 0.64693 0.04579 0.69787 0.0
C1675 C 0.60804 0.04293 0.66203 0.0
C1676 C 0.58143 0.03625 0.65426 0.0
C1677 C 0.62086 0.03903 0.68947 0.0
C1678 C 0.56914 0.02531 0.67518 0.0
C1679 C 0.5815 0.02151 0.70163 0.0
H1680 H 0.36275 0.40789 0.99523 0.0
H1681 H 0.30486 0.35736 0.0266 0.0
H1682 H 0.29246 0.32677 0.98078 0.0
H1683 H 0.29753 0.3149 0.93073 0.0
H1684 H 0.35886 0.36283 0.90232 0.0
H1685 H 0.37049 0.39357 0.94773 0.0
C1686 C 0.34758 0.39008 0.99229 0.0
C1687 C 0.33478 0.38518 1.01462 0.0
C1688 C 0.34111 0.37198 0.96614 0.0
C1689 C 0.31518 0.36172 1.01003 0.0
C1690 C 0.30801 0.34423 0.9837 0.0
C1691 C 0.31354 0.33195 0.93462 0.0
C1692 C 0.32725 0.33651 0.91291 0.0
C1693 C 0.32074 0.34919 0.96144 0.0
C1694 C 0.34806 0.35864 0.91852 0.0
C1695 C 0.35468 0.37636 0.94454 0.0
H1696 H 0.96364 0.04554 0.40584 0.0
H1697 H 1.0056 0.98931 0.37386 0.0
H1698 H 0.03127 0.99544 0.42068 0.0
H1699 H 0.04091 1.0155 0.47155 0.0
H1700 H 1.00056 0.07412 0.50242 0.0
H1701 H 0.97545 0.06844 0.45552 0.0
C1702 C 0.97851 0.03474 0.40904 0.0
C1703 C 0.98252 1.01685 0.3862 0.0
C1704 C 0.99354 0.03876 0.43601 0.0
C1705 C 1.00208 1.0033 0.39086 0.0
C1706 C 1.01673 1.00671 0.41774 0.0
C1707 C 0.02673 0.02717 0.46798 0.0
C1708 C 0.02266 0.04515 0.49073 0.0
C1709 C 1.01252 0.02419 0.4406 0.0
C1710 C 1.00428 0.06024 0.48547 0.0
C1711 C 0.98978 0.05691 0.45858 0.0
H1712 H 0.39911 0.77459 0.68211 0.0
H1713 H 0.39707 0.70409 0.72543 0.0
H1714 H 0.37964 0.72702 0.76215 0.0
H1715 H 0.35666 0.7623 0.77599 0.0
H1716 H 0.35627 0.831 0.73078 0.0
H1717 H 0.38238 0.81331 0.70037 0.0
C1718 C 0.39553 0.76448 0.69999 0.0
C1719 C 0.39868 0.73724 0.70047 0.0
C1720 C 0.38385 0.77687 0.71994 0.0
C1721 C 0.39449 0.72486 0.72422 0.0
C1722 C 0.38401 0.73772 0.74498 0.0
C1723 C 0.36197 0.77308 0.75922 0.0
C1724 C 0.35348 0.79699 0.75446 0.0
C1725 C 0.37699 0.76276 0.74191 0.0
C1726 C 0.36198 0.81199 0.73407 0.0
C1727 C 0.37701 0.80199 0.71686 0.0
H1728 H 0.62657 0.04334 0.89942 0.0
H1729 H 0.69604 0.04282 0.9508 0.0
H1730 H 0.67799 0.04767 0.99302 0.0
H1731 H 0.64204 0.05253 0.01839 0.0
H1732 H 0.57257 0.05312 0.96709 0.0
H1733 H 0.59055 0.04804 0.92479 0.0
C1734 C 0.63805 0.04403 0.91964 0.0
C1735 C 0.66358 0.04224 0.92003 0.0
C1736 C 0.62719 0.04714 0.94537 0.0
C1737 C 0.67679 0.04377 0.94793 0.0
C1738 C 0.66624 0.0467 0.9729 0.0
C1739 C 0.63053 0.05173 0.99815 0.0
C1740 C 0.60505 0.05366 0.99777 0.0
C1741 C 0.64136 0.04855 0.97242 0.0
C1742 C 0.5918 0.05209 0.9699 0.0
C1743 C 0.60231 0.04902 0.94491 0.0
H1744 H 0.32542 0.34076 0.15662 0.0
H1745 H 0.34537 0.4228 0.20509 0.0
H1746 H 0.33816 0.40342 0.2478 0.0
H1747 H 0.32562 0.36254 0.27209 0.0
H1748 H 0.3072 0.28079 0.2228 0.0
H1749 H 0.31436 0.30046 0.18068 0.0
C1750 C 0.32823 0.35453 0.17648 0.0
C1751 C 0.33592 0.38348 0.17713 0.0
C1752 C 0.32428 0.34312 0.20129 0.0
C1753 C 0.33949 0.40057 0.20348 0.0
C1754 C 0.33533 0.38941 0.22811 0.0
C1755 C 0.32325 0.349 0.25218 0.0
C1756 C 0.31567 0.3199 0.25111 0.0
C1757 C 0.32766 0.36062 0.22743 0.0
C1758 C 0.31288 0.30307 0.22476 0.0
C1759 C 0.31698 0.31438 0.20039 0.0
H1760 H 0.22525 0.98229 1.00407 0.0
H1761 H 0.18669 0.90766 0.02827 0.0
H1762 H 0.16794 0.93537 0.0601 0.0
H1763 H 0.16395 0.98103 0.08225 0.0
H1764 H 0.20608 0.05516 0.06141 0.0
H1765 H 0.22383 0.02728 0.02846 0.0
C1766 C 0.21287 0.97191 0.01633 0.0
C1767 C 0.20768 0.94288 1.014 0.0
C1768 C 0.20374 0.98793 0.03604 0.0
C1769 C 0.19101 0.92995 0.02961 0.0
C1770 C 0.1806 0.94579 0.04813 0.0
C1771 C 0.17766 0.99091 0.0711 0.0
C1772 C 0.18426 1.0199 0.07444 0.0
C1773 C 0.18735 0.97478 0.052 0.0
C1774 C 0.20142 0.03281 0.05956 0.0
C1775 C 0.21109 1.01691 0.04037 0.0
H1776 H 0.67861 0.66488 0.03254 0.0
H1777 H 0.72903 0.61485 0.06007 0.0
H1778 H 0.69516 0.58031 0.06858 0.0
H1779 H 0.65113 0.56299 0.0674 0.0
H1780 H 0.59982 0.61331 0.04506 0.0
H1781 H 0.63355 0.64878 0.03565 0.0
C1782 C 0.6821 0.64634 0.04026 0.0
C1783 C 0.70649 0.64192 0.04408 0.0
C1784 C 0.66221 0.62653 0.04622 0.0
C1785 C 0.71054 0.61827 0.05534 0.0
C1786 C 0.69111 0.59854 0.06063 0.0
C1787 C 0.64725 0.58183 0.0607 0.0
C1788 C 0.62275 0.58537 0.05698 0.0
C1789 C 0.66686 0.6022 0.05586 0.0
C1790 C 0.61836 0.61008 0.04841 0.0
C1791 C 0.63776 0.63029 0.04283 0.0
H1792 H 0.68633 0.50502 0.3191 0.0
H1793 H 0.70717 0.51466 0.40952 0.0
H1794 H 0.72751 0.476 0.4049 0.0
H1795 H 0.74369 0.44323 0.37525 0.0
H1796 H 0.72488 0.4347 0.28474 0.0
H1797 H 0.69915 0.46851 0.28928 0.0
C1798 C 0.6947 0.4981 0.33776 0.0
C1799 C 0.69527 0.51278 0.36461 0.0
C1800 C 0.70707 0.47623 0.33493 0.0
C1801 C 0.70654 0.5038 0.38861 0.0
C1802 C 0.7183 0.48176 0.38599 0.0
C1803 C 0.73382 0.44863 0.3565 0.0
C1804 C 0.73651 0.43668 0.32969 0.0
C1805 C 0.71944 0.46848 0.35926 0.0
C1806 C 0.72314 0.44348 0.30564 0.0
C1807 C 0.70853 0.463 0.30822 0.0
H1808 H 0.81206 0.46568 0.52584 0.0
H1809 H 0.82559 0.40232 0.46549 0.0
H1810 H 0.86626 0.43103 0.46496 0.0
H1811 H 0.89779 0.47366 0.48236 0.0
H1812 H 0.88497 0.53653 0.544 0.0
H1813 H 0.84371 0.50858 0.5432 0.0
C1814 C 0.82389 0.45845 0.51234 0.0
C1815 C 0.81588 0.43258 0.49499 0.0
C1816 C 0.84712 0.47489 0.51244 0.0
C1817 C 0.83148 0.42256 0.47851 0.0
C1818 C 0.85458 0.43892 0.47821 0.0
C1819 C 0.88576 0.48146 0.49522 0.0
C1820 C 0.89411 0.50718 0.51295 0.0
C1821 C 0.86249 0.46513 0.49502 0.0
C1822 C 0.87875 0.51678 0.53015 0.0
C1823 C 0.85531 0.5008 0.52977 0.0
H1824 H 0.41552 0.1727 0.3098 0.0
H1825 H 0.35479 0.11159 0.32418 0.0
H1826 H 0.32943 0.14506 0.3246 0.0
H1827 H 0.32175 0.19335 0.32246 0.0
H1828 H 0.38182 0.25672 0.31168 0.0
H1829 H 0.40787 0.22272 0.30891 0.0
C1830 C 0.39669 0.16603 0.31267 0.0
C1831 C 0.38826 0.13699 0.31605 0.0
C1832 C 0.38098 0.18705 0.31401 0.0
C1833 C 0.36328 0.1319 0.32059 0.0
C1834 C 0.34808 0.15182 0.32114 0.0
C1835 C 0.34047 0.20028 0.31933 0.0
C1836 C 0.34868 0.22948 0.31738 0.0
C1837 C 0.3563 0.17977 0.31802 0.0
C1838 C 0.37378 0.23569 0.31366 0.0
C1839 C 0.38913 0.21557 0.31187 0.0
H1840 H 0.31826 0.11627 0.51437 0.0
H1841 H 0.34095 0.18192 0.58593 0.0
H1842 H 0.37999 0.16766 0.5979 0.0
H1843 H 0.40731 0.1351 0.5892 0.0
H1844 H 0.38435 0.0707 0.51635 0.0
H1845 H 0.34615 0.08579 0.50422 0.0
C1846 C 0.33171 0.12767 0.53257 0.0
C1847 C 0.32628 0.15025 0.54919 0.0
C1848 C 0.35425 0.11936 0.53937 0.0
C1849 C 0.34433 0.16458 0.57257 0.0
C1850 C 0.36675 0.15633 0.57953 0.0
C1851 C 0.39415 0.1245 0.57046 0.0
C1852 C 0.39898 0.10126 0.55412 0.0
C1853 C 0.37191 0.13356 0.56322 0.0
C1854 C 0.38127 0.08803 0.52998 0.0
C1855 C 0.3593 0.09683 0.5228 0.0
H1856 H 0.72767 0.63114 0.34105 0.0
H1857 H 0.6821 0.6822 0.37398 0.0
H1858 H 0.71272 0.72398 0.37119 0.0
H1859 H 0.75315 0.74618 0.3594 0.0
H1860 H 0.79906 0.69408 0.32893 0.0
H1861 H 0.76777 0.6528 0.33039 0.0
C1862 C 0.72451 0.65143 0.34785 0.0
C1863 C 0.70283 0.65345 0.35842 0.0
C1864 C 0.7423 0.6753 0.34632 0.0
C1865 C 0.6987 0.67996 0.36615 0.0
C1866 C 0.71626 0.70389 0.36452 0.0
C1867 C 0.75625 0.72575 0.35315 0.0
C1868 C 0.77849 0.72325 0.34396 0.0
C1869 C 0.73824 0.70187 0.35471 0.0
C1870 C 0.78226 0.69662 0.33615 0.0
C1871 C 0.76429 0.67299 0.3369 0.0
H1872 H 0.91695 0.47458 0.83891 0.0
H1873 H 0.86221 0.49591 0.77867 0.0
H1874 H 0.83502 0.45031 0.77602 0.0
H1875 H 0.8253 0.40297 0.79137 0.0
H1876 H 0.87886 0.38351 0.85459 0.0
H1877 H 0.90669 0.42823 0.85548 0.0
C1878 C 0.89907 0.46949 0.82515 0.0
C1879 C 0.8921 0.49011 0.80933 0.0
C1880 C 0.88274 0.44267 0.82421 0.0
C1881 C 0.86857 0.4817 0.79161 0.0
C1882 C 0.85279 0.45511 0.79 0.0
C1883 C 0.8431 0.40823 0.80529 0.0
C1884 C 0.8495 0.38846 0.82269 0.0
C1885 C 0.85937 0.43518 0.8063 0.0
C1886 C 0.87286 0.39717 0.8407 0.0
C1887 C 0.88906 0.4232 0.84123 0.0
H1888 H 0.05793 0.87165 0.10371 0.0
H1889 H 0.11681 0.91068 0.17353 0.0
H1890 H 0.11519 0.95609 0.15948 0.0
H1891 H 0.09576 0.98532 0.12752 0.0
H1892 H 0.03632 0.94397 0.059 0.0
H1893 H 0.03969 0.89942 0.07236 0.0
C1894 C 0.07058 0.88991 0.11613 0.0
C1895 C 0.08746 0.88716 0.13998 0.0
C1896 C 0.06944 0.91595 0.10799 0.0
C1897 C 0.10355 0.91165 0.15521 0.0
C1898 C 0.1026 0.93779 0.14709 0.0
C1899 C 0.08371 0.96654 0.11533 0.0
C1900 C 0.06572 0.96848 0.09202 0.0
C1901 C 0.08549 0.94033 0.12352 0.0
C1902 C 0.05026 0.94362 0.07692 0.0
C1903 C 0.05215 0.91791 0.08462 0.0
H1904 H 0.93489 0.30502 0.95326 0.0
H1905 H 0.95089 0.24015 0.89686 0.0
H1906 H 0.91197 0.23668 0.86482 0.0
H1907 H 0.87464 0.25394 0.85093 0.0
H1908 H 0.85988 0.32206 0.9041 0.0
H1909 H 0.89678 0.32264 0.9389 0.0
C1910 C 0.9297 0.29002 0.93403 0.0
C1911 C 0.94608 0.27311 0.92729 0.0
C1912 C 0.90746 0.28887 0.91496 0.0
C1913 C 0.93892 0.25365 0.90239 0.0
C1914 C 0.91659 0.25166 0.88404 0.0
C1915 C 0.87931 0.26886 0.87021 0.0
C1916 C 0.86423 0.28791 0.87477 0.0
C1917 C 0.90093 0.26951 0.88975 0.0
C1918 C 0.87098 0.30718 0.89988 0.0
C1919 C 0.89211 0.30742 0.91987 0.0
H1920 H 0.60294 0.24032 0.61925 0.0
H1921 H 0.55283 0.22634 0.67713 0.0
H1922 H 0.54248 0.17671 0.65901 0.0
H1923 H 0.54753 0.13696 0.6269 0.0
H1924 H 0.60041 0.14927 0.57189 0.0
H1925 H 0.60961 0.19946 0.5883 0.0
C1926 C 0.58952 0.22638 0.62757 0.0
C1927 C 0.57785 0.23728 0.64878 0.0
C1928 C 0.58423 0.19743 0.61759 0.0
C1929 C 0.56149 0.2187 0.66029 0.0
C1930 C 0.55564 0.19024 0.64999 0.0
C1931 C 0.56108 0.15057 0.61841 0.0
C1932 C 0.57312 0.13913 0.59795 0.0
C1933 C 0.56682 0.17933 0.62861 0.0
C1934 C 0.59088 0.15728 0.58764 0.0
C1935 C 0.59613 0.18607 0.59705 0.0
H1936 H 0.58537 0.75272 0.43221 0.0
H1937 H 0.58815 0.83993 0.43567 0.0
H1938 H 0.62674 0.84628 0.4179 0.0
H1939 H 0.65787 0.82677 0.3972 0.0
H1940 H 0.65574 0.73954 0.39306 0.0
H1941 H 0.61906 0.73362 0.41467 0.0
C1942 C 0.59479 0.77319 0.42977 0.0
C1943 C 0.58384 0.79587 0.4356 0.0
C1944 C 0.61699 0.77669 0.41872 0.0
C1945 C 0.59613 0.82213 0.43157 0.0
C1946 C 0.6182 0.82578 0.4212 0.0
C1947 C 0.64978 0.80649 0.40145 0.0
C1948 C 0.65981 0.78367 0.39302 0.0
C1949 C 0.62856 0.80315 0.41405 0.0
C1950 C 0.64843 0.75755 0.39857 0.0
C1951 C 0.62741 0.75411 0.41121 0.0
H1952 H 0.0889 0.28964 0.47697 0.0
H1953 H 0.03217 0.23094 0.41672 0.0
H1954 H 0.0414 0.19327 0.44121 0.0
H1955 H 0.06048 0.17903 0.48404 0.0
H1956 H 0.11675 0.23798 0.54479 0.0
H1957 H 0.11287 0.2738 0.51558 0.0
C1958 C 0.07884 0.26851 0.46896 0.0
C1959 C 0.05953 0.26299 0.44558 0.0
C1960 C 0.08397 0.24721 0.48335 0.0
C1961 C 0.04698 0.23559 0.43489 0.0
C1962 C 0.05217 0.21413 0.44895 0.0
C1963 C 0.07253 0.19944 0.49048 0.0
C1964 C 0.08857 0.20602 0.51679 0.0
C1965 C 0.06992 0.21994 0.47384 0.0
C1966 C 0.10388 0.23263 0.5249 0.0
C1967 C 0.10168 0.25307 0.50823 0.0
H1968 H 0.6518 0.25156 0.22013 0.0
H1969 H 0.65122 0.3078 0.29475 0.0
H1970 H 0.69644 0.31993 0.30451 0.0
H1971 H 0.73574 0.31264 0.293 0.0
H1972 H 0.73638 0.25179 0.22222 0.0
H1973 H 0.69128 0.24352 0.20921 0.0
C1974 C 0.66163 0.26658 0.23843 0.0
C1975 C 0.6484 0.27892 0.2567 0.0
C1976 C 0.68747 0.27267 0.24433 0.0
C1977 C 0.66117 0.29802 0.28055 0.0
C1978 C 0.68693 0.30501 0.28602 0.0
C1979 C 0.726 0.298 0.27438 0.0
C1980 C 0.73916 0.28324 0.2581 0.0
C1981 C 0.70022 0.2923 0.26816 0.0
C1982 C 0.72646 0.26362 0.23465 0.0
C1983 C 0.70078 0.2588 0.22741 0.0
H1984 H 0.55195 0.89163 0.98293 0.0
H1985 H 0.53763 0.94216 0.91898 0.0
H1986 H 0.54149 0.98169 0.95575 0.0
H1987 H 0.54814 1.00134 1.00545 0.0
H1988 H 0.56341 0.95171 0.06972 0.0
H1989 H 0.5591 0.91167 0.03297 0.0
C1990 C 0.54979 0.91129 0.97686 0.0
C1991 C 0.54452 0.91384 0.94804 0.0
C1992 C 0.55172 0.93378 0.99808 0.0
C1993 C 0.5418 0.93956 0.94085 0.0
C1994 C 0.54383 0.96211 0.96188 0.0
C1995 C 0.55044 0.98178 1.01159 0.0
C1996 C 0.55605 0.97947 0.04034 0.0
C1997 C 0.54856 0.95932 0.99047 0.0
C1998 C 0.55893 0.95393 0.04778 0.0
C1999 C 0.55666 0.93118 0.02677 0.0
H2000 H 0.05291 0.81434 0.82473 0.0
H2001 H 1.00959 0.74327 0.76557 0.0
H2002 H 0.97239 0.75029 0.78284 0.0
H2003 H 0.95153 0.78007 0.8106 0.0
H2004 H 0.99494 0.85273 0.86713 0.0
H2005 H 0.03277 0.84162 0.85497 0.0
C2006 C 0.03545 0.80002 0.81581 0.0
C2007 C 0.03414 0.77844 0.7936 0.0
C2008 C 1.01405 0.80472 0.82516 0.0
C2009 C 1.01123 0.76015 0.78255 0.0
C2010 C 0.98989 0.76424 0.79233 0.0
C2011 C 0.96933 0.79312 0.82067 0.0
C2012 C 0.97048 0.81728 0.83965 0.0
C2013 C 0.99098 0.78697 0.813 0.0
C2014 C 0.99362 0.83419 0.85229 0.0
C2015 C 1.01522 0.82783 0.84535 0.0
H2016 H 0.15186 0.10249 0.96541 0.0
H2017 H 0.10193 0.05033 0.89385 0.0
H2018 H 0.075 0.03152 0.92507 0.0
H2019 H 0.0658 0.02877 0.97315 0.0
H2020 H 0.11324 0.08457 0.04397 0.0
H2021 H 0.14077 0.10261 1.01301 0.0
C2022 C 0.13498 0.08717 0.95655 0.0
C2023 C 0.12915 0.07793 0.92701 0.0
C2024 C 0.11915 0.07672 0.97473 0.0
C2025 C 0.10699 0.05814 0.91624 0.0
C2026 C 0.09159 0.04717 0.93421 0.0
C2027 C 0.08222 0.0448 0.98188 0.0
C2028 C 0.08764 0.05467 1.01127 0.0
C2029 C 0.09753 0.05607 0.96356 0.0
C2030 C 0.10872 0.07604 0.02177 0.0
C2031 C 0.12448 0.08654 1.00393 0.0
H2032 H 0.80006 0.39618 0.59248 0.0
H2033 H 0.73266 0.33332 0.56763 0.0
H2034 H 0.74423 0.3112 0.60822 0.0
H2035 H 0.77439 0.30846 0.649 0.0
H2036 H 0.84356 0.36887 0.67163 0.0
H2037 H 0.83033 0.39348 0.63371 0.0
C2038 C 0.78776 0.37792 0.59631 0.0
C2039 C 0.76551 0.36639 0.57738 0.0
C2040 C 0.79498 0.36476 0.61899 0.0
C2041 C 0.74986 0.34249 0.58209 0.0
C2042 C 0.75652 0.32981 0.60515 0.0
C2043 C 0.78676 0.32678 0.64543 0.0
C2044 C 0.81004 0.33663 0.6629 0.0
C2045 C 0.77926 0.34044 0.62335 0.0
C2046 C 0.8255 0.3609 0.65851 0.0
C2047 C 0.81798 0.37494 0.63682 0.0
H2048 H 0.44359 0.06482 0.42738 0.0
H2049 H 0.498 0.07583 0.37398 0.0
H2050 H 0.52992 0.07353 0.41338 0.0
H2051 H 0.54377 0.0675 0.46368 0.0
H2052 H 0.49013 0.05686 0.51786 0.0
H2053 H 0.45784 0.05986 0.47866 0.0
C2054 C 0.46243 0.06702 0.42411 0.0
C2055 C 0.4675 0.07083 0.39638 0.0
C2056 C 0.48145 0.06554 0.44766 0.0
C2057 C 0.49258 0.07317 0.39404 0.0
C2058 C 0.51121 0.07172 0.417 0.0
C2059 C 0.52506 0.06587 0.46726 0.0
C2060 C 0.52021 0.06183 0.49489 0.0
C2061 C 0.50609 0.06777 0.44403 0.0
C2062 C 0.49529 0.05991 0.49776 0.0
C2063 C 0.47652 0.06165 0.47489 0.0
H2064 H 0.80667 0.75285 0.13557 0.0
H2065 H 0.75646 0.67658 0.13945 0.0
H2066 H 0.75613 0.69248 0.18881 0.0
H2067 H 0.77036 0.72791 0.2319 0.0
H2068 H 0.82343 0.8023 0.22966 0.0
H2069 H 0.82223 0.78764 0.17935 0.0
C2070 C 0.79573 0.73967 0.14723 0.0
C2071 C 0.78163 0.71342 0.13345 0.0
C2072 C 0.79595 0.7488 0.17619 0.0
C2073 C 0.76767 0.69674 0.14924 0.0
C2074 C 0.76734 0.7059 0.17761 0.0
C2075 C 0.78138 0.74105 0.22026 0.0
C2076 C 0.7966 0.76648 0.2345 0.0
C2077 C 0.78135 0.73191 0.19141 0.0
C2078 C 0.81132 0.78282 0.21921 0.0
C2079 C 0.81072 0.77436 0.19039 0.0
H2080 H 0.10479 0.03949 0.76286 0.0
H2081 H 0.15734 0.11467 0.76127 0.0
H2082 H 0.14172 0.112 0.71102 0.0
H2083 H 0.11273 0.08884 0.66737 0.0
H2084 H 0.06282 1.0112 0.66705 0.0
H2085 H 0.07782 1.01405 0.71771 0.0
C2086 C 0.11283 0.05521 0.75144 0.0
C2087 C 0.13216 0.0774 0.76597 0.0
C2088 C 0.10422 0.05306 0.72206 0.0
C2089 C 0.14256 0.09736 0.75071 0.0
C2090 C 0.13356 0.09589 0.72192 0.0
C2091 C 0.10513 0.0725 0.67836 0.0
C2092 C 0.08643 0.04998 0.66336 0.0
C2093 C 0.11434 0.07392 0.70736 0.0
C2094 C 0.07716 0.02879 0.67796 0.0
C2095 C 0.08571 0.03047 0.70702 0.0
H2096 H 0.7467 0.32921 0.44359 0.0
H2097 H 0.73281 0.38824 0.38865 0.0
H2098 H 0.74576 0.36098 0.35084 0.0
H2099 H 0.76764 0.32531 0.33643 0.0
H2100 H 0.78441 0.26856 0.39263 0.0
H2101 H 0.76436 0.29076 0.42747 0.0
C2102 C 0.7459 0.33593 0.42318 0.0
C2103 C 0.73922 0.36112 0.41923 0.0
C2104 C 0.75479 0.32117 0.40216 0.0
C2105 C 0.73804 0.3691 0.39243 0.0
C2106 C 0.74582 0.35376 0.37091 0.0
C2107 C 0.76676 0.31769 0.35624 0.0
C2108 C 0.77779 0.29568 0.3623 0.0
C2109 C 0.75541 0.33064 0.37608 0.0
C2110 C 0.77629 0.28572 0.38779 0.0
C2111 C 0.76474 0.29831 0.40757 0.0
H2112 H 0.44249 0.04536 0.194 0.0
H2113 H 0.50532 0.08212 0.25982 0.0
H2114 H 0.5327 0.07971 0.22577 0.0
H2115 H 0.54101 0.06722 0.17613 0.0
H2116 H 0.47862 0.03211 0.10949 0.0
H2117 H 0.45087 0.03398 0.14352 0.0
C2118 C 0.46213 0.05305 0.20134 0.0
C2119 C 0.47074 0.06413 0.23126 0.0
C2120 C 0.47882 0.05179 0.18061 0.0
C2121 C 0.49689 0.07353 0.23814 0.0
C2122 C 0.51307 0.07209 0.21814 0.0
C2123 C 0.52138 0.05966 0.16861 0.0
C2124 C 0.51302 0.049 0.13867 0.0
C2125 C 0.50463 0.06119 0.18908 0.0
C2126 C 0.48684 0.04024 0.13131 0.0
C2127 C 0.47049 0.04137 0.15132 0.0
H2128 H 0.80068 0.74773 0.99289 0.0
H2129 H 0.7479 0.6837 0.93381 0.0
H2130 H 0.75623 0.70862 0.89517 0.0
H2131 H 0.78005 0.74798 0.87657 0.0
H2132 H 0.83394 0.81105 0.93535 0.0
H2133 H 0.8237 0.78766 0.97447 0.0
C2134 C 0.79072 0.73935 0.97167 0.0
C2135 C 0.77349 0.71353 0.96689 0.0
C2136 C 0.79597 0.75377 0.94885 0.0
C2137 C 0.76126 0.70329 0.93874 0.0
C2138 C 0.76605 0.71762 0.91631 0.0
C2139 C 0.78936 0.75681 0.89794 0.0
C2140 C 0.80779 0.78165 0.90256 0.0
C2141 C 0.78359 0.7428 0.92086 0.0
C2142 C 0.8197 0.79217 0.9307 0.0
C2143 C 0.81384 0.77869 0.95335 0.0
H2144 H 0.88535 0.15448 0.02791 0.0
H2145 H 0.94372 0.17705 0.10093 0.0
H2146 H 0.96994 0.15368 0.07502 0.0
H2147 H 0.97142 0.11723 0.03657 0.0
H2148 H 0.90974 0.08891 0.96759 0.0
H2149 H 0.88959 0.12438 0.98651 0.0
C2150 C 0.90405 0.15483 0.03795 0.0
C2151 C 0.91244 0.16669 0.06647 0.0
C2152 C 0.91818 0.13996 0.02362 0.0
C2153 C 0.93684 0.16777 0.07907 0.0
C2154 C 0.95167 0.15417 0.06434 0.0
C2155 C 0.95404 0.11972 0.02517 0.0
C2156 C 0.94191 0.10074 1.0008 0.0
C2157 C 0.94189 0.13875 0.0373 0.0
C2158 C 0.91928 0.10353 0.98627 0.0
C2159 C 0.90773 0.12356 0.99726 0.0
H2160 H 0.42874 0.42952 0.0813 0.0
H2161 H 0.40584 0.48788 0.13877 0.0
H2162 H 0.44509 0.52083 0.14285 0.0
H2163 H 0.48411 0.5356 0.12626 0.0
H2164 H 0.50715 0.47909 0.06719 0.0
H2165 H 0.47023 0.44341 0.06743 0.0
C2166 C 0.43251 0.44931 0.095 0.0
C2167 C 0.41385 0.45636 0.1092 0.0
C2168 C 0.45529 0.46877 0.09676 0.0
C2169 C 0.41942 0.48201 0.12712 0.0
C2170 C 0.44199 0.50095 0.1295 0.0
C2171 C 0.48137 0.5153 0.1138 0.0
C2172 C 0.49892 0.51016 0.09703 0.0
C2173 C 0.45977 0.49498 0.11376 0.0
C2174 C 0.49457 0.48369 0.08081 0.0
C2175 C 0.47319 0.46325 0.0808 0.0
H2176 H 0.43235 0.58851 0.84431 0.0
H2177 H 0.44138 0.57173 0.75801 0.0
H2178 H 0.42483 0.61199 0.74756 0.0
H2179 H 0.402 0.6476 0.76174 0.0
H2180 H 0.39277 0.66289 0.84835 0.0
H2181 H 0.41552 0.62802 0.86 0.0
C2182 C 0.43136 0.5942 0.82342 0.0
C2183 C 0.43793 0.57723 0.80192 0.0
C2184 C 0.42145 0.61692 0.81755 0.0
C2185 C 0.43663 0.5847 0.77494 0.0
C2186 C 0.42687 0.60749 0.76891 0.0
C2187 C 0.40532 0.64354 0.78323 0.0
C2188 C 0.39547 0.65773 0.80407 0.0
C2189 C 0.41828 0.62308 0.78981 0.0
C2190 C 0.40024 0.65252 0.83191 0.0
C2191 C 0.41311 0.63238 0.83859 0.0
H2192 H 0.29272 0.68742 0.62608 0.0
H2193 H 0.32675 0.62691 0.66242 0.0
H2194 H 0.28641 0.60105 0.66809 0.0
H2195 H 0.24114 0.59229 0.65586 0.0
H2196 H 0.20728 0.65085 0.61521 0.0
H2197 H 0.24776 0.68076 0.6176 0.0
C2198 C 0.29116 0.66874 0.63555 0.0
C2199 C 0.31212 0.65832 0.64297 0.0
C2200 C 0.26796 0.65353 0.63753 0.0
C2201 C 0.31043 0.63459 0.65581 0.0
C2202 C 0.28748 0.61995 0.65913 0.0
C2203 C 0.2427 0.61183 0.64802 0.0
C2204 C 0.22147 0.61923 0.63496 0.0
C2205 C 0.26603 0.6286 0.64891 0.0
C2206 C 0.22355 0.64453 0.62476 0.0
C2207 C 0.24661 0.66171 0.62631 0.0
H2208 H 0.76099 0.97735 0.8631 0.0
H2209 H 0.69051 0.9375 0.81153 0.0
H2210 H 0.70484 0.89402 0.8047 0.0
H2211 H 0.73829 0.86487 0.81266 0.0
H2212 H 0.80911 0.90689 0.86251 0.0
H2213 H 0.79406 0.94934 0.86988 0.0
C2214 C 0.74833 0.9594 0.8502 0.0
C2215 C 0.72378 0.96268 0.83816 0.0
C2216 C 0.75717 0.93348 0.84572 0.0
C2217 C 0.7091 0.93759 0.82152 0.0
C2218 C 0.71757 0.91198 0.81752 0.0
C2219 C 0.75078 0.88311 0.82525 0.0
C2220 C 0.77581 0.88066 0.83694 0.0
C2221 C 0.74173 0.90917 0.82937 0.0
C2222 C 0.79028 0.90615 0.85287 0.0
C2223 C 0.78142 0.93122 0.85723 0.0
H2224 H 0.79358 0.99047 0.57227 0.0
H2225 H 0.7638 0.91424 0.60005 0.0
H2226 H 0.72388 0.92758 0.59873 0.0
H2227 H 0.69699 0.96147 0.58931 0.0
H2228 H 0.72892 0.03776 0.56285 0.0
H2229 H 0.76797 0.02376 0.56403 0.0
C2230 C 0.77846 0.97653 0.57803 0.0
C2231 C 0.78204 0.95111 0.58608 0.0
C2232 C 0.75564 0.98447 0.57748 0.0
C2233 C 0.76192 0.93386 0.59374 0.0
C2234 C 0.73896 0.94152 0.59292 0.0
C2235 C 0.71248 0.975 0.58376 0.0
C2236 C 0.7097 1.00095 0.5762 0.0
C2237 C 0.73549 0.96683 0.58473 0.0
C2238 C 0.73027 1.01802 0.56921 0.0
C2239 C 0.75274 1.00993 0.56973 0.0
H2240 H 0.38526 0.43855 0.76932 0.0
H2241 H 0.44036 0.4165 0.82858 0.0
H2242 H 0.40962 0.37712 0.83622 0.0
H2243 H 0.36581 0.35264 0.83031 0.0
H2244 H 0.31136 0.37243 0.76833 0.0
H2245 H 0.34282 0.40916 0.7578 0.0
C2246 C 0.39054 0.42491 0.78369 0.0
C2247 C 0.41485 0.431 0.79918 0.0
C2248 C 0.37277 0.40207 0.78768 0.0
C2249 C 0.42167 0.4126 0.8169 0.0
C2250 C 0.40405 0.39011 0.82131 0.0
C2251 C 0.36092 0.36438 0.81393 0.0
C2252 C 0.3361 0.35961 0.80019 0.0
C2253 C 0.37933 0.38517 0.80751 0.0
C2254 C 0.33019 0.3756 0.77938 0.0
C2255 C 0.34824 0.3966 0.77325 0.0
H2256 H 0.20475 0.64004 0.36265 0.0
H2257 H 0.24844 0.59384 0.31917 0.0
H2258 H 0.2749 0.6372 0.31297 0.0
H2259 H 0.28607 0.68986 0.31844 0.0
H2260 H 0.24391 0.73574 0.36492 0.0
H2261 H 0.21773 0.69246 0.37117 0.0
C2262 C 0.22016 0.63919 0.35198 0.0
C2263 C 0.22411 0.6124 0.34179 0.0
C2264 C 0.2361 0.66502 0.34878 0.0
C2265 C 0.2445 0.61316 0.32787 0.0
C2266 C 0.25982 0.63842 0.3241 0.0
C2267 C 0.27124 0.69068 0.33005 0.0
C2268 C 0.26769 0.7175 0.3411 0.0
C2269 C 0.25592 0.66478 0.33424 0.0
C2270 C 0.24802 0.71657 0.35621 0.0
C2271 C 0.23263 0.6913 0.35972 0.0
H2272 H 0.54117 0.72339 0.54243 0.0
H2273 H 0.50786 0.6775 0.45976 0.0
H2274 H 0.51336 0.63449 0.47618 0.0
H2275 H 0.52893 0.60928 0.51386 0.0
H2276 H 0.56227 0.65479 0.59634 0.0
H2277 H 0.55587 0.69789 0.58035 0.0
C2278 C 0.53499 0.704 0.52797 0.0
C2279 C 0.52403 0.70416 0.49964 0.0
C2280 C 0.53826 0.6789 0.53766 0.0
C2281 C 0.51632 0.67847 0.48154 0.0
C2282 C 0.51945 0.65364 0.491 0.0
C2283 C 0.53406 0.62847 0.52855 0.0
C2284 C 0.54547 0.62828 0.5566 0.0
C2285 C 0.53042 0.65348 0.51901 0.0
C2286 C 0.55327 0.6539 0.57478 0.0
C2287 C 0.54959 0.67871 0.56557 0.0
H2288 H 0.675 0.29713 0.70365 0.0
H2289 H 0.6595 0.3644 0.7574 0.0
H2290 H 0.69887 0.36926 0.78911 0.0
H2291 H 0.73719 0.35342 0.80303 0.0
H2292 H 0.75157 0.2836 0.75205 0.0
H2293 H 0.7136 0.28076 0.71811 0.0
C2294 C 0.68039 0.31309 0.72211 0.0
C2295 C 0.66419 0.33064 0.72778 0.0
C2296 C 0.70295 0.31518 0.74101 0.0
C2297 C 0.67144 0.35073 0.75226 0.0
C2298 C 0.69403 0.35348 0.77051 0.0
C2299 C 0.73216 0.33764 0.78441 0.0
C2300 C 0.74752 0.3188 0.7802 0.0
C2301 C 0.70986 0.33567 0.76533 0.0
C2302 C 0.7403 0.29838 0.75598 0.0
C2303 C 0.7185 0.29677 0.73651 0.0
H2304 H 0.04505 0.38551 0.97134 0.0
H2305 H 1.00265 0.3486 0.02889 0.0
H2306 H 1.00703 0.39455 0.05659 0.0
H2307 H 0.02218 0.44622 0.06358 0.0
H2308 H 0.06703 0.48108 1.00692 0.0
H2309 H 0.0623 0.43536 0.97992 0.0
C2310 C 0.03689 0.38743 0.99007 0.0
C2311 C 0.02348 0.36351 0.9979 0.0
C2312 C 0.03978 0.41381 1.00605 0.0
C2313 C 1.01324 0.36653 0.02243 0.0
C2314 C 1.0156 0.3929 0.03818 0.0
C2315 C 0.03085 0.44371 0.04532 0.0
C2316 C 0.04486 0.46725 0.03727 0.0
C2317 C 0.02865 0.41685 0.03006 0.0
C2318 C 0.05624 0.46347 1.01373 0.0
C2319 C 0.05353 0.43726 0.99817 0.0
H2320 H 0.99849 0.79425 0.17178 0.0
H2321 H 0.0565 0.82225 0.24496 0.0
H2322 H 0.02576 0.81982 0.27551 0.0
H2323 H 0.98217 0.8086 0.28185 0.0
H2324 H 0.92445 0.78111 0.20829 0.0
H2325 H 0.95518 0.78428 0.17797 0.0
C2326 C 1.00455 0.79998 0.1944 0.0
C2327 C 0.03008 0.80848 0.20579 0.0
C2328 C 0.98667 0.79844 0.21202 0.0
C2329 C 0.03718 0.81567 0.23531 0.0
C2330 C 1.01951 0.81424 0.25291 0.0
C2331 C 0.97621 0.80356 0.25918 0.0
C2332 C 0.95071 0.79436 0.24767 0.0
C2333 C 0.99416 0.80554 0.24156 0.0
C2334 C 0.94373 0.78771 0.21809 0.0
C2335 C 0.96139 0.7897 0.20058 0.0
H2336 H 0.52596 0.33509 0.20771 0.0
H2337 H 0.60464 0.34259 0.22629 0.0
H2338 H 0.61117 0.38494 0.20549 0.0
H2339 H 0.59383 0.41258 0.17242 0.0
H2340 H 0.51501 0.4031 0.15166 0.0
H2341 H 0.50906 0.36893 0.18322 0.0
C2342 C 0.54454 0.34658 0.208 0.0
C2343 C 0.56476 0.33562 0.21773 0.0
C2344 C 0.54804 0.37013 0.1951 0.0
C2345 C 0.58881 0.35071 0.21867 0.0
C2346 C 0.59252 0.37468 0.20647 0.0
C2347 C 0.57544 0.40341 0.17541 0.0
C2348 C 0.55483 0.40957 0.15943 0.0
C2349 C 0.5722 0.38346 0.19306 0.0
C2350 C 0.53106 0.39829 0.16369 0.0
C2351 C 0.52767 0.37873 0.18158 0.0
H2352 H 0.95731 0.3362 0.42118 0.0
H2353 H 0.97486 0.28124 0.35565 0.0
H2354 H 0.9314 0.26748 0.33288 0.0
H2355 H 0.8893 0.27362 0.32987 0.0
H2356 H 0.87173 0.33203 0.39238 0.0
H2357 H 0.91437 0.34216 0.41818 0.0
C2358 C 0.95142 0.3212 0.40195 0.0
C2359 C 0.96901 0.31016 0.38954 0.0
C2360 C 0.92654 0.31409 0.38856 0.0
C2361 C 0.96149 0.29039 0.365 0.0
C2362 C 0.93671 0.28246 0.35213 0.0
C2363 C 0.89464 0.28822 0.34941 0.0
C2364 C 0.87738 0.30186 0.35942 0.0
C2365 C 0.91919 0.29456 0.36345 0.0
C2366 C 0.88473 0.32121 0.38438 0.0
C2367 C 0.90906 0.32698 0.39909 0.0
H2368 H 0.05289 0.71146 0.64998 0.0
H2369 H 0.06875 0.66716 0.71877 0.0
H2370 H 0.07233 0.62778 0.68545 0.0
H2371 H 0.07238 0.607 0.63718 0.0
H2372 H 0.05755 0.65173 0.56842 0.0
H2373 H 0.05328 0.69074 0.60166 0.0
C2374 C 0.05659 0.69294 0.65762 0.0
C2375 C 0.0601 0.69189 0.68669 0.0
C2376 C 0.05967 0.67102 0.63853 0.0
C2377 C 0.06563 0.66816 0.69642 0.0
C2378 C 0.06797 0.64586 0.67744 0.0
C2379 C 0.06848 0.6254 0.62945 0.0
C2380 C 0.06527 0.62651 0.60037 0.0
C2381 C 0.06547 0.64732 0.64854 0.0
C2382 C 0.06026 0.65048 0.59071 0.0
C2383 C 0.05752 0.67261 0.60966 0.0
H2384 H 0.61443 0.87361 0.87609 0.0
H2385 H 0.56145 0.79759 0.84051 0.0
H2386 H 0.59261 0.77911 0.81943 0.0
H2387 H 0.63552 0.78285 0.81468 0.0
H2388 H 0.6893 0.85857 0.84974 0.0
H2389 H 0.65741 0.87889 0.86745 0.0
C2390 C 0.6098 0.85326 0.86327 0.0
C2391 C 0.58578 0.83701 0.85942 0.0
C2392 C 0.62797 0.8426 0.85143 0.0
C2393 C 0.57982 0.81052 0.8432 0.0
C2394 C 0.59763 0.79989 0.83135 0.0
C2395 C 0.64021 0.80402 0.82563 0.0
C2396 C 0.6648 0.81901 0.8311 0.0
C2397 C 0.62185 0.81552 0.83574 0.0
C2398 C 0.67057 0.84634 0.84571 0.0
C2399 C 0.65233 0.85803 0.85576 0.0
H2400 H 0.51895 0.53395 0.74354 0.0
H2401 H 0.45003 0.48668 0.69344 0.0
H2402 H 0.46471 0.49746 0.65025 0.0
H2403 H 0.49744 0.52141 0.62619 0.0
H2404 H 0.56487 0.57096 0.67788 0.0
H2405 H 0.55064 0.55826 0.72021 0.0
C2406 C 0.50712 0.52581 0.7232 0.0
C2407 C 0.48337 0.50924 0.72205 0.0
C2408 C 0.51549 0.53268 0.69837 0.0
C2409 C 0.46837 0.49937 0.69525 0.0
C2410 C 0.4768 0.50558 0.67042 0.0
C2411 C 0.50899 0.52937 0.64672 0.0
C2412 C 0.53231 0.5473 0.64853 0.0
C2413 C 0.50036 0.52237 0.67159 0.0
C2414 C 0.54684 0.55739 0.67554 0.0
C2415 C 0.53872 0.55005 0.69995 0.0
H2416 H 0.79374 0.19189 0.03608 0.0
H2417 H 0.86484 0.24911 0.05784 0.0
H2418 H 0.84982 0.27998 0.02811 0.0
H2419 H 0.8173 0.2906 0.99579 0.0
H2420 H 0.74581 0.23465 0.97281 0.0
H2421 H 0.76022 0.20326 1.00329 0.0
C2422 C 0.80593 0.21102 0.03411 0.0
C2423 C 0.83033 0.21823 0.0492 0.0
C2424 C 0.7971 0.22897 0.01709 0.0
C2425 C 0.84592 0.24316 0.04661 0.0
C2426 C 0.83737 0.26088 0.02965 0.0
C2427 C 0.80457 0.27192 0.99798 0.0
C2428 C 0.78038 0.26522 0.98258 0.0
C2429 C 0.81302 0.25408 1.01502 0.0
C2430 C 0.76448 0.24035 0.98475 0.0
C2431 C 0.77274 0.2224 1.00203 0.0
H2432 H 0.16445 0.5446 0.22392 0.0
H2433 H 0.10511 0.51273 0.26567 0.0
H2434 H 0.07515 0.51357 0.2242 0.0
H2435 H 0.06389 0.52384 0.17549 0.0
H2436 H 0.12163 0.55449 0.13145 0.0
H2437 H 0.15269 0.55347 0.17287 0.0
C2438 C 0.14501 0.53758 0.22412 0.0
C2439 C 0.13793 0.52843 0.24941 0.0
C2440 C 0.1269 0.53796 0.19904 0.0
C2441 C 0.1121 0.51981 0.24771 0.0
C2442 C 0.09453 0.52033 0.22351 0.0
C2443 C 0.08326 0.53025 0.17454 0.0
C2444 C 0.08959 0.53929 0.14913 0.0
C2445 C 0.10144 0.52944 0.19894 0.0
C2446 C 0.11531 0.54735 0.14972 0.0
C2447 C 0.13338 0.54679 0.17391 0.0
H2448 H 0.8581 0.90702 0.48937 0.0
H2449 H 0.80642 0.85145 0.52431 0.0
H2450 H 0.79491 0.81982 0.47909 0.0
H2451 H 0.79926 0.8081 0.42859 0.0
H2452 H 0.85505 0.86167 0.39697 0.0
H2453 H 0.86526 0.89357 0.44156 0.0
C2454 C 0.8445 0.8879 0.48737 0.0
C2455 C 0.83319 0.88188 0.51057 0.0
C2456 C 0.83864 0.8693 0.46158 0.0
C2457 C 0.81557 0.85677 0.5071 0.0
C2458 C 0.80892 0.83865 0.48109 0.0
C2459 C 0.81373 0.82668 0.43159 0.0
C2460 C 0.82631 0.83247 0.40921 0.0
C2461 C 0.82026 0.84468 0.45804 0.0
C2462 C 0.84515 0.85658 0.4137 0.0
C2463 C 0.85097 0.87493 0.43926 0.0
H2464 H 0.46926 0.54317 0.9053 0.0
H2465 H 0.5099 0.48585 0.87268 0.0
H2466 H 0.53485 0.49034 0.9199 0.0
H2467 H 0.54393 0.50935 0.9715 0.0
H2468 H 0.50427 0.56889 1.00216 0.0
H2469 H 0.48032 0.56466 0.95504 0.0
C2470 C 0.48372 0.53179 0.9084 0.0
C2471 C 0.48756 0.51409 0.88531 0.0
C2472 C 0.49815 0.53474 0.93552 0.0
C2473 C 0.50658 0.49977 0.88987 0.0
C2474 C 0.52075 0.5022 0.917 0.0
C2475 C 0.53009 0.52143 0.96783 0.0
C2476 C 0.52592 0.53932 0.99068 0.0
C2477 C 0.51652 0.51938 0.94016 0.0
C2478 C 0.50805 0.55503 0.98523 0.0
C2479 C 0.49422 0.55259 0.95818 0.0
H2480 H 0.89398 0.21763 0.21537 0.0
H2481 H 0.91675 0.28719 0.17382 0.0
H2482 H 0.90401 0.31767 0.20927 0.0
H2483 H 0.87706 0.32174 0.24473 0.0
H2484 H 0.85075 0.25006 0.28152 0.0
H2485 H 0.87391 0.22352 0.25563 0.0
C2486 C 0.89708 0.23965 0.2146 0.0
C2487 C 0.9055 0.24991 0.19144 0.0
C2488 C 0.88799 0.25657 0.23368 0.0
C2489 C 0.90985 0.27862 0.19118 0.0
C2490 C 0.90213 0.29601 0.21117 0.0
C2491 C 0.87669 0.30041 0.24724 0.0
C2492 C 0.86136 0.28761 0.26427 0.0
C2493 C 0.8895 0.28475 0.23123 0.0
C2494 C 0.86141 0.26017 0.26777 0.0
C2495 C 0.87494 0.24494 0.25309 0.0
H2496 H 0.12442 0.54038 0.40034 0.0
H2497 H 0.19409 0.54131 0.4522 0.0
H2498 H 0.17575 0.54573 0.49423 0.0
H2499 H 0.13957 0.54984 0.51929 0.0
H2500 H 0.06981 0.54892 0.46781 0.0
H2501 H 0.08801 0.54424 0.42552 0.0
C2502 C 0.13589 0.54131 0.42063 0.0
C2503 C 0.16159 0.54008 0.42122 0.0
C2504 C 0.12483 0.54413 0.44627 0.0
C2505 C 0.17474 0.54184 0.44918 0.0
C2506 C 0.16402 0.54452 0.47404 0.0
C2507 C 0.12803 0.54874 0.499 0.0
C2508 C 0.10241 0.55012 0.49852 0.0
C2509 C 0.13899 0.54581 0.47337 0.0
C2510 C 0.08912 0.54827 0.47064 0.0
C2511 C 0.09978 0.54545 0.44569 0.0
H2512 H 0.82608 0.8401 0.65412 0.0
H2513 H 0.84712 0.92258 0.70161 0.0
H2514 H 0.8409 0.90386 0.74492 0.0
H2515 H 0.82866 0.86342 0.76999 0.0
H2516 H 0.80902 0.78125 0.72151 0.0
H2517 H 0.81556 0.80027 0.67891 0.0
C2518 C 0.82934 0.85411 0.67389 0.0
C2519 C 0.83702 0.88297 0.67409 0.0
C2520 C 0.82596 0.84308 0.69904 0.0
C2521 C 0.84122 0.90039 0.70035 0.0
C2522 C 0.83763 0.88961 0.72532 0.0
C2523 C 0.82596 0.84965 0.75016 0.0
C2524 C 0.81817 0.82062 0.74946 0.0
C2525 C 0.82992 0.8609 0.72509 0.0
C2526 C 0.81488 0.80349 0.7232 0.0
C2527 C 0.81861 0.81442 0.69855 0.0
H2528 H 0.69227 0.46284 0.48976 0.0
H2529 H 0.6977 0.40553 0.54876 0.0
H2530 H 0.68285 0.43508 0.58275 0.0
H2531 H 0.67621 0.481 0.59883 0.0
H2532 H 0.67006 0.53791 0.53936 0.0
H2533 H 0.67882 0.50525 0.50314 0.0
C2534 C 0.68958 0.45635 0.50973 0.0
C2535 C 0.69692 0.43245 0.51697 0.0
C2536 C 0.68217 0.47404 0.52973 0.0
C2537 C 0.69262 0.42406 0.54268 0.0
C2538 C 0.6845 0.44119 0.5624 0.0
C2539 C 0.67636 0.48621 0.57789 0.0
C2540 C 0.67334 0.51245 0.57237 0.0
C2541 C 0.68062 0.46695 0.55671 0.0
C2542 C 0.67355 0.51853 0.54487 0.0
C2543 C 0.67805 0.49961 0.52384 0.0
H2544 H 0.21286 0.12382 0.56952 0.0
H2545 H 0.17645 0.17404 0.51933 0.0
H2546 H 0.136 0.14621 0.52283 0.0
H2547 H 0.11049 0.10638 0.54018 0.0
H2548 H 0.1485 0.05854 0.59229 0.0
H2549 H 0.18803 0.0859 0.58765 0.0
C2550 C 0.19608 0.12854 0.55906 0.0
C2551 C 0.19795 0.15066 0.54345 0.0
C2552 C 0.17281 0.11267 0.56162 0.0
C2553 C 0.1758 0.15691 0.53101 0.0
C2554 C 0.15255 0.14093 0.53308 0.0
C2555 C 0.12734 0.10223 0.55089 0.0
C2556 C 0.12597 0.08019 0.56686 0.0
C2557 C 0.15069 0.11862 0.5484 0.0
C2558 C 0.14847 0.07511 0.57991 0.0
C2559 C 0.17135 0.09089 0.57731 0.0
H2560 H 0.21853 0.02813 0.89453 0.0
H2561 H 0.16217 1.00475 0.81941 0.0
H2562 H 0.17836 0.96402 0.80575 0.0
H2563 H 0.21061 0.93696 0.81358 0.0
H2564 H 0.26826 0.96378 0.88749 0.0
H2565 H 0.24922 1.00092 0.9031 0.0
C2566 C 0.20948 1.01408 0.87526 0.0
C2567 C 0.18918 1.01978 0.85799 0.0
C2568 C 0.21926 0.99124 0.86716 0.0
C2569 C 0.1778 1.00102 0.8332 0.0
C2570 C 0.18717 0.97777 0.82526 0.0
C2571 C 0.21905 0.95097 0.83305 0.0
C2572 C 0.24087 0.94724 0.84929 0.0
C2573 C 0.20828 0.97304 0.84176 0.0
C2574 C 0.25126 0.96552 0.8747 0.0
C2575 C 0.24049 0.98705 0.88363 0.0
H2576 H 0.3174 0.9509 0.03198 0.0
H2577 H 0.32972 0.88428 0.97464 0.0
H2578 H 0.37191 0.91029 0.97585 0.0
H2579 H 0.40357 0.9534 0.99061 0.0
H2580 H 0.39031 0.02048 0.04699 0.0
H2581 H 0.35007 0.99248 0.04943 0.0
C2582 C 0.32945 0.94218 0.01981 0.0
C2583 C 0.32062 0.91647 1.0024 0.0
C2584 C 0.35327 0.95722 0.02056 0.0
C2585 C 0.33632 0.90447 0.98763 0.0
C2586 C 0.36026 0.91931 0.98831 0.0
C2587 C 0.39174 0.96201 1.00316 0.0
C2588 C 0.39959 0.98913 0.01814 0.0
C2589 C 0.36861 0.94602 1.0041 0.0
C2590 C 0.38456 0.99968 0.03521 0.0
C2591 C 0.36161 0.98373 0.03658 0.0
H2592 H 0.85803 0.62934 0.82402 0.0
H2593 H 0.92864 0.66895 0.80814 0.0
H2594 H 0.91464 0.71275 0.8082 0.0
H2595 H 0.88165 0.74241 0.81338 0.0
H2596 H 0.81028 0.69998 0.82512 0.0
H2597 H 0.82502 0.65724 0.82593 0.0
C2598 C 0.87075 0.64726 0.82031 0.0
C2599 C 0.8952 0.64384 0.81607 0.0
C2600 C 0.86207 0.67327 0.81971 0.0
C2601 C 0.91005 0.66893 0.81137 0.0
C2602 C 0.90179 0.69474 0.81151 0.0
C2603 C 0.86895 0.72399 0.81607 0.0
C2604 C 0.84391 0.72641 0.81935 0.0
C2605 C 0.87773 0.69769 0.81576 0.0
C2606 C 0.82913 0.70069 0.82248 0.0
C2607 C 0.83781 0.67549 0.82299 0.0
H2608 H 0.84519 0.66378 0.07988 0.0
H2609 H 0.82298 0.62359 0.99316 0.0
H2610 H 0.85869 0.60303 0.99735 0.0
H2611 H 0.89498 0.59348 0.02594 0.0
H2612 H 0.91886 0.63441 0.11225 0.0
H2613 H 0.88407 0.65688 0.10783 0.0
C2614 C 0.84836 0.65092 0.06176 0.0
C2615 C 0.83097 0.64536 0.03625 0.0
C2616 C 0.86925 0.63868 0.06427 0.0
C2617 C 0.83564 0.6283 1.0132 0.0
C2618 C 0.85619 0.61637 1.01553 0.0
C2619 C 0.89301 0.60765 0.04377 0.0
C2620 C 0.90982 0.61165 0.06954 0.0
C2621 C 0.87295 0.62096 0.04105 0.0
C2622 C 0.9062 0.63004 0.09226 0.0
C2623 C 0.88626 0.64323 0.08971 0.0
H2624 H 0.22283 0.13794 0.84403 0.0
H2625 H 0.1796 0.19055 0.87948 0.0
H2626 H 0.21125 0.23168 0.87727 0.0
H2627 H 0.25198 0.25266 0.86547 0.0
H2628 H 0.29516 0.19907 0.83163 0.0
H2629 H 0.26313 0.15847 0.83318 0.0
C2630 C 0.22045 0.15841 0.85163 0.0
C2631 C 0.19911 0.16108 0.86263 0.0
C2632 C 0.23883 0.18184 0.85048 0.0
C2633 C 0.19596 0.18784 0.87135 0.0
C2634 C 0.21412 0.21136 0.8701 0.0
C2635 C 0.25424 0.23208 0.8584 0.0
C2636 C 0.27589 0.22894 0.84823 0.0
C2637 C 0.23574 0.20864 0.85978 0.0
C2638 C 0.27878 0.20209 0.83959 0.0
C2639 C 0.2604 0.17886 0.84038 0.0
H2640 H 0.42037 0.97181 0.33739 0.0
H2641 H 0.36423 0.99238 0.27834 0.0
H2642 H 0.33744 0.94676 0.27658 0.0
H2643 H 0.32828 0.89975 0.29267 0.0
H2644 H 0.38301 0.8812 0.35516 0.0
H2645 H 0.41067 0.9257 0.35473 0.0
C2646 C 0.40232 0.96651 0.32398 0.0
C2647 C 0.39487 0.98694 0.30817 0.0
C2648 C 0.38613 0.9397 0.32369 0.0
C2649 C 0.37105 0.97829 0.29111 0.0
C2650 C 0.35545 0.9517 0.29006 0.0
C2651 C 0.34632 0.90513 0.30612 0.0
C2652 C 0.35307 0.88565 0.32372 0.0
C2653 C 0.36248 0.93199 0.3064 0.0
C2654 C 0.37671 0.8946 0.34113 0.0
C2655 C 0.39283 0.9205 0.34088 0.0
H2656 H 0.61251 0.3933 0.61997 0.0
H2657 H 0.55065 0.38436 0.66284 0.0
H2658 H 0.54128 0.42693 0.64863 0.0
H2659 H 0.54911 0.46601 0.62201 0.0
H2660 H 0.61182 0.47699 0.5807 0.0
H2661 H 0.62241 0.43512 0.59615 0.0
C2662 C 0.59741 0.4011 0.62684 0.0
C2663 C 0.58266 0.38569 0.64319 0.0
C2664 C 0.59201 0.42602 0.61844 0.0
C2665 C 0.56269 0.3959 0.65097 0.0
C2666 C 0.55714 0.42022 0.64255 0.0
C2667 C 0.56512 0.45927 0.61638 0.0
C2668 C 0.57958 0.47484 0.60002 0.0
C2669 C 0.57138 0.4353 0.62591 0.0
C2670 C 0.60042 0.46574 0.59336 0.0
C2671 C 0.60644 0.44161 0.60218 0.0
H2672 H 0.43907 0.80332 0.45453 0.0
H2673 H 0.45652 0.7398 0.39781 0.0
H2674 H 0.41734 0.73533 0.36585 0.0
H2675 H 0.37938 0.75177 0.35184 0.0
H2676 H 0.36341 0.81869 0.40552 0.0
H2677 H 0.40034 0.81974 0.44035 0.0
C2678 C 0.43412 0.78832 0.43531 0.0
C2679 C 0.45102 0.77214 0.42847 0.0
C2680 C 0.41172 0.78664 0.41623 0.0
C2681 C 0.44414 0.75274 0.40349 0.0
C2682 C 0.42166 0.75019 0.38515 0.0
C2683 C 0.3838 0.7665 0.37124 0.0
C2684 C 0.36834 0.78511 0.3759 0.0
C2685 C 0.40552 0.76745 0.3909 0.0
C2686 C 0.37478 0.80414 0.40119 0.0
C2687 C 0.39595 0.80466 0.42123 0.0
H2688 H 0.06817 0.72044 0.17112 0.0
H2689 H 0.10957 0.75632 0.11236 0.0
H2690 H 0.10706 0.71006 0.08655 0.0
H2691 H 0.09231 0.6586 0.08022 0.0
H2692 H 0.04795 0.62403 0.1374 0.0
H2693 H 0.05221 0.66996 0.16385 0.0
C2694 C 0.07653 0.71807 0.15258 0.0
C2695 C 0.08856 0.74182 0.14333 0.0
C2696 C 0.07449 0.69139 0.13746 0.0
C2697 C 0.09968 0.7384 0.11953 0.0
C2698 C 0.09836 0.71189 0.10485 0.0
C2699 C 0.08373 0.66118 0.09855 0.0
C2700 C 0.06992 0.63768 0.10681 0.0
C2701 C 0.08568 0.6881 0.11348 0.0
C2702 C 0.05862 0.6416 0.13043 0.0
C2703 C 0.06109 0.66794 0.1457 0.0
H2704 H 0.08198 0.32956 0.92191 0.0
H2705 H 0.08102 0.2498 0.94715 0.0
H2706 H 0.12016 0.24895 0.93076 0.0
H2707 H 0.15317 0.2697 0.90537 0.0
H2708 H 0.15347 0.35062 0.88266 0.0
H2709 H 0.1163 0.35197 0.90169 0.0
C2710 C 0.09042 0.31204 0.92417 0.0
C2711 C 0.07835 0.28969 0.93566 0.0
C2712 C 0.11282 0.31174 0.9147 0.0
C2713 C 0.08985 0.26738 0.9386 0.0
C2714 C 0.11219 0.26683 0.92898 0.0
C2715 C 0.14533 0.2878 0.90493 0.0
C2716 C 0.15609 0.30972 0.89167 0.0
C2717 C 0.12368 0.2887 0.91644 0.0
C2718 C 0.14545 0.33298 0.89166 0.0
C2719 C 0.12415 0.33392 0.90281 0.0
H2720 H 0.58395 0.78853 0.97181 0.0
H2721 H 0.52432 0.73445 0.91106 0.0
H2722 H 0.52877 0.69581 0.93631 0.0
H2723 H 0.54501 0.68004 0.97958 0.0
H2724 H 0.60421 0.73451 0.04074 0.0
H2725 H 0.60437 0.77072 1.01134 0.0
C2726 C 0.57222 0.76815 0.96382 0.0
C2727 C 0.55353 0.76431 0.94003 0.0
C2728 C 0.57453 0.74638 0.97873 0.0
C2729 C 0.53875 0.73781 0.92948 0.0
C2730 C 0.54117 0.71583 0.94402 0.0
C2731 C 0.55846 0.69952 0.98614 0.0
C2732 C 0.5743 0.7048 1.01252 0.0
C2733 C 0.55832 0.72022 0.96927 0.0
C2734 C 0.59144 0.73025 0.02081 0.0
C2735 C 0.59162 0.75087 1.00398 0.0
H2736 H 0.14662 0.74925 0.76077 0.0
H2737 H 0.1503 0.81267 0.70833 0.0
H2738 H 0.19516 0.81783 0.71337 0.0
H2739 H 0.23369 0.80673 0.73652 0.0
H2740 H 0.22882 0.73944 0.78432 0.0
H2741 H 0.184 0.73311 0.77732 0.0
C2742 C 0.15738 0.76422 0.75057 0.0
C2743 C 0.14576 0.78166 0.7355 0.0
C2744 C 0.18278 0.76614 0.7526 0.0
C2745 C 0.15932 0.79988 0.72095 0.0
C2746 C 0.18482 0.80265 0.72366 0.0
C2747 C 0.22265 0.79024 0.74467 0.0
C2748 C 0.23431 0.77346 0.76074 0.0
C2749 C 0.19683 0.78629 0.73998 0.0
C2750 C 0.22005 0.75226 0.77149 0.0
C2751 C 0.19449 0.74879 0.7677 0.0
H2752 H 0.04542 0.38735 0.48686 0.0
H2753 H 0.03319 0.43666 0.42125 0.0
H2754 H 0.03547 0.47656 0.45698 0.0
H2755 H 0.04155 0.49739 0.50646 0.0
H2756 H 0.05526 0.44886 0.57219 0.0
H2757 H 0.05089 0.40809 0.53642 0.0
C2758 C 0.04332 0.4068 0.48021 0.0
C2759 C 0.0393 0.40896 0.45124 0.0
C2760 C 0.0445 0.42956 0.50082 0.0
C2761 C 0.03648 0.43438 0.44328 0.0
C2762 C 0.03763 0.45716 0.4637 0.0
C2763 C 0.04341 0.47786 0.51306 0.0
C2764 C 0.04881 0.47613 0.54197 0.0
C2765 C 0.04163 0.45494 0.49247 0.0
C2766 C 0.05102 0.45065 0.5501 0.0
C2767 C 0.04873 0.42747 0.52966 0.0
H2768 H 0.4774 0.24251 0.24705 0.0
H2769 H 0.54341 0.27385 0.31014 0.0
H2770 H 0.5192 0.29185 0.3427 0.0
H2771 H 0.47999 0.30452 0.35057 0.0
H2772 H 0.41495 0.27468 0.28614 0.0
H2773 H 0.43795 0.25033 0.25678 0.0
C2774 C 0.48648 0.25282 0.2681 0.0
C2775 C 0.51225 0.25718 0.27592 0.0
C2776 C 0.4726 0.26378 0.28637 0.0
C2777 C 0.52361 0.27023 0.30348 0.0
C2778 C 0.5098 0.2808 0.32205 0.0
C2779 C 0.47093 0.29223 0.33032 0.0
C2780 C 0.44593 0.29118 0.32038 0.0
C2781 C 0.48444 0.27864 0.31332 0.0
C2782 C 0.43419 0.27547 0.29412 0.0
C2783 C 0.44733 0.26167 0.27733 0.0
H2784 H 0.66303 0.59428 0.46786 0.0
H2785 H 0.60591 0.55272 0.39712 0.0
H2786 H 0.57901 0.53662 0.42938 0.0
H2787 H 0.57147 0.53332 0.47803 0.0
H2788 H 0.62734 0.5772 0.54873 0.0
H2789 H 0.6547 0.59294 0.51654 0.0
C2790 C 0.64464 0.58184 0.45938 0.0
C2791 C 0.63677 0.57487 0.42968 0.0
C2792 C 0.62894 0.57275 0.47827 0.0
C2793 C 0.6127 0.55874 0.41958 0.0
C2794 C 0.59723 0.54932 0.43815 0.0
C2795 C 0.58967 0.54627 0.48641 0.0
C2796 C 0.59732 0.55382 0.516 0.0
C2797 C 0.60514 0.55598 0.46756 0.0
C2798 C 0.62087 0.57102 0.52625 0.0
C2799 C 0.63657 0.58005 0.50773 0.0
H2800 H 0.24339 0.82425 0.0648 0.0
H2801 H 0.27184 0.90938 0.1043 0.0
H2802 H 0.28535 0.89447 0.14885 0.0
H2803 H 0.29354 0.85742 0.1746 0.0
H2804 H 0.26562 0.77215 0.13528 0.0
H2805 H 0.24791 0.78702 0.09225 0.0
C2806 C 0.25204 0.83954 0.08333 0.0
C2807 C 0.25684 0.86782 0.08128 0.0
C2808 C 0.2604 0.83082 0.10861 0.0
C2809 C 0.26811 0.88745 0.10538 0.0
C2810 C 0.27597 0.87895 0.13079 0.0
C2811 C 0.28317 0.84204 0.15684 0.0
C2812 C 0.28115 0.81374 0.15802 0.0
C2813 C 0.27295 0.8507 0.13234 0.0
C2814 C 0.26794 0.7941 0.13466 0.0
C2815 C 0.25761 0.80257 0.11016 0.0
H2816 H 0.99407 0.56214 0.88686 0.0
H2817 H 0.93547 0.584 0.92593 0.0
H2818 H 0.9585 0.58236 0.97226 0.0
H2819 H 0.9964 0.57485 1.00435 0.0
H2820 H 0.05461 0.55298 0.96458 0.0
H2821 H 0.03145 0.5546 0.91855 0.0
C2822 C 0.98619 0.56692 0.90532 0.0
C2823 C 0.96228 0.5736 0.90126 0.0
C2824 C 0.99988 0.56571 0.93315 0.0
C2825 C 0.9534 0.57901 0.92682 0.0
C2826 C 0.96679 0.57796 0.95403 0.0
C2827 C 1.00403 0.56993 0.98579 0.0
C2828 C 0.02801 0.5633 0.98952 0.0
C2829 C 0.99019 0.57118 0.95792 0.0
C2830 C 0.0367 0.55799 0.96387 0.0
C2831 C 0.02323 0.55899 0.93684 0.0
H2832 H 0.25151 0.20575 0.64702 0.0
H2833 H 0.31756 0.25501 0.62903 0.0
H2834 H 0.32916 0.27784 0.67833 0.0
H2835 H 0.3205 0.284 0.72713 0.0
H2836 H 0.25216 0.2381 0.74346 0.0
H2837 H 0.24152 0.21412 0.69475 0.0
C2838 C 0.26849 0.22143 0.65393 0.0
C2839 C 0.28378 0.22837 0.63429 0.0
C2840 C 0.27461 0.23526 0.68221 0.0
C2841 C 0.30547 0.24915 0.64359 0.0
C2842 C 0.31212 0.26224 0.67187 0.0
C2843 C 0.30326 0.26879 0.71999 0.0
C2844 C 0.28722 0.26287 0.73918 0.0
C2845 C 0.29684 0.25552 0.69145 0.0
C2846 C 0.26483 0.24327 0.72931 0.0
C2847 C 0.25876 0.2294 0.70138 0.0
H2848 H 0.65261 0.59575 0.25383 0.0
H2849 H 0.60681 0.52306 0.27286 0.0
H2850 H 0.58557 0.51093 0.22356 0.0
H2851 H 0.57867 0.52196 0.17474 0.0
H2852 H 0.62138 0.59763 0.15757 0.0
H2853 H 0.64491 0.60749 0.20573 0.0
C2854 C 0.63815 0.57711 0.24711 0.0
C2855 C 0.63157 0.56019 0.2671 0.0
C2856 C 0.62524 0.57084 0.2188 0.0
C2857 C 0.61237 0.53643 0.25801 0.0
C2858 C 0.60016 0.52948 0.22974 0.0
C2859 C 0.59324 0.54048 0.18154 0.0
C2860 C 0.5983 0.55895 0.16236 0.0
C2861 C 0.60623 0.54664 0.20988 0.0
C2862 C 0.61703 0.58308 0.17178 0.0
C2863 C 0.63056 0.58874 0.1994 0.0
H2864 H 0.24338 0.82151 0.94159 0.0
H2865 H 0.22777 0.8834 0.89121 0.0
H2866 H 0.23753 0.85701 0.85053 0.0
H2867 H 0.26116 0.82356 0.83372 0.0
H2868 H 0.27266 0.75886 0.8815 0.0
H2869 H 0.2555 0.78039 0.91976 0.0
C2870 C 0.24146 0.82896 0.92153 0.0
C2871 C 0.23615 0.85516 0.91981 0.0
C2872 C 0.24792 0.8142 0.89843 0.0
C2873 C 0.23284 0.86386 0.8934 0.0
C2874 C 0.23886 0.84906 0.87026 0.0
C2875 C 0.2592 0.81379 0.85215 0.0
C2876 C 0.26833 0.79005 0.85522 0.0
C2877 C 0.24829 0.82548 0.87325 0.0
C2878 C 0.26581 0.77736 0.87904 0.0
C2879 C 0.25597 0.78959 0.90077 0.0
H2880 H 1.00229 0.57084 0.74658 0.0
H2881 H 0.92806 0.55315 0.6997 0.0
H2882 H 0.94373 0.54726 0.65547 0.0
H2883 H 0.97919 0.54652 0.6275 0.0
H2884 H 0.05304 0.56267 0.67558 0.0
H2885 H 0.03719 0.56935 0.71913 0.0
C2886 C 0.98919 0.56579 0.72687 0.0
C2887 C 0.9632 0.56288 0.72823 0.0
C2888 C 0.99862 0.56185 0.70032 0.0
C2889 C 0.94779 0.55593 0.70105 0.0
C2890 C 0.95699 0.55242 0.67505 0.0
C2891 C 0.99213 0.55143 0.64731 0.0
C2892 C 1.01822 0.5537 0.64636 0.0
C2893 C 0.9825 0.55521 0.67391 0.0
C2894 C 0.0333 0.56025 0.67375 0.0
C2895 C 0.02403 0.56428 0.69947 0.0
H2896 H 0.28033 0.25198 0.49156 0.0
H2897 H 0.26387 0.17307 0.43691 0.0
H2898 H 0.27368 0.19608 0.39761 0.0
H2899 H 0.28773 0.23871 0.3776 0.0
H2900 H 0.30367 0.31782 0.4314 0.0
H2901 H 0.29341 0.29498 0.47106 0.0
C2902 C 0.27878 0.23972 0.47109 0.0
C2903 C 0.27126 0.21039 0.46792 0.0
C2904 C 0.28449 0.25329 0.44786 0.0
C2905 C 0.26953 0.19543 0.44073 0.0
C2906 C 0.2752 0.20868 0.41789 0.0
C2907 C 0.2889 0.25103 0.39795 0.0
C2908 C 0.29665 0.28024 0.40109 0.0
C2909 C 0.28282 0.23761 0.42105 0.0
C2910 C 0.29788 0.29546 0.42794 0.0
C2911 C 0.29198 0.28231 0.45085 0.0
H2912 H 0.39233 0.65172 0.53509 0.0
H2913 H 0.44661 0.66858 0.61168 0.0
H2914 H 0.47415 0.64654 0.58668 0.0
H2915 H 0.47744 0.61254 0.54688 0.0
H2916 H 0.41919 0.58911 0.47388 0.0
H2917 H 0.39849 0.6239 0.49319 0.0
C2918 C 0.41047 0.65115 0.54615 0.0
C2919 C 0.41727 0.661 0.5753 0.0
C2920 C 0.42522 0.63688 0.53221 0.0
C2921 C 0.44096 0.6609 0.5893 0.0
C2922 C 0.45652 0.64802 0.57506 0.0
C2923 C 0.4607 0.61595 0.53483 0.0
C2924 C 0.44968 0.59859 0.50908 0.0
C2925 C 0.44812 0.63445 0.54706 0.0
C2926 C 0.42788 0.60252 0.49362 0.0
C2927 C 0.41602 0.62216 0.50482 0.0
H2928 H 0.91234 0.98795 0.62494 0.0
H2929 H 0.92199 0.916 0.57322 0.0
H2930 H 0.9632 0.94092 0.56886 0.0
H2931 H 0.99581 0.98522 0.57673 0.0
H2932 H 0.98495 0.05652 0.62891 0.0
H2933 H 0.94587 0.03011 0.63623 0.0
C2934 C 0.92344 0.9777 0.61268 0.0
C2935 C 0.91345 0.95035 0.59851 0.0
C2936 C 0.94733 0.99223 0.61037 0.0
C2937 C 0.92877 0.93719 0.5838 0.0
C2938 C 0.95246 0.95153 0.58128 0.0
C2939 C 0.98506 0.99486 0.58998 0.0
C2940 C 0.99367 0.0232 0.6021 0.0
C2941 C 0.96186 0.97938 0.59395 0.0
C2942 C 0.9791 0.035 0.61913 0.0
C2943 C 0.95655 1.01982 0.62341 0.0
H2944 H 0.9016 0.05234 0.26002 0.0
H2945 H 0.95473 0.10014 0.33118 0.0
H2946 H 0.93747 0.14096 0.3251 0.0
H2947 H 0.90342 0.16056 0.3036 0.0
H2948 H 0.84803 0.11009 0.23529 0.0
H2949 H 0.87024 0.07314 0.23575 0.0
C2950 C 0.90978 0.07196 0.27366 0.0
C2951 C 0.92943 0.07349 0.29584 0.0
C2952 C 0.89909 0.09475 0.27073 0.0
C2953 C 0.93985 0.09877 0.31367 0.0
C2954 C 0.92976 0.12193 0.31038 0.0
C2955 C 0.89623 0.14154 0.28872 0.0
C2956 C 0.87381 0.1382 0.26966 0.0
C2957 C 0.90872 0.11979 0.28969 0.0
C2958 C 0.86524 0.11358 0.25007 0.0
C2959 C 0.87785 0.09221 0.25045 0.0
H2960 H 0.79337 0.19885 0.12475 0.0
H2961 H 0.82758 0.13988 0.1638 0.0
H2962 H 0.78747 0.11548 0.17169 0.0
H2963 H 0.74205 0.10663 0.15976 0.0
H2964 H 0.70804 0.16324 0.116 0.0
H2965 H 0.74847 0.19277 0.11731 0.0
C2966 C 0.79193 0.18087 0.13533 0.0
C2967 C 0.81285 0.17036 0.1428 0.0
C2968 C 0.76879 0.16637 0.13851 0.0
C2969 C 0.81129 0.14756 0.15709 0.0
C2970 C 0.78845 0.13377 0.16168 0.0
C2971 C 0.74357 0.12573 0.15108 0.0
C2972 C 0.72227 0.13255 0.13732 0.0
C2973 C 0.76693 0.1422 0.15121 0.0
C2974 C 0.72432 0.15731 0.12608 0.0
C2975 C 0.74738 0.17428 0.12699 0.0
H2976 H 0.20987 0.4362 0.36576 0.0
H2977 H 0.24433 0.4807 0.30684 0.0
H2978 H 0.26865 0.44569 0.29993 0.0
H2979 H 0.28254 0.40124 0.3106 0.0
H2980 H 0.24432 0.35343 0.36461 0.0
H2981 H 0.22052 0.38896 0.37243 0.0
C2982 C 0.22217 0.43835 0.35075 0.0
C2983 C 0.22385 0.46276 0.33663 0.0
C2984 C 0.23644 0.41662 0.34593 0.0
C2985 C 0.24119 0.46333 0.3181 0.0
C2986 C 0.25567 0.44277 0.31414 0.0
C2987 C 0.26911 0.39816 0.32425 0.0
C2988 C 0.26666 0.37314 0.33732 0.0
C2989 C 0.25393 0.41911 0.32799 0.0
C2990 C 0.24795 0.37131 0.35414 0.0
C2991 C 0.23388 0.39222 0.3587 0.0
H2992 H 0.29621 0.49363 0.07734 0.0
H2993 H 0.26355 0.41666 0.10182 0.0
H2994 H 0.22416 0.43137 0.10009 0.0
H2995 H 0.19865 0.46676 0.09115 0.0
H2996 H 0.23369 0.54359 0.06803 0.0
H2997 H 0.2721 0.52819 0.0697 0.0
C2998 C 0.28058 0.47979 0.08229 0.0
C2999 C 0.28317 0.45377 0.08951 0.0
C3000 C 0.25815 0.48851 0.08151 0.0
C3001 C 0.26242 0.43671 0.09615 0.0
C3002 C 0.23978 0.44517 0.09509 0.0
C3003 C 0.21469 0.48009 0.08645 0.0
C3004 C 0.213 0.50662 0.07969 0.0
C3005 C 0.23732 0.47109 0.0877 0.0
C3006 C 0.23422 0.52343 0.07377 0.0
C3007 C 0.25632 0.51454 0.07457 0.0
H3008 H 0.88485 0.93581 0.26754 0.0
H3009 H 0.93992 0.91735 0.32965 0.0
H3010 H 0.91003 0.87698 0.33687 0.0
H3011 H 0.86666 0.8503 0.32942 0.0
H3012 H 0.81233 0.86734 0.26522 0.0
H3013 H 0.84325 0.90475 0.25499 0.0
C3014 C 0.89033 0.92272 0.28242 0.0
C3015 C 0.91432 0.93006 0.29875 0.0
C3016 C 0.87305 0.89937 0.28623 0.0
C3017 C 0.92144 0.91243 0.31724 0.0
C3018 C 0.9043 0.88938 0.32141 0.0
C3019 C 0.8617 0.86174 0.31276 0.0
C3020 C 0.83702 0.85601 0.29829 0.0
C3021 C 0.87979 0.88314 0.30668 0.0
C3022 C 0.83103 0.87135 0.2769 0.0
C3023 C 0.84878 0.89275 0.27094 0.0
H3024 H 0.70428 0.14082 0.85905 0.0
H3025 H 0.75056 0.09572 0.81889 0.0
H3026 H 0.7764 0.13939 0.81244 0.0
H3027 H 0.78619 0.192 0.81671 0.0
H3028 H 0.74064 0.23666 0.85894 0.0
H3029 H 0.71543 0.19312 0.86582 0.0
C3030 C 0.72015 0.14031 0.84911 0.0
C3031 C 0.72513 0.11379 0.84007 0.0
C3032 C 0.73555 0.16627 0.84557 0.0
C3033 C 0.74597 0.11489 0.82689 0.0
C3034 C 0.76088 0.14031 0.82291 0.0
C3035 C 0.77081 0.19248 0.8275 0.0
C3036 C 0.76606 0.21903 0.83729 0.0
C3037 C 0.75596 0.16643 0.83194 0.0
C3038 C 0.74571 0.21771 0.85135 0.0
C3039 C 0.73087 0.19229 0.85519 0.0
loop_
_geom_bond_atom_site_label_1
_geom_bond_atom_site_label_2
_geom_bond_distance
_geom_bond_site_symmetry_2
_ccdc_geom_bond_type
Mn0 O5 2.095 . S
Mn0 O15 2.162 . S
Mn0 O16 2.297 1_455 S
Mn0 O24 2.385 1_455 S
Mn0 O25 2.209 1_455 S
Mn0 O26 2.094 . S
Mn1 O6 2.088 1_655 S
Mn1 N8 2.264 . S
Mn1 N17 2.316 . S
Mn1 O25 2.227 . S
Mn1 O27 2.121 1_655 S
C2 O24 1.234 . S
C2 O25 1.283 . S
C3 O15 1.282 1_655 S
C3 O16 1.236 . S
C4 O26 1.240 . S
C4 O27 1.264 . S
O5 Mn0 2.095 . S
O5 C14 1.250 . S
O6 Mn1 2.088 1_455 S
O6 C14 1.258 . S
C7 N8 1.326 . S
C7 C11 1.460 . S
C7 H13 0.929 1_655 S
N8 Mn1 2.264 . S
N8 C7 1.326 . S
N8 C12 1.362 . S
C9 C10 1.258 . S
C9 C12 1.431 . S
C9 C29 1.449 . S
C10 C9 1.258 . S
C10 C11 1.477 . S
C10 H30 0.931 . S
C11 C7 1.460 . S
C11 C10 1.477 . S
C11 H31 0.930 . S
C12 N8 1.362 . S
C12 C9 1.431 . S
C12 C22 1.476 . S
H13 C7 0.929 1_455 S
C14 O5 1.250 . S
C14 O6 1.258 . S
O15 Mn0 2.162 . S
O15 C3 1.282 1_455 S
O16 Mn0 2.297 1_655 S
O16 C3 1.236 . S
N17 Mn1 2.316 . S
N17 C18 1.328 . S
N17 C22 1.318 . S
C18 N17 1.328 . S
C18 C19 1.457 . S
C18 H23 0.929 . S
C19 C18 1.457 . S
C19 C20 1.291 . S
C19 H32 0.931 . S
C20 C19 1.291 . S
C20 C21 1.373 . S
C20 H33 0.929 . S
C21 C20 1.373 . S
C21 C22 1.396 . S
C21 C28 1.403 . S
C22 C12 1.476 . S
C22 N17 1.318 . S
C22 C21 1.396 . S
H23 C18 0.929 . S
O24 Mn0 2.385 1_655 S
O24 C2 1.234 . S
O25 Mn0 2.209 1_655 S
O25 Mn1 2.227 . S
O25 C2 1.283 . S
O26 Mn0 2.094 . S
O26 C4 1.240 . S
O27 Mn1 2.121 1_455 S
O27 C4 1.264 . S
C28 C21 1.403 . S
C28 C29 1.399 . S
C28 H34 0.929 . S
C29 C9 1.449 . S
C29 C28 1.399 . S
C29 H35 0.930 . S
H30 C10 0.931 . S
H31 C11 0.930 . S
H32 C19 0.931 . S
H33 C20 0.929 . S
H34 C28 0.929 . S
H35 C29 0.930 . S
Mn36 O41 2.095 . S
Mn36 O51 2.162 . S
Mn36 O52 2.297 . S
Mn36 O60 2.385 . S
Mn36 O61 2.209 . S
Mn36 O62 2.094 . S
Mn37 O42 2.121 . S
Mn37 N44 2.257 . S
Mn37 N53 2.282 . S
Mn37 O61 2.215 . S
Mn37 O63 2.117 . S
C38 O60 1.234 . S
C38 O61 1.283 . S
C39 O51 1.281 . S
C39 O52 1.236 . S
C40 O62 1.240 . S
C40 O63 1.264 . S
O41 Mn36 2.095 . S
O41 C50 1.250 . S
O42 Mn37 2.121 . S
O42 C50 1.258 . S
C43 N44 1.326 . S
C43 C47 1.460 . S
C43 H49 0.929 . S
N44 Mn37 2.257 . S
N44 C43 1.326 . S
N44 C48 1.362 . S
C45 C46 1.258 . S
C45 C48 1.431 . S
C45 C65 1.449 . S
C46 C45 1.258 . S
C46 C47 1.477 . S
C46 H66 0.931 . S
C47 C43 1.460 . S
C47 C46 1.477 . S
C47 H67 0.930 . S
C48 N44 1.362 . S
C48 C45 1.431 . S
C48 C58 1.476 . S
H49 C43 0.929 . S
C50 O41 1.250 . S
C50 O42 1.258 . S
O51 Mn36 2.162 . S
O51 C39 1.281 . S
O52 Mn36 2.297 . S
O52 C39 1.236 . S
N53 Mn37 2.282 . S
N53 C54 1.328 . S
N53 C58 1.318 . S
C54 N53 1.328 . S
C54 C55 1.457 . S
C54 H59 0.929 . S
C55 C54 1.457 . S
C55 C56 1.291 . S
C55 H68 0.931 . S
C56 C55 1.291 . S
C56 C57 1.373 . S
C56 H69 0.929 . S
C57 C56 1.373 . S
C57 C58 1.396 . S
C57 C64 1.403 . S
C58 C48 1.476 . S
C58 N53 1.318 . S
C58 C57 1.396 . S
H59 C54 0.929 . S
O60 Mn36 2.385 . S
O60 C38 1.234 . S
O61 Mn36 2.209 . S
O61 Mn37 2.215 . S
O61 C38 1.283 . S
O62 Mn36 2.094 . S
O62 C40 1.240 . S
O63 Mn37 2.117 . S
O63 C40 1.264 . S
C64 C57 1.403 . S
C64 C65 1.399 . S
C64 H70 0.929 . S
C65 C45 1.449 . S
C65 C64 1.399 . S
C65 H71 0.930 . S
H66 C46 0.931 . S
H67 C47 0.930 . S
H68 C55 0.931 . S
H69 C56 0.929 . S
H70 C64 0.929 . S
H71 C65 0.930 . S
Mn72 O77 2.095 . S
Mn72 O87 2.162 . S
Mn72 O88 2.297 . S
Mn72 O96 2.385 . S
Mn72 O97 2.209 . S
Mn72 O98 2.094 . S
Mn73 O78 2.121 . S
Mn73 N80 2.257 . S
Mn73 N89 2.282 . S
Mn73 O97 2.215 . S
Mn73 O99 2.117 . S
C74 O96 1.234 . S
C74 O97 1.283 . S
C75 O87 1.281 . S
C75 O88 1.236 . S
C76 O98 1.240 . S
C76 O99 1.264 . S
O77 Mn72 2.095 . S
O77 C86 1.250 . S
O78 Mn73 2.121 . S
O78 C86 1.258 . S
C79 N80 1.326 . S
C79 C83 1.460 . S
C79 H85 0.929 . S
N80 Mn73 2.257 . S
N80 C79 1.326 . S
N80 C84 1.362 . S
C81 C82 1.258 . S
C81 C84 1.431 . S
C81 C101 1.449 . S
C82 C81 1.258 . S
C82 C83 1.477 . S
C82 H102 0.931 . S
C83 C79 1.460 . S
C83 C82 1.477 . S
C83 H103 0.930 . S
C84 N80 1.362 . S
C84 C81 1.431 . S
C84 C94 1.476 . S
H85 C79 0.929 . S
C86 O77 1.250 . S
C86 O78 1.258 . S
O87 Mn72 2.162 . S
O87 C75 1.281 . S
O88 Mn72 2.297 . S
O88 C75 1.236 . S
N89 Mn73 2.282 . S
N89 C90 1.328 . S
N89 C94 1.318 . S
C90 N89 1.328 . S
C90 C91 1.457 . S
C90 H95 0.929 . S
C91 C90 1.457 . S
C91 C92 1.291 . S
C91 H104 0.931 . S
C92 C91 1.291 . S
C92 C93 1.373 . S
C92 H105 0.929 . S
C93 C92 1.373 . S
C93 C94 1.396 . S
C93 C100 1.403 . S
C94 C84 1.476 . S
C94 N89 1.318 . S
C94 C93 1.396 . S
H95 C90 0.929 . S
O96 Mn72 2.385 . S
O96 C74 1.234 . S
O97 Mn72 2.209 . S
O97 Mn73 2.215 . S
O97 C74 1.283 . S
O98 Mn72 2.094 . S
O98 C76 1.240 . S
O99 Mn73 2.117 . S
O99 C76 1.264 . S
C100 C93 1.403 . S
C100 C101 1.399 . S
C100 H106 0.929 . S
C101 C81 1.449 . S
C101 C100 1.399 . S
C101 H107 0.930 . S
H102 C82 0.931 . S
H103 C83 0.930 . S
H104 C91 0.931 . S
H105 C92 0.929 . S
H106 C100 0.929 . S
H107 C101 0.930 . S
Mn108 O113 2.095 . S
Mn108 O123 2.162 . S
Mn108 O124 2.297 . S
Mn108 O132 2.385 . S
Mn108 O133 2.209 . S
Mn108 O134 2.094 . S
Mn109 O114 2.121 . S
Mn109 N116 2.257 . S
Mn109 N125 2.282 . S
Mn109 O133 2.215 . S
Mn109 O135 2.117 . S
C110 O132 1.234 . S
C110 O133 1.283 . S
C111 O123 1.281 . S
C111 O124 1.236 . S
C112 O134 1.240 . S
C112 O135 1.264 . S
O113 Mn108 2.095 . S
O113 C122 1.250 . S
O114 Mn109 2.121 . S
O114 C122 1.258 . S
C115 N116 1.326 . S
C115 C119 1.460 . S
C115 H121 0.929 . S
N116 Mn109 2.257 . S
N116 C115 1.326 . S
N116 C120 1.362 . S
C117 C118 1.258 . S
C117 C120 1.431 . S
C117 C137 1.449 . S
C118 C117 1.258 . S
C118 C119 1.477 . S
C118 H138 0.931 . S
C119 C115 1.460 . S
C119 C118 1.477 . S
C119 H139 0.930 . S
C120 N116 1.362 . S
C120 C117 1.431 . S
C120 C130 1.476 . S
H121 C115 0.929 . S
C122 O113 1.250 . S
C122 O114 1.258 . S
O123 Mn108 2.162 . S
O123 C111 1.281 . S
O124 Mn108 2.297 . S
O124 C111 1.236 . S
N125 Mn109 2.282 . S
N125 C126 1.328 . S
N125 C130 1.318 . S
C126 N125 1.328 . S
C126 C127 1.457 . S
C126 H131 0.929 . S
C127 C126 1.457 . S
C127 C128 1.291 . S
C127 H140 0.931 . S
C128 C127 1.291 . S
C128 C129 1.373 . S
C128 H141 0.929 . S
C129 C128 1.373 . S
C129 C130 1.396 . S
C129 C136 1.403 . S
C130 C120 1.476 . S
C130 N125 1.318 . S
C130 C129 1.396 . S
H131 C126 0.929 . S
O132 Mn108 2.385 . S
O132 C110 1.234 . S
O133 Mn108 2.209 . S
O133 Mn109 2.215 . S
O133 C110 1.283 . S
O134 Mn108 2.094 . S
O134 C112 1.240 . S
O135 Mn109 2.117 . S
O135 C112 1.264 . S
C136 C129 1.403 . S
C136 C137 1.399 . S
C136 H142 0.929 . S
C137 C117 1.449 . S
C137 C136 1.399 . S
C137 H143 0.930 . S
H138 C118 0.931 . S
H139 C119 0.930 . S
H140 C127 0.931 . S
H141 C128 0.929 . S
H142 C136 0.929 . S
H143 C137 0.930 . S
Mn144 O149 2.095 . S
Mn144 O159 2.162 . S
Mn144 O160 2.297 . S
Mn144 O168 2.385 . S
Mn144 O169 2.209 . S
Mn144 O170 2.094 . S
Mn145 O150 2.121 . S
Mn145 N152 2.257 . S
Mn145 N161 2.282 1_455 S
Mn145 O169 2.215 . S
Mn145 O171 2.117 . S
C146 O168 1.234 . S
C146 O169 1.283 . S
C147 O159 1.281 . S
C147 O160 1.236 . S
C148 O170 1.240 . S
C148 O171 1.264 . S
O149 Mn144 2.095 . S
O149 C158 1.250 . S
O150 Mn145 2.121 . S
O150 C158 1.258 . S
C151 N152 1.326 . S
C151 C155 1.460 . S
C151 H157 0.929 . S
N152 Mn145 2.257 . S
N152 C151 1.326 . S
N152 C156 1.362 . S
C153 C154 1.271 . S
C153 C156 1.427 . S
C153 C173 1.439 1_455 S
C154 C153 1.271 . S
C154 C155 1.477 . S
C154 H174 0.931 1_554 S
C155 C151 1.460 . S
C155 C154 1.477 . S
C155 H175 0.930 . S
C156 N152 1.362 . S
C156 C153 1.427 . S
C156 C166 1.476 1_455 S
H157 C151 0.929 . S
C158 O149 1.250 . S
C158 O150 1.258 . S
O159 Mn144 2.162 . S
O159 C147 1.281 . S
O160 Mn144 2.297 . S
O160 C147 1.236 . S
N161 Mn145 2.282 1_655 S
N161 C162 1.328 . S
N161 C166 1.318 . S
C162 N161 1.328 . S
C162 C163 1.457 . S
C162 H167 0.929 . S
C163 C162 1.457 . S
C163 C164 1.291 . S
C163 H176 0.931 . S
C164 C163 1.291 . S
C164 C165 1.373 . S
C164 H177 0.929 . S
C165 C164 1.373 . S
C165 C166 1.396 . S
C165 C172 1.403 . S
C166 C156 1.476 1_655 S
C166 N161 1.318 . S
C166 C165 1.396 . S
H167 C162 0.929 . S
O168 Mn144 2.385 . S
O168 C146 1.234 . S
O169 Mn144 2.209 . S
O169 Mn145 2.215 . S
O169 C146 1.283 . S
O170 Mn144 2.094 . S
O170 C148 1.240 . S
O171 Mn145 2.117 . S
O171 C148 1.264 . S
C172 C165 1.403 . S
C172 C173 1.399 . S
C172 H178 0.929 . S
C173 C153 1.439 1_655 S
C173 C172 1.399 . S
C173 H179 0.962 . S
H174 C154 0.931 1_556 S
H175 C155 0.930 . S
H176 C163 0.931 . S
H177 C164 0.929 . S
H178 C172 0.929 . S
H179 C173 0.962 . S
Mn180 O185 2.095 . S
Mn180 O195 2.162 . S
Mn180 O196 2.297 . S
Mn180 O204 2.385 . S
Mn180 O205 2.209 . S
Mn180 O206 2.094 . S
Mn181 O186 2.121 . S
Mn181 N188 2.257 . S
Mn181 N197 2.282 . S
Mn181 O205 2.215 . S
Mn181 O207 2.117 . S
C182 O204 1.234 . S
C182 O205 1.283 . S
C183 O195 1.281 . S
C183 O196 1.236 . S
C184 O206 1.240 . S
C184 O207 1.264 . S
O185 Mn180 2.095 . S
O185 C194 1.250 . S
O186 Mn181 2.121 . S
O186 C194 1.258 . S
C187 N188 1.326 . S
C187 C191 1.460 . S
C187 H193 0.929 . S
N188 Mn181 2.257 . S
N188 C187 1.326 . S
N188 C192 1.362 . S
C189 C190 1.258 . S
C189 C192 1.431 . S
C189 C209 1.449 . S
C190 C189 1.258 . S
C190 C191 1.477 . S
C190 H210 0.931 . S
C191 C187 1.460 . S
C191 C190 1.477 . S
C191 H211 0.930 . S
C192 N188 1.362 . S
C192 C189 1.431 . S
C192 C202 1.476 . S
H193 C187 0.929 . S
C194 O185 1.250 . S
C194 O186 1.258 . S
O195 Mn180 2.162 . S
O195 C183 1.281 . S
O196 Mn180 2.297 . S
O196 C183 1.236 . S
N197 Mn181 2.282 . S
N197 C198 1.328 . S
N197 C202 1.318 . S
C198 N197 1.328 . S
C198 C199 1.457 . S
C198 H203 0.929 . S
C199 C198 1.457 . S
C199 C200 1.291 . S
C199 H212 0.931 . S
C200 C199 1.291 . S
C200 C201 1.373 . S
C200 H213 0.929 . S
C201 C200 1.373 . S
C201 C202 1.396 . S
C201 C208 1.403 . S
C202 C192 1.476 . S
C202 N197 1.318 . S
C202 C201 1.396 . S
H203 C198 0.929 . S
O204 Mn180 2.385 . S
O204 C182 1.234 . S
O205 Mn180 2.209 . S
O205 Mn181 2.215 . S
O205 C182 1.283 . S
O206 Mn180 2.094 . S
O206 C184 1.240 . S
O207 Mn181 2.117 . S
O207 C184 1.264 . S
C208 C201 1.403 . S
C208 C209 1.399 . S
C208 H214 0.929 . S
C209 C189 1.449 . S
C209 C208 1.399 . S
C209 H215 0.930 . S
H210 C190 0.931 . S
H211 C191 0.930 . S
H212 C199 0.931 . S
H213 C200 0.929 . S
H214 C208 0.929 . S
H215 C209 0.930 . S
Mn216 O221 2.095 . S
Mn216 O231 2.162 . S
Mn216 O232 2.297 . S
Mn216 O240 2.385 . S
Mn216 O241 2.209 . S
Mn216 O242 2.094 . S
Mn217 O222 2.121 . S
Mn217 N224 2.257 . S
Mn217 N233 2.282 . S
Mn217 O241 2.215 . S
Mn217 O243 2.117 . S
C218 O240 1.234 . S
C218 O241 1.283 . S
C219 O231 1.281 . S
C219 O232 1.236 . S
C220 O242 1.240 . S
C220 O243 1.264 . S
O221 Mn216 2.095 . S
O221 C230 1.250 . S
O222 Mn217 2.121 . S
O222 C230 1.258 . S
C223 N224 1.326 . S
C223 C227 1.460 . S
C223 H229 0.929 . S
N224 Mn217 2.257 . S
N224 C223 1.326 . S
N224 C228 1.362 . S
C225 C226 1.258 . S
C225 C228 1.431 . S
C225 C245 1.449 . S
C226 C225 1.258 . S
C226 C227 1.477 . S
C226 H246 0.931 . S
C227 C223 1.460 . S
C227 C226 1.477 . S
C227 H247 0.930 . S
C228 N224 1.362 . S
C228 C225 1.431 . S
C228 C238 1.476 . S
H229 C223 0.929 . S
C230 O221 1.250 . S
C230 O222 1.258 . S
O231 Mn216 2.162 . S
O231 C219 1.281 . S
O232 Mn216 2.297 . S
O232 C219 1.236 . S
N233 Mn217 2.282 . S
N233 C234 1.328 . S
N233 C238 1.318 . S
C234 N233 1.328 . S
C234 C235 1.457 . S
C234 H239 0.929 . S
C235 C234 1.457 . S
C235 C236 1.291 . S
C235 H248 0.931 . S
C236 C235 1.291 . S
C236 C237 1.373 . S
C236 H249 0.929 . S
C237 C236 1.373 . S
C237 C238 1.396 . S
C237 C244 1.403 . S
C238 C228 1.476 . S
C238 N233 1.318 . S
C238 C237 1.396 . S
H239 C234 0.929 . S
O240 Mn216 2.385 . S
O240 C218 1.234 . S
O241 Mn216 2.209 . S
O241 Mn217 2.215 . S
O241 C218 1.283 . S
O242 Mn216 2.094 . S
O242 C220 1.240 . S
O243 Mn217 2.117 . S
O243 C220 1.264 . S
C244 C237 1.403 . S
C244 C245 1.399 . S
C244 H250 0.929 . S
C245 C225 1.449 . S
C245 C244 1.399 . S
C245 H251 0.930 . S
H246 C226 0.931 . S
H247 C227 0.930 . S
H248 C235 0.931 . S
H249 C236 0.929 . S
H250 C244 0.929 . S
H251 C245 0.930 . S
Mn252 O257 2.095 . S
Mn252 O267 2.162 . S
Mn252 O268 2.297 . S
Mn252 O276 2.385 1_455 S
Mn252 O277 2.209 1_455 S
Mn252 O278 2.094 . S
Mn253 O258 2.121 . S
Mn253 N260 2.257 1_455 S
Mn253 N269 2.282 1_455 S
Mn253 O277 2.215 1_455 S
Mn253 O279 2.117 . S
C254 O276 1.234 . S
C254 O277 1.283 . S
C255 O267 1.281 . S
C255 O268 1.236 . S
C256 O278 1.240 . S
C256 O279 1.264 . S
O257 Mn252 2.095 . S
O257 C266 1.250 . S
O258 Mn253 2.121 . S
O258 C266 1.258 . S
C259 N260 1.326 1_455 S
C259 C263 1.460 1_455 S
C259 H265 0.929 . S
N260 Mn253 2.257 1_655 S
N260 C259 1.326 1_655 S
N260 C264 1.362 . S
C261 C262 1.258 . S
C261 C264 1.431 . S
C261 C281 1.449 . S
C262 C261 1.258 . S
C262 C263 1.477 . S
C262 H282 0.931 . S
C263 C259 1.460 1_655 S
C263 C262 1.477 . S
C263 H283 0.930 . S
C264 N260 1.362 . S
C264 C261 1.431 . S
C264 C274 1.476 . S
H265 C259 0.929 . S
C266 O257 1.250 . S
C266 O258 1.258 . S
O267 Mn252 2.162 . S
O267 C255 1.281 . S
O268 Mn252 2.297 . S
O268 C255 1.236 . S
N269 Mn253 2.282 1_655 S
N269 C270 1.328 . S
N269 C274 1.318 . S
C270 N269 1.328 . S
C270 C271 1.457 . S
C270 H275 0.929 . S
C271 C270 1.457 . S
C271 C272 1.291 . S
C271 H284 0.931 . S
C272 C271 1.291 . S
C272 C273 1.373 . S
C272 H285 0.929 . S
C273 C272 1.373 . S
C273 C274 1.396 . S
C273 C280 1.403 . S
C274 C264 1.476 . S
C274 N269 1.318 . S
C274 C273 1.396 . S
H275 C270 0.929 . S
O276 Mn252 2.385 1_655 S
O276 C254 1.234 . S
O277 Mn252 2.209 1_655 S
O277 Mn253 2.215 1_655 S
O277 C254 1.283 . S
O278 Mn252 2.094 . S
O278 C256 1.240 . S
O279 Mn253 2.117 . S
O279 C256 1.264 . S
C280 C273 1.403 . S
C280 C281 1.399 . S
C280 H286 0.929 . S
C281 C261 1.449 . S
C281 C280 1.399 . S
C281 H287 0.930 . S
H282 C262 0.931 . S
H283 C263 0.930 . S
H284 C271 0.931 . S
H285 C272 0.929 . S
H286 C280 0.929 . S
H287 C281 0.930 . S
Mn288 O293 2.095 . S
Mn288 O303 2.162 . S
Mn288 O304 2.297 . S
Mn288 O312 2.385 1_545 S
Mn288 O313 2.209 . S
Mn288 O314 2.094 . S
Mn289 O294 2.121 . S
Mn289 N296 2.257 . S
Mn289 N305 2.282 1_545 S
Mn289 O313 2.215 . S
Mn289 O315 2.117 . S
C290 O312 1.234 . S
C290 O313 1.283 1_565 S
C291 O303 1.281 . S
C291 O304 1.236 . S
C292 O314 1.240 . S
C292 O315 1.264 . S
O293 Mn288 2.095 . S
O293 C302 1.250 . S
O294 Mn289 2.121 . S
O294 C302 1.258 . S
C295 N296 1.326 . S
C295 C299 1.460 . S
C295 H301 0.929 . S
N296 Mn289 2.257 . S
N296 C295 1.326 . S
N296 C300 1.362 1_545 S
C297 C298 1.258 . S
C297 C300 1.431 . S
C297 C317 1.449 . S
C298 C297 1.258 . S
C298 C299 1.477 1_565 S
C298 H318 0.931 . S
C299 C295 1.460 . S
C299 C298 1.477 1_545 S
C299 H319 0.930 . S
C300 N296 1.362 1_565 S
C300 C297 1.431 . S
C300 C310 1.476 . S
H301 C295 0.929 . S
C302 O293 1.250 . S
C302 O294 1.258 . S
O303 Mn288 2.162 . S
O303 C291 1.281 . S
O304 Mn288 2.297 . S
O304 C291 1.236 . S
N305 Mn289 2.282 1_565 S
N305 C306 1.328 . S
N305 C310 1.318 . S
C306 N305 1.328 . S
C306 C307 1.457 . S
C306 H311 0.929 . S
C307 C306 1.457 . S
C307 C308 1.291 . S
C307 H320 0.931 . S
C308 C307 1.291 . S
C308 C309 1.373 . S
C308 H321 0.929 . S
C309 C308 1.373 . S
C309 C310 1.396 . S
C309 C316 1.403 . S
C310 C300 1.476 . S
C310 N305 1.318 . S
C310 C309 1.396 . S
H311 C306 0.929 . S
O312 Mn288 2.385 1_565 S
O312 C290 1.234 . S
O313 Mn288 2.209 . S
O313 Mn289 2.215 . S
O313 C290 1.283 1_545 S
O314 Mn288 2.094 . S
O314 C292 1.240 . S
O315 Mn289 2.117 . S
O315 C292 1.264 . S
C316 C309 1.403 . S
C316 C317 1.399 . S
C316 H322 0.929 . S
C317 C297 1.449 . S
C317 C316 1.399 . S
C317 H323 0.930 . S
H318 C298 0.931 . S
H319 C299 0.930 . S
H320 C307 0.931 . S
H321 C308 0.929 . S
H322 C316 0.929 . S
H323 C317 0.930 . S
Mn324 O329 2.095 . S
Mn324 O339 2.162 . S
Mn324 O340 2.297 . S
Mn324 O348 2.385 . S
Mn324 O349 2.209 . S
Mn324 O350 2.094 . S
Mn325 O330 2.121 . S
Mn325 N332 2.257 . S
Mn325 N341 2.282 . S
Mn325 O349 2.215 . S
Mn325 O351 2.117 . S
C326 O348 1.234 . S
C326 O349 1.283 . S
C327 O339 1.281 . S
C327 O340 1.236 . S
C328 O350 1.240 . S
C328 O351 1.264 . S
O329 Mn324 2.095 . S
O329 C338 1.250 . S
O330 Mn325 2.121 . S
O330 C338 1.258 . S
C331 N332 1.326 . S
C331 C335 1.460 . S
C331 H337 0.929 . S
N332 Mn325 2.257 . S
N332 C331 1.326 . S
N332 C336 1.362 . S
C333 C334 1.258 . S
C333 C336 1.431 . S
C333 C353 1.449 . S
C334 C333 1.258 . S
C334 C335 1.477 . S
C334 H354 0.931 . S
C335 C331 1.460 . S
C335 C334 1.477 . S
C335 H355 0.930 . S
C336 N332 1.362 . S
C336 C333 1.431 . S
C336 C346 1.476 . S
H337 C331 0.929 . S
C338 O329 1.250 . S
C338 O330 1.258 . S
O339 Mn324 2.162 . S
O339 C327 1.281 . S
O340 Mn324 2.297 . S
O340 C327 1.236 . S
N341 Mn325 2.282 . S
N341 C342 1.328 . S
N341 C346 1.318 . S
C342 N341 1.328 . S
C342 C343 1.457 . S
C342 H347 0.929 . S
C343 C342 1.457 . S
C343 C344 1.291 . S
C343 H356 0.931 . S
C344 C343 1.291 . S
C344 C345 1.373 . S
C344 H357 0.929 . S
C345 C344 1.373 . S
C345 C346 1.396 . S
C345 C352 1.403 . S
C346 C336 1.476 . S
C346 N341 1.318 . S
C346 C345 1.396 . S
H347 C342 0.929 . S
O348 Mn324 2.385 . S
O348 C326 1.234 . S
O349 Mn324 2.209 . S
O349 Mn325 2.215 . S
O349 C326 1.283 . S
O350 Mn324 2.094 . S
O350 C328 1.240 . S
O351 Mn325 2.117 . S
O351 C328 1.264 . S
C352 C345 1.403 . S
C352 C353 1.399 . S
C352 H358 0.929 . S
C353 C333 1.449 . S
C353 C352 1.399 . S
C353 H359 0.930 . S
H354 C334 0.931 . S
H355 C335 0.930 . S
H356 C343 0.931 . S
H357 C344 0.929 . S
H358 C352 0.929 . S
H359 C353 0.930 . S
Mn360 O365 2.095 . S
Mn360 O375 2.162 . S
Mn360 O376 2.297 . S
Mn360 O384 2.385 . S
Mn360 O385 2.209 . S
Mn360 O386 2.094 . S
Mn361 O366 2.121 . S
Mn361 N368 2.257 . S
Mn361 N377 2.282 . S
Mn361 O385 2.215 . S
Mn361 O387 2.117 . S
C362 O384 1.234 . S
C362 O385 1.283 . S
C363 O375 1.281 . S
C363 O376 1.236 . S
C364 O386 1.240 . S
C364 O387 1.264 . S
O365 Mn360 2.095 . S
O365 C374 1.250 . S
O366 Mn361 2.121 . S
O366 C374 1.258 . S
C367 N368 1.326 . S
C367 C371 1.460 . S
C367 H373 0.929 . S
N368 Mn361 2.257 . S
N368 C367 1.326 . S
N368 C372 1.362 . S
C369 C370 1.258 . S
C369 C372 1.431 . S
C369 C389 1.449 . S
C370 C369 1.258 . S
C370 C371 1.477 . S
C370 H390 0.931 . S
C371 C367 1.460 . S
C371 C370 1.477 . S
C371 H391 0.930 . S
C372 N368 1.362 . S
C372 C369 1.431 . S
C372 C382 1.476 . S
H373 C367 0.929 . S
C374 O365 1.250 . S
C374 O366 1.258 . S
O375 Mn360 2.162 . S
O375 C363 1.281 . S
O376 Mn360 2.297 . S
O376 C363 1.236 . S
N377 Mn361 2.282 . S
N377 C378 1.328 . S
N377 C382 1.318 . S
C378 N377 1.328 . S
C378 C379 1.457 . S
C378 H383 0.929 . S
C379 C378 1.457 . S
C379 C380 1.291 . S
C379 H392 0.931 . S
C380 C379 1.291 . S
C380 C381 1.373 . S
C380 H393 0.929 . S
C381 C380 1.373 . S
C381 C382 1.396 . S
C381 C388 1.403 . S
C382 C372 1.476 . S
C382 N377 1.318 . S
C382 C381 1.396 . S
H383 C378 0.929 . S
O384 Mn360 2.385 . S
O384 C362 1.234 . S
O385 Mn360 2.209 . S
O385 Mn361 2.215 . S
O385 C362 1.283 . S
O386 Mn360 2.094 . S
O386 C364 1.240 . S
O387 Mn361 2.117 . S
O387 C364 1.264 . S
C388 C381 1.403 . S
C388 C389 1.399 . S
C388 H394 0.929 . S
C389 C369 1.449 . S
C389 C388 1.399 . S
C389 H395 0.930 . S
H390 C370 0.931 . S
H391 C371 0.930 . S
H392 C379 0.931 . S
H393 C380 0.929 . S
H394 C388 0.929 . S
H395 C389 0.930 . S
Mn396 O401 2.095 1_554 S
Mn396 O411 2.162 . S
Mn396 O412 2.297 . S
Mn396 O420 2.385 . S
Mn396 O421 2.209 . S
Mn396 O422 2.094 1_554 S
Mn397 O402 2.121 . S
Mn397 N404 2.257 . S
Mn397 N413 2.282 . S
Mn397 O421 2.215 1_556 S
Mn397 O423 2.117 . S
C398 O420 1.234 . S
C398 O421 1.283 . S
C399 O411 1.281 . S
C399 O412 1.236 . S
C400 O422 1.240 . S
C400 O423 1.264 . S
O401 Mn396 2.095 1_556 S
O401 C410 1.250 . S
O402 Mn397 2.121 . S
O402 C410 1.258 . S
C403 N404 1.326 . S
C403 C407 1.460 . S
C403 H409 0.929 . S
N404 Mn397 2.257 . S
N404 C403 1.326 . S
N404 C408 1.362 . S
C405 C406 1.258 . S
C405 C408 1.431 . S
C405 C425 1.449 . S
C406 C405 1.258 . S
C406 C407 1.477 . S
C406 H426 0.931 . S
C407 C403 1.460 . S
C407 C406 1.477 . S
C407 H427 0.930 1_556 S
C408 N404 1.362 . S
C408 C405 1.431 . S
C408 C418 1.476 . S
H409 C403 0.929 . S
C410 O401 1.250 . S
C410 O402 1.258 . S
O411 Mn396 2.162 . S
O411 C399 1.281 . S
O412 Mn396 2.297 . S
O412 C399 1.236 . S
N413 Mn397 2.282 . S
N413 C414 1.328 . S
N413 C418 1.318 . S
C414 N413 1.328 . S
C414 C415 1.457 . S
C414 H419 0.929 . S
C415 C414 1.457 . S
C415 C416 1.291 . S
C415 H428 0.931 . S
C416 C415 1.291 . S
C416 C417 1.373 . S
C416 H429 0.929 . S
C417 C416 1.373 . S
C417 C418 1.396 . S
C417 C424 1.403 . S
C418 C408 1.476 . S
C418 N413 1.318 . S
C418 C417 1.396 . S
H419 C414 0.929 . S
O420 Mn396 2.385 . S
O420 C398 1.234 . S
O421 Mn396 2.209 . S
O421 Mn397 2.215 1_554 S
O421 C398 1.283 . S
O422 Mn396 2.094 1_556 S
O422 C400 1.240 . S
O423 Mn397 2.117 . S
O423 C400 1.264 . S
C424 C417 1.403 . S
C424 C425 1.399 . S
C424 H430 0.929 . S
C425 C405 1.449 . S
C425 C424 1.399 . S
C425 H431 0.930 . S
H426 C406 0.931 . S
H427 C407 0.930 1_554 S
H428 C415 0.931 . S
H429 C416 0.929 . S
H430 C424 0.929 . S
H431 C425 0.930 . S
Mn432 O437 2.095 . S
Mn432 O447 2.162 . S
Mn432 O448 2.297 . S
Mn432 O456 2.385 . S
Mn432 O457 2.209 . S
Mn432 O458 2.094 . S
Mn433 O438 2.121 . S
Mn433 N440 2.257 . S
Mn433 N449 2.282 . S
Mn433 O457 2.215 . S
Mn433 O459 2.117 . S
C434 O456 1.234 . S
C434 O457 1.283 . S
C435 O447 1.281 . S
C435 O448 1.236 . S
C436 O458 1.240 . S
C436 O459 1.264 . S
O437 Mn432 2.095 . S
O437 C446 1.250 . S
O438 Mn433 2.121 . S
O438 C446 1.258 . S
C439 N440 1.326 . S
C439 C443 1.460 . S
C439 H445 0.929 . S
N440 Mn433 2.257 . S
N440 C439 1.326 . S
N440 C444 1.362 . S
C441 C442 1.258 . S
C441 C444 1.431 . S
C441 C461 1.449 . S
C442 C441 1.258 . S
C442 C443 1.477 . S
C442 H462 0.931 . S
C443 C439 1.460 . S
C443 C442 1.477 . S
C443 H463 0.930 . S
C444 N440 1.362 . S
C444 C441 1.431 . S
C444 C454 1.476 . S
H445 C439 0.929 . S
C446 O437 1.250 . S
C446 O438 1.258 . S
O447 Mn432 2.162 . S
O447 C435 1.281 . S
O448 Mn432 2.297 . S
O448 C435 1.236 . S
N449 Mn433 2.282 . S
N449 C450 1.328 1_554 S
N449 C454 1.318 . S
C450 N449 1.328 1_556 S
C450 C451 1.457 . S
C450 H455 0.929 . S
C451 C450 1.457 . S
C451 C452 1.291 . S
C451 H464 0.931 . S
C452 C451 1.291 . S
C452 C453 1.373 1_556 S
C452 H465 0.929 . S
C453 C452 1.373 1_554 S
C453 C454 1.396 . S
C453 C460 1.403 . S
C454 C444 1.476 . S
C454 N449 1.318 . S
C454 C453 1.396 . S
H455 C450 0.929 . S
O456 Mn432 2.385 . S
O456 C434 1.234 . S
O457 Mn432 2.209 . S
O457 Mn433 2.215 . S
O457 C434 1.283 . S
O458 Mn432 2.094 . S
O458 C436 1.240 . S
O459 Mn433 2.117 . S
O459 C436 1.264 . S
C460 C453 1.403 . S
C460 C461 1.399 . S
C460 H466 0.929 . S
C461 C441 1.449 . S
C461 C460 1.399 . S
C461 H467 0.930 . S
H462 C442 0.931 . S
H463 C443 0.930 . S
H464 C451 0.931 . S
H465 C452 0.929 . S
H466 C460 0.929 . S
H467 C461 0.930 . S
Mn468 O473 2.095 . S
Mn468 O483 2.162 . S
Mn468 O484 2.297 . S
Mn468 O492 2.385 . S
Mn468 O493 2.209 . S
Mn468 O494 2.094 . S
Mn469 O474 2.121 . S
Mn469 N476 2.257 . S
Mn469 N485 2.282 . S
Mn469 O493 2.215 . S
Mn469 O495 2.117 . S
C470 O492 1.234 . S
C470 O493 1.283 . S
C471 O483 1.281 . S
C471 O484 1.236 . S
C472 O494 1.240 . S
C472 O495 1.264 . S
O473 Mn468 2.095 . S
O473 C482 1.250 . S
O474 Mn469 2.121 . S
O474 C482 1.258 . S
C475 N476 1.326 . S
C475 C479 1.460 . S
C475 H481 0.929 . S
N476 Mn469 2.257 . S
N476 C475 1.326 . S
N476 C480 1.362 . S
C477 C478 1.258 . S
C477 C480 1.431 . S
C477 C497 1.449 . S
C478 C477 1.258 . S
C478 C479 1.477 . S
C478 H498 0.931 . S
C479 C475 1.460 . S
C479 C478 1.477 . S
C479 H499 0.930 . S
C480 N476 1.362 . S
C480 C477 1.431 . S
C480 C490 1.476 . S
H481 C475 0.929 . S
C482 O473 1.250 . S
C482 O474 1.258 . S
O483 Mn468 2.162 . S
O483 C471 1.281 . S
O484 Mn468 2.297 . S
O484 C471 1.236 . S
N485 Mn469 2.282 . S
N485 C486 1.328 . S
N485 C490 1.318 . S
C486 N485 1.328 . S
C486 C487 1.457 . S
C486 H491 0.929 . S
C487 C486 1.457 . S
C487 C488 1.291 . S
C487 H500 0.931 . S
C488 C487 1.291 . S
C488 C489 1.373 . S
C488 H501 0.929 . S
C489 C488 1.373 . S
C489 C490 1.396 . S
C489 C496 1.403 . S
C490 C480 1.476 . S
C490 N485 1.318 . S
C490 C489 1.396 . S
H491 C486 0.929 . S
O492 Mn468 2.385 . S
O492 C470 1.234 . S
O493 Mn468 2.209 . S
O493 Mn469 2.215 . S
O493 C470 1.283 . S
O494 Mn468 2.094 . S
O494 C472 1.240 . S
O495 Mn469 2.117 . S
O495 C472 1.264 . S
C496 C489 1.403 . S
C496 C497 1.399 . S
C496 H502 0.929 . S
C497 C477 1.449 . S
C497 C496 1.399 . S
C497 H503 0.930 . S
H498 C478 0.931 . S
H499 C479 0.930 . S
H500 C487 0.931 . S
H501 C488 0.929 . S
H502 C496 0.929 . S
H503 C497 0.930 . S
Mn504 O509 2.095 . S
Mn504 O519 2.162 . S
Mn504 O520 2.297 . S
Mn504 O528 2.385 . S
Mn504 O529 2.209 . S
Mn504 O530 2.094 . S
Mn505 O510 2.121 . S
Mn505 N512 2.257 . S
Mn505 N521 2.282 . S
Mn505 O529 2.215 . S
Mn505 O531 2.117 . S
C506 O528 1.234 . S
C506 O529 1.283 . S
C507 O519 1.281 . S
C507 O520 1.236 . S
C508 O530 1.240 . S
C508 O531 1.264 . S
O509 Mn504 2.095 . S
O509 C518 1.250 . S
O510 Mn505 2.121 . S
O510 C518 1.258 . S
C511 N512 1.326 . S
C511 C515 1.460 . S
C511 H517 0.929 . S
N512 Mn505 2.257 . S
N512 C511 1.326 . S
N512 C516 1.362 . S
C513 C514 1.258 . S
C513 C516 1.431 . S
C513 C533 1.449 . S
C514 C513 1.258 . S
C514 C515 1.477 . S
C514 H534 0.931 . S
C515 C511 1.460 . S
C515 C514 1.477 . S
C515 H535 0.930 . S
C516 N512 1.362 . S
C516 C513 1.431 . S
C516 C526 1.476 . S
H517 C511 0.929 . S
C518 O509 1.250 . S
C518 O510 1.258 . S
O519 Mn504 2.162 . S
O519 C507 1.281 . S
O520 Mn504 2.297 . S
O520 C507 1.236 . S
N521 Mn505 2.282 . S
N521 C522 1.328 . S
N521 C526 1.318 . S
C522 N521 1.328 . S
C522 C523 1.457 . S
C522 H527 0.929 . S
C523 C522 1.457 . S
C523 C524 1.291 . S
C523 H536 0.931 . S
C524 C523 1.291 . S
C524 C525 1.373 . S
C524 H537 0.929 . S
C525 C524 1.373 . S
C525 C526 1.396 . S
C525 C532 1.403 . S
C526 C516 1.476 . S
C526 N521 1.318 . S
C526 C525 1.396 . S
H527 C522 0.929 . S
O528 Mn504 2.385 . S
O528 C506 1.234 . S
O529 Mn504 2.209 . S
O529 Mn505 2.215 . S
O529 C506 1.283 . S
O530 Mn504 2.094 . S
O530 C508 1.240 . S
O531 Mn505 2.117 . S
O531 C508 1.264 . S
C532 C525 1.403 . S
C532 C533 1.399 . S
C532 H538 0.929 . S
C533 C513 1.449 . S
C533 C532 1.399 . S
C533 H539 0.930 . S
H534 C514 0.931 . S
H535 C515 0.930 . S
H536 C523 0.931 . S
H537 C524 0.929 . S
H538 C532 0.929 . S
H539 C533 0.930 . S
Mn540 O545 2.095 . S
Mn540 O555 2.162 . S
Mn540 O556 2.297 . S
Mn540 O564 2.385 . S
Mn540 O565 2.209 . S
Mn540 O566 2.094 . S
Mn541 O546 2.121 . S
Mn541 N548 2.257 . S
Mn541 N557 2.282 . S
Mn541 O565 2.215 . S
Mn541 O567 2.117 . S
C542 O564 1.234 . S
C542 O565 1.283 . S
C543 O555 1.281 . S
C543 O556 1.236 . S
C544 O566 1.240 . S
C544 O567 1.264 . S
O545 Mn540 2.095 . S
O545 C554 1.250 . S
O546 Mn541 2.121 . S
O546 C554 1.258 . S
C547 N548 1.326 . S
C547 C551 1.460 1_565 S
C547 H553 0.929 . S
N548 Mn541 2.257 . S
N548 C547 1.326 . S
N548 C552 1.362 . S
C549 C550 1.259 1_565 S
C549 C552 1.430 . S
C549 C569 1.449 1_565 S
C550 C549 1.259 1_545 S
C550 C551 1.477 . S
C550 H570 0.931 . S
C551 C547 1.460 1_545 S
C551 C550 1.477 . S
C551 H571 0.930 . S
C552 N548 1.362 . S
C552 C549 1.430 . S
C552 C562 1.476 . S
H553 C547 0.929 . S
C554 O545 1.250 . S
C554 O546 1.258 . S
O555 Mn540 2.162 . S
O555 C543 1.281 . S
O556 Mn540 2.297 . S
O556 C543 1.236 . S
N557 Mn541 2.282 . S
N557 C558 1.328 . S
N557 C562 1.318 . S
C558 N557 1.328 . S
C558 C559 1.457 . S
C558 H563 0.929 . S
C559 C558 1.457 . S
C559 C560 1.291 . S
C559 H572 0.931 . S
C560 C559 1.291 . S
C560 C561 1.373 . S
C560 H573 0.929 . S
C561 C560 1.373 . S
C561 C562 1.396 . S
C561 C568 1.403 . S
C562 C552 1.476 . S
C562 N557 1.318 . S
C562 C561 1.396 . S
H563 C558 0.929 . S
O564 Mn540 2.385 . S
O564 C542 1.234 . S
O565 Mn540 2.209 . S
O565 Mn541 2.215 . S
O565 C542 1.283 . S
O566 Mn540 2.094 . S
O566 C544 1.240 . S
O567 Mn541 2.117 . S
O567 C544 1.264 . S
C568 C561 1.403 . S
C568 C569 1.399 1_565 S
C568 H574 0.929 . S
C569 C549 1.449 1_545 S
C569 C568 1.399 1_545 S
C569 H575 0.930 . S
H570 C550 0.931 . S
H571 C551 0.930 . S
H572 C559 0.931 . S
H573 C560 0.929 . S
H574 C568 0.929 . S
H575 C569 0.930 . S
Mn576 O581 2.098 1_565 S
Mn576 O591 2.162 1_565 S
Mn576 O592 2.297 . S
Mn576 O600 2.382 . S
Mn576 O601 2.208 . S
Mn576 O602 2.094 1_565 S
Mn577 O582 2.121 1_565 S
Mn577 N584 2.257 . S
Mn577 N593 2.282 . S
Mn577 O601 2.215 . S
Mn577 O603 2.117 1_565 S
C578 O600 1.234 . S
C578 O601 1.283 . S
C579 O591 1.281 1_565 S
C579 O592 1.236 . S
C580 O602 1.240 . S
C580 O603 1.264 . S
O581 Mn576 2.098 1_545 S
O581 C590 1.250 . S
O582 Mn577 2.121 1_545 S
O582 C590 1.258 . S
C583 N584 1.326 . S
C583 C587 1.460 . S
C583 H589 0.929 1_565 S
N584 Mn577 2.257 . S
N584 C583 1.326 . S
N584 C588 1.362 . S
C585 C586 1.258 . S
C585 C588 1.431 . S
C585 C605 1.449 . S
C586 C585 1.258 . S
C586 C587 1.477 . S
C586 H606 0.931 . S
C587 C583 1.460 . S
C587 C586 1.477 . S
C587 H607 0.930 . S
C588 N584 1.362 . S
C588 C585 1.431 . S
C588 C598 1.476 . S
H589 C583 0.929 1_545 S
C590 O581 1.250 . S
C590 O582 1.258 . S
O591 Mn576 2.162 1_545 S
O591 C579 1.281 1_545 S
O592 Mn576 2.297 . S
O592 C579 1.236 . S
N593 Mn577 2.282 . S
N593 C594 1.328 . S
N593 C598 1.318 . S
C594 N593 1.328 . S
C594 C595 1.457 . S
C594 H599 0.929 . S
C595 C594 1.457 . S
C595 C596 1.291 . S
C595 H608 0.931 . S
C596 C595 1.291 . S
C596 C597 1.373 . S
C596 H609 0.929 . S
C597 C596 1.373 . S
C597 C598 1.396 . S
C597 C604 1.403 . S
C598 C588 1.476 . S
C598 N593 1.318 . S
C598 C597 1.396 . S
H599 C594 0.929 . S
O600 Mn576 2.382 . S
O600 C578 1.234 . S
O601 Mn576 2.208 . S
O601 Mn577 2.215 . S
O601 C578 1.283 . S
O602 Mn576 2.094 1_545 S
O602 C580 1.240 . S
O603 Mn577 2.117 1_545 S
O603 C580 1.264 . S
C604 C597 1.403 . S
C604 C605 1.399 . S
C604 H610 0.929 . S
C605 C585 1.449 . S
C605 C604 1.399 . S
C605 H611 0.930 . S
H606 C586 0.931 . S
H607 C587 0.930 . S
H608 C595 0.931 . S
H609 C596 0.929 . S
H610 C604 0.929 . S
H611 C605 0.930 . S
Mn612 O617 2.095 . S
Mn612 O627 2.162 . S
Mn612 O628 2.297 . S
Mn612 O636 2.385 . S
Mn612 O637 2.209 . S
Mn612 O638 2.094 . S
Mn613 O618 2.121 . S
Mn613 N620 2.257 . S
Mn613 N629 2.282 . S
Mn613 O637 2.215 . S
Mn613 O639 2.117 . S
C614 O636 1.234 . S
C614 O637 1.283 . S
C615 O627 1.281 . S
C615 O628 1.236 . S
C616 O638 1.240 . S
C616 O639 1.264 . S
O617 Mn612 2.095 . S
O617 C626 1.250 . S
O618 Mn613 2.121 . S
O618 C626 1.258 . S
C619 N620 1.326 . S
C619 C623 1.460 . S
C619 H625 0.929 . S
N620 Mn613 2.257 . S
N620 C619 1.326 . S
N620 C624 1.362 . S
C621 C622 1.258 . S
C621 C624 1.431 . S
C621 C641 1.449 . S
C622 C621 1.258 . S
C622 C623 1.477 . S
C622 H642 0.931 . S
C623 C619 1.460 . S
C623 C622 1.477 . S
C623 H643 0.930 . S
C624 N620 1.362 . S
C624 C621 1.431 . S
C624 C634 1.476 . S
H625 C619 0.929 . S
C626 O617 1.250 . S
C626 O618 1.258 . S
O627 Mn612 2.162 . S
O627 C615 1.281 . S
O628 Mn612 2.297 . S
O628 C615 1.236 . S
N629 Mn613 2.282 . S
N629 C630 1.328 . S
N629 C634 1.318 . S
C630 N629 1.328 . S
C630 C631 1.457 . S
C630 H635 0.929 . S
C631 C630 1.457 . S
C631 C632 1.291 . S
C631 H644 0.931 . S
C632 C631 1.291 . S
C632 C633 1.373 . S
C632 H645 0.929 . S
C633 C632 1.373 . S
C633 C634 1.396 . S
C633 C640 1.403 . S
C634 C624 1.476 . S
C634 N629 1.318 . S
C634 C633 1.396 . S
H635 C630 0.929 . S
O636 Mn612 2.385 . S
O636 C614 1.234 . S
O637 Mn612 2.209 . S
O637 Mn613 2.215 . S
O637 C614 1.283 . S
O638 Mn612 2.094 . S
O638 C616 1.240 . S
O639 Mn613 2.117 . S
O639 C616 1.264 . S
C640 C633 1.403 . S
C640 C641 1.399 . S
C640 H646 0.929 . S
C641 C621 1.449 . S
C641 C640 1.399 . S
C641 H647 0.930 . S
H642 C622 0.931 . S
H643 C623 0.930 . S
H644 C631 0.931 . S
H645 C632 0.929 . S
H646 C640 0.929 . S
H647 C641 0.930 . S
Mn648 O653 2.095 . S
Mn648 O663 2.162 . S
Mn648 O664 2.297 . S
Mn648 O672 2.385 . S
Mn648 O673 2.209 . S
Mn648 O674 2.094 . S
Mn649 O654 2.121 . S
Mn649 N656 2.257 . S
Mn649 N665 2.282 . S
Mn649 O673 2.215 . S
Mn649 O675 2.117 . S
C650 O672 1.234 . S
C650 O673 1.283 . S
C651 O663 1.281 . S
C651 O664 1.236 . S
C652 O674 1.240 . S
C652 O675 1.264 . S
O653 Mn648 2.095 . S
O653 C662 1.250 . S
O654 Mn649 2.121 . S
O654 C662 1.258 . S
C655 N656 1.326 . S
C655 C659 1.460 . S
C655 H661 0.929 . S
N656 Mn649 2.257 . S
N656 C655 1.326 . S
N656 C660 1.362 . S
C657 C658 1.258 . S
C657 C660 1.431 . S
C657 C677 1.449 . S
C658 C657 1.258 . S
C658 C659 1.477 . S
C658 H678 0.931 . S
C659 C655 1.460 . S
C659 C658 1.477 . S
C659 H679 0.930 . S
C660 N656 1.362 . S
C660 C657 1.431 . S
C660 C670 1.476 . S
H661 C655 0.929 . S
C662 O653 1.250 . S
C662 O654 1.258 . S
O663 Mn648 2.162 . S
O663 C651 1.281 . S
O664 Mn648 2.297 . S
O664 C651 1.236 . S
N665 Mn649 2.282 . S
N665 C666 1.328 . S
N665 C670 1.318 . S
C666 N665 1.328 . S
C666 C667 1.457 . S
C666 H671 0.929 . S
C667 C666 1.457 . S
C667 C668 1.291 . S
C667 H680 0.931 . S
C668 C667 1.291 . S
C668 C669 1.373 . S
C668 H681 0.929 . S
C669 C668 1.373 . S
C669 C670 1.396 . S
C669 C676 1.403 . S
C670 C660 1.476 . S
C670 N665 1.318 . S
C670 C669 1.396 . S
H671 C666 0.929 . S
O672 Mn648 2.385 . S
O672 C650 1.234 . S
O673 Mn648 2.209 . S
O673 Mn649 2.215 . S
O673 C650 1.283 . S
O674 Mn648 2.094 . S
O674 C652 1.240 . S
O675 Mn649 2.117 . S
O675 C652 1.264 . S
C676 C669 1.403 . S
C676 C677 1.399 . S
C676 H682 0.929 . S
C677 C657 1.449 . S
C677 C676 1.399 . S
C677 H683 0.930 . S
H678 C658 0.931 . S
H679 C659 0.930 . S
H680 C667 0.931 . S
H681 C668 0.929 . S
H682 C676 0.929 . S
H683 C677 0.930 . S
Mn684 O689 2.095 1_545 S
Mn684 O699 2.162 . S
Mn684 O700 2.297 . S
Mn684 O708 2.385 . S
Mn684 O709 2.209 . S
Mn684 O710 2.094 . S
Mn685 O690 2.121 . S
Mn685 N692 2.257 . S
Mn685 N701 2.282 . S
Mn685 O709 2.215 . S
Mn685 O711 2.117 . S
C686 O708 1.234 . S
C686 O709 1.283 . S
C687 O699 1.281 . S
C687 O700 1.236 . S
C688 O710 1.240 . S
C688 O711 1.264 . S
O689 Mn684 2.095 1_565 S
O689 C698 1.250 . S
O690 Mn685 2.121 . S
O690 C698 1.258 1_545 S
C691 N692 1.326 . S
C691 C695 1.460 . S
C691 H697 0.929 . S
N692 Mn685 2.257 . S
N692 C691 1.326 . S
N692 C696 1.362 . S
C693 C694 1.258 . S
C693 C696 1.431 . S
C693 C713 1.449 . S
C694 C693 1.258 . S
C694 C695 1.477 . S
C694 H714 0.931 . S
C695 C691 1.460 . S
C695 C694 1.477 . S
C695 H715 0.930 . S
C696 N692 1.362 . S
C696 C693 1.431 . S
C696 C706 1.476 . S
H697 C691 0.929 . S
C698 O689 1.250 . S
C698 O690 1.258 1_565 S
O699 Mn684 2.162 . S
O699 C687 1.281 . S
O700 Mn684 2.297 . S
O700 C687 1.236 . S
N701 Mn685 2.282 . S
N701 C702 1.328 . S
N701 C706 1.318 . S
C702 N701 1.328 . S
C702 C703 1.457 . S
C702 H707 0.929 . S
C703 C702 1.457 . S
C703 C704 1.291 . S
C703 H716 0.931 . S
C704 C703 1.291 . S
C704 C705 1.373 . S
C704 H717 0.929 . S
C705 C704 1.373 . S
C705 C706 1.396 . S
C705 C712 1.403 . S
C706 C696 1.476 . S
C706 N701 1.318 . S
C706 C705 1.396 . S
H707 C702 0.929 . S
O708 Mn684 2.385 . S
O708 C686 1.234 . S
O709 Mn684 2.209 . S
O709 Mn685 2.215 . S
O709 C686 1.283 . S
O710 Mn684 2.094 . S
O710 C688 1.240 . S
O711 Mn685 2.117 . S
O711 C688 1.264 . S
C712 C705 1.403 . S
C712 C713 1.399 . S
C712 H718 0.929 . S
C713 C693 1.449 . S
C713 C712 1.399 . S
C713 H719 0.930 . S
H714 C694 0.931 . S
H715 C695 0.930 . S
H716 C703 0.931 . S
H717 C704 0.929 . S
H718 C712 0.929 . S
H719 C713 0.930 . S
Mn720 O725 2.095 . S
Mn720 O735 2.162 . S
Mn720 O736 2.297 . S
Mn720 O744 2.385 . S
Mn720 O745 2.209 . S
Mn720 O746 2.094 . S
Mn721 O726 2.121 . S
Mn721 N728 2.257 . S
Mn721 N737 2.282 1_554 S
Mn721 O745 2.215 . S
Mn721 O747 2.117 1_554 S
C722 O744 1.234 . S
C722 O745 1.283 . S
C723 O735 1.281 . S
C723 O736 1.236 . S
C724 O746 1.276 . S
C724 O747 1.261 1_554 S
O725 Mn720 2.095 . S
O725 C734 1.250 . S
O726 Mn721 2.121 . S
O726 C734 1.258 . S
C727 N728 1.326 . S
C727 C731 1.460 . S
C727 H733 0.929 . S
N728 Mn721 2.257 . S
N728 C727 1.326 . S
N728 C732 1.362 1_554 S
C729 C730 1.258 . S
C729 C732 1.431 . S
C729 C749 1.449 . S
C730 C729 1.258 . S
C730 C731 1.477 1_556 S
C730 H750 0.931 . S
C731 C727 1.460 . S
C731 C730 1.477 1_554 S
C731 H751 0.930 . S
C732 N728 1.362 1_556 S
C732 C729 1.431 . S
C732 C742 1.476 . S
H733 C727 0.929 . S
C734 O725 1.250 . S
C734 O726 1.258 . S
O735 Mn720 2.162 . S
O735 C723 1.281 . S
O736 Mn720 2.297 . S
O736 C723 1.236 . S
N737 Mn721 2.282 1_556 S
N737 C738 1.328 . S
N737 C742 1.318 . S
C738 N737 1.328 . S
C738 C739 1.457 . S
C738 H743 0.929 . S
C739 C738 1.457 . S
C739 C740 1.291 . S
C739 H752 0.931 . S
C740 C739 1.291 . S
C740 C741 1.373 . S
C740 H753 0.929 . S
C741 C740 1.373 . S
C741 C742 1.396 . S
C741 C748 1.403 . S
C742 C732 1.476 . S
C742 N737 1.318 . S
C742 C741 1.396 . S
H743 C738 0.929 . S
O744 Mn720 2.385 . S
O744 C722 1.234 . S
O745 Mn720 2.209 . S
O745 Mn721 2.215 . S
O745 C722 1.283 . S
O746 Mn720 2.094 . S
O746 C724 1.276 . S
O747 Mn721 2.117 1_556 S
O747 C724 1.261 1_556 S
C748 C741 1.403 . S
C748 C749 1.399 . S
C748 H754 0.929 . S
C749 C729 1.449 . S
C749 C748 1.399 . S
C749 H755 0.930 . S
H750 C730 0.931 . S
H751 C731 0.930 . S
H752 C739 0.931 . S
H753 C740 0.929 . S
H754 C748 0.929 . S
H755 C749 0.930 . S
Mn756 O761 2.095 . S
Mn756 O771 2.162 . S
Mn756 O772 2.297 . S
Mn756 O780 2.385 . S
Mn756 O781 2.209 . S
Mn756 O782 2.094 . S
Mn757 O762 2.121 . S
Mn757 N764 2.257 . S
Mn757 N773 2.282 . S
Mn757 O781 2.215 . S
Mn757 O783 2.117 . S
C758 O780 1.234 . S
C758 O781 1.283 . S
C759 O771 1.281 . S
C759 O772 1.236 . S
C760 O782 1.240 . S
C760 O783 1.264 . S
O761 Mn756 2.095 . S
O761 C770 1.250 . S
O762 Mn757 2.121 . S
O762 C770 1.258 . S
C763 N764 1.326 . S
C763 C767 1.460 . S
C763 H769 0.929 . S
N764 Mn757 2.257 . S
N764 C763 1.326 . S
N764 C768 1.362 . S
C765 C766 1.258 . S
C765 C768 1.431 . S
C765 C785 1.449 . S
C766 C765 1.258 . S
C766 C767 1.477 . S
C766 H786 0.931 . S
C767 C763 1.460 . S
C767 C766 1.477 . S
C767 H787 0.930 . S
C768 N764 1.362 . S
C768 C765 1.431 . S
C768 C778 1.476 . S
H769 C763 0.929 . S
C770 O761 1.250 . S
C770 O762 1.258 . S
O771 Mn756 2.162 . S
O771 C759 1.281 . S
O772 Mn756 2.297 . S
O772 C759 1.236 . S
N773 Mn757 2.282 . S
N773 C774 1.328 . S
N773 C778 1.318 . S
C774 N773 1.328 . S
C774 C775 1.457 . S
C774 H779 0.929 . S
C775 C774 1.457 . S
C775 C776 1.291 . S
C775 H788 0.931 . S
C776 C775 1.291 . S
C776 C777 1.373 . S
C776 H789 0.929 . S
C777 C776 1.373 . S
C777 C778 1.396 . S
C777 C784 1.403 . S
C778 C768 1.476 . S
C778 N773 1.318 . S
C778 C777 1.396 . S
H779 C774 0.929 . S
O780 Mn756 2.385 . S
O780 C758 1.234 . S
O781 Mn756 2.209 . S
O781 Mn757 2.215 . S
O781 C758 1.283 . S
O782 Mn756 2.094 . S
O782 C760 1.240 . S
O783 Mn757 2.117 . S
O783 C760 1.264 . S
C784 C777 1.403 . S
C784 C785 1.399 . S
C784 H790 0.929 . S
C785 C765 1.449 . S
C785 C784 1.399 . S
C785 H791 0.930 . S
H786 C766 0.931 . S
H787 C767 0.930 . S
H788 C775 0.931 . S
H789 C776 0.929 . S
H790 C784 0.929 . S
H791 C785 0.930 . S
Mn792 O797 2.095 . S
Mn792 O807 2.162 . S
Mn792 O808 2.297 . S
Mn792 O816 2.385 . S
Mn792 O817 2.209 . S
Mn792 O818 2.094 . S
Mn793 O798 2.121 . S
Mn793 N800 2.257 . S
Mn793 N809 2.282 . S
Mn793 O817 2.215 . S
Mn793 O819 2.117 . S
C794 O816 1.234 . S
C794 O817 1.283 . S
C795 O807 1.281 . S
C795 O808 1.236 . S
C796 O818 1.240 . S
C796 O819 1.264 . S
O797 Mn792 2.095 . S
O797 C806 1.250 . S
O798 Mn793 2.121 . S
O798 C806 1.258 . S
C799 N800 1.326 . S
C799 C803 1.460 . S
C799 H805 0.929 . S
N800 Mn793 2.257 . S
N800 C799 1.326 . S
N800 C804 1.362 . S
C801 C802 1.258 . S
C801 C804 1.431 . S
C801 C821 1.449 . S
C802 C801 1.258 . S
C802 C803 1.477 . S
C802 H822 0.931 . S
C803 C799 1.460 . S
C803 C802 1.477 . S
C803 H823 0.930 . S
C804 N800 1.362 . S
C804 C801 1.431 . S
C804 C814 1.476 . S
H805 C799 0.929 . S
C806 O797 1.250 . S
C806 O798 1.258 . S
O807 Mn792 2.162 . S
O807 C795 1.281 . S
O808 Mn792 2.297 . S
O808 C795 1.236 . S
N809 Mn793 2.282 . S
N809 C810 1.328 . S
N809 C814 1.318 . S
C810 N809 1.328 . S
C810 C811 1.457 . S
C810 H815 0.929 . S
C811 C810 1.457 . S
C811 C812 1.291 . S
C811 H824 0.931 . S
C812 C811 1.291 . S
C812 C813 1.373 . S
C812 H825 0.929 . S
C813 C812 1.373 . S
C813 C814 1.396 . S
C813 C820 1.403 . S
C814 C804 1.476 . S
C814 N809 1.318 . S
C814 C813 1.396 . S
H815 C810 0.929 . S
O816 Mn792 2.385 . S
O816 C794 1.234 . S
O817 Mn792 2.209 . S
O817 Mn793 2.215 . S
O817 C794 1.283 . S
O818 Mn792 2.094 . S
O818 C796 1.240 . S
O819 Mn793 2.117 . S
O819 C796 1.264 . S
C820 C813 1.403 . S
C820 C821 1.399 . S
C820 H826 0.929 . S
C821 C801 1.449 . S
C821 C820 1.399 . S
C821 H827 0.930 . S
H822 C802 0.931 . S
H823 C803 0.930 . S
H824 C811 0.931 . S
H825 C812 0.929 . S
H826 C820 0.929 . S
H827 C821 0.930 . S
Mn828 O833 2.095 . S
Mn828 O843 2.162 . S
Mn828 O844 2.297 . S
Mn828 O852 2.385 . S
Mn828 O853 2.209 . S
Mn828 O854 2.094 . S
Mn829 O834 2.121 . S
Mn829 N836 2.257 . S
Mn829 N845 2.282 . S
Mn829 O853 2.215 . S
Mn829 O855 2.117 . S
C830 O852 1.234 . S
C830 O853 1.283 . S
C831 O843 1.281 . S
C831 O844 1.236 . S
C832 O854 1.240 . S
C832 O855 1.264 . S
O833 Mn828 2.095 . S
O833 C842 1.250 . S
O834 Mn829 2.121 . S
O834 C842 1.258 . S
C835 N836 1.326 . S
C835 C839 1.460 . S
C835 H841 0.929 . S
N836 Mn829 2.257 . S
N836 C835 1.326 . S
N836 C840 1.362 . S
C837 C838 1.258 . S
C837 C840 1.431 . S
C837 C857 1.449 . S
C838 C837 1.258 . S
C838 C839 1.477 . S
C838 H858 0.931 . S
C839 C835 1.460 . S
C839 C838 1.477 . S
C839 H859 0.930 . S
C840 N836 1.362 . S
C840 C837 1.431 . S
C840 C850 1.476 . S
H841 C835 0.929 . S
C842 O833 1.250 . S
C842 O834 1.258 . S
O843 Mn828 2.162 . S
O843 C831 1.281 . S
O844 Mn828 2.297 . S
O844 C831 1.236 . S
N845 Mn829 2.282 . S
N845 C846 1.328 . S
N845 C850 1.318 . S
C846 N845 1.328 . S
C846 C847 1.457 . S
C846 H851 0.929 . S
C847 C846 1.457 . S
C847 C848 1.291 . S
C847 H860 0.931 . S
C848 C847 1.291 . S
C848 C849 1.373 . S
C848 H861 0.929 . S
C849 C848 1.373 . S
C849 C850 1.396 . S
C849 C856 1.403 . S
C850 C840 1.476 . S
C850 N845 1.318 . S
C850 C849 1.396 . S
H851 C846 0.929 . S
O852 Mn828 2.385 . S
O852 C830 1.234 . S
O853 Mn828 2.209 . S
O853 Mn829 2.215 . S
O853 C830 1.283 . S
O854 Mn828 2.094 . S
O854 C832 1.240 . S
O855 Mn829 2.117 . S
O855 C832 1.264 . S
C856 C849 1.403 . S
C856 C857 1.399 . S
C856 H862 0.929 . S
C857 C837 1.449 . S
C857 C856 1.399 . S
C857 H863 0.930 . S
H858 C838 0.931 . S
H859 C839 0.930 . S
H860 C847 0.931 . S
H861 C848 0.929 . S
H862 C856 0.929 . S
H863 C857 0.930 . S
Tb864 C866 2.809 . S
Tb864 O884 2.484 . S
Tb864 O885 2.440 . S
Tb864 O886 2.658 1_655 S
Tb864 O887 2.409 1_654 S
Tb864 O888 2.378 1_655 S
Tb864 O892 2.325 1_655 S
Tb864 O895 2.341 1_645 S
Tb865 C875 2.812 1_545 S
Tb865 O886 2.325 . S
Tb865 O889 2.341 . S
Tb865 O890 2.465 1_545 S
Tb865 O891 2.440 . S
Tb865 O892 2.658 . S
Tb865 O893 2.409 . S
Tb865 O894 2.378 1_545 S
C866 Tb864 2.809 . S
C866 C867 1.514 . S
C866 O884 1.248 . S
C866 O885 1.266 . S
C867 C866 1.514 . S
C867 C868 1.359 . S
C867 C872 1.348 . S
C868 C867 1.359 . S
C868 C869 1.380 . S
C868 H896 0.929 . S
C869 C868 1.380 . S
C869 C870 1.347 . S
C869 H897 0.931 . S
C870 C869 1.347 . S
C870 C871 1.369 1_554 S
C871 C870 1.369 1_556 S
C871 C872 1.408 1_556 S
C871 H898 0.930 . S
C872 C867 1.348 . S
C872 C871 1.408 1_554 S
C872 H899 0.930 1_554 S
C873 O886 1.299 . S
C873 O887 1.251 1_554 S
C874 O888 1.236 . S
C874 O889 1.266 . S
C875 Tb865 2.812 1_565 S
C875 C876 1.510 . S
C875 O890 1.256 . S
C875 O891 1.268 1_565 S
C876 C875 1.510 . S
C876 C877 1.359 . S
C876 C881 1.348 . S
C877 C876 1.359 . S
C877 C878 1.380 . S
C877 H900 0.929 . S
C878 C877 1.380 . S
C878 C879 1.347 . S
C878 H901 0.931 . S
C879 C878 1.347 . S
C879 C880 1.369 . S
C880 C879 1.369 . S
C880 C881 1.408 . S
C880 H902 0.930 . S
C881 C876 1.348 . S
C881 C880 1.408 . S
C881 H903 0.930 . S
C882 O892 1.281 . S
C882 O893 1.254 . S
C883 O894 1.236 . S
C883 O895 1.266 . S
O884 Tb864 2.484 . S
O884 C866 1.248 . S
O885 Tb864 2.440 . S
O885 C866 1.266 . S
O886 Tb864 2.658 1_455 S
O886 Tb865 2.325 . S
O886 C873 1.299 . S
O887 Tb864 2.409 1_456 S
O887 C873 1.251 1_556 S
O888 Tb864 2.378 1_455 S
O888 C874 1.236 . S
O889 Tb865 2.341 . S
O889 C874 1.266 . S
O890 Tb865 2.465 1_565 S
O890 C875 1.256 . S
O891 Tb865 2.440 . S
O891 C875 1.268 1_545 S
O892 Tb864 2.325 1_455 S
O892 Tb865 2.658 . S
O892 C882 1.281 . S
O893 Tb865 2.409 . S
O893 C882 1.254 . S
O894 Tb865 2.378 1_565 S
O894 C883 1.236 . S
O895 Tb864 2.341 1_465 S
O895 C883 1.266 . S
H896 C868 0.929 . S
H897 C869 0.931 . S
H898 C871 0.930 . S
H899 C872 0.930 1_556 S
H900 C877 0.929 . S
H901 C878 0.931 . S
H902 C880 0.930 . S
H903 C881 0.930 . S
Tb904 C906 2.809 . S
Tb904 O924 2.484 . S
Tb904 O925 2.440 . S
Tb904 O926 2.658 . S
Tb904 O927 2.409 . S
Tb904 O928 2.378 . S
Tb904 O932 2.325 . S
Tb904 O935 2.341 . S
Tb905 C915 2.809 . S
Tb905 O926 2.325 . S
Tb905 O929 2.341 . S
Tb905 O930 2.484 . S
Tb905 O931 2.440 . S
Tb905 O932 2.658 . S
Tb905 O933 2.409 . S
Tb905 O934 2.378 . S
C906 Tb904 2.809 . S
C906 C907 1.514 . S
C906 O924 1.248 . S
C906 O925 1.266 . S
C907 C906 1.514 . S
C907 C908 1.359 . S
C907 C912 1.348 . S
C908 C907 1.359 . S
C908 C909 1.380 . S
C908 H936 0.929 . S
C909 C908 1.380 . S
C909 C910 1.347 . S
C909 H937 0.931 . S
C910 C909 1.347 . S
C910 C911 1.369 . S
C911 C910 1.369 . S
C911 C912 1.408 . S
C911 H938 0.930 . S
C912 C907 1.348 . S
C912 C911 1.408 . S
C912 H939 0.930 . S
C913 O926 1.281 . S
C913 O927 1.254 . S
C914 O928 1.236 . S
C914 O929 1.266 . S
C915 Tb905 2.809 . S
C915 C916 1.514 . S
C915 O930 1.248 . S
C915 O931 1.266 . S
C916 C915 1.514 . S
C916 C917 1.359 . S
C916 C921 1.348 . S
C917 C916 1.359 . S
C917 C918 1.380 . S
C917 H940 0.929 . S
C918 C917 1.380 . S
C918 C919 1.347 . S
C918 H941 0.931 . S
C919 C918 1.347 . S
C919 C920 1.369 . S
C920 C919 1.369 . S
C920 C921 1.408 . S
C920 H942 0.930 . S
C921 C916 1.348 . S
C921 C920 1.408 . S
C921 H943 0.930 . S
C922 O932 1.281 . S
C922 O933 1.254 . S
C923 O934 1.236 . S
C923 O935 1.266 . S
O924 Tb904 2.484 . S
O924 C906 1.248 . S
O925 Tb904 2.440 . S
O925 C906 1.266 . S
O926 Tb904 2.658 . S
O926 Tb905 2.325 . S
O926 C913 1.281 . S
O927 Tb904 2.409 . S
O927 C913 1.254 . S
O928 Tb904 2.378 . S
O928 C914 1.236 . S
O929 Tb905 2.341 . S
O929 C914 1.266 . S
O930 Tb905 2.484 . S
O930 C915 1.248 . S
O931 Tb905 2.440 . S
O931 C915 1.266 . S
O932 Tb904 2.325 . S
O932 Tb905 2.658 . S
O932 C922 1.281 . S
O933 Tb905 2.409 . S
O933 C922 1.254 . S
O934 Tb905 2.378 . S
O934 C923 1.236 . S
O935 Tb904 2.341 . S
O935 C923 1.266 . S
H936 C908 0.929 . S
H937 C909 0.931 . S
H938 C911 0.930 . S
H939 C912 0.930 . S
H940 C917 0.929 . S
H941 C918 0.931 . S
H942 C920 0.930 . S
H943 C921 0.930 . S
Tb944 C946 2.809 . S
Tb944 O964 2.484 . S
Tb944 O965 2.440 . S
Tb944 O966 2.658 . S
Tb944 O967 2.409 . S
Tb944 O968 2.378 1_545 S
Tb944 O972 2.325 . S
Tb944 O975 2.341 . S
Tb945 C955 2.809 . S
Tb945 O966 2.325 . S
Tb945 O969 2.341 1_545 S
Tb945 O970 2.484 . S
Tb945 O971 2.440 . S
Tb945 O972 2.658 . S
Tb945 O973 2.409 . S
Tb945 O974 2.378 . S
C946 Tb944 2.809 . S
C946 C947 1.514 1_545 S
C946 O964 1.248 . S
C946 O965 1.266 . S
C947 C946 1.514 1_565 S
C947 C948 1.359 . S
C947 C952 1.348 . S
C948 C947 1.359 . S
C948 C949 1.380 . S
C948 H976 0.929 . S
C949 C948 1.380 . S
C949 C950 1.347 . S
C949 H977 0.931 . S
C950 C949 1.347 . S
C950 C951 1.369 . S
C951 C950 1.369 . S
C951 C952 1.408 . S
C951 H978 0.930 . S
C952 C947 1.348 . S
C952 C951 1.408 . S
C952 H979 0.930 . S
C953 O966 1.281 . S
C953 O967 1.254 . S
C954 O968 1.236 . S
C954 O969 1.266 . S
C955 Tb945 2.809 . S
C955 C956 1.514 . S
C955 O970 1.248 . S
C955 O971 1.266 . S
C956 C955 1.514 . S
C956 C957 1.359 . S
C956 C961 1.348 . S
C957 C956 1.359 . S
C957 C958 1.380 . S
C957 H980 0.929 . S
C958 C957 1.380 . S
C958 C959 1.347 . S
C958 H981 0.931 . S
C959 C958 1.347 . S
C959 C960 1.369 . S
C960 C959 1.369 . S
C960 C961 1.408 . S
C960 H982 0.930 . S
C961 C956 1.348 . S
C961 C960 1.408 . S
C961 H983 0.930 . S
C962 O972 1.281 . S
C962 O973 1.254 . S
C963 O974 1.236 . S
C963 O975 1.266 . S
O964 Tb944 2.484 . S
O964 C946 1.248 . S
O965 Tb944 2.440 . S
O965 C946 1.266 . S
O966 Tb944 2.658 . S
O966 Tb945 2.325 . S
O966 C953 1.281 . S
O967 Tb944 2.409 . S
O967 C953 1.254 . S
O968 Tb944 2.378 1_565 S
O968 C954 1.236 . S
O969 Tb945 2.341 1_565 S
O969 C954 1.266 . S
O970 Tb945 2.484 . S
O970 C955 1.248 . S
O971 Tb945 2.440 . S
O971 C955 1.266 . S
O972 Tb944 2.325 . S
O972 Tb945 2.658 . S
O972 C962 1.281 . S
O973 Tb945 2.409 . S
O973 C962 1.254 . S
O974 Tb945 2.378 . S
O974 C963 1.236 . S
O975 Tb944 2.341 . S
O975 C963 1.266 . S
H976 C948 0.929 . S
H977 C949 0.931 . S
H978 C951 0.930 . S
H979 C952 0.930 . S
H980 C957 0.929 . S
H981 C958 0.931 . S
H982 C960 0.930 . S
H983 C961 0.930 . S
Tb984 C986 2.809 . S
Tb984 O1004 2.484 . S
Tb984 O1005 2.440 . S
Tb984 O1006 2.658 . S
Tb984 O1007 2.409 . S
Tb984 O1008 2.378 . S
Tb984 O1012 2.325 . S
Tb984 O1015 2.341 . S
Tb985 C995 2.809 . S
Tb985 O1006 2.325 . S
Tb985 O1009 2.341 . S
Tb985 O1010 2.484 . S
Tb985 O1011 2.440 . S
Tb985 O1012 2.658 . S
Tb985 O1013 2.409 . S
Tb985 O1014 2.378 . S
C986 Tb984 2.809 . S
C986 C987 1.514 . S
C986 O1004 1.248 . S
C986 O1005 1.266 . S
C987 C986 1.514 . S
C987 C988 1.359 . S
C987 C992 1.348 . S
C988 C987 1.359 . S
C988 C989 1.380 . S
C988 H1016 0.929 . S
C989 C988 1.380 . S
C989 C990 1.347 . S
C989 H1017 0.931 . S
C990 C989 1.347 . S
C990 C991 1.369 . S
C991 C990 1.369 . S
C991 C992 1.408 . S
C991 H1018 0.930 . S
C992 C987 1.348 . S
C992 C991 1.408 . S
C992 H1019 0.930 . S
C993 O1006 1.281 . S
C993 O1007 1.254 . S
C994 O1008 1.236 . S
C994 O1009 1.266 . S
C995 Tb985 2.809 . S
C995 C996 1.514 . S
C995 O1010 1.248 . S
C995 O1011 1.266 . S
C996 C995 1.514 . S
C996 C997 1.359 . S
C996 C1001 1.348 . S
C997 C996 1.359 . S
C997 C998 1.380 . S
C997 H1020 0.929 . S
C998 C997 1.380 . S
C998 C999 1.347 . S
C998 H1021 0.931 . S
C999 C998 1.347 . S
C999 C1000 1.369 . S
C1000 C999 1.369 . S
C1000 C1001 1.408 . S
C1000 H1022 0.930 . S
C1001 C996 1.348 . S
C1001 C1000 1.408 . S
C1001 H1023 0.930 . S
C1002 O1012 1.281 . S
C1002 O1013 1.254 . S
C1003 O1014 1.236 . S
C1003 O1015 1.266 . S
O1004 Tb984 2.484 . S
O1004 C986 1.248 . S
O1005 Tb984 2.440 . S
O1005 C986 1.266 . S
O1006 Tb984 2.658 . S
O1006 Tb985 2.325 . S
O1006 C993 1.281 . S
O1007 Tb984 2.409 . S
O1007 C993 1.254 . S
O1008 Tb984 2.378 . S
O1008 C994 1.236 . S
O1009 Tb985 2.341 . S
O1009 C994 1.266 . S
O1010 Tb985 2.484 . S
O1010 C995 1.248 . S
O1011 Tb985 2.440 . S
O1011 C995 1.266 . S
O1012 Tb984 2.325 . S
O1012 Tb985 2.658 . S
O1012 C1002 1.281 . S
O1013 Tb985 2.409 . S
O1013 C1002 1.254 . S
O1014 Tb985 2.378 . S
O1014 C1003 1.236 . S
O1015 Tb984 2.341 . S
O1015 C1003 1.266 . S
H1016 C988 0.929 . S
H1017 C989 0.931 . S
H1018 C991 0.930 . S
H1019 C992 0.930 . S
H1020 C997 0.929 . S
H1021 C998 0.931 . S
H1022 C1000 0.930 . S
H1023 C1001 0.930 . S
Tb1024 C1026 2.809 . S
Tb1024 O1044 2.484 . S
Tb1024 O1045 2.455 . S
Tb1024 O1046 2.658 . S
Tb1024 O1047 2.409 1_455 S
Tb1024 O1048 2.378 . S
Tb1024 O1052 2.325 . S
Tb1024 O1055 2.341 . S
Tb1025 C1035 2.809 . S
Tb1025 O1046 2.325 1_565 S
Tb1025 O1049 2.341 1_565 S
Tb1025 O1050 2.484 . S
Tb1025 O1051 2.440 . S
Tb1025 O1052 2.658 1_565 S
Tb1025 O1053 2.409 1_565 S
Tb1025 O1054 2.378 1_565 S
C1026 Tb1024 2.809 . S
C1026 C1027 1.514 . S
C1026 O1044 1.248 . S
C1026 O1045 1.281 . S
C1027 C1026 1.514 . S
C1027 C1028 1.359 . S
C1027 C1032 1.348 1_455 S
C1028 C1027 1.359 . S
C1028 C1029 1.380 . S
C1028 H1056 0.929 . S
C1029 C1028 1.380 . S
C1029 C1030 1.347 1_455 S
C1029 H1057 0.931 . S
C1030 C1029 1.347 1_655 S
C1030 C1031 1.369 . S
C1031 C1030 1.369 . S
C1031 C1032 1.408 . S
C1031 H1058 0.930 . S
C1032 C1027 1.348 1_655 S
C1032 C1031 1.408 . S
C1032 H1059 0.930 . S
C1033 O1046 1.281 1_655 S
C1033 O1047 1.254 . S
C1034 O1048 1.236 . S
C1034 O1049 1.266 . S
C1035 Tb1025 2.809 . S
C1035 C1036 1.514 . S
C1035 O1050 1.248 . S
C1035 O1051 1.266 . S
C1036 C1035 1.514 . S
C1036 C1037 1.359 . S
C1036 C1041 1.348 . S
C1037 C1036 1.359 . S
C1037 C1038 1.380 . S
C1037 H1060 0.929 . S
C1038 C1037 1.380 . S
C1038 C1039 1.347 . S
C1038 H1061 0.931 . S
C1039 C1038 1.347 . S
C1039 C1040 1.369 . S
C1040 C1039 1.369 . S
C1040 C1041 1.408 . S
C1040 H1062 0.930 . S
C1041 C1036 1.348 . S
C1041 C1040 1.408 . S
C1041 H1063 0.930 . S
C1042 O1052 1.281 . S
C1042 O1053 1.254 . S
C1043 O1054 1.236 . S
C1043 O1055 1.266 . S
O1044 Tb1024 2.484 . S
O1044 C1026 1.248 . S
O1045 Tb1024 2.455 . S
O1045 C1026 1.281 . S
O1046 Tb1024 2.658 . S
O1046 Tb1025 2.325 1_545 S
O1046 C1033 1.281 1_455 S
O1047 Tb1024 2.409 1_655 S
O1047 C1033 1.254 . S
O1048 Tb1024 2.378 . S
O1048 C1034 1.236 . S
O1049 Tb1025 2.341 1_545 S
O1049 C1034 1.266 . S
O1050 Tb1025 2.484 . S
O1050 C1035 1.248 . S
O1051 Tb1025 2.440 . S
O1051 C1035 1.266 . S
O1052 Tb1024 2.325 . S
O1052 Tb1025 2.658 1_545 S
O1052 C1042 1.281 . S
O1053 Tb1025 2.409 1_545 S
O1053 C1042 1.254 . S
O1054 Tb1025 2.378 1_545 S
O1054 C1043 1.236 . S
O1055 Tb1024 2.341 . S
O1055 C1043 1.266 . S
H1056 C1028 0.929 . S
H1057 C1029 0.931 . S
H1058 C1031 0.930 . S
H1059 C1032 0.930 . S
H1060 C1037 0.929 . S
H1061 C1038 0.931 . S
H1062 C1040 0.930 . S
H1063 C1041 0.930 . S
Tb1064 C1066 2.809 . S
Tb1064 O1084 2.484 . S
Tb1064 O1085 2.440 . S
Tb1064 O1086 2.658 . S
Tb1064 O1087 2.409 . S
Tb1064 O1088 2.378 . S
Tb1064 O1092 2.325 . S
Tb1064 O1095 2.341 . S
Tb1065 C1075 2.809 . S
Tb1065 O1086 2.325 . S
Tb1065 O1089 2.341 . S
Tb1065 O1090 2.484 . S
Tb1065 O1091 2.440 . S
Tb1065 O1092 2.658 . S
Tb1065 O1093 2.409 . S
Tb1065 O1094 2.378 . S
C1066 Tb1064 2.809 . S
C1066 C1067 1.514 . S
C1066 O1084 1.248 . S
C1066 O1085 1.266 . S
C1067 C1066 1.514 . S
C1067 C1068 1.359 . S
C1067 C1072 1.348 . S
C1068 C1067 1.359 . S
C1068 C1069 1.380 . S
C1068 H1096 0.929 . S
C1069 C1068 1.380 . S
C1069 C1070 1.347 . S
C1069 H1097 0.931 . S
C1070 C1069 1.347 . S
C1070 C1071 1.369 . S
C1071 C1070 1.369 . S
C1071 C1072 1.408 . S
C1071 H1098 0.930 . S
C1072 C1067 1.348 . S
C1072 C1071 1.408 . S
C1072 H1099 0.930 . S
C1073 O1086 1.281 . S
C1073 O1087 1.254 . S
C1074 O1088 1.236 . S
C1074 O1089 1.266 . S
C1075 Tb1065 2.809 . S
C1075 C1076 1.514 . S
C1075 O1090 1.248 . S
C1075 O1091 1.266 . S
C1076 C1075 1.514 . S
C1076 C1077 1.359 . S
C1076 C1081 1.348 . S
C1077 C1076 1.359 . S
C1077 C1078 1.380 . S
C1077 H1100 0.929 . S
C1078 C1077 1.380 . S
C1078 C1079 1.347 . S
C1078 H1101 0.931 . S
C1079 C1078 1.347 . S
C1079 C1080 1.369 . S
C1080 C1079 1.369 . S
C1080 C1081 1.408 . S
C1080 H1102 0.930 . S
C1081 C1076 1.348 . S
C1081 C1080 1.408 . S
C1081 H1103 0.930 . S
C1082 O1092 1.281 . S
C1082 O1093 1.254 . S
C1083 O1094 1.236 . S
C1083 O1095 1.266 . S
O1084 Tb1064 2.484 . S
O1084 C1066 1.248 . S
O1085 Tb1064 2.440 . S
O1085 C1066 1.266 . S
O1086 Tb1064 2.658 . S
O1086 Tb1065 2.325 . S
O1086 C1073 1.281 . S
O1087 Tb1064 2.409 . S
O1087 C1073 1.254 . S
O1088 Tb1064 2.378 . S
O1088 C1074 1.236 . S
O1089 Tb1065 2.341 . S
O1089 C1074 1.266 . S
O1090 Tb1065 2.484 . S
O1090 C1075 1.248 . S
O1091 Tb1065 2.440 . S
O1091 C1075 1.266 . S
O1092 Tb1064 2.325 . S
O1092 Tb1065 2.658 . S
O1092 C1082 1.281 . S
O1093 Tb1065 2.409 . S
O1093 C1082 1.254 . S
O1094 Tb1065 2.378 . S
O1094 C1083 1.236 . S
O1095 Tb1064 2.341 . S
O1095 C1083 1.266 . S
H1096 C1068 0.929 . S
H1097 C1069 0.931 . S
H1098 C1071 0.930 . S
H1099 C1072 0.930 . S
H1100 C1077 0.929 . S
H1101 C1078 0.931 . S
H1102 C1080 0.930 . S
H1103 C1081 0.930 . S
Tb1104 C1106 2.809 . S
Tb1104 O1124 2.484 1_545 S
Tb1104 O1125 2.440 . S
Tb1104 O1126 2.658 . S
Tb1104 O1127 2.409 . S
Tb1104 O1128 2.378 . S
Tb1104 O1132 2.325 . S
Tb1104 O1135 2.341 . S
Tb1105 C1115 2.809 . S
Tb1105 O1126 2.325 . S
Tb1105 O1129 2.341 . S
Tb1105 O1130 2.484 . S
Tb1105 O1131 2.440 . S
Tb1105 O1132 2.658 . S
Tb1105 O1133 2.409 1_545 S
Tb1105 O1134 2.378 . S
C1106 Tb1104 2.809 . S
C1106 C1107 1.514 . S
C1106 O1124 1.248 1_545 S
C1106 O1125 1.266 . S
C1107 C1106 1.514 . S
C1107 C1108 1.359 1_545 S
C1107 C1112 1.348 . S
C1108 C1107 1.359 1_565 S
C1108 C1109 1.380 . S
C1108 H1136 0.929 . S
C1109 C1108 1.380 . S
C1109 C1110 1.347 . S
C1109 H1137 0.931 . S
C1110 C1109 1.347 . S
C1110 C1111 1.369 1_565 S
C1111 C1110 1.369 1_545 S
C1111 C1112 1.408 . S
C1111 H1138 0.930 . S
C1112 C1107 1.348 . S
C1112 C1111 1.408 . S
C1112 H1139 0.930 . S
C1113 O1126 1.281 . S
C1113 O1127 1.254 . S
C1114 O1128 1.236 . S
C1114 O1129 1.266 . S
C1115 Tb1105 2.809 . S
C1115 C1116 1.514 . S
C1115 O1130 1.248 . S
C1115 O1131 1.266 . S
C1116 C1115 1.514 . S
C1116 C1117 1.359 . S
C1116 C1121 1.348 . S
C1117 C1116 1.359 . S
C1117 C1118 1.380 . S
C1117 H1140 0.929 . S
C1118 C1117 1.380 . S
C1118 C1119 1.347 . S
C1118 H1141 0.931 . S
C1119 C1118 1.347 . S
C1119 C1120 1.369 . S
C1120 C1119 1.369 . S
C1120 C1121 1.408 . S
C1120 H1142 0.930 . S
C1121 C1116 1.348 . S
C1121 C1120 1.408 . S
C1121 H1143 0.930 . S
C1122 O1132 1.281 1_565 S
C1122 O1133 1.254 . S
C1123 O1134 1.236 . S
C1123 O1135 1.266 . S
O1124 Tb1104 2.484 1_565 S
O1124 C1106 1.248 1_565 S
O1125 Tb1104 2.440 . S
O1125 C1106 1.266 . S
O1126 Tb1104 2.658 . S
O1126 Tb1105 2.325 . S
O1126 C1113 1.281 . S
O1127 Tb1104 2.409 . S
O1127 C1113 1.254 . S
O1128 Tb1104 2.378 . S
O1128 C1114 1.236 . S
O1129 Tb1105 2.341 . S
O1129 C1114 1.266 . S
O1130 Tb1105 2.484 . S
O1130 C1115 1.248 . S
O1131 Tb1105 2.440 . S
O1131 C1115 1.266 . S
O1132 Tb1104 2.325 . S
O1132 Tb1105 2.658 . S
O1132 C1122 1.281 1_545 S
O1133 Tb1105 2.409 1_565 S
O1133 C1122 1.254 . S
O1134 Tb1105 2.378 . S
O1134 C1123 1.236 . S
O1135 Tb1104 2.341 . S
O1135 C1123 1.266 . S
H1136 C1108 0.929 . S
H1137 C1109 0.931 . S
H1138 C1111 0.930 . S
H1139 C1112 0.930 . S
H1140 C1117 0.929 . S
H1141 C1118 0.931 . S
H1142 C1120 0.930 . S
H1143 C1121 0.930 . S
Tb1144 C1146 2.809 . S
Tb1144 O1164 2.484 . S
Tb1144 O1165 2.440 . S
Tb1144 O1166 2.658 . S
Tb1144 O1167 2.409 . S
Tb1144 O1168 2.378 . S
Tb1144 O1172 2.325 . S
Tb1144 O1175 2.341 . S
Tb1145 C1155 2.809 . S
Tb1145 O1166 2.325 . S
Tb1145 O1169 2.341 . S
Tb1145 O1170 2.484 . S
Tb1145 O1171 2.440 . S
Tb1145 O1172 2.658 . S
Tb1145 O1173 2.409 . S
Tb1145 O1174 2.378 . S
C1146 Tb1144 2.809 . S
C1146 C1147 1.514 . S
C1146 O1164 1.248 . S
C1146 O1165 1.266 . S
C1147 C1146 1.514 . S
C1147 C1148 1.359 . S
C1147 C1152 1.348 . S
C1148 C1147 1.359 . S
C1148 C1149 1.380 . S
C1148 H1176 0.929 . S
C1149 C1148 1.380 . S
C1149 C1150 1.347 . S
C1149 H1177 0.931 . S
C1150 C1149 1.347 . S
C1150 C1151 1.369 . S
C1151 C1150 1.369 . S
C1151 C1152 1.408 . S
C1151 H1178 0.930 . S
C1152 C1147 1.348 . S
C1152 C1151 1.408 . S
C1152 H1179 0.930 . S
C1153 O1166 1.281 . S
C1153 O1167 1.254 . S
C1154 O1168 1.236 . S
C1154 O1169 1.266 . S
C1155 Tb1145 2.809 . S
C1155 C1156 1.514 . S
C1155 O1170 1.248 . S
C1155 O1171 1.266 . S
C1156 C1155 1.514 . S
C1156 C1157 1.359 . S
C1156 C1161 1.348 . S
C1157 C1156 1.359 . S
C1157 C1158 1.380 . S
C1157 H1180 0.929 . S
C1158 C1157 1.380 . S
C1158 C1159 1.347 . S
C1158 H1181 0.931 . S
C1159 C1158 1.347 . S
C1159 C1160 1.369 . S
C1160 C1159 1.369 . S
C1160 C1161 1.408 . S
C1160 H1182 0.930 . S
C1161 C1156 1.348 . S
C1161 C1160 1.408 . S
C1161 H1183 0.930 . S
C1162 O1172 1.281 . S
C1162 O1173 1.254 . S
C1163 O1174 1.236 . S
C1163 O1175 1.266 . S
O1164 Tb1144 2.484 . S
O1164 C1146 1.248 . S
O1165 Tb1144 2.440 . S
O1165 C1146 1.266 . S
O1166 Tb1144 2.658 . S
O1166 Tb1145 2.325 . S
O1166 C1153 1.281 . S
O1167 Tb1144 2.409 . S
O1167 C1153 1.254 . S
O1168 Tb1144 2.378 . S
O1168 C1154 1.236 . S
O1169 Tb1145 2.341 . S
O1169 C1154 1.266 . S
O1170 Tb1145 2.484 . S
O1170 C1155 1.248 . S
O1171 Tb1145 2.440 . S
O1171 C1155 1.266 . S
O1172 Tb1144 2.325 . S
O1172 Tb1145 2.658 . S
O1172 C1162 1.281 . S
O1173 Tb1145 2.409 . S
O1173 C1162 1.254 . S
O1174 Tb1145 2.378 . S
O1174 C1163 1.236 . S
O1175 Tb1144 2.341 . S
O1175 C1163 1.266 . S
H1176 C1148 0.929 . S
H1177 C1149 0.931 . S
H1178 C1151 0.930 . S
H1179 C1152 0.930 . S
H1180 C1157 0.929 . S
H1181 C1158 0.931 . S
H1182 C1160 0.930 . S
H1183 C1161 0.930 . S
Tb1184 C1186 2.809 . S
Tb1184 O1204 2.484 . S
Tb1184 O1205 2.440 . S
Tb1184 O1206 2.658 . S
Tb1184 O1207 2.409 . S
Tb1184 O1208 2.378 . S
Tb1184 O1212 2.325 . S
Tb1184 O1215 2.341 . S
Tb1185 C1195 2.809 . S
Tb1185 O1206 2.325 . S
Tb1185 O1209 2.341 . S
Tb1185 O1210 2.484 . S
Tb1185 O1211 2.440 . S
Tb1185 O1212 2.658 . S
Tb1185 O1213 2.409 . S
Tb1185 O1214 2.378 . S
C1186 Tb1184 2.809 . S
C1186 C1187 1.514 . S
C1186 O1204 1.248 . S
C1186 O1205 1.266 . S
C1187 C1186 1.514 . S
C1187 C1188 1.359 1_554 S
C1187 C1192 1.348 . S
C1188 C1187 1.359 1_556 S
C1188 C1189 1.380 . S
C1188 H1216 0.929 1_556 S
C1189 C1188 1.380 . S
C1189 C1190 1.347 . S
C1189 H1217 0.931 . S
C1190 C1189 1.347 . S
C1190 C1191 1.369 . S
C1191 C1190 1.369 . S
C1191 C1192 1.408 1_556 S
C1191 H1218 0.930 . S
C1192 C1187 1.348 . S
C1192 C1191 1.408 1_554 S
C1192 H1219 0.930 . S
C1193 O1206 1.281 . S
C1193 O1207 1.254 . S
C1194 O1208 1.236 . S
C1194 O1209 1.266 . S
C1195 Tb1185 2.809 . S
C1195 C1196 1.514 . S
C1195 O1210 1.248 . S
C1195 O1211 1.266 . S
C1196 C1195 1.514 . S
C1196 C1197 1.359 . S
C1196 C1201 1.348 . S
C1197 C1196 1.359 . S
C1197 C1198 1.380 . S
C1197 H1220 0.929 . S
C1198 C1197 1.380 . S
C1198 C1199 1.347 . S
C1198 H1221 0.931 . S
C1199 C1198 1.347 . S
C1199 C1200 1.369 . S
C1200 C1199 1.369 . S
C1200 C1201 1.408 . S
C1200 H1222 0.930 . S
C1201 C1196 1.348 . S
C1201 C1200 1.408 . S
C1201 H1223 0.930 . S
C1202 O1212 1.281 . S
C1202 O1213 1.254 . S
C1203 O1214 1.236 . S
C1203 O1215 1.266 . S
O1204 Tb1184 2.484 . S
O1204 C1186 1.248 . S
O1205 Tb1184 2.440 . S
O1205 C1186 1.266 . S
O1206 Tb1184 2.658 . S
O1206 Tb1185 2.325 . S
O1206 C1193 1.281 . S
O1207 Tb1184 2.409 . S
O1207 C1193 1.254 . S
O1208 Tb1184 2.378 . S
O1208 C1194 1.236 . S
O1209 Tb1185 2.341 . S
O1209 C1194 1.266 . S
O1210 Tb1185 2.484 . S
O1210 C1195 1.248 . S
O1211 Tb1185 2.440 . S
O1211 C1195 1.266 . S
O1212 Tb1184 2.325 . S
O1212 Tb1185 2.658 . S
O1212 C1202 1.281 . S
O1213 Tb1185 2.409 . S
O1213 C1202 1.254 . S
O1214 Tb1185 2.378 . S
O1214 C1203 1.236 . S
O1215 Tb1184 2.341 . S
O1215 C1203 1.266 . S
H1216 C1188 0.929 1_554 S
H1217 C1189 0.931 . S
H1218 C1191 0.930 . S
H1219 C1192 0.930 . S
H1220 C1197 0.929 . S
H1221 C1198 0.931 . S
H1222 C1200 0.930 . S
H1223 C1201 0.930 . S
Tb1224 C1226 2.809 . S
Tb1224 O1244 2.484 . S
Tb1224 O1245 2.440 . S
Tb1224 O1246 2.658 . S
Tb1224 O1247 2.409 . S
Tb1224 O1248 2.378 . S
Tb1224 O1252 2.325 . S
Tb1224 O1255 2.341 . S
Tb1225 C1235 2.809 . S
Tb1225 O1246 2.325 . S
Tb1225 O1249 2.341 . S
Tb1225 O1250 2.484 . S
Tb1225 O1251 2.440 . S
Tb1225 O1252 2.658 . S
Tb1225 O1253 2.409 . S
Tb1225 O1254 2.378 . S
C1226 Tb1224 2.809 . S
C1226 C1227 1.514 . S
C1226 O1244 1.248 . S
C1226 O1245 1.266 . S
C1227 C1226 1.514 . S
C1227 C1228 1.359 . S
C1227 C1232 1.348 . S
C1228 C1227 1.359 . S
C1228 C1229 1.380 . S
C1228 H1256 0.929 . S
C1229 C1228 1.380 . S
C1229 C1230 1.347 . S
C1229 H1257 0.931 . S
C1230 C1229 1.347 . S
C1230 C1231 1.369 . S
C1231 C1230 1.369 . S
C1231 C1232 1.408 . S
C1231 H1258 0.930 . S
C1232 C1227 1.348 . S
C1232 C1231 1.408 . S
C1232 H1259 0.930 . S
C1233 O1246 1.281 . S
C1233 O1247 1.254 . S
C1234 O1248 1.236 . S
C1234 O1249 1.266 . S
C1235 Tb1225 2.809 . S
C1235 C1236 1.514 . S
C1235 O1250 1.248 . S
C1235 O1251 1.266 . S
C1236 C1235 1.514 . S
C1236 C1237 1.359 . S
C1236 C1241 1.348 . S
C1237 C1236 1.359 . S
C1237 C1238 1.380 . S
C1237 H1260 0.929 . S
C1238 C1237 1.380 . S
C1238 C1239 1.347 . S
C1238 H1261 0.931 . S
C1239 C1238 1.347 . S
C1239 C1240 1.369 . S
C1240 C1239 1.369 . S
C1240 C1241 1.408 . S
C1240 H1262 0.930 . S
C1241 C1236 1.348 . S
C1241 C1240 1.408 . S
C1241 H1263 0.930 . S
C1242 O1252 1.281 . S
C1242 O1253 1.254 . S
C1243 O1254 1.236 . S
C1243 O1255 1.266 . S
O1244 Tb1224 2.484 . S
O1244 C1226 1.248 . S
O1245 Tb1224 2.440 . S
O1245 C1226 1.266 . S
O1246 Tb1224 2.658 . S
O1246 Tb1225 2.325 . S
O1246 C1233 1.281 . S
O1247 Tb1224 2.409 . S
O1247 C1233 1.254 . S
O1248 Tb1224 2.378 . S
O1248 C1234 1.236 . S
O1249 Tb1225 2.341 . S
O1249 C1234 1.266 . S
O1250 Tb1225 2.484 . S
O1250 C1235 1.248 . S
O1251 Tb1225 2.440 . S
O1251 C1235 1.266 . S
O1252 Tb1224 2.325 . S
O1252 Tb1225 2.658 . S
O1252 C1242 1.281 . S
O1253 Tb1225 2.409 . S
O1253 C1242 1.254 . S
O1254 Tb1225 2.378 . S
O1254 C1243 1.236 . S
O1255 Tb1224 2.341 . S
O1255 C1243 1.266 . S
H1256 C1228 0.929 . S
H1257 C1229 0.931 . S
H1258 C1231 0.930 . S
H1259 C1232 0.930 . S
H1260 C1237 0.929 . S
H1261 C1238 0.931 . S
H1262 C1240 0.930 . S
H1263 C1241 0.930 . S
Tb1264 C1266 2.809 1_455 S
Tb1264 O1284 2.484 1_455 S
Tb1264 O1285 2.440 1_455 S
Tb1264 O1286 2.658 . S
Tb1264 O1287 2.409 . S
Tb1264 O1288 2.378 . S
Tb1264 O1292 2.325 . S
Tb1264 O1295 2.341 . S
Tb1265 C1275 2.809 . S
Tb1265 O1286 2.325 . S
Tb1265 O1289 2.341 . S
Tb1265 O1290 2.484 . S
Tb1265 O1291 2.440 . S
Tb1265 O1292 2.658 . S
Tb1265 O1293 2.409 . S
Tb1265 O1294 2.378 . S
C1266 Tb1264 2.809 1_655 S
C1266 C1267 1.514 . S
C1266 O1284 1.248 . S
C1266 O1285 1.266 . S
C1267 C1266 1.514 . S
C1267 C1268 1.359 . S
C1267 C1272 1.348 . S
C1268 C1267 1.359 . S
C1268 C1269 1.380 . S
C1268 H1296 0.929 . S
C1269 C1268 1.380 . S
C1269 C1270 1.347 . S
C1269 H1297 0.931 . S
C1270 C1269 1.347 . S
C1270 C1271 1.369 . S
C1271 C1270 1.369 . S
C1271 C1272 1.408 . S
C1271 H1298 0.930 . S
C1272 C1267 1.348 . S
C1272 C1271 1.408 . S
C1272 H1299 0.930 . S
C1273 O1286 1.281 . S
C1273 O1287 1.254 . S
C1274 O1288 1.236 . S
C1274 O1289 1.266 . S
C1275 Tb1265 2.809 . S
C1275 C1276 1.514 . S
C1275 O1290 1.248 . S
C1275 O1291 1.266 . S
C1276 C1275 1.514 . S
C1276 C1277 1.359 . S
C1276 C1281 1.348 . S
C1277 C1276 1.359 . S
C1277 C1278 1.380 . S
C1277 H1300 0.929 . S
C1278 C1277 1.380 . S
C1278 C1279 1.347 . S
C1278 H1301 0.931 . S
C1279 C1278 1.347 . S
C1279 C1280 1.369 . S
C1280 C1279 1.369 . S
C1280 C1281 1.408 . S
C1280 H1302 0.930 . S
C1281 C1276 1.348 . S
C1281 C1280 1.408 . S
C1281 H1303 0.930 . S
C1282 O1292 1.281 . S
C1282 O1293 1.254 . S
C1283 O1294 1.236 . S
C1283 O1295 1.266 . S
O1284 Tb1264 2.484 1_655 S
O1284 C1266 1.248 . S
O1285 Tb1264 2.440 1_655 S
O1285 C1266 1.266 . S
O1286 Tb1264 2.658 . S
O1286 Tb1265 2.325 . S
O1286 C1273 1.281 . S
O1287 Tb1264 2.409 . S
O1287 C1273 1.254 . S
O1288 Tb1264 2.378 . S
O1288 C1274 1.236 . S
O1289 Tb1265 2.341 . S
O1289 C1274 1.266 . S
O1290 Tb1265 2.484 . S
O1290 C1275 1.248 . S
O1291 Tb1265 2.440 . S
O1291 C1275 1.266 . S
O1292 Tb1264 2.325 . S
O1292 Tb1265 2.658 . S
O1292 C1282 1.281 . S
O1293 Tb1265 2.409 . S
O1293 C1282 1.254 . S
O1294 Tb1265 2.378 . S
O1294 C1283 1.236 . S
O1295 Tb1264 2.341 . S
O1295 C1283 1.266 . S
H1296 C1268 0.929 . S
H1297 C1269 0.931 . S
H1298 C1271 0.930 . S
H1299 C1272 0.930 . S
H1300 C1277 0.929 . S
H1301 C1278 0.931 . S
H1302 C1280 0.930 . S
H1303 C1281 0.930 . S
Tb1304 C1306 2.809 . S
Tb1304 O1324 2.484 . S
Tb1304 O1325 2.440 . S
Tb1304 O1326 2.658 . S
Tb1304 O1327 2.409 . S
Tb1304 O1328 2.378 . S
Tb1304 O1332 2.325 . S
Tb1304 O1335 2.341 . S
Tb1305 C1315 2.809 . S
Tb1305 O1326 2.325 . S
Tb1305 O1329 2.341 . S
Tb1305 O1330 2.484 . S
Tb1305 O1331 2.440 . S
Tb1305 O1332 2.658 . S
Tb1305 O1333 2.409 . S
Tb1305 O1334 2.378 . S
C1306 Tb1304 2.809 . S
C1306 C1307 1.514 . S
C1306 O1324 1.248 . S
C1306 O1325 1.266 . S
C1307 C1306 1.514 . S
C1307 C1308 1.359 . S
C1307 C1312 1.348 . S
C1308 C1307 1.359 . S
C1308 C1309 1.380 . S
C1308 H1336 0.929 . S
C1309 C1308 1.380 . S
C1309 C1310 1.347 . S
C1309 H1337 0.931 . S
C1310 C1309 1.347 . S
C1310 C1311 1.369 . S
C1311 C1310 1.369 . S
C1311 C1312 1.408 . S
C1311 H1338 0.930 . S
C1312 C1307 1.348 . S
C1312 C1311 1.408 . S
C1312 H1339 0.930 . S
C1313 O1326 1.281 . S
C1313 O1327 1.254 . S
C1314 O1328 1.236 . S
C1314 O1329 1.266 . S
C1315 Tb1305 2.809 . S
C1315 C1316 1.514 . S
C1315 O1330 1.248 . S
C1315 O1331 1.266 . S
C1316 C1315 1.514 . S
C1316 C1317 1.359 . S
C1316 C1321 1.348 . S
C1317 C1316 1.359 . S
C1317 C1318 1.380 . S
C1317 H1340 0.929 . S
C1318 C1317 1.380 . S
C1318 C1319 1.347 . S
C1318 H1341 0.931 . S
C1319 C1318 1.347 . S
C1319 C1320 1.369 . S
C1320 C1319 1.369 . S
C1320 C1321 1.408 . S
C1320 H1342 0.930 . S
C1321 C1316 1.348 . S
C1321 C1320 1.408 . S
C1321 H1343 0.930 . S
C1322 O1332 1.281 . S
C1322 O1333 1.254 . S
C1323 O1334 1.236 . S
C1323 O1335 1.266 . S
O1324 Tb1304 2.484 . S
O1324 C1306 1.248 . S
O1325 Tb1304 2.440 . S
O1325 C1306 1.266 . S
O1326 Tb1304 2.658 . S
O1326 Tb1305 2.325 . S
O1326 C1313 1.281 . S
O1327 Tb1304 2.409 . S
O1327 C1313 1.254 . S
O1328 Tb1304 2.378 . S
O1328 C1314 1.236 . S
O1329 Tb1305 2.341 . S
O1329 C1314 1.266 . S
O1330 Tb1305 2.484 . S
O1330 C1315 1.248 . S
O1331 Tb1305 2.440 . S
O1331 C1315 1.266 . S
O1332 Tb1304 2.325 . S
O1332 Tb1305 2.658 . S
O1332 C1322 1.281 . S
O1333 Tb1305 2.409 . S
O1333 C1322 1.254 . S
O1334 Tb1305 2.378 . S
O1334 C1323 1.236 . S
O1335 Tb1304 2.341 . S
O1335 C1323 1.266 . S
H1336 C1308 0.929 . S
H1337 C1309 0.931 . S
H1338 C1311 0.930 . S
H1339 C1312 0.930 . S
H1340 C1317 0.929 . S
H1341 C1318 0.931 . S
H1342 C1320 0.930 . S
H1343 C1321 0.930 . S
Tb1344 C1346 2.809 . S
Tb1344 O1364 2.484 . S
Tb1344 O1365 2.440 . S
Tb1344 O1366 2.658 . S
Tb1344 O1367 2.409 . S
Tb1344 O1368 2.378 . S
Tb1344 O1372 2.325 . S
Tb1344 O1375 2.341 . S
Tb1345 C1355 2.809 . S
Tb1345 O1366 2.325 . S
Tb1345 O1369 2.341 . S
Tb1345 O1370 2.484 . S
Tb1345 O1371 2.440 . S
Tb1345 O1372 2.658 . S
Tb1345 O1373 2.409 . S
Tb1345 O1374 2.378 . S
C1346 Tb1344 2.809 . S
C1346 C1347 1.514 . S
C1346 O1364 1.248 . S
C1346 O1365 1.266 . S
C1347 C1346 1.514 . S
C1347 C1348 1.359 . S
C1347 C1352 1.348 . S
C1348 C1347 1.359 . S
C1348 C1349 1.380 . S
C1348 H1376 0.929 . S
C1349 C1348 1.380 . S
C1349 C1350 1.347 . S
C1349 H1377 0.931 . S
C1350 C1349 1.347 . S
C1350 C1351 1.369 . S
C1351 C1350 1.369 . S
C1351 C1352 1.408 . S
C1351 H1378 0.930 . S
C1352 C1347 1.348 . S
C1352 C1351 1.408 . S
C1352 H1379 0.930 . S
C1353 O1366 1.281 . S
C1353 O1367 1.254 . S
C1354 O1368 1.236 . S
C1354 O1369 1.266 . S
C1355 Tb1345 2.809 . S
C1355 C1356 1.514 . S
C1355 O1370 1.248 . S
C1355 O1371 1.266 . S
C1356 C1355 1.514 . S
C1356 C1357 1.359 . S
C1356 C1361 1.348 . S
C1357 C1356 1.359 . S
C1357 C1358 1.380 . S
C1357 H1380 0.929 . S
C1358 C1357 1.380 . S
C1358 C1359 1.347 . S
C1358 H1381 0.931 . S
C1359 C1358 1.347 . S
C1359 C1360 1.369 . S
C1360 C1359 1.369 . S
C1360 C1361 1.408 . S
C1360 H1382 0.930 . S
C1361 C1356 1.348 . S
C1361 C1360 1.408 . S
C1361 H1383 0.930 . S
C1362 O1372 1.281 . S
C1362 O1373 1.254 . S
C1363 O1374 1.236 . S
C1363 O1375 1.266 . S
O1364 Tb1344 2.484 . S
O1364 C1346 1.248 . S
O1365 Tb1344 2.440 . S
O1365 C1346 1.266 . S
O1366 Tb1344 2.658 . S
O1366 Tb1345 2.325 . S
O1366 C1353 1.281 . S
O1367 Tb1344 2.409 . S
O1367 C1353 1.254 . S
O1368 Tb1344 2.378 . S
O1368 C1354 1.236 . S
O1369 Tb1345 2.341 . S
O1369 C1354 1.266 . S
O1370 Tb1345 2.484 . S
O1370 C1355 1.248 . S
O1371 Tb1345 2.440 . S
O1371 C1355 1.266 . S
O1372 Tb1344 2.325 . S
O1372 Tb1345 2.658 . S
O1372 C1362 1.281 . S
O1373 Tb1345 2.409 . S
O1373 C1362 1.254 . S
O1374 Tb1345 2.378 . S
O1374 C1363 1.236 . S
O1375 Tb1344 2.341 . S
O1375 C1363 1.266 . S
H1376 C1348 0.929 . S
H1377 C1349 0.931 . S
H1378 C1351 0.930 . S
H1379 C1352 0.930 . S
H1380 C1357 0.929 . S
H1381 C1358 0.931 . S
H1382 C1360 0.930 . S
H1383 C1361 0.930 . S
Tb1384 C1386 2.809 . S
Tb1384 O1404 2.484 . S
Tb1384 O1405 2.440 . S
Tb1384 O1406 2.658 . S
Tb1384 O1407 2.409 . S
Tb1384 O1408 2.378 . S
Tb1384 O1412 2.325 . S
Tb1384 O1415 2.341 . S
Tb1385 C1395 2.809 . S
Tb1385 O1406 2.325 . S
Tb1385 O1409 2.341 . S
Tb1385 O1410 2.484 . S
Tb1385 O1411 2.440 . S
Tb1385 O1412 2.658 . S
Tb1385 O1413 2.409 . S
Tb1385 O1414 2.378 . S
C1386 Tb1384 2.809 . S
C1386 C1387 1.514 . S
C1386 O1404 1.248 . S
C1386 O1405 1.266 . S
C1387 C1386 1.514 . S
C1387 C1388 1.359 . S
C1387 C1392 1.348 . S
C1388 C1387 1.359 . S
C1388 C1389 1.380 . S
C1388 H1416 0.929 . S
C1389 C1388 1.380 . S
C1389 C1390 1.347 . S
C1389 H1417 0.931 . S
C1390 C1389 1.347 . S
C1390 C1391 1.369 . S
C1391 C1390 1.369 . S
C1391 C1392 1.408 . S
C1391 H1418 0.930 . S
C1392 C1387 1.348 . S
C1392 C1391 1.408 . S
C1392 H1419 0.930 . S
C1393 O1406 1.281 . S
C1393 O1407 1.254 . S
C1394 O1408 1.236 . S
C1394 O1409 1.266 . S
C1395 Tb1385 2.809 . S
C1395 C1396 1.514 . S
C1395 O1410 1.248 . S
C1395 O1411 1.266 . S
C1396 C1395 1.514 . S
C1396 C1397 1.359 . S
C1396 C1401 1.348 . S
C1397 C1396 1.359 . S
C1397 C1398 1.380 . S
C1397 H1420 0.929 . S
C1398 C1397 1.380 . S
C1398 C1399 1.347 . S
C1398 H1421 0.931 . S
C1399 C1398 1.347 . S
C1399 C1400 1.369 . S
C1400 C1399 1.369 . S
C1400 C1401 1.408 . S
C1400 H1422 0.930 . S
C1401 C1396 1.348 . S
C1401 C1400 1.408 . S
C1401 H1423 0.930 . S
C1402 O1412 1.281 . S
C1402 O1413 1.254 . S
C1403 O1414 1.236 . S
C1403 O1415 1.266 . S
O1404 Tb1384 2.484 . S
O1404 C1386 1.248 . S
O1405 Tb1384 2.440 . S
O1405 C1386 1.266 . S
O1406 Tb1384 2.658 . S
O1406 Tb1385 2.325 . S
O1406 C1393 1.281 . S
O1407 Tb1384 2.409 . S
O1407 C1393 1.254 . S
O1408 Tb1384 2.378 . S
O1408 C1394 1.236 . S
O1409 Tb1385 2.341 . S
O1409 C1394 1.266 . S
O1410 Tb1385 2.484 . S
O1410 C1395 1.248 . S
O1411 Tb1385 2.440 . S
O1411 C1395 1.266 . S
O1412 Tb1384 2.325 . S
O1412 Tb1385 2.658 . S
O1412 C1402 1.281 . S
O1413 Tb1385 2.409 . S
O1413 C1402 1.254 . S
O1414 Tb1385 2.378 . S
O1414 C1403 1.236 . S
O1415 Tb1384 2.341 . S
O1415 C1403 1.266 . S
H1416 C1388 0.929 . S
H1417 C1389 0.931 . S
H1418 C1391 0.930 . S
H1419 C1392 0.930 . S
H1420 C1397 0.929 . S
H1421 C1398 0.931 . S
H1422 C1400 0.930 . S
H1423 C1401 0.930 . S
Tb1424 C1426 2.809 . S
Tb1424 O1444 2.484 . S
Tb1424 O1445 2.440 . S
Tb1424 O1446 2.658 . S
Tb1424 O1447 2.409 . S
Tb1424 O1448 2.378 . S
Tb1424 O1452 2.325 . S
Tb1424 O1455 2.341 . S
Tb1425 C1435 2.809 . S
Tb1425 O1446 2.325 . S
Tb1425 O1449 2.341 . S
Tb1425 O1450 2.484 . S
Tb1425 O1451 2.440 . S
Tb1425 O1452 2.658 . S
Tb1425 O1453 2.409 . S
Tb1425 O1454 2.378 . S
C1426 Tb1424 2.809 . S
C1426 C1427 1.514 . S
C1426 O1444 1.248 . S
C1426 O1445 1.266 . S
C1427 C1426 1.514 . S
C1427 C1428 1.359 . S
C1427 C1432 1.348 . S
C1428 C1427 1.359 . S
C1428 C1429 1.380 . S
C1428 H1456 0.929 . S
C1429 C1428 1.380 . S
C1429 C1430 1.347 . S
C1429 H1457 0.931 . S
C1430 C1429 1.347 . S
C1430 C1431 1.369 . S
C1431 C1430 1.369 . S
C1431 C1432 1.408 . S
C1431 H1458 0.930 . S
C1432 C1427 1.348 . S
C1432 C1431 1.408 . S
C1432 H1459 0.930 . S
C1433 O1446 1.281 . S
C1433 O1447 1.254 . S
C1434 O1448 1.236 . S
C1434 O1449 1.266 . S
C1435 Tb1425 2.809 . S
C1435 C1436 1.514 . S
C1435 O1450 1.248 . S
C1435 O1451 1.266 . S
C1436 C1435 1.514 . S
C1436 C1437 1.359 . S
C1436 C1441 1.348 . S
C1437 C1436 1.359 . S
C1437 C1438 1.380 . S
C1437 H1460 0.929 . S
C1438 C1437 1.380 . S
C1438 C1439 1.347 . S
C1438 H1461 0.931 . S
C1439 C1438 1.347 . S
C1439 C1440 1.369 . S
C1440 C1439 1.369 . S
C1440 C1441 1.408 . S
C1440 H1462 0.930 . S
C1441 C1436 1.348 . S
C1441 C1440 1.408 . S
C1441 H1463 0.930 . S
C1442 O1452 1.281 . S
C1442 O1453 1.254 . S
C1443 O1454 1.236 . S
C1443 O1455 1.266 . S
O1444 Tb1424 2.484 . S
O1444 C1426 1.248 . S
O1445 Tb1424 2.440 . S
O1445 C1426 1.266 . S
O1446 Tb1424 2.658 . S
O1446 Tb1425 2.325 . S
O1446 C1433 1.281 . S
O1447 Tb1424 2.409 . S
O1447 C1433 1.254 . S
O1448 Tb1424 2.378 . S
O1448 C1434 1.236 . S
O1449 Tb1425 2.341 . S
O1449 C1434 1.266 . S
O1450 Tb1425 2.484 . S
O1450 C1435 1.248 . S
O1451 Tb1425 2.440 . S
O1451 C1435 1.266 . S
O1452 Tb1424 2.325 . S
O1452 Tb1425 2.658 . S
O1452 C1442 1.281 . S
O1453 Tb1425 2.409 . S
O1453 C1442 1.254 . S
O1454 Tb1425 2.378 . S
O1454 C1443 1.236 . S
O1455 Tb1424 2.341 . S
O1455 C1443 1.266 . S
H1456 C1428 0.929 . S
H1457 C1429 0.931 . S
H1458 C1431 0.930 . S
H1459 C1432 0.930 . S
H1460 C1437 0.929 . S
H1461 C1438 0.931 . S
H1462 C1440 0.930 . S
H1463 C1441 0.930 . S
Tb1464 C1466 2.809 . S
Tb1464 O1484 2.484 . S
Tb1464 O1485 2.440 . S
Tb1464 O1486 2.658 . S
Tb1464 O1487 2.409 . S
Tb1464 O1488 2.378 . S
Tb1464 O1492 2.325 . S
Tb1464 O1495 2.341 . S
Tb1465 C1475 2.809 1_455 S
Tb1465 O1486 2.325 . S
Tb1465 O1489 2.341 . S
Tb1465 O1490 2.484 1_455 S
Tb1465 O1491 2.440 1_455 S
Tb1465 O1492 2.658 . S
Tb1465 O1493 2.409 . S
Tb1465 O1494 2.378 . S
C1466 Tb1464 2.809 . S
C1466 C1467 1.514 . S
C1466 O1484 1.248 . S
C1466 O1485 1.266 . S
C1467 C1466 1.514 . S
C1467 C1468 1.359 . S
C1467 C1472 1.348 . S
C1468 C1467 1.359 . S
C1468 C1469 1.380 . S
C1468 H1496 0.929 . S
C1469 C1468 1.380 . S
C1469 C1470 1.347 . S
C1469 H1497 0.931 . S
C1470 C1469 1.347 . S
C1470 C1471 1.369 . S
C1471 C1470 1.369 . S
C1471 C1472 1.408 . S
C1471 H1498 0.930 1_554 S
C1472 C1467 1.348 . S
C1472 C1471 1.408 . S
C1472 H1499 0.930 1_554 S
C1473 O1486 1.281 . S
C1473 O1487 1.254 . S
C1474 O1488 1.236 . S
C1474 O1489 1.266 . S
C1475 Tb1465 2.809 1_655 S
C1475 C1476 1.514 . S
C1475 O1490 1.248 . S
C1475 O1491 1.266 . S
C1476 C1475 1.514 . S
C1476 C1477 1.359 . S
C1476 C1481 1.348 . S
C1477 C1476 1.359 . S
C1477 C1478 1.380 . S
C1477 H1500 0.929 . S
C1478 C1477 1.380 . S
C1478 C1479 1.347 . S
C1478 H1501 0.931 . S
C1479 C1478 1.347 . S
C1479 C1480 1.369 . S
C1480 C1479 1.369 . S
C1480 C1481 1.408 . S
C1480 H1502 0.930 . S
C1481 C1476 1.348 . S
C1481 C1480 1.408 . S
C1481 H1503 0.930 . S
C1482 O1492 1.281 . S
C1482 O1493 1.254 . S
C1483 O1494 1.236 . S
C1483 O1495 1.266 . S
O1484 Tb1464 2.484 . S
O1484 C1466 1.248 . S
O1485 Tb1464 2.440 . S
O1485 C1466 1.266 . S
O1486 Tb1464 2.658 . S
O1486 Tb1465 2.325 . S
O1486 C1473 1.281 . S
O1487 Tb1464 2.409 . S
O1487 C1473 1.254 . S
O1488 Tb1464 2.378 . S
O1488 C1474 1.236 . S
O1489 Tb1465 2.341 . S
O1489 C1474 1.266 . S
O1490 Tb1465 2.484 1_655 S
O1490 C1475 1.248 . S
O1491 Tb1465 2.440 1_655 S
O1491 C1475 1.266 . S
O1492 Tb1464 2.325 . S
O1492 Tb1465 2.658 . S
O1492 C1482 1.281 . S
O1493 Tb1465 2.409 . S
O1493 C1482 1.254 . S
O1494 Tb1465 2.378 . S
O1494 C1483 1.236 . S
O1495 Tb1464 2.341 . S
O1495 C1483 1.266 . S
H1496 C1468 0.929 . S
H1497 C1469 0.931 . S
H1498 C1471 0.930 1_556 S
H1499 C1472 0.930 1_556 S
H1500 C1477 0.929 . S
H1501 C1478 0.931 . S
H1502 C1480 0.930 . S
H1503 C1481 0.930 . S
H1504 C1510 0.930 . S
H1505 C1513 0.930 . S
H1506 C1514 0.930 . S
H1507 C1515 0.930 1_655 S
H1508 C1518 0.930 . S
H1509 C1519 0.930 . S
C1510 H1504 0.930 . S
C1510 C1511 1.355 . S
C1510 C1512 1.415 1_556 S
C1511 C1510 1.355 . S
C1511 C1513 1.419 1_456 S
C1512 C1510 1.415 1_554 S
C1512 C1517 1.425 . S
C1512 C1519 1.409 . S
C1513 H1505 0.930 . S
C1513 C1511 1.419 1_654 S
C1513 C1514 1.362 . S
C1514 H1506 0.930 . S
C1514 C1513 1.362 . S
C1514 C1517 1.409 1_655 S
C1515 H1507 0.930 1_455 S
C1515 C1516 1.355 . S
C1515 C1517 1.415 . S
C1516 C1515 1.355 . S
C1516 C1518 1.419 . S
C1517 C1512 1.425 . S
C1517 C1514 1.409 1_455 S
C1517 C1515 1.415 . S
C1518 H1508 0.930 . S
C1518 C1516 1.419 . S
C1518 C1519 1.362 . S
C1519 H1509 0.930 . S
C1519 C1512 1.409 . S
C1519 C1518 1.362 . S
H1520 C1526 0.930 . S
H1521 C1529 0.930 . S
H1522 C1530 0.930 . S
H1523 C1531 0.930 . S
H1524 C1534 0.930 . S
H1525 C1535 0.930 . S
C1526 H1520 0.930 . S
C1526 C1527 1.355 . S
C1526 C1528 1.415 . S
C1527 C1526 1.355 . S
C1527 C1529 1.419 . S
C1528 C1526 1.415 . S
C1528 C1533 1.425 . S
C1528 C1535 1.409 . S
C1529 H1521 0.930 . S
C1529 C1527 1.419 . S
C1529 C1530 1.362 . S
C1530 H1522 0.930 . S
C1530 C1529 1.362 . S
C1530 C1533 1.409 . S
C1531 H1523 0.930 . S
C1531 C1532 1.355 . S
C1531 C1533 1.415 . S
C1532 C1531 1.355 . S
C1532 C1534 1.419 . S
C1533 C1528 1.425 . S
C1533 C1530 1.409 . S
C1533 C1531 1.415 . S
C1534 H1524 0.930 . S
C1534 C1532 1.419 . S
C1534 C1535 1.362 . S
C1535 H1525 0.930 . S
C1535 C1528 1.409 . S
C1535 C1534 1.362 . S
H1536 C1542 0.930 . S
H1537 C1545 0.930 . S
H1538 C1546 0.930 . S
H1539 C1547 0.930 . S
H1540 C1550 0.930 . S
H1541 C1551 0.930 . S
C1542 H1536 0.930 . S
C1542 C1543 1.355 . S
C1542 C1544 1.415 . S
C1543 C1542 1.355 . S
C1543 C1545 1.419 . S
C1544 C1542 1.415 . S
C1544 C1549 1.425 . S
C1544 C1551 1.409 . S
C1545 H1537 0.930 . S
C1545 C1543 1.419 . S
C1545 C1546 1.362 . S
C1546 H1538 0.930 . S
C1546 C1545 1.362 . S
C1546 C1549 1.409 . S
C1547 H1539 0.930 . S
C1547 C1548 1.355 . S
C1547 C1549 1.415 . S
C1548 C1547 1.355 . S
C1548 C1550 1.419 . S
C1549 C1544 1.425 . S
C1549 C1546 1.409 . S
C1549 C1547 1.415 . S
C1550 H1540 0.930 . S
C1550 C1548 1.419 . S
C1550 C1551 1.362 . S
C1551 H1541 0.930 . S
C1551 C1544 1.409 . S
C1551 C1550 1.362 . S
H1552 C1558 0.930 . S
H1553 C1561 0.930 . S
H1554 C1562 0.930 . S
H1555 C1563 0.930 . S
H1556 C1566 0.930 . S
H1557 C1567 0.930 . S
C1558 H1552 0.930 . S
C1558 C1559 1.355 . S
C1558 C1560 1.415 . S
C1559 C1558 1.355 . S
C1559 C1561 1.419 . S
C1560 C1558 1.415 . S
C1560 C1565 1.425 . S
C1560 C1567 1.409 . S
C1561 H1553 0.930 . S
C1561 C1559 1.419 . S
C1561 C1562 1.362 . S
C1562 H1554 0.930 . S
C1562 C1561 1.362 . S
C1562 C1565 1.409 . S
C1563 H1555 0.930 . S
C1563 C1564 1.355 . S
C1563 C1565 1.415 . S
C1564 C1563 1.355 . S
C1564 C1566 1.419 . S
C1565 C1560 1.425 . S
C1565 C1562 1.409 . S
C1565 C1563 1.415 . S
C1566 H1556 0.930 . S
C1566 C1564 1.419 . S
C1566 C1567 1.362 . S
C1567 H1557 0.930 . S
C1567 C1560 1.409 . S
C1567 C1566 1.362 . S
H1568 C1574 0.930 . S
H1569 C1577 0.930 . S
H1570 C1578 0.930 . S
H1571 C1579 0.930 . S
H1572 C1582 0.930 . S
H1573 C1583 0.930 . S
C1574 H1568 0.930 . S
C1574 C1575 1.355 . S
C1574 C1576 1.415 . S
C1575 C1574 1.355 . S
C1575 C1577 1.419 . S
C1576 C1574 1.415 . S
C1576 C1581 1.425 . S
C1576 C1583 1.409 . S
C1577 H1569 0.930 . S
C1577 C1575 1.419 . S
C1577 C1578 1.362 . S
C1578 H1570 0.930 . S
C1578 C1577 1.362 . S
C1578 C1581 1.409 . S
C1579 H1571 0.930 . S
C1579 C1580 1.355 . S
C1579 C1581 1.415 . S
C1580 C1579 1.355 . S
C1580 C1582 1.419 . S
C1581 C1576 1.425 . S
C1581 C1578 1.409 . S
C1581 C1579 1.415 . S
C1582 H1572 0.930 . S
C1582 C1580 1.419 . S
C1582 C1583 1.362 . S
C1583 H1573 0.930 . S
C1583 C1576 1.409 . S
C1583 C1582 1.362 . S
H1584 C1590 0.930 . S
H1585 C1593 0.930 . S
H1586 C1594 0.930 . S
H1587 C1595 0.930 . S
H1588 C1598 0.930 . S
H1589 C1599 0.930 . S
C1590 H1584 0.930 . S
C1590 C1591 1.355 . S
C1590 C1592 1.415 . S
C1591 C1590 1.355 . S
C1591 C1593 1.419 . S
C1592 C1590 1.415 . S
C1592 C1597 1.425 . S
C1592 C1599 1.409 . S
C1593 H1585 0.930 . S
C1593 C1591 1.419 . S
C1593 C1594 1.362 . S
C1594 H1586 0.930 . S
C1594 C1593 1.362 . S
C1594 C1597 1.409 . S
C1595 H1587 0.930 . S
C1595 C1596 1.355 . S
C1595 C1597 1.415 . S
C1596 C1595 1.355 . S
C1596 C1598 1.419 . S
C1597 C1592 1.425 . S
C1597 C1594 1.409 . S
C1597 C1595 1.415 . S
C1598 H1588 0.930 . S
C1598 C1596 1.419 . S
C1598 C1599 1.362 . S
C1599 H1589 0.930 . S
C1599 C1592 1.409 . S
C1599 C1598 1.362 . S
H1600 C1606 0.930 . S
H1601 C1609 0.930 . S
H1602 C1610 0.930 . S
H1603 C1611 0.930 . S
H1604 C1614 0.930 . S
H1605 C1615 0.930 . S
C1606 H1600 0.930 . S
C1606 C1607 1.355 . S
C1606 C1608 1.415 . S
C1607 C1606 1.355 . S
C1607 C1609 1.419 . S
C1608 C1606 1.415 . S
C1608 C1613 1.425 . S
C1608 C1615 1.409 . S
C1609 H1601 0.930 . S
C1609 C1607 1.419 . S
C1609 C1610 1.362 . S
C1610 H1602 0.930 . S
C1610 C1609 1.362 . S
C1610 C1613 1.409 . S
C1611 H1603 0.930 . S
C1611 C1612 1.355 . S
C1611 C1613 1.415 . S
C1612 C1611 1.355 . S
C1612 C1614 1.419 . S
C1613 C1608 1.425 . S
C1613 C1610 1.409 . S
C1613 C1611 1.415 . S
C1614 H1604 0.930 . S
C1614 C1612 1.419 . S
C1614 C1615 1.362 . S
C1615 H1605 0.930 . S
C1615 C1608 1.409 . S
C1615 C1614 1.362 . S
H1616 C1622 0.930 . S
H1617 C1625 0.930 . S
H1618 C1626 0.930 . S
H1619 C1627 0.930 . S
H1620 C1630 0.930 . S
H1621 C1631 0.930 . S
C1622 H1616 0.930 . S
C1622 C1623 1.355 . S
C1622 C1624 1.415 . S
C1623 C1622 1.355 . S
C1623 C1625 1.419 . S
C1624 C1622 1.415 . S
C1624 C1629 1.425 . S
C1624 C1631 1.409 . S
C1625 H1617 0.930 . S
C1625 C1623 1.419 . S
C1625 C1626 1.362 . S
C1626 H1618 0.930 . S
C1626 C1625 1.362 . S
C1626 C1629 1.409 . S
C1627 H1619 0.930 . S
C1627 C1628 1.355 . S
C1627 C1629 1.415 . S
C1628 C1627 1.355 . S
C1628 C1630 1.419 . S
C1629 C1624 1.425 . S
C1629 C1626 1.409 . S
C1629 C1627 1.415 . S
C1630 H1620 0.930 . S
C1630 C1628 1.419 . S
C1630 C1631 1.362 . S
C1631 H1621 0.930 . S
C1631 C1624 1.409 . S
C1631 C1630 1.362 . S
H1632 C1638 0.930 . S
H1633 C1641 0.930 1_455 S
H1634 C1642 0.930 . S
H1635 C1643 0.930 . S
H1636 C1646 0.929 1_565 S
H1637 C1647 0.930 . S
C1638 H1632 0.930 . S
C1638 C1639 1.355 1_565 S
C1638 C1640 1.415 1_565 S
C1639 C1638 1.355 1_545 S
C1639 C1641 1.419 . S
C1640 C1638 1.415 1_545 S
C1640 C1645 1.425 1_655 S
C1640 C1647 1.409 1_545 S
C1641 H1633 0.930 1_655 S
C1641 C1639 1.419 . S
C1641 C1642 1.362 1_655 S
C1642 H1634 0.930 . S
C1642 C1641 1.362 1_455 S
C1642 C1645 1.409 . S
C1643 H1635 0.930 . S
C1643 C1644 1.355 . S
C1643 C1645 1.415 . S
C1644 C1643 1.355 . S
C1644 C1646 1.419 1_455 S
C1645 C1640 1.425 1_455 S
C1645 C1642 1.409 . S
C1645 C1643 1.415 . S
C1646 H1636 0.929 1_545 S
C1646 C1644 1.419 1_655 S
C1646 C1647 1.362 1_545 S
C1647 H1637 0.930 . S
C1647 C1640 1.409 1_565 S
C1647 C1646 1.362 1_565 S
H1648 C1654 0.930 . S
H1649 C1657 0.930 . S
H1650 C1658 0.930 . S
H1651 C1659 0.930 . S
H1652 C1662 0.930 . S
H1653 C1663 0.930 . S
C1654 H1648 0.930 . S
C1654 C1655 1.355 . S
C1654 C1656 1.415 . S
C1655 C1654 1.355 . S
C1655 C1657 1.419 . S
C1656 C1654 1.415 . S
C1656 C1661 1.425 . S
C1656 C1663 1.409 . S
C1657 H1649 0.930 . S
C1657 C1655 1.419 . S
C1657 C1658 1.362 . S
C1658 H1650 0.930 . S
C1658 C1657 1.362 . S
C1658 C1661 1.409 . S
C1659 H1651 0.930 . S
C1659 C1660 1.355 . S
C1659 C1661 1.415 . S
C1660 C1659 1.355 . S
C1660 C1662 1.419 . S
C1661 C1656 1.425 . S
C1661 C1658 1.409 . S
C1661 C1659 1.415 . S
C1662 H1652 0.930 . S
C1662 C1660 1.419 . S
C1662 C1663 1.362 . S
C1663 H1653 0.930 . S
C1663 C1656 1.409 . S
C1663 C1662 1.362 . S
H1664 C1670 0.930 1_565 S
H1665 C1673 0.930 . S
H1666 C1674 0.930 . S
H1667 C1675 0.930 . S
H1668 C1678 0.931 1_565 S
H1669 C1679 0.930 . S
C1670 H1664 0.930 1_545 S
C1670 C1671 1.355 . S
C1670 C1672 1.415 . S
C1671 C1670 1.355 . S
C1671 C1673 1.419 . S
C1672 C1670 1.415 . S
C1672 C1677 1.425 . S
C1672 C1679 1.409 1_545 S
C1673 H1665 0.930 . S
C1673 C1671 1.419 . S
C1673 C1674 1.362 . S
C1674 H1666 0.930 . S
C1674 C1673 1.362 . S
C1674 C1677 1.409 . S
C1675 H1667 0.930 . S
C1675 C1676 1.355 . S
C1675 C1677 1.415 . S
C1676 C1675 1.355 . S
C1676 C1678 1.417 . S
C1677 C1672 1.425 . S
C1677 C1674 1.409 . S
C1677 C1675 1.415 . S
C1678 H1668 0.931 1_545 S
C1678 C1676 1.417 . S
C1678 C1679 1.364 1_545 S
C1679 H1669 0.930 . S
C1679 C1672 1.409 1_565 S
C1679 C1678 1.364 1_565 S
H1680 C1686 0.930 . S
H1681 C1689 0.930 . S
H1682 C1690 0.930 . S
H1683 C1691 0.930 . S
H1684 C1694 0.930 . S
H1685 C1695 0.930 . S
C1686 H1680 0.930 . S
C1686 C1687 1.355 . S
C1686 C1688 1.415 . S
C1687 C1686 1.355 . S
C1687 C1689 1.419 . S
C1688 C1686 1.415 . S
C1688 C1693 1.425 . S
C1688 C1695 1.409 . S
C1689 H1681 0.930 . S
C1689 C1687 1.419 . S
C1689 C1690 1.362 . S
C1690 H1682 0.930 . S
C1690 C1689 1.362 . S
C1690 C1693 1.409 . S
C1691 H1683 0.930 . S
C1691 C1692 1.355 . S
C1691 C1693 1.415 . S
C1692 C1691 1.355 . S
C1692 C1694 1.419 . S
C1693 C1688 1.425 . S
C1693 C1690 1.409 . S
C1693 C1691 1.415 . S
C1694 H1684 0.930 . S
C1694 C1692 1.419 . S
C1694 C1695 1.362 . S
C1695 H1685 0.930 . S
C1695 C1688 1.409 . S
C1695 C1694 1.362 . S
H1696 C1702 0.930 . S
H1697 C1705 0.930 . S
H1698 C1706 0.930 . S
H1699 C1707 0.930 . S
H1700 C1710 0.930 . S
H1701 C1711 0.930 . S
C1702 H1696 0.930 . S
C1702 C1703 1.355 . S
C1702 C1704 1.415 . S
C1703 C1702 1.355 . S
C1703 C1705 1.419 1_655 S
C1704 C1702 1.415 . S
C1704 C1709 1.425 1_655 S
C1704 C1711 1.409 . S
C1705 H1697 0.930 . S
C1705 C1703 1.419 1_455 S
C1705 C1706 1.362 . S
C1706 H1698 0.930 . S
C1706 C1705 1.362 . S
C1706 C1709 1.409 . S
C1707 H1699 0.930 . S
C1707 C1708 1.355 . S
C1707 C1709 1.415 . S
C1708 C1707 1.355 . S
C1708 C1710 1.419 1_455 S
C1709 C1704 1.425 1_455 S
C1709 C1706 1.409 . S
C1709 C1707 1.415 . S
C1710 H1700 0.930 . S
C1710 C1708 1.419 1_655 S
C1710 C1711 1.362 . S
C1711 H1701 0.930 . S
C1711 C1704 1.409 . S
C1711 C1710 1.362 . S
H1712 C1718 0.930 . S
H1713 C1721 0.930 . S
H1714 C1722 0.930 . S
H1715 C1723 0.930 . S
H1716 C1726 0.930 . S
H1717 C1727 0.930 . S
C1718 H1712 0.930 . S
C1718 C1719 1.355 . S
C1718 C1720 1.415 . S
C1719 C1718 1.355 . S
C1719 C1721 1.419 . S
C1720 C1718 1.415 . S
C1720 C1725 1.425 . S
C1720 C1727 1.409 . S
C1721 H1713 0.930 . S
C1721 C1719 1.419 . S
C1721 C1722 1.362 . S
C1722 H1714 0.930 . S
C1722 C1721 1.362 . S
C1722 C1725 1.409 . S
C1723 H1715 0.930 . S
C1723 C1724 1.355 . S
C1723 C1725 1.415 . S
C1724 C1723 1.355 . S
C1724 C1726 1.419 . S
C1725 C1720 1.425 . S
C1725 C1722 1.409 . S
C1725 C1723 1.415 . S
C1726 H1716 0.930 . S
C1726 C1724 1.419 . S
C1726 C1727 1.362 . S
C1727 H1717 0.930 . S
C1727 C1720 1.409 . S
C1727 C1726 1.362 . S
H1728 C1734 0.930 . S
H1729 C1737 0.930 . S
H1730 C1738 0.930 . S
H1731 C1739 0.930 1_554 S
H1732 C1742 0.930 . S
H1733 C1743 0.930 . S
C1734 H1728 0.930 . S
C1734 C1735 1.355 . S
C1734 C1736 1.415 . S
C1735 C1734 1.355 . S
C1735 C1737 1.419 . S
C1736 C1734 1.415 . S
C1736 C1741 1.425 . S
C1736 C1743 1.409 . S
C1737 H1729 0.930 . S
C1737 C1735 1.419 . S
C1737 C1738 1.362 . S
C1738 H1730 0.930 . S
C1738 C1737 1.362 . S
C1738 C1741 1.409 . S
C1739 H1731 0.930 1_556 S
C1739 C1740 1.355 . S
C1739 C1741 1.415 . S
C1740 C1739 1.355 . S
C1740 C1742 1.419 . S
C1741 C1736 1.425 . S
C1741 C1738 1.409 . S
C1741 C1739 1.415 . S
C1742 H1732 0.930 . S
C1742 C1740 1.419 . S
C1742 C1743 1.362 . S
C1743 H1733 0.930 . S
C1743 C1736 1.409 . S
C1743 C1742 1.362 . S
H1744 C1750 0.930 . S
H1745 C1753 0.930 . S
H1746 C1754 0.930 . S
H1747 C1755 0.930 . S
H1748 C1758 0.930 . S
H1749 C1759 0.930 . S
C1750 H1744 0.930 . S
C1750 C1751 1.355 . S
C1750 C1752 1.415 . S
C1751 C1750 1.355 . S
C1751 C1753 1.419 . S
C1752 C1750 1.415 . S
C1752 C1757 1.425 . S
C1752 C1759 1.409 . S
C1753 H1745 0.930 . S
C1753 C1751 1.419 . S
C1753 C1754 1.362 . S
C1754 H1746 0.930 . S
C1754 C1753 1.362 . S
C1754 C1757 1.409 . S
C1755 H1747 0.930 . S
C1755 C1756 1.355 . S
C1755 C1757 1.415 . S
C1756 C1755 1.355 . S
C1756 C1758 1.419 . S
C1757 C1752 1.425 . S
C1757 C1754 1.409 . S
C1757 C1755 1.415 . S
C1758 H1748 0.930 . S
C1758 C1756 1.419 . S
C1758 C1759 1.362 . S
C1759 H1749 0.930 . S
C1759 C1752 1.409 . S
C1759 C1758 1.362 . S
H1760 C1766 0.930 1_556 S
H1761 C1769 0.930 . S
H1762 C1770 0.930 . S
H1763 C1771 0.930 . S
H1764 C1774 0.930 . S
H1765 C1775 0.930 . S
C1766 H1760 0.930 1_554 S
C1766 C1767 1.355 . S
C1766 C1768 1.415 . S
C1767 C1766 1.355 . S
C1767 C1769 1.419 . S
C1768 C1766 1.415 . S
C1768 C1773 1.425 . S
C1768 C1775 1.409 . S
C1769 H1761 0.930 . S
C1769 C1767 1.419 . S
C1769 C1770 1.362 . S
C1770 H1762 0.930 . S
C1770 C1769 1.362 . S
C1770 C1773 1.409 . S
C1771 H1763 0.930 . S
C1771 C1772 1.355 . S
C1771 C1773 1.415 . S
C1772 C1771 1.355 . S
C1772 C1774 1.419 . S
C1773 C1768 1.425 . S
C1773 C1770 1.409 . S
C1773 C1771 1.415 . S
C1774 H1764 0.930 . S
C1774 C1772 1.419 . S
C1774 C1775 1.362 . S
C1775 H1765 0.930 . S
C1775 C1768 1.409 . S
C1775 C1774 1.362 . S
H1776 C1782 0.930 . S
H1777 C1785 0.930 . S
H1778 C1786 0.930 . S
H1779 C1787 0.930 . S
H1780 C1790 0.930 . S
H1781 C1791 0.930 . S
C1782 H1776 0.930 . S
C1782 C1783 1.355 . S
C1782 C1784 1.415 . S
C1783 C1782 1.355 . S
C1783 C1785 1.419 . S
C1784 C1782 1.415 . S
C1784 C1789 1.425 . S
C1784 C1791 1.409 . S
C1785 H1777 0.930 . S
C1785 C1783 1.419 . S
C1785 C1786 1.362 . S
C1786 H1778 0.930 . S
C1786 C1785 1.362 . S
C1786 C1789 1.409 . S
C1787 H1779 0.930 . S
C1787 C1788 1.355 . S
C1787 C1789 1.415 . S
C1788 C1787 1.355 . S
C1788 C1790 1.419 . S
C1789 C1784 1.425 . S
C1789 C1786 1.409 . S
C1789 C1787 1.415 . S
C1790 H1780 0.930 . S
C1790 C1788 1.419 . S
C1790 C1791 1.362 . S
C1791 H1781 0.930 . S
C1791 C1784 1.409 . S
C1791 C1790 1.362 . S
H1792 C1798 0.930 . S
H1793 C1801 0.930 . S
H1794 C1802 0.930 . S
H1795 C1803 0.930 . S
H1796 C1806 0.930 . S
H1797 C1807 0.930 . S
C1798 H1792 0.930 . S
C1798 C1799 1.355 . S
C1798 C1800 1.415 . S
C1799 C1798 1.355 . S
C1799 C1801 1.419 . S
C1800 C1798 1.415 . S
C1800 C1805 1.425 . S
C1800 C1807 1.409 . S
C1801 H1793 0.930 . S
C1801 C1799 1.419 . S
C1801 C1802 1.362 . S
C1802 H1794 0.930 . S
C1802 C1801 1.362 . S
C1802 C1805 1.409 . S
C1803 H1795 0.930 . S
C1803 C1804 1.355 . S
C1803 C1805 1.415 . S
C1804 C1803 1.355 . S
C1804 C1806 1.419 . S
C1805 C1800 1.425 . S
C1805 C1802 1.409 . S
C1805 C1803 1.415 . S
C1806 H1796 0.930 . S
C1806 C1804 1.419 . S
C1806 C1807 1.362 . S
C1807 H1797 0.930 . S
C1807 C1800 1.409 . S
C1807 C1806 1.362 . S
H1808 C1814 0.930 . S
H1809 C1817 0.930 . S
H1810 C1818 0.930 . S
H1811 C1819 0.930 . S
H1812 C1822 0.930 . S
H1813 C1823 0.930 . S
C1814 H1808 0.930 . S
C1814 C1815 1.355 . S
C1814 C1816 1.415 . S
C1815 C1814 1.355 . S
C1815 C1817 1.419 . S
C1816 C1814 1.415 . S
C1816 C1821 1.425 . S
C1816 C1823 1.409 . S
C1817 H1809 0.930 . S
C1817 C1815 1.419 . S
C1817 C1818 1.362 . S
C1818 H1810 0.930 . S
C1818 C1817 1.362 . S
C1818 C1821 1.409 . S
C1819 H1811 0.930 . S
C1819 C1820 1.355 . S
C1819 C1821 1.415 . S
C1820 C1819 1.355 . S
C1820 C1822 1.419 . S
C1821 C1816 1.425 . S
C1821 C1818 1.409 . S
C1821 C1819 1.415 . S
C1822 H1812 0.930 . S
C1822 C1820 1.419 . S
C1822 C1823 1.362 . S
C1823 H1813 0.930 . S
C1823 C1816 1.409 . S
C1823 C1822 1.362 . S
H1824 C1830 0.930 . S
H1825 C1833 0.930 . S
H1826 C1834 0.930 . S
H1827 C1835 0.930 . S
H1828 C1838 0.930 . S
H1829 C1839 0.930 . S
C1830 H1824 0.930 . S
C1830 C1831 1.355 . S
C1830 C1832 1.415 . S
C1831 C1830 1.355 . S
C1831 C1833 1.419 . S
C1832 C1830 1.415 . S
C1832 C1837 1.425 . S
C1832 C1839 1.409 . S
C1833 H1825 0.930 . S
C1833 C1831 1.419 . S
C1833 C1834 1.362 . S
C1834 H1826 0.930 . S
C1834 C1833 1.362 . S
C1834 C1837 1.409 . S
C1835 H1827 0.930 . S
C1835 C1836 1.355 . S
C1835 C1837 1.415 . S
C1836 C1835 1.355 . S
C1836 C1838 1.419 . S
C1837 C1832 1.425 . S
C1837 C1834 1.409 . S
C1837 C1835 1.415 . S
C1838 H1828 0.930 . S
C1838 C1836 1.419 . S
C1838 C1839 1.362 . S
C1839 H1829 0.930 . S
C1839 C1832 1.409 . S
C1839 C1838 1.362 . S
H1840 C1846 0.930 . S
H1841 C1849 0.930 . S
H1842 C1850 0.930 . S
H1843 C1851 0.930 . S
H1844 C1854 0.930 . S
H1845 C1855 0.930 . S
C1846 H1840 0.930 . S
C1846 C1847 1.355 . S
C1846 C1848 1.415 . S
C1847 C1846 1.355 . S
C1847 C1849 1.419 . S
C1848 C1846 1.415 . S
C1848 C1853 1.425 . S
C1848 C1855 1.409 . S
C1849 H1841 0.930 . S
C1849 C1847 1.419 . S
C1849 C1850 1.362 . S
C1850 H1842 0.930 . S
C1850 C1849 1.362 . S
C1850 C1853 1.409 . S
C1851 H1843 0.930 . S
C1851 C1852 1.355 . S
C1851 C1853 1.415 . S
C1852 C1851 1.355 . S
C1852 C1854 1.419 . S
C1853 C1848 1.425 . S
C1853 C1850 1.409 . S
C1853 C1851 1.415 . S
C1854 H1844 0.930 . S
C1854 C1852 1.419 . S
C1854 C1855 1.362 . S
C1855 H1845 0.930 . S
C1855 C1848 1.409 . S
C1855 C1854 1.362 . S
H1856 C1862 0.930 . S
H1857 C1865 0.930 . S
H1858 C1866 0.930 . S
H1859 C1867 0.930 . S
H1860 C1870 0.930 . S
H1861 C1871 0.930 . S
C1862 H1856 0.930 . S
C1862 C1863 1.355 . S
C1862 C1864 1.415 . S
C1863 C1862 1.355 . S
C1863 C1865 1.419 . S
C1864 C1862 1.415 . S
C1864 C1869 1.425 . S
C1864 C1871 1.409 . S
C1865 H1857 0.930 . S
C1865 C1863 1.419 . S
C1865 C1866 1.362 . S
C1866 H1858 0.930 . S
C1866 C1865 1.362 . S
C1866 C1869 1.409 . S
C1867 H1859 0.930 . S
C1867 C1868 1.355 . S
C1867 C1869 1.415 . S
C1868 C1867 1.355 . S
C1868 C1870 1.419 . S
C1869 C1864 1.425 . S
C1869 C1866 1.409 . S
C1869 C1867 1.415 . S
C1870 H1860 0.930 . S
C1870 C1868 1.419 . S
C1870 C1871 1.362 . S
C1871 H1861 0.930 . S
C1871 C1864 1.409 . S
C1871 C1870 1.362 . S
H1872 C1878 0.930 . S
H1873 C1881 0.930 . S
H1874 C1882 0.930 . S
H1875 C1883 0.930 . S
H1876 C1886 0.930 . S
H1877 C1887 0.930 . S
C1878 H1872 0.930 . S
C1878 C1879 1.355 . S
C1878 C1880 1.415 . S
C1879 C1878 1.355 . S
C1879 C1881 1.419 . S
C1880 C1878 1.415 . S
C1880 C1885 1.425 . S
C1880 C1887 1.409 . S
C1881 H1873 0.930 . S
C1881 C1879 1.419 . S
C1881 C1882 1.362 . S
C1882 H1874 0.930 . S
C1882 C1881 1.362 . S
C1882 C1885 1.409 . S
C1883 H1875 0.930 . S
C1883 C1884 1.355 . S
C1883 C1885 1.415 . S
C1884 C1883 1.355 . S
C1884 C1886 1.419 . S
C1885 C1880 1.425 . S
C1885 C1882 1.409 . S
C1885 C1883 1.415 . S
C1886 H1876 0.930 . S
C1886 C1884 1.419 . S
C1886 C1887 1.362 . S
C1887 H1877 0.930 . S
C1887 C1880 1.409 . S
C1887 C1886 1.362 . S
H1888 C1894 0.930 . S
H1889 C1897 0.930 . S
H1890 C1898 0.930 . S
H1891 C1899 0.930 . S
H1892 C1902 0.930 . S
H1893 C1903 0.930 . S
C1894 H1888 0.930 . S
C1894 C1895 1.355 . S
C1894 C1896 1.415 . S
C1895 C1894 1.355 . S
C1895 C1897 1.419 . S
C1896 C1894 1.415 . S
C1896 C1901 1.425 . S
C1896 C1903 1.409 . S
C1897 H1889 0.930 . S
C1897 C1895 1.419 . S
C1897 C1898 1.362 . S
C1898 H1890 0.930 . S
C1898 C1897 1.362 . S
C1898 C1901 1.409 . S
C1899 H1891 0.930 . S
C1899 C1900 1.355 . S
C1899 C1901 1.415 . S
C1900 C1899 1.355 . S
C1900 C1902 1.419 . S
C1901 C1896 1.425 . S
C1901 C1898 1.409 . S
C1901 C1899 1.415 . S
C1902 H1892 0.930 . S
C1902 C1900 1.419 . S
C1902 C1903 1.362 . S
C1903 H1893 0.930 . S
C1903 C1896 1.409 . S
C1903 C1902 1.362 . S
H1904 C1910 0.930 . S
H1905 C1913 0.930 . S
H1906 C1914 0.930 . S
H1907 C1915 0.930 . S
H1908 C1918 0.930 . S
H1909 C1919 0.930 . S
C1910 H1904 0.930 . S
C1910 C1911 1.355 . S
C1910 C1912 1.415 . S
C1911 C1910 1.355 . S
C1911 C1913 1.419 . S
C1912 C1910 1.415 . S
C1912 C1917 1.425 . S
C1912 C1919 1.409 . S
C1913 H1905 0.930 . S
C1913 C1911 1.419 . S
C1913 C1914 1.362 . S
C1914 H1906 0.930 . S
C1914 C1913 1.362 . S
C1914 C1917 1.409 . S
C1915 H1907 0.930 . S
C1915 C1916 1.355 . S
C1915 C1917 1.415 . S
C1916 C1915 1.355 . S
C1916 C1918 1.419 . S
C1917 C1912 1.425 . S
C1917 C1914 1.409 . S
C1917 C1915 1.415 . S
C1918 H1908 0.930 . S
C1918 C1916 1.419 . S
C1918 C1919 1.362 . S
C1919 H1909 0.930 . S
C1919 C1912 1.409 . S
C1919 C1918 1.362 . S
H1920 C1926 0.930 . S
H1921 C1929 0.930 . S
H1922 C1930 0.930 . S
H1923 C1931 0.930 . S
H1924 C1934 0.930 . S
H1925 C1935 0.930 . S
C1926 H1920 0.930 . S
C1926 C1927 1.355 . S
C1926 C1928 1.415 . S
C1927 C1926 1.355 . S
C1927 C1929 1.419 . S
C1928 C1926 1.415 . S
C1928 C1933 1.425 . S
C1928 C1935 1.409 . S
C1929 H1921 0.930 . S
C1929 C1927 1.419 . S
C1929 C1930 1.362 . S
C1930 H1922 0.930 . S
C1930 C1929 1.362 . S
C1930 C1933 1.409 . S
C1931 H1923 0.930 . S
C1931 C1932 1.355 . S
C1931 C1933 1.415 . S
C1932 C1931 1.355 . S
C1932 C1934 1.419 . S
C1933 C1928 1.425 . S
C1933 C1930 1.409 . S
C1933 C1931 1.415 . S
C1934 H1924 0.930 . S
C1934 C1932 1.419 . S
C1934 C1935 1.362 . S
C1935 H1925 0.930 . S
C1935 C1928 1.409 . S
C1935 C1934 1.362 . S
H1936 C1942 0.930 . S
H1937 C1945 0.930 . S
H1938 C1946 0.930 . S
H1939 C1947 0.930 . S
H1940 C1950 0.930 . S
H1941 C1951 0.930 . S
C1942 H1936 0.930 . S
C1942 C1943 1.355 . S
C1942 C1944 1.415 . S
C1943 C1942 1.355 . S
C1943 C1945 1.419 . S
C1944 C1942 1.415 . S
C1944 C1949 1.425 . S
C1944 C1951 1.409 . S
C1945 H1937 0.930 . S
C1945 C1943 1.419 . S
C1945 C1946 1.362 . S
C1946 H1938 0.930 . S
C1946 C1945 1.362 . S
C1946 C1949 1.409 . S
C1947 H1939 0.930 . S
C1947 C1948 1.355 . S
C1947 C1949 1.415 . S
C1948 C1947 1.355 . S
C1948 C1950 1.419 . S
C1949 C1944 1.425 . S
C1949 C1946 1.409 . S
C1949 C1947 1.415 . S
C1950 H1940 0.930 . S
C1950 C1948 1.419 . S
C1950 C1951 1.362 . S
C1951 H1941 0.930 . S
C1951 C1944 1.409 . S
C1951 C1950 1.362 . S
H1952 C1958 0.930 . S
H1953 C1961 0.923 1_455 S
H1954 C1962 0.913 1_455 S
H1955 C1963 0.930 . S
H1956 C1966 0.930 . S
H1957 C1967 0.930 . S
C1958 H1952 0.930 . S
C1958 C1959 1.355 . S
C1958 C1960 1.415 . S
C1959 C1958 1.355 . S
C1959 C1961 1.427 . S
C1960 C1958 1.415 . S
C1960 C1965 1.425 . S
C1960 C1967 1.409 . S
C1961 H1953 0.923 1_655 S
C1961 C1959 1.427 . S
C1961 C1962 1.365 . S
C1962 H1954 0.913 1_655 S
C1962 C1961 1.365 . S
C1962 C1965 1.419 . S
C1963 H1955 0.930 . S
C1963 C1964 1.355 . S
C1963 C1965 1.415 . S
C1964 C1963 1.355 . S
C1964 C1966 1.419 . S
C1965 C1960 1.425 . S
C1965 C1962 1.419 . S
C1965 C1963 1.415 . S
C1966 H1956 0.930 . S
C1966 C1964 1.419 . S
C1966 C1967 1.362 . S
C1967 H1957 0.930 . S
C1967 C1960 1.409 . S
C1967 C1966 1.362 . S
H1968 C1974 0.930 . S
H1969 C1977 0.930 . S
H1970 C1978 0.930 . S
H1971 C1979 0.930 . S
H1972 C1982 0.930 . S
H1973 C1983 0.930 . S
C1974 H1968 0.930 . S
C1974 C1975 1.355 . S
C1974 C1976 1.415 . S
C1975 C1974 1.355 . S
C1975 C1977 1.419 . S
C1976 C1974 1.415 . S
C1976 C1981 1.425 . S
C1976 C1983 1.409 . S
C1977 H1969 0.930 . S
C1977 C1975 1.419 . S
C1977 C1978 1.362 . S
C1978 H1970 0.930 . S
C1978 C1977 1.362 . S
C1978 C1981 1.409 . S
C1979 H1971 0.930 . S
C1979 C1980 1.355 . S
C1979 C1981 1.415 . S
C1980 C1979 1.355 . S
C1980 C1982 1.419 . S
C1981 C1976 1.425 . S
C1981 C1978 1.409 . S
C1981 C1979 1.415 . S
C1982 H1972 0.930 . S
C1982 C1980 1.419 . S
C1982 C1983 1.362 . S
C1983 H1973 0.930 . S
C1983 C1976 1.409 . S
C1983 C1982 1.362 . S
H1984 C1990 0.930 . S
H1985 C1993 0.930 . S
H1986 C1994 0.930 . S
H1987 C1995 0.930 . S
H1988 C1998 0.930 . S
H1989 C1999 0.925 1_556 S
C1990 H1984 0.930 . S
C1990 C1991 1.355 . S
C1990 C1992 1.415 . S
C1991 C1990 1.355 . S
C1991 C1993 1.419 . S
C1992 C1990 1.415 . S
C1992 C1997 1.425 . S
C1992 C1999 1.399 1_556 S
C1993 H1985 0.930 . S
C1993 C1991 1.419 . S
C1993 C1994 1.362 . S
C1994 H1986 0.930 . S
C1994 C1993 1.362 . S
C1994 C1997 1.409 . S
C1995 H1987 0.930 . S
C1995 C1996 1.355 . S
C1995 C1997 1.415 1_554 S
C1996 C1995 1.355 . S
C1996 C1998 1.419 . S
C1997 C1992 1.425 . S
C1997 C1994 1.409 . S
C1997 C1995 1.415 1_556 S
C1998 H1988 0.930 . S
C1998 C1996 1.419 . S
C1998 C1999 1.379 . S
C1999 H1989 0.925 1_554 S
C1999 C1992 1.399 1_554 S
C1999 C1998 1.379 . S
H2000 C2006 0.930 . S
H2001 C2009 0.930 . S
H2002 C2010 0.930 . S
H2003 C2011 0.930 . S
H2004 C2014 0.930 . S
H2005 C2015 0.930 1_455 S
C2006 H2000 0.930 . S
C2006 C2007 1.355 . S
C2006 C2008 1.415 1_455 S
C2007 C2006 1.355 . S
C2007 C2009 1.419 1_455 S
C2008 C2006 1.415 1_655 S
C2008 C2013 1.425 . S
C2008 C2015 1.409 . S
C2009 H2001 0.930 . S
C2009 C2007 1.419 1_655 S
C2009 C2010 1.362 . S
C2010 H2002 0.930 . S
C2010 C2009 1.362 . S
C2010 C2013 1.409 . S
C2011 H2003 0.930 . S
C2011 C2012 1.355 . S
C2011 C2013 1.415 . S
C2012 C2011 1.355 . S
C2012 C2014 1.419 . S
C2013 C2008 1.425 . S
C2013 C2010 1.409 . S
C2013 C2011 1.415 . S
C2014 H2004 0.930 . S
C2014 C2012 1.419 . S
C2014 C2015 1.362 . S
C2015 H2005 0.930 1_655 S
C2015 C2008 1.409 . S
C2015 C2014 1.362 . S
H2016 C2022 0.930 . S
H2017 C2025 0.930 . S
H2018 C2026 0.930 1_565 S
H2019 C2027 0.930 1_565 S
H2020 C2030 0.930 . S
H2021 C2031 0.930 . S
C2022 H2016 0.930 . S
C2022 C2023 1.355 . S
C2022 C2024 1.415 . S
C2023 C2022 1.355 . S
C2023 C2025 1.419 . S
C2024 C2022 1.415 . S
C2024 C2029 1.425 . S
C2024 C2031 1.409 . S
C2025 H2017 0.930 . S
C2025 C2023 1.419 . S
C2025 C2026 1.362 . S
C2026 H2018 0.930 1_545 S
C2026 C2025 1.362 . S
C2026 C2029 1.409 . S
C2027 H2019 0.930 1_545 S
C2027 C2028 1.355 . S
C2027 C2029 1.415 . S
C2028 C2027 1.355 . S
C2028 C2030 1.419 . S
C2029 C2024 1.425 . S
C2029 C2026 1.409 . S
C2029 C2027 1.415 . S
C2030 H2020 0.930 . S
C2030 C2028 1.419 . S
C2030 C2031 1.362 . S
C2031 H2021 0.930 . S
C2031 C2024 1.409 . S
C2031 C2030 1.362 . S
H2032 C2038 0.930 . S
H2033 C2041 0.930 . S
H2034 C2042 0.930 . S
H2035 C2043 0.930 . S
H2036 C2046 0.930 . S
H2037 C2047 0.930 . S
C2038 H2032 0.930 . S
C2038 C2039 1.355 . S
C2038 C2040 1.415 . S
C2039 C2038 1.355 . S
C2039 C2041 1.419 . S
C2040 C2038 1.415 . S
C2040 C2045 1.425 . S
C2040 C2047 1.409 . S
C2041 H2033 0.930 . S
C2041 C2039 1.419 . S
C2041 C2042 1.362 . S
C2042 H2034 0.930 . S
C2042 C2041 1.362 . S
C2042 C2045 1.409 . S
C2043 H2035 0.930 . S
C2043 C2044 1.355 . S
C2043 C2045 1.415 . S
C2044 C2043 1.355 . S
C2044 C2046 1.419 . S
C2045 C2040 1.425 . S
C2045 C2042 1.409 . S
C2045 C2043 1.415 . S
C2046 H2036 0.930 . S
C2046 C2044 1.419 . S
C2046 C2047 1.362 . S
C2047 H2037 0.930 . S
C2047 C2040 1.409 . S
C2047 C2046 1.362 . S
H2048 C2054 0.930 . S
H2049 C2057 0.930 . S
H2050 C2058 0.930 . S
H2051 C2059 0.930 . S
H2052 C2062 0.930 1_565 S
H2053 C2063 0.930 1_565 S
C2054 H2048 0.930 . S
C2054 C2055 1.355 . S
C2054 C2056 1.415 . S
C2055 C2054 1.355 . S
C2055 C2057 1.419 . S
C2056 C2054 1.415 . S
C2056 C2061 1.425 . S
C2056 C2063 1.409 . S
C2057 H2049 0.930 . S
C2057 C2055 1.419 . S
C2057 C2058 1.362 . S
C2058 H2050 0.930 . S
C2058 C2057 1.362 . S
C2058 C2061 1.409 . S
C2059 H2051 0.930 . S
C2059 C2060 1.355 . S
C2059 C2061 1.415 . S
C2060 C2059 1.355 . S
C2060 C2062 1.419 . S
C2061 C2056 1.425 . S
C2061 C2058 1.409 . S
C2061 C2059 1.415 . S
C2062 H2052 0.930 1_545 S
C2062 C2060 1.419 . S
C2062 C2063 1.362 . S
C2063 H2053 0.930 1_545 S
C2063 C2056 1.409 . S
C2063 C2062 1.362 . S
H2064 C2070 0.930 . S
H2065 C2073 0.930 . S
H2066 C2074 0.930 . S
H2067 C2075 0.930 . S
H2068 C2078 0.930 . S
H2069 C2079 0.930 . S
C2070 H2064 0.930 . S
C2070 C2071 1.355 . S
C2070 C2072 1.415 . S
C2071 C2070 1.355 . S
C2071 C2073 1.419 . S
C2072 C2070 1.415 . S
C2072 C2077 1.425 . S
C2072 C2079 1.409 . S
C2073 H2065 0.930 . S
C2073 C2071 1.419 . S
C2073 C2074 1.362 . S
C2074 H2066 0.930 . S
C2074 C2073 1.362 . S
C2074 C2077 1.409 . S
C2075 H2067 0.930 . S
C2075 C2076 1.355 . S
C2075 C2077 1.415 . S
C2076 C2075 1.355 . S
C2076 C2078 1.419 . S
C2077 C2072 1.425 . S
C2077 C2074 1.409 . S
C2077 C2075 1.415 . S
C2078 H2068 0.930 . S
C2078 C2076 1.419 . S
C2078 C2079 1.362 . S
C2079 H2069 0.930 . S
C2079 C2072 1.409 . S
C2079 C2078 1.362 . S
H2080 C2086 0.930 . S
H2081 C2089 0.930 . S
H2082 C2090 0.930 . S
H2083 C2091 0.930 . S
H2084 C2094 0.930 1_565 S
H2085 C2095 0.930 1_565 S
C2086 H2080 0.930 . S
C2086 C2087 1.355 . S
C2086 C2088 1.415 . S
C2087 C2086 1.355 . S
C2087 C2089 1.419 . S
C2088 C2086 1.415 . S
C2088 C2093 1.425 . S
C2088 C2095 1.409 . S
C2089 H2081 0.930 . S
C2089 C2087 1.419 . S
C2089 C2090 1.362 . S
C2090 H2082 0.930 . S
C2090 C2089 1.362 . S
C2090 C2093 1.409 . S
C2091 H2083 0.930 . S
C2091 C2092 1.355 . S
C2091 C2093 1.415 . S
C2092 C2091 1.355 . S
C2092 C2094 1.419 . S
C2093 C2088 1.425 . S
C2093 C2090 1.409 . S
C2093 C2091 1.415 . S
C2094 H2084 0.930 1_545 S
C2094 C2092 1.419 . S
C2094 C2095 1.362 . S
C2095 H2085 0.930 1_545 S
C2095 C2088 1.409 . S
C2095 C2094 1.362 . S
H2096 C2102 0.930 . S
H2097 C2105 0.930 . S
H2098 C2106 0.930 . S
H2099 C2107 0.930 . S
H2100 C2110 0.930 . S
H2101 C2111 0.930 . S
C2102 H2096 0.930 . S
C2102 C2103 1.355 . S
C2102 C2104 1.415 . S
C2103 C2102 1.355 . S
C2103 C2105 1.419 . S
C2104 C2102 1.415 . S
C2104 C2109 1.425 . S
C2104 C2111 1.409 . S
C2105 H2097 0.930 . S
C2105 C2103 1.419 . S
C2105 C2106 1.362 . S
C2106 H2098 0.930 . S
C2106 C2105 1.362 . S
C2106 C2109 1.409 . S
C2107 H2099 0.930 . S
C2107 C2108 1.355 . S
C2107 C2109 1.415 . S
C2108 C2107 1.355 . S
C2108 C2110 1.419 . S
C2109 C2104 1.425 . S
C2109 C2106 1.409 . S
C2109 C2107 1.415 . S
C2110 H2100 0.930 . S
C2110 C2108 1.419 . S
C2110 C2111 1.362 . S
C2111 H2101 0.930 . S
C2111 C2104 1.409 . S
C2111 C2110 1.362 . S
H2112 C2118 0.930 . S
H2113 C2121 0.930 . S
H2114 C2122 0.930 . S
H2115 C2123 0.930 . S
H2116 C2126 0.945 . S
H2117 C2127 0.930 . S
C2118 H2112 0.930 . S
C2118 C2119 1.355 . S
C2118 C2120 1.415 . S
C2119 C2118 1.355 . S
C2119 C2121 1.419 . S
C2120 C2118 1.415 . S
C2120 C2125 1.425 . S
C2120 C2127 1.409 1_545 S
C2121 H2113 0.930 . S
C2121 C2119 1.419 . S
C2121 C2122 1.362 . S
C2122 H2114 0.930 . S
C2122 C2121 1.362 . S
C2122 C2125 1.409 . S
C2123 H2115 0.930 . S
C2123 C2124 1.355 . S
C2123 C2125 1.415 . S
C2124 C2123 1.355 . S
C2124 C2126 1.407 1_545 S
C2125 C2120 1.425 . S
C2125 C2122 1.409 . S
C2125 C2123 1.415 . S
C2126 H2116 0.945 . S
C2126 C2124 1.407 1_565 S
C2126 C2127 1.361 . S
C2127 H2117 0.930 . S
C2127 C2120 1.409 1_565 S
C2127 C2126 1.361 . S
H2128 C2134 0.930 . S
H2129 C2137 0.930 . S
H2130 C2138 0.930 . S
H2131 C2139 0.930 . S
H2132 C2142 0.930 . S
H2133 C2143 0.930 . S
C2134 H2128 0.930 . S
C2134 C2135 1.355 . S
C2134 C2136 1.415 . S
C2135 C2134 1.355 . S
C2135 C2137 1.419 . S
C2136 C2134 1.415 . S
C2136 C2141 1.425 . S
C2136 C2143 1.409 . S
C2137 H2129 0.930 . S
C2137 C2135 1.419 . S
C2137 C2138 1.362 . S
C2138 H2130 0.930 . S
C2138 C2137 1.362 . S
C2138 C2141 1.409 . S
C2139 H2131 0.930 . S
C2139 C2140 1.355 . S
C2139 C2141 1.415 . S
C2140 C2139 1.355 . S
C2140 C2142 1.419 . S
C2141 C2136 1.425 . S
C2141 C2138 1.409 . S
C2141 C2139 1.415 . S
C2142 H2132 0.930 . S
C2142 C2140 1.419 . S
C2142 C2143 1.362 . S
C2143 H2133 0.930 . S
C2143 C2136 1.409 . S
C2143 C2142 1.362 . S
H2144 C2150 0.930 . S
H2145 C2153 0.930 . S
H2146 C2154 0.930 . S
H2147 C2155 0.930 . S
H2148 C2158 0.930 . S
H2149 C2159 0.930 . S
C2150 H2144 0.930 . S
C2150 C2151 1.355 . S
C2150 C2152 1.415 . S
C2151 C2150 1.355 . S
C2151 C2153 1.419 . S
C2152 C2150 1.415 . S
C2152 C2157 1.425 . S
C2152 C2159 1.409 . S
C2153 H2145 0.930 . S
C2153 C2151 1.419 . S
C2153 C2154 1.362 . S
C2154 H2146 0.930 . S
C2154 C2153 1.362 . S
C2154 C2157 1.409 . S
C2155 H2147 0.930 . S
C2155 C2156 1.355 . S
C2155 C2157 1.415 . S
C2156 C2155 1.355 . S
C2156 C2158 1.419 . S
C2157 C2152 1.425 . S
C2157 C2154 1.409 . S
C2157 C2155 1.415 . S
C2158 H2148 0.930 . S
C2158 C2156 1.419 . S
C2158 C2159 1.362 . S
C2159 H2149 0.930 . S
C2159 C2152 1.409 . S
C2159 C2158 1.362 . S
H2160 C2166 0.930 . S
H2161 C2169 0.930 . S
H2162 C2170 0.930 . S
H2163 C2171 0.930 . S
H2164 C2174 0.930 . S
H2165 C2175 0.930 . S
C2166 H2160 0.930 . S
C2166 C2167 1.355 . S
C2166 C2168 1.415 . S
C2167 C2166 1.355 . S
C2167 C2169 1.419 . S
C2168 C2166 1.415 . S
C2168 C2173 1.425 . S
C2168 C2175 1.409 . S
C2169 H2161 0.930 . S
C2169 C2167 1.419 . S
C2169 C2170 1.362 . S
C2170 H2162 0.930 . S
C2170 C2169 1.362 . S
C2170 C2173 1.409 . S
C2171 H2163 0.930 . S
C2171 C2172 1.355 . S
C2171 C2173 1.415 . S
C2172 C2171 1.355 . S
C2172 C2174 1.419 . S
C2173 C2168 1.425 . S
C2173 C2170 1.409 . S
C2173 C2171 1.415 . S
C2174 H2164 0.930 . S
C2174 C2172 1.419 . S
C2174 C2175 1.362 . S
C2175 H2165 0.930 . S
C2175 C2168 1.409 . S
C2175 C2174 1.362 . S
H2176 C2182 0.930 . S
H2177 C2185 0.930 . S
H2178 C2186 0.930 . S
H2179 C2187 0.930 . S
H2180 C2190 0.930 . S
H2181 C2191 0.930 . S
C2182 H2176 0.930 . S
C2182 C2183 1.355 . S
C2182 C2184 1.415 . S
C2183 C2182 1.355 . S
C2183 C2185 1.419 . S
C2184 C2182 1.415 . S
C2184 C2189 1.425 . S
C2184 C2191 1.409 . S
C2185 H2177 0.930 . S
C2185 C2183 1.419 . S
C2185 C2186 1.362 . S
C2186 H2178 0.930 . S
C2186 C2185 1.362 . S
C2186 C2189 1.409 . S
C2187 H2179 0.930 . S
C2187 C2188 1.355 . S
C2187 C2189 1.415 . S
C2188 C2187 1.355 . S
C2188 C2190 1.419 . S
C2189 C2184 1.425 . S
C2189 C2186 1.409 . S
C2189 C2187 1.415 . S
C2190 H2180 0.930 . S
C2190 C2188 1.419 . S
C2190 C2191 1.362 . S
C2191 H2181 0.930 . S
C2191 C2184 1.409 . S
C2191 C2190 1.362 . S
H2192 C2198 0.930 . S
H2193 C2201 0.930 . S
H2194 C2202 0.930 . S
H2195 C2203 0.930 . S
H2196 C2206 0.930 . S
H2197 C2207 0.930 . S
C2198 H2192 0.930 . S
C2198 C2199 1.355 . S
C2198 C2200 1.415 . S
C2199 C2198 1.355 . S
C2199 C2201 1.419 . S
C2200 C2198 1.415 . S
C2200 C2205 1.425 . S
C2200 C2207 1.409 . S
C2201 H2193 0.930 . S
C2201 C2199 1.419 . S
C2201 C2202 1.362 . S
C2202 H2194 0.930 . S
C2202 C2201 1.362 . S
C2202 C2205 1.409 . S
C2203 H2195 0.930 . S
C2203 C2204 1.355 . S
C2203 C2205 1.415 . S
C2204 C2203 1.355 . S
C2204 C2206 1.419 . S
C2205 C2200 1.425 . S
C2205 C2202 1.409 . S
C2205 C2203 1.415 . S
C2206 H2196 0.930 . S
C2206 C2204 1.419 . S
C2206 C2207 1.362 . S
C2207 H2197 0.930 . S
C2207 C2200 1.409 . S
C2207 C2206 1.362 . S
H2208 C2214 0.930 . S
H2209 C2217 0.930 . S
H2210 C2218 0.930 . S
H2211 C2219 0.930 . S
H2212 C2222 0.930 . S
H2213 C2223 0.930 . S
C2214 H2208 0.930 . S
C2214 C2215 1.355 . S
C2214 C2216 1.415 . S
C2215 C2214 1.355 . S
C2215 C2217 1.419 . S
C2216 C2214 1.415 . S
C2216 C2221 1.425 . S
C2216 C2223 1.409 . S
C2217 H2209 0.930 . S
C2217 C2215 1.419 . S
C2217 C2218 1.362 . S
C2218 H2210 0.930 . S
C2218 C2217 1.362 . S
C2218 C2221 1.409 . S
C2219 H2211 0.930 . S
C2219 C2220 1.355 . S
C2219 C2221 1.415 . S
C2220 C2219 1.355 . S
C2220 C2222 1.419 . S
C2221 C2216 1.425 . S
C2221 C2218 1.409 . S
C2221 C2219 1.415 . S
C2222 H2212 0.930 . S
C2222 C2220 1.419 . S
C2222 C2223 1.362 . S
C2223 H2213 0.930 . S
C2223 C2216 1.409 . S
C2223 C2222 1.362 . S
H2224 C2230 0.930 . S
H2225 C2233 0.930 . S
H2226 C2234 0.930 . S
H2227 C2235 0.930 . S
H2228 C2238 0.930 . S
H2229 C2239 0.930 . S
C2230 H2224 0.930 . S
C2230 C2231 1.355 . S
C2230 C2232 1.415 . S
C2231 C2230 1.355 . S
C2231 C2233 1.419 . S
C2232 C2230 1.415 . S
C2232 C2237 1.425 . S
C2232 C2239 1.409 . S
C2233 H2225 0.930 . S
C2233 C2231 1.419 . S
C2233 C2234 1.362 . S
C2234 H2226 0.930 . S
C2234 C2233 1.362 . S
C2234 C2237 1.409 . S
C2235 H2227 0.930 . S
C2235 C2236 1.355 . S
C2235 C2237 1.415 . S
C2236 C2235 1.355 . S
C2236 C2238 1.419 . S
C2237 C2232 1.425 . S
C2237 C2234 1.409 . S
C2237 C2235 1.415 . S
C2238 H2228 0.930 . S
C2238 C2236 1.419 . S
C2238 C2239 1.362 . S
C2239 H2229 0.930 . S
C2239 C2232 1.409 . S
C2239 C2238 1.362 . S
H2240 C2246 0.930 . S
H2241 C2249 0.930 . S
H2242 C2250 0.930 . S
H2243 C2251 0.930 . S
H2244 C2254 0.930 . S
H2245 C2255 0.930 . S
C2246 H2240 0.930 . S
C2246 C2247 1.355 . S
C2246 C2248 1.415 . S
C2247 C2246 1.355 . S
C2247 C2249 1.419 . S
C2248 C2246 1.415 . S
C2248 C2253 1.425 . S
C2248 C2255 1.409 . S
C2249 H2241 0.930 . S
C2249 C2247 1.419 . S
C2249 C2250 1.362 . S
C2250 H2242 0.930 . S
C2250 C2249 1.362 . S
C2250 C2253 1.409 . S
C2251 H2243 0.930 . S
C2251 C2252 1.355 . S
C2251 C2253 1.415 . S
C2252 C2251 1.355 . S
C2252 C2254 1.419 . S
C2253 C2248 1.425 . S
C2253 C2250 1.409 . S
C2253 C2251 1.415 . S
C2254 H2244 0.930 . S
C2254 C2252 1.419 . S
C2254 C2255 1.362 . S
C2255 H2245 0.930 . S
C2255 C2248 1.409 . S
C2255 C2254 1.362 . S
H2256 C2262 0.930 . S
H2257 C2265 0.930 . S
H2258 C2266 0.930 . S
H2259 C2267 0.930 . S
H2260 C2270 0.930 . S
H2261 C2271 0.930 . S
C2262 H2256 0.930 . S
C2262 C2263 1.355 . S
C2262 C2264 1.415 . S
C2263 C2262 1.355 . S
C2263 C2265 1.419 . S
C2264 C2262 1.415 . S
C2264 C2269 1.425 . S
C2264 C2271 1.409 . S
C2265 H2257 0.930 . S
C2265 C2263 1.419 . S
C2265 C2266 1.362 . S
C2266 H2258 0.930 . S
C2266 C2265 1.362 . S
C2266 C2269 1.409 . S
C2267 H2259 0.930 . S
C2267 C2268 1.355 . S
C2267 C2269 1.415 . S
C2268 C2267 1.355 . S
C2268 C2270 1.419 . S
C2269 C2264 1.425 . S
C2269 C2266 1.409 . S
C2269 C2267 1.415 . S
C2270 H2260 0.930 . S
C2270 C2268 1.419 . S
C2270 C2271 1.362 . S
C2271 H2261 0.930 . S
C2271 C2264 1.409 . S
C2271 C2270 1.362 . S
H2272 C2278 0.930 . S
H2273 C2281 0.930 . S
H2274 C2282 0.930 . S
H2275 C2283 0.930 . S
H2276 C2286 0.930 . S
H2277 C2287 0.930 . S
C2278 H2272 0.930 . S
C2278 C2279 1.355 . S
C2278 C2280 1.415 . S
C2279 C2278 1.355 . S
C2279 C2281 1.419 . S
C2280 C2278 1.415 . S
C2280 C2285 1.425 . S
C2280 C2287 1.409 . S
C2281 H2273 0.930 . S
C2281 C2279 1.419 . S
C2281 C2282 1.362 . S
C2282 H2274 0.930 . S
C2282 C2281 1.362 . S
C2282 C2285 1.409 . S
C2283 H2275 0.930 . S
C2283 C2284 1.355 . S
C2283 C2285 1.415 . S
C2284 C2283 1.355 . S
C2284 C2286 1.419 . S
C2285 C2280 1.425 . S
C2285 C2282 1.409 . S
C2285 C2283 1.415 . S
C2286 H2276 0.930 . S
C2286 C2284 1.419 . S
C2286 C2287 1.362 . S
C2287 H2277 0.930 . S
C2287 C2280 1.409 . S
C2287 C2286 1.362 . S
H2288 C2294 0.930 . S
H2289 C2297 0.930 . S
H2290 C2298 0.930 . S
H2291 C2299 0.930 . S
H2292 C2302 0.930 . S
H2293 C2303 0.930 . S
C2294 H2288 0.930 . S
C2294 C2295 1.355 . S
C2294 C2296 1.415 . S
C2295 C2294 1.355 . S
C2295 C2297 1.419 . S
C2296 C2294 1.415 . S
C2296 C2301 1.425 . S
C2296 C2303 1.409 . S
C2297 H2289 0.930 . S
C2297 C2295 1.419 . S
C2297 C2298 1.362 . S
C2298 H2290 0.930 . S
C2298 C2297 1.362 . S
C2298 C2301 1.409 . S
C2299 H2291 0.930 . S
C2299 C2300 1.355 . S
C2299 C2301 1.415 . S
C2300 C2299 1.355 . S
C2300 C2302 1.419 . S
C2301 C2296 1.425 . S
C2301 C2298 1.409 . S
C2301 C2299 1.415 . S
C2302 H2292 0.930 . S
C2302 C2300 1.419 . S
C2302 C2303 1.362 . S
C2303 H2293 0.930 . S
C2303 C2296 1.409 . S
C2303 C2302 1.362 . S
H2304 C2310 0.930 . S
H2305 C2313 0.910 1_655 S
H2306 C2314 0.963 . S
H2307 C2315 0.930 . S
H2308 C2318 0.930 . S
H2309 C2319 0.930 . S
C2310 H2304 0.930 . S
C2310 C2311 1.355 1_554 S
C2310 C2312 1.415 . S
C2311 C2310 1.355 1_556 S
C2311 C2313 1.454 . S
C2312 C2310 1.415 . S
C2312 C2317 1.425 . S
C2312 C2319 1.409 . S
C2313 H2305 0.910 1_455 S
C2313 C2311 1.454 . S
C2313 C2314 1.338 1_455 S
C2314 H2306 0.963 . S
C2314 C2313 1.338 1_655 S
C2314 C2317 1.390 1_656 S
C2315 H2307 0.930 . S
C2315 C2316 1.355 . S
C2315 C2317 1.415 . S
C2316 C2315 1.355 . S
C2316 C2318 1.419 . S
C2317 C2312 1.425 . S
C2317 C2314 1.390 1_454 S
C2317 C2315 1.415 . S
C2318 H2308 0.930 . S
C2318 C2316 1.419 . S
C2318 C2319 1.362 . S
C2319 H2309 0.930 . S
C2319 C2312 1.409 . S
C2319 C2318 1.362 . S
H2320 C2326 0.930 . S
H2321 C2329 0.930 . S
H2322 C2330 0.930 . S
H2323 C2331 0.930 . S
H2324 C2334 0.930 . S
H2325 C2335 0.930 . S
C2326 H2320 0.930 . S
C2326 C2327 1.355 . S
C2326 C2328 1.415 . S
C2327 C2326 1.355 . S
C2327 C2329 1.419 . S
C2328 C2326 1.415 . S
C2328 C2333 1.425 . S
C2328 C2335 1.409 . S
C2329 H2321 0.930 . S
C2329 C2327 1.419 . S
C2329 C2330 1.362 . S
C2330 H2322 0.930 . S
C2330 C2329 1.362 . S
C2330 C2333 1.409 . S
C2331 H2323 0.930 . S
C2331 C2332 1.355 . S
C2331 C2333 1.415 . S
C2332 C2331 1.355 . S
C2332 C2334 1.419 . S
C2333 C2328 1.425 . S
C2333 C2330 1.409 . S
C2333 C2331 1.415 . S
C2334 H2324 0.930 . S
C2334 C2332 1.419 . S
C2334 C2335 1.362 . S
C2335 H2325 0.930 . S
C2335 C2328 1.409 . S
C2335 C2334 1.362 . S
H2336 C2342 0.930 . S
H2337 C2345 0.930 . S
H2338 C2346 0.930 . S
H2339 C2347 0.930 . S
H2340 C2350 0.930 . S
H2341 C2351 0.930 . S
C2342 H2336 0.930 . S
C2342 C2343 1.355 . S
C2342 C2344 1.415 . S
C2343 C2342 1.355 . S
C2343 C2345 1.419 . S
C2344 C2342 1.415 . S
C2344 C2349 1.425 . S
C2344 C2351 1.409 . S
C2345 H2337 0.930 . S
C2345 C2343 1.419 . S
C2345 C2346 1.362 . S
C2346 H2338 0.930 . S
C2346 C2345 1.362 . S
C2346 C2349 1.409 . S
C2347 H2339 0.930 . S
C2347 C2348 1.355 . S
C2347 C2349 1.415 . S
C2348 C2347 1.355 . S
C2348 C2350 1.419 . S
C2349 C2344 1.425 . S
C2349 C2346 1.409 . S
C2349 C2347 1.415 . S
C2350 H2340 0.930 . S
C2350 C2348 1.419 . S
C2350 C2351 1.362 . S
C2351 H2341 0.930 . S
C2351 C2344 1.409 . S
C2351 C2350 1.362 . S
H2352 C2358 0.930 . S
H2353 C2361 0.930 . S
H2354 C2362 0.930 . S
H2355 C2363 0.930 . S
H2356 C2366 0.930 . S
H2357 C2367 0.930 . S
C2358 H2352 0.930 . S
C2358 C2359 1.355 . S
C2358 C2360 1.415 . S
C2359 C2358 1.355 . S
C2359 C2361 1.419 . S
C2360 C2358 1.415 . S
C2360 C2365 1.425 . S
C2360 C2367 1.409 . S
C2361 H2353 0.930 . S
C2361 C2359 1.419 . S
C2361 C2362 1.362 . S
C2362 H2354 0.930 . S
C2362 C2361 1.362 . S
C2362 C2365 1.409 . S
C2363 H2355 0.930 . S
C2363 C2364 1.355 . S
C2363 C2365 1.415 . S
C2364 C2363 1.355 . S
C2364 C2366 1.419 . S
C2365 C2360 1.425 . S
C2365 C2362 1.409 . S
C2365 C2363 1.415 . S
C2366 H2356 0.930 . S
C2366 C2364 1.419 . S
C2366 C2367 1.362 . S
C2367 H2357 0.930 . S
C2367 C2360 1.409 . S
C2367 C2366 1.362 . S
H2368 C2374 0.930 . S
H2369 C2377 0.930 . S
H2370 C2378 0.930 . S
H2371 C2379 0.930 . S
H2372 C2382 0.930 . S
H2373 C2383 0.930 . S
C2374 H2368 0.930 . S
C2374 C2375 1.355 . S
C2374 C2376 1.415 . S
C2375 C2374 1.355 . S
C2375 C2377 1.419 . S
C2376 C2374 1.415 . S
C2376 C2381 1.425 . S
C2376 C2383 1.409 . S
C2377 H2369 0.930 . S
C2377 C2375 1.419 . S
C2377 C2378 1.362 . S
C2378 H2370 0.930 . S
C2378 C2377 1.362 . S
C2378 C2381 1.409 . S
C2379 H2371 0.930 . S
C2379 C2380 1.355 . S
C2379 C2381 1.415 . S
C2380 C2379 1.355 . S
C2380 C2382 1.419 . S
C2381 C2376 1.425 . S
C2381 C2378 1.409 . S
C2381 C2379 1.415 . S
C2382 H2372 0.930 . S
C2382 C2380 1.419 . S
C2382 C2383 1.362 . S
C2383 H2373 0.930 . S
C2383 C2376 1.409 . S
C2383 C2382 1.362 . S
H2384 C2390 0.930 . S
H2385 C2393 0.930 . S
H2386 C2394 0.930 . S
H2387 C2395 0.930 . S
H2388 C2398 0.930 . S
H2389 C2399 0.930 . S
C2390 H2384 0.930 . S
C2390 C2391 1.355 . S
C2390 C2392 1.415 . S
C2391 C2390 1.355 . S
C2391 C2393 1.419 . S
C2392 C2390 1.415 . S
C2392 C2397 1.425 . S
C2392 C2399 1.409 . S
C2393 H2385 0.930 . S
C2393 C2391 1.419 . S
C2393 C2394 1.362 . S
C2394 H2386 0.930 . S
C2394 C2393 1.362 . S
C2394 C2397 1.409 . S
C2395 H2387 0.930 . S
C2395 C2396 1.355 . S
C2395 C2397 1.415 . S
C2396 C2395 1.355 . S
C2396 C2398 1.419 . S
C2397 C2392 1.425 . S
C2397 C2394 1.409 . S
C2397 C2395 1.415 . S
C2398 H2388 0.930 . S
C2398 C2396 1.419 . S
C2398 C2399 1.362 . S
C2399 H2389 0.930 . S
C2399 C2392 1.409 . S
C2399 C2398 1.362 . S
H2400 C2406 0.930 . S
H2401 C2409 0.930 . S
H2402 C2410 0.930 . S
H2403 C2411 0.930 . S
H2404 C2414 0.930 . S
H2405 C2415 0.930 . S
C2406 H2400 0.930 . S
C2406 C2407 1.355 . S
C2406 C2408 1.415 . S
C2407 C2406 1.355 . S
C2407 C2409 1.419 . S
C2408 C2406 1.415 . S
C2408 C2413 1.425 . S
C2408 C2415 1.409 . S
C2409 H2401 0.930 . S
C2409 C2407 1.419 . S
C2409 C2410 1.362 . S
C2410 H2402 0.930 . S
C2410 C2409 1.362 . S
C2410 C2413 1.409 . S
C2411 H2403 0.930 . S
C2411 C2412 1.355 . S
C2411 C2413 1.415 . S
C2412 C2411 1.355 . S
C2412 C2414 1.419 . S
C2413 C2408 1.425 . S
C2413 C2410 1.409 . S
C2413 C2411 1.415 . S
C2414 H2404 0.930 . S
C2414 C2412 1.419 . S
C2414 C2415 1.362 . S
C2415 H2405 0.930 . S
C2415 C2408 1.409 . S
C2415 C2414 1.362 . S
H2416 C2422 0.930 . S
H2417 C2425 0.930 . S
H2418 C2426 0.930 . S
H2419 C2427 0.930 . S
H2420 C2430 0.930 . S
H2421 C2431 0.930 . S
C2422 H2416 0.930 . S
C2422 C2423 1.355 . S
C2422 C2424 1.415 . S
C2423 C2422 1.355 . S
C2423 C2425 1.419 . S
C2424 C2422 1.415 . S
C2424 C2429 1.425 . S
C2424 C2431 1.409 . S
C2425 H2417 0.930 . S
C2425 C2423 1.419 . S
C2425 C2426 1.362 . S
C2426 H2418 0.930 . S
C2426 C2425 1.362 . S
C2426 C2429 1.409 . S
C2427 H2419 0.930 . S
C2427 C2428 1.355 . S
C2427 C2429 1.415 1_556 S
C2428 C2427 1.355 . S
C2428 C2430 1.419 . S
C2429 C2424 1.425 . S
C2429 C2426 1.409 . S
C2429 C2427 1.415 1_554 S
C2430 H2420 0.930 . S
C2430 C2428 1.419 . S
C2430 C2431 1.362 1_556 S
C2431 H2421 0.930 . S
C2431 C2424 1.409 . S
C2431 C2430 1.362 1_554 S
H2432 C2438 0.930 . S
H2433 C2441 0.930 . S
H2434 C2442 0.930 . S
H2435 C2443 0.930 . S
H2436 C2446 0.930 . S
H2437 C2447 0.930 . S
C2438 H2432 0.930 . S
C2438 C2439 1.355 . S
C2438 C2440 1.415 . S
C2439 C2438 1.355 . S
C2439 C2441 1.419 . S
C2440 C2438 1.415 . S
C2440 C2445 1.425 . S
C2440 C2447 1.409 . S
C2441 H2433 0.930 . S
C2441 C2439 1.419 . S
C2441 C2442 1.362 . S
C2442 H2434 0.930 . S
C2442 C2441 1.362 . S
C2442 C2445 1.409 . S
C2443 H2435 0.930 . S
C2443 C2444 1.355 . S
C2443 C2445 1.415 . S
C2444 C2443 1.355 . S
C2444 C2446 1.419 . S
C2445 C2440 1.425 . S
C2445 C2442 1.409 . S
C2445 C2443 1.415 . S
C2446 H2436 0.930 . S
C2446 C2444 1.419 . S
C2446 C2447 1.362 . S
C2447 H2437 0.930 . S
C2447 C2440 1.409 . S
C2447 C2446 1.362 . S
H2448 C2454 0.930 . S
H2449 C2457 0.930 . S
H2450 C2458 0.930 . S
H2451 C2459 0.930 . S
H2452 C2462 0.930 . S
H2453 C2463 0.930 . S
C2454 H2448 0.930 . S
C2454 C2455 1.355 . S
C2454 C2456 1.415 . S
C2455 C2454 1.355 . S
C2455 C2457 1.419 . S
C2456 C2454 1.415 . S
C2456 C2461 1.425 . S
C2456 C2463 1.409 . S
C2457 H2449 0.930 . S
C2457 C2455 1.419 . S
C2457 C2458 1.362 . S
C2458 H2450 0.930 . S
C2458 C2457 1.362 . S
C2458 C2461 1.409 . S
C2459 H2451 0.930 . S
C2459 C2460 1.355 . S
C2459 C2461 1.415 . S
C2460 C2459 1.355 . S
C2460 C2462 1.419 . S
C2461 C2456 1.425 . S
C2461 C2458 1.409 . S
C2461 C2459 1.415 . S
C2462 H2452 0.930 . S
C2462 C2460 1.419 . S
C2462 C2463 1.362 . S
C2463 H2453 0.930 . S
C2463 C2456 1.409 . S
C2463 C2462 1.362 . S
H2464 C2470 0.930 . S
H2465 C2473 0.930 . S
H2466 C2474 0.930 . S
H2467 C2475 0.930 . S
H2468 C2478 0.930 . S
H2469 C2479 0.930 . S
C2470 H2464 0.930 . S
C2470 C2471 1.355 . S
C2470 C2472 1.415 . S
C2471 C2470 1.355 . S
C2471 C2473 1.419 . S
C2472 C2470 1.415 . S
C2472 C2477 1.425 . S
C2472 C2479 1.409 . S
C2473 H2465 0.930 . S
C2473 C2471 1.419 . S
C2473 C2474 1.362 . S
C2474 H2466 0.930 . S
C2474 C2473 1.362 . S
C2474 C2477 1.409 . S
C2475 H2467 0.930 . S
C2475 C2476 1.355 . S
C2475 C2477 1.415 . S
C2476 C2475 1.355 . S
C2476 C2478 1.419 . S
C2477 C2472 1.425 . S
C2477 C2474 1.409 . S
C2477 C2475 1.415 . S
C2478 H2468 0.930 . S
C2478 C2476 1.419 . S
C2478 C2479 1.362 . S
C2479 H2469 0.930 . S
C2479 C2472 1.409 . S
C2479 C2478 1.362 . S
H2480 C2486 0.930 . S
H2481 C2489 0.930 . S
H2482 C2490 0.930 . S
H2483 C2491 0.930 . S
H2484 C2494 0.930 . S
H2485 C2495 0.930 . S
C2486 H2480 0.930 . S
C2486 C2487 1.355 . S
C2486 C2488 1.415 . S
C2487 C2486 1.355 . S
C2487 C2489 1.419 . S
C2488 C2486 1.415 . S
C2488 C2493 1.425 . S
C2488 C2495 1.409 . S
C2489 H2481 0.930 . S
C2489 C2487 1.419 . S
C2489 C2490 1.362 . S
C2490 H2482 0.930 . S
C2490 C2489 1.362 . S
C2490 C2493 1.409 . S
C2491 H2483 0.930 . S
C2491 C2492 1.355 . S
C2491 C2493 1.415 . S
C2492 C2491 1.355 . S
C2492 C2494 1.419 . S
C2493 C2488 1.425 . S
C2493 C2490 1.409 . S
C2493 C2491 1.415 . S
C2494 H2484 0.930 . S
C2494 C2492 1.419 . S
C2494 C2495 1.362 . S
C2495 H2485 0.930 . S
C2495 C2488 1.409 . S
C2495 C2494 1.362 . S
H2496 C2502 0.930 . S
H2497 C2505 0.930 . S
H2498 C2506 0.930 . S
H2499 C2507 0.930 . S
H2500 C2510 0.930 . S
H2501 C2511 0.930 . S
C2502 H2496 0.930 . S
C2502 C2503 1.355 . S
C2502 C2504 1.415 . S
C2503 C2502 1.355 . S
C2503 C2505 1.419 . S
C2504 C2502 1.415 . S
C2504 C2509 1.425 . S
C2504 C2511 1.409 . S
C2505 H2497 0.930 . S
C2505 C2503 1.419 . S
C2505 C2506 1.362 . S
C2506 H2498 0.930 . S
C2506 C2505 1.362 . S
C2506 C2509 1.409 . S
C2507 H2499 0.930 . S
C2507 C2508 1.355 . S
C2507 C2509 1.415 . S
C2508 C2507 1.355 . S
C2508 C2510 1.419 . S
C2509 C2504 1.425 . S
C2509 C2506 1.409 . S
C2509 C2507 1.415 . S
C2510 H2500 0.930 . S
C2510 C2508 1.419 . S
C2510 C2511 1.362 . S
C2511 H2501 0.930 . S
C2511 C2504 1.409 . S
C2511 C2510 1.362 . S
H2512 C2518 0.930 . S
H2513 C2521 0.930 . S
H2514 C2522 0.930 . S
H2515 C2523 0.930 . S
H2516 C2526 0.930 . S
H2517 C2527 0.930 . S
C2518 H2512 0.930 . S
C2518 C2519 1.355 . S
C2518 C2520 1.415 . S
C2519 C2518 1.355 . S
C2519 C2521 1.419 . S
C2520 C2518 1.415 . S
C2520 C2525 1.425 . S
C2520 C2527 1.409 . S
C2521 H2513 0.930 . S
C2521 C2519 1.419 . S
C2521 C2522 1.362 . S
C2522 H2514 0.930 . S
C2522 C2521 1.362 . S
C2522 C2525 1.409 . S
C2523 H2515 0.930 . S
C2523 C2524 1.355 . S
C2523 C2525 1.415 . S
C2524 C2523 1.355 . S
C2524 C2526 1.419 . S
C2525 C2520 1.425 . S
C2525 C2522 1.409 . S
C2525 C2523 1.415 . S
C2526 H2516 0.930 . S
C2526 C2524 1.419 . S
C2526 C2527 1.362 . S
C2527 H2517 0.930 . S
C2527 C2520 1.409 . S
C2527 C2526 1.362 . S
H2528 C2534 0.930 . S
H2529 C2537 0.930 . S
H2530 C2538 0.930 . S
H2531 C2539 0.930 . S
H2532 C2542 0.930 . S
H2533 C2543 0.930 . S
C2534 H2528 0.930 . S
C2534 C2535 1.355 . S
C2534 C2536 1.415 . S
C2535 C2534 1.355 . S
C2535 C2537 1.419 . S
C2536 C2534 1.415 . S
C2536 C2541 1.425 . S
C2536 C2543 1.409 . S
C2537 H2529 0.930 . S
C2537 C2535 1.419 . S
C2537 C2538 1.362 . S
C2538 H2530 0.930 . S
C2538 C2537 1.362 . S
C2538 C2541 1.409 . S
C2539 H2531 0.930 . S
C2539 C2540 1.355 . S
C2539 C2541 1.415 . S
C2540 C2539 1.355 . S
C2540 C2542 1.419 . S
C2541 C2536 1.425 . S
C2541 C2538 1.409 . S
C2541 C2539 1.415 . S
C2542 H2532 0.930 . S
C2542 C2540 1.419 . S
C2542 C2543 1.362 . S
C2543 H2533 0.930 . S
C2543 C2536 1.409 . S
C2543 C2542 1.362 . S
H2544 C2550 0.930 . S
H2545 C2553 0.930 . S
H2546 C2554 0.930 . S
H2547 C2555 0.930 . S
H2548 C2558 0.930 . S
H2549 C2559 0.930 . S
C2550 H2544 0.930 . S
C2550 C2551 1.355 . S
C2550 C2552 1.415 . S
C2551 C2550 1.355 . S
C2551 C2553 1.419 . S
C2552 C2550 1.415 . S
C2552 C2557 1.425 . S
C2552 C2559 1.409 . S
C2553 H2545 0.930 . S
C2553 C2551 1.419 . S
C2553 C2554 1.362 . S
C2554 H2546 0.930 . S
C2554 C2553 1.362 . S
C2554 C2557 1.409 . S
C2555 H2547 0.930 . S
C2555 C2556 1.355 . S
C2555 C2557 1.415 . S
C2556 C2555 1.355 . S
C2556 C2558 1.419 . S
C2557 C2552 1.425 . S
C2557 C2554 1.409 . S
C2557 C2555 1.415 . S
C2558 H2548 0.930 . S
C2558 C2556 1.419 . S
C2558 C2559 1.362 . S
C2559 H2549 0.930 . S
C2559 C2552 1.409 . S
C2559 C2558 1.362 . S
H2560 C2566 0.930 . S
H2561 C2569 0.930 . S
H2562 C2570 0.930 . S
H2563 C2571 0.930 . S
H2564 C2574 0.930 . S
H2565 C2575 0.930 . S
C2566 H2560 0.930 . S
C2566 C2567 1.355 . S
C2566 C2568 1.415 . S
C2567 C2566 1.355 . S
C2567 C2569 1.419 . S
C2568 C2566 1.415 . S
C2568 C2573 1.425 . S
C2568 C2575 1.409 . S
C2569 H2561 0.930 . S
C2569 C2567 1.419 . S
C2569 C2570 1.362 . S
C2570 H2562 0.930 . S
C2570 C2569 1.362 . S
C2570 C2573 1.409 . S
C2571 H2563 0.930 . S
C2571 C2572 1.355 . S
C2571 C2573 1.415 . S
C2572 C2571 1.355 . S
C2572 C2574 1.419 . S
C2573 C2568 1.425 . S
C2573 C2570 1.409 . S
C2573 C2571 1.415 . S
C2574 H2564 0.930 . S
C2574 C2572 1.419 . S
C2574 C2575 1.362 . S
C2575 H2565 0.930 . S
C2575 C2568 1.409 . S
C2575 C2574 1.362 . S
H2576 C2582 0.930 1_556 S
H2577 C2585 0.930 . S
H2578 C2586 0.930 . S
H2579 C2587 0.930 . S
H2580 C2590 0.930 . S
H2581 C2591 0.930 . S
C2582 H2576 0.930 1_554 S
C2582 C2583 1.355 . S
C2582 C2584 1.415 . S
C2583 C2582 1.355 . S
C2583 C2585 1.419 . S
C2584 C2582 1.415 . S
C2584 C2589 1.425 . S
C2584 C2591 1.409 . S
C2585 H2577 0.930 . S
C2585 C2583 1.419 . S
C2585 C2586 1.362 . S
C2586 H2578 0.930 . S
C2586 C2585 1.362 . S
C2586 C2589 1.409 . S
C2587 H2579 0.930 . S
C2587 C2588 1.355 . S
C2587 C2589 1.415 . S
C2588 C2587 1.355 . S
C2588 C2590 1.419 . S
C2589 C2584 1.425 . S
C2589 C2586 1.409 . S
C2589 C2587 1.415 . S
C2590 H2580 0.930 . S
C2590 C2588 1.419 . S
C2590 C2591 1.362 . S
C2591 H2581 0.930 . S
C2591 C2584 1.409 . S
C2591 C2590 1.362 . S
H2592 C2598 0.930 . S
H2593 C2601 0.930 . S
H2594 C2602 0.930 . S
H2595 C2603 0.930 . S
H2596 C2606 0.930 . S
H2597 C2607 0.930 . S
C2598 H2592 0.930 . S
C2598 C2599 1.355 . S
C2598 C2600 1.415 . S
C2599 C2598 1.355 . S
C2599 C2601 1.419 . S
C2600 C2598 1.415 . S
C2600 C2605 1.425 . S
C2600 C2607 1.409 . S
C2601 H2593 0.930 . S
C2601 C2599 1.419 . S
C2601 C2602 1.362 . S
C2602 H2594 0.930 . S
C2602 C2601 1.362 . S
C2602 C2605 1.409 . S
C2603 H2595 0.930 . S
C2603 C2604 1.355 . S
C2603 C2605 1.415 . S
C2604 C2603 1.355 . S
C2604 C2606 1.419 . S
C2605 C2600 1.425 . S
C2605 C2602 1.409 . S
C2605 C2603 1.415 . S
C2606 H2596 0.930 . S
C2606 C2604 1.419 . S
C2606 C2607 1.362 . S
C2607 H2597 0.930 . S
C2607 C2600 1.409 . S
C2607 C2606 1.362 . S
H2608 C2614 0.930 . S
H2609 C2617 0.930 . S
H2610 C2618 0.930 . S
H2611 C2619 0.930 . S
H2612 C2622 0.930 . S
H2613 C2623 0.930 . S
C2614 H2608 0.930 . S
C2614 C2615 1.355 . S
C2614 C2616 1.415 . S
C2615 C2614 1.355 . S
C2615 C2617 1.419 . S
C2616 C2614 1.415 . S
C2616 C2621 1.425 . S
C2616 C2623 1.409 . S
C2617 H2609 0.930 . S
C2617 C2615 1.419 . S
C2617 C2618 1.362 . S
C2618 H2610 0.930 . S
C2618 C2617 1.362 . S
C2618 C2621 1.409 . S
C2619 H2611 0.930 . S
C2619 C2620 1.355 . S
C2619 C2621 1.415 . S
C2620 C2619 1.355 . S
C2620 C2622 1.419 . S
C2621 C2616 1.425 . S
C2621 C2618 1.409 . S
C2621 C2619 1.415 . S
C2622 H2612 0.930 . S
C2622 C2620 1.419 . S
C2622 C2623 1.362 . S
C2623 H2613 0.930 . S
C2623 C2616 1.409 . S
C2623 C2622 1.362 . S
H2624 C2630 0.930 . S
H2625 C2633 0.930 . S
H2626 C2634 0.930 . S
H2627 C2635 0.930 . S
H2628 C2638 0.930 . S
H2629 C2639 0.930 . S
C2630 H2624 0.930 . S
C2630 C2631 1.355 . S
C2630 C2632 1.415 . S
C2631 C2630 1.355 . S
C2631 C2633 1.419 . S
C2632 C2630 1.415 . S
C2632 C2637 1.425 . S
C2632 C2639 1.409 . S
C2633 H2625 0.930 . S
C2633 C2631 1.419 . S
C2633 C2634 1.362 . S
C2634 H2626 0.930 . S
C2634 C2633 1.362 . S
C2634 C2637 1.409 . S
C2635 H2627 0.930 . S
C2635 C2636 1.355 . S
C2635 C2637 1.415 . S
C2636 C2635 1.355 . S
C2636 C2638 1.419 . S
C2637 C2632 1.425 . S
C2637 C2634 1.409 . S
C2637 C2635 1.415 . S
C2638 H2628 0.930 . S
C2638 C2636 1.419 . S
C2638 C2639 1.362 . S
C2639 H2629 0.930 . S
C2639 C2632 1.409 . S
C2639 C2638 1.362 . S
H2640 C2646 0.930 . S
H2641 C2649 0.930 . S
H2642 C2650 0.930 . S
H2643 C2651 0.930 . S
H2644 C2654 0.930 . S
H2645 C2655 0.930 . S
C2646 H2640 0.930 . S
C2646 C2647 1.355 . S
C2646 C2648 1.415 . S
C2647 C2646 1.355 . S
C2647 C2649 1.419 . S
C2648 C2646 1.415 . S
C2648 C2653 1.425 . S
C2648 C2655 1.409 . S
C2649 H2641 0.930 . S
C2649 C2647 1.419 . S
C2649 C2650 1.362 . S
C2650 H2642 0.930 . S
C2650 C2649 1.362 . S
C2650 C2653 1.409 . S
C2651 H2643 0.930 . S
C2651 C2652 1.355 . S
C2651 C2653 1.415 . S
C2652 C2651 1.355 . S
C2652 C2654 1.419 . S
C2653 C2648 1.425 . S
C2653 C2650 1.409 . S
C2653 C2651 1.415 . S
C2654 H2644 0.930 . S
C2654 C2652 1.419 . S
C2654 C2655 1.362 . S
C2655 H2645 0.930 . S
C2655 C2648 1.409 . S
C2655 C2654 1.362 . S
H2656 C2662 0.930 . S
H2657 C2665 0.930 . S
H2658 C2666 0.930 . S
H2659 C2667 0.930 . S
H2660 C2670 0.930 . S
H2661 C2671 0.930 . S
C2662 H2656 0.930 . S
C2662 C2663 1.355 . S
C2662 C2664 1.415 . S
C2663 C2662 1.355 . S
C2663 C2665 1.419 . S
C2664 C2662 1.415 . S
C2664 C2669 1.425 . S
C2664 C2671 1.409 . S
C2665 H2657 0.930 . S
C2665 C2663 1.419 . S
C2665 C2666 1.362 . S
C2666 H2658 0.930 . S
C2666 C2665 1.362 . S
C2666 C2669 1.409 . S
C2667 H2659 0.930 . S
C2667 C2668 1.355 . S
C2667 C2669 1.415 . S
C2668 C2667 1.355 . S
C2668 C2670 1.419 . S
C2669 C2664 1.425 . S
C2669 C2666 1.409 . S
C2669 C2667 1.415 . S
C2670 H2660 0.930 . S
C2670 C2668 1.419 . S
C2670 C2671 1.362 . S
C2671 H2661 0.930 . S
C2671 C2664 1.409 . S
C2671 C2670 1.362 . S
H2672 C2678 0.930 . S
H2673 C2681 0.930 . S
H2674 C2682 0.930 . S
H2675 C2683 0.930 . S
H2676 C2686 0.930 . S
H2677 C2687 0.930 . S
C2678 H2672 0.930 . S
C2678 C2679 1.355 . S
C2678 C2680 1.415 . S
C2679 C2678 1.355 . S
C2679 C2681 1.419 . S
C2680 C2678 1.415 . S
C2680 C2685 1.425 . S
C2680 C2687 1.409 . S
C2681 H2673 0.930 . S
C2681 C2679 1.419 . S
C2681 C2682 1.362 . S
C2682 H2674 0.930 . S
C2682 C2681 1.362 . S
C2682 C2685 1.409 . S
C2683 H2675 0.930 . S
C2683 C2684 1.355 . S
C2683 C2685 1.415 . S
C2684 C2683 1.355 . S
C2684 C2686 1.419 . S
C2685 C2680 1.425 . S
C2685 C2682 1.409 . S
C2685 C2683 1.415 . S
C2686 H2676 0.930 . S
C2686 C2684 1.419 . S
C2686 C2687 1.362 . S
C2687 H2677 0.930 . S
C2687 C2680 1.409 . S
C2687 C2686 1.362 . S
H2688 C2694 0.930 . S
H2689 C2697 0.930 . S
H2690 C2698 0.930 . S
H2691 C2699 0.930 . S
H2692 C2702 0.930 . S
H2693 C2703 0.930 . S
C2694 H2688 0.930 . S
C2694 C2695 1.355 . S
C2694 C2696 1.415 . S
C2695 C2694 1.355 . S
C2695 C2697 1.419 . S
C2696 C2694 1.415 . S
C2696 C2701 1.425 . S
C2696 C2703 1.409 . S
C2697 H2689 0.930 . S
C2697 C2695 1.419 . S
C2697 C2698 1.362 . S
C2698 H2690 0.930 . S
C2698 C2697 1.362 . S
C2698 C2701 1.409 . S
C2699 H2691 0.930 . S
C2699 C2700 1.355 . S
C2699 C2701 1.415 . S
C2700 C2699 1.355 . S
C2700 C2702 1.419 . S
C2701 C2696 1.425 . S
C2701 C2698 1.409 . S
C2701 C2699 1.415 . S
C2702 H2692 0.930 . S
C2702 C2700 1.419 . S
C2702 C2703 1.362 . S
C2703 H2693 0.930 . S
C2703 C2696 1.409 . S
C2703 C2702 1.362 . S
H2704 C2710 0.930 . S
H2705 C2713 0.930 . S
H2706 C2714 0.930 . S
H2707 C2715 0.930 . S
H2708 C2718 0.930 . S
H2709 C2719 0.930 . S
C2710 H2704 0.930 . S
C2710 C2711 1.355 . S
C2710 C2712 1.415 . S
C2711 C2710 1.355 . S
C2711 C2713 1.419 . S
C2712 C2710 1.415 . S
C2712 C2717 1.425 . S
C2712 C2719 1.409 . S
C2713 H2705 0.930 . S
C2713 C2711 1.419 . S
C2713 C2714 1.362 . S
C2714 H2706 0.930 . S
C2714 C2713 1.362 . S
C2714 C2717 1.409 . S
C2715 H2707 0.930 . S
C2715 C2716 1.355 . S
C2715 C2717 1.415 . S
C2716 C2715 1.355 . S
C2716 C2718 1.419 . S
C2717 C2712 1.425 . S
C2717 C2714 1.409 . S
C2717 C2715 1.415 . S
C2718 H2708 0.930 . S
C2718 C2716 1.419 . S
C2718 C2719 1.362 . S
C2719 H2709 0.930 . S
C2719 C2712 1.409 . S
C2719 C2718 1.362 . S
H2720 C2726 0.930 . S
H2721 C2729 0.930 . S
H2722 C2730 0.930 . S
H2723 C2731 0.930 . S
H2724 C2734 0.930 . S
H2725 C2735 0.930 . S
C2726 H2720 0.930 . S
C2726 C2727 1.355 . S
C2726 C2728 1.415 . S
C2727 C2726 1.355 . S
C2727 C2729 1.419 . S
C2728 C2726 1.415 . S
C2728 C2733 1.425 . S
C2728 C2735 1.409 . S
C2729 H2721 0.930 . S
C2729 C2727 1.419 . S
C2729 C2730 1.362 . S
C2730 H2722 0.930 . S
C2730 C2729 1.362 . S
C2730 C2733 1.409 . S
C2731 H2723 0.930 . S
C2731 C2732 1.355 . S
C2731 C2733 1.415 . S
C2732 C2731 1.355 . S
C2732 C2734 1.419 . S
C2733 C2728 1.425 . S
C2733 C2730 1.409 . S
C2733 C2731 1.415 . S
C2734 H2724 0.930 . S
C2734 C2732 1.419 . S
C2734 C2735 1.362 . S
C2735 H2725 0.930 . S
C2735 C2728 1.409 . S
C2735 C2734 1.362 . S
H2736 C2742 0.930 . S
H2737 C2745 0.930 . S
H2738 C2746 0.930 . S
H2739 C2747 0.930 . S
H2740 C2750 0.930 . S
H2741 C2751 0.930 . S
C2742 H2736 0.930 . S
C2742 C2743 1.355 . S
C2742 C2744 1.415 . S
C2743 C2742 1.355 . S
C2743 C2745 1.419 . S
C2744 C2742 1.415 . S
C2744 C2749 1.425 . S
C2744 C2751 1.409 . S
C2745 H2737 0.930 . S
C2745 C2743 1.419 . S
C2745 C2746 1.362 . S
C2746 H2738 0.930 . S
C2746 C2745 1.362 . S
C2746 C2749 1.409 . S
C2747 H2739 0.930 . S
C2747 C2748 1.355 . S
C2747 C2749 1.415 . S
C2748 C2747 1.355 . S
C2748 C2750 1.419 . S
C2749 C2744 1.425 . S
C2749 C2746 1.409 . S
C2749 C2747 1.415 . S
C2750 H2740 0.930 . S
C2750 C2748 1.419 . S
C2750 C2751 1.362 . S
C2751 H2741 0.930 . S
C2751 C2744 1.409 . S
C2751 C2750 1.362 . S
H2752 C2758 0.930 1_655 S
H2753 C2761 0.930 . S
H2754 C2762 0.930 . S
H2755 C2763 0.930 . S
H2756 C2766 0.930 . S
H2757 C2767 0.930 1_655 S
C2758 H2752 0.930 1_455 S
C2758 C2759 1.355 . S
C2758 C2760 1.415 . S
C2759 C2758 1.355 . S
C2759 C2761 1.419 . S
C2760 C2758 1.415 . S
C2760 C2765 1.425 . S
C2760 C2767 1.409 . S
C2761 H2753 0.930 . S
C2761 C2759 1.419 . S
C2761 C2762 1.362 . S
C2762 H2754 0.930 . S
C2762 C2761 1.362 . S
C2762 C2765 1.409 . S
C2763 H2755 0.930 . S
C2763 C2764 1.355 . S
C2763 C2765 1.415 . S
C2764 C2763 1.355 . S
C2764 C2766 1.419 . S
C2765 C2760 1.425 . S
C2765 C2762 1.409 . S
C2765 C2763 1.415 . S
C2766 H2756 0.930 . S
C2766 C2764 1.419 . S
C2766 C2767 1.362 . S
C2767 H2757 0.930 1_455 S
C2767 C2760 1.409 . S
C2767 C2766 1.362 . S
H2768 C2774 0.930 . S
H2769 C2777 0.930 . S
H2770 C2778 0.930 . S
H2771 C2779 0.930 . S
H2772 C2782 0.930 . S
H2773 C2783 0.930 . S
C2774 H2768 0.930 . S
C2774 C2775 1.355 . S
C2774 C2776 1.415 . S
C2775 C2774 1.355 . S
C2775 C2777 1.419 . S
C2776 C2774 1.415 . S
C2776 C2781 1.425 . S
C2776 C2783 1.409 . S
C2777 H2769 0.930 . S
C2777 C2775 1.419 . S
C2777 C2778 1.362 . S
C2778 H2770 0.930 . S
C2778 C2777 1.362 . S
C2778 C2781 1.409 . S
C2779 H2771 0.930 . S
C2779 C2780 1.355 . S
C2779 C2781 1.415 . S
C2780 C2779 1.355 . S
C2780 C2782 1.419 . S
C2781 C2776 1.425 . S
C2781 C2778 1.409 . S
C2781 C2779 1.415 . S
C2782 H2772 0.930 . S
C2782 C2780 1.419 . S
C2782 C2783 1.362 . S
C2783 H2773 0.930 . S
C2783 C2776 1.409 . S
C2783 C2782 1.362 . S
H2784 C2790 0.930 . S
H2785 C2793 0.930 . S
H2786 C2794 0.930 . S
H2787 C2795 0.930 . S
H2788 C2798 0.930 . S
H2789 C2799 0.930 . S
C2790 H2784 0.930 . S
C2790 C2791 1.355 . S
C2790 C2792 1.415 . S
C2791 C2790 1.355 . S
C2791 C2793 1.419 . S
C2792 C2790 1.415 . S
C2792 C2797 1.425 . S
C2792 C2799 1.409 . S
C2793 H2785 0.930 . S
C2793 C2791 1.419 . S
C2793 C2794 1.362 . S
C2794 H2786 0.930 . S
C2794 C2793 1.362 . S
C2794 C2797 1.409 . S
C2795 H2787 0.930 . S
C2795 C2796 1.355 . S
C2795 C2797 1.415 . S
C2796 C2795 1.355 . S
C2796 C2798 1.419 . S
C2797 C2792 1.425 . S
C2797 C2794 1.409 . S
C2797 C2795 1.415 . S
C2798 H2788 0.930 . S
C2798 C2796 1.419 . S
C2798 C2799 1.362 . S
C2799 H2789 0.930 . S
C2799 C2792 1.409 . S
C2799 C2798 1.362 . S
H2800 C2806 0.930 . S
H2801 C2809 0.930 . S
H2802 C2810 0.930 . S
H2803 C2811 0.930 . S
H2804 C2814 0.930 . S
H2805 C2815 0.930 . S
C2806 H2800 0.930 . S
C2806 C2807 1.355 . S
C2806 C2808 1.415 . S
C2807 C2806 1.355 . S
C2807 C2809 1.419 . S
C2808 C2806 1.415 . S
C2808 C2813 1.425 . S
C2808 C2815 1.409 . S
C2809 H2801 0.930 . S
C2809 C2807 1.419 . S
C2809 C2810 1.362 . S
C2810 H2802 0.930 . S
C2810 C2809 1.362 . S
C2810 C2813 1.409 . S
C2811 H2803 0.930 . S
C2811 C2812 1.355 . S
C2811 C2813 1.415 . S
C2812 C2811 1.355 . S
C2812 C2814 1.419 . S
C2813 C2808 1.425 . S
C2813 C2810 1.409 . S
C2813 C2811 1.415 . S
C2814 H2804 0.930 . S
C2814 C2812 1.419 . S
C2814 C2815 1.362 . S
C2815 H2805 0.930 . S
C2815 C2808 1.409 . S
C2815 C2814 1.362 . S
H2816 C2822 0.930 . S
H2817 C2825 0.930 . S
H2818 C2826 0.930 . S
H2819 C2827 0.930 . S
H2820 C2830 0.930 . S
H2821 C2831 0.930 . S
C2822 H2816 0.930 . S
C2822 C2823 1.355 . S
C2822 C2824 1.415 . S
C2823 C2822 1.355 . S
C2823 C2825 1.419 . S
C2824 C2822 1.415 . S
C2824 C2829 1.425 . S
C2824 C2831 1.409 1_655 S
C2825 H2817 0.930 . S
C2825 C2823 1.419 . S
C2825 C2826 1.362 . S
C2826 H2818 0.930 . S
C2826 C2825 1.362 . S
C2826 C2829 1.409 . S
C2827 H2819 0.930 . S
C2827 C2828 1.355 1_655 S
C2827 C2829 1.415 . S
C2828 C2827 1.355 1_455 S
C2828 C2830 1.419 . S
C2829 C2824 1.425 . S
C2829 C2826 1.409 . S
C2829 C2827 1.415 . S
C2830 H2820 0.930 . S
C2830 C2828 1.419 . S
C2830 C2831 1.362 . S
C2831 H2821 0.930 . S
C2831 C2824 1.409 1_455 S
C2831 C2830 1.362 . S
H2832 C2838 0.930 . S
H2833 C2841 0.930 . S
H2834 C2842 0.930 . S
H2835 C2843 0.930 . S
H2836 C2846 0.930 . S
H2837 C2847 0.930 . S
C2838 H2832 0.930 . S
C2838 C2839 1.355 . S
C2838 C2840 1.415 . S
C2839 C2838 1.355 . S
C2839 C2841 1.419 . S
C2840 C2838 1.415 . S
C2840 C2845 1.425 . S
C2840 C2847 1.409 . S
C2841 H2833 0.930 . S
C2841 C2839 1.419 . S
C2841 C2842 1.362 . S
C2842 H2834 0.930 . S
C2842 C2841 1.362 . S
C2842 C2845 1.409 . S
C2843 H2835 0.930 . S
C2843 C2844 1.355 . S
C2843 C2845 1.415 . S
C2844 C2843 1.355 . S
C2844 C2846 1.419 . S
C2845 C2840 1.425 . S
C2845 C2842 1.409 . S
C2845 C2843 1.415 . S
C2846 H2836 0.930 . S
C2846 C2844 1.419 . S
C2846 C2847 1.362 . S
C2847 H2837 0.930 . S
C2847 C2840 1.409 . S
C2847 C2846 1.362 . S
H2848 C2854 0.930 . S
H2849 C2857 0.930 . S
H2850 C2858 0.930 . S
H2851 C2859 0.930 . S
H2852 C2862 0.930 . S
H2853 C2863 0.930 . S
C2854 H2848 0.930 . S
C2854 C2855 1.355 . S
C2854 C2856 1.415 . S
C2855 C2854 1.355 . S
C2855 C2857 1.419 . S
C2856 C2854 1.415 . S
C2856 C2861 1.425 . S
C2856 C2863 1.409 . S
C2857 H2849 0.930 . S
C2857 C2855 1.419 . S
C2857 C2858 1.362 . S
C2858 H2850 0.930 . S
C2858 C2857 1.362 . S
C2858 C2861 1.409 . S
C2859 H2851 0.930 . S
C2859 C2860 1.355 . S
C2859 C2861 1.415 . S
C2860 C2859 1.355 . S
C2860 C2862 1.419 . S
C2861 C2856 1.425 . S
C2861 C2858 1.409 . S
C2861 C2859 1.415 . S
C2862 H2852 0.930 . S
C2862 C2860 1.419 . S
C2862 C2863 1.362 . S
C2863 H2853 0.930 . S
C2863 C2856 1.409 . S
C2863 C2862 1.362 . S
H2864 C2870 0.930 . S
H2865 C2873 0.930 . S
H2866 C2874 0.930 . S
H2867 C2875 0.930 . S
H2868 C2878 0.930 . S
H2869 C2879 0.930 . S
C2870 H2864 0.930 . S
C2870 C2871 1.355 . S
C2870 C2872 1.415 . S
C2871 C2870 1.355 . S
C2871 C2873 1.419 . S
C2872 C2870 1.415 . S
C2872 C2877 1.425 . S
C2872 C2879 1.409 . S
C2873 H2865 0.930 . S
C2873 C2871 1.419 . S
C2873 C2874 1.362 . S
C2874 H2866 0.930 . S
C2874 C2873 1.362 . S
C2874 C2877 1.409 . S
C2875 H2867 0.930 . S
C2875 C2876 1.355 . S
C2875 C2877 1.415 . S
C2876 C2875 1.355 . S
C2876 C2878 1.419 . S
C2877 C2872 1.425 . S
C2877 C2874 1.409 . S
C2877 C2875 1.415 . S
C2878 H2868 0.930 . S
C2878 C2876 1.419 . S
C2878 C2879 1.362 . S
C2879 H2869 0.930 . S
C2879 C2872 1.409 . S
C2879 C2878 1.362 . S
H2880 C2886 0.930 . S
H2881 C2889 0.930 . S
H2882 C2890 0.930 . S
H2883 C2891 0.930 . S
H2884 C2894 0.930 . S
H2885 C2895 0.930 1_455 S
C2886 H2880 0.930 . S
C2886 C2887 1.355 . S
C2886 C2888 1.415 . S
C2887 C2886 1.355 . S
C2887 C2889 1.419 . S
C2888 C2886 1.415 . S
C2888 C2893 1.425 . S
C2888 C2895 1.409 . S
C2889 H2881 0.930 . S
C2889 C2887 1.419 . S
C2889 C2890 1.362 . S
C2890 H2882 0.930 . S
C2890 C2889 1.362 . S
C2890 C2893 1.409 . S
C2891 H2883 0.930 . S
C2891 C2892 1.355 . S
C2891 C2893 1.415 . S
C2892 C2891 1.355 . S
C2892 C2894 1.419 1_655 S
C2893 C2888 1.425 . S
C2893 C2890 1.409 . S
C2893 C2891 1.415 . S
C2894 H2884 0.930 . S
C2894 C2892 1.419 1_455 S
C2894 C2895 1.362 1_455 S
C2895 H2885 0.930 1_655 S
C2895 C2888 1.409 . S
C2895 C2894 1.362 1_655 S
H2896 C2902 0.930 . S
H2897 C2905 0.930 . S
H2898 C2906 0.930 . S
H2899 C2907 0.930 . S
H2900 C2910 0.930 . S
H2901 C2911 0.930 . S
C2902 H2896 0.930 . S
C2902 C2903 1.355 . S
C2902 C2904 1.415 . S
C2903 C2902 1.355 . S
C2903 C2905 1.419 . S
C2904 C2902 1.415 . S
C2904 C2909 1.425 . S
C2904 C2911 1.409 . S
C2905 H2897 0.930 . S
C2905 C2903 1.419 . S
C2905 C2906 1.362 . S
C2906 H2898 0.930 . S
C2906 C2905 1.362 . S
C2906 C2909 1.409 . S
C2907 H2899 0.930 . S
C2907 C2908 1.355 . S
C2907 C2909 1.415 . S
C2908 C2907 1.355 . S
C2908 C2910 1.419 . S
C2909 C2904 1.425 . S
C2909 C2906 1.409 . S
C2909 C2907 1.415 . S
C2910 H2900 0.930 . S
C2910 C2908 1.419 . S
C2910 C2911 1.362 . S
C2911 H2901 0.930 . S
C2911 C2904 1.409 . S
C2911 C2910 1.362 . S
H2912 C2918 0.930 . S
H2913 C2921 0.930 . S
H2914 C2922 0.930 . S
H2915 C2923 0.930 . S
H2916 C2926 0.930 . S
H2917 C2927 0.930 . S
C2918 H2912 0.930 . S
C2918 C2919 1.355 . S
C2918 C2920 1.415 . S
C2919 C2918 1.355 . S
C2919 C2921 1.419 . S
C2920 C2918 1.415 . S
C2920 C2925 1.425 . S
C2920 C2927 1.409 . S
C2921 H2913 0.930 . S
C2921 C2919 1.419 . S
C2921 C2922 1.362 . S
C2922 H2914 0.930 . S
C2922 C2921 1.362 . S
C2922 C2925 1.409 . S
C2923 H2915 0.930 . S
C2923 C2924 1.355 . S
C2923 C2925 1.415 . S
C2924 C2923 1.355 . S
C2924 C2926 1.419 . S
C2925 C2920 1.425 . S
C2925 C2922 1.409 . S
C2925 C2923 1.415 . S
C2926 H2916 0.930 . S
C2926 C2924 1.419 . S
C2926 C2927 1.362 . S
C2927 H2917 0.930 . S
C2927 C2920 1.409 . S
C2927 C2926 1.362 . S
H2928 C2934 0.930 . S
H2929 C2937 0.930 . S
H2930 C2938 0.930 . S
H2931 C2939 0.930 . S
H2932 C2942 0.930 . S
H2933 C2943 0.930 1_545 S
C2934 H2928 0.930 . S
C2934 C2935 1.355 . S
C2934 C2936 1.415 . S
C2935 C2934 1.355 . S
C2935 C2937 1.419 . S
C2936 C2934 1.415 . S
C2936 C2941 1.425 . S
C2936 C2943 1.409 . S
C2937 H2929 0.930 . S
C2937 C2935 1.419 . S
C2937 C2938 1.362 . S
C2938 H2930 0.930 . S
C2938 C2937 1.362 . S
C2938 C2941 1.409 . S
C2939 H2931 0.930 . S
C2939 C2940 1.355 . S
C2939 C2941 1.415 . S
C2940 C2939 1.355 . S
C2940 C2942 1.419 1_565 S
C2941 C2936 1.425 . S
C2941 C2938 1.409 . S
C2941 C2939 1.415 . S
C2942 H2932 0.930 . S
C2942 C2940 1.419 1_545 S
C2942 C2943 1.362 1_545 S
C2943 H2933 0.930 1_565 S
C2943 C2936 1.409 . S
C2943 C2942 1.362 1_565 S
H2944 C2950 0.930 . S
H2945 C2953 0.930 . S
H2946 C2954 0.930 . S
H2947 C2955 0.930 . S
H2948 C2958 0.930 . S
H2949 C2959 0.930 . S
C2950 H2944 0.930 . S
C2950 C2951 1.355 . S
C2950 C2952 1.415 . S
C2951 C2950 1.355 . S
C2951 C2953 1.419 . S
C2952 C2950 1.415 . S
C2952 C2957 1.425 . S
C2952 C2959 1.409 . S
C2953 H2945 0.930 . S
C2953 C2951 1.419 . S
C2953 C2954 1.362 . S
C2954 H2946 0.930 . S
C2954 C2953 1.362 . S
C2954 C2957 1.409 . S
C2955 H2947 0.930 . S
C2955 C2956 1.355 . S
C2955 C2957 1.415 . S
C2956 C2955 1.355 . S
C2956 C2958 1.419 . S
C2957 C2952 1.425 . S
C2957 C2954 1.409 . S
C2957 C2955 1.415 . S
C2958 H2948 0.930 . S
C2958 C2956 1.419 . S
C2958 C2959 1.362 . S
C2959 H2949 0.930 . S
C2959 C2952 1.409 . S
C2959 C2958 1.362 . S
H2960 C2966 0.930 . S
H2961 C2969 0.930 . S
H2962 C2970 0.930 . S
H2963 C2971 0.930 . S
H2964 C2974 0.930 . S
H2965 C2975 0.930 . S
C2966 H2960 0.930 . S
C2966 C2967 1.355 . S
C2966 C2968 1.415 . S
C2967 C2966 1.355 . S
C2967 C2969 1.419 . S
C2968 C2966 1.415 . S
C2968 C2973 1.425 . S
C2968 C2975 1.409 . S
C2969 H2961 0.930 . S
C2969 C2967 1.419 . S
C2969 C2970 1.362 . S
C2970 H2962 0.930 . S
C2970 C2969 1.362 . S
C2970 C2973 1.409 . S
C2971 H2963 0.930 . S
C2971 C2972 1.355 . S
C2971 C2973 1.415 . S
C2972 C2971 1.355 . S
C2972 C2974 1.419 . S
C2973 C2968 1.425 . S
C2973 C2970 1.409 . S
C2973 C2971 1.415 . S
C2974 H2964 0.930 . S
C2974 C2972 1.419 . S
C2974 C2975 1.362 . S
C2975 H2965 0.930 . S
C2975 C2968 1.409 . S
C2975 C2974 1.362 . S
H2976 C2982 0.930 . S
H2977 C2985 0.930 . S
H2978 C2986 0.930 . S
H2979 C2987 0.930 . S
H2980 C2990 0.930 . S
H2981 C2991 0.930 . S
C2982 H2976 0.930 . S
C2982 C2983 1.355 . S
C2982 C2984 1.415 . S
C2983 C2982 1.355 . S
C2983 C2985 1.419 . S
C2984 C2982 1.415 . S
C2984 C2989 1.425 . S
C2984 C2991 1.409 . S
C2985 H2977 0.930 . S
C2985 C2983 1.419 . S
C2985 C2986 1.362 . S
C2986 H2978 0.930 . S
C2986 C2985 1.362 . S
C2986 C2989 1.409 . S
C2987 H2979 0.930 . S
C2987 C2988 1.355 . S
C2987 C2989 1.415 . S
C2988 C2987 1.355 . S
C2988 C2990 1.419 . S
C2989 C2984 1.425 . S
C2989 C2986 1.409 . S
C2989 C2987 1.415 . S
C2990 H2980 0.930 . S
C2990 C2988 1.419 . S
C2990 C2991 1.362 . S
C2991 H2981 0.930 . S
C2991 C2984 1.409 . S
C2991 C2990 1.362 . S
H2992 C2998 0.930 . S
H2993 C3001 0.930 . S
H2994 C3002 0.930 1_556 S
H2995 C3003 0.930 1_556 S
H2996 C3006 0.930 . S
H2997 C3007 0.930 . S
C2998 H2992 0.930 . S
C2998 C2999 1.355 . S
C2998 C3000 1.415 . S
C2999 C2998 1.355 . S
C2999 C3001 1.419 . S
C3000 C2998 1.415 . S
C3000 C3005 1.425 . S
C3000 C3007 1.409 . S
C3001 H2993 0.930 . S
C3001 C2999 1.419 . S
C3001 C3002 1.362 . S
C3002 H2994 0.930 1_554 S
C3002 C3001 1.362 . S
C3002 C3005 1.409 . S
C3003 H2995 0.930 1_554 S
C3003 C3004 1.355 . S
C3003 C3005 1.415 . S
C3004 C3003 1.355 . S
C3004 C3006 1.419 . S
C3005 C3000 1.425 . S
C3005 C3002 1.409 . S
C3005 C3003 1.415 . S
C3006 H2996 0.930 . S
C3006 C3004 1.419 . S
C3006 C3007 1.362 . S
C3007 H2997 0.930 . S
C3007 C3000 1.409 . S
C3007 C3006 1.362 . S
H3008 C3014 0.930 . S
H3009 C3017 0.930 . S
H3010 C3018 0.930 . S
H3011 C3019 0.930 . S
H3012 C3022 0.930 . S
H3013 C3023 0.930 . S
C3014 H3008 0.930 . S
C3014 C3015 1.355 . S
C3014 C3016 1.415 . S
C3015 C3014 1.355 . S
C3015 C3017 1.419 . S
C3016 C3014 1.415 . S
C3016 C3021 1.425 . S
C3016 C3023 1.409 . S
C3017 H3009 0.930 . S
C3017 C3015 1.419 . S
C3017 C3018 1.362 . S
C3018 H3010 0.930 . S
C3018 C3017 1.362 . S
C3018 C3021 1.409 . S
C3019 H3011 0.930 . S
C3019 C3020 1.355 . S
C3019 C3021 1.415 . S
C3020 C3019 1.355 . S
C3020 C3022 1.419 . S
C3021 C3016 1.425 . S
C3021 C3018 1.409 . S
C3021 C3019 1.415 . S
C3022 H3012 0.930 . S
C3022 C3020 1.419 . S
C3022 C3023 1.362 . S
C3023 H3013 0.930 . S
C3023 C3016 1.409 . S
C3023 C3022 1.362 . S
H3024 C3030 0.930 . S
H3025 C3033 0.930 . S
H3026 C3034 0.930 . S
H3027 C3035 0.930 . S
H3028 C3038 0.930 . S
H3029 C3039 0.930 . S
C3030 H3024 0.930 . S
C3030 C3031 1.355 . S
C3030 C3032 1.415 . S
C3031 C3030 1.355 . S
C3031 C3033 1.419 . S
C3032 C3030 1.415 . S
C3032 C3037 1.425 . S
C3032 C3039 1.409 . S
C3033 H3025 0.930 . S
C3033 C3031 1.419 . S
C3033 C3034 1.362 . S
C3034 H3026 0.930 . S
C3034 C3033 1.362 . S
C3034 C3037 1.409 . S
C3035 H3027 0.930 . S
C3035 C3036 1.355 . S
C3035 C3037 1.415 . S
C3036 C3035 1.355 . S
C3036 C3038 1.419 . S
C3037 C3032 1.425 . S
C3037 C3034 1.409 . S
C3037 C3035 1.415 . S
C3038 H3028 0.930 . S
C3038 C3036 1.419 . S
C3038 C3039 1.362 . S
C3039 H3029 0.930 . S
C3039 C3032 1.409 . S
C3039 C3038 1.362 . S
C1511 C255 2.274 . S
C1516 C874 2.191 . S
C1527 C147 2.027 . S
C1532 C922 2.007 . S
C1543 C184 1.373 . S
C1548 C954 1.331 . S
C1564 C999 1.563 . S
C1559 C220 1.595 . S
C1575 C40 0.874 . S
C1580 C1039 0.878 . S
C1596 C1074 1.110 . S
C1591 C74 1.136 . S
C1612 C1113 1.195 . S
C1607 C110 1.231 . S
C1623 C14 1.227 . S
C1628 C1150 1.209 . S
C1644 C882 2.114 . S
C1639 C579 2.085 1_545 S
C1655 C616 0.728 . S
C1660 C919 0.689 . S
C1676 C962 2.374 . S
C1671 C687 2.403 . S
C1692 C994 1.240 . S
C1687 C436 1.184 1_556 S
C1703 C580 1.384 . S
C1708 C1034 1.337 . S
C1724 C1082 0.384 . S
C1719 C615 0.366 . S
C1740 C1123 2.099 1_556 S
C1735 C688 2.207 . S
C1756 C1153 2.015 . S
C1751 C435 2.030 . S
C1772 C879 1.440 . S
C1767 C410 1.553 1_554 S
C1783 C722 2.209 . S
C1788 C1202 2.200 . S
C1804 C1239 1.276 . S
C1799 C842 1.269 . S
C1820 C1270 0.830 . S
C1815 C794 0.870 . S
C1831 C302 2.698 . S
C1836 C1163 2.757 . S
C1847 C338 1.465 . S
C1852 C959 1.423 . S
C1863 C830 1.801 . S
C1868 C1322 1.789 . S
C1884 C1354 1.908 . S
C1879 C758 1.902 . S
C1900 C883 2.187 . S
C1895 C158 2.193 . S
C1916 C1353 2.018 . S
C1911 C254 2.021 . S
C1927 C218 1.316 . S
C1932 C963 1.361 . S
C1943 C194 1.463 . S
C1948 C1310 1.526 . S
C1964 C1030 0.887 . S
C1959 C3 0.884 . S
C1975 C111 0.937 . S
C1980 C1243 0.951 . S
C1996 C1122 1.199 . S
C1991 C76 1.224 . S
C2012 C1399 1.299 . S
C2007 C50 1.255 . S
C2028 C873 2.065 1_556 S
C2023 C364 2.087 . S
C2044 C1350 0.765 . S
C2039 C795 0.711 . S
C2055 C292 2.353 . S
C2060 C953 2.343 . S
C2071 C723 1.150 . S
C2076 C1323 1.150 . S
C2087 C363 1.334 . S
C2092 C1043 1.320 . S
C2108 C1233 0.471 . S
C2103 C796 0.573 . S
C2119 C291 2.138 . S
C2124 C1114 2.078 . S
C2135 C724 2.012 1_556 S
C2140 C1402 2.026 . S
C2151 C482 1.388 . S
C2156 C870 1.578 . S
C2167 C434 2.174 . S
C2172 C1193 2.151 . S
C2183 C662 1.132 . S
C2188 C1070 1.235 . S
C2199 C614 0.819 . S
C2204 C1279 0.753 . S
C2220 C1394 2.749 . S
C2215 C698 2.725 . S
C2231 C554 1.341 . S
C2236 C950 1.420 . S
C2252 C993 1.756 . S
C2247 C650 1.744 . S
C2268 C923 1.895 . S
C2263 C506 1.868 . S
C2279 C183 2.272 . S
C2284 C1434 2.220 . S
C2300 C1362 2.007 . S
C2295 C219 2.030 . S
C2311 C256 1.329 . S
C2316 C1474 1.365 . S
C2327 C148 1.619 1_655 S
C2332 C1319 1.598 . S
C2343 C122 0.959 . S
C2348 C1199 0.899 . S
C2364 C1234 0.995 . S
C2359 C2 1.035 . S
C2380 C1273 1.173 . S
C2375 C39 1.144 . S
C2396 C1390 1.252 . S
C2391 C86 1.275 . S
C2412 C1442 2.114 . S
C2407 C651 2.099 . S
C2423 C472 0.748 . S
C2428 C1359 0.752 . S
C2444 C1482 2.386 . S
C2439 C507 2.397 . S
C2460 C1314 1.202 . S
C2455 C544 1.239 . S
C2476 C1194 1.344 1_556 S
C2471 C652 1.374 . S
C2487 C471 0.334 . S
C2492 C1242 0.378 . S
C2508 C1283 2.116 . S
C2503 C508 2.197 . S
C2519 C543 2.035 . S
C2524 C1393 2.046 . S
C2540 C1439 1.508 . S
C2535 C806 1.565 . S
C2551 C326 2.184 . S
C2556 C1042 2.159 . S
C2572 C1079 1.203 . S
C2567 C374 1.257 1_565 S
C2588 C1110 0.979 . S
C2583 C398 0.974 . S
C2604 C1403 2.753 . S
C2599 C770 2.709 . S
C2615 C734 1.437 . S
C2620 C1479 1.459 . S
C2636 C1002 1.802 . S
C2631 C362 1.806 . S
C2652 C914 1.923 . S
C2647 C290 1.934 . S
C2663 C230 2.154 . S
C2668 C1443 2.184 . S
C2684 C913 2.030 . S
C2679 C182 2.029 . S
C2695 C146 1.352 . S
C2700 C1483 1.348 . S
C2711 C266 1.552 . S
C2716 C990 1.598 . S
C2727 C75 0.933 . S
C2732 C1190 0.893 . S
C2748 C1083 1.088 . S
C2743 C38 1.005 . S
C2759 C4 1.184 . S
C2764 C1282 1.183 . S
C2775 C112 1.211 . S
C2780 C1159 1.186 . S
C2796 C1433 2.080 . S
C2791 C832 2.087 . S
C2807 C399 0.496 . S
C2812 C910 0.533 . S
C2828 C1473 2.323 1_556 S
C2823 C760 2.331 . S
C2839 C327 1.147 . S
C2844 C1003 1.120 . S
C2855 C831 1.354 . S
C2860 C1203 1.307 . S
C2876 C1073 0.368 . S
C2871 C400 0.476 . S
C2887 C759 2.171 . S
C2892 C1274 2.082 1_655 S
C2908 C1162 2.022 . S
C2903 C328 2.044 . S
C2924 C1430 1.608 . S
C2919 C626 1.425 . S
C2940 C1033 2.137 1_565 S
C2935 C542 2.160 . S
C2951 C590 1.083 . S
C2956 C1230 1.177 . S
C2972 C1119 0.720 . S
C2967 C470 0.770 . S
C2983 C518 2.715 . S
C2988 C1154 2.739 . S
C2999 C446 1.335 . S
C3004 C1470 1.386 . S
C3020 C1313 1.784 . S
C3015 C578 1.786 . S
C3036 C1363 1.850 . S
C3031 C686 1.861 . S
