# Generated by pormake.
# Topology rtl, (3,6)-cn, num edge types: 1
# Building blocks:
#     Node 0, Type 0, BuildingBlock: WUSLED_clean_sbu_0, # of connection points: 3
#     Node 1, Type 0, BuildingBlock: WUSLED_clean_sbu_0, # of connection points: 3
#     Node 2, Type 0, BuildingBlock: WUSLED_clean_sbu_0, # of connection points: 3
#     Node 3, Type 0, BuildingBlock: WUSLED_clean_sbu_0, # of connection points: 3
#     Node 4, Type 1, BuildingBlock: KUMBUR_clean_sbu_1, # of connection points: 6
#     Node 5, Type 1, BuildingBlock: KUMBUR_clean_sbu_1, # of connection points: 6
#     Edge 6, Type (0, 1), None
#     Edge 7, Type (0, 1), None
#     Edge 8, Type (0, 1), None
#     Edge 9, Type (0, 1), None
#     Edge 10, Type (0, 1), None
#     Edge 11, Type (0, 1), None
#     Edge 12, Type (0, 1), None
#     Edge 13, Type (0, 1), None
#     Edge 14, Type (0, 1), None
#     Edge 15, Type (0, 1), None
#     Edge 16, Type (0, 1), None
#     Edge 17, Type (0, 1), None
# Relax obj value: 0.018
# Max RMSD: 0.140
# Mean RMSD: 0.081
data_MOF--net-rtl--node1-WUSLED_clean_sbu_0--node2-KUMBUR_clean_sbu_1--edge1-none
_symmetry_space_group_name_H-M    P1
_symmetry_Int_Tables_number       1
_symmetry_cell_setting            triclinic
loop_
_symmetry_equiv_pos_as_xyz
'x, y, z'
_cell_length_a     24.840294
_cell_length_b     25.643596
_cell_length_c     22.760366
_cell_angle_alpha  74.903692
_cell_angle_beta   99.296524
_cell_angle_gamma 90.466036
loop_
_atom_site_label
_atom_site_type_symbol
_atom_site_fract_x
_atom_site_fract_y
_atom_site_fract_z
_atom_type_partial_charge
C0 C 0.23578 0.90274 0.17733 0.0
C1 C 0.18744 0.93422 0.15268 0.0
C2 C 0.16728 0.92613 0.25677 0.0
C3 C 0.15372 0.94598 0.192 0.0
C4 C 0.21859 0.89993 0.28117 0.0
C5 C 0.25238 0.8883 0.2418 0.0
U6 U 0.26213 0.86717 0.02529 0.0
O7 O 0.27298 0.78459 0.01605 0.0
O8 O 0.3402 0.8407 1.00422 0.0
C9 C 0.32266 0.79226 1.00351 0.0
C10 C 0.26396 0.87612 0.13913 0.0
C11 C 0.36178 0.7448 0.02084 0.0
C12 C 0.41492 0.66777 0.09372 0.0
C13 C 0.38238 0.71572 0.08195 0.0
C14 C 0.40754 0.67865 0.98402 0.0
C15 C 0.42675 0.64787 0.04462 0.0
C16 C 0.37554 0.72595 0.97248 0.0
C17 C 0.1685 0.94421 0.86598 0.0
C18 C 0.15019 0.92885 0.76271 0.0
C19 C 0.10143 1.00088 0.78404 0.0
C20 C 0.12968 0.98724 0.84488 0.0
C21 C 0.11057 0.97174 0.74165 0.0
C22 C 0.17909 0.91537 0.82397 0.0
C23 C 0.19343 0.92961 0.93284 0.0
O24 O 0.23514 0.84117 0.11545 0.0
O25 O 0.29387 0.90527 0.10083 0.0
O26 O 0.24427 0.94192 0.94873 0.0
O27 O 0.1804 0.88354 0.96794 0.0
H28 H 0.17378 0.94632 0.10326 0.0
H29 H 0.11473 0.96687 0.17166 0.0
H30 H 0.23036 0.88394 0.33057 0.0
H31 H 0.28962 0.86418 0.26207 0.0
H32 H 0.42958 0.64565 0.14104 0.0
H33 H 0.37257 0.72936 0.1203 0.0
H34 H 0.41639 0.66568 0.94484 0.0
H35 H 0.36026 0.74737 0.92502 0.0
H36 H 0.15875 0.90538 0.73232 0.0
H37 H 0.07129 0.0339 0.77076 0.0
H38 H 0.12028 0.01005 0.87611 0.0
H39 H 0.20888 0.882 0.83868 0.0
C40 C 0.6239 0.67575 0.82176 0.0
C41 C 0.58245 0.64047 0.80908 0.0
C42 C 0.57551 0.60898 0.91963 0.0
C43 C 0.55824 0.60761 0.85761 0.0
C44 C 0.61585 0.64534 0.93046 0.0
C45 C 0.63964 0.67795 0.88288 0.0
U46 U 0.67699 0.73866 0.66166 0.0
O47 O 0.76459 0.75234 0.65584 0.0
O48 O 0.70586 0.82226 0.63243 0.0
C49 C 0.75677 0.80511 0.63868 0.0
C50 C 0.65425 0.70957 0.77501 0.0
C51 C 0.80199 0.84277 0.62562 0.0
C52 C 0.87015 0.90392 0.65718 0.0
C53 C 0.8255 0.87067 0.66851 0.0
C54 C 0.86763 0.88317 0.55915 0.0
C55 C 0.89226 0.91037 0.60245 0.0
C56 C 0.82348 0.84951 0.57086 0.0
C57 C 0.61665 0.68577 0.51476 0.0
C58 C 0.65311 0.6847 0.42182 0.0
C59 C 0.57903 0.62702 0.45047 0.0
C60 C 0.57828 0.64821 0.50126 0.0
C61 C 0.61824 0.643 0.41188 0.0
C62 C 0.65245 0.70591 0.47295 0.0
C63 C 0.62344 0.69492 0.57733 0.0
O64 O 0.692 0.68538 0.7563 0.0
O65 O 0.62864 0.75001 0.73162 0.0
O66 O 0.60917 0.74213 0.58385 0.0
O67 O 0.66721 0.67264 0.61609 0.0
H68 H 0.56927 0.63792 0.76221 0.0
H69 H 0.52677 0.58053 0.84669 0.0
H70 H 0.62872 0.64948 0.97575 0.0
H71 H 0.67111 0.70493 0.89423 0.0
H72 H 0.8876 0.92424 0.69162 0.0
H73 H 0.80989 0.86612 0.71128 0.0
H74 H 0.88249 0.8878 0.51598 0.0
H75 H 0.80607 0.82859 0.53698 0.0
H76 H 0.68442 0.69711 0.39349 0.0
H77 H 0.55278 0.594 0.44528 0.0
H78 H 0.55052 0.63176 0.53305 0.0
H79 H 0.68245 0.73486 0.48224 0.0
C80 C 0.83442 0.09814 0.29291 0.0
C81 C 0.88216 0.06917 0.2916 0.0
C82 C 0.90757 0.05087 0.40446 0.0
C83 C 0.91839 0.04542 0.34715 0.0
C84 C 0.8578 0.07617 0.40441 0.0
C85 C 0.82233 0.09993 0.35012 0.0
U86 U 0.76477 0.15788 0.1173 0.0
O87 O 0.68 0.19174 0.08529 0.0
O88 O 0.74893 0.24491 0.07186 0.0
C89 C 0.69559 0.24139 0.06464 0.0
C90 C 0.79851 0.13201 0.23754 0.0
C91 C 0.66265 0.28754 0.07141 0.0
C92 C 0.6267 0.34314 0.13045 0.0
C93 C 0.65739 0.29738 0.12839 0.0
C94 C 0.60618 0.36924 0.0192 0.0
C95 C 0.60115 0.38034 0.07561 0.0
C96 C 0.6362 0.32383 0.01726 0.0
C97 C 0.81455 0.09625 0.99008 0.0
C98 C 0.82075 0.13659 0.88187 0.0
C99 C 0.87187 0.05368 0.93681 0.0
C100 C 0.84931 0.05349 0.98947 0.0
C101 C 0.86005 0.09663 0.88347 0.0
C102 C 0.79809 0.13643 0.93484 0.0
C103 C 0.80666 0.1027 0.05116 0.0
O104 O 0.82155 0.16822 0.19798 0.0
O105 O 0.75591 0.11049 0.21159 0.0
O106 O 0.75972 0.09135 0.0705 0.0
O107 O 0.82957 0.14428 0.06731 0.0
H108 H 0.89223 0.06637 0.24795 0.0
H109 H 0.95559 0.0248 0.34496 0.0
H110 H 0.8459 0.07786 0.4466 0.0
H111 H 0.78577 0.12133 0.35297 0.0
H112 H 0.62299 0.34932 0.17492 0.0
H113 H 0.677 0.26996 0.17108 0.0
H114 H 0.58705 0.39598 0.97581 0.0
H115 H 0.63913 0.3173 0.9727 0.0
H116 H 0.81131 0.17048 0.84147 0.0
H117 H 0.90281 0.02309 0.9399 0.0
H118 H 0.86302 0.02227 0.03157 0.0
H119 H 0.7713 0.16981 0.93401 0.0
C120 C 0.39279 0.35465 0.30509 0.0
C121 C 0.42134 0.40031 0.31417 0.0
C122 C 0.4465 0.41832 0.21074 0.0
C123 C 0.44823 0.43172 0.26746 0.0
C124 C 0.4198 0.37145 0.20369 0.0
C125 C 0.39301 0.34041 0.2497 0.0
U126 U 0.33604 0.29451 0.46244 0.0
O127 O 0.24885 0.27833 0.46783 0.0
O128 O 0.30996 0.21013 0.49359 0.0
C129 C 0.25845 0.22576 0.486 0.0
C130 C 0.35972 0.322 0.3495 0.0
C131 C 0.21471 0.18708 0.50128 0.0
C132 C 0.14624 0.12543 0.47185 0.0
C133 C 0.18819 0.16143 0.45758 0.0
C134 C 0.15717 0.13958 0.57399 0.0
C135 C 0.12967 0.11445 0.5301 0.0
C136 C 0.19894 0.17562 0.55963 0.0
C137 C 0.39719 0.34704 0.60936 0.0
C138 C 0.36179 0.34953 0.70248 0.0
C139 C 0.43963 0.40217 0.67572 0.0
C140 C 0.43829 0.38171 0.62409 0.0
C141 C 0.39986 0.38833 0.71391 0.0
C142 C 0.36037 0.32904 0.65054 0.0
C143 C 0.38946 0.33857 0.54648 0.0
O144 O 0.38389 0.28107 0.39327 0.0
O145 O 0.32241 0.34744 0.36751 0.0
O146 O 0.34495 0.36024 0.50861 0.0
O147 O 0.40449 0.2919 0.53919 0.0
H148 H 0.42216 0.41211 0.35666 0.0
H149 H 0.46925 0.46713 0.27514 0.0
H150 H 0.42041 0.35806 0.16294 0.0
H151 H 0.37183 0.30518 0.2416 0.0
H152 H 0.12638 0.10669 0.43696 0.0
H153 H 0.19969 0.16947 0.41221 0.0
H154 H 0.1466 0.13122 0.61979 0.0
H155 H 0.21906 0.19453 0.59424 0.0
H156 H 0.32994 0.33899 0.73044 0.0
H157 H 0.46829 0.43312 0.68203 0.0
H158 H 0.46686 0.39655 0.59277 0.0
H159 H 0.32825 0.30237 0.64025 0.0
Tb160 Tb 0.05433 0.95615 0.53942 0.0
C161 C 0.92657 0.17394 0.51839 0.0
N162 N 0.97541 0.15231 0.55215 0.0
C163 C 0.01451 0.23986 0.52694 0.0
C164 C 0.9204 0.22917 0.48626 0.0
C165 C 0.01801 0.18544 0.55997 0.0
C166 C 0.96576 0.26165 0.48907 0.0
C167 C 0.82875 0.16425 0.49346 0.0
C168 C 0.88125 0.14179 0.52108 0.0
C169 C 0.82287 0.21861 0.45922 0.0
C170 C 0.86866 0.25086 0.45519 0.0
Tb171 Tb 0.97386 0.06252 0.60367 0.0
N172 N 0.88838 0.0889 0.55343 0.0
C173 C 0.78364 0.1317 0.50263 0.0
C174 C 0.84463 0.05774 0.56517 0.0
C175 C 0.79158 0.07844 0.53937 0.0
H176 H 0.05424 0.17103 0.59325 0.0
H177 H 0.75693 0.05338 0.54783 0.0
H178 H 0.974 0.84726 0.55237 0.0
H179 H 0.26771 0.97489 0.61613 0.0
H180 H 0.85075 0.01723 0.59482 0.0
H181 H 0.74259 0.14754 0.48251 0.0
H182 H 0.1746 0.00852 0.56411 0.0
H183 H 0.04889 0.26538 0.53234 0.0
H184 H 0.78295 0.23644 0.43693 0.0
H185 H 0.86326 0.29312 0.43004 0.0
H186 H 0.98188 0.75238 0.61133 0.0
H187 H 0.96275 0.3042 0.46487 0.0
H188 H 0.28416 0.87878 0.67386 0.0
N189 N 0.05354 0.86658 0.59086 0.0
C190 C 0.1028 0.84581 0.62435 0.0
C191 C 0.01594 0.7784 0.6162 0.0
C192 C 0.11011 0.79044 0.65561 0.0
C193 C 1.01107 0.83307 0.58419 0.0
C194 C 0.06548 0.75707 0.65255 0.0
N195 N 0.13854 0.93329 0.59563 0.0
C196 C 0.1811 0.96717 0.59116 0.0
C197 C 0.19946 0.85858 0.65466 0.0
C198 C 0.14701 0.87966 0.62471 0.0
C199 C 0.24314 0.89352 0.65193 0.0
C200 C 0.23395 0.94794 0.61974 0.0
H201 H 0.06939 0.7144 0.6762 0.0
H202 H 0.16831 0.72732 0.71141 0.0
H203 H 0.24656 0.78672 0.70987 0.0
O204 O 0.09961 0.97822 0.4648 0.0
O205 O 0.07598 0.95384 0.6406 0.0
O206 O 0.05396 0.03586 0.65873 0.0
O207 O 0.06985 0.89874 0.49308 0.0
O208 O 0.06971 0.0432 0.51128 0.0
O209 O 0.05876 0.0807 0.59059 0.0
O210 O 0.94287 0.03366 0.68862 0.0
O211 O 0.94315 0.05825 0.50752 0.0
O212 O 0.98229 0.99235 0.47107 0.0
O213 O 0.95137 0.11798 0.64857 0.0
O214 O 0.95781 0.9755 0.6277 0.0
O215 O 0.96821 0.93925 0.54758 0.0
C216 C 0.07784 0.98718 0.67708 0.0
C217 C 0.08776 0.92461 0.3904 0.0
C218 C 0.1234 0.92104 0.29606 0.0
C219 C 0.07526 0.89625 0.27753 0.0
C220 C 0.0401 0.90044 0.36927 0.0
C221 C 0.03429 0.88603 0.31374 0.0
C222 C 0.12979 0.93472 0.35344 0.0
C223 C 0.08444 0.07684 0.54532 0.0
C224 C 0.09691 0.93043 0.45482 0.0
C225 C 0.162 0.76975 0.68722 0.0
C226 C 0.20662 0.80357 0.68624 0.0
C227 C 0.94765 0.03342 0.46389 0.0
C228 C 0.9413 0.09584 0.75322 0.0
C229 C 0.90033 0.10827 0.84027 0.0
C230 C 0.94244 0.14277 0.85214 0.0
C231 C 0.98365 0.12938 0.7677 0.0
C232 C 0.8998 0.08458 0.79052 0.0
C233 C 0.98389 0.15283 0.81652 0.0
C234 C 0.94039 0.94517 0.59041 0.0
C235 C 0.93434 0.08253 0.69284 0.0
H236 H 0.06995 0.88302 0.23552 0.0
H237 H 1.00791 0.89069 0.39687 0.0
H238 H 0.99818 0.86571 0.29922 0.0
H239 H 0.16752 0.95175 0.36987 0.0
H240 H 0.94358 0.16151 0.88984 0.0
H241 H 0.01539 0.13944 0.7395 0.0
H242 H 0.86652 0.05927 0.77965 0.0
H243 H 0.01601 0.17962 0.82628 0.0
Tb244 Tb 0.4555 0.48867 1.00279 0.0
C245 C 0.68835 0.56611 0.10425 0.0
N246 N 0.66052 0.52018 0.12184 0.0
C247 C 0.74298 0.46671 0.13608 0.0
C248 C 0.74428 0.56384 0.09992 0.0
C249 C 0.68781 0.47099 0.14057 0.0
C250 C 0.7712 0.51326 0.11491 0.0
C251 C 0.6886 0.66428 0.07406 0.0
C252 C 0.66082 0.61583 0.09126 0.0
C253 C 0.74409 0.66204 0.06911 0.0
C254 C 0.77178 0.61198 0.08172 0.0
Tb255 Tb 0.57115 0.5348 0.12904 0.0
N256 N 0.60617 0.61671 0.09232 0.0
C257 C 0.65908 0.7135 0.05986 0.0
C258 C 0.57749 0.66454 0.07984 0.0
C259 C 0.60334 0.71358 0.06289 0.0
H260 H 0.66832 0.43499 0.16169 0.0
H261 H 0.58033 0.75144 0.05257 0.0
H262 H 0.35657 0.58558 0.97489 0.0
H263 H 0.45093 0.27149 0.07259 0.0
H264 H 0.53508 0.66511 0.08433 0.0
H265 H 0.67881 0.75157 0.04607 0.0
H266 H 0.49341 0.35947 0.03966 0.0
H267 H 0.76403 0.42753 0.15034 0.0
H268 H 0.76587 0.6988 0.05504 0.0
H269 H 0.81462 0.61092 0.07773 0.0
H270 H 0.26131 0.59047 0.98889 0.0
H271 H 0.8141 0.50981 0.11208 0.0
H272 H 0.35425 0.26851 0.08732 0.0
N273 N 0.36687 0.50055 0.01469 0.0
C274 C 0.34051 0.45384 0.03349 0.0
C275 C 0.2834 0.55184 1.00285 0.0
C276 C 0.28494 0.45461 0.03971 0.0
C277 C 0.33834 0.54905 0.99677 0.0
C278 C 0.25673 0.5045 0.02514 0.0
N279 N 0.42286 0.40551 0.03961 0.0
C280 C 0.45192 0.35855 0.04785 0.0
C281 C 0.34277 0.35561 0.06291 0.0
C282 C 0.36898 0.40482 0.0449 0.0
C283 C 0.37287 0.30717 0.07335 0.0
C284 C 0.42758 0.3087 0.06546 0.0
H285 H 0.21397 0.5068 0.02908 0.0
H286 H 0.21639 0.40554 0.06415 0.0
H287 H 0.26706 0.31892 0.08467 0.0
O288 O 0.46542 0.44795 0.93276 0.0
O289 O 0.4496 0.45454 0.10174 0.0
O290 O 0.5166 0.47722 0.17484 0.0
O291 O 0.4002 0.50745 0.92119 0.0
O292 O 0.54028 0.45732 0.02204 0.0
O293 O 0.57416 0.44916 0.12447 0.0
O294 O 0.56509 0.58048 0.19495 0.0
O295 O 0.58024 0.56414 0.02947 0.0
O296 O 0.50213 0.55655 0.95956 0.0
O297 O 0.6235 0.51323 0.21366 0.0
O298 O 0.4883 0.57311 0.1082 0.0
O299 O 0.45217 0.57303 1.00768 0.0
C300 C 0.47211 0.4526 0.15919 0.0
C301 C 0.39832 0.47021 0.83395 0.0
C302 C 0.38595 0.4274 0.74784 0.0
C303 C 0.34496 0.46657 0.71619 0.0
C304 C 0.35722 0.50888 0.79998 0.0
C305 C 0.33099 0.50699 0.74189 0.0
C306 C 0.41333 0.42931 0.80713 0.0
C307 C 0.56861 0.43015 0.07508 0.0
C308 C 0.42207 0.4738 0.89735 0.0
C309 C 0.25897 0.40567 0.05886 0.0
C310 C 0.28778 0.35632 0.07034 0.0
C311 C 0.55175 0.57358 0.97265 0.0
C312 C 0.62811 0.55835 0.29587 0.0
C313 C 0.63573 0.60404 0.37955 0.0
C314 C 0.67917 0.56808 0.4122 0.0
C315 C 0.67174 0.52318 0.33064 0.0
C316 C 0.60957 0.59905 0.32097 0.0
C317 C 0.69678 0.52801 0.38808 0.0
C318 C 0.45765 0.59521 0.05448 0.0
C319 C 0.60503 0.5516 0.23354 0.0
H320 H 0.32413 0.46635 0.67056 0.0
H321 H 0.34479 0.54098 0.81836 0.0
H322 H 0.29956 0.53715 0.71658 0.0
H323 H 0.44514 0.39936 0.83198 0.0
H324 H 0.69915 0.57054 0.45736 0.0
H325 H 0.68705 0.49163 0.31337 0.0
H326 H 0.57579 0.62639 0.29544 0.0
H327 H 0.73014 0.50042 0.41416 0.0
loop_
_geom_bond_atom_site_label_1
_geom_bond_atom_site_label_2
_geom_bond_distance
_geom_bond_site_symmetry_2
_ccdc_geom_bond_type
C0 C1 1.264 . S
C0 C5 1.479 . S
C0 C10 1.465 . S
C1 C0 1.264 . S
C1 C3 1.339 . S
C1 H28 0.931 . S
C2 C3 1.395 . S
C2 C4 1.320 . S
C3 C1 1.339 . S
C3 C2 1.395 . S
C3 H29 0.929 1_565 S
C4 C2 1.320 . S
C4 C5 1.405 . S
C4 H30 0.930 . S
C5 C0 1.479 . S
C5 C4 1.405 . S
C5 H31 0.931 . S
U6 O7 2.454 . S
U6 O8 2.458 1_554 S
U6 C9 2.984 . S
U6 C10 2.847 . S
U6 C23 2.882 1_554 S
U6 O24 2.441 . S
U6 O25 2.420 . S
U6 O26 2.455 1_554 S
U6 O27 2.449 1_554 S
O7 U6 2.454 . S
O7 C9 1.353 . S
O8 U6 2.458 1_556 S
O8 C9 1.286 1_556 S
C9 U6 2.984 . S
C9 O7 1.353 . S
C9 O8 1.286 1_554 S
C9 C11 1.363 . S
C10 C0 1.465 . S
C10 U6 2.847 . S
C10 O24 1.249 . S
C10 O25 1.202 . S
C11 C9 1.363 . S
C11 C13 1.408 . S
C11 C16 1.342 1_554 S
C12 C13 1.310 . S
C12 C15 1.461 . S
C12 H32 0.932 . S
C13 C11 1.408 . S
C13 C12 1.310 . S
C13 H33 0.930 . S
C14 C15 1.474 . S
C14 C16 1.285 1_554 S
C14 H34 0.929 1_554 S
C15 C12 1.461 . S
C15 C14 1.474 . S
C16 C11 1.342 1_556 S
C16 C14 1.285 1_556 S
C16 H35 0.930 . S
C17 C20 1.424 . S
C17 C22 1.245 . S
C17 C23 1.428 . S
C18 C21 1.260 1_565 S
C18 C22 1.477 . S
C18 H36 0.932 . S
C19 C20 1.384 1_545 S
C19 C21 1.479 . S
C19 H37 0.929 . S
C20 C17 1.424 . S
C20 C19 1.384 1_565 S
C20 H38 0.928 1_565 S
C21 C18 1.260 1_545 S
C21 C19 1.479 . S
C22 C17 1.245 . S
C22 C18 1.477 . S
C22 H39 0.932 . S
C23 U6 2.882 1_556 S
C23 C17 1.428 . S
C23 O26 1.301 . S
C23 O27 1.282 . S
O24 U6 2.441 . S
O24 C10 1.249 . S
O25 U6 2.420 . S
O25 C10 1.202 . S
O26 U6 2.455 1_556 S
O26 C23 1.301 . S
O27 U6 2.449 1_556 S
O27 C23 1.282 . S
H28 C1 0.931 . S
H29 C3 0.929 1_545 S
H30 C4 0.930 . S
H31 C5 0.931 . S
H32 C12 0.932 . S
H33 C13 0.930 . S
H34 C14 0.929 1_556 S
H35 C16 0.930 . S
H36 C18 0.932 . S
H37 C19 0.929 . S
H38 C20 0.928 1_545 S
H39 C22 0.932 . S
C40 C41 1.264 . S
C40 C45 1.479 . S
C40 C50 1.465 . S
C41 C40 1.264 . S
C41 C43 1.339 . S
C41 H68 0.931 . S
C42 C43 1.395 . S
C42 C44 1.320 . S
C43 C41 1.339 . S
C43 C42 1.395 . S
C43 H69 0.929 . S
C44 C42 1.320 . S
C44 C45 1.405 . S
C44 H70 0.930 . S
C45 C40 1.479 . S
C45 C44 1.405 . S
C45 H71 0.931 . S
U46 O47 2.454 . S
U46 O48 2.458 . S
U46 C49 2.984 . S
U46 C50 2.847 . S
U46 C63 2.882 . S
U46 O64 2.441 . S
U46 O65 2.420 . S
U46 O66 2.455 . S
U46 O67 2.449 . S
O47 U46 2.454 . S
O47 C49 1.353 . S
O48 U46 2.458 . S
O48 C49 1.286 . S
C49 U46 2.984 . S
C49 O47 1.353 . S
C49 O48 1.286 . S
C49 C51 1.363 . S
C50 C40 1.465 . S
C50 U46 2.847 . S
C50 O64 1.249 . S
C50 O65 1.202 . S
C51 C49 1.363 . S
C51 C53 1.408 . S
C51 C56 1.342 . S
C52 C53 1.310 . S
C52 C55 1.461 . S
C52 H72 0.932 . S
C53 C51 1.408 . S
C53 C52 1.310 . S
C53 H73 0.930 . S
C54 C55 1.474 . S
C54 C56 1.285 . S
C54 H74 0.929 . S
C55 C52 1.461 . S
C55 C54 1.474 . S
C56 C51 1.342 . S
C56 C54 1.285 . S
C56 H75 0.930 . S
C57 C60 1.424 . S
C57 C62 1.245 . S
C57 C63 1.428 . S
C58 C61 1.260 . S
C58 C62 1.477 . S
C58 H76 0.932 . S
C59 C60 1.384 . S
C59 C61 1.479 . S
C59 H77 0.929 . S
C60 C57 1.424 . S
C60 C59 1.384 . S
C60 H78 0.928 . S
C61 C58 1.260 . S
C61 C59 1.479 . S
C62 C57 1.245 . S
C62 C58 1.477 . S
C62 H79 0.932 . S
C63 U46 2.882 . S
C63 C57 1.428 . S
C63 O66 1.301 . S
C63 O67 1.282 . S
O64 U46 2.441 . S
O64 C50 1.249 . S
O65 U46 2.420 . S
O65 C50 1.202 . S
O66 U46 2.455 . S
O66 C63 1.301 . S
O67 U46 2.449 . S
O67 C63 1.282 . S
H68 C41 0.931 . S
H69 C43 0.929 . S
H70 C44 0.930 . S
H71 C45 0.931 . S
H72 C52 0.932 . S
H73 C53 0.930 . S
H74 C54 0.929 . S
H75 C56 0.930 . S
H76 C58 0.932 . S
H77 C59 0.929 . S
H78 C60 0.928 . S
H79 C62 0.932 . S
C80 C81 1.264 . S
C80 C85 1.479 . S
C80 C90 1.465 . S
C81 C80 1.264 . S
C81 C83 1.339 1_545 S
C81 H108 0.931 1_545 S
C82 C83 1.395 1_545 S
C82 C84 1.320 . S
C83 C81 1.339 1_565 S
C83 C82 1.395 1_565 S
C83 H109 0.929 . S
C84 C82 1.320 . S
C84 C85 1.405 . S
C84 H110 0.930 . S
C85 C80 1.479 . S
C85 C84 1.405 . S
C85 H111 0.931 . S
U86 O87 2.454 . S
U86 O88 2.458 . S
U86 C89 2.984 . S
U86 C90 2.847 . S
U86 C103 2.882 . S
U86 O104 2.441 . S
U86 O105 2.420 . S
U86 O106 2.455 1_554 S
U86 O107 2.449 . S
O87 U86 2.454 . S
O87 C89 1.353 . S
O88 U86 2.458 . S
O88 C89 1.286 . S
C89 U86 2.984 . S
C89 O87 1.353 . S
C89 O88 1.286 . S
C89 C91 1.363 . S
C90 C80 1.465 . S
C90 U86 2.847 . S
C90 O104 1.249 . S
C90 O105 1.202 . S
C91 C89 1.363 . S
C91 C93 1.408 . S
C91 C96 1.342 . S
C92 C93 1.310 . S
C92 C95 1.461 . S
C92 H112 0.932 . S
C93 C91 1.408 . S
C93 C92 1.310 . S
C93 H113 0.930 . S
C94 C95 1.474 1_556 S
C94 C96 1.285 1_556 S
C94 H114 0.929 . S
C95 C92 1.461 . S
C95 C94 1.474 1_554 S
C96 C91 1.342 . S
C96 C94 1.285 1_554 S
C96 H115 0.930 1_554 S
C97 C100 1.424 . S
C97 C102 1.245 . S
C97 C103 1.428 1_556 S
C98 C101 1.260 . S
C98 C102 1.477 . S
C98 H116 0.932 . S
C99 C100 1.384 . S
C99 C101 1.479 . S
C99 H117 0.929 1_545 S
C100 C97 1.424 . S
C100 C99 1.384 . S
C100 H118 0.928 1_556 S
C101 C98 1.260 . S
C101 C99 1.479 . S
C102 C97 1.245 . S
C102 C98 1.477 . S
C102 H119 0.932 . S
C103 U86 2.882 . S
C103 C97 1.428 1_554 S
C103 O106 1.301 1_554 S
C103 O107 1.282 . S
O104 U86 2.441 . S
O104 C90 1.249 . S
O105 U86 2.420 . S
O105 C90 1.202 . S
O106 U86 2.455 1_556 S
O106 C103 1.301 1_556 S
O107 U86 2.449 . S
O107 C103 1.282 . S
H108 C81 0.931 1_565 S
H109 C83 0.929 . S
H110 C84 0.930 . S
H111 C85 0.931 . S
H112 C92 0.932 . S
H113 C93 0.930 . S
H114 C94 0.929 . S
H115 C96 0.930 1_556 S
H116 C98 0.932 . S
H117 C99 0.929 1_565 S
H118 C100 0.928 1_554 S
H119 C102 0.932 . S
C120 C121 1.264 . S
C120 C125 1.479 . S
C120 C130 1.465 . S
C121 C120 1.264 . S
C121 C123 1.339 . S
C121 H148 0.931 . S
C122 C123 1.395 . S
C122 C124 1.320 . S
C123 C121 1.339 . S
C123 C122 1.395 . S
C123 H149 0.929 . S
C124 C122 1.320 . S
C124 C125 1.405 . S
C124 H150 0.930 . S
C125 C120 1.479 . S
C125 C124 1.405 . S
C125 H151 0.931 . S
U126 O127 2.454 . S
U126 O128 2.458 . S
U126 C129 2.984 . S
U126 C130 2.847 . S
U126 C143 2.882 . S
U126 O144 2.441 . S
U126 O145 2.420 . S
U126 O146 2.455 . S
U126 O147 2.449 . S
O127 U126 2.454 . S
O127 C129 1.353 . S
O128 U126 2.458 . S
O128 C129 1.286 . S
C129 U126 2.984 . S
C129 O127 1.353 . S
C129 O128 1.286 . S
C129 C131 1.363 . S
C130 C120 1.465 . S
C130 U126 2.847 . S
C130 O144 1.249 . S
C130 O145 1.202 . S
C131 C129 1.363 . S
C131 C133 1.408 . S
C131 C136 1.342 . S
C132 C133 1.310 . S
C132 C135 1.461 . S
C132 H152 0.932 . S
C133 C131 1.408 . S
C133 C132 1.310 . S
C133 H153 0.930 . S
C134 C135 1.474 . S
C134 C136 1.285 . S
C134 H154 0.929 . S
C135 C132 1.461 . S
C135 C134 1.474 . S
C136 C131 1.342 . S
C136 C134 1.285 . S
C136 H155 0.930 . S
C137 C140 1.424 . S
C137 C142 1.245 . S
C137 C143 1.428 . S
C138 C141 1.260 . S
C138 C142 1.477 . S
C138 H156 0.932 . S
C139 C140 1.384 . S
C139 C141 1.479 . S
C139 H157 0.929 . S
C140 C137 1.424 . S
C140 C139 1.384 . S
C140 H158 0.928 . S
C141 C138 1.260 . S
C141 C139 1.479 . S
C142 C137 1.245 . S
C142 C138 1.477 . S
C142 H159 0.932 . S
C143 U126 2.882 . S
C143 C137 1.428 . S
C143 O146 1.301 . S
C143 O147 1.282 . S
O144 U126 2.441 . S
O144 C130 1.249 . S
O145 U126 2.420 . S
O145 C130 1.202 . S
O146 U126 2.455 . S
O146 C143 1.301 . S
O147 U126 2.449 . S
O147 C143 1.282 . S
H148 C121 0.931 . S
H149 C123 0.929 . S
H150 C124 0.930 . S
H151 C125 0.931 . S
H152 C132 0.932 . S
H153 C133 0.930 . S
H154 C134 0.929 . S
H155 C136 0.930 . S
H156 C138 0.932 . S
H157 C139 0.929 . S
H158 C140 0.928 . S
H159 C142 0.932 . S
Tb160 N189 2.617 . S
Tb160 N195 2.572 . S
Tb160 O204 2.465 . S
Tb160 O205 2.387 . S
Tb160 O207 2.428 . S
Tb160 O208 2.308 1_565 S
Tb160 O212 2.349 1_465 S
Tb160 O215 2.393 1_455 S
Tb160 C224 2.802 . S
C161 N162 1.379 . S
C161 C164 1.416 . S
C161 C168 1.424 . S
N162 C161 1.379 . S
N162 C165 1.334 . S
N162 Tb171 2.617 . S
C163 C165 1.390 . S
C163 C166 1.339 . S
C163 H183 0.930 1_655 S
C164 C161 1.416 . S
C164 C166 1.416 . S
C164 C170 1.448 . S
C165 N162 1.334 . S
C165 C163 1.390 . S
C165 H176 0.930 1_655 S
C166 C163 1.339 . S
C166 C164 1.416 . S
C166 H187 0.930 . S
C167 C168 1.413 . S
C167 C169 1.427 . S
C167 C173 1.416 . S
C168 C161 1.424 . S
C168 C167 1.413 . S
C168 N172 1.361 . S
C169 C167 1.427 . S
C169 C170 1.328 . S
C169 H184 0.929 . S
C170 C164 1.448 . S
C170 C169 1.328 . S
C170 H185 0.930 . S
Tb171 N162 2.617 . S
Tb171 N172 2.572 . S
Tb171 O206 2.349 1_655 S
Tb171 O209 2.393 1_655 S
Tb171 O210 2.465 . S
Tb171 O211 2.387 . S
Tb171 O213 2.428 . S
Tb171 O214 2.308 1_545 S
Tb171 C235 2.802 . S
N172 C168 1.361 . S
N172 Tb171 2.572 . S
N172 C174 1.340 . S
C173 C167 1.416 . S
C173 C175 1.332 . S
C173 H181 0.931 . S
C174 N172 1.340 . S
C174 C175 1.407 . S
C174 H180 0.930 . S
C175 C173 1.332 . S
C175 C174 1.407 . S
C175 H177 0.929 . S
H176 C165 0.930 1_455 S
H177 C175 0.929 . S
H178 C193 0.930 1_655 S
H179 C200 0.929 . S
H180 C174 0.930 . S
H181 C173 0.931 . S
H182 C196 0.930 . S
H183 C163 0.930 1_455 S
H184 C169 0.929 . S
H185 C170 0.930 . S
H186 C191 0.930 1_655 S
H187 C166 0.930 . S
H188 C199 0.931 . S
N189 Tb160 2.617 . S
N189 C190 1.379 . S
N189 C193 1.334 . S
C190 N189 1.379 . S
C190 C192 1.416 . S
C190 C198 1.424 . S
C191 H186 0.930 1_455 S
C191 C193 1.390 . S
C191 C194 1.339 . S
C192 C190 1.416 . S
C192 C194 1.416 . S
C192 C225 1.448 . S
C193 H178 0.930 1_455 S
C193 N189 1.334 . S
C193 C191 1.390 . S
C194 C191 1.339 . S
C194 C192 1.416 . S
C194 H201 0.930 . S
N195 Tb160 2.572 . S
N195 C196 1.340 . S
N195 C198 1.361 . S
C196 H182 0.930 . S
C196 N195 1.340 . S
C196 C200 1.407 . S
C197 C198 1.413 . S
C197 C199 1.416 . S
C197 C226 1.427 . S
C198 C190 1.424 . S
C198 N195 1.361 . S
C198 C197 1.413 . S
C199 H188 0.931 . S
C199 C197 1.416 . S
C199 C200 1.332 . S
C200 H179 0.929 . S
C200 C196 1.407 . S
C200 C199 1.332 . S
H201 C194 0.930 . S
H202 C225 0.930 . S
H203 C226 0.929 . S
O204 Tb160 2.465 . S
O204 C224 1.264 . S
O205 Tb160 2.387 . S
O205 C216 1.264 . S
O206 Tb171 2.349 1_455 S
O206 C216 1.243 1_545 S
O207 Tb160 2.428 . S
O207 C224 1.256 . S
O208 Tb160 2.308 1_545 S
O208 C223 1.266 . S
O209 Tb171 2.393 1_455 S
O209 C223 1.248 . S
O210 Tb171 2.465 . S
O210 C235 1.264 . S
O211 Tb171 2.387 . S
O211 C227 1.264 . S
O212 Tb160 2.349 1_645 S
O212 C227 1.243 . S
O213 Tb171 2.428 . S
O213 C235 1.256 . S
O214 Tb171 2.308 1_565 S
O214 C234 1.266 . S
O215 Tb160 2.393 1_655 S
O215 C234 1.248 . S
C216 O205 1.264 . S
C216 O206 1.243 1_565 S
C217 C220 1.399 . S
C217 C222 1.383 . S
C217 C224 1.496 . S
C218 C219 1.399 . S
C218 C222 1.389 . S
C219 C218 1.399 . S
C219 C221 1.380 . S
C219 H236 0.929 . S
C220 C217 1.399 . S
C220 C221 1.392 . S
C220 H237 0.929 . S
C221 C219 1.380 . S
C221 C220 1.392 . S
C221 H238 0.929 . S
C222 C217 1.383 . S
C222 C218 1.389 . S
C222 H239 0.931 . S
C223 O208 1.266 . S
C223 O209 1.248 . S
C224 Tb160 2.802 . S
C224 O204 1.264 . S
C224 O207 1.256 . S
C224 C217 1.496 . S
C225 C192 1.448 . S
C225 H202 0.930 . S
C225 C226 1.328 . S
C226 C197 1.427 . S
C226 H203 0.929 . S
C226 C225 1.328 . S
C227 O211 1.264 . S
C227 O212 1.243 . S
C228 C231 1.399 . S
C228 C232 1.383 . S
C228 C235 1.496 . S
C229 C230 1.399 . S
C229 C232 1.389 . S
C230 C229 1.399 . S
C230 C233 1.380 . S
C230 H240 0.929 . S
C231 C228 1.399 . S
C231 C233 1.392 . S
C231 H241 0.929 . S
C232 C228 1.383 . S
C232 C229 1.389 . S
C232 H242 0.931 . S
C233 C230 1.380 . S
C233 C231 1.392 . S
C233 H243 0.929 . S
C234 O214 1.266 . S
C234 O215 1.248 . S
C235 Tb171 2.802 . S
C235 O210 1.264 . S
C235 O213 1.256 . S
C235 C228 1.496 . S
H236 C219 0.929 . S
H237 C220 0.929 . S
H238 C221 0.929 . S
H239 C222 0.931 . S
H240 C230 0.929 . S
H241 C231 0.929 . S
H242 C232 0.931 . S
H243 C233 0.929 . S
Tb244 N273 2.617 . S
Tb244 N279 2.572 1_556 S
Tb244 O288 2.465 . S
Tb244 O289 2.387 1_556 S
Tb244 O291 2.428 . S
Tb244 O292 2.308 1_556 S
Tb244 O296 2.349 . S
Tb244 O299 2.393 . S
Tb244 C308 2.802 . S
C245 N246 1.379 . S
C245 C248 1.416 . S
C245 C252 1.424 . S
N246 C245 1.379 . S
N246 C249 1.334 . S
N246 Tb255 2.617 . S
C247 C249 1.390 . S
C247 C250 1.339 . S
C247 H267 0.930 . S
C248 C245 1.416 . S
C248 C250 1.416 . S
C248 C254 1.448 . S
C249 N246 1.334 . S
C249 C247 1.390 . S
C249 H260 0.930 . S
C250 C247 1.339 . S
C250 C248 1.416 . S
C250 H271 0.930 . S
C251 C252 1.413 . S
C251 C253 1.427 . S
C251 C257 1.416 . S
C252 C245 1.424 . S
C252 C251 1.413 . S
C252 N256 1.361 . S
C253 C251 1.427 . S
C253 C254 1.328 . S
C253 H268 0.929 . S
C254 C248 1.448 . S
C254 C253 1.328 . S
C254 H269 0.930 . S
Tb255 N246 2.617 . S
Tb255 N256 2.572 . S
Tb255 O290 2.349 . S
Tb255 O293 2.393 . S
Tb255 O294 2.465 . S
Tb255 O295 2.387 . S
Tb255 O297 2.428 . S
Tb255 O298 2.308 . S
Tb255 C319 2.802 . S
N256 C252 1.361 . S
N256 Tb255 2.572 . S
N256 C258 1.340 . S
C257 C251 1.416 . S
C257 C259 1.332 . S
C257 H265 0.931 . S
C258 N256 1.340 . S
C258 C259 1.407 . S
C258 H264 0.930 . S
C259 C257 1.332 . S
C259 C258 1.407 . S
C259 H261 0.929 . S
H260 C249 0.930 . S
H261 C259 0.929 . S
H262 C277 0.930 . S
H263 C284 0.929 . S
H264 C258 0.930 . S
H265 C257 0.931 . S
H266 C280 0.930 . S
H267 C247 0.930 . S
H268 C253 0.929 . S
H269 C254 0.930 . S
H270 C275 0.930 . S
H271 C250 0.930 . S
H272 C283 0.931 . S
N273 Tb244 2.617 . S
N273 C274 1.379 1_556 S
N273 C277 1.334 . S
C274 N273 1.379 1_554 S
C274 C276 1.416 . S
C274 C282 1.424 . S
C275 H270 0.930 . S
C275 C277 1.390 . S
C275 C278 1.339 1_556 S
C276 C274 1.416 . S
C276 C278 1.416 . S
C276 C309 1.448 . S
C277 H262 0.930 . S
C277 N273 1.334 . S
C277 C275 1.390 . S
C278 C275 1.339 1_554 S
C278 C276 1.416 . S
C278 H285 0.930 . S
N279 Tb244 2.572 1_554 S
N279 C280 1.340 . S
N279 C282 1.361 . S
C280 H266 0.930 . S
C280 N279 1.340 . S
C280 C284 1.407 . S
C281 C282 1.413 . S
C281 C283 1.416 . S
C281 C310 1.427 . S
C282 C274 1.424 . S
C282 N279 1.361 . S
C282 C281 1.413 . S
C283 H272 0.931 . S
C283 C281 1.416 . S
C283 C284 1.332 . S
C284 H263 0.929 . S
C284 C280 1.407 . S
C284 C283 1.332 . S
H285 C278 0.930 . S
H286 C309 0.930 . S
H287 C310 0.929 . S
O288 Tb244 2.465 . S
O288 C308 1.264 . S
O289 Tb244 2.387 1_554 S
O289 C300 1.264 . S
O290 Tb255 2.349 . S
O290 C300 1.243 . S
O291 Tb244 2.428 . S
O291 C308 1.256 . S
O292 Tb244 2.308 1_554 S
O292 C307 1.266 . S
O293 Tb255 2.393 . S
O293 C307 1.248 . S
O294 Tb255 2.465 . S
O294 C319 1.264 . S
O295 Tb255 2.387 . S
O295 C311 1.264 1_554 S
O296 Tb244 2.349 . S
O296 C311 1.243 . S
O297 Tb255 2.428 . S
O297 C319 1.256 . S
O298 Tb255 2.308 . S
O298 C318 1.266 . S
O299 Tb244 2.393 . S
O299 C318 1.247 1_556 S
C300 O289 1.264 . S
C300 O290 1.243 . S
C301 C304 1.399 . S
C301 C306 1.383 . S
C301 C308 1.496 . S
C302 C303 1.399 . S
C302 C306 1.389 . S
C303 C302 1.399 . S
C303 C305 1.380 . S
C303 H320 0.929 . S
C304 C301 1.399 . S
C304 C305 1.392 . S
C304 H321 0.929 . S
C305 C303 1.380 . S
C305 C304 1.392 . S
C305 H322 0.929 . S
C306 C301 1.383 . S
C306 C302 1.389 . S
C306 H323 0.931 . S
C307 O292 1.266 . S
C307 O293 1.248 . S
C308 Tb244 2.802 . S
C308 O288 1.264 . S
C308 O291 1.256 . S
C308 C301 1.496 . S
C309 C276 1.448 . S
C309 H286 0.930 . S
C309 C310 1.328 . S
C310 C281 1.427 . S
C310 H287 0.929 . S
C310 C309 1.328 . S
C311 O295 1.264 1_556 S
C311 O296 1.243 . S
C312 C315 1.399 . S
C312 C316 1.383 . S
C312 C319 1.496 . S
C313 C314 1.399 . S
C313 C316 1.389 . S
C314 C313 1.399 . S
C314 C317 1.380 . S
C314 H324 0.929 . S
C315 C312 1.399 . S
C315 C317 1.392 . S
C315 H325 0.929 . S
C316 C312 1.383 . S
C316 C313 1.389 . S
C316 H326 0.931 . S
C317 C314 1.380 . S
C317 C315 1.392 . S
C317 H327 0.929 . S
C318 O298 1.266 . S
C318 O299 1.247 1_554 S
C319 Tb255 2.802 . S
C319 O294 1.264 . S
C319 O297 1.256 . S
C319 C312 1.496 . S
H320 C303 0.929 . S
H321 C304 0.929 . S
H322 C305 0.929 . S
H323 C306 0.931 . S
H324 C314 0.929 . S
H325 C315 0.929 . S
H326 C316 0.931 . S
H327 C317 0.929 . S
C223 C135 2.294 . S
C15 C318 2.296 . S
C55 C234 2.258 . S
C95 C307 2.368 . S
C218 C2 1.806 . S
C311 C42 2.097 . S
C82 C227 2.422 . S
C141 C302 1.493 . S
C313 C61 1.737 . S
C229 C101 1.846 . S
C300 C122 1.969 . S
C21 C216 2.466 1_545 S
