# Generated by pormake.
# Topology nia, (6,6)-cn, num edge types: 1
# Building blocks:
#     Node 0, Type 0, BuildingBlock: CUWYAW_clean_sbu_0, # of connection points: 6
#     Node 1, Type 0, BuildingBlock: CUWYAW_clean_sbu_0, # of connection points: 6
#     Node 2, Type 1, BuildingBlock: MIDCAF_clean_sbu_0, # of connection points: 6
#     Node 3, Type 1, BuildingBlock: MIDCAF_clean_sbu_0, # of connection points: 6
#     Edge 4, Type (0, 1), BuildingBlock: UKIBIB_clean_linker_0, # of connection points: 2
#     Edge 5, Type (0, 1), BuildingBlock: UKIBIB_clean_linker_0, # of connection points: 2
#     Edge 6, Type (0, 1), BuildingBlock: UKIBIB_clean_linker_0, # of connection points: 2
#     Edge 7, Type (0, 1), BuildingBlock: UKIBIB_clean_linker_0, # of connection points: 2
#     Edge 8, Type (0, 1), BuildingBlock: UKIBIB_clean_linker_0, # of connection points: 2
#     Edge 9, Type (0, 1), BuildingBlock: UKIBIB_clean_linker_0, # of connection points: 2
#     Edge 10, Type (0, 1), BuildingBlock: UKIBIB_clean_linker_0, # of connection points: 2
#     Edge 11, Type (0, 1), BuildingBlock: UKIBIB_clean_linker_0, # of connection points: 2
#     Edge 12, Type (0, 1), BuildingBlock: UKIBIB_clean_linker_0, # of connection points: 2
#     Edge 13, Type (0, 1), BuildingBlock: UKIBIB_clean_linker_0, # of connection points: 2
#     Edge 14, Type (0, 1), BuildingBlock: UKIBIB_clean_linker_0, # of connection points: 2
#     Edge 15, Type (0, 1), BuildingBlock: UKIBIB_clean_linker_0, # of connection points: 2
# Relax obj value: 0.254
# Max RMSD: 0.260
# Mean RMSD: 0.225
data_MOF--net-nia--node1-CUWYAW_clean_sbu_0--node2-MIDCAF_clean_sbu_0--edge1-UKIBIB_clean_linker_0
_symmetry_space_group_name_H-M    P1
_symmetry_Int_Tables_number       1
_symmetry_cell_setting            triclinic
loop_
_symmetry_equiv_pos_as_xyz
'x, y, z'
_cell_length_a     36.221705
_cell_length_b     33.57235
_cell_length_c     45.46422
_cell_angle_alpha  98.11428
_cell_angle_beta   74.451395
_cell_angle_gamma 127.16472
loop_
_atom_site_label
_atom_site_type_symbol
_atom_site_fract_x
_atom_site_fract_y
_atom_site_fract_z
_atom_type_partial_charge
C0 C 0.04889 0.9401 0.06109 0.0
Eu1 Eu 0.01655 0.97928 0.04068 0.0
C2 C 0.04466 0.89334 0.06054 0.0
C3 C 0.01329 0.85738 0.08442 0.0
C4 C 0.01879 0.82104 0.08874 0.0
C5 C 0.05575 0.82053 0.06935 0.0
C6 C 0.08335 0.85235 0.0435 0.0
C7 C 0.0778 0.88855 0.03906 0.0
C8 C 0.92902 0.95913 0.05795 0.0
C9 C 0.96987 0.91323 0.98374 0.0
C10 C 0.9543 0.05583 0.97708 0.0
Eu11 Eu 0.99157 0.02116 0.99625 0.0
C12 C 0.96 0.1034 0.97588 0.0
C13 C 0.99191 0.13849 0.95155 0.0
C14 C 0.98716 0.1751 0.94617 0.0
C15 C 0.95049 0.17691 0.96492 0.0
C16 C 0.92301 0.14652 0.9914 0.0
C17 C 0.92772 0.11001 0.99683 0.0
C18 C 0.08534 0.05659 0.97752 0.0
C19 C 0.04123 0.08727 0.05169 0.0
O20 O 0.06981 0.96641 0.03556 0.0
O21 O 0.01315 0.9404 0.07714 0.0
O22 O 0.95356 0.96657 0.07704 0.0
O23 O 0.95028 0.95947 0.03095 0.0
O24 O 0.99116 0.92054 1.00546 0.0
O25 O 0.96193 0.94432 0.97708 0.0
O26 O 0.93806 0.03445 1.00408 0.0
O27 O 0.98654 0.05131 0.95906 0.0
O28 O 0.0641 0.06498 0.96323 0.0
O29 O 0.05487 0.02888 1.00045 0.0
O30 O 0.0122 0.07578 0.0344 0.0
O31 O 0.05357 0.05864 0.05502 0.0
H32 H 0.98726 0.85987 0.10127 0.0
H33 H -0.00235 0.797 0.10906 0.0
H34 H 0.11246 0.85272 0.0286 0.0
H35 H 0.10237 0.91548 0.02034 0.0
H36 H 0.01777 0.13515 0.9352 0.0
H37 H 0.00857 0.19825 0.92551 0.0
H38 H 0.89416 0.14695 1.00595 0.0
H39 H 0.90298 0.08403 0.01597 0.0
C40 C 0.90279 0.94359 0.46774 0.0
Eu41 Eu 0.96611 0.9725 0.49874 0.0
C42 C 0.8565 0.93552 0.4706 0.0
C43 C 0.81277 0.88794 0.47869 0.0
C44 C 0.77091 0.87679 0.47363 0.0
C45 C 0.77184 0.91279 0.46041 0.0
C46 C 0.8141 0.96159 0.45529 0.0
C47 C 0.85598 0.9729 0.46046 0.0
C48 C 0.94844 0.91598 0.54583 0.0
C49 C 0.96275 0.04156 0.55709 0.0
C50 C 0.1166 0.06252 0.56607 0.0
Eu51 Eu 0.05275 0.03678 0.53609 0.0
C52 C 0.16122 0.0675 0.56423 0.0
C53 C 0.20625 0.11411 0.557 0.0
C54 C 0.24672 0.12223 0.56245 0.0
C55 C 0.24302 0.08423 0.5757 0.0
C56 C 0.19913 0.03648 0.58032 0.0
C57 C 0.1588 0.02814 0.57451 0.0
C58 C 0.06532 0.08993 0.48853 0.0
C59 C 0.05586 0.96634 0.47864 0.0
O60 O 0.94168 0.98953 0.46655 0.0
O61 O 0.90237 0.91274 0.48274 0.0
O62 O 0.92127 0.90162 0.5273 0.0
O63 O 0.98341 0.96144 0.53903 0.0
O64 O 0.94821 0.01802 0.53212 0.0
O65 O -0.0016 0.04815 0.5658 0.0
O66 O 0.07628 0.01775 0.56788 0.0
O67 O 0.11923 0.09414 0.55023 0.0
O68 O 0.09094 0.10964 0.50867 0.0
O69 O 0.03838 0.04309 0.49348 0.0
O70 O 0.07198 -0.00694 0.50245 0.0
O71 O 0.01888 0.95752 0.47027 0.0
H72 H 0.81143 0.85815 0.48676 0.0
H73 H 0.7387 0.83879 0.47759 0.0
H74 H 0.81572 0.98988 0.44487 0.0
H75 H 0.88873 0.00998 0.45425 0.0
H76 H 0.20976 0.14538 0.549 0.0
H77 H 0.28003 0.15943 0.55865 0.0
H78 H 0.19535 0.00628 0.59016 0.0
H79 H 0.12504 0.99163 0.58006 0.0
Zn80 Zn 0.3304 0.65687 0.19146 0.0
Zn81 Zn 0.30346 0.64392 0.33507 0.0
Zn82 Zn 0.30768 0.64517 0.26361 0.0
C83 C 0.38124 0.66798 0.28854 0.0
C84 C 0.23729 0.54913 0.31351 0.0
O85 O 0.26769 0.66212 0.25013 0.0
O86 O 0.28979 0.67567 0.19944 0.0
C87 C 0.4119 0.71571 0.21005 0.0
O88 O 0.37781 0.68668 0.26781 0.0
O89 O 0.34423 0.63034 0.30347 0.0
O90 O 0.24323 0.57762 0.33617 0.0
O91 O 0.26183 0.567 0.2859 0.0
O92 O 0.39439 0.70993 0.18807 0.0
O93 O 0.38547 0.69313 0.23629 0.0
O94 O 0.27416 0.57037 0.25113 0.0
O95 O 0.30378 0.58726 0.20085 0.0
C96 C 0.28183 0.55724 0.22359 0.0
O97 O 0.27989 0.68789 0.28874 0.0
O98 O 0.30029 0.7009 0.3332 0.0
C99 C 0.26358 0.67113 0.2253 0.0
C100 C 0.28551 0.71011 0.31464 0.0
Zn101 Zn 0.67771 0.3439 0.84781 0.0
Zn102 Zn 0.719 0.36463 0.69953 0.0
Zn103 Zn 0.70822 0.36267 0.77154 0.0
C104 C 0.75806 0.45825 0.725 0.0
C105 C 0.63514 0.30348 0.74261 0.0
O106 O 0.74479 0.34288 0.78683 0.0
O107 O 0.67826 0.29093 0.82019 0.0
C108 C 0.7647 0.43354 0.82359 0.0
O109 O 0.7362 0.43523 0.75122 0.0
O110 O 0.76371 0.43673 0.70088 0.0
O111 O 0.6617 0.34646 0.73055 0.0
O112 O 0.63615 0.30062 0.77008 0.0
O113 O 0.73543 0.41082 0.84828 0.0
O114 O 0.75767 0.41451 0.79773 0.0
O115 O 0.63151 0.32425 0.79905 0.0
O116 O 0.63373 0.35793 0.84471 0.0
C117 C 0.61112 0.33297 0.8244 0.0
O118 O 0.7492 0.33299 0.7473 0.0
O119 O 0.74806 0.33084 0.69857 0.0
C120 C 0.71967 0.30563 0.80573 0.0
C121 C 0.76081 0.3236 0.71931 0.0
C122 C 0.05904 0.75065 0.0776 0.0
C123 C 0.07524 0.80052 0.08136 0.0
C124 C 0.07733 0.733 0.09096 0.0
C125 C 0.2376 0.72168 0.22627 0.0
C126 C 0.22617 0.67387 0.2248 0.0
C127 C 0.21754 0.73313 0.21019 0.0
H128 H 0.12239 0.87118 0.10133 0.0
H129 H 0.15396 0.83997 0.12495 0.0
H130 H 0.18485 0.59952 0.2066 0.0
H131 H 0.14803 0.61939 0.17908 0.0
C132 C 0.10989 0.83263 0.09815 0.0
C133 C 0.12786 0.81501 0.11152 0.0
C134 C 0.19178 0.63597 0.20924 0.0
C135 C 0.17184 0.64752 0.19301 0.0
C136 C 0.11141 0.76526 0.10803 0.0
C137 C 0.12805 0.74722 0.12341 0.0
C138 C 0.14387 0.73527 0.13711 0.0
C139 C 0.1862 0.69655 0.19275 0.0
C140 C 0.17199 0.71047 0.17259 0.0
C141 C 0.15999 0.72214 0.15558 0.0
H142 H 0.03216 0.72556 0.06477 0.0
H143 H 0.06441 0.69426 0.08846 0.0
H144 H 0.26642 0.75164 0.23646 0.0
H145 H 0.22919 0.77133 0.20956 0.0
C146 C 0.27147 0.0873 0.62098 0.0
C147 C 0.28179 0.0968 0.58956 0.0
C148 C 0.30798 0.10532 0.63573 0.0
C149 C 0.60612 0.26393 0.69633 0.0
C150 C 0.59603 0.26494 0.72842 0.0
C151 C 0.56967 0.24115 0.68098 0.0
H152 H 0.33857 0.13068 0.54869 0.0
H153 H 0.40268 0.161 0.57458 0.0
H154 H 0.54028 0.23881 0.76978 0.0
H155 H 0.47563 0.19749 0.74265 0.0
C156 C 0.32953 0.12296 0.57292 0.0
C157 C 0.36611 0.14041 0.58769 0.0
C158 C 0.54864 0.23829 0.74506 0.0
C159 C 0.51196 0.21536 0.72958 0.0
C160 C 0.35551 0.13261 0.6193 0.0
C161 C 0.393 0.15326 0.63524 0.0
C162 C 0.42284 0.16963 0.64969 0.0
C163 C 0.52265 0.21851 0.69754 0.0
C164 C 0.48616 0.20105 0.6815 0.0
C165 C 0.45691 0.18702 0.66705 0.0
H166 H 0.23521 0.06785 0.63449 0.0
H167 H 0.2991 0.09887 0.66014 0.0
H168 H 0.64264 0.28411 0.68309 0.0
H169 H 0.57852 0.24347 0.65624 0.0
C170 C 0.11032 0.16315 0.06835 0.0
C171 C 0.06292 0.13575 0.06616 0.0
C172 C 0.13173 0.20981 0.0815 0.0
C173 C 0.20941 0.4794 0.21484 0.0
C174 C 0.25713 0.50533 0.21571 0.0
C175 C 0.18925 0.43877 0.19601 0.0
H176 H 0.0009 0.13557 0.07468 0.0
H177 H 0.03846 0.2174 0.09899 0.0
H178 H 0.32173 0.51051 0.19791 0.0
H179 H 0.28508 0.43653 0.16616 0.0
C180 C 0.03744 0.15609 0.0765 0.0
C181 C 0.05878 0.20264 0.09011 0.0
C182 C 0.28409 0.48909 0.19863 0.0
C183 C 0.26363 0.44785 0.1801 0.0
C184 C 0.10573 0.22905 0.09287 0.0
C185 C 0.12668 0.27392 0.10952 0.0
C186 C 0.14891 0.31148 0.1229 0.0
C187 C 0.21659 0.42367 0.17827 0.0
C188 C 0.19634 0.3848 0.15724 0.0
C189 C 0.1756 0.35191 0.14054 0.0
H190 H 0.1309 0.14866 0.0597 0.0
H191 H 0.16825 0.23037 0.08341 0.0
H192 H 0.18916 0.49339 0.22642 0.0
H193 H 0.15306 0.42065 0.19422 0.0
C194 C 0.92728 0.06432 0.60602 0.0
C195 C 0.9399 0.06529 0.57399 0.0
C196 C 0.90636 0.08794 0.62123 0.0
C197 C 0.81193 0.3101 0.67729 0.0
C198 C 0.79004 0.30458 0.70872 0.0
C199 C 0.8307 0.28405 0.66426 0.0
H200 H 0.93908 0.09006 0.53274 0.0
H201 H 0.90413 0.13274 0.55944 0.0
H202 H 0.77712 0.27265 0.75166 0.0
H203 H 0.81135 0.22705 0.72862 0.0
C204 C 0.92998 0.08902 0.55749 0.0
C205 C 0.90988 0.11331 0.57268 0.0
C206 C 0.79245 0.27661 0.7274 0.0
C207 C 0.81184 0.25051 0.71419 0.0
C208 C 0.89865 0.11357 0.60466 0.0
C209 C 0.88223 0.14265 0.62055 0.0
C210 C 0.86846 0.16633 0.63498 0.0
C211 C 0.82917 0.25258 0.68234 0.0
C212 C 0.84255 0.22054 0.66741 0.0
C213 C 0.85445 0.19543 0.65273 0.0
H214 H 0.93346 0.04529 0.61923 0.0
H215 H 0.89727 0.08723 0.64597 0.0
H216 H 0.81244 0.33276 0.66218 0.0
H217 H 0.84461 0.28693 0.63975 0.0
C218 C 0.84394 0.9017 0.0527 0.0
C219 C 0.87877 0.94064 0.06774 0.0
C220 C 0.79549 0.87985 0.06552 0.0
C221 C 0.49536 0.78252 0.21523 0.0
C222 C 0.46277 0.73929 0.20148 0.0
C223 C 0.54413 0.80977 0.20134 0.0
H224 H 0.89097 0.98905 0.10644 0.0
H225 H 0.80672 0.95182 0.12828 0.0
H226 H 0.45424 0.69011 0.16316 0.0
H227 H 0.53858 0.73758 0.1392 0.0
C228 C 0.86473 0.95894 0.09462 0.0
C229 C 0.81673 0.93772 0.10709 0.0
C230 C 0.47908 0.72298 0.17442 0.0
C231 C 0.52708 0.75018 0.16056 0.0
C232 C 0.78194 0.89745 0.09306 0.0
C233 C 0.73272 0.87345 0.10821 0.0
C234 C 0.69326 0.85705 0.12332 0.0
C235 C 0.55973 0.79369 0.17379 0.0
C236 C 0.60894 0.82089 0.15833 0.0
C237 C 0.64824 0.8388 0.14252 0.0
H238 H 0.85391 0.88664 0.03202 0.0
H239 H 0.76877 0.84856 0.05449 0.0
H240 H 0.48309 0.79626 0.2356 0.0
H241 H 0.56939 0.84371 0.21161 0.0
C242 C 0.96462 0.88998 0.58885 0.0
C243 C 0.93853 0.87882 0.56708 0.0
C244 C 0.95062 0.85166 0.60848 0.0
C245 C 0.74652 0.50742 0.69856 0.0
C246 C 0.76808 0.5063 0.71971 0.0
C247 C 0.76588 0.55221 0.68408 0.0
H248 H 0.87816 0.81803 0.54863 0.0
H249 H 0.8548 0.75329 0.58233 0.0
H250 H 0.82478 0.5509 0.74364 0.0
H251 H 0.85797 0.63041 0.71894 0.0
C252 C 0.89921 0.82871 0.56513 0.0
C253 C 0.88555 0.79114 0.58442 0.0
C254 C 0.80708 0.55116 0.72795 0.0
C255 C 0.82633 0.59623 0.71353 0.0
C256 C 0.91074 0.80219 0.60634 0.0
C257 C 0.89387 0.76203 0.62658 0.0
C258 C 0.87528 0.72469 0.64152 0.0
C259 C 0.8068 0.59656 0.69081 0.0
C260 C 0.83055 0.64165 0.67308 0.0
C261 C 0.85102 0.67981 0.65852 0.0
H262 H -0.005 0.92786 0.59098 0.0
H263 H 0.97051 0.86068 0.62544 0.0
H264 H 0.71681 0.47293 0.6915 0.0
H265 H 0.75033 0.55172 0.66658 0.0
C266 C 0.10843 0.94058 0.47672 0.0
C267 C 0.0807 0.94431 0.46209 0.0
C268 C 0.13244 0.92022 0.4619 0.0
C269 C 0.24571 0.75036 0.31106 0.0
C270 C 0.2717 0.74456 0.32584 0.0
C271 C 0.22756 0.77738 0.32468 0.0
H272 H 0.05712 0.92983 0.42029 0.0
H273 H 0.09971 0.89432 0.3942 0.0
H274 H 0.30153 0.76612 0.36602 0.0
H275 H 0.26898 0.81155 0.38955 0.0
C276 C 0.07778 0.92723 0.43222 0.0
C277 C 0.10218 0.90711 0.41732 0.0
C278 C 0.28118 0.76886 0.35385 0.0
C279 C 0.26269 0.79515 0.36749 0.0
C280 C 0.12938 0.90335 0.43212 0.0
C281 C 0.15368 0.88181 0.41664 0.0
C282 C 0.17298 0.8634 0.40229 0.0
C283 C 0.23488 0.7986 0.35338 0.0
C284 C 0.21212 0.82155 0.36945 0.0
C285 C 0.19439 0.84124 0.38437 0.0
H286 H 0.11134 0.95295 0.49987 0.0
H287 H 0.1532 0.91755 0.47374 0.0
H288 H 0.23756 0.73216 0.28978 0.0
H289 H 0.20638 0.7801 0.31333 0.0
C290 C 0.1616 0.07008 0.98121 0.0
C291 C 0.13592 0.07548 0.9657 0.0
C292 C 0.21068 0.09293 0.96906 0.0
C293 C 0.52965 0.30429 0.8228 0.0
C294 C 0.55919 0.30126 0.83546 0.0
C295 C 0.48115 0.27909 0.83732 0.0
H296 H 0.14141 0.10745 0.925 0.0
H297 H 0.22541 0.14674 0.90462 0.0
H298 H 0.56229 0.27053 0.87285 0.0
H299 H 0.478 0.22617 0.89763 0.0
C300 C 0.15986 0.10264 0.93775 0.0
C301 C 0.20814 0.12529 0.92592 0.0
C302 C 0.53985 0.27263 0.86242 0.0
C303 C 0.49187 0.2476 0.87671 0.0
C304 C 0.23409 0.12124 0.9415 0.0
C305 C 0.28464 0.14754 0.92858 0.0
C306 C 0.32561 0.17194 0.91419 0.0
C307 C 0.46228 0.25083 0.86443 0.0
C308 C 0.41279 0.22466 0.88019 0.0
C309 C 0.37252 0.20103 0.89565 0.0
H310 H 0.1443 0.04943 1.00275 0.0
H311 H 0.23035 0.08923 0.98133 0.0
H312 H 0.54429 0.32728 0.8025 0.0
H313 H 0.45867 0.28217 0.82766 0.0
C314 C 0.05341 0.15182 0.4775 0.0
C315 C 0.06791 0.12085 0.46632 0.0
C316 C 0.06747 0.19176 0.45958 0.0
C317 C 0.22133 0.46468 0.30725 0.0
C318 C 0.20761 0.49511 0.32176 0.0
C319 C 0.20331 0.4197 0.32149 0.0
H320 H 0.11027 0.10919 0.42761 0.0
H321 H 0.13406 0.17848 0.39599 0.0
H322 H 0.16121 0.50007 0.3613 0.0
H323 H 0.12978 0.42179 0.38566 0.0
C324 C 0.09663 0.13075 0.43646 0.0
C325 C 0.11091 0.17094 0.41854 0.0
C326 C 0.17254 0.47748 0.34945 0.0
C327 C 0.15478 0.43286 0.36361 0.0
C328 C 0.09708 0.20231 0.43015 0.0
C329 C 0.11417 0.24592 0.41244 0.0
C330 C 0.12806 0.2824 0.39802 0.0
C331 C 0.17116 0.40439 0.35026 0.0
C332 C 0.15649 0.36098 0.36678 0.0
C333 C 0.14366 0.32493 0.38109 0.0
H334 H 0.03296 0.14655 0.50077 0.0
H335 H 0.05649 0.21548 0.46919 0.0
H336 H 0.24864 0.47743 0.28622 0.0
H337 H 0.2162 0.39808 0.31067 0.0
C338 C 0.93282 0.2381 0.96154 0.0
C339 C 0.93028 0.19511 0.95157 0.0
C340 C 0.91078 0.25185 0.94861 0.0
C341 C 0.73236 0.24378 0.81331 0.0
C342 C 0.74263 0.2913 0.81849 0.0
C343 C 0.7509 0.22849 0.82836 0.0
H344 H 0.90191 0.13196 0.92177 0.0
H345 H 0.86345 0.15583 0.89948 0.0
H346 H 0.7761 0.35862 0.84452 0.0
H347 H 0.80806 0.33156 0.8713 0.0
C348 C 0.90503 0.16579 0.92923 0.0
C349 C 0.88293 0.17918 0.91665 0.0
C350 C 0.76972 0.3227 0.83947 0.0
C351 C 0.78744 0.30714 0.85486 0.0
C352 C 0.88583 0.22215 0.92617 0.0
C353 C 0.86282 0.23452 0.91232 0.0
C354 C 0.84159 0.23849 0.89819 0.0
C355 C 0.77837 0.26033 0.84917 0.0
C356 C 0.79793 0.24615 0.86503 0.0
C357 C 0.81705 0.24076 0.8802 0.0
H358 H 0.95165 0.26072 0.97908 0.0
H359 H 0.913 0.2852 0.9561 0.0
H360 H 0.70999 0.21872 0.79782 0.0
H361 H 0.74349 0.192 0.82405 0.0
C362 C 0.69516 0.89792 0.45836 0.0
C363 C 0.73379 0.89598 0.4448 0.0
C364 C 0.65794 0.87724 0.44353 0.0
C365 C 0.45983 0.69581 0.29187 0.0
C366 C 0.42133 0.69816 0.30248 0.0
C367 C 0.4949 0.71796 0.30837 0.0
H368 H 0.76491 0.87301 0.40519 0.0
H369 H 0.70012 0.83708 0.37944 0.0
H370 H 0.3869 0.72296 0.33845 0.0
H371 H 0.44929 0.76311 0.36708 0.0
C372 C 0.73537 0.87471 0.41604 0.0
C373 C 0.69846 0.85418 0.40137 0.0
C374 C 0.41748 0.72234 0.32963 0.0
C375 C 0.4526 0.74465 0.34604 0.0
C376 C 0.6593 0.85464 0.41519 0.0
C377 C 0.62048 0.83053 0.40026 0.0
C378 C 0.59014 0.8094 0.38587 0.0
C379 C 0.49125 0.7423 0.33551 0.0
C380 C 0.52704 0.76508 0.3527 0.0
C381 C 0.55601 0.78482 0.36801 0.0
H382 H 0.6933 0.91427 0.48052 0.0
H383 H 0.62786 0.87804 0.45438 0.0
H384 H 0.4619 0.67559 0.27144 0.0
H385 H 0.52444 0.71554 0.30018 0.0
C386 C 0.90511 0.83607 0.96418 0.0
C387 C 0.95163 0.86599 0.96839 0.0
C388 C 0.88735 0.78955 0.95103 0.0
C389 C 0.84063 0.51365 0.82696 0.0
C390 C 0.79387 0.48741 0.82439 0.0
C391 C 0.86169 0.55995 0.84063 0.0
H392 H 0.01527 0.87078 0.96436 0.0
H393 H 0.98459 0.78984 0.94 0.0
H394 H 0.73424 0.49016 0.82868 0.0
H395 H 0.77143 0.57172 0.85285 0.0
C396 C 0.97959 0.8484 0.96054 0.0
C397 C 0.96205 0.80225 0.94705 0.0
C398 C 0.77056 0.51034 0.83098 0.0
C399 C 0.79146 0.55646 0.84487 0.0
C400 C 0.91625 0.77331 0.94185 0.0
C401 C 0.90058 0.72964 0.92419 0.0
C402 C 0.88496 0.69268 0.90948 0.0
C403 C 0.83587 0.57965 0.85128 0.0
C404 C 0.8522 0.61943 0.87218 0.0
C405 C 0.86711 0.65287 0.88965 0.0
H406 H 0.88252 0.84839 0.97131 0.0
H407 H 0.85162 0.76688 0.94729 0.0
H408 H 0.8587 0.49612 0.8216 0.0
H409 H 0.89632 0.57814 0.84532 0.0
loop_
_geom_bond_atom_site_label_1
_geom_bond_atom_site_label_2
_geom_bond_distance
_geom_bond_site_symmetry_2
_ccdc_geom_bond_type
C0 Eu1 2.835 . S
C0 C2 1.500 . S
C0 O20 1.257 . S
C0 O21 1.260 . S
Eu1 C0 2.835 . S
Eu1 O20 2.473 . S
Eu1 O21 2.480 . S
Eu1 O22 2.430 1_455 S
Eu1 O23 2.670 1_455 S
Eu1 O24 2.394 1_455 S
Eu1 O29 2.355 1_564 S
Eu1 O31 2.374 1_565 S
C2 C0 1.500 . S
C2 C3 1.377 . S
C2 C7 1.377 . S
C3 C2 1.377 . S
C3 C4 1.395 . S
C3 H32 0.931 1_455 S
C4 C3 1.395 . S
C4 C5 1.383 . S
C4 H33 0.931 . S
C5 C4 1.383 . S
C5 C6 1.394 . S
C6 C5 1.394 . S
C6 C7 1.378 . S
C6 H34 0.931 . S
C7 C2 1.377 . S
C7 C6 1.378 . S
C7 H35 0.931 . S
C8 O22 1.259 . S
C8 O23 1.270 . S
C9 O24 1.251 1_556 S
C9 O25 1.251 . S
C10 Eu11 2.835 . S
C10 C12 1.500 . S
C10 O26 1.257 . S
C10 O27 1.260 1_655 S
Eu11 C10 2.835 . S
Eu11 O23 2.355 1_546 S
Eu11 O25 2.374 1_545 S
Eu11 O26 2.473 . S
Eu11 O27 2.480 1_655 S
Eu11 O28 2.430 1_655 S
Eu11 O29 2.670 1_655 S
Eu11 O30 2.394 1_656 S
C12 C10 1.500 . S
C12 C13 1.377 . S
C12 C17 1.377 . S
C13 C12 1.377 . S
C13 C14 1.395 . S
C13 H36 0.931 1_655 S
C14 C13 1.395 . S
C14 C15 1.383 . S
C14 H37 0.931 1_655 S
C15 C14 1.383 . S
C15 C16 1.394 . S
C16 C15 1.394 . S
C16 C17 1.378 . S
C16 H38 0.931 . S
C17 C12 1.377 . S
C17 C16 1.378 . S
C17 H39 0.931 . S
C18 O28 1.259 . S
C18 O29 1.270 . S
C19 O30 1.251 . S
C19 O31 1.251 . S
O20 C0 1.257 . S
O20 Eu1 2.473 . S
O21 C0 1.260 . S
O21 Eu1 2.480 . S
O22 Eu1 2.430 1_655 S
O22 C8 1.259 . S
O23 Eu1 2.670 1_655 S
O23 C8 1.270 . S
O23 Eu11 2.355 1_564 S
O24 Eu1 2.394 1_655 S
O24 C9 1.251 1_554 S
O25 C9 1.251 . S
O25 Eu11 2.374 1_565 S
O26 C10 1.257 . S
O26 Eu11 2.473 . S
O27 C10 1.260 1_455 S
O27 Eu11 2.480 1_455 S
O28 Eu11 2.430 1_455 S
O28 C18 1.259 . S
O29 Eu1 2.355 1_546 S
O29 Eu11 2.670 1_455 S
O29 C18 1.270 . S
O30 Eu11 2.394 1_454 S
O30 C19 1.251 . S
O31 Eu1 2.374 1_545 S
O31 C19 1.251 . S
H32 C3 0.931 1_655 S
H33 C4 0.931 . S
H34 C6 0.931 . S
H35 C7 0.931 . S
H36 C13 0.931 1_455 S
H37 C14 0.931 1_455 S
H38 C16 0.931 . S
H39 C17 0.931 . S
C40 Eu41 2.835 . S
C40 C42 1.500 . S
C40 O60 1.257 . S
C40 O61 1.260 . S
Eu41 C40 2.835 . S
Eu41 O60 2.473 . S
Eu41 O61 2.480 . S
Eu41 O62 2.430 . S
Eu41 O63 2.670 1_655 S
Eu41 O64 2.394 . S
Eu41 O69 2.355 1_665 S
Eu41 O71 2.374 1_655 S
C42 C40 1.500 . S
C42 C43 1.377 . S
C42 C47 1.377 . S
C43 C42 1.377 . S
C43 C44 1.395 . S
C43 H72 0.931 . S
C44 C43 1.395 . S
C44 C45 1.383 . S
C44 H73 0.931 . S
C45 C44 1.383 . S
C45 C46 1.394 . S
C46 C45 1.394 . S
C46 C47 1.378 . S
C46 H74 0.931 . S
C47 C42 1.377 . S
C47 C46 1.378 . S
C47 H75 0.931 1_565 S
C48 O62 1.259 . S
C48 O63 1.270 1_655 S
C49 O64 1.251 1_545 S
C49 O65 1.251 . S
C50 Eu51 2.835 . S
C50 C52 1.500 . S
C50 O66 1.257 . S
C50 O67 1.260 . S
Eu51 C50 2.835 . S
Eu51 O63 2.355 1_545 S
Eu51 O65 2.374 1_455 S
Eu51 O66 2.473 . S
Eu51 O67 2.480 . S
Eu51 O68 2.430 . S
Eu51 O69 2.670 . S
Eu51 O70 2.394 . S
C52 C50 1.500 . S
C52 C53 1.377 . S
C52 C57 1.377 . S
C53 C52 1.377 . S
C53 C54 1.395 . S
C53 H76 0.931 . S
C54 C53 1.395 . S
C54 C55 1.383 . S
C54 H77 0.931 . S
C55 C54 1.383 . S
C55 C56 1.394 . S
C56 C55 1.394 . S
C56 C57 1.378 . S
C56 H78 0.931 . S
C57 C52 1.377 . S
C57 C56 1.378 . S
C57 H79 0.931 . S
C58 O68 1.259 . S
C58 O69 1.270 . S
C59 O70 1.251 1_565 S
C59 O71 1.251 . S
O60 C40 1.257 . S
O60 Eu41 2.473 . S
O61 C40 1.260 . S
O61 Eu41 2.480 . S
O62 Eu41 2.430 . S
O62 C48 1.259 . S
O63 Eu41 2.670 1_455 S
O63 C48 1.270 1_455 S
O63 Eu51 2.355 1_565 S
O64 Eu41 2.394 . S
O64 C49 1.251 1_565 S
O65 C49 1.251 . S
O65 Eu51 2.374 1_655 S
O66 C50 1.257 . S
O66 Eu51 2.473 . S
O67 C50 1.260 . S
O67 Eu51 2.480 . S
O68 Eu51 2.430 . S
O68 C58 1.259 . S
O69 Eu41 2.355 1_445 S
O69 Eu51 2.670 . S
O69 C58 1.270 . S
O70 Eu51 2.394 . S
O70 C59 1.251 1_545 S
O71 Eu41 2.374 1_455 S
O71 C59 1.251 . S
H72 C43 0.931 . S
H73 C44 0.931 . S
H74 C46 0.931 . S
H75 C47 0.931 1_545 S
H76 C53 0.931 . S
H77 C54 0.931 . S
H78 C56 0.931 . S
H79 C57 0.931 . S
Zn80 O86 1.920 . S
Zn80 O92 1.898 . S
Zn80 O95 1.905 . S
Zn81 O89 1.905 . S
Zn81 O90 1.898 . S
Zn81 O98 1.920 . S
Zn82 O85 2.080 . S
Zn82 O88 2.114 . S
Zn82 O91 2.120 . S
Zn82 O93 2.120 . S
Zn82 O94 2.114 . S
Zn82 O97 2.080 . S
C83 O88 1.166 . S
C83 O89 1.182 . S
C84 O90 1.167 . S
C84 O91 1.299 . S
O85 Zn82 2.080 . S
O85 C99 1.305 . S
O86 Zn80 1.920 . S
O86 C99 1.234 . S
C87 O92 1.167 . S
C87 O93 1.299 . S
O88 Zn82 2.114 . S
O88 C83 1.166 . S
O89 Zn81 1.905 . S
O89 C83 1.182 . S
O90 Zn81 1.898 . S
O90 C84 1.167 . S
O91 Zn82 2.120 . S
O91 C84 1.299 . S
O92 Zn80 1.898 . S
O92 C87 1.167 . S
O93 Zn82 2.120 . S
O93 C87 1.299 . S
O94 Zn82 2.114 . S
O94 C96 1.166 . S
O95 Zn80 1.905 . S
O95 C96 1.182 . S
C96 O94 1.166 . S
C96 O95 1.182 . S
O97 Zn82 2.080 . S
O97 C100 1.305 . S
O98 Zn81 1.920 . S
O98 C100 1.234 . S
C99 O85 1.305 . S
C99 O86 1.234 . S
C100 O97 1.305 . S
C100 O98 1.234 . S
Zn101 O107 1.920 . S
Zn101 O113 1.898 . S
Zn101 O116 1.905 . S
Zn102 O110 1.905 . S
Zn102 O111 1.898 . S
Zn102 O119 1.920 . S
Zn103 O106 2.080 . S
Zn103 O109 2.114 . S
Zn103 O112 2.120 . S
Zn103 O114 2.120 . S
Zn103 O115 2.114 . S
Zn103 O118 2.080 . S
C104 O109 1.166 . S
C104 O110 1.182 . S
C105 O111 1.167 . S
C105 O112 1.299 . S
O106 Zn103 2.080 . S
O106 C120 1.305 . S
O107 Zn101 1.920 . S
O107 C120 1.234 . S
C108 O113 1.167 . S
C108 O114 1.299 . S
O109 Zn103 2.114 . S
O109 C104 1.166 . S
O110 Zn102 1.905 . S
O110 C104 1.182 . S
O111 Zn102 1.898 . S
O111 C105 1.167 . S
O112 Zn103 2.120 . S
O112 C105 1.299 . S
O113 Zn101 1.898 . S
O113 C108 1.167 . S
O114 Zn103 2.120 . S
O114 C108 1.299 . S
O115 Zn103 2.114 . S
O115 C117 1.166 . S
O116 Zn101 1.905 . S
O116 C117 1.182 . S
C117 O115 1.166 . S
C117 O116 1.182 . S
O118 Zn103 2.080 . S
O118 C121 1.305 . S
O119 Zn102 1.920 . S
O119 C121 1.234 . S
C120 O106 1.305 . S
C120 O107 1.234 . S
C121 O118 1.305 . S
C121 O119 1.234 . S
C122 C123 1.332 . S
C122 C124 1.345 . S
C122 H142 0.932 . S
C123 C122 1.332 . S
C123 C132 1.332 . S
C124 C122 1.345 . S
C124 C136 1.334 . S
C124 H143 0.928 . S
C125 C126 1.332 . S
C125 C127 1.345 . S
C125 H144 0.932 . S
C126 C125 1.332 . S
C126 C134 1.332 . S
C127 C125 1.345 . S
C127 C139 1.334 . S
C127 H145 0.928 . S
H128 C132 0.932 . S
H129 C133 0.928 . S
H130 C134 0.932 . S
H131 C135 0.928 . S
C132 C123 1.332 . S
C132 H128 0.932 . S
C132 C133 1.345 . S
C133 H129 0.928 . S
C133 C132 1.345 . S
C133 C136 1.334 . S
C134 C126 1.332 . S
C134 H130 0.932 . S
C134 C135 1.345 . S
C135 H131 0.928 . S
C135 C134 1.345 . S
C135 C139 1.334 . S
C136 C124 1.334 . S
C136 C133 1.334 . S
C136 C137 1.487 . S
C137 C136 1.487 . S
C137 C138 1.185 . S
C138 C137 1.185 . S
C138 C141 1.482 . S
C139 C127 1.334 . S
C139 C135 1.334 . S
C139 C140 1.487 . S
C140 C139 1.487 . S
C140 C141 1.185 . S
C141 C138 1.482 . S
C141 C140 1.185 . S
H142 C122 0.932 . S
H143 C124 0.928 . S
H144 C125 0.932 . S
H145 C127 0.928 . S
C146 C147 1.332 . S
C146 C148 1.345 . S
C146 H166 0.932 . S
C147 C146 1.332 . S
C147 C156 1.332 . S
C148 C146 1.345 . S
C148 C160 1.334 . S
C148 H167 0.928 . S
C149 C150 1.332 . S
C149 C151 1.345 . S
C149 H168 0.932 . S
C150 C149 1.332 . S
C150 C158 1.332 . S
C151 C149 1.345 . S
C151 C163 1.334 . S
C151 H169 0.928 . S
H152 C156 0.932 . S
H153 C157 0.928 . S
H154 C158 0.932 . S
H155 C159 0.928 . S
C156 C147 1.332 . S
C156 H152 0.932 . S
C156 C157 1.345 . S
C157 H153 0.928 . S
C157 C156 1.345 . S
C157 C160 1.334 . S
C158 C150 1.332 . S
C158 H154 0.932 . S
C158 C159 1.345 . S
C159 H155 0.928 . S
C159 C158 1.345 . S
C159 C163 1.334 . S
C160 C148 1.334 . S
C160 C157 1.334 . S
C160 C161 1.487 . S
C161 C160 1.487 . S
C161 C162 1.185 . S
C162 C161 1.185 . S
C162 C165 1.482 . S
C163 C151 1.334 . S
C163 C159 1.334 . S
C163 C164 1.487 . S
C164 C163 1.487 . S
C164 C165 1.185 . S
C165 C162 1.482 . S
C165 C164 1.185 . S
H166 C146 0.932 . S
H167 C148 0.928 . S
H168 C149 0.932 . S
H169 C151 0.928 . S
C170 C171 1.332 . S
C170 C172 1.345 . S
C170 H190 0.932 . S
C171 C170 1.332 . S
C171 C180 1.332 . S
C172 C170 1.345 . S
C172 C184 1.334 . S
C172 H191 0.928 . S
C173 C174 1.332 . S
C173 C175 1.345 . S
C173 H192 0.932 . S
C174 C173 1.332 . S
C174 C182 1.332 . S
C175 C173 1.345 . S
C175 C187 1.334 . S
C175 H193 0.928 . S
H176 C180 0.932 . S
H177 C181 0.928 . S
H178 C182 0.932 . S
H179 C183 0.928 . S
C180 C171 1.332 . S
C180 H176 0.932 . S
C180 C181 1.345 . S
C181 H177 0.928 . S
C181 C180 1.345 . S
C181 C184 1.334 . S
C182 C174 1.332 . S
C182 H178 0.932 . S
C182 C183 1.345 . S
C183 H179 0.928 . S
C183 C182 1.345 . S
C183 C187 1.334 . S
C184 C172 1.334 . S
C184 C181 1.334 . S
C184 C185 1.487 . S
C185 C184 1.487 . S
C185 C186 1.185 . S
C186 C185 1.185 . S
C186 C189 1.482 . S
C187 C175 1.334 . S
C187 C183 1.334 . S
C187 C188 1.487 . S
C188 C187 1.487 . S
C188 C189 1.185 . S
C189 C186 1.482 . S
C189 C188 1.185 . S
H190 C170 0.932 . S
H191 C172 0.928 . S
H192 C173 0.932 . S
H193 C175 0.928 . S
C194 C195 1.332 . S
C194 C196 1.345 . S
C194 H214 0.932 . S
C195 C194 1.332 . S
C195 C204 1.332 . S
C196 C194 1.345 . S
C196 C208 1.334 . S
C196 H215 0.928 . S
C197 C198 1.332 . S
C197 C199 1.345 . S
C197 H216 0.932 . S
C198 C197 1.332 . S
C198 C206 1.332 . S
C199 C197 1.345 . S
C199 C211 1.334 . S
C199 H217 0.928 . S
H200 C204 0.932 . S
H201 C205 0.928 . S
H202 C206 0.932 . S
H203 C207 0.928 . S
C204 C195 1.332 . S
C204 H200 0.932 . S
C204 C205 1.345 . S
C205 H201 0.928 . S
C205 C204 1.345 . S
C205 C208 1.334 . S
C206 C198 1.332 . S
C206 H202 0.932 . S
C206 C207 1.345 . S
C207 H203 0.928 . S
C207 C206 1.345 . S
C207 C211 1.334 . S
C208 C196 1.334 . S
C208 C205 1.334 . S
C208 C209 1.487 . S
C209 C208 1.487 . S
C209 C210 1.185 . S
C210 C209 1.185 . S
C210 C213 1.482 . S
C211 C199 1.334 . S
C211 C207 1.334 . S
C211 C212 1.487 . S
C212 C211 1.487 . S
C212 C213 1.185 . S
C213 C210 1.482 . S
C213 C212 1.185 . S
H214 C194 0.932 . S
H215 C196 0.928 . S
H216 C197 0.932 . S
H217 C199 0.928 . S
C218 C219 1.332 . S
C218 C220 1.345 . S
C218 H238 0.932 . S
C219 C218 1.332 . S
C219 C228 1.332 . S
C220 C218 1.345 . S
C220 C232 1.334 . S
C220 H239 0.928 . S
C221 C222 1.332 . S
C221 C223 1.345 . S
C221 H240 0.932 . S
C222 C221 1.332 . S
C222 C230 1.332 . S
C223 C221 1.345 . S
C223 C235 1.334 . S
C223 H241 0.928 . S
H224 C228 0.932 . S
H225 C229 0.928 . S
H226 C230 0.932 . S
H227 C231 0.928 . S
C228 C219 1.332 . S
C228 H224 0.932 . S
C228 C229 1.345 . S
C229 H225 0.928 . S
C229 C228 1.345 . S
C229 C232 1.334 . S
C230 C222 1.332 . S
C230 H226 0.932 . S
C230 C231 1.345 . S
C231 H227 0.928 . S
C231 C230 1.345 . S
C231 C235 1.334 . S
C232 C220 1.334 . S
C232 C229 1.334 . S
C232 C233 1.487 . S
C233 C232 1.487 . S
C233 C234 1.185 . S
C234 C233 1.185 . S
C234 C237 1.482 . S
C235 C223 1.334 . S
C235 C231 1.334 . S
C235 C236 1.487 . S
C236 C235 1.487 . S
C236 C237 1.185 . S
C237 C234 1.482 . S
C237 C236 1.185 . S
H238 C218 0.932 . S
H239 C220 0.928 . S
H240 C221 0.932 . S
H241 C223 0.928 . S
C242 C243 1.332 . S
C242 C244 1.345 . S
C242 H262 0.932 . S
C243 C242 1.332 . S
C243 C252 1.332 . S
C244 C242 1.345 . S
C244 C256 1.334 . S
C244 H263 0.928 . S
C245 C246 1.332 . S
C245 C247 1.345 . S
C245 H264 0.932 . S
C246 C245 1.332 . S
C246 C254 1.332 . S
C247 C245 1.345 . S
C247 C259 1.334 . S
C247 H265 0.928 . S
H248 C252 0.932 . S
H249 C253 0.928 . S
H250 C254 0.932 . S
H251 C255 0.928 . S
C252 C243 1.332 . S
C252 H248 0.932 . S
C252 C253 1.345 . S
C253 H249 0.928 . S
C253 C252 1.345 . S
C253 C256 1.334 . S
C254 C246 1.332 . S
C254 H250 0.932 . S
C254 C255 1.345 . S
C255 H251 0.928 . S
C255 C254 1.345 . S
C255 C259 1.334 . S
C256 C244 1.334 . S
C256 C253 1.334 . S
C256 C257 1.487 . S
C257 C256 1.487 . S
C257 C258 1.185 . S
C258 C257 1.185 . S
C258 C261 1.482 . S
C259 C247 1.334 . S
C259 C255 1.334 . S
C259 C260 1.487 . S
C260 C259 1.487 . S
C260 C261 1.185 . S
C261 C258 1.482 . S
C261 C260 1.185 . S
H262 C242 0.932 . S
H263 C244 0.928 . S
H264 C245 0.932 . S
H265 C247 0.928 . S
C266 C267 1.332 . S
C266 C268 1.345 . S
C266 H286 0.932 . S
C267 C266 1.332 . S
C267 C276 1.332 . S
C268 C266 1.345 . S
C268 C280 1.334 . S
C268 H287 0.928 . S
C269 C270 1.332 . S
C269 C271 1.345 . S
C269 H288 0.932 . S
C270 C269 1.332 . S
C270 C278 1.332 . S
C271 C269 1.345 . S
C271 C283 1.334 . S
C271 H289 0.928 . S
H272 C276 0.932 . S
H273 C277 0.928 . S
H274 C278 0.932 . S
H275 C279 0.928 . S
C276 C267 1.332 . S
C276 H272 0.932 . S
C276 C277 1.345 . S
C277 H273 0.928 . S
C277 C276 1.345 . S
C277 C280 1.334 . S
C278 C270 1.332 . S
C278 H274 0.932 . S
C278 C279 1.345 . S
C279 H275 0.928 . S
C279 C278 1.345 . S
C279 C283 1.334 . S
C280 C268 1.334 . S
C280 C277 1.334 . S
C280 C281 1.487 . S
C281 C280 1.487 . S
C281 C282 1.185 . S
C282 C281 1.185 . S
C282 C285 1.482 . S
C283 C271 1.334 . S
C283 C279 1.334 . S
C283 C284 1.487 . S
C284 C283 1.487 . S
C284 C285 1.185 . S
C285 C282 1.482 . S
C285 C284 1.185 . S
H286 C266 0.932 . S
H287 C268 0.928 . S
H288 C269 0.932 . S
H289 C271 0.928 . S
C290 C291 1.332 . S
C290 C292 1.345 . S
C290 H310 0.932 . S
C291 C290 1.332 . S
C291 C300 1.332 . S
C292 C290 1.345 . S
C292 C304 1.334 . S
C292 H311 0.928 . S
C293 C294 1.332 . S
C293 C295 1.345 . S
C293 H312 0.932 . S
C294 C293 1.332 . S
C294 C302 1.332 . S
C295 C293 1.345 . S
C295 C307 1.334 . S
C295 H313 0.928 . S
H296 C300 0.932 . S
H297 C301 0.928 . S
H298 C302 0.932 . S
H299 C303 0.928 . S
C300 C291 1.332 . S
C300 H296 0.932 . S
C300 C301 1.345 . S
C301 H297 0.928 . S
C301 C300 1.345 . S
C301 C304 1.334 . S
C302 C294 1.332 . S
C302 H298 0.932 . S
C302 C303 1.345 . S
C303 H299 0.928 . S
C303 C302 1.345 . S
C303 C307 1.334 . S
C304 C292 1.334 . S
C304 C301 1.334 . S
C304 C305 1.487 . S
C305 C304 1.487 . S
C305 C306 1.185 . S
C306 C305 1.185 . S
C306 C309 1.482 . S
C307 C295 1.334 . S
C307 C303 1.334 . S
C307 C308 1.487 . S
C308 C307 1.487 . S
C308 C309 1.185 . S
C309 C306 1.482 . S
C309 C308 1.185 . S
H310 C290 0.932 . S
H311 C292 0.928 . S
H312 C293 0.932 . S
H313 C295 0.928 . S
C314 C315 1.332 . S
C314 C316 1.345 . S
C314 H334 0.932 . S
C315 C314 1.332 . S
C315 C324 1.332 . S
C316 C314 1.345 . S
C316 C328 1.334 . S
C316 H335 0.928 . S
C317 C318 1.332 . S
C317 C319 1.345 . S
C317 H336 0.932 . S
C318 C317 1.332 . S
C318 C326 1.332 . S
C319 C317 1.345 . S
C319 C331 1.334 . S
C319 H337 0.928 . S
H320 C324 0.932 . S
H321 C325 0.928 . S
H322 C326 0.932 . S
H323 C327 0.928 . S
C324 C315 1.332 . S
C324 H320 0.932 . S
C324 C325 1.345 . S
C325 H321 0.928 . S
C325 C324 1.345 . S
C325 C328 1.334 . S
C326 C318 1.332 . S
C326 H322 0.932 . S
C326 C327 1.345 . S
C327 H323 0.928 . S
C327 C326 1.345 . S
C327 C331 1.334 . S
C328 C316 1.334 . S
C328 C325 1.334 . S
C328 C329 1.487 . S
C329 C328 1.487 . S
C329 C330 1.185 . S
C330 C329 1.185 . S
C330 C333 1.482 . S
C331 C319 1.334 . S
C331 C327 1.334 . S
C331 C332 1.487 . S
C332 C331 1.487 . S
C332 C333 1.185 . S
C333 C330 1.482 . S
C333 C332 1.185 . S
H334 C314 0.932 . S
H335 C316 0.928 . S
H336 C317 0.932 . S
H337 C319 0.928 . S
C338 C339 1.332 . S
C338 C340 1.345 . S
C338 H358 0.932 . S
C339 C338 1.332 . S
C339 C348 1.332 . S
C340 C338 1.345 . S
C340 C352 1.334 . S
C340 H359 0.928 . S
C341 C342 1.332 . S
C341 C343 1.345 . S
C341 H360 0.932 . S
C342 C341 1.332 . S
C342 C350 1.332 . S
C343 C341 1.345 . S
C343 C355 1.334 . S
C343 H361 0.928 . S
H344 C348 0.932 . S
H345 C349 0.928 . S
H346 C350 0.932 . S
H347 C351 0.928 . S
C348 C339 1.332 . S
C348 H344 0.932 . S
C348 C349 1.345 . S
C349 H345 0.928 . S
C349 C348 1.345 . S
C349 C352 1.334 . S
C350 C342 1.332 . S
C350 H346 0.932 . S
C350 C351 1.345 . S
C351 H347 0.928 . S
C351 C350 1.345 . S
C351 C355 1.334 . S
C352 C340 1.334 . S
C352 C349 1.334 . S
C352 C353 1.487 . S
C353 C352 1.487 . S
C353 C354 1.185 . S
C354 C353 1.185 . S
C354 C357 1.482 . S
C355 C343 1.334 . S
C355 C351 1.334 . S
C355 C356 1.487 . S
C356 C355 1.487 . S
C356 C357 1.185 . S
C357 C354 1.482 . S
C357 C356 1.185 . S
H358 C338 0.932 . S
H359 C340 0.928 . S
H360 C341 0.932 . S
H361 C343 0.928 . S
C362 C363 1.332 . S
C362 C364 1.345 . S
C362 H382 0.932 . S
C363 C362 1.332 . S
C363 C372 1.332 . S
C364 C362 1.345 . S
C364 C376 1.334 . S
C364 H383 0.928 . S
C365 C366 1.332 . S
C365 C367 1.345 . S
C365 H384 0.932 . S
C366 C365 1.332 . S
C366 C374 1.332 . S
C367 C365 1.345 . S
C367 C379 1.334 . S
C367 H385 0.928 . S
H368 C372 0.932 . S
H369 C373 0.928 . S
H370 C374 0.932 . S
H371 C375 0.928 . S
C372 C363 1.332 . S
C372 H368 0.932 . S
C372 C373 1.345 . S
C373 H369 0.928 . S
C373 C372 1.345 . S
C373 C376 1.334 . S
C374 C366 1.332 . S
C374 H370 0.932 . S
C374 C375 1.345 . S
C375 H371 0.928 . S
C375 C374 1.345 . S
C375 C379 1.334 . S
C376 C364 1.334 . S
C376 C373 1.334 . S
C376 C377 1.487 . S
C377 C376 1.487 . S
C377 C378 1.185 . S
C378 C377 1.185 . S
C378 C381 1.482 . S
C379 C367 1.334 . S
C379 C375 1.334 . S
C379 C380 1.487 . S
C380 C379 1.487 . S
C380 C381 1.185 . S
C381 C378 1.482 . S
C381 C380 1.185 . S
H382 C362 0.932 . S
H383 C364 0.928 . S
H384 C365 0.932 . S
H385 C367 0.928 . S
C386 C387 1.332 . S
C386 C388 1.345 . S
C386 H406 0.932 . S
C387 C386 1.332 . S
C387 C396 1.332 . S
C388 C386 1.345 . S
C388 C400 1.334 . S
C388 H407 0.928 . S
C389 C390 1.332 . S
C389 C391 1.345 . S
C389 H408 0.932 . S
C390 C389 1.332 . S
C390 C398 1.332 . S
C391 C389 1.345 . S
C391 C403 1.334 . S
C391 H409 0.928 . S
H392 C396 0.932 1_455 S
H393 C397 0.928 . S
H394 C398 0.932 . S
H395 C399 0.928 . S
C396 C387 1.332 . S
C396 H392 0.932 1_655 S
C396 C397 1.345 . S
C397 H393 0.928 . S
C397 C396 1.345 . S
C397 C400 1.334 . S
C398 C390 1.332 . S
C398 H394 0.932 . S
C398 C399 1.345 . S
C399 H395 0.928 . S
C399 C398 1.345 . S
C399 C403 1.334 . S
C400 C388 1.334 . S
C400 C397 1.334 . S
C400 C401 1.487 . S
C401 C400 1.487 . S
C401 C402 1.185 . S
C402 C401 1.185 . S
C402 C405 1.482 . S
C403 C391 1.334 . S
C403 C399 1.334 . S
C403 C404 1.487 . S
C404 C403 1.487 . S
C404 C405 1.185 . S
C405 C402 1.482 . S
C405 C404 1.185 . S
H406 C386 0.932 . S
H407 C388 0.928 . S
H408 C389 0.932 . S
H409 C391 0.928 . S
C123 C5 1.162 . S
C126 C99 1.075 . S
C147 C55 0.920 . S
C150 C105 0.866 . S
C171 C19 1.144 . S
C174 C96 1.080 . S
C195 C49 2.048 . S
C198 C121 1.923 . S
C219 C8 2.003 . S
C222 C87 1.913 . S
C246 C104 1.904 . S
C243 C48 1.989 . S
C267 C59 1.859 . S
C270 C100 1.752 . S
C294 C117 2.059 . S
C291 C18 2.132 . S
C318 C84 2.103 . S
C315 C58 2.251 . S
C342 C120 1.131 . S
C339 C15 1.243 . S
C366 C83 0.875 . S
C363 C45 0.923 . S
C390 C108 0.905 . S
C387 C9 0.955 . S
