# Generated by pormake.
# Topology zzz, (3,6)-cn, num edge types: 1
# Building blocks:
#     Node 0, Type 0, BuildingBlock: OLANEW_clean_sbu_2, # of connection points: 3
#     Node 1, Type 0, BuildingBlock: OLANEW_clean_sbu_2, # of connection points: 3
#     Node 2, Type 0, BuildingBlock: OLANEW_clean_sbu_2, # of connection points: 3
#     Node 3, Type 0, BuildingBlock: OLANEW_clean_sbu_2, # of connection points: 3
#     Node 4, Type 0, BuildingBlock: OLANEW_clean_sbu_2, # of connection points: 3
#     Node 5, Type 0, BuildingBlock: OLANEW_clean_sbu_2, # of connection points: 3
#     Node 6, Type 0, BuildingBlock: OLANEW_clean_sbu_2, # of connection points: 3
#     Node 7, Type 0, BuildingBlock: OLANEW_clean_sbu_2, # of connection points: 3
#     Node 8, Type 1, BuildingBlock: LEVNOQ01_clean_sbu_1, # of connection points: 6
#     Node 9, Type 1, BuildingBlock: LEVNOQ01_clean_sbu_1, # of connection points: 6
#     Node 10, Type 1, BuildingBlock: LEVNOQ01_clean_sbu_1, # of connection points: 6
#     Node 11, Type 1, BuildingBlock: LEVNOQ01_clean_sbu_1, # of connection points: 6
#     Edge 12, Type (0, 1), BuildingBlock: MIFKUJ_clean_linker_0, # of connection points: 2
#     Edge 13, Type (0, 1), BuildingBlock: MIFKUJ_clean_linker_0, # of connection points: 2
#     Edge 14, Type (0, 1), BuildingBlock: MIFKUJ_clean_linker_0, # of connection points: 2
#     Edge 15, Type (0, 1), BuildingBlock: MIFKUJ_clean_linker_0, # of connection points: 2
#     Edge 16, Type (0, 1), BuildingBlock: MIFKUJ_clean_linker_0, # of connection points: 2
#     Edge 17, Type (0, 1), BuildingBlock: MIFKUJ_clean_linker_0, # of connection points: 2
#     Edge 18, Type (0, 1), BuildingBlock: MIFKUJ_clean_linker_0, # of connection points: 2
#     Edge 19, Type (0, 1), BuildingBlock: MIFKUJ_clean_linker_0, # of connection points: 2
#     Edge 20, Type (0, 1), BuildingBlock: MIFKUJ_clean_linker_0, # of connection points: 2
#     Edge 21, Type (0, 1), BuildingBlock: MIFKUJ_clean_linker_0, # of connection points: 2
#     Edge 22, Type (0, 1), BuildingBlock: MIFKUJ_clean_linker_0, # of connection points: 2
#     Edge 23, Type (0, 1), BuildingBlock: MIFKUJ_clean_linker_0, # of connection points: 2
#     Edge 24, Type (0, 1), BuildingBlock: MIFKUJ_clean_linker_0, # of connection points: 2
#     Edge 25, Type (0, 1), BuildingBlock: MIFKUJ_clean_linker_0, # of connection points: 2
#     Edge 26, Type (0, 1), BuildingBlock: MIFKUJ_clean_linker_0, # of connection points: 2
#     Edge 27, Type (0, 1), BuildingBlock: MIFKUJ_clean_linker_0, # of connection points: 2
#     Edge 28, Type (0, 1), BuildingBlock: MIFKUJ_clean_linker_0, # of connection points: 2
#     Edge 29, Type (0, 1), BuildingBlock: MIFKUJ_clean_linker_0, # of connection points: 2
#     Edge 30, Type (0, 1), BuildingBlock: MIFKUJ_clean_linker_0, # of connection points: 2
#     Edge 31, Type (0, 1), BuildingBlock: MIFKUJ_clean_linker_0, # of connection points: 2
#     Edge 32, Type (0, 1), BuildingBlock: MIFKUJ_clean_linker_0, # of connection points: 2
#     Edge 33, Type (0, 1), BuildingBlock: MIFKUJ_clean_linker_0, # of connection points: 2
#     Edge 34, Type (0, 1), BuildingBlock: MIFKUJ_clean_linker_0, # of connection points: 2
#     Edge 35, Type (0, 1), BuildingBlock: MIFKUJ_clean_linker_0, # of connection points: 2
# Relax obj value: 0.138
# Max RMSD: 0.185
# Mean RMSD: 0.112
data_MOF--net-zzz--node1-OLANEW_clean_sbu_2--node2-LEVNOQ01_clean_sbu_1--edge1-MIFKUJ_clean_linker_0
_symmetry_space_group_name_H-M    P1
_symmetry_Int_Tables_number       1
_symmetry_cell_setting            triclinic
loop_
_symmetry_equiv_pos_as_xyz
'x, y, z'
_cell_length_a     67.369128
_cell_length_b     67.353288
_cell_length_c     22.44698
_cell_angle_alpha  90.004738
_cell_angle_beta   90.116014
_cell_angle_gamma 89.9779
loop_
_atom_site_label
_atom_site_type_symbol
_atom_site_fract_x
_atom_site_fract_y
_atom_site_fract_z
_atom_type_partial_charge
O0 O 0.78357 0.58406 0.07725 0.0
Cd1 Cd 0.75635 0.58606 0.14773 0.0
O2 O 0.78017 0.55297 0.10281 0.0
Cd3 Cd 0.79344 0.52414 0.12109 0.0
O4 O 0.81449 0.52119 0.19434 0.0
C5 C 0.82864 0.53361 0.19144 0.0
O6 O 0.82996 0.54503 0.14432 0.0
C7 C 0.78909 0.56612 0.07236 0.0
C8 C 0.72399 0.57046 0.08848 0.0
O9 O 0.73688 0.55894 0.11226 0.0
O10 O 0.72593 0.58926 0.09501 0.0
O11 O 0.9505 0.79055 0.12132 0.0
Cd12 Cd 0.95145 0.76065 0.18186 0.0
O13 O 0.97962 0.78217 0.08604 0.0
Cd14 Cd 0.98622 0.77366 0.17753 0.0
O15 O 0.9843 0.79563 0.24907 0.0
C16 C 0.98368 0.81347 0.23042 0.0
O17 O 0.9853 0.81679 0.173 0.0
C18 C 0.9638 0.79235 0.08159 0.0
C19 C 0.96021 0.73044 0.10164 0.0
O20 O 0.97395 0.7383 0.13329 0.0
O21 O 0.94231 0.73621 0.11007 0.0
O22 O 0.73134 0.93299 0.07274 0.0
Cd23 Cd 0.76104 0.92819 0.13196 0.0
O24 O 0.73671 0.96426 0.09333 0.0
Cd25 Cd 0.72411 0.99339 0.11183 0.0
O26 O 0.70281 0.99744 0.18383 0.0
C27 C 0.69425 0.98123 0.19733 0.0
O28 O 0.69875 0.96512 0.16745 0.0
C29 C 0.72635 0.95105 0.06738 0.0
C30 C 0.79084 0.94636 0.06758 0.0
O31 O 0.78262 0.95572 0.11071 0.0
O32 O 0.78553 0.92841 0.05742 0.0
O33 O 0.57963 0.73476 0.0635 0.0
Cd34 Cd 0.58954 0.76363 0.12034 0.0
O35 O 0.55026 0.7391 0.10214 0.0
Cd36 Cd 0.5223 0.72864 0.13933 0.0
O37 O 0.52119 0.7073 0.21159 0.0
C38 C 0.53789 0.69878 0.21823 0.0
O39 O 0.5524 0.70336 0.18179 0.0
C40 C 0.56178 0.72907 0.06875 0.0
C41 C 0.57165 0.79561 0.0658 0.0
O42 O 0.56407 0.78849 0.11355 0.0
O43 O 0.58778 0.78805 0.04594 0.0
O44 O 0.23057 0.47142 0.32326 0.0
Cd45 Cd 0.25951 0.46901 0.2591 0.0
O46 O 0.2295 0.43971 0.34538 0.0
Cd47 Cd 0.24265 0.43553 0.25791 0.0
O48 O 0.22228 0.44508 0.18748 0.0
C49 C 0.20416 0.44209 0.20056 0.0
O50 O 0.19999 0.43292 0.25066 0.0
C51 C 0.22383 0.45739 0.35524 0.0
C52 C 0.29176 0.46844 0.33625 0.0
O53 O 0.28291 0.48469 0.32316 0.0
O54 O 0.28594 0.45238 0.31115 0.0
O55 O 0.04479 0.23826 0.33354 0.0
Cd56 Cd 0.04947 0.26668 0.26878 0.0
O57 O 0.07674 0.23239 0.3328 0.0
Cd58 Cd 0.09968 0.20965 0.32986 0.0
O59 O 0.09417 0.18568 0.26695 0.0
C60 C 0.0799 0.18954 0.2316 0.0
O61 O 0.07128 0.20698 0.23479 0.0
C62 C 0.05938 0.22765 0.34976 0.0
C63 C 0.05122 0.29872 0.34423 0.0
O64 O 0.03458 0.29109 0.3288 0.0
O65 O 0.06725 0.29179 0.32176 0.0
O66 O 0.27819 0.05134 0.34183 0.0
Cd67 Cd 0.25182 0.05963 0.27401 0.0
O68 O 0.28806 0.08189 0.3299 0.0
Cd69 Cd 0.31217 0.10291 0.31779 0.0
O70 O 0.33022 0.09499 0.24113 0.0
C71 C 0.33689 0.07736 0.24333 0.0
O72 O 0.33428 0.06698 0.29195 0.0
C73 C 0.29039 0.06501 0.35429 0.0
C74 C 0.22008 0.05698 0.3491 0.0
O75 O 0.22572 0.04194 0.31847 0.0
O76 O 0.22864 0.07373 0.34047 0.0
O77 O 0.46381 0.28786 0.34426 0.0
Cd78 Cd 0.46409 0.26033 0.27483 0.0
O79 O 0.43162 0.29299 0.34271 0.0
Cd80 Cd 0.43218 0.27968 0.25428 0.0
O81 O 0.4449 0.29795 0.18329 0.0
C82 C 0.44736 0.31579 0.20045 0.0
O83 O 0.44169 0.32067 0.25438 0.0
C84 C 0.44855 0.2963 0.36567 0.0
C85 C 0.46737 0.22741 0.34782 0.0
O86 O 0.48263 0.23769 0.33361 0.0
O87 O 0.45053 0.23206 0.32512 0.0
O88 O 0.03104 0.98176 0.83946 0.0
Mg89 Mg 0.041 0.98001 0.75092 0.0
O90 O 0.0024 0.98687 0.7966 0.0
Mg91 Mg 0.00697 0.01063 0.72228 0.0
O92 O 0.04056 0.00753 0.71542 0.0
O93 O 0.06867 0.99107 0.73002 0.0
O94 O 0.01177 0.03406 0.64706 0.0
O95 O 0.01162 0.0355 0.79086 0.0
Mg96 Mg 0.9737 0.04197 0.69982 0.0
O97 O 0.97305 0.01361 0.72988 0.0
O98 O 0.98307 0.04381 0.61106 0.0
O99 O 0.9899 0.05885 0.7648 0.0
O100 O 0.9456 0.03159 0.71704 0.0
C101 C 0.0109 0.96815 0.65072 0.0
C102 C 0.0125 0.97925 0.83881 0.0
C103 C 0.05959 0.00653 0.70985 0.0
C104 C 0.00178 0.04358 0.60809 0.0
C105 C 0.00432 0.05289 0.79697 0.0
C106 C 0.95395 0.01533 0.7341 0.0
O107 O 0.02468 0.96273 0.68633 0.0
O108 O 0.00315 0.98547 0.6535 0.0
O109 O 0.46045 0.99134 0.76569 0.0
Mg110 Mg 0.47546 0.97371 0.69997 0.0
O111 O 0.48448 0.01312 0.78671 0.0
Mg112 Mg 0.50807 0.00804 0.71526 0.0
O113 O 0.50443 0.97469 0.72352 0.0
O114 O 0.48801 0.94625 0.71828 0.0
O115 O 0.53172 0.0024 0.64376 0.0
O116 O 0.53225 0.00184 0.789 0.0
Mg117 Mg 0.53519 0.03499 0.74357 0.0
O118 O 0.50958 0.04333 0.70314 0.0
O119 O 0.5556 0.01936 0.6877 0.0
O120 O 0.5338 0.02987 0.83571 0.0
O121 O 0.53448 0.06418 0.72739 0.0
C122 C 0.47344 0.00178 0.60566 0.0
C123 C 0.46727 0.00588 0.79571 0.0
C124 C 0.50415 0.95568 0.73054 0.0
C125 C 0.5499 0.00748 0.6472 0.0
C126 C 0.5381 0.01174 0.83394 0.0
C127 C 0.51703 0.06121 0.70533 0.0
O128 O 0.47236 0.98314 0.6116 0.0
O129 O 0.48385 0.0121 0.64181 0.0
O130 O 0.52487 0.47944 0.84709 0.0
Mg131 Mg 0.5365 0.48372 0.76185 0.0
O132 O 0.49901 0.48618 0.79177 0.0
Mg133 Mg 0.50882 0.509 0.71715 0.0
O134 O 0.54354 0.51204 0.73914 0.0
O135 O 0.56563 0.48819 0.76445 0.0
O136 O 0.51674 0.53181 0.64136 0.0
O137 O 0.50801 0.5344 0.78688 0.0
Mg138 Mg 0.47709 0.5363 0.70706 0.0
O139 O 0.47404 0.5063 0.69634 0.0
O140 O 0.49049 0.55129 0.63672 0.0
O141 O 0.47932 0.54953 0.79051 0.0
O142 O 0.44915 0.52877 0.69101 0.0
C143 C 0.52042 0.46704 0.65073 0.0
C144 C 0.50641 0.47866 0.83895 0.0
C145 C 0.56164 0.50642 0.75166 0.0
C146 C 0.50768 0.5467 0.61888 0.0
C147 C 0.49668 0.54732 0.81022 0.0
C148 C 0.45529 0.51065 0.68845 0.0
O149 O 0.53074 0.46277 0.69591 0.0
O150 O 0.51167 0.48377 0.64731 0.0
O151 O 0.9817 0.48782 0.84243 0.0
Mg152 Mg 0.98231 0.48415 0.74982 0.0
O153 O 0.98463 0.51702 0.80291 0.0
Mg154 Mg 0.00991 0.5128 0.73163 0.0
O155 O 0.00909 0.47819 0.71289 0.0
O156 O 0.98523 0.45533 0.72852 0.0
O157 O 0.03475 0.50861 0.65875 0.0
O158 O 0.03242 0.50523 0.80667 0.0
Mg159 Mg 0.03736 0.53915 0.71551 0.0
O160 O 0.01082 0.54758 0.75155 0.0
O161 O 0.04096 0.53803 0.62299 0.0
O162 O 0.05719 0.5218 0.76727 0.0
O163 O 0.03811 0.56697 0.74575 0.0
C164 C 0.96892 0.51368 0.6564 0.0
C165 C 0.97766 0.50603 0.84389 0.0
C166 C 0.00277 0.45993 0.71016 0.0
C167 C 0.04322 0.51949 0.61987 0.0
C168 C 0.05083 0.50947 0.80524 0.0
C169 C 0.01976 0.56451 0.76009 0.0
O170 O 0.96287 0.50064 0.69299 0.0
O171 O 0.98695 0.5195 0.65765 0.0
H172 H 0.2027 0.02277 0.38663 0.0
H173 H 0.1756 0.01937 0.45785 0.0
H174 H 0.17563 0.08268 0.48652 0.0
H175 H 0.20303 0.08627 0.4158 0.0
H176 H 0.16758 0.05475 0.59384 0.0
H177 H 0.14719 0.06863 0.3833 0.0
H178 H 0.15132 0.05903 0.2779 0.0
H179 H 0.13314 -0.0005 0.31914 0.0
H180 H 0.12918 0.0087 0.42485 0.0
H181 H 0.07312 0.04468 0.7257 0.0
H182 H 0.09874 0.06073 0.66401 0.0
H183 H 0.0969 0.01075 0.54308 0.0
H184 H 0.07074 0.99586 0.60164 0.0
H185 H 0.10606 0.03835 0.48222 0.0
H186 H 0.12892 0.01593 0.67359 0.0
H187 H 0.13127 0.01465 0.78318 0.0
H188 H 0.1502 0.07551 0.78701 0.0
H189 H 0.1476 0.07725 0.67742 0.0
C190 C 0.19709 0.03596 0.40847 0.0
C191 C 0.20456 0.05486 0.39451 0.0
C192 C 0.18182 0.03395 0.44963 0.0
C193 C 0.17365 0.05082 0.47673 0.0
C194 C 0.18188 0.06955 0.46591 0.0
C195 C 0.19729 0.07157 0.42497 0.0
C196 C 0.15458 0.04922 0.50795 0.0
C197 C 0.15397 0.0515 0.56985 0.0
C198 C 0.1372 0.04425 0.47623 0.0
C199 C 0.13777 0.03939 0.4118 0.0
C200 C 0.14393 0.05355 0.36973 0.0
C201 C 0.14633 0.04815 0.31001 0.0
C202 C 0.14246 0.02868 0.29182 0.0
C203 C 0.13606 0.01459 0.33323 0.0
C204 C 0.13368 0.0199 0.39299 0.0
C205 C 0.07772 0.03775 0.68443 0.0
C206 C 0.07022 0.01913 0.66792 0.0
C207 C 0.09251 0.0467 0.64973 0.0
C208 C 0.10026 0.03669 0.59977 0.0
C209 C 0.09135 0.01887 0.58123 0.0
C210 C 0.0764 0.01029 0.61477 0.0
C211 C 0.11874 0.04318 0.56959 0.0
C212 C 0.11938 0.04203 0.50709 0.0
C213 C 0.13641 0.04776 0.6015 0.0
C214 C 0.13769 0.04684 0.66742 0.0
C215 C 0.13337 0.0291 0.69786 0.0
C216 C 0.13477 0.02829 0.75996 0.0
C217 C 0.14078 0.04502 0.79207 0.0
C218 C 0.14544 0.06259 0.76211 0.0
C219 C 0.14397 0.06352 0.70002 0.0
H220 H 0.1419 0.04435 0.84013 0.0
H221 H 0.14444 0.0245 0.24565 0.0
H222 H 0.49078 0.2266 0.44573 0.0
H223 H 0.49448 0.19965 0.51762 0.0
H224 H 0.45232 0.16444 0.41813 0.0
H225 H 0.4475 0.19213 0.34854 0.0
H226 H 0.44758 0.15737 0.53082 0.0
H227 H 0.50562 0.16075 0.40268 0.0
H228 H 0.53454 0.17721 0.35692 0.0
H229 H 0.55914 0.18841 0.5303 0.0
H230 H 0.53025 0.17226 0.5771 0.0
H231 H 0.48848 0.06159 0.61819 0.0
H232 H 0.47475 0.09098 0.5679 0.0
H233 H 0.5085 0.12886 0.68531 0.0
H234 H 0.52186 0.09978 0.73595 0.0
H235 H 0.51661 0.13463 0.56665 0.0
H236 H 0.46103 0.12957 0.69546 0.0
H237 H 0.43259 0.11362 0.74491 0.0
H238 H 0.40369 0.10603 0.57598 0.0
H239 H 0.43217 0.12152 0.52504 0.0
C240 C 0.48226 0.21311 0.43946 0.0
C241 C 0.46915 0.21118 0.3912 0.0
C242 C 0.4844 0.1977 0.48041 0.0
C243 C 0.47417 0.17973 0.47224 0.0
C244 C 0.4605 0.17809 0.42512 0.0
C245 C 0.45784 0.19381 0.38521 0.0
C246 C 0.47849 0.16237 0.51094 0.0
C247 C 0.46265 0.15221 0.53803 0.0
C248 C 0.49821 0.15595 0.5217 0.0
C249 C 0.5157 0.16543 0.49336 0.0
C250 C 0.51716 0.1668 0.43102 0.0
C251 C 0.53354 0.17608 0.40492 0.0
C252 C 0.54864 0.18388 0.44068 0.0
C253 C 0.54743 0.18238 0.50264 0.0
C254 C 0.53106 0.17315 0.52897 0.0
C255 C 0.49235 0.07619 0.63444 0.0
C256 C 0.50623 0.07841 0.68074 0.0
C257 C 0.4846 0.09295 0.60563 0.0
C258 C 0.4907 0.11205 0.6229 0.0
C259 C 0.50368 0.11424 0.67128 0.0
C260 C 0.51134 0.0976 0.69999 0.0
C261 C 0.48575 0.12961 0.58627 0.0
C262 C 0.50152 0.13976 0.55938 0.0
C263 C 0.46605 0.13596 0.57607 0.0
C264 C 0.44892 0.12646 0.6063 0.0
C265 C 0.44875 0.12425 0.66864 0.0
C266 C 0.43259 0.11533 0.69696 0.0
C267 C 0.41639 0.10873 0.66351 0.0
C268 C 0.4163 0.11107 0.60168 0.0
C269 C 0.43245 0.11992 0.57306 0.0
H270 H 0.40386 0.10187 0.68551 0.0
H271 H 0.56131 0.19106 0.42039 0.0
H272 H 0.3277 0.45006 0.32941 0.0
H273 H 0.3547 0.45153 0.40243 0.0
H274 H 0.31759 0.48647 0.51921 0.0
H275 H 0.29137 0.48642 0.44379 0.0
H276 H 0.3504 0.50215 0.51965 0.0
H277 H 0.33199 0.4338 0.54228 0.0
H278 H 0.32468 0.3996 0.50961 0.0
H279 H 0.38386 0.39386 0.44098 0.0
H280 H 0.39144 0.4281 0.47251 0.0
H281 H 0.42019 0.50594 0.74327 0.0
H282 H 0.39061 0.49136 0.69815 0.0
H283 H 0.4263 0.4683 0.55454 0.0
H284 H 0.45613 0.48262 0.60063 0.0
H285 H 0.39272 0.445 0.5776 0.0
H286 H 0.40905 0.51472 0.54777 0.0
H287 H 0.4159 0.549 0.58048 0.0
H288 H 0.3589 0.55176 0.66535 0.0
H289 H 0.35186 0.51735 0.63406 0.0
C290 C 0.32541 0.45797 0.37086 0.0
C291 C 0.30764 0.46823 0.38116 0.0
C292 C 0.34072 0.45862 0.41297 0.0
C293 C 0.33816 0.46877 0.46725 0.0
C294 C 0.32006 0.47857 0.47785 0.0
C295 C 0.30508 0.47854 0.43484 0.0
C296 C 0.35474 0.47054 0.51096 0.0
C297 C 0.35927 0.48949 0.53325 0.0
C298 C 0.36677 0.45419 0.52809 0.0
C299 C 0.36223 0.43356 0.50943 0.0
C300 C 0.3434 0.42528 0.51992 0.0
C301 C 0.33922 0.40588 0.50163 0.0
C302 C 0.35378 0.39458 0.47314 0.0
C303 C 0.37258 0.40263 0.46302 0.0
C304 C 0.37684 0.42202 0.48117 0.0
C305 C 0.42184 0.49691 0.70362 0.0
C306 C 0.4403 0.49551 0.67488 0.0
C307 C 0.40493 0.48872 0.67769 0.0
C308 C 0.40621 0.47934 0.6221 0.0
C309 C 0.42501 0.47569 0.59723 0.0
C310 C 0.44206 0.48374 0.62366 0.0
C311 C 0.38809 0.47646 0.58568 0.0
C312 C 0.38342 0.45744 0.56468 0.0
C313 C 0.37574 0.49269 0.57012 0.0
C314 C 0.38005 0.51336 0.58925 0.0
C315 C 0.39806 0.52256 0.57391 0.0
C316 C 0.40196 0.54203 0.59213 0.0
C317 C 0.38787 0.55253 0.62513 0.0
C318 C 0.36983 0.54359 0.63994 0.0
C319 C 0.36588 0.5241 0.62202 0.0
H320 H 0.3909 0.56762 0.63907 0.0
H321 H 0.35051 0.37957 0.45899 0.0
H322 H 0.0706 0.33418 0.34002 0.0
H323 H 0.06823 0.36119 0.41298 0.0
H324 H 0.03188 0.32395 0.52544 0.0
H325 H 0.03303 0.29774 0.45045 0.0
H326 H 0.0148 0.35612 0.51573 0.0
H327 H 0.08165 0.33948 0.56069 0.0
H328 H 0.11687 0.3321 0.54104 0.0
H329 H 0.1252 0.39089 0.47177 0.0
H330 H 0.08991 0.39857 0.48998 0.0
H331 H 0.00646 0.42236 0.75047 0.0
H332 H 0.02169 0.39434 0.69849 0.0
H333 H 0.04114 0.43369 0.55867 0.0
H334 H 0.02568 0.46182 0.61074 0.0
H335 H 0.06851 0.40044 0.58796 0.0
H336 H -0.00129 0.41381 0.53944 0.0
H337 H 0.96364 0.41923 0.56651 0.0
H338 H 0.96224 0.36271 0.65493 0.0
H339 H -0.00262 0.35708 0.62897 0.0
C340 C 0.06228 0.33187 0.38068 0.0
C341 C 0.05175 0.3142 0.38979 0.0
C342 C 0.06108 0.34716 0.42261 0.0
C343 C 0.04996 0.3446 0.47506 0.0
C344 C 0.04039 0.32639 0.4852 0.0
C345 C 0.04102 0.31144 0.44248 0.0
C346 C 0.04641 0.36144 0.51627 0.0
C347 C 0.0267 0.36547 0.53232 0.0
C348 C 0.0618 0.374 0.53722 0.0
C349 C 0.08306 0.36953 0.52623 0.0
C350 C 0.09094 0.35079 0.54079 0.0
C351 C 0.11092 0.34657 0.52995 0.0
C352 C 0.12324 0.36101 0.50497 0.0
C353 C 0.11561 0.37973 0.49095 0.0
C354 C 0.09562 0.38403 0.50158 0.0
C355 C 0.01446 0.42508 0.70945 0.0
C356 C 0.01512 0.44417 0.68454 0.0
C357 C 0.0232 0.40913 0.68003 0.0
C358 C 0.03241 0.41201 0.62474 0.0
C359 C 0.03427 0.43128 0.60166 0.0
C360 C 0.02558 0.44732 0.63143 0.0
C361 C 0.0371 0.39467 0.58719 0.0
C362 C 0.05686 0.39074 0.5716 0.0
C363 C 0.02187 0.38179 0.5677 0.0
C364 C 0.0007 0.38513 0.58277 0.0
C365 C 0.99095 0.40261 0.565 0.0
C366 C 0.97106 0.4057 0.58008 0.0
C367 C 0.96073 0.39134 0.61255 0.0
C368 C 0.97026 0.37383 0.62986 0.0
C369 C 0.99015 0.37068 0.61493 0.0
H370 H 0.94534 0.39377 0.62419 0.0
H371 H 0.13871 0.35771 0.49663 0.0
H372 H 0.80023 0.93644 0.95447 0.0
H373 H 0.82751 0.94915 0.89451 0.0
H374 H 0.84312 0.99004 0.03492 0.0
H375 H 0.81515 0.97779 0.09478 0.0
H376 H 0.8498 0.00532 0.91796 0.0
H377 H 0.8668 0.94759 0.03528 0.0
H378 H 0.85729 0.91456 0.07308 0.0
H379 H 0.85639 0.89177 0.89441 0.0
H380 H 0.86577 0.92475 0.85557 0.0
H381 H 0.95251 0.01224 0.85311 0.0
H382 H 0.92452 -0.00116 0.91 0.0
H383 H 0.89953 0.97467 0.74861 0.0
H384 H 0.9271 0.98891 0.69116 0.0
H385 H 0.89804 0.95106 0.87759 0.0
H386 H 0.88029 0.0099 0.76101 0.0
H387 H 0.88626 0.04392 0.72481 0.0
H388 H 0.88695 0.06542 0.90489 0.0
H389 H 0.88151 0.03137 0.94221 0.0
C390 C 0.8093 0.94832 0.97234 0.0
C391 C 0.80597 0.95579 0.0298 0.0
C392 C 0.82479 0.95564 0.9379 0.0
C393 C 0.83757 0.97017 0.96095 0.0
C394 C 0.83346 0.97872 0.01662 0.0
C395 C 0.81762 0.97162 0.05084 0.0
C396 C 0.85649 0.97433 0.93012 0.0
C397 C 0.86044 0.99355 0.90967 0.0
C398 C 0.87028 0.95888 0.91909 0.0
C399 C 0.86697 0.93859 0.94256 0.0
C400 C 0.86474 0.93547 0.00414 0.0
C401 C 0.85924 0.91681 0.02571 0.0
C402 C 0.85607 0.90112 0.98612 0.0
C403 C 0.85875 0.90397 0.92497 0.0
C404 C 0.86427 0.92261 0.90317 0.0
C405 C 0.94149 0.00329 0.83032 0.0
C406 C 0.94197 0.00126 0.76816 0.0
C407 C 0.92548 0.99581 0.86267 0.0
C408 C 0.91 0.98595 0.83322 0.0
C409 C 0.91143 0.98222 0.7719 0.0
C410 C 0.9272 0.99018 0.73927 0.0
C411 C 0.89126 0.98204 0.86494 0.0
C412 C 0.88743 0.96285 0.88594 0.0
C413 C 0.87765 0.99757 0.87673 0.0
C414 C 0.88091 0.01803 0.85443 0.0
C415 C 0.88206 0.02182 0.79293 0.0
C416 C 0.88528 0.04112 0.77219 0.0
C417 C 0.8871 0.05681 0.81254 0.0
C418 C 0.88564 0.05323 0.8737 0.0
C419 C 0.88252 0.03393 0.89467 0.0
H420 H 0.88954 0.07175 0.7964 0.0
H421 H 0.85173 0.88669 0.00285 0.0
H422 H 0.55249 0.82774 0.11282 0.0
H423 H 0.54238 0.85776 0.05871 0.0
H424 H 0.55895 0.82992 0.89267 0.0
H425 H 0.56998 0.80054 0.94687 0.0
H426 H 0.57627 0.86319 0.89939 0.0
H427 H 0.50951 0.84169 0.93095 0.0
H428 H 0.47988 0.83066 0.98611 0.0
H429 H 0.48006 0.88492 0.08653 0.0
H430 H 0.50984 0.8962 0.03238 0.0
H431 H 0.52166 0.92204 0.69257 0.0
H432 H 0.53869 0.89803 0.7563 0.0
H433 H 0.53773 0.93999 0.90148 0.0
H434 H 0.5211 0.9643 0.83695 0.0
H435 H 0.51473 0.90314 0.91522 0.0
H436 H 0.58187 0.92416 0.86932 0.0
H437 H 0.60957 0.93326 0.80291 0.0
H438 H 0.6051 0.87683 0.71487 0.0
H439 H 0.57736 0.86741 0.78061 0.0
C440 C 0.55363 0.82803 0.0647 0.0
C441 C 0.56235 0.81216 0.03384 0.0
C442 C 0.54777 0.84509 0.03379 0.0
C443 C 0.5501 0.84616 0.97163 0.0
C444 C 0.55734 0.82957 0.94068 0.0
C445 C 0.56362 0.81282 0.97158 0.0
C446 C 0.54717 0.86509 0.93921 0.0
C447 C 0.56269 0.87179 0.90259 0.0
C448 C 0.52971 0.87663 0.94449 0.0
C449 C 0.51209 0.86967 0.97819 0.0
C450 C 0.50339 0.85117 0.9653 0.0
C451 C 0.48652 0.8449 0.99624 0.0
C452 C 0.47814 0.85704 0.03996 0.0
C453 C 0.4866 0.8755 0.05276 0.0
C454 C 0.50346 0.88185 0.02193 0.0
C455 C 0.52605 0.92646 0.7371 0.0
C456 C 0.52026 0.94493 0.76004 0.0
C457 C 0.53571 0.91276 0.7735 0.0
C458 C 0.5393 0.91726 0.83354 0.0
C459 C 0.53512 0.93636 0.8551 0.0
C460 C 0.52582 0.95027 0.81815 0.0
C461 C 0.54366 0.90086 0.87504 0.0
C462 C 0.52839 0.89462 0.9132 0.0
C463 C 0.56103 0.88936 0.86979 0.0
C464 C 0.57749 0.89514 0.82965 0.0
C465 C 0.5867 0.91377 0.83547 0.0
C466 C 0.60244 0.91896 0.79807 0.0
C467 C 0.60907 0.90565 0.75467 0.0
C468 C 0.59998 0.88711 0.74856 0.0
C469 C 0.58429 0.88182 0.78597 0.0
H470 H 0.62127 0.90969 0.72582 0.0
H471 H 0.46507 0.85218 0.0638 0.0
H472 H 0.6856 0.58237 0.08554 0.0
H473 H 0.65957 0.57082 0.01724 0.0
H474 H 0.701 0.53026 0.93594 0.0
H475 H 0.72687 0.54106 0.00631 0.0
H476 H 0.67287 0.56463 0.86297 0.0
H477 H 0.67708 0.50385 0.97528 0.0
H478 H 0.67989 0.48394 0.06704 0.0
H479 H 0.62521 0.5087 0.13117 0.0
H480 H 0.6223 0.52909 0.04013 0.0
H481 H 0.5978 0.50795 0.69972 0.0
H482 H 0.62763 0.52131 0.74789 0.0
H483 H 0.59125 0.54792 0.88412 0.0
H484 H 0.56152 0.53463 0.83591 0.0
H485 H 0.61963 0.51784 0.92282 0.0
H486 H 0.61611 0.57834 0.80611 0.0
H487 H 0.61361 0.59674 0.71139 0.0
H488 H 0.66773 0.56982 0.65076 0.0
H489 H 0.67043 0.55111 0.74501 0.0
C490 C 0.68901 0.57079 0.05364 0.0
C491 C 0.70805 0.56246 0.05111 0.0
C492 C 0.67424 0.56427 0.01474 0.0
C493 C 0.6785 0.54976 0.97188 0.0
C494 C 0.69751 0.54139 0.96915 0.0
C495 C 0.71216 0.54748 0.00936 0.0
C496 C 0.66289 0.54388 0.92955 0.0
C497 C 0.6614 0.55411 0.8753 0.0
C498 C 0.64797 0.53034 0.94635 0.0
C499 C 0.64966 0.51826 0.00138 0.0
C500 C 0.66582 0.50529 0.00936 0.0
C501 C 0.66739 0.49386 0.06112 0.0
C502 C 0.65278 0.49513 0.10505 0.0
C503 C 0.63655 0.50779 0.09719 0.0
C504 C 0.63494 0.5193 0.04551 0.0
C505 C 0.59617 0.51765 0.73792 0.0
C506 C 0.57741 0.5208 0.76334 0.0
C507 C 0.61318 0.52507 0.76572 0.0
C508 C 0.61155 0.53542 0.81967 0.0
C509 C 0.59272 0.54001 0.84232 0.0
C510 C 0.57571 0.53282 0.81406 0.0
C511 C 0.62934 0.5389 0.85662 0.0
C512 C 0.6312 0.52819 0.90999 0.0
C513 C 0.64474 0.55171 0.83839 0.0
C514 C 0.64339 0.56323 0.78233 0.0
C515 C 0.62742 0.57627 0.77242 0.0
C516 C 0.62598 0.58677 0.71888 0.0
C517 C 0.64048 0.58442 0.67503 0.0
C518 C 0.6565 0.57162 0.68477 0.0
C519 C 0.65802 0.5611 0.73828 0.0
H520 H 0.63932 0.59253 0.63355 0.0
H521 H 0.654 0.48624 0.14506 0.0
H522 H 0.93607 0.71708 0.01266 0.0
H523 H 0.94346 0.69168 0.93823 0.0
H524 H 0.00212 0.68446 0.01267 0.0
H525 H 0.99507 0.71036 0.08602 0.0
H526 H 0.00319 0.68161 0.89321 0.0
H527 H 0.96416 0.65205 0.05342 0.0
H528 H 0.93497 0.65099 0.11962 0.0
H529 H 0.89636 0.6479 0.96738 0.0
H530 H 0.92537 0.6493 0.90036 0.0
H531 H 0.0344 0.58585 0.85068 0.0
H532 H 0.02019 0.6155 0.89597 0.0
H533 H 0.96895 0.61059 0.78144 0.0
H534 H 0.98278 0.57993 0.7378 0.0
H535 H 0.96003 0.62188 0.90109 0.0
H536 H 0.00241 0.64279 0.74286 0.0
H537 H 0.03323 0.64116 0.68403 0.0
H538 H 0.06699 0.65967 0.83665 0.0
H539 H 0.0364 0.66114 0.89669 0.0
C540 C 0.95057 0.71012 0.01307 0.0
C541 C 0.96487 0.71542 0.05586 0.0
C542 C 0.95478 0.69565 0.97041 0.0
C543 C 0.97321 0.68594 0.97056 0.0
C544 C 0.98779 0.69176 0.0118 0.0
C545 C 0.98368 0.70643 0.05399 0.0
C546 C 0.97683 0.66868 0.93115 0.0
C547 C 0.99373 0.66859 0.89473 0.0
C548 C 0.96424 0.65186 0.93202 0.0
C549 C 0.94685 0.65071 0.97204 0.0
C550 C 0.94942 0.65115 0.03418 0.0
C551 C 0.93293 0.65054 0.0718 0.0
C552 C 0.91382 0.64936 0.04773 0.0
C553 C 0.91117 0.6488 0.98597 0.0
C554 C 0.92762 0.64949 0.94816 0.0
C555 C 0.01995 0.59093 0.83582 0.0
C556 C 0.00969 0.58086 0.79063 0.0
C557 C 0.01189 0.60787 0.8615 0.0
C558 C 0.99369 0.61538 0.8412 0.0
C559 C 0.98295 0.60489 0.79772 0.0
C560 C 0.99085 0.58753 0.77281 0.0
C561 C 0.98665 0.63464 0.86456 0.0
C562 C 0.96913 0.63512 0.89798 0.0
C563 C -0.00124 0.65178 0.86113 0.0
C564 C 0.01708 0.65208 0.8243 0.0
C565 C 0.0164 0.64654 0.76388 0.0
C566 C 0.03384 0.64561 0.73034 0.0
C567 C 0.05206 0.65031 0.75659 0.0
C568 C 0.05286 0.65607 0.81635 0.0
C569 C 0.03546 0.65701 0.85013 0.0
H570 H 0.06555 0.6495 0.73063 0.0
H571 H 0.90106 0.64889 0.07692 0.0
H572 H 0.08355 0.20866 0.42964 0.0
H573 H 0.07701 0.17735 0.48174 0.0
H574 H 0.02011 0.17317 0.39393 0.0
H575 H 0.02653 0.2044 0.34229 0.0
H576 H 0.01712 0.16468 0.51057 0.0
H577 H 0.0631 0.14566 0.34804 0.0
H578 H 0.09517 0.14534 0.29534 0.0
H579 H 0.12526 0.12952 0.45704 0.0
H580 H 0.09335 0.12955 0.51083 0.0
H581 H 0.98513 0.06713 0.52267 0.0
H582 H -0.00202 0.09885 0.48764 0.0
H583 H 0.05284 0.0884 0.58214 0.0
H584 H 0.04023 0.05645 0.61675 0.0
H585 H 0.0602 0.10573 0.48168 0.0
H586 H 0.01757 0.11829 0.64148 0.0
H587 H 0.98774 0.11725 0.70471 0.0
H588 H 0.95401 0.14641 0.56783 0.0
H589 H 0.98354 0.1473 0.50317 0.0
C590 C 0.06979 0.20087 0.42088 0.0
C591 C 0.0557 0.20874 0.3811 0.0
C592 C 0.06603 0.18306 0.45085 0.0
C593 C 0.04818 0.17279 0.44113 0.0
C594 C 0.03399 0.18083 0.40211 0.0
C595 C 0.03769 0.19865 0.37252 0.0
C596 C 0.04403 0.1536 0.47095 0.0
C597 C 0.02642 0.15172 0.50387 0.0
C598 C 0.05678 0.13701 0.46546 0.0
C599 C 0.07593 0.13789 0.43353 0.0
C600 C 0.07659 0.14234 0.37247 0.0
C601 C 0.09472 0.14216 0.34237 0.0
C602 C 0.11226 0.13762 0.3728 0.0
C603 C 0.1117 0.13314 0.43352 0.0
C604 C 0.0936 0.13319 0.46382 0.0
C605 C 0.00012 0.07132 0.53484 0.0
C606 C 0.01154 0.05938 0.57322 0.0
C607 C 0.00733 0.0896 0.51548 0.0
C608 C 0.02605 0.09629 0.53419 0.0
C609 C 0.0382 0.08365 0.56807 0.0
C610 C 0.03102 0.0653 0.58736 0.0
C611 C 0.03276 0.11653 0.51841 0.0
C612 C 0.05091 0.11867 0.48891 0.0
C613 C 0.02079 0.13347 0.52884 0.0
C614 C 0.00279 0.13267 0.5671 0.0
C615 C 0.00375 0.12428 0.62448 0.0
C616 C 0.98689 0.12375 0.66068 0.0
C617 C 0.96898 0.13172 0.64024 0.0
C618 C 0.96789 0.14022 0.58356 0.0
C619 C 0.9847 0.14074 0.5471 0.0
H620 H 0.95595 0.13134 0.66838 0.0
H621 H 0.12626 0.13746 0.34924 0.0
H622 H 0.3131 0.09004 0.42238 0.0
H623 H 0.34459 0.08216 0.4719 0.0
H624 H 0.33949 0.02132 0.41315 0.0
H625 H 0.30791 0.02896 0.3656 0.0
H626 H 0.35285 0.0216 0.51997 0.0
H627 H 0.37596 0.05751 0.3361 0.0
H628 H 0.37845 0.08639 0.26834 0.0
H629 H 0.38961 0.12468 0.41754 0.0
H630 H 0.38769 0.09595 0.48563 0.0
H631 H 0.44978 0.98494 0.52071 0.0
H632 H 0.41849 -0.00159 0.48344 0.0
H633 H 0.43026 0.05377 0.57342 0.0
H634 H 0.46134 0.04036 0.61167 0.0
H635 H 0.41339 0.0592 0.46457 0.0
H636 H 0.40172 0.02089 0.63919 0.0
H637 H 0.40316 0.99165 0.70507 0.0
H638 H 0.37038 0.95754 0.57669 0.0
H639 H 0.36906 0.98647 0.50946 0.0
C640 C 0.31878 0.07502 0.42011 0.0
C641 C 0.30835 0.06022 0.38899 0.0
C642 C 0.33679 0.07055 0.44812 0.0
C643 C 0.3447 0.05128 0.44476 0.0
C644 C 0.33377 0.03633 0.41607 0.0
C645 C 0.31569 0.0407 0.38894 0.0
C646 C 0.36441 0.04644 0.4703 0.0
C647 C 0.36611 0.02972 0.50742 0.0
C648 C 0.38164 0.05744 0.45603 0.0
C649 C 0.38133 0.07476 0.41579 0.0
C650 C 0.37867 0.07216 0.35428 0.0
C651 C 0.38007 0.08844 0.31587 0.0
C652 C 0.38387 0.10738 0.33867 0.0
C653 C 0.3865 0.11004 0.39992 0.0
C654 C 0.38538 0.09377 0.43837 0.0
C655 C 0.44598 0.00016 0.53128 0.0
C656 C 0.45805 0.01158 0.56933 0.0
C657 C 0.42802 0.00775 0.51046 0.0
C658 C 0.42191 0.02685 0.52719 0.0
C659 C 0.43469 0.03891 0.56062 0.0
C660 C 0.45261 0.0313 0.58175 0.0
C661 C 0.40186 0.03392 0.51176 0.0
C662 C 0.40011 0.05113 0.4773 0.0
C663 C 0.38462 0.02335 0.52867 0.0
C664 C 0.38547 0.00584 0.56894 0.0
C665 C 0.39499 0.00711 0.62467 0.0
C666 C 0.39576 0.99059 0.66234 0.0
C667 C 0.38691 0.97273 0.64501 0.0
C668 C 0.37726 0.97137 0.59001 0.0
C669 C 0.3765 0.98783 0.55211 0.0
H670 H 0.38749 0.95997 0.67426 0.0
H671 H 0.38494 0.11995 0.30883 0.0
H672 H 0.47654 0.29892 0.45229 0.0
H673 H 0.48733 0.32935 0.50235 0.0
H674 H 0.43919 0.36154 0.42013 0.0
H675 H 0.42789 0.33098 0.37141 0.0
H676 H 0.48076 0.37501 0.39501 0.0
H677 H 0.43593 0.36024 0.55536 0.0
H678 H 0.42047 0.34034 0.63488 0.0
H679 H 0.47694 0.3344 0.72212 0.0
H680 H 0.4928 0.35405 0.64264 0.0
H681 H 0.49402 0.46736 0.55748 0.0
H682 H 0.48289 0.43824 0.50114 0.0
H683 H 0.52716 0.40232 0.58887 0.0
H684 H 0.53863 0.43115 0.64422 0.0
H685 H 0.4867 0.39141 0.60972 0.0
H686 H 0.53214 0.40467 0.4529 0.0
H687 H 0.54887 0.42532 0.37756 0.0
H688 H 0.49346 0.43387 0.28621 0.0
H689 H 0.47633 0.41346 0.36158 0.0
C690 C 0.46784 0.31233 0.4467 0.0
C691 C 0.45145 0.31268 0.40798 0.0
C692 C 0.47405 0.32967 0.47504 0.0
C693 C 0.46414 0.3476 0.46416 0.0
C694 C 0.44699 0.34776 0.42872 0.0
C695 C 0.44048 0.3303 0.40144 0.0
C696 C 0.47305 0.36634 0.48458 0.0
C697 C 0.48176 0.37885 0.44187 0.0
C698 C 0.47495 0.37077 0.54574 0.0
C699 C 0.46559 0.35839 0.59257 0.0
C700 C 0.44511 0.35445 0.59102 0.0
C701 C 0.43626 0.34328 0.63624 0.0
C702 C 0.44773 0.33604 0.68341 0.0
C703 C 0.46808 0.33997 0.68548 0.0
C704 C 0.47701 0.35113 0.64037 0.0
C705 C 0.50178 0.45341 0.56329 0.0
C706 C 0.51683 0.4514 0.60627 0.0
C707 C 0.49544 0.43683 0.53111 0.0
C708 C 0.50408 0.41822 0.54183 0.0
C709 C 0.52027 0.4166 0.58057 0.0
C710 C 0.52673 0.4331 0.61219 0.0
C711 C 0.49435 0.40008 0.52028 0.0
C712 C 0.4856 0.38764 0.56281 0.0
C713 C 0.49266 0.39563 0.45915 0.0
C714 C 0.5029 0.40772 0.41328 0.0
C715 C 0.52348 0.4111 0.41705 0.0
C716 C 0.53305 0.42272 0.37427 0.0
C717 C 0.52222 0.43096 0.32723 0.0
C718 C 0.50182 0.4275 0.32274 0.0
C719 C 0.49217 0.41588 0.36544 0.0
H720 H 0.52965 0.43997 0.29418 0.0
H721 H 0.44084 0.32745 0.71845 0.0
H722 H 0.19987 0.43086 0.41391 0.0
H723 H 0.17009 0.43869 0.47183 0.0
H724 H 0.18164 0.50128 0.4493 0.0
H725 H 0.2115 0.49362 0.39326 0.0
H726 H 0.16694 0.49587 0.55373 0.0
H727 H 0.14646 0.47747 0.35461 0.0
H728 H 0.14232 0.45711 0.26455 0.0
H729 H 0.11959 0.40906 0.3701 0.0
H730 H 0.12302 0.42956 0.46095 0.0
H731 H 0.07148 0.53998 0.55737 0.0
H732 H 0.10362 0.52715 0.52478 0.0
H733 H 0.08626 0.46812 0.57798 0.0
H734 H 0.0543 0.48078 0.61097 0.0
H735 H 0.10422 0.46861 0.47154 0.0
H736 H 0.11722 0.49592 0.66724 0.0
H737 H 0.11853 0.52175 0.74519 0.0
H738 H 0.15463 0.55834 0.63277 0.0
H739 H 0.15365 0.53279 0.55415 0.0
C740 C 0.19627 0.44627 0.42246 0.0
C741 C 0.20785 0.46164 0.3983 0.0
C742 C 0.17918 0.45073 0.45513 0.0
C743 C 0.17342 0.47057 0.46374 0.0
C744 C 0.18572 0.48586 0.44303 0.0
C745 C 0.20277 0.48144 0.41069 0.0
C746 C 0.15396 0.47566 0.49024 0.0
C747 C 0.15321 0.48993 0.53578 0.0
C748 C 0.13604 0.46777 0.46744 0.0
C749 C 0.1354 0.45482 0.4144 0.0
C750 C 0.14088 0.46244 0.35863 0.0
C751 C 0.13855 0.45092 0.30743 0.0
C752 C 0.13101 0.43163 0.31155 0.0
C753 C 0.1256 0.42392 0.36701 0.0
C754 C 0.12763 0.43552 0.41834 0.0
C755 C 0.07431 0.52419 0.56092 0.0
C756 C 0.06027 0.51136 0.58672 0.0
C757 C 0.09281 0.51696 0.54321 0.0
C758 C 0.09746 0.49682 0.55076 0.0
C759 C 0.08303 0.48378 0.57269 0.0
C760 C 0.06463 0.491 0.59073 0.0
C761 C 0.11717 0.4891 0.53403 0.0
C762 C 0.11794 0.47424 0.49055 0.0
C763 C 0.13501 0.49694 0.55764 0.0
C764 C 0.13521 0.51249 0.60455 0.0
C765 C 0.12528 0.50955 0.65888 0.0
C766 C 0.12599 0.52412 0.70325 0.0
C767 C 0.13651 0.5417 0.6938 0.0
C768 C 0.14644 0.54473 0.64001 0.0
C769 C 0.14587 0.53019 0.59561 0.0
H770 H 0.13704 0.55294 0.72825 0.0
H771 H 0.1292 0.42275 0.27172 0.0
H772 H 0.94415 0.82704 0.09663 0.0
H773 H 0.94954 0.85768 0.04248 0.0
H774 H 0.98724 0.82672 0.91769 0.0
H775 H 0.98291 0.79606 0.9749 0.0
H776 H 0.00568 0.85664 0.95399 0.0
H777 H 0.93992 0.85015 0.87657 0.0
H778 H 0.90387 0.84379 0.88036 0.0
H779 H 0.89652 0.89274 0.00104 0.0
H780 H 0.93234 0.89943 0.99758 0.0
H781 H 0.02057 0.94434 0.78946 0.0
H782 H 0.00954 0.91156 0.8207 0.0
H783 H 0.97853 0.93782 0.96934 0.0
H784 H 0.98908 0.97115 0.93608 0.0
H785 H 0.95648 0.90958 0.91111 0.0
H786 H 0.02387 0.91438 0.98771 0.0
H787 H 0.05986 0.9203 0.97813 0.0
H788 H 0.06409 0.8732 0.84985 0.0
H789 H 0.02809 0.86714 0.85817 0.0
C790 C 0.95311 0.82659 0.05662 0.0
C791 C 0.96319 0.80922 0.04002 0.0
C792 C 0.9561 0.84417 0.02531 0.0
C793 C 0.96865 0.84457 0.97544 0.0
C794 C 0.97754 0.82682 0.95614 0.0
C795 C 0.975 0.8093 0.98857 0.0
C796 C 0.9745 0.86388 0.94899 0.0
C797 C 0.99484 0.86802 0.94332 0.0
C798 C 0.96049 0.87897 0.93614 0.0
C799 C 0.93882 0.87522 0.93705 0.0
C800 C 0.93057 0.85953 0.9039 0.0
C801 C 0.91015 0.85591 0.90584 0.0
C802 C 0.89786 0.86786 0.94082 0.0
C803 C 0.90595 0.88355 0.97358 0.0
C804 C 0.9263 0.88732 0.97148 0.0
C805 C 0.01136 0.94309 0.82874 0.0
C806 C 0.00566 0.96005 0.86075 0.0
C807 C 0.00519 0.92439 0.84672 0.0
C808 C 0.99356 0.92226 0.8979 0.0
C809 C 0.98762 0.93924 0.92984 0.0
C810 C 0.99364 0.95815 0.91118 0.0
C811 C 0.98749 0.90222 0.9172 0.0
C812 C 0.96719 0.89802 0.92128 0.0
C813 C 0.00153 0.88696 0.92745 0.0
C814 C 0.02326 0.89041 0.92327 0.0
C815 C 0.03246 0.90535 0.95725 0.0
C816 C 0.05287 0.90872 0.95206 0.0
C817 C 0.06425 0.89716 0.91331 0.0
C818 C 0.05526 0.88215 0.87982 0.0
C819 C 0.03486 0.87872 0.88483 0.0
H820 H 0.08003 0.89981 0.90931 0.0
H821 H 0.88208 0.86492 0.94262 0.0
H822 H 0.69092 0.93188 0.07325 0.0
H823 H 0.65952 0.94207 0.02826 0.0
H824 H 0.68906 0.99156 0.94377 0.0
H825 H 0.72006 0.98227 0.99337 0.0
H826 H 0.65808 0.00476 0.9805 0.0
H827 H 0.67022 0.94678 0.86737 0.0
H828 H 0.67739 0.91194 0.84147 0.0
H829 H 0.62477 0.89314 0.93314 0.0
H830 H 0.61747 0.9278 0.96053 0.0
H831 H 0.57317 0.02738 0.80676 0.0
H832 H 0.60585 0.01678 0.84035 0.0
H833 H 0.57867 0.97265 0.95353 0.0
H834 H 0.54567 0.98256 0.91632 0.0
H835 H 0.60904 0.95779 0.89514 0.0
H836 H 0.59955 0.02042 0.00545 0.0
H837 H 0.59269 0.05642 0.00817 0.0
H838 H 0.64253 0.06724 0.89377 0.0
H839 H 0.64959 0.03132 0.89004 0.0
C840 C 0.69064 0.94487 0.04477 0.0
C841 C 0.70775 0.95641 0.03694 0.0
C842 C 0.67274 0.95059 0.01847 0.0
C843 C 0.67184 0.96743 0.98148 0.0
C844 C 0.68922 0.97858 0.97226 0.0
C845 C 0.70694 0.97328 0.00044 0.0
C846 C 0.65254 0.9742 0.95619 0.0
C847 C 0.64756 0.99442 0.96104 0.0
C848 C 0.63859 0.9609 0.93069 0.0
C849 C 0.64345 0.93991 0.91668 0.0
C850 C 0.66034 0.9352 0.88276 0.0
C851 C 0.66439 0.91547 0.86766 0.0
C852 C 0.6516 0.90032 0.88586 0.0
C853 C 0.63473 0.90486 0.91932 0.0
C854 C 0.63064 0.92455 0.93467 0.0
C855 C 0.57421 0.0156 0.8395 0.0
C856 C 0.55708 0.006 0.86024 0.0
C857 C 0.59287 0.00962 0.85887 0.0
C858 C 0.59471 0.99437 0.90094 0.0
C859 C 0.57753 0.98466 0.92162 0.0
C860 C 0.55876 0.99033 0.90085 0.0
C861 C 0.61463 0.98797 0.92121 0.0
C862 C 0.61971 0.96792 0.91492 0.0
C863 C 0.62895 0.00153 0.94307 0.0
C864 C 0.62505 0.02318 0.94739 0.0
C865 C 0.60904 0.03048 0.98093 0.0
C866 C 0.60511 0.05087 0.98259 0.0
C867 C 0.61715 0.0641 0.95113 0.0
C868 C 0.63322 0.05698 0.91818 0.0
C869 C 0.63723 0.03663 0.91641 0.0
H870 H 0.61404 0.07986 0.95231 0.0
H871 H 0.65471 0.88508 0.87388 0.0
H872 H 0.58569 0.69936 0.02889 0.0
H873 H 0.57585 0.6677 0.98461 0.0
H874 H 0.51425 0.6838 0.00241 0.0
H875 H 0.52392 0.7161 0.04309 0.0
H876 H 0.53233 0.64195 0.05345 0.0
H877 H 0.51965 0.68405 0.87907 0.0
H878 H 0.52804 0.7091 0.80297 0.0
H879 H 0.57984 0.67566 0.75447 0.0
H880 H 0.57179 0.65051 0.83075 0.0
H881 H 0.47682 0.57379 0.87996 0.0
H882 H 0.49055 0.60389 0.92493 0.0
H883 H 0.54921 0.5871 0.86708 0.0
H884 H 0.5356 0.55703 0.8217 0.0
H885 H 0.53517 0.62817 0.83617 0.0
H886 H 0.54707 0.58495 0.00213 0.0
H887 H 0.53727 0.5577 0.06929 0.0
H888 H 0.48707 0.59168 0.12834 0.0
H889 H 0.49661 0.61916 0.06131 0.0
C890 C 0.57003 0.69626 0.02321 0.0
C891 C 0.55556 0.71004 0.0415 0.0
C892 C 0.56448 0.67816 -0.00199 0.0
C893 C 0.54438 0.67347 0.99107 0.0
C894 C 0.52985 0.68718 0.00836 0.0
C895 C 0.5354 0.70548 0.03254 0.0
C896 C 0.53863 0.65405 0.96646 0.0
C897 C 0.53278 0.639 0.00595 0.0
C898 C 0.53986 0.65007 0.90477 0.0
C899 C 0.54529 0.6656 0.8611 0.0
C900 C 0.53299 0.68222 0.85278 0.0
C901 C 0.53762 0.69638 0.80944 0.0
C902 C 0.55451 0.69402 0.77407 0.0
C903 C 0.56681 0.67751 0.78206 0.0
C904 C 0.56222 0.66331 0.82534 0.0
C905 C 0.4927 0.57625 0.87817 0.0
C906 C 0.50521 0.5629 0.84827 0.0
C907 C 0.50047 0.59348 0.90331 0.0
C908 C 0.5208 0.59763 0.89862 0.0
C909 C 0.53345 0.58408 0.87066 0.0
C910 C 0.52571 0.56675 0.84593 0.0
C911 C 0.5286 0.61631 0.92302 0.0
C912 C 0.53491 0.63114 0.88369 0.0
C913 C 0.52793 0.62006 0.98469 0.0
C914 C 0.52255 0.60408 0.02694 0.0
C915 C 0.53394 0.58659 0.02948 0.0
C916 C 0.52845 0.57112 0.06749 0.0
C917 C 0.51155 0.57296 0.10306 0.0
C918 C 0.50017 0.59031 0.10082 0.0
C919 C 0.50565 0.60587 0.06303 0.0
H920 H 0.50728 0.56094 0.13236 0.0
H921 H 0.55803 0.70495 0.74037 0.0
H922 H 0.79406 0.53427 -0.00025 0.0
H923 H 0.8243 0.52437 0.94744 0.0
H924 H 0.85469 0.57545 0.02025 0.0
H925 H 0.82386 0.58638 0.06683 0.0
H926 H 0.86834 0.57025 0.9199 0.0
H927 H 0.8553 0.52007 0.08007 0.0
H928 H 0.83554 0.49327 0.1263 0.0
H929 H 0.83519 0.4613 0.96083 0.0
H930 H 0.85487 0.48789 0.91377 0.0
H931 H 0.96876 0.53917 0.90977 0.0
H932 H 0.93548 0.54955 0.94228 0.0
H933 H 0.91043 0.49723 0.85982 0.0
H934 H 0.94346 0.48626 0.83214 0.0
H935 H 0.89275 0.50178 0.95412 0.0
H936 H 0.90892 0.54685 0.79675 0.0
H937 H 0.92824 0.5722 0.7427 0.0
H938 H 0.92201 0.61233 0.88997 0.0
H939 H 0.90288 0.58722 0.94522 0.0
C940 C 0.80721 0.54345 0.00371 0.0
C941 C 0.80684 0.56091 0.0378 0.0
C942 C 0.82457 0.53766 0.97452 0.0
C943 C 0.84215 0.54867 0.98172 0.0
C944 C 0.84145 0.56657 0.01404 0.0
C945 C 0.82385 0.57282 0.04084 0.0
C946 C 0.86145 0.54159 0.9574 0.0
C947 C 0.87375 0.55532 0.92806 0.0
C948 C 0.86828 0.52183 0.96494 0.0
C949 C 0.85628 0.50606 0.99336 0.0
C950 C 0.85084 0.5074 0.05358 0.0
C951 C 0.8397 0.49224 0.07989 0.0
C952 C 0.83401 0.47567 0.04644 0.0
C953 C 0.83954 0.47416 0.98665 0.0
C954 C 0.8507 0.48925 0.96019 0.0
C955 C 0.9561 0.52978 0.90014 0.0
C956 C 0.95859 0.51174 0.87001 0.0
C957 C 0.93709 0.53582 0.91767 0.0
C958 C 0.92033 0.52433 0.90265 0.0
C959 C 0.92302 0.5063 0.8725 0.0
C960 C 0.94194 0.49998 0.85698 0.0
C961 C 0.89994 0.53067 0.9189 0.0
C962 C 0.88739 0.51673 0.946 0.0
C963 C 0.89278 0.55009 0.90817 0.0
C964 C 0.90453 0.56512 0.87521 0.0
C965 C 0.91179 0.56104 0.81777 0.0
C966 C 0.92269 0.57539 0.7869 0.0
C967 C 0.92629 0.5939 0.81286 0.0
C968 C 0.91916 0.59804 0.86989 0.0
C969 C 0.90827 0.58377 0.90097 0.0
H970 H 0.93445 0.60509 0.78863 0.0
H971 H 0.8254 0.46396 0.06692 0.0
H972 H 0.0978 0.15496 0.1963 0.0
H973 H 0.085 0.13054 0.1255 0.0
H974 H 0.03329 0.16708 0.09547 0.0
H975 H 0.04539 0.1909 0.1688 0.0
H976 H 0.02253 0.1298 0.09885 0.0
H977 H 0.07181 0.16709 0.99587 0.0
H978 H 0.10473 0.18258 0.98423 0.0
H979 H 0.1323 0.12511 0.98915 0.0
H980 H 0.0995 0.10928 0.00141 0.0
H981 H 0.99351 0.09125 0.81957 0.0
H982 H 0.00792 0.11393 0.89251 0.0
H983 H 0.04982 0.06888 0.94581 0.0
H984 H 0.03553 0.04593 0.87279 0.0
H985 H 0.06583 0.1097 0.93042 0.0
H986 H 0.01305 0.07362 0.0332 0.0
H987 H 0.97871 0.06094 0.03646 0.0
H988 H 0.95626 0.1204 0.02119 0.0
H989 H 0.9905 0.1334 0.01742 0.0
C990 C 0.08352 0.15757 0.1756 0.0
C991 C 0.07254 0.17474 0.18851 0.0
C992 C 0.07632 0.14373 0.13458 0.0
C993 C 0.05829 0.14711 0.10467 0.0
C994 C 0.04721 0.16415 0.11806 0.0
C995 C 0.05426 0.17783 0.1596 0.0
C996 C 0.05129 0.13325 0.05793 0.0
C997 C 0.03198 0.12554 0.06192 0.0
C998 C 0.06356 0.1277 0.00957 0.0
C999 C 0.08323 0.13702 -0.0001 0.0
C1000 C 0.0849 0.15776 0.99454 0.0
C1001 C 0.10353 0.1666 0.98787 0.0
C1002 C 0.1206 0.15484 0.98606 0.0
C1003 C 0.11905 0.13419 0.99056 0.0
C1004 C 0.10045 0.12527 0.99723 0.0
C1005 C 0.00578 0.08609 0.84671 0.0
C1006 C 0.01319 0.06666 0.84088 0.0
C1007 C 0.01405 0.09913 0.88814 0.0
C1008 C 0.02983 0.09299 0.9245 0.0
C1009 C 0.03766 0.07384 0.91787 0.0
C1010 C 0.02936 0.06073 0.87649 0.0
C1011 C 0.03725 0.10622 0.97194 0.0
C1012 C 0.05655 0.11387 0.96782 0.0
C1013 C 0.02482 0.11212 0.01936 0.0
C1014 C 0.00429 0.10446 0.02499 0.0
C1015 C 0.00078 0.08397 0.03066 0.0
C1016 C 0.98134 0.07673 0.03252 0.0
C1017 C 0.96531 0.08986 0.02901 0.0
C1018 C 0.96869 0.11026 0.02402 0.0
C1019 C 0.9881 0.11758 0.02221 0.0
H1020 H 0.95028 0.08422 0.03017 0.0
H1021 H 0.13502 0.16171 0.98108 0.0
H1022 H 0.33831 0.0905 0.12815 0.0
H1023 H 0.35783 0.07628 0.04641 0.0
H1024 H 0.37919 0.03029 0.16369 0.0
H1025 H 0.3593 0.04385 0.2448 0.0
H1026 H 0.40605 0.06556 0.09324 0.0
H1027 H 0.36228 0.00766 0.08766 0.0
H1028 H 0.3307 0.98964 0.07521 0.0
H1029 H 0.32279 0.01589 0.90247 0.0
H1030 H 0.35417 0.03435 0.91443 0.0
H1031 H 0.4747 0.01173 0.91337 0.0
H1032 H 0.45153 0.02488 0.9877 0.0
H1033 H 0.40843 0.03582 0.84857 0.0
H1034 H 0.43104 0.0213 0.77548 0.0
H1035 H 0.39122 0.01797 0.93082 0.0
H1036 H 0.43545 0.07444 0.93152 0.0
H1037 H 0.46666 0.09327 0.94235 0.0
H1038 H 0.47351 0.07143 0.12093 0.0
H1039 H 0.44247 0.05233 0.11099 0.0
C1040 C 0.34694 0.07719 0.13617 0.0
C1041 C 0.34757 0.06846 0.19293 0.0
C1042 C 0.35785 0.06899 0.08943 0.0
C1043 C 0.36958 0.05211 0.09921 0.0
C1044 C 0.36983 0.04307 0.15529 0.0
C1045 C 0.35866 0.051 0.20163 0.0
C1046 C 0.38424 0.04617 0.05447 0.0
C1047 C 0.40299 0.05503 0.05778 0.0
C1048 C 0.37981 0.03283 0.00802 0.0
C1049 C 0.36033 0.02278 0.00263 0.0
C1050 C 0.35357 0.00998 0.04769 0.0
C1051 C 0.33578 -0.00044 0.04051 0.0
C1052 C 0.32467 0.00172 0.98825 0.0
C1053 C 0.33133 0.01432 0.94308 0.0
C1054 C 0.3491 0.02478 0.95009 0.0
C1055 C 0.46029 0.01711 0.89909 0.0
C1056 C 0.45436 0.01536 0.83947 0.0
C1057 C 0.44716 0.02481 0.94126 0.0
C1058 C 0.42825 0.0315 0.92374 0.0
C1059 C 0.42285 0.03061 0.8633 0.0
C1060 C 0.4357 0.02234 0.82163 0.0
C1061 C 0.41332 0.03754 0.96857 0.0
C1062 C 0.39444 0.02867 0.96565 0.0
C1063 C 0.41762 0.05101 0.01528 0.0
C1064 C 0.43676 0.06176 0.02019 0.0
C1065 C 0.44375 0.07344 0.97279 0.0
C1066 C 0.46138 0.08423 0.97888 0.0
C1067 C 0.4721 0.08349 0.03221 0.0
C1068 C 0.46523 0.07196 0.07959 0.0
C1069 C 0.44762 0.06116 0.07376 0.0
H1070 H 0.48569 0.09191 0.03689 0.0
H1071 H 0.31097 0.99354 0.98263 0.0
H1072 H 0.45469 0.35427 0.22876 0.0
H1073 H 0.46496 0.38093 0.1626 0.0
H1074 H 0.4692 0.3395 0.01672 0.0
H1075 H 0.45877 0.31241 0.08311 0.0
H1076 H 0.50081 0.37014 0.02382 0.0
H1077 H 0.42991 0.36325 0.01984 0.0
H1078 H 0.39705 0.35922 0.06639 0.0
H1079 H 0.40384 0.41529 0.15522 0.0
H1080 H 0.43694 0.41946 0.11008 0.0
H1081 H 0.49194 0.44429 0.79703 0.0
H1082 H 0.48122 0.41566 0.85633 0.0
H1083 H 0.48579 0.45076 0.01644 0.0
H1084 H 0.49755 0.4792 0.95731 0.0
H1085 H 0.44921 0.4221 0.99629 0.0
H1086 H 0.52063 0.42801 0.0061 0.0
H1087 H 0.55397 0.43195 0.9629 0.0
H1088 H 0.54667 0.37759 0.86538 0.0
H1089 H 0.51298 0.37362 0.90681 0.0
C1090 C 0.45793 0.35069 0.18276 0.0
C1091 C 0.45554 0.33127 0.16084 0.0
C1092 C 0.46389 0.36596 0.14511 0.0
C1093 C 0.46756 0.36218 0.08479 0.0
C1094 C 0.46635 0.34265 0.06325 0.0
C1095 C 0.46029 0.32726 0.10105 0.0
C1096 C 0.47087 0.37905 0.04396 0.0
C1097 C 0.48945 0.38133 0.01689 0.0
C1098 C 0.4561 0.39378 0.03602 0.0
C1099 C 0.43597 0.3916 0.06192 0.0
C1100 C 0.42445 0.37466 0.04959 0.0
C1101 C 0.40578 0.37235 0.07572 0.0
C1102 C 0.39838 0.38698 0.11383 0.0
C1103 C 0.4096 0.40397 0.12572 0.0
C1104 C 0.42832 0.40632 0.09984 0.0
C1105 C 0.49006 0.44602 0.8447 0.0
C1106 C 0.49526 0.46387 0.87292 0.0
C1107 C 0.4841 0.42968 0.87841 0.0
C1108 C 0.48287 0.43118 0.94054 0.0
C1109 C 0.48669 0.44944 0.96843 0.0
C1110 C 0.49327 0.46563 0.93484 0.0
C1111 C 0.47917 0.41326 0.97658 0.0
C1112 C 0.4605 0.4108 0.0027 0.0
C1113 C 0.49386 0.39841 0.98364 0.0
C1114 C 0.51411 0.40073 0.95864 0.0
C1115 C 0.52597 0.41708 0.97465 0.0
C1116 C 0.54497 0.41928 0.95064 0.0
C1117 C 0.5524 0.40509 0.91116 0.0
C1118 C 0.54085 0.38863 0.89576 0.0
C1119 C 0.52179 0.38641 0.91943 0.0
H1120 H 0.56713 0.40679 0.89272 0.0
H1121 H 0.38392 0.38516 0.13406 0.0
H1122 H 0.16495 0.43347 0.21052 0.0
H1123 H 0.13758 0.44562 0.14951 0.0
H1124 H 0.17881 0.4786 0.04105 0.0
H1125 H 0.20637 0.46703 0.1038 0.0
H1126 H 0.1448 0.49988 0.06187 0.0
H1127 H 0.16152 0.43414 0.99409 0.0
H1128 H 0.16873 0.39866 0.0104 0.0
H1129 H 0.11011 0.39004 0.08058 0.0
H1130 H 0.10265 0.42557 0.0654 0.0
H1131 H 0.09089 0.51111 0.79933 0.0
H1132 H 0.11504 0.49854 0.87061 0.0
H1133 H 0.06772 0.47444 0.97758 0.0
H1134 H 0.04319 0.48707 0.90549 0.0
H1135 H 0.10269 0.44893 0.96339 0.0
H1136 H 0.08541 0.51486 0.02453 0.0
H1137 H 0.07849 0.55019 0.00457 0.0
H1138 H 0.13834 0.5584 0.94398 0.0
H1139 H 0.14554 0.52301 0.96277 0.0
C1140 C 0.16823 0.44345 0.17404 0.0
C1141 C 0.18784 0.44924 0.16191 0.0
C1142 C 0.15255 0.45033 0.13904 0.0
C1143 C 0.15616 0.46283 0.09029 0.0
C1144 C 0.17569 0.46896 0.0785 0.0
C1145 C 0.19143 0.46218 0.11397 0.0
C1146 C 0.13964 0.46854 0.04993 0.0
C1147 C 0.13571 0.48875 0.04003 0.0
C1148 C 0.12748 0.45402 0.02235 0.0
C1149 C 0.13157 0.43251 0.02891 0.0
C1150 C 0.15018 0.42467 0.01304 0.0
C1151 C 0.15432 0.40457 0.02216 0.0
C1152 C 0.1399 0.39211 0.0466 0.0
C1153 C 0.12127 0.39971 0.06165 0.0
C1154 C 0.11706 0.41982 0.05271 0.0
C1155 C 0.08556 0.5031 0.83784 0.0
C1156 C 0.06512 0.50039 0.84728 0.0
C1157 C 0.09939 0.49588 0.87846 0.0
C1158 C 0.09312 0.48584 0.92968 0.0
C1159 C 0.07279 0.48224 0.93827 0.0
C1160 C 0.05883 0.48951 0.89727 0.0
C1161 C 0.10799 0.48019 0.97521 0.0
C1162 C 0.11164 0.46003 0.98588 0.0
C1163 C 0.11991 0.49474 0.00335 0.0
C1164 C 0.11599 0.51626 0.99489 0.0
C1165 C 0.09709 0.5242 0.00689 0.0
C1166 C 0.09311 0.54422 0.99572 0.0
C1167 C 0.10796 0.55653 0.97297 0.0
C1168 C 0.12686 0.54885 0.96166 0.0
C1169 C 0.13091 0.52881 0.97269 0.0
H1170 H 0.10483 0.57202 0.96415 0.0
H1171 H 0.14315 0.37655 0.0538 0.0
H1172 H 0.98604 0.81331 0.35232 0.0
H1173 H 0.98422 0.84195 0.41903 0.0
H1174 H 0.97345 0.88038 0.26853 0.0
H1175 H 0.97572 0.85193 0.2016 0.0
H1176 H 0.00113 0.89549 0.33333 0.0
H1177 H 0.93692 0.87149 0.37345 0.0
H1178 H 0.91036 0.8477 0.39782 0.0
H1179 H 0.93725 0.83662 0.56818 0.0
H1180 H 0.96414 0.86014 0.54456 0.0
H1181 H 0.99174 0.97607 0.5454 0.0
H1182 H 0.9817 0.95206 0.46861 0.0
H1183 H 0.00405 0.90416 0.57714 0.0
H1184 H 0.01437 0.92791 0.65331 0.0
H1185 H 0.96498 0.89776 0.52549 0.0
H1186 H 0.03194 0.91938 0.47155 0.0
H1187 H 0.05716 0.94411 0.44285 0.0
H1188 H 0.02167 0.96134 0.29237 0.0
H1189 H 0.99611 0.93687 0.32068 0.0
C1190 C 0.9831 0.82783 0.33356 0.0
C1191 C 0.98125 0.83038 0.27171 0.0
C1192 C 0.9819 0.84419 0.37175 0.0
C1193 C 0.97854 0.86334 0.34887 0.0
C1194 C 0.97609 0.86579 0.28723 0.0
C1195 C 0.97744 0.84949 0.24904 0.0
C1196 C 0.97941 0.88093 0.38869 0.0
C1197 C 0.99283 0.89617 0.37467 0.0
C1198 C 0.96866 0.88189 0.44273 0.0
C1199 C 0.95266 0.86749 0.45699 0.0
C1200 C 0.93729 0.86385 0.4159 0.0
C1201 C 0.92214 0.85043 0.42963 0.0
C1202 C 0.92214 0.84062 0.48446 0.0
C1203 C 0.93728 0.84422 0.5257 0.0
C1204 C 0.95247 0.85761 0.51219 0.0
C1205 C 0.99438 0.9604 0.55297 0.0
C1206 C 0.00391 0.95387 0.60525 0.0
C1207 C 0.98868 0.94675 0.5091 0.0
C1208 C 0.99216 0.92639 0.51739 0.0
C1209 C 0.0012 0.91983 0.57011 0.0
C1210 C 0.00718 0.93343 0.6134 0.0
C1211 C 0.98708 0.91176 0.47067 0.0
C1212 C 0.97288 0.89715 0.48346 0.0
C1213 C 0.99681 0.91157 0.41497 0.0
C1214 C 0.01199 0.92653 0.39876 0.0
C1215 C 0.0294 0.92863 0.4328 0.0
C1216 C 0.04379 0.94254 0.41648 0.0
C1217 C 0.04099 0.95435 0.36596 0.0
C1218 C 0.0238 0.95224 0.33159 0.0
C1219 C 0.00936 0.93835 0.34775 0.0
H1220 H 0.05216 0.96509 0.35334 0.0
H1221 H 0.91039 0.83026 0.49504 0.0
H1222 H 0.69081 0.00555 0.29439 0.0
H1223 H 0.66659 0.00268 0.37563 0.0
H1224 H 0.64058 0.95158 0.29011 0.0
H1225 H 0.66498 0.95399 0.20982 0.0
H1226 H 0.61435 0.98588 0.32105 0.0
H1227 H 0.66106 0.94011 0.4017 0.0
H1228 H 0.69348 0.92758 0.43618 0.0
H1229 H 0.69616 0.97364 0.56817 0.0
H1230 H 0.66393 0.98671 0.53373 0.0
H1231 H 0.54386 0.98066 0.5568 0.0
H1232 H 0.56812 0.9694 0.48296 0.0
H1233 H 0.61298 0.00597 0.56566 0.0
H1234 H 0.58914 0.01685 0.64 0.0
H1235 H 0.62857 0.9718 0.5338 0.0
H1236 H 0.58591 0.02112 0.44198 0.0
H1237 H 0.55433 0.03534 0.40612 0.0
H1238 H 0.5451 0.98446 0.29416 0.0
H1239 H 0.57651 0.9698 0.33008 0.0
C1240 C 0.67996 0.99369 0.29315 0.0
C1241 C 0.67966 0.98004 0.24588 0.0
C1242 C 0.66632 0.99194 0.33969 0.0
C1243 C 0.65204 0.97678 0.33885 0.0
C1244 C 0.65166 0.96322 0.29161 0.0
C1245 C 0.66554 0.96468 0.24584 0.0
C1246 C 0.63635 0.97632 0.38442 0.0
C1247 C 0.61729 0.98241 0.36746 0.0
C1248 C 0.64046 0.97203 0.44477 0.0
C1249 C 0.66015 0.96455 0.46454 0.0
C1250 C 0.66869 0.94777 0.43745 0.0
C1251 C 0.68701 0.94051 0.45717 0.0
C1252 C 0.69691 0.94984 0.50421 0.0
C1253 C 0.6885 0.96645 0.53164 0.0
C1254 C 0.6702 0.97379 0.51203 0.0
C1255 C 0.55893 0.98619 0.5594 0.0
C1256 C 0.56451 -0.00015 0.6038 0.0
C1257 C 0.57276 0.97976 0.51719 0.0
C1258 C 0.59229 0.98705 0.51839 0.0
C1259 C 0.598 0.00013 0.56388 0.0
C1260 C 0.58428 0.00645 0.60616 0.0
C1261 C 0.60667 0.9821 0.47083 0.0
C1262 C 0.6255 0.97494 0.48728 0.0
C1263 C 0.60246 0.98565 0.40994 0.0
C1264 C 0.58337 0.99423 0.38943 0.0
C1265 C 0.57702 0.01286 0.41027 0.0
C1266 C 0.55918 0.02102 0.38982 0.0
C1267 C 0.54767 0.01077 0.34808 0.0
C1268 C 0.55399 0.99235 0.32666 0.0
C1269 C 0.57179 0.9841 0.34708 0.0
H1270 H 0.5339 0.01714 0.33218 0.0
H1271 H 0.71106 0.94417 0.51952 0.0
H1272 H 0.5696 0.67414 0.23032 0.0
H1273 H 0.57471 0.64846 0.30554 0.0
H1274 H 0.51922 0.66428 0.38841 0.0
H1275 H 0.51388 0.69006 0.31299 0.0
H1276 H 0.55258 0.65481 0.47071 0.0
H1277 H 0.51683 0.62931 0.29501 0.0
H1278 H 0.51568 0.62643 0.18545 0.0
H1279 H 0.57118 0.59508 0.18703 0.0
H1280 H 0.57285 0.59814 0.29658 0.0
H1281 H 0.49408 0.58245 0.58223 0.0
H1282 H 0.51072 0.60687 0.52155 0.0
H1283 H 0.56051 0.56739 0.4986 0.0
H1284 H 0.5439 0.54241 0.56179 0.0
H1285 H 0.54309 0.58682 0.38968 0.0
H1286 H 0.57238 0.60361 0.57288 0.0
H1287 H 0.57425 0.60879 0.68142 0.0
H1288 H 0.53254 0.6568 0.66817 0.0
H1289 H 0.53011 0.6517 0.55959 0.0
C1290 C 0.55857 0.67234 0.26495 0.0
C1291 C 0.54123 0.68397 0.2655 0.0
C1292 C 0.56161 0.65775 0.30802 0.0
C1293 C 0.54739 0.6546 0.35243 0.0
C1294 C 0.53043 0.66669 0.35465 0.0
C1295 C 0.5273 0.68121 0.31122 0.0
C1296 C 0.54881 0.63711 0.39174 0.0
C1297 C 0.55066 0.63991 0.45332 0.0
C1298 C 0.54708 0.61769 0.36843 0.0
C1299 C 0.54509 0.61414 0.30365 0.0
C1300 C 0.52875 0.62176 0.27192 0.0
C1301 C 0.52804 0.62015 0.20991 0.0
C1302 C 0.54346 0.61075 0.17943 0.0
C1303 C 0.55934 0.60247 0.21085 0.0
C1304 C 0.56018 0.60412 0.27285 0.0
C1305 C 0.50854 0.57871 0.56445 0.0
C1306 C 0.51766 0.56039 0.57703 0.0
C1307 C 0.51811 0.59285 0.53009 0.0
C1308 C 0.53694 0.58905 0.50674 0.0
C1309 C 0.54603 0.5706 0.51715 0.0
C1310 C 0.53651 0.55637 0.55282 0.0
C1311 C 0.54602 0.60451 0.46917 0.0
C1312 C 0.54594 0.60153 0.40743 0.0
C1313 C 0.54948 0.62374 0.49256 0.0
C1314 C 0.551 0.62718 0.55789 0.0
C1315 C 0.56349 0.61519 0.59307 0.0
C1316 C 0.56467 0.61813 0.65463 0.0
C1317 C 0.55347 0.63307 0.68165 0.0
C1318 C 0.54118 0.64521 0.64712 0.0
C1319 C 0.53993 0.64233 0.5855 0.0
H1320 H 0.5543 0.63521 0.72934 0.0
H1321 H 0.54325 0.60999 0.13148 0.0
H1322 H 0.82567 0.51936 0.30538 0.0
H1323 H 0.84941 0.52408 0.38712 0.0
H1324 H 0.88697 0.55863 0.27139 0.0
H1325 H 0.86333 0.55418 0.18982 0.0
H1326 H 0.90556 0.52632 0.32562 0.0
H1327 H 0.86612 0.582 0.37912 0.0
H1328 H 0.83618 0.60112 0.40531 0.0
H1329 H 0.82726 0.56428 0.55899 0.0
H1330 H 0.85695 0.5447 0.53324 0.0
H1331 H 0.9772 0.53587 0.55676 0.0
H1332 H 0.95381 0.54612 0.4787 0.0
H1333 H 0.90571 0.51933 0.57651 0.0
H1334 H 0.92877 0.50929 0.65453 0.0
H1335 H 0.89404 0.55369 0.52772 0.0
H1336 H 0.92879 0.49464 0.46474 0.0
H1337 H 0.95734 0.47368 0.43708 0.0
H1338 H 0.97335 0.51516 0.3001 0.0
H1339 H 0.94505 0.53652 0.3276 0.0
C1340 C 0.83894 0.52803 0.2975 0.0
C1341 C 0.84276 0.53622 0.2411 0.0
C1342 C 0.85234 0.53093 0.34436 0.0
C1343 C 0.86978 0.54189 0.33529 0.0
C1344 C 0.87348 0.55028 0.27929 0.0
C1345 C 0.86002 0.5476 0.23271 0.0
C1346 C 0.88531 0.5424 0.38179 0.0
C1347 C 0.90324 0.53272 0.36944 0.0
C1348 C 0.88197 0.55036 0.43919 0.0
C1349 C 0.8637 0.56171 0.45381 0.0
C1350 C 0.85764 0.57777 0.41804 0.0
C1351 C 0.84074 0.58875 0.43294 0.0
C1352 C 0.8298 0.58388 0.48369 0.0
C1353 C 0.83573 0.56801 0.51963 0.0
C1354 C 0.8526 0.55697 0.50491 0.0
C1355 C 0.9616 0.53238 0.5619 0.0
C1356 C 0.95488 0.52153 0.61141 0.0
C1357 C 0.94828 0.5382 0.51724 0.0
C1358 C 0.92806 0.53327 0.52151 0.0
C1359 C 0.92123 0.52328 0.57225 0.0
C1360 C 0.93449 0.51742 0.61663 0.0
C1361 C 0.91411 0.53722 0.47179 0.0
C1362 C 0.89648 0.54766 0.48352 0.0
C1363 C 0.91755 0.52975 0.41381 0.0
C1364 C 0.93503 0.51735 0.39896 0.0
C1365 C 0.93858 0.49944 0.42935 0.0
C1366 C 0.95467 0.48745 0.41355 0.0
C1367 C 0.96721 0.49313 0.36706 0.0
C1368 C 0.96369 0.51082 0.33628 0.0
C1369 C 0.94764 0.52289 0.352 0.0
H1370 H 0.97961 0.48378 0.35472 0.0
H1371 H 0.81675 0.59244 0.49524 0.0
loop_
_geom_bond_atom_site_label_1
_geom_bond_atom_site_label_2
_geom_bond_distance
_geom_bond_site_symmetry_2
_ccdc_geom_bond_type
O0 Cd1 2.300 . S
O0 C7 1.275 . S
Cd1 O0 2.300 . S
Cd1 O9 2.381 . S
Cd1 O10 2.378 . S
O2 Cd3 2.385 . S
O2 C7 1.255 . S
Cd3 O2 2.385 . S
Cd3 O4 2.317 . S
O4 Cd3 2.317 . S
O4 C5 1.232 . S
C5 O4 1.232 . S
C5 O6 1.218 . S
O6 C5 1.218 . S
C7 O0 1.275 . S
C7 O2 1.255 . S
C8 O9 1.258 . S
C8 O10 1.256 . S
O9 Cd1 2.381 . S
O9 C8 1.258 . S
O10 Cd1 2.378 . S
O10 C8 1.256 . S
O11 Cd12 2.300 . S
O11 C18 1.275 . S
Cd12 O11 2.300 . S
Cd12 O20 2.381 . S
Cd12 O21 2.378 . S
O13 Cd14 2.385 1_655 S
O13 C18 1.255 . S
Cd14 O13 2.385 1_455 S
Cd14 O15 2.317 1_455 S
O15 Cd14 2.317 1_655 S
O15 C16 1.232 . S
C16 O15 1.232 . S
C16 O17 1.218 . S
O17 C16 1.218 . S
C18 O11 1.275 . S
C18 O13 1.255 . S
C19 O20 1.258 . S
C19 O21 1.256 . S
O20 Cd12 2.381 . S
O20 C19 1.258 . S
O21 Cd12 2.378 . S
O21 C19 1.256 . S
O22 Cd23 2.300 . S
O22 C29 1.275 . S
Cd23 O22 2.300 . S
Cd23 O31 2.381 . S
Cd23 O32 2.378 . S
O24 Cd25 2.385 1_565 S
O24 C29 1.255 . S
Cd25 O24 2.385 1_545 S
Cd25 O26 2.317 1_545 S
O26 Cd25 2.317 1_565 S
O26 C27 1.232 . S
C27 O26 1.232 . S
C27 O28 1.218 . S
O28 C27 1.218 . S
C29 O22 1.275 . S
C29 O24 1.255 . S
C30 O31 1.258 . S
C30 O32 1.256 . S
O31 Cd23 2.381 . S
O31 C30 1.258 . S
O32 Cd23 2.378 . S
O32 C30 1.256 . S
O33 Cd34 2.300 . S
O33 C40 1.275 . S
Cd34 O33 2.300 . S
Cd34 O42 2.381 . S
Cd34 O43 2.378 . S
O35 Cd36 2.385 . S
O35 C40 1.255 . S
Cd36 O35 2.385 . S
Cd36 O37 2.317 . S
O37 Cd36 2.317 . S
O37 C38 1.232 . S
C38 O37 1.232 . S
C38 O39 1.218 . S
O39 C38 1.218 . S
C40 O33 1.275 . S
C40 O35 1.255 . S
C41 O42 1.258 . S
C41 O43 1.256 . S
O42 Cd34 2.381 . S
O42 C41 1.258 . S
O43 Cd34 2.378 . S
O43 C41 1.256 . S
O44 Cd45 2.300 . S
O44 C51 1.275 . S
Cd45 O44 2.300 . S
Cd45 O53 2.381 . S
Cd45 O54 2.378 . S
O46 Cd47 2.385 . S
O46 C51 1.255 . S
Cd47 O46 2.385 . S
Cd47 O48 2.317 . S
O48 Cd47 2.317 . S
O48 C49 1.232 . S
C49 O48 1.232 . S
C49 O50 1.218 . S
O50 C49 1.218 . S
C51 O44 1.275 . S
C51 O46 1.255 . S
C52 O53 1.258 . S
C52 O54 1.256 . S
O53 Cd45 2.381 . S
O53 C52 1.258 . S
O54 Cd45 2.378 . S
O54 C52 1.256 . S
O55 Cd56 2.300 . S
O55 C62 1.275 . S
Cd56 O55 2.300 . S
Cd56 O64 2.381 . S
Cd56 O65 2.378 . S
O57 Cd58 2.385 . S
O57 C62 1.255 . S
Cd58 O57 2.385 . S
Cd58 O59 2.317 . S
O59 Cd58 2.317 . S
O59 C60 1.232 . S
C60 O59 1.232 . S
C60 O61 1.218 . S
O61 C60 1.218 . S
C62 O55 1.275 . S
C62 O57 1.255 . S
C63 O64 1.258 . S
C63 O65 1.256 . S
O64 Cd56 2.381 . S
O64 C63 1.258 . S
O65 Cd56 2.378 . S
O65 C63 1.256 . S
O66 Cd67 2.300 . S
O66 C73 1.275 . S
Cd67 O66 2.300 . S
Cd67 O75 2.381 . S
Cd67 O76 2.378 . S
O68 Cd69 2.385 . S
O68 C73 1.255 . S
Cd69 O68 2.385 . S
Cd69 O70 2.317 . S
O70 Cd69 2.317 . S
O70 C71 1.232 . S
C71 O70 1.232 . S
C71 O72 1.218 . S
O72 C71 1.218 . S
C73 O66 1.275 . S
C73 O68 1.255 . S
C74 O75 1.258 . S
C74 O76 1.256 . S
O75 Cd67 2.381 . S
O75 C74 1.258 . S
O76 Cd67 2.378 . S
O76 C74 1.256 . S
O77 Cd78 2.300 . S
O77 C84 1.275 . S
Cd78 O77 2.300 . S
Cd78 O86 2.381 . S
Cd78 O87 2.378 . S
O79 Cd80 2.385 . S
O79 C84 1.255 . S
Cd80 O79 2.385 . S
Cd80 O81 2.317 . S
O81 Cd80 2.317 . S
O81 C82 1.232 . S
C82 O81 1.232 . S
C82 O83 1.218 . S
O83 C82 1.218 . S
C84 O77 1.275 . S
C84 O79 1.255 . S
C85 O86 1.258 . S
C85 O87 1.256 . S
O86 Cd78 2.381 . S
O86 C85 1.258 . S
O87 Cd78 2.378 . S
O87 C85 1.256 . S
O88 Mg89 1.990 . S
O88 C102 1.253 . S
Mg89 O88 1.990 . S
Mg89 O92 2.180 1_565 S
Mg89 O93 2.117 . S
Mg89 O107 2.030 . S
O90 Mg91 2.072 1_565 S
O90 C102 1.260 . S
Mg91 O90 2.072 1_545 S
Mg91 O92 2.099 . S
Mg91 O94 2.079 . S
Mg91 O95 2.072 . S
Mg91 O97 2.099 1_455 S
Mg91 O108 2.079 1_545 S
O92 Mg89 2.180 1_545 S
O92 Mg91 2.099 . S
O92 C103 1.279 . S
O93 Mg89 2.117 . S
O93 C103 1.250 1_565 S
O94 Mg91 2.079 . S
O94 C104 1.264 . S
O95 Mg91 2.072 . S
O95 C105 1.260 . S
Mg96 O97 2.180 . S
Mg96 O98 2.030 . S
Mg96 O99 1.990 1_655 S
Mg96 O100 2.117 . S
O97 Mg91 2.099 1_655 S
O97 Mg96 2.180 . S
O97 C106 1.279 . S
O98 Mg96 2.030 . S
O98 C104 1.248 1_655 S
O99 Mg96 1.990 1_455 S
O99 C105 1.253 . S
O100 Mg96 2.117 . S
O100 C106 1.250 . S
C101 O107 1.248 . S
C101 O108 1.264 . S
C102 O88 1.253 . S
C102 O90 1.260 . S
C103 O92 1.279 . S
C103 O93 1.250 1_545 S
C104 O94 1.264 . S
C104 O98 1.248 1_455 S
C105 O95 1.260 . S
C105 O99 1.253 . S
C106 O97 1.279 . S
C106 O100 1.250 . S
O107 Mg89 2.030 . S
O107 C101 1.248 . S
O108 Mg91 2.079 1_565 S
O108 C101 1.264 . S
O109 Mg110 1.990 1_545 S
O109 C123 1.253 . S
Mg110 O109 1.990 1_565 S
Mg110 O113 2.180 . S
Mg110 O114 2.117 . S
Mg110 O128 2.030 . S
O111 Mg112 2.072 . S
O111 C123 1.260 . S
Mg112 O111 2.072 . S
Mg112 O113 2.099 1_545 S
Mg112 O115 2.079 . S
Mg112 O116 2.072 . S
Mg112 O118 2.099 . S
Mg112 O129 2.079 . S
O113 Mg110 2.180 . S
O113 Mg112 2.099 1_565 S
O113 C124 1.279 . S
O114 Mg110 2.117 . S
O114 C124 1.250 . S
O115 Mg112 2.079 . S
O115 C125 1.264 . S
O116 Mg112 2.072 . S
O116 C126 1.260 . S
Mg117 O118 2.180 . S
Mg117 O119 2.030 . S
Mg117 O120 1.990 . S
Mg117 O121 2.117 . S
O118 Mg112 2.099 . S
O118 Mg117 2.180 . S
O118 C127 1.279 . S
O119 Mg117 2.030 . S
O119 C125 1.248 . S
O120 Mg117 1.990 . S
O120 C126 1.253 . S
O121 Mg117 2.117 . S
O121 C127 1.250 . S
C122 O128 1.248 1_545 S
C122 O129 1.264 . S
C123 O109 1.253 . S
C123 O111 1.260 . S
C124 O113 1.279 . S
C124 O114 1.250 . S
C125 O115 1.264 . S
C125 O119 1.248 . S
C126 O116 1.260 . S
C126 O120 1.253 . S
C127 O118 1.279 . S
C127 O121 1.250 . S
O128 Mg110 2.030 . S
O128 C122 1.248 1_565 S
O129 Mg112 2.079 . S
O129 C122 1.264 . S
O130 Mg131 1.990 . S
O130 C144 1.253 . S
Mg131 O130 1.990 . S
Mg131 O134 2.180 . S
Mg131 O135 2.117 . S
Mg131 O149 2.030 . S
O132 Mg133 2.072 . S
O132 C144 1.260 . S
Mg133 O132 2.072 . S
Mg133 O134 2.099 . S
Mg133 O136 2.079 . S
Mg133 O137 2.072 . S
Mg133 O139 2.099 . S
Mg133 O150 2.079 . S
O134 Mg131 2.180 . S
O134 Mg133 2.099 . S
O134 C145 1.279 . S
O135 Mg131 2.117 . S
O135 C145 1.250 . S
O136 Mg133 2.079 . S
O136 C146 1.264 . S
O137 Mg133 2.072 . S
O137 C147 1.260 . S
Mg138 O139 2.180 . S
Mg138 O140 2.030 . S
Mg138 O141 1.990 . S
Mg138 O142 2.117 . S
O139 Mg133 2.099 . S
O139 Mg138 2.180 . S
O139 C148 1.279 . S
O140 Mg138 2.030 . S
O140 C146 1.248 . S
O141 Mg138 1.990 . S
O141 C147 1.253 . S
O142 Mg138 2.117 . S
O142 C148 1.250 . S
C143 O149 1.248 . S
C143 O150 1.264 . S
C144 O130 1.253 . S
C144 O132 1.260 . S
C145 O134 1.279 . S
C145 O135 1.250 . S
C146 O136 1.264 . S
C146 O140 1.248 . S
C147 O137 1.260 . S
C147 O141 1.253 . S
C148 O139 1.279 . S
C148 O142 1.250 . S
O149 Mg131 2.030 . S
O149 C143 1.248 . S
O150 Mg133 2.079 . S
O150 C143 1.264 . S
O151 Mg152 1.990 . S
O151 C165 1.253 . S
Mg152 O151 1.990 . S
Mg152 O155 2.180 1_655 S
Mg152 O156 2.117 . S
Mg152 O170 2.030 . S
O153 Mg154 2.072 1_655 S
O153 C165 1.260 . S
Mg154 O153 2.072 1_455 S
Mg154 O155 2.099 . S
Mg154 O157 2.079 . S
Mg154 O158 2.072 . S
Mg154 O160 2.099 . S
Mg154 O171 2.079 1_455 S
O155 Mg152 2.180 1_455 S
O155 Mg154 2.099 . S
O155 C166 1.279 . S
O156 Mg152 2.117 . S
O156 C166 1.250 1_655 S
O157 Mg154 2.079 . S
O157 C167 1.264 . S
O158 Mg154 2.072 . S
O158 C168 1.260 . S
Mg159 O160 2.180 . S
Mg159 O161 2.030 . S
Mg159 O162 1.990 . S
Mg159 O163 2.117 . S
O160 Mg154 2.099 . S
O160 Mg159 2.180 . S
O160 C169 1.279 . S
O161 Mg159 2.030 . S
O161 C167 1.248 . S
O162 Mg159 1.990 . S
O162 C168 1.253 . S
O163 Mg159 2.117 . S
O163 C169 1.250 . S
C164 O170 1.248 . S
C164 O171 1.264 . S
C165 O151 1.253 . S
C165 O153 1.260 . S
C166 O155 1.279 . S
C166 O156 1.250 1_455 S
C167 O157 1.264 . S
C167 O161 1.248 . S
C168 O158 1.260 . S
C168 O162 1.253 . S
C169 O160 1.279 . S
C169 O163 1.250 . S
O170 Mg152 2.030 . S
O170 C164 1.248 . S
O171 Mg154 2.079 1_655 S
O171 C164 1.264 . S
H172 C190 0.951 . S
H173 C192 0.951 . S
H174 C194 0.950 . S
H175 C195 0.950 . S
H176 C197 0.950 . S
H177 C200 0.950 . S
H178 C201 0.950 . S
H179 C203 0.950 1_565 S
H180 C204 0.950 1_565 S
H181 C205 0.951 . S
H182 C207 0.951 . S
H183 C209 0.950 1_565 S
H184 C210 0.950 1_565 S
H185 C212 0.950 . S
H186 C215 0.950 . S
H187 C216 0.950 . S
H188 C218 0.950 . S
H189 C219 0.950 . S
C190 H172 0.951 . S
C190 C191 1.366 . S
C190 C192 1.388 . S
C191 C190 1.366 . S
C191 C195 1.385 . S
C192 H173 0.951 . S
C192 C190 1.388 . S
C192 C193 1.366 . S
C193 C192 1.366 . S
C193 C194 1.414 . S
C193 C196 1.499 . S
C194 H174 0.950 . S
C194 C193 1.414 . S
C194 C195 1.374 . S
C195 H175 0.950 . S
C195 C191 1.385 . S
C195 C194 1.374 . S
C196 C193 1.499 . S
C196 C197 1.373 . S
C196 C198 1.389 . S
C197 H176 0.950 . S
C197 C196 1.373 . S
C197 C213 1.377 . S
C198 C196 1.389 . S
C198 C199 1.524 . S
C198 C212 1.377 . S
C199 C198 1.524 . S
C199 C200 1.397 . S
C199 C204 1.363 . S
C200 H177 0.950 . S
C200 C199 1.397 . S
C200 C201 1.334 . S
C201 H178 0.950 . S
C201 C200 1.334 . S
C201 C202 1.287 . S
C202 C201 1.287 . S
C202 C203 1.524 . S
C202 H221 0.913 . S
C203 H179 0.950 1_545 S
C203 C202 1.524 . S
C203 C204 1.415 . S
C204 H180 0.950 1_545 S
C204 C199 1.363 . S
C204 C203 1.415 . S
C205 H181 0.951 . S
C205 C206 1.366 . S
C205 C207 1.388 . S
C206 C205 1.366 . S
C206 C210 1.385 . S
C207 H182 0.951 . S
C207 C205 1.388 . S
C207 C208 1.366 . S
C208 C207 1.366 . S
C208 C209 1.414 . S
C208 C211 1.499 . S
C209 H183 0.950 1_545 S
C209 C208 1.414 . S
C209 C210 1.374 . S
C210 H184 0.950 1_545 S
C210 C206 1.385 . S
C210 C209 1.374 . S
C211 C208 1.499 . S
C211 C212 1.373 . S
C211 C213 1.389 . S
C212 H185 0.950 . S
C212 C198 1.377 . S
C212 C211 1.373 . S
C213 C197 1.377 . S
C213 C211 1.389 . S
C213 C214 1.524 . S
C214 C213 1.524 . S
C214 C215 1.397 . S
C214 C219 1.363 . S
C215 H186 0.950 . S
C215 C214 1.397 . S
C215 C216 1.334 . S
C216 H187 0.950 . S
C216 C215 1.334 . S
C216 C217 1.287 . S
C217 C216 1.287 . S
C217 C218 1.524 . S
C217 H220 0.999 . S
C218 H188 0.950 . S
C218 C217 1.524 . S
C218 C219 1.415 . S
C219 H189 0.950 . S
C219 C214 1.363 . S
C219 C218 1.415 . S
H220 C217 0.999 . S
H221 C202 0.913 . S
H222 C240 0.951 . S
H223 C242 0.951 . S
H224 C244 0.950 . S
H225 C245 0.950 . S
H226 C247 0.950 . S
H227 C250 0.950 . S
H228 C251 0.950 . S
H229 C253 0.950 . S
H230 C254 0.950 . S
H231 C255 0.951 . S
H232 C257 0.951 . S
H233 C259 0.950 . S
H234 C260 0.950 . S
H235 C262 0.950 . S
H236 C265 0.950 . S
H237 C266 0.950 . S
H238 C268 0.950 . S
H239 C269 0.950 . S
C240 H222 0.951 . S
C240 C241 1.366 . S
C240 C242 1.388 . S
C241 C240 1.366 . S
C241 C245 1.385 . S
C242 H223 0.951 . S
C242 C240 1.388 . S
C242 C243 1.366 . S
C243 C242 1.366 . S
C243 C244 1.414 . S
C243 C246 1.499 . S
C244 H224 0.950 . S
C244 C243 1.414 . S
C244 C245 1.374 . S
C245 H225 0.950 . S
C245 C241 1.385 . S
C245 C244 1.374 . S
C246 C243 1.499 . S
C246 C247 1.373 . S
C246 C248 1.389 . S
C247 H226 0.950 . S
C247 C246 1.373 . S
C247 C263 1.377 . S
C248 C246 1.389 . S
C248 C249 1.524 . S
C248 C262 1.377 . S
C249 C248 1.524 . S
C249 C250 1.397 . S
C249 C254 1.363 . S
C250 H227 0.950 . S
C250 C249 1.397 . S
C250 C251 1.334 . S
C251 H228 0.950 . S
C251 C250 1.334 . S
C251 C252 1.287 . S
C252 C251 1.287 . S
C252 C253 1.524 . S
C252 H271 0.913 . S
C253 H229 0.950 . S
C253 C252 1.524 . S
C253 C254 1.415 . S
C254 H230 0.950 . S
C254 C249 1.363 . S
C254 C253 1.415 . S
C255 H231 0.951 . S
C255 C256 1.366 . S
C255 C257 1.388 . S
C256 C255 1.366 . S
C256 C260 1.385 . S
C257 H232 0.951 . S
C257 C255 1.388 . S
C257 C258 1.366 . S
C258 C257 1.366 . S
C258 C259 1.414 . S
C258 C261 1.499 . S
C259 H233 0.950 . S
C259 C258 1.414 . S
C259 C260 1.374 . S
C260 H234 0.950 . S
C260 C256 1.385 . S
C260 C259 1.374 . S
C261 C258 1.499 . S
C261 C262 1.373 . S
C261 C263 1.389 . S
C262 H235 0.950 . S
C262 C248 1.377 . S
C262 C261 1.373 . S
C263 C247 1.377 . S
C263 C261 1.389 . S
C263 C264 1.524 . S
C264 C263 1.524 . S
C264 C265 1.397 . S
C264 C269 1.363 . S
C265 H236 0.950 . S
C265 C264 1.397 . S
C265 C266 1.334 . S
C266 H237 0.950 . S
C266 C265 1.334 . S
C266 C267 1.287 . S
C267 C266 1.287 . S
C267 C268 1.524 . S
C267 H270 0.999 . S
C268 H238 0.950 . S
C268 C267 1.524 . S
C268 C269 1.415 . S
C269 H239 0.950 . S
C269 C264 1.363 . S
C269 C268 1.415 . S
H270 C267 0.999 . S
H271 C252 0.913 . S
H272 C290 0.951 . S
H273 C292 0.951 . S
H274 C294 0.950 . S
H275 C295 0.950 . S
H276 C297 0.950 . S
H277 C300 0.950 . S
H278 C301 0.950 . S
H279 C303 0.950 . S
H280 C304 0.950 . S
H281 C305 0.951 . S
H282 C307 0.951 . S
H283 C309 0.950 . S
H284 C310 0.950 . S
H285 C312 0.950 . S
H286 C315 0.950 . S
H287 C316 0.950 . S
H288 C318 0.950 . S
H289 C319 0.950 . S
C290 H272 0.951 . S
C290 C291 1.366 . S
C290 C292 1.388 . S
C291 C290 1.366 . S
C291 C295 1.385 . S
C292 H273 0.951 . S
C292 C290 1.388 . S
C292 C293 1.366 . S
C293 C292 1.366 . S
C293 C294 1.414 . S
C293 C296 1.499 . S
C294 H274 0.950 . S
C294 C293 1.414 . S
C294 C295 1.374 . S
C295 H275 0.950 . S
C295 C291 1.385 . S
C295 C294 1.374 . S
C296 C293 1.499 . S
C296 C297 1.373 . S
C296 C298 1.389 . S
C297 H276 0.950 . S
C297 C296 1.373 . S
C297 C313 1.377 . S
C298 C296 1.389 . S
C298 C299 1.524 . S
C298 C312 1.377 . S
C299 C298 1.524 . S
C299 C300 1.397 . S
C299 C304 1.363 . S
C300 H277 0.950 . S
C300 C299 1.397 . S
C300 C301 1.334 . S
C301 H278 0.950 . S
C301 C300 1.334 . S
C301 C302 1.287 . S
C302 C301 1.287 . S
C302 C303 1.524 . S
C302 H321 0.913 . S
C303 H279 0.950 . S
C303 C302 1.524 . S
C303 C304 1.415 . S
C304 H280 0.950 . S
C304 C299 1.363 . S
C304 C303 1.415 . S
C305 H281 0.951 . S
C305 C306 1.366 . S
C305 C307 1.388 . S
C306 C305 1.366 . S
C306 C310 1.385 . S
C307 H282 0.951 . S
C307 C305 1.388 . S
C307 C308 1.366 . S
C308 C307 1.366 . S
C308 C309 1.414 . S
C308 C311 1.499 . S
C309 H283 0.950 . S
C309 C308 1.414 . S
C309 C310 1.374 . S
C310 H284 0.950 . S
C310 C306 1.385 . S
C310 C309 1.374 . S
C311 C308 1.499 . S
C311 C312 1.373 . S
C311 C313 1.389 . S
C312 H285 0.950 . S
C312 C298 1.377 . S
C312 C311 1.373 . S
C313 C297 1.377 . S
C313 C311 1.389 . S
C313 C314 1.524 . S
C314 C313 1.524 . S
C314 C315 1.397 . S
C314 C319 1.363 . S
C315 H286 0.950 . S
C315 C314 1.397 . S
C315 C316 1.334 . S
C316 H287 0.950 . S
C316 C315 1.334 . S
C316 C317 1.287 . S
C317 C316 1.287 . S
C317 C318 1.524 . S
C317 H320 0.999 . S
C318 H288 0.950 . S
C318 C317 1.524 . S
C318 C319 1.415 . S
C319 H289 0.950 . S
C319 C314 1.363 . S
C319 C318 1.415 . S
H320 C317 0.999 . S
H321 C302 0.913 . S
H322 C340 0.951 . S
H323 C342 0.951 . S
H324 C344 0.950 . S
H325 C345 0.950 . S
H326 C347 0.950 . S
H327 C350 0.950 . S
H328 C351 0.950 . S
H329 C353 0.950 . S
H330 C354 0.950 . S
H331 C355 0.951 . S
H332 C357 0.951 . S
H333 C359 0.950 . S
H334 C360 0.950 . S
H335 C362 0.950 . S
H336 C365 0.950 . S
H337 C366 0.950 . S
H338 C368 0.950 . S
H339 C369 0.950 . S
C340 H322 0.951 . S
C340 C341 1.366 . S
C340 C342 1.388 . S
C341 C340 1.366 . S
C341 C345 1.385 . S
C342 H323 0.951 . S
C342 C340 1.388 . S
C342 C343 1.366 . S
C343 C342 1.366 . S
C343 C344 1.414 . S
C343 C346 1.499 . S
C344 H324 0.950 . S
C344 C343 1.414 . S
C344 C345 1.374 . S
C345 H325 0.950 . S
C345 C341 1.385 . S
C345 C344 1.374 . S
C346 C343 1.499 . S
C346 C347 1.373 . S
C346 C348 1.389 . S
C347 H326 0.950 . S
C347 C346 1.373 . S
C347 C363 1.377 . S
C348 C346 1.389 . S
C348 C349 1.524 . S
C348 C362 1.377 . S
C349 C348 1.524 . S
C349 C350 1.397 . S
C349 C354 1.363 . S
C350 H327 0.950 . S
C350 C349 1.397 . S
C350 C351 1.334 . S
C351 H328 0.950 . S
C351 C350 1.334 . S
C351 C352 1.287 . S
C352 C351 1.287 . S
C352 C353 1.524 . S
C352 H371 0.913 . S
C353 H329 0.950 . S
C353 C352 1.524 . S
C353 C354 1.415 . S
C354 H330 0.950 . S
C354 C349 1.363 . S
C354 C353 1.415 . S
C355 H331 0.951 . S
C355 C356 1.366 . S
C355 C357 1.388 . S
C356 C355 1.366 . S
C356 C360 1.385 . S
C357 H332 0.951 . S
C357 C355 1.388 . S
C357 C358 1.366 . S
C358 C357 1.366 . S
C358 C359 1.414 . S
C358 C361 1.499 . S
C359 H333 0.950 . S
C359 C358 1.414 . S
C359 C360 1.374 . S
C360 H334 0.950 . S
C360 C356 1.385 . S
C360 C359 1.374 . S
C361 C358 1.499 . S
C361 C362 1.373 . S
C361 C363 1.389 . S
C362 H335 0.950 . S
C362 C348 1.377 . S
C362 C361 1.373 . S
C363 C347 1.377 . S
C363 C361 1.389 . S
C363 C364 1.524 1_455 S
C364 C363 1.524 1_655 S
C364 C365 1.397 . S
C364 C369 1.363 . S
C365 H336 0.950 . S
C365 C364 1.397 . S
C365 C366 1.334 . S
C366 H337 0.950 . S
C366 C365 1.334 . S
C366 C367 1.287 . S
C367 C366 1.287 . S
C367 C368 1.524 . S
C367 H370 0.999 . S
C368 H338 0.950 . S
C368 C367 1.524 . S
C368 C369 1.415 . S
C369 H339 0.950 . S
C369 C364 1.363 . S
C369 C368 1.415 . S
H370 C367 0.999 . S
H371 C352 0.913 . S
H372 C390 0.951 . S
H373 C392 0.951 . S
H374 C394 0.950 1_545 S
H375 C395 0.950 . S
H376 C397 0.950 . S
H377 C400 0.950 . S
H378 C401 0.950 . S
H379 C403 0.950 . S
H380 C404 0.950 . S
H381 C405 0.951 . S
H382 C407 0.951 . S
H383 C409 0.950 . S
H384 C410 0.950 . S
H385 C412 0.950 . S
H386 C415 0.950 . S
H387 C416 0.950 . S
H388 C418 0.950 . S
H389 C419 0.950 . S
C390 H372 0.951 . S
C390 C391 1.366 1_556 S
C390 C392 1.388 . S
C391 C390 1.366 1_554 S
C391 C395 1.385 . S
C392 H373 0.951 . S
C392 C390 1.388 . S
C392 C393 1.366 . S
C393 C392 1.366 . S
C393 C394 1.414 1_556 S
C393 C396 1.499 . S
C394 H374 0.950 1_565 S
C394 C393 1.414 1_554 S
C394 C395 1.374 . S
C395 H375 0.950 . S
C395 C391 1.385 . S
C395 C394 1.374 . S
C396 C393 1.499 . S
C396 C397 1.373 1_565 S
C396 C398 1.389 . S
C397 H376 0.950 . S
C397 C396 1.373 1_545 S
C397 C413 1.377 . S
C398 C396 1.389 . S
C398 C399 1.524 . S
C398 C412 1.377 . S
C399 C398 1.524 . S
C399 C400 1.397 1_556 S
C399 C404 1.363 . S
C400 H377 0.950 . S
C400 C399 1.397 1_554 S
C400 C401 1.334 . S
C401 H378 0.950 . S
C401 C400 1.334 . S
C401 C402 1.287 1_554 S
C402 C401 1.287 1_556 S
C402 C403 1.524 . S
C402 H421 0.913 1_556 S
C403 H379 0.950 . S
C403 C402 1.524 . S
C403 C404 1.415 . S
C404 H380 0.950 . S
C404 C399 1.363 . S
C404 C403 1.415 . S
C405 H381 0.951 . S
C405 C406 1.366 . S
C405 C407 1.388 . S
C406 C405 1.366 . S
C406 C410 1.385 1_545 S
C407 H382 0.951 . S
C407 C405 1.388 . S
C407 C408 1.366 1_545 S
C408 C407 1.366 1_565 S
C408 C409 1.414 . S
C408 C411 1.499 . S
C409 H383 0.950 . S
C409 C408 1.414 . S
C409 C410 1.374 . S
C410 H384 0.950 . S
C410 C406 1.385 1_565 S
C410 C409 1.374 . S
C411 C408 1.499 . S
C411 C412 1.373 . S
C411 C413 1.389 1_565 S
C412 H385 0.950 . S
C412 C398 1.377 . S
C412 C411 1.373 . S
C413 C397 1.377 . S
C413 C411 1.389 1_545 S
C413 C414 1.524 . S
C414 C413 1.524 . S
C414 C415 1.397 . S
C414 C419 1.363 . S
C415 H386 0.950 . S
C415 C414 1.397 . S
C415 C416 1.334 . S
C416 H387 0.950 . S
C416 C415 1.334 . S
C416 C417 1.287 . S
C417 C416 1.287 . S
C417 C418 1.524 . S
C417 H420 0.999 . S
C418 H388 0.950 . S
C418 C417 1.524 . S
C418 C419 1.415 . S
C419 H389 0.950 . S
C419 C414 1.363 . S
C419 C418 1.415 . S
H420 C417 0.999 . S
H421 C402 0.913 1_554 S
H422 C440 0.951 . S
H423 C442 0.951 . S
H424 C444 0.950 . S
H425 C445 0.950 . S
H426 C447 0.950 . S
H427 C450 0.950 . S
H428 C451 0.952 . S
H429 C453 0.950 . S
H430 C454 0.950 . S
H431 C455 0.951 . S
H432 C457 0.951 . S
H433 C459 0.950 . S
H434 C460 0.950 . S
H435 C462 0.950 . S
H436 C465 0.950 . S
H437 C466 0.950 . S
H438 C468 0.950 . S
H439 C469 0.950 . S
C440 H422 0.951 . S
C440 C441 1.366 . S
C440 C442 1.388 . S
C441 C440 1.366 . S
C441 C445 1.385 1_554 S
C442 H423 0.951 . S
C442 C440 1.388 . S
C442 C443 1.366 1_554 S
C443 C442 1.366 1_556 S
C443 C444 1.414 . S
C443 C446 1.499 . S
C444 H424 0.950 . S
C444 C443 1.414 . S
C444 C445 1.374 . S
C445 H425 0.950 . S
C445 C441 1.385 1_556 S
C445 C444 1.374 . S
C446 C443 1.499 . S
C446 C447 1.373 . S
C446 C448 1.389 . S
C447 H426 0.950 . S
C447 C446 1.373 . S
C447 C463 1.377 . S
C448 C446 1.389 . S
C448 C449 1.524 . S
C448 C462 1.377 . S
C449 C448 1.524 . S
C449 C450 1.397 . S
C449 C454 1.363 1_556 S
C450 H427 0.950 . S
C450 C449 1.397 . S
C450 C451 1.334 1_556 S
C451 H428 0.952 . S
C451 C450 1.334 1_554 S
C451 C452 1.287 . S
C452 C451 1.287 . S
C452 C453 1.524 . S
C452 H471 0.913 . S
C453 H429 0.950 . S
C453 C452 1.524 . S
C453 C454 1.415 . S
C454 H430 0.950 . S
C454 C449 1.363 1_554 S
C454 C453 1.415 . S
C455 H431 0.951 . S
C455 C456 1.366 . S
C455 C457 1.388 . S
C456 C455 1.366 . S
C456 C460 1.385 . S
C457 H432 0.951 . S
C457 C455 1.388 . S
C457 C458 1.366 . S
C458 C457 1.366 . S
C458 C459 1.414 . S
C458 C461 1.499 . S
C459 H433 0.950 . S
C459 C458 1.414 . S
C459 C460 1.374 . S
C460 H434 0.950 . S
C460 C456 1.385 . S
C460 C459 1.374 . S
C461 C458 1.499 . S
C461 C462 1.373 . S
C461 C463 1.389 . S
C462 H435 0.950 . S
C462 C448 1.377 . S
C462 C461 1.373 . S
C463 C447 1.377 . S
C463 C461 1.389 . S
C463 C464 1.524 . S
C464 C463 1.524 . S
C464 C465 1.397 . S
C464 C469 1.363 . S
C465 H436 0.950 . S
C465 C464 1.397 . S
C465 C466 1.334 . S
C466 H437 0.950 . S
C466 C465 1.334 . S
C466 C467 1.287 . S
C467 C466 1.287 . S
C467 C468 1.524 . S
C467 H470 0.999 . S
C468 H438 0.950 . S
C468 C467 1.524 . S
C468 C469 1.415 . S
C469 H439 0.950 . S
C469 C464 1.363 . S
C469 C468 1.415 . S
H470 C467 0.999 . S
H471 C452 0.913 . S
H472 C490 0.951 . S
H473 C492 0.951 . S
H474 C494 0.950 . S
H475 C495 0.950 . S
H476 C497 0.950 . S
H477 C500 0.950 1_556 S
H478 C501 0.950 . S
H479 C503 0.950 . S
H480 C504 0.950 . S
H481 C505 0.951 . S
H482 C507 0.951 . S
H483 C509 0.950 . S
H484 C510 0.950 . S
H485 C512 0.950 . S
H486 C515 0.950 . S
H487 C516 0.950 . S
H488 C518 0.950 . S
H489 C519 0.950 . S
C490 H472 0.951 . S
C490 C491 1.366 . S
C490 C492 1.388 . S
C491 C490 1.366 . S
C491 C495 1.385 1_554 S
C492 H473 0.951 . S
C492 C490 1.388 . S
C492 C493 1.366 1_554 S
C493 C492 1.366 1_556 S
C493 C494 1.414 . S
C493 C496 1.499 . S
C494 H474 0.950 . S
C494 C493 1.414 . S
C494 C495 1.374 . S
C495 H475 0.950 . S
C495 C491 1.385 1_556 S
C495 C494 1.374 . S
C496 C493 1.499 . S
C496 C497 1.373 . S
C496 C498 1.389 . S
C497 H476 0.950 . S
C497 C496 1.373 . S
C497 C513 1.377 . S
C498 C496 1.389 . S
C498 C499 1.524 1_556 S
C498 C512 1.377 . S
C499 C498 1.524 1_554 S
C499 C500 1.397 . S
C499 C504 1.363 . S
C500 H477 0.950 1_554 S
C500 C499 1.397 . S
C500 C501 1.334 . S
C501 H478 0.950 . S
C501 C500 1.334 . S
C501 C502 1.287 . S
C502 C501 1.287 . S
C502 C503 1.524 . S
C502 H521 0.913 . S
C503 H479 0.950 . S
C503 C502 1.524 . S
C503 C504 1.415 . S
C504 H480 0.950 . S
C504 C499 1.363 . S
C504 C503 1.415 . S
C505 H481 0.951 . S
C505 C506 1.366 . S
C505 C507 1.388 . S
C506 C505 1.366 . S
C506 C510 1.385 . S
C507 H482 0.951 . S
C507 C505 1.388 . S
C507 C508 1.366 . S
C508 C507 1.366 . S
C508 C509 1.414 . S
C508 C511 1.499 . S
C509 H483 0.950 . S
C509 C508 1.414 . S
C509 C510 1.374 . S
C510 H484 0.950 . S
C510 C506 1.385 . S
C510 C509 1.374 . S
C511 C508 1.499 . S
C511 C512 1.373 . S
C511 C513 1.389 . S
C512 H485 0.950 . S
C512 C498 1.377 . S
C512 C511 1.373 . S
C513 C497 1.377 . S
C513 C511 1.389 . S
C513 C514 1.524 . S
C514 C513 1.524 . S
C514 C515 1.397 . S
C514 C519 1.363 . S
C515 H486 0.950 . S
C515 C514 1.397 . S
C515 C516 1.334 . S
C516 H487 0.950 . S
C516 C515 1.334 . S
C516 C517 1.287 . S
C517 C516 1.287 . S
C517 C518 1.524 . S
C517 H520 0.999 . S
C518 H488 0.950 . S
C518 C517 1.524 . S
C518 C519 1.415 . S
C519 H489 0.950 . S
C519 C514 1.363 . S
C519 C518 1.415 . S
H520 C517 0.999 . S
H521 C502 0.913 . S
H522 C540 0.951 . S
H523 C542 0.951 . S
H524 C544 0.950 1_454 S
H525 C545 0.950 1_455 S
H526 C547 0.950 . S
H527 C550 0.950 . S
H528 C551 0.950 . S
H529 C553 0.950 . S
H530 C554 0.950 . S
H531 C555 0.951 . S
H532 C557 0.951 . S
H533 C559 0.950 . S
H534 C560 0.950 . S
H535 C562 0.950 . S
H536 C565 0.950 . S
H537 C566 0.950 . S
H538 C568 0.950 . S
H539 C569 0.950 . S
C540 H522 0.951 . S
C540 C541 1.366 1_556 S
C540 C542 1.388 . S
C541 C540 1.366 1_554 S
C541 C545 1.385 . S
C542 H523 0.951 . S
C542 C540 1.388 . S
C542 C543 1.366 . S
C543 C542 1.366 . S
C543 C544 1.414 . S
C543 C546 1.499 . S
C544 H524 0.950 1_656 S
C544 C543 1.414 . S
C544 C545 1.374 1_556 S
C545 H525 0.950 1_655 S
C545 C541 1.385 . S
C545 C544 1.374 1_554 S
C546 C543 1.499 . S
C546 C547 1.373 1_655 S
C546 C548 1.389 . S
C547 H526 0.950 . S
C547 C546 1.373 1_455 S
C547 C563 1.377 . S
C548 C546 1.389 . S
C548 C549 1.524 . S
C548 C562 1.377 . S
C549 C548 1.524 . S
C549 C550 1.397 1_556 S
C549 C554 1.363 . S
C550 H527 0.950 . S
C550 C549 1.397 1_554 S
C550 C551 1.334 . S
C551 H528 0.950 . S
C551 C550 1.334 . S
C551 C552 1.287 . S
C552 C551 1.287 . S
C552 C553 1.524 1_554 S
C552 H571 0.913 . S
C553 H529 0.950 . S
C553 C552 1.524 1_556 S
C553 C554 1.415 . S
C554 H530 0.950 . S
C554 C549 1.363 . S
C554 C553 1.415 . S
C555 H531 0.951 . S
C555 C556 1.366 . S
C555 C557 1.388 . S
C556 C555 1.366 . S
C556 C560 1.385 1_455 S
C557 H532 0.951 . S
C557 C555 1.388 . S
C557 C558 1.366 1_455 S
C558 C557 1.366 1_655 S
C558 C559 1.414 . S
C558 C561 1.499 . S
C559 H533 0.950 . S
C559 C558 1.414 . S
C559 C560 1.374 . S
C560 H534 0.950 . S
C560 C556 1.385 1_655 S
C560 C559 1.374 . S
C561 C558 1.499 . S
C561 C562 1.373 . S
C561 C563 1.389 1_655 S
C562 H535 0.950 . S
C562 C548 1.377 . S
C562 C561 1.373 . S
C563 C547 1.377 . S
C563 C561 1.389 1_455 S
C563 C564 1.524 . S
C564 C563 1.524 . S
C564 C565 1.397 . S
C564 C569 1.363 . S
C565 H536 0.950 . S
C565 C564 1.397 . S
C565 C566 1.334 . S
C566 H537 0.950 . S
C566 C565 1.334 . S
C566 C567 1.287 . S
C567 C566 1.287 . S
C567 C568 1.524 . S
C567 H570 0.999 . S
C568 H538 0.950 . S
C568 C567 1.524 . S
C568 C569 1.415 . S
C569 H539 0.950 . S
C569 C564 1.363 . S
C569 C568 1.415 . S
H570 C567 0.999 . S
H571 C552 0.913 . S
H572 C590 0.951 . S
H573 C592 0.951 . S
H574 C594 0.950 . S
H575 C595 0.950 . S
H576 C597 0.950 . S
H577 C600 0.950 . S
H578 C601 0.950 . S
H579 C603 0.950 . S
H580 C604 0.950 . S
H581 C605 0.951 . S
H582 C607 0.951 1_655 S
H583 C609 0.950 . S
H584 C610 0.950 . S
H585 C612 0.950 . S
H586 C615 0.950 1_455 S
H587 C616 0.950 . S
H588 C618 0.950 . S
H589 C619 0.950 . S
C590 H572 0.951 . S
C590 C591 1.366 . S
C590 C592 1.388 . S
C591 C590 1.366 . S
C591 C595 1.385 . S
C592 H573 0.951 . S
C592 C590 1.388 . S
C592 C593 1.366 . S
C593 C592 1.366 . S
C593 C594 1.414 . S
C593 C596 1.499 . S
C594 H574 0.950 . S
C594 C593 1.414 . S
C594 C595 1.374 . S
C595 H575 0.950 . S
C595 C591 1.385 . S
C595 C594 1.374 . S
C596 C593 1.499 . S
C596 C597 1.373 . S
C596 C598 1.389 . S
C597 H576 0.950 . S
C597 C596 1.373 . S
C597 C613 1.377 . S
C598 C596 1.389 . S
C598 C599 1.524 . S
C598 C612 1.377 . S
C599 C598 1.524 . S
C599 C600 1.397 . S
C599 C604 1.363 . S
C600 H577 0.950 . S
C600 C599 1.397 . S
C600 C601 1.334 . S
C601 H578 0.950 . S
C601 C600 1.334 . S
C601 C602 1.287 . S
C602 C601 1.287 . S
C602 C603 1.524 . S
C602 H621 0.913 . S
C603 H579 0.950 . S
C603 C602 1.524 . S
C603 C604 1.415 . S
C604 H580 0.950 . S
C604 C599 1.363 . S
C604 C603 1.415 . S
C605 H581 0.951 . S
C605 C606 1.366 1_655 S
C605 C607 1.388 1_655 S
C606 C605 1.366 1_455 S
C606 C610 1.385 . S
C607 H582 0.951 1_455 S
C607 C605 1.388 1_455 S
C607 C608 1.366 . S
C608 C607 1.366 . S
C608 C609 1.414 . S
C608 C611 1.499 . S
C609 H583 0.950 . S
C609 C608 1.414 . S
C609 C610 1.374 . S
C610 H584 0.950 . S
C610 C606 1.385 . S
C610 C609 1.374 . S
C611 C608 1.499 . S
C611 C612 1.373 . S
C611 C613 1.389 . S
C612 H585 0.950 . S
C612 C598 1.377 . S
C612 C611 1.373 . S
C613 C597 1.377 . S
C613 C611 1.389 . S
C613 C614 1.524 1_455 S
C614 C613 1.524 1_655 S
C614 C615 1.397 . S
C614 C619 1.363 . S
C615 H586 0.950 1_655 S
C615 C614 1.397 . S
C615 C616 1.334 . S
C616 H587 0.950 . S
C616 C615 1.334 . S
C616 C617 1.287 . S
C617 C616 1.287 . S
C617 C618 1.524 . S
C617 H620 0.999 . S
C618 H588 0.950 . S
C618 C617 1.524 . S
C618 C619 1.415 . S
C619 H589 0.950 . S
C619 C614 1.363 . S
C619 C618 1.415 . S
H620 C617 0.999 . S
H621 C602 0.913 . S
H622 C640 0.951 . S
H623 C642 0.951 . S
H624 C644 0.950 . S
H625 C645 0.950 . S
H626 C647 0.950 . S
H627 C650 0.950 . S
H628 C651 0.950 . S
H629 C653 0.950 . S
H630 C654 0.950 . S
H631 C655 0.951 . S
H632 C657 0.951 1_565 S
H633 C659 0.950 . S
H634 C660 0.950 . S
H635 C662 0.950 . S
H636 C665 0.950 1_545 S
H637 C666 0.950 . S
H638 C668 0.950 . S
H639 C669 0.950 . S
C640 H622 0.951 . S
C640 C641 1.366 . S
C640 C642 1.388 . S
C641 C640 1.366 . S
C641 C645 1.385 . S
C642 H623 0.951 . S
C642 C640 1.388 . S
C642 C643 1.366 . S
C643 C642 1.366 . S
C643 C644 1.414 . S
C643 C646 1.499 . S
C644 H624 0.950 . S
C644 C643 1.414 . S
C644 C645 1.374 . S
C645 H625 0.950 . S
C645 C641 1.385 . S
C645 C644 1.374 . S
C646 C643 1.499 . S
C646 C647 1.373 . S
C646 C648 1.389 . S
C647 H626 0.950 . S
C647 C646 1.373 . S
C647 C663 1.377 . S
C648 C646 1.389 . S
C648 C649 1.524 . S
C648 C662 1.377 . S
C649 C648 1.524 . S
C649 C650 1.397 . S
C649 C654 1.363 . S
C650 H627 0.950 . S
C650 C649 1.397 . S
C650 C651 1.334 . S
C651 H628 0.950 . S
C651 C650 1.334 . S
C651 C652 1.287 . S
C652 C651 1.287 . S
C652 C653 1.524 . S
C652 H671 0.913 . S
C653 H629 0.950 . S
C653 C652 1.524 . S
C653 C654 1.415 . S
C654 H630 0.950 . S
C654 C649 1.363 . S
C654 C653 1.415 . S
C655 H631 0.951 . S
C655 C656 1.366 1_565 S
C655 C657 1.388 1_565 S
C656 C655 1.366 1_545 S
C656 C660 1.385 . S
C657 H632 0.951 1_545 S
C657 C655 1.388 1_545 S
C657 C658 1.366 . S
C658 C657 1.366 . S
C658 C659 1.414 . S
C658 C661 1.499 . S
C659 H633 0.950 . S
C659 C658 1.414 . S
C659 C660 1.374 . S
C660 H634 0.950 . S
C660 C656 1.385 . S
C660 C659 1.374 . S
C661 C658 1.499 . S
C661 C662 1.373 . S
C661 C663 1.389 . S
C662 H635 0.950 . S
C662 C648 1.377 . S
C662 C661 1.373 . S
C663 C647 1.377 . S
C663 C661 1.389 . S
C663 C664 1.524 1_545 S
C664 C663 1.524 1_565 S
C664 C665 1.397 . S
C664 C669 1.363 . S
C665 H636 0.950 1_565 S
C665 C664 1.397 . S
C665 C666 1.334 . S
C666 H637 0.950 . S
C666 C665 1.334 . S
C666 C667 1.287 . S
C667 C666 1.287 . S
C667 C668 1.524 . S
C667 H670 0.999 . S
C668 H638 0.950 . S
C668 C667 1.524 . S
C668 C669 1.415 . S
C669 H639 0.950 . S
C669 C664 1.363 . S
C669 C668 1.415 . S
H670 C667 0.999 . S
H671 C652 0.913 . S
H672 C690 0.951 . S
H673 C692 0.951 . S
H674 C694 0.950 . S
H675 C695 0.950 . S
H676 C697 0.950 . S
H677 C700 0.950 . S
H678 C701 0.950 . S
H679 C703 0.950 . S
H680 C704 0.950 . S
H681 C705 0.951 . S
H682 C707 0.951 . S
H683 C709 0.950 . S
H684 C710 0.950 . S
H685 C712 0.950 . S
H686 C715 0.950 . S
H687 C716 0.950 . S
H688 C718 0.950 . S
H689 C719 0.950 . S
C690 H672 0.951 . S
C690 C691 1.366 . S
C690 C692 1.388 . S
C691 C690 1.366 . S
C691 C695 1.385 . S
C692 H673 0.951 . S
C692 C690 1.388 . S
C692 C693 1.366 . S
C693 C692 1.366 . S
C693 C694 1.414 . S
C693 C696 1.499 . S
C694 H674 0.950 . S
C694 C693 1.414 . S
C694 C695 1.374 . S
C695 H675 0.950 . S
C695 C691 1.385 . S
C695 C694 1.374 . S
C696 C693 1.499 . S
C696 C697 1.373 . S
C696 C698 1.389 . S
C697 H676 0.950 . S
C697 C696 1.373 . S
C697 C713 1.377 . S
C698 C696 1.389 . S
C698 C699 1.524 . S
C698 C712 1.377 . S
C699 C698 1.524 . S
C699 C700 1.397 . S
C699 C704 1.363 . S
C700 H677 0.950 . S
C700 C699 1.397 . S
C700 C701 1.334 . S
C701 H678 0.950 . S
C701 C700 1.334 . S
C701 C702 1.287 . S
C702 C701 1.287 . S
C702 C703 1.524 . S
C702 H721 0.913 . S
C703 H679 0.950 . S
C703 C702 1.524 . S
C703 C704 1.415 . S
C704 H680 0.950 . S
C704 C699 1.363 . S
C704 C703 1.415 . S
C705 H681 0.951 . S
C705 C706 1.366 . S
C705 C707 1.388 . S
C706 C705 1.366 . S
C706 C710 1.385 . S
C707 H682 0.951 . S
C707 C705 1.388 . S
C707 C708 1.366 . S
C708 C707 1.366 . S
C708 C709 1.414 . S
C708 C711 1.499 . S
C709 H683 0.950 . S
C709 C708 1.414 . S
C709 C710 1.374 . S
C710 H684 0.950 . S
C710 C706 1.385 . S
C710 C709 1.374 . S
C711 C708 1.499 . S
C711 C712 1.373 . S
C711 C713 1.389 . S
C712 H685 0.950 . S
C712 C698 1.377 . S
C712 C711 1.373 . S
C713 C697 1.377 . S
C713 C711 1.389 . S
C713 C714 1.524 . S
C714 C713 1.524 . S
C714 C715 1.397 . S
C714 C719 1.363 . S
C715 H686 0.950 . S
C715 C714 1.397 . S
C715 C716 1.334 . S
C716 H687 0.950 . S
C716 C715 1.334 . S
C716 C717 1.287 . S
C717 C716 1.287 . S
C717 C718 1.524 . S
C717 H720 0.999 . S
C718 H688 0.950 . S
C718 C717 1.524 . S
C718 C719 1.415 . S
C719 H689 0.950 . S
C719 C714 1.363 . S
C719 C718 1.415 . S
H720 C717 0.999 . S
H721 C702 0.913 . S
H722 C740 0.951 . S
H723 C742 0.951 . S
H724 C744 0.950 . S
H725 C745 0.950 . S
H726 C747 0.950 . S
H727 C750 0.950 . S
H728 C751 0.950 . S
H729 C753 0.950 . S
H730 C754 0.950 . S
H731 C755 0.951 . S
H732 C757 0.951 . S
H733 C759 0.950 . S
H734 C760 0.950 . S
H735 C762 0.950 . S
H736 C765 0.950 . S
H737 C766 0.950 . S
H738 C768 0.950 . S
H739 C769 0.950 . S
C740 H722 0.951 . S
C740 C741 1.366 . S
C740 C742 1.388 . S
C741 C740 1.366 . S
C741 C745 1.385 . S
C742 H723 0.951 . S
C742 C740 1.388 . S
C742 C743 1.366 . S
C743 C742 1.366 . S
C743 C744 1.414 . S
C743 C746 1.499 . S
C744 H724 0.950 . S
C744 C743 1.414 . S
C744 C745 1.374 . S
C745 H725 0.950 . S
C745 C741 1.385 . S
C745 C744 1.374 . S
C746 C743 1.499 . S
C746 C747 1.373 . S
C746 C748 1.389 . S
C747 H726 0.950 . S
C747 C746 1.373 . S
C747 C763 1.377 . S
C748 C746 1.389 . S
C748 C749 1.524 . S
C748 C762 1.377 . S
C749 C748 1.524 . S
C749 C750 1.397 . S
C749 C754 1.363 . S
C750 H727 0.950 . S
C750 C749 1.397 . S
C750 C751 1.334 . S
C751 H728 0.950 . S
C751 C750 1.334 . S
C751 C752 1.287 . S
C752 C751 1.287 . S
C752 C753 1.524 . S
C752 H771 0.913 . S
C753 H729 0.950 . S
C753 C752 1.524 . S
C753 C754 1.415 . S
C754 H730 0.950 . S
C754 C749 1.363 . S
C754 C753 1.415 . S
C755 H731 0.951 . S
C755 C756 1.366 . S
C755 C757 1.388 . S
C756 C755 1.366 . S
C756 C760 1.385 . S
C757 H732 0.951 . S
C757 C755 1.388 . S
C757 C758 1.366 . S
C758 C757 1.366 . S
C758 C759 1.414 . S
C758 C761 1.499 . S
C759 H733 0.950 . S
C759 C758 1.414 . S
C759 C760 1.374 . S
C760 H734 0.950 . S
C760 C756 1.385 . S
C760 C759 1.374 . S
C761 C758 1.499 . S
C761 C762 1.373 . S
C761 C763 1.389 . S
C762 H735 0.950 . S
C762 C748 1.377 . S
C762 C761 1.373 . S
C763 C747 1.377 . S
C763 C761 1.389 . S
C763 C764 1.524 . S
C764 C763 1.524 . S
C764 C765 1.397 . S
C764 C769 1.363 . S
C765 H736 0.950 . S
C765 C764 1.397 . S
C765 C766 1.334 . S
C766 H737 0.950 . S
C766 C765 1.334 . S
C766 C767 1.287 . S
C767 C766 1.287 . S
C767 C768 1.524 . S
C767 H770 0.999 . S
C768 H738 0.950 . S
C768 C767 1.524 . S
C768 C769 1.415 . S
C769 H739 0.950 . S
C769 C764 1.363 . S
C769 C768 1.415 . S
H770 C767 0.999 . S
H771 C752 0.913 . S
H772 C790 0.951 . S
H773 C792 0.951 . S
H774 C794 0.950 . S
H775 C795 0.950 . S
H776 C797 0.950 . S
H777 C800 0.950 . S
H778 C801 0.950 . S
H779 C803 0.950 . S
H780 C804 0.950 . S
H781 C805 0.951 . S
H782 C807 0.951 . S
H783 C809 0.950 . S
H784 C810 0.950 1_655 S
H785 C812 0.950 . S
H786 C815 0.950 . S
H787 C816 0.950 . S
H788 C818 0.950 . S
H789 C819 0.950 . S
C790 H772 0.951 . S
C790 C791 1.366 . S
C790 C792 1.388 . S
C791 C790 1.366 . S
C791 C795 1.385 1_554 S
C792 H773 0.951 . S
C792 C790 1.388 . S
C792 C793 1.366 1_554 S
C793 C792 1.366 1_556 S
C793 C794 1.414 . S
C793 C796 1.499 . S
C794 H774 0.950 . S
C794 C793 1.414 . S
C794 C795 1.374 . S
C795 H775 0.950 . S
C795 C791 1.385 1_556 S
C795 C794 1.374 . S
C796 C793 1.499 . S
C796 C797 1.373 1_655 S
C796 C798 1.389 . S
C797 H776 0.950 . S
C797 C796 1.373 1_455 S
C797 C813 1.377 . S
C798 C796 1.389 . S
C798 C799 1.524 . S
C798 C812 1.377 . S
C799 C798 1.524 . S
C799 C800 1.397 . S
C799 C804 1.363 . S
C800 H777 0.950 . S
C800 C799 1.397 . S
C800 C801 1.334 . S
C801 H778 0.950 . S
C801 C800 1.334 . S
C801 C802 1.287 . S
C802 C801 1.287 . S
C802 C803 1.524 . S
C802 H821 0.913 . S
C803 H779 0.950 . S
C803 C802 1.524 . S
C803 C804 1.415 . S
C804 H780 0.950 . S
C804 C799 1.363 . S
C804 C803 1.415 . S
C805 H781 0.951 . S
C805 C806 1.366 . S
C805 C807 1.388 . S
C806 C805 1.366 . S
C806 C810 1.385 . S
C807 H782 0.951 . S
C807 C805 1.388 . S
C807 C808 1.366 . S
C808 C807 1.366 . S
C808 C809 1.414 1_455 S
C808 C811 1.499 1_455 S
C809 H783 0.950 . S
C809 C808 1.414 1_655 S
C809 C810 1.374 1_655 S
C810 H784 0.950 1_455 S
C810 C806 1.385 . S
C810 C809 1.374 1_455 S
C811 C808 1.499 1_655 S
C811 C812 1.373 . S
C811 C813 1.389 1_655 S
C812 H785 0.950 . S
C812 C798 1.377 . S
C812 C811 1.373 . S
C813 C797 1.377 . S
C813 C811 1.389 1_455 S
C813 C814 1.524 . S
C814 C813 1.524 . S
C814 C815 1.397 . S
C814 C819 1.363 . S
C815 H786 0.950 . S
C815 C814 1.397 . S
C815 C816 1.334 . S
C816 H787 0.950 . S
C816 C815 1.334 . S
C816 C817 1.287 . S
C817 C816 1.287 . S
C817 C818 1.524 . S
C817 H820 0.999 . S
C818 H788 0.950 . S
C818 C817 1.524 . S
C818 C819 1.415 . S
C819 H789 0.950 . S
C819 C814 1.363 . S
C819 C818 1.415 . S
H820 C817 0.999 . S
H821 C802 0.913 . S
H822 C840 0.951 . S
H823 C842 0.951 . S
H824 C844 0.950 . S
H825 C845 0.950 . S
H826 C847 0.950 . S
H827 C850 0.950 . S
H828 C851 0.950 . S
H829 C853 0.950 . S
H830 C854 0.950 . S
H831 C855 0.951 . S
H832 C857 0.951 . S
H833 C859 0.950 . S
H834 C860 0.957 . S
H835 C862 0.950 . S
H836 C865 0.950 . S
H837 C866 0.950 . S
H838 C868 0.950 . S
H839 C869 0.950 . S
C840 H822 0.951 . S
C840 C841 1.366 . S
C840 C842 1.388 . S
C841 C840 1.366 . S
C841 C845 1.385 1_554 S
C842 H823 0.951 . S
C842 C840 1.388 . S
C842 C843 1.366 1_554 S
C843 C842 1.366 1_556 S
C843 C844 1.414 . S
C843 C846 1.499 . S
C844 H824 0.950 . S
C844 C843 1.414 . S
C844 C845 1.374 . S
C845 H825 0.950 . S
C845 C841 1.385 1_556 S
C845 C844 1.374 . S
C846 C843 1.499 . S
C846 C847 1.373 1_565 S
C846 C848 1.389 . S
C847 H826 0.950 . S
C847 C846 1.373 1_545 S
C847 C863 1.377 . S
C848 C846 1.389 . S
C848 C849 1.524 . S
C848 C862 1.377 . S
C849 C848 1.524 . S
C849 C850 1.397 . S
C849 C854 1.363 . S
C850 H827 0.950 . S
C850 C849 1.397 . S
C850 C851 1.334 . S
C851 H828 0.950 . S
C851 C850 1.334 . S
C851 C852 1.287 . S
C852 C851 1.287 . S
C852 C853 1.524 . S
C852 H871 0.913 . S
C853 H829 0.950 . S
C853 C852 1.524 . S
C853 C854 1.415 . S
C854 H830 0.950 . S
C854 C849 1.363 . S
C854 C853 1.415 . S
C855 H831 0.951 . S
C855 C856 1.366 . S
C855 C857 1.388 . S
C856 C855 1.366 . S
C856 C860 1.373 1_545 S
C857 H832 0.951 . S
C857 C855 1.388 . S
C857 C858 1.366 . S
C858 C857 1.366 . S
C858 C859 1.414 1_545 S
C858 C861 1.499 1_545 S
C859 H833 0.950 . S
C859 C858 1.414 1_565 S
C859 C860 1.378 . S
C860 H834 0.957 . S
C860 C856 1.373 1_565 S
C860 C859 1.378 . S
C861 C858 1.499 1_565 S
C861 C862 1.373 . S
C861 C863 1.389 1_565 S
C862 H835 0.950 . S
C862 C848 1.377 . S
C862 C861 1.373 . S
C863 C847 1.377 . S
C863 C861 1.389 1_545 S
C863 C864 1.524 . S
C864 C863 1.524 . S
C864 C865 1.397 . S
C864 C869 1.363 . S
C865 H836 0.950 . S
C865 C864 1.397 . S
C865 C866 1.334 . S
C866 H837 0.950 . S
C866 C865 1.334 . S
C866 C867 1.287 . S
C867 C866 1.287 . S
C867 C868 1.524 . S
C867 H870 0.999 . S
C868 H838 0.950 . S
C868 C867 1.524 . S
C868 C869 1.415 . S
C869 H839 0.950 . S
C869 C864 1.363 . S
C869 C868 1.415 . S
H870 C867 0.999 . S
H871 C852 0.913 . S
H872 C890 0.951 . S
H873 C892 0.951 . S
H874 C894 0.950 . S
H875 C895 0.950 . S
H876 C897 0.950 1_554 S
H877 C900 0.950 . S
H878 C901 0.950 . S
H879 C903 0.950 . S
H880 C904 0.950 . S
H881 C905 0.951 . S
H882 C907 0.951 . S
H883 C909 0.950 . S
H884 C910 0.950 . S
H885 C912 0.950 . S
H886 C915 0.950 . S
H887 C916 0.950 . S
H888 C918 0.950 . S
H889 C919 0.950 . S
C890 H872 0.951 . S
C890 C891 1.366 1_556 S
C890 C892 1.388 . S
C891 C890 1.366 1_554 S
C891 C895 1.385 . S
C892 H873 0.951 . S
C892 C890 1.388 . S
C892 C893 1.366 . S
C893 C892 1.366 . S
C893 C894 1.414 1_556 S
C893 C896 1.499 . S
C894 H874 0.950 . S
C894 C893 1.414 1_554 S
C894 C895 1.374 . S
C895 H875 0.950 . S
C895 C891 1.385 . S
C895 C894 1.374 . S
C896 C893 1.499 . S
C896 C897 1.373 . S
C896 C898 1.389 . S
C897 H876 0.950 1_556 S
C897 C896 1.373 . S
C897 C913 1.377 . S
C898 C896 1.389 . S
C898 C899 1.524 . S
C898 C912 1.377 . S
C899 C898 1.524 . S
C899 C900 1.397 . S
C899 C904 1.363 . S
C900 H877 0.950 . S
C900 C899 1.397 . S
C900 C901 1.334 . S
C901 H878 0.950 . S
C901 C900 1.334 . S
C901 C902 1.287 . S
C902 C901 1.287 . S
C902 C903 1.524 . S
C902 H921 0.913 . S
C903 H879 0.950 . S
C903 C902 1.524 . S
C903 C904 1.415 . S
C904 H880 0.950 . S
C904 C899 1.363 . S
C904 C903 1.415 . S
C905 H881 0.951 . S
C905 C906 1.366 . S
C905 C907 1.388 . S
C906 C905 1.366 . S
C906 C910 1.385 . S
C907 H882 0.951 . S
C907 C905 1.388 . S
C907 C908 1.366 . S
C908 C907 1.366 . S
C908 C909 1.414 . S
C908 C911 1.499 . S
C909 H883 0.950 . S
C909 C908 1.414 . S
C909 C910 1.374 . S
C910 H884 0.950 . S
C910 C906 1.385 . S
C910 C909 1.374 . S
C911 C908 1.499 . S
C911 C912 1.373 . S
C911 C913 1.389 . S
C912 H885 0.950 . S
C912 C898 1.377 . S
C912 C911 1.373 . S
C913 C897 1.377 . S
C913 C911 1.389 . S
C913 C914 1.524 . S
C914 C913 1.524 . S
C914 C915 1.397 . S
C914 C919 1.363 1_556 S
C915 H886 0.950 . S
C915 C914 1.397 . S
C915 C916 1.334 1_556 S
C916 H887 0.950 . S
C916 C915 1.334 1_554 S
C916 C917 1.287 . S
C917 C916 1.287 . S
C917 C918 1.524 . S
C917 H920 0.999 . S
C918 H888 0.950 . S
C918 C917 1.524 . S
C918 C919 1.415 . S
C919 H889 0.950 . S
C919 C914 1.363 1_554 S
C919 C918 1.415 . S
H920 C917 0.999 . S
H921 C902 0.913 . S
H922 C940 0.951 . S
H923 C942 0.951 . S
H924 C944 0.950 . S
H925 C945 0.950 . S
H926 C947 0.950 . S
H927 C950 0.950 . S
H928 C951 0.950 . S
H929 C953 0.950 . S
H930 C954 0.950 . S
H931 C955 0.951 . S
H932 C957 0.951 . S
H933 C959 0.950 . S
H934 C960 0.950 . S
H935 C962 0.950 . S
H936 C965 0.950 . S
H937 C966 0.950 . S
H938 C968 0.950 . S
H939 C969 0.950 . S
C940 H922 0.951 . S
C940 C941 1.366 1_556 S
C940 C942 1.388 . S
C941 C940 1.366 1_554 S
C941 C945 1.385 . S
C942 H923 0.951 . S
C942 C940 1.388 . S
C942 C943 1.366 . S
C943 C942 1.366 . S
C943 C944 1.414 1_556 S
C943 C946 1.499 . S
C944 H924 0.950 . S
C944 C943 1.414 1_554 S
C944 C945 1.374 . S
C945 H925 0.950 . S
C945 C941 1.385 . S
C945 C944 1.374 . S
C946 C943 1.499 . S
C946 C947 1.373 . S
C946 C948 1.389 . S
C947 H926 0.950 . S
C947 C946 1.373 . S
C947 C963 1.377 . S
C948 C946 1.389 . S
C948 C949 1.524 . S
C948 C962 1.377 . S
C949 C948 1.524 . S
C949 C950 1.397 1_556 S
C949 C954 1.363 . S
C950 H927 0.950 . S
C950 C949 1.397 1_554 S
C950 C951 1.334 . S
C951 H928 0.950 . S
C951 C950 1.334 . S
C951 C952 1.287 . S
C952 C951 1.287 . S
C952 C953 1.524 1_554 S
C952 H971 0.913 . S
C953 H929 0.950 . S
C953 C952 1.524 1_556 S
C953 C954 1.415 . S
C954 H930 0.950 . S
C954 C949 1.363 . S
C954 C953 1.415 . S
C955 H931 0.951 . S
C955 C956 1.366 . S
C955 C957 1.388 . S
C956 C955 1.366 . S
C956 C960 1.385 . S
C957 H932 0.951 . S
C957 C955 1.388 . S
C957 C958 1.366 . S
C958 C957 1.366 . S
C958 C959 1.414 . S
C958 C961 1.499 . S
C959 H933 0.950 . S
C959 C958 1.414 . S
C959 C960 1.374 . S
C960 H934 0.950 . S
C960 C956 1.385 . S
C960 C959 1.374 . S
C961 C958 1.499 . S
C961 C962 1.373 . S
C961 C963 1.389 . S
C962 H935 0.950 . S
C962 C948 1.377 . S
C962 C961 1.373 . S
C963 C947 1.377 . S
C963 C961 1.389 . S
C963 C964 1.524 . S
C964 C963 1.524 . S
C964 C965 1.397 . S
C964 C969 1.363 . S
C965 H936 0.950 . S
C965 C964 1.397 . S
C965 C966 1.334 . S
C966 H937 0.950 . S
C966 C965 1.334 . S
C966 C967 1.287 . S
C967 C966 1.287 . S
C967 C968 1.524 . S
C967 H970 0.999 . S
C968 H938 0.950 . S
C968 C967 1.524 . S
C968 C969 1.415 . S
C969 H939 0.950 . S
C969 C964 1.363 . S
C969 C968 1.415 . S
H970 C967 0.999 . S
H971 C952 0.913 . S
H972 C990 0.951 . S
H973 C992 0.951 . S
H974 C994 0.950 . S
H975 C995 0.950 . S
H976 C997 0.950 . S
H977 C1000 0.950 . S
H978 C1001 0.950 . S
H979 C1003 0.950 . S
H980 C1004 0.950 . S
H981 C1005 0.951 . S
H982 C1007 0.951 . S
H983 C1009 0.950 . S
H984 C1010 0.950 . S
H985 C1012 0.950 . S
H986 C1015 0.973 . S
H987 C1016 0.950 . S
H988 C1018 0.950 . S
H989 C1019 0.950 1_556 S
C990 H972 0.951 . S
C990 C991 1.366 . S
C990 C992 1.388 . S
C991 C990 1.366 . S
C991 C995 1.385 . S
C992 H973 0.951 . S
C992 C990 1.388 . S
C992 C993 1.366 . S
C993 C992 1.366 . S
C993 C994 1.414 . S
C993 C996 1.499 . S
C994 H974 0.950 . S
C994 C993 1.414 . S
C994 C995 1.374 . S
C995 H975 0.950 . S
C995 C991 1.385 . S
C995 C994 1.374 . S
C996 C993 1.499 . S
C996 C997 1.373 . S
C996 C998 1.389 . S
C997 H976 0.950 . S
C997 C996 1.373 . S
C997 C1013 1.377 . S
C998 C996 1.389 . S
C998 C999 1.524 . S
C998 C1012 1.377 1_554 S
C999 C998 1.524 . S
C999 C1000 1.396 1_554 S
C999 C1004 1.363 . S
C1000 H977 0.950 . S
C1000 C999 1.396 1_556 S
C1000 C1001 1.334 . S
C1001 H978 0.950 . S
C1001 C1000 1.334 . S
C1001 C1002 1.287 1_556 S
C1002 C1001 1.287 1_554 S
C1002 C1003 1.524 . S
C1002 H1021 0.913 1_554 S
C1003 H979 0.950 . S
C1003 C1002 1.524 . S
C1003 C1004 1.415 . S
C1004 H980 0.950 . S
C1004 C999 1.363 . S
C1004 C1003 1.415 . S
C1005 H981 0.951 . S
C1005 C1006 1.366 . S
C1005 C1007 1.388 . S
C1006 C1005 1.366 . S
C1006 C1010 1.385 . S
C1007 H982 0.951 . S
C1007 C1005 1.388 . S
C1007 C1008 1.366 . S
C1008 C1007 1.366 . S
C1008 C1009 1.414 . S
C1008 C1011 1.499 . S
C1009 H983 0.950 . S
C1009 C1008 1.414 . S
C1009 C1010 1.374 . S
C1010 H984 0.950 . S
C1010 C1006 1.385 . S
C1010 C1009 1.374 . S
C1011 C1008 1.499 . S
C1011 C1012 1.373 . S
C1011 C1013 1.389 1_556 S
C1012 H985 0.950 . S
C1012 C998 1.377 1_556 S
C1012 C1011 1.373 . S
C1013 C997 1.377 . S
C1013 C1011 1.389 1_554 S
C1013 C1014 1.524 . S
C1014 C1013 1.524 . S
C1014 C1015 1.399 . S
C1014 C1019 1.363 1_455 S
C1015 H986 0.973 . S
C1015 C1014 1.399 . S
C1015 C1016 1.310 1_455 S
C1016 H987 0.950 . S
C1016 C1015 1.310 1_655 S
C1016 C1017 1.287 . S
C1017 C1016 1.287 . S
C1017 C1018 1.524 . S
C1017 H1020 0.999 . S
C1018 H988 0.950 . S
C1018 C1017 1.524 . S
C1018 C1019 1.415 . S
C1019 H989 0.950 1_554 S
C1019 C1014 1.363 1_655 S
C1019 C1018 1.415 . S
H1020 C1017 0.999 . S
H1021 C1002 0.913 1_556 S
H1022 C1040 0.951 . S
H1023 C1042 0.951 . S
H1024 C1044 0.950 . S
H1025 C1045 0.950 . S
H1026 C1047 0.950 . S
H1027 C1050 0.950 . S
H1028 C1051 0.950 . S
H1029 C1053 0.950 . S
H1030 C1054 0.950 . S
H1031 C1055 0.951 . S
H1032 C1057 0.951 . S
H1033 C1059 0.950 . S
H1034 C1060 0.950 . S
H1035 C1062 0.950 . S
H1036 C1065 0.950 . S
H1037 C1066 0.950 1_556 S
H1038 C1068 0.950 . S
H1039 C1069 0.950 . S
C1040 H1022 0.951 . S
C1040 C1041 1.366 . S
C1040 C1042 1.388 . S
C1041 C1040 1.366 . S
C1041 C1045 1.385 . S
C1042 H1023 0.951 . S
C1042 C1040 1.388 . S
C1042 C1043 1.366 . S
C1043 C1042 1.366 . S
C1043 C1044 1.414 . S
C1043 C1046 1.499 . S
C1044 H1024 0.950 . S
C1044 C1043 1.414 . S
C1044 C1045 1.374 . S
C1045 H1025 0.950 . S
C1045 C1041 1.385 . S
C1045 C1044 1.374 . S
C1046 C1043 1.499 . S
C1046 C1047 1.373 . S
C1046 C1048 1.389 . S
C1047 H1026 0.950 . S
C1047 C1046 1.373 . S
C1047 C1063 1.377 . S
C1048 C1046 1.389 . S
C1048 C1049 1.524 1_554 S
C1048 C1062 1.377 1_554 S
C1049 C1048 1.524 1_556 S
C1049 C1050 1.397 1_556 S
C1049 C1054 1.363 . S
C1050 H1027 0.950 . S
C1050 C1049 1.397 1_554 S
C1050 C1051 1.334 1_545 S
C1051 H1028 0.950 . S
C1051 C1050 1.334 1_565 S
C1051 C1052 1.287 1_554 S
C1052 C1051 1.287 1_556 S
C1052 C1053 1.524 1_565 S
C1052 H1071 0.913 . S
C1053 H1029 0.950 . S
C1053 C1052 1.524 1_545 S
C1053 C1054 1.415 . S
C1054 H1030 0.950 . S
C1054 C1049 1.363 . S
C1054 C1053 1.415 . S
C1055 H1031 0.951 . S
C1055 C1056 1.366 . S
C1055 C1057 1.388 . S
C1056 C1055 1.366 . S
C1056 C1060 1.385 . S
C1057 H1032 0.951 . S
C1057 C1055 1.388 . S
C1057 C1058 1.366 . S
C1058 C1057 1.366 . S
C1058 C1059 1.414 . S
C1058 C1061 1.499 . S
C1059 H1033 0.950 . S
C1059 C1058 1.414 . S
C1059 C1060 1.374 . S
C1060 H1034 0.950 . S
C1060 C1056 1.385 . S
C1060 C1059 1.374 . S
C1061 C1058 1.499 . S
C1061 C1062 1.373 . S
C1061 C1063 1.389 1_556 S
C1062 H1035 0.950 . S
C1062 C1048 1.377 1_556 S
C1062 C1061 1.373 . S
C1063 C1047 1.377 . S
C1063 C1061 1.389 1_554 S
C1063 C1064 1.524 . S
C1064 C1063 1.524 . S
C1064 C1065 1.397 1_554 S
C1064 C1069 1.363 . S
C1065 H1036 0.950 . S
C1065 C1064 1.397 1_556 S
C1065 C1066 1.334 1_556 S
C1066 H1037 0.950 1_554 S
C1066 C1065 1.334 1_554 S
C1066 C1067 1.287 . S
C1067 C1066 1.287 . S
C1067 C1068 1.524 . S
C1067 H1070 0.999 . S
C1068 H1038 0.950 . S
C1068 C1067 1.524 . S
C1068 C1069 1.415 . S
C1069 H1039 0.950 . S
C1069 C1064 1.363 . S
C1069 C1068 1.415 . S
H1070 C1067 0.999 . S
H1071 C1052 0.913 . S
H1072 C1090 0.951 . S
H1073 C1092 0.951 . S
H1074 C1094 0.950 . S
H1075 C1095 0.950 . S
H1076 C1097 0.950 . S
H1077 C1100 0.950 . S
H1078 C1101 0.950 . S
H1079 C1103 0.950 . S
H1080 C1104 0.950 . S
H1081 C1105 0.951 . S
H1082 C1107 0.951 . S
H1083 C1109 0.950 . S
H1084 C1110 0.950 . S
H1085 C1112 0.951 . S
H1086 C1115 0.950 . S
H1087 C1116 0.950 . S
H1088 C1118 0.950 . S
H1089 C1119 0.950 . S
C1090 H1072 0.951 . S
C1090 C1091 1.366 . S
C1090 C1092 1.388 . S
C1091 C1090 1.366 . S
C1091 C1095 1.385 . S
C1092 H1073 0.951 . S
C1092 C1090 1.388 . S
C1092 C1093 1.366 . S
C1093 C1092 1.366 . S
C1093 C1094 1.414 . S
C1093 C1096 1.499 . S
C1094 H1074 0.950 . S
C1094 C1093 1.414 . S
C1094 C1095 1.374 . S
C1095 H1075 0.950 . S
C1095 C1091 1.385 . S
C1095 C1094 1.374 . S
C1096 C1093 1.499 . S
C1096 C1097 1.373 . S
C1096 C1098 1.389 . S
C1097 H1076 0.950 . S
C1097 C1096 1.373 . S
C1097 C1113 1.377 1_554 S
C1098 C1096 1.389 . S
C1098 C1099 1.524 . S
C1098 C1112 1.377 . S
C1099 C1098 1.524 . S
C1099 C1100 1.397 . S
C1099 C1104 1.363 . S
C1100 H1077 0.950 . S
C1100 C1099 1.397 . S
C1100 C1101 1.334 . S
C1101 H1078 0.950 . S
C1101 C1100 1.334 . S
C1101 C1102 1.287 . S
C1102 C1101 1.287 . S
C1102 C1103 1.524 . S
C1102 H1121 0.913 . S
C1103 H1079 0.950 . S
C1103 C1102 1.524 . S
C1103 C1104 1.415 . S
C1104 H1080 0.950 . S
C1104 C1099 1.363 . S
C1104 C1103 1.415 . S
C1105 H1081 0.951 . S
C1105 C1106 1.366 . S
C1105 C1107 1.388 . S
C1106 C1105 1.366 . S
C1106 C1110 1.385 . S
C1107 H1082 0.951 . S
C1107 C1105 1.388 . S
C1107 C1108 1.366 . S
C1108 C1107 1.366 . S
C1108 C1109 1.414 . S
C1108 C1111 1.499 . S
C1109 H1083 0.950 . S
C1109 C1108 1.414 . S
C1109 C1110 1.374 . S
C1110 H1084 0.950 . S
C1110 C1106 1.385 . S
C1110 C1109 1.374 . S
C1111 C1108 1.499 . S
C1111 C1112 1.373 1_556 S
C1111 C1113 1.389 . S
C1112 H1085 0.951 . S
C1112 C1098 1.377 . S
C1112 C1111 1.373 1_554 S
C1113 C1097 1.377 1_556 S
C1113 C1111 1.389 . S
C1113 C1114 1.524 . S
C1114 C1113 1.524 . S
C1114 C1115 1.397 . S
C1114 C1119 1.363 . S
C1115 H1086 0.950 . S
C1115 C1114 1.397 . S
C1115 C1116 1.334 . S
C1116 H1087 0.950 . S
C1116 C1115 1.334 . S
C1116 C1117 1.287 . S
C1117 C1116 1.287 . S
C1117 C1118 1.524 . S
C1117 H1120 0.999 . S
C1118 H1088 0.950 . S
C1118 C1117 1.524 . S
C1118 C1119 1.415 . S
C1119 H1089 0.950 . S
C1119 C1114 1.363 . S
C1119 C1118 1.415 . S
H1120 C1117 0.999 . S
H1121 C1102 0.913 . S
H1122 C1140 0.951 . S
H1123 C1142 0.951 . S
H1124 C1144 0.950 . S
H1125 C1145 0.950 . S
H1126 C1147 0.950 . S
H1127 C1150 0.950 . S
H1128 C1151 0.950 . S
H1129 C1153 0.950 . S
H1130 C1154 0.950 . S
H1131 C1155 0.951 . S
H1132 C1157 0.951 . S
H1133 C1159 0.950 . S
H1134 C1160 0.950 . S
H1135 C1162 0.950 . S
H1136 C1165 0.950 . S
H1137 C1166 0.950 1_554 S
H1138 C1168 0.950 . S
H1139 C1169 0.950 . S
C1140 H1122 0.951 . S
C1140 C1141 1.366 . S
C1140 C1142 1.388 . S
C1141 C1140 1.366 . S
C1141 C1145 1.385 . S
C1142 H1123 0.951 . S
C1142 C1140 1.388 . S
C1142 C1143 1.366 . S
C1143 C1142 1.366 . S
C1143 C1144 1.414 . S
C1143 C1146 1.499 . S
C1144 H1124 0.950 . S
C1144 C1143 1.414 . S
C1144 C1145 1.374 . S
C1145 H1125 0.950 . S
C1145 C1141 1.385 . S
C1145 C1144 1.374 . S
C1146 C1143 1.499 . S
C1146 C1147 1.373 . S
C1146 C1148 1.389 . S
C1147 H1126 0.950 . S
C1147 C1146 1.373 . S
C1147 C1163 1.377 1_554 S
C1148 C1146 1.389 . S
C1148 C1149 1.524 . S
C1148 C1162 1.377 1_554 S
C1149 C1148 1.524 . S
C1149 C1150 1.397 . S
C1149 C1154 1.363 . S
C1150 H1127 0.950 . S
C1150 C1149 1.397 . S
C1150 C1151 1.334 . S
C1151 H1128 0.950 . S
C1151 C1150 1.334 . S
C1151 C1152 1.287 . S
C1152 C1151 1.287 . S
C1152 C1153 1.524 . S
C1152 H1171 0.913 . S
C1153 H1129 0.950 . S
C1153 C1152 1.524 . S
C1153 C1154 1.415 . S
C1154 H1130 0.950 . S
C1154 C1149 1.363 . S
C1154 C1153 1.415 . S
C1155 H1131 0.951 . S
C1155 C1156 1.366 . S
C1155 C1157 1.388 . S
C1156 C1155 1.366 . S
C1156 C1160 1.385 . S
C1157 H1132 0.951 . S
C1157 C1155 1.388 . S
C1157 C1158 1.366 . S
C1158 C1157 1.366 . S
C1158 C1159 1.414 . S
C1158 C1161 1.499 . S
C1159 H1133 0.950 . S
C1159 C1158 1.414 . S
C1159 C1160 1.374 . S
C1160 H1134 0.950 . S
C1160 C1156 1.385 . S
C1160 C1159 1.374 . S
C1161 C1158 1.499 . S
C1161 C1162 1.373 . S
C1161 C1163 1.389 . S
C1162 H1135 0.950 . S
C1162 C1148 1.377 1_556 S
C1162 C1161 1.373 . S
C1163 C1147 1.377 1_556 S
C1163 C1161 1.389 . S
C1163 C1164 1.524 . S
C1164 C1163 1.524 . S
C1164 C1165 1.397 1_556 S
C1164 C1169 1.363 . S
C1165 H1136 0.950 . S
C1165 C1164 1.397 1_554 S
C1165 C1166 1.334 1_554 S
C1166 H1137 0.950 1_556 S
C1166 C1165 1.334 1_556 S
C1166 C1167 1.287 . S
C1167 C1166 1.287 . S
C1167 C1168 1.524 . S
C1167 H1170 0.999 . S
C1168 H1138 0.950 . S
C1168 C1167 1.524 . S
C1168 C1169 1.415 . S
C1169 H1139 0.950 . S
C1169 C1164 1.363 . S
C1169 C1168 1.415 . S
H1170 C1167 0.999 . S
H1171 C1152 0.913 . S
H1172 C1190 0.951 . S
H1173 C1192 0.951 . S
H1174 C1194 0.950 . S
H1175 C1195 0.950 . S
H1176 C1197 0.944 1_455 S
H1177 C1200 0.950 . S
H1178 C1201 0.950 . S
H1179 C1203 0.950 . S
H1180 C1204 0.950 . S
H1181 C1205 0.951 . S
H1182 C1207 0.951 . S
H1183 C1209 0.950 . S
H1184 C1210 0.946 1_455 S
H1185 C1212 0.950 . S
H1186 C1215 0.950 . S
H1187 C1216 0.950 . S
H1188 C1218 0.950 . S
H1189 C1219 0.950 . S
C1190 H1172 0.951 . S
C1190 C1191 1.366 . S
C1190 C1192 1.388 . S
C1191 C1190 1.366 . S
C1191 C1195 1.385 . S
C1192 H1173 0.951 . S
C1192 C1190 1.388 . S
C1192 C1193 1.366 . S
C1193 C1192 1.366 . S
C1193 C1194 1.414 . S
C1193 C1196 1.499 . S
C1194 H1174 0.950 . S
C1194 C1193 1.414 . S
C1194 C1195 1.374 . S
C1195 H1175 0.950 . S
C1195 C1191 1.385 . S
C1195 C1194 1.374 . S
C1196 C1193 1.499 . S
C1196 C1197 1.373 . S
C1196 C1198 1.389 . S
C1197 H1176 0.944 1_655 S
C1197 C1196 1.373 . S
C1197 C1213 1.377 . S
C1198 C1196 1.389 . S
C1198 C1199 1.524 . S
C1198 C1212 1.377 . S
C1199 C1198 1.524 . S
C1199 C1200 1.397 . S
C1199 C1204 1.363 . S
C1200 H1177 0.950 . S
C1200 C1199 1.397 . S
C1200 C1201 1.334 . S
C1201 H1178 0.950 . S
C1201 C1200 1.334 . S
C1201 C1202 1.287 . S
C1202 C1201 1.287 . S
C1202 C1203 1.524 . S
C1202 H1221 0.913 . S
C1203 H1179 0.950 . S
C1203 C1202 1.524 . S
C1203 C1204 1.415 . S
C1204 H1180 0.950 . S
C1204 C1199 1.363 . S
C1204 C1203 1.415 . S
C1205 H1181 0.951 . S
C1205 C1206 1.366 . S
C1205 C1207 1.388 . S
C1206 C1205 1.366 . S
C1206 C1210 1.385 . S
C1207 H1182 0.951 . S
C1207 C1205 1.388 . S
C1207 C1208 1.366 . S
C1208 C1207 1.366 . S
C1208 C1209 1.414 . S
C1208 C1211 1.499 . S
C1209 H1183 0.950 . S
C1209 C1208 1.414 . S
C1209 C1210 1.374 . S
C1210 H1184 0.946 1_655 S
C1210 C1206 1.385 . S
C1210 C1209 1.374 . S
C1211 C1208 1.499 . S
C1211 C1212 1.373 . S
C1211 C1213 1.389 . S
C1212 H1185 0.950 . S
C1212 C1198 1.377 . S
C1212 C1211 1.373 . S
C1213 C1197 1.377 . S
C1213 C1211 1.389 . S
C1213 C1214 1.524 1_655 S
C1214 C1213 1.524 1_455 S
C1214 C1215 1.397 . S
C1214 C1219 1.363 . S
C1215 H1186 0.950 . S
C1215 C1214 1.397 . S
C1215 C1216 1.334 . S
C1216 H1187 0.950 . S
C1216 C1215 1.334 . S
C1216 C1217 1.287 . S
C1217 C1216 1.287 . S
C1217 C1218 1.524 . S
C1217 H1220 0.999 . S
C1218 H1188 0.950 . S
C1218 C1217 1.524 . S
C1218 C1219 1.415 . S
C1219 H1189 0.950 . S
C1219 C1214 1.363 . S
C1219 C1218 1.415 . S
H1220 C1217 0.999 . S
H1221 C1202 0.913 . S
H1222 C1240 0.951 . S
H1223 C1242 0.951 . S
H1224 C1244 0.950 . S
H1225 C1245 0.950 . S
H1226 C1247 0.950 . S
H1227 C1250 0.950 . S
H1228 C1251 0.950 . S
H1229 C1253 0.950 . S
H1230 C1254 0.950 . S
H1231 C1255 0.951 . S
H1232 C1257 0.951 . S
H1233 C1259 0.950 . S
H1234 C1260 0.950 . S
H1235 C1262 0.950 . S
H1236 C1265 0.950 . S
H1237 C1266 0.950 . S
H1238 C1268 0.950 . S
H1239 C1269 0.950 . S
C1240 H1222 0.951 . S
C1240 C1241 1.366 . S
C1240 C1242 1.388 . S
C1241 C1240 1.366 . S
C1241 C1245 1.385 . S
C1242 H1223 0.951 . S
C1242 C1240 1.388 . S
C1242 C1243 1.366 . S
C1243 C1242 1.366 . S
C1243 C1244 1.414 . S
C1243 C1246 1.499 . S
C1244 H1224 0.950 . S
C1244 C1243 1.414 . S
C1244 C1245 1.374 . S
C1245 H1225 0.950 . S
C1245 C1241 1.385 . S
C1245 C1244 1.374 . S
C1246 C1243 1.499 . S
C1246 C1247 1.373 . S
C1246 C1248 1.389 . S
C1247 H1226 0.950 . S
C1247 C1246 1.373 . S
C1247 C1263 1.377 . S
C1248 C1246 1.389 . S
C1248 C1249 1.524 . S
C1248 C1262 1.377 . S
C1249 C1248 1.524 . S
C1249 C1250 1.397 . S
C1249 C1254 1.363 . S
C1250 H1227 0.950 . S
C1250 C1249 1.397 . S
C1250 C1251 1.334 . S
C1251 H1228 0.950 . S
C1251 C1250 1.334 . S
C1251 C1252 1.287 . S
C1252 C1251 1.287 . S
C1252 C1253 1.524 . S
C1252 H1271 0.913 . S
C1253 H1229 0.950 . S
C1253 C1252 1.524 . S
C1253 C1254 1.415 . S
C1254 H1230 0.950 . S
C1254 C1249 1.363 . S
C1254 C1253 1.415 . S
C1255 H1231 0.951 . S
C1255 C1256 1.366 . S
C1255 C1257 1.388 . S
C1256 C1255 1.366 . S
C1256 C1260 1.385 1_565 S
C1257 H1232 0.951 . S
C1257 C1255 1.388 . S
C1257 C1258 1.366 . S
C1258 C1257 1.366 . S
C1258 C1259 1.414 1_565 S
C1258 C1261 1.499 . S
C1259 H1233 0.950 . S
C1259 C1258 1.414 1_545 S
C1259 C1260 1.374 . S
C1260 H1234 0.950 . S
C1260 C1256 1.385 1_545 S
C1260 C1259 1.374 . S
C1261 C1258 1.499 . S
C1261 C1262 1.373 . S
C1261 C1263 1.389 . S
C1262 H1235 0.950 . S
C1262 C1248 1.377 . S
C1262 C1261 1.373 . S
C1263 C1247 1.377 . S
C1263 C1261 1.389 . S
C1263 C1264 1.524 . S
C1264 C1263 1.524 . S
C1264 C1265 1.397 1_565 S
C1264 C1269 1.363 . S
C1265 H1236 0.950 . S
C1265 C1264 1.397 1_545 S
C1265 C1266 1.334 . S
C1266 H1237 0.950 . S
C1266 C1265 1.334 . S
C1266 C1267 1.287 . S
C1267 C1266 1.287 . S
C1267 C1268 1.524 1_545 S
C1267 H1270 0.999 . S
C1268 H1238 0.950 . S
C1268 C1267 1.524 1_565 S
C1268 C1269 1.415 . S
C1269 H1239 0.950 . S
C1269 C1264 1.363 . S
C1269 C1268 1.415 . S
H1270 C1267 0.999 . S
H1271 C1252 0.913 . S
H1272 C1290 0.951 . S
H1273 C1292 0.951 . S
H1274 C1294 0.950 . S
H1275 C1295 0.950 . S
H1276 C1297 0.950 . S
H1277 C1300 0.950 . S
H1278 C1301 0.950 . S
H1279 C1303 0.950 . S
H1280 C1304 0.950 . S
H1281 C1305 0.951 . S
H1282 C1307 0.951 . S
H1283 C1309 0.950 . S
H1284 C1310 0.950 . S
H1285 C1312 0.950 . S
H1286 C1315 0.950 . S
H1287 C1316 0.950 . S
H1288 C1318 0.950 . S
H1289 C1319 0.950 . S
C1290 H1272 0.951 . S
C1290 C1291 1.366 . S
C1290 C1292 1.388 . S
C1291 C1290 1.366 . S
C1291 C1295 1.385 . S
C1292 H1273 0.951 . S
C1292 C1290 1.388 . S
C1292 C1293 1.366 . S
C1293 C1292 1.366 . S
C1293 C1294 1.414 . S
C1293 C1296 1.499 . S
C1294 H1274 0.950 . S
C1294 C1293 1.414 . S
C1294 C1295 1.374 . S
C1295 H1275 0.950 . S
C1295 C1291 1.385 . S
C1295 C1294 1.374 . S
C1296 C1293 1.499 . S
C1296 C1297 1.373 . S
C1296 C1298 1.389 . S
C1297 H1276 0.950 . S
C1297 C1296 1.373 . S
C1297 C1313 1.377 . S
C1298 C1296 1.389 . S
C1298 C1299 1.524 . S
C1298 C1312 1.377 . S
C1299 C1298 1.524 . S
C1299 C1300 1.397 . S
C1299 C1304 1.363 . S
C1300 H1277 0.950 . S
C1300 C1299 1.397 . S
C1300 C1301 1.334 . S
C1301 H1278 0.950 . S
C1301 C1300 1.334 . S
C1301 C1302 1.287 . S
C1302 C1301 1.287 . S
C1302 C1303 1.524 . S
C1302 H1321 0.913 . S
C1303 H1279 0.950 . S
C1303 C1302 1.524 . S
C1303 C1304 1.415 . S
C1304 H1280 0.950 . S
C1304 C1299 1.363 . S
C1304 C1303 1.415 . S
C1305 H1281 0.951 . S
C1305 C1306 1.366 . S
C1305 C1307 1.388 . S
C1306 C1305 1.366 . S
C1306 C1310 1.385 . S
C1307 H1282 0.951 . S
C1307 C1305 1.388 . S
C1307 C1308 1.366 . S
C1308 C1307 1.366 . S
C1308 C1309 1.414 . S
C1308 C1311 1.499 . S
C1309 H1283 0.950 . S
C1309 C1308 1.414 . S
C1309 C1310 1.374 . S
C1310 H1284 0.950 . S
C1310 C1306 1.385 . S
C1310 C1309 1.374 . S
C1311 C1308 1.499 . S
C1311 C1312 1.373 . S
C1311 C1313 1.389 . S
C1312 H1285 0.950 . S
C1312 C1298 1.377 . S
C1312 C1311 1.373 . S
C1313 C1297 1.377 . S
C1313 C1311 1.389 . S
C1313 C1314 1.524 . S
C1314 C1313 1.524 . S
C1314 C1315 1.397 . S
C1314 C1319 1.363 . S
C1315 H1286 0.950 . S
C1315 C1314 1.397 . S
C1315 C1316 1.334 . S
C1316 H1287 0.950 . S
C1316 C1315 1.334 . S
C1316 C1317 1.287 . S
C1317 C1316 1.287 . S
C1317 C1318 1.524 . S
C1317 H1320 0.999 . S
C1318 H1288 0.950 . S
C1318 C1317 1.524 . S
C1318 C1319 1.415 . S
C1319 H1289 0.950 . S
C1319 C1314 1.363 . S
C1319 C1318 1.415 . S
H1320 C1317 0.999 . S
H1321 C1302 0.913 . S
H1322 C1340 0.951 . S
H1323 C1342 0.951 . S
H1324 C1344 0.950 . S
H1325 C1345 0.950 . S
H1326 C1347 0.950 . S
H1327 C1350 0.950 . S
H1328 C1351 0.950 . S
H1329 C1353 0.950 . S
H1330 C1354 0.950 . S
H1331 C1355 0.951 . S
H1332 C1357 0.951 . S
H1333 C1359 0.950 . S
H1334 C1360 0.950 . S
H1335 C1362 0.950 . S
H1336 C1365 0.950 . S
H1337 C1366 0.950 . S
H1338 C1368 0.950 . S
H1339 C1369 0.950 . S
C1340 H1322 0.951 . S
C1340 C1341 1.366 . S
C1340 C1342 1.388 . S
C1341 C1340 1.366 . S
C1341 C1345 1.385 . S
C1342 H1323 0.951 . S
C1342 C1340 1.388 . S
C1342 C1343 1.366 . S
C1343 C1342 1.366 . S
C1343 C1344 1.414 . S
C1343 C1346 1.499 . S
C1344 H1324 0.950 . S
C1344 C1343 1.414 . S
C1344 C1345 1.374 . S
C1345 H1325 0.950 . S
C1345 C1341 1.385 . S
C1345 C1344 1.374 . S
C1346 C1343 1.499 . S
C1346 C1347 1.373 . S
C1346 C1348 1.389 . S
C1347 H1326 0.950 . S
C1347 C1346 1.373 . S
C1347 C1363 1.377 . S
C1348 C1346 1.389 . S
C1348 C1349 1.524 . S
C1348 C1362 1.377 . S
C1349 C1348 1.524 . S
C1349 C1350 1.397 . S
C1349 C1354 1.363 . S
C1350 H1327 0.950 . S
C1350 C1349 1.397 . S
C1350 C1351 1.334 . S
C1351 H1328 0.950 . S
C1351 C1350 1.334 . S
C1351 C1352 1.287 . S
C1352 C1351 1.287 . S
C1352 C1353 1.524 . S
C1352 H1371 0.913 . S
C1353 H1329 0.950 . S
C1353 C1352 1.524 . S
C1353 C1354 1.415 . S
C1354 H1330 0.950 . S
C1354 C1349 1.363 . S
C1354 C1353 1.415 . S
C1355 H1331 0.951 . S
C1355 C1356 1.366 . S
C1355 C1357 1.388 . S
C1356 C1355 1.366 . S
C1356 C1360 1.385 . S
C1357 H1332 0.951 . S
C1357 C1355 1.388 . S
C1357 C1358 1.366 . S
C1358 C1357 1.366 . S
C1358 C1359 1.414 . S
C1358 C1361 1.499 . S
C1359 H1333 0.950 . S
C1359 C1358 1.414 . S
C1359 C1360 1.374 . S
C1360 H1334 0.950 . S
C1360 C1356 1.385 . S
C1360 C1359 1.374 . S
C1361 C1358 1.499 . S
C1361 C1362 1.373 . S
C1361 C1363 1.389 . S
C1362 H1335 0.950 . S
C1362 C1348 1.377 . S
C1362 C1361 1.373 . S
C1363 C1347 1.377 . S
C1363 C1361 1.389 . S
C1363 C1364 1.524 . S
C1364 C1363 1.524 . S
C1364 C1365 1.397 . S
C1364 C1369 1.363 . S
C1365 H1336 0.950 . S
C1365 C1364 1.397 . S
C1365 C1366 1.334 . S
C1366 H1337 0.950 . S
C1366 C1365 1.334 . S
C1366 C1367 1.287 . S
C1367 C1366 1.287 . S
C1367 C1368 1.524 . S
C1367 H1370 0.999 . S
C1368 H1338 0.950 . S
C1368 C1367 1.524 . S
C1368 C1369 1.415 . S
C1369 H1339 0.950 . S
C1369 C1364 1.363 . S
C1369 C1368 1.415 . S
H1370 C1367 0.999 . S
H1371 C1352 0.913 . S
C191 C74 1.544 . S
C206 C103 1.377 . S
C256 C127 1.373 . S
C241 C85 1.541 . S
C306 C148 1.378 . S
C291 C52 1.544 . S
C356 C166 1.375 . S
C341 C63 1.541 . S
C406 C106 1.313 . S
C391 C30 1.442 . S
C441 C41 1.441 . S
C456 C124 1.309 . S
C491 C8 1.443 . S
C506 C145 1.312 . S
C541 C19 1.440 . S
C556 C169 1.310 . S
C606 C104 0.437 . S
C591 C62 0.350 . S
C656 C122 0.438 . S
C641 C73 0.351 . S
C706 C143 0.434 . S
C691 C84 0.350 . S
C741 C51 0.351 . S
C756 C167 0.439 . S
C791 C18 0.557 . S
C806 C102 0.522 . S
C856 C126 0.523 . S
C841 C29 0.559 . S
C906 C147 0.520 . S
C891 C40 0.559 . S
C941 C7 0.562 . S
C956 C165 0.523 . S
C991 C60 1.432 . S
C1006 C105 1.564 . S
C1041 C71 1.434 . S
C1056 C123 1.566 . S
C1106 C144 1.565 . S
C1091 C82 1.432 . S
C1156 C168 1.567 . S
C1141 C49 1.436 . S
C1191 C16 1.180 . S
C1206 C101 1.407 1_655 S
C1256 C125 1.409 1_565 S
C1241 C27 1.181 . S
C1306 C146 1.407 . S
C1291 C38 1.183 . S
C1341 C5 1.180 . S
C1356 C164 1.409 . S
