# Generated by pormake.
# Topology iac, (4,6)-cn, num edge types: 1
# Building blocks:
#     Node 0, Type 0, BuildingBlock: CEKHIL_clean_sbu_0, # of connection points: 4
#     Node 1, Type 0, BuildingBlock: CEKHIL_clean_sbu_0, # of connection points: 4
#     Node 2, Type 0, BuildingBlock: CEKHIL_clean_sbu_0, # of connection points: 4
#     Node 3, Type 0, BuildingBlock: CEKHIL_clean_sbu_0, # of connection points: 4
#     Node 4, Type 0, BuildingBlock: CEKHIL_clean_sbu_0, # of connection points: 4
#     Node 5, Type 0, BuildingBlock: CEKHIL_clean_sbu_0, # of connection points: 4
#     Node 6, Type 0, BuildingBlock: CEKHIL_clean_sbu_0, # of connection points: 4
#     Node 7, Type 0, BuildingBlock: CEKHIL_clean_sbu_0, # of connection points: 4
#     Node 8, Type 0, BuildingBlock: CEKHIL_clean_sbu_0, # of connection points: 4
#     Node 9, Type 0, BuildingBlock: CEKHIL_clean_sbu_0, # of connection points: 4
#     Node 10, Type 0, BuildingBlock: CEKHIL_clean_sbu_0, # of connection points: 4
#     Node 11, Type 0, BuildingBlock: CEKHIL_clean_sbu_0, # of connection points: 4
#     Node 12, Type 0, BuildingBlock: CEKHIL_clean_sbu_0, # of connection points: 4
#     Node 13, Type 0, BuildingBlock: CEKHIL_clean_sbu_0, # of connection points: 4
#     Node 14, Type 0, BuildingBlock: CEKHIL_clean_sbu_0, # of connection points: 4
#     Node 15, Type 0, BuildingBlock: CEKHIL_clean_sbu_0, # of connection points: 4
#     Node 16, Type 0, BuildingBlock: CEKHIL_clean_sbu_0, # of connection points: 4
#     Node 17, Type 0, BuildingBlock: CEKHIL_clean_sbu_0, # of connection points: 4
#     Node 18, Type 0, BuildingBlock: CEKHIL_clean_sbu_0, # of connection points: 4
#     Node 19, Type 0, BuildingBlock: CEKHIL_clean_sbu_0, # of connection points: 4
#     Node 20, Type 0, BuildingBlock: CEKHIL_clean_sbu_0, # of connection points: 4
#     Node 21, Type 0, BuildingBlock: CEKHIL_clean_sbu_0, # of connection points: 4
#     Node 22, Type 0, BuildingBlock: CEKHIL_clean_sbu_0, # of connection points: 4
#     Node 23, Type 0, BuildingBlock: CEKHIL_clean_sbu_0, # of connection points: 4
#     Node 24, Type 1, BuildingBlock: FUNLAD_clean_sbu_0, # of connection points: 6
#     Node 25, Type 1, BuildingBlock: FUNLAD_clean_sbu_0, # of connection points: 6
#     Node 26, Type 1, BuildingBlock: FUNLAD_clean_sbu_0, # of connection points: 6
#     Node 27, Type 1, BuildingBlock: FUNLAD_clean_sbu_0, # of connection points: 6
#     Node 28, Type 1, BuildingBlock: FUNLAD_clean_sbu_0, # of connection points: 6
#     Node 29, Type 1, BuildingBlock: FUNLAD_clean_sbu_0, # of connection points: 6
#     Node 30, Type 1, BuildingBlock: FUNLAD_clean_sbu_0, # of connection points: 6
#     Node 31, Type 1, BuildingBlock: FUNLAD_clean_sbu_0, # of connection points: 6
#     Node 32, Type 1, BuildingBlock: FUNLAD_clean_sbu_0, # of connection points: 6
#     Node 33, Type 1, BuildingBlock: FUNLAD_clean_sbu_0, # of connection points: 6
#     Node 34, Type 1, BuildingBlock: FUNLAD_clean_sbu_0, # of connection points: 6
#     Node 35, Type 1, BuildingBlock: FUNLAD_clean_sbu_0, # of connection points: 6
#     Node 36, Type 1, BuildingBlock: FUNLAD_clean_sbu_0, # of connection points: 6
#     Node 37, Type 1, BuildingBlock: FUNLAD_clean_sbu_0, # of connection points: 6
#     Node 38, Type 1, BuildingBlock: FUNLAD_clean_sbu_0, # of connection points: 6
#     Node 39, Type 1, BuildingBlock: FUNLAD_clean_sbu_0, # of connection points: 6
#     Edge 40, Type (0, 1), BuildingBlock: KIFKEQ_clean_linker_1, # of connection points: 2
#     Edge 41, Type (0, 1), BuildingBlock: KIFKEQ_clean_linker_1, # of connection points: 2
#     Edge 42, Type (0, 1), BuildingBlock: KIFKEQ_clean_linker_1, # of connection points: 2
#     Edge 43, Type (0, 1), BuildingBlock: KIFKEQ_clean_linker_1, # of connection points: 2
#     Edge 44, Type (0, 1), BuildingBlock: KIFKEQ_clean_linker_1, # of connection points: 2
#     Edge 45, Type (0, 1), BuildingBlock: KIFKEQ_clean_linker_1, # of connection points: 2
#     Edge 46, Type (0, 1), BuildingBlock: KIFKEQ_clean_linker_1, # of connection points: 2
#     Edge 47, Type (0, 1), BuildingBlock: KIFKEQ_clean_linker_1, # of connection points: 2
#     Edge 48, Type (0, 1), BuildingBlock: KIFKEQ_clean_linker_1, # of connection points: 2
#     Edge 49, Type (0, 1), BuildingBlock: KIFKEQ_clean_linker_1, # of connection points: 2
#     Edge 50, Type (0, 1), BuildingBlock: KIFKEQ_clean_linker_1, # of connection points: 2
#     Edge 51, Type (0, 1), BuildingBlock: KIFKEQ_clean_linker_1, # of connection points: 2
#     Edge 52, Type (0, 1), BuildingBlock: KIFKEQ_clean_linker_1, # of connection points: 2
#     Edge 53, Type (0, 1), BuildingBlock: KIFKEQ_clean_linker_1, # of connection points: 2
#     Edge 54, Type (0, 1), BuildingBlock: KIFKEQ_clean_linker_1, # of connection points: 2
#     Edge 55, Type (0, 1), BuildingBlock: KIFKEQ_clean_linker_1, # of connection points: 2
#     Edge 56, Type (0, 1), BuildingBlock: KIFKEQ_clean_linker_1, # of connection points: 2
#     Edge 57, Type (0, 1), BuildingBlock: KIFKEQ_clean_linker_1, # of connection points: 2
#     Edge 58, Type (0, 1), BuildingBlock: KIFKEQ_clean_linker_1, # of connection points: 2
#     Edge 59, Type (0, 1), BuildingBlock: KIFKEQ_clean_linker_1, # of connection points: 2
#     Edge 60, Type (0, 1), BuildingBlock: KIFKEQ_clean_linker_1, # of connection points: 2
#     Edge 61, Type (0, 1), BuildingBlock: KIFKEQ_clean_linker_1, # of connection points: 2
#     Edge 62, Type (0, 1), BuildingBlock: KIFKEQ_clean_linker_1, # of connection points: 2
#     Edge 63, Type (0, 1), BuildingBlock: KIFKEQ_clean_linker_1, # of connection points: 2
#     Edge 64, Type (0, 1), BuildingBlock: KIFKEQ_clean_linker_1, # of connection points: 2
#     Edge 65, Type (0, 1), BuildingBlock: KIFKEQ_clean_linker_1, # of connection points: 2
#     Edge 66, Type (0, 1), BuildingBlock: KIFKEQ_clean_linker_1, # of connection points: 2
#     Edge 67, Type (0, 1), BuildingBlock: KIFKEQ_clean_linker_1, # of connection points: 2
#     Edge 68, Type (0, 1), BuildingBlock: KIFKEQ_clean_linker_1, # of connection points: 2
#     Edge 69, Type (0, 1), BuildingBlock: KIFKEQ_clean_linker_1, # of connection points: 2
#     Edge 70, Type (0, 1), BuildingBlock: KIFKEQ_clean_linker_1, # of connection points: 2
#     Edge 71, Type (0, 1), BuildingBlock: KIFKEQ_clean_linker_1, # of connection points: 2
#     Edge 72, Type (0, 1), BuildingBlock: KIFKEQ_clean_linker_1, # of connection points: 2
#     Edge 73, Type (0, 1), BuildingBlock: KIFKEQ_clean_linker_1, # of connection points: 2
#     Edge 74, Type (0, 1), BuildingBlock: KIFKEQ_clean_linker_1, # of connection points: 2
#     Edge 75, Type (0, 1), BuildingBlock: KIFKEQ_clean_linker_1, # of connection points: 2
#     Edge 76, Type (0, 1), BuildingBlock: KIFKEQ_clean_linker_1, # of connection points: 2
#     Edge 77, Type (0, 1), BuildingBlock: KIFKEQ_clean_linker_1, # of connection points: 2
#     Edge 78, Type (0, 1), BuildingBlock: KIFKEQ_clean_linker_1, # of connection points: 2
#     Edge 79, Type (0, 1), BuildingBlock: KIFKEQ_clean_linker_1, # of connection points: 2
#     Edge 80, Type (0, 1), BuildingBlock: KIFKEQ_clean_linker_1, # of connection points: 2
#     Edge 81, Type (0, 1), BuildingBlock: KIFKEQ_clean_linker_1, # of connection points: 2
#     Edge 82, Type (0, 1), BuildingBlock: KIFKEQ_clean_linker_1, # of connection points: 2
#     Edge 83, Type (0, 1), BuildingBlock: KIFKEQ_clean_linker_1, # of connection points: 2
#     Edge 84, Type (0, 1), BuildingBlock: KIFKEQ_clean_linker_1, # of connection points: 2
#     Edge 85, Type (0, 1), BuildingBlock: KIFKEQ_clean_linker_1, # of connection points: 2
#     Edge 86, Type (0, 1), BuildingBlock: KIFKEQ_clean_linker_1, # of connection points: 2
#     Edge 87, Type (0, 1), BuildingBlock: KIFKEQ_clean_linker_1, # of connection points: 2
#     Edge 88, Type (0, 1), BuildingBlock: KIFKEQ_clean_linker_1, # of connection points: 2
#     Edge 89, Type (0, 1), BuildingBlock: KIFKEQ_clean_linker_1, # of connection points: 2
#     Edge 90, Type (0, 1), BuildingBlock: KIFKEQ_clean_linker_1, # of connection points: 2
#     Edge 91, Type (0, 1), BuildingBlock: KIFKEQ_clean_linker_1, # of connection points: 2
#     Edge 92, Type (0, 1), BuildingBlock: KIFKEQ_clean_linker_1, # of connection points: 2
#     Edge 93, Type (0, 1), BuildingBlock: KIFKEQ_clean_linker_1, # of connection points: 2
#     Edge 94, Type (0, 1), BuildingBlock: KIFKEQ_clean_linker_1, # of connection points: 2
#     Edge 95, Type (0, 1), BuildingBlock: KIFKEQ_clean_linker_1, # of connection points: 2
#     Edge 96, Type (0, 1), BuildingBlock: KIFKEQ_clean_linker_1, # of connection points: 2
#     Edge 97, Type (0, 1), BuildingBlock: KIFKEQ_clean_linker_1, # of connection points: 2
#     Edge 98, Type (0, 1), BuildingBlock: KIFKEQ_clean_linker_1, # of connection points: 2
#     Edge 99, Type (0, 1), BuildingBlock: KIFKEQ_clean_linker_1, # of connection points: 2
#     Edge 100, Type (0, 1), BuildingBlock: KIFKEQ_clean_linker_1, # of connection points: 2
#     Edge 101, Type (0, 1), BuildingBlock: KIFKEQ_clean_linker_1, # of connection points: 2
#     Edge 102, Type (0, 1), BuildingBlock: KIFKEQ_clean_linker_1, # of connection points: 2
#     Edge 103, Type (0, 1), BuildingBlock: KIFKEQ_clean_linker_1, # of connection points: 2
#     Edge 104, Type (0, 1), BuildingBlock: KIFKEQ_clean_linker_1, # of connection points: 2
#     Edge 105, Type (0, 1), BuildingBlock: KIFKEQ_clean_linker_1, # of connection points: 2
#     Edge 106, Type (0, 1), BuildingBlock: KIFKEQ_clean_linker_1, # of connection points: 2
#     Edge 107, Type (0, 1), BuildingBlock: KIFKEQ_clean_linker_1, # of connection points: 2
#     Edge 108, Type (0, 1), BuildingBlock: KIFKEQ_clean_linker_1, # of connection points: 2
#     Edge 109, Type (0, 1), BuildingBlock: KIFKEQ_clean_linker_1, # of connection points: 2
#     Edge 110, Type (0, 1), BuildingBlock: KIFKEQ_clean_linker_1, # of connection points: 2
#     Edge 111, Type (0, 1), BuildingBlock: KIFKEQ_clean_linker_1, # of connection points: 2
#     Edge 112, Type (0, 1), BuildingBlock: KIFKEQ_clean_linker_1, # of connection points: 2
#     Edge 113, Type (0, 1), BuildingBlock: KIFKEQ_clean_linker_1, # of connection points: 2
#     Edge 114, Type (0, 1), BuildingBlock: KIFKEQ_clean_linker_1, # of connection points: 2
#     Edge 115, Type (0, 1), BuildingBlock: KIFKEQ_clean_linker_1, # of connection points: 2
#     Edge 116, Type (0, 1), BuildingBlock: KIFKEQ_clean_linker_1, # of connection points: 2
#     Edge 117, Type (0, 1), BuildingBlock: KIFKEQ_clean_linker_1, # of connection points: 2
#     Edge 118, Type (0, 1), BuildingBlock: KIFKEQ_clean_linker_1, # of connection points: 2
#     Edge 119, Type (0, 1), BuildingBlock: KIFKEQ_clean_linker_1, # of connection points: 2
#     Edge 120, Type (0, 1), BuildingBlock: KIFKEQ_clean_linker_1, # of connection points: 2
#     Edge 121, Type (0, 1), BuildingBlock: KIFKEQ_clean_linker_1, # of connection points: 2
#     Edge 122, Type (0, 1), BuildingBlock: KIFKEQ_clean_linker_1, # of connection points: 2
#     Edge 123, Type (0, 1), BuildingBlock: KIFKEQ_clean_linker_1, # of connection points: 2
#     Edge 124, Type (0, 1), BuildingBlock: KIFKEQ_clean_linker_1, # of connection points: 2
#     Edge 125, Type (0, 1), BuildingBlock: KIFKEQ_clean_linker_1, # of connection points: 2
#     Edge 126, Type (0, 1), BuildingBlock: KIFKEQ_clean_linker_1, # of connection points: 2
#     Edge 127, Type (0, 1), BuildingBlock: KIFKEQ_clean_linker_1, # of connection points: 2
#     Edge 128, Type (0, 1), BuildingBlock: KIFKEQ_clean_linker_1, # of connection points: 2
#     Edge 129, Type (0, 1), BuildingBlock: KIFKEQ_clean_linker_1, # of connection points: 2
#     Edge 130, Type (0, 1), BuildingBlock: KIFKEQ_clean_linker_1, # of connection points: 2
#     Edge 131, Type (0, 1), BuildingBlock: KIFKEQ_clean_linker_1, # of connection points: 2
#     Edge 132, Type (0, 1), BuildingBlock: KIFKEQ_clean_linker_1, # of connection points: 2
#     Edge 133, Type (0, 1), BuildingBlock: KIFKEQ_clean_linker_1, # of connection points: 2
#     Edge 134, Type (0, 1), BuildingBlock: KIFKEQ_clean_linker_1, # of connection points: 2
#     Edge 135, Type (0, 1), BuildingBlock: KIFKEQ_clean_linker_1, # of connection points: 2
# Relax obj value: 0.318
# Max RMSD: 0.280
# Mean RMSD: 0.132
data_MOF--net-iac--node1-CEKHIL_clean_sbu_0--node2-FUNLAD_clean_sbu_0--edge1-KIFKEQ_clean_linker_1
_symmetry_space_group_name_H-M    P1
_symmetry_Int_Tables_number       1
_symmetry_cell_setting            triclinic
loop_
_symmetry_equiv_pos_as_xyz
'x, y, z'
_cell_length_a     56.183647
_cell_length_b     53.635818
_cell_length_c     59.239152
_cell_angle_alpha  89.897203
_cell_angle_beta   92.121018
_cell_angle_gamma 90.485559
loop_
_atom_site_label
_atom_site_type_symbol
_atom_site_fract_x
_atom_site_fract_y
_atom_site_fract_z
_atom_type_partial_charge
Co0 Co 0.05746 0.22747 0.1519 0.0
O1 O 0.02667 0.21197 0.15318 0.0
O2 O 0.05356 0.21322 0.18152 0.0
C3 C 0.04504 0.26294 0.13586 0.0
O4 O 0.09041 0.2428 0.15708 0.0
Co5 Co 0.07933 0.24221 0.1061 0.0
O6 O 0.10246 0.26137 0.12533 0.0
C7 C 0.07862 0.18951 0.12091 0.0
C8 C 0.03227 0.20686 0.17412 0.0
C9 C 0.1049 0.2569 0.14641 0.0
O10 O 0.07116 0.19574 0.14035 0.0
O11 O 0.08133 0.20502 0.10472 0.0
O12 O 0.04371 0.25989 0.15753 0.0
O13 O 0.05165 0.24384 0.12453 0.0
Co14 Co 0.04029 0.765 0.39173 0.0
O15 O 0.07515 0.76557 0.39579 0.0
O16 O 0.05613 0.75419 0.36446 0.0
C17 C 0.03461 0.8033 0.40821 0.0
O18 O 0.00496 0.76338 0.37925 0.0
Co19 Co 0.00489 0.76777 0.43067 0.0
O20 O 0.9793 0.76952 0.40695 0.0
C21 C 0.03342 0.72212 0.42464 0.0
C22 C 0.0765 0.7581 0.37502 0.0
C23 C 0.98347 0.76607 0.38622 0.0
O24 O 0.03915 0.72926 0.40458 0.0
O25 O 0.02201 0.73611 0.4379 0.0
O26 O 0.04074 0.80179 0.38727 0.0
O27 O 0.03326 0.78221 0.41842 0.0
Co28 Co 0.54493 0.73506 0.65352 0.0
O29 O 0.51427 0.71945 0.65527 0.0
O30 O 0.54088 0.7227 0.68375 0.0
C31 C 0.53284 0.76936 0.63529 0.0
O32 O 0.57771 0.75094 0.65825 0.0
Co33 Co 0.56731 0.74626 0.60709 0.0
O34 O 0.59148 0.76517 0.6253 0.0
C35 C 0.566 0.69483 0.62496 0.0
C36 C 0.51985 0.71539 0.67641 0.0
C37 C 0.59296 0.76309 0.64672 0.0
O38 O 0.55883 0.70256 0.64404 0.0
O39 O 0.56868 0.70904 0.60784 0.0
O40 O 0.53099 0.76781 0.65705 0.0
O41 O 0.5395 0.74944 0.62521 0.0
Co42 Co 0.54267 0.26438 0.89171 0.0
O43 O 0.57745 0.26419 0.89608 0.0
O44 O 0.55848 0.25359 0.86447 0.0
C45 C 0.5375 0.30277 0.90808 0.0
O46 O 0.50743 0.26323 0.8791 0.0
Co47 Co 0.50713 0.26792 0.93052 0.0
O48 O 0.48168 0.26957 0.90669 0.0
C49 C 0.53471 0.22157 0.92438 0.0
C50 C 0.57882 0.25696 0.87524 0.0
C51 C 0.48593 0.26599 0.886 0.0
O52 O 0.54087 0.22868 0.90444 0.0
O53 O 0.52344 0.23578 0.93757 0.0
O54 O 0.54372 0.3011 0.88718 0.0
O55 O 0.53578 0.28175 0.91835 0.0
Co56 Co 0.15852 0.99794 0.26164 0.0
O57 O 0.15838 0.96224 0.26531 0.0
O58 O 0.18799 0.98433 0.25147 0.0
C59 C 0.14486 0.00699 0.29594 0.0
O60 O 0.166 0.03482 0.25642 0.0
Co61 Co 0.1122 0.02915 0.26294 0.0
O62 O 0.13446 0.05793 0.26513 0.0
C63 C 0.12064 0.9964 0.22403 0.0
C64 C 0.17952 0.96267 0.25715 0.0
C65 C 0.15624 0.05601 0.26016 0.0
O66 O 0.14262 0.99375 0.23061 0.0
O67 O 0.10549 0.00802 0.23563 0.0
O68 O 0.16735 0.00243 0.29374 0.0
O69 O 0.13148 0.00399 0.278 0.0
Co70 Co 0.27848 0.9071 0.5432 0.0
O71 O 0.24472 0.90138 0.54535 0.0
O72 O 0.26287 0.9372 0.55318 0.0
C73 C 0.28126 0.88924 0.50903 0.0
O74 O 0.31293 0.92039 0.54149 0.0
Co75 Co 0.31376 0.86293 0.53916 0.0
O76 O 0.33456 0.88942 0.52733 0.0
C77 C 0.29347 0.87441 0.58328 0.0
C78 C 0.24303 0.92451 0.55133 0.0
C79 C 0.33187 0.91232 0.53222 0.0
O80 O 0.28368 0.89448 0.57538 0.0
O81 O 0.30499 0.85914 0.57132 0.0
O82 O 0.27444 0.91226 0.51051 0.0
O83 O 0.2844 0.87759 0.52792 0.0
Co84 Co 0.40592 0.01881 0.75057 0.0
O85 O 0.4083 0.05473 0.74951 0.0
O86 O 0.37627 0.0327 0.73911 0.0
C87 C 0.42225 0.01407 0.78559 0.0
O88 O 0.39561 0.98217 0.75069 0.0
Co89 Co 0.45009 0.98441 0.7558 0.0
O90 O 0.42634 0.95822 0.76242 0.0
C91 C 0.43896 0.00904 0.71205 0.0
C92 C 0.38625 0.05445 0.74206 0.0
C93 C 0.40429 0.96117 0.75749 0.0
O94 O 0.41887 0.01684 0.71907 0.0
O95 O 0.45418 0.99725 0.72452 0.0
O96 O 0.39994 0.02 0.78288 0.0
O97 O 0.43419 0.01333 0.76743 0.0
Co98 Co 0.30307 0.12689 0.01695 0.0
O99 O 0.33684 0.1282 0.01361 0.0
O100 O 0.31702 0.09782 0.03057 0.0
C101 C 0.2925 0.13751 0.98161 0.0
O102 O 0.2687 0.11841 0.02281 0.0
Co103 Co 0.27007 0.17261 0.01094 0.0
O104 O 0.24617 0.14593 0.00353 0.0
C105 C 0.30213 0.16821 0.0514 0.0
C106 C 0.3372 0.107 0.02431 0.0
C107 C 0.24932 0.12436 0.01209 0.0
O108 O 0.30713 0.14572 0.046 0.0
O109 O 0.28872 0.1824 0.03914 0.0
O110 O 0.29825 0.11457 0.98624 0.0
O111 O 0.29538 0.15338 -0.00211 0.0
Co112 Co 0.77779 0.40689 0.04252 0.0
O113 O 0.744 0.40101 0.0445 0.0
O114 O 0.76259 0.43555 0.05567 0.0
C115 C 0.77948 0.39319 0.00667 0.0
O116 O 0.81207 0.42051 0.04186 0.0
Co117 Co 0.81361 0.36472 0.03235 0.0
O118 O 0.83348 0.39314 0.02249 0.0
C119 C 0.79172 0.36782 0.07727 0.0
C120 C 0.7426 0.42339 0.05256 0.0
C121 C 0.83052 0.4148 0.03063 0.0
O122 O 0.78361 0.38991 0.07298 0.0
O123 O 0.80239 0.35475 0.06272 0.0
O124 O 0.77314 0.41601 0.01047 0.0
O125 O 0.78338 0.37958 0.02428 0.0
Co126 Co 0.91014 0.52636 0.25511 0.0
O127 O 0.91058 0.56232 0.25526 0.0
O128 O 0.88052 0.53891 0.24215 0.0
C129 C 0.9243 0.52093 0.29079 0.0
O130 O 0.90211 0.48919 0.25351 0.0
Co131 Co 0.95627 0.49508 0.26199 0.0
O132 O 0.93385 0.46668 0.26532 0.0
C133 C 0.94768 0.52407 0.22014 0.0
C134 C 0.88914 0.56107 0.24631 0.0
C135 C 0.91184 0.46846 0.25963 0.0
O136 O 0.92553 0.52656 0.22464 0.0
O137 O 0.96299 0.51432 0.23397 0.0
O138 O 0.90184 0.5256 0.28696 0.0
O139 O 0.93745 0.52197 0.27345 0.0
Co140 Co 0.80917 0.63887 0.5125 0.0
O141 O 0.84038 0.63184 0.50229 0.0
O142 O 0.82119 0.61006 0.52806 0.0
C143 C 0.79212 0.64547 0.47841 0.0
O144 O 0.77708 0.63962 0.52653 0.0
Co145 Co 0.78195 0.68831 0.50604 0.0
O146 O 0.75389 0.66507 0.50623 0.0
C147 C 0.82192 0.68482 0.53988 0.0
C148 C 0.84 0.61308 0.51623 0.0
C149 C 0.75695 0.64464 0.51687 0.0
O150 O 0.82298 0.66116 0.5368 0.0
O151 O 0.80783 0.69909 0.5284 0.0
O152 O 0.79511 0.6228 0.48575 0.0
O153 O 0.8009 0.66312 0.49115 0.0
Co154 Co 0.65612 0.49364 0.75748 0.0
O155 O 0.65607 0.45801 0.76215 0.0
O156 O 0.68487 0.47953 0.74631 0.0
C157 C 0.64458 0.50437 0.79219 0.0
O158 O 0.6636 0.5302 0.75078 0.0
Co159 Co 0.61008 0.5251 0.75956 0.0
O160 O 0.63226 0.55396 0.75874 0.0
C161 C 0.61673 0.49145 0.72102 0.0
C162 C 0.67678 0.45811 0.75305 0.0
C163 C 0.65387 0.55163 0.75333 0.0
O164 O 0.63881 0.48865 0.72716 0.0
O165 O 0.60203 0.50347 0.73282 0.0
O166 O 0.66672 0.49901 0.789 0.0
O167 O 0.63005 0.50082 0.7751 0.0
Co168 Co 0.99152 0.822 0.87539 0.0
O169 O 0.0223 0.83722 0.87315 0.0
O170 O 0.00634 0.80988 0.84878 0.0
C171 C 0.97204 0.85683 0.88375 0.0
O172 O 0.96046 0.80278 0.87234 0.0
Co173 Co 0.9658 0.82312 0.92135 0.0
O174 O 0.93919 0.80713 0.90361 0.0
C175 C 0.00669 0.7902 0.91538 0.0
C176 C 0.02426 0.82418 0.85489 0.0
C177 C 0.94181 0.79867 0.88376 0.0
O178 O 0.0057 0.79407 0.89394 0.0
O179 O 0.99445 0.80243 0.92935 0.0
O180 O 0.97631 0.85217 0.86276 0.0
O181 O 0.98154 0.84193 0.89845 0.0
Co182 Co 0.02255 0.26432 0.65738 0.0
O183 O 0.98786 0.26448 0.65521 0.0
O184 O 0.00838 0.25428 0.686 0.0
C185 C 0.02633 0.30256 0.64038 0.0
O186 O 0.0587 0.26317 0.6667 0.0
Co187 Co 0.05276 0.26725 0.61465 0.0
O188 O 0.08028 0.27111 0.63622 0.0
C189 C 0.02749 0.22031 0.62539 0.0
C190 C 0.98754 0.25806 0.67628 0.0
C191 C 0.07897 0.26695 0.65733 0.0
O192 O 0.02304 0.22835 0.64543 0.0
O193 O 0.03676 0.23405 0.6103 0.0
O194 O 0.02274 0.30092 0.66188 0.0
O195 O 0.02652 0.28153 0.62999 0.0
Co196 Co 0.50059 0.32498 0.37742 0.0
O197 O 0.53302 0.33575 0.37687 0.0
O198 O 0.51702 0.30586 0.35521 0.0
C199 C 0.48487 0.36324 0.37748 0.0
O200 O 0.4676 0.30951 0.3738 0.0
Co201 Co 0.47144 0.33969 0.41949 0.0
O202 O 0.44558 0.32114 0.40306 0.0
C203 C 0.50617 0.29905 0.42301 0.0
C204 C 0.53566 0.3192 0.36127 0.0
C205 C 0.44825 0.30908 0.3848 0.0
O206 O 0.509 0.29977 0.40155 0.0
O207 O 0.49418 0.31522 0.43355 0.0
O208 O 0.49078 0.35358 0.35842 0.0
O209 O 0.49087 0.35075 0.39531 0.0
Co210 Co 0.52021 0.76471 0.15629 0.0
O211 O 0.48547 0.76471 0.15398 0.0
O212 O 0.50592 0.75414 0.18469 0.0
C213 C 0.52419 0.80325 0.13988 0.0
O214 O 0.55634 0.76371 0.16583 0.0
Co215 Co 0.55082 0.76853 0.11366 0.0
O216 O 0.57805 0.77236 0.13556 0.0
C217 C 0.52563 0.72131 0.12362 0.0
C218 C 0.4851 0.75808 0.17501 0.0
C219 C 0.57664 0.76786 0.15661 0.0
O220 O 0.52104 0.72894 0.14378 0.0
O221 O 0.53489 0.73539 0.10878 0.0
O222 O 0.52001 0.80123 0.16124 0.0
O223 O 0.52457 0.78238 0.12923 0.0
Co224 Co 0.90595 0.00609 0.81441 0.0
O225 O 0.90895 0.04193 0.81248 0.0
O226 O 0.87596 0.02046 0.80438 0.0
C227 C 0.92489 0.00369 0.84877 0.0
O228 O 0.89489 0.9698 0.81505 0.0
Co229 Co 0.9487 0.97041 0.81884 0.0
O230 O 0.92488 0.94331 0.82223 0.0
C231 C 0.93667 0.99478 0.77504 0.0
C232 C 0.88647 0.04206 0.80653 0.0
C233 C 0.90283 0.94764 0.81852 0.0
O234 O 0.91659 0.00227 0.7823 0.0
O235 O 0.95259 0.98423 0.7877 0.0
O236 O 0.9023 0.00874 0.8471 0.0
O237 O 0.93531 0.00097 0.82992 0.0
Co238 Co 0.78903 0.12387 0.49156 0.0
O239 O 0.8231 0.12538 0.4955 0.0
O240 O 0.80154 0.09127 0.50017 0.0
C241 C 0.78845 0.14524 0.4584 0.0
O242 O 0.75333 0.11535 0.48888 0.0
Co243 Co 0.75959 0.17318 0.48822 0.0
O244 O 0.73255 0.15031 0.48151 0.0
C245 C 0.77397 0.1516 0.53304 0.0
C246 C 0.82254 0.10176 0.50004 0.0
C247 C 0.7335 0.12689 0.48506 0.0
O248 O 0.78481 0.13319 0.52416 0.0
O249 O 0.76419 0.16934 0.52169 0.0
O250 O 0.79214 0.12137 0.45867 0.0
O251 O 0.78652 0.15536 0.4779 0.0
Co252 Co 0.66978 0.01416 0.31265 0.0
O253 O 0.66532 0.97852 0.30947 0.0
O254 O 0.69949 0.99865 0.30572 0.0
C255 C 0.6489 0.01695 0.34449 0.0
O256 O 0.68231 0.04989 0.3147 0.0
Co257 Co 0.62866 0.05271 0.31388 0.0
O258 O 0.65381 0.07786 0.32077 0.0
C259 C 0.64483 0.03276 0.27003 0.0
C260 C 0.68796 0.97756 0.30579 0.0
C261 C 0.6755 0.07241 0.31794 0.0
O262 O 0.66144 0.01966 0.27966 0.0
O263 O 0.62977 0.0455 0.28081 0.0
O264 O 0.67115 0.01036 0.34568 0.0
O265 O 0.64003 0.02081 0.32448 0.0
Co266 Co 0.76539 0.89056 0.00695 0.0
O267 O 0.74006 0.8865 0.02752 0.0
O268 O 0.75818 0.92223 0.01969 0.0
C269 C 0.74693 0.86751 0.98015 0.0
O270 O 0.79072 0.90321 0.98658 0.0
Co271 Co 0.7948 0.84881 0.98703 0.0
O272 O 0.80936 0.87414 0.96721 0.0
C273 C 0.80409 0.86522 0.03441 0.0
C274 C 0.74113 0.91061 0.02968 0.0
C275 C 0.80566 0.89689 0.97187 0.0
O276 O 0.78985 0.88365 0.03149 0.0
O277 O 0.80696 0.84838 0.01944 0.0
O278 O 0.74207 0.89103 0.982 0.0
O279 O 0.76268 0.85854 0.99433 0.0
Co280 Co 0.28854 0.62113 0.99022 0.0
O281 O 0.32273 0.62315 0.98987 0.0
O282 O 0.30246 0.58914 -0.00161 0.0
C283 C 0.2826 0.6412 0.95686 0.0
O284 O 0.25324 0.61195 0.992 0.0
Co285 Co 0.25788 0.66947 0.99001 0.0
O286 O 0.23069 0.64596 0.98576 0.0
C287 C 0.28425 0.65321 0.0316 0.0
C288 C 0.32304 0.59978 0.99548 0.0
C289 C 0.23284 0.62262 0.98933 0.0
O290 O 0.28908 0.63201 0.02278 0.0
O291 O 0.27439 0.67116 0.02057 0.0
O292 O 0.28703 0.61745 0.95718 0.0
O293 O 0.28329 0.65195 0.97626 0.0
Co294 Co 0.16692 0.50688 0.81336 0.0
O295 O 0.16539 0.47093 0.81399 0.0
O296 O 0.19732 0.49318 0.80589 0.0
C297 C 0.14798 0.51201 0.84606 0.0
O298 O 0.17601 0.54365 0.81113 0.0
Co299 Co 0.12185 0.54044 0.81249 0.0
O300 O 0.14461 0.56887 0.81439 0.0
C301 C 0.13498 0.51203 0.77202 0.0
C302 C 0.1876 0.47136 0.80862 0.0
C303 C 0.16677 0.5655 0.81183 0.0
O304 O 0.15578 0.50718 0.78068 0.0
O305 O 0.11844 0.52229 0.78297 0.0
O306 O 0.17072 0.50746 0.84655 0.0
O307 O 0.13767 0.51224 0.82634 0.0
Co308 Co 0.25454 0.38869 0.516 0.0
O309 O 0.23092 0.38382 0.53821 0.0
O310 O 0.25108 0.41888 0.53263 0.0
C311 C 0.23269 0.37114 0.48784 0.0
O312 O 0.27885 0.40191 0.49487 0.0
Co313 Co 0.27883 0.34689 0.49011 0.0
O314 O 0.29406 0.37352 0.47209 0.0
C315 C 0.29429 0.35828 0.53731 0.0
C316 C 0.23403 0.40738 0.54274 0.0
C317 C 0.29229 0.39594 0.47878 0.0
O318 O 0.28048 0.37722 0.53739 0.0
O319 O 0.29478 0.34275 0.52093 0.0
O320 O 0.22942 0.39425 0.49333 0.0
O321 O 0.24833 0.35899 0.49999 0.0
Co322 Co 0.41001 0.51116 0.31038 0.0
O323 O 0.41226 0.54675 0.30569 0.0
O324 O 0.37969 0.52394 0.2995 0.0
C325 C 0.42907 0.51228 0.34474 0.0
O326 O 0.39943 0.47498 0.31383 0.0
Co327 Co 0.45268 0.47602 0.31778 0.0
O328 O 0.4292 0.44943 0.32414 0.0
C329 C 0.43806 0.49207 0.27125 0.0
C330 C 0.3897 0.54587 0.30004 0.0
C331 C 0.40725 0.45331 0.3195 0.0
O332 O 0.42023 0.50428 0.27857 0.0
O333 O 0.45332 0.481 0.28426 0.0
O334 O 0.40641 0.5168 0.34267 0.0
O335 O 0.43963 0.50786 0.32619 0.0
C336 C 0.01888 0.0046 0.99688 0.0
N337 N 0.98386 0.9853 0.05463 0.0
C338 C 0.9714 0.00519 0.04642 0.0
C339 C 0.94832 0.00164 0.0375 0.0
C340 C 0.93787 0.97777 0.03842 0.0
C341 C 0.94918 0.95963 0.0522 0.0
C342 C 0.97264 0.96365 0.05987 0.0
Zn343 Zn 0.01758 0.98243 0.04354 0.0
C344 C 0.01981 0.93919 0.012 0.0
N345 N 0.08555 0.97613 0.01512 0.0
C346 C 0.08852 0.97651 0.99241 0.0
C347 C 0.10428 0.9796 0.03001 0.0
C348 C 0.12657 0.98602 0.02229 0.0
C349 C 0.12939 0.98958 -0.0009 0.0
C350 C 0.11044 0.9836 0.98395 0.0
Zn351 Zn 0.05231 0.97793 0.0276 0.0
O352 O 0.00605 0.00179 0.01382 0.0
C353 C 0.04879 0.02311 0.0573 0.0
O354 O 0.0404 0.99771 -0.00166 0.0
H355 H 0.10156 0.97973 0.04796 0.0
H356 H 0.98061 0.02249 0.04293 0.0
H357 H 0.07345 0.97345 0.98084 0.0
O358 O 0.02768 0.01526 0.0597 0.0
O359 O 0.06248 0.01141 0.04449 0.0
H360 H 0.98281 0.94815 0.06668 0.0
O361 O 0.06369 0.95783 0.05685 0.0
O362 O 0.0294 0.96279 0.07277 0.0
O363 O 0.04154 0.94552 0.01047 0.0
O364 O 0.00728 0.94973 0.02651 0.0
C365 C 0.05078 0.95513 0.07387 0.0
H366 H 0.9403 0.01653 0.02759 0.0
H367 H 0.94123 0.94142 0.05465 0.0
H368 H 0.14069 0.99089 0.0345 0.0
H369 H 0.11206 0.98626 0.96593 0.0
C370 C 0.32651 0.75946 0.25648 0.0
N371 N 0.26137 0.73189 0.23013 0.0
C372 C 0.26751 0.7455 0.21182 0.0
C373 C 0.26865 0.73427 0.19078 0.0
C374 C 0.26367 0.70871 0.18855 0.0
C375 C 0.255 0.69564 0.20712 0.0
C376 C 0.254 0.70772 0.22799 0.0
Zn377 Zn 0.27284 0.74596 0.26064 0.0
C378 C 0.2966 0.70568 0.28846 0.0
N379 N 0.30284 0.77452 0.32224 0.0
C380 C 0.31145 0.7983 0.32325 0.0
C381 C 0.29834 0.76149 0.34133 0.0
C382 C 0.30084 0.77293 0.36238 0.0
C383 C 0.30739 0.79826 0.36381 0.0
C384 C 0.31371 0.81066 0.34395 0.0
Zn385 Zn 0.29054 0.76023 0.29213 0.0
O386 O 0.30772 0.75141 0.2461 0.0
C387 C 0.26706 0.80049 0.26387 0.0
O388 O 0.325 0.76592 0.27708 0.0
H389 H 0.29135 0.74268 0.34017 0.0
H390 H 0.27375 0.76451 0.21383 0.0
H391 H 0.31503 0.8083 0.30786 0.0
O392 O 0.26188 0.78226 0.25091 0.0
O393 O 0.27925 0.79657 0.28199 0.0
H394 H 0.24933 0.69717 0.24278 0.0
O395 O 0.25565 0.75427 0.30699 0.0
O396 O 0.23827 0.74074 0.27557 0.0
O397 O 0.30189 0.72375 0.30163 0.0
O398 O 0.28389 0.70979 0.27071 0.0
C399 C 0.23679 0.74665 0.29635 0.0
H400 H 0.27494 0.74509 0.1767 0.0
H401 H 0.25089 0.67591 0.20599 0.0
H402 H 0.29649 0.76233 0.37727 0.0
H403 H 0.3188 0.83017 0.34411 0.0
C404 C 0.51811 0.03844 0.56554 0.0
N405 N 0.54992 0.9779 0.53586 0.0
C406 C 0.56085 0.97452 0.55647 0.0
C407 C 0.56328 0.9506 0.56537 0.0
C408 C 0.55463 0.93011 0.55272 0.0
C409 C 0.54566 0.93407 0.53058 0.0
C410 C 0.54316 0.95829 0.52254 0.0
Zn411 Zn 0.53879 0.01213 0.52666 0.0
C412 C 0.48494 0.00933 0.51509 0.0
N413 N 0.51133 0.08197 0.50735 0.0
C414 C 0.52047 0.10085 0.52039 0.0
C415 C 0.49949 0.08646 0.48733 0.0
C416 C 0.49782 0.1108 0.47906 0.0
C417 C 0.50879 0.13025 0.49147 0.0
C418 C 0.51955 0.12528 0.51263 0.0
Zn419 Zn 0.52173 0.04727 0.51623 0.0
O420 O 0.53024 0.01957 0.5604 0.0
C421 C 0.57571 0.04964 0.52656 0.0
O422 O 0.51242 0.05417 0.55027 0.0
H423 H 0.49263 0.07107 0.47719 0.0
H424 H 0.56621 0.99046 0.56666 0.0
H425 H 0.52991 0.0968 0.53619 0.0
O426 O 0.5738 0.02675 0.5317 0.0
O427 O 0.55697 0.06177 0.52134 0.0
H428 H 0.53443 0.96145 0.50623 0.0
O429 O 0.53104 0.04012 0.48226 0.0
O430 O 0.54745 0.00501 0.49315 0.0
O431 O 0.48688 0.03243 0.51062 0.0
O432 O 0.5035 0.99726 0.52122 0.0
C433 C 0.54287 0.02079 0.47767 0.0
H434 H 0.57022 0.94846 0.58255 0.0
H435 H 0.53934 0.91872 0.52005 0.0
H436 H 0.4894 0.11421 0.46261 0.0
H437 H 0.528 0.14001 0.52262 0.0
C438 C 0.29969 0.21642 0.75172 0.0
N439 N 0.26021 0.23727 0.80633 0.0
C440 C 0.2475 0.21612 0.80135 0.0
C441 C 0.23775 0.20205 0.81851 0.0
C442 C 0.24088 0.21006 0.84088 0.0
C443 C 0.25278 0.23275 0.84544 0.0
C444 C 0.2625 0.2461 0.82777 0.0
Zn445 Zn 0.2768 0.25434 0.78086 0.0
C446 C 0.32887 0.26582 0.79217 0.0
N447 N 0.3105 0.28758 0.72567 0.0
C448 C 0.30839 0.2761 0.70525 0.0
C449 C 0.32307 0.30923 0.7285 0.0
C450 C 0.3335 0.32064 0.71007 0.0
C451 C 0.33136 0.30921 0.68882 0.0
C452 C 0.31894 0.28653 0.68656 0.0
Zn453 Zn 0.29428 0.27145 0.75197 0.0
O454 O 0.28766 0.21877 0.76929 0.0
C455 C 0.24203 0.26029 0.74103 0.0
O456 O 0.30478 0.23576 0.74047 0.0
H457 H 0.32463 0.31789 0.74497 0.0
H458 H 0.2457 0.20961 0.78411 0.0
H459 H 0.29808 0.25908 0.70334 0.0
O460 O 0.24397 0.2519 0.76107 0.0
O461 O 0.26058 0.26937 0.7322 0.0
H462 H 0.27267 0.26297 0.83125 0.0
O463 O 0.28382 0.30703 0.76378 0.0
O464 O 0.26612 0.28984 0.79234 0.0
O465 O 0.32744 0.27349 0.77181 0.0
O466 O 0.31009 0.25717 0.80093 0.0
C467 C 0.27156 0.30926 0.78126 0.0
H468 H 0.22876 0.18458 0.81447 0.0
H469 H 0.25592 0.23924 0.86261 0.0
H470 H 0.34273 0.33833 0.71224 0.0
H471 H 0.31642 0.27756 0.67026 0.0
C472 C 0.07612 0.99203 0.54063 0.0
N473 N 0.0468 0.03081 0.48484 0.0
C474 C 0.06936 0.04015 0.48392 0.0
C475 C 0.07981 0.04367 0.46309 0.0
C476 C 0.06675 0.0379 0.44305 0.0
C477 C 0.04268 0.0309 0.44458 0.0
C478 C 0.03316 0.02707 0.46569 0.0
Zn479 Zn 0.03515 0.01549 0.51416 0.0
C480 C 0.02414 0.95998 0.5052 0.0
N481 N 0.01172 0.98011 0.57426 0.0
C482 C 0.02574 0.98531 0.59291 0.0
C483 C 0.98881 0.97207 0.57626 0.0
C484 C 0.97858 0.97138 0.59749 0.0
C485 C 0.99213 0.97896 0.61672 0.0
C486 C 0.01635 0.98462 0.61433 0.0
Zn487 Zn 0.02337 0.99448 0.54431 0.0
O488 O 0.07088 0.00524 0.52336 0.0
C489 C 0.03401 0.05034 0.55247 0.0
O490 O 0.05949 0.98471 0.55309 0.0
H491 H 0.97783 0.96816 0.56129 0.0
H492 H 0.0799 0.04317 0.49933 0.0
H493 H 0.0437 0.9922 0.59116 0.0
O494 O 0.03948 0.05006 0.5318 0.0
O495 O 0.0274 0.03003 0.56158 0.0
H496 H 0.01536 0.01944 0.46667 0.0
O497 O 0.9876 0.00449 0.53497 0.0
O498 O 0.99931 0.02563 0.50567 0.0
O499 O 0.01943 0.95931 0.52614 0.0
O500 O 0.03044 0.98068 0.49662 0.0
C501 C 0.98257 0.01823 0.51799 0.0
H502 H 0.09839 0.04912 0.46284 0.0
H503 H 0.03164 0.027 0.42962 0.0
H504 H 0.95985 0.96679 0.59855 0.0
H505 H 0.02765 0.98996 0.62876 0.0
C506 C 0.27558 0.7806 0.72844 0.0
N507 N 0.32774 0.73829 0.76341 0.0
C508 C 0.3307 0.72491 0.74427 0.0
C509 C 0.35285 0.71477 0.7399 0.0
C510 C 0.37208 0.71838 0.75546 0.0
C511 C 0.36824 0.73155 0.77543 0.0
C512 C 0.34587 0.74149 0.77903 0.0
Zn513 Zn 0.29597 0.7545 0.76898 0.0
C514 C 0.30304 0.80835 0.78201 0.0
N515 N 0.23055 0.78929 0.78191 0.0
C516 C 0.21239 0.78411 0.76678 0.0
C517 C 0.22704 0.80296 0.80079 0.0
C518 C 0.20424 0.81117 0.80548 0.0
C519 C 0.18502 0.80502 0.79063 0.0
C520 C 0.18937 0.7918 0.77085 0.0
Zn521 Zn 0.26249 0.77368 0.77639 0.0
O522 O 0.29287 0.76669 0.73464 0.0
C523 C 0.25563 0.71952 0.76418 0.0
O524 O 0.25972 0.78554 0.74241 0.0
H525 H 0.24179 0.80675 0.81258 0.0
H526 H 0.31599 0.72257 0.73213 0.0
H527 H 0.21561 0.77325 0.75185 0.0
O528 O 0.27798 0.72043 0.76169 0.0
O529 O 0.24476 0.73936 0.76902 0.0
H530 H 0.3431 0.75216 0.79417 0.0
O531 O 0.26552 0.76163 0.81072 0.0
O532 O 0.29859 0.7427 0.80284 0.0
O533 O 0.28056 0.8078 0.78375 0.0
O534 O 0.31384 0.78853 0.7769 0.0
C535 C 0.28277 0.74767 0.81685 0.0
H536 H 0.35508 0.70509 0.72411 0.0
H537 H 0.38248 0.73454 0.78798 0.0
H538 H 0.20148 0.82117 0.82102 0.0
H539 H 0.175 0.78693 0.75892 0.0
C540 C 0.53253 0.96464 0.04949 0.0
N541 N 0.55825 0.03459 0.0707 0.0
C542 C 0.54719 0.02813 0.0899 0.0
C543 C 0.55904 0.0308 0.11082 0.0
C544 C 0.58247 0.04014 0.1119 0.0
C545 C 0.59257 0.04889 0.09205 0.0
C546 C 0.58003 0.04592 0.07145 0.0
Zn547 Zn 0.54556 0.01949 0.04122 0.0
C548 C 0.58562 0.99415 0.01931 0.0
N549 N 0.52231 0.98351 0.98025 0.0
C550 C 0.49923 0.97581 0.9776 0.0
C551 C 0.53631 0.98623 0.96216 0.0
C552 C 0.52671 0.98319 0.94031 0.0
C553 C 0.50226 0.97802 0.93694 0.0
C554 C 0.48873 0.97311 0.95597 0.0
Zn555 Zn 0.53447 0.99858 0.01027 0.0
O556 O 0.53991 0.98479 0.05875 0.0
C557 C 0.49472 0.02417 0.03363 0.0
O558 O 0.52788 0.96456 0.02827 0.0
H559 H 0.55454 0.9926 0.96452 0.0
H560 H 0.5299 0.01911 0.0889 0.0
H561 H 0.48839 0.9736 0.99219 0.0
O562 O 0.51123 0.03066 0.04761 0.0
O563 O 0.4996 0.01101 0.01662 0.0
H564 H 0.58852 0.05079 0.05593 0.0
O565 O 0.5411 0.03312 0.99237 0.0
O566 O 0.55124 0.05353 0.0233 0.0
O567 O 0.5698 0.98621 0.00514 0.0
O568 O 0.57973 0.00847 0.03503 0.0
C569 C 0.5477 0.0534 0.00194 0.0
H570 H 0.55043 0.0244 0.12586 0.0
H571 H 0.61059 0.05625 0.09221 0.0
H572 H 0.53806 0.98637 0.92619 0.0
H573 H 0.46984 0.96907 0.95431 0.0
C574 C 0.25323 0.21521 0.27209 0.0
N575 N 0.31373 0.24465 0.2409 0.0
C576 C 0.31724 0.22009 0.23666 0.0
C577 C 0.32953 0.21287 0.21778 0.0
C578 C 0.33912 0.23111 0.20349 0.0
C579 C 0.33799 0.25619 0.21023 0.0
C580 C 0.32456 0.26262 0.22859 0.0
Zn581 Zn 0.28956 0.25469 0.26412 0.0
C582 C 0.24791 0.27967 0.24294 0.0
N583 N 0.23986 0.2769 0.31217 0.0
C584 C 0.23657 0.26314 0.3311 0.0
C585 C 0.22767 0.29837 0.3082 0.0
C586 C 0.21224 0.30736 0.32404 0.0
C587 C 0.21004 0.29472 0.34464 0.0
C588 C 0.22185 0.27185 0.34774 0.0
Zn589 Zn 0.26416 0.26627 0.28969 0.0
O590 O 0.27055 0.22027 0.25962 0.0
C591 C 0.30637 0.24193 0.31062 0.0
O592 O 0.24712 0.23112 0.28659 0.0
H593 H 0.23053 0.30914 0.2931 0.0
H594 H 0.30926 0.20595 0.24703 0.0
H595 H 0.24619 0.24595 0.33377 0.0
O596 O 0.31105 0.23902 0.28998 0.0
O597 O 0.28722 0.25271 0.31564 0.0
H598 H 0.32184 0.2821 0.23211 0.0
O599 O 0.28124 0.30147 0.29325 0.0
O600 O 0.30795 0.28922 0.26981 0.0
O601 O 0.24208 0.27978 0.26339 0.0
O602 O 0.2678 0.27058 0.23788 0.0
C603 C 0.30041 0.30564 0.28316 0.0
H604 H 0.32973 0.19323 0.21371 0.0
H605 H 0.34599 0.27101 0.20061 0.0
H606 H 0.20314 0.32476 0.32065 0.0
H607 H 0.22105 0.26152 0.36341 0.0
C608 C 0.57761 0.49458 0.0385 0.0
N609 N 0.54898 0.53146 0.98119 0.0
C610 C 0.56964 0.54484 0.98067 0.0
C611 C 0.58027 0.54962 0.96007 0.0
C612 C 0.56971 0.54021 0.93985 0.0
C613 C 0.54766 0.52773 0.94097 0.0
C614 C 0.53753 0.52373 0.96179 0.0
Zn615 Zn 0.53709 0.5169 0.01077 0.0
C616 C 0.52687 0.46089 0.0029 0.0
N617 N 0.51275 0.48244 0.07077 0.0
C618 C 0.5252 0.48988 0.08976 0.0
C619 C 0.49087 0.4715 0.07202 0.0
C620 C 0.48 0.46939 0.09287 0.0
C621 C 0.49175 0.4789 0.1124 0.0
C622 C 0.51498 0.48831 0.11079 0.0
Zn623 Zn 0.52472 0.49634 0.04091 0.0
O624 O 0.57293 0.50764 0.02096 0.0
C625 C 0.53444 0.55259 0.0483 0.0
O626 O 0.56058 0.4873 0.05051 0.0
H627 H 0.48112 0.46601 0.05671 0.0
H628 H 0.57851 0.55073 0.9963 0.0
H629 H 0.54239 0.49885 0.08847 0.0
O630 O 0.54032 0.55221 0.02774 0.0
O631 O 0.52799 0.53226 0.05744 0.0
H632 H 0.52122 0.51297 0.96254 0.0
O633 O 0.48914 0.50559 0.03085 0.0
O634 O 0.50115 0.52601 0.00122 0.0
O635 O 0.52145 0.46069 0.02364 0.0
O636 O 0.53343 0.48139 0.99415 0.0
C637 C 0.48427 0.51875 0.01345 0.0
H638 H 0.59698 0.5598 0.96012 0.0
H639 H 0.53886 0.51968 0.92611 0.0
H640 H 0.46205 0.46197 0.09346 0.0
H641 H 0.52477 0.49545 0.12553 0.0
C642 C 0.78633 0.28151 0.22896 0.0
N643 N 0.84051 0.24042 0.26285 0.0
C644 C 0.84244 0.22672 0.24372 0.0
C645 C 0.86424 0.21631 0.2385 0.0
C646 C 0.88422 0.21994 0.25316 0.0
C647 C 0.88149 0.23363 0.27308 0.0
C648 C 0.85942 0.24383 0.27756 0.0
Zn649 Zn 0.80892 0.25653 0.26971 0.0
C650 C 0.81585 0.31085 0.28113 0.0
N651 N 0.7436 0.29085 0.28424 0.0
C652 C 0.72435 0.28449 0.2708 0.0
C653 C 0.74126 0.30426 0.30346 0.0
C654 C 0.71867 0.31056 0.3105 0.0
C655 C 0.69837 0.30274 0.29773 0.0
C656 C 0.70146 0.29021 0.27728 0.0
Zn657 Zn 0.77543 0.27577 0.27719 0.0
O658 O 0.80403 0.26817 0.23524 0.0
C659 C 0.76859 0.22129 0.26668 0.0
O660 O 0.77073 0.28673 0.24312 0.0
H661 H 0.75684 0.30908 0.31386 0.0
H662 H 0.82714 0.22422 0.23231 0.0
H663 H 0.72665 0.27375 0.25562 0.0
O664 O 0.79086 0.22207 0.26369 0.0
O665 O 0.75785 0.24129 0.27118 0.0
H666 H 0.85746 0.25475 0.29269 0.0
O667 O 0.78025 0.26448 0.31157 0.0
O668 O 0.81317 0.24527 0.30374 0.0
O669 O 0.79341 0.31013 0.28319 0.0
O670 O 0.8268 0.29097 0.27643 0.0
C671 C 0.79757 0.2507 0.31785 0.0
H672 H 0.86558 0.20624 0.22278 0.0
H673 H 0.89631 0.23666 0.28499 0.0
H674 H 0.71711 0.3207 0.32616 0.0
H675 H 0.68637 0.28361 0.26701 0.0
C676 C 0.03192 0.46433 0.54975 0.0
N677 N 0.05109 0.5354 0.57248 0.0
C678 C 0.03755 0.52897 0.59015 0.0
C679 C 0.0474 0.52926 0.61204 0.0
C680 C 0.07142 0.53606 0.61565 0.0
C681 C 0.08401 0.54568 0.59751 0.0
C682 C 0.07336 0.54525 0.57584 0.0
Zn683 Zn 0.04172 0.5198 0.54213 0.0
C684 C 0.08526 0.49665 0.52317 0.0
N685 N 0.02535 0.48198 0.48053 0.0
C686 C 0.00426 0.46929 0.47938 0.0
C687 C 0.0369 0.48827 0.46154 0.0
C688 C 0.02614 0.48383 0.44029 0.0
C689 C 0.00326 0.47309 0.43872 0.0
C690 C 0.99275 0.46476 0.45851 0.0
Zn691 Zn 0.03529 0.49843 0.51044 0.0
O692 O 0.03571 0.48507 0.55967 0.0
C693 C 0.99168 0.52108 0.53047 0.0
O694 O 0.03053 0.46396 0.52826 0.0
H695 H 0.05353 0.49856 0.46288 0.0
H696 H 0.01997 0.52103 0.58713 0.0
H697 H 0.99537 0.4645 0.49469 0.0
O698 O 0.00626 0.52944 0.5455 0.0
O699 O 0.99925 0.50789 0.51453 0.0
H700 H 0.0838 0.55027 0.56152 0.0
O701 O 0.04033 0.53341 0.49282 0.0
O702 O 0.04779 0.55405 0.52425 0.0
O703 O 0.07144 0.48896 0.50713 0.0
O704 O 0.07701 0.50979 0.53873 0.0
C705 C 0.04544 0.55391 0.50276 0.0
H706 H 0.03694 0.52229 0.62574 0.0
H707 H 0.10254 0.55122 0.59966 0.0
H708 H 0.03473 0.49068 0.4254 0.0
H709 H 0.97519 0.45624 0.45791 0.0
C710 C 0.79774 0.72017 0.2515 0.0
N711 N 0.75734 0.74007 0.30598 0.0
C712 C 0.7449 0.71884 0.30068 0.0
C713 C 0.73451 0.70482 0.31754 0.0
C714 C 0.73673 0.71295 0.33995 0.0
C715 C 0.74857 0.73561 0.34481 0.0
C716 C 0.75893 0.74892 0.32744 0.0
Zn717 Zn 0.77408 0.75769 0.28083 0.0
C718 C 0.82608 0.76929 0.29251 0.0
N719 N 0.80784 0.79194 0.22603 0.0
C720 C 0.80643 0.78104 0.20532 0.0
C721 C 0.81925 0.8142 0.22943 0.0
C722 C 0.82898 0.8269 0.21132 0.0
C723 C 0.82746 0.81612 0.18982 0.0
C724 C 0.81642 0.79276 0.18692 0.0
Zn725 Zn 0.79168 0.77486 0.25198 0.0
O726 O 0.78561 0.72241 0.26903 0.0
C727 C 0.73959 0.76329 0.24069 0.0
O728 O 0.80267 0.73953 0.24019 0.0
H729 H 0.82033 0.82241 0.2461 0.0
H730 H 0.74364 0.71231 0.28342 0.0
H731 H 0.79704 0.76352 0.20294 0.0
O732 O 0.74151 0.75495 0.26075 0.0
O733 O 0.75811 0.77256 0.23193 0.0
H734 H 0.76889 0.76585 0.33118 0.0
O735 O 0.78068 0.81004 0.26404 0.0
O736 O 0.76265 0.79303 0.29245 0.0
O737 O 0.82474 0.77695 0.27212 0.0
O738 O 0.80721 0.76074 0.30121 0.0
C739 C 0.76813 0.81238 0.28129 0.0
H740 H 0.7256 0.68737 0.31326 0.0
H741 H 0.75105 0.7422 0.36202 0.0
H742 H 0.83721 0.84505 0.21397 0.0
H743 H 0.81455 0.78423 0.17037 0.0
C744 C 0.82853 0.25821 0.75672 0.0
N745 N 0.76306 0.22811 0.7326 0.0
C746 C 0.76738 0.2407 0.71322 0.0
C747 C 0.76384 0.22911 0.69237 0.0
C748 C 0.75615 0.20419 0.69145 0.0
C749 C 0.75098 0.19182 0.71159 0.0
C750 C 0.7544 0.20432 0.73216 0.0
Zn751 Zn 0.7753 0.24402 0.76198 0.0
C752 C 0.7996 0.20562 0.79143 0.0
N753 N 0.80514 0.2768 0.82177 0.0
C754 C 0.81373 0.30061 0.82134 0.0
C755 C 0.79963 0.2656 0.84151 0.0
C756 C 0.80061 0.27911 0.86157 0.0
C757 C 0.8069 0.30452 0.86124 0.0
C758 C 0.8147 0.31495 0.84103 0.0
Zn759 Zn 0.79291 0.26032 0.79261 0.0
O760 O 0.8098 0.24963 0.74656 0.0
C761 C 0.76842 0.29851 0.76274 0.0
O762 O 0.82704 0.26524 0.77716 0.0
H763 H 0.79267 0.24674 0.84146 0.0
H764 H 0.77481 0.25935 0.71393 0.0
H765 H 0.81802 0.30915 0.80543 0.0
O766 O 0.76317 0.27944 0.75086 0.0
O767 O 0.78127 0.29589 0.78066 0.0
H768 H 0.7512 0.19462 0.74779 0.0
O769 O 0.75826 0.2554 0.80787 0.0
O770 O 0.74121 0.23848 0.77776 0.0
O771 O 0.80456 0.22427 0.80405 0.0
O772 O 0.78723 0.20891 0.77334 0.0
C773 C 0.73962 0.24624 0.79799 0.0
H774 H 0.76832 0.23914 0.6772 0.0
H775 H 0.7449 0.1726 0.71144 0.0
H776 H 0.79508 0.27014 0.87693 0.0
H777 H 0.81974 0.33444 0.84002 0.0
C778 C 0.75016 0.71085 0.76156 0.0
N779 N 0.8035 0.75021 0.72797 0.0
C780 C 0.81305 0.72783 0.72278 0.0
C781 C 0.82628 0.72537 0.70345 0.0
C782 C 0.82988 0.74622 0.68952 0.0
C783 C 0.82089 0.76935 0.69606 0.0
C784 C 0.80747 0.77086 0.71527 0.0
Zn785 Zn 0.78269 0.75358 0.75499 0.0
C786 C 0.73717 0.77874 0.74324 0.0
N787 N 0.74027 0.76327 0.81158 0.0
C788 C 0.73685 0.74368 0.82573 0.0
C789 C 0.73012 0.78576 0.8151 0.0
C790 C 0.71721 0.78973 0.83432 0.0
C791 C 0.71468 0.77032 0.85004 0.0
C792 C 0.72387 0.74676 0.8451 0.0
Zn793 Zn 0.7612 0.7595 0.78488 0.0
O794 O 0.76585 0.71811 0.74801 0.0
C795 C 0.8067 0.7348 0.79682 0.0
O796 O 0.7453 0.72468 0.77809 0.0
H797 H 0.73288 0.80097 0.80346 0.0
H798 H 0.80983 0.71173 0.73328 0.0
H799 H 0.74491 0.72588 0.82242 0.0
O800 O 0.80892 0.73634 0.7756 0.0
O801 O 0.7878 0.74264 0.80542 0.0
H802 H 0.79974 0.7885 0.71972 0.0
O803 O 0.77757 0.79471 0.79188 0.0
O804 O 0.79948 0.78854 0.76267 0.0
O805 O 0.7349 0.77622 0.76433 0.0
O806 O 0.75607 0.77126 0.73437 0.0
C807 C 0.79415 0.80195 0.77937 0.0
H808 H 0.83255 0.70708 0.69892 0.0
H809 H 0.82349 0.78597 0.68601 0.0
H810 H 0.71083 0.80833 0.83757 0.0
H811 H 0.72216 0.73126 0.8567 0.0
C812 C 0.51924 0.51699 0.49426 0.0
N813 N 0.48158 0.48615 0.54613 0.0
C814 C 0.46715 0.50519 0.53937 0.0
C815 C 0.444 0.50013 0.53132 0.0
C816 C 0.43545 0.47541 0.53131 0.0
C817 C 0.44932 0.45721 0.54268 0.0
C818 C 0.4727 0.4629 0.54962 0.0
Zn819 Zn 0.51635 0.48909 0.53823 0.0
C820 C 0.52544 0.45086 0.50227 0.0
N821 N 0.5868 0.49327 0.51554 0.0
C822 C 0.59288 0.49598 0.49364 0.0
C823 C 0.60288 0.49751 0.53285 0.0
C824 C 0.62544 0.50667 0.52862 0.0
C825 C 0.63161 0.51173 0.50632 0.0
C826 C 0.61539 0.50532 0.4886 0.0
Zn827 Zn 0.55235 0.48935 0.52436 0.0
O828 O 0.50553 0.51123 0.50998 0.0
C829 C 0.54202 0.52981 0.55845 0.0
O830 O 0.54115 0.51165 0.49645 0.0
H831 H 0.59766 0.49577 0.55016 0.0
H832 H 0.47452 0.52369 0.53713 0.0
H833 H 0.5798 0.4925 0.48013 0.0
O834 O 0.52129 0.5203 0.55868 0.0
O835 O 0.55725 0.52086 0.54548 0.0
H836 H 0.48447 0.44804 0.55507 0.0
O837 O 0.56317 0.4665 0.552 0.0
O838 O 0.52769 0.46678 0.56619 0.0
O839 O 0.5468 0.45885 0.50302 0.0
O840 O 0.51113 0.45827 0.51686 0.0
C841 C 0.54954 0.46073 0.56786 0.0
H842 H 0.4341 0.51503 0.52314 0.0
H843 H 0.44308 0.43817 0.54431 0.0
H844 H 0.63709 0.51174 0.54287 0.0
H845 H 0.61956 0.50874 0.47116 0.0
C846 C 0.01698 0.53833 0.06747 0.0
N847 N 0.04838 0.47579 0.04062 0.0
C848 C 0.05912 0.47328 0.06143 0.0
C849 C 0.06181 0.44971 0.07103 0.0
C850 C 0.05362 0.42866 0.0589 0.0
C851 C 0.04448 0.43176 0.0367 0.0
C852 C 0.04174 0.45564 0.02795 0.0
Zn853 Zn 0.03794 0.50965 0.0297 0.0
C854 C 0.98489 0.50769 0.0172 0.0
N855 N 0.01283 0.57959 0.00764 0.0
C856 C 0.01986 0.5995 0.02048 0.0
C857 C 0.00399 0.58247 0.98611 0.0
C858 C 0.00392 0.60597 0.97605 0.0
C859 C 0.01269 0.62654 0.98846 0.0
C860 C 0.01978 0.62335 0.01121 0.0
Zn861 Zn 0.02261 0.54538 0.01863 0.0
O862 O 0.0289 0.5191 0.06291 0.0
C863 C 0.07576 0.54685 0.03099 0.0
O864 O 0.01159 0.55366 0.05178 0.0
H865 H 0.99854 0.56632 0.97624 0.0
H866 H 0.06435 0.48962 0.07112 0.0
H867 H 0.0272 0.5967 0.03742 0.0
O868 O 0.07274 0.52378 0.03479 0.0
O869 O 0.05775 0.56011 0.02562 0.0
H870 H 0.03315 0.45812 0.01147 0.0
O871 O 0.03387 0.5369 0.98569 0.0
O872 O 0.04738 0.50054 0.99658 0.0
O873 O 0.9878 0.53034 0.01146 0.0
O874 O 1.00275 0.49533 0.02458 0.0
C875 C 0.04455 0.51685 0.98121 0.0
H876 H 0.06885 0.44819 0.08824 0.0
H877 H 0.0385 0.41596 0.02657 0.0
H878 H 0.99803 0.60791 0.95852 0.0
H879 H 0.02676 0.63883 0.02122 0.0
H880 H 0.06718 0.14944 0.14721 0.0
H881 H 0.09824 0.16925 0.08379 0.0
H882 H 0.06543 0.10591 0.1355 0.0
H883 H 0.09591 0.12602 0.07201 0.0
H884 H 0.09305 0.04467 0.05667 0.0
H885 H 0.10677 0.08211 0.07684 0.0
H886 H 0.03791 0.08842 0.10643 0.0
H887 H 0.02436 0.05103 0.08673 0.0
C888 C 0.0741 0.14449 0.13101 0.0
C889 C 0.08225 0.16287 0.11616 0.0
C890 C 0.07302 0.11958 0.1243 0.0
C891 C 0.08009 0.11272 0.10269 0.0
C892 C 0.09036 0.13073 0.08878 0.0
C893 C 0.09146 0.15559 0.09547 0.0
C894 C 0.08093 0.05399 0.06763 0.0
C895 C 0.05751 0.04518 0.06987 0.0
C896 C 0.08883 0.07532 0.07921 0.0
C897 C 0.07344 0.08809 0.09324 0.0
C898 C 0.05033 0.07872 0.09606 0.0
C899 C 0.04245 0.05749 0.08451 0.0
H900 H 0.12096 0.77473 0.38954 0.0
H901 H 0.08554 0.73487 0.33471 0.0
H902 H 0.15863 0.77164 0.37079 0.0
H903 H 0.12341 0.73039 0.31635 0.0
H904 H 0.19122 0.74402 0.27719 0.0
H905 H 0.1533 0.74659 0.29573 0.0
H906 H 0.19093 0.7499 0.36066 0.0
H907 H 0.22867 0.74875 0.34186 0.0
C908 C 0.12124 0.76495 0.37357 0.0
C909 C 0.09998 0.75507 0.36376 0.0
C910 C 0.1431 0.76296 0.36273 0.0
C911 C 0.14473 0.75063 0.34175 0.0
C912 C 0.12335 0.74048 0.33213 0.0
C913 C 0.10142 0.74284 0.34283 0.0
C914 C 0.1914 0.74518 0.29545 0.0
C915 C 0.21325 0.74617 0.30789 0.0
C916 C 0.16945 0.74654 0.30626 0.0
C917 C 0.16841 0.74859 0.33002 0.0
C918 C 0.19042 0.74898 0.34241 0.0
C919 C 0.21234 0.74803 0.33157 0.0
H920 H 0.54028 0.81546 0.65356 0.0
H921 H 0.52655 0.77684 0.59038 0.0
H922 H 0.54598 0.85451 0.63285 0.0
H923 H 0.53202 0.81582 0.56981 0.0
H924 H 0.58538 0.90722 0.58316 0.0
H925 H 0.5783 0.86858 0.60393 0.0
H926 H 0.51093 0.85876 0.56749 0.0
H927 H 0.51733 0.89761 0.54741 0.0
C928 C 0.53804 0.81546 0.63531 0.0
C929 C 0.53293 0.79332 0.62347 0.0
C930 C 0.54156 0.83763 0.62353 0.0
C931 C 0.5396 0.83791 0.59984 0.0
C932 C 0.53357 0.81595 0.5881 0.0
C933 C 0.53043 0.79376 0.59983 0.0
C934 C 0.56905 0.89685 0.57962 0.0
C935 C 0.552 0.90544 0.56354 0.0
C936 C 0.56502 0.87484 0.59151 0.0
C937 C 0.54405 0.86099 0.58728 0.0
C938 C 0.52731 0.86915 0.57087 0.0
C939 C 0.53115 0.89125 0.55922 0.0
H940 H 0.47883 0.28566 0.84284 0.0
H941 H 0.44431 0.24204 0.89345 0.0
H942 H 0.4415 0.28643 0.82003 0.0
H943 H 0.40776 0.24124 0.87046 0.0
H944 H 0.33715 0.26233 0.83809 0.0
H945 H 0.37503 0.26257 0.85927 0.0
H946 H 0.41219 0.26887 0.79685 0.0
H947 H 0.37401 0.27019 0.77591 0.0
C948 C 0.46342 0.27576 0.84886 0.0
C949 C 0.46461 0.26392 0.87007 0.0
C950 C 0.44185 0.27613 0.83576 0.0
C951 C 0.42093 0.26427 0.84331 0.0
C952 C 0.42278 0.25146 0.86411 0.0
C953 C 0.44403 0.25159 0.8773 0.0
C954 C 0.3534 0.26387 0.82888 0.0
C955 C 0.35234 0.26623 0.80523 0.0
C956 C 0.37539 0.26374 0.84106 0.0
C957 C 0.39727 0.26537 0.83003 0.0
C958 C 0.39609 0.26787 0.80628 0.0
C959 C 0.37403 0.26848 0.79414 0.0
H960 H 0.0108 0.80932 0.447 0.0
H961 H 0.04947 0.85114 0.39788 0.0
H962 H 0.0065 0.84668 0.46948 0.0
H963 H 0.04634 0.88865 0.42099 0.0
H964 H 0.02348 0.95746 0.45903 0.0
H965 H 0.02414 0.92079 0.435 0.0
H966 H 0.02544 0.87369 0.49433 0.0
H967 H 0.02355 0.91055 0.51824 0.0
C968 C 0.01843 0.82659 0.44096 0.0
C969 C 0.03047 0.82712 0.42053 0.0
C970 C 0.01621 0.84813 0.45408 0.0
C971 C 0.02632 0.87104 0.44751 0.0
C972 C 0.03798 0.87165 0.42673 0.0
C973 C 0.03988 0.85006 0.41338 0.0
C974 C 0.02369 0.93925 0.46698 0.0
C975 C 0.02336 0.93708 0.49069 0.0
C976 C 0.02432 0.91806 0.4531 0.0
C977 C 0.02497 0.89386 0.46242 0.0
C978 C 0.0245 0.89176 0.48621 0.0
C979 C 0.02353 0.913 0.50009 0.0
H980 H 0.47752 0.6934 0.66463 0.0
H981 H 0.52143 0.71581 0.72261 0.0
H982 H 0.44404 0.68679 0.68873 0.0
H983 H 0.48781 0.70879 0.74695 0.0
H984 H 0.41362 0.74418 0.76288 0.0
H985 H 0.45226 0.73504 0.74825 0.0
H986 H 0.42451 0.666 0.72004 0.0
H987 H 0.38554 0.6751 0.73495 0.0
C988 C 0.4802 0.69622 0.68265 0.0
C989 C 0.50189 0.70564 0.6917 0.0
C990 C 0.46104 0.6922 0.69652 0.0
C991 C 0.4632 0.69761 0.71971 0.0
C992 C 0.48557 0.70481 0.72908 0.0
C993 C 0.50482 0.70873 0.71517 0.0
C994 C 0.41587 0.72663 0.75424 0.0
C995 C 0.3964 0.71052 0.74984 0.0
C996 C 0.43812 0.72134 0.74589 0.0
C997 C 0.44141 0.69985 0.73287 0.0
C998 C 0.4224 0.68285 0.72979 0.0
C999 C 0.40009 0.68813 0.73822 0.0
H1000 H 0.54975 0.17846 0.90241 0.0
H1001 H 0.53217 0.20669 0.96798 0.0
H1002 H 0.55623 0.1369 0.91945 0.0
H1003 H 0.53782 0.16617 0.98432 0.0
H1004 H 0.56665 0.09817 0.01596 0.0
H1005 H 0.56756 0.13741 0.99537 0.0
H1006 H 0.53437 0.10163 0.93688 0.0
H1007 H 0.53421 0.06192 0.95738 0.0
C1008 C 0.5474 0.17596 0.92033 0.0
C1009 C 0.54034 0.19615 0.93365 0.0
C1010 C 0.55095 0.15211 0.9301 0.0
C1011 C 0.54779 0.14807 0.95341 0.0
C1012 C 0.54102 0.16841 0.96651 0.0
C1013 C 0.53748 0.19186 0.9569 0.0
C1014 C 0.55975 0.09852 -0.00136 0.0
C1015 C 0.55007 0.07686 0.98851 0.0
C1016 C 0.56017 0.12114 0.98679 0.0
C1017 C 0.55063 0.12297 0.96448 0.0
C1018 C 0.54195 0.10103 0.95395 0.0
C1019 C 0.54172 0.07825 0.9658 0.0
H1020 H 0.11246 0.25906 0.19204 0.0
H1021 H 0.1447 0.27851 0.12914 0.0
H1022 H 0.1483 0.27269 0.21274 0.0
H1023 H 0.1807 0.29238 0.15007 0.0
H1024 H 0.20841 0.30761 0.24817 0.0
H1025 H 0.1737 0.30943 0.22238 0.0
H1026 H 0.2118 0.26862 0.17253 0.0
H1027 H 0.24672 0.26712 0.19821 0.0
C1028 C 0.12708 0.26652 0.18264 0.0
C1029 C 0.12583 0.26741 0.15894 0.0
C1030 C 0.14755 0.27462 0.19452 0.0
C1031 C 0.16726 0.28368 0.18298 0.0
C1032 C 0.16576 0.2854 0.15933 0.0
C1033 C 0.14515 0.27748 0.14741 0.0
C1034 C 0.20961 0.29967 0.23145 0.0
C1035 C 0.23003 0.28673 0.22534 0.0
C1036 C 0.18973 0.30066 0.21674 0.0
C1037 C 0.18991 0.28866 0.19572 0.0
C1038 C 0.21118 0.27804 0.18866 0.0
C1039 C 0.23117 0.27714 0.20338 0.0
H1040 H 0.07771 0.00421 0.20267 0.0
H1041 H 0.14324 0.96354 0.19618 0.0
H1042 H 0.06202 0.98616 0.16794 0.0
H1043 H 0.12704 0.94484 0.16104 0.0
H1044 H 0.09837 0.95268 0.08486 0.0
H1045 H 0.11644 0.95739 0.12251 0.0
H1046 H 0.04731 0.94828 0.1512 0.0
H1047 H 0.02904 0.9447 0.1134 0.0
C1048 C 0.08877 0.9912 0.19394 0.0
C1049 C 0.11181 0.98539 0.2023 0.0
C1050 C 0.07958 0.98055 0.17405 0.0
C1051 C 0.09303 0.96361 0.16186 0.0
C1052 C 0.11618 0.95777 0.17007 0.0
C1053 C 0.12548 0.96855 0.19014 0.0
C1054 C 0.08707 0.95089 0.0992 0.0
C1055 C 0.06215 0.94899 0.09611 0.0
C1056 C 0.0975 0.95356 0.12087 0.0
C1057 C 0.08324 0.95403 0.13983 0.0
C1058 C 0.05871 0.94885 0.13685 0.0
C1059 C 0.04823 0.94654 0.11519 0.0
H1060 H 0.28638 0.91095 0.46742 0.0
H1061 H 0.28826 0.84008 0.50226 0.0
H1062 H 0.29459 0.88959 0.43186 0.0
H1063 H 0.29612 0.81903 0.467 0.0
H1064 H 0.27373 0.79161 0.3954 0.0
H1065 H 0.26904 0.81451 0.43019 0.0
H1066 H 0.32967 0.86081 0.41543 0.0
H1067 H 0.33529 0.83707 0.38075 0.0
C1068 C 0.28856 0.8909 0.46747 0.0
C1069 C 0.28652 0.87713 0.48751 0.0
C1070 C 0.29341 0.87877 0.44724 0.0
C1071 C 0.29587 0.85273 0.44682 0.0
C1072 C 0.29412 0.83911 0.46691 0.0
C1073 C 0.28965 0.85119 0.48706 0.0
C1074 C 0.28651 0.80622 0.39968 0.0
C1075 C 0.30518 0.81213 0.38535 0.0
C1076 C 0.28361 0.81951 0.41954 0.0
C1077 C 0.29902 0.83932 0.42542 0.0
C1078 C 0.31748 0.84567 0.41109 0.0
C1079 C 0.32065 0.83207 0.39129 0.0
H1080 H 0.46062 0.97751 0.68415 0.0
H1081 H 0.43384 0.05248 0.68783 0.0
H1082 H 0.4793 0.98744 0.64891 0.0
H1083 H 0.45352 0.06299 0.65267 0.0
H1084 H 0.47782 0.06273 0.57754 0.0
H1085 H 0.45621 0.05674 0.61225 0.0
H1086 H 0.5134 0.01071 0.63905 0.0
H1087 H 0.53437 0.01589 0.60417 0.0
C1088 C 0.45856 0.99611 0.67721 0.0
C1089 C 0.4459 0.01425 0.68871 0.0
C1090 C 0.46955 0.00195 0.65717 0.0
C1091 C 0.4686 0.02626 0.64828 0.0
C1092 C 0.45471 0.04411 0.65909 0.0
C1093 C 0.44334 0.0381 0.67913 0.0
C1094 C 0.48596 0.05177 0.59108 0.0
C1095 C 0.5077 0.03959 0.58808 0.0
C1096 C 0.47354 0.04828 0.61095 0.0
C1097 C 0.48274 0.03269 0.62823 0.0
C1098 C 0.50535 0.02212 0.62579 0.0
C1099 C 0.51756 0.02534 0.6059 0.0
H1100 H 0.27221 0.1065 0.9494 0.0
H1101 H 0.28153 0.18402 0.96774 0.0
H1102 H 0.24883 0.11896 0.91554 0.0
H1103 H 0.25889 0.19638 0.9342 0.0
H1104 H 0.21679 0.22015 0.87892 0.0
H1105 H 0.22074 0.19707 0.91441 0.0
H1106 H 0.25941 0.13952 0.8807 0.0
H1107 H 0.25458 0.16204 0.84531 0.0
C1108 C 0.2693 0.12614 0.94615 0.0
C1109 C 0.2789 0.14435 0.96094 0.0
C1110 C 0.25577 0.13324 0.92695 0.0
C1111 C 0.25173 0.15862 0.92235 0.0
C1112 C 0.26102 0.17664 0.93752 0.0
C1113 C 0.2744 0.16958 0.95658 0.0
C1114 C 0.2252 0.20205 0.87902 0.0
C1115 C 0.23586 0.19307 0.85966 0.0
C1116 C 0.22755 0.18888 0.89927 0.0
C1117 C 0.24113 0.16696 0.90045 0.0
C1118 C 0.24893 0.15638 0.88039 0.0
C1119 C 0.24622 0.16934 0.86008 0.0
H1120 H 0.16816 0.01653 0.33674 0.0
H1121 H 0.0985 0.01636 0.30322 0.0
H1122 H 0.14985 0.02713 0.37251 0.0
H1123 H 0.08052 0.02679 0.33861 0.0
H1124 H 0.05837 0.00361 0.40969 0.0
H1125 H 0.07807 0.99946 0.37426 0.0
H1126 H 0.12339 0.06251 0.39127 0.0
H1127 H 0.10289 0.06756 0.42682 0.0
C1128 C 0.14905 0.019 0.33696 0.0
C1129 C 0.13473 0.01532 0.31727 0.0
C1130 C 0.13864 0.02519 0.35734 0.0
C1131 C 0.11379 0.02755 0.35826 0.0
C1132 C 0.09969 0.02481 0.33837 0.0
C1133 C 0.11003 0.01884 0.31812 0.0
C1134 C 0.07206 0.01711 0.4058 0.0
C1135 C 0.07865 0.03626 0.42105 0.0
C1136 C 0.08351 0.01453 0.38552 0.0
C1137 C 0.10211 0.03076 0.38001 0.0
C1138 C 0.10911 0.04972 0.39523 0.0
C1139 C 0.09737 0.05255 0.41554 0.0
H1140 H 0.25236 0.87232 0.60646 0.0
H1141 H 0.32775 0.85825 0.61274 0.0
H1142 H 0.2464 0.84931 0.64157 0.0
H1143 H 0.32222 0.83641 0.64821 0.0
H1144 H 0.3039 0.77197 0.69269 0.0
H1145 H 0.30731 0.79719 0.65874 0.0
H1146 H 0.25189 0.84564 0.68131 0.0
H1147 H 0.24778 0.81974 0.71473 0.0
C1148 C 0.26773 0.86511 0.61584 0.0
C1149 C 0.29049 0.86701 0.60698 0.0
C1150 C 0.26436 0.85178 0.63589 0.0
C1151 C 0.28376 0.84038 0.6475 0.0
C1152 C 0.30674 0.84411 0.63938 0.0
C1153 C 0.31001 0.857 0.61925 0.0
C1154 C 0.2922 0.78778 0.69023 0.0
C1155 C 0.27561 0.79381 0.70644 0.0
C1156 C 0.29435 0.8025 0.67089 0.0
C1157 C 0.28022 0.82386 0.66743 0.0
C1158 C 0.26301 0.82934 0.68329 0.0
C1159 C 0.26067 0.81444 0.7025 0.0
H1160 H 0.40033 0.00619 0.82568 0.0
H1161 H 0.46896 0.00513 0.79509 0.0
H1162 H 0.41944 0.99494 0.86218 0.0
H1163 H 0.48784 0.994 0.8313 0.0
H1164 H 0.51308 0.01192 0.90438 0.0
H1165 H 0.49331 0.01838 0.86785 0.0
H1166 H 0.44387 0.95864 0.88127 0.0
H1167 H 0.4643 0.95131 0.91792 0.0
C1168 C 0.41943 0.00349 0.82674 0.0
C1169 C 0.43319 0.00675 0.80761 0.0
C1170 C 0.4303 0.99688 0.84754 0.0
C1171 C 0.4551 0.99372 0.84951 0.0
C1172 C 0.46871 0.99655 0.83028 0.0
C1173 C 0.45788 0.0029 0.80955 0.0
C1174 C 0.49843 0.9996 0.89946 0.0
C1175 C 0.49059 0.98078 0.91409 0.0
C1176 C 0.48697 0.0035 0.87854 0.0
C1177 C 0.46714 0.98895 0.87173 0.0
C1178 C 0.45906 0.97021 0.88623 0.0
C1179 C 0.47077 0.96605 0.90718 0.0
H1180 H 0.34171 0.15183 0.07509 0.0
H1181 H 0.28678 0.20777 0.07525 0.0
H1182 H 0.35955 0.16941 0.10982 0.0
H1183 H 0.30379 0.22456 0.11014 0.0
H1184 H 0.337 0.26077 0.16534 0.0
H1185 H 0.33569 0.24696 0.12687 0.0
H1186 H 0.352 0.17199 0.14882 0.0
H1187 H 0.3564 0.18636 0.18752 0.0
C1188 C 0.33338 0.16779 0.08263 0.0
C1189 C 0.31279 0.1784 0.07254 0.0
C1190 C 0.34363 0.17787 0.10247 0.0
C1191 C 0.33332 0.19859 0.11268 0.0
C1192 C 0.31273 0.20911 0.10245 0.0
C1193 C 0.30272 0.19928 0.08254 0.0
C1194 C 0.34154 0.24157 0.16229 0.0
C1195 C 0.34571 0.22447 0.18007 0.0
C1196 C 0.34028 0.23353 0.13997 0.0
C1197 C 0.34237 0.20814 0.13488 0.0
C1198 C 0.34973 0.19164 0.15217 0.0
C1199 C 0.3518 0.19986 0.17452 0.0
H1200 H 0.24026 0.08427 0.03854 0.0
H1201 H 0.21896 0.11956 0.9755 0.0
H1202 H 0.21358 0.04945 0.02982 0.0
H1203 H 0.19303 0.08408 0.96608 0.0
H1204 H 0.12679 0.03289 0.97599 0.0
H1205 H 0.15711 0.06534 0.97622 0.0
H1206 H 0.20789 0.01408 0.00682 0.0
H1207 H 0.17687 0.98196 0.00763 0.0
C1208 C 0.22979 0.08452 0.02281 0.0
C1209 C 0.23134 0.10471 0.00786 0.0
C1210 C 0.21481 0.06437 0.01758 0.0
C1211 C 0.2014 0.0637 0.99704 0.0
C1212 C 0.20292 0.08404 0.98212 0.0
C1213 C 0.21763 0.10444 0.98756 0.0
C1214 C 0.1447 0.02829 0.98194 0.0
C1215 C 0.14954 0.00506 0.99196 0.0
C1216 C 0.16212 0.04695 0.98217 0.0
C1217 C 0.18479 0.04256 0.99214 0.0
C1218 C 0.19035 0.01833 -0.00027 0.0
C1219 C 0.17278 0.9998 -0.00012 0.0
H1220 H 0.69951 0.40005 0.05488 0.0
H1221 H 0.73234 0.47313 0.05617 0.0
H1222 H 0.66022 0.41902 0.05434 0.0
H1223 H 0.69282 0.49221 0.05553 0.0
H1224 H 0.59276 0.46043 0.07018 0.0
H1225 H 0.63305 0.44473 0.07707 0.0
H1226 H 0.65904 0.49483 0.02629 0.0
H1227 H 0.61874 0.51056 0.01932 0.0
C1228 C 0.69835 0.42019 0.05542 0.0
C1229 C 0.71907 0.43508 0.05555 0.0
C1230 C 0.6758 0.43107 0.05518 0.0
C1231 C 0.67337 0.45714 0.05479 0.0
C1232 C 0.69411 0.47207 0.05563 0.0
C1233 C 0.71673 0.46115 0.05619 0.0
C1234 C 0.60709 0.46832 0.06064 0.0
C1235 C 0.60245 0.48668 0.0441 0.0
C1236 C 0.63017 0.45922 0.06454 0.0
C1237 C 0.64926 0.46845 0.05219 0.0
C1238 C 0.64479 0.48747 0.03624 0.0
C1239 C 0.62165 0.49639 0.03216 0.0
H1240 H 0.92455 0.42008 0.25362 0.0
H1241 H 0.86515 0.46602 0.27059 0.0
H1242 H 0.9007 0.3828 0.25965 0.0
H1243 H 0.84159 0.4288 0.27816 0.0
H1244 H 0.79823 0.35658 0.27 0.0
H1245 H 0.82071 0.39483 0.26396 0.0
H1246 H 0.88529 0.3578 0.28711 0.0
H1247 H 0.86287 0.3192 0.29159 0.0
C1248 C 0.90635 0.42216 0.25872 0.0
C1249 C 0.89668 0.44593 0.26154 0.0
C1250 C 0.8927 0.40076 0.26249 0.0
C1251 C 0.86918 0.40255 0.26979 0.0
C1252 C 0.85945 0.42648 0.27229 0.0
C1253 C 0.87296 0.4479 0.26798 0.0
C1254 C 0.81719 0.35678 0.27408 0.0
C1255 C 0.82882 0.33492 0.28123 0.0
C1256 C 0.83015 0.37877 0.27064 0.0
C1257 C 0.85502 0.37955 0.27472 0.0
C1258 C 0.86635 0.35788 0.28304 0.0
C1259 C 0.85347 0.33577 0.28595 0.0
H1260 H 0.87606 0.60765 0.48744 0.0
H1261 H 0.84909 0.57981 0.55017 0.0
H1262 H 0.91022 0.5801 0.49182 0.0
H1263 H 0.88354 0.55235 0.55461 0.0
H1264 H 0.96851 0.5449 0.56375 0.0
H1265 H 0.92887 0.56314 0.56069 0.0
H1266 H 0.91872 0.53253 0.49363 0.0
H1267 H 0.95825 0.51413 0.49659 0.0
C1268 C 0.8774 0.59556 0.50209 0.0
C1269 C 0.8601 0.5959 0.51853 0.0
C1270 C 0.89678 0.57966 0.50448 0.0
C1271 C 0.89928 0.56411 0.52348 0.0
C1272 C 0.88186 0.56422 0.53983 0.0
C1273 C 0.86225 0.57987 0.53726 0.0
C1274 C 0.95764 0.54165 0.54854 0.0
C1275 C 0.96657 0.52848 0.53026 0.0
C1276 C 0.93495 0.55194 0.54687 0.0
C1277 C 0.92103 0.54936 0.52684 0.0
C1278 C 0.92933 0.53489 0.50914 0.0
C1279 C 0.95189 0.52437 0.51088 0.0
H1280 H 0.14107 0.10408 0.26336 0.0
H1281 H 0.20464 0.06054 0.25543 0.0
H1282 H 0.16502 0.14195 0.26507 0.0
H1283 H 0.22873 0.0987 0.25754 0.0
H1284 H 0.2606 0.17702 0.24237 0.0
H1285 H 0.23754 0.13831 0.23792 0.0
H1286 H 0.19316 0.16066 0.29222 0.0
H1287 H 0.21576 0.19928 0.29641 0.0
C1288 C 0.16017 0.10253 0.26192 0.0
C1289 C 0.1709 0.07915 0.25942 0.0
C1290 C 0.17393 0.1243 0.26304 0.0
C1291 C 0.19882 0.12333 0.26175 0.0
C1292 C 0.20957 0.10009 0.25849 0.0
C1293 C 0.19575 0.07821 0.25735 0.0
C1294 C 0.24592 0.17363 0.25335 0.0
C1295 C 0.23994 0.19132 0.26966 0.0
C1296 C 0.23279 0.15141 0.25086 0.0
C1297 C 0.21338 0.1465 0.26457 0.0
C1298 C 0.2077 0.16406 0.28108 0.0
C1299 C 0.22078 0.18617 0.28357 0.0
H1300 H 0.34205 0.95936 0.54963 0.0
H1301 H 0.36749 0.90411 0.50352 0.0
H1302 H 0.37808 0.9846 0.54381 0.0
H1303 H 0.40279 0.92913 0.49765 0.0
H1304 H 0.47603 0.95957 0.51872 0.0
H1305 H 0.43786 0.93856 0.52185 0.0
H1306 H 0.40174 0.00907 0.51511 0.0
H1307 H 0.44035 0.03039 0.51215 0.0
C1308 C 0.35509 0.95275 0.53809 0.0
C1309 C 0.35204 0.92946 0.52741 0.0
C1310 C 0.37568 0.96722 0.5347 0.0
C1311 C 0.39351 0.95864 0.52056 0.0
C1312 C 0.38974 0.93601 0.50907 0.0
C1313 C 0.36939 0.92166 0.51245 0.0
C1314 C 0.46 0.97067 0.51768 0.0
C1315 C 0.4613 0.99668 0.51501 0.0
C1316 C 0.43805 0.95858 0.51943 0.0
C1317 C 0.41669 0.9721 0.51863 0.0
C1318 C 0.41788 0.99814 0.51591 0.0
C1319 C 0.43996 0.0103 0.51398 0.0
H1320 H 0.90472 0.60935 0.24673 0.0
H1321 H 0.84111 0.56418 0.23746 0.0
H1322 H 0.88072 0.64702 0.24403 0.0
H1323 H 0.81705 0.60199 0.23488 0.0
H1324 H 0.78637 0.67438 0.26858 0.0
H1325 H 0.80734 0.63524 0.26347 0.0
H1326 H 0.85394 0.67156 0.21706 0.0
H1327 H 0.83294 0.71076 0.22206 0.0
C1328 C 0.88564 0.60748 0.24385 0.0
C1329 C 0.8748 0.58381 0.24241 0.0
C1330 C 0.87191 0.62906 0.24217 0.0
C1331 C 0.847 0.62745 0.23928 0.0
C1332 C 0.83619 0.60378 0.23725 0.0
C1333 C 0.84998 0.58217 0.23862 0.0
C1334 C 0.80082 0.67393 0.25698 0.0
C1335 C 0.80808 0.69573 0.24585 0.0
C1336 C 0.81276 0.65147 0.25398 0.0
C1337 C 0.83239 0.65039 0.23999 0.0
C1338 C 0.83902 0.67191 0.22812 0.0
C1339 C 0.82689 0.69431 0.2309 0.0
H1340 H 0.6612 0.41006 0.75712 0.0
H1341 H 0.72419 0.45416 0.74514 0.0
H1342 H 0.68489 0.37209 0.75627 0.0
H1343 H 0.74793 0.41611 0.74458 0.0
H1344 H 0.73106 0.30802 0.73325 0.0
H1345 H 0.70955 0.34718 0.72832 0.0
H1346 H 0.75937 0.38331 0.77511 0.0
H1347 H 0.78079 0.34412 0.78031 0.0
C1348 C 0.68007 0.41163 0.75417 0.0
C1349 C 0.69085 0.43507 0.75124 0.0
C1350 C 0.69359 0.38989 0.75355 0.0
C1351 C 0.71823 0.39119 0.75034 0.0
C1352 C 0.72898 0.41461 0.74717 0.0
C1353 C 0.71538 0.43634 0.74741 0.0
C1354 C 0.73768 0.3244 0.7422 0.0
C1355 C 0.75758 0.32294 0.75725 0.0
C1356 C 0.72526 0.34676 0.73948 0.0
C1357 C 0.73272 0.3682 0.75144 0.0
C1358 C 0.75331 0.36709 0.76559 0.0
C1359 C 0.76552 0.34464 0.7686 0.0
H1360 H 0.93598 0.86223 0.91197 0.0
H1361 H 0.98816 0.90352 0.87537 0.0
H1362 H 0.94324 0.88874 0.94459 0.0
H1363 H 0.99509 0.93084 0.90782 0.0
H1364 H 0.03935 0.92018 0.97427 0.0
H1365 H 0.01852 0.91082 0.93864 0.0
H1366 H 0.95104 0.92416 0.96902 0.0
H1367 H 0.97189 0.93288 0.00495 0.0
C1368 C 0.94763 0.87829 0.9103 0.0
C1369 C 0.96239 0.88023 0.89178 0.0
C1370 C 0.95206 0.89336 0.92916 0.0
C1371 C 0.97083 0.9108 0.92914 0.0
C1372 C 0.98126 0.91668 0.90853 0.0
C1373 C 0.97689 0.90142 0.88972 0.0
C1374 C 0.02006 0.92057 0.97353 0.0
C1375 C 0.00733 0.92707 0.99254 0.0
C1376 C 0.00811 0.91592 0.95293 0.0
C1377 C 0.98314 0.91767 0.9508 0.0
C1378 C 0.97029 0.92302 0.97004 0.0
C1379 C 0.98225 0.92759 0.99071 0.0
H1380 H 0.94241 0.26576 0.65886 0.0
H1381 H 0.98012 0.24814 0.72151 0.0
H1382 H 0.90501 0.2663 0.67818 0.0
H1383 H 0.94234 0.24808 0.741 0.0
H1384 H 0.87282 0.2739 0.7734 0.0
H1385 H 0.9109 0.27329 0.75465 0.0
H1386 H 0.87569 0.24189 0.6951 0.0
H1387 H 0.83775 0.24308 0.71361 0.0
C1388 C 0.94275 0.26171 0.67678 0.0
C1389 C 0.96451 0.2568 0.68849 0.0
C1390 C 0.9211 0.2619 0.68795 0.0
C1391 C 0.92024 0.25716 0.71134 0.0
C1392 C 0.94205 0.25213 0.72308 0.0
C1393 C 0.96381 0.25192 0.71184 0.0
C1394 C 0.87316 0.26701 0.75624 0.0
C1395 C 0.85195 0.25871 0.74509 0.0
C1396 C 0.89516 0.26643 0.74549 0.0
C1397 C 0.89675 0.25755 0.72317 0.0
C1398 C 0.87545 0.24928 0.71208 0.0
C1399 C 0.85352 0.24986 0.72281 0.0
H1400 H 0.49579 0.28659 0.46623 0.0
H1401 H 0.53265 0.25992 0.40818 0.0
H1402 H 0.49885 0.2455 0.48338 0.0
H1403 H 0.53603 0.21878 0.42593 0.0
H1404 H 0.54944 0.15527 0.48284 0.0
H1405 H 0.55327 0.19756 0.46734 0.0
H1406 H 0.47667 0.20366 0.46332 0.0
H1407 H 0.47283 0.16116 0.47828 0.0
C1408 C 0.50512 0.27224 0.45736 0.0
C1409 C 0.51358 0.27644 0.43559 0.0
C1410 C 0.50673 0.24872 0.46719 0.0
C1411 C 0.51727 0.22916 0.4557 0.0
C1412 C 0.52772 0.23375 0.43495 0.0
C1413 C 0.52578 0.25725 0.42487 0.0
C1414 C 0.53349 0.16574 0.47855 0.0
C1415 C 0.51084 0.1553 0.48173 0.0
C1416 C 0.5357 0.18972 0.4697 0.0
C1417 C 0.51527 0.20364 0.46442 0.0
C1418 C 0.49262 0.19316 0.46752 0.0
C1419 C 0.49041 0.16899 0.47592 0.0
H1420 H 0.58528 0.76628 0.20339 0.0
H1421 H 0.62141 0.7664 0.14032 0.0
H1422 H 0.62407 0.76544 0.22394 0.0
H1423 H 0.65945 0.76473 0.16045 0.0
H1424 H 0.72675 0.78582 0.20026 0.0
H1425 H 0.68748 0.78758 0.18148 0.0
H1426 H 0.65861 0.74218 0.23439 0.0
H1427 H 0.69781 0.74124 0.25353 0.0
C1428 C 0.60136 0.76601 0.19387 0.0
C1429 C 0.5999 0.76667 0.17008 0.0
C1430 C 0.62373 0.7654 0.20566 0.0
C1431 C 0.64529 0.7653 0.19401 0.0
C1432 C 0.6436 0.7655 0.17026 0.0
C1433 C 0.62147 0.76629 0.1586 0.0
C1434 C 0.71209 0.7761 0.20785 0.0
C1435 C 0.7157 0.76327 0.2284 0.0
C1436 C 0.68939 0.777 0.19701 0.0
C1437 C 0.66948 0.7649 0.20619 0.0
C1438 C 0.67317 0.75205 0.22678 0.0
C1439 C 0.69585 0.7513 0.23771 0.0
H1440 H 0.03772 0.17681 0.64899 0.0
H1441 H 0.00831 0.20431 0.58556 0.0
H1442 H 0.03931 0.1346 0.63281 0.0
H1443 H 0.00944 0.16265 0.56964 0.0
H1444 H 0.04495 0.0973 0.53755 0.0
H1445 H 0.04125 0.13675 0.55729 0.0
H1446 H 0.01776 0.09766 0.61633 0.0
H1447 H 0.02179 0.05791 0.59658 0.0
C1448 C 0.03087 0.1737 0.63189 0.0
C1449 C 0.02292 0.19393 0.61855 0.0
C1450 C 0.03194 0.14955 0.62252 0.0
C1451 C 0.0251 0.14524 0.59966 0.0
C1452 C 0.01557 0.16526 0.58703 0.0
C1453 C 0.01461 0.18917 0.59628 0.0
C1454 C 0.03916 0.097 0.55479 0.0
C1455 C 0.03359 0.0743 0.56534 0.0
C1456 C 0.03682 0.11972 0.56611 0.0
C1457 C 0.0288 0.12057 0.58837 0.0
C1458 C 0.02398 0.09782 0.59925 0.0
C1459 C 0.02626 0.07499 0.58786 0.0
H1460 H 0.54668 0.29179 0.32398 0.0
H1461 H 0.57754 0.33965 0.37613 0.0
H1462 H 0.58606 0.28763 0.30779 0.0
H1463 H 0.61642 0.33549 0.36006 0.0
H1464 H 0.68512 0.29714 0.34127 0.0
H1465 H 0.6454 0.3003 0.3559 0.0
H1466 H 0.61679 0.31662 0.28891 0.0
H1467 H 0.6568 0.31409 0.27416 0.0
C1468 C 0.56181 0.30134 0.33197 0.0
C1469 C 0.55907 0.316 0.3513 0.0
C1470 C 0.58424 0.29909 0.32266 0.0
C1471 C 0.6042 0.3112 0.33276 0.0
C1472 C 0.60137 0.32575 0.35209 0.0
C1473 C 0.57906 0.3282 0.36121 0.0
C1474 C 0.6705 0.30187 0.32967 0.0
C1475 C 0.6742 0.30567 0.30658 0.0
C1476 C 0.64772 0.30346 0.33804 0.0
C1477 C 0.6281 0.30869 0.32351 0.0
C1478 C 0.63164 0.31228 0.3004 0.0
C1479 C 0.65452 0.3109 0.29201 0.0
H1480 H 0.51711 0.85082 0.15577 0.0
H1481 H 0.53659 0.81055 0.09632 0.0
H1482 H 0.51821 0.88993 0.13442 0.0
H1483 H 0.53837 0.84938 0.07524 0.0
H1484 H 0.54443 0.95812 0.09443 0.0
H1485 H 0.543 0.9199 0.11666 0.0
H1486 H 0.51381 0.88033 0.05837 0.0
H1487 H 0.51592 0.91844 0.03598 0.0
C1488 C 0.52192 0.85034 0.13824 0.0
C1489 C 0.5267 0.8275 0.1278 0.0
C1490 C 0.52261 0.8728 0.12595 0.0
C1491 C 0.52816 0.87299 0.1029 0.0
C1492 C 0.53347 0.8501 0.09272 0.0
C1493 C 0.53268 0.82775 0.10494 0.0
C1494 C 0.53762 0.94128 0.08633 0.0
C1495 C 0.53037 0.94144 0.0633 0.0
C1496 C 0.53669 0.9193 0.09917 0.0
C1497 C 0.52842 0.89677 0.08942 0.0
C1498 C 0.52075 0.89709 0.06647 0.0
C1499 C 0.52177 0.91906 0.0536 0.0
H1500 H 0.94736 0.76068 0.85421 0.0
H1501 H 0.89433 0.79939 0.89139 0.0
H1502 H 0.91646 0.73409 0.83691 0.0
H1503 H 0.86324 0.77392 0.87324 0.0
H1504 H 0.85267 0.73105 0.78445 0.0
H1505 H 0.88718 0.7397 0.80868 0.0
H1506 H 0.84357 0.73552 0.86727 0.0
H1507 H 0.80854 0.72818 0.84264 0.0
C1508 C 0.92902 0.76356 0.85855 0.0
C1509 C 0.9231 0.78234 0.87379 0.0
C1510 C 0.91133 0.74829 0.84871 0.0
C1511 C 0.88729 0.75187 0.85353 0.0
C1512 C 0.88156 0.77018 0.86941 0.0
C1513 C 0.89932 0.78509 0.87961 0.0
C1514 C 0.8505 0.73111 0.80255 0.0
C1515 C 0.82778 0.72983 0.8116 0.0
C1516 C 0.87043 0.73603 0.81656 0.0
C1517 C 0.86803 0.73924 0.83992 0.0
C1518 C 0.84584 0.73414 0.84924 0.0
C1519 C 0.82581 0.72964 0.83516 0.0
H1520 H 0.90848 0.00043 0.89177 0.0
H1521 H 0.97271 0.00908 0.85465 0.0
H1522 H 0.93198 0.00285 0.92727 0.0
H1523 H 0.99596 0.0131 0.88973 0.0
H1524 H 0.03439 0.99173 0.95562 0.0
H1525 H 0.01148 0.99129 0.92017 0.0
H1526 H 0.9538 0.02888 0.9521 0.0
H1527 H 0.97638 0.02781 0.98804 0.0
C1528 C 0.9276 0.00297 0.89123 0.0
C1529 C 0.93877 0.00435 0.87046 0.0
C1530 C 0.9411 0.00466 0.91156 0.0
C1531 C 0.966 0.00826 0.91153 0.0
C1532 C 0.97699 0.0098 0.89061 0.0
C1533 C 0.96359 0.00761 0.8704 0.0
C1534 C 0.01707 0.00048 0.95496 0.0
C1535 C 0.00731 0.01002 0.97461 0.0
C1536 C 0.00381 0.00019 0.93455 0.0
C1537 C 0.98059 0.00993 0.9331 0.0
C1538 C 0.97135 0.02068 0.95257 0.0
C1539 C 0.98446 0.0205 0.97313 0.0
H1540 H 0.7324 0.15918 0.55245 0.0
H1541 H 0.80648 0.14407 0.56824 0.0
H1542 H 0.72554 0.16616 0.5922 0.0
H1543 H 0.79983 0.15195 0.60842 0.0
H1544 H 0.77559 0.15919 0.68143 0.0
H1545 H 0.77863 0.14052 0.64386 0.0
H1546 H 0.73859 0.20191 0.6148 0.0
H1547 H 0.73528 0.2201 0.65208 0.0
C1548 C 0.74718 0.15716 0.56458 0.0
C1549 C 0.77006 0.15164 0.55741 0.0
C1550 C 0.74326 0.16117 0.5873 0.0
C1551 C 0.76224 0.16017 0.60333 0.0
C1552 C 0.78486 0.15283 0.5964 0.0
C1553 C 0.78873 0.14843 0.57349 0.0
C1554 C 0.76699 0.16827 0.667 0.0
C1555 C 0.75517 0.19104 0.66955 0.0
C1556 C 0.76895 0.15775 0.64554 0.0
C1557 C 0.75885 0.16973 0.62642 0.0
C1558 C 0.74629 0.19202 0.62923 0.0
C1559 C 0.74449 0.20255 0.65054 0.0
H1560 H 0.65936 0.0035 0.38854 0.0
H1561 H 0.60393 0.03477 0.3449 0.0
H1562 H 0.63228 0.00406 0.42005 0.0
H1563 H 0.57701 0.0349 0.37599 0.0
H1564 H 0.5698 0.98224 0.46321 0.0
H1565 H 0.59576 0.98213 0.43118 0.0
H1566 H 0.5706 0.05526 0.41178 0.0
H1567 H 0.54437 0.05528 0.44364 0.0
C1568 C 0.64152 0.01065 0.38573 0.0
C1569 C 0.63379 0.01908 0.36427 0.0
C1570 C 0.62594 0.01075 0.40367 0.0
C1571 C 0.60243 0.01938 0.40045 0.0
C1572 C 0.59501 0.02834 0.3791 0.0
C1573 C 0.61048 0.02818 0.36125 0.0
C1574 C 0.56947 0.99813 0.45189 0.0
C1575 C 0.55498 0.01878 0.45599 0.0
C1576 C 0.5846 0.99818 0.43371 0.0
C1577 C 0.58554 0.01885 0.41916 0.0
C1578 C 0.57025 0.03901 0.42265 0.0
C1579 C 0.55512 0.03898 0.44086 0.0
H1580 H 0.82356 0.82301 0.05233 0.0
H1581 H 0.81269 0.90097 0.06668 0.0
H1582 H 0.83763 0.81631 0.09083 0.0
H1583 H 0.82811 0.8946 0.10526 0.0
H1584 H 0.86035 0.8032 0.15949 0.0
H1585 H 0.86398 0.8206 0.12163 0.0
H1586 H 0.8116 0.87629 0.13679 0.0
H1587 H 0.80942 0.85979 0.17484 0.0
C1588 C 0.82485 0.83891 0.06357 0.0
C1589 C 0.81652 0.86238 0.05662 0.0
C1590 C 0.83321 0.83514 0.08572 0.0
C1591 C 0.83382 0.85487 0.10138 0.0
C1592 C 0.82735 0.87885 0.09383 0.0
C1593 C 0.81857 0.88252 0.07172 0.0
C1594 C 0.85041 0.81977 0.15483 0.0
C1595 C 0.83448 0.83013 0.16977 0.0
C1596 C 0.85226 0.8296 0.13314 0.0
C1597 C 0.83757 0.84942 0.12586 0.0
C1598 C 0.82332 0.86116 0.14169 0.0
C1599 C 0.82194 0.85167 0.16353 0.0
H1600 H 0.97968 0.0036 0.75759 0.0
H1601 H 0.90584 0.99053 0.73806 0.0
H1602 H 0.99034 0.00165 0.71826 0.0
H1603 H 0.91665 0.9884 0.69822 0.0
H1604 H 0.95818 0.95059 0.63773 0.0
H1605 H 0.94168 0.95782 0.67493 0.0
H1606 H 0.98392 0.02512 0.68209 0.0
H1607 H 1.00007 0.01821 0.64516 0.0
C1608 C 0.96566 0.00067 0.74479 0.0
C1609 C 0.94193 0.99724 0.75087 0.0
C1610 C 0.97176 0.99962 0.72224 0.0
C1611 C 0.95434 0.99481 0.70515 0.0
C1612 C 0.93044 0.99199 0.71109 0.0
C1613 C 0.92423 0.99347 0.73379 0.0
C1614 C 0.9637 0.96706 0.64717 0.0
C1615 C 0.98091 0.98346 0.63872 0.0
C1616 C 0.95418 0.97125 0.66839 0.0
C1617 C 0.96171 0.99191 0.68149 0.0
C1618 C 0.97809 0.00882 0.67256 0.0
C1619 C 0.98749 0.00471 0.65146 0.0
H1620 H 0.77822 0.19453 0.45454 0.0
H1621 H 0.79827 0.1307 0.41538 0.0
H1622 H 0.78103 0.22103 0.42138 0.0
H1623 H 0.80077 0.1573 0.38191 0.0
H1624 H 0.76501 0.25485 0.35087 0.0
H1625 H 0.76177 0.22898 0.38453 0.0
H1626 H 0.82657 0.1912 0.36846 0.0
H1627 H 0.8297 0.21681 0.33467 0.0
C1628 C 0.78298 0.18608 0.43876 0.0
C1629 C 0.78807 0.16051 0.43758 0.0
C1630 C 0.78452 0.2013 0.41972 0.0
C1631 C 0.79127 0.19134 0.39904 0.0
C1632 C 0.79588 0.16562 0.39771 0.0
C1633 C 0.79423 0.15033 0.4168 0.0
C1634 C 0.77878 0.24131 0.3547 0.0
C1635 C 0.79762 0.23795 0.34006 0.0
C1636 C 0.77689 0.22643 0.37398 0.0
C1637 C 0.79376 0.20782 0.37903 0.0
C1638 C 0.81303 0.20504 0.36481 0.0
C1639 C 0.81497 0.21996 0.34558 0.0
H1640 H 0.62978 0.07216 0.24525 0.0
H1641 H 0.65524 0.99681 0.23898 0.0
H1642 H 0.62036 0.0736 0.20505 0.0
H1643 H 0.64591 0.99831 0.19815 0.0
H1644 H 0.58508 0.00108 0.14118 0.0
H1645 H 0.60659 0.99906 0.17752 0.0
H1646 H 0.63512 0.07301 0.16667 0.0
H1647 H 0.61289 0.07534 0.13045 0.0
C1648 C 0.63369 0.05599 0.23513 0.0
C1649 C 0.64279 0.03417 0.24523 0.0
C1650 C 0.62856 0.05694 0.21203 0.0
C1651 C 0.63228 0.03604 0.19847 0.0
C1652 C 0.64269 0.01463 0.20831 0.0
C1653 C 0.6481 0.01377 0.23157 0.0
C1654 C 0.5959 0.01695 0.14658 0.0
C1655 C 0.59686 0.03863 0.13327 0.0
C1656 C 0.60859 0.01558 0.16719 0.0
C1657 C 0.62251 0.03588 0.17494 0.0
C1658 C 0.62437 0.05714 0.16115 0.0
C1659 C 0.61169 0.05849 0.14046 0.0
H1660 H 0.72477 0.88 0.94014 0.0
H1661 H 0.73781 0.81836 0.98576 0.0
H1662 H 0.70619 0.85156 0.9126 0.0
H1663 H 0.718 0.79003 0.95891 0.0
H1664 H 0.73472 0.75393 0.88966 0.0
H1665 H 0.73329 0.77476 0.92539 0.0
H1666 H 0.6768 0.82202 0.89895 0.0
H1667 H 0.67836 0.80088 0.86256 0.0
C1668 C 0.72313 0.86043 0.94442 0.0
C1669 C 0.73335 0.85113 0.96459 0.0
C1670 C 0.71214 0.84415 0.92884 0.0
C1671 C 0.71086 0.8184 0.93346 0.0
C1672 C 0.7192 0.80964 0.95464 0.0
C1673 C 0.73066 0.8258 0.96993 0.0
C1674 C 0.72113 0.76788 0.89163 0.0
C1675 C 0.70715 0.77628 0.87306 0.0
C1676 C 0.7203 0.77996 0.9123 0.0
C1677 C 0.70543 0.80063 0.91483 0.0
C1678 C 0.68897 0.80664 0.89726 0.0
C1679 C 0.68982 0.79451 0.87647 0.0
H1680 H 0.8476 0.89127 0.94972 0.0
H1681 H 0.80306 0.94697 0.979 0.0
H1682 H 0.88217 0.91823 0.95637 0.0
H1683 H 0.83746 0.97251 0.98773 0.0
H1684 H 0.90132 0.00656 0.01975 0.0
H1685 H 0.87202 0.99447 0.99055 0.0
H1686 H 0.90087 0.91986 0.99106 0.0
H1687 H 0.93111 0.93247 0.01806 0.0
C1688 C 0.84502 0.90955 0.95693 0.0
C1689 C 0.8229 0.9163 0.96521 0.0
C1690 C 0.86492 0.9249 0.96114 0.0
C1691 C 0.86298 0.94663 0.97431 0.0
C1692 C 0.84007 0.95559 0.97827 0.0
C1693 C 0.82013 0.9407 0.97335 0.0
C1694 C 0.90165 0.98769 0.01335 0.0
C1695 C 0.91844 0.97042 0.02188 0.0
C1696 C 0.8847 0.98069 0.99657 0.0
C1697 C 0.88377 0.95608 0.98826 0.0
C1698 C 0.901 0.93913 0.99644 0.0
C1699 C 0.9181 0.94623 0.01275 0.0
H1700 H 0.33041 0.55042 0.00632 0.0
H1701 H 0.36752 0.61846 0.98959 0.0
H1702 H 0.36852 0.52847 0.00894 0.0
H1703 H 0.40528 0.59683 0.99254 0.0
H1704 H 0.44474 0.50875 0.03773 0.0
H1705 H 0.40518 0.52669 0.0326 0.0
H1706 H 0.42795 0.56581 0.97326 0.0
H1707 H 0.46765 0.54827 0.97863 0.0
C1708 C 0.34666 0.56069 0.00328 0.0
C1709 C 0.3459 0.58618 -0.00226 0.0
C1710 C 0.3685 0.54815 0.00483 0.0
C1711 C 0.38999 0.56082 0.00076 0.0
C1712 C 0.3891 0.58632 0.99533 0.0
C1713 C 0.3674 0.59881 0.99384 0.0
C1714 C 0.44125 0.52096 0.02343 0.0
C1715 C 0.45948 0.52723 0.0087 0.0
C1716 C 0.41849 0.53117 0.02043 0.0
C1717 C 0.41341 0.54792 0.00266 0.0
C1718 C 0.43137 0.55335 0.98739 0.0
C1719 C 0.45411 0.54315 0.99037 0.0
H1720 H 0.15795 0.61476 0.81988 0.0
H1721 H 0.20919 0.56592 0.79066 0.0
H1722 H 0.1799 0.65082 0.80644 0.0
H1723 H 0.23054 0.60187 0.77631 0.0
H1724 H 0.27537 0.67396 0.77255 0.0
H1725 H 0.25495 0.63643 0.78485 0.0
H1726 H 0.18713 0.67259 0.77294 0.0
H1727 H 0.20771 0.7105 0.7617 0.0
C1728 C 0.17397 0.61172 0.81067 0.0
C1729 C 0.18179 0.58743 0.80639 0.0
C1730 C 0.18642 0.63241 0.80266 0.0
C1731 C 0.20682 0.62938 0.78985 0.0
C1732 C 0.21505 0.60506 0.78621 0.0
C1733 C 0.20278 0.58437 0.7945 0.0
C1734 C 0.25607 0.6737 0.77206 0.0
C1735 C 0.24316 0.69524 0.76619 0.0
C1736 C 0.24432 0.65214 0.7792 0.0
C1737 C 0.21933 0.65151 0.78035 0.0
C1738 C 0.2064 0.67257 0.77298 0.0
C1739 C 0.21817 0.69423 0.76617 0.0
H1740 H 0.23288 0.45761 0.54965 0.0
H1741 H 0.19118 0.39007 0.55648 0.0
H1742 H 0.19647 0.48186 0.5472 0.0
H1743 H 0.15483 0.41445 0.55421 0.0
H1744 H 0.10409 0.45518 0.50451 0.0
H1745 H 0.14084 0.43457 0.51697 0.0
H1746 H 0.15736 0.49528 0.56289 0.0
H1747 H 0.12074 0.51606 0.55032 0.0
C1748 C 0.21603 0.44805 0.55168 0.0
C1749 C 0.21477 0.42187 0.55237 0.0
C1750 C 0.19517 0.46196 0.55015 0.0
C1751 C 0.17297 0.44979 0.54952 0.0
C1752 C 0.17185 0.42408 0.55387 0.0
C1753 C 0.19268 0.41019 0.55548 0.0
C1754 C 0.11583 0.46439 0.51685 0.0
C1755 C 0.10957 0.48713 0.52648 0.0
C1756 C 0.13658 0.4524 0.52432 0.0
C1757 C 0.15146 0.46306 0.54139 0.0
C1758 C 0.146 0.48656 0.54995 0.0
C1759 C 0.12516 0.49847 0.54262 0.0
H1760 H 0.85397 0.94864 0.81496 0.0
H1761 H 0.91348 0.89801 0.81579 0.0
H1762 H 0.82679 0.91386 0.80621 0.0
H1763 H 0.88628 0.86345 0.80702 0.0
H1764 H 0.83553 0.81725 0.76081 0.0
H1765 H 0.86105 0.85231 0.77219 0.0
H1766 H 0.81127 0.87287 0.82258 0.0
H1767 H 0.7856 0.83754 0.81129 0.0
C1768 C 0.86125 0.9301 0.81355 0.0
C1769 C 0.88598 0.92621 0.81595 0.0
C1770 C 0.84565 0.91018 0.80859 0.0
C1771 C 0.85444 0.886 0.80567 0.0
C1772 C 0.87903 0.88196 0.80883 0.0
C1773 C 0.89459 0.90178 0.81403 0.0
C1774 C 0.82987 0.82931 0.77422 0.0
C1775 C 0.80851 0.82455 0.78515 0.0
C1776 C 0.84462 0.84928 0.78086 0.0
C1777 C 0.83828 0.86518 0.79844 0.0
C1778 C 0.81659 0.86093 0.80897 0.0
C1779 C 0.80193 0.8407 0.8025 0.0
H1780 H 0.72464 0.07642 0.49149 0.0
H1781 H 0.68993 0.14801 0.48778 0.0
H1782 H 0.68687 0.05692 0.50165 0.0
H1783 H 0.65346 0.12928 0.4993 0.0
H1784 H 0.58413 0.08984 0.50037 0.0
H1785 H 0.62171 0.10574 0.48813 0.0
H1786 H 0.65893 0.05155 0.53018 0.0
H1787 H 0.62052 0.03421 0.5412 0.0
C1788 C 0.709 0.08796 0.49264 0.0
C1789 C 0.71042 0.11377 0.48849 0.0
C1790 C 0.6874 0.07686 0.4988 0.0
C1791 C 0.66684 0.0914 0.50129 0.0
C1792 C 0.66845 0.11713 0.49699 0.0
C1793 C 0.68968 0.12802 0.49041 0.0
C1794 C 0.60027 0.08144 0.50733 0.0
C1795 C 0.59926 0.06098 0.52212 0.0
C1796 C 0.62203 0.09066 0.5003 0.0
C1797 C 0.64367 0.0803 0.50833 0.0
C1798 C 0.64273 0.05993 0.52338 0.0
C1799 C 0.62073 0.0502 0.53001 0.0
H1800 H 0.23435 0.4665 0.79805 0.0
H1801 H 0.17148 0.42351 0.81298 0.0
H1802 H 0.25651 0.42799 0.79341 0.0
H1803 H 0.19344 0.38509 0.80791 0.0
H1804 H 0.24386 0.32045 0.81687 0.0
H1805 H 0.22504 0.3601 0.82489 0.0
H1806 H 0.25821 0.3933 0.76733 0.0
H1807 H 0.27743 0.35385 0.75959 0.0
C1808 C 0.22525 0.44884 0.8003 0.0
C1809 C 0.20114 0.44806 0.80584 0.0
C1810 C 0.23793 0.42676 0.79755 0.0
C1811 C 0.22678 0.40342 0.80031 0.0
C1812 C 0.2027 0.40272 0.806 0.0
C1813 C 0.19004 0.42477 0.80874 0.0
C1814 C 0.24737 0.33628 0.80608 0.0
C1815 C 0.26207 0.33392 0.78752 0.0
C1816 C 0.23643 0.35897 0.81058 0.0
C1817 C 0.23991 0.37985 0.79663 0.0
C1818 C 0.25528 0.37769 0.77854 0.0
C1819 C 0.26624 0.35501 0.77404 0.0
H1820 H 0.34204 0.54959 0.28959 0.0
H1821 H 0.40526 0.59414 0.30361 0.0
H1822 H 0.31806 0.58734 0.2881 0.0
H1823 H 0.38136 0.63188 0.30179 0.0
H1824 H 0.28899 0.66361 0.26317 0.0
H1825 H 0.31108 0.62477 0.26546 0.0
H1826 H 0.35123 0.65255 0.32384 0.0
H1827 H 0.32938 0.69166 0.32137 0.0
C1828 C 0.35087 0.56746 0.29208 0.0
C1829 C 0.37556 0.56886 0.29673 0.0
C1830 C 0.33712 0.5891 0.29122 0.0
C1831 C 0.34774 0.61262 0.29506 0.0
C1832 C 0.37254 0.61402 0.29919 0.0
C1833 C 0.38629 0.5924 0.29999 0.0
C1834 C 0.3023 0.66135 0.27671 0.0
C1835 C 0.30747 0.68083 0.29205 0.0
C1836 C 0.31495 0.63902 0.27802 0.0
C1837 C 0.33312 0.63565 0.29466 0.0
C1838 C 0.33765 0.65475 0.31055 0.0
C1839 C 0.32495 0.67707 0.30928 0.0
H1840 H 0.54791 0.65655 0.6498 0.0
H1841 H 0.59124 0.67239 0.59259 0.0
H1842 H 0.54611 0.61262 0.63901 0.0
H1843 H 0.58905 0.62891 0.58165 0.0
H1844 H 0.58648 0.54889 0.56686 0.0
H1845 H 0.59744 0.58532 0.58952 0.0
H1846 H 0.5238 0.59437 0.60634 0.0
H1847 H 0.5129 0.55758 0.58414 0.0
C1848 C 0.55755 0.65056 0.63529 0.0
C1849 C 0.56929 0.66792 0.62173 0.0
C1850 C 0.5564 0.62548 0.62907 0.0
C1851 C 0.56712 0.61747 0.60933 0.0
C1852 C 0.58069 0.63447 0.59702 0.0
C1853 C 0.58175 0.65947 0.60316 0.0
C1854 C 0.57266 0.55853 0.57557 0.0
C1855 C 0.54874 0.55078 0.57337 0.0
C1856 C 0.57898 0.57928 0.58862 0.0
C1857 C 0.56147 0.59274 0.59956 0.0
C1858 C 0.53774 0.58418 0.59833 0.0
C1859 C 0.53143 0.56331 0.58538 0.0
H1860 H 0.58723 0.25015 0.83011 0.0
H1861 H 0.62397 0.25656 0.89502 0.0
H1862 H 0.6253 0.24704 0.81186 0.0
H1863 H 0.66206 0.25227 0.87708 0.0
H1864 H 0.72889 0.26859 0.83803 0.0
H1865 H 0.69084 0.27067 0.85613 0.0
H1866 H 0.65876 0.22489 0.80311 0.0
H1867 H 0.69681 0.22389 0.78449 0.0
C1868 C 0.60344 0.25059 0.84058 0.0
C1869 C 0.60231 0.25369 0.86413 0.0
C1870 C 0.62549 0.24863 0.83007 0.0
C1871 C 0.64732 0.24942 0.84273 0.0
C1872 C 0.64602 0.25209 0.8664 0.0
C1873 C 0.62399 0.25435 0.87685 0.0
C1874 C 0.71377 0.25885 0.83022 0.0
C1875 C 0.7162 0.24603 0.80968 0.0
C1876 C 0.69173 0.25989 0.84077 0.0
C1877 C 0.67117 0.24792 0.83138 0.0
C1878 C 0.67374 0.23481 0.81092 0.0
C1879 C 0.69579 0.234 0.80023 0.0
H1880 H 0.04994 0.30817 0.15644 0.0
H1881 H 0.0378 0.27291 0.09143 0.0
H1882 H 0.05196 0.34894 0.13784 0.0
H1883 H 0.03956 0.31357 0.07298 0.0
H1884 H 0.08606 0.40767 0.08887 0.0
H1885 H 0.08221 0.36791 0.10874 0.0
H1886 H 0.01455 0.35441 0.07382 0.0
H1887 H 0.01775 0.39433 0.05464 0.0
C1888 C 0.04734 0.30922 0.13825 0.0
C1889 C 0.04368 0.28757 0.12529 0.0
C1890 C 0.04872 0.3324 0.12766 0.0
C1891 C 0.04602 0.33414 0.10408 0.0
C1892 C 0.0416 0.31257 0.09122 0.0
C1893 C 0.04061 0.28941 0.10174 0.0
C1894 C 0.0703 0.3963 0.08556 0.0
C1895 C 0.05233 0.40404 0.07003 0.0
C1896 C 0.06812 0.37365 0.09693 0.0
C1897 C 0.04809 0.35834 0.09271 0.0
C1898 C 0.03024 0.36591 0.07713 0.0
C1899 C 0.03224 0.38863 0.06601 0.0
H1900 H 0.97661 0.78585 0.34305 0.0
H1901 H 0.94134 0.74298 0.39368 0.0
H1902 H 0.93926 0.78749 0.32034 0.0
H1903 H 0.90472 0.74305 0.37078 0.0
H1904 H 0.83441 0.76538 0.33844 0.0
H1905 H 0.8723 0.76476 0.35958 0.0
H1906 H 0.90947 0.77103 0.29717 0.0
H1907 H 0.87131 0.77321 0.27629 0.0
C1908 C 0.96103 0.77628 0.34909 0.0
C1909 C 0.96206 0.76439 0.37029 0.0
C1910 C 0.93943 0.77717 0.33604 0.0
C1911 C 0.91827 0.7658 0.34361 0.0
C1912 C 0.91993 0.75293 0.3644 0.0
C1913 C 0.94123 0.75254 0.37754 0.0
C1914 C 0.85066 0.76675 0.32922 0.0
C1915 C 0.84958 0.76937 0.30558 0.0
C1916 C 0.87267 0.76611 0.34138 0.0
C1917 C 0.89458 0.76746 0.33036 0.0
C1918 C 0.89338 0.77023 0.30662 0.0
C1919 C 0.87131 0.77135 0.2945 0.0
H1920 H 0.55287 0.35026 0.89741 0.0
H1921 H 0.51355 0.30941 0.94671 0.0
H1922 H 0.54984 0.38809 0.92007 0.0
H1923 H 0.50931 0.34712 0.96872 0.0
H1924 H 0.52614 0.41173 0.0167 0.0
H1925 H 0.52817 0.37444 0.99335 0.0
H1926 H 0.52759 0.4205 0.93336 0.0
H1927 H 0.52683 0.45758 0.95683 0.0
C1928 C 0.54316 0.34946 0.91286 0.0
C1929 C 0.53353 0.32672 0.9202 0.0
C1930 C 0.54131 0.37125 0.92594 0.0
C1931 C 0.52945 0.37101 0.94661 0.0
C1932 C 0.51916 0.34828 0.9534 0.0
C1933 C 0.52135 0.32653 0.94054 0.0
C1934 C 0.52633 0.41385 -0.00148 0.0
C1935 C 0.52634 0.43775 0.98876 0.0
C1936 C 0.52737 0.39237 0.98498 0.0
C1937 C 0.52808 0.39406 0.96117 0.0
C1938 C 0.52761 0.41809 0.9515 0.0
C1939 C 0.52694 0.43951 0.96505 0.0
H1940 H 0.03339 0.20811 0.22029 0.0
H1941 H 0.98922 0.18641 0.16227 0.0
H1942 H 0.99902 0.20423 0.24422 0.0
H1943 H 0.95499 0.18285 0.18599 0.0
H1944 H 0.89558 0.17582 0.23284 0.0
H1945 H 0.93389 0.16445 0.21772 0.0
H1946 H 0.9649 0.23287 0.24413 0.0
H1947 H 0.92685 0.24433 0.25889 0.0
C1948 C 0.01655 0.20174 0.21278 0.0
C1949 C 0.01384 0.198 0.18937 0.0
C1950 C 0.99685 0.19969 0.22645 0.0
C1951 C 0.97423 0.19366 0.21692 0.0
C1952 C 0.97216 0.18744 0.1939 0.0
C1953 C 0.99177 0.18964 0.18025 0.0
C1954 C 0.91066 0.18829 0.23559 0.0
C1955 C 0.90807 0.21112 0.24685 0.0
C1956 C 0.9326 0.1817 0.22706 0.0
C1957 C 0.9524 0.19777 0.2297 0.0
C1958 C 0.95013 0.21985 0.24214 0.0
C1959 C 0.92823 0.22647 0.25057 0.0
H1960 H 0.04471 0.67789 0.40235 0.0
H1961 H 0.03603 0.70889 0.46875 0.0
H1962 H 0.05095 0.63649 0.41968 0.0
H1963 H 0.04111 0.66848 0.48553 0.0
H1964 H 0.06584 0.59818 0.51642 0.0
H1965 H 0.06743 0.63737 0.49579 0.0
H1966 H 0.03069 0.60283 0.43844 0.0
H1967 H 0.03023 0.56316 0.45886 0.0
C1968 C 0.04434 0.67602 0.42054 0.0
C1969 C 0.03971 0.6969 0.43401 0.0
C1970 C 0.04768 0.65223 0.43051 0.0
C1971 C 0.04666 0.64887 0.45418 0.0
C1972 C 0.0426 0.67 0.46742 0.0
C1973 C 0.03935 0.69342 0.4576 0.0
C1974 C 0.05826 0.59885 0.49935 0.0
C1975 C 0.04767 0.5775 0.48948 0.0
C1976 C 0.05903 0.62146 0.48745 0.0
C1977 C 0.04876 0.62369 0.46542 0.0
C1978 C 0.03893 0.60203 0.45523 0.0
C1979 C 0.03851 0.57924 0.46705 0.0
H1980 H 0.63882 0.7605 0.63464 0.0
H1981 H 0.59395 0.78964 0.68568 0.0
H1982 H 0.67402 0.77228 0.65723 0.0
H1983 H 0.62908 0.80365 0.70766 0.0
H1984 H 0.69127 0.78134 0.75539 0.0
H1985 H 0.65645 0.78464 0.73073 0.0
H1986 H 0.70125 0.79898 0.67411 0.0
H1987 H 0.73646 0.79368 0.69894 0.0
C1988 C 0.63661 0.77017 0.65046 0.0
C1989 C 0.61388 0.77378 0.65875 0.0
C1990 C 0.6568 0.77723 0.66338 0.0
C1991 C 0.65459 0.78868 0.68458 0.0
C1992 C 0.6316 0.79414 0.69184 0.0
C1993 C 0.61144 0.78629 0.67925 0.0
C1994 C 0.69374 0.78566 0.73776 0.0
C1995 C 0.71659 0.78673 0.72899 0.0
C1996 C 0.67362 0.78781 0.7235 0.0
C1997 C 0.67583 0.79168 0.70017 0.0
C1998 C 0.69879 0.79518 0.69182 0.0
C1999 C 0.719 0.79239 0.70606 0.0
H2000 H 0.57262 0.49761 0.70128 0.0
H2001 H 0.63965 0.46088 0.69143 0.0
H2002 H 0.55728 0.4819 0.66548 0.0
H2003 H 0.6238 0.44433 0.65537 0.0
H2004 H 0.52658 0.4467 0.60596 0.0
H2005 H 0.54366 0.44696 0.64437 0.0
H2006 H 0.61363 0.45952 0.61837 0.0
H2007 H 0.59679 0.458 0.58013 0.0
C2008 C 0.58406 0.48587 0.69161 0.0
C2009 C 0.6075 0.48071 0.69927 0.0
C2010 C 0.57508 0.47653 0.67107 0.0
C2011 C 0.58914 0.46155 0.65752 0.0
C2012 C 0.61249 0.45591 0.66531 0.0
C2013 C 0.62158 0.46541 0.68597 0.0
C2014 C 0.54571 0.4486 0.60842 0.0
C2015 C 0.56021 0.45289 0.58998 0.0
C2016 C 0.55551 0.44904 0.63047 0.0
C2017 C 0.57993 0.45416 0.63454 0.0
C2018 C 0.59476 0.45564 0.61599 0.0
C2019 C 0.58502 0.45483 0.59394 0.0
H2020 H 0.78234 0.34466 0.99602 0.0
H2021 H 0.78561 0.41832 0.96652 0.0
H2022 H 0.789 0.32618 0.95952 0.0
H2023 H 0.7926 0.39938 0.92941 0.0
H2024 H 0.83463 0.34316 0.87866 0.0
H2025 H 0.82729 0.36813 0.91242 0.0
H2026 H 0.76216 0.32689 0.92197 0.0
H2027 H 0.76898 0.30254 0.88834 0.0
C2028 C 0.78453 0.35695 0.98169 0.0
C2029 C 0.78332 0.38294 0.98406 0.0
C2030 C 0.78829 0.34631 0.9608 0.0
C2031 C 0.79117 0.36138 0.94175 0.0
C2032 C 0.79043 0.38746 0.94397 0.0
C2033 C 0.78629 0.39822 0.96505 0.0
C2034 C 0.81863 0.33967 0.88785 0.0
C2035 C 0.80271 0.32041 0.88118 0.0
C2036 C 0.8144 0.35402 0.90703 0.0
C2037 C 0.79427 0.34922 0.91975 0.0
C2038 C 0.77796 0.33071 0.91254 0.0
C2039 C 0.78205 0.31657 0.89345 0.0
H2040 H 0.92257 0.53018 0.17952 0.0
H2041 H 0.9931 0.53635 0.21079 0.0
H2042 H 0.93949 0.53781 0.14243 0.0
H2043 H 0.00967 0.54415 0.17422 0.0
H2044 H 0.03202 0.51436 0.10572 0.0
H2045 H 0.01421 0.51496 0.14244 0.0
H2046 H 0.96257 0.56868 0.1179 0.0
H2047 H 0.98049 0.56805 0.08074 0.0
C2048 C 0.94153 0.5336 0.17855 0.0
C2049 C 0.95655 0.53211 0.19801 0.0
C2050 C 0.9512 0.53803 0.15736 0.0
C2051 C 0.97596 0.54112 0.15543 0.0
C2052 C 0.99061 0.54127 0.17511 0.0
C2053 C 0.98106 0.53679 0.19608 0.0
C2054 C 0.01708 0.52658 0.10817 0.0
C2055 C 0.00774 0.54124 0.09035 0.0
C2056 C 0.00689 0.52697 0.12925 0.0
C2057 C 0.98701 0.54192 0.13306 0.0
C2058 C 0.97781 0.55691 0.11538 0.0
C2059 C 0.98821 0.55672 0.09423 0.0
H2060 H 0.7796 0.69129 0.46352 0.0
H2061 H 0.76768 0.61288 0.45016 0.0
H2062 H 0.75436 0.70191 0.43121 0.0
H2063 H 0.74195 0.62367 0.41726 0.0
H2064 H 0.74897 0.66449 0.34506 0.0
H2065 H 0.75276 0.64259 0.38085 0.0
H2066 H 0.71462 0.70158 0.41304 0.0
H2067 H 0.71152 0.72395 0.37713 0.0
C2068 C 0.7713 0.67628 0.4538 0.0
C2069 C 0.7759 0.65127 0.45913 0.0
C2070 C 0.75643 0.68237 0.43545 0.0
C2071 C 0.74588 0.66361 0.42182 0.0
C2072 C 0.74979 0.63848 0.42755 0.0
C2073 C 0.76463 0.63234 0.44619 0.0
C2074 C 0.7404 0.67222 0.35954 0.0
C2075 C 0.7306 0.69621 0.35863 0.0
C2076 C 0.74248 0.65959 0.38008 0.0
C2077 C 0.73468 0.67082 0.39985 0.0
C2078 C 0.72135 0.69287 0.39809 0.0
C2079 C 0.71957 0.70567 0.37762 0.0
H2080 H 0.60858 0.5369 0.79816 0.0
H2081 H 0.66194 0.49401 0.8347 0.0
H2082 H 0.59296 0.55115 0.83351 0.0
H2083 H 0.6452 0.5064 0.8703 0.0
H2084 H 0.61799 0.5383 0.93334 0.0
H2085 H 0.63798 0.53481 0.89793 0.0
H2086 H 0.56982 0.53784 0.86161 0.0
H2087 H 0.55027 0.54412 0.89669 0.0
C2088 C 0.61688 0.53043 0.81385 0.0
C2089 C 0.63634 0.51424 0.81374 0.0
C2090 C 0.60779 0.5384 0.83422 0.0
C2091 C 0.6174 0.52967 0.85504 0.0
C2092 C 0.6374 0.51394 0.8548 0.0
C2093 C 0.64696 0.5066 0.83437 0.0
C2094 C 0.60729 0.53908 0.91778 0.0
C2095 C 0.58234 0.5412 0.91809 0.0
C2096 C 0.61879 0.53654 0.89736 0.0
C2097 C 0.60565 0.53553 0.87666 0.0
C2098 C 0.58081 0.53874 0.87698 0.0
C2099 C 0.56941 0.54188 0.89731 0.0
H2100 H 0.77841 0.38913 0.11758 0.0
H2101 H 0.79777 0.31897 0.08774 0.0
H2102 H 0.77589 0.36822 0.15442 0.0
H2103 H 0.79491 0.29851 0.12381 0.0
H2104 H 0.81752 0.276 0.19503 0.0
H2105 H 0.81777 0.29804 0.15911 0.0
H2106 H 0.75311 0.33596 0.17542 0.0
H2107 H 0.75304 0.31414 0.21167 0.0
C2108 C 0.78199 0.36935 0.11879 0.0
C2109 C 0.78869 0.35592 0.09971 0.0
C2110 C 0.78047 0.35735 0.13984 0.0
C2111 C 0.78559 0.33174 0.14211 0.0
C2112 C 0.79147 0.31833 0.12285 0.0
C2113 C 0.79303 0.33019 0.10205 0.0
C2114 C 0.80321 0.28883 0.19091 0.0
C2115 C 0.78519 0.29312 0.20619 0.0
C2116 C 0.80334 0.30151 0.17029 0.0
C2117 C 0.78543 0.31878 0.16436 0.0
C2118 C 0.7673 0.32299 0.17957 0.0
C2119 C 0.76714 0.31025 0.20023 0.0
H2120 H 0.90018 0.50313 0.32702 0.0
H2121 H 0.9708 0.51838 0.30382 0.0
H2122 H 0.91752 0.4867 0.36248 0.0
H2123 H 0.98804 0.5031 0.33923 0.0
H2124 H 0.01661 0.45881 0.39678 0.0
H2125 H 0.99558 0.46698 0.36075 0.0
H2126 H 0.93781 0.49999 0.39624 0.0
H2127 H 0.95843 0.49085 0.43208 0.0
C2128 C 0.91937 0.50318 0.32961 0.0
C2129 C 0.93416 0.51205 0.31273 0.0
C2130 C 0.92932 0.49378 0.34989 0.0
C2131 C 0.95423 0.49333 0.35369 0.0
C2132 C 0.96885 0.50247 0.33675 0.0
C2133 C 0.95895 0.51154 0.3165 0.0
C2134 C 0.9992 0.46736 0.39678 0.0
C2135 C 0.98916 0.47423 0.41715 0.0
C2136 C 0.98721 0.47224 0.37619 0.0
C2137 C 0.96515 0.48458 0.37553 0.0
C2138 C 0.95461 0.49027 0.39603 0.0
C2139 C 0.96645 0.48504 0.41661 0.0
H2140 H 0.83982 0.66086 0.5773 0.0
H2141 H 0.83522 0.73351 0.54587 0.0
H2142 H 0.85268 0.68009 0.61273 0.0
H2143 H 0.84918 0.7528 0.5812 0.0
H2144 H 0.86707 0.71658 0.67731 0.0
H2145 H 0.87667 0.70482 0.63885 0.0
H2146 H 0.82426 0.75694 0.61254 0.0
H2147 H 0.81475 0.7684 0.65033 0.0
C2148 C 0.84242 0.6809 0.57774 0.0
C2149 C 0.8357 0.69579 0.5591 0.0
C2150 C 0.85005 0.69196 0.59806 0.0
C2151 C 0.85135 0.71807 0.59995 0.0
C2152 C 0.84768 0.73267 0.58042 0.0
C2153 C 0.83965 0.72165 0.56021 0.0
C2154 C 0.85801 0.72584 0.66323 0.0
C2155 C 0.83987 0.74312 0.6669 0.0
C2156 C 0.86358 0.7192 0.64124 0.0
C2157 C 0.85107 0.72972 0.62261 0.0
C2158 C 0.83456 0.74867 0.62639 0.0
C2159 C 0.82901 0.75524 0.64824 0.0
H2160 H 0.76492 0.59511 0.52034 0.0
H2161 H 0.70902 0.64858 0.50712 0.0
H2162 H 0.73709 0.56123 0.51296 0.0
H2163 H 0.68047 0.61441 0.50116 0.0
H2164 H 0.63595 0.55063 0.47683 0.0
H2165 H 0.66762 0.58184 0.47701 0.0
H2166 H 0.7061 0.54032 0.5291 0.0
H2167 H 0.67548 0.50829 0.52752 0.0
C2168 C 0.74647 0.59962 0.51639 0.0
C2169 C 0.73902 0.62452 0.51468 0.0
C2170 C 0.73048 0.58012 0.51211 0.0
C2171 C 0.70645 0.58496 0.50654 0.0
C2172 C 0.69893 0.60994 0.50498 0.0
C2173 C 0.71515 0.62955 0.50876 0.0
C2174 C 0.65163 0.54768 0.48765 0.0
C2175 C 0.65307 0.52714 0.50239 0.0
C2176 C 0.66957 0.56588 0.48812 0.0
C2177 C 0.68915 0.56402 0.5035 0.0
C2178 C 0.69137 0.54248 0.51698 0.0
C2179 C 0.67368 0.52414 0.51623 0.0
H2180 H 0.23167 0.97423 0.55277 0.0
H2181 H 0.2006 0.90045 0.55564 0.0
H2182 H 0.19174 0.99234 0.55291 0.0
H2183 H 0.16095 0.91842 0.55574 0.0
H2184 H 0.093 0.95846 0.57221 0.0
H2185 H 0.13385 0.94381 0.57805 0.0
H2186 H 0.15686 0.99354 0.52563 0.0
H2187 H 0.11612 0.00827 0.51983 0.0
C2188 C 0.21638 0.96191 0.55377 0.0
C2189 C 0.21932 0.93591 0.55413 0.0
C2190 C 0.1935 0.97226 0.55369 0.0
C2191 C 0.17311 0.95683 0.55427 0.0
C2192 C 0.17621 0.93088 0.55552 0.0
C2193 C 0.19898 0.92056 0.55534 0.0
C2194 C 0.1068 0.96646 0.56208 0.0
C2195 C 0.10121 0.98444 0.54545 0.0
C2196 C 0.13021 0.95798 0.56536 0.0
C2197 C 0.14864 0.96743 0.55226 0.0
C2198 C 0.14317 0.98603 0.53617 0.0
C2199 C 0.11975 0.99435 0.53275 0.0
H2200 H 0.41471 0.91203 0.75332 0.0
H2201 H 0.35756 0.96167 0.7689 0.0
H2202 H 0.38937 0.87632 0.76082 0.0
H2203 H 0.33241 0.92591 0.77782 0.0
H2204 H 0.28656 0.85444 0.77039 0.0
H2205 H 0.31019 0.89199 0.76428 0.0
H2206 H 0.37319 0.85367 0.78963 0.0
H2207 H 0.34969 0.81582 0.79425 0.0
C2208 C 0.39669 0.91527 0.75848 0.0
C2209 C 0.38811 0.93962 0.7605 0.0
C2210 C 0.38219 0.89476 0.76308 0.0
C2211 C 0.35885 0.89804 0.7704 0.0
C2212 C 0.35015 0.92251 0.77206 0.0
C2213 C 0.36456 0.94307 0.76697 0.0
C2214 C 0.30539 0.85426 0.77501 0.0
C2215 C 0.31633 0.83222 0.78271 0.0
C2216 C 0.31901 0.87582 0.77151 0.0
C2217 C 0.34381 0.87591 0.77604 0.0
C2218 C 0.35434 0.85419 0.78518 0.0
C2219 C 0.34083 0.83254 0.78816 0.0
H2220 H 0.38195 0.12638 0.02391 0.0
H2221 H 0.3428 0.058 0.03509 0.0
H2222 H 0.41936 0.10412 0.02989 0.0
H2223 H 0.38039 0.03567 0.04078 0.0
H2224 H 0.48059 0.06066 0.0619 0.0
H2225 H 0.44125 0.07947 0.06281 0.0
H2226 H 0.41471 0.02726 0.01233 0.0
H2227 H 0.45411 0.00846 0.01115 0.0
C2228 C 0.38138 0.10663 0.02775 0.0
C2229 C 0.3596 0.09383 0.02895 0.0
C2230 C 0.40272 0.09398 0.03133 0.0
C2231 C 0.40256 0.06829 0.03584 0.0
C2232 C 0.38081 0.0555 0.0373 0.0
C2233 C 0.35942 0.06826 0.0341 0.0
C2234 C 0.46629 0.05293 0.05124 0.0
C2235 C 0.47041 0.0333 0.03625 0.0
C2236 C 0.44387 0.06373 0.05176 0.0
C2237 C 0.4252 0.05481 0.03757 0.0
C2238 C 0.42891 0.0343 0.02351 0.0
C2239 C 0.45143 0.02369 0.02275 0.0
H2240 H 0.63863 0.59979 0.75406 0.0
H2241 H 0.70205 0.55583 0.7467 0.0
H2242 H 0.66253 0.63767 0.75358 0.0
H2243 H 0.72607 0.59415 0.74645 0.0
H2244 H 0.75662 0.67406 0.72984 0.0
H2245 H 0.73375 0.63501 0.72515 0.0
H2246 H 0.69166 0.65484 0.78185 0.0
H2247 H 0.71403 0.69336 0.78646 0.0
C2248 C 0.65766 0.59814 0.7522 0.0
C2249 C 0.66841 0.57465 0.75072 0.0
C2250 C 0.67137 0.61993 0.75198 0.0
C2251 C 0.69621 0.61887 0.7503 0.0
C2252 C 0.70695 0.59552 0.74771 0.0
C2253 C 0.69317 0.57359 0.74795 0.0
C2254 C 0.74246 0.67001 0.74124 0.0
C2255 C 0.73708 0.68692 0.75842 0.0
C2256 C 0.72946 0.64765 0.73862 0.0
C2257 C 0.71073 0.64203 0.75297 0.0
C2258 C 0.70566 0.65884 0.77024 0.0
C2259 C 0.71864 0.68091 0.77294 0.0
H2260 H 0.85469 0.42374 0.99269 0.0
H2261 H 0.8504 0.44679 0.06217 0.0
H2262 H 0.89031 0.44982 0.98875 0.0
H2263 H 0.88668 0.47225 0.05841 0.0
H2264 H 0.97095 0.47017 0.04455 0.0
H2265 H 0.93125 0.4521 0.04777 0.0
H2266 H 0.90434 0.50088 0.995 0.0
H2267 H 0.94423 0.51986 0.99222 0.0
C2268 C 0.86121 0.4347 0.00701 0.0
C2269 C 0.84988 0.43325 0.02775 0.0
C2270 C 0.88148 0.44966 0.00471 0.0
C2271 C 0.89117 0.46297 0.02327 0.0
C2272 C 0.87944 0.46219 0.04384 0.0
C2273 C 0.85872 0.44772 0.04597 0.0
C2274 C 0.95663 0.4771 0.03357 0.0
C2275 C 0.96078 0.49633 0.01798 0.0
C2276 C 0.93387 0.4669 0.03562 0.0
C2277 C 0.91478 0.47527 0.02179 0.0
C2278 C 0.91882 0.49426 0.00594 0.0
C2279 C 0.94159 0.50501 0.0043 0.0
H2280 H 0.33816 0.05956 0.73513 0.0
H2281 H 0.40361 0.10216 0.74197 0.0
H2282 H 0.31543 0.09825 0.73388 0.0
H2283 H 0.3809 0.14076 0.74066 0.0
H2284 H 0.33399 0.20651 0.72146 0.0
H2285 H 0.35388 0.16685 0.71549 0.0
H2286 H 0.30799 0.13121 0.76296 0.0
H2287 H 0.28811 0.17079 0.76899 0.0
C2288 C 0.34771 0.07717 0.73604 0.0
C2289 C 0.37268 0.07781 0.73877 0.0
C2290 C 0.33468 0.0993 0.73544 0.0
C2291 C 0.34637 0.12253 0.73725 0.0
C2292 C 0.37139 0.12316 0.73902 0.0
C2293 C 0.3844 0.10104 0.73989 0.0
C2294 C 0.32788 0.19013 0.73035 0.0
C2295 C 0.30955 0.19184 0.74581 0.0
C2296 C 0.33938 0.16746 0.72702 0.0
C2297 C 0.33259 0.14596 0.73885 0.0
C2298 C 0.31351 0.14741 0.75347 0.0
C2299 C 0.30219 0.17012 0.757 0.0
H2300 H 0.22746 0.95828 0.25169 0.0
H2301 H 0.16293 0.91487 0.258 0.0
H2302 H 0.25054 0.91976 0.25054 0.0
H2303 H 0.18592 0.87653 0.25656 0.0
H2304 H 0.27953 0.84467 0.28424 0.0
H2305 H 0.25951 0.88477 0.27978 0.0
H2306 H 0.21157 0.8528 0.22887 0.0
H2307 H 0.23165 0.81276 0.2331 0.0
C2308 C 0.21819 0.94053 0.25259 0.0
C2309 C 0.19341 0.93956 0.25501 0.0
C2310 C 0.23141 0.91854 0.25201 0.0
C2311 C 0.22 0.8952 0.2534 0.0
C2312 C 0.19515 0.89426 0.25522 0.0
C2313 C 0.18201 0.91621 0.25618 0.0
C2314 C 0.26497 0.8463 0.27183 0.0
C2315 C 0.2571 0.8255 0.25911 0.0
C2316 C 0.25359 0.86928 0.26923 0.0
C2317 C 0.2339 0.87181 0.25409 0.0
C2318 C 0.22658 0.85128 0.24079 0.0
C2319 C 0.23817 0.82841 0.24315 0.0
H2320 H 0.44596 0.37936 0.39799 0.0
H2321 H 0.50885 0.40485 0.36531 0.0
H2322 H 0.45309 0.40927 0.42786 0.0
H2323 H 0.51579 0.43594 0.3948 0.0
H2324 H 0.54891 0.4301 0.46739 0.0
H2325 H 0.53246 0.42078 0.42976 0.0
H2326 H 0.46281 0.4437 0.45016 0.0
H2327 H 0.47892 0.45144 0.48799 0.0
C2328 C 0.46026 0.39286 0.39624 0.0
C2329 C 0.47764 0.38904 0.38027 0.0
C2330 C 0.46462 0.40991 0.41363 0.0
C2331 C 0.48599 0.42379 0.41449 0.0
C2332 C 0.49986 0.42444 0.39518 0.0
C2333 C 0.49553 0.4071 0.37791 0.0
C2334 C 0.53001 0.43258 0.46393 0.0
C2335 C 0.5152 0.44082 0.48086 0.0
C2336 C 0.52063 0.42797 0.44217 0.0
C2337 C 0.4963 0.43195 0.43673 0.0
C2338 C 0.48155 0.4403 0.45371 0.0
C2339 C 0.4908 0.44438 0.47554 0.0
H2340 H 0.47778 0.74765 0.22016 0.0
H2341 H 0.43994 0.76666 0.15794 0.0
H2342 H 0.44018 0.74799 0.23992 0.0
H2343 H 0.4027 0.76764 0.17754 0.0
H2344 H 0.33531 0.74527 0.21306 0.0
H2345 H 0.37305 0.74381 0.19432 0.0
H2346 H 0.40919 0.77315 0.25427 0.0
H2347 H 0.37123 0.774 0.27329 0.0
C2348 C 0.46147 0.75182 0.21063 0.0
C2349 C 0.46209 0.75696 0.18732 0.0
C2350 C 0.43981 0.75226 0.22204 0.0
C2351 C 0.418 0.75783 0.21052 0.0
C2352 C 0.41877 0.76282 0.18716 0.0
C2353 C 0.44034 0.76238 0.17582 0.0
C2354 C 0.35124 0.75155 0.22232 0.0
C2355 C 0.34993 0.75989 0.24479 0.0
C2356 C 0.37307 0.75082 0.21144 0.0
C2357 C 0.39458 0.75843 0.22254 0.0
C2358 C 0.39328 0.76681 0.24507 0.0
C2359 C 0.37135 0.76753 0.25599 0.0
H2360 H 0.01285 0.74646 0.89339 0.0
H2361 H 0.02675 0.78318 0.95741 0.0
H2362 H 0.01958 0.70626 0.91129 0.0
H2363 H 0.03465 0.74298 0.97523 0.0
H2364 H 0.99953 0.67222 0.00311 0.0
H2365 H 0.00603 0.71229 0.98494 0.0
H2366 H 0.04212 0.67547 0.93118 0.0
H2367 H 0.03479 0.63525 0.94915 0.0
C2368 C 0.01843 0.746 0.91109 0.0
C2369 C 0.01876 0.7678 0.92416 0.0
C2370 C 0.02229 0.72291 0.9214 0.0
C2371 C 0.02691 0.72138 0.94486 0.0
C2372 C 0.03028 0.74351 0.95728 0.0
C2373 C 0.02601 0.76654 0.94706 0.0
C2374 C 0.00889 0.67279 0.98744 0.0
C2375 C 0.01638 0.65077 0.97733 0.0
C2376 C 0.01292 0.69573 0.97715 0.0
C2377 C 0.02483 0.69713 0.95668 0.0
C2378 C 0.03271 0.67502 0.94681 0.0
C2379 C 0.02842 0.65203 0.957 0.0
H2380 H 0.08772 0.2652 0.70407 0.0
H2381 H 0.1237 0.26537 0.64092 0.0
H2382 H 0.12652 0.26388 0.72454 0.0
H2383 H 0.16176 0.2632 0.66098 0.0
H2384 H 0.22935 0.28318 0.70076 0.0
H2385 H 0.19007 0.28552 0.68208 0.0
H2386 H 0.16081 0.24019 0.73483 0.0
H2387 H 0.20003 0.23867 0.7539 0.0
C2388 C 0.10378 0.26486 0.69452 0.0
C2389 C 0.10227 0.26565 0.67073 0.0
C2390 C 0.12615 0.26396 0.70626 0.0
C2391 C 0.14768 0.26368 0.69457 0.0
C2392 C 0.14594 0.26407 0.67083 0.0
C2393 C 0.12381 0.26515 0.6592 0.0
C2394 C 0.21459 0.27359 0.70835 0.0
C2395 C 0.2181 0.26061 0.72883 0.0
C2396 C 0.19189 0.27483 0.69755 0.0
C2397 C 0.17187 0.26292 0.70671 0.0
C2398 C 0.17546 0.24992 0.72724 0.0
C2399 C 0.19815 0.24883 0.73812 0.0
H2400 H 0.50646 0.70596 0.08356 0.0
H2401 H 0.53652 0.67742 0.14634 0.0
H2402 H 0.50816 0.66472 0.0668 0.0
H2403 H 0.53868 0.63568 0.12934 0.0
H2404 H 0.52249 0.55958 0.09248 0.0
H2405 H 0.51788 0.59894 0.11259 0.0
H2406 H 0.53967 0.63923 0.05357 0.0
H2407 H 0.54392 0.60004 0.03341 0.0
C2408 C 0.51301 0.69066 0.09396 0.0
C2409 C 0.52131 0.69502 0.11632 0.0
C2410 C 0.51432 0.66701 0.08422 0.0
C2411 C 0.52417 0.64685 0.09642 0.0
C2412 C 0.53104 0.65074 0.11935 0.0
C2413 C 0.52963 0.67462 0.1292 0.0
C2414 C 0.52644 0.57684 0.08381 0.0
C2415 C 0.53349 0.57653 0.06119 0.0
C2416 C 0.52385 0.59945 0.09542 0.0
C2417 C 0.52807 0.62243 0.08471 0.0
C2418 C 0.53572 0.62201 0.06229 0.0
C2419 C 0.53838 0.59945 0.05073 0.0
H2420 H 0.03267 0.80277 0.81414 0.0
H2421 H 0.06605 0.84666 0.8678 0.0
H2422 H 0.07053 0.80118 0.79528 0.0
H2423 H 0.10392 0.84427 0.84955 0.0
H2424 H 0.14731 0.77311 0.78902 0.0
H2425 H 0.10739 0.78033 0.80183 0.0
H2426 H 0.12695 0.85647 0.81842 0.0
H2427 H 0.1673 0.84884 0.80612 0.0
C2428 C 0.04807 0.81214 0.82183 0.0
C2429 C 0.04648 0.82469 0.84248 0.0
C2430 C 0.06977 0.81115 0.81111 0.0
C2431 C 0.0903 0.82247 0.82098 0.0
C2432 C 0.08842 0.83568 0.84128 0.0
C2433 C 0.06673 0.83687 0.85186 0.0
C2434 C 0.14294 0.79151 0.79506 0.0
C2435 C 0.16033 0.81043 0.79663 0.0
C2436 C 0.12003 0.7957 0.80232 0.0
C2437 C 0.11394 0.81899 0.81116 0.0
C2438 C 0.13117 0.8382 0.81202 0.0
C2439 C 0.15422 0.8339 0.80496 0.0
H2440 H 0.03685 0.34974 0.65674 0.0
H2441 H 0.01844 0.30977 0.59539 0.0
H2442 H 0.03882 0.38866 0.63525 0.0
H2443 H 0.01864 0.34835 0.57419 0.0
H2444 H 0.04002 0.41672 0.53571 0.0
H2445 H 0.04016 0.37862 0.55788 0.0
H2446 H 0.01957 0.4204 0.61635 0.0
H2447 H 0.02116 0.45876 0.5943 0.0
C2448 C 0.03306 0.34931 0.63868 0.0
C2449 C 0.02771 0.32659 0.62779 0.0
C2450 C 0.03395 0.37171 0.62628 0.0
C2451 C 0.029 0.37207 0.60269 0.0
C2452 C 0.0233 0.34918 0.59206 0.0
C2453 C 0.02297 0.32687 0.60433 0.0
C2454 C 0.03542 0.41774 0.55328 0.0
C2455 C 0.03044 0.44082 0.56313 0.0
C2456 C 0.03534 0.39574 0.56611 0.0
C2457 C 0.02966 0.39594 0.58915 0.0
C2458 C 0.02445 0.41917 0.59889 0.0
C2459 C 0.02509 0.44128 0.58614 0.0
H2460 H 0.43935 0.29142 0.34206 0.0
H2461 H 0.41297 0.28928 0.40965 0.0
H2462 H 0.40566 0.26596 0.32876 0.0
H2463 H 0.37983 0.26294 0.39661 0.0
H2464 H 0.34849 0.21757 0.30648 0.0
H2465 H 0.38496 0.22683 0.32847 0.0
H2466 H 0.34458 0.27032 0.37481 0.0
H2467 H 0.30826 0.26028 0.35347 0.0
C2468 C 0.42652 0.2852 0.35411 0.0
C2469 C 0.42849 0.29279 0.37674 0.0
C2470 C 0.40737 0.27029 0.3466 0.0
C2471 C 0.39 0.26236 0.36165 0.0
C2472 C 0.39266 0.26902 0.38452 0.0
C2473 C 0.4116 0.28422 0.39195 0.0
C2474 C 0.34731 0.22822 0.32192 0.0
C2475 C 0.32566 0.23885 0.32789 0.0
C2476 C 0.36824 0.23376 0.33437 0.0
C2477 C 0.36781 0.2501 0.35286 0.0
C2478 C 0.34566 0.25779 0.36058 0.0
C2479 C 0.32472 0.25203 0.34829 0.0
H2480 H 0.47658 0.5204 0.35102 0.0
H2481 H 0.41218 0.50979 0.38746 0.0
H2482 H 0.49913 0.52639 0.38635 0.0
H2483 H 0.43494 0.51409 0.42315 0.0
H2484 H 0.47663 0.5396 0.48466 0.0
H2485 H 0.45517 0.54077 0.44813 0.0
H2486 H 0.51513 0.50606 0.4173 0.0
H2487 H 0.53691 0.50656 0.45335 0.0
C2488 C 0.4673 0.51896 0.36668 0.0
C2489 C 0.44263 0.51453 0.3665 0.0
C2490 C 0.48027 0.5223 0.38704 0.0
C2491 C 0.46902 0.52072 0.40783 0.0
C2492 C 0.44426 0.51602 0.40757 0.0
C2493 C 0.43118 0.51324 0.38712 0.0
C2494 C 0.48546 0.53307 0.46985 0.0
C2495 C 0.50857 0.52333 0.47183 0.0
C2496 C 0.473 0.53326 0.44895 0.0
C2497 C 0.48316 0.52317 0.42962 0.0
C2498 C 0.50672 0.51442 0.43155 0.0
C2499 C 0.51934 0.51477 0.45231 0.0
H2500 H 0.29827 0.69573 0.0527 0.0
H2501 H 0.27778 0.61937 0.06542 0.0
H2502 H 0.29656 0.70494 0.09276 0.0
H2503 H 0.2759 0.62866 0.10591 0.0
H2504 H 0.23731 0.6743 0.1638 0.0
H2505 H 0.24722 0.65625 0.12733 0.0
H2506 H 0.31486 0.69519 0.13057 0.0
H2507 H 0.305 0.71315 0.16671 0.0
C2508 C 0.29396 0.68077 0.06422 0.0
C2509 C 0.28813 0.65689 0.05606 0.0
C2510 C 0.29304 0.686 0.08716 0.0
C2511 C 0.28597 0.66752 0.10242 0.0
C2512 C 0.28126 0.64324 0.09444 0.0
C2513 C 0.28257 0.63789 0.07139 0.0
C2514 C 0.2544 0.67864 0.15681 0.0
C2515 C 0.2701 0.69563 0.1677 0.0
C2516 C 0.26016 0.66821 0.13607 0.0
C2517 C 0.28171 0.67457 0.12606 0.0
C2518 C 0.29797 0.69031 0.13772 0.0
C2519 C 0.29224 0.70071 0.15831 0.0
H2520 H 0.16108 0.5024 0.89046 0.0
H2521 H 0.10236 0.52751 0.84732 0.0
H2522 H 0.13515 0.50314 0.92291 0.0
H2523 H 0.07666 0.52777 0.87925 0.0
H2524 H 0.07444 0.47969 0.96871 0.0
H2525 H 0.10025 0.47966 0.93646 0.0
H2526 H 0.07029 0.54976 0.91399 0.0
H2527 H 0.04424 0.54961 0.94589 0.0
C2528 C 0.14278 0.50833 0.88797 0.0
C2529 C 0.13378 0.51491 0.86637 0.0
C2530 C 0.12787 0.50848 0.90644 0.0
C2531 C 0.10379 0.51537 0.90361 0.0
C2532 C 0.09512 0.5226 0.88209 0.0
C2533 C 0.1099 0.52237 0.86374 0.0
C2534 C 0.07304 0.49486 0.95665 0.0
C2535 C 0.05719 0.51461 0.95984 0.0
C2536 C 0.0881 0.49502 0.93837 0.0
C2537 C 0.08754 0.51485 0.92283 0.0
C2538 C 0.07109 0.53413 0.92559 0.0
C2539 C 0.05609 0.534 0.94386 0.0
H2540 H 0.31279 0.39303 0.56657 0.0
H2541 H 0.31059 0.31385 0.55351 0.0
H2542 H 0.3334 0.38552 0.60283 0.0
H2543 H 0.32988 0.3061 0.5901 0.0
H2544 H 0.35955 0.2916 0.65606 0.0
H2545 H 0.36091 0.30756 0.6175 0.0
H2546 H 0.31884 0.37081 0.6367 0.0
H2547 H 0.31873 0.35544 0.67514 0.0
C2548 C 0.3169 0.37401 0.57143 0.0
C2549 C 0.30968 0.35394 0.55754 0.0
C2550 C 0.3287 0.3697 0.59218 0.0
C2551 C 0.33296 0.3452 0.59966 0.0
C2552 C 0.32723 0.32527 0.58492 0.0
C2553 C 0.31589 0.32964 0.56397 0.0
C2554 C 0.35151 0.30944 0.65207 0.0
C2555 C 0.33875 0.32218 0.6683 0.0
C2556 C 0.35207 0.31848 0.63 0.0
C2557 C 0.33934 0.34005 0.62376 0.0
C2558 C 0.32893 0.35419 0.64075 0.0
C2559 C 0.32877 0.34537 0.66288 0.0
H2560 H 0.45917 0.45411 0.24972 0.0
H2561 H 0.42413 0.52444 0.23717 0.0
H2562 H 0.46774 0.45084 0.20996 0.0
H2563 H 0.43294 0.52115 0.19695 0.0
H2564 H 0.48942 0.51966 0.1394 0.0
H2565 H 0.4719 0.52273 0.17636 0.0
H2566 H 0.44839 0.44603 0.17117 0.0
H2567 H 0.4661 0.44293 0.13405 0.0
C2568 C 0.45315 0.46884 0.2384 0.0
C2569 C 0.44122 0.48971 0.24663 0.0
C2570 C 0.45786 0.4668 0.21555 0.0
C2571 C 0.45102 0.48571 0.20033 0.0
C2572 C 0.4385 0.50633 0.20836 0.0
C2573 C 0.4334 0.50819 0.23131 0.0
C2574 C 0.48041 0.50348 0.14612 0.0
C2575 C 0.47945 0.48091 0.13405 0.0
C2576 C 0.47012 0.50535 0.16715 0.0
C2577 C 0.45882 0.48462 0.17667 0.0
C2578 C 0.45713 0.46227 0.16426 0.0
C2579 C 0.46719 0.46049 0.14305 0.0
H2580 H 0.26797 0.68921 0.95317 0.0
H2581 H 0.29005 0.62668 0.91337 0.0
H2582 H 0.26736 0.71561 0.91972 0.0
H2583 H 0.28919 0.65319 0.87965 0.0
H2584 H 0.31606 0.71511 0.8335 0.0
H2585 H 0.31375 0.68871 0.86679 0.0
H2586 H 0.24696 0.72256 0.88271 0.0
H2587 H 0.24929 0.74925 0.84937 0.0
C2588 C 0.27236 0.681 0.93717 0.0
C2589 C 0.2792 0.6559 0.9359 0.0
C2590 C 0.27192 0.69614 0.91799 0.0
C2591 C 0.27845 0.68657 0.8971 0.0
C2592 C 0.28443 0.66119 0.89562 0.0
C2593 C 0.28471 0.64595 0.91485 0.0
C2594 C 0.30099 0.71719 0.84421 0.0
C2595 C 0.28286 0.73435 0.83877 0.0
C2596 C 0.29954 0.70181 0.86315 0.0
C2597 C 0.28 0.70328 0.87718 0.0
C2598 C 0.26226 0.72102 0.87222 0.0
C2599 C 0.26364 0.73637 0.85317 0.0
H2600 H 0.09369 0.49539 0.75268 0.0
H2601 H 0.16435 0.52074 0.73712 0.0
H2602 H 0.08144 0.49817 0.713 0.0
H2603 H 0.15204 0.52361 0.69699 0.0
H2604 H 0.10377 0.56436 0.64057 0.0
H2605 H 0.1233 0.55331 0.67685 0.0
H2606 H 0.08754 0.48169 0.67486 0.0
H2607 H 0.06809 0.49268 0.63889 0.0
C2608 C 0.10677 0.50089 0.74059 0.0
C2609 C 0.1299 0.50791 0.74784 0.0
C2610 C 0.09979 0.50245 0.71787 0.0
C2611 C 0.11575 0.51133 0.70196 0.0
C2612 C 0.13936 0.51693 0.70899 0.0
C2613 C 0.14647 0.51501 0.73182 0.0
C2614 C 0.10028 0.54623 0.64787 0.0
C2615 C 0.08393 0.52967 0.63727 0.0
C2616 C 0.11159 0.5398 0.66847 0.0
C2617 C 0.1068 0.51669 0.67868 0.0
C2618 C 0.09127 0.49976 0.66753 0.0
C2619 C 0.07998 0.50618 0.64707 0.0
H2620 H 0.20092 0.39314 0.45829 0.0
H2621 H 0.23439 0.32277 0.47454 0.0
H2622 H 0.1826 0.37476 0.4241 0.0
H2623 H 0.21636 0.30457 0.44043 0.0
H2624 H 0.1854 0.27362 0.3794 0.0
H2625 H 0.18041 0.29251 0.4164 0.0
H2626 H 0.2052 0.36309 0.39066 0.0
H2627 H 0.21099 0.34447 0.35444 0.0
C2628 C 0.20405 0.37367 0.45473 0.0
C2629 C 0.21952 0.3595 0.4687 0.0
C2630 C 0.19343 0.36314 0.4353 0.0
C2631 C 0.19809 0.33829 0.42961 0.0
C2632 C 0.21214 0.32367 0.44452 0.0
C2633 C 0.2228 0.33421 0.46387 0.0
C2634 C 0.18925 0.29331 0.38152 0.0
C2635 C 0.19935 0.30726 0.3641 0.0
C2636 C 0.1862 0.30412 0.40263 0.0
C2637 C 0.19289 0.32909 0.40647 0.0
C2638 C 0.19979 0.34382 0.38822 0.0
C2639 C 0.20312 0.33301 0.36728 0.0
H2640 H 0.29308 0.44524 0.48949 0.0
H2641 H 0.33196 0.38987 0.45334 0.0
H2642 H 0.32875 0.46938 0.49551 0.0
H2643 H 0.36771 0.41561 0.45717 0.0
H2644 H 0.4276 0.43122 0.50904 0.0
H2645 H 0.39317 0.41809 0.48712 0.0
H2646 H 0.36236 0.49125 0.49455 0.0
H2647 H 0.39554 0.50318 0.51945 0.0
C2648 C 0.30913 0.43874 0.48187 0.0
C2649 C 0.31004 0.41486 0.47221 0.0
C2650 C 0.32984 0.45285 0.4852 0.0
C2651 C 0.35177 0.44378 0.47814 0.0
C2652 C 0.35152 0.4224 0.46426 0.0
C2653 C 0.33086 0.40779 0.46162 0.0
C2654 C 0.41321 0.44438 0.50672 0.0
C2655 C 0.41418 0.46801 0.51699 0.0
C2656 C 0.39358 0.43707 0.49325 0.0
C2657 C 0.3745 0.45343 0.48889 0.0
C2658 C 0.37621 0.47772 0.4979 0.0
C2659 C 0.39554 0.48474 0.51209 0.0
H2660 H 0.86755 0.12035 0.49892 0.0
H2661 H 0.82869 0.05156 0.5087 0.0
H2662 H 0.90489 0.09808 0.50226 0.0
H2663 H 0.86655 0.029 0.51196 0.0
H2664 H 0.96626 0.04978 0.48466 0.0
H2665 H 0.92677 0.06791 0.48007 0.0
H2666 H 0.9033 0.02551 0.53726 0.0
H2667 H 0.94285 0.00708 0.54178 0.0
C2668 C 0.86694 0.10042 0.50183 0.0
C2669 C 0.84506 0.08774 0.50348 0.0
C2670 C 0.88843 0.0876 0.50356 0.0
C2671 C 0.88874 0.0617 0.50706 0.0
C2672 C 0.86691 0.04898 0.50927 0.0
C2673 C 0.84524 0.06187 0.50739 0.0
C2674 C 0.95265 0.04407 0.49613 0.0
C2675 C 0.95783 0.02712 0.51371 0.0
C2676 C 0.93002 0.05459 0.49357 0.0
C2677 C 0.91195 0.04841 0.50849 0.0
C2678 C 0.91678 0.0306 0.52545 0.0
C2679 C 0.93949 0.02012 0.52807 0.0
H2680 H 0.71839 0.07 0.29761 0.0
H2681 H 0.6707 0.12186 0.3281 0.0
H2682 H 0.74151 0.10469 0.28316 0.0
H2683 H 0.69434 0.15654 0.31433 0.0
H2684 H 0.72072 0.21271 0.26523 0.0
H2685 H 0.70003 0.17587 0.27874 0.0
H2686 H 0.76756 0.13923 0.29077 0.0
H2687 H 0.78818 0.17586 0.27645 0.0
C2688 C 0.7132 0.08879 0.3018 0.0
C2689 C 0.69251 0.09312 0.31387 0.0
C2690 C 0.72647 0.10873 0.29342 0.0
C2691 C 0.71949 0.13347 0.29708 0.0
C2692 C 0.69979 0.13774 0.31052 0.0
C2693 C 0.6864 0.11783 0.31871 0.0
C2694 C 0.73111 0.19656 0.27024 0.0
C2695 C 0.75608 0.19721 0.26976 0.0
C2696 C 0.71928 0.17556 0.27835 0.0
C2697 C 0.73214 0.15477 0.28644 0.0
C2698 C 0.75706 0.15486 0.28469 0.0
C2699 C 0.76889 0.17583 0.27634 0.0
H2700 H 0.69889 0.89154 0.04321 0.0
H2701 H 0.73637 0.96101 0.03219 0.0
H2702 H 0.66118 0.91365 0.04169 0.0
H2703 H 0.69864 0.98296 0.03038 0.0
H2704 H 0.62401 0.01459 0.04148 0.0
H2705 H 0.6623 0.99507 0.04953 0.0
H2706 H 0.64075 0.93254 0.00742 0.0
H2707 H 0.60206 0.95189 -0.00033 0.0
C2708 C 0.69916 0.91162 0.04122 0.0
C2709 C 0.72049 0.92449 0.03729 0.0
C2710 C 0.67756 0.92419 0.04001 0.0
C2711 C 0.67704 0.94979 0.0351 0.0
C2712 C 0.69855 0.96314 0.03392 0.0
C2713 C 0.72016 0.95057 0.03508 0.0
C2714 C 0.62756 0.99682 0.03367 0.0
C2715 C 0.61005 0.98464 0.02002 0.0
C2716 C 0.64944 0.98566 0.03836 0.0
C2717 C 0.65422 0.96211 0.02951 0.0
C2718 C 0.6372 0.95047 0.01492 0.0
C2719 C 0.61527 0.9617 0.01015 0.0
H2720 H 0.35884 0.45403 0.31191 0.0
H2721 H 0.41778 0.40358 0.32297 0.0
H2722 H 0.3324 0.41867 0.30372 0.0
H2723 H 0.3912 0.36829 0.31493 0.0
H2724 H 0.345 0.31694 0.2691 0.0
H2725 H 0.37011 0.35248 0.28012 0.0
H2726 H 0.31403 0.3809 0.32058 0.0
H2727 H 0.28876 0.34536 0.30948 0.0
C2728 C 0.36612 0.43541 0.31294 0.0
C2729 C 0.39053 0.43172 0.31793 0.0
C2730 C 0.35091 0.41513 0.30828 0.0
C2731 C 0.35977 0.39072 0.30837 0.0
C2732 C 0.38394 0.38693 0.31432 0.0
C2733 C 0.39912 0.40718 0.31912 0.0
C2734 C 0.33792 0.33084 0.28021 0.0
C2735 C 0.31485 0.3283 0.28838 0.0
C2736 C 0.35241 0.35108 0.28671 0.0
C2737 C 0.34415 0.36936 0.30141 0.0
C2738 C 0.32088 0.36716 0.30917 0.0
C2739 C 0.30642 0.34679 0.30281 0.0
H2740 H 0.18779 0.63277 0.9735 0.0
H2741 H 0.22783 0.58045 0.01497 0.0
H2742 H 0.15079 0.61359 0.98499 0.0
H2743 H 0.1907 0.56175 0.02724 0.0
H2744 H 0.08885 0.59584 0.02751 0.0
H2745 H 0.12746 0.61243 0.01735 0.0
H2746 H 0.15598 0.53783 0.01758 0.0
H2747 H 0.11757 0.52138 0.02864 0.0
C2748 C 0.18868 0.61702 0.98497 0.0
C2749 C 0.21076 0.60821 0.99337 0.0
C2750 C 0.16743 0.60619 0.99182 0.0
C2751 C 0.16764 0.58647 0.00752 0.0
C2752 C 0.18978 0.57686 0.01511 0.0
C2753 C 0.21111 0.58754 0.00802 0.0
C2754 C 0.10349 0.58303 0.02584 0.0
C2755 C 0.10009 0.55729 0.02887 0.0
C2756 C 0.12559 0.5925 0.01968 0.0
C2757 C 0.1448 0.57644 0.01611 0.0
C2758 C 0.14169 0.5508 0.02023 0.0
C2759 C 0.11962 0.54135 0.02662 0.0
H2760 H 0.73508 0.97024 0.29832 0.0
H2761 H 0.66872 0.93054 0.30644 0.0
H2762 H 0.75561 0.93072 0.29422 0.0
H2763 H 0.68918 0.891 0.30192 0.0
H2764 H 0.73696 0.82371 0.31426 0.0
H2765 H 0.71826 0.86383 0.32105 0.0
H2766 H 0.75799 0.89685 0.26739 0.0
H2767 H 0.77694 0.85703 0.26088 0.0
C2768 C 0.72484 0.95308 0.29911 0.0
C2769 C 0.70025 0.95354 0.30264 0.0
C2770 C 0.73661 0.93041 0.29669 0.0
C2771 C 0.72407 0.90766 0.29777 0.0
C2772 C 0.69945 0.90815 0.30133 0.0
C2773 C 0.68768 0.93083 0.30372 0.0
C2774 C 0.74191 0.83961 0.3041 0.0
C2775 C 0.75843 0.83712 0.287 0.0
C2776 C 0.73104 0.86256 0.30786 0.0
C2777 C 0.73649 0.88354 0.29466 0.0
C2778 C 0.75352 0.88117 0.27802 0.0
C2779 C 0.76434 0.85826 0.27423 0.0
H2780 H 0.90388 0.08961 0.8108 0.0
H2781 H 0.8388 0.04793 0.79728 0.0
H2782 H 0.88162 0.12844 0.80885 0.0
H2783 H 0.81645 0.08672 0.79581 0.0
H2784 H 0.79052 0.1625 0.76831 0.0
H2785 H 0.81101 0.12299 0.77235 0.0
H2786 H 0.85271 0.15238 0.82914 0.0
H2787 H 0.83247 0.19238 0.82476 0.0
C2788 C 0.88482 0.08873 0.80738 0.0
C2789 C 0.87313 0.06568 0.80408 0.0
C2790 C 0.87201 0.11099 0.80651 0.0
C2791 C 0.8472 0.11074 0.80233 0.0
C2792 C 0.83556 0.08765 0.79886 0.0
C2793 C 0.84838 0.06539 0.79971 0.0
C2794 C 0.80387 0.16052 0.78186 0.0
C2795 C 0.80992 0.1807 0.79617 0.0
C2796 C 0.81557 0.13776 0.78422 0.0
C2797 C 0.83365 0.1345 0.80097 0.0
C2798 C 0.83914 0.15439 0.81582 0.0
C2799 C 0.82738 0.17724 0.81346 0.0
loop_
_geom_bond_atom_site_label_1
_geom_bond_atom_site_label_2
_geom_bond_distance
_geom_bond_site_symmetry_2
_ccdc_geom_bond_type
Co0 O1 2.216 . S
Co0 O2 2.091 . S
Co0 O4 2.004 . S
Co0 O10 2.021 . S
Co0 O12 2.137 . S
Co0 O13 2.244 . S
O1 Co0 2.216 . S
O1 C8 1.247 . S
O2 Co0 2.091 . S
O2 C8 1.261 . S
C3 O12 1.247 . S
C3 O13 1.272 . S
O4 Co0 2.004 . S
O4 C9 1.259 . S
Co5 O6 2.061 . S
Co5 O11 2.052 . S
Co5 O13 2.135 . S
O6 Co5 2.061 . S
O6 C9 1.235 . S
C7 O10 1.238 . S
C7 O11 1.241 . S
C8 O1 1.247 . S
C8 O2 1.261 . S
C9 O4 1.259 . S
C9 O6 1.235 . S
O10 Co0 2.021 . S
O10 C7 1.238 . S
O11 Co5 2.052 . S
O11 C7 1.241 . S
O12 Co0 2.137 . S
O12 C3 1.247 . S
O13 Co0 2.244 . S
O13 C3 1.272 . S
O13 Co5 2.135 . S
Co14 O15 2.216 . S
Co14 O16 2.091 . S
Co14 O18 2.004 . S
Co14 O24 2.021 . S
Co14 O26 2.137 . S
Co14 O27 2.244 . S
O15 Co14 2.216 . S
O15 C22 1.247 . S
O16 Co14 2.091 . S
O16 C22 1.261 . S
C17 O26 1.247 . S
C17 O27 1.272 . S
O18 Co14 2.004 . S
O18 C23 1.259 1_455 S
Co19 O20 2.061 . S
Co19 O25 2.052 1_655 S
Co19 O27 2.135 1_655 S
O20 Co19 2.061 . S
O20 C23 1.235 . S
C21 O24 1.238 . S
C21 O25 1.241 . S
C22 O15 1.247 . S
C22 O16 1.261 . S
C23 O18 1.259 1_655 S
C23 O20 1.235 . S
O24 Co14 2.021 . S
O24 C21 1.238 . S
O25 Co19 2.052 1_455 S
O25 C21 1.241 . S
O26 Co14 2.137 . S
O26 C17 1.247 . S
O27 Co14 2.244 . S
O27 C17 1.272 . S
O27 Co19 2.135 1_455 S
Co28 O29 2.216 . S
Co28 O30 2.091 . S
Co28 O32 2.004 . S
Co28 O38 2.021 . S
Co28 O40 2.137 . S
Co28 O41 2.244 . S
O29 Co28 2.216 . S
O29 C36 1.247 . S
O30 Co28 2.091 . S
O30 C36 1.261 . S
C31 O40 1.247 . S
C31 O41 1.272 . S
O32 Co28 2.004 . S
O32 C37 1.259 . S
Co33 O34 2.061 . S
Co33 O39 2.052 . S
Co33 O41 2.135 . S
O34 Co33 2.061 . S
O34 C37 1.235 . S
C35 O38 1.238 . S
C35 O39 1.241 . S
C36 O29 1.247 . S
C36 O30 1.261 . S
C37 O32 1.259 . S
C37 O34 1.235 . S
O38 Co28 2.021 . S
O38 C35 1.238 . S
O39 Co33 2.052 . S
O39 C35 1.241 . S
O40 Co28 2.137 . S
O40 C31 1.247 . S
O41 Co28 2.244 . S
O41 C31 1.272 . S
O41 Co33 2.135 . S
Co42 O43 2.216 . S
Co42 O44 2.091 . S
Co42 O46 2.004 . S
Co42 O52 2.021 . S
Co42 O54 2.137 . S
Co42 O55 2.244 . S
O43 Co42 2.216 . S
O43 C50 1.247 . S
O44 Co42 2.091 . S
O44 C50 1.261 . S
C45 O54 1.247 . S
C45 O55 1.272 . S
O46 Co42 2.004 . S
O46 C51 1.259 . S
Co47 O48 2.061 . S
Co47 O53 2.052 . S
Co47 O55 2.135 . S
O48 Co47 2.061 . S
O48 C51 1.235 . S
C49 O52 1.238 . S
C49 O53 1.241 . S
C50 O43 1.247 . S
C50 O44 1.261 . S
C51 O46 1.259 . S
C51 O48 1.235 . S
O52 Co42 2.021 . S
O52 C49 1.238 . S
O53 Co47 2.052 . S
O53 C49 1.241 . S
O54 Co42 2.137 . S
O54 C45 1.247 . S
O55 Co42 2.244 . S
O55 C45 1.272 . S
O55 Co47 2.135 . S
Co56 O57 2.216 1_545 S
Co56 O58 2.091 1_545 S
Co56 O60 2.004 . S
Co56 O66 2.021 . S
Co56 O68 2.137 . S
Co56 O69 2.244 . S
O57 Co56 2.216 1_565 S
O57 C64 1.247 . S
O58 Co56 2.091 1_565 S
O58 C64 1.261 . S
C59 O68 1.247 . S
C59 O69 1.272 . S
O60 Co56 2.004 . S
O60 C65 1.259 . S
Co61 O62 2.061 . S
Co61 O67 2.052 . S
Co61 O69 2.135 . S
O62 Co61 2.061 . S
O62 C65 1.235 . S
C63 O66 1.238 . S
C63 O67 1.241 . S
C64 O57 1.247 . S
C64 O58 1.261 . S
C65 O60 1.259 . S
C65 O62 1.235 . S
O66 Co56 2.021 . S
O66 C63 1.238 . S
O67 Co61 2.052 . S
O67 C63 1.241 . S
O68 Co56 2.137 . S
O68 C59 1.247 . S
O69 Co56 2.244 . S
O69 C59 1.272 . S
O69 Co61 2.135 . S
Co70 O71 2.216 . S
Co70 O72 2.091 . S
Co70 O74 2.004 . S
Co70 O80 2.021 . S
Co70 O82 2.137 . S
Co70 O83 2.244 . S
O71 Co70 2.216 . S
O71 C78 1.247 . S
O72 Co70 2.091 . S
O72 C78 1.261 . S
C73 O82 1.247 . S
C73 O83 1.272 . S
O74 Co70 2.004 . S
O74 C79 1.259 . S
Co75 O76 2.061 . S
Co75 O81 2.052 . S
Co75 O83 2.135 . S
O76 Co75 2.061 . S
O76 C79 1.235 . S
C77 O80 1.238 . S
C77 O81 1.241 . S
C78 O71 1.247 . S
C78 O72 1.261 . S
C79 O74 1.259 . S
C79 O76 1.235 . S
O80 Co70 2.021 . S
O80 C77 1.238 . S
O81 Co75 2.052 . S
O81 C77 1.241 . S
O82 Co70 2.137 . S
O82 C73 1.247 . S
O83 Co70 2.244 . S
O83 C73 1.272 . S
O83 Co75 2.135 . S
Co84 O85 2.216 . S
Co84 O86 2.091 . S
Co84 O88 2.004 1_545 S
Co84 O94 2.021 . S
Co84 O96 2.137 . S
Co84 O97 2.244 . S
O85 Co84 2.216 . S
O85 C92 1.247 . S
O86 Co84 2.091 . S
O86 C92 1.261 . S
C87 O96 1.247 . S
C87 O97 1.272 . S
O88 Co84 2.004 1_565 S
O88 C93 1.259 . S
Co89 O90 2.061 . S
Co89 O95 2.052 . S
Co89 O97 2.135 1_565 S
O90 Co89 2.061 . S
O90 C93 1.235 . S
C91 O94 1.238 . S
C91 O95 1.241 1_545 S
C92 O85 1.247 . S
C92 O86 1.261 . S
C93 O88 1.259 . S
C93 O90 1.235 . S
O94 Co84 2.021 . S
O94 C91 1.238 . S
O95 Co89 2.052 . S
O95 C91 1.241 1_565 S
O96 Co84 2.137 . S
O96 C87 1.247 . S
O97 Co84 2.244 . S
O97 C87 1.272 . S
O97 Co89 2.135 1_545 S
Co98 O99 2.216 . S
Co98 O100 2.091 . S
Co98 O102 2.004 . S
Co98 O108 2.021 . S
Co98 O110 2.137 1_554 S
Co98 O111 2.244 . S
O99 Co98 2.216 . S
O99 C106 1.247 . S
O100 Co98 2.091 . S
O100 C106 1.261 . S
C101 O110 1.247 . S
C101 O111 1.272 1_556 S
O102 Co98 2.004 . S
O102 C107 1.259 . S
Co103 O104 2.061 . S
Co103 O109 2.052 . S
Co103 O111 2.135 . S
O104 Co103 2.061 . S
O104 C107 1.235 . S
C105 O108 1.238 . S
C105 O109 1.241 . S
C106 O99 1.247 . S
C106 O100 1.261 . S
C107 O102 1.259 . S
C107 O104 1.235 . S
O108 Co98 2.021 . S
O108 C105 1.238 . S
O109 Co103 2.052 . S
O109 C105 1.241 . S
O110 Co98 2.137 1_556 S
O110 C101 1.247 . S
O111 Co98 2.244 . S
O111 C101 1.272 1_554 S
O111 Co103 2.135 . S
Co112 O113 2.216 . S
Co112 O114 2.091 . S
Co112 O116 2.004 . S
Co112 O122 2.021 . S
Co112 O124 2.137 . S
Co112 O125 2.244 . S
O113 Co112 2.216 . S
O113 C120 1.247 . S
O114 Co112 2.091 . S
O114 C120 1.261 . S
C115 O124 1.247 . S
C115 O125 1.272 . S
O116 Co112 2.004 . S
O116 C121 1.259 . S
Co117 O118 2.061 . S
Co117 O123 2.052 . S
Co117 O125 2.135 . S
O118 Co117 2.061 . S
O118 C121 1.235 . S
C119 O122 1.238 . S
C119 O123 1.241 . S
C120 O113 1.247 . S
C120 O114 1.261 . S
C121 O116 1.259 . S
C121 O118 1.235 . S
O122 Co112 2.021 . S
O122 C119 1.238 . S
O123 Co117 2.052 . S
O123 C119 1.241 . S
O124 Co112 2.137 . S
O124 C115 1.247 . S
O125 Co112 2.244 . S
O125 C115 1.272 . S
O125 Co117 2.135 . S
Co126 O127 2.216 . S
Co126 O128 2.091 . S
Co126 O130 2.004 . S
Co126 O136 2.021 . S
Co126 O138 2.137 . S
Co126 O139 2.244 . S
O127 Co126 2.216 . S
O127 C134 1.247 . S
O128 Co126 2.091 . S
O128 C134 1.261 . S
C129 O138 1.247 . S
C129 O139 1.272 . S
O130 Co126 2.004 . S
O130 C135 1.259 . S
Co131 O132 2.061 . S
Co131 O137 2.052 . S
Co131 O139 2.135 . S
O132 Co131 2.061 . S
O132 C135 1.235 . S
C133 O136 1.238 . S
C133 O137 1.241 . S
C134 O127 1.247 . S
C134 O128 1.261 . S
C135 O130 1.259 . S
C135 O132 1.235 . S
O136 Co126 2.021 . S
O136 C133 1.238 . S
O137 Co131 2.052 . S
O137 C133 1.241 . S
O138 Co126 2.137 . S
O138 C129 1.247 . S
O139 Co126 2.244 . S
O139 C129 1.272 . S
O139 Co131 2.135 . S
Co140 O141 2.216 . S
Co140 O142 2.091 . S
Co140 O144 2.004 . S
Co140 O150 2.021 . S
Co140 O152 2.137 . S
Co140 O153 2.244 . S
O141 Co140 2.216 . S
O141 C148 1.247 . S
O142 Co140 2.091 . S
O142 C148 1.261 . S
C143 O152 1.247 . S
C143 O153 1.272 . S
O144 Co140 2.004 . S
O144 C149 1.259 . S
Co145 O146 2.061 . S
Co145 O151 2.052 . S
Co145 O153 2.135 . S
O146 Co145 2.061 . S
O146 C149 1.235 . S
C147 O150 1.238 . S
C147 O151 1.241 . S
C148 O141 1.247 . S
C148 O142 1.261 . S
C149 O144 1.259 . S
C149 O146 1.235 . S
O150 Co140 2.021 . S
O150 C147 1.238 . S
O151 Co145 2.052 . S
O151 C147 1.241 . S
O152 Co140 2.137 . S
O152 C143 1.247 . S
O153 Co140 2.244 . S
O153 C143 1.272 . S
O153 Co145 2.135 . S
Co154 O155 2.216 . S
Co154 O156 2.091 . S
Co154 O158 2.004 . S
Co154 O164 2.021 . S
Co154 O166 2.137 . S
Co154 O167 2.244 . S
O155 Co154 2.216 . S
O155 C162 1.247 . S
O156 Co154 2.091 . S
O156 C162 1.261 . S
C157 O166 1.247 . S
C157 O167 1.272 . S
O158 Co154 2.004 . S
O158 C163 1.259 . S
Co159 O160 2.061 . S
Co159 O165 2.052 . S
Co159 O167 2.135 . S
O160 Co159 2.061 . S
O160 C163 1.235 . S
C161 O164 1.238 . S
C161 O165 1.241 . S
C162 O155 1.247 . S
C162 O156 1.261 . S
C163 O158 1.259 . S
C163 O160 1.235 . S
O164 Co154 2.021 . S
O164 C161 1.238 . S
O165 Co159 2.052 . S
O165 C161 1.241 . S
O166 Co154 2.137 . S
O166 C157 1.247 . S
O167 Co154 2.244 . S
O167 C157 1.272 . S
O167 Co159 2.135 . S
Co168 O169 2.216 . S
Co168 O170 2.091 . S
Co168 O172 2.004 1_455 S
Co168 O178 2.021 . S
Co168 O180 2.137 . S
Co168 O181 2.244 1_455 S
O169 Co168 2.216 . S
O169 C176 1.247 . S
O170 Co168 2.091 . S
O170 C176 1.261 . S
C171 O180 1.247 . S
C171 O181 1.272 1_455 S
O172 Co168 2.004 1_655 S
O172 C177 1.259 . S
Co173 O174 2.061 . S
Co173 O179 2.052 . S
Co173 O181 2.135 . S
O174 Co173 2.061 . S
O174 C177 1.235 . S
C175 O178 1.238 1_655 S
C175 O179 1.241 . S
C176 O169 1.247 . S
C176 O170 1.261 . S
C177 O172 1.259 . S
C177 O174 1.235 . S
O178 Co168 2.021 . S
O178 C175 1.238 1_455 S
O179 Co173 2.052 . S
O179 C175 1.241 . S
O180 Co168 2.137 . S
O180 C171 1.247 . S
O181 Co168 2.244 1_655 S
O181 C171 1.272 1_655 S
O181 Co173 2.135 . S
Co182 O183 2.216 1_455 S
Co182 O184 2.091 . S
Co182 O186 2.004 . S
Co182 O192 2.021 . S
Co182 O194 2.137 . S
Co182 O195 2.244 . S
O183 Co182 2.216 1_655 S
O183 C190 1.247 . S
O184 Co182 2.091 . S
O184 C190 1.261 1_455 S
C185 O194 1.247 . S
C185 O195 1.272 . S
O186 Co182 2.004 . S
O186 C191 1.259 . S
Co187 O188 2.061 . S
Co187 O193 2.052 . S
Co187 O195 2.135 . S
O188 Co187 2.061 . S
O188 C191 1.235 . S
C189 O192 1.238 . S
C189 O193 1.241 . S
C190 O183 1.247 . S
C190 O184 1.261 1_655 S
C191 O186 1.259 . S
C191 O188 1.235 . S
O192 Co182 2.021 . S
O192 C189 1.238 . S
O193 Co187 2.052 . S
O193 C189 1.241 . S
O194 Co182 2.137 . S
O194 C185 1.247 . S
O195 Co182 2.244 . S
O195 C185 1.272 . S
O195 Co187 2.135 . S
Co196 O197 2.216 . S
Co196 O198 2.091 . S
Co196 O200 2.004 . S
Co196 O206 2.021 . S
Co196 O208 2.137 . S
Co196 O209 2.244 . S
O197 Co196 2.216 . S
O197 C204 1.247 . S
O198 Co196 2.091 . S
O198 C204 1.261 . S
C199 O208 1.247 . S
C199 O209 1.272 . S
O200 Co196 2.004 . S
O200 C205 1.259 . S
Co201 O202 2.061 . S
Co201 O207 2.052 . S
Co201 O209 2.135 . S
O202 Co201 2.061 . S
O202 C205 1.235 . S
C203 O206 1.238 . S
C203 O207 1.241 . S
C204 O197 1.247 . S
C204 O198 1.261 . S
C205 O200 1.259 . S
C205 O202 1.235 . S
O206 Co196 2.021 . S
O206 C203 1.238 . S
O207 Co201 2.052 . S
O207 C203 1.241 . S
O208 Co196 2.137 . S
O208 C199 1.247 . S
O209 Co196 2.244 . S
O209 C199 1.272 . S
O209 Co201 2.135 . S
Co210 O211 2.216 . S
Co210 O212 2.091 . S
Co210 O214 2.004 . S
Co210 O220 2.021 . S
Co210 O222 2.137 . S
Co210 O223 2.244 . S
O211 Co210 2.216 . S
O211 C218 1.247 . S
O212 Co210 2.091 . S
O212 C218 1.261 . S
C213 O222 1.247 . S
C213 O223 1.272 . S
O214 Co210 2.004 . S
O214 C219 1.259 . S
Co215 O216 2.061 . S
Co215 O221 2.052 . S
Co215 O223 2.135 . S
O216 Co215 2.061 . S
O216 C219 1.235 . S
C217 O220 1.238 . S
C217 O221 1.241 . S
C218 O211 1.247 . S
C218 O212 1.261 . S
C219 O214 1.259 . S
C219 O216 1.235 . S
O220 Co210 2.021 . S
O220 C217 1.238 . S
O221 Co215 2.052 . S
O221 C217 1.241 . S
O222 Co210 2.137 . S
O222 C213 1.247 . S
O223 Co210 2.244 . S
O223 C213 1.272 . S
O223 Co215 2.135 . S
Co224 O225 2.216 . S
Co224 O226 2.091 . S
Co224 O228 2.004 1_545 S
Co224 O234 2.021 . S
Co224 O236 2.137 . S
Co224 O237 2.244 1_545 S
O225 Co224 2.216 . S
O225 C232 1.247 . S
O226 Co224 2.091 . S
O226 C232 1.261 . S
C227 O236 1.247 . S
C227 O237 1.272 1_545 S
O228 Co224 2.004 1_565 S
O228 C233 1.259 . S
Co229 O230 2.061 . S
Co229 O235 2.052 . S
Co229 O237 2.135 . S
O230 Co229 2.061 . S
O230 C233 1.235 . S
C231 O234 1.238 . S
C231 O235 1.241 1_545 S
C232 O225 1.247 . S
C232 O226 1.261 . S
C233 O228 1.259 . S
C233 O230 1.235 . S
O234 Co224 2.021 . S
O234 C231 1.238 . S
O235 Co229 2.052 . S
O235 C231 1.241 1_565 S
O236 Co224 2.137 . S
O236 C227 1.247 . S
O237 Co224 2.244 1_565 S
O237 C227 1.272 1_565 S
O237 Co229 2.135 . S
Co238 O239 2.216 . S
Co238 O240 2.091 . S
Co238 O242 2.004 . S
Co238 O248 2.021 . S
Co238 O250 2.137 . S
Co238 O251 2.244 . S
O239 Co238 2.216 . S
O239 C246 1.247 . S
O240 Co238 2.091 . S
O240 C246 1.261 . S
C241 O250 1.247 . S
C241 O251 1.272 . S
O242 Co238 2.004 . S
O242 C247 1.259 . S
Co243 O244 2.061 . S
Co243 O249 2.052 . S
Co243 O251 2.135 . S
O244 Co243 2.061 . S
O244 C247 1.235 . S
C245 O248 1.238 . S
C245 O249 1.241 . S
C246 O239 1.247 . S
C246 O240 1.261 . S
C247 O242 1.259 . S
C247 O244 1.235 . S
O248 Co238 2.021 . S
O248 C245 1.238 . S
O249 Co243 2.052 . S
O249 C245 1.241 . S
O250 Co238 2.137 . S
O250 C241 1.247 . S
O251 Co238 2.244 . S
O251 C241 1.272 . S
O251 Co243 2.135 . S
Co252 O253 2.216 1_545 S
Co252 O254 2.091 1_545 S
Co252 O256 2.004 . S
Co252 O262 2.021 . S
Co252 O264 2.137 . S
Co252 O265 2.244 . S
O253 Co252 2.216 1_565 S
O253 C260 1.247 . S
O254 Co252 2.091 1_565 S
O254 C260 1.261 . S
C255 O264 1.247 . S
C255 O265 1.272 . S
O256 Co252 2.004 . S
O256 C261 1.259 . S
Co257 O258 2.061 . S
Co257 O263 2.052 . S
Co257 O265 2.135 . S
O258 Co257 2.061 . S
O258 C261 1.235 . S
C259 O262 1.238 . S
C259 O263 1.241 . S
C260 O253 1.247 . S
C260 O254 1.261 . S
C261 O256 1.259 . S
C261 O258 1.235 . S
O262 Co252 2.021 . S
O262 C259 1.238 . S
O263 Co257 2.052 . S
O263 C259 1.241 . S
O264 Co252 2.137 . S
O264 C255 1.247 . S
O265 Co252 2.244 . S
O265 C255 1.272 . S
O265 Co257 2.135 . S
Co266 O267 2.216 . S
Co266 O268 2.091 . S
Co266 O270 2.004 . S
Co266 O276 2.021 . S
Co266 O278 2.137 1_554 S
Co266 O279 2.244 . S
O267 Co266 2.216 . S
O267 C274 1.247 . S
O268 Co266 2.091 . S
O268 C274 1.261 . S
C269 O278 1.247 . S
C269 O279 1.272 1_556 S
O270 Co266 2.004 . S
O270 C275 1.259 . S
Co271 O272 2.061 . S
Co271 O277 2.052 . S
Co271 O279 2.135 . S
O272 Co271 2.061 . S
O272 C275 1.235 . S
C273 O276 1.238 . S
C273 O277 1.241 . S
C274 O267 1.247 . S
C274 O268 1.261 . S
C275 O270 1.259 . S
C275 O272 1.235 . S
O276 Co266 2.021 . S
O276 C273 1.238 . S
O277 Co271 2.052 . S
O277 C273 1.241 . S
O278 Co266 2.137 1_556 S
O278 C269 1.247 . S
O279 Co266 2.244 . S
O279 C269 1.272 1_554 S
O279 Co271 2.135 . S
Co280 O281 2.216 . S
Co280 O282 2.087 1_556 S
Co280 O284 2.004 . S
Co280 O290 2.021 1_556 S
Co280 O292 2.137 . S
Co280 O293 2.244 . S
O281 Co280 2.216 . S
O281 C288 1.243 1_556 S
O282 Co280 2.087 1_554 S
O282 C288 1.261 . S
C283 O292 1.247 . S
C283 O293 1.272 . S
O284 Co280 2.004 . S
O284 C289 1.259 . S
Co285 O286 2.061 1_556 S
Co285 O291 2.052 1_556 S
Co285 O293 2.135 . S
O286 Co285 2.061 1_554 S
O286 C289 1.234 1_554 S
C287 O290 1.238 . S
C287 O291 1.241 . S
C288 O281 1.243 1_554 S
C288 O282 1.261 . S
C289 O284 1.259 . S
C289 O286 1.234 1_556 S
O290 Co280 2.021 1_554 S
O290 C287 1.238 . S
O291 Co285 2.052 1_554 S
O291 C287 1.241 . S
O292 Co280 2.137 . S
O292 C283 1.247 . S
O293 Co280 2.244 . S
O293 C283 1.272 . S
O293 Co285 2.135 . S
Co294 O295 2.216 . S
Co294 O296 2.091 . S
Co294 O298 2.004 . S
Co294 O304 2.021 . S
Co294 O306 2.137 . S
Co294 O307 2.244 . S
O295 Co294 2.216 . S
O295 C302 1.247 . S
O296 Co294 2.091 . S
O296 C302 1.261 . S
C297 O306 1.247 . S
C297 O307 1.272 . S
O298 Co294 2.004 . S
O298 C303 1.259 . S
Co299 O300 2.061 . S
Co299 O305 2.052 . S
Co299 O307 2.135 . S
O300 Co299 2.061 . S
O300 C303 1.235 . S
C301 O304 1.238 . S
C301 O305 1.241 . S
C302 O295 1.247 . S
C302 O296 1.261 . S
C303 O298 1.259 . S
C303 O300 1.235 . S
O304 Co294 2.021 . S
O304 C301 1.238 . S
O305 Co299 2.052 . S
O305 C301 1.241 . S
O306 Co294 2.137 . S
O306 C297 1.247 . S
O307 Co294 2.244 . S
O307 C297 1.272 . S
O307 Co299 2.135 . S
Co308 O309 2.216 . S
Co308 O310 2.091 . S
Co308 O312 2.004 . S
Co308 O318 2.021 . S
Co308 O320 2.137 . S
Co308 O321 2.244 . S
O309 Co308 2.216 . S
O309 C316 1.247 . S
O310 Co308 2.091 . S
O310 C316 1.261 . S
C311 O320 1.247 . S
C311 O321 1.272 . S
O312 Co308 2.004 . S
O312 C317 1.259 . S
Co313 O314 2.061 . S
Co313 O319 2.052 . S
Co313 O321 2.135 . S
O314 Co313 2.061 . S
O314 C317 1.235 . S
C315 O318 1.238 . S
C315 O319 1.241 . S
C316 O309 1.247 . S
C316 O310 1.261 . S
C317 O312 1.259 . S
C317 O314 1.235 . S
O318 Co308 2.021 . S
O318 C315 1.238 . S
O319 Co313 2.052 . S
O319 C315 1.241 . S
O320 Co308 2.137 . S
O320 C311 1.247 . S
O321 Co308 2.244 . S
O321 C311 1.272 . S
O321 Co313 2.135 . S
Co322 O323 2.216 . S
Co322 O324 2.091 . S
Co322 O326 2.004 . S
Co322 O332 2.021 . S
Co322 O334 2.137 . S
Co322 O335 2.244 . S
O323 Co322 2.216 . S
O323 C330 1.247 . S
O324 Co322 2.091 . S
O324 C330 1.261 . S
C325 O334 1.247 . S
C325 O335 1.272 . S
O326 Co322 2.004 . S
O326 C331 1.259 . S
Co327 O328 2.061 . S
Co327 O333 2.052 . S
Co327 O335 2.135 . S
O328 Co327 2.061 . S
O328 C331 1.235 . S
C329 O332 1.238 . S
C329 O333 1.241 . S
C330 O323 1.247 . S
C330 O324 1.261 . S
C331 O326 1.259 . S
C331 O328 1.235 . S
O332 Co322 2.021 . S
O332 C329 1.238 . S
O333 Co327 2.052 . S
O333 C329 1.241 . S
O334 Co322 2.137 . S
O334 C325 1.247 . S
O335 Co322 2.244 . S
O335 C325 1.272 . S
O335 Co327 2.135 . S
C336 O352 1.253 1_455 S
C336 O354 1.254 . S
N337 C338 1.333 1_565 S
N337 C342 1.307 . S
N337 Zn343 2.020 1_665 S
C338 N337 1.333 1_545 S
C338 C339 1.379 . S
C338 H356 0.952 . S
C339 C338 1.379 . S
C339 C340 1.390 1_545 S
C339 H366 0.949 . S
C340 C339 1.390 1_565 S
C340 C341 1.357 . S
C341 C340 1.357 . S
C341 C342 1.370 . S
C341 H367 0.950 . S
C342 N337 1.307 . S
C342 C341 1.370 . S
C342 H360 0.948 . S
Zn343 N337 2.020 1_445 S
Zn343 O352 2.036 1_454 S
Zn343 O358 2.034 . S
Zn343 O362 2.025 1_545 S
Zn343 O364 2.024 1_545 S
C344 O363 1.246 . S
C344 O364 1.249 . S
N345 C346 1.307 1_554 S
N345 C347 1.333 . S
N345 Zn351 2.020 . S
C346 N345 1.307 1_556 S
C346 C350 1.370 . S
C346 H357 0.948 . S
C347 N345 1.333 . S
C347 C348 1.379 . S
C347 H355 0.952 . S
C348 C347 1.379 . S
C348 C349 1.394 . S
C348 H368 0.949 . S
C349 C348 1.394 . S
C349 C350 1.354 1_554 S
C350 C346 1.370 . S
C350 C349 1.354 1_556 S
C350 H369 0.950 . S
Zn351 N345 2.020 . S
Zn351 O354 2.025 1_554 S
Zn351 O359 2.024 . S
Zn351 O361 2.039 . S
Zn351 O363 2.034 1_545 S
O352 C336 1.253 1_655 S
O352 Zn343 2.036 1_656 S
C353 O358 1.246 . S
C353 O359 1.249 . S
O354 C336 1.254 . S
O354 Zn351 2.025 1_556 S
H355 C347 0.952 . S
H356 C338 0.952 . S
H357 C346 0.948 . S
O358 Zn343 2.034 . S
O358 C353 1.246 . S
O359 Zn351 2.024 . S
O359 C353 1.249 . S
H360 C342 0.948 . S
O361 Zn351 2.039 . S
O361 C365 1.251 1_545 S
O362 Zn343 2.025 1_565 S
O362 C365 1.254 . S
O363 C344 1.246 . S
O363 Zn351 2.034 1_565 S
O364 Zn343 2.024 1_565 S
O364 C344 1.249 . S
C365 O361 1.251 1_565 S
C365 O362 1.254 . S
H366 C339 0.949 . S
H367 C341 0.950 . S
H368 C348 0.949 . S
H369 C350 0.950 . S
C370 O386 1.251 . S
C370 O388 1.254 . S
N371 C372 1.333 . S
N371 C376 1.307 . S
N371 Zn377 2.020 . S
C372 N371 1.333 . S
C372 C373 1.379 . S
C372 H390 0.952 . S
C373 C372 1.379 . S
C373 C374 1.390 . S
C373 H400 0.949 . S
C374 C373 1.390 . S
C374 C375 1.357 . S
C375 C374 1.357 . S
C375 C376 1.370 . S
C375 H401 0.950 . S
C376 N371 1.307 . S
C376 C375 1.370 . S
C376 H394 0.948 . S
Zn377 N371 2.020 . S
Zn377 O386 2.039 . S
Zn377 O392 2.034 . S
Zn377 O396 2.025 . S
Zn377 O398 2.024 . S
C378 O397 1.246 . S
C378 O398 1.249 . S
N379 C380 1.307 . S
N379 C381 1.333 . S
N379 Zn385 2.020 . S
C380 N379 1.307 . S
C380 C384 1.370 . S
C380 H391 0.948 . S
C381 N379 1.333 . S
C381 C382 1.379 . S
C381 H389 0.952 . S
C382 C381 1.379 . S
C382 C383 1.390 . S
C382 H402 0.949 . S
C383 C382 1.390 . S
C383 C384 1.357 . S
C384 C380 1.370 . S
C384 C383 1.357 . S
C384 H403 0.950 . S
Zn385 N379 2.020 . S
Zn385 O388 2.025 . S
Zn385 O393 2.024 . S
Zn385 O395 2.039 . S
Zn385 O397 2.034 . S
O386 C370 1.251 . S
O386 Zn377 2.039 . S
C387 O392 1.246 . S
C387 O393 1.249 . S
O388 C370 1.254 . S
O388 Zn385 2.025 . S
H389 C381 0.952 . S
H390 C372 0.952 . S
H391 C380 0.948 . S
O392 Zn377 2.034 . S
O392 C387 1.246 . S
O393 Zn385 2.024 . S
O393 C387 1.249 . S
H394 C376 0.948 . S
O395 Zn385 2.039 . S
O395 C399 1.251 . S
O396 Zn377 2.025 . S
O396 C399 1.254 . S
O397 C378 1.246 . S
O397 Zn385 2.034 . S
O398 Zn377 2.024 . S
O398 C378 1.249 . S
C399 O395 1.251 . S
C399 O396 1.254 . S
H400 C373 0.949 . S
H401 C375 0.950 . S
H402 C382 0.949 . S
H403 C384 0.950 . S
C404 O420 1.291 . S
C404 O422 1.254 . S
N405 C406 1.333 . S
N405 C410 1.307 . S
N405 Zn411 2.020 . S
C406 N405 1.333 . S
C406 C407 1.379 . S
C406 H424 0.952 . S
C407 C406 1.379 . S
C407 C408 1.390 . S
C407 H434 0.949 . S
C408 C407 1.390 . S
C408 C409 1.357 . S
C409 C408 1.357 . S
C409 C410 1.370 . S
C409 H435 0.950 . S
C410 N405 1.307 . S
C410 C409 1.370 . S
C410 H428 0.948 . S
Zn411 N405 2.020 . S
Zn411 O420 2.023 1_565 S
Zn411 O426 2.034 1_565 S
Zn411 O430 2.025 . S
Zn411 O432 2.024 . S
C412 O431 1.246 1_565 S
C412 O432 1.249 . S
N413 C414 1.307 . S
N413 C415 1.333 . S
N413 Zn419 2.020 . S
C414 N413 1.307 . S
C414 C418 1.370 . S
C414 H425 0.948 . S
C415 N413 1.333 . S
C415 C416 1.379 . S
C415 H423 0.952 . S
C416 C415 1.379 . S
C416 C417 1.390 . S
C416 H436 0.949 . S
C417 C416 1.390 . S
C417 C418 1.357 . S
C418 C414 1.370 . S
C418 C417 1.357 . S
C418 H437 0.950 . S
Zn419 N413 2.020 . S
Zn419 O422 2.025 . S
Zn419 O427 2.024 . S
Zn419 O429 2.039 . S
Zn419 O431 2.034 . S
O420 C404 1.291 . S
O420 Zn411 2.023 1_545 S
C421 O426 1.246 . S
C421 O427 1.249 . S
O422 C404 1.254 . S
O422 Zn419 2.025 . S
H423 C415 0.952 . S
H424 C406 0.952 . S
H425 C414 0.948 . S
O426 Zn411 2.034 1_545 S
O426 C421 1.246 . S
O427 Zn419 2.024 . S
O427 C421 1.249 . S
H428 C410 0.948 . S
O429 Zn419 2.039 . S
O429 C433 1.251 . S
O430 Zn411 2.025 . S
O430 C433 1.254 1_565 S
O431 C412 1.246 1_545 S
O431 Zn419 2.034 . S
O432 Zn411 2.024 . S
O432 C412 1.249 . S
C433 O429 1.251 . S
C433 O430 1.254 1_545 S
H434 C407 0.949 . S
H435 C409 0.950 . S
H436 C416 0.949 . S
H437 C418 0.950 . S
C438 O454 1.251 . S
C438 O456 1.254 . S
N439 C440 1.333 . S
N439 C444 1.307 . S
N439 Zn445 2.020 . S
C440 N439 1.333 . S
C440 C441 1.379 . S
C440 H458 0.952 . S
C441 C440 1.379 . S
C441 C442 1.390 . S
C441 H468 0.949 . S
C442 C441 1.390 . S
C442 C443 1.357 . S
C443 C442 1.357 . S
C443 C444 1.370 . S
C443 H469 0.950 . S
C444 N439 1.307 . S
C444 C443 1.370 . S
C444 H462 0.948 . S
Zn445 N439 2.020 . S
Zn445 O454 2.039 . S
Zn445 O460 2.034 . S
Zn445 O464 2.025 . S
Zn445 O466 2.024 . S
C446 O465 1.246 . S
C446 O466 1.249 . S
N447 C448 1.307 . S
N447 C449 1.333 . S
N447 Zn453 2.020 . S
C448 N447 1.307 . S
C448 C452 1.370 . S
C448 H459 0.948 . S
C449 N447 1.333 . S
C449 C450 1.379 . S
C449 H457 0.952 . S
C450 C449 1.379 . S
C450 C451 1.390 . S
C450 H470 0.949 . S
C451 C450 1.390 . S
C451 C452 1.357 . S
C452 C448 1.370 . S
C452 C451 1.357 . S
C452 H471 0.950 . S
Zn453 N447 2.020 . S
Zn453 O456 2.025 . S
Zn453 O461 2.024 . S
Zn453 O463 2.039 . S
Zn453 O465 2.034 . S
O454 C438 1.251 . S
O454 Zn445 2.039 . S
C455 O460 1.246 . S
C455 O461 1.249 . S
O456 C438 1.254 . S
O456 Zn453 2.025 . S
H457 C449 0.952 . S
H458 C440 0.952 . S
H459 C448 0.948 . S
O460 Zn445 2.034 . S
O460 C455 1.246 . S
O461 Zn453 2.024 . S
O461 C455 1.249 . S
H462 C444 0.948 . S
O463 Zn453 2.039 . S
O463 C467 1.251 . S
O464 Zn445 2.025 . S
O464 C467 1.254 . S
O465 C446 1.246 . S
O465 Zn453 2.034 . S
O466 Zn445 2.024 . S
O466 C446 1.249 . S
C467 O463 1.251 . S
C467 O464 1.254 . S
H468 C441 0.949 . S
H469 C443 0.950 . S
H470 C450 0.949 . S
H471 C452 0.950 . S
C472 O488 1.251 1_565 S
C472 O490 1.254 . S
N473 C474 1.333 . S
N473 C478 1.307 . S
N473 Zn479 2.020 . S
C474 N473 1.333 . S
C474 C475 1.379 . S
C474 H492 0.952 . S
C475 C474 1.379 . S
C475 C476 1.390 . S
C475 H502 0.949 . S
C476 C475 1.390 . S
C476 C477 1.357 . S
C477 C476 1.357 . S
C477 C478 1.370 . S
C477 H503 0.950 . S
C478 N473 1.307 . S
C478 C477 1.370 . S
C478 H496 0.948 . S
Zn479 N473 2.020 . S
Zn479 O488 2.039 . S
Zn479 O494 2.034 . S
Zn479 O498 2.025 . S
Zn479 O500 2.024 1_545 S
C480 O499 1.246 . S
C480 O500 1.249 . S
N481 C482 1.307 . S
N481 C483 1.333 1_455 S
N481 Zn487 2.020 1_565 S
C482 N481 1.307 . S
C482 C486 1.370 . S
C482 H493 0.949 . S
C483 N481 1.333 1_655 S
C483 C484 1.379 . S
C483 H491 0.952 . S
C484 C483 1.379 . S
C484 C485 1.390 . S
C484 H504 0.949 . S
C485 C484 1.390 . S
C485 C486 1.357 1_655 S
C486 C482 1.370 . S
C486 C485 1.357 1_455 S
C486 H505 0.950 . S
Zn487 N481 2.020 1_545 S
Zn487 O490 2.025 1_545 S
Zn487 O495 2.024 . S
Zn487 O497 2.039 1_455 S
Zn487 O499 2.034 1_545 S
O488 C472 1.251 1_545 S
O488 Zn479 2.039 . S
C489 O494 1.246 . S
C489 O495 1.249 . S
O490 C472 1.254 . S
O490 Zn487 2.025 1_565 S
H491 C483 0.952 . S
H492 C474 0.952 . S
H493 C482 0.949 . S
O494 Zn479 2.034 . S
O494 C489 1.246 . S
O495 Zn487 2.024 . S
O495 C489 1.249 . S
H496 C478 0.948 . S
O497 Zn487 2.039 1_655 S
O497 C501 1.251 . S
O498 Zn479 2.025 . S
O498 C501 1.254 1_455 S
O499 C480 1.246 . S
O499 Zn487 2.034 1_565 S
O500 Zn479 2.024 1_565 S
O500 C480 1.249 . S
C501 O497 1.251 . S
C501 O498 1.254 1_655 S
H502 C475 0.949 . S
H503 C477 0.950 . S
H504 C484 0.949 . S
H505 C486 0.950 . S
C506 O522 1.251 . S
C506 O524 1.254 . S
N507 C508 1.333 . S
N507 C512 1.307 . S
N507 Zn513 2.020 . S
C508 N507 1.333 . S
C508 C509 1.379 . S
C508 H526 0.952 . S
C509 C508 1.379 . S
C509 C510 1.390 . S
C509 H536 0.949 . S
C510 C509 1.390 . S
C510 C511 1.357 . S
C511 C510 1.357 . S
C511 C512 1.370 . S
C511 H537 0.950 . S
C512 N507 1.307 . S
C512 C511 1.370 . S
C512 H530 0.948 . S
Zn513 N507 2.020 . S
Zn513 O522 2.039 . S
Zn513 O528 2.034 . S
Zn513 O532 2.025 . S
Zn513 O534 2.024 . S
C514 O533 1.246 . S
C514 O534 1.249 . S
N515 C516 1.307 . S
N515 C517 1.333 . S
N515 Zn521 2.020 . S
C516 N515 1.307 . S
C516 C520 1.370 . S
C516 H527 0.948 . S
C517 N515 1.333 . S
C517 C518 1.379 . S
C517 H525 0.952 . S
C518 C517 1.379 . S
C518 C519 1.390 . S
C518 H538 0.949 . S
C519 C518 1.390 . S
C519 C520 1.357 . S
C520 C516 1.370 . S
C520 C519 1.357 . S
C520 H539 0.950 . S
Zn521 N515 2.020 . S
Zn521 O524 2.025 . S
Zn521 O529 2.024 . S
Zn521 O531 2.039 . S
Zn521 O533 2.034 . S
O522 C506 1.251 . S
O522 Zn513 2.039 . S
C523 O528 1.246 . S
C523 O529 1.249 . S
O524 C506 1.254 . S
O524 Zn521 2.025 . S
H525 C517 0.952 . S
H526 C508 0.952 . S
H527 C516 0.948 . S
O528 Zn513 2.034 . S
O528 C523 1.246 . S
O529 Zn521 2.024 . S
O529 C523 1.249 . S
H530 C512 0.948 . S
O531 Zn521 2.039 . S
O531 C535 1.251 . S
O532 Zn513 2.025 . S
O532 C535 1.254 . S
O533 C514 1.246 . S
O533 Zn521 2.034 . S
O534 Zn513 2.024 . S
O534 C514 1.249 . S
C535 O531 1.251 . S
C535 O532 1.254 . S
H536 C509 0.949 . S
H537 C511 0.950 . S
H538 C518 0.949 . S
H539 C520 0.950 . S
C540 O556 1.251 . S
C540 O558 1.254 . S
N541 C542 1.333 . S
N541 C546 1.307 . S
N541 Zn547 2.020 . S
C542 N541 1.333 . S
C542 C543 1.379 . S
C542 H560 0.952 . S
C543 C542 1.379 . S
C543 C544 1.390 . S
C543 H570 0.949 . S
C544 C543 1.390 . S
C544 C545 1.357 . S
C545 C544 1.357 . S
C545 C546 1.370 . S
C545 H571 0.950 . S
C546 N541 1.307 . S
C546 C545 1.370 . S
C546 H564 0.948 . S
Zn547 N541 2.020 . S
Zn547 O556 2.039 1_545 S
Zn547 O562 2.034 . S
Zn547 O566 2.025 . S
Zn547 O568 2.024 . S
C548 O567 1.246 . S
C548 O568 1.249 1_565 S
N549 C550 1.307 . S
N549 C551 1.333 1_565 S
N549 Zn555 2.020 1_566 S
C550 N549 1.307 . S
C550 C554 1.370 . S
C550 H561 0.948 . S
C551 N549 1.333 1_545 S
C551 C552 1.382 . S
C551 H559 0.952 . S
C552 C551 1.382 . S
C552 C553 1.381 1_545 S
C552 H572 0.956 . S
C553 C552 1.381 1_565 S
C553 C554 1.357 . S
C554 C550 1.370 . S
C554 C553 1.357 . S
C554 H573 0.950 . S
Zn555 N549 2.020 1_544 S
Zn555 O558 2.025 1_545 S
Zn555 O563 2.024 . S
Zn555 O565 2.039 1_554 S
Zn555 O567 2.034 1_545 S
O556 C540 1.251 . S
O556 Zn547 2.039 1_565 S
C557 O562 1.246 . S
C557 O563 1.249 . S
O558 C540 1.254 . S
O558 Zn555 2.025 1_565 S
H559 C551 0.952 . S
H560 C542 0.952 . S
H561 C550 0.948 . S
O562 Zn547 2.034 . S
O562 C557 1.246 . S
O563 Zn555 2.024 . S
O563 C557 1.249 . S
H564 C546 0.948 . S
O565 Zn555 2.039 1_556 S
O565 C569 1.251 1_556 S
O566 Zn547 2.025 . S
O566 C569 1.254 . S
O567 C548 1.246 . S
O567 Zn555 2.034 1_565 S
O568 Zn547 2.024 . S
O568 C548 1.249 1_545 S
C569 O565 1.251 1_554 S
C569 O566 1.254 . S
H570 C543 0.949 . S
H571 C545 0.950 . S
H572 C552 0.956 . S
H573 C554 0.950 . S
C574 O590 1.251 . S
C574 O592 1.254 . S
N575 C576 1.333 . S
N575 C580 1.307 . S
N575 Zn581 2.020 . S
C576 N575 1.333 . S
C576 C577 1.379 . S
C576 H594 0.952 . S
C577 C576 1.379 . S
C577 C578 1.390 . S
C577 H604 0.949 . S
C578 C577 1.390 . S
C578 C579 1.357 . S
C579 C578 1.357 . S
C579 C580 1.370 . S
C579 H605 0.950 . S
C580 N575 1.307 . S
C580 C579 1.370 . S
C580 H598 0.948 . S
Zn581 N575 2.020 . S
Zn581 O590 2.039 . S
Zn581 O596 2.034 . S
Zn581 O600 2.025 . S
Zn581 O602 2.024 . S
C582 O601 1.246 . S
C582 O602 1.249 . S
N583 C584 1.307 . S
N583 C585 1.333 . S
N583 Zn589 2.020 . S
C584 N583 1.307 . S
C584 C588 1.370 . S
C584 H595 0.948 . S
C585 N583 1.333 . S
C585 C586 1.379 . S
C585 H593 0.952 . S
C586 C585 1.379 . S
C586 C587 1.390 . S
C586 H606 0.949 . S
C587 C586 1.390 . S
C587 C588 1.357 . S
C588 C584 1.370 . S
C588 C587 1.357 . S
C588 H607 0.950 . S
Zn589 N583 2.020 . S
Zn589 O592 2.025 . S
Zn589 O597 2.024 . S
Zn589 O599 2.039 . S
Zn589 O601 2.034 . S
O590 C574 1.251 . S
O590 Zn581 2.039 . S
C591 O596 1.246 . S
C591 O597 1.249 . S
O592 C574 1.254 . S
O592 Zn589 2.025 . S
H593 C585 0.952 . S
H594 C576 0.952 . S
H595 C584 0.948 . S
O596 Zn581 2.034 . S
O596 C591 1.246 . S
O597 Zn589 2.024 . S
O597 C591 1.249 . S
H598 C580 0.948 . S
O599 Zn589 2.039 . S
O599 C603 1.251 . S
O600 Zn581 2.025 . S
O600 C603 1.254 . S
O601 C582 1.246 . S
O601 Zn589 2.034 . S
O602 Zn581 2.024 . S
O602 C582 1.249 . S
C603 O599 1.251 . S
C603 O600 1.254 . S
H604 C577 0.949 . S
H605 C579 0.950 . S
H606 C586 0.949 . S
H607 C588 0.950 . S
C608 O624 1.251 . S
C608 O626 1.254 . S
N609 C610 1.333 . S
N609 C614 1.307 . S
N609 Zn615 2.020 1_556 S
C610 N609 1.333 . S
C610 C611 1.379 . S
C610 H628 0.952 . S
C611 C610 1.379 . S
C611 C612 1.390 . S
C611 H638 0.949 . S
C612 C611 1.390 . S
C612 C613 1.357 . S
C613 C612 1.357 . S
C613 C614 1.370 . S
C613 H639 0.950 . S
C614 N609 1.307 . S
C614 C613 1.370 . S
C614 H632 0.948 . S
Zn615 N609 2.020 1_554 S
Zn615 O624 2.039 . S
Zn615 O630 2.034 . S
Zn615 O634 2.027 . S
Zn615 O636 2.024 1_554 S
C616 O635 1.246 . S
C616 O636 1.249 1_554 S
N617 C618 1.307 . S
N617 C619 1.333 . S
N617 Zn623 2.020 . S
C618 N617 1.307 . S
C618 C622 1.370 . S
C618 H629 0.948 . S
C619 N617 1.333 . S
C619 C620 1.379 . S
C619 H627 0.952 . S
C620 C619 1.379 . S
C620 C621 1.390 . S
C620 H640 0.949 . S
C621 C620 1.390 . S
C621 C622 1.357 . S
C622 C618 1.370 . S
C622 C621 1.357 . S
C622 H641 0.950 . S
Zn623 N617 2.020 . S
Zn623 O626 2.025 . S
Zn623 O631 2.024 . S
Zn623 O633 2.039 . S
Zn623 O635 2.034 . S
O624 C608 1.251 . S
O624 Zn615 2.039 . S
C625 O630 1.246 . S
C625 O631 1.249 . S
O626 C608 1.254 . S
O626 Zn623 2.025 . S
H627 C619 0.952 . S
H628 C610 0.952 . S
H629 C618 0.948 . S
O630 Zn615 2.034 . S
O630 C625 1.246 . S
O631 Zn623 2.024 . S
O631 C625 1.249 . S
H632 C614 0.948 . S
O633 Zn623 2.039 . S
O633 C637 1.251 . S
O634 Zn615 2.027 . S
O634 C637 1.281 . S
O635 C616 1.246 . S
O635 Zn623 2.034 . S
O636 Zn615 2.024 1_556 S
O636 C616 1.249 1_556 S
C637 O633 1.251 . S
C637 O634 1.281 . S
H638 C611 0.949 . S
H639 C613 0.950 . S
H640 C620 0.949 . S
H641 C622 0.950 . S
C642 O658 1.251 . S
C642 O660 1.254 . S
N643 C644 1.333 . S
N643 C648 1.307 . S
N643 Zn649 2.020 . S
C644 N643 1.333 . S
C644 C645 1.379 . S
C644 H662 0.952 . S
C645 C644 1.379 . S
C645 C646 1.390 . S
C645 H672 0.949 . S
C646 C645 1.390 . S
C646 C647 1.357 . S
C647 C646 1.357 . S
C647 C648 1.370 . S
C647 H673 0.950 . S
C648 N643 1.307 . S
C648 C647 1.370 . S
C648 H666 0.948 . S
Zn649 N643 2.020 . S
Zn649 O658 2.039 . S
Zn649 O664 2.034 . S
Zn649 O668 2.025 . S
Zn649 O670 2.024 . S
C650 O669 1.246 . S
C650 O670 1.249 . S
N651 C652 1.307 . S
N651 C653 1.333 . S
N651 Zn657 2.020 . S
C652 N651 1.307 . S
C652 C656 1.370 . S
C652 H663 0.948 . S
C653 N651 1.333 . S
C653 C654 1.379 . S
C653 H661 0.952 . S
C654 C653 1.379 . S
C654 C655 1.390 . S
C654 H674 0.949 . S
C655 C654 1.390 . S
C655 C656 1.357 . S
C656 C652 1.370 . S
C656 C655 1.357 . S
C656 H675 0.950 . S
Zn657 N651 2.020 . S
Zn657 O660 2.025 . S
Zn657 O665 2.024 . S
Zn657 O667 2.039 . S
Zn657 O669 2.034 . S
O658 C642 1.251 . S
O658 Zn649 2.039 . S
C659 O664 1.246 . S
C659 O665 1.249 . S
O660 C642 1.254 . S
O660 Zn657 2.025 . S
H661 C653 0.952 . S
H662 C644 0.952 . S
H663 C652 0.948 . S
O664 Zn649 2.034 . S
O664 C659 1.246 . S
O665 Zn657 2.024 . S
O665 C659 1.249 . S
H666 C648 0.948 . S
O667 Zn657 2.039 . S
O667 C671 1.251 . S
O668 Zn649 2.025 . S
O668 C671 1.254 . S
O669 C650 1.246 . S
O669 Zn657 2.034 . S
O670 Zn649 2.024 . S
O670 C650 1.249 . S
C671 O667 1.251 . S
C671 O668 1.254 . S
H672 C645 0.949 . S
H673 C647 0.950 . S
H674 C654 0.949 . S
H675 C656 0.950 . S
C676 O692 1.251 . S
C676 O694 1.254 . S
N677 C678 1.333 . S
N677 C682 1.307 . S
N677 Zn683 2.020 . S
C678 N677 1.333 . S
C678 C679 1.379 . S
C678 H696 0.952 . S
C679 C678 1.379 . S
C679 C680 1.390 . S
C679 H706 0.949 . S
C680 C679 1.390 . S
C680 C681 1.357 . S
C681 C680 1.357 . S
C681 C682 1.370 . S
C681 H707 0.950 . S
C682 N677 1.307 . S
C682 C681 1.370 . S
C682 H700 0.948 . S
Zn683 N677 2.020 . S
Zn683 O692 2.039 . S
Zn683 O698 2.034 . S
Zn683 O702 2.025 . S
Zn683 O704 2.024 . S
C684 O703 1.246 . S
C684 O704 1.249 . S
N685 C686 1.307 1_455 S
N685 C687 1.333 . S
N685 Zn691 2.020 . S
C686 N685 1.307 1_655 S
C686 C690 1.370 . S
C686 H697 0.948 . S
C687 N685 1.333 . S
C687 C688 1.379 . S
C687 H695 0.952 . S
C688 C687 1.379 . S
C688 C689 1.390 1_455 S
C688 H708 0.949 . S
C689 C688 1.390 1_655 S
C689 C690 1.357 . S
C690 C686 1.370 . S
C690 C689 1.357 . S
C690 H709 0.950 . S
Zn691 N685 2.020 . S
Zn691 O694 2.025 . S
Zn691 O699 2.024 1_455 S
Zn691 O701 2.039 . S
Zn691 O703 2.034 . S
O692 C676 1.251 . S
O692 Zn683 2.039 . S
C693 O698 1.246 1_655 S
C693 O699 1.249 . S
O694 C676 1.254 . S
O694 Zn691 2.025 . S
H695 C687 0.952 . S
H696 C678 0.952 . S
H697 C686 0.948 . S
O698 Zn683 2.034 . S
O698 C693 1.246 1_455 S
O699 Zn691 2.024 1_655 S
O699 C693 1.249 . S
H700 C682 0.948 . S
O701 Zn691 2.039 . S
O701 C705 1.251 . S
O702 Zn683 2.025 . S
O702 C705 1.254 . S
O703 C684 1.246 . S
O703 Zn691 2.034 . S
O704 Zn683 2.024 . S
O704 C684 1.249 . S
C705 O701 1.251 . S
C705 O702 1.254 . S
H706 C679 0.949 . S
H707 C681 0.950 . S
H708 C688 0.949 . S
H709 C690 0.950 . S
C710 O726 1.251 . S
C710 O728 1.254 . S
N711 C712 1.333 . S
N711 C716 1.307 . S
N711 Zn717 2.020 . S
C712 N711 1.333 . S
C712 C713 1.379 . S
C712 H730 0.952 . S
C713 C712 1.379 . S
C713 C714 1.390 . S
C713 H740 0.949 . S
C714 C713 1.390 . S
C714 C715 1.357 . S
C715 C714 1.357 . S
C715 C716 1.370 . S
C715 H741 0.950 . S
C716 N711 1.307 . S
C716 C715 1.370 . S
C716 H734 0.948 . S
Zn717 N711 2.020 . S
Zn717 O726 2.039 . S
Zn717 O732 2.034 . S
Zn717 O736 2.025 . S
Zn717 O738 2.024 . S
C718 O737 1.246 . S
C718 O738 1.249 . S
N719 C720 1.307 . S
N719 C721 1.333 . S
N719 Zn725 2.020 . S
C720 N719 1.307 . S
C720 C724 1.370 . S
C720 H731 0.948 . S
C721 N719 1.333 . S
C721 C722 1.379 . S
C721 H729 0.952 . S
C722 C721 1.379 . S
C722 C723 1.390 . S
C722 H742 0.949 . S
C723 C722 1.390 . S
C723 C724 1.357 . S
C724 C720 1.370 . S
C724 C723 1.357 . S
C724 H743 0.950 . S
Zn725 N719 2.020 . S
Zn725 O728 2.025 . S
Zn725 O733 2.024 . S
Zn725 O735 2.039 . S
Zn725 O737 2.034 . S
O726 C710 1.251 . S
O726 Zn717 2.039 . S
C727 O732 1.246 . S
C727 O733 1.249 . S
O728 C710 1.254 . S
O728 Zn725 2.025 . S
H729 C721 0.952 . S
H730 C712 0.952 . S
H731 C720 0.948 . S
O732 Zn717 2.034 . S
O732 C727 1.246 . S
O733 Zn725 2.024 . S
O733 C727 1.249 . S
H734 C716 0.948 . S
O735 Zn725 2.039 . S
O735 C739 1.251 . S
O736 Zn717 2.025 . S
O736 C739 1.254 . S
O737 C718 1.246 . S
O737 Zn725 2.034 . S
O738 Zn717 2.024 . S
O738 C718 1.249 . S
C739 O735 1.251 . S
C739 O736 1.254 . S
H740 C713 0.949 . S
H741 C715 0.950 . S
H742 C722 0.949 . S
H743 C724 0.950 . S
C744 O760 1.251 . S
C744 O762 1.254 . S
N745 C746 1.333 . S
N745 C750 1.307 . S
N745 Zn751 2.020 . S
C746 N745 1.333 . S
C746 C747 1.379 . S
C746 H764 0.952 . S
C747 C746 1.379 . S
C747 C748 1.390 . S
C747 H774 0.949 . S
C748 C747 1.390 . S
C748 C749 1.357 . S
C749 C748 1.357 . S
C749 C750 1.370 . S
C749 H775 0.950 . S
C750 N745 1.307 . S
C750 C749 1.370 . S
C750 H768 0.948 . S
Zn751 N745 2.020 . S
Zn751 O760 2.039 . S
Zn751 O766 2.034 . S
Zn751 O770 2.025 . S
Zn751 O772 2.024 . S
C752 O771 1.246 . S
C752 O772 1.249 . S
N753 C754 1.307 . S
N753 C755 1.333 . S
N753 Zn759 2.020 . S
C754 N753 1.307 . S
C754 C758 1.370 . S
C754 H765 0.948 . S
C755 N753 1.333 . S
C755 C756 1.379 . S
C755 H763 0.952 . S
C756 C755 1.379 . S
C756 C757 1.390 . S
C756 H776 0.949 . S
C757 C756 1.390 . S
C757 C758 1.357 . S
C758 C754 1.370 . S
C758 C757 1.357 . S
C758 H777 0.950 . S
Zn759 N753 2.020 . S
Zn759 O762 2.025 . S
Zn759 O767 2.024 . S
Zn759 O769 2.039 . S
Zn759 O771 2.034 . S
O760 C744 1.251 . S
O760 Zn751 2.039 . S
C761 O766 1.246 . S
C761 O767 1.249 . S
O762 C744 1.254 . S
O762 Zn759 2.025 . S
H763 C755 0.952 . S
H764 C746 0.952 . S
H765 C754 0.948 . S
O766 Zn751 2.034 . S
O766 C761 1.246 . S
O767 Zn759 2.024 . S
O767 C761 1.249 . S
H768 C750 0.948 . S
O769 Zn759 2.039 . S
O769 C773 1.251 . S
O770 Zn751 2.025 . S
O770 C773 1.254 . S
O771 C752 1.246 . S
O771 Zn759 2.034 . S
O772 Zn751 2.024 . S
O772 C752 1.249 . S
C773 O769 1.251 . S
C773 O770 1.254 . S
H774 C747 0.949 . S
H775 C749 0.950 . S
H776 C756 0.949 . S
H777 C758 0.950 . S
C778 O794 1.251 . S
C778 O796 1.254 . S
N779 C780 1.333 . S
N779 C784 1.307 . S
N779 Zn785 2.020 . S
C780 N779 1.333 . S
C780 C781 1.379 . S
C780 H798 0.952 . S
C781 C780 1.379 . S
C781 C782 1.390 . S
C781 H808 0.949 . S
C782 C781 1.390 . S
C782 C783 1.357 . S
C783 C782 1.357 . S
C783 C784 1.370 . S
C783 H809 0.950 . S
C784 N779 1.307 . S
C784 C783 1.370 . S
C784 H802 0.948 . S
Zn785 N779 2.020 . S
Zn785 O794 2.039 . S
Zn785 O800 2.034 . S
Zn785 O804 2.025 . S
Zn785 O806 2.024 . S
C786 O805 1.246 . S
C786 O806 1.249 . S
N787 C788 1.307 . S
N787 C789 1.333 . S
N787 Zn793 2.020 . S
C788 N787 1.307 . S
C788 C792 1.370 . S
C788 H799 0.948 . S
C789 N787 1.333 . S
C789 C790 1.379 . S
C789 H797 0.952 . S
C790 C789 1.379 . S
C790 C791 1.390 . S
C790 H810 0.949 . S
C791 C790 1.390 . S
C791 C792 1.357 . S
C792 C788 1.370 . S
C792 C791 1.357 . S
C792 H811 0.950 . S
Zn793 N787 2.020 . S
Zn793 O796 2.025 . S
Zn793 O801 2.024 . S
Zn793 O803 2.039 . S
Zn793 O805 2.034 . S
O794 C778 1.251 . S
O794 Zn785 2.039 . S
C795 O800 1.246 . S
C795 O801 1.249 . S
O796 C778 1.254 . S
O796 Zn793 2.025 . S
H797 C789 0.952 . S
H798 C780 0.952 . S
H799 C788 0.948 . S
O800 Zn785 2.034 . S
O800 C795 1.246 . S
O801 Zn793 2.024 . S
O801 C795 1.249 . S
H802 C784 0.948 . S
O803 Zn793 2.039 . S
O803 C807 1.251 . S
O804 Zn785 2.025 . S
O804 C807 1.254 . S
O805 C786 1.246 . S
O805 Zn793 2.034 . S
O806 Zn785 2.024 . S
O806 C786 1.249 . S
C807 O803 1.251 . S
C807 O804 1.254 . S
H808 C781 0.949 . S
H809 C783 0.950 . S
H810 C790 0.949 . S
H811 C792 0.950 . S
C812 O828 1.251 . S
C812 O830 1.254 . S
N813 C814 1.333 . S
N813 C818 1.307 . S
N813 Zn819 2.020 . S
C814 N813 1.333 . S
C814 C815 1.379 . S
C814 H832 0.952 . S
C815 C814 1.379 . S
C815 C816 1.390 . S
C815 H842 0.949 . S
C816 C815 1.390 . S
C816 C817 1.357 . S
C817 C816 1.357 . S
C817 C818 1.370 . S
C817 H843 0.950 . S
C818 N813 1.307 . S
C818 C817 1.370 . S
C818 H836 0.948 . S
Zn819 N813 2.020 . S
Zn819 O828 2.039 . S
Zn819 O834 2.034 . S
Zn819 O838 2.025 . S
Zn819 O840 2.024 . S
C820 O839 1.246 . S
C820 O840 1.249 . S
N821 C822 1.307 . S
N821 C823 1.333 . S
N821 Zn827 2.020 . S
C822 N821 1.307 . S
C822 C826 1.370 . S
C822 H833 0.948 . S
C823 N821 1.333 . S
C823 C824 1.379 . S
C823 H831 0.952 . S
C824 C823 1.379 . S
C824 C825 1.390 . S
C824 H844 0.949 . S
C825 C824 1.390 . S
C825 C826 1.357 . S
C826 C822 1.370 . S
C826 C825 1.357 . S
C826 H845 0.950 . S
Zn827 N821 2.020 . S
Zn827 O830 2.025 . S
Zn827 O835 2.024 . S
Zn827 O837 2.039 . S
Zn827 O839 2.034 . S
O828 C812 1.251 . S
O828 Zn819 2.039 . S
C829 O834 1.246 . S
C829 O835 1.249 . S
O830 C812 1.254 . S
O830 Zn827 2.025 . S
H831 C823 0.952 . S
H832 C814 0.952 . S
H833 C822 0.948 . S
O834 Zn819 2.034 . S
O834 C829 1.246 . S
O835 Zn827 2.024 . S
O835 C829 1.249 . S
H836 C818 0.948 . S
O837 Zn827 2.039 . S
O837 C841 1.251 . S
O838 Zn819 2.025 . S
O838 C841 1.254 . S
O839 C820 1.246 . S
O839 Zn827 2.034 . S
O840 Zn819 2.024 . S
O840 C820 1.249 . S
C841 O837 1.251 . S
C841 O838 1.254 . S
H842 C815 0.949 . S
H843 C817 0.950 . S
H844 C824 0.949 . S
H845 C826 0.950 . S
C846 O862 1.251 . S
C846 O864 1.254 . S
N847 C848 1.333 . S
N847 C852 1.307 . S
N847 Zn853 2.020 . S
C848 N847 1.333 . S
C848 C849 1.379 . S
C848 H866 0.952 . S
C849 C848 1.379 . S
C849 C850 1.390 . S
C849 H876 0.949 . S
C850 C849 1.390 . S
C850 C851 1.357 . S
C851 C850 1.357 . S
C851 C852 1.370 . S
C851 H877 0.950 . S
C852 N847 1.307 . S
C852 C851 1.370 . S
C852 H870 0.948 . S
Zn853 N847 2.020 . S
Zn853 O862 2.039 . S
Zn853 O868 2.034 . S
Zn853 O872 2.023 . S
Zn853 O874 2.024 . S
C854 O873 1.246 . S
C854 O874 1.249 1_655 S
N855 C856 1.307 . S
N855 C857 1.333 1_554 S
N855 Zn861 2.020 . S
C856 N855 1.307 . S
C856 C860 1.370 . S
C856 H867 0.948 . S
C857 N855 1.333 1_556 S
C857 C858 1.392 . S
C857 H865 0.952 . S
C858 C857 1.392 . S
C858 C859 1.384 1_455 S
C858 H878 0.942 1_455 S
C859 C858 1.384 1_655 S
C859 C860 1.346 1_656 S
C860 C856 1.370 . S
C860 C859 1.346 1_454 S
C860 H879 0.950 . S
Zn861 N855 2.020 . S
Zn861 O864 2.025 . S
Zn861 O869 2.024 . S
Zn861 O871 2.039 1_554 S
Zn861 O873 2.034 1_455 S
O862 C846 1.251 . S
O862 Zn853 2.039 . S
C863 O868 1.246 . S
C863 O869 1.249 . S
O864 C846 1.254 . S
O864 Zn861 2.025 . S
H865 C857 0.952 . S
H866 C848 0.952 . S
H867 C856 0.948 . S
O868 Zn853 2.034 . S
O868 C863 1.246 . S
O869 Zn861 2.024 . S
O869 C863 1.249 . S
H870 C852 0.948 . S
O871 Zn861 2.039 1_556 S
O871 C875 1.251 . S
O872 Zn853 2.023 . S
O872 C875 1.256 1_554 S
O873 C854 1.246 . S
O873 Zn861 2.034 1_655 S
O874 Zn853 2.024 . S
O874 C854 1.249 1_455 S
C875 O871 1.251 . S
C875 O872 1.256 1_556 S
H876 C849 0.949 . S
H877 C851 0.950 . S
H878 C858 0.942 1_655 S
H879 C860 0.950 . S
H880 C888 0.950 . S
H881 C893 0.950 . S
H882 C890 0.950 . S
H883 C892 0.950 . S
H884 C894 0.950 . S
H885 C896 0.950 . S
H886 C898 0.950 . S
H887 C899 0.950 1_655 S
C888 H880 0.950 . S
C888 C889 1.386 . S
C888 C890 1.391 . S
C889 C888 1.386 . S
C889 C893 1.393 . S
C890 H882 0.950 . S
C890 C888 1.391 . S
C890 C891 1.400 . S
C891 C890 1.400 . S
C891 C892 1.398 . S
C891 C897 1.491 . S
C892 H883 0.950 . S
C892 C891 1.398 . S
C892 C893 1.391 . S
C893 H881 0.950 . S
C893 C889 1.393 . S
C893 C892 1.391 . S
C894 H884 0.950 . S
C894 C895 1.386 . S
C894 C896 1.391 . S
C895 C894 1.386 . S
C895 C899 1.393 . S
C896 H885 0.950 . S
C896 C894 1.391 . S
C896 C897 1.400 . S
C897 C891 1.491 . S
C897 C896 1.400 . S
C897 C898 1.398 . S
C898 H886 0.950 . S
C898 C897 1.398 . S
C898 C899 1.391 . S
C899 H887 0.950 1_455 S
C899 C895 1.393 . S
C899 C898 1.391 . S
H900 C908 0.950 . S
H901 C913 0.950 . S
H902 C910 0.950 . S
H903 C912 0.950 . S
H904 C914 0.950 . S
H905 C916 0.950 . S
H906 C918 0.950 . S
H907 C919 0.950 . S
C908 H900 0.950 . S
C908 C909 1.386 . S
C908 C910 1.391 . S
C909 C908 1.386 . S
C909 C913 1.393 . S
C910 H902 0.950 . S
C910 C908 1.391 . S
C910 C911 1.400 . S
C911 C910 1.400 . S
C911 C912 1.398 . S
C911 C917 1.491 . S
C912 H903 0.950 . S
C912 C911 1.398 . S
C912 C913 1.391 . S
C913 H901 0.950 . S
C913 C909 1.393 . S
C913 C912 1.391 . S
C914 H904 0.950 . S
C914 C915 1.386 . S
C914 C916 1.391 . S
C915 C914 1.386 . S
C915 C919 1.393 . S
C916 H905 0.950 . S
C916 C914 1.391 . S
C916 C917 1.400 . S
C917 C911 1.491 . S
C917 C916 1.400 . S
C917 C918 1.398 . S
C918 H906 0.950 . S
C918 C917 1.398 . S
C918 C919 1.391 . S
C919 H907 0.950 . S
C919 C915 1.393 . S
C919 C918 1.391 . S
H920 C928 0.950 . S
H921 C933 0.950 . S
H922 C930 0.950 . S
H923 C932 0.950 . S
H924 C934 0.950 . S
H925 C936 0.950 . S
H926 C938 0.950 . S
H927 C939 0.950 . S
C928 H920 0.950 . S
C928 C929 1.386 . S
C928 C930 1.391 . S
C929 C928 1.386 . S
C929 C933 1.393 . S
C930 H922 0.950 . S
C930 C928 1.391 . S
C930 C931 1.400 . S
C931 C930 1.400 . S
C931 C932 1.398 . S
C931 C937 1.491 . S
C932 H923 0.950 . S
C932 C931 1.398 . S
C932 C933 1.391 . S
C933 H921 0.950 . S
C933 C929 1.393 . S
C933 C932 1.391 . S
C934 H924 0.950 . S
C934 C935 1.386 . S
C934 C936 1.391 . S
C935 C934 1.386 . S
C935 C939 1.393 . S
C936 H925 0.950 . S
C936 C934 1.391 . S
C936 C937 1.400 . S
C937 C931 1.491 . S
C937 C936 1.400 . S
C937 C938 1.398 . S
C938 H926 0.950 . S
C938 C937 1.398 . S
C938 C939 1.391 . S
C939 H927 0.950 . S
C939 C935 1.393 . S
C939 C938 1.391 . S
H940 C948 0.950 . S
H941 C953 0.950 . S
H942 C950 0.950 . S
H943 C952 0.950 . S
H944 C954 0.950 . S
H945 C956 0.950 . S
H946 C958 0.950 . S
H947 C959 0.950 . S
C948 H940 0.950 . S
C948 C949 1.386 . S
C948 C950 1.391 . S
C949 C948 1.386 . S
C949 C953 1.393 . S
C950 H942 0.950 . S
C950 C948 1.391 . S
C950 C951 1.400 . S
C951 C950 1.400 . S
C951 C952 1.398 . S
C951 C957 1.491 . S
C952 H943 0.950 . S
C952 C951 1.398 . S
C952 C953 1.391 . S
C953 H941 0.950 . S
C953 C949 1.393 . S
C953 C952 1.391 . S
C954 H944 0.950 . S
C954 C955 1.386 . S
C954 C956 1.391 . S
C955 C954 1.386 . S
C955 C959 1.393 . S
C956 H945 0.950 . S
C956 C954 1.391 . S
C956 C957 1.400 . S
C957 C951 1.491 . S
C957 C956 1.400 . S
C957 C958 1.398 . S
C958 H946 0.950 . S
C958 C957 1.398 . S
C958 C959 1.391 . S
C959 H947 0.950 . S
C959 C955 1.393 . S
C959 C958 1.391 . S
H960 C968 0.950 . S
H961 C973 0.950 . S
H962 C970 0.950 . S
H963 C972 0.950 . S
H964 C974 0.950 . S
H965 C976 0.950 . S
H966 C978 0.950 . S
H967 C979 0.950 . S
C968 H960 0.950 . S
C968 C969 1.386 . S
C968 C970 1.391 . S
C969 C968 1.386 . S
C969 C973 1.393 . S
C970 H962 0.950 . S
C970 C968 1.391 . S
C970 C971 1.400 . S
C971 C970 1.400 . S
C971 C972 1.398 . S
C971 C977 1.491 . S
C972 H963 0.950 . S
C972 C971 1.398 . S
C972 C973 1.391 . S
C973 H961 0.950 . S
C973 C969 1.393 . S
C973 C972 1.391 . S
C974 H964 0.950 . S
C974 C975 1.386 . S
C974 C976 1.391 . S
C975 C974 1.386 . S
C975 C979 1.393 . S
C976 H965 0.950 . S
C976 C974 1.391 . S
C976 C977 1.400 . S
C977 C971 1.491 . S
C977 C976 1.400 . S
C977 C978 1.398 . S
C978 H966 0.950 . S
C978 C977 1.398 . S
C978 C979 1.391 . S
C979 H967 0.950 . S
C979 C975 1.393 . S
C979 C978 1.391 . S
H980 C988 0.950 . S
H981 C993 0.950 . S
H982 C990 0.950 . S
H983 C992 0.950 . S
H984 C994 0.950 . S
H985 C996 0.950 . S
H986 C998 0.950 . S
H987 C999 0.950 . S
C988 H980 0.950 . S
C988 C989 1.386 . S
C988 C990 1.391 . S
C989 C988 1.386 . S
C989 C993 1.393 . S
C990 H982 0.950 . S
C990 C988 1.391 . S
C990 C991 1.400 . S
C991 C990 1.400 . S
C991 C992 1.398 . S
C991 C997 1.491 . S
C992 H983 0.950 . S
C992 C991 1.398 . S
C992 C993 1.391 . S
C993 H981 0.950 . S
C993 C989 1.393 . S
C993 C992 1.391 . S
C994 H984 0.950 . S
C994 C995 1.386 . S
C994 C996 1.391 . S
C995 C994 1.386 . S
C995 C999 1.393 . S
C996 H985 0.950 . S
C996 C994 1.391 . S
C996 C997 1.400 . S
C997 C991 1.491 . S
C997 C996 1.400 . S
C997 C998 1.398 . S
C998 H986 0.950 . S
C998 C997 1.398 . S
C998 C999 1.391 . S
C999 H987 0.950 . S
C999 C995 1.393 . S
C999 C998 1.391 . S
H1000 C1008 0.950 . S
H1001 C1013 0.950 . S
H1002 C1010 0.950 . S
H1003 C1012 0.950 . S
H1004 C1014 0.950 1_554 S
H1005 C1016 0.950 . S
H1006 C1018 0.950 . S
H1007 C1019 0.950 . S
C1008 H1000 0.950 . S
C1008 C1009 1.386 . S
C1008 C1010 1.391 . S
C1009 C1008 1.386 . S
C1009 C1013 1.393 . S
C1010 H1002 0.950 . S
C1010 C1008 1.391 . S
C1010 C1011 1.400 . S
C1011 C1010 1.400 . S
C1011 C1012 1.398 . S
C1011 C1017 1.491 . S
C1012 H1003 0.950 . S
C1012 C1011 1.398 . S
C1012 C1013 1.391 . S
C1013 H1001 0.950 . S
C1013 C1009 1.393 . S
C1013 C1012 1.391 . S
C1014 H1004 0.950 1_556 S
C1014 C1015 1.386 . S
C1014 C1016 1.391 . S
C1015 C1014 1.386 . S
C1015 C1019 1.393 . S
C1016 H1005 0.950 . S
C1016 C1014 1.391 . S
C1016 C1017 1.400 . S
C1017 C1011 1.491 . S
C1017 C1016 1.400 . S
C1017 C1018 1.398 . S
C1018 H1006 0.950 . S
C1018 C1017 1.398 . S
C1018 C1019 1.391 . S
C1019 H1007 0.950 . S
C1019 C1015 1.393 . S
C1019 C1018 1.391 . S
H1020 C1028 0.950 . S
H1021 C1033 0.950 . S
H1022 C1030 0.950 . S
H1023 C1032 0.950 . S
H1024 C1034 0.950 . S
H1025 C1036 0.950 . S
H1026 C1038 0.950 . S
H1027 C1039 0.950 . S
C1028 H1020 0.950 . S
C1028 C1029 1.386 . S
C1028 C1030 1.391 . S
C1029 C1028 1.386 . S
C1029 C1033 1.393 . S
C1030 H1022 0.950 . S
C1030 C1028 1.391 . S
C1030 C1031 1.400 . S
C1031 C1030 1.400 . S
C1031 C1032 1.398 . S
C1031 C1037 1.491 . S
C1032 H1023 0.950 . S
C1032 C1031 1.398 . S
C1032 C1033 1.391 . S
C1033 H1021 0.950 . S
C1033 C1029 1.393 . S
C1033 C1032 1.391 . S
C1034 H1024 0.950 . S
C1034 C1035 1.386 . S
C1034 C1036 1.391 . S
C1035 C1034 1.386 . S
C1035 C1039 1.393 . S
C1036 H1025 0.950 . S
C1036 C1034 1.391 . S
C1036 C1037 1.400 . S
C1037 C1031 1.491 . S
C1037 C1036 1.400 . S
C1037 C1038 1.398 . S
C1038 H1026 0.950 . S
C1038 C1037 1.398 . S
C1038 C1039 1.391 . S
C1039 H1027 0.950 . S
C1039 C1035 1.393 . S
C1039 C1038 1.391 . S
H1040 C1048 0.950 . S
H1041 C1053 0.950 . S
H1042 C1050 0.950 . S
H1043 C1052 0.950 . S
H1044 C1054 0.950 . S
H1045 C1056 0.950 . S
H1046 C1058 0.950 . S
H1047 C1059 0.950 . S
C1048 H1040 0.950 . S
C1048 C1049 1.386 . S
C1048 C1050 1.391 . S
C1049 C1048 1.386 . S
C1049 C1053 1.393 1_545 S
C1050 H1042 0.950 . S
C1050 C1048 1.391 . S
C1050 C1051 1.400 . S
C1051 C1050 1.400 . S
C1051 C1052 1.398 1_545 S
C1051 C1057 1.491 . S
C1052 H1043 0.950 . S
C1052 C1051 1.398 1_565 S
C1052 C1053 1.391 . S
C1053 H1041 0.950 . S
C1053 C1049 1.393 1_565 S
C1053 C1052 1.391 . S
C1054 H1044 0.950 . S
C1054 C1055 1.386 . S
C1054 C1056 1.391 . S
C1055 C1054 1.386 . S
C1055 C1059 1.393 1_565 S
C1056 H1045 0.950 . S
C1056 C1054 1.391 . S
C1056 C1057 1.400 1_565 S
C1057 C1051 1.491 . S
C1057 C1056 1.400 1_545 S
C1057 C1058 1.398 . S
C1058 H1046 0.950 . S
C1058 C1057 1.398 . S
C1058 C1059 1.391 . S
C1059 H1047 0.950 . S
C1059 C1055 1.393 1_545 S
C1059 C1058 1.391 . S
H1060 C1068 0.950 . S
H1061 C1073 0.950 . S
H1062 C1070 0.950 . S
H1063 C1072 0.950 . S
H1064 C1074 0.950 . S
H1065 C1076 0.950 . S
H1066 C1078 0.950 . S
H1067 C1079 0.950 . S
C1068 H1060 0.950 . S
C1068 C1069 1.386 . S
C1068 C1070 1.391 . S
C1069 C1068 1.386 . S
C1069 C1073 1.393 . S
C1070 H1062 0.950 . S
C1070 C1068 1.391 . S
C1070 C1071 1.400 . S
C1071 C1070 1.400 . S
C1071 C1072 1.398 . S
C1071 C1077 1.491 . S
C1072 H1063 0.950 . S
C1072 C1071 1.398 . S
C1072 C1073 1.391 . S
C1073 H1061 0.950 . S
C1073 C1069 1.393 . S
C1073 C1072 1.391 . S
C1074 H1064 0.950 . S
C1074 C1075 1.386 . S
C1074 C1076 1.391 . S
C1075 C1074 1.386 . S
C1075 C1079 1.393 . S
C1076 H1065 0.950 . S
C1076 C1074 1.391 . S
C1076 C1077 1.400 . S
C1077 C1071 1.491 . S
C1077 C1076 1.400 . S
C1077 C1078 1.398 . S
C1078 H1066 0.950 . S
C1078 C1077 1.398 . S
C1078 C1079 1.391 . S
C1079 H1067 0.950 . S
C1079 C1075 1.393 . S
C1079 C1078 1.391 . S
H1080 C1088 0.950 . S
H1081 C1093 0.950 . S
H1082 C1090 0.950 . S
H1083 C1092 0.950 . S
H1084 C1094 0.950 . S
H1085 C1096 0.950 . S
H1086 C1098 0.950 . S
H1087 C1099 0.938 1_565 S
C1088 H1080 0.950 . S
C1088 C1089 1.386 1_565 S
C1088 C1090 1.391 . S
C1089 C1088 1.386 1_545 S
C1089 C1093 1.393 . S
C1090 H1082 0.950 . S
C1090 C1088 1.391 . S
C1090 C1091 1.400 1_565 S
C1091 C1090 1.400 1_545 S
C1091 C1092 1.398 . S
C1091 C1097 1.491 . S
C1092 H1083 0.950 . S
C1092 C1091 1.398 . S
C1092 C1093 1.391 . S
C1093 H1081 0.950 . S
C1093 C1089 1.393 . S
C1093 C1092 1.391 . S
C1094 H1084 0.950 . S
C1094 C1095 1.386 . S
C1094 C1096 1.391 . S
C1095 C1094 1.386 . S
C1095 C1099 1.406 . S
C1096 H1085 0.950 . S
C1096 C1094 1.391 . S
C1096 C1097 1.400 . S
C1097 C1091 1.491 . S
C1097 C1096 1.400 . S
C1097 C1098 1.398 1_545 S
C1098 H1086 0.950 . S
C1098 C1097 1.398 1_565 S
C1098 C1099 1.390 1_565 S
C1099 H1087 0.938 1_545 S
C1099 C1095 1.406 . S
C1099 C1098 1.390 1_545 S
H1100 C1108 0.950 . S
H1101 C1113 0.950 . S
H1102 C1110 0.950 . S
H1103 C1112 0.950 . S
H1104 C1114 0.950 . S
H1105 C1116 0.950 . S
H1106 C1118 0.950 . S
H1107 C1119 0.950 . S
C1108 H1100 0.950 . S
C1108 C1109 1.386 . S
C1108 C1110 1.391 . S
C1109 C1108 1.386 . S
C1109 C1113 1.393 . S
C1110 H1102 0.950 . S
C1110 C1108 1.391 . S
C1110 C1111 1.400 . S
C1111 C1110 1.400 . S
C1111 C1112 1.398 . S
C1111 C1117 1.491 . S
C1112 H1103 0.950 . S
C1112 C1111 1.398 . S
C1112 C1113 1.391 . S
C1113 H1101 0.950 . S
C1113 C1109 1.393 . S
C1113 C1112 1.391 . S
C1114 H1104 0.950 . S
C1114 C1115 1.386 . S
C1114 C1116 1.391 . S
C1115 C1114 1.386 . S
C1115 C1119 1.393 . S
C1116 H1105 0.950 . S
C1116 C1114 1.391 . S
C1116 C1117 1.400 . S
C1117 C1111 1.491 . S
C1117 C1116 1.400 . S
C1117 C1118 1.398 . S
C1118 H1106 0.950 . S
C1118 C1117 1.398 . S
C1118 C1119 1.391 . S
C1119 H1107 0.950 . S
C1119 C1115 1.393 . S
C1119 C1118 1.391 . S
H1120 C1128 0.950 . S
H1121 C1133 0.950 1_565 S
H1122 C1130 0.950 . S
H1123 C1132 0.950 1_565 S
H1124 C1134 0.950 . S
H1125 C1136 0.950 . S
H1126 C1138 0.950 . S
H1127 C1139 0.950 . S
C1128 H1120 0.950 . S
C1128 C1129 1.386 . S
C1128 C1130 1.391 . S
C1129 C1128 1.386 . S
C1129 C1133 1.393 . S
C1130 H1122 0.950 . S
C1130 C1128 1.391 . S
C1130 C1131 1.400 . S
C1131 C1130 1.400 . S
C1131 C1132 1.398 . S
C1131 C1137 1.491 . S
C1132 H1123 0.950 1_545 S
C1132 C1131 1.398 . S
C1132 C1133 1.391 . S
C1133 H1121 0.950 1_545 S
C1133 C1129 1.393 . S
C1133 C1132 1.391 . S
C1134 H1124 0.950 . S
C1134 C1135 1.386 . S
C1134 C1136 1.391 . S
C1135 C1134 1.386 . S
C1135 C1139 1.393 . S
C1136 H1125 0.950 . S
C1136 C1134 1.391 . S
C1136 C1137 1.400 . S
C1137 C1131 1.491 . S
C1137 C1136 1.400 . S
C1137 C1138 1.398 . S
C1138 H1126 0.950 . S
C1138 C1137 1.398 . S
C1138 C1139 1.391 . S
C1139 H1127 0.950 . S
C1139 C1135 1.393 . S
C1139 C1138 1.391 . S
H1140 C1148 0.950 . S
H1141 C1153 0.950 . S
H1142 C1150 0.950 . S
H1143 C1152 0.950 . S
H1144 C1154 0.950 . S
H1145 C1156 0.950 . S
H1146 C1158 0.950 . S
H1147 C1159 0.950 . S
C1148 H1140 0.950 . S
C1148 C1149 1.386 . S
C1148 C1150 1.391 . S
C1149 C1148 1.386 . S
C1149 C1153 1.393 . S
C1150 H1142 0.950 . S
C1150 C1148 1.391 . S
C1150 C1151 1.400 . S
C1151 C1150 1.400 . S
C1151 C1152 1.398 . S
C1151 C1157 1.491 . S
C1152 H1143 0.950 . S
C1152 C1151 1.398 . S
C1152 C1153 1.391 . S
C1153 H1141 0.950 . S
C1153 C1149 1.393 . S
C1153 C1152 1.391 . S
C1154 H1144 0.950 . S
C1154 C1155 1.386 . S
C1154 C1156 1.391 . S
C1155 C1154 1.386 . S
C1155 C1159 1.393 . S
C1156 H1145 0.950 . S
C1156 C1154 1.391 . S
C1156 C1157 1.400 . S
C1157 C1151 1.491 . S
C1157 C1156 1.400 . S
C1157 C1158 1.398 . S
C1158 H1146 0.950 . S
C1158 C1157 1.398 . S
C1158 C1159 1.391 . S
C1159 H1147 0.950 . S
C1159 C1155 1.393 . S
C1159 C1158 1.391 . S
H1160 C1168 0.950 . S
H1161 C1173 0.950 . S
H1162 C1170 0.950 . S
H1163 C1172 0.950 . S
H1164 C1174 0.950 . S
H1165 C1176 0.950 . S
H1166 C1178 0.950 . S
H1167 C1179 0.950 . S
C1168 H1160 0.950 . S
C1168 C1169 1.386 1_565 S
C1168 C1170 1.391 . S
C1169 C1168 1.386 1_545 S
C1169 C1173 1.393 . S
C1170 H1162 0.950 . S
C1170 C1168 1.391 . S
C1170 C1171 1.400 . S
C1171 C1170 1.400 . S
C1171 C1172 1.398 1_565 S
C1171 C1177 1.491 . S
C1172 H1163 0.950 . S
C1172 C1171 1.398 1_545 S
C1172 C1173 1.391 . S
C1173 H1161 0.950 . S
C1173 C1169 1.393 . S
C1173 C1172 1.391 . S
C1174 H1164 0.950 . S
C1174 C1175 1.386 1_545 S
C1174 C1176 1.391 . S
C1175 C1174 1.386 1_565 S
C1175 C1179 1.393 . S
C1176 H1165 0.950 . S
C1176 C1174 1.391 . S
C1176 C1177 1.400 1_545 S
C1177 C1171 1.491 . S
C1177 C1176 1.400 1_565 S
C1177 C1178 1.398 . S
C1178 H1166 0.950 . S
C1178 C1177 1.398 . S
C1178 C1179 1.391 . S
C1179 H1167 0.950 . S
C1179 C1175 1.393 . S
C1179 C1178 1.391 . S
H1180 C1188 0.950 . S
H1181 C1193 0.950 . S
H1182 C1190 0.950 . S
H1183 C1192 0.950 . S
H1184 C1194 0.950 . S
H1185 C1196 0.950 . S
H1186 C1198 0.950 . S
H1187 C1199 0.950 . S
C1188 H1180 0.950 . S
C1188 C1189 1.386 . S
C1188 C1190 1.391 . S
C1189 C1188 1.386 . S
C1189 C1193 1.393 . S
C1190 H1182 0.950 . S
C1190 C1188 1.391 . S
C1190 C1191 1.400 . S
C1191 C1190 1.400 . S
C1191 C1192 1.398 . S
C1191 C1197 1.491 . S
C1192 H1183 0.950 . S
C1192 C1191 1.398 . S
C1192 C1193 1.391 . S
C1193 H1181 0.950 . S
C1193 C1189 1.393 . S
C1193 C1192 1.391 . S
C1194 H1184 0.950 . S
C1194 C1195 1.386 . S
C1194 C1196 1.391 . S
C1195 C1194 1.386 . S
C1195 C1199 1.393 . S
C1196 H1185 0.950 . S
C1196 C1194 1.391 . S
C1196 C1197 1.400 . S
C1197 C1191 1.491 . S
C1197 C1196 1.400 . S
C1197 C1198 1.398 . S
C1198 H1186 0.950 . S
C1198 C1197 1.398 . S
C1198 C1199 1.391 . S
C1199 H1187 0.950 . S
C1199 C1195 1.393 . S
C1199 C1198 1.391 . S
H1200 C1208 0.950 . S
H1201 C1213 0.950 . S
H1202 C1210 0.950 . S
H1203 C1212 0.937 1_556 S
H1204 C1214 0.950 . S
H1205 C1216 0.950 . S
H1206 C1218 0.950 . S
H1207 C1219 0.950 . S
C1208 H1200 0.950 . S
C1208 C1209 1.386 . S
C1208 C1210 1.391 . S
C1209 C1208 1.386 . S
C1209 C1213 1.393 . S
C1210 H1202 0.950 . S
C1210 C1208 1.391 . S
C1210 C1211 1.400 . S
C1211 C1210 1.400 . S
C1211 C1212 1.398 . S
C1211 C1217 1.491 . S
C1212 H1203 0.937 1_554 S
C1212 C1211 1.398 . S
C1212 C1213 1.391 . S
C1213 H1201 0.950 . S
C1213 C1209 1.393 . S
C1213 C1212 1.391 . S
C1214 H1204 0.950 . S
C1214 C1215 1.386 . S
C1214 C1216 1.391 . S
C1215 C1214 1.386 . S
C1215 C1219 1.393 1_556 S
C1216 H1205 0.950 . S
C1216 C1214 1.391 . S
C1216 C1217 1.400 1_556 S
C1217 C1211 1.491 . S
C1217 C1216 1.400 1_554 S
C1217 C1218 1.398 . S
C1218 H1206 0.950 . S
C1218 C1217 1.398 . S
C1218 C1219 1.391 . S
C1219 H1207 0.950 . S
C1219 C1215 1.393 1_554 S
C1219 C1218 1.391 . S
H1220 C1228 0.950 . S
H1221 C1233 0.950 . S
H1222 C1230 0.950 . S
H1223 C1232 0.950 . S
H1224 C1234 0.950 . S
H1225 C1236 0.950 . S
H1226 C1238 0.950 . S
H1227 C1239 0.950 . S
C1228 H1220 0.950 . S
C1228 C1229 1.386 . S
C1228 C1230 1.391 . S
C1229 C1228 1.386 . S
C1229 C1233 1.393 . S
C1230 H1222 0.950 . S
C1230 C1228 1.391 . S
C1230 C1231 1.400 . S
C1231 C1230 1.400 . S
C1231 C1232 1.398 . S
C1231 C1237 1.491 . S
C1232 H1223 0.950 . S
C1232 C1231 1.398 . S
C1232 C1233 1.391 . S
C1233 H1221 0.950 . S
C1233 C1229 1.393 . S
C1233 C1232 1.391 . S
C1234 H1224 0.950 . S
C1234 C1235 1.386 . S
C1234 C1236 1.391 . S
C1235 C1234 1.386 . S
C1235 C1239 1.393 . S
C1236 H1225 0.950 . S
C1236 C1234 1.391 . S
C1236 C1237 1.400 . S
C1237 C1231 1.491 . S
C1237 C1236 1.400 . S
C1237 C1238 1.398 . S
C1238 H1226 0.950 . S
C1238 C1237 1.398 . S
C1238 C1239 1.391 . S
C1239 H1227 0.950 . S
C1239 C1235 1.393 . S
C1239 C1238 1.391 . S
H1240 C1248 0.950 . S
H1241 C1253 0.950 . S
H1242 C1250 0.950 . S
H1243 C1252 0.950 . S
H1244 C1254 0.950 . S
H1245 C1256 0.950 . S
H1246 C1258 0.950 . S
H1247 C1259 0.950 . S
C1248 H1240 0.950 . S
C1248 C1249 1.386 . S
C1248 C1250 1.391 . S
C1249 C1248 1.386 . S
C1249 C1253 1.393 . S
C1250 H1242 0.950 . S
C1250 C1248 1.391 . S
C1250 C1251 1.400 . S
C1251 C1250 1.400 . S
C1251 C1252 1.398 . S
C1251 C1257 1.491 . S
C1252 H1243 0.950 . S
C1252 C1251 1.398 . S
C1252 C1253 1.391 . S
C1253 H1241 0.950 . S
C1253 C1249 1.393 . S
C1253 C1252 1.391 . S
C1254 H1244 0.950 . S
C1254 C1255 1.386 . S
C1254 C1256 1.391 . S
C1255 C1254 1.386 . S
C1255 C1259 1.393 . S
C1256 H1245 0.950 . S
C1256 C1254 1.391 . S
C1256 C1257 1.400 . S
C1257 C1251 1.491 . S
C1257 C1256 1.400 . S
C1257 C1258 1.398 . S
C1258 H1246 0.950 . S
C1258 C1257 1.398 . S
C1258 C1259 1.391 . S
C1259 H1247 0.950 . S
C1259 C1255 1.393 . S
C1259 C1258 1.391 . S
H1260 C1268 0.950 . S
H1261 C1273 0.950 . S
H1262 C1270 0.950 . S
H1263 C1272 0.950 . S
H1264 C1274 0.950 . S
H1265 C1276 0.950 . S
H1266 C1278 0.950 . S
H1267 C1279 0.950 . S
C1268 H1260 0.950 . S
C1268 C1269 1.386 . S
C1268 C1270 1.391 . S
C1269 C1268 1.386 . S
C1269 C1273 1.393 . S
C1270 H1262 0.950 . S
C1270 C1268 1.391 . S
C1270 C1271 1.400 . S
C1271 C1270 1.400 . S
C1271 C1272 1.398 . S
C1271 C1277 1.491 . S
C1272 H1263 0.950 . S
C1272 C1271 1.398 . S
C1272 C1273 1.391 . S
C1273 H1261 0.950 . S
C1273 C1269 1.393 . S
C1273 C1272 1.391 . S
C1274 H1264 0.950 . S
C1274 C1275 1.386 . S
C1274 C1276 1.391 . S
C1275 C1274 1.386 . S
C1275 C1279 1.393 . S
C1276 H1265 0.950 . S
C1276 C1274 1.391 . S
C1276 C1277 1.400 . S
C1277 C1271 1.491 . S
C1277 C1276 1.400 . S
C1277 C1278 1.398 . S
C1278 H1266 0.950 . S
C1278 C1277 1.398 . S
C1278 C1279 1.391 . S
C1279 H1267 0.950 . S
C1279 C1275 1.393 . S
C1279 C1278 1.391 . S
H1280 C1288 0.950 . S
H1281 C1293 0.950 . S
H1282 C1290 0.950 . S
H1283 C1292 0.950 . S
H1284 C1294 0.950 . S
H1285 C1296 0.950 . S
H1286 C1298 0.950 . S
H1287 C1299 0.950 . S
C1288 H1280 0.950 . S
C1288 C1289 1.386 . S
C1288 C1290 1.391 . S
C1289 C1288 1.386 . S
C1289 C1293 1.393 . S
C1290 H1282 0.950 . S
C1290 C1288 1.391 . S
C1290 C1291 1.400 . S
C1291 C1290 1.400 . S
C1291 C1292 1.398 . S
C1291 C1297 1.491 . S
C1292 H1283 0.950 . S
C1292 C1291 1.398 . S
C1292 C1293 1.391 . S
C1293 H1281 0.950 . S
C1293 C1289 1.393 . S
C1293 C1292 1.391 . S
C1294 H1284 0.950 . S
C1294 C1295 1.386 . S
C1294 C1296 1.391 . S
C1295 C1294 1.386 . S
C1295 C1299 1.393 . S
C1296 H1285 0.950 . S
C1296 C1294 1.391 . S
C1296 C1297 1.400 . S
C1297 C1291 1.491 . S
C1297 C1296 1.400 . S
C1297 C1298 1.398 . S
C1298 H1286 0.950 . S
C1298 C1297 1.398 . S
C1298 C1299 1.391 . S
C1299 H1287 0.950 . S
C1299 C1295 1.393 . S
C1299 C1298 1.391 . S
H1300 C1308 0.950 . S
H1301 C1313 0.950 . S
H1302 C1310 0.950 . S
H1303 C1312 0.950 . S
H1304 C1314 0.950 . S
H1305 C1316 0.950 . S
H1306 C1318 0.950 . S
H1307 C1319 0.963 . S
C1308 H1300 0.950 . S
C1308 C1309 1.386 . S
C1308 C1310 1.391 . S
C1309 C1308 1.386 . S
C1309 C1313 1.393 . S
C1310 H1302 0.950 . S
C1310 C1308 1.391 . S
C1310 C1311 1.400 . S
C1311 C1310 1.400 . S
C1311 C1312 1.398 . S
C1311 C1317 1.491 . S
C1312 H1303 0.950 . S
C1312 C1311 1.398 . S
C1312 C1313 1.391 . S
C1313 H1301 0.950 . S
C1313 C1309 1.393 . S
C1313 C1312 1.391 . S
C1314 H1304 0.950 . S
C1314 C1315 1.386 . S
C1314 C1316 1.391 . S
C1315 C1314 1.386 . S
C1315 C1319 1.393 . S
C1316 H1305 0.950 . S
C1316 C1314 1.391 . S
C1316 C1317 1.400 . S
C1317 C1311 1.491 . S
C1317 C1316 1.400 . S
C1317 C1318 1.398 . S
C1318 H1306 0.950 . S
C1318 C1317 1.398 . S
C1318 C1319 1.391 . S
C1319 H1307 0.963 . S
C1319 C1315 1.393 . S
C1319 C1318 1.391 . S
H1320 C1328 0.950 . S
H1321 C1333 0.950 . S
H1322 C1330 0.950 . S
H1323 C1332 0.950 . S
H1324 C1334 0.950 . S
H1325 C1336 0.950 . S
H1326 C1338 0.950 . S
H1327 C1339 0.950 . S
C1328 H1320 0.950 . S
C1328 C1329 1.386 . S
C1328 C1330 1.391 . S
C1329 C1328 1.386 . S
C1329 C1333 1.393 . S
C1330 H1322 0.950 . S
C1330 C1328 1.391 . S
C1330 C1331 1.400 . S
C1331 C1330 1.400 . S
C1331 C1332 1.398 . S
C1331 C1337 1.491 . S
C1332 H1323 0.950 . S
C1332 C1331 1.398 . S
C1332 C1333 1.391 . S
C1333 H1321 0.950 . S
C1333 C1329 1.393 . S
C1333 C1332 1.391 . S
C1334 H1324 0.950 . S
C1334 C1335 1.386 . S
C1334 C1336 1.391 . S
C1335 C1334 1.386 . S
C1335 C1339 1.393 . S
C1336 H1325 0.950 . S
C1336 C1334 1.391 . S
C1336 C1337 1.400 . S
C1337 C1331 1.491 . S
C1337 C1336 1.400 . S
C1337 C1338 1.398 . S
C1338 H1326 0.950 . S
C1338 C1337 1.398 . S
C1338 C1339 1.391 . S
C1339 H1327 0.950 . S
C1339 C1335 1.393 . S
C1339 C1338 1.391 . S
H1340 C1348 0.950 . S
H1341 C1353 0.950 . S
H1342 C1350 0.950 . S
H1343 C1352 0.950 . S
H1344 C1354 0.950 . S
H1345 C1356 0.950 . S
H1346 C1358 0.950 . S
H1347 C1359 0.950 . S
C1348 H1340 0.950 . S
C1348 C1349 1.386 . S
C1348 C1350 1.391 . S
C1349 C1348 1.386 . S
C1349 C1353 1.393 . S
C1350 H1342 0.950 . S
C1350 C1348 1.391 . S
C1350 C1351 1.400 . S
C1351 C1350 1.400 . S
C1351 C1352 1.398 . S
C1351 C1357 1.491 . S
C1352 H1343 0.950 . S
C1352 C1351 1.398 . S
C1352 C1353 1.391 . S
C1353 H1341 0.950 . S
C1353 C1349 1.393 . S
C1353 C1352 1.391 . S
C1354 H1344 0.950 . S
C1354 C1355 1.386 . S
C1354 C1356 1.391 . S
C1355 C1354 1.386 . S
C1355 C1359 1.393 . S
C1356 H1345 0.950 . S
C1356 C1354 1.391 . S
C1356 C1357 1.400 . S
C1357 C1351 1.491 . S
C1357 C1356 1.400 . S
C1357 C1358 1.398 . S
C1358 H1346 0.950 . S
C1358 C1357 1.398 . S
C1358 C1359 1.391 . S
C1359 H1347 0.950 . S
C1359 C1355 1.393 . S
C1359 C1358 1.391 . S
H1360 C1368 0.950 . S
H1361 C1373 0.950 . S
H1362 C1370 0.950 . S
H1363 C1372 0.950 . S
H1364 C1374 0.950 . S
H1365 C1376 0.950 . S
H1366 C1378 0.950 1_655 S
H1367 C1379 0.950 . S
C1368 H1360 0.950 . S
C1368 C1369 1.361 1_655 S
C1368 C1370 1.391 . S
C1369 C1368 1.361 1_455 S
C1369 C1373 1.427 . S
C1370 H1362 0.950 . S
C1370 C1368 1.391 . S
C1370 C1371 1.400 1_655 S
C1371 C1370 1.400 1_455 S
C1371 C1372 1.398 . S
C1371 C1377 1.491 . S
C1372 H1363 0.950 . S
C1372 C1371 1.398 . S
C1372 C1373 1.391 . S
C1373 H1361 0.950 . S
C1373 C1369 1.427 . S
C1373 C1372 1.391 . S
C1374 H1364 0.950 . S
C1374 C1375 1.386 . S
C1374 C1376 1.391 . S
C1375 C1374 1.386 . S
C1375 C1379 1.393 . S
C1376 H1365 0.950 . S
C1376 C1374 1.391 . S
C1376 C1377 1.400 . S
C1377 C1371 1.491 . S
C1377 C1376 1.400 . S
C1377 C1378 1.398 . S
C1378 H1366 0.950 1_455 S
C1378 C1377 1.398 . S
C1378 C1379 1.391 . S
C1379 H1367 0.950 . S
C1379 C1375 1.393 . S
C1379 C1378 1.391 . S
H1380 C1388 0.950 . S
H1381 C1393 0.950 . S
H1382 C1390 0.950 . S
H1383 C1392 0.950 . S
H1384 C1394 0.950 . S
H1385 C1396 0.950 . S
H1386 C1398 0.950 . S
H1387 C1399 0.950 . S
C1388 H1380 0.950 . S
C1388 C1389 1.386 . S
C1388 C1390 1.391 . S
C1389 C1388 1.386 . S
C1389 C1393 1.393 . S
C1390 H1382 0.950 . S
C1390 C1388 1.391 . S
C1390 C1391 1.400 . S
C1391 C1390 1.400 . S
C1391 C1392 1.398 . S
C1391 C1397 1.491 . S
C1392 H1383 0.950 . S
C1392 C1391 1.398 . S
C1392 C1393 1.391 . S
C1393 H1381 0.950 . S
C1393 C1389 1.393 . S
C1393 C1392 1.391 . S
C1394 H1384 0.950 . S
C1394 C1395 1.386 . S
C1394 C1396 1.391 . S
C1395 C1394 1.386 . S
C1395 C1399 1.393 . S
C1396 H1385 0.950 . S
C1396 C1394 1.391 . S
C1396 C1397 1.400 . S
C1397 C1391 1.491 . S
C1397 C1396 1.400 . S
C1397 C1398 1.398 . S
C1398 H1386 0.950 . S
C1398 C1397 1.398 . S
C1398 C1399 1.391 . S
C1399 H1387 0.950 . S
C1399 C1395 1.393 . S
C1399 C1398 1.391 . S
H1400 C1408 0.950 . S
H1401 C1413 0.950 . S
H1402 C1410 0.950 . S
H1403 C1412 0.950 . S
H1404 C1414 0.950 . S
H1405 C1416 0.950 . S
H1406 C1418 0.950 . S
H1407 C1419 0.950 . S
C1408 H1400 0.950 . S
C1408 C1409 1.386 . S
C1408 C1410 1.391 . S
C1409 C1408 1.386 . S
C1409 C1413 1.393 . S
C1410 H1402 0.950 . S
C1410 C1408 1.391 . S
C1410 C1411 1.400 . S
C1411 C1410 1.400 . S
C1411 C1412 1.398 . S
C1411 C1417 1.491 . S
C1412 H1403 0.950 . S
C1412 C1411 1.398 . S
C1412 C1413 1.391 . S
C1413 H1401 0.950 . S
C1413 C1409 1.393 . S
C1413 C1412 1.391 . S
C1414 H1404 0.950 . S
C1414 C1415 1.386 . S
C1414 C1416 1.391 . S
C1415 C1414 1.386 . S
C1415 C1419 1.393 . S
C1416 H1405 0.950 . S
C1416 C1414 1.391 . S
C1416 C1417 1.400 . S
C1417 C1411 1.491 . S
C1417 C1416 1.400 . S
C1417 C1418 1.398 . S
C1418 H1406 0.950 . S
C1418 C1417 1.398 . S
C1418 C1419 1.391 . S
C1419 H1407 0.950 . S
C1419 C1415 1.393 . S
C1419 C1418 1.391 . S
H1420 C1428 0.950 . S
H1421 C1433 0.950 . S
H1422 C1430 0.950 . S
H1423 C1432 0.950 . S
H1424 C1434 0.950 . S
H1425 C1436 0.950 . S
H1426 C1438 0.950 . S
H1427 C1439 0.950 . S
C1428 H1420 0.950 . S
C1428 C1429 1.386 . S
C1428 C1430 1.391 . S
C1429 C1428 1.386 . S
C1429 C1433 1.393 . S
C1430 H1422 0.950 . S
C1430 C1428 1.391 . S
C1430 C1431 1.400 . S
C1431 C1430 1.400 . S
C1431 C1432 1.398 . S
C1431 C1437 1.491 . S
C1432 H1423 0.950 . S
C1432 C1431 1.398 . S
C1432 C1433 1.391 . S
C1433 H1421 0.950 . S
C1433 C1429 1.393 . S
C1433 C1432 1.391 . S
C1434 H1424 0.950 . S
C1434 C1435 1.386 . S
C1434 C1436 1.391 . S
C1435 C1434 1.386 . S
C1435 C1439 1.393 . S
C1436 H1425 0.950 . S
C1436 C1434 1.391 . S
C1436 C1437 1.400 . S
C1437 C1431 1.491 . S
C1437 C1436 1.400 . S
C1437 C1438 1.398 . S
C1438 H1426 0.950 . S
C1438 C1437 1.398 . S
C1438 C1439 1.391 . S
C1439 H1427 0.950 . S
C1439 C1435 1.393 . S
C1439 C1438 1.391 . S
H1440 C1448 0.950 . S
H1441 C1453 0.950 . S
H1442 C1450 0.950 . S
H1443 C1452 0.950 . S
H1444 C1454 0.950 . S
H1445 C1456 0.950 . S
H1446 C1458 0.950 . S
H1447 C1459 0.950 . S
C1448 H1440 0.950 . S
C1448 C1449 1.386 . S
C1448 C1450 1.391 . S
C1449 C1448 1.386 . S
C1449 C1453 1.393 . S
C1450 H1442 0.950 . S
C1450 C1448 1.391 . S
C1450 C1451 1.400 . S
C1451 C1450 1.400 . S
C1451 C1452 1.398 . S
C1451 C1457 1.491 . S
C1452 H1443 0.950 . S
C1452 C1451 1.398 . S
C1452 C1453 1.391 . S
C1453 H1441 0.950 . S
C1453 C1449 1.393 . S
C1453 C1452 1.391 . S
C1454 H1444 0.950 . S
C1454 C1455 1.386 . S
C1454 C1456 1.391 . S
C1455 C1454 1.386 . S
C1455 C1459 1.393 . S
C1456 H1445 0.950 . S
C1456 C1454 1.391 . S
C1456 C1457 1.400 . S
C1457 C1451 1.491 . S
C1457 C1456 1.400 . S
C1457 C1458 1.398 . S
C1458 H1446 0.950 . S
C1458 C1457 1.398 . S
C1458 C1459 1.391 . S
C1459 H1447 0.950 . S
C1459 C1455 1.393 . S
C1459 C1458 1.391 . S
H1460 C1468 0.950 . S
H1461 C1473 0.950 . S
H1462 C1470 0.950 . S
H1463 C1472 0.950 . S
H1464 C1474 0.950 . S
H1465 C1476 0.950 . S
H1466 C1478 0.950 . S
H1467 C1479 0.950 . S
C1468 H1460 0.950 . S
C1468 C1469 1.386 . S
C1468 C1470 1.391 . S
C1469 C1468 1.386 . S
C1469 C1473 1.393 . S
C1470 H1462 0.950 . S
C1470 C1468 1.391 . S
C1470 C1471 1.400 . S
C1471 C1470 1.400 . S
C1471 C1472 1.398 . S
C1471 C1477 1.491 . S
C1472 H1463 0.950 . S
C1472 C1471 1.398 . S
C1472 C1473 1.391 . S
C1473 H1461 0.950 . S
C1473 C1469 1.393 . S
C1473 C1472 1.391 . S
C1474 H1464 0.950 . S
C1474 C1475 1.386 . S
C1474 C1476 1.391 . S
C1475 C1474 1.386 . S
C1475 C1479 1.393 . S
C1476 H1465 0.950 . S
C1476 C1474 1.391 . S
C1476 C1477 1.400 . S
C1477 C1471 1.491 . S
C1477 C1476 1.400 . S
C1477 C1478 1.398 . S
C1478 H1466 0.950 . S
C1478 C1477 1.398 . S
C1478 C1479 1.391 . S
C1479 H1467 0.950 . S
C1479 C1475 1.393 . S
C1479 C1478 1.391 . S
H1480 C1488 0.950 . S
H1481 C1493 0.950 . S
H1482 C1490 0.950 . S
H1483 C1492 0.950 . S
H1484 C1494 0.950 . S
H1485 C1496 0.950 . S
H1486 C1498 0.950 . S
H1487 C1499 0.950 . S
C1488 H1480 0.950 . S
C1488 C1489 1.386 . S
C1488 C1490 1.391 . S
C1489 C1488 1.386 . S
C1489 C1493 1.393 . S
C1490 H1482 0.950 . S
C1490 C1488 1.391 . S
C1490 C1491 1.400 . S
C1491 C1490 1.400 . S
C1491 C1492 1.398 . S
C1491 C1497 1.491 . S
C1492 H1483 0.950 . S
C1492 C1491 1.398 . S
C1492 C1493 1.391 . S
C1493 H1481 0.950 . S
C1493 C1489 1.393 . S
C1493 C1492 1.391 . S
C1494 H1484 0.950 . S
C1494 C1495 1.386 . S
C1494 C1496 1.391 . S
C1495 C1494 1.386 . S
C1495 C1499 1.393 . S
C1496 H1485 0.950 . S
C1496 C1494 1.391 . S
C1496 C1497 1.400 . S
C1497 C1491 1.491 . S
C1497 C1496 1.400 . S
C1497 C1498 1.398 . S
C1498 H1486 0.950 . S
C1498 C1497 1.398 . S
C1498 C1499 1.391 . S
C1499 H1487 0.950 . S
C1499 C1495 1.393 . S
C1499 C1498 1.391 . S
H1500 C1508 0.950 . S
H1501 C1513 0.950 . S
H1502 C1510 0.950 . S
H1503 C1512 0.950 . S
H1504 C1514 0.950 . S
H1505 C1516 0.950 . S
H1506 C1518 0.950 . S
H1507 C1519 0.950 . S
C1508 H1500 0.950 . S
C1508 C1509 1.386 . S
C1508 C1510 1.391 . S
C1509 C1508 1.386 . S
C1509 C1513 1.393 . S
C1510 H1502 0.950 . S
C1510 C1508 1.391 . S
C1510 C1511 1.400 . S
C1511 C1510 1.400 . S
C1511 C1512 1.398 . S
C1511 C1517 1.491 . S
C1512 H1503 0.950 . S
C1512 C1511 1.398 . S
C1512 C1513 1.391 . S
C1513 H1501 0.950 . S
C1513 C1509 1.393 . S
C1513 C1512 1.391 . S
C1514 H1504 0.950 . S
C1514 C1515 1.386 . S
C1514 C1516 1.391 . S
C1515 C1514 1.386 . S
C1515 C1519 1.393 . S
C1516 H1505 0.950 . S
C1516 C1514 1.391 . S
C1516 C1517 1.400 . S
C1517 C1511 1.491 . S
C1517 C1516 1.400 . S
C1517 C1518 1.398 . S
C1518 H1506 0.950 . S
C1518 C1517 1.398 . S
C1518 C1519 1.391 . S
C1519 H1507 0.950 . S
C1519 C1515 1.393 . S
C1519 C1518 1.391 . S
H1520 C1528 0.950 . S
H1521 C1533 0.953 . S
H1522 C1530 0.950 . S
H1523 C1532 0.944 1_565 S
H1524 C1534 0.950 . S
H1525 C1536 0.950 1_455 S
H1526 C1538 0.950 . S
H1527 C1539 0.950 . S
C1528 H1520 0.950 . S
C1528 C1529 1.386 . S
C1528 C1530 1.391 . S
C1529 C1528 1.386 . S
C1529 C1533 1.391 1_545 S
C1530 H1522 0.950 . S
C1530 C1528 1.391 . S
C1530 C1531 1.400 . S
C1531 C1530 1.400 . S
C1531 C1532 1.398 . S
C1531 C1537 1.491 . S
C1532 H1523 0.944 1_545 S
C1532 C1531 1.398 . S
C1532 C1533 1.390 1_545 S
C1533 H1521 0.953 . S
C1533 C1529 1.391 1_565 S
C1533 C1532 1.390 1_565 S
C1534 H1524 0.950 . S
C1534 C1535 1.405 . S
C1534 C1536 1.391 1_455 S
C1535 C1534 1.405 . S
C1535 C1539 1.355 1_455 S
C1536 H1525 0.950 1_655 S
C1536 C1534 1.391 1_655 S
C1536 C1537 1.400 . S
C1537 C1531 1.491 . S
C1537 C1536 1.400 . S
C1537 C1538 1.398 . S
C1538 H1526 0.950 . S
C1538 C1537 1.398 . S
C1538 C1539 1.391 . S
C1539 H1527 0.950 . S
C1539 C1535 1.355 1_655 S
C1539 C1538 1.391 . S
H1540 C1548 0.950 . S
H1541 C1553 0.950 . S
H1542 C1550 0.950 . S
H1543 C1552 0.950 . S
H1544 C1554 0.950 . S
H1545 C1556 0.950 . S
H1546 C1558 0.950 . S
H1547 C1559 0.950 . S
C1548 H1540 0.950 . S
C1548 C1549 1.386 . S
C1548 C1550 1.391 . S
C1549 C1548 1.386 . S
C1549 C1553 1.393 . S
C1550 H1542 0.950 . S
C1550 C1548 1.391 . S
C1550 C1551 1.400 . S
C1551 C1550 1.400 . S
C1551 C1552 1.398 . S
C1551 C1557 1.491 . S
C1552 H1543 0.950 . S
C1552 C1551 1.398 . S
C1552 C1553 1.391 . S
C1553 H1541 0.950 . S
C1553 C1549 1.393 . S
C1553 C1552 1.391 . S
C1554 H1544 0.950 . S
C1554 C1555 1.386 . S
C1554 C1556 1.391 . S
C1555 C1554 1.386 . S
C1555 C1559 1.393 . S
C1556 H1545 0.950 . S
C1556 C1554 1.391 . S
C1556 C1557 1.400 . S
C1557 C1551 1.491 . S
C1557 C1556 1.400 . S
C1557 C1558 1.398 . S
C1558 H1546 0.950 . S
C1558 C1557 1.398 . S
C1558 C1559 1.391 . S
C1559 H1547 0.950 . S
C1559 C1555 1.393 . S
C1559 C1558 1.391 . S
H1560 C1568 0.950 . S
H1561 C1573 0.950 . S
H1562 C1570 0.950 . S
H1563 C1572 0.950 . S
H1564 C1574 0.950 . S
H1565 C1576 0.950 . S
H1566 C1578 0.950 . S
H1567 C1579 0.950 . S
C1568 H1560 0.950 . S
C1568 C1569 1.386 . S
C1568 C1570 1.391 . S
C1569 C1568 1.386 . S
C1569 C1573 1.393 1_545 S
C1570 H1562 0.950 . S
C1570 C1568 1.391 . S
C1570 C1571 1.400 . S
C1571 C1570 1.400 . S
C1571 C1572 1.398 1_545 S
C1571 C1577 1.491 . S
C1572 H1563 0.950 . S
C1572 C1571 1.398 1_565 S
C1572 C1573 1.391 . S
C1573 H1561 0.950 . S
C1573 C1569 1.393 1_565 S
C1573 C1572 1.391 . S
C1574 H1564 0.950 . S
C1574 C1575 1.379 1_565 S
C1574 C1576 1.391 . S
C1575 C1574 1.379 1_545 S
C1575 C1579 1.400 . S
C1576 H1565 0.950 . S
C1576 C1574 1.391 . S
C1576 C1577 1.400 1_565 S
C1577 C1571 1.491 . S
C1577 C1576 1.400 1_545 S
C1577 C1578 1.398 . S
C1578 H1566 0.950 . S
C1578 C1577 1.398 . S
C1578 C1579 1.391 . S
C1579 H1567 0.950 . S
C1579 C1575 1.400 . S
C1579 C1578 1.391 . S
H1580 C1588 0.950 . S
H1581 C1593 0.950 . S
H1582 C1590 0.950 . S
H1583 C1592 0.950 . S
H1584 C1594 0.950 . S
H1585 C1596 0.950 . S
H1586 C1598 0.950 . S
H1587 C1599 0.950 . S
C1588 H1580 0.950 . S
C1588 C1589 1.386 . S
C1588 C1590 1.391 . S
C1589 C1588 1.386 . S
C1589 C1593 1.393 . S
C1590 H1582 0.950 . S
C1590 C1588 1.391 . S
C1590 C1591 1.400 . S
C1591 C1590 1.400 . S
C1591 C1592 1.398 . S
C1591 C1597 1.491 . S
C1592 H1583 0.950 . S
C1592 C1591 1.398 . S
C1592 C1593 1.391 . S
C1593 H1581 0.950 . S
C1593 C1589 1.393 . S
C1593 C1592 1.391 . S
C1594 H1584 0.950 . S
C1594 C1595 1.386 . S
C1594 C1596 1.391 . S
C1595 C1594 1.386 . S
C1595 C1599 1.393 . S
C1596 H1585 0.950 . S
C1596 C1594 1.391 . S
C1596 C1597 1.400 . S
C1597 C1591 1.491 . S
C1597 C1596 1.400 . S
C1597 C1598 1.398 . S
C1598 H1586 0.950 . S
C1598 C1597 1.398 . S
C1598 C1599 1.391 . S
C1599 H1587 0.950 . S
C1599 C1595 1.393 . S
C1599 C1598 1.391 . S
H1600 C1608 0.950 . S
H1601 C1613 0.950 . S
H1602 C1610 0.950 . S
H1603 C1612 0.950 . S
H1604 C1614 0.950 . S
H1605 C1616 0.950 . S
H1606 C1618 0.950 . S
H1607 C1619 0.950 . S
C1608 H1600 0.950 . S
C1608 C1609 1.386 . S
C1608 C1610 1.391 . S
C1609 C1608 1.386 . S
C1609 C1613 1.393 1_545 S
C1610 H1602 0.950 . S
C1610 C1608 1.391 . S
C1610 C1611 1.400 1_545 S
C1611 C1610 1.400 1_565 S
C1611 C1612 1.398 . S
C1611 C1617 1.491 . S
C1612 H1603 0.950 . S
C1612 C1611 1.398 . S
C1612 C1613 1.391 . S
C1613 H1601 0.950 . S
C1613 C1609 1.393 1_565 S
C1613 C1612 1.391 . S
C1614 H1604 0.950 . S
C1614 C1615 1.386 . S
C1614 C1616 1.391 . S
C1615 C1614 1.386 . S
C1615 C1619 1.393 1_565 S
C1616 H1605 0.950 . S
C1616 C1614 1.391 . S
C1616 C1617 1.400 . S
C1617 C1611 1.491 . S
C1617 C1616 1.400 . S
C1617 C1618 1.398 1_565 S
C1618 H1606 0.950 . S
C1618 C1617 1.398 1_545 S
C1618 C1619 1.391 . S
C1619 H1607 0.950 . S
C1619 C1615 1.393 1_545 S
C1619 C1618 1.391 . S
H1620 C1628 0.950 . S
H1621 C1633 0.950 . S
H1622 C1630 0.950 . S
H1623 C1632 0.950 . S
H1624 C1634 0.950 . S
H1625 C1636 0.950 . S
H1626 C1638 0.950 . S
H1627 C1639 0.950 . S
C1628 H1620 0.950 . S
C1628 C1629 1.386 . S
C1628 C1630 1.391 . S
C1629 C1628 1.386 . S
C1629 C1633 1.393 . S
C1630 H1622 0.950 . S
C1630 C1628 1.391 . S
C1630 C1631 1.400 . S
C1631 C1630 1.400 . S
C1631 C1632 1.398 . S
C1631 C1637 1.491 . S
C1632 H1623 0.950 . S
C1632 C1631 1.398 . S
C1632 C1633 1.391 . S
C1633 H1621 0.950 . S
C1633 C1629 1.393 . S
C1633 C1632 1.391 . S
C1634 H1624 0.950 . S
C1634 C1635 1.386 . S
C1634 C1636 1.391 . S
C1635 C1634 1.386 . S
C1635 C1639 1.393 . S
C1636 H1625 0.950 . S
C1636 C1634 1.391 . S
C1636 C1637 1.400 . S
C1637 C1631 1.491 . S
C1637 C1636 1.400 . S
C1637 C1638 1.398 . S
C1638 H1626 0.950 . S
C1638 C1637 1.398 . S
C1638 C1639 1.391 . S
C1639 H1627 0.950 . S
C1639 C1635 1.393 . S
C1639 C1638 1.391 . S
H1640 C1648 0.950 . S
H1641 C1653 0.950 . S
H1642 C1650 0.950 . S
H1643 C1652 0.950 1_565 S
H1644 C1654 0.950 . S
H1645 C1656 0.932 1_565 S
H1646 C1658 0.950 . S
H1647 C1659 0.950 . S
C1648 H1640 0.950 . S
C1648 C1649 1.386 . S
C1648 C1650 1.391 . S
C1649 C1648 1.386 . S
C1649 C1653 1.393 1_545 S
C1650 H1642 0.950 . S
C1650 C1648 1.391 . S
C1650 C1651 1.400 . S
C1651 C1650 1.400 . S
C1651 C1652 1.398 . S
C1651 C1657 1.491 . S
C1652 H1643 0.950 1_545 S
C1652 C1651 1.398 . S
C1652 C1653 1.391 1_545 S
C1653 H1641 0.950 . S
C1653 C1649 1.393 1_565 S
C1653 C1652 1.391 1_565 S
C1654 H1644 0.950 . S
C1654 C1655 1.386 . S
C1654 C1656 1.391 . S
C1655 C1654 1.386 . S
C1655 C1659 1.393 . S
C1656 H1645 0.932 1_545 S
C1656 C1654 1.391 . S
C1656 C1657 1.400 . S
C1657 C1651 1.491 . S
C1657 C1656 1.400 . S
C1657 C1658 1.398 . S
C1658 H1646 0.950 . S
C1658 C1657 1.398 . S
C1658 C1659 1.391 . S
C1659 H1647 0.950 . S
C1659 C1655 1.393 . S
C1659 C1658 1.391 . S
H1660 C1668 0.950 . S
H1661 C1673 0.950 . S
H1662 C1670 0.950 . S
H1663 C1672 0.950 . S
H1664 C1674 0.950 . S
H1665 C1676 0.950 . S
H1666 C1678 0.950 . S
H1667 C1679 0.950 . S
C1668 H1660 0.950 . S
C1668 C1669 1.386 . S
C1668 C1670 1.391 . S
C1669 C1668 1.386 . S
C1669 C1673 1.393 . S
C1670 H1662 0.950 . S
C1670 C1668 1.391 . S
C1670 C1671 1.400 . S
C1671 C1670 1.400 . S
C1671 C1672 1.398 . S
C1671 C1677 1.491 . S
C1672 H1663 0.950 . S
C1672 C1671 1.398 . S
C1672 C1673 1.391 . S
C1673 H1661 0.950 . S
C1673 C1669 1.393 . S
C1673 C1672 1.391 . S
C1674 H1664 0.950 . S
C1674 C1675 1.386 . S
C1674 C1676 1.391 . S
C1675 C1674 1.386 . S
C1675 C1679 1.393 . S
C1676 H1665 0.950 . S
C1676 C1674 1.391 . S
C1676 C1677 1.400 . S
C1677 C1671 1.491 . S
C1677 C1676 1.400 . S
C1677 C1678 1.398 . S
C1678 H1666 0.950 . S
C1678 C1677 1.398 . S
C1678 C1679 1.391 . S
C1679 H1667 0.950 . S
C1679 C1675 1.393 . S
C1679 C1678 1.391 . S
H1680 C1688 0.950 . S
H1681 C1693 0.950 . S
H1682 C1690 0.950 . S
H1683 C1692 0.950 . S
H1684 C1694 0.950 1_545 S
H1685 C1696 0.950 . S
H1686 C1698 0.950 . S
H1687 C1699 0.950 . S
C1688 H1680 0.950 . S
C1688 C1689 1.386 . S
C1688 C1690 1.391 . S
C1689 C1688 1.386 . S
C1689 C1693 1.393 . S
C1690 H1682 0.950 . S
C1690 C1688 1.391 . S
C1690 C1691 1.400 . S
C1691 C1690 1.400 . S
C1691 C1692 1.398 . S
C1691 C1697 1.491 . S
C1692 H1683 0.950 . S
C1692 C1691 1.398 . S
C1692 C1693 1.391 . S
C1693 H1681 0.950 . S
C1693 C1689 1.393 . S
C1693 C1692 1.391 . S
C1694 H1684 0.950 1_565 S
C1694 C1695 1.386 . S
C1694 C1696 1.391 . S
C1695 C1694 1.386 . S
C1695 C1699 1.393 . S
C1696 H1685 0.950 . S
C1696 C1694 1.391 . S
C1696 C1697 1.400 . S
C1697 C1691 1.491 . S
C1697 C1696 1.400 . S
C1697 C1698 1.398 . S
C1698 H1686 0.950 . S
C1698 C1697 1.398 . S
C1698 C1699 1.391 . S
C1699 H1687 0.950 . S
C1699 C1695 1.393 . S
C1699 C1698 1.391 . S
H1700 C1708 0.950 . S
H1701 C1713 0.950 . S
H1702 C1710 0.950 . S
H1703 C1712 0.950 . S
H1704 C1714 0.950 . S
H1705 C1716 0.950 . S
H1706 C1718 0.950 . S
H1707 C1719 0.950 . S
C1708 H1700 0.950 . S
C1708 C1709 1.386 1_556 S
C1708 C1710 1.391 . S
C1709 C1708 1.386 1_554 S
C1709 C1713 1.393 . S
C1710 H1702 0.950 . S
C1710 C1708 1.391 . S
C1710 C1711 1.400 1_556 S
C1711 C1710 1.400 1_554 S
C1711 C1712 1.398 . S
C1711 C1717 1.491 . S
C1712 H1703 0.950 . S
C1712 C1711 1.398 . S
C1712 C1713 1.391 . S
C1713 H1701 0.950 . S
C1713 C1709 1.393 . S
C1713 C1712 1.391 . S
C1714 H1704 0.950 . S
C1714 C1715 1.386 . S
C1714 C1716 1.391 . S
C1715 C1714 1.386 . S
C1715 C1719 1.393 1_554 S
C1716 H1705 0.950 . S
C1716 C1714 1.391 . S
C1716 C1717 1.400 . S
C1717 C1711 1.491 . S
C1717 C1716 1.400 . S
C1717 C1718 1.398 1_554 S
C1718 H1706 0.950 . S
C1718 C1717 1.398 1_556 S
C1718 C1719 1.391 . S
C1719 H1707 0.950 . S
C1719 C1715 1.393 1_556 S
C1719 C1718 1.391 . S
H1720 C1728 0.950 . S
H1721 C1733 0.950 . S
H1722 C1730 0.950 . S
H1723 C1732 0.950 . S
H1724 C1734 0.950 . S
H1725 C1736 0.950 . S
H1726 C1738 0.950 . S
H1727 C1739 0.950 . S
C1728 H1720 0.950 . S
C1728 C1729 1.386 . S
C1728 C1730 1.391 . S
C1729 C1728 1.386 . S
C1729 C1733 1.393 . S
C1730 H1722 0.950 . S
C1730 C1728 1.391 . S
C1730 C1731 1.400 . S
C1731 C1730 1.400 . S
C1731 C1732 1.398 . S
C1731 C1737 1.491 . S
C1732 H1723 0.950 . S
C1732 C1731 1.398 . S
C1732 C1733 1.391 . S
C1733 H1721 0.950 . S
C1733 C1729 1.393 . S
C1733 C1732 1.391 . S
C1734 H1724 0.950 . S
C1734 C1735 1.386 . S
C1734 C1736 1.391 . S
C1735 C1734 1.386 . S
C1735 C1739 1.393 . S
C1736 H1725 0.950 . S
C1736 C1734 1.391 . S
C1736 C1737 1.400 . S
C1737 C1731 1.491 . S
C1737 C1736 1.400 . S
C1737 C1738 1.398 . S
C1738 H1726 0.950 . S
C1738 C1737 1.398 . S
C1738 C1739 1.391 . S
C1739 H1727 0.950 . S
C1739 C1735 1.393 . S
C1739 C1738 1.391 . S
H1740 C1748 0.950 . S
H1741 C1753 0.950 . S
H1742 C1750 0.950 . S
H1743 C1752 0.950 . S
H1744 C1754 0.950 . S
H1745 C1756 0.950 . S
H1746 C1758 0.950 . S
H1747 C1759 0.950 . S
C1748 H1740 0.950 . S
C1748 C1749 1.386 . S
C1748 C1750 1.391 . S
C1749 C1748 1.386 . S
C1749 C1753 1.393 . S
C1750 H1742 0.950 . S
C1750 C1748 1.391 . S
C1750 C1751 1.400 . S
C1751 C1750 1.400 . S
C1751 C1752 1.398 . S
C1751 C1757 1.491 . S
C1752 H1743 0.950 . S
C1752 C1751 1.398 . S
C1752 C1753 1.391 . S
C1753 H1741 0.950 . S
C1753 C1749 1.393 . S
C1753 C1752 1.391 . S
C1754 H1744 0.950 . S
C1754 C1755 1.386 . S
C1754 C1756 1.391 . S
C1755 C1754 1.386 . S
C1755 C1759 1.393 . S
C1756 H1745 0.950 . S
C1756 C1754 1.391 . S
C1756 C1757 1.400 . S
C1757 C1751 1.491 . S
C1757 C1756 1.400 . S
C1757 C1758 1.398 . S
C1758 H1746 0.950 . S
C1758 C1757 1.398 . S
C1758 C1759 1.391 . S
C1759 H1747 0.950 . S
C1759 C1755 1.393 . S
C1759 C1758 1.391 . S
H1760 C1768 0.950 . S
H1761 C1773 0.950 . S
H1762 C1770 0.950 . S
H1763 C1772 0.950 . S
H1764 C1774 0.950 . S
H1765 C1776 0.950 . S
H1766 C1778 0.950 . S
H1767 C1779 0.950 . S
C1768 H1760 0.950 . S
C1768 C1769 1.386 . S
C1768 C1770 1.391 . S
C1769 C1768 1.386 . S
C1769 C1773 1.393 . S
C1770 H1762 0.950 . S
C1770 C1768 1.391 . S
C1770 C1771 1.400 . S
C1771 C1770 1.400 . S
C1771 C1772 1.398 . S
C1771 C1777 1.491 . S
C1772 H1763 0.950 . S
C1772 C1771 1.398 . S
C1772 C1773 1.391 . S
C1773 H1761 0.950 . S
C1773 C1769 1.393 . S
C1773 C1772 1.391 . S
C1774 H1764 0.950 . S
C1774 C1775 1.386 . S
C1774 C1776 1.391 . S
C1775 C1774 1.386 . S
C1775 C1779 1.393 . S
C1776 H1765 0.950 . S
C1776 C1774 1.391 . S
C1776 C1777 1.400 . S
C1777 C1771 1.491 . S
C1777 C1776 1.400 . S
C1777 C1778 1.398 . S
C1778 H1766 0.950 . S
C1778 C1777 1.398 . S
C1778 C1779 1.391 . S
C1779 H1767 0.950 . S
C1779 C1775 1.393 . S
C1779 C1778 1.391 . S
H1780 C1788 0.950 . S
H1781 C1793 0.950 . S
H1782 C1790 0.950 . S
H1783 C1792 0.950 . S
H1784 C1794 0.950 . S
H1785 C1796 0.950 . S
H1786 C1798 0.950 . S
H1787 C1799 0.950 . S
C1788 H1780 0.950 . S
C1788 C1789 1.386 . S
C1788 C1790 1.391 . S
C1789 C1788 1.386 . S
C1789 C1793 1.393 . S
C1790 H1782 0.950 . S
C1790 C1788 1.391 . S
C1790 C1791 1.400 . S
C1791 C1790 1.400 . S
C1791 C1792 1.398 . S
C1791 C1797 1.491 . S
C1792 H1783 0.950 . S
C1792 C1791 1.398 . S
C1792 C1793 1.391 . S
C1793 H1781 0.950 . S
C1793 C1789 1.393 . S
C1793 C1792 1.391 . S
C1794 H1784 0.950 . S
C1794 C1795 1.386 . S
C1794 C1796 1.391 . S
C1795 C1794 1.386 . S
C1795 C1799 1.393 . S
C1796 H1785 0.950 . S
C1796 C1794 1.391 . S
C1796 C1797 1.400 . S
C1797 C1791 1.491 . S
C1797 C1796 1.400 . S
C1797 C1798 1.398 . S
C1798 H1786 0.950 . S
C1798 C1797 1.398 . S
C1798 C1799 1.391 . S
C1799 H1787 0.950 . S
C1799 C1795 1.393 . S
C1799 C1798 1.391 . S
H1800 C1808 0.950 . S
H1801 C1813 0.950 . S
H1802 C1810 0.950 . S
H1803 C1812 0.950 . S
H1804 C1814 0.950 . S
H1805 C1816 0.950 . S
H1806 C1818 0.950 . S
H1807 C1819 0.950 . S
C1808 H1800 0.950 . S
C1808 C1809 1.386 . S
C1808 C1810 1.391 . S
C1809 C1808 1.386 . S
C1809 C1813 1.393 . S
C1810 H1802 0.950 . S
C1810 C1808 1.391 . S
C1810 C1811 1.400 . S
C1811 C1810 1.400 . S
C1811 C1812 1.398 . S
C1811 C1817 1.491 . S
C1812 H1803 0.950 . S
C1812 C1811 1.398 . S
C1812 C1813 1.391 . S
C1813 H1801 0.950 . S
C1813 C1809 1.393 . S
C1813 C1812 1.391 . S
C1814 H1804 0.950 . S
C1814 C1815 1.386 . S
C1814 C1816 1.391 . S
C1815 C1814 1.386 . S
C1815 C1819 1.393 . S
C1816 H1805 0.950 . S
C1816 C1814 1.391 . S
C1816 C1817 1.400 . S
C1817 C1811 1.491 . S
C1817 C1816 1.400 . S
C1817 C1818 1.398 . S
C1818 H1806 0.950 . S
C1818 C1817 1.398 . S
C1818 C1819 1.391 . S
C1819 H1807 0.950 . S
C1819 C1815 1.393 . S
C1819 C1818 1.391 . S
H1820 C1828 0.950 . S
H1821 C1833 0.950 . S
H1822 C1830 0.950 . S
H1823 C1832 0.950 . S
H1824 C1834 0.950 . S
H1825 C1836 0.950 . S
H1826 C1838 0.950 . S
H1827 C1839 0.950 . S
C1828 H1820 0.950 . S
C1828 C1829 1.386 . S
C1828 C1830 1.391 . S
C1829 C1828 1.386 . S
C1829 C1833 1.393 . S
C1830 H1822 0.950 . S
C1830 C1828 1.391 . S
C1830 C1831 1.400 . S
C1831 C1830 1.400 . S
C1831 C1832 1.398 . S
C1831 C1837 1.491 . S
C1832 H1823 0.950 . S
C1832 C1831 1.398 . S
C1832 C1833 1.391 . S
C1833 H1821 0.950 . S
C1833 C1829 1.393 . S
C1833 C1832 1.391 . S
C1834 H1824 0.950 . S
C1834 C1835 1.386 . S
C1834 C1836 1.391 . S
C1835 C1834 1.386 . S
C1835 C1839 1.393 . S
C1836 H1825 0.950 . S
C1836 C1834 1.391 . S
C1836 C1837 1.400 . S
C1837 C1831 1.491 . S
C1837 C1836 1.400 . S
C1837 C1838 1.398 . S
C1838 H1826 0.950 . S
C1838 C1837 1.398 . S
C1838 C1839 1.391 . S
C1839 H1827 0.950 . S
C1839 C1835 1.393 . S
C1839 C1838 1.391 . S
H1840 C1848 0.950 . S
H1841 C1853 0.950 . S
H1842 C1850 0.950 . S
H1843 C1852 0.950 . S
H1844 C1854 0.950 . S
H1845 C1856 0.950 . S
H1846 C1858 0.950 . S
H1847 C1859 0.950 . S
C1848 H1840 0.950 . S
C1848 C1849 1.386 . S
C1848 C1850 1.391 . S
C1849 C1848 1.386 . S
C1849 C1853 1.393 . S
C1850 H1842 0.950 . S
C1850 C1848 1.391 . S
C1850 C1851 1.400 . S
C1851 C1850 1.400 . S
C1851 C1852 1.398 . S
C1851 C1857 1.491 . S
C1852 H1843 0.950 . S
C1852 C1851 1.398 . S
C1852 C1853 1.391 . S
C1853 H1841 0.950 . S
C1853 C1849 1.393 . S
C1853 C1852 1.391 . S
C1854 H1844 0.950 . S
C1854 C1855 1.386 . S
C1854 C1856 1.391 . S
C1855 C1854 1.386 . S
C1855 C1859 1.393 . S
C1856 H1845 0.950 . S
C1856 C1854 1.391 . S
C1856 C1857 1.400 . S
C1857 C1851 1.491 . S
C1857 C1856 1.400 . S
C1857 C1858 1.398 . S
C1858 H1846 0.950 . S
C1858 C1857 1.398 . S
C1858 C1859 1.391 . S
C1859 H1847 0.950 . S
C1859 C1855 1.393 . S
C1859 C1858 1.391 . S
H1860 C1868 0.950 . S
H1861 C1873 0.950 . S
H1862 C1870 0.950 . S
H1863 C1872 0.950 . S
H1864 C1874 0.950 . S
H1865 C1876 0.950 . S
H1866 C1878 0.950 . S
H1867 C1879 0.950 . S
C1868 H1860 0.950 . S
C1868 C1869 1.386 . S
C1868 C1870 1.391 . S
C1869 C1868 1.386 . S
C1869 C1873 1.393 . S
C1870 H1862 0.950 . S
C1870 C1868 1.391 . S
C1870 C1871 1.400 . S
C1871 C1870 1.400 . S
C1871 C1872 1.398 . S
C1871 C1877 1.491 . S
C1872 H1863 0.950 . S
C1872 C1871 1.398 . S
C1872 C1873 1.391 . S
C1873 H1861 0.950 . S
C1873 C1869 1.393 . S
C1873 C1872 1.391 . S
C1874 H1864 0.950 . S
C1874 C1875 1.386 . S
C1874 C1876 1.391 . S
C1875 C1874 1.386 . S
C1875 C1879 1.393 . S
C1876 H1865 0.950 . S
C1876 C1874 1.391 . S
C1876 C1877 1.400 . S
C1877 C1871 1.491 . S
C1877 C1876 1.400 . S
C1877 C1878 1.398 . S
C1878 H1866 0.950 . S
C1878 C1877 1.398 . S
C1878 C1879 1.391 . S
C1879 H1867 0.950 . S
C1879 C1875 1.393 . S
C1879 C1878 1.391 . S
H1880 C1888 0.950 . S
H1881 C1893 0.950 . S
H1882 C1890 0.950 . S
H1883 C1892 0.950 . S
H1884 C1894 0.950 . S
H1885 C1896 0.950 . S
H1886 C1898 0.950 . S
H1887 C1899 0.950 . S
C1888 H1880 0.950 . S
C1888 C1889 1.386 . S
C1888 C1890 1.391 . S
C1889 C1888 1.386 . S
C1889 C1893 1.393 . S
C1890 H1882 0.950 . S
C1890 C1888 1.391 . S
C1890 C1891 1.400 . S
C1891 C1890 1.400 . S
C1891 C1892 1.398 . S
C1891 C1897 1.491 . S
C1892 H1883 0.950 . S
C1892 C1891 1.398 . S
C1892 C1893 1.391 . S
C1893 H1881 0.950 . S
C1893 C1889 1.393 . S
C1893 C1892 1.391 . S
C1894 H1884 0.950 . S
C1894 C1895 1.386 . S
C1894 C1896 1.391 . S
C1895 C1894 1.386 . S
C1895 C1899 1.393 . S
C1896 H1885 0.950 . S
C1896 C1894 1.391 . S
C1896 C1897 1.400 . S
C1897 C1891 1.491 . S
C1897 C1896 1.400 . S
C1897 C1898 1.398 . S
C1898 H1886 0.950 . S
C1898 C1897 1.398 . S
C1898 C1899 1.391 . S
C1899 H1887 0.950 . S
C1899 C1895 1.393 . S
C1899 C1898 1.391 . S
H1900 C1908 0.950 . S
H1901 C1913 0.950 . S
H1902 C1910 0.950 . S
H1903 C1912 0.950 . S
H1904 C1914 0.950 . S
H1905 C1916 0.950 . S
H1906 C1918 0.950 . S
H1907 C1919 0.950 . S
C1908 H1900 0.950 . S
C1908 C1909 1.386 . S
C1908 C1910 1.391 . S
C1909 C1908 1.386 . S
C1909 C1913 1.393 . S
C1910 H1902 0.950 . S
C1910 C1908 1.391 . S
C1910 C1911 1.400 . S
C1911 C1910 1.400 . S
C1911 C1912 1.398 . S
C1911 C1917 1.491 . S
C1912 H1903 0.950 . S
C1912 C1911 1.398 . S
C1912 C1913 1.391 . S
C1913 H1901 0.950 . S
C1913 C1909 1.393 . S
C1913 C1912 1.391 . S
C1914 H1904 0.950 . S
C1914 C1915 1.386 . S
C1914 C1916 1.391 . S
C1915 C1914 1.386 . S
C1915 C1919 1.393 . S
C1916 H1905 0.950 . S
C1916 C1914 1.391 . S
C1916 C1917 1.400 . S
C1917 C1911 1.491 . S
C1917 C1916 1.400 . S
C1917 C1918 1.398 . S
C1918 H1906 0.950 . S
C1918 C1917 1.398 . S
C1918 C1919 1.391 . S
C1919 H1907 0.950 . S
C1919 C1915 1.393 . S
C1919 C1918 1.391 . S
H1920 C1928 0.950 . S
H1921 C1933 0.950 . S
H1922 C1930 0.950 . S
H1923 C1932 0.950 . S
H1924 C1934 0.950 . S
H1925 C1936 0.950 1_554 S
H1926 C1938 0.950 . S
H1927 C1939 0.950 . S
C1928 H1920 0.950 . S
C1928 C1929 1.386 . S
C1928 C1930 1.391 . S
C1929 C1928 1.386 . S
C1929 C1933 1.393 . S
C1930 H1922 0.950 . S
C1930 C1928 1.391 . S
C1930 C1931 1.400 . S
C1931 C1930 1.400 . S
C1931 C1932 1.398 . S
C1931 C1937 1.491 . S
C1932 H1923 0.950 . S
C1932 C1931 1.398 . S
C1932 C1933 1.391 . S
C1933 H1921 0.950 . S
C1933 C1929 1.393 . S
C1933 C1932 1.391 . S
C1934 H1924 0.950 . S
C1934 C1935 1.386 1_554 S
C1934 C1936 1.391 1_554 S
C1935 C1934 1.386 1_556 S
C1935 C1939 1.393 . S
C1936 H1925 0.950 1_556 S
C1936 C1934 1.391 1_556 S
C1936 C1937 1.400 . S
C1937 C1931 1.491 . S
C1937 C1936 1.400 . S
C1937 C1938 1.398 . S
C1938 H1926 0.950 . S
C1938 C1937 1.398 . S
C1938 C1939 1.391 . S
C1939 H1927 0.950 . S
C1939 C1935 1.393 . S
C1939 C1938 1.391 . S
H1940 C1948 0.950 1_455 S
H1941 C1953 0.950 . S
H1942 C1950 0.950 . S
H1943 C1952 0.950 . S
H1944 C1954 0.950 . S
H1945 C1956 0.950 . S
H1946 C1958 0.950 . S
H1947 C1959 0.950 . S
C1948 H1940 0.950 1_655 S
C1948 C1949 1.382 1_655 S
C1948 C1950 1.391 . S
C1949 C1948 1.382 1_455 S
C1949 C1953 1.385 1_455 S
C1950 H1942 0.950 . S
C1950 C1948 1.391 . S
C1950 C1951 1.400 . S
C1951 C1950 1.400 . S
C1951 C1952 1.398 . S
C1951 C1957 1.491 . S
C1952 H1943 0.950 . S
C1952 C1951 1.398 . S
C1952 C1953 1.391 . S
C1953 H1941 0.950 . S
C1953 C1949 1.385 1_655 S
C1953 C1952 1.391 . S
C1954 H1944 0.950 . S
C1954 C1955 1.386 . S
C1954 C1956 1.391 . S
C1955 C1954 1.386 . S
C1955 C1959 1.393 . S
C1956 H1945 0.950 . S
C1956 C1954 1.391 . S
C1956 C1957 1.400 . S
C1957 C1951 1.491 . S
C1957 C1956 1.400 . S
C1957 C1958 1.398 . S
C1958 H1946 0.950 . S
C1958 C1957 1.398 . S
C1958 C1959 1.391 . S
C1959 H1947 0.950 . S
C1959 C1955 1.393 . S
C1959 C1958 1.391 . S
H1960 C1968 0.950 1_655 S
H1961 C1973 0.950 . S
H1962 C1970 0.929 1_655 S
H1963 C1972 0.950 . S
H1964 C1974 0.950 . S
H1965 C1976 0.950 . S
H1966 C1978 0.950 . S
H1967 C1979 0.950 . S
C1968 H1960 0.950 1_455 S
C1968 C1969 1.386 . S
C1968 C1970 1.391 . S
C1969 C1968 1.386 . S
C1969 C1973 1.393 . S
C1970 H1962 0.929 1_455 S
C1970 C1968 1.391 . S
C1970 C1971 1.400 . S
C1971 C1970 1.400 . S
C1971 C1972 1.398 . S
C1971 C1977 1.491 . S
C1972 H1963 0.950 . S
C1972 C1971 1.398 . S
C1972 C1973 1.391 . S
C1973 H1961 0.950 . S
C1973 C1969 1.393 . S
C1973 C1972 1.391 . S
C1974 H1964 0.950 . S
C1974 C1975 1.386 . S
C1974 C1976 1.391 . S
C1975 C1974 1.386 . S
C1975 C1979 1.393 . S
C1976 H1965 0.950 . S
C1976 C1974 1.391 . S
C1976 C1977 1.400 . S
C1977 C1971 1.491 . S
C1977 C1976 1.400 . S
C1977 C1978 1.398 . S
C1978 H1966 0.950 . S
C1978 C1977 1.398 . S
C1978 C1979 1.391 . S
C1979 H1967 0.950 . S
C1979 C1975 1.393 . S
C1979 C1978 1.391 . S
H1980 C1988 0.950 . S
H1981 C1993 0.950 . S
H1982 C1990 0.950 . S
H1983 C1992 0.950 . S
H1984 C1994 0.950 . S
H1985 C1996 0.950 . S
H1986 C1998 0.950 . S
H1987 C1999 0.950 . S
C1988 H1980 0.950 . S
C1988 C1989 1.386 . S
C1988 C1990 1.391 . S
C1989 C1988 1.386 . S
C1989 C1993 1.393 . S
C1990 H1982 0.950 . S
C1990 C1988 1.391 . S
C1990 C1991 1.400 . S
C1991 C1990 1.400 . S
C1991 C1992 1.398 . S
C1991 C1997 1.491 . S
C1992 H1983 0.950 . S
C1992 C1991 1.398 . S
C1992 C1993 1.391 . S
C1993 H1981 0.950 . S
C1993 C1989 1.393 . S
C1993 C1992 1.391 . S
C1994 H1984 0.950 . S
C1994 C1995 1.386 . S
C1994 C1996 1.391 . S
C1995 C1994 1.386 . S
C1995 C1999 1.393 . S
C1996 H1985 0.950 . S
C1996 C1994 1.391 . S
C1996 C1997 1.400 . S
C1997 C1991 1.491 . S
C1997 C1996 1.400 . S
C1997 C1998 1.398 . S
C1998 H1986 0.950 . S
C1998 C1997 1.398 . S
C1998 C1999 1.391 . S
C1999 H1987 0.950 . S
C1999 C1995 1.393 . S
C1999 C1998 1.391 . S
H2000 C2008 0.950 . S
H2001 C2013 0.950 . S
H2002 C2010 0.950 . S
H2003 C2012 0.950 . S
H2004 C2014 0.950 . S
H2005 C2016 0.950 . S
H2006 C2018 0.950 . S
H2007 C2019 0.950 . S
C2008 H2000 0.950 . S
C2008 C2009 1.386 . S
C2008 C2010 1.391 . S
C2009 C2008 1.386 . S
C2009 C2013 1.393 . S
C2010 H2002 0.950 . S
C2010 C2008 1.391 . S
C2010 C2011 1.400 . S
C2011 C2010 1.400 . S
C2011 C2012 1.398 . S
C2011 C2017 1.491 . S
C2012 H2003 0.950 . S
C2012 C2011 1.398 . S
C2012 C2013 1.391 . S
C2013 H2001 0.950 . S
C2013 C2009 1.393 . S
C2013 C2012 1.391 . S
C2014 H2004 0.950 . S
C2014 C2015 1.386 . S
C2014 C2016 1.391 . S
C2015 C2014 1.386 . S
C2015 C2019 1.393 . S
C2016 H2005 0.950 . S
C2016 C2014 1.391 . S
C2016 C2017 1.400 . S
C2017 C2011 1.491 . S
C2017 C2016 1.400 . S
C2017 C2018 1.398 . S
C2018 H2006 0.950 . S
C2018 C2017 1.398 . S
C2018 C2019 1.391 . S
C2019 H2007 0.950 . S
C2019 C2015 1.393 . S
C2019 C2018 1.391 . S
H2020 C2028 0.950 . S
H2021 C2033 0.950 . S
H2022 C2030 0.950 . S
H2023 C2032 0.950 . S
H2024 C2034 0.950 . S
H2025 C2036 0.950 . S
H2026 C2038 0.950 . S
H2027 C2039 0.950 . S
C2028 H2020 0.950 . S
C2028 C2029 1.386 . S
C2028 C2030 1.391 . S
C2029 C2028 1.386 . S
C2029 C2033 1.393 . S
C2030 H2022 0.950 . S
C2030 C2028 1.391 . S
C2030 C2031 1.400 . S
C2031 C2030 1.400 . S
C2031 C2032 1.398 . S
C2031 C2037 1.491 . S
C2032 H2023 0.950 . S
C2032 C2031 1.398 . S
C2032 C2033 1.391 . S
C2033 H2021 0.950 . S
C2033 C2029 1.393 . S
C2033 C2032 1.391 . S
C2034 H2024 0.950 . S
C2034 C2035 1.386 . S
C2034 C2036 1.391 . S
C2035 C2034 1.386 . S
C2035 C2039 1.393 . S
C2036 H2025 0.950 . S
C2036 C2034 1.391 . S
C2036 C2037 1.400 . S
C2037 C2031 1.491 . S
C2037 C2036 1.400 . S
C2037 C2038 1.398 . S
C2038 H2026 0.950 . S
C2038 C2037 1.398 . S
C2038 C2039 1.391 . S
C2039 H2027 0.950 . S
C2039 C2035 1.393 . S
C2039 C2038 1.391 . S
H2040 C2048 0.950 . S
H2041 C2053 0.950 . S
H2042 C2050 0.950 . S
H2043 C2052 0.950 . S
H2044 C2054 0.950 . S
H2045 C2056 0.950 1_455 S
H2046 C2058 0.950 . S
H2047 C2059 0.950 . S
C2048 H2040 0.950 . S
C2048 C2049 1.386 . S
C2048 C2050 1.391 . S
C2049 C2048 1.386 . S
C2049 C2053 1.393 . S
C2050 H2042 0.950 . S
C2050 C2048 1.391 . S
C2050 C2051 1.400 . S
C2051 C2050 1.400 . S
C2051 C2052 1.398 . S
C2051 C2057 1.491 . S
C2052 H2043 0.950 . S
C2052 C2051 1.398 . S
C2052 C2053 1.391 . S
C2053 H2041 0.950 . S
C2053 C2049 1.393 . S
C2053 C2052 1.391 . S
C2054 H2044 0.950 . S
C2054 C2055 1.400 . S
C2054 C2056 1.391 1_455 S
C2055 C2054 1.400 . S
C2055 C2059 1.356 1_455 S
C2056 H2045 0.950 1_655 S
C2056 C2054 1.391 1_655 S
C2056 C2057 1.400 . S
C2057 C2051 1.491 . S
C2057 C2056 1.400 . S
C2057 C2058 1.398 . S
C2058 H2046 0.950 . S
C2058 C2057 1.398 . S
C2058 C2059 1.391 . S
C2059 H2047 0.950 . S
C2059 C2055 1.356 1_655 S
C2059 C2058 1.391 . S
H2060 C2068 0.950 . S
H2061 C2073 0.950 . S
H2062 C2070 0.950 . S
H2063 C2072 0.950 . S
H2064 C2074 0.950 . S
H2065 C2076 0.950 . S
H2066 C2078 0.950 . S
H2067 C2079 0.950 . S
C2068 H2060 0.950 . S
C2068 C2069 1.386 . S
C2068 C2070 1.391 . S
C2069 C2068 1.386 . S
C2069 C2073 1.393 . S
C2070 H2062 0.950 . S
C2070 C2068 1.391 . S
C2070 C2071 1.400 . S
C2071 C2070 1.400 . S
C2071 C2072 1.398 . S
C2071 C2077 1.491 . S
C2072 H2063 0.950 . S
C2072 C2071 1.398 . S
C2072 C2073 1.391 . S
C2073 H2061 0.950 . S
C2073 C2069 1.393 . S
C2073 C2072 1.391 . S
C2074 H2064 0.950 . S
C2074 C2075 1.386 . S
C2074 C2076 1.391 . S
C2075 C2074 1.386 . S
C2075 C2079 1.393 . S
C2076 H2065 0.950 . S
C2076 C2074 1.391 . S
C2076 C2077 1.400 . S
C2077 C2071 1.491 . S
C2077 C2076 1.400 . S
C2077 C2078 1.398 . S
C2078 H2066 0.950 . S
C2078 C2077 1.398 . S
C2078 C2079 1.391 . S
C2079 H2067 0.950 . S
C2079 C2075 1.393 . S
C2079 C2078 1.391 . S
H2080 C2088 0.950 . S
H2081 C2093 0.950 . S
H2082 C2090 0.950 . S
H2083 C2092 0.950 . S
H2084 C2094 0.950 . S
H2085 C2096 0.950 . S
H2086 C2098 0.950 . S
H2087 C2099 0.950 . S
C2088 H2080 0.950 . S
C2088 C2089 1.386 . S
C2088 C2090 1.391 . S
C2089 C2088 1.386 . S
C2089 C2093 1.393 . S
C2090 H2082 0.950 . S
C2090 C2088 1.391 . S
C2090 C2091 1.400 . S
C2091 C2090 1.400 . S
C2091 C2092 1.398 . S
C2091 C2097 1.491 . S
C2092 H2083 0.950 . S
C2092 C2091 1.398 . S
C2092 C2093 1.391 . S
C2093 H2081 0.950 . S
C2093 C2089 1.393 . S
C2093 C2092 1.391 . S
C2094 H2084 0.950 . S
C2094 C2095 1.386 . S
C2094 C2096 1.391 . S
C2095 C2094 1.386 . S
C2095 C2099 1.393 . S
C2096 H2085 0.950 . S
C2096 C2094 1.391 . S
C2096 C2097 1.400 . S
C2097 C2091 1.491 . S
C2097 C2096 1.400 . S
C2097 C2098 1.398 . S
C2098 H2086 0.950 . S
C2098 C2097 1.398 . S
C2098 C2099 1.391 . S
C2099 H2087 0.950 . S
C2099 C2095 1.393 . S
C2099 C2098 1.391 . S
H2100 C2108 0.950 . S
H2101 C2113 0.950 . S
H2102 C2110 0.950 . S
H2103 C2112 0.950 . S
H2104 C2114 0.950 . S
H2105 C2116 0.950 . S
H2106 C2118 0.950 . S
H2107 C2119 0.950 . S
C2108 H2100 0.950 . S
C2108 C2109 1.386 . S
C2108 C2110 1.391 . S
C2109 C2108 1.386 . S
C2109 C2113 1.393 . S
C2110 H2102 0.950 . S
C2110 C2108 1.391 . S
C2110 C2111 1.400 . S
C2111 C2110 1.400 . S
C2111 C2112 1.398 . S
C2111 C2117 1.491 . S
C2112 H2103 0.950 . S
C2112 C2111 1.398 . S
C2112 C2113 1.391 . S
C2113 H2101 0.950 . S
C2113 C2109 1.393 . S
C2113 C2112 1.391 . S
C2114 H2104 0.950 . S
C2114 C2115 1.386 . S
C2114 C2116 1.391 . S
C2115 C2114 1.386 . S
C2115 C2119 1.393 . S
C2116 H2105 0.950 . S
C2116 C2114 1.391 . S
C2116 C2117 1.400 . S
C2117 C2111 1.491 . S
C2117 C2116 1.400 . S
C2117 C2118 1.398 . S
C2118 H2106 0.950 . S
C2118 C2117 1.398 . S
C2118 C2119 1.391 . S
C2119 H2107 0.950 . S
C2119 C2115 1.393 . S
C2119 C2118 1.391 . S
H2120 C2128 0.950 . S
H2121 C2133 0.950 . S
H2122 C2130 0.950 . S
H2123 C2132 0.950 . S
H2124 C2134 0.950 1_455 S
H2125 C2136 0.950 . S
H2126 C2138 0.950 . S
H2127 C2139 0.950 . S
C2128 H2120 0.950 . S
C2128 C2129 1.386 . S
C2128 C2130 1.391 . S
C2129 C2128 1.386 . S
C2129 C2133 1.393 . S
C2130 H2122 0.950 . S
C2130 C2128 1.391 . S
C2130 C2131 1.400 . S
C2131 C2130 1.400 . S
C2131 C2132 1.398 . S
C2131 C2137 1.491 . S
C2132 H2123 0.950 . S
C2132 C2131 1.398 . S
C2132 C2133 1.391 . S
C2133 H2121 0.950 . S
C2133 C2129 1.393 . S
C2133 C2132 1.391 . S
C2134 H2124 0.950 1_655 S
C2134 C2135 1.386 . S
C2134 C2136 1.391 . S
C2135 C2134 1.386 . S
C2135 C2139 1.393 . S
C2136 H2125 0.950 . S
C2136 C2134 1.391 . S
C2136 C2137 1.400 . S
C2137 C2131 1.491 . S
C2137 C2136 1.400 . S
C2137 C2138 1.398 . S
C2138 H2126 0.950 . S
C2138 C2137 1.398 . S
C2138 C2139 1.391 . S
C2139 H2127 0.950 . S
C2139 C2135 1.393 . S
C2139 C2138 1.391 . S
H2140 C2148 0.950 . S
H2141 C2153 0.950 . S
H2142 C2150 0.950 . S
H2143 C2152 0.950 . S
H2144 C2154 0.950 . S
H2145 C2156 0.950 . S
H2146 C2158 0.950 . S
H2147 C2159 0.950 . S
C2148 H2140 0.950 . S
C2148 C2149 1.386 . S
C2148 C2150 1.391 . S
C2149 C2148 1.386 . S
C2149 C2153 1.393 . S
C2150 H2142 0.950 . S
C2150 C2148 1.391 . S
C2150 C2151 1.400 . S
C2151 C2150 1.400 . S
C2151 C2152 1.398 . S
C2151 C2157 1.491 . S
C2152 H2143 0.950 . S
C2152 C2151 1.398 . S
C2152 C2153 1.391 . S
C2153 H2141 0.950 . S
C2153 C2149 1.393 . S
C2153 C2152 1.391 . S
C2154 H2144 0.950 . S
C2154 C2155 1.386 . S
C2154 C2156 1.391 . S
C2155 C2154 1.386 . S
C2155 C2159 1.393 . S
C2156 H2145 0.950 . S
C2156 C2154 1.391 . S
C2156 C2157 1.400 . S
C2157 C2151 1.491 . S
C2157 C2156 1.400 . S
C2157 C2158 1.398 . S
C2158 H2146 0.950 . S
C2158 C2157 1.398 . S
C2158 C2159 1.391 . S
C2159 H2147 0.950 . S
C2159 C2155 1.393 . S
C2159 C2158 1.391 . S
H2160 C2168 0.950 . S
H2161 C2173 0.950 . S
H2162 C2170 0.950 . S
H2163 C2172 0.950 . S
H2164 C2174 0.950 . S
H2165 C2176 0.950 . S
H2166 C2178 0.950 . S
H2167 C2179 0.950 . S
C2168 H2160 0.950 . S
C2168 C2169 1.386 . S
C2168 C2170 1.391 . S
C2169 C2168 1.386 . S
C2169 C2173 1.393 . S
C2170 H2162 0.950 . S
C2170 C2168 1.391 . S
C2170 C2171 1.400 . S
C2171 C2170 1.400 . S
C2171 C2172 1.398 . S
C2171 C2177 1.491 . S
C2172 H2163 0.950 . S
C2172 C2171 1.398 . S
C2172 C2173 1.391 . S
C2173 H2161 0.950 . S
C2173 C2169 1.393 . S
C2173 C2172 1.391 . S
C2174 H2164 0.950 . S
C2174 C2175 1.386 . S
C2174 C2176 1.391 . S
C2175 C2174 1.386 . S
C2175 C2179 1.393 . S
C2176 H2165 0.950 . S
C2176 C2174 1.391 . S
C2176 C2177 1.400 . S
C2177 C2171 1.491 . S
C2177 C2176 1.400 . S
C2177 C2178 1.398 . S
C2178 H2166 0.950 . S
C2178 C2177 1.398 . S
C2178 C2179 1.391 . S
C2179 H2167 0.950 . S
C2179 C2175 1.393 . S
C2179 C2178 1.391 . S
H2180 C2188 0.950 . S
H2181 C2193 0.950 . S
H2182 C2190 0.950 . S
H2183 C2192 0.950 . S
H2184 C2194 0.950 . S
H2185 C2196 0.950 . S
H2186 C2198 0.950 . S
H2187 C2199 0.950 1_545 S
C2188 H2180 0.950 . S
C2188 C2189 1.386 . S
C2188 C2190 1.391 . S
C2189 C2188 1.386 . S
C2189 C2193 1.393 . S
C2190 H2182 0.950 . S
C2190 C2188 1.391 . S
C2190 C2191 1.400 . S
C2191 C2190 1.400 . S
C2191 C2192 1.398 . S
C2191 C2197 1.491 . S
C2192 H2183 0.950 . S
C2192 C2191 1.398 . S
C2192 C2193 1.391 . S
C2193 H2181 0.950 . S
C2193 C2189 1.393 . S
C2193 C2192 1.391 . S
C2194 H2184 0.950 . S
C2194 C2195 1.386 . S
C2194 C2196 1.391 . S
C2195 C2194 1.386 . S
C2195 C2199 1.393 . S
C2196 H2185 0.950 . S
C2196 C2194 1.391 . S
C2196 C2197 1.400 . S
C2197 C2191 1.491 . S
C2197 C2196 1.400 . S
C2197 C2198 1.398 . S
C2198 H2186 0.950 . S
C2198 C2197 1.398 . S
C2198 C2199 1.391 . S
C2199 H2187 0.950 1_565 S
C2199 C2195 1.393 . S
C2199 C2198 1.391 . S
H2200 C2208 0.950 . S
H2201 C2213 0.950 . S
H2202 C2210 0.950 . S
H2203 C2212 0.950 . S
H2204 C2214 0.950 . S
H2205 C2216 0.950 . S
H2206 C2218 0.950 . S
H2207 C2219 0.950 . S
C2208 H2200 0.950 . S
C2208 C2209 1.386 . S
C2208 C2210 1.391 . S
C2209 C2208 1.386 . S
C2209 C2213 1.393 . S
C2210 H2202 0.950 . S
C2210 C2208 1.391 . S
C2210 C2211 1.400 . S
C2211 C2210 1.400 . S
C2211 C2212 1.398 . S
C2211 C2217 1.491 . S
C2212 H2203 0.950 . S
C2212 C2211 1.398 . S
C2212 C2213 1.391 . S
C2213 H2201 0.950 . S
C2213 C2209 1.393 . S
C2213 C2212 1.391 . S
C2214 H2204 0.950 . S
C2214 C2215 1.386 . S
C2214 C2216 1.391 . S
C2215 C2214 1.386 . S
C2215 C2219 1.393 . S
C2216 H2205 0.950 . S
C2216 C2214 1.391 . S
C2216 C2217 1.400 . S
C2217 C2211 1.491 . S
C2217 C2216 1.400 . S
C2217 C2218 1.398 . S
C2218 H2206 0.950 . S
C2218 C2217 1.398 . S
C2218 C2219 1.391 . S
C2219 H2207 0.950 . S
C2219 C2215 1.393 . S
C2219 C2218 1.391 . S
H2220 C2228 0.950 1_556 S
H2221 C2233 0.950 . S
H2222 C2230 0.950 . S
H2223 C2232 0.950 . S
H2224 C2234 0.950 . S
H2225 C2236 0.950 . S
H2226 C2238 0.950 . S
H2227 C2239 0.950 . S
C2228 H2220 0.950 1_554 S
C2228 C2229 1.386 . S
C2228 C2230 1.391 . S
C2229 C2228 1.386 . S
C2229 C2233 1.393 . S
C2230 H2222 0.950 . S
C2230 C2228 1.391 . S
C2230 C2231 1.400 . S
C2231 C2230 1.400 . S
C2231 C2232 1.398 . S
C2231 C2237 1.491 . S
C2232 H2223 0.950 . S
C2232 C2231 1.398 . S
C2232 C2233 1.391 . S
C2233 H2221 0.950 . S
C2233 C2229 1.393 . S
C2233 C2232 1.391 . S
C2234 H2224 0.950 . S
C2234 C2235 1.386 . S
C2234 C2236 1.391 . S
C2235 C2234 1.386 . S
C2235 C2239 1.393 . S
C2236 H2225 0.950 . S
C2236 C2234 1.391 . S
C2236 C2237 1.400 . S
C2237 C2231 1.491 . S
C2237 C2236 1.400 . S
C2237 C2238 1.398 . S
C2238 H2226 0.950 . S
C2238 C2237 1.398 . S
C2238 C2239 1.391 . S
C2239 H2227 0.950 . S
C2239 C2235 1.393 . S
C2239 C2238 1.391 . S
H2240 C2248 0.950 . S
H2241 C2253 0.950 . S
H2242 C2250 0.950 . S
H2243 C2252 0.950 . S
H2244 C2254 0.950 . S
H2245 C2256 0.950 . S
H2246 C2258 0.950 . S
H2247 C2259 0.950 . S
C2248 H2240 0.950 . S
C2248 C2249 1.386 . S
C2248 C2250 1.391 . S
C2249 C2248 1.386 . S
C2249 C2253 1.393 . S
C2250 H2242 0.950 . S
C2250 C2248 1.391 . S
C2250 C2251 1.400 . S
C2251 C2250 1.400 . S
C2251 C2252 1.398 . S
C2251 C2257 1.491 . S
C2252 H2243 0.950 . S
C2252 C2251 1.398 . S
C2252 C2253 1.391 . S
C2253 H2241 0.950 . S
C2253 C2249 1.393 . S
C2253 C2252 1.391 . S
C2254 H2244 0.950 . S
C2254 C2255 1.386 . S
C2254 C2256 1.391 . S
C2255 C2254 1.386 . S
C2255 C2259 1.393 . S
C2256 H2245 0.950 . S
C2256 C2254 1.391 . S
C2256 C2257 1.400 . S
C2257 C2251 1.491 . S
C2257 C2256 1.400 . S
C2257 C2258 1.398 . S
C2258 H2246 0.950 . S
C2258 C2257 1.398 . S
C2258 C2259 1.391 . S
C2259 H2247 0.950 . S
C2259 C2255 1.393 . S
C2259 C2258 1.391 . S
H2260 C2268 0.950 . S
H2261 C2273 0.950 . S
H2262 C2270 0.950 . S
H2263 C2272 0.950 . S
H2264 C2274 0.950 . S
H2265 C2276 0.950 . S
H2266 C2278 0.950 1_556 S
H2267 C2279 0.950 1_556 S
C2268 H2260 0.950 . S
C2268 C2269 1.386 . S
C2268 C2270 1.391 . S
C2269 C2268 1.386 . S
C2269 C2273 1.393 . S
C2270 H2262 0.950 . S
C2270 C2268 1.391 . S
C2270 C2271 1.400 . S
C2271 C2270 1.400 . S
C2271 C2272 1.398 . S
C2271 C2277 1.491 . S
C2272 H2263 0.950 . S
C2272 C2271 1.398 . S
C2272 C2273 1.391 . S
C2273 H2261 0.950 . S
C2273 C2269 1.393 . S
C2273 C2272 1.391 . S
C2274 H2264 0.950 . S
C2274 C2275 1.386 . S
C2274 C2276 1.391 . S
C2275 C2274 1.386 . S
C2275 C2279 1.393 . S
C2276 H2265 0.950 . S
C2276 C2274 1.391 . S
C2276 C2277 1.400 . S
C2277 C2271 1.491 . S
C2277 C2276 1.400 . S
C2277 C2278 1.398 . S
C2278 H2266 0.950 1_554 S
C2278 C2277 1.398 . S
C2278 C2279 1.391 . S
C2279 H2267 0.950 1_554 S
C2279 C2275 1.393 . S
C2279 C2278 1.391 . S
H2280 C2288 0.950 . S
H2281 C2293 0.950 . S
H2282 C2290 0.950 . S
H2283 C2292 0.950 . S
H2284 C2294 0.950 . S
H2285 C2296 0.950 . S
H2286 C2298 0.950 . S
H2287 C2299 0.950 . S
C2288 H2280 0.950 . S
C2288 C2289 1.386 . S
C2288 C2290 1.391 . S
C2289 C2288 1.386 . S
C2289 C2293 1.393 . S
C2290 H2282 0.950 . S
C2290 C2288 1.391 . S
C2290 C2291 1.400 . S
C2291 C2290 1.400 . S
C2291 C2292 1.398 . S
C2291 C2297 1.491 . S
C2292 H2283 0.950 . S
C2292 C2291 1.398 . S
C2292 C2293 1.391 . S
C2293 H2281 0.950 . S
C2293 C2289 1.393 . S
C2293 C2292 1.391 . S
C2294 H2284 0.950 . S
C2294 C2295 1.386 . S
C2294 C2296 1.391 . S
C2295 C2294 1.386 . S
C2295 C2299 1.393 . S
C2296 H2285 0.950 . S
C2296 C2294 1.391 . S
C2296 C2297 1.400 . S
C2297 C2291 1.491 . S
C2297 C2296 1.400 . S
C2297 C2298 1.398 . S
C2298 H2286 0.950 . S
C2298 C2297 1.398 . S
C2298 C2299 1.391 . S
C2299 H2287 0.950 . S
C2299 C2295 1.393 . S
C2299 C2298 1.391 . S
H2300 C2308 0.950 . S
H2301 C2313 0.950 . S
H2302 C2310 0.950 . S
H2303 C2312 0.950 . S
H2304 C2314 0.950 . S
H2305 C2316 0.950 . S
H2306 C2318 0.950 . S
H2307 C2319 0.950 . S
C2308 H2300 0.950 . S
C2308 C2309 1.386 . S
C2308 C2310 1.391 . S
C2309 C2308 1.386 . S
C2309 C2313 1.393 . S
C2310 H2302 0.950 . S
C2310 C2308 1.391 . S
C2310 C2311 1.400 . S
C2311 C2310 1.400 . S
C2311 C2312 1.398 . S
C2311 C2317 1.491 . S
C2312 H2303 0.950 . S
C2312 C2311 1.398 . S
C2312 C2313 1.391 . S
C2313 H2301 0.950 . S
C2313 C2309 1.393 . S
C2313 C2312 1.391 . S
C2314 H2304 0.950 . S
C2314 C2315 1.386 . S
C2314 C2316 1.391 . S
C2315 C2314 1.386 . S
C2315 C2319 1.393 . S
C2316 H2305 0.950 . S
C2316 C2314 1.391 . S
C2316 C2317 1.400 . S
C2317 C2311 1.491 . S
C2317 C2316 1.400 . S
C2317 C2318 1.398 . S
C2318 H2306 0.950 . S
C2318 C2317 1.398 . S
C2318 C2319 1.391 . S
C2319 H2307 0.950 . S
C2319 C2315 1.393 . S
C2319 C2318 1.391 . S
H2320 C2328 0.950 . S
H2321 C2333 0.950 . S
H2322 C2330 0.950 . S
H2323 C2332 0.950 . S
H2324 C2334 0.950 . S
H2325 C2336 0.950 . S
H2326 C2338 0.950 . S
H2327 C2339 0.950 . S
C2328 H2320 0.950 . S
C2328 C2329 1.386 . S
C2328 C2330 1.391 . S
C2329 C2328 1.386 . S
C2329 C2333 1.393 . S
C2330 H2322 0.950 . S
C2330 C2328 1.391 . S
C2330 C2331 1.400 . S
C2331 C2330 1.400 . S
C2331 C2332 1.398 . S
C2331 C2337 1.491 . S
C2332 H2323 0.950 . S
C2332 C2331 1.398 . S
C2332 C2333 1.391 . S
C2333 H2321 0.950 . S
C2333 C2329 1.393 . S
C2333 C2332 1.391 . S
C2334 H2324 0.950 . S
C2334 C2335 1.386 . S
C2334 C2336 1.391 . S
C2335 C2334 1.386 . S
C2335 C2339 1.393 . S
C2336 H2325 0.950 . S
C2336 C2334 1.391 . S
C2336 C2337 1.400 . S
C2337 C2331 1.491 . S
C2337 C2336 1.400 . S
C2337 C2338 1.398 . S
C2338 H2326 0.950 . S
C2338 C2337 1.398 . S
C2338 C2339 1.391 . S
C2339 H2327 0.950 . S
C2339 C2335 1.393 . S
C2339 C2338 1.391 . S
H2340 C2348 0.950 . S
H2341 C2353 0.950 . S
H2342 C2350 0.950 . S
H2343 C2352 0.950 . S
H2344 C2354 0.950 . S
H2345 C2356 0.950 . S
H2346 C2358 0.950 . S
H2347 C2359 0.950 . S
C2348 H2340 0.950 . S
C2348 C2349 1.386 . S
C2348 C2350 1.391 . S
C2349 C2348 1.386 . S
C2349 C2353 1.393 . S
C2350 H2342 0.950 . S
C2350 C2348 1.391 . S
C2350 C2351 1.400 . S
C2351 C2350 1.400 . S
C2351 C2352 1.398 . S
C2351 C2357 1.491 . S
C2352 H2343 0.950 . S
C2352 C2351 1.398 . S
C2352 C2353 1.391 . S
C2353 H2341 0.950 . S
C2353 C2349 1.393 . S
C2353 C2352 1.391 . S
C2354 H2344 0.950 . S
C2354 C2355 1.386 . S
C2354 C2356 1.391 . S
C2355 C2354 1.386 . S
C2355 C2359 1.393 . S
C2356 H2345 0.950 . S
C2356 C2354 1.391 . S
C2356 C2357 1.400 . S
C2357 C2351 1.491 . S
C2357 C2356 1.400 . S
C2357 C2358 1.398 . S
C2358 H2346 0.950 . S
C2358 C2357 1.398 . S
C2358 C2359 1.391 . S
C2359 H2347 0.950 . S
C2359 C2355 1.393 . S
C2359 C2358 1.391 . S
H2360 C2368 0.950 . S
H2361 C2373 0.950 . S
H2362 C2370 0.950 . S
H2363 C2372 0.950 . S
H2364 C2374 0.950 1_554 S
H2365 C2376 0.950 . S
H2366 C2378 0.950 . S
H2367 C2379 0.950 . S
C2368 H2360 0.950 . S
C2368 C2369 1.386 1_655 S
C2368 C2370 1.391 . S
C2369 C2368 1.386 1_455 S
C2369 C2373 1.393 . S
C2370 H2362 0.950 . S
C2370 C2368 1.391 . S
C2370 C2371 1.400 . S
C2371 C2370 1.400 . S
C2371 C2372 1.396 1_655 S
C2371 C2377 1.495 . S
C2372 H2363 0.950 . S
C2372 C2371 1.396 1_455 S
C2372 C2373 1.391 . S
C2373 H2361 0.950 . S
C2373 C2369 1.393 . S
C2373 C2372 1.391 . S
C2374 H2364 0.950 1_556 S
C2374 C2375 1.386 . S
C2374 C2376 1.391 . S
C2375 C2374 1.386 . S
C2375 C2379 1.393 . S
C2376 H2365 0.950 . S
C2376 C2374 1.391 . S
C2376 C2377 1.400 . S
C2377 C2371 1.495 . S
C2377 C2376 1.400 . S
C2377 C2378 1.398 . S
C2378 H2366 0.950 . S
C2378 C2377 1.398 . S
C2378 C2379 1.391 . S
C2379 H2367 0.950 . S
C2379 C2375 1.393 . S
C2379 C2378 1.391 . S
H2380 C2388 0.950 . S
H2381 C2393 0.950 . S
H2382 C2390 0.950 . S
H2383 C2392 0.950 . S
H2384 C2394 0.950 . S
H2385 C2396 0.950 . S
H2386 C2398 0.950 . S
H2387 C2399 0.950 . S
C2388 H2380 0.950 . S
C2388 C2389 1.386 . S
C2388 C2390 1.391 . S
C2389 C2388 1.386 . S
C2389 C2393 1.393 . S
C2390 H2382 0.950 . S
C2390 C2388 1.391 . S
C2390 C2391 1.400 . S
C2391 C2390 1.400 . S
C2391 C2392 1.398 . S
C2391 C2397 1.491 . S
C2392 H2383 0.950 . S
C2392 C2391 1.398 . S
C2392 C2393 1.391 . S
C2393 H2381 0.950 . S
C2393 C2389 1.393 . S
C2393 C2392 1.391 . S
C2394 H2384 0.950 . S
C2394 C2395 1.386 . S
C2394 C2396 1.391 . S
C2395 C2394 1.386 . S
C2395 C2399 1.393 . S
C2396 H2385 0.950 . S
C2396 C2394 1.391 . S
C2396 C2397 1.400 . S
C2397 C2391 1.491 . S
C2397 C2396 1.400 . S
C2397 C2398 1.398 . S
C2398 H2386 0.950 . S
C2398 C2397 1.398 . S
C2398 C2399 1.391 . S
C2399 H2387 0.950 . S
C2399 C2395 1.393 . S
C2399 C2398 1.391 . S
H2400 C2408 0.950 . S
H2401 C2413 0.950 . S
H2402 C2410 0.950 . S
H2403 C2412 0.950 . S
H2404 C2414 0.950 . S
H2405 C2416 0.950 . S
H2406 C2418 0.950 . S
H2407 C2419 0.950 . S
C2408 H2400 0.950 . S
C2408 C2409 1.386 . S
C2408 C2410 1.391 . S
C2409 C2408 1.386 . S
C2409 C2413 1.393 . S
C2410 H2402 0.950 . S
C2410 C2408 1.391 . S
C2410 C2411 1.400 . S
C2411 C2410 1.400 . S
C2411 C2412 1.398 . S
C2411 C2417 1.491 . S
C2412 H2403 0.950 . S
C2412 C2411 1.398 . S
C2412 C2413 1.391 . S
C2413 H2401 0.950 . S
C2413 C2409 1.393 . S
C2413 C2412 1.391 . S
C2414 H2404 0.950 . S
C2414 C2415 1.386 . S
C2414 C2416 1.391 . S
C2415 C2414 1.386 . S
C2415 C2419 1.393 . S
C2416 H2405 0.950 . S
C2416 C2414 1.391 . S
C2416 C2417 1.400 . S
C2417 C2411 1.491 . S
C2417 C2416 1.400 . S
C2417 C2418 1.398 . S
C2418 H2406 0.950 . S
C2418 C2417 1.398 . S
C2418 C2419 1.391 . S
C2419 H2407 0.950 . S
C2419 C2415 1.393 . S
C2419 C2418 1.391 . S
H2420 C2428 0.950 . S
H2421 C2433 0.950 . S
H2422 C2430 0.950 . S
H2423 C2432 0.950 . S
H2424 C2434 0.950 . S
H2425 C2436 0.950 . S
H2426 C2438 0.950 . S
H2427 C2439 0.950 . S
C2428 H2420 0.950 . S
C2428 C2429 1.386 . S
C2428 C2430 1.391 . S
C2429 C2428 1.386 . S
C2429 C2433 1.393 . S
C2430 H2422 0.950 . S
C2430 C2428 1.391 . S
C2430 C2431 1.400 . S
C2431 C2430 1.400 . S
C2431 C2432 1.398 . S
C2431 C2437 1.491 . S
C2432 H2423 0.950 . S
C2432 C2431 1.398 . S
C2432 C2433 1.391 . S
C2433 H2421 0.950 . S
C2433 C2429 1.393 . S
C2433 C2432 1.391 . S
C2434 H2424 0.950 . S
C2434 C2435 1.386 . S
C2434 C2436 1.391 . S
C2435 C2434 1.386 . S
C2435 C2439 1.393 . S
C2436 H2425 0.950 . S
C2436 C2434 1.391 . S
C2436 C2437 1.400 . S
C2437 C2431 1.491 . S
C2437 C2436 1.400 . S
C2437 C2438 1.398 . S
C2438 H2426 0.950 . S
C2438 C2437 1.398 . S
C2438 C2439 1.391 . S
C2439 H2427 0.950 . S
C2439 C2435 1.393 . S
C2439 C2438 1.391 . S
H2440 C2448 0.950 . S
H2441 C2453 0.950 1_655 S
H2442 C2450 0.950 . S
H2443 C2452 0.950 1_655 S
H2444 C2454 0.950 1_655 S
H2445 C2456 0.950 1_655 S
H2446 C2458 0.950 . S
H2447 C2459 0.950 . S
C2448 H2440 0.950 . S
C2448 C2449 1.386 . S
C2448 C2450 1.391 . S
C2449 C2448 1.386 . S
C2449 C2453 1.393 . S
C2450 H2442 0.950 . S
C2450 C2448 1.391 . S
C2450 C2451 1.400 . S
C2451 C2450 1.400 . S
C2451 C2452 1.398 . S
C2451 C2457 1.491 . S
C2452 H2443 0.950 1_455 S
C2452 C2451 1.398 . S
C2452 C2453 1.391 . S
C2453 H2441 0.950 1_455 S
C2453 C2449 1.393 . S
C2453 C2452 1.391 . S
C2454 H2444 0.950 1_455 S
C2454 C2455 1.386 . S
C2454 C2456 1.391 . S
C2455 C2454 1.386 . S
C2455 C2459 1.393 . S
C2456 H2445 0.950 1_455 S
C2456 C2454 1.391 . S
C2456 C2457 1.400 . S
C2457 C2451 1.491 . S
C2457 C2456 1.400 . S
C2457 C2458 1.398 . S
C2458 H2446 0.950 . S
C2458 C2457 1.398 . S
C2458 C2459 1.391 . S
C2459 H2447 0.950 . S
C2459 C2455 1.393 . S
C2459 C2458 1.391 . S
H2460 C2468 0.950 . S
H2461 C2473 0.950 . S
H2462 C2470 0.950 . S
H2463 C2472 0.950 . S
H2464 C2474 0.950 . S
H2465 C2476 0.950 . S
H2466 C2478 0.950 . S
H2467 C2479 0.950 . S
C2468 H2460 0.950 . S
C2468 C2469 1.386 . S
C2468 C2470 1.391 . S
C2469 C2468 1.386 . S
C2469 C2473 1.393 . S
C2470 H2462 0.950 . S
C2470 C2468 1.391 . S
C2470 C2471 1.400 . S
C2471 C2470 1.400 . S
C2471 C2472 1.398 . S
C2471 C2477 1.491 . S
C2472 H2463 0.950 . S
C2472 C2471 1.398 . S
C2472 C2473 1.391 . S
C2473 H2461 0.950 . S
C2473 C2469 1.393 . S
C2473 C2472 1.391 . S
C2474 H2464 0.950 . S
C2474 C2475 1.386 . S
C2474 C2476 1.391 . S
C2475 C2474 1.386 . S
C2475 C2479 1.393 . S
C2476 H2465 0.950 . S
C2476 C2474 1.391 . S
C2476 C2477 1.400 . S
C2477 C2471 1.491 . S
C2477 C2476 1.400 . S
C2477 C2478 1.398 . S
C2478 H2466 0.950 . S
C2478 C2477 1.398 . S
C2478 C2479 1.391 . S
C2479 H2467 0.950 . S
C2479 C2475 1.393 . S
C2479 C2478 1.391 . S
H2480 C2488 0.950 . S
H2481 C2493 0.950 . S
H2482 C2490 0.950 . S
H2483 C2492 0.950 . S
H2484 C2494 0.950 . S
H2485 C2496 0.950 . S
H2486 C2498 0.950 . S
H2487 C2499 0.950 . S
C2488 H2480 0.950 . S
C2488 C2489 1.386 . S
C2488 C2490 1.391 . S
C2489 C2488 1.386 . S
C2489 C2493 1.393 . S
C2490 H2482 0.950 . S
C2490 C2488 1.391 . S
C2490 C2491 1.400 . S
C2491 C2490 1.400 . S
C2491 C2492 1.398 . S
C2491 C2497 1.491 . S
C2492 H2483 0.950 . S
C2492 C2491 1.398 . S
C2492 C2493 1.391 . S
C2493 H2481 0.950 . S
C2493 C2489 1.393 . S
C2493 C2492 1.391 . S
C2494 H2484 0.950 . S
C2494 C2495 1.386 . S
C2494 C2496 1.391 . S
C2495 C2494 1.386 . S
C2495 C2499 1.393 . S
C2496 H2485 0.950 . S
C2496 C2494 1.391 . S
C2496 C2497 1.400 . S
C2497 C2491 1.491 . S
C2497 C2496 1.400 . S
C2497 C2498 1.398 . S
C2498 H2486 0.950 . S
C2498 C2497 1.398 . S
C2498 C2499 1.391 . S
C2499 H2487 0.950 . S
C2499 C2495 1.393 . S
C2499 C2498 1.391 . S
H2500 C2508 0.950 . S
H2501 C2513 0.950 . S
H2502 C2510 0.950 . S
H2503 C2512 0.950 . S
H2504 C2514 0.950 . S
H2505 C2516 0.950 . S
H2506 C2518 0.950 . S
H2507 C2519 0.950 . S
C2508 H2500 0.950 . S
C2508 C2509 1.386 . S
C2508 C2510 1.391 . S
C2509 C2508 1.386 . S
C2509 C2513 1.393 . S
C2510 H2502 0.950 . S
C2510 C2508 1.391 . S
C2510 C2511 1.400 . S
C2511 C2510 1.400 . S
C2511 C2512 1.398 . S
C2511 C2517 1.491 . S
C2512 H2503 0.950 . S
C2512 C2511 1.398 . S
C2512 C2513 1.391 . S
C2513 H2501 0.950 . S
C2513 C2509 1.393 . S
C2513 C2512 1.391 . S
C2514 H2504 0.950 . S
C2514 C2515 1.386 . S
C2514 C2516 1.391 . S
C2515 C2514 1.386 . S
C2515 C2519 1.393 . S
C2516 H2505 0.950 . S
C2516 C2514 1.391 . S
C2516 C2517 1.400 . S
C2517 C2511 1.491 . S
C2517 C2516 1.400 . S
C2517 C2518 1.398 . S
C2518 H2506 0.950 . S
C2518 C2517 1.398 . S
C2518 C2519 1.391 . S
C2519 H2507 0.950 . S
C2519 C2515 1.393 . S
C2519 C2518 1.391 . S
H2520 C2528 0.950 . S
H2521 C2533 0.950 . S
H2522 C2530 0.950 . S
H2523 C2532 0.950 . S
H2524 C2534 0.950 . S
H2525 C2536 0.950 . S
H2526 C2538 0.950 . S
H2527 C2539 0.950 . S
C2528 H2520 0.950 . S
C2528 C2529 1.386 . S
C2528 C2530 1.391 . S
C2529 C2528 1.386 . S
C2529 C2533 1.393 . S
C2530 H2522 0.950 . S
C2530 C2528 1.391 . S
C2530 C2531 1.400 . S
C2531 C2530 1.400 . S
C2531 C2532 1.398 . S
C2531 C2537 1.491 . S
C2532 H2523 0.950 . S
C2532 C2531 1.398 . S
C2532 C2533 1.391 . S
C2533 H2521 0.950 . S
C2533 C2529 1.393 . S
C2533 C2532 1.391 . S
C2534 H2524 0.950 . S
C2534 C2535 1.386 . S
C2534 C2536 1.391 . S
C2535 C2534 1.386 . S
C2535 C2539 1.393 . S
C2536 H2525 0.950 . S
C2536 C2534 1.391 . S
C2536 C2537 1.400 . S
C2537 C2531 1.491 . S
C2537 C2536 1.400 . S
C2537 C2538 1.398 . S
C2538 H2526 0.950 . S
C2538 C2537 1.398 . S
C2538 C2539 1.391 . S
C2539 H2527 0.950 . S
C2539 C2535 1.393 . S
C2539 C2538 1.391 . S
H2540 C2548 0.950 . S
H2541 C2553 0.950 . S
H2542 C2550 0.950 . S
H2543 C2552 0.950 . S
H2544 C2554 0.950 . S
H2545 C2556 0.950 . S
H2546 C2558 0.950 . S
H2547 C2559 0.950 . S
C2548 H2540 0.950 . S
C2548 C2549 1.386 . S
C2548 C2550 1.391 . S
C2549 C2548 1.386 . S
C2549 C2553 1.393 . S
C2550 H2542 0.950 . S
C2550 C2548 1.391 . S
C2550 C2551 1.400 . S
C2551 C2550 1.400 . S
C2551 C2552 1.398 . S
C2551 C2557 1.491 . S
C2552 H2543 0.950 . S
C2552 C2551 1.398 . S
C2552 C2553 1.391 . S
C2553 H2541 0.950 . S
C2553 C2549 1.393 . S
C2553 C2552 1.391 . S
C2554 H2544 0.950 . S
C2554 C2555 1.386 . S
C2554 C2556 1.391 . S
C2555 C2554 1.386 . S
C2555 C2559 1.393 . S
C2556 H2545 0.950 . S
C2556 C2554 1.391 . S
C2556 C2557 1.400 . S
C2557 C2551 1.491 . S
C2557 C2556 1.400 . S
C2557 C2558 1.398 . S
C2558 H2546 0.950 . S
C2558 C2557 1.398 . S
C2558 C2559 1.391 . S
C2559 H2547 0.950 . S
C2559 C2555 1.393 . S
C2559 C2558 1.391 . S
H2560 C2568 0.950 . S
H2561 C2573 0.950 . S
H2562 C2570 0.950 . S
H2563 C2572 0.950 . S
H2564 C2574 0.950 . S
H2565 C2576 0.950 . S
H2566 C2578 0.950 . S
H2567 C2579 0.950 . S
C2568 H2560 0.950 . S
C2568 C2569 1.386 . S
C2568 C2570 1.391 . S
C2569 C2568 1.386 . S
C2569 C2573 1.393 . S
C2570 H2562 0.950 . S
C2570 C2568 1.391 . S
C2570 C2571 1.400 . S
C2571 C2570 1.400 . S
C2571 C2572 1.398 . S
C2571 C2577 1.491 . S
C2572 H2563 0.950 . S
C2572 C2571 1.398 . S
C2572 C2573 1.391 . S
C2573 H2561 0.950 . S
C2573 C2569 1.393 . S
C2573 C2572 1.391 . S
C2574 H2564 0.950 . S
C2574 C2575 1.386 . S
C2574 C2576 1.391 . S
C2575 C2574 1.386 . S
C2575 C2579 1.393 . S
C2576 H2565 0.950 . S
C2576 C2574 1.391 . S
C2576 C2577 1.400 . S
C2577 C2571 1.491 . S
C2577 C2576 1.400 . S
C2577 C2578 1.398 . S
C2578 H2566 0.950 . S
C2578 C2577 1.398 . S
C2578 C2579 1.391 . S
C2579 H2567 0.950 . S
C2579 C2575 1.393 . S
C2579 C2578 1.391 . S
H2580 C2588 0.950 . S
H2581 C2593 0.950 . S
H2582 C2590 0.950 . S
H2583 C2592 0.950 . S
H2584 C2594 0.950 . S
H2585 C2596 0.950 . S
H2586 C2598 0.950 . S
H2587 C2599 0.950 . S
C2588 H2580 0.950 . S
C2588 C2589 1.386 . S
C2588 C2590 1.391 . S
C2589 C2588 1.386 . S
C2589 C2593 1.393 . S
C2590 H2582 0.950 . S
C2590 C2588 1.391 . S
C2590 C2591 1.400 . S
C2591 C2590 1.400 . S
C2591 C2592 1.398 . S
C2591 C2597 1.491 . S
C2592 H2583 0.950 . S
C2592 C2591 1.398 . S
C2592 C2593 1.391 . S
C2593 H2581 0.950 . S
C2593 C2589 1.393 . S
C2593 C2592 1.391 . S
C2594 H2584 0.950 . S
C2594 C2595 1.386 . S
C2594 C2596 1.391 . S
C2595 C2594 1.386 . S
C2595 C2599 1.393 . S
C2596 H2585 0.950 . S
C2596 C2594 1.391 . S
C2596 C2597 1.400 . S
C2597 C2591 1.491 . S
C2597 C2596 1.400 . S
C2597 C2598 1.398 . S
C2598 H2586 0.950 . S
C2598 C2597 1.398 . S
C2598 C2599 1.391 . S
C2599 H2587 0.950 . S
C2599 C2595 1.393 . S
C2599 C2598 1.391 . S
H2600 C2608 0.950 . S
H2601 C2613 0.950 . S
H2602 C2610 0.950 . S
H2603 C2612 0.950 . S
H2604 C2614 0.950 . S
H2605 C2616 0.950 . S
H2606 C2618 0.950 . S
H2607 C2619 0.950 . S
C2608 H2600 0.950 . S
C2608 C2609 1.386 . S
C2608 C2610 1.391 . S
C2609 C2608 1.386 . S
C2609 C2613 1.393 . S
C2610 H2602 0.950 . S
C2610 C2608 1.391 . S
C2610 C2611 1.400 . S
C2611 C2610 1.400 . S
C2611 C2612 1.398 . S
C2611 C2617 1.491 . S
C2612 H2603 0.950 . S
C2612 C2611 1.398 . S
C2612 C2613 1.391 . S
C2613 H2601 0.950 . S
C2613 C2609 1.393 . S
C2613 C2612 1.391 . S
C2614 H2604 0.950 . S
C2614 C2615 1.386 . S
C2614 C2616 1.391 . S
C2615 C2614 1.386 . S
C2615 C2619 1.393 . S
C2616 H2605 0.950 . S
C2616 C2614 1.391 . S
C2616 C2617 1.400 . S
C2617 C2611 1.491 . S
C2617 C2616 1.400 . S
C2617 C2618 1.398 . S
C2618 H2606 0.950 . S
C2618 C2617 1.398 . S
C2618 C2619 1.391 . S
C2619 H2607 0.950 . S
C2619 C2615 1.393 . S
C2619 C2618 1.391 . S
H2620 C2628 0.950 . S
H2621 C2633 0.950 . S
H2622 C2630 0.950 . S
H2623 C2632 0.950 . S
H2624 C2634 0.950 . S
H2625 C2636 0.950 . S
H2626 C2638 0.950 . S
H2627 C2639 0.950 . S
C2628 H2620 0.950 . S
C2628 C2629 1.386 . S
C2628 C2630 1.391 . S
C2629 C2628 1.386 . S
C2629 C2633 1.393 . S
C2630 H2622 0.950 . S
C2630 C2628 1.391 . S
C2630 C2631 1.400 . S
C2631 C2630 1.400 . S
C2631 C2632 1.398 . S
C2631 C2637 1.491 . S
C2632 H2623 0.950 . S
C2632 C2631 1.398 . S
C2632 C2633 1.391 . S
C2633 H2621 0.950 . S
C2633 C2629 1.393 . S
C2633 C2632 1.391 . S
C2634 H2624 0.950 . S
C2634 C2635 1.386 . S
C2634 C2636 1.391 . S
C2635 C2634 1.386 . S
C2635 C2639 1.393 . S
C2636 H2625 0.950 . S
C2636 C2634 1.391 . S
C2636 C2637 1.400 . S
C2637 C2631 1.491 . S
C2637 C2636 1.400 . S
C2637 C2638 1.398 . S
C2638 H2626 0.950 . S
C2638 C2637 1.398 . S
C2638 C2639 1.391 . S
C2639 H2627 0.950 . S
C2639 C2635 1.393 . S
C2639 C2638 1.391 . S
H2640 C2648 0.950 . S
H2641 C2653 0.950 . S
H2642 C2650 0.950 . S
H2643 C2652 0.950 . S
H2644 C2654 0.950 . S
H2645 C2656 0.950 . S
H2646 C2658 0.950 . S
H2647 C2659 0.950 . S
C2648 H2640 0.950 . S
C2648 C2649 1.386 . S
C2648 C2650 1.391 . S
C2649 C2648 1.386 . S
C2649 C2653 1.393 . S
C2650 H2642 0.950 . S
C2650 C2648 1.391 . S
C2650 C2651 1.400 . S
C2651 C2650 1.400 . S
C2651 C2652 1.398 . S
C2651 C2657 1.491 . S
C2652 H2643 0.950 . S
C2652 C2651 1.398 . S
C2652 C2653 1.391 . S
C2653 H2641 0.950 . S
C2653 C2649 1.393 . S
C2653 C2652 1.391 . S
C2654 H2644 0.950 . S
C2654 C2655 1.386 . S
C2654 C2656 1.391 . S
C2655 C2654 1.386 . S
C2655 C2659 1.393 . S
C2656 H2645 0.950 . S
C2656 C2654 1.391 . S
C2656 C2657 1.400 . S
C2657 C2651 1.491 . S
C2657 C2656 1.400 . S
C2657 C2658 1.398 . S
C2658 H2646 0.950 . S
C2658 C2657 1.398 . S
C2658 C2659 1.391 . S
C2659 H2647 0.950 . S
C2659 C2655 1.393 . S
C2659 C2658 1.391 . S
H2660 C2668 0.950 . S
H2661 C2673 0.950 . S
H2662 C2670 0.950 . S
H2663 C2672 0.950 . S
H2664 C2674 0.950 . S
H2665 C2676 0.950 . S
H2666 C2678 0.950 . S
H2667 C2679 0.950 . S
C2668 H2660 0.950 . S
C2668 C2669 1.386 . S
C2668 C2670 1.391 . S
C2669 C2668 1.386 . S
C2669 C2673 1.393 . S
C2670 H2662 0.950 . S
C2670 C2668 1.391 . S
C2670 C2671 1.400 . S
C2671 C2670 1.400 . S
C2671 C2672 1.398 . S
C2671 C2677 1.491 . S
C2672 H2663 0.950 . S
C2672 C2671 1.398 . S
C2672 C2673 1.391 . S
C2673 H2661 0.950 . S
C2673 C2669 1.393 . S
C2673 C2672 1.391 . S
C2674 H2664 0.950 . S
C2674 C2675 1.386 . S
C2674 C2676 1.391 . S
C2675 C2674 1.386 . S
C2675 C2679 1.393 . S
C2676 H2665 0.950 . S
C2676 C2674 1.391 . S
C2676 C2677 1.400 . S
C2677 C2671 1.491 . S
C2677 C2676 1.400 . S
C2677 C2678 1.398 . S
C2678 H2666 0.950 . S
C2678 C2677 1.398 . S
C2678 C2679 1.391 . S
C2679 H2667 0.950 . S
C2679 C2675 1.393 . S
C2679 C2678 1.391 . S
H2680 C2688 0.950 . S
H2681 C2693 0.950 . S
H2682 C2690 0.950 . S
H2683 C2692 0.950 . S
H2684 C2694 0.950 . S
H2685 C2696 0.950 . S
H2686 C2698 0.950 . S
H2687 C2699 0.950 . S
C2688 H2680 0.950 . S
C2688 C2689 1.386 . S
C2688 C2690 1.391 . S
C2689 C2688 1.386 . S
C2689 C2693 1.393 . S
C2690 H2682 0.950 . S
C2690 C2688 1.391 . S
C2690 C2691 1.400 . S
C2691 C2690 1.400 . S
C2691 C2692 1.398 . S
C2691 C2697 1.491 . S
C2692 H2683 0.950 . S
C2692 C2691 1.398 . S
C2692 C2693 1.391 . S
C2693 H2681 0.950 . S
C2693 C2689 1.393 . S
C2693 C2692 1.391 . S
C2694 H2684 0.950 . S
C2694 C2695 1.386 . S
C2694 C2696 1.391 . S
C2695 C2694 1.386 . S
C2695 C2699 1.393 . S
C2696 H2685 0.950 . S
C2696 C2694 1.391 . S
C2696 C2697 1.400 . S
C2697 C2691 1.491 . S
C2697 C2696 1.400 . S
C2697 C2698 1.398 . S
C2698 H2686 0.950 . S
C2698 C2697 1.398 . S
C2698 C2699 1.391 . S
C2699 H2687 0.950 . S
C2699 C2695 1.393 . S
C2699 C2698 1.391 . S
H2700 C2708 0.950 1_556 S
H2701 C2713 0.950 . S
H2702 C2710 0.950 1_556 S
H2703 C2712 0.950 . S
H2704 C2714 0.950 . S
H2705 C2716 0.950 . S
H2706 C2718 0.950 . S
H2707 C2719 0.950 . S
C2708 H2700 0.950 1_554 S
C2708 C2709 1.386 . S
C2708 C2710 1.391 . S
C2709 C2708 1.386 . S
C2709 C2713 1.393 . S
C2710 H2702 0.950 1_554 S
C2710 C2708 1.391 . S
C2710 C2711 1.400 . S
C2711 C2710 1.400 . S
C2711 C2712 1.398 . S
C2711 C2717 1.491 . S
C2712 H2703 0.950 . S
C2712 C2711 1.398 . S
C2712 C2713 1.391 . S
C2713 H2701 0.950 . S
C2713 C2709 1.393 . S
C2713 C2712 1.391 . S
C2714 H2704 0.950 . S
C2714 C2715 1.386 . S
C2714 C2716 1.391 . S
C2715 C2714 1.386 . S
C2715 C2719 1.393 1_554 S
C2716 H2705 0.950 . S
C2716 C2714 1.391 . S
C2716 C2717 1.400 . S
C2717 C2711 1.491 . S
C2717 C2716 1.400 . S
C2717 C2718 1.398 1_554 S
C2718 H2706 0.950 . S
C2718 C2717 1.398 1_556 S
C2718 C2719 1.391 . S
C2719 H2707 0.950 . S
C2719 C2715 1.393 1_556 S
C2719 C2718 1.391 . S
H2720 C2728 0.950 . S
H2721 C2733 0.950 . S
H2722 C2730 0.950 . S
H2723 C2732 0.950 . S
H2724 C2734 0.950 . S
H2725 C2736 0.950 . S
H2726 C2738 0.950 . S
H2727 C2739 0.950 . S
C2728 H2720 0.950 . S
C2728 C2729 1.386 . S
C2728 C2730 1.391 . S
C2729 C2728 1.386 . S
C2729 C2733 1.393 . S
C2730 H2722 0.950 . S
C2730 C2728 1.391 . S
C2730 C2731 1.400 . S
C2731 C2730 1.400 . S
C2731 C2732 1.398 . S
C2731 C2737 1.491 . S
C2732 H2723 0.950 . S
C2732 C2731 1.398 . S
C2732 C2733 1.391 . S
C2733 H2721 0.950 . S
C2733 C2729 1.393 . S
C2733 C2732 1.391 . S
C2734 H2724 0.950 . S
C2734 C2735 1.386 . S
C2734 C2736 1.391 . S
C2735 C2734 1.386 . S
C2735 C2739 1.393 . S
C2736 H2725 0.950 . S
C2736 C2734 1.391 . S
C2736 C2737 1.400 . S
C2737 C2731 1.491 . S
C2737 C2736 1.400 . S
C2737 C2738 1.398 . S
C2738 H2726 0.950 . S
C2738 C2737 1.398 . S
C2738 C2739 1.391 . S
C2739 H2727 0.950 . S
C2739 C2735 1.393 . S
C2739 C2738 1.391 . S
H2740 C2748 0.950 . S
H2741 C2753 0.950 . S
H2742 C2750 0.950 . S
H2743 C2752 0.950 . S
H2744 C2754 0.950 . S
H2745 C2756 0.950 . S
H2746 C2758 0.950 1_556 S
H2747 C2759 0.940 1_556 S
C2748 H2740 0.950 . S
C2748 C2749 1.386 1_556 S
C2748 C2750 1.391 . S
C2749 C2748 1.386 1_554 S
C2749 C2753 1.393 . S
C2750 H2742 0.950 . S
C2750 C2748 1.391 . S
C2750 C2751 1.400 1_556 S
C2751 C2750 1.400 1_554 S
C2751 C2752 1.398 . S
C2751 C2757 1.491 . S
C2752 H2743 0.950 . S
C2752 C2751 1.398 . S
C2752 C2753 1.391 . S
C2753 H2741 0.950 . S
C2753 C2749 1.393 . S
C2753 C2752 1.391 . S
C2754 H2744 0.950 . S
C2754 C2755 1.386 . S
C2754 C2756 1.391 . S
C2755 C2754 1.386 . S
C2755 C2759 1.393 . S
C2756 H2745 0.950 . S
C2756 C2754 1.391 . S
C2756 C2757 1.400 . S
C2757 C2751 1.491 . S
C2757 C2756 1.400 . S
C2757 C2758 1.398 . S
C2758 H2746 0.950 1_554 S
C2758 C2757 1.398 . S
C2758 C2759 1.391 . S
C2759 H2747 0.940 1_554 S
C2759 C2755 1.393 . S
C2759 C2758 1.391 . S
H2760 C2768 0.950 . S
H2761 C2773 0.950 . S
H2762 C2770 0.950 . S
H2763 C2772 0.950 . S
H2764 C2774 0.950 . S
H2765 C2776 0.950 . S
H2766 C2778 0.950 . S
H2767 C2779 0.950 . S
C2768 H2760 0.950 . S
C2768 C2769 1.386 . S
C2768 C2770 1.391 . S
C2769 C2768 1.386 . S
C2769 C2773 1.393 . S
C2770 H2762 0.950 . S
C2770 C2768 1.391 . S
C2770 C2771 1.400 . S
C2771 C2770 1.400 . S
C2771 C2772 1.398 . S
C2771 C2777 1.491 . S
C2772 H2763 0.950 . S
C2772 C2771 1.398 . S
C2772 C2773 1.391 . S
C2773 H2761 0.950 . S
C2773 C2769 1.393 . S
C2773 C2772 1.391 . S
C2774 H2764 0.950 . S
C2774 C2775 1.386 . S
C2774 C2776 1.391 . S
C2775 C2774 1.386 . S
C2775 C2779 1.393 . S
C2776 H2765 0.950 . S
C2776 C2774 1.391 . S
C2776 C2777 1.400 . S
C2777 C2771 1.491 . S
C2777 C2776 1.400 . S
C2777 C2778 1.398 . S
C2778 H2766 0.950 . S
C2778 C2777 1.398 . S
C2778 C2779 1.391 . S
C2779 H2767 0.950 . S
C2779 C2775 1.393 . S
C2779 C2778 1.391 . S
H2780 C2788 0.950 . S
H2781 C2793 0.950 . S
H2782 C2790 0.950 . S
H2783 C2792 0.950 . S
H2784 C2794 0.950 . S
H2785 C2796 0.950 . S
H2786 C2798 0.950 . S
H2787 C2799 0.950 . S
C2788 H2780 0.950 . S
C2788 C2789 1.386 . S
C2788 C2790 1.391 . S
C2789 C2788 1.386 . S
C2789 C2793 1.393 . S
C2790 H2782 0.950 . S
C2790 C2788 1.391 . S
C2790 C2791 1.400 . S
C2791 C2790 1.400 . S
C2791 C2792 1.398 . S
C2791 C2797 1.491 . S
C2792 H2783 0.950 . S
C2792 C2791 1.398 . S
C2792 C2793 1.391 . S
C2793 H2781 0.950 . S
C2793 C2789 1.393 . S
C2793 C2792 1.391 . S
C2794 H2784 0.950 . S
C2794 C2795 1.386 . S
C2794 C2796 1.391 . S
C2795 C2794 1.386 . S
C2795 C2799 1.393 . S
C2796 H2785 0.950 . S
C2796 C2794 1.391 . S
C2796 C2797 1.400 . S
C2797 C2791 1.491 . S
C2797 C2796 1.400 . S
C2797 C2798 1.398 . S
C2798 H2786 0.950 . S
C2798 C2797 1.398 . S
C2798 C2799 1.391 . S
C2799 H2787 0.950 . S
C2799 C2795 1.393 . S
C2799 C2798 1.391 . S
C895 C353 1.067 . S
C889 C7 1.039 . S
C909 C22 1.889 . S
C915 C399 1.878 . S
C929 C31 0.941 . S
C935 C408 0.938 . S
C955 C446 1.700 . S
C949 C51 1.723 . S
C969 C17 1.685 . S
C975 C480 1.658 . S
C995 C510 0.805 . S
C989 C36 0.814 . S
C1015 C569 1.666 1_556 S
C1009 C49 1.642 . S
C1029 C9 0.998 . S
C1035 C582 0.995 . S
C1049 C63 1.396 . S
C1055 C365 1.394 . S
C1069 C73 1.197 . S
C1075 C383 1.174 . S
C1095 C404 1.701 . S
C1089 C91 1.686 . S
C1115 C442 0.784 . S
C1109 C101 0.797 . S
C1129 C59 1.307 . S
C1135 C476 1.280 . S
C1155 C506 1.610 . S
C1149 C77 1.597 . S
C1175 C553 1.225 . S
C1169 C87 1.255 . S
C1195 C578 0.683 . S
C1189 C105 0.687 . S
C1215 C349 0.697 1_556 S
C1209 C107 0.679 . S
C1235 C608 1.602 . S
C1229 C120 1.603 . S
C1249 C135 1.389 . S
C1255 C650 1.388 . S
C1275 C693 0.549 . S
C1269 C148 0.534 . S
C1289 C65 1.353 . S
C1295 C574 1.327 . S
C1315 C412 1.503 . S
C1309 C79 1.490 . S
C1329 C134 1.330 . S
C1335 C710 1.335 . S
C1355 C761 1.554 . S
C1349 C162 1.557 . S
C1369 C171 1.026 . S
C1375 C344 1.021 1_556 S
C1395 C744 1.833 . S
C1389 C190 1.837 . S
C1409 C203 0.928 . S
C1415 C417 0.931 . S
C1429 C219 1.669 . S
C1435 C727 1.642 . S
C1455 C489 1.618 . S
C1449 C189 1.591 . S
C1475 C655 0.781 . S
C1469 C204 0.791 . S
C1495 C540 1.627 . S
C1489 C213 1.636 . S
C1515 C795 0.970 . S
C1509 C177 0.971 . S
C1535 C336 1.368 . S
C1529 C227 1.366 . S
C1549 C245 1.129 . S
C1555 C748 1.155 . S
C1575 C433 1.643 . S
C1569 C255 1.669 . S
C1589 C273 0.758 . S
C1595 C723 0.779 . S
C1609 C231 1.228 . S
C1615 C485 1.254 . S
C1629 C241 1.588 . S
C1635 C671 1.572 . S
C1655 C544 1.221 . S
C1649 C259 1.199 . S
C1669 C269 0.667 . S
C1675 C791 0.684 . S
C1689 C275 0.671 . S
C1695 C340 0.671 . S
C1709 C288 1.571 . S
C1715 C637 1.564 . S
C1729 C303 1.370 . S
C1735 C523 1.348 . S
C1749 C316 0.491 . S
C1755 C684 0.489 . S
C1775 C807 1.287 . S
C1769 C233 1.320 . S
C1795 C421 1.444 . S
C1789 C247 1.458 . S
C1815 C467 1.297 . S
C1809 C302 1.302 . S
C1835 C378 1.517 . S
C1829 C330 1.525 . S
C1849 C35 1.040 . S
C1855 C829 1.070 . S
C1875 C773 1.880 . S
C1869 C50 1.887 . S
C1895 C850 0.939 . S
C1889 C3 0.941 . S
C1909 C23 1.724 . S
C1915 C718 1.698 . S
C1929 C45 1.683 . S
C1935 C616 1.649 1_556 S
C1955 C646 0.819 . S
C1949 C8 0.832 . S
C1975 C705 1.676 . S
C1969 C21 1.654 . S
C1995 C786 0.991 . S
C1989 C37 1.003 . S
C2015 C841 1.382 . S
C2009 C161 1.399 . S
C2029 C115 1.197 1_556 S
C2035 C757 1.191 . S
C2049 C133 1.682 . S
C2055 C846 1.710 . S
C2075 C714 0.831 . S
C2069 C143 0.828 . S
C2095 C612 1.294 . S
C2089 C157 1.309 . S
C2109 C119 1.613 . S
C2115 C642 1.614 . S
C2135 C689 1.224 . S
C2129 C129 1.253 . S
C2149 C147 0.724 . S
C2155 C782 0.693 . S
C2175 C825 0.683 . S
C2169 C149 0.699 . S
C2195 C472 1.604 . S
C2189 C78 1.601 . S
C2215 C514 1.384 . S
C2209 C93 1.392 . S
C2229 C106 0.535 . S
C2235 C557 0.546 . S
C2255 C778 1.327 . S
C2249 C163 1.354 . S
C2269 C121 1.501 . S
C2275 C854 1.494 . S
C2295 C438 1.342 . S
C2289 C92 1.328 . S
C2315 C387 1.556 . S
C2309 C64 1.549 . S
C2329 C199 1.018 . S
C2335 C820 1.010 . S
C2355 C370 1.826 . S
C2349 C218 1.833 . S
C2375 C859 0.941 . S
C2369 C175 0.919 1_455 S
C2389 C191 1.669 . S
C2395 C455 1.643 . S
C2409 C217 1.571 . S
C2415 C625 1.608 . S
C2429 C176 0.794 . S
C2435 C519 0.783 . S
C2449 C185 1.635 . S
C2455 C676 1.618 . S
C2469 C205 0.973 . S
C2475 C591 0.951 . S
C2495 C812 1.334 . S
C2489 C325 1.356 . S
C2509 C287 1.117 . S
C2515 C374 1.144 . S
C2535 C875 1.645 . S
C2529 C297 1.670 . S
C2549 C315 0.813 . S
C2555 C451 0.810 . S
C2569 C329 1.251 . S
C2575 C621 1.262 . S
C2595 C535 1.561 . S
C2589 C283 1.590 . S
C2609 C301 1.167 . S
C2615 C680 1.199 . S
C2635 C587 0.682 . S
C2629 C311 0.666 . S
C2655 C816 0.642 . S
C2649 C317 0.642 . S
C2675 C501 1.567 . S
C2669 C246 1.568 . S
C2689 C261 1.358 . S
C2695 C659 1.355 . S
C2715 C548 0.503 . S
C2709 C274 0.499 . S
C2735 C603 1.290 . S
C2729 C331 1.317 . S
C2749 C289 1.463 1_554 S
C2755 C863 1.446 . S
C2775 C739 1.299 . S
C2769 C260 1.305 . S
C2795 C752 1.523 . S
C2789 C232 1.522 . S
