# Generated by pormake.
# Topology ssb, (4,4)-cn, num edge types: 1
# Building blocks:
#     Node 0, Type 0, BuildingBlock: NAWXER_clean_sbu_0, # of connection points: 4
#     Node 1, Type 0, BuildingBlock: NAWXER_clean_sbu_0, # of connection points: 4
#     Node 2, Type 0, BuildingBlock: NAWXER_clean_sbu_0, # of connection points: 4
#     Node 3, Type 0, BuildingBlock: NAWXER_clean_sbu_0, # of connection points: 4
#     Node 4, Type 0, BuildingBlock: NAWXER_clean_sbu_0, # of connection points: 4
#     Node 5, Type 0, BuildingBlock: NAWXER_clean_sbu_0, # of connection points: 4
#     Node 6, Type 0, BuildingBlock: NAWXER_clean_sbu_0, # of connection points: 4
#     Node 7, Type 0, BuildingBlock: NAWXER_clean_sbu_0, # of connection points: 4
#     Node 8, Type 1, BuildingBlock: NAWXER_clean_sbu_0, # of connection points: 4
#     Node 9, Type 1, BuildingBlock: NAWXER_clean_sbu_0, # of connection points: 4
#     Node 10, Type 1, BuildingBlock: NAWXER_clean_sbu_0, # of connection points: 4
#     Node 11, Type 1, BuildingBlock: NAWXER_clean_sbu_0, # of connection points: 4
#     Node 12, Type 1, BuildingBlock: NAWXER_clean_sbu_0, # of connection points: 4
#     Node 13, Type 1, BuildingBlock: NAWXER_clean_sbu_0, # of connection points: 4
#     Node 14, Type 1, BuildingBlock: NAWXER_clean_sbu_0, # of connection points: 4
#     Node 15, Type 1, BuildingBlock: NAWXER_clean_sbu_0, # of connection points: 4
#     Edge 16, Type (0, 1), BuildingBlock: UVAHIK_clean_linker_0, # of connection points: 2
#     Edge 17, Type (0, 1), BuildingBlock: UVAHIK_clean_linker_0, # of connection points: 2
#     Edge 18, Type (0, 1), BuildingBlock: UVAHIK_clean_linker_0, # of connection points: 2
#     Edge 19, Type (0, 1), BuildingBlock: UVAHIK_clean_linker_0, # of connection points: 2
#     Edge 20, Type (0, 1), BuildingBlock: UVAHIK_clean_linker_0, # of connection points: 2
#     Edge 21, Type (0, 1), BuildingBlock: UVAHIK_clean_linker_0, # of connection points: 2
#     Edge 22, Type (0, 1), BuildingBlock: UVAHIK_clean_linker_0, # of connection points: 2
#     Edge 23, Type (0, 1), BuildingBlock: UVAHIK_clean_linker_0, # of connection points: 2
#     Edge 24, Type (0, 1), BuildingBlock: UVAHIK_clean_linker_0, # of connection points: 2
#     Edge 25, Type (0, 1), BuildingBlock: UVAHIK_clean_linker_0, # of connection points: 2
#     Edge 26, Type (0, 1), BuildingBlock: UVAHIK_clean_linker_0, # of connection points: 2
#     Edge 27, Type (0, 1), BuildingBlock: UVAHIK_clean_linker_0, # of connection points: 2
#     Edge 28, Type (0, 1), BuildingBlock: UVAHIK_clean_linker_0, # of connection points: 2
#     Edge 29, Type (0, 1), BuildingBlock: UVAHIK_clean_linker_0, # of connection points: 2
#     Edge 30, Type (0, 1), BuildingBlock: UVAHIK_clean_linker_0, # of connection points: 2
#     Edge 31, Type (0, 1), BuildingBlock: UVAHIK_clean_linker_0, # of connection points: 2
#     Edge 32, Type (0, 1), BuildingBlock: UVAHIK_clean_linker_0, # of connection points: 2
#     Edge 33, Type (0, 1), BuildingBlock: UVAHIK_clean_linker_0, # of connection points: 2
#     Edge 34, Type (0, 1), BuildingBlock: UVAHIK_clean_linker_0, # of connection points: 2
#     Edge 35, Type (0, 1), BuildingBlock: UVAHIK_clean_linker_0, # of connection points: 2
#     Edge 36, Type (0, 1), BuildingBlock: UVAHIK_clean_linker_0, # of connection points: 2
#     Edge 37, Type (0, 1), BuildingBlock: UVAHIK_clean_linker_0, # of connection points: 2
#     Edge 38, Type (0, 1), BuildingBlock: UVAHIK_clean_linker_0, # of connection points: 2
#     Edge 39, Type (0, 1), BuildingBlock: UVAHIK_clean_linker_0, # of connection points: 2
#     Edge 40, Type (0, 1), BuildingBlock: UVAHIK_clean_linker_0, # of connection points: 2
#     Edge 41, Type (0, 1), BuildingBlock: UVAHIK_clean_linker_0, # of connection points: 2
#     Edge 42, Type (0, 1), BuildingBlock: UVAHIK_clean_linker_0, # of connection points: 2
#     Edge 43, Type (0, 1), BuildingBlock: UVAHIK_clean_linker_0, # of connection points: 2
#     Edge 44, Type (0, 1), BuildingBlock: UVAHIK_clean_linker_0, # of connection points: 2
#     Edge 45, Type (0, 1), BuildingBlock: UVAHIK_clean_linker_0, # of connection points: 2
#     Edge 46, Type (0, 1), BuildingBlock: UVAHIK_clean_linker_0, # of connection points: 2
#     Edge 47, Type (0, 1), BuildingBlock: UVAHIK_clean_linker_0, # of connection points: 2
# Relax obj value: 0.002
# Max RMSD: 0.009
# Mean RMSD: 0.008
data_MOF--net-ssb--node1-NAWXER_clean_sbu_0--node2-NAWXER_clean_sbu_0--edge1-UVAHIK_clean_linker_0
_symmetry_space_group_name_H-M    P1
_symmetry_Int_Tables_number       1
_symmetry_cell_setting            triclinic
loop_
_symmetry_equiv_pos_as_xyz
'x, y, z'
_cell_length_a     57.730441
_cell_length_b     57.770541
_cell_length_c     49.429106
_cell_angle_alpha  89.860012
_cell_angle_beta   89.748199
_cell_angle_gamma 90.027221
loop_
_atom_site_label
_atom_site_type_symbol
_atom_site_fract_x
_atom_site_fract_y
_atom_site_fract_z
_atom_type_partial_charge
C0 C 0.22301 0.2539 0.28778 0.0
C1 C 0.28737 0.23258 0.22856 0.0
O2 O 0.21653 0.24216 0.26718 0.0
Zn3 Zn 0.23185 0.22623 0.23231 0.0
O4 O 0.24418 0.2595 0.29033 0.0
Zn5 Zn 0.2554 0.24468 0.25774 0.0
O6 O 0.24131 0.26452 0.22528 0.0
O7 O 0.21727 0.24244 0.20228 0.0
O8 O 0.28809 0.24518 0.2496 0.0
O9 O 0.26782 0.22477 0.22032 0.0
O10 O 0.22506 0.1936 0.23952 0.0
O11 O 0.25007 0.20923 0.26775 0.0
C12 C 0.22719 0.26188 0.20558 0.0
C13 C 0.23835 0.19168 0.2599 0.0
C14 C 0.72444 0.24253 0.22854 0.0
C15 C 0.79154 0.25698 0.28638 0.0
O16 O 0.71976 0.25481 0.24941 0.0
Zn17 Zn 0.73688 0.26847 0.28399 0.0
O18 O 0.74481 0.23458 0.22538 0.0
Zn19 Zn 0.75835 0.24796 0.25783 0.0
O20 O 0.74272 0.22927 0.2905 0.0
O21 O 0.72112 0.25328 0.31429 0.0
O22 O 0.79105 0.24416 0.26547 0.0
O23 O 0.77281 0.26648 0.2949 0.0
O24 O 0.73358 0.30165 0.27734 0.0
O25 O 0.7571 0.28412 0.24861 0.0
C26 C 0.72909 0.233 0.31057 0.0
C27 C 0.74733 0.30264 0.25713 0.0
C28 C 0.74143 0.70194 0.24126 0.0
C29 C 0.73198 0.77595 0.28776 0.0
O30 O 0.72972 0.70574 0.26264 0.0
Zn31 Zn 0.73642 0.73855 0.26523 0.0
O32 O 0.75296 0.71848 0.23026 0.0
Zn33 Zn 0.75864 0.75483 0.23621 0.0
O34 O 0.79157 0.75706 0.24267 0.0
O35 O 0.77244 0.74017 0.27609 0.0
O36 O 0.74547 0.77707 0.26714 0.0
O37 O 0.7221 0.75689 0.29363 0.0
O38 O 0.71972 0.75086 0.22957 0.0
O39 O 0.74566 0.76802 0.20342 0.0
C40 C 0.79151 0.74787 0.26608 0.0
C41 C 0.7249 0.76151 0.2076 0.0
C42 C 0.27209 0.70254 0.23885 0.0
C43 C 0.28695 0.77008 0.29563 0.0
O44 O 0.26038 0.72036 0.23157 0.0
Zn45 Zn 0.25617 0.75575 0.24408 0.0
O46 O 0.28537 0.70387 0.25923 0.0
Zn47 Zn 0.27932 0.7359 0.26811 0.0
O48 O 0.24381 0.73588 0.28203 0.0
O49 O 0.22383 0.75769 0.25386 0.0
O50 O 0.29565 0.74998 0.2982 0.0
O51 O 0.27234 0.77395 0.27669 0.0
O52 O 0.26746 0.77309 0.21292 0.0
O53 O 0.29472 0.75363 0.23425 0.0
C54 C 0.2245 0.74501 0.27489 0.0
C55 C 0.2886 0.76719 0.21499 0.0
C56 C 0.25768 0.76866 0.80846 0.0
C57 C 0.1887 0.76716 0.75112 0.0
O58 O 0.23882 0.77948 0.8127 0.0
Zn59 Zn 0.22236 0.76818 0.78092 0.0
O60 O 0.25988 0.75615 0.78727 0.0
Zn61 Zn 0.24041 0.74617 0.75288 0.0
O62 O 0.25786 0.7599 0.72304 0.0
O63 O 0.23984 0.78549 0.74865 0.0
O64 O 0.20563 0.75496 0.7422 0.0
O65 O 0.19066 0.77776 0.77354 0.0
O66 O 0.21925 0.7317 0.78862 0.0
O67 O 0.23933 0.71299 0.75741 0.0
C68 C 0.25243 0.78082 0.72798 0.0
C69 C 0.2266 0.71262 0.77848 0.0
C70 C 0.2862 0.23044 0.7007 0.0
C71 C 0.27417 0.3013 0.7534 0.0
O72 O 0.27155 0.22797 0.72008 0.0
Zn73 Zn 0.2562 0.24857 0.75131 0.0
O74 O 0.29564 0.25007 0.69685 0.0
Zn75 Zn 0.28025 0.2666 0.72608 0.0
O76 O 0.29464 0.25084 0.76172 0.0
O77 O 0.26623 0.23401 0.78452 0.0
O78 O 0.28755 0.29908 0.73303 0.0
O79 O 0.26193 0.28404 0.76127 0.0
O80 O 0.22375 0.24821 0.74245 0.0
O81 O 0.2446 0.26843 0.71327 0.0
C82 C 0.28751 0.2394 0.78241 0.0
C83 C 0.22486 0.26074 0.72131 0.0
C84 C 0.7581 0.19229 0.74883 0.0
C85 C 0.75833 0.26387 0.80211 0.0
O86 O 0.74649 0.20902 0.73858 0.0
Zn87 Zn 0.7383 0.24439 0.74618 0.0
O88 O 0.76908 0.19535 0.77084 0.0
Zn89 Zn 0.75991 0.22768 0.77573 0.0
O90 O 0.72323 0.2242 0.78192 0.0
O91 O 0.70483 0.24294 0.74943 0.0
O92 O 0.76945 0.2454 0.80736 0.0
O93 O 0.74669 0.26528 0.78016 0.0
O94 O 0.75291 0.25959 0.71534 0.0
O95 O 0.77813 0.24353 0.74301 0.0
C96 C 0.70424 0.23061 0.77081 0.0
C97 C 0.77378 0.25474 0.72122 0.0
C98 C 0.79487 0.75217 0.73794 0.0
C99 C 0.72919 0.7714 0.79712 0.0
O100 O 0.77619 0.74139 0.7318 0.0
Zn101 Zn 0.74092 0.73924 0.74567 0.0
O102 O 0.79484 0.76607 0.75788 0.0
Zn103 Zn 0.76271 0.76197 0.76848 0.0
O104 O 0.76189 0.7268 0.78254 0.0
O105 O 0.73808 0.70699 0.75656 0.0
O106 O 0.74972 0.77929 0.79885 0.0
O107 O 0.72437 0.75667 0.77862 0.0
O108 O 0.72359 0.75141 0.71476 0.0
O109 O 0.74515 0.77752 0.73519 0.0
C110 C 0.75193 0.70765 0.7765 0.0
C111 C 0.73088 0.77215 0.71644 0.0
C112 C 0.97008 0.25879 0.54071 0.0
C113 C 0.03748 0.25442 0.48034 0.0
O114 O 0.97773 0.27855 0.5329 0.0
Zn115 Zn 0.00462 0.29259 0.50803 0.0
O116 O 0.98035 0.24044 0.533 0.0
Zn117 Zn 0.0044 0.25535 0.5114 0.0
O118 O 0.02433 0.27265 0.54108 0.0
O119 O 0.02371 0.31028 0.53325 0.0
O120 O 0.02811 0.23739 0.49257 0.0
O121 O 0.03012 0.27502 0.48446 0.0
O122 O 0.98652 0.30769 0.47987 0.0
O123 O 0.98497 0.26945 0.47851 0.0
C124 C 0.03062 0.29318 0.54732 0.0
C125 C 0.97941 0.2892 0.46863 0.0
C126 C 0.74336 0.018 0.55028 0.0
C127 C 0.73142 0.96812 0.47222 0.0
O128 O 0.75896 0.00982 0.5348 0.0
Zn129 Zn 0.73811 0.99486 0.50965 0.0
O130 O 0.72191 0.01522 0.54445 0.0
Zn131 Zn 0.70147 0.99912 0.51344 0.0
O132 O 0.68286 0.97781 0.53504 0.0
O133 O 0.72047 0.9704 0.53562 0.0
O134 O 0.71243 0.97603 0.48207 0.0
O135 O 0.75065 0.97498 0.48175 0.0
O136 O 0.72463 0.02332 0.48735 0.0
O137 O 0.68704 0.02523 0.49452 0.0
C138 C 0.69978 0.96565 0.54346 0.0
C139 C 0.70515 0.03327 0.48321 0.0
C140 C 0.97588 0.74176 0.53751 0.0
C141 C 0.03584 0.74119 0.46662 0.0
O142 O 0.98065 0.76177 0.52777 0.0
Zn143 Zn 0.00223 0.77716 0.49772 0.0
O144 O 0.9858 0.72394 0.52781 0.0
Zn145 Zn 0.00564 0.74018 0.50164 0.0
O146 O 0.02758 0.76032 0.52707 0.0
O147 O 0.02097 0.79755 0.52016 0.0
O148 O 0.02846 0.72371 0.47984 0.0
O149 O 0.02747 0.76131 0.4716 0.0
O150 O 0.98002 0.78966 0.47195 0.0
O151 O 0.98177 0.7515 0.47162 0.0
C152 C 0.03185 0.78157 0.53252 0.0
C153 C 0.9735 0.77041 0.46211 0.0
C154 C 0.30785 0.03131 0.52934 0.0
C155 C 0.31118 0.9654 0.46737 0.0
O156 O 0.32556 0.02295 0.51761 0.0
Zn157 Zn 0.31012 0.99807 0.49806 0.0
O158 O 0.28794 0.0223 0.52501 0.0
Zn159 Zn 0.27355 0.995 0.50155 0.0
O160 O 0.25993 0.97513 0.52862 0.0
O161 O 0.29817 0.97445 0.5288 0.0
O162 O 0.29054 0.97046 0.47512 0.0
O163 O 0.32831 0.97699 0.47619 0.0
O164 O 0.29042 0.01569 0.46733 0.0
O165 O 0.25327 0.01111 0.47688 0.0
C166 C 0.27872 0.9672 0.53819 0.0
C167 C 0.26906 0.01924 0.46159 0.0
C168 C 0.47395 0.82119 0.03331 0.0
C169 C 0.52881 0.82081 0.95712 0.0
O170 O 0.48199 0.83907 0.02144 0.0
Zn171 Zn 0.50082 0.82242 0.99472 0.0
O172 O 0.47977 0.80101 0.02511 0.0
Zn173 Zn 0.50033 0.78519 0.99457 0.0
O174 O 0.52236 0.76788 0.01594 0.0
O175 O 0.52675 0.8058 0.01893 0.0
O176 O 0.52222 0.80069 0.96491 0.0
O177 O 0.52059 0.83874 0.9686 0.0
O178 O 0.47418 0.80707 0.97063 0.0
O179 O 0.47745 0.76906 0.97324 0.0
C180 C 0.53329 0.78527 0.02518 0.0
C181 C 0.46691 0.78681 0.96432 0.0
C182 C 0.25961 0.52172 0.04065 0.0
C183 C 0.26329 0.47069 0.96212 0.0
O184 O 0.2775 0.51337 0.02923 0.0
Zn185 Zn 0.26181 0.49506 1.00217 0.0
O186 O 0.23947 0.51604 0.03203 0.0
Zn187 Zn 0.22506 0.49456 1.00089 0.0
O188 O 0.20818 0.4706 0.02038 0.0
O189 O 0.24598 0.46802 0.02542 0.0
O190 O 0.24248 0.47567 0.96921 0.0
O191 O 0.2802 0.47773 0.97631 0.0
O192 O 0.24589 0.52068 0.97625 0.0
O193 O 0.2079 0.51679 0.97977 0.0
C194 C 0.22557 0.46043 0.03062 0.0
C195 C 0.22538 0.52696 0.96945 0.0
C196 C 0.52669 0.20262 0.96617 0.0
C197 C 0.47759 0.20127 0.04719 0.0
O198 O 0.52133 0.22271 0.97517 0.0
Zn199 Zn 0.50276 0.23794 0.00816 0.0
O200 O 0.52016 0.18456 0.97892 0.0
Zn201 Zn 0.5027 0.20064 0.00695 0.0
O202 O 0.47659 0.21723 0.98342 0.0
O203 O 0.47856 0.25512 0.98927 0.0
O204 O 0.4843 0.18374 0.03375 0.0
O205 O 0.48356 0.22162 0.03959 0.0
O206 O 0.52716 0.25373 0.02802 0.0
O207 O 0.52986 0.21568 0.03024 0.0
C208 C 0.46905 0.23761 0.97834 0.0
C209 C 0.53752 0.23575 0.03668 0.0
C210 C 0.7313 0.52865 0.03839 0.0
C211 C 0.74001 0.46022 0.98047 0.0
O212 O 0.75228 0.52306 0.03297 0.0
Zn213 Zn 0.77144 0.49787 0.01076 0.0
O214 O 0.71471 0.51712 0.02812 0.0
Zn215 Zn 0.73417 0.49518 0.00822 0.0
O216 O 0.74977 0.47776 0.04159 0.0
O217 O 0.7878 0.48206 0.04011 0.0
O218 O 0.72101 0.46977 0.98729 0.0
O219 O 0.75922 0.46922 0.98794 0.0
O220 O 0.78762 0.51702 0.98411 0.0
O221 O 0.74982 0.51637 0.97782 0.0
C222 C 0.76978 0.47407 0.05182 0.0
C223 C 0.76999 0.52344 0.97068 0.0
C224 C 0.18265 0.26202 0.30295 0.0
C225 C 0.20604 0.25853 0.30947 0.0
C226 C 0.16584 0.26297 0.3233 0.0
C227 C 0.15066 0.23834 0.38681 0.0
H228 H 0.10843 0.28995 0.39528 0.0
C229 C 0.07643 0.23881 0.46715 0.0
C230 C 0.05636 0.25124 0.46062 0.0
C231 C 0.09572 0.23945 0.44979 0.0
C232 C 0.11977 0.27517 0.39293 0.0
H233 H 0.23031 0.25354 0.34229 0.0
H234 H 0.20057 0.25449 0.37803 0.0
H235 H 0.1405 0.29287 0.3633 0.0
H236 H 0.0399 0.27278 0.43046 0.0
H237 H 0.07264 0.27268 0.39946 0.0
H238 H 0.12935 0.22005 0.41523 0.0
C239 C 0.19547 0.25688 0.35715 0.0
C240 C 0.1383 0.27703 0.37483 0.0
C241 C 0.21242 0.25655 0.33679 0.0
C242 C 0.05532 0.2632 0.43597 0.0
C243 C 0.07426 0.2634 0.4184 0.0
C244 C 0.1318 0.23625 0.40456 0.0
C245 C 0.17204 0.25984 0.35048 0.0
C246 C 0.15377 0.25859 0.37145 0.0
C247 C 0.09504 0.25221 0.42542 0.0
C248 C 0.11588 0.25454 0.40759 0.0
H249 H 0.1773 0.26347 0.28202 0.0
H250 H 0.14784 0.2652 0.31772 0.0
H251 H 0.16232 0.22381 0.38428 0.0
H252 H 0.07764 0.22968 0.48626 0.0
H253 H 0.1114 0.2307 0.45602 0.0
C254 C 0.73742 0.19356 0.32888 0.0
C255 C 0.7238 0.21373 0.32958 0.0
C256 C 0.73338 0.17545 0.34701 0.0
C257 C 0.69023 0.14698 0.38933 0.0
H258 H 0.74392 0.12271 0.42672 0.0
C259 C 0.68561 0.06963 0.4661 0.0
C260 C 0.70444 0.05418 0.46567 0.0
C261 C 0.68624 0.09013 0.45073 0.0
C262 C 0.72874 0.12903 0.41625 0.0
H263 H 0.69481 0.23038 0.34965 0.0
H264 H 0.68742 0.1982 0.38123 0.0
H265 H 0.74799 0.15655 0.39775 0.0
H266 H 0.73816 0.04766 0.44771 0.0
H267 H 0.73896 0.08261 0.4206 0.0
H268 H 0.67112 0.11888 0.40713 0.0
C269 C 0.70136 0.1967 0.36662 0.0
C270 C 0.73109 0.14855 0.39977 0.0
C271 C 0.70566 0.21512 0.34864 0.0
C272 C 0.72349 0.05929 0.44888 0.0
C273 C 0.72402 0.07952 0.43343 0.0
C274 C 0.6879 0.12718 0.40567 0.0
C275 C 0.71541 0.17681 0.36616 0.0
C276 C 0.71199 0.1575 0.38573 0.0
C277 C 0.70566 0.0955 0.4345 0.0
C278 C 0.70728 0.11765 0.41889 0.0
H279 H 0.75155 0.19184 0.31453 0.0
H280 H 0.74433 0.16024 0.34598 0.0
H281 H 0.67523 0.1535 0.37866 0.0
H282 H 0.67069 0.0662 0.47886 0.0
H283 H 0.67181 0.10202 0.45212 0.0
C284 C 0.81179 0.73846 0.30928 0.0
C285 C 0.81259 0.74802 0.28311 0.0
C286 C 0.83057 0.74066 0.32674 0.0
C287 C 0.8823 0.77661 0.33941 0.0
H288 H 0.89721 0.72662 0.38877 0.0
C289 C 0.94265 0.78805 0.43253 0.0
C290 C 0.95684 0.7692 0.43945 0.0
C291 C 0.92623 0.78592 0.41184 0.0
C292 C 0.89352 0.74071 0.37496 0.0
H293 H 0.83413 0.76688 0.25453 0.0
H294 H 0.86724 0.77034 0.28498 0.0
H295 H 0.86752 0.72095 0.35487 0.0
H296 H 0.96575 0.73379 0.42916 0.0
H297 H 0.9378 0.73032 0.39299 0.0
H298 H 0.90876 0.79619 0.35932 0.0
C299 C 0.85184 0.76146 0.29208 0.0
C300 C 0.87624 0.73753 0.35569 0.0
C301 C 0.83296 0.75928 0.27454 0.0
C302 C 0.95482 0.74854 0.4247 0.0
C303 C 0.93868 0.7465 0.40397 0.0
C304 C 0.89974 0.77977 0.35868 0.0
C305 C 0.85075 0.75239 0.31851 0.0
C306 C 0.87023 0.75548 0.33782 0.0
C307 C 0.92384 0.76497 0.39757 0.0
C308 C 0.90551 0.76186 0.37677 0.0
H309 H 0.79637 0.72976 0.31665 0.0
H310 H 0.82894 0.73374 0.34704 0.0
H311 H 0.87795 0.79089 0.32614 0.0
H312 H 0.94383 0.8042 0.44352 0.0
H313 H 0.91498 0.80046 0.40757 0.0
C314 C 0.28129 0.81029 0.31252 0.0
C315 C 0.29362 0.78936 0.31371 0.0
C316 C 0.28774 0.82907 0.32841 0.0
C317 C 0.31975 0.84568 0.38969 0.0
H318 H 0.3123 0.90694 0.35857 0.0
C319 C 0.33461 0.93259 0.44812 0.0
C320 C 0.31445 0.94623 0.44805 0.0
C321 C 0.33647 0.9134 0.43089 0.0
C322 C 0.31465 0.88993 0.36744 0.0
H323 H 0.3223 0.77165 0.33293 0.0
H324 H 0.33381 0.8048 0.36073 0.0
H325 H 0.30768 0.87292 0.33006 0.0
H326 H 0.28087 0.95109 0.42942 0.0
H327 H 0.28443 0.91821 0.39895 0.0
H328 H 0.32648 0.86304 0.42723 0.0
C329 C 0.319 0.80651 0.34751 0.0
C330 C 0.31184 0.87044 0.35121 0.0
C331 C 0.31244 0.78754 0.33158 0.0
C332 C 0.29657 0.94083 0.42998 0.0
C333 C 0.29864 0.92209 0.41245 0.0
C334 C 0.32284 0.86529 0.40591 0.0
C335 C 0.30684 0.82758 0.34585 0.0
C336 C 0.31348 0.84805 0.36233 0.0
C337 C 0.31846 0.90805 0.41291 0.0
C338 C 0.31954 0.88755 0.39507 0.0
H339 H 0.26655 0.81227 0.29923 0.0
H340 H 0.27754 0.84476 0.32714 0.0
H341 H 0.32109 0.82871 0.39891 0.0
H342 H 0.34859 0.93633 0.462 0.0
H343 H 0.35192 0.90278 0.43157 0.0
C344 C 0.15436 0.7904 0.73529 0.0
C345 C 0.16846 0.7706 0.73329 0.0
C346 C 0.13843 0.79565 0.71478 0.0
C347 C 0.13195 0.78591 0.64222 0.0
H348 H 0.06689 0.80105 0.6506 0.0
C349 C 0.06666 0.7705 0.55874 0.0
C350 C 0.04907 0.78669 0.55369 0.0
C351 C 0.08165 0.77336 0.58044 0.0
C352 C 0.08516 0.79734 0.648 0.0
H353 H 0.17551 0.73985 0.70952 0.0
H354 H 0.14784 0.74889 0.67422 0.0
H355 H 0.0912 0.79599 0.6909 0.0
H356 H 0.03356 0.81883 0.56715 0.0
H357 H 0.05991 0.82373 0.60579 0.0
H358 H 0.126 0.78654 0.59959 0.0
C359 C 0.14941 0.76064 0.69117 0.0
C360 C 0.099 0.79437 0.67103 0.0
C361 C 0.16516 0.7554 0.71151 0.0
C362 C 0.04712 0.8062 0.57049 0.0
C363 C 0.06202 0.8089 0.59265 0.0
C364 C 0.11823 0.78892 0.61937 0.0
C365 C 0.1365 0.78121 0.69204 0.0
C366 C 0.12232 0.78778 0.66828 0.0
C367 C 0.07934 0.79237 0.59789 0.0
C368 C 0.09451 0.79384 0.62199 0.0
H369 H 0.15657 0.80246 0.75182 0.0
H370 H 0.12855 0.81155 0.71598 0.0
H371 H 0.15002 0.7814 0.63951 0.0
H372 H 0.0686 0.75529 0.54613 0.0
H373 H 0.0946 0.76016 0.58411 0.0
C374 C 0.3099 0.2111 0.66413 0.0
C375 C 0.2917 0.21034 0.68314 0.0
C376 C 0.31494 0.19176 0.64803 0.0
C377 C 0.3041 0.12812 0.64433 0.0
H378 H 0.31962 0.13545 0.56838 0.0
C379 C 0.29173 0.05573 0.56652 0.0
C380 C 0.30969 0.05132 0.54794 0.0
C381 C 0.2927 0.07485 0.58366 0.0
C382 C 0.31562 0.13317 0.58965 0.0
H383 H 0.26429 0.18875 0.69969 0.0
H384 H 0.27262 0.15557 0.67142 0.0
H385 H 0.31516 0.16973 0.59693 0.0
H386 H 0.34278 0.06361 0.53278 0.0
H387 H 0.34421 0.09756 0.5626 0.0
H388 H 0.30363 0.09164 0.63676 0.0
C389 C 0.28349 0.17075 0.66934 0.0
C390 C 0.3131 0.15279 0.60605 0.0
C391 C 0.27859 0.18993 0.68548 0.0
C392 C 0.32873 0.06651 0.54696 0.0
C393 C 0.3295 0.08597 0.56389 0.0
C394 C 0.30637 0.10861 0.62791 0.0
C395 C 0.30184 0.17128 0.65052 0.0
C396 C 0.3068 0.15053 0.63349 0.0
C397 C 0.31148 0.09027 0.58245 0.0
C398 C 0.31171 0.11092 0.6003 0.0
H399 H 0.32037 0.22654 0.66187 0.0
H400 H 0.32929 0.19276 0.6339 0.0
H401 H 0.2999 0.12561 0.6655 0.0
H402 H 0.27684 0.04436 0.56785 0.0
H403 H 0.27845 0.07784 0.59756 0.0
C404 C 0.81605 0.25688 0.71083 0.0
C405 C 0.79305 0.25941 0.70208 0.0
C406 C 0.83437 0.25752 0.69237 0.0
C407 C 0.86728 0.24247 0.6483 0.0
H408 H 0.87078 0.2856 0.58829 0.0
C409 C 0.93925 0.23675 0.56634 0.0
C410 C 0.94916 0.2579 0.55822 0.0
C411 C 0.91928 0.23643 0.5826 0.0
C412 C 0.87011 0.27348 0.60501 0.0
H413 H 0.77136 0.26563 0.66713 0.0
H414 H 0.8035 0.26665 0.63469 0.0
H415 H 0.83806 0.28749 0.61962 0.0
H416 H 0.94584 0.29529 0.56097 0.0
H417 H 0.91154 0.29466 0.58943 0.0
H418 H 0.89962 0.22888 0.63421 0.0
C419 C 0.80731 0.26429 0.65595 0.0
C420 C 0.85122 0.27442 0.62282 0.0
C421 C 0.78889 0.26375 0.67453 0.0
C422 C 0.93868 0.27864 0.56673 0.0
C423 C 0.91883 0.27832 0.58291 0.0
C424 C 0.88615 0.24153 0.63052 0.0
C425 C 0.83022 0.26057 0.66461 0.0
C426 C 0.84974 0.25913 0.6449 0.0
C427 C 0.90883 0.25724 0.59104 0.0
C428 C 0.88795 0.2572 0.60885 0.0
H429 H 0.8199 0.25375 0.73196 0.0
H430 H 0.85183 0.25524 0.69985 0.0
H431 H 0.86648 0.23012 0.6648 0.0
H432 H 0.94683 0.22048 0.56006 0.0
H433 H 0.91191 0.21988 0.58834 0.0
C434 C 0.73377 0.81242 0.6986 0.0
C435 C 0.723 0.7906 0.69765 0.0
C436 C 0.72615 0.83055 0.68234 0.0
C437 C 0.6943 0.84497 0.62034 0.0
H438 H 0.69643 0.90636 0.65194 0.0
C439 C 0.67674 0.93191 0.5616 0.0
C440 C 0.69635 0.94631 0.56266 0.0
C441 C 0.67507 0.91243 0.57858 0.0
C442 C 0.69551 0.88931 0.64291 0.0
H443 H 0.69596 0.77068 0.67825 0.0
H444 H 0.68245 0.80275 0.6496 0.0
H445 H 0.70237 0.8725 0.68055 0.0
H446 H 0.7291 0.95222 0.5828 0.0
H447 H 0.72581 0.91892 0.61287 0.0
H448 H 0.68784 0.86218 0.58249 0.0
C449 C 0.6969 0.80562 0.66307 0.0
C450 C 0.69907 0.86991 0.65922 0.0
C451 C 0.70461 0.78727 0.67948 0.0
C452 C 0.71382 0.94138 0.58149 0.0
C453 C 0.7119 0.92239 0.59877 0.0
C454 C 0.69048 0.86449 0.604 0.0
C455 C 0.70741 0.82758 0.66466 0.0
C456 C 0.69948 0.84755 0.64797 0.0
C457 C 0.69269 0.90756 0.59731 0.0
C458 C 0.6919 0.88685 0.61503 0.0
H459 H 0.74817 0.81562 0.71206 0.0
H460 H 0.73514 0.84698 0.68356 0.0
H461 H 0.69451 0.82802 0.61104 0.0
H462 H 0.66313 0.93527 0.5471 0.0
H463 H 0.6601 0.90121 0.57713 0.0
C464 C 0.81731 0.73002 0.70312 0.0
C465 C 0.81585 0.74891 0.72096 0.0
C466 C 0.83616 0.7277 0.68548 0.0
C467 C 0.87848 0.76274 0.64911 0.0
H468 H 0.9107 0.70485 0.63636 0.0
C469 C 0.9565 0.75963 0.57734 0.0
C470 C 0.95943 0.74027 0.56054 0.0
C471 C 0.94025 0.75941 0.59828 0.0
C472 C 0.9017 0.72108 0.63939 0.0
H473 H 0.83338 0.77989 0.73471 0.0
H474 H 0.86619 0.77603 0.7035 0.0
H475 H 0.88027 0.70679 0.67089 0.0
H476 H 0.948 0.7052 0.55293 0.0
H477 H 0.91878 0.70502 0.5891 0.0
H478 H 0.89898 0.77697 0.61717 0.0
C479 C 0.8527 0.763 0.70328 0.0
C480 C 0.88436 0.7222 0.6593 0.0
C481 C 0.83398 0.76514 0.72123 0.0
C482 C 0.9461 0.72037 0.56559 0.0
C483 C 0.92944 0.72027 0.5864 0.0
C484 C 0.89552 0.76156 0.62903 0.0
C485 C 0.85384 0.74439 0.685 0.0
C486 C 0.87267 0.7431 0.66445 0.0
C487 C 0.92607 0.73997 0.60278 0.0
C488 C 0.90754 0.74078 0.62398 0.0
H489 H 0.80368 0.71714 0.70248 0.0
H490 H 0.83648 0.71328 0.67152 0.0
H491 H 0.86943 0.77895 0.65221 0.0
H492 H 0.96681 0.7751 0.57431 0.0
H493 H 0.93881 0.77464 0.61091 0.0
C494 C 0.24673 0.82096 0.71109 0.0
C495 C 0.25875 0.79987 0.7093 0.0
C496 C 0.25146 0.83898 0.69318 0.0
C497 C 0.27817 0.85178 0.62648 0.0
H498 H 0.27008 0.91504 0.65103 0.0
C499 C 0.29743 0.9337 0.56143 0.0
C500 C 0.2784 0.94873 0.55889 0.0
C501 C 0.29689 0.91548 0.58006 0.0
C502 C 0.27237 0.89745 0.64395 0.0
H503 H 0.28543 0.78126 0.68742 0.0
H504 H 0.29442 0.81326 0.65648 0.0
H505 H 0.26744 0.88334 0.68347 0.0
H506 H 0.24408 0.95676 0.57412 0.0
H507 H 0.24349 0.92527 0.60745 0.0
H508 H 0.28372 0.86632 0.58697 0.0
C509 C 0.2809 0.81561 0.67146 0.0
C510 C 0.27074 0.87923 0.66245 0.0
C511 C 0.27588 0.79731 0.68927 0.0
C512 C 0.25897 0.94544 0.57565 0.0
C513 C 0.25865 0.92751 0.59472 0.0
C514 C 0.28026 0.8701 0.60806 0.0
C515 C 0.26866 0.83668 0.67317 0.0
C516 C 0.27303 0.85609 0.65388 0.0
C517 C 0.27753 0.91229 0.59689 0.0
C518 C 0.2769 0.89302 0.61658 0.0
H519 H 0.23315 0.82345 0.726 0.0
H520 H 0.24115 0.85458 0.69474 0.0
H521 H 0.2798 0.83425 0.61903 0.0
H522 H 0.31258 0.93571 0.54863 0.0
H523 H 0.31166 0.90398 0.58148 0.0
C524 C 0.2044 0.28285 0.68479 0.0
C525 C 0.2036 0.2666 0.70602 0.0
C526 C 0.18446 0.28819 0.67007 0.0
C527 C 0.12864 0.26339 0.65059 0.0
H528 H 0.11268 0.32623 0.63008 0.0
C529 C 0.04555 0.28055 0.59195 0.0
C530 C 0.04689 0.29598 0.57003 0.0
C531 C 0.06316 0.27967 0.61112 0.0
C532 C 0.11699 0.30857 0.63544 0.0
H533 H 0.18108 0.24346 0.72865 0.0
H534 H 0.14634 0.25265 0.70279 0.0
H535 H 0.14667 0.31914 0.65832 0.0
H536 H 0.06706 0.32344 0.55161 0.0
H537 H 0.09841 0.32151 0.5848 0.0
H538 H 0.09965 0.25257 0.62722 0.0
C539 C 0.16244 0.2612 0.6975 0.0
C540 C 0.13644 0.30452 0.65165 0.0
C541 C 0.18234 0.25599 0.71237 0.0
C542 C 0.06556 0.31151 0.56847 0.0
C543 C 0.0835 0.31035 0.58749 0.0
C544 C 0.10939 0.26739 0.63426 0.0
C545 C 0.16331 0.27726 0.67609 0.0
C546 C 0.14244 0.28187 0.65942 0.0
C547 C 0.08286 0.29384 0.60855 0.0
C548 C 0.10321 0.29002 0.62651 0.0
H549 H 0.22047 0.29141 0.67942 0.0
H550 H 0.18573 0.30047 0.65353 0.0
H551 H 0.13305 0.2457 0.65576 0.0
H552 H 0.03119 0.26856 0.59377 0.0
H553 H 0.06166 0.26727 0.62751 0.0
C554 C 0.74231 0.16643 0.71336 0.0
C555 C 0.75836 0.16993 0.73425 0.0
C556 C 0.7427 0.14629 0.69806 0.0
C557 C 0.73826 0.09781 0.67812 0.0
H558 H 0.79565 0.07631 0.64591 0.0
C559 C 0.73534 0.02687 0.59849 0.0
C560 C 0.74938 0.03002 0.57556 0.0
C561 C 0.73925 0.03965 0.62191 0.0
C562 C 0.77947 0.08213 0.65469 0.0
H563 H 0.78737 0.15478 0.75562 0.0
H564 H 0.78803 0.11906 0.72852 0.0
H565 H 0.79653 0.10707 0.6799 0.0
H566 H 0.77916 0.04815 0.55931 0.0
H567 H 0.78531 0.07165 0.59981 0.0
H568 H 0.72089 0.07441 0.65202 0.0
C569 C 0.77519 0.1322 0.72414 0.0
C570 C 0.78002 0.09952 0.67445 0.0
C571 C 0.77472 0.15252 0.73973 0.0
C572 C 0.76809 0.04548 0.57679 0.0
C573 C 0.77167 0.05879 0.60009 0.0
C574 C 0.73767 0.0807 0.65835 0.0
C575 C 0.75912 0.12893 0.70315 0.0
C576 C 0.75932 0.10798 0.68577 0.0
C577 C 0.75687 0.05647 0.62272 0.0
C578 C 0.75819 0.07291 0.64591 0.0
H579 H 0.72943 0.17941 0.70852 0.0
H580 H 0.73036 0.14458 0.68174 0.0
H581 H 0.72203 0.10371 0.68675 0.0
H582 H 0.72107 0.01467 0.59819 0.0
H583 H 0.72797 0.03675 0.63915 0.0
C584 C 0.83333 0.24812 0.29644 0.0
C585 C 0.81346 0.26167 0.30082 0.0
C586 C 0.85363 0.25245 0.31103 0.0
C587 C 0.88378 0.29702 0.35132 0.0
H588 H 0.91189 0.24473 0.38774 0.0
C589 C 0.94763 0.30694 0.44091 0.0
C590 C 0.96445 0.2897 0.44451 0.0
C591 C 0.93129 0.30497 0.42014 0.0
C592 C 0.90465 0.25954 0.37733 0.0
H593 H 0.79957 0.29083 0.32328 0.0
H594 H 0.83486 0.29835 0.34844 0.0
H595 H 0.87995 0.23831 0.35681 0.0
H596 H 0.97866 0.25796 0.4281 0.0
H597 H 0.951 0.25504 0.39136 0.0
H598 H 0.90843 0.3183 0.3719 0.0
C599 C 0.8348 0.28442 0.3338 0.0
C600 C 0.88626 0.2558 0.35961 0.0
C601 C 0.81451 0.27995 0.31953 0.0
C602 C 0.96561 0.27132 0.42603 0.0
C603 C 0.94962 0.26956 0.40509 0.0
C604 C 0.90236 0.30076 0.36887 0.0
C605 C 0.85452 0.2706 0.32993 0.0
C606 C 0.87542 0.27451 0.3467 0.0
C607 C 0.93173 0.28589 0.40239 0.0
C608 C 0.91288 0.28208 0.38236 0.0
H609 H 0.83308 0.23396 0.28213 0.0
H610 H 0.86864 0.24158 0.30757 0.0
H611 H 0.87586 0.31176 0.34144 0.0
H612 H 0.94634 0.32123 0.45499 0.0
H613 H 0.91769 0.31782 0.41883 0.0
C614 C 0.746 0.81444 0.30332 0.0
C615 C 0.72964 0.79649 0.30537 0.0
C616 C 0.74494 0.83347 0.32053 0.0
C617 C 0.71961 0.85292 0.38585 0.0
H618 H 0.7407 0.91298 0.36043 0.0
C619 C 0.71 0.93711 0.44772 0.0
C620 C 0.73052 0.94986 0.45134 0.0
C621 C 0.7092 0.91886 0.42933 0.0
C622 C 0.73488 0.89627 0.36778 0.0
H623 H 0.69902 0.78466 0.32679 0.0
H624 H 0.69653 0.81849 0.35631 0.0
H625 H 0.73913 0.88054 0.32904 0.0
H626 H 0.76614 0.95379 0.43803 0.0
H627 H 0.7645 0.9221 0.40514 0.0
H628 H 0.71474 0.8691 0.42445 0.0
C629 C 0.71062 0.81752 0.34183 0.0
C630 C 0.73405 0.87761 0.34987 0.0
C631 C 0.71191 0.79819 0.3248 0.0
C632 C 0.75011 0.94428 0.43568 0.0
C633 C 0.74915 0.92623 0.41686 0.0
C634 C 0.72006 0.8717 0.40361 0.0
C635 C 0.72725 0.83536 0.34003 0.0
C636 C 0.72669 0.85558 0.35873 0.0
C637 C 0.72876 0.9132 0.41379 0.0
C638 C 0.72792 0.89347 0.39479 0.0
H639 H 0.76009 0.81355 0.28881 0.0
H640 H 0.75841 0.84645 0.31888 0.0
H641 H 0.71423 0.83622 0.39361 0.0
H642 H 0.69464 0.94088 0.45958 0.0
H643 H 0.69324 0.90917 0.42718 0.0
C644 C 0.18414 0.75616 0.28879 0.0
C645 C 0.20357 0.74177 0.29203 0.0
C646 C 0.16525 0.75445 0.30652 0.0
C647 C 0.13576 0.71647 0.35577 0.0
H648 H 0.1145 0.77415 0.38708 0.0
C649 C 0.06926 0.72007 0.44477 0.0
C650 C 0.05387 0.73889 0.44534 0.0
C651 C 0.08711 0.71916 0.42542 0.0
C652 C 0.11986 0.75787 0.37825 0.0
H653 H 0.21795 0.71367 0.31582 0.0
H654 H 0.18479 0.71051 0.34651 0.0
H655 H 0.14555 0.77462 0.35375 0.0
H656 H 0.04437 0.77089 0.4252 0.0
H657 H 0.07462 0.76891 0.39114 0.0
H658 H 0.10977 0.69971 0.37995 0.0
C659 C 0.18426 0.72317 0.33032 0.0
C660 C 0.13776 0.75818 0.35917 0.0
C661 C 0.20329 0.72507 0.31281 0.0
C662 C 0.05617 0.75631 0.42562 0.0
C663 C 0.07369 0.75525 0.40614 0.0
C664 C 0.11757 0.71616 0.37468 0.0
C665 C 0.16522 0.73812 0.32767 0.0
C666 C 0.1459 0.73752 0.34766 0.0
C667 C 0.08974 0.73694 0.40603 0.0
C668 C 0.10931 0.7369 0.38612 0.0
H669 H 0.18378 0.7692 0.27302 0.0
H670 H 0.15071 0.76606 0.30382 0.0
H671 H 0.14163 0.70027 0.34715 0.0
H672 H 0.06793 0.7064 0.45974 0.0
H673 H 0.0992 0.70486 0.42615 0.0
C674 C 0.25678 0.16862 0.29642 0.0
C675 C 0.2404 0.16986 0.27551 0.0
C676 C 0.25861 0.14893 0.31245 0.0
C677 C 0.26845 0.10189 0.33438 0.0
H678 H 0.21371 0.0734 0.36559 0.0
C679 C 0.27829 0.0312 0.41441 0.0
C680 C 0.2632 0.03206 0.4367 0.0
C681 C 0.27371 0.04407 0.39114 0.0
C682 C 0.22918 0.08123 0.35714 0.0
H683 H 0.21312 0.15114 0.25496 0.0
H684 H 0.2165 0.11619 0.28321 0.0
H685 H 0.20952 0.10358 0.33116 0.0
H686 H 0.23106 0.04638 0.45194 0.0
H687 H 0.2236 0.07001 0.41182 0.0
H688 H 0.28819 0.08105 0.36127 0.0
C689 C 0.22781 0.13076 0.2871 0.0
C690 C 0.22676 0.09828 0.33711 0.0
C691 C 0.22596 0.15067 0.27085 0.0
C692 C 0.243 0.04549 0.43501 0.0
C693 C 0.23866 0.05885 0.41189 0.0
C694 C 0.27086 0.08514 0.35448 0.0
C695 C 0.24423 0.12973 0.30805 0.0
C696 C 0.2464 0.10922 0.32606 0.0
C697 C 0.25422 0.05864 0.38983 0.0
C698 C 0.25128 0.07485 0.36655 0.0
H699 H 0.26818 0.18303 0.30075 0.0
H700 H 0.27108 0.14899 0.32876 0.0
H701 H 0.28396 0.10968 0.32595 0.0
H702 H 0.29375 0.02057 0.41496 0.0
H703 H 0.28573 0.04283 0.37433 0.0
C704 C 0.68956 0.7666 0.8165 0.0
C705 C 0.71046 0.77906 0.81568 0.0
C706 C 0.67126 0.77378 0.8329 0.0
C707 C 0.64522 0.82387 0.86632 0.0
H708 H 0.61168 0.77629 0.90573 0.0
C709 C 0.56503 0.83919 0.93832 0.0
C710 C 0.54769 0.82214 0.93685 0.0
C711 C 0.5856 0.83684 0.92325 0.0
C712 C 0.62072 0.78979 0.89469 0.0
H713 H 0.72846 0.80904 0.83151 0.0
H714 H 0.69607 0.82177 0.86037 0.0
H715 H 0.64716 0.76635 0.88184 0.0
H716 H 0.53731 0.79051 0.91678 0.0
H717 H 0.5726 0.78675 0.89021 0.0
H718 H 0.61831 0.84723 0.87907 0.0
C719 C 0.69406 0.80636 0.84816 0.0
C720 C 0.64112 0.78409 0.88107 0.0
C721 C 0.71262 0.79899 0.83181 0.0
C722 C 0.55047 0.80379 0.91855 0.0
C723 C 0.5708 0.80154 0.9035 0.0
C724 C 0.62465 0.82961 0.88005 0.0
C725 C 0.67322 0.79372 0.84892 0.0
C726 C 0.6533 0.80088 0.86614 0.0
C727 C 0.58902 0.81744 0.90652 0.0
C728 C 0.61187 0.81244 0.89375 0.0
H729 H 0.68722 0.7512 0.80435 0.0
H730 H 0.65534 0.76384 0.83271 0.0
H731 H 0.65424 0.83716 0.85493 0.0
H732 H 0.5634 0.85343 0.95242 0.0
H733 H 0.59931 0.84942 0.9259 0.0
C734 C 0.23715 0.67198 0.79108 0.0
C735 C 0.22175 0.69071 0.79291 0.0
C736 C 0.23442 0.65268 0.80795 0.0
C737 C 0.20684 0.63641 0.87341 0.0
H738 H 0.22836 0.57513 0.85381 0.0
C739 C 0.20127 0.55664 0.94518 0.0
C740 C 0.22246 0.54501 0.94847 0.0
C741 C 0.19879 0.57348 0.92496 0.0
C742 C 0.22226 0.59218 0.8595 0.0
H743 H 0.19052 0.70329 0.81238 0.0
H744 H 0.18508 0.66926 0.84083 0.0
H745 H 0.22738 0.60563 0.81958 0.0
H746 H 0.25749 0.5416 0.93284 0.0
H747 H 0.25298 0.57064 0.89742 0.0
H748 H 0.20156 0.62272 0.91331 0.0
C749 C 0.19984 0.66975 0.82725 0.0
C750 C 0.22181 0.60971 0.83995 0.0
C751 C 0.20282 0.6892 0.81075 0.0
C752 C 0.24098 0.55036 0.93097 0.0
C753 C 0.23837 0.56683 0.91053 0.0
C754 C 0.20695 0.61878 0.89281 0.0
C755 C 0.21599 0.65152 0.82671 0.0
C756 C 0.2145 0.63221 0.84675 0.0
C757 C 0.2173 0.57861 0.90736 0.0
C758 C 0.21506 0.59663 0.88616 0.0
H759 H 0.25201 0.67275 0.77764 0.0
H760 H 0.24741 0.63919 0.80708 0.0
H761 H 0.20152 0.65355 0.87967 0.0
H762 H 0.18669 0.55286 0.95834 0.0
H763 H 0.18235 0.58233 0.92288 0.0
C764 C 0.29659 0.23675 0.83177 0.0
C765 C 0.30384 0.2349 0.80467 0.0
C766 C 0.31289 0.23638 0.85268 0.0
C767 C 0.3673 0.21498 0.87444 0.0
H768 H 0.38114 0.27381 0.90847 0.0
C769 C 0.45013 0.2258 0.93577 0.0
C770 C 0.45008 0.24003 0.95871 0.0
C771 C 0.43137 0.22569 0.91816 0.0
C772 C 0.37727 0.25714 0.89964 0.0
H773 H 0.33348 0.2302 0.7782 0.0
H774 H 0.36179 0.22842 0.81492 0.0
H775 H 0.34886 0.27093 0.87672 0.0
H776 H 0.4307 0.26568 0.98114 0.0
H777 H 0.39714 0.2649 0.95087 0.0
H778 H 0.39503 0.2008 0.89748 0.0
C779 C 0.34361 0.2306 0.81984 0.0
C780 C 0.35883 0.25556 0.88141 0.0
C781 C 0.32746 0.23157 0.79893 0.0
C782 C 0.43114 0.25469 0.96342 0.0
C783 C 0.41197 0.2542 0.94604 0.0
C784 C 0.38538 0.2164 0.89303 0.0
C785 C 0.33651 0.23354 0.84677 0.0
C786 C 0.35405 0.23457 0.86834 0.0
C787 C 0.41168 0.23935 0.92341 0.0
C788 C 0.39105 0.23764 0.90538 0.0
H789 H 0.27852 0.23965 0.83668 0.0
H790 H 0.30713 0.23865 0.8734 0.0
H791 H 0.36378 0.19862 0.86461 0.0
H792 H 0.46472 0.21455 0.93153 0.0
H793 H 0.43231 0.21469 0.9005 0.0
C794 C 0.73981 0.30018 0.81885 0.0
C795 C 0.75722 0.28331 0.82161 0.0
C796 C 0.73781 0.31823 0.83741 0.0
C797 C 0.77045 0.35313 0.88499 0.0
H798 H 0.71021 0.36796 0.91544 0.0
C799 C 0.76044 0.42462 0.96496 0.0
C800 C 0.74061 0.4387 0.96426 0.0
C801 C 0.76201 0.40482 0.94895 0.0
C802 C 0.72711 0.36431 0.90687 0.0
H803 H 0.78636 0.27236 0.84598 0.0
H804 H 0.78318 0.30448 0.87826 0.0
H805 H 0.71427 0.33504 0.88494 0.0
H806 H 0.70669 0.44289 0.94642 0.0
H807 H 0.70967 0.40868 0.91755 0.0
H808 H 0.78325 0.38277 0.90589 0.0
C809 C 0.771 0.30345 0.8617 0.0
C810 C 0.72944 0.34534 0.88953 0.0
C811 C 0.77279 0.28508 0.8433 0.0
C812 C 0.72215 0.43232 0.94746 0.0
C813 C 0.72386 0.41262 0.93102 0.0
C814 C 0.76808 0.3723 0.90201 0.0
C815 C 0.75335 0.32009 0.85902 0.0
C816 C 0.75112 0.33958 0.87839 0.0
C817 C 0.74394 0.39871 0.93137 0.0
C818 C 0.74637 0.37818 0.91324 0.0
H819 H 0.72742 0.29932 0.80248 0.0
H820 H 0.72421 0.33093 0.83466 0.0
H821 H 0.78729 0.34929 0.87638 0.0
H822 H 0.77486 0.42886 0.97801 0.0
H823 H 0.77747 0.3943 0.95045 0.0
C824 C 0.68321 0.24496 0.2139 0.0
C825 C 0.70633 0.23942 0.2077 0.0
C826 C 0.66624 0.24464 0.1939 0.0
C827 C 0.63698 0.25754 0.14588 0.0
H828 H 0.63461 0.20985 0.091 0.0
C829 C 0.56834 0.25884 0.0606 0.0
C830 C 0.55822 0.23741 0.05426 0.0
C831 C 0.58781 0.2599 0.07742 0.0
C832 C 0.63495 0.22327 0.10626 0.0
H833 H 0.72965 0.2286 0.17568 0.0
H834 H 0.69995 0.22827 0.14049 0.0
H835 H 0.6654 0.20913 0.12456 0.0
H836 H 0.56071 0.20028 0.0607 0.0
H837 H 0.59404 0.20219 0.0902 0.0
H838 H 0.60604 0.27115 0.12831 0.0
C839 C 0.69493 0.23265 0.16097 0.0
C840 C 0.6528 0.22299 0.12533 0.0
C841 C 0.71197 0.23282 0.18112 0.0
C842 C 0.56806 0.21712 0.06501 0.0
C843 C 0.58738 0.21818 0.08181 0.0
C844 C 0.6191 0.25776 0.1269 0.0
C845 C 0.67193 0.23897 0.16705 0.0
C846 C 0.65382 0.23992 0.14566 0.0
C847 C 0.59753 0.23955 0.08829 0.0
C848 C 0.61765 0.24043 0.10708 0.0
H849 H 0.6782 0.2499 0.23423 0.0
H850 H 0.64862 0.24898 0.19953 0.0
H851 H 0.63748 0.27114 0.16091 0.0
H852 H 0.56125 0.27478 0.05257 0.0
H853 H 0.59532 0.27665 0.08177 0.0
C854 C 0.72034 0.66527 0.22953 0.0
C855 C 0.74 0.67952 0.22698 0.0
C856 C 0.71737 0.64624 0.21231 0.0
C857 C 0.74894 0.60772 0.16511 0.0
H858 H 0.69111 0.60448 0.12556 0.0
C859 C 0.74522 0.56321 0.0632 0.0
C860 C 0.72737 0.54722 0.05846 0.0
C861 C 0.74423 0.5781 0.08527 0.0
C862 C 0.70721 0.60495 0.13672 0.0
H863 H 0.77244 0.68434 0.20545 0.0
H864 H 0.76749 0.65115 0.17593 0.0
H865 H 0.69485 0.63131 0.16368 0.0
H866 H 0.69374 0.53526 0.07225 0.0
H867 H 0.69193 0.56167 0.11118 0.0
H868 H 0.76158 0.58194 0.13789 0.0
C869 C 0.75431 0.65459 0.19106 0.0
C870 C 0.70934 0.62024 0.15857 0.0
C871 C 0.75713 0.67368 0.20794 0.0
C872 C 0.70771 0.54748 0.07536 0.0
C873 C 0.70672 0.56249 0.09767 0.0
C874 C 0.74682 0.59254 0.14338 0.0
C875 C 0.73418 0.64094 0.1926 0.0
C876 C 0.73049 0.62225 0.17246 0.0
C877 C 0.7254 0.57737 0.10332 0.0
C878 C 0.7262 0.59149 0.12839 0.0
H879 H 0.70676 0.66947 0.24387 0.0
H880 H 0.70175 0.63594 0.21407 0.0
H881 H 0.76529 0.60854 0.17574 0.0
H882 H 0.76047 0.56368 0.05036 0.0
H883 H 0.75858 0.58982 0.08862 0.0
C884 C 0.32869 0.76591 0.19602 0.0
C885 C 0.3064 0.77568 0.19563 0.0
C886 C 0.34579 0.77354 0.17812 0.0
C887 C 0.36509 0.82194 0.13585 0.0
H888 H 0.40116 0.77411 0.10045 0.0
C889 C 0.43801 0.83799 0.05439 0.0
C890 C 0.45687 0.82266 0.05553 0.0
C891 C 0.41909 0.83513 0.0721 0.0
C892 C 0.39146 0.78773 0.11038 0.0
H893 H 0.28474 0.80148 0.1763 0.0
H894 H 0.31498 0.81499 0.14485 0.0
H895 H 0.36854 0.76332 0.12897 0.0
H896 H 0.47182 0.79381 0.07736 0.0
H897 H 0.43954 0.78938 0.10866 0.0
H898 H 0.38846 0.84634 0.11736 0.0
C899 C 0.31902 0.80136 0.15915 0.0
C900 C 0.37268 0.78151 0.12664 0.0
C901 C 0.30171 0.79353 0.17701 0.0
C902 C 0.45738 0.80572 0.07591 0.0
C903 C 0.43877 0.80305 0.09365 0.0
C904 C 0.38408 0.82821 0.11954 0.0
C905 C 0.34117 0.79123 0.15939 0.0
C906 C 0.35957 0.79846 0.14003 0.0
C907 C 0.41894 0.81698 0.0912 0.0
C908 C 0.3978 0.81108 0.10715 0.0
H909 H 0.33299 0.75219 0.21011 0.0
H910 H 0.36278 0.76561 0.17906 0.0
H911 H 0.35527 0.83536 0.14597 0.0
H912 H 0.43714 0.85105 0.03868 0.0
H913 H 0.40409 0.84619 0.06976 0.0
C914 C 0.20525 0.28159 0.1679 0.0
C915 C 0.22378 0.28126 0.1863 0.0
C916 C 0.20284 0.29998 0.14949 0.0
C917 C 0.23739 0.34262 0.11316 0.0
H918 H 0.18267 0.38138 0.10951 0.0
C919 C 0.24159 0.43173 0.06336 0.0
C920 C 0.22276 0.43969 0.04804 0.0
C921 C 0.23976 0.41162 0.07887 0.0
C922 C 0.19793 0.37051 0.10991 0.0
H923 H 0.25423 0.29999 0.19977 0.0
H924 H 0.25026 0.3315 0.16748 0.0
H925 H 0.1826 0.34687 0.13852 0.0
H926 H 0.18701 0.43292 0.0374 0.0
H927 H 0.18391 0.39732 0.06419 0.0
H928 H 0.25284 0.36579 0.08465 0.0
C929 C 0.23755 0.3177 0.16737 0.0
C930 C 0.19786 0.35079 0.12654 0.0
C931 C 0.23972 0.29967 0.18596 0.0
C932 C 0.20182 0.42725 0.04902 0.0
C933 C 0.20004 0.40688 0.06443 0.0
C934 C 0.23738 0.36205 0.09636 0.0
C935 C 0.2192 0.318 0.14887 0.0
C936 C 0.21783 0.33705 0.12881 0.0
C937 C 0.21912 0.39866 0.07928 0.0
C938 C 0.21792 0.37667 0.09509 0.0
H939 H 0.19266 0.26769 0.16774 0.0
H940 H 0.18855 0.29986 0.13536 0.0
H941 H 0.25289 0.33209 0.11425 0.0
H942 H 0.25789 0.44104 0.06337 0.0
H943 H 0.25461 0.40627 0.09063 0.0
C944 C 0.32975 0.23828 0.21887 0.0
C945 C 0.3088 0.22683 0.21341 0.0
C946 C 0.34968 0.23334 0.20373 0.0
C947 C 0.37655 0.18984 0.15881 0.0
H948 H 0.41011 0.24246 0.12973 0.0
C949 C 0.44405 0.18281 0.07149 0.0
C950 C 0.4621 0.19908 0.07087 0.0
C951 C 0.4269 0.18402 0.09164 0.0
C952 C 0.40131 0.22749 0.13807 0.0
H953 H 0.29255 0.20074 0.18828 0.0
H954 H 0.32731 0.19213 0.16202 0.0
H955 H 0.37752 0.24883 0.15999 0.0
H956 H 0.4776 0.22803 0.09188 0.0
H957 H 0.44855 0.22947 0.12755 0.0
H958 H 0.4004 0.16847 0.13683 0.0
C959 C 0.32833 0.20487 0.17801 0.0
C960 C 0.38253 0.2312 0.15539 0.0
C961 C 0.30837 0.20996 0.19294 0.0
C962 C 0.46367 0.21545 0.09171 0.0
C963 C 0.44687 0.21641 0.11201 0.0
C964 C 0.39554 0.18609 0.14163 0.0
C965 C 0.34913 0.21669 0.18303 0.0
C966 C 0.36984 0.21245 0.16581 0.0
C967 C 0.42775 0.20133 0.11167 0.0
C968 C 0.40811 0.2049 0.13093 0.0
H969 H 0.33068 0.25132 0.23454 0.0
H970 H 0.36553 0.24259 0.20819 0.0
H971 H 0.36717 0.17504 0.16671 0.0
H972 H 0.44239 0.17011 0.05552 0.0
H973 H 0.4124 0.17216 0.09063 0.0
C974 C 0.73647 0.34324 0.24349 0.0
C975 C 0.75201 0.32457 0.24252 0.0
C976 C 0.73993 0.36264 0.22683 0.0
C977 C 0.78334 0.39286 0.1835 0.0
H978 H 0.72983 0.41043 0.14116 0.0
C979 C 0.78959 0.44644 0.08379 0.0
C980 C 0.77096 0.46108 0.07757 0.0
C981 C 0.78865 0.43221 0.10685 0.0
C982 C 0.74492 0.40614 0.1531 0.0
H983 H 0.78407 0.31218 0.22459 0.0
H984 H 0.79007 0.34584 0.19586 0.0
H985 H 0.72551 0.38224 0.17733 0.0
H986 H 0.73764 0.47373 0.09154 0.0
H987 H 0.73639 0.44981 0.13191 0.0
H988 H 0.8028 0.41666 0.15901 0.0
C989 C 0.77523 0.3456 0.20933 0.0
C990 C 0.74239 0.38993 0.1739 0.0
C991 C 0.77165 0.3262 0.22568 0.0
C992 C 0.75208 0.46226 0.09554 0.0
C993 C 0.7513 0.44842 0.11864 0.0
C994 C 0.78585 0.40926 0.16277 0.0
C995 C 0.75915 0.36381 0.20922 0.0
C996 C 0.76159 0.38288 0.18915 0.0
C997 C 0.76919 0.43265 0.12421 0.0
C998 C 0.76669 0.41596 0.14712 0.0
H999 H 0.72119 0.34247 0.25627 0.0
H1000 H 0.72734 0.37653 0.22734 0.0
H1001 H 0.79845 0.38787 0.19504 0.0
H1002 H 0.80433 0.4452 0.07023 0.0
H1003 H 0.80272 0.42021 0.11042 0.0
C1004 C 0.68731 0.74992 0.1873 0.0
C1005 C 0.7068 0.76453 0.18686 0.0
C1006 C 0.6701 0.75207 0.1678 0.0
C1007 C 0.6421 0.7931 0.12389 0.0
H1008 H 0.62006 0.73898 0.08545 0.0
C1009 C 0.57026 0.80035 0.04404 0.0
C1010 C 0.55404 0.78228 0.04221 0.0
C1011 C 0.58996 0.79799 0.06003 0.0
C1012 C 0.62575 0.75422 0.09626 0.0
H1013 H 0.72353 0.7929 0.16569 0.0
H1014 H 0.69277 0.79716 0.13178 0.0
H1015 H 0.65282 0.73549 0.1162 0.0
H1016 H 0.54572 0.74755 0.05565 0.0
H1017 H 0.57969 0.74369 0.0846 0.0
H1018 H 0.61453 0.81171 0.10517 0.0
C1019 C 0.69114 0.78389 0.1472 0.0
C1020 C 0.64464 0.75223 0.11367 0.0
C1021 C 0.70869 0.78144 0.16649 0.0
C1022 C 0.55798 0.76172 0.05663 0.0
C1023 C 0.57755 0.75949 0.07306 0.0
C1024 C 0.62297 0.79504 0.10682 0.0
C1025 C 0.67177 0.76912 0.14766 0.0
C1026 C 0.6529 0.77163 0.12773 0.0
C1027 C 0.59379 0.77765 0.07502 0.0
C1028 C 0.61446 0.7756 0.09284 0.0
H1029 H 0.68543 0.73658 0.2026 0.0
H1030 H 0.65524 0.74063 0.16873 0.0
H1031 H 0.64796 0.80823 0.13482 0.0
H1032 H 0.56789 0.8163 0.03283 0.0
H1033 H 0.60227 0.81212 0.06042 0.0
C1034 C 0.28872 0.66467 0.22313 0.0
C1035 C 0.27073 0.68107 0.22263 0.0
C1036 C 0.28817 0.64543 0.20594 0.0
C1037 C 0.24917 0.60874 0.16617 0.0
H1038 H 0.30213 0.59842 0.11925 0.0
C1039 C 0.24243 0.55121 0.0718 0.0
C1040 C 0.26173 0.53821 0.06346 0.0
C1041 C 0.24423 0.56706 0.09298 0.0
C1042 C 0.28734 0.60069 0.1325 0.0
H1043 H 0.23773 0.68974 0.20442 0.0
H1044 H 0.23657 0.65595 0.17496 0.0
H1045 H 0.30394 0.62826 0.15402 0.0
H1046 H 0.29804 0.53143 0.07114 0.0
H1047 H 0.30106 0.5586 0.10872 0.0
H1048 H 0.23256 0.58114 0.14509 0.0
C1049 C 0.25114 0.65805 0.18847 0.0
C1050 C 0.28838 0.61787 0.15239 0.0
C1051 C 0.25188 0.67745 0.20525 0.0
C1052 C 0.28287 0.54128 0.07698 0.0
C1053 C 0.28462 0.55697 0.09845 0.0
C1054 C 0.24822 0.59136 0.14658 0.0
C1055 C 0.26942 0.64201 0.18834 0.0
C1056 C 0.26915 0.62234 0.16908 0.0
C1057 C 0.26532 0.57014 0.1067 0.0
C1058 C 0.26711 0.5874 0.12907 0.0
H1059 H 0.30352 0.66705 0.23622 0.0
H1060 H 0.30244 0.63326 0.20632 0.0
H1061 H 0.23419 0.61163 0.17901 0.0
H1062 H 0.22593 0.54944 0.06167 0.0
H1063 H 0.22911 0.5772 0.09822 0.0
C1064 C 0.29352 0.75181 0.82799 0.0
C1065 C 0.27732 0.76994 0.82746 0.0
C1066 C 0.3132 0.75322 0.8441 0.0
C1067 C 0.34003 0.78575 0.90079 0.0
H1068 H 0.39666 0.76053 0.87023 0.0
C1069 C 0.4309 0.80374 0.94462 0.0
C1070 C 0.44549 0.78448 0.9482 0.0
C1071 C 0.41008 0.80163 0.93059 0.0
C1072 C 0.38094 0.76744 0.87911 0.0
H1073 H 0.26871 0.80356 0.84392 0.0
H1074 H 0.30367 0.80647 0.8716 0.0
H1075 H 0.36075 0.75806 0.84479 0.0
H1076 H 0.44977 0.74796 0.93953 0.0
H1077 H 0.41346 0.74441 0.9144 0.0
H1078 H 0.36067 0.79574 0.93479 0.0
C1079 C 0.3009 0.7909 0.85992 0.0
C1080 C 0.36029 0.76598 0.86461 0.0
C1081 C 0.28089 0.78931 0.84402 0.0
C1082 C 0.43892 0.76311 0.93708 0.0
C1083 C 0.41819 0.76109 0.92268 0.0
C1084 C 0.36079 0.78747 0.91515 0.0
C1085 C 0.31749 0.77299 0.85981 0.0
C1086 C 0.3395 0.77497 0.87531 0.0
C1087 C 0.4035 0.78031 0.9195 0.0
C1088 C 0.38142 0.77825 0.90447 0.0
H1089 H 0.29104 0.73646 0.81577 0.0
H1090 H 0.32514 0.73877 0.84408 0.0
H1091 H 0.32437 0.79258 0.90985 0.0
H1092 H 0.43536 0.82045 0.95303 0.0
H1093 H 0.39921 0.81678 0.9282 0.0
C1094 C 0.28924 0.34101 0.76559 0.0
C1095 C 0.27328 0.3229 0.76949 0.0
C1096 C 0.28914 0.36026 0.7829 0.0
C1097 C 0.29395 0.39024 0.83411 0.0
H1098 H 0.23512 0.41146 0.8628 0.0
C1099 C 0.28602 0.44253 0.93386 0.0
C1100 C 0.26714 0.45761 0.93688 0.0
C1101 C 0.28823 0.42897 0.9105 0.0
C1102 C 0.25178 0.4062 0.85478 0.0
H1103 H 0.2444 0.31112 0.79429 0.0
H1104 H 0.2445 0.34399 0.82425 0.0
H1105 H 0.23566 0.38391 0.82612 0.0
H1106 H 0.23679 0.47172 0.91719 0.0
H1107 H 0.24118 0.44913 0.87616 0.0
H1108 H 0.31003 0.41302 0.86259 0.0
C1109 C 0.25688 0.34376 0.80772 0.0
C1110 C 0.25206 0.39004 0.8339 0.0
C1111 C 0.25695 0.32472 0.79056 0.0
C1112 C 0.25125 0.45983 0.91564 0.0
C1113 C 0.25373 0.44676 0.89214 0.0
C1114 C 0.29368 0.40671 0.8549 0.0
C1115 C 0.27301 0.36174 0.80429 0.0
C1116 C 0.2731 0.38135 0.82378 0.0
C1117 C 0.27184 0.43061 0.88951 0.0
C1118 C 0.27255 0.41458 0.86588 0.0
H1119 H 0.30208 0.34009 0.7496 0.0
H1120 H 0.30171 0.37391 0.77961 0.0
H1121 H 0.31047 0.38385 0.82687 0.0
H1122 H 0.29853 0.44054 0.94997 0.0
H1123 H 0.30229 0.41661 0.90941 0.0
C1124 C 0.68158 0.20587 0.80274 0.0
C1125 C 0.68207 0.22413 0.78387 0.0
C1126 C 0.66152 0.20106 0.81754 0.0
C1127 C 0.61153 0.2307 0.84526 0.0
H1128 H 0.59046 0.16895 0.8642 0.0
C1129 C 0.53762 0.21868 0.9213 0.0
C1130 C 0.54018 0.20119 0.94081 0.0
C1131 C 0.55191 0.21937 0.89852 0.0
C1132 C 0.59623 0.1863 0.85928 0.0
H1133 H 0.66162 0.25102 0.76487 0.0
H1134 H 0.62644 0.24278 0.79116 0.0
H1135 H 0.6208 0.17396 0.83 0.0
H1136 H 0.55901 0.17009 0.95136 0.0
H1137 H 0.58481 0.17169 0.91193 0.0
H1138 H 0.58801 0.24315 0.87523 0.0
C1139 C 0.64169 0.23222 0.7944 0.0
C1140 C 0.6135 0.18916 0.83958 0.0
C1141 C 0.66175 0.23687 0.77928 0.0
C1142 C 0.55668 0.18374 0.93655 0.0
C1143 C 0.57137 0.18465 0.9139 0.0
C1144 C 0.59448 0.22786 0.86509 0.0
C1145 C 0.64153 0.21453 0.81403 0.0
C1146 C 0.62149 0.2114 0.83259 0.0
C1147 C 0.56951 0.20284 0.89493 0.0
C1148 C 0.58672 0.20562 0.87257 0.0
H1149 H 0.69692 0.19561 0.8066 0.0
H1150 H 0.66202 0.18747 0.83267 0.0
H1151 H 0.61763 0.24802 0.84071 0.0
H1152 H 0.52472 0.23214 0.92385 0.0
H1153 H 0.54944 0.2332 0.884 0.0
C1154 C 0.77544 0.6865 0.81104 0.0
C1155 C 0.7565 0.68681 0.79325 0.0
C1156 C 0.77935 0.66753 0.828 0.0
C1157 C 0.76258 0.60589 0.83998 0.0
H1158 H 0.78373 0.61889 0.91275 0.0
C1159 C 0.75366 0.54154 0.92897 0.0
C1160 C 0.77203 0.53962 0.94744 0.0
C1161 C 0.75425 0.55805 0.90829 0.0
C1162 C 0.77816 0.61492 0.89238 0.0
H1163 H 0.72698 0.66718 0.77908 0.0
H1164 H 0.73335 0.63428 0.80926 0.0
H1165 H 0.77938 0.65048 0.88052 0.0
H1166 H 0.80573 0.5532 0.95824 0.0
H1167 H 0.80664 0.58241 0.92212 0.0
H1168 H 0.76057 0.57035 0.8524 0.0
C1169 C 0.74553 0.64852 0.80972 0.0
C1170 C 0.77567 0.63305 0.87381 0.0
C1171 C 0.74178 0.66745 0.79248 0.0
C1172 C 0.79134 0.55422 0.9443 0.0
C1173 C 0.79179 0.57102 0.92375 0.0
C1174 C 0.76485 0.58779 0.85866 0.0
C1175 C 0.76426 0.64841 0.82794 0.0
C1176 C 0.76769 0.62884 0.84737 0.0
C1177 C 0.77311 0.57326 0.9057 0.0
C1178 C 0.7725 0.59212 0.88515 0.0
H1179 H 0.7873 0.70101 0.81195 0.0
H1180 H 0.79425 0.66793 0.84121 0.0
H1181 H 0.75681 0.60185 0.81971 0.0
H1182 H 0.73855 0.5305 0.93074 0.0
H1183 H 0.73951 0.55944 0.89491 0.0
loop_
_geom_bond_atom_site_label_1
_geom_bond_atom_site_label_2
_geom_bond_distance
_geom_bond_site_symmetry_2
_ccdc_geom_bond_type
C0 O2 1.247 . S
C0 O4 1.258 . S
C1 O8 1.247 . S
C1 O9 1.258 . S
O2 C0 1.247 . S
O2 Zn3 2.028 . S
Zn3 O2 2.028 . S
Zn3 O7 2.035 . S
Zn3 O9 2.035 . S
Zn3 O10 2.028 . S
O4 C0 1.258 . S
O4 Zn5 2.035 . S
Zn5 O4 2.035 . S
Zn5 O6 2.028 . S
Zn5 O8 2.028 . S
Zn5 O11 2.035 . S
O6 Zn5 2.028 . S
O6 C12 1.247 . S
O7 Zn3 2.035 . S
O7 C12 1.258 . S
O8 C1 1.247 . S
O8 Zn5 2.028 . S
O9 C1 1.258 . S
O9 Zn3 2.035 . S
O10 Zn3 2.028 . S
O10 C13 1.247 . S
O11 Zn5 2.035 . S
O11 C13 1.258 . S
C12 O6 1.247 . S
C12 O7 1.258 . S
C13 O10 1.247 . S
C13 O11 1.258 . S
C14 O16 1.247 . S
C14 O18 1.258 . S
C15 O22 1.247 . S
C15 O23 1.258 . S
O16 C14 1.247 . S
O16 Zn17 2.028 . S
Zn17 O16 2.028 . S
Zn17 O21 2.035 . S
Zn17 O23 2.035 . S
Zn17 O24 2.028 . S
O18 C14 1.258 . S
O18 Zn19 2.035 . S
Zn19 O18 2.035 . S
Zn19 O20 2.028 . S
Zn19 O22 2.028 . S
Zn19 O25 2.035 . S
O20 Zn19 2.028 . S
O20 C26 1.247 . S
O21 Zn17 2.035 . S
O21 C26 1.258 . S
O22 C15 1.247 . S
O22 Zn19 2.028 . S
O23 C15 1.258 . S
O23 Zn17 2.035 . S
O24 Zn17 2.028 . S
O24 C27 1.247 . S
O25 Zn19 2.035 . S
O25 C27 1.258 . S
C26 O20 1.247 . S
C26 O21 1.258 . S
C27 O24 1.247 . S
C27 O25 1.258 . S
C28 O30 1.247 . S
C28 O32 1.258 . S
C29 O36 1.247 . S
C29 O37 1.258 . S
O30 C28 1.247 . S
O30 Zn31 2.028 . S
Zn31 O30 2.028 . S
Zn31 O35 2.035 . S
Zn31 O37 2.035 . S
Zn31 O38 2.028 . S
O32 C28 1.258 . S
O32 Zn33 2.035 . S
Zn33 O32 2.035 . S
Zn33 O34 2.028 . S
Zn33 O36 2.028 . S
Zn33 O39 2.035 . S
O34 Zn33 2.028 . S
O34 C40 1.247 . S
O35 Zn31 2.035 . S
O35 C40 1.258 . S
O36 C29 1.247 . S
O36 Zn33 2.028 . S
O37 C29 1.258 . S
O37 Zn31 2.035 . S
O38 Zn31 2.028 . S
O38 C41 1.247 . S
O39 Zn33 2.035 . S
O39 C41 1.258 . S
C40 O34 1.247 . S
C40 O35 1.258 . S
C41 O38 1.247 . S
C41 O39 1.258 . S
C42 O44 1.247 . S
C42 O46 1.258 . S
C43 O50 1.247 . S
C43 O51 1.258 . S
O44 C42 1.247 . S
O44 Zn45 2.028 . S
Zn45 O44 2.028 . S
Zn45 O49 2.035 . S
Zn45 O51 2.035 . S
Zn45 O52 2.028 . S
O46 C42 1.258 . S
O46 Zn47 2.035 . S
Zn47 O46 2.035 . S
Zn47 O48 2.028 . S
Zn47 O50 2.028 . S
Zn47 O53 2.035 . S
O48 Zn47 2.028 . S
O48 C54 1.247 . S
O49 Zn45 2.035 . S
O49 C54 1.258 . S
O50 C43 1.247 . S
O50 Zn47 2.028 . S
O51 C43 1.258 . S
O51 Zn45 2.035 . S
O52 Zn45 2.028 . S
O52 C55 1.247 . S
O53 Zn47 2.035 . S
O53 C55 1.258 . S
C54 O48 1.247 . S
C54 O49 1.258 . S
C55 O52 1.247 . S
C55 O53 1.258 . S
C56 O58 1.247 . S
C56 O60 1.258 . S
C57 O64 1.247 . S
C57 O65 1.258 . S
O58 C56 1.247 . S
O58 Zn59 2.028 . S
Zn59 O58 2.028 . S
Zn59 O63 2.035 . S
Zn59 O65 2.035 . S
Zn59 O66 2.028 . S
O60 C56 1.258 . S
O60 Zn61 2.035 . S
Zn61 O60 2.035 . S
Zn61 O62 2.028 . S
Zn61 O64 2.028 . S
Zn61 O67 2.035 . S
O62 Zn61 2.028 . S
O62 C68 1.247 . S
O63 Zn59 2.035 . S
O63 C68 1.258 . S
O64 C57 1.247 . S
O64 Zn61 2.028 . S
O65 C57 1.258 . S
O65 Zn59 2.035 . S
O66 Zn59 2.028 . S
O66 C69 1.247 . S
O67 Zn61 2.035 . S
O67 C69 1.258 . S
C68 O62 1.247 . S
C68 O63 1.258 . S
C69 O66 1.247 . S
C69 O67 1.258 . S
C70 O72 1.247 . S
C70 O74 1.258 . S
C71 O78 1.247 . S
C71 O79 1.258 . S
O72 C70 1.247 . S
O72 Zn73 2.028 . S
Zn73 O72 2.028 . S
Zn73 O77 2.035 . S
Zn73 O79 2.035 . S
Zn73 O80 2.028 . S
O74 C70 1.258 . S
O74 Zn75 2.035 . S
Zn75 O74 2.035 . S
Zn75 O76 2.028 . S
Zn75 O78 2.028 . S
Zn75 O81 2.035 . S
O76 Zn75 2.028 . S
O76 C82 1.247 . S
O77 Zn73 2.035 . S
O77 C82 1.258 . S
O78 C71 1.247 . S
O78 Zn75 2.028 . S
O79 C71 1.258 . S
O79 Zn73 2.035 . S
O80 Zn73 2.028 . S
O80 C83 1.247 . S
O81 Zn75 2.035 . S
O81 C83 1.258 . S
C82 O76 1.247 . S
C82 O77 1.258 . S
C83 O80 1.247 . S
C83 O81 1.258 . S
C84 O86 1.247 . S
C84 O88 1.258 . S
C85 O92 1.247 . S
C85 O93 1.258 . S
O86 C84 1.247 . S
O86 Zn87 2.028 . S
Zn87 O86 2.028 . S
Zn87 O91 2.035 . S
Zn87 O93 2.035 . S
Zn87 O94 2.028 . S
O88 C84 1.258 . S
O88 Zn89 2.035 . S
Zn89 O88 2.035 . S
Zn89 O90 2.028 . S
Zn89 O92 2.028 . S
Zn89 O95 2.035 . S
O90 Zn89 2.028 . S
O90 C96 1.247 . S
O91 Zn87 2.035 . S
O91 C96 1.258 . S
O92 C85 1.247 . S
O92 Zn89 2.028 . S
O93 C85 1.258 . S
O93 Zn87 2.035 . S
O94 Zn87 2.028 . S
O94 C97 1.247 . S
O95 Zn89 2.035 . S
O95 C97 1.258 . S
C96 O90 1.247 . S
C96 O91 1.258 . S
C97 O94 1.247 . S
C97 O95 1.258 . S
C98 O100 1.247 . S
C98 O102 1.258 . S
C99 O106 1.247 . S
C99 O107 1.258 . S
O100 C98 1.247 . S
O100 Zn101 2.028 . S
Zn101 O100 2.028 . S
Zn101 O105 2.035 . S
Zn101 O107 2.035 . S
Zn101 O108 2.028 . S
O102 C98 1.258 . S
O102 Zn103 2.035 . S
Zn103 O102 2.035 . S
Zn103 O104 2.028 . S
Zn103 O106 2.028 . S
Zn103 O109 2.035 . S
O104 Zn103 2.028 . S
O104 C110 1.247 . S
O105 Zn101 2.035 . S
O105 C110 1.258 . S
O106 C99 1.247 . S
O106 Zn103 2.028 . S
O107 C99 1.258 . S
O107 Zn101 2.035 . S
O108 Zn101 2.028 . S
O108 C111 1.247 . S
O109 Zn103 2.035 . S
O109 C111 1.258 . S
C110 O104 1.247 . S
C110 O105 1.258 . S
C111 O108 1.247 . S
C111 O109 1.258 . S
C112 O114 1.247 . S
C112 O116 1.258 . S
C113 O120 1.247 . S
C113 O121 1.258 . S
O114 C112 1.247 . S
O114 Zn115 2.027 . S
Zn115 O114 2.027 . S
Zn115 O119 2.036 1_655 S
Zn115 O121 2.036 1_655 S
Zn115 O122 2.027 . S
O116 C112 1.258 . S
O116 Zn117 2.028 1_655 S
Zn117 O116 2.028 1_455 S
Zn117 O118 2.035 . S
Zn117 O120 2.035 . S
Zn117 O123 2.028 1_455 S
O118 Zn117 2.035 . S
O118 C124 1.247 . S
O119 Zn115 2.036 1_455 S
O119 C124 1.258 . S
O120 C113 1.247 . S
O120 Zn117 2.035 . S
O121 C113 1.258 . S
O121 Zn115 2.036 1_455 S
O122 Zn115 2.027 . S
O122 C125 1.247 . S
O123 Zn117 2.028 1_655 S
O123 C125 1.258 . S
C124 O118 1.247 . S
C124 O119 1.258 . S
C125 O122 1.247 . S
C125 O123 1.258 . S
C126 O128 1.247 . S
C126 O130 1.258 . S
C127 O134 1.247 . S
C127 O135 1.258 . S
O128 C126 1.247 . S
O128 Zn129 2.035 . S
Zn129 O128 2.035 . S
Zn129 O133 2.028 1_545 S
Zn129 O135 2.028 1_545 S
Zn129 O136 2.035 . S
O130 C126 1.258 . S
O130 Zn131 2.036 1_545 S
Zn131 O130 2.036 1_565 S
Zn131 O132 2.027 . S
Zn131 O134 2.027 . S
Zn131 O137 2.036 1_565 S
O132 Zn131 2.027 . S
O132 C138 1.247 . S
O133 Zn129 2.028 1_565 S
O133 C138 1.258 . S
O134 C127 1.247 . S
O134 Zn131 2.027 . S
O135 C127 1.258 . S
O135 Zn129 2.028 1_565 S
O136 Zn129 2.035 . S
O136 C139 1.247 . S
O137 Zn131 2.036 1_545 S
O137 C139 1.258 . S
C138 O132 1.247 . S
C138 O133 1.258 . S
C139 O136 1.247 . S
C139 O137 1.258 . S
C140 O142 1.247 . S
C140 O144 1.258 . S
C141 O148 1.247 . S
C141 O149 1.258 . S
O142 C140 1.247 . S
O142 Zn143 2.027 . S
Zn143 O142 2.027 . S
Zn143 O147 2.036 1_655 S
Zn143 O149 2.036 1_655 S
Zn143 O150 2.027 . S
O144 C140 1.258 . S
O144 Zn145 2.028 1_655 S
Zn145 O144 2.028 1_455 S
Zn145 O146 2.035 . S
Zn145 O148 2.035 . S
Zn145 O151 2.028 1_455 S
O146 Zn145 2.035 . S
O146 C152 1.247 . S
O147 Zn143 2.036 1_455 S
O147 C152 1.258 . S
O148 C141 1.247 . S
O148 Zn145 2.035 . S
O149 C141 1.258 . S
O149 Zn143 2.036 1_455 S
O150 Zn143 2.027 . S
O150 C153 1.247 . S
O151 Zn145 2.028 1_655 S
O151 C153 1.258 . S
C152 O146 1.247 . S
C152 O147 1.258 . S
C153 O150 1.247 . S
C153 O151 1.258 . S
C154 O156 1.247 . S
C154 O158 1.258 . S
C155 O162 1.247 . S
C155 O163 1.258 . S
O156 C154 1.247 . S
O156 Zn157 2.035 . S
Zn157 O156 2.035 . S
Zn157 O161 2.028 1_545 S
Zn157 O163 2.028 1_545 S
Zn157 O164 2.035 . S
O158 C154 1.258 . S
O158 Zn159 2.036 1_545 S
Zn159 O158 2.036 1_565 S
Zn159 O160 2.027 . S
Zn159 O162 2.027 . S
Zn159 O165 2.036 1_565 S
O160 Zn159 2.027 . S
O160 C166 1.247 . S
O161 Zn157 2.028 1_565 S
O161 C166 1.258 . S
O162 C155 1.247 . S
O162 Zn159 2.027 . S
O163 C155 1.258 . S
O163 Zn157 2.028 1_565 S
O164 Zn157 2.035 . S
O164 C167 1.247 . S
O165 Zn159 2.036 1_545 S
O165 C167 1.258 . S
C166 O160 1.247 . S
C166 O161 1.258 . S
C167 O164 1.247 . S
C167 O165 1.258 . S
C168 O170 1.247 . S
C168 O172 1.258 . S
C169 O176 1.247 . S
C169 O177 1.258 . S
O170 C168 1.247 . S
O170 Zn171 2.028 . S
Zn171 O170 2.028 . S
Zn171 O175 2.035 . S
Zn171 O177 2.035 1_554 S
Zn171 O178 2.028 1_554 S
O172 C168 1.258 . S
O172 Zn173 2.035 . S
Zn173 O172 2.035 . S
Zn173 O174 2.028 . S
Zn173 O176 2.028 1_554 S
Zn173 O179 2.035 1_554 S
O174 Zn173 2.028 . S
O174 C180 1.247 . S
O175 Zn171 2.035 . S
O175 C180 1.258 . S
O176 C169 1.247 . S
O176 Zn173 2.028 1_556 S
O177 C169 1.258 . S
O177 Zn171 2.035 1_556 S
O178 Zn171 2.028 1_556 S
O178 C181 1.247 . S
O179 Zn173 2.035 1_556 S
O179 C181 1.258 . S
C180 O174 1.247 . S
C180 O175 1.258 . S
C181 O178 1.247 . S
C181 O179 1.258 . S
C182 O184 1.247 . S
C182 O186 1.258 . S
C183 O190 1.247 . S
C183 O191 1.258 . S
O184 C182 1.247 . S
O184 Zn185 2.028 . S
Zn185 O184 2.028 . S
Zn185 O189 2.035 . S
Zn185 O191 2.035 1_554 S
Zn185 O192 2.028 1_554 S
O186 C182 1.258 . S
O186 Zn187 2.035 . S
Zn187 O186 2.035 . S
Zn187 O188 2.028 . S
Zn187 O190 2.028 1_554 S
Zn187 O193 2.035 1_554 S
O188 Zn187 2.028 . S
O188 C194 1.247 . S
O189 Zn185 2.035 . S
O189 C194 1.258 . S
O190 C183 1.247 . S
O190 Zn187 2.028 1_556 S
O191 C183 1.258 . S
O191 Zn185 2.035 1_556 S
O192 Zn185 2.028 1_556 S
O192 C195 1.247 . S
O193 Zn187 2.035 1_556 S
O193 C195 1.258 . S
C194 O188 1.247 . S
C194 O189 1.258 . S
C195 O192 1.247 . S
C195 O193 1.258 . S
C196 O198 1.247 . S
C196 O200 1.258 . S
C197 O204 1.247 . S
C197 O205 1.258 . S
O198 C196 1.247 . S
O198 Zn199 2.028 1_556 S
Zn199 O198 2.028 1_554 S
Zn199 O203 2.035 1_554 S
Zn199 O205 2.035 . S
Zn199 O206 2.028 . S
O200 C196 1.258 . S
O200 Zn201 2.035 1_556 S
Zn201 O200 2.035 1_554 S
Zn201 O202 2.028 1_554 S
Zn201 O204 2.028 . S
Zn201 O207 2.035 . S
O202 Zn201 2.028 1_556 S
O202 C208 1.247 . S
O203 Zn199 2.035 1_556 S
O203 C208 1.258 . S
O204 C197 1.247 . S
O204 Zn201 2.028 . S
O205 C197 1.258 . S
O205 Zn199 2.035 . S
O206 Zn199 2.028 . S
O206 C209 1.247 . S
O207 Zn201 2.035 . S
O207 C209 1.258 . S
C208 O202 1.247 . S
C208 O203 1.258 . S
C209 O206 1.247 . S
C209 O207 1.258 . S
C210 O212 1.247 . S
C210 O214 1.258 . S
C211 O218 1.247 . S
C211 O219 1.258 . S
O212 C210 1.247 . S
O212 Zn213 2.028 . S
Zn213 O212 2.028 . S
Zn213 O217 2.035 . S
Zn213 O219 2.035 1_554 S
Zn213 O220 2.028 1_554 S
O214 C210 1.258 . S
O214 Zn215 2.035 . S
Zn215 O214 2.035 . S
Zn215 O216 2.028 . S
Zn215 O218 2.028 1_554 S
Zn215 O221 2.035 1_554 S
O216 Zn215 2.028 . S
O216 C222 1.247 . S
O217 Zn213 2.035 . S
O217 C222 1.258 . S
O218 C211 1.247 . S
O218 Zn215 2.028 1_556 S
O219 C211 1.258 . S
O219 Zn213 2.035 1_556 S
O220 Zn213 2.028 1_556 S
O220 C223 1.247 . S
O221 Zn215 2.035 1_556 S
O221 C223 1.258 . S
C222 O216 1.247 . S
C222 O217 1.258 . S
C223 O220 1.247 . S
C223 O221 1.258 . S
C224 C225 1.349 . S
C224 C226 1.327 . S
C224 H249 0.950 . S
C225 C224 1.349 . S
C225 C241 1.349 . S
C226 C224 1.327 . S
C226 C245 1.429 . S
C226 H250 0.950 . S
C227 C244 1.574 . S
C227 C246 1.368 . S
C227 H251 0.949 . S
H228 C232 0.949 . S
C229 C230 1.349 . S
C229 C231 1.327 . S
C229 H252 0.950 . S
C230 C229 1.349 . S
C230 C242 1.349 . S
C231 C229 1.327 . S
C231 C247 1.429 . S
C231 H253 0.950 . S
C232 H228 0.949 . S
C232 C240 1.574 . S
C232 C248 1.368 . S
H233 C241 0.950 . S
H234 C239 0.950 . S
H235 C240 0.949 . S
H236 C242 0.950 . S
H237 C243 0.950 . S
H238 C244 0.949 . S
C239 H234 0.950 . S
C239 C241 1.327 . S
C239 C245 1.429 . S
C240 C232 1.574 . S
C240 H235 0.949 . S
C240 C246 1.368 . S
C241 C225 1.349 . S
C241 H233 0.950 . S
C241 C239 1.327 . S
C242 C230 1.349 . S
C242 H236 0.950 . S
C242 C243 1.327 . S
C243 H237 0.950 . S
C243 C242 1.327 . S
C243 C247 1.429 . S
C244 C227 1.574 . S
C244 H238 0.949 . S
C244 C248 1.368 . S
C245 C226 1.429 . S
C245 C239 1.429 . S
C245 C246 1.523 . S
C246 C227 1.368 . S
C246 C240 1.368 . S
C246 C245 1.523 . S
C247 C231 1.429 . S
C247 C243 1.429 . S
C247 C248 1.523 . S
C248 C232 1.368 . S
C248 C244 1.368 . S
C248 C247 1.523 . S
H249 C224 0.950 . S
H250 C226 0.950 . S
H251 C227 0.949 . S
H252 C229 0.950 . S
H253 C231 0.950 . S
C254 C255 1.349 . S
C254 C256 1.327 . S
C254 H279 0.950 . S
C255 C254 1.349 . S
C255 C271 1.349 . S
C256 C254 1.327 . S
C256 C275 1.429 . S
C256 H280 0.950 . S
C257 C274 1.574 . S
C257 C276 1.368 . S
C257 H281 0.949 . S
H258 C262 0.949 . S
C259 C260 1.349 . S
C259 C261 1.327 . S
C259 H282 0.950 . S
C260 C259 1.349 . S
C260 C272 1.349 . S
C261 C259 1.327 . S
C261 C277 1.429 . S
C261 H283 0.950 . S
C262 H258 0.949 . S
C262 C270 1.574 . S
C262 C278 1.368 . S
H263 C271 0.950 . S
H264 C269 0.950 . S
H265 C270 0.949 . S
H266 C272 0.950 . S
H267 C273 0.950 . S
H268 C274 0.949 . S
C269 H264 0.950 . S
C269 C271 1.327 . S
C269 C275 1.429 . S
C270 C262 1.574 . S
C270 H265 0.949 . S
C270 C276 1.368 . S
C271 C255 1.349 . S
C271 H263 0.950 . S
C271 C269 1.327 . S
C272 C260 1.349 . S
C272 H266 0.950 . S
C272 C273 1.327 . S
C273 H267 0.950 . S
C273 C272 1.327 . S
C273 C277 1.429 . S
C274 C257 1.574 . S
C274 H268 0.949 . S
C274 C278 1.368 . S
C275 C256 1.429 . S
C275 C269 1.429 . S
C275 C276 1.523 . S
C276 C257 1.368 . S
C276 C270 1.368 . S
C276 C275 1.523 . S
C277 C261 1.429 . S
C277 C273 1.429 . S
C277 C278 1.523 . S
C278 C262 1.368 . S
C278 C274 1.368 . S
C278 C277 1.523 . S
H279 C254 0.950 . S
H280 C256 0.950 . S
H281 C257 0.949 . S
H282 C259 0.950 . S
H283 C261 0.950 . S
C284 C285 1.349 . S
C284 C286 1.327 . S
C284 H309 0.950 . S
C285 C284 1.349 . S
C285 C301 1.349 . S
C286 C284 1.327 . S
C286 C305 1.429 . S
C286 H310 0.950 . S
C287 C304 1.574 . S
C287 C306 1.368 . S
C287 H311 0.949 . S
H288 C292 0.949 . S
C289 C290 1.349 . S
C289 C291 1.327 . S
C289 H312 0.950 . S
C290 C289 1.349 . S
C290 C302 1.349 . S
C291 C289 1.327 . S
C291 C307 1.429 . S
C291 H313 0.950 . S
C292 H288 0.949 . S
C292 C300 1.574 . S
C292 C308 1.368 . S
H293 C301 0.950 . S
H294 C299 0.950 . S
H295 C300 0.949 . S
H296 C302 0.950 . S
H297 C303 0.950 . S
H298 C304 0.949 . S
C299 H294 0.950 . S
C299 C301 1.327 . S
C299 C305 1.429 . S
C300 C292 1.574 . S
C300 H295 0.949 . S
C300 C306 1.368 . S
C301 C285 1.349 . S
C301 H293 0.950 . S
C301 C299 1.327 . S
C302 C290 1.349 . S
C302 H296 0.950 . S
C302 C303 1.327 . S
C303 H297 0.950 . S
C303 C302 1.327 . S
C303 C307 1.429 . S
C304 C287 1.574 . S
C304 H298 0.949 . S
C304 C308 1.368 . S
C305 C286 1.429 . S
C305 C299 1.429 . S
C305 C306 1.523 . S
C306 C287 1.368 . S
C306 C300 1.368 . S
C306 C305 1.523 . S
C307 C291 1.429 . S
C307 C303 1.429 . S
C307 C308 1.523 . S
C308 C292 1.368 . S
C308 C304 1.368 . S
C308 C307 1.523 . S
H309 C284 0.950 . S
H310 C286 0.950 . S
H311 C287 0.949 . S
H312 C289 0.950 . S
H313 C291 0.950 . S
C314 C315 1.349 . S
C314 C316 1.327 . S
C314 H339 0.950 . S
C315 C314 1.349 . S
C315 C331 1.349 . S
C316 C314 1.327 . S
C316 C335 1.429 . S
C316 H340 0.950 . S
C317 C334 1.574 . S
C317 C336 1.368 . S
C317 H341 0.949 . S
H318 C322 0.949 . S
C319 C320 1.349 . S
C319 C321 1.327 . S
C319 H342 0.950 . S
C320 C319 1.349 . S
C320 C332 1.349 . S
C321 C319 1.327 . S
C321 C337 1.429 . S
C321 H343 0.950 . S
C322 H318 0.949 . S
C322 C330 1.574 . S
C322 C338 1.368 . S
H323 C331 0.950 . S
H324 C329 0.950 . S
H325 C330 0.949 . S
H326 C332 0.950 . S
H327 C333 0.950 . S
H328 C334 0.949 . S
C329 H324 0.950 . S
C329 C331 1.327 . S
C329 C335 1.429 . S
C330 C322 1.574 . S
C330 H325 0.949 . S
C330 C336 1.368 . S
C331 C315 1.349 . S
C331 H323 0.950 . S
C331 C329 1.327 . S
C332 C320 1.349 . S
C332 H326 0.950 . S
C332 C333 1.327 . S
C333 H327 0.950 . S
C333 C332 1.327 . S
C333 C337 1.429 . S
C334 C317 1.574 . S
C334 H328 0.949 . S
C334 C338 1.368 . S
C335 C316 1.429 . S
C335 C329 1.429 . S
C335 C336 1.523 . S
C336 C317 1.368 . S
C336 C330 1.368 . S
C336 C335 1.523 . S
C337 C321 1.429 . S
C337 C333 1.429 . S
C337 C338 1.523 . S
C338 C322 1.368 . S
C338 C334 1.368 . S
C338 C337 1.523 . S
H339 C314 0.950 . S
H340 C316 0.950 . S
H341 C317 0.949 . S
H342 C319 0.950 . S
H343 C321 0.950 . S
C344 C345 1.349 . S
C344 C346 1.327 . S
C344 H369 0.950 . S
C345 C344 1.349 . S
C345 C361 1.349 . S
C346 C344 1.327 . S
C346 C365 1.429 . S
C346 H370 0.950 . S
C347 C364 1.574 . S
C347 C366 1.368 . S
C347 H371 0.949 . S
H348 C352 0.949 . S
C349 C350 1.349 . S
C349 C351 1.327 . S
C349 H372 0.950 . S
C350 C349 1.349 . S
C350 C362 1.349 . S
C351 C349 1.327 . S
C351 C367 1.429 . S
C351 H373 0.950 . S
C352 H348 0.949 . S
C352 C360 1.574 . S
C352 C368 1.368 . S
H353 C361 0.950 . S
H354 C359 0.950 . S
H355 C360 0.949 . S
H356 C362 0.950 . S
H357 C363 0.950 . S
H358 C364 0.949 . S
C359 H354 0.950 . S
C359 C361 1.327 . S
C359 C365 1.429 . S
C360 C352 1.574 . S
C360 H355 0.949 . S
C360 C366 1.368 . S
C361 C345 1.349 . S
C361 H353 0.950 . S
C361 C359 1.327 . S
C362 C350 1.349 . S
C362 H356 0.950 . S
C362 C363 1.327 . S
C363 H357 0.950 . S
C363 C362 1.327 . S
C363 C367 1.429 . S
C364 C347 1.574 . S
C364 H358 0.949 . S
C364 C368 1.368 . S
C365 C346 1.429 . S
C365 C359 1.429 . S
C365 C366 1.523 . S
C366 C347 1.368 . S
C366 C360 1.368 . S
C366 C365 1.523 . S
C367 C351 1.429 . S
C367 C363 1.429 . S
C367 C368 1.523 . S
C368 C352 1.368 . S
C368 C364 1.368 . S
C368 C367 1.523 . S
H369 C344 0.950 . S
H370 C346 0.950 . S
H371 C347 0.949 . S
H372 C349 0.950 . S
H373 C351 0.950 . S
C374 C375 1.349 . S
C374 C376 1.327 . S
C374 H399 0.950 . S
C375 C374 1.349 . S
C375 C391 1.349 . S
C376 C374 1.327 . S
C376 C395 1.429 . S
C376 H400 0.950 . S
C377 C394 1.574 . S
C377 C396 1.368 . S
C377 H401 0.949 . S
H378 C382 0.949 . S
C379 C380 1.349 . S
C379 C381 1.327 . S
C379 H402 0.950 . S
C380 C379 1.349 . S
C380 C392 1.349 . S
C381 C379 1.327 . S
C381 C397 1.429 . S
C381 H403 0.950 . S
C382 H378 0.949 . S
C382 C390 1.574 . S
C382 C398 1.368 . S
H383 C391 0.950 . S
H384 C389 0.950 . S
H385 C390 0.949 . S
H386 C392 0.950 . S
H387 C393 0.950 . S
H388 C394 0.949 . S
C389 H384 0.950 . S
C389 C391 1.327 . S
C389 C395 1.429 . S
C390 C382 1.574 . S
C390 H385 0.949 . S
C390 C396 1.368 . S
C391 C375 1.349 . S
C391 H383 0.950 . S
C391 C389 1.327 . S
C392 C380 1.349 . S
C392 H386 0.950 . S
C392 C393 1.327 . S
C393 H387 0.950 . S
C393 C392 1.327 . S
C393 C397 1.429 . S
C394 C377 1.574 . S
C394 H388 0.949 . S
C394 C398 1.368 . S
C395 C376 1.429 . S
C395 C389 1.429 . S
C395 C396 1.523 . S
C396 C377 1.368 . S
C396 C390 1.368 . S
C396 C395 1.523 . S
C397 C381 1.429 . S
C397 C393 1.429 . S
C397 C398 1.523 . S
C398 C382 1.368 . S
C398 C394 1.368 . S
C398 C397 1.523 . S
H399 C374 0.950 . S
H400 C376 0.950 . S
H401 C377 0.949 . S
H402 C379 0.950 . S
H403 C381 0.950 . S
C404 C405 1.349 . S
C404 C406 1.327 . S
C404 H429 0.950 . S
C405 C404 1.349 . S
C405 C421 1.349 . S
C406 C404 1.327 . S
C406 C425 1.429 . S
C406 H430 0.950 . S
C407 C424 1.574 . S
C407 C426 1.368 . S
C407 H431 0.949 . S
H408 C412 0.949 . S
C409 C410 1.349 . S
C409 C411 1.327 . S
C409 H432 0.950 . S
C410 C409 1.349 . S
C410 C422 1.349 . S
C411 C409 1.327 . S
C411 C427 1.429 . S
C411 H433 0.950 . S
C412 H408 0.949 . S
C412 C420 1.574 . S
C412 C428 1.368 . S
H413 C421 0.950 . S
H414 C419 0.950 . S
H415 C420 0.949 . S
H416 C422 0.950 . S
H417 C423 0.950 . S
H418 C424 0.949 . S
C419 H414 0.950 . S
C419 C421 1.327 . S
C419 C425 1.429 . S
C420 C412 1.574 . S
C420 H415 0.949 . S
C420 C426 1.368 . S
C421 C405 1.349 . S
C421 H413 0.950 . S
C421 C419 1.327 . S
C422 C410 1.349 . S
C422 H416 0.950 . S
C422 C423 1.327 . S
C423 H417 0.950 . S
C423 C422 1.327 . S
C423 C427 1.429 . S
C424 C407 1.574 . S
C424 H418 0.949 . S
C424 C428 1.368 . S
C425 C406 1.429 . S
C425 C419 1.429 . S
C425 C426 1.523 . S
C426 C407 1.368 . S
C426 C420 1.368 . S
C426 C425 1.523 . S
C427 C411 1.429 . S
C427 C423 1.429 . S
C427 C428 1.523 . S
C428 C412 1.368 . S
C428 C424 1.368 . S
C428 C427 1.523 . S
H429 C404 0.950 . S
H430 C406 0.950 . S
H431 C407 0.949 . S
H432 C409 0.950 . S
H433 C411 0.950 . S
C434 C435 1.349 . S
C434 C436 1.327 . S
C434 H459 0.950 . S
C435 C434 1.349 . S
C435 C451 1.349 . S
C436 C434 1.327 . S
C436 C455 1.429 . S
C436 H460 0.950 . S
C437 C454 1.574 . S
C437 C456 1.368 . S
C437 H461 0.949 . S
H438 C442 0.949 . S
C439 C440 1.349 . S
C439 C441 1.327 . S
C439 H462 0.950 . S
C440 C439 1.349 . S
C440 C452 1.349 . S
C441 C439 1.327 . S
C441 C457 1.429 . S
C441 H463 0.950 . S
C442 H438 0.949 . S
C442 C450 1.574 . S
C442 C458 1.368 . S
H443 C451 0.950 . S
H444 C449 0.950 . S
H445 C450 0.949 . S
H446 C452 0.950 . S
H447 C453 0.950 . S
H448 C454 0.949 . S
C449 H444 0.950 . S
C449 C451 1.327 . S
C449 C455 1.429 . S
C450 C442 1.574 . S
C450 H445 0.949 . S
C450 C456 1.368 . S
C451 C435 1.349 . S
C451 H443 0.950 . S
C451 C449 1.327 . S
C452 C440 1.349 . S
C452 H446 0.950 . S
C452 C453 1.327 . S
C453 H447 0.950 . S
C453 C452 1.327 . S
C453 C457 1.429 . S
C454 C437 1.574 . S
C454 H448 0.949 . S
C454 C458 1.368 . S
C455 C436 1.429 . S
C455 C449 1.429 . S
C455 C456 1.523 . S
C456 C437 1.368 . S
C456 C450 1.368 . S
C456 C455 1.523 . S
C457 C441 1.429 . S
C457 C453 1.429 . S
C457 C458 1.523 . S
C458 C442 1.368 . S
C458 C454 1.368 . S
C458 C457 1.523 . S
H459 C434 0.950 . S
H460 C436 0.950 . S
H461 C437 0.949 . S
H462 C439 0.950 . S
H463 C441 0.950 . S
C464 C465 1.349 . S
C464 C466 1.327 . S
C464 H489 0.950 . S
C465 C464 1.349 . S
C465 C481 1.349 . S
C466 C464 1.327 . S
C466 C485 1.429 . S
C466 H490 0.950 . S
C467 C484 1.574 . S
C467 C486 1.368 . S
C467 H491 0.949 . S
H468 C472 0.949 . S
C469 C470 1.349 . S
C469 C471 1.327 . S
C469 H492 0.950 . S
C470 C469 1.349 . S
C470 C482 1.349 . S
C471 C469 1.327 . S
C471 C487 1.429 . S
C471 H493 0.950 . S
C472 H468 0.949 . S
C472 C480 1.574 . S
C472 C488 1.368 . S
H473 C481 0.950 . S
H474 C479 0.950 . S
H475 C480 0.949 . S
H476 C482 0.950 . S
H477 C483 0.950 . S
H478 C484 0.949 . S
C479 H474 0.950 . S
C479 C481 1.327 . S
C479 C485 1.429 . S
C480 C472 1.574 . S
C480 H475 0.949 . S
C480 C486 1.368 . S
C481 C465 1.349 . S
C481 H473 0.950 . S
C481 C479 1.327 . S
C482 C470 1.349 . S
C482 H476 0.950 . S
C482 C483 1.327 . S
C483 H477 0.950 . S
C483 C482 1.327 . S
C483 C487 1.429 . S
C484 C467 1.574 . S
C484 H478 0.949 . S
C484 C488 1.368 . S
C485 C466 1.429 . S
C485 C479 1.429 . S
C485 C486 1.523 . S
C486 C467 1.368 . S
C486 C480 1.368 . S
C486 C485 1.523 . S
C487 C471 1.429 . S
C487 C483 1.429 . S
C487 C488 1.523 . S
C488 C472 1.368 . S
C488 C484 1.368 . S
C488 C487 1.523 . S
H489 C464 0.950 . S
H490 C466 0.950 . S
H491 C467 0.949 . S
H492 C469 0.950 . S
H493 C471 0.950 . S
C494 C495 1.349 . S
C494 C496 1.327 . S
C494 H519 0.950 . S
C495 C494 1.349 . S
C495 C511 1.349 . S
C496 C494 1.327 . S
C496 C515 1.429 . S
C496 H520 0.950 . S
C497 C514 1.574 . S
C497 C516 1.368 . S
C497 H521 0.949 . S
H498 C502 0.949 . S
C499 C500 1.349 . S
C499 C501 1.327 . S
C499 H522 0.950 . S
C500 C499 1.349 . S
C500 C512 1.349 . S
C501 C499 1.327 . S
C501 C517 1.429 . S
C501 H523 0.950 . S
C502 H498 0.949 . S
C502 C510 1.574 . S
C502 C518 1.368 . S
H503 C511 0.950 . S
H504 C509 0.950 . S
H505 C510 0.949 . S
H506 C512 0.950 . S
H507 C513 0.950 . S
H508 C514 0.949 . S
C509 H504 0.950 . S
C509 C511 1.327 . S
C509 C515 1.429 . S
C510 C502 1.574 . S
C510 H505 0.949 . S
C510 C516 1.368 . S
C511 C495 1.349 . S
C511 H503 0.950 . S
C511 C509 1.327 . S
C512 C500 1.349 . S
C512 H506 0.950 . S
C512 C513 1.327 . S
C513 H507 0.950 . S
C513 C512 1.327 . S
C513 C517 1.429 . S
C514 C497 1.574 . S
C514 H508 0.949 . S
C514 C518 1.368 . S
C515 C496 1.429 . S
C515 C509 1.429 . S
C515 C516 1.523 . S
C516 C497 1.368 . S
C516 C510 1.368 . S
C516 C515 1.523 . S
C517 C501 1.429 . S
C517 C513 1.429 . S
C517 C518 1.523 . S
C518 C502 1.368 . S
C518 C514 1.368 . S
C518 C517 1.523 . S
H519 C494 0.950 . S
H520 C496 0.950 . S
H521 C497 0.949 . S
H522 C499 0.950 . S
H523 C501 0.950 . S
C524 C525 1.349 . S
C524 C526 1.327 . S
C524 H549 0.950 . S
C525 C524 1.349 . S
C525 C541 1.349 . S
C526 C524 1.327 . S
C526 C545 1.429 . S
C526 H550 0.950 . S
C527 C544 1.574 . S
C527 C546 1.368 . S
C527 H551 0.949 . S
H528 C532 0.949 . S
C529 C530 1.349 . S
C529 C531 1.327 . S
C529 H552 0.950 . S
C530 C529 1.349 . S
C530 C542 1.349 . S
C531 C529 1.327 . S
C531 C547 1.429 . S
C531 H553 0.950 . S
C532 H528 0.949 . S
C532 C540 1.574 . S
C532 C548 1.368 . S
H533 C541 0.950 . S
H534 C539 0.950 . S
H535 C540 0.949 . S
H536 C542 0.950 . S
H537 C543 0.950 . S
H538 C544 0.949 . S
C539 H534 0.950 . S
C539 C541 1.327 . S
C539 C545 1.429 . S
C540 C532 1.574 . S
C540 H535 0.949 . S
C540 C546 1.368 . S
C541 C525 1.349 . S
C541 H533 0.950 . S
C541 C539 1.327 . S
C542 C530 1.349 . S
C542 H536 0.950 . S
C542 C543 1.327 . S
C543 H537 0.950 . S
C543 C542 1.327 . S
C543 C547 1.429 . S
C544 C527 1.574 . S
C544 H538 0.949 . S
C544 C548 1.368 . S
C545 C526 1.429 . S
C545 C539 1.429 . S
C545 C546 1.523 . S
C546 C527 1.368 . S
C546 C540 1.368 . S
C546 C545 1.523 . S
C547 C531 1.429 . S
C547 C543 1.429 . S
C547 C548 1.523 . S
C548 C532 1.368 . S
C548 C544 1.368 . S
C548 C547 1.523 . S
H549 C524 0.950 . S
H550 C526 0.950 . S
H551 C527 0.949 . S
H552 C529 0.950 . S
H553 C531 0.950 . S
C554 C555 1.349 . S
C554 C556 1.327 . S
C554 H579 0.950 . S
C555 C554 1.349 . S
C555 C571 1.349 . S
C556 C554 1.327 . S
C556 C575 1.429 . S
C556 H580 0.950 . S
C557 C574 1.574 . S
C557 C576 1.368 . S
C557 H581 0.949 . S
H558 C562 0.949 . S
C559 C560 1.349 . S
C559 C561 1.327 . S
C559 H582 0.950 . S
C560 C559 1.349 . S
C560 C572 1.349 . S
C561 C559 1.327 . S
C561 C577 1.429 . S
C561 H583 0.950 . S
C562 H558 0.949 . S
C562 C570 1.574 . S
C562 C578 1.368 . S
H563 C571 0.950 . S
H564 C569 0.950 . S
H565 C570 0.949 . S
H566 C572 0.950 . S
H567 C573 0.950 . S
H568 C574 0.949 . S
C569 H564 0.950 . S
C569 C571 1.327 . S
C569 C575 1.429 . S
C570 C562 1.574 . S
C570 H565 0.949 . S
C570 C576 1.368 . S
C571 C555 1.349 . S
C571 H563 0.950 . S
C571 C569 1.327 . S
C572 C560 1.349 . S
C572 H566 0.950 . S
C572 C573 1.327 . S
C573 H567 0.950 . S
C573 C572 1.327 . S
C573 C577 1.429 . S
C574 C557 1.574 . S
C574 H568 0.949 . S
C574 C578 1.368 . S
C575 C556 1.429 . S
C575 C569 1.429 . S
C575 C576 1.523 . S
C576 C557 1.368 . S
C576 C570 1.368 . S
C576 C575 1.523 . S
C577 C561 1.429 . S
C577 C573 1.429 . S
C577 C578 1.523 . S
C578 C562 1.368 . S
C578 C574 1.368 . S
C578 C577 1.523 . S
H579 C554 0.950 . S
H580 C556 0.950 . S
H581 C557 0.949 . S
H582 C559 0.950 . S
H583 C561 0.950 . S
C584 C585 1.349 . S
C584 C586 1.327 . S
C584 H609 0.950 . S
C585 C584 1.349 . S
C585 C601 1.349 . S
C586 C584 1.327 . S
C586 C605 1.429 . S
C586 H610 0.950 . S
C587 C604 1.574 . S
C587 C606 1.368 . S
C587 H611 0.949 . S
H588 C592 0.949 . S
C589 C590 1.349 . S
C589 C591 1.327 . S
C589 H612 0.950 . S
C590 C589 1.349 . S
C590 C602 1.349 . S
C591 C589 1.327 . S
C591 C607 1.429 . S
C591 H613 0.950 . S
C592 H588 0.949 . S
C592 C600 1.574 . S
C592 C608 1.368 . S
H593 C601 0.950 . S
H594 C599 0.950 . S
H595 C600 0.949 . S
H596 C602 0.950 . S
H597 C603 0.950 . S
H598 C604 0.949 . S
C599 H594 0.950 . S
C599 C601 1.327 . S
C599 C605 1.429 . S
C600 C592 1.574 . S
C600 H595 0.949 . S
C600 C606 1.368 . S
C601 C585 1.349 . S
C601 H593 0.950 . S
C601 C599 1.327 . S
C602 C590 1.349 . S
C602 H596 0.950 . S
C602 C603 1.327 . S
C603 H597 0.950 . S
C603 C602 1.327 . S
C603 C607 1.429 . S
C604 C587 1.574 . S
C604 H598 0.949 . S
C604 C608 1.368 . S
C605 C586 1.429 . S
C605 C599 1.429 . S
C605 C606 1.523 . S
C606 C587 1.368 . S
C606 C600 1.368 . S
C606 C605 1.523 . S
C607 C591 1.429 . S
C607 C603 1.429 . S
C607 C608 1.523 . S
C608 C592 1.368 . S
C608 C604 1.368 . S
C608 C607 1.523 . S
H609 C584 0.950 . S
H610 C586 0.950 . S
H611 C587 0.949 . S
H612 C589 0.950 . S
H613 C591 0.950 . S
C614 C615 1.349 . S
C614 C616 1.327 . S
C614 H639 0.950 . S
C615 C614 1.349 . S
C615 C631 1.349 . S
C616 C614 1.327 . S
C616 C635 1.429 . S
C616 H640 0.950 . S
C617 C634 1.574 . S
C617 C636 1.368 . S
C617 H641 0.949 . S
H618 C622 0.949 . S
C619 C620 1.349 . S
C619 C621 1.327 . S
C619 H642 0.950 . S
C620 C619 1.349 . S
C620 C632 1.349 . S
C621 C619 1.327 . S
C621 C637 1.429 . S
C621 H643 0.950 . S
C622 H618 0.949 . S
C622 C630 1.574 . S
C622 C638 1.368 . S
H623 C631 0.950 . S
H624 C629 0.950 . S
H625 C630 0.949 . S
H626 C632 0.950 . S
H627 C633 0.950 . S
H628 C634 0.949 . S
C629 H624 0.950 . S
C629 C631 1.327 . S
C629 C635 1.429 . S
C630 C622 1.574 . S
C630 H625 0.949 . S
C630 C636 1.368 . S
C631 C615 1.349 . S
C631 H623 0.950 . S
C631 C629 1.327 . S
C632 C620 1.349 . S
C632 H626 0.950 . S
C632 C633 1.327 . S
C633 H627 0.950 . S
C633 C632 1.327 . S
C633 C637 1.429 . S
C634 C617 1.574 . S
C634 H628 0.949 . S
C634 C638 1.368 . S
C635 C616 1.429 . S
C635 C629 1.429 . S
C635 C636 1.523 . S
C636 C617 1.368 . S
C636 C630 1.368 . S
C636 C635 1.523 . S
C637 C621 1.429 . S
C637 C633 1.429 . S
C637 C638 1.523 . S
C638 C622 1.368 . S
C638 C634 1.368 . S
C638 C637 1.523 . S
H639 C614 0.950 . S
H640 C616 0.950 . S
H641 C617 0.949 . S
H642 C619 0.950 . S
H643 C621 0.950 . S
C644 C645 1.349 . S
C644 C646 1.327 . S
C644 H669 0.950 . S
C645 C644 1.349 . S
C645 C661 1.349 . S
C646 C644 1.327 . S
C646 C665 1.429 . S
C646 H670 0.950 . S
C647 C664 1.574 . S
C647 C666 1.368 . S
C647 H671 0.949 . S
H648 C652 0.949 . S
C649 C650 1.349 . S
C649 C651 1.327 . S
C649 H672 0.950 . S
C650 C649 1.349 . S
C650 C662 1.349 . S
C651 C649 1.327 . S
C651 C667 1.429 . S
C651 H673 0.950 . S
C652 H648 0.949 . S
C652 C660 1.574 . S
C652 C668 1.368 . S
H653 C661 0.950 . S
H654 C659 0.950 . S
H655 C660 0.949 . S
H656 C662 0.950 . S
H657 C663 0.950 . S
H658 C664 0.949 . S
C659 H654 0.950 . S
C659 C661 1.327 . S
C659 C665 1.429 . S
C660 C652 1.574 . S
C660 H655 0.949 . S
C660 C666 1.368 . S
C661 C645 1.349 . S
C661 H653 0.950 . S
C661 C659 1.327 . S
C662 C650 1.349 . S
C662 H656 0.950 . S
C662 C663 1.327 . S
C663 H657 0.950 . S
C663 C662 1.327 . S
C663 C667 1.429 . S
C664 C647 1.574 . S
C664 H658 0.949 . S
C664 C668 1.368 . S
C665 C646 1.429 . S
C665 C659 1.429 . S
C665 C666 1.523 . S
C666 C647 1.368 . S
C666 C660 1.368 . S
C666 C665 1.523 . S
C667 C651 1.429 . S
C667 C663 1.429 . S
C667 C668 1.523 . S
C668 C652 1.368 . S
C668 C664 1.368 . S
C668 C667 1.523 . S
H669 C644 0.950 . S
H670 C646 0.950 . S
H671 C647 0.949 . S
H672 C649 0.950 . S
H673 C651 0.950 . S
C674 C675 1.349 . S
C674 C676 1.327 . S
C674 H699 0.950 . S
C675 C674 1.349 . S
C675 C691 1.349 . S
C676 C674 1.327 . S
C676 C695 1.429 . S
C676 H700 0.950 . S
C677 C694 1.574 . S
C677 C696 1.368 . S
C677 H701 0.949 . S
H678 C682 0.949 . S
C679 C680 1.349 . S
C679 C681 1.327 . S
C679 H702 0.950 . S
C680 C679 1.349 . S
C680 C692 1.349 . S
C681 C679 1.327 . S
C681 C697 1.429 . S
C681 H703 0.950 . S
C682 H678 0.949 . S
C682 C690 1.574 . S
C682 C698 1.368 . S
H683 C691 0.950 . S
H684 C689 0.950 . S
H685 C690 0.949 . S
H686 C692 0.950 . S
H687 C693 0.950 . S
H688 C694 0.949 . S
C689 H684 0.950 . S
C689 C691 1.327 . S
C689 C695 1.429 . S
C690 C682 1.574 . S
C690 H685 0.949 . S
C690 C696 1.368 . S
C691 C675 1.349 . S
C691 H683 0.950 . S
C691 C689 1.327 . S
C692 C680 1.349 . S
C692 H686 0.950 . S
C692 C693 1.327 . S
C693 H687 0.950 . S
C693 C692 1.327 . S
C693 C697 1.429 . S
C694 C677 1.574 . S
C694 H688 0.949 . S
C694 C698 1.368 . S
C695 C676 1.429 . S
C695 C689 1.429 . S
C695 C696 1.523 . S
C696 C677 1.368 . S
C696 C690 1.368 . S
C696 C695 1.523 . S
C697 C681 1.429 . S
C697 C693 1.429 . S
C697 C698 1.523 . S
C698 C682 1.368 . S
C698 C694 1.368 . S
C698 C697 1.523 . S
H699 C674 0.950 . S
H700 C676 0.950 . S
H701 C677 0.949 . S
H702 C679 0.950 . S
H703 C681 0.950 . S
C704 C705 1.349 . S
C704 C706 1.327 . S
C704 H729 0.950 . S
C705 C704 1.349 . S
C705 C721 1.349 . S
C706 C704 1.327 . S
C706 C725 1.429 . S
C706 H730 0.950 . S
C707 C724 1.574 . S
C707 C726 1.368 . S
C707 H731 0.949 . S
H708 C712 0.949 . S
C709 C710 1.349 . S
C709 C711 1.327 . S
C709 H732 0.950 . S
C710 C709 1.349 . S
C710 C722 1.349 . S
C711 C709 1.327 . S
C711 C727 1.429 . S
C711 H733 0.950 . S
C712 H708 0.949 . S
C712 C720 1.574 . S
C712 C728 1.368 . S
H713 C721 0.950 . S
H714 C719 0.950 . S
H715 C720 0.949 . S
H716 C722 0.950 . S
H717 C723 0.950 . S
H718 C724 0.949 . S
C719 H714 0.950 . S
C719 C721 1.327 . S
C719 C725 1.429 . S
C720 C712 1.574 . S
C720 H715 0.949 . S
C720 C726 1.368 . S
C721 C705 1.349 . S
C721 H713 0.950 . S
C721 C719 1.327 . S
C722 C710 1.349 . S
C722 H716 0.950 . S
C722 C723 1.327 . S
C723 H717 0.950 . S
C723 C722 1.327 . S
C723 C727 1.429 . S
C724 C707 1.574 . S
C724 H718 0.949 . S
C724 C728 1.368 . S
C725 C706 1.429 . S
C725 C719 1.429 . S
C725 C726 1.523 . S
C726 C707 1.368 . S
C726 C720 1.368 . S
C726 C725 1.523 . S
C727 C711 1.429 . S
C727 C723 1.429 . S
C727 C728 1.523 . S
C728 C712 1.368 . S
C728 C724 1.368 . S
C728 C727 1.523 . S
H729 C704 0.950 . S
H730 C706 0.950 . S
H731 C707 0.949 . S
H732 C709 0.950 . S
H733 C711 0.950 . S
C734 C735 1.349 . S
C734 C736 1.327 . S
C734 H759 0.950 . S
C735 C734 1.349 . S
C735 C751 1.349 . S
C736 C734 1.327 . S
C736 C755 1.429 . S
C736 H760 0.950 . S
C737 C754 1.574 . S
C737 C756 1.368 . S
C737 H761 0.949 . S
H738 C742 0.949 . S
C739 C740 1.349 . S
C739 C741 1.327 . S
C739 H762 0.950 . S
C740 C739 1.349 . S
C740 C752 1.349 . S
C741 C739 1.327 . S
C741 C757 1.429 . S
C741 H763 0.950 . S
C742 H738 0.949 . S
C742 C750 1.574 . S
C742 C758 1.368 . S
H743 C751 0.950 . S
H744 C749 0.950 . S
H745 C750 0.949 . S
H746 C752 0.950 . S
H747 C753 0.950 . S
H748 C754 0.949 . S
C749 H744 0.950 . S
C749 C751 1.327 . S
C749 C755 1.429 . S
C750 C742 1.574 . S
C750 H745 0.949 . S
C750 C756 1.368 . S
C751 C735 1.349 . S
C751 H743 0.950 . S
C751 C749 1.327 . S
C752 C740 1.349 . S
C752 H746 0.950 . S
C752 C753 1.327 . S
C753 H747 0.950 . S
C753 C752 1.327 . S
C753 C757 1.429 . S
C754 C737 1.574 . S
C754 H748 0.949 . S
C754 C758 1.368 . S
C755 C736 1.429 . S
C755 C749 1.429 . S
C755 C756 1.523 . S
C756 C737 1.368 . S
C756 C750 1.368 . S
C756 C755 1.523 . S
C757 C741 1.429 . S
C757 C753 1.429 . S
C757 C758 1.523 . S
C758 C742 1.368 . S
C758 C754 1.368 . S
C758 C757 1.523 . S
H759 C734 0.950 . S
H760 C736 0.950 . S
H761 C737 0.949 . S
H762 C739 0.950 . S
H763 C741 0.950 . S
C764 C765 1.349 . S
C764 C766 1.327 . S
C764 H789 0.950 . S
C765 C764 1.349 . S
C765 C781 1.349 . S
C766 C764 1.327 . S
C766 C785 1.429 . S
C766 H790 0.950 . S
C767 C784 1.574 . S
C767 C786 1.368 . S
C767 H791 0.949 . S
H768 C772 0.949 . S
C769 C770 1.349 . S
C769 C771 1.327 . S
C769 H792 0.950 . S
C770 C769 1.349 . S
C770 C782 1.349 . S
C771 C769 1.327 . S
C771 C787 1.429 . S
C771 H793 0.950 . S
C772 H768 0.949 . S
C772 C780 1.574 . S
C772 C788 1.368 . S
H773 C781 0.950 . S
H774 C779 0.950 . S
H775 C780 0.949 . S
H776 C782 0.950 . S
H777 C783 0.950 . S
H778 C784 0.949 . S
C779 H774 0.950 . S
C779 C781 1.327 . S
C779 C785 1.429 . S
C780 C772 1.574 . S
C780 H775 0.949 . S
C780 C786 1.368 . S
C781 C765 1.349 . S
C781 H773 0.950 . S
C781 C779 1.327 . S
C782 C770 1.349 . S
C782 H776 0.950 . S
C782 C783 1.327 . S
C783 H777 0.950 . S
C783 C782 1.327 . S
C783 C787 1.429 . S
C784 C767 1.574 . S
C784 H778 0.949 . S
C784 C788 1.368 . S
C785 C766 1.429 . S
C785 C779 1.429 . S
C785 C786 1.523 . S
C786 C767 1.368 . S
C786 C780 1.368 . S
C786 C785 1.523 . S
C787 C771 1.429 . S
C787 C783 1.429 . S
C787 C788 1.523 . S
C788 C772 1.368 . S
C788 C784 1.368 . S
C788 C787 1.523 . S
H789 C764 0.950 . S
H790 C766 0.950 . S
H791 C767 0.949 . S
H792 C769 0.950 . S
H793 C771 0.950 . S
C794 C795 1.349 . S
C794 C796 1.327 . S
C794 H819 0.950 . S
C795 C794 1.349 . S
C795 C811 1.349 . S
C796 C794 1.327 . S
C796 C815 1.429 . S
C796 H820 0.950 . S
C797 C814 1.574 . S
C797 C816 1.368 . S
C797 H821 0.949 . S
H798 C802 0.949 . S
C799 C800 1.349 . S
C799 C801 1.327 . S
C799 H822 0.950 . S
C800 C799 1.349 . S
C800 C812 1.349 . S
C801 C799 1.327 . S
C801 C817 1.429 . S
C801 H823 0.950 . S
C802 H798 0.949 . S
C802 C810 1.574 . S
C802 C818 1.368 . S
H803 C811 0.950 . S
H804 C809 0.950 . S
H805 C810 0.949 . S
H806 C812 0.950 . S
H807 C813 0.950 . S
H808 C814 0.949 . S
C809 H804 0.950 . S
C809 C811 1.327 . S
C809 C815 1.429 . S
C810 C802 1.574 . S
C810 H805 0.949 . S
C810 C816 1.368 . S
C811 C795 1.349 . S
C811 H803 0.950 . S
C811 C809 1.327 . S
C812 C800 1.349 . S
C812 H806 0.950 . S
C812 C813 1.327 . S
C813 H807 0.950 . S
C813 C812 1.327 . S
C813 C817 1.429 . S
C814 C797 1.574 . S
C814 H808 0.949 . S
C814 C818 1.368 . S
C815 C796 1.429 . S
C815 C809 1.429 . S
C815 C816 1.523 . S
C816 C797 1.368 . S
C816 C810 1.368 . S
C816 C815 1.523 . S
C817 C801 1.429 . S
C817 C813 1.429 . S
C817 C818 1.523 . S
C818 C802 1.368 . S
C818 C814 1.368 . S
C818 C817 1.523 . S
H819 C794 0.950 . S
H820 C796 0.950 . S
H821 C797 0.949 . S
H822 C799 0.950 . S
H823 C801 0.950 . S
C824 C825 1.349 . S
C824 C826 1.327 . S
C824 H849 0.950 . S
C825 C824 1.349 . S
C825 C841 1.349 . S
C826 C824 1.327 . S
C826 C845 1.429 . S
C826 H850 0.950 . S
C827 C844 1.574 . S
C827 C846 1.368 . S
C827 H851 0.949 . S
H828 C832 0.949 . S
C829 C830 1.349 . S
C829 C831 1.327 . S
C829 H852 0.950 . S
C830 C829 1.349 . S
C830 C842 1.349 . S
C831 C829 1.327 . S
C831 C847 1.429 . S
C831 H853 0.950 . S
C832 H828 0.949 . S
C832 C840 1.574 . S
C832 C848 1.368 . S
H833 C841 0.950 . S
H834 C839 0.950 . S
H835 C840 0.949 . S
H836 C842 0.950 . S
H837 C843 0.950 . S
H838 C844 0.949 . S
C839 H834 0.950 . S
C839 C841 1.327 . S
C839 C845 1.429 . S
C840 C832 1.574 . S
C840 H835 0.949 . S
C840 C846 1.368 . S
C841 C825 1.349 . S
C841 H833 0.950 . S
C841 C839 1.327 . S
C842 C830 1.349 . S
C842 H836 0.950 . S
C842 C843 1.327 . S
C843 H837 0.950 . S
C843 C842 1.327 . S
C843 C847 1.429 . S
C844 C827 1.574 . S
C844 H838 0.949 . S
C844 C848 1.368 . S
C845 C826 1.429 . S
C845 C839 1.429 . S
C845 C846 1.523 . S
C846 C827 1.368 . S
C846 C840 1.368 . S
C846 C845 1.523 . S
C847 C831 1.429 . S
C847 C843 1.429 . S
C847 C848 1.523 . S
C848 C832 1.368 . S
C848 C844 1.368 . S
C848 C847 1.523 . S
H849 C824 0.950 . S
H850 C826 0.950 . S
H851 C827 0.949 . S
H852 C829 0.950 . S
H853 C831 0.950 . S
C854 C855 1.349 . S
C854 C856 1.327 . S
C854 H879 0.950 . S
C855 C854 1.349 . S
C855 C871 1.349 . S
C856 C854 1.327 . S
C856 C875 1.429 . S
C856 H880 0.950 . S
C857 C874 1.574 . S
C857 C876 1.368 . S
C857 H881 0.949 . S
H858 C862 0.949 . S
C859 C860 1.349 . S
C859 C861 1.327 . S
C859 H882 0.950 . S
C860 C859 1.349 . S
C860 C872 1.349 . S
C861 C859 1.327 . S
C861 C877 1.429 . S
C861 H883 0.950 . S
C862 H858 0.949 . S
C862 C870 1.574 . S
C862 C878 1.368 . S
H863 C871 0.950 . S
H864 C869 0.950 . S
H865 C870 0.949 . S
H866 C872 0.950 . S
H867 C873 0.950 . S
H868 C874 0.949 . S
C869 H864 0.950 . S
C869 C871 1.327 . S
C869 C875 1.429 . S
C870 C862 1.574 . S
C870 H865 0.949 . S
C870 C876 1.368 . S
C871 C855 1.349 . S
C871 H863 0.950 . S
C871 C869 1.327 . S
C872 C860 1.349 . S
C872 H866 0.950 . S
C872 C873 1.327 . S
C873 H867 0.950 . S
C873 C872 1.327 . S
C873 C877 1.429 . S
C874 C857 1.574 . S
C874 H868 0.949 . S
C874 C878 1.368 . S
C875 C856 1.429 . S
C875 C869 1.429 . S
C875 C876 1.523 . S
C876 C857 1.368 . S
C876 C870 1.368 . S
C876 C875 1.523 . S
C877 C861 1.429 . S
C877 C873 1.429 . S
C877 C878 1.523 . S
C878 C862 1.368 . S
C878 C874 1.368 . S
C878 C877 1.523 . S
H879 C854 0.950 . S
H880 C856 0.950 . S
H881 C857 0.949 . S
H882 C859 0.950 . S
H883 C861 0.950 . S
C884 C885 1.349 . S
C884 C886 1.327 . S
C884 H909 0.950 . S
C885 C884 1.349 . S
C885 C901 1.349 . S
C886 C884 1.327 . S
C886 C905 1.429 . S
C886 H910 0.950 . S
C887 C904 1.574 . S
C887 C906 1.368 . S
C887 H911 0.949 . S
H888 C892 0.949 . S
C889 C890 1.349 . S
C889 C891 1.327 . S
C889 H912 0.950 . S
C890 C889 1.349 . S
C890 C902 1.349 . S
C891 C889 1.327 . S
C891 C907 1.429 . S
C891 H913 0.950 . S
C892 H888 0.949 . S
C892 C900 1.574 . S
C892 C908 1.368 . S
H893 C901 0.950 . S
H894 C899 0.950 . S
H895 C900 0.949 . S
H896 C902 0.950 . S
H897 C903 0.950 . S
H898 C904 0.949 . S
C899 H894 0.950 . S
C899 C901 1.327 . S
C899 C905 1.429 . S
C900 C892 1.574 . S
C900 H895 0.949 . S
C900 C906 1.368 . S
C901 C885 1.349 . S
C901 H893 0.950 . S
C901 C899 1.327 . S
C902 C890 1.349 . S
C902 H896 0.950 . S
C902 C903 1.327 . S
C903 H897 0.950 . S
C903 C902 1.327 . S
C903 C907 1.429 . S
C904 C887 1.574 . S
C904 H898 0.949 . S
C904 C908 1.368 . S
C905 C886 1.429 . S
C905 C899 1.429 . S
C905 C906 1.523 . S
C906 C887 1.368 . S
C906 C900 1.368 . S
C906 C905 1.523 . S
C907 C891 1.429 . S
C907 C903 1.429 . S
C907 C908 1.523 . S
C908 C892 1.368 . S
C908 C904 1.368 . S
C908 C907 1.523 . S
H909 C884 0.950 . S
H910 C886 0.950 . S
H911 C887 0.949 . S
H912 C889 0.950 . S
H913 C891 0.950 . S
C914 C915 1.349 . S
C914 C916 1.327 . S
C914 H939 0.950 . S
C915 C914 1.349 . S
C915 C931 1.349 . S
C916 C914 1.327 . S
C916 C935 1.429 . S
C916 H940 0.950 . S
C917 C934 1.574 . S
C917 C936 1.368 . S
C917 H941 0.949 . S
H918 C922 0.949 . S
C919 C920 1.349 . S
C919 C921 1.327 . S
C919 H942 0.950 . S
C920 C919 1.349 . S
C920 C932 1.349 . S
C921 C919 1.327 . S
C921 C937 1.429 . S
C921 H943 0.950 . S
C922 H918 0.949 . S
C922 C930 1.574 . S
C922 C938 1.368 . S
H923 C931 0.950 . S
H924 C929 0.950 . S
H925 C930 0.949 . S
H926 C932 0.950 . S
H927 C933 0.950 . S
H928 C934 0.949 . S
C929 H924 0.950 . S
C929 C931 1.327 . S
C929 C935 1.429 . S
C930 C922 1.574 . S
C930 H925 0.949 . S
C930 C936 1.368 . S
C931 C915 1.349 . S
C931 H923 0.950 . S
C931 C929 1.327 . S
C932 C920 1.349 . S
C932 H926 0.950 . S
C932 C933 1.327 . S
C933 H927 0.950 . S
C933 C932 1.327 . S
C933 C937 1.429 . S
C934 C917 1.574 . S
C934 H928 0.949 . S
C934 C938 1.368 . S
C935 C916 1.429 . S
C935 C929 1.429 . S
C935 C936 1.523 . S
C936 C917 1.368 . S
C936 C930 1.368 . S
C936 C935 1.523 . S
C937 C921 1.429 . S
C937 C933 1.429 . S
C937 C938 1.523 . S
C938 C922 1.368 . S
C938 C934 1.368 . S
C938 C937 1.523 . S
H939 C914 0.950 . S
H940 C916 0.950 . S
H941 C917 0.949 . S
H942 C919 0.950 . S
H943 C921 0.950 . S
C944 C945 1.349 . S
C944 C946 1.327 . S
C944 H969 0.950 . S
C945 C944 1.349 . S
C945 C961 1.349 . S
C946 C944 1.327 . S
C946 C965 1.429 . S
C946 H970 0.950 . S
C947 C964 1.574 . S
C947 C966 1.368 . S
C947 H971 0.949 . S
H948 C952 0.949 . S
C949 C950 1.349 . S
C949 C951 1.327 . S
C949 H972 0.950 . S
C950 C949 1.349 . S
C950 C962 1.349 . S
C951 C949 1.327 . S
C951 C967 1.429 . S
C951 H973 0.950 . S
C952 H948 0.949 . S
C952 C960 1.574 . S
C952 C968 1.368 . S
H953 C961 0.950 . S
H954 C959 0.950 . S
H955 C960 0.949 . S
H956 C962 0.950 . S
H957 C963 0.950 . S
H958 C964 0.949 . S
C959 H954 0.950 . S
C959 C961 1.327 . S
C959 C965 1.429 . S
C960 C952 1.574 . S
C960 H955 0.949 . S
C960 C966 1.368 . S
C961 C945 1.349 . S
C961 H953 0.950 . S
C961 C959 1.327 . S
C962 C950 1.349 . S
C962 H956 0.950 . S
C962 C963 1.327 . S
C963 H957 0.950 . S
C963 C962 1.327 . S
C963 C967 1.429 . S
C964 C947 1.574 . S
C964 H958 0.949 . S
C964 C968 1.368 . S
C965 C946 1.429 . S
C965 C959 1.429 . S
C965 C966 1.523 . S
C966 C947 1.368 . S
C966 C960 1.368 . S
C966 C965 1.523 . S
C967 C951 1.429 . S
C967 C963 1.429 . S
C967 C968 1.523 . S
C968 C952 1.368 . S
C968 C964 1.368 . S
C968 C967 1.523 . S
H969 C944 0.950 . S
H970 C946 0.950 . S
H971 C947 0.949 . S
H972 C949 0.950 . S
H973 C951 0.950 . S
C974 C975 1.349 . S
C974 C976 1.327 . S
C974 H999 0.950 . S
C975 C974 1.349 . S
C975 C991 1.349 . S
C976 C974 1.327 . S
C976 C995 1.429 . S
C976 H1000 0.950 . S
C977 C994 1.574 . S
C977 C996 1.368 . S
C977 H1001 0.949 . S
H978 C982 0.949 . S
C979 C980 1.349 . S
C979 C981 1.327 . S
C979 H1002 0.950 . S
C980 C979 1.349 . S
C980 C992 1.349 . S
C981 C979 1.327 . S
C981 C997 1.429 . S
C981 H1003 0.950 . S
C982 H978 0.949 . S
C982 C990 1.574 . S
C982 C998 1.368 . S
H983 C991 0.950 . S
H984 C989 0.950 . S
H985 C990 0.949 . S
H986 C992 0.950 . S
H987 C993 0.950 . S
H988 C994 0.949 . S
C989 H984 0.950 . S
C989 C991 1.327 . S
C989 C995 1.429 . S
C990 C982 1.574 . S
C990 H985 0.949 . S
C990 C996 1.368 . S
C991 C975 1.349 . S
C991 H983 0.950 . S
C991 C989 1.327 . S
C992 C980 1.349 . S
C992 H986 0.950 . S
C992 C993 1.327 . S
C993 H987 0.950 . S
C993 C992 1.327 . S
C993 C997 1.429 . S
C994 C977 1.574 . S
C994 H988 0.949 . S
C994 C998 1.368 . S
C995 C976 1.429 . S
C995 C989 1.429 . S
C995 C996 1.523 . S
C996 C977 1.368 . S
C996 C990 1.368 . S
C996 C995 1.523 . S
C997 C981 1.429 . S
C997 C993 1.429 . S
C997 C998 1.523 . S
C998 C982 1.368 . S
C998 C994 1.368 . S
C998 C997 1.523 . S
H999 C974 0.950 . S
H1000 C976 0.950 . S
H1001 C977 0.949 . S
H1002 C979 0.950 . S
H1003 C981 0.950 . S
C1004 C1005 1.349 . S
C1004 C1006 1.327 . S
C1004 H1029 0.950 . S
C1005 C1004 1.349 . S
C1005 C1021 1.349 . S
C1006 C1004 1.327 . S
C1006 C1025 1.429 . S
C1006 H1030 0.950 . S
C1007 C1024 1.574 . S
C1007 C1026 1.368 . S
C1007 H1031 0.949 . S
H1008 C1012 0.949 . S
C1009 C1010 1.349 . S
C1009 C1011 1.327 . S
C1009 H1032 0.950 . S
C1010 C1009 1.349 . S
C1010 C1022 1.349 . S
C1011 C1009 1.327 . S
C1011 C1027 1.429 . S
C1011 H1033 0.950 . S
C1012 H1008 0.949 . S
C1012 C1020 1.574 . S
C1012 C1028 1.368 . S
H1013 C1021 0.950 . S
H1014 C1019 0.950 . S
H1015 C1020 0.949 . S
H1016 C1022 0.950 . S
H1017 C1023 0.950 . S
H1018 C1024 0.949 . S
C1019 H1014 0.950 . S
C1019 C1021 1.327 . S
C1019 C1025 1.429 . S
C1020 C1012 1.574 . S
C1020 H1015 0.949 . S
C1020 C1026 1.368 . S
C1021 C1005 1.349 . S
C1021 H1013 0.950 . S
C1021 C1019 1.327 . S
C1022 C1010 1.349 . S
C1022 H1016 0.950 . S
C1022 C1023 1.327 . S
C1023 H1017 0.950 . S
C1023 C1022 1.327 . S
C1023 C1027 1.429 . S
C1024 C1007 1.574 . S
C1024 H1018 0.949 . S
C1024 C1028 1.368 . S
C1025 C1006 1.429 . S
C1025 C1019 1.429 . S
C1025 C1026 1.523 . S
C1026 C1007 1.368 . S
C1026 C1020 1.368 . S
C1026 C1025 1.523 . S
C1027 C1011 1.429 . S
C1027 C1023 1.429 . S
C1027 C1028 1.523 . S
C1028 C1012 1.368 . S
C1028 C1024 1.368 . S
C1028 C1027 1.523 . S
H1029 C1004 0.950 . S
H1030 C1006 0.950 . S
H1031 C1007 0.949 . S
H1032 C1009 0.950 . S
H1033 C1011 0.950 . S
C1034 C1035 1.349 . S
C1034 C1036 1.327 . S
C1034 H1059 0.950 . S
C1035 C1034 1.349 . S
C1035 C1051 1.349 . S
C1036 C1034 1.327 . S
C1036 C1055 1.429 . S
C1036 H1060 0.950 . S
C1037 C1054 1.574 . S
C1037 C1056 1.368 . S
C1037 H1061 0.949 . S
H1038 C1042 0.949 . S
C1039 C1040 1.349 . S
C1039 C1041 1.327 . S
C1039 H1062 0.950 . S
C1040 C1039 1.349 . S
C1040 C1052 1.349 . S
C1041 C1039 1.327 . S
C1041 C1057 1.429 . S
C1041 H1063 0.950 . S
C1042 H1038 0.949 . S
C1042 C1050 1.574 . S
C1042 C1058 1.368 . S
H1043 C1051 0.950 . S
H1044 C1049 0.950 . S
H1045 C1050 0.949 . S
H1046 C1052 0.950 . S
H1047 C1053 0.950 . S
H1048 C1054 0.949 . S
C1049 H1044 0.950 . S
C1049 C1051 1.327 . S
C1049 C1055 1.429 . S
C1050 C1042 1.574 . S
C1050 H1045 0.949 . S
C1050 C1056 1.368 . S
C1051 C1035 1.349 . S
C1051 H1043 0.950 . S
C1051 C1049 1.327 . S
C1052 C1040 1.349 . S
C1052 H1046 0.950 . S
C1052 C1053 1.327 . S
C1053 H1047 0.950 . S
C1053 C1052 1.327 . S
C1053 C1057 1.429 . S
C1054 C1037 1.574 . S
C1054 H1048 0.949 . S
C1054 C1058 1.368 . S
C1055 C1036 1.429 . S
C1055 C1049 1.429 . S
C1055 C1056 1.523 . S
C1056 C1037 1.368 . S
C1056 C1050 1.368 . S
C1056 C1055 1.523 . S
C1057 C1041 1.429 . S
C1057 C1053 1.429 . S
C1057 C1058 1.523 . S
C1058 C1042 1.368 . S
C1058 C1054 1.368 . S
C1058 C1057 1.523 . S
H1059 C1034 0.950 . S
H1060 C1036 0.950 . S
H1061 C1037 0.949 . S
H1062 C1039 0.950 . S
H1063 C1041 0.950 . S
C1064 C1065 1.349 . S
C1064 C1066 1.327 . S
C1064 H1089 0.950 . S
C1065 C1064 1.349 . S
C1065 C1081 1.349 . S
C1066 C1064 1.327 . S
C1066 C1085 1.429 . S
C1066 H1090 0.950 . S
C1067 C1084 1.574 . S
C1067 C1086 1.368 . S
C1067 H1091 0.949 . S
H1068 C1072 0.949 . S
C1069 C1070 1.349 . S
C1069 C1071 1.327 . S
C1069 H1092 0.950 . S
C1070 C1069 1.349 . S
C1070 C1082 1.349 . S
C1071 C1069 1.327 . S
C1071 C1087 1.429 . S
C1071 H1093 0.950 . S
C1072 H1068 0.949 . S
C1072 C1080 1.574 . S
C1072 C1088 1.368 . S
H1073 C1081 0.950 . S
H1074 C1079 0.950 . S
H1075 C1080 0.949 . S
H1076 C1082 0.950 . S
H1077 C1083 0.950 . S
H1078 C1084 0.949 . S
C1079 H1074 0.950 . S
C1079 C1081 1.327 . S
C1079 C1085 1.429 . S
C1080 C1072 1.574 . S
C1080 H1075 0.949 . S
C1080 C1086 1.368 . S
C1081 C1065 1.349 . S
C1081 H1073 0.950 . S
C1081 C1079 1.327 . S
C1082 C1070 1.349 . S
C1082 H1076 0.950 . S
C1082 C1083 1.327 . S
C1083 H1077 0.950 . S
C1083 C1082 1.327 . S
C1083 C1087 1.429 . S
C1084 C1067 1.574 . S
C1084 H1078 0.949 . S
C1084 C1088 1.368 . S
C1085 C1066 1.429 . S
C1085 C1079 1.429 . S
C1085 C1086 1.523 . S
C1086 C1067 1.368 . S
C1086 C1080 1.368 . S
C1086 C1085 1.523 . S
C1087 C1071 1.429 . S
C1087 C1083 1.429 . S
C1087 C1088 1.523 . S
C1088 C1072 1.368 . S
C1088 C1084 1.368 . S
C1088 C1087 1.523 . S
H1089 C1064 0.950 . S
H1090 C1066 0.950 . S
H1091 C1067 0.949 . S
H1092 C1069 0.950 . S
H1093 C1071 0.950 . S
C1094 C1095 1.349 . S
C1094 C1096 1.327 . S
C1094 H1119 0.950 . S
C1095 C1094 1.349 . S
C1095 C1111 1.349 . S
C1096 C1094 1.327 . S
C1096 C1115 1.429 . S
C1096 H1120 0.950 . S
C1097 C1114 1.574 . S
C1097 C1116 1.368 . S
C1097 H1121 0.949 . S
H1098 C1102 0.949 . S
C1099 C1100 1.349 . S
C1099 C1101 1.327 . S
C1099 H1122 0.950 . S
C1100 C1099 1.349 . S
C1100 C1112 1.349 . S
C1101 C1099 1.327 . S
C1101 C1117 1.429 . S
C1101 H1123 0.950 . S
C1102 H1098 0.949 . S
C1102 C1110 1.574 . S
C1102 C1118 1.368 . S
H1103 C1111 0.950 . S
H1104 C1109 0.950 . S
H1105 C1110 0.949 . S
H1106 C1112 0.950 . S
H1107 C1113 0.950 . S
H1108 C1114 0.949 . S
C1109 H1104 0.950 . S
C1109 C1111 1.327 . S
C1109 C1115 1.429 . S
C1110 C1102 1.574 . S
C1110 H1105 0.949 . S
C1110 C1116 1.368 . S
C1111 C1095 1.349 . S
C1111 H1103 0.950 . S
C1111 C1109 1.327 . S
C1112 C1100 1.349 . S
C1112 H1106 0.950 . S
C1112 C1113 1.327 . S
C1113 H1107 0.950 . S
C1113 C1112 1.327 . S
C1113 C1117 1.429 . S
C1114 C1097 1.574 . S
C1114 H1108 0.949 . S
C1114 C1118 1.368 . S
C1115 C1096 1.429 . S
C1115 C1109 1.429 . S
C1115 C1116 1.523 . S
C1116 C1097 1.368 . S
C1116 C1110 1.368 . S
C1116 C1115 1.523 . S
C1117 C1101 1.429 . S
C1117 C1113 1.429 . S
C1117 C1118 1.523 . S
C1118 C1102 1.368 . S
C1118 C1114 1.368 . S
C1118 C1117 1.523 . S
H1119 C1094 0.950 . S
H1120 C1096 0.950 . S
H1121 C1097 0.949 . S
H1122 C1099 0.950 . S
H1123 C1101 0.950 . S
C1124 C1125 1.349 . S
C1124 C1126 1.327 . S
C1124 H1149 0.950 . S
C1125 C1124 1.349 . S
C1125 C1141 1.349 . S
C1126 C1124 1.327 . S
C1126 C1145 1.429 . S
C1126 H1150 0.950 . S
C1127 C1144 1.574 . S
C1127 C1146 1.368 . S
C1127 H1151 0.949 . S
H1128 C1132 0.949 . S
C1129 C1130 1.349 . S
C1129 C1131 1.327 . S
C1129 H1152 0.950 . S
C1130 C1129 1.349 . S
C1130 C1142 1.349 . S
C1131 C1129 1.327 . S
C1131 C1147 1.429 . S
C1131 H1153 0.950 . S
C1132 H1128 0.949 . S
C1132 C1140 1.574 . S
C1132 C1148 1.368 . S
H1133 C1141 0.950 . S
H1134 C1139 0.950 . S
H1135 C1140 0.949 . S
H1136 C1142 0.950 . S
H1137 C1143 0.950 . S
H1138 C1144 0.949 . S
C1139 H1134 0.950 . S
C1139 C1141 1.327 . S
C1139 C1145 1.429 . S
C1140 C1132 1.574 . S
C1140 H1135 0.949 . S
C1140 C1146 1.368 . S
C1141 C1125 1.349 . S
C1141 H1133 0.950 . S
C1141 C1139 1.327 . S
C1142 C1130 1.349 . S
C1142 H1136 0.950 . S
C1142 C1143 1.327 . S
C1143 H1137 0.950 . S
C1143 C1142 1.327 . S
C1143 C1147 1.429 . S
C1144 C1127 1.574 . S
C1144 H1138 0.949 . S
C1144 C1148 1.368 . S
C1145 C1126 1.429 . S
C1145 C1139 1.429 . S
C1145 C1146 1.523 . S
C1146 C1127 1.368 . S
C1146 C1140 1.368 . S
C1146 C1145 1.523 . S
C1147 C1131 1.429 . S
C1147 C1143 1.429 . S
C1147 C1148 1.523 . S
C1148 C1132 1.368 . S
C1148 C1144 1.368 . S
C1148 C1147 1.523 . S
H1149 C1124 0.950 . S
H1150 C1126 0.950 . S
H1151 C1127 0.949 . S
H1152 C1129 0.950 . S
H1153 C1131 0.950 . S
C1154 C1155 1.349 . S
C1154 C1156 1.327 . S
C1154 H1179 0.950 . S
C1155 C1154 1.349 . S
C1155 C1171 1.349 . S
C1156 C1154 1.327 . S
C1156 C1175 1.429 . S
C1156 H1180 0.950 . S
C1157 C1174 1.574 . S
C1157 C1176 1.368 . S
C1157 H1181 0.949 . S
H1158 C1162 0.949 . S
C1159 C1160 1.349 . S
C1159 C1161 1.327 . S
C1159 H1182 0.950 . S
C1160 C1159 1.349 . S
C1160 C1172 1.349 . S
C1161 C1159 1.327 . S
C1161 C1177 1.429 . S
C1161 H1183 0.950 . S
C1162 H1158 0.949 . S
C1162 C1170 1.574 . S
C1162 C1178 1.368 . S
H1163 C1171 0.950 . S
H1164 C1169 0.950 . S
H1165 C1170 0.949 . S
H1166 C1172 0.950 . S
H1167 C1173 0.950 . S
H1168 C1174 0.949 . S
C1169 H1164 0.950 . S
C1169 C1171 1.327 . S
C1169 C1175 1.429 . S
C1170 C1162 1.574 . S
C1170 H1165 0.949 . S
C1170 C1176 1.368 . S
C1171 C1155 1.349 . S
C1171 H1163 0.950 . S
C1171 C1169 1.327 . S
C1172 C1160 1.349 . S
C1172 H1166 0.950 . S
C1172 C1173 1.327 . S
C1173 H1167 0.950 . S
C1173 C1172 1.327 . S
C1173 C1177 1.429 . S
C1174 C1157 1.574 . S
C1174 H1168 0.949 . S
C1174 C1178 1.368 . S
C1175 C1156 1.429 . S
C1175 C1169 1.429 . S
C1175 C1176 1.523 . S
C1176 C1157 1.368 . S
C1176 C1170 1.368 . S
C1176 C1175 1.523 . S
C1177 C1161 1.429 . S
C1177 C1173 1.429 . S
C1177 C1178 1.523 . S
C1178 C1162 1.368 . S
C1178 C1174 1.368 . S
C1178 C1177 1.523 . S
H1179 C1154 0.950 . S
H1180 C1156 0.950 . S
H1181 C1157 0.949 . S
H1182 C1159 0.950 . S
H1183 C1161 0.950 . S
C230 C113 1.559 . S
C225 C0 1.565 . S
C260 C139 1.559 . S
C255 C26 1.566 . S
C290 C153 1.559 . S
C285 C40 1.570 . S
C320 C155 1.559 . S
C315 C43 1.571 . S
C345 C57 1.568 . S
C350 C152 1.558 . S
C380 C154 1.561 . S
C375 C70 1.565 . S
C410 C112 1.561 . S
C405 C97 1.571 . S
C440 C138 1.561 . S
C435 C111 1.570 . S
C470 C140 1.559 . S
C465 C98 1.570 . S
C500 C166 1.559 . S
C495 C68 1.571 . S
C530 C124 1.559 . S
C525 C83 1.565 . S
C560 C126 1.559 . S
C555 C84 1.566 . S
C590 C125 1.560 . S
C585 C15 1.571 . S
C620 C127 1.561 . S
C615 C29 1.570 . S
C650 C141 1.561 . S
C645 C54 1.566 . S
C680 C167 1.561 . S
C675 C13 1.565 . S
C710 C169 1.559 . S
C705 C99 1.571 . S
C735 C69 1.568 . S
C740 C195 1.562 . S
C765 C82 1.568 . S
C770 C208 1.563 . S
C795 C85 1.568 . S
C800 C211 1.562 . S
C825 C14 1.568 . S
C830 C209 1.557 . S
C855 C28 1.568 . S
C860 C210 1.558 . S
C885 C55 1.568 . S
C890 C168 1.558 . S
C920 C194 1.561 . S
C915 C12 1.565 . S
C950 C197 1.561 . S
C945 C1 1.565 . S
C975 C27 1.568 . S
C980 C222 1.557 . S
C1005 C41 1.568 . S
C1010 C180 1.557 . S
C1035 C42 1.568 . S
C1040 C182 1.557 . S
C1070 C181 1.560 . S
C1065 C56 1.571 . S
C1100 C183 1.561 . S
C1095 C71 1.571 . S
C1125 C96 1.568 . S
C1130 C196 1.562 . S
C1160 C223 1.560 . S
C1155 C110 1.571 . S
