# Generated by pormake.
# Topology zzz, (3,6)-cn, num edge types: 1
# Building blocks:
#     Node 0, Type 0, BuildingBlock: WUSLED_clean_sbu_0, # of connection points: 3
#     Node 1, Type 0, BuildingBlock: WUSLED_clean_sbu_0, # of connection points: 3
#     Node 2, Type 0, BuildingBlock: WUSLED_clean_sbu_0, # of connection points: 3
#     Node 3, Type 0, BuildingBlock: WUSLED_clean_sbu_0, # of connection points: 3
#     Node 4, Type 0, BuildingBlock: WUSLED_clean_sbu_0, # of connection points: 3
#     Node 5, Type 0, BuildingBlock: WUSLED_clean_sbu_0, # of connection points: 3
#     Node 6, Type 0, BuildingBlock: WUSLED_clean_sbu_0, # of connection points: 3
#     Node 7, Type 0, BuildingBlock: WUSLED_clean_sbu_0, # of connection points: 3
#     Node 8, Type 1, BuildingBlock: CUKXOW_clean_sbu_0, # of connection points: 6
#     Node 9, Type 1, BuildingBlock: CUKXOW_clean_sbu_0, # of connection points: 6
#     Node 10, Type 1, BuildingBlock: CUKXOW_clean_sbu_0, # of connection points: 6
#     Node 11, Type 1, BuildingBlock: CUKXOW_clean_sbu_0, # of connection points: 6
#     Edge 12, Type (0, 1), BuildingBlock: UVAHIK_clean_linker_0, # of connection points: 2
#     Edge 13, Type (0, 1), BuildingBlock: UVAHIK_clean_linker_0, # of connection points: 2
#     Edge 14, Type (0, 1), BuildingBlock: UVAHIK_clean_linker_0, # of connection points: 2
#     Edge 15, Type (0, 1), BuildingBlock: UVAHIK_clean_linker_0, # of connection points: 2
#     Edge 16, Type (0, 1), BuildingBlock: UVAHIK_clean_linker_0, # of connection points: 2
#     Edge 17, Type (0, 1), BuildingBlock: UVAHIK_clean_linker_0, # of connection points: 2
#     Edge 18, Type (0, 1), BuildingBlock: UVAHIK_clean_linker_0, # of connection points: 2
#     Edge 19, Type (0, 1), BuildingBlock: UVAHIK_clean_linker_0, # of connection points: 2
#     Edge 20, Type (0, 1), BuildingBlock: UVAHIK_clean_linker_0, # of connection points: 2
#     Edge 21, Type (0, 1), BuildingBlock: UVAHIK_clean_linker_0, # of connection points: 2
#     Edge 22, Type (0, 1), BuildingBlock: UVAHIK_clean_linker_0, # of connection points: 2
#     Edge 23, Type (0, 1), BuildingBlock: UVAHIK_clean_linker_0, # of connection points: 2
#     Edge 24, Type (0, 1), BuildingBlock: UVAHIK_clean_linker_0, # of connection points: 2
#     Edge 25, Type (0, 1), BuildingBlock: UVAHIK_clean_linker_0, # of connection points: 2
#     Edge 26, Type (0, 1), BuildingBlock: UVAHIK_clean_linker_0, # of connection points: 2
#     Edge 27, Type (0, 1), BuildingBlock: UVAHIK_clean_linker_0, # of connection points: 2
#     Edge 28, Type (0, 1), BuildingBlock: UVAHIK_clean_linker_0, # of connection points: 2
#     Edge 29, Type (0, 1), BuildingBlock: UVAHIK_clean_linker_0, # of connection points: 2
#     Edge 30, Type (0, 1), BuildingBlock: UVAHIK_clean_linker_0, # of connection points: 2
#     Edge 31, Type (0, 1), BuildingBlock: UVAHIK_clean_linker_0, # of connection points: 2
#     Edge 32, Type (0, 1), BuildingBlock: UVAHIK_clean_linker_0, # of connection points: 2
#     Edge 33, Type (0, 1), BuildingBlock: UVAHIK_clean_linker_0, # of connection points: 2
#     Edge 34, Type (0, 1), BuildingBlock: UVAHIK_clean_linker_0, # of connection points: 2
#     Edge 35, Type (0, 1), BuildingBlock: UVAHIK_clean_linker_0, # of connection points: 2
# Relax obj value: 0.207
# Max RMSD: 0.224
# Mean RMSD: 0.183
data_MOF--net-zzz--node1-WUSLED_clean_sbu_0--node2-CUKXOW_clean_sbu_0--edge1-UVAHIK_clean_linker_0
_symmetry_space_group_name_H-M    P1
_symmetry_Int_Tables_number       1
_symmetry_cell_setting            triclinic
loop_
_symmetry_equiv_pos_as_xyz
'x, y, z'
_cell_length_a     77.031535
_cell_length_b     75.130162
_cell_length_c     26.689934
_cell_angle_alpha  92.320424
_cell_angle_beta   88.485524
_cell_angle_gamma 95.37451
loop_
_atom_site_label
_atom_site_type_symbol
_atom_site_fract_x
_atom_site_fract_y
_atom_site_fract_z
_atom_type_partial_charge
C0 C 0.76688 0.48229 0.26696 0.0
C1 C 0.77873 0.46926 0.27026 0.0
C2 C 0.79284 0.4858 0.34076 0.0
C3 C 0.79147 0.47094 0.30687 0.0
C4 C 0.78079 0.4987 0.338 0.0
C5 C 0.76791 0.49693 0.30148 0.0
U6 U 0.76117 0.47207 0.13069 0.0
O7 O 0.74048 0.45785 0.08486 0.0
O8 O 0.74985 0.48572 0.0697 0.0
C9 C 0.73868 0.4719 0.05824 0.0
C10 C 0.75495 0.48163 0.22424 0.0
C11 C 0.72067 0.47538 0.04622 0.0
C12 C 0.69891 0.49593 0.03064 0.0
C13 C 0.71502 0.49266 0.04989 0.0
C14 C 0.69359 0.46465 0.0053 0.0
C15 C 0.68814 0.48202 0.00719 0.0
C16 C 0.70965 0.4614 0.02447 0.0
C17 C 0.80322 0.45686 0.06739 0.0
C18 C 0.81147 0.45792 0.97904 0.0
C19 C 0.82997 0.44507 0.03727 0.0
C20 C 0.81819 0.44838 0.07636 0.0
C21 C 0.82699 0.4502 0.98835 0.0
C22 C 0.79965 0.46122 0.01832 0.0
C23 C 0.79255 0.46244 0.11048 0.0
O24 O 0.75956 0.49327 0.18973 0.0
O25 O 0.75005 0.46555 0.20527 0.0
O26 O 0.77941 0.45111 0.12415 0.0
O27 O 0.7887 0.47912 0.11119 0.0
H28 H 0.77853 0.45802 0.2435 0.0
H29 H 0.8007 0.46093 0.30729 0.0
H30 H 0.78144 0.51025 0.36374 0.0
H31 H 0.75906 0.50725 0.29927 0.0
H32 H 0.69502 0.50943 0.03334 0.0
H33 H 0.72324 0.50377 0.06622 0.0
H34 H 0.68581 0.45365 0.98692 0.0
H35 H 0.71379 0.44801 0.02041 0.0
H36 H 0.8087 0.46184 0.94169 0.0
H37 H 0.84188 0.43936 0.04603 0.0
H38 H 0.82116 0.44499 0.11409 0.0
H39 H 0.78808 0.46773 0.01075 0.0
C40 C 0.92073 0.76945 0.26771 0.0
C41 C 0.91564 0.78662 0.26065 0.0
C42 C 0.92393 0.796 0.34571 0.0
C43 C 0.91716 0.79972 0.29923 0.0
C44 C 0.92853 0.7786 0.35319 0.0
C45 C 0.92695 0.76543 0.31442 0.0
U46 U 0.92459 0.76389 0.12928 0.0
O47 O 0.94146 0.74889 0.07919 0.0
O48 O 0.91296 0.74445 0.0727 0.0
C49 C 0.92824 0.73965 0.05721 0.0
C50 C 0.92163 0.75678 0.22441 0.0
C51 C 0.92964 0.72036 0.04878 0.0
C52 C 0.9416 0.69277 0.06891 0.0
C53 C 0.93857 0.7105 0.08165 0.0
C54 C 0.92614 0.69439 0.99159 0.0
C55 C 0.93572 0.68464 0.02321 0.0
C56 C 0.92315 0.71207 0.00429 0.0
C57 C 0.9282 0.80772 0.06026 0.0
C58 C 0.94406 0.81335 0.98178 0.0
C59 C 0.92542 0.83512 0.0173 0.0
C60 C 0.9209 0.82402 0.05725 0.0
C61 C 0.93746 0.83012 0.98001 0.0
C62 C 0.93938 0.80217 0.02146 0.0
C63 C 0.92529 0.79751 0.106 0.0
O64 O 0.90818 0.75561 0.19462 0.0
O65 O 0.93669 0.75821 0.19992 0.0
O66 O 0.93896 0.79021 0.1213 0.0
O67 O 0.91076 0.7869 0.10876 0.0
H68 H 0.91113 0.79013 0.22455 0.0
H69 H 0.91381 0.81302 0.29173 0.0
H70 H 0.93367 0.77527 0.38866 0.0
H71 H 0.93114 0.75233 0.32035 0.0
H72 H 0.94884 0.68554 0.09435 0.0
H73 H 0.94364 0.71664 0.11634 0.0
H74 H 0.92162 0.68868 0.95583 0.0
H75 H 0.91631 0.7195 0.97834 0.0
H76 H 0.95323 0.80912 0.95325 0.0
H77 H 0.92026 0.84804 0.0171 0.0
H78 H 0.91225 0.82849 0.08686 0.0
H79 H 0.94504 0.78953 0.02289 0.0
C80 C 0.73603 0.00747 0.31504 0.0
C81 C 0.72127 0.01584 0.30241 0.0
C82 C 0.7075 0.00944 0.38363 0.0
C83 C 0.70724 0.01682 0.33612 0.0
C84 C 0.72243 0.00127 0.39672 0.0
C85 C 0.73657 0.00027 0.36262 0.0
U86 U 0.74346 0.00093 0.18004 0.0
O87 O 0.76206 0.01234 0.12358 0.0
O88 O 0.75814 0.98313 0.13048 0.0
C89 C 0.76671 0.99662 0.10783 0.0
C90 C 0.7495 0.00456 0.2758 0.0
C91 C 0.78539 0.99531 0.09564 0.0
C92 C 0.81573 0.00784 0.09542 0.0
C93 C 0.79855 0.00787 0.1143 0.0
C94 C 0.80689 0.98237 0.04047 0.0
C95 C 0.82004 0.9953 0.05746 0.0
C96 C 0.78981 0.98239 0.05936 0.0
C97 C 0.69848 0.00108 0.11721 0.0
C98 C 0.6917 0.99672 0.029 0.0
C99 C 0.66897 0.00282 0.09019 0.0
C100 C 0.68105 0.00369 0.12828 0.0
C101 C 0.67411 0.99925 0.04014 0.0
C102 C 0.70385 0.99759 0.06744 0.0
C103 C 0.71054 0.00208 0.15885 0.0
O104 O 0.74751 0.9888 0.25227 0.0
O105 O 0.75278 0.01779 0.24506 0.0
O106 O 0.72172 0.01637 0.16199 0.0
O107 O 0.71733 0.98722 0.16847 0.0
H108 H 0.72028 0.02116 0.26559 0.0
H109 H 0.69589 0.0228 0.324 0.0
H110 H 0.72312 0.99551 0.43307 0.0
H111 H 0.7477 0.99351 0.3729 0.0
H112 H 0.82555 0.01784 0.10994 0.0
H113 H 0.79549 0.01802 0.14226 0.0
H114 H 0.80957 0.97268 0.0108 0.0
H115 H 0.77984 0.97272 0.04394 0.0
H116 H 0.69602 0.99391 0.99079 0.0
H117 H 0.65564 0.00524 0.09994 0.0
H118 H 0.67675 0.00649 0.16656 0.0
H119 H 0.71733 0.99554 0.05844 0.0
C120 C 0.60223 0.73895 0.28868 0.0
C121 C 0.60716 0.72181 0.27577 0.0
C122 C 0.60082 0.71243 0.36106 0.0
C123 C 0.60651 0.70872 0.31154 0.0
C124 C 0.5966 0.72988 0.3744 0.0
C125 C 0.59726 0.74302 0.3384 0.0
U126 U 0.59517 0.7438 0.15328 0.0
O127 O 0.576 0.75734 0.11292 0.0
O128 O 0.60405 0.76357 0.09732 0.0
C129 C 0.58808 0.76734 0.08858 0.0
C130 C 0.59985 0.75137 0.24876 0.0
C131 C 0.58505 0.78635 0.08406 0.0
C132 C 0.56573 0.80789 0.05799 0.0
C133 C 0.56849 0.79051 0.07021 0.0
C134 C 0.59595 0.81756 0.07476 0.0
C135 C 0.57951 0.82156 0.05905 0.0
C136 C 0.59872 0.80012 0.08708 0.0
C137 C 0.59242 0.69995 0.07534 0.0
C138 C 0.57597 0.6944 0.99905 0.0
C139 C 0.59469 0.6725 0.02556 0.0
C140 C 0.59956 0.68359 0.06709 0.0
C141 C 0.58247 0.67759 0.99192 0.0
C142 C 0.58098 0.70555 0.04032 0.0
C143 C 0.59586 0.71029 0.12246 0.0
O144 O 0.61261 0.75316 0.21498 0.0
O145 O 0.58435 0.74903 0.22889 0.0
O146 O 0.58215 0.71671 0.14414 0.0
O147 O 0.60983 0.72177 0.12271 0.0
H148 H 0.61072 0.71827 0.23734 0.0
H149 H 0.60954 0.69539 0.29955 0.0
H150 H 0.59234 0.73324 0.4123 0.0
H151 H 0.59322 0.75611 0.34892 0.0
H152 H 0.55297 0.81038 0.04527 0.0
H153 H 0.55779 0.78012 0.06675 0.0
H154 H 0.60679 0.82783 0.07645 0.0
H155 H 0.61167 0.79734 0.09735 0.0
H156 H 0.56667 0.6987 0.9734 0.0
H157 H 0.59979 0.65956 0.02124 0.0
H158 H 0.6084 0.67908 0.09378 0.0
H159 H 0.57544 0.71823 0.0459 0.0
C160 C 0.23837 0.51844 0.08678 0.0
C161 C 0.22359 0.50619 0.0935 0.0
C162 C 0.21161 0.51451 0.0151 0.0
C163 C 0.21043 0.50424 0.05814 0.0
C164 C 0.22662 0.5264 0.00758 0.0
C165 C 0.23987 0.5283 0.04299 0.0
U166 U 0.24648 0.53463 0.21901 0.0
O167 O 0.25975 0.52416 0.28179 0.0
O168 O 0.26765 0.55137 0.25706 0.0
C169 C 0.27067 0.53862 0.28718 0.0
C170 C 0.25125 0.52217 0.12724 0.0
C171 C 0.28911 0.53603 0.2963 0.0
C172 C 0.31233 0.51663 0.30602 0.0
C173 C 0.29566 0.51922 0.28957 0.0
C174 C 0.31644 0.54773 0.33425 0.0
C175 C 0.32279 0.53078 0.32949 0.0
C176 C 0.29979 0.5503 0.31794 0.0
C177 C 0.20394 0.54879 0.28444 0.0
C178 C 0.17912 0.56476 0.31101 0.0
C179 C 0.19054 0.54434 0.36702 0.0
C180 C 0.20354 0.54087 0.33132 0.0
C181 C 0.17776 0.55575 0.35628 0.0
C182 C 0.19207 0.56127 0.27539 0.0
C183 C 0.21475 0.54257 0.24213 0.0
O184 O 0.2548 0.53917 0.14041 0.0
O185 O 0.24907 0.51183 0.16595 0.0
O186 O 0.21977 0.52639 0.24446 0.0
O187 O 0.22682 0.55422 0.22385 0.0
H188 H 0.22184 0.49844 0.12691 0.0
H189 H 0.19898 0.49515 0.06561 0.0
H190 H 0.22804 0.53438 0.97457 0.0
H191 H 0.25108 0.53786 0.03682 0.0
H192 H 0.31692 0.50347 0.30114 0.0
H193 H 0.28773 0.50794 0.27304 0.0
H194 H 0.324 0.55888 0.35266 0.0
H195 H 0.29496 0.56332 0.32409 0.0
H196 H 0.16961 0.57382 0.30205 0.0
H197 H 0.18978 0.53714 0.40148 0.0
H198 H 0.21263 0.53124 0.33929 0.0
H199 H 0.1922 0.56757 0.23955 0.0
C200 C 0.08348 0.24324 0.10189 0.0
C201 C 0.0982 0.23409 0.08917 0.0
C202 C 0.0819 0.21611 0.02497 0.0
C203 C 0.09743 0.22073 0.05104 0.0
C204 C 0.06758 0.22608 0.03558 0.0
C205 C 0.06841 0.23955 0.07335 0.0
U206 U 0.08107 0.24705 0.24251 0.0
O207 O 0.0928 0.26643 0.29911 0.0
O208 O 0.06428 0.26127 0.29484 0.0
C209 C 0.07751 0.27088 0.3157 0.0
C210 C 0.08293 0.25499 0.14783 0.0
C211 C 0.07572 0.29014 0.32352 0.0
C212 C 0.06234 0.31705 0.30442 0.0
C213 C 0.06547 0.29931 0.29234 0.0
C214 C 0.08031 0.31686 0.37751 0.0
C215 C 0.06949 0.32591 0.34766 0.0
C216 C 0.08336 0.29914 0.36557 0.0
C217 C 0.07877 0.20274 0.30898 0.0
C218 C 0.06348 0.19626 0.38784 0.0
C219 C 0.08241 0.17517 0.35014 0.0
C220 C 0.08646 0.18661 0.31065 0.0
C221 C 0.07047 0.17965 0.3883 0.0
C222 C 0.06768 0.20778 0.34863 0.0
C223 C 0.08116 0.2133 0.26373 0.0
O224 O 0.06815 0.25318 0.17371 0.0
O225 O 0.0967 0.25609 0.17639 0.0
O226 O 0.09551 0.22418 0.26063 0.0
O227 O 0.06722 0.22045 0.24978 0.0
H228 H 0.11012 0.23671 0.1099 0.0
H229 H 0.10886 0.21365 0.04304 0.0
H230 H 0.05536 0.22288 0.01667 0.0
H231 H 0.0569 0.24646 0.08199 0.0
H232 H 0.05412 0.32374 0.28039 0.0
H233 H 0.05951 0.29265 0.25948 0.0
H234 H 0.08584 0.32321 0.41138 0.0
H235 H 0.09124 0.29226 0.39019 0.0
H236 H 0.05438 0.2001 0.41706 0.0
H237 H 0.08788 0.16239 0.34935 0.0
H238 H 0.09504 0.18252 0.28037 0.0
H239 H 0.06173 0.22028 0.34826 0.0
C240 C 0.28327 0.01362 0.08015 0.0
C241 C 0.29369 0.02936 0.06821 0.0
C242 C 0.31239 0.0123 0.0134 0.0
C243 C 0.30806 0.0287 0.0352 0.0
C244 C 0.30137 0.99674 0.02291 0.0
C245 C 0.28693 0.99741 0.05566 0.0
U246 U 0.27539 0.01507 0.21869 0.0
O247 O 0.25791 0.0286 0.27096 0.0
O248 O 0.25758 0.99929 0.26946 0.0
C249 C 0.25056 0.01348 0.28827 0.0
C250 C 0.27017 0.01358 0.12215 0.0
C251 C 0.23138 0.01184 0.29693 0.0
C252 C 0.20412 0.02568 0.3094 0.0
C253 C 0.22153 0.02653 0.29241 0.0
C254 C 0.20583 0.99527 0.33399 0.0
C255 C 0.19618 0.01018 0.33149 0.0
C256 C 0.22322 0.99612 0.31711 0.0
C257 C 0.31867 0.01802 0.29023 0.0
C258 C 0.32637 0.00492 0.36741 0.0
C259 C 0.34559 0.0287 0.33149 0.0
C260 C 0.33398 0.02965 0.2926 0.0
C261 C 0.34213 0.01599 0.36851 0.0
C262 C 0.31469 0.00596 0.32867 0.0
C263 C 0.30813 0.01754 0.24494 0.0
O264 O 0.26904 0.99927 0.14927 0.0
O265 O 0.27 0.02852 0.14968 0.0
O266 O 0.29967 0.0316 0.23803 0.0
O267 O 0.29905 0.00228 0.23362 0.0
H268 H 0.29126 0.04212 0.08604 0.0
H269 H 0.31629 0.04093 0.02881 0.0
H270 H 0.30416 0.98395 0.00594 0.0
H271 H 0.27908 0.98507 0.06356 0.0
H272 H 0.197 0.03734 0.30628 0.0
H273 H 0.22742 0.03892 0.27745 0.0
H274 H 0.20025 0.98319 0.35134 0.0
H275 H 0.23053 0.9847 0.32195 0.0
H276 H 0.32328 0.99515 0.39583 0.0
H277 H 0.35769 0.0373 0.33109 0.0
H278 H 0.3373 0.03899 0.2632 0.0
H279 H 0.30288 0.99692 0.32785 0.0
C280 C 0.42315 0.28789 0.10799 0.0
C281 C 0.41028 0.29512 0.08101 0.0
C282 C 0.43104 0.31987 0.0568 0.0
C283 C 0.41414 0.31103 0.05583 0.0
C284 C 0.44366 0.31314 0.08611 0.0
C285 C 0.43974 0.29733 0.11166 0.0
U286 U 0.42291 0.2509 0.20561 0.0
O287 O 0.40391 0.22743 0.21537 0.0
O288 O 0.43063 0.22382 0.18905 0.0
C289 C 0.41563 0.21607 0.20498 0.0
C290 C 0.41969 0.26953 0.12589 0.0
C291 C 0.41707 0.20215 0.24142 0.0
C292 C 0.42417 0.17217 0.258 0.0
C293 C 0.421 0.18512 0.2241 0.0
C294 C 0.41894 0.193 0.32724 0.0
C295 C 0.4234 0.17601 0.31004 0.0
C296 C 0.41591 0.20599 0.29323 0.0
C297 C 0.44054 0.28547 0.30752 0.0
C298 C 0.44484 0.30601 0.37957 0.0
C299 C 0.45374 0.31577 0.29657 0.0
C300 C 0.44778 0.2989 0.27612 0.0
C301 C 0.45249 0.31946 0.34867 0.0
C302 C 0.43897 0.2892 0.35917 0.0
C303 C 0.43483 0.26734 0.28806 0.0
O304 O 0.43344 0.26106 0.13424 0.0
O305 O 0.40701 0.26662 0.15939 0.0
O306 O 0.44492 0.26038 0.25348 0.0
O307 O 0.41812 0.2642 0.27899 0.0
H308 H 0.39743 0.28802 0.07743 0.0
H309 H 0.40419 0.31584 0.03334 0.0
H310 H 0.45672 0.31983 0.08807 0.0
H311 H 0.44992 0.29213 0.13243 0.0
H312 H 0.42786 0.15939 0.24328 0.0
H313 H 0.42213 0.18198 0.18422 0.0
H314 H 0.41798 0.19635 0.36699 0.0
H315 H 0.41301 0.21913 0.3074 0.0
H316 H 0.44333 0.30847 0.41963 0.0
H317 H 0.45965 0.32578 0.27174 0.0
H318 H 0.44903 0.29628 0.23603 0.0
H319 H 0.43329 0.27902 0.3839 0.0
Tb320 Tb 0.998 0.98853 0.65472 0.0
C321 C 0.0362 0.00379 0.62718 0.0
Tb322 Tb 0.01517 0.02014 0.72043 0.0
O323 O 0.99801 0.0055 0.59003 0.0
O324 O 0.99677 0.0165 0.66271 0.0
O325 O 0.02454 0.98959 0.62402 0.0
C326 C 0.03003 0.05129 0.7575 0.0
O327 O 0.03421 0.01775 0.65848 0.0
C328 C 0.01464 0.98829 0.75769 0.0
C329 C 0.97722 0.00467 0.74868 0.0
O330 O 0.03572 0.03577 0.76292 0.0
O331 O 0.01598 0.04924 0.73141 0.0
O332 O 0.01484 0.00303 0.785 0.0
O333 O 0.01638 0.99222 0.71233 0.0
O334 O 0.98857 0.01915 0.75074 0.0
O335 O 0.97946 0.99058 0.7181 0.0
C336 C 0.98316 0.95727 0.61827 0.0
O337 O 0.97627 0.9724 0.61853 0.0
O338 O 0.9984 0.95979 0.63827 0.0
C339 C 0.99841 0.02027 0.61719 0.0
Tb340 Tb 0.5064 0.02351 0.67091 0.0
C341 C 0.54 0.00477 0.64158 0.0
Tb342 Tb 0.51341 0.98982 0.72808 0.0
O343 O 0.52965 0.03836 0.70212 0.0
O344 O 0.51595 0.01784 0.74132 0.0
O345 O 0.52846 0.01532 0.62595 0.0
C346 C 0.52671 0.96578 0.78333 0.0
O347 O 0.53731 0.99505 0.6822 0.0
C348 C 0.49022 0.98494 0.65772 0.0
C349 C 0.48004 0.00891 0.75835 0.0
O350 O 0.5243 0.98205 0.79802 0.0
O351 O 0.52148 0.96298 0.73758 0.0
O352 O 0.49005 0.97515 0.69681 0.0
O353 O 0.5039 0.99552 0.6577 0.0
O354 O 0.49142 0.99808 0.77335 0.0
O355 O 0.48277 0.0187 0.71791 0.0
C356 C 0.49259 0.04727 0.61599 0.0
O357 O 0.49929 0.05059 0.65988 0.0
O358 O 0.49386 0.03062 0.60277 0.0
C359 C 0.52956 0.02855 0.74116 0.0
Tb360 Tb 0.51838 0.52126 0.62503 0.0
C361 C 0.47894 0.5105 0.60196 0.0
Tb362 Tb 0.49836 0.49138 0.68601 0.0
O363 O 0.51599 0.50475 0.55575 0.0
O364 O 0.51654 0.49294 0.62515 0.0
O365 O 0.492 0.52337 0.60012 0.0
C366 C 0.48136 0.46194 0.72272 0.0
O367 O 0.4795 0.496 0.62881 0.0
C368 C 0.5028 0.52306 0.73148 0.0
C369 C 0.53769 0.50203 0.70935 0.0
O370 O 0.49537 0.46239 0.69453 0.0
O371 O 0.47673 0.47806 0.72943 0.0
O372 O 0.50125 0.50817 0.75489 0.0
O373 O 0.50028 0.5196 0.68563 0.0
O374 O 0.52474 0.48906 0.71049 0.0
O375 O 0.53709 0.51655 0.68266 0.0
C376 C 0.53569 0.55159 0.59483 0.0
O377 O 0.54086 0.5357 0.58742 0.0
O378 O 0.5208 0.55031 0.61882 0.0
C379 C 0.51413 0.48981 0.579 0.0
Tb380 Tb 0.9851 0.50624 0.64902 0.0
C381 C 0.01281 0.48036 0.6126 0.0
Tb382 Tb 0.0187 0.5056 0.71053 0.0
O383 O 1.00004 0.51689 0.58456 0.0
O384 O 0.0092 0.52213 0.65704 0.0
O385 O 0.996 0.48313 0.61295 0.0
C386 C 0.05097 0.50647 0.74632 0.0
O387 O 0.02419 0.48934 0.64312 0.0
C388 C 0.99054 0.48785 0.74683 0.0
C389 C 0.99153 0.53214 0.74588 0.0
O390 O 0.03981 0.49244 0.7429 0.0
O391 O 0.04396 0.52003 0.72943 0.0
O392 O 0.00317 0.49494 0.77448 0.0
O393 O 0.99483 0.48959 0.70143 0.0
O394 O 0.0082 0.52895 0.7459 0.0
O395 O 0.98 0.52335 0.71536 0.0
C396 C 0.95257 0.50413 0.61459 0.0
O397 O 0.9638 0.51811 0.61323 0.0
O398 O 0.95963 0.49138 0.63554 0.0
C399 C 0.01307 0.52374 0.61115 0.0
C400 C 0.16659 0.99448 0.35178 0.0
C401 C 0.17839 0.00993 0.35512 0.0
C402 C 0.15046 0.99382 0.37743 0.0
C403 C 0.11909 0.02236 0.44178 0.0
H404 H 0.10391 0.9791 0.51127 0.0
C405 C 0.0638 0.01977 0.59278 0.0
C406 C 0.052 0.00431 0.59389 0.0
C407 C 0.07863 0.02036 0.56125 0.0
C408 C 0.10782 0.9912 0.49158 0.0
H409 H 0.18233 0.03684 0.38801 0.0
H410 H 0.15429 0.0357 0.43251 0.0
H411 H 0.13054 0.98038 0.4597 0.0
H412 H 0.04655 0.97738 0.5621 0.0
H413 H 0.07236 0.97846 0.507 0.0
H414 H 0.09645 0.03325 0.47412 0.0
C415 C 0.15736 0.02417 0.40947 0.0
C416 C 0.1231 0.99193 0.46191 0.0
C417 C 0.17347 0.02483 0.38383 0.0
C418 C 0.05538 0.98948 0.56246 0.0
C419 C 0.07024 0.99007 0.531 0.0
C420 C 0.10381 0.02164 0.47147 0.0
C421 C 0.14572 0.00858 0.40712 0.0
C422 C 0.12901 0.00756 0.43687 0.0
C423 C 0.08207 0.00551 0.53001 0.0
C424 C 0.09803 0.00609 0.49704 0.0
H425 H 0.16984 0.98285 0.32947 0.0
H426 H 0.1417 0.98171 0.37404 0.0
H427 H 0.12309 0.03452 0.42243 0.0
H428 H 0.06163 0.03148 0.61628 0.0
H429 H 0.08755 0.03239 0.56196 0.0
C430 C 0.43808 0.16827 0.38826 0.0
C431 C 0.42823 0.16269 0.34587 0.0
C432 C 0.44379 0.15575 0.41986 0.0
C433 C 0.43739 0.10782 0.45248 0.0
H434 H 0.48442 0.11751 0.50144 0.0
C435 C 0.47522 0.05461 0.54312 0.0
C436 C 0.48447 0.06025 0.58643 0.0
C437 C 0.46749 0.06699 0.51524 0.0
C438 C 0.4712 0.11469 0.48847 0.0
H439 H 0.41609 0.13948 0.30486 0.0
H440 H 0.42658 0.11764 0.35887 0.0
H441 H 0.4723 0.13931 0.45074 0.0
H442 H 0.4928 0.08308 0.63502 0.0
H443 H 0.47948 0.10475 0.58604 0.0
H444 H 0.43657 0.08294 0.48952 0.0
C445 C 0.4297 0.13173 0.36811 0.0
C446 C 0.4642 0.12722 0.45954 0.0
C447 C 0.42387 0.14426 0.3367 0.0
C448 C 0.4858 0.07842 0.6016 0.0
C449 C 0.47824 0.09081 0.57349 0.0
C450 C 0.44446 0.0952 0.48114 0.0
C451 C 0.43995 0.1373 0.4097 0.0
C452 C 0.44719 0.12398 0.44123 0.0
C453 C 0.46904 0.08524 0.52994 0.0
C454 C 0.46143 0.09854 0.49951 0.0
H455 H 0.44186 0.18232 0.39633 0.0
H456 H 0.45138 0.16056 0.45205 0.0
H457 H 0.42417 0.10497 0.4396 0.0
H458 H 0.47394 0.04063 0.53083 0.0
H459 H 0.46058 0.06233 0.48167 0.0
C460 C 0.35412 0.5407 0.34906 0.0
C461 C 0.33976 0.52772 0.35179 0.0
C462 C 0.36958 0.53847 0.37349 0.0
C463 C 0.39402 0.50461 0.43175 0.0
H464 H 0.41656 0.54594 0.50378 0.0
C465 C 0.44911 0.49891 0.57223 0.0
C466 C 0.46316 0.5123 0.57236 0.0
C467 C 0.43432 0.5006 0.54405 0.0
C468 C 0.41057 0.5343 0.48338 0.0
H469 H 0.33056 0.5021 0.38215 0.0
H470 H 0.35749 0.49819 0.42455 0.0
H471 H 0.39063 0.54908 0.45583 0.0
H472 H 0.47262 0.53795 0.54241 0.0
H473 H 0.44696 0.54078 0.49313 0.0
H474 H 0.41394 0.48982 0.45955 0.0
C475 C 0.35688 0.51001 0.40298 0.0
C476 C 0.39569 0.5361 0.4558 0.0
C477 C 0.34143 0.51224 0.37855 0.0
C478 C 0.46205 0.52739 0.54349 0.0
C479 C 0.44726 0.52908 0.51536 0.0
C480 C 0.40892 0.5028 0.45934 0.0
C481 C 0.37109 0.52319 0.4013 0.0
C482 C 0.38719 0.52128 0.42968 0.0
C483 C 0.43319 0.51572 0.51529 0.0
C484 C 0.41738 0.51762 0.48559 0.0
H485 H 0.3534 0.55266 0.32816 0.0
H486 H 0.38036 0.54874 0.3706 0.0
H487 H 0.38795 0.49296 0.41156 0.0
H488 H 0.44948 0.4871 0.59397 0.0
H489 H 0.42365 0.49015 0.5454 0.0
C490 C 0.04736 0.34815 0.36249 0.0
C491 C 0.06477 0.34403 0.36384 0.0
C492 C 0.04251 0.36441 0.38308 0.0
C493 C 0.05668 0.39899 0.47856 0.0
H494 H 0.0211 0.42516 0.42297 0.0
C495 C 0.03717 0.46453 0.57296 0.0
C496 C 0.01922 0.46648 0.57764 0.0
C497 C 0.04326 0.45085 0.54226 0.0
C498 C 0.03097 0.41792 0.43911 0.0
H499 H 0.09092 0.3542 0.38515 0.0
H500 H 0.08248 0.38263 0.42078 0.0
H501 H 0.03104 0.39918 0.37641 0.0
H502 H 0.99362 0.45585 0.55246 0.0
H503 H 0.00426 0.43181 0.49934 0.0
H504 H 0.05645 0.41746 0.54154 0.0
C505 C 0.07251 0.37313 0.40477 0.0
C506 C 0.03667 0.40306 0.41242 0.0
C507 C 0.07735 0.35686 0.38428 0.0
C508 C 0.00754 0.45473 0.54976 0.0
C509 C 0.01364 0.441 0.51907 0.0
C510 C 0.05099 0.41381 0.50516 0.0
C511 C 0.05497 0.37693 0.40541 0.0
C512 C 0.04953 0.39335 0.43201 0.0
C513 C 0.03156 0.43875 0.51555 0.0
C514 C 0.038 0.42341 0.48594 0.0
H515 H 0.03732 0.33847 0.34759 0.0
H516 H 0.02887 0.36681 0.38343 0.0
H517 H 0.06633 0.39162 0.49525 0.0
H518 H 0.04659 0.47346 0.59337 0.0
H519 H 0.05717 0.4497 0.53967 0.0
C520 C 0.84531 0.98059 0.01716 0.0
C521 C 0.83778 0.99629 0.03314 0.0
C522 C 0.86105 0.9815 0.98965 0.0
C523 C 0.90028 0.01129 0.95647 0.0
H524 H 0.90162 0.98014 0.8373 0.0
C525 C 0.95624 0.01941 0.80706 0.0
C526 C 0.96169 0.00384 0.78291 0.0
C527 C 0.94153 0.0185 0.83919 0.0
C528 C 0.90163 0.98876 0.87081 0.0
H529 H 0.84137 0.02529 0.03356 0.0
H530 H 0.86899 0.02683 0.98638 0.0
H531 H 0.87576 0.97836 0.89187 0.0
H532 H 0.95624 0.97502 0.77494 0.0
H533 H 0.93095 0.97339 0.83157 0.0
H534 H 0.92622 0.02159 0.93571 0.0
C535 C 0.86267 0.01382 0.9953 0.0
C536 C 0.88675 0.98775 0.9021 0.0
C537 C 0.84684 0.01292 0.02255 0.0
C538 C 0.95225 0.98733 0.79224 0.0
C539 C 0.93767 0.9864 0.82469 0.0
C540 C 0.91525 0.01221 0.92535 0.0
C541 C 0.86979 0.99811 0.97769 0.0
C542 C 0.88587 0.99901 0.94526 0.0
C543 C 0.932 0.00198 0.84838 0.0
C544 C 0.91613 0.00097 0.88199 0.0
H545 H 0.83892 0.96755 0.02544 0.0
H546 H 0.86636 0.96915 0.97744 0.0
H547 H 0.90007 0.02004 0.9897 0.0
H548 H 0.9632 0.03235 0.80064 0.0
H549 H 0.93747 0.03083 0.85613 0.0
C550 C 0.58953 0.84808 0.00782 0.0
C551 C 0.57692 0.83941 0.03978 0.0
C552 C 0.58616 0.86365 0.98434 0.0
C553 C 0.55601 0.89962 0.98479 0.0
H554 H 0.56844 0.90057 0.84312 0.0
C555 C 0.5407 0.9576 0.8615 0.0
C556 C 0.5342 0.95261 0.81381 0.0
C557 C 0.54756 0.94502 0.89071 0.0
C558 C 0.56482 0.90048 0.8826 0.0
H559 H 0.5513 0.84097 0.07445 0.0
H560 H 0.54526 0.86787 0.03268 0.0
H561 H 0.5774 0.87677 0.89303 0.0
H562 H 0.52989 0.93074 0.75889 0.0
H563 H 0.54157 0.90867 0.81005 0.0
H564 H 0.54281 0.92294 0.97377 0.0
C565 C 0.55782 0.86273 0.02597 0.0
C566 C 0.57017 0.88697 0.91143 0.0
C567 C 0.5612 0.84718 0.04953 0.0
C568 C 0.53484 0.93492 0.79555 0.0
C569 C 0.54165 0.92232 0.82475 0.0
C570 C 0.55064 0.91314 0.9559 0.0
C571 C 0.57009 0.87092 0.99217 0.0
C572 C 0.56564 0.88622 0.96275 0.0
C573 C 0.54804 0.92719 0.87278 0.0
C574 C 0.55477 0.91358 0.90429 0.0
H575 H 0.60172 0.84241 0.99914 0.0
H576 H 0.59601 0.86978 0.95914 0.0
H577 H 0.55246 0.89955 0.02432 0.0
H578 H 0.54048 0.97123 0.87625 0.0
H579 H 0.55259 0.94927 0.92722 0.0
C580 C 0.67139 0.50101 0.95368 0.0
C581 C 0.67184 0.48566 0.98195 0.0
C582 C 0.65663 0.50369 0.92647 0.0
C583 C 0.60947 0.48868 0.91332 0.0
H584 H 0.61687 0.50637 0.77921 0.0
C585 C 0.55408 0.48564 0.7703 0.0
C586 C 0.55318 0.50053 0.74044 0.0
C587 C 0.5684 0.48443 0.80071 0.0
C588 C 0.61455 0.50161 0.81679 0.0
H589 H 0.65673 0.46144 0.00513 0.0
H590 H 0.63118 0.46592 0.95697 0.0
H591 H 0.64186 0.50345 0.83142 0.0
H592 H 0.56676 0.52585 0.71947 0.0
H593 H 0.59172 0.52371 0.77253 0.0
H594 H 0.58216 0.48665 0.89836 0.0
C595 C 0.64219 0.47599 0.9561 0.0
C596 C 0.62889 0.49996 0.84683 0.0
C597 C 0.65694 0.47332 0.98334 0.0
C598 C 0.56703 0.51414 0.74167 0.0
C599 C 0.58139 0.51289 0.77201 0.0
C600 C 0.59513 0.49028 0.88322 0.0
C601 C 0.64191 0.4911 0.92676 0.0
C602 C 0.62656 0.4934 0.89544 0.0
C603 C 0.58224 0.49804 0.80203 0.0
C604 C 0.59749 0.49669 0.83448 0.0
H605 H 0.68266 0.51073 0.95125 0.0
H606 H 0.6568 0.51562 0.90491 0.0
H607 H 0.60713 0.48385 0.95081 0.0
H608 H 0.54368 0.47489 0.7704 0.0
H609 H 0.56872 0.47269 0.82282 0.0
C610 C 0.95773 0.66208 0.01255 0.0
C611 C 0.94065 0.66665 0.00631 0.0
C612 C 0.96307 0.64615 0.9911 0.0
C613 C 0.94709 0.60221 0.93206 0.0
H614 H 0.99191 0.60688 0.86183 0.0
C615 C 0.96804 0.55013 0.78232 0.0
C616 C 0.98556 0.54623 0.78097 0.0
C617 C 0.96254 0.56379 0.81436 0.0
C618 C 0.97948 0.60524 0.88185 0.0
H619 H 0.91551 0.65752 0.97511 0.0
H620 H 0.92491 0.62991 0.93689 0.0
H621 H 0.98231 0.63223 0.91111 0.0
H622 H 0.01094 0.55343 0.81333 0.0
H623 H 1.00132 0.57713 0.86931 0.0
H624 H 0.94419 0.57526 0.90188 0.0
C625 C 0.93417 0.63859 0.95859 0.0
C626 C 0.97398 0.61979 0.9102 0.0
C627 C 0.92882 0.65451 0.98007 0.0
C628 C 0.99737 0.55612 0.81307 0.0
C629 C 0.99188 0.56978 0.84506 0.0
C630 C 0.9526 0.58764 0.90361 0.0
C631 C 0.95147 0.63442 0.96287 0.0
C632 C 0.95766 0.6185 0.93538 0.0
C633 C 0.97444 0.57388 0.84578 0.0
C634 C 0.96881 0.58904 0.87788 0.0
H635 H 0.96722 0.67117 0.03217 0.0
H636 H 0.97641 0.64321 0.99578 0.0
H637 H 0.93455 0.60071 0.95147 0.0
H638 H 0.95856 0.54278 0.75819 0.0
H639 H 0.94906 0.56673 0.81358 0.0
C640 C 0.04595 0.16236 0.43298 0.0
C641 C 0.06397 0.16623 0.42514 0.0
C642 C 0.03954 0.14814 0.46232 0.0
C643 C 0.05275 0.10545 0.50563 0.0
H644 H 0.00804 0.10428 0.57615 0.0
C645 C 0.01458 0.03896 0.55336 0.0
C646 C 0.00506 0.03788 0.59879 0.0
C647 C 0.02219 0.05543 0.53753 0.0
C648 C 0.02067 0.10441 0.5573 0.0
H649 H 0.08948 0.159 0.44413 0.0
H650 H 0.07835 0.13446 0.49693 0.0
H651 H 0.02125 0.13233 0.5439 0.0
H652 H 0.99495 0.05309 0.66168 0.0
H653 H 0.00894 0.0819 0.6355 0.0
H654 H 0.05243 0.07768 0.52016 0.0
C655 C 0.06911 0.14206 0.47918 0.0
C656 C 0.02815 0.12047 0.53817 0.0
C657 C 0.07551 0.15616 0.44922 0.0
C658 C 0.00273 0.05359 0.6273 0.0
C659 C 0.01052 0.07009 0.61184 0.0
C660 C 0.04539 0.08946 0.52528 0.0
C661 C 0.05102 0.13756 0.48502 0.0
C662 C 0.0441 0.12111 0.511 0.0
C663 C 0.02052 0.07118 0.56695 0.0
C664 C 0.02903 0.08861 0.55022 0.0
H665 H 0.03675 0.16974 0.41429 0.0
H666 H 0.02556 0.14495 0.46509 0.0
H667 H 0.06495 0.1053 0.48459 0.0
H668 H 0.01648 0.02703 0.53048 0.0
H669 H 0.02936 0.05577 0.50209 0.0
C670 C 0.35993 0.99587 0.41372 0.0
C671 C 0.35564 0.01324 0.40524 0.0
C672 C 0.37377 0.99319 0.44437 0.0
C673 C 0.39865 0.99002 0.52819 0.0
H674 H 0.44065 0.02256 0.5182 0.0
C675 C 0.458 0.98387 0.65124 0.0
C676 C 0.47463 0.98737 0.62914 0.0
C677 C 0.44317 0.98743 0.62588 0.0
C678 C 0.42908 0.01325 0.52108 0.0
H679 H 0.36205 0.0414 0.42364 0.0
H680 H 0.38605 0.03673 0.47825 0.0
H681 H 0.41512 0.02803 0.47134 0.0
H682 H 0.48894 0.99659 0.5629 0.0
H683 H 0.46299 0.00244 0.51765 0.0
H684 H 0.41282 0.9748 0.57614 0.0
C685 C 0.37896 0.02519 0.46025 0.0
C686 C 0.41433 0.01655 0.49482 0.0
C687 C 0.36518 0.02787 0.42921 0.0
C688 C 0.47621 0.99401 0.58079 0.0
C689 C 0.46137 0.99745 0.55515 0.0
C690 C 0.41343 0.98665 0.5541 0.0
C691 C 0.38359 0.00781 0.46761 0.0
C692 C 0.39897 0.0049 0.49776 0.0
C693 C 0.44467 0.99433 0.57757 0.0
C694 C 0.42886 0.99815 0.55065 0.0
H695 H 0.35302 0.98435 0.39505 0.0
H696 H 0.37713 0.97965 0.44839 0.0
H697 H 0.38698 0.9809 0.53192 0.0
H698 H 0.45648 0.97889 0.68879 0.0
H699 H 0.43057 0.98512 0.64461 0.0
C700 C 0.45703 0.35309 0.34758 0.0
C701 C 0.45932 0.3371 0.37116 0.0
C702 C 0.46314 0.36964 0.36963 0.0
C703 C 0.47556 0.39128 0.49171 0.0
H704 H 0.4992 0.42826 0.41077 0.0
C705 C 0.50992 0.4564 0.57986 0.0
C706 C 0.50824 0.47229 0.5554 0.0
C707 C 0.50405 0.43986 0.55735 0.0
C708 C 0.49244 0.41816 0.43385 0.0
H709 H 0.47036 0.32601 0.4357 0.0
H710 H 0.48085 0.3548 0.47419 0.0
H711 H 0.48862 0.39961 0.37118 0.0
H712 H 0.49915 0.48352 0.48845 0.0
H713 H 0.48871 0.45475 0.44935 0.0
H714 H 0.47925 0.40984 0.55433 0.0
C715 C 0.47407 0.35457 0.43908 0.0
C716 C 0.48639 0.40174 0.41112 0.0
C717 C 0.46804 0.33806 0.41699 0.0
C718 C 0.5007 0.47142 0.50797 0.0
C719 C 0.49478 0.45493 0.48552 0.0
C720 C 0.48155 0.40773 0.51442 0.0
C721 C 0.47164 0.37056 0.4158 0.0
C722 C 0.47791 0.3881 0.4398 0.0
C723 C 0.49638 0.43893 0.50988 0.0
C724 C 0.49008 0.42137 0.48579 0.0
H725 H 0.4502 0.35286 0.31258 0.0
H726 H 0.46091 0.38174 0.35101 0.0
H727 H 0.46885 0.38114 0.51473 0.0
H728 H 0.51601 0.45673 0.61603 0.0
H729 H 0.50576 0.4278 0.57682 0.0
C730 C 0.14539 0.55395 0.36579 0.0
C731 C 0.16177 0.55616 0.38835 0.0
C732 C 0.13015 0.55193 0.39502 0.0
C733 C 0.10922 0.55982 0.51507 0.0
H734 H 0.08041 0.51615 0.48029 0.0
C735 C 0.04384 0.53754 0.61983 0.0
C736 C 0.03048 0.52927 0.58987 0.0
C737 C 0.06063 0.54148 0.5994 0.0
C738 C 0.08816 0.52851 0.49017 0.0
H739 H 0.17498 0.55878 0.45936 0.0
H740 H 0.148 0.55545 0.51091 0.0
H741 H 0.10834 0.52267 0.43714 0.0
H742 H 0.02378 0.51959 0.51462 0.0
H743 H 0.05266 0.52703 0.47858 0.0
H744 H 0.08868 0.56601 0.56684 0.0
C745 C 0.14716 0.55524 0.47044 0.0
C746 C 0.1042 0.53215 0.46565 0.0
C747 C 0.16253 0.55705 0.44103 0.0
C748 C 0.03391 0.52576 0.53878 0.0
C749 C 0.05054 0.52985 0.51826 0.0
C750 C 0.09296 0.55629 0.5393 0.0
C751 C 0.13091 0.5522 0.44748 0.0
C752 C 0.11472 0.54796 0.47721 0.0
C753 C 0.06423 0.53741 0.54845 0.0
C754 C 0.0821 0.54074 0.5263 0.0
H755 H 0.14435 0.55294 0.32536 0.0
H756 H 0.11773 0.54968 0.37656 0.0
H757 H 0.11717 0.5721 0.52449 0.0
H758 H 0.04131 0.54093 0.65892 0.0
H759 H 0.07084 0.54737 0.62369 0.0
C760 C 0.93338 0.85349 0.91786 0.0
C761 C 0.94449 0.8432 0.94286 0.0
C762 C 0.94029 0.86742 0.88801 0.0
C763 C 0.95762 0.90379 0.86317 0.0
H764 H 0.00274 0.90412 0.79515 0.0
C765 C 0.99785 0.9696 0.82039 0.0
C766 C 0.0076 0.97071 0.77534 0.0
C767 C 0.98972 0.95321 0.83511 0.0
C768 C 0.99001 0.90423 0.8133 0.0
H769 H 0.97148 0.83906 0.95527 0.0
H770 H 0.98354 0.86355 0.9046 0.0
H771 H 0.98863 0.87619 0.82586 0.0
H772 H 0.01754 0.9556 0.71202 0.0
H773 H 0.00269 0.92693 0.73636 0.0
H774 H 0.95877 0.93169 0.8496 0.0
C775 C 0.96951 0.86067 0.90662 0.0
C776 C 0.98201 0.88823 0.83151 0.0
C777 C 0.9626 0.84662 0.93588 0.0
C778 C 0.00962 0.95509 0.74613 0.0
C779 C 1.00133 0.93867 0.76053 0.0
C780 C 0.96552 0.91971 0.84445 0.0
C781 C 0.95846 0.87152 0.8832 0.0
C782 C 0.96591 0.8879 0.85782 0.0
C783 C 0.9911 0.93757 0.80497 0.0
C784 C 0.98203 0.92024 0.8205 0.0
H785 H 0.91935 0.85099 0.92225 0.0
H786 H 0.93138 0.87524 0.86966 0.0
H787 H 0.94532 0.90416 0.88357 0.0
H788 H 0.99615 0.98147 0.84374 0.0
H789 H 0.98236 0.95283 0.87024 0.0
C790 C 0.66491 0.00749 0.95514 0.0
C791 C 0.66103 0.99875 1.00018 0.0
C792 C 0.65181 0.00903 0.92069 0.0
C793 C 0.60598 0.99253 0.8896 0.0
H794 H 0.6051 0.03983 0.83715 0.0
C795 C 0.54366 0.01802 0.81599 0.0
C796 C 0.5452 0.02623 0.7697 0.0
C797 C 0.55853 0.01397 0.84038 0.0
C798 C 0.60528 0.0265 0.85107 0.0
H799 H 0.64071 0.98363 0.04267 0.0
H800 H 0.61784 0.98679 0.98375 0.0
H801 H 0.63019 0.03286 0.88388 0.0
H802 H 0.56335 0.03748 0.71337 0.0
H803 H 0.58943 0.0308 0.75663 0.0
H804 H 0.58069 0.98647 0.85825 0.0
C805 C 0.63096 0.99235 0.97453 0.0
C806 C 0.61969 0.02245 0.87759 0.0
C807 C 0.64404 0.99073 0.00871 0.0
C808 C 0.56184 0.03116 0.7492 0.0
C809 C 0.57673 0.02728 0.7738 0.0
C810 C 0.59149 0.99665 0.86351 0.0
C811 C 0.63458 0.00189 0.93067 0.0
C812 C 0.62012 0.00549 0.89782 0.0
C813 C 0.5752 0.01839 0.81921 0.0
C814 C 0.59091 0.01375 0.84462 0.0
H815 H 0.67787 0.01383 0.94752 0.0
H816 H 0.6551 0.0162 0.88683 0.0
H817 H 0.606 0.97923 0.90383 0.0
H818 H 0.53094 0.01457 0.83304 0.0
H819 H 0.557 0.00744 0.87588 0.0
C820 C 0.55717 0.66145 0.94757 0.0
C821 C 0.5753 0.66465 0.95269 0.0
C822 C 0.55014 0.6477 0.91538 0.0
C823 C 0.53756 0.62125 0.83311 0.0
H824 H 0.55995 0.57718 0.83435 0.0
C825 C 0.5094 0.5562 0.72877 0.0
C826 C 0.51073 0.54017 0.75288 0.0
C827 C 0.51804 0.57221 0.74742 0.0
C828 C 0.55345 0.58934 0.83386 0.0
H829 H 0.60034 0.6567 0.92607 0.0
H830 H 0.58809 0.63295 0.86857 0.0
H831 H 0.57361 0.60403 0.87578 0.0
H832 H 0.52139 0.52824 0.81646 0.0
H833 H 0.53583 0.55617 0.85037 0.0
H834 H 0.51688 0.60623 0.79377 0.0
C835 C 0.57927 0.64073 0.89049 0.0
C836 C 0.56146 0.60487 0.85691 0.0
C837 C 0.5863 0.65437 0.92319 0.0
C838 C 0.52025 0.54044 0.79698 0.0
C839 C 0.52873 0.55642 0.81596 0.0
C840 C 0.52945 0.60565 0.81049 0.0
C841 C 0.56108 0.63692 0.88714 0.0
C842 C 0.55348 0.62096 0.85764 0.0
C843 C 0.52793 0.57248 0.7911 0.0
C844 C 0.53714 0.58942 0.81145 0.0
H845 H 0.54837 0.66899 0.97038 0.0
H846 H 0.53609 0.64501 0.91455 0.0
H847 H 0.53118 0.63347 0.83216 0.0
H848 H 0.50166 0.55636 0.69556 0.0
H849 H 0.51714 0.58429 0.72723 0.0
C850 C 0.85129 0.43472 0.94612 0.0
C851 C 0.84092 0.44919 0.94901 0.0
C852 C 0.86635 0.43535 0.91566 0.0
C853 C 0.90356 0.44889 0.88802 0.0
H854 H 0.90902 0.47016 0.75786 0.0
C855 C 0.96853 0.48346 0.81618 0.0
C856 C 0.97343 0.4803 0.76587 0.0
C857 C 0.95207 0.47694 0.8341 0.0
C858 C 0.90766 0.464 0.79393 0.0
H859 H 0.83769 0.47517 0.91965 0.0
H860 H 0.86382 0.47615 0.86622 0.0
H861 H 0.87974 0.46284 0.7936 0.0
H862 H 0.96551 0.46705 0.69552 0.0
H863 H 0.93637 0.4561 0.72643 0.0
H864 H 0.93143 0.4505 0.88908 0.0
C865 C 0.86027 0.46429 0.88735 0.0
C866 C 0.89094 0.45992 0.81448 0.0
C867 C 0.84526 0.46371 0.91798 0.0
C868 C 0.96177 0.47015 0.73402 0.0
C869 C 0.9452 0.46379 0.75178 0.0
C870 C 0.92024 0.4531 0.8677 0.0
C871 C 0.87129 0.45041 0.88723 0.0
C872 C 0.88873 0.45261 0.86215 0.0
C873 C 0.94018 0.46718 0.80199 0.0
C874 C 0.92247 0.46102 0.82093 0.0
H875 H 0.84811 0.42319 0.96881 0.0
H876 H 0.87445 0.42432 0.91564 0.0
H877 H 0.90231 0.44345 0.92506 0.0
H878 H 0.97731 0.49124 0.8415 0.0
H879 H 0.94848 0.47992 0.87285 0.0
C880 C 0.06976 0.19964 0.94744 0.0
C881 C 0.08009 0.20003 0.99024 0.0
C882 C 0.06645 0.18384 0.91832 0.0
C883 C 0.0656 0.1348 0.92886 0.0
H884 H 0.05951 0.13407 0.78502 0.0
C885 C 0.05158 0.06884 0.81283 0.0
C886 C 0.03782 0.06845 0.77925 0.0
C887 C 0.05832 0.08503 0.83554 0.0
C888 C 0.06111 0.1341 0.82523 0.0
H889 H 0.0955 0.18405 0.03475 0.0
H890 H 0.09036 0.15686 0.98296 0.0
H891 H 0.06895 0.16222 0.8296 0.0
H892 H 0.02064 0.0846 0.74175 0.0
H893 H 0.03245 0.11293 0.78134 0.0
H894 H 0.05775 0.10672 0.92449 0.0
C895 C 0.08445 0.16866 0.97252 0.0
C896 C 0.06648 0.15022 0.85081 0.0
C897 C 0.08764 0.1844 0.00183 0.0
C898 C 0.03123 0.08455 0.76767 0.0
C899 C 0.03806 0.10077 0.79007 0.0
C900 C 0.06037 0.1187 0.90326 0.0
C901 C 0.07348 0.16805 0.93108 0.0
C902 C 0.06866 0.1508 0.90306 0.0
C903 C 0.05153 0.10115 0.82477 0.0
C904 C 0.05793 0.11818 0.85124 0.0
H905 H 0.06394 0.21147 0.93689 0.0
H906 H 0.05786 0.18388 0.88688 0.0
H907 H 0.06677 0.13476 0.9692 0.0
H908 H 0.05693 0.0566 0.82223 0.0
H909 H 0.06882 0.08493 0.8617 0.0
C910 C 0.33976 0.99763 0.99206 0.0
C911 C 0.32897 0.01127 0.98386 0.0
C912 C 0.35591 0.99724 0.96703 0.0
C913 C 0.38956 0.02645 0.89944 0.0
H914 H 0.40702 0.98135 0.85693 0.0
C915 C 0.45155 0.0221 0.774 0.0
C916 C 0.46317 0.00966 0.78632 0.0
C917 C 0.4353 0.02236 0.79852 0.0
C918 C 0.4024 0.99405 0.86904 0.0
H919 H 0.32651 0.03493 0.94174 0.0
H920 H 0.35455 0.0341 0.8973 0.0
H921 H 0.37816 0.98147 0.89675 0.0
H922 H 0.46673 0.98774 0.83437 0.0
H923 H 0.43834 0.98822 0.87717 0.0
H924 H 0.41376 0.03901 0.8711 0.0
C925 C 0.35072 0.0239 0.92399 0.0
C926 C 0.38584 0.99413 0.89193 0.0
C927 C 0.33459 0.02435 0.9493 0.0
C928 C 0.45816 0.99755 0.82402 0.0
C929 C 0.44182 0.99772 0.84831 0.0
C930 C 0.40606 0.02637 0.87627 0.0
C931 C 0.36168 0.01043 0.93289 0.0
C932 C 0.3792 0.01034 0.90754 0.0
C933 C 0.43019 0.01011 0.83574 0.0
C934 C 0.4127 0.01017 0.86086 0.0
H935 H 0.33598 0.98753 0.01911 0.0
H936 H 0.36408 0.98684 0.97557 0.0
H937 H 0.38507 0.03918 0.91178 0.0
H938 H 0.4549 0.0316 0.74504 0.0
H939 H 0.42658 0.03194 0.78755 0.0
C940 C 0.42498 0.34893 0.02013 0.0
C941 C 0.43588 0.33509 0.02386 0.0
C942 C 0.42925 0.36269 0.98686 0.0
C943 C 0.46639 0.3836 0.91081 0.0
H944 H 0.4298 0.40277 0.83823 0.0
C945 C 0.48209 0.43037 0.74736 0.0
C946 C 0.47382 0.44626 0.74999 0.0
C947 C 0.47649 0.41635 0.77849 0.0
C948 C 0.44013 0.39758 0.85843 0.0
H949 H 0.45959 0.32459 0.99504 0.0
H950 H 0.46687 0.34826 0.93652 0.0
H951 H 0.42221 0.37954 0.89859 0.0
H952 H 0.45274 0.45971 0.78524 0.0
H953 H 0.44279 0.43508 0.83936 0.0
H954 H 0.4843 0.40144 0.87002 0.0
C955 C 0.45529 0.34889 0.96019 0.0
C956 C 0.4358 0.38435 0.89323 0.0
C957 C 0.45112 0.33528 0.99375 0.0
C958 C 0.45932 0.44757 0.78247 0.0
C959 C 0.45361 0.43348 0.81334 0.0
C960 C 0.47071 0.39666 0.8757 0.0
C961 C 0.44442 0.36279 0.9562 0.0
C962 C 0.44889 0.37716 0.91984 0.0
C963 C 0.46242 0.41791 0.81255 0.0
C964 C 0.45765 0.40378 0.84906 0.0
H965 H 0.41319 0.34915 0.04308 0.0
H966 H 0.42071 0.37331 0.98544 0.0
H967 H 0.4768 0.37871 0.93128 0.0
H968 H 0.49328 0.429 0.72255 0.0
H969 H 0.48336 0.4044 0.77658 0.0
C970 C 0.18747 0.49678 0.96796 0.0
C971 C 0.19679 0.51335 0.97988 0.0
C972 C 0.17257 0.49583 0.93881 0.0
C973 C 0.14844 0.52099 0.85089 0.0
H974 H 0.10864 0.49 0.89701 0.0
C975 C 0.07893 0.52329 0.7739 0.0
C976 C 0.06844 0.50705 0.76827 0.0
C977 C 0.09513 0.52391 0.79688 0.0
C978 C 0.11968 0.49853 0.88306 0.0
H979 H 0.19786 0.5419 0.96929 0.0
H980 H 0.1719 0.54023 0.9182 0.0
H981 H 0.13599 0.49125 0.94108 0.0
H982 H 0.06681 0.47865 0.78097 0.0
H983 H 0.09515 0.47961 0.82023 0.0
H984 H 0.13206 0.5283 0.79288 0.0
C985 C 0.17623 0.52794 0.93112 0.0
C986 C 0.13539 0.49925 0.90843 0.0
C987 C 0.19115 0.52889 0.96038 0.0
C988 C 0.07458 0.49138 0.7851 0.0
C989 C 0.09078 0.49197 0.80791 0.0
C990 C 0.13271 0.52022 0.82537 0.0
C991 C 0.16658 0.51142 0.92069 0.0
C992 C 0.14999 0.51049 0.89274 0.0
C993 C 0.10121 0.50828 0.81463 0.0
C994 C 0.1181 0.50899 0.84115 0.0
H995 H 0.19162 0.4845 0.98155 0.0
H996 H 0.16567 0.48285 0.93065 0.0
H997 H 0.15947 0.52965 0.83747 0.0
H998 H 0.07449 0.53558 0.76129 0.0
H999 H 0.10268 0.53673 0.80185 0.0
C1000 C 0.9157 0.82389 0.39217 0.0
C1001 C 0.92739 0.81068 0.38429 0.0
C1002 C 0.92 0.83893 0.42351 0.0
C1003 C 0.95008 0.85762 0.52251 0.0
H1004 H 0.94276 0.90305 0.46633 0.0
C1005 C 0.98441 0.92475 0.59722 0.0
C1006 C 0.97524 0.94003 0.59733 0.0
C1007 C 0.97726 0.90854 0.57561 0.0
C1008 C 0.94464 0.8905 0.4831 0.0
H1009 H 0.95252 0.8027 0.40477 0.0
H1010 H 0.95993 0.82884 0.45978 0.0
H1011 H 0.9323 0.8753 0.42224 0.0
H1012 H 0.95124 0.95034 0.57636 0.0
H1013 H 0.93856 0.92196 0.53926 0.0
H1014 H 0.96257 0.87285 0.5832 0.0
C1015 C 0.94738 0.8275 0.44193 0.0
C1016 C 0.93864 0.87457 0.45775 0.0
C1017 C 0.94311 0.81247 0.41044 0.0
C1018 C 0.95863 0.93876 0.57645 0.0
C1019 C 0.95143 0.92253 0.55497 0.0
C1020 C 0.95602 0.87357 0.54803 0.0
C1021 C 0.93605 0.84109 0.4479 0.0
C1022 C 0.94144 0.85794 0.47688 0.0
C1023 C 0.96073 0.90725 0.5538 0.0
C1024 C 0.95354 0.89023 0.52836 0.0
H1025 H 0.90335 0.82277 0.37332 0.0
H1026 H 0.91085 0.84901 0.42807 0.0
H1027 H 0.95225 0.84501 0.53852 0.0
H1028 H 0.99726 0.92538 0.61315 0.0
H1029 H 0.9849 0.89714 0.57483 0.0
C1030 C 0.68173 0.02434 0.41938 0.0
C1031 C 0.69178 0.0096 0.41757 0.0
C1032 C 0.66578 0.02371 0.44573 0.0
C1033 C 0.63922 0.00122 0.545 0.0
H1034 H 0.60024 0.01524 0.47154 0.0
C1035 C 0.56834 0.99141 0.6239 0.0
C1036 C 0.55706 0.0045 0.61441 0.0
C1037 C 0.58479 0.99167 0.60022 0.0
C1038 C 0.61098 0.01153 0.49305 0.0
H1039 H 0.69313 0.98289 0.44439 0.0
H1040 H 0.66543 0.98202 0.49164 0.0
H1041 H 0.62921 0.01692 0.43235 0.0
H1042 H 0.55437 0.02826 0.57283 0.0
H1043 H 0.58312 0.02901 0.53266 0.0
H1044 H 0.62114 0.99622 0.6062 0.0
C1045 C 0.66994 0.99401 0.47213 0.0
C1046 C 0.6276 0.01244 0.47041 0.0
C1047 C 0.68586 0.99456 0.44523 0.0
C1048 C 0.56262 0.01783 0.58056 0.0
C1049 C 0.57914 0.01821 0.55732 0.0
C1050 C 0.62261 0.00052 0.56797 0.0
C1051 C 0.65954 0.00842 0.47161 0.0
C1052 C 0.64191 0.00733 0.49612 0.0
C1053 C 0.5905 0.00515 0.56684 0.0
C1054 C 0.60823 0.00569 0.54232 0.0
H1055 H 0.68604 0.03633 0.39962 0.0
H1056 H 0.65823 0.03517 0.44548 0.0
H1057 H 0.65003 0.99732 0.56587 0.0
H1058 H 0.56447 0.98091 0.64967 0.0
H1059 H 0.59297 0.98119 0.60792 0.0
C1060 C 0.58267 0.69624 0.42761 0.0
C1061 C 0.59778 0.69766 0.39674 0.0
C1062 C 0.57848 0.6811 0.45586 0.0
C1063 C 0.58494 0.63347 0.4528 0.0
H1064 H 0.56359 0.63473 0.58592 0.0
C1065 C 0.56111 0.56852 0.55251 0.0
C1066 C 0.54494 0.56844 0.57799 0.0
C1067 C 0.56951 0.58452 0.53527 0.0
C1068 C 0.56941 0.63414 0.54858 0.0
H1069 H 0.62094 0.68474 0.37415 0.0
H1070 H 0.6135 0.65823 0.42308 0.0
H1071 H 0.57502 0.66262 0.54817 0.0
H1072 H 0.52497 0.58494 0.60634 0.0
H1073 H 0.53935 0.61275 0.57536 0.0
H1074 H 0.57886 0.60512 0.45226 0.0
C1075 C 0.60479 0.66875 0.4248 0.0
C1076 C 0.57601 0.65012 0.52706 0.0
C1077 C 0.60903 0.68394 0.39676 0.0
C1078 C 0.53744 0.58464 0.58671 0.0
C1079 C 0.54578 0.6006 0.56932 0.0
C1080 C 0.57826 0.6175 0.47415 0.0
C1081 C 0.58926 0.66698 0.45375 0.0
C1082 C 0.58365 0.64999 0.47867 0.0
C1083 C 0.56187 0.60075 0.54302 0.0
C1084 C 0.57019 0.61764 0.52205 0.0
H1085 H 0.57357 0.70639 0.42803 0.0
H1086 H 0.56633 0.68006 0.4774 0.0
H1087 H 0.59051 0.63292 0.41514 0.0
H1088 H 0.56721 0.55621 0.54562 0.0
H1089 H 0.582 0.58417 0.51582 0.0
C1090 C 0.81251 0.47349 0.40196 0.0
C1091 C 0.80742 0.48817 0.37676 0.0
C1092 C 0.82714 0.47534 0.43233 0.0
C1093 C 0.85818 0.50906 0.49761 0.0
H1094 H 0.88883 0.47091 0.48753 0.0
C1095 C 0.92889 0.51721 0.56987 0.0
C1096 C 0.93498 0.50262 0.59303 0.0
C1097 C 0.9126 0.51553 0.54726 0.0
C1098 C 0.88032 0.48159 0.49136 0.0
H1099 H 0.81366 0.51641 0.36447 0.0
H1100 H 0.83924 0.51965 0.41711 0.0
H1101 H 0.86174 0.4679 0.44174 0.0
H1102 H 0.9287 0.47494 0.61178 0.0
H1103 H 0.90021 0.47197 0.57243 0.0
H1104 H 0.87699 0.52286 0.54662 0.0
C1105 C 0.83176 0.50673 0.41407 0.0
C1106 C 0.86473 0.47986 0.4651 0.0
C1107 C 0.81707 0.50488 0.38384 0.0
C1108 C 0.92436 0.48639 0.59397 0.0
C1109 C 0.90808 0.48468 0.5712 0.0
C1110 C 0.87381 0.51082 0.52376 0.0
C1111 C 0.83715 0.49192 0.43817 0.0
C1112 C 0.85347 0.49359 0.46768 0.0
C1113 C 0.90206 0.49918 0.54717 0.0
C1114 C 0.88512 0.49713 0.5208 0.0
H1115 H 0.80522 0.46048 0.39793 0.0
H1116 H 0.83066 0.46373 0.4511 0.0
H1117 H 0.84973 0.5198 0.50113 0.0
H1118 H 0.93684 0.52988 0.56855 0.0
H1119 H 0.90846 0.52691 0.52867 0.0
loop_
_geom_bond_atom_site_label_1
_geom_bond_atom_site_label_2
_geom_bond_distance
_geom_bond_site_symmetry_2
_ccdc_geom_bond_type
C0 C1 1.264 . S
C0 C5 1.479 . S
C0 C10 1.465 . S
C1 C0 1.264 . S
C1 C3 1.339 . S
C1 H28 0.931 . S
C2 C3 1.395 . S
C2 C4 1.320 . S
C3 C1 1.339 . S
C3 C2 1.395 . S
C3 H29 0.929 . S
C4 C2 1.320 . S
C4 C5 1.405 . S
C4 H30 0.930 . S
C5 C0 1.479 . S
C5 C4 1.405 . S
C5 H31 0.931 . S
U6 O7 2.454 . S
U6 O8 2.458 . S
U6 C9 2.984 . S
U6 C10 2.847 . S
U6 C23 2.882 1_554 S
U6 O24 2.441 . S
U6 O25 2.420 . S
U6 O26 2.455 1_554 S
U6 O27 2.449 . S
O7 U6 2.454 . S
O7 C9 1.353 . S
O8 U6 2.458 . S
O8 C9 1.286 . S
C9 U6 2.984 . S
C9 O7 1.353 . S
C9 O8 1.286 . S
C9 C11 1.363 . S
C10 C0 1.465 . S
C10 U6 2.847 . S
C10 O24 1.249 . S
C10 O25 1.202 . S
C11 C9 1.363 . S
C11 C13 1.408 . S
C11 C16 1.342 1_554 S
C12 C13 1.310 . S
C12 C15 1.461 . S
C12 H32 0.932 . S
C13 C11 1.408 . S
C13 C12 1.310 . S
C13 H33 0.930 . S
C14 C15 1.474 1_556 S
C14 C16 1.285 . S
C14 H34 0.929 . S
C15 C12 1.461 . S
C15 C14 1.474 1_554 S
C16 C11 1.342 1_556 S
C16 C14 1.285 . S
C16 H35 0.930 . S
C17 C20 1.424 . S
C17 C22 1.245 . S
C17 C23 1.428 . S
C18 C21 1.260 . S
C18 C22 1.477 . S
C18 H36 0.932 . S
C19 C20 1.384 . S
C19 C21 1.479 . S
C19 H37 0.929 . S
C20 C17 1.424 . S
C20 C19 1.384 . S
C20 H38 0.928 1_556 S
C21 C18 1.260 . S
C21 C19 1.479 . S
C22 C17 1.245 . S
C22 C18 1.477 . S
C22 H39 0.932 . S
C23 U6 2.882 1_556 S
C23 C17 1.428 . S
C23 O26 1.301 . S
C23 O27 1.282 1_556 S
O24 U6 2.441 . S
O24 C10 1.249 . S
O25 U6 2.420 . S
O25 C10 1.202 . S
O26 U6 2.455 1_556 S
O26 C23 1.301 . S
O27 U6 2.449 . S
O27 C23 1.282 1_554 S
H28 C1 0.931 . S
H29 C3 0.929 . S
H30 C4 0.930 . S
H31 C5 0.931 . S
H32 C12 0.932 . S
H33 C13 0.930 . S
H34 C14 0.929 . S
H35 C16 0.930 . S
H36 C18 0.932 . S
H37 C19 0.929 . S
H38 C20 0.928 1_554 S
H39 C22 0.932 . S
C40 C41 1.264 . S
C40 C45 1.479 . S
C40 C50 1.465 . S
C41 C40 1.264 . S
C41 C43 1.339 . S
C41 H68 0.931 . S
C42 C43 1.395 . S
C42 C44 1.320 . S
C43 C41 1.339 . S
C43 C42 1.395 . S
C43 H69 0.929 . S
C44 C42 1.320 . S
C44 C45 1.405 . S
C44 H70 0.930 . S
C45 C40 1.479 . S
C45 C44 1.405 . S
C45 H71 0.931 . S
U46 O47 2.454 . S
U46 O48 2.458 1_554 S
U46 C49 2.984 . S
U46 C50 2.847 . S
U46 C63 2.882 1_554 S
U46 O64 2.441 . S
U46 O65 2.420 . S
U46 O66 2.455 1_554 S
U46 O67 2.449 . S
O47 U46 2.454 . S
O47 C49 1.353 . S
O48 U46 2.458 1_556 S
O48 C49 1.286 1_556 S
C49 U46 2.984 . S
C49 O47 1.353 . S
C49 O48 1.286 1_554 S
C49 C51 1.363 1_554 S
C50 C40 1.465 . S
C50 U46 2.847 . S
C50 O64 1.249 . S
C50 O65 1.202 . S
C51 C49 1.363 1_556 S
C51 C53 1.408 1_556 S
C51 C56 1.342 . S
C52 C53 1.310 . S
C52 C55 1.461 1_554 S
C52 H72 0.932 . S
C53 C51 1.408 1_554 S
C53 C52 1.310 . S
C53 H73 0.930 . S
C54 C55 1.474 . S
C54 C56 1.285 . S
C54 H74 0.929 . S
C55 C52 1.461 1_556 S
C55 C54 1.474 . S
C56 C51 1.342 . S
C56 C54 1.285 . S
C56 H75 0.930 . S
C57 C60 1.424 . S
C57 C62 1.245 . S
C57 C63 1.428 . S
C58 C61 1.260 . S
C58 C62 1.477 . S
C58 H76 0.932 . S
C59 C60 1.384 . S
C59 C61 1.479 . S
C59 H77 0.929 . S
C60 C57 1.424 . S
C60 C59 1.384 . S
C60 H78 0.928 . S
C61 C58 1.260 . S
C61 C59 1.479 . S
C62 C57 1.245 . S
C62 C58 1.477 . S
C62 H79 0.932 . S
C63 U46 2.882 1_556 S
C63 C57 1.428 . S
C63 O66 1.301 . S
C63 O67 1.282 1_556 S
O64 U46 2.441 . S
O64 C50 1.249 . S
O65 U46 2.420 . S
O65 C50 1.202 . S
O66 U46 2.455 1_556 S
O66 C63 1.301 . S
O67 U46 2.449 . S
O67 C63 1.282 1_554 S
H68 C41 0.931 . S
H69 C43 0.929 . S
H70 C44 0.930 . S
H71 C45 0.931 . S
H72 C52 0.932 . S
H73 C53 0.930 . S
H74 C54 0.929 . S
H75 C56 0.930 . S
H76 C58 0.932 . S
H77 C59 0.929 . S
H78 C60 0.928 . S
H79 C62 0.932 . S
C80 C81 1.264 . S
C80 C85 1.479 . S
C80 C90 1.465 . S
C81 C80 1.264 . S
C81 C83 1.339 . S
C81 H108 0.931 . S
C82 C83 1.395 . S
C82 C84 1.320 . S
C83 C81 1.339 . S
C83 C82 1.395 . S
C83 H109 0.929 . S
C84 C82 1.320 . S
C84 C85 1.405 . S
C84 H110 0.917 1_545 S
C85 C80 1.479 . S
C85 C84 1.405 . S
C85 H111 0.931 . S
U86 O87 2.454 . S
U86 O88 2.458 . S
U86 C89 2.984 . S
U86 C90 2.847 . S
U86 C103 2.882 . S
U86 O104 2.441 . S
U86 O105 2.420 . S
U86 O106 2.455 . S
U86 O107 2.449 . S
O87 U86 2.454 . S
O87 C89 1.353 . S
O88 U86 2.458 . S
O88 C89 1.286 . S
C89 U86 2.984 . S
C89 O87 1.353 . S
C89 O88 1.286 . S
C89 C91 1.363 . S
C90 C80 1.465 . S
C90 U86 2.847 . S
C90 O104 1.249 . S
C90 O105 1.202 . S
C91 C89 1.363 . S
C91 C93 1.408 . S
C91 C96 1.342 . S
C92 C93 1.310 . S
C92 C95 1.461 . S
C92 H112 0.942 . S
C93 C91 1.408 . S
C93 C92 1.310 . S
C93 H113 0.930 . S
C94 C95 1.475 1_566 S
C94 C96 1.284 1_566 S
C94 H114 0.930 . S
C95 C92 1.461 . S
C95 C94 1.475 1_544 S
C96 C91 1.342 . S
C96 C94 1.284 1_544 S
C96 H115 0.929 1_554 S
C97 C100 1.423 1_556 S
C97 C102 1.245 . S
C97 C103 1.428 1_556 S
C98 C101 1.260 . S
C98 C102 1.477 . S
C98 H116 0.932 . S
C99 C100 1.383 1_556 S
C99 C101 1.479 . S
C99 H117 0.929 . S
C100 C97 1.423 1_554 S
C100 C99 1.383 1_554 S
C100 H118 0.930 . S
C101 C98 1.260 . S
C101 C99 1.479 . S
C102 C97 1.245 . S
C102 C98 1.477 . S
C102 H119 0.932 . S
C103 U86 2.882 . S
C103 C97 1.428 1_554 S
C103 O106 1.301 . S
C103 O107 1.282 . S
O104 U86 2.441 . S
O104 C90 1.249 . S
O105 U86 2.420 . S
O105 C90 1.202 . S
O106 U86 2.455 . S
O106 C103 1.301 . S
O107 U86 2.449 . S
O107 C103 1.282 . S
H108 C81 0.931 . S
H109 C83 0.929 . S
H110 C84 0.917 1_565 S
H111 C85 0.931 . S
H112 C92 0.942 . S
H113 C93 0.930 . S
H114 C94 0.930 . S
H115 C96 0.929 1_556 S
H116 C98 0.932 . S
H117 C99 0.929 . S
H118 C100 0.930 . S
H119 C102 0.932 . S
C120 C121 1.264 . S
C120 C125 1.479 . S
C120 C130 1.465 . S
C121 C120 1.264 . S
C121 C123 1.339 . S
C121 H148 0.931 . S
C122 C123 1.395 . S
C122 C124 1.320 . S
C123 C121 1.339 . S
C123 C122 1.395 . S
C123 H149 0.929 . S
C124 C122 1.320 . S
C124 C125 1.405 . S
C124 H150 0.930 . S
C125 C120 1.479 . S
C125 C124 1.405 . S
C125 H151 0.931 . S
U126 O127 2.454 . S
U126 O128 2.458 . S
U126 C129 2.984 . S
U126 C130 2.847 . S
U126 C143 2.882 . S
U126 O144 2.441 . S
U126 O145 2.420 . S
U126 O146 2.455 . S
U126 O147 2.449 . S
O127 U126 2.454 . S
O127 C129 1.353 . S
O128 U126 2.458 . S
O128 C129 1.286 . S
C129 U126 2.984 . S
C129 O127 1.353 . S
C129 O128 1.286 . S
C129 C131 1.363 . S
C130 C120 1.465 . S
C130 U126 2.847 . S
C130 O144 1.249 . S
C130 O145 1.202 . S
C131 C129 1.363 . S
C131 C133 1.408 . S
C131 C136 1.342 . S
C132 C133 1.310 . S
C132 C135 1.461 . S
C132 H152 0.932 . S
C133 C131 1.408 . S
C133 C132 1.310 . S
C133 H153 0.930 . S
C134 C135 1.474 1_556 S
C134 C136 1.285 1_556 S
C134 H154 0.929 . S
C135 C132 1.461 . S
C135 C134 1.474 1_554 S
C136 C131 1.342 . S
C136 C134 1.285 1_554 S
C136 H155 0.930 1_554 S
C137 C140 1.424 . S
C137 C142 1.245 . S
C137 C143 1.428 1_556 S
C138 C141 1.260 . S
C138 C142 1.477 . S
C138 H156 0.932 . S
C139 C140 1.384 . S
C139 C141 1.479 . S
C139 H157 0.929 . S
C140 C137 1.424 . S
C140 C139 1.384 . S
C140 H158 0.928 1_556 S
C141 C138 1.260 . S
C141 C139 1.479 . S
C142 C137 1.245 . S
C142 C138 1.477 . S
C142 H159 0.932 . S
C143 U126 2.882 . S
C143 C137 1.428 1_554 S
C143 O146 1.301 . S
C143 O147 1.282 . S
O144 U126 2.441 . S
O144 C130 1.249 . S
O145 U126 2.420 . S
O145 C130 1.202 . S
O146 U126 2.455 . S
O146 C143 1.301 . S
O147 U126 2.449 . S
O147 C143 1.282 . S
H148 C121 0.931 . S
H149 C123 0.929 . S
H150 C124 0.930 . S
H151 C125 0.931 . S
H152 C132 0.932 . S
H153 C133 0.930 . S
H154 C134 0.929 . S
H155 C136 0.930 1_556 S
H156 C138 0.932 . S
H157 C139 0.929 . S
H158 C140 0.928 1_554 S
H159 C142 0.932 . S
C160 C161 1.264 . S
C160 C165 1.479 . S
C160 C170 1.465 . S
C161 C160 1.264 . S
C161 C163 1.339 . S
C161 H188 0.931 . S
C162 C163 1.395 . S
C162 C164 1.320 . S
C163 C161 1.339 . S
C163 C162 1.395 . S
C163 H189 0.929 . S
C164 C162 1.320 . S
C164 C165 1.405 . S
C164 H190 0.930 . S
C165 C160 1.479 . S
C165 C164 1.405 . S
C165 H191 0.931 . S
U166 O167 2.454 . S
U166 O168 2.458 . S
U166 C169 2.984 . S
U166 C170 2.847 . S
U166 C183 2.882 . S
U166 O184 2.441 . S
U166 O185 2.420 . S
U166 O186 2.455 . S
U166 O187 2.449 . S
O167 U166 2.454 . S
O167 C169 1.353 . S
O168 U166 2.458 . S
O168 C169 1.286 . S
C169 U166 2.984 . S
C169 O167 1.353 . S
C169 O168 1.286 . S
C169 C171 1.363 . S
C170 C160 1.465 . S
C170 U166 2.847 . S
C170 O184 1.249 . S
C170 O185 1.202 . S
C171 C169 1.363 . S
C171 C173 1.408 . S
C171 C176 1.342 . S
C172 C173 1.310 . S
C172 C175 1.461 . S
C172 H192 0.932 . S
C173 C171 1.408 . S
C173 C172 1.310 . S
C173 H193 0.930 . S
C174 C175 1.474 . S
C174 C176 1.285 . S
C174 H194 0.929 . S
C175 C172 1.461 . S
C175 C174 1.474 . S
C176 C171 1.342 . S
C176 C174 1.285 . S
C176 H195 0.930 . S
C177 C180 1.424 . S
C177 C182 1.245 . S
C177 C183 1.428 . S
C178 C181 1.260 . S
C178 C182 1.477 . S
C178 H196 0.932 . S
C179 C180 1.384 . S
C179 C181 1.479 . S
C179 H197 0.929 . S
C180 C177 1.424 . S
C180 C179 1.384 . S
C180 H198 0.928 . S
C181 C178 1.260 . S
C181 C179 1.479 . S
C182 C177 1.245 . S
C182 C178 1.477 . S
C182 H199 0.932 . S
C183 U166 2.882 . S
C183 C177 1.428 . S
C183 O186 1.301 . S
C183 O187 1.282 . S
O184 U166 2.441 . S
O184 C170 1.249 . S
O185 U166 2.420 . S
O185 C170 1.202 . S
O186 U166 2.455 . S
O186 C183 1.301 . S
O187 U166 2.449 . S
O187 C183 1.282 . S
H188 C161 0.931 . S
H189 C163 0.929 . S
H190 C164 0.930 . S
H191 C165 0.931 . S
H192 C172 0.932 . S
H193 C173 0.930 . S
H194 C174 0.929 . S
H195 C176 0.930 . S
H196 C178 0.932 . S
H197 C179 0.929 . S
H198 C180 0.928 . S
H199 C182 0.932 . S
C200 C201 1.264 . S
C200 C205 1.479 . S
C200 C210 1.465 . S
C201 C200 1.264 . S
C201 C203 1.339 . S
C201 H228 0.931 . S
C202 C203 1.395 . S
C202 C204 1.320 . S
C203 C201 1.339 . S
C203 C202 1.395 . S
C203 H229 0.929 . S
C204 C202 1.320 . S
C204 C205 1.405 . S
C204 H230 0.930 . S
C205 C200 1.479 . S
C205 C204 1.405 . S
C205 H231 0.931 . S
U206 O207 2.454 . S
U206 O208 2.458 . S
U206 C209 2.984 . S
U206 C210 2.847 . S
U206 C223 2.882 . S
U206 O224 2.441 . S
U206 O225 2.420 . S
U206 O226 2.455 . S
U206 O227 2.449 . S
O207 U206 2.454 . S
O207 C209 1.353 . S
O208 U206 2.458 . S
O208 C209 1.286 . S
C209 U206 2.984 . S
C209 O207 1.353 . S
C209 O208 1.286 . S
C209 C211 1.363 . S
C210 C200 1.465 . S
C210 U206 2.847 . S
C210 O224 1.249 . S
C210 O225 1.202 . S
C211 C209 1.363 . S
C211 C213 1.408 . S
C211 C216 1.342 . S
C212 C213 1.310 . S
C212 C215 1.461 . S
C212 H232 0.932 . S
C213 C211 1.408 . S
C213 C212 1.310 . S
C213 H233 0.930 . S
C214 C215 1.474 . S
C214 C216 1.285 . S
C214 H234 0.929 . S
C215 C212 1.461 . S
C215 C214 1.474 . S
C216 C211 1.342 . S
C216 C214 1.285 . S
C216 H235 0.930 . S
C217 C220 1.424 . S
C217 C222 1.245 . S
C217 C223 1.428 . S
C218 C221 1.260 . S
C218 C222 1.477 . S
C218 H236 0.932 . S
C219 C220 1.384 . S
C219 C221 1.479 . S
C219 H237 0.929 . S
C220 C217 1.424 . S
C220 C219 1.384 . S
C220 H238 0.928 . S
C221 C218 1.260 . S
C221 C219 1.479 . S
C222 C217 1.245 . S
C222 C218 1.477 . S
C222 H239 0.932 . S
C223 U206 2.882 . S
C223 C217 1.428 . S
C223 O226 1.301 . S
C223 O227 1.282 . S
O224 U206 2.441 . S
O224 C210 1.249 . S
O225 U206 2.420 . S
O225 C210 1.202 . S
O226 U206 2.455 . S
O226 C223 1.301 . S
O227 U206 2.449 . S
O227 C223 1.282 . S
H228 C201 0.931 . S
H229 C203 0.929 . S
H230 C204 0.930 . S
H231 C205 0.931 . S
H232 C212 0.932 . S
H233 C213 0.930 . S
H234 C214 0.929 . S
H235 C216 0.930 . S
H236 C218 0.932 . S
H237 C219 0.929 . S
H238 C220 0.928 . S
H239 C222 0.932 . S
C240 C241 1.264 . S
C240 C245 1.479 . S
C240 C250 1.465 . S
C241 C240 1.264 . S
C241 C243 1.339 . S
C241 H268 0.931 . S
C242 C243 1.395 . S
C242 C244 1.320 . S
C243 C241 1.339 . S
C243 C242 1.395 . S
C243 H269 0.929 . S
C244 C242 1.320 . S
C244 C245 1.405 . S
C244 H270 0.918 1_554 S
C245 C240 1.479 . S
C245 C244 1.405 . S
C245 H271 0.931 . S
U246 O247 2.454 . S
U246 O248 2.458 . S
U246 C249 2.984 . S
U246 C250 2.847 . S
U246 C263 2.882 . S
U246 O264 2.441 . S
U246 O265 2.420 . S
U246 O266 2.455 . S
U246 O267 2.449 . S
O247 U246 2.454 . S
O247 C249 1.353 . S
O248 U246 2.458 . S
O248 C249 1.286 . S
C249 U246 2.984 . S
C249 O247 1.353 . S
C249 O248 1.286 . S
C249 C251 1.363 . S
C250 C240 1.465 . S
C250 U246 2.847 . S
C250 O264 1.249 . S
C250 O265 1.202 . S
C251 C249 1.363 . S
C251 C253 1.408 . S
C251 C256 1.342 . S
C252 C253 1.310 . S
C252 C255 1.461 . S
C252 H272 0.932 . S
C253 C251 1.408 . S
C253 C252 1.310 . S
C253 H273 0.930 . S
C254 C255 1.474 . S
C254 C256 1.285 . S
C254 H274 0.929 . S
C255 C252 1.461 . S
C255 C254 1.474 . S
C256 C251 1.342 . S
C256 C254 1.285 . S
C256 H275 0.930 . S
C257 C260 1.424 . S
C257 C262 1.245 . S
C257 C263 1.428 . S
C258 C261 1.260 . S
C258 C262 1.477 . S
C258 H276 0.932 . S
C259 C260 1.384 . S
C259 C261 1.479 . S
C259 H277 0.929 . S
C260 C257 1.424 . S
C260 C259 1.384 . S
C260 H278 0.928 . S
C261 C258 1.260 . S
C261 C259 1.479 . S
C262 C257 1.245 . S
C262 C258 1.477 . S
C262 H279 0.932 . S
C263 U246 2.882 . S
C263 C257 1.428 . S
C263 O266 1.301 . S
C263 O267 1.282 . S
O264 U246 2.441 . S
O264 C250 1.249 . S
O265 U246 2.420 . S
O265 C250 1.202 . S
O266 U246 2.455 . S
O266 C263 1.301 . S
O267 U246 2.449 . S
O267 C263 1.282 . S
H268 C241 0.931 . S
H269 C243 0.929 . S
H270 C244 0.918 1_556 S
H271 C245 0.931 . S
H272 C252 0.932 . S
H273 C253 0.930 . S
H274 C254 0.929 . S
H275 C256 0.930 . S
H276 C258 0.932 . S
H277 C259 0.929 . S
H278 C260 0.928 . S
H279 C262 0.932 . S
C280 C281 1.264 . S
C280 C285 1.479 . S
C280 C290 1.465 . S
C281 C280 1.264 . S
C281 C283 1.339 . S
C281 H308 0.931 . S
C282 C283 1.395 . S
C282 C284 1.320 . S
C283 C281 1.339 . S
C283 C282 1.395 . S
C283 H309 0.929 . S
C284 C282 1.320 . S
C284 C285 1.405 . S
C284 H310 0.930 . S
C285 C280 1.479 . S
C285 C284 1.405 . S
C285 H311 0.931 . S
U286 O287 2.454 . S
U286 O288 2.458 . S
U286 C289 2.984 . S
U286 C290 2.847 . S
U286 C303 2.882 . S
U286 O304 2.441 . S
U286 O305 2.420 . S
U286 O306 2.455 . S
U286 O307 2.449 . S
O287 U286 2.454 . S
O287 C289 1.353 . S
O288 U286 2.458 . S
O288 C289 1.286 . S
C289 U286 2.984 . S
C289 O287 1.353 . S
C289 O288 1.286 . S
C289 C291 1.363 . S
C290 C280 1.465 . S
C290 U286 2.847 . S
C290 O304 1.249 . S
C290 O305 1.202 . S
C291 C289 1.363 . S
C291 C293 1.408 . S
C291 C296 1.342 . S
C292 C293 1.310 . S
C292 C295 1.461 . S
C292 H312 0.932 . S
C293 C291 1.408 . S
C293 C292 1.310 . S
C293 H313 0.930 . S
C294 C295 1.474 . S
C294 C296 1.285 . S
C294 H314 0.929 . S
C295 C292 1.461 . S
C295 C294 1.474 . S
C296 C291 1.342 . S
C296 C294 1.285 . S
C296 H315 0.930 . S
C297 C300 1.424 . S
C297 C302 1.245 . S
C297 C303 1.428 . S
C298 C301 1.260 . S
C298 C302 1.477 . S
C298 H316 0.932 . S
C299 C300 1.384 . S
C299 C301 1.479 . S
C299 H317 0.929 . S
C300 C297 1.424 . S
C300 C299 1.384 . S
C300 H318 0.928 . S
C301 C298 1.260 . S
C301 C299 1.479 . S
C302 C297 1.245 . S
C302 C298 1.477 . S
C302 H319 0.932 . S
C303 U286 2.882 . S
C303 C297 1.428 . S
C303 O306 1.301 . S
C303 O307 1.282 . S
O304 U286 2.441 . S
O304 C290 1.249 . S
O305 U286 2.420 . S
O305 C290 1.202 . S
O306 U286 2.455 . S
O306 C303 1.301 . S
O307 U286 2.449 . S
O307 C303 1.282 . S
H308 C281 0.931 . S
H309 C283 0.929 . S
H310 C284 0.930 . S
H311 C285 0.931 . S
H312 C292 0.932 . S
H313 C293 0.930 . S
H314 C294 0.929 . S
H315 C296 0.930 . S
H316 C298 0.932 . S
H317 C299 0.929 . S
H318 C300 0.928 . S
H319 C302 0.932 . S
Tb320 O323 2.453 1_655 S
Tb320 O324 2.596 1_655 S
Tb320 O325 2.374 1_645 S
Tb320 O333 2.352 1_545 S
Tb320 O335 2.353 . S
Tb320 O337 2.427 1_545 S
Tb320 O338 2.513 1_545 S
C321 O325 1.249 1_545 S
C321 O327 1.263 . S
Tb322 O324 2.343 . S
Tb322 O327 2.363 . S
Tb322 O330 2.427 . S
Tb322 O331 2.513 . S
Tb322 O332 2.453 1_545 S
Tb322 O333 2.576 1_445 S
Tb322 O334 2.374 1_455 S
O323 Tb320 2.453 1_455 S
O323 C339 1.245 . S
O324 Tb320 2.596 1_455 S
O324 Tb322 2.343 . S
O324 C339 1.259 . S
O325 Tb320 2.374 1_465 S
O325 C321 1.249 1_565 S
C326 O330 1.275 . S
C326 O331 1.246 . S
O327 C321 1.263 . S
O327 Tb322 2.363 . S
C328 O332 1.245 1_655 S
C328 O333 1.258 . S
C329 O334 1.250 . S
C329 O335 1.263 . S
O330 Tb322 2.427 . S
O330 C326 1.275 . S
O331 Tb322 2.513 . S
O331 C326 1.246 . S
O332 Tb322 2.453 1_565 S
O332 C328 1.245 1_455 S
O333 Tb320 2.352 1_565 S
O333 Tb322 2.576 1_665 S
O333 C328 1.258 . S
O334 Tb322 2.374 1_655 S
O334 C329 1.250 . S
O335 Tb320 2.353 . S
O335 C329 1.263 . S
C336 O337 1.275 . S
C336 O338 1.246 . S
O337 Tb320 2.427 1_565 S
O337 C336 1.275 . S
O338 Tb320 2.513 1_565 S
O338 C336 1.246 . S
C339 O323 1.245 . S
C339 O324 1.259 . S
Tb340 O343 2.453 . S
Tb340 O344 2.596 . S
Tb340 O345 2.374 . S
Tb340 O353 2.343 . S
Tb340 O355 2.353 . S
Tb340 O357 2.427 . S
Tb340 O358 2.513 . S
C341 O345 1.251 . S
C341 O347 1.263 1_545 S
Tb342 O344 2.343 1_565 S
Tb342 O347 2.353 . S
Tb342 O350 2.427 . S
Tb342 O351 2.513 . S
Tb342 O352 2.453 . S
Tb342 O353 2.596 1_565 S
Tb342 O354 2.374 . S
O343 Tb340 2.453 . S
O343 C359 1.245 . S
O344 Tb340 2.596 . S
O344 Tb342 2.343 1_545 S
O344 C359 1.259 . S
O345 Tb340 2.374 . S
O345 C341 1.251 . S
C346 O350 1.275 . S
C346 O351 1.246 . S
O347 C341 1.263 1_565 S
O347 Tb342 2.353 . S
C348 O352 1.296 . S
C348 O353 1.237 1_565 S
C349 O354 1.250 1_545 S
C349 O355 1.263 . S
O350 Tb342 2.427 . S
O350 C346 1.275 . S
O351 Tb342 2.513 . S
O351 C346 1.246 . S
O352 Tb342 2.453 . S
O352 C348 1.296 . S
O353 Tb340 2.343 . S
O353 Tb342 2.596 1_545 S
O353 C348 1.237 1_545 S
O354 Tb342 2.374 . S
O354 C349 1.250 1_565 S
O355 Tb340 2.353 . S
O355 C349 1.263 . S
C356 O357 1.275 . S
C356 O358 1.246 . S
O357 Tb340 2.427 . S
O357 C356 1.275 . S
O358 Tb340 2.513 . S
O358 C356 1.246 . S
C359 O343 1.245 . S
C359 O344 1.259 . S
Tb360 O363 2.453 . S
Tb360 O364 2.596 . S
Tb360 O365 2.374 . S
Tb360 O373 2.343 . S
Tb360 O375 2.353 . S
Tb360 O377 2.427 . S
Tb360 O378 2.513 . S
C361 O365 1.251 . S
C361 O367 1.263 . S
Tb362 O364 2.343 . S
Tb362 O367 2.353 . S
Tb362 O370 2.427 . S
Tb362 O371 2.513 . S
Tb362 O372 2.453 . S
Tb362 O373 2.596 . S
Tb362 O374 2.374 . S
O363 Tb360 2.453 . S
O363 C379 1.245 . S
O364 Tb360 2.596 . S
O364 Tb362 2.343 . S
O364 C379 1.259 . S
O365 Tb360 2.374 . S
O365 C361 1.251 . S
C366 O370 1.275 . S
C366 O371 1.246 . S
O367 C361 1.263 . S
O367 Tb362 2.353 . S
C368 O372 1.245 . S
C368 O373 1.259 . S
C369 O374 1.250 . S
C369 O375 1.263 . S
O370 Tb362 2.427 . S
O370 C366 1.275 . S
O371 Tb362 2.513 . S
O371 C366 1.246 . S
O372 Tb362 2.453 . S
O372 C368 1.245 . S
O373 Tb360 2.343 . S
O373 Tb362 2.596 . S
O373 C368 1.259 . S
O374 Tb362 2.374 . S
O374 C369 1.250 . S
O375 Tb360 2.353 . S
O375 C369 1.263 . S
C376 O377 1.275 . S
C376 O378 1.246 . S
O377 Tb360 2.427 . S
O377 C376 1.275 . S
O378 Tb360 2.513 . S
O378 C376 1.246 . S
C379 O363 1.245 . S
C379 O364 1.259 . S
Tb380 O383 2.453 1_655 S
Tb380 O384 2.596 1_655 S
Tb380 O385 2.374 1_655 S
Tb380 O393 2.343 . S
Tb380 O395 2.353 . S
Tb380 O397 2.427 . S
Tb380 O398 2.513 . S
C381 O385 1.251 . S
C381 O387 1.263 . S
Tb382 O384 2.343 . S
Tb382 O387 2.353 . S
Tb382 O390 2.427 . S
Tb382 O391 2.513 . S
Tb382 O392 2.453 1_455 S
Tb382 O393 2.596 1_455 S
Tb382 O394 2.374 . S
O383 Tb380 2.453 1_455 S
O383 C399 1.245 . S
O384 Tb380 2.596 1_455 S
O384 Tb382 2.343 . S
O384 C399 1.259 . S
O385 Tb380 2.374 1_455 S
O385 C381 1.251 . S
C386 O390 1.275 . S
C386 O391 1.246 . S
O387 C381 1.263 . S
O387 Tb382 2.353 . S
C388 O392 1.245 . S
C388 O393 1.259 . S
C389 O394 1.250 1_655 S
C389 O395 1.263 . S
O390 Tb382 2.427 . S
O390 C386 1.275 . S
O391 Tb382 2.513 . S
O391 C386 1.246 . S
O392 Tb382 2.453 1_655 S
O392 C388 1.245 . S
O393 Tb380 2.343 . S
O393 Tb382 2.596 1_655 S
O393 C388 1.259 . S
O394 Tb382 2.374 . S
O394 C389 1.250 1_455 S
O395 Tb380 2.353 . S
O395 C389 1.263 . S
C396 O397 1.275 . S
C396 O398 1.246 . S
O397 Tb380 2.427 . S
O397 C396 1.275 . S
O398 Tb380 2.513 . S
O398 C396 1.246 . S
C399 O383 1.245 . S
C399 O384 1.259 . S
C400 C401 1.349 1_565 S
C400 C402 1.327 . S
C400 H425 0.950 . S
C401 C400 1.349 1_545 S
C401 C417 1.349 . S
C402 C400 1.327 . S
C402 C421 1.429 1_565 S
C402 H426 0.950 . S
C403 C420 1.574 . S
C403 C422 1.368 . S
C403 H427 0.949 . S
H404 C408 0.949 . S
C405 C406 1.349 . S
C405 C407 1.327 . S
C405 H428 0.950 . S
C406 C405 1.349 . S
C406 C418 1.349 1_545 S
C407 C405 1.327 . S
C407 C423 1.429 . S
C407 H429 0.950 . S
C408 H404 0.949 . S
C408 C416 1.574 . S
C408 C424 1.368 1_565 S
H409 C417 0.950 . S
H410 C415 0.950 . S
H411 C416 0.949 . S
H412 C418 0.950 . S
H413 C419 0.950 . S
H414 C420 0.949 . S
C415 H410 0.950 . S
C415 C417 1.327 . S
C415 C421 1.429 . S
C416 C408 1.574 . S
C416 H411 0.949 . S
C416 C422 1.368 1_565 S
C417 C401 1.349 . S
C417 H409 0.950 . S
C417 C415 1.327 . S
C418 C406 1.349 1_565 S
C418 H412 0.950 . S
C418 C419 1.327 . S
C419 H413 0.950 . S
C419 C418 1.327 . S
C419 C423 1.429 1_565 S
C420 C403 1.574 . S
C420 H414 0.949 . S
C420 C424 1.368 . S
C421 C402 1.429 1_545 S
C421 C415 1.429 . S
C421 C422 1.523 . S
C422 C403 1.368 . S
C422 C416 1.368 1_545 S
C422 C421 1.523 . S
C423 C407 1.429 . S
C423 C419 1.429 1_545 S
C423 C424 1.523 . S
C424 C408 1.368 1_545 S
C424 C420 1.368 . S
C424 C423 1.523 . S
H425 C400 0.950 . S
H426 C402 0.950 . S
H427 C403 0.949 . S
H428 C405 0.950 . S
H429 C407 0.950 . S
C430 C431 1.349 . S
C430 C432 1.327 . S
C430 H455 0.950 . S
C431 C430 1.349 . S
C431 C447 1.349 . S
C432 C430 1.327 . S
C432 C451 1.429 . S
C432 H456 0.950 . S
C433 C450 1.574 . S
C433 C452 1.368 . S
C433 H457 0.949 . S
H434 C438 0.949 . S
C435 C436 1.349 . S
C435 C437 1.327 . S
C435 H458 0.950 . S
C436 C435 1.349 . S
C436 C448 1.349 . S
C437 C435 1.327 . S
C437 C453 1.429 . S
C437 H459 0.950 . S
C438 H434 0.949 . S
C438 C446 1.574 . S
C438 C454 1.368 . S
H439 C447 0.950 . S
H440 C445 0.950 . S
H441 C446 0.949 . S
H442 C448 0.950 . S
H443 C449 0.950 . S
H444 C450 0.949 . S
C445 H440 0.950 . S
C445 C447 1.327 . S
C445 C451 1.429 . S
C446 C438 1.574 . S
C446 H441 0.949 . S
C446 C452 1.368 . S
C447 C431 1.349 . S
C447 H439 0.950 . S
C447 C445 1.327 . S
C448 C436 1.349 . S
C448 H442 0.950 . S
C448 C449 1.327 . S
C449 H443 0.950 . S
C449 C448 1.327 . S
C449 C453 1.429 . S
C450 C433 1.574 . S
C450 H444 0.949 . S
C450 C454 1.368 . S
C451 C432 1.429 . S
C451 C445 1.429 . S
C451 C452 1.523 . S
C452 C433 1.368 . S
C452 C446 1.368 . S
C452 C451 1.523 . S
C453 C437 1.429 . S
C453 C449 1.429 . S
C453 C454 1.523 . S
C454 C438 1.368 . S
C454 C450 1.368 . S
C454 C453 1.523 . S
H455 C430 0.950 . S
H456 C432 0.950 . S
H457 C433 0.949 . S
H458 C435 0.950 . S
H459 C437 0.950 . S
C460 C461 1.349 . S
C460 C462 1.327 . S
C460 H485 0.950 . S
C461 C460 1.349 . S
C461 C477 1.349 . S
C462 C460 1.327 . S
C462 C481 1.429 . S
C462 H486 0.950 . S
C463 C480 1.574 . S
C463 C482 1.368 . S
C463 H487 0.949 . S
H464 C468 0.949 . S
C465 C466 1.349 . S
C465 C467 1.327 . S
C465 H488 0.950 . S
C466 C465 1.349 . S
C466 C478 1.349 . S
C467 C465 1.327 . S
C467 C483 1.429 . S
C467 H489 0.950 . S
C468 H464 0.949 . S
C468 C476 1.574 . S
C468 C484 1.368 . S
H469 C477 0.950 . S
H470 C475 0.950 . S
H471 C476 0.949 . S
H472 C478 0.950 . S
H473 C479 0.950 . S
H474 C480 0.949 . S
C475 H470 0.950 . S
C475 C477 1.327 . S
C475 C481 1.429 . S
C476 C468 1.574 . S
C476 H471 0.949 . S
C476 C482 1.368 . S
C477 C461 1.349 . S
C477 H469 0.950 . S
C477 C475 1.327 . S
C478 C466 1.349 . S
C478 H472 0.950 . S
C478 C479 1.327 . S
C479 H473 0.950 . S
C479 C478 1.327 . S
C479 C483 1.429 . S
C480 C463 1.574 . S
C480 H474 0.949 . S
C480 C484 1.368 . S
C481 C462 1.429 . S
C481 C475 1.429 . S
C481 C482 1.523 . S
C482 C463 1.368 . S
C482 C476 1.368 . S
C482 C481 1.523 . S
C483 C467 1.429 . S
C483 C479 1.429 . S
C483 C484 1.523 . S
C484 C468 1.368 . S
C484 C480 1.368 . S
C484 C483 1.523 . S
H485 C460 0.950 . S
H486 C462 0.950 . S
H487 C463 0.949 . S
H488 C465 0.950 . S
H489 C467 0.950 . S
C490 C491 1.349 . S
C490 C492 1.327 . S
C490 H515 0.950 . S
C491 C490 1.349 . S
C491 C507 1.349 . S
C492 C490 1.327 . S
C492 C511 1.429 . S
C492 H516 0.950 . S
C493 C510 1.574 . S
C493 C512 1.368 . S
C493 H517 0.949 . S
H494 C498 0.949 . S
C495 C496 1.349 . S
C495 C497 1.327 . S
C495 H518 0.950 . S
C496 C495 1.349 . S
C496 C508 1.349 . S
C497 C495 1.327 . S
C497 C513 1.429 . S
C497 H519 0.950 . S
C498 H494 0.949 . S
C498 C506 1.574 . S
C498 C514 1.368 . S
H499 C507 0.950 . S
H500 C505 0.950 . S
H501 C506 0.949 . S
H502 C508 0.950 . S
H503 C509 0.950 . S
H504 C510 0.949 . S
C505 H500 0.950 . S
C505 C507 1.327 . S
C505 C511 1.429 . S
C506 C498 1.574 . S
C506 H501 0.949 . S
C506 C512 1.368 . S
C507 C491 1.349 . S
C507 H499 0.950 . S
C507 C505 1.327 . S
C508 C496 1.349 . S
C508 H502 0.950 . S
C508 C509 1.327 . S
C509 H503 0.950 . S
C509 C508 1.327 . S
C509 C513 1.429 . S
C510 C493 1.574 . S
C510 H504 0.949 . S
C510 C514 1.368 . S
C511 C492 1.429 . S
C511 C505 1.429 . S
C511 C512 1.523 . S
C512 C493 1.368 . S
C512 C506 1.368 . S
C512 C511 1.523 . S
C513 C497 1.429 . S
C513 C509 1.429 . S
C513 C514 1.523 . S
C514 C498 1.368 . S
C514 C510 1.368 . S
C514 C513 1.523 . S
H515 C490 0.950 . S
H516 C492 0.950 . S
H517 C493 0.949 . S
H518 C495 0.950 . S
H519 C497 0.950 . S
C520 C521 1.329 1_566 S
C520 C522 1.327 . S
C520 H545 0.950 . S
C521 C520 1.329 1_544 S
C521 C537 1.369 . S
C522 C520 1.327 . S
C522 C541 1.429 1_565 S
C522 H546 0.950 . S
C523 C540 1.574 . S
C523 C542 1.368 . S
C523 H547 0.949 . S
H524 C528 0.949 . S
C525 C526 1.349 . S
C525 C527 1.327 . S
C525 H548 0.950 . S
C526 C525 1.349 . S
C526 C538 1.349 1_545 S
C527 C525 1.327 . S
C527 C543 1.429 . S
C527 H549 0.950 . S
C528 H524 0.949 . S
C528 C536 1.574 . S
C528 C544 1.368 1_565 S
H529 C537 0.950 . S
H530 C535 0.950 . S
H531 C536 0.949 . S
H532 C538 0.950 . S
H533 C539 0.950 . S
H534 C540 0.949 . S
C535 H530 0.950 . S
C535 C537 1.327 1_556 S
C535 C541 1.429 . S
C536 C528 1.574 . S
C536 H531 0.949 . S
C536 C542 1.368 1_565 S
C537 C521 1.369 . S
C537 H529 0.950 . S
C537 C535 1.327 1_554 S
C538 C526 1.349 1_565 S
C538 H532 0.950 . S
C538 C539 1.327 . S
C539 H533 0.950 . S
C539 C538 1.327 . S
C539 C543 1.429 1_565 S
C540 C523 1.574 . S
C540 H534 0.949 . S
C540 C544 1.368 . S
C541 C522 1.429 1_545 S
C541 C535 1.429 . S
C541 C542 1.523 . S
C542 C523 1.368 . S
C542 C536 1.368 1_545 S
C542 C541 1.523 . S
C543 C527 1.429 . S
C543 C539 1.429 1_545 S
C543 C544 1.523 . S
C544 C528 1.368 1_545 S
C544 C540 1.368 . S
C544 C543 1.523 . S
H545 C520 0.950 . S
H546 C522 0.950 . S
H547 C523 0.949 . S
H548 C525 0.950 . S
H549 C527 0.950 . S
C550 C551 1.349 . S
C550 C552 1.327 . S
C550 H575 0.950 . S
C551 C550 1.349 . S
C551 C567 1.349 . S
C552 C550 1.327 . S
C552 C571 1.429 . S
C552 H576 0.950 . S
C553 C570 1.574 . S
C553 C572 1.368 . S
C553 H577 0.949 . S
H554 C558 0.949 . S
C555 C556 1.349 . S
C555 C557 1.327 . S
C555 H578 0.950 . S
C556 C555 1.349 . S
C556 C568 1.349 . S
C557 C555 1.327 . S
C557 C573 1.429 . S
C557 H579 0.950 . S
C558 H554 0.949 . S
C558 C566 1.574 . S
C558 C574 1.368 . S
H559 C567 0.950 1_554 S
H560 C565 0.950 . S
H561 C566 0.949 . S
H562 C568 0.950 . S
H563 C569 0.950 . S
H564 C570 0.949 . S
C565 H560 0.950 . S
C565 C567 1.327 . S
C565 C571 1.429 . S
C566 C558 1.574 . S
C566 H561 0.949 . S
C566 C572 1.368 . S
C567 C551 1.349 . S
C567 H559 0.950 1_556 S
C567 C565 1.327 . S
C568 C556 1.349 . S
C568 H562 0.950 . S
C568 C569 1.327 . S
C569 H563 0.950 . S
C569 C568 1.327 . S
C569 C573 1.429 . S
C570 C553 1.574 . S
C570 H564 0.949 . S
C570 C574 1.368 . S
C571 C552 1.429 . S
C571 C565 1.429 . S
C571 C572 1.523 . S
C572 C553 1.368 . S
C572 C566 1.368 . S
C572 C571 1.523 . S
C573 C557 1.429 . S
C573 C569 1.429 . S
C573 C574 1.523 . S
C574 C558 1.368 . S
C574 C570 1.368 . S
C574 C573 1.523 . S
H575 C550 0.950 . S
H576 C552 0.950 . S
H577 C553 0.949 . S
H578 C555 0.950 . S
H579 C557 0.950 . S
C580 C581 1.349 . S
C580 C582 1.327 . S
C580 H605 0.950 . S
C581 C580 1.349 . S
C581 C597 1.349 . S
C582 C580 1.327 . S
C582 C601 1.429 . S
C582 H606 0.950 . S
C583 C600 1.574 . S
C583 C602 1.368 . S
C583 H607 0.949 . S
H584 C588 0.949 . S
C585 C586 1.349 . S
C585 C587 1.327 . S
C585 H608 0.950 . S
C586 C585 1.349 . S
C586 C598 1.349 . S
C587 C585 1.327 . S
C587 C603 1.429 . S
C587 H609 0.950 . S
C588 H584 0.949 . S
C588 C596 1.574 . S
C588 C604 1.368 . S
H589 C597 0.950 . S
H590 C595 0.950 . S
H591 C596 0.949 . S
H592 C598 0.950 . S
H593 C599 0.950 . S
H594 C600 0.949 . S
C595 H590 0.950 . S
C595 C597 1.327 . S
C595 C601 1.429 . S
C596 C588 1.574 . S
C596 H591 0.949 . S
C596 C602 1.368 . S
C597 C581 1.349 . S
C597 H589 0.950 . S
C597 C595 1.327 . S
C598 C586 1.349 . S
C598 H592 0.950 . S
C598 C599 1.327 . S
C599 H593 0.950 . S
C599 C598 1.327 . S
C599 C603 1.429 . S
C600 C583 1.574 . S
C600 H594 0.949 . S
C600 C604 1.368 . S
C601 C582 1.429 . S
C601 C595 1.429 . S
C601 C602 1.523 . S
C602 C583 1.368 . S
C602 C596 1.368 . S
C602 C601 1.523 . S
C603 C587 1.429 . S
C603 C599 1.429 . S
C603 C604 1.523 . S
C604 C588 1.368 . S
C604 C600 1.368 . S
C604 C603 1.523 . S
H605 C580 0.950 . S
H606 C582 0.950 . S
H607 C583 0.949 . S
H608 C585 0.950 . S
H609 C587 0.950 . S
C610 C611 1.349 . S
C610 C612 1.327 . S
C610 H635 0.950 . S
C611 C610 1.349 . S
C611 C627 1.349 . S
C612 C610 1.327 . S
C612 C631 1.429 . S
C612 H636 0.950 . S
C613 C630 1.574 . S
C613 C632 1.368 . S
C613 H637 0.949 . S
H614 C618 0.949 . S
C615 C616 1.349 . S
C615 C617 1.327 . S
C615 H638 0.950 . S
C616 C615 1.349 . S
C616 C628 1.349 . S
C617 C615 1.327 . S
C617 C633 1.429 . S
C617 H639 0.950 . S
C618 H614 0.949 . S
C618 C626 1.574 . S
C618 C634 1.368 . S
H619 C627 0.950 . S
H620 C625 0.950 . S
H621 C626 0.949 . S
H622 C628 0.950 . S
H623 C629 0.950 . S
H624 C630 0.949 . S
C625 H620 0.950 . S
C625 C627 1.327 . S
C625 C631 1.429 . S
C626 C618 1.574 . S
C626 H621 0.949 . S
C626 C632 1.368 . S
C627 C611 1.349 . S
C627 H619 0.950 . S
C627 C625 1.327 . S
C628 C616 1.349 . S
C628 H622 0.950 . S
C628 C629 1.327 . S
C629 H623 0.950 . S
C629 C628 1.327 . S
C629 C633 1.429 . S
C630 C613 1.574 . S
C630 H624 0.949 . S
C630 C634 1.368 . S
C631 C612 1.429 . S
C631 C625 1.429 . S
C631 C632 1.523 . S
C632 C613 1.368 . S
C632 C626 1.368 . S
C632 C631 1.523 . S
C633 C617 1.429 . S
C633 C629 1.429 . S
C633 C634 1.523 . S
C634 C618 1.368 . S
C634 C630 1.368 . S
C634 C633 1.523 . S
H635 C610 0.950 . S
H636 C612 0.950 . S
H637 C613 0.949 . S
H638 C615 0.950 . S
H639 C617 0.950 . S
C640 C641 1.349 . S
C640 C642 1.327 . S
C640 H665 0.950 . S
C641 C640 1.349 . S
C641 C657 1.349 . S
C642 C640 1.327 . S
C642 C661 1.429 . S
C642 H666 0.950 . S
C643 C660 1.574 . S
C643 C662 1.368 . S
C643 H667 0.949 . S
H644 C648 0.949 . S
C645 C646 1.349 . S
C645 C647 1.327 . S
C645 H668 0.950 . S
C646 C645 1.349 . S
C646 C658 1.349 . S
C647 C645 1.327 . S
C647 C663 1.429 . S
C647 H669 0.950 . S
C648 H644 0.949 . S
C648 C656 1.574 . S
C648 C664 1.368 . S
H649 C657 0.950 . S
H650 C655 0.950 . S
H651 C656 0.949 . S
H652 C658 0.950 . S
H653 C659 0.950 . S
H654 C660 0.949 . S
C655 H650 0.950 . S
C655 C657 1.327 . S
C655 C661 1.429 . S
C656 C648 1.574 . S
C656 H651 0.949 . S
C656 C662 1.368 . S
C657 C641 1.349 . S
C657 H649 0.950 . S
C657 C655 1.327 . S
C658 C646 1.349 . S
C658 H652 0.950 . S
C658 C659 1.327 . S
C659 H653 0.950 . S
C659 C658 1.327 . S
C659 C663 1.429 . S
C660 C643 1.574 . S
C660 H654 0.949 . S
C660 C664 1.368 . S
C661 C642 1.429 . S
C661 C655 1.429 . S
C661 C662 1.523 . S
C662 C643 1.368 . S
C662 C656 1.368 . S
C662 C661 1.523 . S
C663 C647 1.429 . S
C663 C659 1.429 . S
C663 C664 1.523 . S
C664 C648 1.368 . S
C664 C660 1.368 . S
C664 C663 1.523 . S
H665 C640 0.950 . S
H666 C642 0.950 . S
H667 C643 0.949 . S
H668 C645 0.950 . S
H669 C647 0.950 . S
C670 C671 1.349 . S
C670 C672 1.327 . S
C670 H695 0.950 1_545 S
C671 C670 1.349 . S
C671 C687 1.349 . S
C672 C670 1.327 . S
C672 C691 1.429 . S
C672 H696 0.950 1_545 S
C673 C690 1.574 . S
C673 C692 1.368 . S
C673 H697 0.949 . S
H674 C678 0.949 . S
C675 C676 1.349 . S
C675 C677 1.327 . S
C675 H698 0.950 . S
C676 C675 1.349 . S
C676 C688 1.349 1_545 S
C677 C675 1.327 . S
C677 C693 1.429 . S
C677 H699 0.950 . S
C678 H674 0.949 . S
C678 C686 1.582 . S
C678 C694 1.368 1_565 S
H679 C687 0.950 . S
H680 C685 0.950 . S
H681 C686 0.966 . S
H682 C688 0.950 . S
H683 C689 0.950 . S
H684 C690 0.949 . S
C685 H680 0.950 . S
C685 C687 1.327 . S
C685 C691 1.429 . S
C686 C678 1.582 . S
C686 H681 0.966 . S
C686 C692 1.344 1_565 S
C687 C671 1.349 . S
C687 H679 0.950 . S
C687 C685 1.327 . S
C688 C676 1.349 1_565 S
C688 H682 0.950 . S
C688 C689 1.327 . S
C689 H683 0.950 . S
C689 C688 1.327 . S
C689 C693 1.429 1_565 S
C690 C673 1.574 . S
C690 H684 0.949 . S
C690 C694 1.368 . S
C691 C672 1.429 . S
C691 C685 1.429 . S
C691 C692 1.523 . S
C692 C673 1.368 . S
C692 C686 1.344 1_545 S
C692 C691 1.523 . S
C693 C677 1.429 . S
C693 C689 1.429 1_545 S
C693 C694 1.523 . S
C694 C678 1.368 1_545 S
C694 C690 1.368 . S
C694 C693 1.523 . S
H695 C670 0.950 1_565 S
H696 C672 0.950 1_565 S
H697 C673 0.949 . S
H698 C675 0.950 . S
H699 C677 0.950 . S
C700 C701 1.349 . S
C700 C702 1.327 . S
C700 H725 0.950 . S
C701 C700 1.349 . S
C701 C717 1.349 . S
C702 C700 1.327 . S
C702 C721 1.429 . S
C702 H726 0.950 . S
C703 C720 1.574 . S
C703 C722 1.368 . S
C703 H727 0.949 . S
H704 C708 0.949 . S
C705 C706 1.349 . S
C705 C707 1.327 . S
C705 H728 0.950 . S
C706 C705 1.349 . S
C706 C718 1.349 . S
C707 C705 1.327 . S
C707 C723 1.429 . S
C707 H729 0.950 . S
C708 H704 0.949 . S
C708 C716 1.574 . S
C708 C724 1.368 . S
H709 C717 0.950 . S
H710 C715 0.950 . S
H711 C716 0.949 . S
H712 C718 0.950 . S
H713 C719 0.950 . S
H714 C720 0.949 . S
C715 H710 0.950 . S
C715 C717 1.327 . S
C715 C721 1.429 . S
C716 C708 1.574 . S
C716 H711 0.949 . S
C716 C722 1.368 . S
C717 C701 1.349 . S
C717 H709 0.950 . S
C717 C715 1.327 . S
C718 C706 1.349 . S
C718 H712 0.950 . S
C718 C719 1.327 . S
C719 H713 0.950 . S
C719 C718 1.327 . S
C719 C723 1.429 . S
C720 C703 1.574 . S
C720 H714 0.949 . S
C720 C724 1.368 . S
C721 C702 1.429 . S
C721 C715 1.429 . S
C721 C722 1.523 . S
C722 C703 1.368 . S
C722 C716 1.368 . S
C722 C721 1.523 . S
C723 C707 1.429 . S
C723 C719 1.429 . S
C723 C724 1.523 . S
C724 C708 1.368 . S
C724 C720 1.368 . S
C724 C723 1.523 . S
H725 C700 0.950 . S
H726 C702 0.950 . S
H727 C703 0.949 . S
H728 C705 0.950 . S
H729 C707 0.950 . S
C730 C731 1.349 . S
C730 C732 1.327 . S
C730 H755 0.950 . S
C731 C730 1.349 . S
C731 C747 1.349 . S
C732 C730 1.327 . S
C732 C751 1.429 . S
C732 H756 0.950 . S
C733 C750 1.574 . S
C733 C752 1.368 . S
C733 H757 0.949 . S
H734 C738 0.949 . S
C735 C736 1.349 . S
C735 C737 1.327 . S
C735 H758 0.950 . S
C736 C735 1.349 . S
C736 C748 1.349 . S
C737 C735 1.327 . S
C737 C753 1.429 . S
C737 H759 0.950 . S
C738 H734 0.949 . S
C738 C746 1.574 . S
C738 C754 1.368 . S
H739 C747 0.950 . S
H740 C745 0.950 . S
H741 C746 0.949 . S
H742 C748 0.950 . S
H743 C749 0.950 . S
H744 C750 0.949 . S
C745 H740 0.950 . S
C745 C747 1.327 . S
C745 C751 1.429 . S
C746 C738 1.574 . S
C746 H741 0.949 . S
C746 C752 1.368 . S
C747 C731 1.349 . S
C747 H739 0.950 . S
C747 C745 1.327 . S
C748 C736 1.349 . S
C748 H742 0.950 . S
C748 C749 1.327 . S
C749 H743 0.950 . S
C749 C748 1.327 . S
C749 C753 1.429 . S
C750 C733 1.574 . S
C750 H744 0.949 . S
C750 C754 1.368 . S
C751 C732 1.429 . S
C751 C745 1.429 . S
C751 C752 1.523 . S
C752 C733 1.368 . S
C752 C746 1.368 . S
C752 C751 1.523 . S
C753 C737 1.429 . S
C753 C749 1.429 . S
C753 C754 1.523 . S
C754 C738 1.368 . S
C754 C750 1.368 . S
C754 C753 1.523 . S
H755 C730 0.950 . S
H756 C732 0.950 . S
H757 C733 0.949 . S
H758 C735 0.950 . S
H759 C737 0.950 . S
C760 C761 1.349 . S
C760 C762 1.327 . S
C760 H785 0.950 . S
C761 C760 1.349 . S
C761 C777 1.349 . S
C762 C760 1.327 . S
C762 C781 1.429 . S
C762 H786 0.950 . S
C763 C780 1.574 . S
C763 C782 1.368 . S
C763 H787 0.949 . S
H764 C768 0.949 . S
C765 C766 1.349 . S
C765 C767 1.327 . S
C765 H788 0.949 . S
C766 C765 1.349 . S
C766 C778 1.349 . S
C767 C765 1.327 . S
C767 C783 1.429 . S
C767 H789 0.950 . S
C768 H764 0.949 . S
C768 C776 1.574 . S
C768 C784 1.368 . S
H769 C777 0.950 . S
H770 C775 0.950 . S
H771 C776 0.949 . S
H772 C778 0.950 . S
H773 C779 0.950 . S
H774 C780 0.949 . S
C775 H770 0.950 . S
C775 C777 1.327 . S
C775 C781 1.429 . S
C776 C768 1.574 . S
C776 H771 0.949 . S
C776 C782 1.368 . S
C777 C761 1.349 . S
C777 H769 0.950 . S
C777 C775 1.327 . S
C778 C766 1.349 . S
C778 H772 0.950 . S
C778 C779 1.327 . S
C779 H773 0.950 . S
C779 C778 1.327 . S
C779 C783 1.429 . S
C780 C763 1.574 . S
C780 H774 0.949 . S
C780 C784 1.368 . S
C781 C762 1.429 . S
C781 C775 1.429 . S
C781 C782 1.523 . S
C782 C763 1.368 . S
C782 C776 1.368 . S
C782 C781 1.523 . S
C783 C767 1.429 . S
C783 C779 1.429 . S
C783 C784 1.523 . S
C784 C768 1.368 . S
C784 C780 1.368 . S
C784 C783 1.523 . S
H785 C760 0.950 . S
H786 C762 0.950 . S
H787 C763 0.949 . S
H788 C765 0.949 . S
H789 C767 0.950 . S
C790 C791 1.341 1_545 S
C790 C792 1.327 . S
C790 H815 0.950 . S
C791 C790 1.341 1_565 S
C791 C807 1.355 . S
C792 C790 1.327 . S
C792 C811 1.429 . S
C792 H816 0.950 . S
C793 C810 1.574 . S
C793 C812 1.368 1_565 S
C793 H817 0.949 . S
H794 C798 0.949 . S
C795 C796 1.349 1_565 S
C795 C797 1.327 . S
C795 H818 0.950 . S
C796 C795 1.349 1_545 S
C796 C808 1.349 . S
C797 C795 1.327 . S
C797 C813 1.429 1_565 S
C797 H819 0.950 . S
C798 H794 0.949 . S
C798 C806 1.574 . S
C798 C814 1.368 . S
H799 C807 0.950 . S
H800 C805 0.950 . S
H801 C806 0.949 . S
H802 C808 0.950 . S
H803 C809 0.950 . S
H804 C810 0.949 . S
C805 H800 0.950 . S
C805 C807 1.327 . S
C805 C811 1.429 1_565 S
C806 C798 1.574 . S
C806 H801 0.949 . S
C806 C812 1.368 . S
C807 C791 1.355 . S
C807 H799 0.950 . S
C807 C805 1.327 . S
C808 C796 1.349 . S
C808 H802 0.950 . S
C808 C809 1.327 . S
C809 H803 0.950 . S
C809 C808 1.327 . S
C809 C813 1.429 . S
C810 C793 1.574 . S
C810 H804 0.949 . S
C810 C814 1.368 1_565 S
C811 C792 1.429 . S
C811 C805 1.429 1_545 S
C811 C812 1.523 . S
C812 C793 1.368 1_545 S
C812 C806 1.368 . S
C812 C811 1.523 . S
C813 C797 1.429 1_545 S
C813 C809 1.429 . S
C813 C814 1.523 . S
C814 C798 1.368 . S
C814 C810 1.368 1_545 S
C814 C813 1.523 . S
H815 C790 0.950 . S
H816 C792 0.950 . S
H817 C793 0.949 . S
H818 C795 0.950 . S
H819 C797 0.950 . S
C820 C821 1.349 . S
C820 C822 1.327 . S
C820 H845 0.950 . S
C821 C820 1.349 . S
C821 C837 1.349 . S
C822 C820 1.327 . S
C822 C841 1.429 . S
C822 H846 0.950 . S
C823 C840 1.574 . S
C823 C842 1.368 . S
C823 H847 0.949 . S
H824 C828 0.949 . S
C825 C826 1.349 . S
C825 C827 1.327 . S
C825 H848 0.950 . S
C826 C825 1.349 . S
C826 C838 1.349 . S
C827 C825 1.327 . S
C827 C843 1.429 . S
C827 H849 0.950 . S
C828 H824 0.949 . S
C828 C836 1.574 . S
C828 C844 1.368 . S
H829 C837 0.950 . S
H830 C835 0.950 . S
H831 C836 0.949 . S
H832 C838 0.950 . S
H833 C839 0.950 . S
H834 C840 0.949 . S
C835 H830 0.950 . S
C835 C837 1.327 . S
C835 C841 1.429 . S
C836 C828 1.574 . S
C836 H831 0.949 . S
C836 C842 1.368 . S
C837 C821 1.349 . S
C837 H829 0.950 . S
C837 C835 1.327 . S
C838 C826 1.349 . S
C838 H832 0.950 . S
C838 C839 1.327 . S
C839 H833 0.950 . S
C839 C838 1.327 . S
C839 C843 1.429 . S
C840 C823 1.574 . S
C840 H834 0.949 . S
C840 C844 1.368 . S
C841 C822 1.429 . S
C841 C835 1.429 . S
C841 C842 1.523 . S
C842 C823 1.368 . S
C842 C836 1.368 . S
C842 C841 1.523 . S
C843 C827 1.429 . S
C843 C839 1.429 . S
C843 C844 1.523 . S
C844 C828 1.368 . S
C844 C840 1.368 . S
C844 C843 1.523 . S
H845 C820 0.950 . S
H846 C822 0.950 . S
H847 C823 0.949 . S
H848 C825 0.950 . S
H849 C827 0.950 . S
C850 C851 1.349 . S
C850 C852 1.327 . S
C850 H875 0.950 . S
C851 C850 1.349 . S
C851 C867 1.349 . S
C852 C850 1.327 . S
C852 C871 1.429 . S
C852 H876 0.950 . S
C853 C870 1.574 . S
C853 C872 1.368 . S
C853 H877 0.949 . S
H854 C858 0.949 . S
C855 C856 1.349 . S
C855 C857 1.327 . S
C855 H878 0.950 . S
C856 C855 1.349 . S
C856 C868 1.349 . S
C857 C855 1.327 . S
C857 C873 1.429 . S
C857 H879 0.950 . S
C858 H854 0.949 . S
C858 C866 1.574 . S
C858 C874 1.368 . S
H859 C867 0.950 . S
H860 C865 0.950 . S
H861 C866 0.949 . S
H862 C868 0.950 . S
H863 C869 0.950 . S
H864 C870 0.949 . S
C865 H860 0.950 . S
C865 C867 1.327 . S
C865 C871 1.429 . S
C866 C858 1.574 . S
C866 H861 0.949 . S
C866 C872 1.368 . S
C867 C851 1.349 . S
C867 H859 0.950 . S
C867 C865 1.327 . S
C868 C856 1.349 . S
C868 H862 0.950 . S
C868 C869 1.327 . S
C869 H863 0.950 . S
C869 C868 1.327 . S
C869 C873 1.429 . S
C870 C853 1.574 . S
C870 H864 0.949 . S
C870 C874 1.368 . S
C871 C852 1.429 . S
C871 C865 1.429 . S
C871 C872 1.523 . S
C872 C853 1.368 . S
C872 C866 1.368 . S
C872 C871 1.523 . S
C873 C857 1.429 . S
C873 C869 1.429 . S
C873 C874 1.523 . S
C874 C858 1.368 . S
C874 C870 1.368 . S
C874 C873 1.523 . S
H875 C850 0.950 . S
H876 C852 0.950 . S
H877 C853 0.949 . S
H878 C855 0.950 . S
H879 C857 0.950 . S
C880 C881 1.349 1_556 S
C880 C882 1.327 . S
C880 H905 0.950 . S
C881 C880 1.349 1_554 S
C881 C897 1.349 . S
C882 C880 1.327 . S
C882 C901 1.429 . S
C882 H906 0.950 . S
C883 C900 1.574 . S
C883 C902 1.368 . S
C883 H907 0.949 1_556 S
H884 C888 0.949 . S
C885 C886 1.349 . S
C885 C887 1.327 . S
C885 H908 0.950 . S
C886 C885 1.349 . S
C886 C898 1.349 . S
C887 C885 1.327 . S
C887 C903 1.429 . S
C887 H909 0.950 . S
C888 H884 0.949 . S
C888 C896 1.574 . S
C888 C904 1.368 . S
H889 C897 0.950 . S
H890 C895 0.950 . S
H891 C896 0.949 . S
H892 C898 0.950 . S
H893 C899 0.950 . S
H894 C900 0.949 . S
C895 H890 0.950 . S
C895 C897 1.327 . S
C895 C901 1.429 1_554 S
C896 C888 1.574 . S
C896 H891 0.949 . S
C896 C902 1.368 . S
C897 C881 1.349 . S
C897 H889 0.950 . S
C897 C895 1.327 . S
C898 C886 1.349 . S
C898 H892 0.950 . S
C898 C899 1.327 . S
C899 H893 0.950 . S
C899 C898 1.327 . S
C899 C903 1.429 . S
C900 C883 1.574 . S
C900 H894 0.949 . S
C900 C904 1.368 . S
C901 C882 1.429 . S
C901 C895 1.429 1_556 S
C901 C902 1.523 . S
C902 C883 1.368 . S
C902 C896 1.368 . S
C902 C901 1.523 . S
C903 C887 1.429 . S
C903 C899 1.429 . S
C903 C904 1.523 . S
C904 C888 1.368 . S
C904 C900 1.368 . S
C904 C903 1.523 . S
H905 C880 0.950 . S
H906 C882 0.950 . S
H907 C883 0.949 1_554 S
H908 C885 0.950 . S
H909 C887 0.950 . S
C910 C911 1.349 . S
C910 C912 1.327 . S
C910 H935 0.950 . S
C911 C910 1.349 . S
C911 C927 1.349 1_556 S
C912 C910 1.327 . S
C912 C931 1.429 . S
C912 H936 0.950 . S
C913 C930 1.574 . S
C913 C932 1.368 . S
C913 H937 0.949 . S
H914 C918 0.962 . S
C915 C916 1.349 . S
C915 C917 1.327 . S
C915 H938 0.950 . S
C916 C915 1.349 . S
C916 C928 1.349 . S
C917 C915 1.327 . S
C917 C933 1.429 . S
C917 H939 0.950 . S
C918 H914 0.962 . S
C918 C926 1.574 . S
C918 C934 1.368 . S
H919 C927 0.950 . S
H920 C925 0.939 1_554 S
H921 C926 0.949 . S
H922 C928 0.949 . S
H923 C929 0.953 . S
H924 C930 0.949 . S
C925 H920 0.939 1_556 S
C925 C927 1.327 1_556 S
C925 C931 1.429 . S
C926 C918 1.574 . S
C926 H921 0.949 . S
C926 C932 1.368 . S
C927 C911 1.349 1_554 S
C927 H919 0.950 . S
C927 C925 1.327 1_554 S
C928 C916 1.349 . S
C928 H922 0.949 . S
C928 C929 1.327 . S
C929 H923 0.953 . S
C929 C928 1.327 . S
C929 C933 1.429 . S
C930 C913 1.574 . S
C930 H924 0.949 . S
C930 C934 1.368 . S
C931 C912 1.429 . S
C931 C925 1.429 . S
C931 C932 1.523 . S
C932 C913 1.368 . S
C932 C926 1.368 . S
C932 C931 1.523 . S
C933 C917 1.429 . S
C933 C929 1.429 . S
C933 C934 1.523 . S
C934 C918 1.368 . S
C934 C930 1.368 . S
C934 C933 1.523 . S
H935 C910 0.950 . S
H936 C912 0.950 . S
H937 C913 0.949 . S
H938 C915 0.950 . S
H939 C917 0.950 . S
C940 C941 1.349 1_554 S
C940 C942 1.327 1_554 S
C940 H965 0.950 . S
C941 C940 1.349 1_556 S
C941 C957 1.349 . S
C942 C940 1.327 1_556 S
C942 C961 1.429 . S
C942 H966 0.950 1_556 S
C943 C960 1.574 . S
C943 C962 1.368 . S
C943 H967 0.949 . S
H944 C948 0.949 . S
C945 C946 1.349 . S
C945 C947 1.327 . S
C945 H968 0.950 . S
C946 C945 1.349 . S
C946 C958 1.349 . S
C947 C945 1.327 . S
C947 C963 1.429 . S
C947 H969 0.950 . S
C948 H944 0.949 . S
C948 C956 1.574 . S
C948 C964 1.368 . S
H949 C957 0.950 . S
H950 C955 0.950 . S
H951 C956 0.949 . S
H952 C958 0.950 . S
H953 C959 0.950 . S
H954 C960 0.949 . S
C955 H950 0.950 . S
C955 C957 1.327 . S
C955 C961 1.429 . S
C956 C948 1.574 . S
C956 H951 0.949 . S
C956 C962 1.368 . S
C957 C941 1.349 . S
C957 H949 0.950 . S
C957 C955 1.327 . S
C958 C946 1.349 . S
C958 H952 0.950 . S
C958 C959 1.327 . S
C959 H953 0.950 . S
C959 C958 1.327 . S
C959 C963 1.429 . S
C960 C943 1.574 . S
C960 H954 0.949 . S
C960 C964 1.368 . S
C961 C942 1.429 . S
C961 C955 1.429 . S
C961 C962 1.523 . S
C962 C943 1.368 . S
C962 C956 1.368 . S
C962 C961 1.523 . S
C963 C947 1.429 . S
C963 C959 1.429 . S
C963 C964 1.523 . S
C964 C948 1.368 . S
C964 C960 1.368 . S
C964 C963 1.523 . S
H965 C940 0.950 . S
H966 C942 0.950 1_554 S
H967 C943 0.949 . S
H968 C945 0.950 . S
H969 C947 0.950 . S
C970 C971 1.349 1_554 S
C970 C972 1.327 1_554 S
C970 H995 0.950 . S
C971 C970 1.349 1_556 S
C971 C987 1.349 . S
C972 C970 1.327 1_556 S
C972 C991 1.429 . S
C972 H996 0.950 1_556 S
C973 C990 1.574 . S
C973 C992 1.368 . S
C973 H997 0.949 . S
H974 C978 0.949 . S
C975 C976 1.349 . S
C975 C977 1.327 . S
C975 H998 0.950 . S
C976 C975 1.349 . S
C976 C988 1.349 . S
C977 C975 1.327 . S
C977 C993 1.429 . S
C977 H999 0.950 . S
C978 H974 0.949 . S
C978 C986 1.574 . S
C978 C994 1.368 . S
H979 C987 0.950 . S
H980 C985 0.950 . S
H981 C986 0.949 . S
H982 C988 0.950 . S
H983 C989 0.950 . S
H984 C990 0.949 . S
C985 H980 0.950 . S
C985 C987 1.327 . S
C985 C991 1.429 . S
C986 C978 1.574 . S
C986 H981 0.949 . S
C986 C992 1.368 . S
C987 C971 1.349 . S
C987 H979 0.950 . S
C987 C985 1.327 . S
C988 C976 1.349 . S
C988 H982 0.950 . S
C988 C989 1.327 . S
C989 H983 0.950 . S
C989 C988 1.327 . S
C989 C993 1.429 . S
C990 C973 1.574 . S
C990 H984 0.949 . S
C990 C994 1.368 . S
C991 C972 1.429 . S
C991 C985 1.429 . S
C991 C992 1.523 . S
C992 C973 1.368 . S
C992 C986 1.368 . S
C992 C991 1.523 . S
C993 C977 1.429 . S
C993 C989 1.429 . S
C993 C994 1.523 . S
C994 C978 1.368 . S
C994 C990 1.368 . S
C994 C993 1.523 . S
H995 C970 0.950 . S
H996 C972 0.950 1_554 S
H997 C973 0.949 . S
H998 C975 0.950 . S
H999 C977 0.950 . S
C1000 C1001 1.349 . S
C1000 C1002 1.327 . S
C1000 H1025 0.950 . S
C1001 C1000 1.349 . S
C1001 C1017 1.349 . S
C1002 C1000 1.327 . S
C1002 C1021 1.429 . S
C1002 H1026 0.950 . S
C1003 C1020 1.574 . S
C1003 C1022 1.368 . S
C1003 H1027 0.949 . S
H1004 C1008 0.949 . S
C1005 C1006 1.349 . S
C1005 C1007 1.327 . S
C1005 H1028 0.950 . S
C1006 C1005 1.349 . S
C1006 C1018 1.349 . S
C1007 C1005 1.327 . S
C1007 C1023 1.429 . S
C1007 H1029 0.950 . S
C1008 H1004 0.949 . S
C1008 C1016 1.574 . S
C1008 C1024 1.368 . S
H1009 C1017 0.950 . S
H1010 C1015 0.950 . S
H1011 C1016 0.949 . S
H1012 C1018 0.950 . S
H1013 C1019 0.950 . S
H1014 C1020 0.949 . S
C1015 H1010 0.950 . S
C1015 C1017 1.327 . S
C1015 C1021 1.429 . S
C1016 C1008 1.574 . S
C1016 H1011 0.949 . S
C1016 C1022 1.368 . S
C1017 C1001 1.349 . S
C1017 H1009 0.950 . S
C1017 C1015 1.327 . S
C1018 C1006 1.349 . S
C1018 H1012 0.950 . S
C1018 C1019 1.327 . S
C1019 H1013 0.950 . S
C1019 C1018 1.327 . S
C1019 C1023 1.429 . S
C1020 C1003 1.574 . S
C1020 H1014 0.949 . S
C1020 C1024 1.368 . S
C1021 C1002 1.429 . S
C1021 C1015 1.429 . S
C1021 C1022 1.523 . S
C1022 C1003 1.368 . S
C1022 C1016 1.368 . S
C1022 C1021 1.523 . S
C1023 C1007 1.429 . S
C1023 C1019 1.429 . S
C1023 C1024 1.523 . S
C1024 C1008 1.368 . S
C1024 C1020 1.368 . S
C1024 C1023 1.523 . S
H1025 C1000 0.950 . S
H1026 C1002 0.950 . S
H1027 C1003 0.949 . S
H1028 C1005 0.950 . S
H1029 C1007 0.950 . S
C1030 C1031 1.358 . S
C1030 C1032 1.327 . S
C1030 H1055 0.950 . S
C1031 C1030 1.358 . S
C1031 C1047 1.340 1_545 S
C1032 C1030 1.327 . S
C1032 C1051 1.470 . S
C1032 H1056 0.950 . S
C1033 C1050 1.574 . S
C1033 C1052 1.368 1_565 S
C1033 H1057 0.949 . S
H1034 C1038 0.949 . S
C1035 C1036 1.349 1_565 S
C1035 C1037 1.327 . S
C1035 H1058 0.950 . S
C1036 C1035 1.349 1_545 S
C1036 C1048 1.349 . S
C1037 C1035 1.327 . S
C1037 C1053 1.429 1_565 S
C1037 H1059 0.950 . S
C1038 H1034 0.949 . S
C1038 C1046 1.574 . S
C1038 C1054 1.368 . S
H1039 C1047 0.950 . S
H1040 C1045 0.950 . S
H1041 C1046 0.949 . S
H1042 C1048 0.950 . S
H1043 C1049 0.950 . S
H1044 C1050 0.949 . S
C1045 H1040 0.950 . S
C1045 C1047 1.327 . S
C1045 C1051 1.382 1_565 S
C1046 C1038 1.574 . S
C1046 H1041 0.949 . S
C1046 C1052 1.368 . S
C1047 C1031 1.340 1_565 S
C1047 H1039 0.950 . S
C1047 C1045 1.327 . S
C1048 C1036 1.349 . S
C1048 H1042 0.950 . S
C1048 C1049 1.327 . S
C1049 H1043 0.950 . S
C1049 C1048 1.327 . S
C1049 C1053 1.429 . S
C1050 C1033 1.574 . S
C1050 H1044 0.949 . S
C1050 C1054 1.368 1_565 S
C1051 C1032 1.470 . S
C1051 C1045 1.382 1_545 S
C1051 C1052 1.530 . S
C1052 C1033 1.368 1_545 S
C1052 C1046 1.368 . S
C1052 C1051 1.530 . S
C1053 C1037 1.429 1_545 S
C1053 C1049 1.429 . S
C1053 C1054 1.523 . S
C1054 C1038 1.368 . S
C1054 C1050 1.368 1_545 S
C1054 C1053 1.523 . S
H1055 C1030 0.950 . S
H1056 C1032 0.950 . S
H1057 C1033 0.949 . S
H1058 C1035 0.950 . S
H1059 C1037 0.950 . S
C1060 C1061 1.349 . S
C1060 C1062 1.327 . S
C1060 H1085 0.950 . S
C1061 C1060 1.349 . S
C1061 C1077 1.349 . S
C1062 C1060 1.327 . S
C1062 C1081 1.429 . S
C1062 H1086 0.950 . S
C1063 C1080 1.574 . S
C1063 C1082 1.368 . S
C1063 H1087 0.949 . S
H1064 C1068 0.949 . S
C1065 C1066 1.349 . S
C1065 C1067 1.327 . S
C1065 H1088 0.950 . S
C1066 C1065 1.349 . S
C1066 C1078 1.349 . S
C1067 C1065 1.327 . S
C1067 C1083 1.429 . S
C1067 H1089 0.950 . S
C1068 H1064 0.949 . S
C1068 C1076 1.574 . S
C1068 C1084 1.368 . S
H1069 C1077 0.950 . S
H1070 C1075 0.950 . S
H1071 C1076 0.949 . S
H1072 C1078 0.950 . S
H1073 C1079 0.950 . S
H1074 C1080 0.949 . S
C1075 H1070 0.950 . S
C1075 C1077 1.327 . S
C1075 C1081 1.429 . S
C1076 C1068 1.574 . S
C1076 H1071 0.949 . S
C1076 C1082 1.368 . S
C1077 C1061 1.349 . S
C1077 H1069 0.950 . S
C1077 C1075 1.327 . S
C1078 C1066 1.349 . S
C1078 H1072 0.950 . S
C1078 C1079 1.327 . S
C1079 H1073 0.950 . S
C1079 C1078 1.327 . S
C1079 C1083 1.429 . S
C1080 C1063 1.574 . S
C1080 H1074 0.949 . S
C1080 C1084 1.368 . S
C1081 C1062 1.429 . S
C1081 C1075 1.429 . S
C1081 C1082 1.523 . S
C1082 C1063 1.368 . S
C1082 C1076 1.368 . S
C1082 C1081 1.523 . S
C1083 C1067 1.429 . S
C1083 C1079 1.429 . S
C1083 C1084 1.523 . S
C1084 C1068 1.368 . S
C1084 C1080 1.368 . S
C1084 C1083 1.523 . S
H1085 C1060 0.950 . S
H1086 C1062 0.950 . S
H1087 C1063 0.949 . S
H1088 C1065 0.950 . S
H1089 C1067 0.950 . S
C1090 C1091 1.349 . S
C1090 C1092 1.327 . S
C1090 H1115 0.950 . S
C1091 C1090 1.349 . S
C1091 C1107 1.349 . S
C1092 C1090 1.327 . S
C1092 C1111 1.429 . S
C1092 H1116 0.950 . S
C1093 C1110 1.574 . S
C1093 C1112 1.368 . S
C1093 H1117 0.949 . S
H1094 C1098 0.949 . S
C1095 C1096 1.349 . S
C1095 C1097 1.327 . S
C1095 H1118 0.950 . S
C1096 C1095 1.349 . S
C1096 C1108 1.349 . S
C1097 C1095 1.327 . S
C1097 C1113 1.429 . S
C1097 H1119 0.950 . S
C1098 H1094 0.949 . S
C1098 C1106 1.574 . S
C1098 C1114 1.368 . S
H1099 C1107 0.950 . S
H1100 C1105 0.950 . S
H1101 C1106 0.949 . S
H1102 C1108 0.950 . S
H1103 C1109 0.950 . S
H1104 C1110 0.949 . S
C1105 H1100 0.950 . S
C1105 C1107 1.327 . S
C1105 C1111 1.429 . S
C1106 C1098 1.574 . S
C1106 H1101 0.949 . S
C1106 C1112 1.368 . S
C1107 C1091 1.349 . S
C1107 H1099 0.950 . S
C1107 C1105 1.327 . S
C1108 C1096 1.349 . S
C1108 H1102 0.950 . S
C1108 C1109 1.327 . S
C1109 H1103 0.950 . S
C1109 C1108 1.327 . S
C1109 C1113 1.429 . S
C1110 C1093 1.574 . S
C1110 H1104 0.949 . S
C1110 C1114 1.368 . S
C1111 C1092 1.429 . S
C1111 C1105 1.429 . S
C1111 C1112 1.523 . S
C1112 C1093 1.368 . S
C1112 C1106 1.368 . S
C1112 C1111 1.523 . S
C1113 C1097 1.429 . S
C1113 C1109 1.429 . S
C1113 C1114 1.523 . S
C1114 C1098 1.368 . S
C1114 C1110 1.368 . S
C1114 C1113 1.523 . S
H1115 C1090 0.950 . S
H1116 C1092 0.950 . S
H1117 C1093 0.949 . S
H1118 C1095 0.950 . S
H1119 C1097 0.950 . S
C401 C255 1.489 . S
C406 C321 1.506 . S
C436 C356 2.368 . S
C431 C295 2.244 . S
C466 C361 1.350 . S
C461 C175 1.340 . S
C496 C381 1.947 . S
C491 C215 1.857 . S
C526 C329 1.506 . S
C521 C95 1.490 . S
C551 C135 2.231 1_556 S
C556 C346 2.368 . S
C581 C15 1.343 1_556 S
C586 C369 1.350 . S
C611 C55 1.845 . S
C616 C389 1.947 . S
C646 C339 1.282 . S
C641 C221 1.236 . S
C676 C348 0.391 1_545 S
C671 C261 0.450 . S
C706 C379 1.515 . S
C701 C301 1.469 . S
C731 C181 0.695 . S
C736 C399 0.686 . S
C761 C61 1.129 . S
C766 C328 1.282 . S
C796 C359 0.432 . S
C791 C101 0.458 1_565 S
C826 C368 1.515 . S
C821 C141 1.330 . S
C851 C21 0.686 . S
C856 C388 0.686 . S
C881 C202 2.301 . S
C886 C326 2.364 . S
C911 C242 1.747 1_556 S
C916 C349 1.852 . S
C946 C366 2.537 . S
C941 C282 2.440 1_556 S
C976 C386 2.168 . S
C971 C162 2.042 1_556 S
C1001 C42 2.188 . S
C1006 C336 2.364 . S
C1036 C341 1.852 . S
C1031 C82 1.744 . S
C1066 C376 2.537 . S
C1061 C122 2.312 . S
C1091 C2 2.091 . S
C1096 C396 2.167 . S
