# Generated by pormake.
# Topology gar, (4,6)-cn, num edge types: 1
# Building blocks:
#     Node 0, Type 0, BuildingBlock: GALJAG_clean_sbu_0, # of connection points: 4
#     Node 1, Type 0, BuildingBlock: GALJAG_clean_sbu_0, # of connection points: 4
#     Node 2, Type 0, BuildingBlock: GALJAG_clean_sbu_0, # of connection points: 4
#     Node 3, Type 0, BuildingBlock: GALJAG_clean_sbu_0, # of connection points: 4
#     Node 4, Type 0, BuildingBlock: GALJAG_clean_sbu_0, # of connection points: 4
#     Node 5, Type 0, BuildingBlock: GALJAG_clean_sbu_0, # of connection points: 4
#     Node 6, Type 0, BuildingBlock: GALJAG_clean_sbu_0, # of connection points: 4
#     Node 7, Type 0, BuildingBlock: GALJAG_clean_sbu_0, # of connection points: 4
#     Node 8, Type 0, BuildingBlock: GALJAG_clean_sbu_0, # of connection points: 4
#     Node 9, Type 0, BuildingBlock: GALJAG_clean_sbu_0, # of connection points: 4
#     Node 10, Type 0, BuildingBlock: GALJAG_clean_sbu_0, # of connection points: 4
#     Node 11, Type 0, BuildingBlock: GALJAG_clean_sbu_0, # of connection points: 4
#     Node 12, Type 0, BuildingBlock: GALJAG_clean_sbu_0, # of connection points: 4
#     Node 13, Type 0, BuildingBlock: GALJAG_clean_sbu_0, # of connection points: 4
#     Node 14, Type 0, BuildingBlock: GALJAG_clean_sbu_0, # of connection points: 4
#     Node 15, Type 0, BuildingBlock: GALJAG_clean_sbu_0, # of connection points: 4
#     Node 16, Type 0, BuildingBlock: GALJAG_clean_sbu_0, # of connection points: 4
#     Node 17, Type 0, BuildingBlock: GALJAG_clean_sbu_0, # of connection points: 4
#     Node 18, Type 0, BuildingBlock: GALJAG_clean_sbu_0, # of connection points: 4
#     Node 19, Type 0, BuildingBlock: GALJAG_clean_sbu_0, # of connection points: 4
#     Node 20, Type 0, BuildingBlock: GALJAG_clean_sbu_0, # of connection points: 4
#     Node 21, Type 0, BuildingBlock: GALJAG_clean_sbu_0, # of connection points: 4
#     Node 22, Type 0, BuildingBlock: GALJAG_clean_sbu_0, # of connection points: 4
#     Node 23, Type 0, BuildingBlock: GALJAG_clean_sbu_0, # of connection points: 4
#     Node 24, Type 1, BuildingBlock: BETFEN_clean_sbu_0, # of connection points: 6
#     Node 25, Type 1, BuildingBlock: BETFEN_clean_sbu_0, # of connection points: 6
#     Node 26, Type 1, BuildingBlock: BETFEN_clean_sbu_0, # of connection points: 6
#     Node 27, Type 1, BuildingBlock: BETFEN_clean_sbu_0, # of connection points: 6
#     Node 28, Type 1, BuildingBlock: BETFEN_clean_sbu_0, # of connection points: 6
#     Node 29, Type 1, BuildingBlock: BETFEN_clean_sbu_0, # of connection points: 6
#     Node 30, Type 1, BuildingBlock: BETFEN_clean_sbu_0, # of connection points: 6
#     Node 31, Type 1, BuildingBlock: BETFEN_clean_sbu_0, # of connection points: 6
#     Node 32, Type 1, BuildingBlock: BETFEN_clean_sbu_0, # of connection points: 6
#     Node 33, Type 1, BuildingBlock: BETFEN_clean_sbu_0, # of connection points: 6
#     Node 34, Type 1, BuildingBlock: BETFEN_clean_sbu_0, # of connection points: 6
#     Node 35, Type 1, BuildingBlock: BETFEN_clean_sbu_0, # of connection points: 6
#     Node 36, Type 1, BuildingBlock: BETFEN_clean_sbu_0, # of connection points: 6
#     Node 37, Type 1, BuildingBlock: BETFEN_clean_sbu_0, # of connection points: 6
#     Node 38, Type 1, BuildingBlock: BETFEN_clean_sbu_0, # of connection points: 6
#     Node 39, Type 1, BuildingBlock: BETFEN_clean_sbu_0, # of connection points: 6
#     Edge 40, Type (0, 1), BuildingBlock: ZUJKAS_clean_linker_0, # of connection points: 2
#     Edge 41, Type (0, 1), BuildingBlock: ZUJKAS_clean_linker_0, # of connection points: 2
#     Edge 42, Type (0, 1), BuildingBlock: ZUJKAS_clean_linker_0, # of connection points: 2
#     Edge 43, Type (0, 1), BuildingBlock: ZUJKAS_clean_linker_0, # of connection points: 2
#     Edge 44, Type (0, 1), BuildingBlock: ZUJKAS_clean_linker_0, # of connection points: 2
#     Edge 45, Type (0, 1), BuildingBlock: ZUJKAS_clean_linker_0, # of connection points: 2
#     Edge 46, Type (0, 1), BuildingBlock: ZUJKAS_clean_linker_0, # of connection points: 2
#     Edge 47, Type (0, 1), BuildingBlock: ZUJKAS_clean_linker_0, # of connection points: 2
#     Edge 48, Type (0, 1), BuildingBlock: ZUJKAS_clean_linker_0, # of connection points: 2
#     Edge 49, Type (0, 1), BuildingBlock: ZUJKAS_clean_linker_0, # of connection points: 2
#     Edge 50, Type (0, 1), BuildingBlock: ZUJKAS_clean_linker_0, # of connection points: 2
#     Edge 51, Type (0, 1), BuildingBlock: ZUJKAS_clean_linker_0, # of connection points: 2
#     Edge 52, Type (0, 1), BuildingBlock: ZUJKAS_clean_linker_0, # of connection points: 2
#     Edge 53, Type (0, 1), BuildingBlock: ZUJKAS_clean_linker_0, # of connection points: 2
#     Edge 54, Type (0, 1), BuildingBlock: ZUJKAS_clean_linker_0, # of connection points: 2
#     Edge 55, Type (0, 1), BuildingBlock: ZUJKAS_clean_linker_0, # of connection points: 2
#     Edge 56, Type (0, 1), BuildingBlock: ZUJKAS_clean_linker_0, # of connection points: 2
#     Edge 57, Type (0, 1), BuildingBlock: ZUJKAS_clean_linker_0, # of connection points: 2
#     Edge 58, Type (0, 1), BuildingBlock: ZUJKAS_clean_linker_0, # of connection points: 2
#     Edge 59, Type (0, 1), BuildingBlock: ZUJKAS_clean_linker_0, # of connection points: 2
#     Edge 60, Type (0, 1), BuildingBlock: ZUJKAS_clean_linker_0, # of connection points: 2
#     Edge 61, Type (0, 1), BuildingBlock: ZUJKAS_clean_linker_0, # of connection points: 2
#     Edge 62, Type (0, 1), BuildingBlock: ZUJKAS_clean_linker_0, # of connection points: 2
#     Edge 63, Type (0, 1), BuildingBlock: ZUJKAS_clean_linker_0, # of connection points: 2
#     Edge 64, Type (0, 1), BuildingBlock: ZUJKAS_clean_linker_0, # of connection points: 2
#     Edge 65, Type (0, 1), BuildingBlock: ZUJKAS_clean_linker_0, # of connection points: 2
#     Edge 66, Type (0, 1), BuildingBlock: ZUJKAS_clean_linker_0, # of connection points: 2
#     Edge 67, Type (0, 1), BuildingBlock: ZUJKAS_clean_linker_0, # of connection points: 2
#     Edge 68, Type (0, 1), BuildingBlock: ZUJKAS_clean_linker_0, # of connection points: 2
#     Edge 69, Type (0, 1), BuildingBlock: ZUJKAS_clean_linker_0, # of connection points: 2
#     Edge 70, Type (0, 1), BuildingBlock: ZUJKAS_clean_linker_0, # of connection points: 2
#     Edge 71, Type (0, 1), BuildingBlock: ZUJKAS_clean_linker_0, # of connection points: 2
#     Edge 72, Type (0, 1), BuildingBlock: ZUJKAS_clean_linker_0, # of connection points: 2
#     Edge 73, Type (0, 1), BuildingBlock: ZUJKAS_clean_linker_0, # of connection points: 2
#     Edge 74, Type (0, 1), BuildingBlock: ZUJKAS_clean_linker_0, # of connection points: 2
#     Edge 75, Type (0, 1), BuildingBlock: ZUJKAS_clean_linker_0, # of connection points: 2
#     Edge 76, Type (0, 1), BuildingBlock: ZUJKAS_clean_linker_0, # of connection points: 2
#     Edge 77, Type (0, 1), BuildingBlock: ZUJKAS_clean_linker_0, # of connection points: 2
#     Edge 78, Type (0, 1), BuildingBlock: ZUJKAS_clean_linker_0, # of connection points: 2
#     Edge 79, Type (0, 1), BuildingBlock: ZUJKAS_clean_linker_0, # of connection points: 2
#     Edge 80, Type (0, 1), BuildingBlock: ZUJKAS_clean_linker_0, # of connection points: 2
#     Edge 81, Type (0, 1), BuildingBlock: ZUJKAS_clean_linker_0, # of connection points: 2
#     Edge 82, Type (0, 1), BuildingBlock: ZUJKAS_clean_linker_0, # of connection points: 2
#     Edge 83, Type (0, 1), BuildingBlock: ZUJKAS_clean_linker_0, # of connection points: 2
#     Edge 84, Type (0, 1), BuildingBlock: ZUJKAS_clean_linker_0, # of connection points: 2
#     Edge 85, Type (0, 1), BuildingBlock: ZUJKAS_clean_linker_0, # of connection points: 2
#     Edge 86, Type (0, 1), BuildingBlock: ZUJKAS_clean_linker_0, # of connection points: 2
#     Edge 87, Type (0, 1), BuildingBlock: ZUJKAS_clean_linker_0, # of connection points: 2
#     Edge 88, Type (0, 1), BuildingBlock: ZUJKAS_clean_linker_0, # of connection points: 2
#     Edge 89, Type (0, 1), BuildingBlock: ZUJKAS_clean_linker_0, # of connection points: 2
#     Edge 90, Type (0, 1), BuildingBlock: ZUJKAS_clean_linker_0, # of connection points: 2
#     Edge 91, Type (0, 1), BuildingBlock: ZUJKAS_clean_linker_0, # of connection points: 2
#     Edge 92, Type (0, 1), BuildingBlock: ZUJKAS_clean_linker_0, # of connection points: 2
#     Edge 93, Type (0, 1), BuildingBlock: ZUJKAS_clean_linker_0, # of connection points: 2
#     Edge 94, Type (0, 1), BuildingBlock: ZUJKAS_clean_linker_0, # of connection points: 2
#     Edge 95, Type (0, 1), BuildingBlock: ZUJKAS_clean_linker_0, # of connection points: 2
#     Edge 96, Type (0, 1), BuildingBlock: ZUJKAS_clean_linker_0, # of connection points: 2
#     Edge 97, Type (0, 1), BuildingBlock: ZUJKAS_clean_linker_0, # of connection points: 2
#     Edge 98, Type (0, 1), BuildingBlock: ZUJKAS_clean_linker_0, # of connection points: 2
#     Edge 99, Type (0, 1), BuildingBlock: ZUJKAS_clean_linker_0, # of connection points: 2
#     Edge 100, Type (0, 1), BuildingBlock: ZUJKAS_clean_linker_0, # of connection points: 2
#     Edge 101, Type (0, 1), BuildingBlock: ZUJKAS_clean_linker_0, # of connection points: 2
#     Edge 102, Type (0, 1), BuildingBlock: ZUJKAS_clean_linker_0, # of connection points: 2
#     Edge 103, Type (0, 1), BuildingBlock: ZUJKAS_clean_linker_0, # of connection points: 2
#     Edge 104, Type (0, 1), BuildingBlock: ZUJKAS_clean_linker_0, # of connection points: 2
#     Edge 105, Type (0, 1), BuildingBlock: ZUJKAS_clean_linker_0, # of connection points: 2
#     Edge 106, Type (0, 1), BuildingBlock: ZUJKAS_clean_linker_0, # of connection points: 2
#     Edge 107, Type (0, 1), BuildingBlock: ZUJKAS_clean_linker_0, # of connection points: 2
#     Edge 108, Type (0, 1), BuildingBlock: ZUJKAS_clean_linker_0, # of connection points: 2
#     Edge 109, Type (0, 1), BuildingBlock: ZUJKAS_clean_linker_0, # of connection points: 2
#     Edge 110, Type (0, 1), BuildingBlock: ZUJKAS_clean_linker_0, # of connection points: 2
#     Edge 111, Type (0, 1), BuildingBlock: ZUJKAS_clean_linker_0, # of connection points: 2
#     Edge 112, Type (0, 1), BuildingBlock: ZUJKAS_clean_linker_0, # of connection points: 2
#     Edge 113, Type (0, 1), BuildingBlock: ZUJKAS_clean_linker_0, # of connection points: 2
#     Edge 114, Type (0, 1), BuildingBlock: ZUJKAS_clean_linker_0, # of connection points: 2
#     Edge 115, Type (0, 1), BuildingBlock: ZUJKAS_clean_linker_0, # of connection points: 2
#     Edge 116, Type (0, 1), BuildingBlock: ZUJKAS_clean_linker_0, # of connection points: 2
#     Edge 117, Type (0, 1), BuildingBlock: ZUJKAS_clean_linker_0, # of connection points: 2
#     Edge 118, Type (0, 1), BuildingBlock: ZUJKAS_clean_linker_0, # of connection points: 2
#     Edge 119, Type (0, 1), BuildingBlock: ZUJKAS_clean_linker_0, # of connection points: 2
#     Edge 120, Type (0, 1), BuildingBlock: ZUJKAS_clean_linker_0, # of connection points: 2
#     Edge 121, Type (0, 1), BuildingBlock: ZUJKAS_clean_linker_0, # of connection points: 2
#     Edge 122, Type (0, 1), BuildingBlock: ZUJKAS_clean_linker_0, # of connection points: 2
#     Edge 123, Type (0, 1), BuildingBlock: ZUJKAS_clean_linker_0, # of connection points: 2
#     Edge 124, Type (0, 1), BuildingBlock: ZUJKAS_clean_linker_0, # of connection points: 2
#     Edge 125, Type (0, 1), BuildingBlock: ZUJKAS_clean_linker_0, # of connection points: 2
#     Edge 126, Type (0, 1), BuildingBlock: ZUJKAS_clean_linker_0, # of connection points: 2
#     Edge 127, Type (0, 1), BuildingBlock: ZUJKAS_clean_linker_0, # of connection points: 2
#     Edge 128, Type (0, 1), BuildingBlock: ZUJKAS_clean_linker_0, # of connection points: 2
#     Edge 129, Type (0, 1), BuildingBlock: ZUJKAS_clean_linker_0, # of connection points: 2
#     Edge 130, Type (0, 1), BuildingBlock: ZUJKAS_clean_linker_0, # of connection points: 2
#     Edge 131, Type (0, 1), BuildingBlock: ZUJKAS_clean_linker_0, # of connection points: 2
#     Edge 132, Type (0, 1), BuildingBlock: ZUJKAS_clean_linker_0, # of connection points: 2
#     Edge 133, Type (0, 1), BuildingBlock: ZUJKAS_clean_linker_0, # of connection points: 2
#     Edge 134, Type (0, 1), BuildingBlock: ZUJKAS_clean_linker_0, # of connection points: 2
#     Edge 135, Type (0, 1), BuildingBlock: ZUJKAS_clean_linker_0, # of connection points: 2
# Relax obj value: 0.184
# Max RMSD: 0.297
# Mean RMSD: 0.171
data_MOF--net-gar--node1-GALJAG_clean_sbu_0--node2-BETFEN_clean_sbu_0--edge1-ZUJKAS_clean_linker_0
_symmetry_space_group_name_H-M    P1
_symmetry_Int_Tables_number       1
_symmetry_cell_setting            triclinic
loop_
_symmetry_equiv_pos_as_xyz
'x, y, z'
_cell_length_a     79.69145
_cell_length_b     72.454686
_cell_length_c     73.098818
_cell_angle_alpha  94.244026
_cell_angle_beta   97.629395
_cell_angle_gamma 100.95184
loop_
_atom_site_label
_atom_site_type_symbol
_atom_site_fract_x
_atom_site_fract_y
_atom_site_fract_z
_atom_type_partial_charge
In0 In 0.02758 0.30049 0.40936 0.0
O1 O 0.03816 0.30427 0.38196 0.0
O2 O 0.05518 0.29828 0.40473 0.0
C3 C 0.99604 0.2963 0.38888 0.0
C4 C 0.02752 0.26605 0.42424 0.0
C5 C 0.03093 0.33731 0.42651 0.0
O6 O 0.00964 0.2967 0.38176 0.0
O7 O 0.99825 0.29769 0.40637 0.0
O8 O 0.01933 0.32353 0.42874 0.0
O9 O 0.04173 0.33237 0.41697 0.0
C10 C 0.05286 0.30098 0.38773 0.0
O11 O 0.03236 0.28182 0.43409 0.0
O12 O 0.02255 0.26777 0.4075 0.0
In13 In 0.07261 0.82311 0.64881 0.0
O14 O 0.0632 0.84123 0.62617 0.0
O15 O 0.08499 0.85407 0.64583 0.0
C16 C 0.06675 0.78815 0.62862 0.0
C17 C 0.10497 0.82675 0.66754 0.0
C18 C 0.04622 0.82201 0.66945 0.0
O19 O 0.07425 0.80311 0.62288 0.0
O20 O 0.06168 0.79091 0.64401 0.0
O21 O 0.05959 0.81563 0.67454 0.0
O22 O 0.04628 0.82916 0.65423 0.0
C23 C 0.07459 0.85596 0.63186 0.0
O24 O 0.09322 0.8329 0.67463 0.0
O25 O 0.10027 0.81856 0.65134 0.0
In26 In 0.52716 0.80036 0.9093 0.0
O27 O 0.53697 0.80042 0.88139 0.0
O28 O 0.55596 0.80396 0.90538 0.0
C29 C 0.49538 0.79349 0.88887 0.0
C30 C 0.52725 0.76577 0.92426 0.0
C31 C 0.53033 0.83771 0.92506 0.0
O32 O 0.50904 0.79357 0.88199 0.0
O33 O 0.49754 0.79604 0.90637 0.0
O34 O 0.53528 0.82499 0.93423 0.0
O35 O 0.52448 0.83172 0.90841 0.0
C36 C 0.55275 0.8022 0.88779 0.0
O37 O 0.52024 0.77839 0.93119 0.0
O38 O 0.53448 0.77088 0.91068 0.0
In39 In 0.57299 0.32286 0.14915 0.0
O40 O 0.5608 0.30086 0.1239 0.0
O41 O 0.57786 0.29246 0.14486 0.0
C42 C 0.57446 0.35555 0.13217 0.0
C43 C 0.54594 0.32038 0.16873 0.0
C44 C 0.60494 0.32848 0.16926 0.0
O45 O 0.57976 0.34145 0.12566 0.0
O46 O 0.56783 0.35291 0.14672 0.0
O47 O 0.59142 0.32147 0.17561 0.0
O48 O 0.60235 0.33253 0.15278 0.0
C49 C 0.56801 0.2878 0.12956 0.0
O50 O 0.56105 0.32905 0.17542 0.0
O51 O 0.54447 0.31301 0.15225 0.0
In52 In 0.07309 0.82328 0.14208 0.0
O53 O 0.0645 0.8008 0.11654 0.0
O54 O 0.07688 0.793 0.14148 0.0
C55 C 0.07271 0.85641 0.12606 0.0
C56 C 0.04353 0.81647 0.15698 0.0
C57 C 0.10435 0.82679 0.1637 0.0
O58 O 0.07774 0.84263 0.11834 0.0
O59 O 0.06788 0.85337 0.1415 0.0
O60 O 0.09013 0.82166 0.16948 0.0
O61 O 0.10295 0.83101 0.14718 0.0
C62 C 0.06942 0.78774 0.12514 0.0
O63 O 0.05698 0.82764 0.1653 0.0
O64 O 0.04481 0.80936 0.14111 0.0
In65 In 0.5279 0.80054 0.41417 0.0
O66 O 0.54557 0.79482 0.39236 0.0
O67 O 0.55688 0.81278 0.41691 0.0
C68 C 0.49603 0.80068 0.39379 0.0
C69 C 0.53032 0.77029 0.43379 0.0
C70 C 0.53063 0.83383 0.43391 0.0
O71 O 0.51019 0.80856 0.38928 0.0
O72 O 0.49791 0.79125 0.40745 0.0
O73 O 0.52445 0.8184 0.43979 0.0
O74 O 0.53557 0.83236 0.41831 0.0
C75 C 0.55915 0.80517 0.4016 0.0
O76 O 0.52868 0.78603 0.44114 0.0
O77 O 0.53038 0.7695 0.41646 0.0
In78 In 0.57316 0.32382 0.64179 0.0
O79 O 0.57234 0.30251 0.61614 0.0
O80 O 0.56433 0.29198 0.64057 0.0
C81 C 0.57335 0.35726 0.62611 0.0
C82 C 0.54386 0.31742 0.65733 0.0
C83 C 0.60497 0.32674 0.66247 0.0
O84 O 0.57434 0.34213 0.61689 0.0
O85 O 0.57236 0.3555 0.64298 0.0
O86 O 0.59275 0.33275 0.66862 0.0
O87 O 0.60141 0.31989 0.64573 0.0
C88 C 0.56662 0.2882 0.62413 0.0
O89 O 0.55868 0.31796 0.66625 0.0
O90 O 0.54379 0.32093 0.64063 0.0
In91 In 0.0283 0.30153 0.91462 0.0
O92 O 0.03486 0.2884 0.94155 0.0
O93 O 0.02226 0.26928 0.91839 0.0
C94 C 0.03343 0.3366 0.93126 0.0
C95 C 0.05871 0.30563 0.89997 0.0
C96 C 0.99522 0.30202 0.89786 0.0
O97 O 0.03081 0.32225 0.94012 0.0
O98 O 0.03338 0.33331 0.91405 0.0
O99 O 1.00504 0.293 0.8902 0.0
O100 O 1.00164 0.30962 0.91394 0.0
C101 C 0.02929 0.27141 0.93518 0.0
O102 O 0.04412 0.30185 0.88972 0.0
O103 O 0.05772 0.30677 0.917 0.0
In104 In 0.4529 0.1351 0.30563 0.0
O105 O 0.47384 0.13985 0.28685 0.0
O106 O 0.44742 0.12984 0.27473 0.0
C107 C 0.46903 0.13507 0.34027 0.0
C108 C 0.43289 0.16066 0.30188 0.0
C109 C 0.43903 0.09866 0.3045 0.0
O110 O 0.47725 0.13617 0.32659 0.0
O111 O 0.45358 0.13684 0.33669 0.0
O112 O 0.43162 0.11155 0.30973 0.0
O113 O 0.45334 0.10404 0.29909 0.0
C114 C 0.46299 0.13404 0.27226 0.0
O115 O 0.42735 0.14332 0.30271 0.0
O116 O 0.44921 0.16577 0.3037 0.0
In117 In 0.28767 0.20542 0.51772 0.0
O118 O 0.29045 0.23119 0.53979 0.0
O119 O 0.29406 0.20497 0.54913 0.0
C120 C 0.28952 0.22162 0.4845 0.0
C121 C 0.31664 0.19108 0.52277 0.0
C122 C 0.25521 0.18335 0.51612 0.0
O123 O 0.28505 0.22973 0.49846 0.0
O124 O 0.29311 0.20582 0.48741 0.0
O125 O 0.26768 0.17714 0.51078 0.0
O126 O 0.25891 0.20069 0.52181 0.0
C127 C 0.29397 0.2221 0.55351 0.0
O128 O 0.30205 0.18101 0.516 0.0
O129 O 0.31674 0.20843 0.52639 0.0
In130 In 0.17802 0.07685 0.83835 0.0
O131 O 0.15447 0.06771 0.8169 0.0
O132 O 0.1784 0.07922 0.80791 0.0
C133 C 0.16144 0.07693 0.86676 0.0
C134 C 0.19316 0.04736 0.83568 0.0
C135 C 0.1925 0.11298 0.84091 0.0
O136 O 0.1538 0.07136 0.85055 0.0
O137 O 0.17767 0.08204 0.86882 0.0
O138 O 0.20071 0.10083 0.84698 0.0
O139 O 0.17683 0.10685 0.8342 0.0
C140 C 0.16252 0.0721 0.80362 0.0
O141 O 0.20125 0.06414 0.83616 0.0
O142 O 0.17777 0.04558 0.83862 0.0
In143 In 0.31514 0.92571 0.04095 0.0
O144 O 0.31597 0.90109 0.06014 0.0
O145 O 0.31786 0.92885 0.07266 0.0
C146 C 0.31233 0.91011 0.00396 0.0
C147 C 0.28769 0.94264 0.04499 0.0
C148 C 0.34799 0.94543 0.04634 0.0
O149 O 0.30927 0.90012 0.01717 0.0
O150 O 0.31573 0.92758 0.00923 0.0
O151 O 0.33519 0.9532 0.04707 0.0
O152 O 0.3443 0.92769 0.04289 0.0
C153 C 0.31738 0.91176 0.07509 0.0
O154 O 0.30148 0.95107 0.04003 0.0
O155 O 0.28699 0.92518 0.04612 0.0
In156 In 0.31164 0.41967 0.03938 0.0
O157 O 0.30327 0.39291 0.05384 0.0
O158 O 0.31486 0.41801 0.07122 0.0
C159 C 0.30805 0.40073 0.00561 0.0
C160 C 0.28167 0.43341 0.03603 0.0
C161 C 0.34503 0.43903 0.03832 0.0
O162 O 0.31185 0.39324 0.0203 0.0
O163 O 0.30634 0.41763 0.00809 0.0
O164 O 0.33189 0.44645 0.0354 0.0
O165 O 0.34148 0.42241 0.04282 0.0
C166 C 0.30796 0.40066 0.07023 0.0
O167 O 0.29543 0.4424 0.04606 0.0
O168 O 0.28315 0.4179 0.02814 0.0
In169 In 0.78605 0.1978 0.01709 0.0
O170 O 0.80287 0.17543 0.02252 0.0
O171 O 0.81296 0.19884 0.00856 0.0
C172 C 0.75268 0.1784 0.01281 0.0
C173 C 0.79262 0.21824 0.05154 0.0
C174 C 0.78217 0.21241 0.9842 0.0
O175 O 0.76487 0.17059 0.00914 0.0
O176 O 0.75746 0.19534 0.01959 0.0
O177 O 0.78419 0.22247 0.99954 0.0
O178 O 0.78263 0.19527 0.98548 0.0
C179 C 0.81507 0.18341 0.01456 0.0
O180 O 0.78916 0.22543 0.0366 0.0
O181 O 0.79332 0.20096 0.04918 0.0
In182 In 0.15442 0.49216 0.25933 0.0
O183 O 0.17764 0.48003 0.25535 0.0
O184 O 0.15518 0.46122 0.26076 0.0
C185 C 0.16979 0.52846 0.26601 0.0
C186 C 0.13965 0.49115 0.22457 0.0
C187 C 0.13879 0.49418 0.28912 0.0
O188 O 0.17711 0.51548 0.27165 0.0
O189 O 0.1549 0.52307 0.2568 0.0
O190 O 0.13047 0.49123 0.27286 0.0
O191 O 0.15472 0.49425 0.29024 0.0
C192 C 0.17056 0.46341 0.25751 0.0
O193 O 0.13137 0.48339 0.23653 0.0
O194 O 0.15536 0.49831 0.23006 0.0
In195 In 0.8118 0.92001 0.53921 0.0
O196 O 0.80996 0.89325 0.55463 0.0
O197 O 0.80912 0.91867 0.57044 0.0
C198 C 0.80781 0.89986 0.50574 0.0
C199 C 0.78138 0.93281 0.53623 0.0
C200 C 0.84499 0.94093 0.53883 0.0
O201 O 0.81399 0.89408 0.52053 0.0
O202 O 0.80359 0.91566 0.50784 0.0
O203 O 0.83139 0.94641 0.53273 0.0
O204 O 0.84193 0.92576 0.54632 0.0
C205 C 0.80841 0.90103 0.57017 0.0
O206 O 0.79595 0.94378 0.5414 0.0
O207 O 0.78225 0.91569 0.5331 0.0
In208 In 0.91268 0.03812 0.21605 0.0
O209 O 0.93757 0.03857 0.20643 0.0
O210 O 0.91606 0.04022 0.18591 0.0
C211 C 0.92586 0.03964 0.25114 0.0
C212 C 0.90652 0.07287 0.21979 0.0
C213 C 0.89518 1.00319 0.21534 0.0
O214 O 0.935 0.04058 0.23829 0.0
O215 O 0.90975 0.03739 0.24637 0.0
O216 O 0.88789 0.01724 0.21615 0.0
O217 O 0.9106 0.00671 0.21234 0.0
C218 C 0.93212 0.04067 0.18991 0.0
O219 O 0.89522 0.05954 0.21054 0.0
O220 O 0.92064 0.06862 0.22584 0.0
In221 In 0.28502 0.69665 0.51676 0.0
O222 O 0.30216 0.6745 0.52336 0.0
O223 O 0.31064 0.69537 0.50605 0.0
C224 C 0.25158 0.67773 0.51127 0.0
C225 C 0.2904 0.71612 0.55156 0.0
C226 C 0.28078 0.71327 0.48508 0.0
O227 O 0.26394 0.66949 0.5091 0.0
O228 O 0.25617 0.69509 0.51676 0.0
O229 O 0.28569 0.72277 0.50077 0.0
O230 O 0.27805 0.6956 0.4855 0.0
C231 C 0.31349 0.68105 0.51366 0.0
O232 O 0.29564 0.72346 0.53765 0.0
O233 O 0.2829 0.69899 0.54804 0.0
In234 In 0.41235 0.53838 0.7145 0.0
O235 O 0.39247 0.55732 0.711 0.0
O236 O 0.41903 0.56968 0.72048 0.0
C237 C 0.39489 0.50359 0.71579 0.0
C238 C 0.42957 0.53843 0.68618 0.0
C239 C 0.42922 0.54323 0.74861 0.0
O240 O 0.38789 0.51781 0.71707 0.0
O241 O 0.40991 0.50679 0.7116 0.0
O242 O 0.43667 0.54591 0.73461 0.0
O243 O 0.41306 0.53763 0.74544 0.0
C244 C 0.40376 0.57211 0.71702 0.0
O245 O 0.43489 0.53338 0.70165 0.0
O246 O 0.41461 0.54228 0.68441 0.0
In247 In 0.65465 0.99192 0.7594 0.0
O248 O 0.67841 0.9797 0.76163 0.0
O249 O 0.65398 0.96044 0.7558 0.0
C250 C 0.66956 0.02842 0.76393 0.0
C251 C 0.63958 0.99055 0.7248 0.0
C252 C 0.64188 0.99412 0.79112 0.0
O253 O 0.67798 0.01559 0.76707 0.0
O254 O 0.65367 0.02285 0.75792 0.0
O255 O 0.6321 0.99043 0.77568 0.0
O256 O 0.65764 0.99474 0.79041 0.0
C257 C 0.67024 0.96283 0.75875 0.0
O258 O 0.63126 0.98386 0.73721 0.0
O259 O 0.65555 0.99692 0.72977 0.0
In260 In 0.78859 0.70517 0.01765 0.0
O261 O 0.80267 0.68029 0.01548 0.0
O262 O 0.81785 0.70756 0.02452 0.0
C263 C 0.75623 0.6838 0.01688 0.0
C264 C 0.79315 0.7214 0.05341 0.0
C265 C 0.7884 0.72124 0.98424 0.0
O266 O 0.7689 0.67695 0.01286 0.0
O267 O 0.75978 0.70152 0.02108 0.0
O268 O 0.79645 0.72995 0.99944 0.0
O269 O 0.78037 0.70489 0.98596 0.0
C270 C 0.8175 0.69013 0.02156 0.0
O271 O 0.79022 0.73067 0.03967 0.0
O272 O 0.7932 0.70428 0.04899 0.0
In273 In 0.95277 0.63535 0.80655 0.0
O274 O 0.92725 0.64311 0.80303 0.0
O275 O 0.949 0.6658 0.80403 0.0
C276 C 0.93945 0.59899 0.80708 0.0
C277 C 0.96008 0.63196 0.77225 0.0
C278 C 0.96985 0.63609 0.84048 0.0
O279 O 0.93209 0.61196 0.81236 0.0
O280 O 0.9536 0.6043 0.80124 0.0
O281 O 0.97771 0.63687 0.8265 0.0
O282 O 0.95441 0.63806 0.83743 0.0
C283 C 0.9327 0.6603 0.80146 0.0
O284 O 0.97154 0.64086 0.78533 0.0
O285 O 0.94541 0.62609 0.77665 0.0
In286 In 0.81523 0.42549 0.54104 0.0
O287 O 0.81878 0.402 0.56092 0.0
O288 O 0.81538 0.4285 0.57248 0.0
C289 C 0.81309 0.40905 0.50442 0.0
C290 C 0.78785 0.44266 0.54482 0.0
C291 C 0.84737 0.44666 0.54561 0.0
O292 O 0.80748 0.39965 0.51714 0.0
O293 O 0.81888 0.42619 0.51004 0.0
O294 O 0.834 0.45294 0.54045 0.0
O295 O 0.84469 0.4296 0.54896 0.0
C296 C 0.81755 0.41215 0.57543 0.0
O297 O 0.80198 0.45119 0.54074 0.0
O298 O 0.78689 0.42511 0.54553 0.0
In299 In 0.67692 0.57612 0.33788 0.0
O300 O 0.69924 0.56075 0.3387 0.0
O301 O 0.67344 0.54471 0.33329 0.0
C302 C 0.6917 0.61203 0.34 0.0
C303 C 0.66208 0.57334 0.30309 0.0
C304 C 0.66175 0.57655 0.36742 0.0
O305 O 0.70028 0.59964 0.34461 0.0
O306 O 0.67569 0.60622 0.33485 0.0
O307 O 0.65334 0.57184 0.35141 0.0
O308 O 0.67798 0.58062 0.3687 0.0
C309 C 0.68932 0.5448 0.33434 0.0
O310 O 0.65363 0.56854 0.31599 0.0
O311 O 0.67806 0.57985 0.30776 0.0
Pr312 Pr 0.04055 0.06829 0.03658 0.0
Pr313 Pr 0.08247 0.08028 0.05172 0.0
C314 C 1.00659 0.06963 0.0288 0.0
C315 C 0.99481 0.08259 0.02262 0.0
C316 C 0.98239 0.07731 0.00657 0.0
C317 C 0.96957 0.08791 0.00213 0.0
C318 C 0.96873 0.10407 0.0137 0.0
C319 C 0.98191 0.11002 0.02905 0.0
C320 C 0.9947 0.09944 0.03346 0.0
C321 C 0.06285 0.06475 0.01162 0.0
C322 C 0.06255 0.11338 0.03593 0.0
C323 C 0.11655 0.07933 0.05854 0.0
C324 C 0.12868 0.06655 0.06424 0.0
C325 C 0.13765 0.06828 0.08251 0.0
C326 C 0.15066 0.05789 0.08708 0.0
C327 C 0.15514 0.04577 0.07342 0.0
C328 C 0.14567 0.04345 0.05547 0.0
C329 C 0.13264 0.05361 0.05095 0.0
C330 C 0.06036 0.08332 0.07702 0.0
C331 C 0.05988 0.03486 0.05173 0.0
O332 O 0.01554 0.07343 0.04551 0.0
O333 O 0.01509 0.06271 0.01666 0.0
O334 O 0.06474 0.07785 0.0243 0.0
O335 O 0.04802 0.05305 0.01023 0.0
O336 O 0.07793 0.10853 0.03903 0.0
O337 O 0.04807 0.10156 0.03771 0.0
O338 O 0.10727 0.07554 0.04199 0.0
O339 O 0.10827 0.08607 0.07101 0.0
O340 O 0.05842 0.07057 0.06396 0.0
O341 O 0.07523 0.09499 0.0786 0.0
O342 O 0.04469 0.04012 0.04903 0.0
O343 O 0.07469 0.04663 0.05066 0.0
H344 H 0.98215 0.06449 0.99782 0.0
H345 H 0.95978 0.0828 0.99017 0.0
H346 H 0.98214 0.12266 0.03803 0.0
H347 H 1.00418 0.1042 0.04576 0.0
H348 H 0.13503 0.07814 0.09312 0.0
H349 H 0.15775 0.06003 0.10103 0.0
H350 H 0.14873 0.03411 0.04469 0.0
H351 H 0.12611 0.05178 0.03678 0.0
Pr352 Pr 0.30141 0.84491 0.29957 0.0
Pr353 Pr 0.29496 0.80296 0.2764 0.0
C354 C 0.31684 0.87822 0.3175 0.0
C355 C 0.31953 0.89691 0.31057 0.0
C356 C 0.30619 0.9072 0.30849 0.0
C357 C 0.30857 0.92406 0.30019 0.0
C358 C 0.32415 0.93055 0.29363 0.0
C359 C 0.33734 0.92019 0.29559 0.0
C360 C 0.33513 0.90367 0.30414 0.0
C361 C 0.26821 0.83609 0.27864 0.0
C362 C 0.30706 0.84073 0.25424 0.0
C363 C 0.27854 0.76863 0.26166 0.0
C364 C 0.27191 0.7521 0.27119 0.0
C365 C 0.28103 0.73737 0.27305 0.0
C366 C 0.27413 0.72122 0.28101 0.0
C367 C 0.258 0.71964 0.28706 0.0
C368 C 0.2496 0.73494 0.2867 0.0
C369 C 0.25649 0.75106 0.27885 0.0
C370 C 0.32765 0.8111 0.29908 0.0
C371 C 0.28674 0.80745 0.32028 0.0
O372 O 0.32546 0.86643 0.31039 0.0
O373 O 0.30089 0.8704 0.31906 0.0
O374 O 0.27949 0.82595 0.27987 0.0
O375 O 0.27419 0.85195 0.28902 0.0
O376 O 0.30225 0.82203 0.25289 0.0
O377 O 0.30846 0.85174 0.26999 0.0
O378 O 0.27062 0.78284 0.26301 0.0
O379 O 0.29538 0.77385 0.26314 0.0
O380 O 0.31661 0.82152 0.29732 0.0
O381 O 0.32178 0.79555 0.28825 0.0
O382 O 0.29434 0.82552 0.32264 0.0
O383 O 0.28411 0.79713 0.30409 0.0
H384 H 0.29395 0.90225 0.3132 0.0
H385 H 0.29841 0.93213 0.29909 0.0
H386 H 0.34971 0.92528 0.29118 0.0
H387 H 0.34564 0.89608 0.30557 0.0
H388 H 0.29313 0.73798 0.26767 0.0
H389 H 0.28067 0.70941 0.28106 0.0
H390 H 0.23709 0.73384 0.29127 0.0
H391 H 0.24933 0.76234 0.27814 0.0
Pr392 Pr 0.56236 0.05744 0.5338 0.0
Pr393 Pr 0.5209 0.05235 0.53872 0.0
C394 C 0.59436 0.04945 0.53815 0.0
C395 C 0.6043 0.03544 0.5312 0.0
C396 C 0.61425 0.03913 0.51685 0.0
C397 C 0.6254 0.02722 0.51217 0.0
C398 C 0.62706 0.01132 0.52179 0.0
C399 C 0.61633 0.00705 0.53538 0.0
C400 C 0.60518 0.01893 0.54004 0.0
C401 C 0.54157 0.06153 0.50064 0.0
C402 C 0.53409 0.01639 0.52108 0.0
C403 C 0.48844 0.05562 0.54213 0.0
C404 C 0.47868 0.07022 0.54682 0.0
C405 C 0.46854 0.06799 0.56115 0.0
C406 C 0.45773 0.0806 0.56448 0.0
C407 C 0.45684 0.09545 0.55336 0.0
C408 C 0.46784 0.09839 0.53989 0.0
C409 C 0.47873 0.08593 0.53668 0.0
C410 C 0.5426 0.04065 0.5658 0.0
C411 C 0.54907 0.0945 0.55098 0.0
O412 O 0.58258 0.04342 0.54845 0.0
O413 O 0.59 0.062 0.52733 0.0
O414 O 0.53696 0.05804 0.51596 0.0
O415 O 0.55826 0.06323 0.50205 0.0
O416 O 0.52023 0.0239 0.52139 0.0
O417 O 0.54995 0.02564 0.52737 0.0
O418 O 0.49429 0.05562 0.52615 0.0
O419 O 0.49916 0.05165 0.55572 0.0
O420 O 0.54645 0.05546 0.5579 0.0
O421 O 0.52683 0.03157 0.56016 0.0
O422 O 0.56284 0.08757 0.54791 0.0
O423 O 0.53296 0.08457 0.54746 0.0
H424 H 0.61386 0.05159 0.50962 0.0
H425 H 0.63308 0.03079 0.5013 0.0
H426 H 0.61718 0.99507 0.54321 0.0
H427 H 0.59774 0.01552 0.55115 0.0
H428 H 0.46848 0.05608 0.56929 0.0
H429 H 0.44932 0.07808 0.57492 0.0
H430 H 0.46743 0.10989 0.53128 0.0
H431 H 0.48668 0.08822 0.52582 0.0
Pr432 Pr 0.28773 0.30576 0.78263 0.0
Pr433 Pr 0.32762 0.30156 0.78824 0.0
C434 C 0.25476 0.30518 0.78879 0.0
C435 C 0.24398 0.31169 0.80239 0.0
C436 C 0.23576 0.32696 0.79913 0.0
C437 C 0.22361 0.33141 0.81016 0.0
C438 C 0.21919 0.32069 0.82478 0.0
C439 C 0.22813 0.30607 0.82868 0.0
C440 C 0.24028 0.30159 0.81763 0.0
C441 C 0.31157 0.33642 0.77609 0.0
C442 C 0.31323 0.31731 0.82444 0.0
C443 C 0.36082 0.30144 0.78468 0.0
C444 C 0.37128 0.29565 0.7707 0.0
C445 C 0.37724 0.27859 0.77134 0.0
C446 C 0.38826 0.27386 0.75909 0.0
C447 C 0.39365 0.28614 0.746 0.0
C448 C 0.38727 0.30294 0.7451 0.0
C449 C 0.37625 0.30762 0.75726 0.0
C450 C 0.30385 0.27129 0.79548 0.0
C451 C 0.30287 0.29052 0.74595 0.0
O452 O 0.26323 0.29187 0.793 0.0
O453 O 0.26311 0.31765 0.77937 0.0
O454 O 0.31378 0.32637 0.78911 0.0
O455 O 0.29603 0.33203 0.76677 0.0
O456 O 0.32757 0.31668 0.81741 0.0
O457 O 0.29765 0.31221 0.81457 0.0
O458 O 0.35363 0.31605 0.7819 0.0
O459 O 0.35107 0.288 0.79176 0.0
O460 O 0.30171 0.2811 0.78221 0.0
O461 O 0.31924 0.27617 0.80507 0.0
O462 O 0.28839 0.29107 0.75297 0.0
O463 O 0.31839 0.29568 0.75605 0.0
H464 H 0.23826 0.33511 0.7876 0.0
H465 H 0.21734 0.34303 0.8069 0.0
H466 H 0.22513 0.29739 0.83971 0.0
H467 H 0.24626 0.2897 0.82063 0.0
H468 H 0.37369 0.26906 0.78155 0.0
H469 H 0.39274 0.26071 0.76008 0.0
H470 H 0.39136 0.31295 0.73549 0.0
H471 H 0.37203 0.32092 0.75642 0.0
Pr472 Pr 0.05131 0.04254 0.49969 0.0
Pr473 Pr 0.05309 0.06535 0.53782 0.0
C474 C 0.03967 0.02395 0.46672 0.0
C475 C 0.0384 0.03302 0.44956 0.0
C476 C 0.04912 0.03 0.43639 0.0
C477 C 0.04802 0.0389 0.42018 0.0
C478 C 0.03623 0.05082 0.41715 0.0
C479 C 0.02677 0.05528 0.43104 0.0
C480 C 0.02776 0.04636 0.44714 0.0
C481 C 0.08517 0.06403 0.50847 0.0
C482 C 0.04477 0.08765 0.50032 0.0
C483 C 0.06534 0.08306 0.57124 0.0
C484 C 0.07067 0.07384 0.58762 0.0
C485 C 0.06001 0.07112 0.60142 0.0
C486 C 0.06497 0.06213 0.61683 0.0
C487 C 0.08067 0.05595 0.61859 0.0
C488 C 0.09057 0.05718 0.60412 0.0
C489 C 0.08565 0.06612 0.58876 0.0
C490 C 0.01981 0.04164 0.52964 0.0
C491 C 0.06175 0.02168 0.53701 0.0
O492 O 0.02916 0.02774 0.47816 0.0
O493 O 0.05544 0.02445 0.47483 0.0
O494 O 0.07321 0.0639 0.51838 0.0
O495 O 0.07974 0.0521 0.49383 0.0
O496 O 0.04772 0.08901 0.51869 0.0
O497 O 0.04461 0.07155 0.49023 0.0
O498 O 0.07498 0.08293 0.55811 0.0
O499 O 0.04877 0.07928 0.56501 0.0
O500 O 0.03175 0.04283 0.51966 0.0
O501 O 0.02509 0.05316 0.54456 0.0
O502 O 0.05558 0.01894 0.51914 0.0
O503 O 0.06377 0.03837 0.54662 0.0
H504 H 0.05788 0.02032 0.43834 0.0
H505 H 0.05517 0.03518 0.40932 0.0
H506 H 0.01732 0.06415 0.42865 0.0
H507 H 0.01974 0.04951 0.45734 0.0
H508 H 0.04811 0.07637 0.60052 0.0
H509 H 0.05723 0.06132 0.62798 0.0
H510 H 0.10271 0.05238 0.60532 0.0
H511 H 0.09386 0.06735 0.57805 0.0
Pr512 Pr 0.30537 0.80379 0.77793 0.0
Pr513 Pr 0.31335 0.84622 0.7671 0.0
C514 C 0.30467 0.76662 0.7784 0.0
C515 C 0.31792 0.75493 0.77951 0.0
C516 C 0.31736 0.74114 0.792 0.0
C517 C 0.32927 0.72928 0.79274 0.0
C518 C 0.34198 0.73109 0.78105 0.0
C519 C 0.34323 0.74564 0.76933 0.0
C520 C 0.33127 0.7575 0.76855 0.0
C521 C 0.30807 0.82813 0.81124 0.0
C522 C 0.34587 0.82716 0.77982 0.0
C523 C 0.31599 0.88337 0.76467 0.0
C524 C 0.30302 0.89514 0.76236 0.0
C525 C 0.30582 0.91102 0.75248 0.0
C526 C 0.29387 0.92287 0.75126 0.0
C527 C 0.27914 0.91884 0.75999 0.0
C528 C 0.27573 0.90211 0.76856 0.0
C529 C 0.28758 0.8903 0.7697 0.0
C530 C 0.31145 0.82077 0.73493 0.0
C531 C 0.27267 0.8228 0.76297 0.0
O532 O 0.30171 0.77446 0.76306 0.0
O533 O 0.30483 0.77776 0.7933 0.0
O534 O 0.30978 0.83368 0.79519 0.0
O535 O 0.304 0.80986 0.80955 0.0
O536 O 0.34085 0.84336 0.77905 0.0
O537 O 0.3351 0.81066 0.77741 0.0
O538 O 0.31795 0.87618 0.78054 0.0
O539 O 0.31571 0.87136 0.75041 0.0
O540 O 0.30954 0.81675 0.75117 0.0
O541 O 0.31559 0.83896 0.73536 0.0
O542 O 0.27772 0.80668 0.76524 0.0
O543 O 0.28339 0.83938 0.76564 0.0
H544 H 0.30743 0.73924 0.80087 0.0
H545 H 0.32819 0.71824 0.802 0.0
H546 H 0.35289 0.7472 0.76011 0.0
H547 H 0.3322 0.76834 0.75908 0.0
H548 H 0.31747 0.91457 0.74625 0.0
H549 H 0.29663 0.93568 0.74451 0.0
H550 H 0.26426 0.89865 0.77512 0.0
H551 H 0.28494 0.87773 0.77686 0.0
Pr552 Pr 0.54784 0.06451 0.03584 0.0
Pr553 Pr 0.53651 0.07353 0.99296 0.0
C554 C 0.54909 0.06573 0.07269 0.0
C555 C 0.53545 0.06237 0.0846 0.0
C556 C 0.53512 0.04795 0.0964 0.0
C557 C 0.52299 0.0454 0.10861 0.0
C558 C 0.51106 0.05734 0.10932 0.0
C559 C 0.51059 0.07088 0.09654 0.0
C560 C 0.52265 0.07336 0.08427 0.0
C561 C 0.54367 0.0309 0.01137 0.0
C562 C 0.50605 0.05778 0.01675 0.0
C563 C 0.53365 0.07388 0.95617 0.0
C564 C 0.5461 0.08097 0.94392 0.0
C565 C 0.54174 0.09278 0.93046 0.0
C566 C 0.55266 0.09773 0.91739 0.0
C567 C 0.56811 0.09108 0.91785 0.0
C568 C 0.57319 0.08069 0.9323 0.0
C569 C 0.56226 0.07566 0.94526 0.0
C570 C 0.53975 0.10593 0.0186 0.0
C571 C 0.57843 0.08311 0.01255 0.0
O572 O 0.55015 0.08089 0.06386 0.0
O573 O 0.55133 0.05094 0.06266 0.0
O574 O 0.54156 0.04706 0.00682 0.0
O575 O 0.54899 0.03251 0.0291 0.0
O576 O 0.50983 0.05902 0.99978 0.0
O577 O 0.5178 0.06151 0.03181 0.0
O578 O 0.53635 0.05913 0.96458 0.0
O579 O 0.52882 0.08665 0.96673 0.0
O580 O 0.54231 0.08971 0.0216 0.0
O581 O 0.53433 0.10553 1.001 0.0
O582 O 0.57463 0.07949 0.02919 0.0
O583 O 0.56683 0.08 0.99731 0.0
H584 H 0.54458 0.03899 0.09657 0.0
H585 H 0.52345 0.03464 0.11809 0.0
H586 H 0.50163 0.08039 0.0968 0.0
H587 H 0.52227 0.08431 0.075 0.0
H588 H 0.52954 0.09742 0.92952 0.0
H589 H 0.54859 0.10574 0.90628 0.0
H590 H 0.58495 0.07519 0.93272 0.0
H591 H 0.56615 0.06688 0.95577 0.0
Pr592 Pr 0.26973 0.28246 0.26417 0.0
Pr593 Pr 0.31063 0.3097 0.2722 0.0
C594 C 0.23754 0.26633 0.2696 0.0
C595 C 0.22135 0.27201 0.27402 0.0
C596 C 0.2061 0.26775 0.26097 0.0
C597 C 0.19035 0.27108 0.26586 0.0
C598 C 0.18954 0.27849 0.28398 0.0
C599 C 0.20492 0.28363 0.29666 0.0
C600 C 0.22062 0.28053 0.29175 0.0
C601 C 0.27898 0.30101 0.23295 0.0
C602 C 0.2777 0.3294 0.27756 0.0
C603 C 0.34246 0.32639 0.26616 0.0
C604 C 0.35883 0.32123 0.26175 0.0
C605 C 0.37392 0.32566 0.27493 0.0
C606 C 0.38979 0.32267 0.27025 0.0
C607 C 0.39104 0.31531 0.25219 0.0
C608 C 0.37577 0.3102 0.23925 0.0
C609 C 0.35992 0.3131 0.24396 0.0
C610 C 0.30102 0.29163 0.30369 0.0
C611 C 0.30281 0.26331 0.25681 0.0
O612 O 0.251 0.26977 0.28271 0.0
O613 O 0.24171 0.26874 0.25307 0.0
O614 O 0.28766 0.30208 0.24891 0.0
O615 O 0.26452 0.28902 0.23268 0.0
O616 O 0.29406 0.33256 0.27481 0.0
O617 O 0.26772 0.31239 0.27673 0.0
O618 O 0.32895 0.32201 0.25319 0.0
O619 O 0.33852 0.32445 0.28286 0.0
O620 O 0.2923 0.29075 0.28779 0.0
O621 O 0.31597 0.30263 0.30368 0.0
O622 O 0.2866 0.25959 0.26025 0.0
O623 O 0.31247 0.2805 0.25834 0.0
H624 H 0.20623 0.26125 0.24718 0.0
H625 H 0.1787 0.26701 0.25579 0.0
H626 H 0.2047 0.2896 0.31064 0.0
H627 H 0.23206 0.28425 0.30212 0.0
H628 H 0.37354 0.33189 0.28877 0.0
H629 H 0.40113 0.32642 0.28075 0.0
H630 H 0.37612 0.30469 0.22516 0.0
H631 H 0.34861 0.30946 0.23339 0.0
Pr632 Pr 0.55332 0.5431 1.0005 0.0
Pr633 Pr 0.55121 0.56434 0.03687 0.0
C634 C 0.54421 0.52409 0.96726 0.0
C635 C 0.5411 0.53317 0.95045 0.0
C636 C 0.54937 0.52942 0.93526 0.0
C637 C 0.5464 0.53848 0.91936 0.0
C638 C 0.53523 0.55126 0.91879 0.0
C639 C 0.52853 0.55653 0.93465 0.0
C640 C 0.5313 0.54739 0.95035 0.0
C641 C 0.58645 0.56498 0.01088 0.0
C642 C 0.5436 0.58695 0.99992 0.0
C643 C 0.56244 0.58127 0.07087 0.0
C644 C 0.56935 0.57218 0.0867 0.0
C645 C 0.55995 0.56895 0.10147 0.0
C646 C 0.56647 0.56029 0.11647 0.0
C647 C 0.58248 0.55492 0.11683 0.0
C648 C 0.59126 0.5568 0.10153 0.0
C649 C 0.58472 0.5653 0.0865 0.0
C650 C 0.51885 0.5399 0.02731 0.0
C651 C 0.56157 0.52141 0.0375 0.0
O652 O 0.53305 0.52497 0.97875 0.0
O653 O 0.56027 0.528 0.97531 0.0
O654 O 0.57412 0.56503 0.02037 0.0
O655 O 0.58181 0.5529 0.99632 0.0
O656 O 0.54431 0.58767 0.01813 0.0
O657 O 0.54632 0.5718 0.99024 0.0
O658 O 0.57187 0.58343 0.05755 0.0
O659 O 0.54595 0.57548 0.06483 0.0
O660 O 0.53115 0.54103 0.01773 0.0
O661 O 0.52288 0.55227 0.04171 0.0
O662 O 0.55959 0.51984 0.01927 0.0
O663 O 0.55971 0.53686 0.04713 0.0
H664 H 0.55757 0.51908 0.93549 0.0
H665 H 0.55152 0.53426 0.90704 0.0
H666 H 0.51975 0.56628 0.93425 0.0
H667 H 0.52523 0.55104 0.96214 0.0
H668 H 0.54782 0.5736 0.10164 0.0
H669 H 0.5597 0.5591 0.12838 0.0
H670 H 0.60374 0.55285 0.10178 0.0
H671 H 0.59201 0.56695 0.07502 0.0
Pr672 Pr 0.80616 0.30515 0.27833 0.0
Pr673 Pr 0.81356 0.34751 0.26704 0.0
C674 C 0.80562 0.26802 0.2792 0.0
C675 C 0.81884 0.25636 0.27948 0.0
C676 C 0.81829 0.24168 0.29098 0.0
C677 C 0.83044 0.23009 0.29104 0.0
C678 C 0.8433 0.233 0.27955 0.0
C679 C 0.84443 0.24844 0.26887 0.0
C680 C 0.83232 0.26005 0.26885 0.0
C681 C 0.80812 0.32949 0.31126 0.0
C682 C 0.84654 0.32944 0.28044 0.0
C683 C 0.81527 0.38462 0.26532 0.0
C684 C 0.80213 0.39616 0.26179 0.0
C685 C 0.80373 0.4093 0.24862 0.0
C686 C 0.7921 0.42146 0.24637 0.0
C687 C 0.77888 0.4205 0.2573 0.0
C688 C 0.77654 0.4065 0.26949 0.0
C689 C 0.78802 0.3943 0.27163 0.0
C690 C 0.81143 0.32178 0.23494 0.0
C691 C 0.7731 0.32364 0.26257 0.0
O692 O 0.80173 0.27554 0.26384 0.0
O693 O 0.80684 0.27955 0.29409 0.0
O694 O 0.80992 0.33503 0.29522 0.0
O695 O 0.80422 0.31122 0.30972 0.0
O696 O 0.8412 0.34539 0.27897 0.0
O697 O 0.83604 0.31274 0.27831 0.0
O698 O 0.81596 0.3769 0.28097 0.0
O699 O 0.81704 0.37337 0.25124 0.0
O700 O 0.80998 0.31796 0.25137 0.0
O701 O 0.81444 0.33997 0.23489 0.0
O702 O 0.77807 0.30774 0.2663 0.0
O703 O 0.78375 0.34019 0.26434 0.0
H704 H 0.80821 0.23892 0.29959 0.0
H705 H 0.8292 0.21828 0.29937 0.0
H706 H 0.85441 0.25121 0.26013 0.0
H707 H 0.83331 0.27168 0.26028 0.0
H708 H 0.81432 0.41061 0.2406 0.0
H709 H 0.79403 0.43227 0.23695 0.0
H710 H 0.76634 0.40566 0.27803 0.0
H711 H 0.7862 0.38392 0.28151 0.0
Pr712 Pr 0.04659 0.56227 0.5345 0.0
Pr713 Pr 0.03618 0.57511 0.49267 0.0
C714 C 0.04847 0.55998 0.57105 0.0
C715 C 0.03516 0.55806 0.58329 0.0
C716 C 0.03543 0.54547 0.59695 0.0
C717 C 0.02391 0.54494 0.60984 0.0
C718 C 0.01213 0.55707 0.60915 0.0
C719 C 0.01071 0.56825 0.59437 0.0
C720 C 0.02214 0.56872 0.58147 0.0
C721 C 0.04195 0.53088 0.50729 0.0
C722 C 1.00505 0.56021 0.51638 0.0
C723 C 0.03255 0.57691 0.45598 0.0
C724 C 0.04553 0.58128 0.44354 0.0
C725 C 0.04506 0.59614 0.43232 0.0
C726 C 0.05762 0.6006 0.4208 0.0
C727 C 0.07088 0.59033 0.42049 0.0
C728 C 0.07156 0.57583 0.43214 0.0
C729 C 0.05907 0.57139 0.44358 0.0
C730 C 0.04115 0.60615 0.52025 0.0
C731 C 0.07791 0.58049 0.51185 0.0
O732 O 0.05196 0.57613 0.56396 0.0
O733 O 0.04767 0.54531 0.55923 0.0
O734 O 0.04039 0.54765 0.50463 0.0
O735 O 0.047 0.53035 0.52482 0.0
O736 O 0.0088 0.56293 0.49958 0.0
O737 O 0.0169 0.56138 0.53113 0.0
O738 O 0.03182 0.56092 0.46343 0.0
O739 O 0.03132 0.591 0.46762 0.0
O740 O 0.04211 0.58921 0.52239 0.0
O741 O 0.03733 0.60746 0.50264 0.0
O742 O 0.07379 0.57658 0.52832 0.0
O743 O 0.0664 0.57858 0.49659 0.0
H744 H 0.04508 0.53676 0.59821 0.0
H745 H 0.0252 0.53628 0.62121 0.0
H746 H 1.00164 0.57767 0.59364 0.0
H747 H 0.02131 0.5781 0.57065 0.0
H748 H 0.03491 0.60419 0.43237 0.0
H749 H 0.05681 0.6118 0.41189 0.0
H750 H 0.08137 0.56734 0.43188 0.0
H751 H 0.05996 0.56005 0.4523 0.0
Pr752 Pr 0.7866 0.80609 0.28194 0.0
Pr753 Pr 0.82603 0.80111 0.28734 0.0
C754 C 0.75398 0.80726 0.2882 0.0
C755 C 0.74375 0.81191 0.30314 0.0
C756 C 0.73699 0.82854 0.30348 0.0
C757 C 0.72527 0.83169 0.31563 0.0
C758 C 0.71981 0.81818 0.32761 0.0
C759 C 0.72736 0.8021 0.32804 0.0
C760 C 0.73916 0.79902 0.31602 0.0
C761 C 0.81092 0.83622 0.27502 0.0
C762 C 0.8113 0.81534 0.3239 0.0
C763 C 0.8591 0.79961 0.28446 0.0
C764 C 0.86985 0.7945 0.27059 0.0
C765 C 0.87997 0.78084 0.27399 0.0
C766 C 0.89178 0.77746 0.26216 0.0
C767 C 0.89375 0.78783 0.2468 0.0
C768 C 0.88277 0.80055 0.24277 0.0
C769 C 0.87095 0.80385 0.25451 0.0
C770 C 0.80199 0.7715 0.29514 0.0
C771 C 0.80092 0.79068 0.24516 0.0
O772 O 0.7605 0.79197 0.28873 0.0
O773 O 0.76398 0.82116 0.28198 0.0
O774 O 0.81291 0.82643 0.28831 0.0
O775 O 0.7955 0.83168 0.26545 0.0
O776 O 0.82578 0.81587 0.31678 0.0
O777 O 0.79589 0.80954 0.31387 0.0
O778 O 0.85284 0.81501 0.28283 0.0
O779 O 0.84838 0.78577 0.28982 0.0
O780 O 0.79996 0.78097 0.28159 0.0
O781 O 0.81733 0.77645 0.30482 0.0
O782 O 0.78661 0.7912 0.25242 0.0
O783 O 0.81661 0.79568 0.25496 0.0
H784 H 0.74019 0.83879 0.29379 0.0
H785 H 0.71974 0.84421 0.31487 0.0
H786 H 0.7237 0.79154 0.3373 0.0
H787 H 0.74414 0.78612 0.31636 0.0
H788 H 0.87923 0.77328 0.2862 0.0
H789 H 0.90001 0.76754 0.26561 0.0
H790 H 0.88373 0.80845 0.2308 0.0
H791 H 0.86311 0.8142 0.2513 0.0
Pr792 Pr 0.80052 0.34396 0.79997 0.0
Pr793 Pr 0.79542 0.30292 0.77572 0.0
C794 C 0.81551 0.37762 0.81773 0.0
C795 C 0.8187 0.39627 0.81071 0.0
C796 C 0.80566 0.40692 0.80827 0.0
C797 C 0.80861 0.42383 0.80006 0.0
C798 C 0.82448 0.43003 0.79396 0.0
C799 C 0.8374 0.41933 0.79634 0.0
C800 C 0.83461 0.40275 0.80477 0.0
C801 C 0.76698 0.33411 0.77999 0.0
C802 C 0.8062 0.34116 0.75434 0.0
C803 C 0.77914 0.26837 0.76127 0.0
C804 C 0.77244 0.2519 0.77091 0.0
C805 C 0.78152 0.23714 0.77291 0.0
C806 C 0.7745 0.22101 0.78085 0.0
C807 C 0.75831 0.21946 0.78677 0.0
C808 C 0.74994 0.23478 0.78625 0.0
C809 C 0.75695 0.25089 0.77842 0.0
C810 C 0.8282 0.31127 0.79811 0.0
C811 C 0.78757 0.30571 0.81995 0.0
O812 O 0.82433 0.36566 0.81137 0.0
O813 O 0.79938 0.36991 0.81858 0.0
O814 O 0.7789 0.32479 0.7801 0.0
O815 O 0.7724 0.34942 0.79131 0.0
O816 O 0.80234 0.32243 0.75262 0.0
O817 O 0.80674 0.35173 0.77019 0.0
O818 O 0.77119 0.28256 0.76239 0.0
O819 O 0.79598 0.27365 0.76284 0.0
O820 O 0.8169 0.32151 0.79714 0.0
O821 O 0.82269 0.29634 0.78634 0.0
O822 O 0.79367 0.32412 0.82277 0.0
O823 O 0.78602 0.29573 0.80375 0.0
H824 H 0.79322 0.40222 0.81263 0.0
H825 H 0.79863 0.43212 0.79863 0.0
H826 H 0.84997 0.42416 0.79228 0.0
H827 H 0.84493 0.39492 0.80651 0.0
H828 H 0.79367 0.23772 0.76765 0.0
H829 H 0.78102 0.20918 0.781 0.0
H830 H 0.73737 0.23371 0.79066 0.0
H831 H 0.74979 0.26218 0.77758 0.0
Pr832 Pr 0.77045 0.78468 0.76305 0.0
Pr833 Pr 0.80913 0.8088 0.77087 0.0
C834 C 0.73631 0.77012 0.76218 0.0
C835 C 0.72064 0.77442 0.7691 0.0
C836 C 0.70424 0.76712 0.75876 0.0
C837 C 0.68916 0.7699 0.76563 0.0
C838 C 0.69015 0.78 0.78309 0.0
C839 C 0.70668 0.78796 0.79304 0.0
C840 C 0.72173 0.78522 0.78613 0.0
C841 C 0.78389 0.79963 0.73224 0.0
C842 C 0.77848 0.83062 0.7776 0.0
C843 C 0.84115 0.8238 0.76371 0.0
C844 C 0.85802 0.81874 0.76074 0.0
C845 C 0.87234 0.82224 0.77502 0.0
C846 C 0.88873 0.81979 0.7713 0.0
C847 C 0.89114 0.81394 0.75323 0.0
C848 C 0.87678 0.80978 0.73918 0.0
C849 C 0.86046 0.81208 0.74287 0.0
C850 C 0.80149 0.7925 0.80385 0.0
C851 C 0.80147 0.76329 0.75966 0.0
O852 O 0.74853 0.76638 0.77431 0.0
O853 O 0.74236 0.78022 0.74956 0.0
O854 O 0.78567 0.8081 0.74835 0.0
O855 O 0.77522 0.78237 0.7317 0.0
O856 O 0.79441 0.83318 0.77374 0.0
O857 O 0.76879 0.81374 0.77806 0.0
O858 O 0.82785 0.81703 0.75091 0.0
O859 O 0.83696 0.82482 0.78046 0.0
O860 O 0.79145 0.7906 0.78855 0.0
O861 O 0.81607 0.80335 0.80224 0.0
O862 O 0.7861 0.76067 0.76491 0.0
O863 O 0.80903 0.77975 0.75533 0.0
H864 H 0.70306 0.75886 0.74551 0.0
H865 H 0.67673 0.76354 0.75757 0.0
H866 H 0.70799 0.79618 0.80632 0.0
H867 H 0.73421 0.79126 0.79426 0.0
H868 H 0.87102 0.8275 0.7889 0.0
H869 H 0.89965 0.82324 0.78235 0.0
H870 H 0.87832 0.80533 0.72512 0.0
H871 H 0.84987 0.80931 0.73145 0.0
Pr872 Pr 0.54009 0.569 0.53763 0.0
Pr873 Pr 0.58128 0.58032 0.55191 0.0
C874 C 0.50609 0.57001 0.52969 0.0
C875 C 0.49437 0.58294 0.52336 0.0
C876 C 0.48256 0.57802 0.50679 0.0
C877 C 0.46975 0.58858 0.50212 0.0
C878 C 0.46835 0.60429 0.51399 0.0
C879 C 0.48098 0.60993 0.52985 0.0
C880 C 0.49375 0.59943 0.53448 0.0
C881 C 0.56178 0.5654 0.51171 0.0
C882 C 0.56206 0.61388 0.53653 0.0
C883 C 0.6154 0.57971 0.55938 0.0
C884 C 0.62735 0.56646 0.56387 0.0
C885 C 0.63835 0.56901 0.58106 0.0
C886 C 0.65111 0.55809 0.58446 0.0
C887 C 0.65331 0.54453 0.57065 0.0
C888 C 0.64168 0.54131 0.55392 0.0
C889 C 0.6289 0.55205 0.55058 0.0
C890 C 0.56 0.58668 0.57719 0.0
C891 C 0.55893 0.53545 0.55257 0.0
O892 O 0.51495 0.57383 0.54645 0.0
O893 O 0.51468 0.56314 0.51764 0.0
O894 O 0.56385 0.57841 0.52448 0.0
O895 O 0.54728 0.55336 0.51114 0.0
O896 O 0.57722 0.60853 0.53905 0.0
O897 O 0.54748 0.60231 0.53844 0.0
O898 O 0.60683 0.57788 0.54251 0.0
O899 O 0.60641 0.58441 0.57209 0.0
O900 O 0.55744 0.57232 0.56566 0.0
O901 O 0.57487 0.59786 0.57727 0.0
O902 O 0.54395 0.54113 0.55073 0.0
O903 O 0.57359 0.54676 0.55042 0.0
H904 H 0.48274 0.5655 0.49781 0.0
H905 H 0.46038 0.58378 0.48975 0.0
H906 H 0.4807 0.62223 0.53908 0.0
H907 H 0.50278 0.60392 0.54717 0.0
H908 H 0.63748 0.57993 0.59164 0.0
H909 H 0.65978 0.56092 0.59752 0.0
H910 H 0.64278 0.53073 0.54311 0.0
H911 H 0.6206 0.54943 0.53729 0.0
Pr912 Pr 0.06087 0.55656 0.03424 0.0
Pr913 Pr 0.02183 0.55345 0.03749 0.0
C914 C 0.09328 0.55004 0.03398 0.0
C915 C 0.10329 0.53542 0.0288 0.0
C916 C 0.11175 0.53656 0.01303 0.0
C917 C 0.12341 0.52476 0.00973 0.0
C918 C 0.12707 0.51173 0.02227 0.0
C919 C 0.11783 0.50982 0.03739 0.0
C920 C 0.1061 0.52145 0.0406 0.0
C921 C 0.04109 0.56562 0.00331 0.0
C922 C 0.03295 0.51524 0.02382 0.0
C923 C 0.98911 0.55749 0.03935 0.0
C924 C 0.97919 0.57115 0.04637 0.0
C925 C 0.96988 0.56707 0.06115 0.0
C926 C 0.9586 0.57849 0.06629 0.0
C927 C 0.95659 0.59425 0.05684 0.0
C928 C 0.96652 0.59893 0.04276 0.0
C929 C 0.97772 0.58749 0.03754 0.0
C930 C 0.04219 0.5441 0.06763 0.0
C931 C 0.04925 0.59476 0.04957 0.0
O932 O 0.08497 0.54795 0.04823 0.0
O933 O 0.08513 0.5576 0.0207 0.0
O934 O 0.03614 0.55194 0.01238 0.0
O935 O 0.05678 0.57452 0.00964 0.0
O936 O 0.01993 0.52409 0.02153 0.0
O937 O 0.04875 0.52422 0.03089 0.0
O938 O 0.99693 0.56131 0.025 0.0
O939 O 0.99796 0.5495 0.05166 0.0
O940 O 0.04633 0.55812 0.05887 0.0
O941 O 0.02683 0.53443 0.06124 0.0
O942 O 0.06246 0.586 0.05079 0.0
O943 O 0.03346 0.58597 0.04217 0.0
H944 H 0.10995 0.54715 0.00365 0.0
H945 H 0.13031 0.52663 0.99798 0.0
H946 H 0.12015 0.49972 0.04716 0.0
H947 H 0.0998 0.52001 0.05281 0.0
H948 H 0.97077 0.55458 0.06821 0.0
H949 H 0.95091 0.57459 0.07709 0.0
H950 H 0.96492 0.61091 0.03513 0.0
H951 H 0.98468 0.59107 0.02611 0.0
H952 H 0.00985 0.23522 0.93291 0.0
H953 H 0.01574 0.20958 0.9515 0.0
H954 H 0.06282 0.24587 0.97962 0.0
H955 H 0.05629 0.27167 0.96212 0.0
H956 H 0.03911 0.19001 0.95402 0.0
H957 H 0.0458 0.22752 0.02396 0.0
H958 H 0.03795 0.23743 0.00341 0.0
H959 H 0.06087 0.23992 0.01079 0.0
C960 C 0.02131 0.23773 0.94326 0.0
C961 C 0.03246 0.25556 0.94621 0.0
C962 C 0.02474 0.22306 0.95389 0.0
C963 C 0.03957 0.22573 0.96748 0.0
C964 C 0.05091 0.24345 0.96995 0.0
H965 H 0.08761 0.14439 0.03086 0.0
H966 H 0.08297 0.1721 0.0146 0.0
C967 C 0.04724 0.25822 0.95975 0.0
C968 C 0.04358 0.20988 0.97845 0.0
H969 H 0.05643 0.19881 0.02233 0.0
C970 C 0.0428 0.19203 0.96896 0.0
C971 C 0.04836 0.21218 0.99808 0.0
C972 C 0.0481 0.23024 0.00965 0.0
C973 C 0.04684 0.17674 0.97836 0.0
C974 C 0.05202 0.17924 0.99781 0.0
C975 C 0.05283 0.19699 0.00737 0.0
C976 C 0.05516 0.16311 0.00855 0.0
C977 C 0.04546 0.1579 0.96741 0.0
C978 C 0.04111 0.14911 0.01097 0.0
C979 C 0.04367 0.13356 0.02044 0.0
C980 C 0.06043 0.13133 0.0277 0.0
C981 C 0.07455 0.14558 0.02556 0.0
C982 C 0.07191 0.1614 0.01621 0.0
H983 H 0.04454 0.15909 0.95226 0.0
H984 H 0.05677 0.15159 0.97198 0.0
H985 H 0.03368 0.14808 0.96992 0.0
H986 H 0.02807 0.15011 0.00532 0.0
H987 H 0.03237 0.12298 0.02158 0.0
H988 H 0.13569 0.85035 0.16399 0.0
H989 H 0.16331 0.84969 0.18332 0.0
H990 H 0.13863 0.8011 0.20742 0.0
H991 H 0.11095 0.80209 0.18862 0.0
H992 H 0.16669 0.84894 0.22701 0.0
H993 H 0.18521 0.78924 0.18735 0.0
H994 H 0.17127 0.80358 0.1765 0.0
H995 H 0.16316 0.78678 0.19162 0.0
C996 C 0.1362 0.83954 0.17341 0.0
C997 C 0.12116 0.82641 0.17498 0.0
C998 C 0.15196 0.83916 0.18441 0.0
C999 C 0.15304 0.82528 0.19674 0.0
C1000 C 0.1381 0.8119 0.19799 0.0
H1001 H 0.24333 0.80315 0.27003 0.0
H1002 H 0.21461 0.79953 0.25106 0.0
C1003 C 0.12229 0.81256 0.18734 0.0
C1004 C 0.16957 0.82532 0.20897 0.0
H1005 H 0.20376 0.80293 0.21484 0.0
C1006 C 0.17482 0.83891 0.22435 0.0
C1007 C 0.17996 0.81197 0.2057 0.0
C1008 C 0.17476 0.79705 0.18938 0.0
C1009 C 0.19024 0.83963 0.2365 0.0
C1010 C 0.20111 0.82679 0.23284 0.0
C1011 C 0.19558 0.81286 0.21766 0.0
C1012 C 0.21863 0.8284 0.24396 0.0
C1013 C 0.19454 0.854 0.25333 0.0
C1014 C 0.23067 0.84557 0.24593 0.0
C1015 C 0.2468 0.84768 0.2569 0.0
C1016 C 0.25164 0.83252 0.26574 0.0
C1017 C 0.24 0.815 0.26318 0.0
C1018 C 0.22358 0.81298 0.25243 0.0
H1019 H 0.18269 0.858 0.25749 0.0
H1020 H 0.20148 0.84858 0.26531 0.0
H1021 H 0.20289 0.86702 0.24999 0.0
H1022 H 0.22754 0.85749 0.23907 0.0
H1023 H 0.25556 0.86129 0.2585 0.0
H1024 H 0.5131 0.84165 0.46197 0.0
H1025 H 0.51379 0.87271 0.478 0.0
H1026 H 0.55142 0.89834 0.44524 0.0
H1027 H 0.55038 0.8674 0.42873 0.0
H1028 H 0.54167 0.89813 0.49872 0.0
H1029 H 0.51379 0.92893 0.43693 0.0
H1030 H 0.5134 0.90394 0.43691 0.0
H1031 H 0.53298 0.92001 0.43449 0.0
C1032 C 0.52155 0.85392 0.45826 0.0
C1033 C 0.53165 0.85225 0.44415 0.0
C1034 C 0.52192 0.87158 0.46738 0.0
C1035 C 0.53248 0.88772 0.46258 0.0
C1036 C 0.54293 0.88604 0.44881 0.0
H1037 H 0.55797 1.00282 0.50456 0.0
H1038 H 0.55731 0.97035 0.49305 0.0
C1039 C 0.54238 0.86841 0.4395 0.0
C1040 C 0.53241 0.90629 0.47204 0.0
H1041 H 0.52263 0.94916 0.46477 0.0
C1042 C 0.53738 0.90926 0.49136 0.0
C1043 C 0.52693 0.92072 0.46226 0.0
C1044 C 0.52134 0.91825 0.44152 0.0
C1045 C 0.53707 0.92649 0.50119 0.0
C1046 C 0.53143 0.94073 0.49137 0.0
C1047 C 0.52656 0.93784 0.47213 0.0
C1048 C 0.53215 0.95956 0.50039 0.0
C1049 C 0.54311 0.92963 0.52182 0.0
C1050 C 0.51804 0.96401 0.50812 0.0
C1051 C 0.51826 0.98271 0.51462 0.0
C1052 C 0.53264 0.99686 0.5134 0.0
C1053 C 0.54673 0.99214 0.50573 0.0
C1054 C 0.54647 0.97365 0.49926 0.0
H1055 H 0.54706 0.91699 0.5274 0.0
H1056 H 0.55426 0.94175 0.52498 0.0
H1057 H 0.5326 0.93328 0.52906 0.0
H1058 H 0.50684 0.9531 0.50884 0.0
H1059 H 0.50741 0.98604 0.52076 0.0
H1060 H 0.51109 0.32208 0.64472 0.0
H1061 H 0.48479 0.31207 0.65855 0.0
H1062 H 0.51409 0.28793 0.70108 0.0
H1063 H 0.5404 0.29856 0.68783 0.0
H1064 H 0.46725 0.27752 0.66547 0.0
H1065 H 0.49252 0.32218 0.73206 0.0
H1066 H 0.50329 0.3246 0.71193 0.0
H1067 H 0.50583 0.3059 0.72632 0.0
C1068 C 0.51191 0.31478 0.65711 0.0
C1069 C 0.52786 0.31148 0.66544 0.0
C1070 C 0.49687 0.30897 0.66494 0.0
C1071 C 0.49751 0.2996 0.68112 0.0
C1072 C 0.51334 0.29564 0.68897 0.0
H1073 H 0.42218 0.27084 0.75579 0.0
H1074 H 0.4463 0.26984 0.73862 0.0
C1075 C 0.52838 0.30172 0.68136 0.0
C1076 C 0.48177 0.29437 0.69004 0.0
H1077 H 0.46571 0.30133 0.73047 0.0
C1078 C 0.4669 0.28272 0.67969 0.0
C1079 C 0.48131 0.30106 0.70863 0.0
C1080 C 0.49653 0.31426 0.72034 0.0
C1081 C 0.45163 0.27757 0.68744 0.0
C1082 C 0.45113 0.28452 0.70594 0.0
C1083 C 0.4661 0.29588 0.71634 0.0
C1084 C 0.43506 0.28146 0.71459 0.0
C1085 C 0.43627 0.2646 0.67579 0.0
C1086 C 0.4204 0.2877 0.70658 0.0
C1087 C 0.40643 0.28802 0.71627 0.0
C1088 C 0.40694 0.28244 0.73435 0.0
C1089 C 0.42122 0.27515 0.74189 0.0
C1090 C 0.43512 0.27469 0.73211 0.0
H1091 H 0.44034 0.25561 0.6649 0.0
H1092 H 0.42861 0.2553 0.68442 0.0
H1093 H 0.42778 0.27322 0.66871 0.0
H1094 H 0.4201 0.2933 0.69324 0.0
H1095 H 0.39552 0.29337 0.70985 0.0
H1096 H 0.10267 0.88502 0.63342 0.0
H1097 H 0.10399 0.9148 0.61896 0.0
H1098 H 0.04981 0.89807 0.59709 0.0
H1099 H 0.04853 0.86814 0.61102 0.0
H1100 H 0.09225 0.91826 0.57731 0.0
H1101 H 0.0583 0.95356 0.6268 0.0
H1102 H 0.0698 0.93511 0.63285 0.0
H1103 H 0.04877 0.92918 0.61907 0.0
C1104 C 0.09104 0.88768 0.62548 0.0
C1105 C 0.0755 0.8741 0.62323 0.0
C1106 C 0.09183 0.90472 0.61722 0.0
C1107 C 0.07698 0.90875 0.60694 0.0
C1108 C 0.06143 0.89533 0.60495 0.0
H1109 H 0.04071 0.98732 0.53696 0.0
H1110 H 0.04643 0.96075 0.5542 0.0
C1111 C 0.06072 0.87816 0.61285 0.0
C1112 C 0.07754 0.92672 0.59793 0.0
H1113 H 0.06098 0.96702 0.59837 0.0
C1114 C 0.08562 0.92905 0.58204 0.0
C1115 C 0.06906 0.94094 0.60418 0.0
C1116 C 0.06109 0.93977 0.62175 0.0
C1117 C 0.08464 0.9447 0.57177 0.0
C1118 C 0.07538 0.9584 0.57752 0.0
C1119 C 0.06792 0.95644 0.59382 0.0
C1120 C 0.07249 0.97434 0.56635 0.0
C1121 C 0.09298 0.94622 0.55447 0.0
C1122 C 0.08519 0.99094 0.56745 0.0
C1123 C 0.08177 0.00636 0.55794 0.0
C1124 C 0.06573 0.00531 0.54678 0.0
C1125 C 0.05323 0.9885 0.54532 0.0
C1126 C 0.05649 0.97331 0.55518 0.0
H1127 H 0.09908 0.934 0.55137 0.0
H1128 H 0.08318 0.94713 0.54245 0.0
H1129 H 0.10303 0.95939 0.55614 0.0
H1130 H 0.09763 0.9921 0.57595 0.0
H1131 H 0.09169 0.01908 0.55922 0.0
H1132 H 0.48812 0.78659 0.85132 0.0
H1133 H 0.46253 0.79146 0.83137 0.0
H1134 H 0.43972 0.80503 0.87964 0.0
H1135 H 0.46539 0.80027 0.89981 0.0
H1136 H 0.42527 0.77552 0.82986 0.0
H1137 H 0.44459 0.85305 0.85026 0.0
H1138 H 0.45936 0.83724 0.85456 0.0
H1139 H 0.44286 0.83826 0.8689 0.0
C1140 C 0.47752 0.79026 0.85771 0.0
C1141 C 0.47877 0.79315 0.87713 0.0
C1142 C 0.46294 0.79302 0.84629 0.0
C1143 C 0.44945 0.79881 0.8541 0.0
C1144 C 0.45017 0.80072 0.87344 0.0
H1145 H 0.35918 0.83877 0.81487 0.0
H1146 H 0.38536 0.83168 0.83167 0.0
C1147 C 0.46476 0.7979 0.88491 0.0
C1148 C 0.43525 0.80414 0.84197 0.0
H1149 H 0.4185 0.84221 0.83003 0.0
C1150 C 0.42372 0.79007 0.82981 0.0
C1151 C 0.43349 0.82318 0.84196 0.0
C1152 C 0.44578 0.83888 0.8545 0.0
C1153 C 0.41 0.79448 0.81801 0.0
C1154 C 0.40824 0.81357 0.81806 0.0
C1155 C 0.42001 0.82764 0.82997 0.0
C1156 C 0.39339 0.81915 0.80727 0.0
C1157 C 0.39717 0.77862 0.8062 0.0
C1158 C 0.38958 0.81501 0.7879 0.0
C1159 C 0.37439 0.81871 0.77837 0.0
C1160 C 0.36342 0.82724 0.78811 0.0
C1161 C 0.36783 0.83257 0.80717 0.0
C1162 C 0.38265 0.82839 0.81673 0.0
H1163 H 0.39819 0.7646 0.81092 0.0
H1164 H 0.38371 0.78062 0.8064 0.0
H1165 H 0.3997 0.77845 0.79163 0.0
H1166 H 0.39801 0.80839 0.7803 0.0
H1167 H 0.37094 0.81438 0.76363 0.0
H1168 H 0.54289 0.27208 0.10027 0.0
H1169 H 0.53783 0.24044 0.08364 0.0
H1170 H 0.58162 0.22834 0.11857 0.0
H1171 H 0.58629 0.25972 0.13566 0.0
H1172 H 0.55692 0.22478 0.06307 0.0
H1173 H 0.5479 0.18082 0.12115 0.0
H1174 H 0.54832 0.20587 0.12356 0.0
H1175 H 0.56818 0.19729 0.1249 0.0
C1176 C 0.55139 0.26264 0.10449 0.0
C1177 C 0.56499 0.26851 0.11934 0.0
C1178 C 0.54847 0.24447 0.09496 0.0
C1179 C 0.55912 0.23161 0.09991 0.0
C1180 C 0.57283 0.23756 0.11469 0.0
H1181 H 0.56316 0.11719 0.05091 0.0
H1182 H 0.56816 0.14742 0.07064 0.0
C1183 C 0.57562 0.25567 0.12438 0.0
C1184 C 0.55636 0.21252 0.08894 0.0
H1185 H 0.55061 0.1648 0.09243 0.0
C1186 C 0.55545 0.21169 0.06955 0.0
C1187 C 0.55456 0.19525 0.09722 0.0
C1188 C 0.55462 0.19478 0.11783 0.0
C1189 C 0.55305 0.1944 0.05832 0.0
C1190 C 0.55106 0.17707 0.06652 0.0
C1191 C 0.55212 0.1779 0.08597 0.0
C1192 C 0.54755 0.15807 0.05513 0.0
C1193 C 0.55317 0.19512 0.03776 0.0
C1194 C 0.53398 0.15341 0.0401 0.0
C1195 C 0.53135 0.13634 0.02868 0.0
C1196 C 0.54176 0.12296 0.03227 0.0
C1197 C 0.55477 0.12705 0.04786 0.0
C1198 C 0.55768 0.14442 0.05911 0.0
H1199 H 0.56049 0.20892 0.03471 0.0
H1200 H 0.55897 0.18371 0.03181 0.0
H1201 H 0.5397 0.19347 0.03066 0.0
H1202 H 0.52546 0.16311 0.03699 0.0
H1203 H 0.52113 0.13362 0.01689 0.0
H1204 H 0.08071 0.28395 0.39332 0.0
H1205 H 0.10119 0.27963 0.37185 0.0
H1206 H 0.07475 0.30942 0.33211 0.0
H1207 H 0.05404 0.31351 0.35338 0.0
H1208 H 0.09204 0.26189 0.33165 0.0
H1209 H 0.12804 0.33658 0.34112 0.0
H1210 H 0.11548 0.32655 0.35813 0.0
H1211 H 0.10478 0.33242 0.33684 0.0
C1212 C 0.07934 0.28972 0.38008 0.0
C1213 C 0.06585 0.29924 0.37515 0.0
C1214 C 0.09099 0.28713 0.36777 0.0
C1215 C 0.08958 0.29429 0.35041 0.0
C1216 C 0.07616 0.30388 0.34547 0.0
H1217 H 0.16393 0.29682 0.26997 0.0
H1218 H 0.13752 0.29989 0.28319 0.0
C1219 C 0.06435 0.30622 0.35766 0.0
C1220 C 0.10221 0.29177 0.33755 0.0
H1221 H 0.13724 0.31543 0.32052 0.0
C1222 C 0.10186 0.27361 0.32912 0.0
C1223 C 0.1149 0.30708 0.33407 0.0
C1224 C 0.11601 0.32679 0.34304 0.0
C1225 C 0.11406 0.27033 0.31761 0.0
C1226 C 0.12721 0.28553 0.31474 0.0
C1227 C 0.12716 0.30379 0.32265 0.0
C1228 C 0.14217 0.28247 0.3054 0.0
C1229 C 0.11284 0.2506 0.30864 0.0
C1230 C 0.15352 0.27167 0.31341 0.0
C1231 C 0.16859 0.27015 0.30608 0.0
C1232 C 0.1727 0.27928 0.29048 0.0
C1233 C 0.16108 0.28961 0.282 0.0
C1234 C 0.14602 0.29138 0.28955 0.0
H1235 H 0.09957 0.24198 0.30762 0.0
H1236 H 0.11654 0.25091 0.29452 0.0
H1237 H 0.12181 0.24352 0.31716 0.0
H1238 H 0.15102 0.26489 0.32576 0.0
H1239 H 0.17723 0.26199 0.31281 0.0
H1240 H 0.96149 0.06569 0.20016 0.0
H1241 H 0.9835 0.07655 0.18117 0.0
H1242 H 0.95295 0.04082 0.1338 0.0
H1243 H 0.9303 0.0303 0.15287 0.0
H1244 H 1.00111 0.05257 0.16317 0.0
H1245 H 0.96592 0.0931 0.11473 0.0
H1246 H 0.95872 0.0867 0.13625 0.0
H1247 H 0.95519 0.06928 0.11659 0.0
C1248 C 0.95945 0.06023 0.18565 0.0
C1249 C 0.94445 0.04713 0.17779 0.0
C1250 C 0.97195 0.06646 0.1749 0.0
C1251 C 0.96966 0.0595 0.15624 0.0
C1252 C 0.95462 0.04649 0.1482 0.0
H1253 H 0.03015 0.05888 0.07366 0.0
H1254 H 0.00927 0.05625 0.0949 0.0
C1255 C 0.94184 0.04047 0.15898 0.0
C1256 C 0.98359 0.06541 0.14562 0.0
H1257 H 0.99376 0.08938 0.1091 0.0
C1258 C 0.99963 0.06081 0.15146 0.0
C1259 C 0.98139 0.07618 0.13054 0.0
C1260 C 0.96442 0.08177 0.12418 0.0
C1261 C 0.01359 0.0663 0.14208 0.0
C1262 C 0.01127 0.07678 0.12681 0.0
C1263 C 0.99537 0.08171 0.1212 0.0
C1264 C 0.024 0.07946 0.11432 0.0
C1265 C 0.0304 0.06012 0.14784 0.0
C1266 C 0.03904 0.09355 0.11844 0.0
C1267 C 0.05103 0.09532 0.10608 0.0
C1268 C 0.04789 0.0829 0.08982 0.0
C1269 C 0.03275 0.06887 0.08594 0.0
C1270 C 0.02085 0.06725 0.09806 0.0
H1271 H 0.02994 0.05182 0.16002 0.0
H1272 H 0.03349 0.05134 0.13612 0.0
H1273 H 0.04106 0.0727 0.15133 0.0
H1274 H 0.04147 0.10296 0.13115 0.0
H1275 H 0.06276 0.10607 0.10933 0.0
H1276 H 0.28695 0.7508 0.48025 0.0
H1277 H 0.28501 0.76508 0.45092 0.0
H1278 H 0.26866 0.70975 0.42071 0.0
H1279 H 0.27046 0.69532 0.45001 0.0
H1280 H 0.3041 0.75699 0.42131 0.0
H1281 H 0.23286 0.74055 0.39867 0.0
H1282 H 0.24232 0.73985 0.42243 0.0
H1283 H 0.24297 0.72129 0.40503 0.0
C1284 C 0.28279 0.74168 0.46739 0.0
C1285 C 0.27887 0.72197 0.46744 0.0
C1286 C 0.28169 0.74984 0.45066 0.0
C1287 C 0.27652 0.73847 0.43371 0.0
C1288 C 0.2724 0.71877 0.43368 0.0
H1289 H 0.27114 0.77049 0.32096 0.0
H1290 H 0.26751 0.75344 0.34819 0.0
C1291 C 0.27353 0.71058 0.45042 0.0
C1292 C 0.27648 0.74737 0.41613 0.0
H1293 H 0.25009 0.75709 0.37886 0.0
C1294 C 0.2923 0.75704 0.41203 0.0
C1295 C 0.26108 0.74706 0.40392 0.0
C1296 C 0.24378 0.73674 0.40768 0.0
C1297 C 0.29313 0.76671 0.39617 0.0
C1298 C 0.27766 0.76716 0.38438 0.0
C1299 C 0.26187 0.75698 0.38813 0.0
C1300 C 0.27782 0.77797 0.36798 0.0
C1301 C 0.31062 0.77616 0.39206 0.0
C1302 C 0.28414 0.79758 0.3701 0.0
C1303 C 0.28633 0.80741 0.35456 0.0
C1304 C 0.28213 0.79779 0.33662 0.0
C1305 C 0.27472 0.77834 0.33456 0.0
C1306 C 0.27258 0.76854 0.35011 0.0
H1307 H 0.3212 0.77028 0.39945 0.0
H1308 H 0.31122 0.77454 0.37694 0.0
H1309 H 0.31296 0.79148 0.39672 0.0
H1310 H 0.2879 0.80518 0.38382 0.0
H1311 H 0.29188 0.8224 0.35667 0.0
H1312 H 0.60953 0.97026 0.70503 0.0
H1313 H 0.59361 0.97901 0.67694 0.0
H1314 H 0.6334 0.02891 0.67826 0.0
H1315 H 0.64969 0.0197 0.70544 0.0
H1316 H 0.58062 0.01052 0.67385 0.0
H1317 H 0.62831 0.00834 0.62526 0.0
H1318 H 0.63028 0.99834 0.64713 0.0
H1319 H 0.63706 0.02338 0.64626 0.0
C1320 C 0.61499 0.9828 0.69893 0.0
C1321 C 0.63089 0.99414 0.707 0.0
C1322 C 0.60592 0.98783 0.68307 0.0
C1323 C 0.61256 1.00439 0.67542 0.0
C1324 C 0.6284 0.01574 0.68359 0.0
H1325 H 0.57205 0.06234 0.58527 0.0
H1326 H 0.58886 0.05476 0.6133 0.0
C1327 C 0.63766 0.01047 0.69909 0.0
C1328 C 0.60254 0.0104 0.65945 0.0
H1329 H 0.60466 0.02274 0.61565 0.0
C1330 C 0.5858 0.01307 0.66106 0.0
C1331 C 0.60952 0.01393 0.64295 0.0
C1332 C 0.62722 0.01068 0.64021 0.0
C1333 C 0.57576 0.01918 0.64648 0.0
C1334 C 0.58272 0.02252 0.62998 0.0
C1335 C 0.59952 0.02018 0.62846 0.0
C1336 C 0.57243 0.02735 0.61363 0.0
C1337 C 0.55789 0.02213 0.64883 0.0
C1338 C 0.55802 0.01419 0.60456 0.0
C1339 C 0.54849 0.01843 0.58867 0.0
C1340 C 0.55342 0.03581 0.58164 0.0
C1341 C 0.5681 0.04882 0.59049 0.0
C1342 C 0.57759 0.04459 0.60646 0.0
H1343 H 0.55624 0.02365 0.66369 0.0
H1344 H 0.55514 0.03487 0.64241 0.0
H1345 H 0.54817 0.00972 0.64184 0.0
H1346 H 0.55421 1.00061 0.60973 0.0
H1347 H 0.53726 0.00815 0.58194 0.0
H1348 H 0.29539 0.41249 0.97306 0.0
H1349 H 0.29384 0.39725 0.94173 0.0
H1350 H 0.31471 0.35167 0.96451 0.0
H1351 H 0.31599 0.36665 0.99593 0.0
H1352 H 0.32202 0.39081 0.92685 0.0
H1353 H 0.27498 0.32356 0.9254 0.0
H1354 H 0.27665 0.34342 0.94246 0.0
H1355 H 0.29151 0.32764 0.94533 0.0
C1356 C 0.29945 0.39909 0.97139 0.0
C1357 C 0.30594 0.39078 0.98689 0.0
C1358 C 0.2985 0.3904 0.95351 0.0
C1359 C 0.304 0.37327 0.95085 0.0
C1360 C 0.31005 0.36469 0.96631 0.0
H1361 H 0.33069 0.30992 0.85709 0.0
H1362 H 0.32896 0.32399 0.88843 0.0
C1363 C 0.31091 0.37332 0.98422 0.0
C1364 C 0.30511 0.36535 0.93196 0.0
H1365 H 0.29325 0.32526 0.90183 0.0
C1366 C 0.31564 0.37652 0.92133 0.0
C1367 C 0.29664 0.34678 0.92476 0.0
C1368 C 0.28416 0.33472 0.93499 0.0
C1369 C 0.31838 0.36937 0.9039 0.0
C1370 C 0.31045 0.35059 0.89707 0.0
C1371 C 0.29963 0.33952 0.90745 0.0
C1372 C 0.31229 0.34266 0.87854 0.0
C1373 C 0.32984 0.3818 0.89293 0.0
C1374 C 0.30356 0.34867 0.86292 0.0
C1375 C 0.3044 0.34062 0.84531 0.0
C1376 C 0.31411 0.32658 0.84306 0.0
C1377 C 0.32329 0.32088 0.85863 0.0
C1378 C 0.32222 0.32878 0.87639 0.0
H1379 H 0.33735 0.3948 0.90148 0.0
H1380 H 0.33896 0.37395 0.88716 0.0
H1381 H 0.32171 0.38609 0.8811 0.0
H1382 H 0.29582 0.35932 0.8644 0.0
H1383 H 0.29728 0.34521 0.83339 0.0
H1384 H 0.94804 0.07121 0.26522 0.0
H1385 H 0.96681 0.07618 0.29516 0.0
H1386 H 0.94104 0.0222 0.30913 0.0
H1387 H 0.92195 0.0173 0.27903 0.0
H1388 H 0.95971 0.07238 0.33488 0.0
H1389 H 0.99379 0.02068 0.30285 0.0
H1390 H 0.9793 0.03242 0.28908 0.0
H1391 H 0.97078 0.01379 0.30219 0.0
C1392 C 0.94612 0.06072 0.27499 0.0
C1393 C 0.93391 0.04387 0.27018 0.0
C1394 C 0.95671 0.06358 0.29196 0.0
C1395 C 0.95522 0.04946 0.30398 0.0
C1396 C 0.94217 0.03316 0.29979 0.0
H1397 H 0.01522 0.02297 0.39561 0.0
H1398 H 0.99718 0.02512 0.36671 0.0
C1399 C 0.93136 0.03039 0.28281 0.0
C1400 C 0.9689 0.05083 0.31955 0.0
H1401 H 1.00524 0.03435 0.33314 0.0
C1402 C 0.9697 0.06411 0.33467 0.0
C1403 C 0.9819 0.04019 0.31865 0.0
C1404 C 0.98157 0.02602 0.3023 0.0
C1405 C 0.98301 0.06645 0.34964 0.0
C1406 C 0.99591 0.05559 0.34889 0.0
C1407 C 0.99537 0.0428 0.33338 0.0
C1408 C 1.0082 0.05463 0.36525 0.0
C1409 C 0.98269 0.07976 0.36642 0.0
C1410 C 0.02048 0.07052 0.37368 0.0
C1411 C 0.03064 0.06937 0.39047 0.0
C1412 C 0.02879 0.05216 0.39828 0.0
C1413 C 0.01709 0.03617 0.38933 0.0
C1414 C 1.00677 0.03742 0.37297 0.0
H1415 H 0.97041 0.08499 0.36567 0.0
H1416 H 0.98443 0.07266 0.37929 0.0
H1417 H 0.99348 0.09215 0.36744 0.0
H1418 H 0.02177 0.08382 0.36763 0.0
H1419 H 0.03944 0.08185 0.39759 0.0
H1420 H 0.27217 0.7072 0.58005 0.0
H1421 H 0.27512 0.72457 0.61074 0.0
H1422 H 0.31682 0.7659 0.59687 0.0
H1423 H 0.31324 0.74905 0.56583 0.0
H1424 H 0.29944 0.73209 0.63902 0.0
H1425 H 0.2906 0.80147 0.6171 0.0
H1426 H 0.28646 0.78058 0.60086 0.0
H1427 H 0.30821 0.79376 0.60806 0.0
C1428 C 0.28191 0.72007 0.5835 0.0
C1429 C 0.29243 0.72673 0.57038 0.0
C1430 C 0.28361 0.73004 0.60114 0.0
C1431 C 0.296 0.74692 0.60633 0.0
C1432 C 0.30673 0.75337 0.59327 0.0
H1433 H 0.32941 0.82668 0.70618 0.0
H1434 H 0.32558 0.8081 0.67613 0.0
C1435 C 0.3048 0.74359 0.57548 0.0
C1436 C 0.29797 0.75725 0.62553 0.0
H1437 H 0.30064 0.80072 0.64908 0.0
C1438 C 0.29958 0.74709 0.64116 0.0
C1439 C 0.2982 0.77689 0.62864 0.0
C1440 C 0.2956 0.78877 0.61278 0.0
C1441 C 0.30186 0.75591 0.65952 0.0
C1442 C 0.30223 0.77559 0.66267 0.0
C1443 C 0.30046 0.78571 0.64699 0.0
C1444 C 0.30502 0.78617 0.68192 0.0
C1445 C 0.30446 0.74401 0.67533 0.0
C1446 C 0.29497 0.78024 0.69579 0.0
C1447 C 0.29753 0.79074 0.71343 0.0
C1448 C 0.30992 0.80772 0.71753 0.0
C1449 C 0.31985 0.81361 0.70366 0.0
C1450 C 0.31757 0.80299 0.68629 0.0
H1451 H 0.30904 0.73107 0.67088 0.0
H1452 H 0.31394 0.75206 0.68705 0.0
H1453 H 0.29193 0.73944 0.68036 0.0
H1454 H 0.28477 0.76776 0.69287 0.0
H1455 H 0.2893 0.78602 0.72353 0.0
H1456 H 0.66083 0.02415 0.8131 0.0
H1457 H 0.6503 0.04519 0.83448 0.0
H1458 H 0.60046 0.00746 0.82578 0.0
H1459 H 0.6108 0.98644 0.80369 0.0
H1460 H 0.61239 0.05702 0.81945 0.0
H1461 H 0.62426 0.02615 0.88652 0.0
H1462 H 0.63767 0.02426 0.86865 0.0
H1463 H 0.61607 0.01063 0.86546 0.0
C1464 C 0.64779 0.01999 0.81622 0.0
C1465 C 0.63659 1.00361 0.80703 0.0
C1466 C 0.6418 0.03212 0.82822 0.0
C1467 C 0.62469 0.02777 0.83147 0.0
C1468 C 0.61372 0.0109 0.82321 0.0
H1469 H 0.55394 0.07387 0.88417 0.0
H1470 H 0.56964 0.06325 0.86031 0.0
C1471 C 0.61962 0.99891 0.81083 0.0
C1472 C 0.61802 0.04145 0.84272 0.0
H1473 H 0.60989 0.05179 0.88637 0.0
C1474 C 0.61189 0.05605 0.83411 0.0
C1475 C 0.61771 0.04004 0.86176 0.0
C1476 C 0.6243 0.02449 0.8713 0.0
C1477 C 0.6048 0.06908 0.84416 0.0
C1478 C 0.60409 0.06739 0.86314 0.0
C1479 C 0.61074 0.05311 0.87181 0.0
C1480 C 0.59467 0.07865 0.87393 0.0
C1481 C 0.59786 0.08437 0.83455 0.0
C1482 C 0.60359 0.09132 0.88907 0.0
C1483 C 0.59465 0.0973 0.90281 0.0
C1484 C 0.57674 0.0907 0.90135 0.0
C1485 C 0.56769 0.0795 0.88529 0.0
C1486 C 0.57662 0.07342 0.87169 0.0
H1487 H 0.60134 0.08523 0.82037 0.0
H1488 H 0.58356 0.08147 0.83347 0.0
H1489 H 0.60291 0.09827 0.84283 0.0
H1490 H 0.61757 0.09529 0.89099 0.0
H1491 H 0.60182 0.10579 0.91521 0.0
H1492 H 0.32438 0.4102 0.10607 0.0
H1493 H 0.32015 0.39281 0.13317 0.0
H1494 H 0.28021 0.35085 0.09937 0.0
H1495 H 0.28511 0.36766 0.07211 0.0
H1496 H 0.29464 0.38451 0.15163 0.0
H1497 H 0.30641 0.31593 0.12314 0.0
H1498 H 0.31059 0.33691 0.1113 0.0
H1499 H 0.28893 0.3232 0.10944 0.0
C1500 C 0.3148 0.39717 0.10439 0.0
C1501 C 0.30525 0.39024 0.08685 0.0
C1502 C 0.31235 0.3872 0.11995 0.0
C1503 C 0.30012 0.37012 0.11847 0.0
C1504 C 0.2902 0.36351 0.10098 0.0
H1505 H 0.26242 0.2935 0.19752 0.0
H1506 H 0.26796 0.31037 0.17054 0.0
C1507 C 0.29291 0.37326 0.08535 0.0
C1508 C 0.29755 0.35965 0.1353 0.0
H1509 H 0.29544 0.31629 0.15182 0.0
C1510 C 0.29499 0.36962 0.15165 0.0
C1511 C 0.29783 0.34011 0.13555 0.0
C1512 C 0.30125 0.32846 0.11898 0.0
C1513 C 0.29251 0.36072 0.16792 0.0
C1514 C 0.29284 0.34124 0.16817 0.0
C1515 C 0.29528 0.33122 0.15182 0.0
C1516 C 0.28998 0.33081 0.18494 0.0
C1517 C 0.28902 0.3722 0.18455 0.0
C1518 C 0.30062 0.33635 0.20226 0.0
C1519 C 0.29741 0.32666 0.2179 0.0
C1520 C 0.28363 0.31104 0.21655 0.0
C1521 C 0.27323 0.30539 0.19914 0.0
C1522 C 0.27639 0.31505 0.18361 0.0
H1523 H 0.28482 0.38536 0.18071 0.0
H1524 H 0.27891 0.36388 0.19142 0.0
H1525 H 0.30105 0.37631 0.19473 0.0
H1526 H 0.3114 0.34824 0.20373 0.0
H1527 H 0.30544 0.33168 0.23109 0.0
H1528 H 0.26477 0.93237 0.06915 0.0
H1529 H 0.2437 0.94992 0.07986 0.0
H1530 H 0.25994 0.99397 0.04573 0.0
H1531 H 0.28122 0.97672 0.03528 0.0
H1532 H 0.24877 0.99329 0.0962 0.0
H1533 H 0.20531 0.96989 0.02924 0.0
H1534 H 0.22185 0.95745 0.03785 0.0
H1535 H 0.22764 0.9791 0.02763 0.0
C1536 C 0.26377 0.94575 0.06383 0.0
C1537 C 0.27442 0.95292 0.05099 0.0
C1538 C 0.25187 0.95589 0.07017 0.0
C1539 C 0.25018 0.9733 0.06362 0.0
C1540 C 0.26101 0.98061 0.05104 0.0
H1541 H 0.18307 0.05111 0.05571 0.0
H1542 H 0.20665 0.03387 0.05722 0.0
C1543 C 0.27308 0.97064 0.04495 0.0
C1544 C 0.23613 0.98307 0.06841 0.0
H1545 H 0.19818 0.99366 0.04883 0.0
C1546 C 0.2376 0.99324 0.08594 0.0
C1547 C 0.22145 0.98288 0.05517 0.0
C1548 C 0.21878 0.97164 0.03644 0.0
C1549 C 0.22513 1.00388 0.09012 0.0
C1550 C 0.21084 1.00429 0.07646 0.0
C1551 C 0.20914 0.99351 0.05929 0.0
C1552 C 0.19816 0.01688 0.07863 0.0
C1553 C 0.22761 0.0152 0.10877 0.0
C1554 C 0.18566 0.01358 0.09062 0.0
C1555 C 0.17206 0.02363 0.08982 0.0
C1556 C 0.17065 0.03694 0.07685 0.0
C1557 C 0.18367 0.04081 0.06567 0.0
C1558 C 0.19722 0.03098 0.06657 0.0
H1559 H 0.24023 0.01494 0.11719 0.0
H1560 H 0.22679 0.0301 0.10696 0.0
H1561 H 0.21712 0.00935 0.11657 0.0
H1562 H 0.18593 1.00265 0.09992 0.0
H1563 H 0.1622 0.02033 0.09861 0.0
H1564 H 0.74427 0.64666 0.00322 0.0
H1565 H 0.71562 0.62709 0.00339 0.0
H1566 H 0.70017 0.67406 0.03167 0.0
H1567 H 0.72859 0.69384 0.03093 0.0
H1568 H 0.6988 0.61513 0.03037 0.0
H1569 H 0.65998 0.65894 0.99118 0.0
H1570 H 0.68319 0.66286 0.99284 0.0
H1571 H 0.67336 0.67211 0.01137 0.0
C1572 C 0.73472 0.65288 0.00935 0.0
C1573 C 0.73872 0.67191 0.01691 0.0
C1574 C 0.7183 0.64163 0.00947 0.0
C1575 C 0.70542 0.64906 0.01722 0.0
C1576 C 0.70955 0.66801 0.02507 0.0
H1577 H 0.599 0.59841 0.03412 0.0
H1578 H 0.62808 0.61876 0.03707 0.0
C1579 C 0.7259 0.67933 0.02476 0.0
C1580 C 0.68793 0.63688 0.01752 0.0
H1581 H 0.64436 0.63452 0.00605 0.0
C1582 C 0.68693 0.61941 0.025 0.0
C1583 C 0.67228 0.64222 0.01041 0.0
C1584 C 0.67221 0.65994 1.00082 0.0
C1585 C 0.67091 0.60744 0.02585 0.0
C1586 C 0.65529 0.61297 0.01907 0.0
C1587 C 0.65625 0.63039 0.01159 0.0
C1588 C 0.63792 0.60029 0.01838 0.0
C1589 C 0.67083 0.58896 0.03411 0.0
C1590 C 0.6337 0.58313 0.00697 0.0
C1591 C 0.61719 0.57165 0.00522 0.0
C1592 C 0.60433 0.57686 0.01487 0.0
C1593 C 0.60861 0.59386 0.02665 0.0
C1594 C 0.6252 0.60554 0.02825 0.0
H1595 H 0.68336 0.58888 0.04279 0.0
H1596 H 0.66032 0.586 0.0427 0.0
H1597 H 0.66854 0.57734 0.02273 0.0
H1598 H 0.64306 0.57881 0.99898 0.0
H1599 H 0.61442 0.55872 0.99595 0.0
H1600 H 0.67484 0.52609 0.30147 0.0
H1601 H 0.68715 0.50436 0.28253 0.0
H1602 H 0.72933 0.50746 0.32699 0.0
H1603 H 0.71732 0.52989 0.34587 0.0
H1604 H 0.72893 0.51681 0.27875 0.0
H1605 H 0.70208 0.44785 0.3034 0.0
H1606 H 0.69088 0.46734 0.30349 0.0
H1607 H 0.70961 0.46817 0.32031 0.0
C1608 C 0.68649 0.52169 0.30737 0.0
C1609 C 0.69514 0.52926 0.32512 0.0
C1610 C 0.69353 0.5095 0.29651 0.0
C1611 C 0.70903 0.50451 0.3035 0.0
C1612 C 0.71731 0.51136 0.32154 0.0
H1613 H 0.78455 0.44757 0.28544 0.0
H1614 H 0.76641 0.47029 0.29154 0.0
C1615 C 0.71048 0.52395 0.33228 0.0
C1616 C 0.71711 0.49285 0.29163 0.0
H1617 H 0.72425 0.44831 0.28469 0.0
C1618 C 0.72772 0.50175 0.27969 0.0
C1619 C 0.71522 0.47333 0.29299 0.0
C1620 C 0.70378 0.46346 0.30566 0.0
C1621 C 0.73748 0.49159 0.2698 0.0
C1622 C 0.73627 0.47224 0.27191 0.0
C1623 C 0.72487 0.46317 0.28302 0.0
C1624 C 0.74889 0.46188 0.26576 0.0
C1625 C 0.74973 0.50164 0.25802 0.0
C1626 C 0.74511 0.4501 0.24902 0.0
C1627 C 0.75553 0.43715 0.24548 0.0
C1628 C 0.76955 0.43593 0.25881 0.0
C1629 C 0.77378 0.44846 0.27502 0.0
C1630 C 0.76353 0.46141 0.27845 0.0
H1631 H 0.74782 0.51624 0.25628 0.0
H1632 H 0.76324 0.50234 0.26461 0.0
H1633 H 0.74795 0.49359 0.24413 0.0
H1634 H 0.73367 0.45028 0.23925 0.0
H1635 H 0.75214 0.42745 0.23294 0.0
H1636 H 0.85739 0.46007 0.51497 0.0
H1637 H 0.88489 0.48017 0.51176 0.0
H1638 H 0.9032 0.47839 0.56978 0.0
H1639 H 0.87566 0.45736 0.57277 0.0
H1640 H 0.89649 0.51517 0.53009 0.0
H1641 H 0.94458 0.46964 0.54526 0.0
H1642 H 0.92164 0.4601 0.54003 0.0
H1643 H 0.93087 0.47207 0.56254 0.0
C1644 C 0.8674 0.46379 0.52696 0.0
C1645 C 0.86455 0.4574 0.5441 0.0
C1646 C 0.88306 0.47524 0.52513 0.0
C1647 C 0.89606 0.48078 0.54051 0.0
C1648 C 0.89343 0.47402 0.55767 0.0
H1649 H 0.99183 0.56244 0.54868 0.0
H1650 H 0.96412 0.54509 0.5548 0.0
C1651 C 0.87774 0.46215 0.55941 0.0
C1652 C 0.91168 0.49473 0.53846 0.0
H1653 H 0.9553 0.50093 0.53925 0.0
C1654 C 0.90936 0.51207 0.53214 0.0
C1655 C 0.92842 0.49063 0.54119 0.0
C1656 C 0.93161 0.47206 0.54749 0.0
C1657 C 0.9233 0.52526 0.52811 0.0
C1658 C 0.93991 0.52101 0.53056 0.0
C1659 C 0.9424 0.50397 0.53734 0.0
C1660 C 0.95502 0.53407 0.52619 0.0
C1661 C 0.92029 0.54361 0.52114 0.0
C1662 C 0.95862 0.53414 0.50792 0.0
C1663 C 0.97451 0.54402 0.50433 0.0
C1664 C 0.98694 0.55375 0.51905 0.0
C1665 C 0.98262 0.55481 0.5371 0.0
C1666 C 0.96682 0.54495 0.54065 0.0
H1667 H 0.90677 0.5454 0.52131 0.0
H1668 H 0.92921 0.55569 0.52977 0.0
H1669 H 0.92315 0.54404 0.5067 0.0
H1670 H 0.94955 0.52575 0.49663 0.0
H1671 H 0.97748 0.54295 0.4903 0.0
H1672 H 0.43908 0.19623 0.28994 0.0
H1673 H 0.41704 0.21438 0.27918 0.0
H1674 H 0.37712 0.1703 0.29211 0.0
H1675 H 0.39868 0.15249 0.30297 0.0
H1676 H 0.38625 0.19996 0.24996 0.0
H1677 H 0.36912 0.2197 0.31881 0.0
H1678 H 0.38932 0.21277 0.31605 0.0
H1679 H 0.36986 0.19515 0.31469 0.0
C1680 C 0.42563 0.19069 0.29079 0.0
C1681 C 0.42059 0.17307 0.29743 0.0
C1682 C 0.41309 0.20093 0.28452 0.0
C1683 C 0.39553 0.19367 0.28505 0.0
C1684 C 0.39062 0.17623 0.29186 0.0
H1685 H 0.29753 0.22766 0.26826 0.0
H1686 H 0.31947 0.20804 0.27153 0.0
C1687 C 0.403 0.16609 0.29806 0.0
C1688 C 0.38192 0.20379 0.27831 0.0
H1689 H 0.34875 0.2217 0.29249 0.0
C1690 C 0.37811 0.20495 0.2592 0.0
C1691 C 0.37132 0.21004 0.29044 0.0
C1692 C 0.37517 0.20953 0.31117 0.0
C1693 C 0.36346 0.21159 0.25178 0.0
C1694 C 0.35259 0.2175 0.26393 0.0
C1695 C 0.35678 0.21676 0.2831 0.0
C1696 C 0.3376 0.22597 0.25751 0.0
C1697 C 0.35958 0.21164 0.23101 0.0
C1698 C 0.34005 0.24181 0.24757 0.0
C1699 C 0.32733 0.25249 0.2451 0.0
C1700 C 0.31221 0.24809 0.25324 0.0
C1701 C 0.30899 0.23131 0.26175 0.0
C1702 C 0.32163 0.22027 0.26382 0.0
H1703 H 0.36476 0.20048 0.22367 0.0
H1704 H 0.34548 0.20947 0.22613 0.0
H1705 H 0.36599 0.22543 0.22704 0.0
H1706 H 0.35232 0.24688 0.24299 0.0
H1707 H 0.33014 0.26532 0.23835 0.0
H1708 H 0.32768 0.16384 0.50261 0.0
H1709 H 0.35278 0.14952 0.51164 0.0
H1710 H 0.36464 0.18496 0.56359 0.0
H1711 H 0.33991 0.19977 0.55434 0.0
H1712 H 0.3908 0.17341 0.52625 0.0
H1713 H 0.35937 0.1246 0.57288 0.0
H1714 H 0.34695 0.13351 0.55426 0.0
H1715 H 0.35697 0.14891 0.57468 0.0
C1716 C 0.33572 0.1686 0.51589 0.0
C1717 C 0.33201 0.18293 0.52775 0.0
C1718 C 0.34998 0.16043 0.52104 0.0
C1719 C 0.3604 0.16612 0.53833 0.0
C1720 C 0.3567 0.1804 0.55021 0.0
H1721 H 0.44932 0.11706 0.58265 0.0
H1722 H 0.42626 0.13563 0.58161 0.0
C1723 C 0.34268 0.18889 0.54488 0.0
C1724 C 0.3753 0.15722 0.54374 0.0
H1725 H 0.38787 0.1228 0.56865 0.0
C1726 C 0.39025 0.16249 0.53566 0.0
C1727 C 0.37452 0.14311 0.55614 0.0
C1728 C 0.35861 0.13704 0.56502 0.0
C1729 C 0.40435 0.15363 0.53929 0.0
C1730 C 0.4033 0.13892 0.55103 0.0
C1731 C 0.38861 0.13413 0.5597 0.0
C1732 C 0.41649 0.12704 0.55254 0.0
C1733 C 0.42018 0.15979 0.53026 0.0
C1734 C 0.41824 0.11583 0.53674 0.0
C1735 C 0.43133 0.10556 0.53726 0.0
C1736 C 0.44281 0.10609 0.55366 0.0
C1737 C 0.44065 0.11662 0.56982 0.0
C1738 C 0.42754 0.12713 0.56924 0.0
H1739 H 0.42085 0.17417 0.52571 0.0
H1740 H 0.43216 0.15967 0.5399 0.0
H1741 H 0.41973 0.14983 0.51783 0.0
H1742 H 0.4096 0.11527 0.52386 0.0
H1743 H 0.43252 0.09718 0.52477 0.0
H1744 H 0.6798 0.63496 0.31622 0.0
H1745 H 0.69627 0.66422 0.30768 0.0
H1746 H 0.73876 0.6613 0.34993 0.0
H1747 H 0.72258 0.63157 0.35808 0.0
H1748 H 0.71209 0.69902 0.32742 0.0
H1749 H 0.75937 0.66024 0.30146 0.0
H1750 H 0.73879 0.64839 0.30674 0.0
H1751 H 0.75669 0.6568 0.32503 0.0
C1752 C 0.69251 0.64081 0.32395 0.0
C1753 C 0.70011 0.63114 0.33769 0.0
C1754 C 0.70186 0.65741 0.31901 0.0
C1755 C 0.71873 0.66448 0.32797 0.0
C1756 C 0.72584 0.65563 0.34266 0.0
H1757 H 0.80298 0.75308 0.32595 0.0
H1758 H 0.78048 0.72789 0.33317 0.0
C1759 C 0.71662 0.63884 0.34736 0.0
C1760 C 0.72932 0.68055 0.32132 0.0
H1761 H 0.76735 0.69388 0.30504 0.0
C1762 C 0.72411 0.69797 0.32235 0.0
C1763 C 0.74469 0.67875 0.31434 0.0
C1764 C 0.75014 0.65999 0.31162 0.0
C1765 C 0.73457 0.71409 0.31759 0.0
C1766 C 0.7504 0.71243 0.31173 0.0
C1767 C 0.75521 0.69489 0.30985 0.0
C1768 C 0.76272 0.72885 0.3083 0.0
C1769 C 0.72906 0.73286 0.31941 0.0
C1770 C 0.75983 0.73747 0.29202 0.0
C1771 C 0.77263 0.7517 0.28783 0.0
C1772 C 0.78833 0.75723 0.2999 0.0
C1773 C 0.79098 0.74887 0.31643 0.0
C1774 C 0.77819 0.73466 0.32059 0.0
H1775 H 0.71711 0.73199 0.32587 0.0
H1776 H 0.73954 0.74363 0.32787 0.0
H1777 H 0.72662 0.73777 0.30545 0.0
H1778 H 0.74796 0.73281 0.28236 0.0
H1779 H 0.77041 0.75804 0.27499 0.0
H1780 H 0.91911 0.58371 0.83077 0.0
H1781 H 0.89988 0.55265 0.82589 0.0
H1782 H 0.92134 0.53918 0.77657 0.0
H1783 H 0.94091 0.5703 0.78158 0.0
H1784 H 0.87743 0.54652 0.78804 0.0
H1785 H 0.91267 0.48943 0.80692 0.0
H1786 H 0.91934 0.51328 0.81815 0.0
H1787 H 0.92294 0.50825 0.7948 0.0
C1788 C 0.92006 0.57386 0.81923 0.0
C1789 C 0.93119 0.57922 0.80641 0.0
C1790 C 0.90919 0.55621 0.81651 0.0
C1791 C 0.90928 0.54389 0.80088 0.0
C1792 C 0.92134 0.54859 0.78881 0.0
H1793 H 0.8382 0.43917 0.76294 0.0
H1794 H 0.85711 0.46948 0.76064 0.0
C1795 C 0.93243 0.56625 0.79166 0.0
C1796 C 0.89478 0.52793 0.7956 0.0
H1797 H 0.88294 0.4803 0.79509 0.0
C1798 C 0.87858 0.53198 0.78938 0.0
C1799 C 0.89658 0.50921 0.79754 0.0
C1800 C 0.91377 0.50461 0.80478 0.0
C1801 C 0.86386 0.5176 0.78528 0.0
C1802 C 0.86557 0.49888 0.78737 0.0
C1803 C 0.88186 0.49478 0.79325 0.0
C1804 C 0.8505 0.48337 0.7851 0.0
C1805 C 0.84656 0.52245 0.77904 0.0
C1806 C 0.83982 0.48184 0.7989 0.0
C1807 C 0.82901 0.46463 0.8002 0.0
C1808 C 0.82909 0.4489 0.78785 0.0
C1809 C 0.83807 0.4512 0.77263 0.0
C1810 C 0.84889 0.46839 0.77135 0.0
H1811 H 0.8479 0.53705 0.77491 0.0
H1812 H 0.83932 0.51235 0.76718 0.0
H1813 H 0.8388 0.52132 0.79059 0.0
H1814 H 0.8411 0.49331 0.80971 0.0
H1815 H 0.82229 0.46309 0.81212 0.0
H1816 H 0.05678 0.88462 0.13721 0.0
H1817 H 0.05565 0.91447 0.12401 0.0
H1818 H 0.08761 0.90035 0.08404 0.0
H1819 H 0.08813 0.87001 0.09676 0.0
H1820 H 0.07863 0.9447 0.12091 0.0
H1821 H 0.04994 0.91348 0.04949 0.0
H1822 H 0.05177 0.89924 0.06857 0.0
H1823 H 0.07017 0.90708 0.05716 0.0
C1824 C 0.06348 0.88778 0.12551 0.0
C1825 C 0.07235 0.87472 0.11791 0.0
C1826 C 0.06288 0.90496 0.11798 0.0
C1827 C 0.0712 0.90972 0.10267 0.0
C1828 C 0.08054 0.89692 0.0954 0.0
H1829 H 0.08429 0.01374 0.04651 0.0
H1830 H 0.08738 0.98375 0.05884 0.0
C1831 C 0.08094 0.87956 0.10278 0.0
C1832 C 0.07004 0.92803 0.09449 0.0
H1833 H 0.05865 0.94685 0.05404 0.0
C1834 C 0.07419 0.94507 0.10629 0.0
C1835 C 0.06425 0.92879 0.07537 0.0
C1836 C 0.05862 0.91117 0.06194 0.0
C1837 C 0.07277 0.96257 0.09955 0.0
C1838 C 0.067 0.96324 0.0805 0.0
C1839 C 0.06307 0.94635 0.06865 0.0
C1840 C 0.06482 0.98132 0.07266 0.0
C1841 C 0.07759 0.98035 0.1128 0.0
C1842 C 0.0509 0.98984 0.07595 0.0
C1843 C 0.04887 0.00681 0.06856 0.0
C1844 C 0.0609 0.01583 0.05794 0.0
C1845 C 0.07477 0.00719 0.05458 0.0
C1846 C 0.07659 0.99005 0.06167 0.0
H1847 H 0.08402 0.97792 0.12659 0.0
H1848 H 0.08634 0.99148 0.10697 0.0
H1849 H 0.06574 0.98576 0.11473 0.0
H1850 H 0.04161 0.98337 0.08433 0.0
H1851 H 0.03819 0.01317 0.07166 0.0
H1852 H 0.98338 0.33492 0.89813 0.0
H1853 H 0.95549 0.34054 0.88332 0.0
H1854 H 0.94029 0.28172 0.86238 0.0
H1855 H 0.96853 0.27622 0.87657 0.0
H1856 H 0.93909 0.3307 0.84214 0.0
H1857 H 0.90089 0.29646 0.89306 0.0
H1858 H 0.92393 0.30552 0.89826 0.0
H1859 H 0.91574 0.28336 0.88435 0.0
C1860 C 0.97411 0.32318 0.8903 0.0
C1861 C 0.97822 0.3051 0.8885 0.0
C1862 C 0.95816 0.32644 0.88181 0.0
C1863 C 0.94564 0.31157 0.87175 0.0
C1864 C 0.94967 0.29346 0.87004 0.0
H1865 H 0.84591 0.2844 0.80756 0.0
H1866 H 0.87397 0.28747 0.82658 0.0
C1867 C 0.96585 0.29031 0.87811 0.0
C1868 C 0.92837 0.31487 0.86309 0.0
H1869 H 0.88501 0.30325 0.86537 0.0
C1870 C 0.92728 0.32491 0.84736 0.0
C1871 C 0.91291 0.30762 0.86998 0.0
C1872 C 0.9133 0.29776 0.88744 0.0
C1873 C 0.91115 0.32691 0.83781 0.0
C1874 C 0.89562 0.31881 0.84418 0.0
C1875 C 0.89681 0.30947 0.86037 0.0
C1876 C 0.87808 0.3177 0.83305 0.0
C1877 C 0.91073 0.33686 0.8204 0.0
C1878 C 0.87061 0.33369 0.83043 0.0
C1879 C 0.85417 0.33193 0.81956 0.0
C1880 C 0.84504 0.31418 0.81091 0.0
C1881 C 0.85254 0.29833 0.81385 0.0
C1882 C 0.86867 0.30004 0.8248 0.0
H1883 H 0.92378 0.34102 0.81638 0.0
H1884 H 0.90213 0.32756 0.80875 0.0
H1885 H 0.90537 0.34977 0.8226 0.0
H1886 H 0.87748 0.34751 0.83677 0.0
H1887 H 0.84885 0.34443 0.81759 0.0
H1888 H 0.57863 0.27416 0.59354 0.0
H1889 H 0.57485 0.24079 0.58147 0.0
H1890 H 0.54346 0.22425 0.6235 0.0
H1891 H 0.54731 0.25739 0.63571 0.0
H1892 H 0.58417 0.21077 0.60512 0.0
H1893 H 0.51505 0.19652 0.57282 0.0
H1894 H 0.52804 0.22016 0.57724 0.0
H1895 H 0.52037 0.20817 0.59606 0.0
C1896 C 0.57076 0.26342 0.60004 0.0
C1897 C 0.56329 0.26839 0.61557 0.0
C1898 C 0.56865 0.24439 0.59318 0.0
C1899 C 0.5588 0.23009 0.60153 0.0
C1900 C 0.55099 0.23507 0.61675 0.0
H1901 H 0.53075 0.10775 0.57591 0.0
H1902 H 0.53381 0.14031 0.58951 0.0
C1903 C 0.55326 0.25401 0.62373 0.0
C1904 C 0.5574 0.2099 0.59495 0.0
H1905 H 0.52916 0.17073 0.57285 0.0
C1906 C 0.57218 0.20201 0.59797 0.0
C1907 C 0.54163 0.19842 0.58608 0.0
C1908 C 0.52534 0.20618 0.58272 0.0
C1909 C 0.57165 0.18293 0.59224 0.0
C1910 C 0.55605 0.17162 0.58266 0.0
C1911 C 0.54117 0.17944 0.58 0.0
C1912 C 0.55489 0.15171 0.5751 0.0
C1913 C 0.58768 0.17496 0.59697 0.0
C1914 C 0.56577 0.1472 0.56251 0.0
C1915 C 0.56425 0.12851 0.55498 0.0
C1916 C 0.55151 0.11412 0.55952 0.0
C1917 C 0.5406 0.11863 0.57205 0.0
C1918 C 0.54234 0.13722 0.57984 0.0
H1919 H 0.59654 0.18348 0.60893 0.0
H1920 H 0.58435 0.16014 0.60034 0.0
H1921 H 0.59477 0.17517 0.58489 0.0
H1922 H 0.57522 0.15819 0.55821 0.0
H1923 H 0.57267 0.12541 0.54519 0.0
H1924 H 0.58753 0.83277 0.41531 0.0
H1925 H 0.61576 0.83889 0.4046 0.0
H1926 H 0.59847 0.79092 0.36337 0.0
H1927 H 0.57003 0.78521 0.37358 0.0
H1928 H 0.64099 0.81966 0.40312 0.0
H1929 H 0.61623 0.83025 0.33135 0.0
H1930 H 0.60295 0.82929 0.34954 0.0
H1931 H 0.60579 0.80782 0.33731 0.0
C1932 C 0.58971 0.82357 0.40387 0.0
C1933 C 0.5764 0.80859 0.39515 0.0
C1934 C 0.60592 0.82708 0.39778 0.0
C1935 C 0.60929 0.81566 0.38284 0.0
C1936 C 0.59614 0.80037 0.37449 0.0
H1937 H 0.69176 0.7907 0.3295 0.0
H1938 H 0.66644 0.79288 0.3444 0.0
C1939 C 0.57986 0.79701 0.38042 0.0
C1940 C 0.62649 0.81954 0.37601 0.0
H1941 H 0.64483 0.82357 0.33631 0.0
C1942 C 0.64182 0.82076 0.38854 0.0
C1943 C 0.62784 0.82151 0.35707 0.0
C1944 C 0.61234 0.82238 0.3431 0.0
C1945 C 0.65811 0.82261 0.38242 0.0
C1946 C 0.65917 0.82313 0.36328 0.0
C1947 C 0.64403 0.82288 0.35095 0.0
C1948 C 0.67544 0.82209 0.35546 0.0
C1949 C 0.67406 0.82332 0.39629 0.0
C1950 C 0.6891 0.83785 0.35667 0.0
C1951 C 0.70368 0.83669 0.34792 0.0
C1952 C 0.70499 0.81966 0.33802 0.0
C1953 C 0.6914 0.80392 0.33722 0.0
C1954 C 0.67682 0.80517 0.34568 0.0
H1955 H 0.67101 0.82172 0.41056 0.0
H1956 H 0.68083 0.81197 0.39216 0.0
H1957 H 0.6831 0.83704 0.39642 0.0
H1958 H 0.68832 0.85112 0.36404 0.0
H1959 H 0.71389 0.84909 0.34886 0.0
H1960 H 0.02783 0.23269 0.40395 0.0
H1961 H 0.02945 0.20172 0.41479 0.0
H1962 H 0.02967 0.22467 0.47089 0.0
H1963 H 0.02849 0.25588 0.46014 0.0
H1964 H 0.05597 0.19214 0.44216 0.0
H1965 H 0.9908 0.17527 0.46288 0.0
H1966 H 0.99633 0.19224 0.44665 0.0
H1967 H 1.00292 0.19866 0.4711 0.0
C1968 C 0.0282 0.23121 0.41863 0.0
C1969 C 0.02811 0.247 0.43116 0.0
C1970 C 0.02915 0.21338 0.42483 0.0
C1971 C 0.02961 0.21056 0.44373 0.0
C1972 C 0.02923 0.22624 0.45623 0.0
H1973 H 0.04056 0.12187 0.51623 0.0
H1974 H 0.03674 0.1503 0.50143 0.0
C1975 C 0.02864 0.2442 0.45008 0.0
C1976 C 0.03099 0.19152 0.45045 0.0
H1977 H 0.01031 0.15573 0.47275 0.0
C1978 C 0.04591 0.18414 0.44873 0.0
C1979 C 0.01786 0.18073 0.45885 0.0
C1980 C 1.00097 0.18695 0.45988 0.0
C1981 C 0.04834 0.16696 0.45582 0.0
C1982 C 0.03546 0.1565 0.46481 0.0
C1983 C 0.02034 0.16365 0.46609 0.0
C1984 C 0.03768 0.13861 0.47361 0.0
C1985 C 0.06502 0.16047 0.45422 0.0
C1986 C 0.03932 0.12209 0.46306 0.0
C1987 C 0.04137 0.10555 0.47154 0.0
C1988 C 0.04193 0.10499 0.49089 0.0
C1989 C 0.0402 0.12153 0.50134 0.0
C1990 C 0.03799 0.13794 0.49285 0.0
H1991 H 0.07494 0.17172 0.45009 0.0
H1992 H 0.07032 0.15594 0.4676 0.0
H1993 H 0.06252 0.14816 0.44357 0.0
H1994 H 0.0389 0.12191 0.44818 0.0
H1995 H 0.04266 0.09324 0.46291 0.0
H1996 H 0.63572 0.34471 0.15898 0.0
H1997 H 0.66487 0.34595 0.17552 0.0
H1998 H 0.64287 0.31901 0.21995 0.0
H1999 H 0.61376 0.31773 0.2036 0.0
H2000 H 0.68109 0.36087 0.21559 0.0
H2001 H 0.67365 0.2837 0.19677 0.0
H2002 H 0.6606 0.29798 0.18445 0.0
H2003 H 0.65596 0.29071 0.20651 0.0
C2004 C 0.6371 0.33922 0.17236 0.0
C2005 C 0.62247 0.33089 0.1799 0.0
C2006 C 0.65374 0.34002 0.1818 0.0
C2007 C 0.65592 0.33238 0.19881 0.0
C2008 C 0.64137 0.32483 0.20674 0.0
H2009 H 0.74194 0.30726 0.27252 0.0
H2010 H 0.71305 0.30999 0.25726 0.0
C2011 C 0.62477 0.32411 0.19738 0.0
C2012 C 0.67329 0.33092 0.20774 0.0
H2013 H 0.69803 0.29851 0.21853 0.0
C2014 C 0.68487 0.34729 0.21622 0.0
C2015 C 0.67816 0.31318 0.2083 0.0
C2016 C 0.66654 0.29537 0.1984 0.0
C2017 C 0.7011 0.34624 0.2258 0.0
C2018 C 0.70572 0.32838 0.22677 0.0
C2019 C 0.69425 0.3121 0.21803 0.0
C2020 C 0.72283 0.32638 0.23593 0.0
C2021 C 0.71307 0.36416 0.23504 0.0
C2022 C 0.73761 0.33417 0.22859 0.0
C2023 C 0.75385 0.33271 0.23723 0.0
C2024 C 0.75559 0.3232 0.25321 0.0
C2025 C 0.7408 0.31463 0.26019 0.0
C2026 C 0.72443 0.31628 0.25158 0.0
H2027 H 0.7062 0.37605 0.23643 0.0
H2028 H 0.71925 0.36192 0.24901 0.0
H2029 H 0.72348 0.36833 0.22657 0.0
H2030 H 0.7366 0.34148 0.21621 0.0
H2031 H 0.76513 0.33914 0.23144 0.0
H2032 H 0.54187 0.8553 0.9609 0.0
H2033 H 0.54245 0.88813 0.97278 0.0
H2034 H 0.52057 0.89908 0.91853 0.0
H2035 H 0.51977 0.86636 0.90673 0.0
H2036 H 0.55961 0.92125 0.96396 0.0
H2037 H 0.48988 0.92246 0.94855 0.0
H2038 H 0.49781 0.90072 0.94737 0.0
H2039 H 0.49908 0.9155 0.92867 0.0
C2040 C 0.53711 0.86464 0.95149 0.0
C2041 C 0.53082 0.85791 0.93277 0.0
C2042 C 0.53742 0.88356 0.95832 0.0
C2043 C 0.5313 0.89644 0.94678 0.0
C2044 C 0.525 0.88967 0.92807 0.0
H2045 H 0.53216 0.02074 0.97286 0.0
H2046 H 0.52878 0.98912 0.9556 0.0
C2047 C 0.52472 0.87081 0.92123 0.0
C2048 C 0.53238 0.91699 0.95413 0.0
H2049 H 0.50876 0.9518 0.95946 0.0
C2050 C 0.5484 0.92778 0.96294 0.0
C2051 C 0.51795 0.9261 0.95272 0.0
C2052 C 0.50017 0.91559 0.94397 0.0
C2053 C 0.55041 0.94687 0.9703 0.0
C2054 C 0.53595 0.95581 0.96945 0.0
C2055 C 0.51995 0.94525 0.96024 0.0
C2056 C 0.53714 0.97533 0.97951 0.0
C2057 C 0.56825 0.95741 0.97885 0.0
C2058 C 0.54259 0.97843 0.99876 0.0
C2059 C 0.54457 0.99634 0.0085 0.0
C2060 C 0.5411 0.01214 0.99958 0.0
C2061 C 0.53518 0.00912 0.98029 0.0
C2062 C 0.53317 0.99092 0.97041 0.0
H2063 H 0.57845 0.95116 0.97326 0.0
H2064 H 0.57022 0.97254 0.97633 0.0
H2065 H 0.56989 0.95655 0.99405 0.0
H2066 H 0.54538 0.96685 0.0064 0.0
H2067 H 0.54891 0.99775 0.02331 0.0
H2068 H 0.03771 0.79805 0.69573 0.0
H2069 H 0.01205 0.79457 0.71144 0.0
H2070 H 0.99598 0.84007 0.68345 0.0
H2071 H 0.02105 0.84291 0.66711 0.0
H2072 H 1.00003 0.81619 0.73494 0.0
H2073 H 0.95257 0.80174 0.67076 0.0
H2074 H 0.97524 0.80229 0.6705 0.0
H2075 H 0.96712 0.8239 0.67104 0.0
C2076 C 0.02867 0.80728 0.69292 0.0
C2077 C 0.03133 0.82063 0.68 0.0
C2078 C 0.01397 0.80528 0.70192 0.0
C2079 C 1.00168 0.81669 0.69833 0.0
C2080 C 1.0048 0.83057 0.68601 0.0
H2081 H 0.90951 0.84029 0.73546 0.0
H2082 H 0.93695 0.83984 0.72395 0.0
C2083 C 0.01927 0.83231 0.67677 0.0
C2084 C 0.98571 0.81431 0.70748 0.0
H2085 H 0.94185 0.81054 0.69854 0.0
C2086 C 0.9873 0.81473 0.72694 0.0
C2087 C 0.96894 0.81209 0.69715 0.0
C2088 C 0.96584 0.80976 0.67621 0.0
C2089 C 0.97279 0.81399 0.73629 0.0
C2090 C 0.95621 0.8128 0.72596 0.0
C2091 C 0.95457 0.81172 0.70652 0.0
C2092 C 0.94045 0.81365 0.73483 0.0
C2093 C 0.97537 0.81516 0.75718 0.0
C2094 C 0.93328 0.79919 0.74506 0.0
C2095 C 0.91754 0.79951 0.75177 0.0
C2096 C 0.90871 0.81424 0.74825 0.0
C2097 C 0.91609 0.82883 0.7384 0.0
C2098 C 0.93176 0.82855 0.7318 0.0
H2099 H 0.98926 0.81908 0.76327 0.0
H2100 H 0.96847 0.82567 0.76295 0.0
H2101 H 0.96991 0.80121 0.76156 0.0
H2102 H 0.93952 0.78734 0.74733 0.0
H2103 H 0.91199 0.78797 0.75913 0.0
H2104 H 0.13375 0.05142 0.87158 0.0
H2105 H 0.1177 0.0518 0.89786 0.0
H2106 H 0.15133 0.10434 0.9219 0.0
H2107 H 0.16773 0.10384 0.89571 0.0
H2108 H 0.14064 0.05841 0.93908 0.0
H2109 H 0.09423 0.10471 0.91825 0.0
H2110 H 0.10236 0.09094 0.9011 0.0
H2111 H 0.11648 0.11093 0.91453 0.0
C2112 C 0.13758 0.06306 0.88245 0.0
C2113 C 0.15191 0.07748 0.88209 0.0
C2114 C 0.12846 0.0633 0.89725 0.0
C2115 C 0.1335 0.07813 0.91142 0.0
C2116 C 0.14748 0.09288 0.91085 0.0
H2117 H 0.09077 0.09199 0.01102 0.0
H2118 H 0.10969 0.09469 0.98753 0.0
C2119 C 0.15681 0.09249 0.89616 0.0
C2120 C 0.12493 0.07713 0.9276 0.0
H2121 H 0.09137 0.08999 0.94576 0.0
C2122 C 0.12995 0.06538 0.94075 0.0
C2123 C 0.11112 0.08634 0.92926 0.0
C2124 C 0.1056 0.09896 0.91507 0.0
C2125 C 0.12104 0.06226 0.95571 0.0
C2126 C 0.10692 0.07104 0.95711 0.0
C2127 C 0.1022 0.08321 0.94423 0.0
C2128 C 0.09693 0.06801 0.9721 0.0
C2129 C 0.12656 0.04959 0.96982 0.0
C2130 C 0.08386 0.05188 0.971 0.0
C2131 C 0.07288 0.05029 0.98433 0.0
C2132 C 0.07511 0.06485 0.99865 0.0
C2133 C 0.08878 0.08056 1.00005 0.0
C2134 C 0.0996 0.08217 0.98674 0.0
H2135 H 0.13888 0.04533 0.96761 0.0
H2136 H 0.12816 0.05688 0.98404 0.0
H2137 H 0.11634 0.03666 0.96895 0.0
H2138 H 0.08183 0.04094 0.95953 0.0
H2139 H 0.06244 0.03807 0.98316 0.0
H2140 H 0.83742 0.38902 0.59247 0.0
H2141 H 0.83758 0.37933 0.62417 0.0
H2142 H 0.79824 0.41101 0.63288 0.0
H2143 H 0.79843 0.42115 0.60163 0.0
H2144 H 0.84095 0.40526 0.66237 0.0
H2145 H 0.77966 0.35239 0.64102 0.0
H2146 H 0.79342 0.36126 0.62455 0.0
H2147 H 0.78009 0.37576 0.63398 0.0
C2148 C 0.82879 0.39385 0.60115 0.0
C2149 C 0.81775 0.40565 0.59441 0.0
C2150 C 0.82898 0.38844 0.61932 0.0
C2151 C 0.81786 0.39435 0.63096 0.0
C2152 C 0.80695 0.40625 0.62426 0.0
H2153 H 0.7917 0.36958 0.74078 0.0
H2154 H 0.7952 0.38362 0.7115 0.0
C2155 C 0.80704 0.41199 0.60633 0.0
C2156 C 0.81685 0.38735 0.64967 0.0
H2157 H 0.79087 0.35708 0.67293 0.0
C2158 C 0.83006 0.39466 0.66464 0.0
C2159 C 0.80256 0.37365 0.6528 0.0
C2160 C 0.78812 0.36515 0.63727 0.0
C2161 C 0.82925 0.38863 0.68254 0.0
C2162 C 0.81501 0.37483 0.68554 0.0
C2163 C 0.8018 0.36764 0.67064 0.0
C2164 C 0.81374 0.36727 0.70392 0.0
C2165 C 0.84347 0.39716 0.69829 0.0
C2166 C 0.82291 0.35334 0.7094 0.0
C2167 C 0.82062 0.34501 0.72588 0.0
C2168 C 0.80942 0.35075 0.73747 0.0
C2169 C 0.80059 0.36506 0.73224 0.0
C2170 C 0.80256 0.37306 0.71551 0.0
H2171 H 0.85269 0.40917 0.6943 0.0
H2172 H 0.83784 0.40219 0.71038 0.0
H2173 H 0.85068 0.38619 0.70276 0.0
H2174 H 0.83155 0.34859 0.70068 0.0
H2175 H 0.82758 0.33403 0.72958 0.0
H2176 H 0.45206 0.1285 0.36994 0.0
H2177 H 0.46074 0.11252 0.39694 0.0
H2178 H 0.5078 0.10697 0.37596 0.0
H2179 H 0.49935 0.12316 0.34905 0.0
H2180 H 0.47005 0.07594 0.40021 0.0
H2181 H 0.52383 0.13621 0.42778 0.0
H2182 H 0.50669 0.13809 0.40966 0.0
H2183 H 0.52425 0.12733 0.40429 0.0
C2184 C 0.46443 0.12421 0.37125 0.0
C2185 C 0.47531 0.12764 0.35765 0.0
C2186 C 0.46921 0.11481 0.38654 0.0
C2187 C 0.48497 0.10874 0.38852 0.0
C2188 C 0.4957 0.11182 0.37481 0.0
H2189 H 0.54949 0.06197 0.46588 0.0
H2190 H 0.5328 0.0707 0.43854 0.0
C2191 C 0.49095 0.12126 0.35955 0.0
C2192 C 0.49087 0.10039 0.40552 0.0
H2193 H 0.52349 0.10785 0.44211 0.0
C2194 C 0.48165 0.08293 0.40949 0.0
C2195 C 0.50583 0.1097 0.41772 0.0
C2196 C 0.51565 0.12895 0.4148 0.0
C2197 C 0.48758 0.07419 0.425 0.0
C2198 C 0.50299 0.08322 0.43667 0.0
C2199 C 0.51177 0.1009 0.43299 0.0
C2200 C 0.51107 0.07441 0.45225 0.0
C2201 C 0.47777 0.05518 0.42854 0.0
C2202 C 0.50417 0.07322 0.46894 0.0
C2203 C 0.51373 0.06819 0.48465 0.0
C2204 C 0.53033 0.0645 0.48385 0.0
C2205 C 0.53679 0.06488 0.46691 0.0
C2206 C 0.52724 0.06976 0.45127 0.0
H2207 H 0.46698 0.04918 0.41716 0.0
H2208 H 0.48664 0.04511 0.4302 0.0
H2209 H 0.47236 0.05662 0.44168 0.0
H2210 H 0.49183 0.07708 0.47006 0.0
H2211 H 0.50854 0.06812 0.49759 0.0
H2212 H 0.79381 0.7579 0.06765 0.0
H2213 H 0.79794 0.77039 0.10047 0.0
H2214 H 0.80399 0.71578 0.11678 0.0
H2215 H 0.80008 0.70333 0.08418 0.0
H2216 H 0.77655 0.75739 0.12546 0.0
H2217 H 0.84345 0.75048 0.15161 0.0
H2218 H 0.83555 0.74961 0.12716 0.0
H2219 H 0.83006 0.72923 0.13943 0.0
C2220 C 0.79616 0.74861 0.07823 0.0
C2221 C 0.7964 0.72956 0.07323 0.0
C2222 C 0.79859 0.75577 0.097 0.0
C2223 C 0.80147 0.74411 0.1112 0.0
C2224 C 0.80215 0.72522 0.1062 0.0
H2225 H 0.80199 0.75522 0.23137 0.0
H2226 H 0.80245 0.74384 0.1989 0.0
C2227 C 0.79971 0.71805 0.08748 0.0
C2228 C 0.80196 0.75115 0.13106 0.0
H2229 H 0.82605 0.75725 0.17433 0.0
C2230 C 0.78746 0.75753 0.13608 0.0
C2231 C 0.81608 0.75106 0.14506 0.0
C2232 C 0.83224 0.74489 0.14058 0.0
C2233 C 0.78657 0.76358 0.15459 0.0
C2234 C 0.80071 0.76369 0.16855 0.0
C2235 C 0.81522 0.75723 0.16363 0.0
C2236 C 0.80059 0.77059 0.18827 0.0
C2237 C 0.77024 0.76932 0.15913 0.0
C2238 C 0.79943 0.78942 0.19315 0.0
C2239 C 0.79897 0.79583 0.21162 0.0
C2240 C 0.79972 0.78355 0.22552 0.0
C2241 C 0.80109 0.76482 0.22075 0.0
C2242 C 0.8015 0.75837 0.20228 0.0
H2243 H 0.75916 0.76402 0.14789 0.0
H2244 H 0.76678 0.76392 0.17226 0.0
H2245 H 0.77231 0.78496 0.16094 0.0
H2246 H 0.79907 0.79922 0.18269 0.0
H2247 H 0.79836 0.81046 0.2151 0.0
H2248 H 0.13259 0.04779 0.79031 0.0
H2249 H 0.11832 0.04174 0.75814 0.0
H2250 H 0.15885 0.08302 0.74197 0.0
H2251 H 0.1735 0.08878 0.77412 0.0
H2252 H 0.10698 0.06907 0.73674 0.0
H2253 H 0.15558 0.03574 0.70583 0.0
H2254 H 0.15513 0.03824 0.73053 0.0
H2255 H 0.16384 0.05825 0.71913 0.0
C2256 C 0.13844 0.05553 0.77986 0.0
C2257 C 0.15405 0.06872 0.78448 0.0
C2258 C 0.13035 0.05204 0.7616 0.0
C2259 C 0.13773 0.0618 0.74789 0.0
C2260 C 0.15325 0.07513 0.75246 0.0
H2261 H 0.1107 0.07589 0.6364 0.0
H2262 H 0.12324 0.07508 0.66843 0.0
C2263 C 0.1615 0.07845 0.77072 0.0
C2264 C 0.12875 0.05843 0.72887 0.0
H2265 H 0.1326 0.0425 0.68503 0.0
C2266 C 0.1124 0.06304 0.7254 0.0
C2267 C 0.13611 0.05067 0.71437 0.0
C2268 C 0.15358 0.04528 0.7176 0.0
C2269 C 0.10329 0.06052 0.70744 0.0
C2270 C 0.11073 0.0529 0.69292 0.0
C2271 C 0.12694 0.04801 0.69645 0.0
C2272 C 0.10309 0.05237 0.67362 0.0
C2273 C 0.08626 0.06683 0.70394 0.0
C2274 C 0.08772 0.03966 0.66616 0.0
C2275 C 0.08046 0.04012 0.6478 0.0
C2276 C 0.08879 0.0531 0.63695 0.0
C2277 C 0.10436 0.06543 0.64445 0.0
C2278 C 0.11144 0.0651 0.66269 0.0
H2279 H 0.08306 0.07395 0.71664 0.0
H2280 H 0.0866 0.07671 0.69302 0.0
H2281 H 0.07575 0.0544 0.69887 0.0
H2282 H 0.0813 0.02968 0.6746 0.0
H2283 H 0.06834 0.03066 0.64216 0.0
H2284 H 0.82897 0.42681 0.47741 0.0
H2285 H 0.82952 0.41497 0.44525 0.0
H2286 H 0.79907 0.36139 0.4538 0.0
H2287 H 0.79851 0.37322 0.48614 0.0
H2288 H 0.8414 0.38484 0.42806 0.0
H2289 H 0.77055 0.37469 0.40787 0.0
H2290 H 0.78174 0.38821 0.42918 0.0
H2291 H 0.77688 0.36282 0.42758 0.0
C2292 C 0.8223 0.41248 0.47253 0.0
C2293 C 0.81347 0.40115 0.48461 0.0
C2294 C 0.82271 0.40565 0.45397 0.0
C2295 C 0.8141 0.38726 0.44655 0.0
C2296 C 0.80557 0.37575 0.45873 0.0
H2297 H 0.7953 0.3165 0.34135 0.0
H2298 H 0.79791 0.33148 0.3727 0.0
C2299 C 0.80529 0.38254 0.4774 0.0
C2300 C 0.81371 0.38038 0.42614 0.0
H2301 H 0.78601 0.36271 0.3858 0.0
C2302 C 0.82925 0.38015 0.41884 0.0
C2303 C 0.79801 0.37427 0.41367 0.0
C2304 C 0.78083 0.37514 0.41984 0.0
C2305 C 0.82942 0.37348 0.4 0.0
C2306 C 0.81366 0.36708 0.38764 0.0
C2307 C 0.79819 0.36758 0.39493 0.0
C2308 C 0.81266 0.35836 0.36768 0.0
C2309 C 0.84651 0.37261 0.39364 0.0
C2310 C 0.81989 0.36825 0.35359 0.0
C2311 C 0.8182 0.35959 0.33504 0.0
C2312 C 0.80931 0.34069 0.33007 0.0
C2313 C 0.80216 0.33105 0.34427 0.0
C2314 C 0.80368 0.33967 0.36249 0.0
H2315 H 0.85729 0.37505 0.40543 0.0
H2316 H 0.8459 0.35865 0.38593 0.0
H2317 H 0.84943 0.38359 0.38408 0.0
H2318 H 0.82675 0.38277 0.35685 0.0
H2319 H 0.8241 0.36754 0.32476 0.0
H2320 H 0.44285 0.12977 0.23875 0.0
H2321 H 0.44798 0.11383 0.20995 0.0
H2322 H 0.49856 0.10932 0.23631 0.0
H2323 H 0.49355 0.12541 0.26525 0.0
H2324 H 0.47767 0.12315 0.18886 0.0
H2325 H 0.47041 0.05333 0.21719 0.0
H2326 H 0.46176 0.0726 0.2268 0.0
H2327 H 0.48451 0.073 0.23147 0.0
C2328 C 0.45523 0.12579 0.23827 0.0
C2329 C 0.46784 0.12881 0.25417 0.0
C2330 C 0.45807 0.11659 0.22188 0.0
C2331 C 0.47346 0.11011 0.22124 0.0
C2332 C 0.48649 0.11403 0.23674 0.0
H2333 H 0.52317 0.05589 0.14556 0.0
H2334 H 0.51043 0.06529 0.17229 0.0
C2335 C 0.48372 0.12343 0.25313 0.0
C2336 C 0.47575 0.09899 0.20439 0.0
H2337 H 0.47932 0.05492 0.18756 0.0
C2338 C 0.47787 0.1082 0.18844 0.0
C2339 C 0.47583 0.07948 0.20404 0.0
C2340 C 0.47289 0.06889 0.22072 0.0
C2341 C 0.48091 0.09858 0.17227 0.0
C2342 C 0.48138 0.07912 0.17198 0.0
C2343 C 0.47876 0.06977 0.18781 0.0
C2344 C 0.48676 0.06905 0.15616 0.0
C2345 C 0.48447 0.10955 0.15594 0.0
C2346 C 0.47717 0.06698 0.13831 0.0
C2347 C 0.48446 0.06159 0.12289 0.0
C2348 C 0.50135 0.05808 0.12521 0.0
C2349 C 0.51011 0.05835 0.14327 0.0
C2350 C 0.50287 0.0638 0.1586 0.0
H2351 H 0.48651 0.12505 0.15961 0.0
H2352 H 0.49609 0.10637 0.15052 0.0
H2353 H 0.4733 0.10537 0.14465 0.0
H2354 H 0.46454 0.07063 0.13625 0.0
H2355 H 0.47731 0.06119 0.10914 0.0
H2356 H 0.76431 0.71097 0.95298 0.0
H2357 H 0.76473 0.72265 0.92231 0.0
H2358 H 0.81341 0.76036 0.94248 0.0
H2359 H 0.81281 0.74907 0.9734 0.0
H2360 H 0.76869 0.76346 0.91235 0.0
H2361 H 0.82025 0.72664 0.89419 0.0
H2362 H 0.80716 0.71938 0.91177 0.0
H2363 H 0.82425 0.73991 0.9167 0.0
C2364 C 0.77507 0.72185 0.95095 0.0
C2365 C 0.7885 0.72908 0.96577 0.0
C2366 C 0.77528 0.72855 0.93335 0.0
C2367 C 0.78913 0.74237 0.92988 0.0
C2368 C 0.80257 0.74967 0.94467 0.0
H2369 H 0.82336 0.79738 0.83636 0.0
H2370 H 0.81883 0.78504 0.86583 0.0
C2371 C 0.80218 0.74325 0.96242 0.0
C2372 C 0.78965 0.74888 0.91079 0.0
H2373 H 0.81138 0.74757 0.87339 0.0
C2374 C 0.77796 0.75989 0.90378 0.0
C2375 C 0.80163 0.7442 0.89943 0.0
C2376 C 0.814 0.73177 0.90574 0.0
C2377 C 0.77832 0.76679 0.88614 0.0
C2378 C 0.79052 0.76235 0.87489 0.0
C2379 C 0.80199 0.75106 0.88183 0.0
C2380 C 0.79252 0.77025 0.85653 0.0
C2381 C 0.76609 0.7794 0.87999 0.0
C2382 C 0.77925 0.76619 0.84105 0.0
C2383 C 0.78186 0.77329 0.82386 0.0
C2384 C 0.79781 0.78462 0.82174 0.0
C2385 C 0.81091 0.78869 0.8373 0.0
C2386 C 0.80834 0.7816 0.8543 0.0
H2387 H 0.75963 0.78422 0.8915 0.0
H2388 H 0.77308 0.79199 0.87438 0.0
H2389 H 0.75595 0.77154 0.86876 0.0
H2390 H 0.76695 0.75726 0.84214 0.0
H2391 H 0.77146 0.76983 0.81225 0.0
H2392 H 0.83537 0.16863 0.04029 0.0
H2393 H 0.86123 0.15599 0.03627 0.0
H2394 H 0.85434 0.16537 0.97837 0.0
H2395 H 0.82927 0.17937 0.98285 0.0
H2396 H 0.86595 0.12682 0.01752 0.0
H2397 H 0.90387 0.1875 0.98889 0.0
H2398 H 0.8843 0.18914 0.9982 0.0
H2399 H 0.88329 0.17775 0.97521 0.0
C2400 C 0.83951 0.16814 0.02676 0.0
C2401 C 0.83045 0.17519 0.01197 0.0
C2402 C 0.85431 0.16088 0.02441 0.0
C2403 C 0.86022 0.16002 0.00707 0.0
C2404 C 0.85071 0.16651 0.99209 0.0
H2405 H 0.94979 0.1106 0.98075 0.0
H2406 H 0.92345 0.12388 0.97697 0.0
C2407 C 0.83622 0.17434 0.9946 0.0
C2408 C 0.87591 0.15172 0.00487 0.0
H2409 H 0.91606 0.16028 0.99117 0.0
C2410 C 0.87685 0.13426 0.01176 0.0
C2411 C 0.89021 0.16104 0.99698 0.0
C2412 C 0.89048 0.17996 0.98954 0.0
C2413 C 0.89162 0.12625 0.01159 0.0
C2414 C 0.90615 0.13592 0.0045 0.0
C2415 C 0.90501 0.15291 0.99676 0.0
C2416 C 0.9229 0.12912 0.00639 0.0
C2417 C 0.89156 0.10743 0.01916 0.0
C2418 C 0.93171 0.12804 0.02411 0.0
C2419 C 0.94666 0.12041 0.02633 0.0
C2420 C 0.95346 0.11367 0.01088 0.0
C2421 C 0.94492 0.11535 0.99303 0.0
C2422 C 0.92988 0.12308 0.99083 0.0
H2423 H 0.87819 0.09944 0.01912 0.0
H2424 H 0.89849 0.09864 0.01099 0.0
H2425 H 0.89822 0.10983 0.03372 0.0
H2426 H 0.92679 0.1328 0.03635 0.0
H2427 H 0.95255 0.11923 0.0403 0.0
H2428 H 0.3761 0.42946 0.05078 0.0
H2429 H 0.40528 0.44482 0.04634 0.0
H2430 H 0.3837 0.48421 0.0137 0.0
H2431 H 0.35466 0.46952 0.01897 0.0
H2432 H 0.42265 0.45026 0.01874 0.0
H2433 H 0.41817 0.52145 0.04799 0.0
H2434 H 0.40186 0.50087 0.04936 0.0
H2435 H 0.40171 0.51269 0.02849 0.0
C2436 C 0.37758 0.44158 0.04286 0.0
C2437 C 0.36294 0.44851 0.03566 0.0
C2438 C 0.39436 0.45033 0.04021 0.0
C2439 C 0.39707 0.46621 0.0301 0.0
C2440 C 0.38232 0.47259 0.02223 0.0
H2441 H 0.49034 0.53894 1.00128 0.0
H2442 H 0.46103 0.51992 1.00039 0.0
C2443 C 0.36559 0.46407 0.02518 0.0
C2444 C 0.4152 0.47608 0.02796 0.0
H2445 H 0.44252 0.51957 0.03304 0.0
C2446 C 0.42692 0.46542 0.02197 0.0
C2447 C 0.42118 0.49592 0.03217 0.0
C2448 C 0.41014 0.50837 0.04004 0.0
C2449 C 0.44404 0.47395 0.01991 0.0
C2450 C 0.44983 0.49378 0.02389 0.0
C2451 C 0.43815 0.50443 0.02976 0.0
C2452 C 0.46809 0.50374 0.02287 0.0
C2453 C 0.45582 0.46174 0.01328 0.0
C2454 C 0.48205 0.501 0.03562 0.0
C2455 C 0.49876 0.51201 0.03623 0.0
C2456 C 0.50211 0.52582 0.02387 0.0
C2457 C 0.48831 0.52811 0.01067 0.0
C2458 C 0.4715 0.51731 0.01026 0.0
H2459 H 0.44859 0.44745 0.0073 0.0
H2460 H 0.46298 0.46849 0.00267 0.0
H2461 H 0.46546 0.46009 0.02516 0.0
H2462 H 0.47988 0.49092 0.04571 0.0
H2463 H 0.509 0.51019 0.04685 0.0
H2464 H 0.42649 0.60492 0.72924 0.0
H2465 H 0.42025 0.63366 0.74404 0.0
H2466 H 0.36571 0.60928 0.73326 0.0
H2467 H 0.37183 0.58025 0.71849 0.0
H2468 H 0.39738 0.65755 0.72858 0.0
H2469 H 0.37767 0.6251 0.79095 0.0
H2470 H 0.39102 0.61529 0.77625 0.0
H2471 H 0.36812 0.61184 0.76905 0.0
C2472 C 0.41312 0.60576 0.72975 0.0
C2473 C 0.39959 0.59037 0.72272 0.0
C2474 C 0.40964 0.62214 0.73831 0.0
C2475 C 0.3926 0.62332 0.74002 0.0
C2476 C 0.37899 0.60836 0.73231 0.0
H2477 H 0.32935 0.6937 0.77399 0.0
H2478 H 0.34499 0.66887 0.76709 0.0
C2479 C 0.38246 0.59194 0.7237 0.0
C2480 C 0.38898 0.64034 0.74966 0.0
H2481 H 0.371 0.65525 0.78637 0.0
C2482 C 0.39183 0.65723 0.74135 0.0
C2483 C 0.38205 0.63974 0.76645 0.0
C2484 C 0.37965 0.62208 0.77635 0.0
C2485 C 0.38665 0.67331 0.74866 0.0
C2486 C 0.37882 0.67246 0.76495 0.0
C2487 C 0.37699 0.65584 0.77388 0.0
C2488 C 0.37015 0.68753 0.77131 0.0
C2489 C 0.38854 0.69059 0.73818 0.0
C2490 C 0.37919 0.70623 0.77637 0.0
C2491 C 0.37017 0.72056 0.78005 0.0
C2492 C 0.35211 0.7162 0.77914 0.0
C2493 C 0.34329 0.69736 0.77499 0.0
C2494 C 0.35222 0.68318 0.77105 0.0
H2495 H 0.39212 0.6877 0.72422 0.0
H2496 H 0.37632 0.69594 0.73648 0.0
H2497 H 0.39885 0.70192 0.7461 0.0
H2498 H 0.3931 0.70978 0.77702 0.0
H2499 H 0.37722 0.73502 0.78336 0.0
H2500 H 0.23672 0.64533 0.48848 0.0
H2501 H 0.20618 0.62934 0.48314 0.0
H2502 H 0.19456 0.6722 0.52091 0.0
H2503 H 0.22472 0.68864 0.52542 0.0
H2504 H 0.18884 0.61318 0.50662 0.0
H2505 H 0.15404 0.66775 0.48235 0.0
H2506 H 0.17714 0.67053 0.48333 0.0
H2507 H 0.16799 0.67673 0.50367 0.0
C2508 C 0.22757 0.65139 0.49548 0.0
C2509 C 0.23313 0.66809 0.50755 0.0
C2510 C 0.21011 0.64231 0.49236 0.0
C2511 C 0.1979 0.64962 0.50143 0.0
C2512 C 0.20348 0.6665 0.51326 0.0
H2513 H 0.10159 0.60445 0.53755 0.0
H2514 H 0.13065 0.62076 0.53357 0.0
C2515 C 0.22083 0.67576 0.51606 0.0
C2516 C 0.17989 0.63859 0.50032 0.0
H2517 H 0.13752 0.64271 0.49682 0.0
C2518 C 0.17764 0.6196 0.50413 0.0
C2519 C 0.1651 0.64682 0.49697 0.0
C2520 C 0.16619 0.66651 0.49114 0.0
C2521 C 0.16127 0.609 0.50559 0.0
C2522 C 0.14676 0.6176 0.50334 0.0
C2523 C 0.14878 0.6363 0.49887 0.0
C2524 C 0.12942 0.60737 0.50585 0.0
C2525 C 0.15955 0.58881 0.51008 0.0
C2526 C 0.11925 0.5944 0.49161 0.0
C2527 C 0.10264 0.58522 0.49378 0.0
C2528 C 0.09606 0.58864 0.51035 0.0
C2529 C 0.10646 0.6013 0.52477 0.0
C2530 C 0.12296 0.61073 0.52246 0.0
H2531 H 0.17227 0.58456 0.51267 0.0
H2532 H 0.15303 0.58683 0.52251 0.0
H2533 H 0.15137 0.57927 0.49833 0.0
H2534 H 0.12407 0.59161 0.47872 0.0
H2535 H 0.09487 0.57556 0.48243 0.0
H2536 H 0.66404 0.92998 0.73613 0.0
H2537 H 0.68117 0.90501 0.73817 0.0
H2538 H 0.71317 0.93613 0.78722 0.0
H2539 H 0.69655 0.96115 0.78491 0.0
H2540 H 0.72091 0.91558 0.7403 0.0
H2541 H 0.69668 0.8787 0.79857 0.0
H2542 H 0.68387 0.89147 0.78386 0.0
H2543 H 0.70057 0.90411 0.80178 0.0
C2544 C 0.67462 0.93122 0.7474 0.0
C2545 C 0.67921 0.94727 0.76034 0.0
C2546 C 0.6843 0.9171 0.74855 0.0
C2547 C 0.69818 0.91886 0.76295 0.0
C2548 C 0.70235 0.93462 0.77616 0.0
H2549 H 0.78075 0.8631 0.80029 0.0
H2550 H 0.76173 0.88614 0.79573 0.0
C2551 C 0.69299 0.94885 0.77477 0.0
C2552 C 0.70946 0.9052 0.76359 0.0
H2553 H 0.72357 0.87341 0.79068 0.0
C2554 C 0.72141 0.90612 0.75111 0.0
C2555 C 0.71 0.89322 0.77788 0.0
C2556 C 0.69702 0.89164 0.79124 0.0
C2557 C 0.73442 0.89562 0.75295 0.0
C2558 C 0.73521 0.88395 0.76753 0.0
C2559 C 0.72301 0.88273 0.77975 0.0
C2560 C 0.74781 0.87172 0.76951 0.0
C2561 C 0.74741 0.89734 0.73959 0.0
C2562 C 0.74613 0.85637 0.75619 0.0
C2563 C 0.75672 0.84341 0.75884 0.0
C2564 C 0.76907 0.84567 0.77482 0.0
C2565 C 0.77125 0.86133 0.78791 0.0
C2566 C 0.76048 0.87433 0.78531 0.0
H2567 H 0.74748 0.91012 0.73207 0.0
H2568 H 0.76063 0.89789 0.74699 0.0
H2569 H 0.74407 0.88476 0.72919 0.0
H2570 H 0.73624 0.85409 0.74409 0.0
H2571 H 0.75499 0.83131 0.74861 0.0
H2572 H 0.74871 0.91135 0.53309 0.0
H2573 H 0.72097 0.92157 0.52764 0.0
H2574 H 0.74797 0.97886 0.52663 0.0
H2575 H 0.77581 0.96879 0.53245 0.0
H2576 H 0.70985 0.95132 0.55074 0.0
H2577 H 0.711 0.96619 0.47747 0.0
H2578 H 0.72339 0.95048 0.48843 0.0
H2579 H 0.73068 0.9756 0.49317 0.0
C2580 C 0.74877 0.92616 0.53176 0.0
C2581 C 0.76455 0.93927 0.53333 0.0
C2582 C 0.73287 0.93197 0.5286 0.0
C2583 C 0.7323 0.95097 0.52653 0.0
C2584 C 0.74802 0.96409 0.52799 0.0
H2585 H 0.66001 0.0248 0.51485 0.0
H2586 H 0.68375 0.00806 0.51409 0.0
C2587 C 0.76396 0.95834 0.53146 0.0
C2588 C 0.71536 0.95725 0.52354 0.0
H2589 H 0.68963 0.9771 0.49267 0.0
C2590 C 0.70534 0.95679 0.53798 0.0
C2591 C 0.70934 0.96423 0.50683 0.0
C2592 C 0.71903 0.96406 0.49047 0.0
C2593 C 0.68998 0.96395 0.53654 0.0
C2594 C 0.68422 0.97153 0.52004 0.0
C2595 C 0.69398 0.97141 0.50536 0.0
C2596 C 0.66891 0.98092 0.51839 0.0
C2597 C 0.68048 0.96411 0.55307 0.0
C2598 C 0.65229 0.97118 0.52033 0.0
C2599 C 0.63852 0.98077 0.52068 0.0
C2600 C 0.64097 1.00035 0.519 0.0
C2601 C 0.65743 0.00976 0.51604 0.0
C2602 C 0.67114 1.00018 0.5157 0.0
H2603 H 0.68846 0.9615 0.5659 0.0
H2604 H 0.67651 0.97786 0.55556 0.0
H2605 H 0.66863 0.95283 0.55033 0.0
H2606 H 0.65001 0.95621 0.5219 0.0
H2607 H 0.626 0.97286 0.52255 0.0
H2608 H 0.37592 0.50052 0.74363 0.0
H2609 H 0.3679 0.47284 0.76001 0.0
H2610 H 0.39225 0.44027 0.7235 0.0
H2611 H 0.40114 0.46841 0.70759 0.0
H2612 H 0.34632 0.44244 0.74223 0.0
H2613 H 0.4066 0.42183 0.7734 0.0
H2614 H 0.40627 0.44501 0.76592 0.0
H2615 H 0.40584 0.42531 0.74927 0.0
C2616 C 0.3794 0.4874 0.73897 0.0
C2617 C 0.38851 0.48627 0.72392 0.0
C2618 C 0.37515 0.47175 0.74856 0.0
C2619 C 0.37962 0.45461 0.74304 0.0
C2620 C 0.38902 0.4535 0.72821 0.0
H2621 H 0.33273 0.34038 0.75026 0.0
H2622 H 0.35217 0.36962 0.74517 0.0
C2623 C 0.39368 0.46937 0.71886 0.0
C2624 C 0.37187 0.43741 0.75077 0.0
H2625 H 0.38031 0.39877 0.77143 0.0
C2626 C 0.35378 0.43305 0.74887 0.0
C2627 C 0.3817 0.42518 0.75926 0.0
C2628 C 0.40119 0.42963 0.76226 0.0
C2629 C 0.34515 0.41656 0.75485 0.0
C2630 C 0.3549 0.40419 0.76305 0.0
C2631 C 0.373 0.4085 0.76517 0.0
C2632 C 0.34615 0.3862 0.76837 0.0
C2633 C 0.32562 0.41222 0.75185 0.0
C2634 C 0.33682 0.38603 0.78334 0.0
C2635 C 0.3258 0.36949 0.78619 0.0
C2636 C 0.32401 0.35319 0.77398 0.0
C2637 C 0.33392 0.35307 0.75958 0.0
C2638 C 0.34507 0.36957 0.75683 0.0
H2639 H 0.32011 0.42179 0.74262 0.0
H2640 H 0.32056 0.39741 0.74571 0.0
H2641 H 0.32097 0.4139 0.76542 0.0
H2642 H 0.33751 0.39887 0.79226 0.0
H2643 H 0.31821 0.36958 0.79744 0.0
H2644 H 0.1628 0.55736 0.24662 0.0
H2645 H 0.17712 0.59075 0.25299 0.0
H2646 H 0.20827 0.57786 0.30148 0.0
H2647 H 0.19451 0.54444 0.29477 0.0
H2648 H 0.17995 0.61662 0.28363 0.0
H2649 H 0.24418 0.60326 0.27186 0.0
H2650 H 0.22446 0.58588 0.26501 0.0
H2651 H 0.23487 0.58945 0.28875 0.0
C2652 C 0.17274 0.56173 0.2586 0.0
C2653 C 0.17787 0.54846 0.27006 0.0
C2654 C 0.18083 0.58072 0.26224 0.0
C2655 C 0.19395 0.58657 0.27747 0.0
C2656 C 0.1985 0.57343 0.28937 0.0
H2657 H 0.26292 0.69587 0.31408 0.0
H2658 H 0.24635 0.66339 0.31421 0.0
C2659 C 0.19066 0.55443 0.28555 0.0
C2660 C 0.20323 0.60636 0.28077 0.0
H2661 H 0.24339 0.63414 0.28443 0.0
C2662 C 0.19382 0.62049 0.28386 0.0
C2663 C 0.22128 0.61124 0.28085 0.0
C2664 C 0.23178 0.5967 0.27625 0.0
C2665 C 0.2021 0.63952 0.28729 0.0
C2666 C 0.22018 0.64436 0.28758 0.0
C2667 C 0.22958 0.63022 0.2846 0.0
C2668 C 0.22927 0.66412 0.28873 0.0
C2669 C 0.19148 0.6543 0.29046 0.0
C2670 C 0.22512 0.67492 0.27434 0.0
C2671 C 0.23429 0.69321 0.27439 0.0
C2672 C 0.24792 0.70088 0.28866 0.0
C2673 C 0.25228 0.69014 0.30309 0.0
C2674 C 0.24289 0.67174 0.30315 0.0
H2675 H 0.17889 0.6481 0.29467 0.0
H2676 H 0.19859 0.66569 0.30127 0.0
H2677 H 0.18875 0.66077 0.27738 0.0
H2678 H 0.21507 0.66902 0.2628 0.0
H2679 H 0.23108 0.70122 0.26293 0.0
H2680 H 0.50817 0.74935 0.45355 0.0
H2681 H 0.51386 0.72382 0.47251 0.0
H2682 H 0.56553 0.73127 0.45877 0.0
H2683 H 0.55967 0.75636 0.43946 0.0
H2684 H 0.52442 0.68922 0.46108 0.0
H2685 H 0.57254 0.73367 0.51648 0.0
H2686 H 0.55795 0.74335 0.50062 0.0
H2687 H 0.57696 0.73707 0.49334 0.0
C2688 C 0.5207 0.74543 0.45457 0.0
C2689 C 0.53344 0.75464 0.44493 0.0
C2690 C 0.52396 0.73089 0.46541 0.0
C2691 C 0.54021 0.72571 0.46728 0.0
C2692 C 0.55297 0.73509 0.45774 0.0
H2693 H 0.58591 0.63858 0.52099 0.0
H2694 H 0.5808 0.66597 0.50463 0.0
C2695 C 0.54958 0.74931 0.44658 0.0
C2696 C 0.54373 0.71015 0.4787 0.0
H2697 H 0.5699 0.70039 0.51634 0.0
C2698 C 0.5343 0.69169 0.47322 0.0
C2699 C 0.55661 0.71331 0.49458 0.0
C2700 C 0.56652 0.73293 0.50177 0.0
C2701 C 0.53767 0.67632 0.48285 0.0
C2702 C 0.55069 0.67942 0.49863 0.0
C2703 C 0.56004 0.69791 0.50419 0.0
C2704 C 0.55439 0.66369 0.50974 0.0
C2705 C 0.52749 0.65676 0.47577 0.0
C2706 C 0.54152 0.65366 0.51865 0.0
C2707 C 0.54443 0.63816 0.52809 0.0
C2708 C 0.56036 0.63221 0.52898 0.0
C2709 C 0.57355 0.64278 0.52074 0.0
C2710 C 0.5706 0.6584 0.51128 0.0
H2711 H 0.52125 0.65606 0.46114 0.0
H2712 H 0.53591 0.64618 0.47673 0.0
H2713 H 0.51715 0.65279 0.48437 0.0
H2714 H 0.52904 0.65764 0.51807 0.0
H2715 H 0.53394 0.63053 0.5343 0.0
H2716 H 0.61693 0.34414 0.69757 0.0
H2717 H 0.64408 0.34315 0.71727 0.0
H2718 H 0.65755 0.30738 0.67404 0.0
H2719 H 0.63071 0.30884 0.65411 0.0
H2720 H 0.65607 0.31414 0.73132 0.0
H2721 H 0.70121 0.34675 0.68583 0.0
H2722 H 0.67844 0.34701 0.68193 0.0
H2723 H 0.68609 0.32629 0.67443 0.0
C2724 C 0.62577 0.33624 0.69219 0.0
C2725 C 0.62173 0.32674 0.67419 0.0
C2726 C 0.64128 0.33561 0.7035 0.0
C2727 C 0.6531 0.32544 0.6971 0.0
C2728 C 0.64896 0.31577 0.67918 0.0
H2729 H 0.75473 0.30853 0.74888 0.0
H2730 H 0.72629 0.30391 0.72933 0.0
C2731 C 0.63353 0.31654 0.6678 0.0
C2732 C 0.66952 0.32463 0.70933 0.0
H2733 H 0.71355 0.33341 0.71171 0.0
C2734 C 0.66863 0.31838 0.72701 0.0
C2735 C 0.68599 0.33016 0.70381 0.0
C2736 C 0.68806 0.33811 0.68555 0.0
C2737 C 0.68364 0.31742 0.73919 0.0
C2738 C 0.70008 0.32292 0.73363 0.0
C2739 C 0.70097 0.32896 0.7159 0.0
C2740 C 0.71658 0.32395 0.74643 0.0
C2741 C 0.68177 0.3104 0.75788 0.0
C2742 C 0.72058 0.3366 0.76261 0.0
C2743 C 0.73674 0.33923 0.7737 0.0
C2744 C 0.74936 0.32927 0.76896 0.0
C2745 C 0.74522 0.31619 0.75306 0.0
C2746 C 0.72901 0.31364 0.74183 0.0
H2747 H 0.66861 0.30194 0.75804 0.0
H2748 H 0.69143 0.30165 0.76185 0.0
H2749 H 0.68394 0.3227 0.76851 0.0
H2750 H 0.71142 0.345 0.76632 0.0
H2751 H 0.7395 0.34949 0.78581 0.0
H2752 H 0.00895 0.35726 0.92549 0.0
H2753 H 0.00853 0.388 0.94183 0.0
H2754 H 0.05886 0.38897 0.97257 0.0
H2755 H 0.05908 0.35791 0.95653 0.0
H2756 H 0.01391 0.39362 0.98432 0.0
H2757 H 0.05957 0.44232 0.94949 0.0
H2758 H 0.04795 0.41952 0.93836 0.0
H2759 H 0.06589 0.42096 0.95639 0.0
C2760 C 0.01997 0.36423 0.93558 0.0
C2761 C 0.03406 0.35553 0.9399 0.0
C2762 C 0.01971 0.38165 0.94486 0.0
C2763 C 0.03369 0.39062 0.95824 0.0
C2764 C 0.04803 0.38218 0.96217 0.0
H2765 H 0.05509 0.49193 0.03243 0.0
H2766 H 0.05382 0.4603 0.01777 0.0
C2767 C 0.04814 0.36455 0.95312 0.0
C2768 C 0.03271 0.40821 0.96898 0.0
H2769 H 0.04877 0.45564 0.97483 0.0
C2770 C 0.02145 0.40722 0.98225 0.0
C2771 C 0.04267 0.42576 0.96615 0.0
C2772 C 0.05467 0.42738 0.95177 0.0
C2773 C 0.01999 0.42351 0.99297 0.0
C2774 C 0.02989 0.44104 0.99008 0.0
C2775 C 0.04117 0.44204 0.97684 0.0
C2776 C 0.02907 0.45862 1.00088 0.0
C2777 C 1.00818 0.42197 0.00752 0.0
C2778 C 0.01524 0.46773 0.99652 0.0
C2779 C 0.01592 0.4859 0.00481 0.0
C2780 C 0.03052 0.49508 0.01739 0.0
C2781 C 0.04379 0.48533 0.02255 0.0
C2782 C 0.0431 0.46726 0.01427 0.0
H2783 H 1.00266 0.40704 0.00927 0.0
H2784 H 0.01535 0.42908 0.02106 0.0
H2785 H 0.99741 0.42928 0.00353 0.0
H2786 H 1.00436 0.46114 0.9861 0.0
H2787 H 1.00551 0.49309 1.00064 0.0
H2788 H 0.0259 0.83959 0.17423 0.0
H2789 H 0.9994 0.83005 0.188 0.0
H2790 H 0.99983 0.77145 0.17309 0.0
H2791 H 0.02595 0.78098 0.15876 0.0
H2792 H 0.96617 0.80378 0.16761 0.0
H2793 H 0.99707 0.77898 0.23163 0.0
H2794 H 0.00918 0.79525 0.21827 0.0
H2795 H 1.00235 0.77079 0.20963 0.0
C2796 C 0.02032 0.82471 0.17398 0.0
C2797 C 0.02785 0.81099 0.16553 0.0
C2798 C 1.00523 0.81928 0.18177 0.0
C2799 C 0.9978 0.80006 0.18167 0.0
C2800 C 1.00543 0.78633 0.17336 0.0
H2801 H 0.90537 0.75657 0.23341 0.0
H2802 H 0.93009 0.75643 0.21639 0.0
C2803 C 0.02025 0.79178 0.16516 0.0
C2804 C 0.98185 0.79447 0.18997 0.0
H2805 H 0.96702 0.77775 0.22858 0.0
C2806 C 0.96631 0.79792 0.18084 0.0
C2807 C 0.98206 0.78659 0.20711 0.0
C2808 C 0.99853 0.78271 0.21738 0.0
C2809 C 0.95104 0.79427 0.18873 0.0
C2810 C 0.95142 0.78733 0.20632 0.0
C2811 C 0.96678 0.78305 0.21508 0.0
C2812 C 0.93663 0.78685 0.21672 0.0
C2813 C 0.93464 0.79824 0.17838 0.0
C2814 C 0.93235 0.80395 0.22272 0.0
C2815 C 0.91839 0.80407 0.2323 0.0
C2816 C 0.90835 0.78709 0.23621 0.0
C2817 C 0.91283 0.76988 0.23053 0.0
C2818 C 0.9269 0.76978 0.22083 0.0
H2819 H 0.93535 0.7989 0.16336 0.0
H2820 H 0.92332 0.78723 0.18 0.0
H2821 H 0.93252 0.81207 0.18416 0.0
H2822 H 0.93992 0.81728 0.22002 0.0
H2823 H 0.91561 0.81757 0.23693 0.0
H2824 H 0.59392 0.36732 0.10538 0.0
H2825 H 0.59599 0.39702 0.09098 0.0
H2826 H 0.56061 0.41456 0.12526 0.0
H2827 H 0.55902 0.38524 0.1401 0.0
H2828 H 0.57135 0.40873 0.0704 0.0
H2829 H 0.59536 0.46279 0.13013 0.0
H2830 H 0.59578 0.43814 0.13174 0.0
H2831 H 0.57631 0.44682 0.13388 0.0
C2832 C 0.58668 0.37758 0.10993 0.0
C2833 C 0.57613 0.37379 0.12373 0.0
C2834 C 0.58792 0.39462 0.10173 0.0
C2835 C 0.57861 0.40828 0.10708 0.0
C2836 C 0.5683 0.4046 0.12112 0.0
H2837 H 0.54944 0.50938 0.06864 0.0
H2838 H 0.55454 0.48193 0.08453 0.0
C2839 C 0.56721 0.38767 0.12947 0.0
C2840 C 0.57839 0.42545 0.09685 0.0
H2841 H 0.58194 0.47342 0.10262 0.0
C2842 C 0.57386 0.42291 0.07744 0.0
C2843 C 0.58172 0.44404 0.10593 0.0
C2844 C 0.58774 0.44814 0.12654 0.0
C2845 C 0.57172 0.43812 0.06702 0.0
C2846 C 0.57449 0.45667 0.07615 0.0
C2847 C 0.57959 0.45928 0.09552 0.0
C2848 C 0.57151 0.47342 0.06615 0.0
C2849 C 0.56574 0.43387 0.0464 0.0
C2850 C 0.57938 0.47808 0.05049 0.0
C2851 C 0.57606 0.49353 0.04107 0.0
C2852 C 0.56532 0.50513 0.04749 0.0
C2853 C 0.55788 0.50082 0.06344 0.0
C2854 C 0.56081 0.48509 0.07254 0.0
H2855 H 0.55955 0.41875 0.04256 0.0
H2856 H 0.55639 0.44265 0.04146 0.0
H2857 H 0.57708 0.43695 0.03899 0.0
H2858 H 0.58817 0.46985 0.04556 0.0
H2859 H 0.58213 0.49662 0.02893 0.0
H2860 H 0.96743 0.30563 0.40075 0.0
H2861 H 0.94128 0.31016 0.38134 0.0
H2862 H 0.96068 0.29145 0.33237 0.0
H2863 H 0.98695 0.28711 0.35161 0.0
H2864 H 0.94549 0.3362 0.35185 0.0
H2865 H 0.9079 0.26397 0.32626 0.0
H2866 H 0.92333 0.26882 0.34738 0.0
H2867 H 0.93074 0.26804 0.32525 0.0
C2868 C 0.96594 0.30208 0.38589 0.0
C2869 C 0.97923 0.29614 0.37764 0.0
C2870 C 0.95104 0.30468 0.37486 0.0
C2871 C 0.94912 0.30103 0.35552 0.0
C2872 C 0.96192 0.29412 0.34732 0.0
H2873 H 0.87059 0.31317 0.26601 0.0
H2874 H 0.89793 0.30885 0.28338 0.0
C2875 C 0.97692 0.29175 0.3583 0.0
C2876 C 0.93488 0.30666 0.34374 0.0
H2877 H 0.89871 0.28946 0.31236 0.0
C2878 C 0.9352 0.32603 0.34323 0.0
C2879 C 0.92169 0.29329 0.33247 0.0
C2880 C 0.92073 0.27234 0.33288 0.0
C2881 C 0.92273 0.33246 0.33141 0.0
C2882 C 0.90941 0.31908 0.3202 0.0
C2883 C 0.90908 0.29968 0.3208 0.0
C2884 C 0.89498 0.32473 0.30867 0.0
C2885 C 0.92419 0.35349 0.33083 0.0
C2886 C 0.88471 0.33565 0.31694 0.0
C2887 C 0.86962 0.3387 0.30685 0.0
C2888 C 0.8643 0.33029 0.28863 0.0
C2889 C 0.87473 0.31991 0.28004 0.0
C2890 C 0.89018 0.31736 0.28997 0.0
H2891 H 0.93777 0.36123 0.33498 0.0
H2892 H 0.91941 0.35695 0.31679 0.0
H2893 H 0.91639 0.35874 0.3408 0.0
H2894 H 0.88778 0.34087 0.3315 0.0
H2895 H 0.86139 0.34633 0.31377 0.0
H2896 H 0.08413 0.77667 0.60114 0.0
H2897 H 0.08052 0.74479 0.58507 0.0
H2898 H 0.04091 0.724 0.61749 0.0
H2899 H 0.04467 0.75569 0.63379 0.0
H2900 H 0.08249 0.70799 0.60092 0.0
H2901 H 0.01817 0.70926 0.56147 0.0
H2902 H 0.03321 0.73052 0.57177 0.0
H2903 H 0.02099 0.71584 0.58609 0.0
C2904 C 0.07459 0.76532 0.60478 0.0
C2905 C 0.06451 0.76885 0.61859 0.0
C2906 C 0.0726 0.74705 0.59565 0.0
C2907 C 0.06028 0.73191 0.59985 0.0
C2908 C 0.05037 0.73539 0.6138 0.0
H2909 H 0.02788 0.6118 0.55286 0.0
H2910 H 0.03237 0.64168 0.57319 0.0
C2911 C 0.05254 0.75357 0.62313 0.0
C2912 C 0.05752 0.71263 0.58943 0.0
H2913 H 0.02823 0.68069 0.55816 0.0
C2914 C 0.07062 0.70204 0.59159 0.0
C2915 C 0.04204 0.70471 0.57722 0.0
C2916 C 0.02779 0.71564 0.5738 0.0
C2917 C 0.06859 0.68387 0.58201 0.0
C2918 C 0.05315 0.67601 0.56972 0.0
C2919 C 0.04002 0.68654 0.56766 0.0
C2920 C 0.0509 0.65743 0.55807 0.0
C2921 C 0.08294 0.67307 0.58512 0.0
C2922 C 0.05978 0.65617 0.5428 0.0
C2923 C 0.05701 0.63926 0.53107 0.0
C2924 C 0.04562 0.62293 0.53451 0.0
C2925 C 0.03705 0.62397 0.55008 0.0
C2926 C 0.03951 0.64111 0.56161 0.0
H2927 H 0.09264 0.67942 0.5974 0.0
H2928 H 0.07762 0.65814 0.58704 0.0
H2929 H 0.0896 0.67305 0.57271 0.0
H2930 H 0.06855 0.66848 0.53964 0.0
H2931 H 0.06364 0.63903 0.51907 0.0
H2932 H 0.58626 0.798 0.8973 0.0
H2933 H 0.60709 0.79315 0.87638 0.0
H2934 H 0.56975 0.79729 0.82928 0.0
H2935 H 0.5489 0.8021 0.85005 0.0
H2936 H 0.60222 0.76336 0.84559 0.0
H2937 H 0.6139 0.83541 0.82205 0.0
H2938 H 0.60449 0.83048 0.84277 0.0
H2939 H 0.59176 0.8233 0.82034 0.0
C2940 C 0.58256 0.79813 0.88251 0.0
C2941 C 0.56596 0.80065 0.8754 0.0
C2942 C 0.59444 0.79523 0.87055 0.0
C2943 C 0.59009 0.79504 0.85123 0.0
C2944 C 0.57354 0.79765 0.84411 0.0
H2945 H 0.65876 0.78617 0.76611 0.0
H2946 H 0.63281 0.7882 0.7804 0.0
C2947 C 0.56162 0.80039 0.85604 0.0
C2948 C 0.60277 0.79179 0.83862 0.0
H2949 H 0.62886 0.81356 0.80961 0.0
C2950 C 0.60801 0.77434 0.8377 0.0
C2951 C 0.61005 0.80591 0.82793 0.0
C2952 C 0.6049 0.8249 0.8283 0.0
C2953 C 0.6206 0.77082 0.82682 0.0
C2954 C 0.62865 0.78533 0.817 0.0
C2955 C 0.62285 0.80248 0.81725 0.0
C2956 C 0.64406 0.78354 0.80786 0.0
C2957 C 0.62516 0.75152 0.82589 0.0
C2958 C 0.65911 0.78045 0.81848 0.0
C2959 C 0.6739 0.77934 0.81041 0.0
C2960 C 0.67416 0.78137 0.79144 0.0
C2961 C 0.65904 0.78443 0.78073 0.0
C2962 C 0.6442 0.78566 0.7889 0.0
H2963 H 0.61434 0.74054 0.82881 0.0
H2964 H 0.62845 0.74749 0.81205 0.0
H2965 H 0.63653 0.75168 0.8365 0.0
H2966 H 0.65951 0.77911 0.83318 0.0
H2967 H 0.68514 0.77669 0.81907 0.0
H2968 H 0.42793 0.56303 0.66004 0.0
H2969 H 0.45106 0.57514 0.64235 0.0
H2970 H 0.4818 0.53755 0.6664 0.0
H2971 H 0.45886 0.52537 0.68403 0.0
H2972 H 0.4897 0.59056 0.65998 0.0
H2973 H 0.47548 0.52801 0.60713 0.0
H2974 H 0.4596 0.53393 0.62081 0.0
H2975 H 0.47667 0.52326 0.63103 0.0
C2976 C 0.43944 0.55703 0.66112 0.0
C2977 C 0.44157 0.54305 0.67302 0.0
C2978 C 0.45267 0.56415 0.65133 0.0
C2979 C 0.46795 0.55717 0.65327 0.0
C2980 C 0.46998 0.54299 0.66485 0.0
H2981 H 0.55928 0.56514 0.60518 0.0
H2982 H 0.53718 0.56073 0.62561 0.0
C2983 C 0.45685 0.53595 0.67469 0.0
C2984 C 0.48166 0.56412 0.64265 0.0
H2985 H 0.50134 0.55039 0.607 0.0
C2986 C 0.49222 0.58197 0.64825 0.0
C2987 C 0.48473 0.55264 0.62755 0.0
C2988 C 0.47348 0.53343 0.62112 0.0
C2989 C 0.50628 0.58849 0.63921 0.0
C2990 C 0.50947 0.57686 0.62429 0.0
C2991 C 0.49869 0.55918 0.61852 0.0
C2992 C 0.52434 0.58226 0.61474 0.0
C2993 C 0.51797 0.60738 0.6459 0.0
C2994 C 0.52444 0.59613 0.60234 0.0
C2995 C 0.53713 0.59877 0.59086 0.0
C2996 C 0.54959 0.58749 0.59182 0.0
C2997 C 0.54989 0.57421 0.60472 0.0
C2998 C 0.53732 0.57165 0.61623 0.0
H2999 H 0.51505 0.61355 0.6592 0.0
H3000 H 0.53171 0.60593 0.64777 0.0
H3001 H 0.51638 0.61736 0.63529 0.0
H3002 H 0.5142 0.60407 0.60083 0.0
H3003 H 0.53657 0.60866 0.58048 0.0
H3004 H 0.79141 0.20026 0.95144 0.0
H3005 H 0.78805 0.21425 0.9219 0.0
H3006 H 0.76155 0.25424 0.94634 0.0
H3007 H 0.76569 0.24097 0.97607 0.0
H3008 H 0.76055 0.221 0.89735 0.0
H3009 H 0.80236 0.28836 0.9308 0.0
H3010 H 0.80022 0.26681 0.9419 0.0
H3011 H 0.78387 0.28086 0.94199 0.0
C3012 C 0.78488 0.21206 0.95045 0.0
C3013 C 0.77923 0.21995 0.96611 0.0
C3014 C 0.78287 0.21993 0.93357 0.0
C3015 C 0.77492 0.23558 0.93207 0.0
C3016 C 0.7682 0.24256 0.94737 0.0
H3017 H 0.77057 0.31533 0.84837 0.0
H3018 H 0.76434 0.29696 0.87457 0.0
C3019 C 0.77059 0.23502 0.96433 0.0
C3020 C 0.77481 0.24558 0.91508 0.0
H3021 H 0.78894 0.28853 0.90013 0.0
C3022 C 0.76671 0.23576 0.89792 0.0
C3023 C 0.783 0.26481 0.91584 0.0
C3024 C 0.79301 0.27579 0.93358 0.0
C3025 C 0.76641 0.2448 0.88154 0.0
C3026 C 0.77454 0.26408 0.88241 0.0
C3027 C 0.78248 0.27385 0.89956 0.0
C3028 C 0.77636 0.27411 0.86563 0.0
C3029 C 0.75732 0.2337 0.86349 0.0
C3030 C 0.7852 0.26739 0.85204 0.0
C3031 C 0.78851 0.27766 0.83709 0.0
C3032 C 0.78347 0.2951 0.8357 0.0
C3033 C 0.77469 0.30197 0.84929 0.0
C3034 C 0.77105 0.29145 0.86412 0.0
H3035 H 0.74757 0.22131 0.86587 0.0
H3036 H 0.75081 0.2427 0.85443 0.0
H3037 H 0.76694 0.22834 0.85601 0.0
H3038 H 0.79003 0.25447 0.85327 0.0
H3039 H 0.79552 0.27222 0.82689 0.0
H3040 H 0.1496 0.52105 0.20605 0.0
H3041 H 0.13371 0.53034 0.17862 0.0
H3042 H 0.09481 0.47933 0.17541 0.0
H3043 H 0.11031 0.47042 0.20366 0.0
H3044 H 0.12487 0.5141 0.144 0.0
H3045 H 0.06613 0.51945 0.17551 0.0
H3046 H 0.08605 0.51687 0.18903 0.0
H3047 H 0.07153 0.49656 0.17623 0.0
C3048 C 0.13776 0.51169 0.19935 0.0
C3049 C 0.1311 0.495 0.20678 0.0
C3050 C 0.12869 0.51707 0.18378 0.0
C3051 C 0.113 0.50567 0.17527 0.0
C3052 C 0.1067 0.48852 0.18217 0.0
H3053 H 0.03866 0.51022 0.08142 0.0
H3054 H 0.05757 0.50124 0.10694 0.0
C3055 C 0.11559 0.48335 0.19808 0.0
C3056 C 0.10328 0.51187 0.1592 0.0
H3057 H 0.06412 0.52142 0.14301 0.0
C3058 C 0.1116 0.51578 0.14376 0.0
C3059 C 0.08612 0.51436 0.15921 0.0
C3060 C 0.07699 0.51179 0.17596 0.0
C3061 C 0.10294 0.52149 0.12793 0.0
C3062 C 0.0856 0.52325 0.12773 0.0
C3063 C 0.0774 0.51976 0.14329 0.0
C3064 C 0.07542 0.52825 0.11137 0.0
C3065 C 0.11222 0.52522 0.11146 0.0
C3066 C 0.07947 0.54632 0.1055 0.0
C3067 C 0.06877 0.55142 0.09091 0.0
C3068 C 0.05385 0.53857 0.08234 0.0
C3069 C 0.05002 0.52039 0.08803 0.0
C3070 C 0.06079 0.51525 0.10247 0.0
H3071 H 0.12443 0.51981 0.1126 0.0
H3072 H 0.10382 0.51862 0.09838 0.0
H3073 H 0.11549 0.54068 0.11058 0.0
H3074 H 0.09059 0.55659 0.11251 0.0
H3075 H 0.07191 0.56553 0.08666 0.0
H3076 H 0.82362 0.87109 0.49666 0.0
H3077 H 0.82327 0.85563 0.46569 0.0
H3078 H 0.78807 0.88923 0.44248 0.0
H3079 H 0.78887 0.90527 0.47339 0.0
H3080 H 0.79719 0.83479 0.44001 0.0
H3081 H 0.82696 0.90071 0.41223 0.0
H3082 H 0.82588 0.89957 0.43663 0.0
H3083 H 0.80706 0.90152 0.42091 0.0
C3084 C 0.81574 0.87511 0.48496 0.0
C3085 C 0.80642 0.88948 0.48734 0.0
C3086 C 0.81555 0.86627 0.4673 0.0
C3087 C 0.80592 0.87155 0.45178 0.0
C3088 C 0.79595 0.88532 0.45422 0.0
H3089 H 0.78669 0.83097 0.33708 0.0
H3090 H 0.78587 0.84306 0.36877 0.0
C3091 C 0.79634 0.89437 0.47187 0.0
C3092 C 0.80677 0.86288 0.43307 0.0
H3093 H 0.81896 0.87299 0.3913 0.0
C3094 C 0.80205 0.84312 0.42939 0.0
C3095 C 0.81306 0.87384 0.41924 0.0
C3096 C 0.81867 0.89507 0.42244 0.0
C3097 C 0.8034 0.83404 0.41219 0.0
C3098 C 0.8098 0.84502 0.39854 0.0
C3099 C 0.81438 0.86471 0.40208 0.0
C3100 C 0.81034 0.83654 0.3798 0.0
C3101 C 0.79771 0.81287 0.40847 0.0
C3102 C 0.82455 0.82903 0.37563 0.0
C3103 C 0.8252 0.8222 0.35734 0.0
C3104 C 0.81153 0.8227 0.34325 0.0
C3105 C 0.79735 0.83019 0.34767 0.0
C3106 C 0.79681 0.83711 0.36575 0.0
H3107 H 0.79272 0.80638 0.42049 0.0
H3108 H 0.78742 0.80927 0.3962 0.0
H3109 H 0.80876 0.80661 0.40515 0.0
H3110 H 0.83514 0.82865 0.38646 0.0
H3111 H 0.8362 0.8164 0.35426 0.0
H3112 H 0.46054 0.56546 0.75879 0.0
H3113 H 0.47852 0.56891 0.78894 0.0
H3114 H 0.43773 0.53256 0.8103 0.0
H3115 H 0.41944 0.52899 0.77987 0.0
H3116 H 0.47134 0.58055 0.82594 0.0
H3117 H 0.48149 0.50673 0.81392 0.0
H3118 H 0.47288 0.51899 0.79538 0.0
H3119 H 0.45957 0.51019 0.81204 0.0
C3120 C 0.45535 0.55833 0.76996 0.0
C3121 C 0.43887 0.54671 0.76716 0.0
C3122 C 0.46554 0.56042 0.78709 0.0
C3123 C 0.45934 0.55081 0.80145 0.0
C3124 C 0.44255 0.53992 0.79908 0.0
H3125 H 0.50219 0.53663 0.90731 0.0
H3126 H 0.48576 0.53748 0.87706 0.0
C3127 C 0.43222 0.53793 0.78187 0.0
C3128 C 0.47125 0.55124 0.81834 0.0
H3129 H 0.49664 0.52503 0.8412 0.0
C3130 C 0.47691 0.56848 0.82939 0.0
C3131 C 0.4785 0.53541 0.82223 0.0
C3132 C 0.47293 0.51677 0.81025 0.0
C3133 C 0.48961 0.57021 0.8448 0.0
C3134 C 0.49672 0.55435 0.84881 0.0
C3135 C 0.49125 0.53718 0.83759 0.0
C3136 C 0.5072 0.5542 0.86652 0.0
C3137 C 0.49496 0.58864 0.85709 0.0
C3138 C 0.52458 0.5635 0.87024 0.0
C3139 C 0.53404 0.56307 0.88761 0.0
C3140 C 0.52588 0.55357 0.90103 0.0
C3141 C 0.50849 0.54439 0.89713 0.0
C3142 C 0.4992 0.54469 0.87994 0.0
H3143 H 0.48741 0.59931 0.85247 0.0
H3144 H 0.49322 0.58623 0.87161 0.0
H3145 H 0.50888 0.59446 0.85705 0.0
H3146 H 0.53073 0.57086 0.85975 0.0
H3147 H 0.54755 0.56997 0.89056 0.0
H3148 H 0.81906 0.22142 0.08045 0.0
H3149 H 0.82226 0.2386 0.1115 0.0
H3150 H 0.7737 0.25553 0.09642 0.0
H3151 H 0.77086 0.23899 0.06517 0.0
H3152 H 0.82196 0.27912 0.12194 0.0
H3153 H 0.76915 0.22966 0.14594 0.0
H3154 H 0.77922 0.22337 0.1263 0.0
H3155 H 0.76364 0.2383 0.12393 0.0
C3156 C 0.80912 0.22888 0.08376 0.0
C3157 C 0.79475 0.2289 0.07032 0.0
C3158 C 0.81095 0.23874 0.10153 0.0
C3159 C 0.79817 0.24833 0.10656 0.0
C3160 C 0.78374 0.24824 0.09309 0.0
H3161 H 0.78391 0.31501 0.20704 0.0
H3162 H 0.78094 0.29728 0.17634 0.0
C3163 C 0.78216 0.23884 0.07515 0.0
C3164 C 0.7999 0.25837 0.1258 0.0
H3165 H 0.78171 0.25758 0.16586 0.0
C3166 C 0.81321 0.27432 0.13156 0.0
C3167 C 0.78852 0.25229 0.1385 0.0
C3168 C 0.77439 0.23489 0.13351 0.0
C3169 C 0.81522 0.28441 0.14936 0.0
C3170 C 0.80385 0.27832 0.16212 0.0
C3171 C 0.79052 0.26237 0.1563 0.0
C3172 C 0.80543 0.28844 0.18138 0.0
C3173 C 0.82926 0.30189 0.1542 0.0
C3174 C 0.81998 0.28917 0.19493 0.0
C3175 C 0.82149 0.29896 0.21276 0.0
C3176 C 0.80854 0.3084 0.21754 0.0
C3177 C 0.79395 0.30755 0.20403 0.0
C3178 C 0.7923 0.2975 0.18636 0.0
H3179 H 0.83469 0.30685 0.14177 0.0
H3180 H 0.82422 0.3135 0.16098 0.0
H3181 H 0.8399 0.29876 0.16412 0.0
H3182 H 0.8303 0.28228 0.19168 0.0
H3183 H 0.8331 0.29972 0.22258 0.0
H3184 H 0.15512 0.50509 0.32453 0.0
H3185 H 0.14609 0.52593 0.34758 0.0
H3186 H 0.09836 0.52377 0.31112 0.0
H3187 H 0.10702 0.50266 0.28831 0.0
H3188 H 0.13887 0.56176 0.34158 0.0
H3189 H 0.08243 0.51358 0.36048 0.0
H3190 H 0.09849 0.50512 0.34878 0.0
H3191 H 0.08149 0.51414 0.33588 0.0
C3192 C 0.14244 0.50855 0.32173 0.0
C3193 C 0.13169 0.50219 0.3047 0.0
C3194 C 0.13744 0.52063 0.33478 0.0
C3195 C 0.1216 0.52632 0.33098 0.0
C3196 C 0.11053 0.51927 0.31438 0.0
H3197 H 0.06182 0.59228 0.38366 0.0
H3198 H 0.07772 0.5828 0.35952 0.0
C3199 C 0.11545 0.50713 0.30141 0.0
C3200 C 0.11674 0.54019 0.34394 0.0
H3201 H 0.08461 0.54645 0.36856 0.0
C3202 C 0.12708 0.55846 0.34763 0.0
C3203 C 0.10142 0.53571 0.35178 0.0
C3204 C 0.09041 0.51602 0.34919 0.0
C3205 C 0.12212 0.57259 0.35866 0.0
C3206 C 0.1065 0.56819 0.36595 0.0
C3207 C 0.09639 0.54985 0.3625 0.0
C3208 C 0.10065 0.58163 0.37851 0.0
C3209 C 0.13339 0.59209 0.36229 0.0
C3210 C 0.10888 0.5855 0.39693 0.0
C3211 C 0.09983 0.59096 0.41078 0.0
C3212 C 0.08245 0.59241 0.40627 0.0
C3213 C 0.07519 0.59125 0.38753 0.0
C3214 C 0.08426 0.58583 0.3737 0.0
H3215 H 0.14301 0.59432 0.35256 0.0
H3216 H 0.12539 0.60306 0.36109 0.0
H3217 H 0.14047 0.59399 0.37665 0.0
H3218 H 0.12148 0.58219 0.40089 0.0
H3219 H 0.10577 0.59208 0.42514 0.0
H3220 H 0.815 0.86594 0.57584 0.0
H3221 H 0.81008 0.8478 0.60238 0.0
H3222 H 0.78957 0.89264 0.62761 0.0
H3223 H 0.79482 0.91105 0.60125 0.0
H3224 H 0.82417 0.86047 0.6418 0.0
H3225 H 0.7524 0.84264 0.62871 0.0
H3226 H 0.76527 0.84898 0.6107 0.0
H3227 H 0.76214 0.86696 0.62741 0.0
C3228 C 0.80947 0.87198 0.58705 0.0
C3229 C 0.80547 0.89008 0.58646 0.0
C3230 C 0.80663 0.86155 0.60224 0.0
C3231 C 0.79934 0.86872 0.61704 0.0
C3232 C 0.7951 0.88668 0.61636 0.0
H3233 H 0.78227 0.83624 0.72681 0.0
H3234 H 0.78573 0.85223 0.69865 0.0
C3235 C 0.79823 0.89728 0.60132 0.0
C3236 C 0.79683 0.85779 0.6335 0.0
H3237 H 0.766 0.83532 0.65738 0.0
C3238 C 0.81144 0.8549 0.64512 0.0
C3239 C 0.78023 0.85038 0.6379 0.0
C3240 C 0.76405 0.8522 0.6255 0.0
C3241 C 0.80992 0.84531 0.66115 0.0
C3242 C 0.79336 0.83816 0.66571 0.0
C3243 C 0.77871 0.84083 0.65398 0.0
C3244 C 0.7911 0.82821 0.68279 0.0
C3245 C 0.82605 0.84314 0.6734 0.0
C3246 C 0.79287 0.80928 0.68334 0.0
C3247 C 0.79056 0.79997 0.69936 0.0
C3248 C 0.78684 0.80951 0.71535 0.0
C3249 C 0.78532 0.82853 0.71483 0.0
C3250 C 0.78722 0.83768 0.69869 0.0
H3251 H 0.83797 0.85109 0.66905 0.0
H3252 H 0.8256 0.84818 0.68802 0.0
H3253 H 0.82675 0.82796 0.67293 0.0
H3254 H 0.7959 0.80165 0.67131 0.0
H3255 H 0.79184 0.78535 0.69931 0.0
H3256 H 0.77447 0.46997 0.52747 0.0
H3257 H 0.75286 0.48723 0.53723 0.0
H3258 H 0.75067 0.45695 0.5857 0.0
H3259 H 0.77183 0.43913 0.57557 0.0
H3260 H 0.71724 0.46548 0.54638 0.0
H3261 H 0.75721 0.5181 0.60235 0.0
H3262 H 0.76669 0.50793 0.58389 0.0
H3263 H 0.7596 0.49379 0.60155 0.0
C3264 C 0.7693 0.46694 0.54014 0.0
C3265 C 0.77452 0.45289 0.5505 0.0
C3266 C 0.75705 0.4769 0.5458 0.0
C3267 C 0.75018 0.47352 0.56228 0.0
C3268 C 0.75577 0.45986 0.57296 0.0
H3269 H 0.66579 0.52591 0.59992 0.0
H3270 H 0.68957 0.50831 0.60105 0.0
C3271 C 0.7677 0.44954 0.56705 0.0
C3272 C 0.73615 0.48318 0.56729 0.0
H3273 H 0.72794 0.52022 0.59438 0.0
C3274 C 0.71958 0.47733 0.557 0.0
C3275 C 0.73906 0.49847 0.58137 0.0
C3276 C 0.75658 0.5051 0.59299 0.0
C3277 C 0.70604 0.48664 0.55992 0.0
C3278 C 0.70914 0.50263 0.57319 0.0
C3279 C 0.72553 0.50804 0.58414 0.0
C3280 C 0.69597 0.51482 0.57406 0.0
C3281 C 0.68848 0.47948 0.5485 0.0
C3282 C 0.69188 0.52468 0.55882 0.0
C3283 C 0.67832 0.53447 0.55807 0.0
C3284 C 0.66845 0.53489 0.57263 0.0
C3285 C 0.67306 0.5258 0.58842 0.0
C3286 C 0.68667 0.51577 0.58909 0.0
H3287 H 0.68699 0.46466 0.54238 0.0
H3288 H 0.67807 0.48027 0.55706 0.0
H3289 H 0.68679 0.48843 0.53698 0.0
H3290 H 0.69897 0.52441 0.54717 0.0
H3291 H 0.67544 0.54165 0.54592 0.0
H3292 H 0.24132 0.14862 0.49692 0.0
H3293 H 0.21272 0.12886 0.49714 0.0
H3294 H 0.20174 0.1703 0.53689 0.0
H3295 H 0.22992 0.19043 0.53597 0.0
H3296 H 0.19792 0.11142 0.52261 0.0
H3297 H 0.15872 0.1636 0.50107 0.0
H3298 H 0.1816 0.16737 0.50021 0.0
H3299 H 0.17379 0.17229 0.52172 0.0
C3300 C 0.23272 0.15359 0.50556 0.0
C3301 C 0.23783 0.17124 0.51622 0.0
C3302 C 0.21634 0.14224 0.50573 0.0
C3303 C 0.20469 0.14814 0.51671 0.0
C3304 C 0.21005 0.16559 0.52775 0.0
H3305 H 0.09965 0.09406 0.53551 0.0
H3306 H 0.1289 0.11404 0.53904 0.0
C3307 C 0.22628 0.17708 0.52732 0.0
C3308 C 0.18719 0.13588 0.5169 0.0
H3309 H 0.14376 0.13585 0.51181 0.0
C3310 C 0.18611 0.11682 0.52019 0.0
C3311 C 0.17159 0.14271 0.51372 0.0
C3312 C 0.17143 0.16254 0.50879 0.0
C3313 C 0.1701 0.10461 0.52056 0.0
C3314 C 0.15454 0.11148 0.51753 0.0
C3315 C 0.15561 0.13055 0.5144 0.0
C3316 C 0.13702 0.09886 0.51626 0.0
C3317 C 0.17003 0.08442 0.52438 0.0
C3318 C 0.1317 0.08369 0.50231 0.0
C3319 C 0.11507 0.07238 0.50027 0.0
C3320 C 0.10314 0.07583 0.5121 0.0
C3321 C 0.10848 0.09089 0.52625 0.0
C3322 C 0.12521 0.10236 0.52822 0.0
H3323 H 0.1828 0.08275 0.53145 0.0
H3324 H 0.16002 0.07936 0.53308 0.0
H3325 H 0.16706 0.07527 0.51103 0.0
H3326 H 0.14029 0.08082 0.49263 0.0
H3327 H 0.11148 0.061 0.48914 0.0
H3328 H 0.19755 0.04916 0.80059 0.0
H3329 H 0.20692 0.02609 0.78036 0.0
H3330 H 0.20846 0.98949 0.82431 0.0
H3331 H 0.1985 0.01263 0.84463 0.0
H3332 H 0.23964 0.01748 0.79286 0.0
H3333 H 0.187 0.95364 0.77565 0.0
H3334 H 0.18302 0.97679 0.78231 0.0
H3335 H 0.19146 0.96324 0.7996 0.0
C3336 C 0.19982 0.03611 0.80586 0.0
C3337 C 0.19803 0.0327 0.82419 0.0
C3338 C 0.2049 0.02292 0.79426 0.0
C3339 C 0.2083 0.00624 0.80092 0.0
C3340 C 0.20562 1.00229 0.81897 0.0
H3341 H 0.27224 0.93255 0.79262 0.0
H3342 H 0.25467 0.95589 0.79819 0.0
C3343 C 0.20024 0.01549 0.83059 0.0
C3344 C 0.21739 0.9947 0.79009 0.0
H3345 H 0.21529 0.95022 0.7703 0.0
C3346 C 0.23421 1.00288 0.78751 0.0
C3347 C 0.2101 0.97583 0.78315 0.0
C3348 C 0.19184 0.96683 0.78515 0.0
C3349 C 0.24445 0.99216 0.77916 0.0
C3350 C 0.23752 0.97298 0.77321 0.0
C3351 C 0.22035 0.96509 0.77475 0.0
C3352 C 0.24884 0.96006 0.76923 0.0
C3353 C 0.26295 1.00095 0.77792 0.0
C3354 C 0.25137 0.95506 0.75107 0.0
C3355 C 0.26147 0.9417 0.74782 0.0
C3356 C 0.26875 0.93319 0.76275 0.0
C3357 C 0.2664 0.93864 0.78089 0.0
C3358 C 0.25653 0.952 0.7841 0.0
H3359 H 0.26562 0.01658 0.78088 0.0
H3360 H 0.2717 0.99521 0.78812 0.0
H3361 H 0.26601 0.99725 0.76389 0.0
H3362 H 0.24542 0.96132 0.73953 0.0
H3363 H 0.26329 0.93772 0.73376 0.0
H3364 H 0.36241 0.9784 0.06782 0.0
H3365 H 0.39028 0.99914 0.06604 0.0
H3366 H 0.40063 0.95846 0.02512 0.0
H3367 H 0.37306 0.93748 0.0272 0.0
H3368 H 0.42921 0.98735 0.06469 0.0
H3369 H 0.39445 0.0146 0.00451 0.0
H3370 H 0.38349 1.00449 0.02264 0.0
H3371 H 0.39037 0.98942 0.0058 0.0
C3372 C 0.37083 0.97377 0.05875 0.0
C3373 C 0.36565 0.95648 0.04754 0.0
C3374 C 0.3867 0.98554 0.05781 0.0
C3375 C 0.39733 0.98027 0.04539 0.0
C3376 C 0.39256 0.96261 0.03486 0.0
H3377 H 0.48176 0.03186 0.99366 0.0
H3378 H 0.45452 0.01454 1.00136 0.0
C3379 C 0.37687 0.95069 0.03607 0.0
C3380 C 0.41234 0.994 0.04173 0.0
H3381 H 0.42472 0.02495 0.01077 0.0
C3382 C 0.42829 0.99574 0.05305 0.0
C3383 C 0.41092 0.0048 0.0265 0.0
C3384 C 0.39389 1.00341 0.01415 0.0
C3385 C 0.44312 0.00774 0.04914 0.0
C3386 C 0.44174 0.01838 0.03369 0.0
C3387 C 0.42568 0.01682 0.02261 0.0
C3388 C 0.45701 0.03041 0.02822 0.0
C3389 C 0.46023 0.00839 0.06111 0.0
C3390 C 0.46691 0.04559 0.0404 0.0
C3391 C 0.48249 0.05534 0.0361 0.0
C3392 C 0.48818 0.05027 0.01941 0.0
C3393 C 0.47758 0.03609 0.00656 0.0
C3394 C 0.46211 0.02614 0.011 0.0
H3395 H 0.45971 0.9964 0.06979 0.0
H3396 H 0.47065 0.00811 0.05246 0.0
H3397 H 0.46374 0.0217 0.07054 0.0
H3398 H 0.4629 0.04944 0.0535 0.0
H3399 H 0.49038 0.06641 0.04613 0.0
H3400 H 0.90254 0.647 0.77966 0.0
H3401 H 0.88062 0.66421 0.76856 0.0
H3402 H 0.91285 0.71634 0.7956 0.0
H3403 H 0.93547 0.69897 0.80652 0.0
H3404 H 0.86527 0.68334 0.79366 0.0
H3405 H 0.89367 0.72986 0.74361 0.0
H3406 H 0.90208 0.7095 0.75039 0.0
H3407 H 0.90675 0.73087 0.76584 0.0
C3408 C 0.90508 0.66217 0.78319 0.0
C3409 C 0.9205 0.6717 0.79425 0.0
C3410 C 0.89259 0.67196 0.77669 0.0
C3411 C 0.89517 0.69144 0.78127 0.0
C3412 C 0.91081 0.70126 0.79176 0.0
H3413 H 0.83289 0.77189 0.77907 0.0
H3414 H 0.85444 0.75231 0.78222 0.0
C3415 C 0.92359 0.6914 0.7981 0.0
C3416 C 0.88052 0.7007 0.77669 0.0
H3417 H 0.8666 0.73406 0.7516 0.0
C3418 C 0.86546 0.69433 0.78433 0.0
C3419 C 0.88093 0.71485 0.76442 0.0
C3420 C 0.89666 0.72163 0.75544 0.0
C3421 C 0.85085 0.70219 0.78046 0.0
C3422 C 0.85137 0.71662 0.76853 0.0
C3423 C 0.86629 0.72274 0.76055 0.0
C3424 C 0.8377 0.7276 0.76658 0.0
C3425 C 0.83527 0.69567 0.78978 0.0
C3426 C 0.821 0.71986 0.75712 0.0
C3427 C 0.80847 0.73107 0.75542 0.0
C3428 C 0.81282 0.74997 0.76303 0.0
C3429 C 0.82936 0.75733 0.77294 0.0
C3430 C 0.84169 0.74626 0.77468 0.0
H3431 H 0.83772 0.68571 0.8002 0.0
H3432 H 0.83137 0.70798 0.79677 0.0
H3433 H 0.82426 0.68844 0.77915 0.0
H3434 H 0.81783 0.70538 0.75082 0.0
H3435 H 0.79577 0.72529 0.74764 0.0
H3436 H 0.84702 0.70622 0.04518 0.0
H3437 H 0.8717 0.69173 0.05527 0.0
H3438 H 0.84729 0.6408 0.02003 0.0
H3439 H 0.82243 0.65505 0.01012 0.0
H3440 H 0.87007 0.65328 0.07159 0.0
H3441 H 0.89794 0.6599 0.00602 0.0
H3442 H 0.88359 0.67464 0.01321 0.0
H3443 H 0.87503 0.6507 0.0034 0.0
C3444 C 0.84698 0.69198 0.03946 0.0
C3445 C 0.83286 0.6818 0.0267 0.0
C3446 C 0.86102 0.6837 0.04536 0.0
C3447 C 0.8613 0.66523 0.03837 0.0
C3448 C 0.8473 0.65509 0.02555 0.0
H3449 H 0.9234 0.58256 0.04137 0.0
H3450 H 0.90037 0.60073 0.04023 0.0
C3451 C 0.83314 0.66325 0.01986 0.0
C3452 C 0.87633 0.65653 0.04408 0.0
H3453 H 0.90921 0.64029 0.02698 0.0
C3454 C 0.87878 0.65061 0.06196 0.0
C3455 C 0.88773 0.65325 0.03153 0.0
C3456 C 0.88611 0.66006 0.0125 0.0
C3457 C 0.89193 0.64068 0.06725 0.0
C3458 C 0.90282 0.63674 0.05436 0.0
C3459 C 0.90074 0.64327 0.03678 0.0
C3460 C 0.91578 0.62479 0.05811 0.0
C3461 C 0.89377 0.63382 0.08624 0.0
C3462 C 0.93197 0.63219 0.06887 0.0
C3463 C 0.94521 0.62186 0.06938 0.0
C3464 C 0.94227 0.60399 0.05929 0.0
C3465 C 0.92582 0.59624 0.0494 0.0
C3466 C 0.91271 0.60659 0.04874 0.0
H3467 H 0.88365 0.63711 0.09431 0.0
H3468 H 0.89302 0.6183 0.08494 0.0
H3469 H 0.90666 0.64053 0.09408 0.0
H3470 H 0.9346 0.64629 0.07606 0.0
H3471 H 0.95788 0.62808 0.07699 0.0
H3472 H 0.17879 0.13938 0.8229 0.0
H3473 H 0.19491 0.16866 0.8139 0.0
H3474 H 0.24183 0.15873 0.84479 0.0
H3475 H 0.22591 0.12936 0.85374 0.0
H3476 H 0.21847 0.20139 0.83699 0.0
H3477 H 0.2495 0.16036 0.78879 0.0
H3478 H 0.22988 0.15029 0.79737 0.0
H3479 H 0.25046 0.15309 0.81182 0.0
C3480 C 0.19246 0.14367 0.82812 0.0
C3481 C 0.20121 0.13215 0.83888 0.0
C3482 C 0.20159 0.16028 0.82292 0.0
C3483 C 0.21945 0.16541 0.82848 0.0
C3484 C 0.22801 0.15463 0.84023 0.0
H3485 H 0.30617 0.2492 0.82363 0.0
H3486 H 0.2833 0.22429 0.8308 0.0
C3487 C 0.21893 0.13802 0.8454 0.0
C3488 C 0.22946 0.18155 0.82137 0.0
H3489 H 0.26199 0.19314 0.79596 0.0
C3490 C 0.22782 0.1997 0.8278 0.0
C3491 C 0.24136 0.17898 0.8092 0.0
C3492 C 0.24284 0.15963 0.80123 0.0
C3493 C 0.23872 0.2156 0.82319 0.0
C3494 C 0.25127 0.21293 0.81194 0.0
C3495 C 0.25231 0.19485 0.80474 0.0
C3496 C 0.26427 0.22867 0.80841 0.0
C3497 C 0.23734 0.23507 0.83085 0.0
C3498 C 0.26085 0.23892 0.79339 0.0
C3499 C 0.27387 0.25284 0.7891 0.0
C3500 C 0.29026 0.25668 0.79998 0.0
C3501 C 0.29356 0.24647 0.81514 0.0
C3502 C 0.28059 0.23241 0.81929 0.0
H3503 H 0.22675 0.23466 0.83937 0.0
H3504 H 0.24973 0.24212 0.83953 0.0
H3505 H 0.235 0.24378 0.81926 0.0
H3506 H 0.24826 0.23588 0.78483 0.0
H3507 H 0.27115 0.26046 0.77721 0.0
H3508 H 0.42048 0.08376 0.32972 0.0
H3509 H 0.40155 0.05261 0.32626 0.0
H3510 H 0.42023 0.03842 0.27531 0.0
H3511 H 0.4396 0.06963 0.27897 0.0
H3512 H 0.37745 0.04706 0.29081 0.0
H3513 H 0.41244 0.98849 0.30401 0.0
H3514 H 0.42031 0.0122 0.31529 0.0
H3515 H 0.42201 0.00717 0.29132 0.0
C3516 C 0.42091 0.07373 0.31812 0.0
C3517 C 0.43109 0.07891 0.30442 0.0
C3518 C 0.41024 0.05601 0.31623 0.0
C3519 C 0.40957 0.04348 0.30053 0.0
C3520 C 0.42084 0.04799 0.28761 0.0
H3521 H 0.33666 0.94042 0.26216 0.0
H3522 H 0.3557 0.97075 0.26026 0.0
C3523 C 0.43177 0.06572 0.28965 0.0
C3524 C 0.39474 0.02782 0.29588 0.0
H3525 H 0.38244 0.98007 0.2931 0.0
C3526 C 0.37848 0.03236 0.29117 0.0
C3527 C 0.39639 0.00889 0.29649 0.0
C3528 C 0.41368 1.00374 0.30213 0.0
C3529 C 0.36356 0.01826 0.28717 0.0
C3530 C 0.36514 0.99931 0.28783 0.0
C3531 C 0.38146 0.99473 0.29231 0.0
C3532 C 0.34994 0.98398 0.28554 0.0
C3533 C 0.34624 0.02366 0.28248 0.0
C3534 C 0.33965 0.98214 0.29967 0.0
C3535 C 0.32872 0.96496 0.30069 0.0
C3536 C 0.32833 0.94955 0.28776 0.0
C3537 C 0.33686 0.95222 0.27226 0.0
C3538 C 0.34779 0.96941 0.27124 0.0
H3539 H 0.3476 0.03842 0.2788 0.0
H3540 H 0.33819 0.01397 0.27075 0.0
H3541 H 0.33931 0.02244 0.29467 0.0
H3542 H 0.34137 0.99327 0.31091 0.0
H3543 H 0.32236 0.9631 0.31284 0.0
H3544 H 0.56591 0.38947 0.64218 0.0
H3545 H 0.56448 0.4192 0.6288 0.0
H3546 H 0.57949 0.3968 0.57853 0.0
H3547 H 0.58031 0.36672 0.59166 0.0
H3548 H 0.58734 0.44559 0.61697 0.0
H3549 H 0.53737 0.41438 0.55686 0.0
H3550 H 0.54306 0.40106 0.5758 0.0
H3551 H 0.55643 0.40451 0.55782 0.0
C3552 C 0.56885 0.39082 0.62823 0.0
C3553 C 0.57304 0.37556 0.61794 0.0
C3554 C 0.56807 0.40791 0.62059 0.0
C3555 C 0.5715 0.41032 0.60243 0.0
C3556 C 0.57623 0.39527 0.59232 0.0
H3557 H 0.57721 0.51015 0.53971 0.0
H3558 H 0.58071 0.47996 0.55155 0.0
C3559 C 0.57682 0.37805 0.5999 0.0
C3560 C 0.57001 0.42851 0.59421 0.0
H3561 H 0.5498 0.44687 0.55745 0.0
C3562 C 0.57908 0.44579 0.60397 0.0
C3563 C 0.55923 0.42903 0.57721 0.0
C3564 C 0.54834 0.41128 0.56639 0.0
C3565 C 0.57772 0.46331 0.59723 0.0
C3566 C 0.56696 0.46374 0.5803 0.0
C3567 C 0.55807 0.44656 0.57041 0.0
C3568 C 0.56452 0.48191 0.57283 0.0
C3569 C 0.58788 0.48134 0.60818 0.0
C3570 C 0.55395 0.49292 0.58055 0.0
C3571 C 0.55154 0.5099 0.57344 0.0
C3572 C 0.55992 0.51645 0.5587 0.0
C3573 C 0.57051 0.50543 0.55101 0.0
C3574 C 0.57258 0.48821 0.55781 0.0
H3575 H 0.59736 0.47863 0.61973 0.0
H3576 H 0.59487 0.49052 0.59895 0.0
H3577 H 0.57884 0.48921 0.61409 0.0
H3578 H 0.5476 0.48838 0.59213 0.0
H3579 H 0.54357 0.51824 0.5799 0.0
H3580 H 0.48931 0.8287 0.37232 0.0
H3581 H 0.46122 0.83517 0.35964 0.0
H3582 H 0.43553 0.78635 0.38274 0.0
H3583 H 0.46361 0.78048 0.39622 0.0
H3584 H 0.43682 0.81774 0.33488 0.0
H3585 H 0.40705 0.82154 0.39856 0.0
H3586 H 0.42963 0.82092 0.39926 0.0
H3587 H 0.41349 0.79932 0.39525 0.0
C3588 C 0.47767 0.81931 0.37469 0.0
C3589 C 0.4788 0.80392 0.38515 0.0
C3590 C 0.46152 0.82308 0.36747 0.0
C3591 C 0.44596 0.8115 0.37036 0.0
C3592 C 0.44713 0.79598 0.38068 0.0
H3593 H 0.34084 0.78505 0.31767 0.0
H3594 H 0.36937 0.78813 0.33605 0.0
C3595 C 0.46328 0.79241 0.38818 0.0
C3596 C 0.42867 0.81499 0.36167 0.0
H3597 H 0.38733 0.81601 0.3697 0.0
C3598 C 0.42615 0.81768 0.34267 0.0
C3599 C 0.41452 0.81521 0.37163 0.0
C3600 C 0.41637 0.81431 0.39234 0.0
C3601 C 0.40995 0.81954 0.33332 0.0
C3602 C 0.39565 0.81864 0.34305 0.0
C3603 C 0.39821 0.8166 0.36214 0.0
C3604 C 0.37767 0.81781 0.33324 0.0
C3605 C 0.408 0.82168 0.31283 0.0
C3606 C 0.37245 0.83364 0.32585 0.0
C3607 C 0.35581 0.83199 0.31555 0.0
C3608 C 0.34426 0.81439 0.31216 0.0
C3609 C 0.34942 0.7988 0.31998 0.0
C3610 C 0.36577 0.80053 0.33052 0.0
H3611 H 0.41995 0.82057 0.30689 0.0
H3612 H 0.39715 0.8107 0.30527 0.0
H3613 H 0.40487 0.83568 0.31044 0.0
H3614 H 0.38135 0.84717 0.32777 0.0
H3615 H 0.35231 0.84421 0.30955 0.0
H3616 H 0.07987 0.75856 0.14168 0.0
H3617 H 0.07389 0.72519 0.12987 0.0
H3618 H 0.04358 0.73734 0.08051 0.0
H3619 H 0.04982 0.77099 0.09214 0.0
H3620 H 0.04378 0.69764 0.11864 0.0
H3621 H 0.08039 0.71324 0.0601 0.0
H3622 H 0.08109 0.73062 0.0793 0.0
H3623 H 0.06285 0.72542 0.06106 0.0
C3624 C 0.072 0.75419 0.12824 0.0
C3625 C 0.06568 0.76754 0.11762 0.0
C3626 C 0.06846 0.73505 0.1216 0.0
C3627 C 0.05853 0.72878 0.10418 0.0
C3628 C 0.0516 0.74193 0.09383 0.0
H3629 H 0.03099 0.6207 0.03786 0.0
H3630 H 0.03238 0.65249 0.05256 0.0
C3631 C 0.05521 0.76116 0.10045 0.0
C3632 C 0.05653 0.70879 0.09639 0.0
H3633 H 0.06649 0.68159 0.06078 0.0
C3634 C 0.04875 0.69412 0.106 0.0
C3635 C 0.06317 0.70417 0.07999 0.0
C3636 C 0.07249 0.71915 0.06957 0.0
C3637 C 0.04725 0.67501 0.09942 0.0
C3638 C 0.05381 0.67056 0.08297 0.0
C3639 C 0.06151 0.68514 0.07341 0.0
C3640 C 0.05248 0.65087 0.07499 0.0
C3641 C 0.03847 0.65966 0.10982 0.0
C3642 C 0.06361 0.63959 0.08258 0.0
C3643 C 0.06313 0.62151 0.07395 0.0
C3644 C 0.05136 0.61446 0.05775 0.0
C3645 C 0.04024 0.62582 0.05028 0.0
C3646 C 0.04091 0.6439 0.05873 0.0
H3647 H 0.03254 0.66542 0.12134 0.0
H3648 H 0.02828 0.6496 0.10019 0.0
H3649 H 0.04807 0.65158 0.11568 0.0
H3650 H 0.07275 0.64485 0.09505 0.0
H3651 H 0.07161 0.61289 0.08017 0.0
H3652 H 0.06557 0.30922 0.86418 0.0
H3653 H 0.09405 0.31516 0.85368 0.0
H3654 H 0.1189 0.31614 0.90992 0.0
H3655 H 0.09069 0.31026 0.92044 0.0
H3656 H 0.1245 0.34615 0.86602 0.0
H3657 H 0.13793 0.27564 0.88032 0.0
H3658 H 0.11645 0.28063 0.87866 0.0
H3659 H 0.13191 0.28909 0.89916 0.0
C3660 C 0.0771 0.31061 0.87427 0.0
C3661 C 0.07577 0.30901 0.89311 0.0
C3662 C 0.0934 0.31411 0.86828 0.0
C3663 C 0.10869 0.31588 0.88095 0.0
C3664 C 0.10736 0.31458 0.89979 0.0
H3665 H 0.21612 0.31856 0.86198 0.0
H3666 H 0.19061 0.32003 0.87706 0.0
C3667 C 0.09115 0.31121 0.90579 0.0
C3668 C 0.12599 0.31863 0.87449 0.0
H3669 H 0.15996 0.29685 0.86987 0.0
C3670 C 0.13224 0.33536 0.86682 0.0
C3671 C 0.13634 0.30476 0.87586 0.0
C3672 C 0.13034 0.28644 0.88382 0.0
C3673 C 0.1484 0.33849 0.86039 0.0
C3674 C 0.15846 0.32427 0.86106 0.0
C3675 C 0.15236 0.30777 0.8692 0.0
C3676 C 0.17474 0.32556 0.85247 0.0
C3677 C 0.15467 0.35721 0.85328 0.0
C3678 C 0.1746 0.32836 0.83363 0.0
C3679 C 0.18919 0.32753 0.82496 0.0
C3680 C 0.20437 0.32364 0.83479 0.0
C3681 C 0.20466 0.32133 0.85382 0.0
C3682 C 0.19005 0.32225 0.86251 0.0
H3683 H 0.14889 0.36852 0.85952 0.0
H3684 H 0.16897 0.36155 0.85632 0.0
H3685 H 0.15071 0.35598 0.83803 0.0
H3686 H 0.16293 0.33042 0.82532 0.0
H3687 H 0.18822 0.32907 0.81026 0.0
H3688 H 0.50912 0.74812 0.95044 0.0
H3689 H 0.50997 0.7168 0.96129 0.0
H3690 H 0.54579 0.70807 0.92388 0.0
H3691 H 0.5449 0.73905 0.91296 0.0
H3692 H 0.50368 0.67754 0.94081 0.0
H3693 H 0.57117 0.702 0.97643 0.0
H3694 H 0.55738 0.71821 0.96971 0.0
H3695 H 0.56725 0.70676 0.95261 0.0
C3696 C 0.51721 0.73956 0.94455 0.0
C3697 C 0.52719 0.74648 0.93102 0.0
C3698 C 0.51761 0.72152 0.9507 0.0
C3699 C 0.52816 0.70993 0.94369 0.0
C3700 C 0.53772 0.71664 0.92982 0.0
H3701 H 0.55468 0.59968 0.96788 0.0
H3702 H 0.55055 0.62862 0.95368 0.0
C3703 C 0.5372 0.7345 0.92356 0.0
C3704 C 0.52993 0.69134 0.95134 0.0
H3705 H 0.5592 0.66945 0.97563 0.0
C3706 C 0.51581 0.67587 0.9485 0.0
C3707 C 0.54574 0.68878 0.96131 0.0
C3708 C 0.56126 0.70481 0.96538 0.0
C3709 C 0.51717 0.65817 0.95515 0.0
C3710 C 0.53297 0.65571 0.9652 0.0
C3711 C 0.54707 0.67112 0.96795 0.0
C3712 C 0.53497 0.63748 0.97342 0.0
C3713 C 0.50179 0.64199 0.95114 0.0
C3714 C 0.52773 0.63258 0.98939 0.0
C3715 C 0.5304 0.61621 0.99778 0.0
C3716 C 0.5401 0.60391 0.99028 0.0
C3717 C 0.54702 0.6086 0.97403 0.0
C3718 C 0.54469 0.62525 0.96589 0.0
H3719 H 0.49127 0.64515 0.94104 0.0
H3720 H 0.50573 0.62904 0.94557 0.0
H3721 H 0.49667 0.63894 0.96423 0.0
H3722 H 0.52025 0.64165 0.99563 0.0
H3723 H 0.52481 0.61317 0.01021 0.0
H3724 H 0.13039 0.81001 0.65682 0.0
H3725 H 0.1595 0.81211 0.67339 0.0
H3726 H 0.14957 0.8513 0.71604 0.0
H3727 H 0.12011 0.84876 0.69979 0.0
H3728 H 0.18747 0.84068 0.68479 0.0
H3729 H 0.1623 0.80973 0.74554 0.0
H3730 H 0.14848 0.81028 0.72405 0.0
H3731 H 0.1554 0.83116 0.74025 0.0
C3732 C 0.13439 0.81908 0.66974 0.0
C3733 C 0.12285 0.82892 0.67722 0.0
C3734 C 0.15107 0.82035 0.67913 0.0
C3735 C 0.15658 0.83154 0.69614 0.0
C3736 C 0.14541 0.84217 0.70318 0.0
H3737 H 0.25317 0.84804 0.7718 0.0
H3738 H 0.22503 0.85074 0.75524 0.0
C3739 C 0.1286 0.84073 0.69389 0.0
C3740 C 0.17364 0.83114 0.70688 0.0
H3741 H 0.19255 0.81887 0.74769 0.0
C3742 C 0.18859 0.83594 0.69855 0.0
C3743 C 0.17506 0.82483 0.7248 0.0
C3744 C 0.15946 0.81853 0.73415 0.0
C3745 C 0.20489 0.8346 0.70771 0.0
C3746 C 0.20618 0.82823 0.72554 0.0
C3747 C 0.19138 0.82372 0.73398 0.0
C3748 C 0.22282 0.82613 0.73576 0.0
C3749 C 0.22066 0.84 0.69839 0.0
C3750 C 0.23046 0.811 0.73059 0.0
C3751 C 0.24627 0.80915 0.74033 0.0
C3752 C 0.2547 0.82259 0.75512 0.0
C3753 C 0.24682 0.83746 0.7605 0.0
C3754 C 0.23088 0.8391 0.751 0.0
H3755 H 0.21786 0.8472 0.68576 0.0
H3756 H 0.2312 0.84946 0.70815 0.0
H3757 H 0.22543 0.82708 0.69432 0.0
H3758 H 0.22428 0.8008 0.71892 0.0
H3759 H 0.2523 0.79778 0.73572 0.0
H3760 H 0.05635 0.36924 0.42644 0.0
H3761 H 0.05654 0.40213 0.43752 0.0
H3762 H 1.00538 0.38497 0.45143 0.0
H3763 H 1.00554 0.35206 0.44123 0.0
H3764 H 0.03984 0.42842 0.42912 0.0
H3765 H 0.02592 0.41352 0.49927 0.0
H3766 H 0.03047 0.3957 0.48323 0.0
H3767 H 0.00912 0.40096 0.48153 0.0
C3768 C 0.04523 0.3724 0.43215 0.0
C3769 C 0.03115 0.35766 0.43339 0.0
C3770 C 0.04528 0.39139 0.43842 0.0
C3771 C 0.03122 0.39645 0.44608 0.0
C3772 C 0.01682 0.38178 0.4465 0.0
H3773 H 0.01187 0.50497 0.49569 0.0
H3774 H 0.00854 0.47309 0.47967 0.0
C3775 C 0.01687 0.36278 0.4405 0.0
C3776 C 0.03168 0.41685 0.45357 0.0
H3777 H 0.02525 0.44452 0.49138 0.0
C3778 C 0.03672 0.4318 0.4428 0.0
C3779 C 0.0276 0.42184 0.47145 0.0
C3780 C 0.02315 0.40719 0.48461 0.0
C3781 C 0.03764 0.45105 0.44919 0.0
C3782 C 0.03359 0.45593 0.46704 0.0
C3783 C 0.02833 0.44105 0.4777 0.0
C3784 C 0.0352 0.47627 0.47516 0.0
C3785 C 0.04267 0.46605 0.43658 0.0
C3786 C 0.0512 0.48918 0.478 0.0
C3787 C 0.05306 0.50752 0.48711 0.0
C3788 C 0.03895 0.51373 0.49347 0.0
C3789 C 0.02287 0.501 0.49036 0.0
C3790 C 0.02102 0.48259 0.48137 0.0
H3791 H 0.04096 0.46003 0.42187 0.0
H3792 H 0.03491 0.4772 0.43758 0.0
H3793 H 0.0565 0.4728 0.44081 0.0
H3794 H 0.06254 0.48479 0.47393 0.0
H3795 H 0.06579 0.51658 0.48995 0.0
H3796 H 0.54358 0.34171 0.20055 0.0
H3797 H 0.51851 0.34007 0.21711 0.0
H3798 H 0.48975 0.29449 0.17725 0.0
H3799 H 0.51459 0.29624 0.16052 0.0
H3800 H 0.48324 0.34351 0.2001 0.0
H3801 H 0.48482 0.27539 0.22988 0.0
H3802 H 0.50357 0.28954 0.2227 0.0
H3803 H 0.48684 0.27551 0.20566 0.0
C3804 C 0.53194 0.33127 0.19539 0.0
C3805 C 0.53107 0.3191 0.17921 0.0
C3806 C 0.51763 0.33036 0.20485 0.0
C3807 C 0.50231 0.31701 0.19854 0.0
C3808 C 0.50149 0.30474 0.18251 0.0
H3809 H 0.39913 0.2883 0.22798 0.0
H3810 H 0.42646 0.2888 0.21603 0.0
C3811 C 0.51568 0.30582 0.17291 0.0
C3812 C 0.48687 0.31642 0.20813 0.0
H3813 H 0.45998 0.28848 0.23232 0.0
C3814 C 0.47823 0.33157 0.20729 0.0
C3815 C 0.48028 0.30077 0.21739 0.0
C3816 C 0.48938 0.28439 0.21915 0.0
C3817 C 0.46293 0.33127 0.21502 0.0
C3818 C 0.45627 0.31559 0.22429 0.0
C3819 C 0.46504 0.3005 0.22527 0.0
C3820 C 0.44005 0.31453 0.23269 0.0
C3821 C 0.45369 0.34748 0.21258 0.0
C3822 C 0.43865 0.32848 0.24649 0.0
C3823 C 0.42296 0.32839 0.25319 0.0
C3824 C 0.40825 0.31421 0.24642 0.0
C3825 C 0.40998 0.2997 0.23326 0.0
C3826 C 0.42568 0.29986 0.2265 0.0
H3827 H 0.45785 0.35573 0.20117 0.0
H3828 H 0.43946 0.34232 0.20958 0.0
H3829 H 0.45668 0.35719 0.22557 0.0
H3830 H 0.44964 0.33971 0.25183 0.0
H3831 H 0.42225 0.33988 0.26321 0.0
H3832 H 0.66672 0.60592 0.39372 0.0
H3833 H 0.65051 0.60786 0.42002 0.0
H3834 H 0.62134 0.55132 0.40237 0.0
H3835 H 0.6371 0.54956 0.37595 0.0
H3836 H 0.60884 0.59687 0.41542 0.0
H3837 H 0.64822 0.55678 0.45975 0.0
H3838 H 0.65645 0.5701 0.44176 0.0
H3839 H 0.64229 0.54742 0.43576 0.0
C3840 C 0.65692 0.59395 0.39572 0.0
C3841 C 0.65306 0.57751 0.38334 0.0
C3842 C 0.6477 0.59512 0.41046 0.0
C3843 C 0.63501 0.57967 0.41286 0.0
C3844 C 0.6312 0.56328 0.40047 0.0
H3845 H 0.56226 0.53905 0.48304 0.0
H3846 H 0.58024 0.54367 0.45813 0.0
C3847 C 0.64014 0.56226 0.38559 0.0
C3848 C 0.62569 0.58013 0.4285 0.0
H3849 H 0.62054 0.55892 0.46782 0.0
C3850 C 0.61145 0.58889 0.4271 0.0
C3851 C 0.62942 0.56964 0.44344 0.0
C3852 C 0.64502 0.56054 0.44542 0.0
C3853 C 0.60015 0.58661 0.44015 0.0
C3854 C 0.60342 0.5753 0.45457 0.0
C3855 C 0.61806 0.56721 0.45635 0.0
C3856 C 0.59227 0.57252 0.46867 0.0
C3857 C 0.58464 0.59584 0.43829 0.0
C3858 C 0.59364 0.58716 0.48256 0.0
C3859 C 0.58378 0.58451 0.49666 0.0
C3860 C 0.57234 0.56721 0.49693 0.0
C3861 C 0.57098 0.55247 0.48297 0.0
C3862 C 0.5811 0.5551 0.46886 0.0
H3863 H 0.58268 0.6019 0.42483 0.0
H3864 H 0.57278 0.58546 0.43961 0.0
H3865 H 0.58646 0.60741 0.44965 0.0
H3866 H 0.60244 0.60056 0.48256 0.0
H3867 H 0.58505 0.59617 0.50722 0.0
H3868 H 0.33144 0.88277 0.08936 0.0
H3869 H 0.33173 0.87296 0.12102 0.0
H3870 H 0.304 0.91622 0.13526 0.0
H3871 H 0.30411 0.92638 0.10401 0.0
H3872 H 0.34352 0.89896 0.15978 0.0
H3873 H 0.27466 0.86154 0.14421 0.0
H3874 H 0.28779 0.86656 0.12615 0.0
H3875 H 0.2799 0.88519 0.13763 0.0
C3876 C 0.32538 0.89014 0.09924 0.0
C3877 C 0.31759 0.90522 0.09406 0.0
C3878 C 0.32567 0.88462 0.11738 0.0
C3879 C 0.31782 0.89378 0.13057 0.0
C3880 C 0.31015 0.90891 0.12541 0.0
H3881 H 0.29794 0.87331 0.24369 0.0
H3882 H 0.30121 0.88733 0.21441 0.0
C3883 C 0.3102 0.91467 0.10749 0.0
C3884 C 0.3168 0.88699 0.14936 0.0
H3885 H 0.28865 0.86253 0.17489 0.0
C3886 C 0.33155 0.89093 0.16304 0.0
C3887 C 0.30114 0.87675 0.15382 0.0
C3888 C 0.28493 0.8721 0.13972 0.0
C3889 C 0.33098 0.88479 0.18092 0.0
C3890 C 0.31539 0.87421 0.18517 0.0
C3891 C 0.30063 0.87055 0.17161 0.0
C3892 C 0.31425 0.86634 0.20342 0.0
C3893 C 0.34696 0.88975 0.19532 0.0
C3894 C 0.32038 0.84981 0.20699 0.0
C3895 C 0.31819 0.84156 0.22354 0.0
C3896 C 0.31017 0.8499 0.23707 0.0
C3897 C 0.30438 0.86669 0.23366 0.0
C3898 C 0.3062 0.87469 0.21691 0.0
H3899 H 0.35746 0.89992 0.1907 0.0
H3900 H 0.3438 0.89596 0.20848 0.0
H3901 H 0.35175 0.87671 0.1983 0.0
H3902 H 0.32656 0.84307 0.19678 0.0
H3903 H 0.3228 0.82865 0.22577 0.0
H3904 H 1.00263 0.63114 0.85207 0.0
H3905 H 0.01196 0.61471 0.87859 0.0
H3906 H 0.96032 0.6053 0.89255 0.0
H3907 H 0.95094 0.62179 0.86634 0.0
H3908 H 1.00778 0.62761 0.91609 0.0
H3909 H 0.97506 0.55262 0.89493 0.0
H3910 H 0.97871 0.56967 0.87829 0.0
H3911 H 0.96196 0.5702 0.89235 0.0
C3912 C 0.99335 0.62577 0.86093 0.0
C3913 C 0.97622 0.62822 0.85745 0.0
C3914 C 0.9986 0.61616 0.87586 0.0
C3915 C 0.98672 0.60858 0.88726 0.0
C3916 C 0.96958 0.6108 0.88371 0.0
H3917 H 1.00611 0.55891 0.99215 0.0
H3918 H 0.99111 0.56833 0.96376 0.0
C3919 C 0.96437 0.62058 0.86895 0.0
C3920 C 0.99281 0.60048 0.9042 0.0
H3921 H 0.99085 0.55978 0.9253 0.0
C3922 C 1.00411 0.61278 0.9181 0.0
C3923 C 0.98756 0.58122 0.90687 0.0
C3924 C 0.97522 0.56756 0.89231 0.0
C3925 C 0.01065 0.60633 0.93456 0.0
C3926 C 1.00619 0.58689 0.93692 0.0
C3927 C 0.99436 0.57462 0.9233 0.0
C3928 C 0.01467 0.57917 0.95297 0.0
C3929 C 0.02227 0.62048 0.9493 0.0
C3930 C 0.03273 0.58159 0.9559 0.0
C3931 C 0.04122 0.57687 0.97222 0.0
C3932 C 0.03177 0.56902 0.98561 0.0
C3933 C 0.01362 0.56522 0.9821 0.0
C3934 C 1.00508 0.57046 0.9659 0.0
H3935 H 0.01996 0.635 0.94794 0.0
H3936 H 0.02032 0.61677 0.96344 0.0
H3937 H 0.03596 0.62066 0.94773 0.0
H3938 H 0.04031 0.58777 0.94581 0.0
H3939 H 0.05522 0.57953 0.97444 0.0
H3940 H 0.31302 0.21039 0.58266 0.0
H3941 H 0.31685 0.22207 0.61567 0.0
H3942 H 0.28632 0.26366 0.60225 0.0
H3943 H 0.28277 0.25234 0.56913 0.0
H3944 H 0.32881 0.26478 0.63475 0.0
H3945 H 0.26291 0.2257 0.64056 0.0
H3946 H 0.27518 0.21877 0.62308 0.0
H3947 H 0.26501 0.23869 0.6206 0.0
C3948 C 0.30726 0.22217 0.58672 0.0
C3949 C 0.29748 0.23038 0.57326 0.0
C3950 C 0.30952 0.22885 0.60559 0.0
C3951 C 0.30179 0.24367 0.61145 0.0
C3952 C 0.2924 0.25222 0.59802 0.0
H3953 H 0.2801 0.2939 0.71512 0.0
H3954 H 0.28093 0.28262 0.68271 0.0
C3955 C 0.2904 0.24576 0.5791 0.0
C3956 C 0.30252 0.24948 0.63161 0.0
H3957 H 0.27746 0.247 0.66621 0.0
C3958 C 0.31763 0.26087 0.64169 0.0
C3959 C 0.28803 0.24413 0.64072 0.0
C3960 C 0.27185 0.23103 0.63082 0.0
C3961 C 0.31836 0.26771 0.66044 0.0
C3962 C 0.30359 0.26285 0.66938 0.0
C3963 C 0.28868 0.25101 0.65936 0.0
C3964 C 0.30321 0.26985 0.68907 0.0
C3965 C 0.33476 0.28053 0.67027 0.0
C3966 C 0.31522 0.26618 0.70352 0.0
C3967 C 0.31488 0.27284 0.7219 0.0
C3968 C 0.30227 0.28291 0.7264 0.0
C3969 C 0.28989 0.28609 0.71208 0.0
C3970 C 0.29042 0.2797 0.69357 0.0
H3971 H 0.34307 0.28679 0.66033 0.0
H3972 H 0.33184 0.29216 0.67932 0.0
H3973 H 0.34229 0.27224 0.67912 0.0
H3974 H 0.32482 0.25807 0.70062 0.0
H3975 H 0.32447 0.26992 0.73267 0.0
H3976 H 0.66952 0.59594 0.27613 0.0
H3977 H 0.65575 0.59083 0.24356 0.0
H3978 H 0.62395 0.53872 0.2545 0.0
H3979 H 0.63702 0.54429 0.2871 0.0
H3980 H 0.65526 0.56133 0.2181 0.0
H3981 H 0.5885 0.56529 0.22945 0.0
H3982 H 0.607 0.57329 0.24723 0.0
H3983 H 0.59733 0.54855 0.24267 0.0
C3984 C 0.65946 0.58353 0.27148 0.0
C3985 C 0.65402 0.57059 0.28386 0.0
C3986 C 0.65166 0.58063 0.25303 0.0
C3987 C 0.63864 0.56461 0.24689 0.0
C3988 C 0.63358 0.55146 0.25921 0.0
H3989 H 0.57736 0.52538 0.13823 0.0
H3990 H 0.59232 0.52496 0.17001 0.0
C3991 C 0.64106 0.55459 0.27771 0.0
C3992 C 0.63069 0.56121 0.22741 0.0
H3993 H 0.59196 0.55369 0.1992 0.0
C3994 C 0.64143 0.55965 0.21392 0.0
C3995 C 0.61266 0.55909 0.22219 0.0
C3996 C 0.60072 0.56183 0.23613 0.0
C3997 C 0.63454 0.55588 0.19515 0.0
C3998 C 0.61651 0.55364 0.18995 0.0
C3999 C 0.60575 0.555 0.20344 0.0
C4000 C 0.60884 0.55249 0.1705 0.0
C4001 C 0.64657 0.55453 0.18103 0.0
C4002 C 0.61333 0.56807 0.16066 0.0
C4003 C 0.60512 0.56817 0.14278 0.0
C4004 C 0.59212 0.55286 0.13466 0.0
C4005 C 0.58757 0.53716 0.14437 0.0
C4006 C 0.59601 0.53695 0.16234 0.0
H4007 H 0.65902 0.55132 0.18737 0.0
H4008 H 0.64053 0.54349 0.16945 0.0
H4009 H 0.64949 0.56828 0.17517 0.0
H4010 H 0.62277 0.58042 0.16704 0.0
H4011 H 0.60841 0.58058 0.13554 0.0
H4012 H 0.32154 0.92964 0.97454 0.0
H4013 H 0.32231 0.91754 0.94246 0.0
H4014 H 0.30563 0.86071 0.95584 0.0
H4015 H 0.30471 0.87281 0.98794 0.0
H4016 H 0.33982 0.89375 0.92504 0.0
H4017 H 0.27022 0.86094 0.91121 0.0
H4018 H 0.2796 0.877 0.93161 0.0
H4019 H 0.28162 0.85263 0.93075 0.0
C4020 C 0.31789 0.91453 0.9707 0.0
C4021 C 0.31272 0.90233 0.98407 0.0
C4022 C 0.31844 0.90756 0.95218 0.0
C4023 C 0.31368 0.88808 0.94612 0.0
C4024 C 0.30895 0.87583 0.95962 0.0
H4025 H 0.30243 0.81388 0.8436 0.0
H4026 H 0.30482 0.82936 0.87466 0.0
C4027 C 0.30847 0.8828 0.97818 0.0
C4028 C 0.31333 0.8807 0.9258 0.0
H4029 H 0.28701 0.8538 0.88825 0.0
C4030 C 0.32819 0.88513 0.91702 0.0
C4031 C 0.29828 0.86943 0.91483 0.0
C4032 C 0.28147 0.86484 0.92247 0.0
C4033 C 0.32851 0.87823 0.89827 0.0
C4034 C 0.31347 0.86675 0.88742 0.0
C4035 C 0.29863 0.86255 0.89617 0.0
C4036 C 0.31296 0.85776 0.86759 0.0
C4037 C 0.34522 0.8827 0.89044 0.0
C4038 C 0.31672 0.86822 0.85242 0.0
C4039 C 0.31522 0.85917 0.83403 0.0
C4040 C 0.30994 0.83934 0.83023 0.0
C4041 C 0.30642 0.82912 0.84554 0.0
C4042 C 0.3078 0.83805 0.86362 0.0
H4043 H 0.35644 0.88825 0.90146 0.0
H4044 H 0.3476 0.86992 0.88267 0.0
H4045 H 0.34435 0.89358 0.88063 0.0
H4046 H 0.3205 0.88346 0.85467 0.0
H4047 H 0.31815 0.86769 0.82287 0.0
H4048 H 0.98582 0.64744 0.7529 0.0
H4049 H 0.99273 0.63304 0.72393 0.0
H4050 H 0.95053 0.58574 0.72362 0.0
H4051 H 0.94307 0.60034 0.75141 0.0
H4052 H 1.00265 0.59994 0.72 0.0
H4053 H 0.94228 0.59516 0.67093 0.0
H4054 H 0.94667 0.60954 0.6929 0.0
H4055 H 0.93838 0.58448 0.69169 0.0
C4056 C 0.97786 0.63421 0.7463 0.0
C4057 C 0.96386 0.62509 0.75419 0.0
C4058 C 0.98178 0.626 0.72986 0.0
C4059 C 0.97189 0.60849 0.72146 0.0
C4060 C 0.95791 0.59954 0.72941 0.0
H4061 H 0.98889 0.53441 0.62695 0.0
H4062 H 0.97867 0.54374 0.65613 0.0
C4063 C 0.95375 0.6079 0.74541 0.0
C4064 C 0.97702 0.59857 0.70542 0.0
H4065 H 0.96211 0.57681 0.66171 0.0
C4066 C 0.99381 0.59498 0.70723 0.0
C4067 C 0.96529 0.59169 0.68895 0.0
C4068 C 0.94721 0.59557 0.68593 0.0
C4069 C 0.99933 0.58502 0.69282 0.0
C4070 C 0.98778 0.57866 0.67621 0.0
C4071 C 0.9708 0.58157 0.67462 0.0
C4072 C 0.99398 0.5722 0.6593 0.0
C4073 C 0.01759 0.58173 0.69533 0.0
C4074 C 1.00552 0.58527 0.65151 0.0
C4075 C 0.01096 0.58017 0.63499 0.0
C4076 C 1.00501 0.56189 0.62596 0.0
C4077 C 0.99349 0.54863 0.63373 0.0
C4078 C 0.98778 0.55388 0.6503 0.0
H4079 H 0.02278 0.58191 0.71024 0.0
H4080 H 0.01832 0.56803 0.68792 0.0
H4081 H 0.02601 0.5932 0.68958 0.0
H4082 H 0.01018 0.59954 0.65815 0.0
H4083 H 0.02007 0.59048 0.62934 0.0
H4084 H 0.30354 0.20866 0.45503 0.0
H4085 H 0.30407 0.22037 0.42452 0.0
H4086 H 0.27671 0.26332 0.4409 0.0
H4087 H 0.27674 0.252 0.47174 0.0
H4088 H 0.27997 0.22202 0.3971 0.0
H4089 H 0.31372 0.29579 0.41972 0.0
H4090 H 0.31221 0.27772 0.43543 0.0
H4091 H 0.29442 0.28941 0.42987 0.0
C4092 C 0.29777 0.22073 0.45224 0.0
C4093 C 0.29019 0.22942 0.46603 0.0
C4094 C 0.29803 0.22743 0.43465 0.0
C4095 C 0.29068 0.24304 0.43016 0.0
C4096 C 0.28296 0.25164 0.44391 0.0
H4097 H 0.27649 0.29741 0.32563 0.0
H4098 H 0.27278 0.28525 0.35583 0.0
C4099 C 0.28287 0.24506 0.46162 0.0
C4100 C 0.29075 0.24983 0.41103 0.0
H4101 H 0.30144 0.28902 0.3879 0.0
C4102 C 0.28473 0.23669 0.3952 0.0
C4103 C 0.29699 0.26897 0.40816 0.0
C4104 C 0.30487 0.28375 0.42418 0.0
C4105 C 0.2846 0.2421 0.37696 0.0
C4106 C 0.29066 0.26122 0.37415 0.0
C4107 C 0.29658 0.2744 0.3899 0.0
C4108 C 0.29182 0.26762 0.35507 0.0
C4109 C 0.27781 0.22728 0.36073 0.0
C4110 C 0.30364 0.2618 0.34432 0.0
C4111 C 0.30589 0.26892 0.3272 0.0
C4112 C 0.29612 0.28173 0.32005 0.0
C4113 C 0.2839 0.28719 0.33049 0.0
C4114 C 0.2819 0.28035 0.34786 0.0
H4115 H 0.27033 0.21415 0.36497 0.0
H4116 H 0.26944 0.23274 0.34991 0.0
H4117 H 0.28885 0.22364 0.35444 0.0
H4118 H 0.31164 0.25223 0.3495 0.0
H4119 H 0.31564 0.26473 0.31971 0.0
H4120 H 0.3318 0.66282 0.53832 0.0
H4121 H 0.35807 0.65086 0.5346 0.0
H4122 H 0.3555 0.66752 0.47899 0.0
H4123 H 0.32996 0.68062 0.48323 0.0
H4124 H 0.36417 0.62404 0.51328 0.0
H4125 H 0.40466 0.68935 0.49517 0.0
H4126 H 0.38418 0.68939 0.50309 0.0
H4127 H 0.38497 0.68123 0.47939 0.0
C4128 C 0.33692 0.664 0.52535 0.0
C4129 C 0.3289 0.67281 0.51116 0.0
C4130 C 0.35198 0.65717 0.52319 0.0
C4131 C 0.35923 0.6586 0.50664 0.0
C4132 C 0.35078 0.66684 0.49219 0.0
H4133 H 0.45097 0.61283 0.48103 0.0
H4134 H 0.42453 0.62598 0.47688 0.0
C4135 C 0.336 0.67415 0.49455 0.0
C4136 C 0.3752 0.65085 0.50454 0.0
H4137 H 0.41665 0.66187 0.49455 0.0
C4138 C 0.37559 0.63243 0.50919 0.0
C4139 C 0.3902 0.66149 0.49883 0.0
C4140 C 0.39109 0.6815 0.49398 0.0
C4141 C 0.39045 0.62463 0.50889 0.0
C4142 C 0.40559 0.63547 0.50393 0.0
C4143 C 0.40508 0.65356 0.49843 0.0
C4144 C 0.42233 0.62874 0.50609 0.0
C4145 C 0.38989 0.60479 0.51411 0.0
C4146 C 0.43017 0.62629 0.52386 0.0
C4147 C 0.44519 0.61882 0.52627 0.0
C4148 C 0.45296 0.61359 0.51099 0.0
C4149 C 0.44533 0.6165 0.49314 0.0
C4150 C 0.43024 0.62413 0.49074 0.0
H4151 H 0.37641 0.59663 0.51271 0.0
H4152 H 0.39723 0.5971 0.50535 0.0
H4153 H 0.39589 0.60542 0.52879 0.0
H4154 H 0.42445 0.62986 0.53594 0.0
H4155 H 0.45039 0.6166 0.5402 0.0
H4156 H 0.85453 0.97035 0.51796 0.0
H4157 H 0.88364 0.9851 0.51276 0.0
H4158 H 0.90539 0.94834 0.5487 0.0
H4159 H 0.87631 0.93316 0.55335 0.0
H4160 H 0.91024 0.0053 0.53386 0.0
H4161 H 0.93234 0.942 0.50789 0.0
H4162 H 0.91011 0.94138 0.51072 0.0
H4163 H 0.92583 0.93929 0.53022 0.0
C4164 C 0.86551 0.96538 0.52477 0.0
C4165 C 0.86292 0.95058 0.53622 0.0
C4166 C 0.88226 0.97384 0.52173 0.0
C4167 C 0.89706 0.9678 0.53002 0.0
C4168 C 0.89443 0.95308 0.54159 0.0
H4169 H 1.00748 0.01547 0.55191 0.0
H4170 H 0.97797 0.99698 0.54998 0.0
C4171 C 0.87768 0.94451 0.54449 0.0
C4172 C 0.91511 0.97751 0.52735 0.0
H4173 H 0.95456 0.96963 0.51813 0.0
C4174 C 0.91978 0.9974 0.53018 0.0
C4175 C 0.92787 0.96751 0.52237 0.0
C4176 C 0.92373 0.9464 0.51742 0.0
C4177 C 0.93666 0.00731 0.52892 0.0
C4178 C 0.94952 0.99728 0.52469 0.0
C4179 C 0.94486 0.97745 0.52149 0.0
C4180 C 0.96802 0.00716 0.52452 0.0
C4181 C 0.9408 0.02855 0.53268 0.0
C4182 C 0.97268 0.01874 0.51055 0.0
C4183 C 0.98981 0.02901 0.51139 0.0
C4184 C 1.00262 0.02819 0.52638 0.0
C4185 C 0.998 0.01629 0.54007 0.0
C4186 C 0.98106 0.00574 0.53902 0.0
H4187 H 0.93016 0.03413 0.53806 0.0
H4188 H 0.95279 0.0332 0.54287 0.0
H4189 H 0.94312 0.03484 0.51962 0.0
H4190 H 0.96298 0.02015 0.49917 0.0
H4191 H 0.9928 0.03829 0.5008 0.0
H4192 H 0.91678 0.09005 0.2542 0.0
H4193 H 0.90873 0.11822 0.26783 0.0
H4194 H 0.88095 0.12501 0.21469 0.0
H4195 H 0.88814 0.09588 0.20121 0.0
H4196 H 0.91335 0.15441 0.26238 0.0
H4197 H 0.84368 0.12181 0.24685 0.0
H4198 H 0.86034 0.10856 0.24412 0.0
H4199 H 0.85366 0.12264 0.22627 0.0
C4200 C 0.909 0.09764 0.2454 0.0
C4201 C 0.90276 0.0908 0.22677 0.0
C4202 C 0.90448 0.11372 0.2532 0.0
C4203 C 0.8939 0.12338 0.24239 0.0
C4204 C 0.88864 0.1173 0.22339 0.0
H4205 H 0.85023 0.21836 0.24689 0.0
H4206 H 0.86438 0.19196 0.24149 0.0
C4207 C 0.89276 0.10081 0.21568 0.0
C4208 C 0.88761 0.13917 0.25124 0.0
H4209 H 0.85073 0.15513 0.25594 0.0
C4210 C 0.89966 0.15454 0.26114 0.0
C4211 C 0.86973 0.13891 0.25022 0.0
C4212 C 0.85611 0.12199 0.24149 0.0
C4213 C 0.89425 0.17033 0.26884 0.0
C4214 C 0.87647 0.17066 0.26636 0.0
C4215 C 0.86441 0.15484 0.25752 0.0
C4216 C 0.87009 0.18802 0.27051 0.0
C4217 C 0.9075 0.18685 0.27892 0.0
C4218 C 0.86896 0.19467 0.28872 0.0
C4219 C 0.86092 0.20994 0.2919 0.0
C4220 C 0.85396 0.21865 0.27688 0.0
C4221 C 0.85574 0.21225 0.25877 0.0
C4222 C 0.8637 0.19707 0.25563 0.0
H4223 H 0.92094 0.18476 0.27881 0.0
H4224 H 0.90604 0.19999 0.27251 0.0
H4225 H 0.90531 0.18888 0.29356 0.0
H4226 H 0.87375 0.18769 0.30034 0.0
H4227 H 0.85976 0.21465 0.30601 0.0
H4228 H 0.72616 0.18867 0.02817 0.0
H4229 H 0.6958 0.1727 0.0231 0.0
H4230 H 0.70658 0.13226 0.98217 0.0
H4231 H 0.73728 0.14762 0.98806 0.0
H4232 H 0.66983 0.1645 0.99571 0.0
H4233 H 0.68664 0.09715 0.01636 0.0
H4234 H 0.70262 0.11869 0.01839 0.0
H4235 H 0.69528 0.10499 0.9962 0.0
C4236 C 0.72209 0.17626 0.01821 0.0
C4237 C 0.73419 0.16897 0.00901 0.0
C4238 C 0.70468 0.16724 0.01518 0.0
C4239 C 0.69892 0.15088 0.00268 0.0
C4240 C 0.7108 0.14438 0.99246 0.0
H4241 H 0.59543 0.07831 0.98319 0.0
H4242 H 0.62419 0.0952 0.97902 0.0
C4243 C 0.72834 0.15315 0.99582 0.0
C4244 C 0.68082 0.14015 1.00146 0.0
H4245 H 0.65716 0.09737 0.00853 0.0
C4246 C 0.66709 0.14979 0.99842 0.0
C4247 C 0.67715 0.12093 0.00505 0.0
C4248 C 0.69119 0.10986 0.00935 0.0
C4249 C 0.64996 0.14086 0.99928 0.0
C4250 C 0.64649 0.12184 0.00319 0.0
C4251 C 0.65999 0.112 0.00557 0.0
C4252 C 0.629 0.112 0.00558 0.0
C4253 C 0.63567 0.15179 0.99627 0.0
C4254 C 0.62245 0.11562 0.02208 0.0
C4255 C 0.60622 0.10567 0.0247 0.0
C4256 C 0.59625 0.09218 0.0107 0.0
C4257 C 0.60288 0.08861 0.9942 0.0
C4258 C 0.61922 0.09829 0.99176 0.0
H4259 H 0.64001 0.16545 0.99067 0.0
H4260 H 0.6245 0.1433 0.98655 0.0
H4261 H 0.6311 0.15473 0.00968 0.0
H4262 H 0.62991 0.12608 0.03295 0.0
H4263 H 0.60128 0.10893 0.0374 0.0
H4264 H 0.20078 0.4635 0.24454 0.0
H4265 H 0.21848 0.43955 0.24743 0.0
H4266 H 0.1798 0.40524 0.2734 0.0
H4267 H 0.16178 0.42904 0.27021 0.0
H4268 H 0.23044 0.42946 0.28246 0.0
H4269 H 0.1926 0.36756 0.23507 0.0
H4270 H 0.18895 0.39126 0.23324 0.0
H4271 H 0.1809 0.37792 0.2511 0.0
C4272 C 0.19593 0.4507 0.25058 0.0
C4273 C 0.18004 0.44806 0.25728 0.0
C4274 C 0.20601 0.43709 0.25218 0.0
C4275 C 0.20033 0.42073 0.26053 0.0
C4276 C 0.18418 0.4177 0.26664 0.0
H4277 H 0.24928 0.33044 0.29392 0.0
H4278 H 0.23097 0.35378 0.29086 0.0
C4279 C 0.17398 0.43128 0.26489 0.0
C4280 C 0.21212 0.40782 0.26438 0.0
H4281 H 0.21751 0.3629 0.25441 0.0
C4282 C 0.22769 0.41491 0.2763 0.0
C4283 C 0.20828 0.38892 0.25634 0.0
C4284 C 0.19184 0.38093 0.2431 0.0
C4285 C 0.23964 0.40347 0.28046 0.0
C4286 C 0.23587 0.38462 0.27235 0.0
C4287 C 0.22024 0.37745 0.26054 0.0
C4288 C 0.24796 0.37199 0.27602 0.0
C4289 C 0.25609 0.41147 0.29366 0.0
C4290 C 0.26374 0.37499 0.26911 0.0
C4291 C 0.27432 0.36177 0.27094 0.0
C4292 C 0.26904 0.34538 0.27952 0.0
C4293 C 0.25363 0.34298 0.28724 0.0
C4294 C 0.24313 0.35619 0.28545 0.0
H4295 H 0.25542 0.42496 0.30153 0.0
H4296 H 0.25886 0.40122 0.30365 0.0
H4297 H 0.26704 0.41422 0.28565 0.0
H4298 H 0.26747 0.38709 0.2616 0.0
H4299 H 0.28598 0.36376 0.26459 0.0
H4300 H 0.27163 0.46176 0.05654 0.0
H4301 H 0.2441 0.47247 0.05151 0.0
H4302 H 0.22687 0.43167 0.00346 0.0
H4303 H 0.25398 0.42046 0.0089 0.0
H4304 H 0.23056 0.48861 0.02361 0.0
H4305 H 0.1846 0.42159 0.02747 0.0
H4306 H 0.2076 0.42418 0.03424 0.0
H4307 H 0.19831 0.41998 0.01011 0.0
C4308 C 0.26193 0.45501 0.04499 0.0
C4309 C 0.26505 0.44024 0.03318 0.0
C4310 C 0.24614 0.46112 0.0421 0.0
C4311 C 0.23311 0.45273 0.02725 0.0
C4312 C 0.23633 0.43808 0.01534 0.0
H4313 H 0.1347 0.49118 0.99196 0.0
H4314 H 0.15979 0.47589 0.99071 0.0
C4315 C 0.25198 0.43179 0.01839 0.0
C4316 C 0.21666 0.46008 0.02378 0.0
H4317 H 0.1724 0.44762 0.01876 0.0
C4318 C 0.21788 0.47956 0.02256 0.0
C4319 C 0.19994 0.44835 0.02207 0.0
C4320 C 0.19748 0.4274 0.02369 0.0
C4321 C 0.2031 0.48763 0.02015 0.0
C4322 C 0.18651 0.47606 0.01904 0.0
C4323 C 0.18512 0.45649 0.01957 0.0
C4324 C 0.1708 0.48445 0.01946 0.0
C4325 C 0.20532 0.50864 0.01908 0.0
C4326 C 0.16853 0.49412 0.03601 0.0
C4327 C 0.15422 0.50258 0.0368 0.0
C4328 C 0.1418 0.50179 0.02102 0.0
C4329 C 0.14403 0.49207 0.00436 0.0
C4330 C 0.15832 0.48329 0.00364 0.0
H4331 H 0.21841 0.51498 0.01621 0.0
H4332 H 0.19551 0.51175 0.00809 0.0
H4333 H 0.20341 0.51552 0.03251 0.0
H4334 H 0.17796 0.49523 0.04837 0.0
H4335 H 0.15308 0.51017 0.04976 0.0
H4336 H 0.87492 1.00001 0.24202 0.0
H4337 H 0.86683 0.97257 0.25866 0.0
H4338 H 0.89353 0.94036 0.22451 0.0
H4339 H 0.90247 0.96831 0.20834 0.0
H4340 H 0.84634 0.94168 0.24014 0.0
H4341 H 0.90592 0.92284 0.27553 0.0
H4342 H 0.90554 0.94589 0.26774 0.0
H4343 H 0.9064 0.92631 0.25152 0.0
C4344 C 0.87889 0.98701 0.2379 0.0
C4345 C 0.88864 0.98589 0.22339 0.0
C4346 C 0.8746 0.97152 0.24769 0.0
C4347 C 0.8797 0.95455 0.24289 0.0
C4348 C 0.88978 0.95348 0.22865 0.0
H4349 H 0.83338 0.83985 0.25037 0.0
H4350 H 0.8529 0.86911 0.24542 0.0
C4351 C 0.89446 0.96921 0.21912 0.0
C4352 C 0.87176 0.93734 0.25045 0.0
H4353 H 0.87981 0.89929 0.27239 0.0
C4354 C 0.85367 0.93256 0.24743 0.0
C4355 C 0.88145 0.92549 0.2598 0.0
C4356 C 0.90091 0.93045 0.26401 0.0
C4357 C 0.84489 0.91601 0.25313 0.0
C4358 C 0.8545 0.90399 0.2622 0.0
C4359 C 0.87261 0.90872 0.26544 0.0
C4360 C 0.84562 0.88606 0.26754 0.0
C4361 C 0.82539 0.91125 0.24898 0.0
C4362 C 0.83551 0.88611 0.28182 0.0
C4363 C 0.82441 0.86958 0.28455 0.0
C4364 C 0.82336 0.85303 0.27295 0.0
C4365 C 0.83402 0.85271 0.25924 0.0
C4366 C 0.84521 0.86923 0.25658 0.0
H4367 H 0.82019 0.92049 0.23914 0.0
H4368 H 0.8208 0.8963 0.24303 0.0
H4369 H 0.81997 0.91308 0.26207 0.0
H4370 H 0.83566 0.8991 0.29026 0.0
H4371 H 0.81624 0.86985 0.29526 0.0
H4372 H 0.66275 0.05758 0.74471 0.0
H4373 H 0.67714 0.091 0.75166 0.0
H4374 H 0.70721 0.0774 0.80058 0.0
H4375 H 0.6936 0.04402 0.7931 0.0
H4376 H 0.6795 0.11676 0.78144 0.0
H4377 H 0.74445 0.10302 0.77357 0.0
H4378 H 0.7249 0.08552 0.76622 0.0
H4379 H 0.7345 0.0895 0.79026 0.0
C4380 C 0.67252 0.06184 0.75686 0.0
C4381 C 0.67749 0.04841 0.76818 0.0
C4382 C 0.68064 0.08083 0.76085 0.0
C4383 C 0.69353 0.0865 0.77637 0.0
C4384 C 0.69774 0.07316 0.78819 0.0
H4385 H 0.76192 0.19631 0.81467 0.0
H4386 H 0.74514 0.1639 0.81483 0.0
C4387 C 0.68998 0.05418 0.78395 0.0
C4388 C 0.70291 0.10629 0.78007 0.0
H4389 H 0.74336 0.1339 0.78583 0.0
C4390 C 0.69346 0.12053 0.78244 0.0
C4391 C 0.72111 0.1111 0.78125 0.0
C4392 C 0.73182 0.09651 0.7775 0.0
C4393 C 0.70179 0.13955 0.78608 0.0
C4394 C 0.71997 0.1443 0.78735 0.0
C4395 C 0.72944 0.13007 0.78523 0.0
C4396 C 0.72919 0.16405 0.78844 0.0
C4397 C 0.69109 0.15443 0.78836 0.0
C4398 C 0.72578 0.1745 0.77354 0.0
C4399 C 0.73509 0.19272 0.77353 0.0
C4400 C 0.74815 0.2007 0.78829 0.0
C4401 C 0.75176 0.19032 0.80326 0.0
C4402 C 0.74224 0.17197 0.80334 0.0
H4403 H 0.67821 0.14835 0.79197 0.0
H4404 H 0.69783 0.1659 0.79926 0.0
H4405 H 0.68898 0.16076 0.77508 0.0
H4406 H 0.71618 0.16838 0.76166 0.0
H4407 H 0.73243 0.20046 0.76171 0.0
loop_
_geom_bond_atom_site_label_1
_geom_bond_atom_site_label_2
_geom_bond_distance
_geom_bond_site_symmetry_2
_ccdc_geom_bond_type
In0 O1 2.294 . S
In0 O2 2.326 . S
In0 O6 2.266 1_455 S
In0 O7 2.326 1_455 S
In0 O8 2.266 . S
In0 O9 2.326 . S
In0 O11 2.294 . S
In0 O12 2.326 . S
O1 In0 2.294 . S
O1 C10 1.240 . S
O2 In0 2.326 . S
O2 C10 1.252 . S
C3 O6 1.252 . S
C3 O7 1.260 . S
C4 O11 1.240 . S
C4 O12 1.252 . S
C5 O8 1.252 . S
C5 O9 1.260 . S
O6 In0 2.266 1_655 S
O6 C3 1.252 . S
O7 In0 2.326 1_655 S
O7 C3 1.260 . S
O8 In0 2.266 . S
O8 C5 1.252 . S
O9 In0 2.326 . S
O9 C5 1.260 . S
C10 O1 1.240 . S
C10 O2 1.252 . S
O11 In0 2.294 . S
O11 C4 1.240 . S
O12 In0 2.326 . S
O12 C4 1.252 . S
In13 O14 2.294 . S
In13 O15 2.326 . S
In13 O19 2.266 . S
In13 O20 2.326 . S
In13 O21 2.266 . S
In13 O22 2.326 . S
In13 O24 2.294 . S
In13 O25 2.326 . S
O14 In13 2.294 . S
O14 C23 1.240 . S
O15 In13 2.326 . S
O15 C23 1.252 . S
C16 O19 1.252 . S
C16 O20 1.260 . S
C17 O24 1.240 . S
C17 O25 1.252 . S
C18 O21 1.252 . S
C18 O22 1.260 . S
O19 In13 2.266 . S
O19 C16 1.252 . S
O20 In13 2.326 . S
O20 C16 1.260 . S
O21 In13 2.266 . S
O21 C18 1.252 . S
O22 In13 2.326 . S
O22 C18 1.260 . S
C23 O14 1.240 . S
C23 O15 1.252 . S
O24 In13 2.294 . S
O24 C17 1.240 . S
O25 In13 2.326 . S
O25 C17 1.252 . S
In26 O27 2.294 . S
In26 O28 2.326 . S
In26 O32 2.266 . S
In26 O33 2.326 . S
In26 O34 2.266 . S
In26 O35 2.326 . S
In26 O37 2.294 . S
In26 O38 2.326 . S
O27 In26 2.294 . S
O27 C36 1.240 . S
O28 In26 2.326 . S
O28 C36 1.252 . S
C29 O32 1.252 . S
C29 O33 1.260 . S
C30 O37 1.240 . S
C30 O38 1.252 . S
C31 O34 1.252 . S
C31 O35 1.260 . S
O32 In26 2.266 . S
O32 C29 1.252 . S
O33 In26 2.326 . S
O33 C29 1.260 . S
O34 In26 2.266 . S
O34 C31 1.252 . S
O35 In26 2.326 . S
O35 C31 1.260 . S
C36 O27 1.240 . S
C36 O28 1.252 . S
O37 In26 2.294 . S
O37 C30 1.240 . S
O38 In26 2.326 . S
O38 C30 1.252 . S
In39 O40 2.294 . S
In39 O41 2.326 . S
In39 O45 2.266 . S
In39 O46 2.326 . S
In39 O47 2.266 . S
In39 O48 2.326 . S
In39 O50 2.294 . S
In39 O51 2.326 . S
O40 In39 2.294 . S
O40 C49 1.240 . S
O41 In39 2.326 . S
O41 C49 1.252 . S
C42 O45 1.252 . S
C42 O46 1.260 . S
C43 O50 1.240 . S
C43 O51 1.252 . S
C44 O47 1.252 . S
C44 O48 1.260 . S
O45 In39 2.266 . S
O45 C42 1.252 . S
O46 In39 2.326 . S
O46 C42 1.260 . S
O47 In39 2.266 . S
O47 C44 1.252 . S
O48 In39 2.326 . S
O48 C44 1.260 . S
C49 O40 1.240 . S
C49 O41 1.252 . S
O50 In39 2.294 . S
O50 C43 1.240 . S
O51 In39 2.326 . S
O51 C43 1.252 . S
In52 O53 2.294 . S
In52 O54 2.326 . S
In52 O58 2.266 . S
In52 O59 2.326 . S
In52 O60 2.266 . S
In52 O61 2.326 . S
In52 O63 2.294 . S
In52 O64 2.326 . S
O53 In52 2.294 . S
O53 C62 1.240 . S
O54 In52 2.326 . S
O54 C62 1.252 . S
C55 O58 1.252 . S
C55 O59 1.260 . S
C56 O63 1.240 . S
C56 O64 1.252 . S
C57 O60 1.252 . S
C57 O61 1.260 . S
O58 In52 2.266 . S
O58 C55 1.252 . S
O59 In52 2.326 . S
O59 C55 1.260 . S
O60 In52 2.266 . S
O60 C57 1.252 . S
O61 In52 2.326 . S
O61 C57 1.260 . S
C62 O53 1.240 . S
C62 O54 1.252 . S
O63 In52 2.294 . S
O63 C56 1.240 . S
O64 In52 2.326 . S
O64 C56 1.252 . S
In65 O66 2.294 . S
In65 O67 2.326 . S
In65 O71 2.266 . S
In65 O72 2.326 . S
In65 O73 2.266 . S
In65 O74 2.326 . S
In65 O76 2.294 . S
In65 O77 2.326 . S
O66 In65 2.294 . S
O66 C75 1.240 . S
O67 In65 2.326 . S
O67 C75 1.252 . S
C68 O71 1.252 . S
C68 O72 1.260 . S
C69 O76 1.240 . S
C69 O77 1.252 . S
C70 O73 1.252 . S
C70 O74 1.260 . S
O71 In65 2.266 . S
O71 C68 1.252 . S
O72 In65 2.326 . S
O72 C68 1.260 . S
O73 In65 2.266 . S
O73 C70 1.252 . S
O74 In65 2.326 . S
O74 C70 1.260 . S
C75 O66 1.240 . S
C75 O67 1.252 . S
O76 In65 2.294 . S
O76 C69 1.240 . S
O77 In65 2.326 . S
O77 C69 1.252 . S
In78 O79 2.294 . S
In78 O80 2.326 . S
In78 O84 2.266 . S
In78 O85 2.326 . S
In78 O86 2.266 . S
In78 O87 2.326 . S
In78 O89 2.294 . S
In78 O90 2.326 . S
O79 In78 2.294 . S
O79 C88 1.240 . S
O80 In78 2.326 . S
O80 C88 1.252 . S
C81 O84 1.252 . S
C81 O85 1.260 . S
C82 O89 1.240 . S
C82 O90 1.252 . S
C83 O86 1.252 . S
C83 O87 1.260 . S
O84 In78 2.266 . S
O84 C81 1.252 . S
O85 In78 2.326 . S
O85 C81 1.260 . S
O86 In78 2.266 . S
O86 C83 1.252 . S
O87 In78 2.326 . S
O87 C83 1.260 . S
C88 O79 1.240 . S
C88 O80 1.252 . S
O89 In78 2.294 . S
O89 C82 1.240 . S
O90 In78 2.326 . S
O90 C82 1.252 . S
In91 O92 2.294 . S
In91 O93 2.326 . S
In91 O97 2.266 . S
In91 O98 2.326 . S
In91 O99 2.266 . S
In91 O100 2.326 1_455 S
In91 O102 2.294 . S
In91 O103 2.326 . S
O92 In91 2.294 . S
O92 C101 1.240 . S
O93 In91 2.326 . S
O93 C101 1.252 . S
C94 O97 1.252 . S
C94 O98 1.260 . S
C95 O102 1.240 . S
C95 O103 1.252 . S
C96 O99 1.252 1_655 S
C96 O100 1.260 . S
O97 In91 2.266 . S
O97 C94 1.252 . S
O98 In91 2.326 . S
O98 C94 1.260 . S
O99 In91 2.266 . S
O99 C96 1.252 1_455 S
O100 In91 2.326 1_655 S
O100 C96 1.260 . S
C101 O92 1.240 . S
C101 O93 1.252 . S
O102 In91 2.294 . S
O102 C95 1.240 . S
O103 In91 2.326 . S
O103 C95 1.252 . S
In104 O105 2.294 . S
In104 O106 2.326 . S
In104 O110 2.266 . S
In104 O111 2.326 . S
In104 O112 2.266 . S
In104 O113 2.326 . S
In104 O115 2.294 . S
In104 O116 2.326 . S
O105 In104 2.294 . S
O105 C114 1.240 . S
O106 In104 2.326 . S
O106 C114 1.252 . S
C107 O110 1.252 . S
C107 O111 1.260 . S
C108 O115 1.240 . S
C108 O116 1.252 . S
C109 O112 1.252 . S
C109 O113 1.260 . S
O110 In104 2.266 . S
O110 C107 1.252 . S
O111 In104 2.326 . S
O111 C107 1.260 . S
O112 In104 2.266 . S
O112 C109 1.252 . S
O113 In104 2.326 . S
O113 C109 1.260 . S
C114 O105 1.240 . S
C114 O106 1.252 . S
O115 In104 2.294 . S
O115 C108 1.240 . S
O116 In104 2.326 . S
O116 C108 1.252 . S
In117 O118 2.294 . S
In117 O119 2.326 . S
In117 O123 2.266 . S
In117 O124 2.326 . S
In117 O125 2.266 . S
In117 O126 2.326 . S
In117 O128 2.294 . S
In117 O129 2.326 . S
O118 In117 2.294 . S
O118 C127 1.240 . S
O119 In117 2.326 . S
O119 C127 1.252 . S
C120 O123 1.252 . S
C120 O124 1.260 . S
C121 O128 1.240 . S
C121 O129 1.252 . S
C122 O125 1.252 . S
C122 O126 1.260 . S
O123 In117 2.266 . S
O123 C120 1.252 . S
O124 In117 2.326 . S
O124 C120 1.260 . S
O125 In117 2.266 . S
O125 C122 1.252 . S
O126 In117 2.326 . S
O126 C122 1.260 . S
C127 O118 1.240 . S
C127 O119 1.252 . S
O128 In117 2.294 . S
O128 C121 1.240 . S
O129 In117 2.326 . S
O129 C121 1.252 . S
In130 O131 2.294 . S
In130 O132 2.326 . S
In130 O136 2.266 . S
In130 O137 2.326 . S
In130 O138 2.266 . S
In130 O139 2.326 . S
In130 O141 2.294 . S
In130 O142 2.326 . S
O131 In130 2.294 . S
O131 C140 1.240 . S
O132 In130 2.326 . S
O132 C140 1.252 . S
C133 O136 1.252 . S
C133 O137 1.260 . S
C134 O141 1.240 . S
C134 O142 1.252 . S
C135 O138 1.252 . S
C135 O139 1.260 . S
O136 In130 2.266 . S
O136 C133 1.252 . S
O137 In130 2.326 . S
O137 C133 1.260 . S
O138 In130 2.266 . S
O138 C135 1.252 . S
O139 In130 2.326 . S
O139 C135 1.260 . S
C140 O131 1.240 . S
C140 O132 1.252 . S
O141 In130 2.294 . S
O141 C134 1.240 . S
O142 In130 2.326 . S
O142 C134 1.252 . S
In143 O144 2.294 . S
In143 O145 2.326 . S
In143 O149 2.266 . S
In143 O150 2.326 . S
In143 O151 2.266 . S
In143 O152 2.326 . S
In143 O154 2.294 . S
In143 O155 2.326 . S
O144 In143 2.294 . S
O144 C153 1.240 . S
O145 In143 2.326 . S
O145 C153 1.252 . S
C146 O149 1.252 . S
C146 O150 1.260 . S
C147 O154 1.240 . S
C147 O155 1.252 . S
C148 O151 1.252 . S
C148 O152 1.260 . S
O149 In143 2.266 . S
O149 C146 1.252 . S
O150 In143 2.326 . S
O150 C146 1.260 . S
O151 In143 2.266 . S
O151 C148 1.252 . S
O152 In143 2.326 . S
O152 C148 1.260 . S
C153 O144 1.240 . S
C153 O145 1.252 . S
O154 In143 2.294 . S
O154 C147 1.240 . S
O155 In143 2.326 . S
O155 C147 1.252 . S
In156 O157 2.294 . S
In156 O158 2.326 . S
In156 O162 2.266 . S
In156 O163 2.326 1_554 S
In156 O164 2.266 . S
In156 O165 2.326 . S
In156 O167 2.294 . S
In156 O168 2.326 . S
O157 In156 2.294 . S
O157 C166 1.240 . S
O158 In156 2.326 . S
O158 C166 1.252 . S
C159 O162 1.252 1_556 S
C159 O163 1.260 . S
C160 O167 1.240 . S
C160 O168 1.252 . S
C161 O164 1.252 . S
C161 O165 1.260 . S
O162 In156 2.266 . S
O162 C159 1.252 1_554 S
O163 In156 2.326 1_556 S
O163 C159 1.260 . S
O164 In156 2.266 . S
O164 C161 1.252 . S
O165 In156 2.326 . S
O165 C161 1.260 . S
C166 O157 1.240 . S
C166 O158 1.252 . S
O167 In156 2.294 . S
O167 C160 1.240 . S
O168 In156 2.326 . S
O168 C160 1.252 . S
In169 O170 2.294 . S
In169 O171 2.326 . S
In169 O175 2.266 1_554 S
In169 O176 2.326 1_554 S
In169 O177 2.264 1_554 S
In169 O178 2.322 1_554 S
In169 O180 2.296 . S
In169 O181 2.330 . S
O170 In169 2.294 . S
O170 C179 1.240 . S
O171 In169 2.326 . S
O171 C179 1.252 . S
C172 O175 1.252 . S
C172 O176 1.260 . S
C173 O180 1.240 . S
C173 O181 1.252 . S
C174 O177 1.252 . S
C174 O178 1.260 . S
O175 In169 2.266 1_556 S
O175 C172 1.252 . S
O176 In169 2.326 1_556 S
O176 C172 1.260 . S
O177 In169 2.264 1_556 S
O177 C174 1.252 . S
O178 In169 2.322 1_556 S
O178 C174 1.260 . S
C179 O170 1.240 . S
C179 O171 1.252 . S
O180 In169 2.296 . S
O180 C173 1.240 . S
O181 In169 2.330 . S
O181 C173 1.252 . S
In182 O183 2.294 . S
In182 O184 2.326 . S
In182 O188 2.266 . S
In182 O189 2.326 . S
In182 O190 2.266 . S
In182 O191 2.326 . S
In182 O193 2.294 . S
In182 O194 2.326 . S
O183 In182 2.294 . S
O183 C192 1.240 . S
O184 In182 2.326 . S
O184 C192 1.252 . S
C185 O188 1.252 . S
C185 O189 1.260 . S
C186 O193 1.240 . S
C186 O194 1.252 . S
C187 O190 1.252 . S
C187 O191 1.260 . S
O188 In182 2.266 . S
O188 C185 1.252 . S
O189 In182 2.326 . S
O189 C185 1.260 . S
O190 In182 2.266 . S
O190 C187 1.252 . S
O191 In182 2.326 . S
O191 C187 1.260 . S
C192 O183 1.240 . S
C192 O184 1.252 . S
O193 In182 2.294 . S
O193 C186 1.240 . S
O194 In182 2.326 . S
O194 C186 1.252 . S
In195 O196 2.294 . S
In195 O197 2.326 . S
In195 O201 2.266 . S
In195 O202 2.326 . S
In195 O203 2.266 . S
In195 O204 2.326 . S
In195 O206 2.294 . S
In195 O207 2.326 . S
O196 In195 2.294 . S
O196 C205 1.240 . S
O197 In195 2.326 . S
O197 C205 1.252 . S
C198 O201 1.252 . S
C198 O202 1.260 . S
C199 O206 1.240 . S
C199 O207 1.252 . S
C200 O203 1.252 . S
C200 O204 1.260 . S
O201 In195 2.266 . S
O201 C198 1.252 . S
O202 In195 2.326 . S
O202 C198 1.260 . S
O203 In195 2.266 . S
O203 C200 1.252 . S
O204 In195 2.326 . S
O204 C200 1.260 . S
C205 O196 1.240 . S
C205 O197 1.252 . S
O206 In195 2.294 . S
O206 C199 1.240 . S
O207 In195 2.326 . S
O207 C199 1.252 . S
In208 O209 2.294 . S
In208 O210 2.326 . S
In208 O214 2.266 . S
In208 O215 2.326 . S
In208 O216 2.266 . S
In208 O217 2.326 . S
In208 O219 2.294 . S
In208 O220 2.326 . S
O209 In208 2.294 . S
O209 C218 1.240 . S
O210 In208 2.326 . S
O210 C218 1.252 . S
C211 O214 1.252 . S
C211 O215 1.260 . S
C212 O219 1.240 . S
C212 O220 1.252 . S
C213 O216 1.252 . S
C213 O217 1.260 . S
O214 In208 2.266 . S
O214 C211 1.252 . S
O215 In208 2.326 . S
O215 C211 1.260 . S
O216 In208 2.266 . S
O216 C213 1.252 . S
O217 In208 2.326 . S
O217 C213 1.260 . S
C218 O209 1.240 . S
C218 O210 1.252 . S
O219 In208 2.294 . S
O219 C212 1.240 . S
O220 In208 2.326 . S
O220 C212 1.252 . S
In221 O222 2.294 . S
In221 O223 2.326 . S
In221 O227 2.266 . S
In221 O228 2.326 . S
In221 O229 2.266 . S
In221 O230 2.326 . S
In221 O232 2.294 . S
In221 O233 2.326 . S
O222 In221 2.294 . S
O222 C231 1.240 . S
O223 In221 2.326 . S
O223 C231 1.252 . S
C224 O227 1.252 . S
C224 O228 1.260 . S
C225 O232 1.240 . S
C225 O233 1.252 . S
C226 O229 1.252 . S
C226 O230 1.260 . S
O227 In221 2.266 . S
O227 C224 1.252 . S
O228 In221 2.326 . S
O228 C224 1.260 . S
O229 In221 2.266 . S
O229 C226 1.252 . S
O230 In221 2.326 . S
O230 C226 1.260 . S
C231 O222 1.240 . S
C231 O223 1.252 . S
O232 In221 2.294 . S
O232 C225 1.240 . S
O233 In221 2.326 . S
O233 C225 1.252 . S
In234 O235 2.294 . S
In234 O236 2.326 . S
In234 O240 2.266 . S
In234 O241 2.326 . S
In234 O242 2.266 . S
In234 O243 2.326 . S
In234 O245 2.294 . S
In234 O246 2.326 . S
O235 In234 2.294 . S
O235 C244 1.240 . S
O236 In234 2.326 . S
O236 C244 1.252 . S
C237 O240 1.252 . S
C237 O241 1.260 . S
C238 O245 1.240 . S
C238 O246 1.252 . S
C239 O242 1.252 . S
C239 O243 1.260 . S
O240 In234 2.266 . S
O240 C237 1.252 . S
O241 In234 2.326 . S
O241 C237 1.260 . S
O242 In234 2.266 . S
O242 C239 1.252 . S
O243 In234 2.326 . S
O243 C239 1.260 . S
C244 O235 1.240 . S
C244 O236 1.252 . S
O245 In234 2.294 . S
O245 C238 1.240 . S
O246 In234 2.326 . S
O246 C238 1.252 . S
In247 O248 2.296 1_545 S
In247 O249 2.330 1_545 S
In247 O253 2.264 . S
In247 O254 2.322 . S
In247 O255 2.266 . S
In247 O256 2.326 . S
In247 O258 2.294 1_545 S
In247 O259 2.326 1_545 S
O248 In247 2.296 1_565 S
O248 C257 1.240 . S
O249 In247 2.330 1_565 S
O249 C257 1.252 . S
C250 O253 1.252 . S
C250 O254 1.260 . S
C251 O258 1.240 . S
C251 O259 1.252 . S
C252 O255 1.252 . S
C252 O256 1.260 . S
O253 In247 2.264 . S
O253 C250 1.252 . S
O254 In247 2.322 . S
O254 C250 1.260 . S
O255 In247 2.266 . S
O255 C252 1.252 . S
O256 In247 2.326 . S
O256 C252 1.260 . S
C257 O248 1.240 . S
C257 O249 1.252 . S
O258 In247 2.294 1_565 S
O258 C251 1.240 . S
O259 In247 2.326 1_565 S
O259 C251 1.252 . S
In260 O261 2.294 . S
In260 O262 2.326 . S
In260 O266 2.266 . S
In260 O267 2.326 . S
In260 O268 2.266 . S
In260 O269 2.326 1_554 S
In260 O271 2.294 . S
In260 O272 2.326 . S
O261 In260 2.294 . S
O261 C270 1.240 . S
O262 In260 2.326 . S
O262 C270 1.252 . S
C263 O266 1.252 . S
C263 O267 1.260 . S
C264 O271 1.240 . S
C264 O272 1.252 . S
C265 O268 1.252 1_556 S
C265 O269 1.260 . S
O266 In260 2.266 . S
O266 C263 1.252 . S
O267 In260 2.326 . S
O267 C263 1.260 . S
O268 In260 2.266 . S
O268 C265 1.252 1_554 S
O269 In260 2.326 1_556 S
O269 C265 1.260 . S
C270 O261 1.240 . S
C270 O262 1.252 . S
O271 In260 2.294 . S
O271 C264 1.240 . S
O272 In260 2.326 . S
O272 C264 1.252 . S
In273 O274 2.294 . S
In273 O275 2.326 . S
In273 O279 2.266 . S
In273 O280 2.326 . S
In273 O281 2.266 . S
In273 O282 2.326 . S
In273 O284 2.294 . S
In273 O285 2.326 . S
O274 In273 2.294 . S
O274 C283 1.240 . S
O275 In273 2.326 . S
O275 C283 1.252 . S
C276 O279 1.252 . S
C276 O280 1.260 . S
C277 O284 1.240 . S
C277 O285 1.252 . S
C278 O281 1.252 . S
C278 O282 1.260 . S
O279 In273 2.266 . S
O279 C276 1.252 . S
O280 In273 2.326 . S
O280 C276 1.260 . S
O281 In273 2.266 . S
O281 C278 1.252 . S
O282 In273 2.326 . S
O282 C278 1.260 . S
C283 O274 1.240 . S
C283 O275 1.252 . S
O284 In273 2.294 . S
O284 C277 1.240 . S
O285 In273 2.326 . S
O285 C277 1.252 . S
In286 O287 2.294 . S
In286 O288 2.326 . S
In286 O292 2.266 . S
In286 O293 2.326 . S
In286 O294 2.266 . S
In286 O295 2.326 . S
In286 O297 2.294 . S
In286 O298 2.326 . S
O287 In286 2.294 . S
O287 C296 1.240 . S
O288 In286 2.326 . S
O288 C296 1.252 . S
C289 O292 1.252 . S
C289 O293 1.260 . S
C290 O297 1.240 . S
C290 O298 1.252 . S
C291 O294 1.252 . S
C291 O295 1.260 . S
O292 In286 2.266 . S
O292 C289 1.252 . S
O293 In286 2.326 . S
O293 C289 1.260 . S
O294 In286 2.266 . S
O294 C291 1.252 . S
O295 In286 2.326 . S
O295 C291 1.260 . S
C296 O287 1.240 . S
C296 O288 1.252 . S
O297 In286 2.294 . S
O297 C290 1.240 . S
O298 In286 2.326 . S
O298 C290 1.252 . S
In299 O300 2.294 . S
In299 O301 2.326 . S
In299 O305 2.266 . S
In299 O306 2.326 . S
In299 O307 2.266 . S
In299 O308 2.326 . S
In299 O310 2.294 . S
In299 O311 2.326 . S
O300 In299 2.294 . S
O300 C309 1.240 . S
O301 In299 2.326 . S
O301 C309 1.252 . S
C302 O305 1.252 . S
C302 O306 1.260 . S
C303 O310 1.240 . S
C303 O311 1.252 . S
C304 O307 1.252 . S
C304 O308 1.260 . S
O305 In299 2.266 . S
O305 C302 1.252 . S
O306 In299 2.326 . S
O306 C302 1.260 . S
O307 In299 2.266 . S
O307 C304 1.252 . S
O308 In299 2.326 . S
O308 C304 1.260 . S
C309 O300 1.240 . S
C309 O301 1.252 . S
O310 In299 2.294 . S
O310 C303 1.240 . S
O311 In299 2.326 . S
O311 C303 1.252 . S
Pr312 C314 2.880 . S
Pr312 O332 2.562 . S
Pr312 O333 2.490 . S
Pr312 O334 2.695 . S
Pr312 O335 2.516 1_554 S
Pr312 O337 2.437 . S
Pr312 O340 2.436 . S
Pr312 O342 2.438 . S
Pr313 C323 2.880 . S
Pr313 O334 2.436 . S
Pr313 O336 2.438 . S
Pr313 O338 2.562 . S
Pr313 O339 2.490 . S
Pr313 O340 2.695 . S
Pr313 O341 2.512 . S
Pr313 O343 2.437 . S
C314 Pr312 2.880 . S
C314 C315 1.491 1_455 S
C314 O332 1.254 . S
C314 O333 1.225 . S
C315 C314 1.491 1_655 S
C315 C316 1.392 1_554 S
C315 C320 1.356 . S
C316 C315 1.392 1_556 S
C316 C317 1.368 . S
C316 H344 0.929 . S
C317 C316 1.368 . S
C317 C318 1.386 . S
C317 H345 0.929 . S
C318 C317 1.386 . S
C318 C319 1.373 1_556 S
C319 C318 1.373 1_554 S
C319 C320 1.409 . S
C319 H346 0.931 . S
C320 C315 1.356 . S
C320 C319 1.409 . S
C320 H347 0.930 . S
C321 O334 1.270 . S
C321 O335 1.250 1_554 S
C322 O336 1.267 . S
C322 O337 1.278 . S
C323 Pr313 2.880 . S
C323 C324 1.491 . S
C323 O338 1.254 . S
C323 O339 1.225 . S
C324 C323 1.491 . S
C324 C325 1.392 . S
C324 C329 1.356 . S
C325 C324 1.392 . S
C325 C326 1.368 . S
C325 H348 0.929 . S
C326 C325 1.368 . S
C326 C327 1.386 . S
C326 H349 0.929 . S
C327 C326 1.386 . S
C327 C328 1.373 . S
C328 C327 1.373 . S
C328 C329 1.409 . S
C328 H350 0.931 . S
C329 C324 1.356 . S
C329 C328 1.409 . S
C329 H351 0.930 . S
C330 O340 1.270 . S
C330 O341 1.248 . S
C331 O342 1.267 . S
C331 O343 1.278 . S
O332 Pr312 2.562 . S
O332 C314 1.254 . S
O333 Pr312 2.490 . S
O333 C314 1.225 . S
O334 Pr312 2.695 . S
O334 Pr313 2.436 . S
O334 C321 1.270 . S
O335 Pr312 2.516 1_556 S
O335 C321 1.250 1_556 S
O336 Pr313 2.438 . S
O336 C322 1.267 . S
O337 Pr312 2.437 . S
O337 C322 1.278 . S
O338 Pr313 2.562 . S
O338 C323 1.254 . S
O339 Pr313 2.490 . S
O339 C323 1.225 . S
O340 Pr312 2.436 . S
O340 Pr313 2.695 . S
O340 C330 1.270 . S
O341 Pr313 2.512 . S
O341 C330 1.248 . S
O342 Pr312 2.438 . S
O342 C331 1.267 . S
O343 Pr313 2.437 . S
O343 C331 1.278 . S
H344 C316 0.929 . S
H345 C317 0.929 . S
H346 C319 0.931 . S
H347 C320 0.930 . S
H348 C325 0.929 . S
H349 C326 0.929 . S
H350 C328 0.931 . S
H351 C329 0.930 . S
Pr352 C354 2.880 . S
Pr352 O372 2.562 . S
Pr352 O373 2.490 . S
Pr352 O374 2.695 . S
Pr352 O375 2.512 . S
Pr352 O377 2.437 . S
Pr352 O380 2.436 . S
Pr352 O382 2.438 . S
Pr353 C363 2.880 . S
Pr353 O374 2.436 . S
Pr353 O376 2.438 . S
Pr353 O378 2.562 . S
Pr353 O379 2.490 . S
Pr353 O380 2.695 . S
Pr353 O381 2.512 . S
Pr353 O383 2.437 . S
C354 Pr352 2.880 . S
C354 C355 1.491 . S
C354 O372 1.254 . S
C354 O373 1.225 . S
C355 C354 1.491 . S
C355 C356 1.392 . S
C355 C360 1.356 . S
C356 C355 1.392 . S
C356 C357 1.368 . S
C356 H384 0.929 . S
C357 C356 1.368 . S
C357 C358 1.386 . S
C357 H385 0.929 . S
C358 C357 1.386 . S
C358 C359 1.373 . S
C359 C358 1.373 . S
C359 C360 1.409 . S
C359 H386 0.931 . S
C360 C355 1.356 . S
C360 C359 1.409 . S
C360 H387 0.930 . S
C361 O374 1.270 . S
C361 O375 1.248 . S
C362 O376 1.267 . S
C362 O377 1.278 . S
C363 Pr353 2.880 . S
C363 C364 1.491 . S
C363 O378 1.254 . S
C363 O379 1.225 . S
C364 C363 1.491 . S
C364 C365 1.392 . S
C364 C369 1.356 . S
C365 C364 1.392 . S
C365 C366 1.368 . S
C365 H388 0.929 . S
C366 C365 1.368 . S
C366 C367 1.386 . S
C366 H389 0.929 . S
C367 C366 1.386 . S
C367 C368 1.373 . S
C368 C367 1.373 . S
C368 C369 1.409 . S
C368 H390 0.931 . S
C369 C364 1.356 . S
C369 C368 1.409 . S
C369 H391 0.930 . S
C370 O380 1.270 . S
C370 O381 1.248 . S
C371 O382 1.267 . S
C371 O383 1.278 . S
O372 Pr352 2.562 . S
O372 C354 1.254 . S
O373 Pr352 2.490 . S
O373 C354 1.225 . S
O374 Pr352 2.695 . S
O374 Pr353 2.436 . S
O374 C361 1.270 . S
O375 Pr352 2.512 . S
O375 C361 1.248 . S
O376 Pr353 2.438 . S
O376 C362 1.267 . S
O377 Pr352 2.437 . S
O377 C362 1.278 . S
O378 Pr353 2.562 . S
O378 C363 1.254 . S
O379 Pr353 2.490 . S
O379 C363 1.225 . S
O380 Pr352 2.436 . S
O380 Pr353 2.695 . S
O380 C370 1.270 . S
O381 Pr353 2.512 . S
O381 C370 1.248 . S
O382 Pr352 2.438 . S
O382 C371 1.267 . S
O383 Pr353 2.437 . S
O383 C371 1.278 . S
H384 C356 0.929 . S
H385 C357 0.929 . S
H386 C359 0.931 . S
H387 C360 0.930 . S
H388 C365 0.929 . S
H389 C366 0.929 . S
H390 C368 0.931 . S
H391 C369 0.930 . S
Pr392 C394 2.880 . S
Pr392 O412 2.562 . S
Pr392 O413 2.490 . S
Pr392 O414 2.695 . S
Pr392 O415 2.512 . S
Pr392 O417 2.437 . S
Pr392 O420 2.436 . S
Pr392 O422 2.438 . S
Pr393 C403 2.880 . S
Pr393 O414 2.436 . S
Pr393 O416 2.438 . S
Pr393 O418 2.562 . S
Pr393 O419 2.490 . S
Pr393 O420 2.695 . S
Pr393 O421 2.512 . S
Pr393 O423 2.437 . S
C394 Pr392 2.880 . S
C394 C395 1.491 . S
C394 O412 1.254 . S
C394 O413 1.225 . S
C395 C394 1.491 . S
C395 C396 1.392 . S
C395 C400 1.356 . S
C396 C395 1.392 . S
C396 C397 1.368 . S
C396 H424 0.929 . S
C397 C396 1.368 . S
C397 C398 1.350 1_545 S
C397 H425 0.929 . S
C398 C397 1.350 1_565 S
C398 C399 1.380 . S
C399 C398 1.380 . S
C399 C400 1.409 1_565 S
C399 H426 0.931 . S
C400 C395 1.356 . S
C400 C399 1.409 1_545 S
C400 H427 0.930 . S
C401 O414 1.270 . S
C401 O415 1.248 . S
C402 O416 1.267 . S
C402 O417 1.278 . S
C403 Pr393 2.880 . S
C403 C404 1.491 . S
C403 O418 1.254 . S
C403 O419 1.225 . S
C404 C403 1.491 . S
C404 C405 1.392 . S
C404 C409 1.356 . S
C405 C404 1.392 . S
C405 C406 1.368 . S
C405 H428 0.929 . S
C406 C405 1.368 . S
C406 C407 1.386 . S
C406 H429 0.929 . S
C407 C406 1.386 . S
C407 C408 1.373 . S
C408 C407 1.373 . S
C408 C409 1.409 . S
C408 H430 0.931 . S
C409 C404 1.356 . S
C409 C408 1.409 . S
C409 H431 0.930 . S
C410 O420 1.270 . S
C410 O421 1.248 . S
C411 O422 1.267 . S
C411 O423 1.278 . S
O412 Pr392 2.562 . S
O412 C394 1.254 . S
O413 Pr392 2.490 . S
O413 C394 1.225 . S
O414 Pr392 2.695 . S
O414 Pr393 2.436 . S
O414 C401 1.270 . S
O415 Pr392 2.512 . S
O415 C401 1.248 . S
O416 Pr393 2.438 . S
O416 C402 1.267 . S
O417 Pr392 2.437 . S
O417 C402 1.278 . S
O418 Pr393 2.562 . S
O418 C403 1.254 . S
O419 Pr393 2.490 . S
O419 C403 1.225 . S
O420 Pr392 2.436 . S
O420 Pr393 2.695 . S
O420 C410 1.270 . S
O421 Pr393 2.512 . S
O421 C410 1.248 . S
O422 Pr392 2.438 . S
O422 C411 1.267 . S
O423 Pr393 2.437 . S
O423 C411 1.278 . S
H424 C396 0.929 . S
H425 C397 0.929 . S
H426 C399 0.931 . S
H427 C400 0.930 . S
H428 C405 0.929 . S
H429 C406 0.929 . S
H430 C408 0.931 . S
H431 C409 0.930 . S
Pr432 C434 2.880 . S
Pr432 O452 2.562 . S
Pr432 O453 2.490 . S
Pr432 O454 2.695 . S
Pr432 O455 2.512 . S
Pr432 O457 2.437 . S
Pr432 O460 2.436 . S
Pr432 O462 2.438 . S
Pr433 C443 2.880 . S
Pr433 O454 2.436 . S
Pr433 O456 2.438 . S
Pr433 O458 2.562 . S
Pr433 O459 2.490 . S
Pr433 O460 2.695 . S
Pr433 O461 2.512 . S
Pr433 O463 2.437 . S
C434 Pr432 2.880 . S
C434 C435 1.491 . S
C434 O452 1.254 . S
C434 O453 1.225 . S
C435 C434 1.491 . S
C435 C436 1.392 . S
C435 C440 1.356 . S
C436 C435 1.392 . S
C436 C437 1.368 . S
C436 H464 0.929 . S
C437 C436 1.368 . S
C437 C438 1.386 . S
C437 H465 0.929 . S
C438 C437 1.386 . S
C438 C439 1.373 . S
C439 C438 1.373 . S
C439 C440 1.409 . S
C439 H466 0.931 . S
C440 C435 1.356 . S
C440 C439 1.409 . S
C440 H467 0.930 . S
C441 O454 1.270 . S
C441 O455 1.248 . S
C442 O456 1.267 . S
C442 O457 1.278 . S
C443 Pr433 2.880 . S
C443 C444 1.491 . S
C443 O458 1.254 . S
C443 O459 1.225 . S
C444 C443 1.491 . S
C444 C445 1.392 . S
C444 C449 1.356 . S
C445 C444 1.392 . S
C445 C446 1.368 . S
C445 H468 0.929 . S
C446 C445 1.368 . S
C446 C447 1.386 . S
C446 H469 0.929 . S
C447 C446 1.386 . S
C447 C448 1.373 . S
C448 C447 1.373 . S
C448 C449 1.409 . S
C448 H470 0.931 . S
C449 C444 1.356 . S
C449 C448 1.409 . S
C449 H471 0.930 . S
C450 O460 1.270 . S
C450 O461 1.248 . S
C451 O462 1.267 . S
C451 O463 1.278 . S
O452 Pr432 2.562 . S
O452 C434 1.254 . S
O453 Pr432 2.490 . S
O453 C434 1.225 . S
O454 Pr432 2.695 . S
O454 Pr433 2.436 . S
O454 C441 1.270 . S
O455 Pr432 2.512 . S
O455 C441 1.248 . S
O456 Pr433 2.438 . S
O456 C442 1.267 . S
O457 Pr432 2.437 . S
O457 C442 1.278 . S
O458 Pr433 2.562 . S
O458 C443 1.254 . S
O459 Pr433 2.490 . S
O459 C443 1.225 . S
O460 Pr432 2.436 . S
O460 Pr433 2.695 . S
O460 C450 1.270 . S
O461 Pr433 2.512 . S
O461 C450 1.248 . S
O462 Pr432 2.438 . S
O462 C451 1.267 . S
O463 Pr433 2.437 . S
O463 C451 1.278 . S
H464 C436 0.929 . S
H465 C437 0.929 . S
H466 C439 0.931 . S
H467 C440 0.930 . S
H468 C445 0.929 . S
H469 C446 0.929 . S
H470 C448 0.931 . S
H471 C449 0.930 . S
Pr472 C474 2.880 . S
Pr472 O492 2.562 . S
Pr472 O493 2.490 . S
Pr472 O494 2.695 . S
Pr472 O495 2.512 . S
Pr472 O497 2.437 . S
Pr472 O500 2.436 . S
Pr472 O502 2.438 . S
Pr473 C483 2.880 . S
Pr473 O494 2.436 . S
Pr473 O496 2.438 . S
Pr473 O498 2.562 . S
Pr473 O499 2.490 . S
Pr473 O500 2.695 . S
Pr473 O501 2.512 . S
Pr473 O503 2.437 . S
C474 Pr472 2.880 . S
C474 C475 1.491 . S
C474 O492 1.254 . S
C474 O493 1.225 . S
C475 C474 1.491 . S
C475 C476 1.392 . S
C475 C480 1.356 . S
C476 C475 1.392 . S
C476 C477 1.368 . S
C476 H504 0.929 . S
C477 C476 1.368 . S
C477 C478 1.386 . S
C477 H505 0.929 . S
C478 C477 1.386 . S
C478 C479 1.373 . S
C479 C478 1.373 . S
C479 C480 1.409 . S
C479 H506 0.931 1_455 S
C480 C475 1.356 . S
C480 C479 1.409 . S
C480 H507 0.930 . S
C481 O494 1.270 . S
C481 O495 1.248 . S
C482 O496 1.267 . S
C482 O497 1.278 . S
C483 Pr473 2.880 . S
C483 C484 1.491 . S
C483 O498 1.254 . S
C483 O499 1.225 . S
C484 C483 1.491 . S
C484 C485 1.392 . S
C484 C489 1.356 . S
C485 C484 1.392 . S
C485 C486 1.368 . S
C485 H508 0.929 . S
C486 C485 1.368 . S
C486 C487 1.386 . S
C486 H509 0.929 . S
C487 C486 1.386 . S
C487 C488 1.373 . S
C488 C487 1.373 . S
C488 C489 1.409 . S
C488 H510 0.931 . S
C489 C484 1.356 . S
C489 C488 1.409 . S
C489 H511 0.930 . S
C490 O500 1.270 . S
C490 O501 1.248 . S
C491 O502 1.267 . S
C491 O503 1.278 . S
O492 Pr472 2.562 . S
O492 C474 1.254 . S
O493 Pr472 2.490 . S
O493 C474 1.225 . S
O494 Pr472 2.695 . S
O494 Pr473 2.436 . S
O494 C481 1.270 . S
O495 Pr472 2.512 . S
O495 C481 1.248 . S
O496 Pr473 2.438 . S
O496 C482 1.267 . S
O497 Pr472 2.437 . S
O497 C482 1.278 . S
O498 Pr473 2.562 . S
O498 C483 1.254 . S
O499 Pr473 2.490 . S
O499 C483 1.225 . S
O500 Pr472 2.436 . S
O500 Pr473 2.695 . S
O500 C490 1.270 . S
O501 Pr473 2.512 . S
O501 C490 1.248 . S
O502 Pr472 2.438 . S
O502 C491 1.267 . S
O503 Pr473 2.437 . S
O503 C491 1.278 . S
H504 C476 0.929 . S
H505 C477 0.929 . S
H506 C479 0.931 1_655 S
H507 C480 0.930 . S
H508 C485 0.929 . S
H509 C486 0.929 . S
H510 C488 0.931 . S
H511 C489 0.930 . S
Pr512 C514 2.880 . S
Pr512 O532 2.562 . S
Pr512 O533 2.490 . S
Pr512 O534 2.695 . S
Pr512 O535 2.512 . S
Pr512 O537 2.437 . S
Pr512 O540 2.436 . S
Pr512 O542 2.438 . S
Pr513 C523 2.880 . S
Pr513 O534 2.436 . S
Pr513 O536 2.438 . S
Pr513 O538 2.562 . S
Pr513 O539 2.490 . S
Pr513 O540 2.695 . S
Pr513 O541 2.512 . S
Pr513 O543 2.437 . S
C514 Pr512 2.880 . S
C514 C515 1.491 . S
C514 O532 1.254 . S
C514 O533 1.225 . S
C515 C514 1.491 . S
C515 C516 1.392 . S
C515 C520 1.356 . S
C516 C515 1.392 . S
C516 C517 1.368 . S
C516 H544 0.929 . S
C517 C516 1.368 . S
C517 C518 1.386 . S
C517 H545 0.929 . S
C518 C517 1.386 . S
C518 C519 1.373 . S
C519 C518 1.373 . S
C519 C520 1.409 . S
C519 H546 0.931 . S
C520 C515 1.356 . S
C520 C519 1.409 . S
C520 H547 0.930 . S
C521 O534 1.270 . S
C521 O535 1.248 . S
C522 O536 1.267 . S
C522 O537 1.278 . S
C523 Pr513 2.880 . S
C523 C524 1.491 . S
C523 O538 1.254 . S
C523 O539 1.225 . S
C524 C523 1.491 . S
C524 C525 1.392 . S
C524 C529 1.356 . S
C525 C524 1.392 . S
C525 C526 1.368 . S
C525 H548 0.929 . S
C526 C525 1.368 . S
C526 C527 1.386 . S
C526 H549 0.929 . S
C527 C526 1.386 . S
C527 C528 1.373 . S
C528 C527 1.373 . S
C528 C529 1.409 . S
C528 H550 0.931 . S
C529 C524 1.356 . S
C529 C528 1.409 . S
C529 H551 0.930 . S
C530 O540 1.270 . S
C530 O541 1.248 . S
C531 O542 1.267 . S
C531 O543 1.278 . S
O532 Pr512 2.562 . S
O532 C514 1.254 . S
O533 Pr512 2.490 . S
O533 C514 1.225 . S
O534 Pr512 2.695 . S
O534 Pr513 2.436 . S
O534 C521 1.270 . S
O535 Pr512 2.512 . S
O535 C521 1.248 . S
O536 Pr513 2.438 . S
O536 C522 1.267 . S
O537 Pr512 2.437 . S
O537 C522 1.278 . S
O538 Pr513 2.562 . S
O538 C523 1.254 . S
O539 Pr513 2.490 . S
O539 C523 1.225 . S
O540 Pr512 2.436 . S
O540 Pr513 2.695 . S
O540 C530 1.270 . S
O541 Pr513 2.512 . S
O541 C530 1.248 . S
O542 Pr512 2.438 . S
O542 C531 1.267 . S
O543 Pr513 2.437 . S
O543 C531 1.278 . S
H544 C516 0.929 . S
H545 C517 0.929 . S
H546 C519 0.931 . S
H547 C520 0.930 . S
H548 C525 0.929 . S
H549 C526 0.929 . S
H550 C528 0.931 . S
H551 C529 0.930 . S
Pr552 C554 2.880 . S
Pr552 O572 2.562 . S
Pr552 O573 2.490 . S
Pr552 O574 2.695 . S
Pr552 O575 2.512 . S
Pr552 O577 2.437 . S
Pr552 O580 2.436 . S
Pr552 O582 2.438 . S
Pr553 C563 2.880 . S
Pr553 O574 2.436 1_556 S
Pr553 O576 2.425 1_556 S
Pr553 O578 2.562 . S
Pr553 O579 2.490 . S
Pr553 O580 2.695 1_556 S
Pr553 O581 2.527 . S
Pr553 O583 2.437 . S
C554 Pr552 2.880 . S
C554 C555 1.491 . S
C554 O572 1.254 . S
C554 O573 1.225 . S
C555 C554 1.491 . S
C555 C556 1.392 . S
C555 C560 1.356 . S
C556 C555 1.392 . S
C556 C557 1.368 . S
C556 H584 0.929 . S
C557 C556 1.368 . S
C557 C558 1.386 . S
C557 H585 0.929 . S
C558 C557 1.386 . S
C558 C559 1.373 . S
C559 C558 1.373 . S
C559 C560 1.409 . S
C559 H586 0.931 . S
C560 C555 1.356 . S
C560 C559 1.409 . S
C560 H587 0.930 . S
C561 O574 1.270 . S
C561 O575 1.248 . S
C562 O576 1.289 . S
C562 O577 1.278 . S
C563 Pr553 2.880 . S
C563 C564 1.491 . S
C563 O578 1.254 . S
C563 O579 1.225 . S
C564 C563 1.491 . S
C564 C565 1.392 . S
C564 C569 1.356 . S
C565 C564 1.392 . S
C565 C566 1.368 . S
C565 H588 0.929 . S
C566 C565 1.368 . S
C566 C567 1.386 . S
C566 H589 0.929 . S
C567 C566 1.386 . S
C567 C568 1.373 . S
C568 C567 1.373 . S
C568 C569 1.409 . S
C568 H590 0.931 . S
C569 C564 1.356 . S
C569 C568 1.409 . S
C569 H591 0.930 . S
C570 O580 1.270 . S
C570 O581 1.201 1_554 S
C571 O582 1.267 . S
C571 O583 1.278 1_554 S
O572 Pr552 2.562 . S
O572 C554 1.254 . S
O573 Pr552 2.490 . S
O573 C554 1.225 . S
O574 Pr552 2.695 . S
O574 Pr553 2.436 1_554 S
O574 C561 1.270 . S
O575 Pr552 2.512 . S
O575 C561 1.248 . S
O576 Pr553 2.425 1_554 S
O576 C562 1.289 . S
O577 Pr552 2.437 . S
O577 C562 1.278 . S
O578 Pr553 2.562 . S
O578 C563 1.254 . S
O579 Pr553 2.490 . S
O579 C563 1.225 . S
O580 Pr552 2.436 . S
O580 Pr553 2.695 1_554 S
O580 C570 1.270 . S
O581 Pr553 2.527 . S
O581 C570 1.201 1_556 S
O582 Pr552 2.438 . S
O582 C571 1.267 . S
O583 Pr553 2.437 . S
O583 C571 1.278 1_556 S
H584 C556 0.929 . S
H585 C557 0.929 . S
H586 C559 0.931 . S
H587 C560 0.930 . S
H588 C565 0.929 . S
H589 C566 0.929 . S
H590 C568 0.931 . S
H591 C569 0.930 . S
Pr592 C594 2.880 . S
Pr592 O612 2.562 . S
Pr592 O613 2.490 . S
Pr592 O614 2.695 . S
Pr592 O615 2.512 . S
Pr592 O617 2.437 . S
Pr592 O620 2.436 . S
Pr592 O622 2.438 . S
Pr593 C603 2.880 . S
Pr593 O614 2.436 . S
Pr593 O616 2.438 . S
Pr593 O618 2.562 . S
Pr593 O619 2.490 . S
Pr593 O620 2.695 . S
Pr593 O621 2.512 . S
Pr593 O623 2.437 . S
C594 Pr592 2.880 . S
C594 C595 1.491 . S
C594 O612 1.254 . S
C594 O613 1.225 . S
C595 C594 1.491 . S
C595 C596 1.392 . S
C595 C600 1.356 . S
C596 C595 1.392 . S
C596 C597 1.368 . S
C596 H624 0.929 . S
C597 C596 1.368 . S
C597 C598 1.386 . S
C597 H625 0.929 . S
C598 C597 1.386 . S
C598 C599 1.373 . S
C599 C598 1.373 . S
C599 C600 1.409 . S
C599 H626 0.931 . S
C600 C595 1.356 . S
C600 C599 1.409 . S
C600 H627 0.930 . S
C601 O614 1.270 . S
C601 O615 1.248 . S
C602 O616 1.267 . S
C602 O617 1.278 . S
C603 Pr593 2.880 . S
C603 C604 1.491 . S
C603 O618 1.254 . S
C603 O619 1.225 . S
C604 C603 1.491 . S
C604 C605 1.392 . S
C604 C609 1.356 . S
C605 C604 1.392 . S
C605 C606 1.368 . S
C605 H628 0.929 . S
C606 C605 1.368 . S
C606 C607 1.386 . S
C606 H629 0.929 . S
C607 C606 1.386 . S
C607 C608 1.373 . S
C608 C607 1.373 . S
C608 C609 1.409 . S
C608 H630 0.931 . S
C609 C604 1.356 . S
C609 C608 1.409 . S
C609 H631 0.930 . S
C610 O620 1.270 . S
C610 O621 1.248 . S
C611 O622 1.267 . S
C611 O623 1.278 . S
O612 Pr592 2.562 . S
O612 C594 1.254 . S
O613 Pr592 2.490 . S
O613 C594 1.225 . S
O614 Pr592 2.695 . S
O614 Pr593 2.436 . S
O614 C601 1.270 . S
O615 Pr592 2.512 . S
O615 C601 1.248 . S
O616 Pr593 2.438 . S
O616 C602 1.267 . S
O617 Pr592 2.437 . S
O617 C602 1.278 . S
O618 Pr593 2.562 . S
O618 C603 1.254 . S
O619 Pr593 2.490 . S
O619 C603 1.225 . S
O620 Pr592 2.436 . S
O620 Pr593 2.695 . S
O620 C610 1.270 . S
O621 Pr593 2.512 . S
O621 C610 1.248 . S
O622 Pr592 2.438 . S
O622 C611 1.267 . S
O623 Pr593 2.437 . S
O623 C611 1.278 . S
H624 C596 0.929 . S
H625 C597 0.929 . S
H626 C599 0.931 . S
H627 C600 0.930 . S
H628 C605 0.929 . S
H629 C606 0.929 . S
H630 C608 0.931 . S
H631 C609 0.930 . S
Pr632 C634 2.880 . S
Pr632 O652 2.562 . S
Pr632 O653 2.490 . S
Pr632 O654 2.695 1_556 S
Pr632 O655 2.512 . S
Pr632 O657 2.437 . S
Pr632 O660 2.436 1_556 S
Pr632 O662 2.438 1_556 S
Pr633 C643 2.880 . S
Pr633 O654 2.436 . S
Pr633 O656 2.438 . S
Pr633 O658 2.562 . S
Pr633 O659 2.490 . S
Pr633 O660 2.695 . S
Pr633 O661 2.512 . S
Pr633 O663 2.437 . S
C634 Pr632 2.880 . S
C634 C635 1.491 . S
C634 O652 1.254 . S
C634 O653 1.225 . S
C635 C634 1.491 . S
C635 C636 1.392 . S
C635 C640 1.356 . S
C636 C635 1.392 . S
C636 C637 1.368 . S
C636 H664 0.929 . S
C637 C636 1.368 . S
C637 C638 1.386 . S
C637 H665 0.929 . S
C638 C637 1.386 . S
C638 C639 1.373 . S
C639 C638 1.373 . S
C639 C640 1.409 . S
C639 H666 0.931 . S
C640 C635 1.356 . S
C640 C639 1.409 . S
C640 H667 0.930 . S
C641 O654 1.270 . S
C641 O655 1.248 1_554 S
C642 O656 1.264 1_556 S
C642 O657 1.279 . S
C643 Pr633 2.880 . S
C643 C644 1.491 . S
C643 O658 1.254 . S
C643 O659 1.225 . S
C644 C643 1.491 . S
C644 C645 1.392 . S
C644 C649 1.356 . S
C645 C644 1.392 . S
C645 C646 1.368 . S
C645 H668 0.929 . S
C646 C645 1.368 . S
C646 C647 1.386 . S
C646 H669 0.929 . S
C647 C646 1.386 . S
C647 C648 1.373 . S
C648 C647 1.373 . S
C648 C649 1.409 . S
C648 H670 0.931 . S
C649 C644 1.356 . S
C649 C648 1.409 . S
C649 H671 0.930 . S
C650 O660 1.270 . S
C650 O661 1.248 . S
C651 O662 1.267 . S
C651 O663 1.278 . S
O652 Pr632 2.562 . S
O652 C634 1.254 . S
O653 Pr632 2.490 . S
O653 C634 1.225 . S
O654 Pr632 2.695 1_554 S
O654 Pr633 2.436 . S
O654 C641 1.270 . S
O655 Pr632 2.512 . S
O655 C641 1.248 1_556 S
O656 Pr633 2.438 . S
O656 C642 1.264 1_554 S
O657 Pr632 2.437 . S
O657 C642 1.279 . S
O658 Pr633 2.562 . S
O658 C643 1.254 . S
O659 Pr633 2.490 . S
O659 C643 1.225 . S
O660 Pr632 2.436 1_554 S
O660 Pr633 2.695 . S
O660 C650 1.270 . S
O661 Pr633 2.512 . S
O661 C650 1.248 . S
O662 Pr632 2.438 1_554 S
O662 C651 1.267 . S
O663 Pr633 2.437 . S
O663 C651 1.278 . S
H664 C636 0.929 . S
H665 C637 0.929 . S
H666 C639 0.931 . S
H667 C640 0.930 . S
H668 C645 0.929 . S
H669 C646 0.929 . S
H670 C648 0.931 . S
H671 C649 0.930 . S
Pr672 C674 2.880 . S
Pr672 O692 2.562 . S
Pr672 O693 2.490 . S
Pr672 O694 2.695 . S
Pr672 O695 2.512 . S
Pr672 O697 2.437 . S
Pr672 O700 2.436 . S
Pr672 O702 2.438 . S
Pr673 C683 2.880 . S
Pr673 O694 2.436 . S
Pr673 O696 2.438 . S
Pr673 O698 2.562 . S
Pr673 O699 2.490 . S
Pr673 O700 2.695 . S
Pr673 O701 2.512 . S
Pr673 O703 2.437 . S
C674 Pr672 2.880 . S
C674 C675 1.491 . S
C674 O692 1.254 . S
C674 O693 1.225 . S
C675 C674 1.491 . S
C675 C676 1.392 . S
C675 C680 1.356 . S
C676 C675 1.392 . S
C676 C677 1.368 . S
C676 H704 0.929 . S
C677 C676 1.368 . S
C677 C678 1.386 . S
C677 H705 0.929 . S
C678 C677 1.386 . S
C678 C679 1.373 . S
C679 C678 1.373 . S
C679 C680 1.409 . S
C679 H706 0.931 . S
C680 C675 1.356 . S
C680 C679 1.409 . S
C680 H707 0.930 . S
C681 O694 1.270 . S
C681 O695 1.248 . S
C682 O696 1.267 . S
C682 O697 1.278 . S
C683 Pr673 2.880 . S
C683 C684 1.491 . S
C683 O698 1.254 . S
C683 O699 1.225 . S
C684 C683 1.491 . S
C684 C685 1.392 . S
C684 C689 1.356 . S
C685 C684 1.392 . S
C685 C686 1.368 . S
C685 H708 0.929 . S
C686 C685 1.368 . S
C686 C687 1.386 . S
C686 H709 0.929 . S
C687 C686 1.386 . S
C687 C688 1.373 . S
C688 C687 1.373 . S
C688 C689 1.409 . S
C688 H710 0.931 . S
C689 C684 1.356 . S
C689 C688 1.409 . S
C689 H711 0.930 . S
C690 O700 1.270 . S
C690 O701 1.248 . S
C691 O702 1.267 . S
C691 O703 1.278 . S
O692 Pr672 2.562 . S
O692 C674 1.254 . S
O693 Pr672 2.490 . S
O693 C674 1.225 . S
O694 Pr672 2.695 . S
O694 Pr673 2.436 . S
O694 C681 1.270 . S
O695 Pr672 2.512 . S
O695 C681 1.248 . S
O696 Pr673 2.438 . S
O696 C682 1.267 . S
O697 Pr672 2.437 . S
O697 C682 1.278 . S
O698 Pr673 2.562 . S
O698 C683 1.254 . S
O699 Pr673 2.490 . S
O699 C683 1.225 . S
O700 Pr672 2.436 . S
O700 Pr673 2.695 . S
O700 C690 1.270 . S
O701 Pr673 2.512 . S
O701 C690 1.248 . S
O702 Pr672 2.438 . S
O702 C691 1.267 . S
O703 Pr673 2.437 . S
O703 C691 1.278 . S
H704 C676 0.929 . S
H705 C677 0.929 . S
H706 C679 0.931 . S
H707 C680 0.930 . S
H708 C685 0.929 . S
H709 C686 0.929 . S
H710 C688 0.931 . S
H711 C689 0.930 . S
Pr712 C714 2.880 . S
Pr712 O732 2.562 . S
Pr712 O733 2.490 . S
Pr712 O734 2.695 . S
Pr712 O735 2.512 . S
Pr712 O737 2.437 . S
Pr712 O740 2.436 . S
Pr712 O742 2.438 . S
Pr713 C723 2.880 . S
Pr713 O734 2.436 . S
Pr713 O736 2.438 1_455 S
Pr713 O738 2.562 . S
Pr713 O739 2.490 . S
Pr713 O740 2.695 . S
Pr713 O741 2.512 . S
Pr713 O743 2.437 . S
C714 Pr712 2.880 . S
C714 C715 1.491 . S
C714 O732 1.254 . S
C714 O733 1.225 . S
C715 C714 1.491 . S
C715 C716 1.392 . S
C715 C720 1.356 . S
C716 C715 1.392 . S
C716 C717 1.368 . S
C716 H744 0.929 . S
C717 C716 1.368 . S
C717 C718 1.386 1_455 S
C717 H745 0.929 . S
C718 C717 1.386 1_655 S
C718 C719 1.373 . S
C719 C718 1.373 . S
C719 C720 1.409 1_655 S
C719 H746 0.931 . S
C720 C715 1.356 . S
C720 C719 1.409 1_455 S
C720 H747 0.938 . S
C721 O734 1.270 . S
C721 O735 1.248 . S
C722 O736 1.267 . S
C722 O737 1.278 1_655 S
C723 Pr713 2.880 . S
C723 C724 1.491 . S
C723 O738 1.254 . S
C723 O739 1.225 . S
C724 C723 1.491 . S
C724 C725 1.392 . S
C724 C729 1.356 . S
C725 C724 1.392 . S
C725 C726 1.368 . S
C725 H748 0.929 . S
C726 C725 1.368 . S
C726 C727 1.386 . S
C726 H749 0.929 . S
C727 C726 1.386 . S
C727 C728 1.373 . S
C728 C727 1.373 . S
C728 C729 1.409 . S
C728 H750 0.931 . S
C729 C724 1.356 . S
C729 C728 1.409 . S
C729 H751 0.930 . S
C730 O740 1.270 . S
C730 O741 1.248 . S
C731 O742 1.267 . S
C731 O743 1.278 . S
O732 Pr712 2.562 . S
O732 C714 1.254 . S
O733 Pr712 2.490 . S
O733 C714 1.225 . S
O734 Pr712 2.695 . S
O734 Pr713 2.436 . S
O734 C721 1.270 . S
O735 Pr712 2.512 . S
O735 C721 1.248 . S
O736 Pr713 2.438 1_655 S
O736 C722 1.267 . S
O737 Pr712 2.437 . S
O737 C722 1.278 1_455 S
O738 Pr713 2.562 . S
O738 C723 1.254 . S
O739 Pr713 2.490 . S
O739 C723 1.225 . S
O740 Pr712 2.436 . S
O740 Pr713 2.695 . S
O740 C730 1.270 . S
O741 Pr713 2.512 . S
O741 C730 1.248 . S
O742 Pr712 2.438 . S
O742 C731 1.267 . S
O743 Pr713 2.437 . S
O743 C731 1.278 . S
H744 C716 0.929 . S
H745 C717 0.929 . S
H746 C719 0.931 . S
H747 C720 0.938 . S
H748 C725 0.929 . S
H749 C726 0.929 . S
H750 C728 0.931 . S
H751 C729 0.930 . S
Pr752 C754 2.880 . S
Pr752 O772 2.562 . S
Pr752 O773 2.490 . S
Pr752 O774 2.695 . S
Pr752 O775 2.512 . S
Pr752 O777 2.437 . S
Pr752 O780 2.436 . S
Pr752 O782 2.438 . S
Pr753 C763 2.880 . S
Pr753 O774 2.436 . S
Pr753 O776 2.438 . S
Pr753 O778 2.562 . S
Pr753 O779 2.490 . S
Pr753 O780 2.695 . S
Pr753 O781 2.512 . S
Pr753 O783 2.437 . S
C754 Pr752 2.880 . S
C754 C755 1.491 . S
C754 O772 1.254 . S
C754 O773 1.225 . S
C755 C754 1.491 . S
C755 C756 1.392 . S
C755 C760 1.356 . S
C756 C755 1.392 . S
C756 C757 1.368 . S
C756 H784 0.929 . S
C757 C756 1.368 . S
C757 C758 1.386 . S
C757 H785 0.929 . S
C758 C757 1.386 . S
C758 C759 1.373 . S
C759 C758 1.373 . S
C759 C760 1.409 . S
C759 H786 0.931 . S
C760 C755 1.356 . S
C760 C759 1.409 . S
C760 H787 0.930 . S
C761 O774 1.270 . S
C761 O775 1.248 . S
C762 O776 1.267 . S
C762 O777 1.278 . S
C763 Pr753 2.880 . S
C763 C764 1.491 . S
C763 O778 1.254 . S
C763 O779 1.225 . S
C764 C763 1.491 . S
C764 C765 1.392 . S
C764 C769 1.356 . S
C765 C764 1.392 . S
C765 C766 1.368 . S
C765 H788 0.929 . S
C766 C765 1.368 . S
C766 C767 1.386 . S
C766 H789 0.929 . S
C767 C766 1.386 . S
C767 C768 1.373 . S
C768 C767 1.373 . S
C768 C769 1.409 . S
C768 H790 0.931 . S
C769 C764 1.356 . S
C769 C768 1.409 . S
C769 H791 0.930 . S
C770 O780 1.270 . S
C770 O781 1.248 . S
C771 O782 1.267 . S
C771 O783 1.278 . S
O772 Pr752 2.562 . S
O772 C754 1.254 . S
O773 Pr752 2.490 . S
O773 C754 1.225 . S
O774 Pr752 2.695 . S
O774 Pr753 2.436 . S
O774 C761 1.270 . S
O775 Pr752 2.512 . S
O775 C761 1.248 . S
O776 Pr753 2.438 . S
O776 C762 1.267 . S
O777 Pr752 2.437 . S
O777 C762 1.278 . S
O778 Pr753 2.562 . S
O778 C763 1.254 . S
O779 Pr753 2.490 . S
O779 C763 1.225 . S
O780 Pr752 2.436 . S
O780 Pr753 2.695 . S
O780 C770 1.270 . S
O781 Pr753 2.512 . S
O781 C770 1.248 . S
O782 Pr752 2.438 . S
O782 C771 1.267 . S
O783 Pr753 2.437 . S
O783 C771 1.278 . S
H784 C756 0.929 . S
H785 C757 0.929 . S
H786 C759 0.931 . S
H787 C760 0.930 . S
H788 C765 0.929 . S
H789 C766 0.929 . S
H790 C768 0.931 . S
H791 C769 0.930 . S
Pr792 C794 2.880 . S
Pr792 O812 2.562 . S
Pr792 O813 2.490 . S
Pr792 O814 2.695 . S
Pr792 O815 2.512 . S
Pr792 O817 2.437 . S
Pr792 O820 2.436 . S
Pr792 O822 2.438 . S
Pr793 C803 2.880 . S
Pr793 O814 2.436 . S
Pr793 O816 2.438 . S
Pr793 O818 2.562 . S
Pr793 O819 2.490 . S
Pr793 O820 2.695 . S
Pr793 O821 2.512 . S
Pr793 O823 2.437 . S
C794 Pr792 2.880 . S
C794 C795 1.491 . S
C794 O812 1.254 . S
C794 O813 1.225 . S
C795 C794 1.491 . S
C795 C796 1.392 . S
C795 C800 1.356 . S
C796 C795 1.392 . S
C796 C797 1.368 . S
C796 H824 0.929 . S
C797 C796 1.368 . S
C797 C798 1.386 . S
C797 H825 0.929 . S
C798 C797 1.386 . S
C798 C799 1.373 . S
C799 C798 1.373 . S
C799 C800 1.409 . S
C799 H826 0.931 . S
C800 C795 1.356 . S
C800 C799 1.409 . S
C800 H827 0.930 . S
C801 O814 1.270 . S
C801 O815 1.248 . S
C802 O816 1.267 . S
C802 O817 1.278 . S
C803 Pr793 2.880 . S
C803 C804 1.491 . S
C803 O818 1.254 . S
C803 O819 1.225 . S
C804 C803 1.491 . S
C804 C805 1.392 . S
C804 C809 1.356 . S
C805 C804 1.392 . S
C805 C806 1.368 . S
C805 H828 0.929 . S
C806 C805 1.368 . S
C806 C807 1.386 . S
C806 H829 0.929 . S
C807 C806 1.386 . S
C807 C808 1.373 . S
C808 C807 1.373 . S
C808 C809 1.409 . S
C808 H830 0.931 . S
C809 C804 1.356 . S
C809 C808 1.409 . S
C809 H831 0.930 . S
C810 O820 1.270 . S
C810 O821 1.248 . S
C811 O822 1.267 . S
C811 O823 1.278 . S
O812 Pr792 2.562 . S
O812 C794 1.254 . S
O813 Pr792 2.490 . S
O813 C794 1.225 . S
O814 Pr792 2.695 . S
O814 Pr793 2.436 . S
O814 C801 1.270 . S
O815 Pr792 2.512 . S
O815 C801 1.248 . S
O816 Pr793 2.438 . S
O816 C802 1.267 . S
O817 Pr792 2.437 . S
O817 C802 1.278 . S
O818 Pr793 2.562 . S
O818 C803 1.254 . S
O819 Pr793 2.490 . S
O819 C803 1.225 . S
O820 Pr792 2.436 . S
O820 Pr793 2.695 . S
O820 C810 1.270 . S
O821 Pr793 2.512 . S
O821 C810 1.248 . S
O822 Pr792 2.438 . S
O822 C811 1.267 . S
O823 Pr793 2.437 . S
O823 C811 1.278 . S
H824 C796 0.929 . S
H825 C797 0.929 . S
H826 C799 0.931 . S
H827 C800 0.930 . S
H828 C805 0.929 . S
H829 C806 0.929 . S
H830 C808 0.931 . S
H831 C809 0.930 . S
Pr832 C834 2.880 . S
Pr832 O852 2.562 . S
Pr832 O853 2.490 . S
Pr832 O854 2.695 . S
Pr832 O855 2.512 . S
Pr832 O857 2.437 . S
Pr832 O860 2.436 . S
Pr832 O862 2.438 . S
Pr833 C843 2.880 . S
Pr833 O854 2.436 . S
Pr833 O856 2.438 . S
Pr833 O858 2.562 . S
Pr833 O859 2.490 . S
Pr833 O860 2.695 . S
Pr833 O861 2.512 . S
Pr833 O863 2.437 . S
C834 Pr832 2.880 . S
C834 C835 1.491 . S
C834 O852 1.254 . S
C834 O853 1.225 . S
C835 C834 1.491 . S
C835 C836 1.392 . S
C835 C840 1.356 . S
C836 C835 1.392 . S
C836 C837 1.368 . S
C836 H864 0.929 . S
C837 C836 1.368 . S
C837 C838 1.386 . S
C837 H865 0.929 . S
C838 C837 1.386 . S
C838 C839 1.373 . S
C839 C838 1.373 . S
C839 C840 1.409 . S
C839 H866 0.931 . S
C840 C835 1.356 . S
C840 C839 1.409 . S
C840 H867 0.930 . S
C841 O854 1.270 . S
C841 O855 1.248 . S
C842 O856 1.267 . S
C842 O857 1.278 . S
C843 Pr833 2.880 . S
C843 C844 1.491 . S
C843 O858 1.254 . S
C843 O859 1.225 . S
C844 C843 1.491 . S
C844 C845 1.392 . S
C844 C849 1.356 . S
C845 C844 1.392 . S
C845 C846 1.368 . S
C845 H868 0.929 . S
C846 C845 1.368 . S
C846 C847 1.386 . S
C846 H869 0.929 . S
C847 C846 1.386 . S
C847 C848 1.373 . S
C848 C847 1.373 . S
C848 C849 1.409 . S
C848 H870 0.931 . S
C849 C844 1.356 . S
C849 C848 1.409 . S
C849 H871 0.930 . S
C850 O860 1.270 . S
C850 O861 1.248 . S
C851 O862 1.267 . S
C851 O863 1.278 . S
O852 Pr832 2.562 . S
O852 C834 1.254 . S
O853 Pr832 2.490 . S
O853 C834 1.225 . S
O854 Pr832 2.695 . S
O854 Pr833 2.436 . S
O854 C841 1.270 . S
O855 Pr832 2.512 . S
O855 C841 1.248 . S
O856 Pr833 2.438 . S
O856 C842 1.267 . S
O857 Pr832 2.437 . S
O857 C842 1.278 . S
O858 Pr833 2.562 . S
O858 C843 1.254 . S
O859 Pr833 2.490 . S
O859 C843 1.225 . S
O860 Pr832 2.436 . S
O860 Pr833 2.695 . S
O860 C850 1.270 . S
O861 Pr833 2.512 . S
O861 C850 1.248 . S
O862 Pr832 2.438 . S
O862 C851 1.267 . S
O863 Pr833 2.437 . S
O863 C851 1.278 . S
H864 C836 0.929 . S
H865 C837 0.929 . S
H866 C839 0.931 . S
H867 C840 0.930 . S
H868 C845 0.929 . S
H869 C846 0.929 . S
H870 C848 0.931 . S
H871 C849 0.930 . S
Pr872 C874 2.880 . S
Pr872 O892 2.562 . S
Pr872 O893 2.490 . S
Pr872 O894 2.695 . S
Pr872 O895 2.512 . S
Pr872 O897 2.437 . S
Pr872 O900 2.436 . S
Pr872 O902 2.438 . S
Pr873 C883 2.880 . S
Pr873 O894 2.436 . S
Pr873 O896 2.438 . S
Pr873 O898 2.562 . S
Pr873 O899 2.490 . S
Pr873 O900 2.695 . S
Pr873 O901 2.512 . S
Pr873 O903 2.437 . S
C874 Pr872 2.880 . S
C874 C875 1.491 . S
C874 O892 1.254 . S
C874 O893 1.225 . S
C875 C874 1.491 . S
C875 C876 1.392 . S
C875 C880 1.356 . S
C876 C875 1.392 . S
C876 C877 1.368 . S
C876 H904 0.929 . S
C877 C876 1.368 . S
C877 C878 1.386 . S
C877 H905 0.929 . S
C878 C877 1.386 . S
C878 C879 1.373 . S
C879 C878 1.373 . S
C879 C880 1.409 . S
C879 H906 0.931 . S
C880 C875 1.356 . S
C880 C879 1.409 . S
C880 H907 0.930 . S
C881 O894 1.270 . S
C881 O895 1.248 . S
C882 O896 1.267 . S
C882 O897 1.278 . S
C883 Pr873 2.880 . S
C883 C884 1.491 . S
C883 O898 1.254 . S
C883 O899 1.225 . S
C884 C883 1.491 . S
C884 C885 1.392 . S
C884 C889 1.356 . S
C885 C884 1.392 . S
C885 C886 1.368 . S
C885 H908 0.929 . S
C886 C885 1.368 . S
C886 C887 1.386 . S
C886 H909 0.929 . S
C887 C886 1.386 . S
C887 C888 1.373 . S
C888 C887 1.373 . S
C888 C889 1.409 . S
C888 H910 0.931 . S
C889 C884 1.356 . S
C889 C888 1.409 . S
C889 H911 0.930 . S
C890 O900 1.270 . S
C890 O901 1.248 . S
C891 O902 1.267 . S
C891 O903 1.278 . S
O892 Pr872 2.562 . S
O892 C874 1.254 . S
O893 Pr872 2.490 . S
O893 C874 1.225 . S
O894 Pr872 2.695 . S
O894 Pr873 2.436 . S
O894 C881 1.270 . S
O895 Pr872 2.512 . S
O895 C881 1.248 . S
O896 Pr873 2.438 . S
O896 C882 1.267 . S
O897 Pr872 2.437 . S
O897 C882 1.278 . S
O898 Pr873 2.562 . S
O898 C883 1.254 . S
O899 Pr873 2.490 . S
O899 C883 1.225 . S
O900 Pr872 2.436 . S
O900 Pr873 2.695 . S
O900 C890 1.270 . S
O901 Pr873 2.512 . S
O901 C890 1.248 . S
O902 Pr872 2.438 . S
O902 C891 1.267 . S
O903 Pr873 2.437 . S
O903 C891 1.278 . S
H904 C876 0.929 . S
H905 C877 0.929 . S
H906 C879 0.931 . S
H907 C880 0.930 . S
H908 C885 0.929 . S
H909 C886 0.929 . S
H910 C888 0.931 . S
H911 C889 0.930 . S
Pr912 C914 2.880 . S
Pr912 O932 2.562 . S
Pr912 O933 2.490 . S
Pr912 O934 2.695 . S
Pr912 O935 2.512 1_554 S
Pr912 O937 2.437 . S
Pr912 O940 2.436 . S
Pr912 O942 2.438 . S
Pr913 C923 2.880 1_455 S
Pr913 O934 2.436 . S
Pr913 O936 2.438 . S
Pr913 O938 2.562 1_455 S
Pr913 O939 2.490 1_455 S
Pr913 O940 2.695 . S
Pr913 O941 2.512 . S
Pr913 O943 2.437 . S
C914 Pr912 2.880 . S
C914 C915 1.491 . S
C914 O932 1.254 . S
C914 O933 1.225 . S
C915 C914 1.491 . S
C915 C916 1.392 . S
C915 C920 1.356 . S
C916 C915 1.392 . S
C916 C917 1.368 1_554 S
C916 H944 0.929 1_554 S
C917 C916 1.368 1_556 S
C917 C918 1.386 1_556 S
C917 H945 0.929 . S
C918 C917 1.386 1_554 S
C918 C919 1.373 . S
C919 C918 1.373 . S
C919 C920 1.409 . S
C919 H946 0.931 . S
C920 C915 1.356 . S
C920 C919 1.409 . S
C920 H947 0.930 . S
C921 O934 1.270 . S
C921 O935 1.248 1_554 S
C922 O936 1.267 . S
C922 O937 1.278 . S
C923 Pr913 2.880 1_655 S
C923 C924 1.491 . S
C923 O938 1.254 . S
C923 O939 1.225 . S
C924 C923 1.491 . S
C924 C925 1.392 . S
C924 C929 1.356 . S
C925 C924 1.392 . S
C925 C926 1.368 . S
C925 H948 0.929 . S
C926 C925 1.368 . S
C926 C927 1.386 . S
C926 H949 0.929 . S
C927 C926 1.386 . S
C927 C928 1.373 . S
C928 C927 1.373 . S
C928 C929 1.409 . S
C928 H950 0.931 . S
C929 C924 1.356 . S
C929 C928 1.409 . S
C929 H951 0.930 . S
C930 O940 1.270 . S
C930 O941 1.248 . S
C931 O942 1.267 . S
C931 O943 1.278 . S
O932 Pr912 2.562 . S
O932 C914 1.254 . S
O933 Pr912 2.490 . S
O933 C914 1.225 . S
O934 Pr912 2.695 . S
O934 Pr913 2.436 . S
O934 C921 1.270 . S
O935 Pr912 2.512 1_556 S
O935 C921 1.248 1_556 S
O936 Pr913 2.438 . S
O936 C922 1.267 . S
O937 Pr912 2.437 . S
O937 C922 1.278 . S
O938 Pr913 2.562 1_655 S
O938 C923 1.254 . S
O939 Pr913 2.490 1_655 S
O939 C923 1.225 . S
O940 Pr912 2.436 . S
O940 Pr913 2.695 . S
O940 C930 1.270 . S
O941 Pr913 2.512 . S
O941 C930 1.248 . S
O942 Pr912 2.438 . S
O942 C931 1.267 . S
O943 Pr913 2.437 . S
O943 C931 1.278 . S
H944 C916 0.929 1_556 S
H945 C917 0.929 . S
H946 C919 0.931 . S
H947 C920 0.930 . S
H948 C925 0.929 . S
H949 C926 0.929 . S
H950 C928 0.931 . S
H951 C929 0.930 . S
H952 C960 0.929 . S
H953 C962 0.930 . S
H954 C964 0.930 . S
H955 C967 0.929 . S
H956 C970 0.930 . S
H957 C972 0.960 . S
H958 C972 0.960 . S
H959 C972 0.960 . S
C960 H952 0.929 . S
C960 C961 1.377 . S
C960 C962 1.384 . S
C961 C960 1.377 . S
C961 C967 1.390 . S
C962 H953 0.930 . S
C962 C960 1.384 . S
C962 C963 1.372 . S
C963 C962 1.372 . S
C963 C964 1.400 . S
C963 C968 1.490 . S
C964 H954 0.930 . S
C964 C963 1.400 . S
C964 C967 1.386 . S
H965 C981 0.930 . S
H966 C982 0.931 . S
C967 H955 0.929 . S
C967 C961 1.390 . S
C967 C964 1.386 . S
C968 C963 1.490 . S
C968 C970 1.395 . S
C968 C971 1.403 . S
H969 C975 0.930 . S
C970 H956 0.930 . S
C970 C968 1.395 . S
C970 C973 1.403 . S
C971 C968 1.403 . S
C971 C972 1.524 1_556 S
C971 C975 1.400 1_556 S
C972 H957 0.960 . S
C972 H958 0.960 . S
C972 H959 0.960 . S
C972 C971 1.524 1_554 S
C973 C970 1.403 . S
C973 C974 1.392 . S
C973 C977 1.495 . S
C974 C973 1.392 . S
C974 C975 1.385 1_556 S
C974 C976 1.478 1_556 S
C975 H969 0.930 . S
C975 C971 1.400 1_554 S
C975 C974 1.385 1_554 S
C976 C974 1.478 1_554 S
C976 C978 1.381 . S
C976 C982 1.383 . S
C977 C973 1.495 . S
C977 H983 0.959 . S
C977 H984 0.961 . S
C977 H985 0.960 . S
C978 C976 1.381 . S
C978 C979 1.394 . S
C978 H986 0.930 1_554 S
C979 C978 1.394 . S
C979 C980 1.383 . S
C979 H987 0.929 . S
C980 C979 1.383 . S
C980 C981 1.377 . S
C981 H965 0.930 . S
C981 C980 1.377 . S
C981 C982 1.379 . S
C982 H966 0.931 . S
C982 C976 1.383 . S
C982 C981 1.379 . S
H983 C977 0.959 . S
H984 C977 0.961 . S
H985 C977 0.960 . S
H986 C978 0.930 1_556 S
H987 C979 0.929 . S
H988 C996 0.929 . S
H989 C998 0.930 . S
H990 C1000 0.930 . S
H991 C1003 0.929 . S
H992 C1006 0.930 . S
H993 C1008 0.960 . S
H994 C1008 0.960 . S
H995 C1008 0.960 . S
C996 H988 0.929 . S
C996 C997 1.377 . S
C996 C998 1.384 . S
C997 C996 1.377 . S
C997 C1003 1.390 . S
C998 H989 0.930 . S
C998 C996 1.384 . S
C998 C999 1.372 . S
C999 C998 1.372 . S
C999 C1000 1.400 . S
C999 C1004 1.490 . S
C1000 H990 0.930 . S
C1000 C999 1.400 . S
C1000 C1003 1.386 . S
H1001 C1017 0.930 . S
H1002 C1018 0.931 . S
C1003 H991 0.929 . S
C1003 C997 1.390 . S
C1003 C1000 1.386 . S
C1004 C999 1.490 . S
C1004 C1006 1.395 . S
C1004 C1007 1.403 . S
H1005 C1011 0.930 . S
C1006 H992 0.930 . S
C1006 C1004 1.395 . S
C1006 C1009 1.403 . S
C1007 C1004 1.403 . S
C1007 C1008 1.524 . S
C1007 C1011 1.400 . S
C1008 H993 0.960 . S
C1008 H994 0.960 . S
C1008 H995 0.960 . S
C1008 C1007 1.524 . S
C1009 C1006 1.403 . S
C1009 C1010 1.392 . S
C1009 C1013 1.495 . S
C1010 C1009 1.392 . S
C1010 C1011 1.385 . S
C1010 C1012 1.478 . S
C1011 H1005 0.930 . S
C1011 C1007 1.400 . S
C1011 C1010 1.385 . S
C1012 C1010 1.478 . S
C1012 C1014 1.381 . S
C1012 C1018 1.383 . S
C1013 C1009 1.495 . S
C1013 H1019 0.959 . S
C1013 H1020 0.961 . S
C1013 H1021 0.960 . S
C1014 C1012 1.381 . S
C1014 C1015 1.394 . S
C1014 H1022 0.930 . S
C1015 C1014 1.394 . S
C1015 C1016 1.383 . S
C1015 H1023 0.929 . S
C1016 C1015 1.383 . S
C1016 C1017 1.377 . S
C1017 H1001 0.930 . S
C1017 C1016 1.377 . S
C1017 C1018 1.379 . S
C1018 H1002 0.931 . S
C1018 C1012 1.383 . S
C1018 C1017 1.379 . S
H1019 C1013 0.959 . S
H1020 C1013 0.961 . S
H1021 C1013 0.960 . S
H1022 C1014 0.930 . S
H1023 C1015 0.929 . S
H1024 C1032 0.929 . S
H1025 C1034 0.930 . S
H1026 C1036 0.930 . S
H1027 C1039 0.929 . S
H1028 C1042 0.930 . S
H1029 C1044 0.960 . S
H1030 C1044 0.960 . S
H1031 C1044 0.960 . S
C1032 H1024 0.929 . S
C1032 C1033 1.377 . S
C1032 C1034 1.384 . S
C1033 C1032 1.377 . S
C1033 C1039 1.390 . S
C1034 H1025 0.930 . S
C1034 C1032 1.384 . S
C1034 C1035 1.372 . S
C1035 C1034 1.372 . S
C1035 C1036 1.400 . S
C1035 C1040 1.490 . S
C1036 H1026 0.930 . S
C1036 C1035 1.400 . S
C1036 C1039 1.386 . S
H1037 C1053 0.930 1_545 S
H1038 C1054 0.931 . S
C1039 H1027 0.929 . S
C1039 C1033 1.390 . S
C1039 C1036 1.386 . S
C1040 C1035 1.490 . S
C1040 C1042 1.395 . S
C1040 C1043 1.403 . S
H1041 C1047 0.930 . S
C1042 H1028 0.930 . S
C1042 C1040 1.395 . S
C1042 C1045 1.403 . S
C1043 C1040 1.403 . S
C1043 C1044 1.524 . S
C1043 C1047 1.400 . S
C1044 H1029 0.960 . S
C1044 H1030 0.960 . S
C1044 H1031 0.960 . S
C1044 C1043 1.524 . S
C1045 C1042 1.403 . S
C1045 C1046 1.392 . S
C1045 C1049 1.495 . S
C1046 C1045 1.392 . S
C1046 C1047 1.385 . S
C1046 C1048 1.478 . S
C1047 H1041 0.930 . S
C1047 C1043 1.400 . S
C1047 C1046 1.385 . S
C1048 C1046 1.478 . S
C1048 C1050 1.381 . S
C1048 C1054 1.383 . S
C1049 C1045 1.495 . S
C1049 H1055 0.959 . S
C1049 H1056 0.961 . S
C1049 H1057 0.960 . S
C1050 C1048 1.381 . S
C1050 C1051 1.394 . S
C1050 H1058 0.930 . S
C1051 C1050 1.394 . S
C1051 C1052 1.383 . S
C1051 H1059 0.929 . S
C1052 C1051 1.383 . S
C1052 C1053 1.377 . S
C1053 H1037 0.930 1_565 S
C1053 C1052 1.377 . S
C1053 C1054 1.379 . S
C1054 H1038 0.931 . S
C1054 C1048 1.383 . S
C1054 C1053 1.379 . S
H1055 C1049 0.959 . S
H1056 C1049 0.961 . S
H1057 C1049 0.960 . S
H1058 C1050 0.930 . S
H1059 C1051 0.929 . S
H1060 C1068 0.929 . S
H1061 C1070 0.930 . S
H1062 C1072 0.930 . S
H1063 C1075 0.929 . S
H1064 C1078 0.930 . S
H1065 C1080 0.960 . S
H1066 C1080 0.960 . S
H1067 C1080 0.960 . S
C1068 H1060 0.929 . S
C1068 C1069 1.377 . S
C1068 C1070 1.384 . S
C1069 C1068 1.377 . S
C1069 C1075 1.390 . S
C1070 H1061 0.930 . S
C1070 C1068 1.384 . S
C1070 C1071 1.372 . S
C1071 C1070 1.372 . S
C1071 C1072 1.400 . S
C1071 C1076 1.490 . S
C1072 H1062 0.930 . S
C1072 C1071 1.400 . S
C1072 C1075 1.386 . S
H1073 C1089 0.930 . S
H1074 C1090 0.931 . S
C1075 H1063 0.929 . S
C1075 C1069 1.390 . S
C1075 C1072 1.386 . S
C1076 C1071 1.490 . S
C1076 C1078 1.395 . S
C1076 C1079 1.403 . S
H1077 C1083 0.930 . S
C1078 H1064 0.930 . S
C1078 C1076 1.395 . S
C1078 C1081 1.403 . S
C1079 C1076 1.403 . S
C1079 C1080 1.524 . S
C1079 C1083 1.400 . S
C1080 H1065 0.960 . S
C1080 H1066 0.960 . S
C1080 H1067 0.960 . S
C1080 C1079 1.524 . S
C1081 C1078 1.403 . S
C1081 C1082 1.392 . S
C1081 C1085 1.495 . S
C1082 C1081 1.392 . S
C1082 C1083 1.385 . S
C1082 C1084 1.478 . S
C1083 H1077 0.930 . S
C1083 C1079 1.400 . S
C1083 C1082 1.385 . S
C1084 C1082 1.478 . S
C1084 C1086 1.381 . S
C1084 C1090 1.383 . S
C1085 C1081 1.495 . S
C1085 H1091 0.959 . S
C1085 H1092 0.961 . S
C1085 H1093 0.960 . S
C1086 C1084 1.381 . S
C1086 C1087 1.394 . S
C1086 H1094 0.930 . S
C1087 C1086 1.394 . S
C1087 C1088 1.383 . S
C1087 H1095 0.929 . S
C1088 C1087 1.383 . S
C1088 C1089 1.377 . S
C1089 H1073 0.930 . S
C1089 C1088 1.377 . S
C1089 C1090 1.379 . S
C1090 H1074 0.931 . S
C1090 C1084 1.383 . S
C1090 C1089 1.379 . S
H1091 C1085 0.959 . S
H1092 C1085 0.961 . S
H1093 C1085 0.960 . S
H1094 C1086 0.930 . S
H1095 C1087 0.929 . S
H1096 C1104 0.929 . S
H1097 C1106 0.930 . S
H1098 C1108 0.930 . S
H1099 C1111 0.929 . S
H1100 C1114 0.930 . S
H1101 C1116 0.960 . S
H1102 C1116 0.960 . S
H1103 C1116 0.960 . S
C1104 H1096 0.929 . S
C1104 C1105 1.377 . S
C1104 C1106 1.384 . S
C1105 C1104 1.377 . S
C1105 C1111 1.390 . S
C1106 H1097 0.930 . S
C1106 C1104 1.384 . S
C1106 C1107 1.372 . S
C1107 C1106 1.372 . S
C1107 C1108 1.400 . S
C1107 C1112 1.490 . S
C1108 H1098 0.930 . S
C1108 C1107 1.400 . S
C1108 C1111 1.386 . S
H1109 C1125 0.930 . S
H1110 C1126 0.931 . S
C1111 H1099 0.929 . S
C1111 C1105 1.390 . S
C1111 C1108 1.386 . S
C1112 C1107 1.490 . S
C1112 C1114 1.395 . S
C1112 C1115 1.403 . S
H1113 C1119 0.930 . S
C1114 H1100 0.930 . S
C1114 C1112 1.395 . S
C1114 C1117 1.403 . S
C1115 C1112 1.403 . S
C1115 C1116 1.524 . S
C1115 C1119 1.400 . S
C1116 H1101 0.960 . S
C1116 H1102 0.960 . S
C1116 H1103 0.960 . S
C1116 C1115 1.524 . S
C1117 C1114 1.403 . S
C1117 C1118 1.392 . S
C1117 C1121 1.495 . S
C1118 C1117 1.392 . S
C1118 C1119 1.385 . S
C1118 C1120 1.478 . S
C1119 H1113 0.930 . S
C1119 C1115 1.400 . S
C1119 C1118 1.385 . S
C1120 C1118 1.478 . S
C1120 C1122 1.381 . S
C1120 C1126 1.383 . S
C1121 C1117 1.495 . S
C1121 H1127 0.959 . S
C1121 H1128 0.961 . S
C1121 H1129 0.960 . S
C1122 C1120 1.381 . S
C1122 C1123 1.394 . S
C1122 H1130 0.930 . S
C1123 C1122 1.394 . S
C1123 C1124 1.383 . S
C1123 H1131 0.929 1_565 S
C1124 C1123 1.383 . S
C1124 C1125 1.377 . S
C1125 H1109 0.930 . S
C1125 C1124 1.377 . S
C1125 C1126 1.379 . S
C1126 H1110 0.931 . S
C1126 C1120 1.383 . S
C1126 C1125 1.379 . S
H1127 C1121 0.959 . S
H1128 C1121 0.961 . S
H1129 C1121 0.960 . S
H1130 C1122 0.930 . S
H1131 C1123 0.929 1_545 S
H1132 C1140 0.929 . S
H1133 C1142 0.930 . S
H1134 C1144 0.930 . S
H1135 C1147 0.929 . S
H1136 C1150 0.930 . S
H1137 C1152 0.960 . S
H1138 C1152 0.960 . S
H1139 C1152 0.960 . S
C1140 H1132 0.929 . S
C1140 C1141 1.377 . S
C1140 C1142 1.384 . S
C1141 C1140 1.377 . S
C1141 C1147 1.390 . S
C1142 H1133 0.930 . S
C1142 C1140 1.384 . S
C1142 C1143 1.372 . S
C1143 C1142 1.372 . S
C1143 C1144 1.400 . S
C1143 C1148 1.490 . S
C1144 H1134 0.930 . S
C1144 C1143 1.400 . S
C1144 C1147 1.386 . S
H1145 C1161 0.930 . S
H1146 C1162 0.931 . S
C1147 H1135 0.929 . S
C1147 C1141 1.390 . S
C1147 C1144 1.386 . S
C1148 C1143 1.490 . S
C1148 C1150 1.395 . S
C1148 C1151 1.403 . S
H1149 C1155 0.930 . S
C1150 H1136 0.930 . S
C1150 C1148 1.395 . S
C1150 C1153 1.403 . S
C1151 C1148 1.403 . S
C1151 C1152 1.524 . S
C1151 C1155 1.400 . S
C1152 H1137 0.960 . S
C1152 H1138 0.960 . S
C1152 H1139 0.960 . S
C1152 C1151 1.524 . S
C1153 C1150 1.403 . S
C1153 C1154 1.392 . S
C1153 C1157 1.495 . S
C1154 C1153 1.392 . S
C1154 C1155 1.385 . S
C1154 C1156 1.478 . S
C1155 H1149 0.930 . S
C1155 C1151 1.400 . S
C1155 C1154 1.385 . S
C1156 C1154 1.478 . S
C1156 C1158 1.381 . S
C1156 C1162 1.383 . S
C1157 C1153 1.495 . S
C1157 H1163 0.959 . S
C1157 H1164 0.961 . S
C1157 H1165 0.960 . S
C1158 C1156 1.381 . S
C1158 C1159 1.394 . S
C1158 H1166 0.930 . S
C1159 C1158 1.394 . S
C1159 C1160 1.383 . S
C1159 H1167 0.929 . S
C1160 C1159 1.383 . S
C1160 C1161 1.377 . S
C1161 H1145 0.930 . S
C1161 C1160 1.377 . S
C1161 C1162 1.379 . S
C1162 H1146 0.931 . S
C1162 C1156 1.383 . S
C1162 C1161 1.379 . S
H1163 C1157 0.959 . S
H1164 C1157 0.961 . S
H1165 C1157 0.960 . S
H1166 C1158 0.930 . S
H1167 C1159 0.929 . S
H1168 C1176 0.929 . S
H1169 C1178 0.930 . S
H1170 C1180 0.930 . S
H1171 C1183 0.929 . S
H1172 C1186 0.930 . S
H1173 C1188 0.960 . S
H1174 C1188 0.960 . S
H1175 C1188 0.960 . S
C1176 H1168 0.929 . S
C1176 C1177 1.377 . S
C1176 C1178 1.384 . S
C1177 C1176 1.377 . S
C1177 C1183 1.390 . S
C1178 H1169 0.930 . S
C1178 C1176 1.384 . S
C1178 C1179 1.372 . S
C1179 C1178 1.372 . S
C1179 C1180 1.400 . S
C1179 C1184 1.490 . S
C1180 H1170 0.930 . S
C1180 C1179 1.400 . S
C1180 C1183 1.386 . S
H1181 C1197 0.930 . S
H1182 C1198 0.931 . S
C1183 H1171 0.929 . S
C1183 C1177 1.390 . S
C1183 C1180 1.386 . S
C1184 C1179 1.490 . S
C1184 C1186 1.395 . S
C1184 C1187 1.403 . S
H1185 C1191 0.930 . S
C1186 H1172 0.930 . S
C1186 C1184 1.395 . S
C1186 C1189 1.403 . S
C1187 C1184 1.403 . S
C1187 C1188 1.524 . S
C1187 C1191 1.400 . S
C1188 H1173 0.960 . S
C1188 H1174 0.960 . S
C1188 H1175 0.960 . S
C1188 C1187 1.524 . S
C1189 C1186 1.403 . S
C1189 C1190 1.392 . S
C1189 C1193 1.495 . S
C1190 C1189 1.392 . S
C1190 C1191 1.385 . S
C1190 C1192 1.478 . S
C1191 H1185 0.930 . S
C1191 C1187 1.400 . S
C1191 C1190 1.385 . S
C1192 C1190 1.478 . S
C1192 C1194 1.381 . S
C1192 C1198 1.383 . S
C1193 C1189 1.495 . S
C1193 H1199 0.959 . S
C1193 H1200 0.961 . S
C1193 H1201 0.960 . S
C1194 C1192 1.381 . S
C1194 C1195 1.394 . S
C1194 H1202 0.930 . S
C1195 C1194 1.394 . S
C1195 C1196 1.383 . S
C1195 H1203 0.929 . S
C1196 C1195 1.383 . S
C1196 C1197 1.377 . S
C1197 H1181 0.930 . S
C1197 C1196 1.377 . S
C1197 C1198 1.379 . S
C1198 H1182 0.931 . S
C1198 C1192 1.383 . S
C1198 C1197 1.379 . S
H1199 C1193 0.959 . S
H1200 C1193 0.961 . S
H1201 C1193 0.960 . S
H1202 C1194 0.930 . S
H1203 C1195 0.929 . S
H1204 C1212 0.929 . S
H1205 C1214 0.930 . S
H1206 C1216 0.930 . S
H1207 C1219 0.929 . S
H1208 C1222 0.930 . S
H1209 C1224 0.960 . S
H1210 C1224 0.960 . S
H1211 C1224 0.960 . S
C1212 H1204 0.929 . S
C1212 C1213 1.377 . S
C1212 C1214 1.384 . S
C1213 C1212 1.377 . S
C1213 C1219 1.390 . S
C1214 H1205 0.930 . S
C1214 C1212 1.384 . S
C1214 C1215 1.372 . S
C1215 C1214 1.372 . S
C1215 C1216 1.400 . S
C1215 C1220 1.490 . S
C1216 H1206 0.930 . S
C1216 C1215 1.400 . S
C1216 C1219 1.386 . S
H1217 C1233 0.930 . S
H1218 C1234 0.931 . S
C1219 H1207 0.929 . S
C1219 C1213 1.390 . S
C1219 C1216 1.386 . S
C1220 C1215 1.490 . S
C1220 C1222 1.395 . S
C1220 C1223 1.403 . S
H1221 C1227 0.930 . S
C1222 H1208 0.930 . S
C1222 C1220 1.395 . S
C1222 C1225 1.403 . S
C1223 C1220 1.403 . S
C1223 C1224 1.524 . S
C1223 C1227 1.400 . S
C1224 H1209 0.960 . S
C1224 H1210 0.960 . S
C1224 H1211 0.960 . S
C1224 C1223 1.524 . S
C1225 C1222 1.403 . S
C1225 C1226 1.392 . S
C1225 C1229 1.495 . S
C1226 C1225 1.392 . S
C1226 C1227 1.385 . S
C1226 C1228 1.478 . S
C1227 H1221 0.930 . S
C1227 C1223 1.400 . S
C1227 C1226 1.385 . S
C1228 C1226 1.478 . S
C1228 C1230 1.381 . S
C1228 C1234 1.383 . S
C1229 C1225 1.495 . S
C1229 H1235 0.959 . S
C1229 H1236 0.961 . S
C1229 H1237 0.960 . S
C1230 C1228 1.381 . S
C1230 C1231 1.394 . S
C1230 H1238 0.930 . S
C1231 C1230 1.394 . S
C1231 C1232 1.383 . S
C1231 H1239 0.929 . S
C1232 C1231 1.383 . S
C1232 C1233 1.377 . S
C1233 H1217 0.930 . S
C1233 C1232 1.377 . S
C1233 C1234 1.379 . S
C1234 H1218 0.931 . S
C1234 C1228 1.383 . S
C1234 C1233 1.379 . S
H1235 C1229 0.959 . S
H1236 C1229 0.961 . S
H1237 C1229 0.960 . S
H1238 C1230 0.930 . S
H1239 C1231 0.929 . S
H1240 C1248 0.929 . S
H1241 C1250 0.930 . S
H1242 C1252 0.930 . S
H1243 C1255 0.929 . S
H1244 C1258 0.930 . S
H1245 C1260 0.960 . S
H1246 C1260 0.960 . S
H1247 C1260 0.960 . S
C1248 H1240 0.929 . S
C1248 C1249 1.377 . S
C1248 C1250 1.384 . S
C1249 C1248 1.377 . S
C1249 C1255 1.390 . S
C1250 H1241 0.930 . S
C1250 C1248 1.384 . S
C1250 C1251 1.372 . S
C1251 C1250 1.372 . S
C1251 C1252 1.400 . S
C1251 C1256 1.490 . S
C1252 H1242 0.930 . S
C1252 C1251 1.400 . S
C1252 C1255 1.386 . S
H1253 C1269 0.930 . S
H1254 C1270 0.979 . S
C1255 H1243 0.929 . S
C1255 C1249 1.390 . S
C1255 C1252 1.386 . S
C1256 C1251 1.490 . S
C1256 C1258 1.395 . S
C1256 C1259 1.403 . S
H1257 C1263 0.930 . S
C1258 H1244 0.930 . S
C1258 C1256 1.395 . S
C1258 C1261 1.403 1_655 S
C1259 C1256 1.403 . S
C1259 C1260 1.524 . S
C1259 C1263 1.400 . S
C1260 H1245 0.960 . S
C1260 H1246 0.960 . S
C1260 H1247 0.960 . S
C1260 C1259 1.524 . S
C1261 C1258 1.403 1_455 S
C1261 C1262 1.392 . S
C1261 C1265 1.495 . S
C1262 C1261 1.392 . S
C1262 C1263 1.385 1_455 S
C1262 C1264 1.478 . S
C1263 H1257 0.930 . S
C1263 C1259 1.400 . S
C1263 C1262 1.385 1_655 S
C1264 C1262 1.478 . S
C1264 C1266 1.381 . S
C1264 C1270 1.383 . S
C1265 C1261 1.495 . S
C1265 H1271 0.959 . S
C1265 H1272 0.961 . S
C1265 H1273 0.960 . S
C1266 C1264 1.381 . S
C1266 C1267 1.394 . S
C1266 H1274 0.930 . S
C1267 C1266 1.394 . S
C1267 C1268 1.383 . S
C1267 H1275 0.929 . S
C1268 C1267 1.383 . S
C1268 C1269 1.377 . S
C1269 H1253 0.930 . S
C1269 C1268 1.377 . S
C1269 C1270 1.379 . S
C1270 H1254 0.979 . S
C1270 C1264 1.383 . S
C1270 C1269 1.379 . S
H1271 C1265 0.959 . S
H1272 C1265 0.961 . S
H1273 C1265 0.960 . S
H1274 C1266 0.930 . S
H1275 C1267 0.929 . S
H1276 C1284 0.929 . S
H1277 C1286 0.930 . S
H1278 C1288 0.930 . S
H1279 C1291 0.929 . S
H1280 C1294 0.930 . S
H1281 C1296 0.960 . S
H1282 C1296 0.960 . S
H1283 C1296 0.960 . S
C1284 H1276 0.929 . S
C1284 C1285 1.377 . S
C1284 C1286 1.384 . S
C1285 C1284 1.377 . S
C1285 C1291 1.390 . S
C1286 H1277 0.930 . S
C1286 C1284 1.384 . S
C1286 C1287 1.372 . S
C1287 C1286 1.372 . S
C1287 C1288 1.400 . S
C1287 C1292 1.490 . S
C1288 H1278 0.930 . S
C1288 C1287 1.400 . S
C1288 C1291 1.386 . S
H1289 C1305 0.930 . S
H1290 C1306 0.931 . S
C1291 H1279 0.929 . S
C1291 C1285 1.390 . S
C1291 C1288 1.386 . S
C1292 C1287 1.490 . S
C1292 C1294 1.395 . S
C1292 C1295 1.403 . S
H1293 C1299 0.930 . S
C1294 H1280 0.930 . S
C1294 C1292 1.395 . S
C1294 C1297 1.403 . S
C1295 C1292 1.403 . S
C1295 C1296 1.524 . S
C1295 C1299 1.400 . S
C1296 H1281 0.960 . S
C1296 H1282 0.960 . S
C1296 H1283 0.960 . S
C1296 C1295 1.524 . S
C1297 C1294 1.403 . S
C1297 C1298 1.392 . S
C1297 C1301 1.495 . S
C1298 C1297 1.392 . S
C1298 C1299 1.385 . S
C1298 C1300 1.478 . S
C1299 H1293 0.930 . S
C1299 C1295 1.400 . S
C1299 C1298 1.385 . S
C1300 C1298 1.478 . S
C1300 C1302 1.381 . S
C1300 C1306 1.383 . S
C1301 C1297 1.495 . S
C1301 H1307 0.959 . S
C1301 H1308 0.961 . S
C1301 H1309 0.960 . S
C1302 C1300 1.381 . S
C1302 C1303 1.394 . S
C1302 H1310 0.930 . S
C1303 C1302 1.394 . S
C1303 C1304 1.383 . S
C1303 H1311 0.929 . S
C1304 C1303 1.383 . S
C1304 C1305 1.377 . S
C1305 H1289 0.930 . S
C1305 C1304 1.377 . S
C1305 C1306 1.379 . S
C1306 H1290 0.931 . S
C1306 C1300 1.383 . S
C1306 C1305 1.379 . S
H1307 C1301 0.959 . S
H1308 C1301 0.961 . S
H1309 C1301 0.960 . S
H1310 C1302 0.930 . S
H1311 C1303 0.929 . S
H1312 C1320 0.929 . S
H1313 C1322 0.930 . S
H1314 C1324 0.930 . S
H1315 C1327 0.929 . S
H1316 C1330 0.930 . S
H1317 C1332 0.960 . S
H1318 C1332 0.960 1_565 S
H1319 C1332 0.960 . S
C1320 H1312 0.929 . S
C1320 C1321 1.377 . S
C1320 C1322 1.384 . S
C1321 C1320 1.377 . S
C1321 C1327 1.390 1_565 S
C1322 H1313 0.930 . S
C1322 C1320 1.384 . S
C1322 C1323 1.372 1_565 S
C1323 C1322 1.372 1_545 S
C1323 C1324 1.400 . S
C1323 C1328 1.490 . S
C1324 H1314 0.930 . S
C1324 C1323 1.400 . S
C1324 C1327 1.386 . S
H1325 C1341 0.930 . S
H1326 C1342 0.931 . S
C1327 H1315 0.929 . S
C1327 C1321 1.390 1_545 S
C1327 C1324 1.386 . S
C1328 C1323 1.490 . S
C1328 C1330 1.395 . S
C1328 C1331 1.403 . S
H1329 C1335 0.930 . S
C1330 H1316 0.930 . S
C1330 C1328 1.395 . S
C1330 C1333 1.403 . S
C1331 C1328 1.403 . S
C1331 C1332 1.524 . S
C1331 C1335 1.400 . S
C1332 H1317 0.960 . S
C1332 H1318 0.960 1_545 S
C1332 H1319 0.960 . S
C1332 C1331 1.524 . S
C1333 C1330 1.403 . S
C1333 C1334 1.392 . S
C1333 C1337 1.495 . S
C1334 C1333 1.392 . S
C1334 C1335 1.385 . S
C1334 C1336 1.478 . S
C1335 H1329 0.930 . S
C1335 C1331 1.400 . S
C1335 C1334 1.385 . S
C1336 C1334 1.478 . S
C1336 C1338 1.381 . S
C1336 C1342 1.383 . S
C1337 C1333 1.495 . S
C1337 H1343 0.959 . S
C1337 H1344 0.961 . S
C1337 H1345 0.960 . S
C1338 C1336 1.381 . S
C1338 C1339 1.394 . S
C1338 H1346 0.930 1_545 S
C1339 C1338 1.394 . S
C1339 C1340 1.383 . S
C1339 H1347 0.929 . S
C1340 C1339 1.383 . S
C1340 C1341 1.377 . S
C1341 H1325 0.930 . S
C1341 C1340 1.377 . S
C1341 C1342 1.379 . S
C1342 H1326 0.931 . S
C1342 C1336 1.383 . S
C1342 C1341 1.379 . S
H1343 C1337 0.959 . S
H1344 C1337 0.961 . S
H1345 C1337 0.960 . S
H1346 C1338 0.930 1_565 S
H1347 C1339 0.929 . S
H1348 C1356 0.929 . S
H1349 C1358 0.930 . S
H1350 C1360 0.930 . S
H1351 C1363 0.929 . S
H1352 C1366 0.930 . S
H1353 C1368 0.960 . S
H1354 C1368 0.960 . S
H1355 C1368 0.960 . S
C1356 H1348 0.929 . S
C1356 C1357 1.377 . S
C1356 C1358 1.384 . S
C1357 C1356 1.377 . S
C1357 C1363 1.390 . S
C1358 H1349 0.930 . S
C1358 C1356 1.384 . S
C1358 C1359 1.372 . S
C1359 C1358 1.372 . S
C1359 C1360 1.400 . S
C1359 C1364 1.490 . S
C1360 H1350 0.930 . S
C1360 C1359 1.400 . S
C1360 C1363 1.386 . S
H1361 C1377 0.930 . S
H1362 C1378 0.931 . S
C1363 H1351 0.929 . S
C1363 C1357 1.390 . S
C1363 C1360 1.386 . S
C1364 C1359 1.490 . S
C1364 C1366 1.395 . S
C1364 C1367 1.403 . S
H1365 C1371 0.930 . S
C1366 H1352 0.930 . S
C1366 C1364 1.395 . S
C1366 C1369 1.403 . S
C1367 C1364 1.403 . S
C1367 C1368 1.524 . S
C1367 C1371 1.400 . S
C1368 H1353 0.960 . S
C1368 H1354 0.960 . S
C1368 H1355 0.960 . S
C1368 C1367 1.524 . S
C1369 C1366 1.403 . S
C1369 C1370 1.392 . S
C1369 C1373 1.495 . S
C1370 C1369 1.392 . S
C1370 C1371 1.385 . S
C1370 C1372 1.478 . S
C1371 H1365 0.930 . S
C1371 C1367 1.400 . S
C1371 C1370 1.385 . S
C1372 C1370 1.478 . S
C1372 C1374 1.381 . S
C1372 C1378 1.383 . S
C1373 C1369 1.495 . S
C1373 H1379 0.959 . S
C1373 H1380 0.961 . S
C1373 H1381 0.960 . S
C1374 C1372 1.381 . S
C1374 C1375 1.394 . S
C1374 H1382 0.930 . S
C1375 C1374 1.394 . S
C1375 C1376 1.383 . S
C1375 H1383 0.929 . S
C1376 C1375 1.383 . S
C1376 C1377 1.377 . S
C1377 H1361 0.930 . S
C1377 C1376 1.377 . S
C1377 C1378 1.379 . S
C1378 H1362 0.931 . S
C1378 C1372 1.383 . S
C1378 C1377 1.379 . S
H1379 C1373 0.959 . S
H1380 C1373 0.961 . S
H1381 C1373 0.960 . S
H1382 C1374 0.930 . S
H1383 C1375 0.929 . S
H1384 C1392 0.929 . S
H1385 C1394 0.930 . S
H1386 C1396 0.930 . S
H1387 C1399 0.929 . S
H1388 C1402 0.930 . S
H1389 C1404 0.960 . S
H1390 C1404 0.960 . S
H1391 C1404 0.960 . S
C1392 H1384 0.929 . S
C1392 C1393 1.377 . S
C1392 C1394 1.384 . S
C1393 C1392 1.377 . S
C1393 C1399 1.390 . S
C1394 H1385 0.930 . S
C1394 C1392 1.384 . S
C1394 C1395 1.372 . S
C1395 C1394 1.372 . S
C1395 C1396 1.400 . S
C1395 C1400 1.490 . S
C1396 H1386 0.930 . S
C1396 C1395 1.400 . S
C1396 C1399 1.386 . S
H1397 C1413 0.926 1_655 S
H1398 C1414 0.931 . S
C1399 H1387 0.929 . S
C1399 C1393 1.390 . S
C1399 C1396 1.386 . S
C1400 C1395 1.490 . S
C1400 C1402 1.395 . S
C1400 C1403 1.403 . S
H1401 C1407 0.930 . S
C1402 H1388 0.930 . S
C1402 C1400 1.395 . S
C1402 C1405 1.403 . S
C1403 C1400 1.403 . S
C1403 C1404 1.524 . S
C1403 C1407 1.400 . S
C1404 H1389 0.960 . S
C1404 H1390 0.960 . S
C1404 H1391 0.960 . S
C1404 C1403 1.524 . S
C1405 C1402 1.403 . S
C1405 C1406 1.392 . S
C1405 C1409 1.495 . S
C1406 C1405 1.392 . S
C1406 C1407 1.385 . S
C1406 C1408 1.478 . S
C1407 H1401 0.930 . S
C1407 C1403 1.400 . S
C1407 C1406 1.385 . S
C1408 C1406 1.478 . S
C1408 C1410 1.381 1_655 S
C1408 C1414 1.383 . S
C1409 C1405 1.495 . S
C1409 H1415 0.959 . S
C1409 H1416 0.961 . S
C1409 H1417 0.960 . S
C1410 C1408 1.381 1_455 S
C1410 C1411 1.394 . S
C1410 H1418 0.930 . S
C1411 C1410 1.394 . S
C1411 C1412 1.383 . S
C1411 H1419 0.929 . S
C1412 C1411 1.383 . S
C1412 C1413 1.377 . S
C1413 H1397 0.926 1_455 S
C1413 C1412 1.377 . S
C1413 C1414 1.379 1_455 S
C1414 H1398 0.931 . S
C1414 C1408 1.383 . S
C1414 C1413 1.379 1_655 S
H1415 C1409 0.959 . S
H1416 C1409 0.961 . S
H1417 C1409 0.960 . S
H1418 C1410 0.930 . S
H1419 C1411 0.929 . S
H1420 C1428 0.929 . S
H1421 C1430 0.930 . S
H1422 C1432 0.930 . S
H1423 C1435 0.929 . S
H1424 C1438 0.930 . S
H1425 C1440 0.960 . S
H1426 C1440 0.960 . S
H1427 C1440 0.960 . S
C1428 H1420 0.929 . S
C1428 C1429 1.377 . S
C1428 C1430 1.384 . S
C1429 C1428 1.377 . S
C1429 C1435 1.390 . S
C1430 H1421 0.930 . S
C1430 C1428 1.384 . S
C1430 C1431 1.372 . S
C1431 C1430 1.372 . S
C1431 C1432 1.400 . S
C1431 C1436 1.490 . S
C1432 H1422 0.930 . S
C1432 C1431 1.400 . S
C1432 C1435 1.386 . S
H1433 C1449 0.930 . S
H1434 C1450 0.931 . S
C1435 H1423 0.929 . S
C1435 C1429 1.390 . S
C1435 C1432 1.386 . S
C1436 C1431 1.490 . S
C1436 C1438 1.395 . S
C1436 C1439 1.403 . S
H1437 C1443 0.930 . S
C1438 H1424 0.930 . S
C1438 C1436 1.395 . S
C1438 C1441 1.403 . S
C1439 C1436 1.403 . S
C1439 C1440 1.524 . S
C1439 C1443 1.400 . S
C1440 H1425 0.960 . S
C1440 H1426 0.960 . S
C1440 H1427 0.960 . S
C1440 C1439 1.524 . S
C1441 C1438 1.403 . S
C1441 C1442 1.392 . S
C1441 C1445 1.495 . S
C1442 C1441 1.392 . S
C1442 C1443 1.385 . S
C1442 C1444 1.478 . S
C1443 H1437 0.930 . S
C1443 C1439 1.400 . S
C1443 C1442 1.385 . S
C1444 C1442 1.478 . S
C1444 C1446 1.381 . S
C1444 C1450 1.383 . S
C1445 C1441 1.495 . S
C1445 H1451 0.959 . S
C1445 H1452 0.961 . S
C1445 H1453 0.960 . S
C1446 C1444 1.381 . S
C1446 C1447 1.394 . S
C1446 H1454 0.930 . S
C1447 C1446 1.394 . S
C1447 C1448 1.383 . S
C1447 H1455 0.929 . S
C1448 C1447 1.383 . S
C1448 C1449 1.377 . S
C1449 H1433 0.930 . S
C1449 C1448 1.377 . S
C1449 C1450 1.379 . S
C1450 H1434 0.931 . S
C1450 C1444 1.383 . S
C1450 C1449 1.379 . S
H1451 C1445 0.959 . S
H1452 C1445 0.961 . S
H1453 C1445 0.960 . S
H1454 C1446 0.930 . S
H1455 C1447 0.929 . S
H1456 C1464 0.929 . S
H1457 C1466 0.930 . S
H1458 C1468 0.932 . S
H1459 C1471 0.929 . S
H1460 C1474 0.930 . S
H1461 C1476 0.960 . S
H1462 C1476 0.960 . S
H1463 C1476 0.960 . S
C1464 H1456 0.929 . S
C1464 C1465 1.377 . S
C1464 C1466 1.384 . S
C1465 C1464 1.377 . S
C1465 C1471 1.390 1_545 S
C1466 H1457 0.930 . S
C1466 C1464 1.384 . S
C1466 C1467 1.372 . S
C1467 C1466 1.372 . S
C1467 C1468 1.400 . S
C1467 C1472 1.490 . S
C1468 H1458 0.932 . S
C1468 C1467 1.400 . S
C1468 C1471 1.386 1_545 S
H1469 C1485 0.930 . S
H1470 C1486 0.931 . S
C1471 H1459 0.929 . S
C1471 C1465 1.390 1_565 S
C1471 C1468 1.386 1_565 S
C1472 C1467 1.490 . S
C1472 C1474 1.395 . S
C1472 C1475 1.403 . S
H1473 C1479 0.930 . S
C1474 H1460 0.930 . S
C1474 C1472 1.395 . S
C1474 C1477 1.403 . S
C1475 C1472 1.403 . S
C1475 C1476 1.524 . S
C1475 C1479 1.400 . S
C1476 H1461 0.960 . S
C1476 H1462 0.960 . S
C1476 H1463 0.960 . S
C1476 C1475 1.524 . S
C1477 C1474 1.403 . S
C1477 C1478 1.392 . S
C1477 C1481 1.495 . S
C1478 C1477 1.392 . S
C1478 C1479 1.385 . S
C1478 C1480 1.478 . S
C1479 H1473 0.930 . S
C1479 C1475 1.400 . S
C1479 C1478 1.385 . S
C1480 C1478 1.478 . S
C1480 C1482 1.381 . S
C1480 C1486 1.383 . S
C1481 C1477 1.495 . S
C1481 H1487 0.959 . S
C1481 H1488 0.961 . S
C1481 H1489 0.960 . S
C1482 C1480 1.381 . S
C1482 C1483 1.394 . S
C1482 H1490 0.930 . S
C1483 C1482 1.394 . S
C1483 C1484 1.383 . S
C1483 H1491 0.929 . S
C1484 C1483 1.383 . S
C1484 C1485 1.377 . S
C1485 H1469 0.930 . S
C1485 C1484 1.377 . S
C1485 C1486 1.379 . S
C1486 H1470 0.931 . S
C1486 C1480 1.383 . S
C1486 C1485 1.379 . S
H1487 C1481 0.959 . S
H1488 C1481 0.961 . S
H1489 C1481 0.960 . S
H1490 C1482 0.930 . S
H1491 C1483 0.929 . S
H1492 C1500 0.929 . S
H1493 C1502 0.930 . S
H1494 C1504 0.930 . S
H1495 C1507 0.929 . S
H1496 C1510 0.930 . S
H1497 C1512 0.960 . S
H1498 C1512 0.960 . S
H1499 C1512 0.960 . S
C1500 H1492 0.929 . S
C1500 C1501 1.377 . S
C1500 C1502 1.384 . S
C1501 C1500 1.377 . S
C1501 C1507 1.390 . S
C1502 H1493 0.930 . S
C1502 C1500 1.384 . S
C1502 C1503 1.372 . S
C1503 C1502 1.372 . S
C1503 C1504 1.400 . S
C1503 C1508 1.490 . S
C1504 H1494 0.930 . S
C1504 C1503 1.400 . S
C1504 C1507 1.386 . S
H1505 C1521 0.930 . S
H1506 C1522 0.931 . S
C1507 H1495 0.929 . S
C1507 C1501 1.390 . S
C1507 C1504 1.386 . S
C1508 C1503 1.490 . S
C1508 C1510 1.395 . S
C1508 C1511 1.403 . S
H1509 C1515 0.930 . S
C1510 H1496 0.930 . S
C1510 C1508 1.395 . S
C1510 C1513 1.403 . S
C1511 C1508 1.403 . S
C1511 C1512 1.524 . S
C1511 C1515 1.400 . S
C1512 H1497 0.960 . S
C1512 H1498 0.960 . S
C1512 H1499 0.960 . S
C1512 C1511 1.524 . S
C1513 C1510 1.403 . S
C1513 C1514 1.392 . S
C1513 C1517 1.495 . S
C1514 C1513 1.392 . S
C1514 C1515 1.385 . S
C1514 C1516 1.478 . S
C1515 H1509 0.930 . S
C1515 C1511 1.400 . S
C1515 C1514 1.385 . S
C1516 C1514 1.478 . S
C1516 C1518 1.381 . S
C1516 C1522 1.383 . S
C1517 C1513 1.495 . S
C1517 H1523 0.959 . S
C1517 H1524 0.961 . S
C1517 H1525 0.960 . S
C1518 C1516 1.381 . S
C1518 C1519 1.394 . S
C1518 H1526 0.930 . S
C1519 C1518 1.394 . S
C1519 C1520 1.383 . S
C1519 H1527 0.929 . S
C1520 C1519 1.383 . S
C1520 C1521 1.377 . S
C1521 H1505 0.930 . S
C1521 C1520 1.377 . S
C1521 C1522 1.379 . S
C1522 H1506 0.931 . S
C1522 C1516 1.383 . S
C1522 C1521 1.379 . S
H1523 C1517 0.959 . S
H1524 C1517 0.961 . S
H1525 C1517 0.960 . S
H1526 C1518 0.930 . S
H1527 C1519 0.929 . S
H1528 C1536 0.929 . S
H1529 C1538 0.930 . S
H1530 C1540 0.930 . S
H1531 C1543 0.929 . S
H1532 C1546 0.930 . S
H1533 C1548 0.960 . S
H1534 C1548 0.960 . S
H1535 C1548 0.960 . S
C1536 H1528 0.929 . S
C1536 C1537 1.377 . S
C1536 C1538 1.384 . S
C1537 C1536 1.377 . S
C1537 C1543 1.390 . S
C1538 H1529 0.930 . S
C1538 C1536 1.384 . S
C1538 C1539 1.372 . S
C1539 C1538 1.372 . S
C1539 C1540 1.400 . S
C1539 C1544 1.490 . S
C1540 H1530 0.930 . S
C1540 C1539 1.400 . S
C1540 C1543 1.386 . S
H1541 C1557 0.930 . S
H1542 C1558 0.931 . S
C1543 H1531 0.929 . S
C1543 C1537 1.390 . S
C1543 C1540 1.386 . S
C1544 C1539 1.490 . S
C1544 C1546 1.395 . S
C1544 C1547 1.403 . S
H1545 C1551 0.930 . S
C1546 H1532 0.930 . S
C1546 C1544 1.395 . S
C1546 C1549 1.393 1_565 S
C1547 C1544 1.403 . S
C1547 C1548 1.524 . S
C1547 C1551 1.400 . S
C1548 H1533 0.960 . S
C1548 H1534 0.960 . S
C1548 H1535 0.960 . S
C1548 C1547 1.524 . S
C1549 C1546 1.393 1_545 S
C1549 C1550 1.394 . S
C1549 C1553 1.502 . S
C1550 C1549 1.394 . S
C1550 C1551 1.382 1_545 S
C1550 C1552 1.482 . S
C1551 H1545 0.930 . S
C1551 C1547 1.400 . S
C1551 C1550 1.382 1_565 S
C1552 C1550 1.482 . S
C1552 C1554 1.381 . S
C1552 C1558 1.383 . S
C1553 C1549 1.502 . S
C1553 H1559 0.959 . S
C1553 H1560 0.961 . S
C1553 H1561 0.960 . S
C1554 C1552 1.381 . S
C1554 C1555 1.394 . S
C1554 H1562 0.930 1_545 S
C1555 C1554 1.394 . S
C1555 C1556 1.383 . S
C1555 H1563 0.929 . S
C1556 C1555 1.383 . S
C1556 C1557 1.377 . S
C1557 H1541 0.930 . S
C1557 C1556 1.377 . S
C1557 C1558 1.379 . S
C1558 H1542 0.931 . S
C1558 C1552 1.383 . S
C1558 C1557 1.379 . S
H1559 C1553 0.959 . S
H1560 C1553 0.961 . S
H1561 C1553 0.960 . S
H1562 C1554 0.930 1_565 S
H1563 C1555 0.929 . S
H1564 C1572 0.929 1_556 S
H1565 C1574 0.930 1_556 S
H1566 C1576 0.930 . S
H1567 C1579 0.929 . S
H1568 C1582 0.930 . S
H1569 C1584 0.960 . S
H1570 C1584 0.960 . S
H1571 C1584 0.960 1_554 S
C1572 H1564 0.929 1_554 S
C1572 C1573 1.377 . S
C1572 C1574 1.384 . S
C1573 C1572 1.377 . S
C1573 C1579 1.390 . S
C1574 H1565 0.930 1_554 S
C1574 C1572 1.384 . S
C1574 C1575 1.372 . S
C1575 C1574 1.372 . S
C1575 C1576 1.400 . S
C1575 C1580 1.490 . S
C1576 H1566 0.930 . S
C1576 C1575 1.400 . S
C1576 C1579 1.386 . S
H1577 C1593 0.930 . S
H1578 C1594 0.931 . S
C1579 H1567 0.929 . S
C1579 C1573 1.390 . S
C1579 C1576 1.386 . S
C1580 C1575 1.490 . S
C1580 C1582 1.395 . S
C1580 C1583 1.403 . S
H1581 C1587 0.930 . S
C1582 H1568 0.930 . S
C1582 C1580 1.395 . S
C1582 C1585 1.403 . S
C1583 C1580 1.403 . S
C1583 C1584 1.524 1_554 S
C1583 C1587 1.400 . S
C1584 H1569 0.960 . S
C1584 H1570 0.960 . S
C1584 H1571 0.960 1_556 S
C1584 C1583 1.524 1_556 S
C1585 C1582 1.403 . S
C1585 C1586 1.392 . S
C1585 C1589 1.495 . S
C1586 C1585 1.392 . S
C1586 C1587 1.385 . S
C1586 C1588 1.478 . S
C1587 H1581 0.930 . S
C1587 C1583 1.400 . S
C1587 C1586 1.385 . S
C1588 C1586 1.478 . S
C1588 C1590 1.381 . S
C1588 C1594 1.383 . S
C1589 C1585 1.495 . S
C1589 H1595 0.959 . S
C1589 H1596 0.961 . S
C1589 H1597 0.960 . S
C1590 C1588 1.381 . S
C1590 C1591 1.394 . S
C1590 H1598 0.930 1_554 S
C1591 C1590 1.394 . S
C1591 C1592 1.383 . S
C1591 H1599 0.929 1_554 S
C1592 C1591 1.383 . S
C1592 C1593 1.377 . S
C1593 H1577 0.930 . S
C1593 C1592 1.377 . S
C1593 C1594 1.379 . S
C1594 H1578 0.931 . S
C1594 C1588 1.383 . S
C1594 C1593 1.379 . S
H1595 C1589 0.959 . S
H1596 C1589 0.961 . S
H1597 C1589 0.960 . S
H1598 C1590 0.930 1_556 S
H1599 C1591 0.929 1_556 S
H1600 C1608 0.929 . S
H1601 C1610 0.930 . S
H1602 C1612 0.930 . S
H1603 C1615 0.929 . S
H1604 C1618 0.930 . S
H1605 C1620 0.960 . S
H1606 C1620 0.960 . S
H1607 C1620 0.960 . S
C1608 H1600 0.929 . S
C1608 C1609 1.377 . S
C1608 C1610 1.384 . S
C1609 C1608 1.377 . S
C1609 C1615 1.390 . S
C1610 H1601 0.930 . S
C1610 C1608 1.384 . S
C1610 C1611 1.372 . S
C1611 C1610 1.372 . S
C1611 C1612 1.400 . S
C1611 C1616 1.490 . S
C1612 H1602 0.930 . S
C1612 C1611 1.400 . S
C1612 C1615 1.386 . S
H1613 C1629 0.930 . S
H1614 C1630 0.931 . S
C1615 H1603 0.929 . S
C1615 C1609 1.390 . S
C1615 C1612 1.386 . S
C1616 C1611 1.490 . S
C1616 C1618 1.395 . S
C1616 C1619 1.403 . S
H1617 C1623 0.930 . S
C1618 H1604 0.930 . S
C1618 C1616 1.395 . S
C1618 C1621 1.403 . S
C1619 C1616 1.403 . S
C1619 C1620 1.524 . S
C1619 C1623 1.400 . S
C1620 H1605 0.960 . S
C1620 H1606 0.960 . S
C1620 H1607 0.960 . S
C1620 C1619 1.524 . S
C1621 C1618 1.403 . S
C1621 C1622 1.392 . S
C1621 C1625 1.495 . S
C1622 C1621 1.392 . S
C1622 C1623 1.385 . S
C1622 C1624 1.478 . S
C1623 H1617 0.930 . S
C1623 C1619 1.400 . S
C1623 C1622 1.385 . S
C1624 C1622 1.478 . S
C1624 C1626 1.381 . S
C1624 C1630 1.383 . S
C1625 C1621 1.495 . S
C1625 H1631 0.959 . S
C1625 H1632 0.961 . S
C1625 H1633 0.960 . S
C1626 C1624 1.381 . S
C1626 C1627 1.394 . S
C1626 H1634 0.930 . S
C1627 C1626 1.394 . S
C1627 C1628 1.383 . S
C1627 H1635 0.929 . S
C1628 C1627 1.383 . S
C1628 C1629 1.377 . S
C1629 H1613 0.930 . S
C1629 C1628 1.377 . S
C1629 C1630 1.379 . S
C1630 H1614 0.931 . S
C1630 C1624 1.383 . S
C1630 C1629 1.379 . S
H1631 C1625 0.959 . S
H1632 C1625 0.961 . S
H1633 C1625 0.960 . S
H1634 C1626 0.930 . S
H1635 C1627 0.929 . S
H1636 C1644 0.929 . S
H1637 C1646 0.930 . S
H1638 C1648 0.930 . S
H1639 C1651 0.929 . S
H1640 C1654 0.930 . S
H1641 C1656 0.960 . S
H1642 C1656 0.960 . S
H1643 C1656 0.960 . S
C1644 H1636 0.929 . S
C1644 C1645 1.377 . S
C1644 C1646 1.384 . S
C1645 C1644 1.377 . S
C1645 C1651 1.390 . S
C1646 H1637 0.930 . S
C1646 C1644 1.384 . S
C1646 C1647 1.372 . S
C1647 C1646 1.372 . S
C1647 C1648 1.400 . S
C1647 C1652 1.490 . S
C1648 H1638 0.930 . S
C1648 C1647 1.400 . S
C1648 C1651 1.386 . S
H1649 C1665 0.930 . S
H1650 C1666 0.931 . S
C1651 H1639 0.929 . S
C1651 C1645 1.390 . S
C1651 C1648 1.386 . S
C1652 C1647 1.490 . S
C1652 C1654 1.395 . S
C1652 C1655 1.403 . S
H1653 C1659 0.930 . S
C1654 H1640 0.930 . S
C1654 C1652 1.395 . S
C1654 C1657 1.403 . S
C1655 C1652 1.403 . S
C1655 C1656 1.524 . S
C1655 C1659 1.400 . S
C1656 H1641 0.960 . S
C1656 H1642 0.960 . S
C1656 H1643 0.960 . S
C1656 C1655 1.524 . S
C1657 C1654 1.403 . S
C1657 C1658 1.392 . S
C1657 C1661 1.495 . S
C1658 C1657 1.392 . S
C1658 C1659 1.385 . S
C1658 C1660 1.478 . S
C1659 H1653 0.930 . S
C1659 C1655 1.400 . S
C1659 C1658 1.385 . S
C1660 C1658 1.478 . S
C1660 C1662 1.381 . S
C1660 C1666 1.383 . S
C1661 C1657 1.495 . S
C1661 H1667 0.959 . S
C1661 H1668 0.961 . S
C1661 H1669 0.960 . S
C1662 C1660 1.381 . S
C1662 C1663 1.394 . S
C1662 H1670 0.930 . S
C1663 C1662 1.394 . S
C1663 C1664 1.383 . S
C1663 H1671 0.929 . S
C1664 C1663 1.383 . S
C1664 C1665 1.377 . S
C1665 H1649 0.930 . S
C1665 C1664 1.377 . S
C1665 C1666 1.379 . S
C1666 H1650 0.931 . S
C1666 C1660 1.383 . S
C1666 C1665 1.379 . S
H1667 C1661 0.959 . S
H1668 C1661 0.961 . S
H1669 C1661 0.960 . S
H1670 C1662 0.930 . S
H1671 C1663 0.929 . S
H1672 C1680 0.929 . S
H1673 C1682 0.930 . S
H1674 C1684 0.930 . S
H1675 C1687 0.929 . S
H1676 C1690 0.930 . S
H1677 C1692 0.960 . S
H1678 C1692 0.960 . S
H1679 C1692 0.960 . S
C1680 H1672 0.929 . S
C1680 C1681 1.377 . S
C1680 C1682 1.384 . S
C1681 C1680 1.377 . S
C1681 C1687 1.390 . S
C1682 H1673 0.930 . S
C1682 C1680 1.384 . S
C1682 C1683 1.372 . S
C1683 C1682 1.372 . S
C1683 C1684 1.400 . S
C1683 C1688 1.490 . S
C1684 H1674 0.930 . S
C1684 C1683 1.400 . S
C1684 C1687 1.386 . S
H1685 C1701 0.930 . S
H1686 C1702 0.931 . S
C1687 H1675 0.929 . S
C1687 C1681 1.390 . S
C1687 C1684 1.386 . S
C1688 C1683 1.490 . S
C1688 C1690 1.395 . S
C1688 C1691 1.403 . S
H1689 C1695 0.930 . S
C1690 H1676 0.930 . S
C1690 C1688 1.395 . S
C1690 C1693 1.403 . S
C1691 C1688 1.403 . S
C1691 C1692 1.524 . S
C1691 C1695 1.400 . S
C1692 H1677 0.960 . S
C1692 H1678 0.960 . S
C1692 H1679 0.960 . S
C1692 C1691 1.524 . S
C1693 C1690 1.403 . S
C1693 C1694 1.392 . S
C1693 C1697 1.495 . S
C1694 C1693 1.392 . S
C1694 C1695 1.385 . S
C1694 C1696 1.478 . S
C1695 H1689 0.930 . S
C1695 C1691 1.400 . S
C1695 C1694 1.385 . S
C1696 C1694 1.478 . S
C1696 C1698 1.381 . S
C1696 C1702 1.383 . S
C1697 C1693 1.495 . S
C1697 H1703 0.959 . S
C1697 H1704 0.961 . S
C1697 H1705 0.960 . S
C1698 C1696 1.381 . S
C1698 C1699 1.394 . S
C1698 H1706 0.930 . S
C1699 C1698 1.394 . S
C1699 C1700 1.383 . S
C1699 H1707 0.929 . S
C1700 C1699 1.383 . S
C1700 C1701 1.377 . S
C1701 H1685 0.930 . S
C1701 C1700 1.377 . S
C1701 C1702 1.379 . S
C1702 H1686 0.931 . S
C1702 C1696 1.383 . S
C1702 C1701 1.379 . S
H1703 C1697 0.959 . S
H1704 C1697 0.961 . S
H1705 C1697 0.960 . S
H1706 C1698 0.930 . S
H1707 C1699 0.929 . S
H1708 C1716 0.929 . S
H1709 C1718 0.930 . S
H1710 C1720 0.930 . S
H1711 C1723 0.929 . S
H1712 C1726 0.930 . S
H1713 C1728 0.960 . S
H1714 C1728 0.960 . S
H1715 C1728 0.960 . S
C1716 H1708 0.929 . S
C1716 C1717 1.377 . S
C1716 C1718 1.384 . S
C1717 C1716 1.377 . S
C1717 C1723 1.390 . S
C1718 H1709 0.930 . S
C1718 C1716 1.384 . S
C1718 C1719 1.372 . S
C1719 C1718 1.372 . S
C1719 C1720 1.400 . S
C1719 C1724 1.490 . S
C1720 H1710 0.930 . S
C1720 C1719 1.400 . S
C1720 C1723 1.386 . S
H1721 C1737 0.930 . S
H1722 C1738 0.931 . S
C1723 H1711 0.929 . S
C1723 C1717 1.390 . S
C1723 C1720 1.386 . S
C1724 C1719 1.490 . S
C1724 C1726 1.395 . S
C1724 C1727 1.403 . S
H1725 C1731 0.930 . S
C1726 H1712 0.930 . S
C1726 C1724 1.395 . S
C1726 C1729 1.403 . S
C1727 C1724 1.403 . S
C1727 C1728 1.524 . S
C1727 C1731 1.400 . S
C1728 H1713 0.960 . S
C1728 H1714 0.960 . S
C1728 H1715 0.960 . S
C1728 C1727 1.524 . S
C1729 C1726 1.403 . S
C1729 C1730 1.392 . S
C1729 C1733 1.495 . S
C1730 C1729 1.392 . S
C1730 C1731 1.385 . S
C1730 C1732 1.478 . S
C1731 H1725 0.930 . S
C1731 C1727 1.400 . S
C1731 C1730 1.385 . S
C1732 C1730 1.478 . S
C1732 C1734 1.381 . S
C1732 C1738 1.383 . S
C1733 C1729 1.495 . S
C1733 H1739 0.959 . S
C1733 H1740 0.961 . S
C1733 H1741 0.960 . S
C1734 C1732 1.381 . S
C1734 C1735 1.394 . S
C1734 H1742 0.930 . S
C1735 C1734 1.394 . S
C1735 C1736 1.383 . S
C1735 H1743 0.929 . S
C1736 C1735 1.383 . S
C1736 C1737 1.377 . S
C1737 H1721 0.930 . S
C1737 C1736 1.377 . S
C1737 C1738 1.379 . S
C1738 H1722 0.931 . S
C1738 C1732 1.383 . S
C1738 C1737 1.379 . S
H1739 C1733 0.959 . S
H1740 C1733 0.961 . S
H1741 C1733 0.960 . S
H1742 C1734 0.930 . S
H1743 C1735 0.929 . S
H1744 C1752 0.929 . S
H1745 C1754 0.930 . S
H1746 C1756 0.930 . S
H1747 C1759 0.929 . S
H1748 C1762 0.930 . S
H1749 C1764 0.960 . S
H1750 C1764 0.960 . S
H1751 C1764 0.960 . S
C1752 H1744 0.929 . S
C1752 C1753 1.377 . S
C1752 C1754 1.384 . S
C1753 C1752 1.377 . S
C1753 C1759 1.390 . S
C1754 H1745 0.930 . S
C1754 C1752 1.384 . S
C1754 C1755 1.372 . S
C1755 C1754 1.372 . S
C1755 C1756 1.400 . S
C1755 C1760 1.490 . S
C1756 H1746 0.930 . S
C1756 C1755 1.400 . S
C1756 C1759 1.386 . S
H1757 C1773 0.930 . S
H1758 C1774 0.931 . S
C1759 H1747 0.929 . S
C1759 C1753 1.390 . S
C1759 C1756 1.386 . S
C1760 C1755 1.490 . S
C1760 C1762 1.395 . S
C1760 C1763 1.403 . S
H1761 C1767 0.930 . S
C1762 H1748 0.930 . S
C1762 C1760 1.395 . S
C1762 C1765 1.403 . S
C1763 C1760 1.403 . S
C1763 C1764 1.524 . S
C1763 C1767 1.400 . S
C1764 H1749 0.960 . S
C1764 H1750 0.960 . S
C1764 H1751 0.960 . S
C1764 C1763 1.524 . S
C1765 C1762 1.403 . S
C1765 C1766 1.392 . S
C1765 C1769 1.495 . S
C1766 C1765 1.392 . S
C1766 C1767 1.385 . S
C1766 C1768 1.478 . S
C1767 H1761 0.930 . S
C1767 C1763 1.400 . S
C1767 C1766 1.385 . S
C1768 C1766 1.478 . S
C1768 C1770 1.381 . S
C1768 C1774 1.383 . S
C1769 C1765 1.495 . S
C1769 H1775 0.959 . S
C1769 H1776 0.961 . S
C1769 H1777 0.960 . S
C1770 C1768 1.381 . S
C1770 C1771 1.394 . S
C1770 H1778 0.930 . S
C1771 C1770 1.394 . S
C1771 C1772 1.383 . S
C1771 H1779 0.929 . S
C1772 C1771 1.383 . S
C1772 C1773 1.377 . S
C1773 H1757 0.930 . S
C1773 C1772 1.377 . S
C1773 C1774 1.379 . S
C1774 H1758 0.931 . S
C1774 C1768 1.383 . S
C1774 C1773 1.379 . S
H1775 C1769 0.959 . S
H1776 C1769 0.961 . S
H1777 C1769 0.960 . S
H1778 C1770 0.930 . S
H1779 C1771 0.929 . S
H1780 C1788 0.929 . S
H1781 C1790 0.930 . S
H1782 C1792 0.930 . S
H1783 C1795 0.929 . S
H1784 C1798 0.930 . S
H1785 C1800 0.960 . S
H1786 C1800 0.960 . S
H1787 C1800 0.960 . S
C1788 H1780 0.929 . S
C1788 C1789 1.377 . S
C1788 C1790 1.384 . S
C1789 C1788 1.377 . S
C1789 C1795 1.390 . S
C1790 H1781 0.930 . S
C1790 C1788 1.384 . S
C1790 C1791 1.372 . S
C1791 C1790 1.372 . S
C1791 C1792 1.400 . S
C1791 C1796 1.490 . S
C1792 H1782 0.930 . S
C1792 C1791 1.400 . S
C1792 C1795 1.386 . S
H1793 C1809 0.930 . S
H1794 C1810 0.931 . S
C1795 H1783 0.929 . S
C1795 C1789 1.390 . S
C1795 C1792 1.386 . S
C1796 C1791 1.490 . S
C1796 C1798 1.395 . S
C1796 C1799 1.403 . S
H1797 C1803 0.930 . S
C1798 H1784 0.930 . S
C1798 C1796 1.395 . S
C1798 C1801 1.403 . S
C1799 C1796 1.403 . S
C1799 C1800 1.524 . S
C1799 C1803 1.400 . S
C1800 H1785 0.960 . S
C1800 H1786 0.960 . S
C1800 H1787 0.960 . S
C1800 C1799 1.524 . S
C1801 C1798 1.403 . S
C1801 C1802 1.392 . S
C1801 C1805 1.495 . S
C1802 C1801 1.392 . S
C1802 C1803 1.385 . S
C1802 C1804 1.478 . S
C1803 H1797 0.930 . S
C1803 C1799 1.400 . S
C1803 C1802 1.385 . S
C1804 C1802 1.478 . S
C1804 C1806 1.381 . S
C1804 C1810 1.383 . S
C1805 C1801 1.495 . S
C1805 H1811 0.959 . S
C1805 H1812 0.961 . S
C1805 H1813 0.960 . S
C1806 C1804 1.381 . S
C1806 C1807 1.394 . S
C1806 H1814 0.930 . S
C1807 C1806 1.394 . S
C1807 C1808 1.383 . S
C1807 H1815 0.929 . S
C1808 C1807 1.383 . S
C1808 C1809 1.377 . S
C1809 H1793 0.930 . S
C1809 C1808 1.377 . S
C1809 C1810 1.379 . S
C1810 H1794 0.931 . S
C1810 C1804 1.383 . S
C1810 C1809 1.379 . S
H1811 C1805 0.959 . S
H1812 C1805 0.961 . S
H1813 C1805 0.960 . S
H1814 C1806 0.930 . S
H1815 C1807 0.929 . S
H1816 C1824 0.929 . S
H1817 C1826 0.930 . S
H1818 C1828 0.930 . S
H1819 C1831 0.929 . S
H1820 C1834 0.930 . S
H1821 C1836 0.960 . S
H1822 C1836 0.960 . S
H1823 C1836 0.960 . S
C1824 H1816 0.929 . S
C1824 C1825 1.377 . S
C1824 C1826 1.384 . S
C1825 C1824 1.377 . S
C1825 C1831 1.390 . S
C1826 H1817 0.930 . S
C1826 C1824 1.384 . S
C1826 C1827 1.372 . S
C1827 C1826 1.372 . S
C1827 C1828 1.400 . S
C1827 C1832 1.490 . S
C1828 H1818 0.930 . S
C1828 C1827 1.400 . S
C1828 C1831 1.386 . S
H1829 C1845 0.930 1_545 S
H1830 C1846 0.931 . S
C1831 H1819 0.929 . S
C1831 C1825 1.390 . S
C1831 C1828 1.386 . S
C1832 C1827 1.490 . S
C1832 C1834 1.395 . S
C1832 C1835 1.403 . S
H1833 C1839 0.930 . S
C1834 H1820 0.930 . S
C1834 C1832 1.395 . S
C1834 C1837 1.403 . S
C1835 C1832 1.403 . S
C1835 C1836 1.524 . S
C1835 C1839 1.400 . S
C1836 H1821 0.960 . S
C1836 H1822 0.960 . S
C1836 H1823 0.960 . S
C1836 C1835 1.524 . S
C1837 C1834 1.403 . S
C1837 C1838 1.392 . S
C1837 C1841 1.495 . S
C1838 C1837 1.392 . S
C1838 C1839 1.385 . S
C1838 C1840 1.478 . S
C1839 H1833 0.930 . S
C1839 C1835 1.400 . S
C1839 C1838 1.385 . S
C1840 C1838 1.478 . S
C1840 C1842 1.381 . S
C1840 C1846 1.383 . S
C1841 C1837 1.495 . S
C1841 H1847 0.959 . S
C1841 H1848 0.961 . S
C1841 H1849 0.960 . S
C1842 C1840 1.381 . S
C1842 C1843 1.394 1_565 S
C1842 H1850 0.930 . S
C1843 C1842 1.394 1_545 S
C1843 C1844 1.383 . S
C1843 H1851 0.929 . S
C1844 C1843 1.383 . S
C1844 C1845 1.377 1_545 S
C1845 H1829 0.930 1_565 S
C1845 C1844 1.377 1_565 S
C1845 C1846 1.379 . S
C1846 H1830 0.931 . S
C1846 C1840 1.383 . S
C1846 C1845 1.379 . S
H1847 C1841 0.959 . S
H1848 C1841 0.961 . S
H1849 C1841 0.960 . S
H1850 C1842 0.930 . S
H1851 C1843 0.929 . S
H1852 C1860 0.929 . S
H1853 C1862 0.930 . S
H1854 C1864 0.930 . S
H1855 C1867 0.929 . S
H1856 C1870 0.930 . S
H1857 C1872 0.960 . S
H1858 C1872 0.960 . S
H1859 C1872 0.960 . S
C1860 H1852 0.929 . S
C1860 C1861 1.377 . S
C1860 C1862 1.384 . S
C1861 C1860 1.377 . S
C1861 C1867 1.390 . S
C1862 H1853 0.930 . S
C1862 C1860 1.384 . S
C1862 C1863 1.372 . S
C1863 C1862 1.372 . S
C1863 C1864 1.400 . S
C1863 C1868 1.490 . S
C1864 H1854 0.930 . S
C1864 C1863 1.400 . S
C1864 C1867 1.386 . S
H1865 C1881 0.930 . S
H1866 C1882 0.931 . S
C1867 H1855 0.929 . S
C1867 C1861 1.390 . S
C1867 C1864 1.386 . S
C1868 C1863 1.490 . S
C1868 C1870 1.395 . S
C1868 C1871 1.403 . S
H1869 C1875 0.930 . S
C1870 H1856 0.930 . S
C1870 C1868 1.395 . S
C1870 C1873 1.403 . S
C1871 C1868 1.403 . S
C1871 C1872 1.524 . S
C1871 C1875 1.400 . S
C1872 H1857 0.960 . S
C1872 H1858 0.960 . S
C1872 H1859 0.960 . S
C1872 C1871 1.524 . S
C1873 C1870 1.403 . S
C1873 C1874 1.392 . S
C1873 C1877 1.495 . S
C1874 C1873 1.392 . S
C1874 C1875 1.385 . S
C1874 C1876 1.478 . S
C1875 H1869 0.930 . S
C1875 C1871 1.400 . S
C1875 C1874 1.385 . S
C1876 C1874 1.478 . S
C1876 C1878 1.381 . S
C1876 C1882 1.383 . S
C1877 C1873 1.495 . S
C1877 H1883 0.959 . S
C1877 H1884 0.961 . S
C1877 H1885 0.960 . S
C1878 C1876 1.381 . S
C1878 C1879 1.394 . S
C1878 H1886 0.930 . S
C1879 C1878 1.394 . S
C1879 C1880 1.383 . S
C1879 H1887 0.929 . S
C1880 C1879 1.383 . S
C1880 C1881 1.377 . S
C1881 H1865 0.930 . S
C1881 C1880 1.377 . S
C1881 C1882 1.379 . S
C1882 H1866 0.931 . S
C1882 C1876 1.383 . S
C1882 C1881 1.379 . S
H1883 C1877 0.959 . S
H1884 C1877 0.961 . S
H1885 C1877 0.960 . S
H1886 C1878 0.930 . S
H1887 C1879 0.929 . S
H1888 C1896 0.929 . S
H1889 C1898 0.930 . S
H1890 C1900 0.930 . S
H1891 C1903 0.929 . S
H1892 C1906 0.930 . S
H1893 C1908 0.960 . S
H1894 C1908 0.960 . S
H1895 C1908 0.960 . S
C1896 H1888 0.929 . S
C1896 C1897 1.377 . S
C1896 C1898 1.384 . S
C1897 C1896 1.377 . S
C1897 C1903 1.390 . S
C1898 H1889 0.930 . S
C1898 C1896 1.384 . S
C1898 C1899 1.372 . S
C1899 C1898 1.372 . S
C1899 C1900 1.400 . S
C1899 C1904 1.490 . S
C1900 H1890 0.930 . S
C1900 C1899 1.400 . S
C1900 C1903 1.386 . S
H1901 C1917 0.930 . S
H1902 C1918 0.931 . S
C1903 H1891 0.929 . S
C1903 C1897 1.390 . S
C1903 C1900 1.386 . S
C1904 C1899 1.490 . S
C1904 C1906 1.395 . S
C1904 C1907 1.403 . S
H1905 C1911 0.930 . S
C1906 H1892 0.930 . S
C1906 C1904 1.395 . S
C1906 C1909 1.403 . S
C1907 C1904 1.403 . S
C1907 C1908 1.524 . S
C1907 C1911 1.400 . S
C1908 H1893 0.960 . S
C1908 H1894 0.960 . S
C1908 H1895 0.960 . S
C1908 C1907 1.524 . S
C1909 C1906 1.403 . S
C1909 C1910 1.392 . S
C1909 C1913 1.495 . S
C1910 C1909 1.392 . S
C1910 C1911 1.385 . S
C1910 C1912 1.478 . S
C1911 H1905 0.930 . S
C1911 C1907 1.400 . S
C1911 C1910 1.385 . S
C1912 C1910 1.478 . S
C1912 C1914 1.381 . S
C1912 C1918 1.383 . S
C1913 C1909 1.495 . S
C1913 H1919 0.959 . S
C1913 H1920 0.961 . S
C1913 H1921 0.960 . S
C1914 C1912 1.381 . S
C1914 C1915 1.394 . S
C1914 H1922 0.930 . S
C1915 C1914 1.394 . S
C1915 C1916 1.383 . S
C1915 H1923 0.929 . S
C1916 C1915 1.383 . S
C1916 C1917 1.377 . S
C1917 H1901 0.930 . S
C1917 C1916 1.377 . S
C1917 C1918 1.379 . S
C1918 H1902 0.931 . S
C1918 C1912 1.383 . S
C1918 C1917 1.379 . S
H1919 C1913 0.959 . S
H1920 C1913 0.961 . S
H1921 C1913 0.960 . S
H1922 C1914 0.930 . S
H1923 C1915 0.929 . S
H1924 C1932 0.929 . S
H1925 C1934 0.930 . S
H1926 C1936 0.930 . S
H1927 C1939 0.929 . S
H1928 C1942 0.930 . S
H1929 C1944 0.960 . S
H1930 C1944 0.960 . S
H1931 C1944 0.960 . S
C1932 H1924 0.929 . S
C1932 C1933 1.377 . S
C1932 C1934 1.384 . S
C1933 C1932 1.377 . S
C1933 C1939 1.390 . S
C1934 H1925 0.930 . S
C1934 C1932 1.384 . S
C1934 C1935 1.372 . S
C1935 C1934 1.372 . S
C1935 C1936 1.400 . S
C1935 C1940 1.490 . S
C1936 H1926 0.930 . S
C1936 C1935 1.400 . S
C1936 C1939 1.386 . S
H1937 C1953 0.930 . S
H1938 C1954 0.931 . S
C1939 H1927 0.929 . S
C1939 C1933 1.390 . S
C1939 C1936 1.386 . S
C1940 C1935 1.490 . S
C1940 C1942 1.395 . S
C1940 C1943 1.403 . S
H1941 C1947 0.930 . S
C1942 H1928 0.930 . S
C1942 C1940 1.395 . S
C1942 C1945 1.403 . S
C1943 C1940 1.403 . S
C1943 C1944 1.524 . S
C1943 C1947 1.400 . S
C1944 H1929 0.960 . S
C1944 H1930 0.960 . S
C1944 H1931 0.960 . S
C1944 C1943 1.524 . S
C1945 C1942 1.403 . S
C1945 C1946 1.392 . S
C1945 C1949 1.495 . S
C1946 C1945 1.392 . S
C1946 C1947 1.385 . S
C1946 C1948 1.478 . S
C1947 H1941 0.930 . S
C1947 C1943 1.400 . S
C1947 C1946 1.385 . S
C1948 C1946 1.478 . S
C1948 C1950 1.381 . S
C1948 C1954 1.383 . S
C1949 C1945 1.495 . S
C1949 H1955 0.959 . S
C1949 H1956 0.961 . S
C1949 H1957 0.960 . S
C1950 C1948 1.381 . S
C1950 C1951 1.394 . S
C1950 H1958 0.930 . S
C1951 C1950 1.394 . S
C1951 C1952 1.383 . S
C1951 H1959 0.929 . S
C1952 C1951 1.383 . S
C1952 C1953 1.377 . S
C1953 H1937 0.930 . S
C1953 C1952 1.377 . S
C1953 C1954 1.379 . S
C1954 H1938 0.931 . S
C1954 C1948 1.383 . S
C1954 C1953 1.379 . S
H1955 C1949 0.959 . S
H1956 C1949 0.961 . S
H1957 C1949 0.960 . S
H1958 C1950 0.930 . S
H1959 C1951 0.929 . S
H1960 C1968 0.929 . S
H1961 C1970 0.930 . S
H1962 C1972 0.930 . S
H1963 C1975 0.929 . S
H1964 C1978 0.930 . S
H1965 C1980 0.960 . S
H1966 C1980 0.960 . S
H1967 C1980 0.960 . S
C1968 H1960 0.929 . S
C1968 C1969 1.377 . S
C1968 C1970 1.384 . S
C1969 C1968 1.377 . S
C1969 C1975 1.390 . S
C1970 H1961 0.930 . S
C1970 C1968 1.384 . S
C1970 C1971 1.372 . S
C1971 C1970 1.372 . S
C1971 C1972 1.400 . S
C1971 C1976 1.490 . S
C1972 H1962 0.930 . S
C1972 C1971 1.400 . S
C1972 C1975 1.386 . S
H1973 C1989 0.930 . S
H1974 C1990 0.931 . S
C1975 H1963 0.929 . S
C1975 C1969 1.390 . S
C1975 C1972 1.386 . S
C1976 C1971 1.490 . S
C1976 C1978 1.395 . S
C1976 C1979 1.403 . S
H1977 C1983 0.930 . S
C1978 H1964 0.930 . S
C1978 C1976 1.395 . S
C1978 C1981 1.403 . S
C1979 C1976 1.403 . S
C1979 C1980 1.524 1_455 S
C1979 C1983 1.400 . S
C1980 H1965 0.960 . S
C1980 H1966 0.960 . S
C1980 H1967 0.960 . S
C1980 C1979 1.524 1_655 S
C1981 C1978 1.403 . S
C1981 C1982 1.392 . S
C1981 C1985 1.495 . S
C1982 C1981 1.392 . S
C1982 C1983 1.385 . S
C1982 C1984 1.478 . S
C1983 H1977 0.930 . S
C1983 C1979 1.400 . S
C1983 C1982 1.385 . S
C1984 C1982 1.478 . S
C1984 C1986 1.381 . S
C1984 C1990 1.383 . S
C1985 C1981 1.495 . S
C1985 H1991 0.959 . S
C1985 H1992 0.961 . S
C1985 H1993 0.960 . S
C1986 C1984 1.381 . S
C1986 C1987 1.394 . S
C1986 H1994 0.930 . S
C1987 C1986 1.394 . S
C1987 C1988 1.383 . S
C1987 H1995 0.929 . S
C1988 C1987 1.383 . S
C1988 C1989 1.377 . S
C1989 H1973 0.930 . S
C1989 C1988 1.377 . S
C1989 C1990 1.379 . S
C1990 H1974 0.931 . S
C1990 C1984 1.383 . S
C1990 C1989 1.379 . S
H1991 C1985 0.959 . S
H1992 C1985 0.961 . S
H1993 C1985 0.960 . S
H1994 C1986 0.930 . S
H1995 C1987 0.929 . S
H1996 C2004 0.929 . S
H1997 C2006 0.930 . S
H1998 C2008 0.930 . S
H1999 C2011 0.929 . S
H2000 C2014 0.930 . S
H2001 C2016 0.960 . S
H2002 C2016 0.960 . S
H2003 C2016 0.960 . S
C2004 H1996 0.929 . S
C2004 C2005 1.377 . S
C2004 C2006 1.384 . S
C2005 C2004 1.377 . S
C2005 C2011 1.390 . S
C2006 H1997 0.930 . S
C2006 C2004 1.384 . S
C2006 C2007 1.372 . S
C2007 C2006 1.372 . S
C2007 C2008 1.400 . S
C2007 C2012 1.490 . S
C2008 H1998 0.930 . S
C2008 C2007 1.400 . S
C2008 C2011 1.386 . S
H2009 C2025 0.930 . S
H2010 C2026 0.931 . S
C2011 H1999 0.929 . S
C2011 C2005 1.390 . S
C2011 C2008 1.386 . S
C2012 C2007 1.490 . S
C2012 C2014 1.395 . S
C2012 C2015 1.403 . S
H2013 C2019 0.930 . S
C2014 H2000 0.930 . S
C2014 C2012 1.395 . S
C2014 C2017 1.403 . S
C2015 C2012 1.403 . S
C2015 C2016 1.524 . S
C2015 C2019 1.400 . S
C2016 H2001 0.960 . S
C2016 H2002 0.960 . S
C2016 H2003 0.960 . S
C2016 C2015 1.524 . S
C2017 C2014 1.403 . S
C2017 C2018 1.392 . S
C2017 C2021 1.495 . S
C2018 C2017 1.392 . S
C2018 C2019 1.385 . S
C2018 C2020 1.478 . S
C2019 H2013 0.930 . S
C2019 C2015 1.400 . S
C2019 C2018 1.385 . S
C2020 C2018 1.478 . S
C2020 C2022 1.381 . S
C2020 C2026 1.383 . S
C2021 C2017 1.495 . S
C2021 H2027 0.959 . S
C2021 H2028 0.961 . S
C2021 H2029 0.960 . S
C2022 C2020 1.381 . S
C2022 C2023 1.394 . S
C2022 H2030 0.930 . S
C2023 C2022 1.394 . S
C2023 C2024 1.383 . S
C2023 H2031 0.929 . S
C2024 C2023 1.383 . S
C2024 C2025 1.377 . S
C2025 H2009 0.930 . S
C2025 C2024 1.377 . S
C2025 C2026 1.379 . S
C2026 H2010 0.931 . S
C2026 C2020 1.383 . S
C2026 C2025 1.379 . S
H2027 C2021 0.959 . S
H2028 C2021 0.961 . S
H2029 C2021 0.960 . S
H2030 C2022 0.930 . S
H2031 C2023 0.929 . S
H2032 C2040 0.929 . S
H2033 C2042 0.930 . S
H2034 C2044 0.930 . S
H2035 C2047 0.929 . S
H2036 C2050 0.930 . S
H2037 C2052 0.960 . S
H2038 C2052 0.960 . S
H2039 C2052 0.960 . S
C2040 H2032 0.929 . S
C2040 C2041 1.377 . S
C2040 C2042 1.384 . S
C2041 C2040 1.377 . S
C2041 C2047 1.390 . S
C2042 H2033 0.930 . S
C2042 C2040 1.384 . S
C2042 C2043 1.372 . S
C2043 C2042 1.372 . S
C2043 C2044 1.400 . S
C2043 C2048 1.490 . S
C2044 H2034 0.930 . S
C2044 C2043 1.400 . S
C2044 C2047 1.386 . S
H2045 C2061 0.930 . S
H2046 C2062 0.931 . S
C2047 H2035 0.929 . S
C2047 C2041 1.390 . S
C2047 C2044 1.386 . S
C2048 C2043 1.490 . S
C2048 C2050 1.395 . S
C2048 C2051 1.403 . S
H2049 C2055 0.930 . S
C2050 H2036 0.930 . S
C2050 C2048 1.395 . S
C2050 C2053 1.403 . S
C2051 C2048 1.403 . S
C2051 C2052 1.524 . S
C2051 C2055 1.400 . S
C2052 H2037 0.960 . S
C2052 H2038 0.960 . S
C2052 H2039 0.960 . S
C2052 C2051 1.524 . S
C2053 C2050 1.403 . S
C2053 C2054 1.392 . S
C2053 C2057 1.495 . S
C2054 C2053 1.392 . S
C2054 C2055 1.385 . S
C2054 C2056 1.478 . S
C2055 H2049 0.930 . S
C2055 C2051 1.400 . S
C2055 C2054 1.385 . S
C2056 C2054 1.478 . S
C2056 C2058 1.381 . S
C2056 C2062 1.383 . S
C2057 C2053 1.495 . S
C2057 H2063 0.959 . S
C2057 H2064 0.961 . S
C2057 H2065 0.960 . S
C2058 C2056 1.381 . S
C2058 C2059 1.394 1_556 S
C2058 H2066 0.930 1_556 S
C2059 C2058 1.394 1_554 S
C2059 C2060 1.383 1_564 S
C2059 H2067 0.929 . S
C2060 C2059 1.383 1_546 S
C2060 C2061 1.377 . S
C2061 H2045 0.930 . S
C2061 C2060 1.377 . S
C2061 C2062 1.379 1_545 S
C2062 H2046 0.931 . S
C2062 C2056 1.383 . S
C2062 C2061 1.379 1_565 S
H2063 C2057 0.959 . S
H2064 C2057 0.961 . S
H2065 C2057 0.960 . S
H2066 C2058 0.930 1_554 S
H2067 C2059 0.929 . S
H2068 C2076 0.929 . S
H2069 C2078 0.930 . S
H2070 C2080 0.978 . S
H2071 C2083 0.929 . S
H2072 C2086 0.930 . S
H2073 C2088 0.960 . S
H2074 C2088 0.960 . S
H2075 C2088 0.960 . S
C2076 H2068 0.929 . S
C2076 C2077 1.377 . S
C2076 C2078 1.384 . S
C2077 C2076 1.377 . S
C2077 C2083 1.390 . S
C2078 H2069 0.930 . S
C2078 C2076 1.384 . S
C2078 C2079 1.372 1_455 S
C2079 C2078 1.372 1_655 S
C2079 C2080 1.414 . S
C2079 C2084 1.490 . S
C2080 H2070 0.978 . S
C2080 C2079 1.414 . S
C2080 C2083 1.328 1_655 S
H2081 C2097 0.930 . S
H2082 C2098 0.931 . S
C2083 H2071 0.929 . S
C2083 C2077 1.390 . S
C2083 C2080 1.328 1_455 S
C2084 C2079 1.490 . S
C2084 C2086 1.395 . S
C2084 C2087 1.403 . S
H2085 C2091 0.930 . S
C2086 H2072 0.930 . S
C2086 C2084 1.395 . S
C2086 C2089 1.403 . S
C2087 C2084 1.403 . S
C2087 C2088 1.524 . S
C2087 C2091 1.400 . S
C2088 H2073 0.960 . S
C2088 H2074 0.960 . S
C2088 H2075 0.960 . S
C2088 C2087 1.524 . S
C2089 C2086 1.403 . S
C2089 C2090 1.392 . S
C2089 C2093 1.495 . S
C2090 C2089 1.392 . S
C2090 C2091 1.385 . S
C2090 C2092 1.478 . S
C2091 H2085 0.930 . S
C2091 C2087 1.400 . S
C2091 C2090 1.385 . S
C2092 C2090 1.478 . S
C2092 C2094 1.381 . S
C2092 C2098 1.383 . S
C2093 C2089 1.495 . S
C2093 H2099 0.959 . S
C2093 H2100 0.961 . S
C2093 H2101 0.960 . S
C2094 C2092 1.381 . S
C2094 C2095 1.394 . S
C2094 H2102 0.930 . S
C2095 C2094 1.394 . S
C2095 C2096 1.383 . S
C2095 H2103 0.929 . S
C2096 C2095 1.383 . S
C2096 C2097 1.377 . S
C2097 H2081 0.930 . S
C2097 C2096 1.377 . S
C2097 C2098 1.379 . S
C2098 H2082 0.931 . S
C2098 C2092 1.383 . S
C2098 C2097 1.379 . S
H2099 C2093 0.959 . S
H2100 C2093 0.961 . S
H2101 C2093 0.960 . S
H2102 C2094 0.930 . S
H2103 C2095 0.929 . S
H2104 C2112 0.929 . S
H2105 C2114 0.930 . S
H2106 C2116 0.930 . S
H2107 C2119 0.929 . S
H2108 C2122 0.930 . S
H2109 C2124 0.960 . S
H2110 C2124 0.960 . S
H2111 C2124 0.960 . S
C2112 H2104 0.929 . S
C2112 C2113 1.377 . S
C2112 C2114 1.384 . S
C2113 C2112 1.377 . S
C2113 C2119 1.390 . S
C2114 H2105 0.930 . S
C2114 C2112 1.384 . S
C2114 C2115 1.372 . S
C2115 C2114 1.372 . S
C2115 C2116 1.400 . S
C2115 C2120 1.490 . S
C2116 H2106 0.930 . S
C2116 C2115 1.400 . S
C2116 C2119 1.386 . S
H2117 C2133 0.917 1_554 S
H2118 C2134 0.931 . S
C2119 H2107 0.929 . S
C2119 C2113 1.390 . S
C2119 C2116 1.386 . S
C2120 C2115 1.490 . S
C2120 C2122 1.395 . S
C2120 C2123 1.403 . S
H2121 C2127 0.930 . S
C2122 H2108 0.930 . S
C2122 C2120 1.395 . S
C2122 C2125 1.403 . S
C2123 C2120 1.403 . S
C2123 C2124 1.524 . S
C2123 C2127 1.400 . S
C2124 H2109 0.960 . S
C2124 H2110 0.960 . S
C2124 H2111 0.960 . S
C2124 C2123 1.524 . S
C2125 C2122 1.403 . S
C2125 C2126 1.392 . S
C2125 C2129 1.495 . S
C2126 C2125 1.392 . S
C2126 C2127 1.385 . S
C2126 C2128 1.478 . S
C2127 H2121 0.930 . S
C2127 C2123 1.400 . S
C2127 C2126 1.385 . S
C2128 C2126 1.478 . S
C2128 C2130 1.381 . S
C2128 C2134 1.383 . S
C2129 C2125 1.495 . S
C2129 H2135 0.959 . S
C2129 H2136 0.961 . S
C2129 H2137 0.960 . S
C2130 C2128 1.381 . S
C2130 C2131 1.394 . S
C2130 H2138 0.930 . S
C2131 C2130 1.394 . S
C2131 C2132 1.383 . S
C2131 H2139 0.929 . S
C2132 C2131 1.383 . S
C2132 C2133 1.377 . S
C2133 H2117 0.917 1_556 S
C2133 C2132 1.377 . S
C2133 C2134 1.379 . S
C2134 H2118 0.931 . S
C2134 C2128 1.383 . S
C2134 C2133 1.379 . S
H2135 C2129 0.959 . S
H2136 C2129 0.961 . S
H2137 C2129 0.960 . S
H2138 C2130 0.930 . S
H2139 C2131 0.929 . S
H2140 C2148 0.929 . S
H2141 C2150 0.930 . S
H2142 C2152 0.930 . S
H2143 C2155 0.929 . S
H2144 C2158 0.930 . S
H2145 C2160 0.960 . S
H2146 C2160 0.960 . S
H2147 C2160 0.960 . S
C2148 H2140 0.929 . S
C2148 C2149 1.377 . S
C2148 C2150 1.384 . S
C2149 C2148 1.377 . S
C2149 C2155 1.390 . S
C2150 H2141 0.930 . S
C2150 C2148 1.384 . S
C2150 C2151 1.372 . S
C2151 C2150 1.372 . S
C2151 C2152 1.400 . S
C2151 C2156 1.490 . S
C2152 H2142 0.930 . S
C2152 C2151 1.400 . S
C2152 C2155 1.386 . S
H2153 C2169 0.930 . S
H2154 C2170 0.931 . S
C2155 H2143 0.929 . S
C2155 C2149 1.390 . S
C2155 C2152 1.386 . S
C2156 C2151 1.490 . S
C2156 C2158 1.395 . S
C2156 C2159 1.403 . S
H2157 C2163 0.930 . S
C2158 H2144 0.930 . S
C2158 C2156 1.395 . S
C2158 C2161 1.403 . S
C2159 C2156 1.403 . S
C2159 C2160 1.524 . S
C2159 C2163 1.400 . S
C2160 H2145 0.960 . S
C2160 H2146 0.960 . S
C2160 H2147 0.960 . S
C2160 C2159 1.524 . S
C2161 C2158 1.403 . S
C2161 C2162 1.392 . S
C2161 C2165 1.495 . S
C2162 C2161 1.392 . S
C2162 C2163 1.385 . S
C2162 C2164 1.478 . S
C2163 H2157 0.930 . S
C2163 C2159 1.400 . S
C2163 C2162 1.385 . S
C2164 C2162 1.478 . S
C2164 C2166 1.381 . S
C2164 C2170 1.383 . S
C2165 C2161 1.495 . S
C2165 H2171 0.959 . S
C2165 H2172 0.961 . S
C2165 H2173 0.960 . S
C2166 C2164 1.381 . S
C2166 C2167 1.394 . S
C2166 H2174 0.930 . S
C2167 C2166 1.394 . S
C2167 C2168 1.383 . S
C2167 H2175 0.929 . S
C2168 C2167 1.383 . S
C2168 C2169 1.377 . S
C2169 H2153 0.930 . S
C2169 C2168 1.377 . S
C2169 C2170 1.379 . S
C2170 H2154 0.931 . S
C2170 C2164 1.383 . S
C2170 C2169 1.379 . S
H2171 C2165 0.959 . S
H2172 C2165 0.961 . S
H2173 C2165 0.960 . S
H2174 C2166 0.930 . S
H2175 C2167 0.929 . S
H2176 C2184 0.929 . S
H2177 C2186 0.930 . S
H2178 C2188 0.930 . S
H2179 C2191 0.929 . S
H2180 C2194 0.930 . S
H2181 C2196 0.960 . S
H2182 C2196 0.960 . S
H2183 C2196 0.960 . S
C2184 H2176 0.929 . S
C2184 C2185 1.377 . S
C2184 C2186 1.384 . S
C2185 C2184 1.377 . S
C2185 C2191 1.390 . S
C2186 H2177 0.930 . S
C2186 C2184 1.384 . S
C2186 C2187 1.372 . S
C2187 C2186 1.372 . S
C2187 C2188 1.400 . S
C2187 C2192 1.490 . S
C2188 H2178 0.930 . S
C2188 C2187 1.400 . S
C2188 C2191 1.386 . S
H2189 C2205 0.930 . S
H2190 C2206 0.931 . S
C2191 H2179 0.929 . S
C2191 C2185 1.390 . S
C2191 C2188 1.386 . S
C2192 C2187 1.490 . S
C2192 C2194 1.395 . S
C2192 C2195 1.403 . S
H2193 C2199 0.930 . S
C2194 H2180 0.930 . S
C2194 C2192 1.395 . S
C2194 C2197 1.403 . S
C2195 C2192 1.403 . S
C2195 C2196 1.524 . S
C2195 C2199 1.400 . S
C2196 H2181 0.960 . S
C2196 H2182 0.960 . S
C2196 H2183 0.960 . S
C2196 C2195 1.524 . S
C2197 C2194 1.403 . S
C2197 C2198 1.392 . S
C2197 C2201 1.495 . S
C2198 C2197 1.392 . S
C2198 C2199 1.385 . S
C2198 C2200 1.478 . S
C2199 H2193 0.930 . S
C2199 C2195 1.400 . S
C2199 C2198 1.385 . S
C2200 C2198 1.478 . S
C2200 C2202 1.381 . S
C2200 C2206 1.383 . S
C2201 C2197 1.495 . S
C2201 H2207 0.959 . S
C2201 H2208 0.961 . S
C2201 H2209 0.960 . S
C2202 C2200 1.381 . S
C2202 C2203 1.394 . S
C2202 H2210 0.930 . S
C2203 C2202 1.394 . S
C2203 C2204 1.383 . S
C2203 H2211 0.929 . S
C2204 C2203 1.383 . S
C2204 C2205 1.377 . S
C2205 H2189 0.930 . S
C2205 C2204 1.377 . S
C2205 C2206 1.379 . S
C2206 H2190 0.931 . S
C2206 C2200 1.383 . S
C2206 C2205 1.379 . S
H2207 C2201 0.959 . S
H2208 C2201 0.961 . S
H2209 C2201 0.960 . S
H2210 C2202 0.930 . S
H2211 C2203 0.929 . S
H2212 C2220 0.929 . S
H2213 C2222 0.930 . S
H2214 C2224 0.930 . S
H2215 C2227 0.929 . S
H2216 C2230 0.930 . S
H2217 C2232 0.960 . S
H2218 C2232 0.960 . S
H2219 C2232 0.960 . S
C2220 H2212 0.929 . S
C2220 C2221 1.377 . S
C2220 C2222 1.384 . S
C2221 C2220 1.377 . S
C2221 C2227 1.390 . S
C2222 H2213 0.930 . S
C2222 C2220 1.384 . S
C2222 C2223 1.372 . S
C2223 C2222 1.372 . S
C2223 C2224 1.400 . S
C2223 C2228 1.490 . S
C2224 H2214 0.930 . S
C2224 C2223 1.400 . S
C2224 C2227 1.386 . S
H2225 C2241 0.930 . S
H2226 C2242 0.931 . S
C2227 H2215 0.929 . S
C2227 C2221 1.390 . S
C2227 C2224 1.386 . S
C2228 C2223 1.490 . S
C2228 C2230 1.395 . S
C2228 C2231 1.403 . S
H2229 C2235 0.930 . S
C2230 H2216 0.930 . S
C2230 C2228 1.395 . S
C2230 C2233 1.403 . S
C2231 C2228 1.403 . S
C2231 C2232 1.524 . S
C2231 C2235 1.400 . S
C2232 H2217 0.960 . S
C2232 H2218 0.960 . S
C2232 H2219 0.960 . S
C2232 C2231 1.524 . S
C2233 C2230 1.403 . S
C2233 C2234 1.392 . S
C2233 C2237 1.495 . S
C2234 C2233 1.392 . S
C2234 C2235 1.385 . S
C2234 C2236 1.478 . S
C2235 H2229 0.930 . S
C2235 C2231 1.400 . S
C2235 C2234 1.385 . S
C2236 C2234 1.478 . S
C2236 C2238 1.381 . S
C2236 C2242 1.383 . S
C2237 C2233 1.495 . S
C2237 H2243 0.959 . S
C2237 H2244 0.961 . S
C2237 H2245 0.960 . S
C2238 C2236 1.381 . S
C2238 C2239 1.394 . S
C2238 H2246 0.930 . S
C2239 C2238 1.394 . S
C2239 C2240 1.383 . S
C2239 H2247 0.929 . S
C2240 C2239 1.383 . S
C2240 C2241 1.377 . S
C2241 H2225 0.930 . S
C2241 C2240 1.377 . S
C2241 C2242 1.379 . S
C2242 H2226 0.931 . S
C2242 C2236 1.383 . S
C2242 C2241 1.379 . S
H2243 C2237 0.959 . S
H2244 C2237 0.961 . S
H2245 C2237 0.960 . S
H2246 C2238 0.930 . S
H2247 C2239 0.929 . S
H2248 C2256 0.929 . S
H2249 C2258 0.930 . S
H2250 C2260 0.930 . S
H2251 C2263 0.929 . S
H2252 C2266 0.930 . S
H2253 C2268 0.960 . S
H2254 C2268 0.960 . S
H2255 C2268 0.960 . S
C2256 H2248 0.929 . S
C2256 C2257 1.377 . S
C2256 C2258 1.384 . S
C2257 C2256 1.377 . S
C2257 C2263 1.390 . S
C2258 H2249 0.930 . S
C2258 C2256 1.384 . S
C2258 C2259 1.372 . S
C2259 C2258 1.372 . S
C2259 C2260 1.400 . S
C2259 C2264 1.490 . S
C2260 H2250 0.930 . S
C2260 C2259 1.400 . S
C2260 C2263 1.386 . S
H2261 C2277 0.930 . S
H2262 C2278 0.931 . S
C2263 H2251 0.929 . S
C2263 C2257 1.390 . S
C2263 C2260 1.386 . S
C2264 C2259 1.490 . S
C2264 C2266 1.395 . S
C2264 C2267 1.403 . S
H2265 C2271 0.930 . S
C2266 H2252 0.930 . S
C2266 C2264 1.395 . S
C2266 C2269 1.403 . S
C2267 C2264 1.403 . S
C2267 C2268 1.524 . S
C2267 C2271 1.400 . S
C2268 H2253 0.960 . S
C2268 H2254 0.960 . S
C2268 H2255 0.960 . S
C2268 C2267 1.524 . S
C2269 C2266 1.403 . S
C2269 C2270 1.392 . S
C2269 C2273 1.495 . S
C2270 C2269 1.392 . S
C2270 C2271 1.385 . S
C2270 C2272 1.478 . S
C2271 H2265 0.930 . S
C2271 C2267 1.400 . S
C2271 C2270 1.385 . S
C2272 C2270 1.478 . S
C2272 C2274 1.381 . S
C2272 C2278 1.383 . S
C2273 C2269 1.495 . S
C2273 H2279 0.959 . S
C2273 H2280 0.961 . S
C2273 H2281 0.960 . S
C2274 C2272 1.381 . S
C2274 C2275 1.394 . S
C2274 H2282 0.930 . S
C2275 C2274 1.394 . S
C2275 C2276 1.383 . S
C2275 H2283 0.929 . S
C2276 C2275 1.383 . S
C2276 C2277 1.377 . S
C2277 H2261 0.930 . S
C2277 C2276 1.377 . S
C2277 C2278 1.379 . S
C2278 H2262 0.931 . S
C2278 C2272 1.383 . S
C2278 C2277 1.379 . S
H2279 C2273 0.959 . S
H2280 C2273 0.961 . S
H2281 C2273 0.960 . S
H2282 C2274 0.930 . S
H2283 C2275 0.929 . S
H2284 C2292 0.929 . S
H2285 C2294 0.930 . S
H2286 C2296 0.930 . S
H2287 C2299 0.929 . S
H2288 C2302 0.930 . S
H2289 C2304 0.960 . S
H2290 C2304 0.960 . S
H2291 C2304 0.960 . S
C2292 H2284 0.929 . S
C2292 C2293 1.377 . S
C2292 C2294 1.384 . S
C2293 C2292 1.377 . S
C2293 C2299 1.390 . S
C2294 H2285 0.930 . S
C2294 C2292 1.384 . S
C2294 C2295 1.372 . S
C2295 C2294 1.372 . S
C2295 C2296 1.400 . S
C2295 C2300 1.490 . S
C2296 H2286 0.930 . S
C2296 C2295 1.400 . S
C2296 C2299 1.386 . S
H2297 C2313 0.930 . S
H2298 C2314 0.931 . S
C2299 H2287 0.929 . S
C2299 C2293 1.390 . S
C2299 C2296 1.386 . S
C2300 C2295 1.490 . S
C2300 C2302 1.395 . S
C2300 C2303 1.403 . S
H2301 C2307 0.930 . S
C2302 H2288 0.930 . S
C2302 C2300 1.395 . S
C2302 C2305 1.403 . S
C2303 C2300 1.403 . S
C2303 C2304 1.524 . S
C2303 C2307 1.400 . S
C2304 H2289 0.960 . S
C2304 H2290 0.960 . S
C2304 H2291 0.960 . S
C2304 C2303 1.524 . S
C2305 C2302 1.403 . S
C2305 C2306 1.392 . S
C2305 C2309 1.495 . S
C2306 C2305 1.392 . S
C2306 C2307 1.385 . S
C2306 C2308 1.478 . S
C2307 H2301 0.930 . S
C2307 C2303 1.400 . S
C2307 C2306 1.385 . S
C2308 C2306 1.478 . S
C2308 C2310 1.381 . S
C2308 C2314 1.383 . S
C2309 C2305 1.495 . S
C2309 H2315 0.959 . S
C2309 H2316 0.961 . S
C2309 H2317 0.960 . S
C2310 C2308 1.381 . S
C2310 C2311 1.394 . S
C2310 H2318 0.930 . S
C2311 C2310 1.394 . S
C2311 C2312 1.383 . S
C2311 H2319 0.929 . S
C2312 C2311 1.383 . S
C2312 C2313 1.377 . S
C2313 H2297 0.930 . S
C2313 C2312 1.377 . S
C2313 C2314 1.379 . S
C2314 H2298 0.931 . S
C2314 C2308 1.383 . S
C2314 C2313 1.379 . S
H2315 C2309 0.959 . S
H2316 C2309 0.961 . S
H2317 C2309 0.960 . S
H2318 C2310 0.930 . S
H2319 C2311 0.929 . S
H2320 C2328 0.929 . S
H2321 C2330 0.930 . S
H2322 C2332 0.930 . S
H2323 C2335 0.929 . S
H2324 C2338 0.930 . S
H2325 C2340 0.960 . S
H2326 C2340 0.960 . S
H2327 C2340 0.960 . S
C2328 H2320 0.929 . S
C2328 C2329 1.377 . S
C2328 C2330 1.384 . S
C2329 C2328 1.377 . S
C2329 C2335 1.390 . S
C2330 H2321 0.930 . S
C2330 C2328 1.384 . S
C2330 C2331 1.372 . S
C2331 C2330 1.372 . S
C2331 C2332 1.400 . S
C2331 C2336 1.490 . S
C2332 H2322 0.930 . S
C2332 C2331 1.400 . S
C2332 C2335 1.386 . S
H2333 C2349 0.930 . S
H2334 C2350 0.931 . S
C2335 H2323 0.929 . S
C2335 C2329 1.390 . S
C2335 C2332 1.386 . S
C2336 C2331 1.490 . S
C2336 C2338 1.395 . S
C2336 C2339 1.403 . S
H2337 C2343 0.930 . S
C2338 H2324 0.930 . S
C2338 C2336 1.395 . S
C2338 C2341 1.403 . S
C2339 C2336 1.403 . S
C2339 C2340 1.524 . S
C2339 C2343 1.400 . S
C2340 H2325 0.960 . S
C2340 H2326 0.960 . S
C2340 H2327 0.960 . S
C2340 C2339 1.524 . S
C2341 C2338 1.403 . S
C2341 C2342 1.392 . S
C2341 C2345 1.495 . S
C2342 C2341 1.392 . S
C2342 C2343 1.385 . S
C2342 C2344 1.478 . S
C2343 H2337 0.930 . S
C2343 C2339 1.400 . S
C2343 C2342 1.385 . S
C2344 C2342 1.478 . S
C2344 C2346 1.381 . S
C2344 C2350 1.383 . S
C2345 C2341 1.495 . S
C2345 H2351 0.959 . S
C2345 H2352 0.961 . S
C2345 H2353 0.960 . S
C2346 C2344 1.381 . S
C2346 C2347 1.394 . S
C2346 H2354 0.930 . S
C2347 C2346 1.394 . S
C2347 C2348 1.383 . S
C2347 H2355 0.929 . S
C2348 C2347 1.383 . S
C2348 C2349 1.377 . S
C2349 H2333 0.930 . S
C2349 C2348 1.377 . S
C2349 C2350 1.379 . S
C2350 H2334 0.931 . S
C2350 C2344 1.383 . S
C2350 C2349 1.379 . S
H2351 C2345 0.959 . S
H2352 C2345 0.961 . S
H2353 C2345 0.960 . S
H2354 C2346 0.930 . S
H2355 C2347 0.929 . S
H2356 C2364 0.929 . S
H2357 C2366 0.930 . S
H2358 C2368 0.930 . S
H2359 C2371 0.929 . S
H2360 C2374 0.930 . S
H2361 C2376 0.960 . S
H2362 C2376 0.960 . S
H2363 C2376 0.960 . S
C2364 H2356 0.929 . S
C2364 C2365 1.377 . S
C2364 C2366 1.384 . S
C2365 C2364 1.377 . S
C2365 C2371 1.390 . S
C2366 H2357 0.930 . S
C2366 C2364 1.384 . S
C2366 C2367 1.372 . S
C2367 C2366 1.372 . S
C2367 C2368 1.400 . S
C2367 C2372 1.490 . S
C2368 H2358 0.930 . S
C2368 C2367 1.400 . S
C2368 C2371 1.386 . S
H2369 C2385 0.930 . S
H2370 C2386 0.931 . S
C2371 H2359 0.929 . S
C2371 C2365 1.390 . S
C2371 C2368 1.386 . S
C2372 C2367 1.490 . S
C2372 C2374 1.395 . S
C2372 C2375 1.403 . S
H2373 C2379 0.930 . S
C2374 H2360 0.930 . S
C2374 C2372 1.395 . S
C2374 C2377 1.403 . S
C2375 C2372 1.403 . S
C2375 C2376 1.524 . S
C2375 C2379 1.400 . S
C2376 H2361 0.960 . S
C2376 H2362 0.960 . S
C2376 H2363 0.960 . S
C2376 C2375 1.524 . S
C2377 C2374 1.403 . S
C2377 C2378 1.392 . S
C2377 C2381 1.495 . S
C2378 C2377 1.392 . S
C2378 C2379 1.385 . S
C2378 C2380 1.478 . S
C2379 H2373 0.930 . S
C2379 C2375 1.400 . S
C2379 C2378 1.385 . S
C2380 C2378 1.478 . S
C2380 C2382 1.381 . S
C2380 C2386 1.383 . S
C2381 C2377 1.495 . S
C2381 H2387 0.959 . S
C2381 H2388 0.961 . S
C2381 H2389 0.960 . S
C2382 C2380 1.381 . S
C2382 C2383 1.394 . S
C2382 H2390 0.930 . S
C2383 C2382 1.394 . S
C2383 C2384 1.383 . S
C2383 H2391 0.929 . S
C2384 C2383 1.383 . S
C2384 C2385 1.377 . S
C2385 H2369 0.930 . S
C2385 C2384 1.377 . S
C2385 C2386 1.379 . S
C2386 H2370 0.931 . S
C2386 C2380 1.383 . S
C2386 C2385 1.379 . S
H2387 C2381 0.959 . S
H2388 C2381 0.961 . S
H2389 C2381 0.960 . S
H2390 C2382 0.930 . S
H2391 C2383 0.929 . S
H2392 C2400 0.929 . S
H2393 C2402 0.930 . S
H2394 C2404 0.930 . S
H2395 C2407 0.929 . S
H2396 C2410 0.930 . S
H2397 C2412 0.960 . S
H2398 C2412 0.960 . S
H2399 C2412 0.960 . S
C2400 H2392 0.929 . S
C2400 C2401 1.377 . S
C2400 C2402 1.384 . S
C2401 C2400 1.377 . S
C2401 C2407 1.390 1_554 S
C2402 H2393 0.930 . S
C2402 C2400 1.384 . S
C2402 C2403 1.372 . S
C2403 C2402 1.372 . S
C2403 C2404 1.400 1_554 S
C2403 C2408 1.490 . S
C2404 H2394 0.930 . S
C2404 C2403 1.400 1_556 S
C2404 C2407 1.386 . S
H2405 C2421 0.930 . S
H2406 C2422 0.931 . S
C2407 H2395 0.929 . S
C2407 C2401 1.390 1_556 S
C2407 C2404 1.386 . S
C2408 C2403 1.490 . S
C2408 C2410 1.395 . S
C2408 C2411 1.403 1_554 S
H2409 C2415 0.930 . S
C2410 H2396 0.930 . S
C2410 C2408 1.395 . S
C2410 C2413 1.403 . S
C2411 C2408 1.403 1_556 S
C2411 C2412 1.524 . S
C2411 C2415 1.400 . S
C2412 H2397 0.960 . S
C2412 H2398 0.960 . S
C2412 H2399 0.960 . S
C2412 C2411 1.524 . S
C2413 C2410 1.403 . S
C2413 C2414 1.392 . S
C2413 C2417 1.495 . S
C2414 C2413 1.392 . S
C2414 C2415 1.385 1_554 S
C2414 C2416 1.474 1_554 S
C2415 H2409 0.930 . S
C2415 C2411 1.400 . S
C2415 C2414 1.385 1_556 S
C2416 C2414 1.474 1_556 S
C2416 C2418 1.367 1_556 S
C2416 C2422 1.401 . S
C2417 C2413 1.495 . S
C2417 H2423 0.959 . S
C2417 H2424 0.961 . S
C2417 H2425 0.960 . S
C2418 C2416 1.367 1_554 S
C2418 C2419 1.394 . S
C2418 H2426 0.930 . S
C2419 C2418 1.394 . S
C2419 C2420 1.383 1_554 S
C2419 H2427 0.929 . S
C2420 C2419 1.383 1_556 S
C2420 C2421 1.377 . S
C2421 H2405 0.930 . S
C2421 C2420 1.377 . S
C2421 C2422 1.379 . S
C2422 H2406 0.931 . S
C2422 C2416 1.401 . S
C2422 C2421 1.379 . S
H2423 C2417 0.959 . S
H2424 C2417 0.961 . S
H2425 C2417 0.960 . S
H2426 C2418 0.930 . S
H2427 C2419 0.929 . S
H2428 C2436 0.929 . S
H2429 C2438 0.930 . S
H2430 C2440 0.930 . S
H2431 C2443 0.929 . S
H2432 C2446 0.930 . S
H2433 C2448 0.960 . S
H2434 C2448 0.960 . S
H2435 C2448 0.960 . S
C2436 H2428 0.929 . S
C2436 C2437 1.377 . S
C2436 C2438 1.384 . S
C2437 C2436 1.377 . S
C2437 C2443 1.390 . S
C2438 H2429 0.930 . S
C2438 C2436 1.384 . S
C2438 C2439 1.372 . S
C2439 C2438 1.372 . S
C2439 C2440 1.400 . S
C2439 C2444 1.490 . S
C2440 H2430 0.930 . S
C2440 C2439 1.400 . S
C2440 C2443 1.386 . S
H2441 C2457 0.930 1_556 S
H2442 C2458 0.913 1_556 S
C2443 H2431 0.929 . S
C2443 C2437 1.390 . S
C2443 C2440 1.386 . S
C2444 C2439 1.490 . S
C2444 C2446 1.395 . S
C2444 C2447 1.403 . S
H2445 C2451 0.930 . S
C2446 H2432 0.930 . S
C2446 C2444 1.395 . S
C2446 C2449 1.403 . S
C2447 C2444 1.403 . S
C2447 C2448 1.524 . S
C2447 C2451 1.400 . S
C2448 H2433 0.960 . S
C2448 H2434 0.960 . S
C2448 H2435 0.960 . S
C2448 C2447 1.524 . S
C2449 C2446 1.403 . S
C2449 C2450 1.392 . S
C2449 C2453 1.495 . S
C2450 C2449 1.392 . S
C2450 C2451 1.385 . S
C2450 C2452 1.478 . S
C2451 H2445 0.930 . S
C2451 C2447 1.400 . S
C2451 C2450 1.385 . S
C2452 C2450 1.478 . S
C2452 C2454 1.381 . S
C2452 C2458 1.383 . S
C2453 C2449 1.495 . S
C2453 H2459 0.959 . S
C2453 H2460 0.961 1_554 S
C2453 H2461 0.960 . S
C2454 C2452 1.381 . S
C2454 C2455 1.394 . S
C2454 H2462 0.930 . S
C2455 C2454 1.394 . S
C2455 C2456 1.383 . S
C2455 H2463 0.929 . S
C2456 C2455 1.383 . S
C2456 C2457 1.377 . S
C2457 H2441 0.930 1_554 S
C2457 C2456 1.377 . S
C2457 C2458 1.379 . S
C2458 H2442 0.913 1_554 S
C2458 C2452 1.383 . S
C2458 C2457 1.379 . S
H2459 C2453 0.959 . S
H2460 C2453 0.961 1_556 S
H2461 C2453 0.960 . S
H2462 C2454 0.930 . S
H2463 C2455 0.929 . S
H2464 C2472 0.929 . S
H2465 C2474 0.930 . S
H2466 C2476 0.930 . S
H2467 C2479 0.929 . S
H2468 C2482 0.930 . S
H2469 C2484 0.960 . S
H2470 C2484 0.960 . S
H2471 C2484 0.960 . S
C2472 H2464 0.929 . S
C2472 C2473 1.377 . S
C2472 C2474 1.384 . S
C2473 C2472 1.377 . S
C2473 C2479 1.390 . S
C2474 H2465 0.930 . S
C2474 C2472 1.384 . S
C2474 C2475 1.372 . S
C2475 C2474 1.372 . S
C2475 C2476 1.400 . S
C2475 C2480 1.490 . S
C2476 H2466 0.930 . S
C2476 C2475 1.400 . S
C2476 C2479 1.386 . S
H2477 C2493 0.930 . S
H2478 C2494 0.931 . S
C2479 H2467 0.929 . S
C2479 C2473 1.390 . S
C2479 C2476 1.386 . S
C2480 C2475 1.490 . S
C2480 C2482 1.395 . S
C2480 C2483 1.403 . S
H2481 C2487 0.930 . S
C2482 H2468 0.930 . S
C2482 C2480 1.395 . S
C2482 C2485 1.403 . S
C2483 C2480 1.403 . S
C2483 C2484 1.524 . S
C2483 C2487 1.400 . S
C2484 H2469 0.960 . S
C2484 H2470 0.960 . S
C2484 H2471 0.960 . S
C2484 C2483 1.524 . S
C2485 C2482 1.403 . S
C2485 C2486 1.392 . S
C2485 C2489 1.495 . S
C2486 C2485 1.392 . S
C2486 C2487 1.385 . S
C2486 C2488 1.478 . S
C2487 H2481 0.930 . S
C2487 C2483 1.400 . S
C2487 C2486 1.385 . S
C2488 C2486 1.478 . S
C2488 C2490 1.381 . S
C2488 C2494 1.383 . S
C2489 C2485 1.495 . S
C2489 H2495 0.959 . S
C2489 H2496 0.961 . S
C2489 H2497 0.960 . S
C2490 C2488 1.381 . S
C2490 C2491 1.394 . S
C2490 H2498 0.930 . S
C2491 C2490 1.394 . S
C2491 C2492 1.383 . S
C2491 H2499 0.929 . S
C2492 C2491 1.383 . S
C2492 C2493 1.377 . S
C2493 H2477 0.930 . S
C2493 C2492 1.377 . S
C2493 C2494 1.379 . S
C2494 H2478 0.931 . S
C2494 C2488 1.383 . S
C2494 C2493 1.379 . S
H2495 C2489 0.959 . S
H2496 C2489 0.961 . S
H2497 C2489 0.960 . S
H2498 C2490 0.930 . S
H2499 C2491 0.929 . S
H2500 C2508 0.929 . S
H2501 C2510 0.930 . S
H2502 C2512 0.930 . S
H2503 C2515 0.929 . S
H2504 C2518 0.930 . S
H2505 C2520 0.960 . S
H2506 C2520 0.960 . S
H2507 C2520 0.960 . S
C2508 H2500 0.929 . S
C2508 C2509 1.377 . S
C2508 C2510 1.384 . S
C2509 C2508 1.377 . S
C2509 C2515 1.390 . S
C2510 H2501 0.930 . S
C2510 C2508 1.384 . S
C2510 C2511 1.372 . S
C2511 C2510 1.372 . S
C2511 C2512 1.400 . S
C2511 C2516 1.490 . S
C2512 H2502 0.930 . S
C2512 C2511 1.400 . S
C2512 C2515 1.386 . S
H2513 C2529 0.930 . S
H2514 C2530 0.931 . S
C2515 H2503 0.929 . S
C2515 C2509 1.390 . S
C2515 C2512 1.386 . S
C2516 C2511 1.490 . S
C2516 C2518 1.395 . S
C2516 C2519 1.403 . S
H2517 C2523 0.930 . S
C2518 H2504 0.930 . S
C2518 C2516 1.395 . S
C2518 C2521 1.403 . S
C2519 C2516 1.403 . S
C2519 C2520 1.524 . S
C2519 C2523 1.400 . S
C2520 H2505 0.960 . S
C2520 H2506 0.960 . S
C2520 H2507 0.960 . S
C2520 C2519 1.524 . S
C2521 C2518 1.403 . S
C2521 C2522 1.392 . S
C2521 C2525 1.495 . S
C2522 C2521 1.392 . S
C2522 C2523 1.385 . S
C2522 C2524 1.478 . S
C2523 H2517 0.930 . S
C2523 C2519 1.400 . S
C2523 C2522 1.385 . S
C2524 C2522 1.478 . S
C2524 C2526 1.381 . S
C2524 C2530 1.383 . S
C2525 C2521 1.495 . S
C2525 H2531 0.959 . S
C2525 H2532 0.961 . S
C2525 H2533 0.960 . S
C2526 C2524 1.381 . S
C2526 C2527 1.394 . S
C2526 H2534 0.930 . S
C2527 C2526 1.394 . S
C2527 C2528 1.383 . S
C2527 H2535 0.929 . S
C2528 C2527 1.383 . S
C2528 C2529 1.377 . S
C2529 H2513 0.930 . S
C2529 C2528 1.377 . S
C2529 C2530 1.379 . S
C2530 H2514 0.931 . S
C2530 C2524 1.383 . S
C2530 C2529 1.379 . S
H2531 C2525 0.959 . S
H2532 C2525 0.961 . S
H2533 C2525 0.960 . S
H2534 C2526 0.930 . S
H2535 C2527 0.929 . S
H2536 C2544 0.929 . S
H2537 C2546 0.930 . S
H2538 C2548 0.930 . S
H2539 C2551 0.929 . S
H2540 C2554 0.930 . S
H2541 C2556 0.960 . S
H2542 C2556 0.960 . S
H2543 C2556 0.960 . S
C2544 H2536 0.929 . S
C2544 C2545 1.377 . S
C2544 C2546 1.384 . S
C2545 C2544 1.377 . S
C2545 C2551 1.390 . S
C2546 H2537 0.930 . S
C2546 C2544 1.384 . S
C2546 C2547 1.372 . S
C2547 C2546 1.372 . S
C2547 C2548 1.400 . S
C2547 C2552 1.490 . S
C2548 H2538 0.930 . S
C2548 C2547 1.400 . S
C2548 C2551 1.386 . S
H2549 C2565 0.930 . S
H2550 C2566 0.931 . S
C2551 H2539 0.929 . S
C2551 C2545 1.390 . S
C2551 C2548 1.386 . S
C2552 C2547 1.490 . S
C2552 C2554 1.395 . S
C2552 C2555 1.403 . S
H2553 C2559 0.930 . S
C2554 H2540 0.930 . S
C2554 C2552 1.395 . S
C2554 C2557 1.403 . S
C2555 C2552 1.403 . S
C2555 C2556 1.524 . S
C2555 C2559 1.400 . S
C2556 H2541 0.960 . S
C2556 H2542 0.960 . S
C2556 H2543 0.960 . S
C2556 C2555 1.524 . S
C2557 C2554 1.403 . S
C2557 C2558 1.392 . S
C2557 C2561 1.495 . S
C2558 C2557 1.392 . S
C2558 C2559 1.385 . S
C2558 C2560 1.478 . S
C2559 H2553 0.930 . S
C2559 C2555 1.400 . S
C2559 C2558 1.385 . S
C2560 C2558 1.478 . S
C2560 C2562 1.381 . S
C2560 C2566 1.383 . S
C2561 C2557 1.495 . S
C2561 H2567 0.959 . S
C2561 H2568 0.961 . S
C2561 H2569 0.960 . S
C2562 C2560 1.381 . S
C2562 C2563 1.394 . S
C2562 H2570 0.930 . S
C2563 C2562 1.394 . S
C2563 C2564 1.383 . S
C2563 H2571 0.929 . S
C2564 C2563 1.383 . S
C2564 C2565 1.377 . S
C2565 H2549 0.930 . S
C2565 C2564 1.377 . S
C2565 C2566 1.379 . S
C2566 H2550 0.931 . S
C2566 C2560 1.383 . S
C2566 C2565 1.379 . S
H2567 C2561 0.959 . S
H2568 C2561 0.961 . S
H2569 C2561 0.960 . S
H2570 C2562 0.930 . S
H2571 C2563 0.929 . S
H2572 C2580 0.929 . S
H2573 C2582 0.930 . S
H2574 C2584 0.930 . S
H2575 C2587 0.929 . S
H2576 C2590 0.930 . S
H2577 C2592 0.960 . S
H2578 C2592 0.960 . S
H2579 C2592 0.960 . S
C2580 H2572 0.929 . S
C2580 C2581 1.377 . S
C2580 C2582 1.384 . S
C2581 C2580 1.377 . S
C2581 C2587 1.390 . S
C2582 H2573 0.930 . S
C2582 C2580 1.384 . S
C2582 C2583 1.372 . S
C2583 C2582 1.372 . S
C2583 C2584 1.400 . S
C2583 C2588 1.490 . S
C2584 H2574 0.930 . S
C2584 C2583 1.400 . S
C2584 C2587 1.386 . S
H2585 C2601 0.992 . S
H2586 C2602 0.917 1_545 S
C2587 H2575 0.929 . S
C2587 C2581 1.390 . S
C2587 C2584 1.386 . S
C2588 C2583 1.490 . S
C2588 C2590 1.395 . S
C2588 C2591 1.403 . S
H2589 C2595 0.930 . S
C2590 H2576 0.930 . S
C2590 C2588 1.395 . S
C2590 C2593 1.403 . S
C2591 C2588 1.403 . S
C2591 C2592 1.524 . S
C2591 C2595 1.400 . S
C2592 H2577 0.960 . S
C2592 H2578 0.960 . S
C2592 H2579 0.960 . S
C2592 C2591 1.524 . S
C2593 C2590 1.403 . S
C2593 C2594 1.392 . S
C2593 C2597 1.495 . S
C2594 C2593 1.392 . S
C2594 C2595 1.385 . S
C2594 C2596 1.478 . S
C2595 H2589 0.930 . S
C2595 C2591 1.400 . S
C2595 C2594 1.385 . S
C2596 C2594 1.478 . S
C2596 C2598 1.381 . S
C2596 C2602 1.383 . S
C2597 C2593 1.495 . S
C2597 H2603 0.959 . S
C2597 H2604 0.961 . S
C2597 H2605 0.960 . S
C2598 C2596 1.381 . S
C2598 C2599 1.394 . S
C2598 H2606 0.930 . S
C2599 C2598 1.394 . S
C2599 C2600 1.383 . S
C2599 H2607 0.929 . S
C2600 C2599 1.383 . S
C2600 C2601 1.355 1_565 S
C2601 H2585 0.992 . S
C2601 C2600 1.355 1_545 S
C2601 C2602 1.342 1_545 S
C2602 H2586 0.917 1_565 S
C2602 C2596 1.383 . S
C2602 C2601 1.342 1_565 S
H2603 C2597 0.959 . S
H2604 C2597 0.961 . S
H2605 C2597 0.960 . S
H2606 C2598 0.930 . S
H2607 C2599 0.929 . S
H2608 C2616 0.929 . S
H2609 C2618 0.930 . S
H2610 C2620 0.930 . S
H2611 C2623 0.929 . S
H2612 C2626 0.930 . S
H2613 C2628 0.960 . S
H2614 C2628 0.960 . S
H2615 C2628 0.960 . S
C2616 H2608 0.929 . S
C2616 C2617 1.377 . S
C2616 C2618 1.384 . S
C2617 C2616 1.377 . S
C2617 C2623 1.390 . S
C2618 H2609 0.930 . S
C2618 C2616 1.384 . S
C2618 C2619 1.372 . S
C2619 C2618 1.372 . S
C2619 C2620 1.400 . S
C2619 C2624 1.490 . S
C2620 H2610 0.930 . S
C2620 C2619 1.400 . S
C2620 C2623 1.386 . S
H2621 C2637 0.930 . S
H2622 C2638 0.931 . S
C2623 H2611 0.929 . S
C2623 C2617 1.390 . S
C2623 C2620 1.386 . S
C2624 C2619 1.490 . S
C2624 C2626 1.395 . S
C2624 C2627 1.403 . S
H2625 C2631 0.930 . S
C2626 H2612 0.930 . S
C2626 C2624 1.395 . S
C2626 C2629 1.403 . S
C2627 C2624 1.403 . S
C2627 C2628 1.524 . S
C2627 C2631 1.400 . S
C2628 H2613 0.960 . S
C2628 H2614 0.960 . S
C2628 H2615 0.960 . S
C2628 C2627 1.524 . S
C2629 C2626 1.403 . S
C2629 C2630 1.392 . S
C2629 C2633 1.495 . S
C2630 C2629 1.392 . S
C2630 C2631 1.385 . S
C2630 C2632 1.478 . S
C2631 H2625 0.930 . S
C2631 C2627 1.400 . S
C2631 C2630 1.385 . S
C2632 C2630 1.478 . S
C2632 C2634 1.381 . S
C2632 C2638 1.383 . S
C2633 C2629 1.495 . S
C2633 H2639 0.959 . S
C2633 H2640 0.961 . S
C2633 H2641 0.960 . S
C2634 C2632 1.381 . S
C2634 C2635 1.394 . S
C2634 H2642 0.930 . S
C2635 C2634 1.394 . S
C2635 C2636 1.383 . S
C2635 H2643 0.929 . S
C2636 C2635 1.383 . S
C2636 C2637 1.377 . S
C2637 H2621 0.930 . S
C2637 C2636 1.377 . S
C2637 C2638 1.379 . S
C2638 H2622 0.931 . S
C2638 C2632 1.383 . S
C2638 C2637 1.379 . S
H2639 C2633 0.959 . S
H2640 C2633 0.961 . S
H2641 C2633 0.960 . S
H2642 C2634 0.930 . S
H2643 C2635 0.929 . S
H2644 C2652 0.929 . S
H2645 C2654 0.930 . S
H2646 C2656 0.930 . S
H2647 C2659 0.929 . S
H2648 C2662 0.930 . S
H2649 C2664 0.960 . S
H2650 C2664 0.960 . S
H2651 C2664 0.960 . S
C2652 H2644 0.929 . S
C2652 C2653 1.377 . S
C2652 C2654 1.384 . S
C2653 C2652 1.377 . S
C2653 C2659 1.390 . S
C2654 H2645 0.930 . S
C2654 C2652 1.384 . S
C2654 C2655 1.372 . S
C2655 C2654 1.372 . S
C2655 C2656 1.400 . S
C2655 C2660 1.490 . S
C2656 H2646 0.930 . S
C2656 C2655 1.400 . S
C2656 C2659 1.386 . S
H2657 C2673 0.930 . S
H2658 C2674 0.931 . S
C2659 H2647 0.929 . S
C2659 C2653 1.390 . S
C2659 C2656 1.386 . S
C2660 C2655 1.490 . S
C2660 C2662 1.395 . S
C2660 C2663 1.403 . S
H2661 C2667 0.930 . S
C2662 H2648 0.930 . S
C2662 C2660 1.395 . S
C2662 C2665 1.403 . S
C2663 C2660 1.403 . S
C2663 C2664 1.524 . S
C2663 C2667 1.400 . S
C2664 H2649 0.960 . S
C2664 H2650 0.960 . S
C2664 H2651 0.960 . S
C2664 C2663 1.524 . S
C2665 C2662 1.403 . S
C2665 C2666 1.392 . S
C2665 C2669 1.495 . S
C2666 C2665 1.392 . S
C2666 C2667 1.385 . S
C2666 C2668 1.478 . S
C2667 H2661 0.930 . S
C2667 C2663 1.400 . S
C2667 C2666 1.385 . S
C2668 C2666 1.478 . S
C2668 C2670 1.381 . S
C2668 C2674 1.383 . S
C2669 C2665 1.495 . S
C2669 H2675 0.959 . S
C2669 H2676 0.961 . S
C2669 H2677 0.960 . S
C2670 C2668 1.381 . S
C2670 C2671 1.394 . S
C2670 H2678 0.930 . S
C2671 C2670 1.394 . S
C2671 C2672 1.383 . S
C2671 H2679 0.929 . S
C2672 C2671 1.383 . S
C2672 C2673 1.377 . S
C2673 H2657 0.930 . S
C2673 C2672 1.377 . S
C2673 C2674 1.379 . S
C2674 H2658 0.931 . S
C2674 C2668 1.383 . S
C2674 C2673 1.379 . S
H2675 C2669 0.959 . S
H2676 C2669 0.961 . S
H2677 C2669 0.960 . S
H2678 C2670 0.930 . S
H2679 C2671 0.929 . S
H2680 C2688 0.929 . S
H2681 C2690 0.930 . S
H2682 C2692 0.930 . S
H2683 C2695 0.929 . S
H2684 C2698 0.930 . S
H2685 C2700 0.960 . S
H2686 C2700 0.960 . S
H2687 C2700 0.960 . S
C2688 H2680 0.929 . S
C2688 C2689 1.377 . S
C2688 C2690 1.384 . S
C2689 C2688 1.377 . S
C2689 C2695 1.390 . S
C2690 H2681 0.930 . S
C2690 C2688 1.384 . S
C2690 C2691 1.372 . S
C2691 C2690 1.372 . S
C2691 C2692 1.400 . S
C2691 C2696 1.490 . S
C2692 H2682 0.930 . S
C2692 C2691 1.400 . S
C2692 C2695 1.386 . S
H2693 C2709 0.930 . S
H2694 C2710 0.931 . S
C2695 H2683 0.929 . S
C2695 C2689 1.390 . S
C2695 C2692 1.386 . S
C2696 C2691 1.490 . S
C2696 C2698 1.395 . S
C2696 C2699 1.403 . S
H2697 C2703 0.930 . S
C2698 H2684 0.930 . S
C2698 C2696 1.395 . S
C2698 C2701 1.403 . S
C2699 C2696 1.403 . S
C2699 C2700 1.524 . S
C2699 C2703 1.400 . S
C2700 H2685 0.960 . S
C2700 H2686 0.960 . S
C2700 H2687 0.960 . S
C2700 C2699 1.524 . S
C2701 C2698 1.403 . S
C2701 C2702 1.392 . S
C2701 C2705 1.495 . S
C2702 C2701 1.392 . S
C2702 C2703 1.385 . S
C2702 C2704 1.478 . S
C2703 H2697 0.930 . S
C2703 C2699 1.400 . S
C2703 C2702 1.385 . S
C2704 C2702 1.478 . S
C2704 C2706 1.381 . S
C2704 C2710 1.383 . S
C2705 C2701 1.495 . S
C2705 H2711 0.959 . S
C2705 H2712 0.961 . S
C2705 H2713 0.960 . S
C2706 C2704 1.381 . S
C2706 C2707 1.394 . S
C2706 H2714 0.930 . S
C2707 C2706 1.394 . S
C2707 C2708 1.383 . S
C2707 H2715 0.929 . S
C2708 C2707 1.383 . S
C2708 C2709 1.377 . S
C2709 H2693 0.930 . S
C2709 C2708 1.377 . S
C2709 C2710 1.379 . S
C2710 H2694 0.931 . S
C2710 C2704 1.383 . S
C2710 C2709 1.379 . S
H2711 C2705 0.959 . S
H2712 C2705 0.961 . S
H2713 C2705 0.960 . S
H2714 C2706 0.930 . S
H2715 C2707 0.929 . S
H2716 C2724 0.929 . S
H2717 C2726 0.930 . S
H2718 C2728 0.930 . S
H2719 C2731 0.929 . S
H2720 C2734 0.930 . S
H2721 C2736 0.960 . S
H2722 C2736 0.960 . S
H2723 C2736 0.960 . S
C2724 H2716 0.929 . S
C2724 C2725 1.377 . S
C2724 C2726 1.384 . S
C2725 C2724 1.377 . S
C2725 C2731 1.390 . S
C2726 H2717 0.930 . S
C2726 C2724 1.384 . S
C2726 C2727 1.372 . S
C2727 C2726 1.372 . S
C2727 C2728 1.400 . S
C2727 C2732 1.490 . S
C2728 H2718 0.930 . S
C2728 C2727 1.400 . S
C2728 C2731 1.386 . S
H2729 C2745 0.930 . S
H2730 C2746 0.931 . S
C2731 H2719 0.929 . S
C2731 C2725 1.390 . S
C2731 C2728 1.386 . S
C2732 C2727 1.490 . S
C2732 C2734 1.395 . S
C2732 C2735 1.403 . S
H2733 C2739 0.930 . S
C2734 H2720 0.930 . S
C2734 C2732 1.395 . S
C2734 C2737 1.403 . S
C2735 C2732 1.403 . S
C2735 C2736 1.524 . S
C2735 C2739 1.400 . S
C2736 H2721 0.960 . S
C2736 H2722 0.960 . S
C2736 H2723 0.960 . S
C2736 C2735 1.524 . S
C2737 C2734 1.403 . S
C2737 C2738 1.392 . S
C2737 C2741 1.495 . S
C2738 C2737 1.392 . S
C2738 C2739 1.385 . S
C2738 C2740 1.478 . S
C2739 H2733 0.930 . S
C2739 C2735 1.400 . S
C2739 C2738 1.385 . S
C2740 C2738 1.478 . S
C2740 C2742 1.381 . S
C2740 C2746 1.383 . S
C2741 C2737 1.495 . S
C2741 H2747 0.959 . S
C2741 H2748 0.961 . S
C2741 H2749 0.960 . S
C2742 C2740 1.381 . S
C2742 C2743 1.394 . S
C2742 H2750 0.930 . S
C2743 C2742 1.394 . S
C2743 C2744 1.383 . S
C2743 H2751 0.929 . S
C2744 C2743 1.383 . S
C2744 C2745 1.377 . S
C2745 H2729 0.930 . S
C2745 C2744 1.377 . S
C2745 C2746 1.379 . S
C2746 H2730 0.931 . S
C2746 C2740 1.383 . S
C2746 C2745 1.379 . S
H2747 C2741 0.959 . S
H2748 C2741 0.961 . S
H2749 C2741 0.960 . S
H2750 C2742 0.930 . S
H2751 C2743 0.929 . S
H2752 C2760 0.924 1_655 S
H2753 C2762 0.939 . S
H2754 C2764 0.930 . S
H2755 C2767 0.929 . S
H2756 C2770 0.930 . S
H2757 C2772 0.960 . S
H2758 C2772 0.960 . S
H2759 C2772 0.960 . S
C2760 H2752 0.924 1_455 S
C2760 C2761 1.377 . S
C2760 C2762 1.384 . S
C2761 C2760 1.377 . S
C2761 C2767 1.390 . S
C2762 H2753 0.939 . S
C2762 C2760 1.384 . S
C2762 C2763 1.372 . S
C2763 C2762 1.372 . S
C2763 C2764 1.400 . S
C2763 C2768 1.490 . S
C2764 H2754 0.930 . S
C2764 C2763 1.400 . S
C2764 C2767 1.386 . S
H2765 C2781 0.930 . S
H2766 C2782 0.931 . S
C2767 H2755 0.929 . S
C2767 C2761 1.390 . S
C2767 C2764 1.386 . S
C2768 C2763 1.490 . S
C2768 C2770 1.395 . S
C2768 C2771 1.403 . S
H2769 C2775 0.930 . S
C2770 H2756 0.930 . S
C2770 C2768 1.395 . S
C2770 C2773 1.403 . S
C2771 C2768 1.403 . S
C2771 C2772 1.524 . S
C2771 C2775 1.400 . S
C2772 H2757 0.960 . S
C2772 H2758 0.960 . S
C2772 H2759 0.960 . S
C2772 C2771 1.524 . S
C2773 C2770 1.403 . S
C2773 C2774 1.392 . S
C2773 C2777 1.495 1_556 S
C2774 C2773 1.392 . S
C2774 C2775 1.385 . S
C2774 C2776 1.468 1_556 S
C2775 H2769 0.930 . S
C2775 C2771 1.400 . S
C2775 C2774 1.385 . S
C2776 C2774 1.468 1_554 S
C2776 C2778 1.380 1_554 S
C2776 C2782 1.392 . S
C2777 C2773 1.495 1_554 S
C2777 H2783 0.959 1_455 S
C2777 H2784 0.961 . S
C2777 H2785 0.960 1_455 S
C2778 C2776 1.380 1_556 S
C2778 C2779 1.394 1_556 S
C2778 H2786 0.930 . S
C2779 C2778 1.394 1_554 S
C2779 C2780 1.383 . S
C2779 H2787 0.929 . S
C2780 C2779 1.383 . S
C2780 C2781 1.377 . S
C2781 H2765 0.930 . S
C2781 C2780 1.377 . S
C2781 C2782 1.379 . S
C2782 H2766 0.931 . S
C2782 C2776 1.392 . S
C2782 C2781 1.379 . S
H2783 C2777 0.959 1_655 S
H2784 C2777 0.961 . S
H2785 C2777 0.960 1_655 S
H2786 C2778 0.930 . S
H2787 C2779 0.929 . S
H2788 C2796 0.929 . S
H2789 C2798 0.930 . S
H2790 C2800 0.930 . S
H2791 C2803 0.929 . S
H2792 C2806 0.930 . S
H2793 C2808 0.960 . S
H2794 C2808 0.960 . S
H2795 C2808 0.960 . S
C2796 H2788 0.929 . S
C2796 C2797 1.377 . S
C2796 C2798 1.384 1_455 S
C2797 C2796 1.377 . S
C2797 C2803 1.390 . S
C2798 H2789 0.930 . S
C2798 C2796 1.384 1_655 S
C2798 C2799 1.372 . S
C2799 C2798 1.372 . S
C2799 C2800 1.400 . S
C2799 C2804 1.490 . S
C2800 H2790 0.930 . S
C2800 C2799 1.400 . S
C2800 C2803 1.386 1_655 S
H2801 C2817 0.930 . S
H2802 C2818 0.931 . S
C2803 H2791 0.929 . S
C2803 C2797 1.390 . S
C2803 C2800 1.386 1_455 S
C2804 C2799 1.490 . S
C2804 C2806 1.395 . S
C2804 C2807 1.403 . S
H2805 C2811 0.930 . S
C2806 H2792 0.930 . S
C2806 C2804 1.395 . S
C2806 C2809 1.403 . S
C2807 C2804 1.403 . S
C2807 C2808 1.524 . S
C2807 C2811 1.400 . S
C2808 H2793 0.960 . S
C2808 H2794 0.960 . S
C2808 H2795 0.960 . S
C2808 C2807 1.524 . S
C2809 C2806 1.403 . S
C2809 C2810 1.392 . S
C2809 C2813 1.495 . S
C2810 C2809 1.392 . S
C2810 C2811 1.385 . S
C2810 C2812 1.478 . S
C2811 H2805 0.930 . S
C2811 C2807 1.400 . S
C2811 C2810 1.385 . S
C2812 C2810 1.478 . S
C2812 C2814 1.381 . S
C2812 C2818 1.383 . S
C2813 C2809 1.495 . S
C2813 H2819 0.959 . S
C2813 H2820 0.961 . S
C2813 H2821 0.960 . S
C2814 C2812 1.381 . S
C2814 C2815 1.394 . S
C2814 H2822 0.930 . S
C2815 C2814 1.394 . S
C2815 C2816 1.383 . S
C2815 H2823 0.929 . S
C2816 C2815 1.383 . S
C2816 C2817 1.377 . S
C2817 H2801 0.930 . S
C2817 C2816 1.377 . S
C2817 C2818 1.379 . S
C2818 H2802 0.931 . S
C2818 C2812 1.383 . S
C2818 C2817 1.379 . S
H2819 C2813 0.959 . S
H2820 C2813 0.961 . S
H2821 C2813 0.960 . S
H2822 C2814 0.930 . S
H2823 C2815 0.929 . S
H2824 C2832 0.929 . S
H2825 C2834 0.930 . S
H2826 C2836 0.930 . S
H2827 C2839 0.929 . S
H2828 C2842 0.930 . S
H2829 C2844 0.960 . S
H2830 C2844 0.960 . S
H2831 C2844 0.960 . S
C2832 H2824 0.929 . S
C2832 C2833 1.377 . S
C2832 C2834 1.384 . S
C2833 C2832 1.377 . S
C2833 C2839 1.390 . S
C2834 H2825 0.930 . S
C2834 C2832 1.384 . S
C2834 C2835 1.372 . S
C2835 C2834 1.372 . S
C2835 C2836 1.400 . S
C2835 C2840 1.490 . S
C2836 H2826 0.930 . S
C2836 C2835 1.400 . S
C2836 C2839 1.386 . S
H2837 C2853 0.930 . S
H2838 C2854 0.931 . S
C2839 H2827 0.929 . S
C2839 C2833 1.390 . S
C2839 C2836 1.386 . S
C2840 C2835 1.490 . S
C2840 C2842 1.395 . S
C2840 C2843 1.403 . S
H2841 C2847 0.930 . S
C2842 H2828 0.930 . S
C2842 C2840 1.395 . S
C2842 C2845 1.403 . S
C2843 C2840 1.403 . S
C2843 C2844 1.524 . S
C2843 C2847 1.400 . S
C2844 H2829 0.960 . S
C2844 H2830 0.960 . S
C2844 H2831 0.960 . S
C2844 C2843 1.524 . S
C2845 C2842 1.403 . S
C2845 C2846 1.392 . S
C2845 C2849 1.495 . S
C2846 C2845 1.392 . S
C2846 C2847 1.385 . S
C2846 C2848 1.478 . S
C2847 H2841 0.930 . S
C2847 C2843 1.400 . S
C2847 C2846 1.385 . S
C2848 C2846 1.478 . S
C2848 C2850 1.381 . S
C2848 C2854 1.383 . S
C2849 C2845 1.495 . S
C2849 H2855 0.959 . S
C2849 H2856 0.961 . S
C2849 H2857 0.960 . S
C2850 C2848 1.381 . S
C2850 C2851 1.394 . S
C2850 H2858 0.930 . S
C2851 C2850 1.394 . S
C2851 C2852 1.383 . S
C2851 H2859 0.929 . S
C2852 C2851 1.383 . S
C2852 C2853 1.377 . S
C2853 H2837 0.930 . S
C2853 C2852 1.377 . S
C2853 C2854 1.379 . S
C2854 H2838 0.931 . S
C2854 C2848 1.383 . S
C2854 C2853 1.379 . S
H2855 C2849 0.959 . S
H2856 C2849 0.961 . S
H2857 C2849 0.960 . S
H2858 C2850 0.930 . S
H2859 C2851 0.929 . S
H2860 C2868 0.929 . S
H2861 C2870 0.930 . S
H2862 C2872 0.930 . S
H2863 C2875 0.929 . S
H2864 C2878 0.930 . S
H2865 C2880 0.960 . S
H2866 C2880 0.960 . S
H2867 C2880 0.960 . S
C2868 H2860 0.929 . S
C2868 C2869 1.377 . S
C2868 C2870 1.384 . S
C2869 C2868 1.377 . S
C2869 C2875 1.390 . S
C2870 H2861 0.930 . S
C2870 C2868 1.384 . S
C2870 C2871 1.372 . S
C2871 C2870 1.372 . S
C2871 C2872 1.400 . S
C2871 C2876 1.490 . S
C2872 H2862 0.930 . S
C2872 C2871 1.400 . S
C2872 C2875 1.386 . S
H2873 C2889 0.930 . S
H2874 C2890 0.931 . S
C2875 H2863 0.929 . S
C2875 C2869 1.390 . S
C2875 C2872 1.386 . S
C2876 C2871 1.490 . S
C2876 C2878 1.395 . S
C2876 C2879 1.403 . S
H2877 C2883 0.930 . S
C2878 H2864 0.930 . S
C2878 C2876 1.395 . S
C2878 C2881 1.403 . S
C2879 C2876 1.403 . S
C2879 C2880 1.524 . S
C2879 C2883 1.400 . S
C2880 H2865 0.960 . S
C2880 H2866 0.960 . S
C2880 H2867 0.960 . S
C2880 C2879 1.524 . S
C2881 C2878 1.403 . S
C2881 C2882 1.392 . S
C2881 C2885 1.495 . S
C2882 C2881 1.392 . S
C2882 C2883 1.385 . S
C2882 C2884 1.478 . S
C2883 H2877 0.930 . S
C2883 C2879 1.400 . S
C2883 C2882 1.385 . S
C2884 C2882 1.478 . S
C2884 C2886 1.381 . S
C2884 C2890 1.383 . S
C2885 C2881 1.495 . S
C2885 H2891 0.959 . S
C2885 H2892 0.961 . S
C2885 H2893 0.960 . S
C2886 C2884 1.381 . S
C2886 C2887 1.394 . S
C2886 H2894 0.930 . S
C2887 C2886 1.394 . S
C2887 C2888 1.383 . S
C2887 H2895 0.929 . S
C2888 C2887 1.383 . S
C2888 C2889 1.377 . S
C2889 H2873 0.930 . S
C2889 C2888 1.377 . S
C2889 C2890 1.379 . S
C2890 H2874 0.931 . S
C2890 C2884 1.383 . S
C2890 C2889 1.379 . S
H2891 C2885 0.959 . S
H2892 C2885 0.961 . S
H2893 C2885 0.960 . S
H2894 C2886 0.930 . S
H2895 C2887 0.929 . S
H2896 C2904 0.929 . S
H2897 C2906 0.930 . S
H2898 C2908 0.930 . S
H2899 C2911 0.929 . S
H2900 C2914 0.930 . S
H2901 C2916 0.960 . S
H2902 C2916 0.960 . S
H2903 C2916 0.960 . S
C2904 H2896 0.929 . S
C2904 C2905 1.377 . S
C2904 C2906 1.384 . S
C2905 C2904 1.377 . S
C2905 C2911 1.390 . S
C2906 H2897 0.930 . S
C2906 C2904 1.384 . S
C2906 C2907 1.372 . S
C2907 C2906 1.372 . S
C2907 C2908 1.400 . S
C2907 C2912 1.490 . S
C2908 H2898 0.930 . S
C2908 C2907 1.400 . S
C2908 C2911 1.386 . S
H2909 C2925 0.930 . S
H2910 C2926 0.931 . S
C2911 H2899 0.929 . S
C2911 C2905 1.390 . S
C2911 C2908 1.386 . S
C2912 C2907 1.490 . S
C2912 C2914 1.395 . S
C2912 C2915 1.403 . S
H2913 C2919 0.930 . S
C2914 H2900 0.930 . S
C2914 C2912 1.395 . S
C2914 C2917 1.403 . S
C2915 C2912 1.403 . S
C2915 C2916 1.524 . S
C2915 C2919 1.400 . S
C2916 H2901 0.960 . S
C2916 H2902 0.960 . S
C2916 H2903 0.960 . S
C2916 C2915 1.524 . S
C2917 C2914 1.403 . S
C2917 C2918 1.392 . S
C2917 C2921 1.495 . S
C2918 C2917 1.392 . S
C2918 C2919 1.385 . S
C2918 C2920 1.478 . S
C2919 H2913 0.930 . S
C2919 C2915 1.400 . S
C2919 C2918 1.385 . S
C2920 C2918 1.478 . S
C2920 C2922 1.381 . S
C2920 C2926 1.383 . S
C2921 C2917 1.495 . S
C2921 H2927 0.959 . S
C2921 H2928 0.961 . S
C2921 H2929 0.960 . S
C2922 C2920 1.381 . S
C2922 C2923 1.394 . S
C2922 H2930 0.930 . S
C2923 C2922 1.394 . S
C2923 C2924 1.383 . S
C2923 H2931 0.929 . S
C2924 C2923 1.383 . S
C2924 C2925 1.377 . S
C2925 H2909 0.930 . S
C2925 C2924 1.377 . S
C2925 C2926 1.379 . S
C2926 H2910 0.931 . S
C2926 C2920 1.383 . S
C2926 C2925 1.379 . S
H2927 C2921 0.959 . S
H2928 C2921 0.961 . S
H2929 C2921 0.960 . S
H2930 C2922 0.930 . S
H2931 C2923 0.929 . S
H2932 C2940 0.929 . S
H2933 C2942 0.930 . S
H2934 C2944 0.930 . S
H2935 C2947 0.929 . S
H2936 C2950 0.930 . S
H2937 C2952 0.960 . S
H2938 C2952 0.960 . S
H2939 C2952 0.960 . S
C2940 H2932 0.929 . S
C2940 C2941 1.377 . S
C2940 C2942 1.384 . S
C2941 C2940 1.377 . S
C2941 C2947 1.390 . S
C2942 H2933 0.930 . S
C2942 C2940 1.384 . S
C2942 C2943 1.372 . S
C2943 C2942 1.372 . S
C2943 C2944 1.400 . S
C2943 C2948 1.490 . S
C2944 H2934 0.930 . S
C2944 C2943 1.400 . S
C2944 C2947 1.386 . S
H2945 C2961 0.930 . S
H2946 C2962 0.931 . S
C2947 H2935 0.929 . S
C2947 C2941 1.390 . S
C2947 C2944 1.386 . S
C2948 C2943 1.490 . S
C2948 C2950 1.395 . S
C2948 C2951 1.403 . S
H2949 C2955 0.930 . S
C2950 H2936 0.930 . S
C2950 C2948 1.395 . S
C2950 C2953 1.403 . S
C2951 C2948 1.403 . S
C2951 C2952 1.524 . S
C2951 C2955 1.400 . S
C2952 H2937 0.960 . S
C2952 H2938 0.960 . S
C2952 H2939 0.960 . S
C2952 C2951 1.524 . S
C2953 C2950 1.403 . S
C2953 C2954 1.392 . S
C2953 C2957 1.495 . S
C2954 C2953 1.392 . S
C2954 C2955 1.385 . S
C2954 C2956 1.478 . S
C2955 H2949 0.930 . S
C2955 C2951 1.400 . S
C2955 C2954 1.385 . S
C2956 C2954 1.478 . S
C2956 C2958 1.381 . S
C2956 C2962 1.383 . S
C2957 C2953 1.495 . S
C2957 H2963 0.959 . S
C2957 H2964 0.961 . S
C2957 H2965 0.960 . S
C2958 C2956 1.381 . S
C2958 C2959 1.394 . S
C2958 H2966 0.930 . S
C2959 C2958 1.394 . S
C2959 C2960 1.383 . S
C2959 H2967 0.929 . S
C2960 C2959 1.383 . S
C2960 C2961 1.377 . S
C2961 H2945 0.930 . S
C2961 C2960 1.377 . S
C2961 C2962 1.379 . S
C2962 H2946 0.931 . S
C2962 C2956 1.383 . S
C2962 C2961 1.379 . S
H2963 C2957 0.959 . S
H2964 C2957 0.961 . S
H2965 C2957 0.960 . S
H2966 C2958 0.930 . S
H2967 C2959 0.929 . S
H2968 C2976 0.929 . S
H2969 C2978 0.930 . S
H2970 C2980 0.930 . S
H2971 C2983 0.929 . S
H2972 C2986 0.930 . S
H2973 C2988 0.960 . S
H2974 C2988 0.960 . S
H2975 C2988 0.960 . S
C2976 H2968 0.929 . S
C2976 C2977 1.377 . S
C2976 C2978 1.384 . S
C2977 C2976 1.377 . S
C2977 C2983 1.390 . S
C2978 H2969 0.930 . S
C2978 C2976 1.384 . S
C2978 C2979 1.372 . S
C2979 C2978 1.372 . S
C2979 C2980 1.400 . S
C2979 C2984 1.490 . S
C2980 H2970 0.930 . S
C2980 C2979 1.400 . S
C2980 C2983 1.386 . S
H2981 C2997 0.930 . S
H2982 C2998 0.931 . S
C2983 H2971 0.929 . S
C2983 C2977 1.390 . S
C2983 C2980 1.386 . S
C2984 C2979 1.490 . S
C2984 C2986 1.395 . S
C2984 C2987 1.403 . S
H2985 C2991 0.930 . S
C2986 H2972 0.930 . S
C2986 C2984 1.395 . S
C2986 C2989 1.403 . S
C2987 C2984 1.403 . S
C2987 C2988 1.524 . S
C2987 C2991 1.400 . S
C2988 H2973 0.960 . S
C2988 H2974 0.960 . S
C2988 H2975 0.960 . S
C2988 C2987 1.524 . S
C2989 C2986 1.403 . S
C2989 C2990 1.392 . S
C2989 C2993 1.495 . S
C2990 C2989 1.392 . S
C2990 C2991 1.385 . S
C2990 C2992 1.478 . S
C2991 H2985 0.930 . S
C2991 C2987 1.400 . S
C2991 C2990 1.385 . S
C2992 C2990 1.478 . S
C2992 C2994 1.381 . S
C2992 C2998 1.383 . S
C2993 C2989 1.495 . S
C2993 H2999 0.959 . S
C2993 H3000 0.961 . S
C2993 H3001 0.960 . S
C2994 C2992 1.381 . S
C2994 C2995 1.394 . S
C2994 H3002 0.930 . S
C2995 C2994 1.394 . S
C2995 C2996 1.383 . S
C2995 H3003 0.929 . S
C2996 C2995 1.383 . S
C2996 C2997 1.377 . S
C2997 H2981 0.930 . S
C2997 C2996 1.377 . S
C2997 C2998 1.379 . S
C2998 H2982 0.931 . S
C2998 C2992 1.383 . S
C2998 C2997 1.379 . S
H2999 C2993 0.959 . S
H3000 C2993 0.961 . S
H3001 C2993 0.960 . S
H3002 C2994 0.930 . S
H3003 C2995 0.929 . S
H3004 C3012 0.929 . S
H3005 C3014 0.930 . S
H3006 C3016 0.930 . S
H3007 C3019 0.929 . S
H3008 C3022 0.930 . S
H3009 C3024 0.960 . S
H3010 C3024 0.960 . S
H3011 C3024 0.960 . S
C3012 H3004 0.929 . S
C3012 C3013 1.377 . S
C3012 C3014 1.384 . S
C3013 C3012 1.377 . S
C3013 C3019 1.390 . S
C3014 H3005 0.930 . S
C3014 C3012 1.384 . S
C3014 C3015 1.372 . S
C3015 C3014 1.372 . S
C3015 C3016 1.400 . S
C3015 C3020 1.490 . S
C3016 H3006 0.930 . S
C3016 C3015 1.400 . S
C3016 C3019 1.386 . S
H3017 C3033 0.930 . S
H3018 C3034 0.931 . S
C3019 H3007 0.929 . S
C3019 C3013 1.390 . S
C3019 C3016 1.386 . S
C3020 C3015 1.490 . S
C3020 C3022 1.395 . S
C3020 C3023 1.403 . S
H3021 C3027 0.930 . S
C3022 H3008 0.930 . S
C3022 C3020 1.395 . S
C3022 C3025 1.403 . S
C3023 C3020 1.403 . S
C3023 C3024 1.524 . S
C3023 C3027 1.400 . S
C3024 H3009 0.960 . S
C3024 H3010 0.960 . S
C3024 H3011 0.960 . S
C3024 C3023 1.524 . S
C3025 C3022 1.403 . S
C3025 C3026 1.392 . S
C3025 C3029 1.495 . S
C3026 C3025 1.392 . S
C3026 C3027 1.385 . S
C3026 C3028 1.478 . S
C3027 H3021 0.930 . S
C3027 C3023 1.400 . S
C3027 C3026 1.385 . S
C3028 C3026 1.478 . S
C3028 C3030 1.381 . S
C3028 C3034 1.383 . S
C3029 C3025 1.495 . S
C3029 H3035 0.959 . S
C3029 H3036 0.961 . S
C3029 H3037 0.960 . S
C3030 C3028 1.381 . S
C3030 C3031 1.394 . S
C3030 H3038 0.930 . S
C3031 C3030 1.394 . S
C3031 C3032 1.383 . S
C3031 H3039 0.929 . S
C3032 C3031 1.383 . S
C3032 C3033 1.377 . S
C3033 H3017 0.930 . S
C3033 C3032 1.377 . S
C3033 C3034 1.379 . S
C3034 H3018 0.931 . S
C3034 C3028 1.383 . S
C3034 C3033 1.379 . S
H3035 C3029 0.959 . S
H3036 C3029 0.961 . S
H3037 C3029 0.960 . S
H3038 C3030 0.930 . S
H3039 C3031 0.929 . S
H3040 C3048 0.929 . S
H3041 C3050 0.930 . S
H3042 C3052 0.930 . S
H3043 C3055 0.929 . S
H3044 C3058 0.930 . S
H3045 C3060 0.960 . S
H3046 C3060 0.960 . S
H3047 C3060 0.960 . S
C3048 H3040 0.929 . S
C3048 C3049 1.377 . S
C3048 C3050 1.384 . S
C3049 C3048 1.377 . S
C3049 C3055 1.390 . S
C3050 H3041 0.930 . S
C3050 C3048 1.384 . S
C3050 C3051 1.372 . S
C3051 C3050 1.372 . S
C3051 C3052 1.400 . S
C3051 C3056 1.490 . S
C3052 H3042 0.930 . S
C3052 C3051 1.400 . S
C3052 C3055 1.386 . S
H3053 C3069 0.930 . S
H3054 C3070 0.931 . S
C3055 H3043 0.929 . S
C3055 C3049 1.390 . S
C3055 C3052 1.386 . S
C3056 C3051 1.490 . S
C3056 C3058 1.395 . S
C3056 C3059 1.403 . S
H3057 C3063 0.930 . S
C3058 H3044 0.930 . S
C3058 C3056 1.395 . S
C3058 C3061 1.403 . S
C3059 C3056 1.403 . S
C3059 C3060 1.524 . S
C3059 C3063 1.400 . S
C3060 H3045 0.960 . S
C3060 H3046 0.960 . S
C3060 H3047 0.960 . S
C3060 C3059 1.524 . S
C3061 C3058 1.403 . S
C3061 C3062 1.392 . S
C3061 C3065 1.495 . S
C3062 C3061 1.392 . S
C3062 C3063 1.385 . S
C3062 C3064 1.478 . S
C3063 H3057 0.930 . S
C3063 C3059 1.400 . S
C3063 C3062 1.385 . S
C3064 C3062 1.478 . S
C3064 C3066 1.381 . S
C3064 C3070 1.383 . S
C3065 C3061 1.495 . S
C3065 H3071 0.959 . S
C3065 H3072 0.961 . S
C3065 H3073 0.960 . S
C3066 C3064 1.381 . S
C3066 C3067 1.394 . S
C3066 H3074 0.930 . S
C3067 C3066 1.394 . S
C3067 C3068 1.383 . S
C3067 H3075 0.929 . S
C3068 C3067 1.383 . S
C3068 C3069 1.377 . S
C3069 H3053 0.930 . S
C3069 C3068 1.377 . S
C3069 C3070 1.379 . S
C3070 H3054 0.931 . S
C3070 C3064 1.383 . S
C3070 C3069 1.379 . S
H3071 C3065 0.959 . S
H3072 C3065 0.961 . S
H3073 C3065 0.960 . S
H3074 C3066 0.930 . S
H3075 C3067 0.929 . S
H3076 C3084 0.929 . S
H3077 C3086 0.930 . S
H3078 C3088 0.930 . S
H3079 C3091 0.929 . S
H3080 C3094 0.930 . S
H3081 C3096 0.960 . S
H3082 C3096 0.960 . S
H3083 C3096 0.960 . S
C3084 H3076 0.929 . S
C3084 C3085 1.377 . S
C3084 C3086 1.384 . S
C3085 C3084 1.377 . S
C3085 C3091 1.390 . S
C3086 H3077 0.930 . S
C3086 C3084 1.384 . S
C3086 C3087 1.372 . S
C3087 C3086 1.372 . S
C3087 C3088 1.400 . S
C3087 C3092 1.490 . S
C3088 H3078 0.930 . S
C3088 C3087 1.400 . S
C3088 C3091 1.386 . S
H3089 C3105 0.930 . S
H3090 C3106 0.931 . S
C3091 H3079 0.929 . S
C3091 C3085 1.390 . S
C3091 C3088 1.386 . S
C3092 C3087 1.490 . S
C3092 C3094 1.395 . S
C3092 C3095 1.403 . S
H3093 C3099 0.930 . S
C3094 H3080 0.930 . S
C3094 C3092 1.395 . S
C3094 C3097 1.403 . S
C3095 C3092 1.403 . S
C3095 C3096 1.524 . S
C3095 C3099 1.400 . S
C3096 H3081 0.960 . S
C3096 H3082 0.960 . S
C3096 H3083 0.960 . S
C3096 C3095 1.524 . S
C3097 C3094 1.403 . S
C3097 C3098 1.392 . S
C3097 C3101 1.495 . S
C3098 C3097 1.392 . S
C3098 C3099 1.385 . S
C3098 C3100 1.478 . S
C3099 H3093 0.930 . S
C3099 C3095 1.400 . S
C3099 C3098 1.385 . S
C3100 C3098 1.478 . S
C3100 C3102 1.381 . S
C3100 C3106 1.383 . S
C3101 C3097 1.495 . S
C3101 H3107 0.959 . S
C3101 H3108 0.961 . S
C3101 H3109 0.960 . S
C3102 C3100 1.381 . S
C3102 C3103 1.394 . S
C3102 H3110 0.930 . S
C3103 C3102 1.394 . S
C3103 C3104 1.383 . S
C3103 H3111 0.929 . S
C3104 C3103 1.383 . S
C3104 C3105 1.377 . S
C3105 H3089 0.930 . S
C3105 C3104 1.377 . S
C3105 C3106 1.379 . S
C3106 H3090 0.931 . S
C3106 C3100 1.383 . S
C3106 C3105 1.379 . S
H3107 C3101 0.959 . S
H3108 C3101 0.961 . S
H3109 C3101 0.960 . S
H3110 C3102 0.930 . S
H3111 C3103 0.929 . S
H3112 C3120 0.929 . S
H3113 C3122 0.930 . S
H3114 C3124 0.930 . S
H3115 C3127 0.929 . S
H3116 C3130 0.930 . S
H3117 C3132 0.960 . S
H3118 C3132 0.960 . S
H3119 C3132 0.960 . S
C3120 H3112 0.929 . S
C3120 C3121 1.377 . S
C3120 C3122 1.384 . S
C3121 C3120 1.377 . S
C3121 C3127 1.390 . S
C3122 H3113 0.930 . S
C3122 C3120 1.384 . S
C3122 C3123 1.372 . S
C3123 C3122 1.372 . S
C3123 C3124 1.400 . S
C3123 C3128 1.490 . S
C3124 H3114 0.930 . S
C3124 C3123 1.400 . S
C3124 C3127 1.386 . S
H3125 C3141 0.930 . S
H3126 C3142 0.931 . S
C3127 H3115 0.929 . S
C3127 C3121 1.390 . S
C3127 C3124 1.386 . S
C3128 C3123 1.490 . S
C3128 C3130 1.395 . S
C3128 C3131 1.403 . S
H3129 C3135 0.930 . S
C3130 H3116 0.930 . S
C3130 C3128 1.395 . S
C3130 C3133 1.403 . S
C3131 C3128 1.403 . S
C3131 C3132 1.524 . S
C3131 C3135 1.400 . S
C3132 H3117 0.960 . S
C3132 H3118 0.960 . S
C3132 H3119 0.960 . S
C3132 C3131 1.524 . S
C3133 C3130 1.403 . S
C3133 C3134 1.392 . S
C3133 C3137 1.495 . S
C3134 C3133 1.392 . S
C3134 C3135 1.385 . S
C3134 C3136 1.478 . S
C3135 H3129 0.930 . S
C3135 C3131 1.400 . S
C3135 C3134 1.385 . S
C3136 C3134 1.478 . S
C3136 C3138 1.381 . S
C3136 C3142 1.383 . S
C3137 C3133 1.495 . S
C3137 H3143 0.959 . S
C3137 H3144 0.961 . S
C3137 H3145 0.960 . S
C3138 C3136 1.381 . S
C3138 C3139 1.394 . S
C3138 H3146 0.930 . S
C3139 C3138 1.394 . S
C3139 C3140 1.383 . S
C3139 H3147 0.929 . S
C3140 C3139 1.383 . S
C3140 C3141 1.377 . S
C3141 H3125 0.930 . S
C3141 C3140 1.377 . S
C3141 C3142 1.379 . S
C3142 H3126 0.931 . S
C3142 C3136 1.383 . S
C3142 C3141 1.379 . S
H3143 C3137 0.959 . S
H3144 C3137 0.961 . S
H3145 C3137 0.960 . S
H3146 C3138 0.930 . S
H3147 C3139 0.929 . S
H3148 C3156 0.929 . S
H3149 C3158 0.930 . S
H3150 C3160 0.930 . S
H3151 C3163 0.929 . S
H3152 C3166 0.930 . S
H3153 C3168 0.960 . S
H3154 C3168 0.960 . S
H3155 C3168 0.960 . S
C3156 H3148 0.929 . S
C3156 C3157 1.377 . S
C3156 C3158 1.384 . S
C3157 C3156 1.377 . S
C3157 C3163 1.390 . S
C3158 H3149 0.930 . S
C3158 C3156 1.384 . S
C3158 C3159 1.372 . S
C3159 C3158 1.372 . S
C3159 C3160 1.400 . S
C3159 C3164 1.490 . S
C3160 H3150 0.930 . S
C3160 C3159 1.400 . S
C3160 C3163 1.386 . S
H3161 C3177 0.930 . S
H3162 C3178 0.931 . S
C3163 H3151 0.929 . S
C3163 C3157 1.390 . S
C3163 C3160 1.386 . S
C3164 C3159 1.490 . S
C3164 C3166 1.395 . S
C3164 C3167 1.403 . S
H3165 C3171 0.930 . S
C3166 H3152 0.930 . S
C3166 C3164 1.395 . S
C3166 C3169 1.403 . S
C3167 C3164 1.403 . S
C3167 C3168 1.524 . S
C3167 C3171 1.400 . S
C3168 H3153 0.960 . S
C3168 H3154 0.960 . S
C3168 H3155 0.960 . S
C3168 C3167 1.524 . S
C3169 C3166 1.403 . S
C3169 C3170 1.392 . S
C3169 C3173 1.495 . S
C3170 C3169 1.392 . S
C3170 C3171 1.385 . S
C3170 C3172 1.478 . S
C3171 H3165 0.930 . S
C3171 C3167 1.400 . S
C3171 C3170 1.385 . S
C3172 C3170 1.478 . S
C3172 C3174 1.381 . S
C3172 C3178 1.383 . S
C3173 C3169 1.495 . S
C3173 H3179 0.959 . S
C3173 H3180 0.961 . S
C3173 H3181 0.960 . S
C3174 C3172 1.381 . S
C3174 C3175 1.394 . S
C3174 H3182 0.930 . S
C3175 C3174 1.394 . S
C3175 C3176 1.383 . S
C3175 H3183 0.929 . S
C3176 C3175 1.383 . S
C3176 C3177 1.377 . S
C3177 H3161 0.930 . S
C3177 C3176 1.377 . S
C3177 C3178 1.379 . S
C3178 H3162 0.931 . S
C3178 C3172 1.383 . S
C3178 C3177 1.379 . S
H3179 C3173 0.959 . S
H3180 C3173 0.961 . S
H3181 C3173 0.960 . S
H3182 C3174 0.930 . S
H3183 C3175 0.929 . S
H3184 C3192 0.929 . S
H3185 C3194 0.930 . S
H3186 C3196 0.930 . S
H3187 C3199 0.929 . S
H3188 C3202 0.930 . S
H3189 C3204 0.960 . S
H3190 C3204 0.960 . S
H3191 C3204 0.960 . S
C3192 H3184 0.929 . S
C3192 C3193 1.377 . S
C3192 C3194 1.384 . S
C3193 C3192 1.377 . S
C3193 C3199 1.390 . S
C3194 H3185 0.930 . S
C3194 C3192 1.384 . S
C3194 C3195 1.372 . S
C3195 C3194 1.372 . S
C3195 C3196 1.400 . S
C3195 C3200 1.490 . S
C3196 H3186 0.930 . S
C3196 C3195 1.400 . S
C3196 C3199 1.386 . S
H3197 C3213 0.930 . S
H3198 C3214 0.931 . S
C3199 H3187 0.929 . S
C3199 C3193 1.390 . S
C3199 C3196 1.386 . S
C3200 C3195 1.490 . S
C3200 C3202 1.395 . S
C3200 C3203 1.403 . S
H3201 C3207 0.930 . S
C3202 H3188 0.930 . S
C3202 C3200 1.395 . S
C3202 C3205 1.403 . S
C3203 C3200 1.403 . S
C3203 C3204 1.524 . S
C3203 C3207 1.400 . S
C3204 H3189 0.960 . S
C3204 H3190 0.960 . S
C3204 H3191 0.960 . S
C3204 C3203 1.524 . S
C3205 C3202 1.403 . S
C3205 C3206 1.392 . S
C3205 C3209 1.495 . S
C3206 C3205 1.392 . S
C3206 C3207 1.385 . S
C3206 C3208 1.478 . S
C3207 H3201 0.930 . S
C3207 C3203 1.400 . S
C3207 C3206 1.385 . S
C3208 C3206 1.478 . S
C3208 C3210 1.381 . S
C3208 C3214 1.383 . S
C3209 C3205 1.495 . S
C3209 H3215 0.959 . S
C3209 H3216 0.961 . S
C3209 H3217 0.960 . S
C3210 C3208 1.381 . S
C3210 C3211 1.394 . S
C3210 H3218 0.930 . S
C3211 C3210 1.394 . S
C3211 C3212 1.383 . S
C3211 H3219 0.929 . S
C3212 C3211 1.383 . S
C3212 C3213 1.377 . S
C3213 H3197 0.930 . S
C3213 C3212 1.377 . S
C3213 C3214 1.379 . S
C3214 H3198 0.931 . S
C3214 C3208 1.383 . S
C3214 C3213 1.379 . S
H3215 C3209 0.959 . S
H3216 C3209 0.961 . S
H3217 C3209 0.960 . S
H3218 C3210 0.930 . S
H3219 C3211 0.929 . S
H3220 C3228 0.929 . S
H3221 C3230 0.930 . S
H3222 C3232 0.930 . S
H3223 C3235 0.929 . S
H3224 C3238 0.930 . S
H3225 C3240 0.960 . S
H3226 C3240 0.960 . S
H3227 C3240 0.960 . S
C3228 H3220 0.929 . S
C3228 C3229 1.377 . S
C3228 C3230 1.384 . S
C3229 C3228 1.377 . S
C3229 C3235 1.390 . S
C3230 H3221 0.930 . S
C3230 C3228 1.384 . S
C3230 C3231 1.372 . S
C3231 C3230 1.372 . S
C3231 C3232 1.400 . S
C3231 C3236 1.490 . S
C3232 H3222 0.930 . S
C3232 C3231 1.400 . S
C3232 C3235 1.386 . S
H3233 C3249 0.930 . S
H3234 C3250 0.931 . S
C3235 H3223 0.929 . S
C3235 C3229 1.390 . S
C3235 C3232 1.386 . S
C3236 C3231 1.490 . S
C3236 C3238 1.395 . S
C3236 C3239 1.403 . S
H3237 C3243 0.930 . S
C3238 H3224 0.930 . S
C3238 C3236 1.395 . S
C3238 C3241 1.403 . S
C3239 C3236 1.403 . S
C3239 C3240 1.524 . S
C3239 C3243 1.400 . S
C3240 H3225 0.960 . S
C3240 H3226 0.960 . S
C3240 H3227 0.960 . S
C3240 C3239 1.524 . S
C3241 C3238 1.403 . S
C3241 C3242 1.392 . S
C3241 C3245 1.495 . S
C3242 C3241 1.392 . S
C3242 C3243 1.385 . S
C3242 C3244 1.478 . S
C3243 H3237 0.930 . S
C3243 C3239 1.400 . S
C3243 C3242 1.385 . S
C3244 C3242 1.478 . S
C3244 C3246 1.381 . S
C3244 C3250 1.383 . S
C3245 C3241 1.495 . S
C3245 H3251 0.959 . S
C3245 H3252 0.961 . S
C3245 H3253 0.960 . S
C3246 C3244 1.381 . S
C3246 C3247 1.394 . S
C3246 H3254 0.930 . S
C3247 C3246 1.394 . S
C3247 C3248 1.383 . S
C3247 H3255 0.929 . S
C3248 C3247 1.383 . S
C3248 C3249 1.377 . S
C3249 H3233 0.930 . S
C3249 C3248 1.377 . S
C3249 C3250 1.379 . S
C3250 H3234 0.931 . S
C3250 C3244 1.383 . S
C3250 C3249 1.379 . S
H3251 C3245 0.959 . S
H3252 C3245 0.961 . S
H3253 C3245 0.960 . S
H3254 C3246 0.930 . S
H3255 C3247 0.929 . S
H3256 C3264 0.929 . S
H3257 C3266 0.930 . S
H3258 C3268 0.930 . S
H3259 C3271 0.929 . S
H3260 C3274 0.930 . S
H3261 C3276 0.960 . S
H3262 C3276 0.960 . S
H3263 C3276 0.960 . S
C3264 H3256 0.929 . S
C3264 C3265 1.377 . S
C3264 C3266 1.384 . S
C3265 C3264 1.377 . S
C3265 C3271 1.390 . S
C3266 H3257 0.930 . S
C3266 C3264 1.384 . S
C3266 C3267 1.372 . S
C3267 C3266 1.372 . S
C3267 C3268 1.400 . S
C3267 C3272 1.490 . S
C3268 H3258 0.930 . S
C3268 C3267 1.400 . S
C3268 C3271 1.386 . S
H3269 C3285 0.930 . S
H3270 C3286 0.931 . S
C3271 H3259 0.929 . S
C3271 C3265 1.390 . S
C3271 C3268 1.386 . S
C3272 C3267 1.490 . S
C3272 C3274 1.395 . S
C3272 C3275 1.403 . S
H3273 C3279 0.930 . S
C3274 H3260 0.930 . S
C3274 C3272 1.395 . S
C3274 C3277 1.403 . S
C3275 C3272 1.403 . S
C3275 C3276 1.524 . S
C3275 C3279 1.400 . S
C3276 H3261 0.960 . S
C3276 H3262 0.960 . S
C3276 H3263 0.960 . S
C3276 C3275 1.524 . S
C3277 C3274 1.403 . S
C3277 C3278 1.392 . S
C3277 C3281 1.495 . S
C3278 C3277 1.392 . S
C3278 C3279 1.385 . S
C3278 C3280 1.478 . S
C3279 H3273 0.930 . S
C3279 C3275 1.400 . S
C3279 C3278 1.385 . S
C3280 C3278 1.478 . S
C3280 C3282 1.381 . S
C3280 C3286 1.383 . S
C3281 C3277 1.495 . S
C3281 H3287 0.959 . S
C3281 H3288 0.961 . S
C3281 H3289 0.960 . S
C3282 C3280 1.381 . S
C3282 C3283 1.394 . S
C3282 H3290 0.930 . S
C3283 C3282 1.394 . S
C3283 C3284 1.383 . S
C3283 H3291 0.929 . S
C3284 C3283 1.383 . S
C3284 C3285 1.377 . S
C3285 H3269 0.930 . S
C3285 C3284 1.377 . S
C3285 C3286 1.379 . S
C3286 H3270 0.931 . S
C3286 C3280 1.383 . S
C3286 C3285 1.379 . S
H3287 C3281 0.959 . S
H3288 C3281 0.961 . S
H3289 C3281 0.960 . S
H3290 C3282 0.930 . S
H3291 C3283 0.929 . S
H3292 C3300 0.929 . S
H3293 C3302 0.930 . S
H3294 C3304 0.930 . S
H3295 C3307 0.929 . S
H3296 C3310 0.930 . S
H3297 C3312 0.960 . S
H3298 C3312 0.960 . S
H3299 C3312 0.960 . S
C3300 H3292 0.929 . S
C3300 C3301 1.377 . S
C3300 C3302 1.384 . S
C3301 C3300 1.377 . S
C3301 C3307 1.390 . S
C3302 H3293 0.930 . S
C3302 C3300 1.384 . S
C3302 C3303 1.372 . S
C3303 C3302 1.372 . S
C3303 C3304 1.400 . S
C3303 C3308 1.490 . S
C3304 H3294 0.930 . S
C3304 C3303 1.400 . S
C3304 C3307 1.386 . S
H3305 C3321 0.930 . S
H3306 C3322 0.931 . S
C3307 H3295 0.929 . S
C3307 C3301 1.390 . S
C3307 C3304 1.386 . S
C3308 C3303 1.490 . S
C3308 C3310 1.395 . S
C3308 C3311 1.403 . S
H3309 C3315 0.930 . S
C3310 H3296 0.930 . S
C3310 C3308 1.395 . S
C3310 C3313 1.403 . S
C3311 C3308 1.403 . S
C3311 C3312 1.524 . S
C3311 C3315 1.400 . S
C3312 H3297 0.960 . S
C3312 H3298 0.960 . S
C3312 H3299 0.960 . S
C3312 C3311 1.524 . S
C3313 C3310 1.403 . S
C3313 C3314 1.392 . S
C3313 C3317 1.495 . S
C3314 C3313 1.392 . S
C3314 C3315 1.385 . S
C3314 C3316 1.478 . S
C3315 H3309 0.930 . S
C3315 C3311 1.400 . S
C3315 C3314 1.385 . S
C3316 C3314 1.478 . S
C3316 C3318 1.381 . S
C3316 C3322 1.383 . S
C3317 C3313 1.495 . S
C3317 H3323 0.959 . S
C3317 H3324 0.961 . S
C3317 H3325 0.960 . S
C3318 C3316 1.381 . S
C3318 C3319 1.394 . S
C3318 H3326 0.930 . S
C3319 C3318 1.394 . S
C3319 C3320 1.383 . S
C3319 H3327 0.929 . S
C3320 C3319 1.383 . S
C3320 C3321 1.377 . S
C3321 H3305 0.930 . S
C3321 C3320 1.377 . S
C3321 C3322 1.379 . S
C3322 H3306 0.931 . S
C3322 C3316 1.383 . S
C3322 C3321 1.379 . S
H3323 C3317 0.959 . S
H3324 C3317 0.961 . S
H3325 C3317 0.960 . S
H3326 C3318 0.930 . S
H3327 C3319 0.929 . S
H3328 C3336 0.929 . S
H3329 C3338 0.930 . S
H3330 C3340 0.930 1_565 S
H3331 C3343 0.929 . S
H3332 C3346 0.930 . S
H3333 C3348 0.960 . S
H3334 C3348 0.960 . S
H3335 C3348 0.960 . S
C3336 H3328 0.929 . S
C3336 C3337 1.377 . S
C3336 C3338 1.384 . S
C3337 C3336 1.377 . S
C3337 C3343 1.390 . S
C3338 H3329 0.930 . S
C3338 C3336 1.384 . S
C3338 C3339 1.372 . S
C3339 C3338 1.372 . S
C3339 C3340 1.400 . S
C3339 C3344 1.490 1_545 S
C3340 H3330 0.930 1_545 S
C3340 C3339 1.400 . S
C3340 C3343 1.386 . S
H3341 C3357 0.930 . S
H3342 C3358 0.931 . S
C3343 H3331 0.929 . S
C3343 C3337 1.390 . S
C3343 C3340 1.386 . S
C3344 C3339 1.490 1_565 S
C3344 C3346 1.395 1_565 S
C3344 C3347 1.403 . S
H3345 C3351 0.930 . S
C3346 H3332 0.930 . S
C3346 C3344 1.395 1_545 S
C3346 C3349 1.403 1_545 S
C3347 C3344 1.403 . S
C3347 C3348 1.524 . S
C3347 C3351 1.400 . S
C3348 H3333 0.960 . S
C3348 H3334 0.960 . S
C3348 H3335 0.960 . S
C3348 C3347 1.524 . S
C3349 C3346 1.403 1_565 S
C3349 C3350 1.392 . S
C3349 C3353 1.486 1_565 S
C3350 C3349 1.392 . S
C3350 C3351 1.385 . S
C3350 C3352 1.478 . S
C3351 H3345 0.930 . S
C3351 C3347 1.400 . S
C3351 C3350 1.385 . S
C3352 C3350 1.478 . S
C3352 C3354 1.381 . S
C3352 C3358 1.383 . S
C3353 C3349 1.486 1_545 S
C3353 H3359 0.991 . S
C3353 H3360 0.941 1_545 S
C3353 H3361 0.959 1_545 S
C3354 C3352 1.381 . S
C3354 C3355 1.394 . S
C3354 H3362 0.930 . S
C3355 C3354 1.394 . S
C3355 C3356 1.383 . S
C3355 H3363 0.929 . S
C3356 C3355 1.383 . S
C3356 C3357 1.377 . S
C3357 H3341 0.930 . S
C3357 C3356 1.377 . S
C3357 C3358 1.379 . S
C3358 H3342 0.931 . S
C3358 C3352 1.383 . S
C3358 C3357 1.379 . S
H3359 C3353 0.991 . S
H3360 C3353 0.941 1_565 S
H3361 C3353 0.959 1_565 S
H3362 C3354 0.930 . S
H3363 C3355 0.929 . S
H3364 C3372 0.929 . S
H3365 C3374 0.930 . S
H3366 C3376 0.930 . S
H3367 C3379 0.929 . S
H3368 C3382 0.930 . S
H3369 C3384 0.960 . S
H3370 C3384 0.960 . S
H3371 C3384 0.960 1_565 S
C3372 H3364 0.929 . S
C3372 C3373 1.377 . S
C3372 C3374 1.384 . S
C3373 C3372 1.377 . S
C3373 C3379 1.390 . S
C3374 H3365 0.930 . S
C3374 C3372 1.384 . S
C3374 C3375 1.372 . S
C3375 C3374 1.372 . S
C3375 C3376 1.400 . S
C3375 C3380 1.490 . S
C3376 H3366 0.930 . S
C3376 C3375 1.400 . S
C3376 C3379 1.386 . S
H3377 C3393 0.930 1_556 S
H3378 C3394 0.931 . S
C3379 H3367 0.929 . S
C3379 C3373 1.390 . S
C3379 C3376 1.386 . S
C3380 C3375 1.490 . S
C3380 C3382 1.395 . S
C3380 C3383 1.403 1_565 S
H3381 C3387 0.930 . S
C3382 H3368 0.930 . S
C3382 C3380 1.395 . S
C3382 C3385 1.403 1_565 S
C3383 C3380 1.403 1_545 S
C3383 C3384 1.524 . S
C3383 C3387 1.400 . S
C3384 H3369 0.960 . S
C3384 H3370 0.960 . S
C3384 H3371 0.960 1_545 S
C3384 C3383 1.524 . S
C3385 C3382 1.403 1_545 S
C3385 C3386 1.392 . S
C3385 C3389 1.495 . S
C3386 C3385 1.392 . S
C3386 C3387 1.385 . S
C3386 C3388 1.478 . S
C3387 H3381 0.930 . S
C3387 C3383 1.400 . S
C3387 C3386 1.385 . S
C3388 C3386 1.478 . S
C3388 C3390 1.381 . S
C3388 C3394 1.383 . S
C3389 C3385 1.495 . S
C3389 H3395 0.959 1_545 S
C3389 H3396 0.945 1_545 S
C3389 H3397 0.960 . S
C3390 C3388 1.381 . S
C3390 C3391 1.394 . S
C3390 H3398 0.930 . S
C3391 C3390 1.394 . S
C3391 C3392 1.383 . S
C3391 H3399 0.929 . S
C3392 C3391 1.383 . S
C3392 C3393 1.377 . S
C3393 H3377 0.930 1_554 S
C3393 C3392 1.377 . S
C3393 C3394 1.379 . S
C3394 H3378 0.931 . S
C3394 C3388 1.383 . S
C3394 C3393 1.379 . S
H3395 C3389 0.959 1_565 S
H3396 C3389 0.945 1_565 S
H3397 C3389 0.960 . S
H3398 C3390 0.930 . S
H3399 C3391 0.929 . S
H3400 C3408 0.929 . S
H3401 C3410 0.930 . S
H3402 C3412 0.930 . S
H3403 C3415 0.929 . S
H3404 C3418 0.930 . S
H3405 C3420 0.960 . S
H3406 C3420 0.960 . S
H3407 C3420 0.960 . S
C3408 H3400 0.929 . S
C3408 C3409 1.377 . S
C3408 C3410 1.384 . S
C3409 C3408 1.377 . S
C3409 C3415 1.390 . S
C3410 H3401 0.930 . S
C3410 C3408 1.384 . S
C3410 C3411 1.372 . S
C3411 C3410 1.372 . S
C3411 C3412 1.400 . S
C3411 C3416 1.490 . S
C3412 H3402 0.930 . S
C3412 C3411 1.400 . S
C3412 C3415 1.386 . S
H3413 C3429 0.930 . S
H3414 C3430 0.931 . S
C3415 H3403 0.929 . S
C3415 C3409 1.390 . S
C3415 C3412 1.386 . S
C3416 C3411 1.490 . S
C3416 C3418 1.395 . S
C3416 C3419 1.403 . S
H3417 C3423 0.930 . S
C3418 H3404 0.930 . S
C3418 C3416 1.395 . S
C3418 C3421 1.403 . S
C3419 C3416 1.403 . S
C3419 C3420 1.524 . S
C3419 C3423 1.400 . S
C3420 H3405 0.960 . S
C3420 H3406 0.960 . S
C3420 H3407 0.960 . S
C3420 C3419 1.524 . S
C3421 C3418 1.403 . S
C3421 C3422 1.392 . S
C3421 C3425 1.495 . S
C3422 C3421 1.392 . S
C3422 C3423 1.385 . S
C3422 C3424 1.478 . S
C3423 H3417 0.930 . S
C3423 C3419 1.400 . S
C3423 C3422 1.385 . S
C3424 C3422 1.478 . S
C3424 C3426 1.381 . S
C3424 C3430 1.383 . S
C3425 C3421 1.495 . S
C3425 H3431 0.959 . S
C3425 H3432 0.961 . S
C3425 H3433 0.960 . S
C3426 C3424 1.381 . S
C3426 C3427 1.394 . S
C3426 H3434 0.930 . S
C3427 C3426 1.394 . S
C3427 C3428 1.383 . S
C3427 H3435 0.929 . S
C3428 C3427 1.383 . S
C3428 C3429 1.377 . S
C3429 H3413 0.930 . S
C3429 C3428 1.377 . S
C3429 C3430 1.379 . S
C3430 H3414 0.931 . S
C3430 C3424 1.383 . S
C3430 C3429 1.379 . S
H3431 C3425 0.959 . S
H3432 C3425 0.961 . S
H3433 C3425 0.960 . S
H3434 C3426 0.930 . S
H3435 C3427 0.929 . S
H3436 C3444 0.929 . S
H3437 C3446 0.930 . S
H3438 C3448 0.930 . S
H3439 C3451 0.929 . S
H3440 C3454 0.930 . S
H3441 C3456 0.960 . S
H3442 C3456 0.960 . S
H3443 C3456 0.960 . S
C3444 H3436 0.929 . S
C3444 C3445 1.377 . S
C3444 C3446 1.384 . S
C3445 C3444 1.377 . S
C3445 C3451 1.390 . S
C3446 H3437 0.930 . S
C3446 C3444 1.384 . S
C3446 C3447 1.372 . S
C3447 C3446 1.372 . S
C3447 C3448 1.400 . S
C3447 C3452 1.490 . S
C3448 H3438 0.930 . S
C3448 C3447 1.400 . S
C3448 C3451 1.386 . S
H3449 C3465 0.930 . S
H3450 C3466 0.931 . S
C3451 H3439 0.929 . S
C3451 C3445 1.390 . S
C3451 C3448 1.386 . S
C3452 C3447 1.490 . S
C3452 C3454 1.395 . S
C3452 C3455 1.403 . S
H3453 C3459 0.930 . S
C3454 H3440 0.930 . S
C3454 C3452 1.395 . S
C3454 C3457 1.403 . S
C3455 C3452 1.403 . S
C3455 C3456 1.524 . S
C3455 C3459 1.400 . S
C3456 H3441 0.960 . S
C3456 H3442 0.960 . S
C3456 H3443 0.960 . S
C3456 C3455 1.524 . S
C3457 C3454 1.403 . S
C3457 C3458 1.392 . S
C3457 C3461 1.495 . S
C3458 C3457 1.392 . S
C3458 C3459 1.385 . S
C3458 C3460 1.478 . S
C3459 H3453 0.930 . S
C3459 C3455 1.400 . S
C3459 C3458 1.385 . S
C3460 C3458 1.478 . S
C3460 C3462 1.381 . S
C3460 C3466 1.383 . S
C3461 C3457 1.495 . S
C3461 H3467 0.959 . S
C3461 H3468 0.961 . S
C3461 H3469 0.960 . S
C3462 C3460 1.381 . S
C3462 C3463 1.394 . S
C3462 H3470 0.930 . S
C3463 C3462 1.394 . S
C3463 C3464 1.383 . S
C3463 H3471 0.929 . S
C3464 C3463 1.383 . S
C3464 C3465 1.377 . S
C3465 H3449 0.930 . S
C3465 C3464 1.377 . S
C3465 C3466 1.379 . S
C3466 H3450 0.931 . S
C3466 C3460 1.383 . S
C3466 C3465 1.379 . S
H3467 C3461 0.959 . S
H3468 C3461 0.961 . S
H3469 C3461 0.960 . S
H3470 C3462 0.930 . S
H3471 C3463 0.929 . S
H3472 C3480 0.929 . S
H3473 C3482 0.930 . S
H3474 C3484 0.930 . S
H3475 C3487 0.929 . S
H3476 C3490 0.930 . S
H3477 C3492 0.960 . S
H3478 C3492 0.960 . S
H3479 C3492 0.960 . S
C3480 H3472 0.929 . S
C3480 C3481 1.377 . S
C3480 C3482 1.384 . S
C3481 C3480 1.377 . S
C3481 C3487 1.390 . S
C3482 H3473 0.930 . S
C3482 C3480 1.384 . S
C3482 C3483 1.372 . S
C3483 C3482 1.372 . S
C3483 C3484 1.400 . S
C3483 C3488 1.490 . S
C3484 H3474 0.930 . S
C3484 C3483 1.400 . S
C3484 C3487 1.386 . S
H3485 C3501 0.930 . S
H3486 C3502 0.931 . S
C3487 H3475 0.929 . S
C3487 C3481 1.390 . S
C3487 C3484 1.386 . S
C3488 C3483 1.490 . S
C3488 C3490 1.395 . S
C3488 C3491 1.403 . S
H3489 C3495 0.930 . S
C3490 H3476 0.930 . S
C3490 C3488 1.395 . S
C3490 C3493 1.403 . S
C3491 C3488 1.403 . S
C3491 C3492 1.524 . S
C3491 C3495 1.400 . S
C3492 H3477 0.960 . S
C3492 H3478 0.960 . S
C3492 H3479 0.960 . S
C3492 C3491 1.524 . S
C3493 C3490 1.403 . S
C3493 C3494 1.392 . S
C3493 C3497 1.495 . S
C3494 C3493 1.392 . S
C3494 C3495 1.385 . S
C3494 C3496 1.478 . S
C3495 H3489 0.930 . S
C3495 C3491 1.400 . S
C3495 C3494 1.385 . S
C3496 C3494 1.478 . S
C3496 C3498 1.381 . S
C3496 C3502 1.383 . S
C3497 C3493 1.495 . S
C3497 H3503 0.959 . S
C3497 H3504 0.961 . S
C3497 H3505 0.960 . S
C3498 C3496 1.381 . S
C3498 C3499 1.394 . S
C3498 H3506 0.930 . S
C3499 C3498 1.394 . S
C3499 C3500 1.383 . S
C3499 H3507 0.929 . S
C3500 C3499 1.383 . S
C3500 C3501 1.377 . S
C3501 H3485 0.930 . S
C3501 C3500 1.377 . S
C3501 C3502 1.379 . S
C3502 H3486 0.931 . S
C3502 C3496 1.383 . S
C3502 C3501 1.379 . S
H3503 C3497 0.959 . S
H3504 C3497 0.961 . S
H3505 C3497 0.960 . S
H3506 C3498 0.930 . S
H3507 C3499 0.929 . S
H3508 C3516 0.929 . S
H3509 C3518 0.930 . S
H3510 C3520 0.930 . S
H3511 C3523 0.929 . S
H3512 C3526 0.930 . S
H3513 C3528 0.960 1_565 S
H3514 C3528 0.960 . S
H3515 C3528 0.960 . S
C3516 H3508 0.929 . S
C3516 C3517 1.377 . S
C3516 C3518 1.384 . S
C3517 C3516 1.377 . S
C3517 C3523 1.390 . S
C3518 H3509 0.930 . S
C3518 C3516 1.384 . S
C3518 C3519 1.372 . S
C3519 C3518 1.372 . S
C3519 C3520 1.400 . S
C3519 C3524 1.490 . S
C3520 H3510 0.930 . S
C3520 C3519 1.400 . S
C3520 C3523 1.386 . S
H3521 C3537 0.930 . S
H3522 C3538 0.931 . S
C3523 H3511 0.929 . S
C3523 C3517 1.390 . S
C3523 C3520 1.386 . S
C3524 C3519 1.490 . S
C3524 C3526 1.395 . S
C3524 C3527 1.403 . S
H3525 C3531 0.930 . S
C3526 H3512 0.930 . S
C3526 C3524 1.395 . S
C3526 C3529 1.403 . S
C3527 C3524 1.403 . S
C3527 C3528 1.524 . S
C3527 C3531 1.400 1_545 S
C3528 H3513 0.960 1_545 S
C3528 H3514 0.960 . S
C3528 H3515 0.960 . S
C3528 C3527 1.524 . S
C3529 C3526 1.403 . S
C3529 C3530 1.392 1_545 S
C3529 C3533 1.495 . S
C3530 C3529 1.392 1_565 S
C3530 C3531 1.385 . S
C3530 C3532 1.478 . S
C3531 H3525 0.930 . S
C3531 C3527 1.400 1_565 S
C3531 C3530 1.385 . S
C3532 C3530 1.478 . S
C3532 C3534 1.381 . S
C3532 C3538 1.383 . S
C3533 C3529 1.495 . S
C3533 H3539 0.959 . S
C3533 H3540 0.961 . S
C3533 H3541 0.960 . S
C3534 C3532 1.381 . S
C3534 C3535 1.394 . S
C3534 H3542 0.930 . S
C3535 C3534 1.394 . S
C3535 C3536 1.383 . S
C3535 H3543 0.929 . S
C3536 C3535 1.383 . S
C3536 C3537 1.377 . S
C3537 H3521 0.930 . S
C3537 C3536 1.377 . S
C3537 C3538 1.379 . S
C3538 H3522 0.931 . S
C3538 C3532 1.383 . S
C3538 C3537 1.379 . S
H3539 C3533 0.959 . S
H3540 C3533 0.961 . S
H3541 C3533 0.960 . S
H3542 C3534 0.930 . S
H3543 C3535 0.929 . S
H3544 C3552 0.929 . S
H3545 C3554 0.930 . S
H3546 C3556 0.930 . S
H3547 C3559 0.929 . S
H3548 C3562 0.930 . S
H3549 C3564 0.960 . S
H3550 C3564 0.960 . S
H3551 C3564 0.960 . S
C3552 H3544 0.929 . S
C3552 C3553 1.377 . S
C3552 C3554 1.384 . S
C3553 C3552 1.377 . S
C3553 C3559 1.390 . S
C3554 H3545 0.930 . S
C3554 C3552 1.384 . S
C3554 C3555 1.372 . S
C3555 C3554 1.372 . S
C3555 C3556 1.400 . S
C3555 C3560 1.490 . S
C3556 H3546 0.930 . S
C3556 C3555 1.400 . S
C3556 C3559 1.386 . S
H3557 C3573 0.930 . S
H3558 C3574 0.931 . S
C3559 H3547 0.929 . S
C3559 C3553 1.390 . S
C3559 C3556 1.386 . S
C3560 C3555 1.490 . S
C3560 C3562 1.395 . S
C3560 C3563 1.403 . S
H3561 C3567 0.930 . S
C3562 H3548 0.930 . S
C3562 C3560 1.395 . S
C3562 C3565 1.403 . S
C3563 C3560 1.403 . S
C3563 C3564 1.524 . S
C3563 C3567 1.400 . S
C3564 H3549 0.960 . S
C3564 H3550 0.960 . S
C3564 H3551 0.960 . S
C3564 C3563 1.524 . S
C3565 C3562 1.403 . S
C3565 C3566 1.392 . S
C3565 C3569 1.495 . S
C3566 C3565 1.392 . S
C3566 C3567 1.385 . S
C3566 C3568 1.478 . S
C3567 H3561 0.930 . S
C3567 C3563 1.400 . S
C3567 C3566 1.385 . S
C3568 C3566 1.478 . S
C3568 C3570 1.381 . S
C3568 C3574 1.383 . S
C3569 C3565 1.495 . S
C3569 H3575 0.959 . S
C3569 H3576 0.961 . S
C3569 H3577 0.960 . S
C3570 C3568 1.381 . S
C3570 C3571 1.394 . S
C3570 H3578 0.930 . S
C3571 C3570 1.394 . S
C3571 C3572 1.383 . S
C3571 H3579 0.929 . S
C3572 C3571 1.383 . S
C3572 C3573 1.377 . S
C3573 H3557 0.930 . S
C3573 C3572 1.377 . S
C3573 C3574 1.379 . S
C3574 H3558 0.931 . S
C3574 C3568 1.383 . S
C3574 C3573 1.379 . S
H3575 C3569 0.959 . S
H3576 C3569 0.961 . S
H3577 C3569 0.960 . S
H3578 C3570 0.930 . S
H3579 C3571 0.929 . S
H3580 C3588 0.929 . S
H3581 C3590 0.930 . S
H3582 C3592 0.930 . S
H3583 C3595 0.929 . S
H3584 C3598 0.930 . S
H3585 C3600 0.960 . S
H3586 C3600 0.960 . S
H3587 C3600 0.960 . S
C3588 H3580 0.929 . S
C3588 C3589 1.377 . S
C3588 C3590 1.384 . S
C3589 C3588 1.377 . S
C3589 C3595 1.390 . S
C3590 H3581 0.930 . S
C3590 C3588 1.384 . S
C3590 C3591 1.372 . S
C3591 C3590 1.372 . S
C3591 C3592 1.400 . S
C3591 C3596 1.490 . S
C3592 H3582 0.930 . S
C3592 C3591 1.400 . S
C3592 C3595 1.386 . S
H3593 C3609 0.930 . S
H3594 C3610 0.931 . S
C3595 H3583 0.929 . S
C3595 C3589 1.390 . S
C3595 C3592 1.386 . S
C3596 C3591 1.490 . S
C3596 C3598 1.395 . S
C3596 C3599 1.403 . S
H3597 C3603 0.930 . S
C3598 H3584 0.930 . S
C3598 C3596 1.395 . S
C3598 C3601 1.403 . S
C3599 C3596 1.403 . S
C3599 C3600 1.524 . S
C3599 C3603 1.400 . S
C3600 H3585 0.960 . S
C3600 H3586 0.960 . S
C3600 H3587 0.960 . S
C3600 C3599 1.524 . S
C3601 C3598 1.403 . S
C3601 C3602 1.392 . S
C3601 C3605 1.495 . S
C3602 C3601 1.392 . S
C3602 C3603 1.385 . S
C3602 C3604 1.478 . S
C3603 H3597 0.930 . S
C3603 C3599 1.400 . S
C3603 C3602 1.385 . S
C3604 C3602 1.478 . S
C3604 C3606 1.381 . S
C3604 C3610 1.383 . S
C3605 C3601 1.495 . S
C3605 H3611 0.959 . S
C3605 H3612 0.961 . S
C3605 H3613 0.960 . S
C3606 C3604 1.381 . S
C3606 C3607 1.394 . S
C3606 H3614 0.930 . S
C3607 C3606 1.394 . S
C3607 C3608 1.383 . S
C3607 H3615 0.929 . S
C3608 C3607 1.383 . S
C3608 C3609 1.377 . S
C3609 H3593 0.930 . S
C3609 C3608 1.377 . S
C3609 C3610 1.379 . S
C3610 H3594 0.931 . S
C3610 C3604 1.383 . S
C3610 C3609 1.379 . S
H3611 C3605 0.959 . S
H3612 C3605 0.961 . S
H3613 C3605 0.960 . S
H3614 C3606 0.930 . S
H3615 C3607 0.929 . S
H3616 C3624 0.929 . S
H3617 C3626 0.930 . S
H3618 C3628 0.930 . S
H3619 C3631 0.929 . S
H3620 C3634 0.930 . S
H3621 C3636 0.960 . S
H3622 C3636 0.960 . S
H3623 C3636 0.960 . S
C3624 H3616 0.929 . S
C3624 C3625 1.377 . S
C3624 C3626 1.384 . S
C3625 C3624 1.377 . S
C3625 C3631 1.390 . S
C3626 H3617 0.930 . S
C3626 C3624 1.384 . S
C3626 C3627 1.372 . S
C3627 C3626 1.372 . S
C3627 C3628 1.400 . S
C3627 C3632 1.490 . S
C3628 H3618 0.930 . S
C3628 C3627 1.400 . S
C3628 C3631 1.386 . S
H3629 C3645 0.930 . S
H3630 C3646 0.931 . S
C3631 H3619 0.929 . S
C3631 C3625 1.390 . S
C3631 C3628 1.386 . S
C3632 C3627 1.490 . S
C3632 C3634 1.395 . S
C3632 C3635 1.403 . S
H3633 C3639 0.930 . S
C3634 H3620 0.930 . S
C3634 C3632 1.395 . S
C3634 C3637 1.403 . S
C3635 C3632 1.403 . S
C3635 C3636 1.524 . S
C3635 C3639 1.400 . S
C3636 H3621 0.960 . S
C3636 H3622 0.960 . S
C3636 H3623 0.960 . S
C3636 C3635 1.524 . S
C3637 C3634 1.403 . S
C3637 C3638 1.392 . S
C3637 C3641 1.495 . S
C3638 C3637 1.392 . S
C3638 C3639 1.385 . S
C3638 C3640 1.478 . S
C3639 H3633 0.930 . S
C3639 C3635 1.400 . S
C3639 C3638 1.385 . S
C3640 C3638 1.478 . S
C3640 C3642 1.381 . S
C3640 C3646 1.383 . S
C3641 C3637 1.495 . S
C3641 H3647 0.959 . S
C3641 H3648 0.961 . S
C3641 H3649 0.960 . S
C3642 C3640 1.381 . S
C3642 C3643 1.394 . S
C3642 H3650 0.930 . S
C3643 C3642 1.394 . S
C3643 C3644 1.383 . S
C3643 H3651 0.929 . S
C3644 C3643 1.383 . S
C3644 C3645 1.377 . S
C3645 H3629 0.930 . S
C3645 C3644 1.377 . S
C3645 C3646 1.379 . S
C3646 H3630 0.931 . S
C3646 C3640 1.383 . S
C3646 C3645 1.379 . S
H3647 C3641 0.959 . S
H3648 C3641 0.961 . S
H3649 C3641 0.960 . S
H3650 C3642 0.930 . S
H3651 C3643 0.929 . S
H3652 C3660 0.929 . S
H3653 C3662 0.930 . S
H3654 C3664 0.930 . S
H3655 C3667 0.929 . S
H3656 C3670 0.930 . S
H3657 C3672 0.960 . S
H3658 C3672 0.960 . S
H3659 C3672 0.960 . S
C3660 H3652 0.929 . S
C3660 C3661 1.377 . S
C3660 C3662 1.384 . S
C3661 C3660 1.377 . S
C3661 C3667 1.390 . S
C3662 H3653 0.930 . S
C3662 C3660 1.384 . S
C3662 C3663 1.372 . S
C3663 C3662 1.372 . S
C3663 C3664 1.400 . S
C3663 C3668 1.490 . S
C3664 H3654 0.930 . S
C3664 C3663 1.400 . S
C3664 C3667 1.386 . S
H3665 C3681 0.930 . S
H3666 C3682 0.931 . S
C3667 H3655 0.929 . S
C3667 C3661 1.390 . S
C3667 C3664 1.386 . S
C3668 C3663 1.490 . S
C3668 C3670 1.395 . S
C3668 C3671 1.403 . S
H3669 C3675 0.930 . S
C3670 H3656 0.930 . S
C3670 C3668 1.395 . S
C3670 C3673 1.403 . S
C3671 C3668 1.403 . S
C3671 C3672 1.524 . S
C3671 C3675 1.400 . S
C3672 H3657 0.960 . S
C3672 H3658 0.960 . S
C3672 H3659 0.960 . S
C3672 C3671 1.524 . S
C3673 C3670 1.403 . S
C3673 C3674 1.392 . S
C3673 C3677 1.495 . S
C3674 C3673 1.392 . S
C3674 C3675 1.385 . S
C3674 C3676 1.478 . S
C3675 H3669 0.930 . S
C3675 C3671 1.400 . S
C3675 C3674 1.385 . S
C3676 C3674 1.478 . S
C3676 C3678 1.381 . S
C3676 C3682 1.383 . S
C3677 C3673 1.495 . S
C3677 H3683 0.959 . S
C3677 H3684 0.961 . S
C3677 H3685 0.960 . S
C3678 C3676 1.381 . S
C3678 C3679 1.394 . S
C3678 H3686 0.930 . S
C3679 C3678 1.394 . S
C3679 C3680 1.383 . S
C3679 H3687 0.929 . S
C3680 C3679 1.383 . S
C3680 C3681 1.377 . S
C3681 H3665 0.930 . S
C3681 C3680 1.377 . S
C3681 C3682 1.379 . S
C3682 H3666 0.931 . S
C3682 C3676 1.383 . S
C3682 C3681 1.379 . S
H3683 C3677 0.959 . S
H3684 C3677 0.961 . S
H3685 C3677 0.960 . S
H3686 C3678 0.930 . S
H3687 C3679 0.929 . S
H3688 C3696 0.929 . S
H3689 C3698 0.930 . S
H3690 C3700 0.930 . S
H3691 C3703 0.929 . S
H3692 C3706 0.930 . S
H3693 C3708 0.960 . S
H3694 C3708 0.960 . S
H3695 C3708 0.960 . S
C3696 H3688 0.929 . S
C3696 C3697 1.377 . S
C3696 C3698 1.384 . S
C3697 C3696 1.377 . S
C3697 C3703 1.390 . S
C3698 H3689 0.930 . S
C3698 C3696 1.384 . S
C3698 C3699 1.372 . S
C3699 C3698 1.372 . S
C3699 C3700 1.400 . S
C3699 C3704 1.490 . S
C3700 H3690 0.930 . S
C3700 C3699 1.400 . S
C3700 C3703 1.386 . S
H3701 C3717 0.930 . S
H3702 C3718 0.931 . S
C3703 H3691 0.929 . S
C3703 C3697 1.390 . S
C3703 C3700 1.386 . S
C3704 C3699 1.490 . S
C3704 C3706 1.395 . S
C3704 C3707 1.403 . S
H3705 C3711 0.930 . S
C3706 H3692 0.930 . S
C3706 C3704 1.395 . S
C3706 C3709 1.403 . S
C3707 C3704 1.403 . S
C3707 C3708 1.524 . S
C3707 C3711 1.400 . S
C3708 H3693 0.960 . S
C3708 H3694 0.960 . S
C3708 H3695 0.960 . S
C3708 C3707 1.524 . S
C3709 C3706 1.403 . S
C3709 C3710 1.392 . S
C3709 C3713 1.495 . S
C3710 C3709 1.392 . S
C3710 C3711 1.385 . S
C3710 C3712 1.478 . S
C3711 H3705 0.930 . S
C3711 C3707 1.400 . S
C3711 C3710 1.385 . S
C3712 C3710 1.478 . S
C3712 C3714 1.381 . S
C3712 C3718 1.383 . S
C3713 C3709 1.495 . S
C3713 H3719 0.959 . S
C3713 H3720 0.961 . S
C3713 H3721 0.960 . S
C3714 C3712 1.381 . S
C3714 C3715 1.394 . S
C3714 H3722 0.930 . S
C3715 C3714 1.394 . S
C3715 C3716 1.383 . S
C3715 H3723 0.979 . S
C3716 C3715 1.383 . S
C3716 C3717 1.377 . S
C3717 H3701 0.930 . S
C3717 C3716 1.377 . S
C3717 C3718 1.379 . S
C3718 H3702 0.931 . S
C3718 C3712 1.383 . S
C3718 C3717 1.379 . S
H3719 C3713 0.959 . S
H3720 C3713 0.961 . S
H3721 C3713 0.960 . S
H3722 C3714 0.930 . S
H3723 C3715 0.979 . S
H3724 C3732 0.929 . S
H3725 C3734 0.930 . S
H3726 C3736 0.930 . S
H3727 C3739 0.929 . S
H3728 C3742 0.930 . S
H3729 C3744 0.960 . S
H3730 C3744 0.960 . S
H3731 C3744 0.960 . S
C3732 H3724 0.929 . S
C3732 C3733 1.377 . S
C3732 C3734 1.384 . S
C3733 C3732 1.377 . S
C3733 C3739 1.390 . S
C3734 H3725 0.930 . S
C3734 C3732 1.384 . S
C3734 C3735 1.372 . S
C3735 C3734 1.372 . S
C3735 C3736 1.400 . S
C3735 C3740 1.490 . S
C3736 H3726 0.930 . S
C3736 C3735 1.400 . S
C3736 C3739 1.386 . S
H3737 C3753 0.930 . S
H3738 C3754 0.931 . S
C3739 H3727 0.929 . S
C3739 C3733 1.390 . S
C3739 C3736 1.386 . S
C3740 C3735 1.490 . S
C3740 C3742 1.395 . S
C3740 C3743 1.403 . S
H3741 C3747 0.930 . S
C3742 H3728 0.930 . S
C3742 C3740 1.395 . S
C3742 C3745 1.403 . S
C3743 C3740 1.403 . S
C3743 C3744 1.524 . S
C3743 C3747 1.400 . S
C3744 H3729 0.960 . S
C3744 H3730 0.960 . S
C3744 H3731 0.960 . S
C3744 C3743 1.524 . S
C3745 C3742 1.403 . S
C3745 C3746 1.392 . S
C3745 C3749 1.495 . S
C3746 C3745 1.392 . S
C3746 C3747 1.385 . S
C3746 C3748 1.478 . S
C3747 H3741 0.930 . S
C3747 C3743 1.400 . S
C3747 C3746 1.385 . S
C3748 C3746 1.478 . S
C3748 C3750 1.381 . S
C3748 C3754 1.383 . S
C3749 C3745 1.495 . S
C3749 H3755 0.959 . S
C3749 H3756 0.961 . S
C3749 H3757 0.960 . S
C3750 C3748 1.381 . S
C3750 C3751 1.394 . S
C3750 H3758 0.930 . S
C3751 C3750 1.394 . S
C3751 C3752 1.383 . S
C3751 H3759 0.929 . S
C3752 C3751 1.383 . S
C3752 C3753 1.377 . S
C3753 H3737 0.930 . S
C3753 C3752 1.377 . S
C3753 C3754 1.379 . S
C3754 H3738 0.931 . S
C3754 C3748 1.383 . S
C3754 C3753 1.379 . S
H3755 C3749 0.959 . S
H3756 C3749 0.961 . S
H3757 C3749 0.960 . S
H3758 C3750 0.930 . S
H3759 C3751 0.929 . S
H3760 C3768 0.929 . S
H3761 C3770 0.930 . S
H3762 C3772 0.930 1_655 S
H3763 C3775 0.929 1_655 S
H3764 C3778 0.930 . S
H3765 C3780 0.960 . S
H3766 C3780 0.960 . S
H3767 C3780 0.960 . S
C3768 H3760 0.929 . S
C3768 C3769 1.377 . S
C3768 C3770 1.384 . S
C3769 C3768 1.377 . S
C3769 C3775 1.390 . S
C3770 H3761 0.930 . S
C3770 C3768 1.384 . S
C3770 C3771 1.372 . S
C3771 C3770 1.372 . S
C3771 C3772 1.400 . S
C3771 C3776 1.490 . S
C3772 H3762 0.930 1_455 S
C3772 C3771 1.400 . S
C3772 C3775 1.386 . S
H3773 C3789 0.930 . S
H3774 C3790 0.931 . S
C3775 H3763 0.929 1_455 S
C3775 C3769 1.390 . S
C3775 C3772 1.386 . S
C3776 C3771 1.490 . S
C3776 C3778 1.395 . S
C3776 C3779 1.403 . S
H3777 C3783 0.930 . S
C3778 H3764 0.930 . S
C3778 C3776 1.395 . S
C3778 C3781 1.403 . S
C3779 C3776 1.403 . S
C3779 C3780 1.524 . S
C3779 C3783 1.400 . S
C3780 H3765 0.960 . S
C3780 H3766 0.960 . S
C3780 H3767 0.960 . S
C3780 C3779 1.524 . S
C3781 C3778 1.403 . S
C3781 C3782 1.392 . S
C3781 C3785 1.495 . S
C3782 C3781 1.392 . S
C3782 C3783 1.385 . S
C3782 C3784 1.478 . S
C3783 H3777 0.930 . S
C3783 C3779 1.400 . S
C3783 C3782 1.385 . S
C3784 C3782 1.478 . S
C3784 C3786 1.381 . S
C3784 C3790 1.383 . S
C3785 C3781 1.495 . S
C3785 H3791 0.959 . S
C3785 H3792 0.961 . S
C3785 H3793 0.960 . S
C3786 C3784 1.381 . S
C3786 C3787 1.394 . S
C3786 H3794 0.930 . S
C3787 C3786 1.394 . S
C3787 C3788 1.383 . S
C3787 H3795 0.929 . S
C3788 C3787 1.383 . S
C3788 C3789 1.377 . S
C3789 H3773 0.930 . S
C3789 C3788 1.377 . S
C3789 C3790 1.379 . S
C3790 H3774 0.931 . S
C3790 C3784 1.383 . S
C3790 C3789 1.379 . S
H3791 C3785 0.959 . S
H3792 C3785 0.961 . S
H3793 C3785 0.960 . S
H3794 C3786 0.930 . S
H3795 C3787 0.929 . S
H3796 C3804 0.929 . S
H3797 C3806 0.930 . S
H3798 C3808 0.930 . S
H3799 C3811 0.929 . S
H3800 C3814 0.930 . S
H3801 C3816 0.960 . S
H3802 C3816 0.960 . S
H3803 C3816 0.960 . S
C3804 H3796 0.929 . S
C3804 C3805 1.377 . S
C3804 C3806 1.384 . S
C3805 C3804 1.377 . S
C3805 C3811 1.390 . S
C3806 H3797 0.930 . S
C3806 C3804 1.384 . S
C3806 C3807 1.372 . S
C3807 C3806 1.372 . S
C3807 C3808 1.400 . S
C3807 C3812 1.490 . S
C3808 H3798 0.930 . S
C3808 C3807 1.400 . S
C3808 C3811 1.386 . S
H3809 C3825 0.930 . S
H3810 C3826 0.931 . S
C3811 H3799 0.929 . S
C3811 C3805 1.390 . S
C3811 C3808 1.386 . S
C3812 C3807 1.490 . S
C3812 C3814 1.395 . S
C3812 C3815 1.403 . S
H3813 C3819 0.930 . S
C3814 H3800 0.930 . S
C3814 C3812 1.395 . S
C3814 C3817 1.403 . S
C3815 C3812 1.403 . S
C3815 C3816 1.524 . S
C3815 C3819 1.400 . S
C3816 H3801 0.960 . S
C3816 H3802 0.960 . S
C3816 H3803 0.960 . S
C3816 C3815 1.524 . S
C3817 C3814 1.403 . S
C3817 C3818 1.392 . S
C3817 C3821 1.495 . S
C3818 C3817 1.392 . S
C3818 C3819 1.385 . S
C3818 C3820 1.478 . S
C3819 H3813 0.930 . S
C3819 C3815 1.400 . S
C3819 C3818 1.385 . S
C3820 C3818 1.478 . S
C3820 C3822 1.381 . S
C3820 C3826 1.383 . S
C3821 C3817 1.495 . S
C3821 H3827 0.959 . S
C3821 H3828 0.961 . S
C3821 H3829 0.960 . S
C3822 C3820 1.381 . S
C3822 C3823 1.394 . S
C3822 H3830 0.930 . S
C3823 C3822 1.394 . S
C3823 C3824 1.383 . S
C3823 H3831 0.929 . S
C3824 C3823 1.383 . S
C3824 C3825 1.377 . S
C3825 H3809 0.930 . S
C3825 C3824 1.377 . S
C3825 C3826 1.379 . S
C3826 H3810 0.931 . S
C3826 C3820 1.383 . S
C3826 C3825 1.379 . S
H3827 C3821 0.959 . S
H3828 C3821 0.961 . S
H3829 C3821 0.960 . S
H3830 C3822 0.930 . S
H3831 C3823 0.929 . S
H3832 C3840 0.929 . S
H3833 C3842 0.930 . S
H3834 C3844 0.930 . S
H3835 C3847 0.929 . S
H3836 C3850 0.930 . S
H3837 C3852 0.960 . S
H3838 C3852 0.960 . S
H3839 C3852 0.960 . S
C3840 H3832 0.929 . S
C3840 C3841 1.377 . S
C3840 C3842 1.384 . S
C3841 C3840 1.377 . S
C3841 C3847 1.390 . S
C3842 H3833 0.930 . S
C3842 C3840 1.384 . S
C3842 C3843 1.372 . S
C3843 C3842 1.372 . S
C3843 C3844 1.400 . S
C3843 C3848 1.490 . S
C3844 H3834 0.930 . S
C3844 C3843 1.400 . S
C3844 C3847 1.386 . S
H3845 C3861 0.930 . S
H3846 C3862 0.931 . S
C3847 H3835 0.929 . S
C3847 C3841 1.390 . S
C3847 C3844 1.386 . S
C3848 C3843 1.490 . S
C3848 C3850 1.395 . S
C3848 C3851 1.403 . S
H3849 C3855 0.930 . S
C3850 H3836 0.930 . S
C3850 C3848 1.395 . S
C3850 C3853 1.403 . S
C3851 C3848 1.403 . S
C3851 C3852 1.524 . S
C3851 C3855 1.400 . S
C3852 H3837 0.960 . S
C3852 H3838 0.960 . S
C3852 H3839 0.960 . S
C3852 C3851 1.524 . S
C3853 C3850 1.403 . S
C3853 C3854 1.392 . S
C3853 C3857 1.495 . S
C3854 C3853 1.392 . S
C3854 C3855 1.385 . S
C3854 C3856 1.478 . S
C3855 H3849 0.930 . S
C3855 C3851 1.400 . S
C3855 C3854 1.385 . S
C3856 C3854 1.478 . S
C3856 C3858 1.381 . S
C3856 C3862 1.383 . S
C3857 C3853 1.495 . S
C3857 H3863 0.959 . S
C3857 H3864 0.961 . S
C3857 H3865 0.960 . S
C3858 C3856 1.381 . S
C3858 C3859 1.394 . S
C3858 H3866 0.930 . S
C3859 C3858 1.394 . S
C3859 C3860 1.383 . S
C3859 H3867 0.929 . S
C3860 C3859 1.383 . S
C3860 C3861 1.377 . S
C3861 H3845 0.930 . S
C3861 C3860 1.377 . S
C3861 C3862 1.379 . S
C3862 H3846 0.931 . S
C3862 C3856 1.383 . S
C3862 C3861 1.379 . S
H3863 C3857 0.959 . S
H3864 C3857 0.961 . S
H3865 C3857 0.960 . S
H3866 C3858 0.930 . S
H3867 C3859 0.929 . S
H3868 C3876 0.929 . S
H3869 C3878 0.930 . S
H3870 C3880 0.930 . S
H3871 C3883 0.929 . S
H3872 C3886 0.930 . S
H3873 C3888 0.960 . S
H3874 C3888 0.960 . S
H3875 C3888 0.960 . S
C3876 H3868 0.929 . S
C3876 C3877 1.377 . S
C3876 C3878 1.384 . S
C3877 C3876 1.377 . S
C3877 C3883 1.390 . S
C3878 H3869 0.930 . S
C3878 C3876 1.384 . S
C3878 C3879 1.372 . S
C3879 C3878 1.372 . S
C3879 C3880 1.400 . S
C3879 C3884 1.490 . S
C3880 H3870 0.930 . S
C3880 C3879 1.400 . S
C3880 C3883 1.386 . S
H3881 C3897 0.930 . S
H3882 C3898 0.931 . S
C3883 H3871 0.929 . S
C3883 C3877 1.390 . S
C3883 C3880 1.386 . S
C3884 C3879 1.490 . S
C3884 C3886 1.395 . S
C3884 C3887 1.403 . S
H3885 C3891 0.930 . S
C3886 H3872 0.930 . S
C3886 C3884 1.395 . S
C3886 C3889 1.403 . S
C3887 C3884 1.403 . S
C3887 C3888 1.524 . S
C3887 C3891 1.400 . S
C3888 H3873 0.960 . S
C3888 H3874 0.960 . S
C3888 H3875 0.960 . S
C3888 C3887 1.524 . S
C3889 C3886 1.403 . S
C3889 C3890 1.392 . S
C3889 C3893 1.495 . S
C3890 C3889 1.392 . S
C3890 C3891 1.385 . S
C3890 C3892 1.478 . S
C3891 H3885 0.930 . S
C3891 C3887 1.400 . S
C3891 C3890 1.385 . S
C3892 C3890 1.478 . S
C3892 C3894 1.381 . S
C3892 C3898 1.383 . S
C3893 C3889 1.495 . S
C3893 H3899 0.959 . S
C3893 H3900 0.961 . S
C3893 H3901 0.960 . S
C3894 C3892 1.381 . S
C3894 C3895 1.394 . S
C3894 H3902 0.930 . S
C3895 C3894 1.394 . S
C3895 C3896 1.383 . S
C3895 H3903 0.929 . S
C3896 C3895 1.383 . S
C3896 C3897 1.377 . S
C3897 H3881 0.930 . S
C3897 C3896 1.377 . S
C3897 C3898 1.379 . S
C3898 H3882 0.931 . S
C3898 C3892 1.383 . S
C3898 C3897 1.379 . S
H3899 C3893 0.959 . S
H3900 C3893 0.961 . S
H3901 C3893 0.960 . S
H3902 C3894 0.930 . S
H3903 C3895 0.929 . S
H3904 C3912 0.929 . S
H3905 C3914 0.930 . S
H3906 C3916 0.930 . S
H3907 C3919 0.929 . S
H3908 C3922 0.930 . S
H3909 C3924 0.960 . S
H3910 C3924 0.960 . S
H3911 C3924 0.960 . S
C3912 H3904 0.929 . S
C3912 C3913 1.377 . S
C3912 C3914 1.384 . S
C3913 C3912 1.377 . S
C3913 C3919 1.390 . S
C3914 H3905 0.930 . S
C3914 C3912 1.384 . S
C3914 C3915 1.372 . S
C3915 C3914 1.372 . S
C3915 C3916 1.400 . S
C3915 C3920 1.490 . S
C3916 H3906 0.930 . S
C3916 C3915 1.400 . S
C3916 C3919 1.386 . S
H3917 C3933 0.902 1_655 S
H3918 C3934 0.931 . S
C3919 H3907 0.929 . S
C3919 C3913 1.390 . S
C3919 C3916 1.386 . S
C3920 C3915 1.490 . S
C3920 C3922 1.395 . S
C3920 C3923 1.403 . S
H3921 C3927 0.930 . S
C3922 H3908 0.930 . S
C3922 C3920 1.395 . S
C3922 C3925 1.403 1_655 S
C3923 C3920 1.403 . S
C3923 C3924 1.524 . S
C3923 C3927 1.400 . S
C3924 H3909 0.960 . S
C3924 H3910 0.960 . S
C3924 H3911 0.960 . S
C3924 C3923 1.524 . S
C3925 C3922 1.403 1_455 S
C3925 C3926 1.392 1_455 S
C3925 C3929 1.495 . S
C3926 C3925 1.392 1_655 S
C3926 C3927 1.385 . S
C3926 C3928 1.478 1_655 S
C3927 H3921 0.930 . S
C3927 C3923 1.400 . S
C3927 C3926 1.385 . S
C3928 C3926 1.478 1_455 S
C3928 C3930 1.381 . S
C3928 C3934 1.383 1_455 S
C3929 C3925 1.495 . S
C3929 H3935 0.959 . S
C3929 H3936 0.961 . S
C3929 H3937 0.960 . S
C3930 C3928 1.381 . S
C3930 C3931 1.394 . S
C3930 H3938 0.930 . S
C3931 C3930 1.394 . S
C3931 C3932 1.383 . S
C3931 H3939 0.929 . S
C3932 C3931 1.383 . S
C3932 C3933 1.418 . S
C3933 H3917 0.902 1_455 S
C3933 C3932 1.418 . S
C3933 C3934 1.366 1_455 S
C3934 H3918 0.931 . S
C3934 C3928 1.383 1_655 S
C3934 C3933 1.366 1_655 S
H3935 C3929 0.959 . S
H3936 C3929 0.961 . S
H3937 C3929 0.960 . S
H3938 C3930 0.930 . S
H3939 C3931 0.929 . S
H3940 C3948 0.929 . S
H3941 C3950 0.930 . S
H3942 C3952 0.930 . S
H3943 C3955 0.929 . S
H3944 C3958 0.930 . S
H3945 C3960 0.960 . S
H3946 C3960 0.960 . S
H3947 C3960 0.960 . S
C3948 H3940 0.929 . S
C3948 C3949 1.377 . S
C3948 C3950 1.384 . S
C3949 C3948 1.377 . S
C3949 C3955 1.390 . S
C3950 H3941 0.930 . S
C3950 C3948 1.384 . S
C3950 C3951 1.372 . S
C3951 C3950 1.372 . S
C3951 C3952 1.400 . S
C3951 C3956 1.490 . S
C3952 H3942 0.930 . S
C3952 C3951 1.400 . S
C3952 C3955 1.386 . S
H3953 C3969 0.930 . S
H3954 C3970 0.931 . S
C3955 H3943 0.929 . S
C3955 C3949 1.390 . S
C3955 C3952 1.386 . S
C3956 C3951 1.490 . S
C3956 C3958 1.395 . S
C3956 C3959 1.403 . S
H3957 C3963 0.930 . S
C3958 H3944 0.930 . S
C3958 C3956 1.395 . S
C3958 C3961 1.403 . S
C3959 C3956 1.403 . S
C3959 C3960 1.524 . S
C3959 C3963 1.400 . S
C3960 H3945 0.960 . S
C3960 H3946 0.960 . S
C3960 H3947 0.960 . S
C3960 C3959 1.524 . S
C3961 C3958 1.403 . S
C3961 C3962 1.392 . S
C3961 C3965 1.495 . S
C3962 C3961 1.392 . S
C3962 C3963 1.385 . S
C3962 C3964 1.478 . S
C3963 H3957 0.930 . S
C3963 C3959 1.400 . S
C3963 C3962 1.385 . S
C3964 C3962 1.478 . S
C3964 C3966 1.381 . S
C3964 C3970 1.383 . S
C3965 C3961 1.495 . S
C3965 H3971 0.959 . S
C3965 H3972 0.961 . S
C3965 H3973 0.960 . S
C3966 C3964 1.381 . S
C3966 C3967 1.394 . S
C3966 H3974 0.930 . S
C3967 C3966 1.394 . S
C3967 C3968 1.383 . S
C3967 H3975 0.929 . S
C3968 C3967 1.383 . S
C3968 C3969 1.377 . S
C3969 H3953 0.930 . S
C3969 C3968 1.377 . S
C3969 C3970 1.379 . S
C3970 H3954 0.931 . S
C3970 C3964 1.383 . S
C3970 C3969 1.379 . S
H3971 C3965 0.959 . S
H3972 C3965 0.961 . S
H3973 C3965 0.960 . S
H3974 C3966 0.930 . S
H3975 C3967 0.929 . S
H3976 C3984 0.929 . S
H3977 C3986 0.930 . S
H3978 C3988 0.930 . S
H3979 C3991 0.929 . S
H3980 C3994 0.930 . S
H3981 C3996 0.960 . S
H3982 C3996 0.960 . S
H3983 C3996 0.960 . S
C3984 H3976 0.929 . S
C3984 C3985 1.377 . S
C3984 C3986 1.384 . S
C3985 C3984 1.377 . S
C3985 C3991 1.390 . S
C3986 H3977 0.930 . S
C3986 C3984 1.384 . S
C3986 C3987 1.372 . S
C3987 C3986 1.372 . S
C3987 C3988 1.400 . S
C3987 C3992 1.490 . S
C3988 H3978 0.930 . S
C3988 C3987 1.400 . S
C3988 C3991 1.386 . S
H3989 C4005 0.930 . S
H3990 C4006 0.931 . S
C3991 H3979 0.929 . S
C3991 C3985 1.390 . S
C3991 C3988 1.386 . S
C3992 C3987 1.490 . S
C3992 C3994 1.395 . S
C3992 C3995 1.403 . S
H3993 C3999 0.930 . S
C3994 H3980 0.930 . S
C3994 C3992 1.395 . S
C3994 C3997 1.403 . S
C3995 C3992 1.403 . S
C3995 C3996 1.524 . S
C3995 C3999 1.400 . S
C3996 H3981 0.960 . S
C3996 H3982 0.960 . S
C3996 H3983 0.960 . S
C3996 C3995 1.524 . S
C3997 C3994 1.403 . S
C3997 C3998 1.392 . S
C3997 C4001 1.495 . S
C3998 C3997 1.392 . S
C3998 C3999 1.385 . S
C3998 C4000 1.478 . S
C3999 H3993 0.930 . S
C3999 C3995 1.400 . S
C3999 C3998 1.385 . S
C4000 C3998 1.478 . S
C4000 C4002 1.381 . S
C4000 C4006 1.383 . S
C4001 C3997 1.495 . S
C4001 H4007 0.959 . S
C4001 H4008 0.961 . S
C4001 H4009 0.960 . S
C4002 C4000 1.381 . S
C4002 C4003 1.394 . S
C4002 H4010 0.930 . S
C4003 C4002 1.394 . S
C4003 C4004 1.383 . S
C4003 H4011 0.929 . S
C4004 C4003 1.383 . S
C4004 C4005 1.377 . S
C4005 H3989 0.930 . S
C4005 C4004 1.377 . S
C4005 C4006 1.379 . S
C4006 H3990 0.931 . S
C4006 C4000 1.383 . S
C4006 C4005 1.379 . S
H4007 C4001 0.959 . S
H4008 C4001 0.961 . S
H4009 C4001 0.960 . S
H4010 C4002 0.930 . S
H4011 C4003 0.929 . S
H4012 C4020 0.929 . S
H4013 C4022 0.930 . S
H4014 C4024 0.930 . S
H4015 C4027 0.929 . S
H4016 C4030 0.930 . S
H4017 C4032 0.960 . S
H4018 C4032 0.960 . S
H4019 C4032 0.960 . S
C4020 H4012 0.929 . S
C4020 C4021 1.377 . S
C4020 C4022 1.384 . S
C4021 C4020 1.377 . S
C4021 C4027 1.390 . S
C4022 H4013 0.930 . S
C4022 C4020 1.384 . S
C4022 C4023 1.372 . S
C4023 C4022 1.372 . S
C4023 C4024 1.400 . S
C4023 C4028 1.490 . S
C4024 H4014 0.930 . S
C4024 C4023 1.400 . S
C4024 C4027 1.386 . S
H4025 C4041 0.930 . S
H4026 C4042 0.931 . S
C4027 H4015 0.929 . S
C4027 C4021 1.390 . S
C4027 C4024 1.386 . S
C4028 C4023 1.490 . S
C4028 C4030 1.395 . S
C4028 C4031 1.403 . S
H4029 C4035 0.930 . S
C4030 H4016 0.930 . S
C4030 C4028 1.395 . S
C4030 C4033 1.403 . S
C4031 C4028 1.403 . S
C4031 C4032 1.524 . S
C4031 C4035 1.400 . S
C4032 H4017 0.960 . S
C4032 H4018 0.960 . S
C4032 H4019 0.960 . S
C4032 C4031 1.524 . S
C4033 C4030 1.403 . S
C4033 C4034 1.392 . S
C4033 C4037 1.495 . S
C4034 C4033 1.392 . S
C4034 C4035 1.385 . S
C4034 C4036 1.478 . S
C4035 H4029 0.930 . S
C4035 C4031 1.400 . S
C4035 C4034 1.385 . S
C4036 C4034 1.478 . S
C4036 C4038 1.381 . S
C4036 C4042 1.383 . S
C4037 C4033 1.495 . S
C4037 H4043 0.959 . S
C4037 H4044 0.961 . S
C4037 H4045 0.960 . S
C4038 C4036 1.381 . S
C4038 C4039 1.394 . S
C4038 H4046 0.930 . S
C4039 C4038 1.394 . S
C4039 C4040 1.383 . S
C4039 H4047 0.929 . S
C4040 C4039 1.383 . S
C4040 C4041 1.377 . S
C4041 H4025 0.930 . S
C4041 C4040 1.377 . S
C4041 C4042 1.379 . S
C4042 H4026 0.931 . S
C4042 C4036 1.383 . S
C4042 C4041 1.379 . S
H4043 C4037 0.959 . S
H4044 C4037 0.961 . S
H4045 C4037 0.960 . S
H4046 C4038 0.930 . S
H4047 C4039 0.929 . S
H4048 C4056 0.929 . S
H4049 C4058 0.930 . S
H4050 C4060 0.930 . S
H4051 C4063 0.929 . S
H4052 C4066 0.930 . S
H4053 C4068 0.960 . S
H4054 C4068 0.960 . S
H4055 C4068 0.960 . S
C4056 H4048 0.929 . S
C4056 C4057 1.377 . S
C4056 C4058 1.384 . S
C4057 C4056 1.377 . S
C4057 C4063 1.390 . S
C4058 H4049 0.930 . S
C4058 C4056 1.384 . S
C4058 C4059 1.372 . S
C4059 C4058 1.372 . S
C4059 C4060 1.400 . S
C4059 C4064 1.490 . S
C4060 H4050 0.930 . S
C4060 C4059 1.400 . S
C4060 C4063 1.386 . S
H4061 C4077 0.930 . S
H4062 C4078 0.931 . S
C4063 H4051 0.929 . S
C4063 C4057 1.390 . S
C4063 C4060 1.386 . S
C4064 C4059 1.490 . S
C4064 C4066 1.395 . S
C4064 C4067 1.403 . S
H4065 C4071 0.930 . S
C4066 H4052 0.930 . S
C4066 C4064 1.395 . S
C4066 C4069 1.403 . S
C4067 C4064 1.403 . S
C4067 C4068 1.524 . S
C4067 C4071 1.400 . S
C4068 H4053 0.960 . S
C4068 H4054 0.960 . S
C4068 H4055 0.960 . S
C4068 C4067 1.524 . S
C4069 C4066 1.403 . S
C4069 C4070 1.392 . S
C4069 C4073 1.495 1_655 S
C4070 C4069 1.392 . S
C4070 C4071 1.385 . S
C4070 C4072 1.478 . S
C4071 H4065 0.930 . S
C4071 C4067 1.400 . S
C4071 C4070 1.385 . S
C4072 C4070 1.478 . S
C4072 C4074 1.381 . S
C4072 C4078 1.383 . S
C4073 C4069 1.495 1_455 S
C4073 H4079 0.959 . S
C4073 H4080 0.961 . S
C4073 H4081 0.960 . S
C4074 C4072 1.381 . S
C4074 C4075 1.394 . S
C4074 H4082 0.931 . S
C4075 C4074 1.394 . S
C4075 C4076 1.383 . S
C4075 H4083 0.929 1_655 S
C4076 C4075 1.383 . S
C4076 C4077 1.377 . S
C4077 H4061 0.930 . S
C4077 C4076 1.377 . S
C4077 C4078 1.379 . S
C4078 H4062 0.931 . S
C4078 C4072 1.383 . S
C4078 C4077 1.379 . S
H4079 C4073 0.959 . S
H4080 C4073 0.961 . S
H4081 C4073 0.960 . S
H4082 C4074 0.931 . S
H4083 C4075 0.929 1_455 S
H4084 C4092 0.929 . S
H4085 C4094 0.930 . S
H4086 C4096 0.930 . S
H4087 C4099 0.929 . S
H4088 C4102 0.930 . S
H4089 C4104 0.960 . S
H4090 C4104 0.960 . S
H4091 C4104 0.960 . S
C4092 H4084 0.929 . S
C4092 C4093 1.377 . S
C4092 C4094 1.384 . S
C4093 C4092 1.377 . S
C4093 C4099 1.390 . S
C4094 H4085 0.930 . S
C4094 C4092 1.384 . S
C4094 C4095 1.372 . S
C4095 C4094 1.372 . S
C4095 C4096 1.400 . S
C4095 C4100 1.490 . S
C4096 H4086 0.930 . S
C4096 C4095 1.400 . S
C4096 C4099 1.386 . S
H4097 C4113 0.930 . S
H4098 C4114 0.931 . S
C4099 H4087 0.929 . S
C4099 C4093 1.390 . S
C4099 C4096 1.386 . S
C4100 C4095 1.490 . S
C4100 C4102 1.395 . S
C4100 C4103 1.403 . S
H4101 C4107 0.930 . S
C4102 H4088 0.930 . S
C4102 C4100 1.395 . S
C4102 C4105 1.403 . S
C4103 C4100 1.403 . S
C4103 C4104 1.524 . S
C4103 C4107 1.400 . S
C4104 H4089 0.960 . S
C4104 H4090 0.960 . S
C4104 H4091 0.960 . S
C4104 C4103 1.524 . S
C4105 C4102 1.403 . S
C4105 C4106 1.392 . S
C4105 C4109 1.495 . S
C4106 C4105 1.392 . S
C4106 C4107 1.385 . S
C4106 C4108 1.478 . S
C4107 H4101 0.930 . S
C4107 C4103 1.400 . S
C4107 C4106 1.385 . S
C4108 C4106 1.478 . S
C4108 C4110 1.381 . S
C4108 C4114 1.383 . S
C4109 C4105 1.495 . S
C4109 H4115 0.959 . S
C4109 H4116 0.961 . S
C4109 H4117 0.960 . S
C4110 C4108 1.381 . S
C4110 C4111 1.394 . S
C4110 H4118 0.930 . S
C4111 C4110 1.394 . S
C4111 C4112 1.383 . S
C4111 H4119 0.929 . S
C4112 C4111 1.383 . S
C4112 C4113 1.377 . S
C4113 H4097 0.930 . S
C4113 C4112 1.377 . S
C4113 C4114 1.379 . S
C4114 H4098 0.931 . S
C4114 C4108 1.383 . S
C4114 C4113 1.379 . S
H4115 C4109 0.959 . S
H4116 C4109 0.961 . S
H4117 C4109 0.960 . S
H4118 C4110 0.930 . S
H4119 C4111 0.929 . S
H4120 C4128 0.929 . S
H4121 C4130 0.930 . S
H4122 C4132 0.930 . S
H4123 C4135 0.929 . S
H4124 C4138 0.930 . S
H4125 C4140 0.960 . S
H4126 C4140 0.960 . S
H4127 C4140 0.960 . S
C4128 H4120 0.929 . S
C4128 C4129 1.377 . S
C4128 C4130 1.384 . S
C4129 C4128 1.377 . S
C4129 C4135 1.390 . S
C4130 H4121 0.930 . S
C4130 C4128 1.384 . S
C4130 C4131 1.372 . S
C4131 C4130 1.372 . S
C4131 C4132 1.400 . S
C4131 C4136 1.490 . S
C4132 H4122 0.930 . S
C4132 C4131 1.400 . S
C4132 C4135 1.386 . S
H4133 C4149 0.930 . S
H4134 C4150 0.931 . S
C4135 H4123 0.929 . S
C4135 C4129 1.390 . S
C4135 C4132 1.386 . S
C4136 C4131 1.490 . S
C4136 C4138 1.395 . S
C4136 C4139 1.403 . S
H4137 C4143 0.930 . S
C4138 H4124 0.930 . S
C4138 C4136 1.395 . S
C4138 C4141 1.403 . S
C4139 C4136 1.403 . S
C4139 C4140 1.524 . S
C4139 C4143 1.400 . S
C4140 H4125 0.960 . S
C4140 H4126 0.960 . S
C4140 H4127 0.960 . S
C4140 C4139 1.524 . S
C4141 C4138 1.403 . S
C4141 C4142 1.392 . S
C4141 C4145 1.495 . S
C4142 C4141 1.392 . S
C4142 C4143 1.385 . S
C4142 C4144 1.478 . S
C4143 H4137 0.930 . S
C4143 C4139 1.400 . S
C4143 C4142 1.385 . S
C4144 C4142 1.478 . S
C4144 C4146 1.381 . S
C4144 C4150 1.383 . S
C4145 C4141 1.495 . S
C4145 H4151 0.959 . S
C4145 H4152 0.961 . S
C4145 H4153 0.960 . S
C4146 C4144 1.381 . S
C4146 C4147 1.394 . S
C4146 H4154 0.930 . S
C4147 C4146 1.394 . S
C4147 C4148 1.383 . S
C4147 H4155 0.929 . S
C4148 C4147 1.383 . S
C4148 C4149 1.377 . S
C4149 H4133 0.930 . S
C4149 C4148 1.377 . S
C4149 C4150 1.379 . S
C4150 H4134 0.931 . S
C4150 C4144 1.383 . S
C4150 C4149 1.379 . S
H4151 C4145 0.959 . S
H4152 C4145 0.961 . S
H4153 C4145 0.960 . S
H4154 C4146 0.930 . S
H4155 C4147 0.929 . S
H4156 C4164 0.929 . S
H4157 C4166 0.930 . S
H4158 C4168 0.930 . S
H4159 C4171 0.929 . S
H4160 C4174 0.930 . S
H4161 C4176 0.960 . S
H4162 C4176 0.960 . S
H4163 C4176 0.960 . S
C4164 H4156 0.929 . S
C4164 C4165 1.377 . S
C4164 C4166 1.384 . S
C4165 C4164 1.377 . S
C4165 C4171 1.390 . S
C4166 H4157 0.930 . S
C4166 C4164 1.384 . S
C4166 C4167 1.372 . S
C4167 C4166 1.372 . S
C4167 C4168 1.400 . S
C4167 C4172 1.490 . S
C4168 H4158 0.930 . S
C4168 C4167 1.400 . S
C4168 C4171 1.386 . S
H4169 C4185 0.930 . S
H4170 C4186 0.923 1_565 S
C4171 H4159 0.929 . S
C4171 C4165 1.390 . S
C4171 C4168 1.386 . S
C4172 C4167 1.490 . S
C4172 C4174 1.395 . S
C4172 C4175 1.403 . S
H4173 C4179 0.930 . S
C4174 H4160 0.930 . S
C4174 C4172 1.395 . S
C4174 C4177 1.403 1_565 S
C4175 C4172 1.403 . S
C4175 C4176 1.524 . S
C4175 C4179 1.400 . S
C4176 H4161 0.960 . S
C4176 H4162 0.960 . S
C4176 H4163 0.960 . S
C4176 C4175 1.524 . S
C4177 C4174 1.403 1_545 S
C4177 C4178 1.392 1_545 S
C4177 C4181 1.495 . S
C4178 C4177 1.392 1_565 S
C4178 C4179 1.385 . S
C4178 C4180 1.478 1_565 S
C4179 H4173 0.930 . S
C4179 C4175 1.400 . S
C4179 C4178 1.385 . S
C4180 C4178 1.478 1_545 S
C4180 C4182 1.381 . S
C4180 C4186 1.387 . S
C4181 C4177 1.495 . S
C4181 H4187 0.959 . S
C4181 H4188 0.961 . S
C4181 H4189 0.960 . S
C4182 C4180 1.381 . S
C4182 C4183 1.394 . S
C4182 H4190 0.930 . S
C4183 C4182 1.394 . S
C4183 C4184 1.383 . S
C4183 H4191 0.929 . S
C4184 C4183 1.383 . S
C4184 C4185 1.377 . S
C4185 H4169 0.930 . S
C4185 C4184 1.377 . S
C4185 C4186 1.383 . S
C4186 H4170 0.923 1_545 S
C4186 C4180 1.387 . S
C4186 C4185 1.383 . S
H4187 C4181 0.959 . S
H4188 C4181 0.961 . S
H4189 C4181 0.960 . S
H4190 C4182 0.930 . S
H4191 C4183 0.929 . S
H4192 C4200 0.929 . S
H4193 C4202 0.930 . S
H4194 C4204 0.930 . S
H4195 C4207 0.929 . S
H4196 C4210 0.930 . S
H4197 C4212 0.960 . S
H4198 C4212 0.960 . S
H4199 C4212 0.960 . S
C4200 H4192 0.929 . S
C4200 C4201 1.377 . S
C4200 C4202 1.384 . S
C4201 C4200 1.377 . S
C4201 C4207 1.390 . S
C4202 H4193 0.930 . S
C4202 C4200 1.384 . S
C4202 C4203 1.372 . S
C4203 C4202 1.372 . S
C4203 C4204 1.400 . S
C4203 C4208 1.490 . S
C4204 H4194 0.930 . S
C4204 C4203 1.400 . S
C4204 C4207 1.386 . S
H4205 C4221 0.930 . S
H4206 C4222 0.931 . S
C4207 H4195 0.929 . S
C4207 C4201 1.390 . S
C4207 C4204 1.386 . S
C4208 C4203 1.490 . S
C4208 C4210 1.395 . S
C4208 C4211 1.403 . S
H4209 C4215 0.930 . S
C4210 H4196 0.930 . S
C4210 C4208 1.395 . S
C4210 C4213 1.403 . S
C4211 C4208 1.403 . S
C4211 C4212 1.524 . S
C4211 C4215 1.400 . S
C4212 H4197 0.960 . S
C4212 H4198 0.960 . S
C4212 H4199 0.960 . S
C4212 C4211 1.524 . S
C4213 C4210 1.403 . S
C4213 C4214 1.392 . S
C4213 C4217 1.495 . S
C4214 C4213 1.392 . S
C4214 C4215 1.385 . S
C4214 C4216 1.478 . S
C4215 H4209 0.930 . S
C4215 C4211 1.400 . S
C4215 C4214 1.385 . S
C4216 C4214 1.478 . S
C4216 C4218 1.381 . S
C4216 C4222 1.383 . S
C4217 C4213 1.495 . S
C4217 H4223 0.959 . S
C4217 H4224 0.961 . S
C4217 H4225 0.960 . S
C4218 C4216 1.381 . S
C4218 C4219 1.394 . S
C4218 H4226 0.930 . S
C4219 C4218 1.394 . S
C4219 C4220 1.383 . S
C4219 H4227 0.929 . S
C4220 C4219 1.383 . S
C4220 C4221 1.377 . S
C4221 H4205 0.930 . S
C4221 C4220 1.377 . S
C4221 C4222 1.379 . S
C4222 H4206 0.931 . S
C4222 C4216 1.383 . S
C4222 C4221 1.379 . S
H4223 C4217 0.959 . S
H4224 C4217 0.961 . S
H4225 C4217 0.960 . S
H4226 C4218 0.930 . S
H4227 C4219 0.929 . S
H4228 C4236 0.929 . S
H4229 C4238 0.930 . S
H4230 C4240 0.930 . S
H4231 C4243 0.929 . S
H4232 C4246 0.930 . S
H4233 C4248 0.960 . S
H4234 C4248 0.960 . S
H4235 C4248 0.960 1_556 S
C4236 H4228 0.929 . S
C4236 C4237 1.377 1_554 S
C4236 C4238 1.384 . S
C4237 C4236 1.377 1_556 S
C4237 C4243 1.390 . S
C4238 H4229 0.930 . S
C4238 C4236 1.384 . S
C4238 C4239 1.372 1_554 S
C4239 C4238 1.372 1_556 S
C4239 C4240 1.400 . S
C4239 C4244 1.490 . S
C4240 H4230 0.930 . S
C4240 C4239 1.400 . S
C4240 C4243 1.386 . S
H4241 C4257 0.930 . S
H4242 C4258 0.931 . S
C4243 H4231 0.929 . S
C4243 C4237 1.390 . S
C4243 C4240 1.386 . S
C4244 C4239 1.490 . S
C4244 C4246 1.395 . S
C4244 C4247 1.403 1_556 S
H4245 C4251 0.930 . S
C4246 H4232 0.930 . S
C4246 C4244 1.395 . S
C4246 C4249 1.403 . S
C4247 C4244 1.403 1_554 S
C4247 C4248 1.524 . S
C4247 C4251 1.400 . S
C4248 H4233 0.960 . S
C4248 H4234 0.960 . S
C4248 H4235 0.960 1_554 S
C4248 C4247 1.524 . S
C4249 C4246 1.403 . S
C4249 C4250 1.384 1_556 S
C4249 C4253 1.495 . S
C4250 C4249 1.384 1_554 S
C4250 C4251 1.387 . S
C4250 C4252 1.485 . S
C4251 H4245 0.930 . S
C4251 C4247 1.400 . S
C4251 C4250 1.387 . S
C4252 C4250 1.485 . S
C4252 C4254 1.381 . S
C4252 C4258 1.383 1_554 S
C4253 C4249 1.495 . S
C4253 H4259 0.959 . S
C4253 H4260 0.961 . S
C4253 H4261 0.960 1_556 S
C4254 C4252 1.381 . S
C4254 C4255 1.394 . S
C4254 H4262 0.930 . S
C4255 C4254 1.394 . S
C4255 C4256 1.383 . S
C4255 H4263 0.929 . S
C4256 C4255 1.383 . S
C4256 C4257 1.377 1_554 S
C4257 H4241 0.930 . S
C4257 C4256 1.377 1_556 S
C4257 C4258 1.379 . S
C4258 H4242 0.931 . S
C4258 C4252 1.383 1_556 S
C4258 C4257 1.379 . S
H4259 C4253 0.959 . S
H4260 C4253 0.961 . S
H4261 C4253 0.960 1_554 S
H4262 C4254 0.930 . S
H4263 C4255 0.929 . S
H4264 C4272 0.929 . S
H4265 C4274 0.930 . S
H4266 C4276 0.930 . S
H4267 C4279 0.929 . S
H4268 C4282 0.930 . S
H4269 C4284 0.960 . S
H4270 C4284 0.960 . S
H4271 C4284 0.960 . S
C4272 H4264 0.929 . S
C4272 C4273 1.377 . S
C4272 C4274 1.384 . S
C4273 C4272 1.377 . S
C4273 C4279 1.390 . S
C4274 H4265 0.930 . S
C4274 C4272 1.384 . S
C4274 C4275 1.372 . S
C4275 C4274 1.372 . S
C4275 C4276 1.400 . S
C4275 C4280 1.490 . S
C4276 H4266 0.930 . S
C4276 C4275 1.400 . S
C4276 C4279 1.386 . S
H4277 C4293 0.930 . S
H4278 C4294 0.931 . S
C4279 H4267 0.929 . S
C4279 C4273 1.390 . S
C4279 C4276 1.386 . S
C4280 C4275 1.490 . S
C4280 C4282 1.395 . S
C4280 C4283 1.403 . S
H4281 C4287 0.930 . S
C4282 H4268 0.930 . S
C4282 C4280 1.395 . S
C4282 C4285 1.403 . S
C4283 C4280 1.403 . S
C4283 C4284 1.524 . S
C4283 C4287 1.400 . S
C4284 H4269 0.960 . S
C4284 H4270 0.960 . S
C4284 H4271 0.960 . S
C4284 C4283 1.524 . S
C4285 C4282 1.403 . S
C4285 C4286 1.392 . S
C4285 C4289 1.495 . S
C4286 C4285 1.392 . S
C4286 C4287 1.385 . S
C4286 C4288 1.478 . S
C4287 H4281 0.930 . S
C4287 C4283 1.400 . S
C4287 C4286 1.385 . S
C4288 C4286 1.478 . S
C4288 C4290 1.381 . S
C4288 C4294 1.383 . S
C4289 C4285 1.495 . S
C4289 H4295 0.959 . S
C4289 H4296 0.961 . S
C4289 H4297 0.960 . S
C4290 C4288 1.381 . S
C4290 C4291 1.394 . S
C4290 H4298 0.930 . S
C4291 C4290 1.394 . S
C4291 C4292 1.383 . S
C4291 H4299 0.929 . S
C4292 C4291 1.383 . S
C4292 C4293 1.377 . S
C4293 H4277 0.930 . S
C4293 C4292 1.377 . S
C4293 C4294 1.379 . S
C4294 H4278 0.931 . S
C4294 C4288 1.383 . S
C4294 C4293 1.379 . S
H4295 C4289 0.959 . S
H4296 C4289 0.961 . S
H4297 C4289 0.960 . S
H4298 C4290 0.930 . S
H4299 C4291 0.929 . S
H4300 C4308 0.929 . S
H4301 C4310 0.930 . S
H4302 C4312 0.960 . S
H4303 C4315 0.929 . S
H4304 C4318 0.930 . S
H4305 C4320 0.960 . S
H4306 C4320 0.960 . S
H4307 C4320 0.960 . S
C4308 H4300 0.929 . S
C4308 C4309 1.377 . S
C4308 C4310 1.384 . S
C4309 C4308 1.377 . S
C4309 C4315 1.390 . S
C4310 H4301 0.930 . S
C4310 C4308 1.384 . S
C4310 C4311 1.372 . S
C4311 C4310 1.372 . S
C4311 C4312 1.400 . S
C4311 C4316 1.490 . S
C4312 H4302 0.960 . S
C4312 C4311 1.400 . S
C4312 C4315 1.386 . S
H4313 C4329 0.930 . S
H4314 C4330 0.931 . S
C4315 H4303 0.929 . S
C4315 C4309 1.390 . S
C4315 C4312 1.386 . S
C4316 C4311 1.490 . S
C4316 C4318 1.395 . S
C4316 C4319 1.403 . S
H4317 C4323 0.930 . S
C4318 H4304 0.930 . S
C4318 C4316 1.395 . S
C4318 C4321 1.403 . S
C4319 C4316 1.403 . S
C4319 C4320 1.524 . S
C4319 C4323 1.400 . S
C4320 H4305 0.960 . S
C4320 H4306 0.960 . S
C4320 H4307 0.960 . S
C4320 C4319 1.524 . S
C4321 C4318 1.403 . S
C4321 C4322 1.392 . S
C4321 C4325 1.495 . S
C4322 C4321 1.392 . S
C4322 C4323 1.385 . S
C4322 C4324 1.478 . S
C4323 H4317 0.930 . S
C4323 C4319 1.400 . S
C4323 C4322 1.385 . S
C4324 C4322 1.478 . S
C4324 C4326 1.381 . S
C4324 C4330 1.383 1_554 S
C4325 C4321 1.495 . S
C4325 H4331 0.959 . S
C4325 H4332 0.961 . S
C4325 H4333 0.960 . S
C4326 C4324 1.381 . S
C4326 C4327 1.394 . S
C4326 H4334 0.930 . S
C4327 C4326 1.394 . S
C4327 C4328 1.383 . S
C4327 H4335 0.929 . S
C4328 C4327 1.383 . S
C4328 C4329 1.377 1_554 S
C4329 H4313 0.930 . S
C4329 C4328 1.377 1_556 S
C4329 C4330 1.379 . S
C4330 H4314 0.931 . S
C4330 C4324 1.383 1_556 S
C4330 C4329 1.379 . S
H4331 C4325 0.959 . S
H4332 C4325 0.961 . S
H4333 C4325 0.960 . S
H4334 C4326 0.930 . S
H4335 C4327 0.929 . S
H4336 C4344 0.929 . S
H4337 C4346 0.930 . S
H4338 C4348 0.930 . S
H4339 C4351 0.929 . S
H4340 C4354 0.930 . S
H4341 C4356 0.960 . S
H4342 C4356 0.960 . S
H4343 C4356 0.960 . S
C4344 H4336 0.929 . S
C4344 C4345 1.377 . S
C4344 C4346 1.384 . S
C4345 C4344 1.377 . S
C4345 C4351 1.390 . S
C4346 H4337 0.930 . S
C4346 C4344 1.384 . S
C4346 C4347 1.372 . S
C4347 C4346 1.372 . S
C4347 C4348 1.400 . S
C4347 C4352 1.490 . S
C4348 H4338 0.930 . S
C4348 C4347 1.400 . S
C4348 C4351 1.386 . S
H4349 C4365 0.930 . S
H4350 C4366 0.931 . S
C4351 H4339 0.929 . S
C4351 C4345 1.390 . S
C4351 C4348 1.386 . S
C4352 C4347 1.490 . S
C4352 C4354 1.395 . S
C4352 C4355 1.403 . S
H4353 C4359 0.930 . S
C4354 H4340 0.930 . S
C4354 C4352 1.395 . S
C4354 C4357 1.403 . S
C4355 C4352 1.403 . S
C4355 C4356 1.524 . S
C4355 C4359 1.400 . S
C4356 H4341 0.960 . S
C4356 H4342 0.960 . S
C4356 H4343 0.960 . S
C4356 C4355 1.524 . S
C4357 C4354 1.403 . S
C4357 C4358 1.392 . S
C4357 C4361 1.495 . S
C4358 C4357 1.392 . S
C4358 C4359 1.385 . S
C4358 C4360 1.478 . S
C4359 H4353 0.930 . S
C4359 C4355 1.400 . S
C4359 C4358 1.385 . S
C4360 C4358 1.478 . S
C4360 C4362 1.381 . S
C4360 C4366 1.383 . S
C4361 C4357 1.495 . S
C4361 H4367 0.959 . S
C4361 H4368 0.961 . S
C4361 H4369 0.960 . S
C4362 C4360 1.381 . S
C4362 C4363 1.394 . S
C4362 H4370 0.930 . S
C4363 C4362 1.394 . S
C4363 C4364 1.383 . S
C4363 H4371 0.929 . S
C4364 C4363 1.383 . S
C4364 C4365 1.377 . S
C4365 H4349 0.930 . S
C4365 C4364 1.377 . S
C4365 C4366 1.379 . S
C4366 H4350 0.931 . S
C4366 C4360 1.383 . S
C4366 C4365 1.379 . S
H4367 C4361 0.959 . S
H4368 C4361 0.961 . S
H4369 C4361 0.960 . S
H4370 C4362 0.930 . S
H4371 C4363 0.929 . S
H4372 C4380 0.929 . S
H4373 C4382 0.930 . S
H4374 C4384 0.930 . S
H4375 C4387 0.929 . S
H4376 C4390 0.930 . S
H4377 C4392 0.960 . S
H4378 C4392 0.960 . S
H4379 C4392 0.960 . S
C4380 H4372 0.929 . S
C4380 C4381 1.377 . S
C4380 C4382 1.384 . S
C4381 C4380 1.377 . S
C4381 C4387 1.390 . S
C4382 H4373 0.930 . S
C4382 C4380 1.384 . S
C4382 C4383 1.372 . S
C4383 C4382 1.372 . S
C4383 C4384 1.400 . S
C4383 C4388 1.490 . S
C4384 H4374 0.930 . S
C4384 C4383 1.400 . S
C4384 C4387 1.386 . S
H4385 C4401 0.930 . S
H4386 C4402 0.931 . S
C4387 H4375 0.929 . S
C4387 C4381 1.390 . S
C4387 C4384 1.386 . S
C4388 C4383 1.490 . S
C4388 C4390 1.395 . S
C4388 C4391 1.403 . S
H4389 C4395 0.930 . S
C4390 H4376 0.930 . S
C4390 C4388 1.395 . S
C4390 C4393 1.403 . S
C4391 C4388 1.403 . S
C4391 C4392 1.524 . S
C4391 C4395 1.400 . S
C4392 H4377 0.960 . S
C4392 H4378 0.960 . S
C4392 H4379 0.960 . S
C4392 C4391 1.524 . S
C4393 C4390 1.403 . S
C4393 C4394 1.392 . S
C4393 C4397 1.495 . S
C4394 C4393 1.392 . S
C4394 C4395 1.385 . S
C4394 C4396 1.478 . S
C4395 H4389 0.930 . S
C4395 C4391 1.400 . S
C4395 C4394 1.385 . S
C4396 C4394 1.478 . S
C4396 C4398 1.381 . S
C4396 C4402 1.383 . S
C4397 C4393 1.495 . S
C4397 H4403 0.959 . S
C4397 H4404 0.961 . S
C4397 H4405 0.960 . S
C4398 C4396 1.381 . S
C4398 C4399 1.394 . S
C4398 H4406 0.930 . S
C4399 C4398 1.394 . S
C4399 C4400 1.383 . S
C4399 H4407 0.929 . S
C4400 C4399 1.383 . S
C4400 C4401 1.377 . S
C4401 H4385 0.930 . S
C4401 C4400 1.377 . S
C4401 C4402 1.379 . S
C4402 H4386 0.931 . S
C4402 C4396 1.383 . S
C4402 C4401 1.379 . S
H4403 C4397 0.959 . S
H4404 C4397 0.961 . S
H4405 C4397 0.960 . S
H4406 C4398 0.930 . S
H4407 C4399 0.929 . S
C961 C101 2.010 . S
C980 C322 1.909 . S
C997 C57 1.686 . S
C1016 C361 1.649 . S
C1033 C70 0.979 . S
C1052 C402 0.995 1_565 S
C1088 C447 1.407 . S
C1069 C82 1.426 . S
C1105 C23 1.898 . S
C1124 C491 1.875 1_565 S
C1160 C522 1.055 . S
C1141 C29 1.080 . S
C1196 C570 1.849 . S
C1177 C49 1.853 . S
C1213 C10 1.644 . S
C1232 C598 1.609 . S
C1268 C330 1.323 . S
C1249 C218 1.313 . S
C1285 C226 1.097 . S
C1304 C371 1.030 . S
C1340 C410 1.277 . S
C1321 C251 1.268 . S
C1376 C442 1.046 . S
C1357 C159 1.091 . S
C1393 C211 0.192 . S
C1412 C478 0.259 . S
C1448 C530 2.186 . S
C1429 C225 2.192 . S
C1484 C567 0.803 . S
C1465 C252 0.742 . S
C1520 C601 1.836 . S
C1501 C166 1.858 . S
C1556 C327 1.839 . S
C1537 C147 1.877 . S
C1573 C263 1.911 . S
C1592 C641 1.890 . S
C1628 C687 1.154 . S
C1609 C309 1.137 . S
C1664 C722 1.281 . S
C1645 C291 1.301 . S
C1681 C108 1.852 . S
C1700 C611 1.828 . S
C1717 C121 1.343 . S
C1736 C407 1.304 . S
C1753 C302 1.150 . S
C1772 C770 1.185 . S
C1808 C798 0.370 . S
C1789 C276 0.237 . S
C1844 C331 2.253 . S
C1825 C55 2.318 . S
C1880 C810 1.934 . S
C1861 C96 1.981 . S
C1897 C88 1.565 . S
C1916 C411 1.529 . S
C1933 C75 1.622 . S
C1952 C758 1.601 . S
C1988 C482 2.341 . S
C1969 C4 2.394 . S
C2005 C44 1.397 . S
C2024 C691 1.377 . S
C2060 C561 2.207 1_556 S
C2041 C31 2.228 . S
C2096 C847 1.679 . S
C2077 C18 1.692 . S
C2132 C321 1.530 1_556 S
C2113 C133 1.528 . S
C2168 C802 1.694 . S
C2149 C296 1.730 . S
C2185 C107 1.676 . S
C2204 C401 1.680 . S
C2221 C264 1.661 . S
C2240 C771 1.636 . S
C2257 C140 0.220 . S
C2276 C487 0.266 . S
C2312 C681 2.513 . S
C2293 C289 2.546 . S
C2329 C114 0.790 . S
C2348 C558 0.741 . S
C2365 C265 2.133 . S
C2384 C850 2.112 . S
C2401 C179 1.900 . S
C2420 C318 1.855 . S
C2437 C161 2.215 . S
C2456 C650 2.166 . S
C2473 C244 1.176 . S
C2492 C518 1.144 . S
C2509 C224 1.624 . S
C2528 C731 1.603 . S
C2564 C842 1.931 . S
C2545 C257 2.004 . S
C2581 C199 1.538 . S
C2600 C398 1.529 . S
C2636 C441 1.512 . S
C2617 C237 1.537 . S
C2672 C367 0.499 . S
C2653 C185 0.501 . S
C2689 C69 2.010 . S
C2708 C882 1.917 . S
C2744 C801 1.672 . S
C2725 C83 1.686 . S
C2761 C94 0.982 . S
C2780 C922 0.982 . S
C2797 C56 1.424 . S
C2816 C767 1.389 . S
C2833 C42 1.906 . S
C2852 C651 1.872 . S
C2888 C682 1.043 . S
C2869 C3 1.087 . S
C2924 C730 1.866 . S
C2905 C16 1.865 . S
C2960 C838 1.598 . S
C2941 C36 1.646 . S
C2996 C890 1.336 . S
C2977 C238 1.318 . S
C3013 C174 1.097 . S
C3032 C811 1.088 . S
C3068 C930 1.295 . S
C3049 C186 1.258 . S
C3104 C762 1.096 . S
C3085 C198 1.087 . S
C3140 C638 0.297 . S
C3121 C239 0.192 . S
C3157 C173 2.191 . S
C3176 C690 2.168 . S
C3212 C727 0.793 . S
C3193 C187 0.754 . S
C3229 C205 1.857 . S
C3248 C841 1.852 . S
C3284 C887 1.800 . S
C3265 C290 1.873 . S
C3301 C122 1.912 . S
C3320 C481 1.887 . S
C3356 C527 1.138 . S
C3337 C134 1.135 . S
C3392 C562 1.231 . S
C3373 C148 1.300 . S
C3428 C851 1.787 . S
C3409 C283 1.842 . S
C3445 C270 1.346 . S
C3464 C927 1.344 . S
C3500 C450 1.179 . S
C3481 C135 1.151 . S
C3536 C358 0.370 . S
C3517 C109 0.238 . S
C3553 C81 2.318 . S
C3572 C891 2.258 . S
C3608 C370 1.925 . S
C3589 C68 1.980 . S
C3625 C62 1.564 . S
C3644 C931 1.537 . S
C3661 C95 1.622 . S
C3680 C438 1.613 . S
C3697 C30 2.394 . S
C3716 C642 2.366 . S
C3752 C531 1.334 . S
C3733 C17 1.387 . S
C3769 C5 2.228 . S
C3788 C721 2.216 . S
C3805 C43 1.681 . S
C3824 C607 1.644 . S
C3860 C881 1.507 . S
C3841 C304 1.533 . S
C3877 C153 1.729 . S
C3896 C362 1.695 . S
C3932 C921 1.654 1_556 S
C3913 C278 1.670 . S
C3949 C127 1.657 . S
C3968 C451 1.654 . S
C3985 C303 0.212 . S
C4004 C647 0.227 . S
C4040 C521 2.514 . S
C4021 C146 2.544 1_556 S
C4057 C277 0.798 . S
C4076 C718 0.789 . S
C4112 C610 2.110 . S
C4093 C120 2.130 . S
C4148 C878 1.857 . S
C4129 C231 1.901 . S
C4184 C490 2.149 1_655 S
C4165 C200 2.213 . S
C4201 C212 1.175 . S
C4220 C678 1.177 . S
C4256 C571 1.566 . S
C4237 C172 1.617 . S
C4273 C192 1.992 . S
C4292 C602 1.954 . S
C4309 C160 1.539 . S
C4328 C918 1.517 . S
C4364 C761 1.514 . S
C4345 C213 1.538 1_565 S
C4400 C807 0.499 . S
C4381 C250 0.496 . S
