# Generated by pormake.
# Topology anh, (6,3)-cn, num edge types: 1
# Building blocks:
#     Node 0, Type 0, BuildingBlock: BETDAH_clean_sbu_0, # of connection points: 6
#     Node 1, Type 0, BuildingBlock: BETDAH_clean_sbu_0, # of connection points: 6
#     Node 2, Type 0, BuildingBlock: BETDAH_clean_sbu_0, # of connection points: 6
#     Node 3, Type 1, BuildingBlock: OLANEW_clean_sbu_2, # of connection points: 3
#     Node 4, Type 1, BuildingBlock: OLANEW_clean_sbu_2, # of connection points: 3
#     Node 5, Type 1, BuildingBlock: OLANEW_clean_sbu_2, # of connection points: 3
#     Node 6, Type 1, BuildingBlock: OLANEW_clean_sbu_2, # of connection points: 3
#     Node 7, Type 1, BuildingBlock: OLANEW_clean_sbu_2, # of connection points: 3
#     Node 8, Type 1, BuildingBlock: OLANEW_clean_sbu_2, # of connection points: 3
#     Edge 9, Type (0, 1), BuildingBlock: UVAHIK_clean_linker_0, # of connection points: 2
#     Edge 10, Type (0, 1), BuildingBlock: UVAHIK_clean_linker_0, # of connection points: 2
#     Edge 11, Type (0, 1), BuildingBlock: UVAHIK_clean_linker_0, # of connection points: 2
#     Edge 12, Type (0, 1), BuildingBlock: UVAHIK_clean_linker_0, # of connection points: 2
#     Edge 13, Type (0, 1), BuildingBlock: UVAHIK_clean_linker_0, # of connection points: 2
#     Edge 14, Type (0, 1), BuildingBlock: UVAHIK_clean_linker_0, # of connection points: 2
#     Edge 15, Type (0, 1), BuildingBlock: UVAHIK_clean_linker_0, # of connection points: 2
#     Edge 16, Type (0, 1), BuildingBlock: UVAHIK_clean_linker_0, # of connection points: 2
#     Edge 17, Type (0, 1), BuildingBlock: UVAHIK_clean_linker_0, # of connection points: 2
#     Edge 18, Type (0, 1), BuildingBlock: UVAHIK_clean_linker_0, # of connection points: 2
#     Edge 19, Type (0, 1), BuildingBlock: UVAHIK_clean_linker_0, # of connection points: 2
#     Edge 20, Type (0, 1), BuildingBlock: UVAHIK_clean_linker_0, # of connection points: 2
#     Edge 21, Type (0, 1), BuildingBlock: UVAHIK_clean_linker_0, # of connection points: 2
#     Edge 22, Type (0, 1), BuildingBlock: UVAHIK_clean_linker_0, # of connection points: 2
#     Edge 23, Type (0, 1), BuildingBlock: UVAHIK_clean_linker_0, # of connection points: 2
#     Edge 24, Type (0, 1), BuildingBlock: UVAHIK_clean_linker_0, # of connection points: 2
#     Edge 25, Type (0, 1), BuildingBlock: UVAHIK_clean_linker_0, # of connection points: 2
#     Edge 26, Type (0, 1), BuildingBlock: UVAHIK_clean_linker_0, # of connection points: 2
# Relax obj value: 0.114
# Max RMSD: 0.157
# Mean RMSD: 0.110
data_MOF--net-anh--node1-BETDAH_clean_sbu_0--node2-OLANEW_clean_sbu_2--edge1-UVAHIK_clean_linker_0
_symmetry_space_group_name_H-M    P1
_symmetry_Int_Tables_number       1
_symmetry_cell_setting            triclinic
loop_
_symmetry_equiv_pos_as_xyz
'x, y, z'
_cell_length_a     46.114128
_cell_length_b     50.342212
_cell_length_c     64.911319
_cell_angle_alpha  92.023099
_cell_angle_beta   89.730242
_cell_angle_gamma 128.68237
loop_
_atom_site_label
_atom_site_type_symbol
_atom_site_fract_x
_atom_site_fract_y
_atom_site_fract_z
_atom_type_partial_charge
Ho0 Ho 0.03682 0.51126 0.13623 0.0
Ho1 Ho 1.00251 0.54326 0.15304 0.0
C2 C 0.08876 0.59401 0.14437 0.0
C3 C 0.07194 0.49492 0.11557 0.0
C4 C 0.10974 0.5053 0.11639 0.0
C5 C 0.11398 0.48036 0.11897 0.0
C6 C 0.14929 0.48954 0.1214 0.0
C7 C 0.18113 0.52389 0.12113 0.0
C8 C 0.17701 0.54885 0.11796 0.0
C9 C 0.14157 0.53966 0.11573 0.0
C10 C 0.03536 0.51529 0.17771 0.0
C11 C 0.95086 0.46112 0.14516 0.0
C12 C 0.96742 0.55919 0.17425 0.0
C13 C 0.92874 0.54123 0.1804 0.0
C14 C 0.90656 0.50728 0.18631 0.0
C15 C 0.86916 0.48997 0.19075 0.0
C16 C 0.85325 0.50627 0.1893 0.0
C17 C 0.87586 0.54054 0.18384 0.0
C18 C 0.91326 0.55783 0.17944 0.0
C19 C 0.0055 0.53966 0.11157 0.0
O20 O 0.08437 0.56801 0.13469 0.0
O21 O 0.0618 0.58991 0.155 0.0
O22 O 0.05146 0.47835 0.13138 0.0
O23 O 0.06834 0.51727 0.10947 0.0
O24 O 0.03252 0.4912 0.1675 0.0
O25 O 0.04216 0.53744 0.16561 0.0
O26 O 0.95636 0.48678 0.15596 0.0
O27 O 0.9767 0.46576 0.13306 0.0
O28 O 0.97353 0.56433 0.15456 0.0
O29 O 0.98505 0.54943 0.18251 0.0
O30 O 0.01011 0.56476 0.12171 0.0
O31 O 0.99739 0.51711 0.12371 0.0
H32 H 0.08986 0.45372 0.11947 0.0
H33 H 0.1517 0.46973 0.1235 0.0
H34 H 0.20112 0.57551 0.11775 0.0
H35 H 0.13911 0.55946 0.11383 0.0
H36 H 0.91793 0.49393 0.18721 0.0
H37 H 0.85264 0.46373 0.19513 0.0
H38 H 0.86439 0.5537 0.18225 0.0
H39 H 0.92992 0.58398 0.17483 0.0
Ho40 Ho 0.54158 0.01349 0.49779 0.0
Ho41 Ho 0.49336 0.0339 0.48816 0.0
C42 C 0.45304 0.95516 0.48638 0.0
C43 C 0.56964 0.98682 0.51277 0.0
C44 C 0.55998 0.9529 0.5133 0.0
C45 C 0.52296 0.92324 0.51451 0.0
C46 C 0.51453 0.89128 0.51467 0.0
C47 C 0.543 0.88843 0.51365 0.0
C48 C 0.58004 0.91831 0.51249 0.0
C49 C 0.58839 0.95018 0.51229 0.0
C50 C 0.54072 0.02694 0.45814 0.0
C51 C 0.58248 0.09254 0.49809 0.0
C52 C 0.46679 0.06258 0.47448 0.0
C53 C 0.47454 0.09563 0.47848 0.0
C54 C 0.48597 0.11787 0.46233 0.0
C55 C 0.49366 0.14933 0.46585 0.0
C56 C 0.48987 0.15916 0.4856 0.0
C57 C 0.47823 0.13672 0.50173 0.0
C58 C 0.47077 0.1054 0.49824 0.0
C59 C 0.49618 0.02205 0.52804 0.0
O60 O 0.48302 0.963 0.49593 0.0
O61 O 0.45251 0.97882 0.47872 0.0
O62 O 0.57799 1.00028 0.49471 0.0
O63 O 0.54882 0.99154 0.52332 0.0
O64 O 0.56968 0.03407 0.46757 0.0
O65 O 0.51304 0.011 0.46968 0.0
O66 O 0.5516 0.08427 0.48958 0.0
O67 O 0.58405 0.06928 0.50539 0.0
O68 O 0.45195 0.0412 0.4894 0.0
O69 O 0.49269 0.06366 0.46511 0.0
O70 O 0.46675 0.01461 0.51908 0.0
O71 O 0.52286 0.03737 0.51592 0.0
H72 H 0.50059 0.92477 0.51533 0.0
H73 H 0.48569 0.86881 0.51536 0.0
H74 H 0.6027 0.91714 0.51204 0.0
H75 H 0.61714 0.9728 0.51139 0.0
H76 H 0.48914 0.11097 0.44697 0.0
H77 H 0.50303 0.16611 0.45312 0.0
H78 H 0.47439 0.14312 0.51706 0.0
H79 H 0.46199 0.08887 0.51105 0.0
Ho80 Ho 0.56279 0.55598 0.8526 0.0
Ho81 Ho 0.51071 0.48003 0.86043 0.0
C82 C 0.47354 0.51558 0.85708 0.0
C83 C 0.59482 0.61592 0.8388 0.0
C84 C 0.58571 0.63897 0.8361 0.0
C85 C 0.55108 0.62711 0.82803 0.0
C86 C 0.54344 0.64971 0.82547 0.0
C87 C 0.5702 0.68457 0.83101 0.0
C88 C 0.60464 0.69613 0.83932 0.0
C89 C 0.6123 0.67358 0.84177 0.0
C90 C 0.55294 0.53928 0.89252 0.0
C91 C 0.6008 0.52124 0.85684 0.0
C92 C 0.47948 0.42022 0.87417 0.0
C93 C 0.48669 0.39569 0.87172 0.0
C94 C 0.46886 0.36763 0.88429 0.0
C95 C 0.47524 0.34395 0.88185 0.0
C96 C 0.49959 0.34792 0.86674 0.0
C97 C 0.51771 0.37643 0.85433 0.0
C98 C 0.51139 0.40013 0.85683 0.0
C99 C 0.51894 0.49555 0.82047 0.0
O100 O 0.50507 0.54098 0.8487 0.0
O101 O 0.47079 0.49088 0.86607 0.0
O102 O 0.59869 0.61073 0.85782 0.0
O103 O 0.57683 0.58811 0.82698 0.0
O104 O 0.58449 0.56497 0.88548 0.0
O105 O 0.52854 0.5253 0.87845 0.0
O106 O 0.5682 0.49431 0.86334 0.0
O107 O 0.60479 0.54739 0.84926 0.0
O108 O 0.46814 0.42544 0.8575 0.0
O109 O 0.50486 0.4485 0.88458 0.0
O110 O 0.4882 0.46979 0.82809 0.0
O111 O 0.5445 0.51037 0.83405 0.0
H112 H 0.53001 0.60047 0.82359 0.0
H113 H 0.51679 0.63993 0.81884 0.0
H114 H 0.62566 0.72261 0.84414 0.0
H115 H 0.63909 0.68321 0.84814 0.0
H116 H 0.44993 0.364 0.89597 0.0
H117 H 0.46129 0.32266 0.89191 0.0
H118 H 0.53625 0.38013 0.84237 0.0
H119 H 0.52552 0.42176 0.84702 0.0
O120 O 0.55021 0.0575 0.2275 0.0
Cd121 Cd 0.55129 0.05866 0.18987 0.0
O122 O 0.49041 0.01464 0.22968 0.0
Cd123 Cd 0.47784 0.99856 0.19708 0.0
O124 O 0.43909 0.95321 0.17715 0.0
C125 C 0.43249 0.92602 0.18286 0.0
O126 O 0.45087 0.92779 0.19897 0.0
C127 C 0.52164 0.03798 0.23834 0.0
C128 C 0.61325 0.12297 0.17801 0.0
O129 O 0.58241 0.11693 0.18196 0.0
O130 O 0.61467 0.09845 0.17932 0.0
O131 O 0.56544 0.53243 0.58969 0.0
Cd132 Cd 0.56311 0.5313 0.552 0.0
O133 O 0.51329 0.52515 0.59237 0.0
Cd134 Cd 0.51354 0.5404 0.56122 0.0
O135 O 0.51293 0.57664 0.54395 0.0
C136 C 0.49166 0.58268 0.55089 0.0
O137 O 0.4708 0.56571 0.56665 0.0
C138 C 0.53933 0.52679 0.60066 0.0
C139 C 0.55191 0.47295 0.53629 0.0
O140 O 0.58474 0.50134 0.53887 0.0
O141 O 0.52439 0.47228 0.54081 0.0
O142 O 0.07711 0.52668 0.8883 0.0
Cd143 Cd 0.10691 0.52852 0.85586 0.0
O144 O 0.02925 0.52377 0.87841 0.0
Cd145 Cd 0.98036 0.52323 0.88072 0.0
O146 O 0.92905 0.51891 0.87986 0.0
C147 C 0.92877 0.54145 0.87173 0.0
O148 O 0.95964 0.56788 0.86393 0.0
C149 C 0.04918 0.52533 0.8928 0.0
C150 C 0.16534 0.52438 0.8594 0.0
O151 O 0.17107 0.55255 0.86295 0.0
O152 O 0.13203 0.49798 0.85468 0.0
O153 O 0.04954 0.53769 0.41044 0.0
Cd154 Cd 0.05369 0.54227 0.44808 0.0
O155 O 0.98867 0.49904 0.40654 0.0
Cd156 Cd 0.9743 0.48398 0.43851 0.0
O157 O 0.9339 0.4425 0.45844 0.0
C158 C 0.90053 0.43157 0.45715 0.0
O159 O 0.89289 0.44711 0.44521 0.0
C160 C 0.0206 0.51991 0.39884 0.0
C161 C 0.11779 0.60772 0.45978 0.0
O162 O 0.11852 0.58272 0.4577 0.0
O163 O 0.08662 0.60159 0.45683 0.0
O164 O 0.49116 0.97632 0.75662 0.0
Cd165 Cd 0.49321 0.97363 0.79408 0.0
O166 O 0.54044 0.03047 0.75653 0.0
Cd167 Cd 0.53737 0.04168 0.78895 0.0
O168 O 0.53117 0.07352 0.80924 0.0
C169 C 0.55686 0.10558 0.80934 0.0
O170 O 0.58671 0.11764 0.79859 0.0
C171 C 0.51609 0.00239 0.7468 0.0
C172 C 0.50495 0.92704 0.8033 0.0
O173 O 0.47201 0.91772 0.80188 0.0
O174 O 0.53229 0.95846 0.80074 0.0
O175 O 0.44065 0.35179 0.08801 0.0
Cd176 Cd 0.41714 0.32193 0.12019 0.0
O177 O 0.45641 0.3974 0.1052 0.0
Cd178 Cd 0.47826 0.45023 0.11009 0.0
O179 O 0.47097 0.48883 0.11453 0.0
C180 C 0.45548 0.48798 0.13101 0.0
O181 O 0.44763 0.46601 0.14484 0.0
C182 C 0.45485 0.38304 0.08824 0.0
C183 C 0.4774 0.34336 0.14535 0.0
O184 O 0.46229 0.3174 0.13285 0.0
O185 O 0.46331 0.35868 0.14632 0.0
C186 C 0.22441 0.51916 0.1404 0.0
C187 C 0.21836 0.53334 0.12438 0.0
C188 C 0.2585 0.52582 0.14266 0.0
C189 C 0.33445 0.54443 0.1118 0.0
H190 H 0.37917 0.55451 0.16493 0.0
C191 C 0.44726 0.52916 0.11775 0.0
C192 C 0.44101 0.50715 0.13307 0.0
C193 C 0.42867 0.54292 0.11807 0.0
C194 C 0.36704 0.5517 0.14997 0.0
H195 H 0.24354 0.56651 0.0986 0.0
H196 H 0.30334 0.57794 0.10243 0.0
H197 H 0.3295 0.55898 0.16289 0.0
H198 H 0.41236 0.48425 0.16151 0.0
H199 H 0.37942 0.50741 0.16182 0.0
H200 H 0.37021 0.53516 0.09893 0.0
C201 C 0.28161 0.5617 0.11322 0.0
C202 C 0.33868 0.55436 0.14881 0.0
C203 C 0.24753 0.5553 0.11109 0.0
C204 C 0.4177 0.50099 0.14941 0.0
C205 C 0.39897 0.51454 0.14967 0.0
C206 C 0.36258 0.5415 0.11296 0.0
C207 C 0.28722 0.54661 0.12886 0.0
C208 C 0.32136 0.54973 0.12979 0.0
C209 C 0.40332 0.53481 0.13366 0.0
C210 C 0.37842 0.54404 0.13214 0.0
H211 H 0.20252 0.50245 0.15101 0.0
H212 H 0.26182 0.51351 0.15472 0.0
H213 H 0.32139 0.5404 0.09694 0.0
H214 H 0.4654 0.53473 0.10506 0.0
H215 H 0.43324 0.559 0.10572 0.0
C216 C 0.6506 0.13856 0.50581 0.0
C217 C 0.61613 0.12885 0.49905 0.0
C218 C 0.68274 0.17256 0.50523 0.0
C219 C 0.71565 0.26087 0.50061 0.0
H220 H 0.8029 0.27744 0.47719 0.0
C221 C 0.83323 0.38775 0.46504 0.0
C222 C 0.87004 0.39976 0.46701 0.0
C223 C 0.80384 0.35617 0.47247 0.0
C224 C 0.77906 0.27337 0.48412 0.0
H225 H 0.58833 0.14756 0.48696 0.0
H226 H 0.64421 0.20651 0.48585 0.0
H227 H 0.74853 0.21939 0.48385 0.0
H228 H 0.9049 0.3885 0.47911 0.0
H229 H 0.8535 0.33338 0.49224 0.0
H230 H 0.74591 0.3148 0.50045 0.0
C231 C 0.64645 0.18799 0.49176 0.0
C232 C 0.74783 0.24003 0.48793 0.0
C233 C 0.61438 0.15406 0.49228 0.0
C234 C 0.87687 0.37996 0.47727 0.0
C235 C 0.84739 0.34827 0.48468 0.0
C236 C 0.74688 0.29421 0.49681 0.0
C237 C 0.68111 0.19761 0.49798 0.0
C238 C 0.7155 0.23331 0.49587 0.0
C239 C 0.81046 0.33576 0.48207 0.0
C240 C 0.77872 0.30081 0.48816 0.0
H241 H 0.65295 0.11984 0.51117 0.0
H242 H 0.70894 0.17919 0.51035 0.0
H243 H 0.69143 0.25664 0.50708 0.0
H244 H 0.82693 0.40232 0.45724 0.0
H245 H 0.77576 0.34721 0.46997 0.0
C246 C 0.59067 0.742 0.82157 0.0
C247 C 0.5625 0.70891 0.82805 0.0
C248 C 0.58378 0.76508 0.81904 0.0
C249 C 0.51842 0.78183 0.83376 0.0
H250 H 0.56446 0.844 0.78896 0.0
C251 C 0.48138 0.86832 0.81168 0.0
C252 C 0.51122 0.90211 0.80719 0.0
C253 C 0.48719 0.84454 0.81462 0.0
C254 C 0.55167 0.82702 0.80166 0.0
H255 H 0.50482 0.6743 0.83696 0.0
H256 H 0.49247 0.71417 0.8319 0.0
H257 H 0.57476 0.80251 0.79285 0.0
H258 H 0.57065 0.93746 0.80245 0.0
H259 H 0.58072 0.89595 0.80751 0.0
H260 H 0.49495 0.80622 0.84234 0.0
C261 C 0.52015 0.72249 0.82912 0.0
C262 C 0.55762 0.80324 0.80393 0.0
C263 C 0.52711 0.69943 0.83176 0.0
C264 C 0.54704 0.91165 0.80587 0.0
C265 C 0.55279 0.88782 0.80864 0.0
C266 C 0.51226 0.80549 0.83139 0.0
C267 C 0.54843 0.75567 0.82277 0.0
C268 C 0.54127 0.78044 0.82009 0.0
C269 C 0.52292 0.85395 0.81295 0.0
C270 C 0.529 0.82848 0.81538 0.0
H271 H 0.61812 0.75011 0.81827 0.0
H272 H 0.6064 0.7905 0.81439 0.0
H273 H 0.50582 0.76508 0.84657 0.0
H274 H 0.45343 0.86013 0.81279 0.0
H275 H 0.46357 0.81858 0.81777 0.0
C276 C 0.78712 0.45366 0.18394 0.0
C277 C 0.8128 0.48713 0.19219 0.0
C278 C 0.74902 0.43675 0.18477 0.0
C279 C 0.68428 0.45533 0.18609 0.0
H280 H 0.61082 0.35805 0.1927 0.0
C281 C 0.52927 0.38618 0.17001 0.0
C282 C 0.51153 0.35653 0.15725 0.0
C283 C 0.56375 0.40077 0.17936 0.0
C284 C 0.631 0.38524 0.19081 0.0
H285 H 0.81846 0.52833 0.20884 0.0
H286 H 0.75178 0.49883 0.21009 0.0
H287 H 0.67631 0.38639 0.20008 0.0
H288 H 0.51517 0.31802 0.14512 0.0
H289 H 0.57539 0.34366 0.16111 0.0
H290 H 0.63942 0.4541 0.17601 0.0
C291 C 0.76127 0.48589 0.20278 0.0
C292 C 0.66846 0.40144 0.19505 0.0
C293 C 0.79942 0.50279 0.20201 0.0
C294 C 0.52813 0.3409 0.15483 0.0
C295 C 0.56258 0.35549 0.16414 0.0
C296 C 0.64688 0.43913 0.1818 0.0
C297 C 0.7357 0.45294 0.19382 0.0
C298 C 0.69559 0.43651 0.19224 0.0
C299 C 0.58119 0.38601 0.17613 0.0
C300 C 0.61992 0.40375 0.1836 0.0
H301 H 0.79644 0.44101 0.17599 0.0
H302 H 0.73007 0.41157 0.17744 0.0
H303 H 0.70455 0.4823 0.18353 0.0
H304 H 0.51707 0.39872 0.1723 0.0
H305 H 0.57713 0.42402 0.18875 0.0
C306 C 0.42063 0.89252 0.48811 0.0
C307 C 0.41929 0.919 0.48409 0.0
C308 C 0.38846 0.85848 0.48635 0.0
C309 C 0.28635 0.80471 0.48712 0.0
H310 H 0.28832 0.73687 0.45866 0.0
C311 C 0.15199 0.67059 0.46402 0.0
C312 C 0.15216 0.64281 0.46466 0.0
C313 C 0.18477 0.70388 0.46749 0.0
C314 C 0.28735 0.75532 0.46696 0.0
H315 H 0.383 0.93039 0.47499 0.0
H316 H 0.32703 0.87114 0.47196 0.0
H317 H 0.3453 0.79557 0.46255 0.0
H318 H 0.18681 0.62822 0.46996 0.0
H319 H 0.24384 0.68623 0.47649 0.0
H320 H 0.22857 0.76461 0.4917 0.0
C321 C 0.35291 0.8767 0.4766 0.0
C322 C 0.32004 0.78902 0.46913 0.0
C323 C 0.38509 0.91066 0.47818 0.0
C324 C 0.18575 0.64906 0.46925 0.0
C325 C 0.21852 0.68237 0.47286 0.0
C326 C 0.25374 0.771 0.48509 0.0
C327 C 0.35419 0.85022 0.48071 0.0
C328 C 0.31982 0.81415 0.47906 0.0
C329 C 0.21855 0.71027 0.47183 0.0
C330 C 0.25369 0.74589 0.47481 0.0
H331 H 0.44651 0.898 0.49256 0.0
H332 H 0.3903 0.83865 0.48972 0.0
H333 H 0.28542 0.82338 0.49516 0.0
H334 H 0.12664 0.6667 0.46041 0.0
H335 H 0.18374 0.72467 0.46625 0.0
C336 C 0.47579 0.28723 0.865 0.0
C337 C 0.50557 0.32219 0.86368 0.0
C338 C 0.48112 0.263 0.86149 0.0
C339 C 0.55438 0.25291 0.85832 0.0
H340 H 0.47917 0.17058 0.82623 0.0
C341 C 0.58055 0.16458 0.81969 0.0
C342 C 0.5517 0.12921 0.81945 0.0
C343 C 0.5748 0.1872 0.82741 0.0
C344 C 0.5002 0.19318 0.83548 0.0
H345 H 0.5646 0.35898 0.8581 0.0
H346 H 0.57365 0.31675 0.85137 0.0
H347 H 0.46939 0.21184 0.835 0.0
H348 H 0.49449 0.08988 0.82779 0.0
H349 H 0.48451 0.12944 0.84132 0.0
H350 H 0.58553 0.23447 0.85834 0.0
C351 C 0.54622 0.30804 0.8554 0.0
C352 C 0.49459 0.21688 0.84052 0.0
C353 C 0.54091 0.33228 0.85899 0.0
C354 C 0.51729 0.11696 0.82771 0.0
C355 C 0.51148 0.13963 0.83533 0.0
C356 C 0.56005 0.22926 0.85318 0.0
C357 C 0.51634 0.27306 0.85649 0.0
C358 C 0.52172 0.24719 0.85188 0.0
C359 C 0.54002 0.17502 0.835 0.0
C360 C 0.53314 0.19924 0.84157 0.0
H361 H 0.44809 0.27846 0.86836 0.0
H362 H 0.45756 0.23632 0.86271 0.0
H363 H 0.57559 0.27566 0.86739 0.0
H364 H 0.60741 0.1749 0.81347 0.0
H365 H 0.59727 0.2143 0.82675 0.0
C366 C 0.50724 0.82969 0.52733 0.0
C367 C 0.53435 0.85459 0.51411 0.0
C368 C 0.50033 0.79849 0.52844 0.0
C369 C 0.54506 0.75915 0.51931 0.0
H370 H 0.44533 0.67463 0.52513 0.0
C371 C 0.51752 0.63121 0.52736 0.0
C372 C 0.4927 0.61044 0.54282 0.0
C373 C 0.52054 0.6592 0.52117 0.0
C374 C 0.47338 0.69804 0.52363 0.0
H375 H 0.57441 0.86557 0.4911 0.0
H376 H 0.56251 0.81124 0.49315 0.0
H377 H 0.45448 0.72708 0.51952 0.0
H378 H 0.45069 0.60218 0.56336 0.0
H379 H 0.45627 0.65097 0.55278 0.0
H380 H 0.56408 0.73038 0.52389 0.0
C381 C 0.54699 0.81607 0.50288 0.0
C382 C 0.47861 0.72809 0.52043 0.0
C383 C 0.55384 0.84723 0.50173 0.0
C384 C 0.47013 0.61762 0.55142 0.0
C385 C 0.47315 0.64554 0.54524 0.0
C386 C 0.53984 0.72913 0.52257 0.0
C387 C 0.5204 0.79145 0.51638 0.0
C388 C 0.51454 0.75908 0.51848 0.0
C389 C 0.49877 0.66699 0.53026 0.0
C390 C 0.50397 0.69828 0.52505 0.0
H391 H 0.49205 0.83465 0.53728 0.0
H392 H 0.48002 0.78027 0.53922 0.0
H393 H 0.57314 0.78265 0.51814 0.0
H394 H 0.5352 0.6263 0.52036 0.0
H395 H 0.54018 0.67492 0.50938 0.0
C396 C 0.66865 0.55017 0.85138 0.0
C397 C 0.63366 0.52198 0.85805 0.0
C398 C 0.69977 0.55136 0.85305 0.0
C399 C 0.72812 0.49705 0.86025 0.0
H400 H 0.82334 0.5835 0.87526 0.0
C401 C 0.86029 0.50958 0.87819 0.0
C402 C 0.89427 0.53819 0.87077 0.0
C403 C 0.82806 0.50684 0.877 0.0
C404 C 0.79709 0.55917 0.87084 0.0
H405 H 0.6042 0.47265 0.87158 0.0
H406 H 0.65841 0.4749 0.87469 0.0
H407 H 0.76849 0.58009 0.87231 0.0
H408 H 0.92061 0.58629 0.85621 0.0
H409 H 0.86483 0.58145 0.85406 0.0
H410 H 0.7569 0.47619 0.85884 0.0
C411 C 0.66178 0.49601 0.86793 0.0
C412 C 0.7655 0.55722 0.86911 0.0
C413 C 0.63062 0.49481 0.86625 0.0
C414 C 0.89509 0.56392 0.86217 0.0
C415 C 0.863 0.56124 0.86105 0.0
C416 C 0.75978 0.49901 0.86201 0.0
C417 C 0.69693 0.52442 0.86147 0.0
C418 C 0.73052 0.52619 0.86365 0.0
C419 C 0.82897 0.53271 0.86846 0.0
C420 C 0.79481 0.53017 0.8672 0.0
H421 H 0.67217 0.57153 0.84489 0.0
H422 H 0.72608 0.57341 0.84755 0.0
H423 H 0.70188 0.47277 0.85578 0.0
H424 H 0.85855 0.48925 0.88492 0.0
H425 H 0.80252 0.48463 0.88306 0.0
C426 C 0.13115 0.6557 0.15565 0.0
C427 C 0.12538 0.62846 0.14421 0.0
C428 C 0.16571 0.68807 0.15602 0.0
C429 C 0.26521 0.73215 0.14809 0.0
H430 H 0.27059 0.8122 0.15076 0.0
C431 C 0.39278 0.86246 0.18111 0.0
C432 C 0.40173 0.8924 0.17327 0.0
C433 C 0.36131 0.83052 0.17383 0.0
C434 C 0.26978 0.79023 0.14969 0.0
H435 H 0.15149 0.61419 0.12389 0.0
H436 H 0.2119 0.67091 0.12442 0.0
H437 H 0.21087 0.75624 0.14462 0.0
H438 H 0.38568 0.91219 0.1508 0.0
H439 H 0.33096 0.85634 0.13784 0.0
H440 H 0.3242 0.76622 0.15312 0.0
C441 C 0.18968 0.66702 0.13331 0.0
C442 C 0.23539 0.75804 0.14645 0.0
C443 C 0.155 0.63452 0.13295 0.0
C444 C 0.37942 0.88963 0.15727 0.0
C445 C 0.34793 0.85761 0.14994 0.0
C446 C 0.29967 0.76439 0.15127 0.0
C447 C 0.19546 0.69417 0.14491 0.0
C448 C 0.23254 0.72853 0.1461 0.0
C449 C 0.33803 0.82767 0.15845 0.0
C450 C 0.30227 0.79379 0.15256 0.0
H451 H 0.10908 0.65203 0.16458 0.0
H452 H 0.1693 0.70817 0.16543 0.0
H453 H 0.26405 0.70998 0.14799 0.0
H454 H 0.40936 0.86361 0.19342 0.0
H455 H 0.35439 0.80812 0.18095 0.0
C456 C 0.48778 0.20552 0.47471 0.0
C457 C 0.49785 0.19257 0.48943 0.0
C458 C 0.49467 0.23657 0.47852 0.0
C459 C 0.55069 0.31557 0.51212 0.0
H460 H 0.47675 0.32441 0.495 0.0
C461 C 0.57611 0.44312 0.52245 0.0
C462 C 0.54602 0.44165 0.5289 0.0
C463 C 0.57076 0.41339 0.5163 0.0
C464 C 0.49759 0.32233 0.50003 0.0
H465 H 0.52388 0.20275 0.51955 0.0
H466 H 0.53469 0.25611 0.52647 0.0
H467 H 0.46642 0.27134 0.48741 0.0
H468 H 0.48661 0.40779 0.53378 0.0
H469 H 0.47739 0.35595 0.5235 0.0
H470 H 0.58119 0.36603 0.52546 0.0
C471 C 0.52195 0.24256 0.51182 0.0
C472 C 0.4919 0.292 0.49542 0.0
C473 C 0.51524 0.21163 0.50797 0.0
C474 C 0.51038 0.40984 0.52881 0.0
C475 C 0.50506 0.38009 0.52279 0.0
C476 C 0.5563 0.34581 0.51683 0.0
C477 C 0.51169 0.25544 0.49717 0.0
C478 C 0.51828 0.28814 0.5015 0.0
C479 C 0.53522 0.38143 0.51658 0.0
C480 C 0.52974 0.34956 0.51094 0.0
H481 H 0.474 0.19142 0.46035 0.0
H482 H 0.48679 0.24585 0.46677 0.0
H483 H 0.57188 0.31374 0.51681 0.0
H484 H 0.6039 0.46724 0.52222 0.0
H485 H 0.59453 0.41551 0.51128 0.0
C486 C 0.41286 0.49695 0.87155 0.0
C487 C 0.44148 0.51595 0.85734 0.0
C488 C 0.38312 0.49794 0.8721 0.0
C489 C 0.32945 0.51308 0.84044 0.0
H490 H 0.30047 0.52991 0.8924 0.0
C491 C 0.19272 0.49524 0.85028 0.0
C492 C 0.19642 0.52263 0.86009 0.0
C493 C 0.22254 0.49436 0.85006 0.0
C494 C 0.30825 0.5252 0.87778 0.0
H495 H 0.46084 0.55055 0.83236 0.0
H496 H 0.40843 0.55154 0.833 0.0
H497 H 0.35259 0.5284 0.89165 0.0
H498 H 0.23431 0.57024 0.87773 0.0
H499 H 0.28598 0.56814 0.87786 0.0
H500 H 0.28473 0.50932 0.82661 0.0
C501 C 0.40924 0.53612 0.84383 0.0
C502 C 0.33795 0.52414 0.87736 0.0
C503 C 0.43936 0.53566 0.84354 0.0
C504 C 0.23049 0.54878 0.87002 0.0
C505 C 0.26006 0.54753 0.87016 0.0
C506 C 0.29928 0.51345 0.84091 0.0
C507 C 0.38086 0.51743 0.8582 0.0
C508 C 0.34903 0.51823 0.85867 0.0
C509 C 0.25658 0.52048 0.86 0.0
C510 C 0.28841 0.51968 0.85957 0.0
H511 H 0.41365 0.48161 0.88246 0.0
H512 H 0.3616 0.4831 0.88327 0.0
H513 H 0.33717 0.50829 0.82582 0.0
H514 H 0.16696 0.47474 0.84242 0.0
H515 H 0.21888 0.47306 0.84222 0.0
C516 C 0.88406 0.42198 0.15524 0.0
C517 C 0.91483 0.42655 0.14661 0.0
C518 C 0.85045 0.38929 0.15735 0.0
C519 C 0.79885 0.29853 0.13963 0.0
H520 H 0.74232 0.28105 0.18886 0.0
C521 C 0.67874 0.16296 0.16575 0.0
C522 C 0.64651 0.15747 0.17267 0.0
C523 C 0.71057 0.19575 0.16145 0.0
C524 C 0.75761 0.28562 0.17493 0.0
H525 H 0.93437 0.40031 0.13331 0.0
H526 H 0.8762 0.34333 0.13748 0.0
H527 H 0.79955 0.33819 0.18356 0.0
H528 H 0.62233 0.1821 0.18033 0.0
H529 H 0.67804 0.23937 0.17301 0.0
H530 H 0.75717 0.24553 0.13138 0.0
C531 C 0.87762 0.36497 0.14221 0.0
C532 C 0.7904 0.31843 0.17183 0.0
C533 C 0.91112 0.39769 0.13991 0.0
C534 C 0.6467 0.18545 0.17502 0.0
C535 C 0.67865 0.21828 0.17094 0.0
C536 C 0.76624 0.26562 0.14285 0.0
C537 C 0.84687 0.36029 0.15107 0.0
C538 C 0.81152 0.32537 0.15414 0.0
C539 C 0.71097 0.2238 0.1642 0.0
C540 C 0.74528 0.25882 0.16054 0.0
H541 H 0.88584 0.44368 0.16035 0.0
H542 H 0.82723 0.38682 0.16384 0.0
H543 H 0.81394 0.30295 0.12564 0.0
H544 H 0.6795 0.14194 0.16378 0.0
H545 H 0.73517 0.19927 0.15644 0.0
C546 C 1.00172 0.50837 0.07963 0.0
C547 C 0.00698 0.53673 0.08895 0.0
C548 C 1.00354 0.50571 0.05824 0.0
C549 C 0.99726 0.53741 0.00932 0.0
H550 H 0.05438 0.51033 0.988 0.0
C551 C 0.07086 0.54132 0.92951 0.0
C552 C 0.04167 0.52672 0.91489 0.0
C553 C 0.06454 0.54162 0.95051 0.0
C554 C 0.03838 0.51799 0.99371 0.0
H555 H 0.01783 0.58435 0.08331 0.0
H556 H 0.02104 0.57975 0.04586 0.0
H557 H 0.04728 0.51262 0.02509 0.0
H558 H 0.98259 0.50015 0.91113 0.0
H559 H 0.97169 0.5015 0.94795 0.0
H560 H 0.98893 0.54326 0.97782 0.0
C561 C 0.01525 0.55945 0.05506 0.0
C562 C 0.03402 0.51899 0.01495 0.0
C563 C 0.01366 0.56221 0.07649 0.0
C564 C 0.00593 0.51261 0.92184 0.0
C565 C 0.99962 0.5131 0.94296 0.0
C566 C 1.00141 0.53616 0.988 0.0
C567 C 0.01043 0.53126 0.0457 0.0
C568 C 0.0137 0.529 0.02303 0.0
C569 C 0.02884 0.52731 0.95752 0.0
C570 C 0.02241 0.52683 0.98 0.0
H571 H 0.99636 0.48827 0.08888 0.0
H572 H 0.99933 0.48352 0.05148 0.0
H573 H 0.98115 0.54492 0.01508 0.0
H574 H 0.09879 0.55256 0.92472 0.0
H575 H 0.08775 0.55321 0.9613 0.0
C576 C 0.57246 0.05212 0.42509 0.0
C577 C 0.53946 0.03258 0.43615 0.0
C578 C 0.5715 0.05625 0.40401 0.0
C579 C 0.51106 0.04625 0.36155 0.0
H580 H 0.57693 0.04149 0.32727 0.0
C581 C 0.49255 0.02271 0.27307 0.0
C582 C 0.52469 0.0416 0.26115 0.0
C583 C 0.49529 0.02475 0.29458 0.0
C584 C 0.55872 0.04333 0.33665 0.0
H585 H 0.47965 0.00268 0.43413 0.0
H586 H 0.47774 0.0091 0.39714 0.0
H587 H 0.57961 0.03889 0.3645 0.0
H588 H 0.58491 0.07797 0.26255 0.0
H589 H 0.58964 0.08134 0.30016 0.0
H590 H 0.48954 0.04974 0.33347 0.0
C591 C 0.50448 0.02175 0.40475 0.0
C592 C 0.56026 0.0419 0.35802 0.0
C593 C 0.5055 0.01786 0.42591 0.0
C594 C 0.55962 0.06304 0.27126 0.0
C595 C 0.56235 0.06486 0.29279 0.0
C596 C 0.50934 0.04743 0.34013 0.0
C597 C 0.53747 0.04068 0.39349 0.0
C598 C 0.53638 0.04323 0.37076 0.0
C599 C 0.53022 0.04551 0.30467 0.0
C600 C 0.53306 0.04585 0.32745 0.0
H601 H 0.59907 0.06406 0.43269 0.0
H602 H 0.59751 0.0716 0.39595 0.0
H603 H 0.49266 0.04788 0.37089 0.0
H604 H 0.46519 0.006 0.2658 0.0
H605 H 0.47006 0.0093 0.30331 0.0
C606 C 0.55958 0.52229 0.78977 0.0
C607 C 0.52406 0.50185 0.79826 0.0
C608 C 0.56356 0.52568 0.76839 0.0
C609 C 0.50935 0.48236 0.71949 0.0
H610 H 0.58855 0.56724 0.69504 0.0
C611 C 0.50689 0.50881 0.63434 0.0
C612 C 0.53941 0.52291 0.62315 0.0
C613 C 0.50695 0.50596 0.65564 0.0
C614 C 0.56653 0.5433 0.7017 0.0
H615 H 0.46503 0.47038 0.79139 0.0
H616 H 0.47182 0.47717 0.75438 0.0
H617 H 0.58508 0.56395 0.73258 0.0
H618 H 0.59756 0.54519 0.62559 0.0
H619 H 0.59772 0.54066 0.66305 0.0
H620 H 0.49018 0.46209 0.68862 0.0
C621 C 0.49667 0.48962 0.76395 0.0
C622 C 0.56456 0.54135 0.72319 0.0
C623 C 0.49274 0.48594 0.78519 0.0
C624 C 0.57203 0.53408 0.63377 0.0
C625 C 0.57221 0.5317 0.65519 0.0
C626 C 0.51109 0.48444 0.69809 0.0
C627 C 0.53205 0.50894 0.75518 0.0
C628 C 0.53562 0.51095 0.73236 0.0
C629 C 0.53963 0.51756 0.6663 0.0
C630 C 0.53943 0.515 0.68898 0.0
H631 H 0.58419 0.53483 0.79957 0.0
H632 H 0.59123 0.54063 0.76219 0.0
H633 H 0.48728 0.45824 0.72593 0.0
H634 H 0.4813 0.49994 0.62663 0.0
H635 H 0.48152 0.49521 0.66386 0.0
C636 C 0.46704 0.99579 0.56151 0.0
C637 C 0.49915 0.01698 0.5499 0.0
C638 C 0.46991 0.99178 0.58242 0.0
C639 C 0.53129 0.03665 0.6271 0.0
H640 H 0.47393 0.94823 0.65138 0.0
C641 C 0.54799 0.02552 0.7133 0.0
C642 C 0.5159 0.00076 0.724 0.0
C643 C 0.54723 0.02552 0.69179 0.0
C644 C 0.4898 0.97316 0.64493 0.0
H645 H 0.55934 0.05023 0.55079 0.0
H646 H 0.56438 0.04383 0.58751 0.0
H647 H 0.46946 0.95184 0.61425 0.0
H648 H 0.45796 0.95623 0.72055 0.0
H649 H 0.45612 0.95695 0.6831 0.0
H650 H 0.55051 0.05827 0.6576 0.0
C651 C 0.53705 0.03023 0.58041 0.0
C652 C 0.48734 0.97515 0.62364 0.0
C653 C 0.53416 0.0338 0.55944 0.0
C654 C 0.48321 0.97553 0.71272 0.0
C655 C 0.48225 0.97588 0.6912 0.0
C656 C 0.53331 0.03472 0.64838 0.0
C657 C 0.50496 0.00932 0.59212 0.0
C658 C 0.50808 0.00693 0.61456 0.0
C659 C 0.51415 0.00115 0.68044 0.0
C660 C 0.51261 0.00295 0.65763 0.0
H661 H 0.43972 0.98244 0.55446 0.0
H662 H 0.44477 0.97568 0.59115 0.0
H663 H 0.54717 0.0615 0.62049 0.0
H664 H 0.57373 0.04507 0.72156 0.0
H665 H 0.57262 0.04485 0.6841 0.0
C666 C 0.51037 0.49806 0.9187 0.0
C667 C 0.54629 0.52644 0.91348 0.0
C668 C 0.50368 0.48436 0.93805 0.0
C669 C 0.50408 0.44795 0.97404 0.0
H670 H 0.53772 0.50416 0.02448 0.0
C671 C 0.4836 0.39262 0.05385 0.0
C672 C 0.46922 0.40188 0.06901 0.0
C673 C 0.49639 0.40954 0.03536 0.0
C674 C 0.52818 0.4882 0.0105 0.0
H675 H 0.60323 0.5635 0.92455 0.0
H676 H 0.59135 0.53968 0.95881 0.0
H677 H 0.5538 0.53084 0.99105 0.0
H678 H 0.45518 0.43496 0.07615 0.0
H679 H 0.47848 0.46518 0.04414 0.0
H680 H 0.47801 0.40529 0.99333 0.0
C681 C 0.5685 0.52798 0.94776 0.0
C682 C 0.53763 0.50347 0.99142 0.0
C683 C 0.5753 0.54154 0.92821 0.0
C684 C 0.4677 0.4283 0.06525 0.0
C685 C 0.48073 0.4454 0.0468 0.0
C686 C 0.49497 0.43275 0.99306 0.0
C687 C 0.53268 0.49896 0.95273 0.0
C688 C 0.52518 0.4834 0.97301 0.0
C689 C 0.49498 0.43604 0.03161 0.0
C690 C 0.50655 0.45264 0.0115 0.0
H691 H 0.48737 0.48611 0.90772 0.0
H692 H 0.47569 0.46234 0.94157 0.0
H693 H 0.4944 0.4319 0.96009 0.0
H694 H 0.48504 0.37229 0.0563 0.0
H695 H 0.5074 0.40188 0.02398 0.0
C696 C 0.02941 0.49258 0.21229 0.0
C697 C 0.03559 0.51837 0.20039 0.0
C698 C 0.0297 0.49523 0.23379 0.0
C699 C 0.01542 0.53478 0.2766 0.0
H700 H 0.06848 0.51341 0.30895 0.0
C701 C 0.99227 0.50807 0.36349 0.0
C702 C 0.02401 0.52304 0.37618 0.0
C703 C 0.99528 0.51019 0.34207 0.0
C704 C 0.05378 0.5197 0.30013 0.0
H705 H 0.04738 0.56736 0.20155 0.0
H706 H 0.04706 0.57168 0.23924 0.0
H707 H 0.07109 0.51212 0.27135 0.0
H708 H 0.08389 0.55225 0.37629 0.0
H709 H 0.089 0.55556 0.33883 0.0
H710 H 0.9977 0.5419 0.30541 0.0
C711 C 0.04191 0.54939 0.2319 0.0
C712 C 0.05501 0.51868 0.27862 0.0
C713 C 0.04206 0.54691 0.21036 0.0
C714 C 0.05888 0.54043 0.36697 0.0
C715 C 0.06182 0.54221 0.34552 0.0
C716 C 0.01383 0.53541 0.29812 0.0
C717 C 0.03585 0.52361 0.24381 0.0
C718 C 0.03568 0.52603 0.26664 0.0
C719 C 0.03003 0.52701 0.33286 0.0
C720 C 0.03286 0.52772 0.31009 0.0
H721 H 0.02432 0.47028 0.205 0.0
H722 H 0.02456 0.47482 0.24258 0.0
H723 H 1.00008 0.54036 0.26774 0.0
H724 H 0.965 0.49455 0.37007 0.0
H725 H 0.97027 0.49796 0.33268 0.0
loop_
_geom_bond_atom_site_label_1
_geom_bond_atom_site_label_2
_geom_bond_distance
_geom_bond_site_symmetry_2
_ccdc_geom_bond_type
Ho0 C3 2.811 . S
Ho0 O20 2.322 . S
Ho0 O22 2.378 . S
Ho0 O23 2.524 . S
Ho0 O24 2.381 . S
Ho0 O25 2.669 . S
Ho0 O27 2.346 1_455 S
Ho0 O31 2.305 . S
Ho1 C12 2.811 . S
Ho1 O21 2.346 1_655 S
Ho1 O25 2.305 1_655 S
Ho1 O26 2.322 . S
Ho1 O28 2.378 . S
Ho1 O29 2.524 . S
Ho1 O30 2.381 1_655 S
Ho1 O31 2.669 1_655 S
C2 O20 1.259 . S
C2 O21 1.268 . S
C3 Ho0 2.811 . S
C3 C4 1.488 . S
C3 O22 1.215 . S
C3 O23 1.289 . S
C4 C3 1.488 . S
C4 C5 1.348 . S
C4 C9 1.413 . S
C5 C4 1.348 . S
C5 C6 1.442 . S
C5 H32 0.930 . S
C6 C5 1.442 . S
C6 C7 1.381 . S
C6 H33 0.931 . S
C7 C6 1.381 . S
C7 C8 1.321 . S
C8 C7 1.321 . S
C8 C9 1.403 . S
C8 H34 0.934 . S
C9 C4 1.413 . S
C9 C8 1.403 . S
C9 H35 0.930 . S
C10 O24 1.275 . S
C10 O25 1.256 . S
C11 O26 1.259 . S
C11 O27 1.268 . S
C12 Ho1 2.811 . S
C12 C13 1.488 . S
C12 O28 1.215 . S
C12 O29 1.289 . S
C13 C12 1.488 . S
C13 C14 1.348 . S
C13 C18 1.413 . S
C14 C13 1.348 . S
C14 C15 1.442 . S
C14 H36 0.930 . S
C15 C14 1.442 . S
C15 C16 1.381 . S
C15 H37 0.931 . S
C16 C15 1.381 . S
C16 C17 1.321 . S
C17 C16 1.321 . S
C17 C18 1.403 . S
C17 H38 0.934 . S
C18 C13 1.413 . S
C18 C17 1.403 . S
C18 H39 0.930 . S
C19 O30 1.275 . S
C19 O31 1.256 . S
O20 Ho0 2.322 . S
O20 C2 1.259 . S
O21 Ho1 2.346 1_455 S
O21 C2 1.268 . S
O22 Ho0 2.378 . S
O22 C3 1.215 . S
O23 Ho0 2.524 . S
O23 C3 1.289 . S
O24 Ho0 2.381 . S
O24 C10 1.275 . S
O25 Ho0 2.669 . S
O25 Ho1 2.305 1_455 S
O25 C10 1.256 . S
O26 Ho1 2.322 . S
O26 C11 1.259 . S
O27 Ho0 2.346 1_655 S
O27 C11 1.268 . S
O28 Ho1 2.378 . S
O28 C12 1.215 . S
O29 Ho1 2.524 . S
O29 C12 1.289 . S
O30 Ho1 2.381 1_455 S
O30 C19 1.275 . S
O31 Ho0 2.305 . S
O31 Ho1 2.669 1_455 S
O31 C19 1.256 . S
H32 C5 0.930 . S
H33 C6 0.931 . S
H34 C8 0.934 . S
H35 C9 0.930 . S
H36 C14 0.930 . S
H37 C15 0.931 . S
H38 C17 0.934 . S
H39 C18 0.930 . S
Ho40 C43 2.811 . S
Ho40 O60 2.322 . S
Ho40 O62 2.378 . S
Ho40 O63 2.524 . S
Ho40 O64 2.381 . S
Ho40 O65 2.669 1_565 S
Ho40 O67 2.346 1_565 S
Ho40 O71 2.305 1_565 S
Ho41 C52 2.811 . S
Ho41 O61 2.346 1_545 S
Ho41 O65 2.305 . S
Ho41 O66 2.322 . S
Ho41 O68 2.378 . S
Ho41 O69 2.524 . S
Ho41 O70 2.381 . S
Ho41 O71 2.669 . S
C42 O60 1.259 . S
C42 O61 1.268 . S
C43 Ho40 2.811 . S
C43 C44 1.488 . S
C43 O62 1.215 . S
C43 O63 1.289 . S
C44 C43 1.488 . S
C44 C45 1.348 . S
C44 C49 1.413 . S
C45 C44 1.348 . S
C45 C46 1.442 . S
C45 H72 0.930 . S
C46 C45 1.442 . S
C46 C47 1.381 . S
C46 H73 0.931 . S
C47 C46 1.381 . S
C47 C48 1.321 . S
C48 C47 1.321 . S
C48 C49 1.403 . S
C48 H74 0.934 . S
C49 C44 1.413 . S
C49 C48 1.403 . S
C49 H75 0.930 . S
C50 O64 1.275 1_545 S
C50 O65 1.256 . S
C51 O66 1.259 . S
C51 O67 1.268 . S
C52 Ho41 2.811 . S
C52 C53 1.488 . S
C52 O68 1.215 . S
C52 O69 1.289 . S
C53 C52 1.488 . S
C53 C54 1.348 . S
C53 C58 1.413 . S
C54 C53 1.348 . S
C54 C55 1.442 . S
C54 H76 0.930 . S
C55 C54 1.442 . S
C55 C56 1.381 . S
C55 H77 0.931 . S
C56 C55 1.381 . S
C56 C57 1.321 . S
C57 C56 1.321 . S
C57 C58 1.403 . S
C57 H78 0.934 . S
C58 C53 1.413 . S
C58 C57 1.403 . S
C58 H79 0.930 . S
C59 O70 1.275 . S
C59 O71 1.256 . S
O60 Ho40 2.322 . S
O60 C42 1.259 . S
O61 Ho41 2.346 1_565 S
O61 C42 1.268 . S
O62 Ho40 2.378 . S
O62 C43 1.215 . S
O63 Ho40 2.524 . S
O63 C43 1.289 . S
O64 Ho40 2.381 . S
O64 C50 1.275 1_565 S
O65 Ho40 2.669 1_545 S
O65 Ho41 2.305 . S
O65 C50 1.256 . S
O66 Ho41 2.322 . S
O66 C51 1.259 . S
O67 Ho40 2.346 1_545 S
O67 C51 1.268 . S
O68 Ho41 2.378 . S
O68 C52 1.215 . S
O69 Ho41 2.524 . S
O69 C52 1.289 . S
O70 Ho41 2.381 . S
O70 C59 1.275 . S
O71 Ho40 2.305 1_545 S
O71 Ho41 2.669 . S
O71 C59 1.256 . S
H72 C45 0.930 . S
H73 C46 0.931 . S
H74 C48 0.934 . S
H75 C49 0.930 . S
H76 C54 0.930 . S
H77 C55 0.931 . S
H78 C57 0.934 . S
H79 C58 0.930 . S
Ho80 C83 2.811 . S
Ho80 O100 2.322 . S
Ho80 O102 2.378 . S
Ho80 O103 2.524 . S
Ho80 O104 2.381 . S
Ho80 O105 2.669 . S
Ho80 O107 2.346 . S
Ho80 O111 2.305 . S
Ho81 C92 2.811 . S
Ho81 O101 2.346 . S
Ho81 O105 2.305 . S
Ho81 O106 2.322 . S
Ho81 O108 2.378 . S
Ho81 O109 2.524 . S
Ho81 O110 2.381 . S
Ho81 O111 2.669 . S
C82 O100 1.259 . S
C82 O101 1.268 . S
C83 Ho80 2.811 . S
C83 C84 1.488 . S
C83 O102 1.215 . S
C83 O103 1.289 . S
C84 C83 1.488 . S
C84 C85 1.348 . S
C84 C89 1.413 . S
C85 C84 1.348 . S
C85 C86 1.442 . S
C85 H112 0.930 . S
C86 C85 1.442 . S
C86 C87 1.381 . S
C86 H113 0.931 . S
C87 C86 1.381 . S
C87 C88 1.321 . S
C88 C87 1.321 . S
C88 C89 1.403 . S
C88 H114 0.934 . S
C89 C84 1.413 . S
C89 C88 1.403 . S
C89 H115 0.930 . S
C90 O104 1.275 . S
C90 O105 1.256 . S
C91 O106 1.259 . S
C91 O107 1.268 . S
C92 Ho81 2.811 . S
C92 C93 1.488 . S
C92 O108 1.215 . S
C92 O109 1.289 . S
C93 C92 1.488 . S
C93 C94 1.348 . S
C93 C98 1.413 . S
C94 C93 1.348 . S
C94 C95 1.442 . S
C94 H116 0.930 . S
C95 C94 1.442 . S
C95 C96 1.381 . S
C95 H117 0.931 . S
C96 C95 1.381 . S
C96 C97 1.321 . S
C97 C96 1.321 . S
C97 C98 1.403 . S
C97 H118 0.934 . S
C98 C93 1.413 . S
C98 C97 1.403 . S
C98 H119 0.930 . S
C99 O110 1.275 . S
C99 O111 1.256 . S
O100 Ho80 2.322 . S
O100 C82 1.259 . S
O101 Ho81 2.346 . S
O101 C82 1.268 . S
O102 Ho80 2.378 . S
O102 C83 1.215 . S
O103 Ho80 2.524 . S
O103 C83 1.289 . S
O104 Ho80 2.381 . S
O104 C90 1.275 . S
O105 Ho80 2.669 . S
O105 Ho81 2.305 . S
O105 C90 1.256 . S
O106 Ho81 2.322 . S
O106 C91 1.259 . S
O107 Ho80 2.346 . S
O107 C91 1.268 . S
O108 Ho81 2.378 . S
O108 C92 1.215 . S
O109 Ho81 2.524 . S
O109 C92 1.289 . S
O110 Ho81 2.381 . S
O110 C99 1.275 . S
O111 Ho80 2.305 . S
O111 Ho81 2.669 . S
O111 C99 1.256 . S
H112 C85 0.930 . S
H113 C86 0.931 . S
H114 C88 0.934 . S
H115 C89 0.930 . S
H116 C94 0.930 . S
H117 C95 0.931 . S
H118 C97 0.934 . S
H119 C98 0.930 . S
O120 Cd121 2.300 . S
O120 C127 1.275 . S
Cd121 O120 2.300 . S
Cd121 O129 2.381 . S
Cd121 O130 2.378 . S
O122 Cd123 2.403 . S
O122 C127 1.238 1_565 S
Cd123 O122 2.403 . S
Cd123 O124 2.317 . S
O124 Cd123 2.317 . S
O124 C125 1.232 . S
C125 O124 1.232 . S
C125 O126 1.218 . S
O126 C125 1.218 . S
C127 O120 1.275 . S
C127 O122 1.238 1_545 S
C128 O129 1.258 . S
C128 O130 1.256 . S
O129 Cd121 2.381 . S
O129 C128 1.258 . S
O130 Cd121 2.378 . S
O130 C128 1.256 . S
O131 Cd132 2.300 . S
O131 C138 1.275 . S
Cd132 O131 2.300 . S
Cd132 O140 2.381 . S
Cd132 O141 2.378 . S
O133 Cd134 2.385 . S
O133 C138 1.255 . S
Cd134 O133 2.385 . S
Cd134 O135 2.317 . S
O135 Cd134 2.317 . S
O135 C136 1.232 . S
C136 O135 1.232 . S
C136 O137 1.218 . S
O137 C136 1.218 . S
C138 O131 1.275 . S
C138 O133 1.255 . S
C139 O140 1.258 . S
C139 O141 1.256 . S
O140 Cd132 2.381 . S
O140 C139 1.258 . S
O141 Cd132 2.378 . S
O141 C139 1.256 . S
O142 Cd143 2.300 . S
O142 C149 1.275 . S
Cd143 O142 2.300 . S
Cd143 O151 2.381 . S
Cd143 O152 2.378 . S
O144 Cd145 2.385 1_455 S
O144 C149 1.255 . S
Cd145 O144 2.385 1_655 S
Cd145 O146 2.317 . S
O146 Cd145 2.317 . S
O146 C147 1.232 . S
C147 O146 1.232 . S
C147 O148 1.218 . S
O148 C147 1.218 . S
C149 O142 1.275 . S
C149 O144 1.255 . S
C150 O151 1.258 . S
C150 O152 1.256 . S
O151 Cd143 2.381 . S
O151 C150 1.258 . S
O152 Cd143 2.378 . S
O152 C150 1.256 . S
O153 Cd154 2.300 . S
O153 C160 1.275 1_455 S
Cd154 O153 2.300 . S
Cd154 O162 2.381 . S
Cd154 O163 2.378 . S
O155 Cd156 2.385 . S
O155 C160 1.255 . S
Cd156 O155 2.385 . S
Cd156 O157 2.317 . S
O157 Cd156 2.317 . S
O157 C158 1.232 . S
C158 O157 1.232 . S
C158 O159 1.218 . S
O159 C158 1.218 . S
C160 O153 1.275 1_655 S
C160 O155 1.255 . S
C161 O162 1.258 . S
C161 O163 1.256 . S
O162 Cd154 2.381 . S
O162 C161 1.258 . S
O163 Cd154 2.378 . S
O163 C161 1.256 . S
O164 Cd165 2.300 . S
O164 C171 1.275 1_565 S
Cd165 O164 2.300 . S
Cd165 O173 2.381 . S
Cd165 O174 2.378 . S
O166 Cd167 2.385 . S
O166 C171 1.255 . S
Cd167 O166 2.385 . S
Cd167 O168 2.317 . S
O168 Cd167 2.317 . S
O168 C169 1.232 . S
C169 O168 1.232 . S
C169 O170 1.218 . S
O170 C169 1.218 . S
C171 O164 1.275 1_545 S
C171 O166 1.255 . S
C172 O173 1.258 . S
C172 O174 1.256 . S
O173 Cd165 2.381 . S
O173 C172 1.258 . S
O174 Cd165 2.378 . S
O174 C172 1.256 . S
O175 Cd176 2.300 . S
O175 C182 1.275 . S
Cd176 O175 2.300 . S
Cd176 O184 2.381 . S
Cd176 O185 2.378 . S
O177 Cd178 2.385 . S
O177 C182 1.255 . S
Cd178 O177 2.385 . S
Cd178 O179 2.317 . S
O179 Cd178 2.317 . S
O179 C180 1.232 . S
C180 O179 1.232 . S
C180 O181 1.218 . S
O181 C180 1.218 . S
C182 O175 1.275 . S
C182 O177 1.255 . S
C183 O184 1.258 . S
C183 O185 1.256 . S
O184 Cd176 2.381 . S
O184 C183 1.258 . S
O185 Cd176 2.378 . S
O185 C183 1.256 . S
C186 C187 1.349 . S
C186 C188 1.327 . S
C186 H211 0.950 . S
C187 C186 1.349 . S
C187 C203 1.349 . S
C188 C186 1.327 . S
C188 C207 1.429 . S
C188 H212 0.950 . S
C189 C206 1.574 . S
C189 C208 1.368 . S
C189 H213 0.949 . S
H190 C194 0.949 . S
C191 C192 1.349 . S
C191 C193 1.327 . S
C191 H214 0.950 . S
C192 C191 1.349 . S
C192 C204 1.349 . S
C193 C191 1.327 . S
C193 C209 1.429 . S
C193 H215 0.950 . S
C194 H190 0.949 . S
C194 C202 1.574 . S
C194 C210 1.368 . S
H195 C203 0.950 . S
H196 C201 0.950 . S
H197 C202 0.949 . S
H198 C204 0.950 . S
H199 C205 0.950 . S
H200 C206 0.949 . S
C201 H196 0.950 . S
C201 C203 1.327 . S
C201 C207 1.429 . S
C202 C194 1.574 . S
C202 H197 0.949 . S
C202 C208 1.368 . S
C203 C187 1.349 . S
C203 H195 0.950 . S
C203 C201 1.327 . S
C204 C192 1.349 . S
C204 H198 0.950 . S
C204 C205 1.327 . S
C205 H199 0.950 . S
C205 C204 1.327 . S
C205 C209 1.429 . S
C206 C189 1.574 . S
C206 H200 0.949 . S
C206 C210 1.368 . S
C207 C188 1.429 . S
C207 C201 1.429 . S
C207 C208 1.523 . S
C208 C189 1.368 . S
C208 C202 1.368 . S
C208 C207 1.523 . S
C209 C193 1.429 . S
C209 C205 1.429 . S
C209 C210 1.523 . S
C210 C194 1.368 . S
C210 C206 1.368 . S
C210 C209 1.523 . S
H211 C186 0.950 . S
H212 C188 0.950 . S
H213 C189 0.949 . S
H214 C191 0.950 . S
H215 C193 0.950 . S
C216 C217 1.349 . S
C216 C218 1.327 . S
C216 H241 0.950 . S
C217 C216 1.349 . S
C217 C233 1.349 . S
C218 C216 1.327 . S
C218 C237 1.429 . S
C218 H242 0.950 . S
C219 C236 1.574 . S
C219 C238 1.368 . S
C219 H243 0.949 . S
H220 C224 0.949 . S
C221 C222 1.349 . S
C221 C223 1.327 . S
C221 H244 0.950 . S
C222 C221 1.349 . S
C222 C234 1.349 . S
C223 C221 1.327 . S
C223 C239 1.429 . S
C223 H245 0.950 . S
C224 H220 0.949 . S
C224 C232 1.574 . S
C224 C240 1.368 . S
H225 C233 0.950 . S
H226 C231 0.950 . S
H227 C232 0.949 . S
H228 C234 0.950 . S
H229 C235 0.950 . S
H230 C236 0.949 . S
C231 H226 0.950 . S
C231 C233 1.327 . S
C231 C237 1.429 . S
C232 C224 1.574 . S
C232 H227 0.949 . S
C232 C238 1.368 . S
C233 C217 1.349 . S
C233 H225 0.950 . S
C233 C231 1.327 . S
C234 C222 1.349 . S
C234 H228 0.950 . S
C234 C235 1.327 . S
C235 H229 0.950 . S
C235 C234 1.327 . S
C235 C239 1.429 . S
C236 C219 1.574 . S
C236 H230 0.949 . S
C236 C240 1.368 . S
C237 C218 1.429 . S
C237 C231 1.429 . S
C237 C238 1.523 . S
C238 C219 1.368 . S
C238 C232 1.368 . S
C238 C237 1.523 . S
C239 C223 1.429 . S
C239 C235 1.429 . S
C239 C240 1.523 . S
C240 C224 1.368 . S
C240 C236 1.368 . S
C240 C239 1.523 . S
H241 C216 0.950 . S
H242 C218 0.950 . S
H243 C219 0.949 . S
H244 C221 0.950 . S
H245 C223 0.950 . S
C246 C247 1.349 . S
C246 C248 1.327 . S
C246 H271 0.950 . S
C247 C246 1.349 . S
C247 C263 1.349 . S
C248 C246 1.327 . S
C248 C267 1.429 . S
C248 H272 0.950 . S
C249 C266 1.574 . S
C249 C268 1.368 . S
C249 H273 0.949 . S
H250 C254 0.949 . S
C251 C252 1.349 . S
C251 C253 1.327 . S
C251 H274 0.950 . S
C252 C251 1.349 . S
C252 C264 1.349 . S
C253 C251 1.327 . S
C253 C269 1.429 . S
C253 H275 0.950 . S
C254 H250 0.949 . S
C254 C262 1.574 . S
C254 C270 1.368 . S
H255 C263 0.950 . S
H256 C261 0.950 . S
H257 C262 0.949 . S
H258 C264 0.950 . S
H259 C265 0.950 . S
H260 C266 0.949 . S
C261 H256 0.950 . S
C261 C263 1.327 . S
C261 C267 1.429 . S
C262 C254 1.574 . S
C262 H257 0.949 . S
C262 C268 1.368 . S
C263 C247 1.349 . S
C263 H255 0.950 . S
C263 C261 1.327 . S
C264 C252 1.349 . S
C264 H258 0.950 . S
C264 C265 1.327 . S
C265 H259 0.950 . S
C265 C264 1.327 . S
C265 C269 1.429 . S
C266 C249 1.574 . S
C266 H260 0.949 . S
C266 C270 1.368 . S
C267 C248 1.429 . S
C267 C261 1.429 . S
C267 C268 1.523 . S
C268 C249 1.368 . S
C268 C262 1.368 . S
C268 C267 1.523 . S
C269 C253 1.429 . S
C269 C265 1.429 . S
C269 C270 1.523 . S
C270 C254 1.368 . S
C270 C266 1.368 . S
C270 C269 1.523 . S
H271 C246 0.950 . S
H272 C248 0.950 . S
H273 C249 0.949 . S
H274 C251 0.950 . S
H275 C253 0.950 . S
C276 C277 1.349 . S
C276 C278 1.327 . S
C276 H301 0.950 . S
C277 C276 1.349 . S
C277 C293 1.349 . S
C278 C276 1.327 . S
C278 C297 1.429 . S
C278 H302 0.950 . S
C279 C296 1.574 . S
C279 C298 1.368 . S
C279 H303 0.949 . S
H280 C284 0.949 . S
C281 C282 1.349 . S
C281 C283 1.327 . S
C281 H304 0.950 . S
C282 C281 1.349 . S
C282 C294 1.349 . S
C283 C281 1.327 . S
C283 C299 1.429 . S
C283 H305 0.950 . S
C284 H280 0.949 . S
C284 C292 1.574 . S
C284 C300 1.368 . S
H285 C293 0.950 . S
H286 C291 0.950 . S
H287 C292 0.949 . S
H288 C294 0.950 . S
H289 C295 0.950 . S
H290 C296 0.949 . S
C291 H286 0.950 . S
C291 C293 1.327 . S
C291 C297 1.429 . S
C292 C284 1.574 . S
C292 H287 0.949 . S
C292 C298 1.368 . S
C293 C277 1.349 . S
C293 H285 0.950 . S
C293 C291 1.327 . S
C294 C282 1.349 . S
C294 H288 0.950 . S
C294 C295 1.327 . S
C295 H289 0.950 . S
C295 C294 1.327 . S
C295 C299 1.429 . S
C296 C279 1.574 . S
C296 H290 0.949 . S
C296 C300 1.368 . S
C297 C278 1.429 . S
C297 C291 1.429 . S
C297 C298 1.523 . S
C298 C279 1.368 . S
C298 C292 1.368 . S
C298 C297 1.523 . S
C299 C283 1.429 . S
C299 C295 1.429 . S
C299 C300 1.523 . S
C300 C284 1.368 . S
C300 C296 1.368 . S
C300 C299 1.523 . S
H301 C276 0.950 . S
H302 C278 0.950 . S
H303 C279 0.949 . S
H304 C281 0.950 . S
H305 C283 0.950 . S
C306 C307 1.349 . S
C306 C308 1.327 . S
C306 H331 0.950 . S
C307 C306 1.349 . S
C307 C323 1.349 . S
C308 C306 1.327 . S
C308 C327 1.429 . S
C308 H332 0.950 . S
C309 C326 1.574 . S
C309 C328 1.368 . S
C309 H333 0.949 . S
H310 C314 0.949 . S
C311 C312 1.349 . S
C311 C313 1.327 . S
C311 H334 0.950 . S
C312 C311 1.349 . S
C312 C324 1.349 . S
C313 C311 1.327 . S
C313 C329 1.429 . S
C313 H335 0.950 . S
C314 H310 0.949 . S
C314 C322 1.574 . S
C314 C330 1.368 . S
H315 C323 0.950 . S
H316 C321 0.950 . S
H317 C322 0.949 . S
H318 C324 0.950 . S
H319 C325 0.950 . S
H320 C326 0.949 . S
C321 H316 0.950 . S
C321 C323 1.327 . S
C321 C327 1.429 . S
C322 C314 1.574 . S
C322 H317 0.949 . S
C322 C328 1.368 . S
C323 C307 1.349 . S
C323 H315 0.950 . S
C323 C321 1.327 . S
C324 C312 1.349 . S
C324 H318 0.950 . S
C324 C325 1.327 . S
C325 H319 0.950 . S
C325 C324 1.327 . S
C325 C329 1.429 . S
C326 C309 1.574 . S
C326 H320 0.949 . S
C326 C330 1.368 . S
C327 C308 1.429 . S
C327 C321 1.429 . S
C327 C328 1.523 . S
C328 C309 1.368 . S
C328 C322 1.368 . S
C328 C327 1.523 . S
C329 C313 1.429 . S
C329 C325 1.429 . S
C329 C330 1.523 . S
C330 C314 1.368 . S
C330 C326 1.368 . S
C330 C329 1.523 . S
H331 C306 0.950 . S
H332 C308 0.950 . S
H333 C309 0.949 . S
H334 C311 0.950 . S
H335 C313 0.950 . S
C336 C337 1.349 . S
C336 C338 1.327 . S
C336 H361 0.950 . S
C337 C336 1.349 . S
C337 C353 1.349 . S
C338 C336 1.327 . S
C338 C357 1.429 . S
C338 H362 0.950 . S
C339 C356 1.574 . S
C339 C358 1.368 . S
C339 H363 0.949 . S
H340 C344 0.949 . S
C341 C342 1.349 . S
C341 C343 1.327 . S
C341 H364 0.950 . S
C342 C341 1.349 . S
C342 C354 1.349 . S
C343 C341 1.327 . S
C343 C359 1.429 . S
C343 H365 0.950 . S
C344 H340 0.949 . S
C344 C352 1.574 . S
C344 C360 1.368 . S
H345 C353 0.950 . S
H346 C351 0.950 . S
H347 C352 0.949 . S
H348 C354 0.950 . S
H349 C355 0.950 . S
H350 C356 0.949 . S
C351 H346 0.950 . S
C351 C353 1.327 . S
C351 C357 1.429 . S
C352 C344 1.574 . S
C352 H347 0.949 . S
C352 C358 1.368 . S
C353 C337 1.349 . S
C353 H345 0.950 . S
C353 C351 1.327 . S
C354 C342 1.349 . S
C354 H348 0.950 . S
C354 C355 1.327 . S
C355 H349 0.950 . S
C355 C354 1.327 . S
C355 C359 1.429 . S
C356 C339 1.574 . S
C356 H350 0.949 . S
C356 C360 1.368 . S
C357 C338 1.429 . S
C357 C351 1.429 . S
C357 C358 1.523 . S
C358 C339 1.368 . S
C358 C352 1.368 . S
C358 C357 1.523 . S
C359 C343 1.429 . S
C359 C355 1.429 . S
C359 C360 1.523 . S
C360 C344 1.368 . S
C360 C356 1.368 . S
C360 C359 1.523 . S
H361 C336 0.950 . S
H362 C338 0.950 . S
H363 C339 0.949 . S
H364 C341 0.950 . S
H365 C343 0.950 . S
C366 C367 1.349 . S
C366 C368 1.327 . S
C366 H391 0.950 . S
C367 C366 1.349 . S
C367 C383 1.349 . S
C368 C366 1.327 . S
C368 C387 1.429 . S
C368 H392 0.950 . S
C369 C386 1.574 . S
C369 C388 1.368 . S
C369 H393 0.949 . S
H370 C374 0.949 . S
C371 C372 1.349 . S
C371 C373 1.327 . S
C371 H394 0.950 . S
C372 C371 1.349 . S
C372 C384 1.349 . S
C373 C371 1.327 . S
C373 C389 1.429 . S
C373 H395 0.950 . S
C374 H370 0.949 . S
C374 C382 1.574 . S
C374 C390 1.368 . S
H375 C383 0.950 . S
H376 C381 0.950 . S
H377 C382 0.949 . S
H378 C384 0.950 . S
H379 C385 0.950 . S
H380 C386 0.949 . S
C381 H376 0.950 . S
C381 C383 1.327 . S
C381 C387 1.429 . S
C382 C374 1.574 . S
C382 H377 0.949 . S
C382 C388 1.368 . S
C383 C367 1.349 . S
C383 H375 0.950 . S
C383 C381 1.327 . S
C384 C372 1.349 . S
C384 H378 0.950 . S
C384 C385 1.327 . S
C385 H379 0.950 . S
C385 C384 1.327 . S
C385 C389 1.429 . S
C386 C369 1.574 . S
C386 H380 0.949 . S
C386 C390 1.368 . S
C387 C368 1.429 . S
C387 C381 1.429 . S
C387 C388 1.523 . S
C388 C369 1.368 . S
C388 C382 1.368 . S
C388 C387 1.523 . S
C389 C373 1.429 . S
C389 C385 1.429 . S
C389 C390 1.523 . S
C390 C374 1.368 . S
C390 C386 1.368 . S
C390 C389 1.523 . S
H391 C366 0.950 . S
H392 C368 0.950 . S
H393 C369 0.949 . S
H394 C371 0.950 . S
H395 C373 0.950 . S
C396 C397 1.349 . S
C396 C398 1.327 . S
C396 H421 0.950 . S
C397 C396 1.349 . S
C397 C413 1.349 . S
C398 C396 1.327 . S
C398 C417 1.429 . S
C398 H422 0.950 . S
C399 C416 1.574 . S
C399 C418 1.368 . S
C399 H423 0.949 . S
H400 C404 0.949 . S
C401 C402 1.349 . S
C401 C403 1.327 . S
C401 H424 0.950 . S
C402 C401 1.349 . S
C402 C414 1.349 . S
C403 C401 1.327 . S
C403 C419 1.429 . S
C403 H425 0.950 . S
C404 H400 0.949 . S
C404 C412 1.574 . S
C404 C420 1.368 . S
H405 C413 0.950 . S
H406 C411 0.950 . S
H407 C412 0.949 . S
H408 C414 0.950 . S
H409 C415 0.950 . S
H410 C416 0.949 . S
C411 H406 0.950 . S
C411 C413 1.327 . S
C411 C417 1.429 . S
C412 C404 1.574 . S
C412 H407 0.949 . S
C412 C418 1.368 . S
C413 C397 1.349 . S
C413 H405 0.950 . S
C413 C411 1.327 . S
C414 C402 1.349 . S
C414 H408 0.950 . S
C414 C415 1.327 . S
C415 H409 0.950 . S
C415 C414 1.327 . S
C415 C419 1.429 . S
C416 C399 1.574 . S
C416 H410 0.949 . S
C416 C420 1.368 . S
C417 C398 1.429 . S
C417 C411 1.429 . S
C417 C418 1.523 . S
C418 C399 1.368 . S
C418 C412 1.368 . S
C418 C417 1.523 . S
C419 C403 1.429 . S
C419 C415 1.429 . S
C419 C420 1.523 . S
C420 C404 1.368 . S
C420 C416 1.368 . S
C420 C419 1.523 . S
H421 C396 0.950 . S
H422 C398 0.950 . S
H423 C399 0.949 . S
H424 C401 0.950 . S
H425 C403 0.950 . S
C426 C427 1.349 . S
C426 C428 1.327 . S
C426 H451 0.950 . S
C427 C426 1.349 . S
C427 C443 1.349 . S
C428 C426 1.327 . S
C428 C447 1.429 . S
C428 H452 0.950 . S
C429 C446 1.574 . S
C429 C448 1.368 . S
C429 H453 0.949 . S
H430 C434 0.949 . S
C431 C432 1.349 . S
C431 C433 1.327 . S
C431 H454 0.950 . S
C432 C431 1.349 . S
C432 C444 1.349 . S
C433 C431 1.327 . S
C433 C449 1.429 . S
C433 H455 0.950 . S
C434 H430 0.949 . S
C434 C442 1.574 . S
C434 C450 1.368 . S
H435 C443 0.950 . S
H436 C441 0.950 . S
H437 C442 0.949 . S
H438 C444 0.950 . S
H439 C445 0.950 . S
H440 C446 0.949 . S
C441 H436 0.950 . S
C441 C443 1.327 . S
C441 C447 1.429 . S
C442 C434 1.574 . S
C442 H437 0.949 . S
C442 C448 1.368 . S
C443 C427 1.349 . S
C443 H435 0.950 . S
C443 C441 1.327 . S
C444 C432 1.349 . S
C444 H438 0.950 . S
C444 C445 1.327 . S
C445 H439 0.950 . S
C445 C444 1.327 . S
C445 C449 1.429 . S
C446 C429 1.574 . S
C446 H440 0.949 . S
C446 C450 1.368 . S
C447 C428 1.429 . S
C447 C441 1.429 . S
C447 C448 1.523 . S
C448 C429 1.368 . S
C448 C442 1.368 . S
C448 C447 1.523 . S
C449 C433 1.429 . S
C449 C445 1.429 . S
C449 C450 1.523 . S
C450 C434 1.368 . S
C450 C446 1.368 . S
C450 C449 1.523 . S
H451 C426 0.950 . S
H452 C428 0.950 . S
H453 C429 0.949 . S
H454 C431 0.950 . S
H455 C433 0.950 . S
C456 C457 1.349 . S
C456 C458 1.327 . S
C456 H481 0.950 . S
C457 C456 1.349 . S
C457 C473 1.349 . S
C458 C456 1.327 . S
C458 C477 1.429 . S
C458 H482 0.950 . S
C459 C476 1.574 . S
C459 C478 1.368 . S
C459 H483 0.949 . S
H460 C464 0.949 . S
C461 C462 1.349 . S
C461 C463 1.327 . S
C461 H484 0.950 . S
C462 C461 1.349 . S
C462 C474 1.349 . S
C463 C461 1.327 . S
C463 C479 1.429 . S
C463 H485 0.950 . S
C464 H460 0.949 . S
C464 C472 1.574 . S
C464 C480 1.368 . S
H465 C473 0.950 . S
H466 C471 0.950 . S
H467 C472 0.949 . S
H468 C474 0.950 . S
H469 C475 0.950 . S
H470 C476 0.949 . S
C471 H466 0.950 . S
C471 C473 1.327 . S
C471 C477 1.429 . S
C472 C464 1.574 . S
C472 H467 0.949 . S
C472 C478 1.368 . S
C473 C457 1.349 . S
C473 H465 0.950 . S
C473 C471 1.327 . S
C474 C462 1.349 . S
C474 H468 0.950 . S
C474 C475 1.327 . S
C475 H469 0.950 . S
C475 C474 1.327 . S
C475 C479 1.429 . S
C476 C459 1.574 . S
C476 H470 0.949 . S
C476 C480 1.368 . S
C477 C458 1.429 . S
C477 C471 1.429 . S
C477 C478 1.523 . S
C478 C459 1.368 . S
C478 C472 1.368 . S
C478 C477 1.523 . S
C479 C463 1.429 . S
C479 C475 1.429 . S
C479 C480 1.523 . S
C480 C464 1.368 . S
C480 C476 1.368 . S
C480 C479 1.523 . S
H481 C456 0.950 . S
H482 C458 0.950 . S
H483 C459 0.949 . S
H484 C461 0.950 . S
H485 C463 0.950 . S
C486 C487 1.349 . S
C486 C488 1.327 . S
C486 H511 0.950 . S
C487 C486 1.349 . S
C487 C503 1.349 . S
C488 C486 1.327 . S
C488 C507 1.429 . S
C488 H512 0.950 . S
C489 C506 1.574 . S
C489 C508 1.368 . S
C489 H513 0.949 . S
H490 C494 0.949 . S
C491 C492 1.349 . S
C491 C493 1.327 . S
C491 H514 0.950 . S
C492 C491 1.349 . S
C492 C504 1.349 . S
C493 C491 1.327 . S
C493 C509 1.429 . S
C493 H515 0.950 . S
C494 H490 0.949 . S
C494 C502 1.574 . S
C494 C510 1.368 . S
H495 C503 0.950 . S
H496 C501 0.950 . S
H497 C502 0.949 . S
H498 C504 0.950 . S
H499 C505 0.950 . S
H500 C506 0.949 . S
C501 H496 0.950 . S
C501 C503 1.327 . S
C501 C507 1.429 . S
C502 C494 1.574 . S
C502 H497 0.949 . S
C502 C508 1.368 . S
C503 C487 1.349 . S
C503 H495 0.950 . S
C503 C501 1.327 . S
C504 C492 1.349 . S
C504 H498 0.950 . S
C504 C505 1.327 . S
C505 H499 0.950 . S
C505 C504 1.327 . S
C505 C509 1.429 . S
C506 C489 1.574 . S
C506 H500 0.949 . S
C506 C510 1.368 . S
C507 C488 1.429 . S
C507 C501 1.429 . S
C507 C508 1.523 . S
C508 C489 1.368 . S
C508 C502 1.368 . S
C508 C507 1.523 . S
C509 C493 1.429 . S
C509 C505 1.429 . S
C509 C510 1.523 . S
C510 C494 1.368 . S
C510 C506 1.368 . S
C510 C509 1.523 . S
H511 C486 0.950 . S
H512 C488 0.950 . S
H513 C489 0.949 . S
H514 C491 0.950 . S
H515 C493 0.950 . S
C516 C517 1.349 . S
C516 C518 1.327 . S
C516 H541 0.950 . S
C517 C516 1.349 . S
C517 C533 1.349 . S
C518 C516 1.327 . S
C518 C537 1.429 . S
C518 H542 0.950 . S
C519 C536 1.574 . S
C519 C538 1.368 . S
C519 H543 0.949 . S
H520 C524 0.949 . S
C521 C522 1.349 . S
C521 C523 1.327 . S
C521 H544 0.950 . S
C522 C521 1.349 . S
C522 C534 1.349 . S
C523 C521 1.327 . S
C523 C539 1.429 . S
C523 H545 0.950 . S
C524 H520 0.949 . S
C524 C532 1.574 . S
C524 C540 1.368 . S
H525 C533 0.950 . S
H526 C531 0.950 . S
H527 C532 0.949 . S
H528 C534 0.950 . S
H529 C535 0.950 . S
H530 C536 0.949 . S
C531 H526 0.950 . S
C531 C533 1.327 . S
C531 C537 1.429 . S
C532 C524 1.574 . S
C532 H527 0.949 . S
C532 C538 1.368 . S
C533 C517 1.349 . S
C533 H525 0.950 . S
C533 C531 1.327 . S
C534 C522 1.349 . S
C534 H528 0.950 . S
C534 C535 1.327 . S
C535 H529 0.950 . S
C535 C534 1.327 . S
C535 C539 1.429 . S
C536 C519 1.574 . S
C536 H530 0.949 . S
C536 C540 1.368 . S
C537 C518 1.429 . S
C537 C531 1.429 . S
C537 C538 1.523 . S
C538 C519 1.368 . S
C538 C532 1.368 . S
C538 C537 1.523 . S
C539 C523 1.429 . S
C539 C535 1.429 . S
C539 C540 1.523 . S
C540 C524 1.368 . S
C540 C536 1.368 . S
C540 C539 1.523 . S
H541 C516 0.950 . S
H542 C518 0.950 . S
H543 C519 0.949 . S
H544 C521 0.950 . S
H545 C523 0.950 . S
C546 C547 1.349 1_655 S
C546 C548 1.327 . S
C546 H571 0.950 . S
C547 C546 1.349 1_455 S
C547 C563 1.349 . S
C548 C546 1.327 . S
C548 C567 1.429 1_655 S
C548 H572 0.950 . S
C549 C566 1.574 . S
C549 C568 1.368 . S
C549 H573 0.949 . S
H550 C554 0.949 1_556 S
C551 C552 1.349 . S
C551 C553 1.327 . S
C551 H574 0.950 . S
C552 C551 1.349 . S
C552 C564 1.349 . S
C553 C551 1.327 . S
C553 C569 1.429 . S
C553 H575 0.950 . S
C554 H550 0.949 1_554 S
C554 C562 1.574 . S
C554 C570 1.377 1_655 S
H555 C563 0.950 . S
H556 C561 0.950 . S
H557 C562 0.949 . S
H558 C564 0.950 1_655 S
H559 C565 0.950 1_655 S
H560 C566 0.949 . S
C561 H556 0.950 . S
C561 C563 1.327 . S
C561 C567 1.429 . S
C562 C554 1.574 . S
C562 H557 0.949 . S
C562 C568 1.368 1_655 S
C563 C547 1.349 . S
C563 H555 0.950 . S
C563 C561 1.327 . S
C564 C552 1.349 . S
C564 H558 0.950 1_455 S
C564 C565 1.327 . S
C565 H559 0.950 1_455 S
C565 C564 1.327 . S
C565 C569 1.429 . S
C566 C549 1.574 . S
C566 H560 0.949 . S
C566 C570 1.378 . S
C567 C548 1.429 1_455 S
C567 C561 1.429 . S
C567 C568 1.523 . S
C568 C549 1.368 . S
C568 C562 1.368 1_455 S
C568 C567 1.523 . S
C569 C553 1.429 . S
C569 C565 1.429 . S
C569 C570 1.499 1_556 S
C570 C554 1.377 1_455 S
C570 C566 1.378 . S
C570 C569 1.499 1_554 S
H571 C546 0.950 . S
H572 C548 0.950 . S
H573 C549 0.949 . S
H574 C551 0.950 . S
H575 C553 0.950 . S
C576 C577 1.349 . S
C576 C578 1.327 . S
C576 H601 0.950 . S
C577 C576 1.349 . S
C577 C593 1.349 1_545 S
C578 C576 1.327 . S
C578 C597 1.429 . S
C578 H602 0.950 . S
C579 C596 1.574 . S
C579 C598 1.368 1_565 S
C579 H603 0.949 . S
H580 C584 0.949 . S
C581 C582 1.349 1_565 S
C581 C583 1.327 . S
C581 H604 0.950 . S
C582 C581 1.349 1_545 S
C582 C594 1.349 . S
C583 C581 1.327 . S
C583 C599 1.429 1_565 S
C583 H605 0.950 . S
C584 H580 0.949 . S
C584 C592 1.574 . S
C584 C600 1.368 . S
H585 C593 0.950 . S
H586 C591 0.950 . S
H587 C592 0.949 . S
H588 C594 0.950 . S
H589 C595 0.950 . S
H590 C596 0.949 . S
C591 H586 0.950 . S
C591 C593 1.327 . S
C591 C597 1.429 1_565 S
C592 C584 1.574 . S
C592 H587 0.949 . S
C592 C598 1.368 . S
C593 C577 1.349 1_565 S
C593 H585 0.950 . S
C593 C591 1.327 . S
C594 C582 1.349 . S
C594 H588 0.950 . S
C594 C595 1.327 . S
C595 H589 0.950 . S
C595 C594 1.327 . S
C595 C599 1.429 . S
C596 C579 1.574 . S
C596 H590 0.949 . S
C596 C600 1.368 1_565 S
C597 C578 1.429 . S
C597 C591 1.429 1_545 S
C597 C598 1.523 . S
C598 C579 1.368 1_545 S
C598 C592 1.368 . S
C598 C597 1.523 . S
C599 C583 1.429 1_545 S
C599 C595 1.429 . S
C599 C600 1.523 . S
C600 C584 1.368 . S
C600 C596 1.368 1_545 S
C600 C599 1.523 . S
H601 C576 0.950 . S
H602 C578 0.950 . S
H603 C579 0.949 . S
H604 C581 0.950 . S
H605 C583 0.950 . S
C606 C607 1.349 . S
C606 C608 1.327 . S
C606 H631 0.950 . S
C607 C606 1.349 . S
C607 C623 1.349 . S
C608 C606 1.327 . S
C608 C627 1.429 . S
C608 H632 0.950 . S
C609 C626 1.574 . S
C609 C628 1.368 . S
C609 H633 0.949 . S
H610 C614 0.949 . S
C611 C612 1.349 . S
C611 C613 1.327 . S
C611 H634 0.950 . S
C612 C611 1.349 . S
C612 C624 1.349 . S
C613 C611 1.327 . S
C613 C629 1.429 . S
C613 H635 0.950 . S
C614 H610 0.949 . S
C614 C622 1.574 . S
C614 C630 1.368 . S
H615 C623 0.950 . S
H616 C621 0.950 . S
H617 C622 0.949 . S
H618 C624 0.950 . S
H619 C625 0.950 . S
H620 C626 0.949 . S
C621 H616 0.950 . S
C621 C623 1.327 . S
C621 C627 1.429 . S
C622 C614 1.574 . S
C622 H617 0.949 . S
C622 C628 1.368 . S
C623 C607 1.349 . S
C623 H615 0.950 . S
C623 C621 1.327 . S
C624 C612 1.349 . S
C624 H618 0.950 . S
C624 C625 1.327 . S
C625 H619 0.950 . S
C625 C624 1.327 . S
C625 C629 1.429 . S
C626 C609 1.574 . S
C626 H620 0.949 . S
C626 C630 1.368 . S
C627 C608 1.429 . S
C627 C621 1.429 . S
C627 C628 1.523 . S
C628 C609 1.368 . S
C628 C622 1.368 . S
C628 C627 1.523 . S
C629 C613 1.429 . S
C629 C625 1.429 . S
C629 C630 1.523 . S
C630 C614 1.368 . S
C630 C626 1.368 . S
C630 C629 1.523 . S
H631 C606 0.950 . S
H632 C608 0.950 . S
H633 C609 0.949 . S
H634 C611 0.950 . S
H635 C613 0.950 . S
C636 C637 1.349 1_565 S
C636 C638 1.327 . S
C636 H661 0.950 . S
C637 C636 1.349 1_545 S
C637 C653 1.349 . S
C638 C636 1.327 . S
C638 C657 1.429 1_565 S
C638 H662 0.950 . S
C639 C656 1.574 . S
C639 C658 1.368 . S
C639 H663 0.949 . S
H640 C644 0.949 . S
C641 C642 1.349 . S
C641 C643 1.327 . S
C641 H664 0.950 . S
C642 C641 1.349 . S
C642 C654 1.349 1_545 S
C643 C641 1.327 . S
C643 C659 1.429 . S
C643 H665 0.950 . S
C644 H640 0.949 . S
C644 C652 1.574 . S
C644 C660 1.368 1_565 S
H645 C653 0.950 . S
H646 C651 0.950 . S
H647 C652 0.949 . S
H648 C654 0.950 . S
H649 C655 0.950 . S
H650 C656 0.949 . S
C651 H646 0.950 . S
C651 C653 1.327 . S
C651 C657 1.429 . S
C652 C644 1.574 . S
C652 H647 0.949 . S
C652 C658 1.368 1_565 S
C653 C637 1.349 . S
C653 H645 0.950 . S
C653 C651 1.327 . S
C654 C642 1.349 1_565 S
C654 H648 0.950 . S
C654 C655 1.327 . S
C655 H649 0.950 . S
C655 C654 1.327 . S
C655 C659 1.429 1_565 S
C656 C639 1.574 . S
C656 H650 0.949 . S
C656 C660 1.368 . S
C657 C638 1.429 1_545 S
C657 C651 1.429 . S
C657 C658 1.523 . S
C658 C639 1.368 . S
C658 C652 1.368 1_545 S
C658 C657 1.523 . S
C659 C643 1.429 . S
C659 C655 1.429 1_545 S
C659 C660 1.523 . S
C660 C644 1.368 1_545 S
C660 C656 1.368 . S
C660 C659 1.523 . S
H661 C636 0.950 . S
H662 C638 0.950 . S
H663 C639 0.949 . S
H664 C641 0.950 . S
H665 C643 0.950 . S
C666 C667 1.349 . S
C666 C668 1.327 . S
C666 H691 0.950 . S
C667 C666 1.349 . S
C667 C683 1.349 . S
C668 C666 1.327 . S
C668 C687 1.429 . S
C668 H692 0.950 . S
C669 C686 1.574 . S
C669 C688 1.368 . S
C669 H693 0.949 . S
H670 C674 0.949 1_554 S
C671 C672 1.349 . S
C671 C673 1.327 . S
C671 H694 0.950 . S
C672 C671 1.349 . S
C672 C684 1.349 . S
C673 C671 1.327 . S
C673 C689 1.429 . S
C673 H695 0.950 . S
C674 H670 0.949 1_556 S
C674 C682 1.574 . S
C674 C690 1.368 1_556 S
H675 C683 0.950 . S
H676 C681 0.950 . S
H677 C682 0.949 . S
H678 C684 0.950 . S
H679 C685 0.950 . S
H680 C686 0.949 . S
C681 H676 0.950 . S
C681 C683 1.327 . S
C681 C687 1.429 . S
C682 C674 1.574 . S
C682 H677 0.949 . S
C682 C688 1.368 . S
C683 C667 1.349 . S
C683 H675 0.950 . S
C683 C681 1.327 . S
C684 C672 1.349 . S
C684 H678 0.950 . S
C684 C685 1.327 . S
C685 H679 0.950 . S
C685 C684 1.327 . S
C685 C689 1.429 . S
C686 C669 1.574 . S
C686 H680 0.949 . S
C686 C690 1.368 1_556 S
C687 C668 1.429 . S
C687 C681 1.429 . S
C687 C688 1.523 . S
C688 C669 1.368 . S
C688 C682 1.368 . S
C688 C687 1.523 . S
C689 C673 1.429 . S
C689 C685 1.429 . S
C689 C690 1.523 . S
C690 C674 1.368 1_554 S
C690 C686 1.368 1_554 S
C690 C689 1.523 . S
H691 C666 0.950 . S
H692 C668 0.950 . S
H693 C669 0.949 . S
H694 C671 0.950 . S
H695 C673 0.950 . S
C696 C697 1.349 . S
C696 C698 1.327 . S
C696 H721 0.950 . S
C697 C696 1.349 . S
C697 C713 1.349 . S
C698 C696 1.327 . S
C698 C717 1.429 . S
C698 H722 0.950 . S
C699 C716 1.574 . S
C699 C718 1.368 . S
C699 H723 0.949 . S
H700 C704 0.949 . S
C701 C702 1.349 . S
C701 C703 1.327 . S
C701 H724 0.950 . S
C702 C701 1.349 . S
C702 C714 1.349 . S
C703 C701 1.327 . S
C703 C719 1.429 . S
C703 H725 0.950 . S
C704 H700 0.949 . S
C704 C712 1.574 . S
C704 C720 1.368 . S
H705 C713 0.950 . S
H706 C711 0.950 . S
H707 C712 0.949 . S
H708 C714 0.950 . S
H709 C715 0.950 . S
H710 C716 0.967 . S
C711 H706 0.950 . S
C711 C713 1.327 . S
C711 C717 1.429 . S
C712 C704 1.574 . S
C712 H707 0.949 . S
C712 C718 1.368 . S
C713 C697 1.349 . S
C713 H705 0.950 . S
C713 C711 1.327 . S
C714 C702 1.349 . S
C714 H708 0.950 . S
C714 C715 1.327 . S
C715 H709 0.950 . S
C715 C714 1.327 . S
C715 C719 1.429 . S
C716 C699 1.574 . S
C716 H710 0.967 . S
C716 C720 1.368 . S
C717 C698 1.429 . S
C717 C711 1.429 . S
C717 C718 1.523 . S
C718 C699 1.368 . S
C718 C712 1.368 . S
C718 C717 1.523 . S
C719 C703 1.429 . S
C719 C715 1.429 . S
C719 C720 1.523 1_655 S
C720 C704 1.368 . S
C720 C716 1.368 . S
C720 C719 1.523 1_455 S
H721 C696 0.950 . S
H722 C698 0.950 . S
H723 C699 0.949 . S
H724 C701 0.950 . S
H725 C703 0.950 . S
C187 C7 0.582 . S
C192 C180 0.718 . S
C217 C51 2.064 . S
C222 C158 1.787 . S
C247 C87 0.982 . S
C252 C172 0.967 . S
C277 C16 0.264 . S
C282 C183 0.258 . S
C312 C161 1.758 . S
C307 C42 1.799 . S
C342 C169 1.213 . S
C337 C96 1.422 . S
C367 C47 1.364 . S
C372 C136 1.162 . S
C397 C91 3.297 . S
C402 C147 2.947 . S
C427 C2 2.147 . S
C432 C125 1.841 . S
C462 C139 1.022 . S
C457 C56 1.033 . S
C492 C150 2.755 . S
C487 C82 2.806 . S
C517 C11 1.721 . S
C522 C128 1.684 . S
C552 C149 1.637 . S
C547 C19 1.651 . S
C577 C50 1.420 . S
C582 C127 1.403 . S
C607 C99 1.510 . S
C612 C138 1.480 . S
C642 C171 1.451 . S
C637 C59 1.471 . S
C672 C182 1.227 . S
C667 C90 1.264 . S
C697 C10 1.434 . S
C702 C160 1.403 . S
