# Generated by pormake.
# Topology iac, (4,6)-cn, num edge types: 1
# Building blocks:
#     Node 0, Type 0, BuildingBlock: CEKHIL_clean_sbu_0, # of connection points: 4
#     Node 1, Type 0, BuildingBlock: CEKHIL_clean_sbu_0, # of connection points: 4
#     Node 2, Type 0, BuildingBlock: CEKHIL_clean_sbu_0, # of connection points: 4
#     Node 3, Type 0, BuildingBlock: CEKHIL_clean_sbu_0, # of connection points: 4
#     Node 4, Type 0, BuildingBlock: CEKHIL_clean_sbu_0, # of connection points: 4
#     Node 5, Type 0, BuildingBlock: CEKHIL_clean_sbu_0, # of connection points: 4
#     Node 6, Type 0, BuildingBlock: CEKHIL_clean_sbu_0, # of connection points: 4
#     Node 7, Type 0, BuildingBlock: CEKHIL_clean_sbu_0, # of connection points: 4
#     Node 8, Type 0, BuildingBlock: CEKHIL_clean_sbu_0, # of connection points: 4
#     Node 9, Type 0, BuildingBlock: CEKHIL_clean_sbu_0, # of connection points: 4
#     Node 10, Type 0, BuildingBlock: CEKHIL_clean_sbu_0, # of connection points: 4
#     Node 11, Type 0, BuildingBlock: CEKHIL_clean_sbu_0, # of connection points: 4
#     Node 12, Type 0, BuildingBlock: CEKHIL_clean_sbu_0, # of connection points: 4
#     Node 13, Type 0, BuildingBlock: CEKHIL_clean_sbu_0, # of connection points: 4
#     Node 14, Type 0, BuildingBlock: CEKHIL_clean_sbu_0, # of connection points: 4
#     Node 15, Type 0, BuildingBlock: CEKHIL_clean_sbu_0, # of connection points: 4
#     Node 16, Type 0, BuildingBlock: CEKHIL_clean_sbu_0, # of connection points: 4
#     Node 17, Type 0, BuildingBlock: CEKHIL_clean_sbu_0, # of connection points: 4
#     Node 18, Type 0, BuildingBlock: CEKHIL_clean_sbu_0, # of connection points: 4
#     Node 19, Type 0, BuildingBlock: CEKHIL_clean_sbu_0, # of connection points: 4
#     Node 20, Type 0, BuildingBlock: CEKHIL_clean_sbu_0, # of connection points: 4
#     Node 21, Type 0, BuildingBlock: CEKHIL_clean_sbu_0, # of connection points: 4
#     Node 22, Type 0, BuildingBlock: CEKHIL_clean_sbu_0, # of connection points: 4
#     Node 23, Type 0, BuildingBlock: CEKHIL_clean_sbu_0, # of connection points: 4
#     Node 24, Type 1, BuildingBlock: LEVNOQ01_clean_sbu_1, # of connection points: 6
#     Node 25, Type 1, BuildingBlock: LEVNOQ01_clean_sbu_1, # of connection points: 6
#     Node 26, Type 1, BuildingBlock: LEVNOQ01_clean_sbu_1, # of connection points: 6
#     Node 27, Type 1, BuildingBlock: LEVNOQ01_clean_sbu_1, # of connection points: 6
#     Node 28, Type 1, BuildingBlock: LEVNOQ01_clean_sbu_1, # of connection points: 6
#     Node 29, Type 1, BuildingBlock: LEVNOQ01_clean_sbu_1, # of connection points: 6
#     Node 30, Type 1, BuildingBlock: LEVNOQ01_clean_sbu_1, # of connection points: 6
#     Node 31, Type 1, BuildingBlock: LEVNOQ01_clean_sbu_1, # of connection points: 6
#     Node 32, Type 1, BuildingBlock: LEVNOQ01_clean_sbu_1, # of connection points: 6
#     Node 33, Type 1, BuildingBlock: LEVNOQ01_clean_sbu_1, # of connection points: 6
#     Node 34, Type 1, BuildingBlock: LEVNOQ01_clean_sbu_1, # of connection points: 6
#     Node 35, Type 1, BuildingBlock: LEVNOQ01_clean_sbu_1, # of connection points: 6
#     Node 36, Type 1, BuildingBlock: LEVNOQ01_clean_sbu_1, # of connection points: 6
#     Node 37, Type 1, BuildingBlock: LEVNOQ01_clean_sbu_1, # of connection points: 6
#     Node 38, Type 1, BuildingBlock: LEVNOQ01_clean_sbu_1, # of connection points: 6
#     Node 39, Type 1, BuildingBlock: LEVNOQ01_clean_sbu_1, # of connection points: 6
#     Edge 40, Type (0, 1), BuildingBlock: AJUNOK_clean_linker_0, # of connection points: 2
#     Edge 41, Type (0, 1), BuildingBlock: AJUNOK_clean_linker_0, # of connection points: 2
#     Edge 42, Type (0, 1), BuildingBlock: AJUNOK_clean_linker_0, # of connection points: 2
#     Edge 43, Type (0, 1), BuildingBlock: AJUNOK_clean_linker_0, # of connection points: 2
#     Edge 44, Type (0, 1), BuildingBlock: AJUNOK_clean_linker_0, # of connection points: 2
#     Edge 45, Type (0, 1), BuildingBlock: AJUNOK_clean_linker_0, # of connection points: 2
#     Edge 46, Type (0, 1), BuildingBlock: AJUNOK_clean_linker_0, # of connection points: 2
#     Edge 47, Type (0, 1), BuildingBlock: AJUNOK_clean_linker_0, # of connection points: 2
#     Edge 48, Type (0, 1), BuildingBlock: AJUNOK_clean_linker_0, # of connection points: 2
#     Edge 49, Type (0, 1), BuildingBlock: AJUNOK_clean_linker_0, # of connection points: 2
#     Edge 50, Type (0, 1), BuildingBlock: AJUNOK_clean_linker_0, # of connection points: 2
#     Edge 51, Type (0, 1), BuildingBlock: AJUNOK_clean_linker_0, # of connection points: 2
#     Edge 52, Type (0, 1), BuildingBlock: AJUNOK_clean_linker_0, # of connection points: 2
#     Edge 53, Type (0, 1), BuildingBlock: AJUNOK_clean_linker_0, # of connection points: 2
#     Edge 54, Type (0, 1), BuildingBlock: AJUNOK_clean_linker_0, # of connection points: 2
#     Edge 55, Type (0, 1), BuildingBlock: AJUNOK_clean_linker_0, # of connection points: 2
#     Edge 56, Type (0, 1), BuildingBlock: AJUNOK_clean_linker_0, # of connection points: 2
#     Edge 57, Type (0, 1), BuildingBlock: AJUNOK_clean_linker_0, # of connection points: 2
#     Edge 58, Type (0, 1), BuildingBlock: AJUNOK_clean_linker_0, # of connection points: 2
#     Edge 59, Type (0, 1), BuildingBlock: AJUNOK_clean_linker_0, # of connection points: 2
#     Edge 60, Type (0, 1), BuildingBlock: AJUNOK_clean_linker_0, # of connection points: 2
#     Edge 61, Type (0, 1), BuildingBlock: AJUNOK_clean_linker_0, # of connection points: 2
#     Edge 62, Type (0, 1), BuildingBlock: AJUNOK_clean_linker_0, # of connection points: 2
#     Edge 63, Type (0, 1), BuildingBlock: AJUNOK_clean_linker_0, # of connection points: 2
#     Edge 64, Type (0, 1), BuildingBlock: AJUNOK_clean_linker_0, # of connection points: 2
#     Edge 65, Type (0, 1), BuildingBlock: AJUNOK_clean_linker_0, # of connection points: 2
#     Edge 66, Type (0, 1), BuildingBlock: AJUNOK_clean_linker_0, # of connection points: 2
#     Edge 67, Type (0, 1), BuildingBlock: AJUNOK_clean_linker_0, # of connection points: 2
#     Edge 68, Type (0, 1), BuildingBlock: AJUNOK_clean_linker_0, # of connection points: 2
#     Edge 69, Type (0, 1), BuildingBlock: AJUNOK_clean_linker_0, # of connection points: 2
#     Edge 70, Type (0, 1), BuildingBlock: AJUNOK_clean_linker_0, # of connection points: 2
#     Edge 71, Type (0, 1), BuildingBlock: AJUNOK_clean_linker_0, # of connection points: 2
#     Edge 72, Type (0, 1), BuildingBlock: AJUNOK_clean_linker_0, # of connection points: 2
#     Edge 73, Type (0, 1), BuildingBlock: AJUNOK_clean_linker_0, # of connection points: 2
#     Edge 74, Type (0, 1), BuildingBlock: AJUNOK_clean_linker_0, # of connection points: 2
#     Edge 75, Type (0, 1), BuildingBlock: AJUNOK_clean_linker_0, # of connection points: 2
#     Edge 76, Type (0, 1), BuildingBlock: AJUNOK_clean_linker_0, # of connection points: 2
#     Edge 77, Type (0, 1), BuildingBlock: AJUNOK_clean_linker_0, # of connection points: 2
#     Edge 78, Type (0, 1), BuildingBlock: AJUNOK_clean_linker_0, # of connection points: 2
#     Edge 79, Type (0, 1), BuildingBlock: AJUNOK_clean_linker_0, # of connection points: 2
#     Edge 80, Type (0, 1), BuildingBlock: AJUNOK_clean_linker_0, # of connection points: 2
#     Edge 81, Type (0, 1), BuildingBlock: AJUNOK_clean_linker_0, # of connection points: 2
#     Edge 82, Type (0, 1), BuildingBlock: AJUNOK_clean_linker_0, # of connection points: 2
#     Edge 83, Type (0, 1), BuildingBlock: AJUNOK_clean_linker_0, # of connection points: 2
#     Edge 84, Type (0, 1), BuildingBlock: AJUNOK_clean_linker_0, # of connection points: 2
#     Edge 85, Type (0, 1), BuildingBlock: AJUNOK_clean_linker_0, # of connection points: 2
#     Edge 86, Type (0, 1), BuildingBlock: AJUNOK_clean_linker_0, # of connection points: 2
#     Edge 87, Type (0, 1), BuildingBlock: AJUNOK_clean_linker_0, # of connection points: 2
#     Edge 88, Type (0, 1), BuildingBlock: AJUNOK_clean_linker_0, # of connection points: 2
#     Edge 89, Type (0, 1), BuildingBlock: AJUNOK_clean_linker_0, # of connection points: 2
#     Edge 90, Type (0, 1), BuildingBlock: AJUNOK_clean_linker_0, # of connection points: 2
#     Edge 91, Type (0, 1), BuildingBlock: AJUNOK_clean_linker_0, # of connection points: 2
#     Edge 92, Type (0, 1), BuildingBlock: AJUNOK_clean_linker_0, # of connection points: 2
#     Edge 93, Type (0, 1), BuildingBlock: AJUNOK_clean_linker_0, # of connection points: 2
#     Edge 94, Type (0, 1), BuildingBlock: AJUNOK_clean_linker_0, # of connection points: 2
#     Edge 95, Type (0, 1), BuildingBlock: AJUNOK_clean_linker_0, # of connection points: 2
#     Edge 96, Type (0, 1), BuildingBlock: AJUNOK_clean_linker_0, # of connection points: 2
#     Edge 97, Type (0, 1), BuildingBlock: AJUNOK_clean_linker_0, # of connection points: 2
#     Edge 98, Type (0, 1), BuildingBlock: AJUNOK_clean_linker_0, # of connection points: 2
#     Edge 99, Type (0, 1), BuildingBlock: AJUNOK_clean_linker_0, # of connection points: 2
#     Edge 100, Type (0, 1), BuildingBlock: AJUNOK_clean_linker_0, # of connection points: 2
#     Edge 101, Type (0, 1), BuildingBlock: AJUNOK_clean_linker_0, # of connection points: 2
#     Edge 102, Type (0, 1), BuildingBlock: AJUNOK_clean_linker_0, # of connection points: 2
#     Edge 103, Type (0, 1), BuildingBlock: AJUNOK_clean_linker_0, # of connection points: 2
#     Edge 104, Type (0, 1), BuildingBlock: AJUNOK_clean_linker_0, # of connection points: 2
#     Edge 105, Type (0, 1), BuildingBlock: AJUNOK_clean_linker_0, # of connection points: 2
#     Edge 106, Type (0, 1), BuildingBlock: AJUNOK_clean_linker_0, # of connection points: 2
#     Edge 107, Type (0, 1), BuildingBlock: AJUNOK_clean_linker_0, # of connection points: 2
#     Edge 108, Type (0, 1), BuildingBlock: AJUNOK_clean_linker_0, # of connection points: 2
#     Edge 109, Type (0, 1), BuildingBlock: AJUNOK_clean_linker_0, # of connection points: 2
#     Edge 110, Type (0, 1), BuildingBlock: AJUNOK_clean_linker_0, # of connection points: 2
#     Edge 111, Type (0, 1), BuildingBlock: AJUNOK_clean_linker_0, # of connection points: 2
#     Edge 112, Type (0, 1), BuildingBlock: AJUNOK_clean_linker_0, # of connection points: 2
#     Edge 113, Type (0, 1), BuildingBlock: AJUNOK_clean_linker_0, # of connection points: 2
#     Edge 114, Type (0, 1), BuildingBlock: AJUNOK_clean_linker_0, # of connection points: 2
#     Edge 115, Type (0, 1), BuildingBlock: AJUNOK_clean_linker_0, # of connection points: 2
#     Edge 116, Type (0, 1), BuildingBlock: AJUNOK_clean_linker_0, # of connection points: 2
#     Edge 117, Type (0, 1), BuildingBlock: AJUNOK_clean_linker_0, # of connection points: 2
#     Edge 118, Type (0, 1), BuildingBlock: AJUNOK_clean_linker_0, # of connection points: 2
#     Edge 119, Type (0, 1), BuildingBlock: AJUNOK_clean_linker_0, # of connection points: 2
#     Edge 120, Type (0, 1), BuildingBlock: AJUNOK_clean_linker_0, # of connection points: 2
#     Edge 121, Type (0, 1), BuildingBlock: AJUNOK_clean_linker_0, # of connection points: 2
#     Edge 122, Type (0, 1), BuildingBlock: AJUNOK_clean_linker_0, # of connection points: 2
#     Edge 123, Type (0, 1), BuildingBlock: AJUNOK_clean_linker_0, # of connection points: 2
#     Edge 124, Type (0, 1), BuildingBlock: AJUNOK_clean_linker_0, # of connection points: 2
#     Edge 125, Type (0, 1), BuildingBlock: AJUNOK_clean_linker_0, # of connection points: 2
#     Edge 126, Type (0, 1), BuildingBlock: AJUNOK_clean_linker_0, # of connection points: 2
#     Edge 127, Type (0, 1), BuildingBlock: AJUNOK_clean_linker_0, # of connection points: 2
#     Edge 128, Type (0, 1), BuildingBlock: AJUNOK_clean_linker_0, # of connection points: 2
#     Edge 129, Type (0, 1), BuildingBlock: AJUNOK_clean_linker_0, # of connection points: 2
#     Edge 130, Type (0, 1), BuildingBlock: AJUNOK_clean_linker_0, # of connection points: 2
#     Edge 131, Type (0, 1), BuildingBlock: AJUNOK_clean_linker_0, # of connection points: 2
#     Edge 132, Type (0, 1), BuildingBlock: AJUNOK_clean_linker_0, # of connection points: 2
#     Edge 133, Type (0, 1), BuildingBlock: AJUNOK_clean_linker_0, # of connection points: 2
#     Edge 134, Type (0, 1), BuildingBlock: AJUNOK_clean_linker_0, # of connection points: 2
#     Edge 135, Type (0, 1), BuildingBlock: AJUNOK_clean_linker_0, # of connection points: 2
# Relax obj value: 0.091
# Max RMSD: 0.164
# Mean RMSD: 0.088
data_MOF--net-iac--node1-CEKHIL_clean_sbu_0--node2-LEVNOQ01_clean_sbu_1--edge1-AJUNOK_clean_linker_0
_symmetry_space_group_name_H-M    P1
_symmetry_Int_Tables_number       1
_symmetry_cell_setting            triclinic
loop_
_symmetry_equiv_pos_as_xyz
'x, y, z'
_cell_length_a     41.026375
_cell_length_b     40.41005
_cell_length_c     40.068127
_cell_angle_alpha  89.843597
_cell_angle_beta   89.993731
_cell_angle_gamma 90.099163
loop_
_atom_site_label
_atom_site_type_symbol
_atom_site_fract_x
_atom_site_fract_y
_atom_site_fract_z
_atom_type_partial_charge
Co0 Co 0.98749 0.25563 0.12108 0.0
O1 O 0.94113 0.25529 0.11452 0.0
O2 O 0.96639 0.24359 0.16209 0.0
C3 C 0.99444 0.30502 0.09655 0.0
O4 O 0.0344 0.25526 0.13814 0.0
Co5 Co 0.03441 0.25788 0.06048 0.0
O6 O 0.0677 0.26601 0.09501 0.0
C7 C 0.00587 0.19393 0.08135 0.0
C8 C 0.93925 0.24895 0.14618 0.0
C9 C 0.06285 0.26134 0.12608 0.0
O10 O 0.99117 0.20776 0.10617 0.0
O11 O 0.02223 0.21008 0.05954 0.0
O12 O 0.98596 0.30342 0.12764 0.0
O13 O -0.00363 0.27734 0.08072 0.0
Co14 Co 0.00528 0.75493 0.36205 0.0
O15 O 0.05143 0.75623 0.36793 0.0
O16 O 0.02725 0.73794 0.32236 0.0
C17 C -0.00439 0.80575 0.38101 0.0
O18 O 0.95807 0.75178 0.34744 0.0
Co19 Co 0.9597 0.75999 0.42407 0.0
O20 O 0.92473 0.76444 0.39038 0.0
C21 C -0.00432 0.69854 0.41167 0.0
C22 C 0.05433 0.744 0.33824 0.0
C23 C 0.92973 0.75816 0.35969 0.0
O24 O 0.00385 0.70945 0.38263 0.0
O25 O 0.98033 0.71604 0.43306 0.0
O26 O 0.00501 0.80185 0.35032 0.0
O27 O -0.00431 0.77972 0.39968 0.0
Co28 Co 0.48642 0.75444 0.62212 0.0
O29 O 0.43976 0.7534 0.61596 0.0
O30 O 0.46666 0.73978 0.6623 0.0
C31 C 0.49269 0.80431 0.59856 0.0
O32 O 0.53283 0.75354 0.63998 0.0
Co33 Co 0.53497 0.75729 0.56428 0.0
O34 O 0.56911 0.76095 0.59891 0.0
C35 C 0.50437 0.69345 0.58113 0.0
C36 C 0.43912 0.7434 0.64678 0.0
C37 C 0.56222 0.75666 0.62959 0.0
O38 O 0.49013 0.70721 0.60612 0.0
O39 O 0.52207 0.70954 0.56037 0.0
O40 O 0.48455 0.8019 0.62979 0.0
O41 O 0.49542 0.77694 0.58214 0.0
Co42 Co 0.50486 0.25342 0.86212 0.0
O43 O 0.55084 0.25547 0.86726 0.0
O44 O 0.52615 0.23611 0.82232 0.0
C45 C 0.49552 0.30481 0.88084 0.0
O46 O 0.45734 0.24891 0.84848 0.0
Co47 Co 0.46007 0.25976 0.92504 0.0
O48 O 0.42554 0.26571 0.89119 0.0
C49 C 0.49485 0.19743 0.91189 0.0
C50 C 0.55333 0.24312 0.8376 0.0
C51 C 0.42952 0.25682 0.86104 0.0
O52 O 0.50452 0.20826 0.88333 0.0
O53 O 0.47849 0.21458 0.93278 0.0
O54 O 0.50408 0.30047 0.84995 0.0
O55 O 0.49553 0.27876 0.8995 0.0
Co56 Co 0.12815 0.98143 0.25534 0.0
O57 O 0.12136 0.934 0.25923 0.0
O58 O 0.16672 0.9585 0.24203 0.0
C59 C 0.10735 -0.00576 0.30574 0.0
O60 O 0.14658 0.02789 0.2496 0.0
Co61 Co 0.07339 0.0335 0.25532 0.0
O62 O 0.10814 0.06719 0.24984 0.0
C63 C 0.08296 -0.0075 0.19574 0.0
C64 C 0.15158 0.93133 0.24982 0.0
C65 C 0.13776 0.05831 0.24743 0.0
O66 O 0.11012 0.98155 0.20789 0.0
O67 O 0.0634 0.01076 0.21231 0.0
O68 O 0.13706 0.98349 0.30339 0.0
O69 O 0.09067 -0.00509 0.27841 0.0
Co70 Co 0.24392 0.87846 0.48035 0.0
O71 O 0.1976 0.87595 0.47952 0.0
O72 O 0.22573 0.91986 0.49602 0.0
C73 C 0.2502 0.85586 0.4299 0.0
O74 O 0.29153 0.89035 0.48307 0.0
Co75 Co 0.28845 0.81621 0.47495 0.0
O76 O 0.32462 0.8483 0.4695 0.0
C77 C 0.25195 0.83004 0.53691 0.0
C78 C 0.19754 0.90614 0.49047 0.0
C79 C 0.31993 0.87857 0.47672 0.0
O80 O 0.24426 0.85929 0.52681 0.0
O81 O 0.26696 0.80872 0.51913 0.0
O82 O 0.24438 0.88743 0.43198 0.0
O83 O 0.25097 0.83969 0.45757 0.0
Co84 Co 0.37274 0.00151 0.75314 0.0
O85 O 0.37432 0.04933 0.75479 0.0
O86 O 0.33314 0.01944 0.73503 0.0
C87 C 0.39086 0.9911 0.80491 0.0
O88 O 0.36014 0.95372 0.74901 0.0
Co89 Co 0.43261 0.95501 0.75881 0.0
O90 O 0.40124 0.91778 0.75417 0.0
C91 C 0.42254 -0.0066 0.69783 0.0
C92 C 0.3452 0.04827 0.74191 0.0
C93 C 0.37115 0.92411 0.75034 0.0
O94 O 0.3936 0.00122 0.70746 0.0
O95 O 0.44317 0.97839 0.7163 0.0
O96 O 0.36075 2e-05 0.80043 0.0
O97 O 0.40957 -0.00789 0.77899 0.0
Co98 Co 0.26075 0.11531 0.98172 0.0
O99 O 0.30726 0.11984 0.98038 0.0
O100 O 0.28028 0.07389 -0.00661 0.0
C101 C 0.25375 0.13979 0.93246 0.0
O102 O 0.21292 0.10087 0.98388 0.0
Co103 Co 0.21498 0.17409 0.98313 0.0
O104 O 0.17948 0.14291 0.97166 0.0
C105 C 0.24797 0.15377 0.04546 0.0
C106 C 0.30805 0.08879 0.98839 0.0
C107 C 0.18434 0.1123 0.97692 0.0
O108 O 0.26085 0.12925 0.0301 0.0
O109 O 0.2298 0.17517 0.03103 0.0
O110 O 0.25999 0.10845 0.93415 0.0
O111 O 0.253 0.15611 0.96031 0.0
Co112 Co 0.74401 0.37819 0.97898 0.0
O113 O 0.69762 0.37287 0.97887 0.0
O114 O 0.7237 0.41757 -0.00326 0.0
C115 C 0.75362 0.35968 0.92726 0.0
O116 O 0.79087 0.39335 0.98151 0.0
Co117 Co 0.7898 0.31715 0.97389 0.0
O118 O 0.82516 0.35058 0.97343 0.0
C119 C 0.75348 0.32837 0.03566 0.0
C120 C 0.69621 0.40242 -0.00847 0.0
C121 C 0.81949 0.38117 0.97791 0.0
O122 O 0.74599 0.35752 0.02499 0.0
O123 O 0.76849 0.30718 0.0177 0.0
O124 O 0.74361 0.38986 0.93152 0.0
O125 O 0.75378 0.34098 0.95344 0.0
Co126 Co 0.87194 0.50002 0.25109 0.0
O127 O 0.8737 0.54775 0.2515 0.0
O128 O 0.83068 0.51799 0.23658 0.0
C129 C 0.89465 0.49015 0.30145 0.0
O130 O 0.85948 0.4516 0.24832 0.0
Co131 Co 0.93283 0.45472 0.25218 0.0
O132 O 0.90166 0.41791 0.25932 0.0
C133 C 0.91726 0.49237 0.19183 0.0
C134 C 0.84371 0.54692 0.24088 0.0
C135 C 0.8715 0.42283 0.25421 0.0
O136 O 0.88918 0.5003 0.20375 0.0
O137 O 0.93906 0.47698 0.20842 0.0
O138 O 0.86416 0.49867 0.29935 0.0
O139 O 0.91097 0.4914 0.27391 0.0
Co140 Co 0.76064 0.6162 0.48396 0.0
O141 O 0.80681 0.62124 0.48876 0.0
O142 O 0.77929 0.5741 0.49548 0.0
C143 C 0.75946 0.64592 0.43629 0.0
O144 O 0.71284 0.60145 0.47985 0.0
Co145 Co 0.71398 0.67611 0.48148 0.0
O146 O 0.67798 0.64401 0.47556 0.0
C147 C 0.74973 0.65803 0.54238 0.0
C148 C 0.807 0.5898 0.49498 0.0
C149 C 0.68364 0.61307 0.47668 0.0
O150 O 0.7544 0.6282 0.5325 0.0
O151 O 0.74221 0.6812 0.522 0.0
O152 O 0.76613 0.61448 0.43526 0.0
O153 O 0.75439 0.65785 0.46553 0.0
Co154 Co 0.63068 0.48473 0.7522 0.0
O155 O 0.62411 0.43743 0.75121 0.0
O156 O 0.67028 0.46294 0.73818 0.0
C157 C 0.60518 0.48957 0.80194 0.0
O158 O 0.6474 0.53293 0.75164 0.0
Co159 Co 0.57301 0.53436 0.75625 0.0
O160 O 0.60676 0.56891 0.76179 0.0
C161 C 0.58573 0.49647 0.69472 0.0
C162 C 0.65432 0.43534 0.74211 0.0
C163 C 0.6367 0.56261 0.75645 0.0
O164 O 0.61458 0.48871 0.70476 0.0
O165 O 0.56468 0.51108 0.71303 0.0
O166 O 0.63596 0.48183 0.80118 0.0
O167 O 0.59167 0.49381 0.77332 0.0
Co168 Co 0.01148 0.75015 0.8662 0.0
O169 O 0.05678 0.75012 0.8774 0.0
O170 O 0.03664 0.73526 0.82835 0.0
C171 C 0.00141 0.80028 0.88817 0.0
O172 O 0.96646 0.74848 0.84483 0.0
Co173 Co 0.95834 0.75387 0.92054 0.0
O174 O 0.9291 0.76421 0.88245 0.0
C175 C 0.00026 0.69482 0.91343 0.0
C176 C 0.06205 0.74034 0.84709 0.0
C177 C 0.93741 0.75762 0.85255 0.0
O178 O 0.00779 0.70389 0.8837 0.0
O179 O 0.98357 0.71309 0.93314 0.0
O180 O 0.01298 0.79787 0.85807 0.0
O181 O -0.00158 0.77297 0.90442 0.0
Co182 Co 0.99215 0.24853 0.61942 0.0
O183 O 0.94573 0.24578 0.61329 0.0
O184 O 0.97172 0.23484 0.66049 0.0
C185 C -0.00266 0.29766 0.59323 0.0
O186 O 0.03809 0.24895 0.6371 0.0
Co187 Co 0.04384 0.25493 0.56298 0.0
O188 O 0.07731 0.25468 0.59861 0.0
C189 C 0.00932 0.19168 0.576 0.0
C190 C 0.94426 0.23748 0.64466 0.0
C191 C 0.06815 0.25085 0.62871 0.0
O192 O -0.00235 0.20166 0.60402 0.0
O193 O 0.0237 0.2107 0.55505 0.0
O194 O 0.98887 0.29665 0.62452 0.0
O195 O 0.00187 0.26961 0.57901 0.0
Co196 Co 0.50923 0.25631 0.36082 0.0
O197 O 0.55526 0.25622 0.36858 0.0
O198 O 0.53171 0.24296 0.32066 0.0
C199 C 0.49892 0.30514 0.38601 0.0
O200 O 0.46254 0.25386 0.34428 0.0
Co201 Co 0.46371 0.25498 0.4232 0.0
O202 O 0.42934 0.25961 0.3886 0.0
C203 C 0.50191 0.19667 0.4044 0.0
C204 C 0.55834 0.24589 0.33815 0.0
C205 C 0.43398 0.25596 0.35732 0.0
O206 O 0.50685 0.20898 0.37537 0.0
O207 O 0.48923 0.21293 0.42847 0.0
O208 O 0.5088 0.30481 0.35515 0.0
O209 O 0.49888 0.27689 0.40071 0.0
Co210 Co 0.49329 0.75101 0.12305 0.0
O211 O 0.44717 0.74825 0.1186 0.0
O212 O 0.47403 0.73999 0.16585 0.0
C213 C 0.49783 0.79888 0.09385 0.0
O214 O 0.54054 0.75211 0.1371 0.0
Co215 Co 0.53798 0.75085 0.05958 0.0
O216 O 0.57385 0.74695 0.09254 0.0
C217 C 0.50228 0.69297 0.08065 0.0
C218 C 0.44623 0.74207 0.15039 0.0
C219 C 0.56881 0.74844 0.12388 0.0
O220 O 0.49841 0.70317 0.11066 0.0
O221 O 0.50632 0.71308 0.05633 0.0
O222 O 0.49059 0.79949 0.12546 0.0
O223 O 0.50044 0.76989 0.08113 0.0
Co224 Co 0.86936 0.00328 0.74553 0.0
O225 O 0.87429 0.05055 0.74123 0.0
O226 O 0.82825 0.02296 0.73386 0.0
C227 C 0.89763 -0.00059 0.79368 0.0
O228 O 0.8532 0.95557 0.74891 0.0
Co229 Co 0.92558 0.95406 0.74556 0.0
O230 O 0.89316 0.91869 0.75575 0.0
C231 C 0.90958 -0.00676 0.68555 0.0
C232 C 0.84331 0.05126 0.73451 0.0
C233 C 0.86296 0.92574 0.75409 0.0
O234 O 0.88095 -0.00177 0.69721 0.0
O235 O 0.93215 0.97922 0.7025 0.0
O236 O 0.86694 0.00731 0.79392 0.0
O237 O 0.91073 -0.0045 0.76469 0.0
Co238 Co 0.7582 0.11463 0.48557 0.0
O239 O 0.80474 0.121 0.48712 0.0
O240 O 0.77947 0.07377 0.49783 0.0
C241 C 0.75327 0.1418 0.4368 0.0
O242 O 0.71191 0.09688 0.48552 0.0
Co243 Co 0.70588 0.17019 0.47916 0.0
O244 O 0.67326 0.13479 0.47525 0.0
C245 C 0.74012 0.15546 0.54372 0.0
C246 C 0.80678 0.08964 0.49404 0.0
C247 C 0.68202 0.10521 0.48108 0.0
O248 O 0.7537 0.12881 0.53326 0.0
O249 O 0.72312 0.17482 0.52535 0.0
O250 O 0.76094 0.11058 0.43715 0.0
O251 O 0.74846 0.15543 0.46526 0.0
Co252 Co 0.62816 0.98906 0.25115 0.0
O253 O 0.62456 0.94143 0.24951 0.0
O254 O 0.66945 0.96989 0.2382 0.0
C255 C 0.60221 -0.00697 0.3005 0.0
O256 O 0.64235 0.03703 0.2506 0.0
Co257 Co 0.56978 0.03889 0.25956 0.0
O258 O 0.6024 0.07439 0.25829 0.0
C259 C 0.58471 0.0053 0.19458 0.0
C260 C 0.65531 0.94135 0.24181 0.0
C261 C 0.63193 0.0669 0.25271 0.0
O262 O 0.61234 -0.00672 0.20386 0.0
O263 O 0.56513 0.02075 0.21388 0.0
O264 O 0.63322 0.98626 0.29975 0.0
O265 O 0.58841 -0.00305 0.27214 0.0
Co266 Co 0.73452 0.87457 -0.00606 0.0
O267 O 0.68803 0.86941 -0.00499 0.0
O268 O 0.71452 0.91529 0.00819 0.0
C269 C 0.73923 0.84961 0.94326 0.0
O270 O 0.78213 0.89015 -0.00431 0.0
Co271 Co 0.78067 0.81544 -0.00863 0.0
O272 O 0.81694 0.84797 -0.01011 0.0
C273 C 0.74228 0.82906 0.05207 0.0
C274 C 0.68682 0.89997 0.0047 0.0
C275 C 0.81139 0.87867 -0.00602 0.0
O276 O 0.73674 0.85848 0.0414 0.0
O277 O 0.75618 0.807 0.03414 0.0
O278 O 0.73302 0.88109 0.94515 0.0
O279 O 0.74198 0.83452 0.97154 0.0
Co280 Co 0.25825 0.61305 0.98323 0.0
O281 O 0.30491 0.61653 0.98348 0.0
O282 O 0.27698 0.57036 -0.00681 0.0
C283 C 0.25274 0.64195 0.93571 0.0
O284 O 0.21102 0.59841 0.984 0.0
Co285 Co 0.21076 0.67317 0.98275 0.0
O286 O 0.17505 0.64024 0.98363 0.0
C287 C 0.24388 0.65141 0.04494 0.0
C288 C 0.30495 0.58489 -0.01075 0.0
C289 C 0.18176 0.60955 0.98504 0.0
O290 O 0.25558 0.62504 0.03171 0.0
O291 O 0.22917 0.67423 0.02871 0.0
O292 O 0.25938 0.61055 0.93463 0.0
O293 O 0.25052 0.65509 0.96475 0.0
Co294 Co 0.12799 0.48864 0.7484 0.0
O295 O 0.12477 0.44144 0.74673 0.0
O296 O 0.16945 0.47043 0.7355 0.0
C297 C 0.10195 0.49436 0.79755 0.0
O298 O 0.14126 0.53657 0.74787 0.0
Co299 Co 0.06708 0.5352 0.75045 0.0
O300 O 0.09902 0.57196 0.74682 0.0
C301 C 0.08294 0.49565 0.6938 0.0
C302 C 0.15553 0.44173 0.73883 0.0
C303 C 0.12948 0.5659 0.74603 0.0
O304 O 0.11315 0.49267 0.70112 0.0
O305 O 0.06139 0.49931 0.7164 0.0
O306 O 0.13278 0.48674 0.79695 0.0
O307 O 0.08792 0.49631 0.76897 0.0
Co308 Co 0.23404 0.37883 0.49111 0.0
O309 O 0.18758 0.37516 0.49333 0.0
O310 O 0.21603 0.42096 0.50326 0.0
C311 C 0.2384 0.35166 0.44142 0.0
O312 O 0.28198 0.39254 0.49161 0.0
Co313 Co 0.27696 0.31754 0.49255 0.0
O314 O 0.31488 0.34837 0.49211 0.0
C315 C 0.2407 0.33753 0.55222 0.0
C316 C 0.18789 0.4062 0.50134 0.0
C317 C 0.31062 0.37958 0.49283 0.0
O318 O 0.23682 0.3662 0.53932 0.0
O319 O 0.25227 0.31311 0.53582 0.0
O320 O 0.23251 0.38322 0.44225 0.0
O321 O 0.23987 0.33732 0.47027 0.0
Co322 Co 0.37312 0.50373 0.24567 0.0
O323 O 0.37767 0.55127 0.24158 0.0
O324 O 0.3332 0.52265 0.22942 0.0
C325 C 0.39672 0.49972 0.29623 0.0
O326 O 0.35742 0.45618 0.24722 0.0
Co327 Co 0.42884 0.45303 0.25506 0.0
O328 O 0.39444 0.42018 0.26623 0.0
C329 C 0.41925 0.48927 0.19067 0.0
C330 C 0.34757 0.55123 0.23136 0.0
C331 C 0.36552 0.42711 0.25728 0.0
O332 O 0.39039 0.49831 0.19916 0.0
O333 O 0.43845 0.47364 0.2104 0.0
O334 O 0.36606 0.50777 0.29393 0.0
O335 O 0.4119 0.49552 0.26854 0.0
O336 O 0.94867 0.04377 0.9329 0.0
Mg337 Mg 0.94336 0.0384 0.98454 0.0
O338 O 0.97929 -0.00079 0.93647 0.0
Mg339 Mg -0.0011 -0.00729 -0.0079 0.0
O340 O 0.98396 0.04512 0.01355 0.0
O341 O 0.94233 0.08111 0.0096 0.0
O342 O 0.0204 0.9834 0.04583 0.0
O343 O 0.0483 0.02139 0.97868 0.0
Mg344 Mg 0.06189 0.94428 -0.0107 0.0
O345 O 0.0132 0.93968 0.97543 0.0
O346 O 0.05759 0.94325 0.04233 0.0
O347 O 0.08926 0.98612 0.98105 0.0
O348 O 0.05229 0.92897 0.94051 0.0
C349 C 0.91867 0.9733 0.00685 0.0
C350 C 0.96283 0.0198 0.91901 0.0
C351 C 0.97032 0.07309 0.02187 0.0
C352 C 0.04166 0.96435 0.05934 0.0
C353 C 0.07889 0.0152 0.97762 0.0
C354 C 0.02202 0.92647 0.9476 0.0
O355 O 0.90959 0.00265 0.00102 0.0
O356 O 0.94902 0.96582 0.00567 0.0
O357 O 0.27364 0.73664 0.33296 0.0
Mg358 Mg 0.2526 0.69507 0.31035 0.0
O359 O 0.26104 0.77094 0.2917 0.0
Mg360 Mg 0.25087 0.74074 0.244 0.0
O361 O 0.26988 0.69207 0.26375 0.0
O362 O 0.279 0.6526 0.30092 0.0
O363 O 0.24005 0.7111 0.19682 0.0
O364 O 0.30442 0.74658 0.22613 0.0
Mg365 Mg 0.26197 0.78801 0.1821 0.0
O366 O 0.23333 0.79037 0.22305 0.0
O367 O 0.25151 0.74495 0.15447 0.0
O368 O 0.31033 0.793 0.19776 0.0
O369 O 0.23269 0.82876 0.1829 0.0
C370 C 0.18417 0.71544 0.28676 0.0
C371 C 0.2697 0.76575 0.32174 0.0
C372 C 0.28194 0.66343 0.27077 0.0
C373 C 0.24325 0.71682 0.1658 0.0
C374 C 0.32255 0.76771 0.21155 0.0
C375 C 0.22308 0.81855 0.21182 0.0
O376 O 0.20104 0.69706 0.30593 0.0
O377 O 0.19738 0.7327 0.26357 0.0
O378 O 0.52683 0.94068 0.42636 0.0
Mg379 Mg 0.54615 0.94495 0.47443 0.0
O380 O 0.51832 -0.00742 0.43786 0.0
Mg381 Mg 0.49987 -0.00324 0.49193 0.0
O382 O 0.5128 0.94392 0.51149 0.0
O383 O 0.54866 0.90298 0.50113 0.0
O384 O 0.48163 0.00333 0.5471 0.0
O385 O 0.45183 0.97055 0.4776 0.0
Mg386 Mg 0.44636 0.04159 0.49965 0.0
O387 O 0.48597 0.04916 0.46997 0.0
O388 O 0.45066 0.04766 0.55065 0.0
O389 O 0.41252 0.00681 0.48404 0.0
O390 O 0.44298 0.08374 0.4747 0.0
C391 C 0.5785 0.00912 0.49631 0.0
C392 C 0.5241 0.97019 0.41663 0.0
C393 C 0.52454 0.91474 0.51801 0.0
C394 C 0.46522 0.02385 0.56441 0.0
C395 C 0.42173 0.97785 0.47712 0.0
C396 C 0.47095 0.07647 0.46193 0.0
O397 O 0.58213 0.98109 0.48271 0.0
O398 O 0.55024 0.01922 0.50512 0.0
O399 O 0.33678 0.2597 0.73731 0.0
Mg400 Mg 0.30826 0.24005 0.6992 0.0
O401 O 0.29546 0.25647 0.77264 0.0
Mg402 Mg 0.24735 0.24537 0.7452 0.0
O403 O 0.26599 0.26493 0.69467 0.0
O404 O 0.30528 0.26486 0.65585 0.0
O405 O 0.19647 0.23479 0.721 0.0
O406 O 0.23125 0.29959 0.74967 0.0
Mg407 Mg 0.19075 0.26131 0.79965 0.0
O408 O 0.22988 0.23155 0.79672 0.0
O409 O 0.15996 0.2455 0.76077 0.0
O410 O 0.20566 0.31083 0.79674 0.0
O411 O 0.19813 0.23353 0.84169 0.0
C412 C 0.28399 0.17375 0.71898 0.0
C413 C 0.3254 0.26186 0.76653 0.0
C414 C 0.27733 0.27532 0.66628 0.0
C415 C 0.16685 0.23711 0.73106 0.0
C416 C 0.21835 0.32021 0.76952 0.0
C417 C 0.22282 0.22113 0.82625 0.0
O418 O 0.30207 0.18919 0.69866 0.0
O419 O 0.2643 0.18926 0.7383 0.0
O420 O 0.99351 0.89988 0.50125 0.0
Mg421 Mg 0.00829 0.92599 0.54475 0.0
O422 O 0.98542 0.9423 0.46655 0.0
Mg423 Mg -0.00116 0.98988 0.49454 0.0
O424 O 0.98278 0.96866 0.54356 0.0
O425 O 0.97801 0.93381 0.58577 0.0
O426 O 0.01234 0.03715 0.52202 0.0
O427 O 0.94429 0.00817 0.49432 0.0
Mg428 Mg 0.97845 0.03551 0.45054 0.0
O429 O 0.01952 0.00872 0.44224 0.0
O430 O 0.98246 0.07011 0.49021 0.0
O431 O 0.9331 0.01277 0.44173 0.0
O432 O 0.00177 0.04924 0.40842 0.0
C433 C 0.0702 0.95653 0.52103 0.0
C434 C 0.98562 0.91138 0.47278 0.0
C435 C 0.97008 0.9615 0.57199 0.0
C436 C -0.00072 0.06505 0.51624 0.0
C437 C 0.92324 0.01236 0.47148 0.0
C438 C 0.0227 0.02638 0.41515 0.0
O439 O 0.05819 0.93983 0.54493 0.0
O440 O 0.05212 0.9718 0.50019 0.0
O441 O 0.26796 0.68153 0.79545 0.0
Mg442 Mg 0.28043 0.68971 0.74664 0.0
O443 O 0.25505 0.73397 0.79736 0.0
Mg444 Mg 0.24761 0.74561 0.7405 0.0
O445 O 0.29865 0.72991 0.72106 0.0
O446 O 0.32889 0.69343 0.74949 0.0
O447 O 0.23935 0.7622 0.68504 0.0
O448 O 0.27515 0.7942 0.74957 0.0
Mg449 Mg 0.20247 0.80835 0.73566 0.0
O450 O 0.19815 0.76406 0.75904 0.0
O451 O 0.20351 0.80342 0.6838 0.0
O452 O 0.24094 0.83564 0.75642 0.0
O453 O 0.15979 0.80325 0.76062 0.0
C454 C 0.22696 0.66563 0.72007 0.0
C455 C 0.26018 0.70654 0.81192 0.0
C456 C 0.32676 0.71713 0.72818 0.0
C457 C 0.22245 0.7836 0.66903 0.0
C458 C 0.26977 0.82447 0.75592 0.0
C459 C 0.17014 0.77442 0.76959 0.0
O460 O 0.2563 0.65677 0.71614 0.0
O461 O 0.22038 0.69485 0.73038 0.0
O462 O 0.44915 0.92521 0.01758 0.0
Mg463 Mg 0.45595 0.97275 0.03685 0.0
O464 O 0.50002 0.93858 0.00959 0.0
Mg465 Mg 0.50129 -0.00644 -0.0099 0.0
O466 O 0.44945 0.01178 0.0066 0.0
O467 O 0.41475 -0.00336 0.04763 0.0
O468 O 0.50776 0.04699 0.96941 0.0
O469 O 0.47267 0.98004 0.9432 0.0
Mg470 Mg 0.54509 -0.0052 0.92074 0.0
O471 O 0.54889 0.97774 0.96825 0.0
O472 O 0.54182 0.04687 0.92591 0.0
O473 O 0.5036 0.97224 0.89854 0.0
O474 O 0.58821 0.96993 0.93141 0.0
C475 C 0.51972 -0.00477 0.0679 0.0
C476 C 0.47851 0.91655 0.01519 0.0
C477 C 0.42203 0.01527 0.02247 0.0
C478 C 0.5239 0.06215 0.94665 0.0
C479 C 0.47594 0.97209 0.91276 0.0
C480 C 0.57735 0.96648 0.96139 0.0
O481 O 0.49319 0.9795 0.07104 0.0
O482 O 0.52833 0.00699 0.03961 0.0
O483 O 0.25209 0.24432 0.15682 0.0
Mg484 Mg 0.246 0.28467 0.18906 0.0
O485 O 0.26656 0.21302 0.19913 0.0
Mg486 Mg 0.24972 0.24497 0.24485 0.0
O487 O 0.2741 0.29451 0.22961 0.0
O488 O 0.27807 0.32129 0.18064 0.0
O489 O 0.23381 0.27415 0.29332 0.0
O490 O 0.3029 0.24369 0.26649 0.0
Mg491 Mg 0.26477 0.2021 0.29477 0.0
O492 O 0.22972 0.19225 0.25998 0.0
O493 O 0.25464 0.23996 0.33074 0.0
O494 O 0.31288 0.19271 0.27881 0.0
O495 O 0.24244 0.15878 0.30303 0.0
C496 C 0.18155 0.2757 0.20509 0.0
C497 C 0.26228 0.21705 0.16796 0.0
C498 C 0.28534 0.3189 0.21191 0.0
C499 C 0.24116 0.26733 0.32363 0.0
C500 C 0.32341 0.22157 0.27433 0.0
C501 C 0.22638 0.16428 0.27589 0.0
O502 O 0.19852 0.30022 0.19613 0.0
O503 O 0.19552 0.25167 0.2205 0.0
O504 O 0.4482 0.5539 0.95346 0.0
Mg505 Mg 0.49898 0.55623 0.9529 0.0
O506 O 0.4476 0.51048 0.98728 0.0
Mg507 Mg 0.50172 0.49297 -0.00551 0.0
O508 O 0.5199 0.5123 0.94291 0.0
O509 O 0.52071 0.556 0.90813 0.0
O510 O 0.55437 0.47298 0.00396 0.0
O511 O 0.49075 0.44598 0.9629 0.0
Mg512 Mg 0.49976 0.42334 0.04034 0.0
O513 O 0.48598 0.47125 0.04364 0.0
O514 O 0.55072 0.43306 0.04279 0.0
O515 O 0.4875 0.40125 -0.00504 0.0
O516 O 0.45802 0.43323 0.06907 0.0
C517 C 0.52211 0.5705 0.02012 0.0
C518 C 0.4327 0.53286 0.97071 0.0
C519 C 0.52874 0.52581 0.91483 0.0
C520 C 0.56753 0.4516 0.02346 0.0
C521 C 0.48623 0.41498 0.96661 0.0
C522 C 0.46133 0.46406 0.06202 0.0
O523 O 0.52269 0.58144 -0.00944 0.0
O524 O 0.51324 0.54079 0.02629 0.0
O525 O 0.7938 0.19018 0.29873 0.0
Mg526 Mg 0.79559 0.18335 0.24704 0.0
O527 O 0.75366 0.22678 0.29569 0.0
Mg528 Mg 0.74793 0.24621 0.24148 0.0
O529 O 0.79747 0.2276 0.2246 0.0
O530 O 0.83743 0.1902 0.22127 0.0
O531 O 0.74025 0.26704 0.18703 0.0
O532 O 0.77603 0.29415 0.25475 0.0
Mg533 Mg 0.70347 0.31281 0.24314 0.0
O534 O 0.69939 0.26558 0.25942 0.0
O535 O 0.70799 0.31106 0.19091 0.0
O536 O 0.74306 0.33578 0.26712 0.0
O537 O 0.66029 0.30258 0.2674 0.0
C538 C 0.72853 0.16613 0.22481 0.0
C539 C 0.77195 0.20751 0.31251 0.0
C540 C 0.82603 0.2191 0.21407 0.0
C541 C 0.72493 0.29131 0.17352 0.0
C542 C 0.77145 0.32367 0.26479 0.0
C543 C 0.67111 0.27288 0.27134 0.0
O544 O 0.75769 0.15608 0.22666 0.0
O545 O 0.721 0.19654 0.22921 0.0
O546 O 0.95306 0.42777 0.52672 0.0
Mg547 Mg 0.95928 0.47684 0.54196 0.0
O548 O 0.003 0.44179 0.51517 0.0
Mg549 Mg -8e-05 0.49564 0.49274 0.0
O550 O 0.94746 0.51354 0.5099 0.0
O551 O 0.9168 0.49694 0.55373 0.0
O552 O 0.00441 0.5479 0.46826 0.0
O553 O 0.9709 0.47623 0.44666 0.0
Mg554 Mg 0.04477 0.49624 0.42575 0.0
O555 O 0.05029 0.48265 0.47477 0.0
O556 O 0.04826 0.54736 0.43528 0.0
O557 O 0.0008 0.48818 0.40226 0.0
O558 O 0.06299 0.44873 0.43495 0.0
C559 C 0.01984 0.50687 0.57001 0.0
C560 C 0.98224 0.41954 0.52227 0.0
C561 C 0.92118 0.51575 0.52805 0.0
C562 C 0.02507 0.56282 0.44942 0.0
C563 C 0.97463 0.47801 0.41516 0.0
C564 C 0.064 0.45556 0.46609 0.0
O565 O -0.00487 0.48946 0.57716 0.0
O566 O 0.02627 0.51484 0.53994 0.0
O567 O 0.68344 0.79677 0.27774 0.0
Mg568 Mg 0.68247 0.74549 0.28696 0.0
O569 O 0.73017 0.79579 0.25037 0.0
Mg570 Mg 0.74585 0.74083 0.24362 0.0
O571 O 0.72614 0.72135 0.29419 0.0
O572 O 0.69379 0.73731 0.33559 0.0
O573 O 0.76532 0.6866 0.23273 0.0
O574 O 0.79456 0.75182 0.27161 0.0
Mg575 Mg 0.80985 0.74003 0.19091 0.0
O576 O 0.76414 0.75743 0.19355 0.0
O577 O 0.79658 0.68947 0.18695 0.0
O578 O 0.83524 0.74916 0.23507 0.0
O579 O 0.80013 0.78403 0.16429 0.0
C580 C 0.66732 0.72086 0.22178 0.0
C581 C 0.70623 0.8116 0.26268 0.0
C582 C 0.72152 0.72582 0.3259 0.0
C583 C 0.78275 0.67273 0.21 0.0
C584 C 0.82486 0.7535 0.26446 0.0
C585 C 0.77081 0.78281 0.17548 0.0
O586 O 0.65642 0.71824 0.2513 0.0
O587 O 0.69661 0.73027 0.21622 0.0
O588 O 0.77053 0.24234 0.83604 0.0
Mg589 Mg 0.75068 0.19858 0.81463 0.0
O590 O 0.76045 0.27222 0.79072 0.0
Mg591 Mg 0.74886 0.2408 0.74443 0.0
O592 O 0.76756 0.19353 0.76748 0.0
O593 O 0.77725 0.15574 0.80629 0.0
O594 O 0.73832 0.21251 0.69688 0.0
O595 O 0.80235 0.24421 0.72427 0.0
Mg596 Mg 0.76691 0.29925 0.69057 0.0
O597 O 0.72802 0.28983 0.72252 0.0
O598 O 0.75569 0.25406 0.66489 0.0
O599 O 0.81604 0.29057 0.69906 0.0
O600 O 0.76095 0.33051 0.73212 0.0
C601 C 0.68275 0.21512 0.78783 0.0
C602 C 0.76887 0.27007 0.82117 0.0
C603 C 0.77973 0.16529 0.77568 0.0
C604 C 0.74593 0.22426 0.66839 0.0
C605 C 0.82363 0.26252 0.71029 0.0
C606 C 0.73263 0.31827 0.73592 0.0
O607 O 0.69927 0.19868 0.809 0.0
O608 O 0.69632 0.2321 0.7647 0.0
O609 O 0.77885 0.75122 0.66039 0.0
Mg610 Mg 0.74736 0.78809 0.67975 0.0
O611 O 0.75841 0.71591 0.69659 0.0
Mg612 Mg 0.74895 0.74503 0.74675 0.0
O613 O 0.76267 0.79656 0.72649 0.0
O614 O 0.76474 0.83565 0.68753 0.0
O615 O 0.73901 0.77154 0.79756 0.0
O616 O 0.80392 0.74551 0.76114 0.0
Mg617 Mg 0.77022 0.69489 0.80649 0.0
O618 O 0.73508 0.69475 0.7702 0.0
O619 O 0.75129 0.73442 0.8372 0.0
O620 O 0.81867 0.70226 0.79083 0.0
O621 O 0.75422 0.64848 0.79054 0.0
C622 C 0.68043 0.76003 0.70368 0.0
C623 C 0.77153 0.72175 0.66827 0.0
C624 C 0.77157 0.82601 0.71741 0.0
C625 C 0.7414 0.76314 0.82834 0.0
C626 C 0.82597 0.72838 0.77524 0.0
C627 C 0.73568 0.66278 0.76909 0.0
O628 O 0.69701 0.776 0.68217 0.0
O629 O 0.69359 0.74789 0.73002 0.0
O630 O 0.58751 0.48753 0.48911 0.0
Mg631 Mg 0.56005 0.44529 0.49766 0.0
O632 O 0.547 0.5216 0.47819 0.0
Mg633 Mg 0.49847 0.49242 0.49397 0.0
O634 O 0.5137 0.44026 0.47874 0.0
O635 O 0.55633 0.41996 0.45314 0.0
O636 O 0.44948 0.465 0.50869 0.0
O637 O 0.47808 0.4945 0.43926 0.0
Mg638 Mg 0.44519 0.53772 0.48035 0.0
O639 O 0.48188 0.54473 0.51403 0.0
O640 O 0.41137 0.50022 0.49244 0.0
O641 O 0.45692 0.54327 0.42982 0.0
O642 O 0.44012 0.57998 0.50598 0.0
C643 C 0.53766 0.46415 0.56365 0.0
C644 C 0.57762 0.51579 0.4805 0.0
C645 C 0.52526 0.42374 0.45397 0.0
C646 C 0.41942 0.47211 0.50376 0.0
C647 C 0.46597 0.51549 0.4191 0.0
C648 C 0.46695 0.57237 0.52096 0.0
O649 O 0.55146 0.44006 0.54906 0.0
O650 O 0.52048 0.48539 0.54763 0.0
O651 O 0.02519 0.44414 0.92383 0.0
Mg652 Mg 0.04508 0.45008 0.97157 0.0
O653 O 0.01831 0.49602 0.93589 0.0
Mg654 Mg -0.0005 0.49771 -0.00913 0.0
O655 O 0.01362 0.44395 0.01007 0.0
O656 O 0.05293 0.40751 -0.00396 0.0
O657 O 0.97831 0.50589 0.04287 0.0
O658 O 0.95105 0.47239 0.97675 0.0
Mg659 Mg 0.93523 0.54925 -0.01087 0.0
O660 O 0.9841 0.54918 0.97794 0.0
O661 O 0.94221 0.54741 0.04228 0.0
O662 O 0.90905 0.50687 0.9762 0.0
O663 O 0.95016 0.57255 0.94428 0.0
C664 C 0.0772 0.51347 -0.00516 0.0
C665 C 0.02335 0.47376 0.91423 0.0
C666 C 0.02828 0.41561 0.01427 0.0
C667 C 0.95825 0.52506 0.05777 0.0
C668 C 0.92083 0.47826 0.97289 0.0
C669 C 0.97993 0.56607 0.95124 0.0
O670 O 0.0812 0.48676 0.97882 0.0
O671 O 0.04899 0.52141 0.00563 0.0
C672 C 0.97202 0.14264 0.08293 0.0
C673 C 0.00176 0.15803 0.07531 0.0
C674 C 0.96375 0.11232 0.06838 0.0
C675 C 0.98493 0.09634 0.04596 0.0
H676 H 0.95378 0.15541 0.09758 0.0
H677 H 0.93936 0.10276 0.07241 0.0
S678 S 0.06979 0.12141 0.02685 0.0
N679 N 0.0556 0.1514 0.05066 0.0
N680 N 0.03973 0.09437 0.02295 0.0
C681 C 0.01655 0.10901 0.04208 0.0
C682 C 0.025 0.14 0.05686 0.0
C683 C 0.09186 0.72899 0.29023 0.0
C684 C 0.08724 0.73717 0.32417 0.0
C685 C 0.12331 0.72251 0.27736 0.0
C686 C 0.15083 0.72338 0.2983 0.0
H687 H 0.07115 0.7277 0.27353 0.0
H688 H 0.12601 0.71619 0.25126 0.0
S689 S 0.15261 0.74613 0.38791 0.0
N690 N 0.11375 0.74761 0.37758 0.0
N691 N 0.17186 0.73525 0.35357 0.0
C692 C 0.14653 0.73227 0.33184 0.0
C693 C 0.11501 0.73916 0.34476 0.0
C694 C 0.48124 0.84049 0.55009 0.0
C695 C 0.49572 0.8363 0.58159 0.0
C696 C 0.4878 0.86862 0.53085 0.0
C697 C 0.50925 0.89304 0.54249 0.0
H698 H 0.46589 0.82126 0.53968 0.0
H699 H 0.47801 0.87006 0.50576 0.0
S700 S 0.55149 0.89469 0.62397 0.0
N701 N 0.53027 0.85989 0.62463 0.0
N702 N 0.54349 0.91248 0.5877 0.0
C703 C 0.52228 0.89015 0.57465 0.0
C704 C 0.5152 0.86175 0.59451 0.0
C705 C 0.38021 0.28431 0.83832 0.0
C706 C 0.40088 0.25652 0.83939 0.0
C707 C 0.35441 0.2859 0.81546 0.0
C708 C 0.34869 0.25948 0.7937 0.0
H709 H 0.38491 0.30543 0.85423 0.0
H710 H 0.33978 0.30814 0.81395 0.0
S711 S 0.39159 0.17903 0.7911 0.0
N712 N 0.41134 0.20069 0.81964 0.0
N713 N 0.36219 0.20335 0.77739 0.0
C714 C 0.36757 0.23073 0.79629 0.0
C715 C 0.39399 0.22931 0.81898 0.0
C716 C 0.02058 0.84814 0.4155 0.0
C717 C 0.99368 0.83807 0.39664 0.0
C718 C 0.01748 0.87298 0.43921 0.0
C719 C 0.98744 0.88856 0.44468 0.0
H720 H 0.04364 0.83521 0.41346 0.0
H721 H 0.03849 0.87913 0.45438 0.0
S722 S 0.91071 0.87376 0.3984 0.0
N723 N 0.93684 0.84705 0.38235 0.0
N724 N 0.93104 0.8948 0.42706 0.0
C725 C 0.96084 0.88054 0.42423 0.0
C726 C 0.96399 0.85485 0.40008 0.0
C727 C 0.38253 0.75767 0.66436 0.0
C728 C 0.40884 0.73547 0.66401 0.0
C729 C 0.35587 0.7521 0.68565 0.0
C730 C 0.35512 0.72422 0.70688 0.0
H731 H 0.38317 0.77991 0.6492 0.0
H732 H 0.33616 0.76987 0.68595 0.0
S733 S 0.41629 0.65657 0.71032 0.0
N734 N 0.43111 0.68333 0.68313 0.0
N735 N 0.38168 0.67271 0.72315 0.0
C736 C 0.38086 0.70134 0.70526 0.0
C737 C 0.40755 0.70696 0.68367 0.0
C738 C 0.47915 0.14275 0.93528 0.0
C739 C 0.50317 0.16345 0.92146 0.0
C740 C 0.48652 0.11028 0.94475 0.0
C741 C 0.51818 0.09763 0.94096 0.0
H742 H 0.45433 0.15146 0.93802 0.0
H743 H 0.46701 0.0946 0.95388 0.0
S744 S 0.59042 0.14343 0.90943 0.0
N745 N 0.56014 0.17017 0.90647 0.0
N746 N 0.57427 0.10909 0.92473 0.0
C747 C 0.54266 0.1185 0.92811 0.0
C748 C 0.53505 0.15146 0.91821 0.0
C749 C 0.11917 0.28098 0.13612 0.0
C750 C 0.0916 0.26441 0.14852 0.0
C751 C 0.14728 0.28455 0.15515 0.0
C752 C 0.14971 0.27161 0.18772 0.0
H753 H 0.11926 0.29158 0.11125 0.0
H754 H 0.1677 0.29724 0.14364 0.0
S755 S 0.08404 0.2272 0.23311 0.0
N756 N 0.06793 0.23544 0.19619 0.0
N757 N 0.12153 0.24234 0.23227 0.0
C758 C 0.12235 0.25508 0.20091 0.0
C759 C 0.09314 0.25157 0.18133 0.0
C760 C 0.03985 0.98267 0.15248 0.0
C761 C 0.07325 0.9843 0.16095 0.0
C762 C 0.02957 0.97609 0.11968 0.0
C763 C 0.05231 0.97058 0.09415 0.0
H764 H 0.02138 0.98644 0.17141 0.0
H765 H 0.00371 0.97507 0.11434 0.0
S766 S 0.14227 0.97826 0.10156 0.0
N767 N 0.12879 0.98396 0.13996 0.0
N768 N 0.10961 0.97128 0.07852 0.0
C769 C 0.08573 0.97332 0.10196 0.0
C770 C 0.09618 0.98019 0.13529 0.0
C771 C 0.23972 0.80469 0.4001 0.0
C772 C 0.2519 0.83709 0.39874 0.0
C773 C 0.24584 0.78242 0.37478 0.0
C774 C 0.26402 0.79161 0.34661 0.0
H775 H 0.22617 0.79592 0.42163 0.0
H776 H 0.23633 0.75751 0.37756 0.0
S777 S 0.29614 0.8753 0.32775 0.0
N778 N 0.27963 0.87891 0.36526 0.0
N779 N 0.29023 0.83649 0.31615 0.0
C780 C 0.27392 0.82476 0.34318 0.0
C781 C 0.26803 0.84773 0.36966 0.0
C782 C 0.46468 0.01308 0.65785 0.0
C783 C 0.43281 0.00132 0.66364 0.0
C784 C 0.47562 0.01997 0.62545 0.0
C785 C 0.45505 0.0149 0.5981 0.0
H786 H 0.48111 0.01735 0.67857 0.0
H787 H 0.50001 0.02966 0.62181 0.0
S788 S 0.37109 0.98097 0.59931 0.0
N789 N 0.38183 0.98261 0.63903 0.0
N790 N 0.40252 -0.00449 0.57804 0.0
C791 C 0.42354 0.00234 0.60336 0.0
C792 C 0.41232 -0.00445 0.63624 0.0
C793 C 0.27101 0.18405 0.89329 0.0
C794 C 0.25138 0.15634 0.9002 0.0
C795 C 0.26566 0.203 0.86452 0.0
C796 C 0.24042 0.19458 0.84249 0.0
H797 H 0.28927 0.19208 0.91107 0.0
H798 H 0.2788 0.22611 0.86147 0.0
S799 S 0.18538 0.1224 0.8475 0.0
N800 N 0.20849 0.11949 0.88115 0.0
N801 N 0.19861 0.15525 0.82697 0.0
C802 C 0.22335 0.165 0.84728 0.0
C803 C 0.22862 0.14584 0.87646 0.0
C804 C 0.08538 0.98082 0.36241 0.0
C805 C 0.0925 0.00436 0.33751 0.0
C806 C 0.06414 0.98855 0.38889 0.0
C807 C 0.04941 0.01998 0.391 0.0
H808 H 0.09457 0.9558 0.36027 0.0
H809 H 0.05779 0.96927 0.40659 0.0
S810 S 0.06582 0.09165 0.3351 0.0
N811 N 0.08731 0.06111 0.31906 0.0
N812 N 0.04754 0.07596 0.36828 0.0
C813 C 0.0587 0.0443 0.36757 0.0
C814 C 0.08022 0.03638 0.34092 0.0
C815 C 0.2125 0.80944 0.57912 0.0
C816 C 0.24414 0.81999 0.571 0.0
C817 C 0.20573 0.79586 0.61063 0.0
C818 C 0.23062 0.79181 0.6344 0.0
H819 H 0.19304 0.81143 0.56094 0.0
H820 H 0.18091 0.7888 0.61659 0.0
S821 S 0.31654 0.81917 0.626 0.0
N822 N 0.29989 0.8278 0.58947 0.0
N823 N 0.28731 0.80219 0.6487 0.0
C824 C 0.26221 0.8028 0.62656 0.0
C825 C 0.26895 0.81691 0.59476 0.0
C826 C 0.40431 0.00297 0.86413 0.0
C827 C 0.40385 0.98062 0.83739 0.0
C828 C 0.42553 -0.00204 0.89113 0.0
C829 C 0.44687 0.97067 0.89166 0.0
H830 H 0.39055 0.0258 0.86275 0.0
H831 H 0.42751 0.01713 0.9099 0.0
S832 S 0.4482 0.90098 0.83228 0.0
N833 N 0.42109 0.927 0.81689 0.0
N834 N 0.46182 0.91828 0.86687 0.0
C835 C 0.44381 0.94647 0.86711 0.0
C836 C 0.422 0.95133 0.84005 0.0
C837 C 0.22902 0.16031 0.10395 0.0
C838 C 0.25503 0.15873 0.08121 0.0
C839 C 0.23309 0.175 0.13534 0.0
C840 C 0.26311 0.18909 0.14459 0.0
H841 H 0.20483 0.15254 0.09642 0.0
H842 H 0.21176 0.17855 0.15091 0.0
S843 S 0.34009 0.1854 0.09674 0.0
N844 N 0.31302 0.16724 0.07228 0.0
N845 N 0.32027 0.19604 0.13097 0.0
C846 C 0.29007 0.18429 0.12371 0.0
C847 C 0.2861 0.16877 0.09196 0.0
C848 C 0.15954 0.05817 -0.00741 0.0
C849 C 0.15615 0.08902 0.9768 0.0
C850 C 0.13418 0.03514 -0.00721 0.0
C851 C 0.10406 0.04164 0.97711 0.0
H852 H 0.18201 0.05161 0.00516 0.0
H853 H 0.13835 0.01189 0.00564 0.0
S854 S 0.08201 0.11872 0.93252 0.0
N855 N 0.11977 0.12522 0.94536 0.0
N856 N 0.07202 0.08127 0.94567 0.0
C857 C 0.09991 0.07247 0.9616 0.0
C858 C 0.12593 0.09627 0.96144 0.0
C859 C 0.63861 0.39532 0.00783 0.0
C860 C 0.66453 0.41691 0.0009 0.0
C861 C 0.60793 0.40729 0.01628 0.0
C862 C 0.60154 0.44143 0.0176 0.0
H863 H 0.64197 0.36875 0.00677 0.0
H864 H 0.58869 0.38941 0.02077 0.0
S865 S 0.66099 0.50871 0.00138 0.0
N866 N 0.68219 0.47432 -0.00374 0.0
N867 N 0.62355 0.49697 0.01119 0.0
C868 C 0.6271 0.46357 0.01065 0.0
C869 C 0.65888 0.45126 0.00267 0.0
C870 C 0.82148 0.39514 0.23449 0.0
C871 C 0.84871 0.39483 0.25565 0.0
C872 C 0.79686 0.37164 0.23794 0.0
C873 C 0.79857 0.34703 0.26264 0.0
H874 H 0.81889 0.41406 0.21545 0.0
H875 H 0.77613 0.37284 0.22119 0.0
S876 S 0.86512 0.33469 0.32368 0.0
N877 N 0.87657 0.36735 0.30165 0.0
N878 N 0.82983 0.32264 0.30784 0.0
C879 C 0.82612 0.34548 0.28322 0.0
C880 C 0.85138 0.36958 0.27976 0.0
C881 C 0.85747 0.56073 0.47779 0.0
C882 C 0.83738 0.57325 0.50315 0.0
C883 C 0.88622 0.54379 0.4858 0.0
C884 C 0.89518 0.53895 0.5193 0.0
H885 H 0.85051 0.56338 0.45183 0.0
H886 H 0.90058 0.5331 0.4659 0.0
S887 S 0.85314 0.5722 0.59393 0.0
N888 N 0.82993 0.58341 0.56221 0.0
N889 N 0.88396 0.55166 0.5775 0.0
C890 C 0.87621 0.55335 0.54455 0.0
C891 C 0.84716 0.57049 0.53639 0.0
C892 C 0.1928 0.07831 0.26362 0.0
C893 C 0.16328 0.08419 0.24691 0.0
C894 C 0.21385 0.10437 0.27131 0.0
C895 C 0.20642 0.13715 0.26211 0.0
H896 H 0.19864 0.05386 0.27301 0.0
H897 H 0.23549 0.0989 0.2858 0.0
S898 S 0.13852 0.16324 0.20721 0.0
N899 N 0.13173 0.1235 0.21415 0.0
N900 N 0.17211 0.1726 0.2279 0.0
C901 C 0.17951 0.1426 0.24121 0.0
C902 C 0.15765 0.11605 0.23385 0.0
C903 C 0.34163 0.9344 0.48857 0.0
C904 C 0.34751 0.90209 0.4772 0.0
C905 C 0.36558 0.9586 0.48717 0.0
C906 C 0.39685 0.95166 0.47482 0.0
H907 H 0.31813 0.94145 0.4986 0.0
H908 H 0.35945 0.98289 0.49665 0.0
S909 S 0.42606 0.87035 0.44418 0.0
N910 N 0.3876 0.86376 0.45451 0.0
N911 N 0.43326 0.90974 0.45232 0.0
C912 C 0.4037 0.91924 0.46418 0.0
C913 C 0.37894 0.89433 0.46539 0.0
C914 C 0.84315 0.60255 0.21496 0.0
C915 C 0.82617 0.57752 0.23182 0.0
C916 C 0.8279 0.63222 0.20637 0.0
C917 C 0.79519 0.63863 0.2151 0.0
H918 H 0.86855 0.59921 0.20833 0.0
H919 H 0.84257 0.6509 0.194 0.0
S920 S 0.73927 0.57981 0.25738 0.0
N921 N 0.77423 0.55965 0.255 0.0
N922 N 0.74574 0.61644 0.24006 0.0
C923 C 0.77757 0.61342 0.23129 0.0
C924 C 0.793 0.5826 0.23929 0.0
C925 C 0.66817 0.37894 0.7636 0.0
C926 C 0.67019 0.40295 0.73807 0.0
C927 C 0.6866 0.34961 0.76205 0.0
C928 C 0.70664 0.34327 0.73444 0.0
H929 H 0.65377 0.38372 0.78573 0.0
H930 H 0.68643 0.33279 0.78313 0.0
S931 S 0.71624 0.39591 0.65901 0.0
N932 N 0.69137 0.41705 0.68334 0.0
N933 N 0.72455 0.36142 0.67948 0.0
C934 C 0.70663 0.36592 0.70766 0.0
C935 C 0.68882 0.396 0.70973 0.0
C936 C 0.02401 0.83576 0.9321 0.0
C937 C 0.00141 0.83167 0.90627 0.0
C938 C 0.02746 0.86618 0.94799 0.0
C939 C 0.0088 0.89379 0.93831 0.0
H940 H 0.04029 0.81577 0.93896 0.0
H941 H 0.04672 0.86882 0.96633 0.0
S942 S 0.94006 0.89258 0.87834 0.0
N943 N 0.95554 0.85492 0.8762 0.0
N944 N 0.96261 0.91304 0.90567 0.0
C945 C 0.98391 0.88908 0.91471 0.0
C946 C 0.98019 0.85772 0.89863 0.0
C947 C 0.91174 0.23991 0.69747 0.0
C948 C 0.91279 0.23559 0.66252 0.0
C949 C 0.88216 0.24611 0.71398 0.0
C950 C 0.85295 0.2476 0.69599 0.0
H951 H 0.93407 0.24088 0.71185 0.0
H952 H 0.88242 0.25181 0.74039 0.0
S953 S 0.84168 0.23225 0.60553 0.0
N954 N 0.88134 0.22883 0.61153 0.0
N955 N 0.826 0.24047 0.64253 0.0
C956 C 0.85332 0.24039 0.66172 0.0
C957 C 0.88323 0.23428 0.64495 0.0
C958 C 0.52342 0.14401 0.4276 0.0
C959 C 0.50059 0.16084 0.40773 0.0
C960 C 0.51553 0.11326 0.44191 0.0
C961 C 0.48434 0.09961 0.43729 0.0
H962 H 0.54609 0.15595 0.4345 0.0
H963 H 0.53233 0.10218 0.45955 0.0
S964 S 0.41832 0.13231 0.38337 0.0
N965 N 0.44786 0.15994 0.38045 0.0
N966 N 0.43259 0.10273 0.40784 0.0
C967 C 0.46296 0.11459 0.41443 0.0
C968 C 0.47121 0.14529 0.39952 0.0
C969 C 0.60563 0.76571 0.16959 0.0
C970 C 0.59594 0.74172 0.14647 0.0
C971 C 0.62925 0.75837 0.19359 0.0
C972 C 0.64336 0.72673 0.19549 0.0
H973 H 0.5947 0.7901 0.16928 0.0
H974 H 0.63625 0.77746 0.21117 0.0
S975 S 0.62388 0.65467 0.14239 0.0
N976 N 0.60078 0.68482 0.12762 0.0
N977 N 0.64501 0.67087 0.17349 0.0
C978 C 0.63361 0.70239 0.17284 0.0
C979 C 0.60983 0.70998 0.14806 0.0
C980 C 0.0338 0.14423 0.54686 0.0
C981 C 0.00846 0.15648 0.56709 0.0
C982 C 0.03199 0.11289 0.5327 0.0
C983 C 0.00485 0.09279 0.53844 0.0
H984 H 0.05465 0.15957 0.54064 0.0
H985 H 0.0509 0.10521 0.5155 0.0
S986 S 0.93388 0.11096 0.59228 0.0
N987 N 0.95685 0.14454 0.5947 0.0
N988 N 0.95341 0.08522 0.56734 0.0
C989 C 0.98036 0.1035 0.56025 0.0
C990 C 0.98223 0.1355 0.57497 0.0
C991 C 0.61852 0.25244 0.34127 0.0
C992 C 0.5911 0.24061 0.32381 0.0
C993 C 0.6483 0.25702 0.32498 0.0
C994 C 0.65146 0.24982 0.29093 0.0
H995 H 0.61627 0.26139 0.36662 0.0
H996 H 0.66749 0.27032 0.33788 0.0
S997 S 0.59115 0.20674 0.238 0.0
N998 N 0.57186 0.21302 0.27361 0.0
N999 N 0.6282 0.22208 0.24295 0.0
C1000 C 0.62626 0.23256 0.27506 0.0
C1001 C 0.59578 0.22797 0.29153 0.0
C1002 C 0.49929 0.86033 0.08699 0.0
C1003 C 0.49781 0.82877 0.07248 0.0
C1004 C 0.49477 0.88882 0.06757 0.0
C1005 C 0.48827 0.88661 0.03318 0.0
H1006 H 0.50298 0.86302 0.11362 0.0
H1007 H 0.49498 0.91269 0.07982 0.0
S1008 S 0.48435 0.81053 0.98257 0.0
N1009 N 0.49181 0.79736 0.02087 0.0
N1010 N 0.48234 0.85126 0.98497 0.0
C1011 C 0.48806 0.85559 0.01807 0.0
C1012 C 0.49319 0.82652 0.03761 0.0
C1013 C 0.91362 0.73433 0.80001 0.0
C1014 C 0.91164 0.75701 0.8266 0.0
C1015 C 0.88635 0.72756 0.77995 0.0
C1016 C 0.85676 0.74416 0.78507 0.0
H1017 H 0.93538 0.71959 0.7965 0.0
H1018 H 0.88768 0.7075 0.76212 0.0
S1019 S 0.84056 0.80989 0.84719 0.0
N1020 N 0.87877 0.799 0.85405 0.0
N1021 N 0.8281 0.78703 0.81557 0.0
C1022 C 0.85562 0.76951 0.80894 0.0
C1023 C 0.88295 0.77575 0.82997 0.0
C1024 C 0.9162 0.97897 0.84931 0.0
C1025 C 0.91795 0.00265 0.82374 0.0
C1026 C 0.93325 0.98356 0.87935 0.0
C1027 C 0.95271 0.01178 0.88465 0.0
H1028 H 0.90064 0.95746 0.84656 0.0
H1029 H 0.92909 0.96631 0.89958 0.0
S1030 S 0.96422 0.08142 0.82554 0.0
N1031 N 0.94018 0.05536 0.80543 0.0
N1032 N 0.97205 0.06397 0.86201 0.0
C1033 C 0.95496 0.03532 0.85895 0.0
C1034 C 0.93772 0.03065 0.82837 0.0
C1035 C 0.75484 0.20223 0.57811 0.0
C1036 C 0.74735 0.1685 0.57685 0.0
C1037 C 0.75376 0.2194 0.60778 0.0
C1038 C 0.74612 0.20354 0.63808 0.0
H1039 H 0.75999 0.21606 0.55546 0.0
H1040 H 0.75861 0.24573 0.60648 0.0
S1041 S 0.73056 0.11352 0.64893 0.0
N1042 N 0.73545 0.11833 0.60821 0.0
N1043 N 0.73508 0.15067 0.66557 0.0
C1044 C 0.74104 0.16896 0.63774 0.0
C1045 C 0.74153 0.15134 0.60677 0.0
C1046 C 0.59664 0.9848 0.36178 0.0
C1047 C 0.58236 -0.00696 0.3311 0.0
C1048 C 0.5772 0.9783 0.38963 0.0
C1049 C 0.54304 0.97985 0.38755 0.0
H1050 H 0.6228 0.98192 0.36399 0.0
H1051 H 0.5889 0.97105 0.41277 0.0
S1052 S 0.49378 0.0058 0.31503 0.0
N1053 N 0.53182 0.00657 0.30159 0.0
N1054 N 0.49572 -0.00587 0.35451 0.0
C1055 C 0.52847 0.99057 0.35808 0.0
C1056 C 0.54812 -0.00274 0.32962 0.0
C1057 C 0.7298 0.78728 0.09586 0.0
C1058 C 0.73577 0.82054 0.08738 0.0
C1059 C 0.73424 0.77595 0.12854 0.0
C1060 C 0.74625 0.79725 0.1533 0.0
H1061 H 0.72457 0.76928 0.07658 0.0
H1062 H 0.73332 0.74948 0.13298 0.0
S1063 S 0.75467 0.88822 0.14664 0.0
N1064 N 0.74496 0.87624 0.10849 0.0
N1065 N 0.75577 0.8542 0.16961 0.0
C1066 C 0.74718 0.8313 0.14646 0.0
C1067 C 0.74149 0.84315 0.11337 0.0
C1068 C 0.9007 0.97851 0.62667 0.0
C1069 C 0.91622 -0.00105 0.65005 0.0
C1070 C 0.91632 0.97058 0.59667 0.0
C1071 C 0.94743 0.98328 0.58943 0.0
H1072 H 0.87882 0.96504 0.63347 0.0
H1073 H 0.90607 0.95109 0.58137 0.0
S1074 S 0.99264 0.04624 0.63769 0.0
N1075 N 0.96004 0.03803 0.66054 0.0
N1076 N 0.98927 0.02326 0.6038 0.0
C1077 C 0.96016 0.00827 0.60975 0.0
C1078 C 0.94451 0.01607 0.64041 0.0
C1079 C 0.74277 0.14731 0.3762 0.0
C1080 C 0.75297 0.16169 0.40615 0.0
C1081 C 0.74637 0.16429 0.34608 0.0
C1082 C 0.76089 0.19579 0.34499 0.0
H1083 H 0.73292 0.12241 0.37591 0.0
H1084 H 0.73957 0.15185 0.32316 0.0
S1085 S 0.78874 0.24554 0.41682 0.0
N1086 N 0.77531 0.21062 0.43349 0.0
N1087 N 0.78311 0.242 0.37613 0.0
C1088 C 0.76935 0.21142 0.37481 0.0
C1089 C 0.76512 0.19439 0.4057 0.0
C1090 C 0.53817 -0.00636 0.15911 0.0
C1091 C 0.57175 -0.00053 0.16111 0.0
C1092 C 0.52214 -0.00591 0.1289 0.0
C1093 C 0.53895 -0.00087 0.09872 0.0
H1094 H 0.5237 0.98962 0.18143 0.0
H1095 H 0.49599 0.99025 0.12951 0.0
S1096 S 0.62771 0.01453 0.09029 0.0
N1097 N 0.62195 0.0105 0.13093 0.0
N1098 N 0.5916 0.00959 0.07256 0.0
C1099 C 0.57288 0.00441 0.09999 0.0
C1100 C 0.58939 0.00459 0.13153 0.0
C1101 C 0.74952 0.84064 0.88164 0.0
C1102 C 0.73546 0.83029 0.912 0.0
C1103 C 0.74943 0.81967 0.85348 0.0
C1104 C 0.73527 0.78784 0.85495 0.0
H1105 H 0.76203 0.86422 0.88015 0.0
H1106 H 0.76215 0.82761 0.83114 0.0
S1107 S 0.68858 0.75283 0.92588 0.0
N1108 N 0.70204 0.78879 0.93972 0.0
N1109 N 0.70245 0.74953 0.88735 0.0
C1110 C 0.71886 0.77862 0.88422 0.0
C1111 C 0.71879 0.79983 0.9126 0.0
C1112 C 0.83454 0.93382 0.01157 0.0
C1113 C 0.83966 0.90171 -0.00106 0.0
C1114 C 0.86056 0.95602 0.01629 0.0
C1115 C 0.89297 0.94718 0.00873 0.0
H1116 H 0.81016 0.94213 0.01759 0.0
H1117 H 0.85504 0.98073 0.02505 0.0
S1118 S 0.92014 0.86584 0.97632 0.0
N1119 N 0.88023 0.86202 0.97997 0.0
N1120 N 0.92883 0.90359 -0.01083 0.0
C1121 C 0.89867 0.91479 -0.00261 0.0
C1122 C 0.87215 0.8922 -0.00768 0.0
C1123 C 0.35172 0.55142 0.01089 0.0
C1124 C 0.33476 0.56574 0.98408 0.0
C1125 C 0.38276 0.53754 0.00597 0.0
C1126 C 0.39733 0.53773 0.97414 0.0
H1127 H 0.34181 0.55264 0.03592 0.0
H1128 H 0.39635 0.52896 0.02749 0.0
S1129 S 0.35994 0.56748 0.89537 0.0
N1130 N 0.33265 0.57588 0.92442 0.0
N1131 N 0.39061 0.54955 0.91502 0.0
C1132 C 0.37923 0.5496 0.9469 0.0
C1133 C 0.34799 0.56378 0.95194 0.0
C1134 C 0.18535 0.58869 0.75091 0.0
C1135 C 0.15295 0.59294 0.74029 0.0
C1136 C 0.20942 0.61168 0.74265 0.0
C1137 C 0.20196 0.63995 0.72368 0.0
H1138 H 0.19226 0.56733 0.76571 0.0
H1139 H 0.23387 0.60776 0.75209 0.0
S1140 S 0.12151 0.66233 0.68875 0.0
N1141 N 0.11493 0.62717 0.70884 0.0
N1142 N 0.16051 0.67105 0.69414 0.0
C1143 C 0.16981 0.64477 0.71304 0.0
C1144 C 0.14518 0.62113 0.72119 0.0
C1145 C 0.12965 0.41416 0.51698 0.0
C1146 C 0.15768 0.42498 0.49975 0.0
C1147 C 0.09864 0.42593 0.50801 0.0
C1148 C 0.09542 0.44816 0.48129 0.0
H1149 H 0.1316 0.39523 0.53609 0.0
H1150 H 0.07722 0.41614 0.52044 0.0
S1151 S 0.16121 0.48334 0.42859 0.0
N1152 N 0.18016 0.45934 0.45568 0.0
N1153 N 0.12229 0.48126 0.43865 0.0
C1154 C 0.12345 0.46032 0.46529 0.0
C1155 C 0.15462 0.44874 0.47458 0.0
C1156 C 0.84796 0.86515 0.7503 0.0
C1157 C 0.83823 0.89845 0.75418 0.0
C1158 C 0.8252 0.84022 0.74245 0.0
C1159 C 0.79201 0.84773 0.73827 0.0
H1160 H 0.87354 0.85862 0.75087 0.0
H1161 H 0.83406 0.81564 0.73668 0.0
S1162 S 0.75267 0.92865 0.75333 0.0
N1163 N 0.79186 0.93574 0.75948 0.0
N1164 N 0.74974 0.88909 0.74358 0.0
C1165 C 0.78154 0.87989 0.74549 0.0
C1166 C 0.80447 0.90518 0.75383 0.0
C1167 C 0.62701 0.08859 0.5012 0.0
C1168 C 0.65668 0.0799 0.48603 0.0
C1169 C 0.60254 0.06503 0.5066 0.0
C1170 C 0.60678 0.03195 0.49673 0.0
H1171 H 0.62262 0.11387 0.50893 0.0
H1172 H 0.57977 0.07313 0.51751 0.0
S1173 S 0.68127 -0.00365 0.45773 0.0
N1174 N 0.68978 0.03597 0.46258 0.0
N1175 N 0.64422 -0.00867 0.47294 0.0
C1176 C 0.63711 0.02267 0.48286 0.0
C1177 C 0.66192 0.04675 0.47736 0.0
C1178 C 0.15692 0.38064 0.73854 0.0
C1179 C 0.17423 0.41065 0.73835 0.0
C1180 C 0.17234 0.35112 0.7469 0.0
C1181 C 0.20553 0.35064 0.75523 0.0
H1182 H 0.13086 0.38014 0.73417 0.0
H1183 H 0.15782 0.32871 0.74851 0.0
S1184 S 0.26339 0.42061 0.75136 0.0
N1185 N 0.22768 0.43707 0.74189 0.0
N1186 N 0.25656 0.38077 0.75769 0.0
C1187 C 0.22399 0.37949 0.75178 0.0
C1188 C 0.2083 0.40982 0.7432 0.0
C1189 C 0.29514 0.58116 0.23528 0.0
C1190 C 0.32866 0.58218 0.22817 0.0
C1191 C 0.27833 0.60989 0.24378 0.0
C1192 C 0.2944 0.64048 0.24552 0.0
H1193 H 0.28252 0.55773 0.2379 0.0
H1194 H 0.25359 0.60747 0.253 0.0
S1195 S 0.37821 0.658 0.2158 0.0
N1196 N 0.37474 0.6173 0.21351 0.0
N1197 N 0.34293 0.67172 0.23019 0.0
C1198 C 0.3263 0.64276 0.23299 0.0
C1199 C 0.34356 0.61333 0.2242 0.0
C1200 C 0.5205 0.63933 0.55542 0.0
C1201 C 0.49789 0.65804 0.57402 0.0
C1202 C 0.51179 0.60865 0.54158 0.0
C1203 C 0.48002 0.59631 0.54521 0.0
H1204 H 0.54443 0.64932 0.5499 0.0
H1205 H 0.52896 0.59608 0.52558 0.0
S1206 S 0.41438 0.63157 0.59769 0.0
N1207 N 0.44445 0.65862 0.6004 0.0
N1208 N 0.42799 0.60162 0.57348 0.0
C1209 C 0.45859 0.61279 0.56682 0.0
C1210 C 0.46755 0.64359 0.58146 0.0
C1211 C 0.5902 0.21935 0.79306 0.0
C1212 C 0.586 0.23752 0.82282 0.0
C1213 C 0.62165 0.21246 0.78063 0.0
C1214 C 0.64944 0.2235 0.79784 0.0
H1215 H 0.56921 0.20989 0.77972 0.0
H1216 H 0.62424 0.19786 0.75815 0.0
S1217 S 0.65211 0.27431 0.87447 0.0
N1218 N 0.61297 0.2684 0.86725 0.0
N1219 N 0.67122 0.25471 0.84425 0.0
C1220 C 0.64553 0.2424 0.82671 0.0
C1221 C 0.614 0.24963 0.83913 0.0
C1222 C 0.03249 0.34981 0.08064 0.0
C1223 C 0.00101 0.33645 0.07986 0.0
C1224 C 0.04058 0.37698 0.06056 0.0
C1225 C 0.01727 0.3918 0.03959 0.0
H1226 H 0.05129 0.33826 0.09566 0.0
H1227 H 0.06556 0.38573 0.0605 0.0
S1228 S 0.93146 0.3654 0.02912 0.0
N1229 N 0.94635 0.33958 0.0572 0.0
N1230 N 0.96139 0.39115 0.01949 0.0
C1231 C 0.98533 0.37934 0.03965 0.0
C1232 C 0.97724 0.35142 0.05983 0.0
C1233 C 0.87168 0.74561 0.34546 0.0
C1234 C 0.90195 0.75959 0.33671 0.0
C1235 C 0.84577 0.74515 0.32256 0.0
C1236 C 0.84951 0.75899 0.29055 0.0
H1237 H 0.86844 0.73386 0.36957 0.0
H1238 H 0.82335 0.73264 0.32939 0.0
S1239 S 0.92231 0.80332 0.25809 0.0
N1240 N 0.93304 0.79069 0.2957 0.0
N1241 N 0.88451 0.79031 0.25283 0.0
C1242 C 0.87909 0.77476 0.28248 0.0
C1243 C 0.90533 0.77493 0.30554 0.0
C1244 C 0.46329 0.33926 0.91917 0.0
C1245 C 0.48811 0.33729 0.89519 0.0
C1246 C 0.46066 0.36668 0.94003 0.0
C1247 C 0.48286 0.39304 0.93771 0.0
H1248 H 0.44702 0.31856 0.92337 0.0
H1249 H 0.44262 0.36614 0.95979 0.0
S1250 S 0.55125 0.40071 0.87773 0.0
N1251 N 0.53413 0.36477 0.86866 0.0
N1252 N 0.52942 0.41653 0.90845 0.0
C1253 C 0.50639 0.39259 0.91222 0.0
C1254 C 0.50898 0.36456 0.89074 0.0
C1255 C 0.87863 0.2448 0.14555 0.0
C1256 C 0.90769 0.24986 0.16353 0.0
C1257 C 0.84895 0.2406 0.16227 0.0
C1258 C 0.84775 0.24191 0.19717 0.0
H1259 H 0.87916 0.24145 0.11874 0.0
H1260 H 0.82779 0.23262 0.14822 0.0
S1261 S 0.91477 0.26369 0.25474 0.0
N1262 N 0.93199 0.26259 0.21749 0.0
N1263 N 0.87583 0.25532 0.24857 0.0
C1264 C 0.87548 0.25182 0.21482 0.0
C1265 C 0.90577 0.25535 0.19808 0.0
C1266 C 0.99142 0.65003 0.45049 0.0
C1267 C 0.00421 0.66408 0.421 0.0
C1268 C -0.00109 0.61756 0.45995 0.0
C1269 C 0.01971 0.59791 0.44049 0.0
H1270 H 0.97514 0.66402 0.46634 0.0
H1271 H 0.98808 0.60775 0.48258 0.0
S1272 S 0.05926 0.62251 0.36062 0.0
N1273 N 0.03851 0.65545 0.37217 0.0
N1274 N 0.05271 0.59462 0.39 0.0
C1275 C 0.03288 0.61165 0.41103 0.0
C1276 C 0.02504 0.64462 0.40124 0.0
C1277 C 0.61747 0.73553 0.64219 0.0
C1278 C 0.58955 0.75216 0.65331 0.0
C1279 C 0.64543 0.73384 0.66192 0.0
C1280 C 0.6474 0.75024 0.69268 0.0
H1281 H 0.61807 0.72439 0.61762 0.0
H1282 H 0.66658 0.72141 0.65203 0.0
S1283 S 0.57832 0.78899 0.73727 0.0
N1284 N 0.56289 0.77841 0.70066 0.0
N1285 N 0.61702 0.77756 0.73667 0.0
C1286 C 0.61869 0.76377 0.70589 0.0
C1287 C 0.5894 0.76431 0.68628 0.0
C1288 C 0.54463 0.47128 0.65724 0.0
C1289 C 0.575 0.48716 0.66107 0.0
C1290 C 0.53221 0.46392 0.62555 0.0
C1291 C 0.54966 0.47272 0.59687 0.0
H1292 H 0.5304 0.46444 0.67899 0.0
H1293 H 0.50897 0.45132 0.62346 0.0
S1294 S 0.62896 0.51669 0.59309 0.0
N1295 N 0.62154 0.51251 0.63345 0.0
N1296 N 0.5979 0.49914 0.5737 0.0
C1297 C 0.5798 0.48896 0.60024 0.0
C1298 C 0.59263 0.49606 0.63246 0.0
C1299 C 0.73463 0.33876 0.87276 0.0
C1300 C 0.76064 0.34575 0.89435 0.0
C1301 C 0.73857 0.31624 0.84656 0.0
C1302 C 0.76848 0.30002 0.84161 0.0
H1303 H 0.71054 0.34849 0.87783 0.0
H1304 H 0.71739 0.30934 0.83198 0.0
S1305 S 0.84562 0.31608 0.88641 0.0
N1306 N 0.81851 0.33972 0.90526 0.0
N1307 N 0.82561 0.29646 0.8566 0.0
C1308 C 0.79533 0.30927 0.86094 0.0
C1309 C 0.79144 0.3325 0.88725 0.0
C1310 C 0.92129 0.53235 0.14433 0.0
C1311 C 0.92535 0.50022 0.15704 0.0
C1312 C 0.93299 0.5407 0.11247 0.0
C1313 C 0.94906 0.51714 0.09251 0.0
H1314 H 0.90983 0.55128 0.1594 0.0
H1315 H 0.92946 0.56574 0.10345 0.0
S1316 S 0.96222 0.4285 0.11372 0.0
N1317 N 0.94409 0.44421 0.14683 0.0
N1318 N 0.96612 0.45956 0.08723 0.0
C1319 C 0.95249 0.48468 0.10494 0.0
C1320 C 0.94052 0.47629 0.13711 0.0
C1321 C 0.74715 0.70055 0.41128 0.0
C1322 C 0.75676 0.66748 0.40663 0.0
C1323 C 0.7395 0.72076 0.3842 0.0
C1324 C 0.74115 0.70875 0.35141 0.0
H1325 H 0.74371 0.71056 0.43608 0.0
H1326 H 0.72984 0.74522 0.38915 0.0
S1327 S 0.77413 0.62752 0.32542 0.0
N1328 N 0.77422 0.62595 0.36663 0.0
N1329 N 0.75966 0.66434 0.31529 0.0
C1330 C 0.75473 0.67731 0.3461 0.0
C1331 C 0.76242 0.65646 0.37389 0.0
C1332 C 0.55296 0.50379 0.82868 0.0
C1333 C 0.58529 0.49284 0.83256 0.0
C1334 C 0.53357 0.51101 0.8561 0.0
C1335 C 0.5455 0.50734 0.8886 0.0
H1336 H 0.54273 0.50845 0.8042 0.0
H1337 H 0.50967 0.5216 0.85175 0.0
S1338 S 0.62484 0.47134 0.91311 0.0
N1339 N 0.62618 0.47267 0.87184 0.0
N1340 N 0.58897 0.48652 0.92391 0.0
C1341 C 0.57623 0.49295 0.8933 0.0
C1342 C 0.59642 0.48571 0.86509 0.0
C1343 C 0.75894 0.29047 0.08516 0.0
C1344 C 0.74476 0.31872 0.07038 0.0
C1345 C 0.75159 0.28105 0.11804 0.0
C1346 C 0.72956 0.29934 0.13752 0.0
H1347 H 0.77642 0.27572 0.07147 0.0
H1348 H 0.76387 0.25966 0.12844 0.0
S1349 S 0.68417 0.37441 0.1099 0.0
N1350 N 0.70666 0.3642 0.07743 0.0
N1351 N 0.69243 0.34652 0.13881 0.0
C1352 C 0.71448 0.3272 0.12268 0.0
C1353 C 0.72222 0.3369 0.08932 0.0
C1354 C 0.90073 0.49441 0.36349 0.0
C1355 C 0.91013 0.47973 0.33315 0.0
C1356 C 0.91967 0.4903 0.39246 0.0
C1357 C 0.94809 0.47098 0.39183 0.0
H1358 H 0.88029 0.51132 0.3642 0.0
H1359 H 0.91383 0.50478 0.41433 0.0
S1360 S 0.97936 0.42167 0.32113 0.0
N1361 N 0.94711 0.44099 0.30622 0.0
N1362 N 0.98193 0.43308 0.36052 0.0
C1363 C 0.95552 0.45329 0.36287 0.0
C1364 C 0.93678 0.45781 0.33345 0.0
C1365 C 0.77393 0.65483 0.60095 0.0
C1366 C 0.75093 0.66763 0.57809 0.0
C1367 C 0.77965 0.6709 0.63182 0.0
C1368 C 0.76284 0.7002 0.63993 0.0
H1369 H 0.78885 0.63383 0.59415 0.0
H1370 H 0.79848 0.66161 0.64829 0.0
S1371 S 0.6975 0.74056 0.59054 0.0
N1372 N 0.70779 0.70781 0.56867 0.0
N1373 N 0.72098 0.73944 0.62391 0.0
C1374 C 0.73841 0.71141 0.61827 0.0
C1375 C 0.73174 0.69462 0.58811 0.0
C1376 C 0.66169 0.55522 0.47676 0.0
C1377 C 0.65558 0.58938 0.47522 0.0
C1378 C 0.63628 0.53213 0.47703 0.0
C1379 C 0.60321 0.54179 0.47583 0.0
H1380 H 0.68641 0.54597 0.47831 0.0
H1381 H 0.64293 0.50626 0.47888 0.0
S1382 S 0.57347 0.62819 0.46991 0.0
N1383 N 0.61354 0.63188 0.47139 0.0
N1384 N 0.56582 0.58808 0.47145 0.0
C1385 C 0.59655 0.5758 0.47328 0.0
C1386 C 0.62263 0.5996 0.47317 0.0
C1387 C 0.13795 0.90865 0.48267 0.0
C1388 C 0.16622 0.92311 0.49615 0.0
C1389 C 0.10718 0.92104 0.4899 0.0
C1390 C 0.10337 0.94833 0.51091 0.0
H1391 H 0.13941 0.88693 0.46695 0.0
H1392 H 0.08602 0.9084 0.4799 0.0
S1393 S 0.16902 -0.00214 0.54981 0.0
N1394 N 0.18845 0.96838 0.52932 0.0
N1395 N 0.12972 -0.00861 0.54335 0.0
C1396 C 0.13112 0.96427 0.52346 0.0
C1397 C 0.16285 0.95177 0.51584 0.0
C1398 C 0.31384 0.90591 0.75525 0.0
C1399 C 0.34678 0.89723 0.75116 0.0
C1400 C 0.28972 0.88205 0.75846 0.0
C1401 C 0.29713 0.8482 0.75721 0.0
H1402 H 0.30626 0.93155 0.75637 0.0
H1403 H 0.26483 0.89054 0.7612 0.0
S1404 S 0.37973 0.81187 0.74681 0.0
N1405 N 0.38589 0.85227 0.74614 0.0
N1406 N 0.34006 0.80681 0.75187 0.0
C1407 C 0.33004 0.83881 0.75328 0.0
C1408 C 0.35492 0.86344 0.75021 0.0
C1409 C 0.3386 0.03641 -0.00719 0.0
C1410 C 0.33906 0.07109 -0.00798 0.0
C1411 C 0.36656 0.01867 0.00075 0.0
C1412 C 0.39588 0.03498 0.00805 0.0
H1413 H 0.31622 0.02281 0.98843 0.0
H1414 H 0.36492 -0.00806 0.0025 0.0
S1415 S 0.41146 0.12506 0.00431 0.0
N1416 N 0.37237 0.12111 -0.00483 0.0
N1417 N 0.42524 0.0871 0.01041 0.0
C1418 C 0.39764 0.06939 0.00467 0.0
C1419 C 0.36902 0.08767 -0.00346 0.0
C1420 C 0.68323 0.59559 0.73164 0.0
C1421 C 0.65993 0.59084 0.75711 0.0
C1422 C 0.7062 0.6216 0.73338 0.0
C1423 C 0.70622 0.64376 0.76042 0.0
H1424 H 0.68418 0.57868 0.71074 0.0
H1425 H 0.72502 0.62332 0.71448 0.0
S1426 S 0.65113 0.64146 0.83358 0.0
N1427 N 0.63869 0.61046 0.81 0.0
N1428 N 0.68135 0.65912 0.81296 0.0
C1429 C 0.68227 0.63995 0.78513 0.0
C1430 C 0.65925 0.61354 0.78357 0.0
C1431 C 0.86584 0.41076 0.00379 0.0
C1432 C 0.84667 0.40421 0.97567 0.0
C1433 C 0.89117 0.43392 0.00204 0.0
C1434 C 0.89786 0.45084 0.97213 0.0
H1435 H 0.86081 0.39844 0.0273 0.0
H1436 H 0.90495 0.43943 0.02445 0.0
S1437 S 0.85318 0.44349 0.8924 0.0
N1438 N 0.83501 0.41681 0.91762 0.0
N1439 N 0.88263 0.46076 0.9145 0.0
C1440 C 0.87858 0.44474 0.94406 0.0
C1441 C 0.85292 0.42115 0.94579 0.0
C1442 C 0.31207 0.09589 0.76196 0.0
C1443 C 0.32625 0.07837 0.73543 0.0
C1444 C 0.29477 0.12536 0.75618 0.0
C1445 C 0.29164 0.13831 0.72371 0.0
H1446 H 0.31505 0.08718 0.78737 0.0
H1447 H 0.28593 0.13923 0.77744 0.0
S1448 S 0.32234 0.09977 0.64571 0.0
N1449 N 0.33419 0.07433 0.67565 0.0
N1450 N 0.30213 0.12974 0.66451 0.0
C1451 C 0.30424 0.11976 0.69688 0.0
C1452 C 0.32156 0.0898 0.70281 0.0
C1453 C 0.20326 0.89975 0.24869 0.0
C1454 C 0.16897 0.89936 0.24844 0.0
C1455 C 0.22108 0.87145 0.24092 0.0
C1456 C 0.20522 0.84184 0.2327 0.0
H1457 H 0.21651 0.92256 0.25299 0.0
H1458 H 0.24734 0.87349 0.23857 0.0
S1459 S 0.11668 0.8254 0.23596 0.0
N1460 N 0.12011 0.86514 0.24514 0.0
N1461 N 0.15418 0.81175 0.2301 0.0
C1462 C 0.17135 0.83985 0.23614 0.0
C1463 C 0.153 0.86878 0.24417 0.0
C1464 C 0.51106 0.33513 0.43774 0.0
C1465 C 0.49667 0.33552 0.40598 0.0
C1466 C 0.51609 0.36433 0.45525 0.0
C1467 C 0.50715 0.39499 0.44156 0.0
H1468 H 0.52097 0.31248 0.44809 0.0
H1469 H 0.53002 0.36322 0.47823 0.0
S1470 S 0.45708 0.40768 0.36574 0.0
N1471 N 0.46522 0.36758 0.36587 0.0
N1472 N 0.47531 0.42329 0.39904 0.0
C1473 C 0.48857 0.3954 0.41217 0.0
C1474 C 0.48329 0.36534 0.39416 0.0
C1475 C 0.38643 0.74754 0.14866 0.0
C1476 C 0.41455 0.74205 0.1679 0.0
C1477 C 0.35683 0.75492 0.1636 0.0
C1478 C 0.3539 0.7567 0.19838 0.0
H1479 H 0.38743 0.74777 0.12164 0.0
H1480 H 0.33609 0.7601 0.14764 0.0
S1481 S 0.41769 0.73691 0.26044 0.0
N1482 N 0.43635 0.73385 0.22398 0.0
N1483 N 0.37953 0.7471 0.25211 0.0
C1484 C 0.38067 0.74813 0.21825 0.0
C1485 C 0.41135 0.74095 0.20296 0.0
C1486 C 0.00206 0.65257 0.95843 0.0
C1487 C 0.00785 0.66084 0.92482 0.0
C1488 C -0.00048 0.61967 0.96846 0.0
C1489 C 0.00171 0.59401 0.94506 0.0
H1490 H -0.00337 0.67152 0.97667 0.0
H1491 H 0.99107 0.61462 -0.00638 0.0
S1492 S 0.02965 0.60177 0.85763 0.0
N1493 N 0.02617 0.64037 0.87072 0.0
N1494 N 0.01892 0.57805 0.88949 0.0
C1495 C 0.01266 0.6015 0.91282 0.0
C1496 C 0.01634 0.63519 0.90269 0.0
C1497 C 0.1219 0.22953 0.64872 0.0
C1498 C 0.09259 0.24628 0.65527 0.0
C1499 C 0.14514 0.2246 0.67393 0.0
C1500 C 0.13976 0.23614 0.70656 0.0
H1501 H 0.1271 0.22052 0.62385 0.0
H1502 H 0.16792 0.2127 0.6675 0.0
S1503 S 0.06484 0.27835 0.73713 0.0
N1504 N 0.05826 0.27233 0.69701 0.0
N1505 N 0.10109 0.2624 0.74458 0.0
C1506 C 0.10945 0.25109 0.71379 0.0
C1507 C 0.08612 0.25642 0.68807 0.0
C1508 C 0.53878 0.65371 0.05288 0.0
C1509 C 0.51198 0.65857 0.07416 0.0
C1510 C 0.54548 0.62276 0.03952 0.0
C1511 C 0.52533 0.59553 0.04653 0.0
H1512 H 0.55351 0.6745 0.04466 0.0
H1513 H 0.56436 0.621 0.02067 0.0
S1514 S 0.45804 0.59318 0.10828 0.0
N1515 N 0.46962 0.63242 0.10754 0.0
N1516 N 0.48204 0.57356 0.08176 0.0
C1517 C 0.50141 0.5989 0.0715 0.0
C1518 C 0.4946 0.63075 0.08539 0.0
C1519 C 0.10315 0.72278 0.80442 0.0
C1520 C 0.09518 0.74137 0.83297 0.0
C1521 C 0.13115 0.73028 0.78565 0.0
C1522 C 0.15138 0.75674 0.79493 0.0
H1523 H 0.08653 0.70402 0.79528 0.0
H1524 H 0.13508 0.71766 0.76216 0.0
S1525 S 0.14312 0.81058 0.86893 0.0
N1526 N 0.11174 0.7851 0.87111 0.0
N1527 N 0.16381 0.79915 0.8356 0.0
C1528 C 0.14543 0.77315 0.82502 0.0
C1529 C 0.11732 0.7655 0.84416 0.0
C1530 C 0.0073 0.3585 0.58785 0.0
C1531 C -0.00184 0.32831 0.57334 0.0
C1532 C 0.00506 0.38808 0.56963 0.0
C1533 C 0.99292 0.38823 0.53679 0.0
H1534 H 0.01542 0.35935 0.61356 0.0
H1535 H 0.01089 0.41119 0.58196 0.0
S1536 S 0.96817 0.31579 0.48676 0.0
N1537 N 0.97904 0.30018 0.52323 0.0
N1538 N 0.97372 0.35616 0.48981 0.0
C1539 C 0.98522 0.35824 0.52154 0.0
C1540 C 0.98816 0.32809 0.53967 0.0
C1541 C 0.40646 0.25427 0.30096 0.0
C1542 C 0.40508 0.24986 0.33594 0.0
C1543 C 0.37987 0.2456 0.28046 0.0
C1544 C 0.35163 0.2316 0.29443 0.0
H1545 H 0.42821 0.26431 0.28939 0.0
H1546 H 0.38158 0.24937 0.25374 0.0
S1547 S 0.33511 0.21546 0.38388 0.0
N1548 N 0.37224 0.23112 0.38311 0.0
N1549 N 0.32311 0.21478 0.34465 0.0
C1550 C 0.34977 0.22766 0.32911 0.0
C1551 C 0.37629 0.23677 0.34987 0.0
C1552 C 0.4484 0.50638 0.32763 0.0
C1553 C 0.41495 0.49817 0.32788 0.0
C1554 C 0.46602 0.50974 0.35735 0.0
C1555 C 0.45092 0.50396 0.38809 0.0
H1556 H 0.46066 0.5122 0.30438 0.0
H1557 H 0.491 0.51841 0.35636 0.0
S1558 S 0.36638 0.4745 0.40217 0.0
N1559 N 0.36889 0.47968 0.3613 0.0
N1560 N 0.40252 0.48465 0.41723 0.0
C1561 C 0.41852 0.49257 0.38859 0.0
C1562 C 0.4003 0.48999 0.35842 0.0
C1563 C 0.21437 0.66412 0.09624 0.0
C1564 C 0.24417 0.65574 0.08104 0.0
C1565 C 0.2137 0.68107 0.1265 0.0
C1566 C 0.24284 0.68947 0.14239 0.0
H1567 H 0.1916 0.6605 0.08299 0.0
H1568 H 0.19063 0.69025 0.1358 0.0
S1569 S 0.32667 0.66793 0.11625 0.0
N1570 N 0.30314 0.65319 0.08622 0.0
N1571 N 0.30179 0.68441 0.14402 0.0
C1572 C 0.27251 0.67785 0.12957 0.0
C1573 C 0.27325 0.66091 0.09853 0.0
C1574 C 0.09604 0.48296 0.85819 0.0
C1575 C 0.08252 0.49523 0.8285 0.0
C1576 C 0.07638 0.47679 0.88595 0.0
C1577 C 0.04268 0.48292 0.88503 0.0
H1578 H 0.12161 0.47647 0.85954 0.0
H1579 H 0.08749 0.46634 0.90814 0.0
S1580 S -0.00371 0.52072 0.81574 0.0
N1581 N 0.0339 0.51753 0.80142 0.0
N1582 N -0.00284 0.5058 0.85417 0.0
C1583 C 0.02919 0.49768 0.8567 0.0
C1584 C 0.04914 0.5039 0.82823 0.0
C1585 C 0.27298 0.3413 0.6027 0.0
C1586 C 0.24251 0.33476 0.58845 0.0
C1587 C 0.28255 0.32496 0.63166 0.0
C1588 C 0.2618 0.30183 0.64709 0.0
H1589 H 0.29102 0.35567 0.58915 0.0
H1590 H 0.30762 0.3276 0.63978 0.0
S1591 S 0.17495 0.28798 0.62722 0.0
N1592 N 0.18832 0.31205 0.59675 0.0
N1593 N 0.20625 0.28153 0.65242 0.0
C1594 C 0.22923 0.30012 0.63678 0.0
C1595 C 0.21958 0.31652 0.60681 0.0
C1596 C 0.40837 0.49579 0.12937 0.0
C1597 C 0.4307 0.49467 0.15605 0.0
C1598 C 0.41895 0.49097 0.09639 0.0
C1599 C 0.45212 0.48609 0.08928 0.0
H1600 H 0.38242 0.49693 0.1342 0.0
H1601 H 0.40088 0.4876 0.07698 0.0
S1602 S 0.52068 0.48744 0.14933 0.0
N1603 N 0.48789 0.49325 0.17238 0.0
N1604 N 0.50744 0.48509 0.11054 0.0
C1605 C 0.47488 0.48962 0.11513 0.0
C1606 C 0.46422 0.49359 0.1486 0.0
C1607 C 0.22533 0.66852 0.8875 0.0
C1608 C 0.25365 0.66303 0.90622 0.0
C1609 C 0.22651 0.68774 0.8584 0.0
C1610 C 0.25601 0.70187 0.84758 0.0
H1611 H 0.20257 0.65684 0.89463 0.0
H1612 H 0.20497 0.68919 0.8428 0.0
S1613 S 0.33581 0.69765 0.8904 0.0
N1614 N 0.31102 0.67558 0.91421 0.0
N1615 N 0.31333 0.71143 0.85909 0.0
C1616 C 0.28384 0.69849 0.86752 0.0
C1617 C 0.28265 0.67897 0.89702 0.0
C1618 C 0.08315 0.48498 0.63237 0.0
C1619 C 0.073 0.50392 0.65971 0.0
C1620 C 0.06832 0.4893 0.60113 0.0
C1621 C 0.04324 0.51259 0.59672 0.0
H1622 H 0.10071 0.46525 0.63568 0.0
H1623 H 0.07437 0.47231 0.58118 0.0
S1624 S 0.01294 0.57245 0.65923 0.0
N1625 N 0.04065 0.55048 0.67921 0.0
N1626 N 0.01189 0.55747 0.6209 0.0
C1627 C 0.03515 0.53363 0.62311 0.0
C1628 C 0.05038 0.52957 0.6546 0.0
C1629 C 0.22317 0.30035 0.41024 0.0
C1630 C 0.23722 0.33215 0.40994 0.0
C1631 C 0.22278 0.28044 0.38154 0.0
C1632 C 0.23622 0.2915 0.35117 0.0
H1633 H 0.21266 0.29053 0.43302 0.0
H1634 H 0.21258 0.25576 0.38335 0.0
S1635 S 0.27668 0.37257 0.33718 0.0
N1636 N 0.26498 0.37386 0.37663 0.0
N1637 N 0.2644 0.33636 0.32269 0.0
C1638 C 0.24964 0.32361 0.35022 0.0
C1639 C 0.25006 0.34396 0.37958 0.0
C1640 C 0.3348 0.43457 0.50862 0.0
C1641 C 0.33943 0.4019 0.49732 0.0
C1642 C 0.36114 0.45639 0.51279 0.0
C1643 C 0.39339 0.44655 0.50612 0.0
H1644 H 0.31053 0.44362 0.51402 0.0
H1645 H 0.35607 0.48156 0.52046 0.0
S1646 S 0.41923 0.36396 0.47604 0.0
N1647 N 0.37926 0.36081 0.4799 0.0
N1648 N 0.42859 0.40193 0.4878 0.0
C1649 C 0.39862 0.41377 0.4958 0.0
C1650 C 0.37173 0.39148 0.49136 0.0
C1651 C 0.84078 0.03912 0.50496 0.0
C1652 C 0.83827 0.07177 0.4926 0.0
C1653 C 0.86867 0.01982 0.49893 0.0
C1654 C 0.89436 0.03234 0.47951 0.0
H1655 H 0.82075 0.02815 0.51873 0.0
H1656 H 0.86969 -0.00525 0.50851 0.0
S1657 S 0.90207 0.11735 0.44528 0.0
N1658 N 0.86586 0.11665 0.46323 0.0
N1659 N 0.9175 0.08014 0.45125 0.0
C1660 C 0.89296 0.06538 0.46864 0.0
C1661 C 0.86509 0.08519 0.47534 0.0
C1662 C 0.68608 0.09183 0.26032 0.0
C1663 C 0.6552 0.09332 0.2457 0.0
C1664 C 0.70976 0.11515 0.25226 0.0
C1665 C 0.70345 0.14067 0.22911 0.0
H1666 H 0.69191 0.07259 0.27825 0.0
H1667 H 0.73304 0.11358 0.26496 0.0
S1668 S 0.62809 0.15166 0.1798 0.0
N1669 N 0.62028 0.11976 0.20446 0.0
N1670 N 0.66533 0.16415 0.18932 0.0
C1671 C 0.67296 0.14191 0.21353 0.0
C1672 C 0.64866 0.11802 0.22182 0.0
C1673 C 0.62645 0.89983 -0.00103 0.0
C1674 C 0.65526 0.91741 0.00642 0.0
C1675 C 0.59829 0.91649 0.98876 0.0
C1676 C 0.59818 0.95106 0.98631 0.0
H1677 H 0.62652 0.87305 -0.00229 0.0
H1678 H 0.5779 0.90221 0.97932 0.0
S1679 S 0.66407 0.00867 0.01029 0.0
N1680 N 0.67953 0.97149 0.01674 0.0
N1681 N 0.62639 0.00253 -0.00278 0.0
C1682 C 0.62497 0.96893 -0.00187 0.0
C1683 C 0.65369 0.95211 0.00845 0.0
C1684 C 0.32072 0.4036 0.22388 0.0
C1685 C 0.34227 0.39993 0.25085 0.0
C1686 C 0.30243 0.37713 0.21222 0.0
C1687 C 0.30421 0.34586 0.22734 0.0
H1688 H 0.31908 0.42676 0.21029 0.0
H1689 H 0.28697 0.38129 0.19068 0.0
S1690 S 0.35173 0.3248 0.30337 0.0
N1691 N 0.36124 0.36382 0.29551 0.0
N1692 N 0.32581 0.3136 0.27385 0.0
C1693 C 0.32361 0.34221 0.25615 0.0
C1694 C 0.34292 0.36937 0.26781 0.0
C1695 C 0.15697 0.55497 0.97254 0.0
C1696 C 0.15518 0.58537 -0.01082 0.0
C1697 C 0.13229 0.53138 0.97591 0.0
C1698 C 0.10482 0.53714 -0.00374 0.0
H1699 H 0.17729 0.54964 0.95613 0.0
H1700 H 0.13443 0.50886 0.96149 0.0
S1701 S 0.09211 0.61038 0.05037 0.0
N1702 N 0.12631 0.6185 0.03015 0.0
N1703 N 0.0797 0.57389 0.03681 0.0
C1704 C 0.10375 0.5667 0.0147 0.0
C1705 C 0.12893 0.59092 0.01101 0.0
C1706 C 0.69047 0.90263 0.27345 0.0
C1707 C 0.67423 0.91052 0.24355 0.0
C1708 C 0.70334 0.8709 0.27883 0.0
C1709 C 0.70101 0.84649 0.2541 0.0
H1710 H 0.69144 0.92047 0.29358 0.0
H1711 H 0.71365 0.86493 0.30301 0.0
S1712 S 0.66253 0.85523 0.17098 0.0
N1713 N 0.6576 0.89185 0.18859 0.0
N1714 N 0.68261 0.83244 0.19838 0.0
C1715 C 0.68645 0.85464 0.22348 0.0
C1716 C 0.67281 0.88668 0.21825 0.0
C1717 C 0.8427 0.11307 0.73577 0.0
C1718 C 0.82541 0.08301 0.73287 0.0
C1719 C 0.82674 0.14229 0.74512 0.0
C1720 C 0.79312 0.14218 0.75134 0.0
H1721 H 0.86903 0.11347 0.73386 0.0
H1722 H 0.84121 0.16401 0.75085 0.0
S1723 S 0.73575 0.0725 0.73988 0.0
N1724 N 0.77188 0.0568 0.7311 0.0
N1725 N 0.74229 0.11183 0.74868 0.0
C1726 C 0.77509 0.11367 0.74413 0.0
C1727 C 0.79116 0.08393 0.73479 0.0
loop_
_geom_bond_atom_site_label_1
_geom_bond_atom_site_label_2
_geom_bond_distance
_geom_bond_site_symmetry_2
_ccdc_geom_bond_type
Co0 O1 2.216 . S
Co0 O2 2.091 . S
Co0 O4 2.004 1_655 S
Co0 O10 2.021 . S
Co0 O12 2.137 . S
Co0 O13 2.244 1_655 S
O1 Co0 2.216 . S
O1 C8 1.247 . S
O2 Co0 2.091 . S
O2 C8 1.261 . S
C3 O12 1.247 1_455 S
C3 O13 1.272 . S
O4 Co0 2.004 1_455 S
O4 C9 1.259 . S
Co5 O6 2.061 . S
Co5 O11 2.052 . S
Co5 O13 2.135 . S
O6 Co5 2.061 . S
O6 C9 1.235 . S
C7 O10 1.238 1_455 S
C7 O11 1.241 . S
C8 O1 1.247 . S
C8 O2 1.261 . S
C9 O4 1.259 . S
C9 O6 1.235 . S
O10 Co0 2.021 . S
O10 C7 1.238 1_655 S
O11 Co5 2.052 . S
O11 C7 1.241 . S
O12 Co0 2.137 . S
O12 C3 1.247 1_655 S
O13 Co0 2.244 1_455 S
O13 C3 1.272 . S
O13 Co5 2.135 . S
Co14 O15 2.216 . S
Co14 O16 2.091 . S
Co14 O18 2.004 1_455 S
Co14 O24 2.021 . S
Co14 O26 2.137 . S
Co14 O27 2.244 1_455 S
O15 Co14 2.216 . S
O15 C22 1.247 . S
O16 Co14 2.091 . S
O16 C22 1.261 . S
C17 O26 1.247 . S
C17 O27 1.272 1_455 S
O18 Co14 2.004 1_655 S
O18 C23 1.259 . S
Co19 O20 2.061 . S
Co19 O25 2.052 . S
Co19 O27 2.135 . S
O20 Co19 2.061 . S
O20 C23 1.235 . S
C21 O24 1.238 1_655 S
C21 O25 1.241 . S
C22 O15 1.247 . S
C22 O16 1.261 . S
C23 O18 1.259 . S
C23 O20 1.235 . S
O24 Co14 2.021 . S
O24 C21 1.238 1_455 S
O25 Co19 2.052 . S
O25 C21 1.241 . S
O26 Co14 2.137 . S
O26 C17 1.247 . S
O27 Co14 2.244 1_655 S
O27 C17 1.272 1_655 S
O27 Co19 2.135 . S
Co28 O29 2.216 . S
Co28 O30 2.091 . S
Co28 O32 2.004 . S
Co28 O38 2.021 . S
Co28 O40 2.137 . S
Co28 O41 2.244 . S
O29 Co28 2.216 . S
O29 C36 1.247 . S
O30 Co28 2.091 . S
O30 C36 1.261 . S
C31 O40 1.247 . S
C31 O41 1.272 . S
O32 Co28 2.004 . S
O32 C37 1.259 . S
Co33 O34 2.061 . S
Co33 O39 2.052 . S
Co33 O41 2.135 . S
O34 Co33 2.061 . S
O34 C37 1.235 . S
C35 O38 1.238 . S
C35 O39 1.241 . S
C36 O29 1.247 . S
C36 O30 1.261 . S
C37 O32 1.259 . S
C37 O34 1.235 . S
O38 Co28 2.021 . S
O38 C35 1.238 . S
O39 Co33 2.052 . S
O39 C35 1.241 . S
O40 Co28 2.137 . S
O40 C31 1.247 . S
O41 Co28 2.244 . S
O41 C31 1.272 . S
O41 Co33 2.135 . S
Co42 O43 2.216 . S
Co42 O44 2.091 . S
Co42 O46 2.004 . S
Co42 O52 2.021 . S
Co42 O54 2.137 . S
Co42 O55 2.244 . S
O43 Co42 2.216 . S
O43 C50 1.247 . S
O44 Co42 2.091 . S
O44 C50 1.261 . S
C45 O54 1.247 . S
C45 O55 1.272 . S
O46 Co42 2.004 . S
O46 C51 1.259 . S
Co47 O48 2.061 . S
Co47 O53 2.052 . S
Co47 O55 2.135 . S
O48 Co47 2.061 . S
O48 C51 1.235 . S
C49 O52 1.238 . S
C49 O53 1.241 . S
C50 O43 1.247 . S
C50 O44 1.261 . S
C51 O46 1.259 . S
C51 O48 1.235 . S
O52 Co42 2.021 . S
O52 C49 1.238 . S
O53 Co47 2.052 . S
O53 C49 1.241 . S
O54 Co42 2.137 . S
O54 C45 1.247 . S
O55 Co42 2.244 . S
O55 C45 1.272 . S
O55 Co47 2.135 . S
Co56 O57 2.216 . S
Co56 O58 2.091 . S
Co56 O60 2.004 1_565 S
Co56 O66 2.021 . S
Co56 O68 2.137 . S
Co56 O69 2.244 1_565 S
O57 Co56 2.216 . S
O57 C64 1.247 . S
O58 Co56 2.091 . S
O58 C64 1.261 . S
C59 O68 1.247 1_545 S
C59 O69 1.272 . S
O60 Co56 2.004 1_545 S
O60 C65 1.259 . S
Co61 O62 2.061 . S
Co61 O67 2.052 . S
Co61 O69 2.135 . S
O62 Co61 2.061 . S
O62 C65 1.235 . S
C63 O66 1.238 1_545 S
C63 O67 1.241 . S
C64 O57 1.247 . S
C64 O58 1.261 . S
C65 O60 1.259 . S
C65 O62 1.235 . S
O66 Co56 2.021 . S
O66 C63 1.238 1_565 S
O67 Co61 2.052 . S
O67 C63 1.241 . S
O68 Co56 2.137 . S
O68 C59 1.247 1_565 S
O69 Co56 2.244 1_545 S
O69 C59 1.272 . S
O69 Co61 2.135 . S
Co70 O71 2.216 . S
Co70 O72 2.091 . S
Co70 O74 2.004 . S
Co70 O80 2.021 . S
Co70 O82 2.137 . S
Co70 O83 2.244 . S
O71 Co70 2.216 . S
O71 C78 1.247 . S
O72 Co70 2.091 . S
O72 C78 1.261 . S
C73 O82 1.247 . S
C73 O83 1.272 . S
O74 Co70 2.004 . S
O74 C79 1.259 . S
Co75 O76 2.061 . S
Co75 O81 2.052 . S
Co75 O83 2.135 . S
O76 Co75 2.061 . S
O76 C79 1.235 . S
C77 O80 1.238 . S
C77 O81 1.241 . S
C78 O71 1.247 . S
C78 O72 1.261 . S
C79 O74 1.259 . S
C79 O76 1.235 . S
O80 Co70 2.021 . S
O80 C77 1.238 . S
O81 Co75 2.052 . S
O81 C77 1.241 . S
O82 Co70 2.137 . S
O82 C73 1.247 . S
O83 Co70 2.244 . S
O83 C73 1.272 . S
O83 Co75 2.135 . S
Co84 O85 2.216 . S
Co84 O86 2.091 . S
Co84 O88 2.004 1_545 S
Co84 O94 2.021 . S
Co84 O96 2.137 . S
Co84 O97 2.244 1_545 S
O85 Co84 2.216 . S
O85 C92 1.247 . S
O86 Co84 2.091 . S
O86 C92 1.261 . S
C87 O96 1.247 . S
C87 O97 1.272 1_545 S
O88 Co84 2.004 1_565 S
O88 C93 1.259 . S
Co89 O90 2.061 . S
Co89 O95 2.052 . S
Co89 O97 2.135 . S
O90 Co89 2.061 . S
O90 C93 1.235 . S
C91 O94 1.234 1_565 S
C91 O95 1.247 . S
C92 O85 1.247 . S
C92 O86 1.261 . S
C93 O88 1.259 . S
C93 O90 1.235 . S
O94 Co84 2.021 . S
O94 C91 1.234 1_545 S
O95 Co89 2.052 . S
O95 C91 1.247 . S
O96 Co84 2.137 . S
O96 C87 1.247 . S
O97 Co84 2.244 1_565 S
O97 C87 1.272 1_565 S
O97 Co89 2.135 . S
Co98 O99 2.215 1_556 S
Co98 O100 2.089 1_556 S
Co98 O102 2.005 . S
Co98 O108 1.996 1_556 S
Co98 O110 2.163 . S
Co98 O111 2.255 . S
O99 Co98 2.215 1_554 S
O99 C106 1.247 . S
O100 Co98 2.089 1_554 S
O100 C106 1.261 . S
C101 O110 1.247 . S
C101 O111 1.272 . S
O102 Co98 2.005 . S
O102 C107 1.259 1_556 S
Co103 O104 2.061 . S
Co103 O109 2.052 . S
Co103 O111 2.135 1_554 S
O104 Co103 2.061 . S
O104 C107 1.235 . S
C105 O108 1.238 . S
C105 O109 1.241 . S
C106 O99 1.247 . S
C106 O100 1.261 . S
C107 O102 1.259 1_554 S
C107 O104 1.235 . S
O108 Co98 1.996 1_554 S
O108 C105 1.238 . S
O109 Co103 2.052 . S
O109 C105 1.241 . S
O110 Co98 2.163 . S
O110 C101 1.247 . S
O111 Co98 2.255 . S
O111 C101 1.272 . S
O111 Co103 2.135 1_556 S
Co112 O113 2.216 1_556 S
Co112 O114 2.091 1_556 S
Co112 O116 2.004 . S
Co112 O122 2.021 1_556 S
Co112 O124 2.137 . S
Co112 O125 2.244 . S
O113 Co112 2.216 1_554 S
O113 C120 1.248 . S
O114 Co112 2.091 1_554 S
O114 C120 1.261 . S
C115 O124 1.247 . S
C115 O125 1.272 . S
O116 Co112 2.004 . S
O116 C121 1.259 1_556 S
Co117 O118 2.061 . S
Co117 O123 2.052 . S
Co117 O125 2.135 1_554 S
O118 Co117 2.061 . S
O118 C121 1.235 . S
C119 O122 1.238 . S
C119 O123 1.241 . S
C120 O113 1.248 . S
C120 O114 1.261 . S
C121 O116 1.259 1_554 S
C121 O118 1.235 . S
O122 Co112 2.021 1_554 S
O122 C119 1.238 . S
O123 Co117 2.052 . S
O123 C119 1.241 . S
O124 Co112 2.137 . S
O124 C115 1.247 . S
O125 Co112 2.244 . S
O125 C115 1.272 . S
O125 Co117 2.135 1_556 S
Co126 O127 2.216 . S
Co126 O128 2.091 . S
Co126 O130 2.004 . S
Co126 O136 2.021 . S
Co126 O138 2.137 . S
Co126 O139 2.244 . S
O127 Co126 2.216 . S
O127 C134 1.247 . S
O128 Co126 2.091 . S
O128 C134 1.261 . S
C129 O138 1.247 . S
C129 O139 1.272 . S
O130 Co126 2.004 . S
O130 C135 1.259 . S
Co131 O132 2.061 . S
Co131 O137 2.052 . S
Co131 O139 2.135 . S
O132 Co131 2.061 . S
O132 C135 1.235 . S
C133 O136 1.238 . S
C133 O137 1.241 . S
C134 O127 1.247 . S
C134 O128 1.261 . S
C135 O130 1.259 . S
C135 O132 1.235 . S
O136 Co126 2.021 . S
O136 C133 1.238 . S
O137 Co131 2.052 . S
O137 C133 1.241 . S
O138 Co126 2.137 . S
O138 C129 1.247 . S
O139 Co126 2.244 . S
O139 C129 1.272 . S
O139 Co131 2.135 . S
Co140 O141 2.216 . S
Co140 O142 2.091 . S
Co140 O144 2.004 . S
Co140 O150 2.021 . S
Co140 O152 2.137 . S
Co140 O153 2.244 . S
O141 Co140 2.216 . S
O141 C148 1.247 . S
O142 Co140 2.091 . S
O142 C148 1.261 . S
C143 O152 1.247 . S
C143 O153 1.272 . S
O144 Co140 2.004 . S
O144 C149 1.259 . S
Co145 O146 2.061 . S
Co145 O151 2.052 . S
Co145 O153 2.135 . S
O146 Co145 2.061 . S
O146 C149 1.235 . S
C147 O150 1.238 . S
C147 O151 1.241 . S
C148 O141 1.247 . S
C148 O142 1.261 . S
C149 O144 1.259 . S
C149 O146 1.235 . S
O150 Co140 2.021 . S
O150 C147 1.238 . S
O151 Co145 2.052 . S
O151 C147 1.241 . S
O152 Co140 2.137 . S
O152 C143 1.247 . S
O153 Co140 2.244 . S
O153 C143 1.272 . S
O153 Co145 2.135 . S
Co154 O155 2.216 . S
Co154 O156 2.091 . S
Co154 O158 2.004 . S
Co154 O164 2.021 . S
Co154 O166 2.137 . S
Co154 O167 2.244 . S
O155 Co154 2.216 . S
O155 C162 1.247 . S
O156 Co154 2.091 . S
O156 C162 1.261 . S
C157 O166 1.247 . S
C157 O167 1.272 . S
O158 Co154 2.004 . S
O158 C163 1.259 . S
Co159 O160 2.061 . S
Co159 O165 2.052 . S
Co159 O167 2.135 . S
O160 Co159 2.061 . S
O160 C163 1.235 . S
C161 O164 1.238 . S
C161 O165 1.241 . S
C162 O155 1.247 . S
C162 O156 1.261 . S
C163 O158 1.259 . S
C163 O160 1.235 . S
O164 Co154 2.021 . S
O164 C161 1.238 . S
O165 Co159 2.052 . S
O165 C161 1.241 . S
O166 Co154 2.137 . S
O166 C157 1.247 . S
O167 Co154 2.244 . S
O167 C157 1.272 . S
O167 Co159 2.135 . S
Co168 O169 2.216 . S
Co168 O170 2.091 . S
Co168 O172 2.004 1_455 S
Co168 O178 2.021 . S
Co168 O180 2.137 . S
Co168 O181 2.244 1_455 S
O169 Co168 2.216 . S
O169 C176 1.247 . S
O170 Co168 2.091 . S
O170 C176 1.261 . S
C171 O180 1.247 . S
C171 O181 1.272 1_455 S
O172 Co168 2.004 1_655 S
O172 C177 1.259 . S
Co173 O174 2.061 . S
Co173 O179 2.052 . S
Co173 O181 2.135 . S
O174 Co173 2.061 . S
O174 C177 1.235 . S
C175 O178 1.238 . S
C175 O179 1.241 1_455 S
C176 O169 1.247 . S
C176 O170 1.261 . S
C177 O172 1.259 . S
C177 O174 1.235 . S
O178 Co168 2.021 . S
O178 C175 1.238 . S
O179 Co173 2.052 . S
O179 C175 1.241 1_655 S
O180 Co168 2.137 . S
O180 C171 1.247 . S
O181 Co168 2.244 1_655 S
O181 C171 1.272 1_655 S
O181 Co173 2.135 . S
Co182 O183 2.216 . S
Co182 O184 2.091 . S
Co182 O186 2.004 1_655 S
Co182 O192 2.021 1_655 S
Co182 O194 2.137 . S
Co182 O195 2.244 1_655 S
O183 Co182 2.216 . S
O183 C190 1.247 . S
O184 Co182 2.091 . S
O184 C190 1.261 . S
C185 O194 1.247 1_455 S
C185 O195 1.272 . S
O186 Co182 2.004 1_455 S
O186 C191 1.259 . S
Co187 O188 2.061 . S
Co187 O193 2.052 . S
Co187 O195 2.135 . S
O188 Co187 2.061 . S
O188 C191 1.235 . S
C189 O192 1.237 . S
C189 O193 1.241 . S
C190 O183 1.247 . S
C190 O184 1.261 . S
C191 O186 1.259 . S
C191 O188 1.235 . S
O192 Co182 2.021 1_455 S
O192 C189 1.237 . S
O193 Co187 2.052 . S
O193 C189 1.241 . S
O194 Co182 2.137 . S
O194 C185 1.247 1_655 S
O195 Co182 2.244 1_455 S
O195 C185 1.272 . S
O195 Co187 2.135 . S
Co196 O197 2.216 . S
Co196 O198 2.091 . S
Co196 O200 2.004 . S
Co196 O206 2.021 . S
Co196 O208 2.137 . S
Co196 O209 2.244 . S
O197 Co196 2.216 . S
O197 C204 1.247 . S
O198 Co196 2.091 . S
O198 C204 1.261 . S
C199 O208 1.247 . S
C199 O209 1.272 . S
O200 Co196 2.004 . S
O200 C205 1.259 . S
Co201 O202 2.061 . S
Co201 O207 2.052 . S
Co201 O209 2.135 . S
O202 Co201 2.061 . S
O202 C205 1.235 . S
C203 O206 1.238 . S
C203 O207 1.241 . S
C204 O197 1.247 . S
C204 O198 1.261 . S
C205 O200 1.259 . S
C205 O202 1.235 . S
O206 Co196 2.021 . S
O206 C203 1.238 . S
O207 Co201 2.052 . S
O207 C203 1.241 . S
O208 Co196 2.137 . S
O208 C199 1.247 . S
O209 Co196 2.244 . S
O209 C199 1.272 . S
O209 Co201 2.135 . S
Co210 O211 2.216 . S
Co210 O212 2.091 . S
Co210 O214 2.004 . S
Co210 O220 2.021 . S
Co210 O222 2.137 . S
Co210 O223 2.244 . S
O211 Co210 2.216 . S
O211 C218 1.247 . S
O212 Co210 2.091 . S
O212 C218 1.261 . S
C213 O222 1.247 . S
C213 O223 1.272 . S
O214 Co210 2.004 . S
O214 C219 1.259 . S
Co215 O216 2.061 . S
Co215 O221 2.052 . S
Co215 O223 2.135 . S
O216 Co215 2.061 . S
O216 C219 1.235 . S
C217 O220 1.238 . S
C217 O221 1.241 . S
C218 O211 1.247 . S
C218 O212 1.261 . S
C219 O214 1.259 . S
C219 O216 1.235 . S
O220 Co210 2.021 . S
O220 C217 1.238 . S
O221 Co215 2.052 . S
O221 C217 1.241 . S
O222 Co210 2.137 . S
O222 C213 1.247 . S
O223 Co210 2.244 . S
O223 C213 1.272 . S
O223 Co215 2.135 . S
Co224 O225 2.216 . S
Co224 O226 2.091 . S
Co224 O228 2.004 1_545 S
Co224 O234 2.021 . S
Co224 O236 2.137 . S
Co224 O237 2.244 1_545 S
O225 Co224 2.216 . S
O225 C232 1.247 . S
O226 Co224 2.091 . S
O226 C232 1.261 . S
C227 O236 1.250 . S
C227 O237 1.269 1_545 S
O228 Co224 2.004 1_565 S
O228 C233 1.259 . S
Co229 O230 2.061 . S
Co229 O235 2.052 . S
Co229 O237 2.135 . S
O230 Co229 2.061 . S
O230 C233 1.235 . S
C231 O234 1.238 1_565 S
C231 O235 1.241 . S
C232 O225 1.247 . S
C232 O226 1.261 . S
C233 O228 1.259 . S
C233 O230 1.235 . S
O234 Co224 2.021 . S
O234 C231 1.238 1_545 S
O235 Co229 2.052 . S
O235 C231 1.241 . S
O236 Co224 2.137 . S
O236 C227 1.250 . S
O237 Co224 2.244 1_565 S
O237 C227 1.269 1_565 S
O237 Co229 2.135 . S
Co238 O239 2.216 . S
Co238 O240 2.091 . S
Co238 O242 2.004 . S
Co238 O248 2.021 . S
Co238 O250 2.137 . S
Co238 O251 2.244 . S
O239 Co238 2.216 . S
O239 C246 1.247 . S
O240 Co238 2.091 . S
O240 C246 1.261 . S
C241 O250 1.247 . S
C241 O251 1.272 . S
O242 Co238 2.004 . S
O242 C247 1.259 . S
Co243 O244 2.061 . S
Co243 O249 2.052 . S
Co243 O251 2.135 . S
O244 Co243 2.061 . S
O244 C247 1.235 . S
C245 O248 1.238 . S
C245 O249 1.241 . S
C246 O239 1.247 . S
C246 O240 1.261 . S
C247 O242 1.259 . S
C247 O244 1.235 . S
O248 Co238 2.021 . S
O248 C245 1.238 . S
O249 Co243 2.052 . S
O249 C245 1.241 . S
O250 Co238 2.137 . S
O250 C241 1.247 . S
O251 Co238 2.244 . S
O251 C241 1.272 . S
O251 Co243 2.135 . S
Co252 O253 2.216 . S
Co252 O254 2.091 . S
Co252 O256 2.004 1_565 S
Co252 O262 2.021 . S
Co252 O264 2.137 . S
Co252 O265 2.244 1_565 S
O253 Co252 2.216 . S
O253 C260 1.247 . S
O254 Co252 2.091 . S
O254 C260 1.261 . S
C255 O264 1.247 1_545 S
C255 O265 1.272 . S
O256 Co252 2.004 1_545 S
O256 C261 1.259 . S
Co257 O258 2.061 . S
Co257 O263 2.052 . S
Co257 O265 2.135 . S
O258 Co257 2.061 . S
O258 C261 1.235 . S
C259 O262 1.238 1_545 S
C259 O263 1.241 . S
C260 O253 1.247 . S
C260 O254 1.261 . S
C261 O256 1.259 . S
C261 O258 1.235 . S
O262 Co252 2.021 . S
O262 C259 1.238 1_565 S
O263 Co257 2.052 . S
O263 C259 1.241 . S
O264 Co252 2.137 . S
O264 C255 1.247 1_565 S
O265 Co252 2.244 1_545 S
O265 C255 1.272 . S
O265 Co257 2.135 . S
Co266 O267 2.216 . S
Co266 O268 2.091 . S
Co266 O270 2.004 . S
Co266 O276 2.021 . S
Co266 O278 2.137 1_554 S
Co266 O279 2.244 1_554 S
O267 Co266 2.216 . S
O267 C274 1.247 . S
O268 Co266 2.091 . S
O268 C274 1.261 . S
C269 O278 1.247 . S
C269 O279 1.272 . S
O270 Co266 2.004 . S
O270 C275 1.259 . S
Co271 O272 2.061 . S
Co271 O277 2.052 . S
Co271 O279 2.135 1_554 S
O272 Co271 2.061 . S
O272 C275 1.235 . S
C273 O276 1.238 . S
C273 O277 1.241 . S
C274 O267 1.247 . S
C274 O268 1.261 . S
C275 O270 1.259 . S
C275 O272 1.235 . S
O276 Co266 2.021 . S
O276 C273 1.238 . S
O277 Co271 2.052 . S
O277 C273 1.241 . S
O278 Co266 2.137 1_556 S
O278 C269 1.247 . S
O279 Co266 2.244 1_556 S
O279 C269 1.272 . S
O279 Co271 2.135 1_556 S
Co280 O281 2.216 . S
Co280 O282 2.091 1_556 S
Co280 O284 2.004 . S
Co280 O290 2.021 1_556 S
Co280 O292 2.137 . S
Co280 O293 2.244 . S
O281 Co280 2.216 . S
O281 C288 1.246 . S
O282 Co280 2.091 1_554 S
O282 C288 1.261 1_554 S
C283 O292 1.247 . S
C283 O293 1.272 . S
O284 Co280 2.004 . S
O284 C289 1.259 . S
Co285 O286 2.061 1_556 S
Co285 O291 2.042 1_556 S
Co285 O293 2.142 . S
O286 Co285 2.061 1_554 S
O286 C289 1.235 1_554 S
C287 O290 1.238 . S
C287 O291 1.241 . S
C288 O281 1.246 . S
C288 O282 1.261 1_556 S
C289 O284 1.259 . S
C289 O286 1.235 1_556 S
O290 Co280 2.021 1_554 S
O290 C287 1.238 . S
O291 Co285 2.042 1_554 S
O291 C287 1.241 . S
O292 Co280 2.137 . S
O292 C283 1.247 . S
O293 Co280 2.244 . S
O293 C283 1.272 . S
O293 Co285 2.142 . S
Co294 O295 2.216 . S
Co294 O296 2.091 . S
Co294 O298 2.004 . S
Co294 O304 2.021 . S
Co294 O306 2.137 . S
Co294 O307 2.244 . S
O295 Co294 2.216 . S
O295 C302 1.247 . S
O296 Co294 2.091 . S
O296 C302 1.261 . S
C297 O306 1.247 . S
C297 O307 1.272 . S
O298 Co294 2.004 . S
O298 C303 1.259 . S
Co299 O300 2.061 . S
Co299 O305 2.052 . S
Co299 O307 2.135 . S
O300 Co299 2.061 . S
O300 C303 1.235 . S
C301 O304 1.238 . S
C301 O305 1.241 . S
C302 O295 1.247 . S
C302 O296 1.261 . S
C303 O298 1.259 . S
C303 O300 1.235 . S
O304 Co294 2.021 . S
O304 C301 1.238 . S
O305 Co299 2.052 . S
O305 C301 1.241 . S
O306 Co294 2.137 . S
O306 C297 1.247 . S
O307 Co294 2.244 . S
O307 C297 1.272 . S
O307 Co299 2.135 . S
Co308 O309 2.216 . S
Co308 O310 2.091 . S
Co308 O312 2.004 . S
Co308 O318 2.021 . S
Co308 O320 2.137 . S
Co308 O321 2.244 . S
O309 Co308 2.216 . S
O309 C316 1.247 . S
O310 Co308 2.091 . S
O310 C316 1.261 . S
C311 O320 1.247 . S
C311 O321 1.272 . S
O312 Co308 2.004 . S
O312 C317 1.259 . S
Co313 O314 2.061 . S
Co313 O319 2.052 . S
Co313 O321 2.135 . S
O314 Co313 2.061 . S
O314 C317 1.235 . S
C315 O318 1.238 . S
C315 O319 1.241 . S
C316 O309 1.247 . S
C316 O310 1.261 . S
C317 O312 1.259 . S
C317 O314 1.235 . S
O318 Co308 2.021 . S
O318 C315 1.238 . S
O319 Co313 2.052 . S
O319 C315 1.241 . S
O320 Co308 2.137 . S
O320 C311 1.247 . S
O321 Co308 2.244 . S
O321 C311 1.272 . S
O321 Co313 2.135 . S
Co322 O323 2.216 . S
Co322 O324 2.091 . S
Co322 O326 2.004 . S
Co322 O332 2.021 . S
Co322 O334 2.137 . S
Co322 O335 2.244 . S
O323 Co322 2.216 . S
O323 C330 1.247 . S
O324 Co322 2.091 . S
O324 C330 1.261 . S
C325 O334 1.247 . S
C325 O335 1.272 . S
O326 Co322 2.004 . S
O326 C331 1.259 . S
Co327 O328 2.061 . S
Co327 O333 2.052 . S
Co327 O335 2.135 . S
O328 Co327 2.061 . S
O328 C331 1.235 . S
C329 O332 1.238 . S
C329 O333 1.241 . S
C330 O323 1.247 . S
C330 O324 1.261 . S
C331 O326 1.259 . S
C331 O328 1.235 . S
O332 Co322 2.021 . S
O332 C329 1.238 . S
O333 Co327 2.052 . S
O333 C329 1.241 . S
O334 Co322 2.137 . S
O334 C325 1.247 . S
O335 Co322 2.244 . S
O335 C325 1.272 . S
O335 Co327 2.135 . S
O336 Mg337 1.990 . S
O336 C350 1.253 . S
Mg337 O336 1.990 . S
Mg337 O340 2.180 1_556 S
Mg337 O341 2.117 1_556 S
Mg337 O355 2.030 . S
O338 Mg339 2.074 1_656 S
O338 C350 1.260 . S
Mg339 O338 2.074 1_454 S
Mg339 O340 2.127 1_455 S
Mg339 O342 2.074 1_545 S
Mg339 O343 2.083 1_554 S
Mg339 O345 2.070 1_544 S
Mg339 O356 2.065 1_445 S
O340 Mg337 2.180 1_554 S
O340 Mg339 2.127 1_655 S
O340 C351 1.279 . S
O341 Mg337 2.117 1_554 S
O341 C351 1.250 . S
O342 Mg339 2.074 1_565 S
O342 C352 1.264 . S
O343 Mg339 2.083 1_556 S
O343 C353 1.265 . S
Mg344 O345 2.180 1_554 S
Mg344 O346 2.030 . S
Mg344 O347 1.990 1_554 S
Mg344 O348 2.117 1_554 S
O345 Mg339 2.070 1_566 S
O345 Mg344 2.180 1_556 S
O345 C354 1.279 . S
O346 Mg344 2.030 . S
O346 C352 1.248 . S
O347 Mg344 1.990 1_556 S
O347 C353 1.253 1_565 S
O348 Mg344 2.117 1_556 S
O348 C354 1.250 . S
C349 O355 1.248 1_564 S
C349 O356 1.264 . S
C350 O336 1.253 . S
C350 O338 1.260 . S
C351 O340 1.279 . S
C351 O341 1.250 . S
C352 O342 1.264 . S
C352 O346 1.248 . S
C353 O343 1.265 . S
C353 O347 1.253 1_545 S
C354 O345 1.279 . S
C354 O348 1.250 . S
O355 Mg337 2.030 . S
O355 C349 1.248 1_546 S
O356 Mg339 2.065 1_665 S
O356 C349 1.264 . S
O357 Mg358 1.990 . S
O357 C371 1.253 . S
Mg358 O357 1.990 . S
Mg358 O361 2.180 . S
Mg358 O362 2.117 . S
Mg358 O376 2.030 . S
O359 Mg360 2.072 . S
O359 C371 1.260 . S
Mg360 O359 2.072 . S
Mg360 O361 2.099 . S
Mg360 O363 2.079 . S
Mg360 O364 2.072 . S
Mg360 O366 2.099 . S
Mg360 O377 2.079 . S
O361 Mg358 2.180 . S
O361 Mg360 2.099 . S
O361 C372 1.279 . S
O362 Mg358 2.117 . S
O362 C372 1.250 . S
O363 Mg360 2.079 . S
O363 C373 1.264 . S
O364 Mg360 2.072 . S
O364 C374 1.260 . S
Mg365 O366 2.180 . S
Mg365 O367 2.030 . S
Mg365 O368 1.990 . S
Mg365 O369 2.117 . S
O366 Mg360 2.099 . S
O366 Mg365 2.180 . S
O366 C375 1.279 . S
O367 Mg365 2.030 . S
O367 C373 1.248 . S
O368 Mg365 1.990 . S
O368 C374 1.253 . S
O369 Mg365 2.117 . S
O369 C375 1.250 . S
C370 O376 1.248 . S
C370 O377 1.264 . S
C371 O357 1.253 . S
C371 O359 1.260 . S
C372 O361 1.279 . S
C372 O362 1.250 . S
C373 O363 1.264 . S
C373 O367 1.248 . S
C374 O364 1.260 . S
C374 O368 1.253 . S
C375 O366 1.279 . S
C375 O369 1.250 . S
O376 Mg358 2.030 . S
O376 C370 1.248 . S
O377 Mg360 2.079 . S
O377 C370 1.264 . S
O378 Mg379 1.990 . S
O378 C392 1.253 . S
Mg379 O378 1.990 . S
Mg379 O382 2.180 . S
Mg379 O383 2.117 . S
Mg379 O397 2.030 1_565 S
O380 Mg381 2.072 . S
O380 C392 1.260 1_545 S
Mg381 O380 2.072 . S
Mg381 O382 2.099 1_545 S
Mg381 O384 2.079 . S
Mg381 O385 2.072 1_545 S
Mg381 O387 2.099 . S
Mg381 O398 2.079 . S
O382 Mg379 2.180 . S
O382 Mg381 2.099 1_565 S
O382 C393 1.279 . S
O383 Mg379 2.117 . S
O383 C393 1.250 . S
O384 Mg381 2.079 . S
O384 C394 1.264 . S
O385 Mg381 2.072 1_565 S
O385 C395 1.260 . S
Mg386 O387 2.180 . S
Mg386 O388 2.030 . S
Mg386 O389 1.990 . S
Mg386 O390 2.117 . S
O387 Mg381 2.099 . S
O387 Mg386 2.180 . S
O387 C396 1.279 . S
O388 Mg386 2.030 . S
O388 C394 1.248 . S
O389 Mg386 1.990 . S
O389 C395 1.253 1_545 S
O390 Mg386 2.117 . S
O390 C396 1.250 . S
C391 O397 1.248 . S
C391 O398 1.264 . S
C392 O378 1.253 . S
C392 O380 1.260 1_565 S
C393 O382 1.279 . S
C393 O383 1.250 . S
C394 O384 1.264 . S
C394 O388 1.248 . S
C395 O385 1.260 . S
C395 O389 1.253 1_565 S
C396 O387 1.279 . S
C396 O390 1.250 . S
O397 Mg379 2.030 1_545 S
O397 C391 1.248 . S
O398 Mg381 2.079 . S
O398 C391 1.264 . S
O399 Mg400 1.990 . S
O399 C413 1.253 . S
Mg400 O399 1.990 . S
Mg400 O403 2.180 . S
Mg400 O404 2.117 . S
Mg400 O418 2.030 . S
O401 Mg402 2.072 . S
O401 C413 1.260 . S
Mg402 O401 2.072 . S
Mg402 O403 2.099 . S
Mg402 O405 2.079 . S
Mg402 O406 2.072 . S
Mg402 O408 2.099 . S
Mg402 O419 2.079 . S
O403 Mg400 2.180 . S
O403 Mg402 2.099 . S
O403 C414 1.279 . S
O404 Mg400 2.117 . S
O404 C414 1.250 . S
O405 Mg402 2.079 . S
O405 C415 1.264 . S
O406 Mg402 2.072 . S
O406 C416 1.260 . S
Mg407 O408 2.180 . S
Mg407 O409 2.030 . S
Mg407 O410 1.990 . S
Mg407 O411 2.117 . S
O408 Mg402 2.099 . S
O408 Mg407 2.180 . S
O408 C417 1.279 . S
O409 Mg407 2.030 . S
O409 C415 1.248 . S
O410 Mg407 1.990 . S
O410 C416 1.253 . S
O411 Mg407 2.117 . S
O411 C417 1.250 . S
C412 O418 1.248 . S
C412 O419 1.264 . S
C413 O399 1.253 . S
C413 O401 1.260 . S
C414 O403 1.279 . S
C414 O404 1.250 . S
C415 O405 1.264 . S
C415 O409 1.248 . S
C416 O406 1.260 . S
C416 O410 1.253 . S
C417 O408 1.279 . S
C417 O411 1.250 . S
O418 Mg400 2.030 . S
O418 C412 1.248 . S
O419 Mg402 2.079 . S
O419 C412 1.264 . S
O420 Mg421 1.990 1_655 S
O420 C434 1.253 . S
Mg421 O420 1.990 1_455 S
Mg421 O424 2.180 1_455 S
Mg421 O425 2.117 1_455 S
Mg421 O439 2.030 . S
O422 Mg423 2.072 1_565 S
O422 C434 1.260 1_455 S
Mg423 O422 2.072 1_545 S
Mg423 O424 2.099 1_445 S
Mg423 O426 2.079 . S
Mg423 O427 2.072 1_455 S
Mg423 O429 2.099 . S
Mg423 O440 2.079 1_545 S
O424 Mg421 2.180 1_655 S
O424 Mg423 2.099 1_665 S
O424 C435 1.279 . S
O425 Mg421 2.117 1_655 S
O425 C435 1.250 . S
O426 Mg423 2.079 . S
O426 C436 1.264 . S
O427 Mg423 2.072 1_655 S
O427 C437 1.260 . S
Mg428 O429 2.180 1_655 S
Mg428 O430 2.030 . S
Mg428 O431 1.990 . S
Mg428 O432 2.117 1_655 S
O429 Mg423 2.099 . S
O429 Mg428 2.180 1_455 S
O429 C438 1.279 . S
O430 Mg428 2.030 . S
O430 C436 1.245 1_655 S
O431 Mg428 1.990 . S
O431 C437 1.253 . S
O432 Mg428 2.117 1_455 S
O432 C438 1.250 . S
C433 O439 1.248 . S
C433 O440 1.264 . S
C434 O420 1.253 . S
C434 O422 1.260 1_655 S
C435 O424 1.279 . S
C435 O425 1.250 . S
C436 O426 1.264 . S
C436 O430 1.245 1_455 S
C437 O427 1.260 . S
C437 O431 1.253 . S
C438 O429 1.279 . S
C438 O432 1.250 . S
O439 Mg421 2.030 . S
O439 C433 1.248 . S
O440 Mg423 2.079 1_565 S
O440 C433 1.264 . S
O441 Mg442 1.990 . S
O441 C455 1.253 . S
Mg442 O441 1.990 . S
Mg442 O445 2.180 . S
Mg442 O446 2.117 . S
Mg442 O460 2.030 . S
O443 Mg444 2.072 . S
O443 C455 1.260 . S
Mg444 O443 2.072 . S
Mg444 O445 2.099 . S
Mg444 O447 2.079 . S
Mg444 O448 2.072 . S
Mg444 O450 2.099 . S
Mg444 O461 2.079 . S
O445 Mg442 2.180 . S
O445 Mg444 2.099 . S
O445 C456 1.279 . S
O446 Mg442 2.117 . S
O446 C456 1.250 . S
O447 Mg444 2.079 . S
O447 C457 1.264 . S
O448 Mg444 2.072 . S
O448 C458 1.260 . S
Mg449 O450 2.180 . S
Mg449 O451 2.030 . S
Mg449 O452 1.990 . S
Mg449 O453 2.117 . S
O450 Mg444 2.099 . S
O450 Mg449 2.180 . S
O450 C459 1.279 . S
O451 Mg449 2.030 . S
O451 C457 1.248 . S
O452 Mg449 1.990 . S
O452 C458 1.253 . S
O453 Mg449 2.117 . S
O453 C459 1.250 . S
C454 O460 1.248 . S
C454 O461 1.264 . S
C455 O441 1.253 . S
C455 O443 1.260 . S
C456 O445 1.279 . S
C456 O446 1.250 . S
C457 O447 1.264 . S
C457 O451 1.248 . S
C458 O448 1.260 . S
C458 O452 1.253 . S
C459 O450 1.279 . S
C459 O453 1.250 . S
O460 Mg442 2.030 . S
O460 C454 1.248 . S
O461 Mg444 2.079 . S
O461 C454 1.264 . S
O462 Mg463 1.990 . S
O462 C476 1.253 . S
Mg463 O462 1.990 . S
Mg463 O466 2.180 1_565 S
Mg463 O467 2.117 1_565 S
Mg463 O481 2.030 . S
O464 Mg465 2.072 1_565 S
O464 C476 1.260 . S
Mg465 O464 2.072 1_545 S
Mg465 O466 2.099 . S
Mg465 O468 2.079 1_554 S
Mg465 O469 2.072 1_544 S
Mg465 O471 2.099 1_544 S
Mg465 O482 2.079 . S
O466 Mg463 2.180 1_545 S
O466 Mg465 2.099 . S
O466 C477 1.279 . S
O467 Mg463 2.117 1_545 S
O467 C477 1.250 . S
O468 Mg465 2.079 1_556 S
O468 C478 1.264 . S
O469 Mg465 2.072 1_566 S
O469 C479 1.260 . S
Mg470 O471 2.180 1_545 S
Mg470 O472 2.030 . S
Mg470 O473 1.990 1_545 S
Mg470 O474 2.117 1_545 S
O471 Mg465 2.099 1_566 S
O471 Mg470 2.180 1_565 S
O471 C480 1.279 . S
O472 Mg470 2.030 . S
O472 C478 1.248 . S
O473 Mg470 1.990 1_565 S
O473 C479 1.253 . S
O474 Mg470 2.117 1_565 S
O474 C480 1.250 . S
C475 O481 1.248 1_545 S
C475 O482 1.264 . S
C476 O462 1.253 . S
C476 O464 1.260 . S
C477 O466 1.279 . S
C477 O467 1.250 . S
C478 O468 1.264 . S
C478 O472 1.248 . S
C479 O469 1.260 . S
C479 O473 1.253 . S
C480 O471 1.279 . S
C480 O474 1.250 . S
O481 Mg463 2.030 . S
O481 C475 1.248 1_565 S
O482 Mg465 2.079 . S
O482 C475 1.264 . S
O483 Mg484 1.990 . S
O483 C497 1.253 . S
Mg484 O483 1.990 . S
Mg484 O487 2.180 . S
Mg484 O488 2.117 . S
Mg484 O502 2.030 . S
O485 Mg486 2.072 . S
O485 C497 1.260 . S
Mg486 O485 2.072 . S
Mg486 O487 2.099 . S
Mg486 O489 2.079 . S
Mg486 O490 2.072 . S
Mg486 O492 2.099 . S
Mg486 O503 2.079 . S
O487 Mg484 2.180 . S
O487 Mg486 2.099 . S
O487 C498 1.279 . S
O488 Mg484 2.117 . S
O488 C498 1.250 . S
O489 Mg486 2.079 . S
O489 C499 1.264 . S
O490 Mg486 2.072 . S
O490 C500 1.260 . S
Mg491 O492 2.180 . S
Mg491 O493 2.030 . S
Mg491 O494 1.990 . S
Mg491 O495 2.117 . S
O492 Mg486 2.099 . S
O492 Mg491 2.180 . S
O492 C501 1.279 . S
O493 Mg491 2.030 . S
O493 C499 1.248 . S
O494 Mg491 1.990 . S
O494 C500 1.253 . S
O495 Mg491 2.117 . S
O495 C501 1.250 . S
C496 O502 1.248 . S
C496 O503 1.264 . S
C497 O483 1.253 . S
C497 O485 1.260 . S
C498 O487 1.279 . S
C498 O488 1.250 . S
C499 O489 1.264 . S
C499 O493 1.248 . S
C500 O490 1.260 . S
C500 O494 1.253 . S
C501 O492 1.279 . S
C501 O495 1.250 . S
O502 Mg484 2.030 . S
O502 C496 1.248 . S
O503 Mg486 2.079 . S
O503 C496 1.264 . S
O504 Mg505 1.990 . S
O504 C518 1.253 . S
Mg505 O504 1.990 . S
Mg505 O508 2.180 . S
Mg505 O509 2.117 . S
Mg505 O523 2.001 1_556 S
O506 Mg507 2.072 . S
O506 C518 1.260 1_554 S
Mg507 O506 2.072 . S
Mg507 O508 2.099 1_554 S
Mg507 O510 2.079 . S
Mg507 O511 2.072 1_554 S
Mg507 O513 2.099 . S
Mg507 O524 2.079 . S
O508 Mg505 2.180 . S
O508 Mg507 2.099 1_556 S
O508 C519 1.279 . S
O509 Mg505 2.117 . S
O509 C519 1.250 . S
O510 Mg507 2.079 . S
O510 C520 1.264 . S
O511 Mg507 2.072 1_556 S
O511 C521 1.260 . S
Mg512 O513 2.180 . S
Mg512 O514 2.030 . S
Mg512 O515 1.990 . S
Mg512 O516 2.117 . S
O513 Mg507 2.099 . S
O513 Mg512 2.180 . S
O513 C522 1.279 . S
O514 Mg512 2.030 . S
O514 C520 1.248 . S
O515 Mg512 1.990 . S
O515 C521 1.253 1_554 S
O516 Mg512 2.117 . S
O516 C522 1.250 . S
C517 O523 1.272 . S
C517 O524 1.264 . S
C518 O504 1.253 . S
C518 O506 1.260 1_556 S
C519 O508 1.279 . S
C519 O509 1.250 . S
C520 O510 1.264 . S
C520 O514 1.248 . S
C521 O511 1.260 . S
C521 O515 1.253 1_556 S
C522 O513 1.279 . S
C522 O516 1.250 . S
O523 Mg505 2.001 1_554 S
O523 C517 1.272 . S
O524 Mg507 2.079 . S
O524 C517 1.264 . S
O525 Mg526 1.990 . S
O525 C539 1.253 . S
Mg526 O525 1.990 . S
Mg526 O529 2.180 . S
Mg526 O530 2.117 . S
Mg526 O544 2.030 . S
O527 Mg528 2.072 . S
O527 C539 1.260 . S
Mg528 O527 2.072 . S
Mg528 O529 2.099 . S
Mg528 O531 2.079 . S
Mg528 O532 2.072 . S
Mg528 O534 2.099 . S
Mg528 O545 2.079 . S
O529 Mg526 2.180 . S
O529 Mg528 2.099 . S
O529 C540 1.279 . S
O530 Mg526 2.117 . S
O530 C540 1.250 . S
O531 Mg528 2.079 . S
O531 C541 1.264 . S
O532 Mg528 2.072 . S
O532 C542 1.260 . S
Mg533 O534 2.180 . S
Mg533 O535 2.030 . S
Mg533 O536 1.990 . S
Mg533 O537 2.117 . S
O534 Mg528 2.099 . S
O534 Mg533 2.180 . S
O534 C543 1.279 . S
O535 Mg533 2.030 . S
O535 C541 1.248 . S
O536 Mg533 1.990 . S
O536 C542 1.253 . S
O537 Mg533 2.117 . S
O537 C543 1.250 . S
C538 O544 1.248 . S
C538 O545 1.264 . S
C539 O525 1.253 . S
C539 O527 1.260 . S
C540 O529 1.279 . S
C540 O530 1.250 . S
C541 O531 1.264 . S
C541 O535 1.248 . S
C542 O532 1.260 . S
C542 O536 1.253 . S
C543 O534 1.279 . S
C543 O537 1.250 . S
O544 Mg526 2.030 . S
O544 C538 1.248 . S
O545 Mg528 2.079 . S
O545 C538 1.264 . S
O546 Mg547 1.990 . S
O546 C560 1.253 . S
Mg547 O546 1.990 . S
Mg547 O550 2.180 . S
Mg547 O551 2.117 . S
Mg547 O565 2.015 1_655 S
O548 Mg549 2.072 . S
O548 C560 1.260 1_455 S
Mg549 O548 2.072 . S
Mg549 O550 2.099 1_455 S
Mg549 O552 2.079 . S
Mg549 O553 2.072 1_455 S
Mg549 O555 2.099 . S
Mg549 O566 2.079 . S
O550 Mg547 2.180 . S
O550 Mg549 2.099 1_655 S
O550 C561 1.279 . S
O551 Mg547 2.117 . S
O551 C561 1.250 . S
O552 Mg549 2.079 . S
O552 C562 1.264 . S
O553 Mg549 2.072 1_655 S
O553 C563 1.260 . S
Mg554 O555 2.180 . S
Mg554 O556 2.030 . S
Mg554 O557 1.990 . S
Mg554 O558 2.117 . S
O555 Mg549 2.099 . S
O555 Mg554 2.180 . S
O555 C564 1.279 . S
O556 Mg554 2.030 . S
O556 C562 1.248 . S
O557 Mg554 1.990 . S
O557 C563 1.253 1_455 S
O558 Mg554 2.117 . S
O558 C564 1.250 . S
C559 O565 1.260 . S
C559 O566 1.264 . S
C560 O546 1.253 . S
C560 O548 1.260 1_655 S
C561 O550 1.279 . S
C561 O551 1.250 . S
C562 O552 1.264 . S
C562 O556 1.248 . S
C563 O553 1.260 . S
C563 O557 1.253 1_655 S
C564 O555 1.279 . S
C564 O558 1.250 . S
O565 Mg547 2.015 1_455 S
O565 C559 1.260 . S
O566 Mg549 2.079 . S
O566 C559 1.264 . S
O567 Mg568 1.990 . S
O567 C581 1.253 . S
Mg568 O567 1.990 . S
Mg568 O571 2.180 . S
Mg568 O572 2.117 . S
Mg568 O586 2.030 . S
O569 Mg570 2.072 . S
O569 C581 1.260 . S
Mg570 O569 2.072 . S
Mg570 O571 2.099 . S
Mg570 O573 2.079 . S
Mg570 O574 2.072 . S
Mg570 O576 2.099 . S
Mg570 O587 2.079 . S
O571 Mg568 2.180 . S
O571 Mg570 2.099 . S
O571 C582 1.279 . S
O572 Mg568 2.117 . S
O572 C582 1.250 . S
O573 Mg570 2.079 . S
O573 C583 1.264 . S
O574 Mg570 2.072 . S
O574 C584 1.260 . S
Mg575 O576 2.180 . S
Mg575 O577 2.030 . S
Mg575 O578 1.990 . S
Mg575 O579 2.117 . S
O576 Mg570 2.099 . S
O576 Mg575 2.180 . S
O576 C585 1.279 . S
O577 Mg575 2.030 . S
O577 C583 1.248 . S
O578 Mg575 1.990 . S
O578 C584 1.253 . S
O579 Mg575 2.117 . S
O579 C585 1.250 . S
C580 O586 1.248 . S
C580 O587 1.264 . S
C581 O567 1.253 . S
C581 O569 1.260 . S
C582 O571 1.279 . S
C582 O572 1.250 . S
C583 O573 1.264 . S
C583 O577 1.248 . S
C584 O574 1.260 . S
C584 O578 1.253 . S
C585 O576 1.279 . S
C585 O579 1.250 . S
O586 Mg568 2.030 . S
O586 C580 1.248 . S
O587 Mg570 2.079 . S
O587 C580 1.264 . S
O588 Mg589 1.990 . S
O588 C602 1.253 . S
Mg589 O588 1.990 . S
Mg589 O592 2.180 . S
Mg589 O593 2.117 . S
Mg589 O607 2.030 . S
O590 Mg591 2.072 . S
O590 C602 1.260 . S
Mg591 O590 2.072 . S
Mg591 O592 2.099 . S
Mg591 O594 2.079 . S
Mg591 O595 2.072 . S
Mg591 O597 2.099 . S
Mg591 O608 2.079 . S
O592 Mg589 2.180 . S
O592 Mg591 2.099 . S
O592 C603 1.279 . S
O593 Mg589 2.117 . S
O593 C603 1.250 . S
O594 Mg591 2.079 . S
O594 C604 1.264 . S
O595 Mg591 2.072 . S
O595 C605 1.260 . S
Mg596 O597 2.180 . S
Mg596 O598 2.030 . S
Mg596 O599 1.990 . S
Mg596 O600 2.117 . S
O597 Mg591 2.099 . S
O597 Mg596 2.180 . S
O597 C606 1.279 . S
O598 Mg596 2.030 . S
O598 C604 1.248 . S
O599 Mg596 1.990 . S
O599 C605 1.253 . S
O600 Mg596 2.117 . S
O600 C606 1.250 . S
C601 O607 1.248 . S
C601 O608 1.264 . S
C602 O588 1.253 . S
C602 O590 1.260 . S
C603 O592 1.279 . S
C603 O593 1.250 . S
C604 O594 1.264 . S
C604 O598 1.248 . S
C605 O595 1.260 . S
C605 O599 1.253 . S
C606 O597 1.279 . S
C606 O600 1.250 . S
O607 Mg589 2.030 . S
O607 C601 1.248 . S
O608 Mg591 2.079 . S
O608 C601 1.264 . S
O609 Mg610 1.990 . S
O609 C623 1.253 . S
Mg610 O609 1.990 . S
Mg610 O613 2.180 . S
Mg610 O614 2.117 . S
Mg610 O628 2.030 . S
O611 Mg612 2.072 . S
O611 C623 1.260 . S
Mg612 O611 2.072 . S
Mg612 O613 2.099 . S
Mg612 O615 2.079 . S
Mg612 O616 2.072 . S
Mg612 O618 2.099 . S
Mg612 O629 2.079 . S
O613 Mg610 2.180 . S
O613 Mg612 2.099 . S
O613 C624 1.279 . S
O614 Mg610 2.117 . S
O614 C624 1.250 . S
O615 Mg612 2.079 . S
O615 C625 1.264 . S
O616 Mg612 2.072 . S
O616 C626 1.260 . S
Mg617 O618 2.180 . S
Mg617 O619 2.030 . S
Mg617 O620 1.990 . S
Mg617 O621 2.117 . S
O618 Mg612 2.099 . S
O618 Mg617 2.180 . S
O618 C627 1.279 . S
O619 Mg617 2.030 . S
O619 C625 1.248 . S
O620 Mg617 1.990 . S
O620 C626 1.253 . S
O621 Mg617 2.117 . S
O621 C627 1.250 . S
C622 O628 1.248 . S
C622 O629 1.264 . S
C623 O609 1.253 . S
C623 O611 1.260 . S
C624 O613 1.279 . S
C624 O614 1.250 . S
C625 O615 1.264 . S
C625 O619 1.248 . S
C626 O616 1.260 . S
C626 O620 1.253 . S
C627 O618 1.279 . S
C627 O621 1.250 . S
O628 Mg610 2.030 . S
O628 C622 1.248 . S
O629 Mg612 2.079 . S
O629 C622 1.264 . S
O630 Mg631 1.990 . S
O630 C644 1.253 . S
Mg631 O630 1.990 . S
Mg631 O634 2.180 . S
Mg631 O635 2.117 . S
Mg631 O649 2.030 . S
O632 Mg633 2.072 . S
O632 C644 1.260 . S
Mg633 O632 2.072 . S
Mg633 O634 2.099 . S
Mg633 O636 2.079 . S
Mg633 O637 2.072 . S
Mg633 O639 2.099 . S
Mg633 O650 2.079 . S
O634 Mg631 2.180 . S
O634 Mg633 2.099 . S
O634 C645 1.279 . S
O635 Mg631 2.117 . S
O635 C645 1.250 . S
O636 Mg633 2.079 . S
O636 C646 1.264 . S
O637 Mg633 2.072 . S
O637 C647 1.260 . S
Mg638 O639 2.180 . S
Mg638 O640 2.030 . S
Mg638 O641 1.990 . S
Mg638 O642 2.117 . S
O639 Mg633 2.099 . S
O639 Mg638 2.180 . S
O639 C648 1.279 . S
O640 Mg638 2.030 . S
O640 C646 1.248 . S
O641 Mg638 1.990 . S
O641 C647 1.253 . S
O642 Mg638 2.117 . S
O642 C648 1.250 . S
C643 O649 1.248 . S
C643 O650 1.264 . S
C644 O630 1.253 . S
C644 O632 1.260 . S
C645 O634 1.279 . S
C645 O635 1.250 . S
C646 O636 1.264 . S
C646 O640 1.248 . S
C647 O637 1.260 . S
C647 O641 1.253 . S
C648 O639 1.279 . S
C648 O642 1.250 . S
O649 Mg631 2.030 . S
O649 C643 1.248 . S
O650 Mg633 2.079 . S
O650 C643 1.264 . S
O651 Mg652 1.990 . S
O651 C665 1.253 . S
Mg652 O651 1.990 . S
Mg652 O655 2.180 1_556 S
Mg652 O656 2.117 1_556 S
Mg652 O670 2.030 . S
O653 Mg654 2.072 1_556 S
O653 C665 1.260 . S
Mg654 O653 2.072 1_554 S
Mg654 O655 2.099 . S
Mg654 O657 2.079 1_455 S
Mg654 O658 2.072 1_454 S
Mg654 O660 2.099 1_454 S
Mg654 O671 2.079 . S
O655 Mg652 2.180 1_554 S
O655 Mg654 2.099 . S
O655 C666 1.279 . S
O656 Mg652 2.117 1_554 S
O656 C666 1.250 . S
O657 Mg654 2.079 1_655 S
O657 C667 1.264 . S
O658 Mg654 2.072 1_656 S
O658 C668 1.260 . S
Mg659 O660 2.180 1_554 S
Mg659 O661 2.030 . S
Mg659 O662 1.990 1_554 S
Mg659 O663 2.117 1_554 S
O660 Mg654 2.099 1_656 S
O660 Mg659 2.180 1_556 S
O660 C669 1.279 . S
O661 Mg659 2.030 . S
O661 C667 1.248 . S
O662 Mg659 1.990 1_556 S
O662 C668 1.253 . S
O663 Mg659 2.117 1_556 S
O663 C669 1.250 . S
C664 O670 1.248 1_554 S
C664 O671 1.264 . S
C665 O651 1.253 . S
C665 O653 1.260 . S
C666 O655 1.279 . S
C666 O656 1.250 . S
C667 O657 1.264 . S
C667 O661 1.248 . S
C668 O658 1.260 . S
C668 O662 1.253 . S
C669 O660 1.279 . S
C669 O663 1.250 . S
O670 Mg652 2.030 . S
O670 C664 1.248 1_556 S
O671 Mg654 2.079 . S
O671 C664 1.264 . S
C672 C673 1.343 1_655 S
C672 C674 1.419 . S
C672 H676 0.930 . S
C673 C672 1.343 1_455 S
C673 C682 1.454 . S
C674 C672 1.419 . S
C674 C675 1.363 . S
C674 H677 0.929 . S
C675 C674 1.363 . S
C675 C681 1.428 1_655 S
H676 C672 0.930 . S
H677 C674 0.929 . S
S678 N679 1.613 . S
S678 N680 1.610 . S
N679 S678 1.613 . S
N679 C682 1.350 . S
N680 S678 1.610 . S
N680 C681 1.351 . S
C681 C675 1.428 1_455 S
C681 N680 1.351 . S
C681 C682 1.434 . S
C682 C673 1.454 . S
C682 N679 1.350 . S
C682 C681 1.434 . S
C683 C684 1.369 . S
C683 C685 1.419 . S
C683 H687 0.930 . S
C684 C683 1.369 . S
C684 C693 1.429 . S
C685 C683 1.419 . S
C685 C686 1.363 . S
C685 H688 0.929 . S
C686 C685 1.363 . S
C686 C692 1.428 . S
H687 C683 0.930 . S
H688 C685 0.929 . S
S689 N690 1.613 . S
S689 N691 1.610 . S
N690 S689 1.613 . S
N690 C693 1.350 . S
N691 S689 1.610 . S
N691 C692 1.351 . S
C692 C686 1.428 . S
C692 N691 1.351 . S
C692 C693 1.434 . S
C693 C684 1.429 . S
C693 N690 1.350 . S
C693 C692 1.434 . S
C694 C695 1.369 . S
C694 C696 1.419 . S
C694 H698 0.930 . S
C695 C694 1.369 . S
C695 C704 1.429 . S
C696 C694 1.419 . S
C696 C697 1.363 . S
C696 H699 0.929 . S
C697 C696 1.363 . S
C697 C703 1.428 . S
H698 C694 0.930 . S
H699 C696 0.929 . S
S700 N701 1.613 . S
S700 N702 1.610 . S
N701 S700 1.613 . S
N701 C704 1.350 . S
N702 S700 1.610 . S
N702 C703 1.351 . S
C703 C697 1.428 . S
C703 N702 1.351 . S
C703 C704 1.434 . S
C704 C695 1.429 . S
C704 N701 1.350 . S
C704 C703 1.434 . S
C705 C706 1.369 . S
C705 C707 1.419 . S
C705 H709 0.930 . S
C706 C705 1.369 . S
C706 C715 1.429 . S
C707 C705 1.419 . S
C707 C708 1.363 . S
C707 H710 0.929 . S
C708 C707 1.363 . S
C708 C714 1.428 . S
H709 C705 0.930 . S
H710 C707 0.929 . S
S711 N712 1.613 . S
S711 N713 1.610 . S
N712 S711 1.613 . S
N712 C715 1.350 . S
N713 S711 1.610 . S
N713 C714 1.351 . S
C714 C708 1.428 . S
C714 N713 1.351 . S
C714 C715 1.434 . S
C715 C706 1.429 . S
C715 N712 1.350 . S
C715 C714 1.434 . S
C716 C717 1.369 . S
C716 C718 1.419 . S
C716 H720 0.930 . S
C717 C716 1.369 . S
C717 C726 1.429 1_455 S
C718 C716 1.419 . S
C718 C719 1.363 1_455 S
C718 H721 0.929 . S
C719 C718 1.363 1_655 S
C719 C725 1.428 . S
H720 C716 0.930 . S
H721 C718 0.929 . S
S722 N723 1.613 . S
S722 N724 1.610 . S
N723 S722 1.613 . S
N723 C726 1.350 . S
N724 S722 1.610 . S
N724 C725 1.351 . S
C725 C719 1.428 . S
C725 N724 1.351 . S
C725 C726 1.434 . S
C726 C717 1.429 1_655 S
C726 N723 1.350 . S
C726 C725 1.434 . S
C727 C728 1.369 . S
C727 C729 1.419 . S
C727 H731 0.930 . S
C728 C727 1.369 . S
C728 C737 1.429 . S
C729 C727 1.419 . S
C729 C730 1.363 . S
C729 H732 0.929 . S
C730 C729 1.363 . S
C730 C736 1.428 . S
H731 C727 0.930 . S
H732 C729 0.929 . S
S733 N734 1.613 . S
S733 N735 1.610 . S
N734 S733 1.613 . S
N734 C737 1.350 . S
N735 S733 1.610 . S
N735 C736 1.351 . S
C736 C730 1.428 . S
C736 N735 1.351 . S
C736 C737 1.434 . S
C737 C728 1.429 . S
C737 N734 1.350 . S
C737 C736 1.434 . S
C738 C739 1.369 . S
C738 C740 1.419 . S
C738 H742 0.930 . S
C739 C738 1.369 . S
C739 C748 1.429 . S
C740 C738 1.419 . S
C740 C741 1.363 . S
C740 H743 0.929 . S
C741 C740 1.363 . S
C741 C747 1.428 . S
H742 C738 0.930 . S
H743 C740 0.929 . S
S744 N745 1.613 . S
S744 N746 1.610 . S
N745 S744 1.613 . S
N745 C748 1.350 . S
N746 S744 1.610 . S
N746 C747 1.351 . S
C747 C741 1.428 . S
C747 N746 1.351 . S
C747 C748 1.434 . S
C748 C739 1.429 . S
C748 N745 1.350 . S
C748 C747 1.434 . S
C749 C750 1.369 . S
C749 C751 1.419 . S
C749 H753 0.930 . S
C750 C749 1.369 . S
C750 C759 1.429 . S
C751 C749 1.419 . S
C751 C752 1.363 . S
C751 H754 0.929 . S
C752 C751 1.363 . S
C752 C758 1.428 . S
H753 C749 0.930 . S
H754 C751 0.929 . S
S755 N756 1.613 . S
S755 N757 1.610 . S
N756 S755 1.613 . S
N756 C759 1.350 . S
N757 S755 1.610 . S
N757 C758 1.351 . S
C758 C752 1.428 . S
C758 N757 1.351 . S
C758 C759 1.434 . S
C759 C750 1.429 . S
C759 N756 1.350 . S
C759 C758 1.434 . S
C760 C761 1.369 1_545 S
C760 C762 1.419 1_545 S
C760 H764 0.930 . S
C761 C760 1.369 1_565 S
C761 C770 1.429 . S
C762 C760 1.419 1_565 S
C762 C763 1.363 . S
C762 H765 0.932 . S
C763 C762 1.363 . S
C763 C769 1.428 . S
H764 C760 0.930 . S
H765 C762 0.932 . S
S766 N767 1.613 . S
S766 N768 1.610 . S
N767 S766 1.613 . S
N767 C770 1.350 . S
N768 S766 1.610 . S
N768 C769 1.351 . S
C769 C763 1.428 . S
C769 N768 1.351 . S
C769 C770 1.434 . S
C770 C761 1.429 . S
C770 N767 1.350 . S
C770 C769 1.434 . S
C771 C772 1.369 . S
C771 C773 1.419 . S
C771 H775 0.930 . S
C772 C771 1.369 . S
C772 C781 1.429 . S
C773 C771 1.419 . S
C773 C774 1.363 . S
C773 H776 0.929 . S
C774 C773 1.363 . S
C774 C780 1.428 . S
H775 C771 0.930 . S
H776 C773 0.929 . S
S777 N778 1.613 . S
S777 N779 1.610 . S
N778 S777 1.613 . S
N778 C781 1.350 . S
N779 S777 1.610 . S
N779 C780 1.351 . S
C780 C774 1.428 . S
C780 N779 1.351 . S
C780 C781 1.434 . S
C781 C772 1.429 . S
C781 N778 1.350 . S
C781 C780 1.434 . S
C782 C783 1.369 . S
C782 C784 1.419 . S
C782 H786 0.930 . S
C783 C782 1.369 . S
C783 C792 1.429 . S
C784 C782 1.419 . S
C784 C785 1.363 . S
C784 H787 0.929 . S
C785 C784 1.363 . S
C785 C791 1.428 . S
H786 C782 0.930 . S
H787 C784 0.929 . S
S788 N789 1.613 . S
S788 N790 1.609 1_565 S
N789 S788 1.613 . S
N789 C792 1.350 1_565 S
N790 S788 1.609 1_545 S
N790 C791 1.352 . S
C791 C785 1.428 . S
C791 N790 1.352 . S
C791 C792 1.434 . S
C792 C783 1.429 . S
C792 N789 1.350 1_545 S
C792 C791 1.434 . S
C793 C794 1.369 . S
C793 C795 1.419 . S
C793 H797 0.930 . S
C794 C793 1.369 . S
C794 C803 1.429 . S
C795 C793 1.419 . S
C795 C796 1.363 . S
C795 H798 0.929 . S
C796 C795 1.363 . S
C796 C802 1.428 . S
H797 C793 0.930 . S
H798 C795 0.929 . S
S799 N800 1.613 . S
S799 N801 1.610 . S
N800 S799 1.613 . S
N800 C803 1.350 . S
N801 S799 1.610 . S
N801 C802 1.351 . S
C802 C796 1.428 . S
C802 N801 1.351 . S
C802 C803 1.434 . S
C803 C794 1.429 . S
C803 N800 1.350 . S
C803 C802 1.434 . S
C804 C805 1.369 1_565 S
C804 C806 1.419 . S
C804 H808 0.930 . S
C805 C804 1.369 1_545 S
C805 C814 1.429 . S
C806 C804 1.419 . S
C806 C807 1.363 1_565 S
C806 H809 0.929 . S
C807 C806 1.363 1_545 S
C807 C813 1.428 . S
H808 C804 0.930 . S
H809 C806 0.929 . S
S810 N811 1.613 . S
S810 N812 1.610 . S
N811 S810 1.613 . S
N811 C814 1.350 . S
N812 S810 1.610 . S
N812 C813 1.351 . S
C813 C807 1.428 . S
C813 N812 1.351 . S
C813 C814 1.434 . S
C814 C805 1.429 . S
C814 N811 1.350 . S
C814 C813 1.434 . S
C815 C816 1.369 . S
C815 C817 1.419 . S
C815 H819 0.930 . S
C816 C815 1.369 . S
C816 C825 1.429 . S
C817 C815 1.419 . S
C817 C818 1.363 . S
C817 H820 0.929 . S
C818 C817 1.363 . S
C818 C824 1.428 . S
H819 C815 0.930 . S
H820 C817 0.929 . S
S821 N822 1.613 . S
S821 N823 1.610 . S
N822 S821 1.613 . S
N822 C825 1.350 . S
N823 S821 1.610 . S
N823 C824 1.351 . S
C824 C818 1.428 . S
C824 N823 1.351 . S
C824 C825 1.434 . S
C825 C816 1.429 . S
C825 N822 1.350 . S
C825 C824 1.434 . S
C826 C827 1.387 . S
C826 C828 1.419 . S
C826 H830 0.930 . S
C827 C826 1.387 . S
C827 C836 1.408 1_545 S
C828 C826 1.419 . S
C828 C829 1.363 1_545 S
C828 H831 0.929 . S
C829 C828 1.363 1_565 S
C829 C835 1.428 . S
H830 C826 0.930 . S
H831 C828 0.929 . S
S832 N833 1.613 . S
S832 N834 1.610 . S
N833 S832 1.613 . S
N833 C836 1.350 . S
N834 S832 1.610 . S
N834 C835 1.351 . S
C835 C829 1.428 . S
C835 N834 1.351 . S
C835 C836 1.434 . S
C836 C827 1.408 1_565 S
C836 N833 1.350 . S
C836 C835 1.434 . S
C837 C838 1.369 . S
C837 C839 1.419 . S
C837 H841 0.930 . S
C838 C837 1.369 . S
C838 C847 1.429 . S
C839 C837 1.419 . S
C839 C840 1.363 . S
C839 H842 0.929 . S
C840 C839 1.363 . S
C840 C846 1.428 . S
H841 C837 0.930 . S
H842 C839 0.929 . S
S843 N844 1.613 . S
S843 N845 1.610 . S
N844 S843 1.613 . S
N844 C847 1.350 . S
N845 S843 1.610 . S
N845 C846 1.351 . S
C846 C840 1.428 . S
C846 N845 1.351 . S
C846 C847 1.434 . S
C847 C838 1.429 . S
C847 N844 1.350 . S
C847 C846 1.434 . S
C848 C849 1.369 . S
C848 C850 1.419 . S
C848 H852 0.930 . S
C849 C848 1.369 . S
C849 C858 1.429 1_554 S
C850 C848 1.419 . S
C850 C851 1.363 1_554 S
C850 H853 0.929 . S
C851 C850 1.363 1_556 S
C851 C857 1.428 . S
H852 C848 0.930 . S
H853 C850 0.929 . S
S854 N855 1.613 . S
S854 N856 1.610 . S
N855 S854 1.613 . S
N855 C858 1.350 . S
N856 S854 1.610 . S
N856 C857 1.351 . S
C857 C851 1.428 . S
C857 N856 1.351 . S
C857 C858 1.434 . S
C858 C849 1.429 1_556 S
C858 N855 1.350 . S
C858 C857 1.434 . S
C859 C860 1.369 . S
C859 C861 1.419 . S
C859 H863 0.930 . S
C860 C859 1.369 . S
C860 C869 1.429 . S
C861 C859 1.419 . S
C861 C862 1.363 . S
C861 H864 0.929 . S
C862 C861 1.363 . S
C862 C868 1.428 . S
H863 C859 0.930 . S
H864 C861 0.929 . S
S865 N866 1.613 . S
S865 N867 1.610 . S
N866 S865 1.613 . S
N866 C869 1.350 . S
N867 S865 1.610 . S
N867 C868 1.351 . S
C868 C862 1.428 . S
C868 N867 1.351 . S
C868 C869 1.434 . S
C869 C860 1.429 . S
C869 N866 1.350 . S
C869 C868 1.434 . S
C870 C871 1.369 . S
C870 C872 1.419 . S
C870 H874 0.930 . S
C871 C870 1.369 . S
C871 C880 1.429 . S
C872 C870 1.419 . S
C872 C873 1.363 . S
C872 H875 0.929 . S
C873 C872 1.363 . S
C873 C879 1.428 . S
H874 C870 0.930 . S
H875 C872 0.929 . S
S876 N877 1.613 . S
S876 N878 1.610 . S
N877 S876 1.613 . S
N877 C880 1.350 . S
N878 S876 1.610 . S
N878 C879 1.351 . S
C879 C873 1.428 . S
C879 N878 1.351 . S
C879 C880 1.434 . S
C880 C871 1.429 . S
C880 N877 1.350 . S
C880 C879 1.434 . S
C881 C882 1.369 . S
C881 C883 1.419 . S
C881 H885 0.930 . S
C882 C881 1.369 . S
C882 C891 1.429 . S
C883 C881 1.419 . S
C883 C884 1.363 . S
C883 H886 0.929 . S
C884 C883 1.363 . S
C884 C890 1.428 . S
H885 C881 0.930 . S
H886 C883 0.929 . S
S887 N888 1.613 . S
S887 N889 1.610 . S
N888 S887 1.613 . S
N888 C891 1.350 . S
N889 S887 1.610 . S
N889 C890 1.351 . S
C890 C884 1.428 . S
C890 N889 1.351 . S
C890 C891 1.434 . S
C891 C882 1.429 . S
C891 N888 1.350 . S
C891 C890 1.434 . S
C892 C893 1.369 . S
C892 C894 1.419 . S
C892 H896 0.930 . S
C893 C892 1.369 . S
C893 C902 1.429 . S
C894 C892 1.419 . S
C894 C895 1.363 . S
C894 H897 0.929 . S
C895 C894 1.363 . S
C895 C901 1.428 . S
H896 C892 0.930 . S
H897 C894 0.929 . S
S898 N899 1.613 . S
S898 N900 1.610 . S
N899 S898 1.613 . S
N899 C902 1.350 . S
N900 S898 1.610 . S
N900 C901 1.351 . S
C901 C895 1.428 . S
C901 N900 1.351 . S
C901 C902 1.434 . S
C902 C893 1.429 . S
C902 N899 1.350 . S
C902 C901 1.434 . S
C903 C904 1.369 . S
C903 C905 1.419 . S
C903 H907 0.930 . S
C904 C903 1.369 . S
C904 C913 1.429 . S
C905 C903 1.419 . S
C905 C906 1.363 . S
C905 H908 0.929 . S
C906 C905 1.363 . S
C906 C912 1.428 . S
H907 C903 0.930 . S
H908 C905 0.929 . S
S909 N910 1.613 . S
S909 N911 1.610 . S
N910 S909 1.613 . S
N910 C913 1.350 . S
N911 S909 1.610 . S
N911 C912 1.351 . S
C912 C906 1.428 . S
C912 N911 1.351 . S
C912 C913 1.434 . S
C913 C904 1.429 . S
C913 N910 1.350 . S
C913 C912 1.434 . S
C914 C915 1.369 . S
C914 C916 1.419 . S
C914 H918 0.930 . S
C915 C914 1.369 . S
C915 C924 1.429 . S
C916 C914 1.419 . S
C916 C917 1.363 . S
C916 H919 0.929 . S
C917 C916 1.363 . S
C917 C923 1.428 . S
H918 C914 0.930 . S
H919 C916 0.929 . S
S920 N921 1.613 . S
S920 N922 1.610 . S
N921 S920 1.613 . S
N921 C924 1.350 . S
N922 S920 1.610 . S
N922 C923 1.351 . S
C923 C917 1.428 . S
C923 N922 1.351 . S
C923 C924 1.434 . S
C924 C915 1.429 . S
C924 N921 1.350 . S
C924 C923 1.434 . S
C925 C926 1.369 . S
C925 C927 1.419 . S
C925 H929 0.930 . S
C926 C925 1.369 . S
C926 C935 1.429 . S
C927 C925 1.419 . S
C927 C928 1.363 . S
C927 H930 0.929 . S
C928 C927 1.363 . S
C928 C934 1.428 . S
H929 C925 0.930 . S
H930 C927 0.929 . S
S931 N932 1.613 . S
S931 N933 1.610 . S
N932 S931 1.613 . S
N932 C935 1.350 . S
N933 S931 1.610 . S
N933 C934 1.351 . S
C934 C928 1.428 . S
C934 N933 1.351 . S
C934 C935 1.434 . S
C935 C926 1.429 . S
C935 N932 1.350 . S
C935 C934 1.434 . S
C936 C937 1.369 . S
C936 C938 1.419 . S
C936 H940 0.930 . S
C937 C936 1.369 . S
C937 C946 1.429 1_455 S
C938 C936 1.419 . S
C938 C939 1.363 . S
C938 H941 0.929 . S
C939 C938 1.363 . S
C939 C945 1.428 1_455 S
H940 C936 0.930 . S
H941 C938 0.929 . S
S942 N943 1.613 . S
S942 N944 1.610 . S
N943 S942 1.613 . S
N943 C946 1.350 . S
N944 S942 1.610 . S
N944 C945 1.351 . S
C945 C939 1.428 1_655 S
C945 N944 1.351 . S
C945 C946 1.434 . S
C946 C937 1.429 1_655 S
C946 N943 1.350 . S
C946 C945 1.434 . S
C947 C948 1.369 . S
C947 C949 1.419 . S
C947 H951 0.930 . S
C948 C947 1.369 . S
C948 C957 1.429 . S
C949 C947 1.419 . S
C949 C950 1.363 . S
C949 H952 0.929 . S
C950 C949 1.363 . S
C950 C956 1.428 . S
H951 C947 0.930 . S
H952 C949 0.929 . S
S953 N954 1.613 . S
S953 N955 1.610 . S
N954 S953 1.613 . S
N954 C957 1.350 . S
N955 S953 1.610 . S
N955 C956 1.351 . S
C956 C950 1.428 . S
C956 N955 1.351 . S
C956 C957 1.434 . S
C957 C948 1.429 . S
C957 N954 1.350 . S
C957 C956 1.434 . S
C958 C959 1.369 . S
C958 C960 1.419 . S
C958 H962 0.930 . S
C959 C958 1.369 . S
C959 C968 1.429 . S
C960 C958 1.419 . S
C960 C961 1.363 . S
C960 H963 0.929 . S
C961 C960 1.363 . S
C961 C967 1.428 . S
H962 C958 0.930 . S
H963 C960 0.929 . S
S964 N965 1.613 . S
S964 N966 1.610 . S
N965 S964 1.613 . S
N965 C968 1.350 . S
N966 S964 1.610 . S
N966 C967 1.351 . S
C967 C961 1.428 . S
C967 N966 1.351 . S
C967 C968 1.434 . S
C968 C959 1.429 . S
C968 N965 1.350 . S
C968 C967 1.434 . S
C969 C970 1.369 . S
C969 C971 1.419 . S
C969 H973 0.930 . S
C970 C969 1.369 . S
C970 C979 1.429 . S
C971 C969 1.419 . S
C971 C972 1.363 . S
C971 H974 0.929 . S
C972 C971 1.363 . S
C972 C978 1.428 . S
H973 C969 0.930 . S
H974 C971 0.929 . S
S975 N976 1.613 . S
S975 N977 1.610 . S
N976 S975 1.613 . S
N976 C979 1.350 . S
N977 S975 1.610 . S
N977 C978 1.351 . S
C978 C972 1.428 . S
C978 N977 1.351 . S
C978 C979 1.434 . S
C979 C970 1.429 . S
C979 N976 1.350 . S
C979 C978 1.434 . S
C980 C981 1.369 . S
C980 C982 1.419 . S
C980 H984 0.930 . S
C981 C980 1.369 . S
C981 C990 1.429 1_455 S
C982 C980 1.419 . S
C982 C983 1.363 . S
C982 H985 0.929 . S
C983 C982 1.363 . S
C983 C989 1.428 1_455 S
H984 C980 0.930 . S
H985 C982 0.929 . S
S986 N987 1.613 . S
S986 N988 1.610 . S
N987 S986 1.613 . S
N987 C990 1.350 . S
N988 S986 1.610 . S
N988 C989 1.351 . S
C989 C983 1.428 1_655 S
C989 N988 1.351 . S
C989 C990 1.434 . S
C990 C981 1.429 1_655 S
C990 N987 1.350 . S
C990 C989 1.434 . S
C991 C992 1.369 . S
C991 C993 1.419 . S
C991 H995 0.930 . S
C992 C991 1.369 . S
C992 C1001 1.429 . S
C993 C991 1.419 . S
C993 C994 1.363 . S
C993 H996 0.929 . S
C994 C993 1.363 . S
C994 C1000 1.428 . S
H995 C991 0.930 . S
H996 C993 0.929 . S
S997 N998 1.613 . S
S997 N999 1.610 . S
N998 S997 1.613 . S
N998 C1001 1.350 . S
N999 S997 1.610 . S
N999 C1000 1.351 . S
C1000 C994 1.428 . S
C1000 N999 1.351 . S
C1000 C1001 1.434 . S
C1001 C992 1.429 . S
C1001 N998 1.350 . S
C1001 C1000 1.434 . S
C1002 C1003 1.369 . S
C1002 C1004 1.419 . S
C1002 H1006 0.930 . S
C1003 C1002 1.369 . S
C1003 C1012 1.429 . S
C1004 C1002 1.419 . S
C1004 C1005 1.363 . S
C1004 H1007 0.929 . S
C1005 C1004 1.363 . S
C1005 C1011 1.428 . S
H1006 C1002 0.930 . S
H1007 C1004 0.929 . S
S1008 N1009 1.613 1_556 S
S1008 N1010 1.610 . S
N1009 S1008 1.613 1_554 S
N1009 C1012 1.350 . S
N1010 S1008 1.610 . S
N1010 C1011 1.351 1_556 S
C1011 C1005 1.428 . S
C1011 N1010 1.351 1_554 S
C1011 C1012 1.434 . S
C1012 C1003 1.429 . S
C1012 N1009 1.350 . S
C1012 C1011 1.434 . S
C1013 C1014 1.369 . S
C1013 C1015 1.419 . S
C1013 H1017 0.930 . S
C1014 C1013 1.369 . S
C1014 C1023 1.429 . S
C1015 C1013 1.419 . S
C1015 C1016 1.363 . S
C1015 H1018 0.929 . S
C1016 C1015 1.363 . S
C1016 C1022 1.428 . S
H1017 C1013 0.930 . S
H1018 C1015 0.929 . S
S1019 N1020 1.613 . S
S1019 N1021 1.610 . S
N1020 S1019 1.613 . S
N1020 C1023 1.350 . S
N1021 S1019 1.610 . S
N1021 C1022 1.351 . S
C1022 C1016 1.428 . S
C1022 N1021 1.351 . S
C1022 C1023 1.434 . S
C1023 C1014 1.429 . S
C1023 N1020 1.350 . S
C1023 C1022 1.434 . S
C1024 C1025 1.369 1_565 S
C1024 C1026 1.419 . S
C1024 H1028 0.930 . S
C1025 C1024 1.369 1_545 S
C1025 C1034 1.429 . S
C1026 C1024 1.419 . S
C1026 C1027 1.363 1_565 S
C1026 H1029 0.929 . S
C1027 C1026 1.363 1_545 S
C1027 C1033 1.428 . S
H1028 C1024 0.930 . S
H1029 C1026 0.929 . S
S1030 N1031 1.613 . S
S1030 N1032 1.610 . S
N1031 S1030 1.613 . S
N1031 C1034 1.350 . S
N1032 S1030 1.610 . S
N1032 C1033 1.351 . S
C1033 C1027 1.428 . S
C1033 N1032 1.351 . S
C1033 C1034 1.434 . S
C1034 C1025 1.429 . S
C1034 N1031 1.350 . S
C1034 C1033 1.434 . S
C1035 C1036 1.369 . S
C1035 C1037 1.419 . S
C1035 H1039 0.930 . S
C1036 C1035 1.369 . S
C1036 C1045 1.429 . S
C1037 C1035 1.419 . S
C1037 C1038 1.363 . S
C1037 H1040 0.929 . S
C1038 C1037 1.363 . S
C1038 C1044 1.428 . S
H1039 C1035 0.930 . S
H1040 C1037 0.929 . S
S1041 N1042 1.613 . S
S1041 N1043 1.610 . S
N1042 S1041 1.613 . S
N1042 C1045 1.350 . S
N1043 S1041 1.610 . S
N1043 C1044 1.351 . S
C1044 C1038 1.428 . S
C1044 N1043 1.351 . S
C1044 C1045 1.434 . S
C1045 C1036 1.429 . S
C1045 N1042 1.350 . S
C1045 C1044 1.434 . S
C1046 C1047 1.369 1_565 S
C1046 C1048 1.419 . S
C1046 H1050 0.930 . S
C1047 C1046 1.369 1_545 S
C1047 C1056 1.429 . S
C1048 C1046 1.419 . S
C1048 C1049 1.363 . S
C1048 H1051 0.929 . S
C1049 C1048 1.363 . S
C1049 C1055 1.428 1_565 S
H1050 C1046 0.930 . S
H1051 C1048 0.929 . S
S1052 N1053 1.613 . S
S1052 N1054 1.610 . S
N1053 S1052 1.613 . S
N1053 C1056 1.350 . S
N1054 S1052 1.610 . S
N1054 C1055 1.351 . S
C1055 C1049 1.428 1_545 S
C1055 N1054 1.351 . S
C1055 C1056 1.434 . S
C1056 C1047 1.429 . S
C1056 N1053 1.350 . S
C1056 C1055 1.434 . S
C1057 C1058 1.369 . S
C1057 C1059 1.419 . S
C1057 H1061 0.930 . S
C1058 C1057 1.369 . S
C1058 C1067 1.429 . S
C1059 C1057 1.419 . S
C1059 C1060 1.363 . S
C1059 H1062 0.929 . S
C1060 C1059 1.363 . S
C1060 C1066 1.428 . S
H1061 C1057 0.930 . S
H1062 C1059 0.929 . S
S1063 N1064 1.613 . S
S1063 N1065 1.610 . S
N1064 S1063 1.613 . S
N1064 C1067 1.350 . S
N1065 S1063 1.610 . S
N1065 C1066 1.351 . S
C1066 C1060 1.428 . S
C1066 N1065 1.351 . S
C1066 C1067 1.434 . S
C1067 C1058 1.429 . S
C1067 N1064 1.350 . S
C1067 C1066 1.434 . S
C1068 C1069 1.397 . S
C1068 C1070 1.419 . S
C1068 H1072 0.930 . S
C1069 C1068 1.397 . S
C1069 C1078 1.405 1_565 S
C1070 C1068 1.419 . S
C1070 C1071 1.363 . S
C1070 H1073 0.929 . S
C1071 C1070 1.363 . S
C1071 C1077 1.428 1_565 S
H1072 C1068 0.930 . S
H1073 C1070 0.929 . S
S1074 N1075 1.613 . S
S1074 N1076 1.610 . S
N1075 S1074 1.613 . S
N1075 C1078 1.350 . S
N1076 S1074 1.610 . S
N1076 C1077 1.351 . S
C1077 C1071 1.428 1_545 S
C1077 N1076 1.351 . S
C1077 C1078 1.434 . S
C1078 C1069 1.405 1_545 S
C1078 N1075 1.350 . S
C1078 C1077 1.434 . S
C1079 C1080 1.369 . S
C1079 C1081 1.419 . S
C1079 H1083 0.930 . S
C1080 C1079 1.369 . S
C1080 C1089 1.429 . S
C1081 C1079 1.419 . S
C1081 C1082 1.363 . S
C1081 H1084 0.929 . S
C1082 C1081 1.363 . S
C1082 C1088 1.428 . S
H1083 C1079 0.930 . S
H1084 C1081 0.929 . S
S1085 N1086 1.613 . S
S1085 N1087 1.610 . S
N1086 S1085 1.613 . S
N1086 C1089 1.350 . S
N1087 S1085 1.610 . S
N1087 C1088 1.351 . S
C1088 C1082 1.428 . S
C1088 N1087 1.351 . S
C1088 C1089 1.434 . S
C1089 C1080 1.429 . S
C1089 N1086 1.350 . S
C1089 C1088 1.434 . S
C1090 C1091 1.369 . S
C1090 C1092 1.419 . S
C1090 H1094 0.930 . S
C1091 C1090 1.369 . S
C1091 C1100 1.429 . S
C1092 C1090 1.419 . S
C1092 C1093 1.363 . S
C1092 H1095 0.929 . S
C1093 C1092 1.363 . S
C1093 C1099 1.428 . S
H1094 C1090 0.930 . S
H1095 C1092 0.929 . S
S1096 N1097 1.613 . S
S1096 N1098 1.610 . S
N1097 S1096 1.613 . S
N1097 C1100 1.350 . S
N1098 S1096 1.610 . S
N1098 C1099 1.351 . S
C1099 C1093 1.428 . S
C1099 N1098 1.351 . S
C1099 C1100 1.434 . S
C1100 C1091 1.429 . S
C1100 N1097 1.350 . S
C1100 C1099 1.434 . S
C1101 C1102 1.369 . S
C1101 C1103 1.419 . S
C1101 H1105 0.930 . S
C1102 C1101 1.369 . S
C1102 C1111 1.429 . S
C1103 C1101 1.419 . S
C1103 C1104 1.363 . S
C1103 H1106 0.929 . S
C1104 C1103 1.363 . S
C1104 C1110 1.428 . S
H1105 C1101 0.930 . S
H1106 C1103 0.929 . S
S1107 N1108 1.613 . S
S1107 N1109 1.610 . S
N1108 S1107 1.613 . S
N1108 C1111 1.350 . S
N1109 S1107 1.610 . S
N1109 C1110 1.351 . S
C1110 C1104 1.428 . S
C1110 N1109 1.351 . S
C1110 C1111 1.434 . S
C1111 C1102 1.429 . S
C1111 N1108 1.350 . S
C1111 C1110 1.434 . S
C1112 C1113 1.369 . S
C1112 C1114 1.419 . S
C1112 H1116 0.930 . S
C1113 C1112 1.369 . S
C1113 C1122 1.429 1_554 S
C1114 C1112 1.419 . S
C1114 C1115 1.363 . S
C1114 H1117 0.929 . S
C1115 C1114 1.363 . S
C1115 C1121 1.428 . S
H1116 C1112 0.930 . S
H1117 C1114 0.929 . S
S1118 N1119 1.613 . S
S1118 N1120 1.610 . S
N1119 S1118 1.613 . S
N1119 C1122 1.350 . S
N1120 S1118 1.610 . S
N1120 C1121 1.351 1_556 S
C1121 C1115 1.428 . S
C1121 N1120 1.351 1_554 S
C1121 C1122 1.434 1_554 S
C1122 C1113 1.429 1_556 S
C1122 N1119 1.350 . S
C1122 C1121 1.434 1_556 S
C1123 C1124 1.359 1_554 S
C1123 C1125 1.419 . S
C1123 H1127 0.930 . S
C1124 C1123 1.359 1_556 S
C1124 C1133 1.440 . S
C1125 C1123 1.419 . S
C1125 C1126 1.363 1_554 S
C1125 H1128 0.929 . S
C1126 C1125 1.363 1_556 S
C1126 C1132 1.428 . S
H1127 C1123 0.930 . S
H1128 C1125 0.929 . S
S1129 N1130 1.613 . S
S1129 N1131 1.610 . S
N1130 S1129 1.613 . S
N1130 C1133 1.350 . S
N1131 S1129 1.610 . S
N1131 C1132 1.351 . S
C1132 C1126 1.428 . S
C1132 N1131 1.351 . S
C1132 C1133 1.434 . S
C1133 C1124 1.440 . S
C1133 N1130 1.350 . S
C1133 C1132 1.434 . S
C1134 C1135 1.369 . S
C1134 C1136 1.419 . S
C1134 H1138 0.930 . S
C1135 C1134 1.369 . S
C1135 C1144 1.429 . S
C1136 C1134 1.419 . S
C1136 C1137 1.363 . S
C1136 H1139 0.929 . S
C1137 C1136 1.363 . S
C1137 C1143 1.428 . S
H1138 C1134 0.930 . S
H1139 C1136 0.929 . S
S1140 N1141 1.613 . S
S1140 N1142 1.610 . S
N1141 S1140 1.613 . S
N1141 C1144 1.350 . S
N1142 S1140 1.610 . S
N1142 C1143 1.351 . S
C1143 C1137 1.428 . S
C1143 N1142 1.351 . S
C1143 C1144 1.434 . S
C1144 C1135 1.429 . S
C1144 N1141 1.350 . S
C1144 C1143 1.434 . S
C1145 C1146 1.369 . S
C1145 C1147 1.419 . S
C1145 H1149 0.930 . S
C1146 C1145 1.369 . S
C1146 C1155 1.429 . S
C1147 C1145 1.419 . S
C1147 C1148 1.363 . S
C1147 H1150 0.929 . S
C1148 C1147 1.363 . S
C1148 C1154 1.428 . S
H1149 C1145 0.930 . S
H1150 C1147 0.929 . S
S1151 N1152 1.613 . S
S1151 N1153 1.610 . S
N1152 S1151 1.613 . S
N1152 C1155 1.350 . S
N1153 S1151 1.610 . S
N1153 C1154 1.351 . S
C1154 C1148 1.428 . S
C1154 N1153 1.351 . S
C1154 C1155 1.434 . S
C1155 C1146 1.429 . S
C1155 N1152 1.350 . S
C1155 C1154 1.434 . S
C1156 C1157 1.369 . S
C1156 C1158 1.419 . S
C1156 H1160 0.930 . S
C1157 C1156 1.369 . S
C1157 C1166 1.429 . S
C1158 C1156 1.419 . S
C1158 C1159 1.363 . S
C1158 H1161 0.929 . S
C1159 C1158 1.363 . S
C1159 C1165 1.428 . S
H1160 C1156 0.930 . S
H1161 C1158 0.929 . S
S1162 N1163 1.613 . S
S1162 N1164 1.610 . S
N1163 S1162 1.613 . S
N1163 C1166 1.350 . S
N1164 S1162 1.610 . S
N1164 C1165 1.351 . S
C1165 C1159 1.428 . S
C1165 N1164 1.351 . S
C1165 C1166 1.434 . S
C1166 C1157 1.429 . S
C1166 N1163 1.350 . S
C1166 C1165 1.434 . S
C1167 C1168 1.369 . S
C1167 C1169 1.419 . S
C1167 H1171 0.930 . S
C1168 C1167 1.369 . S
C1168 C1177 1.429 . S
C1169 C1167 1.419 . S
C1169 C1170 1.363 . S
C1169 H1172 0.929 . S
C1170 C1169 1.363 . S
C1170 C1176 1.428 . S
H1171 C1167 0.930 . S
H1172 C1169 0.929 . S
S1173 N1174 1.613 1_565 S
S1173 N1175 1.610 1_565 S
N1174 S1173 1.613 1_545 S
N1174 C1177 1.350 . S
N1175 S1173 1.610 1_545 S
N1175 C1176 1.351 . S
C1176 C1170 1.428 . S
C1176 N1175 1.351 . S
C1176 C1177 1.434 . S
C1177 C1168 1.429 . S
C1177 N1174 1.350 . S
C1177 C1176 1.434 . S
C1178 C1179 1.369 . S
C1178 C1180 1.419 . S
C1178 H1182 0.930 . S
C1179 C1178 1.369 . S
C1179 C1188 1.429 . S
C1180 C1178 1.419 . S
C1180 C1181 1.363 . S
C1180 H1183 0.929 . S
C1181 C1180 1.363 . S
C1181 C1187 1.428 . S
H1182 C1178 0.930 . S
H1183 C1180 0.929 . S
S1184 N1185 1.613 . S
S1184 N1186 1.610 . S
N1185 S1184 1.613 . S
N1185 C1188 1.350 . S
N1186 S1184 1.610 . S
N1186 C1187 1.351 . S
C1187 C1181 1.428 . S
C1187 N1186 1.351 . S
C1187 C1188 1.434 . S
C1188 C1179 1.429 . S
C1188 N1185 1.350 . S
C1188 C1187 1.434 . S
C1189 C1190 1.369 . S
C1189 C1191 1.419 . S
C1189 H1193 0.930 . S
C1190 C1189 1.369 . S
C1190 C1199 1.429 . S
C1191 C1189 1.419 . S
C1191 C1192 1.363 . S
C1191 H1194 0.929 . S
C1192 C1191 1.363 . S
C1192 C1198 1.428 . S
H1193 C1189 0.930 . S
H1194 C1191 0.929 . S
S1195 N1196 1.613 . S
S1195 N1197 1.610 . S
N1196 S1195 1.613 . S
N1196 C1199 1.350 . S
N1197 S1195 1.610 . S
N1197 C1198 1.351 . S
C1198 C1192 1.428 . S
C1198 N1197 1.351 . S
C1198 C1199 1.434 . S
C1199 C1190 1.429 . S
C1199 N1196 1.350 . S
C1199 C1198 1.434 . S
C1200 C1201 1.369 . S
C1200 C1202 1.419 . S
C1200 H1204 0.930 . S
C1201 C1200 1.369 . S
C1201 C1210 1.429 . S
C1202 C1200 1.419 . S
C1202 C1203 1.363 . S
C1202 H1205 0.929 . S
C1203 C1202 1.363 . S
C1203 C1209 1.428 . S
H1204 C1200 0.930 . S
H1205 C1202 0.929 . S
S1206 N1207 1.613 . S
S1206 N1208 1.610 . S
N1207 S1206 1.613 . S
N1207 C1210 1.350 . S
N1208 S1206 1.610 . S
N1208 C1209 1.351 . S
C1209 C1203 1.428 . S
C1209 N1208 1.351 . S
C1209 C1210 1.434 . S
C1210 C1201 1.429 . S
C1210 N1207 1.350 . S
C1210 C1209 1.434 . S
C1211 C1212 1.369 . S
C1211 C1213 1.419 . S
C1211 H1215 0.930 . S
C1212 C1211 1.369 . S
C1212 C1221 1.429 . S
C1213 C1211 1.419 . S
C1213 C1214 1.363 . S
C1213 H1216 0.929 . S
C1214 C1213 1.363 . S
C1214 C1220 1.428 . S
H1215 C1211 0.930 . S
H1216 C1213 0.929 . S
S1217 N1218 1.613 . S
S1217 N1219 1.610 . S
N1218 S1217 1.613 . S
N1218 C1221 1.350 . S
N1219 S1217 1.610 . S
N1219 C1220 1.351 . S
C1220 C1214 1.428 . S
C1220 N1219 1.351 . S
C1220 C1221 1.434 . S
C1221 C1212 1.429 . S
C1221 N1218 1.350 . S
C1221 C1220 1.434 . S
C1222 C1223 1.369 . S
C1222 C1224 1.419 . S
C1222 H1226 0.930 . S
C1223 C1222 1.369 . S
C1223 C1232 1.429 1_455 S
C1224 C1222 1.419 . S
C1224 C1225 1.363 . S
C1224 H1227 0.929 . S
C1225 C1224 1.363 . S
C1225 C1231 1.428 1_455 S
H1226 C1222 0.930 . S
H1227 C1224 0.929 . S
S1228 N1229 1.613 . S
S1228 N1230 1.610 . S
N1229 S1228 1.613 . S
N1229 C1232 1.350 . S
N1230 S1228 1.610 . S
N1230 C1231 1.351 . S
C1231 C1225 1.428 1_655 S
C1231 N1230 1.351 . S
C1231 C1232 1.434 . S
C1232 C1223 1.429 1_655 S
C1232 N1229 1.350 . S
C1232 C1231 1.434 . S
C1233 C1234 1.369 . S
C1233 C1235 1.419 . S
C1233 H1237 0.930 . S
C1234 C1233 1.369 . S
C1234 C1243 1.429 . S
C1235 C1233 1.419 . S
C1235 C1236 1.363 . S
C1235 H1238 0.929 . S
C1236 C1235 1.363 . S
C1236 C1242 1.428 . S
H1237 C1233 0.930 . S
H1238 C1235 0.929 . S
S1239 N1240 1.613 . S
S1239 N1241 1.610 . S
N1240 S1239 1.613 . S
N1240 C1243 1.350 . S
N1241 S1239 1.610 . S
N1241 C1242 1.351 . S
C1242 C1236 1.428 . S
C1242 N1241 1.351 . S
C1242 C1243 1.434 . S
C1243 C1234 1.429 . S
C1243 N1240 1.350 . S
C1243 C1242 1.434 . S
C1244 C1245 1.369 . S
C1244 C1246 1.419 . S
C1244 H1248 0.930 . S
C1245 C1244 1.369 . S
C1245 C1254 1.429 . S
C1246 C1244 1.419 . S
C1246 C1247 1.363 . S
C1246 H1249 0.929 . S
C1247 C1246 1.363 . S
C1247 C1253 1.428 . S
H1248 C1244 0.930 . S
H1249 C1246 0.929 . S
S1250 N1251 1.613 . S
S1250 N1252 1.610 . S
N1251 S1250 1.613 . S
N1251 C1254 1.350 . S
N1252 S1250 1.610 . S
N1252 C1253 1.351 . S
C1253 C1247 1.428 . S
C1253 N1252 1.351 . S
C1253 C1254 1.434 . S
C1254 C1245 1.429 . S
C1254 N1251 1.350 . S
C1254 C1253 1.434 . S
C1255 C1256 1.369 . S
C1255 C1257 1.419 . S
C1255 H1259 0.930 . S
C1256 C1255 1.369 . S
C1256 C1265 1.429 . S
C1257 C1255 1.419 . S
C1257 C1258 1.363 . S
C1257 H1260 0.929 . S
C1258 C1257 1.363 . S
C1258 C1264 1.428 . S
H1259 C1255 0.930 . S
H1260 C1257 0.929 . S
S1261 N1262 1.613 . S
S1261 N1263 1.610 . S
N1262 S1261 1.613 . S
N1262 C1265 1.350 . S
N1263 S1261 1.610 . S
N1263 C1264 1.351 . S
C1264 C1258 1.428 . S
C1264 N1263 1.351 . S
C1264 C1265 1.434 . S
C1265 C1256 1.429 . S
C1265 N1262 1.350 . S
C1265 C1264 1.434 . S
C1266 C1267 1.369 1_655 S
C1266 C1268 1.419 . S
C1266 H1270 0.930 . S
C1267 C1266 1.369 1_455 S
C1267 C1276 1.429 . S
C1268 C1266 1.419 . S
C1268 C1269 1.363 1_655 S
C1268 H1271 0.929 . S
C1269 C1268 1.363 1_455 S
C1269 C1275 1.428 . S
H1270 C1266 0.930 . S
H1271 C1268 0.929 . S
S1272 N1273 1.613 . S
S1272 N1274 1.610 . S
N1273 S1272 1.613 . S
N1273 C1276 1.350 . S
N1274 S1272 1.610 . S
N1274 C1275 1.351 . S
C1275 C1269 1.428 . S
C1275 N1274 1.351 . S
C1275 C1276 1.434 . S
C1276 C1267 1.429 . S
C1276 N1273 1.350 . S
C1276 C1275 1.434 . S
C1277 C1278 1.369 . S
C1277 C1279 1.419 . S
C1277 H1281 0.930 . S
C1278 C1277 1.369 . S
C1278 C1287 1.429 . S
C1279 C1277 1.419 . S
C1279 C1280 1.363 . S
C1279 H1282 0.929 . S
C1280 C1279 1.363 . S
C1280 C1286 1.428 . S
H1281 C1277 0.930 . S
H1282 C1279 0.929 . S
S1283 N1284 1.613 . S
S1283 N1285 1.610 . S
N1284 S1283 1.613 . S
N1284 C1287 1.350 . S
N1285 S1283 1.610 . S
N1285 C1286 1.351 . S
C1286 C1280 1.428 . S
C1286 N1285 1.351 . S
C1286 C1287 1.434 . S
C1287 C1278 1.429 . S
C1287 N1284 1.350 . S
C1287 C1286 1.434 . S
C1288 C1289 1.369 . S
C1288 C1290 1.419 . S
C1288 H1292 0.930 . S
C1289 C1288 1.369 . S
C1289 C1298 1.429 . S
C1290 C1288 1.419 . S
C1290 C1291 1.363 . S
C1290 H1293 0.929 . S
C1291 C1290 1.363 . S
C1291 C1297 1.428 . S
H1292 C1288 0.930 . S
H1293 C1290 0.929 . S
S1294 N1295 1.613 . S
S1294 N1296 1.610 . S
N1295 S1294 1.613 . S
N1295 C1298 1.350 . S
N1296 S1294 1.610 . S
N1296 C1297 1.351 . S
C1297 C1291 1.428 . S
C1297 N1296 1.351 . S
C1297 C1298 1.434 . S
C1298 C1289 1.429 . S
C1298 N1295 1.350 . S
C1298 C1297 1.434 . S
C1299 C1300 1.369 . S
C1299 C1301 1.419 . S
C1299 H1303 0.930 . S
C1300 C1299 1.369 . S
C1300 C1309 1.429 . S
C1301 C1299 1.419 . S
C1301 C1302 1.363 . S
C1301 H1304 0.929 . S
C1302 C1301 1.363 . S
C1302 C1308 1.428 . S
H1303 C1299 0.930 . S
H1304 C1301 0.929 . S
S1305 N1306 1.613 . S
S1305 N1307 1.610 . S
N1306 S1305 1.613 . S
N1306 C1309 1.350 . S
N1307 S1305 1.610 . S
N1307 C1308 1.351 . S
C1308 C1302 1.428 . S
C1308 N1307 1.351 . S
C1308 C1309 1.434 . S
C1309 C1300 1.429 . S
C1309 N1306 1.350 . S
C1309 C1308 1.434 . S
C1310 C1311 1.369 . S
C1310 C1312 1.419 . S
C1310 H1314 0.930 . S
C1311 C1310 1.369 . S
C1311 C1320 1.429 . S
C1312 C1310 1.419 . S
C1312 C1313 1.363 . S
C1312 H1315 0.929 . S
C1313 C1312 1.363 . S
C1313 C1319 1.428 . S
H1314 C1310 0.930 . S
H1315 C1312 0.929 . S
S1316 N1317 1.613 . S
S1316 N1318 1.610 . S
N1317 S1316 1.613 . S
N1317 C1320 1.350 . S
N1318 S1316 1.610 . S
N1318 C1319 1.351 . S
C1319 C1313 1.428 . S
C1319 N1318 1.351 . S
C1319 C1320 1.434 . S
C1320 C1311 1.429 . S
C1320 N1317 1.350 . S
C1320 C1319 1.434 . S
C1321 C1322 1.369 . S
C1321 C1323 1.419 . S
C1321 H1325 0.930 . S
C1322 C1321 1.369 . S
C1322 C1331 1.429 . S
C1323 C1321 1.419 . S
C1323 C1324 1.363 . S
C1323 H1326 0.929 . S
C1324 C1323 1.363 . S
C1324 C1330 1.428 . S
H1325 C1321 0.930 . S
H1326 C1323 0.929 . S
S1327 N1328 1.613 . S
S1327 N1329 1.610 . S
N1328 S1327 1.613 . S
N1328 C1331 1.350 . S
N1329 S1327 1.610 . S
N1329 C1330 1.351 . S
C1330 C1324 1.428 . S
C1330 N1329 1.351 . S
C1330 C1331 1.434 . S
C1331 C1322 1.429 . S
C1331 N1328 1.350 . S
C1331 C1330 1.434 . S
C1332 C1333 1.369 . S
C1332 C1334 1.419 . S
C1332 H1336 0.930 . S
C1333 C1332 1.369 . S
C1333 C1342 1.429 . S
C1334 C1332 1.419 . S
C1334 C1335 1.363 . S
C1334 H1337 0.929 . S
C1335 C1334 1.363 . S
C1335 C1341 1.428 . S
H1336 C1332 0.930 . S
H1337 C1334 0.929 . S
S1338 N1339 1.613 . S
S1338 N1340 1.610 . S
N1339 S1338 1.613 . S
N1339 C1342 1.350 . S
N1340 S1338 1.610 . S
N1340 C1341 1.351 . S
C1341 C1335 1.428 . S
C1341 N1340 1.351 . S
C1341 C1342 1.434 . S
C1342 C1333 1.429 . S
C1342 N1339 1.350 . S
C1342 C1341 1.434 . S
C1343 C1344 1.369 . S
C1343 C1345 1.419 . S
C1343 H1347 0.930 . S
C1344 C1343 1.369 . S
C1344 C1353 1.429 . S
C1345 C1343 1.419 . S
C1345 C1346 1.363 . S
C1345 H1348 0.929 . S
C1346 C1345 1.363 . S
C1346 C1352 1.428 . S
H1347 C1343 0.930 . S
H1348 C1345 0.929 . S
S1349 N1350 1.613 . S
S1349 N1351 1.610 . S
N1350 S1349 1.613 . S
N1350 C1353 1.350 . S
N1351 S1349 1.610 . S
N1351 C1352 1.351 . S
C1352 C1346 1.428 . S
C1352 N1351 1.351 . S
C1352 C1353 1.434 . S
C1353 C1344 1.429 . S
C1353 N1350 1.350 . S
C1353 C1352 1.434 . S
C1354 C1355 1.369 . S
C1354 C1356 1.419 . S
C1354 H1358 0.930 . S
C1355 C1354 1.369 . S
C1355 C1364 1.429 . S
C1356 C1354 1.419 . S
C1356 C1357 1.363 . S
C1356 H1359 0.929 . S
C1357 C1356 1.363 . S
C1357 C1363 1.428 . S
H1358 C1354 0.930 . S
H1359 C1356 0.929 . S
S1360 N1361 1.623 . S
S1360 N1362 1.611 . S
N1361 S1360 1.623 . S
N1361 C1364 1.350 . S
N1362 S1360 1.611 . S
N1362 C1363 1.351 . S
C1363 C1357 1.428 . S
C1363 N1362 1.351 . S
C1363 C1364 1.434 . S
C1364 C1355 1.429 . S
C1364 N1361 1.350 . S
C1364 C1363 1.434 . S
C1365 C1366 1.369 . S
C1365 C1367 1.419 . S
C1365 H1369 0.930 . S
C1366 C1365 1.369 . S
C1366 C1375 1.429 . S
C1367 C1365 1.419 . S
C1367 C1368 1.363 . S
C1367 H1370 0.929 . S
C1368 C1367 1.363 . S
C1368 C1374 1.428 . S
H1369 C1365 0.930 . S
H1370 C1367 0.929 . S
S1371 N1372 1.613 . S
S1371 N1373 1.610 . S
N1372 S1371 1.613 . S
N1372 C1375 1.350 . S
N1373 S1371 1.610 . S
N1373 C1374 1.351 . S
C1374 C1368 1.428 . S
C1374 N1373 1.351 . S
C1374 C1375 1.434 . S
C1375 C1366 1.429 . S
C1375 N1372 1.350 . S
C1375 C1374 1.434 . S
C1376 C1377 1.369 . S
C1376 C1378 1.419 . S
C1376 H1380 0.930 . S
C1377 C1376 1.369 . S
C1377 C1386 1.429 . S
C1378 C1376 1.419 . S
C1378 C1379 1.363 . S
C1378 H1381 0.929 . S
C1379 C1378 1.363 . S
C1379 C1385 1.428 . S
H1380 C1376 0.930 . S
H1381 C1378 0.929 . S
S1382 N1383 1.613 . S
S1382 N1384 1.610 . S
N1383 S1382 1.613 . S
N1383 C1386 1.350 . S
N1384 S1382 1.610 . S
N1384 C1385 1.351 . S
C1385 C1379 1.428 . S
C1385 N1384 1.351 . S
C1385 C1386 1.434 . S
C1386 C1377 1.429 . S
C1386 N1383 1.350 . S
C1386 C1385 1.434 . S
C1387 C1388 1.369 . S
C1387 C1389 1.419 . S
C1387 H1391 0.930 . S
C1388 C1387 1.369 . S
C1388 C1397 1.429 . S
C1389 C1387 1.419 . S
C1389 C1390 1.363 . S
C1389 H1392 0.929 . S
C1390 C1389 1.363 . S
C1390 C1396 1.428 . S
H1391 C1387 0.930 . S
H1392 C1389 0.929 . S
S1393 N1394 1.613 1_545 S
S1393 N1395 1.611 . S
N1394 S1393 1.613 1_565 S
N1394 C1397 1.350 . S
N1395 S1393 1.611 . S
N1395 C1396 1.341 1_545 S
C1396 C1390 1.428 . S
C1396 N1395 1.341 1_565 S
C1396 C1397 1.434 . S
C1397 C1388 1.429 . S
C1397 N1394 1.350 . S
C1397 C1396 1.434 . S
C1398 C1399 1.369 . S
C1398 C1400 1.419 . S
C1398 H1402 0.930 . S
C1399 C1398 1.369 . S
C1399 C1408 1.429 . S
C1400 C1398 1.419 . S
C1400 C1401 1.363 . S
C1400 H1403 0.929 . S
C1401 C1400 1.363 . S
C1401 C1407 1.428 . S
H1402 C1398 0.930 . S
H1403 C1400 0.929 . S
S1404 N1405 1.613 . S
S1404 N1406 1.610 . S
N1405 S1404 1.613 . S
N1405 C1408 1.350 . S
N1406 S1404 1.610 . S
N1406 C1407 1.351 . S
C1407 C1401 1.428 . S
C1407 N1406 1.351 . S
C1407 C1408 1.434 . S
C1408 C1399 1.429 . S
C1408 N1405 1.350 . S
C1408 C1407 1.434 . S
C1409 C1410 1.369 . S
C1409 C1411 1.419 . S
C1409 H1413 0.930 . S
C1410 C1409 1.369 . S
C1410 C1419 1.429 . S
C1411 C1409 1.419 . S
C1411 C1412 1.363 . S
C1411 H1414 0.929 . S
C1412 C1411 1.363 . S
C1412 C1418 1.428 . S
H1413 C1409 0.930 . S
H1414 C1411 0.929 . S
S1415 N1416 1.613 . S
S1415 N1417 1.612 . S
N1416 S1415 1.613 . S
N1416 C1419 1.355 . S
N1417 S1415 1.612 . S
N1417 C1418 1.351 . S
C1418 C1412 1.428 . S
C1418 N1417 1.351 . S
C1418 C1419 1.434 . S
C1419 C1410 1.429 . S
C1419 N1416 1.355 . S
C1419 C1418 1.434 . S
C1420 C1421 1.369 . S
C1420 C1422 1.419 . S
C1420 H1424 0.930 . S
C1421 C1420 1.369 . S
C1421 C1430 1.429 . S
C1422 C1420 1.419 . S
C1422 C1423 1.363 . S
C1422 H1425 0.929 . S
C1423 C1422 1.363 . S
C1423 C1429 1.428 . S
H1424 C1420 0.930 . S
H1425 C1422 0.929 . S
S1426 N1427 1.613 . S
S1426 N1428 1.610 . S
N1427 S1426 1.613 . S
N1427 C1430 1.350 . S
N1428 S1426 1.610 . S
N1428 C1429 1.351 . S
C1429 C1423 1.428 . S
C1429 N1428 1.351 . S
C1429 C1430 1.434 . S
C1430 C1421 1.429 . S
C1430 N1427 1.350 . S
C1430 C1429 1.434 . S
C1431 C1432 1.383 . S
C1431 C1433 1.419 . S
C1431 H1435 0.930 . S
C1432 C1431 1.383 . S
C1432 C1441 1.413 1_554 S
C1433 C1431 1.419 . S
C1433 C1434 1.363 1_554 S
C1433 H1436 0.929 . S
C1434 C1433 1.363 1_556 S
C1434 C1440 1.428 . S
H1435 C1431 0.930 . S
H1436 C1433 0.929 . S
S1437 N1438 1.613 . S
S1437 N1439 1.610 . S
N1438 S1437 1.613 . S
N1438 C1441 1.350 . S
N1439 S1437 1.610 . S
N1439 C1440 1.351 . S
C1440 C1434 1.428 . S
C1440 N1439 1.351 . S
C1440 C1441 1.434 . S
C1441 C1432 1.413 1_556 S
C1441 N1438 1.350 . S
C1441 C1440 1.434 . S
C1442 C1443 1.369 . S
C1442 C1444 1.419 . S
C1442 H1446 0.930 . S
C1443 C1442 1.369 . S
C1443 C1452 1.429 . S
C1444 C1442 1.419 . S
C1444 C1445 1.363 . S
C1444 H1447 0.929 . S
C1445 C1444 1.363 . S
C1445 C1451 1.428 . S
H1446 C1442 0.930 . S
H1447 C1444 0.929 . S
S1448 N1449 1.613 . S
S1448 N1450 1.610 . S
N1449 S1448 1.613 . S
N1449 C1452 1.350 . S
N1450 S1448 1.610 . S
N1450 C1451 1.351 . S
C1451 C1445 1.428 . S
C1451 N1450 1.351 . S
C1451 C1452 1.434 . S
C1452 C1443 1.429 . S
C1452 N1449 1.350 . S
C1452 C1451 1.434 . S
C1453 C1454 1.369 . S
C1453 C1455 1.419 . S
C1453 H1457 0.930 . S
C1454 C1453 1.369 . S
C1454 C1463 1.429 . S
C1455 C1453 1.419 . S
C1455 C1456 1.363 . S
C1455 H1458 0.929 . S
C1456 C1455 1.363 . S
C1456 C1462 1.428 . S
H1457 C1453 0.930 . S
H1458 C1455 0.929 . S
S1459 N1460 1.613 . S
S1459 N1461 1.610 . S
N1460 S1459 1.613 . S
N1460 C1463 1.350 . S
N1461 S1459 1.610 . S
N1461 C1462 1.351 . S
C1462 C1456 1.428 . S
C1462 N1461 1.351 . S
C1462 C1463 1.434 . S
C1463 C1454 1.429 . S
C1463 N1460 1.350 . S
C1463 C1462 1.434 . S
C1464 C1465 1.369 . S
C1464 C1466 1.419 . S
C1464 H1468 0.930 . S
C1465 C1464 1.369 . S
C1465 C1474 1.429 . S
C1466 C1464 1.419 . S
C1466 C1467 1.363 . S
C1466 H1469 0.929 . S
C1467 C1466 1.363 . S
C1467 C1473 1.428 . S
H1468 C1464 0.930 . S
H1469 C1466 0.929 . S
S1470 N1471 1.613 . S
S1470 N1472 1.610 . S
N1471 S1470 1.613 . S
N1471 C1474 1.350 . S
N1472 S1470 1.610 . S
N1472 C1473 1.351 . S
C1473 C1467 1.428 . S
C1473 N1472 1.351 . S
C1473 C1474 1.434 . S
C1474 C1465 1.429 . S
C1474 N1471 1.350 . S
C1474 C1473 1.434 . S
C1475 C1476 1.369 . S
C1475 C1477 1.419 . S
C1475 H1479 0.930 . S
C1476 C1475 1.369 . S
C1476 C1485 1.429 . S
C1477 C1475 1.419 . S
C1477 C1478 1.363 . S
C1477 H1480 0.929 . S
C1478 C1477 1.363 . S
C1478 C1484 1.428 . S
H1479 C1475 0.930 . S
H1480 C1477 0.929 . S
S1481 N1482 1.613 . S
S1481 N1483 1.610 . S
N1482 S1481 1.613 . S
N1482 C1485 1.350 . S
N1483 S1481 1.610 . S
N1483 C1484 1.351 . S
C1484 C1478 1.428 . S
C1484 N1483 1.351 . S
C1484 C1485 1.434 . S
C1485 C1476 1.429 . S
C1485 N1482 1.350 . S
C1485 C1484 1.434 . S
C1486 C1487 1.369 1_655 S
C1486 C1488 1.419 . S
C1486 H1490 0.930 . S
C1487 C1486 1.369 1_455 S
C1487 C1496 1.429 . S
C1488 C1486 1.419 . S
C1488 C1489 1.363 . S
C1488 H1491 0.929 . S
C1489 C1488 1.363 . S
C1489 C1495 1.428 1_655 S
H1490 C1486 0.930 . S
H1491 C1488 0.929 . S
S1492 N1493 1.613 . S
S1492 N1494 1.610 . S
N1493 S1492 1.613 . S
N1493 C1496 1.350 . S
N1494 S1492 1.610 . S
N1494 C1495 1.351 . S
C1495 C1489 1.428 1_455 S
C1495 N1494 1.351 . S
C1495 C1496 1.434 . S
C1496 C1487 1.429 . S
C1496 N1493 1.350 . S
C1496 C1495 1.434 . S
C1497 C1498 1.369 . S
C1497 C1499 1.419 . S
C1497 H1501 0.930 . S
C1498 C1497 1.369 . S
C1498 C1507 1.429 . S
C1499 C1497 1.419 . S
C1499 C1500 1.363 . S
C1499 H1502 0.929 . S
C1500 C1499 1.363 . S
C1500 C1506 1.428 . S
H1501 C1497 0.930 . S
H1502 C1499 0.929 . S
S1503 N1504 1.613 . S
S1503 N1505 1.610 . S
N1504 S1503 1.613 . S
N1504 C1507 1.350 . S
N1505 S1503 1.610 . S
N1505 C1506 1.351 . S
C1506 C1500 1.428 . S
C1506 N1505 1.351 . S
C1506 C1507 1.434 . S
C1507 C1498 1.429 . S
C1507 N1504 1.350 . S
C1507 C1506 1.434 . S
C1508 C1509 1.369 . S
C1508 C1510 1.419 . S
C1508 H1512 0.930 . S
C1509 C1508 1.369 . S
C1509 C1518 1.429 . S
C1510 C1508 1.419 . S
C1510 C1511 1.363 . S
C1510 H1513 0.929 . S
C1511 C1510 1.363 . S
C1511 C1517 1.428 . S
H1512 C1508 0.930 . S
H1513 C1510 0.929 . S
S1514 N1515 1.613 . S
S1514 N1516 1.610 . S
N1515 S1514 1.613 . S
N1515 C1518 1.350 . S
N1516 S1514 1.610 . S
N1516 C1517 1.351 . S
C1517 C1511 1.428 . S
C1517 N1516 1.351 . S
C1517 C1518 1.434 . S
C1518 C1509 1.429 . S
C1518 N1515 1.350 . S
C1518 C1517 1.434 . S
C1519 C1520 1.369 . S
C1519 C1521 1.419 . S
C1519 H1523 0.930 . S
C1520 C1519 1.369 . S
C1520 C1529 1.429 . S
C1521 C1519 1.419 . S
C1521 C1522 1.363 . S
C1521 H1524 0.929 . S
C1522 C1521 1.363 . S
C1522 C1528 1.428 . S
H1523 C1519 0.930 . S
H1524 C1521 0.929 . S
S1525 N1526 1.613 . S
S1525 N1527 1.610 . S
N1526 S1525 1.613 . S
N1526 C1529 1.350 . S
N1527 S1525 1.610 . S
N1527 C1528 1.351 . S
C1528 C1522 1.428 . S
C1528 N1527 1.351 . S
C1528 C1529 1.434 . S
C1529 C1520 1.429 . S
C1529 N1526 1.350 . S
C1529 C1528 1.434 . S
C1530 C1531 1.369 . S
C1530 C1532 1.419 . S
C1530 H1534 0.930 . S
C1531 C1530 1.369 . S
C1531 C1540 1.429 1_455 S
C1532 C1530 1.419 . S
C1532 C1533 1.363 1_455 S
C1532 H1535 0.929 . S
C1533 C1532 1.363 1_655 S
C1533 C1539 1.428 . S
H1534 C1530 0.930 . S
H1535 C1532 0.929 . S
S1536 N1537 1.613 . S
S1536 N1538 1.610 . S
N1537 S1536 1.613 . S
N1537 C1540 1.350 . S
N1538 S1536 1.610 . S
N1538 C1539 1.351 . S
C1539 C1533 1.428 . S
C1539 N1538 1.351 . S
C1539 C1540 1.434 . S
C1540 C1531 1.429 1_655 S
C1540 N1537 1.350 . S
C1540 C1539 1.434 . S
C1541 C1542 1.369 . S
C1541 C1543 1.419 . S
C1541 H1545 0.930 . S
C1542 C1541 1.369 . S
C1542 C1551 1.429 . S
C1543 C1541 1.419 . S
C1543 C1544 1.363 . S
C1543 H1546 0.929 . S
C1544 C1543 1.363 . S
C1544 C1550 1.428 . S
H1545 C1541 0.930 . S
H1546 C1543 0.929 . S
S1547 N1548 1.613 . S
S1547 N1549 1.610 . S
N1548 S1547 1.613 . S
N1548 C1551 1.350 . S
N1549 S1547 1.610 . S
N1549 C1550 1.351 . S
C1550 C1544 1.428 . S
C1550 N1549 1.351 . S
C1550 C1551 1.434 . S
C1551 C1542 1.429 . S
C1551 N1548 1.350 . S
C1551 C1550 1.434 . S
C1552 C1553 1.369 . S
C1552 C1554 1.419 . S
C1552 H1556 0.930 . S
C1553 C1552 1.369 . S
C1553 C1562 1.429 . S
C1554 C1552 1.419 . S
C1554 C1555 1.363 . S
C1554 H1557 0.929 . S
C1555 C1554 1.363 . S
C1555 C1561 1.428 . S
H1556 C1552 0.930 . S
H1557 C1554 0.929 . S
S1558 N1559 1.613 . S
S1558 N1560 1.610 . S
N1559 S1558 1.613 . S
N1559 C1562 1.350 . S
N1560 S1558 1.610 . S
N1560 C1561 1.351 . S
C1561 C1555 1.428 . S
C1561 N1560 1.351 . S
C1561 C1562 1.434 . S
C1562 C1553 1.429 . S
C1562 N1559 1.350 . S
C1562 C1561 1.434 . S
C1563 C1564 1.369 . S
C1563 C1565 1.419 . S
C1563 H1567 0.930 . S
C1564 C1563 1.369 . S
C1564 C1573 1.429 . S
C1565 C1563 1.419 . S
C1565 C1566 1.363 . S
C1565 H1568 0.929 . S
C1566 C1565 1.363 . S
C1566 C1572 1.428 . S
H1567 C1563 0.930 . S
H1568 C1565 0.929 . S
S1569 N1570 1.613 . S
S1569 N1571 1.610 . S
N1570 S1569 1.613 . S
N1570 C1573 1.350 . S
N1571 S1569 1.610 . S
N1571 C1572 1.351 . S
C1572 C1566 1.428 . S
C1572 N1571 1.351 . S
C1572 C1573 1.434 . S
C1573 C1564 1.429 . S
C1573 N1570 1.350 . S
C1573 C1572 1.434 . S
C1574 C1575 1.369 . S
C1574 C1576 1.419 . S
C1574 H1578 0.930 . S
C1575 C1574 1.369 . S
C1575 C1584 1.429 . S
C1576 C1574 1.419 . S
C1576 C1577 1.363 . S
C1576 H1579 0.929 . S
C1577 C1576 1.363 . S
C1577 C1583 1.428 . S
H1578 C1574 0.930 . S
H1579 C1576 0.929 . S
S1580 N1581 1.625 . S
S1580 N1582 1.611 . S
N1581 S1580 1.625 . S
N1581 C1584 1.350 . S
N1582 S1580 1.611 . S
N1582 C1583 1.351 . S
C1583 C1577 1.428 . S
C1583 N1582 1.351 . S
C1583 C1584 1.434 . S
C1584 C1575 1.429 . S
C1584 N1581 1.350 . S
C1584 C1583 1.434 . S
C1585 C1586 1.369 . S
C1585 C1587 1.419 . S
C1585 H1589 0.930 . S
C1586 C1585 1.369 . S
C1586 C1595 1.429 . S
C1587 C1585 1.419 . S
C1587 C1588 1.363 . S
C1587 H1590 0.929 . S
C1588 C1587 1.363 . S
C1588 C1594 1.428 . S
H1589 C1585 0.930 . S
H1590 C1587 0.929 . S
S1591 N1592 1.613 . S
S1591 N1593 1.610 . S
N1592 S1591 1.613 . S
N1592 C1595 1.350 . S
N1593 S1591 1.610 . S
N1593 C1594 1.351 . S
C1594 C1588 1.428 . S
C1594 N1593 1.351 . S
C1594 C1595 1.434 . S
C1595 C1586 1.429 . S
C1595 N1592 1.350 . S
C1595 C1594 1.434 . S
C1596 C1597 1.369 . S
C1596 C1598 1.419 . S
C1596 H1600 0.930 . S
C1597 C1596 1.369 . S
C1597 C1606 1.429 . S
C1598 C1596 1.419 . S
C1598 C1599 1.363 . S
C1598 H1601 0.929 . S
C1599 C1598 1.363 . S
C1599 C1605 1.428 . S
H1600 C1596 0.930 . S
H1601 C1598 0.929 . S
S1602 N1603 1.613 . S
S1602 N1604 1.610 . S
N1603 S1602 1.613 . S
N1603 C1606 1.350 . S
N1604 S1602 1.610 . S
N1604 C1605 1.351 . S
C1605 C1599 1.428 . S
C1605 N1604 1.351 . S
C1605 C1606 1.434 . S
C1606 C1597 1.429 . S
C1606 N1603 1.350 . S
C1606 C1605 1.434 . S
C1607 C1608 1.369 . S
C1607 C1609 1.419 . S
C1607 H1611 0.930 . S
C1608 C1607 1.369 . S
C1608 C1617 1.429 . S
C1609 C1607 1.419 . S
C1609 C1610 1.363 . S
C1609 H1612 0.929 . S
C1610 C1609 1.363 . S
C1610 C1616 1.428 . S
H1611 C1607 0.930 . S
H1612 C1609 0.929 . S
S1613 N1614 1.613 . S
S1613 N1615 1.610 . S
N1614 S1613 1.613 . S
N1614 C1617 1.350 . S
N1615 S1613 1.610 . S
N1615 C1616 1.351 . S
C1616 C1610 1.428 . S
C1616 N1615 1.351 . S
C1616 C1617 1.434 . S
C1617 C1608 1.429 . S
C1617 N1614 1.350 . S
C1617 C1616 1.434 . S
C1618 C1619 1.369 . S
C1618 C1620 1.419 . S
C1618 H1622 0.930 . S
C1619 C1618 1.369 . S
C1619 C1628 1.429 . S
C1620 C1618 1.419 . S
C1620 C1621 1.363 . S
C1620 H1623 0.929 . S
C1621 C1620 1.363 . S
C1621 C1627 1.428 . S
H1622 C1618 0.930 . S
H1623 C1620 0.929 . S
S1624 N1625 1.613 . S
S1624 N1626 1.610 . S
N1625 S1624 1.613 . S
N1625 C1628 1.350 . S
N1626 S1624 1.610 . S
N1626 C1627 1.351 . S
C1627 C1621 1.428 . S
C1627 N1626 1.351 . S
C1627 C1628 1.434 . S
C1628 C1619 1.429 . S
C1628 N1625 1.350 . S
C1628 C1627 1.434 . S
C1629 C1630 1.369 . S
C1629 C1631 1.419 . S
C1629 H1633 0.930 . S
C1630 C1629 1.369 . S
C1630 C1639 1.429 . S
C1631 C1629 1.419 . S
C1631 C1632 1.363 . S
C1631 H1634 0.929 . S
C1632 C1631 1.363 . S
C1632 C1638 1.428 . S
H1633 C1629 0.930 . S
H1634 C1631 0.929 . S
S1635 N1636 1.613 . S
S1635 N1637 1.610 . S
N1636 S1635 1.613 . S
N1636 C1639 1.350 . S
N1637 S1635 1.610 . S
N1637 C1638 1.351 . S
C1638 C1632 1.428 . S
C1638 N1637 1.351 . S
C1638 C1639 1.434 . S
C1639 C1630 1.429 . S
C1639 N1636 1.350 . S
C1639 C1638 1.434 . S
C1640 C1641 1.369 . S
C1640 C1642 1.419 . S
C1640 H1644 0.930 . S
C1641 C1640 1.369 . S
C1641 C1650 1.429 . S
C1642 C1640 1.419 . S
C1642 C1643 1.363 . S
C1642 H1645 0.929 . S
C1643 C1642 1.363 . S
C1643 C1649 1.428 . S
H1644 C1640 0.930 . S
H1645 C1642 0.929 . S
S1646 N1647 1.613 . S
S1646 N1648 1.610 . S
N1647 S1646 1.613 . S
N1647 C1650 1.350 . S
N1648 S1646 1.610 . S
N1648 C1649 1.351 . S
C1649 C1643 1.428 . S
C1649 N1648 1.351 . S
C1649 C1650 1.434 . S
C1650 C1641 1.429 . S
C1650 N1647 1.350 . S
C1650 C1649 1.434 . S
C1651 C1652 1.369 . S
C1651 C1653 1.419 . S
C1651 H1655 0.930 . S
C1652 C1651 1.369 . S
C1652 C1661 1.429 . S
C1653 C1651 1.419 . S
C1653 C1654 1.363 . S
C1653 H1656 0.929 . S
C1654 C1653 1.363 . S
C1654 C1660 1.428 . S
H1655 C1651 0.930 . S
H1656 C1653 0.929 . S
S1657 N1658 1.613 . S
S1657 N1659 1.610 . S
N1658 S1657 1.613 . S
N1658 C1661 1.350 . S
N1659 S1657 1.610 . S
N1659 C1660 1.351 . S
C1660 C1654 1.428 . S
C1660 N1659 1.351 . S
C1660 C1661 1.434 . S
C1661 C1652 1.429 . S
C1661 N1658 1.350 . S
C1661 C1660 1.434 . S
C1662 C1663 1.369 . S
C1662 C1664 1.419 . S
C1662 H1666 0.930 . S
C1663 C1662 1.369 . S
C1663 C1672 1.429 . S
C1664 C1662 1.419 . S
C1664 C1665 1.363 . S
C1664 H1667 0.929 . S
C1665 C1664 1.363 . S
C1665 C1671 1.428 . S
H1666 C1662 0.930 . S
H1667 C1664 0.929 . S
S1668 N1669 1.613 . S
S1668 N1670 1.610 . S
N1669 S1668 1.613 . S
N1669 C1672 1.350 . S
N1670 S1668 1.610 . S
N1670 C1671 1.351 . S
C1671 C1665 1.428 . S
C1671 N1670 1.351 . S
C1671 C1672 1.434 . S
C1672 C1663 1.429 . S
C1672 N1669 1.350 . S
C1672 C1671 1.434 . S
C1673 C1674 1.369 1_556 S
C1673 C1675 1.419 . S
C1673 H1677 0.930 . S
C1674 C1673 1.369 1_554 S
C1674 C1683 1.429 . S
C1675 C1673 1.419 . S
C1675 C1676 1.363 . S
C1675 H1678 0.929 . S
C1676 C1675 1.363 . S
C1676 C1682 1.428 1_556 S
H1677 C1673 0.930 . S
H1678 C1675 0.929 . S
S1679 N1680 1.613 1_545 S
S1679 N1681 1.610 . S
N1680 S1679 1.613 1_565 S
N1680 C1683 1.350 . S
N1681 S1679 1.610 . S
N1681 C1682 1.351 1_545 S
C1682 C1676 1.428 1_554 S
C1682 N1681 1.351 1_565 S
C1682 C1683 1.434 . S
C1683 C1674 1.429 . S
C1683 N1680 1.350 . S
C1683 C1682 1.434 . S
C1684 C1685 1.369 . S
C1684 C1686 1.419 . S
C1684 H1688 0.930 . S
C1685 C1684 1.369 . S
C1685 C1694 1.429 . S
C1686 C1684 1.419 . S
C1686 C1687 1.363 . S
C1686 H1689 0.929 . S
C1687 C1686 1.363 . S
C1687 C1693 1.428 . S
H1688 C1684 0.930 . S
H1689 C1686 0.929 . S
S1690 N1691 1.613 . S
S1690 N1692 1.610 . S
N1691 S1690 1.613 . S
N1691 C1694 1.350 . S
N1692 S1690 1.610 . S
N1692 C1693 1.351 . S
C1693 C1687 1.428 . S
C1693 N1692 1.351 . S
C1693 C1694 1.434 . S
C1694 C1685 1.429 . S
C1694 N1691 1.350 . S
C1694 C1693 1.434 . S
C1695 C1696 1.369 1_556 S
C1695 C1697 1.419 . S
C1695 H1699 0.930 . S
C1696 C1695 1.369 1_554 S
C1696 C1705 1.429 . S
C1697 C1695 1.419 . S
C1697 C1698 1.363 1_556 S
C1697 H1700 0.929 . S
C1698 C1697 1.363 1_554 S
C1698 C1704 1.428 . S
H1699 C1695 0.930 . S
H1700 C1697 0.929 . S
S1701 N1702 1.613 . S
S1701 N1703 1.610 . S
N1702 S1701 1.613 . S
N1702 C1705 1.350 . S
N1703 S1701 1.610 . S
N1703 C1704 1.351 . S
C1704 C1698 1.428 . S
C1704 N1703 1.351 . S
C1704 C1705 1.434 . S
C1705 C1696 1.429 . S
C1705 N1702 1.350 . S
C1705 C1704 1.434 . S
C1706 C1707 1.369 . S
C1706 C1708 1.419 . S
C1706 H1710 0.930 . S
C1707 C1706 1.369 . S
C1707 C1716 1.429 . S
C1708 C1706 1.419 . S
C1708 C1709 1.363 . S
C1708 H1711 0.929 . S
C1709 C1708 1.363 . S
C1709 C1715 1.428 . S
H1710 C1706 0.930 . S
H1711 C1708 0.929 . S
S1712 N1713 1.613 . S
S1712 N1714 1.610 . S
N1713 S1712 1.613 . S
N1713 C1716 1.350 . S
N1714 S1712 1.610 . S
N1714 C1715 1.351 . S
C1715 C1709 1.428 . S
C1715 N1714 1.351 . S
C1715 C1716 1.434 . S
C1716 C1707 1.429 . S
C1716 N1713 1.350 . S
C1716 C1715 1.434 . S
C1717 C1718 1.369 . S
C1717 C1719 1.419 . S
C1717 H1721 0.930 . S
C1718 C1717 1.369 . S
C1718 C1727 1.429 . S
C1719 C1717 1.419 . S
C1719 C1720 1.363 . S
C1719 H1722 0.929 . S
C1720 C1719 1.363 . S
C1720 C1726 1.428 . S
H1721 C1717 0.930 . S
H1722 C1719 0.929 . S
S1723 N1724 1.613 . S
S1723 N1725 1.610 . S
N1724 S1723 1.613 . S
N1724 C1727 1.350 . S
N1725 S1723 1.610 . S
N1725 C1726 1.351 . S
C1726 C1720 1.428 . S
C1726 N1725 1.351 . S
C1726 C1727 1.434 . S
C1727 C1718 1.429 . S
C1727 N1724 1.350 . S
C1727 C1726 1.434 . S
C675 C351 1.346 . S
C673 C7 1.431 . S
C684 C22 1.300 . S
C686 C370 1.252 . S
C695 C31 1.455 . S
C697 C393 1.350 . S
C708 C413 1.397 . S
C706 C51 1.427 . S
C717 C17 1.432 . S
C719 C434 1.402 . S
C730 C456 1.377 . S
C728 C36 1.460 . S
C741 C478 1.292 . S
C739 C49 1.326 . S
C750 C9 1.418 . S
C752 C496 1.366 . S
C761 C63 1.380 1_565 S
C763 C352 1.342 . S
C772 C73 1.423 . S
C774 C371 1.400 . S
C785 C394 1.268 . S
C783 C91 1.300 1_545 S
C796 C417 1.371 . S
C794 C101 1.476 . S
C805 C59 1.503 . S
C807 C438 1.405 . S
C818 C457 1.244 . S
C816 C77 1.268 . S
C829 C479 1.379 . S
C827 C87 1.412 . S
C840 C497 1.376 . S
C838 C105 1.378 . S
C851 C353 1.383 . S
C849 C107 1.404 . S
C862 C520 1.245 . S
C860 C120 1.281 . S
C871 C135 1.378 . S
C873 C542 1.363 . S
C884 C561 1.368 . S
C882 C148 1.459 . S
C893 C65 1.398 . S
C895 C501 1.308 . S
C906 C395 1.411 . S
C904 C79 1.428 . S
C915 C134 1.258 . S
C917 C583 1.216 . S
C928 C606 1.307 . S
C926 C162 1.383 . S
C937 C171 1.415 . S
C939 C354 1.327 . S
C950 C605 1.281 . S
C948 C190 1.309 . S
C959 C203 1.447 . S
C961 C396 1.387 . S
C970 C219 1.331 . S
C972 C580 1.295 . S
C983 C436 1.298 . S
C981 C189 1.299 . S
C994 C543 1.335 . S
C992 C204 1.419 . S
C1005 C476 1.359 . S
C1003 C213 1.381 . S
C1016 C626 1.414 . S
C1014 C177 1.442 . S
C1027 C350 1.398 . S
C1025 C227 1.426 . S
C1036 C245 1.269 . S
C1038 C604 1.281 . S
C1049 C392 1.299 . S
C1047 C255 1.331 . S
C1058 C273 1.367 . S
C1060 C585 1.334 . S
C1069 C231 1.409 . S
C1071 C435 1.355 . S
C1080 C241 1.350 . S
C1082 C539 1.319 . S
C1093 C475 1.277 . S
C1091 C259 1.260 . S
C1102 C269 1.335 . S
C1104 C625 1.296 . S
C1113 C275 1.344 . S
C1115 C349 1.309 . S
C1124 C288 1.340 . S
C1126 C518 1.315 . S
C1135 C303 1.294 . S
C1137 C454 1.261 . S
C1146 C316 1.397 . S
C1148 C564 1.330 . S
C1159 C624 1.282 . S
C1157 C233 1.363 . S
C1170 C391 1.284 . S
C1168 C247 1.332 . S
C1181 C416 1.279 . S
C1179 C302 1.298 . S
C1192 C372 1.343 . S
C1190 C330 1.407 . S
C1201 C35 1.432 . S
C1203 C648 1.341 . S
C1214 C601 1.253 . S
C1212 C50 1.300 . S
C1225 C666 1.353 . S
C1223 C3 1.455 . S
C1234 C23 1.424 . S
C1236 C584 1.398 . S
C1245 C45 1.432 . S
C1247 C521 1.400 . S
C1258 C540 1.379 . S
C1256 C8 1.458 . S
C1269 C562 1.290 . S
C1267 C21 1.326 1_455 S
C1280 C622 1.365 . S
C1278 C37 1.417 . S
C1291 C643 1.343 . S
C1289 C161 1.379 . S
C1300 C115 1.423 . S
C1302 C602 1.399 . S
C1311 C133 1.298 . S
C1313 C667 1.274 . S
C1324 C582 1.376 . S
C1322 C143 1.476 . S
C1335 C519 1.414 . S
C1333 C157 1.505 . S
C1344 C119 1.274 . S
C1346 C541 1.239 . S
C1357 C563 1.378 . S
C1355 C129 1.410 . S
C1366 C147 1.372 . S
C1368 C623 1.371 . S
C1379 C644 1.383 . S
C1377 C149 1.404 . S
C1390 C433 1.244 . S
C1388 C78 1.281 . S
C1401 C458 1.362 . S
C1399 C93 1.379 . S
C1410 C106 1.460 . S
C1412 C477 1.376 . S
C1423 C627 1.301 . S
C1421 C163 1.397 . S
C1432 C121 1.429 . S
C1434 C668 1.410 . S
C1445 C412 1.210 . S
C1443 C92 1.261 . S
C1456 C375 1.315 . S
C1454 C64 1.386 . S
C1465 C199 1.415 . S
C1467 C645 1.326 . S
C1478 C374 1.288 . S
C1476 C218 1.308 . S
C1489 C669 1.395 . S
C1487 C175 1.453 . S
C1498 C191 1.334 . S
C1500 C415 1.288 . S
C1509 C217 1.298 . S
C1511 C517 1.298 . S
C1520 C176 1.417 . S
C1522 C459 1.329 . S
C1531 C185 1.381 . S
C1533 C560 1.358 . S
C1542 C205 1.442 . S
C1544 C500 1.413 . S
C1555 C647 1.395 . S
C1553 C325 1.426 . S
C1564 C287 1.273 . S
C1566 C373 1.272 . S
C1577 C665 1.298 . S
C1575 C297 1.331 . S
C1586 C315 1.370 . S
C1588 C414 1.337 . S
C1597 C329 1.398 . S
C1599 C522 1.348 . S
C1610 C455 1.317 . S
C1608 C283 1.353 . S
C1619 C301 1.253 . S
C1621 C559 1.273 . S
C1632 C499 1.299 . S
C1630 C311 1.335 . S
C1643 C646 1.310 . S
C1641 C317 1.344 . S
C1654 C437 1.312 . S
C1652 C246 1.342 . S
C1663 C261 1.294 . S
C1665 C538 1.261 . S
C1676 C480 1.336 . S
C1674 C274 1.401 . S
C1687 C498 1.287 . S
C1685 C331 1.361 . S
C1696 C289 1.329 1_554 S
C1698 C664 1.292 . S
C1709 C581 1.275 . S
C1707 C260 1.302 . S
C1720 C603 1.339 . S
C1718 C232 1.404 . S
